20:0
     RDKit          3D

 30 34  0  0  0  0  0  0  0  0999 V2000
   52.7010   31.1380   52.9020 C   0  0  0  0  0  0  0  0  0  0  0  0
   51.9670   31.2090   51.6290 C   0  0  0  0  0  0  0  0  0  0  0  0
   52.1940   30.3800   50.5950 N   0  0  0  0  0  0  0  0  0  0  0  0
   51.3870   30.8640   49.6250 C   0  0  0  0  0  0  0  0  0  0  0  0
   51.3050   30.3350   48.4860 O   0  0  0  0  0  0  0  0  0  0  0  0
   50.6820   31.9630   49.9690 N   0  0  0  0  0  0  0  0  0  0  0  0
   51.0710   32.1770   51.2350 C   0  0  0  0  0  0  0  0  0  0  0  0
   50.6460   33.2570   52.0000 O   0  0  0  0  0  0  0  0  0  0  0  0
   53.6130   30.1990   53.1980 C   0  0  0  0  0  0  0  0  0  0  0  0
   53.4550   29.1770   54.1220 C   0  0  0  0  0  0  0  0  0  0  0  0
   54.5890   28.4430   54.1760 N   0  0  0  0  0  0  0  0  0  0  0  0
   55.4710   28.9640   53.3300 N   0  0  0  0  0  0  0  0  0  0  0  0
   56.7680   28.6130   53.0510 C   0  0  0  0  0  0  0  0  0  0  0  0
   57.3800   27.5750   53.5510 N   0  0  0  0  0  0  0  0  0  0  0  0
   58.6460   27.5020   54.2690 C   0  0  0  0  0  0  0  0  0  0  0  0
   59.2550   28.8780   54.4740 C   0  0  0  0  0  0  0  0  0  0  0  0
   59.8540   27.9260   53.4520 C   0  0  0  0  0  0  0  0  0  0  0  0
   57.4580   29.3920   52.1740 N   0  0  0  0  0  0  0  0  0  0  0  0
   56.8870   30.4870   51.5890 C   0  0  0  0  0  0  0  0  0  0  0  0
   57.5560   31.2220   50.7520 N   0  0  0  0  0  0  0  0  0  0  0  0
   59.0000   31.1340   50.5320 C   0  0  0  0  0  0  0  0  0  0  0  0
   59.3240   30.0050   49.5900 C   0  0  0  0  0  0  0  0  0  0  0  0
   58.9140   30.0520   48.2470 C   0  0  0  0  0  0  0  0  0  0  0  0
   59.2450   29.0130   47.3720 C   0  0  0  0  0  0  0  0  0  0  0  0
   59.9880   27.9200   47.8310 C   0  0  0  0  0  0  0  0  0  0  0  0
   60.4040   26.6180   46.7310 Cl  0  0  0  0  0  0  0  0  0  0  0  0
   60.4010   27.8670   49.1670 C   0  0  0  0  0  0  0  0  0  0  0  0
   60.0720   28.9050   50.0430 C   0  0  0  0  0  0  0  0  0  0  0  0
   55.6000   30.8140   51.8780 N   0  0  0  0  0  0  0  0  0  0  0  0
   54.9080   30.0280   52.7350 C   0  0  0  0  0  0  0  0  0  0  0  0
  1  2  1  0
  2  3  1  0
  3  4  1  0
  4  5  2  0
  4  6  1  0
  6  7  1  0
  7  8  1  0
  1  9  2  0
  9 10  1  0
 10 11  2  0
 11 12  1  0
 12 13  1  0
 13 14  2  3
 14 15  1  0
 15 16  1  0
 16 17  1  0
 13 18  1  0
 18 19  1  0
 19 20  2  3
 20 21  1  0
 21 22  1  0
 22 23  2  0
 23 24  1  0
 24 25  2  0
 25 26  1  0
 25 27  1  0
 27 28  2  0
 19 29  1  0
 29 30  2  0
  7  2  2  0
 30  9  1  0
 30 12  1  0
 17 15  1  0
 28 22  1  0
M  CHG  5   3  -1   6  -1   8  -1  11   1  18  -1
M  END
>  <UniqueID>  (1) 
18

>  <SMILES>  (1) 
O=c1[n-]c([O-])c(/C=c2/c[nH+]n3c(=NC4CC4)[n-]c(=NCc4ccc(Cl)cc4)nc23)[n-]1

>  <Energy>  (1) 
395.58864250472027

>  <Genealogy>  (1) 
O=c1[n-]c([O-])c(C=c2c[nH+]n3c(=NC4CC4)[n-]c(=NCc4ccc(Cl)cc4)nc23)[n-]1 (protonated)
O=c1[n-]c([O-])c(/C=c2/c[nH+]n3c(=NC4CC4)[n-]c(=NCc4ccc(Cl)cc4)nc23)[n-]1 (cis-trans isomerization)
O=c1[n-]c([O-])c(/C=c2/c[nH+]n3c(=NC4CC4)[n-]c(=NCc4ccc(Cl)cc4)nc23)[n-]1 (3D coordinates assigned)
O=c1[n-]c([O-])c(/C=c2/c[nH+]n3c(=NC4CC4)[n-]c(=NCc4ccc(Cl)cc4)nc23)[n-]1 (nonaromatic ring conformer: 395.58864250472027 kcal/mol)

>  <smiles>  (1) 
O=c1[nH]c(O)c(C=c2cnn3c(=NC4CC4)[nH]c(=NCc4ccc(Cl)cc4)nc23)[nH]1

>  <score_type>  (1) 
oracle

>  <origin>  (1) 
adg

>  <m_score__min__energy>  (1) 
-17.16

>  <m_primary>  (1) 
energy

$$$$
39:0
     RDKit          3D

 25 26  0  0  0  0  0  0  0  0999 V2000
   55.6310   28.9120   45.2210 N   0  0  0  0  0  0  0  0  0  0  0  0
   56.7960   29.7260   45.0770 C   0  0  0  0  0  0  0  0  0  0  0  0
   56.9900   30.3420   43.9940 O   0  0  0  0  0  0  0  0  0  0  0  0
   57.8080   29.7650   46.1890 C   0  0  0  0  0  0  0  0  0  0  0  0
   58.0980   31.1760   46.6600 C   0  0  0  0  0  0  0  0  0  0  0  0
   58.0480   32.2170   45.7120 C   0  0  0  0  0  0  0  0  0  0  0  0
   58.2980   33.5380   46.0890 C   0  0  0  0  0  0  0  0  0  0  0  0
   58.6210   33.8360   47.4130 C   0  0  0  0  0  0  0  0  0  0  0  0
   58.6830   32.8170   48.3630 C   0  0  0  0  0  0  0  0  0  0  0  0
   58.4000   31.4890   48.0110 C   0  0  0  0  0  0  0  0  0  0  0  0
   58.5230   30.2370   49.3070 S   0  0  0  0  0  0  0  0  0  0  0  0
   58.4570   31.4170   50.6690 C   0  0  0  0  0  0  0  0  0  0  0  0
   59.5500   32.2710   50.8700 C   0  0  0  0  0  0  0  0  0  0  0  0
   59.5300   33.2190   51.8970 C   0  0  0  0  0  0  0  0  0  0  0  0
   58.4140   33.3190   52.7300 C   0  0  0  0  0  0  0  0  0  0  0  0
   57.3120   32.4850   52.5280 C   0  0  0  0  0  0  0  0  0  0  0  0
   57.3240   31.5270   51.4980 C   0  0  0  0  0  0  0  0  0  0  0  0
   56.1760   30.7000   51.2530 N   0  0  0  0  0  0  0  0  0  0  0  0
   54.9170   30.8130   51.9290 C   0  0  0  0  0  0  0  0  0  0  0  0
   54.8230   30.5050   53.1460 O   0  0  0  0  0  0  0  0  0  0  0  0
   53.6940   31.1290   51.1770 C   0  0  0  0  0  0  0  0  0  0  0  0
   52.4810   31.3530   51.7080 C   0  0  0  0  0  0  0  0  0  0  0  0
   51.4730   32.3190   51.2170 C   0  0  0  0  0  0  0  0  0  0  0  0
   51.3830   32.6300   49.9980 O   0  0  0  0  0  0  0  0  0  0  0  0
   50.6510   32.9570   52.1420 O   0  0  0  0  0  0  0  0  0  0  0  0
  1  2  1  0
  2  3  2  0
  2  4  1  0
  4  5  1  0
  5  6  2  0
  6  7  1  0
  7  8  2  0
  8  9  1  0
  9 10  2  0
 10 11  1  0
 11 12  1  0
 12 13  2  0
 13 14  1  0
 14 15  2  0
 15 16  1  0
 16 17  2  0
 17 18  1  0
 18 19  1  0
 19 20  2  0
 19 21  1  0
 21 22  2  3
 22 23  1  0
 23 24  2  0
 23 25  1  0
 10  5  1  0
 17 12  1  0
M  CHG  3   1  -1  18  -1  25  -1
M  END
>  <UniqueID>  (2) 
35

>  <SMILES>  (2) 
[NH-]C(=O)Cc1ccccc1Sc1ccccc1[N-]C(=O)C=CC(=O)[O-]

>  <Energy>  (2) 
44.291961605438566

>  <Genealogy>  (2) 
[NH-]C(=O)Cc1ccccc1Sc1ccccc1[N-]C(=O)C=CC(=O)[O-] (protonated)
[NH-]C(=O)Cc1ccccc1Sc1ccccc1[N-]C(=O)C=CC(=O)[O-] (3D coordinates assigned)
[NH-]C(=O)Cc1ccccc1Sc1ccccc1[N-]C(=O)C=CC(=O)[O-] (optimized conformer: 44.291961605438566 kcal/mol)

>  <smiles>  (2) 
NC(=O)Cc1ccccc1Sc1ccccc1NC(=O)C=CC(=O)O

>  <score_type>  (2) 
oracle

>  <origin>  (2) 
adg

>  <m_score__min__energy>  (2) 
-15.1

>  <m_primary>  (2) 
energy

$$$$
25:0
     RDKit          3D

 31 33  0  0  0  0  0  0  0  0999 V2000
   55.0690   28.5070   53.8810 C   0  0  0  0  0  0  0  0  0  0  0  0
   55.4430   29.9820   54.0340 C   0  0  0  0  0  0  0  0  0  0  0  0
   54.7610   30.8100   53.0210 N   0  0  0  0  0  0  0  0  0  0  0  0
   55.5420   31.5520   52.0210 C   0  0  0  0  0  0  0  0  0  0  0  0
   56.8830   30.9190   51.8200 C   0  0  0  0  0  0  0  0  0  0  0  0
   56.9750   29.6620   51.7460 O   0  0  0  0  0  0  0  0  0  0  0  0
   58.0550   31.7460   51.7740 N   0  0  0  0  0  0  0  0  0  0  0  0
   58.6510   32.3020   50.5930 C   0  0  0  0  0  0  0  0  0  0  0  0
   59.3020   33.5360   50.6880 C   0  0  0  0  0  0  0  0  0  0  0  0
   59.9020   34.1070   49.5640 C   0  0  0  0  0  0  0  0  0  0  0  0
   59.8370   33.4620   48.3240 C   0  0  0  0  0  0  0  0  0  0  0  0
   60.6350   34.2200   46.9510 Cl  0  0  0  0  0  0  0  0  0  0  0  0
   59.1470   32.2370   48.2050 C   0  0  0  0  0  0  0  0  0  0  0  0
   59.0340   31.3980   46.6490 S   0  0  0  0  0  0  0  0  0  0  0  0
   59.0270   32.4320   45.5530 O   0  0  0  0  0  0  0  0  0  0  0  0
   57.7460   30.6260   46.5760 O   0  0  0  0  0  0  0  0  0  0  0  0
   60.4090   30.3300   46.4490 N   0  0  0  0  0  0  0  0  0  0  0  0
   60.8700   29.7540   47.7280 C   0  0  0  0  0  0  0  0  0  0  0  0
   60.0400   28.5300   48.1480 C   0  0  0  0  0  0  0  0  0  0  0  0
   60.0190   27.5600   47.1210 O   0  0  0  0  0  0  0  0  0  0  0  0
   59.3840   28.0950   45.9780 C   0  0  0  0  0  0  0  0  0  0  0  0
   60.1700   29.2940   45.4240 C   0  0  0  0  0  0  0  0  0  0  0  0
   58.5570   31.6660   49.3430 C   0  0  0  0  0  0  0  0  0  0  0  0
   53.3200   30.8570   52.9640 C   0  0  0  0  0  0  0  0  0  0  0  0
   52.6530   30.7950   54.0320 O   0  0  0  0  0  0  0  0  0  0  0  0
   52.6020   30.9850   51.6830 C   0  0  0  0  0  0  0  0  0  0  0  0
   52.4270   29.9750   50.7530 C   0  0  0  0  0  0  0  0  0  0  0  0
   51.6570   30.5100   49.7460 C   0  0  0  0  0  0  0  0  0  0  0  0
   51.4010   31.8090   50.1210 C   0  0  0  0  0  0  0  0  0  0  0  0
   50.6440   32.7120   49.3830 O   0  0  0  0  0  0  0  0  0  0  0  0
   51.9650   32.1130   51.3050 N   0  0  0  0  0  0  0  0  0  0  0  0
  1  2  1  0
  2  3  1  0
  3  4  1  0
  4  5  1  0
  5  6  2  0
  5  7  1  0
  7  8  1  0
  8  9  2  0
  9 10  1  0
 10 11  2  0
 11 12  1  0
 11 13  1  0
 13 14  1  0
 14 15  2  0
 14 16  2  0
 14 17  1  0
 17 18  1  0
 18 19  1  0
 19 20  1  0
 20 21  1  0
 21 22  1  0
 13 23  2  0
  3 24  1  0
 24 25  2  0
 24 26  1  0
 26 27  2  0
 27 28  1  0
 28 29  2  0
 29 30  1  0
 29 31  1  0
 23  8  1  0
 31 26  1  0
 22 17  1  0
M  CHG  3   7  -1  30  -1  31  -1
M  END
>  <UniqueID>  (3) 
24

>  <SMILES>  (3) 
CCN(CC(=O)[N-]c1ccc(Cl)c(S(=O)(=O)N2CCOCC2)c1)C(=O)c1ccc([O-])[n-]1

>  <Energy>  (3) 
85.25257327672745

>  <Genealogy>  (3) 
CCN(CC(=O)[N-]c1ccc(Cl)c(S(=O)(=O)N2CCOCC2)c1)C(=O)c1ccc([O-])[n-]1 (protonated)
CCN(CC(=O)[N-]c1ccc(Cl)c(S(=O)(=O)N2CCOCC2)c1)C(=O)c1ccc([O-])[n-]1 (3D coordinates assigned)
CCN(CC(=O)[N-]c1ccc(Cl)c(S(=O)(=O)N2CCOCC2)c1)C(=O)c1ccc([O-])[n-]1 (nonaromatic ring conformer: 85.25257327672745 kcal/mol)

>  <smiles>  (3) 
CCN(CC(=O)Nc1ccc(Cl)c(S(=O)(=O)N2CCOCC2)c1)C(=O)c1ccc(O)[nH]1

>  <score_type>  (3) 
oracle

>  <origin>  (3) 
adg

>  <m_score__min__energy>  (3) 
-15.42

>  <m_primary>  (3) 
energy

$$$$
63:0
     RDKit          3D

 24 25  0  0  0  0  0  0  0  0999 V2000
   63.7880   32.3010   48.4470 C   0  0  0  0  0  0  0  0  0  0  0  0
   62.6150   32.1060   47.5370 C   0  0  0  0  0  0  0  0  0  0  0  0
   62.3020   33.0290   46.7400 O   0  0  0  0  0  0  0  0  0  0  0  0
   61.8590   30.8880   47.5170 N   0  0  0  0  0  0  0  0  0  0  0  0
   60.6270   30.6590   46.8200 C   0  0  0  0  0  0  0  0  0  0  0  0
   59.4390   31.3130   47.1900 C   0  0  0  0  0  0  0  0  0  0  0  0
   58.2580   31.0840   46.4780 C   0  0  0  0  0  0  0  0  0  0  0  0
   58.2540   30.2090   45.3830 C   0  0  0  0  0  0  0  0  0  0  0  0
   56.7630   29.8800   44.5060 S   0  0  0  0  0  0  0  0  0  0  0  0
   55.8620   31.0840   44.5150 O   0  0  0  0  0  0  0  0  0  0  0  0
   57.1020   29.5320   43.0850 O   0  0  0  0  0  0  0  0  0  0  0  0
   55.9310   28.5460   45.2370 N   0  0  0  0  0  0  0  0  0  0  0  0
   56.5610   27.4080   45.8450 C   0  0  0  0  0  0  0  0  0  0  0  0
   57.9480   27.3620   46.0800 C   0  0  0  0  0  0  0  0  0  0  0  0
   58.5420   26.2270   46.6630 C   0  0  0  0  0  0  0  0  0  0  0  0
   59.9620   26.1750   46.8920 N   0  0  0  0  0  0  0  0  0  0  0  0
   60.4640   26.7070   47.9050 O   0  0  0  0  0  0  0  0  0  0  0  0
   60.7930   25.5420   45.9960 O   0  0  0  0  0  0  0  0  0  0  0  0
   57.7270   25.1390   47.0180 C   0  0  0  0  0  0  0  0  0  0  0  0
   56.3490   25.1840   46.7930 C   0  0  0  0  0  0  0  0  0  0  0  0
   55.7670   26.3120   46.2100 C   0  0  0  0  0  0  0  0  0  0  0  0
   54.3950   26.3390   45.9900 O   0  0  0  0  0  0  0  0  0  0  0  0
   59.4450   29.5860   44.9910 C   0  0  0  0  0  0  0  0  0  0  0  0
   60.6270   29.8180   45.7010 C   0  0  0  0  0  0  0  0  0  0  0  0
  1  2  1  0
  2  3  2  0
  2  4  1  0
  4  5  1  0
  5  6  2  0
  6  7  1  0
  7  8  2  0
  8  9  1  0
  9 10  2  0
  9 11  2  0
  9 12  1  0
 12 13  1  0
 13 14  2  0
 14 15  1  0
 15 16  1  0
 16 17  2  0
 16 18  1  0
 15 19  2  0
 19 20  1  0
 20 21  2  0
 21 22  1  0
  8 23  1  0
 23 24  2  0
 24  5  1  0
 21 13  1  0
M  CHG  5   4  -1  12  -1  16   1  18  -1  22  -1
M  END
>  <UniqueID>  (4) 
58

>  <SMILES>  (4) 
CC(=O)[N-]c1ccc(S(=O)(=O)[N-]c2cc([N+](=O)[O-])ccc2[O-])cc1

>  <Energy>  (4) 
42.21804966118287

>  <Genealogy>  (4) 
CC(=O)[N-]c1ccc(S(=O)(=O)[N-]c2cc([N+](=O)[O-])ccc2[O-])cc1 (protonated)
CC(=O)[N-]c1ccc(S(=O)(=O)[N-]c2cc([N+](=O)[O-])ccc2[O-])cc1 (3D coordinates assigned)
CC(=O)[N-]c1ccc(S(=O)(=O)[N-]c2cc([N+](=O)[O-])ccc2[O-])cc1 (optimized conformer: 42.21804966118287 kcal/mol)

>  <smiles>  (4) 
CC(=O)Nc1ccc(S(=O)(=O)Nc2cc([N+](=O)[O-])ccc2O)cc1

>  <score_type>  (4) 
oracle

>  <origin>  (4) 
adg

>  <m_score__min__energy>  (4) 
-14.19

>  <m_primary>  (4) 
energy

$$$$
42:0
     RDKit          3D

 35 38  0  0  0  0  0  0  0  0999 V2000
   55.2650   29.5310   44.9070 N   0  0  0  0  0  0  0  0  0  0  0  0
   56.8530   29.3820   44.2400 S   0  0  0  0  0  0  0  0  0  0  0  0
   57.2790   27.9420   44.3070 O   0  0  0  0  0  0  0  0  0  0  0  0
   56.8430   29.8290   42.8050 O   0  0  0  0  0  0  0  0  0  0  0  0
   57.9600   30.3930   45.1600 C   0  0  0  0  0  0  0  0  0  0  0  0
   57.6040   31.7150   45.4600 C   0  0  0  0  0  0  0  0  0  0  0  0
   58.4400   32.5080   46.2530 C   0  0  0  0  0  0  0  0  0  0  0  0
   59.6280   31.9720   46.7820 C   0  0  0  0  0  0  0  0  0  0  0  0
   60.0390   30.6960   46.3720 C   0  0  0  0  0  0  0  0  0  0  0  0
   59.1970   29.8950   45.5950 C   0  0  0  0  0  0  0  0  0  0  0  0
   61.2970   30.2340   46.7520 O   0  0  0  0  0  0  0  0  0  0  0  0
   62.3000   31.1570   47.1650 C   0  0  0  0  0  0  0  0  0  0  0  0
   61.7310   32.1470   48.1870 C   0  0  0  0  0  0  0  0  0  0  0  0
   60.4090   32.6660   47.7880 N   0  0  0  0  0  0  0  0  0  0  0  0
   59.8250   33.6710   48.6440 C   0  0  0  0  0  0  0  0  0  0  0  0
   59.2410   34.6580   48.1250 O   0  0  0  0  0  0  0  0  0  0  0  0
   59.8940   33.5880   50.0790 N   0  0  0  0  0  0  0  0  0  0  0  0
   59.0520   32.7730   50.9080 C   0  0  0  0  0  0  0  0  0  0  0  0
   59.5070   32.2570   52.1300 C   0  0  0  0  0  0  0  0  0  0  0  0
   58.7450   31.3130   52.8240 C   0  0  0  0  0  0  0  0  0  0  0  0
   57.5070   30.8830   52.3120 C   0  0  0  0  0  0  0  0  0  0  0  0
   56.7600   29.7910   52.9760 C   0  0  0  0  0  0  0  0  0  0  0  0
   56.2870   28.8430   52.2930 O   0  0  0  0  0  0  0  0  0  0  0  0
   56.6030   29.7880   54.3990 N   0  0  0  0  0  0  0  0  0  0  0  0
   55.3120   29.8960   55.0670 C   0  0  0  0  0  0  0  0  0  0  0  0
   54.2480   29.1340   54.2760 C   0  0  0  0  0  0  0  0  0  0  0  0
   53.3120   30.0820   53.5780 C   0  0  0  0  0  0  0  0  0  0  0  0
   52.2160   30.6260   54.2680 C   0  0  0  0  0  0  0  0  0  0  0  0
   51.3400   31.5030   53.6200 C   0  0  0  0  0  0  0  0  0  0  0  0
   51.5570   31.8510   52.2820 C   0  0  0  0  0  0  0  0  0  0  0  0
   50.6790   32.7140   51.6370 O   0  0  0  0  0  0  0  0  0  0  0  0
   52.6550   31.3250   51.5930 C   0  0  0  0  0  0  0  0  0  0  0  0
   53.5340   30.4470   52.2390 C   0  0  0  0  0  0  0  0  0  0  0  0
   57.0190   31.4690   51.1290 C   0  0  0  0  0  0  0  0  0  0  0  0
   57.7820   32.4180   50.4420 C   0  0  0  0  0  0  0  0  0  0  0  0
  1  2  1  0
  2  3  2  0
  2  4  2  0
  2  5  1  0
  5  6  2  0
  6  7  1  0
  7  8  2  0
  8  9  1  0
  9 10  2  0
  9 11  1  0
 11 12  1  0
 12 13  1  0
 13 14  1  0
 14 15  1  0
 15 16  2  0
 15 17  1  0
 17 18  1  0
 18 19  2  0
 19 20  1  0
 20 21  2  0
 21 22  1  0
 22 23  2  0
 22 24  1  0
 24 25  1  0
 25 26  1  0
 26 27  1  0
 27 28  2  0
 28 29  1  0
 29 30  2  0
 30 31  1  0
 30 32  1  0
 32 33  2  0
 21 34  1  0
 34 35  2  0
 10  5  1  0
 35 18  1  0
 14  8  1  0
 33 27  1  0
M  CHG  4   1  -1  17  -1  24  -1  31  -1
M  END
>  <UniqueID>  (5) 
39

>  <SMILES>  (5) 
[NH-]S(=O)(=O)c1ccc2c(c1)OCCN2C(=O)[N-]c1ccc(C(=O)[N-]CCc2ccc([O-])cc2)cc1

>  <Energy>  (5) 
65.48074859155344

>  <Genealogy>  (5) 
[NH-]S(=O)(=O)c1ccc2c(c1)OCCN2C(=O)[N-]c1ccc(C(=O)[N-]CCc2ccc([O-])cc2)cc1 (protonated)
[NH-]S(=O)(=O)c1ccc2c(c1)OCCN2C(=O)[N-]c1ccc(C(=O)[N-]CCc2ccc([O-])cc2)cc1 (3D coordinates assigned)
[NH-]S(=O)(=O)c1ccc2c(c1)OCCN2C(=O)[N-]c1ccc(C(=O)[N-]CCc2ccc([O-])cc2)cc1 (nonaromatic ring conformer: 65.48074859155344 kcal/mol)

>  <smiles>  (5) 
NS(=O)(=O)c1ccc2c(c1)OCCN2C(=O)Nc1ccc(C(=O)NCCc2ccc(O)cc2)cc1

>  <score_type>  (5) 
oracle

>  <origin>  (5) 
adg

>  <m_score__min__energy>  (5) 
-17.239999999999998

>  <m_primary>  (5) 
energy

$$$$
2:0
     RDKit          3D

 31 34  0  0  0  0  0  0  0  0999 V2000
   55.0010   26.6120   45.9960 O   0  0  0  0  0  0  0  0  0  0  0  0
   56.2580   26.5830   46.0120 C   0  0  0  0  0  0  0  0  0  0  0  0
   56.9250   25.3140   46.0760 N   0  0  0  0  0  0  0  0  0  0  0  0
   57.9550   24.8420   45.1490 C   0  0  0  0  0  0  0  0  0  0  0  0
   57.4830   23.6420   44.3690 C   0  0  0  0  0  0  0  0  0  0  0  0
   56.3880   23.7460   43.4920 C   0  0  0  0  0  0  0  0  0  0  0  0
   55.9810   22.6430   42.7380 C   0  0  0  0  0  0  0  0  0  0  0  0
   56.6510   21.4230   42.8640 C   0  0  0  0  0  0  0  0  0  0  0  0
   57.7270   21.3040   43.7480 C   0  0  0  0  0  0  0  0  0  0  0  0
   58.1420   22.4080   44.5000 C   0  0  0  0  0  0  0  0  0  0  0  0
   57.0080   27.8540   46.0300 C   0  0  0  0  0  0  0  0  0  0  0  0
   56.4250   29.0130   45.4930 C   0  0  0  0  0  0  0  0  0  0  0  0
   55.1800   28.9590   44.8770 O   0  0  0  0  0  0  0  0  0  0  0  0
   57.0630   30.2080   45.5950 N   0  0  0  0  0  0  0  0  0  0  0  0
   58.2700   30.3310   46.2040 C   0  0  0  0  0  0  0  0  0  0  0  0
   58.8650   31.5910   46.3200 C   0  0  0  0  0  0  0  0  0  0  0  0
   60.0950   31.7340   46.9710 C   0  0  0  0  0  0  0  0  0  0  0  0
   60.7790   33.3440   47.1770 S   0  0  0  0  0  0  0  0  0  0  0  0
   61.3700   33.8270   45.8810 O   0  0  0  0  0  0  0  0  0  0  0  0
   59.6830   34.2840   47.5920 O   0  0  0  0  0  0  0  0  0  0  0  0
   62.0160   33.2960   48.4100 N   0  0  0  0  0  0  0  0  0  0  0  0
   63.3250   32.9900   47.7950 C   0  0  0  0  0  0  0  0  0  0  0  0
   64.5070   33.2560   48.7520 C   0  0  0  0  0  0  0  0  0  0  0  0
   64.0400   33.3730   50.2050 C   0  0  0  0  0  0  0  0  0  0  0  0
   62.9820   34.4790   50.3560 C   0  0  0  0  0  0  0  0  0  0  0  0
   62.0570   34.5790   49.1280 C   0  0  0  0  0  0  0  0  0  0  0  0
   60.7420   30.6060   47.4910 C   0  0  0  0  0  0  0  0  0  0  0  0
   60.1610   29.3400   47.3720 C   0  0  0  0  0  0  0  0  0  0  0  0
   58.9150   29.1910   46.7360 C   0  0  0  0  0  0  0  0  0  0  0  0
   58.2760   27.9410   46.6330 C   0  0  0  0  0  0  0  0  0  0  0  0
   58.8320   26.9010   47.0820 O   0  0  0  0  0  0  0  0  0  0  0  0
  1  2  2  0
  2  3  1  0
  3  4  1  0
  4  5  1  0
  5  6  2  0
  6  7  1  0
  7  8  2  0
  8  9  1  0
  9 10  2  0
  2 11  1  0
 11 12  2  0
 12 13  1  0
 12 14  1  0
 14 15  1  0
 15 16  2  0
 16 17  1  0
 17 18  1  0
 18 19  2  0
 18 20  2  0
 18 21  1  0
 21 22  1  0
 22 23  1  0
 23 24  1  0
 24 25  1  0
 25 26  1  0
 17 27  2  0
 27 28  1  0
 28 29  2  0
 29 30  1  0
 30 31  2  0
 10  5  1  0
 30 11  1  0
 29 15  1  0
 26 21  1  0
M  CHG  3   3  -1  13  -1  14  -1
M  END
>  <UniqueID>  (6) 
3

>  <SMILES>  (6) 
O=C([N-]Cc1ccccc1)c1c([O-])[n-]c2cc(S(=O)(=O)N3CCCCC3)ccc2c1=O

>  <Energy>  (6) 
64.80579146282163

>  <Genealogy>  (6) 
O=C([N-]Cc1ccccc1)c1c([O-])[n-]c2cc(S(=O)(=O)N3CCCCC3)ccc2c1=O (protonated)
O=C([N-]Cc1ccccc1)c1c([O-])[n-]c2cc(S(=O)(=O)N3CCCCC3)ccc2c1=O (3D coordinates assigned)
O=C([N-]Cc1ccccc1)c1c([O-])[n-]c2cc(S(=O)(=O)N3CCCCC3)ccc2c1=O (nonaromatic ring conformer: 64.80579146282163 kcal/mol)

>  <smiles>  (6) 
O=C(NCc1ccccc1)c1c(O)[nH]c2cc(S(=O)(=O)N3CCCCC3)ccc2c1=O

>  <score_type>  (6) 
oracle

>  <origin>  (6) 
adg

>  <m_score__min__energy>  (6) 
-16.57

>  <m_primary>  (6) 
energy

$$$$
76:0
     RDKit          3D

 27 29  0  0  0  0  0  0  0  0999 V2000
   57.3400   28.6830   46.2010 O   0  0  0  0  0  0  0  0  0  0  0  0
   57.8130   27.7570   46.9110 C   0  0  0  0  0  0  0  0  0  0  0  0
   57.0110   26.5980   47.1590 N   0  0  0  0  0  0  0  0  0  0  0  0
   56.7000   25.5800   46.1960 C   0  0  0  0  0  0  0  0  0  0  0  0
   57.7270   24.7330   45.7590 C   0  0  0  0  0  0  0  0  0  0  0  0
   57.4670   23.7330   44.8180 C   0  0  0  0  0  0  0  0  0  0  0  0
   56.1820   23.5850   44.2920 C   0  0  0  0  0  0  0  0  0  0  0  0
   55.1580   24.4460   44.6960 C   0  0  0  0  0  0  0  0  0  0  0  0
   55.4130   25.4530   45.6330 C   0  0  0  0  0  0  0  0  0  0  0  0
   54.3930   26.3350   45.9730 O   0  0  0  0  0  0  0  0  0  0  0  0
   59.1700   27.8230   47.3790 N   0  0  0  0  0  0  0  0  0  0  0  0
   59.9350   29.0380   47.4600 C   0  0  0  0  0  0  0  0  0  0  0  0
   60.6070   29.3500   48.6510 C   0  0  0  0  0  0  0  0  0  0  0  0
   61.3380   30.5360   48.7630 C   0  0  0  0  0  0  0  0  0  0  0  0
   61.3970   31.4330   47.6880 C   0  0  0  0  0  0  0  0  0  0  0  0
   62.3000   32.9360   47.8360 S   0  0  0  0  0  0  0  0  0  0  0  0
   63.3130   33.0240   46.7300 O   0  0  0  0  0  0  0  0  0  0  0  0
   63.0110   32.9650   49.1610 O   0  0  0  0  0  0  0  0  0  0  0  0
   61.1940   34.2680   47.7310 N   0  0  0  0  0  0  0  0  0  0  0  0
   60.0850   34.2330   47.0580 C   0  0  0  0  0  0  0  0  0  0  0  0
   58.9320   33.7810   47.6260 N   0  0  0  0  0  0  0  0  0  0  0  0
   57.7720   33.7430   46.9220 C   0  0  0  0  0  0  0  0  0  0  0  0
   57.7490   34.1730   45.5970 C   0  0  0  0  0  0  0  0  0  0  0  0
   58.9360   34.6330   45.0280 C   0  0  0  0  0  0  0  0  0  0  0  0
   60.0760   34.6540   45.7650 N   0  0  0  0  0  0  0  0  0  0  0  0
   60.7020   31.1410   46.5070 C   0  0  0  0  0  0  0  0  0  0  0  0
   59.9720   29.9540   46.3930 C   0  0  0  0  0  0  0  0  0  0  0  0
  1  2  2  0
  2  3  1  0
  3  4  1  0
  4  5  2  0
  5  6  1  0
  6  7  2  0
  7  8  1  0
  8  9  2  0
  9 10  1  0
  2 11  1  0
 11 12  1  0
 12 13  2  0
 13 14  1  0
 14 15  2  0
 15 16  1  0
 16 17  2  0
 16 18  2  0
 16 19  1  0
 19 20  2  3
 20 21  1  0
 21 22  2  0
 22 23  1  0
 23 24  2  0
 24 25  1  0
 15 26  1  0
 26 27  2  0
  9  4  1  0
 27 12  1  0
 25 20  1  0
M  CHG  3   3  -1  10  -1  25  -1
M  END
>  <UniqueID>  (7) 
67

>  <SMILES>  (7) 
O=C([N-]c1ccccc1[O-])Nc1ccc(S(=O)(=O)N=c2nccc[n-]2)cc1

>  <Energy>  (7) 
55.50877437480593

>  <Genealogy>  (7) 
O=C([N-]c1ccccc1[O-])Nc1ccc(S(=O)(=O)N=c2nccc[n-]2)cc1 (protonated)
O=C([N-]c1ccccc1[O-])Nc1ccc(S(=O)(=O)N=c2nccc[n-]2)cc1 (3D coordinates assigned)
O=C([N-]c1ccccc1[O-])Nc1ccc(S(=O)(=O)N=c2nccc[n-]2)cc1 (optimized conformer: 55.50877437480593 kcal/mol)

>  <smiles>  (7) 
O=C(Nc1ccc(S(=O)(=O)N=c2nccc[nH]2)cc1)Nc1ccccc1O

>  <score_type>  (7) 
oracle

>  <origin>  (7) 
adg

>  <m_score__min__energy>  (7) 
-14.77

>  <m_primary>  (7) 
energy

$$$$
91:0
     RDKit          3D

 31 34  0  0  0  0  0  0  0  0999 V2000
   58.4610   27.9320   43.7480 C   0  0  0  0  0  0  0  0  0  0  0  0
   58.2520   29.3140   44.3010 C   0  0  0  0  0  0  0  0  0  0  0  0
   57.4650   30.2390   43.5970 C   0  0  0  0  0  0  0  0  0  0  0  0
   57.2680   31.5270   44.0980 C   0  0  0  0  0  0  0  0  0  0  0  0
   57.8460   31.9060   45.3160 C   0  0  0  0  0  0  0  0  0  0  0  0
   57.5990   33.5370   45.9490 S   0  0  0  0  0  0  0  0  0  0  0  0
   56.6430   33.4790   47.1080 O   0  0  0  0  0  0  0  0  0  0  0  0
   56.9820   34.3970   44.8800 O   0  0  0  0  0  0  0  0  0  0  0  0
   59.1050   34.2570   46.4730 N   0  0  0  0  0  0  0  0  0  0  0  0
   60.2290   33.7420   45.6690 C   0  0  0  0  0  0  0  0  0  0  0  0
   61.5610   33.9410   46.4090 C   0  0  0  0  0  0  0  0  0  0  0  0
   61.6300   33.2770   47.6670 O   0  0  0  0  0  0  0  0  0  0  0  0
   60.3600   33.0140   48.2480 C   0  0  0  0  0  0  0  0  0  0  0  0
   59.3110   34.0960   47.9290 C   0  0  0  0  0  0  0  0  0  0  0  0
   58.6250   30.9860   46.0280 C   0  0  0  0  0  0  0  0  0  0  0  0
   58.8590   29.6980   45.5140 C   0  0  0  0  0  0  0  0  0  0  0  0
   59.6610   28.7470   46.2320 N   0  0  0  0  0  0  0  0  0  0  0  0
   59.1960   27.8240   47.2250 C   0  0  0  0  0  0  0  0  0  0  0  0
   60.0050   27.2700   48.0190 O   0  0  0  0  0  0  0  0  0  0  0  0
   57.7480   27.4550   47.2670 C   0  0  0  0  0  0  0  0  0  0  0  0
   57.4940   26.3210   46.3780 N   0  0  0  0  0  0  0  0  0  0  0  0
   56.3040   25.9760   45.8360 C   0  0  0  0  0  0  0  0  0  0  0  0
   55.1310   26.7080   45.9890 O   0  0  0  0  0  0  0  0  0  0  0  0
   56.4200   24.7970   45.1300 C   0  0  0  0  0  0  0  0  0  0  0  0
   57.7390   24.4140   45.2200 C   0  0  0  0  0  0  0  0  0  0  0  0
   58.3670   25.3500   46.0180 C   0  0  0  0  0  0  0  0  0  0  0  0
   59.7000   25.2880   46.4180 O   0  0  0  0  0  0  0  0  0  0  0  0
   58.2760   23.1280   44.6710 C   0  0  0  0  0  0  0  0  0  0  0  0
   57.3250   22.5690   43.5930 C   0  0  0  0  0  0  0  0  0  0  0  0
   55.8500   22.6220   44.0480 C   0  0  0  0  0  0  0  0  0  0  0  0
   55.3880   24.0670   44.3260 C   0  0  0  0  0  0  0  0  0  0  0  0
  1  2  1  0
  2  3  2  0
  3  4  1  0
  4  5  2  0
  5  6  1  0
  6  7  2  0
  6  8  2  0
  6  9  1  0
  9 10  1  0
 10 11  1  0
 11 12  1  0
 12 13  1  0
 13 14  1  0
  5 15  1  0
 15 16  2  0
 16 17  1  0
 17 18  1  0
 18 19  2  0
 18 20  1  0
 20 21  1  0
 21 22  1  0
 22 23  1  0
 22 24  2  0
 24 25  1  0
 25 26  2  0
 26 27  1  0
 25 28  1  0
 28 29  1  0
 29 30  1  0
 30 31  1  0
 16  2  1  0
 26 21  1  0
 14  9  1  0
 31 24  1  0
M  CHG  2  17  -1  23  -1
M  END
>  <UniqueID>  (8) 
80

>  <SMILES>  (8) 
Cc1ccc(S(=O)(=O)N2CCOCC2)cc1[N-]C(=O)Cn1c([O-])c2c(c1O)CCCC2

>  <Energy>  (8) 
98.47711444646451

>  <Genealogy>  (8) 
Cc1ccc(S(=O)(=O)N2CCOCC2)cc1[N-]C(=O)Cn1c([O-])c2c(c1O)CCCC2 (protonated)
Cc1ccc(S(=O)(=O)N2CCOCC2)cc1[N-]C(=O)Cn1c([O-])c2c(c1O)CCCC2 (3D coordinates assigned)
Cc1ccc(S(=O)(=O)N2CCOCC2)cc1[N-]C(=O)Cn1c([O-])c2c(c1O)CCCC2 (nonaromatic ring conformer: 98.47711444646451 kcal/mol)

>  <smiles>  (8) 
Cc1ccc(S(=O)(=O)N2CCOCC2)cc1NC(=O)Cn1c(O)c2c(c1O)CCCC2

>  <score_type>  (8) 
oracle

>  <origin>  (8) 
adg

>  <m_score__min__energy>  (8) 
-14.6

>  <m_primary>  (8) 
energy

$$$$
24:0
     RDKit          3D

 29 33  0  0  0  0  0  0  0  0999 V2000
   54.9590   26.7180   45.9870 O   0  0  0  0  0  0  0  0  0  0  0  0
   55.9990   25.8730   46.3600 C   0  0  0  0  0  0  0  0  0  0  0  0
   55.8330   24.7650   47.1010 N   0  0  0  0  0  0  0  0  0  0  0  0
   57.0800   24.2520   47.1490 C   0  0  0  0  0  0  0  0  0  0  0  0
   57.3510   23.1850   47.7590 O   0  0  0  0  0  0  0  0  0  0  0  0
   58.0140   24.9660   46.4830 N   0  0  0  0  0  0  0  0  0  0  0  0
   57.3210   26.0130   46.0040 C   0  0  0  0  0  0  0  0  0  0  0  0
   57.9040   27.0370   45.1220 C   0  0  0  0  0  0  0  0  0  0  0  0
   57.6250   28.3460   45.1980 C   0  0  0  0  0  0  0  0  0  0  0  0
   56.5280   28.9850   44.6210 C   0  0  0  0  0  0  0  0  0  0  0  0
   56.5820   30.3160   44.8680 N   0  0  0  0  0  0  0  0  0  0  0  0
   57.6790   30.5280   45.5760 N   0  0  0  0  0  0  0  0  0  0  0  0
   58.1680   31.7140   46.0130 C   0  0  0  0  0  0  0  0  0  0  0  0
   57.5130   32.8170   45.7640 N   0  0  0  0  0  0  0  0  0  0  0  0
   57.9310   34.2270   45.6400 C   0  0  0  0  0  0  0  0  0  0  0  0
   59.3850   34.5220   45.3070 C   0  0  0  0  0  0  0  0  0  0  0  0
   58.8600   34.7400   46.7250 C   0  0  0  0  0  0  0  0  0  0  0  0
   59.3550   31.7000   46.6830 N   0  0  0  0  0  0  0  0  0  0  0  0
   60.0380   30.5280   46.8850 C   0  0  0  0  0  0  0  0  0  0  0  0
   61.2000   30.5190   47.4670 N   0  0  0  0  0  0  0  0  0  0  0  0
   61.9410   31.6800   47.8780 C   0  0  0  0  0  0  0  0  0  0  0  0
   63.1250   32.0560   47.2220 C   0  0  0  0  0  0  0  0  0  0  0  0
   63.8220   33.1980   47.6270 C   0  0  0  0  0  0  0  0  0  0  0  0
   63.3280   33.9850   48.6720 C   0  0  0  0  0  0  0  0  0  0  0  0
   62.1310   33.6370   49.3030 C   0  0  0  0  0  0  0  0  0  0  0  0
   61.4320   32.4930   48.9010 C   0  0  0  0  0  0  0  0  0  0  0  0
   60.2700   32.1650   49.5210 F   0  0  0  0  0  0  0  0  0  0  0  0
   59.5250   29.3550   46.4170 N   0  0  0  0  0  0  0  0  0  0  0  0
   58.3270   29.3800   45.7870 C   0  0  0  0  0  0  0  0  0  0  0  0
  1  2  1  0
  2  3  1  0
  3  4  1  0
  4  5  2  0
  4  6  1  0
  6  7  1  0
  7  8  1  0
  8  9  2  0
  9 10  1  0
 10 11  2  0
 11 12  1  0
 12 13  1  0
 13 14  2  3
 14 15  1  0
 15 16  1  0
 16 17  1  0
 13 18  1  0
 18 19  1  0
 19 20  2  0
 20 21  1  0
 21 22  2  0
 22 23  1  0
 23 24  2  0
 24 25  1  0
 25 26  2  0
 26 27  1  0
 19 28  1  0
 28 29  2  0
  7  2  2  0
 29  9  1  0
 29 12  1  0
 17 15  1  0
 26 21  1  0
M  CHG  3   3  -1   6  -1  18  -1
M  END
>  <UniqueID>  (9) 
22

>  <SMILES>  (9) 
O=c1[n-]c(O)c(/C=c2/cnn3c(=NC4CC4)[n-]/c(=N\c4ccccc4F)nc23)[n-]1

>  <Energy>  (9) 
400.9307891783931

>  <Genealogy>  (9) 
O=c1[n-]c(O)c(C=c2cnn3c(=NC4CC4)[n-]c(=Nc4ccccc4F)nc23)[n-]1 (protonated)
O=c1[n-]c(O)c(/C=c2/cnn3c(=NC4CC4)[n-]/c(=N\c4ccccc4F)nc23)[n-]1 (cis-trans isomerization)
O=c1[n-]c(O)c(/C=c2/cnn3c(=NC4CC4)[n-]/c(=N\c4ccccc4F)nc23)[n-]1 (3D coordinates assigned)
O=c1[n-]c(O)c(/C=c2/cnn3c(=NC4CC4)[n-]/c(=N\c4ccccc4F)nc23)[n-]1 (nonaromatic ring conformer: 400.9307891783931 kcal/mol)

>  <smiles>  (9) 
O=c1[nH]c(O)c(C=c2cnn3c(=NC4CC4)[nH]c(=Nc4ccccc4F)nc23)[nH]1

>  <score_type>  (9) 
oracle

>  <origin>  (9) 
adg

>  <m_score__min__energy>  (9) 
-14.82

>  <m_primary>  (9) 
energy

$$$$
50:0
     RDKit          3D

 26 27  0  0  0  0  0  0  0  0999 V2000
   65.9680   33.1290   50.0890 C   0  0  0  0  0  0  0  0  0  0  0  0
   64.5250   33.1440   49.6990 C   0  0  0  0  0  0  0  0  0  0  0  0
   63.6550   33.3110   50.5940 O   0  0  0  0  0  0  0  0  0  0  0  0
   64.1420   32.9160   48.3300 N   0  0  0  0  0  0  0  0  0  0  0  0
   62.7800   32.8870   47.8660 C   0  0  0  0  0  0  0  0  0  0  0  0
   62.4120   33.6790   46.7650 C   0  0  0  0  0  0  0  0  0  0  0  0
   61.0990   33.6600   46.2860 C   0  0  0  0  0  0  0  0  0  0  0  0
   60.1340   32.8540   46.9070 C   0  0  0  0  0  0  0  0  0  0  0  0
   58.4990   32.7410   46.2630 S   0  0  0  0  0  0  0  0  0  0  0  0
   58.1780   33.9130   45.3810 O   0  0  0  0  0  0  0  0  0  0  0  0
   57.5300   32.7190   47.4110 O   0  0  0  0  0  0  0  0  0  0  0  0
   58.3460   31.2680   45.3600 N   0  0  0  0  0  0  0  0  0  0  0  0
   58.3770   29.9470   45.9250 C   0  0  0  0  0  0  0  0  0  0  0  0
   59.3310   29.6050   46.8970 C   0  0  0  0  0  0  0  0  0  0  0  0
   59.3290   28.3430   47.4800 C   0  0  0  0  0  0  0  0  0  0  0  0
   58.3860   27.3960   47.0920 C   0  0  0  0  0  0  0  0  0  0  0  0
   57.4310   27.6930   46.1060 C   0  0  0  0  0  0  0  0  0  0  0  0
   56.5060   26.6110   45.6880 C   0  0  0  0  0  0  0  0  0  0  0  0
   56.9340   25.6000   45.0710 O   0  0  0  0  0  0  0  0  0  0  0  0
   55.1550   26.6830   46.0130 O   0  0  0  0  0  0  0  0  0  0  0  0
   57.4130   28.9890   45.5240 C   0  0  0  0  0  0  0  0  0  0  0  0
   56.3440   29.3950   44.5840 C   0  0  0  0  0  0  0  0  0  0  0  0
   55.1350   29.3420   44.9350 O   0  0  0  0  0  0  0  0  0  0  0  0
   56.6630   29.8770   43.3200 O   0  0  0  0  0  0  0  0  0  0  0  0
   60.4870   32.0920   48.0270 C   0  0  0  0  0  0  0  0  0  0  0  0
   61.7960   32.1170   48.5140 C   0  0  0  0  0  0  0  0  0  0  0  0
  1  2  1  0
  2  3  2  0
  2  4  1  0
  4  5  1  0
  5  6  2  0
  6  7  1  0
  7  8  2  0
  8  9  1  0
  9 10  2  0
  9 11  2  0
  9 12  1  0
 12 13  1  0
 13 14  2  0
 14 15  1  0
 15 16  2  0
 16 17  1  0
 17 18  1  0
 18 19  2  0
 18 20  1  0
 17 21  2  0
 21 22  1  0
 22 23  2  0
 22 24  1  0
  8 25  1  0
 25 26  2  0
 26  5  1  0
 21 13  1  0
M  CHG  3  12  -1  20  -1  24  -1
M  END
>  <UniqueID>  (10) 
45

>  <SMILES>  (10) 
CC(=O)Nc1ccc(S(=O)(=O)[N-]c2cccc(C(=O)[O-])c2C(=O)[O-])cc1

>  <Energy>  (10) 
54.48107538648537

>  <Genealogy>  (10) 
CC(=O)Nc1ccc(S(=O)(=O)[N-]c2cccc(C(=O)[O-])c2C(=O)[O-])cc1 (protonated)
CC(=O)Nc1ccc(S(=O)(=O)[N-]c2cccc(C(=O)[O-])c2C(=O)[O-])cc1 (3D coordinates assigned)
CC(=O)Nc1ccc(S(=O)(=O)[N-]c2cccc(C(=O)[O-])c2C(=O)[O-])cc1 (optimized conformer: 54.48107538648537 kcal/mol)

>  <smiles>  (10) 
CC(=O)Nc1ccc(S(=O)(=O)Nc2cccc(C(=O)O)c2C(=O)O)cc1

>  <score_type>  (10) 
oracle

>  <origin>  (10) 
adg

>  <m_score__min__energy>  (10) 
-14.199999999999999

>  <m_primary>  (10) 
energy

$$$$
58:0
     RDKit          3D

 26 27  0  0  0  0  0  0  0  0999 V2000
   54.8870   26.3390   45.9190 N   0  0  0  0  0  0  0  0  0  0  0  0
   55.7560   25.2730   46.3020 C   0  0  0  0  0  0  0  0  0  0  0  0
   55.2490   24.2120   46.7510 O   0  0  0  0  0  0  0  0  0  0  0  0
   57.2330   25.4260   46.1840 C   0  0  0  0  0  0  0  0  0  0  0  0
   58.0350   24.2680   46.1210 C   0  0  0  0  0  0  0  0  0  0  0  0
   59.4230   24.3660   46.0090 C   0  0  0  0  0  0  0  0  0  0  0  0
   60.0360   25.6140   45.9780 C   0  0  0  0  0  0  0  0  0  0  0  0
   59.2650   26.7740   46.0470 C   0  0  0  0  0  0  0  0  0  0  0  0
   57.8600   26.7000   46.1250 C   0  0  0  0  0  0  0  0  0  0  0  0
   57.0620   27.8930   46.2210 N   0  0  0  0  0  0  0  0  0  0  0  0
   56.6050   28.7330   45.1530 C   0  0  0  0  0  0  0  0  0  0  0  0
   55.4630   29.2570   45.1760 O   0  0  0  0  0  0  0  0  0  0  0  0
   57.6960   29.0960   43.8300 S   0  0  0  0  0  0  0  0  0  0  0  0
   59.1110   28.8670   44.2770 O   0  0  0  0  0  0  0  0  0  0  0  0
   57.3930   28.2110   42.6530 O   0  0  0  0  0  0  0  0  0  0  0  0
   57.5000   30.7520   43.3620 N   0  0  0  0  0  0  0  0  0  0  0  0
   57.3160   31.7980   44.3190 C   0  0  0  0  0  0  0  0  0  0  0  0
   57.0500   31.5210   45.5200 O   0  0  0  0  0  0  0  0  0  0  0  0
   57.4530   33.1620   43.9080 N   0  0  0  0  0  0  0  0  0  0  0  0
   57.3870   34.2570   44.8720 C   0  0  0  0  0  0  0  0  0  0  0  0
   58.5000   34.1440   45.8780 C   0  0  0  0  0  0  0  0  0  0  0  0
   58.2170   33.8200   47.2160 C   0  0  0  0  0  0  0  0  0  0  0  0
   59.2540   33.6910   48.1450 C   0  0  0  0  0  0  0  0  0  0  0  0
   60.5800   33.8720   47.7430 C   0  0  0  0  0  0  0  0  0  0  0  0
   60.8720   34.1750   46.4100 C   0  0  0  0  0  0  0  0  0  0  0  0
   59.8370   34.3050   45.4770 C   0  0  0  0  0  0  0  0  0  0  0  0
  1  2  1  0
  2  3  2  0
  2  4  1  0
  4  5  2  0
  5  6  1  0
  6  7  2  0
  7  8  1  0
  8  9  2  0
  9 10  1  0
 10 11  1  0
 11 12  2  0
 11 13  1  0
 13 14  2  0
 13 15  2  0
 13 16  1  0
 16 17  1  0
 17 18  2  0
 17 19  1  0
 19 20  1  0
 20 21  1  0
 21 22  2  0
 22 23  1  0
 23 24  2  0
 24 25  1  0
 25 26  2  0
  9  4  1  0
 26 21  1  0
M  CHG  3   1  -1  10  -1  16  -1
M  END
>  <UniqueID>  (11) 
52

>  <SMILES>  (11) 
[NH-]C(=O)c1ccccc1[N-]C(=O)S(=O)(=O)[N-]C(=O)NCc1ccccc1

>  <Energy>  (11) 
43.96112277631369

>  <Genealogy>  (11) 
[NH-]C(=O)c1ccccc1[N-]C(=O)S(=O)(=O)[N-]C(=O)NCc1ccccc1 (protonated)
[NH-]C(=O)c1ccccc1[N-]C(=O)S(=O)(=O)[N-]C(=O)NCc1ccccc1 (3D coordinates assigned)
[NH-]C(=O)c1ccccc1[N-]C(=O)S(=O)(=O)[N-]C(=O)NCc1ccccc1 (optimized conformer: 43.96112277631369 kcal/mol)

>  <smiles>  (11) 
NC(=O)c1ccccc1NC(=O)S(=O)(=O)NC(=O)NCc1ccccc1

>  <score_type>  (11) 
oracle

>  <origin>  (11) 
adg

>  <m_score__min__energy>  (11) 
-14.91

>  <m_primary>  (11) 
energy

$$$$
69:0
     RDKit          3D

 23 25  0  0  0  0  0  0  0  0999 V2000
   54.7720   29.3420   44.1680 N   0  0  0  0  0  0  0  0  0  0  0  0
   56.2270   30.2440   43.9370 S   0  0  0  0  0  0  0  0  0  0  0  0
   56.4340   30.4910   42.4680 O   0  0  0  0  0  0  0  0  0  0  0  0
   56.1140   31.5680   44.6370 O   0  0  0  0  0  0  0  0  0  0  0  0
   57.5900   29.3390   44.5880 C   0  0  0  0  0  0  0  0  0  0  0  0
   57.9240   28.0850   44.0580 C   0  0  0  0  0  0  0  0  0  0  0  0
   58.9980   27.3610   44.5850 C   0  0  0  0  0  0  0  0  0  0  0  0
   59.7530   27.8860   45.6450 C   0  0  0  0  0  0  0  0  0  0  0  0
   60.8870   27.0930   46.2360 C   0  0  0  0  0  0  0  0  0  0  0  0
   60.4250   26.3510   47.4960 C   0  0  0  0  0  0  0  0  0  0  0  0
   59.0110   26.6090   47.7570 N   0  0  0  0  0  0  0  0  0  0  0  0
   58.0320   25.8460   47.3730 C   0  0  0  0  0  0  0  0  0  0  0  0
   56.9140   26.4180   46.8180 N   0  0  0  0  0  0  0  0  0  0  0  0
   55.8580   25.6600   46.4010 C   0  0  0  0  0  0  0  0  0  0  0  0
   54.8400   26.1980   45.8930 O   0  0  0  0  0  0  0  0  0  0  0  0
   55.9480   24.2840   46.5570 C   0  0  0  0  0  0  0  0  0  0  0  0
   55.0650   23.3290   46.2350 N   0  0  0  0  0  0  0  0  0  0  0  0
   55.7110   22.1960   46.6250 C   0  0  0  0  0  0  0  0  0  0  0  0
   56.9420   22.4030   47.1680 N   0  0  0  0  0  0  0  0  0  0  0  0
   57.0510   23.7360   47.1060 C   0  0  0  0  0  0  0  0  0  0  0  0
   58.1020   24.4830   47.5220 N   0  0  0  0  0  0  0  0  0  0  0  0
   59.4030   29.1330   46.1890 C   0  0  0  0  0  0  0  0  0  0  0  0
   58.3290   29.8560   45.6610 C   0  0  0  0  0  0  0  0  0  0  0  0
  1  2  1  0
  2  3  2  0
  2  4  2  0
  2  5  1  0
  5  6  2  0
  6  7  1  0
  7  8  2  0
  8  9  1  0
  9 10  1  0
 10 11  1  0
 11 12  2  0
 12 13  1  0
 13 14  1  0
 14 15  2  0
 14 16  1  0
 16 17  1  0
 17 18  2  0
 18 19  1  0
 19 20  1  0
 20 21  1  0
  8 22  1  0
 22 23  2  0
 23  5  1  0
 21 12  1  0
 20 16  2  0
M  CHG  4   1  -1  13  -1  19  -1  21  -1
M  END
>  <UniqueID>  (12) 
64

>  <SMILES>  (12) 
[NH-]S(=O)(=O)c1ccc(CC/N=c2/[n-]c(=O)c3nc[n-]c3[n-]2)cc1

>  <Energy>  (12) 
70.94954368873066

>  <Genealogy>  (12) 
[NH-]S(=O)(=O)c1ccc(CCN=c2[n-]c(=O)c3nc[n-]c3[n-]2)cc1 (protonated)
[NH-]S(=O)(=O)c1ccc(CC/N=c2/[n-]c(=O)c3nc[n-]c3[n-]2)cc1 (cis-trans isomerization)
[NH-]S(=O)(=O)c1ccc(CC/N=c2/[n-]c(=O)c3nc[n-]c3[n-]2)cc1 (3D coordinates assigned)
[NH-]S(=O)(=O)c1ccc(CC/N=c2/[n-]c(=O)c3nc[n-]c3[n-]2)cc1 (optimized conformer: 70.94954368873066 kcal/mol)

>  <smiles>  (12) 
NS(=O)(=O)c1ccc(CCN=c2[nH]c(=O)c3nc[nH]c3[nH]2)cc1

>  <score_type>  (12) 
oracle

>  <origin>  (12) 
adg

>  <m_score__min__energy>  (12) 
-15.42

>  <m_primary>  (12) 
energy

$$$$
31:0
     RDKit          3D

 30 33  0  0  0  0  0  0  0  0999 V2000
   55.3260   29.2650   44.8480 N   0  0  0  0  0  0  0  0  0  0  0  0
   56.8370   30.0630   44.5970 S   0  0  0  0  0  0  0  0  0  0  0  0
   57.4930   29.5160   43.3590 O   0  0  0  0  0  0  0  0  0  0  0  0
   56.6000   31.5340   44.4070 O   0  0  0  0  0  0  0  0  0  0  0  0
   57.8780   29.8050   45.9920 C   0  0  0  0  0  0  0  0  0  0  0  0
   58.2370   28.5060   46.3760 C   0  0  0  0  0  0  0  0  0  0  0  0
   59.0550   28.3020   47.4920 C   0  0  0  0  0  0  0  0  0  0  0  0
   59.5300   29.4000   48.2320 C   0  0  0  0  0  0  0  0  0  0  0  0
   60.3460   29.2310   49.4000 N   0  0  0  0  0  0  0  0  0  0  0  0
   60.5350   28.0120   50.1280 C   0  0  0  0  0  0  0  0  0  0  0  0
   60.5990   26.9060   49.5270 O   0  0  0  0  0  0  0  0  0  0  0  0
   60.7210   28.0600   51.6110 C   0  0  0  0  0  0  0  0  0  0  0  0
   60.1620   29.2590   52.1490 O   0  0  0  0  0  0  0  0  0  0  0  0
   58.7890   29.5270   52.2770 C   0  0  0  0  0  0  0  0  0  0  0  0
   57.9200   28.7050   53.0180 C   0  0  0  0  0  0  0  0  0  0  0  0
   56.5640   29.0280   53.1250 C   0  0  0  0  0  0  0  0  0  0  0  0
   56.0470   30.1690   52.4870 C   0  0  0  0  0  0  0  0  0  0  0  0
   54.6080   30.5120   52.6040 C   0  0  0  0  0  0  0  0  0  0  0  0
   53.8300   30.0210   53.6930 C   0  0  0  0  0  0  0  0  0  0  0  0
   52.5030   30.3320   53.8040 N   0  0  0  0  0  0  0  0  0  0  0  0
   51.9410   31.1160   52.8530 C   0  0  0  0  0  0  0  0  0  0  0  0
   50.6570   31.5720   52.7180 C   0  0  0  0  0  0  0  0  0  0  0  0
   50.6130   32.3220   51.5900 N   0  0  0  0  0  0  0  0  0  0  0  0
   51.8210   32.3480   51.0250 N   0  0  0  0  0  0  0  0  0  0  0  0
   52.6330   31.6110   51.8010 C   0  0  0  0  0  0  0  0  0  0  0  0
   53.9830   31.3330   51.6330 C   0  0  0  0  0  0  0  0  0  0  0  0
   56.9180   30.9800   51.7400 C   0  0  0  0  0  0  0  0  0  0  0  0
   58.2740   30.6600   51.6390 C   0  0  0  0  0  0  0  0  0  0  0  0
   59.1430   30.6930   47.8630 C   0  0  0  0  0  0  0  0  0  0  0  0
   58.3260   30.8970   46.7470 C   0  0  0  0  0  0  0  0  0  0  0  0
  1  2  1  0
  2  3  2  0
  2  4  2  0
  2  5  1  0
  5  6  2  0
  6  7  1  0
  7  8  2  0
  8  9  1  0
  9 10  1  0
 10 11  2  0
 10 12  1  0
 12 13  1  0
 13 14  1  0
 14 15  2  0
 15 16  1  0
 16 17  2  0
 17 18  1  0
 18 19  1  0
 19 20  2  0
 20 21  1  0
 21 22  2  0
 22 23  1  0
 23 24  1  0
 24 25  2  0
 25 26  1  0
 17 27  1  0
 27 28  2  0
  8 29  1  0
 29 30  2  0
 30  5  1  0
 28 14  1  0
 26 18  2  0
 25 21  1  0
M  CHG  3   1  -1   9  -1  23  -1
M  END
>  <UniqueID>  (13) 
26

>  <SMILES>  (13) 
[NH-]S(=O)(=O)c1ccc([N-]C(=O)COc2ccc(-c3cnc4c[n-]nc4c3)cc2)cc1

>  <Energy>  (13) 
96.74375580737905

>  <Genealogy>  (13) 
[NH-]S(=O)(=O)c1ccc([N-]C(=O)COc2ccc(-c3cnc4c[n-]nc4c3)cc2)cc1 (protonated)
[NH-]S(=O)(=O)c1ccc([N-]C(=O)COc2ccc(-c3cnc4c[n-]nc4c3)cc2)cc1 (3D coordinates assigned)
[NH-]S(=O)(=O)c1ccc([N-]C(=O)COc2ccc(-c3cnc4c[n-]nc4c3)cc2)cc1 (optimized conformer: 96.74375580737905 kcal/mol)

>  <smiles>  (13) 
NS(=O)(=O)c1ccc(NC(=O)COc2ccc(-c3cnc4c[nH]nc4c3)cc2)cc1

>  <score_type>  (13) 
oracle

>  <origin>  (13) 
adg

>  <m_score__min__energy>  (13) 
-14.49

>  <m_primary>  (13) 
energy

$$$$
57:0
     RDKit          3D

 43 48  0  0  0  0  0  0  0  0999 V2000
   59.2990   33.4830   50.0890 C   0  0  0  0  0  0  0  0  0  0  0  0
   59.7420   32.2340   49.9390 C   0  0  0  0  0  0  0  0  0  0  0  0
   60.1520   31.7270   48.7590 N   0  0  0  0  0  0  0  0  0  0  0  0
   60.4880   30.4350   48.9740 C   0  0  0  0  0  0  0  0  0  0  0  0
   60.8490   29.5680   48.0140 C   0  0  0  0  0  0  0  0  0  0  0  0
   60.0500   28.4000   47.6030 C   0  0  0  0  0  0  0  0  0  0  0  0
   60.2240   27.1000   48.0640 C   0  0  0  0  0  0  0  0  0  0  0  0
   61.1280   26.7250   49.0550 O   0  0  0  0  0  0  0  0  0  0  0  0
   59.3860   26.2270   47.4600 N   0  0  0  0  0  0  0  0  0  0  0  0
   58.6970   26.9870   46.5870 C   0  0  0  0  0  0  0  0  0  0  0  0
   57.6920   26.5470   45.7320 C   0  0  0  0  0  0  0  0  0  0  0  0
   57.0500   27.4980   44.9210 C   0  0  0  0  0  0  0  0  0  0  0  0
   57.4450   28.8560   44.9420 C   0  0  0  0  0  0  0  0  0  0  0  0
   56.5200   30.0480   44.0300 S   0  0  0  0  0  0  0  0  0  0  0  0
   57.2430   30.2870   42.7330 O   0  0  0  0  0  0  0  0  0  0  0  0
   55.1480   29.5270   43.7020 O   0  0  0  0  0  0  0  0  0  0  0  0
   56.4130   31.5740   44.8770 N   0  0  0  0  0  0  0  0  0  0  0  0
   57.6460   32.2760   45.2880 C   0  0  0  0  0  0  0  0  0  0  0  0
   57.4430   32.8160   46.7200 C   0  0  0  0  0  0  0  0  0  0  0  0
   58.4580   33.9100   47.0950 C   0  0  0  0  0  0  0  0  0  0  0  0
   59.7100   33.7280   46.3410 N   0  0  0  0  0  0  0  0  0  0  0  0
   60.7840   34.5930   46.8710 C   0  0  0  0  0  0  0  0  0  0  0  0
   61.8670   33.7650   47.5180 C   0  0  0  0  0  0  0  0  0  0  0  0
   62.3560   34.0990   48.7950 C   0  0  0  0  0  0  0  0  0  0  0  0
   63.3480   33.3210   49.4000 C   0  0  0  0  0  0  0  0  0  0  0  0
   63.8630   32.2030   48.7410 C   0  0  0  0  0  0  0  0  0  0  0  0
   63.3800   31.8640   47.4710 C   0  0  0  0  0  0  0  0  0  0  0  0
   62.3840   32.6370   46.8610 C   0  0  0  0  0  0  0  0  0  0  0  0
   59.4890   33.9970   44.9030 C   0  0  0  0  0  0  0  0  0  0  0  0
   58.1610   33.3960   44.3620 C   0  0  0  0  0  0  0  0  0  0  0  0
   58.4880   29.2690   45.8000 C   0  0  0  0  0  0  0  0  0  0  0  0
   59.0680   28.3090   46.6350 C   0  0  0  0  0  0  0  0  0  0  0  0
   60.3100   30.1160   50.3170 C   0  0  0  0  0  0  0  0  0  0  0  0
   60.3590   28.7450   50.9230 C   0  0  0  0  0  0  0  0  0  0  0  0
   59.8270   31.2670   50.9280 C   0  0  0  0  0  0  0  0  0  0  0  0
   59.3240   31.3740   52.3100 C   0  0  0  0  0  0  0  0  0  0  0  0
   59.9950   32.0100   53.1670 O   0  0  0  0  0  0  0  0  0  0  0  0
   58.0670   30.7960   52.6730 N   0  0  0  0  0  0  0  0  0  0  0  0
   57.0230   31.6100   53.2840 C   0  0  0  0  0  0  0  0  0  0  0  0
   55.6740   31.1830   52.6940 C   0  0  0  0  0  0  0  0  0  0  0  0
   55.3620   29.8020   52.8440 O   0  0  0  0  0  0  0  0  0  0  0  0
   56.4840   28.9540   53.0650 C   0  0  0  0  0  0  0  0  0  0  0  0
   57.7690   29.4020   52.3410 C   0  0  0  0  0  0  0  0  0  0  0  0
  1  2  2  0
  2  3  1  0
  3  4  1  0
  4  5  2  3
  5  6  1  0
  6  7  2  0
  7  8  1  0
  7  9  1  0
  9 10  1  0
 10 11  2  0
 11 12  1  0
 12 13  2  0
 13 14  1  0
 14 15  2  0
 14 16  2  0
 14 17  1  0
 17 18  1  0
 18 19  1  0
 19 20  1  0
 20 21  1  0
 21 22  1  0
 22 23  1  0
 23 24  2  0
 24 25  1  0
 25 26  2  0
 26 27  1  0
 27 28  2  0
 21 29  1  0
 29 30  1  0
 13 31  1  0
 31 32  2  0
  4 33  1  0
 33 34  1  0
 33 35  2  0
 35 36  1  0
 36 37  2  0
 36 38  1  0
 38 39  1  0
 39 40  1  0
 40 41  1  0
 41 42  1  0
 42 43  1  0
 35  2  1  0
 43 38  1  0
 32  6  1  0
 32 10  1  0
 30 18  1  0
 28 23  1  0
M  CHG  3   8  -1   9  -1  17  -1
M  END
>  <UniqueID>  (14) 
52

>  <SMILES>  (14) 
C=c1[nH]c(=Cc2c([O-])[n-]c3ccc(S(=O)(=O)[N-]C4CCN(Cc5ccccc5)CC4)cc23)c(C)c1C(=O)N1CCOCC1

>  <Energy>  (14) 
183.34180154431

>  <Genealogy>  (14) 
C=c1[nH]c(=Cc2c([O-])[n-]c3ccc(S(=O)(=O)[N-]C4CCN(Cc5ccccc5)CC4)cc23)c(C)c1C(=O)N1CCOCC1 (protonated)
C=c1[nH]c(=Cc2c([O-])[n-]c3ccc(S(=O)(=O)[N-]C4CCN(Cc5ccccc5)CC4)cc23)c(C)c1C(=O)N1CCOCC1 (3D coordinates assigned)
C=c1[nH]c(=Cc2c([O-])[n-]c3ccc(S(=O)(=O)[N-]C4CCN(Cc5ccccc5)CC4)cc23)c(C)c1C(=O)N1CCOCC1 (nonaromatic ring conformer: 183.34180154431 kcal/mol)

>  <smiles>  (14) 
C=c1[nH]c(=Cc2c(O)[nH]c3ccc(S(=O)(=O)NC4CCN(Cc5ccccc5)CC4)cc23)c(C)c1C(=O)N1CCOCC1

>  <score_type>  (14) 
oracle

>  <origin>  (14) 
adg

>  <m_score__min__energy>  (14) 
-17.870000000000001

>  <m_primary>  (14) 
energy

$$$$
76:0
     RDKit          3D

 29 31  0  0  0  0  0  0  0  0999 V2000
   58.7190   29.0010   48.9700 O   0  0  0  0  0  0  0  0  0  0  0  0
   59.8890   28.8280   48.5300 C   0  0  0  0  0  0  0  0  0  0  0  0
   60.3120   27.5190   48.1350 N   0  0  0  0  0  0  0  0  0  0  0  0
   60.0470   26.9570   46.8170 C   0  0  0  0  0  0  0  0  0  0  0  0
   58.7510   27.4890   46.2910 C   0  0  0  0  0  0  0  0  0  0  0  0
   58.6840   28.7480   45.7810 N   0  0  0  0  0  0  0  0  0  0  0  0
   57.5230   29.2490   45.2870 C   0  0  0  0  0  0  0  0  0  0  0  0
   57.5260   30.5850   44.6770 C   0  0  0  0  0  0  0  0  0  0  0  0
   58.2340   30.7910   43.6570 O   0  0  0  0  0  0  0  0  0  0  0  0
   56.7010   31.6440   45.1810 N   0  0  0  0  0  0  0  0  0  0  0  0
   57.0110   33.0700   45.0830 C   0  0  0  0  0  0  0  0  0  0  0  0
   58.0250   33.4710   46.1220 C   0  0  0  0  0  0  0  0  0  0  0  0
   58.0830   32.7920   47.3500 C   0  0  0  0  0  0  0  0  0  0  0  0
   59.0350   33.1510   48.3100 C   0  0  0  0  0  0  0  0  0  0  0  0
   59.9380   34.1870   48.0480 C   0  0  0  0  0  0  0  0  0  0  0  0
   60.8640   34.5310   48.9780 F   0  0  0  0  0  0  0  0  0  0  0  0
   59.8870   34.8670   46.8280 C   0  0  0  0  0  0  0  0  0  0  0  0
   58.9310   34.5160   45.8710 C   0  0  0  0  0  0  0  0  0  0  0  0
   56.3590   28.4710   45.3360 C   0  0  0  0  0  0  0  0  0  0  0  0
   55.1460   28.9620   44.8620 O   0  0  0  0  0  0  0  0  0  0  0  0
   56.4410   27.1860   45.8820 C   0  0  0  0  0  0  0  0  0  0  0  0
   55.4180   26.4550   45.9450 O   0  0  0  0  0  0  0  0  0  0  0  0
   57.6290   26.7230   46.3460 N   0  0  0  0  0  0  0  0  0  0  0  0
   60.8230   29.9710   48.4270 C   0  0  0  0  0  0  0  0  0  0  0  0
   61.1060   30.5550   47.1810 C   0  0  0  0  0  0  0  0  0  0  0  0
   61.9830   31.6400   47.1100 C   0  0  0  0  0  0  0  0  0  0  0  0
   62.5630   32.1260   48.2390 N   0  0  0  0  0  0  0  0  0  0  0  0
   62.3140   31.5790   49.4580 C   0  0  0  0  0  0  0  0  0  0  0  0
   61.4450   30.4920   49.5750 C   0  0  0  0  0  0  0  0  0  0  0  0
  1  2  2  0
  2  3  1  0
  3  4  1  0
  4  5  1  0
  5  6  2  0
  6  7  1  0
  7  8  1  0
  8  9  2  0
  8 10  1  0
 10 11  1  0
 11 12  1  0
 12 13  2  0
 13 14  1  0
 14 15  2  0
 15 16  1  0
 15 17  1  0
 17 18  2  0
  7 19  2  0
 19 20  1  0
 19 21  1  0
 21 22  2  0
 21 23  1  0
  2 24  1  0
 24 25  2  0
 25 26  1  0
 26 27  2  0
 27 28  1  0
 28 29  2  0
 23  5  1  0
 29 24  1  0
 18 12  1  0
M  CHG  4   3  -1  10  -1  20  -1  23  -1
M  END
>  <UniqueID>  (15) 
67

>  <SMILES>  (15) 
O=C([N-]Cc1nc(C(=O)[N-]Cc2ccc(F)cc2)c([O-])c(=O)[n-]1)c1ccncc1

>  <Energy>  (15) 
44.36350099267645

>  <Genealogy>  (15) 
O=C([N-]Cc1nc(C(=O)[N-]Cc2ccc(F)cc2)c([O-])c(=O)[n-]1)c1ccncc1 (protonated)
O=C([N-]Cc1nc(C(=O)[N-]Cc2ccc(F)cc2)c([O-])c(=O)[n-]1)c1ccncc1 (3D coordinates assigned)
O=C([N-]Cc1nc(C(=O)[N-]Cc2ccc(F)cc2)c([O-])c(=O)[n-]1)c1ccncc1 (optimized conformer: 44.36350099267645 kcal/mol)

>  <smiles>  (15) 
O=C(NCc1nc(C(=O)NCc2ccc(F)cc2)c(O)c(=O)[nH]1)c1ccncc1

>  <score_type>  (15) 
oracle

>  <origin>  (15) 
adg

>  <m_score__min__energy>  (15) 
-16

>  <m_primary>  (15) 
energy

$$$$
53:0
     RDKit          3D

 32 35  0  0  0  0  0  0  0  0999 V2000
   57.3860   31.6450   42.4280 C   0  0  0  0  0  0  0  0  0  0  0  0
   56.9670   30.9020   43.4570 C   0  0  0  0  0  0  0  0  0  0  0  0
   55.8330   29.9220   43.3300 C   0  0  0  0  0  0  0  0  0  0  0  0
   55.5240   29.3370   44.6330 N   0  0  0  0  0  0  0  0  0  0  0  0
   56.2610   28.4670   45.2560 C   0  0  0  0  0  0  0  0  0  0  0  0
   55.7240   27.2770   45.6200 N   0  0  0  0  0  0  0  0  0  0  0  0
   56.4640   26.3690   46.3060 C   0  0  0  0  0  0  0  0  0  0  0  0
   55.9130   25.2500   46.6760 N   0  0  0  0  0  0  0  0  0  0  0  0
   56.5780   23.9450   46.6830 C   0  0  0  0  0  0  0  0  0  0  0  0
   56.6240   23.3220   45.3050 C   0  0  0  0  0  0  0  0  0  0  0  0
   57.4550   22.2190   45.0200 C   0  0  0  0  0  0  0  0  0  0  0  0
   57.4770   21.6610   43.7380 C   0  0  0  0  0  0  0  0  0  0  0  0
   56.6500   22.1780   42.7370 C   0  0  0  0  0  0  0  0  0  0  0  0
   55.7880   23.2430   43.0200 C   0  0  0  0  0  0  0  0  0  0  0  0
   55.7690   23.8080   44.3010 C   0  0  0  0  0  0  0  0  0  0  0  0
   57.7570   26.6530   46.6160 N   0  0  0  0  0  0  0  0  0  0  0  0
   58.3080   27.8400   46.2410 C   0  0  0  0  0  0  0  0  0  0  0  0
   59.5330   28.1430   46.5530 N   0  0  0  0  0  0  0  0  0  0  0  0
   59.9840   28.6320   47.8600 C   0  0  0  0  0  0  0  0  0  0  0  0
   60.9490   29.8130   47.6430 C   0  0  0  0  0  0  0  0  0  0  0  0
   60.1670   31.1180   47.4460 C   0  0  0  0  0  0  0  0  0  0  0  0
   59.3590   31.4650   48.6400 N   0  0  0  0  0  0  0  0  0  0  0  0
   58.2480   32.4060   48.3540 C   0  0  0  0  0  0  0  0  0  0  0  0
   58.4690   33.2690   47.1270 C   0  0  0  0  0  0  0  0  0  0  0  0
   57.6960   33.0730   45.9700 C   0  0  0  0  0  0  0  0  0  0  0  0
   57.8770   33.8940   44.8530 C   0  0  0  0  0  0  0  0  0  0  0  0
   58.8380   34.9100   44.8750 C   0  0  0  0  0  0  0  0  0  0  0  0
   59.6350   35.0920   46.0070 C   0  0  0  0  0  0  0  0  0  0  0  0
   59.4650   34.2670   47.1230 C   0  0  0  0  0  0  0  0  0  0  0  0
   58.9990   30.3260   49.5190 C   0  0  0  0  0  0  0  0  0  0  0  0
   58.7610   29.0350   48.7250 C   0  0  0  0  0  0  0  0  0  0  0  0
   57.5570   28.7390   45.5590 N   0  0  0  0  0  0  0  0  0  0  0  0
  1  2  2  0
  2  3  1  0
  3  4  1  0
  4  5  2  0
  5  6  1  0
  6  7  1  0
  7  8  2  3
  8  9  1  0
  9 10  1  0
 10 11  2  0
 11 12  1  0
 12 13  2  0
 13 14  1  0
 14 15  2  0
  7 16  1  0
 16 17  1  0
 17 18  2  3
 18 19  1  0
 19 20  1  0
 20 21  1  0
 21 22  1  0
 22 23  1  0
 23 24  1  0
 24 25  2  0
 25 26  1  0
 26 27  2  0
 27 28  1  0
 28 29  2  0
 22 30  1  0
 30 31  1  0
 17 32  1  0
 32  5  1  0
 15 10  1  0
 31 19  1  0
 29 24  1  0
M  CHG  3   6  -1  16  -1  32  -1
M  END
>  <UniqueID>  (16) 
49

>  <SMILES>  (16) 
C=CC/N=c1/[n-]c(=NCc2ccccc2)[n-]c(=NC2CCN(Cc3ccccc3)CC2)[n-]1

>  <Energy>  (16) 
67.59438811755784

>  <Genealogy>  (16) 
C=CCN=c1[n-]c(=NCc2ccccc2)[n-]c(=NC2CCN(Cc3ccccc3)CC2)[n-]1 (protonated)
C=CC/N=c1/[n-]c(=NCc2ccccc2)[n-]c(=NC2CCN(Cc3ccccc3)CC2)[n-]1 (cis-trans isomerization)
C=CC/N=c1/[n-]c(=NCc2ccccc2)[n-]c(=NC2CCN(Cc3ccccc3)CC2)[n-]1 (3D coordinates assigned)
C=CC/N=c1/[n-]c(=NCc2ccccc2)[n-]c(=NC2CCN(Cc3ccccc3)CC2)[n-]1 (nonaromatic ring conformer: 67.59438811755784 kcal/mol)

>  <smiles>  (16) 
C=CCN=c1[nH]c(=NCc2ccccc2)[nH]c(=NC2CCN(Cc3ccccc3)CC2)[nH]1

>  <score_type>  (16) 
oracle

>  <origin>  (16) 
adg

>  <m_score__min__energy>  (16) 
-14.630000000000001

>  <m_primary>  (16) 
energy

$$$$
1:0
     RDKit          3D

 27 29  0  0  0  0  0  0  0  0999 V2000
   54.7310   26.1720   45.9850 N   0  0  0  0  0  0  0  0  0  0  0  0
   56.2920   25.4580   46.1690 S   0  0  0  0  0  0  0  0  0  0  0  0
   56.4830   24.3920   45.1280 O   0  0  0  0  0  0  0  0  0  0  0  0
   56.3940   24.8300   47.5320 O   0  0  0  0  0  0  0  0  0  0  0  0
   57.5310   26.6960   45.9800 C   0  0  0  0  0  0  0  0  0  0  0  0
   58.7200   26.6130   46.7210 C   0  0  0  0  0  0  0  0  0  0  0  0
   59.6960   27.6070   46.5990 C   0  0  0  0  0  0  0  0  0  0  0  0
   59.4990   28.6780   45.7220 C   0  0  0  0  0  0  0  0  0  0  0  0
   58.3320   28.7540   44.9480 C   0  0  0  0  0  0  0  0  0  0  0  0
   58.1410   29.8830   44.0860 N   0  0  0  0  0  0  0  0  0  0  0  0
   57.1660   30.9190   44.2590 C   0  0  0  0  0  0  0  0  0  0  0  0
   56.0690   30.6350   44.8070 O   0  0  0  0  0  0  0  0  0  0  0  0
   57.4790   32.3620   43.9520 C   0  0  0  0  0  0  0  0  0  0  0  0
   57.6190   33.1410   45.2020 N   0  0  0  0  0  0  0  0  0  0  0  0
   58.2170   32.3250   46.2930 C   0  0  0  0  0  0  0  0  0  0  0  0
   59.7350   32.5200   46.4080 C   0  0  0  0  0  0  0  0  0  0  0  0
   60.1020   33.9970   46.7120 C   0  0  0  0  0  0  0  0  0  0  0  0
   60.4050   34.2000   48.2130 C   0  0  0  0  0  0  0  0  0  0  0  0
   61.8360   33.8580   48.5500 C   0  0  0  0  0  0  0  0  0  0  0  0
   62.2950   33.9670   49.8760 C   0  0  0  0  0  0  0  0  0  0  0  0
   63.6100   33.6180   50.1960 C   0  0  0  0  0  0  0  0  0  0  0  0
   64.4750   33.1560   49.1990 C   0  0  0  0  0  0  0  0  0  0  0  0
   64.0250   33.0410   47.8790 C   0  0  0  0  0  0  0  0  0  0  0  0
   62.7100   33.3880   47.5540 C   0  0  0  0  0  0  0  0  0  0  0  0
   58.9980   34.9690   46.2250 C   0  0  0  0  0  0  0  0  0  0  0  0
   58.3220   34.4310   44.9590 C   0  0  0  0  0  0  0  0  0  0  0  0
   57.3370   27.7700   45.0980 C   0  0  0  0  0  0  0  0  0  0  0  0
  1  2  1  0
  2  3  2  0
  2  4  2  0
  2  5  1  0
  5  6  2  0
  6  7  1  0
  7  8  2  0
  8  9  1  0
  9 10  1  0
 10 11  1  0
 11 12  2  0
 11 13  1  0
 13 14  1  0
 14 15  1  0
 15 16  1  0
 16 17  1  0
 17 18  1  0
 18 19  1  0
 19 20  2  0
 20 21  1  0
 21 22  2  0
 22 23  1  0
 23 24  2  0
 17 25  1  0
 25 26  1  0
  9 27  2  0
 27  5  1  0
 26 14  1  0
 24 19  1  0
M  CHG  2   1  -1  10  -1
M  END
>  <UniqueID>  (17) 
2

>  <SMILES>  (17) 
[NH-]S(=O)(=O)c1cccc([N-]C(=O)CN2CCC(Cc3ccccc3)CC2)c1

>  <Energy>  (17) 
63.58544599757763

>  <Genealogy>  (17) 
[NH-]S(=O)(=O)c1cccc([N-]C(=O)CN2CCC(Cc3ccccc3)CC2)c1 (protonated)
[NH-]S(=O)(=O)c1cccc([N-]C(=O)CN2CCC(Cc3ccccc3)CC2)c1 (3D coordinates assigned)
[NH-]S(=O)(=O)c1cccc([N-]C(=O)CN2CCC(Cc3ccccc3)CC2)c1 (nonaromatic ring conformer: 63.58544599757763 kcal/mol)

>  <smiles>  (17) 
NS(=O)(=O)c1cccc(NC(=O)CN2CCC(Cc3ccccc3)CC2)c1

>  <score_type>  (17) 
oracle

>  <origin>  (17) 
adg

>  <m_score__min__energy>  (17) 
-14.289999999999999

>  <m_primary>  (17) 
energy

$$$$
85:0
     RDKit          3D

 28 31  0  0  0  0  0  0  0  0999 V2000
   55.5060   26.5050   46.2190 N   0  0  0  0  0  0  0  0  0  0  0  0
   57.2200   26.5480   45.9970 S   0  0  0  0  0  0  0  0  0  0  0  0
   57.8840   25.8010   47.1180 O   0  0  0  0  0  0  0  0  0  0  0  0
   57.5520   25.8880   44.6880 O   0  0  0  0  0  0  0  0  0  0  0  0
   57.7910   28.2140   45.9840 C   0  0  0  0  0  0  0  0  0  0  0  0
   59.0600   28.5570   46.5000 C   0  0  0  0  0  0  0  0  0  0  0  0
   59.5110   29.9030   46.4750 C   0  0  0  0  0  0  0  0  0  0  0  0
   60.7690   30.2470   46.9910 C   0  0  0  0  0  0  0  0  0  0  0  0
   61.2130   31.5790   46.9710 C   0  0  0  0  0  0  0  0  0  0  0  0
   62.5060   31.8920   47.5210 N   0  0  0  0  0  0  0  0  0  0  0  0
   62.7480   32.5800   49.0960 S   0  0  0  0  0  0  0  0  0  0  0  0
   63.7740   31.7710   49.8380 O   0  0  0  0  0  0  0  0  0  0  0  0
   63.2520   33.9890   48.9450 O   0  0  0  0  0  0  0  0  0  0  0  0
   61.2410   32.5510   50.0050 C   0  0  0  0  0  0  0  0  0  0  0  0
   60.5440   33.7400   50.2650 C   0  0  0  0  0  0  0  0  0  0  0  0
   59.3400   33.7070   50.9760 C   0  0  0  0  0  0  0  0  0  0  0  0
   58.8270   32.4870   51.4330 C   0  0  0  0  0  0  0  0  0  0  0  0
   57.3170   32.4470   52.3220 Cl  0  0  0  0  0  0  0  0  0  0  0  0
   59.5230   31.3000   51.1780 C   0  0  0  0  0  0  0  0  0  0  0  0
   60.7270   31.3310   50.4680 C   0  0  0  0  0  0  0  0  0  0  0  0
   60.3860   32.5730   46.4090 C   0  0  0  0  0  0  0  0  0  0  0  0
   59.1310   32.2460   45.8890 C   0  0  0  0  0  0  0  0  0  0  0  0
   58.6870   30.9190   45.9200 C   0  0  0  0  0  0  0  0  0  0  0  0
   57.4450   30.5330   45.4150 C   0  0  0  0  0  0  0  0  0  0  0  0
   56.4930   31.2820   44.8370 N   0  0  0  0  0  0  0  0  0  0  0  0
   55.5130   30.4350   44.5280 N   0  0  0  0  0  0  0  0  0  0  0  0
   55.8030   29.1850   44.8840 N   0  0  0  0  0  0  0  0  0  0  0  0
   57.0200   29.2440   45.4450 C   0  0  0  0  0  0  0  0  0  0  0  0
  1  2  1  0
  2  3  2  0
  2  4  2  0
  2  5  1  0
  5  6  2  0
  6  7  1  0
  7  8  2  0
  8  9  1  0
  9 10  1  0
 10 11  1  0
 11 12  2  0
 11 13  2  0
 11 14  1  0
 14 15  2  0
 15 16  1  0
 16 17  2  0
 17 18  1  0
 17 19  1  0
 19 20  2  0
  9 21  2  0
 21 22  1  0
 22 23  2  0
 23 24  1  0
 24 25  1  0
 25 26  2  0
 26 27  1  0
 27 28  1  0
 28  5  1  0
 23  7  1  0
 28 24  2  0
 20 14  1  0
M  CHG  2   1  -1  27  -1
M  END
>  <UniqueID>  (18) 
80

>  <SMILES>  (18) 
[NH-]S(=O)(=O)c1cc2cc(NS(=O)(=O)c3ccc(Cl)cc3)ccc2c2nn[n-]c12

>  <Energy>  (18) 
90.95589022513182

>  <Genealogy>  (18) 
[NH-]S(=O)(=O)c1cc2cc(NS(=O)(=O)c3ccc(Cl)cc3)ccc2c2nn[n-]c12 (protonated)
[NH-]S(=O)(=O)c1cc2cc(NS(=O)(=O)c3ccc(Cl)cc3)ccc2c2nn[n-]c12 (3D coordinates assigned)
[NH-]S(=O)(=O)c1cc2cc(NS(=O)(=O)c3ccc(Cl)cc3)ccc2c2nn[n-]c12 (optimized conformer: 90.95589022513182 kcal/mol)

>  <smiles>  (18) 
NS(=O)(=O)c1cc2cc(NS(=O)(=O)c3ccc(Cl)cc3)ccc2c2nn[nH]c12

>  <score_type>  (18) 
oracle

>  <origin>  (18) 
adg

>  <m_score__min__energy>  (18) 
-14.4

>  <m_primary>  (18) 
energy

$$$$
2:0
     RDKit          3D

 29 31  0  0  0  0  0  0  0  0999 V2000
   55.1470   29.3750   45.0100 O   0  0  0  0  0  0  0  0  0  0  0  0
   56.2710   29.7850   44.6150 C   0  0  0  0  0  0  0  0  0  0  0  0
   57.3520   28.7970   44.3170 C   0  0  0  0  0  0  0  0  0  0  0  0
   58.0570   28.4380   45.5410 N   0  0  0  0  0  0  0  0  0  0  0  0
   57.6770   27.3440   46.3860 C   0  0  0  0  0  0  0  0  0  0  0  0
   57.7660   27.4710   47.6390 O   0  0  0  0  0  0  0  0  0  0  0  0
   57.1800   26.0670   45.8050 C   0  0  0  0  0  0  0  0  0  0  0  0
   58.1090   25.0890   45.3920 C   0  0  0  0  0  0  0  0  0  0  0  0
   57.6770   23.8800   44.8410 C   0  0  0  0  0  0  0  0  0  0  0  0
   56.3140   23.6250   44.6950 C   0  0  0  0  0  0  0  0  0  0  0  0
   55.3800   24.5790   45.0980 C   0  0  0  0  0  0  0  0  0  0  0  0
   55.7990   25.7940   45.6510 C   0  0  0  0  0  0  0  0  0  0  0  0
   54.8310   26.7140   46.0380 O   0  0  0  0  0  0  0  0  0  0  0  0
   56.5180   31.1830   44.4220 N   0  0  0  0  0  0  0  0  0  0  0  0
   57.4260   31.9970   45.1800 C   0  0  0  0  0  0  0  0  0  0  0  0
   57.6060   33.3650   44.9060 C   0  0  0  0  0  0  0  0  0  0  0  0
   58.4840   34.1260   45.6830 C   0  0  0  0  0  0  0  0  0  0  0  0
   59.1750   33.5360   46.7440 C   0  0  0  0  0  0  0  0  0  0  0  0
   58.9870   32.1790   47.0400 C   0  0  0  0  0  0  0  0  0  0  0  0
   59.8580   31.4350   48.3830 S   0  0  0  0  0  0  0  0  0  0  0  0
   60.6700   30.2810   47.8640 O   0  0  0  0  0  0  0  0  0  0  0  0
   60.8070   32.4410   48.9750 O   0  0  0  0  0  0  0  0  0  0  0  0
   58.7730   30.8620   49.6260 N   0  0  0  0  0  0  0  0  0  0  0  0
   59.4170   29.8100   50.4300 C   0  0  0  0  0  0  0  0  0  0  0  0
   58.5690   29.4790   51.6750 C   0  0  0  0  0  0  0  0  0  0  0  0
   57.2740   30.0380   51.5710 O   0  0  0  0  0  0  0  0  0  0  0  0
   57.3610   31.4530   51.5590 C   0  0  0  0  0  0  0  0  0  0  0  0
   58.3460   31.9720   50.4880 C   0  0  0  0  0  0  0  0  0  0  0  0
   58.1020   31.4190   46.2620 C   0  0  0  0  0  0  0  0  0  0  0  0
  1  2  2  0
  2  3  1  0
  3  4  1  0
  4  5  1  0
  5  6  2  0
  5  7  1  0
  7  8  2  0
  8  9  1  0
  9 10  2  0
 10 11  1  0
 11 12  2  0
 12 13  1  0
  2 14  1  0
 14 15  1  0
 15 16  2  0
 16 17  1  0
 17 18  2  0
 18 19  1  0
 19 20  1  0
 20 21  2  0
 20 22  2  0
 20 23  1  0
 23 24  1  0
 24 25  1  0
 25 26  1  0
 26 27  1  0
 27 28  1  0
 19 29  2  0
 12  7  1  0
 29 15  1  0
 28 23  1  0
M  CHG  3   4  -1  13  -1  14  -1
M  END
>  <UniqueID>  (19) 
2

>  <SMILES>  (19) 
O=C(C[N-]C(=O)c1ccccc1[O-])[N-]c1cccc(S(=O)(=O)N2CCOCC2)c1

>  <Energy>  (19) 
58.6134905027043

>  <Genealogy>  (19) 
O=C(C[N-]C(=O)c1ccccc1[O-])[N-]c1cccc(S(=O)(=O)N2CCOCC2)c1 (protonated)
O=C(C[N-]C(=O)c1ccccc1[O-])[N-]c1cccc(S(=O)(=O)N2CCOCC2)c1 (3D coordinates assigned)
O=C(C[N-]C(=O)c1ccccc1[O-])[N-]c1cccc(S(=O)(=O)N2CCOCC2)c1 (nonaromatic ring conformer: 58.6134905027043 kcal/mol)

>  <smiles>  (19) 
O=C(CNC(=O)c1ccccc1O)Nc1cccc(S(=O)(=O)N2CCOCC2)c1

>  <score_type>  (19) 
oracle

>  <origin>  (19) 
adg

>  <m_score__min__energy>  (19) 
-16.52

>  <m_primary>  (19) 
energy

$$$$
4:0
     RDKit          3D

 22 23  0  0  0  0  0  0  0  0999 V2000
   55.9390   21.4670   43.8660 N   0  0  0  0  0  0  0  0  0  0  0  0
   55.6600   23.1700   43.7670 S   0  0  0  0  0  0  0  0  0  0  0  0
   54.3040   23.4140   43.1650 O   0  0  0  0  0  0  0  0  0  0  0  0
   56.7140   23.7970   42.8990 O   0  0  0  0  0  0  0  0  0  0  0  0
   55.7310   23.8680   45.4120 C   0  0  0  0  0  0  0  0  0  0  0  0
   54.6710   24.9530   45.6330 C   0  0  0  0  0  0  0  0  0  0  0  0
   55.2650   26.2320   46.0120 N   0  0  0  0  0  0  0  0  0  0  0  0
   56.6580   26.5220   46.1950 C   0  0  0  0  0  0  0  0  0  0  0  0
   57.1820   26.2720   47.3110 O   0  0  0  0  0  0  0  0  0  0  0  0
   57.5250   27.0870   45.1020 C   0  0  0  0  0  0  0  0  0  0  0  0
   57.5550   28.5880   45.1390 C   0  0  0  0  0  0  0  0  0  0  0  0
   58.9110   29.5500   45.4190 S   0  0  0  0  0  0  0  0  0  0  0  0
   58.0310   30.9910   45.3880 C   0  0  0  0  0  0  0  0  0  0  0  0
   58.5840   32.3110   45.5640 N   0  0  0  0  0  0  0  0  0  0  0  0
   59.5660   32.5390   46.6320 C   0  0  0  0  0  0  0  0  0  0  0  0
   59.6120   34.0220   47.0120 C   0  0  0  0  0  0  0  0  0  0  0  0
   59.7700   34.8290   45.8630 O   0  0  0  0  0  0  0  0  0  0  0  0
   58.6150   34.7230   45.0530 C   0  0  0  0  0  0  0  0  0  0  0  0
   58.4730   33.3060   44.4910 C   0  0  0  0  0  0  0  0  0  0  0  0
   56.7130   30.7570   45.1930 N   0  0  0  0  0  0  0  0  0  0  0  0
   56.4490   29.4310   45.0640 C   0  0  0  0  0  0  0  0  0  0  0  0
   55.1540   28.9630   44.8720 O   0  0  0  0  0  0  0  0  0  0  0  0
  1  2  1  0
  2  3  2  0
  2  4  2  0
  2  5  1  0
  5  6  1  0
  6  7  1  0
  7  8  1  0
  8  9  2  0
  8 10  1  0
 10 11  1  0
 11 12  1  0
 12 13  1  0
 13 14  1  0
 14 15  1  0
 15 16  1  0
 16 17  1  0
 17 18  1  0
 18 19  1  0
 13 20  2  0
 20 21  1  0
 21 22  1  0
 21 11  2  0
 19 14  1  0
M  CHG  3   1  -1   7  -1  22  -1
M  END
>  <UniqueID>  (20) 
4

>  <SMILES>  (20) 
[NH-]S(=O)(=O)CC[N-]C(=O)Cc1sc(N2CCOCC2)nc1[O-]

>  <Energy>  (20) 
58.43689640996309

>  <Genealogy>  (20) 
[NH-]S(=O)(=O)CC[N-]C(=O)Cc1sc(N2CCOCC2)nc1[O-] (protonated)
[NH-]S(=O)(=O)CC[N-]C(=O)Cc1sc(N2CCOCC2)nc1[O-] (3D coordinates assigned)
[NH-]S(=O)(=O)CC[N-]C(=O)Cc1sc(N2CCOCC2)nc1[O-] (nonaromatic ring conformer: 58.43689640996309 kcal/mol)

>  <smiles>  (20) 
NS(=O)(=O)CCNC(=O)Cc1sc(N2CCOCC2)nc1O

>  <score_type>  (20) 
oracle

>  <origin>  (20) 
adg

>  <m_score__min__energy>  (20) 
-15.279999999999999

>  <m_primary>  (20) 
energy

$$$$
45:0
     RDKit          3D

 27 29  0  0  0  0  0  0  0  0999 V2000
   64.1460   32.5650   48.4820 N   0  0  0  0  0  0  0  0  0  0  0  0
   62.8830   33.5300   47.8050 S   0  0  0  0  0  0  0  0  0  0  0  0
   63.3850   34.2210   46.5680 O   0  0  0  0  0  0  0  0  0  0  0  0
   62.4650   34.5740   48.8030 O   0  0  0  0  0  0  0  0  0  0  0  0
   61.5110   32.5040   47.3990 C   0  0  0  0  0  0  0  0  0  0  0  0
   61.6870   31.1220   47.2550 C   0  0  0  0  0  0  0  0  0  0  0  0
   60.5970   30.3030   46.9460 C   0  0  0  0  0  0  0  0  0  0  0  0
   59.3200   30.8610   46.7650 C   0  0  0  0  0  0  0  0  0  0  0  0
   58.1760   30.0450   46.4790 N   0  0  0  0  0  0  0  0  0  0  0  0
   57.3110   30.1610   45.3410 C   0  0  0  0  0  0  0  0  0  0  0  0
   57.2780   31.2530   44.7140 O   0  0  0  0  0  0  0  0  0  0  0  0
   56.4800   29.0050   44.8540 C   0  0  0  0  0  0  0  0  0  0  0  0
   56.9520   27.7210   45.4660 C   0  0  0  0  0  0  0  0  0  0  0  0
   58.2480   27.3550   45.5400 N   0  0  0  0  0  0  0  0  0  0  0  0
   58.2010   26.1220   46.0920 C   0  0  0  0  0  0  0  0  0  0  0  0
   59.2370   25.4530   46.3490 O   0  0  0  0  0  0  0  0  0  0  0  0
   56.9460   25.6910   46.3580 N   0  0  0  0  0  0  0  0  0  0  0  0
   56.5380   24.4350   46.9290 C   0  0  0  0  0  0  0  0  0  0  0  0
   55.6580   23.5860   46.2330 C   0  0  0  0  0  0  0  0  0  0  0  0
   55.2620   22.3660   46.7920 C   0  0  0  0  0  0  0  0  0  0  0  0
   55.7390   21.9830   48.0470 C   0  0  0  0  0  0  0  0  0  0  0  0
   56.6130   22.8180   48.7480 C   0  0  0  0  0  0  0  0  0  0  0  0
   57.0110   24.0390   48.1930 C   0  0  0  0  0  0  0  0  0  0  0  0
   56.1610   26.7050   45.9530 C   0  0  0  0  0  0  0  0  0  0  0  0
   54.7700   26.6990   45.9900 O   0  0  0  0  0  0  0  0  0  0  0  0
   59.1430   32.2380   46.9460 C   0  0  0  0  0  0  0  0  0  0  0  0
   60.2320   33.0570   47.2550 C   0  0  0  0  0  0  0  0  0  0  0  0
  1  2  1  0
  2  3  2  0
  2  4  2  0
  2  5  1  0
  5  6  2  0
  6  7  1  0
  7  8  2  0
  8  9  1  0
  9 10  1  0
 10 11  2  0
 10 12  1  0
 12 13  1  0
 13 14  1  0
 14 15  1  0
 15 16  2  0
 15 17  1  0
 17 18  1  0
 18 19  2  0
 19 20  1  0
 20 21  2  0
 21 22  1  0
 22 23  2  0
 17 24  1  0
 24 25  1  0
  8 26  1  0
 26 27  2  0
 27  5  1  0
 24 13  2  0
 23 18  1  0
M  CHG  4   1  -1   9  -1  14  -1  25  -1
M  END
>  <UniqueID>  (21) 
41

>  <SMILES>  (21) 
[NH-]S(=O)(=O)c1ccc([N-]C(=O)Cc2[n-]c(=O)n(-c3ccccc3)c2[O-])cc1

>  <Energy>  (21) 
82.61125427148907

>  <Genealogy>  (21) 
[NH-]S(=O)(=O)c1ccc([N-]C(=O)Cc2[n-]c(=O)n(-c3ccccc3)c2[O-])cc1 (protonated)
[NH-]S(=O)(=O)c1ccc([N-]C(=O)Cc2[n-]c(=O)n(-c3ccccc3)c2[O-])cc1 (3D coordinates assigned)
[NH-]S(=O)(=O)c1ccc([N-]C(=O)Cc2[n-]c(=O)n(-c3ccccc3)c2[O-])cc1 (optimized conformer: 82.61125427148907 kcal/mol)

>  <smiles>  (21) 
NS(=O)(=O)c1ccc(NC(=O)Cc2[nH]c(=O)n(-c3ccccc3)c2O)cc1

>  <score_type>  (21) 
oracle

>  <origin>  (21) 
adg

>  <m_score__min__energy>  (21) 
-14.119999999999999

>  <m_primary>  (21) 
energy

$$$$
35:0
     RDKit          3D

 21 22  0  0  0  0  0  0  0  0999 V2000
   55.1480   29.2510   44.8450 O   0  0  0  0  0  0  0  0  0  0  0  0
   56.3400   29.6390   44.9770 C   0  0  0  0  0  0  0  0  0  0  0  0
   56.6930   30.9010   44.5140 O   0  0  0  0  0  0  0  0  0  0  0  0
   57.3480   28.7650   45.6150 C   0  0  0  0  0  0  0  0  0  0  0  0
   58.2960   29.2960   46.5090 C   0  0  0  0  0  0  0  0  0  0  0  0
   59.2450   28.4650   47.1090 C   0  0  0  0  0  0  0  0  0  0  0  0
   59.2590   27.0970   46.8270 C   0  0  0  0  0  0  0  0  0  0  0  0
   58.3210   26.5520   45.9430 C   0  0  0  0  0  0  0  0  0  0  0  0
   58.3300   24.8260   45.5930 S   0  0  0  0  0  0  0  0  0  0  0  0
   59.6730   24.2290   45.9100 O   0  0  0  0  0  0  0  0  0  0  0  0
   58.0350   24.6250   44.1340 O   0  0  0  0  0  0  0  0  0  0  0  0
   57.1170   24.0190   46.5340 N   0  0  0  0  0  0  0  0  0  0  0  0
   55.7800   23.7410   46.0920 C   0  0  0  0  0  0  0  0  0  0  0  0
   55.3420   22.4440   45.7810 C   0  0  0  0  0  0  0  0  0  0  0  0
   54.0630   22.2380   45.3750 N   0  0  0  0  0  0  0  0  0  0  0  0
   53.1900   23.2720   45.2600 C   0  0  0  0  0  0  0  0  0  0  0  0
   52.0090   23.0580   44.8820 O   0  0  0  0  0  0  0  0  0  0  0  0
   53.5900   24.5350   45.5530 N   0  0  0  0  0  0  0  0  0  0  0  0
   54.8600   24.7910   45.9650 C   0  0  0  0  0  0  0  0  0  0  0  0
   55.2010   25.9730   46.2310 O   0  0  0  0  0  0  0  0  0  0  0  0
   57.3730   27.3870   45.3350 C   0  0  0  0  0  0  0  0  0  0  0  0
  1  2  2  0
  2  3  1  0
  2  4  1  0
  4  5  2  0
  5  6  1  0
  6  7  2  0
  7  8  1  0
  8  9  1  0
  9 10  2  0
  9 11  2  0
  9 12  1  0
 12 13  1  0
 13 14  2  0
 14 15  1  0
 15 16  1  0
 16 17  2  0
 16 18  1  0
 18 19  1  0
 19 20  2  0
  8 21  2  0
 21  4  1  0
 19 13  1  0
M  CHG  4   3  -1  12  -1  15  -1  18  -1
M  END
>  <UniqueID>  (22) 
35

>  <SMILES>  (22) 
O=C([O-])c1cccc(S(=O)(=O)[N-]c2c[n-]c(=O)[n-]c2=O)c1

>  <Energy>  (22) 
32.30215210493703

>  <Genealogy>  (22) 
O=C([O-])c1cccc(S(=O)(=O)[N-]c2c[n-]c(=O)[n-]c2=O)c1 (protonated)
O=C([O-])c1cccc(S(=O)(=O)[N-]c2c[n-]c(=O)[n-]c2=O)c1 (3D coordinates assigned)
O=C([O-])c1cccc(S(=O)(=O)[N-]c2c[n-]c(=O)[n-]c2=O)c1 (optimized conformer: 32.30215210493703 kcal/mol)

>  <smiles>  (22) 
O=C(O)c1cccc(S(=O)(=O)Nc2c[nH]c(=O)[nH]c2=O)c1

>  <score_type>  (22) 
oracle

>  <origin>  (22) 
adg

>  <m_score__min__energy>  (22) 
-14.619999999999999

>  <m_primary>  (22) 
energy

$$$$
30:0
     RDKit          3D

 23 24  0  0  0  0  0  0  0  0999 V2000
   54.6500   29.5740   43.4230 O   0  0  0  0  0  0  0  0  0  0  0  0
   55.6350   29.6570   44.2050 C   0  0  0  0  0  0  0  0  0  0  0  0
   56.6270   30.7640   44.0320 C   0  0  0  0  0  0  0  0  0  0  0  0
   57.0300   31.3210   45.3260 N   0  0  0  0  0  0  0  0  0  0  0  0
   57.7550   32.8930   45.1470 S   0  0  0  0  0  0  0  0  0  0  0  0
   58.3520   33.0230   43.7730 O   0  0  0  0  0  0  0  0  0  0  0  0
   56.6890   33.9410   45.2980 O   0  0  0  0  0  0  0  0  0  0  0  0
   58.9950   33.1650   46.3700 C   0  0  0  0  0  0  0  0  0  0  0  0
   59.9030   32.1430   46.6820 C   0  0  0  0  0  0  0  0  0  0  0  0
   60.9020   32.3570   47.6380 C   0  0  0  0  0  0  0  0  0  0  0  0
   60.9990   33.5940   48.2830 C   0  0  0  0  0  0  0  0  0  0  0  0
   60.1000   34.6180   47.9710 C   0  0  0  0  0  0  0  0  0  0  0  0
   59.1000   34.4060   47.0160 C   0  0  0  0  0  0  0  0  0  0  0  0
   55.8560   28.6600   45.2120 N   0  0  0  0  0  0  0  0  0  0  0  0
   57.1060   28.0220   45.5200 C   0  0  0  0  0  0  0  0  0  0  0  0
   58.3250   28.6620   45.2260 C   0  0  0  0  0  0  0  0  0  0  0  0
   59.5420   28.0350   45.4950 C   0  0  0  0  0  0  0  0  0  0  0  0
   59.5600   26.7550   46.0440 C   0  0  0  0  0  0  0  0  0  0  0  0
   58.3630   26.0950   46.3190 C   0  0  0  0  0  0  0  0  0  0  0  0
   57.1220   26.7080   46.0580 C   0  0  0  0  0  0  0  0  0  0  0  0
   55.8750   25.9570   46.3680 C   0  0  0  0  0  0  0  0  0  0  0  0
   54.7570   26.3390   45.9350 O   0  0  0  0  0  0  0  0  0  0  0  0
   55.9260   24.8110   47.1540 O   0  0  0  0  0  0  0  0  0  0  0  0
  1  2  2  0
  2  3  1  0
  3  4  1  0
  4  5  1  0
  5  6  2  0
  5  7  2  0
  5  8  1  0
  8  9  2  0
  9 10  1  0
 10 11  2  0
 11 12  1  0
 12 13  2  0
  2 14  1  0
 14 15  1  0
 15 16  2  0
 16 17  1  0
 17 18  2  0
 18 19  1  0
 19 20  2  0
 20 21  1  0
 21 22  2  0
 21 23  1  0
 13  8  1  0
 20 15  1  0
M  CHG  3   4  -1  14  -1  23  -1
M  END
>  <UniqueID>  (23) 
28

>  <SMILES>  (23) 
O=C(C[N-]S(=O)(=O)c1ccccc1)[N-]c1ccccc1C(=O)[O-]

>  <Energy>  (23) 
39.17245769665974

>  <Genealogy>  (23) 
O=C(C[N-]S(=O)(=O)c1ccccc1)[N-]c1ccccc1C(=O)[O-] (protonated)
O=C(C[N-]S(=O)(=O)c1ccccc1)[N-]c1ccccc1C(=O)[O-] (3D coordinates assigned)
O=C(C[N-]S(=O)(=O)c1ccccc1)[N-]c1ccccc1C(=O)[O-] (optimized conformer: 39.17245769665974 kcal/mol)

>  <smiles>  (23) 
O=C(CNS(=O)(=O)c1ccccc1)Nc1ccccc1C(=O)O

>  <score_type>  (23) 
oracle

>  <origin>  (23) 
adg

>  <m_score__min__energy>  (23) 
-14.970000000000001

>  <m_primary>  (23) 
energy

$$$$
77:0
     RDKit          3D

 24 26  0  0  0  0  0  0  0  0999 V2000
   51.6070   23.7290   44.8650 C   0  0  0  0  0  0  0  0  0  0  0  0
   52.8990   24.3240   45.1820 N   0  0  0  0  0  0  0  0  0  0  0  0
   54.0460   23.5160   45.4860 C   0  0  0  0  0  0  0  0  0  0  0  0
   53.9110   22.2720   45.6410 O   0  0  0  0  0  0  0  0  0  0  0  0
   55.3820   24.1280   45.6630 C   0  0  0  0  0  0  0  0  0  0  0  0
   56.5230   23.3120   45.5780 C   0  0  0  0  0  0  0  0  0  0  0  0
   57.7950   23.8490   45.7740 C   0  0  0  0  0  0  0  0  0  0  0  0
   57.9480   25.2120   46.0300 C   0  0  0  0  0  0  0  0  0  0  0  0
   56.8330   26.0560   46.0650 C   0  0  0  0  0  0  0  0  0  0  0  0
   57.0420   27.4520   46.3190 N   0  0  0  0  0  0  0  0  0  0  0  0
   56.8430   28.5050   45.3680 C   0  0  0  0  0  0  0  0  0  0  0  0
   55.6960   28.9950   45.1840 O   0  0  0  0  0  0  0  0  0  0  0  0
   57.9860   28.9530   44.5170 C   0  0  0  0  0  0  0  0  0  0  0  0
   57.8690   30.4180   44.2320 C   0  0  0  0  0  0  0  0  0  0  0  0
   57.4490   30.9990   43.0390 C   0  0  0  0  0  0  0  0  0  0  0  0
   57.3880   32.3450   43.1650 N   0  0  0  0  0  0  0  0  0  0  0  0
   57.7550   32.6170   44.4300 C   0  0  0  0  0  0  0  0  0  0  0  0
   57.8280   33.8690   45.0380 C   0  0  0  0  0  0  0  0  0  0  0  0
   58.2170   33.9220   46.3890 C   0  0  0  0  0  0  0  0  0  0  0  0
   58.5160   32.7360   47.0950 C   0  0  0  0  0  0  0  0  0  0  0  0
   58.4320   31.4850   46.4560 C   0  0  0  0  0  0  0  0  0  0  0  0
   58.0500   31.4660   45.1140 C   0  0  0  0  0  0  0  0  0  0  0  0
   55.5410   25.5100   45.9040 C   0  0  0  0  0  0  0  0  0  0  0  0
   54.4240   26.3370   45.9880 O   0  0  0  0  0  0  0  0  0  0  0  0
  1  2  1  0
  2  3  1  0
  3  4  2  0
  3  5  1  0
  5  6  2  0
  6  7  1  0
  7  8  2  0
  8  9  1  0
  9 10  1  0
 10 11  1  0
 11 12  2  0
 11 13  1  0
 13 14  1  0
 14 15  2  0
 15 16  1  0
 16 17  1  0
 17 18  2  0
 18 19  1  0
 19 20  2  0
 20 21  1  0
 21 22  2  0
  9 23  2  0
 23 24  1  0
 23  5  1  0
 22 14  1  0
 22 17  1  0
M  CHG  2  10  -1  24  -1
M  END
>  <UniqueID>  (24) 
69

>  <SMILES>  (24) 
CNC(=O)c1cccc([N-]C(=O)Cc2c[nH]c3ccccc23)c1[O-]

>  <Energy>  (24) 
79.27903164728063

>  <Genealogy>  (24) 
CNC(=O)c1cccc([N-]C(=O)Cc2c[nH]c3ccccc23)c1[O-] (protonated)
CNC(=O)c1cccc([N-]C(=O)Cc2c[nH]c3ccccc23)c1[O-] (3D coordinates assigned)
CNC(=O)c1cccc([N-]C(=O)Cc2c[nH]c3ccccc23)c1[O-] (optimized conformer: 79.27903164728063 kcal/mol)

>  <smiles>  (24) 
CNC(=O)c1cccc(NC(=O)Cc2c[nH]c3ccccc23)c1O

>  <score_type>  (24) 
oracle

>  <origin>  (24) 
adg

>  <m_score__min__energy>  (24) 
-14.17

>  <m_primary>  (24) 
energy

$$$$
5:0
     RDKit          3D

 32 34  0  0  0  0  0  0  0  0999 V2000
   57.0170   34.2690   45.0190 C   0  0  0  0  0  0  0  0  0  0  0  0
   58.2540   33.9850   45.8190 C   0  0  0  0  0  0  0  0  0  0  0  0
   59.5280   34.1970   45.2700 C   0  0  0  0  0  0  0  0  0  0  0  0
   60.6740   33.8890   46.0080 C   0  0  0  0  0  0  0  0  0  0  0  0
   60.5610   33.3690   47.3050 C   0  0  0  0  0  0  0  0  0  0  0  0
   61.9990   32.9390   48.2290 S   0  0  0  0  0  0  0  0  0  0  0  0
   62.0030   33.6910   49.5300 O   0  0  0  0  0  0  0  0  0  0  0  0
   63.2290   33.3100   47.4490 O   0  0  0  0  0  0  0  0  0  0  0  0
   62.0300   31.2340   48.5340 N   0  0  0  0  0  0  0  0  0  0  0  0
   60.8700   30.4540   48.4000 N   0  0  0  0  0  0  0  0  0  0  0  0
   60.1750   30.0600   49.5150 C   0  0  0  0  0  0  0  0  0  0  0  0
   60.6380   30.4440   50.8940 C   0  0  0  0  0  0  0  0  0  0  0  0
   58.9750   29.3510   49.3710 C   0  0  0  0  0  0  0  0  0  0  0  0
   58.5210   29.0100   48.1020 C   0  0  0  0  0  0  0  0  0  0  0  0
   59.2620   29.3670   46.9700 C   0  0  0  0  0  0  0  0  0  0  0  0
   58.7710   28.9780   45.5950 C   0  0  0  0  0  0  0  0  0  0  0  0
   57.2940   29.1950   45.4480 C   0  0  0  0  0  0  0  0  0  0  0  0
   56.8380   30.3520   45.2420 O   0  0  0  0  0  0  0  0  0  0  0  0
   56.4060   28.0860   45.6090 N   0  0  0  0  0  0  0  0  0  0  0  0
   56.8570   26.7170   45.8360 C   0  0  0  0  0  0  0  0  0  0  0  0
   55.6910   25.7890   45.9940 C   0  0  0  0  0  0  0  0  0  0  0  0
   54.5240   26.2680   45.9960 O   0  0  0  0  0  0  0  0  0  0  0  0
   55.9170   24.3850   46.1930 N   0  0  0  0  0  0  0  0  0  0  0  0
   56.3260   23.5380   45.2960 C   0  0  0  0  0  0  0  0  0  0  0  0
   55.5660   23.0760   44.2780 N   0  0  0  0  0  0  0  0  0  0  0  0
   56.2600   22.2100   43.4940 C   0  0  0  0  0  0  0  0  0  0  0  0
   57.5740   21.9780   43.8890 C   0  0  0  0  0  0  0  0  0  0  0  0
   57.8750   22.8930   45.2700 S   0  0  0  0  0  0  0  0  0  0  0  0
   60.4500   30.1030   47.1440 C   0  0  0  0  0  0  0  0  0  0  0  0
   61.1280   30.4460   46.1370 O   0  0  0  0  0  0  0  0  0  0  0  0
   59.2880   33.1810   47.8630 C   0  0  0  0  0  0  0  0  0  0  0  0
   58.1420   33.4790   47.1210 C   0  0  0  0  0  0  0  0  0  0  0  0
  1  2  1  0
  2  3  2  0
  3  4  1  0
  4  5  2  0
  5  6  1  0
  6  7  2  0
  6  8  2  0
  6  9  1  0
  9 10  1  0
 10 11  1  0
 11 12  1  0
 11 13  2  0
 13 14  1  0
 14 15  2  0
 15 16  1  0
 16 17  1  0
 17 18  2  0
 17 19  1  0
 19 20  1  0
 20 21  1  0
 21 22  2  0
 21 23  1  0
 23 24  2  3
 24 25  1  0
 25 26  1  0
 26 27  2  0
 27 28  1  0
 15 29  1  0
 29 30  2  0
  5 31  1  0
 31 32  2  0
 32  2  1  0
 29 10  1  0
 28 24  1  0
M  CHG  3   9  -1  19  -1  25  -1
M  END
>  <UniqueID>  (25) 
5

>  <SMILES>  (25) 
Cc1ccc(S(=O)(=O)[N-]n2c(C)ccc(CC(=O)[N-]CC(=O)N=c3[n-]ccs3)c2=O)cc1

>  <Energy>  (25) 
84.32537662806081

>  <Genealogy>  (25) 
Cc1ccc(S(=O)(=O)[N-]n2c(C)ccc(CC(=O)[N-]CC(=O)N=c3[n-]ccs3)c2=O)cc1 (protonated)
Cc1ccc(S(=O)(=O)[N-]n2c(C)ccc(CC(=O)[N-]CC(=O)N=c3[n-]ccs3)c2=O)cc1 (3D coordinates assigned)
Cc1ccc(S(=O)(=O)[N-]n2c(C)ccc(CC(=O)[N-]CC(=O)N=c3[n-]ccs3)c2=O)cc1 (optimized conformer: 84.32537662806081 kcal/mol)

>  <smiles>  (25) 
Cc1ccc(S(=O)(=O)Nn2c(C)ccc(CC(=O)NCC(=O)N=c3[nH]ccs3)c2=O)cc1

>  <score_type>  (25) 
oracle

>  <origin>  (25) 
adg

>  <m_score__min__energy>  (25) 
-14.390000000000001

>  <m_primary>  (25) 
energy

$$$$
35:0
     RDKit          3D

 31 35  0  0  0  0  0  0  0  0999 V2000
   53.5480   31.2430   51.2480 C   0  0  0  0  0  0  0  0  0  0  0  0
   52.2980   31.7390   51.8490 C   0  0  0  0  0  0  0  0  0  0  0  0
   51.8540   31.3460   53.0560 N   0  0  0  0  0  0  0  0  0  0  0  0
   50.6630   31.9720   53.1720 C   0  0  0  0  0  0  0  0  0  0  0  0
   49.9360   31.8600   54.1930 O   0  0  0  0  0  0  0  0  0  0  0  0
   50.3090   32.7190   52.1050 N   0  0  0  0  0  0  0  0  0  0  0  0
   51.3480   32.5540   51.2700 C   0  0  0  0  0  0  0  0  0  0  0  0
   51.3970   33.0920   49.9910 O   0  0  0  0  0  0  0  0  0  0  0  0
   54.4100   30.4310   51.8750 C   0  0  0  0  0  0  0  0  0  0  0  0
   54.2210   29.1290   52.3410 C   0  0  0  0  0  0  0  0  0  0  0  0
   55.3740   28.6610   52.8740 N   0  0  0  0  0  0  0  0  0  0  0  0
   56.2780   29.6220   52.7560 N   0  0  0  0  0  0  0  0  0  0  0  0
   57.5880   29.6210   53.1360 C   0  0  0  0  0  0  0  0  0  0  0  0
   58.1630   28.6070   53.7170 N   0  0  0  0  0  0  0  0  0  0  0  0
   59.5910   28.3080   53.7320 C   0  0  0  0  0  0  0  0  0  0  0  0
   60.1900   28.2660   52.3390 C   0  0  0  0  0  0  0  0  0  0  0  0
   59.9490   26.9740   53.1040 C   0  0  0  0  0  0  0  0  0  0  0  0
   58.3220   30.7410   52.8850 N   0  0  0  0  0  0  0  0  0  0  0  0
   57.7610   31.8310   52.2720 C   0  0  0  0  0  0  0  0  0  0  0  0
   58.4650   32.8960   52.0360 N   0  0  0  0  0  0  0  0  0  0  0  0
   59.6570   32.9190   51.1930 C   0  0  0  0  0  0  0  0  0  0  0  0
   59.2480   33.1120   49.7610 C   0  0  0  0  0  0  0  0  0  0  0  0
   58.5120   32.1190   49.0960 C   0  0  0  0  0  0  0  0  0  0  0  0
   58.1610   32.2840   47.7530 C   0  0  0  0  0  0  0  0  0  0  0  0
   58.5480   33.4310   47.0510 C   0  0  0  0  0  0  0  0  0  0  0  0
   58.1710   33.5490   45.7050 O   0  0  0  0  0  0  0  0  0  0  0  0
   57.0300   34.2680   45.2500 C   0  0  0  0  0  0  0  0  0  0  0  0
   59.3000   34.4210   47.7140 C   0  0  0  0  0  0  0  0  0  0  0  0
   59.6510   34.2570   49.0570 C   0  0  0  0  0  0  0  0  0  0  0  0
   56.4500   31.8050   51.9020 N   0  0  0  0  0  0  0  0  0  0  0  0
   55.7330   30.6840   52.1580 C   0  0  0  0  0  0  0  0  0  0  0  0
  1  2  1  0
  2  3  1  0
  3  4  1  0
  4  5  2  0
  4  6  1  0
  6  7  1  0
  7  8  1  0
  1  9  2  0
  9 10  1  0
 10 11  2  0
 11 12  1  0
 12 13  1  0
 13 14  2  3
 14 15  1  0
 15 16  1  0
 16 17  1  0
 13 18  1  0
 18 19  1  0
 19 20  2  0
 20 21  1  0
 21 22  1  0
 22 23  2  0
 23 24  1  0
 24 25  2  0
 25 26  1  0
 26 27  1  0
 25 28  1  0
 28 29  2  0
 19 30  1  0
 30 31  2  0
  7  2  2  0
 31  9  1  0
 31 12  1  0
 17 15  1  0
 29 22  1  0
M  CHG  4   3  -1   6  -1   8  -1  18  -1
M  END
>  <UniqueID>  (26) 
32

>  <SMILES>  (26) 
COc1ccc(C/N=c2/nc3/c(=C/c4[n-]c(=O)[n-]c4[O-])cnn3c(=NC3CC3)[n-]2)cc1

>  <Energy>  (26) 
391.20855398245027

>  <Genealogy>  (26) 
COc1ccc(CN=c2nc3c(=Cc4[n-]c(=O)[n-]c4[O-])cnn3c(=NC3CC3)[n-]2)cc1 (protonated)
COc1ccc(C/N=c2/nc3/c(=C/c4[n-]c(=O)[n-]c4[O-])cnn3c(=NC3CC3)[n-]2)cc1 (cis-trans isomerization)
COc1ccc(C/N=c2/nc3/c(=C/c4[n-]c(=O)[n-]c4[O-])cnn3c(=NC3CC3)[n-]2)cc1 (3D coordinates assigned)
COc1ccc(C/N=c2/nc3/c(=C/c4[n-]c(=O)[n-]c4[O-])cnn3c(=NC3CC3)[n-]2)cc1 (nonaromatic ring conformer: 391.20855398245027 kcal/mol)

>  <smiles>  (26) 
COc1ccc(CN=c2nc3c(=Cc4[nH]c(=O)[nH]c4O)cnn3c(=NC3CC3)[nH]2)cc1

>  <score_type>  (26) 
oracle

>  <origin>  (26) 
adg

>  <m_score__min__energy>  (26) 
-17.780000000000001

>  <m_primary>  (26) 
energy

$$$$
1:0
     RDKit          3D

 28 30  0  0  0  0  0  0  0  0999 V2000
   54.9450   26.2310   45.9990 N   0  0  0  0  0  0  0  0  0  0  0  0
   56.6410   25.9080   46.0550 S   0  0  0  0  0  0  0  0  0  0  0  0
   57.0460   25.5840   47.4650 O   0  0  0  0  0  0  0  0  0  0  0  0
   56.9510   24.7290   45.1780 O   0  0  0  0  0  0  0  0  0  0  0  0
   57.5270   27.3210   45.4930 C   0  0  0  0  0  0  0  0  0  0  0  0
   58.8290   27.1860   44.9960 C   0  0  0  0  0  0  0  0  0  0  0  0
   59.5190   28.3090   44.5300 C   0  0  0  0  0  0  0  0  0  0  0  0
   58.9170   29.5690   44.5660 C   0  0  0  0  0  0  0  0  0  0  0  0
   57.6120   29.7190   45.0680 C   0  0  0  0  0  0  0  0  0  0  0  0
   56.9400   30.9880   45.1200 N   0  0  0  0  0  0  0  0  0  0  0  0
   57.6340   32.5630   44.8810 S   0  0  0  0  0  0  0  0  0  0  0  0
   58.0590   32.7540   43.4520 O   0  0  0  0  0  0  0  0  0  0  0  0
   56.5780   33.5890   45.1830 O   0  0  0  0  0  0  0  0  0  0  0  0
   59.0030   32.7980   45.9690 C   0  0  0  0  0  0  0  0  0  0  0  0
   59.2840   31.8570   46.9680 C   0  0  0  0  0  0  0  0  0  0  0  0
   60.3670   32.0440   47.8300 C   0  0  0  0  0  0  0  0  0  0  0  0
   61.1900   33.1740   47.7000 C   0  0  0  0  0  0  0  0  0  0  0  0
   62.3090   33.3610   48.5880 N   0  0  0  0  0  0  0  0  0  0  0  0
   62.1040   33.8730   49.9200 C   0  0  0  0  0  0  0  0  0  0  0  0
   60.9440   34.1660   50.3220 O   0  0  0  0  0  0  0  0  0  0  0  0
   63.2690   34.0970   50.8370 C   0  0  0  0  0  0  0  0  0  0  0  0
   64.3670   33.0700   50.5590 C   0  0  0  0  0  0  0  0  0  0  0  0
   64.8110   33.1230   49.0960 C   0  0  0  0  0  0  0  0  0  0  0  0
   63.6400   32.9990   48.1620 C   0  0  0  0  0  0  0  0  0  0  0  0
   63.8500   32.6430   46.9710 O   0  0  0  0  0  0  0  0  0  0  0  0
   60.9090   34.1150   46.6980 C   0  0  0  0  0  0  0  0  0  0  0  0
   59.8200   33.9300   45.8420 C   0  0  0  0  0  0  0  0  0  0  0  0
   56.9230   28.5870   45.5210 C   0  0  0  0  0  0  0  0  0  0  0  0
  1  2  1  0
  2  3  2  0
  2  4  2  0
  2  5  1  0
  5  6  2  0
  6  7  1  0
  7  8  2  0
  8  9  1  0
  9 10  1  0
 10 11  1  0
 11 12  2  0
 11 13  2  0
 11 14  1  0
 14 15  2  0
 15 16  1  0
 16 17  2  0
 17 18  1  0
 18 19  1  0
 19 20  2  0
 19 21  1  0
 21 22  1  0
 22 23  1  0
 23 24  1  0
 24 25  2  0
 17 26  1  0
 26 27  2  0
  9 28  2  0
 28  5  1  0
 27 14  1  0
 24 18  1  0
M  CHG  2   1  -1  10  -1
M  END
>  <UniqueID>  (27) 
1

>  <SMILES>  (27) 
[NH-]S(=O)(=O)c1cccc([N-]S(=O)(=O)c2ccc(N3C(=O)CCCC3=O)cc2)c1

>  <Energy>  (27) 
53.88909786786279

>  <Genealogy>  (27) 
[NH-]S(=O)(=O)c1cccc([N-]S(=O)(=O)c2ccc(N3C(=O)CCCC3=O)cc2)c1 (protonated)
[NH-]S(=O)(=O)c1cccc([N-]S(=O)(=O)c2ccc(N3C(=O)CCCC3=O)cc2)c1 (3D coordinates assigned)
[NH-]S(=O)(=O)c1cccc([N-]S(=O)(=O)c2ccc(N3C(=O)CCCC3=O)cc2)c1 (nonaromatic ring conformer: 53.88909786786279 kcal/mol)

>  <smiles>  (27) 
NS(=O)(=O)c1cccc(NS(=O)(=O)c2ccc(N3C(=O)CCCC3=O)cc2)c1

>  <score_type>  (27) 
oracle

>  <origin>  (27) 
adg

>  <m_score__min__energy>  (27) 
-14.06

>  <m_primary>  (27) 
energy

$$$$
68:0
     RDKit          3D

 26 28  0  0  0  0  0  0  0  0999 V2000
   55.0310   29.3820   44.3910 N   0  0  0  0  0  0  0  0  0  0  0  0
   56.5310   29.7980   43.6420 S   0  0  0  0  0  0  0  0  0  0  0  0
   57.2960   28.5450   43.3220 O   0  0  0  0  0  0  0  0  0  0  0  0
   56.2600   30.5400   42.3630 O   0  0  0  0  0  0  0  0  0  0  0  0
   57.4740   30.8010   44.7400 C   0  0  0  0  0  0  0  0  0  0  0  0
   57.8270   32.1100   44.3840 C   0  0  0  0  0  0  0  0  0  0  0  0
   58.5780   32.8950   45.2620 C   0  0  0  0  0  0  0  0  0  0  0  0
   58.9650   32.3850   46.5040 C   0  0  0  0  0  0  0  0  0  0  0  0
   58.5870   31.0920   46.8870 C   0  0  0  0  0  0  0  0  0  0  0  0
   59.0100   30.5930   48.1630 N   0  0  0  0  0  0  0  0  0  0  0  0
   58.8890   29.2450   48.6380 C   0  0  0  0  0  0  0  0  0  0  0  0
   58.6590   29.0500   49.8600 O   0  0  0  0  0  0  0  0  0  0  0  0
   59.0020   28.0650   47.7180 C   0  0  0  0  0  0  0  0  0  0  0  0
   57.7030   27.5860   47.3890 O   0  0  0  0  0  0  0  0  0  0  0  0
   57.4850   26.4800   46.5850 N   0  0  0  0  0  0  0  0  0  0  0  0
   58.4200   25.5570   46.2910 C   0  0  0  0  0  0  0  0  0  0  0  0
   59.7280   25.5940   46.7570 O   0  0  0  0  0  0  0  0  0  0  0  0
   57.8880   24.5830   45.4690 C   0  0  0  0  0  0  0  0  0  0  0  0
   56.5750   24.9260   45.2540 C   0  0  0  0  0  0  0  0  0  0  0  0
   56.3510   26.0980   45.9510 C   0  0  0  0  0  0  0  0  0  0  0  0
   55.1430   26.7820   45.9930 O   0  0  0  0  0  0  0  0  0  0  0  0
   55.6290   24.1370   44.4090 C   0  0  0  0  0  0  0  0  0  0  0  0
   56.2920   22.9020   43.8270 C   0  0  0  0  0  0  0  0  0  0  0  0
   57.5840   22.5660   44.0370 C   0  0  0  0  0  0  0  0  0  0  0  0
   58.5460   23.3760   44.8850 C   0  0  0  0  0  0  0  0  0  0  0  0
   57.8610   30.2920   45.9860 C   0  0  0  0  0  0  0  0  0  0  0  0
  1  2  1  0
  2  3  2  0
  2  4  2  0
  2  5  1  0
  5  6  2  0
  6  7  1  0
  7  8  2  0
  8  9  1  0
  9 10  1  0
 10 11  1  0
 11 12  2  0
 11 13  1  0
 13 14  1  0
 14 15  1  0
 15 16  1  0
 16 17  1  0
 16 18  2  0
 18 19  1  0
 19 20  2  0
 20 21  1  0
 19 22  1  0
 22 23  1  0
 23 24  2  0
 24 25  1  0
  9 26  2  0
 26  5  1  0
 20 15  1  0
 25 18  1  0
M  CHG  4   1  -1  10  -1  17  -1  21  -1
M  END
>  <UniqueID>  (28) 
63

>  <SMILES>  (28) 
[NH-]S(=O)(=O)c1cccc([N-]C(=O)COn2c([O-])c3c(c2[O-])CC=CC3)c1

>  <Energy>  (28) 
77.35747972568913

>  <Genealogy>  (28) 
[NH-]S(=O)(=O)c1cccc([N-]C(=O)COn2c([O-])c3c(c2[O-])CC=CC3)c1 (protonated)
[NH-]S(=O)(=O)c1cccc([N-]C(=O)COn2c([O-])c3c(c2[O-])CC=CC3)c1 (3D coordinates assigned)
[NH-]S(=O)(=O)c1cccc([N-]C(=O)COn2c([O-])c3c(c2[O-])CC=CC3)c1 (nonaromatic ring conformer: 77.35747972568913 kcal/mol)

>  <smiles>  (28) 
NS(=O)(=O)c1cccc(NC(=O)COn2c(O)c3c(c2O)CC=CC3)c1

>  <score_type>  (28) 
oracle

>  <origin>  (28) 
adg

>  <m_score__min__energy>  (28) 
-15.91

>  <m_primary>  (28) 
energy

$$$$
43:0
     RDKit          3D

 30 32  0  0  0  0  0  0  0  0999 V2000
   54.9790   26.2710   45.9790 N   0  0  0  0  0  0  0  0  0  0  0  0
   56.6720   25.9330   46.0660 S   0  0  0  0  0  0  0  0  0  0  0  0
   57.0480   25.6390   47.4920 O   0  0  0  0  0  0  0  0  0  0  0  0
   56.9890   24.7280   45.2250 O   0  0  0  0  0  0  0  0  0  0  0  0
   57.5780   27.3220   45.4780 C   0  0  0  0  0  0  0  0  0  0  0  0
   58.8610   27.1560   44.9380 C   0  0  0  0  0  0  0  0  0  0  0  0
   59.5750   28.2640   44.4750 C   0  0  0  0  0  0  0  0  0  0  0  0
   59.0210   29.5440   44.5620 C   0  0  0  0  0  0  0  0  0  0  0  0
   57.7470   29.7270   45.1310 C   0  0  0  0  0  0  0  0  0  0  0  0
   57.1340   31.0210   45.2280 N   0  0  0  0  0  0  0  0  0  0  0  0
   57.7180   32.2730   44.8470 C   0  0  0  0  0  0  0  0  0  0  0  0
   57.2860   32.9130   43.8510 O   0  0  0  0  0  0  0  0  0  0  0  0
   58.8770   32.8050   45.6220 C   0  0  0  0  0  0  0  0  0  0  0  0
   58.4570   33.0830   46.9900 N   0  0  0  0  0  0  0  0  0  0  0  0
   59.3040   33.6260   48.0100 C   0  0  0  0  0  0  0  0  0  0  0  0
   59.3020   34.8740   48.1880 O   0  0  0  0  0  0  0  0  0  0  0  0
   60.2250   32.7400   48.8300 C   0  0  0  0  0  0  0  0  0  0  0  0
   61.6930   32.9850   48.5160 C   0  0  0  0  0  0  0  0  0  0  0  0
   62.6940   32.7650   49.4840 C   0  0  0  0  0  0  0  0  0  0  0  0
   64.0390   32.9920   49.1770 C   0  0  0  0  0  0  0  0  0  0  0  0
   64.4020   33.4360   47.9040 C   0  0  0  0  0  0  0  0  0  0  0  0
   63.4220   33.6510   46.9330 C   0  0  0  0  0  0  0  0  0  0  0  0
   62.0750   33.4250   47.2340 C   0  0  0  0  0  0  0  0  0  0  0  0
   59.8840   31.2640   48.7040 C   0  0  0  0  0  0  0  0  0  0  0  0
   58.9390   30.7000   49.5800 C   0  0  0  0  0  0  0  0  0  0  0  0
   58.6260   29.3390   49.5080 C   0  0  0  0  0  0  0  0  0  0  0  0
   59.2600   28.5240   48.5680 C   0  0  0  0  0  0  0  0  0  0  0  0
   60.2110   29.0660   47.7010 C   0  0  0  0  0  0  0  0  0  0  0  0
   60.5280   30.4260   47.7700 C   0  0  0  0  0  0  0  0  0  0  0  0
   57.0270   28.6070   45.5700 C   0  0  0  0  0  0  0  0  0  0  0  0
  1  2  1  0
  2  3  2  0
  2  4  2  0
  2  5  1  0
  5  6  2  0
  6  7  1  0
  7  8  2  0
  8  9  1  0
  9 10  1  0
 10 11  1  0
 11 12  2  0
 11 13  1  0
 13 14  1  0
 14 15  1  0
 15 16  2  0
 15 17  1  0
 17 18  1  0
 18 19  2  0
 19 20  1  0
 20 21  2  0
 21 22  1  0
 22 23  2  0
 17 24  1  0
 24 25  2  0
 25 26  1  0
 26 27  2  0
 27 28  1  0
 28 29  2  0
  9 30  2  0
 30  5  1  0
 23 18  1  0
 29 24  1  0
M  CHG  3   1  -1  10  -1  14  -1
M  END
>  <UniqueID>  (29) 
40

>  <SMILES>  (29) 
[NH-]S(=O)(=O)c1cccc([N-]C(=O)C[N-]C(=O)C(c2ccccc2)c2ccccc2)c1

>  <Energy>  (29) 
53.326647738065155

>  <Genealogy>  (29) 
[NH-]S(=O)(=O)c1cccc([N-]C(=O)C[N-]C(=O)C(c2ccccc2)c2ccccc2)c1 (protonated)
[NH-]S(=O)(=O)c1cccc([N-]C(=O)C[N-]C(=O)C(c2ccccc2)c2ccccc2)c1 (3D coordinates assigned)
[NH-]S(=O)(=O)c1cccc([N-]C(=O)C[N-]C(=O)C(c2ccccc2)c2ccccc2)c1 (optimized conformer: 53.326647738065155 kcal/mol)

>  <smiles>  (29) 
NS(=O)(=O)c1cccc(NC(=O)CNC(=O)C(c2ccccc2)c2ccccc2)c1

>  <score_type>  (29) 
oracle

>  <origin>  (29) 
adg

>  <m_score__min__energy>  (29) 
-14.41

>  <m_primary>  (29) 
energy

$$$$
54:0
     RDKit          3D

 27 29  0  0  0  0  0  0  0  0999 V2000
   59.2820   35.2500   45.1400 C   0  0  0  0  0  0  0  0  0  0  0  0
   57.8880   34.1460   45.2130 S   0  0  0  0  0  0  0  0  0  0  0  0
   56.6230   34.8730   44.8480 O   0  0  0  0  0  0  0  0  0  0  0  0
   57.7580   33.6240   46.6150 O   0  0  0  0  0  0  0  0  0  0  0  0
   58.1300   32.8050   44.1400 N   0  0  0  0  0  0  0  0  0  0  0  0
   57.8190   31.4350   44.4310 C   0  0  0  0  0  0  0  0  0  0  0  0
   56.8400   30.7860   43.6400 C   0  0  0  0  0  0  0  0  0  0  0  0
   56.4880   29.4460   43.8820 C   0  0  0  0  0  0  0  0  0  0  0  0
   57.1330   28.7810   44.9210 C   0  0  0  0  0  0  0  0  0  0  0  0
   56.9490   27.5110   45.3150 N   0  0  0  0  0  0  0  0  0  0  0  0
   57.7910   27.3260   46.3610 C   0  0  0  0  0  0  0  0  0  0  0  0
   57.9160   26.0460   47.0850 C   0  0  0  0  0  0  0  0  0  0  0  0
   58.8320   25.9100   47.9370 O   0  0  0  0  0  0  0  0  0  0  0  0
   56.9900   24.9680   46.8910 N   0  0  0  0  0  0  0  0  0  0  0  0
   56.8530   24.1700   45.7030 C   0  0  0  0  0  0  0  0  0  0  0  0
   57.9360   23.3900   45.2560 C   0  0  0  0  0  0  0  0  0  0  0  0
   57.8200   22.5990   44.1140 C   0  0  0  0  0  0  0  0  0  0  0  0
   56.6190   22.5620   43.4120 C   0  0  0  0  0  0  0  0  0  0  0  0
   56.5090   21.7910   42.3020 F   0  0  0  0  0  0  0  0  0  0  0  0
   55.5260   23.3090   43.8530 C   0  0  0  0  0  0  0  0  0  0  0  0
   55.6160   24.1170   45.0050 C   0  0  0  0  0  0  0  0  0  0  0  0
   54.4150   24.8920   45.4330 C   0  0  0  0  0  0  0  0  0  0  0  0
   54.5250   26.2210   45.9390 N   0  0  0  0  0  0  0  0  0  0  0  0
   53.2690   24.3720   45.3510 O   0  0  0  0  0  0  0  0  0  0  0  0
   58.5270   28.4830   46.6160 C   0  0  0  0  0  0  0  0  0  0  0  0
   58.0830   29.4000   45.6880 C   0  0  0  0  0  0  0  0  0  0  0  0
   58.4580   30.7240   45.4750 C   0  0  0  0  0  0  0  0  0  0  0  0
  1  2  1  0
  2  3  2  0
  2  4  2  0
  2  5  1  0
  5  6  1  0
  6  7  2  0
  7  8  1  0
  8  9  2  0
  9 10  1  0
 10 11  1  0
 11 12  1  0
 12 13  2  0
 12 14  1  0
 14 15  1  0
 15 16  2  0
 16 17  1  0
 17 18  2  0
 18 19  1  0
 18 20  1  0
 20 21  2  0
 21 22  1  0
 22 23  1  0
 22 24  2  0
 11 25  2  0
 25 26  1  0
 26 27  2  0
 27  6  1  0
 26  9  1  0
 21 15  1  0
M  CHG  3   5  -1  14  -1  23  -1
M  END
>  <UniqueID>  (30) 
53

>  <SMILES>  (30) 
CS(=O)(=O)[N-]c1ccc2[nH]c(C(=O)[N-]c3ccc(F)cc3C([NH-])=O)cc2c1

>  <Energy>  (30) 
81.11197547070087

>  <Genealogy>  (30) 
CS(=O)(=O)[N-]c1ccc2[nH]c(C(=O)[N-]c3ccc(F)cc3C([NH-])=O)cc2c1 (protonated)
CS(=O)(=O)[N-]c1ccc2[nH]c(C(=O)[N-]c3ccc(F)cc3C([NH-])=O)cc2c1 (3D coordinates assigned)
CS(=O)(=O)[N-]c1ccc2[nH]c(C(=O)[N-]c3ccc(F)cc3C([NH-])=O)cc2c1 (optimized conformer: 81.11197547070087 kcal/mol)

>  <smiles>  (30) 
CS(=O)(=O)Nc1ccc2[nH]c(C(=O)Nc3ccc(F)cc3C(N)=O)cc2c1

>  <score_type>  (30) 
oracle

>  <origin>  (30) 
adg

>  <m_score__min__energy>  (30) 
-14.289999999999999

>  <m_primary>  (30) 
energy

$$$$
59:0
     RDKit          3D

 31 35  0  0  0  0  0  0  0  0999 V2000
   59.3750   34.4010   48.0400 C   0  0  0  0  0  0  0  0  0  0  0  0
   58.9560   33.7850   47.0930 C   0  0  0  0  0  0  0  0  0  0  0  0
   58.4550   33.0460   45.9630 C   0  0  0  0  0  0  0  0  0  0  0  0
   57.9660   31.7440   46.1420 C   0  0  0  0  0  0  0  0  0  0  0  0
   57.4540   31.0250   45.0520 C   0  0  0  0  0  0  0  0  0  0  0  0
   56.8570   29.7370   45.2410 N   0  0  0  0  0  0  0  0  0  0  0  0
   57.4890   28.6530   45.5790 C   0  0  0  0  0  0  0  0  0  0  0  0
   57.1280   27.4370   45.0750 N   0  0  0  0  0  0  0  0  0  0  0  0
   57.8020   26.3410   45.4980 C   0  0  0  0  0  0  0  0  0  0  0  0
   57.5550   25.0100   45.2060 C   0  0  0  0  0  0  0  0  0  0  0  0
   56.6140   24.4440   44.4400 C   0  0  0  0  0  0  0  0  0  0  0  0
   55.2300   24.2160   44.8720 C   0  0  0  0  0  0  0  0  0  0  0  0
   54.5090   23.1390   44.5120 N   0  0  0  0  0  0  0  0  0  0  0  0
   53.2860   23.4000   45.0200 C   0  0  0  0  0  0  0  0  0  0  0  0
   52.3180   22.6040   44.9030 O   0  0  0  0  0  0  0  0  0  0  0  0
   53.1770   24.5870   45.6530 N   0  0  0  0  0  0  0  0  0  0  0  0
   54.4140   25.0980   45.5450 C   0  0  0  0  0  0  0  0  0  0  0  0
   54.7700   26.3560   46.0230 O   0  0  0  0  0  0  0  0  0  0  0  0
   58.4810   24.3290   45.9820 C   0  0  0  0  0  0  0  0  0  0  0  0
   59.2180   25.2090   46.6930 N   0  0  0  0  0  0  0  0  0  0  0  0
   58.8010   26.4280   46.3930 N   0  0  0  0  0  0  0  0  0  0  0  0
   59.1840   27.6380   46.9100 C   0  0  0  0  0  0  0  0  0  0  0  0
   60.1530   27.8370   47.7720 N   0  0  0  0  0  0  0  0  0  0  0  0
   60.6720   28.8230   48.7420 C   0  0  0  0  0  0  0  0  0  0  0  0
   60.8070   30.2550   48.2780 C   0  0  0  0  0  0  0  0  0  0  0  0
   59.7080   29.8570   49.2800 C   0  0  0  0  0  0  0  0  0  0  0  0
   58.4990   28.7370   46.4900 N   0  0  0  0  0  0  0  0  0  0  0  0
   57.4090   31.6250   43.7880 C   0  0  0  0  0  0  0  0  0  0  0  0
   57.9170   32.9150   43.6020 C   0  0  0  0  0  0  0  0  0  0  0  0
   58.4420   33.6260   44.6860 C   0  0  0  0  0  0  0  0  0  0  0  0
   58.9200   34.8820   44.4920 F   0  0  0  0  0  0  0  0  0  0  0  0
  1  2  3  0
  2  3  1  0
  3  4  2  0
  4  5  1  0
  5  6  1  0
  6  7  2  3
  7  8  1  0
  8  9  2  0
  9 10  1  0
 10 11  2  3
 11 12  1  0
 12 13  1  0
 13 14  1  0
 14 15  2  0
 14 16  1  0
 16 17  1  0
 17 18  1  0
 10 19  1  0
 19 20  2  0
 20 21  1  0
 21 22  1  0
 22 23  2  0
 23 24  1  0
 24 25  1  0
 25 26  1  0
 22 27  1  0
  5 28  2  0
 28 29  1  0
 29 30  2  0
 30 31  1  0
 30  3  1  0
 27  7  1  0
 21  9  1  0
 26 24  1  0
 17 12  2  0
M  CHG  3  13  -1  16  -1  27  -1
M  END
>  <UniqueID>  (31) 
57

>  <SMILES>  (31) 
C#Cc1cc(N=c2nc3c(=Cc4[n-]c(=O)[n-]c4O)cnn3/c(=N\C3CC3)[n-]2)ccc1F

>  <Energy>  (31) 
417.4179179320141

>  <Genealogy>  (31) 
C#Cc1cc(N=c2nc3c(=Cc4[n-]c(=O)[n-]c4O)cnn3c(=NC3CC3)[n-]2)ccc1F (protonated)
C#Cc1cc(N=c2nc3c(=Cc4[n-]c(=O)[n-]c4O)cnn3/c(=N\C3CC3)[n-]2)ccc1F (cis-trans isomerization)
C#Cc1cc(N=c2nc3c(=Cc4[n-]c(=O)[n-]c4O)cnn3/c(=N\C3CC3)[n-]2)ccc1F (3D coordinates assigned)
C#Cc1cc(N=c2nc3c(=Cc4[n-]c(=O)[n-]c4O)cnn3/c(=N\C3CC3)[n-]2)ccc1F (nonaromatic ring conformer: 417.4179179320141 kcal/mol)

>  <smiles>  (31) 
C#Cc1cc(N=c2nc3c(=Cc4[nH]c(=O)[nH]c4O)cnn3c(=NC3CC3)[nH]2)ccc1F

>  <score_type>  (31) 
oracle

>  <origin>  (31) 
adg

>  <m_score__min__energy>  (31) 
-14.609999999999999

>  <m_primary>  (31) 
energy

$$$$
25:0
     RDKit          3D

 26 27  0  0  0  0  0  0  0  0999 V2000
   58.5020   31.5240   47.6130 C   0  0  0  0  0  0  0  0  0  0  0  0
   58.7150   32.7540   46.7740 C   0  0  0  0  0  0  0  0  0  0  0  0
   59.7240   33.6710   47.1120 C   0  0  0  0  0  0  0  0  0  0  0  0
   59.9350   34.8080   46.3300 C   0  0  0  0  0  0  0  0  0  0  0  0
   59.1370   35.0460   45.2090 C   0  0  0  0  0  0  0  0  0  0  0  0
   58.1340   34.1400   44.8610 C   0  0  0  0  0  0  0  0  0  0  0  0
   57.9290   32.9800   45.6250 C   0  0  0  0  0  0  0  0  0  0  0  0
   56.8960   32.0570   45.2700 N   0  0  0  0  0  0  0  0  0  0  0  0
   57.1380   30.7690   44.1360 S   0  0  0  0  0  0  0  0  0  0  0  0
   55.8690   30.5480   43.3620 O   0  0  0  0  0  0  0  0  0  0  0  0
   58.2210   31.1630   43.1720 O   0  0  0  0  0  0  0  0  0  0  0  0
   57.6110   29.2790   44.9490 C   0  0  0  0  0  0  0  0  0  0  0  0
   58.9590   29.0360   45.2400 C   0  0  0  0  0  0  0  0  0  0  0  0
   59.3390   27.8390   45.8500 C   0  0  0  0  0  0  0  0  0  0  0  0
   58.3780   26.8760   46.1680 C   0  0  0  0  0  0  0  0  0  0  0  0
   57.0200   27.1010   45.8770 C   0  0  0  0  0  0  0  0  0  0  0  0
   56.0000   26.0750   46.1940 C   0  0  0  0  0  0  0  0  0  0  0  0
   54.7800   26.3100   45.9830 O   0  0  0  0  0  0  0  0  0  0  0  0
   56.3990   24.8080   46.7350 N   0  0  0  0  0  0  0  0  0  0  0  0
   57.2470   23.8460   46.0380 C   0  0  0  0  0  0  0  0  0  0  0  0
   56.9830   23.8790   44.5300 C   0  0  0  0  0  0  0  0  0  0  0  0
   55.5670   22.8950   44.0560 S   0  0  0  0  0  0  0  0  0  0  0  0
   54.1660   23.3960   44.9350 N   0  0  0  0  0  0  0  0  0  0  0  0
   55.8490   21.4510   44.3600 O   0  0  0  0  0  0  0  0  0  0  0  0
   55.3120   23.0420   42.5820 O   0  0  0  0  0  0  0  0  0  0  0  0
   56.6460   28.3130   45.2650 C   0  0  0  0  0  0  0  0  0  0  0  0
  1  2  1  0
  2  3  2  0
  3  4  1  0
  4  5  2  0
  5  6  1  0
  6  7  2  0
  7  8  1  0
  8  9  1  0
  9 10  2  0
  9 11  2  0
  9 12  1  0
 12 13  2  0
 13 14  1  0
 14 15  2  0
 15 16  1  0
 16 17  1  0
 17 18  2  0
 17 19  1  0
 19 20  1  0
 20 21  1  0
 21 22  1  0
 22 23  1  0
 22 24  2  0
 22 25  2  0
 16 26  2  0
  7  2  1  0
 26 12  1  0
M  CHG  3   8  -1  19  -1  23  -1
M  END
>  <UniqueID>  (32) 
23

>  <SMILES>  (32) 
Cc1ccccc1[N-]S(=O)(=O)c1cccc(C(=O)[N-]CCS([NH-])(=O)=O)c1

>  <Energy>  (32) 
44.247326882767524

>  <Genealogy>  (32) 
Cc1ccccc1[N-]S(=O)(=O)c1cccc(C(=O)[N-]CCS([NH-])(=O)=O)c1 (protonated)
Cc1ccccc1[N-]S(=O)(=O)c1cccc(C(=O)[N-]CCS([NH-])(=O)=O)c1 (3D coordinates assigned)
Cc1ccccc1[N-]S(=O)(=O)c1cccc(C(=O)[N-]CCS([NH-])(=O)=O)c1 (optimized conformer: 44.247326882767524 kcal/mol)

>  <smiles>  (32) 
Cc1ccccc1NS(=O)(=O)c1cccc(C(=O)NCCS(N)(=O)=O)c1

>  <score_type>  (32) 
oracle

>  <origin>  (32) 
adg

>  <m_score__min__energy>  (32) 
-14.99

>  <m_primary>  (32) 
energy

$$$$
54:0
     RDKit          3D

 30 31  0  0  0  0  0  0  0  0999 V2000
   62.4920   33.7130   50.2720 C   0  0  0  0  0  0  0  0  0  0  0  0
   62.0860   34.5590   49.2020 O   0  0  0  0  0  0  0  0  0  0  0  0
   61.0820   34.2400   48.2740 C   0  0  0  0  0  0  0  0  0  0  0  0
   59.7170   34.2360   48.6210 C   0  0  0  0  0  0  0  0  0  0  0  0
   58.7480   33.9090   47.6720 C   0  0  0  0  0  0  0  0  0  0  0  0
   59.1210   33.5840   46.3640 C   0  0  0  0  0  0  0  0  0  0  0  0
   57.8910   33.1490   45.1730 S   0  0  0  0  0  0  0  0  0  0  0  0
   58.4770   33.2580   43.7920 O   0  0  0  0  0  0  0  0  0  0  0  0
   56.7510   34.1240   45.2690 O   0  0  0  0  0  0  0  0  0  0  0  0
   57.2840   31.5270   45.4340 N   0  0  0  0  0  0  0  0  0  0  0  0
   58.2850   30.7420   46.1690 C   0  0  0  0  0  0  0  0  0  0  0  0
   56.9550   30.8770   44.1530 C   0  0  0  0  0  0  0  0  0  0  0  0
   55.9190   29.8030   44.3530 C   0  0  0  0  0  0  0  0  0  0  0  0
   54.8100   29.9050   43.7650 O   0  0  0  0  0  0  0  0  0  0  0  0
   56.1150   28.7080   45.2600 N   0  0  0  0  0  0  0  0  0  0  0  0
   57.2030   27.7350   45.2140 C   0  0  0  0  0  0  0  0  0  0  0  0
   57.5940   27.2790   46.5870 C   0  0  0  0  0  0  0  0  0  0  0  0
   58.5210   27.8820   47.1910 O   0  0  0  0  0  0  0  0  0  0  0  0
   57.0490   26.0640   47.1210 N   0  0  0  0  0  0  0  0  0  0  0  0
   56.4500   25.0830   46.5010 C   0  0  0  0  0  0  0  0  0  0  0  0
   57.1480   23.9260   46.3350 N   0  0  0  0  0  0  0  0  0  0  0  0
   56.6270   22.8370   45.7090 C   0  0  0  0  0  0  0  0  0  0  0  0
   55.3310   22.8780   45.2020 C   0  0  0  0  0  0  0  0  0  0  0  0
   54.5890   24.0500   45.3270 C   0  0  0  0  0  0  0  0  0  0  0  0
   55.1390   25.1700   45.9590 C   0  0  0  0  0  0  0  0  0  0  0  0
   54.3930   26.3420   45.9830 O   0  0  0  0  0  0  0  0  0  0  0  0
   60.4760   33.5960   46.0090 C   0  0  0  0  0  0  0  0  0  0  0  0
   61.4630   33.9160   46.9620 C   0  0  0  0  0  0  0  0  0  0  0  0
   62.8310   33.9230   46.6440 O   0  0  0  0  0  0  0  0  0  0  0  0
   63.7690   32.9510   47.0960 C   0  0  0  0  0  0  0  0  0  0  0  0
  1  2  1  0
  2  3  1  0
  3  4  2  0
  4  5  1  0
  5  6  2  0
  6  7  1  0
  7  8  2  0
  7  9  2  0
  7 10  1  0
 10 11  1  0
 10 12  1  0
 12 13  1  0
 13 14  2  0
 13 15  1  0
 15 16  1  0
 16 17  1  0
 17 18  2  0
 17 19  1  0
 19 20  2  3
 20 21  1  0
 21 22  1  0
 22 23  2  0
 23 24  1  0
 24 25  2  0
 25 26  1  0
  6 27  1  0
 27 28  2  0
 28 29  1  0
 29 30  1  0
 28  3  1  0
 25 20  1  0
M  CHG  3  15  -1  21  -1  26  -1
M  END
>  <UniqueID>  (33) 
45

>  <SMILES>  (33) 
COc1ccc(S(=O)(=O)N(C)CC(=O)[N-]CC(=O)N=c2[n-]cccc2[O-])cc1OC

>  <Energy>  (33) 
54.574042862578295

>  <Genealogy>  (33) 
COc1ccc(S(=O)(=O)N(C)CC(=O)[N-]CC(=O)N=c2[n-]cccc2[O-])cc1OC (protonated)
COc1ccc(S(=O)(=O)N(C)CC(=O)[N-]CC(=O)N=c2[n-]cccc2[O-])cc1OC (3D coordinates assigned)
COc1ccc(S(=O)(=O)N(C)CC(=O)[N-]CC(=O)N=c2[n-]cccc2[O-])cc1OC (optimized conformer: 54.574042862578295 kcal/mol)

>  <smiles>  (33) 
COc1ccc(S(=O)(=O)N(C)CC(=O)NCC(=O)N=c2[nH]cccc2O)cc1OC

>  <score_type>  (33) 
oracle

>  <origin>  (33) 
adg

>  <m_score__min__energy>  (33) 
-15.44

>  <m_primary>  (33) 
energy

$$$$
27:0
     RDKit          3D

 30 32  0  0  0  0  0  0  0  0999 V2000
   54.3560   22.5340   49.3990 C   0  0  0  0  0  0  0  0  0  0  0  0
   54.7520   22.1150   48.0610 N   0  0  0  0  0  0  0  0  0  0  0  0
   56.1230   21.9140   47.7060 C   0  0  0  0  0  0  0  0  0  0  0  0
   57.0350   22.1020   48.5570 O   0  0  0  0  0  0  0  0  0  0  0  0
   56.4510   21.5010   46.3780 N   0  0  0  0  0  0  0  0  0  0  0  0
   55.7020   22.1940   44.9790 S   0  0  0  0  0  0  0  0  0  0  0  0
   54.2270   22.3400   45.2340 O   0  0  0  0  0  0  0  0  0  0  0  0
   55.9060   21.2810   43.8030 O   0  0  0  0  0  0  0  0  0  0  0  0
   56.4340   23.7560   44.6270 C   0  0  0  0  0  0  0  0  0  0  0  0
   57.0220   24.0050   43.3800 C   0  0  0  0  0  0  0  0  0  0  0  0
   57.6100   25.2440   43.1180 C   0  0  0  0  0  0  0  0  0  0  0  0
   57.6140   26.2410   44.0980 C   0  0  0  0  0  0  0  0  0  0  0  0
   57.0200   26.0060   45.3470 C   0  0  0  0  0  0  0  0  0  0  0  0
   57.0730   27.0540   46.4230 C   0  0  0  0  0  0  0  0  0  0  0  0
   57.4440   28.3440   45.8440 N   0  0  0  0  0  0  0  0  0  0  0  0
   56.6460   29.2090   45.1970 C   0  0  0  0  0  0  0  0  0  0  0  0
   55.3090   28.9810   44.8940 O   0  0  0  0  0  0  0  0  0  0  0  0
   57.3620   30.3510   44.9090 C   0  0  0  0  0  0  0  0  0  0  0  0
   56.8310   31.5940   44.2670 C   0  0  0  0  0  0  0  0  0  0  0  0
   56.6340   32.6940   45.3120 C   0  0  0  0  0  0  0  0  0  0  0  0
   57.9570   33.1150   45.8930 C   0  0  0  0  0  0  0  0  0  0  0  0
   58.2580   32.8470   47.2390 C   0  0  0  0  0  0  0  0  0  0  0  0
   59.4750   33.2660   47.7860 C   0  0  0  0  0  0  0  0  0  0  0  0
   60.3950   33.9610   46.9960 C   0  0  0  0  0  0  0  0  0  0  0  0
   60.0980   34.2420   45.6600 C   0  0  0  0  0  0  0  0  0  0  0  0
   58.8810   33.8260   45.1090 C   0  0  0  0  0  0  0  0  0  0  0  0
   58.6150   30.2300   45.4010 N   0  0  0  0  0  0  0  0  0  0  0  0
   58.6200   28.9980   45.9580 C   0  0  0  0  0  0  0  0  0  0  0  0
   59.6270   28.5180   46.5410 O   0  0  0  0  0  0  0  0  0  0  0  0
   56.4370   24.7550   45.6090 C   0  0  0  0  0  0  0  0  0  0  0  0
  1  2  1  0
  2  3  1  0
  3  4  2  0
  3  5  1  0
  5  6  1  0
  6  7  2  0
  6  8  2  0
  6  9  1  0
  9 10  2  0
 10 11  1  0
 11 12  2  0
 12 13  1  0
 13 14  1  0
 14 15  1  0
 15 16  1  0
 16 17  1  0
 16 18  2  0
 18 19  1  0
 19 20  1  0
 20 21  1  0
 21 22  2  0
 22 23  1  0
 23 24  2  0
 24 25  1  0
 25 26  2  0
 18 27  1  0
 27 28  1  0
 28 29  2  0
 13 30  2  0
 30  9  1  0
 28 15  1  0
 26 21  1  0
M  CHG  3   5  -1  17  -1  27  -1
M  END
>  <UniqueID>  (34) 
26

>  <SMILES>  (34) 
CNC(=O)[N-]S(=O)(=O)c1cccc(Cn2c([O-])c(CCc3ccccc3)[n-]c2=O)c1

>  <Energy>  (34) 
76.06561422109692

>  <Genealogy>  (34) 
CNC(=O)[N-]S(=O)(=O)c1cccc(Cn2c([O-])c(CCc3ccccc3)[n-]c2=O)c1 (protonated)
CNC(=O)[N-]S(=O)(=O)c1cccc(Cn2c([O-])c(CCc3ccccc3)[n-]c2=O)c1 (3D coordinates assigned)
CNC(=O)[N-]S(=O)(=O)c1cccc(Cn2c([O-])c(CCc3ccccc3)[n-]c2=O)c1 (optimized conformer: 76.06561422109692 kcal/mol)

>  <smiles>  (34) 
CNC(=O)NS(=O)(=O)c1cccc(Cn2c(O)c(CCc3ccccc3)[nH]c2=O)c1

>  <score_type>  (34) 
oracle

>  <origin>  (34) 
adg

>  <m_score__min__energy>  (34) 
-14.24

>  <m_primary>  (34) 
energy

$$$$
76:0
     RDKit          3D

 35 38  0  0  0  0  0  0  0  0999 V2000
   57.8160   28.6380   43.8260 C   0  0  0  0  0  0  0  0  0  0  0  0
   56.5480   29.8110   44.2600 S   0  0  0  0  0  0  0  0  0  0  0  0
   55.5090   29.1180   45.0960 O   0  0  0  0  0  0  0  0  0  0  0  0
   55.8940   30.3440   43.0160 O   0  0  0  0  0  0  0  0  0  0  0  0
   57.2230   31.1240   45.1790 N   0  0  0  0  0  0  0  0  0  0  0  0
   57.3380   32.3260   44.3500 C   0  0  0  0  0  0  0  0  0  0  0  0
   57.1950   33.5870   45.2300 C   0  0  0  0  0  0  0  0  0  0  0  0
   57.2390   33.2310   46.7420 C   0  0  0  0  0  0  0  0  0  0  0  0
   58.5730   33.5780   47.4340 C   0  0  0  0  0  0  0  0  0  0  0  0
   59.7040   33.4710   46.5030 N   0  0  0  0  0  0  0  0  0  0  0  0
   60.9610   32.9590   46.9750 C   0  0  0  0  0  0  0  0  0  0  0  0
   62.0900   33.7930   46.9460 C   0  0  0  0  0  0  0  0  0  0  0  0
   63.3280   33.3240   47.3840 C   0  0  0  0  0  0  0  0  0  0  0  0
   63.4490   32.0220   47.8640 C   0  0  0  0  0  0  0  0  0  0  0  0
   62.3350   31.1810   47.9050 C   0  0  0  0  0  0  0  0  0  0  0  0
   61.0800   31.6260   47.4490 C   0  0  0  0  0  0  0  0  0  0  0  0
   59.9220   30.7650   47.4940 N   0  0  0  0  0  0  0  0  0  0  0  0
   59.8010   29.3040   48.4290 S   0  0  0  0  0  0  0  0  0  0  0  0
   61.1270   28.9240   49.0250 O   0  0  0  0  0  0  0  0  0  0  0  0
   58.8480   29.5560   49.5640 O   0  0  0  0  0  0  0  0  0  0  0  0
   59.1750   27.9930   47.4300 C   0  0  0  0  0  0  0  0  0  0  0  0
   60.0310   26.9850   46.9650 C   0  0  0  0  0  0  0  0  0  0  0  0
   59.5280   25.9260   46.2060 C   0  0  0  0  0  0  0  0  0  0  0  0
   58.1540   25.8510   45.9070 C   0  0  0  0  0  0  0  0  0  0  0  0
   57.5960   24.7170   45.1290 C   0  0  0  0  0  0  0  0  0  0  0  0
   57.1630   24.8720   43.8030 C   0  0  0  0  0  0  0  0  0  0  0  0
   56.6560   23.7690   43.1160 C   0  0  0  0  0  0  0  0  0  0  0  0
   56.5950   22.5360   43.7600 C   0  0  0  0  0  0  0  0  0  0  0  0
   56.1410   21.5250   43.1630 O   0  0  0  0  0  0  0  0  0  0  0  0
   57.0360   22.4280   45.0400 N   0  0  0  0  0  0  0  0  0  0  0  0
   57.5220   23.4820   45.7000 N   0  0  0  0  0  0  0  0  0  0  0  0
   57.3070   26.8850   46.3460 C   0  0  0  0  0  0  0  0  0  0  0  0
   57.8140   27.9450   47.1020 C   0  0  0  0  0  0  0  0  0  0  0  0
   59.6680   34.1810   45.2160 C   0  0  0  0  0  0  0  0  0  0  0  0
   58.2490   34.6590   44.8780 C   0  0  0  0  0  0  0  0  0  0  0  0
  1  2  1  0
  2  3  2  0
  2  4  2  0
  2  5  1  0
  5  6  1  0
  6  7  1  0
  7  8  1  0
  8  9  1  0
  9 10  1  0
 10 11  1  0
 11 12  2  0
 12 13  1  0
 13 14  2  0
 14 15  1  0
 15 16  2  0
 16 17  1  0
 17 18  1  0
 18 19  2  0
 18 20  2  0
 18 21  1  0
 21 22  2  0
 22 23  1  0
 23 24  2  0
 24 25  1  0
 25 26  1  0
 26 27  2  0
 27 28  1  0
 28 29  2  0
 28 30  1  0
 30 31  1  0
 24 32  1  0
 32 33  2  0
 10 34  1  0
 34 35  1  0
 35  7  1  0
 16 11  1  0
 33 21  1  0
 31 25  2  0
M  CHG  2   5  -1  30  -1
M  END
>  <UniqueID>  (35) 
71

>  <SMILES>  (35) 
CS(=O)(=O)[N-]CC1CCN(c2ccccc2NS(=O)(=O)c2ccc(-c3ccc(=O)[n-]n3)cc2)CC1

>  <Energy>  (35) 
71.65098056268849

>  <Genealogy>  (35) 
CS(=O)(=O)[N-]CC1CCN(c2ccccc2NS(=O)(=O)c2ccc(-c3ccc(=O)[n-]n3)cc2)CC1 (protonated)
CS(=O)(=O)[N-]CC1CCN(c2ccccc2NS(=O)(=O)c2ccc(-c3ccc(=O)[n-]n3)cc2)CC1 (3D coordinates assigned)
CS(=O)(=O)[N-]CC1CCN(c2ccccc2NS(=O)(=O)c2ccc(-c3ccc(=O)[n-]n3)cc2)CC1 (nonaromatic ring conformer: 71.65098056268849 kcal/mol)

>  <smiles>  (35) 
CS(=O)(=O)NCC1CCN(c2ccccc2NS(=O)(=O)c2ccc(-c3ccc(=O)[nH]n3)cc2)CC1

>  <score_type>  (35) 
oracle

>  <origin>  (35) 
adg

>  <m_score__min__energy>  (35) 
-14.449999999999999

>  <m_primary>  (35) 
energy

$$$$
8:0
     RDKit          3D

 28 30  0  0  0  0  0  0  0  0999 V2000
   65.9400   32.7170   49.9490 C   0  0  0  0  0  0  0  0  0  0  0  0
   64.5890   33.0970   49.4350 C   0  0  0  0  0  0  0  0  0  0  0  0
   63.8610   33.8640   50.1220 O   0  0  0  0  0  0  0  0  0  0  0  0
   64.1260   32.5750   48.1780 N   0  0  0  0  0  0  0  0  0  0  0  0
   62.8030   32.7760   47.6480 C   0  0  0  0  0  0  0  0  0  0  0  0
   61.7690   31.9140   48.0440 C   0  0  0  0  0  0  0  0  0  0  0  0
   60.4700   32.0950   47.5600 C   0  0  0  0  0  0  0  0  0  0  0  0
   60.1870   33.1500   46.6810 C   0  0  0  0  0  0  0  0  0  0  0  0
   58.5600   33.3730   46.0450 S   0  0  0  0  0  0  0  0  0  0  0  0
   57.5340   33.2280   47.1330 O   0  0  0  0  0  0  0  0  0  0  0  0
   58.4550   34.7490   45.4510 O   0  0  0  0  0  0  0  0  0  0  0  0
   58.2480   32.1980   44.8090 N   0  0  0  0  0  0  0  0  0  0  0  0
   57.8150   30.8510   45.0410 C   0  0  0  0  0  0  0  0  0  0  0  0
   58.5540   30.0530   45.9180 C   0  0  0  0  0  0  0  0  0  0  0  0
   58.1550   28.7410   46.1930 C   0  0  0  0  0  0  0  0  0  0  0  0
   57.0050   28.2020   45.5870 C   0  0  0  0  0  0  0  0  0  0  0  0
   56.5600   26.8180   45.8750 C   0  0  0  0  0  0  0  0  0  0  0  0
   57.3630   25.7080   46.0690 C   0  0  0  0  0  0  0  0  0  0  0  0
   56.4680   24.6890   46.3160 C   0  0  0  0  0  0  0  0  0  0  0  0
   56.8050   23.2870   46.5960 C   0  0  0  0  0  0  0  0  0  0  0  0
   57.3660   22.9210   47.8550 N   0  0  0  0  0  0  0  0  0  0  0  0
   56.5980   22.4020   45.7220 O   0  0  0  0  0  0  0  0  0  0  0  0
   55.2090   25.1640   46.2700 N   0  0  0  0  0  0  0  0  0  0  0  0
   55.2650   26.4590   46.0030 N   0  0  0  0  0  0  0  0  0  0  0  0
   56.2740   29.0040   44.6930 C   0  0  0  0  0  0  0  0  0  0  0  0
   56.6720   30.3150   44.4220 C   0  0  0  0  0  0  0  0  0  0  0  0
   61.2080   34.0300   46.3070 C   0  0  0  0  0  0  0  0  0  0  0  0
   62.5070   33.8520   46.7920 C   0  0  0  0  0  0  0  0  0  0  0  0
  1  2  1  0
  2  3  2  0
  2  4  1  0
  4  5  1  0
  5  6  2  0
  6  7  1  0
  7  8  2  0
  8  9  1  0
  9 10  2  0
  9 11  2  0
  9 12  1  0
 12 13  1  0
 13 14  2  0
 14 15  1  0
 15 16  2  0
 16 17  1  0
 17 18  1  0
 18 19  2  0
 19 20  1  0
 20 21  1  0
 20 22  2  0
 19 23  1  0
 23 24  1  0
 16 25  1  0
 25 26  2  0
  8 27  1  0
 27 28  2  0
 28  5  1  0
 26 13  1  0
 24 17  2  0
M  CHG  3  12  -1  21  -1  23  -1
M  END
>  <UniqueID>  (36) 
9

>  <SMILES>  (36) 
CC(=O)Nc1ccc(S(=O)(=O)[N-]c2ccc(-c3cc(C([NH-])=O)[n-]n3)cc2)cc1

>  <Energy>  (36) 
78.55277467757726

>  <Genealogy>  (36) 
CC(=O)Nc1ccc(S(=O)(=O)[N-]c2ccc(-c3cc(C([NH-])=O)[n-]n3)cc2)cc1 (protonated)
CC(=O)Nc1ccc(S(=O)(=O)[N-]c2ccc(-c3cc(C([NH-])=O)[n-]n3)cc2)cc1 (3D coordinates assigned)
CC(=O)Nc1ccc(S(=O)(=O)[N-]c2ccc(-c3cc(C([NH-])=O)[n-]n3)cc2)cc1 (optimized conformer: 78.55277467757726 kcal/mol)

>  <smiles>  (36) 
CC(=O)Nc1ccc(S(=O)(=O)Nc2ccc(-c3cc(C(N)=O)[nH]n3)cc2)cc1

>  <score_type>  (36) 
oracle

>  <origin>  (36) 
adg

>  <m_score__min__energy>  (36) 
-14.039999999999999

>  <m_primary>  (36) 
energy

$$$$
17:0
     RDKit          3D

 27 29  0  0  0  0  0  0  0  0999 V2000
   55.1570   29.3290   44.8640 N   0  0  0  0  0  0  0  0  0  0  0  0
   56.7310   30.0110   44.6580 S   0  0  0  0  0  0  0  0  0  0  0  0
   57.3730   29.4390   43.4250 O   0  0  0  0  0  0  0  0  0  0  0  0
   56.6030   31.4990   44.4920 O   0  0  0  0  0  0  0  0  0  0  0  0
   57.7230   29.6380   46.0640 C   0  0  0  0  0  0  0  0  0  0  0  0
   57.8720   28.3180   46.5060 C   0  0  0  0  0  0  0  0  0  0  0  0
   58.6590   28.0360   47.6270 C   0  0  0  0  0  0  0  0  0  0  0  0
   59.2940   29.0680   48.3270 C   0  0  0  0  0  0  0  0  0  0  0  0
   60.1040   28.7290   49.4610 N   0  0  0  0  0  0  0  0  0  0  0  0
   59.7840   28.9440   50.8420 C   0  0  0  0  0  0  0  0  0  0  0  0
   59.9380   28.0260   51.6930 O   0  0  0  0  0  0  0  0  0  0  0  0
   59.3140   30.2930   51.2850 C   0  0  0  0  0  0  0  0  0  0  0  0
   57.8640   30.2350   51.6800 C   0  0  0  0  0  0  0  0  0  0  0  0
   57.3670   29.1370   52.4000 C   0  0  0  0  0  0  0  0  0  0  0  0
   56.0270   29.1020   52.7980 C   0  0  0  0  0  0  0  0  0  0  0  0
   55.1740   30.1730   52.5090 C   0  0  0  0  0  0  0  0  0  0  0  0
   53.7880   30.0790   52.8730 N   0  0  0  0  0  0  0  0  0  0  0  0
   52.7940   30.7960   52.4270 C   0  0  0  0  0  0  0  0  0  0  0  0
   51.8690   31.3010   53.3500 C   0  0  0  0  0  0  0  0  0  0  0  0
   50.7930   32.0740   52.9050 C   0  0  0  0  0  0  0  0  0  0  0  0
   50.6530   32.3490   51.5840 N   0  0  0  0  0  0  0  0  0  0  0  0
   51.5420   31.8930   50.6640 C   0  0  0  0  0  0  0  0  0  0  0  0
   52.6320   31.1160   51.0640 C   0  0  0  0  0  0  0  0  0  0  0  0
   55.6630   31.2620   51.7660 C   0  0  0  0  0  0  0  0  0  0  0  0
   57.0030   31.3010   51.3720 C   0  0  0  0  0  0  0  0  0  0  0  0
   59.1660   30.3910   47.8650 C   0  0  0  0  0  0  0  0  0  0  0  0
   58.3790   30.6720   46.7440 C   0  0  0  0  0  0  0  0  0  0  0  0
  1  2  1  0
  2  3  2  0
  2  4  2  0
  2  5  1  0
  5  6  2  0
  6  7  1  0
  7  8  2  0
  8  9  1  0
  9 10  1  0
 10 11  2  0
 10 12  1  0
 12 13  1  0
 13 14  2  0
 14 15  1  0
 15 16  2  0
 16 17  1  0
 17 18  2  3
 18 19  1  0
 19 20  2  0
 20 21  1  0
 21 22  1  0
 22 23  2  0
 16 24  1  0
 24 25  2  0
  8 26  1  0
 26 27  2  0
 27  5  1  0
 25 13  1  0
 23 18  1  0
M  CHG  3   1  -1   9  -1  21  -1
M  END
>  <UniqueID>  (37) 
16

>  <SMILES>  (37) 
[NH-]S(=O)(=O)c1ccc([N-]C(=O)Cc2ccc(N=c3cc[n-]cc3)cc2)cc1

>  <Energy>  (37) 
56.49776474608072

>  <Genealogy>  (37) 
[NH-]S(=O)(=O)c1ccc([N-]C(=O)Cc2ccc(N=c3cc[n-]cc3)cc2)cc1 (protonated)
[NH-]S(=O)(=O)c1ccc([N-]C(=O)Cc2ccc(N=c3cc[n-]cc3)cc2)cc1 (3D coordinates assigned)
[NH-]S(=O)(=O)c1ccc([N-]C(=O)Cc2ccc(N=c3cc[n-]cc3)cc2)cc1 (optimized conformer: 56.49776474608072 kcal/mol)

>  <smiles>  (37) 
NS(=O)(=O)c1ccc(NC(=O)Cc2ccc(N=c3cc[nH]cc3)cc2)cc1

>  <score_type>  (37) 
oracle

>  <origin>  (37) 
adg

>  <m_score__min__energy>  (37) 
-14.199999999999999

>  <m_primary>  (37) 
energy

$$$$
93:0
     RDKit          3D

 22 23  0  0  0  0  0  0  0  0999 V2000
   58.0130   33.8200   46.2330 C   0  0  0  0  0  0  0  0  0  0  0  0
   58.8880   34.2620   47.4050 C   0  0  0  0  0  0  0  0  0  0  0  0
   59.3540   33.0840   48.2740 C   0  0  0  0  0  0  0  0  0  0  0  0
   58.1930   32.3890   48.9930 C   0  0  0  0  0  0  0  0  0  0  0  0
   58.6540   31.9520   50.6640 S   0  0  0  0  0  0  0  0  0  0  0  0
   59.7650   32.8560   51.1170 O   0  0  0  0  0  0  0  0  0  0  0  0
   59.1320   30.5280   50.7280 O   0  0  0  0  0  0  0  0  0  0  0  0
   57.2990   32.1670   51.7240 N   0  0  0  0  0  0  0  0  0  0  0  0
   56.3540   31.1540   52.0930 C   0  0  0  0  0  0  0  0  0  0  0  0
   56.7400   29.8310   52.3740 C   0  0  0  0  0  0  0  0  0  0  0  0
   55.7840   28.8820   52.7440 C   0  0  0  0  0  0  0  0  0  0  0  0
   54.4370   29.2390   52.8340 C   0  0  0  0  0  0  0  0  0  0  0  0
   54.0340   30.5500   52.5410 C   0  0  0  0  0  0  0  0  0  0  0  0
   52.5890   30.9470   52.6720 C   0  0  0  0  0  0  0  0  0  0  0  0
   51.9870   31.1610   51.3190 C   0  0  0  0  0  0  0  0  0  0  0  0
   52.0020   30.2460   50.3330 N   0  0  0  0  0  0  0  0  0  0  0  0
   51.3080   30.8480   49.3420 C   0  0  0  0  0  0  0  0  0  0  0  0
   51.1060   30.3010   48.2270 O   0  0  0  0  0  0  0  0  0  0  0  0
   50.8420   32.0810   49.6410 N   0  0  0  0  0  0  0  0  0  0  0  0
   51.2780   32.2610   50.8990 C   0  0  0  0  0  0  0  0  0  0  0  0
   51.0270   33.4040   51.6470 O   0  0  0  0  0  0  0  0  0  0  0  0
   55.0010   31.5040   52.1830 C   0  0  0  0  0  0  0  0  0  0  0  0
  1  2  1  0
  2  3  1  0
  3  4  1  0
  4  5  1  0
  5  6  2  0
  5  7  2  0
  5  8  1  0
  8  9  1  0
  9 10  2  0
 10 11  1  0
 11 12  2  0
 12 13  1  0
 13 14  1  0
 14 15  1  0
 15 16  1  0
 16 17  1  0
 17 18  2  0
 17 19  1  0
 19 20  1  0
 20 21  1  0
 13 22  2  0
 22  9  1  0
 20 15  2  0
M  CHG  4   8  -1  16  -1  19  -1  21  -1
M  END
>  <UniqueID>  (38) 
86

>  <SMILES>  (38) 
CCCCS(=O)(=O)[N-]c1cccc(Cc2[n-]c(=O)[n-]c2[O-])c1

>  <Energy>  (38) 
57.68727432379089

>  <Genealogy>  (38) 
CCCCS(=O)(=O)[N-]c1cccc(Cc2[n-]c(=O)[n-]c2[O-])c1 (protonated)
CCCCS(=O)(=O)[N-]c1cccc(Cc2[n-]c(=O)[n-]c2[O-])c1 (3D coordinates assigned)
CCCCS(=O)(=O)[N-]c1cccc(Cc2[n-]c(=O)[n-]c2[O-])c1 (optimized conformer: 57.68727432379089 kcal/mol)

>  <smiles>  (38) 
CCCCS(=O)(=O)Nc1cccc(Cc2[nH]c(=O)[nH]c2O)c1

>  <score_type>  (38) 
oracle

>  <origin>  (38) 
adg

>  <m_score__min__energy>  (38) 
-16.550000000000001

>  <m_primary>  (38) 
energy

$$$$
46:0
     RDKit          3D

 31 33  0  0  0  0  0  0  0  0999 V2000
   54.1200   25.9700   45.7790 N   0  0  0  0  0  0  0  0  0  0  0  0
   54.6740   24.3450   45.6000 S   0  0  0  0  0  0  0  0  0  0  0  0
   54.1320   23.4980   46.7180 O   0  0  0  0  0  0  0  0  0  0  0  0
   54.1790   23.7930   44.2910 O   0  0  0  0  0  0  0  0  0  0  0  0
   56.4330   24.3170   45.6410 C   0  0  0  0  0  0  0  0  0  0  0  0
   57.1260   23.1030   45.5580 C   0  0  0  0  0  0  0  0  0  0  0  0
   58.5240   23.0900   45.5580 C   0  0  0  0  0  0  0  0  0  0  0  0
   59.2350   24.2900   45.6400 C   0  0  0  0  0  0  0  0  0  0  0  0
   58.5570   25.5140   45.7370 C   0  0  0  0  0  0  0  0  0  0  0  0
   59.3140   26.7360   45.7830 N   0  0  0  0  0  0  0  0  0  0  0  0
   58.9950   27.8490   46.6350 C   0  0  0  0  0  0  0  0  0  0  0  0
   58.1790   27.7150   47.5880 O   0  0  0  0  0  0  0  0  0  0  0  0
   59.7150   29.1520   46.4640 C   0  0  0  0  0  0  0  0  0  0  0  0
   58.9030   30.0850   45.6080 C   0  0  0  0  0  0  0  0  0  0  0  0
   58.1750   29.5920   44.5150 C   0  0  0  0  0  0  0  0  0  0  0  0
   57.4260   30.4620   43.7180 C   0  0  0  0  0  0  0  0  0  0  0  0
   57.3940   31.8270   44.0090 C   0  0  0  0  0  0  0  0  0  0  0  0
   58.1050   32.3300   45.1050 C   0  0  0  0  0  0  0  0  0  0  0  0
   58.1070   34.0630   45.4210 S   0  0  0  0  0  0  0  0  0  0  0  0
   56.7440   34.6440   45.1530 O   0  0  0  0  0  0  0  0  0  0  0  0
   59.0910   34.7200   44.4960 O   0  0  0  0  0  0  0  0  0  0  0  0
   58.5770   34.3800   47.0660 N   0  0  0  0  0  0  0  0  0  0  0  0
   59.9350   34.9270   47.1390 C   0  0  0  0  0  0  0  0  0  0  0  0
   60.9440   33.8450   47.4250 C   0  0  0  0  0  0  0  0  0  0  0  0
   60.6550   32.8270   48.3510 C   0  0  0  0  0  0  0  0  0  0  0  0
   61.6100   31.8460   48.6420 C   0  0  0  0  0  0  0  0  0  0  0  0
   62.8510   31.8640   47.9970 C   0  0  0  0  0  0  0  0  0  0  0  0
   63.1340   32.8530   47.0530 C   0  0  0  0  0  0  0  0  0  0  0  0
   62.1830   33.8370   46.7600 C   0  0  0  0  0  0  0  0  0  0  0  0
   58.8510   31.4560   45.9080 C   0  0  0  0  0  0  0  0  0  0  0  0
   57.1490   25.5210   45.7220 C   0  0  0  0  0  0  0  0  0  0  0  0
  1  2  1  0
  2  3  2  0
  2  4  2  0
  2  5  1  0
  5  6  2  0
  6  7  1  0
  7  8  2  0
  8  9  1  0
  9 10  1  0
 10 11  1  0
 11 12  2  0
 11 13  1  0
 13 14  1  0
 14 15  2  0
 15 16  1  0
 16 17  2  0
 17 18  1  0
 18 19  1  0
 19 20  2  0
 19 21  2  0
 19 22  1  0
 22 23  1  0
 23 24  1  0
 24 25  2  0
 25 26  1  0
 26 27  2  0
 27 28  1  0
 28 29  2  0
 18 30  2  0
  9 31  2  0
 31  5  1  0
 30 14  1  0
 29 24  1  0
M  CHG  2   1  -1  22  -1
M  END
>  <UniqueID>  (39) 
41

>  <SMILES>  (39) 
[NH-]S(=O)(=O)c1cccc(NC(=O)Cc2cccc(S(=O)(=O)[N-]Cc3ccccc3)c2)c1

>  <Energy>  (39) 
48.80203652009044

>  <Genealogy>  (39) 
[NH-]S(=O)(=O)c1cccc(NC(=O)Cc2cccc(S(=O)(=O)[N-]Cc3ccccc3)c2)c1 (protonated)
[NH-]S(=O)(=O)c1cccc(NC(=O)Cc2cccc(S(=O)(=O)[N-]Cc3ccccc3)c2)c1 (3D coordinates assigned)
[NH-]S(=O)(=O)c1cccc(NC(=O)Cc2cccc(S(=O)(=O)[N-]Cc3ccccc3)c2)c1 (optimized conformer: 48.80203652009044 kcal/mol)

>  <smiles>  (39) 
NS(=O)(=O)c1cccc(NC(=O)Cc2cccc(S(=O)(=O)NCc3ccccc3)c2)c1

>  <score_type>  (39) 
oracle

>  <origin>  (39) 
adg

>  <m_score__min__energy>  (39) 
-14.460000000000001

>  <m_primary>  (39) 
energy

$$$$
14:0
     RDKit          3D

 28 30  0  0  0  0  0  0  0  0999 V2000
   60.4450   27.6980   49.0130 C   0  0  0  0  0  0  0  0  0  0  0  0
   60.5300   28.9690   49.6490 O   0  0  0  0  0  0  0  0  0  0  0  0
   60.4330   30.1970   48.9790 C   0  0  0  0  0  0  0  0  0  0  0  0
   61.2280   30.4020   47.8460 C   0  0  0  0  0  0  0  0  0  0  0  0
   61.1630   31.6080   47.1420 C   0  0  0  0  0  0  0  0  0  0  0  0
   60.3010   32.6290   47.5590 C   0  0  0  0  0  0  0  0  0  0  0  0
   60.2500   33.8410   46.7930 N   0  0  0  0  0  0  0  0  0  0  0  0
   59.0350   34.2270   45.6170 S   0  0  0  0  0  0  0  0  0  0  0  0
   59.6370   35.1180   44.5680 O   0  0  0  0  0  0  0  0  0  0  0  0
   57.9090   34.9550   46.2960 O   0  0  0  0  0  0  0  0  0  0  0  0
   58.4420   32.7590   44.8440 C   0  0  0  0  0  0  0  0  0  0  0  0
   58.1370   32.7590   43.4770 C   0  0  0  0  0  0  0  0  0  0  0  0
   57.6370   31.6050   42.8710 C   0  0  0  0  0  0  0  0  0  0  0  0
   57.4410   30.4450   43.6250 C   0  0  0  0  0  0  0  0  0  0  0  0
   57.7540   30.4220   44.9960 C   0  0  0  0  0  0  0  0  0  0  0  0
   57.5190   29.1980   45.7980 C   0  0  0  0  0  0  0  0  0  0  0  0
   58.0660   29.0770   46.9280 O   0  0  0  0  0  0  0  0  0  0  0  0
   56.6480   28.1620   45.3220 N   0  0  0  0  0  0  0  0  0  0  0  0
   56.7540   26.8270   45.7580 N   0  0  0  0  0  0  0  0  0  0  0  0
   55.7380   25.9870   45.9930 C   0  0  0  0  0  0  0  0  0  0  0  0
   54.3950   26.3360   45.9480 O   0  0  0  0  0  0  0  0  0  0  0  0
   56.2440   24.7380   46.2760 C   0  0  0  0  0  0  0  0  0  0  0  0
   57.5930   24.7800   46.1920 N   0  0  0  0  0  0  0  0  0  0  0  0
   57.8610   26.0620   45.8630 C   0  0  0  0  0  0  0  0  0  0  0  0
   59.0290   26.4790   45.6340 O   0  0  0  0  0  0  0  0  0  0  0  0
   58.2600   31.5900   45.5960 C   0  0  0  0  0  0  0  0  0  0  0  0
   59.5070   32.4320   48.7020 C   0  0  0  0  0  0  0  0  0  0  0  0
   59.5710   31.2250   49.4060 C   0  0  0  0  0  0  0  0  0  0  0  0
  1  2  1  0
  2  3  1  0
  3  4  2  0
  4  5  1  0
  5  6  2  0
  6  7  1  0
  7  8  1  0
  8  9  2  0
  8 10  2  0
  8 11  1  0
 11 12  2  0
 12 13  1  0
 13 14  2  0
 14 15  1  0
 15 16  1  0
 16 17  2  0
 16 18  1  0
 18 19  1  0
 19 20  1  0
 20 21  1  0
 20 22  2  0
 22 23  1  0
 23 24  1  0
 24 25  2  0
 15 26  2  0
  6 27  1  0
 27 28  2  0
 28  3  1  0
 26 11  1  0
 24 19  1  0
M  CHG  3   7  -1  21  -1  23  -1
M  END
>  <UniqueID>  (40) 
14

>  <SMILES>  (40) 
COc1ccc([N-]S(=O)(=O)c2cccc(C(=O)Nn3c([O-])c[n-]c3=O)c2)cc1

>  <Energy>  (40) 
84.45972858964478

>  <Genealogy>  (40) 
COc1ccc([N-]S(=O)(=O)c2cccc(C(=O)Nn3c([O-])c[n-]c3=O)c2)cc1 (protonated)
COc1ccc([N-]S(=O)(=O)c2cccc(C(=O)Nn3c([O-])c[n-]c3=O)c2)cc1 (3D coordinates assigned)
COc1ccc([N-]S(=O)(=O)c2cccc(C(=O)Nn3c([O-])c[n-]c3=O)c2)cc1 (optimized conformer: 84.45972858964478 kcal/mol)

>  <smiles>  (40) 
COc1ccc(NS(=O)(=O)c2cccc(C(=O)Nn3c(O)c[nH]c3=O)c2)cc1

>  <score_type>  (40) 
oracle

>  <origin>  (40) 
adg

>  <m_score__min__energy>  (40) 
-14.76

>  <m_primary>  (40) 
energy

$$$$
65:0
     RDKit          3D

 27 29  0  0  0  0  0  0  0  0999 V2000
   54.8940   26.3220   46.0020 N   0  0  0  0  0  0  0  0  0  0  0  0
   56.3700   25.4300   46.1270 S   0  0  0  0  0  0  0  0  0  0  0  0
   56.3870   24.3750   45.0560 O   0  0  0  0  0  0  0  0  0  0  0  0
   56.4430   24.7760   47.4770 O   0  0  0  0  0  0  0  0  0  0  0  0
   57.7460   26.5090   45.9230 C   0  0  0  0  0  0  0  0  0  0  0  0
   58.9630   26.2220   46.5550 C   0  0  0  0  0  0  0  0  0  0  0  0
   60.0610   27.0670   46.3770 C   0  0  0  0  0  0  0  0  0  0  0  0
   59.9460   28.2080   45.5790 C   0  0  0  0  0  0  0  0  0  0  0  0
   58.7250   28.5250   44.9620 C   0  0  0  0  0  0  0  0  0  0  0  0
   58.6440   29.6880   44.1220 N   0  0  0  0  0  0  0  0  0  0  0  0
   57.6930   30.7500   44.3020 C   0  0  0  0  0  0  0  0  0  0  0  0
   57.0300   30.8430   45.3710 O   0  0  0  0  0  0  0  0  0  0  0  0
   57.5270   31.7990   43.2460 C   0  0  0  0  0  0  0  0  0  0  0  0
   58.2260   33.0200   43.6280 N   0  0  0  0  0  0  0  0  0  0  0  0
   57.9360   33.7690   44.8150 C   0  0  0  0  0  0  0  0  0  0  0  0
   56.8520   34.4090   44.9030 O   0  0  0  0  0  0  0  0  0  0  0  0
   58.9040   33.7920   45.9370 C   0  0  0  0  0  0  0  0  0  0  0  0
   58.4510   33.8630   47.2680 C   0  0  0  0  0  0  0  0  0  0  0  0
   59.3590   33.8890   48.3300 C   0  0  0  0  0  0  0  0  0  0  0  0
   60.7380   33.8470   48.0810 C   0  0  0  0  0  0  0  0  0  0  0  0
   61.6570   33.8730   49.1410 C   0  0  0  0  0  0  0  0  0  0  0  0
   63.0300   33.8300   48.8810 C   0  0  0  0  0  0  0  0  0  0  0  0
   63.4940   33.7640   47.5640 C   0  0  0  0  0  0  0  0  0  0  0  0
   62.5880   33.7360   46.5000 C   0  0  0  0  0  0  0  0  0  0  0  0
   61.2070   33.7790   46.7480 C   0  0  0  0  0  0  0  0  0  0  0  0
   60.2890   33.7500   45.6870 C   0  0  0  0  0  0  0  0  0  0  0  0
   57.6290   27.6580   45.1270 C   0  0  0  0  0  0  0  0  0  0  0  0
  1  2  1  0
  2  3  2  0
  2  4  2  0
  2  5  1  0
  5  6  2  0
  6  7  1  0
  7  8  2  0
  8  9  1  0
  9 10  1  0
 10 11  1  0
 11 12  2  0
 11 13  1  0
 13 14  1  0
 14 15  1  0
 15 16  2  0
 15 17  1  0
 17 18  2  0
 18 19  1  0
 19 20  2  0
 20 21  1  0
 21 22  2  0
 22 23  1  0
 23 24  2  0
 24 25  1  0
 25 26  2  0
  9 27  2  0
 27  5  1  0
 26 17  1  0
 25 20  1  0
M  CHG  2   1  -1  14  -1
M  END
>  <UniqueID>  (41) 
60

>  <SMILES>  (41) 
[NH-]S(=O)(=O)c1cccc(NC(=O)C[N-]C(=O)c2ccc3ccccc3c2)c1

>  <Energy>  (41) 
48.50812382693167

>  <Genealogy>  (41) 
[NH-]S(=O)(=O)c1cccc(NC(=O)C[N-]C(=O)c2ccc3ccccc3c2)c1 (protonated)
[NH-]S(=O)(=O)c1cccc(NC(=O)C[N-]C(=O)c2ccc3ccccc3c2)c1 (3D coordinates assigned)
[NH-]S(=O)(=O)c1cccc(NC(=O)C[N-]C(=O)c2ccc3ccccc3c2)c1 (optimized conformer: 48.50812382693167 kcal/mol)

>  <smiles>  (41) 
NS(=O)(=O)c1cccc(NC(=O)CNC(=O)c2ccc3ccccc3c2)c1

>  <score_type>  (41) 
oracle

>  <origin>  (41) 
adg

>  <m_score__min__energy>  (41) 
-14.359999999999999

>  <m_primary>  (41) 
energy

$$$$
83:0
     RDKit          3D

 36 40  0  0  0  0  0  0  0  0999 V2000
   57.2910   24.9420   47.8690 N   0  0  0  0  0  0  0  0  0  0  0  0
   56.9240   23.2840   47.5370 S   0  0  0  0  0  0  0  0  0  0  0  0
   57.8370   22.8090   46.4430 O   0  0  0  0  0  0  0  0  0  0  0  0
   57.1640   22.4760   48.7800 O   0  0  0  0  0  0  0  0  0  0  0  0
   55.2340   23.1060   47.0290 C   0  0  0  0  0  0  0  0  0  0  0  0
   54.4270   22.1580   47.6820 C   0  0  0  0  0  0  0  0  0  0  0  0
   53.0900   21.9880   47.3190 C   0  0  0  0  0  0  0  0  0  0  0  0
   52.5370   22.7640   46.3030 C   0  0  0  0  0  0  0  0  0  0  0  0
   53.3210   23.7080   45.6400 C   0  0  0  0  0  0  0  0  0  0  0  0
   54.6760   23.8810   45.9770 C   0  0  0  0  0  0  0  0  0  0  0  0
   55.4650   24.9350   45.2410 C   0  0  0  0  0  0  0  0  0  0  0  0
   55.4130   26.1890   45.9840 N   0  0  0  0  0  0  0  0  0  0  0  0
   56.2610   27.1610   45.8350 C   0  0  0  0  0  0  0  0  0  0  0  0
   55.8910   28.3310   45.2490 N   0  0  0  0  0  0  0  0  0  0  0  0
   56.7870   29.3400   45.1030 C   0  0  0  0  0  0  0  0  0  0  0  0
   56.4110   30.4520   44.5480 N   0  0  0  0  0  0  0  0  0  0  0  0
   57.2620   31.3020   43.7160 C   0  0  0  0  0  0  0  0  0  0  0  0
   57.7720   32.4760   44.5090 C   0  0  0  0  0  0  0  0  0  0  0  0
   57.2580   32.7560   45.7850 C   0  0  0  0  0  0  0  0  0  0  0  0
   57.7270   33.8590   46.5080 C   0  0  0  0  0  0  0  0  0  0  0  0
   58.7080   34.6890   45.9620 C   0  0  0  0  0  0  0  0  0  0  0  0
   59.2200   34.4210   44.6890 C   0  0  0  0  0  0  0  0  0  0  0  0
   58.7510   33.3230   43.9600 C   0  0  0  0  0  0  0  0  0  0  0  0
   58.0650   29.1710   45.5420 N   0  0  0  0  0  0  0  0  0  0  0  0
   58.4440   28.0060   46.1230 C   0  0  0  0  0  0  0  0  0  0  0  0
   59.6700   27.8630   46.5250 N   0  0  0  0  0  0  0  0  0  0  0  0
   60.3080   28.6830   47.5600 C   0  0  0  0  0  0  0  0  0  0  0  0
   59.2520   29.2030   48.5600 C   0  0  0  0  0  0  0  0  0  0  0  0
   59.5210   30.6560   48.6410 C   0  0  0  0  0  0  0  0  0  0  0  0
   58.8890   31.5780   49.4790 C   0  0  0  0  0  0  0  0  0  0  0  0
   59.2600   32.9290   49.3970 C   0  0  0  0  0  0  0  0  0  0  0  0
   60.2490   33.3370   48.4830 C   0  0  0  0  0  0  0  0  0  0  0  0
   60.8680   32.3930   47.6480 C   0  0  0  0  0  0  0  0  0  0  0  0
   60.4850   31.0530   47.7500 C   0  0  0  0  0  0  0  0  0  0  0  0
   61.0030   29.9230   46.9470 C   0  0  0  0  0  0  0  0  0  0  0  0
   57.5360   27.0040   46.2710 N   0  0  0  0  0  0  0  0  0  0  0  0
  1  2  1  0
  2  3  2  0
  2  4  2  0
  2  5  1  0
  5  6  2  0
  6  7  1  0
  7  8  2  0
  8  9  1  0
  9 10  2  0
 10 11  1  0
 11 12  1  0
 12 13  2  3
 13 14  1  0
 14 15  1  0
 15 16  2  3
 16 17  1  0
 17 18  1  0
 18 19  2  0
 19 20  1  0
 20 21  2  0
 21 22  1  0
 22 23  2  0
 15 24  1  0
 24 25  1  0
 25 26  2  3
 26 27  1  0
 27 28  1  0
 28 29  1  0
 29 30  2  0
 30 31  1  0
 31 32  2  0
 32 33  1  0
 33 34  2  0
 34 35  1  0
 25 36  1  0
 10  5  1  0
 36 13  1  0
 23 18  1  0
 35 27  1  0
 34 29  1  0
M  CHG  3  14  -1  24  -1  36  -1
M  END
>  <UniqueID>  (42) 
76

>  <SMILES>  (42) 
NS(=O)(=O)c1ccccc1CN=c1[n-]c(=NCc2ccccc2)[n-]c(=NC2Cc3ccccc3C2)[n-]1

>  <Energy>  (42) 
73.14455869434805

>  <Genealogy>  (42) 
NS(=O)(=O)c1ccccc1CN=c1[n-]c(=NCc2ccccc2)[n-]c(=NC2Cc3ccccc3C2)[n-]1 (protonated)
NS(=O)(=O)c1ccccc1CN=c1[n-]c(=NCc2ccccc2)[n-]c(=NC2Cc3ccccc3C2)[n-]1 (3D coordinates assigned)
NS(=O)(=O)c1ccccc1CN=c1[n-]c(=NCc2ccccc2)[n-]c(=NC2Cc3ccccc3C2)[n-]1 (nonaromatic ring conformer: 73.14455869434805 kcal/mol)

>  <smiles>  (42) 
NS(=O)(=O)c1ccccc1CN=c1[nH]c(=NCc2ccccc2)[nH]c(=NC2Cc3ccccc3C2)[nH]1

>  <score_type>  (42) 
oracle

>  <origin>  (42) 
adg

>  <m_score__min__energy>  (42) 
-15.550000000000001

>  <m_primary>  (42) 
energy

$$$$
19:0
     RDKit          3D

 31 35  0  0  0  0  0  0  0  0999 V2000
   55.1440   26.7110   46.0200 O   0  0  0  0  0  0  0  0  0  0  0  0
   54.9610   25.3880   45.6270 C   0  0  0  0  0  0  0  0  0  0  0  0
   53.8230   24.7090   45.8530 N   0  0  0  0  0  0  0  0  0  0  0  0
   54.0830   23.4990   45.3180 C   0  0  0  0  0  0  0  0  0  0  0  0
   53.2470   22.5600   45.3290 O   0  0  0  0  0  0  0  0  0  0  0  0
   55.3090   23.3760   44.7710 N   0  0  0  0  0  0  0  0  0  0  0  0
   55.8710   24.5830   44.9670 C   0  0  0  0  0  0  0  0  0  0  0  0
   57.2350   24.9710   44.5400 C   0  0  0  0  0  0  0  0  0  0  0  0
   58.1490   25.5760   45.3180 C   0  0  0  0  0  0  0  0  0  0  0  0
   59.2360   25.0480   46.0110 C   0  0  0  0  0  0  0  0  0  0  0  0
   59.8810   26.0390   46.6680 N   0  0  0  0  0  0  0  0  0  0  0  0
   59.2510   27.1740   46.4210 N   0  0  0  0  0  0  0  0  0  0  0  0
   59.5150   28.4490   46.8510 C   0  0  0  0  0  0  0  0  0  0  0  0
   60.5000   28.8080   47.6410 N   0  0  0  0  0  0  0  0  0  0  0  0
   60.7810   29.3490   48.9850 C   0  0  0  0  0  0  0  0  0  0  0  0
   61.0800   30.8260   49.0980 C   0  0  0  0  0  0  0  0  0  0  0  0
   59.7440   30.2570   49.6060 C   0  0  0  0  0  0  0  0  0  0  0  0
   58.6780   29.4330   46.4240 N   0  0  0  0  0  0  0  0  0  0  0  0
   57.6150   29.1730   45.6050 C   0  0  0  0  0  0  0  0  0  0  0  0
   56.8220   30.1260   45.2170 N   0  0  0  0  0  0  0  0  0  0  0  0
   57.1720   31.1610   44.2430 C   0  0  0  0  0  0  0  0  0  0  0  0
   57.8460   32.3230   44.9240 C   0  0  0  0  0  0  0  0  0  0  0  0
   58.2210   33.4500   44.1780 C   0  0  0  0  0  0  0  0  0  0  0  0
   58.8260   34.5420   44.8080 C   0  0  0  0  0  0  0  0  0  0  0  0
   59.0500   34.5220   46.1880 C   0  0  0  0  0  0  0  0  0  0  0  0
   59.6440   35.5900   46.7790 F   0  0  0  0  0  0  0  0  0  0  0  0
   58.6610   33.4090   46.9500 C   0  0  0  0  0  0  0  0  0  0  0  0
   58.9170   33.3770   48.4300 C   0  0  0  0  0  0  0  0  0  0  0  0
   58.0720   32.3060   46.3110 C   0  0  0  0  0  0  0  0  0  0  0  0
   57.3760   27.9010   45.1920 N   0  0  0  0  0  0  0  0  0  0  0  0
   58.2090   26.9210   45.6140 C   0  0  0  0  0  0  0  0  0  0  0  0
  1  2  1  0
  2  3  1  0
  3  4  1  0
  4  5  2  0
  4  6  1  0
  6  7  1  0
  7  8  1  0
  8  9  2  0
  9 10  1  0
 10 11  2  0
 11 12  1  0
 12 13  1  0
 13 14  2  3
 14 15  1  0
 15 16  1  0
 16 17  1  0
 13 18  1  0
 18 19  1  0
 19 20  2  3
 20 21  1  0
 21 22  1  0
 22 23  2  0
 23 24  1  0
 24 25  2  0
 25 26  1  0
 25 27  1  0
 27 28  1  0
 27 29  2  0
 19 30  1  0
 30 31  2  0
  7  2  2  0
 31  9  1  0
 31 12  1  0
 17 15  1  0
 29 22  1  0
M  CHG  3   3  -1   6  -1  18  -1
M  END
>  <UniqueID>  (43) 
18

>  <SMILES>  (43) 
Cc1cc(CN=c2nc3/c(=C/c4[n-]c(=O)[n-]c4O)cnn3c(=NC3CC3)[n-]2)ccc1F

>  <Energy>  (43) 
411.6444127276279

>  <Genealogy>  (43) 
Cc1cc(CN=c2nc3c(=Cc4[n-]c(=O)[n-]c4O)cnn3c(=NC3CC3)[n-]2)ccc1F (protonated)
Cc1cc(CN=c2nc3/c(=C/c4[n-]c(=O)[n-]c4O)cnn3c(=NC3CC3)[n-]2)ccc1F (cis-trans isomerization)
Cc1cc(CN=c2nc3/c(=C/c4[n-]c(=O)[n-]c4O)cnn3c(=NC3CC3)[n-]2)ccc1F (3D coordinates assigned)
Cc1cc(CN=c2nc3/c(=C/c4[n-]c(=O)[n-]c4O)cnn3c(=NC3CC3)[n-]2)ccc1F (nonaromatic ring conformer: 411.6444127276279 kcal/mol)

>  <smiles>  (43) 
Cc1cc(CN=c2nc3c(=Cc4[nH]c(=O)[nH]c4O)cnn3c(=NC3CC3)[nH]2)ccc1F

>  <score_type>  (43) 
oracle

>  <origin>  (43) 
adg

>  <m_score__min__energy>  (43) 
-14.619999999999999

>  <m_primary>  (43) 
energy

$$$$
22:0
     RDKit          3D

 28 30  0  0  0  0  0  0  0  0999 V2000
   57.5420   23.4790   47.4330 O   0  0  0  0  0  0  0  0  0  0  0  0
   56.6570   24.1460   46.8330 C   0  0  0  0  0  0  0  0  0  0  0  0
   55.2970   24.0380   47.2780 N   0  0  0  0  0  0  0  0  0  0  0  0
   54.2170   23.6510   46.4570 N   0  0  0  0  0  0  0  0  0  0  0  0
   53.6520   24.5800   45.6310 C   0  0  0  0  0  0  0  0  0  0  0  0
   54.0740   25.7680   45.6190 O   0  0  0  0  0  0  0  0  0  0  0  0
   52.5890   24.2160   44.8060 C   0  0  0  0  0  0  0  0  0  0  0  0
   52.1500   22.9350   44.8290 N   0  0  0  0  0  0  0  0  0  0  0  0
   52.7270   22.0270   45.6150 N   0  0  0  0  0  0  0  0  0  0  0  0
   53.7650   22.3590   46.4250 C   0  0  0  0  0  0  0  0  0  0  0  0
   54.3130   21.4630   47.1200 O   0  0  0  0  0  0  0  0  0  0  0  0
   57.0380   24.9800   45.6700 C   0  0  0  0  0  0  0  0  0  0  0  0
   57.1240   24.4250   44.3820 C   0  0  0  0  0  0  0  0  0  0  0  0
   57.4890   25.2190   43.2940 C   0  0  0  0  0  0  0  0  0  0  0  0
   57.7850   26.5710   43.4800 C   0  0  0  0  0  0  0  0  0  0  0  0
   57.7240   27.1400   44.7570 C   0  0  0  0  0  0  0  0  0  0  0  0
   58.0540   28.5280   44.9030 N   0  0  0  0  0  0  0  0  0  0  0  0
   57.0490   29.8510   44.4060 S   0  0  0  0  0  0  0  0  0  0  0  0
   55.6680   29.6560   44.9660 O   0  0  0  0  0  0  0  0  0  0  0  0
   56.9710   29.8730   42.9060 O   0  0  0  0  0  0  0  0  0  0  0  0
   57.7390   31.3730   44.9620 C   0  0  0  0  0  0  0  0  0  0  0  0
   57.7600   32.4840   44.1080 C   0  0  0  0  0  0  0  0  0  0  0  0
   58.3240   33.6900   44.5360 C   0  0  0  0  0  0  0  0  0  0  0  0
   58.8660   33.7920   45.8230 C   0  0  0  0  0  0  0  0  0  0  0  0
   59.5730   35.3040   46.3600 Cl  0  0  0  0  0  0  0  0  0  0  0  0
   58.8420   32.6860   46.6800 C   0  0  0  0  0  0  0  0  0  0  0  0
   58.2800   31.4800   46.2510 C   0  0  0  0  0  0  0  0  0  0  0  0
   57.3490   26.3400   45.8510 C   0  0  0  0  0  0  0  0  0  0  0  0
  1  2  2  0
  2  3  1  0
  3  4  1  0
  4  5  1  0
  5  6  2  0
  5  7  1  0
  7  8  2  0
  8  9  1  0
  9 10  1  0
 10 11  2  0
  2 12  1  0
 12 13  2  0
 13 14  1  0
 14 15  2  0
 15 16  1  0
 16 17  1  0
 17 18  1  0
 18 19  2  0
 18 20  2  0
 18 21  1  0
 21 22  2  0
 22 23  1  0
 23 24  2  0
 24 25  1  0
 24 26  1  0
 26 27  2  0
 16 28  2  0
 10  4  1  0
 28 12  1  0
 27 21  1  0
M  CHG  3   3  -1   9  -1  17  -1
M  END
>  <UniqueID>  (44) 
21

>  <SMILES>  (44) 
O=C([N-]n1c(=O)cn[n-]c1=O)c1cccc([N-]S(=O)(=O)c2ccc(Cl)cc2)c1

>  <Energy>  (44) 
54.86732018565452

>  <Genealogy>  (44) 
O=C([N-]n1c(=O)cn[n-]c1=O)c1cccc([N-]S(=O)(=O)c2ccc(Cl)cc2)c1 (protonated)
O=C([N-]n1c(=O)cn[n-]c1=O)c1cccc([N-]S(=O)(=O)c2ccc(Cl)cc2)c1 (3D coordinates assigned)
O=C([N-]n1c(=O)cn[n-]c1=O)c1cccc([N-]S(=O)(=O)c2ccc(Cl)cc2)c1 (optimized conformer: 54.86732018565452 kcal/mol)

>  <smiles>  (44) 
O=C(Nn1c(=O)cn[nH]c1=O)c1cccc(NS(=O)(=O)c2ccc(Cl)cc2)c1

>  <score_type>  (44) 
oracle

>  <origin>  (44) 
adg

>  <m_score__min__energy>  (44) 
-14.16

>  <m_primary>  (44) 
energy

$$$$
75:0
     RDKit          3D

 37 41  0  0  0  0  0  0  0  0999 V2000
   57.3530   34.3800   46.2990 O   0  0  0  0  0  0  0  0  0  0  0  0
   58.3580   33.8850   45.7200 C   0  0  0  0  0  0  0  0  0  0  0  0
   59.6820   34.5980   45.8010 C   0  0  0  0  0  0  0  0  0  0  0  0
   60.6660   33.8110   46.6120 C   0  0  0  0  0  0  0  0  0  0  0  0
   62.0000   33.9770   46.4120 N   0  0  0  0  0  0  0  0  0  0  0  0
   62.9060   33.3030   47.1640 C   0  0  0  0  0  0  0  0  0  0  0  0
   64.1370   33.4720   46.9600 O   0  0  0  0  0  0  0  0  0  0  0  0
   62.4730   32.4310   48.1640 C   0  0  0  0  0  0  0  0  0  0  0  0
   61.0900   32.2650   48.3690 C   0  0  0  0  0  0  0  0  0  0  0  0
   60.5670   31.3900   49.4020 N   0  0  0  0  0  0  0  0  0  0  0  0
   61.4210   30.3580   50.0100 C   0  0  0  0  0  0  0  0  0  0  0  0
   60.6120   29.3310   50.8100 C   0  0  0  0  0  0  0  0  0  0  0  0
   59.6570   29.9660   51.6300 O   0  0  0  0  0  0  0  0  0  0  0  0
   58.6860   30.5780   50.8120 C   0  0  0  0  0  0  0  0  0  0  0  0
   59.2900   31.7520   50.0440 C   0  0  0  0  0  0  0  0  0  0  0  0
   60.2270   32.9690   47.5850 N   0  0  0  0  0  0  0  0  0  0  0  0
   58.2100   32.7040   44.9090 N   0  0  0  0  0  0  0  0  0  0  0  0
   57.7780   32.7200   43.5080 C   0  0  0  0  0  0  0  0  0  0  0  0
   57.4600   31.2530   43.1360 C   0  0  0  0  0  0  0  0  0  0  0  0
   57.8110   30.5030   44.3700 C   0  0  0  0  0  0  0  0  0  0  0  0
   57.7510   29.1260   44.5760 C   0  0  0  0  0  0  0  0  0  0  0  0
   58.1420   28.6110   45.8260 C   0  0  0  0  0  0  0  0  0  0  0  0
   58.0150   26.8810   46.1280 S   0  0  0  0  0  0  0  0  0  0  0  0
   57.3860   26.6130   47.4670 O   0  0  0  0  0  0  0  0  0  0  0  0
   59.3950   26.2860   46.1090 O   0  0  0  0  0  0  0  0  0  0  0  0
   57.0520   26.1460   44.8830 N   0  0  0  0  0  0  0  0  0  0  0  0
   56.2570   24.9660   45.1000 C   0  0  0  0  0  0  0  0  0  0  0  0
   56.7520   23.6850   44.7830 C   0  0  0  0  0  0  0  0  0  0  0  0
   55.9730   22.5480   45.0110 C   0  0  0  0  0  0  0  0  0  0  0  0
   54.6900   22.6730   45.5470 C   0  0  0  0  0  0  0  0  0  0  0  0
   54.1820   23.9380   45.8540 C   0  0  0  0  0  0  0  0  0  0  0  0
   52.9350   24.0520   46.3730 F   0  0  0  0  0  0  0  0  0  0  0  0
   54.9580   25.0830   45.6300 C   0  0  0  0  0  0  0  0  0  0  0  0
   54.4360   26.3330   45.9480 O   0  0  0  0  0  0  0  0  0  0  0  0
   58.5990   29.4880   46.8340 C   0  0  0  0  0  0  0  0  0  0  0  0
   58.6510   30.8710   46.6000 C   0  0  0  0  0  0  0  0  0  0  0  0
   58.2280   31.3560   45.3550 C   0  0  0  0  0  0  0  0  0  0  0  0
  1  2  2  0
  2  3  1  0
  3  4  1  0
  4  5  2  0
  5  6  1  0
  6  7  2  0
  6  8  1  0
  8  9  2  0
  9 10  1  0
 10 11  1  0
 11 12  1  0
 12 13  1  0
 13 14  1  0
 14 15  1  0
  9 16  1  0
  2 17  1  0
 17 18  1  0
 18 19  1  0
 19 20  1  0
 20 21  2  0
 21 22  1  0
 22 23  1  0
 23 24  2  0
 23 25  2  0
 23 26  1  0
 26 27  1  0
 27 28  2  0
 28 29  1  0
 29 30  2  0
 30 31  1  0
 31 32  1  0
 31 33  2  0
 33 34  1  0
 22 35  2  0
 35 36  1  0
 36 37  2  0
 16  4  1  0
 37 17  1  0
 15 10  1  0
 37 20  1  0
 33 27  1  0
M  CHG  2  16  -1  34  -1
M  END
>  <UniqueID>  (45) 
70

>  <SMILES>  (45) 
O=C(Cc1nc(=O)cc(N2CCOCC2)[n-]1)N1CCc2cc(S(=O)(=O)Nc3cccc(F)c3[O-])ccc21

>  <Energy>  (45) 
88.1332472847087

>  <Genealogy>  (45) 
O=C(Cc1nc(=O)cc(N2CCOCC2)[n-]1)N1CCc2cc(S(=O)(=O)Nc3cccc(F)c3[O-])ccc21 (protonated)
O=C(Cc1nc(=O)cc(N2CCOCC2)[n-]1)N1CCc2cc(S(=O)(=O)Nc3cccc(F)c3[O-])ccc21 (3D coordinates assigned)
O=C(Cc1nc(=O)cc(N2CCOCC2)[n-]1)N1CCc2cc(S(=O)(=O)Nc3cccc(F)c3[O-])ccc21 (nonaromatic ring conformer: 88.1332472847087 kcal/mol)

>  <smiles>  (45) 
O=C(Cc1nc(=O)cc(N2CCOCC2)[nH]1)N1CCc2cc(S(=O)(=O)Nc3cccc(F)c3O)ccc21

>  <score_type>  (45) 
oracle

>  <origin>  (45) 
adg

>  <m_score__min__energy>  (45) 
-14.869999999999999

>  <m_primary>  (45) 
energy

$$$$
78:0
     RDKit          3D

 33 36  0  0  0  0  0  0  0  0999 V2000
   56.1220   29.1860   52.2920 O   0  0  0  0  0  0  0  0  0  0  0  0
   56.9370   30.2780   52.0010 C   0  0  0  0  0  0  0  0  0  0  0  0
   56.5250   31.5630   52.3640 C   0  0  0  0  0  0  0  0  0  0  0  0
   57.3310   32.6690   52.0780 C   0  0  0  0  0  0  0  0  0  0  0  0
   58.5580   32.5010   51.4130 C   0  0  0  0  0  0  0  0  0  0  0  0
   59.4110   33.6770   51.1150 C   0  0  0  0  0  0  0  0  0  0  0  0
   59.5860   34.5530   52.0030 O   0  0  0  0  0  0  0  0  0  0  0  0
   60.0860   33.8280   49.8600 N   0  0  0  0  0  0  0  0  0  0  0  0
   59.6700   33.2670   48.6060 C   0  0  0  0  0  0  0  0  0  0  0  0
   58.6940   33.8800   47.8060 C   0  0  0  0  0  0  0  0  0  0  0  0
   58.3350   33.3220   46.6200 N   0  0  0  0  0  0  0  0  0  0  0  0
   58.8920   32.1710   46.1570 C   0  0  0  0  0  0  0  0  0  0  0  0
   58.4850   31.7000   45.0110 N   0  0  0  0  0  0  0  0  0  0  0  0
   57.4220   30.7610   44.7830 C   0  0  0  0  0  0  0  0  0  0  0  0
   56.3310   31.1890   44.3240 O   0  0  0  0  0  0  0  0  0  0  0  0
   57.5490   29.3320   45.1720 C   0  0  0  0  0  0  0  0  0  0  0  0
   58.8150   28.7960   45.4650 C   0  0  0  0  0  0  0  0  0  0  0  0
   58.9540   27.4560   45.8290 C   0  0  0  0  0  0  0  0  0  0  0  0
   57.8290   26.6220   45.9190 C   0  0  0  0  0  0  0  0  0  0  0  0
   57.9740   25.2330   46.2770 N   0  0  0  0  0  0  0  0  0  0  0  0
   59.2180   24.5060   46.0110 C   0  0  0  0  0  0  0  0  0  0  0  0
   58.9320   23.2520   45.1620 C   0  0  0  0  0  0  0  0  0  0  0  0
   57.5990   22.6450   45.4130 N   0  0  0  0  0  0  0  0  0  0  0  0
   56.6510   22.9340   44.3230 C   0  0  0  0  0  0  0  0  0  0  0  0
   57.0350   22.9930   46.7360 C   0  0  0  0  0  0  0  0  0  0  0  0
   56.8610   24.5110   46.9030 C   0  0  0  0  0  0  0  0  0  0  0  0
   56.5620   27.1510   45.6240 C   0  0  0  0  0  0  0  0  0  0  0  0
   56.4190   28.4930   45.2560 C   0  0  0  0  0  0  0  0  0  0  0  0
   55.1470   28.9770   44.9620 O   0  0  0  0  0  0  0  0  0  0  0  0
   59.9090   31.5520   46.9140 C   0  0  0  0  0  0  0  0  0  0  0  0
   60.2920   32.1090   48.1350 C   0  0  0  0  0  0  0  0  0  0  0  0
   58.9740   31.2030   51.0650 C   0  0  0  0  0  0  0  0  0  0  0  0
   58.1660   30.1000   51.3530 C   0  0  0  0  0  0  0  0  0  0  0  0
  1  2  1  0
  2  3  2  0
  3  4  1  0
  4  5  2  0
  5  6  1  0
  6  7  2  0
  6  8  1  0
  8  9  1  0
  9 10  2  0
 10 11  1  0
 11 12  1  0
 12 13  2  0
 13 14  1  0
 14 15  2  0
 14 16  1  0
 16 17  2  0
 17 18  1  0
 18 19  2  0
 19 20  1  0
 20 21  1  0
 21 22  1  0
 22 23  1  0
 23 24  1  0
 23 25  1  0
 25 26  1  0
 19 27  1  0
 27 28  2  0
 28 29  1  0
 12 30  1  0
 30 31  2  0
  5 32  1  0
 32 33  2  0
 33  2  1  0
 31  9  1  0
 28 16  1  0
 26 20  1  0
M  CHG  3   8  -1  11  -1  29  -1
M  END
>  <UniqueID>  (46) 
70

>  <SMILES>  (46) 
CN1CCN(c2ccc(C(=O)/N=c3\ccc([N-]C(=O)c4ccc(O)cc4)c[n-]3)c([O-])c2)CC1

>  <Energy>  (46) 
88.99784494113342

>  <Genealogy>  (46) 
CN1CCN(c2ccc(C(=O)N=c3ccc([N-]C(=O)c4ccc(O)cc4)c[n-]3)c([O-])c2)CC1 (protonated)
CN1CCN(c2ccc(C(=O)/N=c3\ccc([N-]C(=O)c4ccc(O)cc4)c[n-]3)c([O-])c2)CC1 (cis-trans isomerization)
CN1CCN(c2ccc(C(=O)/N=c3\ccc([N-]C(=O)c4ccc(O)cc4)c[n-]3)c([O-])c2)CC1 (3D coordinates assigned)
CN1CCN(c2ccc(C(=O)/N=c3\ccc([N-]C(=O)c4ccc(O)cc4)c[n-]3)c([O-])c2)CC1 (nonaromatic ring conformer: 88.99784494113342 kcal/mol)

>  <smiles>  (46) 
CN1CCN(c2ccc(C(=O)N=c3ccc(NC(=O)c4ccc(O)cc4)c[nH]3)c(O)c2)CC1

>  <score_type>  (46) 
oracle

>  <origin>  (46) 
adg

>  <m_score__min__energy>  (46) 
-14.15

>  <m_primary>  (46) 
energy

$$$$
5:0
     RDKit          3D

 29 33  0  0  0  0  0  0  0  0999 V2000
   54.9680   26.7120   45.9950 O   0  0  0  0  0  0  0  0  0  0  0  0
   56.0150   25.8840   46.3870 C   0  0  0  0  0  0  0  0  0  0  0  0
   55.8870   24.8820   47.2730 N   0  0  0  0  0  0  0  0  0  0  0  0
   57.1420   24.3920   47.3460 C   0  0  0  0  0  0  0  0  0  0  0  0
   57.4500   23.4240   48.0880 O   0  0  0  0  0  0  0  0  0  0  0  0
   58.0430   25.0260   46.5650 N   0  0  0  0  0  0  0  0  0  0  0  0
   57.3120   25.9660   45.9390 C   0  0  0  0  0  0  0  0  0  0  0  0
   57.8410   27.0020   45.0330 C   0  0  0  0  0  0  0  0  0  0  0  0
   57.5710   28.3170   45.1010 C   0  0  0  0  0  0  0  0  0  0  0  0
   56.7410   29.0150   44.2230 C   0  0  0  0  0  0  0  0  0  0  0  0
   56.7030   30.3260   44.5570 N   0  0  0  0  0  0  0  0  0  0  0  0
   57.4900   30.4740   45.6100 N   0  0  0  0  0  0  0  0  0  0  0  0
   57.7780   31.6200   46.2730 C   0  0  0  0  0  0  0  0  0  0  0  0
   57.2150   32.7410   45.9070 N   0  0  0  0  0  0  0  0  0  0  0  0
   57.7620   34.0580   45.5300 C   0  0  0  0  0  0  0  0  0  0  0  0
   58.8380   34.6060   46.4500 C   0  0  0  0  0  0  0  0  0  0  0  0
   59.1980   34.1360   45.0400 C   0  0  0  0  0  0  0  0  0  0  0  0
   58.6600   31.5460   47.3100 N   0  0  0  0  0  0  0  0  0  0  0  0
   59.2360   30.3530   47.6590 C   0  0  0  0  0  0  0  0  0  0  0  0
   60.0970   30.2840   48.6310 N   0  0  0  0  0  0  0  0  0  0  0  0
   60.6390   31.4300   49.3610 C   0  0  0  0  0  0  0  0  0  0  0  0
   61.7120   32.1400   48.5740 C   0  0  0  0  0  0  0  0  0  0  0  0
   63.0480   32.0880   49.0060 C   0  0  0  0  0  0  0  0  0  0  0  0
   64.0460   32.7670   48.3000 C   0  0  0  0  0  0  0  0  0  0  0  0
   63.7150   33.5220   47.1720 C   0  0  0  0  0  0  0  0  0  0  0  0
   62.3840   33.6040   46.7520 C   0  0  0  0  0  0  0  0  0  0  0  0
   61.3840   32.9260   47.4540 C   0  0  0  0  0  0  0  0  0  0  0  0
   58.9180   29.2180   46.9740 N   0  0  0  0  0  0  0  0  0  0  0  0
   58.0260   29.3030   45.9610 C   0  0  0  0  0  0  0  0  0  0  0  0
  1  2  1  0
  2  3  1  0
  3  4  1  0
  4  5  2  0
  4  6  1  0
  6  7  1  0
  7  8  1  0
  8  9  2  3
  9 10  1  0
 10 11  2  0
 11 12  1  0
 12 13  1  0
 13 14  2  0
 14 15  1  0
 15 16  1  0
 16 17  1  0
 13 18  1  0
 18 19  1  0
 19 20  2  0
 20 21  1  0
 21 22  1  0
 22 23  2  0
 23 24  1  0
 24 25  2  0
 25 26  1  0
 26 27  2  0
 19 28  1  0
 28 29  2  0
  7  2  2  0
 29  9  1  0
 29 12  1  0
 17 15  1  0
 27 22  1  0
M  CHG  3   3  -1   6  -1  18  -1
M  END
>  <UniqueID>  (47) 
6

>  <SMILES>  (47) 
O=c1[n-]c(O)c(C=c2cnn3/c(=N/C4CC4)[n-]/c(=N\Cc4ccccc4)nc23)[n-]1

>  <Energy>  (47) 
393.788848526954

>  <Genealogy>  (47) 
O=c1[n-]c(O)c(C=c2cnn3c(=NC4CC4)[n-]c(=NCc4ccccc4)nc23)[n-]1 (protonated)
O=c1[n-]c(O)c(C=c2cnn3/c(=N/C4CC4)[n-]/c(=N\Cc4ccccc4)nc23)[n-]1 (cis-trans isomerization)
O=c1[n-]c(O)c(C=c2cnn3/c(=N/C4CC4)[n-]/c(=N\Cc4ccccc4)nc23)[n-]1 (3D coordinates assigned)
O=c1[n-]c(O)c(C=c2cnn3/c(=N/C4CC4)[n-]/c(=N\Cc4ccccc4)nc23)[n-]1 (nonaromatic ring conformer: 393.788848526954 kcal/mol)

>  <smiles>  (47) 
O=c1[nH]c(O)c(C=c2cnn3c(=NC4CC4)[nH]c(=NCc4ccccc4)nc23)[nH]1

>  <score_type>  (47) 
oracle

>  <origin>  (47) 
adg

>  <m_score__min__energy>  (47) 
-14.59

>  <m_primary>  (47) 
energy

$$$$
74:0
     RDKit          3D

 23 24  0  0  0  0  0  0  0  0999 V2000
   55.8910   28.2480   45.2080 N   0  0  0  0  0  0  0  0  0  0  0  0
   57.2710   29.2620   44.9800 S   0  0  0  0  0  0  0  0  0  0  0  0
   56.8280   30.6930   44.8480 O   0  0  0  0  0  0  0  0  0  0  0  0
   57.9870   28.8600   43.7220 O   0  0  0  0  0  0  0  0  0  0  0  0
   58.3480   29.1000   46.3630 C   0  0  0  0  0  0  0  0  0  0  0  0
   59.3410   28.1120   46.3710 C   0  0  0  0  0  0  0  0  0  0  0  0
   60.1960   27.9870   47.4680 C   0  0  0  0  0  0  0  0  0  0  0  0
   60.0580   28.8390   48.5660 C   0  0  0  0  0  0  0  0  0  0  0  0
   59.0530   29.8220   48.5850 C   0  0  0  0  0  0  0  0  0  0  0  0
   58.9180   30.7160   49.7610 C   0  0  0  0  0  0  0  0  0  0  0  0
   59.8920   31.4430   50.0950 O   0  0  0  0  0  0  0  0  0  0  0  0
   57.7040   30.7540   50.5320 N   0  0  0  0  0  0  0  0  0  0  0  0
   57.5180   31.6730   51.6540 C   0  0  0  0  0  0  0  0  0  0  0  0
   56.3330   31.2470   52.5190 C   0  0  0  0  0  0  0  0  0  0  0  0
   55.2770   30.6880   51.6760 N   0  0  0  0  0  0  0  0  0  0  0  0
   54.0010   30.6880   51.9400 C   0  0  0  0  0  0  0  0  0  0  0  0
   53.3990   29.7240   52.7760 C   0  0  0  0  0  0  0  0  0  0  0  0
   52.0230   29.7840   53.0140 C   0  0  0  0  0  0  0  0  0  0  0  0
   51.2730   30.7630   52.4450 N   0  0  0  0  0  0  0  0  0  0  0  0
   51.8250   31.7060   51.6360 C   0  0  0  0  0  0  0  0  0  0  0  0
   51.0220   32.6900   51.0730 O   0  0  0  0  0  0  0  0  0  0  0  0
   53.1970   31.6840   51.3700 C   0  0  0  0  0  0  0  0  0  0  0  0
   58.2040   29.9490   47.4700 C   0  0  0  0  0  0  0  0  0  0  0  0
  1  2  1  0
  2  3  2  0
  2  4  2  0
  2  5  1  0
  5  6  2  0
  6  7  1  0
  7  8  2  0
  8  9  1  0
  9 10  1  0
 10 11  2  0
 10 12  1  0
 12 13  1  0
 13 14  1  0
 14 15  1  0
 15 16  2  0
 16 17  1  0
 17 18  2  0
 18 19  1  0
 19 20  1  0
 20 21  1  0
 20 22  2  0
  9 23  2  0
 23  5  1  0
 22 16  1  0
M  CHG  3   1  -1  19  -1  21  -1
M  END
>  <UniqueID>  (48) 
69

>  <SMILES>  (48) 
[NH-]S(=O)(=O)c1cccc(C(=O)NCC/N=c2\cc[n-]c([O-])c2)c1

>  <Energy>  (48) 
36.93889704201148

>  <Genealogy>  (48) 
[NH-]S(=O)(=O)c1cccc(C(=O)NCCN=c2cc[n-]c([O-])c2)c1 (protonated)
[NH-]S(=O)(=O)c1cccc(C(=O)NCC/N=c2\cc[n-]c([O-])c2)c1 (cis-trans isomerization)
[NH-]S(=O)(=O)c1cccc(C(=O)NCC/N=c2\cc[n-]c([O-])c2)c1 (3D coordinates assigned)
[NH-]S(=O)(=O)c1cccc(C(=O)NCC/N=c2\cc[n-]c([O-])c2)c1 (optimized conformer: 36.93889704201148 kcal/mol)

>  <smiles>  (48) 
NS(=O)(=O)c1cccc(C(=O)NCCN=c2cc[nH]c(O)c2)c1

>  <score_type>  (48) 
oracle

>  <origin>  (48) 
adg

>  <m_score__min__energy>  (48) 
-15.84

>  <m_primary>  (48) 
energy

$$$$
6:0
     RDKit          3D

 28 30  0  0  0  0  0  0  0  0999 V2000
   59.5310   30.8800   46.0160 O   0  0  0  0  0  0  0  0  0  0  0  0
   58.5500   30.4640   45.3430 C   0  0  0  0  0  0  0  0  0  0  0  0
   58.6900   29.2300   44.5090 C   0  0  0  0  0  0  0  0  0  0  0  0
   58.0860   28.0810   45.2020 N   0  0  0  0  0  0  0  0  0  0  0  0
   58.9100   27.0990   45.6800 C   0  0  0  0  0  0  0  0  0  0  0  0
   58.3870   25.9760   46.3220 C   0  0  0  0  0  0  0  0  0  0  0  0
   57.0090   25.8540   46.4930 C   0  0  0  0  0  0  0  0  0  0  0  0
   56.4970   24.6860   47.1510 N   0  0  0  0  0  0  0  0  0  0  0  0
   56.7520   23.3330   46.7540 C   0  0  0  0  0  0  0  0  0  0  0  0
   57.0640   22.4680   47.6190 O   0  0  0  0  0  0  0  0  0  0  0  0
   56.6940   22.9730   45.3260 C   0  0  0  0  0  0  0  0  0  0  0  0
   55.8940   23.6920   44.4210 C   0  0  0  0  0  0  0  0  0  0  0  0
   55.8680   23.3170   43.0760 C   0  0  0  0  0  0  0  0  0  0  0  0
   56.6360   22.2350   42.6420 C   0  0  0  0  0  0  0  0  0  0  0  0
   57.4210   21.5420   43.5660 C   0  0  0  0  0  0  0  0  0  0  0  0
   57.4330   21.9210   44.8720 N   0  0  0  0  0  0  0  0  0  0  0  0
   56.1630   26.8390   45.9550 C   0  0  0  0  0  0  0  0  0  0  0  0
   54.7790   26.7030   46.0190 O   0  0  0  0  0  0  0  0  0  0  0  0
   56.7220   27.9540   45.3130 C   0  0  0  0  0  0  0  0  0  0  0  0
   55.9540   28.8300   44.8290 O   0  0  0  0  0  0  0  0  0  0  0  0
   57.3100   31.1820   45.3450 N   0  0  0  0  0  0  0  0  0  0  0  0
   57.1610   32.5360   44.8270 C   0  0  0  0  0  0  0  0  0  0  0  0
   58.0470   33.4870   45.5860 C   0  0  0  0  0  0  0  0  0  0  0  0
   58.0930   33.4550   46.9910 C   0  0  0  0  0  0  0  0  0  0  0  0
   58.9010   34.3580   47.6880 C   0  0  0  0  0  0  0  0  0  0  0  0
   59.6650   35.3010   46.9910 C   0  0  0  0  0  0  0  0  0  0  0  0
   59.6180   35.3420   45.5930 C   0  0  0  0  0  0  0  0  0  0  0  0
   58.8110   34.4420   44.8920 C   0  0  0  0  0  0  0  0  0  0  0  0
  1  2  2  0
  2  3  1  0
  3  4  1  0
  4  5  1  0
  5  6  2  0
  6  7  1  0
  7  8  1  0
  8  9  1  0
  9 10  2  0
  9 11  1  0
 11 12  2  0
 12 13  1  0
 13 14  2  0
 14 15  1  0
 15 16  2  0
  7 17  2  0
 17 18  1  0
 17 19  1  0
 19 20  2  0
  2 21  1  0
 21 22  1  0
 22 23  1  0
 23 24  2  0
 24 25  1  0
 25 26  2  0
 26 27  1  0
 27 28  2  0
 19  4  1  0
 28 23  1  0
 16 11  1  0
M  CHG  3   8  -1  18  -1  21  -1
M  END
>  <UniqueID>  (49) 
7

>  <SMILES>  (49) 
O=C(Cn1ccc([N-]C(=O)c2ccccn2)c([O-])c1=O)[N-]Cc1ccccc1

>  <Energy>  (49) 
51.14197403024005

>  <Genealogy>  (49) 
O=C(Cn1ccc([N-]C(=O)c2ccccn2)c([O-])c1=O)[N-]Cc1ccccc1 (protonated)
O=C(Cn1ccc([N-]C(=O)c2ccccn2)c([O-])c1=O)[N-]Cc1ccccc1 (3D coordinates assigned)
O=C(Cn1ccc([N-]C(=O)c2ccccn2)c([O-])c1=O)[N-]Cc1ccccc1 (optimized conformer: 51.14197403024005 kcal/mol)

>  <smiles>  (49) 
O=C(Cn1ccc(NC(=O)c2ccccn2)c(O)c1=O)NCc1ccccc1

>  <score_type>  (49) 
oracle

>  <origin>  (49) 
adg

>  <m_score__min__energy>  (49) 
-15.609999999999999

>  <m_primary>  (49) 
energy

$$$$
73:0
     RDKit          3D

 30 34  0  0  0  0  0  0  0  0999 V2000
   55.1210   26.6700   45.7980 O   0  0  0  0  0  0  0  0  0  0  0  0
   56.1180   25.8960   46.3820 C   0  0  0  0  0  0  0  0  0  0  0  0
   55.8810   24.8930   47.2430 N   0  0  0  0  0  0  0  0  0  0  0  0
   57.1250   24.4660   47.5470 C   0  0  0  0  0  0  0  0  0  0  0  0
   57.3410   23.5170   48.3440 O   0  0  0  0  0  0  0  0  0  0  0  0
   58.1200   25.1410   46.9330 N   0  0  0  0  0  0  0  0  0  0  0  0
   57.4690   26.0410   46.1740 C   0  0  0  0  0  0  0  0  0  0  0  0
   58.1030   27.1000   45.3670 C   0  0  0  0  0  0  0  0  0  0  0  0
   57.8630   28.4180   45.4730 C   0  0  0  0  0  0  0  0  0  0  0  0
   57.1350   29.1760   44.5660 C   0  0  0  0  0  0  0  0  0  0  0  0
   57.1090   30.4680   44.9620 N   0  0  0  0  0  0  0  0  0  0  0  0
   57.7980   30.5650   46.0850 N   0  0  0  0  0  0  0  0  0  0  0  0
   58.0940   31.6670   46.8460 C   0  0  0  0  0  0  0  0  0  0  0  0
   57.6660   32.8900   46.6320 N   0  0  0  0  0  0  0  0  0  0  0  0
   58.1330   34.2480   46.2890 C   0  0  0  0  0  0  0  0  0  0  0  0
   59.4390   34.3730   45.5370 C   0  0  0  0  0  0  0  0  0  0  0  0
   59.3460   34.7770   47.0190 C   0  0  0  0  0  0  0  0  0  0  0  0
   58.9000   31.4780   47.9280 N   0  0  0  0  0  0  0  0  0  0  0  0
   59.3980   30.2450   48.2450 C   0  0  0  0  0  0  0  0  0  0  0  0
   60.1690   30.0830   49.2770 N   0  0  0  0  0  0  0  0  0  0  0  0
   61.6270   30.1580   49.2320 C   0  0  0  0  0  0  0  0  0  0  0  0
   62.0410   31.5030   48.6890 C   0  0  0  0  0  0  0  0  0  0  0  0
   62.8760   31.5490   47.5590 C   0  0  0  0  0  0  0  0  0  0  0  0
   63.2990   32.7730   47.0380 C   0  0  0  0  0  0  0  0  0  0  0  0
   62.9030   33.9650   47.6440 C   0  0  0  0  0  0  0  0  0  0  0  0
   62.0890   33.9390   48.7780 C   0  0  0  0  0  0  0  0  0  0  0  0
   61.6600   32.7140   49.3210 C   0  0  0  0  0  0  0  0  0  0  0  0
   60.7820   32.7230   50.5450 C   0  0  0  0  0  0  0  0  0  0  0  0
   59.0850   29.1720   47.4760 N   0  0  0  0  0  0  0  0  0  0  0  0
   58.2700   29.3510   46.4120 C   0  0  0  0  0  0  0  0  0  0  0  0
  1  2  1  0
  2  3  1  0
  3  4  1  0
  4  5  2  0
  4  6  1  0
  6  7  1  0
  7  8  1  0
  8  9  2  0
  9 10  1  0
 10 11  2  0
 11 12  1  0
 12 13  1  0
 13 14  2  0
 14 15  1  0
 15 16  1  0
 16 17  1  0
 13 18  1  0
 18 19  1  0
 19 20  2  3
 20 21  1  0
 21 22  1  0
 22 23  2  0
 23 24  1  0
 24 25  2  0
 25 26  1  0
 26 27  2  0
 27 28  1  0
 19 29  1  0
 29 30  2  0
  7  2  2  0
 30  9  1  0
 30 12  1  0
 17 15  1  0
 27 22  1  0
M  CHG  3   3  -1   6  -1  18  -1
M  END
>  <UniqueID>  (50) 
70

>  <SMILES>  (50) 
Cc1ccccc1CN=c1nc2/c(=C\c3[n-]c(=O)[n-]c3O)cnn2/c(=N\C2CC2)[n-]1

>  <Energy>  (50) 
414.5297179950032

>  <Genealogy>  (50) 
Cc1ccccc1CN=c1nc2c(=Cc3[n-]c(=O)[n-]c3O)cnn2c(=NC2CC2)[n-]1 (protonated)
Cc1ccccc1CN=c1nc2/c(=C\c3[n-]c(=O)[n-]c3O)cnn2/c(=N\C2CC2)[n-]1 (cis-trans isomerization)
Cc1ccccc1CN=c1nc2/c(=C\c3[n-]c(=O)[n-]c3O)cnn2/c(=N\C2CC2)[n-]1 (3D coordinates assigned)
Cc1ccccc1CN=c1nc2/c(=C\c3[n-]c(=O)[n-]c3O)cnn2/c(=N\C2CC2)[n-]1 (nonaromatic ring conformer: 414.5297179950032 kcal/mol)

>  <smiles>  (50) 
Cc1ccccc1CN=c1nc2c(=Cc3[nH]c(=O)[nH]c3O)cnn2c(=NC2CC2)[nH]1

>  <score_type>  (50) 
oracle

>  <origin>  (50) 
adg

>  <m_score__min__energy>  (50) 
-14.9

>  <m_primary>  (50) 
energy

$$$$
34:0
     RDKit          3D

 25 27  0  0  0  0  0  0  0  0999 V2000
   57.4320   32.9940   47.8200 N   0  0  0  0  0  0  0  0  0  0  0  0
   58.6700   31.7900   47.7620 S   0  0  0  0  0  0  0  0  0  0  0  0
   58.1440   30.5630   47.0700 O   0  0  0  0  0  0  0  0  0  0  0  0
   59.8430   32.3160   46.9830 O   0  0  0  0  0  0  0  0  0  0  0  0
   59.1770   31.3870   49.3980 C   0  0  0  0  0  0  0  0  0  0  0  0
   60.5250   31.4960   49.7640 C   0  0  0  0  0  0  0  0  0  0  0  0
   60.9260   31.1970   51.0680 C   0  0  0  0  0  0  0  0  0  0  0  0
   59.9850   30.7790   52.0130 C   0  0  0  0  0  0  0  0  0  0  0  0
   58.6360   30.6490   51.6580 C   0  0  0  0  0  0  0  0  0  0  0  0
   57.7190   30.2370   52.6360 O   0  0  0  0  0  0  0  0  0  0  0  0
   56.3290   30.1530   52.4620 C   0  0  0  0  0  0  0  0  0  0  0  0
   55.6370   31.2850   52.0180 C   0  0  0  0  0  0  0  0  0  0  0  0
   54.2520   31.2430   51.8370 C   0  0  0  0  0  0  0  0  0  0  0  0
   53.5360   30.0690   52.1190 C   0  0  0  0  0  0  0  0  0  0  0  0
   52.0520   30.0110   51.8830 C   0  0  0  0  0  0  0  0  0  0  0  0
   51.3990   31.2490   52.4130 C   0  0  0  0  0  0  0  0  0  0  0  0
   51.1840   31.6100   54.0450 S   0  0  0  0  0  0  0  0  0  0  0  0
   50.5200   33.1180   53.7080 C   0  0  0  0  0  0  0  0  0  0  0  0
   50.1220   33.9290   54.5830 O   0  0  0  0  0  0  0  0  0  0  0  0
   50.4620   33.3780   52.3840 N   0  0  0  0  0  0  0  0  0  0  0  0
   50.9590   32.3380   51.6620 C   0  0  0  0  0  0  0  0  0  0  0  0
   51.0190   32.3770   50.2750 O   0  0  0  0  0  0  0  0  0  0  0  0
   54.2260   28.9370   52.5790 C   0  0  0  0  0  0  0  0  0  0  0  0
   55.6120   28.9810   52.7600 C   0  0  0  0  0  0  0  0  0  0  0  0
   58.2330   30.9780   50.3500 C   0  0  0  0  0  0  0  0  0  0  0  0
  1  2  1  0
  2  3  2  0
  2  4  2  0
  2  5  1  0
  5  6  2  0
  6  7  1  0
  7  8  2  0
  8  9  1  0
  9 10  1  0
 10 11  1  0
 11 12  2  0
 12 13  1  0
 13 14  2  0
 14 15  1  0
 15 16  1  0
 16 17  1  0
 17 18  1  0
 18 19  2  0
 18 20  1  0
 20 21  1  0
 21 22  1  0
 14 23  1  0
 23 24  2  0
  9 25  2  0
 25  5  1  0
 24 11  1  0
 21 16  2  0
M  CHG  3   1  -1  20  -1  22  -1
M  END
>  <UniqueID>  (51) 
28

>  <SMILES>  (51) 
[NH-]S(=O)(=O)c1cccc(Oc2ccc(Cc3sc(=O)[n-]c3[O-])cc2)c1

>  <Energy>  (51) 
73.69934885318558

>  <Genealogy>  (51) 
[NH-]S(=O)(=O)c1cccc(Oc2ccc(Cc3sc(=O)[n-]c3[O-])cc2)c1 (protonated)
[NH-]S(=O)(=O)c1cccc(Oc2ccc(Cc3sc(=O)[n-]c3[O-])cc2)c1 (3D coordinates assigned)
[NH-]S(=O)(=O)c1cccc(Oc2ccc(Cc3sc(=O)[n-]c3[O-])cc2)c1 (optimized conformer: 73.69934885318558 kcal/mol)

>  <smiles>  (51) 
NS(=O)(=O)c1cccc(Oc2ccc(Cc3sc(=O)[nH]c3O)cc2)c1

>  <score_type>  (51) 
oracle

>  <origin>  (51) 
adg

>  <m_score__min__energy>  (51) 
-14.880000000000001

>  <m_primary>  (51) 
energy

$$$$
21:0
     RDKit          3D

 23 24  0  0  0  0  0  0  0  0999 V2000
   57.3680   31.0520   52.0600 C   0  0  0  0  0  0  0  0  0  0  0  0
   57.6510   30.0740   51.0650 O   0  0  0  0  0  0  0  0  0  0  0  0
   58.5420   30.2630   49.9990 C   0  0  0  0  0  0  0  0  0  0  0  0
   58.8490   31.5380   49.4890 C   0  0  0  0  0  0  0  0  0  0  0  0
   59.7430   31.6720   48.4230 C   0  0  0  0  0  0  0  0  0  0  0  0
   60.3390   30.5420   47.8580 C   0  0  0  0  0  0  0  0  0  0  0  0
   60.0430   29.2620   48.3600 C   0  0  0  0  0  0  0  0  0  0  0  0
   60.6360   28.0740   47.8180 N   0  0  0  0  0  0  0  0  0  0  0  0
   60.2420   27.3730   46.2820 S   0  0  0  0  0  0  0  0  0  0  0  0
   61.2540   27.8180   45.2640 O   0  0  0  0  0  0  0  0  0  0  0  0
   60.2920   25.8750   46.3990 O   0  0  0  0  0  0  0  0  0  0  0  0
   58.6440   27.9030   45.7660 C   0  0  0  0  0  0  0  0  0  0  0  0
   57.5260   27.1080   46.0340 C   0  0  0  0  0  0  0  0  0  0  0  0
   56.2570   27.5160   45.6190 C   0  0  0  0  0  0  0  0  0  0  0  0
   55.1550   26.7120   45.8870 O   0  0  0  0  0  0  0  0  0  0  0  0
   56.0930   28.7270   44.9350 C   0  0  0  0  0  0  0  0  0  0  0  0
   54.8160   29.0970   44.5280 O   0  0  0  0  0  0  0  0  0  0  0  0
   57.2120   29.5480   44.6640 C   0  0  0  0  0  0  0  0  0  0  0  0
   57.0740   30.8050   43.9670 N   0  0  0  0  0  0  0  0  0  0  0  0
   57.3230   30.8800   42.7460 O   0  0  0  0  0  0  0  0  0  0  0  0
   56.6910   31.9490   44.6280 O   0  0  0  0  0  0  0  0  0  0  0  0
   58.4850   29.1170   45.0880 C   0  0  0  0  0  0  0  0  0  0  0  0
   59.1450   29.1350   49.4270 C   0  0  0  0  0  0  0  0  0  0  0  0
  1  2  1  0
  2  3  1  0
  3  4  2  0
  4  5  1  0
  5  6  2  0
  6  7  1  0
  7  8  1  0
  8  9  1  0
  9 10  2  0
  9 11  2  0
  9 12  1  0
 12 13  2  0
 13 14  1  0
 14 15  1  0
 14 16  2  0
 16 17  1  0
 16 18  1  0
 18 19  1  0
 19 20  2  0
 19 21  1  0
 18 22  2  0
  7 23  2  0
 23  3  1  0
 22 12  1  0
M  CHG  5   8  -1  15  -1  17  -1  19   1  21  -1
M  END
>  <UniqueID>  (52) 
20

>  <SMILES>  (52) 
COc1cccc([N-]S(=O)(=O)c2cc([O-])c([O-])c([N+](=O)[O-])c2)c1

>  <Energy>  (52) 
38.49084702745762

>  <Genealogy>  (52) 
COc1cccc([N-]S(=O)(=O)c2cc([O-])c([O-])c([N+](=O)[O-])c2)c1 (protonated)
COc1cccc([N-]S(=O)(=O)c2cc([O-])c([O-])c([N+](=O)[O-])c2)c1 (3D coordinates assigned)
COc1cccc([N-]S(=O)(=O)c2cc([O-])c([O-])c([N+](=O)[O-])c2)c1 (optimized conformer: 38.49084702745762 kcal/mol)

>  <smiles>  (52) 
COc1cccc(NS(=O)(=O)c2cc(O)c(O)c([N+](=O)[O-])c2)c1

>  <score_type>  (52) 
oracle

>  <origin>  (52) 
adg

>  <m_score__min__energy>  (52) 
-16.399999999999999

>  <m_primary>  (52) 
energy

$$$$
5:0
     RDKit          3D

 29 32  0  0  0  0  0  0  0  0999 V2000
   54.7760   26.3170   45.9590 N   0  0  0  0  0  0  0  0  0  0  0  0
   56.2690   25.4660   46.1380 S   0  0  0  0  0  0  0  0  0  0  0  0
   56.3140   24.3230   45.1630 O   0  0  0  0  0  0  0  0  0  0  0  0
   56.3670   24.9150   47.5330 O   0  0  0  0  0  0  0  0  0  0  0  0
   57.6110   26.5650   45.8390 C   0  0  0  0  0  0  0  0  0  0  0  0
   57.9320   26.9490   44.5290 C   0  0  0  0  0  0  0  0  0  0  0  0
   58.9990   27.8190   44.2960 C   0  0  0  0  0  0  0  0  0  0  0  0
   59.7410   28.3250   45.3660 C   0  0  0  0  0  0  0  0  0  0  0  0
   59.4040   27.9760   46.6860 C   0  0  0  0  0  0  0  0  0  0  0  0
   60.1580   28.4570   47.8070 N   0  0  0  0  0  0  0  0  0  0  0  0
   59.6510   29.2200   48.9090 C   0  0  0  0  0  0  0  0  0  0  0  0
   59.5510   28.6660   50.0360 O   0  0  0  0  0  0  0  0  0  0  0  0
   59.1980   30.6470   48.7490 C   0  0  0  0  0  0  0  0  0  0  0  0
   60.3330   31.5110   48.4350 N   0  0  0  0  0  0  0  0  0  0  0  0
   61.7050   31.2680   48.8410 C   0  0  0  0  0  0  0  0  0  0  0  0
   62.5060   32.3320   48.0730 C   0  0  0  0  0  0  0  0  0  0  0  0
   61.5280   33.0220   47.2390 N   0  0  0  0  0  0  0  0  0  0  0  0
   60.3530   32.5440   47.4670 C   0  0  0  0  0  0  0  0  0  0  0  0
   59.1660   32.9980   46.7960 N   0  0  0  0  0  0  0  0  0  0  0  0
   58.5330   32.3800   45.8430 C   0  0  0  0  0  0  0  0  0  0  0  0
   57.7390   31.3080   46.0960 N   0  0  0  0  0  0  0  0  0  0  0  0
   57.2970   30.9840   44.8710 C   0  0  0  0  0  0  0  0  0  0  0  0
   56.4360   29.9460   44.5230 C   0  0  0  0  0  0  0  0  0  0  0  0
   56.1100   29.7980   43.1610 C   0  0  0  0  0  0  0  0  0  0  0  0
   56.6470   30.6800   42.1970 C   0  0  0  0  0  0  0  0  0  0  0  0
   57.5150   31.7190   42.5870 C   0  0  0  0  0  0  0  0  0  0  0  0
   57.8140   31.8350   43.9420 C   0  0  0  0  0  0  0  0  0  0  0  0
   58.6090   32.7390   44.5320 N   0  0  0  0  0  0  0  0  0  0  0  0
   58.3510   27.0790   46.9120 C   0  0  0  0  0  0  0  0  0  0  0  0
  1  2  1  0
  2  3  2  0
  2  4  2  0
  2  5  1  0
  5  6  2  0
  6  7  1  0
  7  8  2  0
  8  9  1  0
  9 10  1  0
 10 11  1  0
 11 12  2  0
 11 13  1  0
 13 14  1  0
 14 15  1  0
 15 16  1  0
 16 17  1  0
 17 18  2  0
 18 19  1  0
 19 20  2  3
 20 21  1  0
 21 22  1  0
 22 23  2  0
 23 24  1  0
 24 25  2  0
 25 26  1  0
 26 27  2  0
 27 28  1  0
  9 29  2  0
 29  5  1  0
 18 14  1  0
 28 20  1  0
 27 22  1  0
M  CHG  4   1  -1  10  -1  21  -1  28  -1
M  END
>  <UniqueID>  (53) 
6

>  <SMILES>  (53) 
[NH-]S(=O)(=O)c1cccc([N-]C(=O)CN2CCN=C2N=c2[n-]c3ccccc3[n-]2)c1

>  <Energy>  (53) 
99.77094916985382

>  <Genealogy>  (53) 
[NH-]S(=O)(=O)c1cccc([N-]C(=O)CN2CCN=C2N=c2[n-]c3ccccc3[n-]2)c1 (protonated)
[NH-]S(=O)(=O)c1cccc([N-]C(=O)CN2CCN=C2N=c2[n-]c3ccccc3[n-]2)c1 (3D coordinates assigned)
[NH-]S(=O)(=O)c1cccc([N-]C(=O)CN2CCN=C2N=c2[n-]c3ccccc3[n-]2)c1 (nonaromatic ring conformer: 99.77094916985382 kcal/mol)

>  <smiles>  (53) 
NS(=O)(=O)c1cccc(NC(=O)CN2CCN=C2N=c2[nH]c3ccccc3[nH]2)c1

>  <score_type>  (53) 
oracle

>  <origin>  (53) 
adg

>  <m_score__min__energy>  (53) 
-15.529999999999999

>  <m_primary>  (53) 
energy

$$$$
13:0
     RDKit          3D

 23 24  0  0  0  0  0  0  0  0999 V2000
   57.9500   22.9250   45.2840 C   0  0  0  0  0  0  0  0  0  0  0  0
   56.7260   23.0980   46.5690 S   0  0  0  0  0  0  0  0  0  0  0  0
   57.0170   22.1470   47.6950 O   0  0  0  0  0  0  0  0  0  0  0  0
   55.3820   22.7690   45.9840 O   0  0  0  0  0  0  0  0  0  0  0  0
   56.6910   24.7290   47.1580 N   0  0  0  0  0  0  0  0  0  0  0  0
   57.1560   25.8710   46.4270 C   0  0  0  0  0  0  0  0  0  0  0  0
   58.5320   25.9990   46.2040 C   0  0  0  0  0  0  0  0  0  0  0  0
   59.0430   27.1250   45.5580 C   0  0  0  0  0  0  0  0  0  0  0  0
   58.1820   28.1310   45.1200 C   0  0  0  0  0  0  0  0  0  0  0  0
   56.7930   28.0000   45.2860 C   0  0  0  0  0  0  0  0  0  0  0  0
   55.8870   29.1320   44.8790 C   0  0  0  0  0  0  0  0  0  0  0  0
   56.6410   30.3800   44.9070 N   0  0  0  0  0  0  0  0  0  0  0  0
   57.1050   31.0580   43.7340 C   0  0  0  0  0  0  0  0  0  0  0  0
   56.5440   30.8620   42.6230 O   0  0  0  0  0  0  0  0  0  0  0  0
   58.2450   31.9180   43.7990 N   0  0  0  0  0  0  0  0  0  0  0  0
   58.4780   32.9080   44.8090 C   0  0  0  0  0  0  0  0  0  0  0  0
   58.0100   32.6730   46.1090 C   0  0  0  0  0  0  0  0  0  0  0  0
   58.2460   33.6050   47.1250 C   0  0  0  0  0  0  0  0  0  0  0  0
   58.9680   34.7700   46.8510 C   0  0  0  0  0  0  0  0  0  0  0  0
   59.4620   35.0010   45.5640 C   0  0  0  0  0  0  0  0  0  0  0  0
   59.2250   34.0720   44.5460 C   0  0  0  0  0  0  0  0  0  0  0  0
   56.2790   26.8540   45.9250 C   0  0  0  0  0  0  0  0  0  0  0  0
   54.9030   26.6890   46.0380 O   0  0  0  0  0  0  0  0  0  0  0  0
  1  2  1  0
  2  3  2  0
  2  4  2  0
  2  5  1  0
  5  6  1  0
  6  7  2  0
  7  8  1  0
  8  9  2  0
  9 10  1  0
 10 11  1  0
 11 12  1  0
 12 13  1  0
 13 14  2  0
 13 15  1  0
 15 16  1  0
 16 17  2  0
 17 18  1  0
 18 19  2  0
 19 20  1  0
 20 21  2  0
 10 22  2  0
 22 23  1  0
 22  6  1  0
 21 16  1  0
M  CHG  4   5  -1  12  -1  15  -1  23  -1
M  END
>  <UniqueID>  (54) 
12

>  <SMILES>  (54) 
CS(=O)(=O)[N-]c1cccc(C[N-]C(=O)[N-]c2ccccc2)c1[O-]

>  <Energy>  (54) 
41.28669170534845

>  <Genealogy>  (54) 
CS(=O)(=O)[N-]c1cccc(C[N-]C(=O)[N-]c2ccccc2)c1[O-] (protonated)
CS(=O)(=O)[N-]c1cccc(C[N-]C(=O)[N-]c2ccccc2)c1[O-] (3D coordinates assigned)
CS(=O)(=O)[N-]c1cccc(C[N-]C(=O)[N-]c2ccccc2)c1[O-] (optimized conformer: 41.28669170534845 kcal/mol)

>  <smiles>  (54) 
CS(=O)(=O)Nc1cccc(CNC(=O)Nc2ccccc2)c1O

>  <score_type>  (54) 
oracle

>  <origin>  (54) 
adg

>  <m_score__min__energy>  (54) 
-16.030000000000001

>  <m_primary>  (54) 
energy

$$$$
18:0
     RDKit          3D

 32 35  0  0  0  0  0  0  0  0999 V2000
   61.6380   34.5320   49.7920 O   0  0  0  0  0  0  0  0  0  0  0  0
   60.8920   33.8410   48.8340 C   0  0  0  0  0  0  0  0  0  0  0  0
   59.5510   33.5690   49.1270 C   0  0  0  0  0  0  0  0  0  0  0  0
   58.7690   32.8180   48.2490 C   0  0  0  0  0  0  0  0  0  0  0  0
   59.3200   32.3230   47.0640 C   0  0  0  0  0  0  0  0  0  0  0  0
   58.5100   31.5560   46.1560 N   0  0  0  0  0  0  0  0  0  0  0  0
   58.0460   31.9950   44.9660 C   0  0  0  0  0  0  0  0  0  0  0  0
   58.2460   33.3780   44.4250 C   0  0  0  0  0  0  0  0  0  0  0  0
   57.3630   30.9880   44.3170 C   0  0  0  0  0  0  0  0  0  0  0  0
   57.3850   29.8830   45.1530 C   0  0  0  0  0  0  0  0  0  0  0  0
   56.7460   28.7350   44.8570 C   0  0  0  0  0  0  0  0  0  0  0  0
   57.0700   27.4140   45.4150 C   0  0  0  0  0  0  0  0  0  0  0  0
   58.3240   26.9450   45.5900 N   0  0  0  0  0  0  0  0  0  0  0  0
   58.1380   25.7640   46.2190 C   0  0  0  0  0  0  0  0  0  0  0  0
   59.0950   25.0320   46.5820 O   0  0  0  0  0  0  0  0  0  0  0  0
   56.8390   25.4680   46.4500 N   0  0  0  0  0  0  0  0  0  0  0  0
   56.2760   24.2990   47.1360 C   0  0  0  0  0  0  0  0  0  0  0  0
   55.9880   23.1850   46.2080 N   0  0  0  0  0  0  0  0  0  0  0  0
   57.1040   22.2370   45.9780 C   0  0  0  0  0  0  0  0  0  0  0  0
   57.3570   21.9360   44.4940 C   0  0  0  0  0  0  0  0  0  0  0  0
   57.3250   23.2270   43.6860 C   0  0  0  0  0  0  0  0  0  0  0  0
   55.9590   23.9220   43.7890 C   0  0  0  0  0  0  0  0  0  0  0  0
   55.1470   23.5200   45.0390 C   0  0  0  0  0  0  0  0  0  0  0  0
   56.1730   26.5350   45.9760 C   0  0  0  0  0  0  0  0  0  0  0  0
   54.7960   26.7110   46.0550 O   0  0  0  0  0  0  0  0  0  0  0  0
   58.1450   30.2550   46.2750 C   0  0  0  0  0  0  0  0  0  0  0  0
   58.5610   29.4610   47.2760 C   0  0  0  0  0  0  0  0  0  0  0  0
   60.6550   32.6130   46.7460 C   0  0  0  0  0  0  0  0  0  0  0  0
   61.4500   33.3860   47.6120 C   0  0  0  0  0  0  0  0  0  0  0  0
   62.8290   33.7170   47.1880 C   0  0  0  0  0  0  0  0  0  0  0  0
   63.1210   33.8290   45.9690 O   0  0  0  0  0  0  0  0  0  0  0  0
   63.8370   33.8410   48.1360 O   0  0  0  0  0  0  0  0  0  0  0  0
  1  2  1  0
  2  3  2  0
  3  4  1  0
  4  5  2  0
  5  6  1  0
  6  7  1  0
  7  8  1  0
  7  9  2  0
  9 10  1  0
 10 11  2  0
 11 12  1  0
 12 13  1  0
 13 14  1  0
 14 15  2  0
 14 16  1  0
 16 17  1  0
 17 18  1  0
 18 19  1  0
 19 20  1  0
 20 21  1  0
 21 22  1  0
 22 23  1  0
 16 24  1  0
 24 25  1  0
 10 26  1  0
 26 27  2  0
  5 28  1  0
 28 29  2  0
 29 30  1  0
 30 31  2  0
 30 32  1  0
 29  2  1  0
 26  6  1  0
 24 12  2  0
 23 18  1  0
M  CHG  3  13  -1  25  -1  32  -1
M  END
>  <UniqueID>  (55) 
16

>  <SMILES>  (55) 
C=c1/c(=C\c2[n-]c(=O)n(CN3CCCCC3)c2[O-])cc(C)n1-c1ccc(O)c(C(=O)[O-])c1

>  <Energy>  (55) 
151.82741114390376

>  <Genealogy>  (55) 
C=c1c(=Cc2[n-]c(=O)n(CN3CCCCC3)c2[O-])cc(C)n1-c1ccc(O)c(C(=O)[O-])c1 (protonated)
C=c1/c(=C\c2[n-]c(=O)n(CN3CCCCC3)c2[O-])cc(C)n1-c1ccc(O)c(C(=O)[O-])c1 (cis-trans isomerization)
C=c1/c(=C\c2[n-]c(=O)n(CN3CCCCC3)c2[O-])cc(C)n1-c1ccc(O)c(C(=O)[O-])c1 (3D coordinates assigned)
C=c1/c(=C\c2[n-]c(=O)n(CN3CCCCC3)c2[O-])cc(C)n1-c1ccc(O)c(C(=O)[O-])c1 (nonaromatic ring conformer: 151.82741114390376 kcal/mol)

>  <smiles>  (55) 
C=c1c(=Cc2[nH]c(=O)n(CN3CCCCC3)c2O)cc(C)n1-c1ccc(O)c(C(=O)O)c1

>  <score_type>  (55) 
oracle

>  <origin>  (55) 
adg

>  <m_score__min__energy>  (55) 
-14.67

>  <m_primary>  (55) 
energy

$$$$
80:0
     RDKit          3D

 27 29  0  0  0  0  0  0  0  0999 V2000
   57.2970   31.4160   53.4730 O   0  0  0  0  0  0  0  0  0  0  0  0
   57.0910   31.0070   52.3010 C   0  0  0  0  0  0  0  0  0  0  0  0
   55.7340   31.1890   51.6810 C   0  0  0  0  0  0  0  0  0  0  0  0
   54.5430   29.9710   52.3460 S   0  0  0  0  0  0  0  0  0  0  0  0
   53.1070   30.6820   51.5390 C   0  0  0  0  0  0  0  0  0  0  0  0
   52.6250   30.1350   50.3480 C   0  0  0  0  0  0  0  0  0  0  0  0
   51.5110   30.7250   49.7490 C   0  0  0  0  0  0  0  0  0  0  0  0
   51.0460   30.2570   48.6770 O   0  0  0  0  0  0  0  0  0  0  0  0
   50.9260   31.8080   50.3250 N   0  0  0  0  0  0  0  0  0  0  0  0
   51.4140   32.3300   51.4820 C   0  0  0  0  0  0  0  0  0  0  0  0
   50.8600   33.3340   51.9990 O   0  0  0  0  0  0  0  0  0  0  0  0
   52.4960   31.7690   52.0790 N   0  0  0  0  0  0  0  0  0  0  0  0
   58.1770   30.4090   51.5800 N   0  0  0  0  0  0  0  0  0  0  0  0
   58.5050   30.6240   50.2000 C   0  0  0  0  0  0  0  0  0  0  0  0
   58.7890   31.9050   49.7010 C   0  0  0  0  0  0  0  0  0  0  0  0
   59.0860   32.0820   48.3470 C   0  0  0  0  0  0  0  0  0  0  0  0
   59.0740   30.9890   47.4770 C   0  0  0  0  0  0  0  0  0  0  0  0
   58.7390   29.7090   47.9540 C   0  0  0  0  0  0  0  0  0  0  0  0
   58.7230   28.5570   47.1000 N   0  0  0  0  0  0  0  0  0  0  0  0
   57.6220   28.0940   46.3050 C   0  0  0  0  0  0  0  0  0  0  0  0
   57.1730   26.9260   46.4450 O   0  0  0  0  0  0  0  0  0  0  0  0
   57.0450   28.9700   45.2800 C   0  0  0  0  0  0  0  0  0  0  0  0
   57.7510   29.7340   44.3720 C   0  0  0  0  0  0  0  0  0  0  0  0
   56.7990   30.3850   43.6160 C   0  0  0  0  0  0  0  0  0  0  0  0
   55.5760   29.9790   44.1090 C   0  0  0  0  0  0  0  0  0  0  0  0
   55.7550   29.1350   45.0990 O   0  0  0  0  0  0  0  0  0  0  0  0
   58.4660   29.5360   49.3180 C   0  0  0  0  0  0  0  0  0  0  0  0
  1  2  2  0
  2  3  1  0
  3  4  1  0
  4  5  1  0
  5  6  2  0
  6  7  1  0
  7  8  2  0
  7  9  1  0
  9 10  1  0
 10 11  2  0
 10 12  1  0
  2 13  1  0
 13 14  1  0
 14 15  2  0
 15 16  1  0
 16 17  2  0
 17 18  1  0
 18 19  1  0
 19 20  1  0
 20 21  2  0
 20 22  1  0
 22 23  2  0
 23 24  1  0
 24 25  2  0
 25 26  1  0
 18 27  2  0
 12  5  1  0
 27 14  1  0
 26 22  1  0
M  CHG  4   9  -1  12  -1  13  -1  19  -1
M  END
>  <UniqueID>  (56) 
72

>  <SMILES>  (56) 
O=C(CSc1cc(=O)[n-]c(=O)[n-]1)[N-]c1cccc([N-]C(=O)c2ccco2)c1

>  <Energy>  (56) 
70.94417723955355

>  <Genealogy>  (56) 
O=C(CSc1cc(=O)[n-]c(=O)[n-]1)[N-]c1cccc([N-]C(=O)c2ccco2)c1 (protonated)
O=C(CSc1cc(=O)[n-]c(=O)[n-]1)[N-]c1cccc([N-]C(=O)c2ccco2)c1 (3D coordinates assigned)
O=C(CSc1cc(=O)[n-]c(=O)[n-]1)[N-]c1cccc([N-]C(=O)c2ccco2)c1 (optimized conformer: 70.94417723955355 kcal/mol)

>  <smiles>  (56) 
O=C(CSc1cc(=O)[nH]c(=O)[nH]1)Nc1cccc(NC(=O)c2ccco2)c1

>  <score_type>  (56) 
oracle

>  <origin>  (56) 
adg

>  <m_score__min__energy>  (56) 
-15.48

>  <m_primary>  (56) 
energy

$$$$
53:0
     RDKit          3D

 30 32  0  0  0  0  0  0  0  0999 V2000
   59.6180   26.6910   47.6480 C   0  0  0  0  0  0  0  0  0  0  0  0
   59.0690   27.8130   46.8240 C   0  0  0  0  0  0  0  0  0  0  0  0
   59.8680   29.2650   46.5650 S   0  0  0  0  0  0  0  0  0  0  0  0
   58.6680   29.9470   45.6130 C   0  0  0  0  0  0  0  0  0  0  0  0
   58.7380   31.2880   45.1150 N   0  0  0  0  0  0  0  0  0  0  0  0
   58.2770   32.4140   45.8780 C   0  0  0  0  0  0  0  0  0  0  0  0
   57.6840   32.2410   46.9770 O   0  0  0  0  0  0  0  0  0  0  0  0
   58.5200   33.8130   45.3810 C   0  0  0  0  0  0  0  0  0  0  0  0
   59.6040   34.5120   46.1030 N   0  0  0  0  0  0  0  0  0  0  0  0
   60.9350   33.8810   45.9930 C   0  0  0  0  0  0  0  0  0  0  0  0
   61.1930   32.7970   47.0660 C   0  0  0  0  0  0  0  0  0  0  0  0
   60.2290   32.8620   48.1850 N   0  0  0  0  0  0  0  0  0  0  0  0
   60.7070   32.0510   49.3230 C   0  0  0  0  0  0  0  0  0  0  0  0
   59.5470   31.6070   50.1760 C   0  0  0  0  0  0  0  0  0  0  0  0
   58.7510   32.5490   50.8520 C   0  0  0  0  0  0  0  0  0  0  0  0
   57.6640   32.1270   51.6230 C   0  0  0  0  0  0  0  0  0  0  0  0
   57.3630   30.7650   51.7250 C   0  0  0  0  0  0  0  0  0  0  0  0
   55.9980   30.2370   52.6950 Cl  0  0  0  0  0  0  0  0  0  0  0  0
   58.1490   29.8230   51.0540 C   0  0  0  0  0  0  0  0  0  0  0  0
   59.2350   30.2430   50.2820 C   0  0  0  0  0  0  0  0  0  0  0  0
   60.0080   34.2630   48.5770 C   0  0  0  0  0  0  0  0  0  0  0  0
   59.2500   34.9950   47.4590 C   0  0  0  0  0  0  0  0  0  0  0  0
   57.6140   29.0370   45.4370 C   0  0  0  0  0  0  0  0  0  0  0  0
   56.5060   29.2600   44.4710 C   0  0  0  0  0  0  0  0  0  0  0  0
   55.1500   29.3230   44.8990 N   0  0  0  0  0  0  0  0  0  0  0  0
   56.7550   29.3670   43.2400 O   0  0  0  0  0  0  0  0  0  0  0  0
   57.8410   27.8320   46.1550 C   0  0  0  0  0  0  0  0  0  0  0  0
   56.9130   26.6890   46.2190 C   0  0  0  0  0  0  0  0  0  0  0  0
   55.5210   26.8830   45.9850 N   0  0  0  0  0  0  0  0  0  0  0  0
   57.3380   25.5510   46.5500 O   0  0  0  0  0  0  0  0  0  0  0  0
  1  2  1  0
  2  3  1  0
  3  4  1  0
  4  5  1  0
  5  6  1  0
  6  7  2  0
  6  8  1  0
  8  9  1  0
  9 10  1  0
 10 11  1  0
 11 12  1  0
 12 13  1  0
 13 14  1  0
 14 15  2  0
 15 16  1  0
 16 17  2  0
 17 18  1  0
 17 19  1  0
 19 20  2  0
 12 21  1  0
 21 22  1  0
  4 23  2  0
 23 24  1  0
 24 25  1  0
 24 26  2  0
 23 27  1  0
 27 28  1  0
 28 29  1  0
 28 30  2  0
 27  2  2  0
 22  9  1  0
 20 14  1  0
M  CHG  2  25  -1  29  -1
M  END
>  <UniqueID>  (57) 
48

>  <SMILES>  (57) 
Cc1sc(NC(=O)CN2CCN(Cc3ccc(Cl)cc3)CC2)c(C([NH-])=O)c1C([NH-])=O

>  <Energy>  (57) 
101.01282384371582

>  <Genealogy>  (57) 
Cc1sc(NC(=O)CN2CCN(Cc3ccc(Cl)cc3)CC2)c(C([NH-])=O)c1C([NH-])=O (protonated)
Cc1sc(NC(=O)CN2CCN(Cc3ccc(Cl)cc3)CC2)c(C([NH-])=O)c1C([NH-])=O (3D coordinates assigned)
Cc1sc(NC(=O)CN2CCN(Cc3ccc(Cl)cc3)CC2)c(C([NH-])=O)c1C([NH-])=O (nonaromatic ring conformer: 101.01282384371582 kcal/mol)

>  <smiles>  (57) 
Cc1sc(NC(=O)CN2CCN(Cc3ccc(Cl)cc3)CC2)c(C(N)=O)c1C(N)=O

>  <score_type>  (57) 
oracle

>  <origin>  (57) 
adg

>  <m_score__min__energy>  (57) 
-14.6

>  <m_primary>  (57) 
energy

$$$$
44:0
     RDKit          3D

 25 27  0  0  0  0  0  0  0  0999 V2000
   64.1920   32.1230   48.8500 N   0  0  0  0  0  0  0  0  0  0  0  0
   63.0290   32.7170   48.2650 C   0  0  0  0  0  0  0  0  0  0  0  0
   61.8320   32.7860   48.9920 C   0  0  0  0  0  0  0  0  0  0  0  0
   60.6950   33.3650   48.4210 C   0  0  0  0  0  0  0  0  0  0  0  0
   60.7430   33.8790   47.1180 C   0  0  0  0  0  0  0  0  0  0  0  0
   59.2950   34.5870   46.4100 S   0  0  0  0  0  0  0  0  0  0  0  0
   59.5340   34.9850   44.9800 O   0  0  0  0  0  0  0  0  0  0  0  0
   58.9210   35.8110   47.1970 O   0  0  0  0  0  0  0  0  0  0  0  0
   57.9930   33.4410   46.4770 N   0  0  0  0  0  0  0  0  0  0  0  0
   58.0960   32.0880   45.9980 C   0  0  0  0  0  0  0  0  0  0  0  0
   57.4950   31.6800   44.7930 C   0  0  0  0  0  0  0  0  0  0  0  0
   57.6200   30.3600   44.3500 C   0  0  0  0  0  0  0  0  0  0  0  0
   58.3540   29.4280   45.0970 C   0  0  0  0  0  0  0  0  0  0  0  0
   58.4620   28.0010   44.6360 C   0  0  0  0  0  0  0  0  0  0  0  0
   57.4920   27.1420   45.3850 C   0  0  0  0  0  0  0  0  0  0  0  0
   57.8250   25.6040   45.9880 S   0  0  0  0  0  0  0  0  0  0  0  0
   56.2500   25.3900   46.5380 C   0  0  0  0  0  0  0  0  0  0  0  0
   55.8410   24.3570   47.1290 O   0  0  0  0  0  0  0  0  0  0  0  0
   55.4560   26.4480   46.2700 N   0  0  0  0  0  0  0  0  0  0  0  0
   56.1460   27.4220   45.6210 C   0  0  0  0  0  0  0  0  0  0  0  0
   55.5360   28.6060   45.2240 O   0  0  0  0  0  0  0  0  0  0  0  0
   58.9360   29.8270   46.3100 C   0  0  0  0  0  0  0  0  0  0  0  0
   58.8080   31.1450   46.7550 C   0  0  0  0  0  0  0  0  0  0  0  0
   61.9400   33.8140   46.3920 C   0  0  0  0  0  0  0  0  0  0  0  0
   63.0770   33.2320   46.9620 C   0  0  0  0  0  0  0  0  0  0  0  0
  1  2  1  0
  2  3  2  0
  3  4  1  0
  4  5  2  0
  5  6  1  0
  6  7  2  0
  6  8  2  0
  6  9  1  0
  9 10  1  0
 10 11  2  0
 11 12  1  0
 12 13  2  0
 13 14  1  0
 14 15  1  0
 15 16  1  0
 16 17  1  0
 17 18  2  0
 17 19  1  0
 19 20  1  0
 20 21  1  0
 13 22  1  0
 22 23  2  0
  5 24  1  0
 24 25  2  0
 25  2  1  0
 23 10  1  0
 20 15  2  0
M  CHG  2  19  -1  21  -1
M  END
>  <UniqueID>  (58) 
43

>  <SMILES>  (58) 
Nc1ccc(S(=O)(=O)Nc2ccc(Cc3sc(=O)[n-]c3[O-])cc2)cc1

>  <Energy>  (58) 
71.39102161733955

>  <Genealogy>  (58) 
Nc1ccc(S(=O)(=O)Nc2ccc(Cc3sc(=O)[n-]c3[O-])cc2)cc1 (protonated)
Nc1ccc(S(=O)(=O)Nc2ccc(Cc3sc(=O)[n-]c3[O-])cc2)cc1 (3D coordinates assigned)
Nc1ccc(S(=O)(=O)Nc2ccc(Cc3sc(=O)[n-]c3[O-])cc2)cc1 (optimized conformer: 71.39102161733955 kcal/mol)

>  <smiles>  (58) 
Nc1ccc(S(=O)(=O)Nc2ccc(Cc3sc(=O)[nH]c3O)cc2)cc1

>  <score_type>  (58) 
oracle

>  <origin>  (58) 
adg

>  <m_score__min__energy>  (58) 
-14.82

>  <m_primary>  (58) 
energy

$$$$
69:0
     RDKit          3D

 23 25  0  0  0  0  0  0  0  0999 V2000
   57.7300   20.3280   46.2420 C   0  0  0  0  0  0  0  0  0  0  0  0
   57.7450   21.5050   47.0420 O   0  0  0  0  0  0  0  0  0  0  0  0
   57.0050   22.6630   46.7590 C   0  0  0  0  0  0  0  0  0  0  0  0
   55.5990   22.6090   46.8980 C   0  0  0  0  0  0  0  0  0  0  0  0
   54.8030   23.7380   46.6370 C   0  0  0  0  0  0  0  0  0  0  0  0
   55.4390   24.9080   46.2320 C   0  0  0  0  0  0  0  0  0  0  0  0
   54.8490   26.0890   45.9610 N   0  0  0  0  0  0  0  0  0  0  0  0
   55.8820   26.9040   45.6380 C   0  0  0  0  0  0  0  0  0  0  0  0
   55.7120   28.2410   45.3040 O   0  0  0  0  0  0  0  0  0  0  0  0
   57.1060   26.2510   45.6920 C   0  0  0  0  0  0  0  0  0  0  0  0
   58.4660   26.8470   45.4780 C   0  0  0  0  0  0  0  0  0  0  0  0
   58.9730   27.4440   46.7580 C   0  0  0  0  0  0  0  0  0  0  0  0
   58.5390   28.7030   47.1800 C   0  0  0  0  0  0  0  0  0  0  0  0
   58.9950   29.2140   48.3960 C   0  0  0  0  0  0  0  0  0  0  0  0
   59.8780   28.4670   49.1970 C   0  0  0  0  0  0  0  0  0  0  0  0
   60.3560   29.0240   50.4890 C   0  0  0  0  0  0  0  0  0  0  0  0
   59.5620   29.1570   51.4580 O   0  0  0  0  0  0  0  0  0  0  0  0
   61.6810   29.4080   50.6570 O   0  0  0  0  0  0  0  0  0  0  0  0
   60.2810   27.1940   48.7330 C   0  0  0  0  0  0  0  0  0  0  0  0
   61.0650   26.4750   49.4070 O   0  0  0  0  0  0  0  0  0  0  0  0
   59.8180   26.7260   47.5440 N   0  0  0  0  0  0  0  0  0  0  0  0
   56.8020   24.9680   46.0880 C   0  0  0  0  0  0  0  0  0  0  0  0
   57.6210   23.8690   46.3430 C   0  0  0  0  0  0  0  0  0  0  0  0
  1  2  1  0
  2  3  1  0
  3  4  2  0
  4  5  1  0
  5  6  2  0
  6  7  1  0
  7  8  1  0
  8  9  1  0
  8 10  2  0
 10 11  1  0
 11 12  1  0
 12 13  2  0
 13 14  1  0
 14 15  2  0
 15 16  1  0
 16 17  2  0
 16 18  1  0
 15 19  1  0
 19 20  2  0
 19 21  1  0
 10 22  1  0
 22 23  2  0
 23  3  1  0
 22  6  1  0
 21 12  1  0
M  CHG  4   7  -1   9  -1  18  -1  21  -1
M  END
>  <UniqueID>  (59) 
66

>  <SMILES>  (59) 
COc1ccc2[n-]c([O-])c(Cc3ccc(C(=O)[O-])c(=O)[n-]3)c2c1

>  <Energy>  (59) 
68.38805152371434

>  <Genealogy>  (59) 
COc1ccc2[n-]c([O-])c(Cc3ccc(C(=O)[O-])c(=O)[n-]3)c2c1 (protonated)
COc1ccc2[n-]c([O-])c(Cc3ccc(C(=O)[O-])c(=O)[n-]3)c2c1 (3D coordinates assigned)
COc1ccc2[n-]c([O-])c(Cc3ccc(C(=O)[O-])c(=O)[n-]3)c2c1 (optimized conformer: 68.38805152371434 kcal/mol)

>  <smiles>  (59) 
COc1ccc2[nH]c(O)c(Cc3ccc(C(=O)O)c(=O)[nH]3)c2c1

>  <score_type>  (59) 
oracle

>  <origin>  (59) 
adg

>  <m_score__min__energy>  (59) 
-15.5

>  <m_primary>  (59) 
energy

$$$$
50:0
     RDKit          3D

 25 26  0  0  0  0  0  0  0  0999 V2000
   55.1040   26.3930   46.0020 N   0  0  0  0  0  0  0  0  0  0  0  0
   56.7220   25.8210   46.2070 S   0  0  0  0  0  0  0  0  0  0  0  0
   57.1410   25.0760   44.9710 O   0  0  0  0  0  0  0  0  0  0  0  0
   56.7830   24.8850   47.3810 O   0  0  0  0  0  0  0  0  0  0  0  0
   57.7970   27.1870   46.4890 C   0  0  0  0  0  0  0  0  0  0  0  0
   58.7970   27.1200   47.4680 C   0  0  0  0  0  0  0  0  0  0  0  0
   59.6480   28.2090   47.6750 C   0  0  0  0  0  0  0  0  0  0  0  0
   59.5240   29.3560   46.8870 C   0  0  0  0  0  0  0  0  0  0  0  0
   58.5550   29.4180   45.8780 C   0  0  0  0  0  0  0  0  0  0  0  0
   58.4560   30.6100   45.0860 N   0  0  0  0  0  0  0  0  0  0  0  0
   57.4010   31.5820   45.1090 C   0  0  0  0  0  0  0  0  0  0  0  0
   56.3440   31.3410   44.4700 O   0  0  0  0  0  0  0  0  0  0  0  0
   57.4610   32.8240   45.9590 C   0  0  0  0  0  0  0  0  0  0  0  0
   58.5830   32.7610   46.8980 N   0  0  0  0  0  0  0  0  0  0  0  0
   59.6840   34.0920   46.6710 S   0  0  0  0  0  0  0  0  0  0  0  0
   59.9770   34.2380   45.2060 O   0  0  0  0  0  0  0  0  0  0  0  0
   59.0360   35.3550   47.1640 O   0  0  0  0  0  0  0  0  0  0  0  0
   61.2060   33.8230   47.5240 C   0  0  0  0  0  0  0  0  0  0  0  0
   61.2860   34.0050   48.9120 C   0  0  0  0  0  0  0  0  0  0  0  0
   62.4800   33.7430   49.5880 C   0  0  0  0  0  0  0  0  0  0  0  0
   63.6030   33.3030   48.8820 C   0  0  0  0  0  0  0  0  0  0  0  0
   65.2220   32.9090   49.8130 Br  0  0  0  0  0  0  0  0  0  0  0  0
   63.5370   33.1450   47.4940 C   0  0  0  0  0  0  0  0  0  0  0  0
   62.3430   33.4090   46.8150 C   0  0  0  0  0  0  0  0  0  0  0  0
   57.6630   28.3450   45.7120 C   0  0  0  0  0  0  0  0  0  0  0  0
  1  2  1  0
  2  3  2  0
  2  4  2  0
  2  5  1  0
  5  6  2  0
  6  7  1  0
  7  8  2  0
  8  9  1  0
  9 10  1  0
 10 11  1  0
 11 12  2  0
 11 13  1  0
 13 14  1  0
 14 15  1  0
 15 16  2  0
 15 17  2  0
 15 18  1  0
 18 19  2  0
 19 20  1  0
 20 21  2  0
 21 22  1  0
 21 23  1  0
 23 24  2  0
  9 25  2  0
 25  5  1  0
 24 18  1  0
M  CHG  3   1  -1  10  -1  14  -1
M  END
>  <UniqueID>  (60) 
43

>  <SMILES>  (60) 
[NH-]S(=O)(=O)c1cccc([N-]C(=O)C[N-]S(=O)(=O)c2ccc(Br)cc2)c1

>  <Energy>  (60) 
34.765730729493846

>  <Genealogy>  (60) 
[NH-]S(=O)(=O)c1cccc([N-]C(=O)C[N-]S(=O)(=O)c2ccc(Br)cc2)c1 (protonated)
[NH-]S(=O)(=O)c1cccc([N-]C(=O)C[N-]S(=O)(=O)c2ccc(Br)cc2)c1 (3D coordinates assigned)
[NH-]S(=O)(=O)c1cccc([N-]C(=O)C[N-]S(=O)(=O)c2ccc(Br)cc2)c1 (optimized conformer: 34.765730729493846 kcal/mol)

>  <smiles>  (60) 
NS(=O)(=O)c1cccc(NC(=O)CNS(=O)(=O)c2ccc(Br)cc2)c1

>  <score_type>  (60) 
oracle

>  <origin>  (60) 
adg

>  <m_score__min__energy>  (60) 
-14.01

>  <m_primary>  (60) 
energy

$$$$
14:0
     RDKit          3D

 31 35  0  0  0  0  0  0  0  0999 V2000
   54.9810   26.7080   45.9740 O   0  0  0  0  0  0  0  0  0  0  0  0
   56.0280   25.8720   46.3550 C   0  0  0  0  0  0  0  0  0  0  0  0
   55.8770   24.8470   47.2090 N   0  0  0  0  0  0  0  0  0  0  0  0
   57.1350   24.3710   47.3290 C   0  0  0  0  0  0  0  0  0  0  0  0
   57.4200   23.3900   48.0640 O   0  0  0  0  0  0  0  0  0  0  0  0
   58.0640   25.0320   46.6070 N   0  0  0  0  0  0  0  0  0  0  0  0
   57.3490   25.9750   45.9680 C   0  0  0  0  0  0  0  0  0  0  0  0
   57.9520   26.9940   45.0950 C   0  0  0  0  0  0  0  0  0  0  0  0
   57.6800   28.3050   45.1760 C   0  0  0  0  0  0  0  0  0  0  0  0
   56.8200   29.0160   44.3450 C   0  0  0  0  0  0  0  0  0  0  0  0
   56.7690   30.3120   44.7330 N   0  0  0  0  0  0  0  0  0  0  0  0
   57.5640   30.4360   45.7850 N   0  0  0  0  0  0  0  0  0  0  0  0
   57.8170   31.5420   46.5430 C   0  0  0  0  0  0  0  0  0  0  0  0
   57.3040   32.7140   46.2920 N   0  0  0  0  0  0  0  0  0  0  0  0
   57.4660   33.4890   45.0670 C   0  0  0  0  0  0  0  0  0  0  0  0
   58.4980   34.5980   45.1710 C   0  0  0  0  0  0  0  0  0  0  0  0
   58.8380   33.3050   44.4440 C   0  0  0  0  0  0  0  0  0  0  0  0
   58.6440   31.4020   47.6150 N   0  0  0  0  0  0  0  0  0  0  0  0
   59.2020   30.1890   47.9220 C   0  0  0  0  0  0  0  0  0  0  0  0
   59.9920   30.0600   48.9450 N   0  0  0  0  0  0  0  0  0  0  0  0
   60.6910   31.1620   49.6070 C   0  0  0  0  0  0  0  0  0  0  0  0
   61.4940   31.9520   48.6100 C   0  0  0  0  0  0  0  0  0  0  0  0
   62.8350   31.6240   48.3490 C   0  0  0  0  0  0  0  0  0  0  0  0
   63.5810   32.3780   47.4380 C   0  0  0  0  0  0  0  0  0  0  0  0
   62.9960   33.4660   46.7820 C   0  0  0  0  0  0  0  0  0  0  0  0
   63.7230   34.1950   45.9010 F   0  0  0  0  0  0  0  0  0  0  0  0
   61.6620   33.8000   47.0390 C   0  0  0  0  0  0  0  0  0  0  0  0
   61.0940   34.8570   46.4060 F   0  0  0  0  0  0  0  0  0  0  0  0
   60.9130   33.0480   47.9500 C   0  0  0  0  0  0  0  0  0  0  0  0
   58.9290   29.1000   47.1510 N   0  0  0  0  0  0  0  0  0  0  0  0
   58.1170   29.2550   46.0780 C   0  0  0  0  0  0  0  0  0  0  0  0
  1  2  1  0
  2  3  1  0
  3  4  1  0
  4  5  2  0
  4  6  1  0
  6  7  1  0
  7  8  1  0
  8  9  2  0
  9 10  1  0
 10 11  2  0
 11 12  1  0
 12 13  1  0
 13 14  2  3
 14 15  1  0
 15 16  1  0
 16 17  1  0
 13 18  1  0
 18 19  1  0
 19 20  2  0
 20 21  1  0
 21 22  1  0
 22 23  2  0
 23 24  1  0
 24 25  2  0
 25 26  1  0
 25 27  1  0
 27 28  1  0
 27 29  2  0
 19 30  1  0
 30 31  2  0
  7  2  2  0
 31  9  1  0
 31 12  1  0
 17 15  1  0
 29 22  1  0
M  CHG  3   3  -1   6  -1  18  -1
M  END
>  <UniqueID>  (61) 
15

>  <SMILES>  (61) 
O=c1[n-]c(O)c(/C=c2/cnn3c(=NC4CC4)[n-]/c(=N\Cc4ccc(F)c(F)c4)nc23)[n-]1

>  <Energy>  (61) 
389.8786334752045

>  <Genealogy>  (61) 
O=c1[n-]c(O)c(C=c2cnn3c(=NC4CC4)[n-]c(=NCc4ccc(F)c(F)c4)nc23)[n-]1 (protonated)
O=c1[n-]c(O)c(/C=c2/cnn3c(=NC4CC4)[n-]/c(=N\Cc4ccc(F)c(F)c4)nc23)[n-]1 (cis-trans isomerization)
O=c1[n-]c(O)c(/C=c2/cnn3c(=NC4CC4)[n-]/c(=N\Cc4ccc(F)c(F)c4)nc23)[n-]1 (3D coordinates assigned)
O=c1[n-]c(O)c(/C=c2/cnn3c(=NC4CC4)[n-]/c(=N\Cc4ccc(F)c(F)c4)nc23)[n-]1 (nonaromatic ring conformer: 389.8786334752045 kcal/mol)

>  <smiles>  (61) 
O=c1[nH]c(O)c(C=c2cnn3c(=NC4CC4)[nH]c(=NCc4ccc(F)c(F)c4)nc23)[nH]1

>  <score_type>  (61) 
oracle

>  <origin>  (61) 
adg

>  <m_score__min__energy>  (61) 
-14.390000000000001

>  <m_primary>  (61) 
energy

$$$$
33:0
     RDKit          3D

 27 29  0  0  0  0  0  0  0  0999 V2000
   63.6150   32.8390   48.0970 N   0  0  0  0  0  0  0  0  0  0  0  0
   62.8090   33.4930   47.1170 C   0  0  0  0  0  0  0  0  0  0  0  0
   63.3360   34.3620   46.3720 O   0  0  0  0  0  0  0  0  0  0  0  0
   61.3720   33.1580   46.9770 C   0  0  0  0  0  0  0  0  0  0  0  0
   60.3950   34.1640   47.0740 C   0  0  0  0  0  0  0  0  0  0  0  0
   59.0400   33.8480   46.9500 C   0  0  0  0  0  0  0  0  0  0  0  0
   58.6430   32.5300   46.7310 C   0  0  0  0  0  0  0  0  0  0  0  0
   59.5990   31.5050   46.6290 C   0  0  0  0  0  0  0  0  0  0  0  0
   59.1770   30.0990   46.4010 C   0  0  0  0  0  0  0  0  0  0  0  0
   58.8420   29.6520   45.1100 C   0  0  0  0  0  0  0  0  0  0  0  0
   58.4400   28.3310   44.8970 C   0  0  0  0  0  0  0  0  0  0  0  0
   58.3510   27.4340   45.9750 C   0  0  0  0  0  0  0  0  0  0  0  0
   57.9540   26.0650   45.7990 N   0  0  0  0  0  0  0  0  0  0  0  0
   57.1640   25.2760   46.7000 C   0  0  0  0  0  0  0  0  0  0  0  0
   57.5510   25.1000   47.8870 O   0  0  0  0  0  0  0  0  0  0  0  0
   55.9290   24.6100   46.2110 C   0  0  0  0  0  0  0  0  0  0  0  0
   55.9090   23.2100   46.0690 C   0  0  0  0  0  0  0  0  0  0  0  0
   54.7480   22.5710   45.6300 C   0  0  0  0  0  0  0  0  0  0  0  0
   54.7270   21.3170   45.5080 O   0  0  0  0  0  0  0  0  0  0  0  0
   53.6150   23.3270   45.3300 C   0  0  0  0  0  0  0  0  0  0  0  0
   52.4480   22.7110   44.8930 O   0  0  0  0  0  0  0  0  0  0  0  0
   53.6630   24.7140   45.4710 C   0  0  0  0  0  0  0  0  0  0  0  0
   54.7990   25.3300   45.9010 N   0  0  0  0  0  0  0  0  0  0  0  0
   54.7900   26.7040   45.9960 O   0  0  0  0  0  0  0  0  0  0  0  0
   58.7100   27.8680   47.2550 C   0  0  0  0  0  0  0  0  0  0  0  0
   59.1130   29.1890   47.4710 C   0  0  0  0  0  0  0  0  0  0  0  0
   60.9630   31.8290   46.7540 C   0  0  0  0  0  0  0  0  0  0  0  0
  1  2  1  0
  2  3  2  0
  2  4  1  0
  4  5  2  0
  5  6  1  0
  6  7  2  0
  7  8  1  0
  8  9  1  0
  9 10  2  0
 10 11  1  0
 11 12  2  0
 12 13  1  0
 13 14  1  0
 14 15  2  0
 14 16  1  0
 16 17  2  0
 17 18  1  0
 18 19  2  0
 18 20  1  0
 20 21  1  0
 20 22  2  0
 22 23  1  0
 23 24  1  0
 12 25  1  0
 25 26  2  0
  8 27  2  0
 27  4  1  0
 26  9  1  0
 23 16  1  0
M  CHG  4   1  -1  13  -1  21  -1  24  -1
M  END
>  <UniqueID>  (62) 
28

>  <SMILES>  (62) 
[NH-]C(=O)c1cccc(-c2ccc([N-]C(=O)c3cc(=O)c([O-])cn3[O-])cc2)c1

>  <Energy>  (62) 
54.24663481590607

>  <Genealogy>  (62) 
[NH-]C(=O)c1cccc(-c2ccc([N-]C(=O)c3cc(=O)c([O-])cn3[O-])cc2)c1 (protonated)
[NH-]C(=O)c1cccc(-c2ccc([N-]C(=O)c3cc(=O)c([O-])cn3[O-])cc2)c1 (3D coordinates assigned)
[NH-]C(=O)c1cccc(-c2ccc([N-]C(=O)c3cc(=O)c([O-])cn3[O-])cc2)c1 (optimized conformer: 54.24663481590607 kcal/mol)

>  <smiles>  (62) 
NC(=O)c1cccc(-c2ccc(NC(=O)c3cc(=O)c(O)cn3O)cc2)c1

>  <score_type>  (62) 
oracle

>  <origin>  (62) 
adg

>  <m_score__min__energy>  (62) 
-15.6

>  <m_primary>  (62) 
energy

$$$$
38:0
     RDKit          3D

 33 37  0  0  0  0  0  0  0  0999 V2000
   55.1160   26.7550   45.9840 O   0  0  0  0  0  0  0  0  0  0  0  0
   54.9340   25.4240   45.6270 C   0  0  0  0  0  0  0  0  0  0  0  0
   53.7830   24.7500   45.8080 N   0  0  0  0  0  0  0  0  0  0  0  0
   54.0590   23.5460   45.2570 C   0  0  0  0  0  0  0  0  0  0  0  0
   53.2150   22.6140   45.2180 O   0  0  0  0  0  0  0  0  0  0  0  0
   55.3020   23.4270   44.7410 N   0  0  0  0  0  0  0  0  0  0  0  0
   55.8620   24.6210   45.0010 C   0  0  0  0  0  0  0  0  0  0  0  0
   57.2250   24.9800   44.5690 C   0  0  0  0  0  0  0  0  0  0  0  0
   58.1060   25.6270   45.3450 C   0  0  0  0  0  0  0  0  0  0  0  0
   59.2360   25.1300   45.9970 C   0  0  0  0  0  0  0  0  0  0  0  0
   59.8750   26.1420   46.6330 N   0  0  0  0  0  0  0  0  0  0  0  0
   59.1870   27.2510   46.3960 N   0  0  0  0  0  0  0  0  0  0  0  0
   59.4340   28.5280   46.8170 C   0  0  0  0  0  0  0  0  0  0  0  0
   60.4520   28.8470   47.5630 N   0  0  0  0  0  0  0  0  0  0  0  0
   60.5180   28.7830   49.0200 C   0  0  0  0  0  0  0  0  0  0  0  0
   60.6370   30.1420   49.6910 C   0  0  0  0  0  0  0  0  0  0  0  0
   59.2960   29.4170   49.6630 C   0  0  0  0  0  0  0  0  0  0  0  0
   58.5730   29.5060   46.4240 N   0  0  0  0  0  0  0  0  0  0  0  0
   57.5060   29.2230   45.6170 C   0  0  0  0  0  0  0  0  0  0  0  0
   56.7440   30.1940   45.2160 N   0  0  0  0  0  0  0  0  0  0  0  0
   57.1230   31.1780   44.2070 C   0  0  0  0  0  0  0  0  0  0  0  0
   57.7750   32.3540   44.8730 C   0  0  0  0  0  0  0  0  0  0  0  0
   58.0090   33.5440   44.1640 C   0  0  0  0  0  0  0  0  0  0  0  0
   58.6310   34.6270   44.7910 C   0  0  0  0  0  0  0  0  0  0  0  0
   59.0150   34.5350   46.1320 C   0  0  0  0  0  0  0  0  0  0  0  0
   58.7690   33.3610   46.8670 C   0  0  0  0  0  0  0  0  0  0  0  0
   59.2140   33.2510   48.3010 C   0  0  0  0  0  0  0  0  0  0  0  0
   58.2990   32.4870   49.0060 F   0  0  0  0  0  0  0  0  0  0  0  0
   59.2950   34.5040   48.8840 F   0  0  0  0  0  0  0  0  0  0  0  0
   60.4620   32.6580   48.3830 F   0  0  0  0  0  0  0  0  0  0  0  0
   58.1790   32.2630   46.2160 C   0  0  0  0  0  0  0  0  0  0  0  0
   57.2770   27.9380   45.2120 N   0  0  0  0  0  0  0  0  0  0  0  0
   58.1300   26.9730   45.6300 C   0  0  0  0  0  0  0  0  0  0  0  0
  1  2  1  0
  2  3  1  0
  3  4  1  0
  4  5  2  0
  4  6  1  0
  6  7  1  0
  7  8  1  0
  8  9  2  3
  9 10  1  0
 10 11  2  0
 11 12  1  0
 12 13  1  0
 13 14  2  3
 14 15  1  0
 15 16  1  0
 16 17  1  0
 13 18  1  0
 18 19  1  0
 19 20  2  0
 20 21  1  0
 21 22  1  0
 22 23  2  0
 23 24  1  0
 24 25  2  0
 25 26  1  0
 26 27  1  0
 27 28  1  0
 27 29  1  0
 27 30  1  0
 26 31  2  0
 19 32  1  0
 32 33  2  0
  7  2  2  0
 33  9  1  0
 33 12  1  0
 17 15  1  0
 31 22  1  0
M  CHG  3   3  -1   6  -1  18  -1
M  END
>  <UniqueID>  (63) 
34

>  <SMILES>  (63) 
O=c1[n-]c(O)c(C=c2cnn3c(=NC4CC4)[n-]/c(=N/Cc4cccc(C(F)(F)F)c4)nc23)[n-]1

>  <Energy>  (63) 
392.99286027642154

>  <Genealogy>  (63) 
O=c1[n-]c(O)c(C=c2cnn3c(=NC4CC4)[n-]c(=NCc4cccc(C(F)(F)F)c4)nc23)[n-]1 (protonated)
O=c1[n-]c(O)c(C=c2cnn3c(=NC4CC4)[n-]/c(=N/Cc4cccc(C(F)(F)F)c4)nc23)[n-]1 (cis-trans isomerization)
O=c1[n-]c(O)c(C=c2cnn3c(=NC4CC4)[n-]/c(=N/Cc4cccc(C(F)(F)F)c4)nc23)[n-]1 (3D coordinates assigned)
O=c1[n-]c(O)c(C=c2cnn3c(=NC4CC4)[n-]/c(=N/Cc4cccc(C(F)(F)F)c4)nc23)[n-]1 (nonaromatic ring conformer: 392.99286027642154 kcal/mol)

>  <smiles>  (63) 
O=c1[nH]c(O)c(C=c2cnn3c(=NC4CC4)[nH]c(=NCc4cccc(C(F)(F)F)c4)nc23)[nH]1

>  <score_type>  (63) 
oracle

>  <origin>  (63) 
adg

>  <m_score__min__energy>  (63) 
-14.539999999999999

>  <m_primary>  (63) 
energy

$$$$
64:0
     RDKit          3D

 27 29  0  0  0  0  0  0  0  0999 V2000
   61.8520   33.7390   46.7910 C   0  0  0  0  0  0  0  0  0  0  0  0
   60.7040   33.2250   47.4620 O   0  0  0  0  0  0  0  0  0  0  0  0
   59.8250   32.2730   46.9220 C   0  0  0  0  0  0  0  0  0  0  0  0
   59.9480   30.8990   47.2100 C   0  0  0  0  0  0  0  0  0  0  0  0
   59.0610   29.9770   46.6520 C   0  0  0  0  0  0  0  0  0  0  0  0
   58.0480   30.4010   45.7860 C   0  0  0  0  0  0  0  0  0  0  0  0
   57.1450   29.4250   45.2530 N   0  0  0  0  0  0  0  0  0  0  0  0
   57.3590   28.0080   45.2220 C   0  0  0  0  0  0  0  0  0  0  0  0
   57.6670   27.4250   44.1480 O   0  0  0  0  0  0  0  0  0  0  0  0
   57.2520   27.2180   46.4870 C   0  0  0  0  0  0  0  0  0  0  0  0
   56.7940   25.8610   46.1930 N   0  0  0  0  0  0  0  0  0  0  0  0
   55.5180   25.4610   45.9920 C   0  0  0  0  0  0  0  0  0  0  0  0
   54.4230   26.3170   45.9720 O   0  0  0  0  0  0  0  0  0  0  0  0
   55.4660   24.0920   45.8150 C   0  0  0  0  0  0  0  0  0  0  0  0
   56.7650   23.6390   45.8840 C   0  0  0  0  0  0  0  0  0  0  0  0
   57.5520   24.7430   46.1470 C   0  0  0  0  0  0  0  0  0  0  0  0
   58.9290   24.7210   46.3520 O   0  0  0  0  0  0  0  0  0  0  0  0
   57.1540   22.1940   45.8010 C   0  0  0  0  0  0  0  0  0  0  0  0
   56.0250   21.3730   45.1470 C   0  0  0  0  0  0  0  0  0  0  0  0
   54.6400   21.7360   45.7320 C   0  0  0  0  0  0  0  0  0  0  0  0
   54.2880   23.2200   45.4950 C   0  0  0  0  0  0  0  0  0  0  0  0
   57.9010   31.7720   45.5170 C   0  0  0  0  0  0  0  0  0  0  0  0
   58.7870   32.7080   46.0740 C   0  0  0  0  0  0  0  0  0  0  0  0
   58.5990   34.4260   45.7130 S   0  0  0  0  0  0  0  0  0  0  0  0
   58.8920   35.3440   47.1480 N   0  0  0  0  0  0  0  0  0  0  0  0
   57.2010   34.6830   45.2210 O   0  0  0  0  0  0  0  0  0  0  0  0
   59.5770   34.8520   44.6520 O   0  0  0  0  0  0  0  0  0  0  0  0
  1  2  1  0
  2  3  1  0
  3  4  2  0
  4  5  1  0
  5  6  2  0
  6  7  1  0
  7  8  1  0
  8  9  2  0
  8 10  1  0
 10 11  1  0
 11 12  1  0
 12 13  1  0
 12 14  2  0
 14 15  1  0
 15 16  2  0
 16 17  1  0
 15 18  1  0
 18 19  1  0
 19 20  1  0
 20 21  1  0
  6 22  1  0
 22 23  2  0
 23 24  1  0
 24 25  1  0
 24 26  2  0
 24 27  2  0
 23  3  1  0
 16 11  1  0
 21 14  1  0
M  CHG  4   7  -1  13  -1  17  -1  25  -1
M  END
>  <UniqueID>  (64) 
57

>  <SMILES>  (64) 
COc1ccc([N-]C(=O)Cn2c([O-])c3c(c2[O-])CCCC3)cc1S([NH-])(=O)=O

>  <Energy>  (64) 
75.37176598839972

>  <Genealogy>  (64) 
COc1ccc([N-]C(=O)Cn2c([O-])c3c(c2[O-])CCCC3)cc1S([NH-])(=O)=O (protonated)
COc1ccc([N-]C(=O)Cn2c([O-])c3c(c2[O-])CCCC3)cc1S([NH-])(=O)=O (3D coordinates assigned)
COc1ccc([N-]C(=O)Cn2c([O-])c3c(c2[O-])CCCC3)cc1S([NH-])(=O)=O (nonaromatic ring conformer: 75.37176598839972 kcal/mol)

>  <smiles>  (64) 
COc1ccc(NC(=O)Cn2c(O)c3c(c2O)CCCC3)cc1S(N)(=O)=O

>  <score_type>  (64) 
oracle

>  <origin>  (64) 
adg

>  <m_score__min__energy>  (64) 
-15.74

>  <m_primary>  (64) 
energy

$$$$
12:0
     RDKit          3D

 31 34  0  0  0  0  0  0  0  0999 V2000
   55.3020   29.6200   44.8890 N   0  0  0  0  0  0  0  0  0  0  0  0
   56.3340   30.2250   44.1120 C   0  0  0  0  0  0  0  0  0  0  0  0
   56.1840   30.3510   42.8680 O   0  0  0  0  0  0  0  0  0  0  0  0
   57.5370   30.7740   44.7700 C   0  0  0  0  0  0  0  0  0  0  0  0
   57.4760   32.1300   45.1900 C   0  0  0  0  0  0  0  0  0  0  0  0
   58.4330   32.6620   46.0040 N   0  0  0  0  0  0  0  0  0  0  0  0
   59.4510   31.8720   46.4290 C   0  0  0  0  0  0  0  0  0  0  0  0
   59.5750   30.5720   46.0350 C   0  0  0  0  0  0  0  0  0  0  0  0
   60.7330   30.0830   46.6150 C   0  0  0  0  0  0  0  0  0  0  0  0
   61.2520   31.1400   47.3590 C   0  0  0  0  0  0  0  0  0  0  0  0
   60.4630   32.2300   47.2380 N   0  0  0  0  0  0  0  0  0  0  0  0
   60.7150   33.7690   47.9960 S   0  0  0  0  0  0  0  0  0  0  0  0
   59.7080   34.7470   47.4560 O   0  0  0  0  0  0  0  0  0  0  0  0
   62.0990   34.2680   47.6900 O   0  0  0  0  0  0  0  0  0  0  0  0
   60.5380   33.6050   49.7400 C   0  0  0  0  0  0  0  0  0  0  0  0
   61.6670   33.5890   50.5700 C   0  0  0  0  0  0  0  0  0  0  0  0
   61.5190   33.4660   51.9550 C   0  0  0  0  0  0  0  0  0  0  0  0
   60.2430   33.3560   52.5150 C   0  0  0  0  0  0  0  0  0  0  0  0
   59.1140   33.3680   51.6910 C   0  0  0  0  0  0  0  0  0  0  0  0
   59.2610   33.4900   50.3050 C   0  0  0  0  0  0  0  0  0  0  0  0
   58.6680   29.9800   45.1540 C   0  0  0  0  0  0  0  0  0  0  0  0
   58.9290   28.7740   44.7210 N   0  0  0  0  0  0  0  0  0  0  0  0
   58.6030   27.5070   45.3080 C   0  0  0  0  0  0  0  0  0  0  0  0
   59.6330   26.6130   45.6220 C   0  0  0  0  0  0  0  0  0  0  0  0
   59.3360   25.3540   46.1450 C   0  0  0  0  0  0  0  0  0  0  0  0
   58.0060   24.9670   46.3340 C   0  0  0  0  0  0  0  0  0  0  0  0
   56.9560   25.8340   45.9840 C   0  0  0  0  0  0  0  0  0  0  0  0
   55.5490   25.4170   46.1670 C   0  0  0  0  0  0  0  0  0  0  0  0
   55.2680   24.2330   46.4950 O   0  0  0  0  0  0  0  0  0  0  0  0
   54.5150   26.3260   45.9770 O   0  0  0  0  0  0  0  0  0  0  0  0
   57.2650   27.1010   45.4540 C   0  0  0  0  0  0  0  0  0  0  0  0
  1  2  1  0
  2  3  2  0
  2  4  1  0
  4  5  2  0
  5  6  1  0
  6  7  1  0
  7  8  2  0
  8  9  1  0
  9 10  2  0
 10 11  1  0
 11 12  1  0
 12 13  2  0
 12 14  2  0
 12 15  1  0
 15 16  2  0
 16 17  1  0
 17 18  2  0
 18 19  1  0
 19 20  2  0
  8 21  1  0
 21 22  2  0
 22 23  1  0
 23 24  2  0
 24 25  1  0
 25 26  2  0
 26 27  1  0
 27 28  1  0
 28 29  2  0
 28 30  1  0
 27 31  2  0
 21  4  1  0
 31 23  1  0
 11  7  1  0
 20 15  1  0
M  CHG  2   1  -1  30  -1
M  END
>  <UniqueID>  (65) 
11

>  <SMILES>  (65) 
[NH-]C(=O)c1c[nH]c2c(ccn2S(=O)(=O)c2ccccc2)/c1=N/c1cccc(C(=O)[O-])c1

>  <Energy>  (65) 
106.21327537321054

>  <Genealogy>  (65) 
[NH-]C(=O)c1c[nH]c2c(ccn2S(=O)(=O)c2ccccc2)c1=Nc1cccc(C(=O)[O-])c1 (protonated)
[NH-]C(=O)c1c[nH]c2c(ccn2S(=O)(=O)c2ccccc2)/c1=N/c1cccc(C(=O)[O-])c1 (cis-trans isomerization)
[NH-]C(=O)c1c[nH]c2c(ccn2S(=O)(=O)c2ccccc2)/c1=N/c1cccc(C(=O)[O-])c1 (3D coordinates assigned)
[NH-]C(=O)c1c[nH]c2c(ccn2S(=O)(=O)c2ccccc2)/c1=N/c1cccc(C(=O)[O-])c1 (optimized conformer: 106.21327537321054 kcal/mol)

>  <smiles>  (65) 
NC(=O)c1c[nH]c2c(ccn2S(=O)(=O)c2ccccc2)c1=Nc1cccc(C(=O)O)c1

>  <score_type>  (65) 
oracle

>  <origin>  (65) 
adg

>  <m_score__min__energy>  (65) 
-15.109999999999999

>  <m_primary>  (65) 
energy

$$$$
23:0
     RDKit          3D

 30 34  0  0  0  0  0  0  0  0999 V2000
   52.6860   30.4020   51.5750 C   0  0  0  0  0  0  0  0  0  0  0  0
   51.7140   31.3500   52.1460 C   0  0  0  0  0  0  0  0  0  0  0  0
   51.4670   31.4470   53.4640 N   0  0  0  0  0  0  0  0  0  0  0  0
   50.5900   32.4700   53.5450 C   0  0  0  0  0  0  0  0  0  0  0  0
   50.1050   32.8630   54.6370 O   0  0  0  0  0  0  0  0  0  0  0  0
   50.2820   33.0480   52.3640 N   0  0  0  0  0  0  0  0  0  0  0  0
   51.0110   32.3360   51.4890 C   0  0  0  0  0  0  0  0  0  0  0  0
   51.0680   32.6180   50.1300 O   0  0  0  0  0  0  0  0  0  0  0  0
   53.6830   29.8380   52.2730 C   0  0  0  0  0  0  0  0  0  0  0  0
   53.6250   28.8300   53.2300 C   0  0  0  0  0  0  0  0  0  0  0  0
   54.8670   28.6080   53.7170 N   0  0  0  0  0  0  0  0  0  0  0  0
   55.7130   29.4340   53.1100 N   0  0  0  0  0  0  0  0  0  0  0  0
   57.0650   29.6150   53.2610 C   0  0  0  0  0  0  0  0  0  0  0  0
   57.8220   28.9170   54.0610 N   0  0  0  0  0  0  0  0  0  0  0  0
   58.3980   29.2870   55.3470 C   0  0  0  0  0  0  0  0  0  0  0  0
   58.0320   30.6840   55.8180 C   0  0  0  0  0  0  0  0  0  0  0  0
   59.3990   30.4210   55.2090 C   0  0  0  0  0  0  0  0  0  0  0  0
   57.6590   30.5880   52.5140 N   0  0  0  0  0  0  0  0  0  0  0  0
   56.9420   31.3550   51.6390 C   0  0  0  0  0  0  0  0  0  0  0  0
   57.5220   32.2780   50.9330 N   0  0  0  0  0  0  0  0  0  0  0  0
   58.9600   32.5200   50.9270 C   0  0  0  0  0  0  0  0  0  0  0  0
   59.3530   33.2100   52.2020 C   0  0  0  0  0  0  0  0  0  0  0  0
   60.5010   32.8030   52.9020 C   0  0  0  0  0  0  0  0  0  0  0  0
   60.8470   33.4230   54.1070 C   0  0  0  0  0  0  0  0  0  0  0  0
   60.0440   34.4440   54.6260 C   0  0  0  0  0  0  0  0  0  0  0  0
   60.3800   35.0420   55.7960 F   0  0  0  0  0  0  0  0  0  0  0  0
   58.8920   34.8430   53.9420 C   0  0  0  0  0  0  0  0  0  0  0  0
   58.5430   34.2250   52.7370 C   0  0  0  0  0  0  0  0  0  0  0  0
   55.6040   31.1540   51.5010 N   0  0  0  0  0  0  0  0  0  0  0  0
   55.0170   30.1880   52.2460 C   0  0  0  0  0  0  0  0  0  0  0  0
  1  2  1  0
  2  3  1  0
  3  4  1  0
  4  5  2  0
  4  6  1  0
  6  7  1  0
  7  8  1  0
  1  9  2  3
  9 10  1  0
 10 11  2  0
 11 12  1  0
 12 13  1  0
 13 14  2  0
 14 15  1  0
 15 16  1  0
 16 17  1  0
 13 18  1  0
 18 19  1  0
 19 20  2  3
 20 21  1  0
 21 22  1  0
 22 23  2  0
 23 24  1  0
 24 25  2  0
 25 26  1  0
 25 27  1  0
 27 28  2  0
 19 29  1  0
 29 30  2  0
  7  2  2  0
 30  9  1  0
 30 12  1  0
 17 15  1  0
 28 22  1  0
M  CHG  5   3  -1   6  -1   8  -1  11   1  18  -1
M  END
>  <UniqueID>  (66) 
23

>  <SMILES>  (66) 
O=c1[n-]c([O-])c(C=c2c[nH+]n3/c(=N\C4CC4)[n-]c(=NCc4ccc(F)cc4)nc23)[n-]1

>  <Energy>  (66) 
394.3719793315851

>  <Genealogy>  (66) 
O=c1[n-]c([O-])c(C=c2c[nH+]n3c(=NC4CC4)[n-]c(=NCc4ccc(F)cc4)nc23)[n-]1 (protonated)
O=c1[n-]c([O-])c(C=c2c[nH+]n3/c(=N\C4CC4)[n-]c(=NCc4ccc(F)cc4)nc23)[n-]1 (cis-trans isomerization)
O=c1[n-]c([O-])c(C=c2c[nH+]n3/c(=N\C4CC4)[n-]c(=NCc4ccc(F)cc4)nc23)[n-]1 (3D coordinates assigned)
O=c1[n-]c([O-])c(C=c2c[nH+]n3/c(=N\C4CC4)[n-]c(=NCc4ccc(F)cc4)nc23)[n-]1 (nonaromatic ring conformer: 394.3719793315851 kcal/mol)

>  <smiles>  (66) 
O=c1[nH]c(O)c(C=c2cnn3c(=NC4CC4)[nH]c(=NCc4ccc(F)cc4)nc23)[nH]1

>  <score_type>  (66) 
oracle

>  <origin>  (66) 
adg

>  <m_score__min__energy>  (66) 
-17.030000000000001

>  <m_primary>  (66) 
energy

$$$$
82:0
     RDKit          3D

 22 23  0  0  0  0  0  0  0  0999 V2000
   58.1480   32.6610   46.9920 C   0  0  0  0  0  0  0  0  0  0  0  0
   57.6300   32.9310   45.3130 S   0  0  0  0  0  0  0  0  0  0  0  0
   58.8370   33.2640   44.4820 O   0  0  0  0  0  0  0  0  0  0  0  0
   56.6480   34.0680   45.2820 O   0  0  0  0  0  0  0  0  0  0  0  0
   56.8820   31.4810   44.7240 N   0  0  0  0  0  0  0  0  0  0  0  0
   57.2220   30.1190   45.0370 C   0  0  0  0  0  0  0  0  0  0  0  0
   58.5810   29.8150   45.1810 C   0  0  0  0  0  0  0  0  0  0  0  0
   58.9950   28.5190   45.4890 C   0  0  0  0  0  0  0  0  0  0  0  0
   58.0540   27.5050   45.6550 C   0  0  0  0  0  0  0  0  0  0  0  0
   56.6850   27.7800   45.5020 C   0  0  0  0  0  0  0  0  0  0  0  0
   55.6960   26.7560   45.6910 N   0  0  0  0  0  0  0  0  0  0  0  0
   55.9390   25.4170   46.1440 C   0  0  0  0  0  0  0  0  0  0  0  0
   55.9630   25.1950   47.3840 O   0  0  0  0  0  0  0  0  0  0  0  0
   56.1080   24.2860   45.2020 C   0  0  0  0  0  0  0  0  0  0  0  0
   57.3840   23.8450   44.8150 C   0  0  0  0  0  0  0  0  0  0  0  0
   57.5180   22.7800   43.9210 C   0  0  0  0  0  0  0  0  0  0  0  0
   56.3710   22.1690   43.4080 C   0  0  0  0  0  0  0  0  0  0  0  0
   56.4740   21.2090   42.6010 O   0  0  0  0  0  0  0  0  0  0  0  0
   55.1420   22.6150   43.7770 N   0  0  0  0  0  0  0  0  0  0  0  0
   54.9850   23.6490   44.6470 C   0  0  0  0  0  0  0  0  0  0  0  0
   56.2660   29.0900   45.2170 C   0  0  0  0  0  0  0  0  0  0  0  0
   54.9030   29.3430   45.1220 O   0  0  0  0  0  0  0  0  0  0  0  0
  1  2  1  0
  2  3  2  0
  2  4  2  0
  2  5  1  0
  5  6  1  0
  6  7  2  0
  7  8  1  0
  8  9  2  0
  9 10  1  0
 10 11  1  0
 11 12  1  0
 12 13  2  0
 12 14  1  0
 14 15  1  0
 15 16  2  0
 16 17  1  0
 17 18  2  0
 17 19  1  0
 19 20  1  0
 10 21  2  0
 21 22  1  0
 21  6  1  0
 20 14  2  0
M  CHG  4   5  -1  11  -1  19  -1  22  -1
M  END
>  <UniqueID>  (67) 
78

>  <SMILES>  (67) 
CS(=O)(=O)[N-]c1cccc([N-]C(=O)c2ccc(=O)[n-]c2)c1[O-]

>  <Energy>  (67) 
42.435872063603746

>  <Genealogy>  (67) 
CS(=O)(=O)[N-]c1cccc([N-]C(=O)c2ccc(=O)[n-]c2)c1[O-] (protonated)
CS(=O)(=O)[N-]c1cccc([N-]C(=O)c2ccc(=O)[n-]c2)c1[O-] (3D coordinates assigned)
CS(=O)(=O)[N-]c1cccc([N-]C(=O)c2ccc(=O)[n-]c2)c1[O-] (optimized conformer: 42.435872063603746 kcal/mol)

>  <smiles>  (67) 
CS(=O)(=O)Nc1cccc(NC(=O)c2ccc(=O)[nH]c2)c1O

>  <score_type>  (67) 
oracle

>  <origin>  (67) 
adg

>  <m_score__min__energy>  (67) 
-16.100000000000001

>  <m_primary>  (67) 
energy

$$$$
53:0
     RDKit          3D

 27 31  0  0  0  0  0  0  0  0999 V2000
   58.1350   27.1920   45.1830 C   0  0  0  0  0  0  0  0  0  0  0  0
   57.4700   26.1910   46.0350 C   0  0  0  0  0  0  0  0  0  0  0  0
   58.0940   25.1020   46.5140 N   0  0  0  0  0  0  0  0  0  0  0  0
   57.1120   24.4350   47.1590 C   0  0  0  0  0  0  0  0  0  0  0  0
   57.3130   23.3490   47.7620 O   0  0  0  0  0  0  0  0  0  0  0  0
   55.8970   25.0210   47.1000 N   0  0  0  0  0  0  0  0  0  0  0  0
   56.1360   26.1250   46.3750 C   0  0  0  0  0  0  0  0  0  0  0  0
   55.1440   27.0190   45.9910 O   0  0  0  0  0  0  0  0  0  0  0  0
   57.7230   28.4630   45.0580 C   0  0  0  0  0  0  0  0  0  0  0  0
   56.7010   28.9840   44.2710 C   0  0  0  0  0  0  0  0  0  0  0  0
   56.6050   30.3140   44.4910 N   0  0  0  0  0  0  0  0  0  0  0  0
   57.5180   30.6600   45.3930 N   0  0  0  0  0  0  0  0  0  0  0  0
   57.8250   31.8760   45.9520 C   0  0  0  0  0  0  0  0  0  0  0  0
   57.2260   32.9980   45.6590 N   0  0  0  0  0  0  0  0  0  0  0  0
   57.7850   34.2330   45.1260 C   0  0  0  0  0  0  0  0  0  0  0  0
   59.2300   34.1210   44.6690 C   0  0  0  0  0  0  0  0  0  0  0  0
   58.9020   34.7700   46.0030 C   0  0  0  0  0  0  0  0  0  0  0  0
   58.8290   31.9140   46.8710 N   0  0  0  0  0  0  0  0  0  0  0  0
   59.5070   30.7870   47.2380 C   0  0  0  0  0  0  0  0  0  0  0  0
   60.4700   30.8860   48.1060 N   0  0  0  0  0  0  0  0  0  0  0  0
   61.6160   31.7530   48.0510 C   0  0  0  0  0  0  0  0  0  0  0  0
   61.8210   32.7540   47.1000 C   0  0  0  0  0  0  0  0  0  0  0  0
   63.3260   33.4400   47.3950 S   0  0  0  0  0  0  0  0  0  0  0  0
   63.7340   32.4790   48.7110 C   0  0  0  0  0  0  0  0  0  0  0  0
   62.6910   31.5920   48.9350 C   0  0  0  0  0  0  0  0  0  0  0  0
   59.1940   29.5940   46.6610 N   0  0  0  0  0  0  0  0  0  0  0  0
   58.1960   29.5590   45.7480 C   0  0  0  0  0  0  0  0  0  0  0  0
  1  2  1  0
  2  3  1  0
  3  4  1  0
  4  5  2  0
  4  6  1  0
  6  7  1  0
  7  8  1  0
  1  9  2  0
  9 10  1  0
 10 11  2  0
 11 12  1  0
 12 13  1  0
 13 14  2  3
 14 15  1  0
 15 16  1  0
 16 17  1  0
 13 18  1  0
 18 19  1  0
 19 20  2  3
 20 21  1  0
 21 22  2  0
 22 23  1  0
 23 24  1  0
 24 25  2  0
 19 26  1  0
 26 27  2  0
  7  2  2  0
 27  9  1  0
 27 12  1  0
 17 15  1  0
 25 21  1  0
M  CHG  5   3  -1   6  -1   8  -1  11   1  18  -1
M  END
>  <UniqueID>  (68) 
46

>  <SMILES>  (68) 
O=c1[n-]c([O-])c(/C=c2\c[nH+]n3c(=NC4CC4)[n-]c(=Nc4ccsc4)nc23)[n-]1

>  <Energy>  (68) 
420.2131956695921

>  <Genealogy>  (68) 
O=c1[n-]c([O-])c(C=c2c[nH+]n3c(=NC4CC4)[n-]c(=Nc4ccsc4)nc23)[n-]1 (protonated)
O=c1[n-]c([O-])c(/C=c2\c[nH+]n3c(=NC4CC4)[n-]c(=Nc4ccsc4)nc23)[n-]1 (cis-trans isomerization)
O=c1[n-]c([O-])c(/C=c2\c[nH+]n3c(=NC4CC4)[n-]c(=Nc4ccsc4)nc23)[n-]1 (3D coordinates assigned)
O=c1[n-]c([O-])c(/C=c2\c[nH+]n3c(=NC4CC4)[n-]c(=Nc4ccsc4)nc23)[n-]1 (nonaromatic ring conformer: 420.2131956695921 kcal/mol)

>  <smiles>  (68) 
O=c1[nH]c(O)c(C=c2cnn3c(=NC4CC4)[nH]c(=Nc4ccsc4)nc23)[nH]1

>  <score_type>  (68) 
oracle

>  <origin>  (68) 
adg

>  <m_score__min__energy>  (68) 
-15.52

>  <m_primary>  (68) 
energy

$$$$
31:0
     RDKit          3D

 24 25  0  0  0  0  0  0  0  0999 V2000
   55.7130   23.8570   46.4650 C   0  0  0  0  0  0  0  0  0  0  0  0
   56.4960   24.8480   47.1220 O   0  0  0  0  0  0  0  0  0  0  0  0
   57.0330   25.9810   46.4910 C   0  0  0  0  0  0  0  0  0  0  0  0
   58.4210   26.2040   46.4020 C   0  0  0  0  0  0  0  0  0  0  0  0
   58.9130   27.3530   45.7750 C   0  0  0  0  0  0  0  0  0  0  0  0
   58.0310   28.3030   45.2450 C   0  0  0  0  0  0  0  0  0  0  0  0
   58.5740   29.5080   44.5820 C   0  0  0  0  0  0  0  0  0  0  0  0
   57.8400   30.4320   43.9420 C   0  0  0  0  0  0  0  0  0  0  0  0
   56.6230   31.0720   44.4790 C   0  0  0  0  0  0  0  0  0  0  0  0
   55.5430   30.4230   44.4810 O   0  0  0  0  0  0  0  0  0  0  0  0
   56.6420   32.4450   44.8900 N   0  0  0  0  0  0  0  0  0  0  0  0
   57.7340   33.1470   45.4990 C   0  0  0  0  0  0  0  0  0  0  0  0
   58.3430   34.2590   44.8890 C   0  0  0  0  0  0  0  0  0  0  0  0
   59.3760   34.9380   45.5400 C   0  0  0  0  0  0  0  0  0  0  0  0
   59.7990   34.5270   46.8060 C   0  0  0  0  0  0  0  0  0  0  0  0
   59.1780   33.4410   47.4370 C   0  0  0  0  0  0  0  0  0  0  0  0
   59.6890   32.9210   49.0390 S   0  0  0  0  0  0  0  0  0  0  0  0
   60.5980   34.1850   49.7870 N   0  0  0  0  0  0  0  0  0  0  0  0
   60.5390   31.6880   48.9180 O   0  0  0  0  0  0  0  0  0  0  0  0
   58.4900   32.6020   49.8880 O   0  0  0  0  0  0  0  0  0  0  0  0
   58.1480   32.7550   46.7790 C   0  0  0  0  0  0  0  0  0  0  0  0
   56.6480   28.0630   45.2990 C   0  0  0  0  0  0  0  0  0  0  0  0
   56.1540   26.9170   45.9300 C   0  0  0  0  0  0  0  0  0  0  0  0
   54.7810   26.7100   45.9990 O   0  0  0  0  0  0  0  0  0  0  0  0
  1  2  1  0
  2  3  1  0
  3  4  2  0
  4  5  1  0
  5  6  2  0
  6  7  1  0
  7  8  2  3
  8  9  1  0
  9 10  2  0
  9 11  1  0
 11 12  1  0
 12 13  2  0
 13 14  1  0
 14 15  2  0
 15 16  1  0
 16 17  1  0
 17 18  1  0
 17 19  2  0
 17 20  2  0
 16 21  2  0
  6 22  1  0
 22 23  2  0
 23 24  1  0
 23  3  1  0
 21 12  1  0
M  CHG  3  11  -1  18  -1  24  -1
M  END
>  <UniqueID>  (69) 
27

>  <SMILES>  (69) 
COc1ccc(C=CC(=O)[N-]c2cccc(S([NH-])(=O)=O)c2)cc1[O-]

>  <Energy>  (69) 
46.695777585239796

>  <Genealogy>  (69) 
COc1ccc(C=CC(=O)[N-]c2cccc(S([NH-])(=O)=O)c2)cc1[O-] (protonated)
COc1ccc(C=CC(=O)[N-]c2cccc(S([NH-])(=O)=O)c2)cc1[O-] (3D coordinates assigned)
COc1ccc(C=CC(=O)[N-]c2cccc(S([NH-])(=O)=O)c2)cc1[O-] (optimized conformer: 46.695777585239796 kcal/mol)

>  <smiles>  (69) 
COc1ccc(C=CC(=O)Nc2cccc(S(N)(=O)=O)c2)cc1O

>  <score_type>  (69) 
oracle

>  <origin>  (69) 
adg

>  <m_score__min__energy>  (69) 
-14.56

>  <m_primary>  (69) 
energy

$$$$
63:0
     RDKit          3D

 31 35  0  0  0  0  0  0  0  0999 V2000
   54.9860   26.7000   45.9900 O   0  0  0  0  0  0  0  0  0  0  0  0
   55.9970   25.7820   46.2670 C   0  0  0  0  0  0  0  0  0  0  0  0
   55.8120   24.6950   47.0340 N   0  0  0  0  0  0  0  0  0  0  0  0
   57.0470   24.1540   47.0890 C   0  0  0  0  0  0  0  0  0  0  0  0
   57.2980   23.1020   47.7340 O   0  0  0  0  0  0  0  0  0  0  0  0
   57.9940   24.8310   46.4070 N   0  0  0  0  0  0  0  0  0  0  0  0
   57.3160   25.8570   45.8650 C   0  0  0  0  0  0  0  0  0  0  0  0
   57.9540   26.8990   45.0440 C   0  0  0  0  0  0  0  0  0  0  0  0
   57.7010   28.2070   45.1850 C   0  0  0  0  0  0  0  0  0  0  0  0
   56.7670   29.0040   44.5160 C   0  0  0  0  0  0  0  0  0  0  0  0
   56.8810   30.2910   44.9300 N   0  0  0  0  0  0  0  0  0  0  0  0
   57.8510   30.3180   45.8300 N   0  0  0  0  0  0  0  0  0  0  0  0
   58.3290   31.3890   46.5080 C   0  0  0  0  0  0  0  0  0  0  0  0
   57.8070   32.5700   46.3130 N   0  0  0  0  0  0  0  0  0  0  0  0
   58.3930   33.8710   45.9370 C   0  0  0  0  0  0  0  0  0  0  0  0
   59.9110   33.9580   45.8850 C   0  0  0  0  0  0  0  0  0  0  0  0
   59.1400   34.6340   47.0210 C   0  0  0  0  0  0  0  0  0  0  0  0
   59.3570   31.1770   47.3790 N   0  0  0  0  0  0  0  0  0  0  0  0
   59.8850   29.9280   47.5570 C   0  0  0  0  0  0  0  0  0  0  0  0
   60.8720   29.7680   48.3870 N   0  0  0  0  0  0  0  0  0  0  0  0
   61.2700   30.7390   49.4070 C   0  0  0  0  0  0  0  0  0  0  0  0
   62.0510   31.8750   48.7910 C   0  0  0  0  0  0  0  0  0  0  0  0
   62.9060   31.6250   47.7030 C   0  0  0  0  0  0  0  0  0  0  0  0
   63.6110   32.6690   47.1040 C   0  0  0  0  0  0  0  0  0  0  0  0
   63.4740   33.9710   47.5840 C   0  0  0  0  0  0  0  0  0  0  0  0
   62.6300   34.2350   48.6650 C   0  0  0  0  0  0  0  0  0  0  0  0
   61.9080   33.1900   49.2780 C   0  0  0  0  0  0  0  0  0  0  0  0
   61.0450   33.4220   50.3620 O   0  0  0  0  0  0  0  0  0  0  0  0
   59.6310   33.5430   50.2570 C   0  0  0  0  0  0  0  0  0  0  0  0
   59.3780   28.8680   46.8600 N   0  0  0  0  0  0  0  0  0  0  0  0
   58.3590   29.0970   46.0000 C   0  0  0  0  0  0  0  0  0  0  0  0
  1  2  1  0
  2  3  1  0
  3  4  1  0
  4  5  2  0
  4  6  1  0
  6  7  1  0
  7  8  1  0
  8  9  2  3
  9 10  1  0
 10 11  2  0
 11 12  1  0
 12 13  1  0
 13 14  2  0
 14 15  1  0
 15 16  1  0
 16 17  1  0
 13 18  1  0
 18 19  1  0
 19 20  2  0
 20 21  1  0
 21 22  1  0
 22 23  2  0
 23 24  1  0
 24 25  2  0
 25 26  1  0
 26 27  2  0
 27 28  1  0
 28 29  1  0
 19 30  1  0
 30 31  2  0
  7  2  2  0
 31  9  1  0
 31 12  1  0
 17 15  1  0
 27 22  1  0
M  CHG  3   3  -1   6  -1  18  -1
M  END
>  <UniqueID>  (70) 
53

>  <SMILES>  (70) 
COc1ccccc1C/N=c1\nc2c(=Cc3[n-]c(=O)[n-]c3O)cnn2/c(=N/C2CC2)[n-]1

>  <Energy>  (70) 
399.56424775721155

>  <Genealogy>  (70) 
COc1ccccc1CN=c1nc2c(=Cc3[n-]c(=O)[n-]c3O)cnn2c(=NC2CC2)[n-]1 (protonated)
COc1ccccc1C/N=c1\nc2c(=Cc3[n-]c(=O)[n-]c3O)cnn2/c(=N/C2CC2)[n-]1 (cis-trans isomerization)
COc1ccccc1C/N=c1\nc2c(=Cc3[n-]c(=O)[n-]c3O)cnn2/c(=N/C2CC2)[n-]1 (3D coordinates assigned)
COc1ccccc1C/N=c1\nc2c(=Cc3[n-]c(=O)[n-]c3O)cnn2/c(=N/C2CC2)[n-]1 (nonaromatic ring conformer: 399.56424775721155 kcal/mol)

>  <smiles>  (70) 
COc1ccccc1CN=c1nc2c(=Cc3[nH]c(=O)[nH]c3O)cnn2c(=NC2CC2)[nH]1

>  <score_type>  (70) 
oracle

>  <origin>  (70) 
adg

>  <m_score__min__energy>  (70) 
-14.49

>  <m_primary>  (70) 
energy

$$$$
69:0
     RDKit          3D

 34 36  0  0  0  0  0  0  0  0999 V2000
   55.0070   26.3710   46.1660 N   0  0  0  0  0  0  0  0  0  0  0  0
   56.4280   26.2670   46.0900 C   0  0  0  0  0  0  0  0  0  0  0  0
   56.9620   25.1250   46.0370 O   0  0  0  0  0  0  0  0  0  0  0  0
   57.2680   27.4860   46.0680 C   0  0  0  0  0  0  0  0  0  0  0  0
   58.1190   27.7900   47.1480 C   0  0  0  0  0  0  0  0  0  0  0  0
   58.9220   28.9310   47.1220 C   0  0  0  0  0  0  0  0  0  0  0  0
   58.8880   29.7830   46.0200 C   0  0  0  0  0  0  0  0  0  0  0  0
   58.0240   29.5180   44.9500 C   0  0  0  0  0  0  0  0  0  0  0  0
   58.0030   30.3590   43.7920 N   0  0  0  0  0  0  0  0  0  0  0  0
   57.8370   31.7830   43.7790 C   0  0  0  0  0  0  0  0  0  0  0  0
   58.1910   32.4210   42.7520 O   0  0  0  0  0  0  0  0  0  0  0  0
   57.0930   32.5030   44.8730 C   0  0  0  0  0  0  0  0  0  0  0  0
   57.9690   33.4610   45.5660 N   0  0  0  0  0  0  0  0  0  0  0  0
   58.5510   34.4670   44.8460 C   0  0  0  0  0  0  0  0  0  0  0  0
   59.4200   35.3700   45.4560 C   0  0  0  0  0  0  0  0  0  0  0  0
   59.6740   35.2620   46.8180 C   0  0  0  0  0  0  0  0  0  0  0  0
   59.0650   34.2580   47.5650 C   0  0  0  0  0  0  0  0  0  0  0  0
   59.2970   34.2170   48.9790 N   0  0  0  0  0  0  0  0  0  0  0  0
   60.2050   32.9720   49.7730 S   0  0  0  0  0  0  0  0  0  0  0  0
   59.5880   31.6370   49.4700 O   0  0  0  0  0  0  0  0  0  0  0  0
   60.1790   33.1940   51.2640 O   0  0  0  0  0  0  0  0  0  0  0  0
   61.8610   32.9770   49.1630 C   0  0  0  0  0  0  0  0  0  0  0  0
   62.0950   33.2770   47.8170 C   0  0  0  0  0  0  0  0  0  0  0  0
   63.3980   33.3330   47.3230 C   0  0  0  0  0  0  0  0  0  0  0  0
   64.4800   33.1080   48.1760 C   0  0  0  0  0  0  0  0  0  0  0  0
   64.2650   32.8330   49.5380 C   0  0  0  0  0  0  0  0  0  0  0  0
   65.4250   32.5620   50.4620 C   0  0  0  0  0  0  0  0  0  0  0  0
   65.3530   33.4140   51.5470 F   0  0  0  0  0  0  0  0  0  0  0  0
   65.4080   31.2520   50.9140 F   0  0  0  0  0  0  0  0  0  0  0  0
   66.6190   32.7760   49.8020 F   0  0  0  0  0  0  0  0  0  0  0  0
   62.9470   32.7390   50.0180 C   0  0  0  0  0  0  0  0  0  0  0  0
   58.2400   33.3230   46.9050 C   0  0  0  0  0  0  0  0  0  0  0  0
   57.7730   32.3430   47.5440 O   0  0  0  0  0  0  0  0  0  0  0  0
   57.2330   28.3580   44.9680 C   0  0  0  0  0  0  0  0  0  0  0  0
  1  2  1  0
  2  3  2  0
  2  4  1  0
  4  5  2  0
  5  6  1  0
  6  7  2  0
  7  8  1  0
  8  9  1  0
  9 10  1  0
 10 11  2  0
 10 12  1  0
 12 13  1  0
 13 14  1  0
 14 15  2  0
 15 16  1  0
 16 17  2  0
 17 18  1  0
 18 19  1  0
 19 20  2  0
 19 21  2  0
 19 22  1  0
 22 23  2  0
 23 24  1  0
 24 25  2  0
 25 26  1  0
 26 27  1  0
 27 28  1  0
 27 29  1  0
 27 30  1  0
 26 31  2  0
 17 32  1  0
 32 33  2  0
  8 34  2  0
 34  4  1  0
 32 13  1  0
 31 22  1  0
M  CHG  3   1  -1   9  -1  18  -1
M  END
>  <UniqueID>  (71) 
59

>  <SMILES>  (71) 
[NH-]C(=O)c1cccc([N-]C(=O)Cn2cccc([N-]S(=O)(=O)c3cccc(C(F)(F)F)c3)c2=O)c1

>  <Energy>  (71) 
65.40429847670136

>  <Genealogy>  (71) 
[NH-]C(=O)c1cccc([N-]C(=O)Cn2cccc([N-]S(=O)(=O)c3cccc(C(F)(F)F)c3)c2=O)c1 (protonated)
[NH-]C(=O)c1cccc([N-]C(=O)Cn2cccc([N-]S(=O)(=O)c3cccc(C(F)(F)F)c3)c2=O)c1 (3D coordinates assigned)
[NH-]C(=O)c1cccc([N-]C(=O)Cn2cccc([N-]S(=O)(=O)c3cccc(C(F)(F)F)c3)c2=O)c1 (optimized conformer: 65.40429847670136 kcal/mol)

>  <smiles>  (71) 
NC(=O)c1cccc(NC(=O)Cn2cccc(NS(=O)(=O)c3cccc(C(F)(F)F)c3)c2=O)c1

>  <score_type>  (71) 
oracle

>  <origin>  (71) 
adg

>  <m_score__min__energy>  (71) 
-14.33

>  <m_primary>  (71) 
energy

$$$$
74:0
     RDKit          3D

 21 22  0  0  0  0  0  0  0  0999 V2000
   55.1540   29.4010   44.8600 N   0  0  0  0  0  0  0  0  0  0  0  0
   56.6990   30.0840   44.4960 S   0  0  0  0  0  0  0  0  0  0  0  0
   56.7780   31.4770   45.0540 O   0  0  0  0  0  0  0  0  0  0  0  0
   56.8760   30.1500   43.0050 O   0  0  0  0  0  0  0  0  0  0  0  0
   57.9650   29.0850   45.2060 C   0  0  0  0  0  0  0  0  0  0  0  0
   59.3130   29.4180   45.0200 C   0  0  0  0  0  0  0  0  0  0  0  0
   60.3150   28.6050   45.5560 C   0  0  0  0  0  0  0  0  0  0  0  0
   59.9760   27.4620   46.2850 C   0  0  0  0  0  0  0  0  0  0  0  0
   58.6330   27.1260   46.4930 C   0  0  0  0  0  0  0  0  0  0  0  0
   58.3290   25.9310   47.2270 N   0  0  0  0  0  0  0  0  0  0  0  0
   57.6730   24.7620   46.7210 C   0  0  0  0  0  0  0  0  0  0  0  0
   57.6150   23.7050   47.4060 O   0  0  0  0  0  0  0  0  0  0  0  0
   57.1470   24.7640   45.3230 C   0  0  0  0  0  0  0  0  0  0  0  0
   55.6940   24.4070   45.3230 C   0  0  0  0  0  0  0  0  0  0  0  0
   55.0720   22.8700   45.0220 S   0  0  0  0  0  0  0  0  0  0  0  0
   53.4920   23.3640   45.3140 C   0  0  0  0  0  0  0  0  0  0  0  0
   52.4870   22.6090   45.2370 O   0  0  0  0  0  0  0  0  0  0  0  0
   53.4070   24.6680   45.6510 N   0  0  0  0  0  0  0  0  0  0  0  0
   54.6360   25.2470   45.6620 C   0  0  0  0  0  0  0  0  0  0  0  0
   54.8090   26.5850   45.9960 O   0  0  0  0  0  0  0  0  0  0  0  0
   57.6260   27.9330   45.9310 C   0  0  0  0  0  0  0  0  0  0  0  0
  1  2  1  0
  2  3  2  0
  2  4  2  0
  2  5  1  0
  5  6  2  0
  6  7  1  0
  7  8  2  0
  8  9  1  0
  9 10  1  0
 10 11  1  0
 11 12  2  0
 11 13  1  0
 13 14  1  0
 14 15  1  0
 15 16  1  0
 16 17  2  0
 16 18  1  0
 18 19  1  0
 19 20  1  0
  9 21  2  0
 21  5  1  0
 19 14  2  0
M  CHG  4   1  -1  10  -1  18  -1  20  -1
M  END
>  <UniqueID>  (72) 
63

>  <SMILES>  (72) 
[NH-]S(=O)(=O)c1cccc([N-]C(=O)Cc2sc(=O)[n-]c2[O-])c1

>  <Energy>  (72) 
60.10244790681988

>  <Genealogy>  (72) 
[NH-]S(=O)(=O)c1cccc([N-]C(=O)Cc2sc(=O)[n-]c2[O-])c1 (protonated)
[NH-]S(=O)(=O)c1cccc([N-]C(=O)Cc2sc(=O)[n-]c2[O-])c1 (3D coordinates assigned)
[NH-]S(=O)(=O)c1cccc([N-]C(=O)Cc2sc(=O)[n-]c2[O-])c1 (optimized conformer: 60.10244790681988 kcal/mol)

>  <smiles>  (72) 
NS(=O)(=O)c1cccc(NC(=O)Cc2sc(=O)[nH]c2O)c1

>  <score_type>  (72) 
oracle

>  <origin>  (72) 
adg

>  <m_score__min__energy>  (72) 
-17.719999999999999

>  <m_primary>  (72) 
energy

$$$$
20:0
     RDKit          3D

 30 33  0  0  0  0  0  0  0  0999 V2000
   56.1390   30.1610   44.6330 O   0  0  0  0  0  0  0  0  0  0  0  0
   57.1270   29.6550   45.2310 C   0  0  0  0  0  0  0  0  0  0  0  0
   58.3010   30.4390   45.4870 N   0  0  0  0  0  0  0  0  0  0  0  0
   58.3490   31.8480   45.7630 C   0  0  0  0  0  0  0  0  0  0  0  0
   57.9250   32.7990   44.8160 C   0  0  0  0  0  0  0  0  0  0  0  0
   58.0120   34.1640   45.1020 C   0  0  0  0  0  0  0  0  0  0  0  0
   58.5300   34.5910   46.3250 C   0  0  0  0  0  0  0  0  0  0  0  0
   58.9740   33.6560   47.2620 C   0  0  0  0  0  0  0  0  0  0  0  0
   58.8970   32.2770   46.9840 C   0  0  0  0  0  0  0  0  0  0  0  0
   59.3440   31.3020   47.8930 O   0  0  0  0  0  0  0  0  0  0  0  0
   60.4860   30.4650   47.7140 C   0  0  0  0  0  0  0  0  0  0  0  0
   61.7370   31.1750   48.1390 C   0  0  0  0  0  0  0  0  0  0  0  0
   62.3190   32.1410   47.3180 C   0  0  0  0  0  0  0  0  0  0  0  0
   63.4790   32.7870   47.7490 C   0  0  0  0  0  0  0  0  0  0  0  0
   64.0000   33.6620   47.0020 O   0  0  0  0  0  0  0  0  0  0  0  0
   64.0360   32.4700   48.9640 N   0  0  0  0  0  0  0  0  0  0  0  0
   65.1750   33.0990   49.4000 C   0  0  0  0  0  0  0  0  0  0  0  0
   65.7420   32.7760   50.6350 C   0  0  0  0  0  0  0  0  0  0  0  0
   65.1440   31.8040   51.4320 C   0  0  0  0  0  0  0  0  0  0  0  0
   63.9880   31.1660   50.9920 C   0  0  0  0  0  0  0  0  0  0  0  0
   63.4400   31.5070   49.7510 C   0  0  0  0  0  0  0  0  0  0  0  0
   62.3120   30.8790   49.3300 N   0  0  0  0  0  0  0  0  0  0  0  0
   57.0470   28.2620   45.7110 C   0  0  0  0  0  0  0  0  0  0  0  0
   58.1640   27.6130   46.2560 C   0  0  0  0  0  0  0  0  0  0  0  0
   58.0230   26.2930   46.6900 C   0  0  0  0  0  0  0  0  0  0  0  0
   59.0060   25.6800   47.1830 O   0  0  0  0  0  0  0  0  0  0  0  0
   56.8240   25.6660   46.5790 N   0  0  0  0  0  0  0  0  0  0  0  0
   55.7500   26.3070   46.0490 C   0  0  0  0  0  0  0  0  0  0  0  0
   54.6470   25.7100   45.9520 O   0  0  0  0  0  0  0  0  0  0  0  0
   55.8660   27.5910   45.6220 N   0  0  0  0  0  0  0  0  0  0  0  0
  1  2  2  0
  2  3  1  0
  3  4  1  0
  4  5  2  0
  5  6  1  0
  6  7  2  0
  7  8  1  0
  8  9  2  0
  9 10  1  0
 10 11  1  0
 11 12  1  0
 12 13  2  0
 13 14  1  0
 14 15  2  0
 14 16  1  0
 16 17  1  0
 17 18  2  0
 18 19  1  0
 19 20  2  0
 20 21  1  0
 21 22  2  0
  2 23  1  0
 23 24  2  0
 24 25  1  0
 25 26  2  0
 25 27  1  0
 27 28  1  0
 28 29  2  0
 28 30  1  0
  9  4  1  0
 22 12  1  0
 30 23  1  0
 21 16  1  0
M  CHG  3   3  -1  27  -1  30  -1
M  END
>  <UniqueID>  (73) 
17

>  <SMILES>  (73) 
O=C([N-]c1ccccc1OCc1cc(=O)n2ccccc2n1)c1cc(=O)[n-]c(=O)[n-]1

>  <Energy>  (73) 
56.70750440613383

>  <Genealogy>  (73) 
O=C([N-]c1ccccc1OCc1cc(=O)n2ccccc2n1)c1cc(=O)[n-]c(=O)[n-]1 (protonated)
O=C([N-]c1ccccc1OCc1cc(=O)n2ccccc2n1)c1cc(=O)[n-]c(=O)[n-]1 (3D coordinates assigned)
O=C([N-]c1ccccc1OCc1cc(=O)n2ccccc2n1)c1cc(=O)[n-]c(=O)[n-]1 (optimized conformer: 56.70750440613383 kcal/mol)

>  <smiles>  (73) 
O=C(Nc1ccccc1OCc1cc(=O)n2ccccc2n1)c1cc(=O)[nH]c(=O)[nH]1

>  <score_type>  (73) 
oracle

>  <origin>  (73) 
adg

>  <m_score__min__energy>  (73) 
-15.84

>  <m_primary>  (73) 
energy

$$$$
31:0
     RDKit          3D

 25 27  0  0  0  0  0  0  0  0999 V2000
   59.1210   29.4450   48.4820 C   0  0  0  0  0  0  0  0  0  0  0  0
   58.2860   28.5710   47.8590 N   0  0  0  0  0  0  0  0  0  0  0  0
   58.6230   27.2700   47.6410 C   0  0  0  0  0  0  0  0  0  0  0  0
   57.7530   26.5030   47.0440 N   0  0  0  0  0  0  0  0  0  0  0  0
   56.8430   26.8330   45.9810 C   0  0  0  0  0  0  0  0  0  0  0  0
   55.6100   26.5920   46.0790 O   0  0  0  0  0  0  0  0  0  0  0  0
   57.3820   27.4210   44.7170 C   0  0  0  0  0  0  0  0  0  0  0  0
   57.2100   28.9070   44.7380 C   0  0  0  0  0  0  0  0  0  0  0  0
   58.4430   30.0220   45.0000 S   0  0  0  0  0  0  0  0  0  0  0  0
   57.3860   31.3410   44.9670 C   0  0  0  0  0  0  0  0  0  0  0  0
   57.7060   32.5870   45.1580 N   0  0  0  0  0  0  0  0  0  0  0  0
   58.5650   33.1010   46.1880 C   0  0  0  0  0  0  0  0  0  0  0  0
   59.6630   33.8870   45.8240 C   0  0  0  0  0  0  0  0  0  0  0  0
   60.5410   34.3720   46.7970 C   0  0  0  0  0  0  0  0  0  0  0  0
   60.3500   34.0570   48.1480 C   0  0  0  0  0  0  0  0  0  0  0  0
   61.2580   34.5700   49.0860 O   0  0  0  0  0  0  0  0  0  0  0  0
   62.6250   34.1800   49.1780 C   0  0  0  0  0  0  0  0  0  0  0  0
   59.2650   33.2380   48.5130 C   0  0  0  0  0  0  0  0  0  0  0  0
   58.3870   32.7550   47.5390 C   0  0  0  0  0  0  0  0  0  0  0  0
   56.1050   30.9510   44.7930 N   0  0  0  0  0  0  0  0  0  0  0  0
   56.0060   29.6020   44.6670 C   0  0  0  0  0  0  0  0  0  0  0  0
   54.7800   28.9740   44.4930 O   0  0  0  0  0  0  0  0  0  0  0  0
   59.8740   26.8040   48.1010 C   0  0  0  0  0  0  0  0  0  0  0  0
   60.7440   27.6890   48.7420 C   0  0  0  0  0  0  0  0  0  0  0  0
   60.3700   29.0190   48.9310 C   0  0  0  0  0  0  0  0  0  0  0  0
  1  2  1  0
  2  3  1  0
  3  4  2  0
  4  5  1  0
  5  6  2  0
  5  7  1  0
  7  8  1  0
  8  9  1  0
  9 10  1  0
 10 11  2  0
 11 12  1  0
 12 13  2  0
 13 14  1  0
 14 15  2  0
 15 16  1  0
 16 17  1  0
 15 18  1  0
 18 19  2  0
 10 20  1  0
 20 21  1  0
 21 22  1  0
  3 23  1  0
 23 24  2  0
 24 25  1  0
 25  1  2  0
 21  8  2  0
 19 12  1  0
M  CHG  3   2  -1  20  -1  22  -1
M  END
>  <UniqueID>  (74) 
27

>  <SMILES>  (74) 
COc1ccc(/N=c2/[n-]c([O-])c(CC(=O)/N=c3\cccc[n-]3)s2)cc1

>  <Energy>  (74) 
83.29667800151088

>  <Genealogy>  (74) 
COc1ccc(N=c2[n-]c([O-])c(CC(=O)N=c3cccc[n-]3)s2)cc1 (protonated)
COc1ccc(/N=c2/[n-]c([O-])c(CC(=O)/N=c3\cccc[n-]3)s2)cc1 (cis-trans isomerization)
COc1ccc(/N=c2/[n-]c([O-])c(CC(=O)/N=c3\cccc[n-]3)s2)cc1 (3D coordinates assigned)
COc1ccc(/N=c2/[n-]c([O-])c(CC(=O)/N=c3\cccc[n-]3)s2)cc1 (optimized conformer: 83.29667800151088 kcal/mol)

>  <smiles>  (74) 
COc1ccc(N=c2[nH]c(O)c(CC(=O)N=c3cccc[nH]3)s2)cc1

>  <score_type>  (74) 
oracle

>  <origin>  (74) 
adg

>  <m_score__min__energy>  (74) 
-14.5

>  <m_primary>  (74) 
energy

$$$$
16:0
     RDKit          3D

 27 28  0  0  0  0  0  0  0  0999 V2000
   61.1690   32.8860   48.2310 N   0  0  0  0  0  0  0  0  0  0  0  0
   59.5460   33.4780   48.1780 S   0  0  0  0  0  0  0  0  0  0  0  0
   59.5500   34.9340   48.5480 O   0  0  0  0  0  0  0  0  0  0  0  0
   58.7080   32.7110   49.1630 O   0  0  0  0  0  0  0  0  0  0  0  0
   58.8740   33.2830   46.5620 C   0  0  0  0  0  0  0  0  0  0  0  0
   59.4390   33.9740   45.4810 C   0  0  0  0  0  0  0  0  0  0  0  0
   58.8970   33.8380   44.1990 C   0  0  0  0  0  0  0  0  0  0  0  0
   57.7930   33.0070   43.9890 C   0  0  0  0  0  0  0  0  0  0  0  0
   57.2370   32.2910   45.0570 C   0  0  0  0  0  0  0  0  0  0  0  0
   56.0950   31.4580   44.8270 N   0  0  0  0  0  0  0  0  0  0  0  0
   56.1440   30.1120   44.3400 C   0  0  0  0  0  0  0  0  0  0  0  0
   55.1910   29.3340   44.6100 O   0  0  0  0  0  0  0  0  0  0  0  0
   57.2080   29.6700   43.3720 C   0  0  0  0  0  0  0  0  0  0  0  0
   58.1340   28.7800   43.9940 O   0  0  0  0  0  0  0  0  0  0  0  0
   58.4940   28.8560   45.3450 C   0  0  0  0  0  0  0  0  0  0  0  0
   59.5680   29.4170   45.6920 O   0  0  0  0  0  0  0  0  0  0  0  0
   57.5640   28.3120   46.3510 C   0  0  0  0  0  0  0  0  0  0  0  0
   57.6220   27.0780   46.8760 C   0  0  0  0  0  0  0  0  0  0  0  0
   57.1930   25.8350   46.1940 C   0  0  0  0  0  0  0  0  0  0  0  0
   58.1230   24.8220   45.8900 C   0  0  0  0  0  0  0  0  0  0  0  0
   57.7230   23.6810   45.1870 C   0  0  0  0  0  0  0  0  0  0  0  0
   58.8900   22.4290   44.8050 Cl  0  0  0  0  0  0  0  0  0  0  0  0
   56.3950   23.5470   44.7720 C   0  0  0  0  0  0  0  0  0  0  0  0
   55.4700   24.5590   45.0470 C   0  0  0  0  0  0  0  0  0  0  0  0
   55.8650   25.7040   45.7450 C   0  0  0  0  0  0  0  0  0  0  0  0
   54.9340   26.7060   45.9950 O   0  0  0  0  0  0  0  0  0  0  0  0
   57.7640   32.4530   46.3490 C   0  0  0  0  0  0  0  0  0  0  0  0
  1  2  1  0
  2  3  2  0
  2  4  2  0
  2  5  1  0
  5  6  2  0
  6  7  1  0
  7  8  2  0
  8  9  1  0
  9 10  1  0
 10 11  1  0
 11 12  2  0
 11 13  1  0
 13 14  1  0
 14 15  1  0
 15 16  2  0
 15 17  1  0
 17 18  2  3
 18 19  1  0
 19 20  2  0
 20 21  1  0
 21 22  1  0
 21 23  2  0
 23 24  1  0
 24 25  2  0
 25 26  1  0
  9 27  2  0
 27  5  1  0
 25 19  1  0
M  CHG  3   1  -1  10  -1  26  -1
M  END
>  <UniqueID>  (75) 
14

>  <SMILES>  (75) 
[NH-]S(=O)(=O)c1cccc([N-]C(=O)COC(=O)C=Cc2cc(Cl)ccc2[O-])c1

>  <Energy>  (75) 
49.73718558532559

>  <Genealogy>  (75) 
[NH-]S(=O)(=O)c1cccc([N-]C(=O)COC(=O)C=Cc2cc(Cl)ccc2[O-])c1 (protonated)
[NH-]S(=O)(=O)c1cccc([N-]C(=O)COC(=O)C=Cc2cc(Cl)ccc2[O-])c1 (3D coordinates assigned)
[NH-]S(=O)(=O)c1cccc([N-]C(=O)COC(=O)C=Cc2cc(Cl)ccc2[O-])c1 (optimized conformer: 49.73718558532559 kcal/mol)

>  <smiles>  (75) 
NS(=O)(=O)c1cccc(NC(=O)COC(=O)C=Cc2cc(Cl)ccc2O)c1

>  <score_type>  (75) 
oracle

>  <origin>  (75) 
adg

>  <m_score__min__energy>  (75) 
-15

>  <m_primary>  (75) 
energy

$$$$
62:0
     RDKit          3D

 29 30  0  0  0  0  0  0  0  0999 V2000
   56.9390   29.3310   43.7820 C   0  0  0  0  0  0  0  0  0  0  0  0
   57.9890   28.8580   44.8060 C   0  0  0  0  0  0  0  0  0  0  0  0
   57.2740   28.0270   45.8940 C   0  0  0  0  0  0  0  0  0  0  0  0
   59.0300   27.9630   44.1070 C   0  0  0  0  0  0  0  0  0  0  0  0
   58.6920   30.0650   45.4170 C   0  0  0  0  0  0  0  0  0  0  0  0
   59.9460   30.1780   45.3230 O   0  0  0  0  0  0  0  0  0  0  0  0
   57.9280   31.1160   46.0360 N   0  0  0  0  0  0  0  0  0  0  0  0
   58.5170   32.2450   46.7020 C   0  0  0  0  0  0  0  0  0  0  0  0
   58.9190   33.3890   45.9910 C   0  0  0  0  0  0  0  0  0  0  0  0
   59.5210   34.4570   46.6640 C   0  0  0  0  0  0  0  0  0  0  0  0
   59.7250   34.3950   48.0450 C   0  0  0  0  0  0  0  0  0  0  0  0
   59.3230   33.2620   48.7670 C   0  0  0  0  0  0  0  0  0  0  0  0
   59.5570   33.1820   50.2220 C   0  0  0  0  0  0  0  0  0  0  0  0
   60.4520   33.9000   50.7410 O   0  0  0  0  0  0  0  0  0  0  0  0
   58.8010   32.3040   51.0630 N   0  0  0  0  0  0  0  0  0  0  0  0
   57.4190   31.9120   50.8050 C   0  0  0  0  0  0  0  0  0  0  0  0
   57.0450   30.7640   51.6960 C   0  0  0  0  0  0  0  0  0  0  0  0
   57.7370   29.7130   51.6590 O   0  0  0  0  0  0  0  0  0  0  0  0
   55.9840   30.8620   52.6560 N   0  0  0  0  0  0  0  0  0  0  0  0
   54.6340   30.4110   52.4810 C   0  0  0  0  0  0  0  0  0  0  0  0
   54.1220   29.4520   53.3620 C   0  0  0  0  0  0  0  0  0  0  0  0
   52.8180   28.9780   53.2060 C   0  0  0  0  0  0  0  0  0  0  0  0
   52.0210   29.4450   52.1580 C   0  0  0  0  0  0  0  0  0  0  0  0
   52.5250   30.3910   51.2470 C   0  0  0  0  0  0  0  0  0  0  0  0
   51.6810   30.8880   50.1340 C   0  0  0  0  0  0  0  0  0  0  0  0
   51.0210   32.1490   50.2330 N   0  0  0  0  0  0  0  0  0  0  0  0
   51.5430   30.2030   49.0850 O   0  0  0  0  0  0  0  0  0  0  0  0
   53.8440   30.8560   51.4080 C   0  0  0  0  0  0  0  0  0  0  0  0
   58.7480   32.1800   48.0830 C   0  0  0  0  0  0  0  0  0  0  0  0
  1  2  1  0
  2  3  1  0
  2  4  1  0
  2  5  1  0
  5  6  2  0
  5  7  1  0
  7  8  1  0
  8  9  2  0
  9 10  1  0
 10 11  2  0
 11 12  1  0
 12 13  1  0
 13 14  2  0
 13 15  1  0
 15 16  1  0
 16 17  1  0
 17 18  2  0
 17 19  1  0
 19 20  1  0
 20 21  2  0
 21 22  1  0
 22 23  2  0
 23 24  1  0
 24 25  1  0
 25 26  1  0
 25 27  2  0
 24 28  2  0
 12 29  2  0
 29  8  1  0
 28 20  1  0
M  CHG  3  15  -1  19  -1  26  -1
M  END
>  <UniqueID>  (76) 
54

>  <SMILES>  (76) 
CC(C)(C)C(=O)Nc1cccc(C(=O)[N-]CC(=O)[N-]c2cccc(C([NH-])=O)c2)c1

>  <Energy>  (76) 
54.10579957376236

>  <Genealogy>  (76) 
CC(C)(C)C(=O)Nc1cccc(C(=O)[N-]CC(=O)[N-]c2cccc(C([NH-])=O)c2)c1 (protonated)
CC(C)(C)C(=O)Nc1cccc(C(=O)[N-]CC(=O)[N-]c2cccc(C([NH-])=O)c2)c1 (3D coordinates assigned)
CC(C)(C)C(=O)Nc1cccc(C(=O)[N-]CC(=O)[N-]c2cccc(C([NH-])=O)c2)c1 (optimized conformer: 54.10579957376236 kcal/mol)

>  <smiles>  (76) 
CC(C)(C)C(=O)Nc1cccc(C(=O)NCC(=O)Nc2cccc(C(N)=O)c2)c1

>  <score_type>  (76) 
oracle

>  <origin>  (76) 
adg

>  <m_score__min__energy>  (76) 
-14.34

>  <m_primary>  (76) 
energy

$$$$
36:0
     RDKit          3D

 29 33  0  0  0  0  0  0  0  0999 V2000
   55.1520   26.7520   45.7680 O   0  0  0  0  0  0  0  0  0  0  0  0
   56.1250   25.8880   46.2590 C   0  0  0  0  0  0  0  0  0  0  0  0
   55.8720   24.8890   47.1200 N   0  0  0  0  0  0  0  0  0  0  0  0
   57.1010   24.3800   47.3520 C   0  0  0  0  0  0  0  0  0  0  0  0
   57.2970   23.4090   48.1290 O   0  0  0  0  0  0  0  0  0  0  0  0
   58.1050   25.0000   46.6960 N   0  0  0  0  0  0  0  0  0  0  0  0
   57.4720   25.9450   45.9780 C   0  0  0  0  0  0  0  0  0  0  0  0
   58.1740   26.9540   45.1670 C   0  0  0  0  0  0  0  0  0  0  0  0
   57.8490   28.2540   45.1330 C   0  0  0  0  0  0  0  0  0  0  0  0
   56.7920   28.8180   44.4190 C   0  0  0  0  0  0  0  0  0  0  0  0
   56.7460   30.1560   44.6350 N   0  0  0  0  0  0  0  0  0  0  0  0
   57.7330   30.4410   45.4690 N   0  0  0  0  0  0  0  0  0  0  0  0
   58.0560   31.6490   45.9920 C   0  0  0  0  0  0  0  0  0  0  0  0
   57.3800   32.7110   45.6440 N   0  0  0  0  0  0  0  0  0  0  0  0
   57.7390   34.1390   45.5560 C   0  0  0  0  0  0  0  0  0  0  0  0
   59.0710   34.4810   44.9070 C   0  0  0  0  0  0  0  0  0  0  0  0
   58.8950   34.6180   46.4220 C   0  0  0  0  0  0  0  0  0  0  0  0
   59.0910   31.6970   46.8780 N   0  0  0  0  0  0  0  0  0  0  0  0
   59.7650   30.5640   47.2380 C   0  0  0  0  0  0  0  0  0  0  0  0
   60.7550   30.6550   48.0750 N   0  0  0  0  0  0  0  0  0  0  0  0
   61.3480   31.8710   48.5640 C   0  0  0  0  0  0  0  0  0  0  0  0
   62.6440   32.2690   48.1840 C   0  0  0  0  0  0  0  0  0  0  0  0
   63.2010   33.4390   48.7090 C   0  0  0  0  0  0  0  0  0  0  0  0
   62.4800   34.2130   49.6220 C   0  0  0  0  0  0  0  0  0  0  0  0
   63.0210   35.3490   50.1270 F   0  0  0  0  0  0  0  0  0  0  0  0
   61.2040   33.8060   50.0250 C   0  0  0  0  0  0  0  0  0  0  0  0
   60.6470   32.6330   49.5070 C   0  0  0  0  0  0  0  0  0  0  0  0
   59.4170   29.3620   46.6870 N   0  0  0  0  0  0  0  0  0  0  0  0
   58.4050   29.3350   45.7910 C   0  0  0  0  0  0  0  0  0  0  0  0
  1  2  1  0
  2  3  1  0
  3  4  1  0
  4  5  2  0
  4  6  1  0
  6  7  1  0
  7  8  1  0
  8  9  2  0
  9 10  1  0
 10 11  2  0
 11 12  1  0
 12 13  1  0
 13 14  2  0
 14 15  1  0
 15 16  1  0
 16 17  1  0
 13 18  1  0
 18 19  1  0
 19 20  2  3
 20 21  1  0
 21 22  2  0
 22 23  1  0
 23 24  2  0
 24 25  1  0
 24 26  1  0
 26 27  2  0
 19 28  1  0
 28 29  2  0
  7  2  2  0
 29  9  1  0
 29 12  1  0
 17 15  1  0
 27 21  1  0
M  CHG  3   3  -1   6  -1  18  -1
M  END
>  <UniqueID>  (77) 
34

>  <SMILES>  (77) 
O=c1[n-]c(O)c(/C=c2/cnn3/c(=N/C4CC4)[n-]c(=Nc4ccc(F)cc4)nc23)[n-]1

>  <Energy>  (77) 
398.8267637718529

>  <Genealogy>  (77) 
O=c1[n-]c(O)c(C=c2cnn3c(=NC4CC4)[n-]c(=Nc4ccc(F)cc4)nc23)[n-]1 (protonated)
O=c1[n-]c(O)c(/C=c2/cnn3/c(=N/C4CC4)[n-]c(=Nc4ccc(F)cc4)nc23)[n-]1 (cis-trans isomerization)
O=c1[n-]c(O)c(/C=c2/cnn3/c(=N/C4CC4)[n-]c(=Nc4ccc(F)cc4)nc23)[n-]1 (3D coordinates assigned)
O=c1[n-]c(O)c(/C=c2/cnn3/c(=N/C4CC4)[n-]c(=Nc4ccc(F)cc4)nc23)[n-]1 (nonaromatic ring conformer: 398.8267637718529 kcal/mol)

>  <smiles>  (77) 
O=c1[nH]c(O)c(C=c2cnn3c(=NC4CC4)[nH]c(=Nc4ccc(F)cc4)nc23)[nH]1

>  <score_type>  (77) 
oracle

>  <origin>  (77) 
adg

>  <m_score__min__energy>  (77) 
-14.32

>  <m_primary>  (77) 
energy

$$$$
82:0
     RDKit          3D

 26 27  0  0  0  0  0  0  0  0999 V2000
   60.7550   30.4180   46.7630 C   0  0  0  0  0  0  0  0  0  0  0  0
   59.6640   29.9050   46.1870 C   0  0  0  0  0  0  0  0  0  0  0  0
   59.6910   29.4430   44.7560 C   0  0  0  0  0  0  0  0  0  0  0  0
   58.4320   28.7660   44.4110 N   0  0  0  0  0  0  0  0  0  0  0  0
   57.4360   29.4850   43.6050 C   0  0  0  0  0  0  0  0  0  0  0  0
   56.3240   29.9560   44.4870 C   0  0  0  0  0  0  0  0  0  0  0  0
   55.5630   29.1160   45.0400 O   0  0  0  0  0  0  0  0  0  0  0  0
   56.1560   31.3630   44.7090 N   0  0  0  0  0  0  0  0  0  0  0  0
   57.1720   32.3030   45.0850 C   0  0  0  0  0  0  0  0  0  0  0  0
   57.8310   33.1110   44.1400 C   0  0  0  0  0  0  0  0  0  0  0  0
   58.8590   33.9680   44.5400 C   0  0  0  0  0  0  0  0  0  0  0  0
   59.2590   34.0220   45.8850 C   0  0  0  0  0  0  0  0  0  0  0  0
   60.4000   34.9160   46.2860 C   0  0  0  0  0  0  0  0  0  0  0  0
   58.6270   33.1820   46.8260 C   0  0  0  0  0  0  0  0  0  0  0  0
   59.1240   33.1470   48.5130 Cl  0  0  0  0  0  0  0  0  0  0  0  0
   57.5900   32.3320   46.4190 C   0  0  0  0  0  0  0  0  0  0  0  0
   58.1060   27.4630   44.9500 C   0  0  0  0  0  0  0  0  0  0  0  0
   57.5960   26.5860   44.1990 O   0  0  0  0  0  0  0  0  0  0  0  0
   58.2750   27.1390   46.4080 C   0  0  0  0  0  0  0  0  0  0  0  0
   57.5000   25.9030   46.7510 C   0  0  0  0  0  0  0  0  0  0  0  0
   58.0010   24.8560   47.4280 N   0  0  0  0  0  0  0  0  0  0  0  0
   56.9440   24.0190   47.5350 C   0  0  0  0  0  0  0  0  0  0  0  0
   57.0180   22.9010   48.1120 O   0  0  0  0  0  0  0  0  0  0  0  0
   55.8030   24.4740   46.9760 N   0  0  0  0  0  0  0  0  0  0  0  0
   56.1700   25.6710   46.4900 C   0  0  0  0  0  0  0  0  0  0  0  0
   55.3100   26.5360   45.8230 O   0  0  0  0  0  0  0  0  0  0  0  0
  1  2  2  0
  2  3  1  0
  3  4  1  0
  4  5  1  0
  5  6  1  0
  6  7  2  0
  6  8  1  0
  8  9  1  0
  9 10  2  0
 10 11  1  0
 11 12  2  0
 12 13  1  0
 12 14  1  0
 14 15  1  0
 14 16  2  0
  4 17  1  0
 17 18  2  0
 17 19  1  0
 19 20  1  0
 20 21  1  0
 21 22  1  0
 22 23  2  0
 22 24  1  0
 24 25  1  0
 25 26  1  0
 16  9  1  0
 25 20  2  0
M  CHG  3   8  -1  21  -1  24  -1
M  END
>  <UniqueID>  (78) 
76

>  <SMILES>  (78) 
C=CCN(CC(=O)[N-]c1ccc(C)c(Cl)c1)C(=O)Cc1[n-]c(=O)[n-]c1O

>  <Energy>  (78) 
64.19881141370675

>  <Genealogy>  (78) 
C=CCN(CC(=O)[N-]c1ccc(C)c(Cl)c1)C(=O)Cc1[n-]c(=O)[n-]c1O (protonated)
C=CCN(CC(=O)[N-]c1ccc(C)c(Cl)c1)C(=O)Cc1[n-]c(=O)[n-]c1O (3D coordinates assigned)
C=CCN(CC(=O)[N-]c1ccc(C)c(Cl)c1)C(=O)Cc1[n-]c(=O)[n-]c1O (optimized conformer: 64.19881141370675 kcal/mol)

>  <smiles>  (78) 
C=CCN(CC(=O)Nc1ccc(C)c(Cl)c1)C(=O)Cc1[nH]c(=O)[nH]c1O

>  <score_type>  (78) 
oracle

>  <origin>  (78) 
adg

>  <m_score__min__energy>  (78) 
-14.09

>  <m_primary>  (78) 
energy

$$$$
17:0
     RDKit          3D

 22 23  0  0  0  0  0  0  0  0999 V2000
   59.3260   26.6380   45.2540 C   0  0  0  0  0  0  0  0  0  0  0  0
   59.7250   27.8740   45.5910 C   0  0  0  0  0  0  0  0  0  0  0  0
   58.9000   29.0980   45.4820 C   0  0  0  0  0  0  0  0  0  0  0  0
   57.8760   29.2080   44.5260 C   0  0  0  0  0  0  0  0  0  0  0  0
   57.1280   30.3830   44.4290 C   0  0  0  0  0  0  0  0  0  0  0  0
   57.4080   31.4670   45.2660 C   0  0  0  0  0  0  0  0  0  0  0  0
   56.6520   32.6280   45.1580 O   0  0  0  0  0  0  0  0  0  0  0  0
   58.4450   31.3850   46.2060 C   0  0  0  0  0  0  0  0  0  0  0  0
   58.7100   32.5200   47.0440 N   0  0  0  0  0  0  0  0  0  0  0  0
   59.5070   33.9730   46.5370 S   0  0  0  0  0  0  0  0  0  0  0  0
   59.1050   35.1140   47.4300 O   0  0  0  0  0  0  0  0  0  0  0  0
   60.9960   33.7830   46.5850 O   0  0  0  0  0  0  0  0  0  0  0  0
   59.0210   34.3450   44.8680 C   0  0  0  0  0  0  0  0  0  0  0  0
   59.1960   30.1980   46.3010 C   0  0  0  0  0  0  0  0  0  0  0  0
   58.1610   25.9280   45.8270 C   0  0  0  0  0  0  0  0  0  0  0  0
   58.3030   24.6970   46.4920 C   0  0  0  0  0  0  0  0  0  0  0  0
   57.1810   24.0370   47.0020 C   0  0  0  0  0  0  0  0  0  0  0  0
   57.3300   22.8270   47.6710 O   0  0  0  0  0  0  0  0  0  0  0  0
   55.9080   24.5900   46.8360 C   0  0  0  0  0  0  0  0  0  0  0  0
   55.7540   25.7980   46.1500 C   0  0  0  0  0  0  0  0  0  0  0  0
   54.4880   26.3410   45.9730 O   0  0  0  0  0  0  0  0  0  0  0  0
   56.8760   26.4600   45.6380 C   0  0  0  0  0  0  0  0  0  0  0  0
  1  2  2  0
  2  3  1  0
  3  4  2  0
  4  5  1  0
  5  6  2  0
  6  7  1  0
  6  8  1  0
  8  9  1  0
  9 10  1  0
 10 11  2  0
 10 12  2  0
 10 13  1  0
  8 14  2  0
  1 15  1  0
 15 16  2  0
 16 17  1  0
 17 18  1  0
 17 19  2  0
 19 20  1  0
 20 21  1  0
 20 22  2  0
 14  3  1  0
 22 15  1  0
M  CHG  4   7  -1   9  -1  18  -1  21  -1
M  END
>  <UniqueID>  (79) 
18

>  <SMILES>  (79) 
CS(=O)(=O)[N-]c1cc(/C=C\c2cc([O-])cc([O-])c2)ccc1[O-]

>  <Energy>  (79) 
42.46254495575379

>  <Genealogy>  (79) 
CS(=O)(=O)[N-]c1cc(C=Cc2cc([O-])cc([O-])c2)ccc1[O-] (protonated)
CS(=O)(=O)[N-]c1cc(/C=C\c2cc([O-])cc([O-])c2)ccc1[O-] (cis-trans isomerization)
CS(=O)(=O)[N-]c1cc(/C=C\c2cc([O-])cc([O-])c2)ccc1[O-] (3D coordinates assigned)
CS(=O)(=O)[N-]c1cc(/C=C\c2cc([O-])cc([O-])c2)ccc1[O-] (optimized conformer: 42.46254495575379 kcal/mol)

>  <smiles>  (79) 
CS(=O)(=O)Nc1cc(C=Cc2cc(O)cc(O)c2)ccc1O

>  <score_type>  (79) 
oracle

>  <origin>  (79) 
adg

>  <m_score__min__energy>  (79) 
-15.050000000000001

>  <m_primary>  (79) 
energy

$$$$
23:0
     RDKit          3D

 30 34  0  0  0  0  0  0  0  0999 V2000
   57.6610   27.8260   45.8070 C   0  0  0  0  0  0  0  0  0  0  0  0
   57.2270   26.5000   46.2750 C   0  0  0  0  0  0  0  0  0  0  0  0
   58.0600   25.5970   46.8210 N   0  0  0  0  0  0  0  0  0  0  0  0
   57.2350   24.5920   47.1850 C   0  0  0  0  0  0  0  0  0  0  0  0
   57.6520   23.5360   47.7290 O   0  0  0  0  0  0  0  0  0  0  0  0
   55.9270   24.8100   46.9310 N   0  0  0  0  0  0  0  0  0  0  0  0
   55.9370   26.0280   46.3670 C   0  0  0  0  0  0  0  0  0  0  0  0
   54.7880   26.7090   45.9840 O   0  0  0  0  0  0  0  0  0  0  0  0
   58.7830   28.4380   46.2090 C   0  0  0  0  0  0  0  0  0  0  0  0
   60.0640   27.8920   46.1920 C   0  0  0  0  0  0  0  0  0  0  0  0
   60.9620   28.8040   46.6340 N   0  0  0  0  0  0  0  0  0  0  0  0
   60.2900   29.9080   46.9200 N   0  0  0  0  0  0  0  0  0  0  0  0
   60.7630   31.1100   47.3580 C   0  0  0  0  0  0  0  0  0  0  0  0
   62.0210   31.3330   47.6140 N   0  0  0  0  0  0  0  0  0  0  0  0
   62.8330   32.4270   47.0920 C   0  0  0  0  0  0  0  0  0  0  0  0
   62.5380   33.7730   47.7290 C   0  0  0  0  0  0  0  0  0  0  0  0
   63.7800   32.9930   48.1340 C   0  0  0  0  0  0  0  0  0  0  0  0
   59.8690   32.1220   47.5220 N   0  0  0  0  0  0  0  0  0  0  0  0
   58.5390   31.9420   47.2470 C   0  0  0  0  0  0  0  0  0  0  0  0
   57.6910   32.9170   47.3890 N   0  0  0  0  0  0  0  0  0  0  0  0
   57.0180   33.6050   46.2870 C   0  0  0  0  0  0  0  0  0  0  0  0
   57.3030   32.9140   44.9790 C   0  0  0  0  0  0  0  0  0  0  0  0
   58.2270   33.4550   44.0720 C   0  0  0  0  0  0  0  0  0  0  0  0
   58.4980   32.7990   42.8680 C   0  0  0  0  0  0  0  0  0  0  0  0
   57.8540   31.5960   42.5640 C   0  0  0  0  0  0  0  0  0  0  0  0
   56.9450   31.0330   43.4710 C   0  0  0  0  0  0  0  0  0  0  0  0
   56.2280   29.7600   43.1300 C   0  0  0  0  0  0  0  0  0  0  0  0
   56.6610   31.7030   44.6720 C   0  0  0  0  0  0  0  0  0  0  0  0
   58.0940   30.7320   46.8100 N   0  0  0  0  0  0  0  0  0  0  0  0
   58.9870   29.7250   46.6730 C   0  0  0  0  0  0  0  0  0  0  0  0
  1  2  1  0
  2  3  1  0
  3  4  1  0
  4  5  2  0
  4  6  1  0
  6  7  1  0
  7  8  1  0
  1  9  2  0
  9 10  1  0
 10 11  2  0
 11 12  1  0
 12 13  1  0
 13 14  2  3
 14 15  1  0
 15 16  1  0
 16 17  1  0
 13 18  1  0
 18 19  1  0
 19 20  2  0
 20 21  1  0
 21 22  1  0
 22 23  2  0
 23 24  1  0
 24 25  2  0
 25 26  1  0
 26 27  1  0
 26 28  2  0
 19 29  1  0
 29 30  2  0
  7  2  2  0
 30  9  1  0
 30 12  1  0
 17 15  1  0
 28 22  1  0
M  CHG  4   3  -1   6  -1   8  -1  18  -1
M  END
>  <UniqueID>  (80) 
24

>  <SMILES>  (80) 
Cc1cccc(C/N=c2/nc3/c(=C\c4[n-]c(=O)[n-]c4[O-])cnn3c(=NC3CC3)[n-]2)c1

>  <Energy>  (80) 
391.3228320831756

>  <Genealogy>  (80) 
Cc1cccc(CN=c2nc3c(=Cc4[n-]c(=O)[n-]c4[O-])cnn3c(=NC3CC3)[n-]2)c1 (protonated)
Cc1cccc(C/N=c2/nc3/c(=C\c4[n-]c(=O)[n-]c4[O-])cnn3c(=NC3CC3)[n-]2)c1 (cis-trans isomerization)
Cc1cccc(C/N=c2/nc3/c(=C\c4[n-]c(=O)[n-]c4[O-])cnn3c(=NC3CC3)[n-]2)c1 (3D coordinates assigned)
Cc1cccc(C/N=c2/nc3/c(=C\c4[n-]c(=O)[n-]c4[O-])cnn3c(=NC3CC3)[n-]2)c1 (nonaromatic ring conformer: 391.3228320831756 kcal/mol)

>  <smiles>  (80) 
Cc1cccc(CN=c2nc3c(=Cc4[nH]c(=O)[nH]c4O)cnn3c(=NC3CC3)[nH]2)c1

>  <score_type>  (80) 
oracle

>  <origin>  (80) 
adg

>  <m_score__min__energy>  (80) 
-18.539999999999999

>  <m_primary>  (80) 
energy

$$$$
34:0
     RDKit          3D

 27 29  0  0  0  0  0  0  0  0999 V2000
   65.1300   32.3640   50.1130 C   0  0  0  0  0  0  0  0  0  0  0  0
   64.8640   33.0950   48.9210 O   0  0  0  0  0  0  0  0  0  0  0  0
   63.5680   33.3830   48.4840 C   0  0  0  0  0  0  0  0  0  0  0  0
   63.2460   33.2150   47.1360 C   0  0  0  0  0  0  0  0  0  0  0  0
   61.9510   33.5020   46.6980 C   0  0  0  0  0  0  0  0  0  0  0  0
   60.9790   33.9440   47.6100 C   0  0  0  0  0  0  0  0  0  0  0  0
   59.6000   34.2570   47.1680 C   0  0  0  0  0  0  0  0  0  0  0  0
   58.9230   35.1030   47.8130 O   0  0  0  0  0  0  0  0  0  0  0  0
   59.0230   33.6700   45.9950 N   0  0  0  0  0  0  0  0  0  0  0  0
   58.5040   32.3360   45.8830 C   0  0  0  0  0  0  0  0  0  0  0  0
   58.9540   31.2920   46.7040 C   0  0  0  0  0  0  0  0  0  0  0  0
   58.4120   30.0110   46.5700 C   0  0  0  0  0  0  0  0  0  0  0  0
   57.3900   29.7840   45.6250 C   0  0  0  0  0  0  0  0  0  0  0  0
   56.8430   28.6150   45.4330 N   0  0  0  0  0  0  0  0  0  0  0  0
   57.4070   27.4360   44.8300 C   0  0  0  0  0  0  0  0  0  0  0  0
   58.1990   27.5430   43.8540 O   0  0  0  0  0  0  0  0  0  0  0  0
   57.1250   26.1000   45.4200 C   0  0  0  0  0  0  0  0  0  0  0  0
   58.1330   25.1150   45.4310 C   0  0  0  0  0  0  0  0  0  0  0  0
   57.8930   23.8530   45.9790 C   0  0  0  0  0  0  0  0  0  0  0  0
   56.6460   23.5530   46.5270 C   0  0  0  0  0  0  0  0  0  0  0  0
   55.6350   24.5150   46.5280 C   0  0  0  0  0  0  0  0  0  0  0  0
   55.8640   25.7830   45.9820 C   0  0  0  0  0  0  0  0  0  0  0  0
   54.8310   26.7140   46.0080 O   0  0  0  0  0  0  0  0  0  0  0  0
   56.9720   30.8210   44.8500 N   0  0  0  0  0  0  0  0  0  0  0  0
   57.4890   32.0730   44.9630 C   0  0  0  0  0  0  0  0  0  0  0  0
   61.3510   34.1130   48.9530 C   0  0  0  0  0  0  0  0  0  0  0  0
   62.6190   33.8280   49.3540 N   0  0  0  0  0  0  0  0  0  0  0  0
  1  2  1  0
  2  3  1  0
  3  4  2  0
  4  5  1  0
  5  6  2  0
  6  7  1  0
  7  8  2  0
  7  9  1  0
  9 10  1  0
 10 11  1  0
 11 12  2  0
 12 13  1  0
 13 14  2  3
 14 15  1  0
 15 16  2  0
 15 17  1  0
 17 18  2  0
 18 19  1  0
 19 20  2  0
 20 21  1  0
 21 22  2  0
 22 23  1  0
 13 24  1  0
 24 25  1  0
  6 26  1  0
 26 27  2  0
 27  3  1  0
 25 10  2  0
 22 17  1  0
M  CHG  3   9  -1  23  -1  24  -1
M  END
>  <UniqueID>  (81) 
35

>  <SMILES>  (81) 
COc1ccc(C(=O)[N-]c2ccc(=NC(=O)c3ccccc3[O-])[n-]c2)cn1

>  <Energy>  (81) 
59.4469417255727

>  <Genealogy>  (81) 
COc1ccc(C(=O)[N-]c2ccc(=NC(=O)c3ccccc3[O-])[n-]c2)cn1 (protonated)
COc1ccc(C(=O)[N-]c2ccc(=NC(=O)c3ccccc3[O-])[n-]c2)cn1 (3D coordinates assigned)
COc1ccc(C(=O)[N-]c2ccc(=NC(=O)c3ccccc3[O-])[n-]c2)cn1 (optimized conformer: 59.4469417255727 kcal/mol)

>  <smiles>  (81) 
COc1ccc(C(=O)Nc2ccc(=NC(=O)c3ccccc3O)[nH]c2)cn1

>  <score_type>  (81) 
oracle

>  <origin>  (81) 
adg

>  <m_score__min__energy>  (81) 
-14.380000000000001

>  <m_primary>  (81) 
energy

$$$$
36:0
     RDKit          3D

 26 28  0  0  0  0  0  0  0  0999 V2000
   60.0480   29.4530   51.1320 N   0  0  0  0  0  0  0  0  0  0  0  0
   58.7320   29.9700   50.1370 S   0  0  0  0  0  0  0  0  0  0  0  0
   58.4850   28.9550   49.0570 O   0  0  0  0  0  0  0  0  0  0  0  0
   57.4960   30.0920   50.9830 O   0  0  0  0  0  0  0  0  0  0  0  0
   59.1270   31.5210   49.4030 C   0  0  0  0  0  0  0  0  0  0  0  0
   59.4950   32.6190   50.1950 C   0  0  0  0  0  0  0  0  0  0  0  0
   59.7940   33.8450   49.5960 C   0  0  0  0  0  0  0  0  0  0  0  0
   59.7440   33.9780   48.2050 C   0  0  0  0  0  0  0  0  0  0  0  0
   59.4120   32.8790   47.4020 C   0  0  0  0  0  0  0  0  0  0  0  0
   59.3510   33.0500   45.9800 N   0  0  0  0  0  0  0  0  0  0  0  0
   58.1780   33.3020   45.1910 C   0  0  0  0  0  0  0  0  0  0  0  0
   58.2220   34.2140   44.3250 O   0  0  0  0  0  0  0  0  0  0  0  0
   56.9570   32.4200   45.2650 C   0  0  0  0  0  0  0  0  0  0  0  0
   57.0040   31.2610   44.2580 C   0  0  0  0  0  0  0  0  0  0  0  0
   57.3410   29.9950   44.9130 N   0  0  0  0  0  0  0  0  0  0  0  0
   56.4940   28.9730   45.1750 C   0  0  0  0  0  0  0  0  0  0  0  0
   55.1390   28.9800   44.8660 O   0  0  0  0  0  0  0  0  0  0  0  0
   57.1680   27.9330   45.7810 C   0  0  0  0  0  0  0  0  0  0  0  0
   58.4760   28.3270   45.8970 C   0  0  0  0  0  0  0  0  0  0  0  0
   58.5570   29.5960   45.3580 C   0  0  0  0  0  0  0  0  0  0  0  0
   59.7240   30.3550   45.2870 O   0  0  0  0  0  0  0  0  0  0  0  0
   59.5560   27.4860   46.4950 C   0  0  0  0  0  0  0  0  0  0  0  0
   59.0210   26.1580   46.9970 C   0  0  0  0  0  0  0  0  0  0  0  0
   57.7320   25.7690   46.8810 C   0  0  0  0  0  0  0  0  0  0  0  0
   56.6470   26.6070   46.2330 C   0  0  0  0  0  0  0  0  0  0  0  0
   59.0750   31.6590   48.0100 C   0  0  0  0  0  0  0  0  0  0  0  0
  1  2  1  0
  2  3  2  0
  2  4  2  0
  2  5  1  0
  5  6  2  0
  6  7  1  0
  7  8  2  0
  8  9  1  0
  9 10  1  0
 10 11  1  0
 11 12  2  0
 11 13  1  0
 13 14  1  0
 14 15  1  0
 15 16  1  0
 16 17  1  0
 16 18  2  0
 18 19  1  0
 19 20  2  0
 20 21  1  0
 19 22  1  0
 22 23  1  0
 23 24  2  0
 24 25  1  0
  9 26  2  0
 26  5  1  0
 20 15  1  0
 25 18  1  0
M  CHG  3   1  -1  10  -1  17  -1
M  END
>  <UniqueID>  (82) 
36

>  <SMILES>  (82) 
[NH-]S(=O)(=O)c1cccc([N-]C(=O)CCn2c([O-])c3c(c2O)CC=CC3)c1

>  <Energy>  (82) 
77.66521584715554

>  <Genealogy>  (82) 
[NH-]S(=O)(=O)c1cccc([N-]C(=O)CCn2c([O-])c3c(c2O)CC=CC3)c1 (protonated)
[NH-]S(=O)(=O)c1cccc([N-]C(=O)CCn2c([O-])c3c(c2O)CC=CC3)c1 (3D coordinates assigned)
[NH-]S(=O)(=O)c1cccc([N-]C(=O)CCn2c([O-])c3c(c2O)CC=CC3)c1 (nonaromatic ring conformer: 77.66521584715554 kcal/mol)

>  <smiles>  (82) 
NS(=O)(=O)c1cccc(NC(=O)CCn2c(O)c3c(c2O)CC=CC3)c1

>  <score_type>  (82) 
oracle

>  <origin>  (82) 
adg

>  <m_score__min__energy>  (82) 
-14.19

>  <m_primary>  (82) 
energy

$$$$
63:0
     RDKit          3D

 32 35  0  0  0  0  0  0  0  0999 V2000
   55.8340   28.9610   44.9460 O   0  0  0  0  0  0  0  0  0  0  0  0
   56.6800   28.0560   45.1820 C   0  0  0  0  0  0  0  0  0  0  0  0
   58.0060   28.0670   44.4740 C   0  0  0  0  0  0  0  0  0  0  0  0
   58.6020   29.4130   44.3790 N   0  0  0  0  0  0  0  0  0  0  0  0
   59.8080   29.5850   45.2050 C   0  0  0  0  0  0  0  0  0  0  0  0
   59.4620   29.8780   46.6450 C   0  0  0  0  0  0  0  0  0  0  0  0
   58.8120   28.9130   47.4200 C   0  0  0  0  0  0  0  0  0  0  0  0
   58.5400   29.1570   48.7630 C   0  0  0  0  0  0  0  0  0  0  0  0
   58.9050   30.3810   49.3550 C   0  0  0  0  0  0  0  0  0  0  0  0
   58.6740   30.6250   50.7140 C   0  0  0  0  0  0  0  0  0  0  0  0
   58.1200   29.7510   51.4380 O   0  0  0  0  0  0  0  0  0  0  0  0
   59.0580   31.8050   51.2640 N   0  0  0  0  0  0  0  0  0  0  0  0
   58.8470   32.0220   52.6090 O   0  0  0  0  0  0  0  0  0  0  0  0
   59.6440   32.7790   50.5140 C   0  0  0  0  0  0  0  0  0  0  0  0
   59.9950   33.8520   51.0790 O   0  0  0  0  0  0  0  0  0  0  0  0
   59.8510   32.6010   49.1660 N   0  0  0  0  0  0  0  0  0  0  0  0
   60.4330   33.7150   48.3800 C   0  0  0  0  0  0  0  0  0  0  0  0
   59.3280   34.6210   47.8240 C   0  0  0  0  0  0  0  0  0  0  0  0
   58.7670   34.0560   46.5470 C   0  0  0  0  0  0  0  0  0  0  0  0
   57.5550   33.3470   46.5630 C   0  0  0  0  0  0  0  0  0  0  0  0
   57.0260   32.8260   45.3780 C   0  0  0  0  0  0  0  0  0  0  0  0
   57.7020   33.0140   44.1700 C   0  0  0  0  0  0  0  0  0  0  0  0
   58.9020   33.7290   44.1430 C   0  0  0  0  0  0  0  0  0  0  0  0
   59.4340   34.2530   45.3260 C   0  0  0  0  0  0  0  0  0  0  0  0
   59.5260   31.3910   48.5800 C   0  0  0  0  0  0  0  0  0  0  0  0
   59.8060   31.1100   47.2190 C   0  0  0  0  0  0  0  0  0  0  0  0
   56.4310   27.0480   46.1750 N   0  0  0  0  0  0  0  0  0  0  0  0
   55.7280   25.9650   46.0160 C   0  0  0  0  0  0  0  0  0  0  0  0
   54.4200   25.9600   45.6760 N   0  0  0  0  0  0  0  0  0  0  0  0
   54.1150   24.6510   45.6240 C   0  0  0  0  0  0  0  0  0  0  0  0
   55.2320   23.9110   45.9320 C   0  0  0  0  0  0  0  0  0  0  0  0
   56.2610   24.7390   46.1820 N   0  0  0  0  0  0  0  0  0  0  0  0
  1  2  2  0
  2  3  1  0
  3  4  1  0
  4  5  1  0
  5  6  1  0
  6  7  2  0
  7  8  1  0
  8  9  2  0
  9 10  1  0
 10 11  2  0
 10 12  1  0
 12 13  1  0
 12 14  1  0
 14 15  2  0
 14 16  1  0
 16 17  1  0
 17 18  1  0
 18 19  1  0
 19 20  2  0
 20 21  1  0
 21 22  2  0
 22 23  1  0
 23 24  2  0
 16 25  1  0
 25 26  2  0
  2 27  1  0
 27 28  2  3
 28 29  1  0
 29 30  1  0
 30 31  2  0
 31 32  1  0
 26  6  1  0
 32 28  1  0
 25  9  1  0
 24 19  1  0
M  CHG  3  13  -1  29  -1  32  -1
M  END
>  <UniqueID>  (83) 
57

>  <SMILES>  (83) 
O=C(CNCc1ccc2c(=O)n([O-])c(=O)n(CCc3ccccc3)c2c1)N=c1[n-]cc[n-]1

>  <Energy>  (83) 
90.40240224842518

>  <Genealogy>  (83) 
O=C(CNCc1ccc2c(=O)n([O-])c(=O)n(CCc3ccccc3)c2c1)N=c1[n-]cc[n-]1 (protonated)
O=C(CNCc1ccc2c(=O)n([O-])c(=O)n(CCc3ccccc3)c2c1)N=c1[n-]cc[n-]1 (3D coordinates assigned)
O=C(CNCc1ccc2c(=O)n([O-])c(=O)n(CCc3ccccc3)c2c1)N=c1[n-]cc[n-]1 (optimized conformer: 90.40240224842518 kcal/mol)

>  <smiles>  (83) 
O=C(CNCc1ccc2c(=O)n(O)c(=O)n(CCc3ccccc3)c2c1)N=c1[nH]cc[nH]1

>  <score_type>  (83) 
oracle

>  <origin>  (83) 
adg

>  <m_score__min__energy>  (83) 
-14.65

>  <m_primary>  (83) 
energy

$$$$
0:0
     RDKit          3D

 27 29  0  0  0  0  0  0  0  0999 V2000
   58.1130   27.4650   43.8160 O   0  0  0  0  0  0  0  0  0  0  0  0
   57.8320   28.0140   44.9150 C   0  0  0  0  0  0  0  0  0  0  0  0
   57.4990   27.1750   46.0330 N   0  0  0  0  0  0  0  0  0  0  0  0
   57.0860   25.9410   45.9690 C   0  0  0  0  0  0  0  0  0  0  0  0
   57.9720   24.9030   45.9380 N   0  0  0  0  0  0  0  0  0  0  0  0
   57.5640   23.6080   45.8860 C   0  0  0  0  0  0  0  0  0  0  0  0
   56.2010   23.3050   45.8720 C   0  0  0  0  0  0  0  0  0  0  0  0
   55.2710   24.3440   45.9150 C   0  0  0  0  0  0  0  0  0  0  0  0
   55.7090   25.6710   45.9670 C   0  0  0  0  0  0  0  0  0  0  0  0
   54.7810   26.7060   46.0140 O   0  0  0  0  0  0  0  0  0  0  0  0
   57.9140   29.4890   45.0290 C   0  0  0  0  0  0  0  0  0  0  0  0
   58.2470   30.0990   46.2520 C   0  0  0  0  0  0  0  0  0  0  0  0
   58.3330   31.4910   46.3490 C   0  0  0  0  0  0  0  0  0  0  0  0
   58.1030   32.2910   45.2240 C   0  0  0  0  0  0  0  0  0  0  0  0
   58.2240   34.0430   45.3500 S   0  0  0  0  0  0  0  0  0  0  0  0
   59.0750   34.5960   44.2400 O   0  0  0  0  0  0  0  0  0  0  0  0
   56.8470   34.6340   45.2540 O   0  0  0  0  0  0  0  0  0  0  0  0
   58.9260   34.4840   46.8730 N   0  0  0  0  0  0  0  0  0  0  0  0
   60.2670   34.1850   47.2840 C   0  0  0  0  0  0  0  0  0  0  0  0
   61.2730   33.8420   46.3600 C   0  0  0  0  0  0  0  0  0  0  0  0
   62.5660   33.5490   46.8060 C   0  0  0  0  0  0  0  0  0  0  0  0
   62.8680   33.6000   48.1680 C   0  0  0  0  0  0  0  0  0  0  0  0
   61.8760   33.9440   49.0900 C   0  0  0  0  0  0  0  0  0  0  0  0
   60.5810   34.2360   48.6510 C   0  0  0  0  0  0  0  0  0  0  0  0
   59.6260   34.5650   49.5570 F   0  0  0  0  0  0  0  0  0  0  0  0
   57.7810   31.6900   44.0010 C   0  0  0  0  0  0  0  0  0  0  0  0
   57.6930   30.2980   43.9020 C   0  0  0  0  0  0  0  0  0  0  0  0
  1  2  2  0
  2  3  1  0
  3  4  2  3
  4  5  1  0
  5  6  1  0
  6  7  2  0
  7  8  1  0
  8  9  2  0
  9 10  1  0
  2 11  1  0
 11 12  2  0
 12 13  1  0
 13 14  2  0
 14 15  1  0
 15 16  2  0
 15 17  2  0
 15 18  1  0
 18 19  1  0
 19 20  2  0
 20 21  1  0
 21 22  2  0
 22 23  1  0
 23 24  2  0
 24 25  1  0
 14 26  1  0
 26 27  2  0
  9  4  1  0
 27 11  1  0
 24 19  1  0
M  CHG  3   5  -1  10  -1  18  -1
M  END
>  <UniqueID>  (84) 
1

>  <SMILES>  (84) 
O=C(N=c1[n-]cccc1[O-])c1ccc(S(=O)(=O)[N-]c2ccccc2F)cc1

>  <Energy>  (84) 
53.33954943830814

>  <Genealogy>  (84) 
O=C(N=c1[n-]cccc1[O-])c1ccc(S(=O)(=O)[N-]c2ccccc2F)cc1 (protonated)
O=C(N=c1[n-]cccc1[O-])c1ccc(S(=O)(=O)[N-]c2ccccc2F)cc1 (3D coordinates assigned)
O=C(N=c1[n-]cccc1[O-])c1ccc(S(=O)(=O)[N-]c2ccccc2F)cc1 (optimized conformer: 53.33954943830814 kcal/mol)

>  <smiles>  (84) 
O=C(N=c1[nH]cccc1O)c1ccc(S(=O)(=O)Nc2ccccc2F)cc1

>  <score_type>  (84) 
oracle

>  <origin>  (84) 
adg

>  <m_score__min__energy>  (84) 
-15.42

>  <m_primary>  (84) 
energy

$$$$
11:0
     RDKit          3D

 30 32  0  0  0  0  0  0  0  0999 V2000
   55.1430   26.5470   46.0220 N   0  0  0  0  0  0  0  0  0  0  0  0
   56.6960   25.8120   46.2080 S   0  0  0  0  0  0  0  0  0  0  0  0
   56.6650   24.8470   47.3620 O   0  0  0  0  0  0  0  0  0  0  0  0
   57.0190   25.0380   44.9590 O   0  0  0  0  0  0  0  0  0  0  0  0
   57.9110   27.0810   46.4460 C   0  0  0  0  0  0  0  0  0  0  0  0
   58.4460   27.2520   47.7330 C   0  0  0  0  0  0  0  0  0  0  0  0
   59.4620   28.1810   47.9620 C   0  0  0  0  0  0  0  0  0  0  0  0
   59.9720   28.9330   46.9060 C   0  0  0  0  0  0  0  0  0  0  0  0
   59.4640   28.7650   45.6200 C   0  0  0  0  0  0  0  0  0  0  0  0
   58.4160   27.8660   45.3800 C   0  0  0  0  0  0  0  0  0  0  0  0
   57.7630   27.7500   43.7050 S   0  0  0  0  0  0  0  0  0  0  0  0
   57.3870   29.5350   43.5290 C   0  0  0  0  0  0  0  0  0  0  0  0
   56.3130   29.9850   44.4690 C   0  0  0  0  0  0  0  0  0  0  0  0
   55.6090   29.1240   45.0650 O   0  0  0  0  0  0  0  0  0  0  0  0
   56.1350   31.3850   44.7330 N   0  0  0  0  0  0  0  0  0  0  0  0
   57.1730   32.3020   45.1020 C   0  0  0  0  0  0  0  0  0  0  0  0
   57.4800   33.3610   44.2390 C   0  0  0  0  0  0  0  0  0  0  0  0
   58.4930   34.2650   44.5660 C   0  0  0  0  0  0  0  0  0  0  0  0
   59.1900   34.1310   45.7700 C   0  0  0  0  0  0  0  0  0  0  0  0
   58.8660   33.1000   46.6630 C   0  0  0  0  0  0  0  0  0  0  0  0
   59.6860   32.9830   48.2250 S   0  0  0  0  0  0  0  0  0  0  0  0
   59.1800   31.7690   48.9500 O   0  0  0  0  0  0  0  0  0  0  0  0
   59.3430   34.1880   49.0560 O   0  0  0  0  0  0  0  0  0  0  0  0
   61.4240   32.8920   48.0610 N   0  0  0  0  0  0  0  0  0  0  0  0
   61.8400   31.5520   47.6170 C   0  0  0  0  0  0  0  0  0  0  0  0
   63.3760   31.5030   47.4600 C   0  0  0  0  0  0  0  0  0  0  0  0
   63.9750   32.7590   47.7270 O   0  0  0  0  0  0  0  0  0  0  0  0
   63.4210   33.7420   46.8730 C   0  0  0  0  0  0  0  0  0  0  0  0
   61.9050   33.9090   47.1120 C   0  0  0  0  0  0  0  0  0  0  0  0
   57.8550   32.1890   46.3280 C   0  0  0  0  0  0  0  0  0  0  0  0
  1  2  1  0
  2  3  2  0
  2  4  2  0
  2  5  1  0
  5  6  2  0
  6  7  1  0
  7  8  2  0
  8  9  1  0
  9 10  2  0
 10 11  1  0
 11 12  1  0
 12 13  1  0
 13 14  2  0
 13 15  1  0
 15 16  1  0
 16 17  2  0
 17 18  1  0
 18 19  2  0
 19 20  1  0
 20 21  1  0
 21 22  2  0
 21 23  2  0
 21 24  1  0
 24 25  1  0
 25 26  1  0
 26 27  1  0
 27 28  1  0
 28 29  1  0
 20 30  2  0
 10  5  1  0
 30 16  1  0
 29 24  1  0
M  CHG  2   1  -1  15  -1
M  END
>  <UniqueID>  (85) 
11

>  <SMILES>  (85) 
[NH-]S(=O)(=O)c1ccccc1SCC(=O)[N-]c1cccc(S(=O)(=O)N2CCOCC2)c1

>  <Energy>  (85) 
57.62717279667207

>  <Genealogy>  (85) 
[NH-]S(=O)(=O)c1ccccc1SCC(=O)[N-]c1cccc(S(=O)(=O)N2CCOCC2)c1 (protonated)
[NH-]S(=O)(=O)c1ccccc1SCC(=O)[N-]c1cccc(S(=O)(=O)N2CCOCC2)c1 (3D coordinates assigned)
[NH-]S(=O)(=O)c1ccccc1SCC(=O)[N-]c1cccc(S(=O)(=O)N2CCOCC2)c1 (nonaromatic ring conformer: 57.62717279667207 kcal/mol)

>  <smiles>  (85) 
NS(=O)(=O)c1ccccc1SCC(=O)Nc1cccc(S(=O)(=O)N2CCOCC2)c1

>  <score_type>  (85) 
oracle

>  <origin>  (85) 
adg

>  <m_score__min__energy>  (85) 
-15.27

>  <m_primary>  (85) 
energy

$$$$
78:0
     RDKit          3D

 28 31  0  0  0  0  0  0  0  0999 V2000
   55.5960   29.1160   44.8770 O   0  0  0  0  0  0  0  0  0  0  0  0
   56.6620   28.8360   45.4890 C   0  0  0  0  0  0  0  0  0  0  0  0
   57.4950   29.8860   45.9980 N   0  0  0  0  0  0  0  0  0  0  0  0
   57.8040   31.1280   45.3490 C   0  0  0  0  0  0  0  0  0  0  0  0
   57.6450   31.2170   43.9610 C   0  0  0  0  0  0  0  0  0  0  0  0
   57.9690   32.3950   43.2850 C   0  0  0  0  0  0  0  0  0  0  0  0
   58.4680   33.4930   43.9880 C   0  0  0  0  0  0  0  0  0  0  0  0
   58.6510   33.4190   45.3790 C   0  0  0  0  0  0  0  0  0  0  0  0
   59.2310   34.5890   46.1330 C   0  0  0  0  0  0  0  0  0  0  0  0
   60.5230   34.1950   46.8020 C   0  0  0  0  0  0  0  0  0  0  0  0
   61.6360   34.1280   46.0230 N   0  0  0  0  0  0  0  0  0  0  0  0
   62.8270   33.7870   46.5150 N   0  0  0  0  0  0  0  0  0  0  0  0
   62.9950   33.4790   47.8240 C   0  0  0  0  0  0  0  0  0  0  0  0
   64.1440   33.1790   48.2440 O   0  0  0  0  0  0  0  0  0  0  0  0
   61.8910   33.5010   48.6900 C   0  0  0  0  0  0  0  0  0  0  0  0
   60.6310   33.8790   48.1780 C   0  0  0  0  0  0  0  0  0  0  0  0
   59.4940   33.9070   49.0640 N   0  0  0  0  0  0  0  0  0  0  0  0
   59.6670   33.8260   50.5100 C   0  0  0  0  0  0  0  0  0  0  0  0
   60.7530   32.8050   50.8430 C   0  0  0  0  0  0  0  0  0  0  0  0
   62.0690   33.1980   50.1630 C   0  0  0  0  0  0  0  0  0  0  0  0
   58.3270   32.2280   46.0520 C   0  0  0  0  0  0  0  0  0  0  0  0
   57.0620   27.4170   45.6210 C   0  0  0  0  0  0  0  0  0  0  0  0
   58.3840   27.1020   45.4960 N   0  0  0  0  0  0  0  0  0  0  0  0
   58.8420   25.8270   45.5970 C   0  0  0  0  0  0  0  0  0  0  0  0
   57.9510   24.7820   45.8330 C   0  0  0  0  0  0  0  0  0  0  0  0
   56.5920   25.0630   45.9690 C   0  0  0  0  0  0  0  0  0  0  0  0
   56.1340   26.3810   45.8660 C   0  0  0  0  0  0  0  0  0  0  0  0
   54.7730   26.6340   46.0070 O   0  0  0  0  0  0  0  0  0  0  0  0
  1  2  2  0
  2  3  1  0
  3  4  1  0
  4  5  2  0
  5  6  1  0
  6  7  2  0
  7  8  1  0
  8  9  1  0
  9 10  1  0
 10 11  2  0
 11 12  1  0
 12 13  1  0
 13 14  2  0
 13 15  1  0
 15 16  2  0
 16 17  1  0
 17 18  1  0
 18 19  1  0
 19 20  1  0
  8 21  2  0
  2 22  1  0
 22 23  2  0
 23 24  1  0
 24 25  2  0
 25 26  1  0
 26 27  2  0
 27 28  1  0
 21  4  1  0
 27 22  1  0
 16 10  1  0
 20 15  1  0
M  CHG  3   3  -1  12  -1  28  -1
M  END
>  <UniqueID>  (86) 
71

>  <SMILES>  (86) 
O=C([N-]c1cccc(Cc2n[n-]c(=O)c3c2NCCC3)c1)c1ncccc1[O-]

>  <Energy>  (86) 
56.27721291769332

>  <Genealogy>  (86) 
O=C([N-]c1cccc(Cc2n[n-]c(=O)c3c2NCCC3)c1)c1ncccc1[O-] (protonated)
O=C([N-]c1cccc(Cc2n[n-]c(=O)c3c2NCCC3)c1)c1ncccc1[O-] (3D coordinates assigned)
O=C([N-]c1cccc(Cc2n[n-]c(=O)c3c2NCCC3)c1)c1ncccc1[O-] (nonaromatic ring conformer: 56.27721291769332 kcal/mol)

>  <smiles>  (86) 
O=C(Nc1cccc(Cc2n[nH]c(=O)c3c2NCCC3)c1)c1ncccc1O

>  <score_type>  (86) 
oracle

>  <origin>  (86) 
adg

>  <m_score__min__energy>  (86) 
-15.08

>  <m_primary>  (86) 
energy

$$$$
14:0
     RDKit          3D

 23 24  0  0  0  0  0  0  0  0999 V2000
   54.8900   22.6910   48.5570 C   0  0  0  0  0  0  0  0  0  0  0  0
   56.3950   23.1350   47.7190 S   0  0  0  0  0  0  0  0  0  0  0  0
   57.0410   21.9170   47.1190 O   0  0  0  0  0  0  0  0  0  0  0  0
   57.3420   23.7420   48.7150 O   0  0  0  0  0  0  0  0  0  0  0  0
   56.0680   24.3040   46.4800 N   0  0  0  0  0  0  0  0  0  0  0  0
   56.8400   25.4840   46.2100 C   0  0  0  0  0  0  0  0  0  0  0  0
   58.2470   25.4720   46.2140 C   0  0  0  0  0  0  0  0  0  0  0  0
   58.9610   26.6460   45.9720 C   0  0  0  0  0  0  0  0  0  0  0  0
   58.2850   27.8380   45.7090 C   0  0  0  0  0  0  0  0  0  0  0  0
   56.8880   27.8650   45.6670 C   0  0  0  0  0  0  0  0  0  0  0  0
   56.2380   29.1170   45.4100 N   0  0  0  0  0  0  0  0  0  0  0  0
   55.8920   29.6340   44.1180 C   0  0  0  0  0  0  0  0  0  0  0  0
   54.7440   29.4250   43.6430 O   0  0  0  0  0  0  0  0  0  0  0  0
   56.9020   30.3040   43.2790 C   0  0  0  0  0  0  0  0  0  0  0  0
   58.0300   30.8740   43.7300 C   0  0  0  0  0  0  0  0  0  0  0  0
   58.0900   32.0250   44.6550 C   0  0  0  0  0  0  0  0  0  0  0  0
   58.1610   33.3450   44.1720 C   0  0  0  0  0  0  0  0  0  0  0  0
   58.2410   34.4180   45.0660 C   0  0  0  0  0  0  0  0  0  0  0  0
   58.2770   34.1810   46.4420 C   0  0  0  0  0  0  0  0  0  0  0  0
   58.2420   32.8710   46.9270 C   0  0  0  0  0  0  0  0  0  0  0  0
   58.1590   31.7950   46.0370 C   0  0  0  0  0  0  0  0  0  0  0  0
   56.1630   26.6880   45.9520 C   0  0  0  0  0  0  0  0  0  0  0  0
   54.7730   26.7110   46.0160 O   0  0  0  0  0  0  0  0  0  0  0  0
  1  2  1  0
  2  3  2  0
  2  4  2  0
  2  5  1  0
  5  6  1  0
  6  7  2  0
  7  8  1  0
  8  9  2  0
  9 10  1  0
 10 11  1  0
 11 12  1  0
 12 13  2  0
 12 14  1  0
 14 15  2  3
 15 16  1  0
 16 17  2  0
 17 18  1  0
 18 19  2  0
 19 20  1  0
 20 21  2  0
 10 22  2  0
 22 23  1  0
 22  6  1  0
 21 16  1  0
M  CHG  3   5  -1  11  -1  23  -1
M  END
>  <UniqueID>  (87) 
14

>  <SMILES>  (87) 
CS(=O)(=O)[N-]c1cccc([N-]C(=O)C=Cc2ccccc2)c1[O-]

>  <Energy>  (87) 
47.959657591592986

>  <Genealogy>  (87) 
CS(=O)(=O)[N-]c1cccc([N-]C(=O)C=Cc2ccccc2)c1[O-] (protonated)
CS(=O)(=O)[N-]c1cccc([N-]C(=O)C=Cc2ccccc2)c1[O-] (3D coordinates assigned)
CS(=O)(=O)[N-]c1cccc([N-]C(=O)C=Cc2ccccc2)c1[O-] (optimized conformer: 47.959657591592986 kcal/mol)

>  <smiles>  (87) 
CS(=O)(=O)Nc1cccc(NC(=O)C=Cc2ccccc2)c1O

>  <score_type>  (87) 
oracle

>  <origin>  (87) 
adg

>  <m_score__min__energy>  (87) 
-16.25

>  <m_primary>  (87) 
energy

$$$$
57:0
     RDKit          3D

 28 32  0  0  0  0  0  0  0  0999 V2000
   52.0480   31.1900   53.4170 C   0  0  0  0  0  0  0  0  0  0  0  0
   51.6060   31.2530   52.0190 C   0  0  0  0  0  0  0  0  0  0  0  0
   51.8840   30.3100   51.1030 N   0  0  0  0  0  0  0  0  0  0  0  0
   51.4150   30.8440   49.9530 C   0  0  0  0  0  0  0  0  0  0  0  0
   51.4940   30.0630   48.5200 S   0  0  0  0  0  0  0  0  0  0  0  0
   50.8920   32.0820   50.0810 N   0  0  0  0  0  0  0  0  0  0  0  0
   51.0280   32.3280   51.3920 C   0  0  0  0  0  0  0  0  0  0  0  0
   50.6650   33.5260   51.9960 O   0  0  0  0  0  0  0  0  0  0  0  0
   52.8510   30.2330   53.9020 C   0  0  0  0  0  0  0  0  0  0  0  0
   52.6040   29.4630   55.0360 C   0  0  0  0  0  0  0  0  0  0  0  0
   53.6490   28.6330   55.2690 N   0  0  0  0  0  0  0  0  0  0  0  0
   54.5410   28.8670   54.3190 N   0  0  0  0  0  0  0  0  0  0  0  0
   56.1500   29.7780   52.3570 C   0  0  0  0  0  0  0  0  0  0  0  0
   56.9810   30.2410   51.4700 N   0  0  0  0  0  0  0  0  0  0  0  0
   55.7110   26.0190   55.2820 C   0  0  0  0  0  0  0  0  0  0  0  0
   54.6310   25.4730   54.3620 C   0  0  0  0  0  0  0  0  0  0  0  0
   56.0720   24.9750   54.2380 C   0  0  0  0  0  0  0  0  0  0  0  0
   56.5790   28.7970   53.2070 N   0  0  0  0  0  0  0  0  0  0  0  0
   55.7770   28.3260   54.2000 C   0  0  0  0  0  0  0  0  0  0  0  0
   56.1660   27.4010   55.0370 N   0  0  0  0  0  0  0  0  0  0  0  0
   57.7030   31.4770   51.5490 C   0  0  0  0  0  0  0  0  0  0  0  0
   57.4120   32.4300   52.5340 C   0  0  0  0  0  0  0  0  0  0  0  0
   58.0930   33.6510   52.5320 C   0  0  0  0  0  0  0  0  0  0  0  0
   59.0220   33.9120   51.5740 N   0  0  0  0  0  0  0  0  0  0  0  0
   59.3080   33.0120   50.5960 C   0  0  0  0  0  0  0  0  0  0  0  0
   58.6410   31.7850   50.5570 C   0  0  0  0  0  0  0  0  0  0  0  0
   54.8930   30.3020   52.4960 N   0  0  0  0  0  0  0  0  0  0  0  0
   54.1010   29.8130   53.4840 C   0  0  0  0  0  0  0  0  0  0  0  0
  1  2  1  0
  2  3  1  0
  3  4  1  0
  4  5  2  0
  4  6  1  0
  6  7  1  0
  7  8  1  0
  1  9  2  3
  9 10  1  0
 10 11  2  0
 11 12  1  0
 12 13  1  0
 13 14  2  0
 14 15  1  0
 15 16  1  0
 16 17  1  0
 13 18  1  0
 18 19  1  0
 19 20  2  0
 20 21  1  0
 21 22  2  0
 22 23  1  0
 23 24  2  0
 24 25  1  0
 25 26  2  0
 19 27  1  0
 27 28  2  0
  7  2  2  0
 28  9  1  0
 28 12  1  0
 17 15  1  0
 26 21  1  0
M  CHG  4   3  -1   6  -1   8  -1  18  -1
M  END
>  <UniqueID>  (88) 
54

>  <SMILES>  (88) 
[O-]c1[n-]c(=S)[n-]c1C=c1cnn2/c(=N/C3CC3)[n-]/c(=N/c3ccncc3)nc12

>  <Energy>  (88) 
400.1399035972654

>  <Genealogy>  (88) 
[O-]c1[n-]c(=S)[n-]c1C=c1cnn2c(=NC3CC3)[n-]c(=Nc3ccncc3)nc12 (protonated)
[O-]c1[n-]c(=S)[n-]c1C=c1cnn2/c(=N/C3CC3)[n-]/c(=N/c3ccncc3)nc12 (cis-trans isomerization)
[O-]c1[n-]c(=S)[n-]c1C=c1cnn2/c(=N/C3CC3)[n-]/c(=N/c3ccncc3)nc12 (3D coordinates assigned)
[O-]c1[n-]c(=S)[n-]c1C=c1cnn2/c(=N/C3CC3)[n-]/c(=N/c3ccncc3)nc12 (nonaromatic ring conformer: 400.1399035972654 kcal/mol)

>  <smiles>  (88) 
Oc1[nH]c(=S)[nH]c1C=c1cnn2c(=NC3CC3)[nH]c(=Nc3ccncc3)nc12

>  <score_type>  (88) 
oracle

>  <origin>  (88) 
adg

>  <m_score__min__energy>  (88) 
-16.449999999999999

>  <m_primary>  (88) 
energy

$$$$
20:0
     RDKit          3D

 28 32  0  0  0  0  0  0  0  0999 V2000
   58.1000   26.9180   45.5000 C   0  0  0  0  0  0  0  0  0  0  0  0
   57.3900   25.8890   46.2830 C   0  0  0  0  0  0  0  0  0  0  0  0
   57.9590   24.7940   46.8190 N   0  0  0  0  0  0  0  0  0  0  0  0
   56.9090   24.1050   47.3120 C   0  0  0  0  0  0  0  0  0  0  0  0
   57.0400   23.0030   47.9080 O   0  0  0  0  0  0  0  0  0  0  0  0
   55.7050   24.6810   47.1080 N   0  0  0  0  0  0  0  0  0  0  0  0
   56.0280   25.8040   46.4460 C   0  0  0  0  0  0  0  0  0  0  0  0
   55.0960   26.7280   45.9920 O   0  0  0  0  0  0  0  0  0  0  0  0
   57.7500   28.2120   45.4350 C   0  0  0  0  0  0  0  0  0  0  0  0
   56.6190   28.7190   44.7930 C   0  0  0  0  0  0  0  0  0  0  0  0
   56.5660   30.0660   44.9340 N   0  0  0  0  0  0  0  0  0  0  0  0
   57.6200   30.4150   45.6530 N   0  0  0  0  0  0  0  0  0  0  0  0
   57.9590   31.6560   46.0780 C   0  0  0  0  0  0  0  0  0  0  0  0
   57.2330   32.6850   45.7280 N   0  0  0  0  0  0  0  0  0  0  0  0
   57.5530   34.1130   45.5370 C   0  0  0  0  0  0  0  0  0  0  0  0
   58.6970   34.6830   46.3590 C   0  0  0  0  0  0  0  0  0  0  0  0
   58.8720   34.4450   44.8580 C   0  0  0  0  0  0  0  0  0  0  0  0
   59.0600   31.7730   46.8740 N   0  0  0  0  0  0  0  0  0  0  0  0
   59.7820   30.6730   47.2450 C   0  0  0  0  0  0  0  0  0  0  0  0
   60.8230   30.8280   48.0090 N   0  0  0  0  0  0  0  0  0  0  0  0
   61.8540   31.8160   47.8520 C   0  0  0  0  0  0  0  0  0  0  0  0
   61.6780   32.8350   46.9050 C   0  0  0  0  0  0  0  0  0  0  0  0
   62.6430   33.8340   46.7540 C   0  0  0  0  0  0  0  0  0  0  0  0
   63.7820   33.8370   47.5630 C   0  0  0  0  0  0  0  0  0  0  0  0
   63.9520   32.8450   48.5330 C   0  0  0  0  0  0  0  0  0  0  0  0
   62.9900   31.8410   48.6850 C   0  0  0  0  0  0  0  0  0  0  0  0
   59.4210   29.4380   46.7870 N   0  0  0  0  0  0  0  0  0  0  0  0
   58.3430   29.3390   45.9750 C   0  0  0  0  0  0  0  0  0  0  0  0
  1  2  1  0
  2  3  1  0
  3  4  1  0
  4  5  2  0
  4  6  1  0
  6  7  1  0
  7  8  1  0
  1  9  2  0
  9 10  1  0
 10 11  2  0
 11 12  1  0
 12 13  1  0
 13 14  2  3
 14 15  1  0
 15 16  1  0
 16 17  1  0
 13 18  1  0
 18 19  1  0
 19 20  2  3
 20 21  1  0
 21 22  2  0
 22 23  1  0
 23 24  2  0
 24 25  1  0
 25 26  2  0
 19 27  1  0
 27 28  2  0
  7  2  2  0
 28  9  1  0
 28 12  1  0
 17 15  1  0
 26 21  1  0
M  CHG  4   3  -1   6  -1   8  -1  18  -1
M  END
>  <UniqueID>  (89) 
20

>  <SMILES>  (89) 
O=c1[n-]c([O-])c(/C=c2/cnn3c(=NC4CC4)[n-]c(=Nc4ccccc4)nc23)[n-]1

>  <Energy>  (89) 
397.3499168683582

>  <Genealogy>  (89) 
O=c1[n-]c([O-])c(C=c2cnn3c(=NC4CC4)[n-]c(=Nc4ccccc4)nc23)[n-]1 (protonated)
O=c1[n-]c([O-])c(/C=c2/cnn3c(=NC4CC4)[n-]c(=Nc4ccccc4)nc23)[n-]1 (cis-trans isomerization)
O=c1[n-]c([O-])c(/C=c2/cnn3c(=NC4CC4)[n-]c(=Nc4ccccc4)nc23)[n-]1 (3D coordinates assigned)
O=c1[n-]c([O-])c(/C=c2/cnn3c(=NC4CC4)[n-]c(=Nc4ccccc4)nc23)[n-]1 (nonaromatic ring conformer: 397.3499168683582 kcal/mol)

>  <smiles>  (89) 
O=c1[nH]c(O)c(C=c2cnn3c(=NC4CC4)[nH]c(=Nc4ccccc4)nc23)[nH]1

>  <score_type>  (89) 
oracle

>  <origin>  (89) 
adg

>  <m_score__min__energy>  (89) 
-17.59

>  <m_primary>  (89) 
energy

$$$$
46:0
     RDKit          3D

 28 32  0  0  0  0  0  0  0  0999 V2000
   58.1960   26.5740   46.4630 C   0  0  0  0  0  0  0  0  0  0  0  0
   57.0830   25.6120   46.5250 C   0  0  0  0  0  0  0  0  0  0  0  0
   57.2610   24.2900   46.7010 N   0  0  0  0  0  0  0  0  0  0  0  0
   56.0080   23.7900   46.6150 C   0  0  0  0  0  0  0  0  0  0  0  0
   55.7580   22.5640   46.7440 O   0  0  0  0  0  0  0  0  0  0  0  0
   55.0480   24.7060   46.3710 N   0  0  0  0  0  0  0  0  0  0  0  0
   55.7440   25.8530   46.3040 C   0  0  0  0  0  0  0  0  0  0  0  0
   55.1710   27.0800   45.9960 O   0  0  0  0  0  0  0  0  0  0  0  0
   58.1880   27.6800   45.7050 C   0  0  0  0  0  0  0  0  0  0  0  0
   57.9000   27.8170   44.3430 C   0  0  0  0  0  0  0  0  0  0  0  0
   57.9690   29.1270   44.0070 N   0  0  0  0  0  0  0  0  0  0  0  0
   58.2780   29.8110   45.0960 N   0  0  0  0  0  0  0  0  0  0  0  0
   58.4410   31.1510   45.2370 C   0  0  0  0  0  0  0  0  0  0  0  0
   58.3020   31.9400   44.2050 N   0  0  0  0  0  0  0  0  0  0  0  0
   57.9660   33.3710   44.0840 C   0  0  0  0  0  0  0  0  0  0  0  0
   57.3820   34.0540   45.3110 C   0  0  0  0  0  0  0  0  0  0  0  0
   58.8180   34.3540   44.8740 C   0  0  0  0  0  0  0  0  0  0  0  0
   58.7480   31.6200   46.4790 N   0  0  0  0  0  0  0  0  0  0  0  0
   58.8860   30.7660   47.5430 C   0  0  0  0  0  0  0  0  0  0  0  0
   59.1790   31.2210   48.7230 N   0  0  0  0  0  0  0  0  0  0  0  0
   59.6890   32.5660   48.9730 C   0  0  0  0  0  0  0  0  0  0  0  0
   60.9300   32.7820   48.1710 C   0  0  0  0  0  0  0  0  0  0  0  0
   62.3220   31.8440   48.2670 S   0  0  0  0  0  0  0  0  0  0  0  0
   63.2310   32.7600   47.1880 C   0  0  0  0  0  0  0  0  0  0  0  0
   62.4510   33.8250   46.7530 C   0  0  0  0  0  0  0  0  0  0  0  0
   61.1670   33.8440   47.3090 C   0  0  0  0  0  0  0  0  0  0  0  0
   58.7140   29.4240   47.3690 N   0  0  0  0  0  0  0  0  0  0  0  0
   58.4100   28.9760   46.1270 C   0  0  0  0  0  0  0  0  0  0  0  0
  1  2  1  0
  2  3  1  0
  3  4  1  0
  4  5  2  0
  4  6  1  0
  6  7  1  0
  7  8  1  0
  1  9  2  3
  9 10  1  0
 10 11  2  0
 11 12  1  0
 12 13  1  0
 13 14  2  0
 14 15  1  0
 15 16  1  0
 16 17  1  0
 13 18  1  0
 18 19  1  0
 19 20  2  3
 20 21  1  0
 21 22  1  0
 22 23  1  0
 23 24  1  0
 24 25  2  0
 25 26  1  0
 19 27  1  0
 27 28  2  0
  7  2  2  0
 28  9  1  0
 28 12  1  0
 17 15  1  0
 26 22  2  0
M  CHG  5   3  -1   6  -1   8  -1  11   1  18  -1
M  END
>  <UniqueID>  (90) 
45

>  <SMILES>  (90) 
O=c1[n-]c([O-])c(C=c2c[nH+]n3/c(=N/C4CC4)[n-]c(=NCc4cccs4)nc23)[n-]1

>  <Energy>  (90) 
418.6755464528692

>  <Genealogy>  (90) 
O=c1[n-]c([O-])c(C=c2c[nH+]n3c(=NC4CC4)[n-]c(=NCc4cccs4)nc23)[n-]1 (protonated)
O=c1[n-]c([O-])c(C=c2c[nH+]n3/c(=N/C4CC4)[n-]c(=NCc4cccs4)nc23)[n-]1 (cis-trans isomerization)
O=c1[n-]c([O-])c(C=c2c[nH+]n3/c(=N/C4CC4)[n-]c(=NCc4cccs4)nc23)[n-]1 (3D coordinates assigned)
O=c1[n-]c([O-])c(C=c2c[nH+]n3/c(=N/C4CC4)[n-]c(=NCc4cccs4)nc23)[n-]1 (nonaromatic ring conformer: 418.6755464528692 kcal/mol)

>  <smiles>  (90) 
O=c1[nH]c(O)c(C=c2cnn3c(=NC4CC4)[nH]c(=NCc4cccs4)nc23)[nH]1

>  <score_type>  (90) 
oracle

>  <origin>  (90) 
adg

>  <m_score__min__energy>  (90) 
-15.9

>  <m_primary>  (90) 
energy

$$$$
50:0
     RDKit          3D

 25 27  0  0  0  0  0  0  0  0999 V2000
   55.1840   29.2890   44.8430 N   0  0  0  0  0  0  0  0  0  0  0  0
   56.5080   30.2280   44.2500 S   0  0  0  0  0  0  0  0  0  0  0  0
   56.5580   30.1290   42.7510 O   0  0  0  0  0  0  0  0  0  0  0  0
   56.3130   31.6690   44.6320 O   0  0  0  0  0  0  0  0  0  0  0  0
   58.0120   29.6260   44.9390 C   0  0  0  0  0  0  0  0  0  0  0  0
   58.9630   30.5220   45.4450 C   0  0  0  0  0  0  0  0  0  0  0  0
   60.1440   30.0430   46.0170 C   0  0  0  0  0  0  0  0  0  0  0  0
   60.3850   28.6680   46.0800 C   0  0  0  0  0  0  0  0  0  0  0  0
   59.4490   27.7630   45.5540 C   0  0  0  0  0  0  0  0  0  0  0  0
   59.6520   26.3470   45.6460 N   0  0  0  0  0  0  0  0  0  0  0  0
   58.6470   25.3670   45.9350 C   0  0  0  0  0  0  0  0  0  0  0  0
   58.7390   24.2330   45.3930 O   0  0  0  0  0  0  0  0  0  0  0  0
   57.6080   25.5930   47.0020 C   0  0  0  0  0  0  0  0  0  0  0  0
   56.4510   24.7190   46.8010 N   0  0  0  0  0  0  0  0  0  0  0  0
   56.3610   23.4090   47.1240 C   0  0  0  0  0  0  0  0  0  0  0  0
   57.3630   22.6920   47.7670 O   0  0  0  0  0  0  0  0  0  0  0  0
   55.1450   22.8970   46.7200 C   0  0  0  0  0  0  0  0  0  0  0  0
   54.4490   23.9400   46.1540 C   0  0  0  0  0  0  0  0  0  0  0  0
   55.2870   25.0360   46.1910 C   0  0  0  0  0  0  0  0  0  0  0  0
   54.9880   26.2930   45.6780 O   0  0  0  0  0  0  0  0  0  0  0  0
   53.1010   23.7990   45.5140 C   0  0  0  0  0  0  0  0  0  0  0  0
   52.4070   22.5140   46.0090 C   0  0  0  0  0  0  0  0  0  0  0  0
   53.3660   21.3030   45.9990 C   0  0  0  0  0  0  0  0  0  0  0  0
   54.5790   21.5250   46.9240 C   0  0  0  0  0  0  0  0  0  0  0  0
   58.2520   28.2460   45.0120 C   0  0  0  0  0  0  0  0  0  0  0  0
  1  2  1  0
  2  3  2  0
  2  4  2  0
  2  5  1  0
  5  6  2  0
  6  7  1  0
  7  8  2  0
  8  9  1  0
  9 10  1  0
 10 11  1  0
 11 12  2  0
 11 13  1  0
 13 14  1  0
 14 15  1  0
 15 16  1  0
 15 17  2  0
 17 18  1  0
 18 19  2  0
 19 20  1  0
 18 21  1  0
 21 22  1  0
 22 23  1  0
 23 24  1  0
  9 25  2  0
 25  5  1  0
 19 14  1  0
 24 17  1  0
M  CHG  4   1  -1  10  -1  16  -1  20  -1
M  END
>  <UniqueID>  (91) 
49

>  <SMILES>  (91) 
[NH-]S(=O)(=O)c1cccc([N-]C(=O)Cn2c([O-])c3c(c2[O-])CCCC3)c1

>  <Energy>  (91) 
74.8621981890104

>  <Genealogy>  (91) 
[NH-]S(=O)(=O)c1cccc([N-]C(=O)Cn2c([O-])c3c(c2[O-])CCCC3)c1 (protonated)
[NH-]S(=O)(=O)c1cccc([N-]C(=O)Cn2c([O-])c3c(c2[O-])CCCC3)c1 (3D coordinates assigned)
[NH-]S(=O)(=O)c1cccc([N-]C(=O)Cn2c([O-])c3c(c2[O-])CCCC3)c1 (nonaromatic ring conformer: 74.8621981890104 kcal/mol)

>  <smiles>  (91) 
NS(=O)(=O)c1cccc(NC(=O)Cn2c(O)c3c(c2O)CCCC3)c1

>  <score_type>  (91) 
oracle

>  <origin>  (91) 
adg

>  <m_score__min__energy>  (91) 
-15.880000000000001

>  <m_primary>  (91) 
energy

$$$$
53:0
     RDKit          3D

 24 25  0  0  0  0  0  0  0  0999 V2000
   59.0000   29.8980   47.0120 C   0  0  0  0  0  0  0  0  0  0  0  0
   59.1930   30.3410   45.5650 C   0  0  0  0  0  0  0  0  0  0  0  0
   58.0390   31.1310   45.1120 N   0  0  0  0  0  0  0  0  0  0  0  0
   57.2490   30.6720   43.9540 C   0  0  0  0  0  0  0  0  0  0  0  0
   56.1680   29.7290   44.3830 C   0  0  0  0  0  0  0  0  0  0  0  0
   55.0670   29.7230   43.7700 O   0  0  0  0  0  0  0  0  0  0  0  0
   56.3690   28.8950   45.5320 N   0  0  0  0  0  0  0  0  0  0  0  0
   56.9310   27.5750   45.5280 C   0  0  0  0  0  0  0  0  0  0  0  0
   58.2880   27.3500   45.2280 C   0  0  0  0  0  0  0  0  0  0  0  0
   58.8120   26.0550   45.2660 C   0  0  0  0  0  0  0  0  0  0  0  0
   57.9960   24.9780   45.6140 C   0  0  0  0  0  0  0  0  0  0  0  0
   56.6510   25.1920   45.9360 C   0  0  0  0  0  0  0  0  0  0  0  0
   55.6430   23.8260   46.3880 Cl  0  0  0  0  0  0  0  0  0  0  0  0
   56.1200   26.4910   45.9000 C   0  0  0  0  0  0  0  0  0  0  0  0
   54.7860   26.7040   46.2280 O   0  0  0  0  0  0  0  0  0  0  0  0
   57.7710   32.4090   45.7360 C   0  0  0  0  0  0  0  0  0  0  0  0
   56.6640   32.9790   45.5410 O   0  0  0  0  0  0  0  0  0  0  0  0
   58.7500   33.0580   46.6300 C   0  0  0  0  0  0  0  0  0  0  0  0
   58.6010   32.9750   48.0210 C   0  0  0  0  0  0  0  0  0  0  0  0
   59.5300   33.5890   48.8630 C   0  0  0  0  0  0  0  0  0  0  0  0
   60.5950   34.2990   48.3020 C   0  0  0  0  0  0  0  0  0  0  0  0
   61.4430   34.8590   49.0450 O   0  0  0  0  0  0  0  0  0  0  0  0
   60.7150   34.3910   46.9510 N   0  0  0  0  0  0  0  0  0  0  0  0
   59.8250   33.7960   46.1110 C   0  0  0  0  0  0  0  0  0  0  0  0
  1  2  1  0
  2  3  1  0
  3  4  1  0
  4  5  1  0
  5  6  2  0
  5  7  1  0
  7  8  1  0
  8  9  2  0
  9 10  1  0
 10 11  2  0
 11 12  1  0
 12 13  1  0
 12 14  2  0
 14 15  1  0
  3 16  1  0
 16 17  2  0
 16 18  1  0
 18 19  1  0
 19 20  2  0
 20 21  1  0
 21 22  2  0
 21 23  1  0
 23 24  1  0
 14  8  1  0
 24 18  2  0
M  CHG  3   7  -1  15  -1  23  -1
M  END
>  <UniqueID>  (92) 
52

>  <SMILES>  (92) 
CCN(CC(=O)[N-]c1cccc(Cl)c1[O-])C(=O)c1ccc(=O)[n-]c1

>  <Energy>  (92) 
41.881993388467784

>  <Genealogy>  (92) 
CCN(CC(=O)[N-]c1cccc(Cl)c1[O-])C(=O)c1ccc(=O)[n-]c1 (protonated)
CCN(CC(=O)[N-]c1cccc(Cl)c1[O-])C(=O)c1ccc(=O)[n-]c1 (3D coordinates assigned)
CCN(CC(=O)[N-]c1cccc(Cl)c1[O-])C(=O)c1ccc(=O)[n-]c1 (optimized conformer: 41.881993388467784 kcal/mol)

>  <smiles>  (92) 
CCN(CC(=O)Nc1cccc(Cl)c1O)C(=O)c1ccc(=O)[nH]c1

>  <score_type>  (92) 
oracle

>  <origin>  (92) 
adg

>  <m_score__min__energy>  (92) 
-14.59

>  <m_primary>  (92) 
energy

$$$$
7:0
     RDKit          3D

 30 32  0  0  0  0  0  0  0  0999 V2000
   51.0260   32.2210   50.0820 N   0  0  0  0  0  0  0  0  0  0  0  0
   51.3160   32.2080   51.4800 C   0  0  0  0  0  0  0  0  0  0  0  0
   50.9310   33.1720   52.1950 O   0  0  0  0  0  0  0  0  0  0  0  0
   52.0610   31.0800   52.0860 C   0  0  0  0  0  0  0  0  0  0  0  0
   51.4470   29.8230   52.2410 C   0  0  0  0  0  0  0  0  0  0  0  0
   52.1460   28.7610   52.8220 C   0  0  0  0  0  0  0  0  0  0  0  0
   53.4620   28.9370   53.2510 C   0  0  0  0  0  0  0  0  0  0  0  0
   54.0970   30.1780   53.0940 C   0  0  0  0  0  0  0  0  0  0  0  0
   55.5030   30.3790   53.5900 C   0  0  0  0  0  0  0  0  0  0  0  0
   56.3960   30.7740   52.4540 C   0  0  0  0  0  0  0  0  0  0  0  0
   56.0630   30.4710   51.2760 O   0  0  0  0  0  0  0  0  0  0  0  0
   57.5660   31.5700   52.7040 N   0  0  0  0  0  0  0  0  0  0  0  0
   58.5350   31.9150   51.7010 C   0  0  0  0  0  0  0  0  0  0  0  0
   58.8750   33.2570   51.4460 C   0  0  0  0  0  0  0  0  0  0  0  0
   59.8130   33.5730   50.4590 C   0  0  0  0  0  0  0  0  0  0  0  0
   60.4200   32.5570   49.7080 C   0  0  0  0  0  0  0  0  0  0  0  0
   61.4090   32.8970   48.6640 C   0  0  0  0  0  0  0  0  0  0  0  0
   62.7570   32.5680   48.8890 C   0  0  0  0  0  0  0  0  0  0  0  0
   63.7330   32.8960   47.9470 C   0  0  0  0  0  0  0  0  0  0  0  0
   63.3760   33.5540   46.7710 C   0  0  0  0  0  0  0  0  0  0  0  0
   62.0400   33.8740   46.5260 C   0  0  0  0  0  0  0  0  0  0  0  0
   61.0420   33.5410   47.4560 C   0  0  0  0  0  0  0  0  0  0  0  0
   59.3540   33.9130   47.0620 S   0  0  0  0  0  0  0  0  0  0  0  0
   58.3370   32.5790   47.4840 N   0  0  0  0  0  0  0  0  0  0  0  0
   58.8970   35.1180   47.8370 O   0  0  0  0  0  0  0  0  0  0  0  0
   59.2270   34.1810   45.5890 O   0  0  0  0  0  0  0  0  0  0  0  0
   60.0520   31.2220   49.9300 C   0  0  0  0  0  0  0  0  0  0  0  0
   59.1160   30.9030   50.9180 C   0  0  0  0  0  0  0  0  0  0  0  0
   58.7880   29.6030   51.1260 F   0  0  0  0  0  0  0  0  0  0  0  0
   53.3900   31.2480   52.5200 C   0  0  0  0  0  0  0  0  0  0  0  0
  1  2  1  0
  2  3  2  0
  2  4  1  0
  4  5  2  0
  5  6  1  0
  6  7  2  0
  7  8  1  0
  8  9  1  0
  9 10  1  0
 10 11  2  0
 10 12  1  0
 12 13  1  0
 13 14  2  0
 14 15  1  0
 15 16  2  0
 16 17  1  0
 17 18  2  0
 18 19  1  0
 19 20  2  0
 20 21  1  0
 21 22  2  0
 22 23  1  0
 23 24  1  0
 23 25  2  0
 23 26  2  0
 16 27  1  0
 27 28  2  0
 28 29  1  0
  8 30  2  0
 30  4  1  0
 28 13  1  0
 22 17  1  0
M  CHG  2   1  -1  24  -1
M  END
>  <UniqueID>  (93) 
8

>  <SMILES>  (93) 
[NH-]C(=O)c1cccc(CC(=O)Nc2ccc(-c3ccccc3S([NH-])(=O)=O)cc2F)c1

>  <Energy>  (93) 
58.79362948960392

>  <Genealogy>  (93) 
[NH-]C(=O)c1cccc(CC(=O)Nc2ccc(-c3ccccc3S([NH-])(=O)=O)cc2F)c1 (protonated)
[NH-]C(=O)c1cccc(CC(=O)Nc2ccc(-c3ccccc3S([NH-])(=O)=O)cc2F)c1 (3D coordinates assigned)
[NH-]C(=O)c1cccc(CC(=O)Nc2ccc(-c3ccccc3S([NH-])(=O)=O)cc2F)c1 (optimized conformer: 58.79362948960392 kcal/mol)

>  <smiles>  (93) 
NC(=O)c1cccc(CC(=O)Nc2ccc(-c3ccccc3S(N)(=O)=O)cc2F)c1

>  <score_type>  (93) 
oracle

>  <origin>  (93) 
adg

>  <m_score__min__energy>  (93) 
-14.01

>  <m_primary>  (93) 
energy

$$$$
17:0
     RDKit          3D

 30 34  0  0  0  0  0  0  0  0999 V2000
   57.8680   26.1350   44.6260 C   0  0  0  0  0  0  0  0  0  0  0  0
   57.2540   25.4570   45.7800 C   0  0  0  0  0  0  0  0  0  0  0  0
   57.7840   24.3730   46.3720 N   0  0  0  0  0  0  0  0  0  0  0  0
   56.8660   24.0480   47.3080 C   0  0  0  0  0  0  0  0  0  0  0  0
   57.0120   23.0760   48.0920 O   0  0  0  0  0  0  0  0  0  0  0  0
   55.7720   24.8400   47.3280 N   0  0  0  0  0  0  0  0  0  0  0  0
   56.0270   25.7190   46.3460 C   0  0  0  0  0  0  0  0  0  0  0  0
   55.1420   26.7170   45.9550 O   0  0  0  0  0  0  0  0  0  0  0  0
   57.8650   27.4640   44.4460 C   0  0  0  0  0  0  0  0  0  0  0  0
   57.6590   28.1250   43.2430 C   0  0  0  0  0  0  0  0  0  0  0  0
   57.7660   29.4570   43.4400 N   0  0  0  0  0  0  0  0  0  0  0  0
   58.0440   29.6760   44.7200 N   0  0  0  0  0  0  0  0  0  0  0  0
   58.2860   30.8410   45.4060 C   0  0  0  0  0  0  0  0  0  0  0  0
   58.2120   32.0360   44.8870 N   0  0  0  0  0  0  0  0  0  0  0  0
   57.3800   33.1650   45.2780 C   0  0  0  0  0  0  0  0  0  0  0  0
   57.4180   33.4870   46.7620 C   0  0  0  0  0  0  0  0  0  0  0  0
   58.2130   34.3310   45.7800 C   0  0  0  0  0  0  0  0  0  0  0  0
   58.6130   30.7420   46.7250 N   0  0  0  0  0  0  0  0  0  0  0  0
   58.7040   29.5330   47.3470 C   0  0  0  0  0  0  0  0  0  0  0  0
   59.0250   29.4840   48.6050 N   0  0  0  0  0  0  0  0  0  0  0  0
   60.3220   29.9000   49.1310 C   0  0  0  0  0  0  0  0  0  0  0  0
   60.6550   31.2700   48.6150 C   0  0  0  0  0  0  0  0  0  0  0  0
   61.6950   31.4380   47.6850 C   0  0  0  0  0  0  0  0  0  0  0  0
   62.0310   32.7150   47.2240 C   0  0  0  0  0  0  0  0  0  0  0  0
   61.3390   33.8330   47.6960 C   0  0  0  0  0  0  0  0  0  0  0  0
   60.3130   33.6780   48.6320 C   0  0  0  0  0  0  0  0  0  0  0  0
   59.9720   32.4020   49.0970 C   0  0  0  0  0  0  0  0  0  0  0  0
   58.9840   32.2730   50.0180 F   0  0  0  0  0  0  0  0  0  0  0  0
   58.4590   28.3900   46.6470 N   0  0  0  0  0  0  0  0  0  0  0  0
   58.1140   28.4890   45.3440 C   0  0  0  0  0  0  0  0  0  0  0  0
  1  2  1  0
  2  3  1  0
  3  4  1  0
  4  5  2  0
  4  6  1  0
  6  7  1  0
  7  8  1  0
  1  9  2  3
  9 10  1  0
 10 11  2  0
 11 12  1  0
 12 13  1  0
 13 14  2  3
 14 15  1  0
 15 16  1  0
 16 17  1  0
 13 18  1  0
 18 19  1  0
 19 20  2  0
 20 21  1  0
 21 22  1  0
 22 23  2  0
 23 24  1  0
 24 25  2  0
 25 26  1  0
 26 27  2  0
 27 28  1  0
 19 29  1  0
 29 30  2  0
  7  2  2  0
 30  9  1  0
 30 12  1  0
 17 15  1  0
 27 22  1  0
M  CHG  5   3  -1   6  -1   8  -1  11   1  18  -1
M  END
>  <UniqueID>  (94) 
17

>  <SMILES>  (94) 
O=c1[n-]c([O-])c(C=c2c[nH+]n3c(=NC4CC4)[n-]/c(=N/Cc4ccccc4F)nc23)[n-]1

>  <Energy>  (94) 
395.06964680781306

>  <Genealogy>  (94) 
O=c1[n-]c([O-])c(C=c2c[nH+]n3c(=NC4CC4)[n-]c(=NCc4ccccc4F)nc23)[n-]1 (protonated)
O=c1[n-]c([O-])c(C=c2c[nH+]n3c(=NC4CC4)[n-]/c(=N/Cc4ccccc4F)nc23)[n-]1 (cis-trans isomerization)
O=c1[n-]c([O-])c(C=c2c[nH+]n3c(=NC4CC4)[n-]/c(=N/Cc4ccccc4F)nc23)[n-]1 (3D coordinates assigned)
O=c1[n-]c([O-])c(C=c2c[nH+]n3c(=NC4CC4)[n-]/c(=N/Cc4ccccc4F)nc23)[n-]1 (nonaromatic ring conformer: 395.06964680781306 kcal/mol)

>  <smiles>  (94) 
O=c1[nH]c(O)c(C=c2cnn3c(=NC4CC4)[nH]c(=NCc4ccccc4F)nc23)[nH]1

>  <score_type>  (94) 
oracle

>  <origin>  (94) 
adg

>  <m_score__min__energy>  (94) 
-16.809999999999999

>  <m_primary>  (94) 
energy

$$$$
59:0
     RDKit          3D

 26 30  0  0  0  0  0  0  0  0999 V2000
   52.6500   30.9430   52.6040 C   0  0  0  0  0  0  0  0  0  0  0  0
   52.0270   31.1710   51.2890 C   0  0  0  0  0  0  0  0  0  0  0  0
   51.9930   30.2390   50.3200 N   0  0  0  0  0  0  0  0  0  0  0  0
   51.2730   30.8290   49.3410 C   0  0  0  0  0  0  0  0  0  0  0  0
   51.0300   30.2640   48.2430 O   0  0  0  0  0  0  0  0  0  0  0  0
   50.8250   32.0680   49.6360 N   0  0  0  0  0  0  0  0  0  0  0  0
   51.2990   32.2650   50.8770 C   0  0  0  0  0  0  0  0  0  0  0  0
   51.0270   33.4020   51.6300 O   0  0  0  0  0  0  0  0  0  0  0  0
   53.5190   29.9550   52.8590 C   0  0  0  0  0  0  0  0  0  0  0  0
   53.2750   28.6600   53.3080 C   0  0  0  0  0  0  0  0  0  0  0  0
   54.4530   28.0170   53.4700 N   0  0  0  0  0  0  0  0  0  0  0  0
   55.4380   28.8500   53.1520 N   0  0  0  0  0  0  0  0  0  0  0  0
   56.8010   28.6840   53.1540 C   0  0  0  0  0  0  0  0  0  0  0  0
   57.4130   27.5820   53.4880 N   0  0  0  0  0  0  0  0  0  0  0  0
   58.7180   27.3990   54.1080 C   0  0  0  0  0  0  0  0  0  0  0  0
   59.5200   26.2360   53.5480 C   0  0  0  0  0  0  0  0  0  0  0  0
   59.8480   27.6590   53.1280 C   0  0  0  0  0  0  0  0  0  0  0  0
   57.5670   29.7440   52.7730 N   0  0  0  0  0  0  0  0  0  0  0  0
   57.0070   30.9350   52.4050 C   0  0  0  0  0  0  0  0  0  0  0  0
   57.8440   32.0320   52.0100 N   0  0  0  0  0  0  0  0  0  0  0  0
   57.9470   33.2710   52.7610 C   0  0  0  0  0  0  0  0  0  0  0  0
   59.0490   34.0710   52.0770 C   0  0  0  0  0  0  0  0  0  0  0  0
   59.2530   33.4220   50.7090 C   0  0  0  0  0  0  0  0  0  0  0  0
   58.6740   32.0170   50.8200 C   0  0  0  0  0  0  0  0  0  0  0  0
   55.6530   31.0770   52.4100 N   0  0  0  0  0  0  0  0  0  0  0  0
   54.8950   30.0220   52.7870 C   0  0  0  0  0  0  0  0  0  0  0  0
  1  2  1  0
  2  3  1  0
  3  4  1  0
  4  5  2  0
  4  6  1  0
  6  7  1  0
  7  8  1  0
  1  9  2  3
  9 10  1  0
 10 11  2  0
 11 12  1  0
 12 13  1  0
 13 14  2  0
 14 15  1  0
 15 16  1  0
 16 17  1  0
 13 18  1  0
 18 19  2  0
 19 20  1  0
 20 21  1  0
 21 22  1  0
 22 23  1  0
 23 24  1  0
 19 25  1  0
 25 26  2  0
  7  2  2  0
 26  9  1  0
 26 12  1  0
 17 15  1  0
 24 20  1  0
M  CHG  4   3  -1   6  -1   8  -1  11   1
M  END
>  <UniqueID>  (95) 
55

>  <SMILES>  (95) 
O=c1[n-]c([O-])c(C=c2c[nH+]n3/c(=N\C4CC4)nc(N4CCCC4)nc23)[n-]1

>  <Energy>  (95) 
390.79895420270304

>  <Genealogy>  (95) 
O=c1[n-]c([O-])c(C=c2c[nH+]n3c(=NC4CC4)nc(N4CCCC4)nc23)[n-]1 (protonated)
O=c1[n-]c([O-])c(C=c2c[nH+]n3/c(=N\C4CC4)nc(N4CCCC4)nc23)[n-]1 (cis-trans isomerization)
O=c1[n-]c([O-])c(C=c2c[nH+]n3/c(=N\C4CC4)nc(N4CCCC4)nc23)[n-]1 (3D coordinates assigned)
O=c1[n-]c([O-])c(C=c2c[nH+]n3/c(=N\C4CC4)nc(N4CCCC4)nc23)[n-]1 (nonaromatic ring conformer: 390.79895420270304 kcal/mol)

>  <smiles>  (95) 
O=c1[nH]c(O)c(C=c2cnn3c(=NC4CC4)nc(N4CCCC4)nc23)[nH]1

>  <score_type>  (95) 
oracle

>  <origin>  (95) 
adg

>  <m_score__min__energy>  (95) 
-14.859999999999999

>  <m_primary>  (95) 
energy

$$$$
0:0
     RDKit          3D

 25 27  0  0  0  0  0  0  0  0999 V2000
   55.5210   28.9370   44.9870 N   0  0  0  0  0  0  0  0  0  0  0  0
   57.0600   29.7190   45.0710 S   0  0  0  0  0  0  0  0  0  0  0  0
   57.8630   29.3930   43.8440 O   0  0  0  0  0  0  0  0  0  0  0  0
   56.8410   31.2050   45.1350 O   0  0  0  0  0  0  0  0  0  0  0  0
   57.9290   29.1700   46.5030 C   0  0  0  0  0  0  0  0  0  0  0  0
   58.3670   27.8410   46.5830 C   0  0  0  0  0  0  0  0  0  0  0  0
   59.0700   27.4010   47.7070 C   0  0  0  0  0  0  0  0  0  0  0  0
   59.3270   28.2790   48.7630 C   0  0  0  0  0  0  0  0  0  0  0  0
   58.8730   29.6030   48.7110 C   0  0  0  0  0  0  0  0  0  0  0  0
   59.1610   30.4740   49.8210 N   0  0  0  0  0  0  0  0  0  0  0  0
   58.3440   30.8030   50.7800 C   0  0  0  0  0  0  0  0  0  0  0  0
   58.7230   31.7390   51.6870 N   0  0  0  0  0  0  0  0  0  0  0  0
   57.8930   32.0730   52.7080 C   0  0  0  0  0  0  0  0  0  0  0  0
   56.6840   31.4670   52.8290 N   0  0  0  0  0  0  0  0  0  0  0  0
   56.3040   30.5180   51.9360 C   0  0  0  0  0  0  0  0  0  0  0  0
   55.1290   29.9700   52.0450 N   0  0  0  0  0  0  0  0  0  0  0  0
   53.8660   30.6600   52.0630 C   0  0  0  0  0  0  0  0  0  0  0  0
   53.3890   31.2260   50.8730 C   0  0  0  0  0  0  0  0  0  0  0  0
   52.1680   31.9070   50.8510 C   0  0  0  0  0  0  0  0  0  0  0  0
   51.4240   32.0470   52.0260 C   0  0  0  0  0  0  0  0  0  0  0  0
   50.2080   32.7200   52.0020 O   0  0  0  0  0  0  0  0  0  0  0  0
   51.9050   31.5160   53.2250 C   0  0  0  0  0  0  0  0  0  0  0  0
   53.1260   30.8340   53.2500 C   0  0  0  0  0  0  0  0  0  0  0  0
   57.1380   30.1930   50.9160 N   0  0  0  0  0  0  0  0  0  0  0  0
   58.2020   30.0540   47.5560 C   0  0  0  0  0  0  0  0  0  0  0  0
  1  2  1  0
  2  3  2  0
  2  4  2  0
  2  5  1  0
  5  6  2  0
  6  7  1  0
  7  8  2  0
  8  9  1  0
  9 10  1  0
 10 11  2  0
 11 12  1  0
 12 13  1  0
 13 14  2  0
 14 15  1  0
 15 16  2  3
 16 17  1  0
 17 18  2  0
 18 19  1  0
 19 20  2  0
 20 21  1  0
 20 22  1  0
 22 23  2  0
 15 24  1  0
  9 25  2  0
 25  5  1  0
 24 11  1  0
 23 17  1  0
M  CHG  4   1  -1  12  -1  21  -1  24  -1
M  END
>  <UniqueID>  (96) 
1

>  <SMILES>  (96) 
[NH-]S(=O)(=O)c1cccc(/N=c2/[n-]cnc(=Nc3ccc([O-])cc3)[n-]2)c1

>  <Energy>  (96) 
48.00112194896571

>  <Genealogy>  (96) 
[NH-]S(=O)(=O)c1cccc(N=c2[n-]cnc(=Nc3ccc([O-])cc3)[n-]2)c1 (protonated)
[NH-]S(=O)(=O)c1cccc(/N=c2/[n-]cnc(=Nc3ccc([O-])cc3)[n-]2)c1 (cis-trans isomerization)
[NH-]S(=O)(=O)c1cccc(/N=c2/[n-]cnc(=Nc3ccc([O-])cc3)[n-]2)c1 (3D coordinates assigned)
[NH-]S(=O)(=O)c1cccc(/N=c2/[n-]cnc(=Nc3ccc([O-])cc3)[n-]2)c1 (optimized conformer: 48.00112194896571 kcal/mol)

>  <smiles>  (96) 
NS(=O)(=O)c1cccc(N=c2[nH]cnc(=Nc3ccc(O)cc3)[nH]2)c1

>  <score_type>  (96) 
oracle

>  <origin>  (96) 
adg

>  <m_score__min__energy>  (96) 
-15.68

>  <m_primary>  (96) 
energy

$$$$
34:0
     RDKit          3D

 24 26  0  0  0  0  0  0  0  0999 V2000
   60.8430   28.6770   44.5020 O   0  0  0  0  0  0  0  0  0  0  0  0
   60.0440   29.0950   45.3810 C   0  0  0  0  0  0  0  0  0  0  0  0
   60.4620   30.1820   46.2190 N   0  0  0  0  0  0  0  0  0  0  0  0
   59.8970   30.5610   47.4830 C   0  0  0  0  0  0  0  0  0  0  0  0
   60.1870   29.7560   48.5930 C   0  0  0  0  0  0  0  0  0  0  0  0
   59.6470   30.0490   49.8450 C   0  0  0  0  0  0  0  0  0  0  0  0
   58.8260   31.1650   50.0070 C   0  0  0  0  0  0  0  0  0  0  0  0
   58.5560   31.9980   48.9200 C   0  0  0  0  0  0  0  0  0  0  0  0
   59.0920   31.7180   47.6500 C   0  0  0  0  0  0  0  0  0  0  0  0
   58.8670   32.6510   46.5760 N   0  0  0  0  0  0  0  0  0  0  0  0
   59.7220   33.8500   46.4990 C   0  0  0  0  0  0  0  0  0  0  0  0
   59.2910   34.8340   45.3960 C   0  0  0  0  0  0  0  0  0  0  0  0
   57.9500   34.6380   45.0020 O   0  0  0  0  0  0  0  0  0  0  0  0
   57.8270   33.3560   44.4300 C   0  0  0  0  0  0  0  0  0  0  0  0
   57.9130   32.2860   45.5170 C   0  0  0  0  0  0  0  0  0  0  0  0
   58.7340   28.4240   45.5450 C   0  0  0  0  0  0  0  0  0  0  0  0
   57.5440   29.0370   45.1150 C   0  0  0  0  0  0  0  0  0  0  0  0
   56.3150   28.3880   45.2700 C   0  0  0  0  0  0  0  0  0  0  0  0
   55.1540   29.0100   44.8270 O   0  0  0  0  0  0  0  0  0  0  0  0
   56.2580   27.1200   45.8720 C   0  0  0  0  0  0  0  0  0  0  0  0
   55.0440   26.4530   46.0290 O   0  0  0  0  0  0  0  0  0  0  0  0
   57.4380   26.5160   46.3230 C   0  0  0  0  0  0  0  0  0  0  0  0
   57.3930   25.2620   46.9230 O   0  0  0  0  0  0  0  0  0  0  0  0
   58.6650   27.1670   46.1700 C   0  0  0  0  0  0  0  0  0  0  0  0
  1  2  2  0
  2  3  1  0
  3  4  1  0
  4  5  2  0
  5  6  1  0
  6  7  2  0
  7  8  1  0
  8  9  2  0
  9 10  1  0
 10 11  1  0
 11 12  1  0
 12 13  1  0
 13 14  1  0
 14 15  1  0
  2 16  1  0
 16 17  2  0
 17 18  1  0
 18 19  1  0
 18 20  2  0
 20 21  1  0
 20 22  1  0
 22 23  1  0
 22 24  2  0
  9  4  1  0
 15 10  1  0
 24 16  1  0
M  CHG  3   3  -1  19  -1  23  -1
M  END
>  <UniqueID>  (97) 
30

>  <SMILES>  (97) 
O=C([N-]c1ccccc1N1CCOCC1)c1cc([O-])c(O)c([O-])c1

>  <Energy>  (97) 
57.995436312190215

>  <Genealogy>  (97) 
O=C([N-]c1ccccc1N1CCOCC1)c1cc([O-])c(O)c([O-])c1 (protonated)
O=C([N-]c1ccccc1N1CCOCC1)c1cc([O-])c(O)c([O-])c1 (3D coordinates assigned)
O=C([N-]c1ccccc1N1CCOCC1)c1cc([O-])c(O)c([O-])c1 (nonaromatic ring conformer: 57.995436312190215 kcal/mol)

>  <smiles>  (97) 
O=C(Nc1ccccc1N1CCOCC1)c1cc(O)c(O)c(O)c1

>  <score_type>  (97) 
oracle

>  <origin>  (97) 
adg

>  <m_score__min__energy>  (97) 
-14.27

>  <m_primary>  (97) 
energy

$$$$
34:0
     RDKit          3D

 21 22  0  0  0  0  0  0  0  0999 V2000
   59.5020   34.6090   46.4700 C   0  0  0  0  0  0  0  0  0  0  0  0
   58.3290   34.3600   45.5310 C   0  0  0  0  0  0  0  0  0  0  0  0
   58.1260   32.8930   45.3150 C   0  0  0  0  0  0  0  0  0  0  0  0
   57.0230   32.3080   44.7030 C   0  0  0  0  0  0  0  0  0  0  0  0
   57.1270   30.9110   44.5810 C   0  0  0  0  0  0  0  0  0  0  0  0
   56.0630   30.0780   43.9850 C   0  0  0  0  0  0  0  0  0  0  0  0
   55.1450   29.3790   44.8250 N   0  0  0  0  0  0  0  0  0  0  0  0
   55.9540   29.9750   42.7340 O   0  0  0  0  0  0  0  0  0  0  0  0
   58.3390   30.4200   45.0700 C   0  0  0  0  0  0  0  0  0  0  0  0
   58.6860   29.0310   45.1560 N   0  0  0  0  0  0  0  0  0  0  0  0
   57.8060   27.9560   45.5070 C   0  0  0  0  0  0  0  0  0  0  0  0
   57.0780   28.0820   46.5280 O   0  0  0  0  0  0  0  0  0  0  0  0
   57.7230   26.6970   44.6870 C   0  0  0  0  0  0  0  0  0  0  0  0
   57.1140   25.5750   45.4740 C   0  0  0  0  0  0  0  0  0  0  0  0
   57.8920   24.1260   45.8430 S   0  0  0  0  0  0  0  0  0  0  0  0
   56.5830   23.5500   46.7220 C   0  0  0  0  0  0  0  0  0  0  0  0
   56.5490   22.4280   47.2900 O   0  0  0  0  0  0  0  0  0  0  0  0
   55.5560   24.4250   46.7620 N   0  0  0  0  0  0  0  0  0  0  0  0
   55.8510   25.5570   46.0710 C   0  0  0  0  0  0  0  0  0  0  0  0
   54.9400   26.6080   45.9890 O   0  0  0  0  0  0  0  0  0  0  0  0
   59.2490   31.6980   45.6860 S   0  0  0  0  0  0  0  0  0  0  0  0
  1  2  1  0
  2  3  1  0
  3  4  2  0
  4  5  1  0
  5  6  1  0
  6  7  1  0
  6  8  2  0
  5  9  2  0
  9 10  1  0
 10 11  1  0
 11 12  2  0
 11 13  1  0
 13 14  1  0
 14 15  1  0
 15 16  1  0
 16 17  2  0
 16 18  1  0
 18 19  1  0
 19 20  1  0
  9 21  1  0
 21  3  1  0
 19 14  2  0
M  CHG  3   7  -1  10  -1  18  -1
M  END
>  <UniqueID>  (98) 
33

>  <SMILES>  (98) 
CCc1cc(C([NH-])=O)c([N-]C(=O)Cc2sc(=O)[n-]c2O)s1

>  <Energy>  (98) 
86.11004032873812

>  <Genealogy>  (98) 
CCc1cc(C([NH-])=O)c([N-]C(=O)Cc2sc(=O)[n-]c2O)s1 (protonated)
CCc1cc(C([NH-])=O)c([N-]C(=O)Cc2sc(=O)[n-]c2O)s1 (3D coordinates assigned)
CCc1cc(C([NH-])=O)c([N-]C(=O)Cc2sc(=O)[n-]c2O)s1 (optimized conformer: 86.11004032873812 kcal/mol)

>  <smiles>  (98) 
CCc1cc(C(N)=O)c(NC(=O)Cc2sc(=O)[nH]c2O)s1

>  <score_type>  (98) 
oracle

>  <origin>  (98) 
adg

>  <m_score__min__energy>  (98) 
-15.050000000000001

>  <m_primary>  (98) 
energy

$$$$
58:0
     RDKit          3D

 30 34  0  0  0  0  0  0  0  0999 V2000
   53.1570   31.2060   52.3670 C   0  0  0  0  0  0  0  0  0  0  0  0
   52.2350   31.1770   51.2270 C   0  0  0  0  0  0  0  0  0  0  0  0
   52.3070   30.2750   50.2320 N   0  0  0  0  0  0  0  0  0  0  0  0
   51.3930   30.7210   49.3430 C   0  0  0  0  0  0  0  0  0  0  0  0
   51.1480   30.1210   48.2640 O   0  0  0  0  0  0  0  0  0  0  0  0
   50.7730   31.8670   49.6930 N   0  0  0  0  0  0  0  0  0  0  0  0
   51.3240   32.1480   50.8850 C   0  0  0  0  0  0  0  0  0  0  0  0
   51.0330   33.2880   51.6230 O   0  0  0  0  0  0  0  0  0  0  0  0
   54.2390   30.4230   52.4820 C   0  0  0  0  0  0  0  0  0  0  0  0
   54.2440   29.1280   52.9820 C   0  0  0  0  0  0  0  0  0  0  0  0
   55.5130   28.6670   53.0130 N   0  0  0  0  0  0  0  0  0  0  0  0
   56.3210   29.6180   52.5580 N   0  0  0  0  0  0  0  0  0  0  0  0
   57.6900   29.6700   52.4990 C   0  0  0  0  0  0  0  0  0  0  0  0
   58.4790   28.6550   52.7180 N   0  0  0  0  0  0  0  0  0  0  0  0
   59.9350   28.6000   52.7040 C   0  0  0  0  0  0  0  0  0  0  0  0
   60.4460   27.4890   51.8050 C   0  0  0  0  0  0  0  0  0  0  0  0
   60.5590   28.9370   51.3610 C   0  0  0  0  0  0  0  0  0  0  0  0
   58.2620   30.8580   52.1660 N   0  0  0  0  0  0  0  0  0  0  0  0
   57.5110   31.9580   51.8740 C   0  0  0  0  0  0  0  0  0  0  0  0
   58.1170   33.0810   51.6270 N   0  0  0  0  0  0  0  0  0  0  0  0
   59.3380   33.2400   50.8920 C   0  0  0  0  0  0  0  0  0  0  0  0
   60.5730   33.3360   51.5500 C   0  0  0  0  0  0  0  0  0  0  0  0
   61.7430   33.5660   50.8170 C   0  0  0  0  0  0  0  0  0  0  0  0
   61.6850   33.7030   49.4280 C   0  0  0  0  0  0  0  0  0  0  0  0
   62.8220   33.9200   48.7210 F   0  0  0  0  0  0  0  0  0  0  0  0
   60.4520   33.6330   48.7710 C   0  0  0  0  0  0  0  0  0  0  0  0
   60.3890   33.7830   47.4240 F   0  0  0  0  0  0  0  0  0  0  0  0
   59.2800   33.4160   49.5030 C   0  0  0  0  0  0  0  0  0  0  0  0
   56.1480   31.8790   51.9100 N   0  0  0  0  0  0  0  0  0  0  0  0
   55.5780   30.6930   52.2380 C   0  0  0  0  0  0  0  0  0  0  0  0
  1  2  1  0
  2  3  1  0
  3  4  1  0
  4  5  2  0
  4  6  1  0
  6  7  1  0
  7  8  1  0
  1  9  2  3
  9 10  1  0
 10 11  2  0
 11 12  1  0
 12 13  1  0
 13 14  2  0
 14 15  1  0
 15 16  1  0
 16 17  1  0
 13 18  1  0
 18 19  1  0
 19 20  2  3
 20 21  1  0
 21 22  2  0
 22 23  1  0
 23 24  2  0
 24 25  1  0
 24 26  1  0
 26 27  1  0
 26 28  2  0
 19 29  1  0
 29 30  2  0
  7  2  2  0
 30  9  1  0
 30 12  1  0
 17 15  1  0
 28 21  1  0
M  CHG  5   3  -1   6  -1   8  -1  11   1  18  -1
M  END
>  <UniqueID>  (99) 
57

>  <SMILES>  (99) 
O=c1[n-]c([O-])c(C=c2c[nH+]n3/c(=N\C4CC4)[n-]c(=Nc4ccc(F)c(F)c4)nc23)[n-]1

>  <Energy>  (99) 
400.08541594375356

>  <Genealogy>  (99) 
O=c1[n-]c([O-])c(C=c2c[nH+]n3c(=NC4CC4)[n-]c(=Nc4ccc(F)c(F)c4)nc23)[n-]1 (protonated)
O=c1[n-]c([O-])c(C=c2c[nH+]n3/c(=N\C4CC4)[n-]c(=Nc4ccc(F)c(F)c4)nc23)[n-]1 (cis-trans isomerization)
O=c1[n-]c([O-])c(C=c2c[nH+]n3/c(=N\C4CC4)[n-]c(=Nc4ccc(F)c(F)c4)nc23)[n-]1 (3D coordinates assigned)
O=c1[n-]c([O-])c(C=c2c[nH+]n3/c(=N\C4CC4)[n-]c(=Nc4ccc(F)c(F)c4)nc23)[n-]1 (nonaromatic ring conformer: 400.08541594375356 kcal/mol)

>  <smiles>  (99) 
O=c1[nH]c(O)c(C=c2cnn3c(=NC4CC4)[nH]c(=Nc4ccc(F)c(F)c4)nc23)[nH]1

>  <score_type>  (99) 
oracle

>  <origin>  (99) 
adg

>  <m_score__min__energy>  (99) 
-15.890000000000001

>  <m_primary>  (99) 
energy

$$$$
3:0
     RDKit          3D

 23 24  0  0  0  0  0  0  0  0999 V2000
   60.3690   24.5930   46.2450 O   0  0  0  0  0  0  0  0  0  0  0  0
   59.5780   25.5660   46.3680 C   0  0  0  0  0  0  0  0  0  0  0  0
   60.1060   26.9290   46.1470 C   0  0  0  0  0  0  0  0  0  0  0  0
   59.8830   27.6810   45.0600 C   0  0  0  0  0  0  0  0  0  0  0  0
   58.8520   28.7330   44.9550 C   0  0  0  0  0  0  0  0  0  0  0  0
   59.2020   30.0810   44.7650 C   0  0  0  0  0  0  0  0  0  0  0  0
   58.2090   31.0550   44.6340 C   0  0  0  0  0  0  0  0  0  0  0  0
   56.8550   30.6900   44.6680 C   0  0  0  0  0  0  0  0  0  0  0  0
   55.8600   31.6570   44.5400 O   0  0  0  0  0  0  0  0  0  0  0  0
   56.5030   29.3450   44.8270 C   0  0  0  0  0  0  0  0  0  0  0  0
   55.1640   28.9720   44.8530 O   0  0  0  0  0  0  0  0  0  0  0  0
   57.4970   28.3690   44.9590 C   0  0  0  0  0  0  0  0  0  0  0  0
   58.1230   25.2910   46.6570 C   0  0  0  0  0  0  0  0  0  0  0  0
   57.3370   25.0500   45.3940 C   0  0  0  0  0  0  0  0  0  0  0  0
   57.7970   25.5030   44.3100 O   0  0  0  0  0  0  0  0  0  0  0  0
   56.0240   24.3530   45.3830 C   0  0  0  0  0  0  0  0  0  0  0  0
   55.9950   22.9710   45.1130 C   0  0  0  0  0  0  0  0  0  0  0  0
   54.7850   22.2740   45.0810 C   0  0  0  0  0  0  0  0  0  0  0  0
   53.5850   22.9430   45.3240 C   0  0  0  0  0  0  0  0  0  0  0  0
   52.3820   22.2490   45.2900 O   0  0  0  0  0  0  0  0  0  0  0  0
   53.5950   24.3100   45.6080 C   0  0  0  0  0  0  0  0  0  0  0  0
   54.8030   25.0160   45.6480 C   0  0  0  0  0  0  0  0  0  0  0  0
   54.7700   26.3650   45.9780 O   0  0  0  0  0  0  0  0  0  0  0  0
  1  2  2  0
  2  3  1  0
  3  4  2  3
  4  5  1  0
  5  6  2  0
  6  7  1  0
  7  8  2  0
  8  9  1  0
  8 10  1  0
 10 11  1  0
 10 12  2  0
  2 13  1  0
 13 14  1  0
 14 15  2  0
 14 16  1  0
 16 17  2  0
 17 18  1  0
 18 19  2  0
 19 20  1  0
 19 21  1  0
 21 22  2  0
 22 23  1  0
 12  5  1  0
 22 16  1  0
M  CHG  3  11  -1  20  -1  23  -1
M  END
>  <UniqueID>  (100) 
4

>  <SMILES>  (100) 
O=C(C=Cc1ccc(O)c([O-])c1)CC(=O)c1ccc([O-])cc1[O-]

>  <Energy>  (100) 
48.76067333091448

>  <Genealogy>  (100) 
O=C(C=Cc1ccc(O)c([O-])c1)CC(=O)c1ccc([O-])cc1[O-] (protonated)
O=C(C=Cc1ccc(O)c([O-])c1)CC(=O)c1ccc([O-])cc1[O-] (3D coordinates assigned)
O=C(C=Cc1ccc(O)c([O-])c1)CC(=O)c1ccc([O-])cc1[O-] (optimized conformer: 48.76067333091448 kcal/mol)

>  <smiles>  (100) 
O=C(C=Cc1ccc(O)c(O)c1)CC(=O)c1ccc(O)cc1O

>  <score_type>  (100) 
oracle

>  <origin>  (100) 
adg

>  <m_score__min__energy>  (100) 
-15.1

>  <m_primary>  (100) 
energy

$$$$
32:0
     RDKit          3D

 30 34  0  0  0  0  0  0  0  0999 V2000
   53.1390   31.3520   52.3580 C   0  0  0  0  0  0  0  0  0  0  0  0
   52.3100   31.3780   51.1380 C   0  0  0  0  0  0  0  0  0  0  0  0
   52.2940   30.4310   50.1820 N   0  0  0  0  0  0  0  0  0  0  0  0
   51.3260   30.8490   49.3390 C   0  0  0  0  0  0  0  0  0  0  0  0
   51.0180   30.2180   48.2950 O   0  0  0  0  0  0  0  0  0  0  0  0
   50.7080   31.9910   49.7090 N   0  0  0  0  0  0  0  0  0  0  0  0
   51.3360   32.3060   50.8540 C   0  0  0  0  0  0  0  0  0  0  0  0
   51.0240   33.4180   51.6250 O   0  0  0  0  0  0  0  0  0  0  0  0
   53.9910   30.3740   52.7070 C   0  0  0  0  0  0  0  0  0  0  0  0
   53.6910   29.3080   53.5510 C   0  0  0  0  0  0  0  0  0  0  0  0
   54.7810   28.5230   53.7180 N   0  0  0  0  0  0  0  0  0  0  0  0
   55.7620   29.0640   53.0130 N   0  0  0  0  0  0  0  0  0  0  0  0
   57.0590   28.6530   52.8970 C   0  0  0  0  0  0  0  0  0  0  0  0
   57.5220   27.5770   53.4670 N   0  0  0  0  0  0  0  0  0  0  0  0
   58.0150   27.4610   54.8360 C   0  0  0  0  0  0  0  0  0  0  0  0
   56.8930   27.2770   55.8410 C   0  0  0  0  0  0  0  0  0  0  0  0
   57.6110   28.6140   55.7370 C   0  0  0  0  0  0  0  0  0  0  0  0
   57.9010   29.4130   52.1440 N   0  0  0  0  0  0  0  0  0  0  0  0
   57.4630   30.5530   51.5310 C   0  0  0  0  0  0  0  0  0  0  0  0
   58.2950   31.2550   50.8250 N   0  0  0  0  0  0  0  0  0  0  0  0
   58.5390   31.0410   49.4000 C   0  0  0  0  0  0  0  0  0  0  0  0
   58.7820   32.3620   48.7330 C   0  0  0  0  0  0  0  0  0  0  0  0
   59.5660   33.3420   49.3660 C   0  0  0  0  0  0  0  0  0  0  0  0
   59.8190   34.5600   48.7280 C   0  0  0  0  0  0  0  0  0  0  0  0
   59.3010   34.8050   47.4540 C   0  0  0  0  0  0  0  0  0  0  0  0
   58.5340   33.8290   46.8090 C   0  0  0  0  0  0  0  0  0  0  0  0
   57.8940   34.1330   45.2040 Cl  0  0  0  0  0  0  0  0  0  0  0  0
   58.2780   32.6080   47.4450 C   0  0  0  0  0  0  0  0  0  0  0  0
   56.1610   30.9420   51.6660 N   0  0  0  0  0  0  0  0  0  0  0  0
   55.3260   30.1700   52.3990 C   0  0  0  0  0  0  0  0  0  0  0  0
  1  2  1  0
  2  3  1  0
  3  4  1  0
  4  5  2  0
  4  6  1  0
  6  7  1  0
  7  8  1  0
  1  9  2  3
  9 10  1  0
 10 11  2  0
 11 12  1  0
 12 13  1  0
 13 14  2  3
 14 15  1  0
 15 16  1  0
 16 17  1  0
 13 18  1  0
 18 19  1  0
 19 20  2  0
 20 21  1  0
 21 22  1  0
 22 23  2  0
 23 24  1  0
 24 25  2  0
 25 26  1  0
 26 27  1  0
 26 28  2  0
 19 29  1  0
 29 30  2  0
  7  2  2  0
 30  9  1  0
 30 12  1  0
 17 15  1  0
 28 22  1  0
M  CHG  4   3  -1   6  -1   8  -1  18  -1
M  END
>  <UniqueID>  (101) 
32

>  <SMILES>  (101) 
O=c1[n-]c([O-])c(C=c2cnn3c(=NC4CC4)[n-]/c(=N/Cc4cccc(Cl)c4)nc23)[n-]1

>  <Energy>  (101) 
386.1592794559911

>  <Genealogy>  (101) 
O=c1[n-]c([O-])c(C=c2cnn3c(=NC4CC4)[n-]c(=NCc4cccc(Cl)c4)nc23)[n-]1 (protonated)
O=c1[n-]c([O-])c(C=c2cnn3c(=NC4CC4)[n-]/c(=N/Cc4cccc(Cl)c4)nc23)[n-]1 (cis-trans isomerization)
O=c1[n-]c([O-])c(C=c2cnn3c(=NC4CC4)[n-]/c(=N/Cc4cccc(Cl)c4)nc23)[n-]1 (3D coordinates assigned)
O=c1[n-]c([O-])c(C=c2cnn3c(=NC4CC4)[n-]/c(=N/Cc4cccc(Cl)c4)nc23)[n-]1 (nonaromatic ring conformer: 386.1592794559911 kcal/mol)

>  <smiles>  (101) 
O=c1[nH]c(O)c(C=c2cnn3c(=NC4CC4)[nH]c(=NCc4cccc(Cl)c4)nc23)[nH]1

>  <score_type>  (101) 
oracle

>  <origin>  (101) 
adg

>  <m_score__min__energy>  (101) 
-18.68

>  <m_primary>  (101) 
energy

$$$$
41:0
     RDKit          3D

 22 23  0  0  0  0  0  0  0  0999 V2000
   54.9370   26.3410   45.9820 N   0  0  0  0  0  0  0  0  0  0  0  0
   56.6450   26.0960   46.0550 S   0  0  0  0  0  0  0  0  0  0  0  0
   57.0220   24.9170   45.2030 O   0  0  0  0  0  0  0  0  0  0  0  0
   57.0530   25.8150   47.4750 O   0  0  0  0  0  0  0  0  0  0  0  0
   57.4680   27.5390   45.4740 C   0  0  0  0  0  0  0  0  0  0  0  0
   58.7900   27.4620   45.0200 C   0  0  0  0  0  0  0  0  0  0  0  0
   59.4340   28.6040   44.5410 C   0  0  0  0  0  0  0  0  0  0  0  0
   58.7650   29.8310   44.5200 C   0  0  0  0  0  0  0  0  0  0  0  0
   57.4530   29.9300   44.9990 C   0  0  0  0  0  0  0  0  0  0  0  0
   56.7880   31.1990   44.9180 N   0  0  0  0  0  0  0  0  0  0  0  0
   57.3260   32.4730   45.2920 C   0  0  0  0  0  0  0  0  0  0  0  0
   57.3320   33.4370   44.4800 O   0  0  0  0  0  0  0  0  0  0  0  0
   57.8780   32.6580   46.6690 C   0  0  0  0  0  0  0  0  0  0  0  0
   59.6890   32.4040   46.6920 S   0  0  0  0  0  0  0  0  0  0  0  0
   59.6410   30.9550   47.7530 C   0  0  0  0  0  0  0  0  0  0  0  0
   60.4350   29.8410   47.4500 C   0  0  0  0  0  0  0  0  0  0  0  0
   60.3780   28.6990   48.2540 C   0  0  0  0  0  0  0  0  0  0  0  0
   59.5390   28.6720   49.3730 C   0  0  0  0  0  0  0  0  0  0  0  0
   58.7590   29.7900   49.6900 C   0  0  0  0  0  0  0  0  0  0  0  0
   57.9290   29.7630   50.8030 O   0  0  0  0  0  0  0  0  0  0  0  0
   58.8130   30.9320   48.8830 C   0  0  0  0  0  0  0  0  0  0  0  0
   56.8020   28.7740   45.4670 C   0  0  0  0  0  0  0  0  0  0  0  0
  1  2  1  0
  2  3  2  0
  2  4  2  0
  2  5  1  0
  5  6  2  0
  6  7  1  0
  7  8  2  0
  8  9  1  0
  9 10  1  0
 10 11  1  0
 11 12  2  0
 11 13  1  0
 13 14  1  0
 14 15  1  0
 15 16  2  0
 16 17  1  0
 17 18  2  0
 18 19  1  0
 19 20  1  0
 19 21  2  0
  9 22  2  0
 22  5  1  0
 21 15  1  0
M  CHG  3   1  -1  10  -1  20  -1
M  END
>  <UniqueID>  (102) 
41

>  <SMILES>  (102) 
[NH-]S(=O)(=O)c1cccc([N-]C(=O)CSc2cccc([O-])c2)c1

>  <Energy>  (102) 
30.02124277569691

>  <Genealogy>  (102) 
[NH-]S(=O)(=O)c1cccc([N-]C(=O)CSc2cccc([O-])c2)c1 (protonated)
[NH-]S(=O)(=O)c1cccc([N-]C(=O)CSc2cccc([O-])c2)c1 (3D coordinates assigned)
[NH-]S(=O)(=O)c1cccc([N-]C(=O)CSc2cccc([O-])c2)c1 (optimized conformer: 30.02124277569691 kcal/mol)

>  <smiles>  (102) 
NS(=O)(=O)c1cccc(NC(=O)CSc2cccc(O)c2)c1

>  <score_type>  (102) 
oracle

>  <origin>  (102) 
adg

>  <m_score__min__energy>  (102) 
-14.66

>  <m_primary>  (102) 
energy

$$$$
39:0
     RDKit          3D

 21 22  0  0  0  0  0  0  0  0999 V2000
   57.3280   34.5050   44.9260 C   0  0  0  0  0  0  0  0  0  0  0  0
   58.4190   33.5620   45.9660 S   0  0  0  0  0  0  0  0  0  0  0  0
   59.7150   33.3350   45.2400 O   0  0  0  0  0  0  0  0  0  0  0  0
   58.6680   34.3260   47.2360 O   0  0  0  0  0  0  0  0  0  0  0  0
   57.6730   32.0400   46.3290 N   0  0  0  0  0  0  0  0  0  0  0  0
   58.2820   30.7510   46.1570 C   0  0  0  0  0  0  0  0  0  0  0  0
   57.5920   29.6920   45.5380 C   0  0  0  0  0  0  0  0  0  0  0  0
   58.2010   28.4360   45.3750 C   0  0  0  0  0  0  0  0  0  0  0  0
   57.4610   27.3300   44.6710 C   0  0  0  0  0  0  0  0  0  0  0  0
   57.1590   26.2190   45.6280 C   0  0  0  0  0  0  0  0  0  0  0  0
   58.2500   25.0270   46.1070 S   0  0  0  0  0  0  0  0  0  0  0  0
   57.0960   24.2270   47.0310 C   0  0  0  0  0  0  0  0  0  0  0  0
   57.3200   23.1820   47.6930 O   0  0  0  0  0  0  0  0  0  0  0  0
   55.8870   24.8250   46.9870 N   0  0  0  0  0  0  0  0  0  0  0  0
   55.9200   25.9320   46.2000 C   0  0  0  0  0  0  0  0  0  0  0  0
   54.7890   26.7100   45.9880 O   0  0  0  0  0  0  0  0  0  0  0  0
   59.5180   28.2470   45.8220 C   0  0  0  0  0  0  0  0  0  0  0  0
   60.1390   27.0520   45.6580 F   0  0  0  0  0  0  0  0  0  0  0  0
   60.2050   29.2920   46.4420 C   0  0  0  0  0  0  0  0  0  0  0  0
   59.5980   30.5430   46.6150 C   0  0  0  0  0  0  0  0  0  0  0  0
   60.3310   31.5980   47.2520 N   0  0  0  0  0  0  0  0  0  0  0  0
  1  2  1  0
  2  3  2  0
  2  4  2  0
  2  5  1  0
  5  6  1  0
  6  7  2  0
  7  8  1  0
  8  9  1  0
  9 10  1  0
 10 11  1  0
 11 12  1  0
 12 13  2  0
 12 14  1  0
 14 15  1  0
 15 16  1  0
  8 17  2  0
 17 18  1  0
 17 19  1  0
 19 20  2  0
 20 21  1  0
 20  6  1  0
 15 10  2  0
M  CHG  3   5  -1  14  -1  16  -1
M  END
>  <UniqueID>  (103) 
38

>  <SMILES>  (103) 
CS(=O)(=O)[N-]c1cc(Cc2sc(=O)[n-]c2[O-])c(F)cc1N

>  <Energy>  (103) 
58.55224720546859

>  <Genealogy>  (103) 
CS(=O)(=O)[N-]c1cc(Cc2sc(=O)[n-]c2[O-])c(F)cc1N (protonated)
CS(=O)(=O)[N-]c1cc(Cc2sc(=O)[n-]c2[O-])c(F)cc1N (3D coordinates assigned)
CS(=O)(=O)[N-]c1cc(Cc2sc(=O)[n-]c2[O-])c(F)cc1N (optimized conformer: 58.55224720546859 kcal/mol)

>  <smiles>  (103) 
CS(=O)(=O)Nc1cc(Cc2sc(=O)[nH]c2O)c(F)cc1N

>  <score_type>  (103) 
oracle

>  <origin>  (103) 
adg

>  <m_score__min__energy>  (103) 
-14.06

>  <m_primary>  (103) 
energy

$$$$
84:0
     RDKit          3D

 23 24  0  0  0  0  0  0  0  0999 V2000
   55.5910   24.4590   46.4960 C   0  0  0  0  0  0  0  0  0  0  0  0
   55.7770   25.7490   45.8360 N   0  0  0  0  0  0  0  0  0  0  0  0
   54.8200   26.6910   46.0050 O   0  0  0  0  0  0  0  0  0  0  0  0
   57.0750   26.1650   45.3920 C   0  0  0  0  0  0  0  0  0  0  0  0
   57.4040   25.9860   44.1890 O   0  0  0  0  0  0  0  0  0  0  0  0
   58.0380   26.8080   46.3040 C   0  0  0  0  0  0  0  0  0  0  0  0
   58.8390   26.1120   47.1300 N   0  0  0  0  0  0  0  0  0  0  0  0
   59.4990   27.0710   47.8100 C   0  0  0  0  0  0  0  0  0  0  0  0
   60.3590   26.8100   48.6900 O   0  0  0  0  0  0  0  0  0  0  0  0
   59.1530   28.3310   47.4830 N   0  0  0  0  0  0  0  0  0  0  0  0
   58.2270   28.1650   46.5200 C   0  0  0  0  0  0  0  0  0  0  0  0
   57.4310   29.3070   45.9520 C   0  0  0  0  0  0  0  0  0  0  0  0
   58.3100   30.2940   45.1650 C   0  0  0  0  0  0  0  0  0  0  0  0
   57.5140   31.1820   44.2010 C   0  0  0  0  0  0  0  0  0  0  0  0
   56.6810   32.1180   44.9460 N   0  0  0  0  0  0  0  0  0  0  0  0
   57.1310   33.4190   45.3370 C   0  0  0  0  0  0  0  0  0  0  0  0
   56.6130   34.4440   44.8130 O   0  0  0  0  0  0  0  0  0  0  0  0
   58.1990   33.5630   46.3530 C   0  0  0  0  0  0  0  0  0  0  0  0
   59.2650   34.4610   46.1510 C   0  0  0  0  0  0  0  0  0  0  0  0
   60.2730   34.5920   47.1110 C   0  0  0  0  0  0  0  0  0  0  0  0
   60.2290   33.8320   48.2830 C   0  0  0  0  0  0  0  0  0  0  0  0
   59.1780   32.9390   48.4960 C   0  0  0  0  0  0  0  0  0  0  0  0
   58.1680   32.8020   47.5380 C   0  0  0  0  0  0  0  0  0  0  0  0
  1  2  1  0
  2  3  1  0
  2  4  1  0
  4  5  2  0
  4  6  1  0
  6  7  1  0
  7  8  1  0
  8  9  2  0
  8 10  1  0
 10 11  1  0
 11 12  1  0
 12 13  1  0
 13 14  1  0
 14 15  1  0
 15 16  1  0
 16 17  2  0
 16 18  1  0
 18 19  2  0
 19 20  1  0
 20 21  2  0
 21 22  1  0
 22 23  2  0
 11  6  2  0
 23 18  1  0
M  CHG  4   3  -1   7  -1  10  -1  15  -1
M  END
>  <UniqueID>  (104) 
82

>  <SMILES>  (104) 
CN([O-])C(=O)c1[n-]c(=O)[n-]c1CCC[N-]C(=O)c1ccccc1

>  <Energy>  (104) 
63.871244342930325

>  <Genealogy>  (104) 
CN([O-])C(=O)c1[n-]c(=O)[n-]c1CCC[N-]C(=O)c1ccccc1 (protonated)
CN([O-])C(=O)c1[n-]c(=O)[n-]c1CCC[N-]C(=O)c1ccccc1 (3D coordinates assigned)
CN([O-])C(=O)c1[n-]c(=O)[n-]c1CCC[N-]C(=O)c1ccccc1 (optimized conformer: 63.871244342930325 kcal/mol)

>  <smiles>  (104) 
CN(O)C(=O)c1[nH]c(=O)[nH]c1CCCNC(=O)c1ccccc1

>  <score_type>  (104) 
oracle

>  <origin>  (104) 
adg

>  <m_score__min__energy>  (104) 
-14.859999999999999

>  <m_primary>  (104) 
energy

$$$$
67:0
     RDKit          3D

 33 36  0  0  0  0  0  0  0  0999 V2000
   50.2290   32.6850   52.0000 N   0  0  0  0  0  0  0  0  0  0  0  0
   51.4960   31.7870   51.2420 S   0  0  0  0  0  0  0  0  0  0  0  0
   50.9770   31.2160   49.9520 O   0  0  0  0  0  0  0  0  0  0  0  0
   52.6530   32.7000   50.9520 O   0  0  0  0  0  0  0  0  0  0  0  0
   52.0260   30.4900   52.3070 C   0  0  0  0  0  0  0  0  0  0  0  0
   51.0910   29.7350   53.0280 C   0  0  0  0  0  0  0  0  0  0  0  0
   51.5190   28.6950   53.8590 C   0  0  0  0  0  0  0  0  0  0  0  0
   52.8800   28.4050   53.9760 C   0  0  0  0  0  0  0  0  0  0  0  0
   53.8270   29.1590   53.2640 C   0  0  0  0  0  0  0  0  0  0  0  0
   55.2890   28.8150   53.3480 C   0  0  0  0  0  0  0  0  0  0  0  0
   56.1040   29.9140   52.7430 C   0  0  0  0  0  0  0  0  0  0  0  0
   55.6680   31.0980   52.7700 O   0  0  0  0  0  0  0  0  0  0  0  0
   57.3630   29.6160   52.1210 N   0  0  0  0  0  0  0  0  0  0  0  0
   58.0810   30.5530   51.3040 C   0  0  0  0  0  0  0  0  0  0  0  0
   58.5980   30.1310   50.0710 C   0  0  0  0  0  0  0  0  0  0  0  0
   59.2940   31.0260   49.2430 C   0  0  0  0  0  0  0  0  0  0  0  0
   59.8280   30.5650   47.9100 C   0  0  0  0  0  0  0  0  0  0  0  0
   58.8120   30.6940   46.7970 C   0  0  0  0  0  0  0  0  0  0  0  0
   57.9410   29.6740   46.5580 N   0  0  0  0  0  0  0  0  0  0  0  0
   57.0370   29.7270   45.5800 N   0  0  0  0  0  0  0  0  0  0  0  0
   56.9350   30.8040   44.7640 C   0  0  0  0  0  0  0  0  0  0  0  0
   56.0820   30.7990   43.8360 O   0  0  0  0  0  0  0  0  0  0  0  0
   57.7800   31.9040   44.9640 C   0  0  0  0  0  0  0  0  0  0  0  0
   58.7260   31.8590   46.0000 C   0  0  0  0  0  0  0  0  0  0  0  0
   59.6420   33.0510   46.1670 C   0  0  0  0  0  0  0  0  0  0  0  0
   58.8510   34.3650   46.0550 C   0  0  0  0  0  0  0  0  0  0  0  0
   57.8530   34.4150   44.8690 C   0  0  0  0  0  0  0  0  0  0  0  0
   57.7580   33.1120   44.0580 C   0  0  0  0  0  0  0  0  0  0  0  0
   59.4350   32.3650   49.6400 C   0  0  0  0  0  0  0  0  0  0  0  0
   58.8990   32.7970   50.8560 C   0  0  0  0  0  0  0  0  0  0  0  0
   58.2200   31.9000   51.6850 C   0  0  0  0  0  0  0  0  0  0  0  0
   57.6530   32.3610   52.8290 F   0  0  0  0  0  0  0  0  0  0  0  0
   53.3910   30.1940   52.4200 C   0  0  0  0  0  0  0  0  0  0  0  0
  1  2  1  0
  2  3  2  0
  2  4  2  0
  2  5  1  0
  5  6  2  0
  6  7  1  0
  7  8  2  0
  8  9  1  0
  9 10  1  0
 10 11  1  0
 11 12  2  0
 11 13  1  0
 13 14  1  0
 14 15  2  0
 15 16  1  0
 16 17  1  0
 17 18  1  0
 18 19  2  0
 19 20  1  0
 20 21  1  0
 21 22  2  0
 21 23  1  0
 23 24  2  0
 24 25  1  0
 25 26  1  0
 26 27  1  0
 27 28  1  0
 16 29  2  0
 29 30  1  0
 30 31  2  0
 31 32  1  0
  9 33  2  0
 33  5  1  0
 31 14  1  0
 24 18  1  0
 28 23  1  0
M  CHG  2   1  -1  20  -1
M  END
>  <UniqueID>  (105) 
58

>  <SMILES>  (105) 
[NH-]S(=O)(=O)c1cccc(CC(=O)Nc2cc(Cc3n[n-]c(=O)c4c3CCCC4)ccc2F)c1

>  <Energy>  (105) 
68.21090655667706

>  <Genealogy>  (105) 
[NH-]S(=O)(=O)c1cccc(CC(=O)Nc2cc(Cc3n[n-]c(=O)c4c3CCCC4)ccc2F)c1 (protonated)
[NH-]S(=O)(=O)c1cccc(CC(=O)Nc2cc(Cc3n[n-]c(=O)c4c3CCCC4)ccc2F)c1 (3D coordinates assigned)
[NH-]S(=O)(=O)c1cccc(CC(=O)Nc2cc(Cc3n[n-]c(=O)c4c3CCCC4)ccc2F)c1 (nonaromatic ring conformer: 68.21090655667706 kcal/mol)

>  <smiles>  (105) 
NS(=O)(=O)c1cccc(CC(=O)Nc2cc(Cc3n[nH]c(=O)c4c3CCCC4)ccc2F)c1

>  <score_type>  (105) 
oracle

>  <origin>  (105) 
adg

>  <m_score__min__energy>  (105) 
-14.27

>  <m_primary>  (105) 
energy

$$$$
75:0
     RDKit          3D

 29 31  0  0  0  0  0  0  0  0999 V2000
   58.5630   28.9510   46.8160 C   0  0  0  0  0  0  0  0  0  0  0  0
   58.6300   30.0210   45.8320 N   0  0  0  0  0  0  0  0  0  0  0  0
   57.7800   31.1730   45.8220 C   0  0  0  0  0  0  0  0  0  0  0  0
   56.8470   31.2300   44.9780 O   0  0  0  0  0  0  0  0  0  0  0  0
   57.9800   32.3220   46.7740 C   0  0  0  0  0  0  0  0  0  0  0  0
   59.3880   32.4470   47.1550 N   0  0  0  0  0  0  0  0  0  0  0  0
   60.3230   32.8690   46.3180 N   0  0  0  0  0  0  0  0  0  0  0  0
   61.4820   32.9590   46.9990 C   0  0  0  0  0  0  0  0  0  0  0  0
   61.2780   32.5900   48.3130 C   0  0  0  0  0  0  0  0  0  0  0  0
   59.9390   32.2580   48.3770 C   0  0  0  0  0  0  0  0  0  0  0  0
   59.2300   31.8250   49.5960 C   0  0  0  0  0  0  0  0  0  0  0  0
   59.2580   30.4760   49.9800 C   0  0  0  0  0  0  0  0  0  0  0  0
   58.5930   30.0560   51.1360 C   0  0  0  0  0  0  0  0  0  0  0  0
   57.8680   30.9790   51.9100 C   0  0  0  0  0  0  0  0  0  0  0  0
   57.2000   30.6030   53.1210 N   0  0  0  0  0  0  0  0  0  0  0  0
   56.3460   29.4700   53.3300 C   0  0  0  0  0  0  0  0  0  0  0  0
   56.8110   28.3030   53.2420 O   0  0  0  0  0  0  0  0  0  0  0  0
   54.9000   29.6360   53.5960 C   0  0  0  0  0  0  0  0  0  0  0  0
   53.9010   29.1690   52.8300 C   0  0  0  0  0  0  0  0  0  0  0  0
   53.0600   30.0070   51.9630 C   0  0  0  0  0  0  0  0  0  0  0  0
   52.8220   29.6270   50.6360 C   0  0  0  0  0  0  0  0  0  0  0  0
   51.9920   30.4030   49.8230 C   0  0  0  0  0  0  0  0  0  0  0  0
   51.3990   31.5650   50.3290 C   0  0  0  0  0  0  0  0  0  0  0  0
   50.5670   32.3220   49.5110 O   0  0  0  0  0  0  0  0  0  0  0  0
   51.6430   31.9570   51.6570 C   0  0  0  0  0  0  0  0  0  0  0  0
   51.0650   33.1110   52.1860 O   0  0  0  0  0  0  0  0  0  0  0  0
   52.4800   31.1800   52.4670 C   0  0  0  0  0  0  0  0  0  0  0  0
   57.8460   32.3250   51.5270 C   0  0  0  0  0  0  0  0  0  0  0  0
   58.5100   32.7460   50.3710 C   0  0  0  0  0  0  0  0  0  0  0  0
  1  2  1  0
  2  3  1  0
  3  4  2  0
  3  5  1  0
  5  6  1  0
  6  7  1  0
  7  8  2  0
  8  9  1  0
  9 10  2  0
 10 11  1  0
 11 12  2  0
 12 13  1  0
 13 14  2  0
 14 15  1  0
 15 16  1  0
 16 17  2  0
 16 18  1  0
 18 19  2  3
 19 20  1  0
 20 21  2  0
 21 22  1  0
 22 23  2  0
 23 24  1  0
 23 25  1  0
 25 26  1  0
 25 27  2  0
 14 28  1  0
 28 29  2  0
 10  6  1  0
 29 11  1  0
 27 20  1  0
M  CHG  3   2  -1  15  -1  24  -1
M  END
>  <UniqueID>  (106) 
65

>  <SMILES>  (106) 
C[N-]C(=O)Cn1nccc1-c1ccc([N-]C(=O)C=Cc2ccc([O-])c(O)c2)cc1

>  <Energy>  (106) 
91.20643885169439

>  <Genealogy>  (106) 
C[N-]C(=O)Cn1nccc1-c1ccc([N-]C(=O)C=Cc2ccc([O-])c(O)c2)cc1 (protonated)
C[N-]C(=O)Cn1nccc1-c1ccc([N-]C(=O)C=Cc2ccc([O-])c(O)c2)cc1 (3D coordinates assigned)
C[N-]C(=O)Cn1nccc1-c1ccc([N-]C(=O)C=Cc2ccc([O-])c(O)c2)cc1 (optimized conformer: 91.20643885169439 kcal/mol)

>  <smiles>  (106) 
CNC(=O)Cn1nccc1-c1ccc(NC(=O)C=Cc2ccc(O)c(O)c2)cc1

>  <score_type>  (106) 
oracle

>  <origin>  (106) 
adg

>  <m_score__min__energy>  (106) 
-14.65

>  <m_primary>  (106) 
energy

$$$$
7:0
     RDKit          3D

 32 35  0  0  0  0  0  0  0  0999 V2000
   66.1430   32.8770   50.2570 C   0  0  0  0  0  0  0  0  0  0  0  0
   66.5900   31.7220   50.8970 C   0  0  0  0  0  0  0  0  0  0  0  0
   65.6870   30.7030   51.2090 C   0  0  0  0  0  0  0  0  0  0  0  0
   64.3240   30.8390   50.8990 C   0  0  0  0  0  0  0  0  0  0  0  0
   63.8650   32.0090   50.2490 C   0  0  0  0  0  0  0  0  0  0  0  0
   64.7940   33.0210   49.9270 C   0  0  0  0  0  0  0  0  0  0  0  0
   62.4580   32.1530   49.9450 N   0  0  0  0  0  0  0  0  0  0  0  0
   61.7200   33.7270   49.7780 S   0  0  0  0  0  0  0  0  0  0  0  0
   62.7640   34.7810   49.5360 O   0  0  0  0  0  0  0  0  0  0  0  0
   60.9820   34.0550   51.0450 O   0  0  0  0  0  0  0  0  0  0  0  0
   60.6220   33.7270   48.4020 C   0  0  0  0  0  0  0  0  0  0  0  0
   59.2520   33.4920   48.5850 C   0  0  0  0  0  0  0  0  0  0  0  0
   58.3880   33.4900   47.4850 C   0  0  0  0  0  0  0  0  0  0  0  0
   58.8790   33.7290   46.1900 C   0  0  0  0  0  0  0  0  0  0  0  0
   57.9580   33.7070   45.0270 C   0  0  0  0  0  0  0  0  0  0  0  0
   57.0970   34.6200   44.9020 O   0  0  0  0  0  0  0  0  0  0  0  0
   57.9830   32.6530   44.0540 N   0  0  0  0  0  0  0  0  0  0  0  0
   57.6650   31.4140   44.2860 C   0  0  0  0  0  0  0  0  0  0  0  0
   56.3950   30.9710   44.4320 N   0  0  0  0  0  0  0  0  0  0  0  0
   56.3660   29.6390   44.6940 C   0  0  0  0  0  0  0  0  0  0  0  0
   55.1710   28.9540   44.8750 O   0  0  0  0  0  0  0  0  0  0  0  0
   57.6130   29.0200   44.7630 C   0  0  0  0  0  0  0  0  0  0  0  0
   57.8730   27.5700   45.0260 C   0  0  0  0  0  0  0  0  0  0  0  0
   57.0470   27.0900   46.1810 C   0  0  0  0  0  0  0  0  0  0  0  0
   57.5530   27.0420   47.3340 O   0  0  0  0  0  0  0  0  0  0  0  0
   55.6850   26.7100   45.9900 N   0  0  0  0  0  0  0  0  0  0  0  0
   58.7980   30.1880   44.4860 S   0  0  0  0  0  0  0  0  0  0  0  0
   60.2570   33.9490   46.0150 C   0  0  0  0  0  0  0  0  0  0  0  0
   61.1180   33.9620   47.1150 C   0  0  0  0  0  0  0  0  0  0  0  0
   61.6160   30.9510   49.9390 C   0  0  0  0  0  0  0  0  0  0  0  0
   61.9150   30.1150   51.1810 C   0  0  0  0  0  0  0  0  0  0  0  0
   63.3880   29.6900   51.1930 C   0  0  0  0  0  0  0  0  0  0  0  0
  1  2  2  0
  2  3  1  0
  3  4  2  0
  4  5  1  0
  5  6  2  0
  5  7  1  0
  7  8  1  0
  8  9  2  0
  8 10  2  0
  8 11  1  0
 11 12  2  0
 12 13  1  0
 13 14  2  0
 14 15  1  0
 15 16  2  0
 15 17  1  0
 17 18  2  0
 18 19  1  0
 19 20  1  0
 20 21  1  0
 20 22  2  0
 22 23  1  0
 23 24  1  0
 24 25  2  0
 24 26  1  0
 22 27  1  0
 14 28  1  0
 28 29  2  0
  7 30  1  0
 30 31  1  0
 31 32  1  0
  6  1  1  0
 29 11  1  0
 32  4  1  0
 27 18  1  0
M  CHG  2  19  -1  21  -1
M  END
>  <UniqueID>  (107) 
7

>  <SMILES>  (107) 
NC(=O)Cc1s/c(=N/C(=O)c2ccc(S(=O)(=O)N3CCCc4ccccc43)cc2)[n-]c1[O-]

>  <Energy>  (107) 
90.60205501203048

>  <Genealogy>  (107) 
NC(=O)Cc1sc(=NC(=O)c2ccc(S(=O)(=O)N3CCCc4ccccc43)cc2)[n-]c1[O-] (protonated)
NC(=O)Cc1s/c(=N/C(=O)c2ccc(S(=O)(=O)N3CCCc4ccccc43)cc2)[n-]c1[O-] (cis-trans isomerization)
NC(=O)Cc1s/c(=N/C(=O)c2ccc(S(=O)(=O)N3CCCc4ccccc43)cc2)[n-]c1[O-] (3D coordinates assigned)
NC(=O)Cc1s/c(=N/C(=O)c2ccc(S(=O)(=O)N3CCCc4ccccc43)cc2)[n-]c1[O-] (nonaromatic ring conformer: 90.60205501203048 kcal/mol)

>  <smiles>  (107) 
NC(=O)Cc1sc(=NC(=O)c2ccc(S(=O)(=O)N3CCCc4ccccc43)cc2)[nH]c1O

>  <score_type>  (107) 
oracle

>  <origin>  (107) 
adg

>  <m_score__min__energy>  (107) 
-15.279999999999999

>  <m_primary>  (107) 
energy

$$$$
28:0
     RDKit          3D

 23 24  0  0  0  0  0  0  0  0999 V2000
   63.7550   31.9590   48.3600 N   0  0  0  0  0  0  0  0  0  0  0  0
   62.9070   33.3840   47.8720 S   0  0  0  0  0  0  0  0  0  0  0  0
   62.7910   34.3050   49.0560 O   0  0  0  0  0  0  0  0  0  0  0  0
   63.6730   34.0720   46.7780 O   0  0  0  0  0  0  0  0  0  0  0  0
   61.3040   32.9560   47.2840 C   0  0  0  0  0  0  0  0  0  0  0  0
   60.7110   31.7460   47.6610 C   0  0  0  0  0  0  0  0  0  0  0  0
   59.4350   31.4110   47.1980 C   0  0  0  0  0  0  0  0  0  0  0  0
   58.7250   32.2950   46.3650 C   0  0  0  0  0  0  0  0  0  0  0  0
   57.4180   31.9730   45.8570 N   0  0  0  0  0  0  0  0  0  0  0  0
   57.1050   31.0920   44.7680 C   0  0  0  0  0  0  0  0  0  0  0  0
   55.9110   30.7730   44.5230 O   0  0  0  0  0  0  0  0  0  0  0  0
   58.1760   30.5200   43.9330 C   0  0  0  0  0  0  0  0  0  0  0  0
   58.7530   29.3260   44.1280 C   0  0  0  0  0  0  0  0  0  0  0  0
   58.2330   28.2600   45.0100 C   0  0  0  0  0  0  0  0  0  0  0  0
   59.1100   27.6100   45.8920 C   0  0  0  0  0  0  0  0  0  0  0  0
   58.6270   26.6450   46.7820 C   0  0  0  0  0  0  0  0  0  0  0  0
   57.2640   26.3400   46.8150 C   0  0  0  0  0  0  0  0  0  0  0  0
   56.3780   27.0040   45.9600 C   0  0  0  0  0  0  0  0  0  0  0  0
   55.0210   26.7100   46.0010 O   0  0  0  0  0  0  0  0  0  0  0  0
   56.8590   27.9650   45.0620 C   0  0  0  0  0  0  0  0  0  0  0  0
   59.3350   33.4980   45.9680 C   0  0  0  0  0  0  0  0  0  0  0  0
   58.5170   34.6090   44.8810 Cl  0  0  0  0  0  0  0  0  0  0  0  0
   60.6120   33.8280   46.4360 C   0  0  0  0  0  0  0  0  0  0  0  0
  1  2  1  0
  2  3  2  0
  2  4  2  0
  2  5  1  0
  5  6  2  0
  6  7  1  0
  7  8  2  0
  8  9  1  0
  9 10  1  0
 10 11  2  0
 10 12  1  0
 12 13  2  3
 13 14  1  0
 14 15  2  0
 15 16  1  0
 16 17  2  0
 17 18  1  0
 18 19  1  0
 18 20  2  0
  8 21  1  0
 21 22  1  0
 21 23  2  0
 23  5  1  0
 20 14  1  0
M  CHG  3   1  -1   9  -1  19  -1
M  END
>  <UniqueID>  (108) 
26

>  <SMILES>  (108) 
[NH-]S(=O)(=O)c1ccc([N-]C(=O)C=Cc2cccc([O-])c2)c(Cl)c1

>  <Energy>  (108) 
44.11574582373333

>  <Genealogy>  (108) 
[NH-]S(=O)(=O)c1ccc([N-]C(=O)C=Cc2cccc([O-])c2)c(Cl)c1 (protonated)
[NH-]S(=O)(=O)c1ccc([N-]C(=O)C=Cc2cccc([O-])c2)c(Cl)c1 (3D coordinates assigned)
[NH-]S(=O)(=O)c1ccc([N-]C(=O)C=Cc2cccc([O-])c2)c(Cl)c1 (optimized conformer: 44.11574582373333 kcal/mol)

>  <smiles>  (108) 
NS(=O)(=O)c1ccc(NC(=O)C=Cc2cccc(O)c2)c(Cl)c1

>  <score_type>  (108) 
oracle

>  <origin>  (108) 
adg

>  <m_score__min__energy>  (108) 
-14.380000000000001

>  <m_primary>  (108) 
energy

$$$$
6:0
     RDKit          3D

 28 30  0  0  0  0  0  0  0  0999 V2000
   54.7690   26.3340   46.0220 N   0  0  0  0  0  0  0  0  0  0  0  0
   56.3360   25.6450   46.2590 S   0  0  0  0  0  0  0  0  0  0  0  0
   56.6520   24.7120   45.1230 O   0  0  0  0  0  0  0  0  0  0  0  0
   56.3540   24.8640   47.5440 O   0  0  0  0  0  0  0  0  0  0  0  0
   57.5350   26.9320   46.3280 C   0  0  0  0  0  0  0  0  0  0  0  0
   58.5980   26.8510   47.2370 C   0  0  0  0  0  0  0  0  0  0  0  0
   59.5330   27.8860   47.3150 C   0  0  0  0  0  0  0  0  0  0  0  0
   59.4160   29.0020   46.4830 C   0  0  0  0  0  0  0  0  0  0  0  0
   58.3690   29.0880   45.5560 C   0  0  0  0  0  0  0  0  0  0  0  0
   58.2720   30.2620   44.7360 N   0  0  0  0  0  0  0  0  0  0  0  0
   57.5000   31.4390   45.0150 C   0  0  0  0  0  0  0  0  0  0  0  0
   56.2490   31.4130   44.8640 O   0  0  0  0  0  0  0  0  0  0  0  0
   58.1870   32.6920   45.4380 C   0  0  0  0  0  0  0  0  0  0  0  0
   58.5150   33.6540   44.4590 C   0  0  0  0  0  0  0  0  0  0  0  0
   59.1650   34.8370   44.8070 C   0  0  0  0  0  0  0  0  0  0  0  0
   59.5010   35.0850   46.1350 C   0  0  0  0  0  0  0  0  0  0  0  0
   59.1860   34.1520   47.1230 C   0  0  0  0  0  0  0  0  0  0  0  0
   58.5280   32.9510   46.7930 C   0  0  0  0  0  0  0  0  0  0  0  0
   58.1920   31.9970   47.8130 N   0  0  0  0  0  0  0  0  0  0  0  0
   59.2020   31.5290   49.1410 S   0  0  0  0  0  0  0  0  0  0  0  0
   59.0750   30.0490   49.3700 O   0  0  0  0  0  0  0  0  0  0  0  0
   58.8060   32.2770   50.3840 O   0  0  0  0  0  0  0  0  0  0  0  0
   60.8650   31.9120   48.7450 C   0  0  0  0  0  0  0  0  0  0  0  0
   61.6600   32.8330   49.4080 C   0  0  0  0  0  0  0  0  0  0  0  0
   62.9500   32.9240   48.8720 C   0  0  0  0  0  0  0  0  0  0  0  0
   63.1660   32.0790   47.7910 C   0  0  0  0  0  0  0  0  0  0  0  0
   61.7520   31.2130   47.5020 S   0  0  0  0  0  0  0  0  0  0  0  0
   57.4130   28.0570   45.5000 C   0  0  0  0  0  0  0  0  0  0  0  0
  1  2  1  0
  2  3  2  0
  2  4  2  0
  2  5  1  0
  5  6  2  0
  6  7  1  0
  7  8  2  0
  8  9  1  0
  9 10  1  0
 10 11  1  0
 11 12  2  0
 11 13  1  0
 13 14  2  0
 14 15  1  0
 15 16  2  0
 16 17  1  0
 17 18  2  0
 18 19  1  0
 19 20  1  0
 20 21  2  0
 20 22  2  0
 20 23  1  0
 23 24  2  0
 24 25  1  0
 25 26  2  0
 26 27  1  0
  9 28  2  0
 28  5  1  0
 18 13  1  0
 27 23  1  0
M  CHG  3   1  -1  10  -1  19  -1
M  END
>  <UniqueID>  (109) 
6

>  <SMILES>  (109) 
[NH-]S(=O)(=O)c1cccc([N-]C(=O)c2ccccc2[N-]S(=O)(=O)c2cccs2)c1

>  <Energy>  (109) 
79.28327661483671

>  <Genealogy>  (109) 
[NH-]S(=O)(=O)c1cccc([N-]C(=O)c2ccccc2[N-]S(=O)(=O)c2cccs2)c1 (protonated)
[NH-]S(=O)(=O)c1cccc([N-]C(=O)c2ccccc2[N-]S(=O)(=O)c2cccs2)c1 (3D coordinates assigned)
[NH-]S(=O)(=O)c1cccc([N-]C(=O)c2ccccc2[N-]S(=O)(=O)c2cccs2)c1 (optimized conformer: 79.28327661483671 kcal/mol)

>  <smiles>  (109) 
NS(=O)(=O)c1cccc(NC(=O)c2ccccc2NS(=O)(=O)c2cccs2)c1

>  <score_type>  (109) 
oracle

>  <origin>  (109) 
adg

>  <m_score__min__energy>  (109) 
-14.35

>  <m_primary>  (109) 
energy

$$$$
86:0
     RDKit          3D

 32 35  0  0  0  0  0  0  0  0999 V2000
   57.9780   32.6670   42.9030 C   0  0  0  0  0  0  0  0  0  0  0  0
   57.4670   31.6370   42.1090 C   0  0  0  0  0  0  0  0  0  0  0  0
   56.7950   30.5640   42.7020 C   0  0  0  0  0  0  0  0  0  0  0  0
   56.6510   30.5040   44.0990 C   0  0  0  0  0  0  0  0  0  0  0  0
   55.9500   29.4230   44.7340 N   0  0  0  0  0  0  0  0  0  0  0  0
   56.4890   28.4890   45.4630 C   0  0  0  0  0  0  0  0  0  0  0  0
   55.8200   27.3240   45.6460 N   0  0  0  0  0  0  0  0  0  0  0  0
   56.3340   26.3500   46.4450 C   0  0  0  0  0  0  0  0  0  0  0  0
   55.7000   25.2300   46.6270 N   0  0  0  0  0  0  0  0  0  0  0  0
   56.3350   23.9170   46.7220 C   0  0  0  0  0  0  0  0  0  0  0  0
   56.4600   23.2880   45.3600 C   0  0  0  0  0  0  0  0  0  0  0  0
   57.4190   22.2870   45.1330 C   0  0  0  0  0  0  0  0  0  0  0  0
   57.5220   21.6830   43.8770 C   0  0  0  0  0  0  0  0  0  0  0  0
   56.6700   22.0710   42.8390 C   0  0  0  0  0  0  0  0  0  0  0  0
   55.7120   23.0650   43.0580 C   0  0  0  0  0  0  0  0  0  0  0  0
   55.6050   23.6720   44.3130 C   0  0  0  0  0  0  0  0  0  0  0  0
   57.5210   26.5540   47.0700 N   0  0  0  0  0  0  0  0  0  0  0  0
   58.2010   27.7140   46.8940 C   0  0  0  0  0  0  0  0  0  0  0  0
   59.3140   27.9020   47.5410 N   0  0  0  0  0  0  0  0  0  0  0  0
   59.6320   29.0500   48.3440 C   0  0  0  0  0  0  0  0  0  0  0  0
   60.7770   29.8240   48.0910 C   0  0  0  0  0  0  0  0  0  0  0  0
   61.0680   30.9320   48.8900 C   0  0  0  0  0  0  0  0  0  0  0  0
   60.2340   31.2600   49.9610 C   0  0  0  0  0  0  0  0  0  0  0  0
   59.1140   30.4690   50.2500 C   0  0  0  0  0  0  0  0  0  0  0  0
   58.0640   30.8850   51.6010 S   0  0  0  0  0  0  0  0  0  0  0  0
   57.0820   29.7740   51.8460 O   0  0  0  0  0  0  0  0  0  0  0  0
   58.8890   31.0800   52.8420 O   0  0  0  0  0  0  0  0  0  0  0  0
   57.2130   32.3450   51.2380 N   0  0  0  0  0  0  0  0  0  0  0  0
   58.8200   29.3620   49.4420 C   0  0  0  0  0  0  0  0  0  0  0  0
   57.6790   28.6820   46.0940 N   0  0  0  0  0  0  0  0  0  0  0  0
   57.1370   31.5560   44.8870 C   0  0  0  0  0  0  0  0  0  0  0  0
   57.8070   32.6300   44.2910 C   0  0  0  0  0  0  0  0  0  0  0  0
  1  2  2  0
  2  3  1  0
  3  4  2  0
  4  5  1  0
  5  6  2  3
  6  7  1  0
  7  8  1  0
  8  9  2  3
  9 10  1  0
 10 11  1  0
 11 12  2  0
 12 13  1  0
 13 14  2  0
 14 15  1  0
 15 16  2  0
  8 17  1  0
 17 18  1  0
 18 19  2  0
 19 20  1  0
 20 21  2  0
 21 22  1  0
 22 23  2  0
 23 24  1  0
 24 25  1  0
 25 26  2  0
 25 27  2  0
 25 28  1  0
 24 29  2  0
 18 30  1  0
  4 31  1  0
 31 32  2  0
 32  1  1  0
 30  6  1  0
 16 11  1  0
 29 20  1  0
M  CHG  3   7  -1  17  -1  30  -1
M  END
>  <UniqueID>  (110) 
76

>  <SMILES>  (110) 
NS(=O)(=O)c1cccc(/N=c2/[n-]c(=NCc3ccccc3)[n-]c(=Nc3ccccc3)[n-]2)c1

>  <Energy>  (110) 
64.64021683507713

>  <Genealogy>  (110) 
NS(=O)(=O)c1cccc(N=c2[n-]c(=NCc3ccccc3)[n-]c(=Nc3ccccc3)[n-]2)c1 (protonated)
NS(=O)(=O)c1cccc(/N=c2/[n-]c(=NCc3ccccc3)[n-]c(=Nc3ccccc3)[n-]2)c1 (cis-trans isomerization)
NS(=O)(=O)c1cccc(/N=c2/[n-]c(=NCc3ccccc3)[n-]c(=Nc3ccccc3)[n-]2)c1 (3D coordinates assigned)
NS(=O)(=O)c1cccc(/N=c2/[n-]c(=NCc3ccccc3)[n-]c(=Nc3ccccc3)[n-]2)c1 (optimized conformer: 64.64021683507713 kcal/mol)

>  <smiles>  (110) 
NS(=O)(=O)c1cccc(N=c2[nH]c(=NCc3ccccc3)[nH]c(=Nc3ccccc3)[nH]2)c1

>  <score_type>  (110) 
oracle

>  <origin>  (110) 
adg

>  <m_score__min__energy>  (110) 
-14.73

>  <m_primary>  (110) 
energy

$$$$
4:0
     RDKit          3D

 27 29  0  0  0  0  0  0  0  0999 V2000
   55.1480   29.2050   44.8400 N   0  0  0  0  0  0  0  0  0  0  0  0
   56.4850   29.6690   45.0230 C   0  0  0  0  0  0  0  0  0  0  0  0
   56.7900   30.8300   44.6340 O   0  0  0  0  0  0  0  0  0  0  0  0
   57.5090   28.7950   45.6430 C   0  0  0  0  0  0  0  0  0  0  0  0
   57.4830   27.4030   45.4380 C   0  0  0  0  0  0  0  0  0  0  0  0
   58.4540   26.5850   46.0180 C   0  0  0  0  0  0  0  0  0  0  0  0
   59.4510   27.1390   46.8230 C   0  0  0  0  0  0  0  0  0  0  0  0
   59.4790   28.5170   47.0670 C   0  0  0  0  0  0  0  0  0  0  0  0
   60.5130   29.0500   47.9080 N   0  0  0  0  0  0  0  0  0  0  0  0
   60.9110   30.4240   47.9740 C   0  0  0  0  0  0  0  0  0  0  0  0
   61.7440   30.8650   47.1360 O   0  0  0  0  0  0  0  0  0  0  0  0
   60.4030   31.2780   49.0010 N   0  0  0  0  0  0  0  0  0  0  0  0
   59.0620   31.8410   48.9940 C   0  0  0  0  0  0  0  0  0  0  0  0
   58.9550   32.8360   47.8650 C   0  0  0  0  0  0  0  0  0  0  0  0
   58.1430   32.5170   46.7620 C   0  0  0  0  0  0  0  0  0  0  0  0
   58.0570   33.3800   45.6680 C   0  0  0  0  0  0  0  0  0  0  0  0
   58.7890   34.5660   45.6540 C   0  0  0  0  0  0  0  0  0  0  0  0
   59.6140   34.8920   46.7310 C   0  0  0  0  0  0  0  0  0  0  0  0
   59.7190   34.0350   47.8410 C   0  0  0  0  0  0  0  0  0  0  0  0
   60.6170   34.4410   48.9920 C   0  0  0  0  0  0  0  0  0  0  0  0
   62.0410   34.4130   48.5920 N   0  0  0  0  0  0  0  0  0  0  0  0
   62.9100   33.9380   49.6950 C   0  0  0  0  0  0  0  0  0  0  0  0
   63.3730   32.4840   49.4810 C   0  0  0  0  0  0  0  0  0  0  0  0
   64.0950   32.2890   48.2720 O   0  0  0  0  0  0  0  0  0  0  0  0
   63.6920   33.1560   47.2200 C   0  0  0  0  0  0  0  0  0  0  0  0
   62.2390   33.6440   47.3400 C   0  0  0  0  0  0  0  0  0  0  0  0
   58.5240   29.3450   46.4480 C   0  0  0  0  0  0  0  0  0  0  0  0
  1  2  1  0
  2  3  2  0
  2  4  1  0
  4  5  2  0
  5  6  1  0
  6  7  2  0
  7  8  1  0
  8  9  1  0
  9 10  1  0
 10 11  2  0
 10 12  1  0
 12 13  1  0
 13 14  1  0
 14 15  2  0
 15 16  1  0
 16 17  2  0
 17 18  1  0
 18 19  2  0
 19 20  1  0
 20 21  1  0
 21 22  1  0
 22 23  1  0
 23 24  1  0
 24 25  1  0
 25 26  1  0
  8 27  2  0
 27  4  1  0
 19 14  1  0
 26 21  1  0
M  CHG  3   1  -1   9  -1  12  -1
M  END
>  <UniqueID>  (111) 
4

>  <SMILES>  (111) 
[NH-]C(=O)c1cccc([N-]C(=O)[N-]Cc2ccccc2CN2CCOCC2)c1

>  <Energy>  (111) 
64.00678985130806

>  <Genealogy>  (111) 
[NH-]C(=O)c1cccc([N-]C(=O)[N-]Cc2ccccc2CN2CCOCC2)c1 (protonated)
[NH-]C(=O)c1cccc([N-]C(=O)[N-]Cc2ccccc2CN2CCOCC2)c1 (3D coordinates assigned)
[NH-]C(=O)c1cccc([N-]C(=O)[N-]Cc2ccccc2CN2CCOCC2)c1 (nonaromatic ring conformer: 64.00678985130806 kcal/mol)

>  <smiles>  (111) 
NC(=O)c1cccc(NC(=O)NCc2ccccc2CN2CCOCC2)c1

>  <score_type>  (111) 
oracle

>  <origin>  (111) 
adg

>  <m_score__min__energy>  (111) 
-14.06

>  <m_primary>  (111) 
energy

$$$$
46:0
     RDKit          3D

 30 34  0  0  0  0  0  0  0  0999 V2000
   54.9980   26.6960   45.9900 O   0  0  0  0  0  0  0  0  0  0  0  0
   56.0630   25.8640   46.3270 C   0  0  0  0  0  0  0  0  0  0  0  0
   55.9470   24.8250   47.1710 N   0  0  0  0  0  0  0  0  0  0  0  0
   57.2120   24.3590   47.2470 C   0  0  0  0  0  0  0  0  0  0  0  0
   57.5290   23.3710   47.9590 O   0  0  0  0  0  0  0  0  0  0  0  0
   58.1120   25.0390   46.5050 N   0  0  0  0  0  0  0  0  0  0  0  0
   57.3700   25.9830   45.9010 C   0  0  0  0  0  0  0  0  0  0  0  0
   57.9370   27.0190   45.0250 C   0  0  0  0  0  0  0  0  0  0  0  0
   57.6520   28.3250   45.1270 C   0  0  0  0  0  0  0  0  0  0  0  0
   56.5750   28.9780   44.5340 C   0  0  0  0  0  0  0  0  0  0  0  0
   56.5850   30.2890   44.8750 N   0  0  0  0  0  0  0  0  0  0  0  0
   57.6280   30.4770   45.6690 N   0  0  0  0  0  0  0  0  0  0  0  0
   58.0430   31.6230   46.2830 C   0  0  0  0  0  0  0  0  0  0  0  0
   57.4460   32.7720   46.1310 N   0  0  0  0  0  0  0  0  0  0  0  0
   58.0150   33.9750   45.5320 C   0  0  0  0  0  0  0  0  0  0  0  0
   59.5070   33.8850   45.2660 C   0  0  0  0  0  0  0  0  0  0  0  0
   58.9900   34.6770   46.4590 C   0  0  0  0  0  0  0  0  0  0  0  0
   59.1380   31.5520   47.0870 N   0  0  0  0  0  0  0  0  0  0  0  0
   59.7930   30.3650   47.2880 C   0  0  0  0  0  0  0  0  0  0  0  0
   60.8490   30.2980   48.0440 N   0  0  0  0  0  0  0  0  0  0  0  0
   61.8290   31.3310   48.2510 C   0  0  0  0  0  0  0  0  0  0  0  0
   62.6980   31.6500   47.2020 C   0  0  0  0  0  0  0  0  0  0  0  0
   63.6810   32.6280   47.3700 C   0  0  0  0  0  0  0  0  0  0  0  0
   63.8150   33.2820   48.5960 C   0  0  0  0  0  0  0  0  0  0  0  0
   62.9800   32.9560   49.6700 C   0  0  0  0  0  0  0  0  0  0  0  0
   63.1660   33.6290   50.8870 O   0  0  0  0  0  0  0  0  0  0  0  0
   62.5250   33.2760   52.1090 C   0  0  0  0  0  0  0  0  0  0  0  0
   61.9910   31.9660   49.4970 C   0  0  0  0  0  0  0  0  0  0  0  0
   59.3610   29.2390   46.6560 N   0  0  0  0  0  0  0  0  0  0  0  0
   58.2820   29.3250   45.8430 C   0  0  0  0  0  0  0  0  0  0  0  0
  1  2  1  0
  2  3  1  0
  3  4  1  0
  4  5  2  0
  4  6  1  0
  6  7  1  0
  7  8  1  0
  8  9  2  3
  9 10  1  0
 10 11  2  0
 11 12  1  0
 12 13  1  0
 13 14  2  0
 14 15  1  0
 15 16  1  0
 16 17  1  0
 13 18  1  0
 18 19  1  0
 19 20  2  3
 20 21  1  0
 21 22  2  0
 22 23  1  0
 23 24  2  0
 24 25  1  0
 25 26  1  0
 26 27  1  0
 25 28  2  0
 19 29  1  0
 29 30  2  0
  7  2  2  0
 30  9  1  0
 30 12  1  0
 17 15  1  0
 28 21  1  0
M  CHG  3   3  -1   6  -1  18  -1
M  END
>  <UniqueID>  (112) 
43

>  <SMILES>  (112) 
COc1cccc(N=c2nc3c(=Cc4[n-]c(=O)[n-]c4O)cnn3/c(=N\C3CC3)[n-]2)c1

>  <Energy>  (112) 
397.27291700520254

>  <Genealogy>  (112) 
COc1cccc(N=c2nc3c(=Cc4[n-]c(=O)[n-]c4O)cnn3c(=NC3CC3)[n-]2)c1 (protonated)
COc1cccc(N=c2nc3c(=Cc4[n-]c(=O)[n-]c4O)cnn3/c(=N\C3CC3)[n-]2)c1 (cis-trans isomerization)
COc1cccc(N=c2nc3c(=Cc4[n-]c(=O)[n-]c4O)cnn3/c(=N\C3CC3)[n-]2)c1 (3D coordinates assigned)
COc1cccc(N=c2nc3c(=Cc4[n-]c(=O)[n-]c4O)cnn3/c(=N\C3CC3)[n-]2)c1 (nonaromatic ring conformer: 397.27291700520254 kcal/mol)

>  <smiles>  (112) 
COc1cccc(N=c2nc3c(=Cc4[nH]c(=O)[nH]c4O)cnn3c(=NC3CC3)[nH]2)c1

>  <score_type>  (112) 
oracle

>  <origin>  (112) 
adg

>  <m_score__min__energy>  (112) 
-14.73

>  <m_primary>  (112) 
energy

$$$$
65:0
     RDKit          3D

 32 35  0  0  0  0  0  0  0  0999 V2000
   60.9700   32.4520   51.2790 O   0  0  0  0  0  0  0  0  0  0  0  0
   61.4860   31.5440   50.5710 C   0  0  0  0  0  0  0  0  0  0  0  0
   62.8530   31.0820   50.8770 C   0  0  0  0  0  0  0  0  0  0  0  0
   63.0330   29.7460   51.2690 C   0  0  0  0  0  0  0  0  0  0  0  0
   64.3050   29.2700   51.5960 C   0  0  0  0  0  0  0  0  0  0  0  0
   65.4080   30.1200   51.5290 C   0  0  0  0  0  0  0  0  0  0  0  0
   65.2470   31.4460   51.1230 C   0  0  0  0  0  0  0  0  0  0  0  0
   63.9780   31.9410   50.7720 C   0  0  0  0  0  0  0  0  0  0  0  0
   63.8640   33.3710   50.2840 C   0  0  0  0  0  0  0  0  0  0  0  0
   63.6370   33.4280   48.8750 O   0  0  0  0  0  0  0  0  0  0  0  0
   62.4160   33.7490   48.2630 C   0  0  0  0  0  0  0  0  0  0  0  0
   62.2950   33.5440   46.8820 C   0  0  0  0  0  0  0  0  0  0  0  0
   61.1060   33.8570   46.2200 C   0  0  0  0  0  0  0  0  0  0  0  0
   60.0220   34.3760   46.9340 C   0  0  0  0  0  0  0  0  0  0  0  0
   60.1290   34.5790   48.3120 C   0  0  0  0  0  0  0  0  0  0  0  0
   61.3170   34.2670   48.9780 C   0  0  0  0  0  0  0  0  0  0  0  0
   60.7440   30.9810   49.4760 N   0  0  0  0  0  0  0  0  0  0  0  0
   61.4330   30.6020   48.2370 C   0  0  0  0  0  0  0  0  0  0  0  0
   60.4400   30.4960   47.0700 C   0  0  0  0  0  0  0  0  0  0  0  0
   59.2680   29.6290   47.3730 N   0  0  0  0  0  0  0  0  0  0  0  0
   59.5200   28.2660   46.9420 C   0  0  0  0  0  0  0  0  0  0  0  0
   60.5440   27.6920   47.2950 O   0  0  0  0  0  0  0  0  0  0  0  0
   58.5290   27.5650   46.0410 C   0  0  0  0  0  0  0  0  0  0  0  0
   57.5040   28.5010   45.4710 C   0  0  0  0  0  0  0  0  0  0  0  0
   57.7600   29.7680   45.1000 N   0  0  0  0  0  0  0  0  0  0  0  0
   56.5490   30.2290   44.7190 C   0  0  0  0  0  0  0  0  0  0  0  0
   56.3740   31.4000   44.2930 O   0  0  0  0  0  0  0  0  0  0  0  0
   55.5380   29.3400   44.8370 N   0  0  0  0  0  0  0  0  0  0  0  0
   56.1610   28.2530   45.3210 C   0  0  0  0  0  0  0  0  0  0  0  0
   55.5140   27.0610   45.6210 O   0  0  0  0  0  0  0  0  0  0  0  0
   58.8220   29.6490   48.7940 C   0  0  0  0  0  0  0  0  0  0  0  0
   59.2830   30.9030   49.5400 C   0  0  0  0  0  0  0  0  0  0  0  0
  1  2  2  0
  2  3  1  0
  3  4  2  0
  4  5  1  0
  5  6  2  0
  6  7  1  0
  7  8  2  0
  8  9  1  0
  9 10  1  0
 10 11  1  0
 11 12  2  0
 12 13  1  0
 13 14  2  0
 14 15  1  0
 15 16  2  0
  2 17  1  0
 17 18  1  0
 18 19  1  0
 19 20  1  0
 20 21  1  0
 21 22  2  0
 21 23  1  0
 23 24  1  0
 24 25  1  0
 25 26  1  0
 26 27  2  0
 26 28  1  0
 28 29  1  0
 29 30  1  0
 20 31  1  0
 31 32  1  0
  8  3  1  0
 16 11  1  0
 32 17  1  0
 29 24  2  0
M  CHG  4  20   1  25  -1  28  -1  30  -1
M  END
>  <UniqueID>  (113) 
61

>  <SMILES>  (113) 
O=C(c1ccccc1COc1ccccc1)N1CC[NH+](C(=O)Cc2[n-]c(=O)[n-]c2[O-])CC1

>  <Energy>  (113) 
100.67576296351041

>  <Genealogy>  (113) 
O=C(c1ccccc1COc1ccccc1)N1CC[NH+](C(=O)Cc2[n-]c(=O)[n-]c2[O-])CC1 (protonated)
O=C(c1ccccc1COc1ccccc1)N1CC[NH+](C(=O)Cc2[n-]c(=O)[n-]c2[O-])CC1 (3D coordinates assigned)
O=C(c1ccccc1COc1ccccc1)N1CC[NH+](C(=O)Cc2[n-]c(=O)[n-]c2[O-])CC1 (nonaromatic ring conformer: 100.67576296351041 kcal/mol)

>  <smiles>  (113) 
O=C(Cc1[nH]c(=O)[nH]c1O)N1CCN(C(=O)c2ccccc2COc2ccccc2)CC1

>  <score_type>  (113) 
oracle

>  <origin>  (113) 
adg

>  <m_score__min__energy>  (113) 
-16.629999999999999

>  <m_primary>  (113) 
energy

$$$$
90:0
     RDKit          3D

 28 30  0  0  0  0  0  0  0  0999 V2000
   61.2090   34.1400   46.8730 C   0  0  0  0  0  0  0  0  0  0  0  0
   59.7130   34.7400   46.1190 S   0  0  0  0  0  0  0  0  0  0  0  0
   59.8820   36.1660   45.6790 O   0  0  0  0  0  0  0  0  0  0  0  0
   58.6040   34.6760   47.1310 O   0  0  0  0  0  0  0  0  0  0  0  0
   59.2870   33.7470   44.7630 N   0  0  0  0  0  0  0  0  0  0  0  0
   58.5170   32.5380   44.8140 C   0  0  0  0  0  0  0  0  0  0  0  0
   58.5310   31.6870   45.9350 C   0  0  0  0  0  0  0  0  0  0  0  0
   57.7660   30.5170   45.9420 C   0  0  0  0  0  0  0  0  0  0  0  0
   56.9750   30.1800   44.8340 C   0  0  0  0  0  0  0  0  0  0  0  0
   56.1690   28.9090   44.8250 C   0  0  0  0  0  0  0  0  0  0  0  0
   56.9170   27.8310   45.4610 N   0  0  0  0  0  0  0  0  0  0  0  0
   56.3050   26.7690   46.2020 C   0  0  0  0  0  0  0  0  0  0  0  0
   55.1280   26.4060   45.9410 O   0  0  0  0  0  0  0  0  0  0  0  0
   57.0260   26.1080   47.2430 N   0  0  0  0  0  0  0  0  0  0  0  0
   58.0330   25.0840   46.9800 C   0  0  1  0  0  0  0  0  0  0  0  0
   57.4080   23.8140   46.4150 C   0  0  0  0  0  0  0  0  0  0  0  0
   58.1450   24.0450   45.0930 C   0  0  1  0  0  0  0  0  0  0  0  0
   57.2180   24.3070   43.8930 C   0  0  0  0  0  0  0  0  0  0  0  0
   56.4330   23.0470   43.5130 C   0  0  0  0  0  0  0  0  0  0  0  0
   55.1280   23.0020   44.2460 C   0  0  0  0  0  0  0  0  0  0  0  0
   54.0000   23.7490   43.9910 C   0  0  0  0  0  0  0  0  0  0  0  0
   53.0190   23.3520   44.8230 N   0  0  0  0  0  0  0  0  0  0  0  0
   53.4830   22.3740   45.5880 N   0  0  0  0  0  0  0  0  0  0  0  0
   54.7640   22.1360   45.2520 C   0  0  0  0  0  0  0  0  0  0  0  0
   58.7680   25.3180   45.6630 C   0  0  0  0  0  0  0  0  0  0  0  0
   56.9670   31.0230   43.7140 C   0  0  0  0  0  0  0  0  0  0  0  0
   57.7310   32.1930   43.7050 C   0  0  0  0  0  0  0  0  0  0  0  0
   57.7090   32.9970   42.6110 F   0  0  0  0  0  0  0  0  0  0  0  0
  1  2  1  0
  2  3  2  0
  2  4  2  0
  2  5  1  0
  5  6  1  0
  6  7  2  0
  7  8  1  0
  8  9  2  0
  9 10  1  0
 10 11  1  0
 11 12  1  0
 12 13  2  0
 12 14  1  0
 15 14  1  6
 15 16  1  0
 16 17  1  0
 17 18  1  6
 18 19  1  0
 19 20  1  0
 20 21  1  0
 21 22  2  0
 22 23  1  0
 23 24  1  0
 17 25  1  0
  9 26  1  0
 26 27  2  0
 27 28  1  0
 27  6  1  0
 25 15  1  0
 24 20  2  0
M  CHG  4   5  -1  11  -1  14  -1  23  -1
M  END
>  <UniqueID>  (114) 
82

>  <SMILES>  (114) 
CS(=O)(=O)[N-]c1ccc(C[N-]C(=O)[N-]C2CC(CCc3cn[n-]c3)C2)cc1F

>  <Energy>  (114) 
128.38094800186124

>  <Genealogy>  (114) 
CS(=O)(=O)[N-]c1ccc(C[N-]C(=O)[N-]C2CC(CCc3cn[n-]c3)C2)cc1F (protonated)
CS(=O)(=O)[N-]c1ccc(C[N-]C(=O)[N-]C2CC(CCc3cn[n-]c3)C2)cc1F (3D coordinates assigned)
CS(=O)(=O)[N-]c1ccc(C[N-]C(=O)[N-]C2CC(CCc3cn[n-]c3)C2)cc1F (nonaromatic ring conformer: 128.38094800186124 kcal/mol)

>  <smiles>  (114) 
CS(=O)(=O)Nc1ccc(CNC(=O)NC2CC(CCc3cn[nH]c3)C2)cc1F

>  <score_type>  (114) 
oracle

>  <origin>  (114) 
adg

>  <m_score__min__energy>  (114) 
-14.35

>  <m_primary>  (114) 
energy

$$$$
42:0
     RDKit          3D

 32 35  0  0  0  0  0  0  0  0999 V2000
   56.6700   34.8250   44.8890 O   0  0  0  0  0  0  0  0  0  0  0  0
   57.6710   34.2080   45.6340 C   0  0  0  0  0  0  0  0  0  0  0  0
   57.3250   33.3010   46.6410 C   0  0  0  0  0  0  0  0  0  0  0  0
   58.3200   32.6750   47.3960 C   0  0  0  0  0  0  0  0  0  0  0  0
   59.6760   32.9560   47.1550 C   0  0  0  0  0  0  0  0  0  0  0  0
   60.7530   32.2450   47.9350 C   0  0  0  0  0  0  0  0  0  0  0  0
   61.2420   31.0000   47.1960 C   0  0  0  0  0  0  0  0  0  0  0  0
   60.3880   30.7330   46.0450 N   0  0  0  0  0  0  0  0  0  0  0  0
   60.0090   29.4150   45.6400 C   0  0  0  0  0  0  0  0  0  0  0  0
   60.8910   28.5850   45.2940 O   0  0  0  0  0  0  0  0  0  0  0  0
   58.5710   29.0620   45.5620 C   0  0  0  0  0  0  0  0  0  0  0  0
   57.6950   30.0110   45.0130 C   0  0  0  0  0  0  0  0  0  0  0  0
   56.3450   29.7070   44.8630 C   0  0  0  0  0  0  0  0  0  0  0  0
   55.5570   30.5540   44.3690 O   0  0  0  0  0  0  0  0  0  0  0  0
   55.8760   28.4940   45.2430 N   0  0  0  0  0  0  0  0  0  0  0  0
   56.6740   27.5320   45.7800 C   0  0  0  0  0  0  0  0  0  0  0  0
   56.1450   26.2730   46.1830 C   0  0  0  0  0  0  0  0  0  0  0  0
   54.9080   25.9010   45.9820 N   0  0  0  0  0  0  0  0  0  0  0  0
   54.4150   24.6640   45.4470 C   0  0  0  0  0  0  0  0  0  0  0  0
   53.1830   24.4200   45.5280 O   0  0  0  0  0  0  0  0  0  0  0  0
   55.3350   23.6420   44.8830 C   0  0  0  0  0  0  0  0  0  0  0  0
   55.7900   22.5790   45.6840 C   0  0  0  0  0  0  0  0  0  0  0  0
   56.6390   21.6040   45.1520 C   0  0  0  0  0  0  0  0  0  0  0  0
   57.0470   21.6820   43.8180 C   0  0  0  0  0  0  0  0  0  0  0  0
   56.6080   22.7370   43.0150 C   0  0  0  0  0  0  0  0  0  0  0  0
   55.7590   23.7140   43.5420 C   0  0  0  0  0  0  0  0  0  0  0  0
   56.9590   25.4010   46.8340 N   0  0  0  0  0  0  0  0  0  0  0  0
   58.2650   25.6620   47.0870 C   0  0  0  0  0  0  0  0  0  0  0  0
   58.8350   26.8610   46.6710 C   0  0  0  0  0  0  0  0  0  0  0  0
   58.0510   27.8110   45.9920 C   0  0  0  0  0  0  0  0  0  0  0  0
   60.0200   33.8590   46.1360 C   0  0  0  0  0  0  0  0  0  0  0  0
   59.0220   34.4850   45.3830 C   0  0  0  0  0  0  0  0  0  0  0  0
  1  2  1  0
  2  3  2  0
  3  4  1  0
  4  5  2  0
  5  6  1  0
  6  7  1  0
  7  8  1  0
  8  9  1  0
  9 10  2  0
  9 11  1  0
 11 12  2  0
 12 13  1  0
 13 14  2  0
 13 15  1  0
 15 16  1  0
 16 17  1  0
 17 18  2  0
 18 19  1  0
 19 20  2  0
 19 21  1  0
 21 22  2  0
 22 23  1  0
 23 24  2  0
 24 25  1  0
 25 26  2  0
 17 27  1  0
 27 28  1  0
 28 29  2  0
 29 30  1  0
  5 31  1  0
 31 32  2  0
 32  2  1  0
 30 11  1  0
 30 16  2  0
 26 21  1  0
M  CHG  3   8  -1  15  -1  27  -1
M  END
>  <UniqueID>  (115) 
39

>  <SMILES>  (115) 
O=C(/N=c1/[n-]ccc2c(C(=O)[N-]CCc3ccc(O)cc3)cc(=O)[n-]c12)c1ccccc1

>  <Energy>  (115) 
73.25227551075295

>  <Genealogy>  (115) 
O=C(N=c1[n-]ccc2c(C(=O)[N-]CCc3ccc(O)cc3)cc(=O)[n-]c12)c1ccccc1 (protonated)
O=C(/N=c1/[n-]ccc2c(C(=O)[N-]CCc3ccc(O)cc3)cc(=O)[n-]c12)c1ccccc1 (cis-trans isomerization)
O=C(/N=c1/[n-]ccc2c(C(=O)[N-]CCc3ccc(O)cc3)cc(=O)[n-]c12)c1ccccc1 (3D coordinates assigned)
O=C(/N=c1/[n-]ccc2c(C(=O)[N-]CCc3ccc(O)cc3)cc(=O)[n-]c12)c1ccccc1 (optimized conformer: 73.25227551075295 kcal/mol)

>  <smiles>  (115) 
O=C(N=c1[nH]ccc2c(C(=O)NCCc3ccc(O)cc3)cc(=O)[nH]c12)c1ccccc1

>  <score_type>  (115) 
oracle

>  <origin>  (115) 
adg

>  <m_score__min__energy>  (115) 
-14.18

>  <m_primary>  (115) 
energy

$$$$
0:0
     RDKit          3D

 30 34  0  0  0  0  0  0  0  0999 V2000
   59.4230   27.0290   47.0810 O   0  0  0  0  0  0  0  0  0  0  0  0
   58.1990   26.4810   46.7060 C   0  0  0  0  0  0  0  0  0  0  0  0
   57.5610   25.5450   47.4280 N   0  0  0  0  0  0  0  0  0  0  0  0
   56.4100   25.3710   46.7450 C   0  0  0  0  0  0  0  0  0  0  0  0
   55.5190   24.5620   47.1140 O   0  0  0  0  0  0  0  0  0  0  0  0
   56.2840   26.1390   45.6410 N   0  0  0  0  0  0  0  0  0  0  0  0
   57.4370   26.8280   45.6070 C   0  0  0  0  0  0  0  0  0  0  0  0
   57.7430   27.8330   44.5760 C   0  0  0  0  0  0  0  0  0  0  0  0
   57.4730   29.1380   44.7160 C   0  0  0  0  0  0  0  0  0  0  0  0
   56.4800   29.9060   44.0980 C   0  0  0  0  0  0  0  0  0  0  0  0
   56.5340   31.1820   44.5540 N   0  0  0  0  0  0  0  0  0  0  0  0
   57.5200   31.2290   45.4360 N   0  0  0  0  0  0  0  0  0  0  0  0
   57.9480   32.2920   46.1540 C   0  0  0  0  0  0  0  0  0  0  0  0
   57.3800   33.4540   46.0240 N   0  0  0  0  0  0  0  0  0  0  0  0
   57.9780   34.5570   45.2780 C   0  0  0  0  0  0  0  0  0  0  0  0
   59.3400   34.9770   45.8000 C   0  0  0  0  0  0  0  0  0  0  0  0
   59.2310   34.1510   44.5250 C   0  0  0  0  0  0  0  0  0  0  0  0
   58.9900   32.1070   47.0140 N   0  0  0  0  0  0  0  0  0  0  0  0
   59.5770   30.8760   47.1520 C   0  0  0  0  0  0  0  0  0  0  0  0
   60.5870   30.6990   47.9520 N   0  0  0  0  0  0  0  0  0  0  0  0
   61.7380   31.5510   48.0890 C   0  0  0  0  0  0  0  0  0  0  0  0
   62.6430   31.4200   49.1600 C   0  0  0  0  0  0  0  0  0  0  0  0
   63.7630   32.2550   49.2410 C   0  0  0  0  0  0  0  0  0  0  0  0
   64.6280   32.1290   50.2790 F   0  0  0  0  0  0  0  0  0  0  0  0
   64.0010   33.2070   48.2470 C   0  0  0  0  0  0  0  0  0  0  0  0
   63.1250   33.3200   47.1640 C   0  0  0  0  0  0  0  0  0  0  0  0
   63.3640   34.2340   46.1910 F   0  0  0  0  0  0  0  0  0  0  0  0
   62.0040   32.4880   47.0810 C   0  0  0  0  0  0  0  0  0  0  0  0
   59.1280   29.8230   46.4080 N   0  0  0  0  0  0  0  0  0  0  0  0
   58.0940   30.0310   45.5590 C   0  0  0  0  0  0  0  0  0  0  0  0
  1  2  1  0
  2  3  1  0
  3  4  1  0
  4  5  2  0
  4  6  1  0
  6  7  1  0
  7  8  1  0
  8  9  2  0
  9 10  1  0
 10 11  2  0
 11 12  1  0
 12 13  1  0
 13 14  2  3
 14 15  1  0
 15 16  1  0
 16 17  1  0
 13 18  1  0
 18 19  1  0
 19 20  2  0
 20 21  1  0
 21 22  2  0
 22 23  1  0
 23 24  1  0
 23 25  2  0
 25 26  1  0
 26 27  1  0
 26 28  2  0
 19 29  1  0
 29 30  2  0
  7  2  2  0
 30  9  1  0
 30 12  1  0
 17 15  1  0
 28 21  1  0
M  CHG  3   3  -1   6  -1  18  -1
M  END
>  <UniqueID>  (116) 
1

>  <SMILES>  (116) 
O=c1[n-]c(O)c(/C=c2\cnn3c(=NC4CC4)[n-]/c(=N\c4cc(F)cc(F)c4)nc23)[n-]1

>  <Energy>  (116) 
390.34710855484997

>  <Genealogy>  (116) 
O=c1[n-]c(O)c(C=c2cnn3c(=NC4CC4)[n-]c(=Nc4cc(F)cc(F)c4)nc23)[n-]1 (protonated)
O=c1[n-]c(O)c(/C=c2\cnn3c(=NC4CC4)[n-]/c(=N\c4cc(F)cc(F)c4)nc23)[n-]1 (cis-trans isomerization)
O=c1[n-]c(O)c(/C=c2\cnn3c(=NC4CC4)[n-]/c(=N\c4cc(F)cc(F)c4)nc23)[n-]1 (3D coordinates assigned)
O=c1[n-]c(O)c(/C=c2\cnn3c(=NC4CC4)[n-]/c(=N\c4cc(F)cc(F)c4)nc23)[n-]1 (nonaromatic ring conformer: 390.34710855484997 kcal/mol)

>  <smiles>  (116) 
O=c1[nH]c(O)c(C=c2cnn3c(=NC4CC4)[nH]c(=Nc4cc(F)cc(F)c4)nc23)[nH]1

>  <score_type>  (116) 
oracle

>  <origin>  (116) 
adg

>  <m_score__min__energy>  (116) 
-14.779999999999999

>  <m_primary>  (116) 
energy

$$$$
10:0
     RDKit          3D

 33 37  0  0  0  0  0  0  0  0999 V2000
   52.6320   31.2120   53.0040 C   0  0  0  0  0  0  0  0  0  0  0  0
   51.9350   31.2800   51.7080 C   0  0  0  0  0  0  0  0  0  0  0  0
   52.1750   30.4260   50.6970 N   0  0  0  0  0  0  0  0  0  0  0  0
   51.3930   30.8930   49.7000 C   0  0  0  0  0  0  0  0  0  0  0  0
   51.3330   30.3390   48.5710 O   0  0  0  0  0  0  0  0  0  0  0  0
   50.6900   32.0050   50.0030 N   0  0  0  0  0  0  0  0  0  0  0  0
   51.0530   32.2440   51.2730 C   0  0  0  0  0  0  0  0  0  0  0  0
   50.6240   33.3510   51.9960 O   0  0  0  0  0  0  0  0  0  0  0  0
   53.5550   30.2910   53.3110 C   0  0  0  0  0  0  0  0  0  0  0  0
   53.4500   29.1770   54.1530 C   0  0  0  0  0  0  0  0  0  0  0  0
   54.6200   28.4960   54.1310 N   0  0  0  0  0  0  0  0  0  0  0  0
   55.4440   29.1280   53.3120 N   0  0  0  0  0  0  0  0  0  0  0  0
   56.7140   28.8050   52.9680 C   0  0  0  0  0  0  0  0  0  0  0  0
   57.2900   27.7540   53.4690 N   0  0  0  0  0  0  0  0  0  0  0  0
   58.2520   27.8110   54.5660 C   0  0  0  0  0  0  0  0  0  0  0  0
   59.4500   28.6970   54.2800 C   0  0  0  0  0  0  0  0  0  0  0  0
   58.3400   29.1850   55.2000 C   0  0  0  0  0  0  0  0  0  0  0  0
   57.3630   29.6160   52.0830 N   0  0  0  0  0  0  0  0  0  0  0  0
   56.7470   30.7240   51.5650 C   0  0  0  0  0  0  0  0  0  0  0  0
   57.3900   31.4590   50.7060 N   0  0  0  0  0  0  0  0  0  0  0  0
   58.5550   32.2640   50.9650 C   0  0  0  0  0  0  0  0  0  0  0  0
   58.9150   32.6390   52.2730 C   0  0  0  0  0  0  0  0  0  0  0  0
   60.0680   33.3950   52.4990 C   0  0  0  0  0  0  0  0  0  0  0  0
   60.4030   33.7570   53.7630 F   0  0  0  0  0  0  0  0  0  0  0  0
   60.8810   33.7640   51.4290 C   0  0  0  0  0  0  0  0  0  0  0  0
   60.5530   33.3700   50.1290 C   0  0  0  0  0  0  0  0  0  0  0  0
   59.3910   32.6100   49.8880 C   0  0  0  0  0  0  0  0  0  0  0  0
   59.0310   32.1860   48.5980 O   0  0  0  0  0  0  0  0  0  0  0  0
   58.1640   32.8960   47.7180 C   0  0  0  0  0  0  0  0  0  0  0  0
   57.9370   32.1500   46.5760 F   0  0  0  0  0  0  0  0  0  0  0  0
   58.7610   34.0900   47.3640 F   0  0  0  0  0  0  0  0  0  0  0  0
   55.4590   31.0150   51.9220 N   0  0  0  0  0  0  0  0  0  0  0  0
   54.8350   30.2000   52.8020 C   0  0  0  0  0  0  0  0  0  0  0  0
  1  2  1  0
  2  3  1  0
  3  4  1  0
  4  5  2  0
  4  6  1  0
  6  7  1  0
  7  8  1  0
  1  9  2  0
  9 10  1  0
 10 11  2  0
 11 12  1  0
 12 13  1  0
 13 14  2  3
 14 15  1  0
 15 16  1  0
 16 17  1  0
 13 18  1  0
 18 19  1  0
 19 20  2  0
 20 21  1  0
 21 22  2  0
 22 23  1  0
 23 24  1  0
 23 25  2  0
 25 26  1  0
 26 27  2  0
 27 28  1  0
 28 29  1  0
 29 30  1  0
 29 31  1  0
 19 32  1  0
 32 33  2  0
  7  2  2  0
 33  9  1  0
 33 12  1  0
 17 15  1  0
 27 21  1  0
M  CHG  5   3  -1   6  -1   8  -1  11   1  18  -1
M  END
>  <UniqueID>  (117) 
11

>  <SMILES>  (117) 
O=c1[n-]c([O-])c(/C=c2\c[nH+]n3c(=NC4CC4)[n-]/c(=N/c4cc(F)ccc4OC(F)F)nc23)[n-]1

>  <Energy>  (117) 
395.55933215675816

>  <Genealogy>  (117) 
O=c1[n-]c([O-])c(C=c2c[nH+]n3c(=NC4CC4)[n-]c(=Nc4cc(F)ccc4OC(F)F)nc23)[n-]1 (protonated)
O=c1[n-]c([O-])c(/C=c2\c[nH+]n3c(=NC4CC4)[n-]/c(=N/c4cc(F)ccc4OC(F)F)nc23)[n-]1 (cis-trans isomerization)
O=c1[n-]c([O-])c(/C=c2\c[nH+]n3c(=NC4CC4)[n-]/c(=N/c4cc(F)ccc4OC(F)F)nc23)[n-]1 (3D coordinates assigned)
O=c1[n-]c([O-])c(/C=c2\c[nH+]n3c(=NC4CC4)[n-]/c(=N/c4cc(F)ccc4OC(F)F)nc23)[n-]1 (nonaromatic ring conformer: 395.55933215675816 kcal/mol)

>  <smiles>  (117) 
O=c1[nH]c(O)c(C=c2cnn3c(=NC4CC4)[nH]c(=Nc4cc(F)ccc4OC(F)F)nc23)[nH]1

>  <score_type>  (117) 
oracle

>  <origin>  (117) 
adg

>  <m_score__min__energy>  (117) 
-15.57

>  <m_primary>  (117) 
energy

$$$$
11:0
     RDKit          3D

 30 34  0  0  0  0  0  0  0  0999 V2000
   52.7480   31.0000   52.7000 C   0  0  0  0  0  0  0  0  0  0  0  0
   52.0360   31.0900   51.4150 C   0  0  0  0  0  0  0  0  0  0  0  0
   52.1240   30.1590   50.4500 N   0  0  0  0  0  0  0  0  0  0  0  0
   51.3890   30.6820   49.4450 C   0  0  0  0  0  0  0  0  0  0  0  0
   51.2160   30.0860   48.3500 O   0  0  0  0  0  0  0  0  0  0  0  0
   50.8610   31.8990   49.6990 N   0  0  0  0  0  0  0  0  0  0  0  0
   51.2910   32.1500   50.9470 C   0  0  0  0  0  0  0  0  0  0  0  0
   51.0390   33.3360   51.6250 O   0  0  0  0  0  0  0  0  0  0  0  0
   53.8130   30.2130   52.9140 C   0  0  0  0  0  0  0  0  0  0  0  0
   53.8650   29.1180   53.7780 C   0  0  0  0  0  0  0  0  0  0  0  0
   55.1120   28.5930   53.7580 N   0  0  0  0  0  0  0  0  0  0  0  0
   55.8460   29.3180   52.9300 N   0  0  0  0  0  0  0  0  0  0  0  0
   57.1610   29.1910   52.6300 C   0  0  0  0  0  0  0  0  0  0  0  0
   57.8690   28.2310   53.1480 N   0  0  0  0  0  0  0  0  0  0  0  0
   59.2960   28.3490   53.4290 C   0  0  0  0  0  0  0  0  0  0  0  0
   60.1500   28.2630   52.1790 C   0  0  0  0  0  0  0  0  0  0  0  0
   60.0820   27.0840   53.1390 C   0  0  0  0  0  0  0  0  0  0  0  0
   57.7160   30.1030   51.7800 N   0  0  0  0  0  0  0  0  0  0  0  0
   56.9620   31.1180   51.2580 C   0  0  0  0  0  0  0  0  0  0  0  0
   57.5170   31.9730   50.4530 N   0  0  0  0  0  0  0  0  0  0  0  0
   58.7500   31.7120   49.7150 C   0  0  0  0  0  0  0  0  0  0  0  0
   58.8570   32.6750   48.5630 C   0  0  0  0  0  0  0  0  0  0  0  0
   57.8670   32.6730   47.5650 C   0  0  0  0  0  0  0  0  0  0  0  0
   57.9340   33.5720   46.4980 C   0  0  0  0  0  0  0  0  0  0  0  0
   58.9840   34.4900   46.4210 C   0  0  0  0  0  0  0  0  0  0  0  0
   59.9660   34.5130   47.4140 C   0  0  0  0  0  0  0  0  0  0  0  0
   59.9090   33.6160   48.4870 C   0  0  0  0  0  0  0  0  0  0  0  0
   61.2800   33.7190   49.8270 Br  0  0  0  0  0  0  0  0  0  0  0  0
   55.6390   31.2240   51.5840 N   0  0  0  0  0  0  0  0  0  0  0  0
   55.1020   30.2970   52.4100 C   0  0  0  0  0  0  0  0  0  0  0  0
  1  2  1  0
  2  3  1  0
  3  4  1  0
  4  5  2  0
  4  6  1  0
  6  7  1  0
  7  8  1  0
  1  9  2  0
  9 10  1  0
 10 11  2  0
 11 12  1  0
 12 13  1  0
 13 14  2  0
 14 15  1  0
 15 16  1  0
 16 17  1  0
 13 18  1  0
 18 19  1  0
 19 20  2  3
 20 21  1  0
 21 22  1  0
 22 23  2  0
 23 24  1  0
 24 25  2  0
 25 26  1  0
 26 27  2  0
 27 28  1  0
 19 29  1  0
 29 30  2  0
  7  2  2  0
 30  9  1  0
 30 12  1  0
 17 15  1  0
 27 22  1  0
M  CHG  5   3  -1   6  -1   8  -1  11   1  18  -1
M  END
>  <UniqueID>  (118) 
12

>  <SMILES>  (118) 
O=c1[n-]c([O-])c(/C=c2/c[nH+]n3/c(=N/C4CC4)[n-]c(=NCc4ccccc4Br)nc23)[n-]1

>  <Energy>  (118) 
388.3769265524715

>  <Genealogy>  (118) 
O=c1[n-]c([O-])c(C=c2c[nH+]n3c(=NC4CC4)[n-]c(=NCc4ccccc4Br)nc23)[n-]1 (protonated)
O=c1[n-]c([O-])c(/C=c2/c[nH+]n3/c(=N/C4CC4)[n-]c(=NCc4ccccc4Br)nc23)[n-]1 (cis-trans isomerization)
O=c1[n-]c([O-])c(/C=c2/c[nH+]n3/c(=N/C4CC4)[n-]c(=NCc4ccccc4Br)nc23)[n-]1 (3D coordinates assigned)
O=c1[n-]c([O-])c(/C=c2/c[nH+]n3/c(=N/C4CC4)[n-]c(=NCc4ccccc4Br)nc23)[n-]1 (nonaromatic ring conformer: 388.3769265524715 kcal/mol)

>  <smiles>  (118) 
O=c1[nH]c(O)c(C=c2cnn3c(=NC4CC4)[nH]c(=NCc4ccccc4Br)nc23)[nH]1

>  <score_type>  (118) 
oracle

>  <origin>  (118) 
adg

>  <m_score__min__energy>  (118) 
-17.32

>  <m_primary>  (118) 
energy

$$$$
25:0
     RDKit          3D

 28 30  0  0  0  0  0  0  0  0999 V2000
   56.1770   30.0650   43.0250 O   0  0  0  0  0  0  0  0  0  0  0  0
   56.5500   30.0540   44.2280 C   0  0  0  0  0  0  0  0  0  0  0  0
   56.1190   28.9740   45.0700 N   0  0  0  0  0  0  0  0  0  0  0  0
   56.8540   27.9780   45.4750 C   0  0  0  0  0  0  0  0  0  0  0  0
   58.2160   28.0420   45.4250 N   0  0  0  0  0  0  0  0  0  0  0  0
   59.0030   27.0100   45.8290 C   0  0  0  0  0  0  0  0  0  0  0  0
   58.4210   25.8340   46.3060 C   0  0  0  0  0  0  0  0  0  0  0  0
   57.0300   25.7330   46.3590 C   0  0  0  0  0  0  0  0  0  0  0  0
   56.2380   26.8050   45.9400 C   0  0  0  0  0  0  0  0  0  0  0  0
   54.8520   26.7020   45.9890 O   0  0  0  0  0  0  0  0  0  0  0  0
   57.3600   31.1840   44.7430 C   0  0  0  0  0  0  0  0  0  0  0  0
   57.7710   32.2220   43.8880 C   0  0  0  0  0  0  0  0  0  0  0  0
   58.5670   33.2640   44.3720 C   0  0  0  0  0  0  0  0  0  0  0  0
   58.9740   33.2760   45.7130 C   0  0  0  0  0  0  0  0  0  0  0  0
   60.0540   34.5290   46.3170 S   0  0  0  0  0  0  0  0  0  0  0  0
   59.7190   35.8230   45.6320 O   0  0  0  0  0  0  0  0  0  0  0  0
   61.4860   34.1820   46.0120 O   0  0  0  0  0  0  0  0  0  0  0  0
   59.8490   34.7260   48.0350 N   0  0  0  0  0  0  0  0  0  0  0  0
   60.1710   33.4940   48.7610 C   0  0  0  0  0  0  0  0  0  0  0  0
   61.6600   33.3170   48.8970 C   0  0  0  0  0  0  0  0  0  0  0  0
   62.3720   34.0450   49.8660 C   0  0  0  0  0  0  0  0  0  0  0  0
   63.7460   33.8460   50.0250 C   0  0  0  0  0  0  0  0  0  0  0  0
   64.4220   32.9300   49.2150 C   0  0  0  0  0  0  0  0  0  0  0  0
   65.7530   32.7300   49.3800 F   0  0  0  0  0  0  0  0  0  0  0  0
   63.7250   32.2160   48.2360 C   0  0  0  0  0  0  0  0  0  0  0  0
   62.3490   32.4120   48.0720 C   0  0  0  0  0  0  0  0  0  0  0  0
   58.5630   32.2480   46.5690 C   0  0  0  0  0  0  0  0  0  0  0  0
   57.7680   31.2040   46.0870 C   0  0  0  0  0  0  0  0  0  0  0  0
  1  2  2  0
  2  3  1  0
  3  4  2  3
  4  5  1  0
  5  6  1  0
  6  7  2  0
  7  8  1  0
  8  9  2  0
  9 10  1  0
  2 11  1  0
 11 12  2  0
 12 13  1  0
 13 14  2  0
 14 15  1  0
 15 16  2  0
 15 17  2  0
 15 18  1  0
 18 19  1  0
 19 20  1  0
 20 21  2  0
 21 22  1  0
 22 23  2  0
 23 24  1  0
 23 25  1  0
 25 26  2  0
 14 27  1  0
 27 28  2  0
  9  4  1  0
 28 11  1  0
 26 20  1  0
M  CHG  3   5  -1  10  -1  18  -1
M  END
>  <UniqueID>  (119) 
24

>  <SMILES>  (119) 
O=C(N=c1[n-]cccc1[O-])c1ccc(S(=O)(=O)[N-]Cc2ccc(F)cc2)cc1

>  <Energy>  (119) 
48.48492186520194

>  <Genealogy>  (119) 
O=C(N=c1[n-]cccc1[O-])c1ccc(S(=O)(=O)[N-]Cc2ccc(F)cc2)cc1 (protonated)
O=C(N=c1[n-]cccc1[O-])c1ccc(S(=O)(=O)[N-]Cc2ccc(F)cc2)cc1 (3D coordinates assigned)
O=C(N=c1[n-]cccc1[O-])c1ccc(S(=O)(=O)[N-]Cc2ccc(F)cc2)cc1 (optimized conformer: 48.48492186520194 kcal/mol)

>  <smiles>  (119) 
O=C(N=c1[nH]cccc1O)c1ccc(S(=O)(=O)NCc2ccc(F)cc2)cc1

>  <score_type>  (119) 
oracle

>  <origin>  (119) 
adg

>  <m_score__min__energy>  (119) 
-15.210000000000001

>  <m_primary>  (119) 
energy

$$$$
62:0
     RDKit          3D

 29 31  0  0  0  0  0  0  0  0999 V2000
   63.7920   32.8200   47.0930 N   0  0  0  0  0  0  0  0  0  0  0  0
   62.0850   32.9590   47.3060 S   0  0  0  0  0  0  0  0  0  0  0  0
   61.8030   33.9640   48.3870 O   0  0  0  0  0  0  0  0  0  0  0  0
   61.4540   33.4280   46.0260 O   0  0  0  0  0  0  0  0  0  0  0  0
   61.4280   31.3890   47.7540 C   0  0  0  0  0  0  0  0  0  0  0  0
   61.3370   31.0120   49.1010 C   0  0  0  0  0  0  0  0  0  0  0  0
   60.8750   29.7400   49.4470 C   0  0  0  0  0  0  0  0  0  0  0  0
   60.5160   28.8200   48.4480 C   0  0  0  0  0  0  0  0  0  0  0  0
   60.0370   27.4480   48.8280 C   0  0  0  0  0  0  0  0  0  0  0  0
   58.9940   27.0120   47.9080 N   0  0  0  0  0  0  0  0  0  0  0  0
   59.2890   26.2880   46.6980 C   0  0  0  0  0  0  0  0  0  0  0  0
   60.4330   25.7900   46.5130 O   0  0  0  0  0  0  0  0  0  0  0  0
   58.2500   26.1510   45.6280 C   0  0  0  0  0  0  0  0  0  0  0  0
   57.5560   27.4640   45.4310 C   0  0  0  0  0  0  0  0  0  0  0  0
   58.2920   28.8790   44.8880 S   0  0  0  0  0  0  0  0  0  0  0  0
   56.8310   29.7310   44.8440 C   0  0  0  0  0  0  0  0  0  0  0  0
   56.6770   30.9820   44.5240 N   0  0  0  0  0  0  0  0  0  0  0  0
   57.3560   32.1140   45.0900 C   0  0  0  0  0  0  0  0  0  0  0  0
   57.7840   32.1340   46.4330 C   0  0  0  0  0  0  0  0  0  0  0  0
   58.4760   33.2400   46.9330 C   0  0  0  0  0  0  0  0  0  0  0  0
   58.7770   34.3160   46.0930 C   0  0  0  0  0  0  0  0  0  0  0  0
   59.6540   35.6970   46.7230 Cl  0  0  0  0  0  0  0  0  0  0  0  0
   58.3920   34.2820   44.7460 C   0  0  0  0  0  0  0  0  0  0  0  0
   57.6920   33.1820   44.2480 C   0  0  0  0  0  0  0  0  0  0  0  0
   55.7920   28.9670   45.2450 N   0  0  0  0  0  0  0  0  0  0  0  0
   56.1890   27.7070   45.5590 C   0  0  0  0  0  0  0  0  0  0  0  0
   55.2810   26.7410   45.9760 O   0  0  0  0  0  0  0  0  0  0  0  0
   60.5800   29.2090   47.1010 C   0  0  0  0  0  0  0  0  0  0  0  0
   61.0390   30.4840   46.7560 C   0  0  0  0  0  0  0  0  0  0  0  0
  1  2  1  0
  2  3  2  0
  2  4  2  0
  2  5  1  0
  5  6  2  0
  6  7  1  0
  7  8  2  0
  8  9  1  0
  9 10  1  0
 10 11  1  0
 11 12  2  0
 11 13  1  0
 13 14  1  0
 14 15  1  0
 15 16  1  0
 16 17  2  3
 17 18  1  0
 18 19  2  0
 19 20  1  0
 20 21  2  0
 21 22  1  0
 21 23  1  0
 23 24  2  0
 16 25  1  0
 25 26  1  0
 26 27  1  0
  8 28  1  0
 28 29  2  0
 29  5  1  0
 26 14  2  0
 24 18  1  0
M  CHG  3   1  -1  25  -1  27  -1
M  END
>  <UniqueID>  (120) 
62

>  <SMILES>  (120) 
[NH-]S(=O)(=O)c1ccc(CNC(=O)Cc2sc(=Nc3ccc(Cl)cc3)[n-]c2[O-])cc1

>  <Energy>  (120) 
75.54677022748274

>  <Genealogy>  (120) 
[NH-]S(=O)(=O)c1ccc(CNC(=O)Cc2sc(=Nc3ccc(Cl)cc3)[n-]c2[O-])cc1 (protonated)
[NH-]S(=O)(=O)c1ccc(CNC(=O)Cc2sc(=Nc3ccc(Cl)cc3)[n-]c2[O-])cc1 (3D coordinates assigned)
[NH-]S(=O)(=O)c1ccc(CNC(=O)Cc2sc(=Nc3ccc(Cl)cc3)[n-]c2[O-])cc1 (optimized conformer: 75.54677022748274 kcal/mol)

>  <smiles>  (120) 
NS(=O)(=O)c1ccc(CNC(=O)Cc2sc(=Nc3ccc(Cl)cc3)[nH]c2O)cc1

>  <score_type>  (120) 
oracle

>  <origin>  (120) 
adg

>  <m_score__min__energy>  (120) 
-14.119999999999999

>  <m_primary>  (120) 
energy

$$$$
9:0
     RDKit          3D

 25 26  0  0  0  0  0  0  0  0999 V2000
   55.1250   29.3830   44.7920 N   0  0  0  0  0  0  0  0  0  0  0  0
   56.7030   29.9940   44.4370 S   0  0  0  0  0  0  0  0  0  0  0  0
   57.0800   29.6250   43.0300 O   0  0  0  0  0  0  0  0  0  0  0  0
   56.7010   31.4930   44.5600 O   0  0  0  0  0  0  0  0  0  0  0  0
   57.8650   29.3080   45.5680 C   0  0  0  0  0  0  0  0  0  0  0  0
   58.2010   30.0020   46.7380 C   0  0  0  0  0  0  0  0  0  0  0  0
   59.1060   29.4480   47.6470 C   0  0  0  0  0  0  0  0  0  0  0  0
   59.6600   28.1870   47.4040 C   0  0  0  0  0  0  0  0  0  0  0  0
   59.3000   27.4680   46.2540 C   0  0  0  0  0  0  0  0  0  0  0  0
   59.8280   26.1620   45.9910 N   0  0  0  0  0  0  0  0  0  0  0  0
   59.1130   24.9200   46.0760 C   0  0  0  0  0  0  0  0  0  0  0  0
   59.6590   23.8770   45.6320 O   0  0  0  0  0  0  0  0  0  0  0  0
   57.7250   24.8250   46.6480 C   0  0  0  0  0  0  0  0  0  0  0  0
   56.7350   25.1000   45.6160 N   0  0  0  0  0  0  0  0  0  0  0  0
   55.3960   25.5110   45.9060 C   0  0  0  0  0  0  0  0  0  0  0  0
   55.1290   26.7290   46.0810 O   0  0  0  0  0  0  0  0  0  0  0  0
   54.3470   24.5430   45.9990 N   0  0  0  0  0  0  0  0  0  0  0  0
   54.0150   23.6130   44.9250 C   0  0  0  0  0  0  0  0  0  0  0  0
   55.2410   22.8570   44.4870 C   0  0  0  0  0  0  0  0  0  0  0  0
   55.9060   21.9950   45.3740 C   0  0  0  0  0  0  0  0  0  0  0  0
   57.0290   21.2790   44.9520 C   0  0  0  0  0  0  0  0  0  0  0  0
   57.4950   21.4160   43.6400 C   0  0  0  0  0  0  0  0  0  0  0  0
   56.8400   22.2730   42.7520 C   0  0  0  0  0  0  0  0  0  0  0  0
   55.7160   22.9910   43.1720 C   0  0  0  0  0  0  0  0  0  0  0  0
   58.4290   28.0490   45.3240 C   0  0  0  0  0  0  0  0  0  0  0  0
  1  2  1  0
  2  3  2  0
  2  4  2  0
  2  5  1  0
  5  6  2  0
  6  7  1  0
  7  8  2  0
  8  9  1  0
  9 10  1  0
 10 11  1  0
 11 12  2  0
 11 13  1  0
 13 14  1  0
 14 15  1  0
 15 16  2  0
 15 17  1  0
 17 18  1  0
 18 19  1  0
 19 20  2  0
 20 21  1  0
 21 22  2  0
 22 23  1  0
 23 24  2  0
  9 25  2  0
 25  5  1  0
 24 19  1  0
M  CHG  4   1  -1  10  -1  14  -1  17  -1
M  END
>  <UniqueID>  (121) 
8

>  <SMILES>  (121) 
[NH-]S(=O)(=O)c1cccc([N-]C(=O)C[N-]C(=O)[N-]Cc2ccccc2)c1

>  <Energy>  (121) 
34.876617155685295

>  <Genealogy>  (121) 
[NH-]S(=O)(=O)c1cccc([N-]C(=O)C[N-]C(=O)[N-]Cc2ccccc2)c1 (protonated)
[NH-]S(=O)(=O)c1cccc([N-]C(=O)C[N-]C(=O)[N-]Cc2ccccc2)c1 (3D coordinates assigned)
[NH-]S(=O)(=O)c1cccc([N-]C(=O)C[N-]C(=O)[N-]Cc2ccccc2)c1 (optimized conformer: 34.876617155685295 kcal/mol)

>  <smiles>  (121) 
NS(=O)(=O)c1cccc(NC(=O)CNC(=O)NCc2ccccc2)c1

>  <score_type>  (121) 
oracle

>  <origin>  (121) 
adg

>  <m_score__min__energy>  (121) 
-15.06

>  <m_primary>  (121) 
energy

$$$$
42:0
     RDKit          3D

 24 25  0  0  0  0  0  0  0  0999 V2000
   59.2600   34.5760   48.4490 N   0  0  0  0  0  0  0  0  0  0  0  0
   59.9280   34.6380   46.8570 S   0  0  0  0  0  0  0  0  0  0  0  0
   61.3710   34.2220   46.9040 O   0  0  0  0  0  0  0  0  0  0  0  0
   59.8480   36.0440   46.3330 O   0  0  0  0  0  0  0  0  0  0  0  0
   59.0320   33.5510   45.8010 C   0  0  0  0  0  0  0  0  0  0  0  0
   58.7990   33.8960   44.4630 C   0  0  0  0  0  0  0  0  0  0  0  0
   58.0940   33.0260   43.6270 C   0  0  0  0  0  0  0  0  0  0  0  0
   57.6040   31.8170   44.1270 C   0  0  0  0  0  0  0  0  0  0  0  0
   57.7940   31.4790   45.4720 C   0  0  0  0  0  0  0  0  0  0  0  0
   57.2940   30.2230   45.9500 N   0  0  0  0  0  0  0  0  0  0  0  0
   56.4880   29.2890   45.2190 C   0  0  0  0  0  0  0  0  0  0  0  0
   55.4880   29.7190   44.5860 O   0  0  0  0  0  0  0  0  0  0  0  0
   56.7480   27.8070   45.2540 C   0  0  0  0  0  0  0  0  0  0  0  0
   55.5410   27.0800   45.6310 N   0  0  0  0  0  0  0  0  0  0  0  0
   55.5210   25.6970   45.9950 C   0  0  0  0  0  0  0  0  0  0  0  0
   55.9380   25.3590   47.1340 O   0  0  0  0  0  0  0  0  0  0  0  0
   55.0730   24.7090   45.0570 N   0  0  0  0  0  0  0  0  0  0  0  0
   55.8530   23.6470   44.4890 C   0  0  0  0  0  0  0  0  0  0  0  0
   55.6050   23.2690   43.1630 C   0  0  0  0  0  0  0  0  0  0  0  0
   56.3300   22.2270   42.5760 C   0  0  0  0  0  0  0  0  0  0  0  0
   57.2980   21.5440   43.3170 C   0  0  0  0  0  0  0  0  0  0  0  0
   57.5350   21.8980   44.6470 C   0  0  0  0  0  0  0  0  0  0  0  0
   56.8140   22.9410   45.2370 C   0  0  0  0  0  0  0  0  0  0  0  0
   58.5320   32.3400   46.3020 C   0  0  0  0  0  0  0  0  0  0  0  0
  1  2  1  0
  2  3  2  0
  2  4  2  0
  2  5  1  0
  5  6  2  0
  6  7  1  0
  7  8  2  0
  8  9  1  0
  9 10  1  0
 10 11  1  0
 11 12  2  0
 11 13  1  0
 13 14  1  0
 14 15  1  0
 15 16  2  0
 15 17  1  0
 17 18  1  0
 18 19  2  0
 19 20  1  0
 20 21  2  0
 21 22  1  0
 22 23  2  0
  9 24  2  0
 24  5  1  0
 23 18  1  0
M  CHG  4   1  -1  10  -1  14  -1  17  -1
M  END
>  <UniqueID>  (122) 
35

>  <SMILES>  (122) 
[NH-]S(=O)(=O)c1cccc([N-]C(=O)C[N-]C(=O)[N-]c2ccccc2)c1

>  <Energy>  (122) 
41.845621770514214

>  <Genealogy>  (122) 
[NH-]S(=O)(=O)c1cccc([N-]C(=O)C[N-]C(=O)[N-]c2ccccc2)c1 (protonated)
[NH-]S(=O)(=O)c1cccc([N-]C(=O)C[N-]C(=O)[N-]c2ccccc2)c1 (3D coordinates assigned)
[NH-]S(=O)(=O)c1cccc([N-]C(=O)C[N-]C(=O)[N-]c2ccccc2)c1 (optimized conformer: 41.845621770514214 kcal/mol)

>  <smiles>  (122) 
NS(=O)(=O)c1cccc(NC(=O)CNC(=O)Nc2ccccc2)c1

>  <score_type>  (122) 
oracle

>  <origin>  (122) 
adg

>  <m_score__min__energy>  (122) 
-14.67

>  <m_primary>  (122) 
energy

$$$$
79:0
     RDKit          3D

 31 33  0  0  0  0  0  0  0  0999 V2000
   54.7900   26.3240   45.9900 N   0  0  0  0  0  0  0  0  0  0  0  0
   56.4660   25.9220   45.8770 S   0  0  0  0  0  0  0  0  0  0  0  0
   56.9530   25.4190   47.2070 O   0  0  0  0  0  0  0  0  0  0  0  0
   56.6510   24.8360   44.8540 O   0  0  0  0  0  0  0  0  0  0  0  0
   57.3850   27.3480   45.4060 C   0  0  0  0  0  0  0  0  0  0  0  0
   58.7080   27.2210   44.9640 C   0  0  0  0  0  0  0  0  0  0  0  0
   59.4250   28.3500   44.5590 C   0  0  0  0  0  0  0  0  0  0  0  0
   58.8190   29.6080   44.5780 C   0  0  0  0  0  0  0  0  0  0  0  0
   57.5000   29.7530   45.0210 C   0  0  0  0  0  0  0  0  0  0  0  0
   56.8880   31.0490   44.9500 N   0  0  0  0  0  0  0  0  0  0  0  0
   57.4590   32.2170   44.3520 C   0  0  0  0  0  0  0  0  0  0  0  0
   58.1570   32.1280   43.3050 O   0  0  0  0  0  0  0  0  0  0  0  0
   57.2130   33.5570   44.9680 C   0  0  0  0  0  0  0  0  0  0  0  0
   58.2800   34.4910   44.6090 N   0  0  0  0  0  0  0  0  0  0  0  0
   59.2670   35.0310   45.5010 C   0  0  0  0  0  0  0  0  0  0  0  0
   59.6840   36.2030   45.3020 O   0  0  0  0  0  0  0  0  0  0  0  0
   59.8410   34.2460   46.6120 C   0  0  0  0  0  0  0  0  0  0  0  0
   59.2040   34.2320   47.8600 C   0  0  0  0  0  0  0  0  0  0  0  0
   59.7570   33.5160   48.9260 C   0  0  0  0  0  0  0  0  0  0  0  0
   60.9350   32.7820   48.7570 C   0  0  0  0  0  0  0  0  0  0  0  0
   61.4450   32.0780   49.8600 O   0  0  0  0  0  0  0  0  0  0  0  0
   60.7280   31.1180   50.6390 C   0  0  0  0  0  0  0  0  0  0  0  0
   60.3200   29.9440   49.7910 C   0  0  0  0  0  0  0  0  0  0  0  0
   61.0090   28.7210   49.8730 C   0  0  0  0  0  0  0  0  0  0  0  0
   60.6240   27.6400   49.0740 C   0  0  0  0  0  0  0  0  0  0  0  0
   59.5600   27.7760   48.1780 C   0  0  0  0  0  0  0  0  0  0  0  0
   58.8780   28.9930   48.0810 C   0  0  0  0  0  0  0  0  0  0  0  0
   59.2520   30.0700   48.8870 C   0  0  0  0  0  0  0  0  0  0  0  0
   61.5520   32.7630   47.4910 C   0  0  0  0  0  0  0  0  0  0  0  0
   61.0040   33.4860   46.4270 C   0  0  0  0  0  0  0  0  0  0  0  0
   56.7820   28.6140   45.4310 C   0  0  0  0  0  0  0  0  0  0  0  0
  1  2  1  0
  2  3  2  0
  2  4  2  0
  2  5  1  0
  5  6  2  0
  6  7  1  0
  7  8  2  0
  8  9  1  0
  9 10  1  0
 10 11  1  0
 11 12  2  0
 11 13  1  0
 13 14  1  0
 14 15  1  0
 15 16  2  0
 15 17  1  0
 17 18  2  0
 18 19  1  0
 19 20  2  0
 20 21  1  0
 21 22  1  0
 22 23  1  0
 23 24  2  0
 24 25  1  0
 25 26  2  0
 26 27  1  0
 27 28  2  0
 20 29  1  0
 29 30  2  0
  9 31  2  0
 31  5  1  0
 30 17  1  0
 28 23  1  0
M  CHG  3   1  -1  10  -1  14  -1
M  END
>  <UniqueID>  (123) 
70

>  <SMILES>  (123) 
[NH-]S(=O)(=O)c1cccc([N-]C(=O)C[N-]C(=O)c2ccc(OCc3ccccc3)cc2)c1

>  <Energy>  (123) 
50.85590593364167

>  <Genealogy>  (123) 
[NH-]S(=O)(=O)c1cccc([N-]C(=O)C[N-]C(=O)c2ccc(OCc3ccccc3)cc2)c1 (protonated)
[NH-]S(=O)(=O)c1cccc([N-]C(=O)C[N-]C(=O)c2ccc(OCc3ccccc3)cc2)c1 (3D coordinates assigned)
[NH-]S(=O)(=O)c1cccc([N-]C(=O)C[N-]C(=O)c2ccc(OCc3ccccc3)cc2)c1 (optimized conformer: 50.85590593364167 kcal/mol)

>  <smiles>  (123) 
NS(=O)(=O)c1cccc(NC(=O)CNC(=O)c2ccc(OCc3ccccc3)cc2)c1

>  <score_type>  (123) 
oracle

>  <origin>  (123) 
adg

>  <m_score__min__energy>  (123) 
-14.67

>  <m_primary>  (123) 
energy

$$$$
6:0
     RDKit          3D

 24 26  0  0  0  0  0  0  0  0999 V2000
   56.6910   22.6350   43.9790 C   0  0  0  0  0  0  0  0  0  0  0  0
   56.8740   23.8970   44.7690 C   0  0  0  0  0  0  0  0  0  0  0  0
   58.1360   24.2370   45.2760 C   0  0  0  0  0  0  0  0  0  0  0  0
   58.2990   25.3910   46.0440 C   0  0  0  0  0  0  0  0  0  0  0  0
   57.2000   26.2040   46.3450 C   0  0  0  0  0  0  0  0  0  0  0  0
   57.4060   27.3790   47.1400 N   0  0  0  0  0  0  0  0  0  0  0  0
   58.6690   28.0030   47.4060 C   0  0  0  0  0  0  0  0  0  0  0  0
   59.1740   27.8870   48.5540 O   0  0  0  0  0  0  0  0  0  0  0  0
   59.3860   28.8310   46.3720 C   0  0  0  0  0  0  0  0  0  0  0  0
   58.4500   29.7770   45.7220 N   0  0  0  0  0  0  0  0  0  0  0  0
   57.6700   29.3340   44.6780 C   0  0  0  0  0  0  0  0  0  0  0  0
   57.7720   28.1470   44.2550 O   0  0  0  0  0  0  0  0  0  0  0  0
   56.7490   30.1980   44.0630 C   0  0  0  0  0  0  0  0  0  0  0  0
   55.8900   29.7440   42.9210 C   0  0  0  0  0  0  0  0  0  0  0  0
   56.6610   31.4820   44.4820 N   0  0  0  0  0  0  0  0  0  0  0  0
   57.4360   31.9570   45.4850 C   0  0  0  0  0  0  0  0  0  0  0  0
   57.3160   33.2970   45.8720 C   0  0  0  0  0  0  0  0  0  0  0  0
   58.1210   33.8070   46.8900 C   0  0  0  0  0  0  0  0  0  0  0  0
   59.0550   32.9850   47.5200 C   0  0  0  0  0  0  0  0  0  0  0  0
   59.1820   31.6440   47.1450 C   0  0  0  0  0  0  0  0  0  0  0  0
   58.3660   31.0990   46.1230 C   0  0  0  0  0  0  0  0  0  0  0  0
   55.9350   25.8780   45.8210 C   0  0  0  0  0  0  0  0  0  0  0  0
   54.8410   26.7090   46.0360 O   0  0  0  0  0  0  0  0  0  0  0  0
   55.7720   24.7190   45.0540 C   0  0  0  0  0  0  0  0  0  0  0  0
  1  2  1  0
  2  3  2  0
  3  4  1  0
  4  5  2  0
  5  6  1  0
  6  7  1  0
  7  8  2  0
  7  9  1  0
  9 10  1  0
 10 11  1  0
 11 12  2  0
 11 13  1  0
 13 14  1  0
 13 15  2  0
 15 16  1  0
 16 17  2  0
 17 18  1  0
 18 19  2  0
 19 20  1  0
 20 21  2  0
  5 22  1  0
 22 23  1  0
 22 24  2  0
 24  2  1  0
 21 10  1  0
 21 16  1  0
M  CHG  2   6  -1  23  -1
M  END
>  <UniqueID>  (124) 
7

>  <SMILES>  (124) 
Cc1ccc([N-]C(=O)Cn2c(=O)c(C)nc3ccccc32)c([O-])c1

>  <Energy>  (124) 
56.038331221102204

>  <Genealogy>  (124) 
Cc1ccc([N-]C(=O)Cn2c(=O)c(C)nc3ccccc32)c([O-])c1 (protonated)
Cc1ccc([N-]C(=O)Cn2c(=O)c(C)nc3ccccc32)c([O-])c1 (3D coordinates assigned)
Cc1ccc([N-]C(=O)Cn2c(=O)c(C)nc3ccccc32)c([O-])c1 (optimized conformer: 56.038331221102204 kcal/mol)

>  <smiles>  (124) 
Cc1ccc(NC(=O)Cn2c(=O)c(C)nc3ccccc32)c(O)c1

>  <score_type>  (124) 
oracle

>  <origin>  (124) 
adg

>  <m_score__min__energy>  (124) 
-14.039999999999999

>  <m_primary>  (124) 
energy

$$$$
88:0
     RDKit          3D

 27 29  0  0  0  0  0  0  0  0999 V2000
   64.0770   33.4650   47.5120 N   0  0  0  0  0  0  0  0  0  0  0  0
   62.4390   32.9200   47.4120 S   0  0  0  0  0  0  0  0  0  0  0  0
   61.7350   33.6760   46.3210 O   0  0  0  0  0  0  0  0  0  0  0  0
   62.4550   31.4550   47.0790 O   0  0  0  0  0  0  0  0  0  0  0  0
   61.6030   33.1780   48.9540 C   0  0  0  0  0  0  0  0  0  0  0  0
   62.3330   33.6700   50.0480 C   0  0  0  0  0  0  0  0  0  0  0  0
   61.7220   33.8420   51.2920 C   0  0  0  0  0  0  0  0  0  0  0  0
   60.3750   33.5240   51.4600 C   0  0  0  0  0  0  0  0  0  0  0  0
   59.6310   33.0440   50.3810 C   0  0  0  0  0  0  0  0  0  0  0  0
   60.2270   32.8770   49.1200 C   0  0  0  0  0  0  0  0  0  0  0  0
   59.3880   32.3910   48.0070 C   0  0  0  0  0  0  0  0  0  0  0  0
   59.3710   31.0290   47.6730 C   0  0  0  0  0  0  0  0  0  0  0  0
   58.5810   30.5740   46.6140 C   0  0  0  0  0  0  0  0  0  0  0  0
   57.8200   31.4820   45.8570 C   0  0  0  0  0  0  0  0  0  0  0  0
   56.9760   31.0420   44.7840 N   0  0  0  0  0  0  0  0  0  0  0  0
   56.3450   29.7600   44.6690 C   0  0  0  0  0  0  0  0  0  0  0  0
   55.1060   29.6740   44.8730 O   0  0  0  0  0  0  0  0  0  0  0  0
   57.1130   28.5320   44.2620 C   0  0  0  0  0  0  0  0  0  0  0  0
   57.3860   27.6640   45.4520 C   0  0  0  0  0  0  0  0  0  0  0  0
   58.8950   27.4650   46.1780 S   0  0  0  0  0  0  0  0  0  0  0  0
   58.3050   26.3390   47.2790 C   0  0  0  0  0  0  0  0  0  0  0  0
   59.0040   25.7800   48.1640 O   0  0  0  0  0  0  0  0  0  0  0  0
   56.9890   26.0890   47.1160 N   0  0  0  0  0  0  0  0  0  0  0  0
   56.4790   26.8230   46.0920 C   0  0  0  0  0  0  0  0  0  0  0  0
   55.1430   26.7250   45.7200 O   0  0  0  0  0  0  0  0  0  0  0  0
   57.8300   32.8390   46.2000 C   0  0  0  0  0  0  0  0  0  0  0  0
   58.6200   33.2950   47.2600 C   0  0  0  0  0  0  0  0  0  0  0  0
  1  2  1  0
  2  3  2  0
  2  4  2  0
  2  5  1  0
  5  6  2  0
  6  7  1  0
  7  8  2  0
  8  9  1  0
  9 10  2  0
 10 11  1  0
 11 12  2  0
 12 13  1  0
 13 14  2  0
 14 15  1  0
 15 16  1  0
 16 17  2  0
 16 18  1  0
 18 19  1  0
 19 20  1  0
 20 21  1  0
 21 22  2  0
 21 23  1  0
 23 24  1  0
 24 25  1  0
 14 26  1  0
 26 27  2  0
 10  5  1  0
 27 11  1  0
 24 19  2  0
M  CHG  4   1  -1  15  -1  23  -1  25  -1
M  END
>  <UniqueID>  (125) 
78

>  <SMILES>  (125) 
[NH-]S(=O)(=O)c1ccccc1-c1ccc([N-]C(=O)Cc2sc(=O)[n-]c2[O-])cc1

>  <Energy>  (125) 
83.70952467096944

>  <Genealogy>  (125) 
[NH-]S(=O)(=O)c1ccccc1-c1ccc([N-]C(=O)Cc2sc(=O)[n-]c2[O-])cc1 (protonated)
[NH-]S(=O)(=O)c1ccccc1-c1ccc([N-]C(=O)Cc2sc(=O)[n-]c2[O-])cc1 (3D coordinates assigned)
[NH-]S(=O)(=O)c1ccccc1-c1ccc([N-]C(=O)Cc2sc(=O)[n-]c2[O-])cc1 (optimized conformer: 83.70952467096944 kcal/mol)

>  <smiles>  (125) 
NS(=O)(=O)c1ccccc1-c1ccc(NC(=O)Cc2sc(=O)[nH]c2O)cc1

>  <score_type>  (125) 
oracle

>  <origin>  (125) 
adg

>  <m_score__min__energy>  (125) 
-17.48

>  <m_primary>  (125) 
energy

$$$$
93:0
     RDKit          3D

 28 30  0  0  0  0  0  0  0  0999 V2000
   62.9620   33.7530   46.7530 C   0  0  0  0  0  0  0  0  0  0  0  0
   61.5530   33.7950   46.9620 O   0  0  0  0  0  0  0  0  0  0  0  0
   60.6920   32.6970   46.8090 C   0  0  0  0  0  0  0  0  0  0  0  0
   61.0360   31.4150   47.2750 C   0  0  0  0  0  0  0  0  0  0  0  0
   60.1500   30.3460   47.1260 C   0  0  0  0  0  0  0  0  0  0  0  0
   58.9070   30.5360   46.5060 C   0  0  0  0  0  0  0  0  0  0  0  0
   57.9390   29.3860   46.3830 C   0  0  0  0  0  0  0  0  0  0  0  0
   58.1960   28.5680   45.1120 C   0  0  0  0  0  0  0  0  0  0  0  0
   57.2390   27.4690   44.9830 N   0  0  0  0  0  0  0  0  0  0  0  0
   57.5280   26.1370   45.4260 C   0  0  0  0  0  0  0  0  0  0  0  0
   58.6580   25.8570   45.9100 O   0  0  0  0  0  0  0  0  0  0  0  0
   56.4930   25.0850   45.3350 C   0  0  0  0  0  0  0  0  0  0  0  0
   55.1570   25.4180   45.6320 C   0  0  0  0  0  0  0  0  0  0  0  0
   54.8180   26.7150   45.9990 O   0  0  0  0  0  0  0  0  0  0  0  0
   54.1490   24.4560   45.5490 C   0  0  0  0  0  0  0  0  0  0  0  0
   54.4530   23.1490   45.1730 C   0  0  0  0  0  0  0  0  0  0  0  0
   55.7740   22.7840   44.8850 C   0  0  0  0  0  0  0  0  0  0  0  0
   56.0750   21.4600   44.5320 C   0  0  0  0  0  0  0  0  0  0  0  0
   57.3930   21.0830   44.2700 C   0  0  0  0  0  0  0  0  0  0  0  0
   58.4190   22.0210   44.3580 C   0  0  0  0  0  0  0  0  0  0  0  0
   58.1390   23.3450   44.7020 C   0  0  0  0  0  0  0  0  0  0  0  0
   56.8120   23.7520   44.9650 C   0  0  0  0  0  0  0  0  0  0  0  0
   58.5640   31.8100   46.0310 C   0  0  0  0  0  0  0  0  0  0  0  0
   59.4490   32.8890   46.1750 C   0  0  0  0  0  0  0  0  0  0  0  0
   58.9940   34.4900   45.5870 S   0  0  0  0  0  0  0  0  0  0  0  0
   59.5320   35.6890   46.7080 N   0  0  0  0  0  0  0  0  0  0  0  0
   57.4990   34.5930   45.4370 O   0  0  0  0  0  0  0  0  0  0  0  0
   59.6320   34.7300   44.2470 O   0  0  0  0  0  0  0  0  0  0  0  0
  1  2  1  0
  2  3  1  0
  3  4  2  0
  4  5  1  0
  5  6  2  0
  6  7  1  0
  7  8  1  0
  8  9  1  0
  9 10  1  0
 10 11  2  0
 10 12  1  0
 12 13  2  0
 13 14  1  0
 13 15  1  0
 15 16  2  0
 16 17  1  0
 17 18  2  0
 18 19  1  0
 19 20  2  0
 20 21  1  0
 21 22  2  0
  6 23  1  0
 23 24  2  0
 24 25  1  0
 25 26  1  0
 25 27  2  0
 25 28  2  0
 24  3  1  0
 22 12  1  0
 22 17  1  0
M  CHG  2  14  -1  26  -1
M  END
>  <UniqueID>  (126) 
83

>  <SMILES>  (126) 
COc1ccc(CCNC(=O)c2c([O-])ccc3ccccc23)cc1S([NH-])(=O)=O

>  <Energy>  (126) 
53.85161205297324

>  <Genealogy>  (126) 
COc1ccc(CCNC(=O)c2c([O-])ccc3ccccc23)cc1S([NH-])(=O)=O (protonated)
COc1ccc(CCNC(=O)c2c([O-])ccc3ccccc23)cc1S([NH-])(=O)=O (3D coordinates assigned)
COc1ccc(CCNC(=O)c2c([O-])ccc3ccccc23)cc1S([NH-])(=O)=O (optimized conformer: 53.85161205297324 kcal/mol)

>  <smiles>  (126) 
COc1ccc(CCNC(=O)c2c(O)ccc3ccccc23)cc1S(N)(=O)=O

>  <score_type>  (126) 
oracle

>  <origin>  (126) 
adg

>  <m_score__min__energy>  (126) 
-14.630000000000001

>  <m_primary>  (126) 
energy

$$$$
23:0
     RDKit          3D

 34 37  0  0  0  0  0  0  0  0999 V2000
   57.8760   21.0260   42.5800 O   0  0  0  0  0  0  0  0  0  0  0  0
   57.1590   21.6010   43.4400 C   0  0  0  0  0  0  0  0  0  0  0  0
   55.9200   20.9880   43.8230 N   0  0  0  0  0  0  0  0  0  0  0  0
   55.5750   20.4850   45.1530 C   0  0  0  0  0  0  0  0  0  0  0  0
   54.5700   21.4000   45.8640 C   0  0  0  0  0  0  0  0  0  0  0  0
   55.1960   22.7110   46.2640 C   0  0  0  0  0  0  0  0  0  0  0  0
   56.2650   22.7340   47.1750 C   0  0  0  0  0  0  0  0  0  0  0  0
   56.8320   23.9510   47.5660 C   0  0  0  0  0  0  0  0  0  0  0  0
   56.3300   25.1570   47.0580 C   0  0  0  0  0  0  0  0  0  0  0  0
   56.8890   26.3730   47.4460 O   0  0  0  0  0  0  0  0  0  0  0  0
   55.2600   25.1390   46.1560 C   0  0  0  0  0  0  0  0  0  0  0  0
   54.7530   26.3300   45.6500 O   0  0  0  0  0  0  0  0  0  0  0  0
   54.6940   23.9220   45.7620 C   0  0  0  0  0  0  0  0  0  0  0  0
   57.6070   22.8940   43.9840 C   0  0  0  0  0  0  0  0  0  0  0  0
   58.6080   22.9730   44.9560 C   0  0  0  0  0  0  0  0  0  0  0  0
   59.0070   24.2210   45.4260 C   0  0  0  0  0  0  0  0  0  0  0  0
   58.4090   25.3770   44.9030 C   0  0  0  0  0  0  0  0  0  0  0  0
   58.7910   26.6930   45.3520 N   0  0  0  0  0  0  0  0  0  0  0  0
   57.8720   27.8350   45.1980 C   0  0  0  0  0  0  0  0  0  0  0  0
   58.6590   29.1230   44.9410 C   0  0  0  0  0  0  0  0  0  0  0  0
   59.7270   29.2440   45.9380 N   0  0  0  0  0  0  0  0  0  0  0  0
   59.6400   30.1920   47.0230 C   0  0  0  0  0  0  0  0  0  0  0  0
   60.5250   30.2050   47.9210 O   0  0  0  0  0  0  0  0  0  0  0  0
   58.5780   31.1550   47.0570 N   0  0  0  0  0  0  0  0  0  0  0  0
   58.5130   32.3840   46.3170 C   0  0  0  0  0  0  0  0  0  0  0  0
   57.6650   32.5410   45.2050 C   0  0  0  0  0  0  0  0  0  0  0  0
   57.6530   33.7470   44.4950 C   0  0  0  0  0  0  0  0  0  0  0  0
   58.4940   34.7950   44.8800 C   0  0  0  0  0  0  0  0  0  0  0  0
   59.3540   34.6360   45.9690 C   0  0  0  0  0  0  0  0  0  0  0  0
   59.3700   33.4320   46.6800 C   0  0  0  0  0  0  0  0  0  0  0  0
   60.6920   28.1410   45.9690 C   0  0  0  0  0  0  0  0  0  0  0  0
   59.9480   26.8350   46.2540 C   0  0  0  0  0  0  0  0  0  0  0  0
   57.4650   25.2410   43.9330 N   0  0  0  0  0  0  0  0  0  0  0  0
   57.0800   24.0440   43.4870 N   0  0  0  0  0  0  0  0  0  0  0  0
  1  2  2  0
  2  3  1  0
  3  4  1  0
  4  5  1  0
  5  6  1  0
  6  7  2  0
  7  8  1  0
  8  9  2  0
  9 10  1  0
  9 11  1  0
 11 12  1  0
 11 13  2  0
  2 14  1  0
 14 15  2  0
 15 16  1  0
 16 17  2  0
 17 18  1  0
 18 19  1  0
 19 20  1  0
 20 21  1  0
 21 22  1  0
 22 23  2  0
 22 24  1  0
 24 25  1  0
 25 26  2  0
 26 27  1  0
 27 28  2  0
 28 29  1  0
 29 30  2  0
 21 31  1  0
 31 32  1  0
 17 33  1  0
 33 34  2  0
 13  6  1  0
 34 14  1  0
 32 18  1  0
 30 25  1  0
M  CHG  3   3  -1  12  -1  24  -1
M  END
>  <UniqueID>  (127) 
23

>  <SMILES>  (127) 
O=C([N-]CCc1ccc(O)c([O-])c1)c1ccc(N2CCN(C(=O)[N-]c3ccccc3)CC2)nn1

>  <Energy>  (127) 
69.59169776424164

>  <Genealogy>  (127) 
O=C([N-]CCc1ccc(O)c([O-])c1)c1ccc(N2CCN(C(=O)[N-]c3ccccc3)CC2)nn1 (protonated)
O=C([N-]CCc1ccc(O)c([O-])c1)c1ccc(N2CCN(C(=O)[N-]c3ccccc3)CC2)nn1 (3D coordinates assigned)
O=C([N-]CCc1ccc(O)c([O-])c1)c1ccc(N2CCN(C(=O)[N-]c3ccccc3)CC2)nn1 (nonaromatic ring conformer: 69.59169776424164 kcal/mol)

>  <smiles>  (127) 
O=C(NCCc1ccc(O)c(O)c1)c1ccc(N2CCN(C(=O)Nc3ccccc3)CC2)nn1

>  <score_type>  (127) 
oracle

>  <origin>  (127) 
adg

>  <m_score__min__energy>  (127) 
-15.98

>  <m_primary>  (127) 
energy

$$$$
43:0
     RDKit          3D

 30 32  0  0  0  0  0  0  0  0999 V2000
   54.8510   29.3280   44.5050 O   0  0  0  0  0  0  0  0  0  0  0  0
   56.0680   29.6470   44.4280 C   0  0  0  0  0  0  0  0  0  0  0  0
   56.6480   30.0430   43.1060 C   0  0  0  0  0  0  0  0  0  0  0  0
   57.6750   31.0670   43.2860 N   0  0  0  0  0  0  0  0  0  0  0  0
   57.4970   32.1530   44.2060 C   0  0  0  0  0  0  0  0  0  0  0  0
   56.4390   32.2430   44.8870 O   0  0  0  0  0  0  0  0  0  0  0  0
   58.5420   33.2180   44.3220 C   0  0  0  0  0  0  0  0  0  0  0  0
   58.8690   33.4620   45.7690 C   0  0  0  0  0  0  0  0  0  0  0  0
   59.3440   34.7150   46.1890 C   0  0  0  0  0  0  0  0  0  0  0  0
   59.6170   34.9500   47.5410 C   0  0  0  0  0  0  0  0  0  0  0  0
   59.4100   33.9370   48.4830 C   0  0  0  0  0  0  0  0  0  0  0  0
   59.6850   34.1700   49.8260 O   0  0  0  0  0  0  0  0  0  0  0  0
   58.9240   32.6910   48.0750 C   0  0  0  0  0  0  0  0  0  0  0  0
   58.6490   32.4550   46.7240 C   0  0  0  0  0  0  0  0  0  0  0  0
   56.9070   29.6400   45.5890 N   0  0  0  0  0  0  0  0  0  0  0  0
   57.5960   28.5070   46.1370 C   0  0  0  0  0  0  0  0  0  0  0  0
   58.7110   28.6480   46.9820 C   0  0  0  0  0  0  0  0  0  0  0  0
   59.3350   27.5180   47.5180 C   0  0  0  0  0  0  0  0  0  0  0  0
   58.8430   26.2420   47.2320 C   0  0  0  0  0  0  0  0  0  0  0  0
   57.7160   26.0910   46.4140 C   0  0  0  0  0  0  0  0  0  0  0  0
   57.0760   24.4930   46.0430 S   0  0  0  0  0  0  0  0  0  0  0  0
   55.5810   24.5970   45.9200 O   0  0  0  0  0  0  0  0  0  0  0  0
   57.4040   23.5380   47.1580 O   0  0  0  0  0  0  0  0  0  0  0  0
   57.7720   23.9380   44.5360 N   0  0  0  0  0  0  0  0  0  0  0  0
   58.1220   22.5010   44.5860 C   0  0  0  0  0  0  0  0  0  0  0  0
   57.0640   21.6060   43.9140 C   0  0  0  0  0  0  0  0  0  0  0  0
   55.7790   22.1660   44.0720 O   0  0  0  0  0  0  0  0  0  0  0  0
   55.6640   23.3530   43.3070 C   0  0  0  0  0  0  0  0  0  0  0  0
   56.9110   24.2650   43.3850 C   0  0  0  0  0  0  0  0  0  0  0  0
   57.0950   27.2250   45.8740 C   0  0  0  0  0  0  0  0  0  0  0  0
  1  2  2  0
  2  3  1  0
  3  4  1  0
  4  5  1  0
  5  6  2  0
  5  7  1  0
  7  8  1  0
  8  9  2  0
  9 10  1  0
 10 11  2  0
 11 12  1  0
 11 13  1  0
 13 14  2  0
  2 15  1  0
 15 16  1  0
 16 17  2  0
 17 18  1  0
 18 19  2  0
 19 20  1  0
 20 21  1  0
 21 22  2  0
 21 23  2  0
 21 24  1  0
 24 25  1  0
 25 26  1  0
 26 27  1  0
 27 28  1  0
 28 29  1  0
 20 30  2  0
 14  8  1  0
 30 16  1  0
 29 24  1  0
M  CHG  2  12  -1  15  -1
M  END
>  <UniqueID>  (128) 
41

>  <SMILES>  (128) 
O=C(CNC(=O)Cc1ccc([O-])cc1)[N-]c1cccc(S(=O)(=O)N2CCOCC2)c1

>  <Energy>  (128) 
61.331139786102774

>  <Genealogy>  (128) 
O=C(CNC(=O)Cc1ccc([O-])cc1)[N-]c1cccc(S(=O)(=O)N2CCOCC2)c1 (protonated)
O=C(CNC(=O)Cc1ccc([O-])cc1)[N-]c1cccc(S(=O)(=O)N2CCOCC2)c1 (3D coordinates assigned)
O=C(CNC(=O)Cc1ccc([O-])cc1)[N-]c1cccc(S(=O)(=O)N2CCOCC2)c1 (nonaromatic ring conformer: 61.331139786102774 kcal/mol)

>  <smiles>  (128) 
O=C(Cc1ccc(O)cc1)NCC(=O)Nc1cccc(S(=O)(=O)N2CCOCC2)c1

>  <score_type>  (128) 
oracle

>  <origin>  (128) 
adg

>  <m_score__min__energy>  (128) 
-14.42

>  <m_primary>  (128) 
energy

$$$$
74:0
     RDKit          3D

 30 32  0  0  0  0  0  0  0  0999 V2000
   58.3120   32.4730   51.0960 C   0  0  0  0  0  0  0  0  0  0  0  0
   59.3970   33.5250   50.8930 C   0  0  0  0  0  0  0  0  0  0  0  0
   59.2730   34.1390   49.6090 O   0  0  0  0  0  0  0  0  0  0  0  0
   60.1880   34.0150   48.5480 C   0  0  0  0  0  0  0  0  0  0  0  0
   61.5750   33.8790   48.7580 C   0  0  0  0  0  0  0  0  0  0  0  0
   62.4440   33.7650   47.6700 C   0  0  0  0  0  0  0  0  0  0  0  0
   61.9440   33.7870   46.3680 C   0  0  0  0  0  0  0  0  0  0  0  0
   60.5720   33.9200   46.1460 C   0  0  0  0  0  0  0  0  0  0  0  0
   59.6850   34.0350   47.2360 C   0  0  0  0  0  0  0  0  0  0  0  0
   58.2990   34.1670   47.0550 O   0  0  0  0  0  0  0  0  0  0  0  0
   57.4090   33.0860   46.7870 C   0  0  0  0  0  0  0  0  0  0  0  0
   57.4260   32.7580   45.3290 C   0  0  0  0  0  0  0  0  0  0  0  0
   58.0240   33.5170   44.5180 O   0  0  0  0  0  0  0  0  0  0  0  0
   56.7580   31.5800   44.8660 N   0  0  0  0  0  0  0  0  0  0  0  0
   57.1820   30.2300   45.1040 C   0  0  0  0  0  0  0  0  0  0  0  0
   58.5250   29.9990   45.4280 C   0  0  0  0  0  0  0  0  0  0  0  0
   58.9870   28.7000   45.6750 C   0  0  0  0  0  0  0  0  0  0  0  0
   60.6770   28.4360   46.0960 S   0  0  0  0  0  0  0  0  0  0  0  0
   61.5260   29.3080   45.2110 O   0  0  0  0  0  0  0  0  0  0  0  0
   61.0460   27.0010   45.8400 O   0  0  0  0  0  0  0  0  0  0  0  0
   60.9420   28.8670   47.7740 N   0  0  0  0  0  0  0  0  0  0  0  0
   60.9950   30.3280   47.9830 C   0  0  0  0  0  0  0  0  0  0  0  0
   59.5950   30.9530   48.0930 C   0  0  0  0  0  0  0  0  0  0  0  0
   58.8400   30.3160   49.1030 O   0  0  0  0  0  0  0  0  0  0  0  0
   58.6420   28.9600   48.7580 C   0  0  0  0  0  0  0  0  0  0  0  0
   59.9830   28.2090   48.6830 C   0  0  0  0  0  0  0  0  0  0  0  0
   58.0890   27.6240   45.6210 C   0  0  0  0  0  0  0  0  0  0  0  0
   56.7410   27.8500   45.3350 C   0  0  0  0  0  0  0  0  0  0  0  0
   56.2780   29.1480   45.0930 C   0  0  0  0  0  0  0  0  0  0  0  0
   54.9190   29.3500   44.8850 O   0  0  0  0  0  0  0  0  0  0  0  0
  1  2  1  0
  2  3  1  0
  3  4  1  0
  4  5  2  0
  5  6  1  0
  6  7  2  0
  7  8  1  0
  8  9  2  0
  9 10  1  0
 10 11  1  0
 11 12  1  0
 12 13  2  0
 12 14  1  0
 14 15  1  0
 15 16  2  0
 16 17  1  0
 17 18  1  0
 18 19  2  0
 18 20  2  0
 18 21  1  0
 21 22  1  0
 22 23  1  0
 23 24  1  0
 24 25  1  0
 25 26  1  0
 17 27  2  0
 27 28  1  0
 28 29  2  0
 29 30  1  0
  9  4  1  0
 29 15  1  0
 26 21  1  0
M  CHG  2  14  -1  30  -1
M  END
>  <UniqueID>  (129) 
69

>  <SMILES>  (129) 
CCOc1ccccc1OCC(=O)[N-]c1cc(S(=O)(=O)N2CCOCC2)ccc1[O-]

>  <Energy>  (129) 
60.511085358249204

>  <Genealogy>  (129) 
CCOc1ccccc1OCC(=O)[N-]c1cc(S(=O)(=O)N2CCOCC2)ccc1[O-] (protonated)
CCOc1ccccc1OCC(=O)[N-]c1cc(S(=O)(=O)N2CCOCC2)ccc1[O-] (3D coordinates assigned)
CCOc1ccccc1OCC(=O)[N-]c1cc(S(=O)(=O)N2CCOCC2)ccc1[O-] (nonaromatic ring conformer: 60.511085358249204 kcal/mol)

>  <smiles>  (129) 
CCOc1ccccc1OCC(=O)Nc1cc(S(=O)(=O)N2CCOCC2)ccc1O

>  <score_type>  (129) 
oracle

>  <origin>  (129) 
adg

>  <m_score__min__energy>  (129) 
-14.050000000000001

>  <m_primary>  (129) 
energy

$$$$
75:0
     RDKit          3D

 29 33  0  0  0  0  0  0  0  0999 V2000
   57.7510   27.1340   45.1280 C   0  0  0  0  0  0  0  0  0  0  0  0
   57.2390   26.1010   46.0500 C   0  0  0  0  0  0  0  0  0  0  0  0
   57.9670   25.1100   46.5970 N   0  0  0  0  0  0  0  0  0  0  0  0
   57.0520   24.3800   47.2690 C   0  0  0  0  0  0  0  0  0  0  0  0
   57.3570   23.3550   47.9310 O   0  0  0  0  0  0  0  0  0  0  0  0
   55.7830   24.8300   47.1670 N   0  0  0  0  0  0  0  0  0  0  0  0
   55.9190   25.9130   46.3850 C   0  0  0  0  0  0  0  0  0  0  0  0
   54.8570   26.7110   45.9810 O   0  0  0  0  0  0  0  0  0  0  0  0
   57.4520   28.4430   45.1710 C   0  0  0  0  0  0  0  0  0  0  0  0
   56.3240   29.0280   44.6010 C   0  0  0  0  0  0  0  0  0  0  0  0
   56.3110   30.3580   44.8510 N   0  0  0  0  0  0  0  0  0  0  0  0
   57.3920   30.6310   45.5660 N   0  0  0  0  0  0  0  0  0  0  0  0
   57.7900   31.8250   46.0930 C   0  0  0  0  0  0  0  0  0  0  0  0
   57.1390   32.9390   45.9090 N   0  0  0  0  0  0  0  0  0  0  0  0
   57.6560   34.1580   45.2990 C   0  0  0  0  0  0  0  0  0  0  0  0
   58.9700   34.6350   45.8910 C   0  0  0  0  0  0  0  0  0  0  0  0
   58.9540   33.9230   44.5470 C   0  0  0  0  0  0  0  0  0  0  0  0
   58.9170   31.8390   46.8530 N   0  0  0  0  0  0  0  0  0  0  0  0
   59.6320   30.6930   47.0800 C   0  0  0  0  0  0  0  0  0  0  0  0
   60.6940   30.6990   47.8320 N   0  0  0  0  0  0  0  0  0  0  0  0
   61.6530   31.7620   47.9650 C   0  0  0  0  0  0  0  0  0  0  0  0
   62.8020   31.8390   47.1540 C   0  0  0  0  0  0  0  0  0  0  0  0
   63.7280   32.8700   47.3410 C   0  0  0  0  0  0  0  0  0  0  0  0
   63.5270   33.8180   48.3480 C   0  0  0  0  0  0  0  0  0  0  0  0
   62.4060   33.7300   49.1770 C   0  0  0  0  0  0  0  0  0  0  0  0
   62.2190   34.6410   50.1640 F   0  0  0  0  0  0  0  0  0  0  0  0
   61.4780   32.6990   48.9930 C   0  0  0  0  0  0  0  0  0  0  0  0
   59.2040   29.5140   46.5500 N   0  0  0  0  0  0  0  0  0  0  0  0
   58.0930   29.5100   45.7800 C   0  0  0  0  0  0  0  0  0  0  0  0
  1  2  1  0
  2  3  1  0
  3  4  1  0
  4  5  2  0
  4  6  1  0
  6  7  1  0
  7  8  1  0
  1  9  2  3
  9 10  1  0
 10 11  2  0
 11 12  1  0
 12 13  1  0
 13 14  2  3
 14 15  1  0
 15 16  1  0
 16 17  1  0
 13 18  1  0
 18 19  1  0
 19 20  2  0
 20 21  1  0
 21 22  2  0
 22 23  1  0
 23 24  2  0
 24 25  1  0
 25 26  1  0
 25 27  2  0
 19 28  1  0
 28 29  2  0
  7  2  2  0
 29  9  1  0
 29 12  1  0
 17 15  1  0
 27 21  1  0
M  CHG  4   3  -1   6  -1   8  -1  18  -1
M  END
>  <UniqueID>  (130) 
70

>  <SMILES>  (130) 
O=c1[n-]c([O-])c(C=c2cnn3c(=NC4CC4)[n-]/c(=N\c4cccc(F)c4)nc23)[n-]1

>  <Energy>  (130) 
392.0809484045386

>  <Genealogy>  (130) 
O=c1[n-]c([O-])c(C=c2cnn3c(=NC4CC4)[n-]c(=Nc4cccc(F)c4)nc23)[n-]1 (protonated)
O=c1[n-]c([O-])c(C=c2cnn3c(=NC4CC4)[n-]/c(=N\c4cccc(F)c4)nc23)[n-]1 (cis-trans isomerization)
O=c1[n-]c([O-])c(C=c2cnn3c(=NC4CC4)[n-]/c(=N\c4cccc(F)c4)nc23)[n-]1 (3D coordinates assigned)
O=c1[n-]c([O-])c(C=c2cnn3c(=NC4CC4)[n-]/c(=N\c4cccc(F)c4)nc23)[n-]1 (nonaromatic ring conformer: 392.0809484045386 kcal/mol)

>  <smiles>  (130) 
O=c1[nH]c(O)c(C=c2cnn3c(=NC4CC4)[nH]c(=Nc4cccc(F)c4)nc23)[nH]1

>  <score_type>  (130) 
oracle

>  <origin>  (130) 
adg

>  <m_score__min__energy>  (130) 
-17.609999999999999

>  <m_primary>  (130) 
energy

$$$$
24:0
     RDKit          3D

 29 31  0  0  0  0  0  0  0  0999 V2000
   56.5110   22.8150   45.1640 C   0  0  0  0  0  0  0  0  0  0  0  0
   56.9770   23.6860   46.0970 N   0  0  0  0  0  0  0  0  0  0  0  0
   56.3310   24.8530   46.3850 C   0  0  0  0  0  0  0  0  0  0  0  0
   56.7900   25.6690   47.2910 N   0  0  0  0  0  0  0  0  0  0  0  0
   58.1030   26.2490   47.3180 C   0  0  0  0  0  0  0  0  0  0  0  0
   58.8680   25.9580   48.2750 O   0  0  0  0  0  0  0  0  0  0  0  0
   58.5560   27.2300   46.3010 C   0  0  0  0  0  0  0  0  0  0  0  0
   59.9230   27.3550   46.0000 C   0  0  0  0  0  0  0  0  0  0  0  0
   60.3590   28.3020   45.0690 C   0  0  0  0  0  0  0  0  0  0  0  0
   59.4390   29.1450   44.4430 C   0  0  0  0  0  0  0  0  0  0  0  0
   58.0750   29.0500   44.7510 C   0  0  0  0  0  0  0  0  0  0  0  0
   56.9110   30.1520   44.0210 S   0  0  0  0  0  0  0  0  0  0  0  0
   55.6720   30.1700   44.8710 O   0  0  0  0  0  0  0  0  0  0  0  0
   56.5440   29.6820   42.6400 O   0  0  0  0  0  0  0  0  0  0  0  0
   57.5640   31.7660   43.9390 N   0  0  0  0  0  0  0  0  0  0  0  0
   57.0610   32.6080   45.0280 C   0  0  0  0  0  0  0  0  0  0  0  0
   58.1990   33.2730   45.7640 C   0  0  0  0  0  0  0  0  0  0  0  0
   58.6750   34.5120   45.3030 C   0  0  0  0  0  0  0  0  0  0  0  0
   59.6920   35.1800   45.9880 C   0  0  0  0  0  0  0  0  0  0  0  0
   60.2490   34.6150   47.1350 C   0  0  0  0  0  0  0  0  0  0  0  0
   59.7930   33.3800   47.6010 C   0  0  0  0  0  0  0  0  0  0  0  0
   58.7650   32.6940   46.9230 C   0  0  0  0  0  0  0  0  0  0  0  0
   58.2800   31.4570   47.3780 O   0  0  0  0  0  0  0  0  0  0  0  0
   59.0960   30.3980   47.8660 C   0  0  0  0  0  0  0  0  0  0  0  0
   57.6370   28.0870   45.6680 C   0  0  0  0  0  0  0  0  0  0  0  0
   55.1370   25.1630   45.7150 C   0  0  0  0  0  0  0  0  0  0  0  0
   54.4480   26.3370   45.9950 O   0  0  0  0  0  0  0  0  0  0  0  0
   54.6420   24.2780   44.7510 C   0  0  0  0  0  0  0  0  0  0  0  0
   55.3330   23.0980   44.4710 C   0  0  0  0  0  0  0  0  0  0  0  0
  1  2  1  0
  2  3  1  0
  3  4  2  0
  4  5  1  0
  5  6  2  0
  5  7  1  0
  7  8  2  0
  8  9  1  0
  9 10  2  0
 10 11  1  0
 11 12  1  0
 12 13  2  0
 12 14  2  0
 12 15  1  0
 15 16  1  0
 16 17  1  0
 17 18  2  0
 18 19  1  0
 19 20  2  0
 20 21  1  0
 21 22  2  0
 22 23  1  0
 23 24  1  0
 11 25  2  0
  3 26  1  0
 26 27  1  0
 26 28  2  0
 28 29  1  0
 29  1  2  0
 25  7  1  0
 22 17  1  0
M  CHG  3   2  -1  15  -1  27  -1
M  END
>  <UniqueID>  (131) 
23

>  <SMILES>  (131) 
COc1ccccc1C[N-]S(=O)(=O)c1cccc(C(=O)/N=c2\[n-]cccc2[O-])c1

>  <Energy>  (131) 
50.51544596183341

>  <Genealogy>  (131) 
COc1ccccc1C[N-]S(=O)(=O)c1cccc(C(=O)N=c2[n-]cccc2[O-])c1 (protonated)
COc1ccccc1C[N-]S(=O)(=O)c1cccc(C(=O)/N=c2\[n-]cccc2[O-])c1 (cis-trans isomerization)
COc1ccccc1C[N-]S(=O)(=O)c1cccc(C(=O)/N=c2\[n-]cccc2[O-])c1 (3D coordinates assigned)
COc1ccccc1C[N-]S(=O)(=O)c1cccc(C(=O)/N=c2\[n-]cccc2[O-])c1 (optimized conformer: 50.51544596183341 kcal/mol)

>  <smiles>  (131) 
COc1ccccc1CNS(=O)(=O)c1cccc(C(=O)N=c2[nH]cccc2O)c1

>  <score_type>  (131) 
oracle

>  <origin>  (131) 
adg

>  <m_score__min__energy>  (131) 
-15.99

>  <m_primary>  (131) 
energy

$$$$
32:0
     RDKit          3D

 29 32  0  0  0  0  0  0  0  0999 V2000
   58.0760   32.4470   46.9190 C   0  0  0  0  0  0  0  0  0  0  0  0
   58.7900   33.1430   47.8340 N   0  0  0  0  0  0  0  0  0  0  0  0
   60.1170   32.9280   48.0250 C   0  0  0  0  0  0  0  0  0  0  0  0
   60.7860   33.7120   48.9740 C   0  0  0  0  0  0  0  0  0  0  0  0
   62.1570   33.5630   49.1680 C   0  0  0  0  0  0  0  0  0  0  0  0
   62.9930   34.5630   50.3420 Cl  0  0  0  0  0  0  0  0  0  0  0  0
   62.8690   32.6400   48.4060 C   0  0  0  0  0  0  0  0  0  0  0  0
   62.2140   31.8450   47.4590 C   0  0  0  0  0  0  0  0  0  0  0  0
   60.8130   31.9390   47.2640 C   0  0  0  0  0  0  0  0  0  0  0  0
   60.0460   31.1470   46.3370 C   0  0  0  0  0  0  0  0  0  0  0  0
   60.4710   30.1100   45.6600 N   0  0  0  0  0  0  0  0  0  0  0  0
   59.8220   28.8770   45.2320 C   0  0  0  0  0  0  0  0  0  0  0  0
   59.3570   28.1020   46.4630 C   0  0  0  0  0  0  0  0  0  0  0  0
   58.1250   27.3720   46.1720 N   0  0  0  0  0  0  0  0  0  0  0  0
   57.7800   26.1460   46.8370 C   0  0  0  0  0  0  0  0  0  0  0  0
   58.5710   25.6470   47.6820 O   0  0  0  0  0  0  0  0  0  0  0  0
   56.5100   25.4460   46.5290 C   0  0  0  0  0  0  0  0  0  0  0  0
   55.4390   26.1210   45.9140 C   0  0  0  0  0  0  0  0  0  0  0  0
   55.5280   27.4760   45.6160 O   0  0  0  0  0  0  0  0  0  0  0  0
   54.2890   25.4580   45.6270 N   0  0  0  0  0  0  0  0  0  0  0  0
   54.1120   24.1480   45.9320 C   0  0  0  0  0  0  0  0  0  0  0  0
   55.1280   23.4310   46.5840 C   0  0  0  0  0  0  0  0  0  0  0  0
   56.3440   24.0840   46.8610 C   0  0  0  0  0  0  0  0  0  0  0  0
   57.2910   23.4450   47.3940 O   0  0  0  0  0  0  0  0  0  0  0  0
   54.9430   21.9520   46.8670 C   0  0  0  0  0  0  0  0  0  0  0  0
   53.4690   21.5090   47.0810 C   0  0  0  0  0  0  0  0  0  0  0  0
   52.4070   22.5840   46.7710 C   0  0  0  0  0  0  0  0  0  0  0  0
   52.8230   23.4670   45.5970 C   0  0  0  0  0  0  0  0  0  0  0  0
   58.6880   31.4530   46.1650 C   0  0  0  0  0  0  0  0  0  0  0  0
  1  2  1  0
  2  3  1  0
  3  4  2  0
  4  5  1  0
  5  6  1  0
  5  7  2  0
  7  8  1  0
  8  9  2  0
  9 10  1  0
 10 11  2  0
 11 12  1  0
 12 13  1  0
 13 14  1  0
 14 15  1  0
 15 16  2  0
 15 17  1  0
 17 18  2  0
 18 19  1  0
 18 20  1  0
 20 21  1  0
 21 22  2  0
 22 23  1  0
 23 24  2  0
 22 25  1  0
 25 26  1  0
 26 27  1  0
 27 28  1  0
 10 29  1  0
 29  1  2  0
  9  3  1  0
 23 17  1  0
 28 21  1  0
M  CHG  3   2  -1  19  -1  20  -1
M  END
>  <UniqueID>  (132) 
31

>  <SMILES>  (132) 
O=C(NCC/N=c1/cc[n-]c2cc(Cl)ccc12)c1c([O-])[n-]c2c(c1=O)CCCC2

>  <Energy>  (132) 
76.18947350962283

>  <Genealogy>  (132) 
O=C(NCCN=c1cc[n-]c2cc(Cl)ccc12)c1c([O-])[n-]c2c(c1=O)CCCC2 (protonated)
O=C(NCC/N=c1/cc[n-]c2cc(Cl)ccc12)c1c([O-])[n-]c2c(c1=O)CCCC2 (cis-trans isomerization)
O=C(NCC/N=c1/cc[n-]c2cc(Cl)ccc12)c1c([O-])[n-]c2c(c1=O)CCCC2 (3D coordinates assigned)
O=C(NCC/N=c1/cc[n-]c2cc(Cl)ccc12)c1c([O-])[n-]c2c(c1=O)CCCC2 (nonaromatic ring conformer: 76.18947350962283 kcal/mol)

>  <smiles>  (132) 
O=C(NCCN=c1cc[nH]c2cc(Cl)ccc12)c1c(O)[nH]c2c(c1=O)CCCC2

>  <score_type>  (132) 
oracle

>  <origin>  (132) 
adg

>  <m_score__min__energy>  (132) 
-14.66

>  <m_primary>  (132) 
energy

$$$$
61:0
     RDKit          3D

 32 34  0  0  0  0  0  0  0  0999 V2000
   50.7950   24.7500   44.6820 C   0  0  0  0  0  0  0  0  0  0  0  0
   52.2320   24.8870   44.8810 N   0  0  0  0  0  0  0  0  0  0  0  0
   53.0770   23.7440   45.0750 C   0  0  0  0  0  0  0  0  0  0  0  0
   52.5600   22.6040   45.2350 O   0  0  0  0  0  0  0  0  0  0  0  0
   54.5510   23.8860   45.1280 C   0  0  0  0  0  0  0  0  0  0  0  0
   55.3560   22.8240   44.6790 C   0  0  0  0  0  0  0  0  0  0  0  0
   56.7470   22.9180   44.7310 C   0  0  0  0  0  0  0  0  0  0  0  0
   57.3550   24.0760   45.2150 C   0  0  0  0  0  0  0  0  0  0  0  0
   56.5740   25.1660   45.6310 C   0  0  0  0  0  0  0  0  0  0  0  0
   57.2530   26.4010   46.1650 C   0  0  0  0  0  0  0  0  0  0  0  0
   58.1660   26.0360   47.2940 C   0  0  0  0  0  0  0  0  0  0  0  0
   57.9440   24.9930   47.9640 O   0  0  0  0  0  0  0  0  0  0  0  0
   59.2700   26.8890   47.6160 N   0  0  0  0  0  0  0  0  0  0  0  0
   59.3230   28.2980   47.3560 C   0  0  0  0  0  0  0  0  0  0  0  0
   59.5820   28.7340   46.0510 C   0  0  0  0  0  0  0  0  0  0  0  0
   59.6560   30.0980   45.7600 C   0  0  0  0  0  0  0  0  0  0  0  0
   59.4830   31.0480   46.7780 C   0  0  0  0  0  0  0  0  0  0  0  0
   59.5880   32.4910   46.4750 C   0  0  0  0  0  0  0  0  0  0  0  0
   58.4730   33.1350   45.9120 C   0  0  0  0  0  0  0  0  0  0  0  0
   58.5340   34.4840   45.5600 C   0  0  0  0  0  0  0  0  0  0  0  0
   59.7080   35.2060   45.7670 C   0  0  0  0  0  0  0  0  0  0  0  0
   60.8200   34.5860   46.3410 C   0  0  0  0  0  0  0  0  0  0  0  0
   60.7740   33.2330   46.7120 C   0  0  0  0  0  0  0  0  0  0  0  0
   62.1940   32.5210   47.4990 S   0  0  0  0  0  0  0  0  0  0  0  0
   63.6350   33.3400   47.0060 N   0  0  0  0  0  0  0  0  0  0  0  0
   62.3200   31.0740   47.1110 O   0  0  0  0  0  0  0  0  0  0  0  0
   62.0450   32.6150   48.9910 O   0  0  0  0  0  0  0  0  0  0  0  0
   59.2730   30.6130   48.0950 C   0  0  0  0  0  0  0  0  0  0  0  0
   59.1940   29.2480   48.3870 C   0  0  0  0  0  0  0  0  0  0  0  0
   59.0510   28.8590   49.6790 F   0  0  0  0  0  0  0  0  0  0  0  0
   55.1670   25.0690   45.5920 C   0  0  0  0  0  0  0  0  0  0  0  0
   54.3900   26.1560   45.9840 O   0  0  0  0  0  0  0  0  0  0  0  0
  1  2  1  0
  2  3  1  0
  3  4  2  0
  3  5  1  0
  5  6  2  0
  6  7  1  0
  7  8  2  0
  8  9  1  0
  9 10  1  0
 10 11  1  0
 11 12  2  0
 11 13  1  0
 13 14  1  0
 14 15  2  0
 15 16  1  0
 16 17  2  0
 17 18  1  0
 18 19  2  0
 19 20  1  0
 20 21  2  0
 21 22  1  0
 22 23  2  0
 23 24  1  0
 24 25  1  0
 24 26  2  0
 24 27  2  0
 17 28  1  0
 28 29  2  0
 29 30  1  0
  9 31  2  0
 31 32  1  0
 31  5  1  0
 29 14  1  0
 23 18  1  0
M  CHG  3  13  -1  25  -1  32  -1
M  END
>  <UniqueID>  (133) 
58

>  <SMILES>  (133) 
CNC(=O)c1cccc(CC(=O)[N-]c2ccc(-c3ccccc3S([NH-])(=O)=O)cc2F)c1[O-]

>  <Energy>  (133) 
65.13424525231106

>  <Genealogy>  (133) 
CNC(=O)c1cccc(CC(=O)[N-]c2ccc(-c3ccccc3S([NH-])(=O)=O)cc2F)c1[O-] (protonated)
CNC(=O)c1cccc(CC(=O)[N-]c2ccc(-c3ccccc3S([NH-])(=O)=O)cc2F)c1[O-] (3D coordinates assigned)
CNC(=O)c1cccc(CC(=O)[N-]c2ccc(-c3ccccc3S([NH-])(=O)=O)cc2F)c1[O-] (optimized conformer: 65.13424525231106 kcal/mol)

>  <smiles>  (133) 
CNC(=O)c1cccc(CC(=O)Nc2ccc(-c3ccccc3S(N)(=O)=O)cc2F)c1O

>  <score_type>  (133) 
oracle

>  <origin>  (133) 
adg

>  <m_score__min__energy>  (133) 
-14.609999999999999

>  <m_primary>  (133) 
energy

$$$$
38:0
     RDKit          3D

 27 29  0  0  0  0  0  0  0  0999 V2000
   55.8860   25.0380   46.7770 O   0  0  0  0  0  0  0  0  0  0  0  0
   56.3630   26.0780   46.2530 C   0  0  0  0  0  0  0  0  0  0  0  0
   55.5330   27.0610   45.8210 N   0  0  0  0  0  0  0  0  0  0  0  0
   56.0220   28.1950   45.2560 C   0  0  0  0  0  0  0  0  0  0  0  0
   55.1370   29.1780   44.8320 O   0  0  0  0  0  0  0  0  0  0  0  0
   57.4100   28.3660   45.1090 C   0  0  0  0  0  0  0  0  0  0  0  0
   57.9740   29.6340   44.5050 C   0  0  0  0  0  0  0  0  0  0  0  0
   58.9890   30.3210   45.4280 C   0  0  0  0  0  0  0  0  0  0  0  0
   58.7820   31.8200   45.4920 C   0  0  0  0  0  0  0  0  0  0  0  0
   58.0340   32.4360   44.4740 C   0  0  0  0  0  0  0  0  0  0  0  0
   57.7990   33.8120   44.4950 C   0  0  0  0  0  0  0  0  0  0  0  0
   58.3100   34.5920   45.5300 C   0  0  0  0  0  0  0  0  0  0  0  0
   59.0490   33.9980   46.5540 C   0  0  0  0  0  0  0  0  0  0  0  0
   59.2740   32.6100   46.5620 C   0  0  0  0  0  0  0  0  0  0  0  0
   60.0530   32.0260   47.6210 N   0  0  0  0  0  0  0  0  0  0  0  0
   59.4930   31.4430   48.8140 C   0  0  0  0  0  0  0  0  0  0  0  0
   58.6670   32.1790   49.6830 C   0  0  0  0  0  0  0  0  0  0  0  0
   58.1150   31.5760   50.8170 C   0  0  0  0  0  0  0  0  0  0  0  0
   58.3640   30.2220   51.1000 C   0  0  0  0  0  0  0  0  0  0  0  0
   57.7880   29.5960   52.2600 N   0  0  0  0  0  0  0  0  0  0  0  0
   56.5630   29.3570   52.3140 O   0  0  0  0  0  0  0  0  0  0  0  0
   58.5780   29.2480   53.3320 O   0  0  0  0  0  0  0  0  0  0  0  0
   59.1800   29.4860   50.2250 C   0  0  0  0  0  0  0  0  0  0  0  0
   59.7360   30.0900   49.0940 C   0  0  0  0  0  0  0  0  0  0  0  0
   58.2470   27.3220   45.5480 C   0  0  0  0  0  0  0  0  0  0  0  0
   59.4980   27.4020   45.4250 O   0  0  0  0  0  0  0  0  0  0  0  0
   57.7060   26.2120   46.1130 N   0  0  0  0  0  0  0  0  0  0  0  0
  1  2  2  0
  2  3  1  0
  3  4  1  0
  4  5  1  0
  4  6  2  0
  6  7  1  0
  7  8  1  0
  8  9  1  0
  9 10  2  0
 10 11  1  0
 11 12  2  0
 12 13  1  0
 13 14  2  0
 14 15  1  0
 15 16  1  0
 16 17  2  0
 17 18  1  0
 18 19  2  0
 19 20  1  0
 20 21  2  0
 20 22  1  0
 19 23  1  0
 23 24  2  0
  6 25  1  0
 25 26  2  0
 25 27  1  0
 27  2  1  0
 14  9  1  0
 24 16  1  0
M  CHG  5   3  -1   5  -1  20   1  22  -1  27  -1
M  END
>  <UniqueID>  (134) 
36

>  <SMILES>  (134) 
O=c1[n-]c([O-])c(CCc2ccccc2Nc2ccc([N+](=O)[O-])cc2)c(=O)[n-]1

>  <Energy>  (134) 
47.658924752591254

>  <Genealogy>  (134) 
O=c1[n-]c([O-])c(CCc2ccccc2Nc2ccc([N+](=O)[O-])cc2)c(=O)[n-]1 (protonated)
O=c1[n-]c([O-])c(CCc2ccccc2Nc2ccc([N+](=O)[O-])cc2)c(=O)[n-]1 (3D coordinates assigned)
O=c1[n-]c([O-])c(CCc2ccccc2Nc2ccc([N+](=O)[O-])cc2)c(=O)[n-]1 (optimized conformer: 47.658924752591254 kcal/mol)

>  <smiles>  (134) 
O=c1[nH]c(O)c(CCc2ccccc2Nc2ccc([N+](=O)[O-])cc2)c(=O)[nH]1

>  <score_type>  (134) 
oracle

>  <origin>  (134) 
adg

>  <m_score__min__energy>  (134) 
-15.44

>  <m_primary>  (134) 
energy

$$$$
57:0
     RDKit          3D

 29 31  0  0  0  0  0  0  0  0999 V2000
   55.5270   31.1770   44.7130 O   0  0  0  0  0  0  0  0  0  0  0  0
   55.9640   30.0730   44.2890 C   0  0  0  0  0  0  0  0  0  0  0  0
   56.9900   30.0470   43.2010 C   0  0  0  0  0  0  0  0  0  0  0  0
   57.6250   31.4030   43.0360 C   0  0  0  0  0  0  0  0  0  0  0  0
   57.6720   31.8970   41.8760 O   0  0  0  0  0  0  0  0  0  0  0  0
   58.1620   32.1830   44.1870 C   0  0  0  0  0  0  0  0  0  0  0  0
   58.3700   31.5480   45.4280 C   0  0  0  0  0  0  0  0  0  0  0  0
   58.8840   32.2610   46.5160 C   0  0  0  0  0  0  0  0  0  0  0  0
   59.1970   33.6140   46.3820 C   0  0  0  0  0  0  0  0  0  0  0  0
   58.9960   34.2590   45.1600 C   0  0  0  0  0  0  0  0  0  0  0  0
   59.3080   35.6070   45.0290 O   0  0  0  0  0  0  0  0  0  0  0  0
   58.4800   33.5520   44.0680 C   0  0  0  0  0  0  0  0  0  0  0  0
   55.5320   28.8440   44.8870 N   0  0  0  0  0  0  0  0  0  0  0  0
   56.3940   27.8740   45.4970 C   0  0  0  0  0  0  0  0  0  0  0  0
   57.7730   28.1220   45.5160 C   0  0  0  0  0  0  0  0  0  0  0  0
   58.6550   27.1980   46.0910 C   0  0  0  0  0  0  0  0  0  0  0  0
   60.3800   27.5560   46.1480 S   0  0  0  0  0  0  0  0  0  0  0  0
   61.1720   26.2780   46.0950 O   0  0  0  0  0  0  0  0  0  0  0  0
   60.7390   28.3920   44.9510 O   0  0  0  0  0  0  0  0  0  0  0  0
   60.7570   28.4320   47.6120 N   0  0  0  0  0  0  0  0  0  0  0  0
   60.9910   29.8540   47.3010 C   0  0  0  0  0  0  0  0  0  0  0  0
   60.8100   30.7210   48.5570 C   0  0  0  0  0  0  0  0  0  0  0  0
   59.5130   30.6420   49.1380 O   0  0  0  0  0  0  0  0  0  0  0  0
   58.8020   29.4630   48.7920 C   0  0  0  0  0  0  0  0  0  0  0  0
   59.7090   28.2290   48.6390 C   0  0  0  0  0  0  0  0  0  0  0  0
   58.1540   26.0140   46.6450 C   0  0  0  0  0  0  0  0  0  0  0  0
   56.7850   25.7440   46.6000 C   0  0  0  0  0  0  0  0  0  0  0  0
   55.9030   26.6580   46.0150 C   0  0  0  0  0  0  0  0  0  0  0  0
   54.5540   26.3350   45.9270 O   0  0  0  0  0  0  0  0  0  0  0  0
  1  2  2  0
  2  3  1  0
  3  4  1  0
  4  5  2  0
  4  6  1  0
  6  7  2  0
  7  8  1  0
  8  9  2  0
  9 10  1  0
 10 11  1  0
 10 12  2  0
  2 13  1  0
 13 14  1  0
 14 15  2  0
 15 16  1  0
 16 17  1  0
 17 18  2  0
 17 19  2  0
 17 20  1  0
 20 21  1  0
 21 22  1  0
 22 23  1  0
 23 24  1  0
 24 25  1  0
 16 26  2  0
 26 27  1  0
 27 28  2  0
 28 29  1  0
 12  6  1  0
 28 14  1  0
 25 20  1  0
M  CHG  3  11  -1  13  -1  29  -1
M  END
>  <UniqueID>  (135) 
54

>  <SMILES>  (135) 
O=C(CC(=O)c1cccc([O-])c1)[N-]c1cc(S(=O)(=O)N2CCOCC2)ccc1[O-]

>  <Energy>  (135) 
64.74759168732706

>  <Genealogy>  (135) 
O=C(CC(=O)c1cccc([O-])c1)[N-]c1cc(S(=O)(=O)N2CCOCC2)ccc1[O-] (protonated)
O=C(CC(=O)c1cccc([O-])c1)[N-]c1cc(S(=O)(=O)N2CCOCC2)ccc1[O-] (3D coordinates assigned)
O=C(CC(=O)c1cccc([O-])c1)[N-]c1cc(S(=O)(=O)N2CCOCC2)ccc1[O-] (nonaromatic ring conformer: 64.74759168732706 kcal/mol)

>  <smiles>  (135) 
O=C(CC(=O)c1cccc(O)c1)Nc1cc(S(=O)(=O)N2CCOCC2)ccc1O

>  <score_type>  (135) 
oracle

>  <origin>  (135) 
adg

>  <m_score__min__energy>  (135) 
-16.02

>  <m_primary>  (135) 
energy

$$$$
67:0
     RDKit          3D

 21 22  0  0  0  0  0  0  0  0999 V2000
   55.1850   29.8360   44.7810 N   0  0  0  0  0  0  0  0  0  0  0  0
   56.8580   30.1860   44.5320 S   0  0  0  0  0  0  0  0  0  0  0  0
   57.2200   31.4670   45.2310 O   0  0  0  0  0  0  0  0  0  0  0  0
   57.1170   30.3420   43.0590 O   0  0  0  0  0  0  0  0  0  0  0  0
   57.8350   28.8760   45.1650 C   0  0  0  0  0  0  0  0  0  0  0  0
   58.9180   29.0220   46.0200 C   0  0  0  0  0  0  0  0  0  0  0  0
   59.5120   27.8020   46.3610 C   0  0  0  0  0  0  0  0  0  0  0  0
   58.8820   26.7050   45.7810 C   0  0  0  0  0  0  0  0  0  0  0  0
   59.3250   25.2810   45.9050 C   0  0  0  0  0  0  0  0  0  0  0  0
   58.1700   24.3960   46.0180 N   0  0  0  0  0  0  0  0  0  0  0  0
   57.0800   24.7340   46.6370 C   0  0  0  0  0  0  0  0  0  0  0  0
   55.7410   24.3550   46.1190 C   0  0  0  0  0  0  0  0  0  0  0  0
   54.8010   25.3570   45.8150 C   0  0  0  0  0  0  0  0  0  0  0  0
   55.1090   26.7010   45.9940 O   0  0  0  0  0  0  0  0  0  0  0  0
   53.5750   25.0210   45.3380 N   0  0  0  0  0  0  0  0  0  0  0  0
   53.2280   23.7240   45.1460 C   0  0  0  0  0  0  0  0  0  0  0  0
   51.7450   23.3540   44.5730 S   0  0  0  0  0  0  0  0  0  0  0  0
   54.1110   22.7360   45.4300 N   0  0  0  0  0  0  0  0  0  0  0  0
   55.3510   23.0130   45.9080 C   0  0  0  0  0  0  0  0  0  0  0  0
   56.1360   22.0590   46.1540 O   0  0  0  0  0  0  0  0  0  0  0  0
   57.6050   27.2450   44.8270 S   0  0  0  0  0  0  0  0  0  0  0  0
  1  2  1  0
  2  3  2  0
  2  4  2  0
  2  5  1  0
  5  6  2  0
  6  7  1  0
  7  8  2  0
  8  9  1  0
  9 10  1  0
 10 11  2  3
 11 12  1  0
 12 13  2  0
 13 14  1  0
 13 15  1  0
 15 16  1  0
 16 17  2  0
 16 18  1  0
 18 19  1  0
 19 20  2  0
  8 21  1  0
 21  5  1  0
 19 12  1  0
M  CHG  4   1  -1  14  -1  15  -1  18  -1
M  END
>  <UniqueID>  (136) 
64

>  <SMILES>  (136) 
[NH-]S(=O)(=O)c1ccc(CN=Cc2c([O-])[n-]c(=S)[n-]c2=O)s1

>  <Energy>  (136) 
53.96953112672682

>  <Genealogy>  (136) 
[NH-]S(=O)(=O)c1ccc(CN=Cc2c([O-])[n-]c(=S)[n-]c2=O)s1 (protonated)
[NH-]S(=O)(=O)c1ccc(CN=Cc2c([O-])[n-]c(=S)[n-]c2=O)s1 (3D coordinates assigned)
[NH-]S(=O)(=O)c1ccc(CN=Cc2c([O-])[n-]c(=S)[n-]c2=O)s1 (optimized conformer: 53.96953112672682 kcal/mol)

>  <smiles>  (136) 
NS(=O)(=O)c1ccc(CN=Cc2c(O)[nH]c(=S)[nH]c2=O)s1

>  <score_type>  (136) 
oracle

>  <origin>  (136) 
adg

>  <m_score__min__energy>  (136) 
-16.190000000000001

>  <m_primary>  (136) 
energy

$$$$
86:0
     RDKit          3D

 31 33  0  0  0  0  0  0  0  0999 V2000
   54.7740   26.1150   45.9970 N   0  0  0  0  0  0  0  0  0  0  0  0
   56.3520   25.4650   46.2780 S   0  0  0  0  0  0  0  0  0  0  0  0
   56.4190   24.9130   47.6730 O   0  0  0  0  0  0  0  0  0  0  0  0
   56.5950   24.3600   45.2880 O   0  0  0  0  0  0  0  0  0  0  0  0
   57.5740   26.7220   46.0860 C   0  0  0  0  0  0  0  0  0  0  0  0
   57.4530   27.6670   45.0570 C   0  0  0  0  0  0  0  0  0  0  0  0
   58.4340   28.6620   44.8750 C   0  0  0  0  0  0  0  0  0  0  0  0
   58.3580   29.6230   43.8020 N   0  0  0  0  0  0  0  0  0  0  0  0
   58.2190   31.0700   43.9850 C   0  0  0  0  0  0  0  0  0  0  0  0
   57.0090   31.4080   44.8060 C   0  0  0  0  0  0  0  0  0  0  0  0
   56.0430   30.6000   44.8310 O   0  0  0  0  0  0  0  0  0  0  0  0
   56.9100   32.6830   45.4560 N   0  0  0  0  0  0  0  0  0  0  0  0
   57.9300   33.3460   46.2150 C   0  0  0  0  0  0  0  0  0  0  0  0
   58.6900   34.3410   45.5880 C   0  0  0  0  0  0  0  0  0  0  0  0
   59.6970   35.0090   46.2890 C   0  0  0  0  0  0  0  0  0  0  0  0
   59.9640   34.6750   47.6190 C   0  0  0  0  0  0  0  0  0  0  0  0
   59.2310   33.6630   48.2520 C   0  0  0  0  0  0  0  0  0  0  0  0
   59.5740   33.2310   49.9290 S   0  0  0  0  0  0  0  0  0  0  0  0
   59.4260   34.4500   50.7960 O   0  0  0  0  0  0  0  0  0  0  0  0
   60.9970   32.7560   50.0330 O   0  0  0  0  0  0  0  0  0  0  0  0
   58.5040   31.9780   50.5070 N   0  0  0  0  0  0  0  0  0  0  0  0
   57.7550   32.4390   51.6850 C   0  0  0  0  0  0  0  0  0  0  0  0
   56.7920   31.3300   52.1610 C   0  0  0  0  0  0  0  0  0  0  0  0
   57.0100   30.1020   51.4870 O   0  0  0  0  0  0  0  0  0  0  0  0
   58.3750   29.7410   51.5730 C   0  0  0  0  0  0  0  0  0  0  0  0
   59.2660   30.7600   50.8340 C   0  0  0  0  0  0  0  0  0  0  0  0
   58.2220   32.9920   47.5450 C   0  0  0  0  0  0  0  0  0  0  0  0
   59.5240   28.7080   45.7570 C   0  0  0  0  0  0  0  0  0  0  0  0
   59.6360   27.7830   46.7970 C   0  0  0  0  0  0  0  0  0  0  0  0
   58.6670   26.7920   46.9650 C   0  0  0  0  0  0  0  0  0  0  0  0
   58.7930   25.9070   47.9860 F   0  0  0  0  0  0  0  0  0  0  0  0
  1  2  1  0
  2  3  2  0
  2  4  2  0
  2  5  1  0
  5  6  2  0
  6  7  1  0
  7  8  1  0
  8  9  1  0
  9 10  1  0
 10 11  2  0
 10 12  1  0
 12 13  1  0
 13 14  2  0
 14 15  1  0
 15 16  2  0
 16 17  1  0
 17 18  1  0
 18 19  2  0
 18 20  2  0
 18 21  1  0
 21 22  1  0
 22 23  1  0
 23 24  1  0
 24 25  1  0
 25 26  1  0
 17 27  2  0
  7 28  2  0
 28 29  1  0
 29 30  2  0
 30 31  1  0
 30  5  1  0
 27 13  1  0
 26 21  1  0
M  CHG  2   1  -1  12  -1
M  END
>  <UniqueID>  (137) 
81

>  <SMILES>  (137) 
[NH-]S(=O)(=O)c1cc(NCC(=O)[N-]c2cccc(S(=O)(=O)N3CCOCC3)c2)ccc1F

>  <Energy>  (137) 
60.49429794473405

>  <Genealogy>  (137) 
[NH-]S(=O)(=O)c1cc(NCC(=O)[N-]c2cccc(S(=O)(=O)N3CCOCC3)c2)ccc1F (protonated)
[NH-]S(=O)(=O)c1cc(NCC(=O)[N-]c2cccc(S(=O)(=O)N3CCOCC3)c2)ccc1F (3D coordinates assigned)
[NH-]S(=O)(=O)c1cc(NCC(=O)[N-]c2cccc(S(=O)(=O)N3CCOCC3)c2)ccc1F (nonaromatic ring conformer: 60.49429794473405 kcal/mol)

>  <smiles>  (137) 
NS(=O)(=O)c1cc(NCC(=O)Nc2cccc(S(=O)(=O)N3CCOCC3)c2)ccc1F

>  <score_type>  (137) 
oracle

>  <origin>  (137) 
adg

>  <m_score__min__energy>  (137) 
-14.609999999999999

>  <m_primary>  (137) 
energy

$$$$
49:0
     RDKit          3D

 28 29  0  0  0  0  0  0  0  0999 V2000
   53.0210   30.7620   51.2640 C   0  0  0  0  0  0  0  0  0  0  0  0
   54.2470   30.1330   51.9130 C   0  0  0  0  0  0  0  0  0  0  0  0
   55.3900   31.0360   51.8310 N   0  0  0  0  0  0  0  0  0  0  0  0
   56.7520   30.6080   51.9500 C   0  0  0  0  0  0  0  0  0  0  0  0
   57.0420   29.3860   51.8470 O   0  0  0  0  0  0  0  0  0  0  0  0
   57.8060   31.5620   52.1190 N   0  0  0  0  0  0  0  0  0  0  0  0
   58.7720   31.9380   51.1280 C   0  0  0  0  0  0  0  0  0  0  0  0
   59.3380   30.9410   50.3250 C   0  0  0  0  0  0  0  0  0  0  0  0
   60.3000   31.2650   49.3640 C   0  0  0  0  0  0  0  0  0  0  0  0
   60.7170   32.5930   49.2050 C   0  0  0  0  0  0  0  0  0  0  0  0
   61.9520   33.0080   48.0180 S   0  0  0  0  0  0  0  0  0  0  0  0
   62.6790   34.2540   48.4410 O   0  0  0  0  0  0  0  0  0  0  0  0
   62.9450   31.8840   47.9320 O   0  0  0  0  0  0  0  0  0  0  0  0
   61.2300   33.2530   46.4570 N   0  0  0  0  0  0  0  0  0  0  0  0
   60.6670   34.5980   46.3780 C   0  0  0  0  0  0  0  0  0  0  0  0
   59.1570   34.5310   46.5960 C   0  0  0  0  0  0  0  0  0  0  0  0
   58.5870   33.2840   45.9760 C   0  0  0  0  0  0  0  0  0  0  0  0
   58.0550   33.3190   44.6760 C   0  0  0  0  0  0  0  0  0  0  0  0
   57.4930   32.1700   44.1140 C   0  0  0  0  0  0  0  0  0  0  0  0
   57.4430   30.9770   44.8470 C   0  0  0  0  0  0  0  0  0  0  0  0
   56.7440   29.5280   44.1300 S   0  0  0  0  0  0  0  0  0  0  0  0
   55.1530   29.2850   44.7560 N   0  0  0  0  0  0  0  0  0  0  0  0
   56.6750   29.6800   42.6370 O   0  0  0  0  0  0  0  0  0  0  0  0
   57.6010   28.3360   44.4550 O   0  0  0  0  0  0  0  0  0  0  0  0
   57.9670   30.9400   46.1460 C   0  0  0  0  0  0  0  0  0  0  0  0
   58.5290   32.0900   46.7100 C   0  0  0  0  0  0  0  0  0  0  0  0
   60.1790   33.5890   50.0290 C   0  0  0  0  0  0  0  0  0  0  0  0
   59.2160   33.2660   50.9890 C   0  0  0  0  0  0  0  0  0  0  0  0
  1  2  1  0
  2  3  1  0
  3  4  1  0
  4  5  2  0
  4  6  1  0
  6  7  1  0
  7  8  2  0
  8  9  1  0
  9 10  2  0
 10 11  1  0
 11 12  2  0
 11 13  2  0
 11 14  1  0
 14 15  1  0
 15 16  1  0
 16 17  1  0
 17 18  2  0
 18 19  1  0
 19 20  2  0
 20 21  1  0
 21 22  1  0
 21 23  2  0
 21 24  2  0
 20 25  1  0
 25 26  2  0
 10 27  1  0
 27 28  2  0
 28  7  1  0
 26 17  1  0
M  CHG  4   3  -1   6  -1  14  -1  22  -1
M  END
>  <UniqueID>  (138) 
47

>  <SMILES>  (138) 
CC[N-]C(=O)[N-]c1ccc(S(=O)(=O)[N-]CCc2ccc(S([NH-])(=O)=O)cc2)cc1

>  <Energy>  (138) 
39.50248145205739

>  <Genealogy>  (138) 
CC[N-]C(=O)[N-]c1ccc(S(=O)(=O)[N-]CCc2ccc(S([NH-])(=O)=O)cc2)cc1 (protonated)
CC[N-]C(=O)[N-]c1ccc(S(=O)(=O)[N-]CCc2ccc(S([NH-])(=O)=O)cc2)cc1 (3D coordinates assigned)
CC[N-]C(=O)[N-]c1ccc(S(=O)(=O)[N-]CCc2ccc(S([NH-])(=O)=O)cc2)cc1 (optimized conformer: 39.50248145205739 kcal/mol)

>  <smiles>  (138) 
CCNC(=O)Nc1ccc(S(=O)(=O)NCCc2ccc(S(N)(=O)=O)cc2)cc1

>  <score_type>  (138) 
oracle

>  <origin>  (138) 
adg

>  <m_score__min__energy>  (138) 
-14.880000000000001

>  <m_primary>  (138) 
energy

$$$$
63:0
     RDKit          3D

 28 30  0  0  0  0  0  0  0  0999 V2000
   55.2100   29.3470   44.9620 O   0  0  0  0  0  0  0  0  0  0  0  0
   56.4410   29.2910   44.6910 C   0  0  0  0  0  0  0  0  0  0  0  0
   56.9570   30.0900   43.6180 N   0  0  0  0  0  0  0  0  0  0  0  0
   57.6390   31.3640   43.8090 C   0  0  0  0  0  0  0  0  0  0  0  0
   56.9310   32.2010   44.8800 C   0  0  0  0  0  0  0  0  0  0  0  0
   57.9200   33.0730   45.6060 C   0  0  0  0  0  0  0  0  0  0  0  0
   58.1880   32.8590   46.9680 C   0  0  0  0  0  0  0  0  0  0  0  0
   59.0800   33.6930   47.6500 C   0  0  0  0  0  0  0  0  0  0  0  0
   59.7000   34.7510   46.9800 C   0  0  0  0  0  0  0  0  0  0  0  0
   59.4260   34.9800   45.6290 C   0  0  0  0  0  0  0  0  0  0  0  0
   58.5380   34.1460   44.9430 C   0  0  0  0  0  0  0  0  0  0  0  0
   57.3350   28.4070   45.4930 C   0  0  0  0  0  0  0  0  0  0  0  0
   58.6350   28.8590   45.8010 C   0  0  0  0  0  0  0  0  0  0  0  0
   59.5130   28.0650   46.5420 C   0  0  0  0  0  0  0  0  0  0  0  0
   59.1120   26.8110   46.9930 C   0  0  0  0  0  0  0  0  0  0  0  0
   57.8330   26.3410   46.6970 C   0  0  0  0  0  0  0  0  0  0  0  0
   56.9410   27.1160   45.9380 C   0  0  0  0  0  0  0  0  0  0  0  0
   55.6250   26.6190   45.6760 N   0  0  0  0  0  0  0  0  0  0  0  0
   55.1380   24.9870   46.0010 S   0  0  0  0  0  0  0  0  0  0  0  0
   55.6050   24.6150   47.3790 O   0  0  0  0  0  0  0  0  0  0  0  0
   53.6370   24.9060   45.9800 O   0  0  0  0  0  0  0  0  0  0  0  0
   55.8490   23.8560   44.8400 C   0  0  0  0  0  0  0  0  0  0  0  0
   57.2230   23.5900   44.8990 C   0  0  0  0  0  0  0  0  0  0  0  0
   57.8060   22.7100   43.9840 C   0  0  0  0  0  0  0  0  0  0  0  0
   57.0090   22.1130   43.0070 C   0  0  0  0  0  0  0  0  0  0  0  0
   55.6780   22.3820   42.9580 N   0  0  0  0  0  0  0  0  0  0  0  0
   55.0800   23.2280   43.8410 C   0  0  0  0  0  0  0  0  0  0  0  0
   53.8420   23.4420   43.7490 O   0  0  0  0  0  0  0  0  0  0  0  0
  1  2  2  0
  2  3  1  0
  3  4  1  0
  4  5  1  0
  5  6  1  0
  6  7  2  0
  7  8  1  0
  8  9  2  0
  9 10  1  0
 10 11  2  0
  2 12  1  0
 12 13  2  0
 13 14  1  0
 14 15  2  0
 15 16  1  0
 16 17  2  0
 17 18  1  0
 18 19  1  0
 19 20  2  0
 19 21  2  0
 19 22  1  0
 22 23  2  0
 23 24  1  0
 24 25  2  0
 25 26  1  0
 26 27  1  0
 27 28  2  0
 11  6  1  0
 17 12  1  0
 27 22  1  0
M  CHG  3   3  -1  18  -1  26  -1
M  END
>  <UniqueID>  (139) 
60

>  <SMILES>  (139) 
O=C([N-]CCc1ccccc1)c1ccccc1[N-]S(=O)(=O)c1ccc[n-]c1=O

>  <Energy>  (139) 
56.15894154800589

>  <Genealogy>  (139) 
O=C([N-]CCc1ccccc1)c1ccccc1[N-]S(=O)(=O)c1ccc[n-]c1=O (protonated)
O=C([N-]CCc1ccccc1)c1ccccc1[N-]S(=O)(=O)c1ccc[n-]c1=O (3D coordinates assigned)
O=C([N-]CCc1ccccc1)c1ccccc1[N-]S(=O)(=O)c1ccc[n-]c1=O (optimized conformer: 56.15894154800589 kcal/mol)

>  <smiles>  (139) 
O=C(NCCc1ccccc1)c1ccccc1NS(=O)(=O)c1ccc[nH]c1=O

>  <score_type>  (139) 
oracle

>  <origin>  (139) 
adg

>  <m_score__min__energy>  (139) 
-15.19

>  <m_primary>  (139) 
energy

$$$$
25:0
     RDKit          3D

 33 36  0  0  0  0  0  0  0  0999 V2000
   54.6260   23.6990   47.1550 O   0  0  0  0  0  0  0  0  0  0  0  0
   55.5870   22.6960   47.0380 C   0  0  0  0  0  0  0  0  0  0  0  0
   56.1890   22.2650   45.8610 C   0  0  0  0  0  0  0  0  0  0  0  0
   55.8790   22.6910   44.4790 C   0  0  0  0  0  0  0  0  0  0  0  0
   55.9280   21.8450   43.5490 O   0  0  0  0  0  0  0  0  0  0  0  0
   55.6040   24.0590   44.1470 N   0  0  0  0  0  0  0  0  0  0  0  0
   55.8510   25.0810   44.9100 C   0  0  0  0  0  0  0  0  0  0  0  0
   54.9630   25.7110   45.6420 O   0  0  0  0  0  0  0  0  0  0  0  0
   55.5170   26.7030   46.2770 N   0  0  0  0  0  0  0  0  0  0  0  0
   56.8240   26.7090   45.9390 C   0  0  0  0  0  0  0  0  0  0  0  0
   57.7850   27.7160   46.4290 C   0  0  0  0  0  0  0  0  0  0  0  0
   58.6080   27.3800   47.3220 O   0  0  0  0  0  0  0  0  0  0  0  0
   57.8130   29.1030   45.9030 C   0  0  0  0  0  0  0  0  0  0  0  0
   57.5310   29.3490   44.5530 C   0  0  0  0  0  0  0  0  0  0  0  0
   57.5870   30.6450   44.0530 C   0  0  0  0  0  0  0  0  0  0  0  0
   57.9300   31.6950   44.9000 C   0  0  0  0  0  0  0  0  0  0  0  0
   58.2120   31.4660   46.2200 N   0  0  0  0  0  0  0  0  0  0  0  0
   58.6070   32.6040   47.0670 C   0  0  0  0  0  0  0  0  0  0  0  0
   60.1070   32.7360   47.0980 C   0  0  0  0  0  0  0  0  0  0  0  0
   60.8890   31.8130   47.8120 C   0  0  0  0  0  0  0  0  0  0  0  0
   62.2840   31.9220   47.8100 C   0  0  0  0  0  0  0  0  0  0  0  0
   62.9060   32.9470   47.0920 C   0  0  0  0  0  0  0  0  0  0  0  0
   64.2580   33.0500   47.0910 F   0  0  0  0  0  0  0  0  0  0  0  0
   62.1340   33.8650   46.3740 C   0  0  0  0  0  0  0  0  0  0  0  0
   60.7400   33.7600   46.3740 C   0  0  0  0  0  0  0  0  0  0  0  0
   58.1680   30.1910   46.7290 C   0  0  0  0  0  0  0  0  0  0  0  0
   58.4320   29.9860   47.9470 O   0  0  0  0  0  0  0  0  0  0  0  0
   57.0790   25.6820   45.0460 C   0  0  0  0  0  0  0  0  0  0  0  0
   57.1020   21.2870   46.2260 C   0  0  0  0  0  0  0  0  0  0  0  0
   57.0150   21.1820   47.5990 C   0  0  0  0  0  0  0  0  0  0  0  0
   57.7840   20.3270   48.3800 O   0  0  0  0  0  0  0  0  0  0  0  0
   56.0850   22.0210   48.0920 N   0  0  0  0  0  0  0  0  0  0  0  0
   55.7730   22.2490   49.5000 C   0  0  0  0  0  0  0  0  0  0  0  0
  1  2  1  0
  2  3  2  0
  3  4  1  0
  4  5  2  0
  4  6  1  0
  6  7  2  0
  7  8  1  0
  8  9  1  0
  9 10  1  0
 10 11  1  0
 11 12  2  0
 11 13  1  0
 13 14  2  0
 14 15  1  0
 15 16  2  0
 16 17  1  0
 17 18  1  0
 18 19  1  0
 19 20  2  0
 20 21  1  0
 21 22  2  0
 22 23  1  0
 22 24  1  0
 24 25  2  0
 17 26  1  0
 26 27  2  0
 10 28  2  0
  3 29  1  0
 29 30  2  0
 30 31  1  0
 30 32  1  0
 32 33  1  0
 32  2  1  0
 28  7  1  0
 26 13  1  0
 25 19  1  0
M  CHG  2   9  -1  31  -1
M  END
>  <UniqueID>  (140) 
26

>  <SMILES>  (140) 
Cn1c([O-])cc(C(=O)/N=c2/cc(C(=O)c3cccn(Cc4ccc(F)cc4)c3=O)[n-]o2)c1O

>  <Energy>  (140) 
124.40476284855302

>  <Genealogy>  (140) 
Cn1c([O-])cc(C(=O)N=c2cc(C(=O)c3cccn(Cc4ccc(F)cc4)c3=O)[n-]o2)c1O (protonated)
Cn1c([O-])cc(C(=O)/N=c2/cc(C(=O)c3cccn(Cc4ccc(F)cc4)c3=O)[n-]o2)c1O (cis-trans isomerization)
Cn1c([O-])cc(C(=O)/N=c2/cc(C(=O)c3cccn(Cc4ccc(F)cc4)c3=O)[n-]o2)c1O (3D coordinates assigned)
Cn1c([O-])cc(C(=O)/N=c2/cc(C(=O)c3cccn(Cc4ccc(F)cc4)c3=O)[n-]o2)c1O (optimized conformer: 124.40476284855302 kcal/mol)

>  <smiles>  (140) 
Cn1c(O)cc(C(=O)N=c2cc(C(=O)c3cccn(Cc4ccc(F)cc4)c3=O)[nH]o2)c1O

>  <score_type>  (140) 
oracle

>  <origin>  (140) 
adg

>  <m_score__min__energy>  (140) 
-15.07

>  <m_primary>  (140) 
energy

$$$$
30:0
     RDKit          3D

 27 29  0  0  0  0  0  0  0  0999 V2000
   59.9440   36.1160   46.0200 N   0  0  0  0  0  0  0  0  0  0  0  0
   59.9840   34.6820   46.9830 S   0  0  0  0  0  0  0  0  0  0  0  0
   61.4100   34.2720   47.2200 O   0  0  0  0  0  0  0  0  0  0  0  0
   59.3330   34.9570   48.3100 O   0  0  0  0  0  0  0  0  0  0  0  0
   59.1290   33.3890   46.1490 C   0  0  0  0  0  0  0  0  0  0  0  0
   59.4910   32.0540   46.3720 C   0  0  0  0  0  0  0  0  0  0  0  0
   58.8270   31.0230   45.7030 C   0  0  0  0  0  0  0  0  0  0  0  0
   57.7810   31.3090   44.8160 C   0  0  0  0  0  0  0  0  0  0  0  0
   57.1490   30.2190   44.1240 N   0  0  0  0  0  0  0  0  0  0  0  0
   56.9710   29.0130   44.5770 C   0  0  0  0  0  0  0  0  0  0  0  0
   55.8590   28.5990   45.2270 N   0  0  0  0  0  0  0  0  0  0  0  0
   55.9760   27.3060   45.6290 C   0  0  0  0  0  0  0  0  0  0  0  0
   54.9620   26.6660   46.3300 O   0  0  0  0  0  0  0  0  0  0  0  0
   57.1790   26.6870   45.2950 C   0  0  0  0  0  0  0  0  0  0  0  0
   57.6050   25.3070   45.6840 C   0  0  0  0  0  0  0  0  0  0  0  0
   58.0960   25.3070   47.0950 C   0  0  0  0  0  0  0  0  0  0  0  0
   57.3910   24.7880   48.0010 O   0  0  0  0  0  0  0  0  0  0  0  0
   59.3660   25.8990   47.3970 N   0  0  0  0  0  0  0  0  0  0  0  0
   59.5870   27.1340   48.0930 C   0  0  0  0  0  0  0  0  0  0  0  0
   58.7180   28.2070   47.8480 C   0  0  0  0  0  0  0  0  0  0  0  0
   58.8830   29.4190   48.5260 C   0  0  0  0  0  0  0  0  0  0  0  0
   59.9090   29.5630   49.4630 C   0  0  0  0  0  0  0  0  0  0  0  0
   60.7670   28.4930   49.7300 C   0  0  0  0  0  0  0  0  0  0  0  0
   60.6050   27.2780   49.0540 C   0  0  0  0  0  0  0  0  0  0  0  0
   58.1440   27.8120   44.4950 S   0  0  0  0  0  0  0  0  0  0  0  0
   57.4400   32.6520   44.5680 C   0  0  0  0  0  0  0  0  0  0  0  0
   58.1070   33.6830   45.2350 C   0  0  0  0  0  0  0  0  0  0  0  0
  1  2  1  0
  2  3  2  0
  2  4  2  0
  2  5  1  0
  5  6  2  0
  6  7  1  0
  7  8  2  0
  8  9  1  0
  9 10  2  3
 10 11  1  0
 11 12  1  0
 12 13  1  0
 12 14  2  0
 14 15  1  0
 15 16  1  0
 16 17  2  0
 16 18  1  0
 18 19  1  0
 19 20  2  0
 20 21  1  0
 21 22  2  0
 22 23  1  0
 23 24  2  0
 14 25  1  0
  8 26  1  0
 26 27  2  0
 27  5  1  0
 25 10  1  0
 24 19  1  0
M  CHG  4   1  -1  11  -1  13  -1  18  -1
M  END
>  <UniqueID>  (141) 
31

>  <SMILES>  (141) 
[NH-]S(=O)(=O)c1ccc(N=c2[n-]c([O-])c(CC(=O)[N-]c3ccccc3)s2)cc1

>  <Energy>  (141) 
78.5930886214667

>  <Genealogy>  (141) 
[NH-]S(=O)(=O)c1ccc(N=c2[n-]c([O-])c(CC(=O)[N-]c3ccccc3)s2)cc1 (protonated)
[NH-]S(=O)(=O)c1ccc(N=c2[n-]c([O-])c(CC(=O)[N-]c3ccccc3)s2)cc1 (3D coordinates assigned)
[NH-]S(=O)(=O)c1ccc(N=c2[n-]c([O-])c(CC(=O)[N-]c3ccccc3)s2)cc1 (optimized conformer: 78.5930886214667 kcal/mol)

>  <smiles>  (141) 
NS(=O)(=O)c1ccc(N=c2[nH]c(O)c(CC(=O)Nc3ccccc3)s2)cc1

>  <score_type>  (141) 
oracle

>  <origin>  (141) 
adg

>  <m_score__min__energy>  (141) 
-15.51

>  <m_primary>  (141) 
energy

$$$$
47:0
     RDKit          3D

 25 26  0  0  0  0  0  0  0  0999 V2000
   59.3820   30.6540   48.2820 C   0  0  0  0  0  0  0  0  0  0  0  0
   58.4810   31.2020   47.3260 O   0  0  0  0  0  0  0  0  0  0  0  0
   58.7220   32.3540   46.5640 C   0  0  0  0  0  0  0  0  0  0  0  0
   59.8360   33.1810   46.8260 C   0  0  0  0  0  0  0  0  0  0  0  0
   60.0970   34.2970   46.0280 C   0  0  0  0  0  0  0  0  0  0  0  0
   59.2570   34.6030   44.9600 C   0  0  0  0  0  0  0  0  0  0  0  0
   58.1470   33.8010   44.6920 C   0  0  0  0  0  0  0  0  0  0  0  0
   57.8550   32.6880   45.4940 C   0  0  0  0  0  0  0  0  0  0  0  0
   56.6850   31.9240   45.1560 N   0  0  0  0  0  0  0  0  0  0  0  0
   56.6330   30.3470   44.4330 S   0  0  0  0  0  0  0  0  0  0  0  0
   55.3550   29.6610   44.8300 O   0  0  0  0  0  0  0  0  0  0  0  0
   56.7140   30.4600   42.9360 O   0  0  0  0  0  0  0  0  0  0  0  0
   58.0110   29.4100   45.0000 C   0  0  0  0  0  0  0  0  0  0  0  0
   59.2840   29.6500   44.4700 C   0  0  0  0  0  0  0  0  0  0  0  0
   60.3790   28.9030   44.9110 C   0  0  0  0  0  0  0  0  0  0  0  0
   60.2080   27.9110   45.8790 C   0  0  0  0  0  0  0  0  0  0  0  0
   58.9340   27.6500   46.4160 C   0  0  0  0  0  0  0  0  0  0  0  0
   58.7490   26.5970   47.4420 C   0  0  0  0  0  0  0  0  0  0  0  0
   59.6290   26.4140   48.3270 O   0  0  0  0  0  0  0  0  0  0  0  0
   57.5690   25.7830   47.4350 N   0  0  0  0  0  0  0  0  0  0  0  0
   57.0490   25.1230   46.2430 C   0  0  0  0  0  0  0  0  0  0  0  0
   55.5900   25.4090   46.0910 C   0  0  0  0  0  0  0  0  0  0  0  0
   54.7620   24.4620   46.0140 O   0  0  0  0  0  0  0  0  0  0  0  0
   55.1440   26.7210   46.0010 O   0  0  0  0  0  0  0  0  0  0  0  0
   57.8370   28.4070   45.9640 C   0  0  0  0  0  0  0  0  0  0  0  0
  1  2  1  0
  2  3  1  0
  3  4  2  0
  4  5  1  0
  5  6  2  0
  6  7  1  0
  7  8  2  0
  8  9  1  0
  9 10  1  0
 10 11  2  0
 10 12  2  0
 10 13  1  0
 13 14  2  0
 14 15  1  0
 15 16  2  0
 16 17  1  0
 17 18  1  0
 18 19  2  0
 18 20  1  0
 20 21  1  0
 21 22  1  0
 22 23  2  0
 22 24  1  0
 17 25  2  0
  8  3  1  0
 25 13  1  0
M  CHG  3   9  -1  20  -1  24  -1
M  END
>  <UniqueID>  (142) 
46

>  <SMILES>  (142) 
COc1ccccc1[N-]S(=O)(=O)c1cccc(C(=O)[N-]CC(=O)[O-])c1

>  <Energy>  (142) 
43.385822467467776

>  <Genealogy>  (142) 
COc1ccccc1[N-]S(=O)(=O)c1cccc(C(=O)[N-]CC(=O)[O-])c1 (protonated)
COc1ccccc1[N-]S(=O)(=O)c1cccc(C(=O)[N-]CC(=O)[O-])c1 (3D coordinates assigned)
COc1ccccc1[N-]S(=O)(=O)c1cccc(C(=O)[N-]CC(=O)[O-])c1 (optimized conformer: 43.385822467467776 kcal/mol)

>  <smiles>  (142) 
COc1ccccc1NS(=O)(=O)c1cccc(C(=O)NCC(=O)O)c1

>  <score_type>  (142) 
oracle

>  <origin>  (142) 
adg

>  <m_score__min__energy>  (142) 
-14.16

>  <m_primary>  (142) 
energy

$$$$
30:0
     RDKit          3D

 29 31  0  0  0  0  0  0  0  0999 V2000
   55.1430   23.5090   46.9160 C   0  0  0  0  0  0  0  0  0  0  0  0
   54.4730   24.5580   45.6410 S   0  0  0  0  0  0  0  0  0  0  0  0
   52.9830   24.3790   45.5240 O   0  0  0  0  0  0  0  0  0  0  0  0
   55.1030   24.1690   44.3340 O   0  0  0  0  0  0  0  0  0  0  0  0
   54.8600   26.2200   45.9600 N   0  0  0  0  0  0  0  0  0  0  0  0
   56.1200   26.8980   45.8110 C   0  0  0  0  0  0  0  0  0  0  0  0
   57.2730   26.1910   46.1820 C   0  0  0  0  0  0  0  0  0  0  0  0
   58.5380   26.7730   46.0700 C   0  0  0  0  0  0  0  0  0  0  0  0
   58.6750   28.0760   45.5760 C   0  0  0  0  0  0  0  0  0  0  0  0
   60.0440   28.6880   45.4380 C   0  0  0  0  0  0  0  0  0  0  0  0
   60.1160   29.9470   46.1750 N   0  0  0  0  0  0  0  0  0  0  0  0
   59.8300   30.0400   47.5760 C   0  0  0  0  0  0  0  0  0  0  0  0
   59.5630   29.0020   48.2380 O   0  0  0  0  0  0  0  0  0  0  0  0
   59.8990   31.3180   48.2180 N   0  0  0  0  0  0  0  0  0  0  0  0
   59.5320   32.5850   47.6510 C   0  0  0  0  0  0  0  0  0  0  0  0
   58.2980   32.7690   46.9960 C   0  0  0  0  0  0  0  0  0  0  0  0
   57.9900   33.9940   46.4020 C   0  0  0  0  0  0  0  0  0  0  0  0
   58.9120   35.0420   46.4380 C   0  0  0  0  0  0  0  0  0  0  0  0
   60.1470   34.8650   47.0640 C   0  0  0  0  0  0  0  0  0  0  0  0
   60.4660   33.6410   47.6710 C   0  0  0  0  0  0  0  0  0  0  0  0
   61.7380   33.4700   48.3160 N   0  0  0  0  0  0  0  0  0  0  0  0
   62.7880   32.6970   47.6490 C   0  0  0  0  0  0  0  0  0  0  0  0
   64.1590   33.1750   48.1370 C   0  0  0  0  0  0  0  0  0  0  0  0
   64.2250   33.1540   49.5520 O   0  0  0  0  0  0  0  0  0  0  0  0
   63.3060   34.0900   50.0880 C   0  0  0  0  0  0  0  0  0  0  0  0
   61.8640   33.6900   49.7570 C   0  0  0  0  0  0  0  0  0  0  0  0
   57.5300   28.7880   45.1920 C   0  0  0  0  0  0  0  0  0  0  0  0
   56.2590   28.2100   45.3010 C   0  0  0  0  0  0  0  0  0  0  0  0
   55.1660   28.9550   44.8840 O   0  0  0  0  0  0  0  0  0  0  0  0
  1  2  1  0
  2  3  2  0
  2  4  2  0
  2  5  1  0
  5  6  1  0
  6  7  2  0
  7  8  1  0
  8  9  2  0
  9 10  1  0
 10 11  1  0
 11 12  1  0
 12 13  2  0
 12 14  1  0
 14 15  1  0
 15 16  2  0
 16 17  1  0
 17 18  2  0
 18 19  1  0
 19 20  2  0
 20 21  1  0
 21 22  1  0
 22 23  1  0
 23 24  1  0
 24 25  1  0
 25 26  1  0
  9 27  1  0
 27 28  2  0
 28 29  1  0
 28  6  1  0
 20 15  1  0
 26 21  1  0
M  CHG  3   5  -1  14  -1  29  -1
M  END
>  <UniqueID>  (143) 
28

>  <SMILES>  (143) 
CS(=O)(=O)[N-]c1ccc(CNC(=O)[N-]c2ccccc2N2CCOCC2)cc1[O-]

>  <Energy>  (143) 
60.71284790342345

>  <Genealogy>  (143) 
CS(=O)(=O)[N-]c1ccc(CNC(=O)[N-]c2ccccc2N2CCOCC2)cc1[O-] (protonated)
CS(=O)(=O)[N-]c1ccc(CNC(=O)[N-]c2ccccc2N2CCOCC2)cc1[O-] (3D coordinates assigned)
CS(=O)(=O)[N-]c1ccc(CNC(=O)[N-]c2ccccc2N2CCOCC2)cc1[O-] (nonaromatic ring conformer: 60.71284790342345 kcal/mol)

>  <smiles>  (143) 
CS(=O)(=O)Nc1ccc(CNC(=O)Nc2ccccc2N2CCOCC2)cc1O

>  <score_type>  (143) 
oracle

>  <origin>  (143) 
adg

>  <m_score__min__energy>  (143) 
-15.65

>  <m_primary>  (143) 
energy

$$$$
8:0
     RDKit          3D

 23 24  0  0  0  0  0  0  0  0999 V2000
   58.9120   33.3620   46.5150 C   0  0  0  0  0  0  0  0  0  0  0  0
   58.3540   32.6780   45.2960 C   0  0  0  0  0  0  0  0  0  0  0  0
   58.4270   33.3170   44.0500 C   0  0  0  0  0  0  0  0  0  0  0  0
   57.9740   32.6750   42.9000 C   0  0  0  0  0  0  0  0  0  0  0  0
   57.4230   31.3970   42.9810 C   0  0  0  0  0  0  0  0  0  0  0  0
   57.3270   30.7350   44.2160 C   0  0  0  0  0  0  0  0  0  0  0  0
   56.6400   29.4230   44.2630 C   0  0  0  0  0  0  0  0  0  0  0  0
   55.3480   29.3000   44.8530 N   0  0  0  0  0  0  0  0  0  0  0  0
   57.1800   28.4100   43.7410 O   0  0  0  0  0  0  0  0  0  0  0  0
   57.8460   31.3630   45.3800 C   0  0  0  0  0  0  0  0  0  0  0  0
   57.9260   30.6720   46.6380 N   0  0  0  0  0  0  0  0  0  0  0  0
   59.0050   29.8250   47.0600 C   0  0  0  0  0  0  0  0  0  0  0  0
   59.9610   30.3380   47.6980 O   0  0  0  0  0  0  0  0  0  0  0  0
   59.0270   28.3730   46.7680 C   0  0  0  0  0  0  0  0  0  0  0  0
   60.2540   27.6990   46.6500 C   0  0  0  0  0  0  0  0  0  0  0  0
   60.2850   26.3250   46.4000 C   0  0  0  0  0  0  0  0  0  0  0  0
   59.0920   25.6110   46.2600 C   0  0  0  0  0  0  0  0  0  0  0  0
   57.8610   26.2700   46.3620 C   0  0  0  0  0  0  0  0  0  0  0  0
   56.3510   25.3840   46.1820 S   0  0  0  0  0  0  0  0  0  0  0  0
   55.0400   26.5000   46.0370 N   0  0  0  0  0  0  0  0  0  0  0  0
   56.4050   24.5170   44.9570 O   0  0  0  0  0  0  0  0  0  0  0  0
   56.1360   24.5070   47.3850 O   0  0  0  0  0  0  0  0  0  0  0  0
   57.8320   27.6510   46.5960 C   0  0  0  0  0  0  0  0  0  0  0  0
  1  2  1  0
  2  3  2  0
  3  4  1  0
  4  5  2  0
  5  6  1  0
  6  7  1  0
  7  8  1  0
  7  9  2  0
  6 10  2  0
 10 11  1  0
 11 12  1  0
 12 13  2  0
 12 14  1  0
 14 15  2  0
 15 16  1  0
 16 17  2  0
 17 18  1  0
 18 19  1  0
 19 20  1  0
 19 21  2  0
 19 22  2  0
 18 23  2  0
 10  2  1  0
 23 14  1  0
M  CHG  3   8  -1  11  -1  20  -1
M  END
>  <UniqueID>  (144) 
8

>  <SMILES>  (144) 
Cc1cccc(C([NH-])=O)c1[N-]C(=O)c1cccc(S([NH-])(=O)=O)c1

>  <Energy>  (144) 
46.99000324727504

>  <Genealogy>  (144) 
Cc1cccc(C([NH-])=O)c1[N-]C(=O)c1cccc(S([NH-])(=O)=O)c1 (protonated)
Cc1cccc(C([NH-])=O)c1[N-]C(=O)c1cccc(S([NH-])(=O)=O)c1 (3D coordinates assigned)
Cc1cccc(C([NH-])=O)c1[N-]C(=O)c1cccc(S([NH-])(=O)=O)c1 (optimized conformer: 46.99000324727504 kcal/mol)

>  <smiles>  (144) 
Cc1cccc(C(N)=O)c1NC(=O)c1cccc(S(N)(=O)=O)c1

>  <score_type>  (144) 
oracle

>  <origin>  (144) 
adg

>  <m_score__min__energy>  (144) 
-15.32

>  <m_primary>  (144) 
energy

$$$$
68:0
     RDKit          3D

 31 35  0  0  0  0  0  0  0  0999 V2000
   58.4490   27.5130   46.3740 C   0  0  0  0  0  0  0  0  0  0  0  0
   57.3580   26.5290   46.4370 C   0  0  0  0  0  0  0  0  0  0  0  0
   57.4750   25.3250   47.0250 N   0  0  0  0  0  0  0  0  0  0  0  0
   56.2360   24.7970   46.9140 C   0  0  0  0  0  0  0  0  0  0  0  0
   55.8560   23.3110   47.4730 S   0  0  0  0  0  0  0  0  0  0  0  0
   55.3330   25.6040   46.3150 N   0  0  0  0  0  0  0  0  0  0  0  0
   56.0550   26.6990   46.0310 C   0  0  0  0  0  0  0  0  0  0  0  0
   55.5230   27.8420   45.4450 O   0  0  0  0  0  0  0  0  0  0  0  0
   58.2580   28.8390   46.3100 C   0  0  0  0  0  0  0  0  0  0  0  0
   57.7460   29.5470   45.2230 C   0  0  0  0  0  0  0  0  0  0  0  0
   57.6570   30.8660   45.5260 N   0  0  0  0  0  0  0  0  0  0  0  0
   58.0910   30.9990   46.7690 N   0  0  0  0  0  0  0  0  0  0  0  0
   58.1510   32.1290   47.5140 C   0  0  0  0  0  0  0  0  0  0  0  0
   57.7920   33.2720   47.0110 N   0  0  0  0  0  0  0  0  0  0  0  0
   58.7400   34.3030   46.6020 C   0  0  0  0  0  0  0  0  0  0  0  0
   59.8710   33.7590   45.7520 C   0  0  0  0  0  0  0  0  0  0  0  0
   58.7510   34.5630   45.1070 C   0  0  0  0  0  0  0  0  0  0  0  0
   58.5870   32.0260   48.8040 N   0  0  0  0  0  0  0  0  0  0  0  0
   58.9440   30.8130   49.3240 C   0  0  0  0  0  0  0  0  0  0  0  0
   59.3500   30.7420   50.5550 N   0  0  0  0  0  0  0  0  0  0  0  0
   60.5920   31.3400   51.0380 C   0  0  0  0  0  0  0  0  0  0  0  0
   61.3080   31.9940   49.8920 C   0  0  0  0  0  0  0  0  0  0  0  0
   61.1970   33.3790   49.6870 C   0  0  0  0  0  0  0  0  0  0  0  0
   61.8360   33.9830   48.6010 C   0  0  0  0  0  0  0  0  0  0  0  0
   62.5810   33.2090   47.7030 C   0  0  0  0  0  0  0  0  0  0  0  0
   63.2380   33.8310   46.5840 C   0  0  0  0  0  0  0  0  0  0  0  0
   63.7670   34.3320   45.6850 N   0  0  0  0  0  0  0  0  0  0  0  0
   62.6810   31.8250   47.8940 C   0  0  0  0  0  0  0  0  0  0  0  0
   62.0430   31.2190   48.9810 C   0  0  0  0  0  0  0  0  0  0  0  0
   58.8680   29.6890   48.5490 N   0  0  0  0  0  0  0  0  0  0  0  0
   58.4530   29.8160   47.2680 C   0  0  0  0  0  0  0  0  0  0  0  0
  1  2  1  0
  2  3  1  0
  3  4  1  0
  4  5  2  0
  4  6  1  0
  6  7  1  0
  7  8  1  0
  1  9  2  0
  9 10  1  0
 10 11  2  0
 11 12  1  0
 12 13  1  0
 13 14  2  0
 14 15  1  0
 15 16  1  0
 16 17  1  0
 13 18  1  0
 18 19  1  0
 19 20  2  3
 20 21  1  0
 21 22  1  0
 22 23  2  0
 23 24  1  0
 24 25  2  0
 25 26  1  0
 26 27  3  0
 25 28  1  0
 28 29  2  0
 19 30  1  0
 30 31  2  0
  7  2  2  0
 31  9  1  0
 31 12  1  0
 17 15  1  0
 29 22  1  0
M  CHG  4   3  -1   6  -1   8  -1  18  -1
M  END
>  <UniqueID>  (145) 
65

>  <SMILES>  (145) 
N#Cc1ccc(CN=c2nc3/c(=C\c4[n-]c(=S)[n-]c4[O-])cnn3/c(=N/C3CC3)[n-]2)cc1

>  <Energy>  (145) 
385.0659760137175

>  <Genealogy>  (145) 
N#Cc1ccc(CN=c2nc3c(=Cc4[n-]c(=S)[n-]c4[O-])cnn3c(=NC3CC3)[n-]2)cc1 (protonated)
N#Cc1ccc(CN=c2nc3/c(=C\c4[n-]c(=S)[n-]c4[O-])cnn3/c(=N/C3CC3)[n-]2)cc1 (cis-trans isomerization)
N#Cc1ccc(CN=c2nc3/c(=C\c4[n-]c(=S)[n-]c4[O-])cnn3/c(=N/C3CC3)[n-]2)cc1 (3D coordinates assigned)
N#Cc1ccc(CN=c2nc3/c(=C\c4[n-]c(=S)[n-]c4[O-])cnn3/c(=N/C3CC3)[n-]2)cc1 (nonaromatic ring conformer: 385.0659760137175 kcal/mol)

>  <smiles>  (145) 
N#Cc1ccc(CN=c2nc3c(=Cc4[nH]c(=S)[nH]c4O)cnn3c(=NC3CC3)[nH]2)cc1

>  <score_type>  (145) 
oracle

>  <origin>  (145) 
adg

>  <m_score__min__energy>  (145) 
-17.91

>  <m_primary>  (145) 
energy

$$$$
98:0
     RDKit          3D

 34 37  0  0  0  0  0  0  0  0999 V2000
   57.6950   27.2040   54.8890 C   0  0  0  0  0  0  0  0  0  0  0  0
   56.7750   27.8720   54.1900 C   0  0  0  0  0  0  0  0  0  0  0  0
   55.4510   27.7580   54.4470 N   0  0  0  0  0  0  0  0  0  0  0  0
   54.8600   28.6170   53.5890 C   0  0  0  0  0  0  0  0  0  0  0  0
   53.5300   28.8000   53.5580 C   0  0  0  0  0  0  0  0  0  0  0  0
   52.8370   29.7850   52.7040 C   0  0  0  0  0  0  0  0  0  0  0  0
   53.0570   29.7730   51.3200 C   0  0  0  0  0  0  0  0  0  0  0  0
   52.4440   30.7260   50.5010 C   0  0  0  0  0  0  0  0  0  0  0  0
   51.6250   31.7110   51.0600 C   0  0  0  0  0  0  0  0  0  0  0  0
   51.0200   32.6520   50.2340 O   0  0  0  0  0  0  0  0  0  0  0  0
   51.4230   31.7490   52.4460 C   0  0  0  0  0  0  0  0  0  0  0  0
   50.3250   33.1010   53.2370 Br  0  0  0  0  0  0  0  0  0  0  0  0
   52.0380   30.7960   53.2670 C   0  0  0  0  0  0  0  0  0  0  0  0
   55.8440   29.2470   52.8460 C   0  0  0  0  0  0  0  0  0  0  0  0
   55.6780   30.1550   51.9890 O   0  0  0  0  0  0  0  0  0  0  0  0
   57.0470   28.7650   53.2040 N   0  0  0  0  0  0  0  0  0  0  0  0
   58.3200   29.1840   52.6840 C   0  0  0  0  0  0  0  0  0  0  0  0
   59.3750   28.7850   53.2480 O   0  0  0  0  0  0  0  0  0  0  0  0
   58.4150   30.1060   51.5270 C   0  0  0  0  0  0  0  0  0  0  0  0
   58.0790   31.4620   51.6710 C   0  0  0  0  0  0  0  0  0  0  0  0
   58.1610   32.3360   50.5820 C   0  0  0  0  0  0  0  0  0  0  0  0
   58.5730   31.8630   49.3240 C   0  0  0  0  0  0  0  0  0  0  0  0
   58.6650   32.7190   48.1780 N   0  0  0  0  0  0  0  0  0  0  0  0
   59.6160   34.1670   48.0870 S   0  0  0  0  0  0  0  0  0  0  0  0
   59.1860   34.9620   46.8860 O   0  0  0  0  0  0  0  0  0  0  0  0
   59.3870   34.9850   49.3250 O   0  0  0  0  0  0  0  0  0  0  0  0
   61.3270   33.7600   47.9810 C   0  0  0  0  0  0  0  0  0  0  0  0
   62.0290   33.3780   49.1330 C   0  0  0  0  0  0  0  0  0  0  0  0
   63.3850   33.0440   49.0490 C   0  0  0  0  0  0  0  0  0  0  0  0
   64.0440   33.0950   47.8180 C   0  0  0  0  0  0  0  0  0  0  0  0
   63.3490   33.4810   46.6690 C   0  0  0  0  0  0  0  0  0  0  0  0
   61.9930   33.8150   46.7490 C   0  0  0  0  0  0  0  0  0  0  0  0
   58.9000   30.5100   49.1760 C   0  0  0  0  0  0  0  0  0  0  0  0
   58.8190   29.6370   50.2650 C   0  0  0  0  0  0  0  0  0  0  0  0
  1  2  2  0
  2  3  1  0
  3  4  1  0
  4  5  2  0
  5  6  1  0
  6  7  2  0
  7  8  1  0
  8  9  2  0
  9 10  1  0
  9 11  1  0
 11 12  1  0
 11 13  2  0
  4 14  1  0
 14 15  2  0
 14 16  1  0
 16 17  1  0
 17 18  2  0
 17 19  1  0
 19 20  2  0
 20 21  1  0
 21 22  2  0
 22 23  1  0
 23 24  1  0
 24 25  2  0
 24 26  2  0
 24 27  1  0
 27 28  2  0
 28 29  1  0
 29 30  2  0
 30 31  1  0
 31 32  2  0
 22 33  1  0
 33 34  2  0
 16  2  1  0
 34 19  1  0
 13  6  1  0
 32 27  1  0
M  CHG  3   3  -1  10  -1  23  -1
M  END
>  <UniqueID>  (146) 
93

>  <SMILES>  (146) 
C=c1[n-]/c(=C/c2ccc([O-])c(Br)c2)c(=O)n1C(=O)c1ccc([N-]S(=O)(=O)c2ccccc2)cc1

>  <Energy>  (146) 
104.96972650177929

>  <Genealogy>  (146) 
C=c1[n-]c(=Cc2ccc([O-])c(Br)c2)c(=O)n1C(=O)c1ccc([N-]S(=O)(=O)c2ccccc2)cc1 (protonated)
C=c1[n-]/c(=C/c2ccc([O-])c(Br)c2)c(=O)n1C(=O)c1ccc([N-]S(=O)(=O)c2ccccc2)cc1 (cis-trans isomerization)
C=c1[n-]/c(=C/c2ccc([O-])c(Br)c2)c(=O)n1C(=O)c1ccc([N-]S(=O)(=O)c2ccccc2)cc1 (3D coordinates assigned)
C=c1[n-]/c(=C/c2ccc([O-])c(Br)c2)c(=O)n1C(=O)c1ccc([N-]S(=O)(=O)c2ccccc2)cc1 (optimized conformer: 104.96972650177929 kcal/mol)

>  <smiles>  (146) 
C=c1[nH]c(=Cc2ccc(O)c(Br)c2)c(=O)n1C(=O)c1ccc(NS(=O)(=O)c2ccccc2)cc1

>  <score_type>  (146) 
oracle

>  <origin>  (146) 
adg

>  <m_score__min__energy>  (146) 
-15.609999999999999

>  <m_primary>  (146) 
energy

$$$$
4:0
     RDKit          3D

 25 26  0  0  0  0  0  0  0  0999 V2000
   59.2670   33.7910   48.1550 C   0  0  0  0  0  0  0  0  0  0  0  0
   59.7600   33.6930   46.6940 C   0  0  0  0  0  0  0  0  0  0  0  0
   61.2900   33.4650   46.7320 C   0  0  0  0  0  0  0  0  0  0  0  0
   59.5020   35.0340   45.9740 C   0  0  0  0  0  0  0  0  0  0  0  0
   58.9970   32.5670   45.9660 C   0  0  0  0  0  0  0  0  0  0  0  0
   59.2130   31.2220   46.3430 C   0  0  0  0  0  0  0  0  0  0  0  0
   58.5200   30.1800   45.7250 C   0  0  0  0  0  0  0  0  0  0  0  0
   57.5880   30.4490   44.7200 C   0  0  0  0  0  0  0  0  0  0  0  0
   56.6530   29.1350   44.0110 S   0  0  0  0  0  0  0  0  0  0  0  0
   57.5770   28.2480   43.2290 O   0  0  0  0  0  0  0  0  0  0  0  0
   55.5910   29.6750   43.0930 O   0  0  0  0  0  0  0  0  0  0  0  0
   55.8940   28.2070   45.2650 N   0  0  0  0  0  0  0  0  0  0  0  0
   56.3380   26.9200   45.7200 C   0  0  0  0  0  0  0  0  0  0  0  0
   57.6300   26.8030   46.2450 C   0  0  0  0  0  0  0  0  0  0  0  0
   58.0830   25.5790   46.7410 C   0  0  0  0  0  0  0  0  0  0  0  0
   57.2490   24.4580   46.7190 C   0  0  0  0  0  0  0  0  0  0  0  0
   57.7120   23.2550   47.2430 O   0  0  0  0  0  0  0  0  0  0  0  0
   55.9560   24.5540   46.1760 C   0  0  0  0  0  0  0  0  0  0  0  0
   54.8740   23.1590   46.1670 S   0  0  0  0  0  0  0  0  0  0  0  0
   53.7530   23.3090   44.8600 N   0  0  0  0  0  0  0  0  0  0  0  0
   55.6670   21.8940   45.9930 O   0  0  0  0  0  0  0  0  0  0  0  0
   54.1280   23.0810   47.4690 O   0  0  0  0  0  0  0  0  0  0  0  0
   55.5090   25.7850   45.6730 C   0  0  0  0  0  0  0  0  0  0  0  0
   57.3710   31.7710   44.3190 C   0  0  0  0  0  0  0  0  0  0  0  0
   58.0630   32.8190   44.9320 C   0  0  0  0  0  0  0  0  0  0  0  0
  1  2  1  0
  2  3  1  0
  2  4  1  0
  2  5  1  0
  5  6  2  0
  6  7  1  0
  7  8  2  0
  8  9  1  0
  9 10  2  0
  9 11  2  0
  9 12  1  0
 12 13  1  0
 13 14  2  0
 14 15  1  0
 15 16  2  0
 16 17  1  0
 16 18  1  0
 18 19  1  0
 19 20  1  0
 19 21  2  0
 19 22  2  0
 18 23  2  0
  8 24  1  0
 24 25  2  0
 25  5  1  0
 23 13  1  0
M  CHG  3  12  -1  17  -1  20  -1
M  END
>  <UniqueID>  (147) 
4

>  <SMILES>  (147) 
CC(C)(C)c1ccc(S(=O)(=O)[N-]c2ccc([O-])c(S([NH-])(=O)=O)c2)cc1

>  <Energy>  (147) 
46.17781647693794

>  <Genealogy>  (147) 
CC(C)(C)c1ccc(S(=O)(=O)[N-]c2ccc([O-])c(S([NH-])(=O)=O)c2)cc1 (protonated)
CC(C)(C)c1ccc(S(=O)(=O)[N-]c2ccc([O-])c(S([NH-])(=O)=O)c2)cc1 (3D coordinates assigned)
CC(C)(C)c1ccc(S(=O)(=O)[N-]c2ccc([O-])c(S([NH-])(=O)=O)c2)cc1 (optimized conformer: 46.17781647693794 kcal/mol)

>  <smiles>  (147) 
CC(C)(C)c1ccc(S(=O)(=O)Nc2ccc(O)c(S(N)(=O)=O)c2)cc1

>  <score_type>  (147) 
oracle

>  <origin>  (147) 
adg

>  <m_score__min__energy>  (147) 
-14.66

>  <m_primary>  (147) 
energy

$$$$
22:0
     RDKit          3D

 23 24  0  0  0  0  0  0  0  0999 V2000
   56.3160   29.9230   42.7430 C   0  0  0  0  0  0  0  0  0  0  0  0
   55.9840   30.0640   44.1890 C   0  0  0  0  0  0  0  0  0  0  0  0
   56.2050   31.1570   44.7760 O   0  0  0  0  0  0  0  0  0  0  0  0
   55.5170   28.9260   44.9220 N   0  0  0  0  0  0  0  0  0  0  0  0
   56.3520   27.9580   45.5720 C   0  0  0  0  0  0  0  0  0  0  0  0
   57.7100   28.2560   45.7480 C   0  0  0  0  0  0  0  0  0  0  0  0
   58.5670   27.3430   46.3860 C   0  0  0  0  0  0  0  0  0  0  0  0
   59.9390   27.6610   46.6530 N   0  0  0  0  0  0  0  0  0  0  0  0
   60.5430   28.9430   46.4560 C   0  0  0  0  0  0  0  0  0  0  0  0
   60.9430   29.2920   45.3120 O   0  0  0  0  0  0  0  0  0  0  0  0
   60.7380   29.8570   47.6260 C   0  0  0  0  0  0  0  0  0  0  0  0
   59.8260   30.9940   47.5490 N   0  0  0  0  0  0  0  0  0  0  0  0
   60.0430   32.2160   46.8250 C   0  0  0  0  0  0  0  0  0  0  0  0
   61.2110   32.6840   46.7760 O   0  0  0  0  0  0  0  0  0  0  0  0
   58.9570   32.9320   46.1260 C   0  0  0  0  0  0  0  0  0  0  0  0
   57.7190   33.2310   46.6630 C   0  0  0  0  0  0  0  0  0  0  0  0
   57.0350   33.9050   45.6750 C   0  0  0  0  0  0  0  0  0  0  0  0
   57.8890   33.9690   44.5940 C   0  0  0  0  0  0  0  0  0  0  0  0
   59.0230   33.3780   44.8930 O   0  0  0  0  0  0  0  0  0  0  0  0
   58.0510   26.1300   46.8550 C   0  0  0  0  0  0  0  0  0  0  0  0
   56.7070   25.8080   46.6470 C   0  0  0  0  0  0  0  0  0  0  0  0
   55.8590   26.7080   45.9940 C   0  0  0  0  0  0  0  0  0  0  0  0
   54.5420   26.3380   45.7490 O   0  0  0  0  0  0  0  0  0  0  0  0
  1  2  1  0
  2  3  2  0
  2  4  1  0
  4  5  1  0
  5  6  2  0
  6  7  1  0
  7  8  1  0
  8  9  1  0
  9 10  2  0
  9 11  1  0
 11 12  1  0
 12 13  1  0
 13 14  2  0
 13 15  1  0
 15 16  2  0
 16 17  1  0
 17 18  2  0
 18 19  1  0
  7 20  2  0
 20 21  1  0
 21 22  2  0
 22 23  1  0
 22  5  1  0
 19 15  1  0
M  CHG  4   4  -1   8  -1  12  -1  23  -1
M  END
>  <UniqueID>  (148) 
21

>  <SMILES>  (148) 
CC(=O)[N-]c1cc([N-]C(=O)C[N-]C(=O)c2ccco2)ccc1[O-]

>  <Energy>  (148) 
64.16242175324089

>  <Genealogy>  (148) 
CC(=O)[N-]c1cc([N-]C(=O)C[N-]C(=O)c2ccco2)ccc1[O-] (protonated)
CC(=O)[N-]c1cc([N-]C(=O)C[N-]C(=O)c2ccco2)ccc1[O-] (3D coordinates assigned)
CC(=O)[N-]c1cc([N-]C(=O)C[N-]C(=O)c2ccco2)ccc1[O-] (optimized conformer: 64.16242175324089 kcal/mol)

>  <smiles>  (148) 
CC(=O)Nc1cc(NC(=O)CNC(=O)c2ccco2)ccc1O

>  <score_type>  (148) 
oracle

>  <origin>  (148) 
adg

>  <m_score__min__energy>  (148) 
-14.289999999999999

>  <m_primary>  (148) 
energy

$$$$
66:0
     RDKit          3D

 33 36  0  0  0  0  0  0  0  0999 V2000
   55.1410   28.9830   44.5150 N   0  0  0  0  0  0  0  0  0  0  0  0
   56.5930   29.9100   44.3870 S   0  0  0  0  0  0  0  0  0  0  0  0
   56.2650   31.3710   44.5050 O   0  0  0  0  0  0  0  0  0  0  0  0
   57.2300   29.6650   43.0470 O   0  0  0  0  0  0  0  0  0  0  0  0
   57.7050   29.4410   45.6690 C   0  0  0  0  0  0  0  0  0  0  0  0
   57.5830   28.1890   46.2830 C   0  0  0  0  0  0  0  0  0  0  0  0
   58.4550   27.8220   47.3120 C   0  0  0  0  0  0  0  0  0  0  0  0
   59.4620   28.7010   47.7370 C   0  0  0  0  0  0  0  0  0  0  0  0
   60.3790   28.3310   48.8710 C   0  0  0  0  0  0  0  0  0  0  0  0
   59.7390   28.6390   50.1480 N   0  0  0  0  0  0  0  0  0  0  0  0
   59.0290   29.7000   50.3930 C   0  0  0  0  0  0  0  0  0  0  0  0
   59.3920   30.8820   49.8360 N   0  0  0  0  0  0  0  0  0  0  0  0
   58.6610   32.0060   50.0630 C   0  0  0  0  0  0  0  0  0  0  0  0
   59.0030   33.1510   49.5490 N   0  0  0  0  0  0  0  0  0  0  0  0
   58.8950   33.5470   48.1710 C   0  0  0  0  0  0  0  0  0  0  0  0
   59.8760   34.3930   47.6360 C   0  0  0  0  0  0  0  0  0  0  0  0
   59.7900   34.8260   46.3090 C   0  0  0  0  0  0  0  0  0  0  0  0
   58.7120   34.4330   45.5120 C   0  0  0  0  0  0  0  0  0  0  0  0
   57.7120   33.6150   46.0450 C   0  0  0  0  0  0  0  0  0  0  0  0
   57.7940   33.1790   47.3720 C   0  0  0  0  0  0  0  0  0  0  0  0
   57.5770   31.9440   50.8780 N   0  0  0  0  0  0  0  0  0  0  0  0
   57.2130   30.7690   51.4520 C   0  0  0  0  0  0  0  0  0  0  0  0
   56.1840   30.7430   52.2480 N   0  0  0  0  0  0  0  0  0  0  0  0
   55.1360   29.7240   52.2300 C   0  0  0  0  0  0  0  0  0  0  0  0
   53.7730   30.3650   52.1710 C   0  0  0  0  0  0  0  0  0  0  0  0
   53.2570   30.8430   50.9550 C   0  0  0  0  0  0  0  0  0  0  0  0
   51.9880   31.4270   50.9080 C   0  0  0  0  0  0  0  0  0  0  0  0
   51.2270   31.5450   52.0740 C   0  0  0  0  0  0  0  0  0  0  0  0
   51.7370   31.0830   53.2900 C   0  0  0  0  0  0  0  0  0  0  0  0
   53.0060   30.4970   53.3410 C   0  0  0  0  0  0  0  0  0  0  0  0
   57.9370   29.6450   51.2010 N   0  0  0  0  0  0  0  0  0  0  0  0
   59.5710   29.9630   47.1310 C   0  0  0  0  0  0  0  0  0  0  0  0
   58.6990   30.3310   46.1020 C   0  0  0  0  0  0  0  0  0  0  0  0
  1  2  1  0
  2  3  2  0
  2  4  2  0
  2  5  1  0
  5  6  2  0
  6  7  1  0
  7  8  2  0
  8  9  1  0
  9 10  1  0
 10 11  2  0
 11 12  1  0
 12 13  1  0
 13 14  2  3
 14 15  1  0
 15 16  2  0
 16 17  1  0
 17 18  2  0
 18 19  1  0
 19 20  2  0
 13 21  1  0
 21 22  1  0
 22 23  2  3
 23 24  1  0
 24 25  1  0
 25 26  2  0
 26 27  1  0
 27 28  2  0
 28 29  1  0
 29 30  2  0
 22 31  1  0
  8 32  1  0
 32 33  2  0
 33  5  1  0
 31 11  1  0
 20 15  1  0
 30 25  1  0
M  CHG  4   1  -1  12  -1  21  -1  31  -1
M  END
>  <UniqueID>  (149) 
63

>  <SMILES>  (149) 
[NH-]S(=O)(=O)c1ccc(C/N=c2\[n-]c(=NCc3ccccc3)[n-]c(=Nc3ccccc3)[n-]2)cc1

>  <Energy>  (149) 
60.4325364176435

>  <Genealogy>  (149) 
[NH-]S(=O)(=O)c1ccc(CN=c2[n-]c(=NCc3ccccc3)[n-]c(=Nc3ccccc3)[n-]2)cc1 (protonated)
[NH-]S(=O)(=O)c1ccc(C/N=c2\[n-]c(=NCc3ccccc3)[n-]c(=Nc3ccccc3)[n-]2)cc1 (cis-trans isomerization)
[NH-]S(=O)(=O)c1ccc(C/N=c2\[n-]c(=NCc3ccccc3)[n-]c(=Nc3ccccc3)[n-]2)cc1 (3D coordinates assigned)
[NH-]S(=O)(=O)c1ccc(C/N=c2\[n-]c(=NCc3ccccc3)[n-]c(=Nc3ccccc3)[n-]2)cc1 (optimized conformer: 60.4325364176435 kcal/mol)

>  <smiles>  (149) 
NS(=O)(=O)c1ccc(CN=c2[nH]c(=NCc3ccccc3)[nH]c(=Nc3ccccc3)[nH]2)cc1

>  <score_type>  (149) 
oracle

>  <origin>  (149) 
adg

>  <m_score__min__energy>  (149) 
-15.06

>  <m_primary>  (149) 
energy

$$$$
69:0
     RDKit          3D

 22 23  0  0  0  0  0  0  0  0999 V2000
   53.4130   25.0100   45.4230 O   0  0  0  0  0  0  0  0  0  0  0  0
   54.6400   25.2250   45.6240 C   0  0  0  0  0  0  0  0  0  0  0  0
   55.0620   26.4970   46.1350 N   0  0  0  0  0  0  0  0  0  0  0  0
   56.3220   27.1410   45.8960 C   0  0  0  0  0  0  0  0  0  0  0  0
   57.5440   26.5280   46.2330 C   0  0  0  0  0  0  0  0  0  0  0  0
   58.7580   27.1750   45.9680 C   0  0  0  0  0  0  0  0  0  0  0  0
   60.2830   26.4070   46.3880 S   0  0  0  0  0  0  0  0  0  0  0  0
   61.4100   27.1020   45.6780 O   0  0  0  0  0  0  0  0  0  0  0  0
   60.4970   26.4830   47.8730 O   0  0  0  0  0  0  0  0  0  0  0  0
   60.2540   24.7940   45.9350 F   0  0  0  0  0  0  0  0  0  0  0  0
   58.7560   28.4270   45.3410 C   0  0  0  0  0  0  0  0  0  0  0  0
   57.5480   29.0280   44.9810 C   0  0  0  0  0  0  0  0  0  0  0  0
   56.3350   28.3860   45.2510 C   0  0  0  0  0  0  0  0  0  0  0  0
   55.1410   28.9950   44.8800 O   0  0  0  0  0  0  0  0  0  0  0  0
   55.6380   24.1790   45.2670 C   0  0  0  0  0  0  0  0  0  0  0  0
   56.0410   24.0410   43.9240 C   0  0  0  0  0  0  0  0  0  0  0  0
   56.9770   23.0740   43.5550 C   0  0  0  0  0  0  0  0  0  0  0  0
   57.5260   22.2270   44.5160 C   0  0  0  0  0  0  0  0  0  0  0  0
   57.1410   22.3390   45.8540 C   0  0  0  0  0  0  0  0  0  0  0  0
   57.7070   21.4740   46.7910 O   0  0  0  0  0  0  0  0  0  0  0  0
   56.1960   23.3090   46.2360 C   0  0  0  0  0  0  0  0  0  0  0  0
   55.8200   23.3930   47.5730 O   0  0  0  0  0  0  0  0  0  0  0  0
  1  2  2  0
  2  3  1  0
  3  4  1  0
  4  5  2  0
  5  6  1  0
  6  7  1  0
  7  8  2  0
  7  9  2  0
  7 10  1  0
  6 11  2  0
 11 12  1  0
 12 13  2  0
 13 14  1  0
  2 15  1  0
 15 16  2  0
 16 17  1  0
 17 18  2  0
 18 19  1  0
 19 20  1  0
 19 21  2  0
 21 22  1  0
 13  4  1  0
 21 15  1  0
M  CHG  3   3  -1  14  -1  22  -1
M  END
>  <UniqueID>  (150) 
66

>  <SMILES>  (150) 
O=C([N-]c1cc(S(=O)(=O)F)ccc1[O-])c1cccc(O)c1[O-]

>  <Energy>  (150) 
37.75662008653046

>  <Genealogy>  (150) 
O=C([N-]c1cc(S(=O)(=O)F)ccc1[O-])c1cccc(O)c1[O-] (protonated)
O=C([N-]c1cc(S(=O)(=O)F)ccc1[O-])c1cccc(O)c1[O-] (3D coordinates assigned)
O=C([N-]c1cc(S(=O)(=O)F)ccc1[O-])c1cccc(O)c1[O-] (optimized conformer: 37.75662008653046 kcal/mol)

>  <smiles>  (150) 
O=C(Nc1cc(S(=O)(=O)F)ccc1O)c1cccc(O)c1O

>  <score_type>  (150) 
oracle

>  <origin>  (150) 
adg

>  <m_score__min__energy>  (150) 
-14.16

>  <m_primary>  (150) 
energy

$$$$
25:0
     RDKit          3D

 25 27  0  0  0  0  0  0  0  0999 V2000
   58.2720   28.5250   46.9530 C   0  0  0  0  0  0  0  0  0  0  0  0
   57.9100   27.2990   46.5380 C   0  0  0  0  0  0  0  0  0  0  0  0
   57.7590   26.3600   47.5050 N   0  0  0  0  0  0  0  0  0  0  0  0
   57.4580   25.0720   47.2360 C   0  0  0  0  0  0  0  0  0  0  0  0
   57.3320   24.2630   48.1960 O   0  0  0  0  0  0  0  0  0  0  0  0
   57.2890   24.6600   45.9460 N   0  0  0  0  0  0  0  0  0  0  0  0
   56.9230   23.2600   45.6630 C   0  0  0  0  0  0  0  0  0  0  0  0
   57.3580   25.5700   44.9210 C   0  0  0  0  0  0  0  0  0  0  0  0
   57.0250   25.2040   43.7600 O   0  0  0  0  0  0  0  0  0  0  0  0
   57.7280   26.9260   45.1700 C   0  0  0  0  0  0  0  0  0  0  0  0
   57.8420   27.8360   44.1600 C   0  0  0  0  0  0  0  0  0  0  0  0
   57.4830   29.2670   44.2360 C   0  0  0  0  0  0  0  0  0  0  0  0
   58.5600   30.5620   44.1380 S   0  0  0  0  0  0  0  0  0  0  0  0
   57.3750   31.7010   44.5310 C   0  0  0  0  0  0  0  0  0  0  0  0
   57.5550   32.9830   44.6580 N   0  0  0  0  0  0  0  0  0  0  0  0
   58.4140   33.6330   45.6110 C   0  0  0  0  0  0  0  0  0  0  0  0
   59.1060   34.8140   45.2850 C   0  0  0  0  0  0  0  0  0  0  0  0
   59.9020   35.4510   46.2420 C   0  0  0  0  0  0  0  0  0  0  0  0
   59.9960   34.9300   47.5340 C   0  0  0  0  0  0  0  0  0  0  0  0
   59.2850   33.7760   47.8750 C   0  0  0  0  0  0  0  0  0  0  0  0
   58.4850   33.1320   46.9200 C   0  0  0  0  0  0  0  0  0  0  0  0
   57.7670   31.9870   47.2650 O   0  0  0  0  0  0  0  0  0  0  0  0
   56.1850   31.1180   44.7900 N   0  0  0  0  0  0  0  0  0  0  0  0
   56.2480   29.7680   44.6380 C   0  0  0  0  0  0  0  0  0  0  0  0
   55.1460   28.9570   44.8770 O   0  0  0  0  0  0  0  0  0  0  0  0
  1  2  2  0
  2  3  1  0
  3  4  1  0
  4  5  2  0
  4  6  1  0
  6  7  1  0
  6  8  1  0
  8  9  2  0
  8 10  1  0
 10 11  2  3
 11 12  1  0
 12 13  1  0
 13 14  1  0
 14 15  2  3
 15 16  1  0
 16 17  2  0
 17 18  1  0
 18 19  2  0
 19 20  1  0
 20 21  2  0
 21 22  1  0
 14 23  1  0
 23 24  1  0
 24 25  1  0
 10  2  1  0
 24 12  2  0
 21 16  1  0
M  CHG  3   3  -1  23  -1  25  -1
M  END
>  <UniqueID>  (151) 
25

>  <SMILES>  (151) 
C=c1[n-]c(=O)n(C)c(=O)c1=Cc1sc(=Nc2ccccc2O)[n-]c1[O-]

>  <Energy>  (151) 
100.95629307774924

>  <Genealogy>  (151) 
C=c1[n-]c(=O)n(C)c(=O)c1=Cc1sc(=Nc2ccccc2O)[n-]c1[O-] (protonated)
C=c1[n-]c(=O)n(C)c(=O)c1=Cc1sc(=Nc2ccccc2O)[n-]c1[O-] (3D coordinates assigned)
C=c1[n-]c(=O)n(C)c(=O)c1=Cc1sc(=Nc2ccccc2O)[n-]c1[O-] (optimized conformer: 100.95629307774924 kcal/mol)

>  <smiles>  (151) 
C=c1[nH]c(=O)n(C)c(=O)c1=Cc1sc(=Nc2ccccc2O)[nH]c1O

>  <score_type>  (151) 
oracle

>  <origin>  (151) 
adg

>  <m_score__min__energy>  (151) 
-14.18

>  <m_primary>  (151) 
energy

$$$$
29:0
     RDKit          3D

 27 29  0  0  0  0  0  0  0  0999 V2000
   54.9630   26.1690   45.9910 N   0  0  0  0  0  0  0  0  0  0  0  0
   56.6480   25.8150   46.1260 S   0  0  0  0  0  0  0  0  0  0  0  0
   56.9980   25.5870   47.5700 O   0  0  0  0  0  0  0  0  0  0  0  0
   56.9620   24.5650   45.3520 O   0  0  0  0  0  0  0  0  0  0  0  0
   57.5870   27.1640   45.4960 C   0  0  0  0  0  0  0  0  0  0  0  0
   58.9810   27.1890   45.6410 C   0  0  0  0  0  0  0  0  0  0  0  0
   59.7150   28.2800   45.1660 C   0  0  0  0  0  0  0  0  0  0  0  0
   59.0610   29.3560   44.5600 C   0  0  0  0  0  0  0  0  0  0  0  0
   57.6680   29.3390   44.4080 C   0  0  0  0  0  0  0  0  0  0  0  0
   56.8320   30.7310   43.7210 S   0  0  0  0  0  0  0  0  0  0  0  0
   56.3990   30.4370   42.3120 O   0  0  0  0  0  0  0  0  0  0  0  0
   55.6240   31.0340   44.5600 O   0  0  0  0  0  0  0  0  0  0  0  0
   57.8800   32.1150   43.7110 N   0  0  0  0  0  0  0  0  0  0  0  0
   58.3110   32.8080   44.8890 C   0  0  0  0  0  0  0  0  0  0  0  0
   58.2360   32.1500   46.1230 C   0  0  0  0  0  0  0  0  0  0  0  0
   58.7740   32.7380   47.2710 C   0  0  0  0  0  0  0  0  0  0  0  0
   59.3730   34.0060   47.2030 C   0  0  0  0  0  0  0  0  0  0  0  0
   60.0730   34.5800   48.4030 C   0  0  0  0  0  0  0  0  0  0  0  0
   61.4840   34.0600   48.4620 C   0  0  0  0  0  0  0  0  0  0  0  0
   62.2090   34.1080   49.6630 C   0  0  0  0  0  0  0  0  0  0  0  0
   63.5370   33.6790   49.6840 C   0  0  0  0  0  0  0  0  0  0  0  0
   64.1260   33.2270   48.5450 N   0  0  0  0  0  0  0  0  0  0  0  0
   63.4520   33.1770   47.3660 C   0  0  0  0  0  0  0  0  0  0  0  0
   62.1210   33.5980   47.3000 C   0  0  0  0  0  0  0  0  0  0  0  0
   59.4050   34.6860   45.9760 C   0  0  0  0  0  0  0  0  0  0  0  0
   58.8700   34.0960   44.8280 C   0  0  0  0  0  0  0  0  0  0  0  0
   56.9390   28.2250   44.8520 C   0  0  0  0  0  0  0  0  0  0  0  0
  1  2  1  0
  2  3  2  0
  2  4  2  0
  2  5  1  0
  5  6  2  0
  6  7  1  0
  7  8  2  0
  8  9  1  0
  9 10  1  0
 10 11  2  0
 10 12  2  0
 10 13  1  0
 13 14  1  0
 14 15  2  0
 15 16  1  0
 16 17  2  0
 17 18  1  0
 18 19  1  0
 19 20  2  0
 20 21  1  0
 21 22  2  0
 22 23  1  0
 23 24  2  0
 17 25  1  0
 25 26  2  0
  9 27  2  0
 27  5  1  0
 26 14  1  0
 24 19  1  0
M  CHG  2   1  -1  13  -1
M  END
>  <UniqueID>  (152) 
29

>  <SMILES>  (152) 
[NH-]S(=O)(=O)c1cccc(S(=O)(=O)[N-]c2ccc(Cc3ccncc3)cc2)c1

>  <Energy>  (152) 
45.48383989565499

>  <Genealogy>  (152) 
[NH-]S(=O)(=O)c1cccc(S(=O)(=O)[N-]c2ccc(Cc3ccncc3)cc2)c1 (protonated)
[NH-]S(=O)(=O)c1cccc(S(=O)(=O)[N-]c2ccc(Cc3ccncc3)cc2)c1 (3D coordinates assigned)
[NH-]S(=O)(=O)c1cccc(S(=O)(=O)[N-]c2ccc(Cc3ccncc3)cc2)c1 (optimized conformer: 45.48383989565499 kcal/mol)

>  <smiles>  (152) 
NS(=O)(=O)c1cccc(S(=O)(=O)Nc2ccc(Cc3ccncc3)cc2)c1

>  <score_type>  (152) 
oracle

>  <origin>  (152) 
adg

>  <m_score__min__energy>  (152) 
-14.08

>  <m_primary>  (152) 
energy

$$$$
45:0
     RDKit          3D

 33 36  0  0  0  0  0  0  0  0999 V2000
   55.1510   30.0040   44.6650 O   0  0  0  0  0  0  0  0  0  0  0  0
   56.3840   29.7970   44.8120 C   0  0  0  0  0  0  0  0  0  0  0  0
   56.8970   28.4910   44.5190 N   0  0  0  0  0  0  0  0  0  0  0  0
   57.3740   27.5310   45.4750 C   0  0  0  0  0  0  0  0  0  0  0  0
   58.7580   27.4020   45.6610 C   0  0  0  0  0  0  0  0  0  0  0  0
   59.2650   26.4820   46.5840 C   0  0  0  0  0  0  0  0  0  0  0  0
   58.3940   25.6730   47.3160 C   0  0  0  0  0  0  0  0  0  0  0  0
   57.0140   25.7710   47.1160 C   0  0  0  0  0  0  0  0  0  0  0  0
   56.4990   26.6850   46.1890 C   0  0  0  0  0  0  0  0  0  0  0  0
   55.1270   26.7220   45.9690 O   0  0  0  0  0  0  0  0  0  0  0  0
   57.2650   30.9150   45.2310 C   0  0  0  0  0  0  0  0  0  0  0  0
   57.0320   32.2280   44.7850 C   0  0  0  0  0  0  0  0  0  0  0  0
   57.8650   33.2740   45.1930 C   0  0  0  0  0  0  0  0  0  0  0  0
   58.9380   33.0250   46.0560 C   0  0  0  0  0  0  0  0  0  0  0  0
   59.9580   34.3560   46.5960 S   0  0  0  0  0  0  0  0  0  0  0  0
   59.6660   35.5730   45.7640 O   0  0  0  0  0  0  0  0  0  0  0  0
   61.4120   34.0080   46.4330 O   0  0  0  0  0  0  0  0  0  0  0  0
   59.6190   34.7090   48.2590 N   0  0  0  0  0  0  0  0  0  0  0  0
   59.8810   33.8980   49.2400 C   0  0  0  0  0  0  0  0  0  0  0  0
   61.1870   33.4290   49.4180 C   0  0  0  0  0  0  0  0  0  0  0  0
   61.4720   32.5370   50.4640 C   0  0  0  0  0  0  0  0  0  0  0  0
   62.8760   32.0020   50.6730 C   0  0  0  0  0  0  0  0  0  0  0  0
   63.6780   31.9100   49.4310 N   0  0  0  0  0  0  0  0  0  0  0  0
   64.4760   33.1160   49.1200 C   0  0  0  0  0  0  0  0  0  0  0  0
   63.9500   33.8350   47.8650 C   0  0  0  0  0  0  0  0  0  0  0  0
   63.9460   33.0110   46.7050 O   0  0  0  0  0  0  0  0  0  0  0  0
   63.7090   31.6340   46.9710 C   0  0  0  0  0  0  0  0  0  0  0  0
   62.9320   31.3750   48.2720 C   0  0  0  0  0  0  0  0  0  0  0  0
   60.4390   32.1650   51.3370 C   0  0  0  0  0  0  0  0  0  0  0  0
   59.1500   32.6580   51.1320 C   0  0  0  0  0  0  0  0  0  0  0  0
   58.8990   33.5000   50.0970 N   0  0  0  0  0  0  0  0  0  0  0  0
   59.1650   31.7230   46.5200 C   0  0  0  0  0  0  0  0  0  0  0  0
   58.3320   30.6760   46.1140 C   0  0  0  0  0  0  0  0  0  0  0  0
  1  2  2  0
  2  3  1  0
  3  4  1  0
  4  5  2  0
  5  6  1  0
  6  7  2  0
  7  8  1  0
  8  9  2  0
  9 10  1  0
  2 11  1  0
 11 12  2  0
 12 13  1  0
 13 14  2  0
 14 15  1  0
 15 16  2  0
 15 17  2  0
 15 18  1  0
 18 19  2  3
 19 20  1  0
 20 21  2  0
 21 22  1  0
 22 23  1  0
 23 24  1  0
 24 25  1  0
 25 26  1  0
 26 27  1  0
 27 28  1  0
 21 29  1  0
 29 30  2  0
 30 31  1  0
 14 32  1  0
 32 33  2  0
  9  4  1  0
 33 11  1  0
 31 19  1  0
 28 23  1  0
M  CHG  3   3  -1  10  -1  31  -1
M  END
>  <UniqueID>  (153) 
43

>  <SMILES>  (153) 
O=C([N-]c1ccccc1[O-])c1ccc(S(=O)(=O)N=c2cc(CN3CCOCC3)cc[n-]2)cc1

>  <Energy>  (153) 
87.0420671104345

>  <Genealogy>  (153) 
O=C([N-]c1ccccc1[O-])c1ccc(S(=O)(=O)N=c2cc(CN3CCOCC3)cc[n-]2)cc1 (protonated)
O=C([N-]c1ccccc1[O-])c1ccc(S(=O)(=O)N=c2cc(CN3CCOCC3)cc[n-]2)cc1 (3D coordinates assigned)
O=C([N-]c1ccccc1[O-])c1ccc(S(=O)(=O)N=c2cc(CN3CCOCC3)cc[n-]2)cc1 (nonaromatic ring conformer: 87.0420671104345 kcal/mol)

>  <smiles>  (153) 
O=C(Nc1ccccc1O)c1ccc(S(=O)(=O)N=c2cc(CN3CCOCC3)cc[nH]2)cc1

>  <score_type>  (153) 
oracle

>  <origin>  (153) 
adg

>  <m_score__min__energy>  (153) 
-16.75

>  <m_primary>  (153) 
energy

$$$$
57:0
     RDKit          3D

 22 24  0  0  0  0  0  0  0  0999 V2000
   55.5200   31.1180   44.5870 O   0  0  0  0  0  0  0  0  0  0  0  0
   56.1510   30.0400   44.4230 C   0  0  0  0  0  0  0  0  0  0  0  0
   57.4700   30.0520   43.7200 C   0  0  0  0  0  0  0  0  0  0  0  0
   57.7200   31.6370   42.8480 S   0  0  0  0  0  0  0  0  0  0  0  0
   58.2190   32.5350   44.3160 C   0  0  0  0  0  0  0  0  0  0  0  0
   58.7080   33.8130   44.1990 N   0  0  0  0  0  0  0  0  0  0  0  0
   59.0920   34.5250   45.2980 C   0  0  0  0  0  0  0  0  0  0  0  0
   59.5360   35.6980   45.1820 O   0  0  0  0  0  0  0  0  0  0  0  0
   58.9760   33.9140   46.5370 C   0  0  0  0  0  0  0  0  0  0  0  0
   59.2490   34.2940   47.8290 C   0  0  0  0  0  0  0  0  0  0  0  0
   58.9270   33.2570   48.6420 N   0  0  0  0  0  0  0  0  0  0  0  0
   58.4640   32.2450   47.9100 N   0  0  0  0  0  0  0  0  0  0  0  0
   58.4960   32.6510   46.6310 C   0  0  0  0  0  0  0  0  0  0  0  0
   58.1150   31.9410   45.5430 N   0  0  0  0  0  0  0  0  0  0  0  0
   55.6580   28.8140   44.9770 N   0  0  0  0  0  0  0  0  0  0  0  0
   56.4590   27.8090   45.6110 C   0  0  0  0  0  0  0  0  0  0  0  0
   57.8450   28.0010   45.6790 C   0  0  0  0  0  0  0  0  0  0  0  0
   58.6650   27.0440   46.2840 C   0  0  0  0  0  0  0  0  0  0  0  0
   58.1060   25.8770   46.8110 C   0  0  0  0  0  0  0  0  0  0  0  0
   56.7290   25.6590   46.7200 C   0  0  0  0  0  0  0  0  0  0  0  0
   55.9030   26.6110   46.1100 C   0  0  0  0  0  0  0  0  0  0  0  0
   54.5460   26.3400   45.9750 O   0  0  0  0  0  0  0  0  0  0  0  0
  1  2  2  0
  2  3  1  0
  3  4  1  0
  4  5  1  0
  5  6  2  0
  6  7  1  0
  7  8  2  0
  7  9  1  0
  9 10  2  0
 10 11  1  0
 11 12  1  0
 12 13  2  0
 13 14  1  0
  2 15  1  0
 15 16  1  0
 16 17  2  0
 17 18  1  0
 18 19  2  0
 19 20  1  0
 20 21  2  0
 21 22  1  0
 14  5  1  0
 21 16  1  0
 13  9  1  0
M  CHG  4  11  -1  14  -1  15  -1  22  -1
M  END
>  <UniqueID>  (154) 
55

>  <SMILES>  (154) 
O=C(CSc1nc(=O)c2c[n-]nc2[n-]1)[N-]c1ccccc1[O-]

>  <Energy>  (154) 
74.16528079142402

>  <Genealogy>  (154) 
O=C(CSc1nc(=O)c2c[n-]nc2[n-]1)[N-]c1ccccc1[O-] (protonated)
O=C(CSc1nc(=O)c2c[n-]nc2[n-]1)[N-]c1ccccc1[O-] (3D coordinates assigned)
O=C(CSc1nc(=O)c2c[n-]nc2[n-]1)[N-]c1ccccc1[O-] (optimized conformer: 74.16528079142402 kcal/mol)

>  <smiles>  (154) 
O=C(CSc1nc(=O)c2c[nH]nc2[nH]1)Nc1ccccc1O

>  <score_type>  (154) 
oracle

>  <origin>  (154) 
adg

>  <m_score__min__energy>  (154) 
-16.09

>  <m_primary>  (154) 
energy

$$$$
56:0
     RDKit          3D

 28 30  0  0  0  0  0  0  0  0999 V2000
   55.1430   29.5140   44.8650 O   0  0  0  0  0  0  0  0  0  0  0  0
   56.3260   29.2990   45.2350 C   0  0  0  0  0  0  0  0  0  0  0  0
   57.2150   30.3640   45.2820 O   0  0  0  0  0  0  0  0  0  0  0  0
   56.7550   27.9150   45.5330 C   0  0  0  0  0  0  0  0  0  0  0  0
   55.7760   27.0160   45.8240 N   0  0  0  0  0  0  0  0  0  0  0  0
   56.0520   25.7190   46.1040 C   0  0  0  0  0  0  0  0  0  0  0  0
   55.1170   24.9190   46.3600 O   0  0  0  0  0  0  0  0  0  0  0  0
   57.3350   25.2860   46.1080 N   0  0  0  0  0  0  0  0  0  0  0  0
   58.3630   26.1310   45.8430 C   0  0  0  0  0  0  0  0  0  0  0  0
   59.5400   25.6820   45.8770 O   0  0  0  0  0  0  0  0  0  0  0  0
   58.1110   27.4890   45.5440 C   0  0  0  0  0  0  0  0  0  0  0  0
   59.2760   28.4480   45.3500 C   0  0  0  0  0  0  0  0  0  0  0  0
   59.6410   29.1500   46.6350 C   0  0  0  0  0  0  0  0  0  0  0  0
   59.0560   28.7540   47.8490 C   0  0  0  0  0  0  0  0  0  0  0  0
   59.4060   29.3910   49.0410 C   0  0  0  0  0  0  0  0  0  0  0  0
   60.3510   30.4190   49.0380 C   0  0  0  0  0  0  0  0  0  0  0  0
   60.9700   30.8120   47.8360 C   0  0  0  0  0  0  0  0  0  0  0  0
   61.9620   31.8550   47.7970 N   0  0  0  0  0  0  0  0  0  0  0  0
   61.6200   33.5030   47.3790 S   0  0  0  0  0  0  0  0  0  0  0  0
   62.6360   33.9760   46.3770 O   0  0  0  0  0  0  0  0  0  0  0  0
   61.7150   34.3580   48.6110 O   0  0  0  0  0  0  0  0  0  0  0  0
   59.9910   33.6330   46.7240 C   0  0  0  0  0  0  0  0  0  0  0  0
   58.8910   33.2320   47.4960 C   0  0  0  0  0  0  0  0  0  0  0  0
   57.5970   33.3180   46.9760 C   0  0  0  0  0  0  0  0  0  0  0  0
   57.3950   33.8090   45.6830 C   0  0  0  0  0  0  0  0  0  0  0  0
   58.4870   34.2170   44.9110 C   0  0  0  0  0  0  0  0  0  0  0  0
   59.7820   34.1300   45.4290 C   0  0  0  0  0  0  0  0  0  0  0  0
   60.6090   30.1690   46.6410 C   0  0  0  0  0  0  0  0  0  0  0  0
  1  2  2  0
  2  3  1  0
  2  4  1  0
  4  5  1  0
  5  6  1  0
  6  7  2  0
  6  8  1  0
  8  9  1  0
  9 10  2  0
  9 11  1  0
 11 12  1  0
 12 13  1  0
 13 14  2  0
 14 15  1  0
 15 16  2  0
 16 17  1  0
 17 18  1  0
 18 19  1  0
 19 20  2  0
 19 21  2  0
 19 22  1  0
 22 23  2  0
 23 24  1  0
 24 25  2  0
 25 26  1  0
 26 27  2  0
 17 28  2  0
 11  4  2  0
 28 13  1  0
 27 22  1  0
M  CHG  3   3  -1   5  -1   8  -1
M  END
>  <UniqueID>  (155) 
54

>  <SMILES>  (155) 
O=C([O-])c1[n-]c(=O)[n-]c(=O)c1Cc1cccc(NS(=O)(=O)c2ccccc2)c1

>  <Energy>  (155) 
52.87447669773741

>  <Genealogy>  (155) 
O=C([O-])c1[n-]c(=O)[n-]c(=O)c1Cc1cccc(NS(=O)(=O)c2ccccc2)c1 (protonated)
O=C([O-])c1[n-]c(=O)[n-]c(=O)c1Cc1cccc(NS(=O)(=O)c2ccccc2)c1 (3D coordinates assigned)
O=C([O-])c1[n-]c(=O)[n-]c(=O)c1Cc1cccc(NS(=O)(=O)c2ccccc2)c1 (optimized conformer: 52.87447669773741 kcal/mol)

>  <smiles>  (155) 
O=C(O)c1[nH]c(=O)[nH]c(=O)c1Cc1cccc(NS(=O)(=O)c2ccccc2)c1

>  <score_type>  (155) 
oracle

>  <origin>  (155) 
adg

>  <m_score__min__energy>  (155) 
-15.800000000000001

>  <m_primary>  (155) 
energy

$$$$
45:0
     RDKit          3D

 37 40  0  0  0  0  0  0  0  0999 V2000
   67.3180   35.2930   51.6310 C   0  0  0  0  0  0  0  0  0  0  0  0
   66.1890   34.4440   51.5010 O   0  0  0  0  0  0  0  0  0  0  0  0
   65.0850   33.6110   51.3780 C   0  0  0  0  0  0  0  0  0  0  0  0
   63.8320   34.0650   51.7930 C   0  0  0  0  0  0  0  0  0  0  0  0
   62.7070   33.2530   51.6550 C   0  0  0  0  0  0  0  0  0  0  0  0
   62.8150   31.9880   51.0510 C   0  0  0  0  0  0  0  0  0  0  0  0
   61.6780   31.1230   50.8710 N   0  0  0  0  0  0  0  0  0  0  0  0
   61.3670   30.4480   49.8000 C   0  0  0  0  0  0  0  0  0  0  0  0
   60.9800   29.1500   49.8710 N   0  0  0  0  0  0  0  0  0  0  0  0
   60.6790   28.4520   48.7510 C   0  0  0  0  0  0  0  0  0  0  0  0
   60.3560   27.2400   48.8610 O   0  0  0  0  0  0  0  0  0  0  0  0
   60.7420   29.0580   47.5240 N   0  0  0  0  0  0  0  0  0  0  0  0
   60.4440   28.3020   46.2910 C   0  0  0  0  0  0  0  0  0  0  0  0
   59.0140   28.5130   45.8610 C   0  0  0  0  0  0  0  0  0  0  0  0
   58.0220   27.5870   46.2210 C   0  0  0  0  0  0  0  0  0  0  0  0
   56.7050   27.7550   45.7860 C   0  0  0  0  0  0  0  0  0  0  0  0
   56.3610   28.8500   44.9870 C   0  0  0  0  0  0  0  0  0  0  0  0
   55.0610   28.9660   44.5050 O   0  0  0  0  0  0  0  0  0  0  0  0
   57.3360   29.8090   44.6570 C   0  0  0  0  0  0  0  0  0  0  0  0
   57.0050   30.9700   43.8130 C   0  0  0  0  0  0  0  0  0  0  0  0
   56.3720   30.7840   42.7410 O   0  0  0  0  0  0  0  0  0  0  0  0
   57.4120   32.3000   44.1500 N   0  0  0  0  0  0  0  0  0  0  0  0
   56.9870   33.0450   45.3320 C   0  0  0  0  0  0  0  0  0  0  0  0
   58.1780   33.4280   46.1690 C   0  0  0  0  0  0  0  0  0  0  0  0
   58.2300   33.0540   47.5220 C   0  0  0  0  0  0  0  0  0  0  0  0
   59.3310   33.4020   48.3090 C   0  0  0  0  0  0  0  0  0  0  0  0
   60.3820   34.1380   47.7530 C   0  0  0  0  0  0  0  0  0  0  0  0
   60.3320   34.5260   46.4070 C   0  0  0  0  0  0  0  0  0  0  0  0
   59.2340   34.1750   45.6180 C   0  0  0  0  0  0  0  0  0  0  0  0
   58.6610   29.6230   45.0800 C   0  0  0  0  0  0  0  0  0  0  0  0
   61.0840   30.3840   47.4620 C   0  0  0  0  0  0  0  0  0  0  0  0
   61.1170   30.9900   46.3570 O   0  0  0  0  0  0  0  0  0  0  0  0
   61.3990   31.0630   48.5950 N   0  0  0  0  0  0  0  0  0  0  0  0
   64.0830   31.5180   50.6740 C   0  0  0  0  0  0  0  0  0  0  0  0
   65.2260   32.3300   50.8280 C   0  0  0  0  0  0  0  0  0  0  0  0
   66.5080   31.9030   50.4510 O   0  0  0  0  0  0  0  0  0  0  0  0
   67.1330   30.7150   50.9250 C   0  0  0  0  0  0  0  0  0  0  0  0
  1  2  1  0
  2  3  1  0
  3  4  2  0
  4  5  1  0
  5  6  2  0
  6  7  1  0
  7  8  2  3
  8  9  1  0
  9 10  1  0
 10 11  2  0
 10 12  1  0
 12 13  1  0
 13 14  1  0
 14 15  2  0
 15 16  1  0
 16 17  2  0
 17 18  1  0
 17 19  1  0
 19 20  1  0
 20 21  2  0
 20 22  1  0
 22 23  1  0
 23 24  1  0
 24 25  2  0
 25 26  1  0
 26 27  2  0
 27 28  1  0
 28 29  2  0
 19 30  2  0
 12 31  1  0
 31 32  2  0
 31 33  1  0
  6 34  1  0
 34 35  2  0
 35 36  1  0
 36 37  1  0
 35  3  1  0
 33  8  1  0
 30 14  1  0
 29 24  1  0
M  CHG  4   9  -1  18  -1  22  -1  33  -1
M  END
>  <UniqueID>  (156) 
43

>  <SMILES>  (156) 
COc1ccc(N=c2[n-]c(=O)n(Cc3ccc([O-])c(C(=O)[N-]Cc4ccccc4)c3)c(=O)[n-]2)cc1OC

>  <Energy>  (156) 
128.71224409464023

>  <Genealogy>  (156) 
COc1ccc(N=c2[n-]c(=O)n(Cc3ccc([O-])c(C(=O)[N-]Cc4ccccc4)c3)c(=O)[n-]2)cc1OC (protonated)
COc1ccc(N=c2[n-]c(=O)n(Cc3ccc([O-])c(C(=O)[N-]Cc4ccccc4)c3)c(=O)[n-]2)cc1OC (3D coordinates assigned)
COc1ccc(N=c2[n-]c(=O)n(Cc3ccc([O-])c(C(=O)[N-]Cc4ccccc4)c3)c(=O)[n-]2)cc1OC (optimized conformer: 128.71224409464023 kcal/mol)

>  <smiles>  (156) 
COc1ccc(N=c2[nH]c(=O)n(Cc3ccc(O)c(C(=O)NCc4ccccc4)c3)c(=O)[nH]2)cc1OC

>  <score_type>  (156) 
oracle

>  <origin>  (156) 
adg

>  <m_score__min__energy>  (156) 
-15.06

>  <m_primary>  (156) 
energy

$$$$
85:0
     RDKit          3D

 29 33  0  0  0  0  0  0  0  0999 V2000
   56.4830   28.6880   44.8960 C   0  0  0  0  0  0  0  0  0  0  0  0
   56.3390   29.9760   44.7970 N   0  0  0  0  0  0  0  0  0  0  0  0
   57.2950   30.5790   45.6290 N   0  0  0  0  0  0  0  0  0  0  0  0
   58.0550   31.6790   45.3930 C   0  0  0  0  0  0  0  0  0  0  0  0
   57.6650   32.8290   44.9060 N   0  0  0  0  0  0  0  0  0  0  0  0
   57.8590   34.2540   45.2290 C   0  0  0  0  0  0  0  0  0  0  0  0
   58.5450   34.5420   46.5480 C   0  0  0  0  0  0  0  0  0  0  0  0
   59.2660   34.8210   45.2250 C   0  0  0  0  0  0  0  0  0  0  0  0
   59.3360   31.4850   45.7940 N   0  0  0  0  0  0  0  0  0  0  0  0
   59.3070   30.2120   46.2550 C   0  0  0  0  0  0  0  0  0  0  0  0
   60.3580   29.5450   46.6290 N   0  0  0  0  0  0  0  0  0  0  0  0
   61.0880   29.7920   47.8700 C   0  0  0  0  0  0  0  0  0  0  0  0
   60.1850   30.4220   48.8960 C   0  0  0  0  0  0  0  0  0  0  0  0
   60.1660   31.8160   49.0730 C   0  0  0  0  0  0  0  0  0  0  0  0
   59.3060   32.3960   50.0100 C   0  0  0  0  0  0  0  0  0  0  0  0
   58.4580   31.5890   50.7780 C   0  0  0  0  0  0  0  0  0  0  0  0
   57.3800   32.3190   51.9540 Cl  0  0  0  0  0  0  0  0  0  0  0  0
   58.4700   30.2010   50.6050 C   0  0  0  0  0  0  0  0  0  0  0  0
   59.3270   29.6200   49.6670 C   0  0  0  0  0  0  0  0  0  0  0  0
   58.0720   29.6860   46.1860 N   0  0  0  0  0  0  0  0  0  0  0  0
   57.6180   28.4030   45.7850 C   0  0  0  0  0  0  0  0  0  0  0  0
   58.2030   27.2340   46.0760 C   0  0  0  0  0  0  0  0  0  0  0  0
   57.4630   26.0350   46.4990 C   0  0  0  0  0  0  0  0  0  0  0  0
   58.0460   24.9850   47.1040 N   0  0  0  0  0  0  0  0  0  0  0  0
   57.0100   24.1640   47.3780 C   0  0  0  0  0  0  0  0  0  0  0  0
   57.1590   23.0500   47.9440 O   0  0  0  0  0  0  0  0  0  0  0  0
   55.8000   24.6360   47.0100 N   0  0  0  0  0  0  0  0  0  0  0  0
   56.1010   25.8250   46.4650 C   0  0  0  0  0  0  0  0  0  0  0  0
   55.1450   26.7190   45.9980 O   0  0  0  0  0  0  0  0  0  0  0  0
  1  2  2  0
  2  3  1  0
  3  4  1  0
  4  5  2  0
  5  6  1  0
  6  7  1  0
  7  8  1  0
  4  9  1  0
  9 10  1  0
 10 11  2  3
 11 12  1  0
 12 13  1  0
 13 14  2  0
 14 15  1  0
 15 16  2  0
 16 17  1  0
 16 18  1  0
 18 19  2  0
 10 20  1  0
 20 21  1  0
 21 22  2  0
 22 23  1  0
 23 24  1  0
 24 25  1  0
 25 26  2  0
 25 27  1  0
 27 28  1  0
 28 29  1  0
 21  1  1  0
 28 23  2  0
 20  3  1  0
  8  6  1  0
 19 13  1  0
M  CHG  4   9  -1  24  -1  27  -1  29  -1
M  END
>  <UniqueID>  (157) 
81

>  <SMILES>  (157) 
O=c1[n-]c([O-])c(/C=C2\C=Nn3/c(=N\C4CC4)[n-]c(=NCc4ccc(Cl)cc4)n32)[n-]1

>  <Energy>  (157) 
456.83464151699707

>  <Genealogy>  (157) 
O=c1[n-]c([O-])c(C=C2C=Nn3c(=NC4CC4)[n-]c(=NCc4ccc(Cl)cc4)n32)[n-]1 (protonated)
O=c1[n-]c([O-])c(/C=C2\C=Nn3/c(=N\C4CC4)[n-]c(=NCc4ccc(Cl)cc4)n32)[n-]1 (cis-trans isomerization)
O=c1[n-]c([O-])c(/C=C2\C=Nn3/c(=N\C4CC4)[n-]c(=NCc4ccc(Cl)cc4)n32)[n-]1 (3D coordinates assigned)
O=c1[n-]c([O-])c(/C=C2\C=Nn3/c(=N\C4CC4)[n-]c(=NCc4ccc(Cl)cc4)n32)[n-]1 (nonaromatic ring conformer: 456.83464151699707 kcal/mol)

>  <smiles>  (157) 
O=c1[nH]c(O)c(C=C2C=Nn3c(=NC4CC4)[nH]c(=NCc4ccc(Cl)cc4)n32)[nH]1

>  <score_type>  (157) 
oracle

>  <origin>  (157) 
adg

>  <m_score__min__energy>  (157) 
-17.140000000000001

>  <m_primary>  (157) 
energy

$$$$
14:0
     RDKit          3D

 25 27  0  0  0  0  0  0  0  0999 V2000
   59.2000   28.9940   49.1980 C   0  0  0  0  0  0  0  0  0  0  0  0
   59.2270   28.9870   47.6950 C   0  0  0  0  0  0  0  0  0  0  0  0
   58.4550   28.0530   46.9830 C   0  0  0  0  0  0  0  0  0  0  0  0
   58.4720   28.0330   45.5820 C   0  0  0  0  0  0  0  0  0  0  0  0
   57.6140   27.0560   44.8250 C   0  0  0  0  0  0  0  0  0  0  0  0
   57.1500   25.9630   45.7360 C   0  0  0  0  0  0  0  0  0  0  0  0
   58.0760   24.6380   46.2110 S   0  0  0  0  0  0  0  0  0  0  0  0
   56.8030   23.9520   47.0680 C   0  0  0  0  0  0  0  0  0  0  0  0
   56.8780   22.8680   47.7030 O   0  0  0  0  0  0  0  0  0  0  0  0
   55.6740   24.6880   47.0020 N   0  0  0  0  0  0  0  0  0  0  0  0
   55.8660   25.8060   46.2530 C   0  0  0  0  0  0  0  0  0  0  0  0
   54.8410   26.7150   46.0260 O   0  0  0  0  0  0  0  0  0  0  0  0
   59.2500   28.9710   44.8900 C   0  0  0  0  0  0  0  0  0  0  0  0
   60.0190   29.9040   45.5890 C   0  0  0  0  0  0  0  0  0  0  0  0
   60.0180   29.9200   46.9970 C   0  0  0  0  0  0  0  0  0  0  0  0
   60.7760   30.8450   47.7380 O   0  0  0  0  0  0  0  0  0  0  0  0
   60.7030   32.2670   47.6190 C   0  0  0  0  0  0  0  0  0  0  0  0
   59.2670   32.7530   47.8180 C   0  0  0  0  0  0  0  0  0  0  0  0
   58.7240   33.2510   46.5550 N   0  0  0  0  0  0  0  0  0  0  0  0
   57.8680   32.6120   45.7340 C   0  0  0  0  0  0  0  0  0  0  0  0
   57.4050   31.3190   45.9460 O   0  0  0  0  0  0  0  0  0  0  0  0
   57.5130   33.4160   44.6690 C   0  0  0  0  0  0  0  0  0  0  0  0
   58.1760   34.6170   44.8560 C   0  0  0  0  0  0  0  0  0  0  0  0
   58.8980   34.4770   46.0250 C   0  0  0  0  0  0  0  0  0  0  0  0
   59.6940   35.4650   46.5900 O   0  0  0  0  0  0  0  0  0  0  0  0
  1  2  1  0
  2  3  2  0
  3  4  1  0
  4  5  1  0
  5  6  1  0
  6  7  1  0
  7  8  1  0
  8  9  2  0
  8 10  1  0
 10 11  1  0
 11 12  1  0
  4 13  2  0
 13 14  1  0
 14 15  2  0
 15 16  1  0
 16 17  1  0
 17 18  1  0
 18 19  1  0
 19 20  1  0
 20 21  1  0
 20 22  2  0
 22 23  1  0
 23 24  2  0
 24 25  1  0
 15  2  1  0
 24 19  1  0
 11  6  2  0
M  CHG  4  10  -1  12  -1  21  -1  25  -1
M  END
>  <UniqueID>  (158) 
12

>  <SMILES>  (158) 
Cc1cc(Cc2sc(=O)[n-]c2[O-])ccc1OCCn1c([O-])ccc1[O-]

>  <Energy>  (158) 
95.68188698615556

>  <Genealogy>  (158) 
Cc1cc(Cc2sc(=O)[n-]c2[O-])ccc1OCCn1c([O-])ccc1[O-] (protonated)
Cc1cc(Cc2sc(=O)[n-]c2[O-])ccc1OCCn1c([O-])ccc1[O-] (3D coordinates assigned)
Cc1cc(Cc2sc(=O)[n-]c2[O-])ccc1OCCn1c([O-])ccc1[O-] (optimized conformer: 95.68188698615556 kcal/mol)

>  <smiles>  (158) 
Cc1cc(Cc2sc(=O)[nH]c2O)ccc1OCCn1c(O)ccc1O

>  <score_type>  (158) 
oracle

>  <origin>  (158) 
adg

>  <m_score__min__energy>  (158) 
-15.43

>  <m_primary>  (158) 
energy

$$$$
41:0
     RDKit          3D

 30 33  0  0  0  0  0  0  0  0999 V2000
   57.2820   22.4130   47.7430 N   0  0  0  0  0  0  0  0  0  0  0  0
   56.2400   23.3250   46.7060 S   0  0  0  0  0  0  0  0  0  0  0  0
   54.9830   23.6850   47.4460 O   0  0  0  0  0  0  0  0  0  0  0  0
   55.8820   22.4840   45.5110 O   0  0  0  0  0  0  0  0  0  0  0  0
   57.0630   24.7980   46.1990 C   0  0  0  0  0  0  0  0  0  0  0  0
   58.4540   24.7920   46.0490 C   0  0  0  0  0  0  0  0  0  0  0  0
   59.1200   25.9440   45.6250 C   0  0  0  0  0  0  0  0  0  0  0  0
   58.4010   27.1140   45.3670 C   0  0  0  0  0  0  0  0  0  0  0  0
   57.0110   27.1470   45.5450 C   0  0  0  0  0  0  0  0  0  0  0  0
   56.3180   28.3810   45.2860 N   0  0  0  0  0  0  0  0  0  0  0  0
   56.8550   29.5620   45.1770 C   0  0  0  0  0  0  0  0  0  0  0  0
   56.2750   30.6090   44.5600 N   0  0  0  0  0  0  0  0  0  0  0  0
   57.1690   31.5910   44.8070 C   0  0  0  0  0  0  0  0  0  0  0  0
   57.0220   32.8200   44.4110 N   0  0  0  0  0  0  0  0  0  0  0  0
   57.1210   33.9890   45.2870 C   0  0  0  0  0  0  0  0  0  0  0  0
   58.3800   33.9530   46.1170 C   0  0  0  0  0  0  0  0  0  0  0  0
   59.6160   34.2740   45.5400 C   0  0  0  0  0  0  0  0  0  0  0  0
   60.7900   34.1960   46.2950 C   0  0  0  0  0  0  0  0  0  0  0  0
   60.7470   33.7920   47.6430 C   0  0  0  0  0  0  0  0  0  0  0  0
   61.9960   33.6980   48.4440 C   0  0  0  0  0  0  0  0  0  0  0  0
   63.1350   33.0560   47.9220 C   0  0  0  0  0  0  0  0  0  0  0  0
   64.3080   32.9690   48.6790 C   0  0  0  0  0  0  0  0  0  0  0  0
   64.3580   33.5200   49.9620 C   0  0  0  0  0  0  0  0  0  0  0  0
   63.2340   34.1580   50.4900 C   0  0  0  0  0  0  0  0  0  0  0  0
   62.0580   34.2480   49.7390 C   0  0  0  0  0  0  0  0  0  0  0  0
   59.5040   33.4750   48.2180 C   0  0  0  0  0  0  0  0  0  0  0  0
   58.3320   33.5580   47.4630 C   0  0  0  0  0  0  0  0  0  0  0  0
   58.2260   31.1790   45.5340 N   0  0  0  0  0  0  0  0  0  0  0  0
   58.0190   29.8940   45.7590 N   0  0  0  0  0  0  0  0  0  0  0  0
   56.3400   25.9700   45.9320 C   0  0  0  0  0  0  0  0  0  0  0  0
  1  2  1  0
  2  3  2  0
  2  4  2  0
  2  5  1  0
  5  6  2  0
  6  7  1  0
  7  8  2  0
  8  9  1  0
  9 10  1  0
 10 11  2  0
 11 12  1  0
 12 13  1  0
 13 14  2  3
 14 15  1  0
 15 16  1  0
 16 17  2  0
 17 18  1  0
 18 19  2  0
 19 20  1  0
 20 21  2  0
 21 22  1  0
 22 23  2  0
 23 24  1  0
 24 25  2  0
 19 26  1  0
 26 27  2  0
 13 28  1  0
 28 29  1  0
  9 30  2  0
 30  5  1  0
 29 11  1  0
 27 16  1  0
 25 20  1  0
M  CHG  3   1  -1  12  -1  28  -1
M  END
>  <UniqueID>  (159) 
38

>  <SMILES>  (159) 
[NH-]S(=O)(=O)c1cccc(/N=c2\[n-]c(=NCc3ccc(-c4ccccc4)cc3)[n-][nH]2)c1

>  <Energy>  (159) 
92.5740118419834

>  <Genealogy>  (159) 
[NH-]S(=O)(=O)c1cccc(N=c2[n-]c(=NCc3ccc(-c4ccccc4)cc3)[n-][nH]2)c1 (protonated)
[NH-]S(=O)(=O)c1cccc(/N=c2\[n-]c(=NCc3ccc(-c4ccccc4)cc3)[n-][nH]2)c1 (cis-trans isomerization)
[NH-]S(=O)(=O)c1cccc(/N=c2\[n-]c(=NCc3ccc(-c4ccccc4)cc3)[n-][nH]2)c1 (3D coordinates assigned)
[NH-]S(=O)(=O)c1cccc(/N=c2\[n-]c(=NCc3ccc(-c4ccccc4)cc3)[n-][nH]2)c1 (optimized conformer: 92.5740118419834 kcal/mol)

>  <smiles>  (159) 
NS(=O)(=O)c1cccc(N=c2[nH][nH]c(=NCc3ccc(-c4ccccc4)cc3)[nH]2)c1

>  <score_type>  (159) 
oracle

>  <origin>  (159) 
adg

>  <m_score__min__energy>  (159) 
-14.949999999999999

>  <m_primary>  (159) 
energy

$$$$
47:0
     RDKit          3D

 29 33  0  0  0  0  0  0  0  0999 V2000
   58.2170   27.1580   45.5480 C   0  0  0  0  0  0  0  0  0  0  0  0
   57.4390   26.0500   46.1290 C   0  0  0  0  0  0  0  0  0  0  0  0
   58.0050   24.9580   46.6700 N   0  0  0  0  0  0  0  0  0  0  0  0
   56.9510   24.2580   47.1420 C   0  0  0  0  0  0  0  0  0  0  0  0
   57.0780   23.1460   47.7170 O   0  0  0  0  0  0  0  0  0  0  0  0
   55.7510   24.8480   46.9580 N   0  0  0  0  0  0  0  0  0  0  0  0
   56.0770   25.9880   46.3270 C   0  0  0  0  0  0  0  0  0  0  0  0
   55.1510   26.9680   45.9880 O   0  0  0  0  0  0  0  0  0  0  0  0
   57.7380   28.3990   45.3710 C   0  0  0  0  0  0  0  0  0  0  0  0
   56.7250   28.8380   44.5220 C   0  0  0  0  0  0  0  0  0  0  0  0
   56.6020   30.1790   44.6380 N   0  0  0  0  0  0  0  0  0  0  0  0
   57.4950   30.6130   45.5200 N   0  0  0  0  0  0  0  0  0  0  0  0
   57.7720   31.8760   45.9820 C   0  0  0  0  0  0  0  0  0  0  0  0
   57.1420   32.9560   45.6100 N   0  0  0  0  0  0  0  0  0  0  0  0
   57.6650   34.1610   44.9820 C   0  0  0  0  0  0  0  0  0  0  0  0
   58.8920   34.7410   45.6640 C   0  0  0  0  0  0  0  0  0  0  0  0
   59.0440   33.9320   44.3870 C   0  0  0  0  0  0  0  0  0  0  0  0
   58.7680   32.0070   46.9010 N   0  0  0  0  0  0  0  0  0  0  0  0
   59.4800   30.9270   47.3430 C   0  0  0  0  0  0  0  0  0  0  0  0
   60.4900   31.0720   48.3030 O   0  0  0  0  0  0  0  0  0  0  0  0
   61.6270   31.8820   48.1650 C   0  0  0  0  0  0  0  0  0  0  0  0
   61.7640   32.8110   47.1160 C   0  0  0  0  0  0  0  0  0  0  0  0
   62.9210   33.5880   47.0120 C   0  0  0  0  0  0  0  0  0  0  0  0
   63.9530   33.4390   47.9420 C   0  0  0  0  0  0  0  0  0  0  0  0
   63.8330   32.5030   48.9750 C   0  0  0  0  0  0  0  0  0  0  0  0
   65.1340   32.3050   50.1360 Cl  0  0  0  0  0  0  0  0  0  0  0  0
   62.6760   31.7230   49.0800 C   0  0  0  0  0  0  0  0  0  0  0  0
   59.1850   29.6850   46.8780 N   0  0  0  0  0  0  0  0  0  0  0  0
   58.1920   29.5560   45.9660 C   0  0  0  0  0  0  0  0  0  0  0  0
  1  2  1  0
  2  3  1  0
  3  4  1  0
  4  5  2  0
  4  6  1  0
  6  7  1  0
  7  8  1  0
  1  9  2  0
  9 10  1  0
 10 11  2  0
 11 12  1  0
 12 13  1  0
 13 14  2  3
 14 15  1  0
 15 16  1  0
 16 17  1  0
 13 18  1  0
 18 19  2  0
 19 20  1  0
 20 21  1  0
 21 22  2  0
 22 23  1  0
 23 24  2  0
 24 25  1  0
 25 26  1  0
 25 27  2  0
 19 28  1  0
 28 29  2  0
  7  2  2  0
 29  9  1  0
 29 12  1  0
 17 15  1  0
 27 21  1  0
M  CHG  4   3  -1   6  -1   8  -1  11   1
M  END
>  <UniqueID>  (160) 
44

>  <SMILES>  (160) 
O=c1[n-]c([O-])c(/C=c2\c[nH+]n3c(=NC4CC4)nc(Oc4cccc(Cl)c4)nc23)[n-]1

>  <Energy>  (160) 
397.6960785368666

>  <Genealogy>  (160) 
O=c1[n-]c([O-])c(C=c2c[nH+]n3c(=NC4CC4)nc(Oc4cccc(Cl)c4)nc23)[n-]1 (protonated)
O=c1[n-]c([O-])c(/C=c2\c[nH+]n3c(=NC4CC4)nc(Oc4cccc(Cl)c4)nc23)[n-]1 (cis-trans isomerization)
O=c1[n-]c([O-])c(/C=c2\c[nH+]n3c(=NC4CC4)nc(Oc4cccc(Cl)c4)nc23)[n-]1 (3D coordinates assigned)
O=c1[n-]c([O-])c(/C=c2\c[nH+]n3c(=NC4CC4)nc(Oc4cccc(Cl)c4)nc23)[n-]1 (nonaromatic ring conformer: 397.6960785368666 kcal/mol)

>  <smiles>  (160) 
O=c1[nH]c(O)c(C=c2cnn3c(=NC4CC4)nc(Oc4cccc(Cl)c4)nc23)[nH]1

>  <score_type>  (160) 
oracle

>  <origin>  (160) 
adg

>  <m_score__min__energy>  (160) 
-15.699999999999999

>  <m_primary>  (160) 
energy

$$$$
84:0
     RDKit          3D

 29 33  0  0  0  0  0  0  0  0999 V2000
   53.4620   31.5770   52.0560 C   0  0  0  0  0  0  0  0  0  0  0  0
   52.4100   31.4240   51.0340 C   0  0  0  0  0  0  0  0  0  0  0  0
   52.4160   30.5090   50.0480 N   0  0  0  0  0  0  0  0  0  0  0  0
   51.3380   30.8420   49.3050 C   0  0  0  0  0  0  0  0  0  0  0  0
   51.0000   30.1990   48.2770 O   0  0  0  0  0  0  0  0  0  0  0  0
   50.6580   31.9210   49.7440 N   0  0  0  0  0  0  0  0  0  0  0  0
   51.3570   32.2840   50.8310 C   0  0  0  0  0  0  0  0  0  0  0  0
   51.0430   33.3830   51.6200 O   0  0  0  0  0  0  0  0  0  0  0  0
   54.1920   30.5710   52.5650 C   0  0  0  0  0  0  0  0  0  0  0  0
   53.7090   29.5450   53.3650 C   0  0  0  0  0  0  0  0  0  0  0  0
   54.7160   28.7000   53.6820 N   0  0  0  0  0  0  0  0  0  0  0  0
   55.8200   29.1450   53.1080 N   0  0  0  0  0  0  0  0  0  0  0  0
   57.0850   28.6120   53.0900 C   0  0  0  0  0  0  0  0  0  0  0  0
   57.4850   27.5550   53.7580 N   0  0  0  0  0  0  0  0  0  0  0  0
   56.9880   26.4530   54.6050 C   0  0  0  0  0  0  0  0  0  0  0  0
   55.6660   25.8210   54.2350 C   0  0  0  0  0  0  0  0  0  0  0  0
   56.9870   25.0620   54.0120 C   0  0  0  0  0  0  0  0  0  0  0  0
   58.0130   29.2400   52.3160 N   0  0  0  0  0  0  0  0  0  0  0  0
   57.7070   30.3450   51.5780 C   0  0  0  0  0  0  0  0  0  0  0  0
   58.6320   30.9020   50.8530 N   0  0  0  0  0  0  0  0  0  0  0  0
   58.6470   30.9970   49.4190 C   0  0  0  0  0  0  0  0  0  0  0  0
   58.8870   29.8720   48.6060 C   0  0  0  0  0  0  0  0  0  0  0  0
   58.9370   30.0070   47.2150 C   0  0  0  0  0  0  0  0  0  0  0  0
   58.7610   31.2620   46.6260 C   0  0  0  0  0  0  0  0  0  0  0  0
   58.5510   32.3880   47.4280 C   0  0  0  0  0  0  0  0  0  0  0  0
   58.3480   33.9660   46.6900 Cl  0  0  0  0  0  0  0  0  0  0  0  0
   58.5060   32.2560   48.8210 C   0  0  0  0  0  0  0  0  0  0  0  0
   56.4500   30.8650   51.6340 N   0  0  0  0  0  0  0  0  0  0  0  0
   55.5320   30.2610   52.4200 C   0  0  0  0  0  0  0  0  0  0  0  0
  1  2  1  0
  2  3  1  0
  3  4  1  0
  4  5  2  0
  4  6  1  0
  6  7  1  0
  7  8  1  0
  1  9  2  3
  9 10  1  0
 10 11  2  0
 11 12  1  0
 12 13  1  0
 13 14  2  3
 14 15  1  0
 15 16  1  0
 16 17  1  0
 13 18  1  0
 18 19  1  0
 19 20  2  0
 20 21  1  0
 21 22  2  0
 22 23  1  0
 23 24  2  0
 24 25  1  0
 25 26  1  0
 25 27  2  0
 19 28  1  0
 28 29  2  0
  7  2  2  0
 29  9  1  0
 29 12  1  0
 17 15  1  0
 27 21  1  0
M  CHG  4   3  -1   6  -1   8  -1  18  -1
M  END
>  <UniqueID>  (161) 
77

>  <SMILES>  (161) 
O=c1[n-]c([O-])c(C=c2cnn3c(=NC4CC4)[n-]/c(=N/c4cccc(Cl)c4)nc23)[n-]1

>  <Energy>  (161) 
413.3415548881533

>  <Genealogy>  (161) 
O=c1[n-]c([O-])c(C=c2cnn3c(=NC4CC4)[n-]c(=Nc4cccc(Cl)c4)nc23)[n-]1 (protonated)
O=c1[n-]c([O-])c(C=c2cnn3c(=NC4CC4)[n-]/c(=N/c4cccc(Cl)c4)nc23)[n-]1 (cis-trans isomerization)
O=c1[n-]c([O-])c(C=c2cnn3c(=NC4CC4)[n-]/c(=N/c4cccc(Cl)c4)nc23)[n-]1 (3D coordinates assigned)
O=c1[n-]c([O-])c(C=c2cnn3c(=NC4CC4)[n-]/c(=N/c4cccc(Cl)c4)nc23)[n-]1 (nonaromatic ring conformer: 413.3415548881533 kcal/mol)

>  <smiles>  (161) 
O=c1[nH]c(O)c(C=c2cnn3c(=NC4CC4)[nH]c(=Nc4cccc(Cl)c4)nc23)[nH]1

>  <score_type>  (161) 
oracle

>  <origin>  (161) 
adg

>  <m_score__min__energy>  (161) 
-17.93

>  <m_primary>  (161) 
energy

$$$$
93:0
     RDKit          3D

 31 33  0  0  0  0  0  0  0  0999 V2000
   55.7070   30.7010   52.3450 C   0  0  0  0  0  0  0  0  0  0  0  0
   56.8320   30.3850   51.5310 O   0  0  0  0  0  0  0  0  0  0  0  0
   57.8170   31.3070   51.1480 C   0  0  0  0  0  0  0  0  0  0  0  0
   57.9150   32.5860   51.7190 C   0  0  0  0  0  0  0  0  0  0  0  0
   58.9040   33.4740   51.2930 C   0  0  0  0  0  0  0  0  0  0  0  0
   59.8230   33.1000   50.2930 C   0  0  0  0  0  0  0  0  0  0  0  0
   60.7910   33.9960   49.8130 O   0  0  0  0  0  0  0  0  0  0  0  0
   62.1880   33.8810   50.0580 C   0  0  0  0  0  0  0  0  0  0  0  0
   59.7490   31.7990   49.7490 C   0  0  0  0  0  0  0  0  0  0  0  0
   60.6610   31.3390   48.7390 N   0  0  0  0  0  0  0  0  0  0  0  0
   60.9970   31.9940   47.5070 C   0  0  0  0  0  0  0  0  0  0  0  0
   62.1850   31.9170   47.0960 O   0  0  0  0  0  0  0  0  0  0  0  0
   60.0140   32.8050   46.7430 C   0  0  0  0  0  0  0  0  0  0  0  0
   59.9960   34.2050   46.8610 C   0  0  0  0  0  0  0  0  0  0  0  0
   59.0620   34.9600   46.1530 C   0  0  0  0  0  0  0  0  0  0  0  0
   58.1550   34.3140   45.3160 C   0  0  0  0  0  0  0  0  0  0  0  0
   58.1890   32.9620   45.1910 N   0  0  0  0  0  0  0  0  0  0  0  0
   59.0860   32.1950   45.8720 C   0  0  0  0  0  0  0  0  0  0  0  0
   59.0850   30.8030   45.7150 O   0  0  0  0  0  0  0  0  0  0  0  0
   58.1410   29.9310   46.3310 C   0  0  0  0  0  0  0  0  0  0  0  0
   57.0580   29.5410   45.3610 C   0  0  0  0  0  0  0  0  0  0  0  0
   56.3230   30.4500   44.8920 O   0  0  0  0  0  0  0  0  0  0  0  0
   56.8180   28.1860   44.9370 N   0  0  0  0  0  0  0  0  0  0  0  0
   57.1210   27.0630   45.5270 C   0  0  0  0  0  0  0  0  0  0  0  0
   58.4110   26.6340   45.6280 N   0  0  0  0  0  0  0  0  0  0  0  0
   58.7430   25.4800   46.2640 C   0  0  0  0  0  0  0  0  0  0  0  0
   57.7480   24.6900   46.8400 C   0  0  0  0  0  0  0  0  0  0  0  0
   56.4170   25.0990   46.7530 C   0  0  0  0  0  0  0  0  0  0  0  0
   56.0960   26.2910   46.0960 C   0  0  0  0  0  0  0  0  0  0  0  0
   54.7690   26.7000   46.0160 O   0  0  0  0  0  0  0  0  0  0  0  0
   58.7320   30.9290   50.1610 C   0  0  0  0  0  0  0  0  0  0  0  0
  1  2  1  0
  2  3  1  0
  3  4  2  0
  4  5  1  0
  5  6  2  0
  6  7  1  0
  7  8  1  0
  6  9  1  0
  9 10  1  0
 10 11  1  0
 11 12  2  0
 11 13  1  0
 13 14  2  0
 14 15  1  0
 15 16  2  0
 16 17  1  0
 17 18  2  0
 18 19  1  0
 19 20  1  0
 20 21  1  0
 21 22  2  0
 21 23  1  0
 23 24  2  3
 24 25  1  0
 25 26  1  0
 26 27  2  0
 27 28  1  0
 28 29  2  0
 29 30  1  0
  9 31  2  0
 31  3  1  0
 18 13  1  0
 29 24  1  0
M  CHG  3  10  -1  25  -1  30  -1
M  END
>  <UniqueID>  (162) 
86

>  <SMILES>  (162) 
COc1ccc(OC)c([N-]C(=O)c2cccnc2OCC(=O)N=c2[n-]cccc2[O-])c1

>  <Energy>  (162) 
60.19789699094771

>  <Genealogy>  (162) 
COc1ccc(OC)c([N-]C(=O)c2cccnc2OCC(=O)N=c2[n-]cccc2[O-])c1 (protonated)
COc1ccc(OC)c([N-]C(=O)c2cccnc2OCC(=O)N=c2[n-]cccc2[O-])c1 (3D coordinates assigned)
COc1ccc(OC)c([N-]C(=O)c2cccnc2OCC(=O)N=c2[n-]cccc2[O-])c1 (optimized conformer: 60.19789699094771 kcal/mol)

>  <smiles>  (162) 
COc1ccc(OC)c(NC(=O)c2cccnc2OCC(=O)N=c2[nH]cccc2O)c1

>  <score_type>  (162) 
oracle

>  <origin>  (162) 
adg

>  <m_score__min__energy>  (162) 
-14.640000000000001

>  <m_primary>  (162) 
energy

$$$$
44:0
     RDKit          3D

 28 30  0  0  0  0  0  0  0  0999 V2000
   57.6500   31.0830   54.0490 C   0  0  0  0  0  0  0  0  0  0  0  0
   57.5750   31.3710   52.2960 S   0  0  0  0  0  0  0  0  0  0  0  0
   56.7390   32.5920   52.0340 O   0  0  0  0  0  0  0  0  0  0  0  0
   56.9590   30.1740   51.6280 O   0  0  0  0  0  0  0  0  0  0  0  0
   59.1820   31.6180   51.6980 N   0  0  0  0  0  0  0  0  0  0  0  0
   59.5330   32.4630   50.5940 C   0  0  0  0  0  0  0  0  0  0  0  0
   60.5610   33.4180   50.6820 C   0  0  0  0  0  0  0  0  0  0  0  0
   60.8780   34.2100   49.5790 C   0  0  0  0  0  0  0  0  0  0  0  0
   60.1730   34.0670   48.3820 C   0  0  0  0  0  0  0  0  0  0  0  0
   59.1320   33.1270   48.2760 C   0  0  0  0  0  0  0  0  0  0  0  0
   58.3970   32.9830   46.9920 C   0  0  0  0  0  0  0  0  0  0  0  0
   57.7710   34.0760   46.3720 C   0  0  0  0  0  0  0  0  0  0  0  0
   57.1090   33.8710   45.1630 C   0  0  0  0  0  0  0  0  0  0  0  0
   57.0810   32.6340   44.6050 N   0  0  0  0  0  0  0  0  0  0  0  0
   57.6870   31.5770   45.2120 C   0  0  0  0  0  0  0  0  0  0  0  0
   57.6870   30.3940   44.6680 N   0  0  0  0  0  0  0  0  0  0  0  0
   58.0970   29.1610   45.2820 C   0  0  0  0  0  0  0  0  0  0  0  0
   59.4190   28.9470   45.7160 C   0  0  0  0  0  0  0  0  0  0  0  0
   59.7830   27.7210   46.2800 C   0  0  0  0  0  0  0  0  0  0  0  0
   58.8430   26.6940   46.3960 C   0  0  0  0  0  0  0  0  0  0  0  0
   57.5350   26.8820   45.9310 C   0  0  0  0  0  0  0  0  0  0  0  0
   56.3480   25.5890   46.0700 S   0  0  0  0  0  0  0  0  0  0  0  0
   54.7570   26.2510   45.9400 N   0  0  0  0  0  0  0  0  0  0  0  0
   56.4940   24.9010   47.3990 O   0  0  0  0  0  0  0  0  0  0  0  0
   56.5650   24.5790   44.9790 O   0  0  0  0  0  0  0  0  0  0  0  0
   57.1690   28.1140   45.3710 C   0  0  0  0  0  0  0  0  0  0  0  0
   58.3450   31.7650   46.3860 N   0  0  0  0  0  0  0  0  0  0  0  0
   58.8280   32.3230   49.3910 C   0  0  0  0  0  0  0  0  0  0  0  0
  1  2  1  0
  2  3  2  0
  2  4  2  0
  2  5  1  0
  5  6  1  0
  6  7  2  0
  7  8  1  0
  8  9  2  0
  9 10  1  0
 10 11  1  0
 11 12  1  0
 12 13  2  0
 13 14  1  0
 14 15  1  0
 15 16  2  3
 16 17  1  0
 17 18  2  0
 18 19  1  0
 19 20  2  0
 20 21  1  0
 21 22  1  0
 22 23  1  0
 22 24  2  0
 22 25  2  0
 21 26  2  0
 15 27  1  0
 10 28  2  0
 28  6  1  0
 27 11  2  0
 26 17  1  0
M  CHG  3   5  -1  14  -1  23  -1
M  END
>  <UniqueID>  (163) 
39

>  <SMILES>  (163) 
CS(=O)(=O)[N-]c1cccc(-c2cc[n-]c(=Nc3cccc(S([NH-])(=O)=O)c3)n2)c1

>  <Energy>  (163) 
54.56630200943595

>  <Genealogy>  (163) 
CS(=O)(=O)[N-]c1cccc(-c2cc[n-]c(=Nc3cccc(S([NH-])(=O)=O)c3)n2)c1 (protonated)
CS(=O)(=O)[N-]c1cccc(-c2cc[n-]c(=Nc3cccc(S([NH-])(=O)=O)c3)n2)c1 (3D coordinates assigned)
CS(=O)(=O)[N-]c1cccc(-c2cc[n-]c(=Nc3cccc(S([NH-])(=O)=O)c3)n2)c1 (optimized conformer: 54.56630200943595 kcal/mol)

>  <smiles>  (163) 
CS(=O)(=O)Nc1cccc(-c2cc[nH]c(=Nc3cccc(S(N)(=O)=O)c3)n2)c1

>  <score_type>  (163) 
oracle

>  <origin>  (163) 
adg

>  <m_score__min__energy>  (163) 
-14.619999999999999

>  <m_primary>  (163) 
energy

$$$$
0:0
     RDKit          3D

 31 35  0  0  0  0  0  0  0  0999 V2000
   54.9870   26.7050   45.9990 O   0  0  0  0  0  0  0  0  0  0  0  0
   56.0400   25.8650   46.3430 C   0  0  0  0  0  0  0  0  0  0  0  0
   55.9010   24.7670   47.1060 N   0  0  0  0  0  0  0  0  0  0  0  0
   57.1460   24.2450   47.1070 C   0  0  0  0  0  0  0  0  0  0  0  0
   57.4350   23.1850   47.7200 O   0  0  0  0  0  0  0  0  0  0  0  0
   58.0540   24.9440   46.3910 N   0  0  0  0  0  0  0  0  0  0  0  0
   57.3480   25.9900   45.9250 C   0  0  0  0  0  0  0  0  0  0  0  0
   57.9120   27.0020   45.0170 C   0  0  0  0  0  0  0  0  0  0  0  0
   57.7010   28.3200   45.1420 C   0  0  0  0  0  0  0  0  0  0  0  0
   56.8480   29.1520   44.4150 C   0  0  0  0  0  0  0  0  0  0  0  0
   56.9140   30.4140   44.9050 N   0  0  0  0  0  0  0  0  0  0  0  0
   57.7740   30.3990   45.9110 N   0  0  0  0  0  0  0  0  0  0  0  0
   58.1720   31.4250   46.7180 C   0  0  0  0  0  0  0  0  0  0  0  0
   57.7350   32.6460   46.5890 N   0  0  0  0  0  0  0  0  0  0  0  0
   58.3610   33.7150   45.8180 C   0  0  0  0  0  0  0  0  0  0  0  0
   59.8790   33.7100   45.8750 C   0  0  0  0  0  0  0  0  0  0  0  0
   59.0880   34.7150   46.6990 C   0  0  0  0  0  0  0  0  0  0  0  0
   59.0740   31.1470   47.6990 N   0  0  0  0  0  0  0  0  0  0  0  0
   59.5640   29.8780   47.8710 C   0  0  0  0  0  0  0  0  0  0  0  0
   60.4230   29.6200   48.8090 N   0  0  0  0  0  0  0  0  0  0  0  0
   60.9910   30.6260   49.7000 C   0  0  0  0  0  0  0  0  0  0  0  0
   61.6910   31.6770   48.8840 C   0  0  0  0  0  0  0  0  0  0  0  0
   62.6160   31.3000   47.8960 C   0  0  0  0  0  0  0  0  0  0  0  0
   63.2950   32.2740   47.1570 C   0  0  0  0  0  0  0  0  0  0  0  0
   63.0640   33.6300   47.4050 C   0  0  0  0  0  0  0  0  0  0  0  0
   63.7240   34.5720   46.6890 F   0  0  0  0  0  0  0  0  0  0  0  0
   62.1570   34.0130   48.3980 C   0  0  0  0  0  0  0  0  0  0  0  0
   61.4750   33.0430   49.1410 C   0  0  0  0  0  0  0  0  0  0  0  0
   60.6110   33.4370   50.1110 F   0  0  0  0  0  0  0  0  0  0  0  0
   59.1490   28.8720   47.0520 N   0  0  0  0  0  0  0  0  0  0  0  0
   58.2530   29.1630   46.0790 C   0  0  0  0  0  0  0  0  0  0  0  0
  1  2  1  0
  2  3  1  0
  3  4  1  0
  4  5  2  0
  4  6  1  0
  6  7  1  0
  7  8  1  0
  8  9  2  0
  9 10  1  0
 10 11  2  0
 11 12  1  0
 12 13  1  0
 13 14  2  3
 14 15  1  0
 15 16  1  0
 16 17  1  0
 13 18  1  0
 18 19  1  0
 19 20  2  3
 20 21  1  0
 21 22  1  0
 22 23  2  0
 23 24  1  0
 24 25  2  0
 25 26  1  0
 25 27  1  0
 27 28  2  0
 28 29  1  0
 19 30  1  0
 30 31  2  0
  7  2  2  0
 31  9  1  0
 31 12  1  0
 17 15  1  0
 28 22  1  0
M  CHG  3   3  -1   6  -1  18  -1
M  END
>  <UniqueID>  (164) 
1

>  <SMILES>  (164) 
O=c1[n-]c(O)c(/C=c2\cnn3c(=NC4CC4)[n-]c(=NCc4ccc(F)cc4F)nc23)[n-]1

>  <Energy>  (164) 
388.53844729503373

>  <Genealogy>  (164) 
O=c1[n-]c(O)c(C=c2cnn3c(=NC4CC4)[n-]c(=NCc4ccc(F)cc4F)nc23)[n-]1 (protonated)
O=c1[n-]c(O)c(/C=c2\cnn3c(=NC4CC4)[n-]c(=NCc4ccc(F)cc4F)nc23)[n-]1 (cis-trans isomerization)
O=c1[n-]c(O)c(/C=c2\cnn3c(=NC4CC4)[n-]c(=NCc4ccc(F)cc4F)nc23)[n-]1 (3D coordinates assigned)
O=c1[n-]c(O)c(/C=c2\cnn3c(=NC4CC4)[n-]c(=NCc4ccc(F)cc4F)nc23)[n-]1 (nonaromatic ring conformer: 388.53844729503373 kcal/mol)

>  <smiles>  (164) 
O=c1[nH]c(O)c(C=c2cnn3c(=NC4CC4)[nH]c(=NCc4ccc(F)cc4F)nc23)[nH]1

>  <score_type>  (164) 
oracle

>  <origin>  (164) 
adg

>  <m_score__min__energy>  (164) 
-14.35

>  <m_primary>  (164) 
energy

$$$$
9:0
     RDKit          3D

 23 25  0  0  0  0  0  0  0  0999 V2000
   58.6710   29.6460   50.0820 C   0  0  0  0  0  0  0  0  0  0  0  0
   59.0660   29.6820   48.7810 N   0  0  0  0  0  0  0  0  0  0  0  0
   60.0630   30.5740   48.5920 C   0  0  0  0  0  0  0  0  0  0  0  0
   60.6120   30.8310   47.4410 N   0  0  0  0  0  0  0  0  0  0  0  0
   60.8650   32.1300   46.8830 C   0  0  0  0  0  0  0  0  0  0  0  0
   62.0390   32.5840   46.9190 O   0  0  0  0  0  0  0  0  0  0  0  0
   59.8150   32.9080   46.1920 C   0  0  0  0  0  0  0  0  0  0  0  0
   60.0380   34.2750   45.9570 C   0  0  0  0  0  0  0  0  0  0  0  0
   59.0780   35.0460   45.2980 C   0  0  0  0  0  0  0  0  0  0  0  0
   57.8860   34.4630   44.8720 C   0  0  0  0  0  0  0  0  0  0  0  0
   57.6520   33.1040   45.0940 C   0  0  0  0  0  0  0  0  0  0  0  0
   58.6140   32.3090   45.7430 C   0  0  0  0  0  0  0  0  0  0  0  0
   58.3700   30.9040   45.9440 N   0  0  0  0  0  0  0  0  0  0  0  0
   57.6740   30.0880   44.9870 C   0  0  0  0  0  0  0  0  0  0  0  0
   57.4800   30.5150   43.8160 O   0  0  0  0  0  0  0  0  0  0  0  0
   57.2080   28.7340   45.3360 C   0  0  0  0  0  0  0  0  0  0  0  0
   55.9120   28.3660   45.2650 N   0  0  0  0  0  0  0  0  0  0  0  0
   55.8930   27.0830   45.6700 C   0  0  0  0  0  0  0  0  0  0  0  0
   54.7320   26.3240   45.7420 O   0  0  0  0  0  0  0  0  0  0  0  0
   57.1480   26.6250   46.0000 C   0  0  0  0  0  0  0  0  0  0  0  0
   57.9980   27.6880   45.7880 C   0  0  0  0  0  0  0  0  0  0  0  0
   60.4830   31.3590   50.0140 S   0  0  0  0  0  0  0  0  0  0  0  0
   59.3500   30.5160   50.9290 C   0  0  0  0  0  0  0  0  0  0  0  0
  1  2  1  0
  2  3  1  0
  3  4  2  0
  4  5  1  0
  5  6  2  0
  5  7  1  0
  7  8  2  0
  8  9  1  0
  9 10  2  0
 10 11  1  0
 11 12  2  0
 12 13  1  0
 13 14  1  0
 14 15  2  0
 14 16  1  0
 16 17  1  0
 17 18  1  0
 18 19  1  0
 18 20  2  0
 20 21  1  0
  3 22  1  0
 22 23  1  0
 23  1  2  0
 12  7  1  0
 21 16  2  0
M  CHG  3   2  -1  17  -1  19  -1
M  END
>  <UniqueID>  (165) 
9

>  <SMILES>  (165) 
O=C(Nc1ccccc1C(=O)/N=c1\[n-]ccs1)c1ccc([O-])[n-]1

>  <Energy>  (165) 
103.54591978522983

>  <Genealogy>  (165) 
O=C(Nc1ccccc1C(=O)N=c1[n-]ccs1)c1ccc([O-])[n-]1 (protonated)
O=C(Nc1ccccc1C(=O)/N=c1\[n-]ccs1)c1ccc([O-])[n-]1 (cis-trans isomerization)
O=C(Nc1ccccc1C(=O)/N=c1\[n-]ccs1)c1ccc([O-])[n-]1 (3D coordinates assigned)
O=C(Nc1ccccc1C(=O)/N=c1\[n-]ccs1)c1ccc([O-])[n-]1 (optimized conformer: 103.54591978522983 kcal/mol)

>  <smiles>  (165) 
O=C(Nc1ccccc1C(=O)N=c1[nH]ccs1)c1ccc(O)[nH]1

>  <score_type>  (165) 
oracle

>  <origin>  (165) 
adg

>  <m_score__min__energy>  (165) 
-14.029999999999999

>  <m_primary>  (165) 
energy

$$$$
14:0
     RDKit          3D

 22 23  0  0  0  0  0  0  0  0999 V2000
   58.1350   32.6500   47.4270 C   0  0  0  0  0  0  0  0  0  0  0  0
   57.9340   32.4600   45.9580 C   0  0  0  0  0  0  0  0  0  0  0  0
   58.4160   33.3980   45.0430 C   0  0  0  0  0  0  0  0  0  0  0  0
   58.2290   33.1890   43.7150 N   0  0  0  0  0  0  0  0  0  0  0  0
   57.5860   32.0870   43.2430 C   0  0  0  0  0  0  0  0  0  0  0  0
   57.4450   31.9300   41.7570 C   0  0  0  0  0  0  0  0  0  0  0  0
   57.1270   31.1170   44.1660 C   0  0  0  0  0  0  0  0  0  0  0  0
   56.4410   29.8420   43.7480 C   0  0  0  0  0  0  0  0  0  0  0  0
   56.0180   29.0730   44.9200 N   0  0  0  0  0  0  0  0  0  0  0  0
   56.7810   27.9880   45.4770 C   0  0  0  0  0  0  0  0  0  0  0  0
   58.1760   28.1080   45.5460 C   0  0  0  0  0  0  0  0  0  0  0  0
   58.9530   27.0780   46.0790 C   0  0  0  0  0  0  0  0  0  0  0  0
   58.3440   25.9200   46.5630 C   0  0  0  0  0  0  0  0  0  0  0  0
   56.9440   25.7870   46.5300 C   0  0  0  0  0  0  0  0  0  0  0  0
   56.2800   24.6200   47.0370 N   0  0  0  0  0  0  0  0  0  0  0  0
   56.4840   22.9990   46.4560 S   0  0  0  0  0  0  0  0  0  0  0  0
   57.4750   23.0000   44.9770 C   0  0  0  0  0  0  0  0  0  0  0  0
   57.1920   22.1960   47.5090 O   0  0  0  0  0  0  0  0  0  0  0  0
   55.1450   22.3740   46.1890 O   0  0  0  0  0  0  0  0  0  0  0  0
   56.1660   26.8280   45.9950 C   0  0  0  0  0  0  0  0  0  0  0  0
   54.7810   26.7100   46.0130 O   0  0  0  0  0  0  0  0  0  0  0  0
   57.3160   31.3420   45.4950 N   0  0  0  0  0  0  0  0  0  0  0  0
  1  2  1  0
  2  3  2  0
  3  4  1  0
  4  5  2  0
  5  6  1  0
  5  7  1  0
  7  8  1  0
  8  9  1  0
  9 10  1  0
 10 11  2  0
 11 12  1  0
 12 13  2  0
 13 14  1  0
 14 15  1  0
 15 16  1  0
 16 17  1  0
 16 18  2  0
 16 19  2  0
 14 20  2  0
 20 21  1  0
  7 22  2  0
 22  2  1  0
 20 10  1  0
M  CHG  2  15  -1  21  -1
M  END
>  <UniqueID>  (166) 
15

>  <SMILES>  (166) 
Cc1cnc(C)c(CNc2cccc([N-]S(C)(=O)=O)c2[O-])n1

>  <Energy>  (166) 
41.77188126707131

>  <Genealogy>  (166) 
Cc1cnc(C)c(CNc2cccc([N-]S(C)(=O)=O)c2[O-])n1 (protonated)
Cc1cnc(C)c(CNc2cccc([N-]S(C)(=O)=O)c2[O-])n1 (3D coordinates assigned)
Cc1cnc(C)c(CNc2cccc([N-]S(C)(=O)=O)c2[O-])n1 (optimized conformer: 41.77188126707131 kcal/mol)

>  <smiles>  (166) 
Cc1cnc(C)c(CNc2cccc(NS(C)(=O)=O)c2O)n1

>  <score_type>  (166) 
oracle

>  <origin>  (166) 
adg

>  <m_score__min__energy>  (166) 
-14.029999999999999

>  <m_primary>  (166) 
energy

$$$$
46:0
     RDKit          3D

 32 34  0  0  0  0  0  0  0  0999 V2000
   51.2720   32.2860   51.2420 N   0  0  0  0  0  0  0  0  0  0  0  0
   51.6940   30.6160   51.4070 S   0  0  0  0  0  0  0  0  0  0  0  0
   50.6470   29.9080   52.2200 O   0  0  0  0  0  0  0  0  0  0  0  0
   51.7570   29.9820   50.0460 O   0  0  0  0  0  0  0  0  0  0  0  0
   53.2570   30.4840   52.2080 C   0  0  0  0  0  0  0  0  0  0  0  0
   53.3270   30.4710   53.6050 C   0  0  0  0  0  0  0  0  0  0  0  0
   54.5680   30.4140   54.2460 C   0  0  0  0  0  0  0  0  0  0  0  0
   55.7440   30.3680   53.4920 C   0  0  0  0  0  0  0  0  0  0  0  0
   55.6880   30.3610   52.0930 C   0  0  0  0  0  0  0  0  0  0  0  0
   56.9150   30.3410   51.3550 N   0  0  0  0  0  0  0  0  0  0  0  0
   57.6260   31.4870   50.8680 C   0  0  0  0  0  0  0  0  0  0  0  0
   57.3770   32.6380   51.3160 O   0  0  0  0  0  0  0  0  0  0  0  0
   58.6680   31.3200   49.8070 C   0  0  0  0  0  0  0  0  0  0  0  0
   58.6020   29.9860   49.2160 N   0  0  0  0  0  0  0  0  0  0  0  0
   59.1730   29.6080   47.9560 C   0  0  0  0  0  0  0  0  0  0  0  0
   60.2560   30.1370   47.5940 O   0  0  0  0  0  0  0  0  0  0  0  0
   58.5120   28.6440   47.0540 C   0  0  0  0  0  0  0  0  0  0  0  0
   58.2000   27.3580   47.5210 C   0  0  0  0  0  0  0  0  0  0  0  0
   57.5980   26.4270   46.6750 C   0  0  0  0  0  0  0  0  0  0  0  0
   57.3080   26.7690   45.3530 C   0  0  0  0  0  0  0  0  0  0  0  0
   57.6340   28.0390   44.8680 C   0  0  0  0  0  0  0  0  0  0  0  0
   58.2610   28.9800   45.7070 C   0  0  0  0  0  0  0  0  0  0  0  0
   58.5900   30.2970   45.2350 N   0  0  0  0  0  0  0  0  0  0  0  0
   57.7380   31.4500   45.2560 C   0  0  0  0  0  0  0  0  0  0  0  0
   56.5490   31.3650   44.8440 O   0  0  0  0  0  0  0  0  0  0  0  0
   58.2730   32.7560   45.7060 C   0  0  0  0  0  0  0  0  0  0  0  0
   58.3880   33.0450   47.0790 C   0  0  0  0  0  0  0  0  0  0  0  0
   58.9030   34.2740   47.5030 C   0  0  0  0  0  0  0  0  0  0  0  0
   59.3060   35.2260   46.5670 C   0  0  0  0  0  0  0  0  0  0  0  0
   59.1970   34.9510   45.2030 C   0  0  0  0  0  0  0  0  0  0  0  0
   58.6840   33.7270   44.7700 C   0  0  0  0  0  0  0  0  0  0  0  0
   54.4380   30.4380   51.4530 C   0  0  0  0  0  0  0  0  0  0  0  0
  1  2  1  0
  2  3  2  0
  2  4  2  0
  2  5  1  0
  5  6  2  0
  6  7  1  0
  7  8  2  0
  8  9  1  0
  9 10  1  0
 10 11  1  0
 11 12  2  0
 11 13  1  0
 13 14  1  0
 14 15  1  0
 15 16  2  0
 15 17  1  0
 17 18  2  0
 18 19  1  0
 19 20  2  0
 20 21  1  0
 21 22  2  0
 22 23  1  0
 23 24  1  0
 24 25  2  0
 24 26  1  0
 26 27  2  0
 27 28  1  0
 28 29  2  0
 29 30  1  0
 30 31  2  0
  9 32  2  0
 32  5  1  0
 22 17  1  0
 31 26  1  0
M  CHG  4   1  -1  10  -1  14  -1  23  -1
M  END
>  <UniqueID>  (167) 
43

>  <SMILES>  (167) 
[NH-]S(=O)(=O)c1cccc([N-]C(=O)C[N-]C(=O)c2ccccc2[N-]C(=O)c2ccccc2)c1

>  <Energy>  (167) 
63.08206032640138

>  <Genealogy>  (167) 
[NH-]S(=O)(=O)c1cccc([N-]C(=O)C[N-]C(=O)c2ccccc2[N-]C(=O)c2ccccc2)c1 (protonated)
[NH-]S(=O)(=O)c1cccc([N-]C(=O)C[N-]C(=O)c2ccccc2[N-]C(=O)c2ccccc2)c1 (3D coordinates assigned)
[NH-]S(=O)(=O)c1cccc([N-]C(=O)C[N-]C(=O)c2ccccc2[N-]C(=O)c2ccccc2)c1 (optimized conformer: 63.08206032640138 kcal/mol)

>  <smiles>  (167) 
NS(=O)(=O)c1cccc(NC(=O)CNC(=O)c2ccccc2NC(=O)c2ccccc2)c1

>  <score_type>  (167) 
oracle

>  <origin>  (167) 
adg

>  <m_score__min__energy>  (167) 
-15.4

>  <m_primary>  (167) 
energy

$$$$
57:0
     RDKit          3D

 21 22  0  0  0  0  0  0  0  0999 V2000
   62.7590   34.5330   49.3430 N   0  0  0  0  0  0  0  0  0  0  0  0
   62.8130   33.5670   47.9130 S   0  0  0  0  0  0  0  0  0  0  0  0
   63.7390   34.2030   46.9140 O   0  0  0  0  0  0  0  0  0  0  0  0
   63.3340   32.1980   48.2490 O   0  0  0  0  0  0  0  0  0  0  0  0
   61.1950   33.4380   47.2310 C   0  0  0  0  0  0  0  0  0  0  0  0
   60.5080   34.5910   46.8330 C   0  0  0  0  0  0  0  0  0  0  0  0
   59.2420   34.4900   46.2500 C   0  0  0  0  0  0  0  0  0  0  0  0
   58.6510   33.2310   46.0530 C   0  0  0  0  0  0  0  0  0  0  0  0
   57.3350   33.1110   45.3310 C   0  0  0  0  0  0  0  0  0  0  0  0
   57.3850   32.0610   44.2130 C   0  0  0  0  0  0  0  0  0  0  0  0
   56.4380   30.9700   44.4640 N   0  0  0  0  0  0  0  0  0  0  0  0
   56.7580   29.7760   44.8700 C   0  0  0  0  0  0  0  0  0  0  0  0
   55.8000   28.8540   45.1700 N   0  0  0  0  0  0  0  0  0  0  0  0
   56.1310   27.6180   45.6200 C   0  0  0  0  0  0  0  0  0  0  0  0
   55.1330   26.7020   45.9260 O   0  0  0  0  0  0  0  0  0  0  0  0
   57.4730   27.2710   45.7740 C   0  0  0  0  0  0  0  0  0  0  0  0
   58.4440   28.2200   45.4520 C   0  0  0  0  0  0  0  0  0  0  0  0
   59.6650   27.9440   45.5740 O   0  0  0  0  0  0  0  0  0  0  0  0
   58.0700   29.4490   45.0080 N   0  0  0  0  0  0  0  0  0  0  0  0
   59.3420   32.0760   46.4570 C   0  0  0  0  0  0  0  0  0  0  0  0
   60.6080   32.1800   47.0420 C   0  0  0  0  0  0  0  0  0  0  0  0
  1  2  1  0
  2  3  2  0
  2  4  2  0
  2  5  1  0
  5  6  2  0
  6  7  1  0
  7  8  2  0
  8  9  1  0
  9 10  1  0
 10 11  1  0
 11 12  2  0
 12 13  1  0
 13 14  1  0
 14 15  1  0
 14 16  2  0
 16 17  1  0
 17 18  2  0
 17 19  1  0
  8 20  1  0
 20 21  2  0
 21  5  1  0
 19 12  1  0
M  CHG  4   1  -1  13  -1  15  -1  19  -1
M  END
>  <UniqueID>  (168) 
54

>  <SMILES>  (168) 
[NH-]S(=O)(=O)c1ccc(CC/N=c2\[n-]c([O-])cc(=O)[n-]2)cc1

>  <Energy>  (168) 
28.366151383472655

>  <Genealogy>  (168) 
[NH-]S(=O)(=O)c1ccc(CCN=c2[n-]c([O-])cc(=O)[n-]2)cc1 (protonated)
[NH-]S(=O)(=O)c1ccc(CC/N=c2\[n-]c([O-])cc(=O)[n-]2)cc1 (cis-trans isomerization)
[NH-]S(=O)(=O)c1ccc(CC/N=c2\[n-]c([O-])cc(=O)[n-]2)cc1 (3D coordinates assigned)
[NH-]S(=O)(=O)c1ccc(CC/N=c2\[n-]c([O-])cc(=O)[n-]2)cc1 (optimized conformer: 28.366151383472655 kcal/mol)

>  <smiles>  (168) 
NS(=O)(=O)c1ccc(CCN=c2[nH]c(O)cc(=O)[nH]2)cc1

>  <score_type>  (168) 
oracle

>  <origin>  (168) 
adg

>  <m_score__min__energy>  (168) 
-16.149999999999999

>  <m_primary>  (168) 
energy

$$$$
7:0
     RDKit          3D

 21 22  0  0  0  0  0  0  0  0999 V2000
   61.6220   30.4110   47.0750 N   0  0  0  0  0  0  0  0  0  0  0  0
   61.5840   32.0990   47.4450 S   0  0  0  0  0  0  0  0  0  0  0  0
   61.5050   32.2850   48.9340 O   0  0  0  0  0  0  0  0  0  0  0  0
   62.8450   32.7490   46.9470 O   0  0  0  0  0  0  0  0  0  0  0  0
   60.1840   32.8430   46.6770 C   0  0  0  0  0  0  0  0  0  0  0  0
   60.0160   34.2330   46.7140 C   0  0  0  0  0  0  0  0  0  0  0  0
   58.9090   34.8200   46.0990 C   0  0  0  0  0  0  0  0  0  0  0  0
   57.9690   34.0270   45.4340 C   0  0  0  0  0  0  0  0  0  0  0  0
   58.1410   32.6300   45.3680 C   0  0  0  0  0  0  0  0  0  0  0  0
   57.2070   31.7590   44.7050 N   0  0  0  0  0  0  0  0  0  0  0  0
   57.4750   30.6170   44.1450 C   0  0  0  0  0  0  0  0  0  0  0  0
   57.5550   29.3660   44.9440 C   0  0  0  0  0  0  0  0  0  0  0  0
   56.4200   28.5820   45.2470 C   0  0  0  0  0  0  0  0  0  0  0  0
   55.1520   28.9440   44.8070 O   0  0  0  0  0  0  0  0  0  0  0  0
   56.5560   27.4470   45.9810 N   0  0  0  0  0  0  0  0  0  0  0  0
   57.7670   27.0430   46.4360 C   0  0  0  0  0  0  0  0  0  0  0  0
   57.8920   25.6740   47.3150 S   0  0  0  0  0  0  0  0  0  0  0  0
   58.8740   27.7750   46.1600 N   0  0  0  0  0  0  0  0  0  0  0  0
   58.7990   28.9170   45.4310 C   0  0  0  0  0  0  0  0  0  0  0  0
   59.8550   29.5660   45.1990 O   0  0  0  0  0  0  0  0  0  0  0  0
   59.2470   32.0480   46.0030 C   0  0  0  0  0  0  0  0  0  0  0  0
  1  2  1  0
  2  3  2  0
  2  4  2  0
  2  5  1  0
  5  6  2  0
  6  7  1  0
  7  8  2  0
  8  9  1  0
  9 10  1  0
 10 11  2  3
 11 12  1  0
 12 13  2  0
 13 14  1  0
 13 15  1  0
 15 16  1  0
 16 17  2  0
 16 18  1  0
 18 19  1  0
 19 20  2  0
  9 21  2  0
 21  5  1  0
 19 12  1  0
M  CHG  3  14  -1  15  -1  18  -1
M  END
>  <UniqueID>  (169) 
8

>  <SMILES>  (169) 
NS(=O)(=O)c1cccc(N=Cc2c([O-])[n-]c(=S)[n-]c2=O)c1

>  <Energy>  (169) 
33.90955622705208

>  <Genealogy>  (169) 
NS(=O)(=O)c1cccc(N=Cc2c([O-])[n-]c(=S)[n-]c2=O)c1 (protonated)
NS(=O)(=O)c1cccc(N=Cc2c([O-])[n-]c(=S)[n-]c2=O)c1 (3D coordinates assigned)
NS(=O)(=O)c1cccc(N=Cc2c([O-])[n-]c(=S)[n-]c2=O)c1 (optimized conformer: 33.90955622705208 kcal/mol)

>  <smiles>  (169) 
NS(=O)(=O)c1cccc(N=Cc2c(O)[nH]c(=S)[nH]c2=O)c1

>  <score_type>  (169) 
oracle

>  <origin>  (169) 
adg

>  <m_score__min__energy>  (169) 
-15.140000000000001

>  <m_primary>  (169) 
energy

$$$$
29:0
     RDKit          3D

 30 32  0  0  0  0  0  0  0  0999 V2000
   51.8900   22.5650   46.4620 C   0  0  0  0  0  0  0  0  0  0  0  0
   53.1540   23.1090   45.8870 C   0  0  0  0  0  0  0  0  0  0  0  0
   53.4460   24.4290   46.0020 N   0  0  0  0  0  0  0  0  0  0  0  0
   54.5810   24.9500   45.4690 C   0  0  0  0  0  0  0  0  0  0  0  0
   54.8580   26.3040   45.6400 O   0  0  0  0  0  0  0  0  0  0  0  0
   55.4740   24.1210   44.7640 C   0  0  0  0  0  0  0  0  0  0  0  0
   56.7480   24.6830   44.1710 C   0  0  0  0  0  0  0  0  0  0  0  0
   57.5610   25.4440   45.1880 C   0  0  0  0  0  0  0  0  0  0  0  0
   58.0760   24.8120   46.1470 O   0  0  0  0  0  0  0  0  0  0  0  0
   57.8060   26.8540   45.0940 N   0  0  0  0  0  0  0  0  0  0  0  0
   57.4870   27.8680   46.0940 C   0  0  0  0  0  0  0  0  0  0  0  0
   56.6420   28.9340   45.4750 C   0  0  0  0  0  0  0  0  0  0  0  0
   55.5810   28.6260   44.8730 O   0  0  0  0  0  0  0  0  0  0  0  0
   57.0540   30.3010   45.5690 N   0  0  0  0  0  0  0  0  0  0  0  0
   57.3970   31.1340   44.4530 C   0  0  0  0  0  0  0  0  0  0  0  0
   57.0080   30.7280   43.1700 C   0  0  0  0  0  0  0  0  0  0  0  0
   57.3220   31.5070   42.0550 C   0  0  0  0  0  0  0  0  0  0  0  0
   58.0510   32.6860   42.2100 C   0  0  0  0  0  0  0  0  0  0  0  0
   58.4740   33.0860   43.4790 C   0  0  0  0  0  0  0  0  0  0  0  0
   58.1530   32.3160   44.6140 C   0  0  0  0  0  0  0  0  0  0  0  0
   58.6410   32.6590   45.8840 O   0  0  0  0  0  0  0  0  0  0  0  0
   59.1850   31.7610   46.8140 C   0  0  0  0  0  0  0  0  0  0  0  0
   60.0660   30.7720   46.3590 C   0  0  0  0  0  0  0  0  0  0  0  0
   60.6270   29.8590   47.2560 C   0  0  0  0  0  0  0  0  0  0  0  0
   60.2970   29.9180   48.6130 C   0  0  0  0  0  0  0  0  0  0  0  0
   59.4000   30.8870   49.0730 C   0  0  0  0  0  0  0  0  0  0  0  0
   58.8380   31.8010   48.1760 C   0  0  0  0  0  0  0  0  0  0  0  0
   55.1630   22.7490   44.6890 C   0  0  0  0  0  0  0  0  0  0  0  0
   55.9410   21.9390   44.1180 O   0  0  0  0  0  0  0  0  0  0  0  0
   54.0130   22.2820   45.2390 N   0  0  0  0  0  0  0  0  0  0  0  0
  1  2  1  0
  2  3  2  0
  3  4  1  0
  4  5  1  0
  4  6  2  0
  6  7  1  0
  7  8  1  0
  8  9  2  0
  8 10  1  0
 10 11  1  0
 11 12  1  0
 12 13  2  0
 12 14  1  0
 14 15  1  0
 15 16  2  0
 16 17  1  0
 17 18  2  0
 18 19  1  0
 19 20  2  0
 20 21  1  0
 21 22  1  0
 22 23  2  0
 23 24  1  0
 24 25  2  0
 25 26  1  0
 26 27  2  0
  6 28  1  0
 28 29  2  0
 28 30  1  0
 30  2  1  0
 20 15  1  0
 27 22  1  0
M  CHG  3  10  -1  14  -1  30  -1
M  END
>  <UniqueID>  (170) 
28

>  <SMILES>  (170) 
Cc1nc(O)c(CC(=O)[N-]CC(=O)[N-]c2ccccc2Oc2ccccc2)c(=O)[n-]1

>  <Energy>  (170) 
54.782254616881566

>  <Genealogy>  (170) 
Cc1nc(O)c(CC(=O)[N-]CC(=O)[N-]c2ccccc2Oc2ccccc2)c(=O)[n-]1 (protonated)
Cc1nc(O)c(CC(=O)[N-]CC(=O)[N-]c2ccccc2Oc2ccccc2)c(=O)[n-]1 (3D coordinates assigned)
Cc1nc(O)c(CC(=O)[N-]CC(=O)[N-]c2ccccc2Oc2ccccc2)c(=O)[n-]1 (optimized conformer: 54.782254616881566 kcal/mol)

>  <smiles>  (170) 
Cc1nc(O)c(CC(=O)NCC(=O)Nc2ccccc2Oc2ccccc2)c(=O)[nH]1

>  <score_type>  (170) 
oracle

>  <origin>  (170) 
adg

>  <m_score__min__energy>  (170) 
-14.1

>  <m_primary>  (170) 
energy

$$$$
56:0
     RDKit          3D

 26 28  0  0  0  0  0  0  0  0999 V2000
   63.3230   31.9860   47.6570 N   0  0  0  0  0  0  0  0  0  0  0  0
   62.6560   33.5690   47.4770 S   0  0  0  0  0  0  0  0  0  0  0  0
   63.5270   34.3820   46.5610 O   0  0  0  0  0  0  0  0  0  0  0  0
   62.6050   34.2440   48.8200 O   0  0  0  0  0  0  0  0  0  0  0  0
   61.0350   33.4500   46.8020 C   0  0  0  0  0  0  0  0  0  0  0  0
   60.4020   34.5930   46.2970 C   0  0  0  0  0  0  0  0  0  0  0  0
   59.1330   34.4980   45.7180 C   0  0  0  0  0  0  0  0  0  0  0  0
   58.4850   33.2550   45.6340 C   0  0  0  0  0  0  0  0  0  0  0  0
   57.1830   33.1290   44.8900 C   0  0  0  0  0  0  0  0  0  0  0  0
   56.6560   31.7740   45.0240 N   0  0  0  0  0  0  0  0  0  0  0  0
   57.0130   30.7370   44.1080 C   0  0  0  0  0  0  0  0  0  0  0  0
   56.9010   30.9400   42.8700 O   0  0  0  0  0  0  0  0  0  0  0  0
   57.5370   29.4540   44.6160 C   0  0  0  0  0  0  0  0  0  0  0  0
   58.9150   29.1950   44.6510 C   0  0  0  0  0  0  0  0  0  0  0  0
   59.3820   27.9950   45.1970 C   0  0  0  0  0  0  0  0  0  0  0  0
   60.6220   27.7740   45.2330 O   0  0  0  0  0  0  0  0  0  0  0  0
   58.4650   27.0540   45.7020 C   0  0  0  0  0  0  0  0  0  0  0  0
   58.8830   25.8360   46.2680 C   0  0  0  0  0  0  0  0  0  0  0  0
   57.9390   24.9280   46.7570 C   0  0  0  0  0  0  0  0  0  0  0  0
   56.5750   25.2220   46.6840 C   0  0  0  0  0  0  0  0  0  0  0  0
   56.1440   26.4280   46.1240 C   0  0  0  0  0  0  0  0  0  0  0  0
   54.7840   26.7060   46.0540 O   0  0  0  0  0  0  0  0  0  0  0  0
   57.0830   27.3480   45.6350 C   0  0  0  0  0  0  0  0  0  0  0  0
   56.6670   28.5280   45.1020 N   0  0  0  0  0  0  0  0  0  0  0  0
   59.1220   32.1110   46.1390 C   0  0  0  0  0  0  0  0  0  0  0  0
   60.3880   32.2090   46.7240 C   0  0  0  0  0  0  0  0  0  0  0  0
  1  2  1  0
  2  3  2  0
  2  4  2  0
  2  5  1  0
  5  6  2  0
  6  7  1  0
  7  8  2  0
  8  9  1  0
  9 10  1  0
 10 11  1  0
 11 12  2  0
 11 13  1  0
 13 14  2  0
 14 15  1  0
 15 16  2  0
 15 17  1  0
 17 18  2  0
 18 19  1  0
 19 20  2  0
 20 21  1  0
 21 22  1  0
 21 23  2  0
 23 24  1  0
  8 25  1  0
 25 26  2  0
 26  5  1  0
 24 13  1  0
 23 17  1  0
M  CHG  4   1  -1  10  -1  22  -1  24  -1
M  END
>  <UniqueID>  (171) 
53

>  <SMILES>  (171) 
[NH-]S(=O)(=O)c1ccc(C[N-]C(=O)c2cc(=O)c3cccc([O-])c3[n-]2)cc1

>  <Energy>  (171) 
45.79597867102413

>  <Genealogy>  (171) 
[NH-]S(=O)(=O)c1ccc(C[N-]C(=O)c2cc(=O)c3cccc([O-])c3[n-]2)cc1 (protonated)
[NH-]S(=O)(=O)c1ccc(C[N-]C(=O)c2cc(=O)c3cccc([O-])c3[n-]2)cc1 (3D coordinates assigned)
[NH-]S(=O)(=O)c1ccc(C[N-]C(=O)c2cc(=O)c3cccc([O-])c3[n-]2)cc1 (optimized conformer: 45.79597867102413 kcal/mol)

>  <smiles>  (171) 
NS(=O)(=O)c1ccc(CNC(=O)c2cc(=O)c3cccc(O)c3[nH]2)cc1

>  <score_type>  (171) 
oracle

>  <origin>  (171) 
adg

>  <m_score__min__energy>  (171) 
-16.82

>  <m_primary>  (171) 
energy

$$$$
69:0
     RDKit          3D

 34 38  0  0  0  0  0  0  0  0999 V2000
   53.0450   31.2160   52.4640 C   0  0  0  0  0  0  0  0  0  0  0  0
   52.2850   31.2780   51.2010 C   0  0  0  0  0  0  0  0  0  0  0  0
   52.2950   30.3390   50.2380 N   0  0  0  0  0  0  0  0  0  0  0  0
   51.3850   30.7900   49.3490 C   0  0  0  0  0  0  0  0  0  0  0  0
   51.1170   30.1750   48.2830 O   0  0  0  0  0  0  0  0  0  0  0  0
   50.7800   31.9460   49.6940 N   0  0  0  0  0  0  0  0  0  0  0  0
   51.3540   32.2340   50.8730 C   0  0  0  0  0  0  0  0  0  0  0  0
   51.0300   33.3490   51.6380 O   0  0  0  0  0  0  0  0  0  0  0  0
   54.0980   30.4160   52.7000 C   0  0  0  0  0  0  0  0  0  0  0  0
   54.0940   29.3210   53.5470 C   0  0  0  0  0  0  0  0  0  0  0  0
   55.3330   28.7870   53.5940 N   0  0  0  0  0  0  0  0  0  0  0  0
   56.1360   29.4760   52.7910 N   0  0  0  0  0  0  0  0  0  0  0  0
   57.4970   29.4040   52.5680 C   0  0  0  0  0  0  0  0  0  0  0  0
   58.2860   28.3860   52.8180 N   0  0  0  0  0  0  0  0  0  0  0  0
   59.6600   27.8560   52.7480 C   0  0  0  0  0  0  0  0  0  0  0  0
   60.4510   28.2310   51.5200 C   0  0  0  0  0  0  0  0  0  0  0  0
   60.8120   28.8170   52.9010 C   0  0  0  0  0  0  0  0  0  0  0  0
   58.0720   30.4490   51.9100 N   0  0  0  0  0  0  0  0  0  0  0  0
   57.3450   31.5030   51.4440 C   0  0  0  0  0  0  0  0  0  0  0  0
   57.9180   32.4860   50.8160 N   0  0  0  0  0  0  0  0  0  0  0  0
   58.3360   32.4510   49.4150 C   0  0  0  0  0  0  0  0  0  0  0  0
   59.8310   32.5920   49.3070 C   0  0  0  0  0  0  0  0  0  0  0  0
   60.4880   32.3100   48.1010 C   0  0  0  0  0  0  0  0  0  0  0  0
   61.8690   32.4720   47.9980 C   0  0  0  0  0  0  0  0  0  0  0  0
   62.6150   32.9170   49.0940 C   0  0  0  0  0  0  0  0  0  0  0  0
   64.3550   33.1020   48.8880 Cl  0  0  0  0  0  0  0  0  0  0  0  0
   61.9720   33.2080   50.3180 C   0  0  0  0  0  0  0  0  0  0  0  0
   62.7660   33.6980   51.5110 C   0  0  0  0  0  0  0  0  0  0  0  0
   63.3580   34.9100   51.2080 F   0  0  0  0  0  0  0  0  0  0  0  0
   61.9210   33.8600   52.5940 F   0  0  0  0  0  0  0  0  0  0  0  0
   63.7630   32.8050   51.8680 F   0  0  0  0  0  0  0  0  0  0  0  0
   60.5750   33.0410   50.4090 C   0  0  0  0  0  0  0  0  0  0  0  0
   56.0030   31.5240   51.6270 N   0  0  0  0  0  0  0  0  0  0  0  0
   55.4150   30.4940   52.2750 C   0  0  0  0  0  0  0  0  0  0  0  0
  1  2  1  0
  2  3  1  0
  3  4  1  0
  4  5  2  0
  4  6  1  0
  6  7  1  0
  7  8  1  0
  1  9  2  3
  9 10  1  0
 10 11  2  0
 11 12  1  0
 12 13  1  0
 13 14  2  0
 14 15  1  0
 15 16  1  0
 16 17  1  0
 13 18  1  0
 18 19  1  0
 19 20  2  3
 20 21  1  0
 21 22  1  0
 22 23  2  0
 23 24  1  0
 24 25  2  0
 25 26  1  0
 25 27  1  0
 27 28  1  0
 28 29  1  0
 28 30  1  0
 28 31  1  0
 27 32  2  0
 19 33  1  0
 33 34  2  0
  7  2  2  0
 34  9  1  0
 34 12  1  0
 17 15  1  0
 32 22  1  0
M  CHG  5   3  -1   6  -1   8  -1  11   1  18  -1
M  END
>  <UniqueID>  (172) 
65

>  <SMILES>  (172) 
O=c1[n-]c([O-])c(C=c2c[nH+]n3/c(=N\C4CC4)[n-]c(=NCc4ccc(Cl)c(C(F)(F)F)c4)nc23)[n-]1

>  <Energy>  (172) 
430.65642149873673

>  <Genealogy>  (172) 
O=c1[n-]c([O-])c(C=c2c[nH+]n3c(=NC4CC4)[n-]c(=NCc4ccc(Cl)c(C(F)(F)F)c4)nc23)[n-]1 (protonated)
O=c1[n-]c([O-])c(C=c2c[nH+]n3/c(=N\C4CC4)[n-]c(=NCc4ccc(Cl)c(C(F)(F)F)c4)nc23)[n-]1 (cis-trans isomerization)
O=c1[n-]c([O-])c(C=c2c[nH+]n3/c(=N\C4CC4)[n-]c(=NCc4ccc(Cl)c(C(F)(F)F)c4)nc23)[n-]1 (3D coordinates assigned)
O=c1[n-]c([O-])c(C=c2c[nH+]n3/c(=N\C4CC4)[n-]c(=NCc4ccc(Cl)c(C(F)(F)F)c4)nc23)[n-]1 (nonaromatic ring conformer: 430.65642149873673 kcal/mol)

>  <smiles>  (172) 
O=c1[nH]c(O)c(C=c2cnn3c(=NC4CC4)[nH]c(=NCc4ccc(Cl)c(C(F)(F)F)c4)nc23)[nH]1

>  <score_type>  (172) 
oracle

>  <origin>  (172) 
adg

>  <m_score__min__energy>  (172) 
-17.620000000000001

>  <m_primary>  (172) 
energy

$$$$
70:0
     RDKit          3D

 21 22  0  0  0  0  0  0  0  0999 V2000
   57.0370   31.2910   42.3420 C   0  0  0  0  0  0  0  0  0  0  0  0
   56.6440   30.0420   43.5480 S   0  0  0  0  0  0  0  0  0  0  0  0
   56.8390   30.6250   44.9190 O   0  0  0  0  0  0  0  0  0  0  0  0
   55.2110   29.6080   43.4090 O   0  0  0  0  0  0  0  0  0  0  0  0
   57.7010   28.6780   43.3650 N   0  0  0  0  0  0  0  0  0  0  0  0
   58.3610   28.0050   44.4540 C   0  0  0  0  0  0  0  0  0  0  0  0
   59.7420   28.1390   44.6880 C   0  0  0  0  0  0  0  0  0  0  0  0
   60.3460   27.4690   45.7550 C   0  0  0  0  0  0  0  0  0  0  0  0
   59.5840   26.6570   46.5970 C   0  0  0  0  0  0  0  0  0  0  0  0
   58.2090   26.4990   46.3730 C   0  0  0  0  0  0  0  0  0  0  0  0
   57.3790   25.6490   47.2990 C   0  0  0  0  0  0  0  0  0  0  0  0
   56.3000   24.9220   46.5290 C   0  0  0  0  0  0  0  0  0  0  0  0
   55.2310   25.6220   45.9420 C   0  0  0  0  0  0  0  0  0  0  0  0
   55.1550   27.0080   46.0230 O   0  0  0  0  0  0  0  0  0  0  0  0
   54.2550   24.9450   45.2830 N   0  0  0  0  0  0  0  0  0  0  0  0
   54.2860   23.5930   45.1800 C   0  0  0  0  0  0  0  0  0  0  0  0
   53.3690   22.9880   44.5640 O   0  0  0  0  0  0  0  0  0  0  0  0
   55.3020   22.8920   45.7410 N   0  0  0  0  0  0  0  0  0  0  0  0
   56.3040   23.5180   46.4100 C   0  0  0  0  0  0  0  0  0  0  0  0
   57.2280   22.8310   46.9190 O   0  0  0  0  0  0  0  0  0  0  0  0
   57.6050   27.1770   45.3010 C   0  0  0  0  0  0  0  0  0  0  0  0
  1  2  1  0
  2  3  2  0
  2  4  2  0
  2  5  1  0
  5  6  1  0
  6  7  2  0
  7  8  1  0
  8  9  2  0
  9 10  1  0
 10 11  1  0
 11 12  1  0
 12 13  2  0
 13 14  1  0
 13 15  1  0
 15 16  1  0
 16 17  2  0
 16 18  1  0
 18 19  1  0
 19 20  2  0
 10 21  2  0
 21  6  1  0
 19 12  1  0
M  CHG  3  14  -1  15  -1  18  -1
M  END
>  <UniqueID>  (173) 
66

>  <SMILES>  (173) 
CS(=O)(=O)Nc1cccc(Cc2c([O-])[n-]c(=O)[n-]c2=O)c1

>  <Energy>  (173) 
32.03994221492681

>  <Genealogy>  (173) 
CS(=O)(=O)Nc1cccc(Cc2c([O-])[n-]c(=O)[n-]c2=O)c1 (protonated)
CS(=O)(=O)Nc1cccc(Cc2c([O-])[n-]c(=O)[n-]c2=O)c1 (3D coordinates assigned)
CS(=O)(=O)Nc1cccc(Cc2c([O-])[n-]c(=O)[n-]c2=O)c1 (optimized conformer: 32.03994221492681 kcal/mol)

>  <smiles>  (173) 
CS(=O)(=O)Nc1cccc(Cc2c(O)[nH]c(=O)[nH]c2=O)c1

>  <score_type>  (173) 
oracle

>  <origin>  (173) 
adg

>  <m_score__min__energy>  (173) 
-14.51

>  <m_primary>  (173) 
energy

$$$$
34:0
     RDKit          3D

 24 26  0  0  0  0  0  0  0  0999 V2000
   55.0040   26.3810   45.9370 N   0  0  0  0  0  0  0  0  0  0  0  0
   55.8820   25.3700   46.4320 C   0  0  0  0  0  0  0  0  0  0  0  0
   55.3920   24.3620   47.0090 O   0  0  0  0  0  0  0  0  0  0  0  0
   57.3480   25.4930   46.2400 C   0  0  0  0  0  0  0  0  0  0  0  0
   58.1160   24.3220   46.0970 C   0  0  0  0  0  0  0  0  0  0  0  0
   59.5090   24.3890   46.0010 C   0  0  0  0  0  0  0  0  0  0  0  0
   60.2520   23.2230   45.8680 O   0  0  0  0  0  0  0  0  0  0  0  0
   60.1530   25.6250   46.0470 C   0  0  0  0  0  0  0  0  0  0  0  0
   59.4090   26.7980   46.1710 C   0  0  0  0  0  0  0  0  0  0  0  0
   58.0100   26.7500   46.2420 C   0  0  0  0  0  0  0  0  0  0  0  0
   57.2950   27.9940   46.3040 N   0  0  0  0  0  0  0  0  0  0  0  0
   57.8530   29.1700   46.3210 C   0  0  0  0  0  0  0  0  0  0  0  0
   58.8750   29.4320   47.1850 N   0  0  0  0  0  0  0  0  0  0  0  0
   59.4790   30.6450   47.2300 C   0  0  0  0  0  0  0  0  0  0  0  0
   60.5320   30.8860   48.1210 C   0  0  0  0  0  0  0  0  0  0  0  0
   61.1420   32.1440   48.1520 C   0  0  0  0  0  0  0  0  0  0  0  0
   60.7030   33.1610   47.2950 C   0  0  0  0  0  0  0  0  0  0  0  0
   59.6510   32.9230   46.4020 C   0  0  0  0  0  0  0  0  0  0  0  0
   59.0390   31.6650   46.3690 C   0  0  0  0  0  0  0  0  0  0  0  0
   58.0170   31.4140   45.5110 N   0  0  0  0  0  0  0  0  0  0  0  0
   57.4030   30.1990   45.4560 C   0  0  0  0  0  0  0  0  0  0  0  0
   56.2970   30.0190   44.4850 C   0  0  0  0  0  0  0  0  0  0  0  0
   56.3580   30.5100   43.3260 O   0  0  0  0  0  0  0  0  0  0  0  0
   55.1400   29.2790   44.8660 N   0  0  0  0  0  0  0  0  0  0  0  0
  1  2  1  0
  2  3  2  0
  2  4  1  0
  4  5  2  0
  5  6  1  0
  6  7  1  0
  6  8  2  0
  8  9  1  0
  9 10  2  0
 10 11  1  0
 11 12  2  0
 12 13  1  0
 13 14  1  0
 14 15  2  0
 15 16  1  0
 16 17  2  0
 17 18  1  0
 18 19  2  0
 19 20  1  0
 20 21  2  0
 21 22  1  0
 22 23  2  0
 22 24  1  0
 10  4  1  0
 21 12  1  0
 19 14  1  0
M  CHG  4   1  -1   7  -1  13  -1  24  -1
M  END
>  <UniqueID>  (174) 
32

>  <SMILES>  (174) 
[NH-]C(=O)c1cc([O-])ccc1/N=c1\[n-]c2ccccc2nc1C([NH-])=O

>  <Energy>  (174) 
52.01338699790154

>  <Genealogy>  (174) 
[NH-]C(=O)c1cc([O-])ccc1N=c1[n-]c2ccccc2nc1C([NH-])=O (protonated)
[NH-]C(=O)c1cc([O-])ccc1/N=c1\[n-]c2ccccc2nc1C([NH-])=O (cis-trans isomerization)
[NH-]C(=O)c1cc([O-])ccc1/N=c1\[n-]c2ccccc2nc1C([NH-])=O (3D coordinates assigned)
[NH-]C(=O)c1cc([O-])ccc1/N=c1\[n-]c2ccccc2nc1C([NH-])=O (optimized conformer: 52.01338699790154 kcal/mol)

>  <smiles>  (174) 
NC(=O)c1cc(O)ccc1N=c1[nH]c2ccccc2nc1C(N)=O

>  <score_type>  (174) 
oracle

>  <origin>  (174) 
adg

>  <m_score__min__energy>  (174) 
-16.719999999999999

>  <m_primary>  (174) 
energy

$$$$
20:0
     RDKit          3D

 26 28  0  0  0  0  0  0  0  0999 V2000
   59.6300   35.7470   46.2600 C   0  0  0  0  0  0  0  0  0  0  0  0
   59.3210   34.3270   46.0230 N   0  0  0  0  0  0  0  0  0  0  0  0
   60.5460   33.4930   46.0670 C   0  0  0  0  0  0  0  0  0  0  0  0
   60.8790   32.9950   47.4840 C   0  0  0  0  0  0  0  0  0  0  0  0
   59.7080   32.3770   48.1160 N   0  0  0  0  0  0  0  0  0  0  0  0
   59.8810   31.5730   49.2950 C   0  0  0  0  0  0  0  0  0  0  0  0
   60.8530   30.7710   49.3600 O   0  0  0  0  0  0  0  0  0  0  0  0
   58.9560   31.6810   50.4460 C   0  0  0  0  0  0  0  0  0  0  0  0
   59.0090   32.7920   51.3070 C   0  0  0  0  0  0  0  0  0  0  0  0
   58.1400   32.8840   52.3950 C   0  0  0  0  0  0  0  0  0  0  0  0
   57.2220   31.8630   52.6490 C   0  0  0  0  0  0  0  0  0  0  0  0
   57.1830   30.7290   51.8230 C   0  0  0  0  0  0  0  0  0  0  0  0
   56.2650   29.6540   52.0670 N   0  0  0  0  0  0  0  0  0  0  0  0
   55.5610   29.4140   53.2940 C   0  0  0  0  0  0  0  0  0  0  0  0
   56.2200   29.1880   54.3410 O   0  0  0  0  0  0  0  0  0  0  0  0
   54.1290   29.4230   53.3620 N   0  0  0  0  0  0  0  0  0  0  0  0
   53.2500   30.1540   52.4940 C   0  0  0  0  0  0  0  0  0  0  0  0
   52.5350   31.2410   53.0120 C   0  0  0  0  0  0  0  0  0  0  0  0
   51.6640   31.9670   52.1940 C   0  0  0  0  0  0  0  0  0  0  0  0
   51.5150   31.6210   50.8480 C   0  0  0  0  0  0  0  0  0  0  0  0
   50.6460   32.3400   50.0360 O   0  0  0  0  0  0  0  0  0  0  0  0
   52.2440   30.5530   50.3170 C   0  0  0  0  0  0  0  0  0  0  0  0
   53.1170   29.8260   51.1330 C   0  0  0  0  0  0  0  0  0  0  0  0
   58.0380   30.6520   50.7170 C   0  0  0  0  0  0  0  0  0  0  0  0
   58.4110   32.4490   47.4390 C   0  0  0  0  0  0  0  0  0  0  0  0
   58.2080   33.8680   46.8950 C   0  0  0  0  0  0  0  0  0  0  0  0
  1  2  1  0
  2  3  1  0
  3  4  1  0
  4  5  1  0
  5  6  1  0
  6  7  2  0
  6  8  1  0
  8  9  2  0
  9 10  1  0
 10 11  2  0
 11 12  1  0
 12 13  1  0
 13 14  1  0
 14 15  2  0
 14 16  1  0
 16 17  1  0
 17 18  2  0
 18 19  1  0
 19 20  2  0
 20 21  1  0
 20 22  1  0
 22 23  2  0
 12 24  2  0
  5 25  1  0
 25 26  1  0
 26  2  1  0
 24  8  1  0
 23 17  1  0
M  CHG  3  13  -1  16  -1  21  -1
M  END
>  <UniqueID>  (175) 
19

>  <SMILES>  (175) 
CN1CCN(C(=O)c2cccc([N-]C(=O)[N-]c3ccc([O-])cc3)c2)CC1

>  <Energy>  (175) 
65.57200194532254

>  <Genealogy>  (175) 
CN1CCN(C(=O)c2cccc([N-]C(=O)[N-]c3ccc([O-])cc3)c2)CC1 (protonated)
CN1CCN(C(=O)c2cccc([N-]C(=O)[N-]c3ccc([O-])cc3)c2)CC1 (3D coordinates assigned)
CN1CCN(C(=O)c2cccc([N-]C(=O)[N-]c3ccc([O-])cc3)c2)CC1 (nonaromatic ring conformer: 65.57200194532254 kcal/mol)

>  <smiles>  (175) 
CN1CCN(C(=O)c2cccc(NC(=O)Nc3ccc(O)cc3)c2)CC1

>  <score_type>  (175) 
oracle

>  <origin>  (175) 
adg

>  <m_score__min__energy>  (175) 
-14.609999999999999

>  <m_primary>  (175) 
energy

$$$$
79:0
     RDKit          3D

 26 28  0  0  0  0  0  0  0  0999 V2000
   55.1720   26.0220   46.3210 O   0  0  0  0  0  0  0  0  0  0  0  0
   56.2820   25.5810   45.9200 C   0  0  0  0  0  0  0  0  0  0  0  0
   57.4800   26.1980   46.4100 N   0  0  0  0  0  0  0  0  0  0  0  0
   58.0280   27.4480   45.9690 C   0  0  0  0  0  0  0  0  0  0  0  0
   59.3820   27.7130   46.2040 C   0  0  0  0  0  0  0  0  0  0  0  0
   59.9400   28.9330   45.8140 C   0  0  0  0  0  0  0  0  0  0  0  0
   59.1460   29.9030   45.2000 C   0  0  0  0  0  0  0  0  0  0  0  0
   57.7850   29.6570   44.9740 C   0  0  0  0  0  0  0  0  0  0  0  0
   56.7680   30.8800   44.2210 S   0  0  0  0  0  0  0  0  0  0  0  0
   57.3820   31.2870   42.9120 O   0  0  0  0  0  0  0  0  0  0  0  0
   55.3870   30.3410   43.9630 O   0  0  0  0  0  0  0  0  0  0  0  0
   56.6470   32.2710   45.2480 N   0  0  0  0  0  0  0  0  0  0  0  0
   57.7440   33.1060   45.6400 C   0  0  0  0  0  0  0  0  0  0  0  0
   58.2010   34.1690   44.8370 C   0  0  0  0  0  0  0  0  0  0  0  0
   59.2830   34.9510   45.2560 C   0  0  0  0  0  0  0  0  0  0  0  0
   59.9190   34.6760   46.4690 C   0  0  0  0  0  0  0  0  0  0  0  0
   59.4720   33.6210   47.2680 C   0  0  0  0  0  0  0  0  0  0  0  0
   58.3840   32.8440   46.8580 C   0  0  0  0  0  0  0  0  0  0  0  0
   57.2260   28.4330   45.3650 C   0  0  0  0  0  0  0  0  0  0  0  0
   56.3140   24.4080   45.0120 C   0  0  0  0  0  0  0  0  0  0  0  0
   57.5270   23.7930   44.6590 C   0  0  0  0  0  0  0  0  0  0  0  0
   57.5270   22.6580   43.8450 C   0  0  0  0  0  0  0  0  0  0  0  0
   56.3110   22.1390   43.3950 C   0  0  0  0  0  0  0  0  0  0  0  0
   56.2900   21.1090   42.6730 O   0  0  0  0  0  0  0  0  0  0  0  0
   55.1450   22.7440   43.7420 N   0  0  0  0  0  0  0  0  0  0  0  0
   55.1180   23.8500   44.5310 C   0  0  0  0  0  0  0  0  0  0  0  0
  1  2  2  0
  2  3  1  0
  3  4  1  0
  4  5  2  0
  5  6  1  0
  6  7  2  0
  7  8  1  0
  8  9  1  0
  9 10  2  0
  9 11  2  0
  9 12  1  0
 12 13  1  0
 13 14  2  0
 14 15  1  0
 15 16  2  0
 16 17  1  0
 17 18  2  0
  8 19  2  0
  2 20  1  0
 20 21  1  0
 21 22  2  0
 22 23  1  0
 23 24  2  0
 23 25  1  0
 25 26  1  0
 19  4  1  0
 26 20  2  0
 18 13  1  0
M  CHG  3   3  -1  12  -1  25  -1
M  END
>  <UniqueID>  (176) 
73

>  <SMILES>  (176) 
O=C([N-]c1cccc(S(=O)(=O)[N-]c2ccccc2)c1)c1ccc(=O)[n-]c1

>  <Energy>  (176) 
48.15786515077588

>  <Genealogy>  (176) 
O=C([N-]c1cccc(S(=O)(=O)[N-]c2ccccc2)c1)c1ccc(=O)[n-]c1 (protonated)
O=C([N-]c1cccc(S(=O)(=O)[N-]c2ccccc2)c1)c1ccc(=O)[n-]c1 (3D coordinates assigned)
O=C([N-]c1cccc(S(=O)(=O)[N-]c2ccccc2)c1)c1ccc(=O)[n-]c1 (optimized conformer: 48.15786515077588 kcal/mol)

>  <smiles>  (176) 
O=C(Nc1cccc(S(=O)(=O)Nc2ccccc2)c1)c1ccc(=O)[nH]c1

>  <score_type>  (176) 
oracle

>  <origin>  (176) 
adg

>  <m_score__min__energy>  (176) 
-14.109999999999999

>  <m_primary>  (176) 
energy

$$$$
63:0
     RDKit          3D

 35 38  0  0  0  0  0  0  0  0999 V2000
   50.3070   33.0330   52.2650 O   0  0  0  0  0  0  0  0  0  0  0  0
   51.1310   32.3500   51.6000 C   0  0  0  0  0  0  0  0  0  0  0  0
   51.4120   32.7210   50.2900 O   0  0  0  0  0  0  0  0  0  0  0  0
   51.7900   31.1710   52.2050 C   0  0  0  0  0  0  0  0  0  0  0  0
   51.0270   30.1130   52.7280 C   0  0  0  0  0  0  0  0  0  0  0  0
   51.6550   29.0010   53.2940 C   0  0  0  0  0  0  0  0  0  0  0  0
   53.0480   28.9320   53.3470 C   0  0  0  0  0  0  0  0  0  0  0  0
   53.8290   29.9810   52.8360 C   0  0  0  0  0  0  0  0  0  0  0  0
   55.2680   29.9060   52.8850 N   0  0  0  0  0  0  0  0  0  0  0  0
   55.8450   28.7750   53.3890 C   0  0  0  0  0  0  0  0  0  0  0  0
   57.2290   28.6480   53.4440 C   0  0  0  0  0  0  0  0  0  0  0  0
   58.0320   29.6840   52.9800 C   0  0  0  0  0  0  0  0  0  0  0  0
   57.4560   30.8550   52.4640 C   0  0  0  0  0  0  0  0  0  0  0  0
   58.3350   31.9550   51.9790 C   0  0  0  0  0  0  0  0  0  0  0  0
   58.2700   33.1010   52.5000 O   0  0  0  0  0  0  0  0  0  0  0  0
   59.2260   31.7250   50.8770 N   0  0  0  0  0  0  0  0  0  0  0  0
   58.8560   31.5560   49.5010 C   0  0  0  0  0  0  0  0  0  0  0  0
   58.4980   32.6460   48.6850 C   0  0  0  0  0  0  0  0  0  0  0  0
   58.1630   32.4400   47.3440 C   0  0  0  0  0  0  0  0  0  0  0  0
   58.1940   31.1500   46.7980 C   0  0  0  0  0  0  0  0  0  0  0  0
   57.7540   30.8730   45.1160 S   0  0  0  0  0  0  0  0  0  0  0  0
   57.1560   32.1110   44.5080 O   0  0  0  0  0  0  0  0  0  0  0  0
   58.9880   30.4990   44.3440 O   0  0  0  0  0  0  0  0  0  0  0  0
   56.6030   29.5780   45.0180 N   0  0  0  0  0  0  0  0  0  0  0  0
   56.8910   28.3370   45.2700 C   0  0  0  0  0  0  0  0  0  0  0  0
   58.2200   27.9060   45.1780 C   0  0  0  0  0  0  0  0  0  0  0  0
   58.5270   26.5710   45.4560 C   0  0  0  0  0  0  0  0  0  0  0  0
   57.5120   25.6850   45.8180 C   0  0  0  0  0  0  0  0  0  0  0  0
   56.1970   26.1480   45.8980 C   0  0  0  0  0  0  0  0  0  0  0  0
   55.9170   27.4510   45.6250 N   0  0  0  0  0  0  0  0  0  0  0  0
   58.5770   30.0690   47.6020 C   0  0  0  0  0  0  0  0  0  0  0  0
   58.9130   30.2740   48.9430 C   0  0  0  0  0  0  0  0  0  0  0  0
   56.0420   30.9470   52.4320 C   0  0  0  0  0  0  0  0  0  0  0  0
   55.4890   31.9960   51.9990 O   0  0  0  0  0  0  0  0  0  0  0  0
   53.1940   31.0950   52.2620 C   0  0  0  0  0  0  0  0  0  0  0  0
  1  2  2  0
  2  3  1  0
  2  4  1  0
  4  5  2  0
  5  6  1  0
  6  7  2  0
  7  8  1  0
  8  9  1  0
  9 10  1  0
 10 11  2  0
 11 12  1  0
 12 13  2  0
 13 14  1  0
 14 15  2  0
 14 16  1  0
 16 17  1  0
 17 18  2  0
 18 19  1  0
 19 20  2  0
 20 21  1  0
 21 22  2  0
 21 23  2  0
 21 24  1  0
 24 25  2  3
 25 26  1  0
 26 27  2  0
 27 28  1  0
 28 29  2  0
 29 30  1  0
 20 31  1  0
 31 32  2  0
 13 33  1  0
 33 34  2  0
  8 35  2  0
 35  4  1  0
 33  9  1  0
 32 17  1  0
 30 25  1  0
M  CHG  3   3  -1  16  -1  30  -1
M  END
>  <UniqueID>  (177) 
60

>  <SMILES>  (177) 
O=C([O-])c1cccc(-n2cccc(C(=O)[N-]c3ccc(S(=O)(=O)N=c4cccc[n-]4)cc3)c2=O)c1

>  <Energy>  (177) 
74.85965628512373

>  <Genealogy>  (177) 
O=C([O-])c1cccc(-n2cccc(C(=O)[N-]c3ccc(S(=O)(=O)N=c4cccc[n-]4)cc3)c2=O)c1 (protonated)
O=C([O-])c1cccc(-n2cccc(C(=O)[N-]c3ccc(S(=O)(=O)N=c4cccc[n-]4)cc3)c2=O)c1 (3D coordinates assigned)
O=C([O-])c1cccc(-n2cccc(C(=O)[N-]c3ccc(S(=O)(=O)N=c4cccc[n-]4)cc3)c2=O)c1 (optimized conformer: 74.85965628512373 kcal/mol)

>  <smiles>  (177) 
O=C(O)c1cccc(-n2cccc(C(=O)Nc3ccc(S(=O)(=O)N=c4cccc[nH]4)cc3)c2=O)c1

>  <score_type>  (177) 
oracle

>  <origin>  (177) 
adg

>  <m_score__min__energy>  (177) 
-15.66

>  <m_primary>  (177) 
energy

$$$$
64:0
     RDKit          3D

 28 30  0  0  0  0  0  0  0  0999 V2000
   54.1520   25.6350   45.6220 N   0  0  0  0  0  0  0  0  0  0  0  0
   54.2370   23.9140   45.7500 S   0  0  0  0  0  0  0  0  0  0  0  0
   53.8680   23.5110   47.1500 O   0  0  0  0  0  0  0  0  0  0  0  0
   53.2660   23.2850   44.7900 O   0  0  0  0  0  0  0  0  0  0  0  0
   55.8750   23.3780   45.3630 C   0  0  0  0  0  0  0  0  0  0  0  0
   56.0700   22.1580   44.6970 C   0  0  0  0  0  0  0  0  0  0  0  0
   57.3600   21.7250   44.3820 C   0  0  0  0  0  0  0  0  0  0  0  0
   58.4650   22.4980   44.7380 C   0  0  0  0  0  0  0  0  0  0  0  0
   58.2870   23.7140   45.4050 C   0  0  0  0  0  0  0  0  0  0  0  0
   59.4050   24.4420   45.7960 O   0  0  0  0  0  0  0  0  0  0  0  0
   56.9880   24.1780   45.6980 C   0  0  0  0  0  0  0  0  0  0  0  0
   56.7870   25.4170   46.3960 N   0  0  0  0  0  0  0  0  0  0  0  0
   57.0120   26.6010   45.9100 C   0  0  0  0  0  0  0  0  0  0  0  0
   58.2910   27.0050   45.7090 N   0  0  0  0  0  0  0  0  0  0  0  0
   58.5700   28.2420   45.2240 C   0  0  0  0  0  0  0  0  0  0  0  0
   57.5320   29.1350   44.9250 C   0  0  0  0  0  0  0  0  0  0  0  0
   57.8440   30.5200   44.4140 C   0  0  0  0  0  0  0  0  0  0  0  0
   58.2290   31.4360   45.5520 C   0  0  0  0  0  0  0  0  0  0  0  0
   59.4220   31.2170   46.2700 C   0  0  0  0  0  0  0  0  0  0  0  0
   60.2250   30.1640   45.9770 F   0  0  0  0  0  0  0  0  0  0  0  0
   59.7920   32.0850   47.3010 C   0  0  0  0  0  0  0  0  0  0  0  0
   58.9840   33.1760   47.6260 C   0  0  0  0  0  0  0  0  0  0  0  0
   57.8010   33.4040   46.9190 C   0  0  0  0  0  0  0  0  0  0  0  0
   57.4220   32.5420   45.8850 C   0  0  0  0  0  0  0  0  0  0  0  0
   56.2670   32.7870   45.2160 F   0  0  0  0  0  0  0  0  0  0  0  0
   56.2150   28.7010   45.1480 C   0  0  0  0  0  0  0  0  0  0  0  0
   55.1320   29.5290   44.8730 O   0  0  0  0  0  0  0  0  0  0  0  0
   55.9860   27.4540   45.6340 N   0  0  0  0  0  0  0  0  0  0  0  0
  1  2  1  0
  2  3  2  0
  2  4  2  0
  2  5  1  0
  5  6  2  0
  6  7  1  0
  7  8  2  0
  8  9  1  0
  9 10  1  0
  9 11  2  0
 11 12  1  0
 12 13  2  3
 13 14  1  0
 14 15  2  0
 15 16  1  0
 16 17  1  0
 17 18  1  0
 18 19  2  0
 19 20  1  0
 19 21  1  0
 21 22  2  0
 22 23  1  0
 23 24  2  0
 24 25  1  0
 16 26  2  0
 26 27  1  0
 26 28  1  0
 11  5  1  0
 28 13  1  0
 24 18  1  0
M  CHG  4   1  -1  10  -1  27  -1  28  -1
M  END
>  <UniqueID>  (178) 
61

>  <SMILES>  (178) 
[NH-]S(=O)(=O)c1cccc([O-])c1N=c1ncc(Cc2c(F)cccc2F)c([O-])[n-]1

>  <Energy>  (178) 
51.48042874490198

>  <Genealogy>  (178) 
[NH-]S(=O)(=O)c1cccc([O-])c1N=c1ncc(Cc2c(F)cccc2F)c([O-])[n-]1 (protonated)
[NH-]S(=O)(=O)c1cccc([O-])c1N=c1ncc(Cc2c(F)cccc2F)c([O-])[n-]1 (3D coordinates assigned)
[NH-]S(=O)(=O)c1cccc([O-])c1N=c1ncc(Cc2c(F)cccc2F)c([O-])[n-]1 (optimized conformer: 51.48042874490198 kcal/mol)

>  <smiles>  (178) 
NS(=O)(=O)c1cccc(O)c1N=c1ncc(Cc2c(F)cccc2F)c(O)[nH]1

>  <score_type>  (178) 
oracle

>  <origin>  (178) 
adg

>  <m_score__min__energy>  (178) 
-16.449999999999999

>  <m_primary>  (178) 
energy

$$$$
41:0
     RDKit          3D

 26 28  0  0  0  0  0  0  0  0999 V2000
   57.7940   32.6020   42.2870 O   0  0  0  0  0  0  0  0  0  0  0  0
   57.7960   32.5390   43.5460 C   0  0  0  0  0  0  0  0  0  0  0  0
   58.0040   33.7460   44.2940 N   0  0  0  0  0  0  0  0  0  0  0  0
   58.6720   33.9000   45.4040 C   0  0  0  0  0  0  0  0  0  0  0  0
   60.0070   34.1500   45.3080 N   0  0  0  0  0  0  0  0  0  0  0  0
   60.7980   34.3400   46.3970 C   0  0  0  0  0  0  0  0  0  0  0  0
   60.2500   34.2810   47.6750 C   0  0  0  0  0  0  0  0  0  0  0  0
   58.8920   34.0080   47.8220 C   0  0  0  0  0  0  0  0  0  0  0  0
   58.0860   33.8010   46.6950 C   0  0  0  0  0  0  0  0  0  0  0  0
   56.7410   33.4740   46.8710 O   0  0  0  0  0  0  0  0  0  0  0  0
   57.5060   31.2500   44.2240 C   0  0  0  0  0  0  0  0  0  0  0  0
   58.4580   30.6690   45.0800 C   0  0  0  0  0  0  0  0  0  0  0  0
   58.1880   29.4590   45.7250 C   0  0  0  0  0  0  0  0  0  0  0  0
   56.9760   28.7970   45.5110 C   0  0  0  0  0  0  0  0  0  0  0  0
   56.7300   27.5610   46.1980 N   0  0  0  0  0  0  0  0  0  0  0  0
   57.3030   26.2840   45.8820 C   0  0  0  0  0  0  0  0  0  0  0  0
   58.5560   26.1650   45.8940 O   0  0  0  0  0  0  0  0  0  0  0  0
   56.4690   25.1170   45.5090 C   0  0  0  0  0  0  0  0  0  0  0  0
   57.0930   23.9430   45.0530 C   0  0  0  0  0  0  0  0  0  0  0  0
   56.3300   22.8230   44.7110 C   0  0  0  0  0  0  0  0  0  0  0  0
   54.9390   22.8670   44.8110 C   0  0  0  0  0  0  0  0  0  0  0  0
   54.3050   24.0340   45.2420 C   0  0  0  0  0  0  0  0  0  0  0  0
   55.0600   25.1630   45.5810 C   0  0  0  0  0  0  0  0  0  0  0  0
   54.4020   26.3260   45.9650 O   0  0  0  0  0  0  0  0  0  0  0  0
   56.0120   29.3810   44.6720 C   0  0  0  0  0  0  0  0  0  0  0  0
   56.2790   30.5910   44.0250 C   0  0  0  0  0  0  0  0  0  0  0  0
  1  2  2  0
  2  3  1  0
  3  4  2  3
  4  5  1  0
  5  6  1  0
  6  7  2  0
  7  8  1  0
  8  9  2  0
  9 10  1  0
  2 11  1  0
 11 12  2  0
 12 13  1  0
 13 14  2  0
 14 15  1  0
 15 16  1  0
 16 17  2  0
 16 18  1  0
 18 19  2  0
 19 20  1  0
 20 21  2  0
 21 22  1  0
 22 23  2  0
 23 24  1  0
 14 25  1  0
 25 26  2  0
  9  4  1  0
 26 11  1  0
 23 18  1  0
M  CHG  3   5  -1  15  -1  24  -1
M  END
>  <UniqueID>  (179) 
39

>  <SMILES>  (179) 
O=C(N=c1[n-]cccc1O)c1ccc([N-]C(=O)c2ccccc2[O-])cc1

>  <Energy>  (179) 
63.754042662873374

>  <Genealogy>  (179) 
O=C(N=c1[n-]cccc1O)c1ccc([N-]C(=O)c2ccccc2[O-])cc1 (protonated)
O=C(N=c1[n-]cccc1O)c1ccc([N-]C(=O)c2ccccc2[O-])cc1 (3D coordinates assigned)
O=C(N=c1[n-]cccc1O)c1ccc([N-]C(=O)c2ccccc2[O-])cc1 (optimized conformer: 63.754042662873374 kcal/mol)

>  <smiles>  (179) 
O=C(N=c1[nH]cccc1O)c1ccc(NC(=O)c2ccccc2O)cc1

>  <score_type>  (179) 
oracle

>  <origin>  (179) 
adg

>  <m_score__min__energy>  (179) 
-14.210000000000001

>  <m_primary>  (179) 
energy

$$$$
67:0
     RDKit          3D

 27 29  0  0  0  0  0  0  0  0999 V2000
   59.1330   30.2950   48.4910 N   0  0  0  0  0  0  0  0  0  0  0  0
   59.9360   31.0510   48.1420 C   0  0  0  0  0  0  0  0  0  0  0  0
   60.9380   31.9940   47.7090 C   0  0  0  0  0  0  0  0  0  0  0  0
   62.2430   31.8630   48.2060 C   0  0  0  0  0  0  0  0  0  0  0  0
   63.2360   32.7690   47.8300 C   0  0  0  0  0  0  0  0  0  0  0  0
   62.9330   33.8160   46.9590 C   0  0  0  0  0  0  0  0  0  0  0  0
   61.6370   33.9570   46.4570 C   0  0  0  0  0  0  0  0  0  0  0  0
   60.6310   33.0440   46.8140 C   0  0  0  0  0  0  0  0  0  0  0  0
   59.0000   33.2510   46.1510 S   0  0  0  0  0  0  0  0  0  0  0  0
   58.8170   34.6880   45.7550 O   0  0  0  0  0  0  0  0  0  0  0  0
   57.9610   32.8880   47.1760 O   0  0  0  0  0  0  0  0  0  0  0  0
   58.7690   32.2530   44.7510 N   0  0  0  0  0  0  0  0  0  0  0  0
   58.2910   30.9010   44.7660 C   0  0  0  0  0  0  0  0  0  0  0  0
   59.2250   29.8600   44.7160 C   0  0  0  0  0  0  0  0  0  0  0  0
   58.8030   28.5280   44.7440 C   0  0  0  0  0  0  0  0  0  0  0  0
   57.4410   28.2150   44.8380 C   0  0  0  0  0  0  0  0  0  0  0  0
   57.0380   26.8380   44.8600 N   0  0  0  0  0  0  0  0  0  0  0  0
   56.9240   26.0710   46.0690 C   0  0  0  0  0  0  0  0  0  0  0  0
   57.3450   26.5400   47.1610 O   0  0  0  0  0  0  0  0  0  0  0  0
   56.3450   24.7180   46.0380 C   0  0  0  0  0  0  0  0  0  0  0  0
   56.9980   23.5630   45.6620 C   0  0  0  0  0  0  0  0  0  0  0  0
   56.0470   22.5780   45.8070 C   0  0  0  0  0  0  0  0  0  0  0  0
   54.8980   23.1240   46.2470 N   0  0  0  0  0  0  0  0  0  0  0  0
   55.0780   24.4280   46.3880 N   0  0  0  0  0  0  0  0  0  0  0  0
   56.4960   29.2600   44.8560 C   0  0  0  0  0  0  0  0  0  0  0  0
   55.1330   28.9840   44.8690 O   0  0  0  0  0  0  0  0  0  0  0  0
   56.9210   30.5920   44.8330 C   0  0  0  0  0  0  0  0  0  0  0  0
  1  2  3  0
  2  3  1  0
  3  4  2  0
  4  5  1  0
  5  6  2  0
  6  7  1  0
  7  8  2  0
  8  9  1  0
  9 10  2  0
  9 11  2  0
  9 12  1  0
 12 13  1  0
 13 14  2  0
 14 15  1  0
 15 16  2  0
 16 17  1  0
 17 18  1  0
 18 19  2  0
 18 20  1  0
 20 21  1  0
 21 22  2  0
 22 23  1  0
 23 24  1  0
 16 25  1  0
 25 26  1  0
 25 27  2  0
  8  3  1  0
 27 13  1  0
 24 20  2  0
M  CHG  3  12  -1  23  -1  26  -1
M  END
>  <UniqueID>  (180) 
60

>  <SMILES>  (180) 
N#Cc1ccccc1S(=O)(=O)[N-]c1ccc(NC(=O)c2cc[n-]n2)c([O-])c1

>  <Energy>  (180) 
77.53847169660573

>  <Genealogy>  (180) 
N#Cc1ccccc1S(=O)(=O)[N-]c1ccc(NC(=O)c2cc[n-]n2)c([O-])c1 (protonated)
N#Cc1ccccc1S(=O)(=O)[N-]c1ccc(NC(=O)c2cc[n-]n2)c([O-])c1 (3D coordinates assigned)
N#Cc1ccccc1S(=O)(=O)[N-]c1ccc(NC(=O)c2cc[n-]n2)c([O-])c1 (optimized conformer: 77.53847169660573 kcal/mol)

>  <smiles>  (180) 
N#Cc1ccccc1S(=O)(=O)Nc1ccc(NC(=O)c2cc[nH]n2)c(O)c1

>  <score_type>  (180) 
oracle

>  <origin>  (180) 
adg

>  <m_score__min__energy>  (180) 
-14.1

>  <m_primary>  (180) 
energy

$$$$
87:0
     RDKit          3D

 24 26  0  0  0  0  0  0  0  0999 V2000
   55.9910   24.4600   47.0660 O   0  0  0  0  0  0  0  0  0  0  0  0
   56.3110   25.5540   46.5330 C   0  0  0  0  0  0  0  0  0  0  0  0
   55.3950   26.4550   46.1170 N   0  0  0  0  0  0  0  0  0  0  0  0
   56.1600   27.4430   45.6220 C   0  0  0  0  0  0  0  0  0  0  0  0
   55.6540   28.6080   45.0530 O   0  0  0  0  0  0  0  0  0  0  0  0
   57.4900   27.1270   45.7570 C   0  0  0  0  0  0  0  0  0  0  0  0
   58.6550   27.9310   45.2690 C   0  0  0  0  0  0  0  0  0  0  0  0
   58.6040   29.3180   45.8470 C   0  0  0  0  0  0  0  0  0  0  0  0
   57.9580   30.3510   45.1500 C   0  0  0  0  0  0  0  0  0  0  0  0
   57.8800   31.6320   45.7030 C   0  0  0  0  0  0  0  0  0  0  0  0
   58.4360   31.9010   46.9590 C   0  0  0  0  0  0  0  0  0  0  0  0
   58.3360   33.2310   47.4840 N   0  0  0  0  0  0  0  0  0  0  0  0
   59.6730   34.2980   47.7660 S   0  0  0  0  0  0  0  0  0  0  0  0
   59.5270   34.9310   49.1210 O   0  0  0  0  0  0  0  0  0  0  0  0
   59.6730   35.3770   46.7190 O   0  0  0  0  0  0  0  0  0  0  0  0
   61.1840   33.4100   47.6680 C   0  0  0  0  0  0  0  0  0  0  0  0
   62.1560   33.7680   46.7270 C   0  0  0  0  0  0  0  0  0  0  0  0
   63.3440   33.0370   46.6600 C   0  0  0  0  0  0  0  0  0  0  0  0
   63.5490   31.9640   47.5290 C   0  0  0  0  0  0  0  0  0  0  0  0
   62.5560   31.6370   48.4570 C   0  0  0  0  0  0  0  0  0  0  0  0
   61.4050   32.3600   48.5060 N   0  0  0  0  0  0  0  0  0  0  0  0
   59.0680   30.8620   47.6670 C   0  0  0  0  0  0  0  0  0  0  0  0
   59.1480   29.5800   47.1140 C   0  0  0  0  0  0  0  0  0  0  0  0
   57.5970   25.9140   46.3280 N   0  0  0  0  0  0  0  0  0  0  0  0
  1  2  2  0
  2  3  1  0
  3  4  1  0
  4  5  1  0
  4  6  2  0
  6  7  1  0
  7  8  1  0
  8  9  2  0
  9 10  1  0
 10 11  2  0
 11 12  1  0
 12 13  1  0
 13 14  2  0
 13 15  2  0
 13 16  1  0
 16 17  2  0
 17 18  1  0
 18 19  2  0
 19 20  1  0
 20 21  2  0
 11 22  1  0
 22 23  2  0
  6 24  1  0
 24  2  1  0
 23  8  1  0
 21 16  1  0
M  CHG  3   3  -1  12  -1  24  -1
M  END
>  <UniqueID>  (181) 
82

>  <SMILES>  (181) 
O=c1[n-]c(O)c(Cc2ccc([N-]S(=O)(=O)c3ccccn3)cc2)[n-]1

>  <Energy>  (181) 
67.89802912182735

>  <Genealogy>  (181) 
O=c1[n-]c(O)c(Cc2ccc([N-]S(=O)(=O)c3ccccn3)cc2)[n-]1 (protonated)
O=c1[n-]c(O)c(Cc2ccc([N-]S(=O)(=O)c3ccccn3)cc2)[n-]1 (3D coordinates assigned)
O=c1[n-]c(O)c(Cc2ccc([N-]S(=O)(=O)c3ccccn3)cc2)[n-]1 (optimized conformer: 67.89802912182735 kcal/mol)

>  <smiles>  (181) 
O=c1[nH]c(O)c(Cc2ccc(NS(=O)(=O)c3ccccn3)cc2)[nH]1

>  <score_type>  (181) 
oracle

>  <origin>  (181) 
adg

>  <m_score__min__energy>  (181) 
-14.09

>  <m_primary>  (181) 
energy

$$$$
17:0
     RDKit          3D

 27 29  0  0  0  0  0  0  0  0999 V2000
   58.5980   31.3340   49.3540 O   0  0  0  0  0  0  0  0  0  0  0  0
   59.2150   30.9420   48.3290 C   0  0  0  0  0  0  0  0  0  0  0  0
   58.8830   29.6570   47.7820 N   0  0  0  0  0  0  0  0  0  0  0  0
   59.8300   28.6370   47.3480 C   0  0  0  0  0  0  0  0  0  0  0  0
   59.3880   27.2590   47.8460 C   0  0  0  0  0  0  0  0  0  0  0  0
   58.4370   26.6230   46.8680 C   0  0  0  0  0  0  0  0  0  0  0  0
   58.8910   25.6350   45.9780 C   0  0  0  0  0  0  0  0  0  0  0  0
   57.9980   25.0210   45.0940 C   0  0  0  0  0  0  0  0  0  0  0  0
   56.6480   25.3810   45.0980 C   0  0  0  0  0  0  0  0  0  0  0  0
   56.1850   26.3530   45.9910 C   0  0  0  0  0  0  0  0  0  0  0  0
   54.8420   26.7050   45.9990 O   0  0  0  0  0  0  0  0  0  0  0  0
   57.0760   26.9700   46.8760 C   0  0  0  0  0  0  0  0  0  0  0  0
   60.2500   31.8150   47.7300 C   0  0  0  0  0  0  0  0  0  0  0  0
   61.5530   31.6220   48.0760 N   0  0  0  0  0  0  0  0  0  0  0  0
   62.5480   32.4120   47.6030 C   0  0  0  0  0  0  0  0  0  0  0  0
   62.2350   33.4640   46.7460 C   0  0  0  0  0  0  0  0  0  0  0  0
   63.1390   34.2200   46.3040 O   0  0  0  0  0  0  0  0  0  0  0  0
   60.9420   33.6710   46.3910 N   0  0  0  0  0  0  0  0  0  0  0  0
   59.9330   32.8720   46.8410 C   0  0  0  0  0  0  0  0  0  0  0  0
   58.5100   33.1510   46.4060 C   0  0  0  0  0  0  0  0  0  0  0  0
   58.2960   32.9570   44.8980 C   0  0  0  0  0  0  0  0  0  0  0  0
   57.9400   31.5260   44.5950 C   0  0  0  0  0  0  0  0  0  0  0  0
   58.9090   30.5150   44.7120 C   0  0  0  0  0  0  0  0  0  0  0  0
   58.5870   29.1900   44.3970 C   0  0  0  0  0  0  0  0  0  0  0  0
   57.3000   28.8700   43.9540 C   0  0  0  0  0  0  0  0  0  0  0  0
   56.3350   29.8720   43.8220 C   0  0  0  0  0  0  0  0  0  0  0  0
   56.6540   31.1960   44.1360 C   0  0  0  0  0  0  0  0  0  0  0  0
  1  2  2  0
  2  3  1  0
  3  4  1  0
  4  5  1  0
  5  6  1  0
  6  7  2  0
  7  8  1  0
  8  9  2  0
  9 10  1  0
 10 11  1  0
 10 12  2  0
  2 13  1  0
 13 14  1  0
 14 15  2  0
 15 16  1  0
 16 17  2  0
 16 18  1  0
 18 19  1  0
 19 20  1  0
 20 21  1  0
 21 22  1  0
 22 23  2  0
 23 24  1  0
 24 25  2  0
 25 26  1  0
 26 27  2  0
 12  6  1  0
 19 13  2  0
 27 22  1  0
M  CHG  3   3  -1  11  -1  18  -1
M  END
>  <UniqueID>  (182) 
16

>  <SMILES>  (182) 
O=C([N-]CCc1cccc([O-])c1)c1ncc(=O)[n-]c1CCc1ccccc1

>  <Energy>  (182) 
50.11366267365772

>  <Genealogy>  (182) 
O=C([N-]CCc1cccc([O-])c1)c1ncc(=O)[n-]c1CCc1ccccc1 (protonated)
O=C([N-]CCc1cccc([O-])c1)c1ncc(=O)[n-]c1CCc1ccccc1 (3D coordinates assigned)
O=C([N-]CCc1cccc([O-])c1)c1ncc(=O)[n-]c1CCc1ccccc1 (optimized conformer: 50.11366267365772 kcal/mol)

>  <smiles>  (182) 
O=C(NCCc1cccc(O)c1)c1ncc(=O)[nH]c1CCc1ccccc1

>  <score_type>  (182) 
oracle

>  <origin>  (182) 
adg

>  <m_score__min__energy>  (182) 
-14.48

>  <m_primary>  (182) 
energy

$$$$
39:0
     RDKit          3D

 22 24  0  0  0  0  0  0  0  0999 V2000
   56.2920   30.1160   42.6790 C   0  0  0  0  0  0  0  0  0  0  0  0
   56.6340   30.3820   44.4040 S   0  0  0  0  0  0  0  0  0  0  0  0
   56.2620   31.7790   44.8130 O   0  0  0  0  0  0  0  0  0  0  0  0
   55.8200   29.4090   45.2100 O   0  0  0  0  0  0  0  0  0  0  0  0
   58.3130   30.0990   44.7320 N   0  0  0  0  0  0  0  0  0  0  0  0
   58.8470   29.4120   45.8730 C   0  0  0  0  0  0  0  0  0  0  0  0
   59.4680   30.1040   46.9340 C   0  0  0  0  0  0  0  0  0  0  0  0
   59.9610   29.3800   48.0200 C   0  0  0  0  0  0  0  0  0  0  0  0
   59.8480   28.0180   48.0770 C   0  0  0  0  0  0  0  0  0  0  0  0
   59.2340   27.3040   47.0500 C   0  0  0  0  0  0  0  0  0  0  0  0
   58.7360   28.0020   45.9370 C   0  0  0  0  0  0  0  0  0  0  0  0
   57.9550   27.0830   44.6070 S   0  0  0  0  0  0  0  0  0  0  0  0
   57.3240   25.8260   45.7150 C   0  0  0  0  0  0  0  0  0  0  0  0
   58.2100   24.5090   46.2810 S   0  0  0  0  0  0  0  0  0  0  0  0
   56.9160   23.9320   47.1870 C   0  0  0  0  0  0  0  0  0  0  0  0
   56.9560   22.8910   47.8950 O   0  0  0  0  0  0  0  0  0  0  0  0
   55.8160   24.7090   47.0800 N   0  0  0  0  0  0  0  0  0  0  0  0
   56.0450   25.7670   46.2590 C   0  0  0  0  0  0  0  0  0  0  0  0
   55.0660   26.7150   45.9960 O   0  0  0  0  0  0  0  0  0  0  0  0
   60.4470   27.4580   49.3090 C   0  0  0  0  0  0  0  0  0  0  0  0
   60.9210   28.6980   50.0910 C   0  0  0  0  0  0  0  0  0  0  0  0
   60.6420   29.9330   49.2140 C   0  0  0  0  0  0  0  0  0  0  0  0
  1  2  1  0
  2  3  2  0
  2  4  2  0
  2  5  1  0
  5  6  1  0
  6  7  2  0
  7  8  1  0
  8  9  2  0
  9 10  1  0
 10 11  2  0
 11 12  1  0
 12 13  1  0
 13 14  1  0
 14 15  1  0
 15 16  2  0
 15 17  1  0
 17 18  1  0
 18 19  1  0
  9 20  1  0
 20 21  1  0
 21 22  1  0
 11  6  1  0
 18 13  2  0
 22  8  1  0
M  CHG  3   5  -1  17  -1  19  -1
M  END
>  <UniqueID>  (183) 
36

>  <SMILES>  (183) 
CS(=O)(=O)[N-]c1cc2c(cc1Sc1sc(=O)[n-]c1[O-])CCC2

>  <Energy>  (183) 
67.69022592975958

>  <Genealogy>  (183) 
CS(=O)(=O)[N-]c1cc2c(cc1Sc1sc(=O)[n-]c1[O-])CCC2 (protonated)
CS(=O)(=O)[N-]c1cc2c(cc1Sc1sc(=O)[n-]c1[O-])CCC2 (3D coordinates assigned)
CS(=O)(=O)[N-]c1cc2c(cc1Sc1sc(=O)[n-]c1[O-])CCC2 (nonaromatic ring conformer: 67.69022592975958 kcal/mol)

>  <smiles>  (183) 
CS(=O)(=O)Nc1cc2c(cc1Sc1sc(=O)[nH]c1O)CCC2

>  <score_type>  (183) 
oracle

>  <origin>  (183) 
adg

>  <m_score__min__energy>  (183) 
-15.09

>  <m_primary>  (183) 
energy

$$$$
76:0
     RDKit          3D

 30 32  0  0  0  0  0  0  0  0999 V2000
   55.1080   29.3480   44.5080 N   0  0  0  0  0  0  0  0  0  0  0  0
   56.7950   29.1680   44.7880 S   0  0  0  0  0  0  0  0  0  0  0  0
   57.4050   28.3690   43.6760 O   0  0  0  0  0  0  0  0  0  0  0  0
   57.0140   28.4480   46.0850 O   0  0  0  0  0  0  0  0  0  0  0  0
   57.5510   30.7480   44.8420 C   0  0  0  0  0  0  0  0  0  0  0  0
   57.3530   31.6620   43.7930 C   0  0  0  0  0  0  0  0  0  0  0  0
   57.9390   32.9160   43.8400 C   0  0  0  0  0  0  0  0  0  0  0  0
   58.7370   33.2800   44.9290 C   0  0  0  0  0  0  0  0  0  0  0  0
   58.9260   32.3920   46.0000 C   0  0  0  0  0  0  0  0  0  0  0  0
   59.8220   32.7430   47.1250 C   0  0  0  0  0  0  0  0  0  0  0  0
   59.3980   33.4850   48.0380 O   0  0  0  0  0  0  0  0  0  0  0  0
   61.1550   32.2350   47.2270 N   0  0  0  0  0  0  0  0  0  0  0  0
   61.5920   31.1740   48.1310 C   0  0  0  0  0  0  0  0  0  0  0  0
   60.8510   29.9070   47.8230 C   0  0  0  0  0  0  0  0  0  0  0  0
   60.7630   29.4340   46.5100 C   0  0  0  0  0  0  0  0  0  0  0  0
   60.0860   28.2420   46.2330 C   0  0  0  0  0  0  0  0  0  0  0  0
   59.4870   27.5050   47.2660 C   0  0  0  0  0  0  0  0  0  0  0  0
   58.7490   26.2560   46.9530 C   0  0  0  0  0  0  0  0  0  0  0  0
   57.5200   26.1840   47.2210 O   0  0  0  0  0  0  0  0  0  0  0  0
   59.3870   25.1250   46.3430 N   0  0  0  0  0  0  0  0  0  0  0  0
   58.7670   24.1910   45.4480 C   0  0  0  0  0  0  0  0  0  0  0  0
   59.1860   22.8550   45.4940 C   0  0  0  0  0  0  0  0  0  0  0  0
   58.5490   21.8850   44.7150 C   0  0  0  0  0  0  0  0  0  0  0  0
   57.4990   22.2430   43.8740 C   0  0  0  0  0  0  0  0  0  0  0  0
   57.1020   23.5810   43.7820 C   0  0  0  0  0  0  0  0  0  0  0  0
   57.7430   24.5700   44.5470 C   0  0  0  0  0  0  0  0  0  0  0  0
   57.3700   25.9420   44.3650 N   0  0  0  0  0  0  0  0  0  0  0  0
   59.6220   27.9600   48.5880 C   0  0  0  0  0  0  0  0  0  0  0  0
   60.2880   29.1560   48.8640 C   0  0  0  0  0  0  0  0  0  0  0  0
   58.3390   31.1170   45.9420 C   0  0  0  0  0  0  0  0  0  0  0  0
  1  2  1  0
  2  3  2  0
  2  4  2  0
  2  5  1  0
  5  6  2  0
  6  7  1  0
  7  8  2  0
  8  9  1  0
  9 10  1  0
 10 11  2  0
 10 12  1  0
 12 13  1  0
 13 14  1  0
 14 15  2  0
 15 16  1  0
 16 17  2  0
 17 18  1  0
 18 19  2  0
 18 20  1  0
 20 21  1  0
 21 22  2  0
 22 23  1  0
 23 24  2  0
 24 25  1  0
 25 26  2  0
 26 27  1  0
 17 28  1  0
 28 29  2  0
  9 30  2  0
 30  5  1  0
 29 14  1  0
 26 21  1  0
M  CHG  3   1  -1  12  -1  20  -1
M  END
>  <UniqueID>  (184) 
69

>  <SMILES>  (184) 
[NH-]S(=O)(=O)c1cccc(C(=O)[N-]Cc2ccc(C(=O)[N-]c3ccccc3N)cc2)c1

>  <Energy>  (184) 
63.103892164559575

>  <Genealogy>  (184) 
[NH-]S(=O)(=O)c1cccc(C(=O)[N-]Cc2ccc(C(=O)[N-]c3ccccc3N)cc2)c1 (protonated)
[NH-]S(=O)(=O)c1cccc(C(=O)[N-]Cc2ccc(C(=O)[N-]c3ccccc3N)cc2)c1 (3D coordinates assigned)
[NH-]S(=O)(=O)c1cccc(C(=O)[N-]Cc2ccc(C(=O)[N-]c3ccccc3N)cc2)c1 (optimized conformer: 63.103892164559575 kcal/mol)

>  <smiles>  (184) 
Nc1ccccc1NC(=O)c1ccc(CNC(=O)c2cccc(S(N)(=O)=O)c2)cc1

>  <score_type>  (184) 
oracle

>  <origin>  (184) 
adg

>  <m_score__min__energy>  (184) 
-14.68

>  <m_primary>  (184) 
energy

$$$$
84:0
     RDKit          3D

 25 26  0  0  0  0  0  0  0  0999 V2000
   61.9890   33.8330   47.6260 C   0  0  0  0  0  0  0  0  0  0  0  0
   60.7350   34.3690   47.2210 O   0  0  0  0  0  0  0  0  0  0  0  0
   59.7190   33.6310   46.5990 C   0  0  0  0  0  0  0  0  0  0  0  0
   58.5760   34.3110   46.1600 C   0  0  0  0  0  0  0  0  0  0  0  0
   57.5330   33.6180   45.5390 C   0  0  0  0  0  0  0  0  0  0  0  0
   57.6270   32.2320   45.3340 C   0  0  0  0  0  0  0  0  0  0  0  0
   56.5620   31.4880   44.7290 N   0  0  0  0  0  0  0  0  0  0  0  0
   56.6490   30.6990   43.5350 C   0  0  0  0  0  0  0  0  0  0  0  0
   56.6680   31.2840   42.4180 O   0  0  0  0  0  0  0  0  0  0  0  0
   56.6930   29.1990   43.5810 C   0  0  0  0  0  0  0  0  0  0  0  0
   56.2760   28.7340   44.9020 N   0  0  0  0  0  0  0  0  0  0  0  0
   57.6630   28.1950   45.8000 S   0  0  0  0  0  0  0  0  0  0  0  0
   57.8170   29.0630   47.0160 O   0  0  0  0  0  0  0  0  0  0  0  0
   58.8980   28.3580   44.9600 O   0  0  0  0  0  0  0  0  0  0  0  0
   57.4120   26.5150   46.3330 C   0  0  0  0  0  0  0  0  0  0  0  0
   58.4670   25.6440   46.7050 C   0  0  0  0  0  0  0  0  0  0  0  0
   59.9100   26.0600   46.6950 C   0  0  0  0  0  0  0  0  0  0  0  0
   58.1780   24.3700   47.0860 N   0  0  0  0  0  0  0  0  0  0  0  0
   56.9030   23.9050   47.1050 C   0  0  0  0  0  0  0  0  0  0  0  0
   56.6710   22.7190   47.4580 O   0  0  0  0  0  0  0  0  0  0  0  0
   55.8800   24.7130   46.7370 N   0  0  0  0  0  0  0  0  0  0  0  0
   56.1030   25.9960   46.3500 C   0  0  0  0  0  0  0  0  0  0  0  0
   55.1220   26.7100   46.0050 O   0  0  0  0  0  0  0  0  0  0  0  0
   58.7640   31.5490   45.7840 C   0  0  0  0  0  0  0  0  0  0  0  0
   59.8090   32.2380   46.4050 C   0  0  0  0  0  0  0  0  0  0  0  0
  1  2  1  0
  2  3  1  0
  3  4  2  0
  4  5  1  0
  5  6  2  0
  6  7  1  0
  7  8  1  0
  8  9  2  0
  8 10  1  0
 10 11  1  0
 11 12  1  0
 12 13  2  0
 12 14  2  0
 12 15  1  0
 15 16  2  0
 16 17  1  0
 16 18  1  0
 18 19  1  0
 19 20  2  0
 19 21  1  0
 21 22  1  0
 22 23  2  0
  6 24  1  0
 24 25  2  0
 25  3  1  0
 22 15  1  0
M  CHG  4   7  -1  11  -1  18  -1  21  -1
M  END
>  <UniqueID>  (185) 
77

>  <SMILES>  (185) 
COc1ccc([N-]C(=O)C[N-]S(=O)(=O)c2c(C)[n-]c(=O)[n-]c2=O)cc1

>  <Energy>  (185) 
42.994198661231835

>  <Genealogy>  (185) 
COc1ccc([N-]C(=O)C[N-]S(=O)(=O)c2c(C)[n-]c(=O)[n-]c2=O)cc1 (protonated)
COc1ccc([N-]C(=O)C[N-]S(=O)(=O)c2c(C)[n-]c(=O)[n-]c2=O)cc1 (3D coordinates assigned)
COc1ccc([N-]C(=O)C[N-]S(=O)(=O)c2c(C)[n-]c(=O)[n-]c2=O)cc1 (optimized conformer: 42.994198661231835 kcal/mol)

>  <smiles>  (185) 
COc1ccc(NC(=O)CNS(=O)(=O)c2c(C)[nH]c(=O)[nH]c2=O)cc1

>  <score_type>  (185) 
oracle

>  <origin>  (185) 
adg

>  <m_score__min__energy>  (185) 
-14.52

>  <m_primary>  (185) 
energy

$$$$
91:0
     RDKit          3D

 32 35  0  0  0  0  0  0  0  0999 V2000
   59.9180   28.8800   44.4110 O   0  0  0  0  0  0  0  0  0  0  0  0
   58.6240   28.4980   44.7560 C   0  0  0  0  0  0  0  0  0  0  0  0
   58.2770   27.3640   45.4710 C   0  0  0  0  0  0  0  0  0  0  0  0
   56.9120   27.3910   45.6090 C   0  0  0  0  0  0  0  0  0  0  0  0
   56.4750   28.5370   44.9740 C   0  0  0  0  0  0  0  0  0  0  0  0
   55.1520   28.9590   44.8990 O   0  0  0  0  0  0  0  0  0  0  0  0
   57.5190   29.2060   44.4390 N   0  0  0  0  0  0  0  0  0  0  0  0
   57.4730   30.4950   43.7510 C   0  0  0  0  0  0  0  0  0  0  0  0
   57.9360   31.6110   44.6930 C   0  0  0  0  0  0  0  0  0  0  0  0
   58.1190   32.9100   43.9520 C   0  0  0  0  0  0  0  0  0  0  0  0
   57.8430   32.9650   42.7240 O   0  0  0  0  0  0  0  0  0  0  0  0
   58.5600   34.1030   44.6140 N   0  0  0  0  0  0  0  0  0  0  0  0
   59.2410   34.1760   45.8750 C   0  0  0  0  0  0  0  0  0  0  0  0
   58.5770   34.5780   47.0480 C   0  0  0  0  0  0  0  0  0  0  0  0
   59.2590   34.5990   48.2680 C   0  0  0  0  0  0  0  0  0  0  0  0
   60.5970   34.2020   48.3300 C   0  0  0  0  0  0  0  0  0  0  0  0
   61.2580   33.7720   47.1730 C   0  0  0  0  0  0  0  0  0  0  0  0
   62.9340   33.2390   47.2710 S   0  0  0  0  0  0  0  0  0  0  0  0
   63.7060   33.6760   46.0580 O   0  0  0  0  0  0  0  0  0  0  0  0
   63.5650   33.8400   48.4950 O   0  0  0  0  0  0  0  0  0  0  0  0
   62.9950   31.5090   47.3890 N   0  0  0  0  0  0  0  0  0  0  0  0
   61.9490   30.7420   47.4610 C   0  0  0  0  0  0  0  0  0  0  0  0
   61.4470   30.0920   46.3960 N   0  0  0  0  0  0  0  0  0  0  0  0
   60.4120   29.4290   46.8240 O   0  0  0  0  0  0  0  0  0  0  0  0
   60.2270   29.6180   48.1120 C   0  0  0  0  0  0  0  0  0  0  0  0
   59.1100   29.0250   48.9030 C   0  0  0  0  0  0  0  0  0  0  0  0
   61.1970   30.4730   48.5900 C   0  0  0  0  0  0  0  0  0  0  0  0
   60.5740   33.7550   45.9480 C   0  0  0  0  0  0  0  0  0  0  0  0
   56.1220   26.3600   46.3460 C   0  0  0  0  0  0  0  0  0  0  0  0
   57.0080   25.2600   46.8950 C   0  0  0  0  0  0  0  0  0  0  0  0
   58.3530   25.2330   46.7600 C   0  0  0  0  0  0  0  0  0  0  0  0
   59.1560   26.2990   46.0440 C   0  0  0  0  0  0  0  0  0  0  0  0
  1  2  1  0
  2  3  2  0
  3  4  1  0
  4  5  2  0
  5  6  1  0
  5  7  1  0
  7  8  1  0
  8  9  1  0
  9 10  1  0
 10 11  2  0
 10 12  1  0
 12 13  1  0
 13 14  2  0
 14 15  1  0
 15 16  2  0
 16 17  1  0
 17 18  1  0
 18 19  2  0
 18 20  2  0
 18 21  1  0
 21 22  2  0
 22 23  1  0
 23 24  1  0
 24 25  1  0
 25 26  1  0
 25 27  2  0
 17 28  2  0
  4 29  1  0
 29 30  1  0
 30 31  2  0
 31 32  1  0
  7  2  1  0
 28 13  1  0
 32  3  1  0
 27 22  1  0
M  CHG  3   6  -1  12  -1  23  -1
M  END
>  <UniqueID>  (186) 
84

>  <SMILES>  (186) 
Cc1c/c(=N\S(=O)(=O)c2cccc([N-]C(=O)CCn3c([O-])c4c(c3O)CC=CC4)c2)[n-]o1

>  <Energy>  (186) 
120.67360763274786

>  <Genealogy>  (186) 
Cc1cc(=NS(=O)(=O)c2cccc([N-]C(=O)CCn3c([O-])c4c(c3O)CC=CC4)c2)[n-]o1 (protonated)
Cc1c/c(=N\S(=O)(=O)c2cccc([N-]C(=O)CCn3c([O-])c4c(c3O)CC=CC4)c2)[n-]o1 (cis-trans isomerization)
Cc1c/c(=N\S(=O)(=O)c2cccc([N-]C(=O)CCn3c([O-])c4c(c3O)CC=CC4)c2)[n-]o1 (3D coordinates assigned)
Cc1c/c(=N\S(=O)(=O)c2cccc([N-]C(=O)CCn3c([O-])c4c(c3O)CC=CC4)c2)[n-]o1 (nonaromatic ring conformer: 120.67360763274786 kcal/mol)

>  <smiles>  (186) 
Cc1cc(=NS(=O)(=O)c2cccc(NC(=O)CCn3c(O)c4c(c3O)CC=CC4)c2)[nH]o1

>  <score_type>  (186) 
oracle

>  <origin>  (186) 
adg

>  <m_score__min__energy>  (186) 
-15.06

>  <m_primary>  (186) 
energy

$$$$
93:0
     RDKit          3D

 28 30  0  0  0  0  0  0  0  0999 V2000
   60.4910   30.4420   46.5390 C   0  0  0  0  0  0  0  0  0  0  0  0
   59.2200   30.8080   46.2310 N   0  0  0  0  0  0  0  0  0  0  0  0
   58.4420   30.0950   45.3690 C   0  0  0  0  0  0  0  0  0  0  0  0
   57.0740   30.5870   45.0770 C   0  0  0  0  0  0  0  0  0  0  0  0
   56.1440   29.7630   44.8710 O   0  0  0  0  0  0  0  0  0  0  0  0
   56.7900   31.9870   44.9200 N   0  0  0  0  0  0  0  0  0  0  0  0
   57.5930   32.9730   45.2020 C   0  0  0  0  0  0  0  0  0  0  0  0
   58.4090   33.5160   44.2530 N   0  0  0  0  0  0  0  0  0  0  0  0
   59.2630   34.5360   44.5340 C   0  0  0  0  0  0  0  0  0  0  0  0
   59.3270   35.0540   45.8290 C   0  0  0  0  0  0  0  0  0  0  0  0
   58.5140   34.5090   46.8230 C   0  0  0  0  0  0  0  0  0  0  0  0
   57.6420   33.4620   46.5130 C   0  0  0  0  0  0  0  0  0  0  0  0
   58.9630   28.9260   44.7710 C   0  0  0  0  0  0  0  0  0  0  0  0
   58.1610   28.1670   43.8520 N   0  0  0  0  0  0  0  0  0  0  0  0
   57.8150   26.7810   43.9610 C   0  0  0  0  0  0  0  0  0  0  0  0
   57.7810   26.0410   42.9420 O   0  0  0  0  0  0  0  0  0  0  0  0
   57.5060   26.2040   45.3050 C   0  0  0  0  0  0  0  0  0  0  0  0
   56.4170   25.1690   45.1860 C   0  0  0  0  0  0  0  0  0  0  0  0
   56.6970   23.9240   44.5970 C   0  0  0  0  0  0  0  0  0  0  0  0
   55.6860   22.9540   44.4550 C   0  0  0  0  0  0  0  0  0  0  0  0
   55.9240   21.6950   43.8840 O   0  0  0  0  0  0  0  0  0  0  0  0
   57.1730   21.2830   43.3370 C   0  0  0  0  0  0  0  0  0  0  0  0
   54.3910   23.2480   44.8970 C   0  0  0  0  0  0  0  0  0  0  0  0
   54.1010   24.4870   45.4710 C   0  0  0  0  0  0  0  0  0  0  0  0
   55.1050   25.4500   45.6150 C   0  0  0  0  0  0  0  0  0  0  0  0
   54.7920   26.6810   46.1830 O   0  0  0  0  0  0  0  0  0  0  0  0
   60.2880   28.5550   45.0610 C   0  0  0  0  0  0  0  0  0  0  0  0
   61.0490   29.3090   45.9530 C   0  0  0  0  0  0  0  0  0  0  0  0
  1  2  2  0
  2  3  1  0
  3  4  1  0
  4  5  2  0
  4  6  1  0
  6  7  2  0
  7  8  1  0
  8  9  1  0
  9 10  2  0
 10 11  1  0
 11 12  2  0
  3 13  2  0
 13 14  1  0
 14 15  1  0
 15 16  2  0
 15 17  1  0
 17 18  1  0
 18 19  2  0
 19 20  1  0
 20 21  1  0
 21 22  1  0
 20 23  2  0
 23 24  1  0
 24 25  2  0
 25 26  1  0
 13 27  1  0
 27 28  2  0
 28  1  1  0
 12  7  1  0
 25 18  1  0
M  CHG  3   8  -1  14  -1  26  -1
M  END
>  <UniqueID>  (187) 
88

>  <SMILES>  (187) 
COc1ccc([O-])c(CC(=O)[N-]c2cccnc2C(=O)/N=c2/cccc[n-]2)c1

>  <Energy>  (187) 
57.177849717367565

>  <Genealogy>  (187) 
COc1ccc([O-])c(CC(=O)[N-]c2cccnc2C(=O)N=c2cccc[n-]2)c1 (protonated)
COc1ccc([O-])c(CC(=O)[N-]c2cccnc2C(=O)/N=c2/cccc[n-]2)c1 (cis-trans isomerization)
COc1ccc([O-])c(CC(=O)[N-]c2cccnc2C(=O)/N=c2/cccc[n-]2)c1 (3D coordinates assigned)
COc1ccc([O-])c(CC(=O)[N-]c2cccnc2C(=O)/N=c2/cccc[n-]2)c1 (optimized conformer: 57.177849717367565 kcal/mol)

>  <smiles>  (187) 
COc1ccc(O)c(CC(=O)Nc2cccnc2C(=O)N=c2cccc[nH]2)c1

>  <score_type>  (187) 
oracle

>  <origin>  (187) 
adg

>  <m_score__min__energy>  (187) 
-14.19

>  <m_primary>  (187) 
energy

$$$$
2:0
     RDKit          3D

 27 28  0  0  0  0  0  0  0  0999 V2000
   58.1160   33.0530   43.7410 C   0  0  0  0  0  0  0  0  0  0  0  0
   58.1100   32.8380   45.1980 N   0  0  0  0  0  0  0  0  0  0  0  0
   58.3500   34.1140   45.9040 C   0  0  0  0  0  0  0  0  0  0  0  0
   59.6310   34.0590   46.6970 C   0  0  0  0  0  0  0  0  0  0  0  0
   60.7240   34.2170   46.0920 O   0  0  0  0  0  0  0  0  0  0  0  0
   59.6580   33.8110   48.1120 N   0  0  0  0  0  0  0  0  0  0  0  0
   59.7120   32.5310   48.7560 C   0  0  0  0  0  0  0  0  0  0  0  0
   60.6150   31.5380   48.3460 C   0  0  0  0  0  0  0  0  0  0  0  0
   60.6720   30.3180   49.0230 C   0  0  0  0  0  0  0  0  0  0  0  0
   59.8190   30.0750   50.1030 C   0  0  0  0  0  0  0  0  0  0  0  0
   58.8840   31.0420   50.4940 C   0  0  0  0  0  0  0  0  0  0  0  0
   57.8190   30.7260   51.8610 S   0  0  0  0  0  0  0  0  0  0  0  0
   56.5860   31.9360   51.9280 N   0  0  0  0  0  0  0  0  0  0  0  0
   57.1930   29.3700   51.7010 O   0  0  0  0  0  0  0  0  0  0  0  0
   58.5980   30.7580   53.1460 O   0  0  0  0  0  0  0  0  0  0  0  0
   58.8210   32.2600   49.8020 C   0  0  0  0  0  0  0  0  0  0  0  0
   59.0930   31.8000   45.5840 C   0  0  0  0  0  0  0  0  0  0  0  0
   58.4210   30.4540   45.6130 C   0  0  0  0  0  0  0  0  0  0  0  0
   59.0880   29.3490   46.1560 C   0  0  0  0  0  0  0  0  0  0  0  0
   58.4480   28.1120   46.2540 C   0  0  0  0  0  0  0  0  0  0  0  0
   57.1230   27.9530   45.8130 C   0  0  0  0  0  0  0  0  0  0  0  0
   56.4650   26.6280   45.9510 C   0  0  0  0  0  0  0  0  0  0  0  0
   57.1440   25.5700   46.0130 O   0  0  0  0  0  0  0  0  0  0  0  0
   55.0800   26.5370   46.0120 O   0  0  0  0  0  0  0  0  0  0  0  0
   56.4540   29.0660   45.2550 C   0  0  0  0  0  0  0  0  0  0  0  0
   55.1450   28.9630   44.7940 O   0  0  0  0  0  0  0  0  0  0  0  0
   57.1040   30.3010   45.1570 C   0  0  0  0  0  0  0  0  0  0  0  0
  1  2  1  0
  2  3  1  0
  3  4  1  0
  4  5  2  0
  4  6  1  0
  6  7  1  0
  7  8  2  0
  8  9  1  0
  9 10  2  0
 10 11  1  0
 11 12  1  0
 12 13  1  0
 12 14  2  0
 12 15  2  0
 11 16  2  0
  2 17  1  0
 17 18  1  0
 18 19  2  0
 19 20  1  0
 20 21  2  0
 21 22  1  0
 22 23  2  0
 22 24  1  0
 21 25  1  0
 25 26  1  0
 25 27  2  0
 16  7  1  0
 27 18  1  0
M  CHG  4   6  -1  13  -1  24  -1  26  -1
M  END
>  <UniqueID>  (188) 
3

>  <SMILES>  (188) 
CN(CC(=O)[N-]c1cccc(S([NH-])(=O)=O)c1)Cc1ccc(C(=O)[O-])c([O-])c1

>  <Energy>  (188) 
46.228089595818155

>  <Genealogy>  (188) 
CN(CC(=O)[N-]c1cccc(S([NH-])(=O)=O)c1)Cc1ccc(C(=O)[O-])c([O-])c1 (protonated)
CN(CC(=O)[N-]c1cccc(S([NH-])(=O)=O)c1)Cc1ccc(C(=O)[O-])c([O-])c1 (3D coordinates assigned)
CN(CC(=O)[N-]c1cccc(S([NH-])(=O)=O)c1)Cc1ccc(C(=O)[O-])c([O-])c1 (optimized conformer: 46.228089595818155 kcal/mol)

>  <smiles>  (188) 
CN(CC(=O)Nc1cccc(S(N)(=O)=O)c1)Cc1ccc(C(=O)O)c(O)c1

>  <score_type>  (188) 
oracle

>  <origin>  (188) 
adg

>  <m_score__min__energy>  (188) 
-17.010000000000002

>  <m_primary>  (188) 
energy

$$$$
4:0
     RDKit          3D

 24 26  0  0  0  0  0  0  0  0999 V2000
   55.1730   29.4450   44.8360 N   0  0  0  0  0  0  0  0  0  0  0  0
   56.1860   30.1470   44.1170 C   0  0  0  0  0  0  0  0  0  0  0  0
   56.2110   30.0550   42.8600 O   0  0  0  0  0  0  0  0  0  0  0  0
   57.1960   30.9640   44.8430 C   0  0  0  0  0  0  0  0  0  0  0  0
   56.9880   32.3530   44.9740 C   0  0  0  0  0  0  0  0  0  0  0  0
   57.9100   33.1540   45.6500 C   0  0  0  0  0  0  0  0  0  0  0  0
   59.0600   32.5880   46.1960 C   0  0  0  0  0  0  0  0  0  0  0  0
   59.2880   31.2180   46.0770 C   0  0  0  0  0  0  0  0  0  0  0  0
   58.3550   30.3910   45.4260 C   0  0  0  0  0  0  0  0  0  0  0  0
   58.6380   28.9930   45.2670 N   0  0  0  0  0  0  0  0  0  0  0  0
   58.9300   28.0660   46.3210 C   0  0  0  0  0  0  0  0  0  0  0  0
   60.1270   27.7140   46.4990 O   0  0  0  0  0  0  0  0  0  0  0  0
   57.8330   27.3720   47.0870 C   0  0  0  0  0  0  0  0  0  0  0  0
   57.4250   26.1380   46.4120 N   0  0  0  0  0  0  0  0  0  0  0  0
   56.1990   25.8550   45.9190 C   0  0  0  0  0  0  0  0  0  0  0  0
   55.0950   26.6940   46.0330 O   0  0  0  0  0  0  0  0  0  0  0  0
   56.2040   24.6260   45.2910 C   0  0  0  0  0  0  0  0  0  0  0  0
   57.4790   24.1230   45.4290 C   0  0  0  0  0  0  0  0  0  0  0  0
   58.2100   25.0850   46.0960 C   0  0  0  0  0  0  0  0  0  0  0  0
   59.5630   24.9960   46.4030 O   0  0  0  0  0  0  0  0  0  0  0  0
   57.9410   22.8330   44.8220 C   0  0  0  0  0  0  0  0  0  0  0  0
   56.7310   21.9390   44.4820 C   0  0  0  0  0  0  0  0  0  0  0  0
   55.6100   22.7350   43.7760 C   0  0  0  0  0  0  0  0  0  0  0  0
   55.0710   23.8750   44.6620 C   0  0  0  0  0  0  0  0  0  0  0  0
  1  2  1  0
  2  3  2  0
  2  4  1  0
  4  5  2  0
  5  6  1  0
  6  7  2  0
  7  8  1  0
  8  9  2  0
  9 10  1  0
 10 11  1  0
 11 12  2  0
 11 13  1  0
 13 14  1  0
 14 15  1  0
 15 16  1  0
 15 17  2  0
 17 18  1  0
 18 19  2  0
 19 20  1  0
 18 21  1  0
 21 22  1  0
 22 23  1  0
 23 24  1  0
  9  4  1  0
 19 14  1  0
 24 17  1  0
M  CHG  4   1  -1  10  -1  16  -1  20  -1
M  END
>  <UniqueID>  (189) 
5

>  <SMILES>  (189) 
[NH-]C(=O)c1ccccc1[N-]C(=O)Cn1c([O-])c2c(c1[O-])CCCC2

>  <Energy>  (189) 
76.8803937079817

>  <Genealogy>  (189) 
[NH-]C(=O)c1ccccc1[N-]C(=O)Cn1c([O-])c2c(c1[O-])CCCC2 (protonated)
[NH-]C(=O)c1ccccc1[N-]C(=O)Cn1c([O-])c2c(c1[O-])CCCC2 (3D coordinates assigned)
[NH-]C(=O)c1ccccc1[N-]C(=O)Cn1c([O-])c2c(c1[O-])CCCC2 (nonaromatic ring conformer: 76.8803937079817 kcal/mol)

>  <smiles>  (189) 
NC(=O)c1ccccc1NC(=O)Cn1c(O)c2c(c1O)CCCC2

>  <score_type>  (189) 
oracle

>  <origin>  (189) 
adg

>  <m_score__min__energy>  (189) 
-16.48

>  <m_primary>  (189) 
energy

$$$$
33:0
     RDKit          3D

 33 36  0  0  0  0  0  0  0  0999 V2000
   57.5930   20.8160   49.4880 N   0  0  0  0  0  0  0  0  0  0  0  0
   57.0220   20.7020   47.8590 S   0  0  0  0  0  0  0  0  0  0  0  0
   58.1120   20.1140   47.0060 O   0  0  0  0  0  0  0  0  0  0  0  0
   55.8160   19.8060   47.8130 O   0  0  0  0  0  0  0  0  0  0  0  0
   56.5880   22.3010   47.2660 C   0  0  0  0  0  0  0  0  0  0  0  0
   55.8130   22.4430   46.1090 C   0  0  0  0  0  0  0  0  0  0  0  0
   55.4680   23.7160   45.6440 C   0  0  0  0  0  0  0  0  0  0  0  0
   55.9070   24.8650   46.3290 C   0  0  0  0  0  0  0  0  0  0  0  0
   55.5450   26.1890   45.9030 N   0  0  0  0  0  0  0  0  0  0  0  0
   56.3190   27.2330   45.8620 C   0  0  0  0  0  0  0  0  0  0  0  0
   55.8770   28.3600   45.2480 N   0  0  0  0  0  0  0  0  0  0  0  0
   56.6500   29.4750   45.2160 C   0  0  0  0  0  0  0  0  0  0  0  0
   56.2050   30.5430   44.6240 N   0  0  0  0  0  0  0  0  0  0  0  0
   56.9470   31.3440   43.6480 C   0  0  0  0  0  0  0  0  0  0  0  0
   58.4130   31.5050   44.0670 C   0  0  0  0  0  0  0  0  0  0  0  0
   58.5910   32.5740   45.1110 C   0  0  0  0  0  0  0  0  0  0  0  0
   58.1640   32.3520   46.4310 C   0  0  0  0  0  0  0  0  0  0  0  0
   58.3120   33.3510   47.3970 C   0  0  0  0  0  0  0  0  0  0  0  0
   58.8620   34.5870   47.0490 C   0  0  0  0  0  0  0  0  0  0  0  0
   59.2800   34.8210   45.7360 C   0  0  0  0  0  0  0  0  0  0  0  0
   59.1510   33.8170   44.7710 C   0  0  0  0  0  0  0  0  0  0  0  0
   57.8750   29.4580   45.8070 N   0  0  0  0  0  0  0  0  0  0  0  0
   58.3290   28.3360   46.4230 C   0  0  0  0  0  0  0  0  0  0  0  0
   59.4870   28.3080   47.0170 N   0  0  0  0  0  0  0  0  0  0  0  0
   60.2090   29.4240   47.5650 C   0  0  0  0  0  0  0  0  0  0  0  0
   60.1240   29.7790   48.9260 C   0  0  0  0  0  0  0  0  0  0  0  0
   60.8260   30.8880   49.4080 C   0  0  0  0  0  0  0  0  0  0  0  0
   61.5950   31.6630   48.5380 C   0  0  0  0  0  0  0  0  0  0  0  0
   61.6560   31.3370   47.1810 C   0  0  0  0  0  0  0  0  0  0  0  0
   60.9580   30.2270   46.6950 C   0  0  0  0  0  0  0  0  0  0  0  0
   57.5410   27.2310   46.4590 N   0  0  0  0  0  0  0  0  0  0  0  0
   56.6450   24.7140   47.5090 C   0  0  0  0  0  0  0  0  0  0  0  0
   56.9930   23.4420   47.9710 C   0  0  0  0  0  0  0  0  0  0  0  0
  1  2  1  0
  2  3  2  0
  2  4  2  0
  2  5  1  0
  5  6  2  0
  6  7  1  0
  7  8  2  0
  8  9  1  0
  9 10  2  3
 10 11  1  0
 11 12  1  0
 12 13  2  3
 13 14  1  0
 14 15  1  0
 15 16  1  0
 16 17  2  0
 17 18  1  0
 18 19  2  0
 19 20  1  0
 20 21  2  0
 12 22  1  0
 22 23  1  0
 23 24  2  0
 24 25  1  0
 25 26  2  0
 26 27  1  0
 27 28  2  0
 28 29  1  0
 29 30  2  0
 23 31  1  0
  8 32  1  0
 32 33  2  0
 33  5  1  0
 31 10  1  0
 21 16  1  0
 30 25  1  0
M  CHG  4   1  -1  11  -1  22  -1  31  -1
M  END
>  <UniqueID>  (190) 
32

>  <SMILES>  (190) 
[NH-]S(=O)(=O)c1ccc(N=c2[n-]c(=NCCc3ccccc3)[n-]/c(=N\c3ccccc3)[n-]2)cc1

>  <Energy>  (190) 
62.32777503903389

>  <Genealogy>  (190) 
[NH-]S(=O)(=O)c1ccc(N=c2[n-]c(=NCCc3ccccc3)[n-]c(=Nc3ccccc3)[n-]2)cc1 (protonated)
[NH-]S(=O)(=O)c1ccc(N=c2[n-]c(=NCCc3ccccc3)[n-]/c(=N\c3ccccc3)[n-]2)cc1 (cis-trans isomerization)
[NH-]S(=O)(=O)c1ccc(N=c2[n-]c(=NCCc3ccccc3)[n-]/c(=N\c3ccccc3)[n-]2)cc1 (3D coordinates assigned)
[NH-]S(=O)(=O)c1ccc(N=c2[n-]c(=NCCc3ccccc3)[n-]/c(=N\c3ccccc3)[n-]2)cc1 (optimized conformer: 62.32777503903389 kcal/mol)

>  <smiles>  (190) 
NS(=O)(=O)c1ccc(N=c2[nH]c(=NCCc3ccccc3)[nH]c(=Nc3ccccc3)[nH]2)cc1

>  <score_type>  (190) 
oracle

>  <origin>  (190) 
adg

>  <m_score__min__energy>  (190) 
-14.470000000000001

>  <m_primary>  (190) 
energy

$$$$
91:0
     RDKit          3D

 28 32  0  0  0  0  0  0  0  0999 V2000
   58.9900   28.0380   47.9510 C   0  0  0  0  0  0  0  0  0  0  0  0
   60.0990   28.6710   48.1730 N   0  0  0  0  0  0  0  0  0  0  0  0
   60.3860   29.4450   47.0420 N   0  0  0  0  0  0  0  0  0  0  0  0
   60.8680   30.7080   47.0220 C   0  0  0  0  0  0  0  0  0  0  0  0
   61.8850   31.1850   47.6930 N   0  0  0  0  0  0  0  0  0  0  0  0
   62.9950   32.1220   47.4380 C   0  0  0  0  0  0  0  0  0  0  0  0
   63.0680   33.4120   48.2320 C   0  0  0  0  0  0  0  0  0  0  0  0
   62.6110   33.4260   46.7690 C   0  0  0  0  0  0  0  0  0  0  0  0
   60.1920   31.4730   46.1400 N   0  0  0  0  0  0  0  0  0  0  0  0
   59.2770   30.6150   45.6390 C   0  0  0  0  0  0  0  0  0  0  0  0
   58.3320   31.0310   44.8430 N   0  0  0  0  0  0  0  0  0  0  0  0
   57.4520   32.1780   45.0030 C   0  0  0  0  0  0  0  0  0  0  0  0
   58.2300   33.3080   45.6110 C   0  0  0  0  0  0  0  0  0  0  0  0
   58.9190   34.2170   44.7910 C   0  0  0  0  0  0  0  0  0  0  0  0
   59.6150   35.2900   45.3560 C   0  0  0  0  0  0  0  0  0  0  0  0
   59.6200   35.4700   46.7420 C   0  0  0  0  0  0  0  0  0  0  0  0
   58.9230   34.5800   47.5640 C   0  0  0  0  0  0  0  0  0  0  0  0
   58.2250   33.5060   47.0030 C   0  0  0  0  0  0  0  0  0  0  0  0
   59.4340   29.3590   46.1390 N   0  0  0  0  0  0  0  0  0  0  0  0
   58.4950   28.3930   46.6130 C   0  0  0  0  0  0  0  0  0  0  0  0
   57.7810   27.5710   45.8330 C   0  0  0  0  0  0  0  0  0  0  0  0
   57.2200   26.2890   46.2920 C   0  0  0  0  0  0  0  0  0  0  0  0
   57.9830   25.2250   46.6190 N   0  0  0  0  0  0  0  0  0  0  0  0
   57.0780   24.2600   46.9020 C   0  0  0  0  0  0  0  0  0  0  0  0
   57.4070   23.1000   47.2610 O   0  0  0  0  0  0  0  0  0  0  0  0
   55.7980   24.6490   46.7550 N   0  0  0  0  0  0  0  0  0  0  0  0
   55.8890   25.9250   46.3550 C   0  0  0  0  0  0  0  0  0  0  0  0
   54.7960   26.7110   46.0110 O   0  0  0  0  0  0  0  0  0  0  0  0
  1  2  2  0
  2  3  1  0
  3  4  1  0
  4  5  2  0
  5  6  1  0
  6  7  1  0
  7  8  1  0
  4  9  1  0
  9 10  1  0
 10 11  2  3
 11 12  1  0
 12 13  1  0
 13 14  2  0
 14 15  1  0
 15 16  2  0
 16 17  1  0
 17 18  2  0
 10 19  1  0
 19 20  1  0
 20 21  2  0
 21 22  1  0
 22 23  1  0
 23 24  1  0
 24 25  2  0
 24 26  1  0
 26 27  1  0
 27 28  1  0
 20  1  1  0
 27 22  2  0
 19  3  1  0
  8  6  1  0
 18 13  1  0
M  CHG  3   9  -1  23  -1  28  -1
M  END
>  <UniqueID>  (191) 
88

>  <SMILES>  (191) 
O=c1[n-]c(/C=C2\C=Nn3/c(=N\C4CC4)[n-]c(=NCc4ccccc4)n32)c([O-])[nH]1

>  <Energy>  (191) 
468.0536903676076

>  <Genealogy>  (191) 
O=c1[n-]c(C=C2C=Nn3c(=NC4CC4)[n-]c(=NCc4ccccc4)n32)c([O-])[nH]1 (protonated)
O=c1[n-]c(/C=C2\C=Nn3/c(=N\C4CC4)[n-]c(=NCc4ccccc4)n32)c([O-])[nH]1 (cis-trans isomerization)
O=c1[n-]c(/C=C2\C=Nn3/c(=N\C4CC4)[n-]c(=NCc4ccccc4)n32)c([O-])[nH]1 (3D coordinates assigned)
O=c1[n-]c(/C=C2\C=Nn3/c(=N\C4CC4)[n-]c(=NCc4ccccc4)n32)c([O-])[nH]1 (nonaromatic ring conformer: 468.0536903676076 kcal/mol)

>  <smiles>  (191) 
O=c1[nH]c(O)c(C=C2C=Nn3c(=NC4CC4)[nH]c(=NCc4ccccc4)n32)[nH]1

>  <score_type>  (191) 
oracle

>  <origin>  (191) 
adg

>  <m_score__min__energy>  (191) 
-14.74

>  <m_primary>  (191) 
energy

$$$$
94:0
     RDKit          3D

 24 25  0  0  0  0  0  0  0  0999 V2000
   61.8130   31.2120   47.6380 C   0  0  0  0  0  0  0  0  0  0  0  0
   60.0800   31.0430   48.0020 S   0  0  0  0  0  0  0  0  0  0  0  0
   59.7310   31.9330   49.1620 O   0  0  0  0  0  0  0  0  0  0  0  0
   59.7750   29.6180   48.3740 O   0  0  0  0  0  0  0  0  0  0  0  0
   59.1420   31.4930   46.5830 C   0  0  0  0  0  0  0  0  0  0  0  0
   59.2620   32.7720   46.0200 C   0  0  0  0  0  0  0  0  0  0  0  0
   58.5350   33.1040   44.8740 C   0  0  0  0  0  0  0  0  0  0  0  0
   57.6910   32.1620   44.2800 C   0  0  0  0  0  0  0  0  0  0  0  0
   57.5670   30.8820   44.8330 C   0  0  0  0  0  0  0  0  0  0  0  0
   56.5470   29.6860   44.0380 S   0  0  0  0  0  0  0  0  0  0  0  0
   55.4310   30.3460   43.2770 O   0  0  0  0  0  0  0  0  0  0  0  0
   57.3880   28.8960   43.0740 O   0  0  0  0  0  0  0  0  0  0  0  0
   55.8790   28.6140   45.2250 N   0  0  0  0  0  0  0  0  0  0  0  0
   56.5500   27.4750   45.7830 C   0  0  0  0  0  0  0  0  0  0  0  0
   57.9400   27.4670   46.0080 C   0  0  0  0  0  0  0  0  0  0  0  0
   58.5780   26.3250   46.5260 C   0  0  0  0  0  0  0  0  0  0  0  0
   60.0460   26.3340   46.7460 C   0  0  0  0  0  0  0  0  0  0  0  0
   60.6420   27.1360   47.7690 N   0  0  0  0  0  0  0  0  0  0  0  0
   60.7890   25.6110   46.0290 O   0  0  0  0  0  0  0  0  0  0  0  0
   57.8020   25.1990   46.8490 C   0  0  0  0  0  0  0  0  0  0  0  0
   56.4210   25.2100   46.6420 C   0  0  0  0  0  0  0  0  0  0  0  0
   55.7960   26.3400   46.1110 C   0  0  0  0  0  0  0  0  0  0  0  0
   54.4210   26.3310   45.9060 O   0  0  0  0  0  0  0  0  0  0  0  0
   58.2900   30.5520   45.9890 C   0  0  0  0  0  0  0  0  0  0  0  0
  1  2  1  0
  2  3  2  0
  2  4  2  0
  2  5  1  0
  5  6  2  0
  6  7  1  0
  7  8  2  0
  8  9  1  0
  9 10  1  0
 10 11  2  0
 10 12  2  0
 10 13  1  0
 13 14  1  0
 14 15  2  0
 15 16  1  0
 16 17  1  0
 17 18  1  0
 17 19  2  0
 16 20  2  0
 20 21  1  0
 21 22  2  0
 22 23  1  0
  9 24  2  0
 24  5  1  0
 22 14  1  0
M  CHG  2  13  -1  23  -1
M  END
>  <UniqueID>  (192) 
88

>  <SMILES>  (192) 
CS(=O)(=O)c1cccc(S(=O)(=O)[N-]c2cc(C(N)=O)ccc2[O-])c1

>  <Energy>  (192) 
37.64601591119037

>  <Genealogy>  (192) 
CS(=O)(=O)c1cccc(S(=O)(=O)[N-]c2cc(C(N)=O)ccc2[O-])c1 (protonated)
CS(=O)(=O)c1cccc(S(=O)(=O)[N-]c2cc(C(N)=O)ccc2[O-])c1 (3D coordinates assigned)
CS(=O)(=O)c1cccc(S(=O)(=O)[N-]c2cc(C(N)=O)ccc2[O-])c1 (optimized conformer: 37.64601591119037 kcal/mol)

>  <smiles>  (192) 
CS(=O)(=O)c1cccc(S(=O)(=O)Nc2cc(C(N)=O)ccc2O)c1

>  <score_type>  (192) 
oracle

>  <origin>  (192) 
adg

>  <m_score__min__energy>  (192) 
-14.369999999999999

>  <m_primary>  (192) 
energy

$$$$
1:0
     RDKit          3D

 22 23  0  0  0  0  0  0  0  0999 V2000
   55.2380   29.3270   44.8800 N   0  0  0  0  0  0  0  0  0  0  0  0
   56.8830   29.8630   44.8460 S   0  0  0  0  0  0  0  0  0  0  0  0
   57.4490   29.6210   43.4750 O   0  0  0  0  0  0  0  0  0  0  0  0
   56.9400   31.3330   45.1520 O   0  0  0  0  0  0  0  0  0  0  0  0
   57.8470   28.9550   46.0440 C   0  0  0  0  0  0  0  0  0  0  0  0
   58.4090   29.8880   47.1140 C   0  0  0  0  0  0  0  0  0  0  0  0
   58.7470   29.1190   48.3050 N   0  0  0  0  0  0  0  0  0  0  0  0
   59.3310   29.6690   49.4920 C   0  0  0  0  0  0  0  0  0  0  0  0
   59.9510   28.9020   50.2770 O   0  0  0  0  0  0  0  0  0  0  0  0
   59.1940   31.1220   49.8510 C   0  0  0  0  0  0  0  0  0  0  0  0
   58.0700   31.3120   50.8170 C   0  0  0  0  0  0  0  0  0  0  0  0
   57.0000   30.4890   50.8910 N   0  0  0  0  0  0  0  0  0  0  0  0
   56.1470   30.8520   51.8870 C   0  0  0  0  0  0  0  0  0  0  0  0
   54.9140   30.1440   52.0810 N   0  0  0  0  0  0  0  0  0  0  0  0
   53.7280   30.6560   52.2450 C   0  0  0  0  0  0  0  0  0  0  0  0
   53.1650   31.4620   51.3190 N   0  0  0  0  0  0  0  0  0  0  0  0
   51.9080   31.8330   51.6800 C   0  0  0  0  0  0  0  0  0  0  0  0
   51.1350   32.6650   50.8820 O   0  0  0  0  0  0  0  0  0  0  0  0
   51.4510   31.3220   52.8910 C   0  0  0  0  0  0  0  0  0  0  0  0
   52.6740   30.3620   53.5330 S   0  0  0  0  0  0  0  0  0  0  0  0
   56.5240   31.9930   52.6020 C   0  0  0  0  0  0  0  0  0  0  0  0
   57.9930   32.5260   51.9780 S   0  0  0  0  0  0  0  0  0  0  0  0
  1  2  1  0
  2  3  2  0
  2  4  2  0
  2  5  1  0
  5  6  1  0
  6  7  1  0
  7  8  1  0
  8  9  2  0
  8 10  1  0
 10 11  1  0
 11 12  2  0
 12 13  1  0
 13 14  1  0
 14 15  2  0
 15 16  1  0
 16 17  1  0
 17 18  1  0
 17 19  2  0
 19 20  1  0
 13 21  2  0
 21 22  1  0
 22 11  1  0
 20 15  1  0
M  CHG  4   1  -1   7  -1  16  -1  18  -1
M  END
>  <UniqueID>  (193) 
2

>  <SMILES>  (193) 
[NH-]S(=O)(=O)CC[N-]C(=O)Cc1nc(/N=c2/[n-]c([O-])cs2)cs1

>  <Energy>  (193) 
85.40235951928557

>  <Genealogy>  (193) 
[NH-]S(=O)(=O)CC[N-]C(=O)Cc1nc(N=c2[n-]c([O-])cs2)cs1 (protonated)
[NH-]S(=O)(=O)CC[N-]C(=O)Cc1nc(/N=c2/[n-]c([O-])cs2)cs1 (cis-trans isomerization)
[NH-]S(=O)(=O)CC[N-]C(=O)Cc1nc(/N=c2/[n-]c([O-])cs2)cs1 (3D coordinates assigned)
[NH-]S(=O)(=O)CC[N-]C(=O)Cc1nc(/N=c2/[n-]c([O-])cs2)cs1 (optimized conformer: 85.40235951928557 kcal/mol)

>  <smiles>  (193) 
NS(=O)(=O)CCNC(=O)Cc1nc(N=c2[nH]c(O)cs2)cs1

>  <score_type>  (193) 
oracle

>  <origin>  (193) 
adg

>  <m_score__min__energy>  (193) 
-16.030000000000001

>  <m_primary>  (193) 
energy

$$$$
61:0
     RDKit          3D

 30 34  0  0  0  0  0  0  0  0999 V2000
   56.9990   28.6150   44.5380 C   0  0  0  0  0  0  0  0  0  0  0  0
   56.8050   29.8860   44.3310 N   0  0  0  0  0  0  0  0  0  0  0  0
   57.2860   30.5630   45.4600 N   0  0  0  0  0  0  0  0  0  0  0  0
   57.9720   31.7220   45.5180 C   0  0  0  0  0  0  0  0  0  0  0  0
   57.7940   32.7390   44.7290 N   0  0  0  0  0  0  0  0  0  0  0  0
   57.6970   34.1220   45.1840 C   0  0  0  0  0  0  0  0  0  0  0  0
   58.9620   34.9150   44.9160 C   0  0  0  0  0  0  0  0  0  0  0  0
   58.6320   34.4600   46.3310 C   0  0  0  0  0  0  0  0  0  0  0  0
   58.9450   31.6830   46.4610 N   0  0  0  0  0  0  0  0  0  0  0  0
   58.8240   30.4140   46.9350 C   0  0  0  0  0  0  0  0  0  0  0  0
   59.6720   29.8460   47.7420 N   0  0  0  0  0  0  0  0  0  0  0  0
   60.7670   30.4800   48.4230 C   0  0  0  0  0  0  0  0  0  0  0  0
   61.1720   30.0910   49.7120 C   0  0  0  0  0  0  0  0  0  0  0  0
   62.2600   30.7140   50.3240 C   0  0  0  0  0  0  0  0  0  0  0  0
   62.9670   31.7150   49.6540 C   0  0  0  0  0  0  0  0  0  0  0  0
   62.5980   32.1000   48.3490 C   0  0  0  0  0  0  0  0  0  0  0  0
   63.3480   33.1530   47.6130 C   0  0  0  0  0  0  0  0  0  0  0  0
   64.5040   33.4810   47.9960 O   0  0  0  0  0  0  0  0  0  0  0  0
   62.7710   33.8480   46.4150 C   0  0  0  0  0  0  0  0  0  0  0  0
   61.4980   31.4630   47.7430 C   0  0  0  0  0  0  0  0  0  0  0  0
   57.8120   29.7560   46.3400 N   0  0  0  0  0  0  0  0  0  0  0  0
   57.6790   28.4360   45.8350 C   0  0  0  0  0  0  0  0  0  0  0  0
   58.1950   27.3290   46.3840 C   0  0  0  0  0  0  0  0  0  0  0  0
   57.4220   26.0990   46.6160 C   0  0  0  0  0  0  0  0  0  0  0  0
   57.9510   24.9880   47.1590 N   0  0  0  0  0  0  0  0  0  0  0  0
   56.8940   24.1520   47.2570 C   0  0  0  0  0  0  0  0  0  0  0  0
   56.9940   22.9850   47.7170 O   0  0  0  0  0  0  0  0  0  0  0  0
   55.7220   24.6690   46.8340 N   0  0  0  0  0  0  0  0  0  0  0  0
   56.0690   25.9050   46.4420 C   0  0  0  0  0  0  0  0  0  0  0  0
   55.1570   26.8490   45.9870 O   0  0  0  0  0  0  0  0  0  0  0  0
  1  2  2  0
  2  3  1  0
  3  4  1  0
  4  5  2  3
  5  6  1  0
  6  7  1  0
  7  8  1  0
  4  9  1  0
  9 10  1  0
 10 11  2  0
 11 12  1  0
 12 13  2  0
 13 14  1  0
 14 15  2  0
 15 16  1  0
 16 17  1  0
 17 18  2  0
 17 19  1  0
 16 20  2  0
 10 21  1  0
 21 22  1  0
 22 23  2  0
 23 24  1  0
 24 25  1  0
 25 26  1  0
 26 27  2  0
 26 28  1  0
 28 29  1  0
 29 30  1  0
 22  1  1  0
 29 24  2  0
 21  3  1  0
  8  6  1  0
 20 12  1  0
M  CHG  4   9  -1  25  -1  28  -1  30  -1
M  END
>  <UniqueID>  (194) 
55

>  <SMILES>  (194) 
CC(=O)c1cccc(/N=c2\[n-]c(=NC3CC3)n3n2/C(=C/c2[n-]c(=O)[n-]c2[O-])C=N3)c1

>  <Energy>  (194) 
448.52763086363234

>  <Genealogy>  (194) 
CC(=O)c1cccc(N=c2[n-]c(=NC3CC3)n3n2C(=Cc2[n-]c(=O)[n-]c2[O-])C=N3)c1 (protonated)
CC(=O)c1cccc(/N=c2\[n-]c(=NC3CC3)n3n2/C(=C/c2[n-]c(=O)[n-]c2[O-])C=N3)c1 (cis-trans isomerization)
CC(=O)c1cccc(/N=c2\[n-]c(=NC3CC3)n3n2/C(=C/c2[n-]c(=O)[n-]c2[O-])C=N3)c1 (3D coordinates assigned)
CC(=O)c1cccc(/N=c2\[n-]c(=NC3CC3)n3n2/C(=C/c2[n-]c(=O)[n-]c2[O-])C=N3)c1 (nonaromatic ring conformer: 448.52763086363234 kcal/mol)

>  <smiles>  (194) 
CC(=O)c1cccc(N=c2[nH]c(=NC3CC3)n3n2C(=Cc2[nH]c(=O)[nH]c2O)C=N3)c1

>  <score_type>  (194) 
oracle

>  <origin>  (194) 
adg

>  <m_score__min__energy>  (194) 
-17.100000000000001

>  <m_primary>  (194) 
energy

$$$$
74:0
     RDKit          3D

 26 28  0  0  0  0  0  0  0  0999 V2000
   58.5160   22.6020   44.5440 C   0  0  0  0  0  0  0  0  0  0  0  0
   57.7890   22.7680   45.8730 C   0  0  0  0  0  0  0  0  0  0  0  0
   56.6490   23.6760   45.7190 N   0  0  0  0  0  0  0  0  0  0  0  0
   56.4960   24.9230   46.2130 C   0  0  0  0  0  0  0  0  0  0  0  0
   57.4330   25.6320   47.1540 C   0  0  0  0  0  0  0  0  0  0  0  0
   58.3440   26.5560   46.3920 C   0  0  0  0  0  0  0  0  0  0  0  0
   59.7120   26.6190   46.7000 C   0  0  0  0  0  0  0  0  0  0  0  0
   60.5480   27.5040   46.0170 C   0  0  0  0  0  0  0  0  0  0  0  0
   60.0270   28.3430   45.0290 C   0  0  0  0  0  0  0  0  0  0  0  0
   58.6560   28.3050   44.7150 C   0  0  0  0  0  0  0  0  0  0  0  0
   58.0840   29.1630   43.7130 N   0  0  0  0  0  0  0  0  0  0  0  0
   56.8990   30.3850   44.0540 S   0  0  0  0  0  0  0  0  0  0  0  0
   55.8350   29.8100   44.9460 O   0  0  0  0  0  0  0  0  0  0  0  0
   56.2680   30.8310   42.7650 O   0  0  0  0  0  0  0  0  0  0  0  0
   57.6560   31.7420   44.8810 C   0  0  0  0  0  0  0  0  0  0  0  0
   58.1480   31.5960   46.1880 C   0  0  0  0  0  0  0  0  0  0  0  0
   58.7360   32.6840   46.8410 C   0  0  0  0  0  0  0  0  0  0  0  0
   58.8380   33.9190   46.1940 C   0  0  0  0  0  0  0  0  0  0  0  0
   58.3530   34.0680   44.8910 C   0  0  0  0  0  0  0  0  0  0  0  0
   57.7650   32.9820   44.2360 C   0  0  0  0  0  0  0  0  0  0  0  0
   57.8250   27.4020   45.3980 C   0  0  0  0  0  0  0  0  0  0  0  0
   55.3040   25.4200   45.7270 C   0  0  0  0  0  0  0  0  0  0  0  0
   54.7740   26.6730   46.0060 O   0  0  0  0  0  0  0  0  0  0  0  0
   54.7060   24.5220   44.9200 N   0  0  0  0  0  0  0  0  0  0  0  0
   55.5630   23.4800   44.9390 C   0  0  0  0  0  0  0  0  0  0  0  0
   55.3650   22.4250   44.2790 O   0  0  0  0  0  0  0  0  0  0  0  0
  1  2  1  0
  2  3  1  0
  3  4  1  0
  4  5  1  0
  5  6  1  0
  6  7  2  0
  7  8  1  0
  8  9  2  0
  9 10  1  0
 10 11  1  0
 11 12  1  0
 12 13  2  0
 12 14  2  0
 12 15  1  0
 15 16  2  0
 16 17  1  0
 17 18  2  0
 18 19  1  0
 19 20  2  0
 10 21  2  0
  4 22  2  0
 22 23  1  0
 22 24  1  0
 24 25  1  0
 25 26  2  0
 25  3  1  0
 21  6  1  0
 20 15  1  0
M  CHG  2  23  -1  24  -1
M  END
>  <UniqueID>  (195) 
67

>  <SMILES>  (195) 
CCn1c(Cc2cccc(NS(=O)(=O)c3ccccc3)c2)c([O-])[n-]c1=O

>  <Energy>  (195) 
75.14369737510806

>  <Genealogy>  (195) 
CCn1c(Cc2cccc(NS(=O)(=O)c3ccccc3)c2)c([O-])[n-]c1=O (protonated)
CCn1c(Cc2cccc(NS(=O)(=O)c3ccccc3)c2)c([O-])[n-]c1=O (3D coordinates assigned)
CCn1c(Cc2cccc(NS(=O)(=O)c3ccccc3)c2)c([O-])[n-]c1=O (optimized conformer: 75.14369737510806 kcal/mol)

>  <smiles>  (195) 
CCn1c(Cc2cccc(NS(=O)(=O)c3ccccc3)c2)c(O)[nH]c1=O

>  <score_type>  (195) 
oracle

>  <origin>  (195) 
adg

>  <m_score__min__energy>  (195) 
-15.369999999999999

>  <m_primary>  (195) 
energy

$$$$
3:0
     RDKit          3D

 32 35  0  0  0  0  0  0  0  0999 V2000
   56.5540   21.1860   43.2650 O   0  0  0  0  0  0  0  0  0  0  0  0
   56.3440   22.3870   43.9390 C   0  0  0  0  0  0  0  0  0  0  0  0
   57.4190   23.0220   44.5690 C   0  0  0  0  0  0  0  0  0  0  0  0
   57.2240   24.2300   45.2470 C   0  0  0  0  0  0  0  0  0  0  0  0
   55.9480   24.8260   45.2810 C   0  0  0  0  0  0  0  0  0  0  0  0
   55.6970   26.0510   45.9920 N   0  0  0  0  0  0  0  0  0  0  0  0
   56.3840   27.1530   45.9120 C   0  0  0  0  0  0  0  0  0  0  0  0
   55.9050   28.2380   45.2470 N   0  0  0  0  0  0  0  0  0  0  0  0
   56.6260   29.3880   45.1940 C   0  0  0  0  0  0  0  0  0  0  0  0
   56.1870   30.4240   44.5480 N   0  0  0  0  0  0  0  0  0  0  0  0
   57.0050   31.2350   43.6520 C   0  0  0  0  0  0  0  0  0  0  0  0
   57.6310   32.3560   44.4290 C   0  0  0  0  0  0  0  0  0  0  0  0
   58.5010   33.2590   43.7970 C   0  0  0  0  0  0  0  0  0  0  0  0
   59.0510   34.3250   44.5150 C   0  0  0  0  0  0  0  0  0  0  0  0
   58.7290   34.5040   45.8630 C   0  0  0  0  0  0  0  0  0  0  0  0
   57.8510   33.6180   46.4940 C   0  0  0  0  0  0  0  0  0  0  0  0
   57.2980   32.5500   45.7800 C   0  0  0  0  0  0  0  0  0  0  0  0
   57.8260   29.4540   45.8210 N   0  0  0  0  0  0  0  0  0  0  0  0
   58.3120   28.3780   46.4950 C   0  0  0  0  0  0  0  0  0  0  0  0
   59.4640   28.4270   47.0900 N   0  0  0  0  0  0  0  0  0  0  0  0
   59.7750   29.3820   48.5060 S   0  0  0  0  0  0  0  0  0  0  0  0
   60.4360   28.5230   49.5470 O   0  0  0  0  0  0  0  0  0  0  0  0
   58.4740   29.8930   49.0610 O   0  0  0  0  0  0  0  0  0  0  0  0
   60.8480   30.7200   48.1010 C   0  0  0  0  0  0  0  0  0  0  0  0
   62.0270   30.9380   48.8320 C   0  0  0  0  0  0  0  0  0  0  0  0
   62.8540   32.0210   48.5220 C   0  0  0  0  0  0  0  0  0  0  0  0
   62.5100   32.8900   47.4830 C   0  0  0  0  0  0  0  0  0  0  0  0
   61.3370   32.6790   46.7550 C   0  0  0  0  0  0  0  0  0  0  0  0
   60.5050   31.5980   47.0640 C   0  0  0  0  0  0  0  0  0  0  0  0
   57.5840   27.2320   46.5410 N   0  0  0  0  0  0  0  0  0  0  0  0
   54.8710   24.1680   44.6730 C   0  0  0  0  0  0  0  0  0  0  0  0
   55.0680   22.9610   43.9960 C   0  0  0  0  0  0  0  0  0  0  0  0
  1  2  1  0
  2  3  2  0
  3  4  1  0
  4  5  2  0
  5  6  1  0
  6  7  2  3
  7  8  1  0
  8  9  1  0
  9 10  2  3
 10 11  1  0
 11 12  1  0
 12 13  2  0
 13 14  1  0
 14 15  2  0
 15 16  1  0
 16 17  2  0
  9 18  1  0
 18 19  1  0
 19 20  2  0
 20 21  1  0
 21 22  2  0
 21 23  2  0
 21 24  1  0
 24 25  2  0
 25 26  1  0
 26 27  2  0
 27 28  1  0
 28 29  2  0
 19 30  1  0
  5 31  1  0
 31 32  2  0
 32  2  1  0
 30  7  1  0
 17 12  1  0
 29 24  1  0
M  CHG  3   8  -1  18  -1  30  -1
M  END
>  <UniqueID>  (196) 
4

>  <SMILES>  (196) 
O=S(=O)(/N=c1\[n-]c(=NCc2ccccc2)[n-]c(=Nc2ccc(O)cc2)[n-]1)c1ccccc1

>  <Energy>  (196) 
60.88119484591963

>  <Genealogy>  (196) 
O=S(=O)(N=c1[n-]c(=NCc2ccccc2)[n-]c(=Nc2ccc(O)cc2)[n-]1)c1ccccc1 (protonated)
O=S(=O)(/N=c1\[n-]c(=NCc2ccccc2)[n-]c(=Nc2ccc(O)cc2)[n-]1)c1ccccc1 (cis-trans isomerization)
O=S(=O)(/N=c1\[n-]c(=NCc2ccccc2)[n-]c(=Nc2ccc(O)cc2)[n-]1)c1ccccc1 (3D coordinates assigned)
O=S(=O)(/N=c1\[n-]c(=NCc2ccccc2)[n-]c(=Nc2ccc(O)cc2)[n-]1)c1ccccc1 (optimized conformer: 60.88119484591963 kcal/mol)

>  <smiles>  (196) 
O=S(=O)(N=c1[nH]c(=NCc2ccccc2)[nH]c(=Nc2ccc(O)cc2)[nH]1)c1ccccc1

>  <score_type>  (196) 
oracle

>  <origin>  (196) 
adg

>  <m_score__min__energy>  (196) 
-14.789999999999999

>  <m_primary>  (196) 
energy

$$$$
25:0
     RDKit          3D

 28 32  0  0  0  0  0  0  0  0999 V2000
   59.6420   27.5310   48.1540 C   0  0  0  0  0  0  0  0  0  0  0  0
   60.5620   28.3760   48.5030 N   0  0  0  0  0  0  0  0  0  0  0  0
   60.0900   29.6520   48.1710 N   0  0  0  0  0  0  0  0  0  0  0  0
   60.7760   30.6750   47.6260 C   0  0  0  0  0  0  0  0  0  0  0  0
   62.0330   30.9320   47.8330 N   0  0  0  0  0  0  0  0  0  0  0  0
   62.5540   32.2480   48.1850 C   0  0  0  0  0  0  0  0  0  0  0  0
   62.2940   33.2860   47.1090 C   0  0  0  0  0  0  0  0  0  0  0  0
   63.6920   32.7150   47.2960 C   0  0  0  0  0  0  0  0  0  0  0  0
   60.0130   31.3860   46.7650 N   0  0  0  0  0  0  0  0  0  0  0  0
   58.8400   30.7060   46.7950 C   0  0  0  0  0  0  0  0  0  0  0  0
   57.7720   31.1500   46.1950 N   0  0  0  0  0  0  0  0  0  0  0  0
   57.3500   30.8900   44.8470 C   0  0  0  0  0  0  0  0  0  0  0  0
   56.4380   29.8620   44.5430 C   0  0  0  0  0  0  0  0  0  0  0  0
   56.0280   29.6540   43.2250 C   0  0  0  0  0  0  0  0  0  0  0  0
   56.5070   30.4770   42.2020 C   0  0  0  0  0  0  0  0  0  0  0  0
   57.4030   31.5160   42.4940 C   0  0  0  0  0  0  0  0  0  0  0  0
   57.8780   32.4330   41.4050 C   0  0  0  0  0  0  0  0  0  0  0  0
   57.8000   31.7330   43.8230 C   0  0  0  0  0  0  0  0  0  0  0  0
   58.9010   29.6370   47.6270 N   0  0  0  0  0  0  0  0  0  0  0  0
   58.5410   28.2580   47.4930 C   0  0  0  0  0  0  0  0  0  0  0  0
   57.6660   27.7380   46.6200 C   0  0  0  0  0  0  0  0  0  0  0  0
   57.1410   26.3660   46.7130 C   0  0  0  0  0  0  0  0  0  0  0  0
   57.9070   25.3020   47.0110 N   0  0  0  0  0  0  0  0  0  0  0  0
   57.0540   24.2610   46.9090 C   0  0  0  0  0  0  0  0  0  0  0  0
   57.4050   23.0730   47.1300 O   0  0  0  0  0  0  0  0  0  0  0  0
   55.7980   24.5920   46.5420 N   0  0  0  0  0  0  0  0  0  0  0  0
   55.8710   25.9260   46.4100 C   0  0  0  0  0  0  0  0  0  0  0  0
   54.8110   26.7120   45.9760 O   0  0  0  0  0  0  0  0  0  0  0  0
  1  2  2  0
  2  3  1  0
  3  4  1  0
  4  5  2  0
  5  6  1  0
  6  7  1  0
  7  8  1  0
  4  9  1  0
  9 10  1  0
 10 11  2  3
 11 12  1  0
 12 13  2  0
 13 14  1  0
 14 15  2  0
 15 16  1  0
 16 17  1  0
 16 18  2  0
 10 19  1  0
 19 20  1  0
 20 21  2  0
 21 22  1  0
 22 23  1  0
 23 24  1  0
 24 25  2  0
 24 26  1  0
 26 27  1  0
 27 28  1  0
 20  1  1  0
 27 22  2  0
 19  3  1  0
  8  6  1  0
 18 12  1  0
M  CHG  4   9  -1  23  -1  26  -1  28  -1
M  END
>  <UniqueID>  (197) 
24

>  <SMILES>  (197) 
Cc1cccc(N=c2[n-]/c(=N/C3CC3)n3n2/C(=C/c2[n-]c(=O)[n-]c2[O-])C=N3)c1

>  <Energy>  (197) 
451.2111300041799

>  <Genealogy>  (197) 
Cc1cccc(N=c2[n-]c(=NC3CC3)n3n2C(=Cc2[n-]c(=O)[n-]c2[O-])C=N3)c1 (protonated)
Cc1cccc(N=c2[n-]/c(=N/C3CC3)n3n2/C(=C/c2[n-]c(=O)[n-]c2[O-])C=N3)c1 (cis-trans isomerization)
Cc1cccc(N=c2[n-]/c(=N/C3CC3)n3n2/C(=C/c2[n-]c(=O)[n-]c2[O-])C=N3)c1 (3D coordinates assigned)
Cc1cccc(N=c2[n-]/c(=N/C3CC3)n3n2/C(=C/c2[n-]c(=O)[n-]c2[O-])C=N3)c1 (nonaromatic ring conformer: 451.2111300041799 kcal/mol)

>  <smiles>  (197) 
Cc1cccc(N=c2[nH]c(=NC3CC3)n3n2C(=Cc2[nH]c(=O)[nH]c2O)C=N3)c1

>  <score_type>  (197) 
oracle

>  <origin>  (197) 
adg

>  <m_score__min__energy>  (197) 
-16.809999999999999

>  <m_primary>  (197) 
energy

$$$$
26:0
     RDKit          3D

 29 31  0  0  0  0  0  0  0  0999 V2000
   55.4370   31.5490   52.4260 O   0  0  0  0  0  0  0  0  0  0  0  0
   55.9230   30.5690   53.0490 C   0  0  0  0  0  0  0  0  0  0  0  0
   57.3180   30.1130   52.7140 C   0  0  0  0  0  0  0  0  0  0  0  0
   57.4200   29.7690   51.3320 O   0  0  0  0  0  0  0  0  0  0  0  0
   58.4680   30.1450   50.4740 C   0  0  0  0  0  0  0  0  0  0  0  0
   59.5310   29.2730   50.1710 C   0  0  0  0  0  0  0  0  0  0  0  0
   60.5540   29.6780   49.3120 C   0  0  0  0  0  0  0  0  0  0  0  0
   60.5330   30.9530   48.7480 C   0  0  0  0  0  0  0  0  0  0  0  0
   59.4880   31.8430   49.0440 C   0  0  0  0  0  0  0  0  0  0  0  0
   59.4690   33.2010   48.3900 C   0  0  0  0  0  0  0  0  0  0  0  0
   58.7280   33.1360   47.0890 C   0  0  0  0  0  0  0  0  0  0  0  0
   57.9540   32.1550   46.7610 N   0  0  0  0  0  0  0  0  0  0  0  0
   57.4030   32.5180   45.4940 C   0  0  0  0  0  0  0  0  0  0  0  0
   56.6010   31.7800   44.8650 O   0  0  0  0  0  0  0  0  0  0  0  0
   57.8330   33.7850   45.0040 N   0  0  0  0  0  0  0  0  0  0  0  0
   58.6930   34.1690   46.0650 C   0  0  0  0  0  0  0  0  0  0  0  0
   59.3290   35.2550   46.0910 O   0  0  0  0  0  0  0  0  0  0  0  0
   58.4470   31.4310   49.9020 C   0  0  0  0  0  0  0  0  0  0  0  0
   57.3980   32.3100   50.1810 O   0  0  0  0  0  0  0  0  0  0  0  0
   55.1070   29.9010   54.0210 N   0  0  0  0  0  0  0  0  0  0  0  0
   54.1830   28.7980   53.7650 C   0  0  0  0  0  0  0  0  0  0  0  0
   52.7250   29.2260   53.9750 C   0  0  0  0  0  0  0  0  0  0  0  0
   52.2480   30.1290   52.8680 C   0  0  0  0  0  0  0  0  0  0  0  0
   52.4030   29.7490   51.5240 C   0  0  0  0  0  0  0  0  0  0  0  0
   51.9900   30.6050   50.4970 C   0  0  0  0  0  0  0  0  0  0  0  0
   51.4260   31.8480   50.8040 C   0  0  0  0  0  0  0  0  0  0  0  0
   51.0180   32.6960   49.7840 O   0  0  0  0  0  0  0  0  0  0  0  0
   51.2780   32.2360   52.1400 C   0  0  0  0  0  0  0  0  0  0  0  0
   51.6910   31.3830   53.1680 C   0  0  0  0  0  0  0  0  0  0  0  0
  1  2  2  0
  2  3  1  0
  3  4  1  0
  4  5  1  0
  5  6  2  0
  6  7  1  0
  7  8  2  0
  8  9  1  0
  9 10  1  0
 10 11  1  0
 11 12  2  0
 12 13  1  0
 13 14  2  0
 13 15  1  0
 15 16  1  0
 16 17  2  0
  9 18  2  0
 18 19  1  0
  2 20  1  0
 20 21  1  0
 21 22  1  0
 22 23  1  0
 23 24  2  0
 24 25  1  0
 25 26  2  0
 26 27  1  0
 26 28  1  0
 28 29  2  0
 18  5  1  0
 29 23  1  0
 16 11  1  0
M  CHG  3  15  -1  20  -1  27  -1
M  END
>  <UniqueID>  (198) 
25

>  <SMILES>  (198) 
O=C(COc1cccc(CC2=NC(=O)[N-]C2=O)c1O)[N-]CCc1ccc([O-])cc1

>  <Energy>  (198) 
68.70974446416317

>  <Genealogy>  (198) 
O=C(COc1cccc(CC2=NC(=O)[N-]C2=O)c1O)[N-]CCc1ccc([O-])cc1 (protonated)
O=C(COc1cccc(CC2=NC(=O)[N-]C2=O)c1O)[N-]CCc1ccc([O-])cc1 (3D coordinates assigned)
O=C(COc1cccc(CC2=NC(=O)[N-]C2=O)c1O)[N-]CCc1ccc([O-])cc1 (nonaromatic ring conformer: 68.70974446416317 kcal/mol)

>  <smiles>  (198) 
O=C(COc1cccc(CC2=NC(=O)NC2=O)c1O)NCCc1ccc(O)cc1

>  <score_type>  (198) 
oracle

>  <origin>  (198) 
adg

>  <m_score__min__energy>  (198) 
-14.15

>  <m_primary>  (198) 
energy

$$$$
44:0
     RDKit          3D

 33 36  0  0  0  0  0  0  0  0999 V2000
   55.1470   29.3450   44.6670 N   0  0  0  0  0  0  0  0  0  0  0  0
   56.8580   29.2530   44.8920 S   0  0  0  0  0  0  0  0  0  0  0  0
   57.5380   29.1540   43.5560 O   0  0  0  0  0  0  0  0  0  0  0  0
   57.3410   30.4950   45.5900 O   0  0  0  0  0  0  0  0  0  0  0  0
   57.2430   27.8370   45.8650 C   0  0  0  0  0  0  0  0  0  0  0  0
   56.3730   26.7390   45.8840 C   0  0  0  0  0  0  0  0  0  0  0  0
   56.6660   25.6260   46.6780 C   0  0  0  0  0  0  0  0  0  0  0  0
   57.8320   25.6020   47.4490 C   0  0  0  0  0  0  0  0  0  0  0  0
   58.7200   26.6830   47.4210 C   0  0  0  0  0  0  0  0  0  0  0  0
   59.8910   26.6410   48.2460 N   0  0  0  0  0  0  0  0  0  0  0  0
   60.5590   27.7650   48.8350 C   0  0  0  0  0  0  0  0  0  0  0  0
   60.7330   27.7810   50.0830 O   0  0  0  0  0  0  0  0  0  0  0  0
   61.1010   28.8950   48.0010 C   0  0  0  0  0  0  0  0  0  0  0  0
   60.8010   30.1800   48.6280 N   0  0  0  0  0  0  0  0  0  0  0  0
   61.7260   31.2130   48.9140 C   0  0  0  0  0  0  0  0  0  0  0  0
   62.9740   31.0450   48.9510 O   0  0  0  0  0  0  0  0  0  0  0  0
   61.1040   32.4720   49.1280 N   0  0  0  0  0  0  0  0  0  0  0  0
   59.6570   32.3140   48.9500 C   0  0  0  0  0  0  0  0  0  0  0  0
   59.1430   33.1250   47.7600 C   0  0  0  0  0  0  0  0  0  0  0  0
   59.9870   33.9970   47.0380 C   0  0  0  0  0  0  0  0  0  0  0  0
   59.5080   34.6910   45.9240 C   0  0  0  0  0  0  0  0  0  0  0  0
   58.1900   34.5140   45.5000 C   0  0  0  0  0  0  0  0  0  0  0  0
   57.3490   33.6350   46.1840 C   0  0  0  0  0  0  0  0  0  0  0  0
   57.8230   32.9360   47.2980 C   0  0  0  0  0  0  0  0  0  0  0  0
   58.9690   32.7100   50.2590 C   0  0  0  0  0  0  0  0  0  0  0  0
   57.8970   31.9710   50.8090 C   0  0  0  0  0  0  0  0  0  0  0  0
   57.3220   32.3500   52.0250 C   0  0  0  0  0  0  0  0  0  0  0  0
   57.8120   33.4580   52.7190 C   0  0  0  0  0  0  0  0  0  0  0  0
   58.8870   34.1830   52.2040 C   0  0  0  0  0  0  0  0  0  0  0  0
   59.4680   33.8080   50.9900 C   0  0  0  0  0  0  0  0  0  0  0  0
   59.5420   30.8430   48.6130 C   0  0  0  0  0  0  0  0  0  0  0  0
   58.4640   30.2630   48.3060 O   0  0  0  0  0  0  0  0  0  0  0  0
   58.4060   27.8150   46.6460 C   0  0  0  0  0  0  0  0  0  0  0  0
  1  2  1  0
  2  3  2  0
  2  4  2  0
  2  5  1  0
  5  6  2  0
  6  7  1  0
  7  8  2  0
  8  9  1  0
  9 10  1  0
 10 11  1  0
 11 12  2  0
 11 13  1  0
 13 14  1  0
 14 15  1  0
 15 16  2  0
 15 17  1  0
 17 18  1  0
 18 19  1  0
 19 20  2  0
 20 21  1  0
 21 22  2  0
 22 23  1  0
 23 24  2  0
 18 25  1  0
 25 26  2  0
 26 27  1  0
 27 28  2  0
 28 29  1  0
 29 30  2  0
 18 31  1  0
 31 32  2  0
  9 33  2  0
 33  5  1  0
 31 14  1  0
 24 19  1  0
 30 25  1  0
M  CHG  2   1  -1  10  -1
M  END
>  <UniqueID>  (199) 
43

>  <SMILES>  (199) 
[NH-]S(=O)(=O)c1cccc([N-]C(=O)CN2C(=O)NC(c3ccccc3)(c3ccccc3)C2=O)c1

>  <Energy>  (199) 
83.20598600362128

>  <Genealogy>  (199) 
[NH-]S(=O)(=O)c1cccc([N-]C(=O)CN2C(=O)NC(c3ccccc3)(c3ccccc3)C2=O)c1 (protonated)
[NH-]S(=O)(=O)c1cccc([N-]C(=O)CN2C(=O)NC(c3ccccc3)(c3ccccc3)C2=O)c1 (3D coordinates assigned)
[NH-]S(=O)(=O)c1cccc([N-]C(=O)CN2C(=O)NC(c3ccccc3)(c3ccccc3)C2=O)c1 (nonaromatic ring conformer: 83.20598600362128 kcal/mol)

>  <smiles>  (199) 
NS(=O)(=O)c1cccc(NC(=O)CN2C(=O)NC(c3ccccc3)(c3ccccc3)C2=O)c1

>  <score_type>  (199) 
oracle

>  <origin>  (199) 
adg

>  <m_score__min__energy>  (199) 
-14.470000000000001

>  <m_primary>  (199) 
energy

$$$$
25:0
     RDKit          3D

 28 30  0  0  0  0  0  0  0  0999 V2000
   59.4460   30.2740   47.5130 O   0  0  0  0  0  0  0  0  0  0  0  0
   58.9210   31.3640   47.1650 C   0  0  0  0  0  0  0  0  0  0  0  0
   58.8000   32.4200   48.1210 N   0  0  0  0  0  0  0  0  0  0  0  0
   59.8580   32.7970   49.0490 C   0  0  0  0  0  0  0  0  0  0  0  0
   61.1630   32.8870   48.3070 C   0  0  0  0  0  0  0  0  0  0  0  0
   61.2720   33.7300   47.1890 C   0  0  0  0  0  0  0  0  0  0  0  0
   62.4810   33.8370   46.4970 C   0  0  0  0  0  0  0  0  0  0  0  0
   63.5950   33.1120   46.9220 C   0  0  0  0  0  0  0  0  0  0  0  0
   63.5050   32.2820   48.0390 C   0  0  0  0  0  0  0  0  0  0  0  0
   62.2970   32.1620   48.7340 C   0  0  0  0  0  0  0  0  0  0  0  0
   62.2410   31.1020   50.1370 Cl  0  0  0  0  0  0  0  0  0  0  0  0
   58.4690   31.5330   45.7750 C   0  0  0  0  0  0  0  0  0  0  0  0
   58.5190   32.8060   45.1900 C   0  0  0  0  0  0  0  0  0  0  0  0
   58.0850   32.9960   43.8770 C   0  0  0  0  0  0  0  0  0  0  0  0
   57.5980   31.9160   43.1390 C   0  0  0  0  0  0  0  0  0  0  0  0
   57.5570   30.6410   43.7080 C   0  0  0  0  0  0  0  0  0  0  0  0
   58.0100   30.4330   45.0240 C   0  0  0  0  0  0  0  0  0  0  0  0
   57.9670   29.1310   45.6310 N   0  0  0  0  0  0  0  0  0  0  0  0
   56.8470   28.2350   45.6340 C   0  0  0  0  0  0  0  0  0  0  0  0
   55.7560   28.5970   45.1170 O   0  0  0  0  0  0  0  0  0  0  0  0
   56.9780   26.8660   46.1960 C   0  0  0  0  0  0  0  0  0  0  0  0
   58.2360   26.3920   46.6100 C   0  0  0  0  0  0  0  0  0  0  0  0
   58.3660   25.1370   47.1120 N   0  0  0  0  0  0  0  0  0  0  0  0
   57.2940   24.3150   47.2200 C   0  0  0  0  0  0  0  0  0  0  0  0
   57.4370   23.1540   47.6800 O   0  0  0  0  0  0  0  0  0  0  0  0
   56.0670   24.7430   46.8290 N   0  0  0  0  0  0  0  0  0  0  0  0
   55.8810   25.9900   46.3250 C   0  0  0  0  0  0  0  0  0  0  0  0
   54.7230   26.3370   45.9710 O   0  0  0  0  0  0  0  0  0  0  0  0
  1  2  2  0
  2  3  1  0
  3  4  1  0
  4  5  1  0
  5  6  2  0
  6  7  1  0
  7  8  2  0
  8  9  1  0
  9 10  2  0
 10 11  1  0
  2 12  1  0
 12 13  2  0
 13 14  1  0
 14 15  2  0
 15 16  1  0
 16 17  2  0
 17 18  1  0
 18 19  1  0
 19 20  2  0
 19 21  1  0
 21 22  2  0
 22 23  1  0
 23 24  1  0
 24 25  2  0
 24 26  1  0
 26 27  1  0
 27 28  2  0
 10  5  1  0
 17 12  1  0
 27 21  1  0
M  CHG  4   3  -1  18  -1  23  -1  26  -1
M  END
>  <UniqueID>  (200) 
22

>  <SMILES>  (200) 
O=C([N-]Cc1ccccc1Cl)c1ccccc1[N-]C(=O)c1c[n-]c(=O)[n-]c1=O

>  <Energy>  (200) 
55.03414565262188

>  <Genealogy>  (200) 
O=C([N-]Cc1ccccc1Cl)c1ccccc1[N-]C(=O)c1c[n-]c(=O)[n-]c1=O (protonated)
O=C([N-]Cc1ccccc1Cl)c1ccccc1[N-]C(=O)c1c[n-]c(=O)[n-]c1=O (3D coordinates assigned)
O=C([N-]Cc1ccccc1Cl)c1ccccc1[N-]C(=O)c1c[n-]c(=O)[n-]c1=O (optimized conformer: 55.03414565262188 kcal/mol)

>  <smiles>  (200) 
O=C(NCc1ccccc1Cl)c1ccccc1NC(=O)c1c[nH]c(=O)[nH]c1=O

>  <score_type>  (200) 
oracle

>  <origin>  (200) 
adg

>  <m_score__min__energy>  (200) 
-15.470000000000001

>  <m_primary>  (200) 
energy

$$$$
44:0
     RDKit          3D

 27 29  0  0  0  0  0  0  0  0999 V2000
   58.8800   28.1300   44.6860 C   0  0  0  0  0  0  0  0  0  0  0  0
   58.2340   27.6840   45.8420 C   0  0  0  0  0  0  0  0  0  0  0  0
   58.6260   28.1680   47.0940 C   0  0  0  0  0  0  0  0  0  0  0  0
   59.6620   29.1120   47.1970 C   0  0  0  0  0  0  0  0  0  0  0  0
   60.0650   29.6640   48.5390 C   0  0  0  0  0  0  0  0  0  0  0  0
   58.9260   29.7050   49.4630 N   0  0  0  0  0  0  0  0  0  0  0  0
   58.8120   31.2460   50.2690 S   0  0  0  0  0  0  0  0  0  0  0  0
   59.8700   31.3260   51.3330 O   0  0  0  0  0  0  0  0  0  0  0  0
   57.4650   31.3880   50.9250 O   0  0  0  0  0  0  0  0  0  0  0  0
   59.0750   32.5510   49.1150 C   0  0  0  0  0  0  0  0  0  0  0  0
   60.0160   33.5450   49.4010 C   0  0  0  0  0  0  0  0  0  0  0  0
   60.2850   34.5470   48.4670 C   0  0  0  0  0  0  0  0  0  0  0  0
   59.6210   34.5590   47.2380 C   0  0  0  0  0  0  0  0  0  0  0  0
   58.6690   33.5690   46.9330 C   0  0  0  0  0  0  0  0  0  0  0  0
   57.9940   33.5520   45.6140 C   0  0  0  0  0  0  0  0  0  0  0  0
   57.2010   34.4850   45.3050 O   0  0  0  0  0  0  0  0  0  0  0  0
   58.2410   32.4720   44.6980 N   0  0  0  0  0  0  0  0  0  0  0  0
   57.3870   31.5560   44.3380 C   0  0  0  0  0  0  0  0  0  0  0  0
   56.7240   30.7570   45.2050 N   0  0  0  0  0  0  0  0  0  0  0  0
   55.9990   29.9630   44.3910 C   0  0  0  0  0  0  0  0  0  0  0  0
   55.1510   28.9630   44.8460 O   0  0  0  0  0  0  0  0  0  0  0  0
   56.2230   30.2760   43.0700 C   0  0  0  0  0  0  0  0  0  0  0  0
   57.0940   31.2970   43.0450 N   0  0  0  0  0  0  0  0  0  0  0  0
   57.6820   31.9110   41.8590 C   0  0  0  0  0  0  0  0  0  0  0  0
   58.3930   32.5730   47.8890 C   0  0  0  0  0  0  0  0  0  0  0  0
   60.3210   29.5380   46.0310 C   0  0  0  0  0  0  0  0  0  0  0  0
   59.9260   29.0530   44.7800 C   0  0  0  0  0  0  0  0  0  0  0  0
  1  2  2  0
  2  3  1  0
  3  4  2  0
  4  5  1  0
  5  6  1  0
  6  7  1  0
  7  8  2  0
  7  9  2  0
  7 10  1  0
 10 11  2  0
 11 12  1  0
 12 13  2  0
 13 14  1  0
 14 15  1  0
 15 16  2  0
 15 17  1  0
 17 18  2  0
 18 19  1  0
 19 20  1  0
 20 21  1  0
 20 22  2  0
 22 23  1  0
 23 24  1  0
 14 25  2  0
  4 26  1  0
 26 27  2  0
 27  1  1  0
 25 10  1  0
 23 18  1  0
M  CHG  2  19  -1  21  -1
M  END
>  <UniqueID>  (201) 
41

>  <SMILES>  (201) 
Cn1cc([O-])[n-]/c1=N\C(=O)c1cccc(S(=O)(=O)NCc2ccccc2)c1

>  <Energy>  (201) 
73.09982729134956

>  <Genealogy>  (201) 
Cn1cc([O-])[n-]c1=NC(=O)c1cccc(S(=O)(=O)NCc2ccccc2)c1 (protonated)
Cn1cc([O-])[n-]/c1=N\C(=O)c1cccc(S(=O)(=O)NCc2ccccc2)c1 (cis-trans isomerization)
Cn1cc([O-])[n-]/c1=N\C(=O)c1cccc(S(=O)(=O)NCc2ccccc2)c1 (3D coordinates assigned)
Cn1cc([O-])[n-]/c1=N\C(=O)c1cccc(S(=O)(=O)NCc2ccccc2)c1 (optimized conformer: 73.09982729134956 kcal/mol)

>  <smiles>  (201) 
Cn1cc(O)[nH]c1=NC(=O)c1cccc(S(=O)(=O)NCc2ccccc2)c1

>  <score_type>  (201) 
oracle

>  <origin>  (201) 
adg

>  <m_score__min__energy>  (201) 
-15.029999999999999

>  <m_primary>  (201) 
energy

$$$$
48:0
     RDKit          3D

 24 26  0  0  0  0  0  0  0  0999 V2000
   59.1940   30.2080   46.8280 C   0  0  0  0  0  0  0  0  0  0  0  0
   58.9530   31.1780   45.9320 C   0  0  0  0  0  0  0  0  0  0  0  0
   58.2040   31.0770   44.7460 C   0  0  0  0  0  0  0  0  0  0  0  0
   57.6860   30.0040   44.1130 C   0  0  0  0  0  0  0  0  0  0  0  0
   57.4240   28.6880   44.7270 C   0  0  0  0  0  0  0  0  0  0  0  0
   56.1550   28.3900   45.2430 C   0  0  0  0  0  0  0  0  0  0  0  0
   55.1430   29.3440   45.2310 O   0  0  0  0  0  0  0  0  0  0  0  0
   55.9090   27.1620   45.7710 N   0  0  0  0  0  0  0  0  0  0  0  0
   56.8710   26.2040   45.7940 C   0  0  0  0  0  0  0  0  0  0  0  0
   56.5450   24.7390   46.4370 S   0  0  0  0  0  0  0  0  0  0  0  0
   58.0980   26.4580   45.2750 N   0  0  0  0  0  0  0  0  0  0  0  0
   58.3940   27.6700   44.7350 C   0  0  0  0  0  0  0  0  0  0  0  0
   59.5370   27.8640   44.2410 O   0  0  0  0  0  0  0  0  0  0  0  0
   58.0660   32.3670   44.2620 C   0  0  0  0  0  0  0  0  0  0  0  0
   58.7690   33.1920   45.1140 C   0  0  0  0  0  0  0  0  0  0  0  0
   58.8940   34.6760   44.9490 C   0  0  0  0  0  0  0  0  0  0  0  0
   59.3060   32.4750   46.1260 N   0  0  0  0  0  0  0  0  0  0  0  0
   60.0880   33.0090   47.2100 C   0  0  0  0  0  0  0  0  0  0  0  0
   59.4580   33.5840   48.3250 C   0  0  0  0  0  0  0  0  0  0  0  0
   60.2210   34.1100   49.3720 C   0  0  0  0  0  0  0  0  0  0  0  0
   61.6180   34.0640   49.3120 C   0  0  0  0  0  0  0  0  0  0  0  0
   62.3740   34.5860   50.3540 O   0  0  0  0  0  0  0  0  0  0  0  0
   62.2520   33.4930   48.2050 C   0  0  0  0  0  0  0  0  0  0  0  0
   61.4910   32.9670   47.1560 C   0  0  0  0  0  0  0  0  0  0  0  0
  1  2  2  0
  2  3  1  0
  3  4  2  3
  4  5  1  0
  5  6  2  0
  6  7  1  0
  6  8  1  0
  8  9  1  0
  9 10  2  0
  9 11  1  0
 11 12  1  0
 12 13  2  0
  3 14  1  0
 14 15  2  0
 15 16  1  0
 15 17  1  0
 17 18  1  0
 18 19  2  0
 19 20  1  0
 20 21  2  0
 21 22  1  0
 21 23  1  0
 23 24  2  0
 17  2  1  0
 24 18  1  0
 12  5  1  0
M  CHG  4   7  -1   8  -1  11  -1  22  -1
M  END
>  <UniqueID>  (202) 
44

>  <SMILES>  (202) 
C=c1c(=Cc2c([O-])[n-]c(=S)[n-]c2=O)cc(C)n1-c1ccc([O-])cc1

>  <Energy>  (202) 
86.55286140229263

>  <Genealogy>  (202) 
C=c1c(=Cc2c([O-])[n-]c(=S)[n-]c2=O)cc(C)n1-c1ccc([O-])cc1 (protonated)
C=c1c(=Cc2c([O-])[n-]c(=S)[n-]c2=O)cc(C)n1-c1ccc([O-])cc1 (3D coordinates assigned)
C=c1c(=Cc2c([O-])[n-]c(=S)[n-]c2=O)cc(C)n1-c1ccc([O-])cc1 (optimized conformer: 86.55286140229263 kcal/mol)

>  <smiles>  (202) 
C=c1c(=Cc2c(O)[nH]c(=S)[nH]c2=O)cc(C)n1-c1ccc(O)cc1

>  <score_type>  (202) 
oracle

>  <origin>  (202) 
adg

>  <m_score__min__energy>  (202) 
-15.49

>  <m_primary>  (202) 
energy

$$$$
53:0
     RDKit          3D

 34 37  0  0  0  0  0  0  0  0999 V2000
   54.9470   26.3080   46.0440 N   0  0  0  0  0  0  0  0  0  0  0  0
   56.6440   25.9890   46.1570 S   0  0  0  0  0  0  0  0  0  0  0  0
   56.9460   25.3530   47.4870 O   0  0  0  0  0  0  0  0  0  0  0  0
   57.0540   25.0420   45.0640 O   0  0  0  0  0  0  0  0  0  0  0  0
   57.5260   27.5020   45.9900 C   0  0  0  0  0  0  0  0  0  0  0  0
   58.8840   27.5630   46.3340 C   0  0  0  0  0  0  0  0  0  0  0  0
   59.6010   28.7520   46.1630 C   0  0  0  0  0  0  0  0  0  0  0  0
   58.9660   29.8850   45.6480 C   0  0  0  0  0  0  0  0  0  0  0  0
   57.6070   29.8410   45.3120 C   0  0  0  0  0  0  0  0  0  0  0  0
   56.9780   31.0280   44.8060 N   0  0  0  0  0  0  0  0  0  0  0  0
   57.6580   32.1530   44.2330 C   0  0  0  0  0  0  0  0  0  0  0  0
   57.6780   32.2600   42.9750 O   0  0  0  0  0  0  0  0  0  0  0  0
   58.3840   33.1520   45.0710 C   0  0  0  0  0  0  0  0  0  0  0  0
   58.6720   34.4340   44.5550 C   0  0  0  0  0  0  0  0  0  0  0  0
   59.3990   35.3560   45.3110 C   0  0  0  0  0  0  0  0  0  0  0  0
   59.8400   35.0210   46.5930 C   0  0  0  0  0  0  0  0  0  0  0  0
   59.5560   33.7620   47.1310 C   0  0  0  0  0  0  0  0  0  0  0  0
   60.0590   33.3560   48.7800 S   0  0  0  0  0  0  0  0  0  0  0  0
   59.4100   34.3130   49.7400 O   0  0  0  0  0  0  0  0  0  0  0  0
   59.5780   31.9680   49.1050 O   0  0  0  0  0  0  0  0  0  0  0  0
   61.7940   33.4660   49.0010 N   0  0  0  0  0  0  0  0  0  0  0  0
   62.1720   33.9890   50.3390 C   0  0  0  0  0  0  0  0  0  0  0  0
   63.2250   33.1390   51.0750 C   0  0  0  0  0  0  0  0  0  0  0  0
   64.3010   32.7250   50.1640 N   0  0  0  0  0  0  0  0  0  0  0  0
   65.6410   32.5090   50.6590 C   0  0  0  0  0  0  0  0  0  0  0  0
   66.6150   33.5170   50.5390 C   0  0  0  0  0  0  0  0  0  0  0  0
   67.9230   33.2990   50.9890 C   0  0  0  0  0  0  0  0  0  0  0  0
   68.2750   32.0760   51.5610 C   0  0  0  0  0  0  0  0  0  0  0  0
   67.3200   31.0710   51.6870 C   0  0  0  0  0  0  0  0  0  0  0  0
   66.0100   31.2810   51.2400 C   0  0  0  0  0  0  0  0  0  0  0  0
   63.9610   32.3310   48.7870 C   0  0  0  0  0  0  0  0  0  0  0  0
   62.4470   32.1980   48.6280 C   0  0  0  0  0  0  0  0  0  0  0  0
   58.8450   32.8310   46.3620 C   0  0  0  0  0  0  0  0  0  0  0  0
   56.8900   28.6410   45.4730 C   0  0  0  0  0  0  0  0  0  0  0  0
  1  2  1  0
  2  3  2  0
  2  4  2  0
  2  5  1  0
  5  6  2  0
  6  7  1  0
  7  8  2  0
  8  9  1  0
  9 10  1  0
 10 11  1  0
 11 12  2  0
 11 13  1  0
 13 14  2  0
 14 15  1  0
 15 16  2  0
 16 17  1  0
 17 18  1  0
 18 19  2  0
 18 20  2  0
 18 21  1  0
 21 22  1  0
 22 23  1  0
 23 24  1  0
 24 25  1  0
 25 26  2  0
 26 27  1  0
 27 28  2  0
 28 29  1  0
 29 30  2  0
 24 31  1  0
 31 32  1  0
 17 33  2  0
  9 34  2  0
 34  5  1  0
 33 13  1  0
 32 21  1  0
 30 25  1  0
M  CHG  2   1  -1  10  -1
M  END
>  <UniqueID>  (203) 
45

>  <SMILES>  (203) 
[NH-]S(=O)(=O)c1cccc([N-]C(=O)c2cccc(S(=O)(=O)N3CCN(c4ccccc4)CC3)c2)c1

>  <Energy>  (203) 
74.64128718943518

>  <Genealogy>  (203) 
[NH-]S(=O)(=O)c1cccc([N-]C(=O)c2cccc(S(=O)(=O)N3CCN(c4ccccc4)CC3)c2)c1 (protonated)
[NH-]S(=O)(=O)c1cccc([N-]C(=O)c2cccc(S(=O)(=O)N3CCN(c4ccccc4)CC3)c2)c1 (3D coordinates assigned)
[NH-]S(=O)(=O)c1cccc([N-]C(=O)c2cccc(S(=O)(=O)N3CCN(c4ccccc4)CC3)c2)c1 (nonaromatic ring conformer: 74.64128718943518 kcal/mol)

>  <smiles>  (203) 
NS(=O)(=O)c1cccc(NC(=O)c2cccc(S(=O)(=O)N3CCN(c4ccccc4)CC3)c2)c1

>  <score_type>  (203) 
oracle

>  <origin>  (203) 
adg

>  <m_score__min__energy>  (203) 
-14.539999999999999

>  <m_primary>  (203) 
energy

$$$$
12:0
     RDKit          3D

 30 33  0  0  0  0  0  0  0  0999 V2000
   56.4440   29.7740   42.8390 C   0  0  0  0  0  0  0  0  0  0  0  0
   56.8720   30.9170   42.2440 N   0  0  0  0  0  0  0  0  0  0  0  0
   57.5070   31.8950   42.9420 C   0  0  0  0  0  0  0  0  0  0  0  0
   57.7410   31.7500   44.3210 C   0  0  0  0  0  0  0  0  0  0  0  0
   58.4540   32.8170   45.0740 C   0  0  0  0  0  0  0  0  0  0  0  0
   58.9540   32.5370   46.3090 N   0  0  0  0  0  0  0  0  0  0  0  0
   59.5940   33.4800   47.0550 C   0  0  0  0  0  0  0  0  0  0  0  0
   60.0370   33.2030   48.2470 N   0  0  0  0  0  0  0  0  0  0  0  0
   60.8960   32.0650   48.5800 C   0  0  0  0  0  0  0  0  0  0  0  0
   60.3140   30.7780   48.0560 C   0  0  0  0  0  0  0  0  0  0  0  0
   59.3310   30.0930   48.7850 C   0  0  0  0  0  0  0  0  0  0  0  0
   58.8570   28.8570   48.3460 C   0  0  0  0  0  0  0  0  0  0  0  0
   59.3530   28.2830   47.1610 C   0  0  0  0  0  0  0  0  0  0  0  0
   58.8930   26.9440   46.7200 C   0  0  0  0  0  0  0  0  0  0  0  0
   59.6770   26.1810   46.0940 O   0  0  0  0  0  0  0  0  0  0  0  0
   57.5380   26.5190   46.9290 N   0  0  0  0  0  0  0  0  0  0  0  0
   56.9210   25.5080   46.3800 C   0  0  0  0  0  0  0  0  0  0  0  0
   57.5980   24.3300   46.2850 N   0  0  0  0  0  0  0  0  0  0  0  0
   57.0580   23.2190   45.7190 C   0  0  0  0  0  0  0  0  0  0  0  0
   55.7610   23.2520   45.2150 C   0  0  0  0  0  0  0  0  0  0  0  0
   55.0240   24.4310   45.3100 C   0  0  0  0  0  0  0  0  0  0  0  0
   55.5880   25.5680   45.8950 C   0  0  0  0  0  0  0  0  0  0  0  0
   54.8030   26.7110   46.0070 O   0  0  0  0  0  0  0  0  0  0  0  0
   60.3110   28.9890   46.4120 C   0  0  0  0  0  0  0  0  0  0  0  0
   60.7900   30.2240   46.8580 C   0  0  0  0  0  0  0  0  0  0  0  0
   59.7580   34.7320   46.5590 N   0  0  0  0  0  0  0  0  0  0  0  0
   59.2960   35.0600   45.3250 C   0  0  0  0  0  0  0  0  0  0  0  0
   58.6320   34.1080   44.5500 C   0  0  0  0  0  0  0  0  0  0  0  0
   57.3110   30.5640   44.9440 C   0  0  0  0  0  0  0  0  0  0  0  0
   56.6550   29.5780   44.2030 C   0  0  0  0  0  0  0  0  0  0  0  0
  1  2  2  0
  2  3  1  0
  3  4  2  0
  4  5  1  0
  5  6  2  0
  6  7  1  0
  7  8  2  3
  8  9  1  0
  9 10  1  0
 10 11  2  0
 11 12  1  0
 12 13  2  0
 13 14  1  0
 14 15  2  0
 14 16  1  0
 16 17  2  0
 17 18  1  0
 18 19  1  0
 19 20  2  0
 20 21  1  0
 21 22  2  0
 22 23  1  0
 13 24  1  0
 24 25  2  0
  7 26  1  0
 26 27  1  0
 27 28  2  0
  4 29  1  0
 29 30  2  0
 30  1  1  0
 28  5  1  0
 25 10  1  0
 22 17  1  0
M  CHG  3  18  -1  23  -1  26  -1
M  END
>  <UniqueID>  (204) 
10

>  <SMILES>  (204) 
O=C(/N=c1/[n-]cccc1[O-])c1ccc(CN=c2nc(-c3cccnc3)cc[n-]2)cc1

>  <Energy>  (204) 
65.47074489956361

>  <Genealogy>  (204) 
O=C(N=c1[n-]cccc1[O-])c1ccc(CN=c2nc(-c3cccnc3)cc[n-]2)cc1 (protonated)
O=C(/N=c1/[n-]cccc1[O-])c1ccc(CN=c2nc(-c3cccnc3)cc[n-]2)cc1 (cis-trans isomerization)
O=C(/N=c1/[n-]cccc1[O-])c1ccc(CN=c2nc(-c3cccnc3)cc[n-]2)cc1 (3D coordinates assigned)
O=C(/N=c1/[n-]cccc1[O-])c1ccc(CN=c2nc(-c3cccnc3)cc[n-]2)cc1 (optimized conformer: 65.47074489956361 kcal/mol)

>  <smiles>  (204) 
O=C(N=c1[nH]cccc1O)c1ccc(CN=c2nc(-c3cccnc3)cc[nH]2)cc1

>  <score_type>  (204) 
oracle

>  <origin>  (204) 
adg

>  <m_score__min__energy>  (204) 
-15.56

>  <m_primary>  (204) 
energy

$$$$
23:0
     RDKit          3D

 27 31  0  0  0  0  0  0  0  0999 V2000
   56.7850   29.3330   44.4230 C   0  0  0  0  0  0  0  0  0  0  0  0
   56.7280   30.5320   44.9240 N   0  0  0  0  0  0  0  0  0  0  0  0
   57.4310   30.5050   46.1380 N   0  0  0  0  0  0  0  0  0  0  0  0
   58.2780   31.4390   46.6130 C   0  0  0  0  0  0  0  0  0  0  0  0
   58.1230   32.7240   46.4910 N   0  0  0  0  0  0  0  0  0  0  0  0
   57.5610   33.3730   45.3110 C   0  0  0  0  0  0  0  0  0  0  0  0
   58.4870   33.3090   44.1120 C   0  0  0  0  0  0  0  0  0  0  0  0
   58.3140   34.6150   44.8730 C   0  0  0  0  0  0  0  0  0  0  0  0
   59.3750   30.8840   47.1780 N   0  0  0  0  0  0  0  0  0  0  0  0
   59.1560   29.5610   46.9640 C   0  0  0  0  0  0  0  0  0  0  0  0
   60.0170   28.6210   47.2220 N   0  0  0  0  0  0  0  0  0  0  0  0
   60.4310   28.1580   48.5180 C   0  0  0  0  0  0  0  0  0  0  0  0
   60.4250   26.7930   48.8660 C   0  0  0  0  0  0  0  0  0  0  0  0
   60.8010   26.3940   50.1530 C   0  0  0  0  0  0  0  0  0  0  0  0
   61.1670   27.3500   51.1050 C   0  0  0  0  0  0  0  0  0  0  0  0
   61.1440   28.7070   50.7760 C   0  0  0  0  0  0  0  0  0  0  0  0
   60.7680   29.1100   49.4900 C   0  0  0  0  0  0  0  0  0  0  0  0
   57.9560   29.3330   46.3880 N   0  0  0  0  0  0  0  0  0  0  0  0
   57.5670   28.4750   45.3220 C   0  0  0  0  0  0  0  0  0  0  0  0
   57.8090   27.1680   45.1720 C   0  0  0  0  0  0  0  0  0  0  0  0
   57.2510   26.1170   46.0380 C   0  0  0  0  0  0  0  0  0  0  0  0
   57.9810   25.1060   46.5410 N   0  0  0  0  0  0  0  0  0  0  0  0
   57.0700   24.3540   47.1920 C   0  0  0  0  0  0  0  0  0  0  0  0
   57.3780   23.3050   47.8160 O   0  0  0  0  0  0  0  0  0  0  0  0
   55.8000   24.8070   47.1150 N   0  0  0  0  0  0  0  0  0  0  0  0
   55.9290   25.9170   46.3720 C   0  0  0  0  0  0  0  0  0  0  0  0
   54.8560   26.7100   45.9840 O   0  0  0  0  0  0  0  0  0  0  0  0
  1  2  2  0
  2  3  1  0
  3  4  1  0
  4  5  2  0
  5  6  1  0
  6  7  1  0
  7  8  1  0
  4  9  1  0
  9 10  1  0
 10 11  2  3
 11 12  1  0
 12 13  2  0
 13 14  1  0
 14 15  2  0
 15 16  1  0
 16 17  2  0
 10 18  1  0
 18 19  1  0
 19 20  2  3
 20 21  1  0
 21 22  1  0
 22 23  1  0
 23 24  2  0
 23 25  1  0
 25 26  1  0
 26 27  1  0
 19  1  1  0
 26 21  2  0
 18  3  1  0
  8  6  1  0
 17 12  1  0
M  CHG  4   9  -1  22  -1  25  -1  27  -1
M  END
>  <UniqueID>  (205) 
20

>  <SMILES>  (205) 
O=c1[n-]c([O-])c(C=C2C=Nn3/c(=N\C4CC4)[n-]c(=Nc4ccccc4)n32)[n-]1

>  <Energy>  (205) 
443.4303901749784

>  <Genealogy>  (205) 
O=c1[n-]c([O-])c(C=C2C=Nn3c(=NC4CC4)[n-]c(=Nc4ccccc4)n32)[n-]1 (protonated)
O=c1[n-]c([O-])c(C=C2C=Nn3/c(=N\C4CC4)[n-]c(=Nc4ccccc4)n32)[n-]1 (cis-trans isomerization)
O=c1[n-]c([O-])c(C=C2C=Nn3/c(=N\C4CC4)[n-]c(=Nc4ccccc4)n32)[n-]1 (3D coordinates assigned)
O=c1[n-]c([O-])c(C=C2C=Nn3/c(=N\C4CC4)[n-]c(=Nc4ccccc4)n32)[n-]1 (nonaromatic ring conformer: 443.4303901749784 kcal/mol)

>  <smiles>  (205) 
O=c1[nH]c(O)c(C=C2C=Nn3c(=NC4CC4)[nH]c(=Nc4ccccc4)n32)[nH]1

>  <score_type>  (205) 
oracle

>  <origin>  (205) 
adg

>  <m_score__min__energy>  (205) 
-16.68

>  <m_primary>  (205) 
energy

$$$$
41:0
     RDKit          3D

 29 31  0  0  0  0  0  0  0  0999 V2000
   61.4300   34.2150   48.6720 N   0  0  0  0  0  0  0  0  0  0  0  0
   61.5640   33.3180   47.2010 S   0  0  0  0  0  0  0  0  0  0  0  0
   62.6630   33.9150   46.3670 O   0  0  0  0  0  0  0  0  0  0  0  0
   61.8980   31.8860   47.5100 O   0  0  0  0  0  0  0  0  0  0  0  0
   60.0370   33.3870   46.3310 C   0  0  0  0  0  0  0  0  0  0  0  0
   59.6470   34.5720   45.6920 C   0  0  0  0  0  0  0  0  0  0  0  0
   58.4320   34.6310   45.0020 C   0  0  0  0  0  0  0  0  0  0  0  0
   57.5920   33.5140   44.9640 C   0  0  0  0  0  0  0  0  0  0  0  0
   57.9550   32.3390   45.6320 C   0  0  0  0  0  0  0  0  0  0  0  0
   57.0880   31.2020   45.5820 N   0  0  0  0  0  0  0  0  0  0  0  0
   57.1650   30.1590   44.6030 C   0  0  0  0  0  0  0  0  0  0  0  0
   57.9920   30.2690   43.6590 O   0  0  0  0  0  0  0  0  0  0  0  0
   56.2210   28.9850   44.6210 C   0  0  0  0  0  0  0  0  0  0  0  0
   56.8020   27.8330   45.3170 N   0  0  0  0  0  0  0  0  0  0  0  0
   56.1590   26.8310   45.9380 C   0  0  0  0  0  0  0  0  0  0  0  0
   54.7770   26.6880   45.9960 O   0  0  0  0  0  0  0  0  0  0  0  0
   57.0860   25.9930   46.5180 C   0  0  0  0  0  0  0  0  0  0  0  0
   56.7960   24.7890   47.3620 C   0  0  0  0  0  0  0  0  0  0  0  0
   55.7200   23.8980   46.7260 C   0  0  0  0  0  0  0  0  0  0  0  0
   56.1850   23.3090   45.4190 C   0  0  0  0  0  0  0  0  0  0  0  0
   55.5300   23.6350   44.2190 C   0  0  0  0  0  0  0  0  0  0  0  0
   55.9370   23.0540   43.0140 C   0  0  0  0  0  0  0  0  0  0  0  0
   56.9950   22.1420   42.9980 C   0  0  0  0  0  0  0  0  0  0  0  0
   57.6460   21.8050   44.1890 C   0  0  0  0  0  0  0  0  0  0  0  0
   57.2410   22.3830   45.3970 C   0  0  0  0  0  0  0  0  0  0  0  0
   58.3270   26.4820   46.3050 N   0  0  0  0  0  0  0  0  0  0  0  0
   58.1080   27.5990   45.5760 C   0  0  0  0  0  0  0  0  0  0  0  0
   59.0410   28.3490   45.1840 O   0  0  0  0  0  0  0  0  0  0  0  0
   59.1940   32.2680   46.2850 C   0  0  0  0  0  0  0  0  0  0  0  0
  1  2  1  0
  2  3  2  0
  2  4  2  0
  2  5  1  0
  5  6  2  0
  6  7  1  0
  7  8  2  0
  8  9  1  0
  9 10  1  0
 10 11  1  0
 11 12  2  0
 11 13  1  0
 13 14  1  0
 14 15  1  0
 15 16  1  0
 15 17  2  0
 17 18  1  0
 18 19  1  0
 19 20  1  0
 20 21  2  0
 21 22  1  0
 22 23  2  0
 23 24  1  0
 24 25  2  0
 17 26  1  0
 26 27  1  0
 27 28  2  0
  9 29  2  0
 29  5  1  0
 27 14  1  0
 25 20  1  0
M  CHG  4   1  -1  10  -1  16  -1  26  -1
M  END
>  <UniqueID>  (206) 
37

>  <SMILES>  (206) 
[NH-]S(=O)(=O)c1cccc([N-]C(=O)Cn2c([O-])c(CCc3ccccc3)[n-]c2=O)c1

>  <Energy>  (206) 
78.67900681067901

>  <Genealogy>  (206) 
[NH-]S(=O)(=O)c1cccc([N-]C(=O)Cn2c([O-])c(CCc3ccccc3)[n-]c2=O)c1 (protonated)
[NH-]S(=O)(=O)c1cccc([N-]C(=O)Cn2c([O-])c(CCc3ccccc3)[n-]c2=O)c1 (3D coordinates assigned)
[NH-]S(=O)(=O)c1cccc([N-]C(=O)Cn2c([O-])c(CCc3ccccc3)[n-]c2=O)c1 (optimized conformer: 78.67900681067901 kcal/mol)

>  <smiles>  (206) 
NS(=O)(=O)c1cccc(NC(=O)Cn2c(O)c(CCc3ccccc3)[nH]c2=O)c1

>  <score_type>  (206) 
oracle

>  <origin>  (206) 
adg

>  <m_score__min__energy>  (206) 
-16.260000000000002

>  <m_primary>  (206) 
energy

$$$$
70:0
     RDKit          3D

 35 38  0  0  0  0  0  0  0  0999 V2000
   54.0180   25.6790   45.6190 N   0  0  0  0  0  0  0  0  0  0  0  0
   53.4370   24.0620   45.4210 S   0  0  0  0  0  0  0  0  0  0  0  0
   53.4140   23.7250   43.9590 O   0  0  0  0  0  0  0  0  0  0  0  0
   52.0400   23.9590   45.9720 O   0  0  0  0  0  0  0  0  0  0  0  0
   54.4850   22.9410   46.2890 C   0  0  0  0  0  0  0  0  0  0  0  0
   53.9590   22.0560   47.2390 C   0  0  0  0  0  0  0  0  0  0  0  0
   54.8080   21.1980   47.9430 C   0  0  0  0  0  0  0  0  0  0  0  0
   56.1870   21.2220   47.7100 C   0  0  0  0  0  0  0  0  0  0  0  0
   56.7250   22.0950   46.7560 C   0  0  0  0  0  0  0  0  0  0  0  0
   58.1390   22.0680   46.5220 N   0  0  0  0  0  0  0  0  0  0  0  0
   58.9680   23.0030   45.3180 S   0  0  0  0  0  0  0  0  0  0  0  0
   60.4080   22.5710   45.2490 O   0  0  0  0  0  0  0  0  0  0  0  0
   58.3170   22.7560   43.9840 O   0  0  0  0  0  0  0  0  0  0  0  0
   58.8500   24.7210   45.6930 C   0  0  0  0  0  0  0  0  0  0  0  0
   57.6060   25.3630   45.6640 C   0  0  0  0  0  0  0  0  0  0  0  0
   57.5020   26.7150   46.0130 C   0  0  0  0  0  0  0  0  0  0  0  0
   58.6420   27.4380   46.4010 C   0  0  0  0  0  0  0  0  0  0  0  0
   58.5430   28.8580   46.8040 C   0  0  0  0  0  0  0  0  0  0  0  0
   59.3730   29.3310   47.6280 O   0  0  0  0  0  0  0  0  0  0  0  0
   57.4790   29.6810   46.3020 N   0  0  0  0  0  0  0  0  0  0  0  0
   57.3770   30.2060   44.9680 C   0  0  0  0  0  0  0  0  0  0  0  0
   56.7420   29.4730   43.9480 C   0  0  0  0  0  0  0  0  0  0  0  0
   56.6180   30.0090   42.6650 C   0  0  0  0  0  0  0  0  0  0  0  0
   57.1110   31.2830   42.3870 C   0  0  0  0  0  0  0  0  0  0  0  0
   57.7150   32.0330   43.3960 C   0  0  0  0  0  0  0  0  0  0  0  0
   57.8440   31.5110   44.6930 C   0  0  0  0  0  0  0  0  0  0  0  0
   58.4570   32.3160   45.7160 N   0  0  0  0  0  0  0  0  0  0  0  0
   57.7720   33.5020   46.2380 C   0  0  0  0  0  0  0  0  0  0  0  0
   58.8000   34.6130   46.4710 C   0  0  0  0  0  0  0  0  0  0  0  0
   59.8620   34.1470   47.2860 O   0  0  0  0  0  0  0  0  0  0  0  0
   60.5800   33.1300   46.6100 C   0  0  0  0  0  0  0  0  0  0  0  0
   59.6980   31.9020   46.3710 C   0  0  0  0  0  0  0  0  0  0  0  0
   59.8880   26.7880   46.4220 C   0  0  0  0  0  0  0  0  0  0  0  0
   59.9900   25.4400   46.0740 C   0  0  0  0  0  0  0  0  0  0  0  0
   55.8650   22.9470   46.0390 C   0  0  0  0  0  0  0  0  0  0  0  0
  1  2  1  0
  2  3  2  0
  2  4  2  0
  2  5  1  0
  5  6  2  0
  6  7  1  0
  7  8  2  0
  8  9  1  0
  9 10  1  0
 10 11  1  0
 11 12  2  0
 11 13  2  0
 11 14  1  0
 14 15  2  0
 15 16  1  0
 16 17  2  0
 17 18  1  0
 18 19  2  0
 18 20  1  0
 20 21  1  0
 21 22  2  0
 22 23  1  0
 23 24  2  0
 24 25  1  0
 25 26  2  0
 26 27  1  0
 27 28  1  0
 28 29  1  0
 29 30  1  0
 30 31  1  0
 31 32  1  0
 17 33  1  0
 33 34  2  0
  9 35  2  0
 35  5  1  0
 34 14  1  0
 26 21  1  0
 32 27  1  0
M  CHG  3   1  -1  10  -1  20  -1
M  END
>  <UniqueID>  (207) 
61

>  <SMILES>  (207) 
[NH-]S(=O)(=O)c1cccc([N-]S(=O)(=O)c2ccc(C(=O)[N-]c3ccccc3N3CCOCC3)cc2)c1

>  <Energy>  (207) 
73.59090718858049

>  <Genealogy>  (207) 
[NH-]S(=O)(=O)c1cccc([N-]S(=O)(=O)c2ccc(C(=O)[N-]c3ccccc3N3CCOCC3)cc2)c1 (protonated)
[NH-]S(=O)(=O)c1cccc([N-]S(=O)(=O)c2ccc(C(=O)[N-]c3ccccc3N3CCOCC3)cc2)c1 (3D coordinates assigned)
[NH-]S(=O)(=O)c1cccc([N-]S(=O)(=O)c2ccc(C(=O)[N-]c3ccccc3N3CCOCC3)cc2)c1 (nonaromatic ring conformer: 73.59090718858049 kcal/mol)

>  <smiles>  (207) 
NS(=O)(=O)c1cccc(NS(=O)(=O)c2ccc(C(=O)Nc3ccccc3N3CCOCC3)cc2)c1

>  <score_type>  (207) 
oracle

>  <origin>  (207) 
adg

>  <m_score__min__energy>  (207) 
-15.550000000000001

>  <m_primary>  (207) 
energy

$$$$
72:0
     RDKit          3D

 29 31  0  0  0  0  0  0  0  0999 V2000
   57.4200   31.4880   51.6340 C   0  0  0  0  0  0  0  0  0  0  0  0
   57.7440   30.4130   50.7590 O   0  0  0  0  0  0  0  0  0  0  0  0
   58.7410   30.4670   49.7750 C   0  0  0  0  0  0  0  0  0  0  0  0
   59.3870   29.3130   49.2910 C   0  0  0  0  0  0  0  0  0  0  0  0
   60.3990   29.4260   48.3330 C   0  0  0  0  0  0  0  0  0  0  0  0
   60.7680   30.6800   47.8440 C   0  0  0  0  0  0  0  0  0  0  0  0
   60.1180   31.8390   48.3050 C   0  0  0  0  0  0  0  0  0  0  0  0
   60.4630   33.1460   47.8280 N   0  0  0  0  0  0  0  0  0  0  0  0
   59.5140   34.0950   46.7310 S   0  0  0  0  0  0  0  0  0  0  0  0
   58.5120   34.8960   47.5140 O   0  0  0  0  0  0  0  0  0  0  0  0
   60.4130   35.0440   45.9890 O   0  0  0  0  0  0  0  0  0  0  0  0
   58.6520   33.0390   45.6160 C   0  0  0  0  0  0  0  0  0  0  0  0
   58.5120   33.3840   44.2640 C   0  0  0  0  0  0  0  0  0  0  0  0
   57.8620   32.5170   43.3840 C   0  0  0  0  0  0  0  0  0  0  0  0
   57.3360   31.3090   43.8490 C   0  0  0  0  0  0  0  0  0  0  0  0
   57.4370   30.9670   45.2050 C   0  0  0  0  0  0  0  0  0  0  0  0
   56.8880   29.7240   45.6640 N   0  0  0  0  0  0  0  0  0  0  0  0
   57.6770   28.5380   45.8640 C   0  0  0  0  0  0  0  0  0  0  0  0
   58.9380   28.6150   45.8710 O   0  0  0  0  0  0  0  0  0  0  0  0
   57.0200   27.2350   46.1000 C   0  0  0  0  0  0  0  0  0  0  0  0
   57.7250   26.1590   46.6620 C   0  0  0  0  0  0  0  0  0  0  0  0
   57.0520   24.9510   46.8590 C   0  0  0  0  0  0  0  0  0  0  0  0
   57.6540   23.9660   47.3630 O   0  0  0  0  0  0  0  0  0  0  0  0
   55.7470   24.8340   46.5040 N   0  0  0  0  0  0  0  0  0  0  0  0
   55.0770   25.8830   45.9590 C   0  0  0  0  0  0  0  0  0  0  0  0
   53.8670   25.7560   45.6360 O   0  0  0  0  0  0  0  0  0  0  0  0
   55.7130   27.0670   45.7620 N   0  0  0  0  0  0  0  0  0  0  0  0
   58.1150   31.8320   46.0830 C   0  0  0  0  0  0  0  0  0  0  0  0
   59.1120   31.7200   49.2720 C   0  0  0  0  0  0  0  0  0  0  0  0
  1  2  1  0
  2  3  1  0
  3  4  2  0
  4  5  1  0
  5  6  2  0
  6  7  1  0
  7  8  1  0
  8  9  1  0
  9 10  2  0
  9 11  2  0
  9 12  1  0
 12 13  2  0
 13 14  1  0
 14 15  2  0
 15 16  1  0
 16 17  1  0
 17 18  1  0
 18 19  2  0
 18 20  1  0
 20 21  2  0
 21 22  1  0
 22 23  2  0
 22 24  1  0
 24 25  1  0
 25 26  2  0
 25 27  1  0
 16 28  2  0
  7 29  2  0
 29  3  1  0
 28 12  1  0
 27 20  1  0
M  CHG  3   8  -1  24  -1  27  -1
M  END
>  <UniqueID>  (208) 
63

>  <SMILES>  (208) 
COc1cccc([N-]S(=O)(=O)c2cccc(NC(=O)c3cc(=O)[n-]c(=O)[n-]3)c2)c1

>  <Energy>  (208) 
52.47065014713843

>  <Genealogy>  (208) 
COc1cccc([N-]S(=O)(=O)c2cccc(NC(=O)c3cc(=O)[n-]c(=O)[n-]3)c2)c1 (protonated)
COc1cccc([N-]S(=O)(=O)c2cccc(NC(=O)c3cc(=O)[n-]c(=O)[n-]3)c2)c1 (3D coordinates assigned)
COc1cccc([N-]S(=O)(=O)c2cccc(NC(=O)c3cc(=O)[n-]c(=O)[n-]3)c2)c1 (optimized conformer: 52.47065014713843 kcal/mol)

>  <smiles>  (208) 
COc1cccc(NS(=O)(=O)c2cccc(NC(=O)c3cc(=O)[nH]c(=O)[nH]3)c2)c1

>  <score_type>  (208) 
oracle

>  <origin>  (208) 
adg

>  <m_score__min__energy>  (208) 
-14.210000000000001

>  <m_primary>  (208) 
energy

$$$$
11:0
     RDKit          3D

 21 22  0  0  0  0  0  0  0  0999 V2000
   55.1960   29.3540   44.8810 N   0  0  0  0  0  0  0  0  0  0  0  0
   56.5640   30.2660   44.3450 S   0  0  0  0  0  0  0  0  0  0  0  0
   56.8180   29.9910   42.8900 O   0  0  0  0  0  0  0  0  0  0  0  0
   56.2670   31.7310   44.5110 O   0  0  0  0  0  0  0  0  0  0  0  0
   57.9870   29.8190   45.2940 C   0  0  0  0  0  0  0  0  0  0  0  0
   58.8480   30.8240   45.7610 C   0  0  0  0  0  0  0  0  0  0  0  0
   59.9760   30.4950   46.5150 C   0  0  0  0  0  0  0  0  0  0  0  0
   60.2570   29.1610   46.8060 C   0  0  0  0  0  0  0  0  0  0  0  0
   59.4060   28.1500   46.3530 C   0  0  0  0  0  0  0  0  0  0  0  0
   58.2520   28.4680   45.6060 C   0  0  0  0  0  0  0  0  0  0  0  0
   57.3590   27.4490   45.1200 N   0  0  0  0  0  0  0  0  0  0  0  0
   57.6640   26.2090   44.8750 C   0  0  0  0  0  0  0  0  0  0  0  0
   56.7340   25.1150   45.2480 C   0  0  0  0  0  0  0  0  0  0  0  0
   55.4670   25.3890   45.8180 C   0  0  0  0  0  0  0  0  0  0  0  0
   54.9880   26.6890   45.9940 O   0  0  0  0  0  0  0  0  0  0  0  0
   54.6640   24.3610   46.1930 N   0  0  0  0  0  0  0  0  0  0  0  0
   55.0380   23.0690   46.0250 C   0  0  0  0  0  0  0  0  0  0  0  0
   54.0370   21.8640   46.4860 S   0  0  0  0  0  0  0  0  0  0  0  0
   56.2380   22.7770   45.4720 N   0  0  0  0  0  0  0  0  0  0  0  0
   57.0920   23.7590   45.0840 C   0  0  0  0  0  0  0  0  0  0  0  0
   58.2070   23.4360   44.5950 O   0  0  0  0  0  0  0  0  0  0  0  0
  1  2  1  0
  2  3  2  0
  2  4  2  0
  2  5  1  0
  5  6  2  0
  6  7  1  0
  7  8  2  0
  8  9  1  0
  9 10  2  0
 10 11  1  0
 11 12  2  3
 12 13  1  0
 13 14  2  0
 14 15  1  0
 14 16  1  0
 16 17  1  0
 17 18  2  0
 17 19  1  0
 19 20  1  0
 20 21  2  0
 10  5  1  0
 20 13  1  0
M  CHG  3   1  -1  16  -1  19  -1
M  END
>  <UniqueID>  (209) 
10

>  <SMILES>  (209) 
[NH-]S(=O)(=O)c1ccccc1N=Cc1c(O)[n-]c(=S)[n-]c1=O

>  <Energy>  (209) 
38.065609749298176

>  <Genealogy>  (209) 
[NH-]S(=O)(=O)c1ccccc1N=Cc1c(O)[n-]c(=S)[n-]c1=O (protonated)
[NH-]S(=O)(=O)c1ccccc1N=Cc1c(O)[n-]c(=S)[n-]c1=O (3D coordinates assigned)
[NH-]S(=O)(=O)c1ccccc1N=Cc1c(O)[n-]c(=S)[n-]c1=O (optimized conformer: 38.065609749298176 kcal/mol)

>  <smiles>  (209) 
NS(=O)(=O)c1ccccc1N=Cc1c(O)[nH]c(=S)[nH]c1=O

>  <score_type>  (209) 
oracle

>  <origin>  (209) 
adg

>  <m_score__min__energy>  (209) 
-14.09

>  <m_primary>  (209) 
energy

$$$$
13:0
     RDKit          3D

 30 32  0  0  0  0  0  0  0  0999 V2000
   65.5970   32.8050   50.3380 C   0  0  0  0  0  0  0  0  0  0  0  0
   65.1080   33.0930   49.0320 O   0  0  0  0  0  0  0  0  0  0  0  0
   63.7500   33.1240   48.6830 C   0  0  0  0  0  0  0  0  0  0  0  0
   63.2510   32.4850   47.5310 C   0  0  0  0  0  0  0  0  0  0  0  0
   61.8890   32.5470   47.2260 C   0  0  0  0  0  0  0  0  0  0  0  0
   61.0110   33.2620   48.0490 C   0  0  0  0  0  0  0  0  0  0  0  0
   59.6170   33.2940   47.7200 N   0  0  0  0  0  0  0  0  0  0  0  0
   59.0030   34.1200   46.7210 C   0  0  0  0  0  0  0  0  0  0  0  0
   59.6590   35.0850   46.2470 O   0  0  0  0  0  0  0  0  0  0  0  0
   57.5770   33.9240   46.2780 C   0  0  0  0  0  0  0  0  0  0  0  0
   57.4710   33.5690   44.4880 S   0  0  0  0  0  0  0  0  0  0  0  0
   57.5140   31.7900   44.6880 C   0  0  0  0  0  0  0  0  0  0  0  0
   58.7020   31.1550   44.8520 N   0  0  0  0  0  0  0  0  0  0  0  0
   58.7610   29.8060   45.0040 C   0  0  0  0  0  0  0  0  0  0  0  0
   59.8760   29.2580   45.2040 O   0  0  0  0  0  0  0  0  0  0  0  0
   57.5750   29.0460   44.9710 C   0  0  0  0  0  0  0  0  0  0  0  0
   57.5640   27.6210   45.1420 N   0  0  0  0  0  0  0  0  0  0  0  0
   57.6430   26.9250   46.3940 C   0  0  0  0  0  0  0  0  0  0  0  0
   56.8090   26.0180   46.6610 O   0  0  0  0  0  0  0  0  0  0  0  0
   58.6700   27.3070   47.3920 C   0  0  0  0  0  0  0  0  0  0  0  0
   58.6220   28.5660   48.0210 C   0  0  0  0  0  0  0  0  0  0  0  0
   59.5900   28.9240   48.9640 C   0  0  0  0  0  0  0  0  0  0  0  0
   60.6140   28.0310   49.2910 C   0  0  0  0  0  0  0  0  0  0  0  0
   60.6720   26.7800   48.6750 C   0  0  0  0  0  0  0  0  0  0  0  0
   59.7070   26.4170   47.7310 C   0  0  0  0  0  0  0  0  0  0  0  0
   56.3620   29.7310   44.8400 C   0  0  0  0  0  0  0  0  0  0  0  0
   55.1600   29.0300   44.8460 O   0  0  0  0  0  0  0  0  0  0  0  0
   56.3560   31.0820   44.6950 N   0  0  0  0  0  0  0  0  0  0  0  0
   61.5010   33.8730   49.2120 C   0  0  0  0  0  0  0  0  0  0  0  0
   62.8630   33.8110   49.5190 C   0  0  0  0  0  0  0  0  0  0  0  0
  1  2  1  0
  2  3  1  0
  3  4  2  0
  4  5  1  0
  5  6  2  0
  6  7  1  0
  7  8  1  0
  8  9  2  0
  8 10  1  0
 10 11  1  0
 11 12  1  0
 12 13  2  0
 13 14  1  0
 14 15  2  0
 14 16  1  0
 16 17  1  0
 17 18  1  0
 18 19  2  0
 18 20  1  0
 20 21  2  0
 21 22  1  0
 22 23  2  0
 23 24  1  0
 24 25  2  0
 16 26  2  0
 26 27  1  0
 26 28  1  0
  6 29  1  0
 29 30  2  0
 30  3  1  0
 28 12  1  0
 25 20  1  0
M  CHG  3   7  -1  17  -1  28  -1
M  END
>  <UniqueID>  (210) 
12

>  <SMILES>  (210) 
COc1ccc([N-]C(=O)CSc2nc(=O)c([N-]C(=O)c3ccccc3)c(O)[n-]2)cc1

>  <Energy>  (210) 
55.12636864765485

>  <Genealogy>  (210) 
COc1ccc([N-]C(=O)CSc2nc(=O)c([N-]C(=O)c3ccccc3)c(O)[n-]2)cc1 (protonated)
COc1ccc([N-]C(=O)CSc2nc(=O)c([N-]C(=O)c3ccccc3)c(O)[n-]2)cc1 (3D coordinates assigned)
COc1ccc([N-]C(=O)CSc2nc(=O)c([N-]C(=O)c3ccccc3)c(O)[n-]2)cc1 (optimized conformer: 55.12636864765485 kcal/mol)

>  <smiles>  (210) 
COc1ccc(NC(=O)CSc2nc(=O)c(NC(=O)c3ccccc3)c(O)[nH]2)cc1

>  <score_type>  (210) 
oracle

>  <origin>  (210) 
adg

>  <m_score__min__energy>  (210) 
-14.65

>  <m_primary>  (210) 
energy

$$$$
27:0
     RDKit          3D

 21 22  0  0  0  0  0  0  0  0999 V2000
   57.0540   24.9730   46.8970 C   0  0  0  0  0  0  0  0  0  0  0  0
   58.0750   25.4370   46.2340 N   0  0  0  0  0  0  0  0  0  0  0  0
   58.3480   26.8180   45.9520 C   0  0  0  0  0  0  0  0  0  0  0  0
   57.2940   27.6390   45.5270 C   0  0  0  0  0  0  0  0  0  0  0  0
   57.5110   28.9970   45.2400 C   0  0  0  0  0  0  0  0  0  0  0  0
   56.3850   29.8610   44.8210 C   0  0  0  0  0  0  0  0  0  0  0  0
   56.5870   31.0610   44.4920 O   0  0  0  0  0  0  0  0  0  0  0  0
   55.0890   29.3610   44.7830 O   0  0  0  0  0  0  0  0  0  0  0  0
   58.8100   29.5200   45.3560 C   0  0  0  0  0  0  0  0  0  0  0  0
   59.8720   28.6960   45.7350 C   0  0  0  0  0  0  0  0  0  0  0  0
   59.6540   27.3450   46.0220 C   0  0  0  0  0  0  0  0  0  0  0  0
   61.0440   26.3270   46.3750 Cl  0  0  0  0  0  0  0  0  0  0  0  0
   55.8220   24.4500   46.2600 C   0  0  0  0  0  0  0  0  0  0  0  0
   54.7660   25.2950   45.8760 C   0  0  0  0  0  0  0  0  0  0  0  0
   54.8510   26.6710   46.0530 O   0  0  0  0  0  0  0  0  0  0  0  0
   53.6580   24.7720   45.2910 N   0  0  0  0  0  0  0  0  0  0  0  0
   53.5560   23.4420   45.0440 C   0  0  0  0  0  0  0  0  0  0  0  0
   52.5160   22.9800   44.5060 O   0  0  0  0  0  0  0  0  0  0  0  0
   54.5780   22.6110   45.3670 N   0  0  0  0  0  0  0  0  0  0  0  0
   55.7070   23.0820   45.9560 C   0  0  0  0  0  0  0  0  0  0  0  0
   56.6380   22.2810   46.2380 O   0  0  0  0  0  0  0  0  0  0  0  0
  1  2  2  0
  2  3  1  0
  3  4  2  0
  4  5  1  0
  5  6  1  0
  6  7  2  0
  6  8  1  0
  5  9  2  0
  9 10  1  0
 10 11  2  0
 11 12  1  0
  1 13  1  0
 13 14  2  0
 14 15  1  0
 14 16  1  0
 16 17  1  0
 17 18  2  0
 17 19  1  0
 19 20  1  0
 20 21  2  0
 11  3  1  0
 20 13  1  0
M  CHG  4   8  -1  15  -1  16  -1  19  -1
M  END
>  <UniqueID>  (211) 
25

>  <SMILES>  (211) 
O=C([O-])c1ccc(Cl)c(/N=C\c2c([O-])[n-]c(=O)[n-]c2=O)c1

>  <Energy>  (211) 
43.99653120241122

>  <Genealogy>  (211) 
O=C([O-])c1ccc(Cl)c(N=Cc2c([O-])[n-]c(=O)[n-]c2=O)c1 (protonated)
O=C([O-])c1ccc(Cl)c(/N=C\c2c([O-])[n-]c(=O)[n-]c2=O)c1 (cis-trans isomerization)
O=C([O-])c1ccc(Cl)c(/N=C\c2c([O-])[n-]c(=O)[n-]c2=O)c1 (3D coordinates assigned)
O=C([O-])c1ccc(Cl)c(/N=C\c2c([O-])[n-]c(=O)[n-]c2=O)c1 (optimized conformer: 43.99653120241122 kcal/mol)

>  <smiles>  (211) 
O=C(O)c1ccc(Cl)c(N=Cc2c(O)[nH]c(=O)[nH]c2=O)c1

>  <score_type>  (211) 
oracle

>  <origin>  (211) 
adg

>  <m_score__min__energy>  (211) 
-16.210000000000001

>  <m_primary>  (211) 
energy

$$$$
90:0
     RDKit          3D

 23 24  0  0  0  0  0  0  0  0999 V2000
   59.9450   31.7090   47.5980 N   0  0  0  0  0  0  0  0  0  0  0  0
   59.1250   32.9600   48.4640 S   0  0  0  0  0  0  0  0  0  0  0  0
   57.6420   32.7290   48.3970 O   0  0  0  0  0  0  0  0  0  0  0  0
   59.4470   34.2860   47.8340 O   0  0  0  0  0  0  0  0  0  0  0  0
   59.6600   32.9790   50.1660 C   0  0  0  0  0  0  0  0  0  0  0  0
   58.6640   32.2730   51.0440 C   0  0  0  0  0  0  0  0  0  0  0  0
   58.5510   30.8740   51.0050 C   0  0  0  0  0  0  0  0  0  0  0  0
   57.6110   30.2210   51.8060 C   0  0  0  0  0  0  0  0  0  0  0  0
   56.7620   30.9570   52.6460 C   0  0  0  0  0  0  0  0  0  0  0  0
   55.7680   30.2780   53.4980 C   0  0  0  0  0  0  0  0  0  0  0  0
   55.6760   30.6050   54.7100 O   0  0  0  0  0  0  0  0  0  0  0  0
   54.8760   29.2820   52.9800 N   0  0  0  0  0  0  0  0  0  0  0  0
   54.1000   29.3930   51.7460 C   0  0  0  0  0  0  0  0  0  0  0  0
   53.0140   30.4270   51.8870 C   0  0  0  0  0  0  0  0  0  0  0  0
   52.4920   30.7330   53.1550 C   0  0  0  0  0  0  0  0  0  0  0  0
   51.4960   31.7040   53.2910 C   0  0  0  0  0  0  0  0  0  0  0  0
   51.0060   32.3710   52.1650 C   0  0  0  0  0  0  0  0  0  0  0  0
   50.0160   33.3350   52.3080 O   0  0  0  0  0  0  0  0  0  0  0  0
   51.5130   32.0640   50.8960 C   0  0  0  0  0  0  0  0  0  0  0  0
   51.0220   32.7170   49.7720 O   0  0  0  0  0  0  0  0  0  0  0  0
   52.5130   31.0960   50.7570 C   0  0  0  0  0  0  0  0  0  0  0  0
   56.8800   32.3540   52.6910 C   0  0  0  0  0  0  0  0  0  0  0  0
   57.8170   33.0080   51.8870 C   0  0  0  0  0  0  0  0  0  0  0  0
  1  2  1  0
  2  3  2  0
  2  4  2  0
  2  5  1  0
  5  6  1  0
  6  7  2  0
  7  8  1  0
  8  9  2  0
  9 10  1  0
 10 11  2  0
 10 12  1  0
 12 13  1  0
 13 14  1  0
 14 15  2  0
 15 16  1  0
 16 17  2  0
 17 18  1  0
 17 19  1  0
 19 20  1  0
 19 21  2  0
  9 22  1  0
 22 23  2  0
 23  6  1  0
 21 14  1  0
M  CHG  4   1  -1  12  -1  18  -1  20  -1
M  END
>  <UniqueID>  (212) 
84

>  <SMILES>  (212) 
[NH-]S(=O)(=O)Cc1ccc(C(=O)[N-]Cc2ccc([O-])c([O-])c2)cc1

>  <Energy>  (212) 
30.874742122897317

>  <Genealogy>  (212) 
[NH-]S(=O)(=O)Cc1ccc(C(=O)[N-]Cc2ccc([O-])c([O-])c2)cc1 (protonated)
[NH-]S(=O)(=O)Cc1ccc(C(=O)[N-]Cc2ccc([O-])c([O-])c2)cc1 (3D coordinates assigned)
[NH-]S(=O)(=O)Cc1ccc(C(=O)[N-]Cc2ccc([O-])c([O-])c2)cc1 (optimized conformer: 30.874742122897317 kcal/mol)

>  <smiles>  (212) 
NS(=O)(=O)Cc1ccc(C(=O)NCc2ccc(O)c(O)c2)cc1

>  <score_type>  (212) 
oracle

>  <origin>  (212) 
adg

>  <m_score__min__energy>  (212) 
-16.969999999999999

>  <m_primary>  (212) 
energy

$$$$
52:0
     RDKit          3D

 26 28  0  0  0  0  0  0  0  0999 V2000
   54.9860   26.1100   46.0290 N   0  0  0  0  0  0  0  0  0  0  0  0
   56.7010   25.9690   45.8760 S   0  0  0  0  0  0  0  0  0  0  0  0
   57.0260   25.3470   44.5470 O   0  0  0  0  0  0  0  0  0  0  0  0
   57.2380   25.0880   46.9690 O   0  0  0  0  0  0  0  0  0  0  0  0
   57.4330   27.5690   46.0020 C   0  0  0  0  0  0  0  0  0  0  0  0
   58.6990   27.7220   46.5880 C   0  0  0  0  0  0  0  0  0  0  0  0
   59.2800   28.9940   46.7070 C   0  0  0  0  0  0  0  0  0  0  0  0
   60.5830   29.1630   47.2780 N   0  0  0  0  0  0  0  0  0  0  0  0
   60.8640   29.3690   48.6680 C   0  0  0  0  0  0  0  0  0  0  0  0
   61.1270   28.3650   49.3840 O   0  0  0  0  0  0  0  0  0  0  0  0
   61.0190   30.7570   49.2380 C   0  0  0  0  0  0  0  0  0  0  0  0
   61.2790   31.7400   48.1840 N   0  0  0  0  0  0  0  0  0  0  0  0
   62.5660   32.2070   47.7710 C   0  0  0  0  0  0  0  0  0  0  0  0
   63.6560   31.6610   48.0870 O   0  0  0  0  0  0  0  0  0  0  0  0
   62.4250   33.4120   46.9670 C   0  0  0  0  0  0  0  0  0  0  0  0
   63.3470   34.0860   46.4380 O   0  0  0  0  0  0  0  0  0  0  0  0
   60.9990   33.6850   46.9210 C   0  0  0  0  0  0  0  0  0  0  0  0
   60.2970   34.7230   46.3120 C   0  0  0  0  0  0  0  0  0  0  0  0
   58.8990   34.7460   46.4490 C   0  0  0  0  0  0  0  0  0  0  0  0
   58.2370   33.7420   47.1850 C   0  0  0  0  0  0  0  0  0  0  0  0
   58.9660   32.7050   47.7930 C   0  0  0  0  0  0  0  0  0  0  0  0
   60.3560   32.6960   47.6490 C   0  0  0  0  0  0  0  0  0  0  0  0
   58.6160   30.1070   46.1780 C   0  0  0  0  0  0  0  0  0  0  0  0
   57.3590   29.9610   45.5880 C   0  0  0  0  0  0  0  0  0  0  0  0
   56.7630   28.6980   45.5010 C   0  0  0  0  0  0  0  0  0  0  0  0
   55.5090   28.5740   44.9120 O   0  0  0  0  0  0  0  0  0  0  0  0
  1  2  1  0
  2  3  2  0
  2  4  2  0
  2  5  1  0
  5  6  2  0
  6  7  1  0
  7  8  1  0
  8  9  1  0
  9 10  2  0
  9 11  1  0
 11 12  1  0
 12 13  1  0
 13 14  2  0
 13 15  1  0
 15 16  2  0
 15 17  1  0
 17 18  2  0
 18 19  1  0
 19 20  2  0
 20 21  1  0
 21 22  2  0
  7 23  2  0
 23 24  1  0
 24 25  2  0
 25 26  1  0
 25  5  1  0
 22 12  1  0
 22 17  1  0
M  CHG  3   1  -1   8  -1  26  -1
M  END
>  <UniqueID>  (213) 
50

>  <SMILES>  (213) 
[NH-]S(=O)(=O)c1cc([N-]C(=O)CN2C(=O)C(=O)c3ccccc32)ccc1[O-]

>  <Energy>  (213) 
75.85878841787203

>  <Genealogy>  (213) 
[NH-]S(=O)(=O)c1cc([N-]C(=O)CN2C(=O)C(=O)c3ccccc32)ccc1[O-] (protonated)
[NH-]S(=O)(=O)c1cc([N-]C(=O)CN2C(=O)C(=O)c3ccccc32)ccc1[O-] (3D coordinates assigned)
[NH-]S(=O)(=O)c1cc([N-]C(=O)CN2C(=O)C(=O)c3ccccc32)ccc1[O-] (nonaromatic ring conformer: 75.85878841787203 kcal/mol)

>  <smiles>  (213) 
NS(=O)(=O)c1cc(NC(=O)CN2C(=O)C(=O)c3ccccc32)ccc1O

>  <score_type>  (213) 
oracle

>  <origin>  (213) 
adg

>  <m_score__min__energy>  (213) 
-15.220000000000001

>  <m_primary>  (213) 
energy

$$$$
8:0
     RDKit          3D

 24 26  0  0  0  0  0  0  0  0999 V2000
   57.7900   31.9120   42.7320 O   0  0  0  0  0  0  0  0  0  0  0  0
   58.0390   31.6030   43.9270 C   0  0  0  0  0  0  0  0  0  0  0  0
   58.7470   32.5410   44.7510 N   0  0  0  0  0  0  0  0  0  0  0  0
   58.3420   32.9750   46.0860 C   0  0  0  0  0  0  0  0  0  0  0  0
   59.5180   32.8960   47.0660 C   0  0  0  0  0  0  0  0  0  0  0  0
   59.5790   31.5360   47.7060 C   0  0  0  0  0  0  0  0  0  0  0  0
   60.4500   30.5570   47.1970 C   0  0  0  0  0  0  0  0  0  0  0  0
   60.5360   29.3040   47.8100 C   0  0  0  0  0  0  0  0  0  0  0  0
   59.7620   29.0220   48.9400 C   0  0  0  0  0  0  0  0  0  0  0  0
   58.9030   29.9950   49.4610 C   0  0  0  0  0  0  0  0  0  0  0  0
   58.1410   29.7160   50.5880 O   0  0  0  0  0  0  0  0  0  0  0  0
   58.8150   31.2510   48.8490 C   0  0  0  0  0  0  0  0  0  0  0  0
   57.5710   30.3000   44.4460 C   0  0  0  0  0  0  0  0  0  0  0  0
   58.4900   29.3270   44.8560 C   0  0  0  0  0  0  0  0  0  0  0  0
   58.0290   28.1160   45.3760 C   0  0  0  0  0  0  0  0  0  0  0  0
   58.9150   27.1250   45.8220 C   0  0  0  0  0  0  0  0  0  0  0  0
   58.4180   25.9260   46.3400 C   0  0  0  0  0  0  0  0  0  0  0  0
   57.0370   25.7100   46.4140 C   0  0  0  0  0  0  0  0  0  0  0  0
   56.1470   26.6930   45.9690 C   0  0  0  0  0  0  0  0  0  0  0  0
   54.7760   26.4680   46.0450 O   0  0  0  0  0  0  0  0  0  0  0  0
   56.6360   27.8980   45.4490 C   0  0  0  0  0  0  0  0  0  0  0  0
   55.7910   28.8350   45.0240 O   0  0  0  0  0  0  0  0  0  0  0  0
   56.1970   30.0010   44.5320 C   0  0  0  0  0  0  0  0  0  0  0  0
   55.3360   30.8420   44.1590 O   0  0  0  0  0  0  0  0  0  0  0  0
  1  2  2  0
  2  3  1  0
  3  4  1  0
  4  5  1  0
  5  6  1  0
  6  7  2  0
  7  8  1  0
  8  9  2  0
  9 10  1  0
 10 11  1  0
 10 12  2  0
  2 13  1  0
 13 14  2  0
 14 15  1  0
 15 16  2  0
 16 17  1  0
 17 18  2  0
 18 19  1  0
 19 20  1  0
 19 21  2  0
 21 22  1  0
 22 23  1  0
 23 24  2  0
 12  6  1  0
 23 13  1  0
 21 15  1  0
M  CHG  3   3  -1  11  -1  20  -1
M  END
>  <UniqueID>  (214) 
7

>  <SMILES>  (214) 
O=C([N-]CCc1cccc([O-])c1)c1cc2cccc([O-])c2oc1=O

>  <Energy>  (214) 
44.565857185302136

>  <Genealogy>  (214) 
O=C([N-]CCc1cccc([O-])c1)c1cc2cccc([O-])c2oc1=O (protonated)
O=C([N-]CCc1cccc([O-])c1)c1cc2cccc([O-])c2oc1=O (3D coordinates assigned)
O=C([N-]CCc1cccc([O-])c1)c1cc2cccc([O-])c2oc1=O (optimized conformer: 44.565857185302136 kcal/mol)

>  <smiles>  (214) 
O=C(NCCc1cccc(O)c1)c1cc2cccc(O)c2oc1=O

>  <score_type>  (214) 
oracle

>  <origin>  (214) 
adg

>  <m_score__min__energy>  (214) 
-14.31

>  <m_primary>  (214) 
energy

$$$$
53:0
     RDKit          3D

 30 33  0  0  0  0  0  0  0  0999 V2000
   59.3930   27.8200   45.5260 O   0  0  0  0  0  0  0  0  0  0  0  0
   58.7880   28.2230   46.5560 C   0  0  0  0  0  0  0  0  0  0  0  0
   57.7860   27.3350   47.2250 C   0  0  0  0  0  0  0  0  0  0  0  0
   57.4470   26.2170   46.3460 N   0  0  0  0  0  0  0  0  0  0  0  0
   58.2600   25.1980   45.9870 C   0  0  0  0  0  0  0  0  0  0  0  0
   59.5930   25.0890   46.3660 O   0  0  0  0  0  0  0  0  0  0  0  0
   57.5700   24.2790   45.2210 C   0  0  0  0  0  0  0  0  0  0  0  0
   56.2710   24.7300   45.1490 C   0  0  0  0  0  0  0  0  0  0  0  0
   56.2300   25.9250   45.8360 C   0  0  0  0  0  0  0  0  0  0  0  0
   55.1020   26.7190   46.0020 O   0  0  0  0  0  0  0  0  0  0  0  0
   55.1830   24.0360   44.3880 C   0  0  0  0  0  0  0  0  0  0  0  0
   55.5570   22.5570   44.1540 C   0  0  0  0  0  0  0  0  0  0  0  0
   57.0160   22.4020   43.6710 C   0  0  0  0  0  0  0  0  0  0  0  0
   58.0250   22.9480   44.7030 C   0  0  0  0  0  0  0  0  0  0  0  0
   59.0910   29.4980   47.1360 N   0  0  0  0  0  0  0  0  0  0  0  0
   58.8490   30.7850   46.5490 C   0  0  0  0  0  0  0  0  0  0  0  0
   58.0220   30.9500   45.4240 C   0  0  0  0  0  0  0  0  0  0  0  0
   57.8050   32.2250   44.8940 C   0  0  0  0  0  0  0  0  0  0  0  0
   58.3980   33.3430   45.4860 C   0  0  0  0  0  0  0  0  0  0  0  0
   59.2010   33.1930   46.6230 C   0  0  0  0  0  0  0  0  0  0  0  0
   59.9640   34.6040   47.3520 S   0  0  0  0  0  0  0  0  0  0  0  0
   59.2410   34.9780   48.6160 O   0  0  0  0  0  0  0  0  0  0  0  0
   59.8720   35.7560   46.3900 O   0  0  0  0  0  0  0  0  0  0  0  0
   61.6410   34.2560   47.6930 N   0  0  0  0  0  0  0  0  0  0  0  0
   62.3130   33.7530   46.4800 C   0  0  0  0  0  0  0  0  0  0  0  0
   63.6660   33.1000   46.8270 C   0  0  0  0  0  0  0  0  0  0  0  0
   64.1010   33.5040   48.1110 O   0  0  0  0  0  0  0  0  0  0  0  0
   63.2230   32.9930   49.1010 C   0  0  0  0  0  0  0  0  0  0  0  0
   61.7380   33.2690   48.7780 C   0  0  0  0  0  0  0  0  0  0  0  0
   59.4200   31.9130   47.1540 C   0  0  0  0  0  0  0  0  0  0  0  0
  1  2  2  0
  2  3  1  0
  3  4  1  0
  4  5  1  0
  5  6  1  0
  5  7  2  0
  7  8  1  0
  8  9  2  0
  9 10  1  0
  8 11  1  0
 11 12  1  0
 12 13  1  0
 13 14  1  0
  2 15  1  0
 15 16  1  0
 16 17  2  0
 17 18  1  0
 18 19  2  0
 19 20  1  0
 20 21  1  0
 21 22  2  0
 21 23  2  0
 21 24  1  0
 24 25  1  0
 25 26  1  0
 26 27  1  0
 27 28  1  0
 28 29  1  0
 20 30  2  0
  9  4  1  0
 30 16  1  0
 14  7  1  0
 29 24  1  0
M  CHG  3   6  -1  10  -1  15  -1
M  END
>  <UniqueID>  (215) 
54

>  <SMILES>  (215) 
O=C(Cn1c([O-])c2c(c1[O-])CCCC2)[N-]c1cccc(S(=O)(=O)N2CCOCC2)c1

>  <Energy>  (215) 
91.510360744565

>  <Genealogy>  (215) 
O=C(Cn1c([O-])c2c(c1[O-])CCCC2)[N-]c1cccc(S(=O)(=O)N2CCOCC2)c1 (protonated)
O=C(Cn1c([O-])c2c(c1[O-])CCCC2)[N-]c1cccc(S(=O)(=O)N2CCOCC2)c1 (3D coordinates assigned)
O=C(Cn1c([O-])c2c(c1[O-])CCCC2)[N-]c1cccc(S(=O)(=O)N2CCOCC2)c1 (nonaromatic ring conformer: 91.510360744565 kcal/mol)

>  <smiles>  (215) 
O=C(Cn1c(O)c2c(c1O)CCCC2)Nc1cccc(S(=O)(=O)N2CCOCC2)c1

>  <score_type>  (215) 
oracle

>  <origin>  (215) 
adg

>  <m_score__min__energy>  (215) 
-15.640000000000001

>  <m_primary>  (215) 
energy

$$$$
60:0
     RDKit          3D

 23 24  0  0  0  0  0  0  0  0999 V2000
   55.1460   26.5690   46.1020 N   0  0  0  0  0  0  0  0  0  0  0  0
   56.8700   26.6470   46.0200 S   0  0  0  0  0  0  0  0  0  0  0  0
   57.3620   25.7590   44.9130 O   0  0  0  0  0  0  0  0  0  0  0  0
   57.4290   26.1600   47.3270 O   0  0  0  0  0  0  0  0  0  0  0  0
   57.3640   28.3120   45.6940 C   0  0  0  0  0  0  0  0  0  0  0  0
   58.6800   28.6970   45.9950 C   0  0  0  0  0  0  0  0  0  0  0  0
   59.1110   30.0110   45.7550 C   0  0  0  0  0  0  0  0  0  0  0  0
   60.4580   30.4140   46.0260 N   0  0  0  0  0  0  0  0  0  0  0  0
   60.9240   31.0720   47.2120 C   0  0  0  0  0  0  0  0  0  0  0  0
   62.0800   31.5710   47.2070 O   0  0  0  0  0  0  0  0  0  0  0  0
   60.0090   31.3430   48.3770 C   0  0  0  0  0  0  0  0  0  0  0  0
   59.9400   33.1230   48.7890 S   0  0  0  0  0  0  0  0  0  0  0  0
   59.1520   33.6130   47.2480 C   0  0  0  0  0  0  0  0  0  0  0  0
   57.7730   33.4310   47.0940 C   0  0  0  0  0  0  0  0  0  0  0  0
   57.1550   33.8350   45.9110 C   0  0  0  0  0  0  0  0  0  0  0  0
   57.9140   34.4240   44.9010 C   0  0  0  0  0  0  0  0  0  0  0  0
   59.2870   34.5920   45.0870 C   0  0  0  0  0  0  0  0  0  0  0  0
   59.8810   34.1870   46.2440 N   0  0  0  0  0  0  0  0  0  0  0  0
   61.2370   34.3680   46.3970 O   0  0  0  0  0  0  0  0  0  0  0  0
   58.2350   30.9260   45.1640 C   0  0  0  0  0  0  0  0  0  0  0  0
   56.9210   30.5560   44.8720 C   0  0  0  0  0  0  0  0  0  0  0  0
   56.4770   29.2580   45.1420 C   0  0  0  0  0  0  0  0  0  0  0  0
   55.1590   28.9250   44.8560 O   0  0  0  0  0  0  0  0  0  0  0  0
  1  2  1  0
  2  3  2  0
  2  4  2  0
  2  5  1  0
  5  6  2  0
  6  7  1  0
  7  8  1  0
  8  9  1  0
  9 10  2  0
  9 11  1  0
 11 12  1  0
 12 13  1  0
 13 14  2  0
 14 15  1  0
 15 16  2  0
 16 17  1  0
 17 18  2  0
 18 19  1  0
  7 20  2  0
 20 21  1  0
 21 22  2  0
 22 23  1  0
 22  5  1  0
 18 13  1  0
M  CHG  5   1  -1   8  -1  18   1  19  -1  23  -1
M  END
>  <UniqueID>  (216) 
61

>  <SMILES>  (216) 
[NH-]S(=O)(=O)c1cc([N-]C(=O)CSc2cccc[n+]2[O-])ccc1[O-]

>  <Energy>  (216) 
34.72663959829608

>  <Genealogy>  (216) 
[NH-]S(=O)(=O)c1cc([N-]C(=O)CSc2cccc[n+]2[O-])ccc1[O-] (protonated)
[NH-]S(=O)(=O)c1cc([N-]C(=O)CSc2cccc[n+]2[O-])ccc1[O-] (3D coordinates assigned)
[NH-]S(=O)(=O)c1cc([N-]C(=O)CSc2cccc[n+]2[O-])ccc1[O-] (optimized conformer: 34.72663959829608 kcal/mol)

>  <smiles>  (216) 
NS(=O)(=O)c1cc(NC(=O)CSc2cccc[n+]2[O-])ccc1O

>  <score_type>  (216) 
oracle

>  <origin>  (216) 
adg

>  <m_score__min__energy>  (216) 
-14.460000000000001

>  <m_primary>  (216) 
energy

$$$$
31:0
     RDKit          3D

 23 24  0  0  0  0  0  0  0  0999 V2000
   55.3600   29.3570   45.1030 N   0  0  0  0  0  0  0  0  0  0  0  0
   56.6890   29.8360   44.1050 S   0  0  0  0  0  0  0  0  0  0  0  0
   56.1300   30.4140   42.8360 O   0  0  0  0  0  0  0  0  0  0  0  0
   57.5230   28.6270   43.7870 O   0  0  0  0  0  0  0  0  0  0  0  0
   57.6850   31.0480   44.9330 C   0  0  0  0  0  0  0  0  0  0  0  0
   57.7390   32.3450   44.3940 C   0  0  0  0  0  0  0  0  0  0  0  0
   58.5750   33.3150   44.9480 C   0  0  0  0  0  0  0  0  0  0  0  0
   59.3760   33.0030   46.0440 C   0  0  0  0  0  0  0  0  0  0  0  0
   59.3300   31.7240   46.6010 C   0  0  0  0  0  0  0  0  0  0  0  0
   58.4740   30.7410   46.0770 C   0  0  0  0  0  0  0  0  0  0  0  0
   58.4590   29.4290   46.7560 C   0  0  0  0  0  0  0  0  0  0  0  0
   59.2690   28.4820   46.4140 N   0  0  0  0  0  0  0  0  0  0  0  0
   59.0780   27.2000   46.8840 O   0  0  0  0  0  0  0  0  0  0  0  0
   58.0620   26.3740   46.3930 C   0  0  0  0  0  0  0  0  0  0  0  0
   58.4060   25.1280   45.8630 C   0  0  0  0  0  0  0  0  0  0  0  0
   57.4210   24.2750   45.3600 C   0  0  0  0  0  0  0  0  0  0  0  0
   56.0650   24.6520   45.3830 C   0  0  0  0  0  0  0  0  0  0  0  0
   55.0430   23.7210   44.8400 C   0  0  0  0  0  0  0  0  0  0  0  0
   53.9210   23.5930   45.3970 O   0  0  0  0  0  0  0  0  0  0  0  0
   55.3110   22.9730   43.7000 O   0  0  0  0  0  0  0  0  0  0  0  0
   55.7190   25.9100   45.9260 C   0  0  0  0  0  0  0  0  0  0  0  0
   54.3950   26.3320   45.9790 O   0  0  0  0  0  0  0  0  0  0  0  0
   56.7130   26.7580   46.4260 C   0  0  0  0  0  0  0  0  0  0  0  0
  1  2  1  0
  2  3  2  0
  2  4  2  0
  2  5  1  0
  5  6  2  0
  6  7  1  0
  7  8  2  0
  8  9  1  0
  9 10  2  0
 10 11  1  0
 11 12  2  3
 12 13  1  0
 13 14  1  0
 14 15  2  0
 15 16  1  0
 16 17  2  0
 17 18  1  0
 18 19  2  0
 18 20  1  0
 17 21  1  0
 21 22  1  0
 21 23  2  0
 10  5  1  0
 23 14  1  0
M  CHG  3   1  -1  20  -1  22  -1
M  END
>  <UniqueID>  (217) 
29

>  <SMILES>  (217) 
[NH-]S(=O)(=O)c1ccccc1C=NOc1ccc(C(=O)[O-])c([O-])c1

>  <Energy>  (217) 
39.497457577482244

>  <Genealogy>  (217) 
[NH-]S(=O)(=O)c1ccccc1C=NOc1ccc(C(=O)[O-])c([O-])c1 (protonated)
[NH-]S(=O)(=O)c1ccccc1C=NOc1ccc(C(=O)[O-])c([O-])c1 (3D coordinates assigned)
[NH-]S(=O)(=O)c1ccccc1C=NOc1ccc(C(=O)[O-])c([O-])c1 (optimized conformer: 39.497457577482244 kcal/mol)

>  <smiles>  (217) 
NS(=O)(=O)c1ccccc1C=NOc1ccc(C(=O)O)c(O)c1

>  <score_type>  (217) 
oracle

>  <origin>  (217) 
adg

>  <m_score__min__energy>  (217) 
-15.890000000000001

>  <m_primary>  (217) 
energy

$$$$
38:0
     RDKit          3D

 24 26  0  0  0  0  0  0  0  0999 V2000
   54.4360   24.0970   44.5500 C   0  0  0  0  0  0  0  0  0  0  0  0
   55.5700   24.5080   45.3710 N   0  0  0  0  0  0  0  0  0  0  0  0
   55.7510   25.6870   45.9850 C   0  0  0  0  0  0  0  0  0  0  0  0
   54.8180   26.7160   46.0130 O   0  0  0  0  0  0  0  0  0  0  0  0
   56.9990   25.7000   46.5700 C   0  0  0  0  0  0  0  0  0  0  0  0
   57.5750   26.7920   47.4160 C   0  0  0  0  0  0  0  0  0  0  0  0
   58.5160   27.6340   46.5990 C   0  0  0  0  0  0  0  0  0  0  0  0
   59.6510   27.0600   46.0090 C   0  0  0  0  0  0  0  0  0  0  0  0
   60.5080   27.8390   45.2290 C   0  0  0  0  0  0  0  0  0  0  0  0
   60.2310   29.1920   45.0170 C   0  0  0  0  0  0  0  0  0  0  0  0
   59.0780   29.7750   45.5720 C   0  0  0  0  0  0  0  0  0  0  0  0
   58.7740   31.1660   45.3800 N   0  0  0  0  0  0  0  0  0  0  0  0
   57.5590   31.6500   44.7860 C   0  0  0  0  0  0  0  0  0  0  0  0
   56.5930   30.8690   44.5710 O   0  0  0  0  0  0  0  0  0  0  0  0
   57.3950   33.1110   44.5050 C   0  0  0  0  0  0  0  0  0  0  0  0
   58.2240   33.9110   45.4590 C   0  0  0  0  0  0  0  0  0  0  0  0
   59.2340   34.7990   45.1130 C   0  0  0  0  0  0  0  0  0  0  0  0
   59.8890   35.3460   46.2230 C   0  0  0  0  0  0  0  0  0  0  0  0
   59.4050   34.8820   47.4400 C   0  0  0  0  0  0  0  0  0  0  0  0
   58.1650   33.7880   47.1350 S   0  0  0  0  0  0  0  0  0  0  0  0
   58.2340   28.9920   46.3750 C   0  0  0  0  0  0  0  0  0  0  0  0
   57.6190   24.5240   46.3290 N   0  0  0  0  0  0  0  0  0  0  0  0
   56.7220   23.8380   45.5850 C   0  0  0  0  0  0  0  0  0  0  0  0
   56.9490   22.6840   45.1350 O   0  0  0  0  0  0  0  0  0  0  0  0
  1  2  1  0
  2  3  1  0
  3  4  1  0
  3  5  2  0
  5  6  1  0
  6  7  1  0
  7  8  2  0
  8  9  1  0
  9 10  2  0
 10 11  1  0
 11 12  1  0
 12 13  1  0
 13 14  2  0
 13 15  1  0
 15 16  1  0
 16 17  2  0
 17 18  1  0
 18 19  2  0
 19 20  1  0
 11 21  2  0
  5 22  1  0
 22 23  1  0
 23 24  2  0
 23  2  1  0
 21  7  1  0
 20 16  1  0
M  CHG  2   4  -1  22  -1
M  END
>  <UniqueID>  (218) 
36

>  <SMILES>  (218) 
Cn1c([O-])c(Cc2cccc(NC(=O)Cc3cccs3)c2)[n-]c1=O

>  <Energy>  (218) 
97.18046278536052

>  <Genealogy>  (218) 
Cn1c([O-])c(Cc2cccc(NC(=O)Cc3cccs3)c2)[n-]c1=O (protonated)
Cn1c([O-])c(Cc2cccc(NC(=O)Cc3cccs3)c2)[n-]c1=O (3D coordinates assigned)
Cn1c([O-])c(Cc2cccc(NC(=O)Cc3cccs3)c2)[n-]c1=O (optimized conformer: 97.18046278536052 kcal/mol)

>  <smiles>  (218) 
Cn1c(O)c(Cc2cccc(NC(=O)Cc3cccs3)c2)[nH]c1=O

>  <score_type>  (218) 
oracle

>  <origin>  (218) 
adg

>  <m_score__min__energy>  (218) 
-14.69

>  <m_primary>  (218) 
energy

$$$$
66:0
     RDKit          3D

 28 32  0  0  0  0  0  0  0  0999 V2000
   56.6800   28.8700   44.8690 C   0  0  0  0  0  0  0  0  0  0  0  0
   56.6490   30.1690   44.8540 N   0  0  0  0  0  0  0  0  0  0  0  0
   57.7540   30.6380   45.5820 N   0  0  0  0  0  0  0  0  0  0  0  0
   57.7890   31.6610   46.4710 C   0  0  0  0  0  0  0  0  0  0  0  0
   57.3140   32.8690   46.3120 N   0  0  0  0  0  0  0  0  0  0  0  0
   57.8460   34.1870   45.9170 C   0  0  0  0  0  0  0  0  0  0  0  0
   59.2440   34.5770   46.3540 C   0  0  0  0  0  0  0  0  0  0  0  0
   58.9730   34.1600   44.9050 C   0  0  0  0  0  0  0  0  0  0  0  0
   58.4580   31.3140   47.5970 N   0  0  0  0  0  0  0  0  0  0  0  0
   58.8050   30.0310   47.3410 C   0  0  0  0  0  0  0  0  0  0  0  0
   59.3120   29.2270   48.2270 N   0  0  0  0  0  0  0  0  0  0  0  0
   60.6270   29.3960   48.8380 C   0  0  0  0  0  0  0  0  0  0  0  0
   61.1860   30.7370   48.4860 C   0  0  0  0  0  0  0  0  0  0  0  0
   62.1090   31.0680   47.1180 S   0  0  0  0  0  0  0  0  0  0  0  0
   62.2360   32.7190   47.4050 C   0  0  0  0  0  0  0  0  0  0  0  0
   63.0880   33.8540   46.3800 Cl  0  0  0  0  0  0  0  0  0  0  0  0
   61.5480   33.0360   48.5670 C   0  0  0  0  0  0  0  0  0  0  0  0
   60.9510   31.9240   49.1720 C   0  0  0  0  0  0  0  0  0  0  0  0
   58.4320   29.6430   46.1060 N   0  0  0  0  0  0  0  0  0  0  0  0
   57.8330   28.4360   45.6580 C   0  0  0  0  0  0  0  0  0  0  0  0
   58.2460   27.1780   45.8540 C   0  0  0  0  0  0  0  0  0  0  0  0
   57.3830   26.0900   46.3460 C   0  0  0  0  0  0  0  0  0  0  0  0
   57.8620   24.9690   46.9150 N   0  0  0  0  0  0  0  0  0  0  0  0
   56.7460   24.2960   47.2670 C   0  0  0  0  0  0  0  0  0  0  0  0
   56.7830   23.1690   47.8270 O   0  0  0  0  0  0  0  0  0  0  0  0
   55.5870   24.9270   46.9800 N   0  0  0  0  0  0  0  0  0  0  0  0
   56.0070   26.0660   46.4080 C   0  0  0  0  0  0  0  0  0  0  0  0
   55.1470   27.0720   45.9830 O   0  0  0  0  0  0  0  0  0  0  0  0
  1  2  2  0
  2  3  1  0
  3  4  1  0
  4  5  2  0
  5  6  1  0
  6  7  1  0
  7  8  1  0
  4  9  1  0
  9 10  1  0
 10 11  2  3
 11 12  1  0
 12 13  1  0
 13 14  1  0
 14 15  1  0
 15 16  1  0
 15 17  2  0
 17 18  1  0
 10 19  1  0
 19 20  1  0
 20 21  2  3
 21 22  1  0
 22 23  1  0
 23 24  1  0
 24 25  2  0
 24 26  1  0
 26 27  1  0
 27 28  1  0
 20  1  1  0
 27 22  2  0
 19  3  1  0
  8  6  1  0
 18 13  2  0
M  CHG  4   9  -1  23  -1  26  -1  28  -1
M  END
>  <UniqueID>  (219) 
60

>  <SMILES>  (219) 
O=c1[n-]c([O-])c(C=C2C=Nn3/c(=N\C4CC4)[n-]c(=NCc4ccc(Cl)s4)n32)[n-]1

>  <Energy>  (219) 
478.7567759408413

>  <Genealogy>  (219) 
O=c1[n-]c([O-])c(C=C2C=Nn3c(=NC4CC4)[n-]c(=NCc4ccc(Cl)s4)n32)[n-]1 (protonated)
O=c1[n-]c([O-])c(C=C2C=Nn3/c(=N\C4CC4)[n-]c(=NCc4ccc(Cl)s4)n32)[n-]1 (cis-trans isomerization)
O=c1[n-]c([O-])c(C=C2C=Nn3/c(=N\C4CC4)[n-]c(=NCc4ccc(Cl)s4)n32)[n-]1 (3D coordinates assigned)
O=c1[n-]c([O-])c(C=C2C=Nn3/c(=N\C4CC4)[n-]c(=NCc4ccc(Cl)s4)n32)[n-]1 (nonaromatic ring conformer: 478.7567759408413 kcal/mol)

>  <smiles>  (219) 
O=c1[nH]c(O)c(C=C2C=Nn3c(=NC4CC4)[nH]c(=NCc4ccc(Cl)s4)n32)[nH]1

>  <score_type>  (219) 
oracle

>  <origin>  (219) 
adg

>  <m_score__min__energy>  (219) 
-16.760000000000002

>  <m_primary>  (219) 
energy

$$$$
31:0
     RDKit          3D

 26 27  0  0  0  0  0  0  0  0999 V2000
   55.3980   26.4510   46.0560 N   0  0  0  0  0  0  0  0  0  0  0  0
   57.1020   26.3530   45.7810 S   0  0  0  0  0  0  0  0  0  0  0  0
   57.3580   26.3250   44.3010 O   0  0  0  0  0  0  0  0  0  0  0  0
   57.6090   25.0810   46.4020 O   0  0  0  0  0  0  0  0  0  0  0  0
   57.9250   27.7500   46.4940 C   0  0  0  0  0  0  0  0  0  0  0  0
   58.8270   27.5390   47.5490 C   0  0  0  0  0  0  0  0  0  0  0  0
   59.5080   28.6120   48.1280 C   0  0  0  0  0  0  0  0  0  0  0  0
   59.2900   29.9090   47.6670 C   0  0  0  0  0  0  0  0  0  0  0  0
   58.3880   30.1380   46.6270 C   0  0  0  0  0  0  0  0  0  0  0  0
   57.7040   29.0690   46.0260 C   0  0  0  0  0  0  0  0  0  0  0  0
   56.7380   29.3620   44.9470 C   0  0  0  0  0  0  0  0  0  0  0  0
   55.5140   29.1420   45.1430 O   0  0  0  0  0  0  0  0  0  0  0  0
   57.1510   29.9030   43.6850 N   0  0  0  0  0  0  0  0  0  0  0  0
   57.7450   31.2220   43.4760 C   0  0  0  0  0  0  0  0  0  0  0  0
   57.2430   32.2170   44.5310 C   0  0  0  0  0  0  0  0  0  0  0  0
   58.0040   33.5420   44.4730 C   0  0  0  0  0  0  0  0  0  0  0  0
   58.3340   33.9960   45.8180 N   0  0  0  0  0  0  0  0  0  0  0  0
   59.5260   34.7270   46.1220 C   0  0  0  0  0  0  0  0  0  0  0  0
   59.6680   35.9000   45.6810 O   0  0  0  0  0  0  0  0  0  0  0  0
   60.5880   34.1100   46.9500 C   0  0  0  0  0  0  0  0  0  0  0  0
   60.3570   33.8090   48.3060 C   0  0  0  0  0  0  0  0  0  0  0  0
   61.3620   33.2250   49.0830 C   0  0  0  0  0  0  0  0  0  0  0  0
   62.6080   32.9350   48.5190 C   0  0  0  0  0  0  0  0  0  0  0  0
   63.8660   32.2030   49.4980 Cl  0  0  0  0  0  0  0  0  0  0  0  0
   62.8480   33.2290   47.1750 C   0  0  0  0  0  0  0  0  0  0  0  0
   61.8460   33.8130   46.3920 C   0  0  0  0  0  0  0  0  0  0  0  0
  1  2  1  0
  2  3  2  0
  2  4  2  0
  2  5  1  0
  5  6  2  0
  6  7  1  0
  7  8  2  0
  8  9  1  0
  9 10  2  0
 10 11  1  0
 11 12  2  0
 11 13  1  0
 13 14  1  0
 14 15  1  0
 15 16  1  0
 16 17  1  0
 17 18  1  0
 18 19  2  0
 18 20  1  0
 20 21  2  0
 21 22  1  0
 22 23  2  0
 23 24  1  0
 23 25  1  0
 25 26  2  0
 10  5  1  0
 26 20  1  0
M  CHG  3   1  -1  13  -1  17  -1
M  END
>  <UniqueID>  (220) 
31

>  <SMILES>  (220) 
[NH-]S(=O)(=O)c1ccccc1C(=O)[N-]CCC[N-]C(=O)c1ccc(Cl)cc1

>  <Energy>  (220) 
41.44724845213878

>  <Genealogy>  (220) 
[NH-]S(=O)(=O)c1ccccc1C(=O)[N-]CCC[N-]C(=O)c1ccc(Cl)cc1 (protonated)
[NH-]S(=O)(=O)c1ccccc1C(=O)[N-]CCC[N-]C(=O)c1ccc(Cl)cc1 (3D coordinates assigned)
[NH-]S(=O)(=O)c1ccccc1C(=O)[N-]CCC[N-]C(=O)c1ccc(Cl)cc1 (optimized conformer: 41.44724845213878 kcal/mol)

>  <smiles>  (220) 
NS(=O)(=O)c1ccccc1C(=O)NCCCNC(=O)c1ccc(Cl)cc1

>  <score_type>  (220) 
oracle

>  <origin>  (220) 
adg

>  <m_score__min__energy>  (220) 
-14.289999999999999

>  <m_primary>  (220) 
energy

$$$$
29:0
     RDKit          3D

 30 33  0  0  0  0  0  0  0  0999 V2000
   57.1580   31.1850   42.8270 O   0  0  0  0  0  0  0  0  0  0  0  0
   57.2580   31.0980   44.0790 C   0  0  0  0  0  0  0  0  0  0  0  0
   56.7890   29.9060   44.7260 N   0  0  0  0  0  0  0  0  0  0  0  0
   57.4930   28.9100   45.1970 C   0  0  0  0  0  0  0  0  0  0  0  0
   58.8450   29.0740   45.3050 N   0  0  0  0  0  0  0  0  0  0  0  0
   59.6670   28.0680   45.7100 C   0  0  0  0  0  0  0  0  0  0  0  0
   59.1380   26.8280   46.0600 C   0  0  0  0  0  0  0  0  0  0  0  0
   57.7590   26.6370   46.0070 C   0  0  0  0  0  0  0  0  0  0  0  0
   56.9220   27.6700   45.5830 C   0  0  0  0  0  0  0  0  0  0  0  0
   55.5490   27.4530   45.5850 O   0  0  0  0  0  0  0  0  0  0  0  0
   57.7550   32.2600   44.8670 C   0  0  0  0  0  0  0  0  0  0  0  0
   57.7550   33.5540   44.3180 C   0  0  0  0  0  0  0  0  0  0  0  0
   58.2170   34.6410   45.0660 C   0  0  0  0  0  0  0  0  0  0  0  0
   58.6930   34.4490   46.3670 C   0  0  0  0  0  0  0  0  0  0  0  0
   58.7040   33.1660   46.9270 C   0  0  0  0  0  0  0  0  0  0  0  0
   59.3580   32.8880   48.5400 S   0  0  0  0  0  0  0  0  0  0  0  0
   58.5590   31.8230   49.2390 O   0  0  0  0  0  0  0  0  0  0  0  0
   59.2710   34.1500   49.3520 O   0  0  0  0  0  0  0  0  0  0  0  0
   61.0360   32.4260   48.4100 N   0  0  0  0  0  0  0  0  0  0  0  0
   61.4080   31.4640   47.4000 C   0  0  0  0  0  0  0  0  0  0  0  0
   60.5210   30.8000   46.7990 O   0  0  0  0  0  0  0  0  0  0  0  0
   62.8510   31.2090   47.0760 C   0  0  0  0  0  0  0  0  0  0  0  0
   63.7470   32.7880   47.0810 S   0  0  0  0  0  0  0  0  0  0  0  0
   63.3800   33.0870   48.8110 C   0  0  0  0  0  0  0  0  0  0  0  0
   64.4180   33.4230   49.6870 C   0  0  0  0  0  0  0  0  0  0  0  0
   64.1430   33.6900   51.0300 C   0  0  0  0  0  0  0  0  0  0  0  0
   62.8310   33.6180   51.4990 C   0  0  0  0  0  0  0  0  0  0  0  0
   61.7930   33.2580   50.6360 C   0  0  0  0  0  0  0  0  0  0  0  0
   62.0560   32.9740   49.2810 C   0  0  0  0  0  0  0  0  0  0  0  0
   58.2250   32.0840   46.1810 C   0  0  0  0  0  0  0  0  0  0  0  0
  1  2  2  0
  2  3  1  0
  3  4  2  3
  4  5  1  0
  5  6  1  0
  6  7  2  0
  7  8  1  0
  8  9  2  0
  9 10  1  0
  2 11  1  0
 11 12  2  0
 12 13  1  0
 13 14  2  0
 14 15  1  0
 15 16  1  0
 16 17  2  0
 16 18  2  0
 16 19  1  0
 19 20  1  0
 20 21  2  0
 20 22  1  0
 22 23  1  0
 23 24  1  0
 24 25  2  0
 25 26  1  0
 26 27  2  0
 27 28  1  0
 28 29  2  0
 15 30  2  0
  9  4  1  0
 30 11  1  0
 29 19  1  0
 29 24  1  0
M  CHG  1  10  -1
M  END
>  <UniqueID>  (221) 
30

>  <SMILES>  (221) 
O=C(N=c1[nH]cccc1[O-])c1cccc(S(=O)(=O)N2C(=O)CSc3ccccc32)c1

>  <Energy>  (221) 
68.30058641796667

>  <Genealogy>  (221) 
O=C(N=c1[nH]cccc1[O-])c1cccc(S(=O)(=O)N2C(=O)CSc3ccccc32)c1 (protonated)
O=C(N=c1[nH]cccc1[O-])c1cccc(S(=O)(=O)N2C(=O)CSc3ccccc32)c1 (3D coordinates assigned)
O=C(N=c1[nH]cccc1[O-])c1cccc(S(=O)(=O)N2C(=O)CSc3ccccc32)c1 (nonaromatic ring conformer: 68.30058641796667 kcal/mol)

>  <smiles>  (221) 
O=C(N=c1[nH]cccc1O)c1cccc(S(=O)(=O)N2C(=O)CSc3ccccc32)c1

>  <score_type>  (221) 
oracle

>  <origin>  (221) 
adg

>  <m_score__min__energy>  (221) 
-14.449999999999999

>  <m_primary>  (221) 
energy

$$$$
44:0
     RDKit          3D

 29 33  0  0  0  0  0  0  0  0999 V2000
   55.1630   26.8480   45.8190 O   0  0  0  0  0  0  0  0  0  0  0  0
   56.1530   26.0640   46.4030 C   0  0  0  0  0  0  0  0  0  0  0  0
   55.9040   24.9920   47.1740 N   0  0  0  0  0  0  0  0  0  0  0  0
   57.1450   24.5580   47.4860 C   0  0  0  0  0  0  0  0  0  0  0  0
   57.3490   23.5460   48.2040 O   0  0  0  0  0  0  0  0  0  0  0  0
   58.1490   25.2890   46.9560 N   0  0  0  0  0  0  0  0  0  0  0  0
   57.5070   26.2600   46.2820 C   0  0  0  0  0  0  0  0  0  0  0  0
   58.1590   27.2790   45.4420 C   0  0  0  0  0  0  0  0  0  0  0  0
   57.7400   28.5460   45.3510 C   0  0  0  0  0  0  0  0  0  0  0  0
   56.5800   29.0360   44.5970 C   0  0  0  0  0  0  0  0  0  0  0  0
   56.5800   30.3360   44.6170 N   0  0  0  0  0  0  0  0  0  0  0  0
   57.7060   30.7380   45.3510 N   0  0  0  0  0  0  0  0  0  0  0  0
   57.7700   31.7260   46.2670 C   0  0  0  0  0  0  0  0  0  0  0  0
   57.1630   32.8720   46.1760 N   0  0  0  0  0  0  0  0  0  0  0  0
   57.8050   34.1080   45.7440 C   0  0  0  0  0  0  0  0  0  0  0  0
   58.9310   34.5350   46.6670 C   0  0  0  0  0  0  0  0  0  0  0  0
   59.2480   33.9330   45.3050 C   0  0  0  0  0  0  0  0  0  0  0  0
   58.4800   31.3580   47.3570 N   0  0  0  0  0  0  0  0  0  0  0  0
   58.8060   30.0760   47.0520 C   0  0  0  0  0  0  0  0  0  0  0  0
   59.3150   29.2380   47.9070 N   0  0  0  0  0  0  0  0  0  0  0  0
   60.5980   29.4220   48.5800 C   0  0  0  0  0  0  0  0  0  0  0  0
   60.9180   30.8880   48.6980 C   0  0  0  0  0  0  0  0  0  0  0  0
   60.3600   31.6440   49.7400 C   0  0  0  0  0  0  0  0  0  0  0  0
   60.6840   32.9970   49.8810 C   0  0  0  0  0  0  0  0  0  0  0  0
   61.5710   33.6010   48.9840 C   0  0  0  0  0  0  0  0  0  0  0  0
   62.1360   32.8520   47.9470 C   0  0  0  0  0  0  0  0  0  0  0  0
   63.3560   33.6760   46.7300 Br  0  0  0  0  0  0  0  0  0  0  0  0
   61.8130   31.4980   47.8050 C   0  0  0  0  0  0  0  0  0  0  0  0
   58.3860   29.7240   45.8190 N   0  0  0  0  0  0  0  0  0  0  0  0
  1  2  1  0
  2  3  1  0
  3  4  1  0
  4  5  2  0
  4  6  1  0
  6  7  1  0
  7  8  1  0
  8  9  2  3
  9 10  1  0
 10 11  2  0
 11 12  1  0
 12 13  1  0
 13 14  2  0
 14 15  1  0
 15 16  1  0
 16 17  1  0
 13 18  1  0
 18 19  1  0
 19 20  2  3
 20 21  1  0
 21 22  1  0
 22 23  2  0
 23 24  1  0
 24 25  2  0
 25 26  1  0
 26 27  1  0
 26 28  2  0
 19 29  1  0
  7  2  2  0
 29  9  1  0
 29 12  1  0
 17 15  1  0
 28 22  1  0
M  CHG  3   3  -1   6  -1  18  -1
M  END
>  <UniqueID>  (222) 
43

>  <SMILES>  (222) 
O=c1[n-]c(O)c(C=C2C=Nn3/c(=N\C4CC4)[n-]c(=NCc4cccc(Br)c4)n32)[n-]1

>  <Energy>  (222) 
437.11659706310417

>  <Genealogy>  (222) 
O=c1[n-]c(O)c(C=C2C=Nn3c(=NC4CC4)[n-]c(=NCc4cccc(Br)c4)n32)[n-]1 (protonated)
O=c1[n-]c(O)c(C=C2C=Nn3/c(=N\C4CC4)[n-]c(=NCc4cccc(Br)c4)n32)[n-]1 (cis-trans isomerization)
O=c1[n-]c(O)c(C=C2C=Nn3/c(=N\C4CC4)[n-]c(=NCc4cccc(Br)c4)n32)[n-]1 (3D coordinates assigned)
O=c1[n-]c(O)c(C=C2C=Nn3/c(=N\C4CC4)[n-]c(=NCc4cccc(Br)c4)n32)[n-]1 (nonaromatic ring conformer: 437.11659706310417 kcal/mol)

>  <smiles>  (222) 
O=c1[nH]c(O)c(C=C2C=Nn3c(=NC4CC4)[nH]c(=NCc4cccc(Br)c4)n32)[nH]1

>  <score_type>  (222) 
oracle

>  <origin>  (222) 
adg

>  <m_score__min__energy>  (222) 
-14.67

>  <m_primary>  (222) 
energy

$$$$
48:0
     RDKit          3D

 29 31  0  0  0  0  0  0  0  0999 V2000
   55.9320   29.4410   43.2090 O   0  0  0  0  0  0  0  0  0  0  0  0
   56.9020   29.3360   44.0070 C   0  0  0  0  0  0  0  0  0  0  0  0
   57.9840   28.3120   43.7400 C   0  0  0  0  0  0  0  0  0  0  0  0
   57.9520   27.1260   44.7130 C   0  0  0  0  0  0  0  0  0  0  0  0
   56.9770   27.3640   45.7810 N   0  0  0  0  0  0  0  0  0  0  0  0
   56.0160   25.9370   46.0170 S   0  0  0  0  0  0  0  0  0  0  0  0
   56.3560   25.2990   47.3350 O   0  0  0  0  0  0  0  0  0  0  0  0
   56.2990   24.9620   44.9100 O   0  0  0  0  0  0  0  0  0  0  0  0
   54.3850   26.3370   45.9940 O   0  0  0  0  0  0  0  0  0  0  0  0
   56.9280   30.2010   45.1570 N   0  0  0  0  0  0  0  0  0  0  0  0
   57.3910   31.4150   45.2290 C   0  0  0  0  0  0  0  0  0  0  0  0
   58.0680   31.9080   46.2880 N   0  0  0  0  0  0  0  0  0  0  0  0
   58.3280   33.1840   45.9330 C   0  0  0  0  0  0  0  0  0  0  0  0
   59.0480   34.1720   46.8110 C   0  0  0  0  0  0  0  0  0  0  0  0
   60.3560   34.6600   46.1420 C   0  0  0  0  0  0  0  0  0  0  0  0
   61.5690   33.8760   46.6570 C   0  0  0  0  0  0  0  0  0  0  0  0
   61.7670   34.0630   48.1160 N   0  0  0  0  0  0  0  0  0  0  0  0
   62.6230   32.9890   48.6610 C   0  0  0  0  0  0  0  0  0  0  0  0
   61.8600   31.6910   48.7280 C   0  0  0  0  0  0  0  0  0  0  0  0
   61.4780   31.1650   49.9730 C   0  0  0  0  0  0  0  0  0  0  0  0
   60.7650   29.9640   50.0410 C   0  0  0  0  0  0  0  0  0  0  0  0
   60.4270   29.2810   48.8670 C   0  0  0  0  0  0  0  0  0  0  0  0
   59.7350   28.1180   48.9350 F   0  0  0  0  0  0  0  0  0  0  0  0
   60.8040   29.8000   47.6250 C   0  0  0  0  0  0  0  0  0  0  0  0
   61.5190   31.0000   47.5530 C   0  0  0  0  0  0  0  0  0  0  0  0
   60.5040   34.2190   48.8880 C   0  0  0  0  0  0  0  0  0  0  0  0
   59.3030   33.5520   48.2040 C   0  0  0  0  0  0  0  0  0  0  0  0
   57.7920   33.4420   44.6890 C   0  0  0  0  0  0  0  0  0  0  0  0
   57.2020   32.3180   44.2490 N   0  0  0  0  0  0  0  0  0  0  0  0
  1  2  2  0
  2  3  1  0
  3  4  1  0
  4  5  1  0
  5  6  1  0
  6  7  2  0
  6  8  2  0
  6  9  1  0
  2 10  1  0
 10 11  2  3
 11 12  1  0
 12 13  1  0
 13 14  1  0
 14 15  1  0
 15 16  1  0
 16 17  1  0
 17 18  1  0
 18 19  1  0
 19 20  2  0
 20 21  1  0
 21 22  2  0
 22 23  1  0
 22 24  1  0
 24 25  2  0
 17 26  1  0
 26 27  1  0
 13 28  2  0
 28 29  1  0
 29 11  1  0
 27 14  1  0
 25 19  1  0
M  CHG  2   9  -1  12  -1
M  END
>  <UniqueID>  (223) 
47

>  <SMILES>  (223) 
O=C(CCNS(=O)(=O)[O-])N=c1[n-]c(C2CCN(Cc3ccc(F)cc3)CC2)c[nH]1

>  <Energy>  (223) 
86.1719693372794

>  <Genealogy>  (223) 
O=C(CCNS(=O)(=O)[O-])N=c1[n-]c(C2CCN(Cc3ccc(F)cc3)CC2)c[nH]1 (protonated)
O=C(CCNS(=O)(=O)[O-])N=c1[n-]c(C2CCN(Cc3ccc(F)cc3)CC2)c[nH]1 (3D coordinates assigned)
O=C(CCNS(=O)(=O)[O-])N=c1[n-]c(C2CCN(Cc3ccc(F)cc3)CC2)c[nH]1 (nonaromatic ring conformer: 86.1719693372794 kcal/mol)

>  <smiles>  (223) 
O=C(CCNS(=O)(=O)[O-])N=c1[nH]cc(C2CCN(Cc3ccc(F)cc3)CC2)[nH]1

>  <score_type>  (223) 
oracle

>  <origin>  (223) 
adg

>  <m_score__min__energy>  (223) 
-14.1

>  <m_primary>  (223) 
energy

$$$$
69:0
     RDKit          3D

 21 22  0  0  0  0  0  0  0  0999 V2000
   57.8260   32.1920   50.1450 N   0  0  0  0  0  0  0  0  0  0  0  0
   58.8540   31.1480   49.2270 S   0  0  0  0  0  0  0  0  0  0  0  0
   58.4630   29.7220   49.4960 O   0  0  0  0  0  0  0  0  0  0  0  0
   60.2820   31.3460   49.6500 O   0  0  0  0  0  0  0  0  0  0  0  0
   58.6910   31.5190   47.5060 C   0  0  0  0  0  0  0  0  0  0  0  0
   58.3710   30.4920   46.6040 C   0  0  0  0  0  0  0  0  0  0  0  0
   58.2330   30.7590   45.2320 C   0  0  0  0  0  0  0  0  0  0  0  0
   57.9280   29.6440   44.2670 C   0  0  0  0  0  0  0  0  0  0  0  0
   57.4770   28.4070   45.0110 C   0  0  0  0  0  0  0  0  0  0  0  0
   56.1160   28.1830   45.2900 C   0  0  0  0  0  0  0  0  0  0  0  0
   55.1430   29.0750   44.8570 O   0  0  0  0  0  0  0  0  0  0  0  0
   55.7390   27.0820   45.9890 N   0  0  0  0  0  0  0  0  0  0  0  0
   56.6530   26.1840   46.4320 C   0  0  0  0  0  0  0  0  0  0  0  0
   56.2780   25.1710   47.0780 O   0  0  0  0  0  0  0  0  0  0  0  0
   57.9720   26.3780   46.1820 N   0  0  0  0  0  0  0  0  0  0  0  0
   58.4040   27.4620   45.4880 C   0  0  0  0  0  0  0  0  0  0  0  0
   59.6380   27.6070   45.2790 O   0  0  0  0  0  0  0  0  0  0  0  0
   58.4250   32.0680   44.7650 C   0  0  0  0  0  0  0  0  0  0  0  0
   58.7400   33.0950   45.6560 C   0  0  0  0  0  0  0  0  0  0  0  0
   58.8740   32.8320   47.0240 C   0  0  0  0  0  0  0  0  0  0  0  0
   59.2730   34.1710   48.0940 Cl  0  0  0  0  0  0  0  0  0  0  0  0
  1  2  1  0
  2  3  2  0
  2  4  2  0
  2  5  1  0
  5  6  2  0
  6  7  1  0
  7  8  1  0
  8  9  1  0
  9 10  2  0
 10 11  1  0
 10 12  1  0
 12 13  1  0
 13 14  2  0
 13 15  1  0
 15 16  1  0
 16 17  2  0
  7 18  2  0
 18 19  1  0
 19 20  2  0
 20 21  1  0
 20  5  1  0
 16  9  1  0
M  CHG  4   1  -1  11  -1  12  -1  15  -1
M  END
>  <UniqueID>  (224) 
67

>  <SMILES>  (224) 
[NH-]S(=O)(=O)c1cc(Cc2c([O-])[n-]c(=O)[n-]c2=O)ccc1Cl

>  <Energy>  (224) 
30.766059781550577

>  <Genealogy>  (224) 
[NH-]S(=O)(=O)c1cc(Cc2c([O-])[n-]c(=O)[n-]c2=O)ccc1Cl (protonated)
[NH-]S(=O)(=O)c1cc(Cc2c([O-])[n-]c(=O)[n-]c2=O)ccc1Cl (3D coordinates assigned)
[NH-]S(=O)(=O)c1cc(Cc2c([O-])[n-]c(=O)[n-]c2=O)ccc1Cl (optimized conformer: 30.766059781550577 kcal/mol)

>  <smiles>  (224) 
NS(=O)(=O)c1cc(Cc2c(O)[nH]c(=O)[nH]c2=O)ccc1Cl

>  <score_type>  (224) 
oracle

>  <origin>  (224) 
adg

>  <m_score__min__energy>  (224) 
-15.98

>  <m_primary>  (224) 
energy

$$$$
14:0
     RDKit          3D

 30 32  0  0  0  0  0  0  0  0999 V2000
   58.2530   34.7200   45.2160 O   0  0  0  0  0  0  0  0  0  0  0  0
   58.9250   33.9100   45.9080 C   0  0  0  0  0  0  0  0  0  0  0  0
   58.7870   32.4300   45.6550 C   0  0  0  0  0  0  0  0  0  0  0  0
   57.4390   32.0790   45.0250 C   0  0  0  0  0  0  0  0  0  0  0  0
   57.0460   30.7190   45.3760 N   0  0  0  0  0  0  0  0  0  0  0  0
   56.1340   29.9550   44.5840 C   0  0  0  0  0  0  0  0  0  0  0  0
   55.7210   30.4260   43.4910 O   0  0  0  0  0  0  0  0  0  0  0  0
   55.6680   28.6820   45.0510 N   0  0  0  0  0  0  0  0  0  0  0  0
   56.4710   27.6330   45.6140 C   0  0  0  0  0  0  0  0  0  0  0  0
   57.8640   27.7670   45.7600 C   0  0  0  0  0  0  0  0  0  0  0  0
   58.6090   26.7480   46.3640 C   0  0  0  0  0  0  0  0  0  0  0  0
   57.9720   25.5980   46.8360 C   0  0  0  0  0  0  0  0  0  0  0  0
   56.5880   25.4640   46.7050 C   0  0  0  0  0  0  0  0  0  0  0  0
   55.8370   26.4790   46.1010 C   0  0  0  0  0  0  0  0  0  0  0  0
   54.4590   26.3300   45.9760 O   0  0  0  0  0  0  0  0  0  0  0  0
   59.7570   34.4240   46.9550 N   0  0  0  0  0  0  0  0  0  0  0  0
   60.9950   33.8660   47.4230 C   0  0  0  0  0  0  0  0  0  0  0  0
   62.1300   33.8330   46.5930 C   0  0  0  0  0  0  0  0  0  0  0  0
   63.3250   33.2700   47.0460 C   0  0  0  0  0  0  0  0  0  0  0  0
   63.4050   32.7450   48.3360 C   0  0  0  0  0  0  0  0  0  0  0  0
   62.2970   32.8030   49.1850 C   0  0  0  0  0  0  0  0  0  0  0  0
   61.0940   33.3850   48.7500 C   0  0  0  0  0  0  0  0  0  0  0  0
   59.9480   33.4560   49.6870 C   0  0  0  0  0  0  0  0  0  0  0  0
   59.5900   34.5820   50.1330 O   0  0  0  0  0  0  0  0  0  0  0  0
   59.2280   32.2720   50.0830 N   0  0  0  0  0  0  0  0  0  0  0  0
   58.8190   31.2910   49.0700 C   0  0  0  0  0  0  0  0  0  0  0  0
   58.6300   29.9220   49.7280 C   0  0  0  0  0  0  0  0  0  0  0  0
   57.7450   30.0150   50.8280 O   0  0  0  0  0  0  0  0  0  0  0  0
   58.3290   30.8120   51.8440 C   0  0  0  0  0  0  0  0  0  0  0  0
   58.5170   32.2570   51.3650 C   0  0  0  0  0  0  0  0  0  0  0  0
  1  2  2  0
  2  3  1  0
  3  4  1  0
  4  5  1  0
  5  6  1  0
  6  7  2  0
  6  8  1  0
  8  9  1  0
  9 10  2  0
 10 11  1  0
 11 12  2  0
 12 13  1  0
 13 14  2  0
 14 15  1  0
  2 16  1  0
 16 17  1  0
 17 18  2  0
 18 19  1  0
 19 20  2  0
 20 21  1  0
 21 22  2  0
 22 23  1  0
 23 24  2  0
 23 25  1  0
 25 26  1  0
 26 27  1  0
 27 28  1  0
 28 29  1  0
 29 30  1  0
 14  9  1  0
 22 17  1  0
 30 25  1  0
M  CHG  4   5  -1   8  -1  15  -1  16  -1
M  END
>  <UniqueID>  (225) 
14

>  <SMILES>  (225) 
O=C(CC[N-]C(=O)[N-]c1ccccc1[O-])[N-]c1ccccc1C(=O)N1CCOCC1

>  <Energy>  (225) 
62.620776697694595

>  <Genealogy>  (225) 
O=C(CC[N-]C(=O)[N-]c1ccccc1[O-])[N-]c1ccccc1C(=O)N1CCOCC1 (protonated)
O=C(CC[N-]C(=O)[N-]c1ccccc1[O-])[N-]c1ccccc1C(=O)N1CCOCC1 (3D coordinates assigned)
O=C(CC[N-]C(=O)[N-]c1ccccc1[O-])[N-]c1ccccc1C(=O)N1CCOCC1 (nonaromatic ring conformer: 62.620776697694595 kcal/mol)

>  <smiles>  (225) 
O=C(CCNC(=O)Nc1ccccc1O)Nc1ccccc1C(=O)N1CCOCC1

>  <score_type>  (225) 
oracle

>  <origin>  (225) 
adg

>  <m_score__min__energy>  (225) 
-17.390000000000001

>  <m_primary>  (225) 
energy

$$$$
23:0
     RDKit          3D

 27 29  0  0  0  0  0  0  0  0999 V2000
   57.7010   34.2190   47.1660 O   0  0  0  0  0  0  0  0  0  0  0  0
   59.0770   34.0260   47.2920 C   0  0  0  0  0  0  0  0  0  0  0  0
   59.6510   34.0820   48.5680 C   0  0  0  0  0  0  0  0  0  0  0  0
   61.0250   33.8980   48.7340 C   0  0  0  0  0  0  0  0  0  0  0  0
   61.8340   33.6500   47.6240 C   0  0  0  0  0  0  0  0  0  0  0  0
   61.2730   33.5890   46.3460 C   0  0  0  0  0  0  0  0  0  0  0  0
   59.8890   33.7800   46.1650 C   0  0  0  0  0  0  0  0  0  0  0  0
   59.2840   33.7180   44.8660 N   0  0  0  0  0  0  0  0  0  0  0  0
   57.8880   32.7760   44.4510 S   0  0  0  0  0  0  0  0  0  0  0  0
   56.6590   33.4630   44.9760 O   0  0  0  0  0  0  0  0  0  0  0  0
   57.7890   32.6740   42.9540 O   0  0  0  0  0  0  0  0  0  0  0  0
   58.0370   31.1570   45.1250 C   0  0  0  0  0  0  0  0  0  0  0  0
   58.8460   30.9220   46.2440 C   0  0  0  0  0  0  0  0  0  0  0  0
   58.9780   29.6290   46.7580 C   0  0  0  0  0  0  0  0  0  0  0  0
   58.2910   28.5540   46.1690 C   0  0  0  0  0  0  0  0  0  0  0  0
   58.4410   27.1760   46.7000 C   0  0  0  0  0  0  0  0  0  0  0  0
   59.5960   26.7010   46.8720 O   0  0  0  0  0  0  0  0  0  0  0  0
   57.3090   26.3830   47.0920 N   0  0  0  0  0  0  0  0  0  0  0  0
   56.7970   25.4010   46.4080 C   0  0  0  0  0  0  0  0  0  0  0  0
   57.4790   24.2310   46.2410 N   0  0  0  0  0  0  0  0  0  0  0  0
   56.9640   23.1880   45.5380 C   0  0  0  0  0  0  0  0  0  0  0  0
   55.6970   23.2930   44.9630 C   0  0  0  0  0  0  0  0  0  0  0  0
   54.9710   24.4750   45.1230 C   0  0  0  0  0  0  0  0  0  0  0  0
   55.5160   25.5350   45.8520 C   0  0  0  0  0  0  0  0  0  0  0  0
   54.7930   26.7110   46.0110 O   0  0  0  0  0  0  0  0  0  0  0  0
   57.4860   28.7950   45.0420 C   0  0  0  0  0  0  0  0  0  0  0  0
   57.3580   30.0880   44.5280 C   0  0  0  0  0  0  0  0  0  0  0  0
  1  2  1  0
  2  3  2  0
  3  4  1  0
  4  5  2  0
  5  6  1  0
  6  7  2  0
  7  8  1  0
  8  9  1  0
  9 10  2  0
  9 11  2  0
  9 12  1  0
 12 13  2  0
 13 14  1  0
 14 15  2  0
 15 16  1  0
 16 17  2  0
 16 18  1  0
 18 19  2  0
 19 20  1  0
 20 21  1  0
 21 22  2  0
 22 23  1  0
 23 24  2  0
 24 25  1  0
 15 26  1  0
 26 27  2  0
  7  2  1  0
 27 12  1  0
 24 19  1  0
M  CHG  3   8  -1  20  -1  25  -1
M  END
>  <UniqueID>  (226) 
23

>  <SMILES>  (226) 
O=C(/N=c1\[n-]cccc1[O-])c1ccc(S(=O)(=O)[N-]c2ccccc2O)cc1

>  <Energy>  (226) 
54.670857399570814

>  <Genealogy>  (226) 
O=C(N=c1[n-]cccc1[O-])c1ccc(S(=O)(=O)[N-]c2ccccc2O)cc1 (protonated)
O=C(/N=c1\[n-]cccc1[O-])c1ccc(S(=O)(=O)[N-]c2ccccc2O)cc1 (cis-trans isomerization)
O=C(/N=c1\[n-]cccc1[O-])c1ccc(S(=O)(=O)[N-]c2ccccc2O)cc1 (3D coordinates assigned)
O=C(/N=c1\[n-]cccc1[O-])c1ccc(S(=O)(=O)[N-]c2ccccc2O)cc1 (optimized conformer: 54.670857399570814 kcal/mol)

>  <smiles>  (226) 
O=C(N=c1[nH]cccc1O)c1ccc(S(=O)(=O)Nc2ccccc2O)cc1

>  <score_type>  (226) 
oracle

>  <origin>  (226) 
adg

>  <m_score__min__energy>  (226) 
-14.75

>  <m_primary>  (226) 
energy

$$$$
24:0
     RDKit          3D

 27 29  0  0  0  0  0  0  0  0999 V2000
   56.8910   31.2970   44.3210 O   0  0  0  0  0  0  0  0  0  0  0  0
   57.4680   31.0700   45.4200 C   0  0  0  0  0  0  0  0  0  0  0  0
   57.5290   29.7300   45.9400 N   0  0  0  0  0  0  0  0  0  0  0  0
   57.1970   28.5580   45.1740 C   0  0  0  0  0  0  0  0  0  0  0  0
   56.6370   28.6700   44.0500 O   0  0  0  0  0  0  0  0  0  0  0  0
   57.4710   27.2040   45.7100 C   0  0  0  0  0  0  0  0  0  0  0  0
   58.8030   26.7870   45.8810 C   0  0  0  0  0  0  0  0  0  0  0  0
   59.0900   25.5110   46.3750 C   0  0  0  0  0  0  0  0  0  0  0  0
   58.0520   24.6410   46.7110 C   0  0  0  0  0  0  0  0  0  0  0  0
   56.7240   25.0480   46.5630 C   0  0  0  0  0  0  0  0  0  0  0  0
   56.4270   26.3250   46.0750 C   0  0  0  0  0  0  0  0  0  0  0  0
   55.0960   26.7170   45.9870 O   0  0  0  0  0  0  0  0  0  0  0  0
   58.0600   32.2010   46.1730 C   0  0  0  0  0  0  0  0  0  0  0  0
   58.1390   33.4760   45.5850 C   0  0  0  0  0  0  0  0  0  0  0  0
   58.6860   34.5490   46.2940 C   0  0  0  0  0  0  0  0  0  0  0  0
   59.1680   34.3620   47.5900 C   0  0  0  0  0  0  0  0  0  0  0  0
   59.1220   33.0920   48.1840 C   0  0  0  0  0  0  0  0  0  0  0  0
   59.6220   32.8890   49.5900 C   0  0  0  0  0  0  0  0  0  0  0  0
   58.6870   31.9840   50.3530 C   0  0  0  0  0  0  0  0  0  0  0  0
   57.8290   32.5130   51.3270 C   0  0  0  0  0  0  0  0  0  0  0  0
   57.0130   31.6930   52.0370 N   0  0  0  0  0  0  0  0  0  0  0  0
   57.0160   30.3520   51.8250 C   0  0  0  0  0  0  0  0  0  0  0  0
   56.2510   29.6090   52.4920 O   0  0  0  0  0  0  0  0  0  0  0  0
   57.8450   29.8110   50.8960 N   0  0  0  0  0  0  0  0  0  0  0  0
   58.6800   30.5920   50.1610 C   0  0  0  0  0  0  0  0  0  0  0  0
   59.4410   30.0530   49.3130 O   0  0  0  0  0  0  0  0  0  0  0  0
   58.5650   32.0180   47.4730 C   0  0  0  0  0  0  0  0  0  0  0  0
  1  2  2  0
  2  3  1  0
  3  4  1  0
  4  5  2  0
  4  6  1  0
  6  7  2  0
  7  8  1  0
  8  9  2  0
  9 10  1  0
 10 11  2  0
 11 12  1  0
  2 13  1  0
 13 14  2  0
 14 15  1  0
 15 16  2  0
 16 17  1  0
 17 18  1  0
 18 19  1  0
 19 20  2  0
 20 21  1  0
 21 22  1  0
 22 23  2  0
 22 24  1  0
 24 25  1  0
 25 26  2  0
 17 27  2  0
 11  6  1  0
 27 13  1  0
 25 19  1  0
M  CHG  3  12  -1  21  -1  24  -1
M  END
>  <UniqueID>  (227) 
24

>  <SMILES>  (227) 
O=C(NC(=O)c1ccccc1[O-])c1cccc(Cc2c[n-]c(=O)[n-]c2=O)c1

>  <Energy>  (227) 
50.095428758219605

>  <Genealogy>  (227) 
O=C(NC(=O)c1ccccc1[O-])c1cccc(Cc2c[n-]c(=O)[n-]c2=O)c1 (protonated)
O=C(NC(=O)c1ccccc1[O-])c1cccc(Cc2c[n-]c(=O)[n-]c2=O)c1 (3D coordinates assigned)
O=C(NC(=O)c1ccccc1[O-])c1cccc(Cc2c[n-]c(=O)[n-]c2=O)c1 (optimized conformer: 50.095428758219605 kcal/mol)

>  <smiles>  (227) 
O=C(NC(=O)c1ccccc1O)c1cccc(Cc2c[nH]c(=O)[nH]c2=O)c1

>  <score_type>  (227) 
oracle

>  <origin>  (227) 
adg

>  <m_score__min__energy>  (227) 
-14.58

>  <m_primary>  (227) 
energy

$$$$
45:0
     RDKit          3D

 27 29  0  0  0  0  0  0  0  0999 V2000
   58.4410   34.6720   46.0250 O   0  0  0  0  0  0  0  0  0  0  0  0
   58.8490   33.5000   46.2400 C   0  0  0  0  0  0  0  0  0  0  0  0
   58.5230   32.4180   45.2430 C   0  0  0  0  0  0  0  0  0  0  0  0
   57.6200   31.3280   45.8410 C   0  0  0  0  0  0  0  0  0  0  0  0
   56.7630   30.7140   44.8270 N   0  0  0  0  0  0  0  0  0  0  0  0
   56.2770   29.3650   44.8410 C   0  0  0  0  0  0  0  0  0  0  0  0
   55.0890   29.1460   44.4860 O   0  0  0  0  0  0  0  0  0  0  0  0
   57.1180   28.2300   45.2700 C   0  0  0  0  0  0  0  0  0  0  0  0
   58.5110   28.2820   45.0980 C   0  0  0  0  0  0  0  0  0  0  0  0
   59.3110   27.2070   45.4940 C   0  0  0  0  0  0  0  0  0  0  0  0
   58.7270   26.0690   46.0570 C   0  0  0  0  0  0  0  0  0  0  0  0
   57.3410   26.0020   46.2170 C   0  0  0  0  0  0  0  0  0  0  0  0
   56.5340   27.0760   45.8240 C   0  0  0  0  0  0  0  0  0  0  0  0
   55.1560   26.9920   45.9980 O   0  0  0  0  0  0  0  0  0  0  0  0
   59.6810   33.2590   47.3810 N   0  0  0  0  0  0  0  0  0  0  0  0
   61.1020   33.0820   47.3520 C   0  0  0  0  0  0  0  0  0  0  0  0
   61.9300   34.0450   46.7550 C   0  0  0  0  0  0  0  0  0  0  0  0
   63.3170   33.8660   46.7370 C   0  0  0  0  0  0  0  0  0  0  0  0
   63.8820   32.7240   47.3070 C   0  0  0  0  0  0  0  0  0  0  0  0
   63.0640   31.7530   47.8890 C   0  0  0  0  0  0  0  0  0  0  0  0
   61.6700   31.9170   47.9030 C   0  0  0  0  0  0  0  0  0  0  0  0
   60.8380   30.9330   48.5330 N   0  0  0  0  0  0  0  0  0  0  0  0
   60.3010   29.8160   47.7480 C   0  0  0  0  0  0  0  0  0  0  0  0
   58.9090   29.3760   48.2640 C   0  0  0  0  0  0  0  0  0  0  0  0
   58.4980   30.0520   49.4400 O   0  0  0  0  0  0  0  0  0  0  0  0
   59.5310   30.0180   50.4020 C   0  0  0  0  0  0  0  0  0  0  0  0
   60.6410   30.9810   49.9860 C   0  0  0  0  0  0  0  0  0  0  0  0
  1  2  2  0
  2  3  1  0
  3  4  1  0
  4  5  1  0
  5  6  1  0
  6  7  2  0
  6  8  1  0
  8  9  2  0
  9 10  1  0
 10 11  2  0
 11 12  1  0
 12 13  2  0
 13 14  1  0
  2 15  1  0
 15 16  1  0
 16 17  2  0
 17 18  1  0
 18 19  2  0
 19 20  1  0
 20 21  2  0
 21 22  1  0
 22 23  1  0
 23 24  1  0
 24 25  1  0
 25 26  1  0
 26 27  1  0
 13  8  1  0
 21 16  1  0
 27 22  1  0
M  CHG  3   5  -1  14  -1  15  -1
M  END
>  <UniqueID>  (228) 
43

>  <SMILES>  (228) 
O=C(CC[N-]C(=O)c1ccccc1[O-])[N-]c1ccccc1N1CCOCC1

>  <Energy>  (228) 
66.3692191583264

>  <Genealogy>  (228) 
O=C(CC[N-]C(=O)c1ccccc1[O-])[N-]c1ccccc1N1CCOCC1 (protonated)
O=C(CC[N-]C(=O)c1ccccc1[O-])[N-]c1ccccc1N1CCOCC1 (3D coordinates assigned)
O=C(CC[N-]C(=O)c1ccccc1[O-])[N-]c1ccccc1N1CCOCC1 (nonaromatic ring conformer: 66.3692191583264 kcal/mol)

>  <smiles>  (228) 
O=C(CCNC(=O)c1ccccc1O)Nc1ccccc1N1CCOCC1

>  <score_type>  (228) 
oracle

>  <origin>  (228) 
adg

>  <m_score__min__energy>  (228) 
-14.66

>  <m_primary>  (228) 
energy

$$$$
46:0
     RDKit          3D

 30 32  0  0  0  0  0  0  0  0999 V2000
   55.0490   26.3450   46.0030 N   0  0  0  0  0  0  0  0  0  0  0  0
   56.7480   26.6290   45.8640 S   0  0  0  0  0  0  0  0  0  0  0  0
   57.3230   25.7350   44.8020 O   0  0  0  0  0  0  0  0  0  0  0  0
   57.4140   26.3120   47.1740 O   0  0  0  0  0  0  0  0  0  0  0  0
   57.0300   28.3140   45.4390 C   0  0  0  0  0  0  0  0  0  0  0  0
   58.2550   28.9260   45.7370 C   0  0  0  0  0  0  0  0  0  0  0  0
   58.4690   30.2680   45.4100 C   0  0  0  0  0  0  0  0  0  0  0  0
   57.4620   31.0120   44.7760 C   0  0  0  0  0  0  0  0  0  0  0  0
   57.6810   32.4660   44.4550 C   0  0  0  0  0  0  0  0  0  0  0  0
   57.7300   33.3010   45.7400 C   0  0  0  0  0  0  0  0  0  0  0  0
   58.8430   34.2530   45.7090 N   0  0  0  0  0  0  0  0  0  0  0  0
   59.8730   34.1060   47.1070 S   0  0  0  0  0  0  0  0  0  0  0  0
   61.2520   34.5790   46.7480 O   0  0  0  0  0  0  0  0  0  0  0  0
   59.3500   34.9590   48.2300 O   0  0  0  0  0  0  0  0  0  0  0  0
   59.9740   32.4220   47.6110 C   0  0  0  0  0  0  0  0  0  0  0  0
   60.9820   31.5840   47.1150 C   0  0  0  0  0  0  0  0  0  0  0  0
   61.0690   30.2590   47.5500 C   0  0  0  0  0  0  0  0  0  0  0  0
   60.1450   29.7620   48.4740 C   0  0  0  0  0  0  0  0  0  0  0  0
   59.1160   30.5870   48.9590 C   0  0  0  0  0  0  0  0  0  0  0  0
   58.1680   30.1180   49.9270 N   0  0  0  0  0  0  0  0  0  0  0  0
   57.6810   30.8550   51.0570 C   0  0  0  0  0  0  0  0  0  0  0  0
   56.6650   30.4290   51.6660 O   0  0  0  0  0  0  0  0  0  0  0  0
   58.3720   32.0590   51.5580 C   0  0  0  0  0  0  0  0  0  0  0  0
   57.7690   33.0910   52.2540 C   0  0  0  0  0  0  0  0  0  0  0  0
   58.7730   33.9880   52.5620 C   0  0  0  0  0  0  0  0  0  0  0  0
   59.9430   33.4610   52.0520 C   0  0  0  0  0  0  0  0  0  0  0  0
   59.6950   32.2860   51.4460 N   0  0  0  0  0  0  0  0  0  0  0  0
   59.0470   31.9200   48.5340 C   0  0  0  0  0  0  0  0  0  0  0  0
   56.2280   30.4030   44.4970 C   0  0  0  0  0  0  0  0  0  0  0  0
   56.0150   29.0600   44.8250 C   0  0  0  0  0  0  0  0  0  0  0  0
  1  2  1  0
  2  3  2  0
  2  4  2  0
  2  5  1  0
  5  6  2  0
  6  7  1  0
  7  8  2  0
  8  9  1  0
  9 10  1  0
 10 11  1  0
 11 12  1  0
 12 13  2  0
 12 14  2  0
 12 15  1  0
 15 16  2  0
 16 17  1  0
 17 18  2  0
 18 19  1  0
 19 20  1  0
 20 21  1  0
 21 22  2  0
 21 23  1  0
 23 24  2  0
 24 25  1  0
 25 26  2  0
 26 27  1  0
 19 28  2  0
  8 29  1  0
 29 30  2  0
 30  5  1  0
 28 15  1  0
 27 23  1  0
M  CHG  3   1  -1  11  -1  20  -1
M  END
>  <UniqueID>  (229) 
44

>  <SMILES>  (229) 
[NH-]S(=O)(=O)c1ccc(CC[N-]S(=O)(=O)c2cccc([N-]C(=O)c3ccc[nH]3)c2)cc1

>  <Energy>  (229) 
76.24246067122517

>  <Genealogy>  (229) 
[NH-]S(=O)(=O)c1ccc(CC[N-]S(=O)(=O)c2cccc([N-]C(=O)c3ccc[nH]3)c2)cc1 (protonated)
[NH-]S(=O)(=O)c1ccc(CC[N-]S(=O)(=O)c2cccc([N-]C(=O)c3ccc[nH]3)c2)cc1 (3D coordinates assigned)
[NH-]S(=O)(=O)c1ccc(CC[N-]S(=O)(=O)c2cccc([N-]C(=O)c3ccc[nH]3)c2)cc1 (optimized conformer: 76.24246067122517 kcal/mol)

>  <smiles>  (229) 
NS(=O)(=O)c1ccc(CCNS(=O)(=O)c2cccc(NC(=O)c3ccc[nH]3)c2)cc1

>  <score_type>  (229) 
oracle

>  <origin>  (229) 
adg

>  <m_score__min__energy>  (229) 
-14.02

>  <m_primary>  (229) 
energy

$$$$
48:0
     RDKit          3D

 34 37  0  0  0  0  0  0  0  0999 V2000
   58.1470   26.6200   44.0910 C   0  0  0  0  0  0  0  0  0  0  0  0
   58.2250   27.1740   45.3110 C   0  0  0  0  0  0  0  0  0  0  0  0
   58.4600   26.5390   46.5350 C   0  0  0  0  0  0  0  0  0  0  0  0
   58.5300   25.2370   46.8700 C   0  0  0  0  0  0  0  0  0  0  0  0
   57.8110   24.1440   46.1880 C   0  0  0  0  0  0  0  0  0  0  0  0
   58.5080   23.0940   45.5780 C   0  0  0  0  0  0  0  0  0  0  0  0
   59.8970   23.0370   45.6270 O   0  0  0  0  0  0  0  0  0  0  0  0
   57.8270   22.1210   44.9280 N   0  0  0  0  0  0  0  0  0  0  0  0
   56.4730   22.1430   44.8350 C   0  0  0  0  0  0  0  0  0  0  0  0
   55.8880   21.2170   44.2100 O   0  0  0  0  0  0  0  0  0  0  0  0
   55.7580   23.1680   45.3990 N   0  0  0  0  0  0  0  0  0  0  0  0
   54.3200   23.1910   45.2900 C   0  0  0  0  0  0  0  0  0  0  0  0
   53.5220   22.6760   46.3250 C   0  0  0  0  0  0  0  0  0  0  0  0
   52.1280   22.6990   46.2190 C   0  0  0  0  0  0  0  0  0  0  0  0
   51.5220   23.2340   45.0790 C   0  0  0  0  0  0  0  0  0  0  0  0
   50.1360   23.2570   44.9740 O   0  0  0  0  0  0  0  0  0  0  0  0
   52.3090   23.7490   44.0440 C   0  0  0  0  0  0  0  0  0  0  0  0
   53.7030   23.7290   44.1480 C   0  0  0  0  0  0  0  0  0  0  0  0
   56.4130   24.1720   46.0670 C   0  0  0  0  0  0  0  0  0  0  0  0
   55.7630   25.1170   46.5950 O   0  0  0  0  0  0  0  0  0  0  0  0
   58.5820   27.5760   47.4450 C   0  0  0  0  0  0  0  0  0  0  0  0
   58.3820   28.7520   46.8240 N   0  0  0  0  0  0  0  0  0  0  0  0
   58.1660   28.5090   45.5410 N   0  0  0  0  0  0  0  0  0  0  0  0
   57.8700   29.5730   44.5770 C   0  0  0  0  0  0  0  0  0  0  0  0
   56.4860   30.1060   44.7890 C   0  0  0  0  0  0  0  0  0  0  0  0
   55.5180   29.3020   44.8700 O   0  0  0  0  0  0  0  0  0  0  0  0
   56.2640   31.5210   44.8090 N   0  0  0  0  0  0  0  0  0  0  0  0
   57.2240   32.5370   45.1410 C   0  0  0  0  0  0  0  0  0  0  0  0
   57.3260   33.0480   46.4490 C   0  0  0  0  0  0  0  0  0  0  0  0
   58.2880   34.0110   46.7590 C   0  0  0  0  0  0  0  0  0  0  0  0
   59.1670   34.4650   45.7750 C   0  0  0  0  0  0  0  0  0  0  0  0
   59.0940   33.9490   44.4800 C   0  0  0  0  0  0  0  0  0  0  0  0
   58.1310   32.9780   44.1550 C   0  0  0  0  0  0  0  0  0  0  0  0
   58.0720   32.4170   42.7600 C   0  0  0  0  0  0  0  0  0  0  0  0
  1  2  2  0
  2  3  1  0
  3  4  2  0
  4  5  1  0
  5  6  2  0
  6  7  1  0
  6  8  1  0
  8  9  1  0
  9 10  2  0
  9 11  1  0
 11 12  1  0
 12 13  2  0
 13 14  1  0
 14 15  2  0
 15 16  1  0
 15 17  1  0
 17 18  2  0
 11 19  1  0
 19 20  2  0
  3 21  1  0
 21 22  2  0
 22 23  1  0
 23 24  1  0
 24 25  1  0
 25 26  2  0
 25 27  1  0
 27 28  1  0
 28 29  2  0
 29 30  1  0
 30 31  2  0
 31 32  1  0
 32 33  2  0
 33 34  1  0
 23  2  1  0
 33 28  1  0
 19  5  1  0
 18 12  1  0
M  CHG  4   7  -1   8  -1  16  -1  27  -1
M  END
>  <UniqueID>  (230) 
46

>  <SMILES>  (230) 
C=c1/c(=C\c2c([O-])[n-]c(=O)n(-c3ccc([O-])cc3)c2=O)cnn1CC(=O)[N-]c1ccccc1C

>  <Energy>  (230) 
113.40769814090437

>  <Genealogy>  (230) 
C=c1c(=Cc2c([O-])[n-]c(=O)n(-c3ccc([O-])cc3)c2=O)cnn1CC(=O)[N-]c1ccccc1C (protonated)
C=c1/c(=C\c2c([O-])[n-]c(=O)n(-c3ccc([O-])cc3)c2=O)cnn1CC(=O)[N-]c1ccccc1C (cis-trans isomerization)
C=c1/c(=C\c2c([O-])[n-]c(=O)n(-c3ccc([O-])cc3)c2=O)cnn1CC(=O)[N-]c1ccccc1C (3D coordinates assigned)
C=c1/c(=C\c2c([O-])[n-]c(=O)n(-c3ccc([O-])cc3)c2=O)cnn1CC(=O)[N-]c1ccccc1C (optimized conformer: 113.40769814090437 kcal/mol)

>  <smiles>  (230) 
C=c1c(=Cc2c(O)[nH]c(=O)n(-c3ccc(O)cc3)c2=O)cnn1CC(=O)Nc1ccccc1C

>  <score_type>  (230) 
oracle

>  <origin>  (230) 
adg

>  <m_score__min__energy>  (230) 
-15.51

>  <m_primary>  (230) 
energy

$$$$
57:0
     RDKit          3D

 30 34  0  0  0  0  0  0  0  0999 V2000
   55.1200   30.8570   51.7370 C   0  0  0  0  0  0  0  0  0  0  0  0
   56.1690   30.1270   51.9920 N   0  0  0  0  0  0  0  0  0  0  0  0
   55.6990   28.9050   52.4920 N   0  0  0  0  0  0  0  0  0  0  0  0
   56.2200   28.1600   53.4850 C   0  0  0  0  0  0  0  0  0  0  0  0
   57.5030   28.1280   53.7320 N   0  0  0  0  0  0  0  0  0  0  0  0
   58.4110   27.1810   54.4040 C   0  0  0  0  0  0  0  0  0  0  0  0
   59.3250   26.3510   53.5250 C   0  0  0  0  0  0  0  0  0  0  0  0
   58.1230   25.7030   54.2210 C   0  0  0  0  0  0  0  0  0  0  0  0
   55.2250   27.5860   54.2190 N   0  0  0  0  0  0  0  0  0  0  0  0
   54.0990   28.1020   53.6550 C   0  0  0  0  0  0  0  0  0  0  0  0
   52.9010   27.9840   54.1440 N   0  0  0  0  0  0  0  0  0  0  0  0
   51.7200   27.6530   53.3560 C   0  0  0  0  0  0  0  0  0  0  0  0
   51.8280   26.2330   52.8830 C   0  0  0  0  0  0  0  0  0  0  0  0
   50.9490   25.7400   51.9070 C   0  0  0  0  0  0  0  0  0  0  0  0
   51.0250   24.4060   51.4980 C   0  0  0  0  0  0  0  0  0  0  0  0
   51.9680   23.5410   52.0640 C   0  0  0  0  0  0  0  0  0  0  0  0
   52.0040   22.2100   51.6190 O   0  0  0  0  0  0  0  0  0  0  0  0
   53.1640   21.5670   51.1020 C   0  0  0  0  0  0  0  0  0  0  0  0
   52.8410   24.0300   53.0550 C   0  0  0  0  0  0  0  0  0  0  0  0
   52.7660   25.3650   53.4630 C   0  0  0  0  0  0  0  0  0  0  0  0
   54.3980   28.8660   52.5900 N   0  0  0  0  0  0  0  0  0  0  0  0
   53.9040   30.1120   52.1220 C   0  0  0  0  0  0  0  0  0  0  0  0
   52.6320   30.5230   52.1760 C   0  0  0  0  0  0  0  0  0  0  0  0
   51.8350   30.8660   50.9870 C   0  0  0  0  0  0  0  0  0  0  0  0
   51.7910   30.0990   49.8830 N   0  0  0  0  0  0  0  0  0  0  0  0
   51.0200   30.8130   49.0350 C   0  0  0  0  0  0  0  0  0  0  0  0
   50.7320   30.4100   47.8780 O   0  0  0  0  0  0  0  0  0  0  0  0
   50.5890   31.9970   49.5200 N   0  0  0  0  0  0  0  0  0  0  0  0
   51.1230   32.0220   50.7530 C   0  0  0  0  0  0  0  0  0  0  0  0
   51.0030   33.1020   51.6170 O   0  0  0  0  0  0  0  0  0  0  0  0
  1  2  2  0
  2  3  1  0
  3  4  1  0
  4  5  2  0
  5  6  1  0
  6  7  1  0
  7  8  1  0
  4  9  1  0
  9 10  1  0
 10 11  2  3
 11 12  1  0
 12 13  1  0
 13 14  2  0
 14 15  1  0
 15 16  2  0
 16 17  1  0
 17 18  1  0
 16 19  1  0
 19 20  2  0
 10 21  1  0
 21 22  1  0
 22 23  2  0
 23 24  1  0
 24 25  1  0
 25 26  1  0
 26 27  2  0
 26 28  1  0
 28 29  1  0
 29 30  1  0
 22  1  1  0
 29 24  2  0
 21  3  1  0
  8  6  1  0
 20 13  1  0
M  CHG  3  25  -1  28  -1  30  -1
M  END
>  <UniqueID>  (231) 
51

>  <SMILES>  (231) 
COc1ccc(CN=c2[nH]/c(=N\C3CC3)n3n2/C(=C/c2[n-]c(=O)[n-]c2[O-])C=N3)cc1

>  <Energy>  (231) 
457.8716539074579

>  <Genealogy>  (231) 
COc1ccc(CN=c2[nH]c(=NC3CC3)n3n2C(=Cc2[n-]c(=O)[n-]c2[O-])C=N3)cc1 (protonated)
COc1ccc(CN=c2[nH]/c(=N\C3CC3)n3n2/C(=C/c2[n-]c(=O)[n-]c2[O-])C=N3)cc1 (cis-trans isomerization)
COc1ccc(CN=c2[nH]/c(=N\C3CC3)n3n2/C(=C/c2[n-]c(=O)[n-]c2[O-])C=N3)cc1 (3D coordinates assigned)
COc1ccc(CN=c2[nH]/c(=N\C3CC3)n3n2/C(=C/c2[n-]c(=O)[n-]c2[O-])C=N3)cc1 (nonaromatic ring conformer: 457.8716539074579 kcal/mol)

>  <smiles>  (231) 
COc1ccc(CN=c2[nH]c(=NC3CC3)n3n2C(=Cc2[nH]c(=O)[nH]c2O)C=N3)cc1

>  <score_type>  (231) 
oracle

>  <origin>  (231) 
adg

>  <m_score__min__energy>  (231) 
-15.630000000000001

>  <m_primary>  (231) 
energy

$$$$
38:0
     RDKit          3D

 30 34  0  0  0  0  0  0  0  0999 V2000
   53.1140   31.2080   52.4800 C   0  0  0  0  0  0  0  0  0  0  0  0
   52.3200   31.2680   51.2420 C   0  0  0  0  0  0  0  0  0  0  0  0
   52.3200   30.2960   50.3130 N   0  0  0  0  0  0  0  0  0  0  0  0
   51.3960   30.7130   49.4190 C   0  0  0  0  0  0  0  0  0  0  0  0
   51.0250   29.8660   48.0730 S   0  0  0  0  0  0  0  0  0  0  0  0
   50.7880   31.8750   49.7410 N   0  0  0  0  0  0  0  0  0  0  0  0
   51.3740   32.2070   50.9030 C   0  0  0  0  0  0  0  0  0  0  0  0
   51.0220   33.3220   51.6530 O   0  0  0  0  0  0  0  0  0  0  0  0
   53.8330   30.1450   52.8660 C   0  0  0  0  0  0  0  0  0  0  0  0
   53.3330   29.0020   53.4750 C   0  0  0  0  0  0  0  0  0  0  0  0
   54.3430   28.1300   53.6920 N   0  0  0  0  0  0  0  0  0  0  0  0
   55.4690   28.6660   53.2340 N   0  0  0  0  0  0  0  0  0  0  0  0
   56.7480   28.1690   53.1820 C   0  0  0  0  0  0  0  0  0  0  0  0
   57.1200   27.0250   53.6860 N   0  0  0  0  0  0  0  0  0  0  0  0
   57.6870   26.7280   54.9940 C   0  0  0  0  0  0  0  0  0  0  0  0
   59.0250   27.4150   55.1950 C   0  0  0  0  0  0  0  0  0  0  0  0
   57.7920   27.9280   55.9190 C   0  0  0  0  0  0  0  0  0  0  0  0
   57.6980   28.9340   52.5790 N   0  0  0  0  0  0  0  0  0  0  0  0
   57.3990   30.1550   52.0440 C   0  0  0  0  0  0  0  0  0  0  0  0
   58.3170   30.8770   51.4730 N   0  0  0  0  0  0  0  0  0  0  0  0
   58.3190   32.3380   51.4210 C   0  0  0  0  0  0  0  0  0  0  0  0
   58.7940   32.8190   50.0760 C   0  0  0  0  0  0  0  0  0  0  0  0
   58.1890   32.3380   48.9030 C   0  0  0  0  0  0  0  0  0  0  0  0
   58.6080   32.8020   47.6520 C   0  0  0  0  0  0  0  0  0  0  0  0
   59.6290   33.7520   47.5630 C   0  0  0  0  0  0  0  0  0  0  0  0
   60.1500   34.3360   45.9920 Cl  0  0  0  0  0  0  0  0  0  0  0  0
   60.2340   34.2400   48.7260 C   0  0  0  0  0  0  0  0  0  0  0  0
   59.8190   33.7760   49.9780 C   0  0  0  0  0  0  0  0  0  0  0  0
   56.1270   30.6290   52.1090 N   0  0  0  0  0  0  0  0  0  0  0  0
   55.1850   29.8760   52.7250 C   0  0  0  0  0  0  0  0  0  0  0  0
  1  2  1  0
  2  3  1  0
  3  4  1  0
  4  5  2  0
  4  6  1  0
  6  7  1  0
  7  8  1  0
  1  9  2  3
  9 10  1  0
 10 11  2  0
 11 12  1  0
 12 13  1  0
 13 14  2  3
 14 15  1  0
 15 16  1  0
 16 17  1  0
 13 18  1  0
 18 19  1  0
 19 20  2  0
 20 21  1  0
 21 22  1  0
 22 23  2  0
 23 24  1  0
 24 25  2  0
 25 26  1  0
 25 27  1  0
 27 28  2  0
 19 29  1  0
 29 30  2  0
  7  2  2  0
 30  9  1  0
 30 12  1  0
 17 15  1  0
 28 22  1  0
M  CHG  5   3  -1   6  -1   8  -1  11   1  18  -1
M  END
>  <UniqueID>  (232) 
37

>  <SMILES>  (232) 
[O-]c1[n-]c(=S)[n-]c1C=c1c[nH+]n2c(=NC3CC3)[n-]/c(=N\Cc3ccc(Cl)cc3)nc12

>  <Energy>  (232) 
395.03216010231966

>  <Genealogy>  (232) 
[O-]c1[n-]c(=S)[n-]c1C=c1c[nH+]n2c(=NC3CC3)[n-]c(=NCc3ccc(Cl)cc3)nc12 (protonated)
[O-]c1[n-]c(=S)[n-]c1C=c1c[nH+]n2c(=NC3CC3)[n-]/c(=N\Cc3ccc(Cl)cc3)nc12 (cis-trans isomerization)
[O-]c1[n-]c(=S)[n-]c1C=c1c[nH+]n2c(=NC3CC3)[n-]/c(=N\Cc3ccc(Cl)cc3)nc12 (3D coordinates assigned)
[O-]c1[n-]c(=S)[n-]c1C=c1c[nH+]n2c(=NC3CC3)[n-]/c(=N\Cc3ccc(Cl)cc3)nc12 (nonaromatic ring conformer: 395.03216010231966 kcal/mol)

>  <smiles>  (232) 
Oc1[nH]c(=S)[nH]c1C=c1cnn2c(=NC3CC3)[nH]c(=NCc3ccc(Cl)cc3)nc12

>  <score_type>  (232) 
oracle

>  <origin>  (232) 
adg

>  <m_score__min__energy>  (232) 
-17.210000000000001

>  <m_primary>  (232) 
energy

$$$$
38:0
     RDKit          3D

 31 33  0  0  0  0  0  0  0  0999 V2000
   58.6260   32.3780   50.5180 C   0  0  0  0  0  0  0  0  0  0  0  0
   59.5650   33.5180   50.8760 C   0  0  0  0  0  0  0  0  0  0  0  0
   60.1260   34.0610   49.6830 O   0  0  0  0  0  0  0  0  0  0  0  0
   61.3630   33.6860   49.1380 C   0  0  0  0  0  0  0  0  0  0  0  0
   62.5830   34.1500   49.6720 C   0  0  0  0  0  0  0  0  0  0  0  0
   63.7970   33.7890   49.0820 C   0  0  0  0  0  0  0  0  0  0  0  0
   63.8100   32.9690   47.9550 C   0  0  0  0  0  0  0  0  0  0  0  0
   62.6090   32.4990   47.4170 C   0  0  0  0  0  0  0  0  0  0  0  0
   61.3840   32.8410   48.0090 C   0  0  0  0  0  0  0  0  0  0  0  0
   60.1610   32.3460   47.4370 N   0  0  0  0  0  0  0  0  0  0  0  0
   59.3540   33.0210   46.5950 C   0  0  0  0  0  0  0  0  0  0  0  0
   58.2810   32.2200   46.2330 C   0  0  0  0  0  0  0  0  0  0  0  0
   57.1330   32.5830   45.3780 C   0  0  0  0  0  0  0  0  0  0  0  0
   56.6700   33.7530   45.4510 O   0  0  0  0  0  0  0  0  0  0  0  0
   56.4920   31.6490   44.5000 N   0  0  0  0  0  0  0  0  0  0  0  0
   57.1070   30.4540   43.9360 C   0  0  0  0  0  0  0  0  0  0  0  0
   56.4150   29.2350   44.4690 C   0  0  0  0  0  0  0  0  0  0  0  0
   55.2180   29.3300   44.8490 O   0  0  0  0  0  0  0  0  0  0  0  0
   57.0540   27.9510   44.5070 N   0  0  0  0  0  0  0  0  0  0  0  0
   58.0120   27.5010   45.4790 C   0  0  0  0  0  0  0  0  0  0  0  0
   59.2950   28.0770   45.5190 C   0  0  0  0  0  0  0  0  0  0  0  0
   60.2170   27.6960   46.4920 C   0  0  0  0  0  0  0  0  0  0  0  0
   59.8630   26.7570   47.4570 C   0  0  0  0  0  0  0  0  0  0  0  0
   58.5850   26.1980   47.4530 C   0  0  0  0  0  0  0  0  0  0  0  0
   57.6410   26.5580   46.4720 C   0  0  0  0  0  0  0  0  0  0  0  0
   56.2950   25.9220   46.5060 C   0  0  0  0  0  0  0  0  0  0  0  0
   55.1440   26.5990   46.0030 N   0  0  0  0  0  0  0  0  0  0  0  0
   56.1610   24.7570   46.9660 O   0  0  0  0  0  0  0  0  0  0  0  0
   58.4360   31.0120   46.8950 C   0  0  0  0  0  0  0  0  0  0  0  0
   59.6080   31.1270   47.6090 C   0  0  0  0  0  0  0  0  0  0  0  0
   60.1670   30.1160   48.3820 O   0  0  0  0  0  0  0  0  0  0  0  0
  1  2  1  0
  2  3  1  0
  3  4  1  0
  4  5  2  0
  5  6  1  0
  6  7  2  0
  7  8  1  0
  8  9  2  0
  9 10  1  0
 10 11  1  0
 11 12  2  0
 12 13  1  0
 13 14  2  0
 13 15  1  0
 15 16  1  0
 16 17  1  0
 17 18  2  0
 17 19  1  0
 19 20  1  0
 20 21  2  0
 21 22  1  0
 22 23  2  0
 23 24  1  0
 24 25  2  0
 25 26  1  0
 26 27  1  0
 26 28  2  0
 12 29  1  0
 29 30  2  0
 30 31  1  0
  9  4  1  0
 30 10  1  0
 25 20  1  0
M  CHG  4  15  -1  19  -1  27  -1  31  -1
M  END
>  <UniqueID>  (233) 
37

>  <SMILES>  (233) 
CCOc1ccccc1-n1cc(C(=O)[N-]CC(=O)[N-]c2ccccc2C([NH-])=O)cc1[O-]

>  <Energy>  (233) 
89.19572712153335

>  <Genealogy>  (233) 
CCOc1ccccc1-n1cc(C(=O)[N-]CC(=O)[N-]c2ccccc2C([NH-])=O)cc1[O-] (protonated)
CCOc1ccccc1-n1cc(C(=O)[N-]CC(=O)[N-]c2ccccc2C([NH-])=O)cc1[O-] (3D coordinates assigned)
CCOc1ccccc1-n1cc(C(=O)[N-]CC(=O)[N-]c2ccccc2C([NH-])=O)cc1[O-] (optimized conformer: 89.19572712153335 kcal/mol)

>  <smiles>  (233) 
CCOc1ccccc1-n1cc(C(=O)NCC(=O)Nc2ccccc2C(N)=O)cc1O

>  <score_type>  (233) 
oracle

>  <origin>  (233) 
adg

>  <m_score__min__energy>  (233) 
-15.91

>  <m_primary>  (233) 
energy

$$$$
69:0
     RDKit          3D

 24 25  0  0  0  0  0  0  0  0999 V2000
   55.1490   29.5610   44.8930 N   0  0  0  0  0  0  0  0  0  0  0  0
   56.3390   29.8960   44.1840 C   0  0  0  0  0  0  0  0  0  0  0  0
   56.6000   29.3060   43.1020 O   0  0  0  0  0  0  0  0  0  0  0  0
   57.2240   30.9800   44.6680 C   0  0  0  0  0  0  0  0  0  0  0  0
   56.6410   32.3480   44.8850 C   0  0  0  0  0  0  0  0  0  0  0  0
   57.6600   33.2510   45.5250 C   0  0  0  0  0  0  0  0  0  0  0  0
   58.4720   34.0780   44.7300 C   0  0  0  0  0  0  0  0  0  0  0  0
   59.4430   34.8910   45.3220 C   0  0  0  0  0  0  0  0  0  0  0  0
   59.6180   34.8760   46.7100 C   0  0  0  0  0  0  0  0  0  0  0  0
   58.8240   34.0470   47.5050 C   0  0  0  0  0  0  0  0  0  0  0  0
   57.8510   33.2340   46.9170 C   0  0  0  0  0  0  0  0  0  0  0  0
   58.4530   30.7690   45.0510 N   0  0  0  0  0  0  0  0  0  0  0  0
   58.9000   29.9290   46.1220 C   0  0  0  0  0  0  0  0  0  0  0  0
   58.6160   30.2580   47.3050 O   0  0  0  0  0  0  0  0  0  0  0  0
   59.9020   28.8280   45.8640 C   0  0  0  0  0  0  0  0  0  0  0  0
   59.4320   27.7870   44.8330 C   0  0  0  0  0  0  0  0  0  0  0  0
   58.4180   26.8340   45.4120 C   0  0  0  0  0  0  0  0  0  0  0  0
   58.8200   25.6020   45.9490 C   0  0  0  0  0  0  0  0  0  0  0  0
   57.8760   24.7300   46.4980 C   0  0  0  0  0  0  0  0  0  0  0  0
   56.5190   25.0800   46.5170 C   0  0  0  0  0  0  0  0  0  0  0  0
   55.5730   24.2150   47.0640 O   0  0  0  0  0  0  0  0  0  0  0  0
   56.1120   26.3100   45.9840 C   0  0  0  0  0  0  0  0  0  0  0  0
   54.7690   26.6680   46.0010 O   0  0  0  0  0  0  0  0  0  0  0  0
   57.0570   27.1840   45.4360 C   0  0  0  0  0  0  0  0  0  0  0  0
  1  2  1  0
  2  3  2  0
  2  4  1  0
  4  5  1  0
  5  6  1  0
  6  7  2  0
  7  8  1  0
  8  9  2  0
  9 10  1  0
 10 11  2  0
  4 12  2  3
 12 13  1  0
 13 14  2  0
 13 15  1  0
 15 16  1  0
 16 17  1  0
 17 18  2  0
 18 19  1  0
 19 20  2  0
 20 21  1  0
 20 22  1  0
 22 23  1  0
 22 24  2  0
 11  6  1  0
 24 17  1  0
M  CHG  2   1  -1  23  -1
M  END
>  <UniqueID>  (234) 
66

>  <SMILES>  (234) 
[NH-]C(=O)C(Cc1ccccc1)=NC(=O)CCc1ccc(O)c([O-])c1

>  <Energy>  (234) 
45.632764504000725

>  <Genealogy>  (234) 
[NH-]C(=O)C(Cc1ccccc1)=NC(=O)CCc1ccc(O)c([O-])c1 (protonated)
[NH-]C(=O)C(Cc1ccccc1)=NC(=O)CCc1ccc(O)c([O-])c1 (3D coordinates assigned)
[NH-]C(=O)C(Cc1ccccc1)=NC(=O)CCc1ccc(O)c([O-])c1 (optimized conformer: 45.632764504000725 kcal/mol)

>  <smiles>  (234) 
NC(=O)C(Cc1ccccc1)=NC(=O)CCc1ccc(O)c(O)c1

>  <score_type>  (234) 
oracle

>  <origin>  (234) 
adg

>  <m_score__min__energy>  (234) 
-15.33

>  <m_primary>  (234) 
energy

$$$$
73:0
     RDKit          3D

 31 33  0  0  0  0  0  0  0  0999 V2000
   64.0420   31.7030   51.2710 N   0  0  0  0  0  0  0  0  0  0  0  0
   63.9120   33.2070   50.4290 S   0  0  0  0  0  0  0  0  0  0  0  0
   65.1670   33.4480   49.6380 O   0  0  0  0  0  0  0  0  0  0  0  0
   63.7460   34.3220   51.4220 O   0  0  0  0  0  0  0  0  0  0  0  0
   62.5170   33.1630   49.3570 C   0  0  0  0  0  0  0  0  0  0  0  0
   62.6190   32.6150   48.0710 C   0  0  0  0  0  0  0  0  0  0  0  0
   61.5050   32.5850   47.2280 C   0  0  0  0  0  0  0  0  0  0  0  0
   60.2680   33.0840   47.6680 C   0  0  0  0  0  0  0  0  0  0  0  0
   59.0580   33.0370   46.7720 C   0  0  0  0  0  0  0  0  0  0  0  0
   59.4410   33.2390   45.3720 N   0  0  0  0  0  0  0  0  0  0  0  0
   58.1240   32.8690   44.2970 S   0  0  0  0  0  0  0  0  0  0  0  0
   58.6000   32.9620   42.8740 O   0  0  0  0  0  0  0  0  0  0  0  0
   57.0260   33.8740   44.5020 O   0  0  0  0  0  0  0  0  0  0  0  0
   57.4860   31.2600   44.6250 C   0  0  0  0  0  0  0  0  0  0  0  0
   56.2180   30.9060   44.1470 C   0  0  0  0  0  0  0  0  0  0  0  0
   55.6690   29.6590   44.4600 C   0  0  0  0  0  0  0  0  0  0  0  0
   56.3970   28.7410   45.2380 C   0  0  0  0  0  0  0  0  0  0  0  0
   55.8530   27.4720   45.6280 N   0  0  0  0  0  0  0  0  0  0  0  0
   56.5900   26.3220   46.0630 C   0  0  0  0  0  0  0  0  0  0  0  0
   56.3290   25.7800   47.1690 O   0  0  0  0  0  0  0  0  0  0  0  0
   57.5590   25.7130   45.2040 N   0  0  0  0  0  0  0  0  0  0  0  0
   57.5290   24.3660   44.7080 C   0  0  0  0  0  0  0  0  0  0  0  0
   58.4710   23.4490   45.1950 C   0  0  0  0  0  0  0  0  0  0  0  0
   58.4910   22.1340   44.7200 C   0  0  0  0  0  0  0  0  0  0  0  0
   57.5800   21.7300   43.7420 C   0  0  0  0  0  0  0  0  0  0  0  0
   56.6530   22.6420   43.2320 C   0  0  0  0  0  0  0  0  0  0  0  0
   56.6290   23.9570   43.7060 C   0  0  0  0  0  0  0  0  0  0  0  0
   57.6610   29.1020   45.7180 C   0  0  0  0  0  0  0  0  0  0  0  0
   58.2060   30.3500   45.4100 C   0  0  0  0  0  0  0  0  0  0  0  0
   60.1710   33.6400   48.9540 C   0  0  0  0  0  0  0  0  0  0  0  0
   61.2870   33.6720   49.7940 C   0  0  0  0  0  0  0  0  0  0  0  0
  1  2  1  0
  2  3  2  0
  2  4  2  0
  2  5  1  0
  5  6  2  0
  6  7  1  0
  7  8  2  0
  8  9  1  0
  9 10  1  0
 10 11  1  0
 11 12  2  0
 11 13  2  0
 11 14  1  0
 14 15  2  0
 15 16  1  0
 16 17  2  0
 17 18  1  0
 18 19  1  0
 19 20  2  0
 19 21  1  0
 21 22  1  0
 22 23  2  0
 23 24  1  0
 24 25  2  0
 25 26  1  0
 26 27  2  0
 17 28  1  0
 28 29  2  0
  8 30  1  0
 30 31  2  0
 31  5  1  0
 29 14  1  0
 27 22  1  0
M  CHG  4   1  -1  10  -1  18  -1  21  -1
M  END
>  <UniqueID>  (235) 
70

>  <SMILES>  (235) 
[NH-]S(=O)(=O)c1ccc(C[N-]S(=O)(=O)c2ccc([N-]C(=O)[N-]c3ccccc3)cc2)cc1

>  <Energy>  (235) 
48.73407713805522

>  <Genealogy>  (235) 
[NH-]S(=O)(=O)c1ccc(C[N-]S(=O)(=O)c2ccc([N-]C(=O)[N-]c3ccccc3)cc2)cc1 (protonated)
[NH-]S(=O)(=O)c1ccc(C[N-]S(=O)(=O)c2ccc([N-]C(=O)[N-]c3ccccc3)cc2)cc1 (3D coordinates assigned)
[NH-]S(=O)(=O)c1ccc(C[N-]S(=O)(=O)c2ccc([N-]C(=O)[N-]c3ccccc3)cc2)cc1 (optimized conformer: 48.73407713805522 kcal/mol)

>  <smiles>  (235) 
NS(=O)(=O)c1ccc(CNS(=O)(=O)c2ccc(NC(=O)Nc3ccccc3)cc2)cc1

>  <score_type>  (235) 
oracle

>  <origin>  (235) 
adg

>  <m_score__min__energy>  (235) 
-14.119999999999999

>  <m_primary>  (235) 
energy

$$$$
75:0
     RDKit          3D

 33 36  0  0  0  0  0  0  0  0999 V2000
   53.6150   25.4630   45.6400 N   0  0  0  0  0  0  0  0  0  0  0  0
   54.8890   24.3000   45.7550 S   0  0  0  0  0  0  0  0  0  0  0  0
   54.8250   23.3900   44.5590 O   0  0  0  0  0  0  0  0  0  0  0  0
   54.7220   23.4850   47.0070 O   0  0  0  0  0  0  0  0  0  0  0  0
   56.4370   25.1360   45.8020 C   0  0  0  0  0  0  0  0  0  0  0  0
   57.6330   24.4240   45.9640 C   0  0  0  0  0  0  0  0  0  0  0  0
   58.8570   25.1000   45.9600 C   0  0  0  0  0  0  0  0  0  0  0  0
   58.8920   26.4880   45.7960 C   0  0  0  0  0  0  0  0  0  0  0  0
   57.7020   27.2130   45.6620 C   0  0  0  0  0  0  0  0  0  0  0  0
   57.7660   28.6270   45.4390 N   0  0  0  0  0  0  0  0  0  0  0  0
   56.6590   29.4100   44.9890 C   0  0  0  0  0  0  0  0  0  0  0  0
   55.5190   28.8850   44.8660 O   0  0  0  0  0  0  0  0  0  0  0  0
   56.8830   30.8150   44.5370 C   0  0  0  0  0  0  0  0  0  0  0  0
   57.7630   31.4810   45.4910 N   0  0  0  0  0  0  0  0  0  0  0  0
   58.2610   32.7250   45.3620 C   0  0  0  0  0  0  0  0  0  0  0  0
   58.9000   33.0570   46.5360 C   0  0  0  0  0  0  0  0  0  0  0  0
   59.7800   34.5600   46.8370 S   0  0  0  0  0  0  0  0  0  0  0  0
   59.7010   35.4070   45.5990 O   0  0  0  0  0  0  0  0  0  0  0  0
   59.1360   35.3220   47.9600 O   0  0  0  0  0  0  0  0  0  0  0  0
   61.4600   34.2860   47.2290 N   0  0  0  0  0  0  0  0  0  0  0  0
   61.9300   32.9860   46.7520 C   0  0  0  0  0  0  0  0  0  0  0  0
   63.0710   32.5710   47.6700 C   0  0  0  0  0  0  0  0  0  0  0  0
   62.9570   33.4720   48.8920 C   0  0  0  0  0  0  0  0  0  0  0  0
   61.6920   34.2810   48.6700 C   0  0  0  0  0  0  0  0  0  0  0  0
   58.7390   31.9460   47.3550 C   0  0  0  0  0  0  0  0  0  0  0  0
   59.2130   31.7680   48.7350 C   0  0  0  0  0  0  0  0  0  0  0  0
   60.1230   30.7490   49.0520 C   0  0  0  0  0  0  0  0  0  0  0  0
   60.5860   30.6030   50.3630 C   0  0  0  0  0  0  0  0  0  0  0  0
   60.1570   31.4850   51.3590 C   0  0  0  0  0  0  0  0  0  0  0  0
   59.2700   32.5190   51.0440 C   0  0  0  0  0  0  0  0  0  0  0  0
   58.8070   32.6680   49.7330 C   0  0  0  0  0  0  0  0  0  0  0  0
   58.0380   31.0020   46.6940 N   0  0  0  0  0  0  0  0  0  0  0  0
   56.4730   26.5290   45.6600 C   0  0  0  0  0  0  0  0  0  0  0  0
  1  2  1  0
  2  3  2  0
  2  4  2  0
  2  5  1  0
  5  6  2  0
  6  7  1  0
  7  8  2  0
  8  9  1  0
  9 10  1  0
 10 11  1  0
 11 12  2  0
 11 13  1  0
 13 14  1  0
 14 15  1  0
 15 16  2  0
 16 17  1  0
 17 18  2  0
 17 19  2  0
 17 20  1  0
 20 21  1  0
 21 22  1  0
 22 23  1  0
 23 24  1  0
 16 25  1  0
 25 26  1  0
 26 27  2  0
 27 28  1  0
 28 29  2  0
 29 30  1  0
 30 31  2  0
 25 32  2  0
  9 33  2  0
 33  5  1  0
 32 14  1  0
 24 20  1  0
 31 26  1  0
M  CHG  2   1  -1  10  -1
M  END
>  <UniqueID>  (236) 
72

>  <SMILES>  (236) 
[NH-]S(=O)(=O)c1cccc([N-]C(=O)Cn2cc(S(=O)(=O)N3CCCC3)c(-c3ccccc3)n2)c1

>  <Energy>  (236) 
95.62359827352948

>  <Genealogy>  (236) 
[NH-]S(=O)(=O)c1cccc([N-]C(=O)Cn2cc(S(=O)(=O)N3CCCC3)c(-c3ccccc3)n2)c1 (protonated)
[NH-]S(=O)(=O)c1cccc([N-]C(=O)Cn2cc(S(=O)(=O)N3CCCC3)c(-c3ccccc3)n2)c1 (3D coordinates assigned)
[NH-]S(=O)(=O)c1cccc([N-]C(=O)Cn2cc(S(=O)(=O)N3CCCC3)c(-c3ccccc3)n2)c1 (nonaromatic ring conformer: 95.62359827352948 kcal/mol)

>  <smiles>  (236) 
NS(=O)(=O)c1cccc(NC(=O)Cn2cc(S(=O)(=O)N3CCCC3)c(-c3ccccc3)n2)c1

>  <score_type>  (236) 
oracle

>  <origin>  (236) 
adg

>  <m_score__min__energy>  (236) 
-14.220000000000001

>  <m_primary>  (236) 
energy

$$$$
10:0
     RDKit          3D

 26 28  0  0  0  0  0  0  0  0999 V2000
   58.1800   29.3740   44.5170 C   0  0  0  0  0  0  0  0  0  0  0  0
   58.2070   30.8360   44.7110 C   0  0  0  0  0  0  0  0  0  0  0  0
   57.8240   31.5770   43.7660 O   0  0  0  0  0  0  0  0  0  0  0  0
   58.6540   31.4320   45.9410 N   0  0  0  0  0  0  0  0  0  0  0  0
   59.9820   31.1050   46.4810 C   0  0  0  0  0  0  0  0  0  0  0  0
   59.9220   30.9940   48.0120 C   0  0  0  0  0  0  0  0  0  0  0  0
   59.0800   32.0480   48.6000 N   0  0  0  0  0  0  0  0  0  0  0  0
   58.7090   31.9670   49.9900 C   0  0  0  0  0  0  0  0  0  0  0  0
   58.9020   33.0680   50.8440 C   0  0  0  0  0  0  0  0  0  0  0  0
   58.5280   32.9930   52.1900 C   0  0  0  0  0  0  0  0  0  0  0  0
   57.9550   31.8230   52.6940 C   0  0  0  0  0  0  0  0  0  0  0  0
   57.5850   31.7500   54.0310 O   0  0  0  0  0  0  0  0  0  0  0  0
   57.7540   30.7250   51.8510 C   0  0  0  0  0  0  0  0  0  0  0  0
   58.1250   30.7970   50.5050 C   0  0  0  0  0  0  0  0  0  0  0  0
   58.5680   33.1280   47.7480 C   0  0  0  0  0  0  0  0  0  0  0  0
   57.8710   32.5320   46.5220 C   0  0  0  0  0  0  0  0  0  0  0  0
   58.4330   28.5150   45.5120 C   0  0  0  0  0  0  0  0  0  0  0  0
   57.5420   27.3760   45.8370 C   0  0  0  0  0  0  0  0  0  0  0  0
   56.1460   27.4280   45.6550 C   0  0  0  0  0  0  0  0  0  0  0  0
   55.5260   28.5790   45.1810 O   0  0  0  0  0  0  0  0  0  0  0  0
   55.3790   26.3540   45.9760 N   0  0  0  0  0  0  0  0  0  0  0  0
   55.9300   25.2250   46.4880 C   0  0  0  0  0  0  0  0  0  0  0  0
   55.1980   24.2430   46.7730 O   0  0  0  0  0  0  0  0  0  0  0  0
   57.2690   25.1580   46.6980 N   0  0  0  0  0  0  0  0  0  0  0  0
   58.0810   26.2020   46.3940 C   0  0  0  0  0  0  0  0  0  0  0  0
   59.3200   26.1000   46.6050 O   0  0  0  0  0  0  0  0  0  0  0  0
  1  2  1  0
  2  3  2  0
  2  4  1  0
  4  5  1  0
  5  6  1  0
  6  7  1  0
  7  8  1  0
  8  9  2  0
  9 10  1  0
 10 11  2  0
 11 12  1  0
 11 13  1  0
 13 14  2  0
  7 15  1  0
 15 16  1  0
  1 17  2  0
 17 18  1  0
 18 19  2  0
 19 20  1  0
 19 21  1  0
 21 22  1  0
 22 23  2  0
 22 24  1  0
 24 25  1  0
 25 26  2  0
 16  4  1  0
 25 18  1  0
 14  8  1  0
M  CHG  4  12  -1  20  -1  21  -1  24  -1
M  END
>  <UniqueID>  (237) 
10

>  <SMILES>  (237) 
O=C(/C=C/c1c([O-])[n-]c(=O)[n-]c1=O)N1CCN(c2ccc([O-])cc2)CC1

>  <Energy>  (237) 
56.39558523092596

>  <Genealogy>  (237) 
O=C(C=Cc1c([O-])[n-]c(=O)[n-]c1=O)N1CCN(c2ccc([O-])cc2)CC1 (protonated)
O=C(/C=C/c1c([O-])[n-]c(=O)[n-]c1=O)N1CCN(c2ccc([O-])cc2)CC1 (cis-trans isomerization)
O=C(/C=C/c1c([O-])[n-]c(=O)[n-]c1=O)N1CCN(c2ccc([O-])cc2)CC1 (3D coordinates assigned)
O=C(/C=C/c1c([O-])[n-]c(=O)[n-]c1=O)N1CCN(c2ccc([O-])cc2)CC1 (nonaromatic ring conformer: 56.39558523092596 kcal/mol)

>  <smiles>  (237) 
O=C(C=Cc1c(O)[nH]c(=O)[nH]c1=O)N1CCN(c2ccc(O)cc2)CC1

>  <score_type>  (237) 
oracle

>  <origin>  (237) 
adg

>  <m_score__min__energy>  (237) 
-15.279999999999999

>  <m_primary>  (237) 
energy

$$$$
73:0
     RDKit          3D

 22 23  0  0  0  0  0  0  0  0999 V2000
   60.4990   30.3270   49.8200 N   0  0  0  0  0  0  0  0  0  0  0  0
   58.7790   30.5000   49.7940 S   0  0  0  0  0  0  0  0  0  0  0  0
   58.1570   29.1960   50.2090 O   0  0  0  0  0  0  0  0  0  0  0  0
   58.3450   30.8410   48.3960 O   0  0  0  0  0  0  0  0  0  0  0  0
   58.2570   31.7800   50.8950 C   0  0  0  0  0  0  0  0  0  0  0  0
   59.1020   32.8740   51.1410 C   0  0  0  0  0  0  0  0  0  0  0  0
   58.7060   33.8900   52.0140 C   0  0  0  0  0  0  0  0  0  0  0  0
   57.4630   33.8260   52.6430 C   0  0  0  0  0  0  0  0  0  0  0  0
   56.6110   32.7470   52.4010 C   0  0  0  0  0  0  0  0  0  0  0  0
   56.9970   31.7140   51.5250 C   0  0  0  0  0  0  0  0  0  0  0  0
   56.1350   30.5970   51.2580 N   0  0  0  0  0  0  0  0  0  0  0  0
   54.9890   29.9220   52.3700 S   0  0  0  0  0  0  0  0  0  0  0  0
   54.7330   28.4870   52.0020 O   0  0  0  0  0  0  0  0  0  0  0  0
   55.5590   29.9790   53.7580 O   0  0  0  0  0  0  0  0  0  0  0  0
   53.4930   30.8500   52.3310 C   0  0  0  0  0  0  0  0  0  0  0  0
   52.7380   31.0270   53.4980 C   0  0  0  0  0  0  0  0  0  0  0  0
   51.5470   31.7570   53.4600 C   0  0  0  0  0  0  0  0  0  0  0  0
   51.1040   32.3160   52.2570 C   0  0  0  0  0  0  0  0  0  0  0  0
   49.9170   33.0390   52.2250 O   0  0  0  0  0  0  0  0  0  0  0  0
   51.8570   32.1450   51.0890 C   0  0  0  0  0  0  0  0  0  0  0  0
   51.4240   32.6990   49.8900 O   0  0  0  0  0  0  0  0  0  0  0  0
   53.0510   31.4160   51.1270 C   0  0  0  0  0  0  0  0  0  0  0  0
  1  2  1  0
  2  3  2  0
  2  4  2  0
  2  5  1  0
  5  6  2  0
  6  7  1  0
  7  8  2  0
  8  9  1  0
  9 10  2  0
 10 11  1  0
 11 12  1  0
 12 13  2  0
 12 14  2  0
 12 15  1  0
 15 16  2  0
 16 17  1  0
 17 18  2  0
 18 19  1  0
 18 20  1  0
 20 21  1  0
 20 22  2  0
 10  5  1  0
 22 15  1  0
M  CHG  4   1  -1  11  -1  19  -1  21  -1
M  END
>  <UniqueID>  (238) 
71

>  <SMILES>  (238) 
[NH-]S(=O)(=O)c1ccccc1[N-]S(=O)(=O)c1ccc([O-])c([O-])c1

>  <Energy>  (238) 
34.89720583445583

>  <Genealogy>  (238) 
[NH-]S(=O)(=O)c1ccccc1[N-]S(=O)(=O)c1ccc([O-])c([O-])c1 (protonated)
[NH-]S(=O)(=O)c1ccccc1[N-]S(=O)(=O)c1ccc([O-])c([O-])c1 (3D coordinates assigned)
[NH-]S(=O)(=O)c1ccccc1[N-]S(=O)(=O)c1ccc([O-])c([O-])c1 (optimized conformer: 34.89720583445583 kcal/mol)

>  <smiles>  (238) 
NS(=O)(=O)c1ccccc1NS(=O)(=O)c1ccc(O)c(O)c1

>  <score_type>  (238) 
oracle

>  <origin>  (238) 
adg

>  <m_score__min__energy>  (238) 
-16.640000000000001

>  <m_primary>  (238) 
energy

$$$$
81:0
     RDKit          3D

 24 25  0  0  0  0  0  0  0  0999 V2000
   53.4530   22.4850   46.6490 C   0  0  0  0  0  0  0  0  0  0  0  0
   54.2320   23.6760   46.3370 N   0  0  0  0  0  0  0  0  0  0  0  0
   55.5780   23.8410   46.8050 C   0  0  0  0  0  0  0  0  0  0  0  0
   56.0700   22.9970   47.6040 O   0  0  0  0  0  0  0  0  0  0  0  0
   56.3930   25.0010   46.3750 C   0  0  0  0  0  0  0  0  0  0  0  0
   57.7990   24.9200   46.3640 C   0  0  0  0  0  0  0  0  0  0  0  0
   58.4370   23.7970   46.7840 F   0  0  0  0  0  0  0  0  0  0  0  0
   58.5640   26.0140   45.9560 C   0  0  0  0  0  0  0  0  0  0  0  0
   57.9450   27.2020   45.5730 C   0  0  0  0  0  0  0  0  0  0  0  0
   56.5460   27.3160   45.6110 C   0  0  0  0  0  0  0  0  0  0  0  0
   55.8870   28.5350   45.2340 N   0  0  0  0  0  0  0  0  0  0  0  0
   56.5300   29.7930   44.9920 C   0  0  0  0  0  0  0  0  0  0  0  0
   56.3890   30.3450   43.8700 O   0  0  0  0  0  0  0  0  0  0  0  0
   57.3280   30.4440   45.9900 N   0  0  0  0  0  0  0  0  0  0  0  0
   57.8710   31.7690   45.8980 C   0  0  0  0  0  0  0  0  0  0  0  0
   57.1370   32.8290   45.3360 C   0  0  0  0  0  0  0  0  0  0  0  0
   57.6880   34.1120   45.2740 C   0  0  0  0  0  0  0  0  0  0  0  0
   58.9840   34.3430   45.7540 C   0  0  0  0  0  0  0  0  0  0  0  0
   59.5500   35.6660   45.6920 C   0  0  0  0  0  0  0  0  0  0  0  0
   60.0060   36.7280   45.6430 N   0  0  0  0  0  0  0  0  0  0  0  0
   59.7290   33.2840   46.2850 C   0  0  0  0  0  0  0  0  0  0  0  0
   59.1750   32.0010   46.3490 C   0  0  0  0  0  0  0  0  0  0  0  0
   55.7720   26.2100   45.9930 C   0  0  0  0  0  0  0  0  0  0  0  0
   54.3840   26.3180   45.9890 O   0  0  0  0  0  0  0  0  0  0  0  0
  1  2  1  0
  2  3  1  0
  3  4  2  0
  3  5  1  0
  5  6  2  0
  6  7  1  0
  6  8  1  0
  8  9  2  0
  9 10  1  0
 10 11  1  0
 11 12  1  0
 12 13  2  0
 12 14  1  0
 14 15  1  0
 15 16  2  0
 16 17  1  0
 17 18  2  0
 18 19  1  0
 19 20  3  0
 18 21  1  0
 21 22  2  0
 10 23  2  0
 23 24  1  0
 23  5  1  0
 22 15  1  0
M  CHG  3  11  -1  14  -1  24  -1
M  END
>  <UniqueID>  (239) 
79

>  <SMILES>  (239) 
CNC(=O)c1c(F)ccc([N-]C(=O)[N-]c2ccc(C#N)cc2)c1[O-]

>  <Energy>  (239) 
43.43027203762561

>  <Genealogy>  (239) 
CNC(=O)c1c(F)ccc([N-]C(=O)[N-]c2ccc(C#N)cc2)c1[O-] (protonated)
CNC(=O)c1c(F)ccc([N-]C(=O)[N-]c2ccc(C#N)cc2)c1[O-] (3D coordinates assigned)
CNC(=O)c1c(F)ccc([N-]C(=O)[N-]c2ccc(C#N)cc2)c1[O-] (optimized conformer: 43.43027203762561 kcal/mol)

>  <smiles>  (239) 
CNC(=O)c1c(F)ccc(NC(=O)Nc2ccc(C#N)cc2)c1O

>  <score_type>  (239) 
oracle

>  <origin>  (239) 
adg

>  <m_score__min__energy>  (239) 
-14.710000000000001

>  <m_primary>  (239) 
energy

$$$$
19:0
     RDKit          3D

 25 27  0  0  0  0  0  0  0  0999 V2000
   57.0230   27.0970   46.0340 C   0  0  0  0  0  0  0  0  0  0  0  0
   57.7410   27.9400   45.2760 C   0  0  0  0  0  0  0  0  0  0  0  0
   57.5060   29.4000   45.1740 C   0  0  0  0  0  0  0  0  0  0  0  0
   56.2230   29.8760   44.8950 C   0  0  0  0  0  0  0  0  0  0  0  0
   55.1670   28.9940   44.6930 O   0  0  0  0  0  0  0  0  0  0  0  0
   56.0010   31.2080   44.8060 N   0  0  0  0  0  0  0  0  0  0  0  0
   56.9970   32.1090   44.9910 C   0  0  0  0  0  0  0  0  0  0  0  0
   56.7300   33.3370   44.8860 O   0  0  0  0  0  0  0  0  0  0  0  0
   58.2690   31.6870   45.2900 N   0  0  0  0  0  0  0  0  0  0  0  0
   59.3480   32.6690   45.5280 C   0  0  0  0  0  0  0  0  0  0  0  0
   59.4370   33.0100   46.9940 C   0  0  0  0  0  0  0  0  0  0  0  0
   58.8970   32.1460   47.9610 C   0  0  0  0  0  0  0  0  0  0  0  0
   58.9560   32.4790   49.3180 C   0  0  0  0  0  0  0  0  0  0  0  0
   59.5530   33.6790   49.7190 C   0  0  0  0  0  0  0  0  0  0  0  0
   60.0900   34.5450   48.7630 C   0  0  0  0  0  0  0  0  0  0  0  0
   60.0320   34.2150   47.4060 C   0  0  0  0  0  0  0  0  0  0  0  0
   58.5260   30.3430   45.4040 C   0  0  0  0  0  0  0  0  0  0  0  0
   59.6780   29.9430   45.7340 O   0  0  0  0  0  0  0  0  0  0  0  0
   56.6590   25.7110   45.6550 C   0  0  0  0  0  0  0  0  0  0  0  0
   57.6410   24.7800   45.2690 C   0  0  0  0  0  0  0  0  0  0  0  0
   57.2780   23.4820   44.8990 C   0  0  0  0  0  0  0  0  0  0  0  0
   55.9350   23.1060   44.8920 C   0  0  0  0  0  0  0  0  0  0  0  0
   54.9480   24.0290   45.2460 C   0  0  0  0  0  0  0  0  0  0  0  0
   55.3030   25.3310   45.6210 C   0  0  0  0  0  0  0  0  0  0  0  0
   54.3050   26.2340   45.9690 O   0  0  0  0  0  0  0  0  0  0  0  0
  1  2  2  0
  2  3  1  0
  3  4  2  0
  4  5  1  0
  4  6  1  0
  6  7  1  0
  7  8  2  0
  7  9  1  0
  9 10  1  0
 10 11  1  0
 11 12  2  0
 12 13  1  0
 13 14  2  0
 14 15  1  0
 15 16  2  0
  9 17  1  0
 17 18  2  0
  1 19  1  0
 19 20  2  0
 20 21  1  0
 21 22  2  0
 22 23  1  0
 23 24  2  0
 24 25  1  0
 17  3  1  0
 24 19  1  0
 16 11  1  0
M  CHG  3   5  -1   6  -1  25  -1
M  END
>  <UniqueID>  (240) 
20

>  <SMILES>  (240) 
O=c1[n-]c([O-])c(/C=C\c2ccccc2[O-])c(=O)n1Cc1ccccc1

>  <Energy>  (240) 
57.05531664375971

>  <Genealogy>  (240) 
O=c1[n-]c([O-])c(C=Cc2ccccc2[O-])c(=O)n1Cc1ccccc1 (protonated)
O=c1[n-]c([O-])c(/C=C\c2ccccc2[O-])c(=O)n1Cc1ccccc1 (cis-trans isomerization)
O=c1[n-]c([O-])c(/C=C\c2ccccc2[O-])c(=O)n1Cc1ccccc1 (3D coordinates assigned)
O=c1[n-]c([O-])c(/C=C\c2ccccc2[O-])c(=O)n1Cc1ccccc1 (optimized conformer: 57.05531664375971 kcal/mol)

>  <smiles>  (240) 
O=c1[nH]c(O)c(C=Cc2ccccc2O)c(=O)n1Cc1ccccc1

>  <score_type>  (240) 
oracle

>  <origin>  (240) 
adg

>  <m_score__min__energy>  (240) 
-16.649999999999999

>  <m_primary>  (240) 
energy

$$$$
85:0
     RDKit          3D

 27 29  0  0  0  0  0  0  0  0999 V2000
   55.3530   24.2700   46.1670 O   0  0  0  0  0  0  0  0  0  0  0  0
   55.5220   25.5200   46.0830 C   0  0  0  0  0  0  0  0  0  0  0  0
   54.4110   26.3360   45.9290 O   0  0  0  0  0  0  0  0  0  0  0  0
   56.8800   26.1090   46.1770 C   0  0  0  0  0  0  0  0  0  0  0  0
   58.0140   25.2770   46.2110 C   0  0  0  0  0  0  0  0  0  0  0  0
   59.2960   25.8310   46.2320 C   0  0  0  0  0  0  0  0  0  0  0  0
   59.4510   27.2270   46.2330 C   0  0  0  0  0  0  0  0  0  0  0  0
   58.3380   28.0710   46.2290 C   0  0  0  0  0  0  0  0  0  0  0  0
   58.5480   29.4920   46.2710 N   0  0  0  0  0  0  0  0  0  0  0  0
   58.0080   30.6030   45.0550 S   0  0  0  0  0  0  0  0  0  0  0  0
   58.6560   30.2320   43.7520 O   0  0  0  0  0  0  0  0  0  0  0  0
   56.5190   30.4920   44.9040 O   0  0  0  0  0  0  0  0  0  0  0  0
   58.4400   32.2580   45.4760 C   0  0  0  0  0  0  0  0  0  0  0  0
   58.1440   33.2950   44.5840 C   0  0  0  0  0  0  0  0  0  0  0  0
   58.5490   34.6030   44.8630 C   0  0  0  0  0  0  0  0  0  0  0  0
   59.2580   34.8850   46.0370 C   0  0  0  0  0  0  0  0  0  0  0  0
   59.6520   36.1950   46.2980 O   0  0  0  0  0  0  0  0  0  0  0  0
   59.5540   33.8510   46.9450 C   0  0  0  0  0  0  0  0  0  0  0  0
   60.2920   34.1350   48.1900 C   0  0  0  0  0  0  0  0  0  0  0  0
   59.6780   34.6420   49.1620 O   0  0  0  0  0  0  0  0  0  0  0  0
   61.6890   33.8200   48.3100 N   0  0  0  0  0  0  0  0  0  0  0  0
   62.5390   34.3580   49.3540 C   0  0  0  0  0  0  0  0  0  0  0  0
   63.8080   33.5110   49.3260 C   0  0  0  0  0  0  0  0  0  0  0  0
   63.8120   32.8150   47.9710 C   0  0  0  0  0  0  0  0  0  0  0  0
   62.3580   32.8030   47.5100 C   0  0  0  0  0  0  0  0  0  0  0  0
   59.1290   32.5410   46.6660 C   0  0  0  0  0  0  0  0  0  0  0  0
   57.0520   27.5060   46.2030 C   0  0  0  0  0  0  0  0  0  0  0  0
  1  2  2  0
  2  3  1  0
  2  4  1  0
  4  5  2  0
  5  6  1  0
  6  7  2  0
  7  8  1  0
  8  9  1  0
  9 10  1  0
 10 11  2  0
 10 12  2  0
 10 13  1  0
 13 14  2  0
 14 15  1  0
 15 16  2  0
 16 17  1  0
 16 18  1  0
 18 19  1  0
 19 20  2  0
 19 21  1  0
 21 22  1  0
 22 23  1  0
 23 24  1  0
 24 25  1  0
 18 26  2  0
  8 27  2  0
 27  4  1  0
 26 13  1  0
 25 21  1  0
M  CHG  3   3  -1   9  -1  17  -1
M  END
>  <UniqueID>  (241) 
82

>  <SMILES>  (241) 
O=C([O-])c1cccc([N-]S(=O)(=O)c2ccc([O-])c(C(=O)N3CCCC3)c2)c1

>  <Energy>  (241) 
53.042107236204146

>  <Genealogy>  (241) 
O=C([O-])c1cccc([N-]S(=O)(=O)c2ccc([O-])c(C(=O)N3CCCC3)c2)c1 (protonated)
O=C([O-])c1cccc([N-]S(=O)(=O)c2ccc([O-])c(C(=O)N3CCCC3)c2)c1 (3D coordinates assigned)
O=C([O-])c1cccc([N-]S(=O)(=O)c2ccc([O-])c(C(=O)N3CCCC3)c2)c1 (nonaromatic ring conformer: 53.042107236204146 kcal/mol)

>  <smiles>  (241) 
O=C(O)c1cccc(NS(=O)(=O)c2ccc(O)c(C(=O)N3CCCC3)c2)c1

>  <score_type>  (241) 
oracle

>  <origin>  (241) 
adg

>  <m_score__min__energy>  (241) 
-14.49

>  <m_primary>  (241) 
energy

$$$$
6:0
     RDKit          3D

 30 32  0  0  0  0  0  0  0  0999 V2000
   63.4620   31.6910   47.1840 N   0  0  0  0  0  0  0  0  0  0  0  0
   62.9340   33.3150   47.4600 S   0  0  0  0  0  0  0  0  0  0  0  0
   62.1240   33.7540   46.2710 O   0  0  0  0  0  0  0  0  0  0  0  0
   64.1380   34.2030   47.6040 O   0  0  0  0  0  0  0  0  0  0  0  0
   61.9580   33.3980   48.9370 C   0  0  0  0  0  0  0  0  0  0  0  0
   62.5830   33.7980   50.1300 C   0  0  0  0  0  0  0  0  0  0  0  0
   61.8690   33.8390   51.3290 C   0  0  0  0  0  0  0  0  0  0  0  0
   60.5220   33.4790   51.3530 C   0  0  0  0  0  0  0  0  0  0  0  0
   59.8810   33.0890   50.1760 C   0  0  0  0  0  0  0  0  0  0  0  0
   60.5810   33.0580   48.9580 C   0  0  0  0  0  0  0  0  0  0  0  0
   59.8430   32.6790   47.7350 C   0  0  0  0  0  0  0  0  0  0  0  0
   58.9850   33.6000   47.1160 C   0  0  0  0  0  0  0  0  0  0  0  0
   58.2930   33.2480   45.9540 C   0  0  0  0  0  0  0  0  0  0  0  0
   58.4600   31.9740   45.3890 C   0  0  0  0  0  0  0  0  0  0  0  0
   57.6870   31.5900   44.1610 C   0  0  0  0  0  0  0  0  0  0  0  0
   56.4240   30.9820   44.5580 N   0  0  0  0  0  0  0  0  0  0  0  0
   56.2260   29.5820   44.7880 C   0  0  0  0  0  0  0  0  0  0  0  0
   55.1030   29.0770   44.5250 O   0  0  0  0  0  0  0  0  0  0  0  0
   57.3010   28.7080   45.3750 C   0  0  0  0  0  0  0  0  0  0  0  0
   57.4670   27.4010   44.5860 C   0  0  0  0  0  0  0  0  0  0  0  0
   57.3460   26.2250   45.4640 N   0  0  0  0  0  0  0  0  0  0  0  0
   58.4220   25.3960   45.6250 C   0  0  0  0  0  0  0  0  0  0  0  0
   58.3440   24.2880   46.4650 C   0  0  0  0  0  0  0  0  0  0  0  0
   57.1480   24.0410   47.1320 C   0  0  0  0  0  0  0  0  0  0  0  0
   57.0390   23.0460   47.8940 O   0  0  0  0  0  0  0  0  0  0  0  0
   56.0970   24.8800   46.9600 N   0  0  0  0  0  0  0  0  0  0  0  0
   56.1820   25.9620   46.1420 C   0  0  0  0  0  0  0  0  0  0  0  0
   55.1790   26.7150   46.0170 O   0  0  0  0  0  0  0  0  0  0  0  0
   59.3210   31.0530   46.0070 C   0  0  0  0  0  0  0  0  0  0  0  0
   60.0180   31.4080   47.1660 C   0  0  0  0  0  0  0  0  0  0  0  0
  1  2  1  0
  2  3  2  0
  2  4  2  0
  2  5  1  0
  5  6  2  0
  6  7  1  0
  7  8  2  0
  8  9  1  0
  9 10  2  0
 10 11  1  0
 11 12  2  0
 12 13  1  0
 13 14  2  0
 14 15  1  0
 15 16  1  0
 16 17  1  0
 17 18  2  0
 17 19  1  0
 19 20  1  0
 20 21  1  0
 21 22  1  0
 22 23  2  0
 23 24  1  0
 24 25  2  0
 24 26  1  0
 26 27  1  0
 27 28  2  0
 14 29  1  0
 29 30  2  0
 10  5  1  0
 30 11  1  0
 27 21  1  0
M  CHG  3   1  -1  16  -1  26  -1
M  END
>  <UniqueID>  (242) 
4

>  <SMILES>  (242) 
[NH-]S(=O)(=O)c1ccccc1-c1ccc(C[N-]C(=O)CCn2ccc(=O)[n-]c2=O)cc1

>  <Energy>  (242) 
54.96621838812076

>  <Genealogy>  (242) 
[NH-]S(=O)(=O)c1ccccc1-c1ccc(C[N-]C(=O)CCn2ccc(=O)[n-]c2=O)cc1 (protonated)
[NH-]S(=O)(=O)c1ccccc1-c1ccc(C[N-]C(=O)CCn2ccc(=O)[n-]c2=O)cc1 (3D coordinates assigned)
[NH-]S(=O)(=O)c1ccccc1-c1ccc(C[N-]C(=O)CCn2ccc(=O)[n-]c2=O)cc1 (optimized conformer: 54.96621838812076 kcal/mol)

>  <smiles>  (242) 
NS(=O)(=O)c1ccccc1-c1ccc(CNC(=O)CCn2ccc(=O)[nH]c2=O)cc1

>  <score_type>  (242) 
oracle

>  <origin>  (242) 
adg

>  <m_score__min__energy>  (242) 
-14.18

>  <m_primary>  (242) 
energy

$$$$
11:0
     RDKit          3D

 31 33  0  0  0  0  0  0  0  0999 V2000
   56.5840   29.3840   44.7590 C   0  0  0  0  0  0  0  0  0  0  0  0
   56.6520   30.6960   43.9840 C   0  0  0  0  0  0  0  0  0  0  0  0
   56.3180   31.8240   44.8490 N   0  0  0  0  0  0  0  0  0  0  0  0
   57.1560   32.9480   45.1570 C   0  0  0  0  0  0  0  0  0  0  0  0
   56.7150   34.1040   44.9180 O   0  0  0  0  0  0  0  0  0  0  0  0
   58.5490   32.7980   45.7350 C   0  0  0  0  0  0  0  0  0  0  0  0
   58.4980   32.6360   47.2760 C   0  0  0  0  0  0  0  0  0  0  0  0
   58.7820   33.9620   48.0000 C   0  0  0  0  0  0  0  0  0  0  0  0
   60.0980   34.5400   47.6290 N   0  0  0  0  0  0  0  0  0  0  0  0
   61.1300   34.4580   48.6870 C   0  0  0  0  0  0  0  0  0  0  0  0
   61.3780   33.0510   49.1940 C   0  0  0  0  0  0  0  0  0  0  0  0
   61.9340   32.8370   50.4660 C   0  0  0  0  0  0  0  0  0  0  0  0
   62.1630   31.5380   50.9270 C   0  0  0  0  0  0  0  0  0  0  0  0
   61.8440   30.4410   50.1240 C   0  0  0  0  0  0  0  0  0  0  0  0
   61.2900   30.6340   48.8470 C   0  0  0  0  0  0  0  0  0  0  0  0
   60.9760   29.5220   47.9900 N   0  0  0  0  0  0  0  0  0  0  0  0
   59.6410   29.0490   47.7500 C   0  0  0  0  0  0  0  0  0  0  0  0
   58.6580   29.8060   47.9810 O   0  0  0  0  0  0  0  0  0  0  0  0
   59.4010   27.7010   47.1810 C   0  0  0  0  0  0  0  0  0  0  0  0
   60.4870   26.8830   46.8190 C   0  0  0  0  0  0  0  0  0  0  0  0
   60.2690   25.6090   46.2880 C   0  0  0  0  0  0  0  0  0  0  0  0
   58.9680   25.1390   46.1020 C   0  0  0  0  0  0  0  0  0  0  0  0
   57.8750   25.9470   46.4380 C   0  0  0  0  0  0  0  0  0  0  0  0
   56.2320   25.3560   46.2080 S   0  0  0  0  0  0  0  0  0  0  0  0
   55.1490   26.6980   46.0830 N   0  0  0  0  0  0  0  0  0  0  0  0
   56.1590   24.5360   44.9510 O   0  0  0  0  0  0  0  0  0  0  0  0
   55.8280   24.4940   47.3710 O   0  0  0  0  0  0  0  0  0  0  0  0
   58.0920   27.2220   46.9780 C   0  0  0  0  0  0  0  0  0  0  0  0
   61.0890   31.9420   48.3800 C   0  0  0  0  0  0  0  0  0  0  0  0
   60.5970   34.1750   46.2830 C   0  0  0  0  0  0  0  0  0  0  0  0
   59.4410   33.9840   45.2970 C   0  0  0  0  0  0  0  0  0  0  0  0
  1  2  1  0
  2  3  1  0
  3  4  1  0
  4  5  2  0
  4  6  1  0
  6  7  1  0
  7  8  1  0
  8  9  1  0
  9 10  1  0
 10 11  1  0
 11 12  2  0
 12 13  1  0
 13 14  2  0
 14 15  1  0
 15 16  1  0
 16 17  1  0
 17 18  2  0
 17 19  1  0
 19 20  2  0
 20 21  1  0
 21 22  2  0
 22 23  1  0
 23 24  1  0
 24 25  1  0
 24 26  2  0
 24 27  2  0
 23 28  2  0
 15 29  2  0
  9 30  1  0
 30 31  1  0
 31  6  1  0
 29 11  1  0
 28 19  1  0
M  CHG  2   3  -1  25  -1
M  END
>  <UniqueID>  (243) 
7

>  <SMILES>  (243) 
CC[N-]C(=O)C1CCN(Cc2cccc(NC(=O)c3cccc(S([NH-])(=O)=O)c3)c2)CC1

>  <Energy>  (243) 
70.49090174862707

>  <Genealogy>  (243) 
CC[N-]C(=O)C1CCN(Cc2cccc(NC(=O)c3cccc(S([NH-])(=O)=O)c3)c2)CC1 (protonated)
CC[N-]C(=O)C1CCN(Cc2cccc(NC(=O)c3cccc(S([NH-])(=O)=O)c3)c2)CC1 (3D coordinates assigned)
CC[N-]C(=O)C1CCN(Cc2cccc(NC(=O)c3cccc(S([NH-])(=O)=O)c3)c2)CC1 (nonaromatic ring conformer: 70.49090174862707 kcal/mol)

>  <smiles>  (243) 
CCNC(=O)C1CCN(Cc2cccc(NC(=O)c3cccc(S(N)(=O)=O)c3)c2)CC1

>  <score_type>  (243) 
oracle

>  <origin>  (243) 
adg

>  <m_score__min__energy>  (243) 
-14.140000000000001

>  <m_primary>  (243) 
energy

$$$$
26:0
     RDKit          3D

 24 25  0  0  0  0  0  0  0  0999 V2000
   58.5680   22.1530   45.1860 C   0  0  0  0  0  0  0  0  0  0  0  0
   57.3040   22.0160   45.9800 C   0  0  0  0  0  0  0  0  0  0  0  0
   56.2300   21.7230   45.3900 O   0  0  0  0  0  0  0  0  0  0  0  0
   57.2820   22.2500   47.3920 N   0  0  0  0  0  0  0  0  0  0  0  0
   56.2730   23.0620   48.0640 C   0  0  0  0  0  0  0  0  0  0  0  0
   55.7830   24.0930   47.1540 N   0  0  0  0  0  0  0  0  0  0  0  0
   56.5560   25.2430   46.7440 C   0  0  0  0  0  0  0  0  0  0  0  0
   57.9540   25.2860   46.9070 C   0  0  0  0  0  0  0  0  0  0  0  0
   58.6800   26.4120   46.5110 C   0  0  0  0  0  0  0  0  0  0  0  0
   58.0280   27.5120   45.9580 C   0  0  0  0  0  0  0  0  0  0  0  0
   56.6300   27.4950   45.7940 C   0  0  0  0  0  0  0  0  0  0  0  0
   55.9220   28.6170   45.2470 N   0  0  0  0  0  0  0  0  0  0  0  0
   56.4460   29.5820   43.9020 S   0  0  0  0  0  0  0  0  0  0  0  0
   55.2570   29.9540   43.0590 O   0  0  0  0  0  0  0  0  0  0  0  0
   57.3910   28.7730   43.0580 O   0  0  0  0  0  0  0  0  0  0  0  0
   57.2890   31.0140   44.4850 C   0  0  0  0  0  0  0  0  0  0  0  0
   57.4730   32.1300   43.6570 C   0  0  0  0  0  0  0  0  0  0  0  0
   58.1580   33.2510   44.1340 C   0  0  0  0  0  0  0  0  0  0  0  0
   58.6630   33.2640   45.4380 C   0  0  0  0  0  0  0  0  0  0  0  0
   59.5240   34.6680   46.0360 Cl  0  0  0  0  0  0  0  0  0  0  0  0
   58.4790   32.1550   46.2680 C   0  0  0  0  0  0  0  0  0  0  0  0
   57.7940   31.0320   45.7930 C   0  0  0  0  0  0  0  0  0  0  0  0
   55.9040   26.3560   46.1740 C   0  0  0  0  0  0  0  0  0  0  0  0
   54.5270   26.3350   45.9840 O   0  0  0  0  0  0  0  0  0  0  0  0
  1  2  1  0
  2  3  2  0
  2  4  1  0
  4  5  1  0
  5  6  1  0
  6  7  1  0
  7  8  2  0
  8  9  1  0
  9 10  2  0
 10 11  1  0
 11 12  1  0
 12 13  1  0
 13 14  2  0
 13 15  2  0
 13 16  1  0
 16 17  2  0
 17 18  1  0
 18 19  2  0
 19 20  1  0
 19 21  1  0
 21 22  2  0
 11 23  2  0
 23 24  1  0
 23  7  1  0
 22 16  1  0
M  CHG  3   4  -1  12  -1  24  -1
M  END
>  <UniqueID>  (244) 
22

>  <SMILES>  (244) 
CC(=O)[N-]CNc1cccc([N-]S(=O)(=O)c2ccc(Cl)cc2)c1[O-]

>  <Energy>  (244) 
38.40453226943674

>  <Genealogy>  (244) 
CC(=O)[N-]CNc1cccc([N-]S(=O)(=O)c2ccc(Cl)cc2)c1[O-] (protonated)
CC(=O)[N-]CNc1cccc([N-]S(=O)(=O)c2ccc(Cl)cc2)c1[O-] (3D coordinates assigned)
CC(=O)[N-]CNc1cccc([N-]S(=O)(=O)c2ccc(Cl)cc2)c1[O-] (optimized conformer: 38.40453226943674 kcal/mol)

>  <smiles>  (244) 
CC(=O)NCNc1cccc(NS(=O)(=O)c2ccc(Cl)cc2)c1O

>  <score_type>  (244) 
oracle

>  <origin>  (244) 
adg

>  <m_score__min__energy>  (244) 
-15.57

>  <m_primary>  (244) 
energy

$$$$
10:0
     RDKit          3D

 22 23  0  0  0  0  0  0  0  0999 V2000
   55.8190   26.8290   45.7790 N   0  0  0  0  0  0  0  0  0  0  0  0
   57.3770   27.5310   46.0410 S   0  0  0  0  0  0  0  0  0  0  0  0
   58.3950   26.7750   45.2330 O   0  0  0  0  0  0  0  0  0  0  0  0
   57.7390   27.4350   47.4960 O   0  0  0  0  0  0  0  0  0  0  0  0
   57.3430   29.2260   45.5550 C   0  0  0  0  0  0  0  0  0  0  0  0
   58.4250   30.0690   45.8520 C   0  0  0  0  0  0  0  0  0  0  0  0
   58.4010   31.4230   45.4830 C   0  0  0  0  0  0  0  0  0  0  0  0
   59.5360   32.2520   45.7810 N   0  0  0  0  0  0  0  0  0  0  0  0
   59.4590   33.6710   46.0120 C   0  0  0  0  0  0  0  0  0  0  0  0
   58.3640   34.2790   45.8980 O   0  0  0  0  0  0  0  0  0  0  0  0
   60.6320   34.4230   46.3450 N   0  0  0  0  0  0  0  0  0  0  0  0
   61.7310   33.9590   47.1410 C   0  0  0  0  0  0  0  0  0  0  0  0
   62.9580   33.6050   46.5500 C   0  0  0  0  0  0  0  0  0  0  0  0
   64.0080   33.1230   47.3370 C   0  0  0  0  0  0  0  0  0  0  0  0
   63.8370   32.9730   48.7160 C   0  0  0  0  0  0  0  0  0  0  0  0
   62.6140   33.2960   49.3080 C   0  0  0  0  0  0  0  0  0  0  0  0
   61.5580   33.7800   48.5250 C   0  0  0  0  0  0  0  0  0  0  0  0
   60.0290   34.1710   49.2980 Cl  0  0  0  0  0  0  0  0  0  0  0  0
   57.2950   31.9210   44.7730 C   0  0  0  0  0  0  0  0  0  0  0  0
   56.2160   31.0850   44.4740 C   0  0  0  0  0  0  0  0  0  0  0  0
   56.2340   29.7430   44.8650 C   0  0  0  0  0  0  0  0  0  0  0  0
   55.1480   28.9300   44.5580 O   0  0  0  0  0  0  0  0  0  0  0  0
  1  2  1  0
  2  3  2  0
  2  4  2  0
  2  5  1  0
  5  6  2  0
  6  7  1  0
  7  8  1  0
  8  9  1  0
  9 10  2  0
  9 11  1  0
 11 12  1  0
 12 13  2  0
 13 14  1  0
 14 15  2  0
 15 16  1  0
 16 17  2  0
 17 18  1  0
  7 19  2  0
 19 20  1  0
 20 21  2  0
 21 22  1  0
 21  5  1  0
 17 12  1  0
M  CHG  3   1  -1  11  -1  22  -1
M  END
>  <UniqueID>  (245) 
11

>  <SMILES>  (245) 
[NH-]S(=O)(=O)c1cc(NC(=O)[N-]c2ccccc2Cl)ccc1[O-]

>  <Energy>  (245) 
41.250700768601284

>  <Genealogy>  (245) 
[NH-]S(=O)(=O)c1cc(NC(=O)[N-]c2ccccc2Cl)ccc1[O-] (protonated)
[NH-]S(=O)(=O)c1cc(NC(=O)[N-]c2ccccc2Cl)ccc1[O-] (3D coordinates assigned)
[NH-]S(=O)(=O)c1cc(NC(=O)[N-]c2ccccc2Cl)ccc1[O-] (optimized conformer: 41.250700768601284 kcal/mol)

>  <smiles>  (245) 
NS(=O)(=O)c1cc(NC(=O)Nc2ccccc2Cl)ccc1O

>  <score_type>  (245) 
oracle

>  <origin>  (245) 
adg

>  <m_score__min__energy>  (245) 
-14.35

>  <m_primary>  (245) 
energy

$$$$
20:0
     RDKit          3D

 33 36  0  0  0  0  0  0  0  0999 V2000
   58.0010   32.7940   52.3760 C   0  0  0  0  0  0  0  0  0  0  0  0
   58.7710   31.8890   51.5350 N   0  0  0  0  0  0  0  0  0  0  0  0
   58.2720   30.5940   51.1720 C   0  0  0  0  0  0  0  0  0  0  0  0
   57.2000   30.1770   51.6910 O   0  0  0  0  0  0  0  0  0  0  0  0
   58.9990   29.7250   50.2090 C   0  0  0  0  0  0  0  0  0  0  0  0
   60.1160   28.9870   50.6420 C   0  0  0  0  0  0  0  0  0  0  0  0
   60.8220   28.1760   49.7480 C   0  0  0  0  0  0  0  0  0  0  0  0
   60.4040   28.0650   48.4210 C   0  0  0  0  0  0  0  0  0  0  0  0
   59.2590   28.7420   47.9870 C   0  0  0  0  0  0  0  0  0  0  0  0
   58.8700   28.6520   46.6120 N   0  0  0  0  0  0  0  0  0  0  0  0
   57.9460   29.3170   45.9660 C   0  0  0  0  0  0  0  0  0  0  0  0
   56.7970   28.6220   45.4840 C   0  0  0  0  0  0  0  0  0  0  0  0
   56.5730   27.1700   45.7410 C   0  0  0  0  0  0  0  0  0  0  0  0
   55.2570   26.6760   45.9890 N   0  0  0  0  0  0  0  0  0  0  0  0
   57.5340   26.3560   45.7480 O   0  0  0  0  0  0  0  0  0  0  0  0
   55.8430   29.3280   44.7140 C   0  0  0  0  0  0  0  0  0  0  0  0
   56.0070   30.6500   44.4560 N   0  0  0  0  0  0  0  0  0  0  0  0
   57.0650   31.2900   44.9420 N   0  0  0  0  0  0  0  0  0  0  0  0
   57.3300   32.5990   44.8210 C   0  0  0  0  0  0  0  0  0  0  0  0
   58.4940   32.8720   45.5160 C   0  0  0  0  0  0  0  0  0  0  0  0
   59.1250   34.2000   45.6420 C   0  0  0  0  0  0  0  0  0  0  0  0
   59.5360   34.7770   44.6010 O   0  0  0  0  0  0  0  0  0  0  0  0
   59.3470   34.8310   46.9110 N   0  0  0  0  0  0  0  0  0  0  0  0
   59.6690   34.1300   48.1490 C   0  0  0  0  0  0  0  0  0  0  0  0
   60.9510   33.3720   47.9790 C   0  0  0  0  0  0  0  0  0  0  0  0
   61.1060   32.1040   48.5680 C   0  0  0  0  0  0  0  0  0  0  0  0
   62.3030   31.3980   48.4100 C   0  0  0  0  0  0  0  0  0  0  0  0
   63.3520   31.9550   47.6720 C   0  0  0  0  0  0  0  0  0  0  0  0
   63.1940   33.2030   47.0620 C   0  0  0  0  0  0  0  0  0  0  0  0
   61.9960   33.9080   47.2080 C   0  0  0  0  0  0  0  0  0  0  0  0
   58.9170   31.6820   46.1020 C   0  0  0  0  0  0  0  0  0  0  0  0
   58.0180   30.7050   45.6880 C   0  0  0  0  0  0  0  0  0  0  0  0
   58.5760   29.5960   48.8710 C   0  0  0  0  0  0  0  0  0  0  0  0
  1  2  1  0
  2  3  1  0
  3  4  2  0
  3  5  1  0
  5  6  2  0
  6  7  1  0
  7  8  2  0
  8  9  1  0
  9 10  1  0
 10 11  2  3
 11 12  1  0
 12 13  1  0
 13 14  1  0
 13 15  2  0
 12 16  2  0
 16 17  1  0
 17 18  1  0
 18 19  1  0
 19 20  2  0
 20 21  1  0
 21 22  2  0
 21 23  1  0
 23 24  1  0
 24 25  1  0
 25 26  2  0
 26 27  1  0
 27 28  2  0
 28 29  1  0
 29 30  2  0
 20 31  1  0
 31 32  2  0
  9 33  2  0
 33  5  1  0
 32 11  1  0
 32 18  1  0
 30 25  1  0
M  CHG  3  14  -1  17  -1  23  -1
M  END
>  <UniqueID>  (246) 
21

>  <SMILES>  (246) 
CNC(=O)c1cccc(N=c2c(C([NH-])=O)c[n-]n3cc(C(=O)[N-]Cc4ccccc4)cc23)c1

>  <Energy>  (246) 
102.91918894562093

>  <Genealogy>  (246) 
CNC(=O)c1cccc(N=c2c(C([NH-])=O)c[n-]n3cc(C(=O)[N-]Cc4ccccc4)cc23)c1 (protonated)
CNC(=O)c1cccc(N=c2c(C([NH-])=O)c[n-]n3cc(C(=O)[N-]Cc4ccccc4)cc23)c1 (3D coordinates assigned)
CNC(=O)c1cccc(N=c2c(C([NH-])=O)c[n-]n3cc(C(=O)[N-]Cc4ccccc4)cc23)c1 (optimized conformer: 102.91918894562093 kcal/mol)

>  <smiles>  (246) 
CNC(=O)c1cccc(N=c2c(C(N)=O)c[nH]n3cc(C(=O)NCc4ccccc4)cc23)c1

>  <score_type>  (246) 
oracle

>  <origin>  (246) 
adg

>  <m_score__min__energy>  (246) 
-14.699999999999999

>  <m_primary>  (246) 
energy

$$$$
28:0
     RDKit          3D

 24 25  0  0  0  0  0  0  0  0999 V2000
   55.5080   29.3430   44.9940 N   0  0  0  0  0  0  0  0  0  0  0  0
   57.2340   29.3300   45.0590 S   0  0  0  0  0  0  0  0  0  0  0  0
   57.7910   29.8360   43.7590 O   0  0  0  0  0  0  0  0  0  0  0  0
   57.7030   30.2300   46.1680 O   0  0  0  0  0  0  0  0  0  0  0  0
   57.7950   27.6880   45.3470 C   0  0  0  0  0  0  0  0  0  0  0  0
   58.5440   27.3880   46.4940 C   0  0  0  0  0  0  0  0  0  0  0  0
   59.0070   26.0870   46.7110 C   0  0  0  0  0  0  0  0  0  0  0  0
   58.7510   25.0790   45.7670 C   0  0  0  0  0  0  0  0  0  0  0  0
   59.2160   23.7370   45.9540 N   0  0  0  0  0  0  0  0  0  0  0  0
   58.7340   22.5580   45.2960 C   0  0  0  0  0  0  0  0  0  0  0  0
   58.9080   22.4470   44.0530 O   0  0  0  0  0  0  0  0  0  0  0  0
   58.1590   21.3900   46.0490 C   0  0  0  0  0  0  0  0  0  0  0  0
   57.3360   21.8660   47.1560 N   0  0  0  0  0  0  0  0  0  0  0  0
   55.9080   21.7580   47.2410 C   0  0  0  0  0  0  0  0  0  0  0  0
   55.4150   20.7890   47.8770 O   0  0  0  0  0  0  0  0  0  0  0  0
   54.9990   22.7280   46.5950 C   0  0  0  0  0  0  0  0  0  0  0  0
   53.8240   22.2780   45.9680 C   0  0  0  0  0  0  0  0  0  0  0  0
   52.9800   23.1810   45.3150 C   0  0  0  0  0  0  0  0  0  0  0  0
   53.3040   24.5390   45.2760 C   0  0  0  0  0  0  0  0  0  0  0  0
   54.4790   24.9950   45.8800 C   0  0  0  0  0  0  0  0  0  0  0  0
   54.8020   26.3460   45.8360 O   0  0  0  0  0  0  0  0  0  0  0  0
   55.3310   24.0920   46.5250 C   0  0  0  0  0  0  0  0  0  0  0  0
   57.9520   25.3680   44.6550 C   0  0  0  0  0  0  0  0  0  0  0  0
   57.4820   26.6670   44.4420 C   0  0  0  0  0  0  0  0  0  0  0  0
  1  2  1  0
  2  3  2  0
  2  4  2  0
  2  5  1  0
  5  6  2  0
  6  7  1  0
  7  8  2  0
  8  9  1  0
  9 10  1  0
 10 11  2  0
 10 12  1  0
 12 13  1  0
 13 14  1  0
 14 15  2  0
 14 16  1  0
 16 17  2  0
 17 18  1  0
 18 19  2  0
 19 20  1  0
 20 21  1  0
 20 22  2  0
  8 23  1  0
 23 24  2  0
 24  5  1  0
 22 16  1  0
M  CHG  4   1  -1   9  -1  13  -1  21  -1
M  END
>  <UniqueID>  (247) 
29

>  <SMILES>  (247) 
[NH-]S(=O)(=O)c1ccc([N-]C(=O)C[N-]C(=O)c2cccc([O-])c2)cc1

>  <Energy>  (247) 
39.95898579264706

>  <Genealogy>  (247) 
[NH-]S(=O)(=O)c1ccc([N-]C(=O)C[N-]C(=O)c2cccc([O-])c2)cc1 (protonated)
[NH-]S(=O)(=O)c1ccc([N-]C(=O)C[N-]C(=O)c2cccc([O-])c2)cc1 (3D coordinates assigned)
[NH-]S(=O)(=O)c1ccc([N-]C(=O)C[N-]C(=O)c2cccc([O-])c2)cc1 (optimized conformer: 39.95898579264706 kcal/mol)

>  <smiles>  (247) 
NS(=O)(=O)c1ccc(NC(=O)CNC(=O)c2cccc(O)c2)cc1

>  <score_type>  (247) 
oracle

>  <origin>  (247) 
adg

>  <m_score__min__energy>  (247) 
-15.1

>  <m_primary>  (247) 
energy

$$$$
61:0
     RDKit          3D

 29 31  0  0  0  0  0  0  0  0999 V2000
   59.0000   26.3900   48.2380 O   0  0  0  0  0  0  0  0  0  0  0  0
   58.1890   26.7360   47.3380 C   0  0  0  0  0  0  0  0  0  0  0  0
   56.9080   26.0910   47.2860 N   0  0  0  0  0  0  0  0  0  0  0  0
   56.5130   25.1830   46.2810 N   0  0  0  0  0  0  0  0  0  0  0  0
   55.3120   25.3170   45.6350 C   0  0  0  0  0  0  0  0  0  0  0  0
   54.4270   26.3330   45.9780 O   0  0  0  0  0  0  0  0  0  0  0  0
   54.9510   24.4140   44.6360 C   0  0  0  0  0  0  0  0  0  0  0  0
   55.8160   23.3650   44.3400 C   0  0  0  0  0  0  0  0  0  0  0  0
   55.5190   22.5300   43.4450 O   0  0  0  0  0  0  0  0  0  0  0  0
   56.9780   23.2360   45.0260 N   0  0  0  0  0  0  0  0  0  0  0  0
   57.3270   24.1240   45.9920 C   0  0  0  0  0  0  0  0  0  0  0  0
   58.4170   23.9710   46.6080 O   0  0  0  0  0  0  0  0  0  0  0  0
   58.5920   27.7650   46.3510 C   0  0  0  0  0  0  0  0  0  0  0  0
   59.8860   27.7430   45.8010 C   0  0  0  0  0  0  0  0  0  0  0  0
   60.2790   28.7170   44.8800 C   0  0  0  0  0  0  0  0  0  0  0  0
   59.3840   29.7160   44.4910 C   0  0  0  0  0  0  0  0  0  0  0  0
   58.0850   29.7400   45.0130 C   0  0  0  0  0  0  0  0  0  0  0  0
   56.9570   30.9930   44.5090 S   0  0  0  0  0  0  0  0  0  0  0  0
   55.5750   30.4070   44.4510 O   0  0  0  0  0  0  0  0  0  0  0  0
   57.3220   31.5240   43.1510 O   0  0  0  0  0  0  0  0  0  0  0  0
   56.9720   32.2990   45.6500 N   0  0  0  0  0  0  0  0  0  0  0  0
   58.0610   33.2110   45.8520 C   0  0  0  0  0  0  0  0  0  0  0  0
   58.2400   34.3450   45.0360 C   0  0  0  0  0  0  0  0  0  0  0  0
   59.3160   35.2090   45.2550 C   0  0  0  0  0  0  0  0  0  0  0  0
   60.2190   34.9560   46.2890 C   0  0  0  0  0  0  0  0  0  0  0  0
   60.0490   33.8370   47.1070 C   0  0  0  0  0  0  0  0  0  0  0  0
   58.9740   32.9650   46.8930 C   0  0  0  0  0  0  0  0  0  0  0  0
   58.7920   31.5630   47.9370 Cl  0  0  0  0  0  0  0  0  0  0  0  0
   57.6910   28.7610   45.9360 C   0  0  0  0  0  0  0  0  0  0  0  0
  1  2  2  0
  2  3  1  0
  3  4  1  0
  4  5  1  0
  5  6  1  0
  5  7  2  0
  7  8  1  0
  8  9  2  0
  8 10  1  0
 10 11  1  0
 11 12  2  0
  2 13  1  0
 13 14  2  0
 14 15  1  0
 15 16  2  0
 16 17  1  0
 17 18  1  0
 18 19  2  0
 18 20  2  0
 18 21  1  0
 21 22  1  0
 22 23  2  0
 23 24  1  0
 24 25  2  0
 25 26  1  0
 26 27  2  0
 27 28  1  0
 17 29  2  0
 11  4  1  0
 29 13  1  0
 27 22  1  0
M  CHG  4   3  -1   6  -1  10  -1  21  -1
M  END
>  <UniqueID>  (248) 
60

>  <SMILES>  (248) 
O=C([N-]n1c([O-])cc(=O)[n-]c1=O)c1cccc(S(=O)(=O)[N-]c2ccccc2Cl)c1

>  <Energy>  (248) 
54.85278618710668

>  <Genealogy>  (248) 
O=C([N-]n1c([O-])cc(=O)[n-]c1=O)c1cccc(S(=O)(=O)[N-]c2ccccc2Cl)c1 (protonated)
O=C([N-]n1c([O-])cc(=O)[n-]c1=O)c1cccc(S(=O)(=O)[N-]c2ccccc2Cl)c1 (3D coordinates assigned)
O=C([N-]n1c([O-])cc(=O)[n-]c1=O)c1cccc(S(=O)(=O)[N-]c2ccccc2Cl)c1 (optimized conformer: 54.85278618710668 kcal/mol)

>  <smiles>  (248) 
O=C(Nn1c(O)cc(=O)[nH]c1=O)c1cccc(S(=O)(=O)Nc2ccccc2Cl)c1

>  <score_type>  (248) 
oracle

>  <origin>  (248) 
adg

>  <m_score__min__energy>  (248) 
-17.699999999999999

>  <m_primary>  (248) 
energy

$$$$
69:0
     RDKit          3D

 32 36  0  0  0  0  0  0  0  0999 V2000
   53.3300   31.4230   52.2270 C   0  0  0  0  0  0  0  0  0  0  0  0
   52.3410   31.3590   51.1390 C   0  0  0  0  0  0  0  0  0  0  0  0
   52.3850   30.4510   50.1500 N   0  0  0  0  0  0  0  0  0  0  0  0
   51.3670   30.8200   49.3420 C   0  0  0  0  0  0  0  0  0  0  0  0
   51.0730   30.1910   48.2920 O   0  0  0  0  0  0  0  0  0  0  0  0
   50.6980   31.9230   49.7410 N   0  0  0  0  0  0  0  0  0  0  0  0
   51.3350   32.2600   50.8740 C   0  0  0  0  0  0  0  0  0  0  0  0
   51.0280   33.3890   51.6220 O   0  0  0  0  0  0  0  0  0  0  0  0
   54.3970   30.6160   52.3260 C   0  0  0  0  0  0  0  0  0  0  0  0
   54.3760   29.2690   52.6830 C   0  0  0  0  0  0  0  0  0  0  0  0
   55.6370   28.7750   52.7160 N   0  0  0  0  0  0  0  0  0  0  0  0
   56.4430   29.7750   52.3990 N   0  0  0  0  0  0  0  0  0  0  0  0
   57.7960   29.7660   52.3400 C   0  0  0  0  0  0  0  0  0  0  0  0
   58.4650   28.6720   52.5580 N   0  0  0  0  0  0  0  0  0  0  0  0
   59.9190   28.5470   52.4120 C   0  0  0  0  0  0  0  0  0  0  0  0
   60.6220   29.3960   53.4920 C   0  0  0  0  0  0  0  0  0  0  0  0
   61.9420   30.0290   53.0030 C   0  0  0  0  0  0  0  0  0  0  0  0
   62.6720   29.1690   52.0480 N   0  0  0  0  0  0  0  0  0  0  0  0
   63.2680   27.9940   52.7070 C   0  0  0  0  0  0  0  0  0  0  0  0
   61.8830   28.8070   50.8420 C   0  0  0  0  0  0  0  0  0  0  0  0
   60.3610   28.9810   51.0080 C   0  0  0  0  0  0  0  0  0  0  0  0
   58.4290   30.9360   52.0440 N   0  0  0  0  0  0  0  0  0  0  0  0
   57.7200   32.0830   51.8140 C   0  0  0  0  0  0  0  0  0  0  0  0
   58.3260   33.2070   51.5700 N   0  0  0  0  0  0  0  0  0  0  0  0
   59.5730   33.3750   50.8720 C   0  0  0  0  0  0  0  0  0  0  0  0
   60.7670   33.1120   51.5570 C   0  0  0  0  0  0  0  0  0  0  0  0
   62.0010   33.2660   50.9180 C   0  0  0  0  0  0  0  0  0  0  0  0
   62.0520   33.7050   49.5920 C   0  0  0  0  0  0  0  0  0  0  0  0
   60.8690   34.0030   48.9090 C   0  0  0  0  0  0  0  0  0  0  0  0
   59.6350   33.8520   49.5470 C   0  0  0  0  0  0  0  0  0  0  0  0
   56.3570   32.0640   51.8880 N   0  0  0  0  0  0  0  0  0  0  0  0
   55.7430   30.8870   52.1640 C   0  0  0  0  0  0  0  0  0  0  0  0
  1  2  1  0
  2  3  1  0
  3  4  1  0
  4  5  2  0
  4  6  1  0
  6  7  1  0
  7  8  1  0
  1  9  2  3
  9 10  1  0
 10 11  2  0
 11 12  1  0
 12 13  1  0
 13 14  2  0
 14 15  1  0
 15 16  1  0
 16 17  1  0
 17 18  1  0
 18 19  1  0
 18 20  1  0
 20 21  1  0
 13 22  1  0
 22 23  1  0
 23 24  2  0
 24 25  1  0
 25 26  2  0
 26 27  1  0
 27 28  2  0
 28 29  1  0
 29 30  2  0
 23 31  1  0
 31 32  2  0
  7  2  2  0
 32  9  1  0
 32 12  1  0
 21 15  1  0
 30 25  1  0
M  CHG  4   3  -1   6  -1   8  -1  22  -1
M  END
>  <UniqueID>  (249) 
66

>  <SMILES>  (249) 
CN1CCC(/N=c2\[n-]/c(=N\c3ccccc3)nc3c(=Cc4[n-]c(=O)[n-]c4[O-])cnn23)CC1

>  <Energy>  (249) 
144.5334076684371

>  <Genealogy>  (249) 
CN1CCC(N=c2[n-]c(=Nc3ccccc3)nc3c(=Cc4[n-]c(=O)[n-]c4[O-])cnn23)CC1 (protonated)
CN1CCC(/N=c2\[n-]/c(=N\c3ccccc3)nc3c(=Cc4[n-]c(=O)[n-]c4[O-])cnn23)CC1 (cis-trans isomerization)
CN1CCC(/N=c2\[n-]/c(=N\c3ccccc3)nc3c(=Cc4[n-]c(=O)[n-]c4[O-])cnn23)CC1 (3D coordinates assigned)
CN1CCC(/N=c2\[n-]/c(=N\c3ccccc3)nc3c(=Cc4[n-]c(=O)[n-]c4[O-])cnn23)CC1 (nonaromatic ring conformer: 144.5334076684371 kcal/mol)

>  <smiles>  (249) 
CN1CCC(N=c2[nH]c(=Nc3ccccc3)nc3c(=Cc4[nH]c(=O)[nH]c4O)cnn23)CC1

>  <score_type>  (249) 
oracle

>  <origin>  (249) 
adg

>  <m_score__min__energy>  (249) 
-17.719999999999999

>  <m_primary>  (249) 
energy

$$$$
84:0
     RDKit          3D

 30 34  0  0  0  0  0  0  0  0999 V2000
   56.6260   28.5630   44.8510 C   0  0  0  0  0  0  0  0  0  0  0  0
   56.5810   29.7990   44.4430 N   0  0  0  0  0  0  0  0  0  0  0  0
   57.2510   30.5720   45.4020 N   0  0  0  0  0  0  0  0  0  0  0  0
   58.0890   31.6110   45.2070 C   0  0  0  0  0  0  0  0  0  0  0  0
   57.9770   32.4960   44.2620 N   0  0  0  0  0  0  0  0  0  0  0  0
   57.7830   33.9220   44.5000 C   0  0  0  0  0  0  0  0  0  0  0  0
   58.9320   34.5800   45.2420 C   0  0  0  0  0  0  0  0  0  0  0  0
   57.6380   34.2530   45.9740 C   0  0  0  0  0  0  0  0  0  0  0  0
   59.1350   31.5820   46.0680 N   0  0  0  0  0  0  0  0  0  0  0  0
   58.8930   30.4340   46.7560 C   0  0  0  0  0  0  0  0  0  0  0  0
   59.7170   29.9060   47.6100 N   0  0  0  0  0  0  0  0  0  0  0  0
   61.1670   29.9350   47.4540 C   0  0  0  0  0  0  0  0  0  0  0  0
   61.7290   31.0580   48.2750 C   0  0  0  0  0  0  0  0  0  0  0  0
   61.0700   31.4790   49.4410 C   0  0  0  0  0  0  0  0  0  0  0  0
   61.5690   32.5520   50.1850 C   0  0  0  0  0  0  0  0  0  0  0  0
   62.7230   33.2230   49.7630 C   0  0  0  0  0  0  0  0  0  0  0  0
   63.3400   34.5700   50.7040 Cl  0  0  0  0  0  0  0  0  0  0  0  0
   63.3760   32.8180   48.5920 C   0  0  0  0  0  0  0  0  0  0  0  0
   64.4900   33.4670   48.1700 F   0  0  0  0  0  0  0  0  0  0  0  0
   62.8780   31.7440   47.8470 C   0  0  0  0  0  0  0  0  0  0  0  0
   57.7450   29.8480   46.3680 N   0  0  0  0  0  0  0  0  0  0  0  0
   57.3960   28.4980   46.1090 C   0  0  0  0  0  0  0  0  0  0  0  0
   57.8170   27.4300   46.7980 C   0  0  0  0  0  0  0  0  0  0  0  0
   57.1950   26.1010   46.7020 C   0  0  0  0  0  0  0  0  0  0  0  0
   57.8250   24.9660   47.0550 N   0  0  0  0  0  0  0  0  0  0  0  0
   56.8810   24.0160   46.8820 C   0  0  0  0  0  0  0  0  0  0  0  0
   57.1000   22.7970   47.1020 O   0  0  0  0  0  0  0  0  0  0  0  0
   55.6830   24.4760   46.4660 N   0  0  0  0  0  0  0  0  0  0  0  0
   55.8920   25.7990   46.3670 C   0  0  0  0  0  0  0  0  0  0  0  0
   54.8980   26.7090   46.0310 O   0  0  0  0  0  0  0  0  0  0  0  0
  1  2  2  0
  2  3  1  0
  3  4  1  0
  4  5  2  0
  5  6  1  0
  6  7  1  0
  7  8  1  0
  4  9  1  0
  9 10  1  0
 10 11  2  3
 11 12  1  0
 12 13  1  0
 13 14  2  0
 14 15  1  0
 15 16  2  0
 16 17  1  0
 16 18  1  0
 18 19  1  0
 18 20  2  0
 10 21  1  0
 21 22  1  0
 22 23  2  3
 23 24  1  0
 24 25  1  0
 25 26  1  0
 26 27  2  0
 26 28  1  0
 28 29  1  0
 29 30  1  0
 22  1  1  0
 29 24  2  0
 21  3  1  0
  8  6  1  0
 20 13  1  0
M  CHG  4   9  -1  25  -1  28  -1  30  -1
M  END
>  <UniqueID>  (250) 
80

>  <SMILES>  (250) 
O=c1[n-]c([O-])c(C=C2C=Nn3/c(=N\C4CC4)[n-]c(=NCc4ccc(Cl)c(F)c4)n32)[n-]1

>  <Energy>  (250) 
438.8243157712241

>  <Genealogy>  (250) 
O=c1[n-]c([O-])c(C=C2C=Nn3c(=NC4CC4)[n-]c(=NCc4ccc(Cl)c(F)c4)n32)[n-]1 (protonated)
O=c1[n-]c([O-])c(C=C2C=Nn3/c(=N\C4CC4)[n-]c(=NCc4ccc(Cl)c(F)c4)n32)[n-]1 (cis-trans isomerization)
O=c1[n-]c([O-])c(C=C2C=Nn3/c(=N\C4CC4)[n-]c(=NCc4ccc(Cl)c(F)c4)n32)[n-]1 (3D coordinates assigned)
O=c1[n-]c([O-])c(C=C2C=Nn3/c(=N\C4CC4)[n-]c(=NCc4ccc(Cl)c(F)c4)n32)[n-]1 (nonaromatic ring conformer: 438.8243157712241 kcal/mol)

>  <smiles>  (250) 
O=c1[nH]c(O)c(C=C2C=Nn3c(=NC4CC4)[nH]c(=NCc4ccc(Cl)c(F)c4)n32)[nH]1

>  <score_type>  (250) 
oracle

>  <origin>  (250) 
adg

>  <m_score__min__energy>  (250) 
-17.280000000000001

>  <m_primary>  (250) 
energy

$$$$
19:0
     RDKit          3D

 25 27  0  0  0  0  0  0  0  0999 V2000
   55.5180   29.3670   44.9200 N   0  0  0  0  0  0  0  0  0  0  0  0
   57.2370   29.4530   44.7590 S   0  0  0  0  0  0  0  0  0  0  0  0
   57.5880   30.0020   43.4050 O   0  0  0  0  0  0  0  0  0  0  0  0
   57.8200   28.0740   44.8860 O   0  0  0  0  0  0  0  0  0  0  0  0
   57.8930   30.4970   46.0150 C   0  0  0  0  0  0  0  0  0  0  0  0
   58.1380   31.8510   45.7480 C   0  0  0  0  0  0  0  0  0  0  0  0
   58.6590   32.6790   46.7440 C   0  0  0  0  0  0  0  0  0  0  0  0
   58.9240   32.1660   48.0170 C   0  0  0  0  0  0  0  0  0  0  0  0
   58.6420   30.8170   48.3100 C   0  0  0  0  0  0  0  0  0  0  0  0
   58.8970   30.2470   49.6060 N   0  0  0  0  0  0  0  0  0  0  0  0
   58.3330   30.5900   50.7280 C   0  0  0  0  0  0  0  0  0  0  0  0
   58.9820   31.4330   51.5700 N   0  0  0  0  0  0  0  0  0  0  0  0
   58.4210   31.7760   52.7580 C   0  0  0  0  0  0  0  0  0  0  0  0
   57.2130   31.2690   53.1120 N   0  0  0  0  0  0  0  0  0  0  0  0
   56.5630   30.4130   52.2820 C   0  0  0  0  0  0  0  0  0  0  0  0
   55.3920   29.9600   52.6230 N   0  0  0  0  0  0  0  0  0  0  0  0
   54.1250   30.6070   52.4010 C   0  0  0  0  0  0  0  0  0  0  0  0
   53.8500   31.1290   51.1300 C   0  0  0  0  0  0  0  0  0  0  0  0
   52.6340   31.7700   50.8740 C   0  0  0  0  0  0  0  0  0  0  0  0
   51.6890   31.9130   51.8940 C   0  0  0  0  0  0  0  0  0  0  0  0
   50.4790   32.5460   51.6380 O   0  0  0  0  0  0  0  0  0  0  0  0
   51.9660   31.4240   53.1750 C   0  0  0  0  0  0  0  0  0  0  0  0
   53.1820   30.7860   53.4340 C   0  0  0  0  0  0  0  0  0  0  0  0
   57.1280   30.0820   51.0920 N   0  0  0  0  0  0  0  0  0  0  0  0
   58.1500   29.9850   47.2950 C   0  0  0  0  0  0  0  0  0  0  0  0
  1  2  1  0
  2  3  2  0
  2  4  2  0
  2  5  1  0
  5  6  2  0
  6  7  1  0
  7  8  2  0
  8  9  1  0
  9 10  1  0
 10 11  2  0
 11 12  1  0
 12 13  2  0
 13 14  1  0
 14 15  1  0
 15 16  2  3
 16 17  1  0
 17 18  2  0
 18 19  1  0
 19 20  2  0
 20 21  1  0
 20 22  1  0
 22 23  2  0
 15 24  1  0
  9 25  2  0
 25  5  1  0
 24 11  1  0
 23 17  1  0
M  CHG  4   1  -1  14  -1  21  -1  24  -1
M  END
>  <UniqueID>  (251) 
17

>  <SMILES>  (251) 
[NH-]S(=O)(=O)c1cccc(/N=c2/nc[n-]c(=Nc3ccc([O-])cc3)[n-]2)c1

>  <Energy>  (251) 
49.646586097255565

>  <Genealogy>  (251) 
[NH-]S(=O)(=O)c1cccc(N=c2nc[n-]c(=Nc3ccc([O-])cc3)[n-]2)c1 (protonated)
[NH-]S(=O)(=O)c1cccc(/N=c2/nc[n-]c(=Nc3ccc([O-])cc3)[n-]2)c1 (cis-trans isomerization)
[NH-]S(=O)(=O)c1cccc(/N=c2/nc[n-]c(=Nc3ccc([O-])cc3)[n-]2)c1 (3D coordinates assigned)
[NH-]S(=O)(=O)c1cccc(/N=c2/nc[n-]c(=Nc3ccc([O-])cc3)[n-]2)c1 (optimized conformer: 49.646586097255565 kcal/mol)

>  <smiles>  (251) 
NS(=O)(=O)c1cccc(N=c2nc[nH]c(=Nc3ccc(O)cc3)[nH]2)c1

>  <score_type>  (251) 
oracle

>  <origin>  (251) 
adg

>  <m_score__min__energy>  (251) 
-15.77

>  <m_primary>  (251) 
energy

$$$$
34:0
     RDKit          3D

 28 30  0  0  0  0  0  0  0  0999 V2000
   56.6860   21.6570   42.9820 C   0  0  0  0  0  0  0  0  0  0  0  0
   56.8810   22.9370   43.6510 N   0  0  0  0  0  0  0  0  0  0  0  0
   56.9600   24.1500   43.0680 C   0  0  0  0  0  0  0  0  0  0  0  0
   57.0520   25.1510   43.9700 N   0  0  0  0  0  0  0  0  0  0  0  0
   57.0160   24.5170   45.1590 C   0  0  0  0  0  0  0  0  0  0  0  0
   57.0940   25.3340   46.7070 S   0  0  0  0  0  0  0  0  0  0  0  0
   58.5270   25.3770   47.1580 O   0  0  0  0  0  0  0  0  0  0  0  0
   56.2530   24.5820   47.6990 O   0  0  0  0  0  0  0  0  0  0  0  0
   56.4950   26.9510   46.5160 N   0  0  0  0  0  0  0  0  0  0  0  0
   57.1590   28.0810   45.9260 C   0  0  0  0  0  0  0  0  0  0  0  0
   58.5350   28.2100   46.1600 C   0  0  0  0  0  0  0  0  0  0  0  0
   59.2630   29.2930   45.6330 C   0  0  0  0  0  0  0  0  0  0  0  0
   60.6390   29.4660   45.8590 O   0  0  0  0  0  0  0  0  0  0  0  0
   61.2130   30.3510   46.8210 C   0  0  0  0  0  0  0  0  0  0  0  0
   60.2970   30.5280   48.0040 C   0  0  0  0  0  0  0  0  0  0  0  0
   59.5960   31.7300   48.1880 C   0  0  0  0  0  0  0  0  0  0  0  0
   58.7390   31.8870   49.2820 C   0  0  0  0  0  0  0  0  0  0  0  0
   58.5610   30.8400   50.2050 C   0  0  0  0  0  0  0  0  0  0  0  0
   57.6540   31.0010   51.3630 C   0  0  0  0  0  0  0  0  0  0  0  0
   56.8980   30.0600   51.7190 O   0  0  0  0  0  0  0  0  0  0  0  0
   57.6240   32.1960   52.0740 O   0  0  0  0  0  0  0  0  0  0  0  0
   59.2540   29.6340   50.0080 C   0  0  0  0  0  0  0  0  0  0  0  0
   60.1110   29.4780   48.9140 C   0  0  0  0  0  0  0  0  0  0  0  0
   58.5990   30.2430   44.8520 C   0  0  0  0  0  0  0  0  0  0  0  0
   57.2320   30.1230   44.6040 C   0  0  0  0  0  0  0  0  0  0  0  0
   56.5040   29.0520   45.1330 C   0  0  0  0  0  0  0  0  0  0  0  0
   55.1470   28.9770   44.8510 O   0  0  0  0  0  0  0  0  0  0  0  0
   56.9010   23.1580   44.9750 C   0  0  0  0  0  0  0  0  0  0  0  0
  1  2  1  0
  2  3  1  0
  3  4  2  0
  4  5  1  0
  5  6  1  0
  6  7  2  0
  6  8  2  0
  6  9  1  0
  9 10  1  0
 10 11  2  0
 11 12  1  0
 12 13  1  0
 13 14  1  0
 14 15  1  0
 15 16  2  0
 16 17  1  0
 17 18  2  0
 18 19  1  0
 19 20  2  0
 19 21  1  0
 18 22  1  0
 22 23  2  0
 12 24  2  0
 24 25  1  0
 25 26  2  0
 26 27  1  0
  5 28  2  0
 28  2  1  0
 26 10  1  0
 23 15  1  0
M  CHG  3   9  -1  21  -1  27  -1
M  END
>  <UniqueID>  (252) 
29

>  <SMILES>  (252) 
Cn1cnc(S(=O)(=O)[N-]c2cc(OCc3ccc(C(=O)[O-])cc3)ccc2[O-])c1

>  <Energy>  (252) 
80.50044006736485

>  <Genealogy>  (252) 
Cn1cnc(S(=O)(=O)[N-]c2cc(OCc3ccc(C(=O)[O-])cc3)ccc2[O-])c1 (protonated)
Cn1cnc(S(=O)(=O)[N-]c2cc(OCc3ccc(C(=O)[O-])cc3)ccc2[O-])c1 (3D coordinates assigned)
Cn1cnc(S(=O)(=O)[N-]c2cc(OCc3ccc(C(=O)[O-])cc3)ccc2[O-])c1 (optimized conformer: 80.50044006736485 kcal/mol)

>  <smiles>  (252) 
Cn1cnc(S(=O)(=O)Nc2cc(OCc3ccc(C(=O)O)cc3)ccc2O)c1

>  <score_type>  (252) 
oracle

>  <origin>  (252) 
adg

>  <m_score__min__energy>  (252) 
-14.029999999999999

>  <m_primary>  (252) 
energy

$$$$
49:0
     RDKit          3D

 31 33  0  0  0  0  0  0  0  0999 V2000
   54.8000   26.1750   45.9780 N   0  0  0  0  0  0  0  0  0  0  0  0
   56.4670   25.7290   45.9110 S   0  0  0  0  0  0  0  0  0  0  0  0
   56.9200   25.3030   47.2790 O   0  0  0  0  0  0  0  0  0  0  0  0
   56.6430   24.5780   44.9630 O   0  0  0  0  0  0  0  0  0  0  0  0
   57.4190   27.1010   45.3570 C   0  0  0  0  0  0  0  0  0  0  0  0
   58.7230   26.9180   44.8790 C   0  0  0  0  0  0  0  0  0  0  0  0
   59.4690   28.0140   44.4440 C   0  0  0  0  0  0  0  0  0  0  0  0
   58.9230   29.2990   44.4860 C   0  0  0  0  0  0  0  0  0  0  0  0
   57.6220   29.4990   44.9850 C   0  0  0  0  0  0  0  0  0  0  0  0
   56.9920   30.7900   45.0210 N   0  0  0  0  0  0  0  0  0  0  0  0
   57.5110   32.0530   44.5840 C   0  0  0  0  0  0  0  0  0  0  0  0
   58.0160   32.1910   43.4380 O   0  0  0  0  0  0  0  0  0  0  0  0
   57.5360   33.2030   45.5410 C   0  0  0  0  0  0  0  0  0  0  0  0
   58.5320   32.9910   46.6090 N   0  0  0  0  0  0  0  0  0  0  0  0
   59.3830   31.8260   46.2950 C   0  0  0  0  0  0  0  0  0  0  0  0
   59.5510   30.9470   47.5090 C   0  0  0  0  0  0  0  0  0  0  0  0
   58.8990   31.2660   48.7130 C   0  0  0  0  0  0  0  0  0  0  0  0
   59.0330   30.4350   49.8300 C   0  0  0  0  0  0  0  0  0  0  0  0
   59.8100   29.2750   49.7510 C   0  0  0  0  0  0  0  0  0  0  0  0
   60.4520   28.9430   48.5540 C   0  0  0  0  0  0  0  0  0  0  0  0
   60.3200   29.7710   47.4340 C   0  0  0  0  0  0  0  0  0  0  0  0
   59.5200   34.4280   46.8400 S   0  0  0  0  0  0  0  0  0  0  0  0
   58.9000   35.3250   47.8750 O   0  0  0  0  0  0  0  0  0  0  0  0
   59.6540   35.1990   45.5590 O   0  0  0  0  0  0  0  0  0  0  0  0
   61.1350   33.9430   47.3470 C   0  0  0  0  0  0  0  0  0  0  0  0
   61.3810   33.6760   48.7010 C   0  0  0  0  0  0  0  0  0  0  0  0
   62.6590   33.2970   49.1200 C   0  0  0  0  0  0  0  0  0  0  0  0
   63.6940   33.1750   48.1890 C   0  0  0  0  0  0  0  0  0  0  0  0
   63.4520   33.4360   46.8380 C   0  0  0  0  0  0  0  0  0  0  0  0
   62.1760   33.8200   46.4160 C   0  0  0  0  0  0  0  0  0  0  0  0
   56.8760   28.3910   45.4060 C   0  0  0  0  0  0  0  0  0  0  0  0
  1  2  1  0
  2  3  2  0
  2  4  2  0
  2  5  1  0
  5  6  2  0
  6  7  1  0
  7  8  2  0
  8  9  1  0
  9 10  1  0
 10 11  1  0
 11 12  2  0
 11 13  1  0
 13 14  1  0
 14 15  1  0
 15 16  1  0
 16 17  2  0
 17 18  1  0
 18 19  2  0
 19 20  1  0
 20 21  2  0
 14 22  1  0
 22 23  2  0
 22 24  2  0
 22 25  1  0
 25 26  2  0
 26 27  1  0
 27 28  2  0
 28 29  1  0
 29 30  2  0
  9 31  2  0
 31  5  1  0
 21 16  1  0
 30 25  1  0
M  CHG  2   1  -1  10  -1
M  END
>  <UniqueID>  (253) 
43

>  <SMILES>  (253) 
[NH-]S(=O)(=O)c1cccc([N-]C(=O)CN(Cc2ccccc2)S(=O)(=O)c2ccccc2)c1

>  <Energy>  (253) 
51.42383587098442

>  <Genealogy>  (253) 
[NH-]S(=O)(=O)c1cccc([N-]C(=O)CN(Cc2ccccc2)S(=O)(=O)c2ccccc2)c1 (protonated)
[NH-]S(=O)(=O)c1cccc([N-]C(=O)CN(Cc2ccccc2)S(=O)(=O)c2ccccc2)c1 (3D coordinates assigned)
[NH-]S(=O)(=O)c1cccc([N-]C(=O)CN(Cc2ccccc2)S(=O)(=O)c2ccccc2)c1 (optimized conformer: 51.42383587098442 kcal/mol)

>  <smiles>  (253) 
NS(=O)(=O)c1cccc(NC(=O)CN(Cc2ccccc2)S(=O)(=O)c2ccccc2)c1

>  <score_type>  (253) 
oracle

>  <origin>  (253) 
adg

>  <m_score__min__energy>  (253) 
-14.210000000000001

>  <m_primary>  (253) 
energy

$$$$
18:0
     RDKit          3D

 27 30  0  0  0  0  0  0  0  0999 V2000
   58.1320   27.9380   47.4950 O   0  0  0  0  0  0  0  0  0  0  0  0
   57.7510   28.1090   46.3120 C   0  0  0  0  0  0  0  0  0  0  0  0
   58.0840   27.0730   45.2760 C   0  0  0  0  0  0  0  0  0  0  0  0
   57.3820   25.8290   45.5840 N   0  0  0  0  0  0  0  0  0  0  0  0
   57.9500   24.6100   45.7600 C   0  0  0  0  0  0  0  0  0  0  0  0
   59.3080   24.3440   45.5880 O   0  0  0  0  0  0  0  0  0  0  0  0
   57.0010   23.6910   46.1580 C   0  0  0  0  0  0  0  0  0  0  0  0
   55.8140   24.3870   46.2850 C   0  0  0  0  0  0  0  0  0  0  0  0
   56.0760   25.6880   45.9050 C   0  0  0  0  0  0  0  0  0  0  0  0
   55.1410   26.7210   45.8730 O   0  0  0  0  0  0  0  0  0  0  0  0
   54.5190   23.7660   46.7160 C   0  0  0  0  0  0  0  0  0  0  0  0
   54.7790   22.4090   47.4220 C   0  0  0  0  0  0  0  0  0  0  0  0
   55.8210   21.5490   46.6580 C   0  0  0  0  0  0  0  0  0  0  0  0
   57.1860   22.2570   46.5720 C   0  0  0  0  0  0  0  0  0  0  0  0
   56.9000   29.2230   46.0070 N   0  0  0  0  0  0  0  0  0  0  0  0
   56.9510   29.9810   44.7920 C   0  0  0  0  0  0  0  0  0  0  0  0
   56.3210   29.4270   43.6590 C   0  0  0  0  0  0  0  0  0  0  0  0
   56.3630   30.0730   42.4280 C   0  0  0  0  0  0  0  0  0  0  0  0
   57.0500   31.2720   42.3010 C   0  0  0  0  0  0  0  0  0  0  0  0
   57.6900   31.8370   43.4040 C   0  0  0  0  0  0  0  0  0  0  0  0
   57.6650   31.2170   44.6870 C   0  0  0  0  0  0  0  0  0  0  0  0
   58.2900   31.8960   45.8370 N   0  0  0  0  0  0  0  0  0  0  0  0
   57.9460   33.3160   46.0890 C   0  0  0  0  0  0  0  0  0  0  0  0
   58.6510   33.9370   47.2980 C   0  0  0  0  0  0  0  0  0  0  0  0
   58.8170   32.9970   48.3350 O   0  0  0  0  0  0  0  0  0  0  0  0
   59.7350   32.0190   47.8980 C   0  0  0  0  0  0  0  0  0  0  0  0
   59.1150   31.1450   46.8130 C   0  0  0  0  0  0  0  0  0  0  0  0
  1  2  2  0
  2  3  1  0
  3  4  1  0
  4  5  1  0
  5  6  1  0
  5  7  2  0
  7  8  1  0
  8  9  2  0
  9 10  1  0
  8 11  1  0
 11 12  1  0
 12 13  1  0
 13 14  1  0
  2 15  1  0
 15 16  1  0
 16 17  2  0
 17 18  1  0
 18 19  2  0
 19 20  1  0
 20 21  2  0
 21 22  1  0
 22 23  1  0
 23 24  1  0
 24 25  1  0
 25 26  1  0
 26 27  1  0
  9  4  1  0
 21 16  1  0
 27 22  1  0
 14  7  1  0
M  CHG  3   6  -1  10  -1  15  -1
M  END
>  <UniqueID>  (254) 
16

>  <SMILES>  (254) 
O=C(Cn1c([O-])c2c(c1[O-])CCCC2)[N-]c1ccccc1N1CCOCC1

>  <Energy>  (254) 
96.24029196348133

>  <Genealogy>  (254) 
O=C(Cn1c([O-])c2c(c1[O-])CCCC2)[N-]c1ccccc1N1CCOCC1 (protonated)
O=C(Cn1c([O-])c2c(c1[O-])CCCC2)[N-]c1ccccc1N1CCOCC1 (3D coordinates assigned)
O=C(Cn1c([O-])c2c(c1[O-])CCCC2)[N-]c1ccccc1N1CCOCC1 (nonaromatic ring conformer: 96.24029196348133 kcal/mol)

>  <smiles>  (254) 
O=C(Cn1c(O)c2c(c1O)CCCC2)Nc1ccccc1N1CCOCC1

>  <score_type>  (254) 
oracle

>  <origin>  (254) 
adg

>  <m_score__min__energy>  (254) 
-14.710000000000001

>  <m_primary>  (254) 
energy

$$$$
25:0
     RDKit          3D

 27 30  0  0  0  0  0  0  0  0999 V2000
   54.6030   22.6670   45.7190 C   0  0  0  0  0  0  0  0  0  0  0  0
   55.8040   22.3710   45.0710 C   0  0  0  0  0  0  0  0  0  0  0  0
   56.6770   23.4000   44.7040 C   0  0  0  0  0  0  0  0  0  0  0  0
   56.3570   24.7390   44.9940 C   0  0  0  0  0  0  0  0  0  0  0  0
   57.2900   25.8430   44.5630 C   0  0  0  0  0  0  0  0  0  0  0  0
   57.8720   26.5840   45.7380 C   0  0  0  0  0  0  0  0  0  0  0  0
   58.5980   25.9910   46.7110 N   0  0  0  0  0  0  0  0  0  0  0  0
   58.9110   26.9980   47.5450 C   0  0  0  0  0  0  0  0  0  0  0  0
   59.5970   26.8290   48.5890 O   0  0  0  0  0  0  0  0  0  0  0  0
   58.4240   28.1950   47.1590 N   0  0  0  0  0  0  0  0  0  0  0  0
   58.5870   29.4700   47.8560 C   0  0  0  0  0  0  0  0  0  0  0  0
   57.7570   27.9470   46.0080 C   0  0  0  0  0  0  0  0  0  0  0  0
   57.0330   28.9630   45.2000 C   0  0  0  0  0  0  0  0  0  0  0  0
   55.7740   29.0090   45.2340 O   0  0  0  0  0  0  0  0  0  0  0  0
   57.7700   29.8860   44.3820 N   0  0  0  0  0  0  0  0  0  0  0  0
   58.1890   31.0650   44.7340 C   0  0  0  0  0  0  0  0  0  0  0  0
   58.9620   31.3050   45.8230 N   0  0  0  0  0  0  0  0  0  0  0  0
   59.2360   32.6310   45.9300 C   0  0  0  0  0  0  0  0  0  0  0  0
   60.0060   33.1980   46.9470 C   0  0  0  0  0  0  0  0  0  0  0  0
   60.2120   34.5880   46.9420 C   0  0  0  0  0  0  0  0  0  0  0  0
   59.6490   35.3900   45.9280 C   0  0  0  0  0  0  0  0  0  0  0  0
   58.8760   34.8090   44.9110 C   0  0  0  0  0  0  0  0  0  0  0  0
   58.6850   33.4290   44.9380 C   0  0  0  0  0  0  0  0  0  0  0  0
   57.8170   32.4690   43.8690 S   0  0  0  0  0  0  0  0  0  0  0  0
   55.1360   25.0310   45.6350 C   0  0  0  0  0  0  0  0  0  0  0  0
   54.7760   26.3470   45.9080 O   0  0  0  0  0  0  0  0  0  0  0  0
   54.2690   23.9950   45.9990 C   0  0  0  0  0  0  0  0  0  0  0  0
  1  2  2  0
  2  3  1  0
  3  4  2  0
  4  5  1  0
  5  6  1  0
  6  7  1  0
  7  8  1  0
  8  9  2  0
  8 10  1  0
 10 11  1  0
 10 12  1  0
 12 13  1  0
 13 14  2  0
 13 15  1  0
 15 16  2  0
 16 17  1  0
 17 18  1  0
 18 19  2  0
 19 20  1  0
 20 21  2  0
 21 22  1  0
 22 23  2  0
 23 24  1  0
  4 25  1  0
 25 26  1  0
 25 27  2  0
 27  1  1  0
 12  6  2  0
 24 16  1  0
 23 18  1  0
M  CHG  3   7  -1  17  -1  26  -1
M  END
>  <UniqueID>  (255) 
20

>  <SMILES>  (255) 
Cn1c(C(=O)/N=c2\[n-]c3ccccc3s2)c(Cc2ccccc2[O-])[n-]c1=O

>  <Energy>  (255) 
114.12240510423128

>  <Genealogy>  (255) 
Cn1c(C(=O)N=c2[n-]c3ccccc3s2)c(Cc2ccccc2[O-])[n-]c1=O (protonated)
Cn1c(C(=O)/N=c2\[n-]c3ccccc3s2)c(Cc2ccccc2[O-])[n-]c1=O (cis-trans isomerization)
Cn1c(C(=O)/N=c2\[n-]c3ccccc3s2)c(Cc2ccccc2[O-])[n-]c1=O (3D coordinates assigned)
Cn1c(C(=O)/N=c2\[n-]c3ccccc3s2)c(Cc2ccccc2[O-])[n-]c1=O (optimized conformer: 114.12240510423128 kcal/mol)

>  <smiles>  (255) 
Cn1c(C(=O)N=c2[nH]c3ccccc3s2)c(Cc2ccccc2O)[nH]c1=O

>  <score_type>  (255) 
oracle

>  <origin>  (255) 
adg

>  <m_score__min__energy>  (255) 
-14.630000000000001

>  <m_primary>  (255) 
energy

$$$$
37:0
     RDKit          3D

 30 32  0  0  0  0  0  0  0  0999 V2000
   54.5800   25.9530   45.9730 N   0  0  0  0  0  0  0  0  0  0  0  0
   56.0780   25.1710   46.3380 S   0  0  0  0  0  0  0  0  0  0  0  0
   56.1870   23.9020   45.5390 O   0  0  0  0  0  0  0  0  0  0  0  0
   56.1200   24.8250   47.8000 O   0  0  0  0  0  0  0  0  0  0  0  0
   57.4150   26.2430   45.9360 C   0  0  0  0  0  0  0  0  0  0  0  0
   58.6660   26.0640   46.5410 C   0  0  0  0  0  0  0  0  0  0  0  0
   59.7270   26.9140   46.2210 C   0  0  0  0  0  0  0  0  0  0  0  0
   59.5450   27.9470   45.2980 C   0  0  0  0  0  0  0  0  0  0  0  0
   58.3010   28.1380   44.6850 C   0  0  0  0  0  0  0  0  0  0  0  0
   58.1510   29.2220   43.7580 N   0  0  0  0  0  0  0  0  0  0  0  0
   57.0140   30.5220   43.9200 S   0  0  0  0  0  0  0  0  0  0  0  0
   56.6990   31.0760   42.5590 O   0  0  0  0  0  0  0  0  0  0  0  0
   55.7470   29.9940   44.5360 O   0  0  0  0  0  0  0  0  0  0  0  0
   57.7070   31.8030   44.9090 C   0  0  0  0  0  0  0  0  0  0  0  0
   58.0560   31.5640   46.2440 C   0  0  0  0  0  0  0  0  0  0  0  0
   58.6370   32.5780   47.0120 C   0  0  0  0  0  0  0  0  0  0  0  0
   58.8750   33.8490   46.4540 C   0  0  0  0  0  0  0  0  0  0  0  0
   59.4960   34.9200   47.2670 C   0  0  0  0  0  0  0  0  0  0  0  0
   59.9770   35.9430   46.7050 O   0  0  0  0  0  0  0  0  0  0  0  0
   59.5520   34.8020   48.6940 N   0  0  0  0  0  0  0  0  0  0  0  0
   60.3060   33.7660   49.3920 C   0  0  0  0  0  0  0  0  0  0  0  0
   61.5100   33.3590   48.5880 C   0  0  0  0  0  0  0  0  0  0  0  0
   62.6210   34.2090   48.4940 C   0  0  0  0  0  0  0  0  0  0  0  0
   63.7350   33.8230   47.7480 C   0  0  0  0  0  0  0  0  0  0  0  0
   63.7300   32.5860   47.1020 C   0  0  0  0  0  0  0  0  0  0  0  0
   62.6480   31.7690   47.2040 N   0  0  0  0  0  0  0  0  0  0  0  0
   61.5510   32.1220   47.9250 C   0  0  0  0  0  0  0  0  0  0  0  0
   58.5150   34.0810   45.1150 C   0  0  0  0  0  0  0  0  0  0  0  0
   57.9360   33.0640   44.3490 C   0  0  0  0  0  0  0  0  0  0  0  0
   57.2390   27.2690   44.9980 C   0  0  0  0  0  0  0  0  0  0  0  0
  1  2  1  0
  2  3  2  0
  2  4  2  0
  2  5  1  0
  5  6  2  0
  6  7  1  0
  7  8  2  0
  8  9  1  0
  9 10  1  0
 10 11  1  0
 11 12  2  0
 11 13  2  0
 11 14  1  0
 14 15  2  0
 15 16  1  0
 16 17  2  0
 17 18  1  0
 18 19  2  0
 18 20  1  0
 20 21  1  0
 21 22  1  0
 22 23  2  0
 23 24  1  0
 24 25  2  0
 25 26  1  0
 26 27  2  0
 17 28  1  0
 28 29  2  0
  9 30  2  0
 30  5  1  0
 29 14  1  0
 27 22  1  0
M  CHG  3   1  -1  10  -1  20  -1
M  END
>  <UniqueID>  (256) 
30

>  <SMILES>  (256) 
[NH-]S(=O)(=O)c1cccc([N-]S(=O)(=O)c2ccc(C(=O)[N-]Cc3cccnc3)cc2)c1

>  <Energy>  (256) 
49.252127941337164

>  <Genealogy>  (256) 
[NH-]S(=O)(=O)c1cccc([N-]S(=O)(=O)c2ccc(C(=O)[N-]Cc3cccnc3)cc2)c1 (protonated)
[NH-]S(=O)(=O)c1cccc([N-]S(=O)(=O)c2ccc(C(=O)[N-]Cc3cccnc3)cc2)c1 (3D coordinates assigned)
[NH-]S(=O)(=O)c1cccc([N-]S(=O)(=O)c2ccc(C(=O)[N-]Cc3cccnc3)cc2)c1 (optimized conformer: 49.252127941337164 kcal/mol)

>  <smiles>  (256) 
NS(=O)(=O)c1cccc(NS(=O)(=O)c2ccc(C(=O)NCc3cccnc3)cc2)c1

>  <score_type>  (256) 
oracle

>  <origin>  (256) 
adg

>  <m_score__min__energy>  (256) 
-14.460000000000001

>  <m_primary>  (256) 
energy

$$$$
48:0
     RDKit          3D

 28 30  0  0  0  0  0  0  0  0999 V2000
   58.6910   24.0130   44.9200 O   0  0  0  0  0  0  0  0  0  0  0  0
   57.8130   24.5620   45.6380 C   0  0  0  0  0  0  0  0  0  0  0  0
   58.2360   25.4630   46.6700 N   0  0  0  0  0  0  0  0  0  0  0  0
   58.3770   26.8870   46.5460 C   0  0  0  0  0  0  0  0  0  0  0  0
   59.3170   27.6050   47.3050 C   0  0  0  0  0  0  0  0  0  0  0  0
   59.4140   28.9920   47.1710 C   0  0  0  0  0  0  0  0  0  0  0  0
   58.5710   29.6740   46.2900 C   0  0  0  0  0  0  0  0  0  0  0  0
   57.6190   28.9690   45.5420 C   0  0  0  0  0  0  0  0  0  0  0  0
   56.5440   29.8340   44.4490 S   0  0  0  0  0  0  0  0  0  0  0  0
   55.1560   29.2720   44.5770 O   0  0  0  0  0  0  0  0  0  0  0  0
   57.0240   29.6710   43.0330 O   0  0  0  0  0  0  0  0  0  0  0  0
   56.5470   31.5210   44.8610 N   0  0  0  0  0  0  0  0  0  0  0  0
   57.7070   32.1750   44.2620 C   0  0  0  0  0  0  0  0  0  0  0  0
   58.2980   33.1340   45.2540 C   0  0  0  0  0  0  0  0  0  0  0  0
   58.1430   32.9140   46.6330 C   0  0  0  0  0  0  0  0  0  0  0  0
   58.7250   33.7890   47.5550 C   0  0  0  0  0  0  0  0  0  0  0  0
   59.4750   34.8820   47.1090 C   0  0  0  0  0  0  0  0  0  0  0  0
   59.6480   35.0970   45.7390 C   0  0  0  0  0  0  0  0  0  0  0  0
   59.0670   34.2250   44.8120 C   0  0  0  0  0  0  0  0  0  0  0  0
   57.5180   27.5780   45.6830 C   0  0  0  0  0  0  0  0  0  0  0  0
   56.3860   24.2300   45.4140 C   0  0  0  0  0  0  0  0  0  0  0  0
   56.0410   23.1060   44.6480 C   0  0  0  0  0  0  0  0  0  0  0  0
   54.7360   22.8020   44.4310 N   0  0  0  0  0  0  0  0  0  0  0  0
   53.7440   23.5640   44.9550 C   0  0  0  0  0  0  0  0  0  0  0  0
   52.5410   23.2670   44.7380 O   0  0  0  0  0  0  0  0  0  0  0  0
   54.0470   24.6440   45.7190 N   0  0  0  0  0  0  0  0  0  0  0  0
   55.3380   24.9900   45.9660 C   0  0  0  0  0  0  0  0  0  0  0  0
   55.5770   25.9790   46.7090 O   0  0  0  0  0  0  0  0  0  0  0  0
  1  2  2  0
  2  3  1  0
  3  4  1  0
  4  5  2  0
  5  6  1  0
  6  7  2  0
  7  8  1  0
  8  9  1  0
  9 10  2  0
  9 11  2  0
  9 12  1  0
 12 13  1  0
 13 14  1  0
 14 15  2  0
 15 16  1  0
 16 17  2  0
 17 18  1  0
 18 19  2  0
  8 20  2  0
  2 21  1  0
 21 22  2  0
 22 23  1  0
 23 24  1  0
 24 25  2  0
 24 26  1  0
 26 27  1  0
 27 28  2  0
 20  4  1  0
 27 21  1  0
 19 14  1  0
M  CHG  4   3  -1  12  -1  23  -1  26  -1
M  END
>  <UniqueID>  (257) 
39

>  <SMILES>  (257) 
O=C([N-]c1cccc(S(=O)(=O)[N-]Cc2ccccc2)c1)c1c[n-]c(=O)[n-]c1=O

>  <Energy>  (257) 
51.1056463513927

>  <Genealogy>  (257) 
O=C([N-]c1cccc(S(=O)(=O)[N-]Cc2ccccc2)c1)c1c[n-]c(=O)[n-]c1=O (protonated)
O=C([N-]c1cccc(S(=O)(=O)[N-]Cc2ccccc2)c1)c1c[n-]c(=O)[n-]c1=O (3D coordinates assigned)
O=C([N-]c1cccc(S(=O)(=O)[N-]Cc2ccccc2)c1)c1c[n-]c(=O)[n-]c1=O (optimized conformer: 51.1056463513927 kcal/mol)

>  <smiles>  (257) 
O=C(Nc1cccc(S(=O)(=O)NCc2ccccc2)c1)c1c[nH]c(=O)[nH]c1=O

>  <score_type>  (257) 
oracle

>  <origin>  (257) 
adg

>  <m_score__min__energy>  (257) 
-16.289999999999999

>  <m_primary>  (257) 
energy

$$$$
80:0
     RDKit          3D

 30 32  0  0  0  0  0  0  0  0999 V2000
   57.2170   34.2160   44.8980 C   0  0  0  0  0  0  0  0  0  0  0  0
   58.1940   33.7910   46.0010 C   0  0  0  0  0  0  0  0  0  0  0  0
   59.2960   34.8580   46.2120 C   0  0  0  0  0  0  0  0  0  0  0  0
   60.6870   34.2480   46.4580 C   0  0  0  0  0  0  0  0  0  0  0  0
   60.6480   33.0430   47.3120 N   0  0  0  0  0  0  0  0  0  0  0  0
   60.3480   33.4350   48.9930 S   0  0  0  0  0  0  0  0  0  0  0  0
   59.6330   34.7530   49.0880 O   0  0  0  0  0  0  0  0  0  0  0  0
   61.6470   33.5340   49.7410 O   0  0  0  0  0  0  0  0  0  0  0  0
   59.3780   32.2030   49.7330 N   0  0  0  0  0  0  0  0  0  0  0  0
   59.8830   30.9490   50.2020 C   0  0  0  0  0  0  0  0  0  0  0  0
   60.3820   30.7850   51.5060 C   0  0  0  0  0  0  0  0  0  0  0  0
   60.8340   29.5330   51.9300 C   0  0  0  0  0  0  0  0  0  0  0  0
   60.7600   28.4300   51.0740 C   0  0  0  0  0  0  0  0  0  0  0  0
   60.2300   28.5740   49.7830 C   0  0  0  0  0  0  0  0  0  0  0  0
   60.0350   27.3940   48.9140 C   0  0  0  0  0  0  0  0  0  0  0  0
   60.7870   26.3920   49.0450 O   0  0  0  0  0  0  0  0  0  0  0  0
   59.0190   27.3760   47.9010 N   0  0  0  0  0  0  0  0  0  0  0  0
   59.0840   28.1140   46.6710 C   0  0  0  0  0  0  0  0  0  0  0  0
   60.2970   28.2710   45.9780 C   0  0  0  0  0  0  0  0  0  0  0  0
   60.3290   28.9620   44.7640 C   0  0  0  0  0  0  0  0  0  0  0  0
   59.1560   29.5030   44.2350 C   0  0  0  0  0  0  0  0  0  0  0  0
   57.9450   29.3730   44.9280 C   0  0  0  0  0  0  0  0  0  0  0  0
   56.4670   30.0240   44.2300 S   0  0  0  0  0  0  0  0  0  0  0  0
   55.1490   28.9660   44.5870 N   0  0  0  0  0  0  0  0  0  0  0  0
   56.1810   31.3840   44.8000 O   0  0  0  0  0  0  0  0  0  0  0  0
   56.6250   30.1470   42.7400 O   0  0  0  0  0  0  0  0  0  0  0  0
   57.9160   28.6860   46.1520 C   0  0  0  0  0  0  0  0  0  0  0  0
   59.8340   29.8480   49.3430 C   0  0  0  0  0  0  0  0  0  0  0  0
   59.7470   31.9710   46.8200 C   0  0  0  0  0  0  0  0  0  0  0  0
   58.7970   32.4150   45.6920 C   0  0  0  0  0  0  0  0  0  0  0  0
  1  2  1  0
  2  3  1  0
  3  4  1  0
  4  5  1  0
  5  6  1  0
  6  7  2  0
  6  8  2  0
  6  9  1  0
  9 10  1  0
 10 11  2  0
 11 12  1  0
 12 13  2  0
 13 14  1  0
 14 15  1  0
 15 16  2  0
 15 17  1  0
 17 18  1  0
 18 19  2  0
 19 20  1  0
 20 21  2  0
 21 22  1  0
 22 23  1  0
 23 24  1  0
 23 25  2  0
 23 26  2  0
 22 27  2  0
 14 28  2  0
  5 29  1  0
 29 30  1  0
 30  2  1  0
 28 10  1  0
 27 18  1  0
M  CHG  3   9  -1  17  -1  24  -1
M  END
>  <UniqueID>  (258) 
67

>  <SMILES>  (258) 
CC1CCN(S(=O)(=O)[N-]c2cccc(C(=O)[N-]c3cccc(S([NH-])(=O)=O)c3)c2)CC1

>  <Energy>  (258) 
64.54013635181617

>  <Genealogy>  (258) 
CC1CCN(S(=O)(=O)[N-]c2cccc(C(=O)[N-]c3cccc(S([NH-])(=O)=O)c3)c2)CC1 (protonated)
CC1CCN(S(=O)(=O)[N-]c2cccc(C(=O)[N-]c3cccc(S([NH-])(=O)=O)c3)c2)CC1 (3D coordinates assigned)
CC1CCN(S(=O)(=O)[N-]c2cccc(C(=O)[N-]c3cccc(S([NH-])(=O)=O)c3)c2)CC1 (nonaromatic ring conformer: 64.54013635181617 kcal/mol)

>  <smiles>  (258) 
CC1CCN(S(=O)(=O)Nc2cccc(C(=O)Nc3cccc(S(N)(=O)=O)c3)c2)CC1

>  <score_type>  (258) 
oracle

>  <origin>  (258) 
adg

>  <m_score__min__energy>  (258) 
-15.35

>  <m_primary>  (258) 
energy

$$$$
15:0
     RDKit          3D

 27 29  0  0  0  0  0  0  0  0999 V2000
   55.6450   28.5910   45.2210 N   0  0  0  0  0  0  0  0  0  0  0  0
   56.6370   29.7540   44.4130 S   0  0  0  0  0  0  0  0  0  0  0  0
   56.9690   29.2230   43.0470 O   0  0  0  0  0  0  0  0  0  0  0  0
   55.8770   31.0440   44.2830 O   0  0  0  0  0  0  0  0  0  0  0  0
   58.1240   30.0310   45.3370 C   0  0  0  0  0  0  0  0  0  0  0  0
   58.5880   31.3480   45.4870 C   0  0  0  0  0  0  0  0  0  0  0  0
   59.7280   31.6170   46.2480 C   0  0  0  0  0  0  0  0  0  0  0  0
   60.4190   30.5760   46.8660 C   0  0  0  0  0  0  0  0  0  0  0  0
   59.9790   29.2600   46.7180 C   0  0  0  0  0  0  0  0  0  0  0  0
   58.8420   28.9700   45.9450 C   0  0  0  0  0  0  0  0  0  0  0  0
   58.4400   27.5580   45.7920 C   0  0  0  0  0  0  0  0  0  0  0  0
   58.3290   26.7320   46.9210 C   0  0  0  0  0  0  0  0  0  0  0  0
   57.9570   25.3920   46.7780 C   0  0  0  0  0  0  0  0  0  0  0  0
   57.7190   24.8540   45.5080 C   0  0  0  0  0  0  0  0  0  0  0  0
   57.3100   23.4830   45.4010 N   0  0  0  0  0  0  0  0  0  0  0  0
   55.9620   23.0010   45.3200 C   0  0  0  0  0  0  0  0  0  0  0  0
   55.6030   22.3750   44.2870 O   0  0  0  0  0  0  0  0  0  0  0  0
   54.9560   23.2590   46.4090 C   0  0  0  0  0  0  0  0  0  0  0  0
   53.6660   23.6290   45.8300 N   0  0  0  0  0  0  0  0  0  0  0  0
   52.6620   22.8010   45.4800 C   0  0  0  0  0  0  0  0  0  0  0  0
   52.6860   21.4240   45.6700 O   0  0  0  0  0  0  0  0  0  0  0  0
   51.6200   23.5010   44.9070 C   0  0  0  0  0  0  0  0  0  0  0  0
   52.0110   24.8290   44.8940 C   0  0  0  0  0  0  0  0  0  0  0  0
   53.2700   24.8630   45.4600 C   0  0  0  0  0  0  0  0  0  0  0  0
   54.0380   26.0090   45.6250 O   0  0  0  0  0  0  0  0  0  0  0  0
   57.8180   25.6840   44.3780 C   0  0  0  0  0  0  0  0  0  0  0  0
   58.1900   27.0230   44.5200 C   0  0  0  0  0  0  0  0  0  0  0  0
  1  2  1  0
  2  3  2  0
  2  4  2  0
  2  5  1  0
  5  6  2  0
  6  7  1  0
  7  8  2  0
  8  9  1  0
  9 10  2  0
 10 11  1  0
 11 12  2  0
 12 13  1  0
 13 14  2  0
 14 15  1  0
 15 16  1  0
 16 17  2  0
 16 18  1  0
 18 19  1  0
 19 20  1  0
 20 21  1  0
 20 22  2  0
 22 23  1  0
 23 24  2  0
 24 25  1  0
 14 26  1  0
 26 27  2  0
 10  5  1  0
 27 11  1  0
 24 19  1  0
M  CHG  4   1  -1  15  -1  21  -1  25  -1
M  END
>  <UniqueID>  (259) 
15

>  <SMILES>  (259) 
[NH-]S(=O)(=O)c1ccccc1-c1ccc([N-]C(=O)Cn2c([O-])ccc2[O-])cc1

>  <Energy>  (259) 
82.6402753083654

>  <Genealogy>  (259) 
[NH-]S(=O)(=O)c1ccccc1-c1ccc([N-]C(=O)Cn2c([O-])ccc2[O-])cc1 (protonated)
[NH-]S(=O)(=O)c1ccccc1-c1ccc([N-]C(=O)Cn2c([O-])ccc2[O-])cc1 (3D coordinates assigned)
[NH-]S(=O)(=O)c1ccccc1-c1ccc([N-]C(=O)Cn2c([O-])ccc2[O-])cc1 (optimized conformer: 82.6402753083654 kcal/mol)

>  <smiles>  (259) 
NS(=O)(=O)c1ccccc1-c1ccc(NC(=O)Cn2c(O)ccc2O)cc1

>  <score_type>  (259) 
oracle

>  <origin>  (259) 
adg

>  <m_score__min__energy>  (259) 
-16.699999999999999

>  <m_primary>  (259) 
energy

$$$$
29:0
     RDKit          3D

 26 28  0  0  0  0  0  0  0  0999 V2000
   57.6480   27.6930   44.1920 O   0  0  0  0  0  0  0  0  0  0  0  0
   57.1040   28.1290   45.2420 C   0  0  0  0  0  0  0  0  0  0  0  0
   56.7330   27.1760   46.3340 C   0  0  0  0  0  0  0  0  0  0  0  0
   56.4080   25.8570   45.7640 N   0  0  0  0  0  0  0  0  0  0  0  0
   55.0980   25.4730   45.6230 C   0  0  0  0  0  0  0  0  0  0  0  0
   54.0600   26.3220   45.9920 O   0  0  0  0  0  0  0  0  0  0  0  0
   54.7840   24.2150   45.1080 C   0  0  0  0  0  0  0  0  0  0  0  0
   55.8220   23.3590   44.7550 C   0  0  0  0  0  0  0  0  0  0  0  0
   55.5720   22.2180   44.2870 O   0  0  0  0  0  0  0  0  0  0  0  0
   57.1070   23.7550   44.9210 N   0  0  0  0  0  0  0  0  0  0  0  0
   57.4090   24.9810   45.4210 C   0  0  0  0  0  0  0  0  0  0  0  0
   58.6210   25.2970   45.5680 O   0  0  0  0  0  0  0  0  0  0  0  0
   56.8450   29.5280   45.4080 N   0  0  0  0  0  0  0  0  0  0  0  0
   57.3050   30.5860   44.5550 C   0  0  0  0  0  0  0  0  0  0  0  0
   56.9470   30.6390   43.1950 C   0  0  0  0  0  0  0  0  0  0  0  0
   57.3840   31.6960   42.3900 C   0  0  0  0  0  0  0  0  0  0  0  0
   58.1670   32.7140   42.9350 C   0  0  0  0  0  0  0  0  0  0  0  0
   58.5090   32.6830   44.2890 C   0  0  0  0  0  0  0  0  0  0  0  0
   58.0730   31.6310   45.1040 C   0  0  0  0  0  0  0  0  0  0  0  0
   58.5320   31.6290   46.8430 S   0  0  0  0  0  0  0  0  0  0  0  0
   59.3230   30.0220   46.7360 C   0  0  0  0  0  0  0  0  0  0  0  0
   60.1080   29.7000   45.6220 C   0  0  0  0  0  0  0  0  0  0  0  0
   60.7190   28.4450   45.5320 C   0  0  0  0  0  0  0  0  0  0  0  0
   60.5520   27.5130   46.5610 C   0  0  0  0  0  0  0  0  0  0  0  0
   59.7760   27.8350   47.6800 C   0  0  0  0  0  0  0  0  0  0  0  0
   59.1640   29.0890   47.7690 C   0  0  0  0  0  0  0  0  0  0  0  0
  1  2  2  0
  2  3  1  0
  3  4  1  0
  4  5  1  0
  5  6  1  0
  5  7  2  0
  7  8  1  0
  8  9  2  0
  8 10  1  0
 10 11  1  0
 11 12  2  0
  2 13  1  0
 13 14  1  0
 14 15  2  0
 15 16  1  0
 16 17  2  0
 17 18  1  0
 18 19  2  0
 19 20  1  0
 20 21  1  0
 21 22  2  0
 22 23  1  0
 23 24  2  0
 24 25  1  0
 25 26  2  0
 11  4  1  0
 19 14  1  0
 26 21  1  0
M  CHG  3   6  -1  10  -1  13  -1
M  END
>  <UniqueID>  (260) 
28

>  <SMILES>  (260) 
O=C(Cn1c([O-])cc(=O)[n-]c1=O)[N-]c1ccccc1Sc1ccccc1

>  <Energy>  (260) 
41.914600665604375

>  <Genealogy>  (260) 
O=C(Cn1c([O-])cc(=O)[n-]c1=O)[N-]c1ccccc1Sc1ccccc1 (protonated)
O=C(Cn1c([O-])cc(=O)[n-]c1=O)[N-]c1ccccc1Sc1ccccc1 (3D coordinates assigned)
O=C(Cn1c([O-])cc(=O)[n-]c1=O)[N-]c1ccccc1Sc1ccccc1 (optimized conformer: 41.914600665604375 kcal/mol)

>  <smiles>  (260) 
O=C(Cn1c(O)cc(=O)[nH]c1=O)Nc1ccccc1Sc1ccccc1

>  <score_type>  (260) 
oracle

>  <origin>  (260) 
adg

>  <m_score__min__energy>  (260) 
-15

>  <m_primary>  (260) 
energy

$$$$
62:0
     RDKit          3D

 29 33  0  0  0  0  0  0  0  0999 V2000
   57.7070   27.1660   45.0500 C   0  0  0  0  0  0  0  0  0  0  0  0
   57.1950   26.1350   45.9680 C   0  0  0  0  0  0  0  0  0  0  0  0
   57.9480   25.1310   46.4480 N   0  0  0  0  0  0  0  0  0  0  0  0
   57.0670   24.3820   47.1450 C   0  0  0  0  0  0  0  0  0  0  0  0
   57.4030   23.3430   47.7680 O   0  0  0  0  0  0  0  0  0  0  0  0
   55.7930   24.8310   47.1150 N   0  0  0  0  0  0  0  0  0  0  0  0
   55.8890   25.9330   46.3540 C   0  0  0  0  0  0  0  0  0  0  0  0
   54.7970   26.7080   45.9830 O   0  0  0  0  0  0  0  0  0  0  0  0
   57.5400   28.4850   45.2210 C   0  0  0  0  0  0  0  0  0  0  0  0
   56.6610   29.2970   44.5060 C   0  0  0  0  0  0  0  0  0  0  0  0
   56.7600   30.5800   44.9300 N   0  0  0  0  0  0  0  0  0  0  0  0
   57.6820   30.5950   45.8780 N   0  0  0  0  0  0  0  0  0  0  0  0
   58.1400   31.6620   46.5740 C   0  0  0  0  0  0  0  0  0  0  0  0
   57.6400   32.8450   46.3760 N   0  0  0  0  0  0  0  0  0  0  0  0
   58.4280   34.0710   46.4450 C   0  0  0  0  0  0  0  0  0  0  0  0
   59.8410   33.8930   45.9220 C   0  0  0  0  0  0  0  0  0  0  0  0
   58.8040   34.6310   45.0850 C   0  0  0  0  0  0  0  0  0  0  0  0
   59.1400   31.4560   47.4820 N   0  0  0  0  0  0  0  0  0  0  0  0
   59.6670   30.2080   47.6660 C   0  0  0  0  0  0  0  0  0  0  0  0
   60.6260   30.0480   48.5300 N   0  0  0  0  0  0  0  0  0  0  0  0
   60.9130   30.9550   49.6400 C   0  0  0  0  0  0  0  0  0  0  0  0
   59.6570   31.2530   50.3980 C   0  0  0  0  0  0  0  0  0  0  0  0
   58.5040   30.1110   50.8410 S   0  0  0  0  0  0  0  0  0  0  0  0
   57.4340   31.2130   51.5210 C   0  0  0  0  0  0  0  0  0  0  0  0
   55.8950   30.8050   52.2490 Cl  0  0  0  0  0  0  0  0  0  0  0  0
   57.9570   32.4920   51.3970 C   0  0  0  0  0  0  0  0  0  0  0  0
   59.2020   32.5160   50.7590 C   0  0  0  0  0  0  0  0  0  0  0  0
   59.1840   29.1490   46.9480 N   0  0  0  0  0  0  0  0  0  0  0  0
   58.1740   29.3690   46.0740 C   0  0  0  0  0  0  0  0  0  0  0  0
  1  2  1  0
  2  3  1  0
  3  4  1  0
  4  5  2  0
  4  6  1  0
  6  7  1  0
  7  8  1  0
  1  9  2  3
  9 10  1  0
 10 11  2  0
 11 12  1  0
 12 13  1  0
 13 14  2  0
 14 15  1  0
 15 16  1  0
 16 17  1  0
 13 18  1  0
 18 19  1  0
 19 20  2  0
 20 21  1  0
 21 22  1  0
 22 23  1  0
 23 24  1  0
 24 25  1  0
 24 26  2  0
 26 27  1  0
 19 28  1  0
 28 29  2  0
  7  2  2  0
 29  9  1  0
 29 12  1  0
 17 15  1  0
 27 22  2  0
M  CHG  4   3  -1   6  -1   8  -1  18  -1
M  END
>  <UniqueID>  (261) 
55

>  <SMILES>  (261) 
O=c1[n-]c([O-])c(C=c2cnn3/c(=N/C4CC4)[n-]/c(=N/Cc4ccc(Cl)s4)nc23)[n-]1

>  <Energy>  (261) 
407.63898688582736

>  <Genealogy>  (261) 
O=c1[n-]c([O-])c(C=c2cnn3c(=NC4CC4)[n-]c(=NCc4ccc(Cl)s4)nc23)[n-]1 (protonated)
O=c1[n-]c([O-])c(C=c2cnn3/c(=N/C4CC4)[n-]/c(=N/Cc4ccc(Cl)s4)nc23)[n-]1 (cis-trans isomerization)
O=c1[n-]c([O-])c(C=c2cnn3/c(=N/C4CC4)[n-]/c(=N/Cc4ccc(Cl)s4)nc23)[n-]1 (3D coordinates assigned)
O=c1[n-]c([O-])c(C=c2cnn3/c(=N/C4CC4)[n-]/c(=N/Cc4ccc(Cl)s4)nc23)[n-]1 (nonaromatic ring conformer: 407.63898688582736 kcal/mol)

>  <smiles>  (261) 
O=c1[nH]c(O)c(C=c2cnn3c(=NC4CC4)[nH]c(=NCc4ccc(Cl)s4)nc23)[nH]1

>  <score_type>  (261) 
oracle

>  <origin>  (261) 
adg

>  <m_score__min__energy>  (261) 
-18.09

>  <m_primary>  (261) 
energy

$$$$
82:0
     RDKit          3D

 26 28  0  0  0  0  0  0  0  0999 V2000
   59.3620   31.8990   50.0910 C   0  0  0  0  0  0  0  0  0  0  0  0
   58.6690   32.6240   49.1750 N   0  0  0  0  0  0  0  0  0  0  0  0
   58.4500   32.1760   47.9080 C   0  0  0  0  0  0  0  0  0  0  0  0
   57.7560   32.9240   47.0960 N   0  0  0  0  0  0  0  0  0  0  0  0
   58.2160   33.5420   45.8480 C   0  0  0  0  0  0  0  0  0  0  0  0
   57.8040   32.7350   44.6390 C   0  0  0  0  0  0  0  0  0  0  0  0
   57.0090   31.5860   44.7990 C   0  0  0  0  0  0  0  0  0  0  0  0
   56.6320   30.8280   43.6850 C   0  0  0  0  0  0  0  0  0  0  0  0
   57.0490   31.2070   42.4070 C   0  0  0  0  0  0  0  0  0  0  0  0
   57.8590   32.3340   42.2410 C   0  0  0  0  0  0  0  0  0  0  0  0
   58.2450   33.0890   43.3530 C   0  0  0  0  0  0  0  0  0  0  0  0
   58.9670   30.9220   47.5270 C   0  0  0  0  0  0  0  0  0  0  0  0
   59.6410   30.1330   48.4690 C   0  0  0  0  0  0  0  0  0  0  0  0
   60.1390   28.7910   48.1090 C   0  0  0  0  0  0  0  0  0  0  0  0
   60.3850   27.9620   49.0230 O   0  0  0  0  0  0  0  0  0  0  0  0
   60.3210   28.3900   46.7440 N   0  0  0  0  0  0  0  0  0  0  0  0
   60.0290   27.0570   46.2260 C   0  0  0  0  0  0  0  0  0  0  0  0
   58.5440   26.8670   46.1400 C   0  0  0  0  0  0  0  0  0  0  0  0
   57.9660   25.6560   46.5530 C   0  0  0  0  0  0  0  0  0  0  0  0
   56.5810   25.4780   46.4860 C   0  0  0  0  0  0  0  0  0  0  0  0
   55.7620   26.5090   46.0170 C   0  0  0  0  0  0  0  0  0  0  0  0
   54.3860   26.3240   45.9520 O   0  0  0  0  0  0  0  0  0  0  0  0
   56.3300   27.7250   45.6170 C   0  0  0  0  0  0  0  0  0  0  0  0
   55.5190   28.7560   45.1550 O   0  0  0  0  0  0  0  0  0  0  0  0
   57.7160   27.9060   45.6830 C   0  0  0  0  0  0  0  0  0  0  0  0
   59.8610   30.6400   49.7550 C   0  0  0  0  0  0  0  0  0  0  0  0
  1  2  1  0
  2  3  1  0
  3  4  2  0
  4  5  1  0
  5  6  1  0
  6  7  2  0
  7  8  1  0
  8  9  2  0
  9 10  1  0
 10 11  2  0
  3 12  1  0
 12 13  2  0
 13 14  1  0
 14 15  2  0
 14 16  1  0
 16 17  1  0
 17 18  1  0
 18 19  2  0
 19 20  1  0
 20 21  2  0
 21 22  1  0
 21 23  1  0
 23 24  1  0
 23 25  2  0
 13 26  1  0
 26  1  2  0
 11  6  1  0
 25 18  1  0
M  CHG  4   2  -1  16  -1  22  -1  24  -1
M  END
>  <UniqueID>  (262) 
73

>  <SMILES>  (262) 
O=C([N-]Cc1ccc([O-])c([O-])c1)c1cc[n-]/c(=N/Cc2ccccc2)c1

>  <Energy>  (262) 
46.950640207102346

>  <Genealogy>  (262) 
O=C([N-]Cc1ccc([O-])c([O-])c1)c1cc[n-]c(=NCc2ccccc2)c1 (protonated)
O=C([N-]Cc1ccc([O-])c([O-])c1)c1cc[n-]/c(=N/Cc2ccccc2)c1 (cis-trans isomerization)
O=C([N-]Cc1ccc([O-])c([O-])c1)c1cc[n-]/c(=N/Cc2ccccc2)c1 (3D coordinates assigned)
O=C([N-]Cc1ccc([O-])c([O-])c1)c1cc[n-]/c(=N/Cc2ccccc2)c1 (optimized conformer: 46.950640207102346 kcal/mol)

>  <smiles>  (262) 
O=C(NCc1ccc(O)c(O)c1)c1cc[nH]c(=NCc2ccccc2)c1

>  <score_type>  (262) 
oracle

>  <origin>  (262) 
adg

>  <m_score__min__energy>  (262) 
-18.899999999999999

>  <m_primary>  (262) 
energy

$$$$
10:0
     RDKit          3D

 26 28  0  0  0  0  0  0  0  0999 V2000
   60.2900   34.7390   48.5480 N   0  0  0  0  0  0  0  0  0  0  0  0
   60.3930   34.8250   46.8260 S   0  0  0  0  0  0  0  0  0  0  0  0
   61.8000   34.5220   46.3910 O   0  0  0  0  0  0  0  0  0  0  0  0
   60.0370   36.2120   46.3720 O   0  0  0  0  0  0  0  0  0  0  0  0
   59.2850   33.6590   46.1100 C   0  0  0  0  0  0  0  0  0  0  0  0
   58.7850   32.5990   46.8790 C   0  0  0  0  0  0  0  0  0  0  0  0
   57.8950   31.6800   46.3170 C   0  0  0  0  0  0  0  0  0  0  0  0
   57.5050   31.8050   44.9720 C   0  0  0  0  0  0  0  0  0  0  0  0
   56.5710   30.8960   44.3710 N   0  0  0  0  0  0  0  0  0  0  0  0
   56.3380   29.5340   44.7540 C   0  0  0  0  0  0  0  0  0  0  0  0
   55.1730   29.0650   44.6510 O   0  0  0  0  0  0  0  0  0  0  0  0
   57.4430   28.6430   45.2410 C   0  0  0  0  0  0  0  0  0  0  0  0
   56.9380   27.7490   46.2260 O   0  0  0  0  0  0  0  0  0  0  0  0
   56.8210   26.3840   46.0210 N   0  0  0  0  0  0  0  0  0  0  0  0
   57.7980   25.4550   45.8910 C   0  0  0  0  0  0  0  0  0  0  0  0
   59.1620   25.7180   45.9430 O   0  0  0  0  0  0  0  0  0  0  0  0
   57.2370   24.2070   45.6980 C   0  0  0  0  0  0  0  0  0  0  0  0
   55.8750   24.3800   45.7110 C   0  0  0  0  0  0  0  0  0  0  0  0
   55.6500   25.7270   45.9110 C   0  0  0  0  0  0  0  0  0  0  0  0
   54.4050   26.3380   45.9900 O   0  0  0  0  0  0  0  0  0  0  0  0
   54.8870   23.2730   45.5360 C   0  0  0  0  0  0  0  0  0  0  0  0
   55.5720   21.9350   45.3420 C   0  0  0  0  0  0  0  0  0  0  0  0
   56.9140   21.7640   45.3290 C   0  0  0  0  0  0  0  0  0  0  0  0
   57.9140   22.8890   45.5060 C   0  0  0  0  0  0  0  0  0  0  0  0
   57.9760   32.8860   44.2190 C   0  0  0  0  0  0  0  0  0  0  0  0
   58.8670   33.8060   44.7810 C   0  0  0  0  0  0  0  0  0  0  0  0
  1  2  1  0
  2  3  2  0
  2  4  2  0
  2  5  1  0
  5  6  2  0
  6  7  1  0
  7  8  2  0
  8  9  1  0
  9 10  1  0
 10 11  2  0
 10 12  1  0
 12 13  1  0
 13 14  1  0
 14 15  1  0
 15 16  1  0
 15 17  2  0
 17 18  1  0
 18 19  2  0
 19 20  1  0
 18 21  1  0
 21 22  1  0
 22 23  2  0
 23 24  1  0
  8 25  1  0
 25 26  2  0
 26  5  1  0
 19 14  1  0
 24 17  1  0
M  CHG  4   1  -1   9  -1  16  -1  20  -1
M  END
>  <UniqueID>  (263) 
11

>  <SMILES>  (263) 
[NH-]S(=O)(=O)c1ccc([N-]C(=O)COn2c([O-])c3c(c2[O-])CC=CC3)cc1

>  <Energy>  (263) 
77.68024461009631

>  <Genealogy>  (263) 
[NH-]S(=O)(=O)c1ccc([N-]C(=O)COn2c([O-])c3c(c2[O-])CC=CC3)cc1 (protonated)
[NH-]S(=O)(=O)c1ccc([N-]C(=O)COn2c([O-])c3c(c2[O-])CC=CC3)cc1 (3D coordinates assigned)
[NH-]S(=O)(=O)c1ccc([N-]C(=O)COn2c([O-])c3c(c2[O-])CC=CC3)cc1 (nonaromatic ring conformer: 77.68024461009631 kcal/mol)

>  <smiles>  (263) 
NS(=O)(=O)c1ccc(NC(=O)COn2c(O)c3c(c2O)CC=CC3)cc1

>  <score_type>  (263) 
oracle

>  <origin>  (263) 
adg

>  <m_score__min__energy>  (263) 
-15.029999999999999

>  <m_primary>  (263) 
energy

$$$$
21:0
     RDKit          3D

 25 27  0  0  0  0  0  0  0  0999 V2000
   59.1760   28.1720   48.3100 O   0  0  0  0  0  0  0  0  0  0  0  0
   58.7040   27.8350   47.1920 C   0  0  0  0  0  0  0  0  0  0  0  0
   59.4950   28.0680   45.9460 C   0  0  0  0  0  0  0  0  0  0  0  0
   58.6780   28.8700   44.9710 C   0  0  0  0  0  0  0  0  0  0  0  0
   57.7460   28.2310   44.1400 C   0  0  0  0  0  0  0  0  0  0  0  0
   56.9490   28.9790   43.2710 C   0  0  0  0  0  0  0  0  0  0  0  0
   57.0760   30.3700   43.2250 C   0  0  0  0  0  0  0  0  0  0  0  0
   58.0060   31.0260   44.0480 C   0  0  0  0  0  0  0  0  0  0  0  0
   58.1380   32.5020   44.0100 C   0  0  0  0  0  0  0  0  0  0  0  0
   58.0650   33.0970   42.9000 O   0  0  0  0  0  0  0  0  0  0  0  0
   58.3750   33.2650   45.2070 N   0  0  0  0  0  0  0  0  0  0  0  0
   59.2680   34.4300   45.1390 C   0  0  0  0  0  0  0  0  0  0  0  0
   59.4110   35.1160   46.5040 C   0  0  0  0  0  0  0  0  0  0  0  0
   59.6110   34.0710   47.6060 C   0  0  0  0  0  0  0  0  0  0  0  0
   58.4550   33.0500   47.6760 C   0  0  0  0  0  0  0  0  0  0  0  0
   57.5730   33.0260   46.4170 C   0  0  0  0  0  0  0  0  0  0  0  0
   58.7920   30.2700   44.9350 C   0  0  0  0  0  0  0  0  0  0  0  0
   57.4270   27.1910   47.1090 N   0  0  0  0  0  0  0  0  0  0  0  0
   57.1220   26.0710   46.5120 C   0  0  0  0  0  0  0  0  0  0  0  0
   58.1110   25.1480   46.3600 N   0  0  0  0  0  0  0  0  0  0  0  0
   57.9080   23.9470   45.7560 C   0  0  0  0  0  0  0  0  0  0  0  0
   56.6510   23.6250   45.2510 C   0  0  0  0  0  0  0  0  0  0  0  0
   55.6140   24.5490   45.3660 C   0  0  0  0  0  0  0  0  0  0  0  0
   55.8360   25.7860   45.9800 C   0  0  0  0  0  0  0  0  0  0  0  0
   54.7950   26.7070   46.0080 O   0  0  0  0  0  0  0  0  0  0  0  0
  1  2  2  0
  2  3  1  0
  3  4  1  0
  4  5  2  0
  5  6  1  0
  6  7  2  0
  7  8  1  0
  8  9  1  0
  9 10  2  0
  9 11  1  0
 11 12  1  0
 12 13  1  0
 13 14  1  0
 14 15  1  0
 15 16  1  0
  8 17  2  0
  2 18  1  0
 18 19  2  3
 19 20  1  0
 20 21  1  0
 21 22  2  0
 22 23  1  0
 23 24  2  0
 24 25  1  0
 17  4  1  0
 24 19  1  0
 16 11  1  0
M  CHG  2  20  -1  25  -1
M  END
>  <UniqueID>  (264) 
22

>  <SMILES>  (264) 
O=C(Cc1cccc(C(=O)N2CCCCC2)c1)N=c1[n-]cccc1[O-]

>  <Energy>  (264) 
60.947541292710916

>  <Genealogy>  (264) 
O=C(Cc1cccc(C(=O)N2CCCCC2)c1)N=c1[n-]cccc1[O-] (protonated)
O=C(Cc1cccc(C(=O)N2CCCCC2)c1)N=c1[n-]cccc1[O-] (3D coordinates assigned)
O=C(Cc1cccc(C(=O)N2CCCCC2)c1)N=c1[n-]cccc1[O-] (nonaromatic ring conformer: 60.947541292710916 kcal/mol)

>  <smiles>  (264) 
O=C(Cc1cccc(C(=O)N2CCCCC2)c1)N=c1[nH]cccc1O

>  <score_type>  (264) 
oracle

>  <origin>  (264) 
adg

>  <m_score__min__energy>  (264) 
-14.720000000000001

>  <m_primary>  (264) 
energy

$$$$
2:0
     RDKit          3D

 30 33  0  0  0  0  0  0  0  0999 V2000
   57.5750   31.8960   42.8050 C   0  0  0  0  0  0  0  0  0  0  0  0
   57.9230   31.7460   44.0880 C   0  0  0  0  0  0  0  0  0  0  0  0
   58.1910   32.8030   44.8870 N   0  0  0  0  0  0  0  0  0  0  0  0
   58.5050   32.2960   46.0890 C   0  0  0  0  0  0  0  0  0  0  0  0
   58.8370   33.0210   47.2320 C   0  0  0  0  0  0  0  0  0  0  0  0
   59.0960   32.3120   48.4210 C   0  0  0  0  0  0  0  0  0  0  0  0
   59.5360   33.0480   49.6540 C   0  0  0  0  0  0  0  0  0  0  0  0
   61.2780   33.4450   49.5720 S   0  0  0  0  0  0  0  0  0  0  0  0
   61.7270   33.8170   50.9590 O   0  0  0  0  0  0  0  0  0  0  0  0
   61.4710   34.6350   48.6710 O   0  0  0  0  0  0  0  0  0  0  0  0
   62.1890   32.0620   48.9820 N   0  0  0  0  0  0  0  0  0  0  0  0
   63.4920   31.9350   49.6630 C   0  0  0  0  0  0  0  0  0  0  0  0
   64.4770   33.0480   49.2340 C   0  0  0  0  0  0  0  0  0  0  0  0
   64.0960   33.7030   48.0370 O   0  0  0  0  0  0  0  0  0  0  0  0
   63.6790   32.7580   47.0770 C   0  0  0  0  0  0  0  0  0  0  0  0
   62.3560   32.0950   47.5080 C   0  0  0  0  0  0  0  0  0  0  0  0
   58.9950   30.9010   48.4330 C   0  0  0  0  0  0  0  0  0  0  0  0
   58.6550   30.1960   47.2660 C   0  0  0  0  0  0  0  0  0  0  0  0
   58.4440   30.9210   46.0860 C   0  0  0  0  0  0  0  0  0  0  0  0
   58.0870   30.5360   44.7880 C   0  0  0  0  0  0  0  0  0  0  0  0
   57.9270   29.2940   44.2840 C   0  0  0  0  0  0  0  0  0  0  0  0
   57.3930   28.1460   45.0390 C   0  0  0  0  0  0  0  0  0  0  0  0
   56.0190   28.0400   45.2910 C   0  0  0  0  0  0  0  0  0  0  0  0
   55.1440   29.0370   44.8770 O   0  0  0  0  0  0  0  0  0  0  0  0
   55.5320   26.9570   45.9520 N   0  0  0  0  0  0  0  0  0  0  0  0
   56.3560   25.9600   46.3670 C   0  0  0  0  0  0  0  0  0  0  0  0
   55.8840   24.9700   46.9820 O   0  0  0  0  0  0  0  0  0  0  0  0
   57.6880   26.0270   46.1120 N   0  0  0  0  0  0  0  0  0  0  0  0
   58.2230   27.0880   45.4530 C   0  0  0  0  0  0  0  0  0  0  0  0
   59.4610   27.1110   45.2200 O   0  0  0  0  0  0  0  0  0  0  0  0
  1  2  2  0
  2  3  1  0
  3  4  1  0
  4  5  2  0
  5  6  1  0
  6  7  1  0
  7  8  1  0
  8  9  2  0
  8 10  2  0
  8 11  1  0
 11 12  1  0
 12 13  1  0
 13 14  1  0
 14 15  1  0
 15 16  1  0
  6 17  2  0
 17 18  1  0
 18 19  2  0
 19 20  1  0
 20 21  2  3
 21 22  1  0
 22 23  2  0
 23 24  1  0
 23 25  1  0
 25 26  1  0
 26 27  2  0
 26 28  1  0
 28 29  1  0
 29 30  2  0
 20  2  1  0
 29 22  1  0
 19  4  1  0
 16 11  1  0
M  CHG  4  11   1  24  -1  25  -1  28  -1
M  END
>  <UniqueID>  (265) 
2

>  <SMILES>  (265) 
C=c1[nH]c2cc(CS(=O)(=O)[NH+]3CCOCC3)ccc2c1=Cc1c([O-])[n-]c(=O)[n-]c1=O

>  <Energy>  (265) 
104.24281570588563

>  <Genealogy>  (265) 
C=c1[nH]c2cc(CS(=O)(=O)[NH+]3CCOCC3)ccc2c1=Cc1c([O-])[n-]c(=O)[n-]c1=O (protonated)
C=c1[nH]c2cc(CS(=O)(=O)[NH+]3CCOCC3)ccc2c1=Cc1c([O-])[n-]c(=O)[n-]c1=O (3D coordinates assigned)
C=c1[nH]c2cc(CS(=O)(=O)[NH+]3CCOCC3)ccc2c1=Cc1c([O-])[n-]c(=O)[n-]c1=O (nonaromatic ring conformer: 104.24281570588563 kcal/mol)

>  <smiles>  (265) 
C=c1[nH]c2cc(CS(=O)(=O)N3CCOCC3)ccc2c1=Cc1c(O)[nH]c(=O)[nH]c1=O

>  <score_type>  (265) 
oracle

>  <origin>  (265) 
adg

>  <m_score__min__energy>  (265) 
-14.98

>  <m_primary>  (265) 
energy

$$$$
45:0
     RDKit          3D

 27 29  0  0  0  0  0  0  0  0999 V2000
   57.1450   30.1840   51.2810 O   0  0  0  0  0  0  0  0  0  0  0  0
   57.7650   31.4010   51.5610 C   0  0  0  0  0  0  0  0  0  0  0  0
   57.5450   32.0080   52.8080 C   0  0  0  0  0  0  0  0  0  0  0  0
   58.1480   33.2270   53.1210 C   0  0  0  0  0  0  0  0  0  0  0  0
   58.9790   33.8510   52.1910 C   0  0  0  0  0  0  0  0  0  0  0  0
   59.2070   33.2600   50.9460 C   0  0  0  0  0  0  0  0  0  0  0  0
   58.6060   32.0300   50.6080 C   0  0  0  0  0  0  0  0  0  0  0  0
   58.8700   31.4350   49.2680 C   0  0  0  0  0  0  0  0  0  0  0  0
   58.6800   30.2020   49.0850 O   0  0  0  0  0  0  0  0  0  0  0  0
   59.3900   32.2400   48.2000 N   0  0  0  0  0  0  0  0  0  0  0  0
   58.7620   32.5040   46.9360 C   0  0  0  0  0  0  0  0  0  0  0  0
   58.4170   33.8050   46.5290 C   0  0  0  0  0  0  0  0  0  0  0  0
   57.8320   34.0170   45.2780 C   0  0  0  0  0  0  0  0  0  0  0  0
   57.5940   32.9400   44.4210 C   0  0  0  0  0  0  0  0  0  0  0  0
   57.9450   31.6380   44.8090 C   0  0  0  0  0  0  0  0  0  0  0  0
   57.7540   30.4870   43.8610 C   0  0  0  0  0  0  0  0  0  0  0  0
   56.3940   29.8980   44.0570 C   0  0  0  0  0  0  0  0  0  0  0  0
   55.4900   30.1010   43.2020 O   0  0  0  0  0  0  0  0  0  0  0  0
   56.1390   29.0720   45.2000 N   0  0  0  0  0  0  0  0  0  0  0  0
   56.7920   28.0140   45.5970 C   0  0  0  0  0  0  0  0  0  0  0  0
   58.1490   28.1020   45.6760 N   0  0  0  0  0  0  0  0  0  0  0  0
   58.9290   27.0650   46.0780 C   0  0  0  0  0  0  0  0  0  0  0  0
   58.3460   25.8520   46.4370 C   0  0  0  0  0  0  0  0  0  0  0  0
   56.9590   25.7240   46.3910 C   0  0  0  0  0  0  0  0  0  0  0  0
   56.1650   26.8000   45.9850 C   0  0  0  0  0  0  0  0  0  0  0  0
   54.7840   26.6510   46.0170 O   0  0  0  0  0  0  0  0  0  0  0  0
   58.5470   31.4320   46.0610 C   0  0  0  0  0  0  0  0  0  0  0  0
  1  2  1  0
  2  3  2  0
  3  4  1  0
  4  5  2  0
  5  6  1  0
  6  7  2  0
  7  8  1  0
  8  9  2  0
  8 10  1  0
 10 11  1  0
 11 12  2  0
 12 13  1  0
 13 14  2  0
 14 15  1  0
 15 16  1  0
 16 17  1  0
 17 18  2  0
 17 19  1  0
 19 20  2  0
 20 21  1  0
 21 22  1  0
 22 23  2  0
 23 24  1  0
 24 25  2  0
 25 26  1  0
 15 27  2  0
  7  2  1  0
 27 11  1  0
 25 20  1  0
M  CHG  3  10  -1  21  -1  26  -1
M  END
>  <UniqueID>  (266) 
39

>  <SMILES>  (266) 
O=C(Cc1cccc([N-]C(=O)c2ccccc2O)c1)/N=c1/[n-]cccc1[O-]

>  <Energy>  (266) 
60.15138439067102

>  <Genealogy>  (266) 
O=C(Cc1cccc([N-]C(=O)c2ccccc2O)c1)N=c1[n-]cccc1[O-] (protonated)
O=C(Cc1cccc([N-]C(=O)c2ccccc2O)c1)/N=c1/[n-]cccc1[O-] (cis-trans isomerization)
O=C(Cc1cccc([N-]C(=O)c2ccccc2O)c1)/N=c1/[n-]cccc1[O-] (3D coordinates assigned)
O=C(Cc1cccc([N-]C(=O)c2ccccc2O)c1)/N=c1/[n-]cccc1[O-] (optimized conformer: 60.15138439067102 kcal/mol)

>  <smiles>  (266) 
O=C(Cc1cccc(NC(=O)c2ccccc2O)c1)N=c1[nH]cccc1O

>  <score_type>  (266) 
oracle

>  <origin>  (266) 
adg

>  <m_score__min__energy>  (266) 
-14.75

>  <m_primary>  (266) 
energy

$$$$
62:0
     RDKit          3D

 30 32  0  0  0  0  0  0  0  0999 V2000
   57.7250   34.0410   44.9060 O   0  0  0  0  0  0  0  0  0  0  0  0
   58.2520   34.1290   46.0460 C   0  0  0  0  0  0  0  0  0  0  0  0
   59.4720   34.9960   46.2220 C   0  0  0  0  0  0  0  0  0  0  0  0
   60.0510   34.8270   47.5150 O   0  0  0  0  0  0  0  0  0  0  0  0
   61.2710   34.1860   47.7830 C   0  0  0  0  0  0  0  0  0  0  0  0
   61.7560   33.9930   49.0920 C   0  0  0  0  0  0  0  0  0  0  0  0
   62.9830   33.3550   49.2990 C   0  0  0  0  0  0  0  0  0  0  0  0
   63.7330   32.9050   48.2090 C   0  0  0  0  0  0  0  0  0  0  0  0
   63.2560   33.0930   46.9090 C   0  0  0  0  0  0  0  0  0  0  0  0
   62.0280   33.7280   46.6990 C   0  0  0  0  0  0  0  0  0  0  0  0
   57.6700   33.3990   47.1340 N   0  0  0  0  0  0  0  0  0  0  0  0
   58.3450   32.3950   47.8970 C   0  0  0  0  0  0  0  0  0  0  0  0
   58.6690   32.6630   49.2320 C   0  0  0  0  0  0  0  0  0  0  0  0
   59.2760   31.6840   50.0200 C   0  0  0  0  0  0  0  0  0  0  0  0
   59.5700   30.4310   49.4770 C   0  0  0  0  0  0  0  0  0  0  0  0
   59.2810   30.1660   48.1350 C   0  0  0  0  0  0  0  0  0  0  0  0
   58.7000   31.1540   47.3290 C   0  0  0  0  0  0  0  0  0  0  0  0
   58.4540   30.8270   45.5730 S   0  0  0  0  0  0  0  0  0  0  0  0
   59.1980   29.1570   45.5930 C   0  0  0  0  0  0  0  0  0  0  0  0
   58.3970   28.1860   44.7650 C   0  0  0  0  0  0  0  0  0  0  0  0
   58.5540   28.2020   43.5150 O   0  0  0  0  0  0  0  0  0  0  0  0
   57.5060   27.1580   45.3680 C   0  0  0  0  0  0  0  0  0  0  0  0
   56.1400   27.3970   45.6260 C   0  0  0  0  0  0  0  0  0  0  0  0
   55.5280   28.5830   45.2420 O   0  0  0  0  0  0  0  0  0  0  0  0
   55.3860   26.4420   46.2290 N   0  0  0  0  0  0  0  0  0  0  0  0
   55.9100   25.2400   46.5690 C   0  0  0  0  0  0  0  0  0  0  0  0
   55.1910   24.3760   47.1330 O   0  0  0  0  0  0  0  0  0  0  0  0
   57.2090   24.9630   46.2920 N   0  0  0  0  0  0  0  0  0  0  0  0
   58.0110   25.8830   45.6960 C   0  0  0  0  0  0  0  0  0  0  0  0
   59.2130   25.5840   45.4630 O   0  0  0  0  0  0  0  0  0  0  0  0
  1  2  2  0
  2  3  1  0
  3  4  1  0
  4  5  1  0
  5  6  2  0
  6  7  1  0
  7  8  2  0
  8  9  1  0
  9 10  2  0
  2 11  1  0
 11 12  1  0
 12 13  2  0
 13 14  1  0
 14 15  2  0
 15 16  1  0
 16 17  2  0
 17 18  1  0
 18 19  1  0
 19 20  1  0
 20 21  2  0
 20 22  1  0
 22 23  2  0
 23 24  1  0
 23 25  1  0
 25 26  1  0
 26 27  2  0
 26 28  1  0
 28 29  1  0
 29 30  2  0
 10  5  1  0
 17 12  1  0
 29 22  1  0
M  CHG  4  11  -1  24  -1  25  -1  28  -1
M  END
>  <UniqueID>  (267) 
55

>  <SMILES>  (267) 
O=C(COc1ccccc1)[N-]c1ccccc1SCC(=O)c1c([O-])[n-]c(=O)[n-]c1=O

>  <Energy>  (267) 
53.66970201426328

>  <Genealogy>  (267) 
O=C(COc1ccccc1)[N-]c1ccccc1SCC(=O)c1c([O-])[n-]c(=O)[n-]c1=O (protonated)
O=C(COc1ccccc1)[N-]c1ccccc1SCC(=O)c1c([O-])[n-]c(=O)[n-]c1=O (3D coordinates assigned)
O=C(COc1ccccc1)[N-]c1ccccc1SCC(=O)c1c([O-])[n-]c(=O)[n-]c1=O (optimized conformer: 53.66970201426328 kcal/mol)

>  <smiles>  (267) 
O=C(COc1ccccc1)Nc1ccccc1SCC(=O)c1c(O)[nH]c(=O)[nH]c1=O

>  <score_type>  (267) 
oracle

>  <origin>  (267) 
adg

>  <m_score__min__energy>  (267) 
-17.420000000000002

>  <m_primary>  (267) 
energy

$$$$
93:0
     RDKit          3D

 30 32  0  0  0  0  0  0  0  0999 V2000
   55.1750   26.3870   45.9910 N   0  0  0  0  0  0  0  0  0  0  0  0
   56.8830   26.6600   45.9970 S   0  0  0  0  0  0  0  0  0  0  0  0
   57.3770   26.6270   47.4150 O   0  0  0  0  0  0  0  0  0  0  0  0
   57.5490   25.5660   45.2090 O   0  0  0  0  0  0  0  0  0  0  0  0
   57.2720   28.2260   45.2790 C   0  0  0  0  0  0  0  0  0  0  0  0
   56.2630   28.9840   44.6660 C   0  0  0  0  0  0  0  0  0  0  0  0
   56.5580   30.2250   44.0970 C   0  0  0  0  0  0  0  0  0  0  0  0
   57.8610   30.7210   44.1390 C   0  0  0  0  0  0  0  0  0  0  0  0
   58.8760   29.9750   44.7430 C   0  0  0  0  0  0  0  0  0  0  0  0
   58.5920   28.7210   45.3120 C   0  0  0  0  0  0  0  0  0  0  0  0
   59.6180   27.9740   45.9850 N   0  0  0  0  0  0  0  0  0  0  0  0
   60.0800   28.2040   47.3210 C   0  0  0  0  0  0  0  0  0  0  0  0
   60.0030   27.2610   48.1530 O   0  0  0  0  0  0  0  0  0  0  0  0
   60.7110   29.4850   47.7270 C   0  0  0  0  0  0  0  0  0  0  0  0
   60.7790   29.8600   49.0820 C   0  0  0  0  0  0  0  0  0  0  0  0
   61.3080   31.1020   49.4470 C   0  0  0  0  0  0  0  0  0  0  0  0
   61.7680   31.9900   48.4680 C   0  0  0  0  0  0  0  0  0  0  0  0
   62.3810   33.5800   48.9140 S   0  0  0  0  0  0  0  0  0  0  0  0
   63.4100   34.0380   47.9170 O   0  0  0  0  0  0  0  0  0  0  0  0
   63.0280   33.4810   50.2670 O   0  0  0  0  0  0  0  0  0  0  0  0
   61.0720   34.7270   48.9980 N   0  0  0  0  0  0  0  0  0  0  0  0
   59.7670   34.0660   48.9320 C   0  0  0  0  0  0  0  0  0  0  0  0
   59.2170   34.0920   47.5320 C   0  0  0  0  0  0  0  0  0  0  0  0
   58.0470   33.3810   47.2110 C   0  0  0  0  0  0  0  0  0  0  0  0
   57.5260   33.4330   45.9170 C   0  0  0  0  0  0  0  0  0  0  0  0
   58.1660   34.1920   44.9330 C   0  0  0  0  0  0  0  0  0  0  0  0
   59.3250   34.9060   45.2450 C   0  0  0  0  0  0  0  0  0  0  0  0
   59.8510   34.8560   46.5390 C   0  0  0  0  0  0  0  0  0  0  0  0
   61.7040   31.6220   47.1190 C   0  0  0  0  0  0  0  0  0  0  0  0
   61.1830   30.3780   46.7500 C   0  0  0  0  0  0  0  0  0  0  0  0
  1  2  1  0
  2  3  2  0
  2  4  2  0
  2  5  1  0
  5  6  2  0
  6  7  1  0
  7  8  2  0
  8  9  1  0
  9 10  2  0
 10 11  1  0
 11 12  1  0
 12 13  2  0
 12 14  1  0
 14 15  2  0
 15 16  1  0
 16 17  2  0
 17 18  1  0
 18 19  2  0
 18 20  2  0
 18 21  1  0
 21 22  1  0
 22 23  1  0
 23 24  2  0
 24 25  1  0
 25 26  2  0
 26 27  1  0
 27 28  2  0
 17 29  1  0
 29 30  2  0
 10  5  1  0
 30 14  1  0
 28 23  1  0
M  CHG  3   1  -1  11  -1  21  -1
M  END
>  <UniqueID>  (268) 
83

>  <SMILES>  (268) 
[NH-]S(=O)(=O)c1ccccc1[N-]C(=O)c1ccc(S(=O)(=O)[N-]Cc2ccccc2)cc1

>  <Energy>  (268) 
51.04099447633708

>  <Genealogy>  (268) 
[NH-]S(=O)(=O)c1ccccc1[N-]C(=O)c1ccc(S(=O)(=O)[N-]Cc2ccccc2)cc1 (protonated)
[NH-]S(=O)(=O)c1ccccc1[N-]C(=O)c1ccc(S(=O)(=O)[N-]Cc2ccccc2)cc1 (3D coordinates assigned)
[NH-]S(=O)(=O)c1ccccc1[N-]C(=O)c1ccc(S(=O)(=O)[N-]Cc2ccccc2)cc1 (optimized conformer: 51.04099447633708 kcal/mol)

>  <smiles>  (268) 
NS(=O)(=O)c1ccccc1NC(=O)c1ccc(S(=O)(=O)NCc2ccccc2)cc1

>  <score_type>  (268) 
oracle

>  <origin>  (268) 
adg

>  <m_score__min__energy>  (268) 
-15.25

>  <m_primary>  (268) 
energy

$$$$
70:0
     RDKit          3D

 28 30  0  0  0  0  0  0  0  0999 V2000
   54.7720   26.3360   46.0010 N   0  0  0  0  0  0  0  0  0  0  0  0
   56.4340   25.8900   46.1470 S   0  0  0  0  0  0  0  0  0  0  0  0
   56.6480   25.1820   47.4550 O   0  0  0  0  0  0  0  0  0  0  0  0
   56.8060   24.9570   45.0280 O   0  0  0  0  0  0  0  0  0  0  0  0
   57.4390   27.3350   46.0760 C   0  0  0  0  0  0  0  0  0  0  0  0
   58.7740   27.2880   46.4980 C   0  0  0  0  0  0  0  0  0  0  0  0
   59.5600   28.4430   46.4610 C   0  0  0  0  0  0  0  0  0  0  0  0
   59.0220   29.6460   46.0000 C   0  0  0  0  0  0  0  0  0  0  0  0
   57.6870   29.7000   45.5580 C   0  0  0  0  0  0  0  0  0  0  0  0
   57.0840   30.9200   45.1040 N   0  0  0  0  0  0  0  0  0  0  0  0
   57.7550   32.0390   44.5080 C   0  0  0  0  0  0  0  0  0  0  0  0
   57.7170   32.2070   43.2580 O   0  0  0  0  0  0  0  0  0  0  0  0
   58.4460   33.0310   45.3650 C   0  0  0  0  0  0  0  0  0  0  0  0
   58.7880   34.2990   44.8570 C   0  0  0  0  0  0  0  0  0  0  0  0
   59.4300   35.2370   45.6700 C   0  0  0  0  0  0  0  0  0  0  0  0
   59.7410   34.9220   46.9940 C   0  0  0  0  0  0  0  0  0  0  0  0
   59.4180   33.6640   47.5120 C   0  0  0  0  0  0  0  0  0  0  0  0
   59.7920   33.2850   49.1940 S   0  0  0  0  0  0  0  0  0  0  0  0
   58.9780   32.0880   49.6010 O   0  0  0  0  0  0  0  0  0  0  0  0
   59.3980   34.4420   50.0710 O   0  0  0  0  0  0  0  0  0  0  0  0
   61.4940   32.9140   49.3820 N   0  0  0  0  0  0  0  0  0  0  0  0
   61.7930   31.5080   49.0590 C   0  0  0  0  0  0  0  0  0  0  0  0
   61.7450   31.2310   47.5380 C   0  0  0  0  0  0  0  0  0  0  0  0
   61.8340   32.4020   46.7440 O   0  0  0  0  0  0  0  0  0  0  0  0
   62.8110   33.2730   47.2690 C   0  0  0  0  0  0  0  0  0  0  0  0
   62.3440   33.8530   48.6170 C   0  0  0  0  0  0  0  0  0  0  0  0
   58.7700   32.7230   46.6990 C   0  0  0  0  0  0  0  0  0  0  0  0
   56.8970   28.5440   45.6210 C   0  0  0  0  0  0  0  0  0  0  0  0
  1  2  1  0
  2  3  2  0
  2  4  2  0
  2  5  1  0
  5  6  2  0
  6  7  1  0
  7  8  2  0
  8  9  1  0
  9 10  1  0
 10 11  1  0
 11 12  2  0
 11 13  1  0
 13 14  2  0
 14 15  1  0
 15 16  2  0
 16 17  1  0
 17 18  1  0
 18 19  2  0
 18 20  2  0
 18 21  1  0
 21 22  1  0
 22 23  1  0
 23 24  1  0
 24 25  1  0
 25 26  1  0
 17 27  2  0
  9 28  2  0
 28  5  1  0
 27 13  1  0
 26 21  1  0
M  CHG  2   1  -1  10  -1
M  END
>  <UniqueID>  (269) 
61

>  <SMILES>  (269) 
[NH-]S(=O)(=O)c1cccc([N-]C(=O)c2cccc(S(=O)(=O)N3CCOCC3)c2)c1

>  <Energy>  (269) 
61.11610298987246

>  <Genealogy>  (269) 
[NH-]S(=O)(=O)c1cccc([N-]C(=O)c2cccc(S(=O)(=O)N3CCOCC3)c2)c1 (protonated)
[NH-]S(=O)(=O)c1cccc([N-]C(=O)c2cccc(S(=O)(=O)N3CCOCC3)c2)c1 (3D coordinates assigned)
[NH-]S(=O)(=O)c1cccc([N-]C(=O)c2cccc(S(=O)(=O)N3CCOCC3)c2)c1 (nonaromatic ring conformer: 61.11610298987246 kcal/mol)

>  <smiles>  (269) 
NS(=O)(=O)c1cccc(NC(=O)c2cccc(S(=O)(=O)N3CCOCC3)c2)c1

>  <score_type>  (269) 
oracle

>  <origin>  (269) 
adg

>  <m_score__min__energy>  (269) 
-14.039999999999999

>  <m_primary>  (269) 
energy

$$$$
12:0
     RDKit          3D

 28 30  0  0  0  0  0  0  0  0999 V2000
   56.8810   30.6090   44.0730 C   0  0  0  0  0  0  0  0  0  0  0  0
   56.5630   31.7800   44.8180 O   0  0  0  0  0  0  0  0  0  0  0  0
   57.5080   32.7140   45.2680 C   0  0  0  0  0  0  0  0  0  0  0  0
   57.8480   33.8620   44.5250 C   0  0  0  0  0  0  0  0  0  0  0  0
   58.7980   34.7600   45.0150 C   0  0  0  0  0  0  0  0  0  0  0  0
   59.4120   34.5300   46.2480 C   0  0  0  0  0  0  0  0  0  0  0  0
   59.0740   33.3980   47.0010 C   0  0  0  0  0  0  0  0  0  0  0  0
   59.8030   33.1330   48.5800 S   0  0  0  0  0  0  0  0  0  0  0  0
   59.5890   34.3320   49.4610 O   0  0  0  0  0  0  0  0  0  0  0  0
   61.2790   32.9150   48.4050 O   0  0  0  0  0  0  0  0  0  0  0  0
   59.1070   31.7420   49.3530 N   0  0  0  0  0  0  0  0  0  0  0  0
   59.3660   30.4020   48.9070 C   0  0  0  0  0  0  0  0  0  0  0  0
   60.1080   29.5340   49.7190 C   0  0  0  0  0  0  0  0  0  0  0  0
   60.3610   28.2260   49.3060 C   0  0  0  0  0  0  0  0  0  0  0  0
   59.8800   27.7700   48.0750 C   0  0  0  0  0  0  0  0  0  0  0  0
   59.1420   28.6260   47.2400 C   0  0  0  0  0  0  0  0  0  0  0  0
   58.6710   28.1520   45.9110 C   0  0  0  0  0  0  0  0  0  0  0  0
   59.3770   28.3720   44.8910 O   0  0  0  0  0  0  0  0  0  0  0  0
   57.3940   27.5170   45.7340 N   0  0  0  0  0  0  0  0  0  0  0  0
   57.1500   26.2430   45.8640 C   0  0  0  0  0  0  0  0  0  0  0  0
   58.1630   25.3290   45.8490 N   0  0  0  0  0  0  0  0  0  0  0  0
   57.9310   23.9950   45.9800 C   0  0  0  0  0  0  0  0  0  0  0  0
   56.6260   23.5240   46.1270 C   0  0  0  0  0  0  0  0  0  0  0  0
   55.5670   24.4350   46.1320 C   0  0  0  0  0  0  0  0  0  0  0  0
   55.8250   25.8020   45.9990 C   0  0  0  0  0  0  0  0  0  0  0  0
   54.7710   26.7100   46.0130 O   0  0  0  0  0  0  0  0  0  0  0  0
   58.9060   29.9470   47.6600 C   0  0  0  0  0  0  0  0  0  0  0  0
   58.1280   32.4910   46.5040 C   0  0  0  0  0  0  0  0  0  0  0  0
  1  2  1  0
  2  3  1  0
  3  4  2  0
  4  5  1  0
  5  6  2  0
  6  7  1  0
  7  8  1  0
  8  9  2  0
  8 10  2  0
  8 11  1  0
 11 12  1  0
 12 13  2  0
 13 14  1  0
 14 15  2  0
 15 16  1  0
 16 17  1  0
 17 18  2  0
 17 19  1  0
 19 20  2  3
 20 21  1  0
 21 22  1  0
 22 23  2  0
 23 24  1  0
 24 25  2  0
 25 26  1  0
 16 27  2  0
  7 28  2  0
 28  3  1  0
 27 12  1  0
 25 20  1  0
M  CHG  2  21  -1  26  -1
M  END
>  <UniqueID>  (270) 
13

>  <SMILES>  (270) 
COc1cccc(S(=O)(=O)Nc2cccc(C(=O)N=c3[n-]cccc3[O-])c2)c1

>  <Energy>  (270) 
54.28115149065287

>  <Genealogy>  (270) 
COc1cccc(S(=O)(=O)Nc2cccc(C(=O)N=c3[n-]cccc3[O-])c2)c1 (protonated)
COc1cccc(S(=O)(=O)Nc2cccc(C(=O)N=c3[n-]cccc3[O-])c2)c1 (3D coordinates assigned)
COc1cccc(S(=O)(=O)Nc2cccc(C(=O)N=c3[n-]cccc3[O-])c2)c1 (optimized conformer: 54.28115149065287 kcal/mol)

>  <smiles>  (270) 
COc1cccc(S(=O)(=O)Nc2cccc(C(=O)N=c3[nH]cccc3O)c2)c1

>  <score_type>  (270) 
oracle

>  <origin>  (270) 
adg

>  <m_score__min__energy>  (270) 
-14.550000000000001

>  <m_primary>  (270) 
energy

$$$$
66:0
     RDKit          3D

 30 33  0  0  0  0  0  0  0  0999 V2000
   60.4650   28.7510   45.3600 O   0  0  0  0  0  0  0  0  0  0  0  0
   59.2080   28.8500   45.3580 C   0  0  0  0  0  0  0  0  0  0  0  0
   58.4000   27.9560   44.4730 C   0  0  0  0  0  0  0  0  0  0  0  0
   57.4690   27.1210   45.2970 C   0  0  0  0  0  0  0  0  0  0  0  0
   57.8190   25.5930   45.9100 S   0  0  0  0  0  0  0  0  0  0  0  0
   56.2820   25.4190   46.5720 C   0  0  0  0  0  0  0  0  0  0  0  0
   55.8970   24.4090   47.2150 O   0  0  0  0  0  0  0  0  0  0  0  0
   55.4900   26.4840   46.3350 N   0  0  0  0  0  0  0  0  0  0  0  0
   56.1490   27.4300   45.6170 C   0  0  0  0  0  0  0  0  0  0  0  0
   55.5320   28.6140   45.2280 O   0  0  0  0  0  0  0  0  0  0  0  0
   58.5540   29.8820   46.1070 N   0  0  0  0  0  0  0  0  0  0  0  0
   58.2870   31.2160   45.6530 C   0  0  0  0  0  0  0  0  0  0  0  0
   58.2250   31.5270   44.2830 C   0  0  0  0  0  0  0  0  0  0  0  0
   57.9970   32.8400   43.8680 C   0  0  0  0  0  0  0  0  0  0  0  0
   57.8470   33.8560   44.8090 C   0  0  0  0  0  0  0  0  0  0  0  0
   57.9360   33.5640   46.1730 C   0  0  0  0  0  0  0  0  0  0  0  0
   58.1670   32.2440   46.6050 C   0  0  0  0  0  0  0  0  0  0  0  0
   58.2640   31.9110   47.9660 O   0  0  0  0  0  0  0  0  0  0  0  0
   58.7470   32.7800   48.9910 C   0  0  0  0  0  0  0  0  0  0  0  0
   60.2390   32.9110   48.8890 C   0  0  0  0  0  0  0  0  0  0  0  0
   60.8480   33.3590   47.7150 C   0  0  0  0  0  0  0  0  0  0  0  0
   62.2420   33.3900   47.6440 C   0  0  0  0  0  0  0  0  0  0  0  0
   62.7880   33.7930   46.5780 O   0  0  0  0  0  0  0  0  0  0  0  0
   62.9990   32.9860   48.7170 N   0  0  0  0  0  0  0  0  0  0  0  0
   64.3700   32.9990   48.6520 C   0  0  0  0  0  0  0  0  0  0  0  0
   65.1380   32.5900   49.7450 C   0  0  0  0  0  0  0  0  0  0  0  0
   64.5040   32.1810   50.9160 C   0  0  0  0  0  0  0  0  0  0  0  0
   63.1140   32.1660   50.9810 C   0  0  0  0  0  0  0  0  0  0  0  0
   62.3670   32.5640   49.8690 C   0  0  0  0  0  0  0  0  0  0  0  0
   61.0120   32.5260   49.9350 N   0  0  0  0  0  0  0  0  0  0  0  0
  1  2  2  0
  2  3  1  0
  3  4  1  0
  4  5  1  0
  5  6  1  0
  6  7  2  0
  6  8  1  0
  8  9  1  0
  9 10  1  0
  2 11  1  0
 11 12  1  0
 12 13  2  0
 13 14  1  0
 14 15  2  0
 15 16  1  0
 16 17  2  0
 17 18  1  0
 18 19  1  0
 19 20  1  0
 20 21  2  0
 21 22  1  0
 22 23  2  0
 22 24  1  0
 24 25  1  0
 25 26  2  0
 26 27  1  0
 27 28  2  0
 28 29  1  0
 29 30  2  0
  9  4  2  0
 17 12  1  0
 30 20  1  0
 29 24  1  0
M  CHG  3   8  -1  10  -1  11  -1
M  END
>  <UniqueID>  (271) 
61

>  <SMILES>  (271) 
O=C(Cc1sc(=O)[n-]c1[O-])[N-]c1ccccc1OCc1cc(=O)n2ccccc2n1

>  <Energy>  (271) 
85.68168270089676

>  <Genealogy>  (271) 
O=C(Cc1sc(=O)[n-]c1[O-])[N-]c1ccccc1OCc1cc(=O)n2ccccc2n1 (protonated)
O=C(Cc1sc(=O)[n-]c1[O-])[N-]c1ccccc1OCc1cc(=O)n2ccccc2n1 (3D coordinates assigned)
O=C(Cc1sc(=O)[n-]c1[O-])[N-]c1ccccc1OCc1cc(=O)n2ccccc2n1 (optimized conformer: 85.68168270089676 kcal/mol)

>  <smiles>  (271) 
O=C(Cc1sc(=O)[nH]c1O)Nc1ccccc1OCc1cc(=O)n2ccccc2n1

>  <score_type>  (271) 
oracle

>  <origin>  (271) 
adg

>  <m_score__min__energy>  (271) 
-17.09

>  <m_primary>  (271) 
energy

$$$$
12:0
     RDKit          3D

 31 34  0  0  0  0  0  0  0  0999 V2000
   53.8680   25.8760   45.6160 N   0  0  0  0  0  0  0  0  0  0  0  0
   53.9170   24.1740   45.3090 S   0  0  0  0  0  0  0  0  0  0  0  0
   53.0310   23.8660   44.1340 O   0  0  0  0  0  0  0  0  0  0  0  0
   53.4120   23.4280   46.5100 O   0  0  0  0  0  0  0  0  0  0  0  0
   55.5810   23.6880   44.9710 C   0  0  0  0  0  0  0  0  0  0  0  0
   55.8310   22.6050   44.1140 C   0  0  0  0  0  0  0  0  0  0  0  0
   57.1420   22.2090   43.8390 C   0  0  0  0  0  0  0  0  0  0  0  0
   58.2130   22.8840   44.4250 C   0  0  0  0  0  0  0  0  0  0  0  0
   57.9780   23.9640   45.2790 C   0  0  0  0  0  0  0  0  0  0  0  0
   56.6620   24.3920   45.5420 C   0  0  0  0  0  0  0  0  0  0  0  0
   56.4000   25.4790   46.4490 N   0  0  0  0  0  0  0  0  0  0  0  0
   56.9410   26.6610   46.4230 C   0  0  0  0  0  0  0  0  0  0  0  0
   56.4390   27.6520   45.6360 N   0  0  0  0  0  0  0  0  0  0  0  0
   57.0050   28.8840   45.6360 C   0  0  0  0  0  0  0  0  0  0  0  0
   56.4930   29.8230   44.8940 N   0  0  0  0  0  0  0  0  0  0  0  0
   57.1370   31.0420   44.4840 C   0  0  0  0  0  0  0  0  0  0  0  0
   57.4670   31.9900   45.4630 C   0  0  0  0  0  0  0  0  0  0  0  0
   58.0860   33.1910   45.1050 C   0  0  0  0  0  0  0  0  0  0  0  0
   58.3660   33.4630   43.7630 C   0  0  0  0  0  0  0  0  0  0  0  0
   58.0130   32.5400   42.7760 C   0  0  0  0  0  0  0  0  0  0  0  0
   57.3900   31.3400   43.1290 C   0  0  0  0  0  0  0  0  0  0  0  0
   58.0660   29.1290   46.4470 N   0  0  0  0  0  0  0  0  0  0  0  0
   58.5670   28.1540   47.2500 C   0  0  0  0  0  0  0  0  0  0  0  0
   59.6030   28.3700   48.0050 N   0  0  0  0  0  0  0  0  0  0  0  0
   60.3070   29.6160   48.1640 C   0  0  0  0  0  0  0  0  0  0  0  0
   60.5780   30.1680   49.4320 C   0  0  0  0  0  0  0  0  0  0  0  0
   61.2710   31.3780   49.5390 C   0  0  0  0  0  0  0  0  0  0  0  0
   61.7200   32.0330   48.3890 C   0  0  0  0  0  0  0  0  0  0  0  0
   61.4860   31.4730   47.1300 C   0  0  0  0  0  0  0  0  0  0  0  0
   60.7910   30.2630   47.0190 C   0  0  0  0  0  0  0  0  0  0  0  0
   58.0020   26.9210   47.2300 N   0  0  0  0  0  0  0  0  0  0  0  0
  1  2  1  0
  2  3  2  0
  2  4  2  0
  2  5  1  0
  5  6  2  0
  6  7  1  0
  7  8  2  0
  8  9  1  0
  9 10  2  0
 10 11  1  0
 11 12  2  0
 12 13  1  0
 13 14  1  0
 14 15  2  3
 15 16  1  0
 16 17  2  0
 17 18  1  0
 18 19  2  0
 19 20  1  0
 20 21  2  0
 14 22  1  0
 22 23  1  0
 23 24  2  0
 24 25  1  0
 25 26  2  0
 26 27  1  0
 27 28  2  0
 28 29  1  0
 29 30  2  0
 23 31  1  0
 10  5  1  0
 31 12  1  0
 21 16  1  0
 30 25  1  0
M  CHG  4   1  -1  13  -1  22  -1  31  -1
M  END
>  <UniqueID>  (272) 
13

>  <SMILES>  (272) 
[NH-]S(=O)(=O)c1ccccc1/N=c1\[n-]c(=Nc2ccccc2)[n-]/c(=N\c2ccccc2)[n-]1

>  <Energy>  (272) 
69.57733997812637

>  <Genealogy>  (272) 
[NH-]S(=O)(=O)c1ccccc1N=c1[n-]c(=Nc2ccccc2)[n-]c(=Nc2ccccc2)[n-]1 (protonated)
[NH-]S(=O)(=O)c1ccccc1/N=c1\[n-]c(=Nc2ccccc2)[n-]/c(=N\c2ccccc2)[n-]1 (cis-trans isomerization)
[NH-]S(=O)(=O)c1ccccc1/N=c1\[n-]c(=Nc2ccccc2)[n-]/c(=N\c2ccccc2)[n-]1 (3D coordinates assigned)
[NH-]S(=O)(=O)c1ccccc1/N=c1\[n-]c(=Nc2ccccc2)[n-]/c(=N\c2ccccc2)[n-]1 (optimized conformer: 69.57733997812637 kcal/mol)

>  <smiles>  (272) 
NS(=O)(=O)c1ccccc1N=c1[nH]c(=Nc2ccccc2)[nH]c(=Nc2ccccc2)[nH]1

>  <score_type>  (272) 
oracle

>  <origin>  (272) 
adg

>  <m_score__min__energy>  (272) 
-15.779999999999999

>  <m_primary>  (272) 
energy

$$$$
16:0
     RDKit          3D

 26 30  0  0  0  0  0  0  0  0999 V2000
   53.1140   30.8500   51.2760 C   0  0  0  0  0  0  0  0  0  0  0  0
   51.9270   31.4940   51.8630 C   0  0  0  0  0  0  0  0  0  0  0  0
   51.6330   31.4380   53.1750 N   0  0  0  0  0  0  0  0  0  0  0  0
   50.5320   32.2130   53.2820 C   0  0  0  0  0  0  0  0  0  0  0  0
   49.9400   32.4010   54.3770 O   0  0  0  0  0  0  0  0  0  0  0  0
   50.1210   32.7770   52.1270 N   0  0  0  0  0  0  0  0  0  0  0  0
   51.0200   32.3230   51.2400 C   0  0  0  0  0  0  0  0  0  0  0  0
   51.0380   32.7020   49.9040 O   0  0  0  0  0  0  0  0  0  0  0  0
   57.2160   29.3360   53.1230 C   0  0  0  0  0  0  0  0  0  0  0  0
   53.7470   29.0250   52.8210 C   0  0  0  0  0  0  0  0  0  0  0  0
   54.9150   28.5970   53.3560 N   0  0  0  0  0  0  0  0  0  0  0  0
   55.8740   29.3730   52.8760 N   0  0  0  0  0  0  0  0  0  0  0  0
   53.9860   30.1070   51.9730 C   0  0  0  0  0  0  0  0  0  0  0  0
   57.7730   28.4630   53.9140 N   0  0  0  0  0  0  0  0  0  0  0  0
   58.7280   27.4280   53.5280 C   0  0  0  0  0  0  0  0  0  0  0  0
   60.0030   27.4820   54.3500 C   0  0  0  0  0  0  0  0  0  0  0  0
   60.0040   27.9660   52.9070 C   0  0  0  0  0  0  0  0  0  0  0  0
   58.0010   30.2610   52.5050 N   0  0  0  0  0  0  0  0  0  0  0  0
   57.4580   31.1940   51.6660 C   0  0  0  0  0  0  0  0  0  0  0  0
   58.3000   32.1520   51.0310 N   0  0  0  0  0  0  0  0  0  0  0  0
   58.8020   32.4310   49.6740 C   0  0  0  0  0  0  0  0  0  0  0  0
   59.6010   33.6350   50.0480 C   0  0  0  0  0  0  0  0  0  0  0  0
   60.9650   33.4210   49.9410 F   0  0  0  0  0  0  0  0  0  0  0  0
   59.0820   33.3390   51.4170 C   0  0  0  0  0  0  0  0  0  0  0  0
   56.1160   31.2130   51.4340 N   0  0  0  0  0  0  0  0  0  0  0  0
   55.3480   30.2860   52.0550 C   0  0  0  0  0  0  0  0  0  0  0  0
  1  2  1  0
  2  3  1  0
  3  4  1  0
  4  5  2  0
  4  6  1  0
  6  7  1  0
  7  8  1  0
  1  9  2  0
  9 10  1  0
 10 11  2  0
 11 12  1  0
 12 13  1  0
 13 14  2  0
 14 15  1  0
 15 16  1  0
 16 17  1  0
 13 18  1  0
 18 19  2  0
 19 20  1  0
 20 21  1  0
 21 22  1  0
 22 23  1  0
 22 24  1  0
 19 25  1  0
 25 26  2  0
  7  2  2  0
 26  9  1  0
 26 12  1  0
 17 15  1  0
 24 20  1  0
M  CHG  3   3  -1   6  -1   8  -1
M  END
>  <UniqueID>  (273) 
17

>  <SMILES>  (273) 
O=c1[n-]c([O-])c(/C=c2\cnn3/c(=N\C4CC4)nc(N4CC(F)C4)nc23)[n-]1

>  <Energy>  (273) 
426.6780701519655

>  <Genealogy>  (273) 
O=c1[n-]c([O-])c(C=c2cnn3c(=NC4CC4)nc(N4CC(F)C4)nc23)[n-]1 (protonated)
O=c1[n-]c([O-])c(/C=c2\cnn3/c(=N\C4CC4)nc(N4CC(F)C4)nc23)[n-]1 (cis-trans isomerization)
O=c1[n-]c([O-])c(/C=c2\cnn3/c(=N\C4CC4)nc(N4CC(F)C4)nc23)[n-]1 (3D coordinates assigned)
O=c1[n-]c([O-])c(/C=c2\cnn3/c(=N\C4CC4)nc(N4CC(F)C4)nc23)[n-]1 (nonaromatic ring conformer: 426.6780701519655 kcal/mol)

>  <smiles>  (273) 
O=c1[nH]c(O)c(C=c2cnn3c(=NC4CC4)nc(N4CC(F)C4)nc23)[nH]1

>  <score_type>  (273) 
oracle

>  <origin>  (273) 
adg

>  <m_score__min__energy>  (273) 
-15.49

>  <m_primary>  (273) 
energy

$$$$
28:0
     RDKit          3D

 22 24  0  0  0  0  0  0  0  0999 V2000
   58.1970   32.5540   42.0170 C   0  0  0  0  0  0  0  0  0  0  0  0
   57.8660   32.3860   43.3020 C   0  0  0  0  0  0  0  0  0  0  0  0
   57.8530   33.3970   44.2460 C   0  0  0  0  0  0  0  0  0  0  0  0
   57.4560   32.8080   45.4280 C   0  0  0  0  0  0  0  0  0  0  0  0
   57.3910   33.4960   46.7530 C   0  0  0  0  0  0  0  0  0  0  0  0
   57.2440   31.4890   45.2570 N   0  0  0  0  0  0  0  0  0  0  0  0
   57.4750   31.2140   43.9540 C   0  0  0  0  0  0  0  0  0  0  0  0
   57.3940   29.9870   43.4000 C   0  0  0  0  0  0  0  0  0  0  0  0
   57.2680   28.7270   44.1590 C   0  0  0  0  0  0  0  0  0  0  0  0
   58.4180   27.4980   44.2820 S   0  0  0  0  0  0  0  0  0  0  0  0
   57.5300   26.6410   45.4340 C   0  0  0  0  0  0  0  0  0  0  0  0
   57.8470   25.4880   45.9490 N   0  0  0  0  0  0  0  0  0  0  0  0
   57.8440   24.2220   45.2730 C   0  0  0  0  0  0  0  0  0  0  0  0
   58.9120   23.3140   45.4000 C   0  0  0  0  0  0  0  0  0  0  0  0
   58.8590   22.0720   44.7630 C   0  0  0  0  0  0  0  0  0  0  0  0
   57.7340   21.7160   44.0130 C   0  0  0  0  0  0  0  0  0  0  0  0
   56.6540   22.5990   43.9120 C   0  0  0  0  0  0  0  0  0  0  0  0
   55.5290   22.2390   43.1800 O   0  0  0  0  0  0  0  0  0  0  0  0
   56.7050   23.8440   44.5490 C   0  0  0  0  0  0  0  0  0  0  0  0
   56.3770   27.2700   45.7440 N   0  0  0  0  0  0  0  0  0  0  0  0
   56.2410   28.4340   45.0540 C   0  0  0  0  0  0  0  0  0  0  0  0
   55.1430   29.2640   45.2390 O   0  0  0  0  0  0  0  0  0  0  0  0
  1  2  2  0
  2  3  1  0
  3  4  2  0
  4  5  1  0
  4  6  1  0
  6  7  1  0
  7  8  2  3
  8  9  1  0
  9 10  1  0
 10 11  1  0
 11 12  2  0
 12 13  1  0
 13 14  2  0
 14 15  1  0
 15 16  2  0
 16 17  1  0
 17 18  1  0
 17 19  2  0
 11 20  1  0
 20 21  1  0
 21 22  1  0
  7  2  1  0
 21  9  2  0
 19 13  1  0
M  CHG  3  18  -1  20  -1  22  -1
M  END
>  <UniqueID>  (274) 
28

>  <SMILES>  (274) 
C=c1cc(C)[nH]c1=Cc1s/c(=N\c2cccc([O-])c2)[n-]c1[O-]

>  <Energy>  (274) 
105.96700872113291

>  <Genealogy>  (274) 
C=c1cc(C)[nH]c1=Cc1sc(=Nc2cccc([O-])c2)[n-]c1[O-] (protonated)
C=c1cc(C)[nH]c1=Cc1s/c(=N\c2cccc([O-])c2)[n-]c1[O-] (cis-trans isomerization)
C=c1cc(C)[nH]c1=Cc1s/c(=N\c2cccc([O-])c2)[n-]c1[O-] (3D coordinates assigned)
C=c1cc(C)[nH]c1=Cc1s/c(=N\c2cccc([O-])c2)[n-]c1[O-] (optimized conformer: 105.96700872113291 kcal/mol)

>  <smiles>  (274) 
C=c1cc(C)[nH]c1=Cc1sc(=Nc2cccc(O)c2)[nH]c1O

>  <score_type>  (274) 
oracle

>  <origin>  (274) 
adg

>  <m_score__min__energy>  (274) 
-14.460000000000001

>  <m_primary>  (274) 
energy

$$$$
64:0
     RDKit          3D

 23 25  0  0  0  0  0  0  0  0999 V2000
   62.4660   34.5220   49.6170 C   0  0  0  0  0  0  0  0  0  0  0  0
   61.6450   33.8030   48.8440 C   0  0  0  0  0  0  0  0  0  0  0  0
   60.2870   34.1420   48.7410 C   0  0  0  0  0  0  0  0  0  0  0  0
   59.4270   33.3910   47.9340 C   0  0  0  0  0  0  0  0  0  0  0  0
   59.9050   32.2780   47.2060 C   0  0  0  0  0  0  0  0  0  0  0  0
   59.0960   31.5320   46.4170 C   0  0  0  0  0  0  0  0  0  0  0  0
   57.9350   31.9540   45.8570 N   0  0  0  0  0  0  0  0  0  0  0  0
   57.4960   30.8880   45.1680 C   0  0  0  0  0  0  0  0  0  0  0  0
   56.4480   30.8910   44.4700 O   0  0  0  0  0  0  0  0  0  0  0  0
   58.3860   29.8420   45.3270 C   0  0  0  0  0  0  0  0  0  0  0  0
   58.3470   28.6040   44.8150 C   0  0  0  0  0  0  0  0  0  0  0  0
   57.6620   27.4620   45.4570 C   0  0  0  0  0  0  0  0  0  0  0  0
   56.2700   27.4760   45.6170 C   0  0  0  0  0  0  0  0  0  0  0  0
   55.5210   28.5750   45.2140 O   0  0  0  0  0  0  0  0  0  0  0  0
   55.6420   26.4100   46.1780 N   0  0  0  0  0  0  0  0  0  0  0  0
   56.3380   25.3170   46.5790 C   0  0  0  0  0  0  0  0  0  0  0  0
   55.5560   24.0530   47.2520 S   0  0  0  0  0  0  0  0  0  0  0  0
   57.6840   25.2680   46.4080 N   0  0  0  0  0  0  0  0  0  0  0  0
   58.3590   26.3060   45.8500 C   0  0  0  0  0  0  0  0  0  0  0  0
   59.6040   26.2150   45.6810 O   0  0  0  0  0  0  0  0  0  0  0  0
   59.3590   30.2760   46.0950 O   0  0  0  0  0  0  0  0  0  0  0  0
   61.2720   31.9470   47.3180 C   0  0  0  0  0  0  0  0  0  0  0  0
   62.1300   32.6990   48.1260 C   0  0  0  0  0  0  0  0  0  0  0  0
  1  2  2  0
  2  3  1  0
  3  4  2  0
  4  5  1  0
  5  6  2  3
  6  7  1  0
  7  8  1  0
  8  9  2  0
  8 10  1  0
 10 11  2  3
 11 12  1  0
 12 13  2  0
 13 14  1  0
 13 15  1  0
 15 16  1  0
 16 17  2  0
 16 18  1  0
 18 19  1  0
 19 20  2  0
 10 21  1  0
  5 22  1  0
 22 23  2  0
 23  2  1  0
 21  6  1  0
 19 12  1  0
M  CHG  3  14  -1  15  -1  18  -1
M  END
>  <UniqueID>  (275) 
58

>  <SMILES>  (275) 
C=c1ccc(=c2[nH]c(=O)c(=Cc3c([O-])[n-]c(=S)[n-]c3=O)o2)cc1

>  <Energy>  (275) 
83.12978226837747

>  <Genealogy>  (275) 
C=c1ccc(=c2[nH]c(=O)c(=Cc3c([O-])[n-]c(=S)[n-]c3=O)o2)cc1 (protonated)
C=c1ccc(=c2[nH]c(=O)c(=Cc3c([O-])[n-]c(=S)[n-]c3=O)o2)cc1 (3D coordinates assigned)
C=c1ccc(=c2[nH]c(=O)c(=Cc3c([O-])[n-]c(=S)[n-]c3=O)o2)cc1 (optimized conformer: 83.12978226837747 kcal/mol)

>  <smiles>  (275) 
C=c1ccc(=c2[nH]c(=O)c(=Cc3c(O)[nH]c(=S)[nH]c3=O)o2)cc1

>  <score_type>  (275) 
oracle

>  <origin>  (275) 
adg

>  <m_score__min__energy>  (275) 
-14.890000000000001

>  <m_primary>  (275) 
energy

$$$$
82:0
     RDKit          3D

 24 26  0  0  0  0  0  0  0  0999 V2000
   59.7270   28.8280   46.3150 C   0  0  0  0  0  0  0  0  0  0  0  0
   58.5580   29.3410   45.9030 C   0  0  0  0  0  0  0  0  0  0  0  0
   57.5560   28.7030   45.1610 C   0  0  0  0  0  0  0  0  0  0  0  0
   57.3790   27.4130   44.8180 C   0  0  0  0  0  0  0  0  0  0  0  0
   57.2350   26.2880   45.7630 C   0  0  0  0  0  0  0  0  0  0  0  0
   55.9860   25.9570   46.3170 C   0  0  0  0  0  0  0  0  0  0  0  0
   54.8540   26.7040   46.0150 O   0  0  0  0  0  0  0  0  0  0  0  0
   55.8780   24.8910   47.1520 N   0  0  0  0  0  0  0  0  0  0  0  0
   56.9560   24.1220   47.4510 C   0  0  0  0  0  0  0  0  0  0  0  0
   56.8320   23.1420   48.2290 O   0  0  0  0  0  0  0  0  0  0  0  0
   58.1670   24.4070   46.9050 N   0  0  0  0  0  0  0  0  0  0  0  0
   58.3270   25.4620   46.0660 C   0  0  0  0  0  0  0  0  0  0  0  0
   59.4630   25.6920   45.5710 O   0  0  0  0  0  0  0  0  0  0  0  0
   56.6900   29.7200   44.8010 C   0  0  0  0  0  0  0  0  0  0  0  0
   57.1110   30.8840   45.3290 N   0  0  0  0  0  0  0  0  0  0  0  0
   58.2250   30.6540   46.0050 N   0  0  0  0  0  0  0  0  0  0  0  0
   58.9250   31.6980   46.7030 C   0  0  0  0  0  0  0  0  0  0  0  0
   59.2080   32.9100   46.0600 C   0  0  0  0  0  0  0  0  0  0  0  0
   59.8580   33.9340   46.7520 C   0  0  0  0  0  0  0  0  0  0  0  0
   60.2070   33.7460   48.0910 C   0  0  0  0  0  0  0  0  0  0  0  0
   60.8590   34.7700   48.7820 O   0  0  0  0  0  0  0  0  0  0  0  0
   62.1050   34.5820   49.4430 C   0  0  0  0  0  0  0  0  0  0  0  0
   59.9030   32.5690   48.7090 N   0  0  0  0  0  0  0  0  0  0  0  0
   59.2740   31.5570   48.0550 C   0  0  0  0  0  0  0  0  0  0  0  0
  1  2  2  0
  2  3  1  0
  3  4  2  3
  4  5  1  0
  5  6  2  0
  6  7  1  0
  6  8  1  0
  8  9  1  0
  9 10  2  0
  9 11  1  0
 11 12  1  0
 12 13  2  0
  3 14  1  0
 14 15  2  0
 15 16  1  0
 16 17  1  0
 17 18  2  0
 18 19  1  0
 19 20  2  0
 20 21  1  0
 21 22  1  0
 20 23  1  0
 23 24  2  0
 16  2  1  0
 24 17  1  0
 12  5  1  0
M  CHG  3   7  -1   8  -1  11  -1
M  END
>  <UniqueID>  (276) 
75

>  <SMILES>  (276) 
C=c1c(=Cc2c([O-])[n-]c(=O)[n-]c2=O)cnn1-c1ccc(OC)nc1

>  <Energy>  (276) 
88.09547173767312

>  <Genealogy>  (276) 
C=c1c(=Cc2c([O-])[n-]c(=O)[n-]c2=O)cnn1-c1ccc(OC)nc1 (protonated)
C=c1c(=Cc2c([O-])[n-]c(=O)[n-]c2=O)cnn1-c1ccc(OC)nc1 (3D coordinates assigned)
C=c1c(=Cc2c([O-])[n-]c(=O)[n-]c2=O)cnn1-c1ccc(OC)nc1 (optimized conformer: 88.09547173767312 kcal/mol)

>  <smiles>  (276) 
C=c1c(=Cc2c(O)[nH]c(=O)[nH]c2=O)cnn1-c1ccc(OC)nc1

>  <score_type>  (276) 
oracle

>  <origin>  (276) 
adg

>  <m_score__min__energy>  (276) 
-14.210000000000001

>  <m_primary>  (276) 
energy

$$$$
7:0
     RDKit          3D

 27 29  0  0  0  0  0  0  0  0999 V2000
   58.3920   27.6280   45.9180 C   0  0  0  0  0  0  0  0  0  0  0  0
   57.2010   26.7690   45.9950 C   0  0  0  0  0  0  0  0  0  0  0  0
   57.1850   25.5230   46.5040 N   0  0  0  0  0  0  0  0  0  0  0  0
   55.8750   25.1920   46.4770 C   0  0  0  0  0  0  0  0  0  0  0  0
   55.4500   24.0740   46.8680 O   0  0  0  0  0  0  0  0  0  0  0  0
   55.0560   26.1580   46.0060 N   0  0  0  0  0  0  0  0  0  0  0  0
   55.9120   27.1520   45.7180 C   0  0  0  0  0  0  0  0  0  0  0  0
   55.5200   28.3870   45.2170 O   0  0  0  0  0  0  0  0  0  0  0  0
   58.4080   28.8960   45.4630 C   0  0  0  0  0  0  0  0  0  0  0  0
   58.4640   29.2080   44.1200 C   0  0  0  0  0  0  0  0  0  0  0  0
   58.3560   30.5370   43.9820 N   0  0  0  0  0  0  0  0  0  0  0  0
   58.2700   31.0330   45.2370 C   0  0  0  0  0  0  0  0  0  0  0  0
   58.1590   32.3470   45.5130 C   0  0  0  0  0  0  0  0  0  0  0  0
   58.1830   33.4280   44.4650 C   0  0  0  0  0  0  0  0  0  0  0  0
   58.9550   34.6710   44.9310 C   0  0  0  0  0  0  0  0  0  0  0  0
   59.2630   34.6320   46.4280 C   0  0  0  0  0  0  0  0  0  0  0  0
   58.3300   30.0530   46.1820 N   0  0  0  0  0  0  0  0  0  0  0  0
   58.6640   30.2670   47.6060 C   0  0  0  0  0  0  0  0  0  0  0  0
   59.9390   31.0620   47.7420 C   0  0  0  0  0  0  0  0  0  0  0  0
   59.9830   32.2140   48.5420 C   0  0  0  0  0  0  0  0  0  0  0  0
   61.1690   32.9450   48.6650 C   0  0  0  0  0  0  0  0  0  0  0  0
   62.3340   32.5300   47.9990 C   0  0  0  0  0  0  0  0  0  0  0  0
   63.5870   33.3070   48.1300 C   0  0  0  0  0  0  0  0  0  0  0  0
   63.7820   34.3320   47.4240 O   0  0  0  0  0  0  0  0  0  0  0  0
   64.5650   32.9170   49.0370 O   0  0  0  0  0  0  0  0  0  0  0  0
   62.2920   31.3670   47.2100 C   0  0  0  0  0  0  0  0  0  0  0  0
   61.1060   30.6380   47.0860 C   0  0  0  0  0  0  0  0  0  0  0  0
  1  2  1  0
  2  3  1  0
  3  4  1  0
  4  5  2  0
  4  6  1  0
  6  7  1  0
  7  8  1  0
  1  9  2  3
  9 10  1  0
 10 11  2  0
 11 12  1  0
 12 13  2  0
 13 14  1  0
 14 15  1  0
 15 16  1  0
 12 17  1  0
 17 18  1  0
 18 19  1  0
 19 20  2  0
 20 21  1  0
 21 22  2  0
 22 23  1  0
 23 24  2  0
 23 25  1  0
 22 26  1  0
 26 27  2  0
  7  2  2  0
 17  9  1  0
 27 19  1  0
M  CHG  5   3  -1   6  -1   8  -1  11   1  25  -1
M  END
>  <UniqueID>  (277) 
6

>  <SMILES>  (277) 
CCC/C=c1\[nH+]cc(=Cc2[n-]c(=O)[n-]c2[O-])n1Cc1ccc(C(=O)[O-])cc1

>  <Energy>  (277) 
116.15991170948125

>  <Genealogy>  (277) 
CCCC=c1[nH+]cc(=Cc2[n-]c(=O)[n-]c2[O-])n1Cc1ccc(C(=O)[O-])cc1 (protonated)
CCC/C=c1\[nH+]cc(=Cc2[n-]c(=O)[n-]c2[O-])n1Cc1ccc(C(=O)[O-])cc1 (cis-trans isomerization)
CCC/C=c1\[nH+]cc(=Cc2[n-]c(=O)[n-]c2[O-])n1Cc1ccc(C(=O)[O-])cc1 (3D coordinates assigned)
CCC/C=c1\[nH+]cc(=Cc2[n-]c(=O)[n-]c2[O-])n1Cc1ccc(C(=O)[O-])cc1 (optimized conformer: 116.15991170948125 kcal/mol)

>  <smiles>  (277) 
CCCC=c1ncc(=Cc2[nH]c(=O)[nH]c2O)n1Cc1ccc(C(=O)O)cc1

>  <score_type>  (277) 
oracle

>  <origin>  (277) 
adg

>  <m_score__min__energy>  (277) 
-14.44

>  <m_primary>  (277) 
energy

$$$$
45:0
     RDKit          3D

 29 31  0  0  0  0  0  0  0  0999 V2000
   53.8350   22.9380   46.9660 C   0  0  0  0  0  0  0  0  0  0  0  0
   55.0020   23.4650   46.2600 N   0  0  0  0  0  0  0  0  0  0  0  0
   55.1780   23.2380   44.8210 C   0  0  0  0  0  0  0  0  0  0  0  0
   56.0480   24.1020   47.0170 C   0  0  0  0  0  0  0  0  0  0  0  0
   56.3900   23.6150   48.1270 O   0  0  0  0  0  0  0  0  0  0  0  0
   56.7110   25.3280   46.5170 C   0  0  0  0  0  0  0  0  0  0  0  0
   58.1140   25.3970   46.5140 C   0  0  0  0  0  0  0  0  0  0  0  0
   58.7640   26.5420   46.0580 C   0  0  0  0  0  0  0  0  0  0  0  0
   58.0270   27.6340   45.6070 C   0  0  0  0  0  0  0  0  0  0  0  0
   56.6250   27.6010   45.6150 C   0  0  0  0  0  0  0  0  0  0  0  0
   55.9110   28.7440   45.1140 N   0  0  0  0  0  0  0  0  0  0  0  0
   56.5150   29.8370   44.4140 C   0  0  0  0  0  0  0  0  0  0  0  0
   57.2310   30.9810   44.7450 C   0  0  0  0  0  0  0  0  0  0  0  0
   57.7660   31.5740   45.9290 N   0  0  0  0  0  0  0  0  0  0  0  0
   58.2810   33.2270   46.0260 S   0  0  0  0  0  0  0  0  0  0  0  0
   59.1440   33.5360   44.8340 O   0  0  0  0  0  0  0  0  0  0  0  0
   57.0810   34.1310   46.0080 O   0  0  0  0  0  0  0  0  0  0  0  0
   59.2420   33.4940   47.4790 C   0  0  0  0  0  0  0  0  0  0  0  0
   58.8770   32.8760   48.6820 C   0  0  0  0  0  0  0  0  0  0  0  0
   59.6260   33.0960   49.8400 C   0  0  0  0  0  0  0  0  0  0  0  0
   60.7430   33.9310   49.8040 C   0  0  0  0  0  0  0  0  0  0  0  0
   61.1220   34.5380   48.6020 C   0  0  0  0  0  0  0  0  0  0  0  0
   60.3810   34.3110   47.4400 C   0  0  0  0  0  0  0  0  0  0  0  0
   57.2770   31.3300   43.4130 C   0  0  0  0  0  0  0  0  0  0  0  0
   57.7530   32.2980   42.7650 O   0  0  0  0  0  0  0  0  0  0  0  0
   56.6280   30.1600   43.0780 C   0  0  0  0  0  0  0  0  0  0  0  0
   56.2660   29.6190   42.0010 O   0  0  0  0  0  0  0  0  0  0  0  0
   55.9630   26.4230   46.0330 C   0  0  0  0  0  0  0  0  0  0  0  0
   54.5770   26.3340   45.9630 O   0  0  0  0  0  0  0  0  0  0  0  0
  1  2  1  0
  2  3  1  0
  2  4  1  0
  4  5  2  0
  4  6  1  0
  6  7  2  0
  7  8  1  0
  8  9  2  0
  9 10  1  0
 10 11  1  0
 11 12  1  0
 12 13  2  0
 13 14  1  0
 14 15  1  0
 15 16  2  0
 15 17  2  0
 15 18  1  0
 18 19  2  0
 19 20  1  0
 20 21  2  0
 21 22  1  0
 22 23  2  0
 13 24  1  0
 24 25  2  0
 24 26  1  0
 26 27  2  0
 10 28  2  0
 28 29  1  0
 28  6  1  0
 26 12  1  0
 23 18  1  0
M  CHG  2  14  -1  29  -1
M  END
>  <UniqueID>  (278) 
39

>  <SMILES>  (278) 
CN(C)C(=O)c1cccc(Nc2c([N-]S(=O)(=O)c3ccccc3)c(=O)c2=O)c1[O-]

>  <Energy>  (278) 
49.44822502667927

>  <Genealogy>  (278) 
CN(C)C(=O)c1cccc(Nc2c([N-]S(=O)(=O)c3ccccc3)c(=O)c2=O)c1[O-] (protonated)
CN(C)C(=O)c1cccc(Nc2c([N-]S(=O)(=O)c3ccccc3)c(=O)c2=O)c1[O-] (3D coordinates assigned)
CN(C)C(=O)c1cccc(Nc2c([N-]S(=O)(=O)c3ccccc3)c(=O)c2=O)c1[O-] (optimized conformer: 49.44822502667927 kcal/mol)

>  <smiles>  (278) 
CN(C)C(=O)c1cccc(Nc2c(NS(=O)(=O)c3ccccc3)c(=O)c2=O)c1O

>  <score_type>  (278) 
oracle

>  <origin>  (278) 
adg

>  <m_score__min__energy>  (278) 
-14.859999999999999

>  <m_primary>  (278) 
energy

$$$$
67:0
     RDKit          3D

 30 33  0  0  0  0  0  0  0  0999 V2000
   53.2920   29.1960   55.0510 O   0  0  0  0  0  0  0  0  0  0  0  0
   53.3960   29.4880   53.8300 C   0  0  0  0  0  0  0  0  0  0  0  0
   52.2490   29.3220   52.9850 N   0  0  0  0  0  0  0  0  0  0  0  0
   51.8110   30.2230   51.9570 C   0  0  0  0  0  0  0  0  0  0  0  0
   51.8490   29.8070   50.6250 C   0  0  0  0  0  0  0  0  0  0  0  0
   51.4400   30.6430   49.6360 N   0  0  0  0  0  0  0  0  0  0  0  0
   51.0060   31.8980   49.9170 C   0  0  0  0  0  0  0  0  0  0  0  0
   50.6260   32.6550   48.9880 O   0  0  0  0  0  0  0  0  0  0  0  0
   50.9880   32.3390   51.2010 N   0  0  0  0  0  0  0  0  0  0  0  0
   51.3890   31.5400   52.2250 C   0  0  0  0  0  0  0  0  0  0  0  0
   51.3990   31.9990   53.3970 O   0  0  0  0  0  0  0  0  0  0  0  0
   54.6750   30.0370   53.3200 C   0  0  0  0  0  0  0  0  0  0  0  0
   55.8550   29.8760   54.0650 C   0  0  0  0  0  0  0  0  0  0  0  0
   57.0670   30.3860   53.5910 C   0  0  0  0  0  0  0  0  0  0  0  0
   57.1200   31.0820   52.3730 C   0  0  0  0  0  0  0  0  0  0  0  0
   58.3720   31.5920   51.8750 N   0  0  0  0  0  0  0  0  0  0  0  0
   58.8720   32.9100   52.2850 C   0  0  0  0  0  0  0  0  0  0  0  0
   59.2670   33.7500   51.0530 C   0  0  0  0  0  0  0  0  0  0  0  0
   59.5520   32.9240   49.8500 N   0  0  0  0  0  0  0  0  0  0  0  0
   60.3730   33.6650   48.8720 C   0  0  0  0  0  0  0  0  0  0  0  0
   59.6020   33.9010   47.5990 C   0  0  0  0  0  0  0  0  0  0  0  0
   58.3640   33.2710   47.3850 C   0  0  0  0  0  0  0  0  0  0  0  0
   57.6690   33.4740   46.1890 C   0  0  0  0  0  0  0  0  0  0  0  0
   58.2050   34.3010   45.1980 C   0  0  0  0  0  0  0  0  0  0  0  0
   59.4400   34.9240   45.4010 C   0  0  0  0  0  0  0  0  0  0  0  0
   60.1380   34.7240   46.5960 C   0  0  0  0  0  0  0  0  0  0  0  0
   60.2000   31.6500   50.2140 C   0  0  0  0  0  0  0  0  0  0  0  0
   59.1960   30.7750   50.9740 C   0  0  0  0  0  0  0  0  0  0  0  0
   55.9380   31.2520   51.6330 C   0  0  0  0  0  0  0  0  0  0  0  0
   54.7260   30.7410   52.1050 C   0  0  0  0  0  0  0  0  0  0  0  0
  1  2  2  0
  2  3  1  0
  3  4  1  0
  4  5  2  0
  5  6  1  0
  6  7  1  0
  7  8  2  0
  7  9  1  0
  9 10  1  0
 10 11  2  0
  2 12  1  0
 12 13  2  0
 13 14  1  0
 14 15  2  0
 15 16  1  0
 16 17  1  0
 17 18  1  0
 18 19  1  0
 19 20  1  0
 20 21  1  0
 21 22  2  0
 22 23  1  0
 23 24  2  0
 24 25  1  0
 25 26  2  0
 19 27  1  0
 27 28  1  0
 15 29  1  0
 29 30  2  0
 10  4  1  0
 30 12  1  0
 28 16  1  0
 26 21  1  0
M  CHG  3   3  -1   6  -1   9  -1
M  END
>  <UniqueID>  (279) 
61

>  <SMILES>  (279) 
O=C([N-]c1c[n-]c(=O)[n-]c1=O)c1ccc(N2CCN(Cc3ccccc3)CC2)cc1

>  <Energy>  (279) 
73.54094133304051

>  <Genealogy>  (279) 
O=C([N-]c1c[n-]c(=O)[n-]c1=O)c1ccc(N2CCN(Cc3ccccc3)CC2)cc1 (protonated)
O=C([N-]c1c[n-]c(=O)[n-]c1=O)c1ccc(N2CCN(Cc3ccccc3)CC2)cc1 (3D coordinates assigned)
O=C([N-]c1c[n-]c(=O)[n-]c1=O)c1ccc(N2CCN(Cc3ccccc3)CC2)cc1 (nonaromatic ring conformer: 73.54094133304051 kcal/mol)

>  <smiles>  (279) 
O=C(Nc1c[nH]c(=O)[nH]c1=O)c1ccc(N2CCN(Cc3ccccc3)CC2)cc1

>  <score_type>  (279) 
oracle

>  <origin>  (279) 
adg

>  <m_score__min__energy>  (279) 
-15.210000000000001

>  <m_primary>  (279) 
energy

$$$$
17:0
     RDKit          3D

 25 27  0  0  0  0  0  0  0  0999 V2000
   53.4310   25.1770   45.2590 O   0  0  0  0  0  0  0  0  0  0  0  0
   54.6390   25.1490   45.6100 C   0  0  0  0  0  0  0  0  0  0  0  0
   55.2270   26.3410   46.1490 N   0  0  0  0  0  0  0  0  0  0  0  0
   56.5040   26.8970   45.8000 C   0  0  0  0  0  0  0  0  0  0  0  0
   57.6580   26.1460   46.0510 C   0  0  0  0  0  0  0  0  0  0  0  0
   58.9170   26.6600   45.7320 C   0  0  0  0  0  0  0  0  0  0  0  0
   59.0340   27.9380   45.1800 C   0  0  0  0  0  0  0  0  0  0  0  0
   57.8940   28.7200   44.9610 C   0  0  0  0  0  0  0  0  0  0  0  0
   58.0490   30.0210   44.3770 N   0  0  0  0  0  0  0  0  0  0  0  0
   57.2460   31.1760   44.6540 C   0  0  0  0  0  0  0  0  0  0  0  0
   55.9980   31.0980   44.5010 O   0  0  0  0  0  0  0  0  0  0  0  0
   57.8390   32.4630   45.0600 C   0  0  0  0  0  0  0  0  0  0  0  0
   58.4730   33.3850   44.2310 C   0  0  0  0  0  0  0  0  0  0  0  0
   58.9130   34.5270   44.9110 C   0  0  0  0  0  0  0  0  0  0  0  0
   58.6210   34.5170   46.2680 C   0  0  0  0  0  0  0  0  0  0  0  0
   57.8130   33.0870   46.6220 S   0  0  0  0  0  0  0  0  0  0  0  0
   56.6270   28.1910   45.2630 C   0  0  0  0  0  0  0  0  0  0  0  0
   55.3910   23.8820   45.4920 C   0  0  0  0  0  0  0  0  0  0  0  0
   56.0660   23.3230   46.5870 C   0  0  0  0  0  0  0  0  0  0  0  0
   56.7580   22.1230   46.4050 C   0  0  0  0  0  0  0  0  0  0  0  0
   57.3820   21.6010   47.3650 O   0  0  0  0  0  0  0  0  0  0  0  0
   56.7540   21.5170   45.1900 N   0  0  0  0  0  0  0  0  0  0  0  0
   56.0820   22.0600   44.1420 C   0  0  0  0  0  0  0  0  0  0  0  0
   56.0850   21.4800   43.0250 O   0  0  0  0  0  0  0  0  0  0  0  0
   55.4060   23.2280   44.2990 N   0  0  0  0  0  0  0  0  0  0  0  0
  1  2  2  0
  2  3  1  0
  3  4  1  0
  4  5  2  0
  5  6  1  0
  6  7  2  0
  7  8  1  0
  8  9  1  0
  9 10  1  0
 10 11  2  0
 10 12  1  0
 12 13  2  0
 13 14  1  0
 14 15  2  0
 15 16  1  0
  8 17  2  0
  2 18  1  0
 18 19  2  0
 19 20  1  0
 20 21  2  0
 20 22  1  0
 22 23  1  0
 23 24  2  0
 23 25  1  0
 17  4  1  0
 25 18  1  0
 16 12  1  0
M  CHG  4   3  -1   9  -1  22  -1  25  -1
M  END
>  <UniqueID>  (280) 
17

>  <SMILES>  (280) 
O=C([N-]c1cccc([N-]C(=O)c2cccs2)c1)c1cc(=O)[n-]c(=O)[n-]1

>  <Energy>  (280) 
73.69004425395418

>  <Genealogy>  (280) 
O=C([N-]c1cccc([N-]C(=O)c2cccs2)c1)c1cc(=O)[n-]c(=O)[n-]1 (protonated)
O=C([N-]c1cccc([N-]C(=O)c2cccs2)c1)c1cc(=O)[n-]c(=O)[n-]1 (3D coordinates assigned)
O=C([N-]c1cccc([N-]C(=O)c2cccs2)c1)c1cc(=O)[n-]c(=O)[n-]1 (optimized conformer: 73.69004425395418 kcal/mol)

>  <smiles>  (280) 
O=C(Nc1cccc(NC(=O)c2cccs2)c1)c1cc(=O)[nH]c(=O)[nH]1

>  <score_type>  (280) 
oracle

>  <origin>  (280) 
adg

>  <m_score__min__energy>  (280) 
-14.75

>  <m_primary>  (280) 
energy

$$$$
55:0
     RDKit          3D

 30 33  0  0  0  0  0  0  0  0999 V2000
   57.4910   26.1350   44.5930 C   0  0  0  0  0  0  0  0  0  0  0  0
   56.9120   25.2040   45.5750 C   0  0  0  0  0  0  0  0  0  0  0  0
   57.5630   24.1570   46.1160 N   0  0  0  0  0  0  0  0  0  0  0  0
   56.6940   23.6970   47.0430 C   0  0  0  0  0  0  0  0  0  0  0  0
   56.9410   22.6940   47.7620 O   0  0  0  0  0  0  0  0  0  0  0  0
   55.5480   24.4020   47.1450 N   0  0  0  0  0  0  0  0  0  0  0  0
   55.7100   25.3600   46.2180 C   0  0  0  0  0  0  0  0  0  0  0  0
   54.7780   26.3610   45.9710 O   0  0  0  0  0  0  0  0  0  0  0  0
   57.9340   27.3790   44.8580 C   0  0  0  0  0  0  0  0  0  0  0  0
   57.7830   28.4340   43.9730 C   0  0  0  0  0  0  0  0  0  0  0  0
   58.2630   29.5610   44.6070 C   0  0  0  0  0  0  0  0  0  0  0  0
   58.2700   30.9350   44.0070 C   0  0  0  0  0  0  0  0  0  0  0  0
   58.7500   29.2430   45.8280 N   0  0  0  0  0  0  0  0  0  0  0  0
   59.3640   30.1590   46.7530 C   0  0  0  0  0  0  0  0  0  0  0  0
   58.8330   30.3300   48.0390 C   0  0  0  0  0  0  0  0  0  0  0  0
   59.4300   31.2210   48.9360 C   0  0  0  0  0  0  0  0  0  0  0  0
   60.5720   31.9470   48.5580 C   0  0  0  0  0  0  0  0  0  0  0  0
   61.1940   32.9380   49.5070 C   0  0  0  0  0  0  0  0  0  0  0  0
   60.3600   34.2170   49.6020 C   0  0  0  0  0  0  0  0  0  0  0  0
   60.2860   34.8670   48.2940 N   0  0  0  0  0  0  0  0  0  0  0  0
   59.4620   34.5670   47.3320 C   0  0  0  0  0  0  0  0  0  0  0  0
   58.3480   33.8460   47.6320 N   0  0  0  0  0  0  0  0  0  0  0  0
   57.4370   33.4890   46.6870 C   0  0  0  0  0  0  0  0  0  0  0  0
   57.6280   33.8620   45.3560 C   0  0  0  0  0  0  0  0  0  0  0  0
   58.7590   34.6020   45.0120 C   0  0  0  0  0  0  0  0  0  0  0  0
   59.6830   34.9610   45.9950 C   0  0  0  0  0  0  0  0  0  0  0  0
   61.0960   31.7820   47.2660 C   0  0  0  0  0  0  0  0  0  0  0  0
   60.4980   30.8900   46.3710 C   0  0  0  0  0  0  0  0  0  0  0  0
   58.5860   27.9040   45.9870 C   0  0  0  0  0  0  0  0  0  0  0  0
   59.1370   27.2120   46.9950 C   0  0  0  0  0  0  0  0  0  0  0  0
  1  2  1  0
  2  3  1  0
  3  4  1  0
  4  5  2  0
  4  6  1  0
  6  7  1  0
  7  8  1  0
  1  9  2  3
  9 10  1  0
 10 11  2  0
 11 12  1  0
 11 13  1  0
 13 14  1  0
 14 15  2  0
 15 16  1  0
 16 17  2  0
 17 18  1  0
 18 19  1  0
 19 20  1  0
 20 21  2  0
 21 22  1  0
 22 23  1  0
 23 24  2  0
 24 25  1  0
 25 26  2  0
 17 27  1  0
 27 28  2  0
 13 29  1  0
 29 30  2  0
  7  2  2  0
 29  9  1  0
 28 14  1  0
 26 21  1  0
M  CHG  4   3  -1   6  -1   8  -1  22  -1
M  END
>  <UniqueID>  (281) 
53

>  <SMILES>  (281) 
C=c1c(=Cc2[n-]c(=O)[n-]c2[O-])cc(C)n1-c1ccc(CC/N=c2\cccc[n-]2)cc1

>  <Energy>  (281) 
126.98611677730635

>  <Genealogy>  (281) 
C=c1c(=Cc2[n-]c(=O)[n-]c2[O-])cc(C)n1-c1ccc(CCN=c2cccc[n-]2)cc1 (protonated)
C=c1c(=Cc2[n-]c(=O)[n-]c2[O-])cc(C)n1-c1ccc(CC/N=c2\cccc[n-]2)cc1 (cis-trans isomerization)
C=c1c(=Cc2[n-]c(=O)[n-]c2[O-])cc(C)n1-c1ccc(CC/N=c2\cccc[n-]2)cc1 (3D coordinates assigned)
C=c1c(=Cc2[n-]c(=O)[n-]c2[O-])cc(C)n1-c1ccc(CC/N=c2\cccc[n-]2)cc1 (optimized conformer: 126.98611677730635 kcal/mol)

>  <smiles>  (281) 
C=c1c(=Cc2[nH]c(=O)[nH]c2O)cc(C)n1-c1ccc(CCN=c2cccc[nH]2)cc1

>  <score_type>  (281) 
oracle

>  <origin>  (281) 
adg

>  <m_score__min__energy>  (281) 
-16.719999999999999

>  <m_primary>  (281) 
energy

$$$$
72:0
     RDKit          3D

 25 26  0  0  0  0  0  0  0  0999 V2000
   55.1390   29.4500   44.9060 N   0  0  0  0  0  0  0  0  0  0  0  0
   56.6670   29.7430   44.1550 S   0  0  0  0  0  0  0  0  0  0  0  0
   57.5590   28.5500   44.3450 O   0  0  0  0  0  0  0  0  0  0  0  0
   56.4560   29.9660   42.6830 O   0  0  0  0  0  0  0  0  0  0  0  0
   57.4160   31.1570   44.8890 C   0  0  0  0  0  0  0  0  0  0  0  0
   56.7520   32.3910   44.9150 C   0  0  0  0  0  0  0  0  0  0  0  0
   57.3440   33.4930   45.5360 C   0  0  0  0  0  0  0  0  0  0  0  0
   58.6010   33.3720   46.1300 C   0  0  0  0  0  0  0  0  0  0  0  0
   59.2870   32.1480   46.0920 C   0  0  0  0  0  0  0  0  0  0  0  0
   60.6440   32.0120   46.7340 C   0  0  0  0  0  0  0  0  0  0  0  0
   60.5460   31.7500   48.2390 C   0  0  0  0  0  0  0  0  0  0  0  0
   59.3030   31.1300   48.5710 O   0  0  0  0  0  0  0  0  0  0  0  0
   59.1460   29.7500   48.7530 C   0  0  0  0  0  0  0  0  0  0  0  0
   58.7190   29.2980   49.8510 O   0  0  0  0  0  0  0  0  0  0  0  0
   59.4290   28.8550   47.6130 C   0  0  0  0  0  0  0  0  0  0  0  0
   59.3330   27.5160   47.6200 C   0  0  0  0  0  0  0  0  0  0  0  0
   58.3810   26.7290   46.8160 C   0  0  0  0  0  0  0  0  0  0  0  0
   58.8180   25.5630   46.1740 C   0  0  0  0  0  0  0  0  0  0  0  0
   57.9180   24.7840   45.4410 C   0  0  0  0  0  0  0  0  0  0  0  0
   56.5690   25.1460   45.3650 C   0  0  0  0  0  0  0  0  0  0  0  0
   55.6930   24.3520   44.6250 O   0  0  0  0  0  0  0  0  0  0  0  0
   56.1190   26.2940   46.0360 C   0  0  0  0  0  0  0  0  0  0  0  0
   54.7770   26.6530   45.9950 O   0  0  0  0  0  0  0  0  0  0  0  0
   57.0220   27.0810   46.7590 C   0  0  0  0  0  0  0  0  0  0  0  0
   58.6850   31.0410   45.4710 C   0  0  0  0  0  0  0  0  0  0  0  0
  1  2  1  0
  2  3  2  0
  2  4  2  0
  2  5  1  0
  5  6  2  0
  6  7  1  0
  7  8  2  0
  8  9  1  0
  9 10  1  0
 10 11  1  0
 11 12  1  0
 12 13  1  0
 13 14  2  0
 13 15  1  0
 15 16  2  3
 16 17  1  0
 17 18  2  0
 18 19  1  0
 19 20  2  0
 20 21  1  0
 20 22  1  0
 22 23  1  0
 22 24  2  0
  9 25  2  0
 25  5  1  0
 24 17  1  0
M  CHG  2   1  -1  23  -1
M  END
>  <UniqueID>  (282) 
68

>  <SMILES>  (282) 
[NH-]S(=O)(=O)c1cccc(CCOC(=O)C=Cc2ccc(O)c([O-])c2)c1

>  <Energy>  (282) 
41.195042996531086

>  <Genealogy>  (282) 
[NH-]S(=O)(=O)c1cccc(CCOC(=O)C=Cc2ccc(O)c([O-])c2)c1 (protonated)
[NH-]S(=O)(=O)c1cccc(CCOC(=O)C=Cc2ccc(O)c([O-])c2)c1 (3D coordinates assigned)
[NH-]S(=O)(=O)c1cccc(CCOC(=O)C=Cc2ccc(O)c([O-])c2)c1 (optimized conformer: 41.195042996531086 kcal/mol)

>  <smiles>  (282) 
NS(=O)(=O)c1cccc(CCOC(=O)C=Cc2ccc(O)c(O)c2)c1

>  <score_type>  (282) 
oracle

>  <origin>  (282) 
adg

>  <m_score__min__energy>  (282) 
-14.390000000000001

>  <m_primary>  (282) 
energy

$$$$
26:0
     RDKit          3D

 24 26  0  0  0  0  0  0  0  0999 V2000
   57.4610   29.3270   54.2370 C   0  0  0  0  0  0  0  0  0  0  0  0
   56.5720   30.4130   53.1410 S   0  0  0  0  0  0  0  0  0  0  0  0
   56.6170   29.8310   51.7570 O   0  0  0  0  0  0  0  0  0  0  0  0
   57.2120   31.7730   53.1170 O   0  0  0  0  0  0  0  0  0  0  0  0
   54.9150   30.5470   53.6400 N   0  0  0  0  0  0  0  0  0  0  0  0
   54.0270   29.4180   53.7740 C   0  0  0  0  0  0  0  0  0  0  0  0
   54.5340   28.1040   53.7730 C   0  0  0  0  0  0  0  0  0  0  0  0
   53.6720   27.0020   53.8930 C   0  0  0  0  0  0  0  0  0  0  0  0
   54.1370   25.6750   53.8900 C   0  0  0  0  0  0  0  0  0  0  0  0
   55.3670   25.4190   53.7790 O   0  0  0  0  0  0  0  0  0  0  0  0
   53.2530   24.6500   54.0090 N   0  0  0  0  0  0  0  0  0  0  0  0
   51.9200   24.8800   54.1300 C   0  0  0  0  0  0  0  0  0  0  0  0
   51.4460   26.1520   54.1380 N   0  0  0  0  0  0  0  0  0  0  0  0
   52.2860   27.2140   54.0230 C   0  0  0  0  0  0  0  0  0  0  0  0
   51.7770   28.5130   54.0370 C   0  0  0  0  0  0  0  0  0  0  0  0
   52.6350   29.6150   53.9280 C   0  0  0  0  0  0  0  0  0  0  0  0
   51.9070   31.2590   53.9530 S   0  0  0  0  0  0  0  0  0  0  0  0
   51.6160   31.2590   52.1850 C   0  0  0  0  0  0  0  0  0  0  0  0
   51.9730   29.9850   51.1440 S   0  0  0  0  0  0  0  0  0  0  0  0
   51.4000   30.8250   49.8020 C   0  0  0  0  0  0  0  0  0  0  0  0
   51.3980   30.3680   48.6300 O   0  0  0  0  0  0  0  0  0  0  0  0
   50.9370   32.0540   50.1140 N   0  0  0  0  0  0  0  0  0  0  0  0
   51.0570   32.2950   51.4460 C   0  0  0  0  0  0  0  0  0  0  0  0
   50.6440   33.4940   52.0130 O   0  0  0  0  0  0  0  0  0  0  0  0
  1  2  1  0
  2  3  2  0
  2  4  2  0
  2  5  1  0
  5  6  1  0
  6  7  2  0
  7  8  1  0
  8  9  1  0
  9 10  2  0
  9 11  1  0
 11 12  2  0
 12 13  1  0
 13 14  1  0
 14 15  1  0
 15 16  2  0
 16 17  1  0
 17 18  1  0
 18 19  1  0
 19 20  1  0
 20 21  2  0
 20 22  1  0
 22 23  1  0
 23 24  1  0
 16  6  1  0
 23 18  2  0
 14  8  2  0
M  CHG  3  13  -1  22  -1  24  -1
M  END
>  <UniqueID>  (283) 
24

>  <SMILES>  (283) 
CS(=O)(=O)Nc1cc2c(=O)nc[n-]c2cc1Sc1sc(=O)[n-]c1[O-]

>  <Energy>  (283) 
65.98458214961138

>  <Genealogy>  (283) 
CS(=O)(=O)Nc1cc2c(=O)nc[n-]c2cc1Sc1sc(=O)[n-]c1[O-] (protonated)
CS(=O)(=O)Nc1cc2c(=O)nc[n-]c2cc1Sc1sc(=O)[n-]c1[O-] (3D coordinates assigned)
CS(=O)(=O)Nc1cc2c(=O)nc[n-]c2cc1Sc1sc(=O)[n-]c1[O-] (optimized conformer: 65.98458214961138 kcal/mol)

>  <smiles>  (283) 
CS(=O)(=O)Nc1cc2c(=O)nc[nH]c2cc1Sc1sc(=O)[nH]c1O

>  <score_type>  (283) 
oracle

>  <origin>  (283) 
adg

>  <m_score__min__energy>  (283) 
-15

>  <m_primary>  (283) 
energy

$$$$
42:0
     RDKit          3D

 30 34  0  0  0  0  0  0  0  0999 V2000
   57.7610   26.9870   44.9790 C   0  0  0  0  0  0  0  0  0  0  0  0
   57.1850   25.9550   45.8600 C   0  0  0  0  0  0  0  0  0  0  0  0
   57.8720   24.8790   46.2800 N   0  0  0  0  0  0  0  0  0  0  0  0
   56.9560   24.1760   46.9820 C   0  0  0  0  0  0  0  0  0  0  0  0
   57.2300   23.0890   47.5540 O   0  0  0  0  0  0  0  0  0  0  0  0
   55.7240   24.7250   47.0140 N   0  0  0  0  0  0  0  0  0  0  0  0
   55.8810   25.8450   46.2900 C   0  0  0  0  0  0  0  0  0  0  0  0
   54.8390   26.7140   45.9870 O   0  0  0  0  0  0  0  0  0  0  0  0
   57.5360   28.3000   45.1190 C   0  0  0  0  0  0  0  0  0  0  0  0
   56.5420   29.0950   44.5460 C   0  0  0  0  0  0  0  0  0  0  0  0
   56.6580   30.3680   44.9960 N   0  0  0  0  0  0  0  0  0  0  0  0
   57.6850   30.3960   45.8310 N   0  0  0  0  0  0  0  0  0  0  0  0
   58.1910   31.4490   46.5370 C   0  0  0  0  0  0  0  0  0  0  0  0
   57.7020   32.6540   46.4710 N   0  0  0  0  0  0  0  0  0  0  0  0
   57.3700   33.3920   45.2560 C   0  0  0  0  0  0  0  0  0  0  0  0
   58.3770   33.2180   44.1330 C   0  0  0  0  0  0  0  0  0  0  0  0
   58.3670   34.4960   44.9580 C   0  0  0  0  0  0  0  0  0  0  0  0
   59.2630   31.2150   47.3440 N   0  0  0  0  0  0  0  0  0  0  0  0
   59.8120   29.9670   47.4440 C   0  0  0  0  0  0  0  0  0  0  0  0
   60.8340   29.7850   48.2250 N   0  0  0  0  0  0  0  0  0  0  0  0
   61.1810   30.6670   49.3350 C   0  0  0  0  0  0  0  0  0  0  0  0
   62.0200   31.8020   48.8250 C   0  0  0  0  0  0  0  0  0  0  0  0
   62.6430   31.7120   47.5680 C   0  0  0  0  0  0  0  0  0  0  0  0
   63.3960   32.7840   47.0790 C   0  0  0  0  0  0  0  0  0  0  0  0
   63.5230   33.9540   47.8330 C   0  0  0  0  0  0  0  0  0  0  0  0
   62.8920   34.0570   49.0760 C   0  0  0  0  0  0  0  0  0  0  0  0
   63.0090   35.1950   49.8030 F   0  0  0  0  0  0  0  0  0  0  0  0
   62.1380   32.9870   49.5700 C   0  0  0  0  0  0  0  0  0  0  0  0
   59.2870   28.9300   46.7270 N   0  0  0  0  0  0  0  0  0  0  0  0
   58.2220   29.1770   45.9280 C   0  0  0  0  0  0  0  0  0  0  0  0
  1  2  1  0
  2  3  1  0
  3  4  1  0
  4  5  2  0
  4  6  1  0
  6  7  1  0
  7  8  1  0
  1  9  2  3
  9 10  1  0
 10 11  2  0
 11 12  1  0
 12 13  1  0
 13 14  2  0
 14 15  1  0
 15 16  1  0
 16 17  1  0
 13 18  1  0
 18 19  1  0
 19 20  2  3
 20 21  1  0
 21 22  1  0
 22 23  2  0
 23 24  1  0
 24 25  2  0
 25 26  1  0
 26 27  1  0
 26 28  2  0
 19 29  1  0
 29 30  2  0
  7  2  2  0
 30  9  1  0
 30 12  1  0
 17 15  1  0
 28 22  1  0
M  CHG  4   3  -1   6  -1   8  -1  18  -1
M  END
>  <UniqueID>  (284) 
39

>  <SMILES>  (284) 
O=c1[n-]c([O-])c(C=c2cnn3/c(=N\C4CC4)[n-]c(=NCc4cccc(F)c4)nc23)[n-]1

>  <Energy>  (284) 
388.0192515057896

>  <Genealogy>  (284) 
O=c1[n-]c([O-])c(C=c2cnn3c(=NC4CC4)[n-]c(=NCc4cccc(F)c4)nc23)[n-]1 (protonated)
O=c1[n-]c([O-])c(C=c2cnn3/c(=N\C4CC4)[n-]c(=NCc4cccc(F)c4)nc23)[n-]1 (cis-trans isomerization)
O=c1[n-]c([O-])c(C=c2cnn3/c(=N\C4CC4)[n-]c(=NCc4cccc(F)c4)nc23)[n-]1 (3D coordinates assigned)
O=c1[n-]c([O-])c(C=c2cnn3/c(=N\C4CC4)[n-]c(=NCc4cccc(F)c4)nc23)[n-]1 (nonaromatic ring conformer: 388.0192515057896 kcal/mol)

>  <smiles>  (284) 
O=c1[nH]c(O)c(C=c2cnn3c(=NC4CC4)[nH]c(=NCc4cccc(F)c4)nc23)[nH]1

>  <score_type>  (284) 
oracle

>  <origin>  (284) 
adg

>  <m_score__min__energy>  (284) 
-17.719999999999999

>  <m_primary>  (284) 
energy

$$$$
45:0
     RDKit          3D

 27 30  0  0  0  0  0  0  0  0999 V2000
   59.2260   29.4500   49.0100 C   0  0  0  0  0  0  0  0  0  0  0  0
   60.2930   28.8120   48.3170 O   0  0  0  0  0  0  0  0  0  0  0  0
   60.3680   27.4250   48.1660 C   0  0  0  0  0  0  0  0  0  0  0  0
   60.6200   26.6820   49.1530 O   0  0  0  0  0  0  0  0  0  0  0  0
   60.0960   26.8170   46.8270 C   0  0  0  0  0  0  0  0  0  0  0  0
   58.7910   27.3330   46.2810 C   0  0  0  0  0  0  0  0  0  0  0  0
   58.7360   28.6140   45.7120 C   0  0  0  0  0  0  0  0  0  0  0  0
   57.5340   29.1140   45.1940 C   0  0  0  0  0  0  0  0  0  0  0  0
   57.4920   30.4750   44.6400 C   0  0  0  0  0  0  0  0  0  0  0  0
   57.6380   30.6160   43.3980 O   0  0  0  0  0  0  0  0  0  0  0  0
   57.3150   31.6520   45.4460 N   0  0  0  0  0  0  0  0  0  0  0  0
   58.2960   32.5480   46.0730 C   0  0  1  0  0  0  0  0  0  0  0  0
   59.5890   31.7240   46.3080 C   0  0  0  0  0  0  0  0  0  0  0  0
   60.6780   32.6000   46.9610 C   0  0  2  0  0  0  0  0  0  0  0  0
   60.1640   33.1260   48.3180 C   0  0  0  0  0  0  0  0  0  0  0  0
   58.8860   33.9620   48.0950 C   0  0  1  0  0  0  0  0  0  0  0  0
   59.2070   35.1520   47.1630 C   0  0  0  0  0  0  0  0  0  0  0  0
   59.7250   34.6260   45.8050 C   0  0  1  0  0  0  0  0  0  0  0  0
   61.0010   33.7890   46.0320 C   0  0  0  0  0  0  0  0  0  0  0  0
   58.6380   33.7450   45.1460 C   0  0  0  0  0  0  0  0  0  0  0  0
   57.7960   33.0800   47.4430 C   0  0  0  0  0  0  0  0  0  0  0  0
   56.3560   28.3620   45.3250 C   0  0  0  0  0  0  0  0  0  0  0  0
   55.1460   28.8800   44.8700 O   0  0  0  0  0  0  0  0  0  0  0  0
   56.3960   27.0860   45.9110 C   0  0  0  0  0  0  0  0  0  0  0  0
   55.2380   26.3170   46.0340 O   0  0  0  0  0  0  0  0  0  0  0  0
   57.6110   26.5730   46.3860 C   0  0  0  0  0  0  0  0  0  0  0  0
   57.6370   25.3110   46.9710 O   0  0  0  0  0  0  0  0  0  0  0  0
  1  2  1  0
  2  3  1  0
  3  4  2  0
  3  5  1  0
  5  6  1  0
  6  7  2  0
  7  8  1  0
  8  9  1  0
  9 10  2  0
  9 11  1  0
 12 11  1  6
 12 13  1  0
 14 13  1  6
 14 15  1  0
 16 15  1  6
 16 17  1  0
 18 17  1  1
 18 19  1  0
 18 20  1  0
 16 21  1  0
  8 22  2  0
 22 23  1  0
 22 24  1  0
 24 25  1  0
 24 26  2  0
 26 27  1  0
 26  6  1  0
 20 12  1  0
 21 12  1  0
 19 14  1  0
M  CHG  3  11  -1  23  -1  27  -1
M  END
>  <UniqueID>  (285) 
42

>  <SMILES>  (285) 
COC(=O)Cc1cc(C(=O)[N-]C23CC4CC(CC(C4)C2)C3)c([O-])c(O)c1[O-]

>  <Energy>  (285) 
54.83900275425474

>  <Genealogy>  (285) 
COC(=O)Cc1cc(C(=O)[N-]C23CC4CC(CC(C4)C2)C3)c([O-])c(O)c1[O-] (protonated)
COC(=O)Cc1cc(C(=O)[N-]C23CC4CC(CC(C4)C2)C3)c([O-])c(O)c1[O-] (3D coordinates assigned)
COC(=O)Cc1cc(C(=O)[N-]C23CC4CC(CC(C4)C2)C3)c([O-])c(O)c1[O-] (nonaromatic ring conformer: 54.83900275425474 kcal/mol)

>  <smiles>  (285) 
COC(=O)Cc1cc(C(=O)NC23CC4CC(CC(C4)C2)C3)c(O)c(O)c1O

>  <score_type>  (285) 
oracle

>  <origin>  (285) 
adg

>  <m_score__min__energy>  (285) 
-15.56

>  <m_primary>  (285) 
energy

$$$$
57:0
     RDKit          3D

 29 31  0  0  0  0  0  0  0  0999 V2000
   56.2490   24.9350   47.5320 N   0  0  0  0  0  0  0  0  0  0  0  0
   57.0780   25.7690   46.7160 C   0  0  0  0  0  0  0  0  0  0  0  0
   58.4700   25.6930   46.8290 C   0  0  0  0  0  0  0  0  0  0  0  0
   59.2770   26.4970   46.0290 C   0  0  0  0  0  0  0  0  0  0  0  0
   58.6860   27.3880   45.1280 C   0  0  0  0  0  0  0  0  0  0  0  0
   59.4180   28.1120   44.4020 O   0  0  0  0  0  0  0  0  0  0  0  0
   57.3250   27.4810   45.0410 N   0  0  0  0  0  0  0  0  0  0  0  0
   56.7820   28.3710   44.1300 O   0  0  0  0  0  0  0  0  0  0  0  0
   56.2990   29.6340   44.4980 C   0  0  0  0  0  0  0  0  0  0  0  0
   55.2260   29.7280   45.1550 O   0  0  0  0  0  0  0  0  0  0  0  0
   57.0630   30.8500   44.1450 C   0  0  0  0  0  0  0  0  0  0  0  0
   57.3080   31.1760   42.7980 C   0  0  0  0  0  0  0  0  0  0  0  0
   58.0290   32.3270   42.4690 C   0  0  0  0  0  0  0  0  0  0  0  0
   58.5130   33.1630   43.4770 C   0  0  0  0  0  0  0  0  0  0  0  0
   58.2810   32.8510   44.8230 C   0  0  0  0  0  0  0  0  0  0  0  0
   58.9040   33.8850   46.1070 S   0  0  0  0  0  0  0  0  0  0  0  0
   57.7650   34.2800   47.0040 O   0  0  0  0  0  0  0  0  0  0  0  0
   59.5280   35.1310   45.5400 O   0  0  0  0  0  0  0  0  0  0  0  0
   60.0870   33.0200   47.0370 N   0  0  0  0  0  0  0  0  0  0  0  0
   59.9860   31.6440   47.4320 C   0  0  0  0  0  0  0  0  0  0  0  0
   60.7750   30.6370   46.8430 C   0  0  0  0  0  0  0  0  0  0  0  0
   60.6240   29.3030   47.2390 C   0  0  0  0  0  0  0  0  0  0  0  0
   59.7030   28.9660   48.2320 C   0  0  0  0  0  0  0  0  0  0  0  0
   58.9270   29.9620   48.8320 C   0  0  0  0  0  0  0  0  0  0  0  0
   59.0630   31.2950   48.4290 C   0  0  0  0  0  0  0  0  0  0  0  0
   58.2820   32.2480   49.0010 F   0  0  0  0  0  0  0  0  0  0  0  0
   57.5560   31.6960   45.1540 C   0  0  0  0  0  0  0  0  0  0  0  0
   56.5180   26.6660   45.7910 C   0  0  0  0  0  0  0  0  0  0  0  0
   55.1360   26.7080   45.6230 O   0  0  0  0  0  0  0  0  0  0  0  0
  1  2  1  0
  2  3  1  0
  3  4  2  0
  4  5  1  0
  5  6  2  0
  5  7  1  0
  7  8  1  0
  8  9  1  0
  9 10  2  0
  9 11  1  0
 11 12  2  0
 12 13  1  0
 13 14  2  0
 14 15  1  0
 15 16  1  0
 16 17  2  0
 16 18  2  0
 16 19  1  0
 19 20  1  0
 20 21  2  0
 21 22  1  0
 22 23  2  0
 23 24  1  0
 24 25  2  0
 25 26  1  0
 15 27  2  0
  7 28  1  0
 28 29  1  0
 28  2  2  0
 27 11  1  0
 25 20  1  0
M  CHG  2  19  -1  29  -1
M  END
>  <UniqueID>  (286) 
53

>  <SMILES>  (286) 
Nc1ccc(=O)n(OC(=O)c2cccc(S(=O)(=O)[N-]c3ccccc3F)c2)c1[O-]

>  <Energy>  (286) 
55.18947606121316

>  <Genealogy>  (286) 
Nc1ccc(=O)n(OC(=O)c2cccc(S(=O)(=O)[N-]c3ccccc3F)c2)c1[O-] (protonated)
Nc1ccc(=O)n(OC(=O)c2cccc(S(=O)(=O)[N-]c3ccccc3F)c2)c1[O-] (3D coordinates assigned)
Nc1ccc(=O)n(OC(=O)c2cccc(S(=O)(=O)[N-]c3ccccc3F)c2)c1[O-] (optimized conformer: 55.18947606121316 kcal/mol)

>  <smiles>  (286) 
Nc1ccc(=O)n(OC(=O)c2cccc(S(=O)(=O)Nc3ccccc3F)c2)c1O

>  <score_type>  (286) 
oracle

>  <origin>  (286) 
adg

>  <m_score__min__energy>  (286) 
-14.119999999999999

>  <m_primary>  (286) 
energy

$$$$
16:0
     RDKit          3D

 31 33  0  0  0  0  0  0  0  0999 V2000
   57.7640   30.0770   46.4100 O   0  0  0  0  0  0  0  0  0  0  0  0
   57.0490   29.9640   45.3810 C   0  0  0  0  0  0  0  0  0  0  0  0
   57.0200   31.0460   44.4420 N   0  0  0  0  0  0  0  0  0  0  0  0
   57.8560   32.2390   44.5190 C   0  0  0  0  0  0  0  0  0  0  0  0
   57.4090   33.1240   45.6830 C   0  0  0  0  0  0  0  0  0  0  0  0
   58.5220   33.3320   46.6770 C   0  0  0  0  0  0  0  0  0  0  0  0
   59.6710   34.0550   46.3100 C   0  0  0  0  0  0  0  0  0  0  0  0
   60.7180   34.2230   47.2220 C   0  0  0  0  0  0  0  0  0  0  0  0
   60.6300   33.6650   48.5010 C   0  0  0  0  0  0  0  0  0  0  0  0
   59.4960   32.9350   48.8690 C   0  0  0  0  0  0  0  0  0  0  0  0
   58.4470   32.7640   47.9600 C   0  0  0  0  0  0  0  0  0  0  0  0
   56.2620   28.7300   45.1840 C   0  0  0  0  0  0  0  0  0  0  0  0
   55.1930   28.7730   44.5170 O   0  0  0  0  0  0  0  0  0  0  0  0
   56.7270   27.4310   45.7150 C   0  0  0  0  0  0  0  0  0  0  0  0
   55.9100   26.3760   46.0720 C   0  0  0  0  0  0  0  0  0  0  0  0
   54.5230   26.3410   45.9730 O   0  0  0  0  0  0  0  0  0  0  0  0
   56.7220   25.3640   46.5450 C   0  0  0  0  0  0  0  0  0  0  0  0
   56.3070   24.0490   47.0560 C   0  0  0  0  0  0  0  0  0  0  0  0
   55.0860   23.7420   47.1090 O   0  0  0  0  0  0  0  0  0  0  0  0
   57.2610   23.1350   47.4810 O   0  0  0  0  0  0  0  0  0  0  0  0
   58.0160   25.8430   46.4720 C   0  0  0  0  0  0  0  0  0  0  0  0
   58.0180   27.0940   45.9590 N   0  0  0  0  0  0  0  0  0  0  0  0
   59.1690   27.9520   45.9050 C   0  0  0  0  0  0  0  0  0  0  0  0
   59.6770   28.3240   44.6490 C   0  0  0  0  0  0  0  0  0  0  0  0
   60.7600   29.1960   44.5490 C   0  0  0  0  0  0  0  0  0  0  0  0
   61.3410   29.7190   45.7030 C   0  0  0  0  0  0  0  0  0  0  0  0
   60.8500   29.3620   46.9600 C   0  0  0  0  0  0  0  0  0  0  0  0
   59.7700   28.4680   47.0840 C   0  0  0  0  0  0  0  0  0  0  0  0
   59.3320   28.0650   48.4430 C   0  0  0  0  0  0  0  0  0  0  0  0
   59.7130   26.9770   48.9510 O   0  0  0  0  0  0  0  0  0  0  0  0
   58.5230   28.9090   49.1950 O   0  0  0  0  0  0  0  0  0  0  0  0
  1  2  2  0
  2  3  1  0
  3  4  1  0
  4  5  1  0
  5  6  1  0
  6  7  2  0
  7  8  1  0
  8  9  2  0
  9 10  1  0
 10 11  2  0
  2 12  1  0
 12 13  2  0
 12 14  1  0
 14 15  2  0
 15 16  1  0
 15 17  1  0
 17 18  1  0
 18 19  2  0
 18 20  1  0
 17 21  2  0
 21 22  1  0
 22 23  1  0
 23 24  2  0
 24 25  1  0
 25 26  2  0
 26 27  1  0
 27 28  2  0
 28 29  1  0
 29 30  2  0
 29 31  1  0
 11  6  1  0
 22 14  1  0
 28 23  1  0
M  CHG  4   3  -1  16  -1  20  -1  31  -1
M  END
>  <UniqueID>  (287) 
17

>  <SMILES>  (287) 
O=C([N-]CCc1ccccc1)C(=O)c1c([O-])c(C(=O)[O-])cn1-c1ccccc1C(=O)[O-]

>  <Energy>  (287) 
85.22911798158015

>  <Genealogy>  (287) 
O=C([N-]CCc1ccccc1)C(=O)c1c([O-])c(C(=O)[O-])cn1-c1ccccc1C(=O)[O-] (protonated)
O=C([N-]CCc1ccccc1)C(=O)c1c([O-])c(C(=O)[O-])cn1-c1ccccc1C(=O)[O-] (3D coordinates assigned)
O=C([N-]CCc1ccccc1)C(=O)c1c([O-])c(C(=O)[O-])cn1-c1ccccc1C(=O)[O-] (optimized conformer: 85.22911798158015 kcal/mol)

>  <smiles>  (287) 
O=C(NCCc1ccccc1)C(=O)c1c(O)c(C(=O)O)cn1-c1ccccc1C(=O)O

>  <score_type>  (287) 
oracle

>  <origin>  (287) 
adg

>  <m_score__min__energy>  (287) 
-14.52

>  <m_primary>  (287) 
energy

$$$$
18:0
     RDKit          3D

 31 33  0  0  0  0  0  0  0  0999 V2000
   57.4730   21.5290   43.6630 C   0  0  0  0  0  0  0  0  0  0  0  0
   56.1940   22.1290   43.8360 O   0  0  0  0  0  0  0  0  0  0  0  0
   55.9210   23.2860   44.5840 C   0  0  0  0  0  0  0  0  0  0  0  0
   57.0210   24.0200   45.0480 C   0  0  0  0  0  0  0  0  0  0  0  0
   56.8490   25.2310   45.7410 C   0  0  0  0  0  0  0  0  0  0  0  0
   58.0400   26.0210   46.2360 C   0  0  0  0  0  0  0  0  0  0  0  0
   59.4020   25.4620   45.7830 C   0  0  0  0  0  0  0  0  0  0  0  0
   60.6160   25.9310   46.6140 C   0  0  0  0  0  0  0  0  0  0  0  0
   60.4390   27.2810   47.2100 N   0  0  0  0  0  0  0  0  0  0  0  0
   60.2660   28.4050   46.4260 C   0  0  0  0  0  0  0  0  0  0  0  0
   60.3900   28.3380   44.9130 C   0  0  0  0  0  0  0  0  0  0  0  0
   59.9170   29.6330   47.0350 C   0  0  0  0  0  0  0  0  0  0  0  0
   59.4950   30.8110   46.2290 C   0  0  0  0  0  0  0  0  0  0  0  0
   60.1290   31.8910   46.3830 O   0  0  0  0  0  0  0  0  0  0  0  0
   58.3640   30.7600   45.2630 C   0  0  0  0  0  0  0  0  0  0  0  0
   58.3650   31.5400   44.0910 C   0  0  0  0  0  0  0  0  0  0  0  0
   57.3040   31.4660   43.1840 C   0  0  0  0  0  0  0  0  0  0  0  0
   56.2300   30.6110   43.4320 C   0  0  0  0  0  0  0  0  0  0  0  0
   56.2130   29.8270   44.5890 C   0  0  0  0  0  0  0  0  0  0  0  0
   55.1430   28.9760   44.8330 O   0  0  0  0  0  0  0  0  0  0  0  0
   57.2730   29.8990   45.4990 C   0  0  0  0  0  0  0  0  0  0  0  0
   59.8760   29.6990   48.4320 C   0  0  0  0  0  0  0  0  0  0  0  0
   59.5410   30.7790   48.9950 O   0  0  0  0  0  0  0  0  0  0  0  0
   60.1720   28.5990   49.1850 N   0  0  0  0  0  0  0  0  0  0  0  0
   60.1670   28.6940   50.6560 C   0  0  0  0  0  0  0  0  0  0  0  0
   60.3680   27.3860   48.5800 C   0  0  0  0  0  0  0  0  0  0  0  0
   60.4700   26.3500   49.2960 O   0  0  0  0  0  0  0  0  0  0  0  0
   55.5500   25.6600   46.0440 C   0  0  0  0  0  0  0  0  0  0  0  0
   54.4450   24.9200   45.6230 C   0  0  0  0  0  0  0  0  0  0  0  0
   54.6170   23.7430   44.8890 C   0  0  0  0  0  0  0  0  0  0  0  0
   53.4860   23.0480   44.4820 O   0  0  0  0  0  0  0  0  0  0  0  0
  1  2  1  0
  2  3  1  0
  3  4  2  0
  4  5  1  0
  5  6  1  0
  6  7  1  0
  7  8  1  0
  8  9  1  0
  9 10  1  0
 10 11  1  0
 10 12  2  0
 12 13  1  0
 13 14  2  0
 13 15  1  0
 15 16  2  0
 16 17  1  0
 17 18  2  0
 18 19  1  0
 19 20  1  0
 19 21  2  0
 12 22  1  0
 22 23  2  0
 22 24  1  0
 24 25  1  0
 24 26  1  0
 26 27  2  0
  5 28  2  0
 28 29  1  0
 29 30  2  0
 30 31  1  0
 30  3  1  0
 26  9  1  0
 21 15  1  0
M  CHG  2  20  -1  31  -1
M  END
>  <UniqueID>  (288) 
19

>  <SMILES>  (288) 
COc1cc(CCCn2c(C)c(C(=O)c3cccc([O-])c3)c(=O)n(C)c2=O)ccc1[O-]

>  <Energy>  (288) 
72.17425911926036

>  <Genealogy>  (288) 
COc1cc(CCCn2c(C)c(C(=O)c3cccc([O-])c3)c(=O)n(C)c2=O)ccc1[O-] (protonated)
COc1cc(CCCn2c(C)c(C(=O)c3cccc([O-])c3)c(=O)n(C)c2=O)ccc1[O-] (3D coordinates assigned)
COc1cc(CCCn2c(C)c(C(=O)c3cccc([O-])c3)c(=O)n(C)c2=O)ccc1[O-] (optimized conformer: 72.17425911926036 kcal/mol)

>  <smiles>  (288) 
COc1cc(CCCn2c(C)c(C(=O)c3cccc(O)c3)c(=O)n(C)c2=O)ccc1O

>  <score_type>  (288) 
oracle

>  <origin>  (288) 
adg

>  <m_score__min__energy>  (288) 
-14.81

>  <m_primary>  (288) 
energy

$$$$
40:0
     RDKit          3D

 31 34  0  0  0  0  0  0  0  0999 V2000
   51.1090   32.7510   51.6150 N   0  0  0  0  0  0  0  0  0  0  0  0
   51.4850   31.0650   51.6370 S   0  0  0  0  0  0  0  0  0  0  0  0
   51.4270   30.5220   50.2370 O   0  0  0  0  0  0  0  0  0  0  0  0
   50.4750   30.3360   52.4780 O   0  0  0  0  0  0  0  0  0  0  0  0
   53.0970   30.8300   52.3060 C   0  0  0  0  0  0  0  0  0  0  0  0
   53.2570   30.2740   53.5820 C   0  0  0  0  0  0  0  0  0  0  0  0
   54.5380   30.0670   54.0990 C   0  0  0  0  0  0  0  0  0  0  0  0
   55.6650   30.4170   53.3490 C   0  0  0  0  0  0  0  0  0  0  0  0
   55.5160   30.9910   52.0740 C   0  0  0  0  0  0  0  0  0  0  0  0
   56.6560   31.3290   51.2660 N   0  0  0  0  0  0  0  0  0  0  0  0
   57.7960   30.4680   51.0840 C   0  0  0  0  0  0  0  0  0  0  0  0
   57.8710   29.3770   51.7130 O   0  0  0  0  0  0  0  0  0  0  0  0
   58.8960   30.8410   50.1650 C   0  0  0  0  0  0  0  0  0  0  0  0
   60.2160   30.8980   50.6430 C   0  0  0  0  0  0  0  0  0  0  0  0
   61.2650   31.2400   49.7860 C   0  0  0  0  0  0  0  0  0  0  0  0
   61.0100   31.5310   48.4460 C   0  0  0  0  0  0  0  0  0  0  0  0
   59.6990   31.4850   47.9470 C   0  0  0  0  0  0  0  0  0  0  0  0
   59.4280   31.8040   46.4970 C   0  0  0  0  0  0  0  0  0  0  0  0
   58.3040   30.9550   45.9570 C   0  0  0  0  0  0  0  0  0  0  0  0
   57.2550   31.5870   45.3660 N   0  0  0  0  0  0  0  0  0  0  0  0
   56.2270   30.9200   44.8420 N   0  0  0  0  0  0  0  0  0  0  0  0
   56.1750   29.5650   44.8610 C   0  0  0  0  0  0  0  0  0  0  0  0
   55.1780   28.9770   44.3650 O   0  0  0  0  0  0  0  0  0  0  0  0
   57.2310   28.8420   45.4340 C   0  0  0  0  0  0  0  0  0  0  0  0
   58.3120   29.5410   45.9950 C   0  0  0  0  0  0  0  0  0  0  0  0
   59.3970   28.7220   46.6580 C   0  0  0  0  0  0  0  0  0  0  0  0
   59.7990   27.5370   45.7670 C   0  0  0  0  0  0  0  0  0  0  0  0
   58.6010   26.7520   45.1730 C   0  0  0  0  0  0  0  0  0  0  0  0
   57.2210   27.3350   45.5210 C   0  0  0  0  0  0  0  0  0  0  0  0
   58.6440   31.1600   48.8180 C   0  0  0  0  0  0  0  0  0  0  0  0
   54.2270   31.1720   51.5510 C   0  0  0  0  0  0  0  0  0  0  0  0
  1  2  1  0
  2  3  2  0
  2  4  2  0
  2  5  1  0
  5  6  2  0
  6  7  1  0
  7  8  2  0
  8  9  1  0
  9 10  1  0
 10 11  1  0
 11 12  2  0
 11 13  1  0
 13 14  2  0
 14 15  1  0
 15 16  2  0
 16 17  1  0
 17 18  1  0
 18 19  1  0
 19 20  2  0
 20 21  1  0
 21 22  1  0
 22 23  2  0
 22 24  1  0
 24 25  2  0
 25 26  1  0
 26 27  1  0
 27 28  1  0
 28 29  1  0
 17 30  2  0
  9 31  2  0
 31  5  1  0
 30 13  1  0
 25 19  1  0
 29 24  1  0
M  CHG  2   1  -1  21  -1
M  END
>  <UniqueID>  (289) 
38

>  <SMILES>  (289) 
[NH-]S(=O)(=O)c1cccc(NC(=O)c2cccc(Cc3n[n-]c(=O)c4c3CCCC4)c2)c1

>  <Energy>  (289) 
68.47045715428011

>  <Genealogy>  (289) 
[NH-]S(=O)(=O)c1cccc(NC(=O)c2cccc(Cc3n[n-]c(=O)c4c3CCCC4)c2)c1 (protonated)
[NH-]S(=O)(=O)c1cccc(NC(=O)c2cccc(Cc3n[n-]c(=O)c4c3CCCC4)c2)c1 (3D coordinates assigned)
[NH-]S(=O)(=O)c1cccc(NC(=O)c2cccc(Cc3n[n-]c(=O)c4c3CCCC4)c2)c1 (nonaromatic ring conformer: 68.47045715428011 kcal/mol)

>  <smiles>  (289) 
NS(=O)(=O)c1cccc(NC(=O)c2cccc(Cc3n[nH]c(=O)c4c3CCCC4)c2)c1

>  <score_type>  (289) 
oracle

>  <origin>  (289) 
adg

>  <m_score__min__energy>  (289) 
-15.32

>  <m_primary>  (289) 
energy

$$$$
10:0
     RDKit          3D

 28 30  0  0  0  0  0  0  0  0999 V2000
   54.7500   23.3420   44.9390 C   0  0  0  0  0  0  0  0  0  0  0  0
   55.1950   24.7080   45.3470 C   0  0  0  0  0  0  0  0  0  0  0  0
   54.3720   25.6470   45.8640 N   0  0  0  0  0  0  0  0  0  0  0  0
   55.0950   26.7080   46.0850 O   0  0  0  0  0  0  0  0  0  0  0  0
   56.3440   26.4980   45.7390 C   0  0  0  0  0  0  0  0  0  0  0  0
   57.2920   27.3790   45.8190 N   0  0  0  0  0  0  0  0  0  0  0  0
   58.8420   27.0140   46.5000 S   0  0  0  0  0  0  0  0  0  0  0  0
   59.8690   27.0270   45.4040 O   0  0  0  0  0  0  0  0  0  0  0  0
   58.7870   25.6400   47.1100 O   0  0  0  0  0  0  0  0  0  0  0  0
   59.2860   28.2130   47.7230 C   0  0  0  0  0  0  0  0  0  0  0  0
   60.1300   27.8320   48.7790 C   0  0  0  0  0  0  0  0  0  0  0  0
   60.5310   28.7640   49.7380 C   0  0  0  0  0  0  0  0  0  0  0  0
   60.0870   30.0840   49.6600 C   0  0  0  0  0  0  0  0  0  0  0  0
   59.2350   30.4740   48.6260 C   0  0  0  0  0  0  0  0  0  0  0  0
   58.8260   29.5480   47.6480 C   0  0  0  0  0  0  0  0  0  0  0  0
   57.9040   29.9560   46.6210 N   0  0  0  0  0  0  0  0  0  0  0  0
   58.0830   31.1380   45.8210 C   0  0  0  0  0  0  0  0  0  0  0  0
   58.7900   32.2360   46.3440 C   0  0  0  0  0  0  0  0  0  0  0  0
   59.0030   33.3780   45.5710 C   0  0  0  0  0  0  0  0  0  0  0  0
   58.5200   33.4370   44.2650 C   0  0  0  0  0  0  0  0  0  0  0  0
   57.8220   32.3540   43.7270 C   0  0  0  0  0  0  0  0  0  0  0  0
   57.5960   31.1980   44.4920 C   0  0  0  0  0  0  0  0  0  0  0  0
   56.6770   29.8590   43.7900 S   0  0  0  0  0  0  0  0  0  0  0  0
   55.4350   29.3310   44.8720 N   0  0  0  0  0  0  0  0  0  0  0  0
   56.0470   30.3040   42.5000 O   0  0  0  0  0  0  0  0  0  0  0  0
   57.6000   28.7030   43.5270 O   0  0  0  0  0  0  0  0  0  0  0  0
   56.4800   25.2120   45.2700 C   0  0  0  0  0  0  0  0  0  0  0  0
   57.6940   24.5670   44.6780 C   0  0  0  0  0  0  0  0  0  0  0  0
  1  2  1  0
  2  3  1  0
  3  4  1  0
  4  5  1  0
  5  6  2  3
  6  7  1  0
  7  8  2  0
  7  9  2  0
  7 10  1  0
 10 11  2  0
 11 12  1  0
 12 13  2  0
 13 14  1  0
 14 15  2  0
 15 16  1  0
 16 17  1  0
 17 18  2  0
 18 19  1  0
 19 20  2  0
 20 21  1  0
 21 22  2  0
 22 23  1  0
 23 24  1  0
 23 25  2  0
 23 26  2  0
  5 27  1  0
 27 28  1  0
 27  2  2  0
 15 10  1  0
 22 17  1  0
M  CHG  2   3  -1  24  -1
M  END
>  <UniqueID>  (290) 
11

>  <SMILES>  (290) 
Cc1[n-]oc(=NS(=O)(=O)c2ccccc2Nc2ccccc2S([NH-])(=O)=O)c1C

>  <Energy>  (290) 
87.00390690177554

>  <Genealogy>  (290) 
Cc1[n-]oc(=NS(=O)(=O)c2ccccc2Nc2ccccc2S([NH-])(=O)=O)c1C (protonated)
Cc1[n-]oc(=NS(=O)(=O)c2ccccc2Nc2ccccc2S([NH-])(=O)=O)c1C (3D coordinates assigned)
Cc1[n-]oc(=NS(=O)(=O)c2ccccc2Nc2ccccc2S([NH-])(=O)=O)c1C (optimized conformer: 87.00390690177554 kcal/mol)

>  <smiles>  (290) 
Cc1[nH]oc(=NS(=O)(=O)c2ccccc2Nc2ccccc2S(N)(=O)=O)c1C

>  <score_type>  (290) 
oracle

>  <origin>  (290) 
adg

>  <m_score__min__energy>  (290) 
-14.66

>  <m_primary>  (290) 
energy

$$$$
26:0
     RDKit          3D

 30 33  0  0  0  0  0  0  0  0999 V2000
   59.9510   33.9630   48.3310 O   0  0  0  0  0  0  0  0  0  0  0  0
   60.0950   32.9030   47.6620 C   0  0  0  0  0  0  0  0  0  0  0  0
   61.1690   32.0000   47.9800 N   0  0  0  0  0  0  0  0  0  0  0  0
   62.3560   32.3920   48.6880 C   0  0  0  0  0  0  0  0  0  0  0  0
   62.5270   31.9930   50.0180 C   0  0  0  0  0  0  0  0  0  0  0  0
   63.6810   32.3420   50.7250 C   0  0  0  0  0  0  0  0  0  0  0  0
   64.7110   33.0970   50.1160 C   0  0  0  0  0  0  0  0  0  0  0  0
   65.9180   33.4680   50.8550 N   0  0  0  0  0  0  0  0  0  0  0  0
   65.8390   34.5270   51.8830 C   0  0  0  0  0  0  0  0  0  0  0  0
   67.1550   34.7500   52.6340 C   0  0  0  0  0  0  0  0  0  0  0  0
   68.2570   34.6420   51.7640 O   0  0  0  0  0  0  0  0  0  0  0  0
   68.3780   33.2960   51.3680 C   0  0  0  0  0  0  0  0  0  0  0  0
   67.2170   32.8850   50.4580 C   0  0  0  0  0  0  0  0  0  0  0  0
   64.5360   33.4670   48.7620 C   0  0  0  0  0  0  0  0  0  0  0  0
   63.3790   33.1160   48.0600 C   0  0  0  0  0  0  0  0  0  0  0  0
   59.1230   32.5800   46.5890 C   0  0  0  0  0  0  0  0  0  0  0  0
   58.0970   33.4820   46.2490 C   0  0  0  0  0  0  0  0  0  0  0  0
   57.1870   33.1700   45.2360 C   0  0  0  0  0  0  0  0  0  0  0  0
   57.2830   31.9540   44.5550 C   0  0  0  0  0  0  0  0  0  0  0  0
   58.2830   31.0320   44.8950 C   0  0  0  0  0  0  0  0  0  0  0  0
   58.4060   29.7370   44.1380 C   0  0  0  0  0  0  0  0  0  0  0  0
   57.9900   28.5890   45.0100 C   0  0  0  0  0  0  0  0  0  0  0  0
   56.6520   28.1830   45.0760 C   0  0  0  0  0  0  0  0  0  0  0  0
   56.3000   27.1370   45.9260 C   0  0  0  0  0  0  0  0  0  0  0  0
   54.9770   26.7150   46.0030 O   0  0  0  0  0  0  0  0  0  0  0  0
   57.2900   26.5240   46.6950 C   0  0  0  0  0  0  0  0  0  0  0  0
   57.0040   25.5750   47.4720 O   0  0  0  0  0  0  0  0  0  0  0  0
   58.5740   26.9600   46.6040 N   0  0  0  0  0  0  0  0  0  0  0  0
   58.9120   27.9630   45.7910 N   0  0  0  0  0  0  0  0  0  0  0  0
   59.2040   31.3520   45.9060 C   0  0  0  0  0  0  0  0  0  0  0  0
  1  2  2  0
  2  3  1  0
  3  4  1  0
  4  5  2  0
  5  6  1  0
  6  7  2  0
  7  8  1  0
  8  9  1  0
  9 10  1  0
 10 11  1  0
 11 12  1  0
 12 13  1  0
  7 14  1  0
 14 15  2  0
  2 16  1  0
 16 17  2  0
 17 18  1  0
 18 19  2  0
 19 20  1  0
 20 21  1  0
 21 22  1  0
 22 23  1  0
 23 24  2  0
 24 25  1  0
 24 26  1  0
 26 27  2  0
 26 28  1  0
 28 29  1  0
 20 30  2  0
 15  4  1  0
 30 16  1  0
 13  8  1  0
 29 22  2  0
M  CHG  2  25  -1  28  -1
M  END
>  <UniqueID>  (291) 
27

>  <SMILES>  (291) 
O=C(Nc1ccc(N2CCOCC2)cc1)c1cccc(Cc2cc([O-])c(=O)[n-]n2)c1

>  <Energy>  (291) 
67.24855788143493

>  <Genealogy>  (291) 
O=C(Nc1ccc(N2CCOCC2)cc1)c1cccc(Cc2cc([O-])c(=O)[n-]n2)c1 (protonated)
O=C(Nc1ccc(N2CCOCC2)cc1)c1cccc(Cc2cc([O-])c(=O)[n-]n2)c1 (3D coordinates assigned)
O=C(Nc1ccc(N2CCOCC2)cc1)c1cccc(Cc2cc([O-])c(=O)[n-]n2)c1 (nonaromatic ring conformer: 67.24855788143493 kcal/mol)

>  <smiles>  (291) 
O=C(Nc1ccc(N2CCOCC2)cc1)c1cccc(Cc2cc(O)c(=O)[nH]n2)c1

>  <score_type>  (291) 
oracle

>  <origin>  (291) 
adg

>  <m_score__min__energy>  (291) 
-14.75

>  <m_primary>  (291) 
energy

$$$$
43:0
     RDKit          3D

 24 26  0  0  0  0  0  0  0  0999 V2000
   57.2970   25.5350   44.0980 O   0  0  0  0  0  0  0  0  0  0  0  0
   57.1820   25.4880   45.3520 C   0  0  0  0  0  0  0  0  0  0  0  0
   56.6180   24.2630   45.9960 C   0  0  0  0  0  0  0  0  0  0  0  0
   55.2230   24.0880   45.5940 N   0  0  0  0  0  0  0  0  0  0  0  0
   54.2430   25.0040   45.6140 C   0  0  0  0  0  0  0  0  0  0  0  0
   54.4110   26.3360   45.9760 O   0  0  0  0  0  0  0  0  0  0  0  0
   53.0580   24.4150   45.2360 C   0  0  0  0  0  0  0  0  0  0  0  0
   53.2810   23.1060   44.9860 N   0  0  0  0  0  0  0  0  0  0  0  0
   54.6020   22.9500   45.2210 C   0  0  0  0  0  0  0  0  0  0  0  0
   55.1910   21.8420   45.1090 O   0  0  0  0  0  0  0  0  0  0  0  0
   57.6830   26.5480   46.1770 N   0  0  0  0  0  0  0  0  0  0  0  0
   57.7700   27.9370   45.8270 C   0  0  0  0  0  0  0  0  0  0  0  0
   58.9390   28.6900   46.0430 C   0  0  0  0  0  0  0  0  0  0  0  0
   58.9880   30.0360   45.6670 C   0  0  0  0  0  0  0  0  0  0  0  0
   57.8810   30.6410   45.0470 C   0  0  0  0  0  0  0  0  0  0  0  0
   57.8870   31.9930   44.6730 O   0  0  0  0  0  0  0  0  0  0  0  0
   58.4080   33.0460   45.4370 C   0  0  0  0  0  0  0  0  0  0  0  0
   58.3820   33.0290   46.8450 C   0  0  0  0  0  0  0  0  0  0  0  0
   58.9290   34.0920   47.5710 C   0  0  0  0  0  0  0  0  0  0  0  0
   59.5140   35.1710   46.9010 C   0  0  0  0  0  0  0  0  0  0  0  0
   59.5600   35.1840   45.5050 C   0  0  0  0  0  0  0  0  0  0  0  0
   59.0150   34.1220   44.7760 C   0  0  0  0  0  0  0  0  0  0  0  0
   56.7220   29.8880   44.8330 C   0  0  0  0  0  0  0  0  0  0  0  0
   56.6720   28.5420   45.2070 C   0  0  0  0  0  0  0  0  0  0  0  0
  1  2  2  0
  2  3  1  0
  3  4  1  0
  4  5  1  0
  5  6  1  0
  5  7  2  0
  7  8  1  0
  8  9  1  0
  9 10  2  0
  2 11  1  0
 11 12  1  0
 12 13  2  0
 13 14  1  0
 14 15  2  0
 15 16  1  0
 16 17  1  0
 17 18  2  0
 18 19  1  0
 19 20  2  0
 20 21  1  0
 21 22  2  0
 15 23  1  0
 23 24  2  0
  9  4  1  0
 24 12  1  0
 22 17  1  0
M  CHG  3   6  -1   8  -1  11  -1
M  END
>  <UniqueID>  (292) 
42

>  <SMILES>  (292) 
O=C(Cn1c([O-])c[n-]c1=O)[N-]c1ccc(Oc2ccccc2)cc1

>  <Energy>  (292) 
78.74440827808193

>  <Genealogy>  (292) 
O=C(Cn1c([O-])c[n-]c1=O)[N-]c1ccc(Oc2ccccc2)cc1 (protonated)
O=C(Cn1c([O-])c[n-]c1=O)[N-]c1ccc(Oc2ccccc2)cc1 (3D coordinates assigned)
O=C(Cn1c([O-])c[n-]c1=O)[N-]c1ccc(Oc2ccccc2)cc1 (optimized conformer: 78.74440827808193 kcal/mol)

>  <smiles>  (292) 
O=C(Cn1c(O)c[nH]c1=O)Nc1ccc(Oc2ccccc2)cc1

>  <score_type>  (292) 
oracle

>  <origin>  (292) 
adg

>  <m_score__min__energy>  (292) 
-14.470000000000001

>  <m_primary>  (292) 
energy

$$$$
86:0
     RDKit          3D

 27 29  0  0  0  0  0  0  0  0999 V2000
   58.9190   27.0510   45.7790 C   0  0  0  0  0  0  0  0  0  0  0  0
   58.1180   28.0540   45.3310 N   0  0  0  0  0  0  0  0  0  0  0  0
   56.7570   27.9790   45.3990 C   0  0  0  0  0  0  0  0  0  0  0  0
   56.0070   28.9470   44.9520 N   0  0  0  0  0  0  0  0  0  0  0  0
   56.4460   30.0490   44.1410 C   0  0  0  0  0  0  0  0  0  0  0  0
   56.1140   30.0740   42.9260 O   0  0  0  0  0  0  0  0  0  0  0  0
   57.2290   31.1740   44.7010 C   0  0  0  0  0  0  0  0  0  0  0  0
   57.4140   32.3480   43.9520 C   0  0  0  0  0  0  0  0  0  0  0  0
   58.1840   33.3960   44.4620 C   0  0  0  0  0  0  0  0  0  0  0  0
   58.7660   33.2920   45.7320 C   0  0  0  0  0  0  0  0  0  0  0  0
   59.7960   34.5900   46.3260 S   0  0  0  0  0  0  0  0  0  0  0  0
   59.6020   35.8000   45.4580 O   0  0  0  0  0  0  0  0  0  0  0  0
   59.4500   34.9480   47.7440 O   0  0  0  0  0  0  0  0  0  0  0  0
   61.4550   34.0900   46.2480 N   0  0  0  0  0  0  0  0  0  0  0  0
   62.1470   33.3680   47.2760 C   0  0  0  0  0  0  0  0  0  0  0  0
   63.4220   33.8050   47.6600 C   0  0  0  0  0  0  0  0  0  0  0  0
   64.1370   33.1210   48.6490 C   0  0  0  0  0  0  0  0  0  0  0  0
   63.5800   31.9970   49.2660 C   0  0  0  0  0  0  0  0  0  0  0  0
   64.2910   31.3180   50.2460 O   0  0  0  0  0  0  0  0  0  0  0  0
   62.3060   31.5580   48.8950 C   0  0  0  0  0  0  0  0  0  0  0  0
   61.5880   32.2400   47.9060 C   0  0  0  0  0  0  0  0  0  0  0  0
   58.5540   32.1370   46.4970 C   0  0  0  0  0  0  0  0  0  0  0  0
   57.7900   31.0860   45.9870 C   0  0  0  0  0  0  0  0  0  0  0  0
   56.1580   26.8260   45.9280 C   0  0  0  0  0  0  0  0  0  0  0  0
   54.7730   26.7110   45.9970 O   0  0  0  0  0  0  0  0  0  0  0  0
   56.9660   25.7840   46.3930 C   0  0  0  0  0  0  0  0  0  0  0  0
   58.3550   25.8960   46.3210 C   0  0  0  0  0  0  0  0  0  0  0  0
  1  2  1  0
  2  3  1  0
  3  4  2  0
  4  5  1  0
  5  6  2  0
  5  7  1  0
  7  8  2  0
  8  9  1  0
  9 10  2  0
 10 11  1  0
 11 12  2  0
 11 13  2  0
 11 14  1  0
 14 15  1  0
 15 16  2  0
 16 17  1  0
 17 18  2  0
 18 19  1  0
 18 20  1  0
 20 21  2  0
 10 22  1  0
 22 23  2  0
  3 24  1  0
 24 25  1  0
 24 26  2  0
 26 27  1  0
 27  1  2  0
 23  7  1  0
 21 15  1  0
M  CHG  4   2  -1  14  -1  19  -1  25  -1
M  END
>  <UniqueID>  (293) 
78

>  <SMILES>  (293) 
O=C(/N=c1\[n-]cccc1[O-])c1ccc(S(=O)(=O)[N-]c2ccc([O-])cc2)cc1

>  <Energy>  (293) 
52.63539227452878

>  <Genealogy>  (293) 
O=C(N=c1[n-]cccc1[O-])c1ccc(S(=O)(=O)[N-]c2ccc([O-])cc2)cc1 (protonated)
O=C(/N=c1\[n-]cccc1[O-])c1ccc(S(=O)(=O)[N-]c2ccc([O-])cc2)cc1 (cis-trans isomerization)
O=C(/N=c1\[n-]cccc1[O-])c1ccc(S(=O)(=O)[N-]c2ccc([O-])cc2)cc1 (3D coordinates assigned)
O=C(/N=c1\[n-]cccc1[O-])c1ccc(S(=O)(=O)[N-]c2ccc([O-])cc2)cc1 (optimized conformer: 52.63539227452878 kcal/mol)

>  <smiles>  (293) 
O=C(N=c1[nH]cccc1O)c1ccc(S(=O)(=O)Nc2ccc(O)cc2)cc1

>  <score_type>  (293) 
oracle

>  <origin>  (293) 
adg

>  <m_score__min__energy>  (293) 
-15.699999999999999

>  <m_primary>  (293) 
energy

$$$$
29:0
     RDKit          3D

 31 33  0  0  0  0  0  0  0  0999 V2000
   56.0670   22.5810   47.8000 C   0  0  0  0  0  0  0  0  0  0  0  0
   55.4540   21.8220   46.7630 O   0  0  0  0  0  0  0  0  0  0  0  0
   55.8620   21.8360   45.4200 C   0  0  0  0  0  0  0  0  0  0  0  0
   56.3220   20.6760   44.7660 C   0  0  0  0  0  0  0  0  0  0  0  0
   56.7100   20.7300   43.4250 C   0  0  0  0  0  0  0  0  0  0  0  0
   56.6330   21.9320   42.7220 C   0  0  0  0  0  0  0  0  0  0  0  0
   56.1780   23.0880   43.3610 C   0  0  0  0  0  0  0  0  0  0  0  0
   55.8140   23.0530   44.7170 C   0  0  0  0  0  0  0  0  0  0  0  0
   55.3140   24.2220   45.3800 N   0  0  0  0  0  0  0  0  0  0  0  0
   56.0220   25.4480   45.6120 C   0  0  0  0  0  0  0  0  0  0  0  0
   55.5230   26.2950   46.3980 O   0  0  0  0  0  0  0  0  0  0  0  0
   57.3880   25.7050   45.0360 C   0  0  0  0  0  0  0  0  0  0  0  0
   58.6700   25.6680   46.3390 S   0  0  0  0  0  0  0  0  0  0  0  0
   58.7490   27.4450   46.5430 C   0  0  0  0  0  0  0  0  0  0  0  0
   57.7750   28.1760   47.1290 N   0  0  0  0  0  0  0  0  0  0  0  0
   58.0410   29.4810   47.1520 N   0  0  0  0  0  0  0  0  0  0  0  0
   59.2270   29.7920   46.5870 C   0  0  0  0  0  0  0  0  0  0  0  0
   59.6400   31.0200   46.4790 N   0  0  0  0  0  0  0  0  0  0  0  0
   58.8960   32.1950   46.8270 C   0  0  0  0  0  0  0  0  0  0  0  0
   58.5790   32.3770   48.0320 O   0  0  0  0  0  0  0  0  0  0  0  0
   58.5890   33.2460   45.8330 C   0  0  0  0  0  0  0  0  0  0  0  0
   58.4710   34.4400   46.2150 O   0  0  0  0  0  0  0  0  0  0  0  0
   58.3270   32.9320   44.4590 N   0  0  0  0  0  0  0  0  0  0  0  0
   57.4700   31.8880   43.9760 C   0  0  0  0  0  0  0  0  0  0  0  0
   57.4510   31.6080   42.6030 C   0  0  0  0  0  0  0  0  0  0  0  0
   56.6480   30.5780   42.1050 C   0  0  0  0  0  0  0  0  0  0  0  0
   55.8710   29.8090   42.9760 C   0  0  0  0  0  0  0  0  0  0  0  0
   55.9040   30.0630   44.3500 C   0  0  0  0  0  0  0  0  0  0  0  0
   55.1440   29.2890   45.2170 O   0  0  0  0  0  0  0  0  0  0  0  0
   56.7060   31.0940   44.8520 C   0  0  0  0  0  0  0  0  0  0  0  0
   60.0120   28.4140   45.9960 S   0  0  0  0  0  0  0  0  0  0  0  0
  1  2  1  0
  2  3  1  0
  3  4  2  0
  4  5  1  0
  5  6  2  0
  6  7  1  0
  7  8  2  0
  8  9  1  0
  9 10  1  0
 10 11  2  0
 10 12  1  0
 12 13  1  0
 13 14  1  0
 14 15  2  0
 15 16  1  0
 16 17  1  0
 17 18  2  3
 18 19  1  0
 19 20  2  0
 19 21  1  0
 21 22  2  0
 21 23  1  0
 23 24  1  0
 24 25  2  0
 25 26  1  0
 26 27  2  0
 27 28  1  0
 28 29  1  0
 28 30  2  0
 17 31  1  0
  8  3  1  0
 31 14  1  0
 30 24  1  0
M  CHG  4   9  -1  16  -1  23  -1  29  -1
M  END
>  <UniqueID>  (294) 
29

>  <SMILES>  (294) 
COc1ccccc1[N-]C(=O)CSc1n[n-]c(=NC(=O)C(=O)[N-]c2cccc([O-])c2)s1

>  <Energy>  (294) 
93.87908868646781

>  <Genealogy>  (294) 
COc1ccccc1[N-]C(=O)CSc1n[n-]c(=NC(=O)C(=O)[N-]c2cccc([O-])c2)s1 (protonated)
COc1ccccc1[N-]C(=O)CSc1n[n-]c(=NC(=O)C(=O)[N-]c2cccc([O-])c2)s1 (3D coordinates assigned)
COc1ccccc1[N-]C(=O)CSc1n[n-]c(=NC(=O)C(=O)[N-]c2cccc([O-])c2)s1 (optimized conformer: 93.87908868646781 kcal/mol)

>  <smiles>  (294) 
COc1ccccc1NC(=O)CSc1n[nH]c(=NC(=O)C(=O)Nc2cccc(O)c2)s1

>  <score_type>  (294) 
oracle

>  <origin>  (294) 
adg

>  <m_score__min__energy>  (294) 
-14.82

>  <m_primary>  (294) 
energy

$$$$
95:0
     RDKit          3D

 26 28  0  0  0  0  0  0  0  0999 V2000
   56.9550   25.8650   46.7010 O   0  0  0  0  0  0  0  0  0  0  0  0
   57.0500   26.9070   46.0000 C   0  0  0  0  0  0  0  0  0  0  0  0
   55.9230   27.5700   45.6300 N   0  0  0  0  0  0  0  0  0  0  0  0
   55.9630   28.7020   44.8800 C   0  0  0  0  0  0  0  0  0  0  0  0
   54.7720   29.3390   44.5510 O   0  0  0  0  0  0  0  0  0  0  0  0
   57.1980   29.2160   44.4480 C   0  0  0  0  0  0  0  0  0  0  0  0
   57.2870   30.4860   43.6410 C   0  0  0  0  0  0  0  0  0  0  0  0
   57.6630   31.6430   44.5280 C   0  0  0  0  0  0  0  0  0  0  0  0
   57.7780   31.4620   45.9170 C   0  0  0  0  0  0  0  0  0  0  0  0
   58.1590   32.5280   46.7370 C   0  0  0  0  0  0  0  0  0  0  0  0
   58.4310   33.7800   46.1780 C   0  0  0  0  0  0  0  0  0  0  0  0
   58.8110   34.8370   46.9950 O   0  0  0  0  0  0  0  0  0  0  0  0
   58.3250   33.9660   44.7970 C   0  0  0  0  0  0  0  0  0  0  0  0
   57.9530   32.9000   43.9720 C   0  0  0  0  0  0  0  0  0  0  0  0
   58.3710   28.5470   44.8230 C   0  0  0  0  0  0  0  0  0  0  0  0
   58.3080   27.3870   45.6110 C   0  0  0  0  0  0  0  0  0  0  0  0
   59.4900   26.6940   46.0400 N   0  0  0  0  0  0  0  0  0  0  0  0
   60.2520   26.8920   47.5860 S   0  0  0  0  0  0  0  0  0  0  0  0
   61.6560   26.3580   47.5130 O   0  0  0  0  0  0  0  0  0  0  0  0
   59.4830   26.1140   48.6170 O   0  0  0  0  0  0  0  0  0  0  0  0
   60.2560   28.5930   48.0420 C   0  0  0  0  0  0  0  0  0  0  0  0
   60.7630   29.5550   47.1560 C   0  0  0  0  0  0  0  0  0  0  0  0
   60.7760   30.9060   47.5170 C   0  0  0  0  0  0  0  0  0  0  0  0
   60.2760   31.3020   48.7600 C   0  0  0  0  0  0  0  0  0  0  0  0
   59.7690   30.3470   49.6470 C   0  0  0  0  0  0  0  0  0  0  0  0
   59.7580   28.9950   49.2890 C   0  0  0  0  0  0  0  0  0  0  0  0
  1  2  2  0
  2  3  1  0
  3  4  1  0
  4  5  1  0
  4  6  2  0
  6  7  1  0
  7  8  1  0
  8  9  2  0
  9 10  1  0
 10 11  2  0
 11 12  1  0
 11 13  1  0
 13 14  2  0
  6 15  1  0
 15 16  2  0
 16 17  1  0
 17 18  1  0
 18 19  2  0
 18 20  2  0
 18 21  1  0
 21 22  2  0
 22 23  1  0
 23 24  2  0
 24 25  1  0
 25 26  2  0
 16  2  1  0
 26 21  1  0
 14  8  1  0
M  CHG  4   3  -1   5  -1  12  -1  17  -1
M  END
>  <UniqueID>  (295) 
87

>  <SMILES>  (295) 
O=c1[n-]c([O-])c(Cc2ccc([O-])cc2)cc1[N-]S(=O)(=O)c1ccccc1

>  <Energy>  (295) 
41.661688404147

>  <Genealogy>  (295) 
O=c1[n-]c([O-])c(Cc2ccc([O-])cc2)cc1[N-]S(=O)(=O)c1ccccc1 (protonated)
O=c1[n-]c([O-])c(Cc2ccc([O-])cc2)cc1[N-]S(=O)(=O)c1ccccc1 (3D coordinates assigned)
O=c1[n-]c([O-])c(Cc2ccc([O-])cc2)cc1[N-]S(=O)(=O)c1ccccc1 (optimized conformer: 41.661688404147 kcal/mol)

>  <smiles>  (295) 
O=c1[nH]c(O)c(Cc2ccc(O)cc2)cc1NS(=O)(=O)c1ccccc1

>  <score_type>  (295) 
oracle

>  <origin>  (295) 
adg

>  <m_score__min__energy>  (295) 
-16.98

>  <m_primary>  (295) 
energy

$$$$
0:0
     RDKit          3D

 30 32  0  0  0  0  0  0  0  0999 V2000
   58.1460   29.0070   44.7970 C   0  0  0  0  0  0  0  0  0  0  0  0
   56.6370   29.8180   44.3140 S   0  0  0  0  0  0  0  0  0  0  0  0
   55.4640   29.0830   44.8980 O   0  0  0  0  0  0  0  0  0  0  0  0
   56.5320   29.7970   42.8150 O   0  0  0  0  0  0  0  0  0  0  0  0
   56.6320   31.4700   44.8540 N   0  0  0  0  0  0  0  0  0  0  0  0
   57.9190   31.8110   45.4570 C   0  0  0  0  0  0  0  0  0  0  0  0
   57.8140   33.1430   46.1980 C   0  0  0  0  0  0  0  0  0  0  0  0
   59.0560   33.4640   46.8290 O   0  0  0  0  0  0  0  0  0  0  0  0
   59.3750   33.1440   48.1560 C   0  0  0  0  0  0  0  0  0  0  0  0
   59.6550   34.1320   49.1170 C   0  0  0  0  0  0  0  0  0  0  0  0
   59.9300   33.7680   50.4370 C   0  0  0  0  0  0  0  0  0  0  0  0
   59.9160   32.4230   50.8140 C   0  0  0  0  0  0  0  0  0  0  0  0
   59.6490   31.4270   49.8620 C   0  0  0  0  0  0  0  0  0  0  0  0
   59.5120   29.9880   50.2750 C   0  0  0  0  0  0  0  0  0  0  0  0
   58.1450   29.7380   50.7200 N   0  0  0  0  0  0  0  0  0  0  0  0
   57.5890   30.3040   51.9120 C   0  0  0  0  0  0  0  0  0  0  0  0
   58.3280   30.9750   52.6830 O   0  0  0  0  0  0  0  0  0  0  0  0
   56.1450   30.1240   52.2200 C   0  0  0  0  0  0  0  0  0  0  0  0
   55.2130   31.0830   51.7810 C   0  0  0  0  0  0  0  0  0  0  0  0
   53.8580   30.9580   52.1040 C   0  0  0  0  0  0  0  0  0  0  0  0
   52.9180   31.9150   51.6900 C   0  0  0  0  0  0  0  0  0  0  0  0
   51.5710   31.7680   52.0390 C   0  0  0  0  0  0  0  0  0  0  0  0
   50.6410   32.7160   51.6300 O   0  0  0  0  0  0  0  0  0  0  0  0
   51.1580   30.6680   52.7990 C   0  0  0  0  0  0  0  0  0  0  0  0
   52.0890   29.7110   53.2150 C   0  0  0  0  0  0  0  0  0  0  0  0
   53.4380   29.8530   52.8710 C   0  0  0  0  0  0  0  0  0  0  0  0
   54.3460   28.9290   53.2800 N   0  0  0  0  0  0  0  0  0  0  0  0
   55.6680   29.0300   52.9810 C   0  0  0  0  0  0  0  0  0  0  0  0
   56.4540   28.1380   53.3960 O   0  0  0  0  0  0  0  0  0  0  0  0
   59.4010   31.7950   48.5290 C   0  0  0  0  0  0  0  0  0  0  0  0
  1  2  1  0
  2  3  2  0
  2  4  2  0
  2  5  1  0
  5  6  1  0
  6  7  1  0
  7  8  1  0
  8  9  1  0
  9 10  2  0
 10 11  1  0
 11 12  2  0
 12 13  1  0
 13 14  1  0
 14 15  1  0
 15 16  1  0
 16 17  2  0
 16 18  1  0
 18 19  2  0
 19 20  1  0
 20 21  2  0
 21 22  1  0
 22 23  1  0
 22 24  2  0
 24 25  1  0
 25 26  2  0
 26 27  1  0
 27 28  1  0
 28 29  2  0
 13 30  2  0
 30  9  1  0
 28 18  1  0
 26 20  1  0
M  CHG  4   5  -1  15  -1  23  -1  27  -1
M  END
>  <UniqueID>  (296) 
1

>  <SMILES>  (296) 
CS(=O)(=O)[N-]CCOc1cccc(C[N-]C(=O)c2cc3cc([O-])ccc3[n-]c2=O)c1

>  <Energy>  (296) 
45.12676291558353

>  <Genealogy>  (296) 
CS(=O)(=O)[N-]CCOc1cccc(C[N-]C(=O)c2cc3cc([O-])ccc3[n-]c2=O)c1 (protonated)
CS(=O)(=O)[N-]CCOc1cccc(C[N-]C(=O)c2cc3cc([O-])ccc3[n-]c2=O)c1 (3D coordinates assigned)
CS(=O)(=O)[N-]CCOc1cccc(C[N-]C(=O)c2cc3cc([O-])ccc3[n-]c2=O)c1 (optimized conformer: 45.12676291558353 kcal/mol)

>  <smiles>  (296) 
CS(=O)(=O)NCCOc1cccc(CNC(=O)c2cc3cc(O)ccc3[nH]c2=O)c1

>  <score_type>  (296) 
oracle

>  <origin>  (296) 
adg

>  <m_score__min__energy>  (296) 
-16.359999999999999

>  <m_primary>  (296) 
energy

$$$$
3:0
     RDKit          3D

 21 22  0  0  0  0  0  0  0  0999 V2000
   57.6690   30.8110   43.3950 C   0  0  0  0  0  0  0  0  0  0  0  0
   57.7390   32.4900   43.3070 S   0  0  0  0  0  0  0  0  0  0  0  0
   57.7330   32.6760   44.9740 C   0  0  0  0  0  0  0  0  0  0  0  0
   57.7720   33.8320   45.5670 N   0  0  0  0  0  0  0  0  0  0  0  0
   58.4410   34.1240   46.8040 C   0  0  0  0  0  0  0  0  0  0  0  0
   58.9180   35.2690   47.0330 O   0  0  0  0  0  0  0  0  0  0  0  0
   58.5670   33.1020   47.7900 N   0  0  0  0  0  0  0  0  0  0  0  0
   57.6750   31.4890   45.6160 N   0  0  0  0  0  0  0  0  0  0  0  0
   57.6480   30.4430   44.7430 C   0  0  0  0  0  0  0  0  0  0  0  0
   57.5520   29.0420   45.2200 C   0  0  0  0  0  0  0  0  0  0  0  0
   58.7330   28.3540   45.5420 C   0  0  0  0  0  0  0  0  0  0  0  0
   58.6850   27.0340   45.9870 C   0  0  0  0  0  0  0  0  0  0  0  0
   57.4590   26.3870   46.1270 C   0  0  0  0  0  0  0  0  0  0  0  0
   56.2630   27.0490   45.8260 C   0  0  0  0  0  0  0  0  0  0  0  0
   55.0380   26.3200   45.9940 N   0  0  0  0  0  0  0  0  0  0  0  0
   54.7860   24.6290   45.6940 S   0  0  0  0  0  0  0  0  0  0  0  0
   53.3410   24.3640   45.3780 O   0  0  0  0  0  0  0  0  0  0  0  0
   55.1490   23.8630   46.9350 O   0  0  0  0  0  0  0  0  0  0  0  0
   55.8220   24.0800   44.3540 C   0  0  0  0  0  0  0  0  0  0  0  0
   56.3120   28.3720   45.3280 C   0  0  0  0  0  0  0  0  0  0  0  0
   55.1530   28.9940   44.8820 O   0  0  0  0  0  0  0  0  0  0  0  0
  1  2  1  0
  2  3  1  0
  3  4  2  0
  4  5  1  0
  5  6  2  0
  5  7  1  0
  3  8  1  0
  8  9  1  0
  9 10  1  0
 10 11  2  0
 11 12  1  0
 12 13  2  0
 13 14  1  0
 14 15  1  0
 15 16  1  0
 16 17  2  0
 16 18  2  0
 16 19  1  0
 14 20  2  0
 20 21  1  0
  9  1  2  0
 20 10  1  0
M  CHG  3   8  -1  15  -1  21  -1
M  END
>  <UniqueID>  (297) 
4

>  <SMILES>  (297) 
CS(=O)(=O)[N-]c1cccc(-c2cs/c(=N/C(N)=O)[n-]2)c1[O-]

>  <Energy>  (297) 
68.5849139248485

>  <Genealogy>  (297) 
CS(=O)(=O)[N-]c1cccc(-c2csc(=NC(N)=O)[n-]2)c1[O-] (protonated)
CS(=O)(=O)[N-]c1cccc(-c2cs/c(=N/C(N)=O)[n-]2)c1[O-] (cis-trans isomerization)
CS(=O)(=O)[N-]c1cccc(-c2cs/c(=N/C(N)=O)[n-]2)c1[O-] (3D coordinates assigned)
CS(=O)(=O)[N-]c1cccc(-c2cs/c(=N/C(N)=O)[n-]2)c1[O-] (optimized conformer: 68.5849139248485 kcal/mol)

>  <smiles>  (297) 
CS(=O)(=O)Nc1cccc(-c2csc(=NC(N)=O)[nH]2)c1O

>  <score_type>  (297) 
oracle

>  <origin>  (297) 
adg

>  <m_score__min__energy>  (297) 
-14.33

>  <m_primary>  (297) 
energy

$$$$
38:0
     RDKit          3D

 27 29  0  0  0  0  0  0  0  0999 V2000
   54.3580   30.0150   50.9890 O   0  0  0  0  0  0  0  0  0  0  0  0
   53.8630   30.4320   52.0710 C   0  0  0  0  0  0  0  0  0  0  0  0
   52.3810   30.4300   52.2600 C   0  0  0  0  0  0  0  0  0  0  0  0
   51.7040   30.8460   50.9930 C   0  0  0  0  0  0  0  0  0  0  0  0
   51.6420   30.0850   49.8860 N   0  0  0  0  0  0  0  0  0  0  0  0
   51.0080   30.8810   48.9980 C   0  0  0  0  0  0  0  0  0  0  0  0
   50.7520   30.5150   47.8220 O   0  0  0  0  0  0  0  0  0  0  0  0
   50.6740   32.1020   49.4680 N   0  0  0  0  0  0  0  0  0  0  0  0
   51.1280   32.0650   50.7310 C   0  0  0  0  0  0  0  0  0  0  0  0
   51.0230   33.1250   51.6220 O   0  0  0  0  0  0  0  0  0  0  0  0
   54.7120   30.8660   53.1350 N   0  0  0  0  0  0  0  0  0  0  0  0
   56.2680   30.1640   53.4260 S   0  0  0  0  0  0  0  0  0  0  0  0
   56.1560   28.6690   53.3130 O   0  0  0  0  0  0  0  0  0  0  0  0
   56.7210   30.5210   54.8130 O   0  0  0  0  0  0  0  0  0  0  0  0
   57.4340   30.7850   52.2620 C   0  0  0  0  0  0  0  0  0  0  0  0
   58.1670   29.9070   51.4550 C   0  0  0  0  0  0  0  0  0  0  0  0
   59.0920   30.4050   50.5320 C   0  0  0  0  0  0  0  0  0  0  0  0
   59.2970   31.7910   50.4040 C   0  0  0  0  0  0  0  0  0  0  0  0
   60.2770   32.3220   49.4230 C   0  0  0  0  0  0  0  0  0  0  0  0
   59.9730   33.4590   48.6500 C   0  0  0  0  0  0  0  0  0  0  0  0
   60.8980   33.9560   47.7260 C   0  0  0  0  0  0  0  0  0  0  0  0
   62.1330   33.3260   47.5610 C   0  0  0  0  0  0  0  0  0  0  0  0
   63.2910   33.9530   46.4020 Cl  0  0  0  0  0  0  0  0  0  0  0  0
   62.4470   32.1960   48.3210 C   0  0  0  0  0  0  0  0  0  0  0  0
   61.5260   31.6950   49.2470 C   0  0  0  0  0  0  0  0  0  0  0  0
   58.5600   32.6660   51.2220 C   0  0  0  0  0  0  0  0  0  0  0  0
   57.6370   32.1650   52.1460 C   0  0  0  0  0  0  0  0  0  0  0  0
  1  2  2  0
  2  3  1  0
  3  4  1  0
  4  5  1  0
  5  6  1  0
  6  7  2  0
  6  8  1  0
  8  9  1  0
  9 10  1  0
  2 11  1  0
 11 12  1  0
 12 13  2  0
 12 14  2  0
 12 15  1  0
 15 16  2  0
 16 17  1  0
 17 18  2  0
 18 19  1  0
 19 20  2  0
 20 21  1  0
 21 22  2  0
 22 23  1  0
 22 24  1  0
 24 25  2  0
 18 26  1  0
 26 27  2  0
  9  4  2  0
 27 15  1  0
 25 19  1  0
M  CHG  4   5  -1   8  -1  10  -1  11  -1
M  END
>  <UniqueID>  (298) 
35

>  <SMILES>  (298) 
O=C(Cc1[n-]c(=O)[n-]c1[O-])[N-]S(=O)(=O)c1ccc(-c2ccc(Cl)cc2)cc1

>  <Energy>  (298) 
73.79261584792027

>  <Genealogy>  (298) 
O=C(Cc1[n-]c(=O)[n-]c1[O-])[N-]S(=O)(=O)c1ccc(-c2ccc(Cl)cc2)cc1 (protonated)
O=C(Cc1[n-]c(=O)[n-]c1[O-])[N-]S(=O)(=O)c1ccc(-c2ccc(Cl)cc2)cc1 (3D coordinates assigned)
O=C(Cc1[n-]c(=O)[n-]c1[O-])[N-]S(=O)(=O)c1ccc(-c2ccc(Cl)cc2)cc1 (optimized conformer: 73.79261584792027 kcal/mol)

>  <smiles>  (298) 
O=C(Cc1[nH]c(=O)[nH]c1O)NS(=O)(=O)c1ccc(-c2ccc(Cl)cc2)cc1

>  <score_type>  (298) 
oracle

>  <origin>  (298) 
adg

>  <m_score__min__energy>  (298) 
-18.170000000000002

>  <m_primary>  (298) 
energy

$$$$
81:0
     RDKit          3D

 27 29  0  0  0  0  0  0  0  0999 V2000
   54.4460   29.2780   52.2690 O   0  0  0  0  0  0  0  0  0  0  0  0
   54.3610   30.4990   51.9620 C   0  0  0  0  0  0  0  0  0  0  0  0
   55.5550   31.2560   51.7050 N   0  0  0  0  0  0  0  0  0  0  0  0
   56.8890   30.6590   51.7410 C   0  0  0  0  0  0  0  0  0  0  0  0
   57.9510   31.7390   51.7170 C   0  0  0  0  0  0  0  0  0  0  0  0
   57.7420   32.8610   52.5400 C   0  0  0  0  0  0  0  0  0  0  0  0
   58.6740   33.8970   52.5910 C   0  0  0  0  0  0  0  0  0  0  0  0
   59.8320   33.8310   51.8220 C   0  0  0  0  0  0  0  0  0  0  0  0
   60.0640   32.7280   51.0000 C   0  0  0  0  0  0  0  0  0  0  0  0
   59.1370   31.6710   50.9280 C   0  0  0  0  0  0  0  0  0  0  0  0
   59.4930   30.4900   50.0490 C   0  0  0  0  0  0  0  0  0  0  0  0
   59.1560   30.7290   48.5710 C   0  0  0  0  0  0  0  0  0  0  0  0
   58.3800   31.9580   48.3850 N   0  0  0  0  0  0  0  0  0  0  0  0
   58.4650   32.8300   47.4180 C   0  0  0  0  0  0  0  0  0  0  0  0
   59.3330   33.9410   47.4610 C   0  0  0  0  0  0  0  0  0  0  0  0
   59.3870   34.8140   46.3730 C   0  0  0  0  0  0  0  0  0  0  0  0
   58.5770   34.5900   45.2600 C   0  0  0  0  0  0  0  0  0  0  0  0
   57.7180   33.4920   45.2520 C   0  0  0  0  0  0  0  0  0  0  0  0
   57.6830   32.6480   46.3180 N   0  0  0  0  0  0  0  0  0  0  0  0
   53.0310   31.1390   51.8670 C   0  0  0  0  0  0  0  0  0  0  0  0
   52.1900   31.2310   52.9870 C   0  0  0  0  0  0  0  0  0  0  0  0
   50.9440   31.8440   52.8390 C   0  0  0  0  0  0  0  0  0  0  0  0
   50.1660   31.9440   53.8240 O   0  0  0  0  0  0  0  0  0  0  0  0
   50.5670   32.3330   51.6290 N   0  0  0  0  0  0  0  0  0  0  0  0
   51.3900   32.2370   50.5540 C   0  0  0  0  0  0  0  0  0  0  0  0
   51.0250   32.6960   49.4410 O   0  0  0  0  0  0  0  0  0  0  0  0
   52.6060   31.6440   50.6770 N   0  0  0  0  0  0  0  0  0  0  0  0
  1  2  2  0
  2  3  1  0
  3  4  1  0
  4  5  1  0
  5  6  2  0
  6  7  1  0
  7  8  2  0
  8  9  1  0
  9 10  2  0
 10 11  1  0
 11 12  1  0
 12 13  1  0
 13 14  2  3
 14 15  1  0
 15 16  2  0
 16 17  1  0
 17 18  2  0
 18 19  1  0
  2 20  1  0
 20 21  2  0
 21 22  1  0
 22 23  2  0
 22 24  1  0
 24 25  1  0
 25 26  2  0
 25 27  1  0
 10  5  1  0
 19 14  1  0
 27 20  1  0
M  CHG  3  19  -1  24  -1  27  -1
M  END
>  <UniqueID>  (299) 
74

>  <SMILES>  (299) 
O=C(NCc1ccccc1CCN=c1cccc[n-]1)c1cc(=O)[n-]c(=O)[n-]1

>  <Energy>  (299) 
48.386513026179614

>  <Genealogy>  (299) 
O=C(NCc1ccccc1CCN=c1cccc[n-]1)c1cc(=O)[n-]c(=O)[n-]1 (protonated)
O=C(NCc1ccccc1CCN=c1cccc[n-]1)c1cc(=O)[n-]c(=O)[n-]1 (3D coordinates assigned)
O=C(NCc1ccccc1CCN=c1cccc[n-]1)c1cc(=O)[n-]c(=O)[n-]1 (optimized conformer: 48.386513026179614 kcal/mol)

>  <smiles>  (299) 
O=C(NCc1ccccc1CCN=c1cccc[nH]1)c1cc(=O)[nH]c(=O)[nH]1

>  <score_type>  (299) 
oracle

>  <origin>  (299) 
adg

>  <m_score__min__energy>  (299) 
-14.539999999999999

>  <m_primary>  (299) 
energy

$$$$
34:0
     RDKit          3D

 27 29  0  0  0  0  0  0  0  0999 V2000
   56.6280   29.7890   42.9150 O   0  0  0  0  0  0  0  0  0  0  0  0
   56.6870   29.9180   44.1670 C   0  0  0  0  0  0  0  0  0  0  0  0
   56.1630   28.8630   44.9900 N   0  0  0  0  0  0  0  0  0  0  0  0
   56.8410   27.8660   45.4820 C   0  0  0  0  0  0  0  0  0  0  0  0
   58.2050   27.8920   45.5190 N   0  0  0  0  0  0  0  0  0  0  0  0
   58.9330   26.8690   46.0370 C   0  0  0  0  0  0  0  0  0  0  0  0
   58.2870   25.7490   46.5630 C   0  0  0  0  0  0  0  0  0  0  0  0
   56.8920   25.6980   46.5510 C   0  0  0  0  0  0  0  0  0  0  0  0
   56.1600   26.7600   46.0130 C   0  0  0  0  0  0  0  0  0  0  0  0
   54.7710   26.7090   46.0050 O   0  0  0  0  0  0  0  0  0  0  0  0
   57.3440   31.1170   44.7400 C   0  0  0  0  0  0  0  0  0  0  0  0
   57.4010   32.3110   44.0020 C   0  0  0  0  0  0  0  0  0  0  0  0
   58.0200   33.4440   44.5370 C   0  0  0  0  0  0  0  0  0  0  0  0
   58.5980   33.3940   45.8070 C   0  0  0  0  0  0  0  0  0  0  0  0
   58.5700   32.2050   46.5460 C   0  0  0  0  0  0  0  0  0  0  0  0
   59.3060   32.1460   48.1460 S   0  0  0  0  0  0  0  0  0  0  0  0
   58.4500   31.2980   49.0440 O   0  0  0  0  0  0  0  0  0  0  0  0
   60.6810   31.5420   48.0600 O   0  0  0  0  0  0  0  0  0  0  0  0
   59.4190   33.7490   48.8070 N   0  0  0  0  0  0  0  0  0  0  0  0
   60.3230   34.5620   47.9900 C   0  0  0  0  0  0  0  0  0  0  0  0
   61.7320   34.0700   48.1640 C   0  0  0  0  0  0  0  0  0  0  0  0
   62.4820   33.6490   47.0520 C   0  0  0  0  0  0  0  0  0  0  0  0
   63.7800   33.1590   47.2230 C   0  0  0  0  0  0  0  0  0  0  0  0
   64.3340   33.0750   48.5040 C   0  0  0  0  0  0  0  0  0  0  0  0
   63.5880   33.4760   49.6160 C   0  0  0  0  0  0  0  0  0  0  0  0
   62.2900   33.9680   49.4490 C   0  0  0  0  0  0  0  0  0  0  0  0
   57.9490   31.0680   46.0100 C   0  0  0  0  0  0  0  0  0  0  0  0
  1  2  2  0
  2  3  1  0
  3  4  2  3
  4  5  1  0
  5  6  1  0
  6  7  2  0
  7  8  1  0
  8  9  2  0
  9 10  1  0
  2 11  1  0
 11 12  2  0
 12 13  1  0
 13 14  2  0
 14 15  1  0
 15 16  1  0
 16 17  2  0
 16 18  2  0
 16 19  1  0
 19 20  1  0
 20 21  1  0
 21 22  2  0
 22 23  1  0
 23 24  2  0
 24 25  1  0
 25 26  2  0
 15 27  2  0
  9  4  1  0
 27 11  1  0
 26 21  1  0
M  CHG  2   5  -1  10  -1
M  END
>  <UniqueID>  (300) 
30

>  <SMILES>  (300) 
O=C(N=c1[n-]cccc1[O-])c1cccc(S(=O)(=O)NCc2ccccc2)c1

>  <Energy>  (300) 
50.43517191038875

>  <Genealogy>  (300) 
O=C(N=c1[n-]cccc1[O-])c1cccc(S(=O)(=O)NCc2ccccc2)c1 (protonated)
O=C(N=c1[n-]cccc1[O-])c1cccc(S(=O)(=O)NCc2ccccc2)c1 (3D coordinates assigned)
O=C(N=c1[n-]cccc1[O-])c1cccc(S(=O)(=O)NCc2ccccc2)c1 (optimized conformer: 50.43517191038875 kcal/mol)

>  <smiles>  (300) 
O=C(N=c1[nH]cccc1O)c1cccc(S(=O)(=O)NCc2ccccc2)c1

>  <score_type>  (300) 
oracle

>  <origin>  (300) 
adg

>  <m_score__min__energy>  (300) 
-14.99

>  <m_primary>  (300) 
energy

$$$$
38:0
     RDKit          3D

 28 29  0  0  0  0  0  0  0  0999 V2000
   61.6340   32.3120   49.5550 N   0  0  0  0  0  0  0  0  0  0  0  0
   60.8160   33.8190   49.3420 S   0  0  0  0  0  0  0  0  0  0  0  0
   59.9070   34.0510   50.5170 O   0  0  0  0  0  0  0  0  0  0  0  0
   61.8190   34.9360   49.2770 O   0  0  0  0  0  0  0  0  0  0  0  0
   59.8890   33.7740   47.8430 C   0  0  0  0  0  0  0  0  0  0  0  0
   59.9370   34.8640   46.9600 C   0  0  0  0  0  0  0  0  0  0  0  0
   59.1970   34.8450   45.7770 C   0  0  0  0  0  0  0  0  0  0  0  0
   58.4060   33.7380   45.4620 C   0  0  0  0  0  0  0  0  0  0  0  0
   58.3570   32.6440   46.3280 C   0  0  0  0  0  0  0  0  0  0  0  0
   59.1010   32.6450   47.5230 C   0  0  0  0  0  0  0  0  0  0  0  0
   59.0610   31.5330   48.4310 N   0  0  0  0  0  0  0  0  0  0  0  0
   59.7750   29.9740   48.1590 S   0  0  0  0  0  0  0  0  0  0  0  0
   59.5620   29.0830   49.3510 O   0  0  0  0  0  0  0  0  0  0  0  0
   61.2550   30.1470   47.9630 O   0  0  0  0  0  0  0  0  0  0  0  0
   59.0810   29.2690   46.7010 C   0  0  0  0  0  0  0  0  0  0  0  0
   59.8410   29.1550   45.5330 C   0  0  0  0  0  0  0  0  0  0  0  0
   59.3060   28.5230   44.4060 C   0  0  0  0  0  0  0  0  0  0  0  0
   58.0150   27.9950   44.4450 C   0  0  0  0  0  0  0  0  0  0  0  0
   57.2410   28.0980   45.6060 C   0  0  0  0  0  0  0  0  0  0  0  0
   55.9050   27.5720   45.5850 N   0  0  0  0  0  0  0  0  0  0  0  0
   55.4500   26.3060   46.0800 C   0  0  0  0  0  0  0  0  0  0  0  0
   54.3400   25.8660   45.6870 O   0  0  0  0  0  0  0  0  0  0  0  0
   56.2590   25.5200   46.9610 N   0  0  0  0  0  0  0  0  0  0  0  0
   57.4150   24.7630   46.4950 C   0  0  0  0  0  0  0  0  0  0  0  0
   56.9860   23.6580   45.5260 C   0  0  0  0  0  0  0  0  0  0  0  0
   57.0760   24.1120   44.0670 C   0  0  0  0  0  0  0  0  0  0  0  0
   56.2250   22.9560   43.0120 Cl  0  0  0  0  0  0  0  0  0  0  0  0
   57.7730   28.7640   46.7270 C   0  0  0  0  0  0  0  0  0  0  0  0
  1  2  1  0
  2  3  2  0
  2  4  2  0
  2  5  1  0
  5  6  2  0
  6  7  1  0
  7  8  2  0
  8  9  1  0
  9 10  2  0
 10 11  1  0
 11 12  1  0
 12 13  2  0
 12 14  2  0
 12 15  1  0
 15 16  2  0
 16 17  1  0
 17 18  2  0
 18 19  1  0
 19 20  1  0
 20 21  1  0
 21 22  2  0
 21 23  1  0
 23 24  1  0
 24 25  1  0
 25 26  1  0
 26 27  1  0
 19 28  2  0
 10  5  1  0
 28 15  1  0
M  CHG  4   1  -1  11  -1  20  -1  23  -1
M  END
>  <UniqueID>  (301) 
33

>  <SMILES>  (301) 
[NH-]S(=O)(=O)c1ccccc1[N-]S(=O)(=O)c1cccc([N-]C(=O)[N-]CCCCl)c1

>  <Energy>  (301) 
42.37902846744339

>  <Genealogy>  (301) 
[NH-]S(=O)(=O)c1ccccc1[N-]S(=O)(=O)c1cccc([N-]C(=O)[N-]CCCCl)c1 (protonated)
[NH-]S(=O)(=O)c1ccccc1[N-]S(=O)(=O)c1cccc([N-]C(=O)[N-]CCCCl)c1 (3D coordinates assigned)
[NH-]S(=O)(=O)c1ccccc1[N-]S(=O)(=O)c1cccc([N-]C(=O)[N-]CCCCl)c1 (optimized conformer: 42.37902846744339 kcal/mol)

>  <smiles>  (301) 
NS(=O)(=O)c1ccccc1NS(=O)(=O)c1cccc(NC(=O)NCCCCl)c1

>  <score_type>  (301) 
oracle

>  <origin>  (301) 
adg

>  <m_score__min__energy>  (301) 
-14.26

>  <m_primary>  (301) 
energy

$$$$
2:0
     RDKit          3D

 25 27  0  0  0  0  0  0  0  0999 V2000
   60.0340   26.6660   48.0780 C   0  0  0  0  0  0  0  0  0  0  0  0
   59.5670   25.9480   46.8160 C   0  0  0  0  0  0  0  0  0  0  0  0
   58.1060   25.8380   46.8070 N   0  0  0  0  0  0  0  0  0  0  0  0
   57.2270   26.6090   46.1390 C   0  0  0  0  0  0  0  0  0  0  0  0
   57.5850   27.6280   45.1340 C   0  0  0  0  0  0  0  0  0  0  0  0
   57.4710   28.9650   45.3050 C   0  0  0  0  0  0  0  0  0  0  0  0
   56.3540   29.7710   44.7440 C   0  0  0  0  0  0  0  0  0  0  0  0
   55.3450   29.2270   44.2240 O   0  0  0  0  0  0  0  0  0  0  0  0
   56.3860   31.1920   44.8440 N   0  0  0  0  0  0  0  0  0  0  0  0
   57.4100   31.8730   45.5660 C   0  0  0  0  0  0  0  0  0  0  0  0
   57.3790   33.1300   45.6340 O   0  0  0  0  0  0  0  0  0  0  0  0
   58.4420   31.1260   46.2370 N   0  0  0  0  0  0  0  0  0  0  0  0
   59.4360   31.8160   47.0180 C   0  0  0  0  0  0  0  0  0  0  0  0
   59.0480   32.7100   48.0280 C   0  0  0  0  0  0  0  0  0  0  0  0
   60.0140   33.3790   48.7870 C   0  0  0  0  0  0  0  0  0  0  0  0
   61.3710   33.1590   48.5430 C   0  0  0  0  0  0  0  0  0  0  0  0
   61.7660   32.2690   47.5390 C   0  0  0  0  0  0  0  0  0  0  0  0
   60.8030   31.5990   46.7780 C   0  0  0  0  0  0  0  0  0  0  0  0
   58.4820   29.6890   46.1210 C   0  0  0  0  0  0  0  0  0  0  0  0
   59.4080   29.0450   46.6910 O   0  0  0  0  0  0  0  0  0  0  0  0
   55.9570   26.1870   46.4780 C   0  0  0  0  0  0  0  0  0  0  0  0
   54.7710   26.6900   45.9610 O   0  0  0  0  0  0  0  0  0  0  0  0
   56.0150   25.1890   47.3820 N   0  0  0  0  0  0  0  0  0  0  0  0
   57.3430   25.0160   47.5610 C   0  0  0  0  0  0  0  0  0  0  0  0
   57.8170   24.1650   48.3590 O   0  0  0  0  0  0  0  0  0  0  0  0
  1  2  1  0
  2  3  1  0
  3  4  1  0
  4  5  1  0
  5  6  2  3
  6  7  1  0
  7  8  2  0
  7  9  1  0
  9 10  1  0
 10 11  2  0
 10 12  1  0
 12 13  1  0
 13 14  2  0
 14 15  1  0
 15 16  2  0
 16 17  1  0
 17 18  2  0
 12 19  1  0
 19 20  2  0
  4 21  2  0
 21 22  1  0
 21 23  1  0
 23 24  1  0
 24 25  2  0
 24  3  1  0
 19  6  1  0
 18 13  1  0
M  CHG  3   9  -1  22  -1  23  -1
M  END
>  <UniqueID>  (302) 
3

>  <SMILES>  (302) 
CCn1c(C=C2C(=O)[N-]C(=O)N(c3ccccc3)C2=O)c([O-])[n-]c1=O

>  <Energy>  (302) 
83.04711274521156

>  <Genealogy>  (302) 
CCn1c(C=C2C(=O)[N-]C(=O)N(c3ccccc3)C2=O)c([O-])[n-]c1=O (protonated)
CCn1c(C=C2C(=O)[N-]C(=O)N(c3ccccc3)C2=O)c([O-])[n-]c1=O (3D coordinates assigned)
CCn1c(C=C2C(=O)[N-]C(=O)N(c3ccccc3)C2=O)c([O-])[n-]c1=O (nonaromatic ring conformer: 83.04711274521156 kcal/mol)

>  <smiles>  (302) 
CCn1c(C=C2C(=O)NC(=O)N(c3ccccc3)C2=O)c(O)[nH]c1=O

>  <score_type>  (302) 
oracle

>  <origin>  (302) 
adg

>  <m_score__min__energy>  (302) 
-15.050000000000001

>  <m_primary>  (302) 
energy

$$$$
10:0
     RDKit          3D

 24 26  0  0  0  0  0  0  0  0999 V2000
   59.5560   29.9010   46.8410 C   0  0  0  0  0  0  0  0  0  0  0  0
   58.9910   30.7480   45.9650 C   0  0  0  0  0  0  0  0  0  0  0  0
   58.2250   30.4250   44.8310 C   0  0  0  0  0  0  0  0  0  0  0  0
   57.9460   29.2390   44.2550 C   0  0  0  0  0  0  0  0  0  0  0  0
   57.3860   28.0600   44.9430 C   0  0  0  0  0  0  0  0  0  0  0  0
   56.0180   27.9800   45.2520 C   0  0  0  0  0  0  0  0  0  0  0  0
   55.1440   28.9950   44.8790 O   0  0  0  0  0  0  0  0  0  0  0  0
   55.5370   26.9020   45.9250 N   0  0  0  0  0  0  0  0  0  0  0  0
   56.3630   25.9010   46.3240 C   0  0  0  0  0  0  0  0  0  0  0  0
   55.8960   24.9110   46.9430 O   0  0  0  0  0  0  0  0  0  0  0  0
   57.6930   25.9690   46.0610 N   0  0  0  0  0  0  0  0  0  0  0  0
   58.2230   27.0260   45.3900 C   0  0  0  0  0  0  0  0  0  0  0  0
   59.4620   27.0610   45.1690 O   0  0  0  0  0  0  0  0  0  0  0  0
   57.7630   31.6290   44.3220 C   0  0  0  0  0  0  0  0  0  0  0  0
   58.2770   32.6280   45.1200 C   0  0  0  0  0  0  0  0  0  0  0  0
   58.0490   34.0930   44.9080 C   0  0  0  0  0  0  0  0  0  0  0  0
   59.0320   32.0970   46.1060 N   0  0  0  0  0  0  0  0  0  0  0  0
   59.6890   32.8460   47.1430 C   0  0  0  0  0  0  0  0  0  0  0  0
   61.0040   33.2930   46.9690 C   0  0  0  0  0  0  0  0  0  0  0  0
   61.6360   34.0080   47.9870 C   0  0  0  0  0  0  0  0  0  0  0  0
   60.9450   34.2670   49.1720 C   0  0  0  0  0  0  0  0  0  0  0  0
   59.6670   33.8250   49.3270 N   0  0  0  0  0  0  0  0  0  0  0  0
   59.0300   33.1250   48.3490 C   0  0  0  0  0  0  0  0  0  0  0  0
   57.7520   32.7170   48.5440 F   0  0  0  0  0  0  0  0  0  0  0  0
  1  2  2  0
  2  3  1  0
  3  4  2  3
  4  5  1  0
  5  6  2  0
  6  7  1  0
  6  8  1  0
  8  9  1  0
  9 10  2  0
  9 11  1  0
 11 12  1  0
 12 13  2  0
  3 14  1  0
 14 15  2  0
 15 16  1  0
 15 17  1  0
 17 18  1  0
 18 19  2  0
 19 20  1  0
 20 21  2  0
 21 22  1  0
 22 23  2  0
 23 24  1  0
 17  2  1  0
 23 18  1  0
 12  5  1  0
M  CHG  3   7  -1   8  -1  11  -1
M  END
>  <UniqueID>  (303) 
11

>  <SMILES>  (303) 
C=c1c(=Cc2c([O-])[n-]c(=O)[n-]c2=O)cc(C)n1-c1cccnc1F

>  <Energy>  (303) 
87.4332693448512

>  <Genealogy>  (303) 
C=c1c(=Cc2c([O-])[n-]c(=O)[n-]c2=O)cc(C)n1-c1cccnc1F (protonated)
C=c1c(=Cc2c([O-])[n-]c(=O)[n-]c2=O)cc(C)n1-c1cccnc1F (3D coordinates assigned)
C=c1c(=Cc2c([O-])[n-]c(=O)[n-]c2=O)cc(C)n1-c1cccnc1F (optimized conformer: 87.4332693448512 kcal/mol)

>  <smiles>  (303) 
C=c1c(=Cc2c(O)[nH]c(=O)[nH]c2=O)cc(C)n1-c1cccnc1F

>  <score_type>  (303) 
oracle

>  <origin>  (303) 
adg

>  <m_score__min__energy>  (303) 
-15.08

>  <m_primary>  (303) 
energy

$$$$
28:0
     RDKit          3D

 30 34  0  0  0  0  0  0  0  0999 V2000
   55.1550   26.8720   45.9940 O   0  0  0  0  0  0  0  0  0  0  0  0
   56.0520   25.8570   46.3130 C   0  0  0  0  0  0  0  0  0  0  0  0
   55.6750   24.6810   46.8400 N   0  0  0  0  0  0  0  0  0  0  0  0
   56.8380   24.0000   46.9180 C   0  0  0  0  0  0  0  0  0  0  0  0
   56.9080   22.8260   47.3640 O   0  0  0  0  0  0  0  0  0  0  0  0
   57.9200   24.6730   46.4690 N   0  0  0  0  0  0  0  0  0  0  0  0
   57.4180   25.8660   46.1060 C   0  0  0  0  0  0  0  0  0  0  0  0
   58.2230   26.9240   45.4740 C   0  0  0  0  0  0  0  0  0  0  0  0
   57.8690   28.2160   45.4320 C   0  0  0  0  0  0  0  0  0  0  0  0
   56.8450   28.7590   44.6700 C   0  0  0  0  0  0  0  0  0  0  0  0
   56.7900   30.0960   44.8660 N   0  0  0  0  0  0  0  0  0  0  0  0
   57.7450   30.4250   45.7200 N   0  0  0  0  0  0  0  0  0  0  0  0
   58.1100   31.6510   46.2130 C   0  0  0  0  0  0  0  0  0  0  0  0
   57.5130   32.7930   45.9590 N   0  0  0  0  0  0  0  0  0  0  0  0
   57.7770   34.2330   45.7770 C   0  0  0  0  0  0  0  0  0  0  0  0
   59.0000   34.6290   44.9820 C   0  0  0  0  0  0  0  0  0  0  0  0
   58.9600   34.8270   46.5080 C   0  0  0  0  0  0  0  0  0  0  0  0
   59.1870   31.6900   47.0480 N   0  0  0  0  0  0  0  0  0  0  0  0
   59.8850   30.5660   47.3740 C   0  0  0  0  0  0  0  0  0  0  0  0
   60.8970   30.6580   48.1860 N   0  0  0  0  0  0  0  0  0  0  0  0
   61.4170   31.8820   48.7290 C   0  0  0  0  0  0  0  0  0  0  0  0
   62.7240   32.2670   48.4040 C   0  0  0  0  0  0  0  0  0  0  0  0
   63.2660   33.4430   48.9330 C   0  0  0  0  0  0  0  0  0  0  0  0
   62.5130   34.2300   49.8080 C   0  0  0  0  0  0  0  0  0  0  0  0
   63.0400   35.3680   50.3210 F   0  0  0  0  0  0  0  0  0  0  0  0
   61.2200   33.8340   50.1640 C   0  0  0  0  0  0  0  0  0  0  0  0
   60.6710   32.6640   49.6330 C   0  0  0  0  0  0  0  0  0  0  0  0
   59.4330   32.2740   50.0320 F   0  0  0  0  0  0  0  0  0  0  0  0
   59.4920   29.3590   46.8800 N   0  0  0  0  0  0  0  0  0  0  0  0
   58.4140   29.3150   46.0670 C   0  0  0  0  0  0  0  0  0  0  0  0
  1  2  1  0
  2  3  1  0
  3  4  1  0
  4  5  2  0
  4  6  1  0
  6  7  1  0
  7  8  1  0
  8  9  2  3
  9 10  1  0
 10 11  2  0
 11 12  1  0
 12 13  1  0
 13 14  2  0
 14 15  1  0
 15 16  1  0
 16 17  1  0
 13 18  1  0
 18 19  1  0
 19 20  2  3
 20 21  1  0
 21 22  2  0
 22 23  1  0
 23 24  2  0
 24 25  1  0
 24 26  1  0
 26 27  2  0
 27 28  1  0
 19 29  1  0
 29 30  2  0
  7  2  2  0
 30  9  1  0
 30 12  1  0
 17 15  1  0
 27 21  1  0
M  CHG  3   3  -1   6  -1  18  -1
M  END
>  <UniqueID>  (304) 
28

>  <SMILES>  (304) 
O=c1[n-]c(O)c(C=c2cnn3/c(=N\C4CC4)[n-]c(=Nc4ccc(F)cc4F)nc23)[n-]1

>  <Energy>  (304) 
416.48066299895396

>  <Genealogy>  (304) 
O=c1[n-]c(O)c(C=c2cnn3c(=NC4CC4)[n-]c(=Nc4ccc(F)cc4F)nc23)[n-]1 (protonated)
O=c1[n-]c(O)c(C=c2cnn3/c(=N\C4CC4)[n-]c(=Nc4ccc(F)cc4F)nc23)[n-]1 (cis-trans isomerization)
O=c1[n-]c(O)c(C=c2cnn3/c(=N\C4CC4)[n-]c(=Nc4ccc(F)cc4F)nc23)[n-]1 (3D coordinates assigned)
O=c1[n-]c(O)c(C=c2cnn3/c(=N\C4CC4)[n-]c(=Nc4ccc(F)cc4F)nc23)[n-]1 (nonaromatic ring conformer: 416.48066299895396 kcal/mol)

>  <smiles>  (304) 
O=c1[nH]c(O)c(C=c2cnn3c(=NC4CC4)[nH]c(=Nc4ccc(F)cc4F)nc23)[nH]1

>  <score_type>  (304) 
oracle

>  <origin>  (304) 
adg

>  <m_score__min__energy>  (304) 
-14.529999999999999

>  <m_primary>  (304) 
energy

$$$$
45:0
     RDKit          3D

 27 30  0  0  0  0  0  0  0  0999 V2000
   58.5660   32.6670   46.3070 O   0  0  0  0  0  0  0  0  0  0  0  0
   59.3250   31.7250   46.6650 C   0  0  0  0  0  0  0  0  0  0  0  0
   58.7950   30.3450   46.6650 C   0  0  0  0  0  0  0  0  0  0  0  0
   58.4160   29.7450   45.4560 C   0  0  0  0  0  0  0  0  0  0  0  0
   57.9110   28.4420   45.4360 C   0  0  0  0  0  0  0  0  0  0  0  0
   57.7930   27.7050   46.6280 C   0  0  0  0  0  0  0  0  0  0  0  0
   57.2530   26.3230   46.6370 C   0  0  0  0  0  0  0  0  0  0  0  0
   58.0020   25.2360   46.8990 N   0  0  0  0  0  0  0  0  0  0  0  0
   57.1310   24.2110   46.7900 C   0  0  0  0  0  0  0  0  0  0  0  0
   57.4670   23.0120   46.9740 O   0  0  0  0  0  0  0  0  0  0  0  0
   55.8730   24.5720   46.4650 N   0  0  0  0  0  0  0  0  0  0  0  0
   55.9630   25.9090   46.3670 C   0  0  0  0  0  0  0  0  0  0  0  0
   54.8940   26.7170   46.0040 O   0  0  0  0  0  0  0  0  0  0  0  0
   58.1790   28.3060   47.8380 C   0  0  0  0  0  0  0  0  0  0  0  0
   58.6850   29.6080   47.8580 C   0  0  0  0  0  0  0  0  0  0  0  0
   59.1080   30.1320   49.0380 F   0  0  0  0  0  0  0  0  0  0  0  0
   60.6770   32.0180   47.0670 N   0  0  0  0  0  0  0  0  0  0  0  0
   61.3480   31.2240   48.1070 C   0  0  0  0  0  0  0  0  0  0  0  0
   62.0420   32.1250   49.1440 C   0  0  0  0  0  0  0  0  0  0  0  0
   62.5870   33.4720   48.5810 C   0  0  0  0  0  0  0  0  0  0  0  0
   63.8660   33.8390   49.2500 N   0  0  0  0  0  0  0  0  0  0  0  0
   63.6980   34.1620   50.6740 C   0  0  0  0  0  0  0  0  0  0  0  0
   65.0150   33.8500   51.3680 C   0  0  0  0  0  0  0  0  0  0  0  0
   65.7770   32.9570   50.4090 C   0  0  0  0  0  0  0  0  0  0  0  0
   64.8390   32.7380   49.2350 C   0  0  0  0  0  0  0  0  0  0  0  0
   62.7590   33.3760   47.0480 C   0  0  0  0  0  0  0  0  0  0  0  0
   61.4030   33.0990   46.3870 C   0  0  0  0  0  0  0  0  0  0  0  0
  1  2  2  0
  2  3  1  0
  3  4  2  0
  4  5  1  0
  5  6  2  0
  6  7  1  0
  7  8  1  0
  8  9  1  0
  9 10  2  0
  9 11  1  0
 11 12  1  0
 12 13  1  0
  6 14  1  0
 14 15  2  0
 15 16  1  0
  2 17  1  0
 17 18  1  0
 18 19  1  0
 19 20  1  0
 20 21  1  0
 21 22  1  0
 22 23  1  0
 23 24  1  0
 24 25  1  0
 20 26  1  0
 26 27  1  0
 15  3  1  0
 27 17  1  0
 12  7  2  0
 25 21  1  0
M  CHG  3   8  -1  11  -1  13  -1
M  END
>  <UniqueID>  (305) 
45

>  <SMILES>  (305) 
O=C(c1ccc(-c2[n-]c(=O)[n-]c2[O-])cc1F)N1CCC(N2CCCC2)CC1

>  <Energy>  (305) 
95.2135911274587

>  <Genealogy>  (305) 
O=C(c1ccc(-c2[n-]c(=O)[n-]c2[O-])cc1F)N1CCC(N2CCCC2)CC1 (protonated)
O=C(c1ccc(-c2[n-]c(=O)[n-]c2[O-])cc1F)N1CCC(N2CCCC2)CC1 (3D coordinates assigned)
O=C(c1ccc(-c2[n-]c(=O)[n-]c2[O-])cc1F)N1CCC(N2CCCC2)CC1 (nonaromatic ring conformer: 95.2135911274587 kcal/mol)

>  <smiles>  (305) 
O=C(c1ccc(-c2[nH]c(=O)[nH]c2O)cc1F)N1CCC(N2CCCC2)CC1

>  <score_type>  (305) 
oracle

>  <origin>  (305) 
adg

>  <m_score__min__energy>  (305) 
-14.9

>  <m_primary>  (305) 
energy

$$$$
76:0
     RDKit          3D

 30 32  0  0  0  0  0  0  0  0999 V2000
   57.3930   30.9540   44.3400 C   0  0  0  0  0  0  0  0  0  0  0  0
   57.3980   32.2020   43.9680 N   0  0  0  0  0  0  0  0  0  0  0  0
   57.6860   33.3550   44.7750 C   0  0  0  0  0  0  0  0  0  0  0  0
   56.7320   34.0870   45.1470 O   0  0  0  0  0  0  0  0  0  0  0  0
   59.0780   33.6780   45.2630 C   0  0  0  0  0  0  0  0  0  0  0  0
   59.2130   33.5870   46.7630 C   0  0  0  0  0  0  0  0  0  0  0  0
   59.9180   34.5720   47.4700 C   0  0  0  0  0  0  0  0  0  0  0  0
   60.0330   34.4970   48.8610 C   0  0  0  0  0  0  0  0  0  0  0  0
   59.4370   33.4450   49.5670 C   0  0  0  0  0  0  0  0  0  0  0  0
   59.5920   33.3990   50.9920 N   0  0  0  0  0  0  0  0  0  0  0  0
   58.5400   33.3450   51.9650 C   0  0  0  0  0  0  0  0  0  0  0  0
   58.1270   34.4070   52.5080 O   0  0  0  0  0  0  0  0  0  0  0  0
   57.9750   32.0380   52.3740 C   0  0  0  0  0  0  0  0  0  0  0  0
   57.1520   31.3020   51.5030 C   0  0  0  0  0  0  0  0  0  0  0  0
   56.6390   30.1040   51.8920 N   0  0  0  0  0  0  0  0  0  0  0  0
   56.8970   29.5790   53.1190 C   0  0  0  0  0  0  0  0  0  0  0  0
   57.7070   30.2710   54.0190 C   0  0  0  0  0  0  0  0  0  0  0  0
   58.2460   31.5030   53.6460 C   0  0  0  0  0  0  0  0  0  0  0  0
   58.7610   32.4380   48.8560 C   0  0  0  0  0  0  0  0  0  0  0  0
   58.6480   32.5110   47.4660 C   0  0  0  0  0  0  0  0  0  0  0  0
   56.2460   30.0400   44.1930 C   0  0  0  0  0  0  0  0  0  0  0  0
   55.5580   30.1030   43.1380 O   0  0  0  0  0  0  0  0  0  0  0  0
   55.9670   29.0490   45.1950 N   0  0  0  0  0  0  0  0  0  0  0  0
   56.7350   28.0600   45.5530 C   0  0  0  0  0  0  0  0  0  0  0  0
   58.0950   28.1720   45.5220 N   0  0  0  0  0  0  0  0  0  0  0  0
   58.9120   27.1470   45.8800 C   0  0  0  0  0  0  0  0  0  0  0  0
   58.3660   25.9300   46.2940 C   0  0  0  0  0  0  0  0  0  0  0  0
   56.9790   25.7840   46.3340 C   0  0  0  0  0  0  0  0  0  0  0  0
   56.1550   26.8490   45.9610 C   0  0  0  0  0  0  0  0  0  0  0  0
   54.7720   26.7000   45.9970 O   0  0  0  0  0  0  0  0  0  0  0  0
  1  2  2  3
  2  3  1  0
  3  4  2  0
  3  5  1  0
  5  6  1  0
  6  7  2  0
  7  8  1  0
  8  9  2  0
  9 10  1  0
 10 11  1  0
 11 12  2  0
 11 13  1  0
 13 14  2  0
 14 15  1  0
 15 16  2  0
 16 17  1  0
 17 18  2  0
  9 19  1  0
 19 20  2  0
  1 21  1  0
 21 22  2  0
 21 23  1  0
 23 24  2  0
 24 25  1  0
 25 26  1  0
 26 27  2  0
 27 28  1  0
 28 29  2  0
 29 30  1  0
 20  6  1  0
 29 24  1  0
 18 13  1  0
M  CHG  3  10  -1  25  -1  30  -1
M  END
>  <UniqueID>  (306) 
73

>  <SMILES>  (306) 
O=C(Cc1ccc([N-]C(=O)c2cccnc2)cc1)N=CC(=O)/N=c1\[n-]cccc1[O-]

>  <Energy>  (306) 
63.69321818365782

>  <Genealogy>  (306) 
O=C(C=NC(=O)Cc1ccc([N-]C(=O)c2cccnc2)cc1)N=c1[n-]cccc1[O-] (protonated)
O=C(Cc1ccc([N-]C(=O)c2cccnc2)cc1)N=CC(=O)/N=c1\[n-]cccc1[O-] (cis-trans isomerization)
O=C(Cc1ccc([N-]C(=O)c2cccnc2)cc1)N=CC(=O)/N=c1\[n-]cccc1[O-] (3D coordinates assigned)
O=C(Cc1ccc([N-]C(=O)c2cccnc2)cc1)N=CC(=O)/N=c1\[n-]cccc1[O-] (optimized conformer: 63.69321818365782 kcal/mol)

>  <smiles>  (306) 
O=C(C=NC(=O)Cc1ccc(NC(=O)c2cccnc2)cc1)N=c1[nH]cccc1O

>  <score_type>  (306) 
oracle

>  <origin>  (306) 
adg

>  <m_score__min__energy>  (306) 
-15.27

>  <m_primary>  (306) 
energy

$$$$
52:0
     RDKit          3D

 32 35  0  0  0  0  0  0  0  0999 V2000
   56.1320   24.3660   47.0140 C   0  0  0  0  0  0  0  0  0  0  0  0
   57.0510   25.4430   46.5100 C   0  0  0  0  0  0  0  0  0  0  0  0
   58.4360   25.2260   46.4860 C   0  0  0  0  0  0  0  0  0  0  0  0
   59.2920   26.2070   45.9900 C   0  0  0  0  0  0  0  0  0  0  0  0
   58.7780   27.4130   45.5120 C   0  0  0  0  0  0  0  0  0  0  0  0
   57.3930   27.6580   45.5210 C   0  0  0  0  0  0  0  0  0  0  0  0
   56.8800   28.9520   45.0000 C   0  0  0  0  0  0  0  0  0  0  0  0
   56.3640   29.0010   43.8500 O   0  0  0  0  0  0  0  0  0  0  0  0
   57.0270   30.1570   45.7640 N   0  0  0  0  0  0  0  0  0  0  0  0
   58.1550   30.5110   46.5760 C   0  0  0  0  0  0  0  0  0  0  0  0
   58.5020   29.6780   47.6460 C   0  0  0  0  0  0  0  0  0  0  0  0
   59.5980   29.9830   48.4740 C   0  0  0  0  0  0  0  0  0  0  0  0
   59.9620   29.0660   49.5850 C   0  0  0  0  0  0  0  0  0  0  0  0
   59.8300   29.3790   50.9440 C   0  0  0  0  0  0  0  0  0  0  0  0
   60.3710   28.0670   51.8480 S   0  0  0  0  0  0  0  0  0  0  0  0
   60.7480   27.1670   50.4870 C   0  0  0  0  0  0  0  0  0  0  0  0
   61.2320   26.0060   50.5120 O   0  0  0  0  0  0  0  0  0  0  0  0
   60.4800   27.8280   49.3440 N   0  0  0  0  0  0  0  0  0  0  0  0
   60.3250   31.1630   48.2280 C   0  0  0  0  0  0  0  0  0  0  0  0
   59.9720   32.0120   47.1710 C   0  0  0  0  0  0  0  0  0  0  0  0
   60.9010   33.4800   46.8610 S   0  0  0  0  0  0  0  0  0  0  0  0
   60.4920   34.0400   45.5280 O   0  0  0  0  0  0  0  0  0  0  0  0
   60.5700   34.5070   47.9090 O   0  0  0  0  0  0  0  0  0  0  0  0
   62.6290   33.1900   46.8570 N   0  0  0  0  0  0  0  0  0  0  0  0
   63.3680   34.1730   47.6720 C   0  0  0  0  0  0  0  0  0  0  0  0
   63.3730   33.8300   49.1810 C   0  0  0  0  0  0  0  0  0  0  0  0
   62.8580   32.5440   49.4650 O   0  0  0  0  0  0  0  0  0  0  0  0
   63.4560   31.5950   48.6160 C   0  0  0  0  0  0  0  0  0  0  0  0
   62.9740   31.7870   47.1690 C   0  0  0  0  0  0  0  0  0  0  0  0
   58.8820   31.6900   46.3560 C   0  0  0  0  0  0  0  0  0  0  0  0
   56.5260   26.6520   46.0130 C   0  0  0  0  0  0  0  0  0  0  0  0
   55.1460   26.8350   45.9980 O   0  0  0  0  0  0  0  0  0  0  0  0
  1  2  1  0
  2  3  2  0
  3  4  1  0
  4  5  2  0
  5  6  1  0
  6  7  1  0
  7  8  2  0
  7  9  1  0
  9 10  1  0
 10 11  2  0
 11 12  1  0
 12 13  1  0
 13 14  2  0
 14 15  1  0
 15 16  1  0
 16 17  2  0
 16 18  1  0
 12 19  2  0
 19 20  1  0
 20 21  1  0
 21 22  2  0
 21 23  2  0
 21 24  1  0
 24 25  1  0
 25 26  1  0
 26 27  1  0
 27 28  1  0
 28 29  1  0
 20 30  2  0
  6 31  2  0
 31 32  1  0
 31  2  1  0
 30 10  1  0
 18 13  1  0
 29 24  1  0
M  CHG  3   9  -1  18  -1  32  -1
M  END
>  <UniqueID>  (307) 
50

>  <SMILES>  (307) 
Cc1cccc(C(=O)[N-]c2cc(-c3csc(=O)[n-]3)cc(S(=O)(=O)N3CCOCC3)c2)c1[O-]

>  <Energy>  (307) 
102.54793869425218

>  <Genealogy>  (307) 
Cc1cccc(C(=O)[N-]c2cc(-c3csc(=O)[n-]3)cc(S(=O)(=O)N3CCOCC3)c2)c1[O-] (protonated)
Cc1cccc(C(=O)[N-]c2cc(-c3csc(=O)[n-]3)cc(S(=O)(=O)N3CCOCC3)c2)c1[O-] (3D coordinates assigned)
Cc1cccc(C(=O)[N-]c2cc(-c3csc(=O)[n-]3)cc(S(=O)(=O)N3CCOCC3)c2)c1[O-] (nonaromatic ring conformer: 102.54793869425218 kcal/mol)

>  <smiles>  (307) 
Cc1cccc(C(=O)Nc2cc(-c3csc(=O)[nH]3)cc(S(=O)(=O)N3CCOCC3)c2)c1O

>  <score_type>  (307) 
oracle

>  <origin>  (307) 
adg

>  <m_score__min__energy>  (307) 
-15.199999999999999

>  <m_primary>  (307) 
energy

$$$$
54:0
     RDKit          3D

 25 28  0  0  0  0  0  0  0  0999 V2000
   54.1630   27.9820   53.2500 C   0  0  0  0  0  0  0  0  0  0  0  0
   54.5100   29.3790   52.8330 C   0  0  0  0  0  0  0  0  0  0  0  0
   53.6290   30.3930   52.4450 C   0  0  0  0  0  0  0  0  0  0  0  0
   52.1340   30.2910   52.3830 C   0  0  0  0  0  0  0  0  0  0  0  0
   51.6400   30.7780   51.0560 C   0  0  0  0  0  0  0  0  0  0  0  0
   51.5810   30.0150   49.9490 N   0  0  0  0  0  0  0  0  0  0  0  0
   51.0420   30.8450   49.0300 C   0  0  0  0  0  0  0  0  0  0  0  0
   50.8250   30.4900   47.8420 O   0  0  0  0  0  0  0  0  0  0  0  0
   50.7500   32.0820   49.4840 N   0  0  0  0  0  0  0  0  0  0  0  0
   51.1320   32.0210   50.7690 C   0  0  0  0  0  0  0  0  0  0  0  0
   51.0200   33.0820   51.6590 O   0  0  0  0  0  0  0  0  0  0  0  0
   54.3140   31.4770   52.0120 N   0  0  0  0  0  0  0  0  0  0  0  0
   55.6160   31.1590   52.1190 C   0  0  0  0  0  0  0  0  0  0  0  0
   56.7060   31.9470   51.7600 C   0  0  0  0  0  0  0  0  0  0  0  0
   57.9920   31.4040   51.9160 C   0  0  0  0  0  0  0  0  0  0  0  0
   58.1710   30.0900   52.4230 C   0  0  0  0  0  0  0  0  0  0  0  0
   59.4940   29.5360   52.5560 N   0  0  0  0  0  0  0  0  0  0  0  0
   59.6710   28.1280   52.9250 C   0  0  0  0  0  0  0  0  0  0  0  0
   61.0770   27.6350   52.5390 C   0  0  0  0  0  0  0  0  0  0  0  0
   61.5250   28.2080   51.2510 N   0  0  0  0  0  0  0  0  0  0  0  0
   60.7330   27.6960   50.1190 C   0  0  0  0  0  0  0  0  0  0  0  0
   61.5850   29.6940   51.2560 C   0  0  0  0  0  0  0  0  0  0  0  0
   60.6880   30.3520   52.3210 C   0  0  0  0  0  0  0  0  0  0  0  0
   57.0380   29.3150   52.7620 C   0  0  0  0  0  0  0  0  0  0  0  0
   55.7750   29.8870   52.6060 C   0  0  0  0  0  0  0  0  0  0  0  0
  1  2  1  0
  2  3  2  0
  3  4  1  0
  4  5  1  0
  5  6  1  0
  6  7  1  0
  7  8  2  0
  7  9  1  0
  9 10  1  0
 10 11  1  0
  3 12  1  0
 12 13  1  0
 13 14  2  0
 14 15  1  0
 15 16  2  0
 16 17  1  0
 17 18  1  0
 18 19  1  0
 19 20  1  0
 20 21  1  0
 20 22  1  0
 22 23  1  0
 16 24  1  0
 24 25  2  0
 25  2  1  0
 10  5  2  0
 25 13  1  0
 23 17  1  0
M  CHG  3   6  -1   9  -1  11  -1
M  END
>  <UniqueID>  (308) 
52

>  <SMILES>  (308) 
Cc1c(Cc2[n-]c(=O)[n-]c2[O-])[nH]c2ccc(N3CCN(C)CC3)cc12

>  <Energy>  (308) 
118.23410409812392

>  <Genealogy>  (308) 
Cc1c(Cc2[n-]c(=O)[n-]c2[O-])[nH]c2ccc(N3CCN(C)CC3)cc12 (protonated)
Cc1c(Cc2[n-]c(=O)[n-]c2[O-])[nH]c2ccc(N3CCN(C)CC3)cc12 (3D coordinates assigned)
Cc1c(Cc2[n-]c(=O)[n-]c2[O-])[nH]c2ccc(N3CCN(C)CC3)cc12 (nonaromatic ring conformer: 118.23410409812392 kcal/mol)

>  <smiles>  (308) 
Cc1c(Cc2[nH]c(=O)[nH]c2O)[nH]c2ccc(N3CCN(C)CC3)cc12

>  <score_type>  (308) 
oracle

>  <origin>  (308) 
adg

>  <m_score__min__energy>  (308) 
-16.32

>  <m_primary>  (308) 
energy

$$$$
16:0
     RDKit          3D

 29 31  0  0  0  0  0  0  0  0999 V2000
   55.1400   29.8260   44.7320 O   0  0  0  0  0  0  0  0  0  0  0  0
   56.3100   29.3680   44.6440 C   0  0  0  0  0  0  0  0  0  0  0  0
   57.1410   29.6700   43.4290 C   0  0  0  0  0  0  0  0  0  0  0  0
   57.8860   31.0030   43.5690 C   0  0  0  0  0  0  0  0  0  0  0  0
   58.1430   31.3540   45.0130 C   0  0  0  0  0  0  0  0  0  0  0  0
   57.4960   32.4510   45.6040 C   0  0  0  0  0  0  0  0  0  0  0  0
   57.7660   32.7980   46.9300 C   0  0  0  0  0  0  0  0  0  0  0  0
   58.6900   32.0560   47.6800 C   0  0  0  0  0  0  0  0  0  0  0  0
   59.0740   32.5080   49.3380 S   0  0  0  0  0  0  0  0  0  0  0  0
   57.8630   32.3570   50.2160 O   0  0  0  0  0  0  0  0  0  0  0  0
   60.1550   31.6000   49.8530 O   0  0  0  0  0  0  0  0  0  0  0  0
   59.6340   34.1510   49.3830 N   0  0  0  0  0  0  0  0  0  0  0  0
   61.0050   34.1940   49.8960 C   0  0  0  0  0  0  0  0  0  0  0  0
   61.9650   33.8310   48.7980 C   0  0  0  0  0  0  0  0  0  0  0  0
   61.5500   33.8660   47.4580 C   0  0  0  0  0  0  0  0  0  0  0  0
   62.4330   33.4960   46.4370 C   0  0  0  0  0  0  0  0  0  0  0  0
   63.7290   33.0790   46.7500 C   0  0  0  0  0  0  0  0  0  0  0  0
   64.1440   33.0270   48.0840 C   0  0  0  0  0  0  0  0  0  0  0  0
   63.2650   33.3960   49.1070 C   0  0  0  0  0  0  0  0  0  0  0  0
   59.3430   30.9670   47.0890 C   0  0  0  0  0  0  0  0  0  0  0  0
   59.0740   30.6180   45.7630 C   0  0  0  0  0  0  0  0  0  0  0  0
   56.8850   28.6850   45.7630 N   0  0  0  0  0  0  0  0  0  0  0  0
   57.1490   27.4120   45.8680 C   0  0  0  0  0  0  0  0  0  0  0  0
   58.4580   27.0380   45.9040 N   0  0  0  0  0  0  0  0  0  0  0  0
   58.8470   25.7400   46.0040 C   0  0  0  0  0  0  0  0  0  0  0  0
   57.8900   24.7290   46.0780 C   0  0  0  0  0  0  0  0  0  0  0  0
   56.5380   25.0680   46.0640 C   0  0  0  0  0  0  0  0  0  0  0  0
   56.1500   26.4080   45.9710 C   0  0  0  0  0  0  0  0  0  0  0  0
   54.7930   26.7110   46.0150 O   0  0  0  0  0  0  0  0  0  0  0  0
  1  2  2  0
  2  3  1  0
  3  4  1  0
  4  5  1  0
  5  6  2  0
  6  7  1  0
  7  8  2  0
  8  9  1  0
  9 10  2  0
  9 11  2  0
  9 12  1  0
 12 13  1  0
 13 14  1  0
 14 15  2  0
 15 16  1  0
 16 17  2  0
 17 18  1  0
 18 19  2  0
  8 20  1  0
 20 21  2  0
  2 22  1  0
 22 23  2  3
 23 24  1  0
 24 25  1  0
 25 26  2  0
 26 27  1  0
 27 28  2  0
 28 29  1  0
 21  5  1  0
 28 23  1  0
 19 14  1  0
M  CHG  2  24  -1  29  -1
M  END
>  <UniqueID>  (309) 
16

>  <SMILES>  (309) 
O=C(CCc1ccc(S(=O)(=O)NCc2ccccc2)cc1)N=c1[n-]cccc1[O-]

>  <Energy>  (309) 
57.89965745571056

>  <Genealogy>  (309) 
O=C(CCc1ccc(S(=O)(=O)NCc2ccccc2)cc1)N=c1[n-]cccc1[O-] (protonated)
O=C(CCc1ccc(S(=O)(=O)NCc2ccccc2)cc1)N=c1[n-]cccc1[O-] (3D coordinates assigned)
O=C(CCc1ccc(S(=O)(=O)NCc2ccccc2)cc1)N=c1[n-]cccc1[O-] (optimized conformer: 57.89965745571056 kcal/mol)

>  <smiles>  (309) 
O=C(CCc1ccc(S(=O)(=O)NCc2ccccc2)cc1)N=c1[nH]cccc1O

>  <score_type>  (309) 
oracle

>  <origin>  (309) 
adg

>  <m_score__min__energy>  (309) 
-14.83

>  <m_primary>  (309) 
energy

$$$$
64:0
     RDKit          3D

 26 28  0  0  0  0  0  0  0  0999 V2000
   55.8410   22.4600   42.9200 O   0  0  0  0  0  0  0  0  0  0  0  0
   56.2150   23.2370   43.8360 C   0  0  0  0  0  0  0  0  0  0  0  0
   57.5470   23.2700   44.2350 C   0  0  0  0  0  0  0  0  0  0  0  0
   57.9110   24.1220   45.2260 N   0  0  0  0  0  0  0  0  0  0  0  0
   57.0220   24.9200   45.8260 N   0  0  0  0  0  0  0  0  0  0  0  0
   57.4960   25.8440   46.8600 C   0  0  0  0  0  0  0  0  0  0  0  0
   57.1450   27.2540   46.4920 C   0  0  0  0  0  0  0  0  0  0  0  0
   57.8840   27.9470   45.6220 C   0  0  0  0  0  0  0  0  0  0  0  0
   57.5410   29.3260   45.2390 C   0  0  0  0  0  0  0  0  0  0  0  0
   56.2830   29.7650   44.8930 C   0  0  0  0  0  0  0  0  0  0  0  0
   55.1480   28.9720   44.7940 O   0  0  0  0  0  0  0  0  0  0  0  0
   56.2890   31.0920   44.6580 N   0  0  0  0  0  0  0  0  0  0  0  0
   57.5750   31.4340   44.8880 C   0  0  0  0  0  0  0  0  0  0  0  0
   57.9850   32.6230   44.8050 O   0  0  0  0  0  0  0  0  0  0  0  0
   58.3690   30.3950   45.2380 N   0  0  0  0  0  0  0  0  0  0  0  0
   59.7370   30.4910   45.7580 C   0  0  0  0  0  0  0  0  0  0  0  0
   59.7950   31.4900   46.8830 C   0  0  0  0  0  0  0  0  0  0  0  0
   60.7350   32.5330   46.8550 C   0  0  0  0  0  0  0  0  0  0  0  0
   60.7630   33.4820   47.8810 C   0  0  0  0  0  0  0  0  0  0  0  0
   59.8490   33.4030   48.9350 C   0  0  0  0  0  0  0  0  0  0  0  0
   58.8990   32.3740   48.9660 C   0  0  0  0  0  0  0  0  0  0  0  0
   57.9780   32.2880   50.0070 O   0  0  0  0  0  0  0  0  0  0  0  0
   58.8730   31.4230   47.9400 C   0  0  0  0  0  0  0  0  0  0  0  0
   55.7110   24.9000   45.4290 C   0  0  0  0  0  0  0  0  0  0  0  0
   54.8600   25.6600   45.9660 O   0  0  0  0  0  0  0  0  0  0  0  0
   55.3200   24.0560   44.4410 N   0  0  0  0  0  0  0  0  0  0  0  0
  1  2  2  0
  2  3  1  0
  3  4  2  0
  4  5  1  0
  5  6  1  0
  6  7  1  0
  7  8  2  3
  8  9  1  0
  9 10  2  0
 10 11  1  0
 10 12  1  0
 12 13  1  0
 13 14  2  0
 13 15  1  0
 15 16  1  0
 16 17  1  0
 17 18  2  0
 18 19  1  0
 19 20  2  0
 20 21  1  0
 21 22  1  0
 21 23  2  0
  5 24  1  0
 24 25  2  0
 24 26  1  0
 26  2  1  0
 15  9  1  0
 23 17  1  0
M  CHG  3  11  -1  12  -1  26  -1
M  END
>  <UniqueID>  (310) 
60

>  <SMILES>  (310) 
O=c1cnn(CC=Cc2c([O-])[n-]c(=O)n2Cc2cccc(O)c2)c(=O)[n-]1

>  <Energy>  (310) 
73.28486989872145

>  <Genealogy>  (310) 
O=c1cnn(CC=Cc2c([O-])[n-]c(=O)n2Cc2cccc(O)c2)c(=O)[n-]1 (protonated)
O=c1cnn(CC=Cc2c([O-])[n-]c(=O)n2Cc2cccc(O)c2)c(=O)[n-]1 (3D coordinates assigned)
O=c1cnn(CC=Cc2c([O-])[n-]c(=O)n2Cc2cccc(O)c2)c(=O)[n-]1 (optimized conformer: 73.28486989872145 kcal/mol)

>  <smiles>  (310) 
O=c1cnn(CC=Cc2c(O)[nH]c(=O)n2Cc2cccc(O)c2)c(=O)[nH]1

>  <score_type>  (310) 
oracle

>  <origin>  (310) 
adg

>  <m_score__min__energy>  (310) 
-14.220000000000001

>  <m_primary>  (310) 
energy

$$$$
73:0
     RDKit          3D

 31 33  0  0  0  0  0  0  0  0999 V2000
   64.6250   32.6500   49.8470 C   0  0  0  0  0  0  0  0  0  0  0  0
   64.3060   33.0360   48.5170 O   0  0  0  0  0  0  0  0  0  0  0  0
   63.0300   33.4370   48.0950 C   0  0  0  0  0  0  0  0  0  0  0  0
   62.0900   33.7930   49.0680 C   0  0  0  0  0  0  0  0  0  0  0  0
   60.8060   34.2020   48.7010 C   0  0  0  0  0  0  0  0  0  0  0  0
   60.4330   34.2330   47.3430 C   0  0  0  0  0  0  0  0  0  0  0  0
   59.1340   34.6690   46.9140 N   0  0  0  0  0  0  0  0  0  0  0  0
   57.9580   33.8640   46.7550 C   0  0  0  0  0  0  0  0  0  0  0  0
   57.5850   33.0750   47.6630 O   0  0  0  0  0  0  0  0  0  0  0  0
   57.1740   33.9520   45.4860 C   0  0  0  0  0  0  0  0  0  0  0  0
   58.0850   33.1620   44.1150 S   0  0  0  0  0  0  0  0  0  0  0  0
   57.8580   31.4920   44.7270 C   0  0  0  0  0  0  0  0  0  0  0  0
   58.8440   30.8920   45.4430 N   0  0  0  0  0  0  0  0  0  0  0  0
   58.6820   29.6410   45.9460 C   0  0  0  0  0  0  0  0  0  0  0  0
   59.6100   29.1170   46.6200 O   0  0  0  0  0  0  0  0  0  0  0  0
   57.4930   28.9410   45.7110 C   0  0  0  0  0  0  0  0  0  0  0  0
   57.3070   27.6360   46.2780 N   0  0  0  0  0  0  0  0  0  0  0  0
   56.7730   26.4960   45.5900 C   0  0  0  0  0  0  0  0  0  0  0  0
   55.6390   26.0590   45.9240 O   0  0  0  0  0  0  0  0  0  0  0  0
   57.5750   25.7450   44.5620 C   0  0  0  0  0  0  0  0  0  0  0  0
   57.1660   24.2970   44.5480 C   0  0  0  0  0  0  0  0  0  0  0  0
   56.7090   23.7050   43.3580 C   0  0  0  0  0  0  0  0  0  0  0  0
   56.3710   22.3470   43.3320 C   0  0  0  0  0  0  0  0  0  0  0  0
   56.4870   21.5750   44.4920 C   0  0  0  0  0  0  0  0  0  0  0  0
   56.9480   22.1560   45.6770 C   0  0  0  0  0  0  0  0  0  0  0  0
   57.2910   23.5110   45.7080 C   0  0  0  0  0  0  0  0  0  0  0  0
   56.4790   29.5860   44.9810 C   0  0  0  0  0  0  0  0  0  0  0  0
   55.2490   28.9680   44.7690 O   0  0  0  0  0  0  0  0  0  0  0  0
   56.6880   30.8410   44.5010 N   0  0  0  0  0  0  0  0  0  0  0  0
   61.3790   33.8950   46.3690 C   0  0  0  0  0  0  0  0  0  0  0  0
   62.6660   33.4940   46.7370 C   0  0  0  0  0  0  0  0  0  0  0  0
  1  2  1  0
  2  3  1  0
  3  4  2  0
  4  5  1  0
  5  6  2  0
  6  7  1  0
  7  8  1  0
  8  9  2  0
  8 10  1  0
 10 11  1  0
 11 12  1  0
 12 13  2  0
 13 14  1  0
 14 15  2  0
 14 16  1  0
 16 17  1  0
 17 18  1  0
 18 19  2  0
 18 20  1  0
 20 21  1  0
 21 22  2  0
 22 23  1  0
 23 24  2  0
 24 25  1  0
 25 26  2  0
 16 27  2  0
 27 28  1  0
 27 29  1  0
  6 30  1  0
 30 31  2  0
 31  3  1  0
 29 12  1  0
 26 21  1  0
M  CHG  3   7  -1  17  -1  29  -1
M  END
>  <UniqueID>  (311) 
69

>  <SMILES>  (311) 
COc1ccc([N-]C(=O)CSc2nc(=O)c([N-]C(=O)Cc3ccccc3)c(O)[n-]2)cc1

>  <Energy>  (311) 
53.54033418948296

>  <Genealogy>  (311) 
COc1ccc([N-]C(=O)CSc2nc(=O)c([N-]C(=O)Cc3ccccc3)c(O)[n-]2)cc1 (protonated)
COc1ccc([N-]C(=O)CSc2nc(=O)c([N-]C(=O)Cc3ccccc3)c(O)[n-]2)cc1 (3D coordinates assigned)
COc1ccc([N-]C(=O)CSc2nc(=O)c([N-]C(=O)Cc3ccccc3)c(O)[n-]2)cc1 (optimized conformer: 53.54033418948296 kcal/mol)

>  <smiles>  (311) 
COc1ccc(NC(=O)CSc2nc(=O)c(NC(=O)Cc3ccccc3)c(O)[nH]2)cc1

>  <score_type>  (311) 
oracle

>  <origin>  (311) 
adg

>  <m_score__min__energy>  (311) 
-14.34

>  <m_primary>  (311) 
energy

$$$$
9:0
     RDKit          3D

 29 31  0  0  0  0  0  0  0  0999 V2000
   56.0280   29.4010   45.2350 O   0  0  0  0  0  0  0  0  0  0  0  0
   57.2490   29.3960   45.5480 C   0  0  0  0  0  0  0  0  0  0  0  0
   57.9880   28.2410   45.3210 O   0  0  0  0  0  0  0  0  0  0  0  0
   57.8760   30.6030   46.1450 C   0  0  0  0  0  0  0  0  0  0  0  0
   58.5670   30.4950   47.3670 C   0  0  0  0  0  0  0  0  0  0  0  0
   59.1730   31.6170   47.9560 C   0  0  0  0  0  0  0  0  0  0  0  0
   59.8770   31.4980   49.2820 C   0  0  0  0  0  0  0  0  0  0  0  0
   58.9730   31.8830   50.3780 N   0  0  0  0  0  0  0  0  0  0  0  0
   59.1370   33.1080   50.9690 C   0  0  0  0  0  0  0  0  0  0  0  0
   58.2780   33.5320   51.9830 C   0  0  0  0  0  0  0  0  0  0  0  0
   57.2460   32.6980   52.4010 C   0  0  0  0  0  0  0  0  0  0  0  0
   57.0820   31.4420   51.8120 C   0  0  0  0  0  0  0  0  0  0  0  0
   55.9820   30.5680   52.2630 C   0  0  0  0  0  0  0  0  0  0  0  0
   56.1650   29.3220   52.3030 O   0  0  0  0  0  0  0  0  0  0  0  0
   54.7010   31.0930   52.6270 N   0  0  0  0  0  0  0  0  0  0  0  0
   53.5720   31.2070   51.7100 C   0  0  0  0  0  0  0  0  0  0  0  0
   52.3160   31.4600   52.4970 C   0  0  0  0  0  0  0  0  0  0  0  0
   52.1840   30.9350   53.7940 C   0  0  0  0  0  0  0  0  0  0  0  0
   51.0320   31.1880   54.5440 C   0  0  0  0  0  0  0  0  0  0  0  0
   50.0080   31.9760   54.0110 C   0  0  0  0  0  0  0  0  0  0  0  0
   50.1360   32.5160   52.7290 C   0  0  0  0  0  0  0  0  0  0  0  0
   51.2870   32.2660   51.9720 C   0  0  0  0  0  0  0  0  0  0  0  0
   51.4010   32.8250   50.7030 O   0  0  0  0  0  0  0  0  0  0  0  0
   57.9490   31.0550   50.7710 C   0  0  0  0  0  0  0  0  0  0  0  0
   57.7680   29.9480   50.1900 O   0  0  0  0  0  0  0  0  0  0  0  0
   59.0750   32.8620   47.3230 C   0  0  0  0  0  0  0  0  0  0  0  0
   58.3940   32.9840   46.1110 C   0  0  0  0  0  0  0  0  0  0  0  0
   57.7950   31.8680   45.5190 C   0  0  0  0  0  0  0  0  0  0  0  0
   57.1250   32.0330   44.3110 O   0  0  0  0  0  0  0  0  0  0  0  0
  1  2  2  0
  2  3  1  0
  2  4  1  0
  4  5  2  0
  5  6  1  0
  6  7  1  0
  7  8  1  0
  8  9  1  0
  9 10  2  0
 10 11  1  0
 11 12  2  0
 12 13  1  0
 13 14  2  0
 13 15  1  0
 15 16  1  0
 16 17  1  0
 17 18  2  0
 18 19  1  0
 19 20  2  0
 20 21  1  0
 21 22  2  0
 22 23  1  0
 12 24  1  0
 24 25  2  0
  6 26  2  0
 26 27  1  0
 27 28  2  0
 28 29  1  0
 28  4  1  0
 24  8  1  0
 22 17  1  0
M  CHG  4   3  -1  15  -1  23  -1  29  -1
M  END
>  <UniqueID>  (312) 
9

>  <SMILES>  (312) 
O=C([O-])c1cc(Cn2cccc(C(=O)[N-]Cc3ccccc3[O-])c2=O)ccc1[O-]

>  <Energy>  (312) 
55.29197531057999

>  <Genealogy>  (312) 
O=C([O-])c1cc(Cn2cccc(C(=O)[N-]Cc3ccccc3[O-])c2=O)ccc1[O-] (protonated)
O=C([O-])c1cc(Cn2cccc(C(=O)[N-]Cc3ccccc3[O-])c2=O)ccc1[O-] (3D coordinates assigned)
O=C([O-])c1cc(Cn2cccc(C(=O)[N-]Cc3ccccc3[O-])c2=O)ccc1[O-] (optimized conformer: 55.29197531057999 kcal/mol)

>  <smiles>  (312) 
O=C(O)c1cc(Cn2cccc(C(=O)NCc3ccccc3O)c2=O)ccc1O

>  <score_type>  (312) 
oracle

>  <origin>  (312) 
adg

>  <m_score__min__energy>  (312) 
-17.850000000000001

>  <m_primary>  (312) 
energy

$$$$
11:0
     RDKit          3D

 31 33  0  0  0  0  0  0  0  0999 V2000
   54.7200   26.2920   45.9420 N   0  0  0  0  0  0  0  0  0  0  0  0
   56.2260   25.4500   46.0150 S   0  0  0  0  0  0  0  0  0  0  0  0
   56.5020   25.0510   47.4370 O   0  0  0  0  0  0  0  0  0  0  0  0
   56.1470   24.2050   45.1760 O   0  0  0  0  0  0  0  0  0  0  0  0
   57.5260   26.4810   45.4180 C   0  0  0  0  0  0  0  0  0  0  0  0
   57.7800   26.5780   44.0410 C   0  0  0  0  0  0  0  0  0  0  0  0
   58.7710   27.4450   43.5700 C   0  0  0  0  0  0  0  0  0  0  0  0
   59.5160   28.2130   44.4690 C   0  0  0  0  0  0  0  0  0  0  0  0
   59.3060   28.0830   45.8540 C   0  0  0  0  0  0  0  0  0  0  0  0
   60.0240   28.8870   46.7970 N   0  0  0  0  0  0  0  0  0  0  0  0
   59.9360   30.3110   46.9570 C   0  0  0  0  0  0  0  0  0  0  0  0
   60.9970   30.9900   46.9140 O   0  0  0  0  0  0  0  0  0  0  0  0
   58.6140   31.0280   47.0200 C   0  0  0  0  0  0  0  0  0  0  0  0
   58.4710   31.9140   45.8640 N   0  0  0  0  0  0  0  0  0  0  0  0
   57.8400   31.4400   44.6660 C   0  0  0  0  0  0  0  0  0  0  0  0
   58.0780   32.0890   43.4450 C   0  0  0  0  0  0  0  0  0  0  0  0
   57.4770   31.6250   42.2720 C   0  0  0  0  0  0  0  0  0  0  0  0
   56.6270   30.5180   42.3130 C   0  0  0  0  0  0  0  0  0  0  0  0
   56.3640   29.8810   43.5320 C   0  0  0  0  0  0  0  0  0  0  0  0
   56.9690   30.3390   44.7070 C   0  0  0  0  0  0  0  0  0  0  0  0
   56.6870   29.7120   45.9150 O   0  0  0  0  0  0  0  0  0  0  0  0
   58.9330   33.5840   45.9910 S   0  0  0  0  0  0  0  0  0  0  0  0
   59.3740   34.0940   44.6470 O   0  0  0  0  0  0  0  0  0  0  0  0
   57.7510   34.3970   46.4420 O   0  0  0  0  0  0  0  0  0  0  0  0
   60.2530   33.7490   47.1460 C   0  0  0  0  0  0  0  0  0  0  0  0
   59.9790   33.8530   48.5180 C   0  0  0  0  0  0  0  0  0  0  0  0
   61.0270   33.9500   49.4390 C   0  0  0  0  0  0  0  0  0  0  0  0
   62.3530   33.9480   48.9950 C   0  0  0  0  0  0  0  0  0  0  0  0
   62.6310   33.8500   47.6280 C   0  0  0  0  0  0  0  0  0  0  0  0
   61.5850   33.7500   46.7060 C   0  0  0  0  0  0  0  0  0  0  0  0
   58.3000   27.2250   46.3200 C   0  0  0  0  0  0  0  0  0  0  0  0
  1  2  1  0
  2  3  2  0
  2  4  2  0
  2  5  1  0
  5  6  2  0
  6  7  1  0
  7  8  2  0
  8  9  1  0
  9 10  1  0
 10 11  1  0
 11 12  2  0
 11 13  1  0
 13 14  1  0
 14 15  1  0
 15 16  2  0
 16 17  1  0
 17 18  2  0
 18 19  1  0
 19 20  2  0
 20 21  1  0
 14 22  1  0
 22 23  2  0
 22 24  2  0
 22 25  1  0
 25 26  2  0
 26 27  1  0
 27 28  2  0
 28 29  1  0
 29 30  2  0
  9 31  2  0
 31  5  1  0
 20 15  1  0
 30 25  1  0
M  CHG  3   1  -1  10  -1  21  -1
M  END
>  <UniqueID>  (313) 
11

>  <SMILES>  (313) 
[NH-]S(=O)(=O)c1cccc([N-]C(=O)CN(c2ccccc2[O-])S(=O)(=O)c2ccccc2)c1

>  <Energy>  (313) 
56.14654330460542

>  <Genealogy>  (313) 
[NH-]S(=O)(=O)c1cccc([N-]C(=O)CN(c2ccccc2[O-])S(=O)(=O)c2ccccc2)c1 (protonated)
[NH-]S(=O)(=O)c1cccc([N-]C(=O)CN(c2ccccc2[O-])S(=O)(=O)c2ccccc2)c1 (3D coordinates assigned)
[NH-]S(=O)(=O)c1cccc([N-]C(=O)CN(c2ccccc2[O-])S(=O)(=O)c2ccccc2)c1 (optimized conformer: 56.14654330460542 kcal/mol)

>  <smiles>  (313) 
NS(=O)(=O)c1cccc(NC(=O)CN(c2ccccc2O)S(=O)(=O)c2ccccc2)c1

>  <score_type>  (313) 
oracle

>  <origin>  (313) 
adg

>  <m_score__min__energy>  (313) 
-15.300000000000001

>  <m_primary>  (313) 
energy

$$$$
27:0
     RDKit          3D

 24 25  0  0  0  0  0  0  0  0999 V2000
   59.6390   34.5640   49.0430 N   0  0  0  0  0  0  0  0  0  0  0  0
   59.2250   32.9860   48.4710 S   0  0  0  0  0  0  0  0  0  0  0  0
   58.1050   32.4270   49.3030 O   0  0  0  0  0  0  0  0  0  0  0  0
   60.4170   32.0800   48.5970 O   0  0  0  0  0  0  0  0  0  0  0  0
   58.7240   33.0840   46.7850 C   0  0  0  0  0  0  0  0  0  0  0  0
   59.2710   34.0620   45.9430 C   0  0  0  0  0  0  0  0  0  0  0  0
   58.8760   34.1360   44.6040 C   0  0  0  0  0  0  0  0  0  0  0  0
   57.9260   33.2430   44.1010 C   0  0  0  0  0  0  0  0  0  0  0  0
   57.3440   32.2790   44.9470 C   0  0  0  0  0  0  0  0  0  0  0  0
   56.3800   31.3290   44.4700 N   0  0  0  0  0  0  0  0  0  0  0  0
   56.3200   29.9340   44.7950 C   0  0  0  0  0  0  0  0  0  0  0  0
   55.2130   29.3320   44.8710 O   0  0  0  0  0  0  0  0  0  0  0  0
   57.5880   29.1910   45.0610 C   0  0  0  0  0  0  0  0  0  0  0  0
   57.4080   28.3070   46.1590 O   0  0  0  0  0  0  0  0  0  0  0  0
   58.0480   27.0870   46.1930 N   0  0  0  0  0  0  0  0  0  0  0  0
   57.5380   26.0500   46.7840 C   0  0  0  0  0  0  0  0  0  0  0  0
   56.6740   25.0780   46.0850 C   0  0  0  0  0  0  0  0  0  0  0  0
   57.2130   23.8380   45.7100 C   0  0  0  0  0  0  0  0  0  0  0  0
   56.4280   22.9010   45.0280 C   0  0  0  0  0  0  0  0  0  0  0  0
   55.1060   23.2070   44.6970 C   0  0  0  0  0  0  0  0  0  0  0  0
   54.5680   24.4500   45.0380 C   0  0  0  0  0  0  0  0  0  0  0  0
   55.3470   25.3920   45.7210 C   0  0  0  0  0  0  0  0  0  0  0  0
   54.8050   26.6410   46.0030 O   0  0  0  0  0  0  0  0  0  0  0  0
   57.7620   32.1960   46.2820 C   0  0  0  0  0  0  0  0  0  0  0  0
  1  2  1  0
  2  3  2  0
  2  4  2  0
  2  5  1  0
  5  6  2  0
  6  7  1  0
  7  8  2  0
  8  9  1  0
  9 10  1  0
 10 11  1  0
 11 12  2  0
 11 13  1  0
 13 14  1  0
 14 15  1  0
 15 16  2  0
 16 17  1  0
 17 18  2  0
 18 19  1  0
 19 20  2  0
 20 21  1  0
 21 22  2  0
 22 23  1  0
  9 24  2  0
 24  5  1  0
 22 17  1  0
M  CHG  3   1  -1  10  -1  23  -1
M  END
>  <UniqueID>  (314) 
26

>  <SMILES>  (314) 
[NH-]S(=O)(=O)c1cccc([N-]C(=O)CO/N=C\c2ccccc2[O-])c1

>  <Energy>  (314) 
41.59341461711137

>  <Genealogy>  (314) 
[NH-]S(=O)(=O)c1cccc([N-]C(=O)CON=Cc2ccccc2[O-])c1 (protonated)
[NH-]S(=O)(=O)c1cccc([N-]C(=O)CO/N=C\c2ccccc2[O-])c1 (cis-trans isomerization)
[NH-]S(=O)(=O)c1cccc([N-]C(=O)CO/N=C\c2ccccc2[O-])c1 (3D coordinates assigned)
[NH-]S(=O)(=O)c1cccc([N-]C(=O)CO/N=C\c2ccccc2[O-])c1 (optimized conformer: 41.59341461711137 kcal/mol)

>  <smiles>  (314) 
NS(=O)(=O)c1cccc(NC(=O)CON=Cc2ccccc2O)c1

>  <score_type>  (314) 
oracle

>  <origin>  (314) 
adg

>  <m_score__min__energy>  (314) 
-14.32

>  <m_primary>  (314) 
energy

$$$$
35:0
     RDKit          3D

 28 30  0  0  0  0  0  0  0  0999 V2000
   57.7050   31.9460   50.5880 N   0  0  0  0  0  0  0  0  0  0  0  0
   58.0260   30.6080   51.6330 S   0  0  0  0  0  0  0  0  0  0  0  0
   56.7310   29.9390   51.9980 O   0  0  0  0  0  0  0  0  0  0  0  0
   58.6860   31.0990   52.8920 O   0  0  0  0  0  0  0  0  0  0  0  0
   59.0850   29.4640   50.8160 C   0  0  0  0  0  0  0  0  0  0  0  0
   60.0380   28.7380   51.5420 C   0  0  0  0  0  0  0  0  0  0  0  0
   60.8550   27.8110   50.8930 C   0  0  0  0  0  0  0  0  0  0  0  0
   60.7310   27.6070   49.5160 C   0  0  0  0  0  0  0  0  0  0  0  0
   59.7900   28.3400   48.7720 C   0  0  0  0  0  0  0  0  0  0  0  0
   59.6090   28.1210   47.3620 N   0  0  0  0  0  0  0  0  0  0  0  0
   59.1250   26.8960   46.7910 C   0  0  0  0  0  0  0  0  0  0  0  0
   59.1960   25.8150   47.4360 O   0  0  0  0  0  0  0  0  0  0  0  0
   58.5200   26.9010   45.4230 C   0  0  0  0  0  0  0  0  0  0  0  0
   57.8250   28.2050   45.1880 C   0  0  0  0  0  0  0  0  0  0  0  0
   58.5960   29.6660   44.8680 S   0  0  0  0  0  0  0  0  0  0  0  0
   57.1530   30.5440   44.9010 C   0  0  0  0  0  0  0  0  0  0  0  0
   57.0260   31.8210   44.6840 N   0  0  0  0  0  0  0  0  0  0  0  0
   57.8150   32.8630   45.2770 C   0  0  0  0  0  0  0  0  0  0  0  0
   58.1700   33.9720   44.4990 C   0  0  0  0  0  0  0  0  0  0  0  0
   58.9150   35.0150   45.0550 C   0  0  0  0  0  0  0  0  0  0  0  0
   59.2830   34.9720   46.4020 C   0  0  0  0  0  0  0  0  0  0  0  0
   58.8860   33.8960   47.2090 C   0  0  0  0  0  0  0  0  0  0  0  0
   59.2880   33.8440   48.6530 C   0  0  0  0  0  0  0  0  0  0  0  0
   58.1570   32.8400   46.6410 C   0  0  0  0  0  0  0  0  0  0  0  0
   56.0880   29.7500   45.1460 N   0  0  0  0  0  0  0  0  0  0  0  0
   56.4620   28.4550   45.3210 C   0  0  0  0  0  0  0  0  0  0  0  0
   55.5350   27.4630   45.6150 O   0  0  0  0  0  0  0  0  0  0  0  0
   58.9560   29.2540   49.4360 C   0  0  0  0  0  0  0  0  0  0  0  0
  1  2  1  0
  2  3  2  0
  2  4  2  0
  2  5  1  0
  5  6  2  0
  6  7  1  0
  7  8  2  0
  8  9  1  0
  9 10  1  0
 10 11  1  0
 11 12  2  0
 11 13  1  0
 13 14  1  0
 14 15  1  0
 15 16  1  0
 16 17  2  0
 17 18  1  0
 18 19  2  0
 19 20  1  0
 20 21  2  0
 21 22  1  0
 22 23  1  0
 22 24  2  0
 16 25  1  0
 25 26  1  0
 26 27  1  0
  9 28  2  0
 28  5  1  0
 26 14  2  0
 24 18  1  0
M  CHG  3   1  -1  25  -1  27  -1
M  END
>  <UniqueID>  (315) 
34

>  <SMILES>  (315) 
Cc1cccc(/N=c2/[n-]c([O-])c(CC(=O)Nc3cccc(S([NH-])(=O)=O)c3)s2)c1

>  <Energy>  (315) 
82.5273841720722

>  <Genealogy>  (315) 
Cc1cccc(N=c2[n-]c([O-])c(CC(=O)Nc3cccc(S([NH-])(=O)=O)c3)s2)c1 (protonated)
Cc1cccc(/N=c2/[n-]c([O-])c(CC(=O)Nc3cccc(S([NH-])(=O)=O)c3)s2)c1 (cis-trans isomerization)
Cc1cccc(/N=c2/[n-]c([O-])c(CC(=O)Nc3cccc(S([NH-])(=O)=O)c3)s2)c1 (3D coordinates assigned)
Cc1cccc(/N=c2/[n-]c([O-])c(CC(=O)Nc3cccc(S([NH-])(=O)=O)c3)s2)c1 (optimized conformer: 82.5273841720722 kcal/mol)

>  <smiles>  (315) 
Cc1cccc(N=c2[nH]c(O)c(CC(=O)Nc3cccc(S(N)(=O)=O)c3)s2)c1

>  <score_type>  (315) 
oracle

>  <origin>  (315) 
adg

>  <m_score__min__energy>  (315) 
-14.99

>  <m_primary>  (315) 
energy

$$$$
42:0
     RDKit          3D

 30 33  0  0  0  0  0  0  0  0999 V2000
   60.9630   34.7860   48.5700 O   0  0  0  0  0  0  0  0  0  0  0  0
   60.4860   33.8160   47.9210 C   0  0  0  0  0  0  0  0  0  0  0  0
   59.3320   33.9930   47.2290 N   0  0  0  0  0  0  0  0  0  0  0  0
   58.7820   32.9910   46.5020 C   0  0  0  0  0  0  0  0  0  0  0  0
   57.5900   33.2070   45.8030 C   0  0  0  0  0  0  0  0  0  0  0  0
   57.0180   32.1730   45.0570 C   0  0  0  0  0  0  0  0  0  0  0  0
   57.6320   30.9150   45.0060 C   0  0  0  0  0  0  0  0  0  0  0  0
   56.9010   29.6030   44.0860 S   0  0  0  0  0  0  0  0  0  0  0  0
   57.9890   28.8430   43.3820 O   0  0  0  0  0  0  0  0  0  0  0  0
   55.9380   30.1430   43.0650 O   0  0  0  0  0  0  0  0  0  0  0  0
   56.0500   28.5300   45.1530 N   0  0  0  0  0  0  0  0  0  0  0  0
   56.6470   27.3700   45.7630 C   0  0  0  0  0  0  0  0  0  0  0  0
   58.0380   27.2870   45.9750 C   0  0  0  0  0  0  0  0  0  0  0  0
   58.6000   26.1500   46.5610 C   0  0  0  0  0  0  0  0  0  0  0  0
   57.7840   25.0860   46.9500 C   0  0  0  0  0  0  0  0  0  0  0  0
   56.4030   25.1590   46.7550 C   0  0  0  0  0  0  0  0  0  0  0  0
   55.8340   26.2930   46.1670 C   0  0  0  0  0  0  0  0  0  0  0  0
   54.4560   26.3380   45.9790 O   0  0  0  0  0  0  0  0  0  0  0  0
   58.8330   30.6980   45.6970 C   0  0  0  0  0  0  0  0  0  0  0  0
   59.4120   31.7340   46.4540 C   0  0  0  0  0  0  0  0  0  0  0  0
   60.6050   31.5600   47.1770 C   0  0  0  0  0  0  0  0  0  0  0  0
   61.1860   30.4380   47.1700 O   0  0  0  0  0  0  0  0  0  0  0  0
   61.1280   32.6030   47.9000 N   0  0  0  0  0  0  0  0  0  0  0  0
   62.3540   32.4250   48.6400 C   0  0  0  0  0  0  0  0  0  0  0  0
   62.4140   31.5050   49.7000 C   0  0  0  0  0  0  0  0  0  0  0  0
   63.6030   31.3320   50.4150 C   0  0  0  0  0  0  0  0  0  0  0  0
   64.7380   32.0750   50.0790 C   0  0  0  0  0  0  0  0  0  0  0  0
   65.8900   31.9070   50.7730 F   0  0  0  0  0  0  0  0  0  0  0  0
   64.6850   32.9930   49.0250 C   0  0  0  0  0  0  0  0  0  0  0  0
   63.4980   33.1680   48.3080 C   0  0  0  0  0  0  0  0  0  0  0  0
  1  2  2  0
  2  3  1  0
  3  4  1  0
  4  5  2  0
  5  6  1  0
  6  7  2  0
  7  8  1  0
  8  9  2  0
  8 10  2  0
  8 11  1  0
 11 12  1  0
 12 13  2  0
 13 14  1  0
 14 15  2  0
 15 16  1  0
 16 17  2  0
 17 18  1  0
  7 19  1  0
 19 20  2  0
 20 21  1  0
 21 22  2  0
 21 23  1  0
 23 24  1  0
 24 25  2  0
 25 26  1  0
 26 27  2  0
 27 28  1  0
 27 29  1  0
 29 30  2  0
 23  2  1  0
 30 24  1  0
 20  4  1  0
 17 12  1  0
M  CHG  2   3  -1  18  -1
M  END
>  <UniqueID>  (316) 
41

>  <SMILES>  (316) 
O=c1[n-]c2ccc(S(=O)(=O)Nc3ccccc3[O-])cc2c(=O)n1-c1ccc(F)cc1

>  <Energy>  (316) 
65.03251125237009

>  <Genealogy>  (316) 
O=c1[n-]c2ccc(S(=O)(=O)Nc3ccccc3[O-])cc2c(=O)n1-c1ccc(F)cc1 (protonated)
O=c1[n-]c2ccc(S(=O)(=O)Nc3ccccc3[O-])cc2c(=O)n1-c1ccc(F)cc1 (3D coordinates assigned)
O=c1[n-]c2ccc(S(=O)(=O)Nc3ccccc3[O-])cc2c(=O)n1-c1ccc(F)cc1 (optimized conformer: 65.03251125237009 kcal/mol)

>  <smiles>  (316) 
O=c1[nH]c2ccc(S(=O)(=O)Nc3ccccc3O)cc2c(=O)n1-c1ccc(F)cc1

>  <score_type>  (316) 
oracle

>  <origin>  (316) 
adg

>  <m_score__min__energy>  (316) 
-14.24

>  <m_primary>  (316) 
energy

$$$$
58:0
     RDKit          3D

 31 35  0  0  0  0  0  0  0  0999 V2000
   55.1170   26.7010   45.8380 O   0  0  0  0  0  0  0  0  0  0  0  0
   56.1130   25.8600   46.3220 C   0  0  0  0  0  0  0  0  0  0  0  0
   55.8840   24.8200   47.1410 N   0  0  0  0  0  0  0  0  0  0  0  0
   57.1230   24.3300   47.3480 C   0  0  0  0  0  0  0  0  0  0  0  0
   57.3450   23.3310   48.0810 O   0  0  0  0  0  0  0  0  0  0  0  0
   58.1110   24.9990   46.7150 N   0  0  0  0  0  0  0  0  0  0  0  0
   57.4550   25.9640   46.0450 C   0  0  0  0  0  0  0  0  0  0  0  0
   58.0860   27.0410   45.2560 C   0  0  0  0  0  0  0  0  0  0  0  0
   57.7780   28.3470   45.3250 C   0  0  0  0  0  0  0  0  0  0  0  0
   56.7420   28.9680   44.6270 C   0  0  0  0  0  0  0  0  0  0  0  0
   56.7180   30.2940   44.9040 N   0  0  0  0  0  0  0  0  0  0  0  0
   57.7120   30.5220   45.7460 N   0  0  0  0  0  0  0  0  0  0  0  0
   58.0950   31.7090   46.2740 C   0  0  0  0  0  0  0  0  0  0  0  0
   57.4400   32.7980   46.0000 N   0  0  0  0  0  0  0  0  0  0  0  0
   57.8700   33.7780   45.0020 C   0  0  0  0  0  0  0  0  0  0  0  0
   58.8690   34.8110   45.5590 C   0  0  0  0  0  0  0  0  0  0  0  0
   60.2260   34.2940   46.0180 C   0  0  0  0  0  0  0  0  0  0  0  0
   59.1910   34.7350   47.0450 C   0  0  0  0  0  0  0  0  0  0  0  0
   59.1860   31.7250   47.0910 N   0  0  0  0  0  0  0  0  0  0  0  0
   59.8820   30.5740   47.3510 C   0  0  0  0  0  0  0  0  0  0  0  0
   60.9160   30.5760   48.1410 N   0  0  0  0  0  0  0  0  0  0  0  0
   61.8380   31.6600   48.3490 C   0  0  0  0  0  0  0  0  0  0  0  0
   62.9290   31.8770   47.4850 C   0  0  0  0  0  0  0  0  0  0  0  0
   63.8260   32.9190   47.7290 C   0  0  0  0  0  0  0  0  0  0  0  0
   63.6580   33.7400   48.8440 C   0  0  0  0  0  0  0  0  0  0  0  0
   62.6000   33.5150   49.7260 C   0  0  0  0  0  0  0  0  0  0  0  0
   61.6860   32.4670   49.4910 C   0  0  0  0  0  0  0  0  0  0  0  0
   60.6160   32.2040   50.3610 O   0  0  0  0  0  0  0  0  0  0  0  0
   59.2880   32.6800   50.1730 C   0  0  0  0  0  0  0  0  0  0  0  0
   59.4670   29.3930   46.8090 N   0  0  0  0  0  0  0  0  0  0  0  0
   58.3680   29.3910   46.0180 C   0  0  0  0  0  0  0  0  0  0  0  0
  1  2  1  0
  2  3  1  0
  3  4  1  0
  4  5  2  0
  4  6  1  0
  6  7  1  0
  7  8  1  0
  8  9  2  0
  9 10  1  0
 10 11  2  0
 11 12  1  0
 12 13  1  0
 13 14  2  0
 14 15  1  0
 15 16  1  0
 16 17  1  0
 17 18  1  0
 13 19  1  0
 19 20  1  0
 20 21  2  3
 21 22  1  0
 22 23  2  0
 23 24  1  0
 24 25  2  0
 25 26  1  0
 26 27  2  0
 27 28  1  0
 28 29  1  0
 20 30  1  0
 30 31  2  0
  7  2  2  0
 31  9  1  0
 31 12  1  0
 18 16  1  0
 27 22  1  0
M  CHG  3   3  -1   6  -1  19  -1
M  END
>  <UniqueID>  (317) 
55

>  <SMILES>  (317) 
COc1ccccc1N=c1nc2/c(=C\c3[n-]c(=O)[n-]c3O)cnn2/c(=N/CC2CC2)[n-]1

>  <Energy>  (317) 
395.6530581684829

>  <Genealogy>  (317) 
COc1ccccc1N=c1nc2c(=Cc3[n-]c(=O)[n-]c3O)cnn2c(=NCC2CC2)[n-]1 (protonated)
COc1ccccc1N=c1nc2/c(=C\c3[n-]c(=O)[n-]c3O)cnn2/c(=N/CC2CC2)[n-]1 (cis-trans isomerization)
COc1ccccc1N=c1nc2/c(=C\c3[n-]c(=O)[n-]c3O)cnn2/c(=N/CC2CC2)[n-]1 (3D coordinates assigned)
COc1ccccc1N=c1nc2/c(=C\c3[n-]c(=O)[n-]c3O)cnn2/c(=N/CC2CC2)[n-]1 (nonaromatic ring conformer: 395.6530581684829 kcal/mol)

>  <smiles>  (317) 
COc1ccccc1N=c1nc2c(=Cc3[nH]c(=O)[nH]c3O)cnn2c(=NCC2CC2)[nH]1

>  <score_type>  (317) 
oracle

>  <origin>  (317) 
adg

>  <m_score__min__energy>  (317) 
-14.800000000000001

>  <m_primary>  (317) 
energy

$$$$
61:0
     RDKit          3D

 21 22  0  0  0  0  0  0  0  0999 V2000
   59.0130   26.3130   53.3570 O   0  0  0  0  0  0  0  0  0  0  0  0
   58.3730   27.0820   54.1210 C   0  0  0  0  0  0  0  0  0  0  0  0
   56.9130   27.3020   53.9660 C   0  0  0  0  0  0  0  0  0  0  0  0
   56.3610   28.5840   53.7690 C   0  0  0  0  0  0  0  0  0  0  0  0
   57.2050   29.6920   53.7440 O   0  0  0  0  0  0  0  0  0  0  0  0
   55.0040   28.7490   53.6080 N   0  0  0  0  0  0  0  0  0  0  0  0
   54.4620   30.1030   53.3460 C   0  0  0  0  0  0  0  0  0  0  0  0
   54.1270   30.3090   51.8550 C   0  0  0  0  0  0  0  0  0  0  0  0
   52.6240   30.2600   51.5400 C   0  0  0  0  0  0  0  0  0  0  0  0
   51.8440   31.3620   52.2050 C   0  0  0  0  0  0  0  0  0  0  0  0
   51.6800   31.5930   53.8680 S   0  0  0  0  0  0  0  0  0  0  0  0
   50.5980   32.8640   53.6800 C   0  0  0  0  0  0  0  0  0  0  0  0
   49.9260   33.6930   54.9140 S   0  0  0  0  0  0  0  0  0  0  0  0
   50.3230   33.1130   52.3820 N   0  0  0  0  0  0  0  0  0  0  0  0
   51.0060   32.2710   51.5630 C   0  0  0  0  0  0  0  0  0  0  0  0
   50.8600   32.3220   50.1820 O   0  0  0  0  0  0  0  0  0  0  0  0
   54.1780   27.6480   53.6820 C   0  0  0  0  0  0  0  0  0  0  0  0
   52.5420   27.7610   53.5590 S   0  0  0  0  0  0  0  0  0  0  0  0
   54.7030   26.4150   53.8800 N   0  0  0  0  0  0  0  0  0  0  0  0
   56.0330   26.2130   54.0160 C   0  0  0  0  0  0  0  0  0  0  0  0
   56.4610   25.0420   54.1910 O   0  0  0  0  0  0  0  0  0  0  0  0
  1  2  2  0
  2  3  1  0
  3  4  2  0
  4  5  1  0
  4  6  1  0
  6  7  1  0
  7  8  1  0
  8  9  1  0
  9 10  1  0
 10 11  1  0
 11 12  1  0
 12 13  2  0
 12 14  1  0
 14 15  1  0
 15 16  1  0
  6 17  1  0
 17 18  2  0
 17 19  1  0
 19 20  1  0
 20 21  2  0
 20  3  1  0
 15 10  2  0
M  CHG  4   5  -1  14  -1  16  -1  19  -1
M  END
>  <UniqueID>  (318) 
58

>  <SMILES>  (318) 
O=Cc1c([O-])n(CCCc2sc(=S)[n-]c2[O-])c(=S)[n-]c1=O

>  <Energy>  (318) 
64.20177338773843

>  <Genealogy>  (318) 
O=Cc1c([O-])n(CCCc2sc(=S)[n-]c2[O-])c(=S)[n-]c1=O (protonated)
O=Cc1c([O-])n(CCCc2sc(=S)[n-]c2[O-])c(=S)[n-]c1=O (3D coordinates assigned)
O=Cc1c([O-])n(CCCc2sc(=S)[n-]c2[O-])c(=S)[n-]c1=O (optimized conformer: 64.20177338773843 kcal/mol)

>  <smiles>  (318) 
O=Cc1c(O)n(CCCc2sc(=S)[nH]c2O)c(=S)[nH]c1=O

>  <score_type>  (318) 
oracle

>  <origin>  (318) 
adg

>  <m_score__min__energy>  (318) 
-18.170000000000002

>  <m_primary>  (318) 
energy

$$$$
74:0
     RDKit          3D

 27 28  0  0  0  0  0  0  0  0999 V2000
   64.2040   32.3920   49.3570 C   0  0  0  0  0  0  0  0  0  0  0  0
   64.5240   33.4650   48.5020 O   0  0  0  0  0  0  0  0  0  0  0  0
   63.7610   33.3620   47.3190 C   0  0  0  0  0  0  0  0  0  0  0  0
   62.6000   32.3930   47.5400 C   0  0  0  0  0  0  0  0  0  0  0  0
   61.3120   33.0910   47.4590 N   0  0  0  0  0  0  0  0  0  0  0  0
   60.5230   32.8340   46.4110 N   0  0  0  0  0  0  0  0  0  0  0  0
   59.3090   33.4230   46.2510 C   0  0  0  0  0  0  0  0  0  0  0  0
   58.4790   33.0850   45.0830 C   0  0  0  0  0  0  0  0  0  0  0  0
   58.7400   33.6080   43.9680 O   0  0  0  0  0  0  0  0  0  0  0  0
   57.3730   32.1790   45.1810 N   0  0  0  0  0  0  0  0  0  0  0  0
   57.0210   31.1840   44.1710 C   0  0  0  0  0  0  0  0  0  0  0  0
   57.2690   29.7950   44.7090 C   0  0  0  0  0  0  0  0  0  0  0  0
   58.5910   29.3920   44.9500 C   0  0  0  0  0  0  0  0  0  0  0  0
   58.8570   28.1510   45.5270 C   0  0  0  0  0  0  0  0  0  0  0  0
   57.8080   27.2970   45.8640 C   0  0  0  0  0  0  0  0  0  0  0  0
   56.4800   27.6610   45.6090 C   0  0  0  0  0  0  0  0  0  0  0  0
   55.4540   26.7310   45.9920 N   0  0  0  0  0  0  0  0  0  0  0  0
   55.5700   25.0010   46.0110 S   0  0  0  0  0  0  0  0  0  0  0  0
   56.5290   24.4350   44.6220 C   0  0  0  0  0  0  0  0  0  0  0  0
   56.2790   24.5850   47.2680 O   0  0  0  0  0  0  0  0  0  0  0  0
   54.1990   24.3850   46.0040 O   0  0  0  0  0  0  0  0  0  0  0  0
   56.2070   28.9270   45.0430 C   0  0  0  0  0  0  0  0  0  0  0  0
   54.8970   29.3410   44.8390 O   0  0  0  0  0  0  0  0  0  0  0  0
   58.8570   34.3230   47.2170 C   0  0  0  0  0  0  0  0  0  0  0  0
   59.6790   34.6220   48.3000 C   0  0  0  0  0  0  0  0  0  0  0  0
   60.9200   33.9970   48.4120 C   0  0  0  0  0  0  0  0  0  0  0  0
   61.6660   34.2730   49.3910 O   0  0  0  0  0  0  0  0  0  0  0  0
  1  2  1  0
  2  3  1  0
  3  4  1  0
  4  5  1  0
  5  6  1  0
  6  7  2  0
  7  8  1  0
  8  9  2  0
  8 10  1  0
 10 11  1  0
 11 12  1  0
 12 13  2  0
 13 14  1  0
 14 15  2  0
 15 16  1  0
 16 17  1  0
 17 18  1  0
 18 19  1  0
 18 20  2  0
 18 21  2  0
 16 22  2  0
 22 23  1  0
  7 24  1  0
 24 25  2  0
 25 26  1  0
 26 27  2  0
 26  5  1  0
 22 12  1  0
M  CHG  3  10  -1  17  -1  23  -1
M  END
>  <UniqueID>  (319) 
71

>  <SMILES>  (319) 
COCCn1nc(C(=O)[N-]Cc2cccc([N-]S(C)(=O)=O)c2[O-])ccc1=O

>  <Energy>  (319) 
46.679101428872805

>  <Genealogy>  (319) 
COCCn1nc(C(=O)[N-]Cc2cccc([N-]S(C)(=O)=O)c2[O-])ccc1=O (protonated)
COCCn1nc(C(=O)[N-]Cc2cccc([N-]S(C)(=O)=O)c2[O-])ccc1=O (3D coordinates assigned)
COCCn1nc(C(=O)[N-]Cc2cccc([N-]S(C)(=O)=O)c2[O-])ccc1=O (optimized conformer: 46.679101428872805 kcal/mol)

>  <smiles>  (319) 
COCCn1nc(C(=O)NCc2cccc(NS(C)(=O)=O)c2O)ccc1=O

>  <score_type>  (319) 
oracle

>  <origin>  (319) 
adg

>  <m_score__min__energy>  (319) 
-16.02

>  <m_primary>  (319) 
energy

$$$$
8:0
     RDKit          3D

 29 33  0  0  0  0  0  0  0  0999 V2000
   52.8290   30.5530   51.5520 C   0  0  0  0  0  0  0  0  0  0  0  0
   51.7740   31.4050   52.1250 C   0  0  0  0  0  0  0  0  0  0  0  0
   51.4890   31.4520   53.4380 N   0  0  0  0  0  0  0  0  0  0  0  0
   50.5320   32.4020   53.5150 C   0  0  0  0  0  0  0  0  0  0  0  0
   49.9890   32.7290   54.6020 O   0  0  0  0  0  0  0  0  0  0  0  0
   50.2090   32.9800   52.3390 N   0  0  0  0  0  0  0  0  0  0  0  0
   51.0140   32.3470   51.4700 C   0  0  0  0  0  0  0  0  0  0  0  0
   51.0770   32.6510   50.1160 O   0  0  0  0  0  0  0  0  0  0  0  0
   53.7000   29.8420   52.2850 C   0  0  0  0  0  0  0  0  0  0  0  0
   53.3910   28.7610   53.1090 C   0  0  0  0  0  0  0  0  0  0  0  0
   54.5230   28.2610   53.6650 N   0  0  0  0  0  0  0  0  0  0  0  0
   55.5250   28.9940   53.2060 N   0  0  0  0  0  0  0  0  0  0  0  0
   56.8470   28.8460   53.4570 C   0  0  0  0  0  0  0  0  0  0  0  0
   57.2690   27.9220   54.2680 N   0  0  0  0  0  0  0  0  0  0  0  0
   58.2210   26.8880   53.8780 C   0  0  0  0  0  0  0  0  0  0  0  0
   59.5970   27.4250   53.5280 C   0  0  0  0  0  0  0  0  0  0  0  0
   59.3640   26.7350   54.8640 C   0  0  0  0  0  0  0  0  0  0  0  0
   57.7180   29.6920   52.8320 N   0  0  0  0  0  0  0  0  0  0  0  0
   57.2620   30.6550   51.9710 C   0  0  0  0  0  0  0  0  0  0  0  0
   58.1930   31.5440   51.3200 N   0  0  0  0  0  0  0  0  0  0  0  0
   57.7960   32.2950   50.1190 C   0  0  0  0  0  0  0  0  0  0  0  0
   58.9830   32.4140   49.1590 C   0  0  0  0  0  0  0  0  0  0  0  0
   60.2320   33.0430   49.8200 C   0  0  0  0  0  0  0  0  0  0  0  0
   61.3580   32.3550   49.3980 F   0  0  0  0  0  0  0  0  0  0  0  0
   60.3540   34.3580   49.4020 F   0  0  0  0  0  0  0  0  0  0  0  0
   60.1840   33.0240   51.3600 C   0  0  0  0  0  0  0  0  0  0  0  0
   59.5290   31.7490   51.9020 C   0  0  0  0  0  0  0  0  0  0  0  0
   55.9210   30.7740   51.7370 N   0  0  0  0  0  0  0  0  0  0  0  0
   55.0740   29.9390   52.3800 C   0  0  0  0  0  0  0  0  0  0  0  0
  1  2  1  0
  2  3  1  0
  3  4  1  0
  4  5  2  0
  4  6  1  0
  6  7  1  0
  7  8  1  0
  1  9  2  0
  9 10  1  0
 10 11  2  0
 11 12  1  0
 12 13  1  0
 13 14  2  3
 14 15  1  0
 15 16  1  0
 16 17  1  0
 13 18  1  0
 18 19  2  0
 19 20  1  0
 20 21  1  0
 21 22  1  0
 22 23  1  0
 23 24  1  0
 23 25  1  0
 23 26  1  0
 26 27  1  0
 19 28  1  0
 28 29  2  0
  7  2  2  0
 29  9  1  0
 29 12  1  0
 17 15  1  0
 27 20  1  0
M  CHG  3   3  -1   6  -1   8  -1
M  END
>  <UniqueID>  (320) 
8

>  <SMILES>  (320) 
O=c1[n-]c([O-])c(/C=c2/cnn3c(=NC4CC4)nc(N4CCC(F)(F)CC4)nc23)[n-]1

>  <Energy>  (320) 
388.0674821185937

>  <Genealogy>  (320) 
O=c1[n-]c([O-])c(C=c2cnn3c(=NC4CC4)nc(N4CCC(F)(F)CC4)nc23)[n-]1 (protonated)
O=c1[n-]c([O-])c(/C=c2/cnn3c(=NC4CC4)nc(N4CCC(F)(F)CC4)nc23)[n-]1 (cis-trans isomerization)
O=c1[n-]c([O-])c(/C=c2/cnn3c(=NC4CC4)nc(N4CCC(F)(F)CC4)nc23)[n-]1 (3D coordinates assigned)
O=c1[n-]c([O-])c(/C=c2/cnn3c(=NC4CC4)nc(N4CCC(F)(F)CC4)nc23)[n-]1 (nonaromatic ring conformer: 388.0674821185937 kcal/mol)

>  <smiles>  (320) 
O=c1[nH]c(O)c(C=c2cnn3c(=NC4CC4)nc(N4CCC(F)(F)CC4)nc23)[nH]1

>  <score_type>  (320) 
oracle

>  <origin>  (320) 
adg

>  <m_score__min__energy>  (320) 
-16

>  <m_primary>  (320) 
energy

$$$$
19:0
     RDKit          3D

 23 25  0  0  0  0  0  0  0  0999 V2000
   58.7180   32.5070   52.5740 C   0  0  0  0  0  0  0  0  0  0  0  0
   58.8290   31.2440   51.8520 N   0  0  0  0  0  0  0  0  0  0  0  0
   58.8690   29.9560   52.5010 C   0  0  0  0  0  0  0  0  0  0  0  0
   60.0630   29.2050   52.5520 C   0  0  0  0  0  0  0  0  0  0  0  0
   60.0920   27.9550   53.1760 C   0  0  0  0  0  0  0  0  0  0  0  0
   58.9360   27.4350   53.7570 C   0  0  0  0  0  0  0  0  0  0  0  0
   57.7470   28.1640   53.7190 C   0  0  0  0  0  0  0  0  0  0  0  0
   57.7030   29.4180   53.0970 C   0  0  0  0  0  0  0  0  0  0  0  0
   56.4650   30.1400   53.0870 N   0  0  0  0  0  0  0  0  0  0  0  0
   55.7720   30.4130   54.3490 C   0  0  0  0  0  0  0  0  0  0  0  0
   54.2400   30.2740   54.2020 C   0  0  0  0  0  0  0  0  0  0  0  0
   53.7730   30.3040   52.7920 N   0  0  0  0  0  0  0  0  0  0  0  0
   52.3330   30.6230   52.7090 C   0  0  0  0  0  0  0  0  0  0  0  0
   51.8950   30.7390   51.2680 C   0  0  0  0  0  0  0  0  0  0  0  0
   52.0910   29.6500   50.4030 C   0  0  0  0  0  0  0  0  0  0  0  0
   51.6720   29.7190   49.0720 C   0  0  0  0  0  0  0  0  0  0  0  0
   51.0490   30.8730   48.5930 C   0  0  0  0  0  0  0  0  0  0  0  0
   50.8390   31.9610   49.4460 C   0  0  0  0  0  0  0  0  0  0  0  0
   50.2130   33.1040   48.9620 O   0  0  0  0  0  0  0  0  0  0  0  0
   51.2570   31.8990   50.7820 C   0  0  0  0  0  0  0  0  0  0  0  0
   51.0330   32.9890   51.6180 O   0  0  0  0  0  0  0  0  0  0  0  0
   54.5640   31.2560   51.9920 C   0  0  0  0  0  0  0  0  0  0  0  0
   55.9760   30.6980   51.8230 C   0  0  0  0  0  0  0  0  0  0  0  0
  1  2  1  0
  2  3  1  0
  3  4  2  0
  4  5  1  0
  5  6  2  0
  6  7  1  0
  7  8  2  0
  8  9  1  0
  9 10  1  0
 10 11  1  0
 11 12  1  0
 12 13  1  0
 13 14  1  0
 14 15  2  0
 15 16  1  0
 16 17  2  0
 17 18  1  0
 18 19  1  0
 18 20  2  0
 20 21  1  0
 12 22  1  0
 22 23  1  0
  8  3  1  0
 23  9  1  0
 20 14  1  0
M  CHG  2  19  -1  21  -1
M  END
>  <UniqueID>  (321) 
19

>  <SMILES>  (321) 
CNc1ccccc1N1CCN(Cc2cccc([O-])c2[O-])CC1

>  <Energy>  (321) 
57.00639860716989

>  <Genealogy>  (321) 
CNc1ccccc1N1CCN(Cc2cccc([O-])c2[O-])CC1 (protonated)
CNc1ccccc1N1CCN(Cc2cccc([O-])c2[O-])CC1 (3D coordinates assigned)
CNc1ccccc1N1CCN(Cc2cccc([O-])c2[O-])CC1 (nonaromatic ring conformer: 57.00639860716989 kcal/mol)

>  <smiles>  (321) 
CNc1ccccc1N1CCN(Cc2cccc(O)c2O)CC1

>  <score_type>  (321) 
oracle

>  <origin>  (321) 
adg

>  <m_score__min__energy>  (321) 
-14.92

>  <m_primary>  (321) 
energy

$$$$
37:0
     RDKit          3D

 29 31  0  0  0  0  0  0  0  0999 V2000
   55.9910   28.5670   45.2630 O   0  0  0  0  0  0  0  0  0  0  0  0
   57.0260   28.4330   45.9700 C   0  0  0  0  0  0  0  0  0  0  0  0
   57.2750   27.1440   46.6890 C   0  0  0  0  0  0  0  0  0  0  0  0
   56.8490   26.0240   45.8510 N   0  0  0  0  0  0  0  0  0  0  0  0
   55.5900   25.6360   45.5970 C   0  0  0  0  0  0  0  0  0  0  0  0
   54.4540   26.3350   45.9880 O   0  0  0  0  0  0  0  0  0  0  0  0
   55.6160   24.4250   44.9420 C   0  0  0  0  0  0  0  0  0  0  0  0
   54.4320   23.5620   44.6400 C   0  0  0  0  0  0  0  0  0  0  0  0
   53.9550   22.9220   45.9050 C   0  0  0  0  0  0  0  0  0  0  0  0
   53.2310   21.8910   45.8460 O   0  0  0  0  0  0  0  0  0  0  0  0
   54.3400   23.4690   47.1760 N   0  0  0  0  0  0  0  0  0  0  0  0
   54.3310   22.7240   48.4050 C   0  0  0  0  0  0  0  0  0  0  0  0
   53.1380   22.5000   49.1170 C   0  0  0  0  0  0  0  0  0  0  0  0
   53.1530   21.7620   50.3040 C   0  0  0  0  0  0  0  0  0  0  0  0
   54.3530   21.2300   50.7840 C   0  0  0  0  0  0  0  0  0  0  0  0
   54.3650   20.5090   51.9320 F   0  0  0  0  0  0  0  0  0  0  0  0
   55.5370   21.4220   50.0660 C   0  0  0  0  0  0  0  0  0  0  0  0
   55.5260   22.1580   48.8780 C   0  0  0  0  0  0  0  0  0  0  0  0
   56.8970   24.0180   44.8060 N   0  0  0  0  0  0  0  0  0  0  0  0
   57.6110   25.0190   45.3680 C   0  0  0  0  0  0  0  0  0  0  0  0
   58.8670   24.9930   45.4620 O   0  0  0  0  0  0  0  0  0  0  0  0
   57.9520   29.5150   46.1280 N   0  0  0  0  0  0  0  0  0  0  0  0
   57.9210   30.7760   45.4430 C   0  0  0  0  0  0  0  0  0  0  0  0
   57.8020   30.8580   44.0420 C   0  0  0  0  0  0  0  0  0  0  0  0
   57.7880   32.1050   43.4110 C   0  0  0  0  0  0  0  0  0  0  0  0
   57.9040   33.2750   44.1650 C   0  0  0  0  0  0  0  0  0  0  0  0
   58.0530   33.1990   45.5520 C   0  0  0  0  0  0  0  0  0  0  0  0
   58.0730   31.9540   46.1880 C   0  0  0  0  0  0  0  0  0  0  0  0
   58.2290   31.8930   47.5350 F   0  0  0  0  0  0  0  0  0  0  0  0
  1  2  2  0
  2  3  1  0
  3  4  1  0
  4  5  1  0
  5  6  1  0
  5  7  2  0
  7  8  1  0
  8  9  1  0
  9 10  2  0
  9 11  1  0
 11 12  1  0
 12 13  2  0
 13 14  1  0
 14 15  2  0
 15 16  1  0
 15 17  1  0
 17 18  2  0
  7 19  1  0
 19 20  1  0
 20 21  2  0
  2 22  1  0
 22 23  1  0
 23 24  2  0
 24 25  1  0
 25 26  2  0
 26 27  1  0
 27 28  2  0
 28 29  1  0
 20  4  1  0
 28 23  1  0
 18 12  1  0
M  CHG  3   6  -1  19  -1  22  -1
M  END
>  <UniqueID>  (322) 
36

>  <SMILES>  (322) 
O=C(Cn1c([O-])c(CC(=O)Nc2ccc(F)cc2)[n-]c1=O)[N-]c1ccccc1F

>  <Energy>  (322) 
74.45553729207296

>  <Genealogy>  (322) 
O=C(Cn1c([O-])c(CC(=O)Nc2ccc(F)cc2)[n-]c1=O)[N-]c1ccccc1F (protonated)
O=C(Cn1c([O-])c(CC(=O)Nc2ccc(F)cc2)[n-]c1=O)[N-]c1ccccc1F (3D coordinates assigned)
O=C(Cn1c([O-])c(CC(=O)Nc2ccc(F)cc2)[n-]c1=O)[N-]c1ccccc1F (optimized conformer: 74.45553729207296 kcal/mol)

>  <smiles>  (322) 
O=C(Cc1[nH]c(=O)n(CC(=O)Nc2ccccc2F)c1O)Nc1ccc(F)cc1

>  <score_type>  (322) 
oracle

>  <origin>  (322) 
adg

>  <m_score__min__energy>  (322) 
-14.25

>  <m_primary>  (322) 
energy

$$$$
72:0
     RDKit          3D

 31 34  0  0  0  0  0  0  0  0999 V2000
   59.8330   28.2740   44.1200 O   0  0  0  0  0  0  0  0  0  0  0  0
   59.4450   28.6530   45.2580 C   0  0  0  0  0  0  0  0  0  0  0  0
   57.9830   28.8580   45.5130 C   0  0  0  0  0  0  0  0  0  0  0  0
   57.4770   27.9430   46.6370 C   0  0  0  0  0  0  0  0  0  0  0  0
   57.2470   26.5810   46.1480 N   0  0  0  0  0  0  0  0  0  0  0  0
   56.0510   26.0430   45.8160 C   0  0  0  0  0  0  0  0  0  0  0  0
   54.8290   26.6800   45.9990 O   0  0  0  0  0  0  0  0  0  0  0  0
   56.2210   24.7990   45.2490 C   0  0  0  0  0  0  0  0  0  0  0  0
   57.5700   24.5650   45.2200 C   0  0  0  0  0  0  0  0  0  0  0  0
   58.1800   25.6730   45.7720 C   0  0  0  0  0  0  0  0  0  0  0  0
   59.5570   25.8410   45.9030 O   0  0  0  0  0  0  0  0  0  0  0  0
   58.1960   23.3220   44.6700 C   0  0  0  0  0  0  0  0  0  0  0  0
   57.1520   22.3490   44.1560 C   0  0  0  0  0  0  0  0  0  0  0  0
   55.8220   22.5970   44.1530 C   0  0  0  0  0  0  0  0  0  0  0  0
   55.1960   23.8740   44.6780 C   0  0  0  0  0  0  0  0  0  0  0  0
   60.3620   28.7630   46.3550 N   0  0  0  0  0  0  0  0  0  0  0  0
   60.3530   29.7590   47.3830 C   0  0  0  0  0  0  0  0  0  0  0  0
   60.1700   29.3470   48.7090 C   0  0  0  0  0  0  0  0  0  0  0  0
   60.1570   30.2850   49.7430 C   0  0  0  0  0  0  0  0  0  0  0  0
   60.3100   31.6430   49.4590 C   0  0  0  0  0  0  0  0  0  0  0  0
   60.4760   32.0710   48.1350 C   0  0  0  0  0  0  0  0  0  0  0  0
   60.6330   33.7910   47.7870 S   0  0  0  0  0  0  0  0  0  0  0  0
   61.8800   34.0080   46.9750 O   0  0  0  0  0  0  0  0  0  0  0  0
   60.7480   34.5700   49.0720 O   0  0  0  0  0  0  0  0  0  0  0  0
   59.2370   34.3450   46.8940 N   0  0  0  0  0  0  0  0  0  0  0  0
   59.5930   34.6560   45.4880 C   0  0  0  0  0  0  0  0  0  0  0  0
   58.7630   33.8510   44.4740 C   0  0  0  0  0  0  0  0  0  0  0  0
   57.3750   33.9980   44.7150 O   0  0  0  0  0  0  0  0  0  0  0  0
   57.0030   33.6780   46.0540 C   0  0  0  0  0  0  0  0  0  0  0  0
   58.1630   33.3440   47.0100 C   0  0  0  0  0  0  0  0  0  0  0  0
   60.4840   31.1280   47.0970 C   0  0  0  0  0  0  0  0  0  0  0  0
  1  2  2  0
  2  3  1  0
  3  4  1  0
  4  5  1  0
  5  6  1  0
  6  7  1  0
  6  8  2  0
  8  9  1  0
  9 10  2  0
 10 11  1  0
  9 12  1  0
 12 13  1  0
 13 14  2  0
 14 15  1  0
  2 16  1  0
 16 17  1  0
 17 18  2  0
 18 19  1  0
 19 20  2  0
 20 21  1  0
 21 22  1  0
 22 23  2  0
 22 24  2  0
 22 25  1  0
 25 26  1  0
 26 27  1  0
 27 28  1  0
 28 29  1  0
 29 30  1  0
 21 31  2  0
 10  5  1  0
 31 17  1  0
 15  8  1  0
 30 25  1  0
M  CHG  2   7  -1  16  -1
M  END
>  <UniqueID>  (323) 
70

>  <SMILES>  (323) 
O=C(CCn1c([O-])c2c(c1O)CC=CC2)[N-]c1cccc(S(=O)(=O)N2CCOCC2)c1

>  <Energy>  (323) 
98.04263342902141

>  <Genealogy>  (323) 
O=C(CCn1c([O-])c2c(c1O)CC=CC2)[N-]c1cccc(S(=O)(=O)N2CCOCC2)c1 (protonated)
O=C(CCn1c([O-])c2c(c1O)CC=CC2)[N-]c1cccc(S(=O)(=O)N2CCOCC2)c1 (3D coordinates assigned)
O=C(CCn1c([O-])c2c(c1O)CC=CC2)[N-]c1cccc(S(=O)(=O)N2CCOCC2)c1 (nonaromatic ring conformer: 98.04263342902141 kcal/mol)

>  <smiles>  (323) 
O=C(CCn1c(O)c2c(c1O)CC=CC2)Nc1cccc(S(=O)(=O)N2CCOCC2)c1

>  <score_type>  (323) 
oracle

>  <origin>  (323) 
adg

>  <m_score__min__energy>  (323) 
-14.869999999999999

>  <m_primary>  (323) 
energy

$$$$
3:0
     RDKit          3D

 24 26  0  0  0  0  0  0  0  0999 V2000
   59.0480   32.0660   47.5270 C   0  0  0  0  0  0  0  0  0  0  0  0
   58.0880   31.6150   46.6780 N   0  0  0  0  0  0  0  0  0  0  0  0
   57.5770   32.3910   45.6810 C   0  0  0  0  0  0  0  0  0  0  0  0
   56.6460   31.9450   44.8880 N   0  0  0  0  0  0  0  0  0  0  0  0
   56.7110   30.7480   44.0990 C   0  0  0  0  0  0  0  0  0  0  0  0
   56.8800   30.8520   42.8550 O   0  0  0  0  0  0  0  0  0  0  0  0
   56.6660   29.4050   44.7100 C   0  0  0  0  0  0  0  0  0  0  0  0
   55.5240   28.7840   45.0720 N   0  0  0  0  0  0  0  0  0  0  0  0
   55.9220   27.6180   45.6130 C   0  0  0  0  0  0  0  0  0  0  0  0
   55.0380   26.6700   46.1120 O   0  0  0  0  0  0  0  0  0  0  0  0
   57.2910   27.4870   45.6120 C   0  0  0  0  0  0  0  0  0  0  0  0
   57.7740   28.6410   45.0350 C   0  0  0  0  0  0  0  0  0  0  0  0
   58.0300   33.7060   45.5360 C   0  0  0  0  0  0  0  0  0  0  0  0
   59.0140   34.1950   46.3960 C   0  0  0  0  0  0  0  0  0  0  0  0
   59.5480   33.3730   47.4030 C   0  0  0  0  0  0  0  0  0  0  0  0
   60.5910   33.8900   48.3220 C   0  0  0  0  0  0  0  0  0  0  0  0
   60.2520   34.6060   49.3040 O   0  0  0  0  0  0  0  0  0  0  0  0
   61.9830   33.6260   48.0800 N   0  0  0  0  0  0  0  0  0  0  0  0
   63.0020   33.7220   49.0900 C   0  0  0  0  0  0  0  0  0  0  0  0
   62.7970   34.4590   50.2720 C   0  0  0  0  0  0  0  0  0  0  0  0
   63.7950   34.5180   51.2500 C   0  0  0  0  0  0  0  0  0  0  0  0
   65.0000   33.8350   51.0630 C   0  0  0  0  0  0  0  0  0  0  0  0
   65.2040   33.0850   49.9010 C   0  0  0  0  0  0  0  0  0  0  0  0
   64.2080   33.0230   48.9230 C   0  0  0  0  0  0  0  0  0  0  0  0
  1  2  1  0
  2  3  1  0
  3  4  2  0
  4  5  1  0
  5  6  2  0
  5  7  1  0
  7  8  1  0
  8  9  1  0
  9 10  1  0
  9 11  2  0
 11 12  1  0
  3 13  1  0
 13 14  2  0
 14 15  1  0
 15 16  1  0
 16 17  2  0
 16 18  1  0
 18 19  1  0
 19 20  2  0
 20 21  1  0
 21 22  2  0
 22 23  1  0
 23 24  2  0
 15  1  2  0
 24 19  1  0
 12  7  2  0
M  CHG  3   2  -1   8  -1  10  -1
M  END
>  <UniqueID>  (324) 
4

>  <SMILES>  (324) 
O=C(Nc1ccccc1)c1cc/c(=N/C(=O)c2ccc([O-])[n-]2)[n-]c1

>  <Energy>  (324) 
75.09944758209683

>  <Genealogy>  (324) 
O=C(Nc1ccccc1)c1ccc(=NC(=O)c2ccc([O-])[n-]2)[n-]c1 (protonated)
O=C(Nc1ccccc1)c1cc/c(=N/C(=O)c2ccc([O-])[n-]2)[n-]c1 (cis-trans isomerization)
O=C(Nc1ccccc1)c1cc/c(=N/C(=O)c2ccc([O-])[n-]2)[n-]c1 (3D coordinates assigned)
O=C(Nc1ccccc1)c1cc/c(=N/C(=O)c2ccc([O-])[n-]2)[n-]c1 (optimized conformer: 75.09944758209683 kcal/mol)

>  <smiles>  (324) 
O=C(Nc1ccccc1)c1ccc(=NC(=O)c2ccc(O)[nH]2)[nH]c1

>  <score_type>  (324) 
oracle

>  <origin>  (324) 
adg

>  <m_score__min__energy>  (324) 
-14.52

>  <m_primary>  (324) 
energy

$$$$
9:0
     RDKit          3D

 29 31  0  0  0  0  0  0  0  0999 V2000
   55.6040   28.8520   45.1320 N   0  0  0  0  0  0  0  0  0  0  0  0
   56.9350   29.9240   44.8740 S   0  0  0  0  0  0  0  0  0  0  0  0
   56.4190   31.3320   44.7750 O   0  0  0  0  0  0  0  0  0  0  0  0
   57.6250   29.5530   43.5910 O   0  0  0  0  0  0  0  0  0  0  0  0
   58.0470   29.7800   46.2020 N   0  0  0  0  0  0  0  0  0  0  0  0
   59.1010   30.7930   46.1190 C   0  0  0  0  0  0  0  0  0  0  0  0
   60.1630   30.5360   47.1890 C   0  0  0  0  0  0  0  0  0  0  0  0
   59.6040   30.7890   48.5530 C   0  0  0  0  0  0  0  0  0  0  0  0
   58.4740   30.1990   49.0860 C   0  0  0  0  0  0  0  0  0  0  0  0
   58.3370   30.7840   50.3300 C   0  0  0  0  0  0  0  0  0  0  0  0
   57.3410   30.3880   51.3490 C   0  0  0  0  0  0  0  0  0  0  0  0
   57.4670   29.2900   51.9540 O   0  0  0  0  0  0  0  0  0  0  0  0
   56.2150   31.2340   51.6310 N   0  0  0  0  0  0  0  0  0  0  0  0
   55.1390   30.8290   52.5320 C   0  0  0  0  0  0  0  0  0  0  0  0
   53.8270   30.7990   51.7960 C   0  0  0  0  0  0  0  0  0  0  0  0
   53.5730   29.8160   50.8250 C   0  0  0  0  0  0  0  0  0  0  0  0
   52.3610   29.8100   50.1300 C   0  0  0  0  0  0  0  0  0  0  0  0
   51.3950   30.7850   50.3950 C   0  0  0  0  0  0  0  0  0  0  0  0
   51.6420   31.7700   51.3570 C   0  0  0  0  0  0  0  0  0  0  0  0
   50.6830   32.7420   51.6170 O   0  0  0  0  0  0  0  0  0  0  0  0
   52.8540   31.7790   52.0550 C   0  0  0  0  0  0  0  0  0  0  0  0
   59.3370   31.6840   50.4950 N   0  0  0  0  0  0  0  0  0  0  0  0
   59.5570   32.5720   51.6030 C   0  0  0  0  0  0  0  0  0  0  0  0
   58.5720   33.4990   51.9880 C   0  0  0  0  0  0  0  0  0  0  0  0
   58.8100   34.3800   53.0470 C   0  0  0  0  0  0  0  0  0  0  0  0
   60.0350   34.3530   53.7200 C   0  0  0  0  0  0  0  0  0  0  0  0
   61.0270   33.4500   53.3280 C   0  0  0  0  0  0  0  0  0  0  0  0
   60.7930   32.5680   52.2680 C   0  0  0  0  0  0  0  0  0  0  0  0
   60.1060   31.6920   49.4160 N   0  0  0  0  0  0  0  0  0  0  0  0
  1  2  1  0
  2  3  2  0
  2  4  2  0
  2  5  1  0
  5  6  1  0
  6  7  1  0
  7  8  1  0
  8  9  1  0
  9 10  2  0
 10 11  1  0
 11 12  2  0
 11 13  1  0
 13 14  1  0
 14 15  1  0
 15 16  2  0
 16 17  1  0
 17 18  2  0
 18 19  1  0
 19 20  1  0
 19 21  2  0
 10 22  1  0
 22 23  1  0
 23 24  2  0
 24 25  1  0
 25 26  2  0
 26 27  1  0
 27 28  2  0
 22 29  1  0
 29  8  2  0
 21 15  1  0
 28 23  1  0
M  CHG  3   1  -1   5  -1  20  -1
M  END
>  <UniqueID>  (325) 
10

>  <SMILES>  (325) 
[NH-]S(=O)(=O)[N-]CCc1cc(C(=O)NCc2cccc([O-])c2)n(-c2ccccc2)n1

>  <Energy>  (325) 
77.76172660919768

>  <Genealogy>  (325) 
[NH-]S(=O)(=O)[N-]CCc1cc(C(=O)NCc2cccc([O-])c2)n(-c2ccccc2)n1 (protonated)
[NH-]S(=O)(=O)[N-]CCc1cc(C(=O)NCc2cccc([O-])c2)n(-c2ccccc2)n1 (3D coordinates assigned)
[NH-]S(=O)(=O)[N-]CCc1cc(C(=O)NCc2cccc([O-])c2)n(-c2ccccc2)n1 (optimized conformer: 77.76172660919768 kcal/mol)

>  <smiles>  (325) 
NS(=O)(=O)NCCc1cc(C(=O)NCc2cccc(O)c2)n(-c2ccccc2)n1

>  <score_type>  (325) 
oracle

>  <origin>  (325) 
adg

>  <m_score__min__energy>  (325) 
-15.76

>  <m_primary>  (325) 
energy

$$$$
10:0
     RDKit          3D

 23 24  0  0  0  0  0  0  0  0999 V2000
   62.5930   31.8180   47.6380 C   0  0  0  0  0  0  0  0  0  0  0  0
   62.1110   33.5300   47.6470 S   0  0  0  0  0  0  0  0  0  0  0  0
   62.7330   34.2090   48.8360 O   0  0  0  0  0  0  0  0  0  0  0  0
   62.5850   34.1810   46.3790 O   0  0  0  0  0  0  0  0  0  0  0  0
   60.3830   33.6270   47.7500 N   0  0  0  0  0  0  0  0  0  0  0  0
   59.4760   33.3790   46.6680 C   0  0  0  0  0  0  0  0  0  0  0  0
   58.6110   34.4060   46.2710 C   0  0  0  0  0  0  0  0  0  0  0  0
   57.7200   34.2120   45.2120 C   0  0  0  0  0  0  0  0  0  0  0  0
   57.6780   32.9850   44.5480 C   0  0  0  0  0  0  0  0  0  0  0  0
   58.5160   31.9330   44.9540 C   0  0  0  0  0  0  0  0  0  0  0  0
   58.5250   30.6470   44.2280 C   0  0  0  0  0  0  0  0  0  0  0  0
   57.4390   30.0040   43.7680 C   0  0  0  0  0  0  0  0  0  0  0  0
   56.1090   29.9610   44.4280 C   0  0  0  0  0  0  0  0  0  0  0  0
   55.4020   30.9980   44.5210 O   0  0  0  0  0  0  0  0  0  0  0  0
   55.5940   28.7360   44.9640 N   0  0  0  0  0  0  0  0  0  0  0  0
   56.3610   27.7120   45.6100 C   0  0  0  0  0  0  0  0  0  0  0  0
   57.7540   27.8500   45.6730 C   0  0  0  0  0  0  0  0  0  0  0  0
   58.5360   26.8610   46.2790 C   0  0  0  0  0  0  0  0  0  0  0  0
   57.9310   25.7180   46.8090 C   0  0  0  0  0  0  0  0  0  0  0  0
   56.5460   25.5550   46.7200 C   0  0  0  0  0  0  0  0  0  0  0  0
   55.7580   26.5400   46.1110 C   0  0  0  0  0  0  0  0  0  0  0  0
   54.3890   26.3330   45.9840 O   0  0  0  0  0  0  0  0  0  0  0  0
   59.4310   32.1420   45.9960 C   0  0  0  0  0  0  0  0  0  0  0  0
  1  2  1  0
  2  3  2  0
  2  4  2  0
  2  5  1  0
  5  6  1  0
  6  7  2  0
  7  8  1  0
  8  9  2  0
  9 10  1  0
 10 11  1  0
 11 12  2  3
 12 13  1  0
 13 14  2  0
 13 15  1  0
 15 16  1  0
 16 17  2  0
 17 18  1  0
 18 19  2  0
 19 20  1  0
 20 21  2  0
 21 22  1  0
 10 23  2  0
 23  6  1  0
 21 16  1  0
M  CHG  3   5  -1  15  -1  22  -1
M  END
>  <UniqueID>  (326) 
11

>  <SMILES>  (326) 
CS(=O)(=O)[N-]c1cccc(C=CC(=O)[N-]c2ccccc2[O-])c1

>  <Energy>  (326) 
50.38884918614028

>  <Genealogy>  (326) 
CS(=O)(=O)[N-]c1cccc(C=CC(=O)[N-]c2ccccc2[O-])c1 (protonated)
CS(=O)(=O)[N-]c1cccc(C=CC(=O)[N-]c2ccccc2[O-])c1 (3D coordinates assigned)
CS(=O)(=O)[N-]c1cccc(C=CC(=O)[N-]c2ccccc2[O-])c1 (optimized conformer: 50.38884918614028 kcal/mol)

>  <smiles>  (326) 
CS(=O)(=O)Nc1cccc(C=CC(=O)Nc2ccccc2O)c1

>  <score_type>  (326) 
oracle

>  <origin>  (326) 
adg

>  <m_score__min__energy>  (326) 
-15.029999999999999

>  <m_primary>  (326) 
energy

$$$$
16:0
     RDKit          3D

 25 26  0  0  0  0  0  0  0  0999 V2000
   58.5700   29.7470   49.9180 C   0  0  0  0  0  0  0  0  0  0  0  0
   58.9400   30.8240   49.0130 N   0  0  0  0  0  0  0  0  0  0  0  0
   59.8310   30.6450   47.9070 C   0  0  0  0  0  0  0  0  0  0  0  0
   59.9600   29.4980   47.3970 O   0  0  0  0  0  0  0  0  0  0  0  0
   60.6280   31.7850   47.3790 C   0  0  0  0  0  0  0  0  0  0  0  0
   61.9610   31.9410   47.8110 C   0  0  0  0  0  0  0  0  0  0  0  0
   62.7310   33.0220   47.3780 C   0  0  0  0  0  0  0  0  0  0  0  0
   62.1910   33.9560   46.4950 C   0  0  0  0  0  0  0  0  0  0  0  0
   60.8770   33.8160   46.0480 C   0  0  0  0  0  0  0  0  0  0  0  0
   60.0800   32.7470   46.4930 C   0  0  0  0  0  0  0  0  0  0  0  0
   58.7410   32.6120   45.9970 N   0  0  0  0  0  0  0  0  0  0  0  0
   58.3750   32.1900   44.6760 C   0  0  0  0  0  0  0  0  0  0  0  0
   58.4180   33.0280   43.7380 O   0  0  0  0  0  0  0  0  0  0  0  0
   57.9850   30.7710   44.3680 C   0  0  0  0  0  0  0  0  0  0  0  0
   57.0380   30.2930   45.3650 N   0  0  0  0  0  0  0  0  0  0  0  0
   56.3290   29.0560   45.2520 C   0  0  0  0  0  0  0  0  0  0  0  0
   55.1600   29.0520   44.7800 O   0  0  0  0  0  0  0  0  0  0  0  0
   56.9670   27.7950   45.7160 C   0  0  0  0  0  0  0  0  0  0  0  0
   58.3710   27.7220   45.8080 C   0  0  0  0  0  0  0  0  0  0  0  0
   58.9970   26.5630   46.2760 C   0  0  0  0  0  0  0  0  0  0  0  0
   60.7470   26.5030   46.3970 Cl  0  0  0  0  0  0  0  0  0  0  0  0
   58.2320   25.4580   46.6500 C   0  0  0  0  0  0  0  0  0  0  0  0
   56.8410   25.5070   46.5530 C   0  0  0  0  0  0  0  0  0  0  0  0
   56.2040   26.6650   46.0900 C   0  0  0  0  0  0  0  0  0  0  0  0
   54.8140   26.6730   46.0080 O   0  0  0  0  0  0  0  0  0  0  0  0
  1  2  1  0
  2  3  1  0
  3  4  2  0
  3  5  1  0
  5  6  2  0
  6  7  1  0
  7  8  2  0
  8  9  1  0
  9 10  2  0
 10 11  1  0
 11 12  1  0
 12 13  2  0
 12 14  1  0
 14 15  1  0
 15 16  1  0
 16 17  2  0
 16 18  1  0
 18 19  2  0
 19 20  1  0
 20 21  1  0
 20 22  2  0
 22 23  1  0
 23 24  2  0
 24 25  1  0
 10  5  1  0
 24 18  1  0
M  CHG  4   2  -1  11  -1  15  -1  25  -1
M  END
>  <UniqueID>  (327) 
17

>  <SMILES>  (327) 
C[N-]C(=O)c1ccccc1[N-]C(=O)C[N-]C(=O)c1cc(Cl)ccc1[O-]

>  <Energy>  (327) 
40.456930343897774

>  <Genealogy>  (327) 
C[N-]C(=O)c1ccccc1[N-]C(=O)C[N-]C(=O)c1cc(Cl)ccc1[O-] (protonated)
C[N-]C(=O)c1ccccc1[N-]C(=O)C[N-]C(=O)c1cc(Cl)ccc1[O-] (3D coordinates assigned)
C[N-]C(=O)c1ccccc1[N-]C(=O)C[N-]C(=O)c1cc(Cl)ccc1[O-] (optimized conformer: 40.456930343897774 kcal/mol)

>  <smiles>  (327) 
CNC(=O)c1ccccc1NC(=O)CNC(=O)c1cc(Cl)ccc1O

>  <score_type>  (327) 
oracle

>  <origin>  (327) 
adg

>  <m_score__min__energy>  (327) 
-14.68

>  <m_primary>  (327) 
energy

$$$$
25:0
     RDKit          3D

 23 25  0  0  0  0  0  0  0  0999 V2000
   60.2960   29.0540   47.1910 C   0  0  0  0  0  0  0  0  0  0  0  0
   59.3820   29.6170   46.3850 C   0  0  0  0  0  0  0  0  0  0  0  0
   58.6110   28.9750   45.4020 C   0  0  0  0  0  0  0  0  0  0  0  0
   58.4030   27.6670   45.1570 C   0  0  0  0  0  0  0  0  0  0  0  0
   57.2100   26.9000   45.5520 C   0  0  0  0  0  0  0  0  0  0  0  0
   57.2320   25.6560   46.0650 N   0  0  0  0  0  0  0  0  0  0  0  0
   55.9420   25.4330   46.3970 C   0  0  0  0  0  0  0  0  0  0  0  0
   55.5510   24.3480   46.9020 O   0  0  0  0  0  0  0  0  0  0  0  0
   55.1070   26.4650   46.1530 N   0  0  0  0  0  0  0  0  0  0  0  0
   55.9300   27.3900   45.6330 C   0  0  0  0  0  0  0  0  0  0  0  0
   55.5190   28.6590   45.2460 O   0  0  0  0  0  0  0  0  0  0  0  0
   58.0240   29.9810   44.6520 C   0  0  0  0  0  0  0  0  0  0  0  0
   58.3820   31.1780   45.2380 C   0  0  0  0  0  0  0  0  0  0  0  0
   57.9530   32.5270   44.7490 C   0  0  0  0  0  0  0  0  0  0  0  0
   59.2030   30.9590   46.2900 N   0  0  0  0  0  0  0  0  0  0  0  0
   59.8120   31.9770   47.1040 C   0  0  0  0  0  0  0  0  0  0  0  0
   61.2090   32.1140   47.1350 C   0  0  0  0  0  0  0  0  0  0  0  0
   61.8010   33.1040   47.9250 C   0  0  0  0  0  0  0  0  0  0  0  0
   61.0040   33.9640   48.6870 C   0  0  0  0  0  0  0  0  0  0  0  0
   61.5800   34.9230   49.4520 F   0  0  0  0  0  0  0  0  0  0  0  0
   59.6120   33.8330   48.6590 C   0  0  0  0  0  0  0  0  0  0  0  0
   59.0150   32.8440   47.8700 C   0  0  0  0  0  0  0  0  0  0  0  0
   57.6630   32.7380   47.8410 F   0  0  0  0  0  0  0  0  0  0  0  0
  1  2  2  0
  2  3  1  0
  3  4  2  0
  4  5  1  0
  5  6  1  0
  6  7  1  0
  7  8  2  0
  7  9  1  0
  9 10  1  0
 10 11  1  0
  3 12  1  0
 12 13  2  0
 13 14  1  0
 13 15  1  0
 15 16  1  0
 16 17  2  0
 17 18  1  0
 18 19  2  0
 19 20  1  0
 19 21  1  0
 21 22  2  0
 22 23  1  0
 15  2  1  0
 22 16  1  0
 10  5  2  0
M  CHG  3   6  -1   9  -1  11  -1
M  END
>  <UniqueID>  (328) 
26

>  <SMILES>  (328) 
C=c1/c(=C\c2[n-]c(=O)[n-]c2[O-])cc(C)n1-c1ccc(F)cc1F

>  <Energy>  (328) 
110.41358378103905

>  <Genealogy>  (328) 
C=c1c(=Cc2[n-]c(=O)[n-]c2[O-])cc(C)n1-c1ccc(F)cc1F (protonated)
C=c1/c(=C\c2[n-]c(=O)[n-]c2[O-])cc(C)n1-c1ccc(F)cc1F (cis-trans isomerization)
C=c1/c(=C\c2[n-]c(=O)[n-]c2[O-])cc(C)n1-c1ccc(F)cc1F (3D coordinates assigned)
C=c1/c(=C\c2[n-]c(=O)[n-]c2[O-])cc(C)n1-c1ccc(F)cc1F (optimized conformer: 110.41358378103905 kcal/mol)

>  <smiles>  (328) 
C=c1c(=Cc2[nH]c(=O)[nH]c2O)cc(C)n1-c1ccc(F)cc1F

>  <score_type>  (328) 
oracle

>  <origin>  (328) 
adg

>  <m_score__min__energy>  (328) 
-15.19

>  <m_primary>  (328) 
energy

$$$$
35:0
     RDKit          3D

 22 23  0  0  0  0  0  0  0  0999 V2000
   57.5590   26.8670   44.5270 C   0  0  0  0  0  0  0  0  0  0  0  0
   57.7500   28.1710   44.7560 C   0  0  0  0  0  0  0  0  0  0  0  0
   57.3210   29.2120   43.7600 C   0  0  0  0  0  0  0  0  0  0  0  0
   56.7020   30.4140   44.4320 C   0  0  0  0  0  0  0  0  0  0  0  0
   55.5010   30.3500   44.8040 O   0  0  0  0  0  0  0  0  0  0  0  0
   57.4440   31.6120   44.6990 N   0  0  0  0  0  0  0  0  0  0  0  0
   58.1050   31.9240   45.9330 C   0  0  0  0  0  0  0  0  0  0  0  0
   58.5150   30.8830   46.7840 C   0  0  0  0  0  0  0  0  0  0  0  0
   59.1860   31.1640   47.9730 C   0  0  0  0  0  0  0  0  0  0  0  0
   59.4690   32.4830   48.3210 C   0  0  0  0  0  0  0  0  0  0  0  0
   59.0840   33.5280   47.4780 C   0  0  0  0  0  0  0  0  0  0  0  0
   58.3990   33.2680   46.2760 C   0  0  0  0  0  0  0  0  0  0  0  0
   57.9930   34.3740   45.4420 N   0  0  0  0  0  0  0  0  0  0  0  0
   58.8370   35.0990   44.8740 O   0  0  0  0  0  0  0  0  0  0  0  0
   56.6600   34.6010   45.1920 O   0  0  0  0  0  0  0  0  0  0  0  0
   57.1140   25.9120   45.5600 C   0  0  0  0  0  0  0  0  0  0  0  0
   58.1010   24.6890   46.1670 S   0  0  0  0  0  0  0  0  0  0  0  0
   56.9170   24.1170   47.2080 C   0  0  0  0  0  0  0  0  0  0  0  0
   57.0650   23.1370   47.9830 O   0  0  0  0  0  0  0  0  0  0  0  0
   55.7750   24.8300   47.1310 N   0  0  0  0  0  0  0  0  0  0  0  0
   55.8800   25.8330   46.2200 C   0  0  0  0  0  0  0  0  0  0  0  0
   54.8300   26.7150   46.0030 O   0  0  0  0  0  0  0  0  0  0  0  0
  1  2  2  0
  2  3  1  0
  3  4  1  0
  4  5  2  0
  4  6  1  0
  6  7  1  0
  7  8  2  0
  8  9  1  0
  9 10  2  0
 10 11  1  0
 11 12  2  0
 12 13  1  0
 13 14  2  0
 13 15  1  0
  1 16  1  0
 16 17  1  0
 17 18  1  0
 18 19  2  0
 18 20  1  0
 20 21  1  0
 21 22  1  0
 12  7  1  0
 21 16  2  0
M  CHG  5   6  -1  13   1  15  -1  20  -1  22  -1
M  END
>  <UniqueID>  (329) 
36

>  <SMILES>  (329) 
O=C(C/C=C/c1sc(=O)[n-]c1[O-])[N-]c1ccccc1[N+](=O)[O-]

>  <Energy>  (329) 
68.40660310863315

>  <Genealogy>  (329) 
O=C(CC=Cc1sc(=O)[n-]c1[O-])[N-]c1ccccc1[N+](=O)[O-] (protonated)
O=C(C/C=C/c1sc(=O)[n-]c1[O-])[N-]c1ccccc1[N+](=O)[O-] (cis-trans isomerization)
O=C(C/C=C/c1sc(=O)[n-]c1[O-])[N-]c1ccccc1[N+](=O)[O-] (3D coordinates assigned)
O=C(C/C=C/c1sc(=O)[n-]c1[O-])[N-]c1ccccc1[N+](=O)[O-] (optimized conformer: 68.40660310863315 kcal/mol)

>  <smiles>  (329) 
O=C(CC=Cc1sc(=O)[nH]c1O)Nc1ccccc1[N+](=O)[O-]

>  <score_type>  (329) 
oracle

>  <origin>  (329) 
adg

>  <m_score__min__energy>  (329) 
-15.56

>  <m_primary>  (329) 
energy

$$$$
41:0
     RDKit          3D

 26 28  0  0  0  0  0  0  0  0999 V2000
   54.5790   30.4030   52.2930 C   0  0  0  0  0  0  0  0  0  0  0  0
   55.9900   30.8040   52.1290 C   0  0  0  0  0  0  0  0  0  0  0  0
   56.3180   31.9820   52.4260 O   0  0  0  0  0  0  0  0  0  0  0  0
   56.9920   29.9170   51.6110 N   0  0  0  0  0  0  0  0  0  0  0  0
   58.1160   30.2930   50.8010 C   0  0  0  0  0  0  0  0  0  0  0  0
   59.1710   29.4010   50.5490 C   0  0  0  0  0  0  0  0  0  0  0  0
   60.2520   29.7990   49.7610 C   0  0  0  0  0  0  0  0  0  0  0  0
   60.2950   31.0880   49.2260 C   0  0  0  0  0  0  0  0  0  0  0  0
   59.2500   31.9960   49.4740 C   0  0  0  0  0  0  0  0  0  0  0  0
   59.2920   33.3740   48.9280 C   0  0  0  0  0  0  0  0  0  0  0  0
   59.6710   34.3150   49.6770 O   0  0  0  0  0  0  0  0  0  0  0  0
   58.8990   33.6840   47.5320 C   0  0  0  0  0  0  0  0  0  0  0  0
   59.6410   34.6180   46.7840 C   0  0  0  0  0  0  0  0  0  0  0  0
   59.2700   34.9270   45.4710 C   0  0  0  0  0  0  0  0  0  0  0  0
   58.1520   34.3170   44.8960 C   0  0  0  0  0  0  0  0  0  0  0  0
   57.3980   33.4030   45.6350 C   0  0  0  0  0  0  0  0  0  0  0  0
   57.7650   33.0890   46.9480 C   0  0  0  0  0  0  0  0  0  0  0  0
   58.1740   31.5940   50.2850 C   0  0  0  0  0  0  0  0  0  0  0  0
   53.5590   31.2160   51.9960 C   0  0  0  0  0  0  0  0  0  0  0  0
   52.6290   30.9310   50.8900 C   0  0  0  0  0  0  0  0  0  0  0  0
   52.7680   29.9300   50.0030 N   0  0  0  0  0  0  0  0  0  0  0  0
   51.6950   30.0800   49.1950 C   0  0  0  0  0  0  0  0  0  0  0  0
   51.4680   29.3160   48.2220 O   0  0  0  0  0  0  0  0  0  0  0  0
   50.8870   31.1140   49.5120 N   0  0  0  0  0  0  0  0  0  0  0  0
   51.4930   31.6420   50.5870 C   0  0  0  0  0  0  0  0  0  0  0  0
   51.0190   32.7520   51.2750 O   0  0  0  0  0  0  0  0  0  0  0  0
  1  2  1  0
  2  3  2  0
  2  4  1  0
  4  5  1  0
  5  6  2  0
  6  7  1  0
  7  8  2  0
  8  9  1  0
  9 10  1  0
 10 11  2  0
 10 12  1  0
 12 13  2  0
 13 14  1  0
 14 15  2  0
 15 16  1  0
 16 17  2  0
  9 18  2  0
  1 19  2  0
 19 20  1  0
 20 21  1  0
 21 22  1  0
 22 23  2  0
 22 24  1  0
 24 25  1  0
 25 26  1  0
 18  5  1  0
 25 20  2  0
 17 12  1  0
M  CHG  4   4  -1  21  -1  24  -1  26  -1
M  END
>  <UniqueID>  (330) 
42

>  <SMILES>  (330) 
O=C(/C=C/c1[n-]c(=O)[n-]c1[O-])[N-]c1cccc(C(=O)c2ccccc2)c1

>  <Energy>  (330) 
79.89841248957113

>  <Genealogy>  (330) 
O=C(C=Cc1[n-]c(=O)[n-]c1[O-])[N-]c1cccc(C(=O)c2ccccc2)c1 (protonated)
O=C(/C=C/c1[n-]c(=O)[n-]c1[O-])[N-]c1cccc(C(=O)c2ccccc2)c1 (cis-trans isomerization)
O=C(/C=C/c1[n-]c(=O)[n-]c1[O-])[N-]c1cccc(C(=O)c2ccccc2)c1 (3D coordinates assigned)
O=C(/C=C/c1[n-]c(=O)[n-]c1[O-])[N-]c1cccc(C(=O)c2ccccc2)c1 (optimized conformer: 79.89841248957113 kcal/mol)

>  <smiles>  (330) 
O=C(C=Cc1[nH]c(=O)[nH]c1O)Nc1cccc(C(=O)c2ccccc2)c1

>  <score_type>  (330) 
oracle

>  <origin>  (330) 
adg

>  <m_score__min__energy>  (330) 
-19.390000000000001

>  <m_primary>  (330) 
energy

$$$$
84:0
     RDKit          3D

 23 24  0  0  0  0  0  0  0  0999 V2000
   50.9280   22.8280   46.3570 C   0  0  0  0  0  0  0  0  0  0  0  0
   52.0940   22.9580   45.3820 C   0  0  0  0  0  0  0  0  0  0  0  0
   53.0930   21.9740   45.6530 O   0  0  0  0  0  0  0  0  0  0  0  0
   54.4770   22.2060   45.7090 C   0  0  0  0  0  0  0  0  0  0  0  0
   55.1150   22.6630   44.5520 C   0  0  0  0  0  0  0  0  0  0  0  0
   56.4900   22.9100   44.5480 C   0  0  0  0  0  0  0  0  0  0  0  0
   57.2580   22.6940   45.7040 C   0  0  0  0  0  0  0  0  0  0  0  0
   58.7160   22.9660   45.6860 C   0  0  0  0  0  0  0  0  0  0  0  0
   59.5210   22.0190   45.4740 O   0  0  0  0  0  0  0  0  0  0  0  0
   59.2500   24.2660   45.9700 N   0  0  0  0  0  0  0  0  0  0  0  0
   58.5630   25.5170   45.8180 C   0  0  0  0  0  0  0  0  0  0  0  0
   59.2920   26.6470   45.4380 C   0  0  0  0  0  0  0  0  0  0  0  0
   58.6540   27.8780   45.2700 C   0  0  0  0  0  0  0  0  0  0  0  0
   57.2640   28.0000   45.4620 C   0  0  0  0  0  0  0  0  0  0  0  0
   56.6120   29.3230   45.2810 C   0  0  0  0  0  0  0  0  0  0  0  0
   57.2640   30.3850   45.4650 O   0  0  0  0  0  0  0  0  0  0  0  0
   55.2760   29.4180   44.9100 O   0  0  0  0  0  0  0  0  0  0  0  0
   56.5260   26.8500   45.8190 C   0  0  0  0  0  0  0  0  0  0  0  0
   55.1490   26.9080   46.0090 O   0  0  0  0  0  0  0  0  0  0  0  0
   57.1730   25.6210   45.9870 C   0  0  0  0  0  0  0  0  0  0  0  0
   56.6190   22.2360   46.8730 C   0  0  0  0  0  0  0  0  0  0  0  0
   57.3450   22.0020   48.0350 O   0  0  0  0  0  0  0  0  0  0  0  0
   55.2400   21.9940   46.8730 C   0  0  0  0  0  0  0  0  0  0  0  0
  1  2  1  0
  2  3  1  0
  3  4  1  0
  4  5  2  0
  5  6  1  0
  6  7  2  0
  7  8  1  0
  8  9  2  0
  8 10  1  0
 10 11  1  0
 11 12  2  0
 12 13  1  0
 13 14  2  0
 14 15  1  0
 15 16  2  0
 15 17  1  0
 14 18  1  0
 18 19  1  0
 18 20  2  0
  7 21  1  0
 21 22  1  0
 21 23  2  0
 23  4  1  0
 20 11  1  0
M  CHG  4  10  -1  17  -1  19  -1  22  -1
M  END
>  <UniqueID>  (331) 
82

>  <SMILES>  (331) 
CCOc1ccc(C(=O)[N-]c2ccc(C(=O)[O-])c([O-])c2)c([O-])c1

>  <Energy>  (331) 
43.13206611383118

>  <Genealogy>  (331) 
CCOc1ccc(C(=O)[N-]c2ccc(C(=O)[O-])c([O-])c2)c([O-])c1 (protonated)
CCOc1ccc(C(=O)[N-]c2ccc(C(=O)[O-])c([O-])c2)c([O-])c1 (3D coordinates assigned)
CCOc1ccc(C(=O)[N-]c2ccc(C(=O)[O-])c([O-])c2)c([O-])c1 (optimized conformer: 43.13206611383118 kcal/mol)

>  <smiles>  (331) 
CCOc1ccc(C(=O)Nc2ccc(C(=O)O)c(O)c2)c(O)c1

>  <score_type>  (331) 
oracle

>  <origin>  (331) 
adg

>  <m_score__min__energy>  (331) 
-15.81

>  <m_primary>  (331) 
energy

$$$$
4:0
     RDKit          3D

 23 24  0  0  0  0  0  0  0  0999 V2000
   58.1750   30.7020   46.2940 C   0  0  0  0  0  0  0  0  0  0  0  0
   57.3930   31.4920   45.3330 N   0  0  0  0  0  0  0  0  0  0  0  0
   57.3720   30.9550   43.9560 C   0  0  0  0  0  0  0  0  0  0  0  0
   56.6890   29.6100   43.7890 C   0  0  0  0  0  0  0  0  0  0  0  0
   56.6560   29.0580   42.6600 O   0  0  0  0  0  0  0  0  0  0  0  0
   56.2670   28.8390   44.9240 N   0  0  0  0  0  0  0  0  0  0  0  0
   56.9370   27.7110   45.5030 C   0  0  0  0  0  0  0  0  0  0  0  0
   58.3360   27.6750   45.6180 C   0  0  0  0  0  0  0  0  0  0  0  0
   58.9670   26.5850   46.2270 C   0  0  0  0  0  0  0  0  0  0  0  0
   60.7160   26.5440   46.3520 Cl  0  0  0  0  0  0  0  0  0  0  0  0
   58.2020   25.5360   46.7460 C   0  0  0  0  0  0  0  0  0  0  0  0
   56.8080   25.5810   46.6650 C   0  0  0  0  0  0  0  0  0  0  0  0
   56.1750   26.6700   46.0550 C   0  0  0  0  0  0  0  0  0  0  0  0
   54.7860   26.7100   45.9910 O   0  0  0  0  0  0  0  0  0  0  0  0
   57.7390   33.2030   45.4370 S   0  0  0  0  0  0  0  0  0  0  0  0
   56.5290   33.9090   45.9840 O   0  0  0  0  0  0  0  0  0  0  0  0
   58.0010   33.7450   44.0600 O   0  0  0  0  0  0  0  0  0  0  0  0
   59.1140   33.5680   46.4850 C   0  0  0  0  0  0  0  0  0  0  0  0
   60.4160   33.5610   45.9630 C   0  0  0  0  0  0  0  0  0  0  0  0
   61.5070   33.8490   46.7890 C   0  0  0  0  0  0  0  0  0  0  0  0
   61.3060   34.1360   48.1410 C   0  0  0  0  0  0  0  0  0  0  0  0
   60.0120   34.1290   48.6710 C   0  0  0  0  0  0  0  0  0  0  0  0
   58.9190   33.8410   47.8480 C   0  0  0  0  0  0  0  0  0  0  0  0
  1  2  1  0
  2  3  1  0
  3  4  1  0
  4  5  2  0
  4  6  1  0
  6  7  1  0
  7  8  2  0
  8  9  1  0
  9 10  1  0
  9 11  2  0
 11 12  1  0
 12 13  2  0
 13 14  1  0
  2 15  1  0
 15 16  2  0
 15 17  2  0
 15 18  1  0
 18 19  2  0
 19 20  1  0
 20 21  2  0
 21 22  1  0
 22 23  2  0
 13  7  1  0
 23 18  1  0
M  CHG  2   6  -1  14  -1
M  END
>  <UniqueID>  (332) 
3

>  <SMILES>  (332) 
CN(CC(=O)[N-]c1cc(Cl)ccc1[O-])S(=O)(=O)c1ccccc1

>  <Energy>  (332) 
47.04907950249011

>  <Genealogy>  (332) 
CN(CC(=O)[N-]c1cc(Cl)ccc1[O-])S(=O)(=O)c1ccccc1 (protonated)
CN(CC(=O)[N-]c1cc(Cl)ccc1[O-])S(=O)(=O)c1ccccc1 (3D coordinates assigned)
CN(CC(=O)[N-]c1cc(Cl)ccc1[O-])S(=O)(=O)c1ccccc1 (optimized conformer: 47.04907950249011 kcal/mol)

>  <smiles>  (332) 
CN(CC(=O)Nc1cc(Cl)ccc1O)S(=O)(=O)c1ccccc1

>  <score_type>  (332) 
oracle

>  <origin>  (332) 
adg

>  <m_score__min__energy>  (332) 
-14.460000000000001

>  <m_primary>  (332) 
energy

$$$$
11:0
     RDKit          3D

 25 26  0  0  0  0  0  0  0  0999 V2000
   54.8320   26.3420   46.0160 N   0  0  0  0  0  0  0  0  0  0  0  0
   56.2520   25.3640   46.1440 S   0  0  0  0  0  0  0  0  0  0  0  0
   56.5270   24.7010   44.8230 O   0  0  0  0  0  0  0  0  0  0  0  0
   56.0200   24.3030   47.1830 O   0  0  0  0  0  0  0  0  0  0  0  0
   57.6280   26.3770   46.5920 C   0  0  0  0  0  0  0  0  0  0  0  0
   58.5490   25.9210   47.5480 C   0  0  0  0  0  0  0  0  0  0  0  0
   59.6410   26.7120   47.9120 C   0  0  0  0  0  0  0  0  0  0  0  0
   59.8270   27.9610   47.3180 C   0  0  0  0  0  0  0  0  0  0  0  0
   58.9190   28.4260   46.3650 C   0  0  0  0  0  0  0  0  0  0  0  0
   57.8020   27.6490   46.0080 C   0  0  0  0  0  0  0  0  0  0  0  0
   56.8810   28.1020   45.0040 N   0  0  0  0  0  0  0  0  0  0  0  0
   56.3850   29.4380   44.8610 C   0  0  0  0  0  0  0  0  0  0  0  0
   55.1400   29.6290   44.8760 O   0  0  0  0  0  0  0  0  0  0  0  0
   57.2840   30.5540   44.7690 N   0  0  0  0  0  0  0  0  0  0  0  0
   56.8230   31.9140   44.4930 C   0  0  0  0  0  0  0  0  0  0  0  0
   57.8740   32.9290   44.8620 C   0  0  0  0  0  0  0  0  0  0  0  0
   57.6000   34.1560   44.7900 O   0  0  0  0  0  0  0  0  0  0  0  0
   59.1160   32.5380   45.4640 N   0  0  0  0  0  0  0  0  0  0  0  0
   59.5850   32.9120   46.7640 C   0  0  0  0  0  0  0  0  0  0  0  0
   60.8790   33.4310   46.8980 C   0  0  0  0  0  0  0  0  0  0  0  0
   61.3770   33.7680   48.1610 C   0  0  0  0  0  0  0  0  0  0  0  0
   60.5920   33.5670   49.3000 C   0  0  0  0  0  0  0  0  0  0  0  0
   59.3110   33.0180   49.1770 C   0  0  0  0  0  0  0  0  0  0  0  0
   58.5580   32.8020   50.2840 F   0  0  0  0  0  0  0  0  0  0  0  0
   58.8120   32.6810   47.9150 C   0  0  0  0  0  0  0  0  0  0  0  0
  1  2  1  0
  2  3  2  0
  2  4  2  0
  2  5  1  0
  5  6  2  0
  6  7  1  0
  7  8  2  0
  8  9  1  0
  9 10  2  0
 10 11  1  0
 11 12  1  0
 12 13  2  0
 12 14  1  0
 14 15  1  0
 15 16  1  0
 16 17  2  0
 16 18  1  0
 18 19  1  0
 19 20  2  0
 20 21  1  0
 21 22  2  0
 22 23  1  0
 23 24  1  0
 23 25  2  0
 10  5  1  0
 25 19  1  0
M  CHG  3   1  -1  11  -1  18  -1
M  END
>  <UniqueID>  (333) 
10

>  <SMILES>  (333) 
[NH-]S(=O)(=O)c1ccccc1[N-]C(=O)NCC(=O)[N-]c1cccc(F)c1

>  <Energy>  (333) 
45.895438579600246

>  <Genealogy>  (333) 
[NH-]S(=O)(=O)c1ccccc1[N-]C(=O)NCC(=O)[N-]c1cccc(F)c1 (protonated)
[NH-]S(=O)(=O)c1ccccc1[N-]C(=O)NCC(=O)[N-]c1cccc(F)c1 (3D coordinates assigned)
[NH-]S(=O)(=O)c1ccccc1[N-]C(=O)NCC(=O)[N-]c1cccc(F)c1 (optimized conformer: 45.895438579600246 kcal/mol)

>  <smiles>  (333) 
NS(=O)(=O)c1ccccc1NC(=O)NCC(=O)Nc1cccc(F)c1

>  <score_type>  (333) 
oracle

>  <origin>  (333) 
adg

>  <m_score__min__energy>  (333) 
-14.550000000000001

>  <m_primary>  (333) 
energy

$$$$
14:0
     RDKit          3D

 26 27  0  0  0  0  0  0  0  0999 V2000
   60.7260   26.7280   49.6840 C   0  0  0  0  0  0  0  0  0  0  0  0
   60.5160   28.1370   49.2150 C   0  0  0  0  0  0  0  0  0  0  0  0
   60.5140   29.1970   50.1350 C   0  0  0  0  0  0  0  0  0  0  0  0
   60.3570   30.5140   49.6940 C   0  0  0  0  0  0  0  0  0  0  0  0
   60.2090   30.7860   48.3260 C   0  0  0  0  0  0  0  0  0  0  0  0
   60.0340   32.4440   47.7550 S   0  0  0  0  0  0  0  0  0  0  0  0
   60.5410   32.5630   46.3440 O   0  0  0  0  0  0  0  0  0  0  0  0
   60.8580   33.3460   48.6290 O   0  0  0  0  0  0  0  0  0  0  0  0
   58.3700   32.9510   47.8290 N   0  0  0  0  0  0  0  0  0  0  0  0
   57.9490   33.5860   46.5790 C   0  0  0  0  0  0  0  0  0  0  0  0
   57.4550   32.5660   45.5990 C   0  0  0  0  0  0  0  0  0  0  0  0
   56.4580   32.8300   44.8750 O   0  0  0  0  0  0  0  0  0  0  0  0
   58.1130   31.2980   45.4890 N   0  0  0  0  0  0  0  0  0  0  0  0
   57.6500   30.2770   44.5500 C   0  0  0  0  0  0  0  0  0  0  0  0
   56.6480   29.3650   45.2010 C   0  0  0  0  0  0  0  0  0  0  0  0
   55.4480   29.4140   44.8240 O   0  0  0  0  0  0  0  0  0  0  0  0
   57.0240   28.3920   46.1860 N   0  0  0  0  0  0  0  0  0  0  0  0
   57.1940   26.9830   45.9790 C   0  0  0  0  0  0  0  0  0  0  0  0
   58.4720   26.4020   45.8910 C   0  0  0  0  0  0  0  0  0  0  0  0
   58.6070   25.0210   45.7180 C   0  0  0  0  0  0  0  0  0  0  0  0
   57.4730   24.2090   45.6500 C   0  0  0  0  0  0  0  0  0  0  0  0
   56.2010   24.7750   45.7660 C   0  0  0  0  0  0  0  0  0  0  0  0
   56.0600   26.1560   45.9380 C   0  0  0  0  0  0  0  0  0  0  0  0
   54.7880   26.7060   46.0610 O   0  0  0  0  0  0  0  0  0  0  0  0
   60.2360   29.7320   47.4040 C   0  0  0  0  0  0  0  0  0  0  0  0
   60.3930   28.4150   47.8450 C   0  0  0  0  0  0  0  0  0  0  0  0
  1  2  1  0
  2  3  2  0
  3  4  1  0
  4  5  2  0
  5  6  1  0
  6  7  2  0
  6  8  2  0
  6  9  1  0
  9 10  1  0
 10 11  1  0
 11 12  2  0
 11 13  1  0
 13 14  1  0
 14 15  1  0
 15 16  2  0
 15 17  1  0
 17 18  1  0
 18 19  2  0
 19 20  1  0
 20 21  2  0
 21 22  1  0
 22 23  2  0
 23 24  1  0
  5 25  1  0
 25 26  2  0
 26  2  1  0
 23 18  1  0
M  CHG  3   9  -1  17  -1  24  -1
M  END
>  <UniqueID>  (334) 
13

>  <SMILES>  (334) 
Cc1ccc(S(=O)(=O)[N-]CC(=O)NCC(=O)[N-]c2ccccc2[O-])cc1

>  <Energy>  (334) 
41.7795391362452

>  <Genealogy>  (334) 
Cc1ccc(S(=O)(=O)[N-]CC(=O)NCC(=O)[N-]c2ccccc2[O-])cc1 (protonated)
Cc1ccc(S(=O)(=O)[N-]CC(=O)NCC(=O)[N-]c2ccccc2[O-])cc1 (3D coordinates assigned)
Cc1ccc(S(=O)(=O)[N-]CC(=O)NCC(=O)[N-]c2ccccc2[O-])cc1 (optimized conformer: 41.7795391362452 kcal/mol)

>  <smiles>  (334) 
Cc1ccc(S(=O)(=O)NCC(=O)NCC(=O)Nc2ccccc2O)cc1

>  <score_type>  (334) 
oracle

>  <origin>  (334) 
adg

>  <m_score__min__energy>  (334) 
-15.51

>  <m_primary>  (334) 
energy

$$$$
61:0
     RDKit          3D

 19 20  0  0  0  0  0  0  0  0999 V2000
   57.1980   24.3420   45.8580 C   0  0  0  0  0  0  0  0  0  0  0  0
   57.6330   25.4640   46.4520 C   0  0  0  0  0  0  0  0  0  0  0  0
   57.5740   26.8220   45.8600 C   0  0  0  0  0  0  0  0  0  0  0  0
   58.7490   27.5370   45.5620 C   0  0  0  0  0  0  0  0  0  0  0  0
   58.6760   28.8250   45.0260 C   0  0  0  0  0  0  0  0  0  0  0  0
   57.4340   29.4200   44.8000 C   0  0  0  0  0  0  0  0  0  0  0  0
   56.2600   28.7320   45.1180 C   0  0  0  0  0  0  0  0  0  0  0  0
   55.0270   29.3360   44.9000 O   0  0  0  0  0  0  0  0  0  0  0  0
   56.3250   27.4380   45.6530 C   0  0  0  0  0  0  0  0  0  0  0  0
   55.1470   26.7660   45.9650 O   0  0  0  0  0  0  0  0  0  0  0  0
   56.0300   23.5510   46.3000 C   0  0  0  0  0  0  0  0  0  0  0  0
   56.1350   22.5320   47.2650 C   0  0  0  0  0  0  0  0  0  0  0  0
   57.3620   22.2150   47.8370 O   0  0  0  0  0  0  0  0  0  0  0  0
   55.0310   21.8290   47.6350 N   0  0  0  0  0  0  0  0  0  0  0  0
   53.8110   22.0630   47.0830 C   0  0  0  0  0  0  0  0  0  0  0  0
   52.8180   21.3890   47.4640 O   0  0  0  0  0  0  0  0  0  0  0  0
   53.6660   23.0450   46.0960 C   0  0  0  0  0  0  0  0  0  0  0  0
   51.9670   23.3940   45.2850 Br  0  0  0  0  0  0  0  0  0  0  0  0
   54.7850   23.7800   45.6990 C   0  0  0  0  0  0  0  0  0  0  0  0
  1  2  2  0
  2  3  1  0
  3  4  2  0
  4  5  1  0
  5  6  2  0
  6  7  1  0
  7  8  1  0
  7  9  2  0
  9 10  1  0
  1 11  1  0
 11 12  2  0
 12 13  1  0
 12 14  1  0
 14 15  1  0
 15 16  2  0
 15 17  1  0
 17 18  1  0
 17 19  2  0
  9  3  1  0
 19 11  1  0
M  CHG  4   8  -1  10  -1  13  -1  14  -1
M  END
>  <UniqueID>  (335) 
59

>  <SMILES>  (335) 
O=c1[n-]c([O-])c(/C=C\c2cccc([O-])c2[O-])cc1Br

>  <Energy>  (335) 
39.26168108336263

>  <Genealogy>  (335) 
O=c1[n-]c([O-])c(C=Cc2cccc([O-])c2[O-])cc1Br (protonated)
O=c1[n-]c([O-])c(/C=C\c2cccc([O-])c2[O-])cc1Br (cis-trans isomerization)
O=c1[n-]c([O-])c(/C=C\c2cccc([O-])c2[O-])cc1Br (3D coordinates assigned)
O=c1[n-]c([O-])c(/C=C\c2cccc([O-])c2[O-])cc1Br (optimized conformer: 39.26168108336263 kcal/mol)

>  <smiles>  (335) 
O=c1[nH]c(O)c(C=Cc2cccc(O)c2O)cc1Br

>  <score_type>  (335) 
oracle

>  <origin>  (335) 
adg

>  <m_score__min__energy>  (335) 
-16.91

>  <m_primary>  (335) 
energy

$$$$
0:0
     RDKit          3D

 28 30  0  0  0  0  0  0  0  0999 V2000
   60.5990   27.5490   49.6890 C   0  0  0  0  0  0  0  0  0  0  0  0
   59.9840   27.8950   48.5590 C   0  0  0  0  0  0  0  0  0  0  0  0
   59.4650   27.0270   47.7190 O   0  0  0  0  0  0  0  0  0  0  0  0
   58.9140   27.6660   46.7030 C   0  0  0  0  0  0  0  0  0  0  0  0
   58.2520   26.9910   45.7480 C   0  0  0  0  0  0  0  0  0  0  0  0
   57.1340   26.0520   45.9630 C   0  0  0  0  0  0  0  0  0  0  0  0
   55.8090   26.4980   45.8440 C   0  0  0  0  0  0  0  0  0  0  0  0
   55.5330   27.8390   45.6010 O   0  0  0  0  0  0  0  0  0  0  0  0
   54.7820   25.6200   45.9750 N   0  0  0  0  0  0  0  0  0  0  0  0
   55.0120   24.3020   46.2050 C   0  0  0  0  0  0  0  0  0  0  0  0
   53.7570   23.2730   46.3710 S   0  0  0  0  0  0  0  0  0  0  0  0
   56.2850   23.8380   46.2930 N   0  0  0  0  0  0  0  0  0  0  0  0
   57.3470   24.6750   46.1650 C   0  0  0  0  0  0  0  0  0  0  0  0
   58.5140   24.2030   46.2200 O   0  0  0  0  0  0  0  0  0  0  0  0
   59.1310   29.0450   46.8640 C   0  0  0  0  0  0  0  0  0  0  0  0
   58.9520   30.1690   46.0320 C   0  0  0  0  0  0  0  0  0  0  0  0
   58.4880   30.0260   44.7190 O   0  0  0  0  0  0  0  0  0  0  0  0
   57.1540   30.1990   44.3330 C   0  0  0  0  0  0  0  0  0  0  0  0
   56.6050   29.3880   43.2110 C   0  0  0  0  0  0  0  0  0  0  0  0
   56.4360   31.0880   44.8690 O   0  0  0  0  0  0  0  0  0  0  0  0
   59.2750   31.4480   46.5560 C   0  0  0  0  0  0  0  0  0  0  0  0
   58.9910   32.5870   45.7860 O   0  0  0  0  0  0  0  0  0  0  0  0
   57.9320   33.4750   46.0110 C   0  0  0  0  0  0  0  0  0  0  0  0
   57.3900   34.2650   44.8690 C   0  0  0  0  0  0  0  0  0  0  0  0
   57.3670   33.5430   47.1370 O   0  0  0  0  0  0  0  0  0  0  0  0
   59.9020   31.5520   47.8220 C   0  0  0  0  0  0  0  0  0  0  0  0
   60.1820   30.4080   48.5790 C   0  0  0  0  0  0  0  0  0  0  0  0
   59.7860   29.1710   48.0710 C   0  0  0  0  0  0  0  0  0  0  0  0
  1  2  2  0
  2  3  1  0
  3  4  1  0
  4  5  2  3
  5  6  1  0
  6  7  2  0
  7  8  1  0
  7  9  1  0
  9 10  1  0
 10 11  2  0
 10 12  1  0
 12 13  1  0
 13 14  2  0
  4 15  1  0
 15 16  2  0
 16 17  1  0
 17 18  1  0
 18 19  1  0
 18 20  2  0
 16 21  1  0
 21 22  1  0
 22 23  1  0
 23 24  1  0
 23 25  2  0
 21 26  2  0
 26 27  1  0
 27 28  2  0
 28  2  1  0
 13  6  1  0
 28 15  1  0
M  CHG  3   8  -1   9  -1  12  -1
M  END
>  <UniqueID>  (336) 
1

>  <SMILES>  (336) 
C=c1oc(=Cc2c([O-])[n-]c(=S)[n-]c2=O)c2c(OC(C)=O)c(OC(C)=O)ccc12

>  <Energy>  (336) 
98.26575831801605

>  <Genealogy>  (336) 
C=c1oc(=Cc2c([O-])[n-]c(=S)[n-]c2=O)c2c(OC(C)=O)c(OC(C)=O)ccc12 (protonated)
C=c1oc(=Cc2c([O-])[n-]c(=S)[n-]c2=O)c2c(OC(C)=O)c(OC(C)=O)ccc12 (3D coordinates assigned)
C=c1oc(=Cc2c([O-])[n-]c(=S)[n-]c2=O)c2c(OC(C)=O)c(OC(C)=O)ccc12 (optimized conformer: 98.26575831801605 kcal/mol)

>  <smiles>  (336) 
C=c1oc(=Cc2c(O)[nH]c(=S)[nH]c2=O)c2c(OC(C)=O)c(OC(C)=O)ccc12

>  <score_type>  (336) 
oracle

>  <origin>  (336) 
adg

>  <m_score__min__energy>  (336) 
-15.050000000000001

>  <m_primary>  (336) 
energy

$$$$
20:0
     RDKit          3D

 29 33  0  0  0  0  0  0  0  0999 V2000
   53.2480   31.3360   52.2830 C   0  0  0  0  0  0  0  0  0  0  0  0
   52.3700   31.3880   51.1020 C   0  0  0  0  0  0  0  0  0  0  0  0
   52.3490   30.4330   50.1570 N   0  0  0  0  0  0  0  0  0  0  0  0
   51.3610   30.8340   49.3270 C   0  0  0  0  0  0  0  0  0  0  0  0
   51.0430   30.1920   48.2930 O   0  0  0  0  0  0  0  0  0  0  0  0
   50.7340   31.9690   49.6990 N   0  0  0  0  0  0  0  0  0  0  0  0
   51.3750   32.3030   50.8310 C   0  0  0  0  0  0  0  0  0  0  0  0
   51.0210   33.3880   51.6220 O   0  0  0  0  0  0  0  0  0  0  0  0
   54.2130   30.4220   52.4580 C   0  0  0  0  0  0  0  0  0  0  0  0
   54.1040   29.0720   52.7780 C   0  0  0  0  0  0  0  0  0  0  0  0
   55.3420   28.5330   52.8550 N   0  0  0  0  0  0  0  0  0  0  0  0
   56.2340   29.4860   52.6060 N   0  0  0  0  0  0  0  0  0  0  0  0
   57.6050   29.4450   52.5270 C   0  0  0  0  0  0  0  0  0  0  0  0
   58.3280   28.3830   52.7490 N   0  0  0  0  0  0  0  0  0  0  0  0
   58.7220   27.7810   54.0150 C   0  0  0  0  0  0  0  0  0  0  0  0
   58.0450   28.3860   55.2330 C   0  0  0  0  0  0  0  0  0  0  0  0
   57.5630   27.0570   54.6790 C   0  0  0  0  0  0  0  0  0  0  0  0
   58.2530   30.5950   52.1890 N   0  0  0  0  0  0  0  0  0  0  0  0
   57.5680   31.7490   51.9520 C   0  0  0  0  0  0  0  0  0  0  0  0
   58.4430   33.2230   51.4380 S   0  0  0  0  0  0  0  0  0  0  0  0
   59.3590   32.3920   50.0890 C   0  0  0  0  0  0  0  0  0  0  0  0
   59.1770   33.1160   48.7810 C   0  0  0  0  0  0  0  0  0  0  0  0
   59.9670   34.2370   48.4780 C   0  0  0  0  0  0  0  0  0  0  0  0
   59.7490   34.9530   47.2970 C   0  0  0  0  0  0  0  0  0  0  0  0
   58.7420   34.5590   46.4130 C   0  0  0  0  0  0  0  0  0  0  0  0
   57.9530   33.4420   46.7050 C   0  0  0  0  0  0  0  0  0  0  0  0
   58.1710   32.7200   47.8820 C   0  0  0  0  0  0  0  0  0  0  0  0
   56.2130   31.7760   52.0530 N   0  0  0  0  0  0  0  0  0  0  0  0
   55.5730   30.6300   52.3760 C   0  0  0  0  0  0  0  0  0  0  0  0
  1  2  1  0
  2  3  1  0
  3  4  1  0
  4  5  2  0
  4  6  1  0
  6  7  1  0
  7  8  1  0
  1  9  2  0
  9 10  1  0
 10 11  2  0
 11 12  1  0
 12 13  1  0
 13 14  2  3
 14 15  1  0
 15 16  1  0
 16 17  1  0
 13 18  1  0
 18 19  2  0
 19 20  1  0
 20 21  1  0
 21 22  1  0
 22 23  2  0
 23 24  1  0
 24 25  2  0
 25 26  1  0
 26 27  2  0
 19 28  1  0
 28 29  2  0
  7  2  2  0
 29  9  1  0
 29 12  1  0
 17 15  1  0
 27 22  1  0
M  CHG  4   3  -1   6  -1   8  -1  11   1
M  END
>  <UniqueID>  (337) 
18

>  <SMILES>  (337) 
O=c1[n-]c([O-])c(/C=c2\c[nH+]n3c(=NC4CC4)nc(SCc4ccccc4)nc23)[n-]1

>  <Energy>  (337) 
389.5271891722551

>  <Genealogy>  (337) 
O=c1[n-]c([O-])c(C=c2c[nH+]n3c(=NC4CC4)nc(SCc4ccccc4)nc23)[n-]1 (protonated)
O=c1[n-]c([O-])c(/C=c2\c[nH+]n3c(=NC4CC4)nc(SCc4ccccc4)nc23)[n-]1 (cis-trans isomerization)
O=c1[n-]c([O-])c(/C=c2\c[nH+]n3c(=NC4CC4)nc(SCc4ccccc4)nc23)[n-]1 (3D coordinates assigned)
O=c1[n-]c([O-])c(/C=c2\c[nH+]n3c(=NC4CC4)nc(SCc4ccccc4)nc23)[n-]1 (nonaromatic ring conformer: 389.5271891722551 kcal/mol)

>  <smiles>  (337) 
O=c1[nH]c(O)c(C=c2cnn3c(=NC4CC4)nc(SCc4ccccc4)nc23)[nH]1

>  <score_type>  (337) 
oracle

>  <origin>  (337) 
adg

>  <m_score__min__energy>  (337) 
-16.050000000000001

>  <m_primary>  (337) 
energy

$$$$
42:0
     RDKit          3D

 25 29  0  0  0  0  0  0  0  0999 V2000
   52.7080   30.9170   52.7280 C   0  0  0  0  0  0  0  0  0  0  0  0
   52.0160   31.0340   51.4330 C   0  0  0  0  0  0  0  0  0  0  0  0
   52.1190   30.1140   50.4570 N   0  0  0  0  0  0  0  0  0  0  0  0
   51.4050   30.6490   49.4440 C   0  0  0  0  0  0  0  0  0  0  0  0
   51.2550   30.0660   48.3390 O   0  0  0  0  0  0  0  0  0  0  0  0
   50.8750   31.8640   49.7040 N   0  0  0  0  0  0  0  0  0  0  0  0
   51.2790   32.0990   50.9620 C   0  0  0  0  0  0  0  0  0  0  0  0
   51.0250   33.2840   51.6410 O   0  0  0  0  0  0  0  0  0  0  0  0
   53.5530   29.9230   53.0400 C   0  0  0  0  0  0  0  0  0  0  0  0
   53.2770   28.6740   53.5880 C   0  0  0  0  0  0  0  0  0  0  0  0
   54.4290   27.9730   53.6940 N   0  0  0  0  0  0  0  0  0  0  0  0
   55.4240   28.7210   53.2290 N   0  0  0  0  0  0  0  0  0  0  0  0
   56.7700   28.4680   53.1150 C   0  0  0  0  0  0  0  0  0  0  0  0
   57.3490   27.3590   53.4840 N   0  0  0  0  0  0  0  0  0  0  0  0
   57.3550   26.7050   54.7860 C   0  0  0  0  0  0  0  0  0  0  0  0
   56.3700   25.5510   54.8410 C   0  0  0  0  0  0  0  0  0  0  0  0
   57.8620   25.2740   54.7660 C   0  0  0  0  0  0  0  0  0  0  0  0
   57.5530   29.4470   52.5850 N   0  0  0  0  0  0  0  0  0  0  0  0
   57.0240   30.6370   52.1790 C   0  0  0  0  0  0  0  0  0  0  0  0
   57.8730   31.6390   51.6270 N   0  0  0  0  0  0  0  0  0  0  0  0
   58.5190   31.9270   50.3350 C   0  0  0  0  0  0  0  0  0  0  0  0
   59.1870   33.1910   50.7720 C   0  0  0  0  0  0  0  0  0  0  0  0
   58.5240   32.8820   52.0740 C   0  0  0  0  0  0  0  0  0  0  0  0
   55.6910   30.8700   52.2980 N   0  0  0  0  0  0  0  0  0  0  0  0
   54.9150   29.8950   52.8260 C   0  0  0  0  0  0  0  0  0  0  0  0
  1  2  1  0
  2  3  1  0
  3  4  1  0
  4  5  2  0
  4  6  1  0
  6  7  1  0
  7  8  1  0
  1  9  2  0
  9 10  1  0
 10 11  2  0
 11 12  1  0
 12 13  1  0
 13 14  2  0
 14 15  1  0
 15 16  1  0
 16 17  1  0
 13 18  1  0
 18 19  2  0
 19 20  1  0
 20 21  1  0
 21 22  1  0
 22 23  1  0
 19 24  1  0
 24 25  2  0
  7  2  2  0
 25  9  1  0
 25 12  1  0
 17 15  1  0
 23 20  1  0
M  CHG  4   3  -1   6  -1   8  -1  11   1
M  END
>  <UniqueID>  (338) 
38

>  <SMILES>  (338) 
O=c1[n-]c([O-])c(/C=c2\c[nH+]n3/c(=N\C4CC4)nc(N4CCC4)nc23)[n-]1

>  <Energy>  (338) 
432.02123353476304

>  <Genealogy>  (338) 
O=c1[n-]c([O-])c(C=c2c[nH+]n3c(=NC4CC4)nc(N4CCC4)nc23)[n-]1 (protonated)
O=c1[n-]c([O-])c(/C=c2\c[nH+]n3/c(=N\C4CC4)nc(N4CCC4)nc23)[n-]1 (cis-trans isomerization)
O=c1[n-]c([O-])c(/C=c2\c[nH+]n3/c(=N\C4CC4)nc(N4CCC4)nc23)[n-]1 (3D coordinates assigned)
O=c1[n-]c([O-])c(/C=c2\c[nH+]n3/c(=N\C4CC4)nc(N4CCC4)nc23)[n-]1 (nonaromatic ring conformer: 432.02123353476304 kcal/mol)

>  <smiles>  (338) 
O=c1[nH]c(O)c(C=c2cnn3c(=NC4CC4)nc(N4CCC4)nc23)[nH]1

>  <score_type>  (338) 
oracle

>  <origin>  (338) 
adg

>  <m_score__min__energy>  (338) 
-14.17

>  <m_primary>  (338) 
energy

$$$$
49:0
     RDKit          3D

 36 39  0  0  0  0  0  0  0  0999 V2000
   63.6500   33.1360   47.1080 C   0  0  0  0  0  0  0  0  0  0  0  0
   63.9810   33.3500   48.5820 C   0  0  0  0  0  0  0  0  0  0  0  0
   62.9770   34.1470   49.2050 O   0  0  0  0  0  0  0  0  0  0  0  0
   61.7300   33.6480   49.6050 C   0  0  0  0  0  0  0  0  0  0  0  0
   61.6210   33.0320   50.7010 O   0  0  0  0  0  0  0  0  0  0  0  0
   60.5750   33.8480   48.7650 N   0  0  0  0  0  0  0  0  0  0  0  0
   59.2670   33.2780   49.1230 C   0  0  0  0  0  0  0  0  0  0  0  0
   58.5870   32.6890   47.8790 C   0  0  0  0  0  0  0  0  0  0  0  0
   58.6300   33.6300   46.7490 N   0  0  0  0  0  0  0  0  0  0  0  0
   57.7800   33.4110   45.6070 C   0  0  0  0  0  0  0  0  0  0  0  0
   57.1500   34.3830   45.1050 O   0  0  0  0  0  0  0  0  0  0  0  0
   57.6410   32.0710   44.9990 C   0  0  0  0  0  0  0  0  0  0  0  0
   57.4330   31.9440   43.6170 C   0  0  0  0  0  0  0  0  0  0  0  0
   57.3240   30.6790   43.0340 C   0  0  0  0  0  0  0  0  0  0  0  0
   57.4590   29.5250   43.8110 C   0  0  0  0  0  0  0  0  0  0  0  0
   57.3090   28.2470   43.1740 N   0  0  0  0  0  0  0  0  0  0  0  0
   57.8050   26.9770   43.6240 C   0  0  0  0  0  0  0  0  0  0  0  0
   57.8230   26.0200   42.8040 O   0  0  0  0  0  0  0  0  0  0  0  0
   58.3630   26.7730   44.9860 C   0  0  0  0  0  0  0  0  0  0  0  0
   59.5250   27.4680   45.3850 C   0  0  0  0  0  0  0  0  0  0  0  0
   60.1460   28.3370   44.5440 F   0  0  0  0  0  0  0  0  0  0  0  0
   60.0870   27.2410   46.6410 C   0  0  0  0  0  0  0  0  0  0  0  0
   59.5220   26.3030   47.5030 C   0  0  0  0  0  0  0  0  0  0  0  0
   58.3880   25.5900   47.1150 C   0  0  0  0  0  0  0  0  0  0  0  0
   57.7960   25.8200   45.8660 C   0  0  0  0  0  0  0  0  0  0  0  0
   56.6130   25.0830   45.5150 N   0  0  0  0  0  0  0  0  0  0  0  0
   55.3310   25.4680   45.6280 C   0  0  0  0  0  0  0  0  0  0  0  0
   54.9130   26.6930   46.1230 O   0  0  0  0  0  0  0  0  0  0  0  0
   54.5080   24.4520   45.2040 C   0  0  0  0  0  0  0  0  0  0  0  0
   55.2680   23.4070   44.8180 N   0  0  0  0  0  0  0  0  0  0  0  0
   56.5350   23.8300   45.0310 C   0  0  0  0  0  0  0  0  0  0  0  0
   57.5470   23.1160   44.7860 O   0  0  0  0  0  0  0  0  0  0  0  0
   57.6590   29.6490   45.1970 C   0  0  0  0  0  0  0  0  0  0  0  0
   57.7610   30.9140   45.7840 C   0  0  0  0  0  0  0  0  0  0  0  0
   59.3580   34.8990   46.8660 C   0  0  0  0  0  0  0  0  0  0  0  0
   60.7100   34.6700   47.5550 C   0  0  0  0  0  0  0  0  0  0  0  0
  1  2  1  0
  2  3  1  0
  3  4  1  0
  4  5  2  0
  4  6  1  0
  6  7  1  0
  7  8  1  0
  8  9  1  0
  9 10  1  0
 10 11  2  0
 10 12  1  0
 12 13  2  0
 13 14  1  0
 14 15  2  0
 15 16  1  0
 16 17  1  0
 17 18  2  0
 17 19  1  0
 19 20  2  0
 20 21  1  0
 20 22  1  0
 22 23  2  0
 23 24  1  0
 24 25  2  0
 25 26  1  0
 26 27  1  0
 27 28  1  0
 27 29  2  0
 29 30  1  0
 30 31  1  0
 31 32  2  0
 15 33  1  0
 33 34  2  0
  9 35  1  0
 35 36  1  0
 36  6  1  0
 34 12  1  0
 25 19  1  0
 31 26  1  0
M  CHG  3  16  -1  28  -1  30  -1
M  END
>  <UniqueID>  (339) 
44

>  <SMILES>  (339) 
CCOC(=O)N1CCN(C(=O)c2ccc([N-]C(=O)c3c(F)cccc3-n3c([O-])c[n-]c3=O)cc2)CC1

>  <Energy>  (339) 
108.97708181719938

>  <Genealogy>  (339) 
CCOC(=O)N1CCN(C(=O)c2ccc([N-]C(=O)c3c(F)cccc3-n3c([O-])c[n-]c3=O)cc2)CC1 (protonated)
CCOC(=O)N1CCN(C(=O)c2ccc([N-]C(=O)c3c(F)cccc3-n3c([O-])c[n-]c3=O)cc2)CC1 (3D coordinates assigned)
CCOC(=O)N1CCN(C(=O)c2ccc([N-]C(=O)c3c(F)cccc3-n3c([O-])c[n-]c3=O)cc2)CC1 (nonaromatic ring conformer: 108.97708181719938 kcal/mol)

>  <smiles>  (339) 
CCOC(=O)N1CCN(C(=O)c2ccc(NC(=O)c3c(F)cccc3-n3c(O)c[nH]c3=O)cc2)CC1

>  <score_type>  (339) 
oracle

>  <origin>  (339) 
adg

>  <m_score__min__energy>  (339) 
-14.77

>  <m_primary>  (339) 
energy

$$$$
52:0
     RDKit          3D

 30 32  0  0  0  0  0  0  0  0999 V2000
   58.0620   33.6950   47.1350 C   0  0  0  0  0  0  0  0  0  0  0  0
   57.4600   32.9890   46.1400 N   0  0  0  0  0  0  0  0  0  0  0  0
   57.8480   33.0900   44.8390 C   0  0  0  0  0  0  0  0  0  0  0  0
   57.2150   32.3820   43.9460 N   0  0  0  0  0  0  0  0  0  0  0  0
   57.1090   30.9490   43.8870 C   0  0  0  0  0  0  0  0  0  0  0  0
   56.3150   30.4340   43.0560 O   0  0  0  0  0  0  0  0  0  0  0  0
   57.9590   30.0720   44.7270 C   0  0  0  0  0  0  0  0  0  0  0  0
   58.9690   29.2910   44.1410 C   0  0  0  0  0  0  0  0  0  0  0  0
   59.7200   28.4060   44.9200 C   0  0  0  0  0  0  0  0  0  0  0  0
   59.4770   28.2990   46.2950 C   0  0  0  0  0  0  0  0  0  0  0  0
   60.3330   27.1070   47.2690 S   0  0  0  0  0  0  0  0  0  0  0  0
   60.9710   27.8030   48.4370 O   0  0  0  0  0  0  0  0  0  0  0  0
   61.3990   26.4220   46.4600 O   0  0  0  0  0  0  0  0  0  0  0  0
   59.2080   25.9180   47.8480 N   0  0  0  0  0  0  0  0  0  0  0  0
   58.0920   25.4480   47.0730 C   0  0  0  0  0  0  0  0  0  0  0  0
   58.0890   24.1730   46.4810 C   0  0  0  0  0  0  0  0  0  0  0  0
   56.9980   23.7490   45.7180 C   0  0  0  0  0  0  0  0  0  0  0  0
   55.8900   24.5890   45.5310 C   0  0  0  0  0  0  0  0  0  0  0  0
   54.7050   24.1030   44.7380 C   0  0  0  0  0  0  0  0  0  0  0  0
   53.8430   23.2210   45.5840 C   0  0  0  0  0  0  0  0  0  0  0  0
   54.2530   22.8240   46.7060 O   0  0  0  0  0  0  0  0  0  0  0  0
   52.6050   22.8020   45.1150 O   0  0  0  0  0  0  0  0  0  0  0  0
   55.8810   25.8580   46.1410 C   0  0  0  0  0  0  0  0  0  0  0  0
   54.7880   26.7060   45.9940 O   0  0  0  0  0  0  0  0  0  0  0  0
   56.9740   26.2790   46.9050 C   0  0  0  0  0  0  0  0  0  0  0  0
   58.5050   29.1080   46.8910 C   0  0  0  0  0  0  0  0  0  0  0  0
   57.7500   29.9890   46.1140 C   0  0  0  0  0  0  0  0  0  0  0  0
   58.9340   33.9340   44.5130 C   0  0  0  0  0  0  0  0  0  0  0  0
   59.5590   34.6680   45.5230 C   0  0  0  0  0  0  0  0  0  0  0  0
   59.1210   34.5540   46.8410 C   0  0  0  0  0  0  0  0  0  0  0  0
  1  2  1  0
  2  3  1  0
  3  4  2  0
  4  5  1  0
  5  6  2  0
  5  7  1  0
  7  8  2  0
  8  9  1  0
  9 10  2  0
 10 11  1  0
 11 12  2  0
 11 13  2  0
 11 14  1  0
 14 15  1  0
 15 16  2  0
 16 17  1  0
 17 18  2  0
 18 19  1  0
 19 20  1  0
 20 21  2  0
 20 22  1  0
 18 23  1  0
 23 24  1  0
 23 25  2  0
 10 26  1  0
 26 27  2  0
  3 28  1  0
 28 29  2  0
 29 30  1  0
 30  1  2  0
 27  7  1  0
 25 15  1  0
M  CHG  3   2  -1  22  -1  24  -1
M  END
>  <UniqueID>  (340) 
47

>  <SMILES>  (340) 
O=C([O-])Cc1ccc(NS(=O)(=O)c2ccc(C(=O)/N=c3\cccc[n-]3)cc2)cc1[O-]

>  <Energy>  (340) 
58.151329952977214

>  <Genealogy>  (340) 
O=C([O-])Cc1ccc(NS(=O)(=O)c2ccc(C(=O)N=c3cccc[n-]3)cc2)cc1[O-] (protonated)
O=C([O-])Cc1ccc(NS(=O)(=O)c2ccc(C(=O)/N=c3\cccc[n-]3)cc2)cc1[O-] (cis-trans isomerization)
O=C([O-])Cc1ccc(NS(=O)(=O)c2ccc(C(=O)/N=c3\cccc[n-]3)cc2)cc1[O-] (3D coordinates assigned)
O=C([O-])Cc1ccc(NS(=O)(=O)c2ccc(C(=O)/N=c3\cccc[n-]3)cc2)cc1[O-] (optimized conformer: 58.151329952977214 kcal/mol)

>  <smiles>  (340) 
O=C(O)Cc1ccc(NS(=O)(=O)c2ccc(C(=O)N=c3cccc[nH]3)cc2)cc1O

>  <score_type>  (340) 
oracle

>  <origin>  (340) 
adg

>  <m_score__min__energy>  (340) 
-15.84

>  <m_primary>  (340) 
energy

$$$$
74:0
     RDKit          3D

 29 31  0  0  0  0  0  0  0  0999 V2000
   58.7850   29.8700   44.2050 N   0  0  0  0  0  0  0  0  0  0  0  0
   57.7190   30.8110   45.1900 S   0  0  0  0  0  0  0  0  0  0  0  0
   56.3940   30.9070   44.4870 O   0  0  0  0  0  0  0  0  0  0  0  0
   57.5210   30.1350   46.5160 O   0  0  0  0  0  0  0  0  0  0  0  0
   58.3850   32.4340   45.4390 C   0  0  0  0  0  0  0  0  0  0  0  0
   58.3500   33.3430   44.3690 C   0  0  0  0  0  0  0  0  0  0  0  0
   58.9240   34.6100   44.4900 C   0  0  0  0  0  0  0  0  0  0  0  0
   59.5480   34.9830   45.6790 C   0  0  0  0  0  0  0  0  0  0  0  0
   59.5850   34.0960   46.7560 C   0  0  0  0  0  0  0  0  0  0  0  0
   58.9890   32.8280   46.6610 C   0  0  0  0  0  0  0  0  0  0  0  0
   59.0050   31.9580   47.8560 C   0  0  0  0  0  0  0  0  0  0  0  0
   59.7910   30.7960   47.8680 C   0  0  0  0  0  0  0  0  0  0  0  0
   59.8460   29.9940   49.0120 C   0  0  0  0  0  0  0  0  0  0  0  0
   59.1240   30.3480   50.1610 C   0  0  0  0  0  0  0  0  0  0  0  0
   59.2210   29.4980   51.3990 C   0  0  0  0  0  0  0  0  0  0  0  0
   57.8850   29.2820   51.9790 N   0  0  0  0  0  0  0  0  0  0  0  0
   57.4800   30.3670   52.8870 C   0  0  0  0  0  0  0  0  0  0  0  0
   56.2770   31.0960   52.3690 C   0  0  0  0  0  0  0  0  0  0  0  0
   56.2380   32.3530   52.4470 O   0  0  0  0  0  0  0  0  0  0  0  0
   55.2420   30.3670   51.6960 N   0  0  0  0  0  0  0  0  0  0  0  0
   53.8300   30.4230   51.9550 C   0  0  0  0  0  0  0  0  0  0  0  0
   53.1430   29.3890   52.6210 C   0  0  0  0  0  0  0  0  0  0  0  0
   51.7630   29.4810   52.8290 C   0  0  0  0  0  0  0  0  0  0  0  0
   51.0570   30.5970   52.3740 C   0  0  0  0  0  0  0  0  0  0  0  0
   51.7280   31.6170   51.6930 C   0  0  0  0  0  0  0  0  0  0  0  0
   51.0240   32.7190   51.2240 O   0  0  0  0  0  0  0  0  0  0  0  0
   53.1070   31.5250   51.4780 C   0  0  0  0  0  0  0  0  0  0  0  0
   58.3460   31.5150   50.1530 C   0  0  0  0  0  0  0  0  0  0  0  0
   58.2920   32.3180   49.0100 C   0  0  0  0  0  0  0  0  0  0  0  0
  1  2  1  0
  2  3  2  0
  2  4  2  0
  2  5  1  0
  5  6  2  0
  6  7  1  0
  7  8  2  0
  8  9  1  0
  9 10  2  0
 10 11  1  0
 11 12  2  0
 12 13  1  0
 13 14  2  0
 14 15  1  0
 15 16  1  0
 16 17  1  0
 17 18  1  0
 18 19  2  0
 18 20  1  0
 20 21  1  0
 21 22  2  0
 22 23  1  0
 23 24  2  0
 24 25  1  0
 25 26  1  0
 25 27  2  0
 14 28  1  0
 28 29  2  0
 10  5  1  0
 29 11  1  0
 27 21  1  0
M  CHG  3   1  -1  20  -1  26  -1
M  END
>  <UniqueID>  (341) 
69

>  <SMILES>  (341) 
[NH-]S(=O)(=O)c1ccccc1-c1ccc(CNCC(=O)[N-]c2cccc([O-])c2)cc1

>  <Energy>  (341) 
54.689893917058555

>  <Genealogy>  (341) 
[NH-]S(=O)(=O)c1ccccc1-c1ccc(CNCC(=O)[N-]c2cccc([O-])c2)cc1 (protonated)
[NH-]S(=O)(=O)c1ccccc1-c1ccc(CNCC(=O)[N-]c2cccc([O-])c2)cc1 (3D coordinates assigned)
[NH-]S(=O)(=O)c1ccccc1-c1ccc(CNCC(=O)[N-]c2cccc([O-])c2)cc1 (optimized conformer: 54.689893917058555 kcal/mol)

>  <smiles>  (341) 
NS(=O)(=O)c1ccccc1-c1ccc(CNCC(=O)Nc2cccc(O)c2)cc1

>  <score_type>  (341) 
oracle

>  <origin>  (341) 
adg

>  <m_score__min__energy>  (341) 
-16.579999999999998

>  <m_primary>  (341) 
energy

$$$$
30:0
     RDKit          3D

 26 28  0  0  0  0  0  0  0  0999 V2000
   55.2120   29.3990   44.5970 N   0  0  0  0  0  0  0  0  0  0  0  0
   56.5940   29.8890   43.6850 S   0  0  0  0  0  0  0  0  0  0  0  0
   56.8940   28.8590   42.6320 O   0  0  0  0  0  0  0  0  0  0  0  0
   56.2980   31.2000   43.0140 O   0  0  0  0  0  0  0  0  0  0  0  0
   57.9780   30.0480   44.7610 C   0  0  0  0  0  0  0  0  0  0  0  0
   58.3420   31.3140   45.2360 C   0  0  0  0  0  0  0  0  0  0  0  0
   59.4820   31.4660   46.0280 C   0  0  0  0  0  0  0  0  0  0  0  0
   60.2610   30.3530   46.3570 C   0  0  0  0  0  0  0  0  0  0  0  0
   59.8790   29.0720   45.9270 C   0  0  0  0  0  0  0  0  0  0  0  0
   60.6820   27.9180   46.2040 N   0  0  0  0  0  0  0  0  0  0  0  0
   60.2640   26.7160   46.8650 C   0  0  0  0  0  0  0  0  0  0  0  0
   60.8890   26.3460   47.8930 O   0  0  0  0  0  0  0  0  0  0  0  0
   59.2170   25.8020   46.2850 C   0  0  0  0  0  0  0  0  0  0  0  0
   57.8080   26.3530   46.5210 C   0  0  0  0  0  0  0  0  0  0  0  0
   56.8050   25.2940   46.4030 N   0  0  0  0  0  0  0  0  0  0  0  0
   55.4870   25.4550   46.1530 C   0  0  0  0  0  0  0  0  0  0  0  0
   54.8660   26.6890   45.9940 O   0  0  0  0  0  0  0  0  0  0  0  0
   54.8550   24.2300   46.0930 C   0  0  0  0  0  0  0  0  0  0  0  0
   55.8200   23.2810   46.3460 C   0  0  0  0  0  0  0  0  0  0  0  0
   57.0100   23.9630   46.5040 C   0  0  0  0  0  0  0  0  0  0  0  0
   58.2480   23.3760   46.7400 O   0  0  0  0  0  0  0  0  0  0  0  0
   55.5620   21.8070   46.3480 C   0  0  0  0  0  0  0  0  0  0  0  0
   54.0640   21.5320   46.5810 C   0  0  0  0  0  0  0  0  0  0  0  0
   53.1710   22.4260   45.6920 C   0  0  0  0  0  0  0  0  0  0  0  0
   53.3930   23.9280   45.9680 C   0  0  0  0  0  0  0  0  0  0  0  0
   58.7500   28.9290   45.1080 C   0  0  0  0  0  0  0  0  0  0  0  0
  1  2  1  0
  2  3  2  0
  2  4  2  0
  2  5  1  0
  5  6  2  0
  6  7  1  0
  7  8  2  0
  8  9  1  0
  9 10  1  0
 10 11  1  0
 11 12  2  0
 11 13  1  0
 13 14  1  0
 14 15  1  0
 15 16  1  0
 16 17  1  0
 16 18  2  0
 18 19  1  0
 19 20  2  0
 20 21  1  0
 19 22  1  0
 22 23  1  0
 23 24  1  0
 24 25  1  0
  9 26  2  0
 26  5  1  0
 20 15  1  0
 25 18  1  0
M  CHG  4   1  -1  10  -1  17  -1  21  -1
M  END
>  <UniqueID>  (342) 
26

>  <SMILES>  (342) 
[NH-]S(=O)(=O)c1cccc([N-]C(=O)CCn2c([O-])c3c(c2[O-])CCCC3)c1

>  <Energy>  (342) 
69.90907894644445

>  <Genealogy>  (342) 
[NH-]S(=O)(=O)c1cccc([N-]C(=O)CCn2c([O-])c3c(c2[O-])CCCC3)c1 (protonated)
[NH-]S(=O)(=O)c1cccc([N-]C(=O)CCn2c([O-])c3c(c2[O-])CCCC3)c1 (3D coordinates assigned)
[NH-]S(=O)(=O)c1cccc([N-]C(=O)CCn2c([O-])c3c(c2[O-])CCCC3)c1 (nonaromatic ring conformer: 69.90907894644445 kcal/mol)

>  <smiles>  (342) 
NS(=O)(=O)c1cccc(NC(=O)CCn2c(O)c3c(c2O)CCCC3)c1

>  <score_type>  (342) 
oracle

>  <origin>  (342) 
adg

>  <m_score__min__energy>  (342) 
-15.84

>  <m_primary>  (342) 
energy

$$$$
39:0
     RDKit          3D

 30 32  0  0  0  0  0  0  0  0999 V2000
   57.6240   28.2880   43.6660 C   0  0  0  0  0  0  0  0  0  0  0  0
   56.5500   29.7040   43.6340 S   0  0  0  0  0  0  0  0  0  0  0  0
   56.1590   30.0100   42.2160 O   0  0  0  0  0  0  0  0  0  0  0  0
   55.3070   29.4080   44.4260 O   0  0  0  0  0  0  0  0  0  0  0  0
   57.3900   31.0860   44.3290 C   0  0  0  0  0  0  0  0  0  0  0  0
   57.8090   32.1440   43.5130 C   0  0  0  0  0  0  0  0  0  0  0  0
   58.4580   33.2500   44.0710 C   0  0  0  0  0  0  0  0  0  0  0  0
   58.6930   33.3170   45.4560 C   0  0  0  0  0  0  0  0  0  0  0  0
   59.3800   34.4900   46.0480 C   0  0  0  0  0  0  0  0  0  0  0  0
   59.5700   35.5230   45.3510 O   0  0  0  0  0  0  0  0  0  0  0  0
   59.8720   34.4300   47.3940 N   0  0  0  0  0  0  0  0  0  0  0  0
   60.7660   33.4450   47.9320 C   0  0  0  0  0  0  0  0  0  0  0  0
   62.0770   33.8270   48.2420 C   0  0  0  0  0  0  0  0  0  0  0  0
   62.9840   32.8940   48.7510 C   0  0  0  0  0  0  0  0  0  0  0  0
   62.5940   31.5660   48.9350 C   0  0  0  0  0  0  0  0  0  0  0  0
   61.2970   31.1560   48.5940 C   0  0  0  0  0  0  0  0  0  0  0  0
   60.8900   29.7170   48.7760 C   0  0  0  0  0  0  0  0  0  0  0  0
   59.6580   29.4490   48.1050 O   0  0  0  0  0  0  0  0  0  0  0  0
   59.3850   28.3040   47.3390 C   0  0  0  0  0  0  0  0  0  0  0  0
   60.3530   27.6690   46.5420 C   0  0  0  0  0  0  0  0  0  0  0  0
   60.0280   26.5620   45.8270 N   0  0  0  0  0  0  0  0  0  0  0  0
   58.7770   26.0320   45.8510 C   0  0  0  0  0  0  0  0  0  0  0  0
   57.7690   26.6280   46.6260 C   0  0  0  0  0  0  0  0  0  0  0  0
   56.4010   26.0600   46.6640 C   0  0  0  0  0  0  0  0  0  0  0  0
   55.3250   26.7130   45.9890 N   0  0  0  0  0  0  0  0  0  0  0  0
   56.1730   24.9920   47.2930 O   0  0  0  0  0  0  0  0  0  0  0  0
   58.0910   27.7750   47.3700 C   0  0  0  0  0  0  0  0  0  0  0  0
   60.3840   32.1010   48.0960 C   0  0  0  0  0  0  0  0  0  0  0  0
   58.2620   32.2520   46.2710 C   0  0  0  0  0  0  0  0  0  0  0  0
   57.6160   31.1480   45.7110 C   0  0  0  0  0  0  0  0  0  0  0  0
  1  2  1  0
  2  3  2  0
  2  4  2  0
  2  5  1  0
  5  6  2  0
  6  7  1  0
  7  8  2  0
  8  9  1  0
  9 10  2  0
  9 11  1  0
 11 12  1  0
 12 13  2  0
 13 14  1  0
 14 15  2  0
 15 16  1  0
 16 17  1  0
 17 18  1  0
 18 19  1  0
 19 20  2  0
 20 21  1  0
 21 22  2  0
 22 23  1  0
 23 24  1  0
 24 25  1  0
 24 26  2  0
 23 27  2  0
 16 28  2  0
  8 29  1  0
 29 30  2  0
 30  5  1  0
 28 12  1  0
 27 19  1  0
M  CHG  2  11  -1  25  -1
M  END
>  <UniqueID>  (343) 
34

>  <SMILES>  (343) 
CS(=O)(=O)c1ccc(C(=O)[N-]c2cccc(COc3cncc(C([NH-])=O)c3)c2)cc1

>  <Energy>  (343) 
52.105181530523566

>  <Genealogy>  (343) 
CS(=O)(=O)c1ccc(C(=O)[N-]c2cccc(COc3cncc(C([NH-])=O)c3)c2)cc1 (protonated)
CS(=O)(=O)c1ccc(C(=O)[N-]c2cccc(COc3cncc(C([NH-])=O)c3)c2)cc1 (3D coordinates assigned)
CS(=O)(=O)c1ccc(C(=O)[N-]c2cccc(COc3cncc(C([NH-])=O)c3)c2)cc1 (optimized conformer: 52.105181530523566 kcal/mol)

>  <smiles>  (343) 
CS(=O)(=O)c1ccc(C(=O)Nc2cccc(COc3cncc(C(N)=O)c3)c2)cc1

>  <score_type>  (343) 
oracle

>  <origin>  (343) 
adg

>  <m_score__min__energy>  (343) 
-14.119999999999999

>  <m_primary>  (343) 
energy

$$$$
66:0
     RDKit          3D

 28 30  0  0  0  0  0  0  0  0999 V2000
   57.0790   22.6370   48.7630 O   0  0  0  0  0  0  0  0  0  0  0  0
   56.9360   23.1030   47.6020 C   0  0  0  0  0  0  0  0  0  0  0  0
   56.0270   24.2840   47.3970 C   0  0  0  0  0  0  0  0  0  0  0  0
   56.7950   25.4210   46.8010 C   0  0  0  0  0  0  0  0  0  0  0  0
   58.4760   25.5380   46.7490 S   0  0  0  0  0  0  0  0  0  0  0  0
   58.4390   26.9840   45.8940 C   0  0  0  0  0  0  0  0  0  0  0  0
   59.4670   27.6230   45.5470 O   0  0  0  0  0  0  0  0  0  0  0  0
   57.1730   27.3850   45.6170 N   0  0  0  0  0  0  0  0  0  0  0  0
   56.8360   28.6040   44.8690 C   0  0  0  0  0  0  0  0  0  0  0  0
   57.3480   29.8320   45.5790 C   0  0  0  0  0  0  0  0  0  0  0  0
   58.1020   29.6920   46.5770 O   0  0  0  0  0  0  0  0  0  0  0  0
   57.0560   31.1550   45.1120 N   0  0  0  0  0  0  0  0  0  0  0  0
   57.7630   32.3420   45.4870 C   0  0  0  0  0  0  0  0  0  0  0  0
   58.1030   33.2770   44.5010 C   0  0  0  0  0  0  0  0  0  0  0  0
   58.8140   34.4320   44.8410 C   0  0  0  0  0  0  0  0  0  0  0  0
   59.2090   34.6460   46.1640 C   0  0  0  0  0  0  0  0  0  0  0  0
   58.8950   33.7050   47.1500 C   0  0  0  0  0  0  0  0  0  0  0  0
   59.2990   33.9130   48.4630 O   0  0  0  0  0  0  0  0  0  0  0  0
   58.1790   32.5510   46.8120 C   0  0  0  0  0  0  0  0  0  0  0  0
   56.2540   26.5160   46.1320 C   0  0  0  0  0  0  0  0  0  0  0  0
   54.8820   26.7080   46.0010 O   0  0  0  0  0  0  0  0  0  0  0  0
   57.7270   22.5600   46.5370 N   0  0  0  0  0  0  0  0  0  0  0  0
   57.3130   22.3870   45.1760 C   0  0  0  0  0  0  0  0  0  0  0  0
   57.0450   23.4890   44.3440 C   0  0  0  0  0  0  0  0  0  0  0  0
   56.6110   23.2880   43.0300 C   0  0  0  0  0  0  0  0  0  0  0  0
   56.4230   21.9910   42.5440 C   0  0  0  0  0  0  0  0  0  0  0  0
   56.6590   20.8940   43.3770 C   0  0  0  0  0  0  0  0  0  0  0  0
   57.0930   21.0920   44.6910 C   0  0  0  0  0  0  0  0  0  0  0  0
  1  2  2  0
  2  3  1  0
  3  4  1  0
  4  5  1  0
  5  6  1  0
  6  7  2  0
  6  8  1  0
  8  9  1  0
  9 10  1  0
 10 11  2  0
 10 12  1  0
 12 13  1  0
 13 14  2  0
 14 15  1  0
 15 16  2  0
 16 17  1  0
 17 18  1  0
 17 19  2  0
  8 20  1  0
 20 21  1  0
  2 22  1  0
 22 23  1  0
 23 24  2  0
 24 25  1  0
 25 26  2  0
 26 27  1  0
 27 28  2  0
 20  4  2  0
 28 23  1  0
 19 13  1  0
M  CHG  4  12  -1  18  -1  21  -1  22  -1
M  END
>  <UniqueID>  (344) 
59

>  <SMILES>  (344) 
O=C(Cc1sc(=O)n(CC(=O)[N-]c2cccc([O-])c2)c1[O-])[N-]c1ccccc1

>  <Energy>  (344) 
79.29497750999369

>  <Genealogy>  (344) 
O=C(Cc1sc(=O)n(CC(=O)[N-]c2cccc([O-])c2)c1[O-])[N-]c1ccccc1 (protonated)
O=C(Cc1sc(=O)n(CC(=O)[N-]c2cccc([O-])c2)c1[O-])[N-]c1ccccc1 (3D coordinates assigned)
O=C(Cc1sc(=O)n(CC(=O)[N-]c2cccc([O-])c2)c1[O-])[N-]c1ccccc1 (optimized conformer: 79.29497750999369 kcal/mol)

>  <smiles>  (344) 
O=C(Cc1sc(=O)n(CC(=O)Nc2cccc(O)c2)c1O)Nc1ccccc1

>  <score_type>  (344) 
oracle

>  <origin>  (344) 
adg

>  <m_score__min__energy>  (344) 
-15.83

>  <m_primary>  (344) 
energy

$$$$
10:0
     RDKit          3D

 26 27  0  0  0  0  0  0  0  0999 V2000
   58.2920   34.0770   46.7290 C   0  0  0  0  0  0  0  0  0  0  0  0
   57.5550   33.8280   45.1310 S   0  0  0  0  0  0  0  0  0  0  0  0
   56.6380   34.9790   44.8290 O   0  0  0  0  0  0  0  0  0  0  0  0
   58.6460   33.7520   44.1020 O   0  0  0  0  0  0  0  0  0  0  0  0
   56.6580   32.3440   45.1580 N   0  0  0  0  0  0  0  0  0  0  0  0
   57.1340   31.0340   44.8150 C   0  0  0  0  0  0  0  0  0  0  0  0
   56.4960   30.3660   43.7620 C   0  0  0  0  0  0  0  0  0  0  0  0
   56.8890   29.0770   43.3910 C   0  0  0  0  0  0  0  0  0  0  0  0
   57.9420   28.4400   44.0610 C   0  0  0  0  0  0  0  0  0  0  0  0
   58.2890   27.0130   43.7310 C   0  0  0  0  0  0  0  0  0  0  0  0
   57.4510   26.1160   44.5210 N   0  0  0  0  0  0  0  0  0  0  0  0
   57.9360   25.5290   45.7350 C   0  0  0  0  0  0  0  0  0  0  0  0
   59.1460   25.1880   45.8340 O   0  0  0  0  0  0  0  0  0  0  0  0
   57.0340   25.4210   46.9250 C   0  0  0  0  0  0  0  0  0  0  0  0
   55.9160   24.5110   46.6160 N   0  0  0  0  0  0  0  0  0  0  0  0
   54.8090   24.9920   45.9640 C   0  0  0  0  0  0  0  0  0  0  0  0
   54.7060   26.3410   45.6340 O   0  0  0  0  0  0  0  0  0  0  0  0
   53.7670   24.1340   45.6130 C   0  0  0  0  0  0  0  0  0  0  0  0
   53.8790   22.7850   45.9260 C   0  0  0  0  0  0  0  0  0  0  0  0
   52.9580   21.9830   45.6190 O   0  0  0  0  0  0  0  0  0  0  0  0
   54.9870   22.3310   46.5600 N   0  0  0  0  0  0  0  0  0  0  0  0
   56.0010   23.1680   46.9010 C   0  0  0  0  0  0  0  0  0  0  0  0
   57.0150   22.6920   47.4790 O   0  0  0  0  0  0  0  0  0  0  0  0
   58.5860   29.1020   45.1160 C   0  0  0  0  0  0  0  0  0  0  0  0
   58.1940   30.3910   45.4930 C   0  0  0  0  0  0  0  0  0  0  0  0
   58.8600   30.9860   46.5100 F   0  0  0  0  0  0  0  0  0  0  0  0
  1  2  1  0
  2  3  2  0
  2  4  2  0
  2  5  1  0
  5  6  1  0
  6  7  2  0
  7  8  1  0
  8  9  2  0
  9 10  1  0
 10 11  1  0
 11 12  1  0
 12 13  2  0
 12 14  1  0
 14 15  1  0
 15 16  1  0
 16 17  1  0
 16 18  2  0
 18 19  1  0
 19 20  2  0
 19 21  1  0
 21 22  1  0
 22 23  2  0
  9 24  1  0
 24 25  2  0
 25 26  1  0
 25  6  1  0
 22 15  1  0
M  CHG  3   5  -1  17  -1  21  -1
M  END
>  <UniqueID>  (345) 
10

>  <SMILES>  (345) 
CS(=O)(=O)[N-]c1ccc(CNC(=O)Cn2c([O-])cc(=O)[n-]c2=O)cc1F

>  <Energy>  (345) 
36.39248681894241

>  <Genealogy>  (345) 
CS(=O)(=O)[N-]c1ccc(CNC(=O)Cn2c([O-])cc(=O)[n-]c2=O)cc1F (protonated)
CS(=O)(=O)[N-]c1ccc(CNC(=O)Cn2c([O-])cc(=O)[n-]c2=O)cc1F (3D coordinates assigned)
CS(=O)(=O)[N-]c1ccc(CNC(=O)Cn2c([O-])cc(=O)[n-]c2=O)cc1F (optimized conformer: 36.39248681894241 kcal/mol)

>  <smiles>  (345) 
CS(=O)(=O)Nc1ccc(CNC(=O)Cn2c(O)cc(=O)[nH]c2=O)cc1F

>  <score_type>  (345) 
oracle

>  <origin>  (345) 
adg

>  <m_score__min__energy>  (345) 
-14.029999999999999

>  <m_primary>  (345) 
energy

$$$$
17:0
     RDKit          3D

 29 31  0  0  0  0  0  0  0  0999 V2000
   59.2400   28.1340   45.4380 O   0  0  0  0  0  0  0  0  0  0  0  0
   58.1160   27.8470   45.9310 C   0  0  0  0  0  0  0  0  0  0  0  0
   58.0280   26.7800   46.9800 C   0  0  0  0  0  0  0  0  0  0  0  0
   57.9440   25.4920   46.3740 O   0  0  0  0  0  0  0  0  0  0  0  0
   57.2580   25.2460   45.1780 C   0  0  0  0  0  0  0  0  0  0  0  0
   57.7990   25.5450   44.0770 O   0  0  0  0  0  0  0  0  0  0  0  0
   55.8980   24.6370   45.2050 C   0  0  0  0  0  0  0  0  0  0  0  0
   54.7680   25.3730   45.6230 C   0  0  0  0  0  0  0  0  0  0  0  0
   54.8810   26.6960   46.0360 O   0  0  0  0  0  0  0  0  0  0  0  0
   53.5410   24.7910   45.6360 N   0  0  0  0  0  0  0  0  0  0  0  0
   53.3700   23.5030   45.2530 C   0  0  0  0  0  0  0  0  0  0  0  0
   52.2210   22.9880   45.2740 O   0  0  0  0  0  0  0  0  0  0  0  0
   54.4340   22.7680   44.8480 N   0  0  0  0  0  0  0  0  0  0  0  0
   55.6840   23.2960   44.8140 C   0  0  0  0  0  0  0  0  0  0  0  0
   56.6370   22.5700   44.4250 O   0  0  0  0  0  0  0  0  0  0  0  0
   56.9260   28.4910   45.4540 N   0  0  0  0  0  0  0  0  0  0  0  0
   56.9460   29.5920   44.5300 C   0  0  0  0  0  0  0  0  0  0  0  0
   56.5350   29.4030   43.1990 C   0  0  0  0  0  0  0  0  0  0  0  0
   56.6450   30.4410   42.2710 C   0  0  0  0  0  0  0  0  0  0  0  0
   57.1810   31.6710   42.6570 C   0  0  0  0  0  0  0  0  0  0  0  0
   57.5990   31.8690   43.9750 C   0  0  0  0  0  0  0  0  0  0  0  0
   57.4710   30.8460   44.9220 C   0  0  0  0  0  0  0  0  0  0  0  0
   57.8920   31.0990   46.2350 O   0  0  0  0  0  0  0  0  0  0  0  0
   58.7020   32.1750   46.6280 C   0  0  0  0  0  0  0  0  0  0  0  0
   60.0750   31.9590   46.7920 C   0  0  0  0  0  0  0  0  0  0  0  0
   60.9130   33.0050   47.1910 C   0  0  0  0  0  0  0  0  0  0  0  0
   60.3830   34.2780   47.4160 C   0  0  0  0  0  0  0  0  0  0  0  0
   59.0170   34.5090   47.2350 C   0  0  0  0  0  0  0  0  0  0  0  0
   58.1770   33.4660   46.8340 C   0  0  0  0  0  0  0  0  0  0  0  0
  1  2  2  0
  2  3  1  0
  3  4  1  0
  4  5  1  0
  5  6  2  0
  5  7  1  0
  7  8  2  0
  8  9  1  0
  8 10  1  0
 10 11  1  0
 11 12  2  0
 11 13  1  0
 13 14  1  0
 14 15  2  0
  2 16  1  0
 16 17  1  0
 17 18  2  0
 18 19  1  0
 19 20  2  0
 20 21  1  0
 21 22  2  0
 22 23  1  0
 23 24  1  0
 24 25  2  0
 25 26  1  0
 26 27  2  0
 27 28  1  0
 28 29  2  0
 14  7  1  0
 22 17  1  0
 29 24  1  0
M  CHG  3   9  -1  10  -1  13  -1
M  END
>  <UniqueID>  (346) 
17

>  <SMILES>  (346) 
O=C(COC(=O)c1c([O-])[n-]c(=O)[n-]c1=O)Nc1ccccc1Oc1ccccc1

>  <Energy>  (346) 
57.24771349917204

>  <Genealogy>  (346) 
O=C(COC(=O)c1c([O-])[n-]c(=O)[n-]c1=O)Nc1ccccc1Oc1ccccc1 (protonated)
O=C(COC(=O)c1c([O-])[n-]c(=O)[n-]c1=O)Nc1ccccc1Oc1ccccc1 (3D coordinates assigned)
O=C(COC(=O)c1c([O-])[n-]c(=O)[n-]c1=O)Nc1ccccc1Oc1ccccc1 (optimized conformer: 57.24771349917204 kcal/mol)

>  <smiles>  (346) 
O=C(COC(=O)c1c(O)[nH]c(=O)[nH]c1=O)Nc1ccccc1Oc1ccccc1

>  <score_type>  (346) 
oracle

>  <origin>  (346) 
adg

>  <m_score__min__energy>  (346) 
-15.23

>  <m_primary>  (346) 
energy

$$$$
25:0
     RDKit          3D

 25 27  0  0  0  0  0  0  0  0999 V2000
   60.3710   33.2980   49.9910 O   0  0  0  0  0  0  0  0  0  0  0  0
   60.0690   32.5130   49.0550 C   0  0  0  0  0  0  0  0  0  0  0  0
   61.1540   31.6390   48.4850 C   0  0  0  0  0  0  0  0  0  0  0  0
   62.2220   32.4770   47.8450 C   0  0  0  0  0  0  0  0  0  0  0  0
   62.0690   33.3320   46.7780 C   0  0  0  0  0  0  0  0  0  0  0  0
   63.2380   33.9610   46.5470 N   0  0  0  0  0  0  0  0  0  0  0  0
   64.0710   33.4530   47.4770 C   0  0  0  0  0  0  0  0  0  0  0  0
   63.4890   32.5390   48.2860 N   0  0  0  0  0  0  0  0  0  0  0  0
   58.7100   32.5120   48.5780 N   0  0  0  0  0  0  0  0  0  0  0  0
   58.2480   32.6480   47.3690 C   0  0  0  0  0  0  0  0  0  0  0  0
   58.1720   31.5250   46.5370 C   0  0  0  0  0  0  0  0  0  0  0  0
   57.6180   31.6330   45.2480 C   0  0  0  0  0  0  0  0  0  0  0  0
   57.5600   30.4720   44.3220 C   0  0  0  0  0  0  0  0  0  0  0  0
   57.5310   30.6690   43.0800 O   0  0  0  0  0  0  0  0  0  0  0  0
   57.5570   29.0760   44.8080 C   0  0  0  0  0  0  0  0  0  0  0  0
   58.7600   28.3650   44.8900 C   0  0  0  0  0  0  0  0  0  0  0  0
   58.7660   27.0550   45.3660 C   0  0  0  0  0  0  0  0  0  0  0  0
   57.5740   26.4460   45.7640 C   0  0  0  0  0  0  0  0  0  0  0  0
   56.3650   27.1500   45.6900 C   0  0  0  0  0  0  0  0  0  0  0  0
   55.1710   26.5470   46.0750 O   0  0  0  0  0  0  0  0  0  0  0  0
   56.3570   28.4680   45.2200 C   0  0  0  0  0  0  0  0  0  0  0  0
   55.1580   29.1700   45.1520 O   0  0  0  0  0  0  0  0  0  0  0  0
   57.1450   32.8870   44.8310 C   0  0  0  0  0  0  0  0  0  0  0  0
   57.2460   33.9890   45.6800 C   0  0  0  0  0  0  0  0  0  0  0  0
   57.7920   33.8450   46.9150 N   0  0  0  0  0  0  0  0  0  0  0  0
  1  2  2  0
  2  3  1  0
  3  4  1  0
  4  5  2  0
  5  6  1  0
  6  7  1  0
  7  8  2  0
  2  9  1  0
  9 10  2  3
 10 11  1  0
 11 12  2  0
 12 13  1  0
 13 14  2  0
 13 15  1  0
 15 16  2  0
 16 17  1  0
 17 18  2  0
 18 19  1  0
 19 20  1  0
 19 21  2  0
 21 22  1  0
 12 23  1  0
 23 24  2  0
 24 25  1  0
  8  4  1  0
 25 10  1  0
 21 15  1  0
M  CHG  3   6  -1  22  -1  25  -1
M  END
>  <UniqueID>  (347) 
25

>  <SMILES>  (347) 
O=C(Cc1c[n-]cn1)N=c1cc(C(=O)c2cccc(O)c2[O-])cc[n-]1

>  <Energy>  (347) 
79.47662184637542

>  <Genealogy>  (347) 
O=C(Cc1c[n-]cn1)N=c1cc(C(=O)c2cccc(O)c2[O-])cc[n-]1 (protonated)
O=C(Cc1c[n-]cn1)N=c1cc(C(=O)c2cccc(O)c2[O-])cc[n-]1 (3D coordinates assigned)
O=C(Cc1c[n-]cn1)N=c1cc(C(=O)c2cccc(O)c2[O-])cc[n-]1 (optimized conformer: 79.47662184637542 kcal/mol)

>  <smiles>  (347) 
O=C(Cc1c[nH]cn1)N=c1cc(C(=O)c2cccc(O)c2O)cc[nH]1

>  <score_type>  (347) 
oracle

>  <origin>  (347) 
adg

>  <m_score__min__energy>  (347) 
-14.130000000000001

>  <m_primary>  (347) 
energy

$$$$
29:0
     RDKit          3D

 26 28  0  0  0  0  0  0  0  0999 V2000
   52.0900   29.0990   54.5050 C   0  0  0  0  0  0  0  0  0  0  0  0
   52.9720   29.8340   53.5930 N   0  0  0  0  0  0  0  0  0  0  0  0
   54.4090   29.7530   53.7140 C   0  0  0  0  0  0  0  0  0  0  0  0
   55.0030   30.4700   54.5660 O   0  0  0  0  0  0  0  0  0  0  0  0
   55.2170   28.7690   52.9080 C   0  0  0  0  0  0  0  0  0  0  0  0
   56.4430   29.3880   52.4120 N   0  0  0  0  0  0  0  0  0  0  0  0
   56.5800   30.7100   51.8690 C   0  0  0  0  0  0  0  0  0  0  0  0
   55.6510   31.5360   52.0690 O   0  0  0  0  0  0  0  0  0  0  0  0
   57.7750   31.1630   51.1270 C   0  0  0  0  0  0  0  0  0  0  0  0
   59.0580   30.6210   51.2060 C   0  0  0  0  0  0  0  0  0  0  0  0
   59.8060   31.3320   50.2970 C   0  0  0  0  0  0  0  0  0  0  0  0
   61.1500   31.2220   49.9450 C   0  0  0  0  0  0  0  0  0  0  0  0
   61.6430   32.0920   48.9530 C   0  0  0  0  0  0  0  0  0  0  0  0
   63.3270   32.0000   48.4730 Cl  0  0  0  0  0  0  0  0  0  0  0  0
   60.7860   33.0350   48.3400 C   0  0  0  0  0  0  0  0  0  0  0  0
   59.4310   33.1150   48.7130 C   0  0  0  0  0  0  0  0  0  0  0  0
   58.9750   32.2440   49.7020 C   0  0  0  0  0  0  0  0  0  0  0  0
   57.7300   32.1450   50.1930 N   0  0  0  0  0  0  0  0  0  0  0  0
   52.3890   30.5720   52.5030 C   0  0  0  0  0  0  0  0  0  0  0  0
   52.5830   30.1490   51.1800 C   0  0  0  0  0  0  0  0  0  0  0  0
   52.0010   30.8570   50.1270 C   0  0  0  0  0  0  0  0  0  0  0  0
   51.2310   31.9880   50.4060 C   0  0  0  0  0  0  0  0  0  0  0  0
   50.6410   32.7030   49.3710 O   0  0  0  0  0  0  0  0  0  0  0  0
   51.0580   32.3930   51.6930 N   0  0  0  0  0  0  0  0  0  0  0  0
   51.6130   31.7230   52.7380 C   0  0  0  0  0  0  0  0  0  0  0  0
   51.4320   32.1430   53.9110 O   0  0  0  0  0  0  0  0  0  0  0  0
  1  2  1  0
  2  3  1  0
  3  4  2  0
  3  5  1  0
  5  6  1  0
  6  7  1  0
  7  8  2  0
  7  9  1  0
  9 10  2  0
 10 11  1  0
 11 12  2  0
 12 13  1  0
 13 14  1  0
 13 15  2  0
 15 16  1  0
 16 17  2  0
 17 18  1  0
  2 19  1  0
 19 20  2  0
 20 21  1  0
 21 22  2  0
 22 23  1  0
 22 24  1  0
 24 25  1  0
 25 26  2  0
 18  9  1  0
 25 19  1  0
 17 11  1  0
M  CHG  3   6  -1  23  -1  24  -1
M  END
>  <UniqueID>  (348) 
29

>  <SMILES>  (348) 
CN(C(=O)C[N-]C(=O)c1cc2cc(Cl)ccc2[nH]1)c1ccc([O-])[n-]c1=O

>  <Energy>  (348) 
82.96726237735338

>  <Genealogy>  (348) 
CN(C(=O)C[N-]C(=O)c1cc2cc(Cl)ccc2[nH]1)c1ccc([O-])[n-]c1=O (protonated)
CN(C(=O)C[N-]C(=O)c1cc2cc(Cl)ccc2[nH]1)c1ccc([O-])[n-]c1=O (3D coordinates assigned)
CN(C(=O)C[N-]C(=O)c1cc2cc(Cl)ccc2[nH]1)c1ccc([O-])[n-]c1=O (optimized conformer: 82.96726237735338 kcal/mol)

>  <smiles>  (348) 
CN(C(=O)CNC(=O)c1cc2cc(Cl)ccc2[nH]1)c1ccc(O)[nH]c1=O

>  <score_type>  (348) 
oracle

>  <origin>  (348) 
adg

>  <m_score__min__energy>  (348) 
-15.210000000000001

>  <m_primary>  (348) 
energy

$$$$
36:0
     RDKit          3D

 28 30  0  0  0  0  0  0  0  0999 V2000
   58.4550   25.0040   45.8630 C   0  0  0  0  0  0  0  0  0  0  0  0
   57.7580   25.9330   46.5360 C   0  0  0  0  0  0  0  0  0  0  0  0
   57.4980   27.2870   45.9890 C   0  0  0  0  0  0  0  0  0  0  0  0
   56.1940   27.6380   45.6180 C   0  0  0  0  0  0  0  0  0  0  0  0
   55.1520   26.7240   45.7330 O   0  0  0  0  0  0  0  0  0  0  0  0
   55.9380   28.8750   45.1330 N   0  0  0  0  0  0  0  0  0  0  0  0
   56.9170   29.8020   44.9930 C   0  0  0  0  0  0  0  0  0  0  0  0
   56.6150   30.9400   44.5410 O   0  0  0  0  0  0  0  0  0  0  0  0
   58.2090   29.5050   45.3480 N   0  0  0  0  0  0  0  0  0  0  0  0
   59.2700   30.5240   45.2280 C   0  0  0  0  0  0  0  0  0  0  0  0
   59.0890   31.5960   46.2690 C   0  0  0  0  0  0  0  0  0  0  0  0
   58.2100   32.4810   46.0930 O   0  0  0  0  0  0  0  0  0  0  0  0
   59.8500   31.6120   47.4840 N   0  0  0  0  0  0  0  0  0  0  0  0
   61.0300   32.3860   47.7380 C   0  0  0  0  0  0  0  0  0  0  0  0
   62.2420   31.9800   47.1660 C   0  0  0  0  0  0  0  0  0  0  0  0
   63.4170   32.6970   47.4180 C   0  0  0  0  0  0  0  0  0  0  0  0
   63.3890   33.8120   48.2610 C   0  0  0  0  0  0  0  0  0  0  0  0
   62.1900   34.2060   48.8580 C   0  0  0  0  0  0  0  0  0  0  0  0
   61.0140   33.4920   48.6070 C   0  0  0  0  0  0  0  0  0  0  0  0
   58.5020   28.2700   45.8720 C   0  0  0  0  0  0  0  0  0  0  0  0
   59.6710   28.0200   46.2800 O   0  0  0  0  0  0  0  0  0  0  0  0
   57.8360   23.9520   45.0210 C   0  0  0  0  0  0  0  0  0  0  0  0
   56.6420   24.2520   44.3410 C   0  0  0  0  0  0  0  0  0  0  0  0
   56.0160   23.2910   43.5420 C   0  0  0  0  0  0  0  0  0  0  0  0
   56.5680   22.0140   43.4210 C   0  0  0  0  0  0  0  0  0  0  0  0
   55.9440   21.0600   42.6270 O   0  0  0  0  0  0  0  0  0  0  0  0
   57.7450   21.6950   44.1030 C   0  0  0  0  0  0  0  0  0  0  0  0
   58.3760   22.6540   44.9020 C   0  0  0  0  0  0  0  0  0  0  0  0
  1  2  2  0
  2  3  1  0
  3  4  2  0
  4  5  1  0
  4  6  1  0
  6  7  1  0
  7  8  2  0
  7  9  1  0
  9 10  1  0
 10 11  1  0
 11 12  2  0
 11 13  1  0
 13 14  1  0
 14 15  2  0
 15 16  1  0
 16 17  2  0
 17 18  1  0
 18 19  2  0
  9 20  1  0
 20 21  2  0
  1 22  1  0
 22 23  2  0
 23 24  1  0
 24 25  2  0
 25 26  1  0
 25 27  1  0
 27 28  2  0
 20  3  1  0
 28 22  1  0
 19 14  1  0
M  CHG  4   5  -1   6  -1  13  -1  26  -1
M  END
>  <UniqueID>  (349) 
36

>  <SMILES>  (349) 
O=C(Cn1c(=O)[n-]c([O-])c(/C=C/c2ccc([O-])cc2)c1=O)[N-]c1ccccc1

>  <Energy>  (349) 
60.94295619476363

>  <Genealogy>  (349) 
O=C(Cn1c(=O)[n-]c([O-])c(C=Cc2ccc([O-])cc2)c1=O)[N-]c1ccccc1 (protonated)
O=C(Cn1c(=O)[n-]c([O-])c(/C=C/c2ccc([O-])cc2)c1=O)[N-]c1ccccc1 (cis-trans isomerization)
O=C(Cn1c(=O)[n-]c([O-])c(/C=C/c2ccc([O-])cc2)c1=O)[N-]c1ccccc1 (3D coordinates assigned)
O=C(Cn1c(=O)[n-]c([O-])c(/C=C/c2ccc([O-])cc2)c1=O)[N-]c1ccccc1 (optimized conformer: 60.94295619476363 kcal/mol)

>  <smiles>  (349) 
O=C(Cn1c(=O)[nH]c(O)c(C=Cc2ccc(O)cc2)c1=O)Nc1ccccc1

>  <score_type>  (349) 
oracle

>  <origin>  (349) 
adg

>  <m_score__min__energy>  (349) 
-16.050000000000001

>  <m_primary>  (349) 
energy

$$$$
42:0
     RDKit          3D

 28 30  0  0  0  0  0  0  0  0999 V2000
   57.2980   31.3340   42.9480 O   0  0  0  0  0  0  0  0  0  0  0  0
   57.0460   31.4870   44.1750 C   0  0  0  0  0  0  0  0  0  0  0  0
   56.0740   30.6480   44.8110 N   0  0  0  0  0  0  0  0  0  0  0  0
   55.9310   29.2230   44.5360 C   0  0  0  0  0  0  0  0  0  0  0  0
   56.8510   28.4250   45.4240 C   0  0  0  0  0  0  0  0  0  0  0  0
   58.1360   28.9080   45.7220 C   0  0  0  0  0  0  0  0  0  0  0  0
   58.9920   28.1840   46.5660 C   0  0  0  0  0  0  0  0  0  0  0  0
   60.3470   28.7290   46.9140 C   0  0  0  0  0  0  0  0  0  0  0  0
   60.3260   29.2250   48.2850 N   0  0  0  0  0  0  0  0  0  0  0  0
   59.9110   30.5390   48.6800 C   0  0  0  0  0  0  0  0  0  0  0  0
   60.4480   31.5340   48.1280 O   0  0  0  0  0  0  0  0  0  0  0  0
   58.9160   30.7700   49.7440 C   0  0  0  0  0  0  0  0  0  0  0  0
   58.6410   32.0540   50.2270 C   0  0  0  0  0  0  0  0  0  0  0  0
   57.7090   32.2130   51.2510 C   0  0  0  0  0  0  0  0  0  0  0  0
   57.0840   31.0840   51.7800 C   0  0  0  0  0  0  0  0  0  0  0  0
   56.2370   31.1980   52.7040 O   0  0  0  0  0  0  0  0  0  0  0  0
   57.4010   29.8540   51.2960 N   0  0  0  0  0  0  0  0  0  0  0  0
   58.2920   29.7040   50.3140 N   0  0  0  0  0  0  0  0  0  0  0  0
   58.5460   26.9820   47.1340 C   0  0  0  0  0  0  0  0  0  0  0  0
   57.2690   26.4970   46.8440 C   0  0  0  0  0  0  0  0  0  0  0  0
   56.4200   27.2120   45.9930 C   0  0  0  0  0  0  0  0  0  0  0  0
   55.1490   26.7150   45.7240 O   0  0  0  0  0  0  0  0  0  0  0  0
   57.7530   32.5320   44.9520 C   0  0  0  0  0  0  0  0  0  0  0  0
   58.4860   33.5380   44.2960 C   0  0  0  0  0  0  0  0  0  0  0  0
   59.1550   34.5210   45.0320 C   0  0  0  0  0  0  0  0  0  0  0  0
   59.0970   34.5140   46.4270 C   0  0  0  0  0  0  0  0  0  0  0  0
   58.3720   33.5210   47.0910 C   0  0  0  0  0  0  0  0  0  0  0  0
   57.7040   32.5340   46.3600 C   0  0  0  0  0  0  0  0  0  0  0  0
  1  2  2  0
  2  3  1  0
  3  4  1  0
  4  5  1  0
  5  6  2  0
  6  7  1  0
  7  8  1  0
  8  9  1  0
  9 10  1  0
 10 11  2  0
 10 12  1  0
 12 13  1  0
 13 14  2  0
 14 15  1  0
 15 16  2  0
 15 17  1  0
 17 18  1  0
  7 19  2  0
 19 20  1  0
 20 21  2  0
 21 22  1  0
  2 23  1  0
 23 24  2  0
 24 25  1  0
 25 26  2  0
 26 27  1  0
 27 28  2  0
 21  5  1  0
 28 23  1  0
 18 12  2  0
M  CHG  4   3  -1   9  -1  17  -1  22  -1
M  END
>  <UniqueID>  (350) 
42

>  <SMILES>  (350) 
O=C([N-]Cc1cc(C[N-]C(=O)c2ccc(=O)[n-]n2)ccc1[O-])c1ccccc1

>  <Energy>  (350) 
48.19204277560066

>  <Genealogy>  (350) 
O=C([N-]Cc1cc(C[N-]C(=O)c2ccc(=O)[n-]n2)ccc1[O-])c1ccccc1 (protonated)
O=C([N-]Cc1cc(C[N-]C(=O)c2ccc(=O)[n-]n2)ccc1[O-])c1ccccc1 (3D coordinates assigned)
O=C([N-]Cc1cc(C[N-]C(=O)c2ccc(=O)[n-]n2)ccc1[O-])c1ccccc1 (optimized conformer: 48.19204277560066 kcal/mol)

>  <smiles>  (350) 
O=C(NCc1cc(CNC(=O)c2ccc(=O)[nH]n2)ccc1O)c1ccccc1

>  <score_type>  (350) 
oracle

>  <origin>  (350) 
adg

>  <m_score__min__energy>  (350) 
-15.52

>  <m_primary>  (350) 
energy

$$$$
87:0
     RDKit          3D

 23 24  0  0  0  0  0  0  0  0999 V2000
   60.4250   28.9090   45.9300 C   0  0  0  0  0  0  0  0  0  0  0  0
   59.2530   27.9660   45.9280 C   0  0  0  0  0  0  0  0  0  0  0  0
   59.1850   26.9340   46.8780 C   0  0  0  0  0  0  0  0  0  0  0  0
   58.0950   26.0590   46.9000 C   0  0  0  0  0  0  0  0  0  0  0  0
   58.0510   25.0530   47.8590 O   0  0  0  0  0  0  0  0  0  0  0  0
   57.0600   26.2000   45.9650 C   0  0  0  0  0  0  0  0  0  0  0  0
   55.6750   25.1050   45.9960 S   0  0  0  0  0  0  0  0  0  0  0  0
   54.2080   25.9560   45.6550 N   0  0  0  0  0  0  0  0  0  0  0  0
   55.5690   24.4790   47.3580 O   0  0  0  0  0  0  0  0  0  0  0  0
   55.8610   24.0300   44.9630 O   0  0  0  0  0  0  0  0  0  0  0  0
   57.1220   27.2310   45.0160 C   0  0  0  0  0  0  0  0  0  0  0  0
   58.2090   28.1240   44.9940 C   0  0  0  0  0  0  0  0  0  0  0  0
   58.2760   29.1990   44.0440 N   0  0  0  0  0  0  0  0  0  0  0  0
   57.1560   30.5180   43.9390 S   0  0  0  0  0  0  0  0  0  0  0  0
   56.8970   30.8340   42.4930 O   0  0  0  0  0  0  0  0  0  0  0  0
   55.8620   30.1150   44.5920 O   0  0  0  0  0  0  0  0  0  0  0  0
   57.8310   31.9440   44.7210 C   0  0  0  0  0  0  0  0  0  0  0  0
   58.0750   33.1020   43.9710 C   0  0  0  0  0  0  0  0  0  0  0  0
   58.6370   34.2280   44.5790 C   0  0  0  0  0  0  0  0  0  0  0  0
   58.9550   34.2040   45.9420 C   0  0  0  0  0  0  0  0  0  0  0  0
   59.6640   35.6160   46.7030 Cl  0  0  0  0  0  0  0  0  0  0  0  0
   58.7080   33.0510   46.6950 C   0  0  0  0  0  0  0  0  0  0  0  0
   58.1470   31.9240   46.0880 C   0  0  0  0  0  0  0  0  0  0  0  0
  1  2  1  0
  2  3  2  0
  3  4  1  0
  4  5  1  0
  4  6  2  0
  6  7  1  0
  7  8  1  0
  7  9  2  0
  7 10  2  0
  6 11  1  0
 11 12  2  0
 12 13  1  0
 13 14  1  0
 14 15  2  0
 14 16  2  0
 14 17  1  0
 17 18  2  0
 18 19  1  0
 19 20  2  0
 20 21  1  0
 20 22  1  0
 22 23  2  0
 12  2  1  0
 23 17  1  0
M  CHG  3   5  -1   8  -1  13  -1
M  END
>  <UniqueID>  (351) 
83

>  <SMILES>  (351) 
Cc1cc([O-])c(S([NH-])(=O)=O)cc1[N-]S(=O)(=O)c1ccc(Cl)cc1

>  <Energy>  (351) 
36.67945609670166

>  <Genealogy>  (351) 
Cc1cc([O-])c(S([NH-])(=O)=O)cc1[N-]S(=O)(=O)c1ccc(Cl)cc1 (protonated)
Cc1cc([O-])c(S([NH-])(=O)=O)cc1[N-]S(=O)(=O)c1ccc(Cl)cc1 (3D coordinates assigned)
Cc1cc([O-])c(S([NH-])(=O)=O)cc1[N-]S(=O)(=O)c1ccc(Cl)cc1 (optimized conformer: 36.67945609670166 kcal/mol)

>  <smiles>  (351) 
Cc1cc(O)c(S(N)(=O)=O)cc1NS(=O)(=O)c1ccc(Cl)cc1

>  <score_type>  (351) 
oracle

>  <origin>  (351) 
adg

>  <m_score__min__energy>  (351) 
-14.949999999999999

>  <m_primary>  (351) 
energy

$$$$
12:0
     RDKit          3D

 34 37  0  0  0  0  0  0  0  0999 V2000
   56.8320   29.4750   43.3170 O   0  0  0  0  0  0  0  0  0  0  0  0
   57.1240   29.2320   44.5190 C   0  0  0  0  0  0  0  0  0  0  0  0
   56.3080   28.3070   45.2500 N   0  0  0  0  0  0  0  0  0  0  0  0
   56.6410   27.1340   45.7130 C   0  0  0  0  0  0  0  0  0  0  0  0
   57.9660   26.8750   45.8910 N   0  0  0  0  0  0  0  0  0  0  0  0
   58.4250   25.6840   46.3550 C   0  0  0  0  0  0  0  0  0  0  0  0
   57.5270   24.6680   46.6740 C   0  0  0  0  0  0  0  0  0  0  0  0
   56.1600   24.8950   46.5240 C   0  0  0  0  0  0  0  0  0  0  0  0
   55.6990   26.1290   46.0570 C   0  0  0  0  0  0  0  0  0  0  0  0
   54.3260   26.3350   45.9780 O   0  0  0  0  0  0  0  0  0  0  0  0
   58.2470   29.9560   45.1690 C   0  0  0  0  0  0  0  0  0  0  0  0
   59.4620   29.3050   45.4370 C   0  0  0  0  0  0  0  0  0  0  0  0
   60.5170   29.9980   46.0320 C   0  0  0  0  0  0  0  0  0  0  0  0
   60.3670   31.3390   46.3820 C   0  0  0  0  0  0  0  0  0  0  0  0
   59.1600   32.0020   46.1340 C   0  0  0  0  0  0  0  0  0  0  0  0
   58.9680   33.7010   46.5750 S   0  0  0  0  0  0  0  0  0  0  0  0
   60.1190   34.4910   46.0140 O   0  0  0  0  0  0  0  0  0  0  0  0
   57.7020   34.2300   45.9630 O   0  0  0  0  0  0  0  0  0  0  0  0
   58.9050   33.9180   48.3090 N   0  0  0  0  0  0  0  0  0  0  0  0
   58.3890   32.7120   49.0020 C   0  0  0  0  0  0  0  0  0  0  0  0
   59.4950   31.8080   49.5780 C   0  0  0  0  0  0  0  0  0  0  0  0
   60.4870   32.5860   50.3260 N   0  0  0  0  0  0  0  0  0  0  0  0
   61.4910   31.8930   51.0840 C   0  0  0  0  0  0  0  0  0  0  0  0
   61.1500   30.9570   51.8620 O   0  0  0  0  0  0  0  0  0  0  0  0
   62.9510   32.1940   50.9030 C   0  0  0  0  0  0  0  0  0  0  0  0
   63.2270   32.5350   49.4650 C   0  0  0  0  0  0  0  0  0  0  0  0
   63.1510   31.5470   48.4710 C   0  0  0  0  0  0  0  0  0  0  0  0
   63.3780   31.8790   47.1320 C   0  0  0  0  0  0  0  0  0  0  0  0
   63.6700   33.1970   46.7780 C   0  0  0  0  0  0  0  0  0  0  0  0
   63.7320   34.1880   47.7610 C   0  0  0  0  0  0  0  0  0  0  0  0
   63.5070   33.8610   49.1000 C   0  0  0  0  0  0  0  0  0  0  0  0
   60.4420   34.0470   50.2720 C   0  0  0  0  0  0  0  0  0  0  0  0
   60.1790   34.4680   48.8280 C   0  0  0  0  0  0  0  0  0  0  0  0
   58.1080   31.3110   45.5210 C   0  0  0  0  0  0  0  0  0  0  0  0
  1  2  2  0
  2  3  1  0
  3  4  2  3
  4  5  1  0
  5  6  1  0
  6  7  2  0
  7  8  1  0
  8  9  2  0
  9 10  1  0
  2 11  1  0
 11 12  2  0
 12 13  1  0
 13 14  2  0
 14 15  1  0
 15 16  1  0
 16 17  2  0
 16 18  2  0
 16 19  1  0
 19 20  1  0
 20 21  1  0
 21 22  1  0
 22 23  1  0
 23 24  2  0
 23 25  1  0
 25 26  1  0
 26 27  2  0
 27 28  1  0
 28 29  2  0
 29 30  1  0
 30 31  2  0
 22 32  1  0
 32 33  1  0
 15 34  2  0
  9  4  1  0
 34 11  1  0
 33 19  1  0
 31 26  1  0
M  CHG  2   5  -1  10  -1
M  END
>  <UniqueID>  (352) 
13

>  <SMILES>  (352) 
O=C(N=c1[n-]cccc1[O-])c1cccc(S(=O)(=O)N2CCN(C(=O)Cc3ccccc3)CC2)c1

>  <Energy>  (352) 
79.1689334595643

>  <Genealogy>  (352) 
O=C(N=c1[n-]cccc1[O-])c1cccc(S(=O)(=O)N2CCN(C(=O)Cc3ccccc3)CC2)c1 (protonated)
O=C(N=c1[n-]cccc1[O-])c1cccc(S(=O)(=O)N2CCN(C(=O)Cc3ccccc3)CC2)c1 (3D coordinates assigned)
O=C(N=c1[n-]cccc1[O-])c1cccc(S(=O)(=O)N2CCN(C(=O)Cc3ccccc3)CC2)c1 (nonaromatic ring conformer: 79.1689334595643 kcal/mol)

>  <smiles>  (352) 
O=C(N=c1[nH]cccc1O)c1cccc(S(=O)(=O)N2CCN(C(=O)Cc3ccccc3)CC2)c1

>  <score_type>  (352) 
oracle

>  <origin>  (352) 
adg

>  <m_score__min__energy>  (352) 
-16.170000000000002

>  <m_primary>  (352) 
energy

$$$$
31:0
     RDKit          3D

 27 29  0  0  0  0  0  0  0  0999 V2000
   59.1450   34.2140   48.5640 O   0  0  0  0  0  0  0  0  0  0  0  0
   58.9140   34.0590   47.1990 C   0  0  0  0  0  0  0  0  0  0  0  0
   59.4650   34.9760   46.2990 C   0  0  0  0  0  0  0  0  0  0  0  0
   59.2310   34.8390   44.9280 C   0  0  0  0  0  0  0  0  0  0  0  0
   58.4530   33.7800   44.4510 C   0  0  0  0  0  0  0  0  0  0  0  0
   57.9180   32.8340   45.3450 C   0  0  0  0  0  0  0  0  0  0  0  0
   57.0720   31.7130   44.8780 C   0  0  0  0  0  0  0  0  0  0  0  0
   57.5290   30.5510   44.3830 C   0  0  0  0  0  0  0  0  0  0  0  0
   57.5370   29.2630   45.1150 C   0  0  0  0  0  0  0  0  0  0  0  0
   56.3620   28.5250   45.3080 C   0  0  0  0  0  0  0  0  0  0  0  0
   55.1450   28.9690   44.8030 O   0  0  0  0  0  0  0  0  0  0  0  0
   56.4090   27.3500   45.9790 N   0  0  0  0  0  0  0  0  0  0  0  0
   57.5750   26.8490   46.4590 C   0  0  0  0  0  0  0  0  0  0  0  0
   57.5550   25.7430   47.0650 O   0  0  0  0  0  0  0  0  0  0  0  0
   58.7530   27.5260   46.2650 N   0  0  0  0  0  0  0  0  0  0  0  0
   59.9950   26.9790   46.7670 C   0  0  0  0  0  0  0  0  0  0  0  0
   60.4790   25.9380   46.2440 O   0  0  0  0  0  0  0  0  0  0  0  0
   60.6520   27.5930   47.8850 N   0  0  0  0  0  0  0  0  0  0  0  0
   60.3680   28.8860   48.4400 C   0  0  0  0  0  0  0  0  0  0  0  0
   59.2990   29.0120   49.3370 C   0  0  0  0  0  0  0  0  0  0  0  0
   58.9770   30.2580   49.8850 C   0  0  0  0  0  0  0  0  0  0  0  0
   59.7130   31.3900   49.5280 C   0  0  0  0  0  0  0  0  0  0  0  0
   60.7660   31.2790   48.6150 C   0  0  0  0  0  0  0  0  0  0  0  0
   61.0910   30.0350   48.0660 C   0  0  0  0  0  0  0  0  0  0  0  0
   58.7440   28.7260   45.5950 C   0  0  0  0  0  0  0  0  0  0  0  0
   59.8130   29.3760   45.4290 O   0  0  0  0  0  0  0  0  0  0  0  0
   58.1340   32.9960   46.7230 C   0  0  0  0  0  0  0  0  0  0  0  0
  1  2  1  0
  2  3  2  0
  3  4  1  0
  4  5  2  0
  5  6  1  0
  6  7  1  0
  7  8  2  0
  8  9  1  0
  9 10  2  0
 10 11  1  0
 10 12  1  0
 12 13  1  0
 13 14  2  0
 13 15  1  0
 15 16  1  0
 16 17  2  0
 16 18  1  0
 18 19  1  0
 19 20  2  0
 20 21  1  0
 21 22  2  0
 22 23  1  0
 23 24  2  0
 15 25  1  0
 25 26  2  0
  6 27  2  0
 27  2  1  0
 25  9  1  0
 24 19  1  0
M  CHG  3  11  -1  12  -1  18  -1
M  END
>  <UniqueID>  (353) 
32

>  <SMILES>  (353) 
O=C([N-]c1ccccc1)n1c(=O)[n-]c([O-])c(/C=C\c2cccc(O)c2)c1=O

>  <Energy>  (353) 
65.92569804427826

>  <Genealogy>  (353) 
O=C([N-]c1ccccc1)n1c(=O)[n-]c([O-])c(C=Cc2cccc(O)c2)c1=O (protonated)
O=C([N-]c1ccccc1)n1c(=O)[n-]c([O-])c(/C=C\c2cccc(O)c2)c1=O (cis-trans isomerization)
O=C([N-]c1ccccc1)n1c(=O)[n-]c([O-])c(/C=C\c2cccc(O)c2)c1=O (3D coordinates assigned)
O=C([N-]c1ccccc1)n1c(=O)[n-]c([O-])c(/C=C\c2cccc(O)c2)c1=O (optimized conformer: 65.92569804427826 kcal/mol)

>  <smiles>  (353) 
O=C(Nc1ccccc1)n1c(=O)[nH]c(O)c(C=Cc2cccc(O)c2)c1=O

>  <score_type>  (353) 
oracle

>  <origin>  (353) 
adg

>  <m_score__min__energy>  (353) 
-14.289999999999999

>  <m_primary>  (353) 
energy

$$$$
90:0
     RDKit          3D

 21 22  0  0  0  0  0  0  0  0999 V2000
   60.7470   32.9950   53.4170 N   0  0  0  0  0  0  0  0  0  0  0  0
   59.3300   33.6930   52.7170 S   0  0  0  0  0  0  0  0  0  0  0  0
   59.6540   34.2040   51.3410 O   0  0  0  0  0  0  0  0  0  0  0  0
   58.8680   34.8470   53.5630 O   0  0  0  0  0  0  0  0  0  0  0  0
   58.0610   32.4780   52.6200 C   0  0  0  0  0  0  0  0  0  0  0  0
   57.5260   32.1130   51.3780 C   0  0  0  0  0  0  0  0  0  0  0  0
   56.5270   31.1380   51.3000 C   0  0  0  0  0  0  0  0  0  0  0  0
   56.0450   30.5210   52.4690 C   0  0  0  0  0  0  0  0  0  0  0  0
   55.0360   29.5010   52.4340 N   0  0  0  0  0  0  0  0  0  0  0  0
   53.6180   29.7000   52.4740 C   0  0  0  0  0  0  0  0  0  0  0  0
   52.8290   28.7190   52.5410 O   0  0  0  0  0  0  0  0  0  0  0  0
   53.0670   31.0810   52.3260 C   0  0  0  0  0  0  0  0  0  0  0  0
   52.2530   31.1760   51.0740 C   0  0  0  0  0  0  0  0  0  0  0  0
   52.2510   30.0400   49.8290 S   0  0  0  0  0  0  0  0  0  0  0  0
   51.0620   30.8630   48.9710 C   0  0  0  0  0  0  0  0  0  0  0  0
   50.6000   30.4890   47.8630 O   0  0  0  0  0  0  0  0  0  0  0  0
   50.6430   31.9800   49.6030 N   0  0  0  0  0  0  0  0  0  0  0  0
   51.3020   32.1500   50.7790 C   0  0  0  0  0  0  0  0  0  0  0  0
   51.0310   33.2240   51.6180 O   0  0  0  0  0  0  0  0  0  0  0  0
   56.6070   30.8680   53.7040 C   0  0  0  0  0  0  0  0  0  0  0  0
   57.6040   31.8430   53.7830 C   0  0  0  0  0  0  0  0  0  0  0  0
  1  2  1  0
  2  3  2  0
  2  4  2  0
  2  5  1  0
  5  6  2  0
  6  7  1  0
  7  8  2  0
  8  9  1  0
  9 10  1  0
 10 11  2  0
 10 12  1  0
 12 13  1  0
 13 14  1  0
 14 15  1  0
 15 16  2  0
 15 17  1  0
 17 18  1  0
 18 19  1  0
  8 20  1  0
 20 21  2  0
 21  5  1  0
 18 13  2  0
M  CHG  4   1  -1   9  -1  17  -1  19  -1
M  END
>  <UniqueID>  (354) 
88

>  <SMILES>  (354) 
[NH-]S(=O)(=O)c1ccc([N-]C(=O)Cc2sc(=O)[n-]c2[O-])cc1

>  <Energy>  (354) 
60.187966286020725

>  <Genealogy>  (354) 
[NH-]S(=O)(=O)c1ccc([N-]C(=O)Cc2sc(=O)[n-]c2[O-])cc1 (protonated)
[NH-]S(=O)(=O)c1ccc([N-]C(=O)Cc2sc(=O)[n-]c2[O-])cc1 (3D coordinates assigned)
[NH-]S(=O)(=O)c1ccc([N-]C(=O)Cc2sc(=O)[n-]c2[O-])cc1 (optimized conformer: 60.187966286020725 kcal/mol)

>  <smiles>  (354) 
NS(=O)(=O)c1ccc(NC(=O)Cc2sc(=O)[nH]c2O)cc1

>  <score_type>  (354) 
oracle

>  <origin>  (354) 
adg

>  <m_score__min__energy>  (354) 
-15

>  <m_primary>  (354) 
energy

$$$$
92:0
     RDKit          3D

 25 27  0  0  0  0  0  0  0  0999 V2000
   55.9040   21.9460   42.2570 O   0  0  0  0  0  0  0  0  0  0  0  0
   56.2620   22.7700   43.3220 C   0  0  0  0  0  0  0  0  0  0  0  0
   55.9980   22.3580   44.6320 C   0  0  0  0  0  0  0  0  0  0  0  0
   56.3440   23.1770   45.7100 C   0  0  0  0  0  0  0  0  0  0  0  0
   56.9770   24.4100   45.4920 C   0  0  0  0  0  0  0  0  0  0  0  0
   57.3060   25.2650   46.6570 C   0  0  0  0  0  0  0  0  0  0  0  0
   57.9160   26.4610   46.5950 C   0  0  0  0  0  0  0  0  0  0  0  0
   57.3850   27.6420   45.8780 C   0  0  0  0  0  0  0  0  0  0  0  0
   56.0200   27.7280   45.5970 C   0  0  0  0  0  0  0  0  0  0  0  0
   55.1480   26.7230   45.9990 O   0  0  0  0  0  0  0  0  0  0  0  0
   55.5380   28.7900   44.9100 N   0  0  0  0  0  0  0  0  0  0  0  0
   56.3500   29.7910   44.4850 C   0  0  0  0  0  0  0  0  0  0  0  0
   55.8460   30.7430   43.8290 O   0  0  0  0  0  0  0  0  0  0  0  0
   57.6930   29.7630   44.7700 N   0  0  0  0  0  0  0  0  0  0  0  0
   58.5920   30.8250   44.2730 C   0  0  0  0  0  0  0  0  0  0  0  0
   58.5190   32.0320   45.1720 C   0  0  0  0  0  0  0  0  0  0  0  0
   58.4710   31.8730   46.5670 C   0  0  0  0  0  0  0  0  0  0  0  0
   58.3750   32.9910   47.4010 C   0  0  0  0  0  0  0  0  0  0  0  0
   58.3260   34.2740   46.8510 C   0  0  0  0  0  0  0  0  0  0  0  0
   58.3640   34.4410   45.4640 C   0  0  0  0  0  0  0  0  0  0  0  0
   58.4560   33.3260   44.6250 C   0  0  0  0  0  0  0  0  0  0  0  0
   58.2110   28.7100   45.4830 C   0  0  0  0  0  0  0  0  0  0  0  0
   59.4350   28.6990   45.7960 O   0  0  0  0  0  0  0  0  0  0  0  0
   57.2240   24.8290   44.1700 C   0  0  0  0  0  0  0  0  0  0  0  0
   56.8790   24.0060   43.0940 C   0  0  0  0  0  0  0  0  0  0  0  0
  1  2  1  0
  2  3  2  0
  3  4  1  0
  4  5  2  0
  5  6  1  0
  6  7  2  0
  7  8  1  0
  8  9  2  0
  9 10  1  0
  9 11  1  0
 11 12  1  0
 12 13  2  0
 12 14  1  0
 14 15  1  0
 15 16  1  0
 16 17  2  0
 17 18  1  0
 18 19  2  0
 19 20  1  0
 20 21  2  0
 14 22  1  0
 22 23  2  0
  5 24  1  0
 24 25  2  0
 25  2  1  0
 22  8  1  0
 21 16  1  0
M  CHG  2  10  -1  11  -1
M  END
>  <UniqueID>  (355) 
89

>  <SMILES>  (355) 
O=c1[n-]c([O-])c(/C=C\c2ccc(O)cc2)c(=O)n1Cc1ccccc1

>  <Energy>  (355) 
53.52142113732834

>  <Genealogy>  (355) 
O=c1[n-]c([O-])c(C=Cc2ccc(O)cc2)c(=O)n1Cc1ccccc1 (protonated)
O=c1[n-]c([O-])c(/C=C\c2ccc(O)cc2)c(=O)n1Cc1ccccc1 (cis-trans isomerization)
O=c1[n-]c([O-])c(/C=C\c2ccc(O)cc2)c(=O)n1Cc1ccccc1 (3D coordinates assigned)
O=c1[n-]c([O-])c(/C=C\c2ccc(O)cc2)c(=O)n1Cc1ccccc1 (optimized conformer: 53.52142113732834 kcal/mol)

>  <smiles>  (355) 
O=c1[nH]c(O)c(C=Cc2ccc(O)cc2)c(=O)n1Cc1ccccc1

>  <score_type>  (355) 
oracle

>  <origin>  (355) 
adg

>  <m_score__min__energy>  (355) 
-14.23

>  <m_primary>  (355) 
energy

$$$$
31:0
     RDKit          3D

 25 27  0  0  0  0  0  0  0  0999 V2000
   56.5120   29.5950   43.2480 O   0  0  0  0  0  0  0  0  0  0  0  0
   56.5900   29.6040   44.5060 C   0  0  0  0  0  0  0  0  0  0  0  0
   55.9570   28.5500   45.2450 N   0  0  0  0  0  0  0  0  0  0  0  0
   56.5810   27.3240   45.6600 C   0  0  0  0  0  0  0  0  0  0  0  0
   57.9820   27.2050   45.7470 C   0  0  0  0  0  0  0  0  0  0  0  0
   58.5630   26.0000   46.1490 C   0  0  0  0  0  0  0  0  0  0  0  0
   57.7550   24.9130   46.4910 C   0  0  0  0  0  0  0  0  0  0  0  0
   56.3630   25.0330   46.4380 C   0  0  0  0  0  0  0  0  0  0  0  0
   55.7760   26.2350   46.0290 C   0  0  0  0  0  0  0  0  0  0  0  0
   54.3900   26.3410   45.9790 O   0  0  0  0  0  0  0  0  0  0  0  0
   57.3560   30.6750   45.1800 C   0  0  0  0  0  0  0  0  0  0  0  0
   57.2070   32.0150   44.7880 C   0  0  0  0  0  0  0  0  0  0  0  0
   57.9830   33.0130   45.3810 C   0  0  0  0  0  0  0  0  0  0  0  0
   58.9270   32.6910   46.3610 C   0  0  0  0  0  0  0  0  0  0  0  0
   59.7560   33.7410   46.8760 N   0  0  0  0  0  0  0  0  0  0  0  0
   60.9830   33.5920   48.0990 S   0  0  0  0  0  0  0  0  0  0  0  0
   61.1970   34.9500   48.7060 O   0  0  0  0  0  0  0  0  0  0  0  0
   60.5380   32.6660   49.1960 O   0  0  0  0  0  0  0  0  0  0  0  0
   62.5030   33.0490   47.4180 N   0  0  0  0  0  0  0  0  0  0  0  0
   62.8150   31.6870   47.8610 C   0  0  0  0  0  0  0  0  0  0  0  0
   63.7830   31.7780   49.0270 C   0  0  0  0  0  0  0  0  0  0  0  0
   64.4160   33.1490   48.9180 C   0  0  0  0  0  0  0  0  0  0  0  0
   63.6270   33.8910   47.8440 C   0  0  0  0  0  0  0  0  0  0  0  0
   59.0340   31.3600   46.7980 C   0  0  0  0  0  0  0  0  0  0  0  0
   58.2520   30.3610   46.2130 C   0  0  0  0  0  0  0  0  0  0  0  0
  1  2  2  0
  2  3  1  0
  3  4  1  0
  4  5  2  0
  5  6  1  0
  6  7  2  0
  7  8  1  0
  8  9  2  0
  9 10  1  0
  2 11  1  0
 11 12  2  0
 12 13  1  0
 13 14  2  0
 14 15  1  0
 15 16  1  0
 16 17  2  0
 16 18  2  0
 16 19  1  0
 19 20  1  0
 20 21  1  0
 21 22  1  0
 22 23  1  0
 14 24  1  0
 24 25  2  0
  9  4  1  0
 25 11  1  0
 23 19  1  0
M  CHG  3   3  -1  10  -1  15  -1
M  END
>  <UniqueID>  (356) 
28

>  <SMILES>  (356) 
O=C([N-]c1ccccc1[O-])c1ccc([N-]S(=O)(=O)N2CCCC2)cc1

>  <Energy>  (356) 
52.8527217354565

>  <Genealogy>  (356) 
O=C([N-]c1ccccc1[O-])c1ccc([N-]S(=O)(=O)N2CCCC2)cc1 (protonated)
O=C([N-]c1ccccc1[O-])c1ccc([N-]S(=O)(=O)N2CCCC2)cc1 (3D coordinates assigned)
O=C([N-]c1ccccc1[O-])c1ccc([N-]S(=O)(=O)N2CCCC2)cc1 (nonaromatic ring conformer: 52.8527217354565 kcal/mol)

>  <smiles>  (356) 
O=C(Nc1ccccc1O)c1ccc(NS(=O)(=O)N2CCCC2)cc1

>  <score_type>  (356) 
oracle

>  <origin>  (356) 
adg

>  <m_score__min__energy>  (356) 
-15.470000000000001

>  <m_primary>  (356) 
energy

$$$$
42:0
     RDKit          3D

 28 30  0  0  0  0  0  0  0  0999 V2000
   54.7890   26.3230   45.9990 N   0  0  0  0  0  0  0  0  0  0  0  0
   56.4480   25.8430   46.0470 S   0  0  0  0  0  0  0  0  0  0  0  0
   56.6600   24.6800   45.1200 O   0  0  0  0  0  0  0  0  0  0  0  0
   56.8070   25.4180   47.4430 O   0  0  0  0  0  0  0  0  0  0  0  0
   57.4650   27.1930   45.5540 C   0  0  0  0  0  0  0  0  0  0  0  0
   58.8600   27.0750   45.5970 C   0  0  0  0  0  0  0  0  0  0  0  0
   59.6660   28.1520   45.2210 C   0  0  0  0  0  0  0  0  0  0  0  0
   59.0860   29.3510   44.7990 C   0  0  0  0  0  0  0  0  0  0  0  0
   57.6880   29.4810   44.7420 C   0  0  0  0  0  0  0  0  0  0  0  0
   57.0620   30.7520   44.3030 C   0  0  0  0  0  0  0  0  0  0  0  0
   56.6660   30.8670   43.1130 O   0  0  0  0  0  0  0  0  0  0  0  0
   56.8440   31.8440   45.2070 N   0  0  0  0  0  0  0  0  0  0  0  0
   57.8230   32.8100   45.6190 C   0  0  0  0  0  0  0  0  0  0  0  0
   58.0730   33.9730   44.8700 C   0  0  0  0  0  0  0  0  0  0  0  0
   59.0180   34.9020   45.3110 C   0  0  0  0  0  0  0  0  0  0  0  0
   59.7100   34.6860   46.5050 C   0  0  0  0  0  0  0  0  0  0  0  0
   59.4570   33.5400   47.2670 C   0  0  0  0  0  0  0  0  0  0  0  0
   60.3080   33.2950   48.7910 S   0  0  0  0  0  0  0  0  0  0  0  0
   60.7770   34.6180   49.3290 O   0  0  0  0  0  0  0  0  0  0  0  0
   59.3460   32.6970   49.7800 O   0  0  0  0  0  0  0  0  0  0  0  0
   61.6620   32.2030   48.5720 N   0  0  0  0  0  0  0  0  0  0  0  0
   62.1340   32.1820   47.1770 C   0  0  0  0  0  0  0  0  0  0  0  0
   62.9130   33.4660   46.8010 C   0  0  0  0  0  0  0  0  0  0  0  0
   63.3750   34.1980   47.9250 O   0  0  0  0  0  0  0  0  0  0  0  0
   63.8910   33.3210   48.9010 C   0  0  0  0  0  0  0  0  0  0  0  0
   62.7560   32.4890   49.5270 C   0  0  0  0  0  0  0  0  0  0  0  0
   58.5040   32.6090   46.8260 C   0  0  0  0  0  0  0  0  0  0  0  0
   56.8830   28.3990   45.1380 C   0  0  0  0  0  0  0  0  0  0  0  0
  1  2  1  0
  2  3  2  0
  2  4  2  0
  2  5  1  0
  5  6  2  0
  6  7  1  0
  7  8  2  0
  8  9  1  0
  9 10  1  0
 10 11  2  0
 10 12  1  0
 12 13  1  0
 13 14  2  0
 14 15  1  0
 15 16  2  0
 16 17  1  0
 17 18  1  0
 18 19  2  0
 18 20  2  0
 18 21  1  0
 21 22  1  0
 22 23  1  0
 23 24  1  0
 24 25  1  0
 25 26  1  0
 17 27  2  0
  9 28  2  0
 28  5  1  0
 27 13  1  0
 26 21  1  0
M  CHG  2   1  -1  12  -1
M  END
>  <UniqueID>  (357) 
38

>  <SMILES>  (357) 
[NH-]S(=O)(=O)c1cccc(C(=O)[N-]c2cccc(S(=O)(=O)N3CCOCC3)c2)c1

>  <Energy>  (357) 
63.762709655683395

>  <Genealogy>  (357) 
[NH-]S(=O)(=O)c1cccc(C(=O)[N-]c2cccc(S(=O)(=O)N3CCOCC3)c2)c1 (protonated)
[NH-]S(=O)(=O)c1cccc(C(=O)[N-]c2cccc(S(=O)(=O)N3CCOCC3)c2)c1 (3D coordinates assigned)
[NH-]S(=O)(=O)c1cccc(C(=O)[N-]c2cccc(S(=O)(=O)N3CCOCC3)c2)c1 (nonaromatic ring conformer: 63.762709655683395 kcal/mol)

>  <smiles>  (357) 
NS(=O)(=O)c1cccc(C(=O)Nc2cccc(S(=O)(=O)N3CCOCC3)c2)c1

>  <score_type>  (357) 
oracle

>  <origin>  (357) 
adg

>  <m_score__min__energy>  (357) 
-14.27

>  <m_primary>  (357) 
energy

$$$$
58:0
     RDKit          3D

 23 25  0  0  0  0  0  0  0  0999 V2000
   55.4150   31.5900   51.9800 C   0  0  0  0  0  0  0  0  0  0  0  0
   56.6630   31.0540   51.9180 N   0  0  0  0  0  0  0  0  0  0  0  0
   56.6800   29.7630   52.3130 C   0  0  0  0  0  0  0  0  0  0  0  0
   57.7780   29.0620   52.3180 N   0  0  0  0  0  0  0  0  0  0  0  0
   59.0400   29.3930   51.7180 C   0  0  0  0  0  0  0  0  0  0  0  0
   59.8070   28.4530   51.3840 O   0  0  0  0  0  0  0  0  0  0  0  0
   59.3700   30.7520   51.3870 N   0  0  0  0  0  0  0  0  0  0  0  0
   59.3970   31.3210   50.2130 C   0  0  0  0  0  0  0  0  0  0  0  0
   60.5230   31.1170   49.4040 C   0  0  0  0  0  0  0  0  0  0  0  0
   60.5870   31.7080   48.1430 C   0  0  0  0  0  0  0  0  0  0  0  0
   59.5260   32.4880   47.6890 C   0  0  0  0  0  0  0  0  0  0  0  0
   58.4070   32.6570   48.5050 C   0  0  0  0  0  0  0  0  0  0  0  0
   58.3550   32.0750   49.7350 N   0  0  0  0  0  0  0  0  0  0  0  0
   55.1390   29.2270   52.7530 S   0  0  0  0  0  0  0  0  0  0  0  0
   54.4250   30.7120   52.4130 C   0  0  0  0  0  0  0  0  0  0  0  0
   52.9890   31.0540   52.6440 C   0  0  0  0  0  0  0  0  0  0  0  0
   52.2440   31.0330   51.3460 C   0  0  0  0  0  0  0  0  0  0  0  0
   52.4250   29.8680   50.1430 S   0  0  0  0  0  0  0  0  0  0  0  0
   51.3620   30.6560   49.1060 C   0  0  0  0  0  0  0  0  0  0  0  0
   51.0520   30.2420   47.9600 O   0  0  0  0  0  0  0  0  0  0  0  0
   50.8710   31.7980   49.6330 N   0  0  0  0  0  0  0  0  0  0  0  0
   51.3680   32.0120   50.8790 C   0  0  0  0  0  0  0  0  0  0  0  0
   51.0220   33.1350   51.6200 O   0  0  0  0  0  0  0  0  0  0  0  0
  1  2  1  0
  2  3  1  0
  3  4  2  0
  4  5  1  0
  5  6  2  0
  5  7  1  0
  7  8  2  0
  8  9  1  0
  9 10  2  0
 10 11  1  0
 11 12  2  0
 12 13  1  0
  3 14  1  0
 14 15  1  0
 15 16  1  0
 16 17  1  0
 17 18  1  0
 18 19  1  0
 19 20  2  0
 19 21  1  0
 21 22  1  0
 22 23  1  0
 15  1  2  0
 22 17  2  0
 13  8  1  0
M  CHG  3   2  -1  21  -1  23  -1
M  END
>  <UniqueID>  (358) 
53

>  <SMILES>  (358) 
O=C(/N=c1/cccc[nH]1)/N=c1/[n-]cc(Cc2sc(=O)[n-]c2[O-])s1

>  <Energy>  (358) 
103.13354753847354

>  <Genealogy>  (358) 
O=C(N=c1cccc[nH]1)N=c1[n-]cc(Cc2sc(=O)[n-]c2[O-])s1 (protonated)
O=C(/N=c1/cccc[nH]1)/N=c1/[n-]cc(Cc2sc(=O)[n-]c2[O-])s1 (cis-trans isomerization)
O=C(/N=c1/cccc[nH]1)/N=c1/[n-]cc(Cc2sc(=O)[n-]c2[O-])s1 (3D coordinates assigned)
O=C(/N=c1/cccc[nH]1)/N=c1/[n-]cc(Cc2sc(=O)[n-]c2[O-])s1 (optimized conformer: 103.13354753847354 kcal/mol)

>  <smiles>  (358) 
O=C(N=c1cccc[nH]1)N=c1[nH]cc(Cc2sc(=O)[nH]c2O)s1

>  <score_type>  (358) 
oracle

>  <origin>  (358) 
adg

>  <m_score__min__energy>  (358) 
-15.52

>  <m_primary>  (358) 
energy

$$$$
11:0
     RDKit          3D

 28 30  0  0  0  0  0  0  0  0999 V2000
   57.1410   25.3170   47.0050 C   0  0  0  0  0  0  0  0  0  0  0  0
   57.9060   26.1080   46.2380 C   0  0  0  0  0  0  0  0  0  0  0  0
   57.4480   27.4320   45.7500 C   0  0  0  0  0  0  0  0  0  0  0  0
   56.0770   27.6830   45.6340 C   0  0  0  0  0  0  0  0  0  0  0  0
   55.1440   26.7150   45.9910 O   0  0  0  0  0  0  0  0  0  0  0  0
   55.6440   28.8820   45.1810 N   0  0  0  0  0  0  0  0  0  0  0  0
   56.5080   29.8630   44.8220 C   0  0  0  0  0  0  0  0  0  0  0  0
   56.0430   30.9610   44.4150 O   0  0  0  0  0  0  0  0  0  0  0  0
   57.8630   29.6570   44.8990 N   0  0  0  0  0  0  0  0  0  0  0  0
   58.8050   30.7090   44.4630 C   0  0  0  0  0  0  0  0  0  0  0  0
   58.8170   31.8490   45.4490 C   0  0  0  0  0  0  0  0  0  0  0  0
   58.4550   33.1440   45.0380 C   0  0  0  0  0  0  0  0  0  0  0  0
   58.4930   34.2080   45.9450 C   0  0  0  0  0  0  0  0  0  0  0  0
   58.8960   33.9900   47.2650 C   0  0  0  0  0  0  0  0  0  0  0  0
   58.9330   35.0230   48.1420 F   0  0  0  0  0  0  0  0  0  0  0  0
   59.2600   32.7060   47.6800 C   0  0  0  0  0  0  0  0  0  0  0  0
   59.2230   31.6390   46.7780 C   0  0  0  0  0  0  0  0  0  0  0  0
   58.3410   28.4460   45.3420 C   0  0  0  0  0  0  0  0  0  0  0  0
   59.5840   28.2270   45.3640 O   0  0  0  0  0  0  0  0  0  0  0  0
   56.4810   24.0810   46.5180 C   0  0  0  0  0  0  0  0  0  0  0  0
   55.7300   23.3210   47.4270 C   0  0  0  0  0  0  0  0  0  0  0  0
   55.0860   22.1530   47.0140 C   0  0  0  0  0  0  0  0  0  0  0  0
   55.1720   21.7350   45.6850 C   0  0  0  0  0  0  0  0  0  0  0  0
   54.5260   20.5690   45.2900 O   0  0  0  0  0  0  0  0  0  0  0  0
   55.9000   22.4860   44.7520 C   0  0  0  0  0  0  0  0  0  0  0  0
   55.9500   22.0330   43.4240 O   0  0  0  0  0  0  0  0  0  0  0  0
   56.9220   21.1250   42.9170 C   0  0  0  0  0  0  0  0  0  0  0  0
   56.5500   23.6640   45.1720 C   0  0  0  0  0  0  0  0  0  0  0  0
  1  2  2  0
  2  3  1  0
  3  4  2  0
  4  5  1  0
  4  6  1  0
  6  7  1  0
  7  8  2  0
  7  9  1  0
  9 10  1  0
 10 11  1  0
 11 12  2  0
 12 13  1  0
 13 14  2  0
 14 15  1  0
 14 16  1  0
 16 17  2  0
  9 18  1  0
 18 19  2  0
  1 20  1  0
 20 21  2  0
 21 22  1  0
 22 23  2  0
 23 24  1  0
 23 25  1  0
 25 26  1  0
 26 27  1  0
 25 28  2  0
 18  3  1  0
 28 20  1  0
 17 11  1  0
M  CHG  3   5  -1   6  -1  24  -1
M  END
>  <UniqueID>  (359) 
11

>  <SMILES>  (359) 
COc1cc(/C=C/c2c([O-])[n-]c(=O)n(Cc3ccc(F)cc3)c2=O)ccc1[O-]

>  <Energy>  (359) 
56.79193916981027

>  <Genealogy>  (359) 
COc1cc(C=Cc2c([O-])[n-]c(=O)n(Cc3ccc(F)cc3)c2=O)ccc1[O-] (protonated)
COc1cc(/C=C/c2c([O-])[n-]c(=O)n(Cc3ccc(F)cc3)c2=O)ccc1[O-] (cis-trans isomerization)
COc1cc(/C=C/c2c([O-])[n-]c(=O)n(Cc3ccc(F)cc3)c2=O)ccc1[O-] (3D coordinates assigned)
COc1cc(/C=C/c2c([O-])[n-]c(=O)n(Cc3ccc(F)cc3)c2=O)ccc1[O-] (optimized conformer: 56.79193916981027 kcal/mol)

>  <smiles>  (359) 
COc1cc(C=Cc2c(O)[nH]c(=O)n(Cc3ccc(F)cc3)c2=O)ccc1O

>  <score_type>  (359) 
oracle

>  <origin>  (359) 
adg

>  <m_score__min__energy>  (359) 
-14.9

>  <m_primary>  (359) 
energy

$$$$
16:0
     RDKit          3D

 33 35  0  0  0  0  0  0  0  0999 V2000
   54.9050   23.7330   44.2540 C   0  0  0  0  0  0  0  0  0  0  0  0
   54.0690   24.5020   45.6270 S   0  0  0  0  0  0  0  0  0  0  0  0
   54.1040   23.6080   46.8350 O   0  0  0  0  0  0  0  0  0  0  0  0
   52.6350   24.7270   45.2380 O   0  0  0  0  0  0  0  0  0  0  0  0
   54.7910   26.0390   45.9850 N   0  0  0  0  0  0  0  0  0  0  0  0
   56.1950   26.3280   46.0880 C   0  0  0  0  0  0  0  0  0  0  0  0
   57.1330   25.4060   46.5970 C   0  0  0  0  0  0  0  0  0  0  0  0
   56.7570   24.1940   47.0710 F   0  0  0  0  0  0  0  0  0  0  0  0
   58.4860   25.7530   46.6750 C   0  0  0  0  0  0  0  0  0  0  0  0
   58.9250   27.0150   46.2510 C   0  0  0  0  0  0  0  0  0  0  0  0
   60.3780   27.3850   46.3700 C   0  0  0  0  0  0  0  0  0  0  0  0
   60.7790   27.3970   47.7710 N   0  0  0  0  0  0  0  0  0  0  0  0
   60.2330   28.2920   48.7420 C   0  0  0  0  0  0  0  0  0  0  0  0
   60.2520   27.9880   49.9650 O   0  0  0  0  0  0  0  0  0  0  0  0
   59.6100   29.5030   48.2980 N   0  0  0  0  0  0  0  0  0  0  0  0
   60.2700   30.6990   47.8570 C   0  0  0  0  0  0  0  0  0  0  0  0
   61.6710   30.8290   47.8640 C   0  0  0  0  0  0  0  0  0  0  0  0
   62.2670   32.0270   47.4550 C   0  0  0  0  0  0  0  0  0  0  0  0
   61.4770   33.0880   47.0070 C   0  0  0  0  0  0  0  0  0  0  0  0
   60.0840   32.9480   46.9420 C   0  0  0  0  0  0  0  0  0  0  0  0
   59.0880   34.2710   46.3390 S   0  0  0  0  0  0  0  0  0  0  0  0
   59.7860   34.9180   45.1770 O   0  0  0  0  0  0  0  0  0  0  0  0
   58.8740   35.2950   47.4170 O   0  0  0  0  0  0  0  0  0  0  0  0
   57.5450   33.6770   45.8140 N   0  0  0  0  0  0  0  0  0  0  0  0
   57.4100   32.7250   44.9450 C   0  0  0  0  0  0  0  0  0  0  0  0
   56.6880   31.6030   45.1610 N   0  0  0  0  0  0  0  0  0  0  0  0
   56.7360   30.7710   44.0870 C   0  0  0  0  0  0  0  0  0  0  0  0
   57.4970   31.2310   43.0170 C   0  0  0  0  0  0  0  0  0  0  0  0
   58.1310   32.7350   43.4300 S   0  0  0  0  0  0  0  0  0  0  0  0
   59.4860   31.7540   47.3700 C   0  0  0  0  0  0  0  0  0  0  0  0
   57.9900   27.9400   45.7690 C   0  0  0  0  0  0  0  0  0  0  0  0
   56.6350   27.6000   45.6940 C   0  0  0  0  0  0  0  0  0  0  0  0
   55.7470   28.5090   45.2180 F   0  0  0  0  0  0  0  0  0  0  0  0
  1  2  1  0
  2  3  2  0
  2  4  2  0
  2  5  1  0
  5  6  1  0
  6  7  2  0
  7  8  1  0
  7  9  1  0
  9 10  2  0
 10 11  1  0
 11 12  1  0
 12 13  1  0
 13 14  2  0
 13 15  1  0
 15 16  1  0
 16 17  2  0
 17 18  1  0
 18 19  2  0
 19 20  1  0
 20 21  1  0
 21 22  2  0
 21 23  2  0
 21 24  1  0
 24 25  2  3
 25 26  1  0
 26 27  1  0
 27 28  2  0
 28 29  1  0
 20 30  2  0
 10 31  1  0
 31 32  2  0
 32 33  1  0
 32  6  1  0
 30 16  1  0
 29 25  1  0
M  CHG  4   5  -1  12  -1  15  -1  26  -1
M  END
>  <UniqueID>  (360) 
16

>  <SMILES>  (360) 
CS(=O)(=O)[N-]c1c(F)cc(C[N-]C(=O)[N-]c2cccc(S(=O)(=O)N=c3[n-]ccs3)c2)cc1F

>  <Energy>  (360) 
84.51203694614591

>  <Genealogy>  (360) 
CS(=O)(=O)[N-]c1c(F)cc(C[N-]C(=O)[N-]c2cccc(S(=O)(=O)N=c3[n-]ccs3)c2)cc1F (protonated)
CS(=O)(=O)[N-]c1c(F)cc(C[N-]C(=O)[N-]c2cccc(S(=O)(=O)N=c3[n-]ccs3)c2)cc1F (3D coordinates assigned)
CS(=O)(=O)[N-]c1c(F)cc(C[N-]C(=O)[N-]c2cccc(S(=O)(=O)N=c3[n-]ccs3)c2)cc1F (optimized conformer: 84.51203694614591 kcal/mol)

>  <smiles>  (360) 
CS(=O)(=O)Nc1c(F)cc(CNC(=O)Nc2cccc(S(=O)(=O)N=c3[nH]ccs3)c2)cc1F

>  <score_type>  (360) 
oracle

>  <origin>  (360) 
adg

>  <m_score__min__energy>  (360) 
-14.93

>  <m_primary>  (360) 
energy

$$$$
31:0
     RDKit          3D

 25 27  0  0  0  0  0  0  0  0999 V2000
   60.3160   27.8780   46.6930 O   0  0  0  0  0  0  0  0  0  0  0  0
   59.2080   28.3300   47.0890 C   0  0  0  0  0  0  0  0  0  0  0  0
   58.1100   28.5610   46.1030 C   0  0  0  0  0  0  0  0  0  0  0  0
   57.1290   27.4320   46.1530 C   0  0  0  0  0  0  0  0  0  0  0  0
   55.8940   27.4820   45.6230 N   0  0  0  0  0  0  0  0  0  0  0  0
   55.3620   26.2880   45.9650 C   0  0  0  0  0  0  0  0  0  0  0  0
   54.1950   25.9470   45.6390 O   0  0  0  0  0  0  0  0  0  0  0  0
   56.1760   25.4890   46.6870 N   0  0  0  0  0  0  0  0  0  0  0  0
   57.2900   26.2330   46.8030 C   0  0  0  0  0  0  0  0  0  0  0  0
   58.4280   25.8290   47.4920 O   0  0  0  0  0  0  0  0  0  0  0  0
   58.9510   28.5240   48.4860 N   0  0  0  0  0  0  0  0  0  0  0  0
   58.8880   29.7810   49.1760 C   0  0  0  0  0  0  0  0  0  0  0  0
   58.5270   29.7850   50.5270 C   0  0  0  0  0  0  0  0  0  0  0  0
   58.4310   30.9880   51.2290 C   0  0  0  0  0  0  0  0  0  0  0  0
   58.6870   32.1990   50.5850 C   0  0  0  0  0  0  0  0  0  0  0  0
   59.0400   32.2190   49.2250 C   0  0  0  0  0  0  0  0  0  0  0  0
   59.2750   33.5030   48.5180 C   0  0  0  0  0  0  0  0  0  0  0  0
   59.8910   34.4250   49.1210 O   0  0  0  0  0  0  0  0  0  0  0  0
   58.8130   33.7400   47.1290 C   0  0  0  0  0  0  0  0  0  0  0  0
   59.6270   34.4510   46.2290 C   0  0  0  0  0  0  0  0  0  0  0  0
   59.1930   34.6940   44.9220 C   0  0  0  0  0  0  0  0  0  0  0  0
   57.9390   34.2420   44.5040 C   0  0  0  0  0  0  0  0  0  0  0  0
   57.1150   33.5500   45.3950 C   0  0  0  0  0  0  0  0  0  0  0  0
   57.5450   33.3040   46.7020 C   0  0  0  0  0  0  0  0  0  0  0  0
   59.1190   31.0040   48.5200 C   0  0  0  0  0  0  0  0  0  0  0  0
  1  2  2  0
  2  3  1  0
  3  4  1  0
  4  5  1  0
  5  6  1  0
  6  7  2  0
  6  8  1  0
  8  9  1  0
  9 10  1  0
  2 11  1  0
 11 12  1  0
 12 13  2  0
 13 14  1  0
 14 15  2  0
 15 16  1  0
 16 17  1  0
 17 18  2  0
 17 19  1  0
 19 20  2  0
 20 21  1  0
 21 22  2  0
 22 23  1  0
 23 24  2  0
 16 25  2  0
  9  4  2  0
 25 12  1  0
 24 19  1  0
M  CHG  3   5  -1   8  -1  11  -1
M  END
>  <UniqueID>  (361) 
31

>  <SMILES>  (361) 
O=C(Cc1[n-]c(=O)[n-]c1O)[N-]c1cccc(C(=O)c2ccccc2)c1

>  <Energy>  (361) 
75.51948383170999

>  <Genealogy>  (361) 
O=C(Cc1[n-]c(=O)[n-]c1O)[N-]c1cccc(C(=O)c2ccccc2)c1 (protonated)
O=C(Cc1[n-]c(=O)[n-]c1O)[N-]c1cccc(C(=O)c2ccccc2)c1 (3D coordinates assigned)
O=C(Cc1[n-]c(=O)[n-]c1O)[N-]c1cccc(C(=O)c2ccccc2)c1 (optimized conformer: 75.51948383170999 kcal/mol)

>  <smiles>  (361) 
O=C(Cc1[nH]c(=O)[nH]c1O)Nc1cccc(C(=O)c2ccccc2)c1

>  <score_type>  (361) 
oracle

>  <origin>  (361) 
adg

>  <m_score__min__energy>  (361) 
-14.69

>  <m_primary>  (361) 
energy

$$$$
39:0
     RDKit          3D

 24 25  0  0  0  0  0  0  0  0999 V2000
   59.1020   28.2620   48.2640 C   0  0  0  0  0  0  0  0  0  0  0  0
   59.4030   29.5440   49.4640 S   0  0  0  0  0  0  0  0  0  0  0  0
   58.1320   29.7710   50.2310 O   0  0  0  0  0  0  0  0  0  0  0  0
   60.4800   29.1300   50.4260 O   0  0  0  0  0  0  0  0  0  0  0  0
   59.8380   31.0250   48.6720 N   0  0  0  0  0  0  0  0  0  0  0  0
   59.1940   31.6260   47.5390 C   0  0  0  0  0  0  0  0  0  0  0  0
   58.9620   30.8140   46.4180 C   0  0  0  0  0  0  0  0  0  0  0  0
   58.3070   31.3200   45.2840 C   0  0  0  0  0  0  0  0  0  0  0  0
   58.0390   30.4660   44.1080 C   0  0  0  0  0  0  0  0  0  0  0  0
   57.9050   29.1290   44.1400 C   0  0  0  0  0  0  0  0  0  0  0  0
   56.9040   28.3820   44.9370 C   0  0  0  0  0  0  0  0  0  0  0  0
   55.8130   28.9540   45.2030 O   0  0  0  0  0  0  0  0  0  0  0  0
   57.1390   27.0120   45.4550 C   0  0  0  0  0  0  0  0  0  0  0  0
   58.4390   26.4790   45.4180 C   0  0  0  0  0  0  0  0  0  0  0  0
   58.7010   25.2140   45.9510 C   0  0  0  0  0  0  0  0  0  0  0  0
   57.6650   24.4610   46.5100 C   0  0  0  0  0  0  0  0  0  0  0  0
   57.9290   23.2070   47.0450 O   0  0  0  0  0  0  0  0  0  0  0  0
   56.3640   24.9680   46.5250 C   0  0  0  0  0  0  0  0  0  0  0  0
   56.0930   26.2330   45.9920 C   0  0  0  0  0  0  0  0  0  0  0  0
   54.7820   26.6990   45.9920 O   0  0  0  0  0  0  0  0  0  0  0  0
   57.9350   32.6680   45.2520 C   0  0  0  0  0  0  0  0  0  0  0  0
   58.1440   33.4810   46.3650 C   0  0  0  0  0  0  0  0  0  0  0  0
   58.7490   32.9660   47.5170 C   0  0  0  0  0  0  0  0  0  0  0  0
   58.8690   33.7920   48.6250 O   0  0  0  0  0  0  0  0  0  0  0  0
  1  2  1  0
  2  3  2  0
  2  4  2  0
  2  5  1  0
  5  6  1  0
  6  7  2  0
  7  8  1  0
  8  9  1  0
  9 10  2  3
 10 11  1  0
 11 12  2  0
 11 13  1  0
 13 14  2  0
 14 15  1  0
 15 16  2  0
 16 17  1  0
 16 18  1  0
 18 19  2  0
 19 20  1  0
  8 21  2  0
 21 22  1  0
 22 23  2  0
 23 24  1  0
 23  6  1  0
 19 13  1  0
M  CHG  4   5  -1  17  -1  20  -1  24  -1
M  END
>  <UniqueID>  (362) 
39

>  <SMILES>  (362) 
CS(=O)(=O)[N-]c1cc(C=CC(=O)c2ccc([O-])cc2[O-])ccc1[O-]

>  <Energy>  (362) 
50.05494177917569

>  <Genealogy>  (362) 
CS(=O)(=O)[N-]c1cc(C=CC(=O)c2ccc([O-])cc2[O-])ccc1[O-] (protonated)
CS(=O)(=O)[N-]c1cc(C=CC(=O)c2ccc([O-])cc2[O-])ccc1[O-] (3D coordinates assigned)
CS(=O)(=O)[N-]c1cc(C=CC(=O)c2ccc([O-])cc2[O-])ccc1[O-] (optimized conformer: 50.05494177917569 kcal/mol)

>  <smiles>  (362) 
CS(=O)(=O)Nc1cc(C=CC(=O)c2ccc(O)cc2O)ccc1O

>  <score_type>  (362) 
oracle

>  <origin>  (362) 
adg

>  <m_score__min__energy>  (362) 
-15.18

>  <m_primary>  (362) 
energy

$$$$
77:0
     RDKit          3D

 30 32  0  0  0  0  0  0  0  0999 V2000
   56.0990   30.0080   52.3820 C   0  0  0  0  0  0  0  0  0  0  0  0
   57.0160   30.7010   51.4640 N   0  0  0  0  0  0  0  0  0  0  0  0
   58.1980   29.8580   51.1880 C   0  0  0  0  0  0  0  0  0  0  0  0
   59.2410   30.6120   50.3370 C   0  0  0  0  0  0  0  0  0  0  0  0
   58.7120   31.9140   49.9020 N   0  0  0  0  0  0  0  0  0  0  0  0
   59.8760   32.7340   48.8900 S   0  0  0  0  0  0  0  0  0  0  0  0
   61.0490   31.8280   48.6340 O   0  0  0  0  0  0  0  0  0  0  0  0
   60.3820   33.9540   49.6080 O   0  0  0  0  0  0  0  0  0  0  0  0
   59.1740   33.2190   47.3440 C   0  0  0  0  0  0  0  0  0  0  0  0
   59.5440   34.4330   46.7530 C   0  0  0  0  0  0  0  0  0  0  0  0
   58.9650   34.8290   45.5450 C   0  0  0  0  0  0  0  0  0  0  0  0
   58.0180   34.0140   44.9180 C   0  0  0  0  0  0  0  0  0  0  0  0
   57.6560   32.7810   45.4890 C   0  0  0  0  0  0  0  0  0  0  0  0
   56.6590   31.9310   44.9050 N   0  0  0  0  0  0  0  0  0  0  0  0
   56.6780   30.5000   44.8400 C   0  0  0  0  0  0  0  0  0  0  0  0
   55.6030   29.8430   44.8540 O   0  0  0  0  0  0  0  0  0  0  0  0
   57.9410   29.8300   44.7700 N   0  0  0  0  0  0  0  0  0  0  0  0
   58.2490   28.5440   45.3230 C   0  0  0  0  0  0  0  0  0  0  0  0
   59.5410   28.2200   45.7730 C   0  0  0  0  0  0  0  0  0  0  0  0
   59.7970   26.9610   46.3240 C   0  0  0  0  0  0  0  0  0  0  0  0
   58.7690   26.0240   46.4450 C   0  0  0  0  0  0  0  0  0  0  0  0
   57.4700   26.3480   46.0310 C   0  0  0  0  0  0  0  0  0  0  0  0
   56.1750   25.1630   46.1660 S   0  0  0  0  0  0  0  0  0  0  0  0
   54.6450   25.9360   45.9410 N   0  0  0  0  0  0  0  0  0  0  0  0
   56.2010   24.5330   47.5320 O   0  0  0  0  0  0  0  0  0  0  0  0
   56.3610   24.1000   45.1200 O   0  0  0  0  0  0  0  0  0  0  0  0
   57.2150   27.6090   45.4740 C   0  0  0  0  0  0  0  0  0  0  0  0
   58.2310   32.3980   46.7090 C   0  0  0  0  0  0  0  0  0  0  0  0
   58.3780   32.7450   51.0720 C   0  0  0  0  0  0  0  0  0  0  0  0
   57.4300   31.9970   52.0340 C   0  0  0  0  0  0  0  0  0  0  0  0
  1  2  1  0
  2  3  1  0
  3  4  1  0
  4  5  1  0
  5  6  1  0
  6  7  2  0
  6  8  2  0
  6  9  1  0
  9 10  2  0
 10 11  1  0
 11 12  2  0
 12 13  1  0
 13 14  1  0
 14 15  1  0
 15 16  2  0
 15 17  1  0
 17 18  1  0
 18 19  2  0
 19 20  1  0
 20 21  2  0
 21 22  1  0
 22 23  1  0
 23 24  1  0
 23 25  2  0
 23 26  2  0
 22 27  2  0
 13 28  2  0
  5 29  1  0
 29 30  1  0
 30  2  1  0
 28  9  1  0
 27 18  1  0
M  CHG  3  14  -1  17  -1  24  -1
M  END
>  <UniqueID>  (363) 
74

>  <SMILES>  (363) 
CN1CCN(S(=O)(=O)c2cccc([N-]C(=O)[N-]c3cccc(S([NH-])(=O)=O)c3)c2)CC1

>  <Energy>  (363) 
63.58604411339492

>  <Genealogy>  (363) 
CN1CCN(S(=O)(=O)c2cccc([N-]C(=O)[N-]c3cccc(S([NH-])(=O)=O)c3)c2)CC1 (protonated)
CN1CCN(S(=O)(=O)c2cccc([N-]C(=O)[N-]c3cccc(S([NH-])(=O)=O)c3)c2)CC1 (3D coordinates assigned)
CN1CCN(S(=O)(=O)c2cccc([N-]C(=O)[N-]c3cccc(S([NH-])(=O)=O)c3)c2)CC1 (nonaromatic ring conformer: 63.58604411339492 kcal/mol)

>  <smiles>  (363) 
CN1CCN(S(=O)(=O)c2cccc(NC(=O)Nc3cccc(S(N)(=O)=O)c3)c2)CC1

>  <score_type>  (363) 
oracle

>  <origin>  (363) 
adg

>  <m_score__min__energy>  (363) 
-15.300000000000001

>  <m_primary>  (363) 
energy

$$$$
81:0
     RDKit          3D

 22 23  0  0  0  0  0  0  0  0999 V2000
   55.1400   29.3700   44.8460 N   0  0  0  0  0  0  0  0  0  0  0  0
   56.5730   29.7190   43.9450 S   0  0  0  0  0  0  0  0  0  0  0  0
   56.1850   30.2760   42.6040 O   0  0  0  0  0  0  0  0  0  0  0  0
   57.3590   28.4560   43.7310 O   0  0  0  0  0  0  0  0  0  0  0  0
   57.5570   30.8900   44.8350 C   0  0  0  0  0  0  0  0  0  0  0  0
   57.3050   32.2610   44.6710 C   0  0  0  0  0  0  0  0  0  0  0  0
   58.0690   33.2110   45.3520 C   0  0  0  0  0  0  0  0  0  0  0  0
   59.0890   32.8020   46.2120 C   0  0  0  0  0  0  0  0  0  0  0  0
   59.3480   31.4420   46.3910 C   0  0  0  0  0  0  0  0  0  0  0  0
   58.6000   30.4740   45.6960 C   0  0  0  0  0  0  0  0  0  0  0  0
   58.8600   29.0390   45.9450 C   0  0  0  0  0  0  0  0  0  0  0  0
   58.8220   28.4470   47.1500 C   0  0  0  0  0  0  0  0  0  0  0  0
   58.6680   26.9930   47.3920 C   0  0  0  0  0  0  0  0  0  0  0  0
   59.6750   26.2380   47.4370 O   0  0  0  0  0  0  0  0  0  0  0  0
   57.3630   26.4000   47.3920 N   0  0  0  0  0  0  0  0  0  0  0  0
   56.8870   25.4670   46.6120 C   0  0  0  0  0  0  0  0  0  0  0  0
   57.5890   24.3050   46.5180 N   0  0  0  0  0  0  0  0  0  0  0  0
   57.1940   23.2710   45.7300 C   0  0  0  0  0  0  0  0  0  0  0  0
   56.0260   23.3740   44.9780 C   0  0  0  0  0  0  0  0  0  0  0  0
   55.2610   24.5360   45.0650 C   0  0  0  0  0  0  0  0  0  0  0  0
   55.6690   25.5860   45.8930 C   0  0  0  0  0  0  0  0  0  0  0  0
   54.8340   26.6910   46.0160 O   0  0  0  0  0  0  0  0  0  0  0  0
  1  2  1  0
  2  3  2  0
  2  4  2  0
  2  5  1  0
  5  6  2  0
  6  7  1  0
  7  8  2  0
  8  9  1  0
  9 10  2  0
 10 11  1  0
 11 12  2  0
 12 13  1  0
 13 14  2  0
 13 15  1  0
 15 16  2  3
 16 17  1  0
 17 18  1  0
 18 19  2  0
 19 20  1  0
 20 21  2  0
 21 22  1  0
 10  5  1  0
 21 16  1  0
M  CHG  3   1  -1  17  -1  22  -1
M  END
>  <UniqueID>  (364) 
77

>  <SMILES>  (364) 
[NH-]S(=O)(=O)c1ccccc1/C=C\C(=O)N=c1[n-]cccc1[O-]

>  <Energy>  (364) 
55.04606071844265

>  <Genealogy>  (364) 
[NH-]S(=O)(=O)c1ccccc1C=CC(=O)N=c1[n-]cccc1[O-] (protonated)
[NH-]S(=O)(=O)c1ccccc1/C=C\C(=O)N=c1[n-]cccc1[O-] (cis-trans isomerization)
[NH-]S(=O)(=O)c1ccccc1/C=C\C(=O)N=c1[n-]cccc1[O-] (3D coordinates assigned)
[NH-]S(=O)(=O)c1ccccc1/C=C\C(=O)N=c1[n-]cccc1[O-] (optimized conformer: 55.04606071844265 kcal/mol)

>  <smiles>  (364) 
NS(=O)(=O)c1ccccc1C=CC(=O)N=c1[nH]cccc1O

>  <score_type>  (364) 
oracle

>  <origin>  (364) 
adg

>  <m_score__min__energy>  (364) 
-15.32

>  <m_primary>  (364) 
energy

$$$$
83:0
     RDKit          3D

 29 31  0  0  0  0  0  0  0  0999 V2000
   55.1400   26.5680   45.9950 N   0  0  0  0  0  0  0  0  0  0  0  0
   56.8230   26.9550   45.9190 S   0  0  0  0  0  0  0  0  0  0  0  0
   57.5430   25.8690   45.1700 O   0  0  0  0  0  0  0  0  0  0  0  0
   57.3640   27.0460   47.3170 O   0  0  0  0  0  0  0  0  0  0  0  0
   57.0780   28.4930   45.0990 C   0  0  0  0  0  0  0  0  0  0  0  0
   55.9970   29.3240   44.7720 C   0  0  0  0  0  0  0  0  0  0  0  0
   56.2180   30.5480   44.1360 C   0  0  0  0  0  0  0  0  0  0  0  0
   57.5260   30.9650   43.8330 C   0  0  0  0  0  0  0  0  0  0  0  0
   57.7740   32.3160   43.2150 C   0  0  0  0  0  0  0  0  0  0  0  0
   57.5960   33.3860   44.1970 N   0  0  0  0  0  0  0  0  0  0  0  0
   57.6400   33.2290   45.6220 C   0  0  0  0  0  0  0  0  0  0  0  0
   56.6390   33.5670   46.3060 O   0  0  0  0  0  0  0  0  0  0  0  0
   58.8490   32.7410   46.3120 C   0  0  0  0  0  0  0  0  0  0  0  0
   58.7900   31.5410   47.0260 C   0  0  0  0  0  0  0  0  0  0  0  0
   59.9020   31.1000   47.7330 C   0  0  0  0  0  0  0  0  0  0  0  0
   61.0720   31.8560   47.7180 C   0  0  0  0  0  0  0  0  0  0  0  0
   61.1410   33.0260   47.0090 N   0  0  0  0  0  0  0  0  0  0  0  0
   62.4090   33.7730   46.9940 C   0  0  0  0  0  0  0  0  0  0  0  0
   63.0930   33.6660   48.3310 C   0  0  0  0  0  0  0  0  0  0  0  0
   62.6200   34.4080   49.4270 C   0  0  0  0  0  0  0  0  0  0  0  0
   63.2320   34.2840   50.6780 C   0  0  0  0  0  0  0  0  0  0  0  0
   64.3160   33.4170   50.8460 C   0  0  0  0  0  0  0  0  0  0  0  0
   64.9220   33.2960   52.0900 O   0  0  0  0  0  0  0  0  0  0  0  0
   64.7880   32.6720   49.7620 C   0  0  0  0  0  0  0  0  0  0  0  0
   64.1790   32.7910   48.5100 C   0  0  0  0  0  0  0  0  0  0  0  0
   60.0540   33.4690   46.2940 C   0  0  0  0  0  0  0  0  0  0  0  0
   60.1300   34.5280   45.6110 O   0  0  0  0  0  0  0  0  0  0  0  0
   58.6040   30.1240   44.1470 C   0  0  0  0  0  0  0  0  0  0  0  0
   58.3810   28.8970   44.7780 C   0  0  0  0  0  0  0  0  0  0  0  0
  1  2  1  0
  2  3  2  0
  2  4  2  0
  2  5  1  0
  5  6  2  0
  6  7  1  0
  7  8  2  0
  8  9  1  0
  9 10  1  0
 10 11  1  0
 11 12  2  0
 11 13  1  0
 13 14  2  0
 14 15  1  0
 15 16  2  0
 16 17  1  0
 17 18  1  0
 18 19  1  0
 19 20  2  0
 20 21  1  0
 21 22  2  0
 22 23  1  0
 22 24  1  0
 24 25  2  0
 17 26  1  0
 26 27  2  0
  8 28  1  0
 28 29  2  0
 29  5  1  0
 26 13  1  0
 25 19  1  0
M  CHG  3   1  -1  10  -1  23  -1
M  END
>  <UniqueID>  (365) 
79

>  <SMILES>  (365) 
[NH-]S(=O)(=O)c1ccc(C[N-]C(=O)c2cccn(Cc3ccc([O-])cc3)c2=O)cc1

>  <Energy>  (365) 
52.14806934348807

>  <Genealogy>  (365) 
[NH-]S(=O)(=O)c1ccc(C[N-]C(=O)c2cccn(Cc3ccc([O-])cc3)c2=O)cc1 (protonated)
[NH-]S(=O)(=O)c1ccc(C[N-]C(=O)c2cccn(Cc3ccc([O-])cc3)c2=O)cc1 (3D coordinates assigned)
[NH-]S(=O)(=O)c1ccc(C[N-]C(=O)c2cccn(Cc3ccc([O-])cc3)c2=O)cc1 (optimized conformer: 52.14806934348807 kcal/mol)

>  <smiles>  (365) 
NS(=O)(=O)c1ccc(CNC(=O)c2cccn(Cc3ccc(O)cc3)c2=O)cc1

>  <score_type>  (365) 
oracle

>  <origin>  (365) 
adg

>  <m_score__min__energy>  (365) 
-15.470000000000001

>  <m_primary>  (365) 
energy

$$$$
58:0
     RDKit          3D

 25 27  0  0  0  0  0  0  0  0999 V2000
   59.0580   29.5550   49.3940 C   0  0  0  0  0  0  0  0  0  0  0  0
   60.1910   30.3600   48.8220 C   0  0  0  0  0  0  0  0  0  0  0  0
   60.6370   31.4930   49.5260 C   0  0  0  0  0  0  0  0  0  0  0  0
   61.6750   32.2800   49.0240 C   0  0  0  0  0  0  0  0  0  0  0  0
   62.2800   31.9490   47.8140 C   0  0  0  0  0  0  0  0  0  0  0  0
   61.8590   30.8230   47.1060 C   0  0  0  0  0  0  0  0  0  0  0  0
   60.8250   30.0040   47.6010 C   0  0  0  0  0  0  0  0  0  0  0  0
   60.4240   28.7770   46.8010 C   0  0  0  0  0  0  0  0  0  0  0  0
   59.0340   28.8740   46.2990 N   0  0  0  0  0  0  0  0  0  0  0  0
   58.1710   27.8160   46.4650 C   0  0  0  0  0  0  0  0  0  0  0  0
   58.5410   26.7680   47.0580 O   0  0  0  0  0  0  0  0  0  0  0  0
   56.9070   27.8750   45.9760 N   0  0  0  0  0  0  0  0  0  0  0  0
   56.4520   28.9610   45.3110 C   0  0  0  0  0  0  0  0  0  0  0  0
   55.1480   28.9710   44.8290 O   0  0  0  0  0  0  0  0  0  0  0  0
   57.2910   30.0590   45.1200 C   0  0  0  0  0  0  0  0  0  0  0  0
   56.8070   31.2350   44.3630 C   0  0  0  0  0  0  0  0  0  0  0  0
   56.6820   32.4650   44.8830 C   0  0  0  0  0  0  0  0  0  0  0  0
   57.7500   33.1850   45.6110 C   0  0  0  0  0  0  0  0  0  0  0  0
   57.8790   33.0900   47.0070 C   0  0  0  0  0  0  0  0  0  0  0  0
   58.8660   33.8330   47.6590 C   0  0  0  0  0  0  0  0  0  0  0  0
   59.6890   34.6490   46.9460 N   0  0  0  0  0  0  0  0  0  0  0  0
   59.5750   34.7710   45.5970 C   0  0  0  0  0  0  0  0  0  0  0  0
   58.5970   34.0510   44.9070 C   0  0  0  0  0  0  0  0  0  0  0  0
   58.6100   29.9840   45.6030 C   0  0  0  0  0  0  0  0  0  0  0  0
   59.4050   30.9360   45.3700 O   0  0  0  0  0  0  0  0  0  0  0  0
  1  2  1  0
  2  3  2  0
  3  4  1  0
  4  5  2  0
  5  6  1  0
  6  7  2  0
  7  8  1  0
  8  9  1  0
  9 10  1  0
 10 11  2  0
 10 12  1  0
 12 13  1  0
 13 14  1  0
 13 15  2  0
 15 16  1  0
 16 17  2  3
 17 18  1  0
 18 19  2  0
 19 20  1  0
 20 21  2  0
 21 22  1  0
 22 23  2  0
 15 24  1  0
 24 25  2  0
  7  2  1  0
 24  9  1  0
 23 18  1  0
M  CHG  2  12  -1  14  -1
M  END
>  <UniqueID>  (366) 
54

>  <SMILES>  (366) 
Cc1ccccc1Cn1c(=O)[n-]c([O-])c(C=Cc2ccncc2)c1=O

>  <Energy>  (366) 
60.489662614223796

>  <Genealogy>  (366) 
Cc1ccccc1Cn1c(=O)[n-]c([O-])c(C=Cc2ccncc2)c1=O (protonated)
Cc1ccccc1Cn1c(=O)[n-]c([O-])c(C=Cc2ccncc2)c1=O (3D coordinates assigned)
Cc1ccccc1Cn1c(=O)[n-]c([O-])c(C=Cc2ccncc2)c1=O (optimized conformer: 60.489662614223796 kcal/mol)

>  <smiles>  (366) 
Cc1ccccc1Cn1c(=O)[nH]c(O)c(C=Cc2ccncc2)c1=O

>  <score_type>  (366) 
oracle

>  <origin>  (366) 
adg

>  <m_score__min__energy>  (366) 
-14.18

>  <m_primary>  (366) 
energy

$$$$
60:0
     RDKit          3D

 25 27  0  0  0  0  0  0  0  0999 V2000
   54.7850   26.2970   45.9900 N   0  0  0  0  0  0  0  0  0  0  0  0
   56.4600   25.9200   45.7980 S   0  0  0  0  0  0  0  0  0  0  0  0
   56.6430   25.0370   44.5960 O   0  0  0  0  0  0  0  0  0  0  0  0
   56.9540   25.1880   47.0150 O   0  0  0  0  0  0  0  0  0  0  0  0
   57.3720   27.4110   45.5850 C   0  0  0  0  0  0  0  0  0  0  0  0
   58.7700   27.4030   45.6920 C   0  0  0  0  0  0  0  0  0  0  0  0
   59.4930   28.5870   45.5200 C   0  0  0  0  0  0  0  0  0  0  0  0
   58.8240   29.7840   45.2560 C   0  0  0  0  0  0  0  0  0  0  0  0
   57.4210   29.8100   45.1860 C   0  0  0  0  0  0  0  0  0  0  0  0
   56.7140   31.0170   44.8840 N   0  0  0  0  0  0  0  0  0  0  0  0
   57.2620   32.3430   44.8910 C   0  0  0  0  0  0  0  0  0  0  0  0
   57.4090   32.9390   43.7910 O   0  0  0  0  0  0  0  0  0  0  0  0
   57.4820   33.0980   46.1770 C   0  0  0  0  0  0  0  0  0  0  0  0
   58.8810   33.0130   46.6000 N   0  0  0  0  0  0  0  0  0  0  0  0
   59.4220   32.1100   47.4460 C   0  0  0  0  0  0  0  0  0  0  0  0
   58.7010   31.1210   48.1040 O   0  0  0  0  0  0  0  0  0  0  0  0
   60.7830   32.3110   47.5590 C   0  0  0  0  0  0  0  0  0  0  0  0
   61.0910   33.3720   46.7450 C   0  0  0  0  0  0  0  0  0  0  0  0
   59.9060   33.7790   46.1650 C   0  0  0  0  0  0  0  0  0  0  0  0
   59.7730   34.8200   45.2530 O   0  0  0  0  0  0  0  0  0  0  0  0
   62.4720   33.9080   46.5490 C   0  0  0  0  0  0  0  0  0  0  0  0
   63.4840   33.1740   47.4070 C   0  0  0  0  0  0  0  0  0  0  0  0
   63.1810   32.1290   48.2100 C   0  0  0  0  0  0  0  0  0  0  0  0
   61.7880   31.5510   48.3620 C   0  0  0  0  0  0  0  0  0  0  0  0
   56.7040   28.6160   45.3280 C   0  0  0  0  0  0  0  0  0  0  0  0
  1  2  1  0
  2  3  2  0
  2  4  2  0
  2  5  1  0
  5  6  2  0
  6  7  1  0
  7  8  2  0
  8  9  1  0
  9 10  1  0
 10 11  1  0
 11 12  2  0
 11 13  1  0
 13 14  1  0
 14 15  1  0
 15 16  1  0
 15 17  2  0
 17 18  1  0
 18 19  2  0
 19 20  1  0
 18 21  1  0
 21 22  1  0
 22 23  2  0
 23 24  1  0
  9 25  2  0
 25  5  1  0
 19 14  1  0
 24 17  1  0
M  CHG  4   1  -1  10  -1  16  -1  20  -1
M  END
>  <UniqueID>  (367) 
56

>  <SMILES>  (367) 
[NH-]S(=O)(=O)c1cccc([N-]C(=O)Cn2c([O-])c3c(c2[O-])CC=CC3)c1

>  <Energy>  (367) 
77.37737205521564

>  <Genealogy>  (367) 
[NH-]S(=O)(=O)c1cccc([N-]C(=O)Cn2c([O-])c3c(c2[O-])CC=CC3)c1 (protonated)
[NH-]S(=O)(=O)c1cccc([N-]C(=O)Cn2c([O-])c3c(c2[O-])CC=CC3)c1 (3D coordinates assigned)
[NH-]S(=O)(=O)c1cccc([N-]C(=O)Cn2c([O-])c3c(c2[O-])CC=CC3)c1 (nonaromatic ring conformer: 77.37737205521564 kcal/mol)

>  <smiles>  (367) 
NS(=O)(=O)c1cccc(NC(=O)Cn2c(O)c3c(c2O)CC=CC3)c1

>  <score_type>  (367) 
oracle

>  <origin>  (367) 
adg

>  <m_score__min__energy>  (367) 
-16.129999999999999

>  <m_primary>  (367) 
energy

$$$$
70:0
     RDKit          3D

 33 36  0  0  0  0  0  0  0  0999 V2000
   55.1430   26.6660   46.0010 N   0  0  0  0  0  0  0  0  0  0  0  0
   56.4100   25.4850   46.0730 S   0  0  0  0  0  0  0  0  0  0  0  0
   56.1160   24.5480   47.2150 O   0  0  0  0  0  0  0  0  0  0  0  0
   56.4250   24.7200   44.7770 O   0  0  0  0  0  0  0  0  0  0  0  0
   57.9900   26.2540   46.3240 C   0  0  0  0  0  0  0  0  0  0  0  0
   58.7340   25.8880   47.4590 C   0  0  0  0  0  0  0  0  0  0  0  0
   60.0080   26.4170   47.6760 C   0  0  0  0  0  0  0  0  0  0  0  0
   60.5590   27.3190   46.7640 C   0  0  0  0  0  0  0  0  0  0  0  0
   59.8330   27.7030   45.6370 C   0  0  0  0  0  0  0  0  0  0  0  0
   58.5320   27.2030   45.4110 C   0  0  0  0  0  0  0  0  0  0  0  0
   57.8010   27.6600   44.1640 C   0  0  0  0  0  0  0  0  0  0  0  0
   57.3300   29.0770   44.2900 C   0  0  0  0  0  0  0  0  0  0  0  0
   58.3250   30.4330   44.3170 S   0  0  0  0  0  0  0  0  0  0  0  0
   57.0250   31.4880   44.4530 C   0  0  0  0  0  0  0  0  0  0  0  0
   57.1590   32.7790   44.5230 N   0  0  0  0  0  0  0  0  0  0  0  0
   58.2940   33.4890   45.0390 C   0  0  0  0  0  0  0  0  0  0  0  0
   59.0210   34.1930   44.2820 O   0  0  0  0  0  0  0  0  0  0  0  0
   58.6250   33.3810   46.5030 C   0  0  0  0  0  0  0  0  0  0  0  0
   59.5910   32.1910   46.7740 C   0  0  0  0  0  0  0  0  0  0  0  0
   60.9170   32.6270   47.4160 C   0  0  0  0  0  0  0  0  0  0  0  0
   60.6510   33.4900   48.5770 N   0  0  0  0  0  0  0  0  0  0  0  0
   61.2600   33.2220   49.8560 C   0  0  0  0  0  0  0  0  0  0  0  0
   60.5810   33.3740   50.9070 O   0  0  0  0  0  0  0  0  0  0  0  0
   62.6690   32.7720   49.9660 C   0  0  0  0  0  0  0  0  0  0  0  0
   63.6800   33.4330   49.2460 C   0  0  0  0  0  0  0  0  0  0  0  0
   65.0110   33.0160   49.3490 C   0  0  0  0  0  0  0  0  0  0  0  0
   65.3420   31.9290   50.1620 C   0  0  0  0  0  0  0  0  0  0  0  0
   64.3430   31.2510   50.8640 C   0  0  0  0  0  0  0  0  0  0  0  0
   63.0110   31.6640   50.7640 C   0  0  0  0  0  0  0  0  0  0  0  0
   59.6770   34.5880   48.4690 C   0  0  0  0  0  0  0  0  0  0  0  0
   59.1510   34.7310   47.0360 C   0  0  0  0  0  0  0  0  0  0  0  0
   55.8370   30.8400   44.4810 N   0  0  0  0  0  0  0  0  0  0  0  0
   56.0040   29.4940   44.3870 C   0  0  0  0  0  0  0  0  0  0  0  0
  1  2  1  0
  2  3  2  0
  2  4  2  0
  2  5  1  0
  5  6  2  0
  6  7  1  0
  7  8  2  0
  8  9  1  0
  9 10  2  0
 10 11  1  0
 11 12  1  0
 12 13  1  0
 13 14  1  0
 14 15  2  0
 15 16  1  0
 16 17  2  0
 16 18  1  0
 18 19  1  0
 19 20  1  0
 20 21  1  0
 21 22  1  0
 22 23  2  0
 22 24  1  0
 24 25  2  0
 25 26  1  0
 26 27  2  0
 27 28  1  0
 28 29  2  0
 21 30  1  0
 30 31  1  0
 14 32  1  0
 32 33  1  0
 10  5  1  0
 33 12  2  0
 31 18  1  0
 29 24  1  0
M  CHG  2   1  -1  32  -1
M  END
>  <UniqueID>  (368) 
64

>  <SMILES>  (368) 
[NH-]S(=O)(=O)c1ccccc1Cc1c[n-]/c(=N\C(=O)C2CCN(C(=O)c3ccccc3)CC2)s1

>  <Energy>  (368) 
99.57251599476518

>  <Genealogy>  (368) 
[NH-]S(=O)(=O)c1ccccc1Cc1c[n-]c(=NC(=O)C2CCN(C(=O)c3ccccc3)CC2)s1 (protonated)
[NH-]S(=O)(=O)c1ccccc1Cc1c[n-]/c(=N\C(=O)C2CCN(C(=O)c3ccccc3)CC2)s1 (cis-trans isomerization)
[NH-]S(=O)(=O)c1ccccc1Cc1c[n-]/c(=N\C(=O)C2CCN(C(=O)c3ccccc3)CC2)s1 (3D coordinates assigned)
[NH-]S(=O)(=O)c1ccccc1Cc1c[n-]/c(=N\C(=O)C2CCN(C(=O)c3ccccc3)CC2)s1 (nonaromatic ring conformer: 99.57251599476518 kcal/mol)

>  <smiles>  (368) 
NS(=O)(=O)c1ccccc1Cc1c[nH]c(=NC(=O)C2CCN(C(=O)c3ccccc3)CC2)s1

>  <score_type>  (368) 
oracle

>  <origin>  (368) 
adg

>  <m_score__min__energy>  (368) 
-14.93

>  <m_primary>  (368) 
energy

$$$$
7:0
     RDKit          3D

 32 34  0  0  0  0  0  0  0  0999 V2000
   59.2010   31.3070   51.1350 O   0  0  0  0  0  0  0  0  0  0  0  0
   58.8320   31.0800   49.9530 C   0  0  0  0  0  0  0  0  0  0  0  0
   58.8990   29.7210   49.3800 C   0  0  0  0  0  0  0  0  0  0  0  0
   59.5200   29.3630   48.2440 C   0  0  0  0  0  0  0  0  0  0  0  0
   59.0370   29.5970   46.8670 C   0  0  0  0  0  0  0  0  0  0  0  0
   59.6150   28.9940   45.9220 O   0  0  0  0  0  0  0  0  0  0  0  0
   58.0360   30.5940   46.5820 N   0  0  0  0  0  0  0  0  0  0  0  0
   57.7860   31.0660   45.2470 C   0  0  0  0  0  0  0  0  0  0  0  0
   58.5040   32.1860   44.7970 C   0  0  0  0  0  0  0  0  0  0  0  0
   58.3790   32.6330   43.4820 C   0  0  0  0  0  0  0  0  0  0  0  0
   57.5260   31.9700   42.5990 C   0  0  0  0  0  0  0  0  0  0  0  0
   56.7790   30.8720   43.0360 C   0  0  0  0  0  0  0  0  0  0  0  0
   56.8800   30.4150   44.3640 C   0  0  0  0  0  0  0  0  0  0  0  0
   55.9940   29.3080   44.8050 C   0  0  0  0  0  0  0  0  0  0  0  0
   54.7710   29.3150   44.5030 O   0  0  0  0  0  0  0  0  0  0  0  0
   56.4840   28.2740   45.5930 O   0  0  0  0  0  0  0  0  0  0  0  0
   58.3570   32.1510   49.1260 N   0  0  0  0  0  0  0  0  0  0  0  0
   59.1550   32.9570   48.2460 C   0  0  0  0  0  0  0  0  0  0  0  0
   58.5300   33.9570   47.4900 C   0  0  0  0  0  0  0  0  0  0  0  0
   59.2790   34.7590   46.6240 C   0  0  0  0  0  0  0  0  0  0  0  0
   60.6580   34.5640   46.5000 C   0  0  0  0  0  0  0  0  0  0  0  0
   61.2910   33.5530   47.2350 C   0  0  0  0  0  0  0  0  0  0  0  0
   63.0300   33.2990   47.1150 S   0  0  0  0  0  0  0  0  0  0  0  0
   63.6050   34.1700   46.0290 O   0  0  0  0  0  0  0  0  0  0  0  0
   63.2840   31.8530   46.7750 O   0  0  0  0  0  0  0  0  0  0  0  0
   63.7820   33.6880   48.6470 N   0  0  0  0  0  0  0  0  0  0  0  0
   64.4680   32.5010   49.1930 C   0  0  0  0  0  0  0  0  0  0  0  0
   64.9190   32.7460   50.6510 C   0  0  0  0  0  0  0  0  0  0  0  0
   64.7940   34.1130   51.0000 O   0  0  0  0  0  0  0  0  0  0  0  0
   63.4270   34.4940   50.9580 C   0  0  0  0  0  0  0  0  0  0  0  0
   62.7680   34.1730   49.5950 C   0  0  0  0  0  0  0  0  0  0  0  0
   60.5350   32.7390   48.0870 C   0  0  0  0  0  0  0  0  0  0  0  0
  1  2  2  0
  2  3  1  0
  3  4  2  3
  4  5  1  0
  5  6  2  0
  5  7  1  0
  7  8  1  0
  8  9  2  0
  9 10  1  0
 10 11  2  0
 11 12  1  0
 12 13  2  0
 13 14  1  0
 14 15  2  0
 14 16  1  0
  2 17  1  0
 17 18  1  0
 18 19  2  0
 19 20  1  0
 20 21  2  0
 21 22  1  0
 22 23  1  0
 23 24  2  0
 23 25  2  0
 23 26  1  0
 26 27  1  0
 27 28  1  0
 28 29  1  0
 29 30  1  0
 30 31  1  0
 22 32  2  0
 13  8  1  0
 32 18  1  0
 31 26  1  0
M  CHG  2  16  -1  17  -1
M  END
>  <UniqueID>  (369) 
8

>  <SMILES>  (369) 
O=C(C=CC(=O)Nc1ccccc1C(=O)[O-])[N-]c1cccc(S(=O)(=O)N2CCOCC2)c1

>  <Energy>  (369) 
77.87059277507679

>  <Genealogy>  (369) 
O=C(C=CC(=O)Nc1ccccc1C(=O)[O-])[N-]c1cccc(S(=O)(=O)N2CCOCC2)c1 (protonated)
O=C(C=CC(=O)Nc1ccccc1C(=O)[O-])[N-]c1cccc(S(=O)(=O)N2CCOCC2)c1 (3D coordinates assigned)
O=C(C=CC(=O)Nc1ccccc1C(=O)[O-])[N-]c1cccc(S(=O)(=O)N2CCOCC2)c1 (nonaromatic ring conformer: 77.87059277507679 kcal/mol)

>  <smiles>  (369) 
O=C(C=CC(=O)Nc1ccccc1C(=O)O)Nc1cccc(S(=O)(=O)N2CCOCC2)c1

>  <score_type>  (369) 
oracle

>  <origin>  (369) 
adg

>  <m_score__min__energy>  (369) 
-14.539999999999999

>  <m_primary>  (369) 
energy

$$$$
9:0
     RDKit          3D

 31 33  0  0  0  0  0  0  0  0999 V2000
   57.4060   32.6240   44.8610 C   0  0  0  0  0  0  0  0  0  0  0  0
   57.1100   31.3190   44.8520 C   0  0  0  0  0  0  0  0  0  0  0  0
   56.0560   30.9420   44.0780 N   0  0  0  0  0  0  0  0  0  0  0  0
   55.5270   29.6990   44.1400 C   0  0  0  0  0  0  0  0  0  0  0  0
   54.5560   29.3900   43.4020 O   0  0  0  0  0  0  0  0  0  0  0  0
   56.0250   28.7970   45.0150 N   0  0  0  0  0  0  0  0  0  0  0  0
   57.0920   29.0870   45.7990 C   0  0  0  0  0  0  0  0  0  0  0  0
   57.5150   28.1980   46.5880 O   0  0  0  0  0  0  0  0  0  0  0  0
   57.7370   30.3480   45.6970 C   0  0  0  0  0  0  0  0  0  0  0  0
   58.9010   30.5410   46.3780 C   0  0  0  0  0  0  0  0  0  0  0  0
   59.0500   30.7190   47.8400 C   0  0  0  0  0  0  0  0  0  0  0  0
   58.8650   29.6450   48.7280 C   0  0  0  0  0  0  0  0  0  0  0  0
   58.8850   29.8610   50.1090 C   0  0  0  0  0  0  0  0  0  0  0  0
   59.0790   31.1460   50.6300 C   0  0  0  0  0  0  0  0  0  0  0  0
   59.0400   31.3050   52.0250 O   0  0  0  0  0  0  0  0  0  0  0  0
   57.9390   31.8070   52.7880 C   0  0  0  0  0  0  0  0  0  0  0  0
   56.6050   31.4090   52.1280 C   0  0  0  0  0  0  0  0  0  0  0  0
   56.0150   30.0990   52.6820 C   0  0  0  0  0  0  0  0  0  0  0  0
   54.8130   30.3120   53.6150 C   0  0  0  0  0  0  0  0  0  0  0  0
   53.5330   29.8610   52.9790 C   0  0  0  0  0  0  0  0  0  0  0  0
   53.2300   28.6380   52.9870 O   0  0  0  0  0  0  0  0  0  0  0  0
   52.6170   30.8370   52.4690 N   0  0  0  0  0  0  0  0  0  0  0  0
   52.0750   30.8500   51.1420 C   0  0  0  0  0  0  0  0  0  0  0  0
   52.2600   29.7210   50.3330 C   0  0  0  0  0  0  0  0  0  0  0  0
   51.7500   29.6910   49.0330 C   0  0  0  0  0  0  0  0  0  0  0  0
   51.0350   30.7840   48.5370 C   0  0  0  0  0  0  0  0  0  0  0  0
   50.8160   31.9020   49.3470 C   0  0  0  0  0  0  0  0  0  0  0  0
   51.3190   31.9340   50.6530 C   0  0  0  0  0  0  0  0  0  0  0  0
   51.0310   33.0270   51.4630 O   0  0  0  0  0  0  0  0  0  0  0  0
   59.2500   32.2230   49.7390 C   0  0  0  0  0  0  0  0  0  0  0  0
   59.2270   32.0090   48.3580 C   0  0  0  0  0  0  0  0  0  0  0  0
  1  2  2  0
  2  3  1  0
  3  4  1  0
  4  5  2  0
  4  6  1  0
  6  7  1  0
  7  8  2  0
  7  9  1  0
  9 10  2  0
 10 11  1  0
 11 12  2  0
 12 13  1  0
 13 14  2  0
 14 15  1  0
 15 16  1  0
 16 17  1  0
 17 18  1  0
 18 19  1  0
 19 20  1  0
 20 21  2  0
 20 22  1  0
 22 23  1  0
 23 24  2  0
 24 25  1  0
 25 26  2  0
 26 27  1  0
 27 28  2  0
 28 29  1  0
 14 30  1  0
 30 31  2  0
  9  2  1  0
 31 11  1  0
 28 23  1  0
M  CHG  4   3  -1   6  -1  22  -1  29  -1
M  END
>  <UniqueID>  (370) 
10

>  <SMILES>  (370) 
C=c1[n-]c(=O)[n-]c(=O)/c1=C/c1ccc(OCCCCC(=O)[N-]c2ccccc2[O-])cc1

>  <Energy>  (370) 
77.4115083343995

>  <Genealogy>  (370) 
C=c1[n-]c(=O)[n-]c(=O)c1=Cc1ccc(OCCCCC(=O)[N-]c2ccccc2[O-])cc1 (protonated)
C=c1[n-]c(=O)[n-]c(=O)/c1=C/c1ccc(OCCCCC(=O)[N-]c2ccccc2[O-])cc1 (cis-trans isomerization)
C=c1[n-]c(=O)[n-]c(=O)/c1=C/c1ccc(OCCCCC(=O)[N-]c2ccccc2[O-])cc1 (3D coordinates assigned)
C=c1[n-]c(=O)[n-]c(=O)/c1=C/c1ccc(OCCCCC(=O)[N-]c2ccccc2[O-])cc1 (optimized conformer: 77.4115083343995 kcal/mol)

>  <smiles>  (370) 
C=c1[nH]c(=O)[nH]c(=O)c1=Cc1ccc(OCCCCC(=O)Nc2ccccc2O)cc1

>  <score_type>  (370) 
oracle

>  <origin>  (370) 
adg

>  <m_score__min__energy>  (370) 
-17.489999999999998

>  <m_primary>  (370) 
energy

$$$$
41:0
     RDKit          3D

 26 27  0  0  0  0  0  0  0  0999 V2000
   61.1940   32.7050   47.2300 C   0  0  0  0  0  0  0  0  0  0  0  0
   59.9130   32.0730   47.5660 N   0  0  0  0  0  0  0  0  0  0  0  0
   59.8620   30.7060   47.0150 C   0  0  0  0  0  0  0  0  0  0  0  0
   59.0660   29.8000   47.9120 C   0  0  0  0  0  0  0  0  0  0  0  0
   59.0400   30.0360   49.1500 O   0  0  0  0  0  0  0  0  0  0  0  0
   58.2990   28.7010   47.4060 N   0  0  0  0  0  0  0  0  0  0  0  0
   58.2980   28.2050   46.0610 C   0  0  0  0  0  0  0  0  0  0  0  0
   59.3400   28.6940   44.8310 S   0  0  0  0  0  0  0  0  0  0  0  0
   58.8070   27.5820   43.6910 C   0  0  0  0  0  0  0  0  0  0  0  0
   57.8210   26.7960   44.2710 C   0  0  0  0  0  0  0  0  0  0  0  0
   57.5370   27.1280   45.6070 C   0  0  0  0  0  0  0  0  0  0  0  0
   56.5310   26.4050   46.4140 C   0  0  0  0  0  0  0  0  0  0  0  0
   55.1400   26.5370   46.1370 N   0  0  0  0  0  0  0  0  0  0  0  0
   56.9030   25.6530   47.3550 O   0  0  0  0  0  0  0  0  0  0  0  0
   58.5980   33.0450   46.9360 S   0  0  0  0  0  0  0  0  0  0  0  0
   59.0350   34.4810   46.8420 O   0  0  0  0  0  0  0  0  0  0  0  0
   57.4290   32.9820   47.8790 O   0  0  0  0  0  0  0  0  0  0  0  0
   58.0870   32.4980   45.3360 C   0  0  0  0  0  0  0  0  0  0  0  0
   58.5390   33.1640   44.1910 C   0  0  0  0  0  0  0  0  0  0  0  0
   58.1570   32.7210   42.9240 C   0  0  0  0  0  0  0  0  0  0  0  0
   57.3150   31.6150   42.7900 C   0  0  0  0  0  0  0  0  0  0  0  0
   56.8400   30.9410   43.9300 C   0  0  0  0  0  0  0  0  0  0  0  0
   55.9320   29.7810   43.7930 C   0  0  0  0  0  0  0  0  0  0  0  0
   55.8280   29.1760   42.6930 O   0  0  0  0  0  0  0  0  0  0  0  0
   55.1730   29.3500   44.8730 O   0  0  0  0  0  0  0  0  0  0  0  0
   57.2350   31.3890   45.2030 C   0  0  0  0  0  0  0  0  0  0  0  0
  1  2  1  0
  2  3  1  0
  3  4  1  0
  4  5  2  0
  4  6  1  0
  6  7  1  0
  7  8  1  0
  8  9  1  0
  9 10  2  0
 10 11  1  0
 11 12  1  0
 12 13  1  0
 12 14  2  0
  2 15  1  0
 15 16  2  0
 15 17  2  0
 15 18  1  0
 18 19  2  0
 19 20  1  0
 20 21  2  0
 21 22  1  0
 22 23  1  0
 23 24  2  0
 23 25  1  0
 22 26  2  0
 11  7  2  0
 26 18  1  0
M  CHG  3   6  -1  13  -1  25  -1
M  END
>  <UniqueID>  (371) 
40

>  <SMILES>  (371) 
CN(CC(=O)[N-]c1sccc1C([NH-])=O)S(=O)(=O)c1cccc(C(=O)[O-])c1

>  <Energy>  (371) 
64.77989200876553

>  <Genealogy>  (371) 
CN(CC(=O)[N-]c1sccc1C([NH-])=O)S(=O)(=O)c1cccc(C(=O)[O-])c1 (protonated)
CN(CC(=O)[N-]c1sccc1C([NH-])=O)S(=O)(=O)c1cccc(C(=O)[O-])c1 (3D coordinates assigned)
CN(CC(=O)[N-]c1sccc1C([NH-])=O)S(=O)(=O)c1cccc(C(=O)[O-])c1 (optimized conformer: 64.77989200876553 kcal/mol)

>  <smiles>  (371) 
CN(CC(=O)Nc1sccc1C(N)=O)S(=O)(=O)c1cccc(C(=O)O)c1

>  <score_type>  (371) 
oracle

>  <origin>  (371) 
adg

>  <m_score__min__energy>  (371) 
-15.75

>  <m_primary>  (371) 
energy

$$$$
51:0
     RDKit          3D

 27 29  0  0  0  0  0  0  0  0999 V2000
   60.1130   29.0550   48.1610 C   0  0  0  0  0  0  0  0  0  0  0  0
   60.1750   29.8550   49.2360 C   0  0  0  0  0  0  0  0  0  0  0  0
   59.4980   29.5260   50.5140 C   0  0  0  0  0  0  0  0  0  0  0  0
   60.0110   28.5710   51.4060 C   0  0  0  0  0  0  0  0  0  0  0  0
   61.1980   27.8990   51.1380 O   0  0  0  0  0  0  0  0  0  0  0  0
   59.3650   28.3180   52.5680 N   0  0  0  0  0  0  0  0  0  0  0  0
   58.2270   28.9710   52.9080 C   0  0  0  0  0  0  0  0  0  0  0  0
   57.6740   28.6990   54.0080 O   0  0  0  0  0  0  0  0  0  0  0  0
   57.6940   29.9190   52.0710 N   0  0  0  0  0  0  0  0  0  0  0  0
   56.4750   30.6530   52.4620 C   0  0  0  0  0  0  0  0  0  0  0  0
   55.2680   29.7100   52.4750 C   0  0  0  0  0  0  0  0  0  0  0  0
   53.9920   30.4790   52.2630 C   0  0  0  0  0  0  0  0  0  0  0  0
   53.6230   30.8980   50.9730 C   0  0  0  0  0  0  0  0  0  0  0  0
   52.4540   31.6400   50.7810 C   0  0  0  0  0  0  0  0  0  0  0  0
   51.6500   31.9770   51.8750 C   0  0  0  0  0  0  0  0  0  0  0  0
   50.4890   32.7150   51.6820 O   0  0  0  0  0  0  0  0  0  0  0  0
   52.0180   31.5750   53.1620 C   0  0  0  0  0  0  0  0  0  0  0  0
   53.1870   30.8320   53.3580 C   0  0  0  0  0  0  0  0  0  0  0  0
   58.3320   30.2170   50.8910 C   0  0  0  0  0  0  0  0  0  0  0  0
   57.8690   31.1110   50.1280 O   0  0  0  0  0  0  0  0  0  0  0  0
   58.9070   28.9000   47.3110 C   0  0  0  0  0  0  0  0  0  0  0  0
   58.4820   30.0000   46.5440 C   0  0  0  0  0  0  0  0  0  0  0  0
   57.3560   29.9020   45.7210 C   0  0  0  0  0  0  0  0  0  0  0  0
   56.6460   28.7010   45.6450 C   0  0  0  0  0  0  0  0  0  0  0  0
   55.5280   28.6060   44.8270 O   0  0  0  0  0  0  0  0  0  0  0  0
   57.0650   27.5960   46.3890 C   0  0  0  0  0  0  0  0  0  0  0  0
   58.1900   27.6890   47.2150 C   0  0  0  0  0  0  0  0  0  0  0  0
  1  2  2  0
  2  3  1  0
  3  4  2  0
  4  5  1  0
  4  6  1  0
  6  7  1  0
  7  8  2  0
  7  9  1  0
  9 10  1  0
 10 11  1  0
 11 12  1  0
 12 13  2  0
 13 14  1  0
 14 15  2  0
 15 16  1  0
 15 17  1  0
 17 18  2  0
  9 19  1  0
 19 20  2  0
  1 21  1  0
 21 22  2  0
 22 23  1  0
 23 24  2  0
 24 25  1  0
 24 26  1  0
 26 27  2  0
 19  3  1  0
 27 21  1  0
 18 12  1  0
M  CHG  4   5  -1   6  -1  16  -1  25  -1
M  END
>  <UniqueID>  (372) 
50

>  <SMILES>  (372) 
O=c1[n-]c([O-])c(/C=C/c2ccc([O-])cc2)c(=O)n1CCc1ccc([O-])cc1

>  <Energy>  (372) 
53.918627176461776

>  <Genealogy>  (372) 
O=c1[n-]c([O-])c(C=Cc2ccc([O-])cc2)c(=O)n1CCc1ccc([O-])cc1 (protonated)
O=c1[n-]c([O-])c(/C=C/c2ccc([O-])cc2)c(=O)n1CCc1ccc([O-])cc1 (cis-trans isomerization)
O=c1[n-]c([O-])c(/C=C/c2ccc([O-])cc2)c(=O)n1CCc1ccc([O-])cc1 (3D coordinates assigned)
O=c1[n-]c([O-])c(/C=C/c2ccc([O-])cc2)c(=O)n1CCc1ccc([O-])cc1 (optimized conformer: 53.918627176461776 kcal/mol)

>  <smiles>  (372) 
O=c1[nH]c(O)c(C=Cc2ccc(O)cc2)c(=O)n1CCc1ccc(O)cc1

>  <score_type>  (372) 
oracle

>  <origin>  (372) 
adg

>  <m_score__min__energy>  (372) 
-15.880000000000001

>  <m_primary>  (372) 
energy

$$$$
65:0
     RDKit          3D

 29 31  0  0  0  0  0  0  0  0999 V2000
   58.9380   26.6560   46.1920 C   0  0  0  0  0  0  0  0  0  0  0  0
   58.2780   27.7470   45.7190 N   0  0  0  0  0  0  0  0  0  0  0  0
   56.9150   27.7950   45.6530 C   0  0  0  0  0  0  0  0  0  0  0  0
   56.3040   28.8460   45.1850 N   0  0  0  0  0  0  0  0  0  0  0  0
   56.7420   29.6570   44.0830 C   0  0  0  0  0  0  0  0  0  0  0  0
   56.5360   29.2400   42.9100 O   0  0  0  0  0  0  0  0  0  0  0  0
   57.3770   30.9840   44.2780 C   0  0  0  0  0  0  0  0  0  0  0  0
   57.5860   31.8350   43.1790 C   0  0  0  0  0  0  0  0  0  0  0  0
   58.1830   33.0870   43.3550 C   0  0  0  0  0  0  0  0  0  0  0  0
   58.5740   33.5040   44.6270 C   0  0  0  0  0  0  0  0  0  0  0  0
   58.3600   32.6730   45.7350 C   0  0  0  0  0  0  0  0  0  0  0  0
   58.8440   33.1890   47.3480 S   0  0  0  0  0  0  0  0  0  0  0  0
   57.8460   32.7400   48.3800 O   0  0  0  0  0  0  0  0  0  0  0  0
   58.9220   34.6900   47.3680 O   0  0  0  0  0  0  0  0  0  0  0  0
   60.4010   32.5370   47.7390 N   0  0  0  0  0  0  0  0  0  0  0  0
   61.2930   33.0280   48.7560 C   0  0  0  0  0  0  0  0  0  0  0  0
   60.8270   33.2970   50.0580 C   0  0  0  0  0  0  0  0  0  0  0  0
   61.6890   33.7930   51.0360 C   0  0  0  0  0  0  0  0  0  0  0  0
   63.0260   34.0350   50.7330 C   0  0  0  0  0  0  0  0  0  0  0  0
   63.5060   33.7820   49.4470 C   0  0  0  0  0  0  0  0  0  0  0  0
   62.6570   33.2660   48.4450 C   0  0  0  0  0  0  0  0  0  0  0  0
   63.2220   32.9900   47.0950 C   0  0  0  0  0  0  0  0  0  0  0  0
   63.2520   33.8990   46.2210 O   0  0  0  0  0  0  0  0  0  0  0  0
   63.7450   31.7440   46.7710 O   0  0  0  0  0  0  0  0  0  0  0  0
   57.7550   31.4210   45.5610 C   0  0  0  0  0  0  0  0  0  0  0  0
   56.1660   26.6840   46.0660 C   0  0  0  0  0  0  0  0  0  0  0  0
   54.7780   26.6970   46.0010 O   0  0  0  0  0  0  0  0  0  0  0  0
   56.8280   25.5540   46.5560 C   0  0  0  0  0  0  0  0  0  0  0  0
   58.2230   25.5380   46.6240 C   0  0  0  0  0  0  0  0  0  0  0  0
  1  2  1  0
  2  3  1  0
  3  4  2  0
  4  5  1  0
  5  6  2  0
  5  7  1  0
  7  8  2  0
  8  9  1  0
  9 10  2  0
 10 11  1  0
 11 12  1  0
 12 13  2  0
 12 14  2  0
 12 15  1  0
 15 16  1  0
 16 17  2  0
 17 18  1  0
 18 19  2  0
 19 20  1  0
 20 21  2  0
 21 22  1  0
 22 23  2  0
 22 24  1  0
 11 25  2  0
  3 26  1  0
 26 27  1  0
 26 28  2  0
 28 29  1  0
 29  1  2  0
 25  7  1  0
 21 16  1  0
M  CHG  4   2  -1  15  -1  24  -1  27  -1
M  END
>  <UniqueID>  (373) 
64

>  <SMILES>  (373) 
O=C(/N=c1\[n-]cccc1[O-])c1cccc(S(=O)(=O)[N-]c2ccccc2C(=O)[O-])c1

>  <Energy>  (373) 
58.03717355511873

>  <Genealogy>  (373) 
O=C(N=c1[n-]cccc1[O-])c1cccc(S(=O)(=O)[N-]c2ccccc2C(=O)[O-])c1 (protonated)
O=C(/N=c1\[n-]cccc1[O-])c1cccc(S(=O)(=O)[N-]c2ccccc2C(=O)[O-])c1 (cis-trans isomerization)
O=C(/N=c1\[n-]cccc1[O-])c1cccc(S(=O)(=O)[N-]c2ccccc2C(=O)[O-])c1 (3D coordinates assigned)
O=C(/N=c1\[n-]cccc1[O-])c1cccc(S(=O)(=O)[N-]c2ccccc2C(=O)[O-])c1 (optimized conformer: 58.03717355511873 kcal/mol)

>  <smiles>  (373) 
O=C(N=c1[nH]cccc1O)c1cccc(S(=O)(=O)Nc2ccccc2C(=O)O)c1

>  <score_type>  (373) 
oracle

>  <origin>  (373) 
adg

>  <m_score__min__energy>  (373) 
-16.5

>  <m_primary>  (373) 
energy

$$$$
80:0
     RDKit          3D

 24 26  0  0  0  0  0  0  0  0999 V2000
   60.2770   28.6020   48.6530 C   0  0  0  0  0  0  0  0  0  0  0  0
   59.4550   28.8600   47.4120 C   0  0  0  0  0  0  0  0  0  0  0  0
   59.0560   27.7220   46.6900 C   0  0  0  0  0  0  0  0  0  0  0  0
   58.1450   27.8090   45.6390 C   0  0  0  0  0  0  0  0  0  0  0  0
   57.7530   26.5760   44.8660 C   0  0  0  0  0  0  0  0  0  0  0  0
   57.2800   25.4900   45.8060 C   0  0  0  0  0  0  0  0  0  0  0  0
   56.0180   25.5660   46.4240 C   0  0  0  0  0  0  0  0  0  0  0  0
   55.1600   26.6280   46.1540 O   0  0  0  0  0  0  0  0  0  0  0  0
   55.6290   24.5970   47.2930 N   0  0  0  0  0  0  0  0  0  0  0  0
   56.4380   23.5480   47.5850 C   0  0  0  0  0  0  0  0  0  0  0  0
   55.9400   22.4010   48.6330 S   0  0  0  0  0  0  0  0  0  0  0  0
   57.6620   23.4530   47.0070 N   0  0  0  0  0  0  0  0  0  0  0  0
   58.1020   24.3940   46.1320 C   0  0  0  0  0  0  0  0  0  0  0  0
   59.2460   24.2700   45.6210 O   0  0  0  0  0  0  0  0  0  0  0  0
   57.6050   29.0490   45.3040 C   0  0  0  0  0  0  0  0  0  0  0  0
   58.0030   30.2210   45.9720 C   0  0  0  0  0  0  0  0  0  0  0  0
   58.9980   30.1570   46.9990 C   0  0  0  0  0  0  0  0  0  0  0  0
   59.4640   31.3990   47.5380 C   0  0  0  0  0  0  0  0  0  0  0  0
   60.6870   31.5490   48.4100 C   0  0  0  0  0  0  0  0  0  0  0  0
   58.8180   32.5870   47.1720 C   0  0  0  0  0  0  0  0  0  0  0  0
   57.8040   32.5800   46.2260 C   0  0  0  0  0  0  0  0  0  0  0  0
   57.2420   33.6630   45.9090 O   0  0  0  0  0  0  0  0  0  0  0  0
   57.4320   31.4190   45.6280 N   0  0  0  0  0  0  0  0  0  0  0  0
   56.4480   31.4690   44.6610 O   0  0  0  0  0  0  0  0  0  0  0  0
  1  2  1  0
  2  3  2  0
  3  4  1  0
  4  5  1  0
  5  6  1  0
  6  7  2  0
  7  8  1  0
  7  9  1  0
  9 10  1  0
 10 11  2  0
 10 12  1  0
 12 13  1  0
 13 14  2  0
  4 15  2  0
 15 16  1  0
 16 17  2  0
 17 18  1  0
 18 19  1  0
 18 20  2  0
 20 21  1  0
 21 22  2  0
 21 23  1  0
 23 24  1  0
 17  2  1  0
 13  6  1  0
 23 16  1  0
M  CHG  3   9  -1  12  -1  24  -1
M  END
>  <UniqueID>  (374) 
79

>  <SMILES>  (374) 
Cc1cc(Cc2c(O)[n-]c(=S)[n-]c2=O)cc2c1c(C)cc(=O)n2[O-]

>  <Energy>  (374) 
57.07298767381166

>  <Genealogy>  (374) 
Cc1cc(Cc2c(O)[n-]c(=S)[n-]c2=O)cc2c1c(C)cc(=O)n2[O-] (protonated)
Cc1cc(Cc2c(O)[n-]c(=S)[n-]c2=O)cc2c1c(C)cc(=O)n2[O-] (3D coordinates assigned)
Cc1cc(Cc2c(O)[n-]c(=S)[n-]c2=O)cc2c1c(C)cc(=O)n2[O-] (optimized conformer: 57.07298767381166 kcal/mol)

>  <smiles>  (374) 
Cc1cc(Cc2c(O)[nH]c(=S)[nH]c2=O)cc2c1c(C)cc(=O)n2O

>  <score_type>  (374) 
oracle

>  <origin>  (374) 
adg

>  <m_score__min__energy>  (374) 
-14.02

>  <m_primary>  (374) 
energy

$$$$
3:0
     RDKit          3D

 28 30  0  0  0  0  0  0  0  0999 V2000
   55.2670   24.0430   46.6190 O   0  0  0  0  0  0  0  0  0  0  0  0
   56.3140   24.7980   46.0960 C   0  0  0  0  0  0  0  0  0  0  0  0
   56.2580   26.1440   45.8250 C   0  0  0  0  0  0  0  0  0  0  0  0
   55.1480   26.9650   45.9860 O   0  0  0  0  0  0  0  0  0  0  0  0
   57.4950   26.5070   45.3200 C   0  0  0  0  0  0  0  0  0  0  0  0
   57.9120   27.8200   44.7980 C   0  0  0  0  0  0  0  0  0  0  0  0
   57.0770   28.7940   44.4060 C   0  0  0  0  0  0  0  0  0  0  0  0
   56.9950   30.1360   45.0120 C   0  0  0  0  0  0  0  0  0  0  0  0
   56.2880   31.0150   44.4510 O   0  0  0  0  0  0  0  0  0  0  0  0
   57.8000   30.4730   46.1500 N   0  0  0  0  0  0  0  0  0  0  0  0
   58.5440   31.6860   46.3310 C   0  0  0  0  0  0  0  0  0  0  0  0
   57.8860   32.9110   46.1710 C   0  0  0  0  0  0  0  0  0  0  0  0
   58.5840   34.1120   46.3220 C   0  0  0  0  0  0  0  0  0  0  0  0
   59.9480   34.0980   46.6220 C   0  0  0  0  0  0  0  0  0  0  0  0
   60.6240   32.8790   46.7620 C   0  0  0  0  0  0  0  0  0  0  0  0
   62.3480   32.8610   47.1250 S   0  0  0  0  0  0  0  0  0  0  0  0
   62.9010   31.5030   46.7990 O   0  0  0  0  0  0  0  0  0  0  0  0
   63.0620   33.8970   46.3030 O   0  0  0  0  0  0  0  0  0  0  0  0
   62.6160   33.1940   48.8060 N   0  0  0  0  0  0  0  0  0  0  0  0
   63.6750   32.8070   49.4460 C   0  0  0  0  0  0  0  0  0  0  0  0
   64.8780   33.4160   49.3540 N   0  0  0  0  0  0  0  0  0  0  0  0
   65.8000   32.8090   50.1460 C   0  0  0  0  0  0  0  0  0  0  0  0
   65.3320   31.7160   50.8680 C   0  0  0  0  0  0  0  0  0  0  0  0
   63.7020   31.5040   50.5020 S   0  0  0  0  0  0  0  0  0  0  0  0
   59.9250   31.6740   46.5980 C   0  0  0  0  0  0  0  0  0  0  0  0
   58.2450   25.3430   45.2680 C   0  0  0  0  0  0  0  0  0  0  0  0
   57.5270   24.3110   45.7610 N   0  0  0  0  0  0  0  0  0  0  0  0
   57.9700   22.9240   45.8630 C   0  0  0  0  0  0  0  0  0  0  0  0
  1  2  1  0
  2  3  2  0
  3  4  1  0
  3  5  1  0
  5  6  1  0
  6  7  2  3
  7  8  1  0
  8  9  2  0
  8 10  1  0
 10 11  1  0
 11 12  2  0
 12 13  1  0
 13 14  2  0
 14 15  1  0
 15 16  1  0
 16 17  2  0
 16 18  2  0
 16 19  1  0
 19 20  2  0
 20 21  1  0
 21 22  1  0
 22 23  2  0
 23 24  1  0
 15 25  2  0
  5 26  2  0
 26 27  1  0
 27 28  1  0
 27  2  1  0
 25 11  1  0
 24 20  1  0
M  CHG  3   4  -1  10  -1  21  -1
M  END
>  <UniqueID>  (375) 
4

>  <SMILES>  (375) 
Cn1cc(C=CC(=O)[N-]c2cccc(S(=O)(=O)/N=c3\[n-]ccs3)c2)c([O-])c1O

>  <Energy>  (375) 
112.63859930207069

>  <Genealogy>  (375) 
Cn1cc(C=CC(=O)[N-]c2cccc(S(=O)(=O)N=c3[n-]ccs3)c2)c([O-])c1O (protonated)
Cn1cc(C=CC(=O)[N-]c2cccc(S(=O)(=O)/N=c3\[n-]ccs3)c2)c([O-])c1O (cis-trans isomerization)
Cn1cc(C=CC(=O)[N-]c2cccc(S(=O)(=O)/N=c3\[n-]ccs3)c2)c([O-])c1O (3D coordinates assigned)
Cn1cc(C=CC(=O)[N-]c2cccc(S(=O)(=O)/N=c3\[n-]ccs3)c2)c([O-])c1O (optimized conformer: 112.63859930207069 kcal/mol)

>  <smiles>  (375) 
Cn1cc(C=CC(=O)Nc2cccc(S(=O)(=O)N=c3[nH]ccs3)c2)c(O)c1O

>  <score_type>  (375) 
oracle

>  <origin>  (375) 
adg

>  <m_score__min__energy>  (375) 
-14.789999999999999

>  <m_primary>  (375) 
energy

$$$$
15:0
     RDKit          3D

 25 27  0  0  0  0  0  0  0  0999 V2000
   60.1360   30.0470   46.1860 C   0  0  0  0  0  0  0  0  0  0  0  0
   59.1860   30.9080   45.7870 C   0  0  0  0  0  0  0  0  0  0  0  0
   58.1540   30.6420   44.8820 C   0  0  0  0  0  0  0  0  0  0  0  0
   57.9100   29.4880   44.2320 C   0  0  0  0  0  0  0  0  0  0  0  0
   57.4580   28.2510   44.9090 C   0  0  0  0  0  0  0  0  0  0  0  0
   56.1080   28.0440   45.2440 C   0  0  0  0  0  0  0  0  0  0  0  0
   55.1450   29.0020   44.9470 O   0  0  0  0  0  0  0  0  0  0  0  0
   55.7350   26.9060   45.8840 N   0  0  0  0  0  0  0  0  0  0  0  0
   56.6490   25.9630   46.2260 C   0  0  0  0  0  0  0  0  0  0  0  0
   56.1710   24.6050   46.9940 S   0  0  0  0  0  0  0  0  0  0  0  0
   57.9620   26.1540   45.9410 N   0  0  0  0  0  0  0  0  0  0  0  0
   58.3860   27.2740   45.3010 C   0  0  0  0  0  0  0  0  0  0  0  0
   59.6140   27.4180   45.0550 O   0  0  0  0  0  0  0  0  0  0  0  0
   57.4450   31.8280   44.7380 C   0  0  0  0  0  0  0  0  0  0  0  0
   58.0520   32.7530   45.5630 C   0  0  0  0  0  0  0  0  0  0  0  0
   57.6190   34.1810   45.7030 C   0  0  0  0  0  0  0  0  0  0  0  0
   59.1120   32.2000   46.1940 N   0  0  0  0  0  0  0  0  0  0  0  0
   59.9770   32.8700   47.1290 C   0  0  0  0  0  0  0  0  0  0  0  0
   59.4730   33.3290   48.3540 C   0  0  0  0  0  0  0  0  0  0  0  0
   60.3090   33.9900   49.2580 C   0  0  0  0  0  0  0  0  0  0  0  0
   61.6640   34.2040   48.9450 C   0  0  0  0  0  0  0  0  0  0  0  0
   62.5440   34.8620   49.8170 O   0  0  0  0  0  0  0  0  0  0  0  0
   63.3630   34.2050   50.7780 C   0  0  0  0  0  0  0  0  0  0  0  0
   62.1620   33.7470   47.7180 C   0  0  0  0  0  0  0  0  0  0  0  0
   61.3260   33.0860   46.8140 C   0  0  0  0  0  0  0  0  0  0  0  0
  1  2  2  0
  2  3  1  0
  3  4  2  0
  4  5  1  0
  5  6  2  0
  6  7  1  0
  6  8  1  0
  8  9  1  0
  9 10  2  0
  9 11  1  0
 11 12  1  0
 12 13  2  0
  3 14  1  0
 14 15  2  0
 15 16  1  0
 15 17  1  0
 17 18  1  0
 18 19  2  0
 19 20  1  0
 20 21  2  0
 21 22  1  0
 22 23  1  0
 21 24  1  0
 24 25  2  0
 17  2  1  0
 25 18  1  0
 12  5  1  0
M  CHG  3   7  -1   8  -1  11  -1
M  END
>  <UniqueID>  (376) 
14

>  <SMILES>  (376) 
C=c1/c(=C/c2c([O-])[n-]c(=S)[n-]c2=O)cc(C)n1-c1ccc(OC)cc1

>  <Energy>  (376) 
85.57002580418731

>  <Genealogy>  (376) 
C=c1c(=Cc2c([O-])[n-]c(=S)[n-]c2=O)cc(C)n1-c1ccc(OC)cc1 (protonated)
C=c1/c(=C/c2c([O-])[n-]c(=S)[n-]c2=O)cc(C)n1-c1ccc(OC)cc1 (cis-trans isomerization)
C=c1/c(=C/c2c([O-])[n-]c(=S)[n-]c2=O)cc(C)n1-c1ccc(OC)cc1 (3D coordinates assigned)
C=c1/c(=C/c2c([O-])[n-]c(=S)[n-]c2=O)cc(C)n1-c1ccc(OC)cc1 (optimized conformer: 85.57002580418731 kcal/mol)

>  <smiles>  (376) 
C=c1c(=Cc2c(O)[nH]c(=S)[nH]c2=O)cc(C)n1-c1ccc(OC)cc1

>  <score_type>  (376) 
oracle

>  <origin>  (376) 
adg

>  <m_score__min__energy>  (376) 
-14.529999999999999

>  <m_primary>  (376) 
energy

$$$$
71:0
     RDKit          3D

 23 24  0  0  0  0  0  0  0  0999 V2000
   57.4610   32.4130   45.1750 C   0  0  0  0  0  0  0  0  0  0  0  0
   58.3910   32.4960   46.2500 O   0  0  0  0  0  0  0  0  0  0  0  0
   58.4910   31.5570   47.2890 C   0  0  0  0  0  0  0  0  0  0  0  0
   58.4610   31.9330   48.6480 C   0  0  0  0  0  0  0  0  0  0  0  0
   58.5720   30.9620   49.6560 C   0  0  0  0  0  0  0  0  0  0  0  0
   58.5040   31.3610   51.1020 C   0  0  0  0  0  0  0  0  0  0  0  0
   57.6420   30.4300   51.8180 N   0  0  0  0  0  0  0  0  0  0  0  0
   56.6140   30.8120   52.7390 C   0  0  0  0  0  0  0  0  0  0  0  0
   56.6630   31.9560   53.2630 O   0  0  0  0  0  0  0  0  0  0  0  0
   55.4530   29.9080   53.0640 C   0  0  0  0  0  0  0  0  0  0  0  0
   54.5010   29.7500   51.8710 C   0  0  0  0  0  0  0  0  0  0  0  0
   53.2990   30.6530   51.9890 C   0  0  0  0  0  0  0  0  0  0  0  0
   52.6010   30.7450   53.2030 C   0  0  0  0  0  0  0  0  0  0  0  0
   51.5040   31.6040   53.3230 C   0  0  0  0  0  0  0  0  0  0  0  0
   51.0980   32.3790   52.2330 C   0  0  0  0  0  0  0  0  0  0  0  0
   50.0060   33.2300   52.3580 O   0  0  0  0  0  0  0  0  0  0  0  0
   51.7940   32.3000   51.0210 C   0  0  0  0  0  0  0  0  0  0  0  0
   51.3990   33.0730   49.9350 O   0  0  0  0  0  0  0  0  0  0  0  0
   52.8930   31.4410   50.9000 C   0  0  0  0  0  0  0  0  0  0  0  0
   58.6860   29.6090   49.3030 C   0  0  0  0  0  0  0  0  0  0  0  0
   58.7160   29.2330   47.9590 C   0  0  0  0  0  0  0  0  0  0  0  0
   58.6210   30.2020   46.9560 C   0  0  0  0  0  0  0  0  0  0  0  0
   58.6540   29.8130   45.6210 O   0  0  0  0  0  0  0  0  0  0  0  0
  1  2  1  0
  2  3  1  0
  3  4  2  0
  4  5  1  0
  5  6  1  0
  6  7  1  0
  7  8  1  0
  8  9  2  0
  8 10  1  0
 10 11  1  0
 11 12  1  0
 12 13  2  0
 13 14  1  0
 14 15  2  0
 15 16  1  0
 15 17  1  0
 17 18  1  0
 17 19  2  0
  5 20  2  0
 20 21  1  0
 21 22  2  0
 22 23  1  0
 22  3  1  0
 19 12  1  0
M  CHG  4   7  -1  16  -1  18  -1  23  -1
M  END
>  <UniqueID>  (377) 
67

>  <SMILES>  (377) 
COc1cc(C[N-]C(=O)CCc2ccc([O-])c([O-])c2)ccc1[O-]

>  <Energy>  (377) 
32.51904599120619

>  <Genealogy>  (377) 
COc1cc(C[N-]C(=O)CCc2ccc([O-])c([O-])c2)ccc1[O-] (protonated)
COc1cc(C[N-]C(=O)CCc2ccc([O-])c([O-])c2)ccc1[O-] (3D coordinates assigned)
COc1cc(C[N-]C(=O)CCc2ccc([O-])c([O-])c2)ccc1[O-] (optimized conformer: 32.51904599120619 kcal/mol)

>  <smiles>  (377) 
COc1cc(CNC(=O)CCc2ccc(O)c(O)c2)ccc1O

>  <score_type>  (377) 
oracle

>  <origin>  (377) 
adg

>  <m_score__min__energy>  (377) 
-16.640000000000001

>  <m_primary>  (377) 
energy

$$$$
80:0
     RDKit          3D

 29 31  0  0  0  0  0  0  0  0999 V2000
   63.8350   32.2900   48.3080 N   0  0  0  0  0  0  0  0  0  0  0  0
   62.3530   33.0110   47.7880 S   0  0  0  0  0  0  0  0  0  0  0  0
   62.5290   33.5700   46.4050 O   0  0  0  0  0  0  0  0  0  0  0  0
   61.9840   34.1320   48.7180 O   0  0  0  0  0  0  0  0  0  0  0  0
   61.0780   31.7970   47.7860 C   0  0  0  0  0  0  0  0  0  0  0  0
   60.2940   31.5900   48.9290 C   0  0  0  0  0  0  0  0  0  0  0  0
   59.2720   30.6380   48.9180 C   0  0  0  0  0  0  0  0  0  0  0  0
   59.0280   29.8850   47.7660 C   0  0  0  0  0  0  0  0  0  0  0  0
   59.8160   30.0720   46.6200 C   0  0  0  0  0  0  0  0  0  0  0  0
   59.5480   29.2990   45.3910 C   0  0  0  0  0  0  0  0  0  0  0  0
   60.5310   28.8120   44.7700 O   0  0  0  0  0  0  0  0  0  0  0  0
   58.2060   29.1090   44.8870 N   0  0  0  0  0  0  0  0  0  0  0  0
   57.6560   29.9660   43.8210 C   0  0  0  0  0  0  0  0  0  0  0  0
   56.9990   31.2310   44.3980 C   0  0  0  0  0  0  0  0  0  0  0  0
   57.7140   32.5290   43.9880 C   0  0  0  0  0  0  0  0  0  0  0  0
   58.2310   33.2920   45.1810 C   0  0  0  0  0  0  0  0  0  0  0  0
   59.2040   34.2910   45.0200 C   0  0  0  0  0  0  0  0  0  0  0  0
   59.6630   35.0060   46.1280 C   0  0  0  0  0  0  0  0  0  0  0  0
   59.1440   34.7150   47.3920 C   0  0  0  0  0  0  0  0  0  0  0  0
   58.2040   33.7440   47.5350 N   0  0  0  0  0  0  0  0  0  0  0  0
   57.7410   33.0340   46.4710 C   0  0  0  0  0  0  0  0  0  0  0  0
   57.3710   28.0750   45.4370 C   0  0  0  0  0  0  0  0  0  0  0  0
   57.8120   26.9030   46.0120 C   0  0  0  0  0  0  0  0  0  0  0  0
   56.6620   26.2060   46.3330 C   0  0  0  0  0  0  0  0  0  0  0  0
   56.6380   24.9580   46.9460 O   0  0  0  0  0  0  0  0  0  0  0  0
   55.5440   26.8720   45.9780 N   0  0  0  0  0  0  0  0  0  0  0  0
   55.9900   28.0140   45.4230 C   0  0  0  0  0  0  0  0  0  0  0  0
   55.1450   28.9680   44.8690 O   0  0  0  0  0  0  0  0  0  0  0  0
   60.8260   31.0460   46.6290 C   0  0  0  0  0  0  0  0  0  0  0  0
  1  2  1  0
  2  3  2  0
  2  4  2  0
  2  5  1  0
  5  6  2  0
  6  7  1  0
  7  8  2  0
  8  9  1  0
  9 10  1  0
 10 11  2  0
 10 12  1  0
 12 13  1  0
 13 14  1  0
 14 15  1  0
 15 16  1  0
 16 17  2  0
 17 18  1  0
 18 19  2  0
 19 20  1  0
 20 21  2  0
 12 22  1  0
 22 23  1  0
 23 24  2  0
 24 25  1  0
 24 26  1  0
 26 27  1  0
 27 28  1  0
  9 29  2  0
 29  5  1  0
 21 16  1  0
 27 22  2  0
M  CHG  3   1  -1  26  -1  28  -1
M  END
>  <UniqueID>  (378) 
75

>  <SMILES>  (378) 
[NH-]S(=O)(=O)c1cccc(C(=O)N(CCCc2cccnc2)c2cc(O)[n-]c2[O-])c1

>  <Energy>  (378) 
82.41900927562877

>  <Genealogy>  (378) 
[NH-]S(=O)(=O)c1cccc(C(=O)N(CCCc2cccnc2)c2cc(O)[n-]c2[O-])c1 (protonated)
[NH-]S(=O)(=O)c1cccc(C(=O)N(CCCc2cccnc2)c2cc(O)[n-]c2[O-])c1 (3D coordinates assigned)
[NH-]S(=O)(=O)c1cccc(C(=O)N(CCCc2cccnc2)c2cc(O)[n-]c2[O-])c1 (optimized conformer: 82.41900927562877 kcal/mol)

>  <smiles>  (378) 
NS(=O)(=O)c1cccc(C(=O)N(CCCc2cccnc2)c2cc(O)[nH]c2O)c1

>  <score_type>  (378) 
oracle

>  <origin>  (378) 
adg

>  <m_score__min__energy>  (378) 
-14.380000000000001

>  <m_primary>  (378) 
energy

$$$$
7:0
     RDKit          3D

 23 25  0  0  0  0  0  0  0  0999 V2000
   55.9160   24.8730   47.6300 O   0  0  0  0  0  0  0  0  0  0  0  0
   56.9870   25.2520   47.0890 C   0  0  0  0  0  0  0  0  0  0  0  0
   58.1180   24.3710   47.0820 N   0  0  0  0  0  0  0  0  0  0  0  0
   58.7870   23.8790   45.8790 C   0  0  0  0  0  0  0  0  0  0  0  0
   58.0070   22.7540   45.2510 C   0  0  0  0  0  0  0  0  0  0  0  0
   58.0010   21.4760   45.8370 C   0  0  0  0  0  0  0  0  0  0  0  0
   57.3170   20.4230   45.2230 C   0  0  0  0  0  0  0  0  0  0  0  0
   56.6280   20.6370   44.0280 C   0  0  0  0  0  0  0  0  0  0  0  0
   56.6130   21.9070   43.4420 C   0  0  0  0  0  0  0  0  0  0  0  0
   55.9230   22.1060   42.2500 O   0  0  0  0  0  0  0  0  0  0  0  0
   57.2980   22.9650   44.0560 C   0  0  0  0  0  0  0  0  0  0  0  0
   57.0440   26.5850   46.4560 C   0  0  0  0  0  0  0  0  0  0  0  0
   55.8960   27.0980   45.8360 C   0  0  0  0  0  0  0  0  0  0  0  0
   54.7280   26.3450   45.7770 O   0  0  0  0  0  0  0  0  0  0  0  0
   55.9110   28.3390   45.2850 N   0  0  0  0  0  0  0  0  0  0  0  0
   57.0120   29.1320   45.3100 C   0  0  0  0  0  0  0  0  0  0  0  0
   56.9540   30.2760   44.7850 O   0  0  0  0  0  0  0  0  0  0  0  0
   58.1960   28.6740   45.9180 C   0  0  0  0  0  0  0  0  0  0  0  0
   59.3460   29.4830   45.9800 C   0  0  0  0  0  0  0  0  0  0  0  0
   60.5020   29.0160   46.6070 C   0  0  0  0  0  0  0  0  0  0  0  0
   60.5290   27.7430   47.1730 C   0  0  0  0  0  0  0  0  0  0  0  0
   59.3990   26.9240   47.1160 C   0  0  0  0  0  0  0  0  0  0  0  0
   58.2160   27.3760   46.4930 C   0  0  0  0  0  0  0  0  0  0  0  0
  1  2  2  0
  2  3  1  0
  3  4  1  0
  4  5  1  0
  5  6  2  0
  6  7  1  0
  7  8  2  0
  8  9  1  0
  9 10  1  0
  9 11  2  0
  2 12  1  0
 12 13  2  0
 13 14  1  0
 13 15  1  0
 15 16  1  0
 16 17  2  0
 16 18  1  0
 18 19  2  0
 19 20  1  0
 20 21  2  0
 21 22  1  0
 22 23  2  0
 11  5  1  0
 23 12  1  0
 23 18  1  0
M  CHG  3   3  -1  14  -1  15  -1
M  END
>  <UniqueID>  (379) 
6

>  <SMILES>  (379) 
O=C([N-]Cc1cccc(O)c1)c1c([O-])[n-]c(=O)c2ccccc12

>  <Energy>  (379) 
44.9115299795592

>  <Genealogy>  (379) 
O=C([N-]Cc1cccc(O)c1)c1c([O-])[n-]c(=O)c2ccccc12 (protonated)
O=C([N-]Cc1cccc(O)c1)c1c([O-])[n-]c(=O)c2ccccc12 (3D coordinates assigned)
O=C([N-]Cc1cccc(O)c1)c1c([O-])[n-]c(=O)c2ccccc12 (optimized conformer: 44.9115299795592 kcal/mol)

>  <smiles>  (379) 
O=C(NCc1cccc(O)c1)c1c(O)[nH]c(=O)c2ccccc12

>  <score_type>  (379) 
oracle

>  <origin>  (379) 
adg

>  <m_score__min__energy>  (379) 
-15.550000000000001

>  <m_primary>  (379) 
energy

$$$$
62:0
     RDKit          3D

 25 27  0  0  0  0  0  0  0  0999 V2000
   59.9120   26.6780   46.1060 C   0  0  0  0  0  0  0  0  0  0  0  0
   60.6120   27.4410   46.9620 C   0  0  0  0  0  0  0  0  0  0  0  0
   60.1010   28.6720   47.6090 C   0  0  0  0  0  0  0  0  0  0  0  0
   59.9880   28.7290   49.0020 C   0  0  0  0  0  0  0  0  0  0  0  0
   60.3550   27.6420   49.7880 O   0  0  0  0  0  0  0  0  0  0  0  0
   59.5010   29.8440   49.5960 N   0  0  0  0  0  0  0  0  0  0  0  0
   59.1200   30.9260   48.8730 C   0  0  0  0  0  0  0  0  0  0  0  0
   58.6440   31.9270   49.4750 O   0  0  0  0  0  0  0  0  0  0  0  0
   59.2420   30.9210   47.5080 N   0  0  0  0  0  0  0  0  0  0  0  0
   58.8200   32.0670   46.7370 C   0  0  0  0  0  0  0  0  0  0  0  0
   59.3960   33.3280   46.9630 C   0  0  0  0  0  0  0  0  0  0  0  0
   58.9850   34.4340   46.2110 C   0  0  0  0  0  0  0  0  0  0  0  0
   57.9990   34.2870   45.2320 C   0  0  0  0  0  0  0  0  0  0  0  0
   57.4220   33.0350   45.0000 C   0  0  0  0  0  0  0  0  0  0  0  0
   57.8290   31.9270   45.7500 C   0  0  0  0  0  0  0  0  0  0  0  0
   59.7540   29.8200   46.8710 C   0  0  0  0  0  0  0  0  0  0  0  0
   59.9420   29.8410   45.6220 O   0  0  0  0  0  0  0  0  0  0  0  0
   58.4370   26.5620   46.0790 C   0  0  0  0  0  0  0  0  0  0  0  0
   57.7820   25.3640   46.4220 C   0  0  0  0  0  0  0  0  0  0  0  0
   56.3870   25.2890   46.3910 C   0  0  0  0  0  0  0  0  0  0  0  0
   55.6330   26.3980   45.9980 C   0  0  0  0  0  0  0  0  0  0  0  0
   54.2450   26.3180   45.9750 O   0  0  0  0  0  0  0  0  0  0  0  0
   56.2760   27.5830   45.6240 C   0  0  0  0  0  0  0  0  0  0  0  0
   55.5310   28.6860   45.2210 O   0  0  0  0  0  0  0  0  0  0  0  0
   57.6730   27.6610   45.6550 C   0  0  0  0  0  0  0  0  0  0  0  0
  1  2  2  0
  2  3  1  0
  3  4  2  0
  4  5  1  0
  4  6  1  0
  6  7  1  0
  7  8  2  0
  7  9  1  0
  9 10  1  0
 10 11  2  0
 11 12  1  0
 12 13  2  0
 13 14  1  0
 14 15  2  0
  9 16  1  0
 16 17  2  0
  1 18  1  0
 18 19  2  0
 19 20  1  0
 20 21  2  0
 21 22  1  0
 21 23  1  0
 23 24  1  0
 23 25  2  0
 16  3  1  0
 25 18  1  0
 15 10  1  0
M  CHG  4   5  -1   6  -1  22  -1  24  -1
M  END
>  <UniqueID>  (380) 
58

>  <SMILES>  (380) 
O=c1[n-]c([O-])c(/C=C\c2ccc([O-])c([O-])c2)c(=O)n1-c1ccccc1

>  <Energy>  (380) 
60.208978744460445

>  <Genealogy>  (380) 
O=c1[n-]c([O-])c(C=Cc2ccc([O-])c([O-])c2)c(=O)n1-c1ccccc1 (protonated)
O=c1[n-]c([O-])c(/C=C\c2ccc([O-])c([O-])c2)c(=O)n1-c1ccccc1 (cis-trans isomerization)
O=c1[n-]c([O-])c(/C=C\c2ccc([O-])c([O-])c2)c(=O)n1-c1ccccc1 (3D coordinates assigned)
O=c1[n-]c([O-])c(/C=C\c2ccc([O-])c([O-])c2)c(=O)n1-c1ccccc1 (optimized conformer: 60.208978744460445 kcal/mol)

>  <smiles>  (380) 
O=c1[nH]c(O)c(C=Cc2ccc(O)c(O)c2)c(=O)n1-c1ccccc1

>  <score_type>  (380) 
oracle

>  <origin>  (380) 
adg

>  <m_score__min__energy>  (380) 
-17.690000000000001

>  <m_primary>  (380) 
energy

$$$$
63:0
     RDKit          3D

 27 29  0  0  0  0  0  0  0  0999 V2000
   58.6310   31.3160   49.4710 O   0  0  0  0  0  0  0  0  0  0  0  0
   59.3080   31.3540   48.4070 C   0  0  0  0  0  0  0  0  0  0  0  0
   60.7320   31.1760   48.4620 N   0  0  0  0  0  0  0  0  0  0  0  0
   61.6780   32.0740   48.3870 C   0  0  0  0  0  0  0  0  0  0  0  0
   62.7340   31.8050   47.5700 N   0  0  0  0  0  0  0  0  0  0  0  0
   63.7700   32.6670   47.4010 C   0  0  0  0  0  0  0  0  0  0  0  0
   63.7820   33.8830   48.0780 C   0  0  0  0  0  0  0  0  0  0  0  0
   62.7360   34.1890   48.9450 C   0  0  0  0  0  0  0  0  0  0  0  0
   61.6830   33.2820   49.1320 C   0  0  0  0  0  0  0  0  0  0  0  0
   60.7020   33.5720   50.0810 O   0  0  0  0  0  0  0  0  0  0  0  0
   58.6510   31.6960   47.1240 C   0  0  0  0  0  0  0  0  0  0  0  0
   58.6580   33.0200   46.6460 C   0  0  0  0  0  0  0  0  0  0  0  0
   58.0390   33.3390   45.4350 C   0  0  0  0  0  0  0  0  0  0  0  0
   57.4090   32.3440   44.6860 C   0  0  0  0  0  0  0  0  0  0  0  0
   57.3930   31.0220   45.1440 C   0  0  0  0  0  0  0  0  0  0  0  0
   56.5870   29.7810   44.1900 S   0  0  0  0  0  0  0  0  0  0  0  0
   57.5490   29.1160   43.2440 O   0  0  0  0  0  0  0  0  0  0  0  0
   55.4870   30.4210   43.3920 O   0  0  0  0  0  0  0  0  0  0  0  0
   55.9020   28.5850   45.2420 N   0  0  0  0  0  0  0  0  0  0  0  0
   56.5780   27.4100   45.7150 C   0  0  0  0  0  0  0  0  0  0  0  0
   57.9800   27.3480   45.8210 C   0  0  0  0  0  0  0  0  0  0  0  0
   58.6000   26.1860   46.2880 C   0  0  0  0  0  0  0  0  0  0  0  0
   57.8310   25.0770   46.6460 C   0  0  0  0  0  0  0  0  0  0  0  0
   56.4390   25.1290   46.5410 C   0  0  0  0  0  0  0  0  0  0  0  0
   55.8130   26.2900   46.0790 C   0  0  0  0  0  0  0  0  0  0  0  0
   54.4260   26.3300   45.9820 O   0  0  0  0  0  0  0  0  0  0  0  0
   58.0150   30.6990   46.3590 C   0  0  0  0  0  0  0  0  0  0  0  0
  1  2  2  0
  2  3  1  0
  3  4  2  3
  4  5  1  0
  5  6  1  0
  6  7  2  0
  7  8  1  0
  8  9  2  0
  9 10  1  0
  2 11  1  0
 11 12  2  0
 12 13  1  0
 13 14  2  0
 14 15  1  0
 15 16  1  0
 16 17  2  0
 16 18  2  0
 16 19  1  0
 19 20  1  0
 20 21  2  0
 21 22  1  0
 22 23  2  0
 23 24  1  0
 24 25  2  0
 25 26  1  0
 15 27  2  0
  9  4  1  0
 27 11  1  0
 25 20  1  0
M  CHG  3   5  -1  19  -1  26  -1
M  END
>  <UniqueID>  (381) 
59

>  <SMILES>  (381) 
O=C(N=c1[n-]cccc1O)c1cccc(S(=O)(=O)[N-]c2ccccc2[O-])c1

>  <Energy>  (381) 
58.6499978412809

>  <Genealogy>  (381) 
O=C(N=c1[n-]cccc1O)c1cccc(S(=O)(=O)[N-]c2ccccc2[O-])c1 (protonated)
O=C(N=c1[n-]cccc1O)c1cccc(S(=O)(=O)[N-]c2ccccc2[O-])c1 (3D coordinates assigned)
O=C(N=c1[n-]cccc1O)c1cccc(S(=O)(=O)[N-]c2ccccc2[O-])c1 (optimized conformer: 58.6499978412809 kcal/mol)

>  <smiles>  (381) 
O=C(N=c1[nH]cccc1O)c1cccc(S(=O)(=O)Nc2ccccc2O)c1

>  <score_type>  (381) 
oracle

>  <origin>  (381) 
adg

>  <m_score__min__energy>  (381) 
-15

>  <m_primary>  (381) 
energy

$$$$
8:0
     RDKit          3D

 33 36  0  0  0  0  0  0  0  0999 V2000
   62.3340   33.8360   51.5010 C   0  0  0  0  0  0  0  0  0  0  0  0
   63.3280   32.6820   51.5760 C   0  0  0  0  0  0  0  0  0  0  0  0
   63.2190   31.8130   50.3550 C   0  0  0  0  0  0  0  0  0  0  0  0
   63.2160   30.5630   50.5040 O   0  0  0  0  0  0  0  0  0  0  0  0
   63.1220   32.3850   49.0380 N   0  0  0  0  0  0  0  0  0  0  0  0
   64.2280   33.0430   48.3380 C   0  0  0  0  0  0  0  0  0  0  0  0
   63.5950   33.8200   47.1600 C   0  0  0  0  0  0  0  0  0  0  0  0
   62.1560   33.4540   47.2410 C   0  0  0  0  0  0  0  0  0  0  0  0
   61.1280   33.8290   46.3750 C   0  0  0  0  0  0  0  0  0  0  0  0
   59.8330   33.3360   46.6120 C   0  0  0  0  0  0  0  0  0  0  0  0
   58.5040   33.7830   45.5460 S   0  0  0  0  0  0  0  0  0  0  0  0
   58.7890   35.1160   44.9120 O   0  0  0  0  0  0  0  0  0  0  0  0
   57.2400   33.9030   46.3480 O   0  0  0  0  0  0  0  0  0  0  0  0
   58.2750   32.5720   44.3220 N   0  0  0  0  0  0  0  0  0  0  0  0
   56.9950   31.8980   44.5150 C   0  0  0  0  0  0  0  0  0  0  0  0
   56.9720   30.5830   43.7340 C   0  0  0  0  0  0  0  0  0  0  0  0
   55.7960   29.7270   44.1030 C   0  0  0  0  0  0  0  0  0  0  0  0
   54.7810   29.6920   43.3550 O   0  0  0  0  0  0  0  0  0  0  0  0
   55.8680   28.8950   45.2580 N   0  0  0  0  0  0  0  0  0  0  0  0
   56.9750   28.0360   45.5560 C   0  0  0  0  0  0  0  0  0  0  0  0
   58.2820   28.5610   45.5520 C   0  0  0  0  0  0  0  0  0  0  0  0
   59.3870   27.7340   45.8340 C   0  0  0  0  0  0  0  0  0  0  0  0
   59.1990   26.3780   46.1510 C   0  0  0  0  0  0  0  0  0  0  0  0
   57.8980   25.8850   46.1740 C   0  0  0  0  0  0  0  0  0  0  0  0
   56.8120   26.6820   45.8880 C   0  0  0  0  0  0  0  0  0  0  0  0
   55.6190   25.8560   46.0970 C   0  0  0  0  0  0  0  0  0  0  0  0
   54.4310   26.2460   45.9810 O   0  0  0  0  0  0  0  0  0  0  0  0
   55.9690   24.5280   46.4930 N   0  0  0  0  0  0  0  0  0  0  0  0
   57.3950   24.5670   46.5320 C   0  0  0  0  0  0  0  0  0  0  0  0
   58.1090   23.5810   46.8540 O   0  0  0  0  0  0  0  0  0  0  0  0
   59.6010   32.4770   47.7080 C   0  0  0  0  0  0  0  0  0  0  0  0
   60.6510   32.1210   48.5670 C   0  0  0  0  0  0  0  0  0  0  0  0
   61.9250   32.6430   48.3180 C   0  0  0  0  0  0  0  0  0  0  0  0
  1  2  1  0
  2  3  1  0
  3  4  2  0
  3  5  1  0
  5  6  1  0
  6  7  1  0
  7  8  1  0
  8  9  2  0
  9 10  1  0
 10 11  1  0
 11 12  2  0
 11 13  2  0
 11 14  1  0
 14 15  1  0
 15 16  1  0
 16 17  1  0
 17 18  2  0
 17 19  1  0
 19 20  1  0
 20 21  2  0
 21 22  1  0
 22 23  2  0
 23 24  1  0
 24 25  2  0
 25 26  1  0
 26 27  2  0
 26 28  1  0
 28 29  1  0
 29 30  2  0
 10 31  2  0
 31 32  1  0
 32 33  2  0
 33  5  1  0
 33  8  1  0
 25 20  1  0
 29 24  1  0
M  CHG  3  14  -1  19  -1  28  -1
M  END
>  <UniqueID>  (382) 
9

>  <SMILES>  (382) 
CCC(=O)N1CCc2cc(S(=O)(=O)[N-]CCC(=O)[N-]c3cccc4c3C(=O)[N-]C4=O)ccc21

>  <Energy>  (382) 
101.05360499030681

>  <Genealogy>  (382) 
CCC(=O)N1CCc2cc(S(=O)(=O)[N-]CCC(=O)[N-]c3cccc4c3C(=O)[N-]C4=O)ccc21 (protonated)
CCC(=O)N1CCc2cc(S(=O)(=O)[N-]CCC(=O)[N-]c3cccc4c3C(=O)[N-]C4=O)ccc21 (3D coordinates assigned)
CCC(=O)N1CCc2cc(S(=O)(=O)[N-]CCC(=O)[N-]c3cccc4c3C(=O)[N-]C4=O)ccc21 (nonaromatic ring conformer: 101.05360499030681 kcal/mol)

>  <smiles>  (382) 
CCC(=O)N1CCc2cc(S(=O)(=O)NCCC(=O)Nc3cccc4c3C(=O)NC4=O)ccc21

>  <score_type>  (382) 
oracle

>  <origin>  (382) 
adg

>  <m_score__min__energy>  (382) 
-14.81

>  <m_primary>  (382) 
energy

$$$$
22:0
     RDKit          3D

 26 30  0  0  0  0  0  0  0  0999 V2000
   53.2500   31.3440   52.2060 C   0  0  0  0  0  0  0  0  0  0  0  0
   52.3190   31.3330   51.0590 C   0  0  0  0  0  0  0  0  0  0  0  0
   52.3020   30.4260   50.0670 N   0  0  0  0  0  0  0  0  0  0  0  0
   51.2920   30.8450   49.2720 C   0  0  0  0  0  0  0  0  0  0  0  0
   50.9650   30.2430   48.2170 O   0  0  0  0  0  0  0  0  0  0  0  0
   50.6610   31.9580   49.7000 N   0  0  0  0  0  0  0  0  0  0  0  0
   51.3240   32.2540   50.8290 C   0  0  0  0  0  0  0  0  0  0  0  0
   51.0250   33.3470   51.6350 O   0  0  0  0  0  0  0  0  0  0  0  0
   54.1560   30.3900   52.4800 C   0  0  0  0  0  0  0  0  0  0  0  0
   53.9730   29.0720   52.8960 C   0  0  0  0  0  0  0  0  0  0  0  0
   55.1820   28.4890   53.0620 N   0  0  0  0  0  0  0  0  0  0  0  0
   56.1260   29.3750   52.7730 N   0  0  0  0  0  0  0  0  0  0  0  0
   57.4960   29.2770   52.7840 C   0  0  0  0  0  0  0  0  0  0  0  0
   58.1590   28.2070   53.1270 N   0  0  0  0  0  0  0  0  0  0  0  0
   58.5380   27.7380   54.4530 C   0  0  0  0  0  0  0  0  0  0  0  0
   57.3740   27.8020   55.4250 C   0  0  0  0  0  0  0  0  0  0  0  0
   58.5050   28.8090   55.5300 C   0  0  0  0  0  0  0  0  0  0  0  0
   58.2120   30.3760   52.4160 N   0  0  0  0  0  0  0  0  0  0  0  0
   57.5920   31.5360   52.0580 C   0  0  0  0  0  0  0  0  0  0  0  0
   58.5690   32.9580   51.5770 S   0  0  0  0  0  0  0  0  0  0  0  0
   59.6710   32.0240   50.4600 C   0  0  0  0  0  0  0  0  0  0  0  0
   58.8640   31.3550   49.3410 C   0  0  0  0  0  0  0  0  0  0  0  0
   59.6910   30.6370   48.2840 C   0  0  0  0  0  0  0  0  0  0  0  0
   58.9140   29.8360   49.3180 C   0  0  0  0  0  0  0  0  0  0  0  0
   56.2350   31.6170   52.0530 N   0  0  0  0  0  0  0  0  0  0  0  0
   55.5270   30.5240   52.4180 C   0  0  0  0  0  0  0  0  0  0  0  0
  1  2  1  0
  2  3  1  0
  3  4  1  0
  4  5  2  0
  4  6  1  0
  6  7  1  0
  7  8  1  0
  1  9  2  0
  9 10  1  0
 10 11  2  0
 11 12  1  0
 12 13  1  0
 13 14  2  3
 14 15  1  0
 15 16  1  0
 16 17  1  0
 13 18  1  0
 18 19  2  0
 19 20  1  0
 20 21  1  0
 21 22  1  0
 22 23  1  0
 23 24  1  0
 19 25  1  0
 25 26  2  0
  7  2  2  0
 26  9  1  0
 26 12  1  0
 17 15  1  0
 24 22  1  0
M  CHG  4   3  -1   6  -1   8  -1  11   1
M  END
>  <UniqueID>  (383) 
23

>  <SMILES>  (383) 
O=c1[n-]c([O-])c(/C=c2\c[nH+]n3c(=NC4CC4)nc(SCC4CC4)nc23)[n-]1

>  <Energy>  (383) 
646.8216449744906

>  <Genealogy>  (383) 
O=c1[n-]c([O-])c(C=c2c[nH+]n3c(=NC4CC4)nc(SCC4CC4)nc23)[n-]1 (protonated)
O=c1[n-]c([O-])c(/C=c2\c[nH+]n3c(=NC4CC4)nc(SCC4CC4)nc23)[n-]1 (cis-trans isomerization)
O=c1[n-]c([O-])c(/C=c2\c[nH+]n3c(=NC4CC4)nc(SCC4CC4)nc23)[n-]1 (3D coordinates assigned)
O=c1[n-]c([O-])c(/C=c2\c[nH+]n3c(=NC4CC4)nc(SCC4CC4)nc23)[n-]1 (nonaromatic ring conformer: 646.8216449744906 kcal/mol)

>  <smiles>  (383) 
O=c1[nH]c(O)c(C=c2cnn3c(=NC4CC4)nc(SCC4CC4)nc23)[nH]1

>  <score_type>  (383) 
oracle

>  <origin>  (383) 
adg

>  <m_score__min__energy>  (383) 
-14.609999999999999

>  <m_primary>  (383) 
energy

$$$$
1:0
     RDKit          3D

 32 35  0  0  0  0  0  0  0  0999 V2000
   55.5300   21.3960   44.8260 N   0  0  0  0  0  0  0  0  0  0  0  0
   56.0500   22.4110   43.9700 C   0  0  0  0  0  0  0  0  0  0  0  0
   56.1620   22.1740   42.7360 O   0  0  0  0  0  0  0  0  0  0  0  0
   56.4520   23.7260   44.5190 C   0  0  0  0  0  0  0  0  0  0  0  0
   57.3600   24.5440   43.8210 C   0  0  0  0  0  0  0  0  0  0  0  0
   57.7420   25.7860   44.3380 C   0  0  0  0  0  0  0  0  0  0  0  0
   57.2380   26.2240   45.5760 C   0  0  0  0  0  0  0  0  0  0  0  0
   57.5800   27.5070   46.1280 N   0  0  0  0  0  0  0  0  0  0  0  0
   57.2480   28.6740   45.6540 C   0  0  0  0  0  0  0  0  0  0  0  0
   57.9440   29.7940   45.9820 N   0  0  0  0  0  0  0  0  0  0  0  0
   57.5750   31.0090   45.4980 C   0  0  0  0  0  0  0  0  0  0  0  0
   58.3520   32.2230   45.8520 C   0  0  0  0  0  0  0  0  0  0  0  0
   58.0850   33.4520   45.2210 C   0  0  0  0  0  0  0  0  0  0  0  0
   58.8240   34.5910   45.5470 C   0  0  0  0  0  0  0  0  0  0  0  0
   59.8290   34.5250   46.5130 C   0  0  0  0  0  0  0  0  0  0  0  0
   60.0950   33.3130   47.1750 C   0  0  0  0  0  0  0  0  0  0  0  0
   61.1330   33.1960   48.1590 N   0  0  0  0  0  0  0  0  0  0  0  0
   61.0310   33.5130   49.5540 C   0  0  0  0  0  0  0  0  0  0  0  0
   61.9190   34.2150   50.1100 O   0  0  0  0  0  0  0  0  0  0  0  0
   59.8530   33.0610   50.3320 C   0  0  0  0  0  0  0  0  0  0  0  0
   59.2290   31.8330   50.0430 C   0  0  0  0  0  0  0  0  0  0  0  0
   58.1190   31.4100   50.7810 C   0  0  0  0  0  0  0  0  0  0  0  0
   57.6200   32.2060   51.8140 C   0  0  0  0  0  0  0  0  0  0  0  0
   58.2300   33.4260   52.1120 C   0  0  0  0  0  0  0  0  0  0  0  0
   59.3400   33.8540   51.3770 C   0  0  0  0  0  0  0  0  0  0  0  0
   59.3690   32.1670   46.8250 C   0  0  0  0  0  0  0  0  0  0  0  0
   56.4890   31.0970   44.6860 N   0  0  0  0  0  0  0  0  0  0  0  0
   55.7810   29.9850   44.3650 C   0  0  0  0  0  0  0  0  0  0  0  0
   54.7740   30.0750   43.6170 O   0  0  0  0  0  0  0  0  0  0  0  0
   56.1590   28.7770   44.8520 N   0  0  0  0  0  0  0  0  0  0  0  0
   56.3100   25.4280   46.2550 C   0  0  0  0  0  0  0  0  0  0  0  0
   55.9270   24.1860   45.7400 C   0  0  0  0  0  0  0  0  0  0  0  0
  1  2  1  0
  2  3  2  0
  2  4  1  0
  4  5  2  0
  5  6  1  0
  6  7  2  0
  7  8  1  0
  8  9  2  0
  9 10  1  0
 10 11  1  0
 11 12  1  0
 12 13  2  0
 13 14  1  0
 14 15  2  0
 15 16  1  0
 16 17  1  0
 17 18  1  0
 18 19  2  0
 18 20  1  0
 20 21  2  0
 21 22  1  0
 22 23  2  0
 23 24  1  0
 24 25  2  0
 16 26  2  0
 11 27  2  0
 27 28  1  0
 28 29  2  0
 28 30  1  0
  7 31  1  0
 31 32  2  0
 32  4  1  0
 30  9  1  0
 26 12  1  0
 25 20  1  0
M  CHG  4   1  -1  10  -1  17  -1  30  -1
M  END
>  <UniqueID>  (384) 
2

>  <SMILES>  (384) 
[NH-]C(=O)c1ccc(/N=c2\[n-]c(-c3cccc([N-]C(=O)c4ccccc4)c3)nc(=O)[n-]2)cc1

>  <Energy>  (384) 
63.926432620854605

>  <Genealogy>  (384) 
[NH-]C(=O)c1ccc(N=c2[n-]c(-c3cccc([N-]C(=O)c4ccccc4)c3)nc(=O)[n-]2)cc1 (protonated)
[NH-]C(=O)c1ccc(/N=c2\[n-]c(-c3cccc([N-]C(=O)c4ccccc4)c3)nc(=O)[n-]2)cc1 (cis-trans isomerization)
[NH-]C(=O)c1ccc(/N=c2\[n-]c(-c3cccc([N-]C(=O)c4ccccc4)c3)nc(=O)[n-]2)cc1 (3D coordinates assigned)
[NH-]C(=O)c1ccc(/N=c2\[n-]c(-c3cccc([N-]C(=O)c4ccccc4)c3)nc(=O)[n-]2)cc1 (optimized conformer: 63.926432620854605 kcal/mol)

>  <smiles>  (384) 
NC(=O)c1ccc(N=c2[nH]c(-c3cccc(NC(=O)c4ccccc4)c3)nc(=O)[nH]2)cc1

>  <score_type>  (384) 
oracle

>  <origin>  (384) 
adg

>  <m_score__min__energy>  (384) 
-15.43

>  <m_primary>  (384) 
energy

$$$$
40:0
     RDKit          3D

 27 29  0  0  0  0  0  0  0  0999 V2000
   58.2760   34.8490   47.0080 O   0  0  0  0  0  0  0  0  0  0  0  0
   58.7060   33.6740   46.8500 C   0  0  0  0  0  0  0  0  0  0  0  0
   59.5630   33.0830   47.8360 N   0  0  0  0  0  0  0  0  0  0  0  0
   60.9980   33.0640   47.8390 C   0  0  0  0  0  0  0  0  0  0  0  0
   61.7360   32.3450   48.7990 C   0  0  0  0  0  0  0  0  0  0  0  0
   63.1330   32.3210   48.7370 C   0  0  0  0  0  0  0  0  0  0  0  0
   63.8020   32.9930   47.7120 C   0  0  0  0  0  0  0  0  0  0  0  0
   63.0740   33.6870   46.7400 C   0  0  0  0  0  0  0  0  0  0  0  0
   63.7200   34.3190   45.7300 F   0  0  0  0  0  0  0  0  0  0  0  0
   61.6770   33.7110   46.7980 C   0  0  0  0  0  0  0  0  0  0  0  0
   58.3610   32.9210   45.6210 C   0  0  0  0  0  0  0  0  0  0  0  0
   58.5270   33.5090   44.3530 C   0  0  0  0  0  0  0  0  0  0  0  0
   58.1880   32.8020   43.1970 C   0  0  0  0  0  0  0  0  0  0  0  0
   57.6830   31.5040   43.2890 C   0  0  0  0  0  0  0  0  0  0  0  0
   57.5230   30.9000   44.5420 C   0  0  0  0  0  0  0  0  0  0  0  0
   56.8920   29.2590   44.6550 S   0  0  0  0  0  0  0  0  0  0  0  0
   55.4360   29.2810   45.0280 O   0  0  0  0  0  0  0  0  0  0  0  0
   57.0490   28.5790   43.3250 O   0  0  0  0  0  0  0  0  0  0  0  0
   57.7660   28.3680   45.8550 N   0  0  0  0  0  0  0  0  0  0  0  0
   57.6550   26.9520   46.0070 C   0  0  0  0  0  0  0  0  0  0  0  0
   58.9300   25.8570   46.1220 S   0  0  0  0  0  0  0  0  0  0  0  0
   57.8790   24.5480   46.2550 C   0  0  0  0  0  0  0  0  0  0  0  0
   58.2510   23.3520   46.3740 O   0  0  0  0  0  0  0  0  0  0  0  0
   56.5790   24.9120   46.2130 N   0  0  0  0  0  0  0  0  0  0  0  0
   56.4550   26.2580   46.0720 C   0  0  0  0  0  0  0  0  0  0  0  0
   55.2150   26.8840   45.9930 O   0  0  0  0  0  0  0  0  0  0  0  0
   57.8550   31.6100   45.7030 C   0  0  0  0  0  0  0  0  0  0  0  0
  1  2  2  0
  2  3  1  0
  3  4  1  0
  4  5  2  0
  5  6  1  0
  6  7  2  0
  7  8  1  0
  8  9  1  0
  8 10  2  0
  2 11  1  0
 11 12  2  0
 12 13  1  0
 13 14  2  0
 14 15  1  0
 15 16  1  0
 16 17  2  0
 16 18  2  0
 16 19  1  0
 19 20  1  0
 20 21  1  0
 21 22  1  0
 22 23  2  0
 22 24  1  0
 24 25  1  0
 25 26  1  0
 15 27  2  0
 10  4  1  0
 27 11  1  0
 25 20  2  0
M  CHG  3   3  -1  19  -1  24  -1
M  END
>  <UniqueID>  (385) 
39

>  <SMILES>  (385) 
O=C([N-]c1cccc(F)c1)c1cccc(S(=O)(=O)[N-]c2sc(=O)[n-]c2O)c1

>  <Energy>  (385) 
76.15309575816853

>  <Genealogy>  (385) 
O=C([N-]c1cccc(F)c1)c1cccc(S(=O)(=O)[N-]c2sc(=O)[n-]c2O)c1 (protonated)
O=C([N-]c1cccc(F)c1)c1cccc(S(=O)(=O)[N-]c2sc(=O)[n-]c2O)c1 (3D coordinates assigned)
O=C([N-]c1cccc(F)c1)c1cccc(S(=O)(=O)[N-]c2sc(=O)[n-]c2O)c1 (optimized conformer: 76.15309575816853 kcal/mol)

>  <smiles>  (385) 
O=C(Nc1cccc(F)c1)c1cccc(S(=O)(=O)Nc2sc(=O)[nH]c2O)c1

>  <score_type>  (385) 
oracle

>  <origin>  (385) 
adg

>  <m_score__min__energy>  (385) 
-14.02

>  <m_primary>  (385) 
energy

$$$$
49:0
     RDKit          3D

 27 29  0  0  0  0  0  0  0  0999 V2000
   59.3780   28.6440   48.9680 O   0  0  0  0  0  0  0  0  0  0  0  0
   59.1750   29.8390   48.6160 C   0  0  0  0  0  0  0  0  0  0  0  0
   59.3740   30.2390   47.2490 N   0  0  0  0  0  0  0  0  0  0  0  0
   58.5710   30.9760   46.5400 C   0  0  0  0  0  0  0  0  0  0  0  0
   57.5160   30.5060   45.8390 N   0  0  0  0  0  0  0  0  0  0  0  0
   56.8540   31.4660   45.1960 N   0  0  0  0  0  0  0  0  0  0  0  0
   57.3750   32.7010   45.3810 C   0  0  0  0  0  0  0  0  0  0  0  0
   58.7290   32.6410   46.3850 S   0  0  0  0  0  0  0  0  0  0  0  0
   58.7300   30.8350   49.6200 C   0  0  0  0  0  0  0  0  0  0  0  0
   59.2720   32.1340   49.6260 C   0  0  0  0  0  0  0  0  0  0  0  0
   58.8460   33.0750   50.5660 C   0  0  0  0  0  0  0  0  0  0  0  0
   57.8810   32.7340   51.5140 C   0  0  0  0  0  0  0  0  0  0  0  0
   57.3390   31.4400   51.5360 C   0  0  0  0  0  0  0  0  0  0  0  0
   56.2730   31.0850   52.5320 C   0  0  0  0  0  0  0  0  0  0  0  0
   55.8090   29.7260   52.2720 N   0  0  0  0  0  0  0  0  0  0  0  0
   54.1890   29.5330   52.8660 S   0  0  0  0  0  0  0  0  0  0  0  0
   53.8390   28.0700   52.8810 O   0  0  0  0  0  0  0  0  0  0  0  0
   54.0950   30.0610   54.2710 O   0  0  0  0  0  0  0  0  0  0  0  0
   53.0550   30.3810   51.8170 C   0  0  0  0  0  0  0  0  0  0  0  0
   52.6870   29.8410   50.5750 C   0  0  0  0  0  0  0  0  0  0  0  0
   51.7720   30.5130   49.7610 C   0  0  0  0  0  0  0  0  0  0  0  0
   51.2140   31.7250   50.1830 C   0  0  0  0  0  0  0  0  0  0  0  0
   50.3040   32.3890   49.3690 O   0  0  0  0  0  0  0  0  0  0  0  0
   51.5740   32.2650   51.4240 C   0  0  0  0  0  0  0  0  0  0  0  0
   51.0200   33.4670   51.8510 O   0  0  0  0  0  0  0  0  0  0  0  0
   52.4910   31.5920   52.2390 C   0  0  0  0  0  0  0  0  0  0  0  0
   57.7560   30.5000   50.5800 C   0  0  0  0  0  0  0  0  0  0  0  0
  1  2  2  0
  2  3  1  0
  3  4  2  3
  4  5  1  0
  5  6  1  0
  6  7  2  0
  7  8  1  0
  2  9  1  0
  9 10  2  0
 10 11  1  0
 11 12  2  0
 12 13  1  0
 13 14  1  0
 14 15  1  0
 15 16  1  0
 16 17  2  0
 16 18  2  0
 16 19  1  0
 19 20  2  0
 20 21  1  0
 21 22  2  0
 22 23  1  0
 22 24  1  0
 24 25  1  0
 24 26  2  0
 13 27  2  0
  8  4  1  0
 27  9  1  0
 26 19  1  0
M  CHG  4   5  -1  15  -1  23  -1  25  -1
M  END
>  <UniqueID>  (386) 
46

>  <SMILES>  (386) 
O=C(N=c1[n-]ncs1)c1cccc(C[N-]S(=O)(=O)c2ccc([O-])c([O-])c2)c1

>  <Energy>  (386) 
74.77175729954652

>  <Genealogy>  (386) 
O=C(N=c1[n-]ncs1)c1cccc(C[N-]S(=O)(=O)c2ccc([O-])c([O-])c2)c1 (protonated)
O=C(N=c1[n-]ncs1)c1cccc(C[N-]S(=O)(=O)c2ccc([O-])c([O-])c2)c1 (3D coordinates assigned)
O=C(N=c1[n-]ncs1)c1cccc(C[N-]S(=O)(=O)c2ccc([O-])c([O-])c2)c1 (optimized conformer: 74.77175729954652 kcal/mol)

>  <smiles>  (386) 
O=C(N=c1[nH]ncs1)c1cccc(CNS(=O)(=O)c2ccc(O)c(O)c2)c1

>  <score_type>  (386) 
oracle

>  <origin>  (386) 
adg

>  <m_score__min__energy>  (386) 
-18.710000000000001

>  <m_primary>  (386) 
energy

$$$$
4:0
     RDKit          3D

 24 25  0  0  0  0  0  0  0  0999 V2000
   58.2630   22.9460   45.6140 C   0  0  0  0  0  0  0  0  0  0  0  0
   56.9100   23.1730   46.0980 N   0  0  0  0  0  0  0  0  0  0  0  0
   56.5340   24.3400   46.8380 C   0  0  0  0  0  0  0  0  0  0  0  0
   55.7820   24.2170   47.8430 O   0  0  0  0  0  0  0  0  0  0  0  0
   57.0330   25.6860   46.4480 C   0  0  0  0  0  0  0  0  0  0  0  0
   58.4140   25.9540   46.5180 C   0  0  0  0  0  0  0  0  0  0  0  0
   58.9160   27.2070   46.1680 C   0  0  0  0  0  0  0  0  0  0  0  0
   58.0530   28.2100   45.7300 C   0  0  0  0  0  0  0  0  0  0  0  0
   56.6820   27.9670   45.6240 C   0  0  0  0  0  0  0  0  0  0  0  0
   55.8330   29.0300   45.1680 N   0  0  0  0  0  0  0  0  0  0  0  0
   56.0850   29.8530   44.0240 C   0  0  0  0  0  0  0  0  0  0  0  0
   55.9140   29.4020   42.8590 O   0  0  0  0  0  0  0  0  0  0  0  0
   56.6500   31.2260   44.2130 C   0  0  0  0  0  0  0  0  0  0  0  0
   58.1500   31.1860   44.5240 C   0  0  0  0  0  0  0  0  0  0  0  0
   58.4440   31.8310   45.8100 N   0  0  0  0  0  0  0  0  0  0  0  0
   58.7380   31.1500   46.9370 C   0  0  0  0  0  0  0  0  0  0  0  0
   58.8850   32.0190   47.9960 C   0  0  0  0  0  0  0  0  0  0  0  0
   58.6630   33.2860   47.5010 C   0  0  0  0  0  0  0  0  0  0  0  0
   58.3910   33.1460   46.1510 C   0  0  0  0  0  0  0  0  0  0  0  0
   58.0830   34.2890   45.2640 C   0  0  0  0  0  0  0  0  0  0  0  0
   56.9120   34.5190   44.8690 O   0  0  0  0  0  0  0  0  0  0  0  0
   59.1100   35.1260   44.8420 O   0  0  0  0  0  0  0  0  0  0  0  0
   56.1610   26.7160   46.0190 C   0  0  0  0  0  0  0  0  0  0  0  0
   54.7830   26.5200   46.0250 O   0  0  0  0  0  0  0  0  0  0  0  0
  1  2  1  0
  2  3  1  0
  3  4  2  0
  3  5  1  0
  5  6  2  0
  6  7  1  0
  7  8  2  0
  8  9  1  0
  9 10  1  0
 10 11  1  0
 11 12  2  0
 11 13  1  0
 13 14  1  0
 14 15  1  0
 15 16  1  0
 16 17  2  0
 17 18  1  0
 18 19  2  0
 19 20  1  0
 20 21  2  0
 20 22  1  0
  9 23  2  0
 23 24  1  0
 23  5  1  0
 19 15  1  0
M  CHG  4   2  -1  10  -1  22  -1  24  -1
M  END
>  <UniqueID>  (387) 
5

>  <SMILES>  (387) 
C[N-]C(=O)c1cccc([N-]C(=O)CCn2cccc2C(=O)[O-])c1[O-]

>  <Energy>  (387) 
66.56377364501778

>  <Genealogy>  (387) 
C[N-]C(=O)c1cccc([N-]C(=O)CCn2cccc2C(=O)[O-])c1[O-] (protonated)
C[N-]C(=O)c1cccc([N-]C(=O)CCn2cccc2C(=O)[O-])c1[O-] (3D coordinates assigned)
C[N-]C(=O)c1cccc([N-]C(=O)CCn2cccc2C(=O)[O-])c1[O-] (optimized conformer: 66.56377364501778 kcal/mol)

>  <smiles>  (387) 
CNC(=O)c1cccc(NC(=O)CCn2cccc2C(=O)O)c1O

>  <score_type>  (387) 
oracle

>  <origin>  (387) 
adg

>  <m_score__min__energy>  (387) 
-15.699999999999999

>  <m_primary>  (387) 
energy

$$$$
5:0
     RDKit          3D

 32 35  0  0  0  0  0  0  0  0999 V2000
   58.0600   31.1670   44.6970 C   0  0  0  0  0  0  0  0  0  0  0  0
   58.3380   30.1120   45.4670 C   0  0  0  0  0  0  0  0  0  0  0  0
   57.9700   28.8570   45.1510 N   0  0  0  0  0  0  0  0  0  0  0  0
   58.3840   28.0490   46.1470 C   0  0  0  0  0  0  0  0  0  0  0  0
   58.1280   26.7270   46.1320 C   0  0  0  0  0  0  0  0  0  0  0  0
   56.7850   26.1380   46.0650 C   0  0  0  0  0  0  0  0  0  0  0  0
   55.6210   26.7530   45.6320 C   0  0  0  0  0  0  0  0  0  0  0  0
   55.5260   28.0850   45.2500 O   0  0  0  0  0  0  0  0  0  0  0  0
   54.5680   25.9030   45.6180 N   0  0  0  0  0  0  0  0  0  0  0  0
   55.0890   24.7320   46.0350 C   0  0  0  0  0  0  0  0  0  0  0  0
   54.4070   23.5280   46.1860 C   0  0  0  0  0  0  0  0  0  0  0  0
   55.1340   22.4070   46.6250 C   0  0  0  0  0  0  0  0  0  0  0  0
   56.5250   22.5010   46.9040 C   0  0  0  0  0  0  0  0  0  0  0  0
   57.2530   21.3440   47.3530 N   0  0  0  0  0  0  0  0  0  0  0  0
   57.3150   21.0610   48.5670 O   0  0  0  0  0  0  0  0  0  0  0  0
   57.8860   20.5210   46.4490 O   0  0  0  0  0  0  0  0  0  0  0  0
   57.1820   23.7430   46.7380 C   0  0  0  0  0  0  0  0  0  0  0  0
   56.4300   24.8330   46.3040 C   0  0  0  0  0  0  0  0  0  0  0  0
   59.0490   28.8030   47.1240 C   0  0  0  0  0  0  0  0  0  0  0  0
   59.6890   28.2980   48.3880 C   0  0  0  0  0  0  0  0  0  0  0  0
   59.0150   30.1290   46.6810 C   0  0  0  0  0  0  0  0  0  0  0  0
   59.5050   31.3570   47.4140 C   0  0  0  0  0  0  0  0  0  0  0  0
   60.9720   31.6750   47.0910 C   0  0  0  0  0  0  0  0  0  0  0  0
   61.2320   33.1610   46.9940 C   0  0  0  0  0  0  0  0  0  0  0  0
   60.4510   33.8580   46.3570 O   0  0  0  0  0  0  0  0  0  0  0  0
   62.3720   33.7680   47.6610 N   0  0  0  0  0  0  0  0  0  0  0  0
   62.0690   33.9730   49.0990 C   0  0  0  0  0  0  0  0  0  0  0  0
   63.3560   34.0600   49.9280 C   0  0  0  0  0  0  0  0  0  0  0  0
   64.1100   32.7880   49.8780 N   0  0  0  0  0  0  0  0  0  0  0  0
   65.5290   33.0180   50.1880 C   0  0  0  0  0  0  0  0  0  0  0  0
   63.9480   32.0460   48.6010 C   0  0  0  0  0  0  0  0  0  0  0  0
   63.6100   32.9770   47.4210 C   0  0  0  0  0  0  0  0  0  0  0  0
  1  2  2  0
  2  3  1  0
  3  4  1  0
  4  5  2  3
  5  6  1  0
  6  7  2  0
  7  8  1  0
  7  9  1  0
  9 10  1  0
 10 11  2  0
 11 12  1  0
 12 13  2  0
 13 14  1  0
 14 15  2  0
 14 16  1  0
 13 17  1  0
 17 18  2  0
  4 19  1  0
 19 20  1  0
 19 21  2  0
 21 22  1  0
 22 23  1  0
 23 24  1  0
 24 25  2  0
 24 26  1  0
 26 27  1  0
 27 28  1  0
 28 29  1  0
 29 30  1  0
 29 31  1  0
 31 32  1  0
 21  2  1  0
 32 26  1  0
 18  6  1  0
 18 10  1  0
M  CHG  5   8  -1   9  -1  14   1  16  -1  26   1
M  END
>  <UniqueID>  (388) 
6

>  <SMILES>  (388) 
C=c1[nH]c(=Cc2c([O-])[n-]c3ccc([N+](=O)[O-])cc23)c(C)c1CCC(=O)[NH+]1CCN(C)CC1

>  <Energy>  (388) 
137.62612255328187

>  <Genealogy>  (388) 
C=c1[nH]c(=Cc2c([O-])[n-]c3ccc([N+](=O)[O-])cc23)c(C)c1CCC(=O)[NH+]1CCN(C)CC1 (protonated)
C=c1[nH]c(=Cc2c([O-])[n-]c3ccc([N+](=O)[O-])cc23)c(C)c1CCC(=O)[NH+]1CCN(C)CC1 (3D coordinates assigned)
C=c1[nH]c(=Cc2c([O-])[n-]c3ccc([N+](=O)[O-])cc23)c(C)c1CCC(=O)[NH+]1CCN(C)CC1 (nonaromatic ring conformer: 137.62612255328187 kcal/mol)

>  <smiles>  (388) 
C=c1[nH]c(=Cc2c(O)[nH]c3ccc([N+](=O)[O-])cc23)c(C)c1CCC(=O)N1CCN(C)CC1

>  <score_type>  (388) 
oracle

>  <origin>  (388) 
adg

>  <m_score__min__energy>  (388) 
-14.380000000000001

>  <m_primary>  (388) 
energy

$$$$
12:0
     RDKit          3D

 27 29  0  0  0  0  0  0  0  0999 V2000
   55.2130   29.6500   44.9180 N   0  0  0  0  0  0  0  0  0  0  0  0
   56.6260   30.1450   44.0530 S   0  0  0  0  0  0  0  0  0  0  0  0
   56.2110   30.7760   42.7540 O   0  0  0  0  0  0  0  0  0  0  0  0
   57.4620   28.9260   43.7780 O   0  0  0  0  0  0  0  0  0  0  0  0
   57.5500   31.3120   45.0130 C   0  0  0  0  0  0  0  0  0  0  0  0
   57.2930   32.6830   44.8380 C   0  0  0  0  0  0  0  0  0  0  0  0
   57.9620   33.6350   45.6080 C   0  0  0  0  0  0  0  0  0  0  0  0
   58.8940   33.2340   46.5640 C   0  0  0  0  0  0  0  0  0  0  0  0
   59.1700   31.8770   46.7440 C   0  0  0  0  0  0  0  0  0  0  0  0
   58.5160   30.9070   45.9670 C   0  0  0  0  0  0  0  0  0  0  0  0
   58.8690   29.4890   46.1740 C   0  0  0  0  0  0  0  0  0  0  0  0
   58.3370   28.7760   47.2570 C   0  0  0  0  0  0  0  0  0  0  0  0
   58.6670   27.4710   47.4420 N   0  0  0  0  0  0  0  0  0  0  0  0
   59.5200   26.8140   46.6050 C   0  0  0  0  0  0  0  0  0  0  0  0
   59.8140   25.5620   46.7960 N   0  0  0  0  0  0  0  0  0  0  0  0
   59.3150   24.4530   45.9820 C   0  0  0  0  0  0  0  0  0  0  0  0
   57.8120   24.3960   46.0340 C   0  0  0  0  0  0  0  0  0  0  0  0
   57.1580   23.1550   46.0780 C   0  0  0  0  0  0  0  0  0  0  0  0
   55.7620   23.0910   46.0990 C   0  0  0  0  0  0  0  0  0  0  0  0
   54.9960   24.2730   46.0720 C   0  0  0  0  0  0  0  0  0  0  0  0
   53.5920   24.2570   46.0910 O   0  0  0  0  0  0  0  0  0  0  0  0
   52.7740   24.0870   44.9380 C   0  0  0  0  0  0  0  0  0  0  0  0
   55.6520   25.5120   46.0250 C   0  0  0  0  0  0  0  0  0  0  0  0
   54.9130   26.6890   45.9950 O   0  0  0  0  0  0  0  0  0  0  0  0
   57.0480   25.5730   46.0050 C   0  0  0  0  0  0  0  0  0  0  0  0
   60.0880   27.4980   45.5250 C   0  0  0  0  0  0  0  0  0  0  0  0
   59.7640   28.8390   45.3130 C   0  0  0  0  0  0  0  0  0  0  0  0
  1  2  1  0
  2  3  2  0
  2  4  2  0
  2  5  1  0
  5  6  2  0
  6  7  1  0
  7  8  2  0
  8  9  1  0
  9 10  2  0
 10 11  1  0
 11 12  2  0
 12 13  1  0
 13 14  1  0
 14 15  2  0
 15 16  1  0
 16 17  1  0
 17 18  2  0
 18 19  1  0
 19 20  2  0
 20 21  1  0
 21 22  1  0
 20 23  1  0
 23 24  1  0
 23 25  2  0
 14 26  1  0
 26 27  2  0
 10  5  1  0
 27 11  1  0
 25 17  1  0
M  CHG  3   1  -1  13  -1  24  -1
M  END
>  <UniqueID>  (389) 
13

>  <SMILES>  (389) 
COc1ccc(C/N=c2/ccc(-c3ccccc3S([NH-])(=O)=O)c[n-]2)cc1[O-]

>  <Energy>  (389) 
53.43847985249806

>  <Genealogy>  (389) 
COc1ccc(CN=c2ccc(-c3ccccc3S([NH-])(=O)=O)c[n-]2)cc1[O-] (protonated)
COc1ccc(C/N=c2/ccc(-c3ccccc3S([NH-])(=O)=O)c[n-]2)cc1[O-] (cis-trans isomerization)
COc1ccc(C/N=c2/ccc(-c3ccccc3S([NH-])(=O)=O)c[n-]2)cc1[O-] (3D coordinates assigned)
COc1ccc(C/N=c2/ccc(-c3ccccc3S([NH-])(=O)=O)c[n-]2)cc1[O-] (optimized conformer: 53.43847985249806 kcal/mol)

>  <smiles>  (389) 
COc1ccc(CN=c2ccc(-c3ccccc3S(N)(=O)=O)c[nH]2)cc1O

>  <score_type>  (389) 
oracle

>  <origin>  (389) 
adg

>  <m_score__min__energy>  (389) 
-16.059999999999999

>  <m_primary>  (389) 
energy

$$$$
40:0
     RDKit          3D

 33 36  0  0  0  0  0  0  0  0999 V2000
   52.0770   29.4660   54.2230 C   0  0  0  0  0  0  0  0  0  0  0  0
   53.2890   29.8730   53.4260 C   0  0  0  0  0  0  0  0  0  0  0  0
   54.5660   29.6040   53.9450 C   0  0  0  0  0  0  0  0  0  0  0  0
   55.7150   29.9690   53.2420 C   0  0  0  0  0  0  0  0  0  0  0  0
   55.6080   30.6290   52.0090 C   0  0  0  0  0  0  0  0  0  0  0  0
   56.7620   30.9990   51.2400 N   0  0  0  0  0  0  0  0  0  0  0  0
   58.1280   30.6620   51.5240 C   0  0  0  0  0  0  0  0  0  0  0  0
   58.6850   31.1250   52.5570 O   0  0  0  0  0  0  0  0  0  0  0  0
   58.9080   29.8090   50.5880 C   0  0  0  0  0  0  0  0  0  0  0  0
   58.5380   29.7600   49.2290 C   0  0  0  0  0  0  0  0  0  0  0  0
   59.2500   28.9680   48.3150 C   0  0  0  0  0  0  0  0  0  0  0  0
   58.8110   28.8930   46.8770 C   0  0  0  0  0  0  0  0  0  0  0  0
   58.8980   30.2100   46.2550 N   0  0  0  0  0  0  0  0  0  0  0  0
   57.8420   30.8940   45.5720 C   0  0  0  0  0  0  0  0  0  0  0  0
   56.7850   30.3410   45.1660 O   0  0  0  0  0  0  0  0  0  0  0  0
   58.1600   32.3120   45.4490 C   0  0  0  0  0  0  0  0  0  0  0  0
   57.4430   33.3600   44.8740 C   0  0  0  0  0  0  0  0  0  0  0  0
   58.0020   34.6490   44.9250 C   0  0  0  0  0  0  0  0  0  0  0  0
   59.2500   34.8630   45.5500 C   0  0  0  0  0  0  0  0  0  0  0  0
   59.9510   33.7900   46.1290 C   0  0  0  0  0  0  0  0  0  0  0  0
   59.3790   32.5220   46.0600 C   0  0  0  0  0  0  0  0  0  0  0  0
   59.8400   31.2380   46.5770 C   0  0  0  0  0  0  0  0  0  0  0  0
   60.9010   31.0500   47.2270 O   0  0  0  0  0  0  0  0  0  0  0  0
   60.3310   28.1990   48.7650 C   0  0  0  0  0  0  0  0  0  0  0  0
   60.7100   28.2400   50.1070 C   0  0  0  0  0  0  0  0  0  0  0  0
   60.0100   29.0350   51.0190 C   0  0  0  0  0  0  0  0  0  0  0  0
   60.4190   29.0300   52.3490 O   0  0  0  0  0  0  0  0  0  0  0  0
   54.3390   30.8830   51.4760 C   0  0  0  0  0  0  0  0  0  0  0  0
   53.1740   30.5270   52.1750 C   0  0  0  0  0  0  0  0  0  0  0  0
   51.5960   30.8900   51.4550 S   0  0  0  0  0  0  0  0  0  0  0  0
   51.4160   32.5880   51.1880 N   0  0  0  0  0  0  0  0  0  0  0  0
   51.4740   30.1820   50.1350 O   0  0  0  0  0  0  0  0  0  0  0  0
   50.4980   30.4340   52.3750 O   0  0  0  0  0  0  0  0  0  0  0  0
  1  2  1  0
  2  3  2  0
  3  4  1  0
  4  5  2  0
  5  6  1  0
  6  7  1  0
  7  8  2  0
  7  9  1  0
  9 10  2  0
 10 11  1  0
 11 12  1  0
 12 13  1  0
 13 14  1  0
 14 15  2  0
 14 16  1  0
 16 17  2  0
 17 18  1  0
 18 19  2  0
 19 20  1  0
 20 21  2  0
 21 22  1  0
 22 23  2  0
 11 24  2  0
 24 25  1  0
 25 26  2  0
 26 27  1  0
  5 28  1  0
 28 29  2  0
 29 30  1  0
 30 31  1  0
 30 32  2  0
 30 33  2  0
 29  2  1  0
 26  9  1  0
 22 13  1  0
 21 16  1  0
M  CHG  3   6  -1  27  -1  31  -1
M  END
>  <UniqueID>  (390) 
38

>  <SMILES>  (390) 
Cc1ccc([N-]C(=O)c2cc(CN3C(=O)c4ccccc4C3=O)ccc2[O-])cc1S([NH-])(=O)=O

>  <Energy>  (390) 
91.77913006452737

>  <Genealogy>  (390) 
Cc1ccc([N-]C(=O)c2cc(CN3C(=O)c4ccccc4C3=O)ccc2[O-])cc1S([NH-])(=O)=O (protonated)
Cc1ccc([N-]C(=O)c2cc(CN3C(=O)c4ccccc4C3=O)ccc2[O-])cc1S([NH-])(=O)=O (3D coordinates assigned)
Cc1ccc([N-]C(=O)c2cc(CN3C(=O)c4ccccc4C3=O)ccc2[O-])cc1S([NH-])(=O)=O (nonaromatic ring conformer: 91.77913006452737 kcal/mol)

>  <smiles>  (390) 
Cc1ccc(NC(=O)c2cc(CN3C(=O)c4ccccc4C3=O)ccc2O)cc1S(N)(=O)=O

>  <score_type>  (390) 
oracle

>  <origin>  (390) 
adg

>  <m_score__min__energy>  (390) 
-15.67

>  <m_primary>  (390) 
energy

$$$$
70:0
     RDKit          3D

 29 31  0  0  0  0  0  0  0  0999 V2000
   60.7640   26.4820   50.3620 O   0  0  0  0  0  0  0  0  0  0  0  0
   60.6630   27.1430   49.2960 C   0  0  0  0  0  0  0  0  0  0  0  0
   60.8480   26.4680   48.0430 N   0  0  0  0  0  0  0  0  0  0  0  0
   60.4960   27.0010   46.7280 C   0  0  0  0  0  0  0  0  0  0  0  0
   59.0180   26.9210   46.5060 C   0  0  0  0  0  0  0  0  0  0  0  0
   58.3520   27.9850   45.9900 N   0  0  0  0  0  0  0  0  0  0  0  0
   57.0040   27.9610   45.7970 C   0  0  0  0  0  0  0  0  0  0  0  0
   56.3570   29.1530   45.2100 C   0  0  0  0  0  0  0  0  0  0  0  0
   55.1910   29.0510   44.7420 O   0  0  0  0  0  0  0  0  0  0  0  0
   57.0240   30.4210   45.1850 N   0  0  0  0  0  0  0  0  0  0  0  0
   58.0960   30.7900   46.1030 C   0  0  0  0  0  0  0  0  0  0  0  0
   58.5080   32.2190   45.8760 C   0  0  0  0  0  0  0  0  0  0  0  0
   59.6980   32.7060   46.4420 C   0  0  0  0  0  0  0  0  0  0  0  0
   60.0720   34.0420   46.2590 C   0  0  0  0  0  0  0  0  0  0  0  0
   59.2580   34.9000   45.5120 C   0  0  0  0  0  0  0  0  0  0  0  0
   59.6180   36.1950   45.3410 F   0  0  0  0  0  0  0  0  0  0  0  0
   58.0700   34.4240   44.9490 C   0  0  0  0  0  0  0  0  0  0  0  0
   57.6940   33.0890   45.1300 C   0  0  0  0  0  0  0  0  0  0  0  0
   56.2870   26.8020   46.1550 C   0  0  0  0  0  0  0  0  0  0  0  0
   54.9080   26.7160   45.9950 O   0  0  0  0  0  0  0  0  0  0  0  0
   56.9910   25.7190   46.6880 C   0  0  0  0  0  0  0  0  0  0  0  0
   56.3850   24.6680   47.0220 O   0  0  0  0  0  0  0  0  0  0  0  0
   58.3360   25.7990   46.8510 N   0  0  0  0  0  0  0  0  0  0  0  0
   60.4060   28.5940   49.3740 C   0  0  0  0  0  0  0  0  0  0  0  0
   61.4140   29.4790   49.7870 C   0  0  0  0  0  0  0  0  0  0  0  0
   61.1480   30.8480   49.8900 C   0  0  0  0  0  0  0  0  0  0  0  0
   59.8810   31.3400   49.5690 C   0  0  0  0  0  0  0  0  0  0  0  0
   58.8820   30.4680   49.1270 C   0  0  0  0  0  0  0  0  0  0  0  0
   59.1450   29.1000   49.0220 C   0  0  0  0  0  0  0  0  0  0  0  0
  1  2  2  0
  2  3  1  0
  3  4  1  0
  4  5  1  0
  5  6  2  0
  6  7  1  0
  7  8  1  0
  8  9  2  0
  8 10  1  0
 10 11  1  0
 11 12  1  0
 12 13  2  0
 13 14  1  0
 14 15  2  0
 15 16  1  0
 15 17  1  0
 17 18  2  0
  7 19  2  0
 19 20  1  0
 19 21  1  0
 21 22  2  0
 21 23  1  0
  2 24  1  0
 24 25  2  0
 25 26  1  0
 26 27  2  0
 27 28  1  0
 28 29  2  0
 23  5  1  0
 29 24  1  0
 18 12  1  0
M  CHG  4   3  -1  10  -1  20  -1  23  -1
M  END
>  <UniqueID>  (391) 
68

>  <SMILES>  (391) 
O=C([N-]Cc1nc(C(=O)[N-]Cc2ccc(F)cc2)c([O-])c(=O)[n-]1)c1ccccc1

>  <Energy>  (391) 
47.27795446792234

>  <Genealogy>  (391) 
O=C([N-]Cc1nc(C(=O)[N-]Cc2ccc(F)cc2)c([O-])c(=O)[n-]1)c1ccccc1 (protonated)
O=C([N-]Cc1nc(C(=O)[N-]Cc2ccc(F)cc2)c([O-])c(=O)[n-]1)c1ccccc1 (3D coordinates assigned)
O=C([N-]Cc1nc(C(=O)[N-]Cc2ccc(F)cc2)c([O-])c(=O)[n-]1)c1ccccc1 (optimized conformer: 47.27795446792234 kcal/mol)

>  <smiles>  (391) 
O=C(NCc1nc(C(=O)NCc2ccc(F)cc2)c(O)c(=O)[nH]1)c1ccccc1

>  <score_type>  (391) 
oracle

>  <origin>  (391) 
adg

>  <m_score__min__energy>  (391) 
-16.140000000000001

>  <m_primary>  (391) 
energy

$$$$
73:0
     RDKit          3D

 25 27  0  0  0  0  0  0  0  0999 V2000
   58.3980   34.5890   45.8130 C   0  0  0  0  0  0  0  0  0  0  0  0
   57.6490   33.8990   44.9130 N   0  0  0  0  0  0  0  0  0  0  0  0
   57.4120   32.6340   45.3310 C   0  0  0  0  0  0  0  0  0  0  0  0
   56.7140   31.7610   44.6670 N   0  0  0  0  0  0  0  0  0  0  0  0
   57.2050   30.5240   44.1230 C   0  0  0  0  0  0  0  0  0  0  0  0
   58.4200   30.3820   43.8190 O   0  0  0  0  0  0  0  0  0  0  0  0
   56.2700   29.3710   43.9690 C   0  0  0  0  0  0  0  0  0  0  0  0
   55.9800   28.8170   45.2460 O   0  0  0  0  0  0  0  0  0  0  0  0
   56.4640   27.5900   45.6690 N   0  0  0  0  0  0  0  0  0  0  0  0
   55.7830   26.4680   45.9830 C   0  0  0  0  0  0  0  0  0  0  0  0
   54.4010   26.3410   45.9510 O   0  0  0  0  0  0  0  0  0  0  0  0
   56.6540   25.4570   46.3430 C   0  0  0  0  0  0  0  0  0  0  0  0
   57.9280   25.9900   46.2430 C   0  0  0  0  0  0  0  0  0  0  0  0
   57.7650   27.2980   45.8300 C   0  0  0  0  0  0  0  0  0  0  0  0
   58.7950   28.2000   45.6010 O   0  0  0  0  0  0  0  0  0  0  0  0
   58.1150   32.3150   46.8230 S   0  0  0  0  0  0  0  0  0  0  0  0
   58.7500   33.8700   46.9510 C   0  0  0  0  0  0  0  0  0  0  0  0
   59.5870   34.3710   48.0860 C   0  0  0  0  0  0  0  0  0  0  0  0
   61.0150   33.9140   47.9290 C   0  0  0  0  0  0  0  0  0  0  0  0
   61.6030   33.9260   46.6530 C   0  0  0  0  0  0  0  0  0  0  0  0
   62.9330   33.5360   46.4800 C   0  0  0  0  0  0  0  0  0  0  0  0
   63.6900   33.1300   47.5780 C   0  0  0  0  0  0  0  0  0  0  0  0
   63.1240   33.1200   48.8530 C   0  0  0  0  0  0  0  0  0  0  0  0
   61.7950   33.5180   49.0410 C   0  0  0  0  0  0  0  0  0  0  0  0
   61.1460   33.4990   50.6760 Cl  0  0  0  0  0  0  0  0  0  0  0  0
  1  2  1  0
  2  3  1  0
  3  4  2  0
  4  5  1  0
  5  6  2  0
  5  7  1  0
  7  8  1  0
  8  9  1  0
  9 10  1  0
 10 11  1  0
 10 12  2  0
 12 13  1  0
 13 14  2  0
 14 15  1  0
  3 16  1  0
 16 17  1  0
 17 18  1  0
 18 19  1  0
 19 20  2  0
 20 21  1  0
 21 22  2  0
 22 23  1  0
 23 24  2  0
 24 25  1  0
 17  1  2  0
 24 19  1  0
 14  9  1  0
M  CHG  3   2  -1  11  -1  15  -1
M  END
>  <UniqueID>  (392) 
71

>  <SMILES>  (392) 
O=C(COn1c([O-])ccc1[O-])/N=c1\[n-]cc(Cc2ccccc2Cl)s1

>  <Energy>  (392) 
97.4038084968815

>  <Genealogy>  (392) 
O=C(COn1c([O-])ccc1[O-])N=c1[n-]cc(Cc2ccccc2Cl)s1 (protonated)
O=C(COn1c([O-])ccc1[O-])/N=c1\[n-]cc(Cc2ccccc2Cl)s1 (cis-trans isomerization)
O=C(COn1c([O-])ccc1[O-])/N=c1\[n-]cc(Cc2ccccc2Cl)s1 (3D coordinates assigned)
O=C(COn1c([O-])ccc1[O-])/N=c1\[n-]cc(Cc2ccccc2Cl)s1 (optimized conformer: 97.4038084968815 kcal/mol)

>  <smiles>  (392) 
O=C(COn1c(O)ccc1O)N=c1[nH]cc(Cc2ccccc2Cl)s1

>  <score_type>  (392) 
oracle

>  <origin>  (392) 
adg

>  <m_score__min__energy>  (392) 
-15.390000000000001

>  <m_primary>  (392) 
energy

$$$$
0:0
     RDKit          3D

 24 26  0  0  0  0  0  0  0  0999 V2000
   58.5600   32.2080   49.6980 N   0  0  0  0  0  0  0  0  0  0  0  0
   59.6970   33.3090   49.0060 S   0  0  0  0  0  0  0  0  0  0  0  0
   59.6740   34.6030   49.7710 O   0  0  0  0  0  0  0  0  0  0  0  0
   61.0790   32.7230   49.0950 O   0  0  0  0  0  0  0  0  0  0  0  0
   59.2810   33.6030   47.3210 C   0  0  0  0  0  0  0  0  0  0  0  0
   59.5850   34.8330   46.7260 C   0  0  0  0  0  0  0  0  0  0  0  0
   59.2480   35.0690   45.3920 C   0  0  0  0  0  0  0  0  0  0  0  0
   58.5950   34.0840   44.6470 C   0  0  0  0  0  0  0  0  0  0  0  0
   58.2640   32.8470   45.2330 C   0  0  0  0  0  0  0  0  0  0  0  0
   57.5740   31.7830   44.4600 C   0  0  0  0  0  0  0  0  0  0  0  0
   57.4570   31.8440   43.0600 C   0  0  0  0  0  0  0  0  0  0  0  0
   56.8030   30.8170   42.3800 C   0  0  0  0  0  0  0  0  0  0  0  0
   56.2590   29.7440   43.0870 C   0  0  0  0  0  0  0  0  0  0  0  0
   56.3660   29.7180   44.4920 C   0  0  0  0  0  0  0  0  0  0  0  0
   55.8850   28.7430   45.2130 N   0  0  0  0  0  0  0  0  0  0  0  0
   56.5910   27.5730   45.6550 C   0  0  0  0  0  0  0  0  0  0  0  0
   57.9820   27.6330   45.8110 C   0  0  0  0  0  0  0  0  0  0  0  0
   58.6890   26.5190   46.2710 C   0  0  0  0  0  0  0  0  0  0  0  0
   58.0070   25.3440   46.6000 C   0  0  0  0  0  0  0  0  0  0  0  0
   56.6150   25.2860   46.4790 C   0  0  0  0  0  0  0  0  0  0  0  0
   55.9030   26.3990   46.0210 C   0  0  0  0  0  0  0  0  0  0  0  0
   54.5160   26.3410   45.9470 O   0  0  0  0  0  0  0  0  0  0  0  0
   57.0220   30.7280   45.1230 N   0  0  0  0  0  0  0  0  0  0  0  0
   58.6200   32.6160   46.5760 C   0  0  0  0  0  0  0  0  0  0  0  0
  1  2  1  0
  2  3  2  0
  2  4  2  0
  2  5  1  0
  5  6  2  0
  6  7  1  0
  7  8  2  0
  8  9  1  0
  9 10  1  0
 10 11  2  0
 11 12  1  0
 12 13  2  0
 13 14  1  0
 14 15  2  3
 15 16  1  0
 16 17  2  0
 17 18  1  0
 18 19  2  0
 19 20  1  0
 20 21  2  0
 21 22  1  0
 14 23  1  0
  9 24  2  0
 24  5  1  0
 23 10  1  0
 21 16  1  0
M  CHG  3   1  -1  22  -1  23  -1
M  END
>  <UniqueID>  (393) 
1

>  <SMILES>  (393) 
[NH-]S(=O)(=O)c1cccc(-c2cccc(=Nc3ccccc3[O-])[n-]2)c1

>  <Energy>  (393) 
53.716194498659476

>  <Genealogy>  (393) 
[NH-]S(=O)(=O)c1cccc(-c2cccc(=Nc3ccccc3[O-])[n-]2)c1 (protonated)
[NH-]S(=O)(=O)c1cccc(-c2cccc(=Nc3ccccc3[O-])[n-]2)c1 (3D coordinates assigned)
[NH-]S(=O)(=O)c1cccc(-c2cccc(=Nc3ccccc3[O-])[n-]2)c1 (optimized conformer: 53.716194498659476 kcal/mol)

>  <smiles>  (393) 
NS(=O)(=O)c1cccc(-c2cccc(=Nc3ccccc3O)[nH]2)c1

>  <score_type>  (393) 
oracle

>  <origin>  (393) 
adg

>  <m_score__min__energy>  (393) 
-16.359999999999999

>  <m_primary>  (393) 
energy

$$$$
6:0
     RDKit          3D

 30 33  0  0  0  0  0  0  0  0999 V2000
   59.6630   35.8320   45.6880 O   0  0  0  0  0  0  0  0  0  0  0  0
   59.5670   34.7830   46.3800 C   0  0  0  0  0  0  0  0  0  0  0  0
   58.3270   34.0630   46.4270 N   0  0  0  0  0  0  0  0  0  0  0  0
   58.1130   32.7040   46.0200 C   0  0  0  0  0  0  0  0  0  0  0  0
   58.4340   31.6060   46.8590 C   0  0  0  0  0  0  0  0  0  0  0  0
   58.2560   30.2750   46.4140 C   0  0  0  0  0  0  0  0  0  0  0  0
   58.5930   29.1180   47.2790 C   0  0  0  0  0  0  0  0  0  0  0  0
   58.6200   29.2670   48.5280 O   0  0  0  0  0  0  0  0  0  0  0  0
   58.9490   27.8410   46.7330 N   0  0  0  0  0  0  0  0  0  0  0  0
   58.0430   26.7800   46.3980 C   0  0  0  0  0  0  0  0  0  0  0  0
   58.5010   25.4900   46.0750 C   0  0  0  0  0  0  0  0  0  0  0  0
   57.5900   24.4810   45.7480 C   0  0  0  0  0  0  0  0  0  0  0  0
   56.2200   24.7540   45.7250 C   0  0  0  0  0  0  0  0  0  0  0  0
   55.7590   26.0420   46.0210 C   0  0  0  0  0  0  0  0  0  0  0  0
   54.3980   26.3160   45.9880 O   0  0  0  0  0  0  0  0  0  0  0  0
   56.6690   27.0530   46.3480 C   0  0  0  0  0  0  0  0  0  0  0  0
   57.7400   30.1070   45.1240 C   0  0  0  0  0  0  0  0  0  0  0  0
   57.4950   28.9420   44.4860 N   0  0  0  0  0  0  0  0  0  0  0  0
   57.0410   29.2610   43.2760 N   0  0  0  0  0  0  0  0  0  0  0  0
   57.0280   30.6080   43.2090 C   0  0  0  0  0  0  0  0  0  0  0  0
   56.6570   31.2590   42.1960 O   0  0  0  0  0  0  0  0  0  0  0  0
   57.4600   31.1620   44.3500 N   0  0  0  0  0  0  0  0  0  0  0  0
   57.6320   32.4510   44.7270 C   0  0  0  0  0  0  0  0  0  0  0  0
   60.7520   34.2650   47.1040 C   0  0  0  0  0  0  0  0  0  0  0  0
   60.7560   34.1920   48.5090 C   0  0  0  0  0  0  0  0  0  0  0  0
   61.8730   33.6980   49.1910 C   0  0  0  0  0  0  0  0  0  0  0  0
   62.9970   33.2720   48.4790 C   0  0  0  0  0  0  0  0  0  0  0  0
   64.0790   32.7940   49.1420 F   0  0  0  0  0  0  0  0  0  0  0  0
   63.0050   33.3380   47.0840 C   0  0  0  0  0  0  0  0  0  0  0  0
   61.8900   33.8310   46.3970 C   0  0  0  0  0  0  0  0  0  0  0  0
  1  2  2  0
  2  3  1  0
  3  4  1  0
  4  5  1  0
  5  6  2  0
  6  7  1  0
  7  8  2  0
  7  9  1  0
  9 10  1  0
 10 11  2  0
 11 12  1  0
 12 13  2  0
 13 14  1  0
 14 15  1  0
 14 16  2  0
  6 17  1  0
 17 18  2  0
 18 19  1  0
 19 20  1  0
 20 21  2  0
 20 22  1  0
 22 23  1  0
  2 24  1  0
 24 25  2  0
 25 26  1  0
 26 27  2  0
 27 28  1  0
 27 29  1  0
 29 30  2  0
 23  4  2  0
 30 24  1  0
 16 10  1  0
 22 17  1  0
M  CHG  4   3  -1   9  -1  15  -1  19  -1
M  END
>  <UniqueID>  (394) 
6

>  <SMILES>  (394) 
O=C([N-]c1cc(C(=O)[N-]c2cccc([O-])c2)c2n[n-]c(=O)n2c1)c1ccc(F)cc1

>  <Energy>  (394) 
98.8109111071532

>  <Genealogy>  (394) 
O=C([N-]c1cc(C(=O)[N-]c2cccc([O-])c2)c2n[n-]c(=O)n2c1)c1ccc(F)cc1 (protonated)
O=C([N-]c1cc(C(=O)[N-]c2cccc([O-])c2)c2n[n-]c(=O)n2c1)c1ccc(F)cc1 (3D coordinates assigned)
O=C([N-]c1cc(C(=O)[N-]c2cccc([O-])c2)c2n[n-]c(=O)n2c1)c1ccc(F)cc1 (optimized conformer: 98.8109111071532 kcal/mol)

>  <smiles>  (394) 
O=C(Nc1cc(C(=O)Nc2cccc(O)c2)c2n[nH]c(=O)n2c1)c1ccc(F)cc1

>  <score_type>  (394) 
oracle

>  <origin>  (394) 
adg

>  <m_score__min__energy>  (394) 
-15.52

>  <m_primary>  (394) 
energy

$$$$
26:0
     RDKit          3D

 24 26  0  0  0  0  0  0  0  0999 V2000
   57.0380   28.2500   43.6820 O   0  0  0  0  0  0  0  0  0  0  0  0
   56.6060   28.3750   44.8570 C   0  0  0  0  0  0  0  0  0  0  0  0
   55.7510   29.4810   45.1720 N   0  0  0  0  0  0  0  0  0  0  0  0
   55.5150   30.6170   44.2860 C   0  0  0  0  0  0  0  0  0  0  0  0
   56.8420   31.1390   43.7350 C   0  0  0  0  0  0  0  0  0  0  0  0
   57.5220   32.0370   44.7360 C   0  0  0  0  0  0  0  0  0  0  0  0
   58.0730   31.4960   45.9090 C   0  0  0  0  0  0  0  0  0  0  0  0
   58.6520   32.3330   46.8670 C   0  0  0  0  0  0  0  0  0  0  0  0
   58.6750   33.7170   46.6660 C   0  0  0  0  0  0  0  0  0  0  0  0
   59.2300   34.5270   47.6010 F   0  0  0  0  0  0  0  0  0  0  0  0
   58.1200   34.2640   45.5070 C   0  0  0  0  0  0  0  0  0  0  0  0
   57.5410   33.4290   44.5450 C   0  0  0  0  0  0  0  0  0  0  0  0
   56.9800   27.3720   45.8770 C   0  0  0  0  0  0  0  0  0  0  0  0
   56.0550   26.3730   46.2220 C   0  0  0  0  0  0  0  0  0  0  0  0
   54.7990   26.3340   45.6230 O   0  0  0  0  0  0  0  0  0  0  0  0
   56.4040   25.4010   47.1670 C   0  0  0  0  0  0  0  0  0  0  0  0
   55.5850   24.4960   47.4790 O   0  0  0  0  0  0  0  0  0  0  0  0
   57.6290   25.4250   47.7500 N   0  0  0  0  0  0  0  0  0  0  0  0
   58.5490   26.3810   47.4550 C   0  0  0  0  0  0  0  0  0  0  0  0
   59.7940   26.3630   48.0920 C   0  0  0  0  0  0  0  0  0  0  0  0
   60.7420   27.3510   47.8120 C   0  0  0  0  0  0  0  0  0  0  0  0
   60.4470   28.3650   46.8980 C   0  0  0  0  0  0  0  0  0  0  0  0
   59.2080   28.3930   46.2540 C   0  0  0  0  0  0  0  0  0  0  0  0
   58.2450   27.3940   46.5120 C   0  0  0  0  0  0  0  0  0  0  0  0
  1  2  2  0
  2  3  1  0
  3  4  1  0
  4  5  1  0
  5  6  1  0
  6  7  2  0
  7  8  1  0
  8  9  2  0
  9 10  1  0
  9 11  1  0
 11 12  2  0
  2 13  1  0
 13 14  2  0
 14 15  1  0
 14 16  1  0
 16 17  2  0
 16 18  1  0
 18 19  1  0
 19 20  2  0
 20 21  1  0
 21 22  2  0
 22 23  1  0
 23 24  2  0
 12  6  1  0
 24 13  1  0
 24 19  1  0
M  CHG  3   3  -1  15  -1  18  -1
M  END
>  <UniqueID>  (395) 
26

>  <SMILES>  (395) 
O=C([N-]CCc1ccc(F)cc1)c1c([O-])c(=O)[n-]c2ccccc12

>  <Energy>  (395) 
45.2722368351149

>  <Genealogy>  (395) 
O=C([N-]CCc1ccc(F)cc1)c1c([O-])c(=O)[n-]c2ccccc12 (protonated)
O=C([N-]CCc1ccc(F)cc1)c1c([O-])c(=O)[n-]c2ccccc12 (3D coordinates assigned)
O=C([N-]CCc1ccc(F)cc1)c1c([O-])c(=O)[n-]c2ccccc12 (optimized conformer: 45.2722368351149 kcal/mol)

>  <smiles>  (395) 
O=C(NCCc1ccc(F)cc1)c1c(O)c(=O)[nH]c2ccccc12

>  <score_type>  (395) 
oracle

>  <origin>  (395) 
adg

>  <m_score__min__energy>  (395) 
-14.6

>  <m_primary>  (395) 
energy

$$$$
43:0
     RDKit          3D

 32 35  0  0  0  0  0  0  0  0999 V2000
   59.4200   30.5220   46.9210 C   0  0  0  0  0  0  0  0  0  0  0  0
   59.0690   31.5910   46.1910 C   0  0  0  0  0  0  0  0  0  0  0  0
   58.3570   31.5970   44.9780 C   0  0  0  0  0  0  0  0  0  0  0  0
   57.7230   30.6090   44.3190 C   0  0  0  0  0  0  0  0  0  0  0  0
   57.8440   29.1720   44.6090 C   0  0  0  0  0  0  0  0  0  0  0  0
   59.2910   28.3090   44.6800 S   0  0  0  0  0  0  0  0  0  0  0  0
   58.5460   26.9260   45.2760 C   0  0  0  0  0  0  0  0  0  0  0  0
   59.1630   25.8580   45.5270 O   0  0  0  0  0  0  0  0  0  0  0  0
   57.2100   27.0980   45.4610 N   0  0  0  0  0  0  0  0  0  0  0  0
   56.3140   26.0920   45.9820 C   0  0  0  0  0  0  0  0  0  0  0  0
   55.0720   26.3130   46.0260 O   0  0  0  0  0  0  0  0  0  0  0  0
   56.8220   24.8200   46.4050 N   0  0  0  0  0  0  0  0  0  0  0  0
   56.8440   23.6250   45.6120 C   0  0  0  0  0  0  0  0  0  0  0  0
   56.7340   23.7430   44.2200 C   0  0  0  0  0  0  0  0  0  0  0  0
   56.7580   22.6050   43.4080 C   0  0  0  0  0  0  0  0  0  0  0  0
   56.9130   21.3410   43.9810 C   0  0  0  0  0  0  0  0  0  0  0  0
   57.0580   21.2140   45.3650 C   0  0  0  0  0  0  0  0  0  0  0  0
   57.0400   22.3490   46.1830 C   0  0  0  0  0  0  0  0  0  0  0  0
   57.2530   22.2010   47.5490 O   0  0  0  0  0  0  0  0  0  0  0  0
   56.8270   28.3640   45.1090 C   0  0  0  0  0  0  0  0  0  0  0  0
   55.5200   28.8220   45.2470 O   0  0  0  0  0  0  0  0  0  0  0  0
   58.3880   32.9040   44.5180 C   0  0  0  0  0  0  0  0  0  0  0  0
   59.0540   33.6490   45.4680 C   0  0  0  0  0  0  0  0  0  0  0  0
   59.2850   35.1260   45.3880 C   0  0  0  0  0  0  0  0  0  0  0  0
   59.4560   32.8580   46.4880 N   0  0  0  0  0  0  0  0  0  0  0  0
   60.2240   33.2950   47.6220 C   0  0  0  0  0  0  0  0  0  0  0  0
   61.6030   33.5210   47.4940 C   0  0  0  0  0  0  0  0  0  0  0  0
   62.3540   33.9290   48.6000 C   0  0  0  0  0  0  0  0  0  0  0  0
   61.7340   34.1110   49.8390 C   0  0  0  0  0  0  0  0  0  0  0  0
   60.3600   33.8800   49.9750 C   0  0  0  0  0  0  0  0  0  0  0  0
   59.7450   34.0570   51.2090 O   0  0  0  0  0  0  0  0  0  0  0  0
   59.6070   33.4720   48.8690 C   0  0  0  0  0  0  0  0  0  0  0  0
  1  2  2  0
  2  3  1  0
  3  4  2  3
  4  5  1  0
  5  6  1  0
  6  7  1  0
  7  8  2  0
  7  9  1  0
  9 10  1  0
 10 11  2  0
 10 12  1  0
 12 13  1  0
 13 14  2  0
 14 15  1  0
 15 16  2  0
 16 17  1  0
 17 18  2  0
 18 19  1  0
  9 20  1  0
 20 21  1  0
  3 22  1  0
 22 23  2  0
 23 24  1  0
 23 25  1  0
 25 26  1  0
 26 27  2  0
 27 28  1  0
 28 29  2  0
 29 30  1  0
 30 31  1  0
 30 32  2  0
 25  2  1  0
 32 26  1  0
 20  5  2  0
 18 13  1  0
M  CHG  4  12  -1  19  -1  21  -1  31  -1
M  END
>  <UniqueID>  (396) 
42

>  <SMILES>  (396) 
C=c1c(=Cc2sc(=O)n(C(=O)[N-]c3ccccc3[O-])c2[O-])cc(C)n1-c1cccc([O-])c1

>  <Energy>  (396) 
138.28455179163487

>  <Genealogy>  (396) 
C=c1c(=Cc2sc(=O)n(C(=O)[N-]c3ccccc3[O-])c2[O-])cc(C)n1-c1cccc([O-])c1 (protonated)
C=c1c(=Cc2sc(=O)n(C(=O)[N-]c3ccccc3[O-])c2[O-])cc(C)n1-c1cccc([O-])c1 (3D coordinates assigned)
C=c1c(=Cc2sc(=O)n(C(=O)[N-]c3ccccc3[O-])c2[O-])cc(C)n1-c1cccc([O-])c1 (optimized conformer: 138.28455179163487 kcal/mol)

>  <smiles>  (396) 
C=c1c(=Cc2sc(=O)n(C(=O)Nc3ccccc3O)c2O)cc(C)n1-c1cccc(O)c1

>  <score_type>  (396) 
oracle

>  <origin>  (396) 
adg

>  <m_score__min__energy>  (396) 
-18.129999999999999

>  <m_primary>  (396) 
energy

$$$$
59:0
     RDKit          3D

 28 30  0  0  0  0  0  0  0  0999 V2000
   58.4550   25.5770   46.4860 C   0  0  0  0  0  0  0  0  0  0  0  0
   58.0300   26.7460   45.9380 N   0  0  0  0  0  0  0  0  0  0  0  0
   56.7070   27.0220   45.7540 C   0  0  0  0  0  0  0  0  0  0  0  0
   56.3180   28.1480   45.2260 N   0  0  0  0  0  0  0  0  0  0  0  0
   56.9800   29.4220   45.3070 C   0  0  0  0  0  0  0  0  0  0  0  0
   56.4320   30.4600   44.8440 O   0  0  0  0  0  0  0  0  0  0  0  0
   58.3180   29.5180   45.9370 C   0  0  0  0  0  0  0  0  0  0  0  0
   59.4770   29.5930   45.1440 C   0  0  0  0  0  0  0  0  0  0  0  0
   60.7380   29.6860   45.7390 C   0  0  0  0  0  0  0  0  0  0  0  0
   60.8590   29.7030   47.1290 C   0  0  0  0  0  0  0  0  0  0  0  0
   59.7130   29.6250   47.9430 C   0  0  0  0  0  0  0  0  0  0  0  0
   59.7740   29.6380   49.3460 O   0  0  0  0  0  0  0  0  0  0  0  0
   59.1300   30.5880   50.1950 C   0  0  0  0  0  0  0  0  0  0  0  0
   59.4990   32.0160   49.7840 C   0  0  0  0  0  0  0  0  0  0  0  0
   60.9900   32.1270   49.4510 C   0  0  0  0  0  0  0  0  0  0  0  0
   61.1840   32.8380   48.1870 N   0  0  0  0  0  0  0  0  0  0  0  0
   60.2250   33.2450   47.4070 C   0  0  0  0  0  0  0  0  0  0  0  0
   59.1990   32.4140   47.0650 N   0  0  0  0  0  0  0  0  0  0  0  0
   58.1880   32.8150   46.2510 C   0  0  0  0  0  0  0  0  0  0  0  0
   58.1800   34.1160   45.7260 C   0  0  0  0  0  0  0  0  0  0  0  0
   57.0490   34.5820   44.8590 C   0  0  0  0  0  0  0  0  0  0  0  0
   59.2130   34.9920   46.0830 C   0  0  0  0  0  0  0  0  0  0  0  0
   60.2420   34.5570   46.9220 C   0  0  0  0  0  0  0  0  0  0  0  0
   58.4520   29.5360   47.3390 C   0  0  0  0  0  0  0  0  0  0  0  0
   55.7470   26.0740   46.1400 C   0  0  0  0  0  0  0  0  0  0  0  0
   54.3900   26.3240   45.9660 O   0  0  0  0  0  0  0  0  0  0  0  0
   56.1640   24.8650   46.7060 C   0  0  0  0  0  0  0  0  0  0  0  0
   57.5250   24.6130   46.8800 C   0  0  0  0  0  0  0  0  0  0  0  0
  1  2  1  0
  2  3  1  0
  3  4  2  0
  4  5  1  0
  5  6  2  0
  5  7  1  0
  7  8  2  0
  8  9  1  0
  9 10  2  0
 10 11  1  0
 11 12  1  0
 12 13  1  0
 13 14  1  0
 14 15  1  0
 15 16  1  0
 16 17  2  3
 17 18  1  0
 18 19  1  0
 19 20  2  0
 20 21  1  0
 20 22  1  0
 22 23  2  0
 11 24  2  0
  3 25  1  0
 25 26  1  0
 25 27  2  0
 27 28  1  0
 28  1  2  0
 24  7  1  0
 23 17  1  0
M  CHG  3   2  -1  18  -1  26  -1
M  END
>  <UniqueID>  (397) 
56

>  <SMILES>  (397) 
Cc1ccc(=NCCCOc2cccc(C(=O)/N=c3\[n-]cccc3[O-])c2)[n-]c1

>  <Energy>  (397) 
50.25358287428815

>  <Genealogy>  (397) 
Cc1ccc(=NCCCOc2cccc(C(=O)N=c3[n-]cccc3[O-])c2)[n-]c1 (protonated)
Cc1ccc(=NCCCOc2cccc(C(=O)/N=c3\[n-]cccc3[O-])c2)[n-]c1 (cis-trans isomerization)
Cc1ccc(=NCCCOc2cccc(C(=O)/N=c3\[n-]cccc3[O-])c2)[n-]c1 (3D coordinates assigned)
Cc1ccc(=NCCCOc2cccc(C(=O)/N=c3\[n-]cccc3[O-])c2)[n-]c1 (optimized conformer: 50.25358287428815 kcal/mol)

>  <smiles>  (397) 
Cc1ccc(=NCCCOc2cccc(C(=O)N=c3[nH]cccc3O)c2)[nH]c1

>  <score_type>  (397) 
oracle

>  <origin>  (397) 
adg

>  <m_score__min__energy>  (397) 
-14.289999999999999

>  <m_primary>  (397) 
energy

$$$$
81:0
     RDKit          3D

 22 23  0  0  0  0  0  0  0  0999 V2000
   59.9640   29.0060   46.1470 N   0  0  0  0  0  0  0  0  0  0  0  0
   58.9330   28.7970   45.6640 C   0  0  0  0  0  0  0  0  0  0  0  0
   57.6490   28.5370   45.0620 C   0  0  0  0  0  0  0  0  0  0  0  0
   57.3780   27.2920   44.6340 C   0  0  0  0  0  0  0  0  0  0  0  0
   57.1010   26.1280   45.5040 C   0  0  0  0  0  0  0  0  0  0  0  0
   58.1990   24.9470   46.0120 S   0  0  0  0  0  0  0  0  0  0  0  0
   57.0750   24.2020   47.0110 C   0  0  0  0  0  0  0  0  0  0  0  0
   57.3090   23.1790   47.7050 O   0  0  0  0  0  0  0  0  0  0  0  0
   55.8790   24.8260   47.0010 N   0  0  0  0  0  0  0  0  0  0  0  0
   55.8970   25.9020   46.1710 C   0  0  0  0  0  0  0  0  0  0  0  0
   54.7810   26.7140   46.0120 O   0  0  0  0  0  0  0  0  0  0  0  0
   56.6520   29.6250   45.0620 C   0  0  0  0  0  0  0  0  0  0  0  0
   55.4400   29.3520   44.8500 O   0  0  0  0  0  0  0  0  0  0  0  0
   57.0210   30.9880   45.3040 N   0  0  0  0  0  0  0  0  0  0  0  0
   57.8780   31.7780   44.4250 C   0  0  0  0  0  0  0  0  0  0  0  0
   58.5190   32.9480   45.1430 C   0  0  0  0  0  0  0  0  0  0  0  0
   58.6570   34.2080   44.5190 C   0  0  0  0  0  0  0  0  0  0  0  0
   59.2540   35.2760   45.1920 C   0  0  0  0  0  0  0  0  0  0  0  0
   59.7290   35.1060   46.4920 C   0  0  0  0  0  0  0  0  0  0  0  0
   59.6170   33.8650   47.1200 C   0  0  0  0  0  0  0  0  0  0  0  0
   59.0250   32.7830   46.4570 C   0  0  0  0  0  0  0  0  0  0  0  0
   58.9620   31.5600   47.1300 O   0  0  0  0  0  0  0  0  0  0  0  0
  1  2  3  0
  2  3  1  0
  3  4  2  3
  4  5  1  0
  5  6  1  0
  6  7  1  0
  7  8  2  0
  7  9  1  0
  9 10  1  0
 10 11  1  0
  3 12  1  0
 12 13  2  0
 12 14  1  0
 14 15  1  0
 15 16  1  0
 16 17  2  0
 17 18  1  0
 18 19  2  0
 19 20  1  0
 20 21  2  0
 21 22  1  0
 10  5  2  0
 21 16  1  0
M  CHG  3   9  -1  11  -1  14  -1
M  END
>  <UniqueID>  (398) 
76

>  <SMILES>  (398) 
N#CC(=Cc1sc(=O)[n-]c1[O-])C(=O)[N-]Cc1ccccc1O

>  <Energy>  (398) 
71.6133020106697

>  <Genealogy>  (398) 
N#CC(=Cc1sc(=O)[n-]c1[O-])C(=O)[N-]Cc1ccccc1O (protonated)
N#CC(=Cc1sc(=O)[n-]c1[O-])C(=O)[N-]Cc1ccccc1O (3D coordinates assigned)
N#CC(=Cc1sc(=O)[n-]c1[O-])C(=O)[N-]Cc1ccccc1O (optimized conformer: 71.6133020106697 kcal/mol)

>  <smiles>  (398) 
N#CC(=Cc1sc(=O)[nH]c1O)C(=O)NCc1ccccc1O

>  <score_type>  (398) 
oracle

>  <origin>  (398) 
adg

>  <m_score__min__energy>  (398) 
-14.81

>  <m_primary>  (398) 
energy

$$$$
82:0
     RDKit          3D

 27 29  0  0  0  0  0  0  0  0999 V2000
   58.9570   33.2170   47.0230 C   0  0  0  0  0  0  0  0  0  0  0  0
   58.4360   32.2210   46.0710 N   0  0  0  0  0  0  0  0  0  0  0  0
   57.2860   32.4740   45.3670 C   0  0  0  0  0  0  0  0  0  0  0  0
   56.6480   33.5480   45.5360 O   0  0  0  0  0  0  0  0  0  0  0  0
   56.8160   31.5680   44.4740 N   0  0  0  0  0  0  0  0  0  0  0  0
   57.4710   30.4070   44.2260 C   0  0  0  0  0  0  0  0  0  0  0  0
   56.9480   29.5050   43.3030 O   0  0  0  0  0  0  0  0  0  0  0  0
   58.6750   30.1350   44.8810 C   0  0  0  0  0  0  0  0  0  0  0  0
   59.3960   28.8730   44.5960 C   0  0  0  0  0  0  0  0  0  0  0  0
   59.5380   27.8570   45.4640 C   0  0  0  0  0  0  0  0  0  0  0  0
   58.4670   26.9120   45.8550 C   0  0  0  0  0  0  0  0  0  0  0  0
   58.8210   25.6730   46.4060 C   0  0  0  0  0  0  0  0  0  0  0  0
   57.8350   24.7640   46.7960 C   0  0  0  0  0  0  0  0  0  0  0  0
   56.4720   25.0890   46.6610 C   0  0  0  0  0  0  0  0  0  0  0  0
   55.4430   24.2080   47.0360 O   0  0  0  0  0  0  0  0  0  0  0  0
   54.6570   23.4250   46.1370 C   0  0  0  0  0  0  0  0  0  0  0  0
   55.5110   22.8570   45.0340 C   0  0  0  0  0  0  0  0  0  0  0  0
   56.0350   21.5580   45.1470 C   0  0  0  0  0  0  0  0  0  0  0  0
   56.8190   21.0230   44.1200 C   0  0  0  0  0  0  0  0  0  0  0  0
   57.0790   21.7770   42.9720 C   0  0  0  0  0  0  0  0  0  0  0  0
   56.5510   23.0640   42.8460 C   0  0  0  0  0  0  0  0  0  0  0  0
   55.7650   23.6030   43.8710 C   0  0  0  0  0  0  0  0  0  0  0  0
   56.1190   26.3400   46.1350 C   0  0  0  0  0  0  0  0  0  0  0  0
   54.7790   26.6850   46.0040 O   0  0  0  0  0  0  0  0  0  0  0  0
   57.1070   27.2490   45.7450 C   0  0  0  0  0  0  0  0  0  0  0  0
   59.1380   31.0660   45.8330 C   0  0  0  0  0  0  0  0  0  0  0  0
   60.1970   30.8220   46.4770 O   0  0  0  0  0  0  0  0  0  0  0  0
  1  2  1  0
  2  3  1  0
  3  4  2  0
  3  5  1  0
  5  6  1  0
  6  7  1  0
  6  8  2  0
  8  9  1  0
  9 10  2  3
 10 11  1  0
 11 12  2  0
 12 13  1  0
 13 14  2  0
 14 15  1  0
 15 16  1  0
 16 17  1  0
 17 18  2  0
 18 19  1  0
 19 20  2  0
 20 21  1  0
 21 22  2  0
 14 23  1  0
 23 24  1  0
 23 25  2  0
  8 26  1  0
 26 27  2  0
 26  2  1  0
 25 11  1  0
 22 17  1  0
M  CHG  2   5  -1  24  -1
M  END
>  <UniqueID>  (399) 
77

>  <SMILES>  (399) 
Cn1c(=O)[n-]c(O)c(C=Cc2ccc(OCc3ccccc3)c([O-])c2)c1=O

>  <Energy>  (399) 
60.75886319562767

>  <Genealogy>  (399) 
Cn1c(=O)[n-]c(O)c(C=Cc2ccc(OCc3ccccc3)c([O-])c2)c1=O (protonated)
Cn1c(=O)[n-]c(O)c(C=Cc2ccc(OCc3ccccc3)c([O-])c2)c1=O (3D coordinates assigned)
Cn1c(=O)[n-]c(O)c(C=Cc2ccc(OCc3ccccc3)c([O-])c2)c1=O (optimized conformer: 60.75886319562767 kcal/mol)

>  <smiles>  (399) 
Cn1c(=O)[nH]c(O)c(C=Cc2ccc(OCc3ccccc3)c(O)c2)c1=O

>  <score_type>  (399) 
oracle

>  <origin>  (399) 
adg

>  <m_score__min__energy>  (399) 
-14.94

>  <m_primary>  (399) 
energy

$$$$
86:0
     RDKit          3D

 26 30  0  0  0  0  0  0  0  0999 V2000
   58.8870   28.2410   48.2760 C   0  0  0  0  0  0  0  0  0  0  0  0
   59.2920   29.3590   48.7990 N   0  0  0  0  0  0  0  0  0  0  0  0
   59.2640   30.3190   47.7800 N   0  0  0  0  0  0  0  0  0  0  0  0
   58.8820   31.6080   47.8530 C   0  0  0  0  0  0  0  0  0  0  0  0
   59.0510   32.3870   48.8790 N   0  0  0  0  0  0  0  0  0  0  0  0
   59.8310   33.6190   48.8540 C   0  0  0  0  0  0  0  0  0  0  0  0
   59.3520   34.5920   47.7940 C   0  0  0  0  0  0  0  0  0  0  0  0
   60.6410   33.8110   47.5840 C   0  0  0  0  0  0  0  0  0  0  0  0
   58.2290   31.9980   46.7320 N   0  0  0  0  0  0  0  0  0  0  0  0
   58.1950   30.8510   46.0010 C   0  0  0  0  0  0  0  0  0  0  0  0
   57.5940   30.7710   44.6580 C   0  0  0  0  0  0  0  0  0  0  0  0
   56.5410   29.8790   44.4090 C   0  0  0  0  0  0  0  0  0  0  0  0
   55.9570   29.8420   43.1400 C   0  0  0  0  0  0  0  0  0  0  0  0
   56.3970   30.6770   42.1620 N   0  0  0  0  0  0  0  0  0  0  0  0
   57.4020   31.5650   42.3810 C   0  0  0  0  0  0  0  0  0  0  0  0
   58.0130   31.6350   43.6350 C   0  0  0  0  0  0  0  0  0  0  0  0
   58.8300   29.8450   46.6430 N   0  0  0  0  0  0  0  0  0  0  0  0
   58.5160   28.4710   46.8660 C   0  0  0  0  0  0  0  0  0  0  0  0
   57.8060   27.6710   46.0600 C   0  0  0  0  0  0  0  0  0  0  0  0
   57.2520   26.3750   46.4840 C   0  0  0  0  0  0  0  0  0  0  0  0
   57.9860   25.4200   47.0820 N   0  0  0  0  0  0  0  0  0  0  0  0
   57.0810   24.4580   47.3640 C   0  0  0  0  0  0  0  0  0  0  0  0
   57.3950   23.3760   47.9260 O   0  0  0  0  0  0  0  0  0  0  0  0
   55.8130   24.7490   47.0040 N   0  0  0  0  0  0  0  0  0  0  0  0
   55.9340   25.9700   46.4590 C   0  0  0  0  0  0  0  0  0  0  0  0
   54.8550   26.7160   45.9990 O   0  0  0  0  0  0  0  0  0  0  0  0
  1  2  2  0
  2  3  1  0
  3  4  1  0
  4  5  2  0
  5  6  1  0
  6  7  1  0
  7  8  1  0
  4  9  1  0
  9 10  2  0
 10 11  1  0
 11 12  2  0
 12 13  1  0
 13 14  2  0
 14 15  1  0
 15 16  2  0
 10 17  1  0
 17 18  1  0
 18 19  2  0
 19 20  1  0
 20 21  1  0
 21 22  1  0
 22 23  2  0
 22 24  1  0
 24 25  1  0
 25 26  1  0
 18  1  1  0
 25 20  2  0
 17  3  1  0
  8  6  1  0
 16 11  1  0
M  CHG  3  21  -1  24  -1  26  -1
M  END
>  <UniqueID>  (400) 
81

>  <SMILES>  (400) 
O=c1[n-]c([O-])c(/C=C2\C=Nn3/c(=N\C4CC4)nc(-c4ccncc4)n32)[n-]1

>  <Energy>  (400) 
440.2759068602489

>  <Genealogy>  (400) 
O=c1[n-]c([O-])c(C=C2C=Nn3c(=NC4CC4)nc(-c4ccncc4)n32)[n-]1 (protonated)
O=c1[n-]c([O-])c(/C=C2\C=Nn3/c(=N\C4CC4)nc(-c4ccncc4)n32)[n-]1 (cis-trans isomerization)
O=c1[n-]c([O-])c(/C=C2\C=Nn3/c(=N\C4CC4)nc(-c4ccncc4)n32)[n-]1 (3D coordinates assigned)
O=c1[n-]c([O-])c(/C=C2\C=Nn3/c(=N\C4CC4)nc(-c4ccncc4)n32)[n-]1 (nonaromatic ring conformer: 440.2759068602489 kcal/mol)

>  <smiles>  (400) 
O=c1[nH]c(O)c(C=C2C=Nn3c(=NC4CC4)nc(-c4ccncc4)n32)[nH]1

>  <score_type>  (400) 
oracle

>  <origin>  (400) 
adg

>  <m_score__min__energy>  (400) 
-15.16

>  <m_primary>  (400) 
energy

$$$$
94:0
     RDKit          3D

 29 32  0  0  0  0  0  0  0  0999 V2000
   58.3830   32.5630   43.9840 O   0  0  0  0  0  0  0  0  0  0  0  0
   57.4690   32.4580   44.8470 C   0  0  0  0  0  0  0  0  0  0  0  0
   57.3650   33.4900   45.9360 C   0  0  0  0  0  0  0  0  0  0  0  0
   58.2700   33.1390   47.0340 N   0  0  0  0  0  0  0  0  0  0  0  0
   57.8420   32.7270   48.2240 N   0  0  0  0  0  0  0  0  0  0  0  0
   58.9090   32.6080   49.0500 C   0  0  0  0  0  0  0  0  0  0  0  0
   60.0400   32.9720   48.3500 C   0  0  0  0  0  0  0  0  0  0  0  0
   61.3730   33.0800   48.7360 C   0  0  0  0  0  0  0  0  0  0  0  0
   62.2940   33.5240   47.7710 C   0  0  0  0  0  0  0  0  0  0  0  0
   61.8630   33.8390   46.4600 C   0  0  0  0  0  0  0  0  0  0  0  0
   60.5050   33.7240   46.1070 C   0  0  0  0  0  0  0  0  0  0  0  0
   59.6110   33.2910   47.0910 C   0  0  0  0  0  0  0  0  0  0  0  0
   56.6400   31.2900   44.8380 N   0  0  0  0  0  0  0  0  0  0  0  0
   57.0420   30.0130   45.3410 C   0  0  0  0  0  0  0  0  0  0  0  0
   58.2810   29.8860   45.9800 C   0  0  0  0  0  0  0  0  0  0  0  0
   58.6960   28.6440   46.4850 C   0  0  0  0  0  0  0  0  0  0  0  0
   60.2510   28.4910   47.3100 S   0  0  0  0  0  0  0  0  0  0  0  0
   60.9340   27.2300   46.8530 O   0  0  0  0  0  0  0  0  0  0  0  0
   61.1280   29.6540   46.9360 O   0  0  0  0  0  0  0  0  0  0  0  0
   60.0540   28.4520   49.0500 N   0  0  0  0  0  0  0  0  0  0  0  0
   60.8050   27.3180   49.6270 C   0  0  0  0  0  0  0  0  0  0  0  0
   61.0800   27.5510   51.1230 C   0  0  0  0  0  0  0  0  0  0  0  0
   61.8330   28.7270   51.4010 O   0  0  0  0  0  0  0  0  0  0  0  0
   61.7680   29.7050   50.3740 C   0  0  0  0  0  0  0  0  0  0  0  0
   60.4020   29.7500   49.6670 C   0  0  0  0  0  0  0  0  0  0  0  0
   57.8660   27.5230   46.3310 C   0  0  0  0  0  0  0  0  0  0  0  0
   56.6400   27.6410   45.6690 C   0  0  0  0  0  0  0  0  0  0  0  0
   56.2280   28.8800   45.1660 C   0  0  0  0  0  0  0  0  0  0  0  0
   55.0200   28.9760   44.4850 O   0  0  0  0  0  0  0  0  0  0  0  0
  1  2  2  0
  2  3  1  0
  3  4  1  0
  4  5  1  0
  5  6  2  0
  6  7  1  0
  7  8  2  0
  8  9  1  0
  9 10  2  0
 10 11  1  0
 11 12  2  0
  2 13  1  0
 13 14  1  0
 14 15  2  0
 15 16  1  0
 16 17  1  0
 17 18  2  0
 17 19  2  0
 17 20  1  0
 20 21  1  0
 21 22  1  0
 22 23  1  0
 23 24  1  0
 24 25  1  0
 16 26  2  0
 26 27  1  0
 27 28  2  0
 28 29  1  0
 12  4  1  0
 28 14  1  0
 12  7  1  0
 25 20  1  0
M  CHG  2  13  -1  29  -1
M  END
>  <UniqueID>  (401) 
88

>  <SMILES>  (401) 
O=C(Cn1ncc2ccccc21)[N-]c1cc(S(=O)(=O)N2CCOCC2)ccc1[O-]

>  <Energy>  (401) 
103.14789825999014

>  <Genealogy>  (401) 
O=C(Cn1ncc2ccccc21)[N-]c1cc(S(=O)(=O)N2CCOCC2)ccc1[O-] (protonated)
O=C(Cn1ncc2ccccc21)[N-]c1cc(S(=O)(=O)N2CCOCC2)ccc1[O-] (3D coordinates assigned)
O=C(Cn1ncc2ccccc21)[N-]c1cc(S(=O)(=O)N2CCOCC2)ccc1[O-] (nonaromatic ring conformer: 103.14789825999014 kcal/mol)

>  <smiles>  (401) 
O=C(Cn1ncc2ccccc21)Nc1cc(S(=O)(=O)N2CCOCC2)ccc1O

>  <score_type>  (401) 
oracle

>  <origin>  (401) 
adg

>  <m_score__min__energy>  (401) 
-14.050000000000001

>  <m_primary>  (401) 
energy

$$$$
2:0
     RDKit          3D

 24 26  0  0  0  0  0  0  0  0999 V2000
   58.5740   34.4560   44.8640 C   0  0  0  0  0  0  0  0  0  0  0  0
   58.3160   33.4500   43.8890 O   0  0  0  0  0  0  0  0  0  0  0  0
   57.9460   32.1300   44.1930 C   0  0  0  0  0  0  0  0  0  0  0  0
   57.0150   31.4040   43.4060 C   0  0  0  0  0  0  0  0  0  0  0  0
   56.6680   30.0840   43.7430 C   0  0  0  0  0  0  0  0  0  0  0  0
   57.2580   29.4990   44.8640 C   0  0  0  0  0  0  0  0  0  0  0  0
   57.0070   28.2380   45.3040 N   0  0  0  0  0  0  0  0  0  0  0  0
   57.7300   27.9540   46.4190 C   0  0  0  0  0  0  0  0  0  0  0  0
   57.6680   26.8350   47.0780 N   0  0  0  0  0  0  0  0  0  0  0  0
   57.6390   25.5220   46.5030 C   0  0  0  0  0  0  0  0  0  0  0  0
   58.1270   24.5600   47.1530 O   0  0  0  0  0  0  0  0  0  0  0  0
   57.1470   25.2900   45.1010 C   0  0  0  0  0  0  0  0  0  0  0  0
   55.7730   24.6640   45.1240 C   0  0  0  0  0  0  0  0  0  0  0  0
   54.6540   25.3790   45.5860 C   0  0  0  0  0  0  0  0  0  0  0  0
   54.7780   26.6970   46.0130 O   0  0  0  0  0  0  0  0  0  0  0  0
   53.4350   24.7830   45.6210 N   0  0  0  0  0  0  0  0  0  0  0  0
   53.2700   23.4960   45.2260 C   0  0  0  0  0  0  0  0  0  0  0  0
   52.1290   22.9670   45.2650 O   0  0  0  0  0  0  0  0  0  0  0  0
   54.3360   22.7770   44.7910 N   0  0  0  0  0  0  0  0  0  0  0  0
   55.5770   23.3250   44.7360 C   0  0  0  0  0  0  0  0  0  0  0  0
   56.5440   22.6220   44.3370 O   0  0  0  0  0  0  0  0  0  0  0  0
   58.6840   29.2590   46.9130 S   0  0  0  0  0  0  0  0  0  0  0  0
   58.1650   30.2140   45.6300 C   0  0  0  0  0  0  0  0  0  0  0  0
   58.5250   31.5220   45.3210 C   0  0  0  0  0  0  0  0  0  0  0  0
  1  2  1  0
  2  3  1  0
  3  4  2  0
  4  5  1  0
  5  6  2  0
  6  7  1  0
  7  8  1  0
  8  9  2  3
  9 10  1  0
 10 11  2  0
 10 12  1  0
 12 13  1  0
 13 14  2  0
 14 15  1  0
 14 16  1  0
 16 17  1  0
 17 18  2  0
 17 19  1  0
 19 20  1  0
 20 21  2  0
  8 22  1  0
 22 23  1  0
 23 24  2  0
 24  3  1  0
 23  6  1  0
 20 13  1  0
M  CHG  3  15  -1  16  -1  19  -1
M  END
>  <UniqueID>  (402) 
3

>  <SMILES>  (402) 
COc1ccc2[nH]c(=NC(=O)Cc3c([O-])[n-]c(=O)[n-]c3=O)sc2c1

>  <Energy>  (402) 
78.49265799991451

>  <Genealogy>  (402) 
COc1ccc2[nH]c(=NC(=O)Cc3c([O-])[n-]c(=O)[n-]c3=O)sc2c1 (protonated)
COc1ccc2[nH]c(=NC(=O)Cc3c([O-])[n-]c(=O)[n-]c3=O)sc2c1 (3D coordinates assigned)
COc1ccc2[nH]c(=NC(=O)Cc3c([O-])[n-]c(=O)[n-]c3=O)sc2c1 (optimized conformer: 78.49265799991451 kcal/mol)

>  <smiles>  (402) 
COc1ccc2[nH]c(=NC(=O)Cc3c(O)[nH]c(=O)[nH]c3=O)sc2c1

>  <score_type>  (402) 
oracle

>  <origin>  (402) 
adg

>  <m_score__min__energy>  (402) 
-14.67

>  <m_primary>  (402) 
energy

$$$$
34:0
     RDKit          3D

 26 28  0  0  0  0  0  0  0  0999 V2000
   55.0250   30.6410   53.4910 O   0  0  0  0  0  0  0  0  0  0  0  0
   55.2370   30.7570   52.2540 C   0  0  0  0  0  0  0  0  0  0  0  0
   54.1430   30.9220   51.3440 N   0  0  0  0  0  0  0  0  0  0  0  0
   52.7430   30.8720   51.7480 C   0  0  0  0  0  0  0  0  0  0  0  0
   51.8560   31.1080   50.5690 C   0  0  0  0  0  0  0  0  0  0  0  0
   51.5700   30.1620   49.6510 N   0  0  0  0  0  0  0  0  0  0  0  0
   50.7980   30.7370   48.7450 N   0  0  0  0  0  0  0  0  0  0  0  0
   50.6480   32.0130   49.1390 C   0  0  0  0  0  0  0  0  0  0  0  0
   49.9660   32.8560   48.4990 O   0  0  0  0  0  0  0  0  0  0  0  0
   51.2990   32.3020   50.2810 N   0  0  0  0  0  0  0  0  0  0  0  0
   56.6120   30.7170   51.7470 C   0  0  0  0  0  0  0  0  0  0  0  0
   57.2920   31.7680   51.1590 C   0  0  0  0  0  0  0  0  0  0  0  0
   58.5300   31.2540   50.8460 C   0  0  0  0  0  0  0  0  0  0  0  0
   59.8410   32.1000   50.0440 S   0  0  0  0  0  0  0  0  0  0  0  0
   61.1450   31.6250   50.6170 O   0  0  0  0  0  0  0  0  0  0  0  0
   59.7210   33.5820   50.2660 O   0  0  0  0  0  0  0  0  0  0  0  0
   59.8030   31.7660   48.3420 N   0  0  0  0  0  0  0  0  0  0  0  0
   59.3460   32.7040   47.3490 C   0  0  0  0  0  0  0  0  0  0  0  0
   58.1510   32.4980   46.6310 C   0  0  0  0  0  0  0  0  0  0  0  0
   57.7320   33.4250   45.6710 C   0  0  0  0  0  0  0  0  0  0  0  0
   58.4930   34.5680   45.4210 C   0  0  0  0  0  0  0  0  0  0  0  0
   59.6740   34.7880   46.1310 C   0  0  0  0  0  0  0  0  0  0  0  0
   60.1010   33.8640   47.0920 C   0  0  0  0  0  0  0  0  0  0  0  0
   61.2560   34.0970   47.7640 F   0  0  0  0  0  0  0  0  0  0  0  0
   58.5400   29.9370   51.2520 C   0  0  0  0  0  0  0  0  0  0  0  0
   57.3770   29.6470   51.7900 O   0  0  0  0  0  0  0  0  0  0  0  0
  1  2  2  0
  2  3  1  0
  3  4  1  0
  4  5  1  0
  5  6  2  0
  6  7  1  0
  7  8  1  0
  8  9  2  0
  8 10  1  0
  2 11  1  0
 11 12  2  0
 12 13  1  0
 13 14  1  0
 14 15  2  0
 14 16  2  0
 14 17  1  0
 17 18  1  0
 18 19  2  0
 19 20  1  0
 20 21  2  0
 21 22  1  0
 22 23  2  0
 23 24  1  0
 13 25  2  0
 25 26  1  0
 10  5  1  0
 26 11  1  0
 23 18  1  0
M  CHG  3   3  -1   7  -1  10  -1
M  END
>  <UniqueID>  (403) 
35

>  <SMILES>  (403) 
O=C([N-]Cc1n[n-]c(=O)[n-]1)c1cc(S(=O)(=O)Nc2ccccc2F)co1

>  <Energy>  (403) 
95.65916248622774

>  <Genealogy>  (403) 
O=C([N-]Cc1n[n-]c(=O)[n-]1)c1cc(S(=O)(=O)Nc2ccccc2F)co1 (protonated)
O=C([N-]Cc1n[n-]c(=O)[n-]1)c1cc(S(=O)(=O)Nc2ccccc2F)co1 (3D coordinates assigned)
O=C([N-]Cc1n[n-]c(=O)[n-]1)c1cc(S(=O)(=O)Nc2ccccc2F)co1 (optimized conformer: 95.65916248622774 kcal/mol)

>  <smiles>  (403) 
O=C(NCc1n[nH]c(=O)[nH]1)c1cc(S(=O)(=O)Nc2ccccc2F)co1

>  <score_type>  (403) 
oracle

>  <origin>  (403) 
adg

>  <m_score__min__energy>  (403) 
-14.24

>  <m_primary>  (403) 
energy

$$$$
49:0
     RDKit          3D

 24 26  0  0  0  0  0  0  0  0999 V2000
   59.3410   35.1010   45.5400 C   0  0  0  0  0  0  0  0  0  0  0  0
   59.4070   33.9770   46.5420 C   0  0  0  0  0  0  0  0  0  0  0  0
   60.4830   33.9380   47.4470 C   0  0  0  0  0  0  0  0  0  0  0  0
   60.6090   32.8880   48.3560 C   0  0  0  0  0  0  0  0  0  0  0  0
   59.6730   31.8560   48.3660 C   0  0  0  0  0  0  0  0  0  0  0  0
   58.5930   31.8830   47.4830 C   0  0  0  0  0  0  0  0  0  0  0  0
   58.4180   32.9590   46.5920 C   0  0  0  0  0  0  0  0  0  0  0  0
   57.2270   32.9560   45.6500 C   0  0  0  0  0  0  0  0  0  0  0  0
   57.5690   32.4760   44.3070 N   0  0  0  0  0  0  0  0  0  0  0  0
   56.7920   30.9650   43.9130 S   0  0  0  0  0  0  0  0  0  0  0  0
   55.3920   30.9850   44.4600 O   0  0  0  0  0  0  0  0  0  0  0  0
   56.7050   30.8440   42.4180 O   0  0  0  0  0  0  0  0  0  0  0  0
   57.6350   29.5550   44.5720 C   0  0  0  0  0  0  0  0  0  0  0  0
   59.0340   29.4920   44.5080 C   0  0  0  0  0  0  0  0  0  0  0  0
   59.7170   28.3930   45.0250 C   0  0  0  0  0  0  0  0  0  0  0  0
   59.0140   27.3410   45.6160 C   0  0  0  0  0  0  0  0  0  0  0  0
   59.7000   26.2800   46.1210 N   0  0  0  0  0  0  0  0  0  0  0  0
   59.0680   25.2330   46.7100 C   0  0  0  0  0  0  0  0  0  0  0  0
   57.6780   25.2220   46.8140 C   0  0  0  0  0  0  0  0  0  0  0  0
   56.9360   26.2930   46.3070 C   0  0  0  0  0  0  0  0  0  0  0  0
   55.6800   26.2650   46.4120 O   0  0  0  0  0  0  0  0  0  0  0  0
   57.6000   27.3820   45.6940 C   0  0  0  0  0  0  0  0  0  0  0  0
   56.9140   28.5010   45.1640 C   0  0  0  0  0  0  0  0  0  0  0  0
   55.5250   28.5810   45.2280 O   0  0  0  0  0  0  0  0  0  0  0  0
  1  2  1  0
  2  3  2  0
  3  4  1  0
  4  5  2  0
  5  6  1  0
  6  7  2  0
  7  8  1  0
  8  9  1  0
  9 10  1  0
 10 11  2  0
 10 12  2  0
 10 13  1  0
 13 14  2  0
 14 15  1  0
 15 16  2  0
 16 17  1  0
 17 18  1  0
 18 19  2  0
 19 20  1  0
 20 21  2  0
 20 22  1  0
 22 23  2  0
 23 24  1  0
  7  2  1  0
 23 13  1  0
 22 16  1  0
M  CHG  3   9  -1  17  -1  24  -1
M  END
>  <UniqueID>  (404) 
49

>  <SMILES>  (404) 
Cc1ccccc1C[N-]S(=O)(=O)c1ccc2[n-]ccc(=O)c2c1[O-]

>  <Energy>  (404) 
47.05276589099098

>  <Genealogy>  (404) 
Cc1ccccc1C[N-]S(=O)(=O)c1ccc2[n-]ccc(=O)c2c1[O-] (protonated)
Cc1ccccc1C[N-]S(=O)(=O)c1ccc2[n-]ccc(=O)c2c1[O-] (3D coordinates assigned)
Cc1ccccc1C[N-]S(=O)(=O)c1ccc2[n-]ccc(=O)c2c1[O-] (optimized conformer: 47.05276589099098 kcal/mol)

>  <smiles>  (404) 
Cc1ccccc1CNS(=O)(=O)c1ccc2[nH]ccc(=O)c2c1O

>  <score_type>  (404) 
oracle

>  <origin>  (404) 
adg

>  <m_score__min__energy>  (404) 
-14.960000000000001

>  <m_primary>  (404) 
energy

$$$$
53:0
     RDKit          3D

 28 30  0  0  0  0  0  0  0  0999 V2000
   57.5180   28.9690   43.5670 N   0  0  0  0  0  0  0  0  0  0  0  0
   56.8890   30.5580   43.8340 S   0  0  0  0  0  0  0  0  0  0  0  0
   56.7150   31.2260   42.4990 O   0  0  0  0  0  0  0  0  0  0  0  0
   55.5500   30.4640   44.5100 O   0  0  0  0  0  0  0  0  0  0  0  0
   58.0010   31.5020   44.8420 C   0  0  0  0  0  0  0  0  0  0  0  0
   58.0240   32.8990   44.6880 C   0  0  0  0  0  0  0  0  0  0  0  0
   58.9230   33.6800   45.4180 C   0  0  0  0  0  0  0  0  0  0  0  0
   59.8080   33.0790   46.3100 C   0  0  0  0  0  0  0  0  0  0  0  0
   59.7890   31.6940   46.4880 C   0  0  0  0  0  0  0  0  0  0  0  0
   58.8820   30.8940   45.7710 C   0  0  0  0  0  0  0  0  0  0  0  0
   58.8890   29.4370   46.0170 C   0  0  0  0  0  0  0  0  0  0  0  0
   57.7510   28.7960   46.5310 C   0  0  0  0  0  0  0  0  0  0  0  0
   57.7630   27.4180   46.7620 C   0  0  0  0  0  0  0  0  0  0  0  0
   58.9230   26.6650   46.5080 C   0  0  0  0  0  0  0  0  0  0  0  0
   58.9670   25.2450   46.7040 N   0  0  0  0  0  0  0  0  0  0  0  0
   58.0560   24.2820   46.1560 C   0  0  0  0  0  0  0  0  0  0  0  0
   57.7850   23.2210   46.7800 O   0  0  0  0  0  0  0  0  0  0  0  0
   57.4550   24.5230   44.8070 C   0  0  0  0  0  0  0  0  0  0  0  0
   55.9590   24.3960   44.8750 C   0  0  0  0  0  0  0  0  0  0  0  0
   55.2490   25.2380   45.6750 N   0  0  0  0  0  0  0  0  0  0  0  0
   53.9230   25.1380   45.7840 N   0  0  0  0  0  0  0  0  0  0  0  0
   53.2400   24.1820   45.1020 C   0  0  0  0  0  0  0  0  0  0  0  0
   51.6170   24.0720   45.2470 S   0  0  0  0  0  0  0  0  0  0  0  0
   53.9120   23.3200   44.2980 N   0  0  0  0  0  0  0  0  0  0  0  0
   55.2610   23.4030   44.1690 C   0  0  0  0  0  0  0  0  0  0  0  0
   55.8680   22.5880   43.4230 O   0  0  0  0  0  0  0  0  0  0  0  0
   60.0560   27.3080   45.9930 C   0  0  0  0  0  0  0  0  0  0  0  0
   60.0450   28.6850   45.7610 C   0  0  0  0  0  0  0  0  0  0  0  0
  1  2  1  0
  2  3  2  0
  2  4  2  0
  2  5  1  0
  5  6  2  0
  6  7  1  0
  7  8  2  0
  8  9  1  0
  9 10  2  0
 10 11  1  0
 11 12  2  0
 12 13  1  0
 13 14  2  0
 14 15  1  0
 15 16  1  0
 16 17  2  0
 16 18  1  0
 18 19  1  0
 19 20  2  0
 20 21  1  0
 21 22  1  0
 22 23  2  0
 22 24  1  0
 24 25  1  0
 25 26  2  0
 14 27  1  0
 27 28  2  0
 10  5  1  0
 28 11  1  0
 25 19  1  0
M  CHG  4   1  -1  15  -1  21  -1  24  -1
M  END
>  <UniqueID>  (405) 
53

>  <SMILES>  (405) 
[NH-]S(=O)(=O)c1ccccc1-c1ccc([N-]C(=O)Cc2n[n-]c(=S)[n-]c2=O)cc1

>  <Energy>  (405) 
53.920310002678306

>  <Genealogy>  (405) 
[NH-]S(=O)(=O)c1ccccc1-c1ccc([N-]C(=O)Cc2n[n-]c(=S)[n-]c2=O)cc1 (protonated)
[NH-]S(=O)(=O)c1ccccc1-c1ccc([N-]C(=O)Cc2n[n-]c(=S)[n-]c2=O)cc1 (3D coordinates assigned)
[NH-]S(=O)(=O)c1ccccc1-c1ccc([N-]C(=O)Cc2n[n-]c(=S)[n-]c2=O)cc1 (optimized conformer: 53.920310002678306 kcal/mol)

>  <smiles>  (405) 
NS(=O)(=O)c1ccccc1-c1ccc(NC(=O)Cc2n[nH]c(=S)[nH]c2=O)cc1

>  <score_type>  (405) 
oracle

>  <origin>  (405) 
adg

>  <m_score__min__energy>  (405) 
-16.329999999999998

>  <m_primary>  (405) 
energy

$$$$
85:0
     RDKit          3D

 35 38  0  0  0  0  0  0  0  0999 V2000
   52.1250   23.4780   44.6520 O   0  0  0  0  0  0  0  0  0  0  0  0
   53.3180   23.8090   44.8780 C   0  0  0  0  0  0  0  0  0  0  0  0
   53.5970   25.0390   45.3800 N   0  0  0  0  0  0  0  0  0  0  0  0
   54.8750   25.4210   45.6320 C   0  0  0  0  0  0  0  0  0  0  0  0
   55.1130   26.6900   46.1480 O   0  0  0  0  0  0  0  0  0  0  0  0
   55.9390   24.5400   45.3680 C   0  0  0  0  0  0  0  0  0  0  0  0
   57.3690   24.9280   45.6750 C   0  0  0  0  0  0  0  0  0  0  0  0
   57.5670   26.4100   45.4920 C   0  0  0  0  0  0  0  0  0  0  0  0
   57.6210   27.2610   46.6060 C   0  0  0  0  0  0  0  0  0  0  0  0
   57.7760   28.6400   46.4340 C   0  0  0  0  0  0  0  0  0  0  0  0
   57.8760   29.1850   45.1480 C   0  0  0  0  0  0  0  0  0  0  0  0
   58.0830   30.9250   44.9370 S   0  0  0  0  0  0  0  0  0  0  0  0
   56.7670   31.6110   45.1760 O   0  0  0  0  0  0  0  0  0  0  0  0
   58.5070   31.2100   43.5220 O   0  0  0  0  0  0  0  0  0  0  0  0
   59.2760   31.5660   46.0410 N   0  0  0  0  0  0  0  0  0  0  0  0
   59.4850   32.9980   45.7960 C   0  0  0  0  0  0  0  0  0  0  0  0
   60.7480   33.4310   46.5340 C   0  0  0  0  0  0  0  0  0  0  0  0
   60.7880   32.8680   47.8930 N   0  0  0  0  0  0  0  0  0  0  0  0
   61.9010   33.1940   48.7510 C   0  0  0  0  0  0  0  0  0  0  0  0
   63.2090   32.8260   48.3920 C   0  0  0  0  0  0  0  0  0  0  0  0
   64.2890   33.1440   49.2200 C   0  0  0  0  0  0  0  0  0  0  0  0
   64.0850   33.8530   50.4170 C   0  0  0  0  0  0  0  0  0  0  0  0
   65.2440   34.1510   51.3330 C   0  0  0  0  0  0  0  0  0  0  0  0
   65.0880   35.3890   51.9320 F   0  0  0  0  0  0  0  0  0  0  0  0
   65.3090   33.1800   52.3160 F   0  0  0  0  0  0  0  0  0  0  0  0
   66.4350   34.1600   50.6290 F   0  0  0  0  0  0  0  0  0  0  0  0
   62.7760   34.1960   50.7900 C   0  0  0  0  0  0  0  0  0  0  0  0
   61.6950   33.8790   49.9620 C   0  0  0  0  0  0  0  0  0  0  0  0
   59.5940   32.2220   48.4600 C   0  0  0  0  0  0  0  0  0  0  0  0
   58.8740   31.3110   47.4390 C   0  0  0  0  0  0  0  0  0  0  0  0
   57.8120   28.3380   44.0330 C   0  0  0  0  0  0  0  0  0  0  0  0
   57.6580   26.9600   44.2030 C   0  0  0  0  0  0  0  0  0  0  0  0
   55.6200   23.2680   44.8550 C   0  0  0  0  0  0  0  0  0  0  0  0
   56.5250   22.4290   44.6040 O   0  0  0  0  0  0  0  0  0  0  0  0
   54.3240   22.9370   44.6200 N   0  0  0  0  0  0  0  0  0  0  0  0
  1  2  2  0
  2  3  1  0
  3  4  1  0
  4  5  1  0
  4  6  2  0
  6  7  1  0
  7  8  1  0
  8  9  2  0
  9 10  1  0
 10 11  2  0
 11 12  1  0
 12 13  2  0
 12 14  2  0
 12 15  1  0
 15 16  1  0
 16 17  1  0
 17 18  1  0
 18 19  1  0
 19 20  2  0
 20 21  1  0
 21 22  2  0
 22 23  1  0
 23 24  1  0
 23 25  1  0
 23 26  1  0
 22 27  1  0
 27 28  2  0
 18 29  1  0
 29 30  1  0
 11 31  1  0
 31 32  2  0
  6 33  1  0
 33 34  2  0
 33 35  1  0
 35  2  1  0
 32  8  1  0
 30 15  1  0
 28 19  1  0
M  CHG  3   3  -1   5  -1  35  -1
M  END
>  <UniqueID>  (406) 
83

>  <SMILES>  (406) 
O=c1[n-]c([O-])c(Cc2ccc(S(=O)(=O)N3CCN(c4ccc(C(F)(F)F)cc4)CC3)cc2)c(=O)[n-]1

>  <Energy>  (406) 
66.40144306459298

>  <Genealogy>  (406) 
O=c1[n-]c([O-])c(Cc2ccc(S(=O)(=O)N3CCN(c4ccc(C(F)(F)F)cc4)CC3)cc2)c(=O)[n-]1 (protonated)
O=c1[n-]c([O-])c(Cc2ccc(S(=O)(=O)N3CCN(c4ccc(C(F)(F)F)cc4)CC3)cc2)c(=O)[n-]1 (3D coordinates assigned)
O=c1[n-]c([O-])c(Cc2ccc(S(=O)(=O)N3CCN(c4ccc(C(F)(F)F)cc4)CC3)cc2)c(=O)[n-]1 (nonaromatic ring conformer: 66.40144306459298 kcal/mol)

>  <smiles>  (406) 
O=c1[nH]c(O)c(Cc2ccc(S(=O)(=O)N3CCN(c4ccc(C(F)(F)F)cc4)CC3)cc2)c(=O)[nH]1

>  <score_type>  (406) 
oracle

>  <origin>  (406) 
adg

>  <m_score__min__energy>  (406) 
-16.059999999999999

>  <m_primary>  (406) 
energy

$$$$
37:0
     RDKit          3D

 27 29  0  0  0  0  0  0  0  0999 V2000
   57.5290   23.6390   46.0330 C   0  0  0  0  0  0  0  0  0  0  0  0
   57.7560   24.9760   46.1160 N   0  0  0  0  0  0  0  0  0  0  0  0
   56.7380   25.8850   46.1020 C   0  0  0  0  0  0  0  0  0  0  0  0
   56.9720   27.1640   46.1800 N   0  0  0  0  0  0  0  0  0  0  0  0
   57.7600   27.9630   45.2800 C   0  0  0  0  0  0  0  0  0  0  0  0
   58.6690   27.4340   44.5830 O   0  0  0  0  0  0  0  0  0  0  0  0
   57.4900   29.4210   45.1600 C   0  0  0  0  0  0  0  0  0  0  0  0
   56.2010   29.8950   44.8690 C   0  0  0  0  0  0  0  0  0  0  0  0
   55.1430   29.0170   44.6590 O   0  0  0  0  0  0  0  0  0  0  0  0
   55.9660   31.2260   44.8120 N   0  0  0  0  0  0  0  0  0  0  0  0
   56.9480   32.1340   45.0330 C   0  0  0  0  0  0  0  0  0  0  0  0
   56.6610   33.3620   44.9850 O   0  0  0  0  0  0  0  0  0  0  0  0
   58.2250   31.7210   45.3090 N   0  0  0  0  0  0  0  0  0  0  0  0
   59.2720   32.7200   45.6120 C   0  0  0  0  0  0  0  0  0  0  0  0
   59.2230   33.1480   47.0870 C   0  0  0  0  0  0  0  0  0  0  0  0
   60.6040   33.3680   47.6490 C   0  0  0  0  0  0  0  0  0  0  0  0
   60.7670   33.9440   48.9200 C   0  0  0  0  0  0  0  0  0  0  0  0
   62.0480   34.2130   49.4120 C   0  0  0  0  0  0  0  0  0  0  0  0
   63.1730   33.9170   48.6380 C   0  0  0  0  0  0  0  0  0  0  0  0
   63.0190   33.3490   47.3700 C   0  0  0  0  0  0  0  0  0  0  0  0
   61.7410   33.0750   46.8750 C   0  0  0  0  0  0  0  0  0  0  0  0
   58.5080   30.3760   45.3620 C   0  0  0  0  0  0  0  0  0  0  0  0
   59.6900   29.9900   45.5860 O   0  0  0  0  0  0  0  0  0  0  0  0
   55.4130   25.4320   46.0010 C   0  0  0  0  0  0  0  0  0  0  0  0
   54.3530   26.3330   45.9860 O   0  0  0  0  0  0  0  0  0  0  0  0
   55.1620   24.0600   45.9140 C   0  0  0  0  0  0  0  0  0  0  0  0
   56.2240   23.1560   45.9290 C   0  0  0  0  0  0  0  0  0  0  0  0
  1  2  1  0
  2  3  1  0
  3  4  2  0
  4  5  1  0
  5  6  2  0
  5  7  1  0
  7  8  2  0
  8  9  1  0
  8 10  1  0
 10 11  1  0
 11 12  2  0
 11 13  1  0
 13 14  1  0
 14 15  1  0
 15 16  1  0
 16 17  2  0
 17 18  1  0
 18 19  2  0
 19 20  1  0
 20 21  2  0
 13 22  1  0
 22 23  2  0
  3 24  1  0
 24 25  1  0
 24 26  2  0
 26 27  1  0
 27  1  2  0
 22  7  1  0
 21 16  1  0
M  CHG  4   2  -1   9  -1  10  -1  25  -1
M  END
>  <UniqueID>  (407) 
33

>  <SMILES>  (407) 
O=C(/N=c1\[n-]cccc1[O-])c1c([O-])[n-]c(=O)n(CCc2ccccc2)c1=O

>  <Energy>  (407) 
50.311024027995344

>  <Genealogy>  (407) 
O=C(N=c1[n-]cccc1[O-])c1c([O-])[n-]c(=O)n(CCc2ccccc2)c1=O (protonated)
O=C(/N=c1\[n-]cccc1[O-])c1c([O-])[n-]c(=O)n(CCc2ccccc2)c1=O (cis-trans isomerization)
O=C(/N=c1\[n-]cccc1[O-])c1c([O-])[n-]c(=O)n(CCc2ccccc2)c1=O (3D coordinates assigned)
O=C(/N=c1\[n-]cccc1[O-])c1c([O-])[n-]c(=O)n(CCc2ccccc2)c1=O (optimized conformer: 50.311024027995344 kcal/mol)

>  <smiles>  (407) 
O=C(N=c1[nH]cccc1O)c1c(O)[nH]c(=O)n(CCc2ccccc2)c1=O

>  <score_type>  (407) 
oracle

>  <origin>  (407) 
adg

>  <m_score__min__energy>  (407) 
-17.989999999999998

>  <m_primary>  (407) 
energy

$$$$
54:0
     RDKit          3D

 26 28  0  0  0  0  0  0  0  0999 V2000
   57.1230   30.2290   43.1150 O   0  0  0  0  0  0  0  0  0  0  0  0
   56.9660   30.3020   44.3610 C   0  0  0  0  0  0  0  0  0  0  0  0
   56.6390   31.5740   44.9400 N   0  0  0  0  0  0  0  0  0  0  0  0
   57.5800   32.5660   45.3730 C   0  0  0  0  0  0  0  0  0  0  0  0
   58.0460   33.5690   44.5050 C   0  0  0  0  0  0  0  0  0  0  0  0
   58.9630   34.5210   44.9600 C   0  0  0  0  0  0  0  0  0  0  0  0
   59.4100   34.4870   46.2830 C   0  0  0  0  0  0  0  0  0  0  0  0
   58.9300   33.5110   47.1640 C   0  0  0  0  0  0  0  0  0  0  0  0
   59.5250   33.4540   48.8210 S   0  0  0  0  0  0  0  0  0  0  0  0
   58.5520   32.7060   49.6900 O   0  0  0  0  0  0  0  0  0  0  0  0
   59.6470   34.8610   49.3400 O   0  0  0  0  0  0  0  0  0  0  0  0
   61.0880   32.6760   48.8650 N   0  0  0  0  0  0  0  0  0  0  0  0
   62.0240   33.3760   47.9630 C   0  0  0  0  0  0  0  0  0  0  0  0
   63.1980   32.4590   47.5840 C   0  0  0  0  0  0  0  0  0  0  0  0
   62.8130   31.2600   46.9210 O   0  0  0  0  0  0  0  0  0  0  0  0
   61.4640   30.8860   47.1510 C   0  0  0  0  0  0  0  0  0  0  0  0
   60.9730   31.2300   48.5690 C   0  0  0  0  0  0  0  0  0  0  0  0
   58.0120   32.5550   46.7060 C   0  0  0  0  0  0  0  0  0  0  0  0
   57.0810   29.0730   45.1730 C   0  0  0  0  0  0  0  0  0  0  0  0
   58.2360   28.7850   45.9140 C   0  0  0  0  0  0  0  0  0  0  0  0
   58.2740   27.6110   46.6680 C   0  0  0  0  0  0  0  0  0  0  0  0
   59.3000   27.3200   47.3360 O   0  0  0  0  0  0  0  0  0  0  0  0
   57.1980   26.7820   46.6840 N   0  0  0  0  0  0  0  0  0  0  0  0
   56.0780   27.0800   45.9760 C   0  0  0  0  0  0  0  0  0  0  0  0
   55.0890   26.3030   46.0090 O   0  0  0  0  0  0  0  0  0  0  0  0
   56.0240   28.2160   45.2340 N   0  0  0  0  0  0  0  0  0  0  0  0
  1  2  2  0
  2  3  1  0
  3  4  1  0
  4  5  2  0
  5  6  1  0
  6  7  2  0
  7  8  1  0
  8  9  1  0
  9 10  2  0
  9 11  2  0
  9 12  1  0
 12 13  1  0
 13 14  1  0
 14 15  1  0
 15 16  1  0
 16 17  1  0
  8 18  2  0
  2 19  1  0
 19 20  2  0
 20 21  1  0
 21 22  2  0
 21 23  1  0
 23 24  1  0
 24 25  2  0
 24 26  1  0
 18  4  1  0
 26 19  1  0
 17 12  1  0
M  CHG  3   3  -1  23  -1  26  -1
M  END
>  <UniqueID>  (408) 
50

>  <SMILES>  (408) 
O=C([N-]c1cccc(S(=O)(=O)N2CCOCC2)c1)c1cc(=O)[n-]c(=O)[n-]1

>  <Energy>  (408) 
60.065088101371785

>  <Genealogy>  (408) 
O=C([N-]c1cccc(S(=O)(=O)N2CCOCC2)c1)c1cc(=O)[n-]c(=O)[n-]1 (protonated)
O=C([N-]c1cccc(S(=O)(=O)N2CCOCC2)c1)c1cc(=O)[n-]c(=O)[n-]1 (3D coordinates assigned)
O=C([N-]c1cccc(S(=O)(=O)N2CCOCC2)c1)c1cc(=O)[n-]c(=O)[n-]1 (nonaromatic ring conformer: 60.065088101371785 kcal/mol)

>  <smiles>  (408) 
O=C(Nc1cccc(S(=O)(=O)N2CCOCC2)c1)c1cc(=O)[nH]c(=O)[nH]1

>  <score_type>  (408) 
oracle

>  <origin>  (408) 
adg

>  <m_score__min__energy>  (408) 
-14.039999999999999

>  <m_primary>  (408) 
energy

$$$$
78:0
     RDKit          3D

 28 30  0  0  0  0  0  0  0  0999 V2000
   58.1220   32.2500   42.3220 C   0  0  0  0  0  0  0  0  0  0  0  0
   57.3340   31.2870   43.0870 N   0  0  0  0  0  0  0  0  0  0  0  0
   56.3830   30.4720   42.6030 C   0  0  0  0  0  0  0  0  0  0  0  0
   55.8920   29.7210   43.6480 C   0  0  0  0  0  0  0  0  0  0  0  0
   56.5290   30.0590   44.7880 N   0  0  0  0  0  0  0  0  0  0  0  0
   57.3990   31.0210   44.4110 C   0  0  0  0  0  0  0  0  0  0  0  0
   58.3350   31.6890   45.3780 C   0  0  0  0  0  0  0  0  0  0  0  0
   58.4390   30.9010   46.6040 N   0  0  0  0  0  0  0  0  0  0  0  0
   59.4500   31.1570   47.5930 C   0  0  0  0  0  0  0  0  0  0  0  0
   60.3470   32.0130   47.3600 O   0  0  0  0  0  0  0  0  0  0  0  0
   59.4740   30.4350   48.8800 C   0  0  0  0  0  0  0  0  0  0  0  0
   60.5300   29.6290   49.3160 C   0  0  0  0  0  0  0  0  0  0  0  0
   60.1180   28.9950   50.8180 S   0  0  0  0  0  0  0  0  0  0  0  0
   58.6190   29.7670   50.8520 C   0  0  0  0  0  0  0  0  0  0  0  0
   57.7260   29.6910   51.7950 N   0  0  0  0  0  0  0  0  0  0  0  0
   56.5680   30.5240   51.9780 C   0  0  0  0  0  0  0  0  0  0  0  0
   56.4080   31.5730   51.3000 O   0  0  0  0  0  0  0  0  0  0  0  0
   55.5380   30.1340   52.8940 N   0  0  0  0  0  0  0  0  0  0  0  0
   54.1320   30.0810   52.6120 C   0  0  0  0  0  0  0  0  0  0  0  0
   53.4530   28.8730   52.8080 C   0  0  0  0  0  0  0  0  0  0  0  0
   52.0890   28.7760   52.5280 C   0  0  0  0  0  0  0  0  0  0  0  0
   51.3930   29.8820   52.0330 C   0  0  0  0  0  0  0  0  0  0  0  0
   52.0620   31.0960   51.8020 C   0  0  0  0  0  0  0  0  0  0  0  0
   51.3270   32.2590   51.2580 C   0  0  0  0  0  0  0  0  0  0  0  0
   50.9750   33.2060   52.0120 O   0  0  0  0  0  0  0  0  0  0  0  0
   51.0110   32.3240   49.9060 O   0  0  0  0  0  0  0  0  0  0  0  0
   53.4380   31.1840   52.0860 C   0  0  0  0  0  0  0  0  0  0  0  0
   58.4170   30.5000   49.7380 N   0  0  0  0  0  0  0  0  0  0  0  0
  1  2  1  0
  2  3  1  0
  3  4  2  0
  4  5  1  0
  5  6  2  0
  6  7  1  0
  7  8  1  0
  8  9  1  0
  9 10  2  0
  9 11  1  0
 11 12  2  0
 12 13  1  0
 13 14  1  0
 14 15  2  3
 15 16  1  0
 16 17  2  0
 16 18  1  0
 18 19  1  0
 19 20  2  0
 20 21  1  0
 21 22  2  0
 22 23  1  0
 23 24  1  0
 24 25  2  0
 24 26  1  0
 23 27  2  0
 14 28  1  0
  6  2  1  0
 28 11  1  0
 27 19  1  0
M  CHG  3  18  -1  26  -1  28  -1
M  END
>  <UniqueID>  (409) 
71

>  <SMILES>  (409) 
Cn1ccnc1CNC(=O)c1csc(=NC(=O)[N-]c2cccc(C(=O)[O-])c2)[n-]1

>  <Energy>  (409) 
106.79188536287192

>  <Genealogy>  (409) 
Cn1ccnc1CNC(=O)c1csc(=NC(=O)[N-]c2cccc(C(=O)[O-])c2)[n-]1 (protonated)
Cn1ccnc1CNC(=O)c1csc(=NC(=O)[N-]c2cccc(C(=O)[O-])c2)[n-]1 (3D coordinates assigned)
Cn1ccnc1CNC(=O)c1csc(=NC(=O)[N-]c2cccc(C(=O)[O-])c2)[n-]1 (optimized conformer: 106.79188536287192 kcal/mol)

>  <smiles>  (409) 
Cn1ccnc1CNC(=O)c1csc(=NC(=O)Nc2cccc(C(=O)O)c2)[nH]1

>  <score_type>  (409) 
oracle

>  <origin>  (409) 
adg

>  <m_score__min__energy>  (409) 
-14.02

>  <m_primary>  (409) 
energy

$$$$
89:0
     RDKit          3D

 24 26  0  0  0  0  0  0  0  0999 V2000
   59.5900   35.8860   46.4870 O   0  0  0  0  0  0  0  0  0  0  0  0
   59.6100   34.5000   46.6460 C   0  0  0  0  0  0  0  0  0  0  0  0
   58.8080   33.7150   45.8110 C   0  0  0  0  0  0  0  0  0  0  0  0
   58.8000   32.3130   45.9260 C   0  0  0  0  0  0  0  0  0  0  0  0
   57.9330   31.5040   45.0320 C   0  0  0  0  0  0  0  0  0  0  0  0
   57.3010   30.4060   45.5330 N   0  0  0  0  0  0  0  0  0  0  0  0
   56.4870   29.6310   44.7640 C   0  0  0  0  0  0  0  0  0  0  0  0
   55.9100   28.5710   45.2480 N   0  0  0  0  0  0  0  0  0  0  0  0
   56.5590   27.3630   45.6840 C   0  0  0  0  0  0  0  0  0  0  0  0
   57.9600   27.2810   45.8120 C   0  0  0  0  0  0  0  0  0  0  0  0
   58.5580   26.1020   46.2680 C   0  0  0  0  0  0  0  0  0  0  0  0
   57.7670   25.0060   46.6200 C   0  0  0  0  0  0  0  0  0  0  0  0
   56.3750   25.0900   46.5270 C   0  0  0  0  0  0  0  0  0  0  0  0
   55.7710   26.2670   46.0700 C   0  0  0  0  0  0  0  0  0  0  0  0
   54.3850   26.3410   45.9910 O   0  0  0  0  0  0  0  0  0  0  0  0
   56.3060   29.9460   43.4560 N   0  0  0  0  0  0  0  0  0  0  0  0
   56.9040   31.0330   42.9050 C   0  0  0  0  0  0  0  0  0  0  0  0
   56.7090   31.3090   41.6930 O   0  0  0  0  0  0  0  0  0  0  0  0
   57.7310   31.8440   43.6860 C   0  0  0  0  0  0  0  0  0  0  0  0
   59.6010   31.7130   46.9150 C   0  0  0  0  0  0  0  0  0  0  0  0
   60.4020   32.4930   47.7520 C   0  0  0  0  0  0  0  0  0  0  0  0
   60.4170   33.8940   47.6250 C   0  0  0  0  0  0  0  0  0  0  0  0
   61.2110   34.7080   48.4490 O   0  0  0  0  0  0  0  0  0  0  0  0
   61.9450   34.2410   49.5760 C   0  0  0  0  0  0  0  0  0  0  0  0
  1  2  1  0
  2  3  2  0
  3  4  1  0
  4  5  1  0
  5  6  1  0
  6  7  1  0
  7  8  2  0
  8  9  1  0
  9 10  2  0
 10 11  1  0
 11 12  2  0
 12 13  1  0
 13 14  2  0
 14 15  1  0
  7 16  1  0
 16 17  1  0
 17 18  2  0
 17 19  1  0
  4 20  2  0
 20 21  1  0
 21 22  2  0
 22 23  1  0
 23 24  1  0
 22  2  1  0
 19  5  2  0
 14  9  1  0
M  CHG  3   6  -1  15  -1  16  -1
M  END
>  <UniqueID>  (410) 
82

>  <SMILES>  (410) 
COc1ccc(-c2cc(=O)[n-]/c(=N/c3ccccc3[O-])[n-]2)cc1O

>  <Energy>  (410) 
49.59199631014659

>  <Genealogy>  (410) 
COc1ccc(-c2cc(=O)[n-]c(=Nc3ccccc3[O-])[n-]2)cc1O (protonated)
COc1ccc(-c2cc(=O)[n-]/c(=N/c3ccccc3[O-])[n-]2)cc1O (cis-trans isomerization)
COc1ccc(-c2cc(=O)[n-]/c(=N/c3ccccc3[O-])[n-]2)cc1O (3D coordinates assigned)
COc1ccc(-c2cc(=O)[n-]/c(=N/c3ccccc3[O-])[n-]2)cc1O (optimized conformer: 49.59199631014659 kcal/mol)

>  <smiles>  (410) 
COc1ccc(-c2cc(=O)[nH]c(=Nc3ccccc3O)[nH]2)cc1O

>  <score_type>  (410) 
oracle

>  <origin>  (410) 
adg

>  <m_score__min__energy>  (410) 
-14.91

>  <m_primary>  (410) 
energy

$$$$
92:0
     RDKit          3D

 26 28  0  0  0  0  0  0  0  0999 V2000
   59.6270   27.3470   48.8630 O   0  0  0  0  0  0  0  0  0  0  0  0
   59.7190   28.7250   48.6540 C   0  0  0  0  0  0  0  0  0  0  0  0
   59.2860   29.5520   49.6340 N   0  0  0  0  0  0  0  0  0  0  0  0
   59.3560   30.9010   49.5200 C   0  0  0  0  0  0  0  0  0  0  0  0
   58.9400   31.6110   50.4740 O   0  0  0  0  0  0  0  0  0  0  0  0
   59.8730   31.4750   48.3870 N   0  0  0  0  0  0  0  0  0  0  0  0
   59.9130   32.9460   48.2460 C   0  0  0  0  0  0  0  0  0  0  0  0
   59.1110   33.3870   47.0500 C   0  0  0  0  0  0  0  0  0  0  0  0
   59.6790   34.2330   46.0830 C   0  0  0  0  0  0  0  0  0  0  0  0
   58.9410   34.6160   44.9590 C   0  0  0  0  0  0  0  0  0  0  0  0
   57.6330   34.1540   44.7890 C   0  0  0  0  0  0  0  0  0  0  0  0
   57.0610   33.3100   45.7440 C   0  0  0  0  0  0  0  0  0  0  0  0
   57.7950   32.9250   46.8690 C   0  0  0  0  0  0  0  0  0  0  0  0
   60.3100   30.6740   47.3600 C   0  0  0  0  0  0  0  0  0  0  0  0
   60.7420   31.1940   46.2940 O   0  0  0  0  0  0  0  0  0  0  0  0
   60.2600   29.2690   47.4770 C   0  0  0  0  0  0  0  0  0  0  0  0
   60.7030   28.3830   46.3740 C   0  0  0  0  0  0  0  0  0  0  0  0
   60.1130   27.2030   46.1310 C   0  0  0  0  0  0  0  0  0  0  0  0
   58.6430   27.0130   46.0600 C   0  0  0  0  0  0  0  0  0  0  0  0
   58.1090   25.7680   46.4320 C   0  0  0  0  0  0  0  0  0  0  0  0
   56.7300   25.5430   46.3900 C   0  0  0  0  0  0  0  0  0  0  0  0
   55.8650   26.5640   45.9860 C   0  0  0  0  0  0  0  0  0  0  0  0
   54.4950   26.3340   45.9450 O   0  0  0  0  0  0  0  0  0  0  0  0
   56.3810   27.8140   45.6290 C   0  0  0  0  0  0  0  0  0  0  0  0
   55.5240   28.8370   45.2390 O   0  0  0  0  0  0  0  0  0  0  0  0
   57.7610   28.0420   45.6690 C   0  0  0  0  0  0  0  0  0  0  0  0
  1  2  1  0
  2  3  1  0
  3  4  1  0
  4  5  2  0
  4  6  1  0
  6  7  1  0
  7  8  1  0
  8  9  2  0
  9 10  1  0
 10 11  2  0
 11 12  1  0
 12 13  2  0
  6 14  1  0
 14 15  2  0
 14 16  1  0
 16 17  1  0
 17 18  2  0
 18 19  1  0
 19 20  2  0
 20 21  1  0
 21 22  2  0
 22 23  1  0
 22 24  1  0
 24 25  1  0
 24 26  2  0
 16  2  2  0
 26 19  1  0
 13  8  1  0
M  CHG  3   3  -1  23  -1  25  -1
M  END
>  <UniqueID>  (411) 
85

>  <SMILES>  (411) 
O=c1[n-]c(O)c(/C=C/c2ccc([O-])c([O-])c2)c(=O)n1Cc1ccccc1

>  <Energy>  (411) 
55.37153024122197

>  <Genealogy>  (411) 
O=c1[n-]c(O)c(C=Cc2ccc([O-])c([O-])c2)c(=O)n1Cc1ccccc1 (protonated)
O=c1[n-]c(O)c(/C=C/c2ccc([O-])c([O-])c2)c(=O)n1Cc1ccccc1 (cis-trans isomerization)
O=c1[n-]c(O)c(/C=C/c2ccc([O-])c([O-])c2)c(=O)n1Cc1ccccc1 (3D coordinates assigned)
O=c1[n-]c(O)c(/C=C/c2ccc([O-])c([O-])c2)c(=O)n1Cc1ccccc1 (optimized conformer: 55.37153024122197 kcal/mol)

>  <smiles>  (411) 
O=c1[nH]c(O)c(C=Cc2ccc(O)c(O)c2)c(=O)n1Cc1ccccc1

>  <score_type>  (411) 
oracle

>  <origin>  (411) 
adg

>  <m_score__min__energy>  (411) 
-16.41

>  <m_primary>  (411) 
energy

$$$$
58:0
     RDKit          3D

 22 24  0  0  0  0  0  0  0  0999 V2000
   60.6670   28.3590   45.0120 O   0  0  0  0  0  0  0  0  0  0  0  0
   60.2770   28.7820   46.1340 C   0  0  0  0  0  0  0  0  0  0  0  0
   60.8970   30.0210   46.7060 C   0  0  0  0  0  0  0  0  0  0  0  0
   59.6180   31.1890   47.2880 S   0  0  0  0  0  0  0  0  0  0  0  0
   58.5380   30.9410   45.8810 C   0  0  0  0  0  0  0  0  0  0  0  0
   58.8640   31.4870   44.6640 N   0  0  0  0  0  0  0  0  0  0  0  0
   58.0670   31.3030   43.5710 C   0  0  0  0  0  0  0  0  0  0  0  0
   58.3740   31.8050   42.4580 O   0  0  0  0  0  0  0  0  0  0  0  0
   56.9150   30.5480   43.7300 C   0  0  0  0  0  0  0  0  0  0  0  0
   55.8980   30.1510   42.8970 C   0  0  0  0  0  0  0  0  0  0  0  0
   55.0290   29.4080   43.6280 N   0  0  0  0  0  0  0  0  0  0  0  0
   55.4620   29.3270   44.8840 N   0  0  0  0  0  0  0  0  0  0  0  0
   56.6080   30.0210   44.9400 C   0  0  0  0  0  0  0  0  0  0  0  0
   57.3950   30.2020   46.0270 N   0  0  0  0  0  0  0  0  0  0  0  0
   59.2850   28.0630   46.8810 N   0  0  0  0  0  0  0  0  0  0  0  0
   58.4070   27.0740   46.3150 C   0  0  0  0  0  0  0  0  0  0  0  0
   58.9050   25.9770   45.5870 C   0  0  0  0  0  0  0  0  0  0  0  0
   58.0270   25.0470   45.0220 C   0  0  0  0  0  0  0  0  0  0  0  0
   56.6470   25.2070   45.1690 C   0  0  0  0  0  0  0  0  0  0  0  0
   56.1420   26.3040   45.8730 C   0  0  0  0  0  0  0  0  0  0  0  0
   54.7690   26.4680   46.0100 O   0  0  0  0  0  0  0  0  0  0  0  0
   57.0170   27.2370   46.4370 C   0  0  0  0  0  0  0  0  0  0  0  0
  1  2  2  0
  2  3  1  0
  3  4  1  0
  4  5  1  0
  5  6  2  0
  6  7  1  0
  7  8  2  0
  7  9  1  0
  9 10  2  0
 10 11  1  0
 11 12  1  0
 12 13  2  0
 13 14  1  0
  2 15  1  0
 15 16  1  0
 16 17  2  0
 17 18  1  0
 18 19  2  0
 19 20  1  0
 20 21  1  0
 20 22  2  0
 14  5  1  0
 22 16  1  0
 13  9  1  0
M  CHG  3  11  -1  14  -1  21  -1
M  END
>  <UniqueID>  (412) 
51

>  <SMILES>  (412) 
O=C(CSc1nc(=O)c2c[n-]nc2[n-]1)Nc1cccc([O-])c1

>  <Energy>  (412) 
72.11080578640271

>  <Genealogy>  (412) 
O=C(CSc1nc(=O)c2c[n-]nc2[n-]1)Nc1cccc([O-])c1 (protonated)
O=C(CSc1nc(=O)c2c[n-]nc2[n-]1)Nc1cccc([O-])c1 (3D coordinates assigned)
O=C(CSc1nc(=O)c2c[n-]nc2[n-]1)Nc1cccc([O-])c1 (optimized conformer: 72.11080578640271 kcal/mol)

>  <smiles>  (412) 
O=C(CSc1nc(=O)c2c[nH]nc2[nH]1)Nc1cccc(O)c1

>  <score_type>  (412) 
oracle

>  <origin>  (412) 
adg

>  <m_score__min__energy>  (412) 
-14.19

>  <m_primary>  (412) 
energy

$$$$
59:0
     RDKit          3D

 25 27  0  0  0  0  0  0  0  0999 V2000
   51.2400   30.2610   48.4020 O   0  0  0  0  0  0  0  0  0  0  0  0
   51.3870   30.8390   49.5090 C   0  0  0  0  0  0  0  0  0  0  0  0
   50.9330   32.0910   49.7410 N   0  0  0  0  0  0  0  0  0  0  0  0
   51.2940   32.3010   51.0170 C   0  0  0  0  0  0  0  0  0  0  0  0
   51.0210   33.4720   51.7140 O   0  0  0  0  0  0  0  0  0  0  0  0
   51.9510   31.2020   51.5130 C   0  0  0  0  0  0  0  0  0  0  0  0
   52.4520   31.0140   52.9120 C   0  0  0  0  0  0  0  0  0  0  0  0
   53.8530   30.4670   52.8890 C   0  0  0  0  0  0  0  0  0  0  0  0
   54.2000   29.3720   53.6940 C   0  0  0  0  0  0  0  0  0  0  0  0
   55.4920   28.8440   53.6450 C   0  0  0  0  0  0  0  0  0  0  0  0
   56.4450   29.3980   52.7870 C   0  0  0  0  0  0  0  0  0  0  0  0
   56.1090   30.4870   51.9640 C   0  0  0  0  0  0  0  0  0  0  0  0
   57.0510   31.0810   51.0620 N   0  0  0  0  0  0  0  0  0  0  0  0
   58.4620   31.9700   51.5350 S   0  0  0  0  0  0  0  0  0  0  0  0
   58.1250   33.4300   51.6530 O   0  0  0  0  0  0  0  0  0  0  0  0
   58.9710   31.4520   52.8510 O   0  0  0  0  0  0  0  0  0  0  0  0
   59.7190   31.7520   50.2870 C   0  0  0  0  0  0  0  0  0  0  0  0
   59.4540   32.6500   49.1120 C   0  0  0  0  0  0  0  0  0  0  0  0
   60.1580   33.8570   48.9670 C   0  0  0  0  0  0  0  0  0  0  0  0
   59.8870   34.7050   47.8900 C   0  0  0  0  0  0  0  0  0  0  0  0
   58.9080   34.3590   46.9540 C   0  0  0  0  0  0  0  0  0  0  0  0
   58.1960   33.1660   47.0970 C   0  0  0  0  0  0  0  0  0  0  0  0
   58.4630   32.3140   48.1740 C   0  0  0  0  0  0  0  0  0  0  0  0
   54.8110   31.0120   52.0180 C   0  0  0  0  0  0  0  0  0  0  0  0
   52.0050   30.2570   50.5590 N   0  0  0  0  0  0  0  0  0  0  0  0
  1  2  2  0
  2  3  1  0
  3  4  1  0
  4  5  1  0
  4  6  2  0
  6  7  1  0
  7  8  1  0
  8  9  2  0
  9 10  1  0
 10 11  2  0
 11 12  1  0
 12 13  1  0
 13 14  1  0
 14 15  2  0
 14 16  2  0
 14 17  1  0
 17 18  1  0
 18 19  2  0
 19 20  1  0
 20 21  2  0
 21 22  1  0
 22 23  2  0
 12 24  2  0
  6 25  1  0
 25  2  1  0
 24  8  1  0
 23 18  1  0
M  CHG  4   3  -1   5  -1  13  -1  25  -1
M  END
>  <UniqueID>  (413) 
56

>  <SMILES>  (413) 
O=c1[n-]c([O-])c(Cc2cccc([N-]S(=O)(=O)Cc3ccccc3)c2)[n-]1

>  <Energy>  (413) 
66.65557130624298

>  <Genealogy>  (413) 
O=c1[n-]c([O-])c(Cc2cccc([N-]S(=O)(=O)Cc3ccccc3)c2)[n-]1 (protonated)
O=c1[n-]c([O-])c(Cc2cccc([N-]S(=O)(=O)Cc3ccccc3)c2)[n-]1 (3D coordinates assigned)
O=c1[n-]c([O-])c(Cc2cccc([N-]S(=O)(=O)Cc3ccccc3)c2)[n-]1 (optimized conformer: 66.65557130624298 kcal/mol)

>  <smiles>  (413) 
O=c1[nH]c(O)c(Cc2cccc(NS(=O)(=O)Cc3ccccc3)c2)[nH]1

>  <score_type>  (413) 
oracle

>  <origin>  (413) 
adg

>  <m_score__min__energy>  (413) 
-17.879999999999999

>  <m_primary>  (413) 
energy

$$$$
63:0
     RDKit          3D

 25 27  0  0  0  0  0  0  0  0999 V2000
   53.1590   24.2780   45.1250 C   0  0  0  0  0  0  0  0  0  0  0  0
   54.8140   24.6020   45.7050 S   0  0  0  0  0  0  0  0  0  0  0  0
   55.7740   24.1560   44.6390 O   0  0  0  0  0  0  0  0  0  0  0  0
   55.0930   23.8270   46.9630 O   0  0  0  0  0  0  0  0  0  0  0  0
   55.0450   26.3010   45.9780 N   0  0  0  0  0  0  0  0  0  0  0  0
   56.2680   27.0390   45.8190 C   0  0  0  0  0  0  0  0  0  0  0  0
   57.4530   26.4400   46.2590 C   0  0  0  0  0  0  0  0  0  0  0  0
   58.6800   27.0810   46.0880 C   0  0  0  0  0  0  0  0  0  0  0  0
   58.7350   28.3390   45.4870 C   0  0  0  0  0  0  0  0  0  0  0  0
   57.5580   28.9870   45.0900 C   0  0  0  0  0  0  0  0  0  0  0  0
   57.6570   30.2650   44.4370 N   0  0  0  0  0  0  0  0  0  0  0  0
   58.4830   31.3360   44.9130 C   0  0  0  0  0  0  0  0  0  0  0  0
   59.5760   31.0870   45.4900 O   0  0  0  0  0  0  0  0  0  0  0  0
   58.0320   32.7540   44.7500 C   0  0  0  0  0  0  0  0  0  0  0  0
   58.7180   33.6150   45.7670 C   0  0  0  0  0  0  0  0  0  0  0  0
   59.1020   34.9450   45.6020 C   0  0  0  0  0  0  0  0  0  0  0  0
   59.5260   35.4670   46.7780 N   0  0  0  0  0  0  0  0  0  0  0  0
   59.3970   34.4800   47.6780 C   0  0  0  0  0  0  0  0  0  0  0  0
   59.6350   34.5770   49.0090 N   0  0  0  0  0  0  0  0  0  0  0  0
   59.3900   33.4960   49.8090 C   0  0  0  0  0  0  0  0  0  0  0  0
   58.8840   32.2960   49.2580 C   0  0  0  0  0  0  0  0  0  0  0  0
   58.6320   32.2130   47.8780 C   0  0  0  0  0  0  0  0  0  0  0  0
   58.9080   33.3390   47.1070 C   0  0  0  0  0  0  0  0  0  0  0  0
   56.3160   28.3340   45.2590 C   0  0  0  0  0  0  0  0  0  0  0  0
   55.1450   28.9730   44.8750 O   0  0  0  0  0  0  0  0  0  0  0  0
  1  2  1  0
  2  3  2  0
  2  4  2  0
  2  5  1  0
  5  6  1  0
  6  7  2  0
  7  8  1  0
  8  9  2  0
  9 10  1  0
 10 11  1  0
 11 12  1  0
 12 13  2  0
 12 14  1  0
 14 15  1  0
 15 16  2  0
 16 17  1  0
 17 18  1  0
 18 19  2  0
 19 20  1  0
 20 21  2  0
 21 22  1  0
 22 23  2  0
 10 24  2  0
 24 25  1  0
 24  6  1  0
 23 15  1  0
 23 18  1  0
M  CHG  2   5  -1  25  -1
M  END
>  <UniqueID>  (414) 
59

>  <SMILES>  (414) 
CS(=O)(=O)[N-]c1cccc(NC(=O)Cc2c[nH]c3ncccc23)c1[O-]

>  <Energy>  (414) 
80.50377760404137

>  <Genealogy>  (414) 
CS(=O)(=O)[N-]c1cccc(NC(=O)Cc2c[nH]c3ncccc23)c1[O-] (protonated)
CS(=O)(=O)[N-]c1cccc(NC(=O)Cc2c[nH]c3ncccc23)c1[O-] (3D coordinates assigned)
CS(=O)(=O)[N-]c1cccc(NC(=O)Cc2c[nH]c3ncccc23)c1[O-] (optimized conformer: 80.50377760404137 kcal/mol)

>  <smiles>  (414) 
CS(=O)(=O)Nc1cccc(NC(=O)Cc2c[nH]c3ncccc23)c1O

>  <score_type>  (414) 
oracle

>  <origin>  (414) 
adg

>  <m_score__min__energy>  (414) 
-14.369999999999999

>  <m_primary>  (414) 
energy

$$$$
67:0
     RDKit          3D

 23 24  0  0  0  0  0  0  0  0999 V2000
   56.4630   24.4290   44.5630 C   0  0  0  0  0  0  0  0  0  0  0  0
   55.6250   24.8170   46.0810 S   0  0  0  0  0  0  0  0  0  0  0  0
   54.1810   24.4200   45.9610 O   0  0  0  0  0  0  0  0  0  0  0  0
   56.2720   24.0540   47.2030 O   0  0  0  0  0  0  0  0  0  0  0  0
   55.7350   26.5210   46.3630 N   0  0  0  0  0  0  0  0  0  0  0  0
   56.7670   27.3240   45.7870 C   0  0  0  0  0  0  0  0  0  0  0  0
   58.1000   26.9220   45.9250 C   0  0  0  0  0  0  0  0  0  0  0  0
   59.1290   27.7080   45.4040 C   0  0  0  0  0  0  0  0  0  0  0  0
   58.8340   28.9090   44.7550 C   0  0  0  0  0  0  0  0  0  0  0  0
   57.5030   29.3310   44.6190 C   0  0  0  0  0  0  0  0  0  0  0  0
   57.1350   30.8520   43.8010 S   0  0  0  0  0  0  0  0  0  0  0  0
   56.6830   30.5460   42.4010 O   0  0  0  0  0  0  0  0  0  0  0  0
   56.0240   31.5750   44.5110 O   0  0  0  0  0  0  0  0  0  0  0  0
   58.5510   31.8630   43.7310 N   0  0  0  0  0  0  0  0  0  0  0  0
   58.2390   33.2480   44.0890 C   0  0  0  0  0  0  0  0  0  0  0  0
   58.5680   33.5200   45.5320 C   0  0  0  0  0  0  0  0  0  0  0  0
   58.1790   32.6120   46.5270 C   0  0  0  0  0  0  0  0  0  0  0  0
   58.4910   32.8780   47.8620 C   0  0  0  0  0  0  0  0  0  0  0  0
   59.1610   34.0150   48.1920 N   0  0  0  0  0  0  0  0  0  0  0  0
   59.5510   34.9110   47.2480 C   0  0  0  0  0  0  0  0  0  0  0  0
   59.2700   34.6770   45.9010 C   0  0  0  0  0  0  0  0  0  0  0  0
   56.4670   28.5400   45.1460 C   0  0  0  0  0  0  0  0  0  0  0  0
   55.1480   28.9700   45.0550 O   0  0  0  0  0  0  0  0  0  0  0  0
  1  2  1  0
  2  3  2  0
  2  4  2  0
  2  5  1  0
  5  6  1  0
  6  7  2  0
  7  8  1  0
  8  9  2  0
  9 10  1  0
 10 11  1  0
 11 12  2  0
 11 13  2  0
 11 14  1  0
 14 15  1  0
 15 16  1  0
 16 17  2  0
 17 18  1  0
 18 19  2  0
 19 20  1  0
 20 21  2  0
 10 22  2  0
 22 23  1  0
 22  6  1  0
 21 16  1  0
M  CHG  3   5  -1  14  -1  23  -1
M  END
>  <UniqueID>  (415) 
63

>  <SMILES>  (415) 
CS(=O)(=O)[N-]c1cccc(S(=O)(=O)[N-]Cc2ccncc2)c1[O-]

>  <Energy>  (415) 
37.81409525144224

>  <Genealogy>  (415) 
CS(=O)(=O)[N-]c1cccc(S(=O)(=O)[N-]Cc2ccncc2)c1[O-] (protonated)
CS(=O)(=O)[N-]c1cccc(S(=O)(=O)[N-]Cc2ccncc2)c1[O-] (3D coordinates assigned)
CS(=O)(=O)[N-]c1cccc(S(=O)(=O)[N-]Cc2ccncc2)c1[O-] (optimized conformer: 37.81409525144224 kcal/mol)

>  <smiles>  (415) 
CS(=O)(=O)Nc1cccc(S(=O)(=O)NCc2ccncc2)c1O

>  <score_type>  (415) 
oracle

>  <origin>  (415) 
adg

>  <m_score__min__energy>  (415) 
-15.4

>  <m_primary>  (415) 
energy

$$$$
12:0
     RDKit          3D

 29 32  0  0  0  0  0  0  0  0999 V2000
   56.0810   20.6960   43.5300 N   0  0  0  0  0  0  0  0  0  0  0  0
   56.4010   21.2740   44.7950 C   0  0  0  0  0  0  0  0  0  0  0  0
   57.0510   20.5940   45.6340 O   0  0  0  0  0  0  0  0  0  0  0  0
   55.9780   22.6570   45.1200 C   0  0  0  0  0  0  0  0  0  0  0  0
   54.7970   23.1880   44.5700 C   0  0  0  0  0  0  0  0  0  0  0  0
   54.3980   24.4910   44.8770 C   0  0  0  0  0  0  0  0  0  0  0  0
   55.1750   25.2850   45.7240 C   0  0  0  0  0  0  0  0  0  0  0  0
   54.7690   26.5840   46.0090 O   0  0  0  0  0  0  0  0  0  0  0  0
   56.3560   24.7760   46.2830 C   0  0  0  0  0  0  0  0  0  0  0  0
   57.1300   25.6210   47.1490 N   0  0  0  0  0  0  0  0  0  0  0  0
   58.6570   26.3390   46.7530 S   0  0  0  0  0  0  0  0  0  0  0  0
   59.3990   26.6520   48.0210 O   0  0  0  0  0  0  0  0  0  0  0  0
   59.4720   25.3650   45.9480 O   0  0  0  0  0  0  0  0  0  0  0  0
   58.4010   27.8360   45.8610 C   0  0  0  0  0  0  0  0  0  0  0  0
   59.1640   28.9770   46.1840 C   0  0  0  0  0  0  0  0  0  0  0  0
   58.9670   30.1830   45.4960 C   0  0  0  0  0  0  0  0  0  0  0  0
   57.9790   30.2330   44.5050 C   0  0  0  0  0  0  0  0  0  0  0  0
   57.2610   29.1170   44.1690 C   0  0  0  0  0  0  0  0  0  0  0  0
   57.4450   27.9040   44.8320 C   0  0  0  0  0  0  0  0  0  0  0  0
   56.3510   29.3990   43.0260 C   0  0  0  0  0  0  0  0  0  0  0  0
   56.6650   30.8710   42.6750 C   0  0  0  0  0  0  0  0  0  0  0  0
   57.6390   31.3290   43.6660 N   0  0  0  0  0  0  0  0  0  0  0  0
   58.0320   32.7050   43.7970 C   0  0  0  0  0  0  0  0  0  0  0  0
   58.8370   33.1910   42.9550 O   0  0  0  0  0  0  0  0  0  0  0  0
   57.5120   33.5860   44.9100 C   0  0  0  0  0  0  0  0  0  0  0  0
   58.5390   34.5750   45.4670 C   0  0  0  0  0  0  0  0  0  0  0  0
   58.4470   33.9070   46.8320 C   0  0  0  0  0  0  0  0  0  0  0  0
   57.4530   32.8990   46.2760 C   0  0  0  0  0  0  0  0  0  0  0  0
   56.7500   23.4590   45.9800 C   0  0  0  0  0  0  0  0  0  0  0  0
  1  2  1  0
  2  3  2  0
  2  4  1  0
  4  5  2  0
  5  6  1  0
  6  7  2  0
  7  8  1  0
  7  9  1  0
  9 10  1  0
 10 11  1  0
 11 12  2  0
 11 13  2  0
 11 14  1  0
 14 15  2  0
 15 16  1  0
 16 17  2  0
 17 18  1  0
 18 19  2  0
 18 20  1  0
 20 21  1  0
 21 22  1  0
 22 23  1  0
 23 24  2  0
 23 25  1  0
 25 26  1  0
 26 27  1  0
 27 28  1  0
  9 29  2  0
 29  4  1  0
 19 14  1  0
 28 25  1  0
 22 17  1  0
M  CHG  3   1  -1   8  -1  10  -1
M  END
>  <UniqueID>  (416) 
11

>  <SMILES>  (416) 
[NH-]C(=O)c1ccc([O-])c([N-]S(=O)(=O)c2ccc3c(c2)CCN3C(=O)C2CCC2)c1

>  <Energy>  (416) 
130.97903639100488

>  <Genealogy>  (416) 
[NH-]C(=O)c1ccc([O-])c([N-]S(=O)(=O)c2ccc3c(c2)CCN3C(=O)C2CCC2)c1 (protonated)
[NH-]C(=O)c1ccc([O-])c([N-]S(=O)(=O)c2ccc3c(c2)CCN3C(=O)C2CCC2)c1 (3D coordinates assigned)
[NH-]C(=O)c1ccc([O-])c([N-]S(=O)(=O)c2ccc3c(c2)CCN3C(=O)C2CCC2)c1 (nonaromatic ring conformer: 130.97903639100488 kcal/mol)

>  <smiles>  (416) 
NC(=O)c1ccc(O)c(NS(=O)(=O)c2ccc3c(c2)CCN3C(=O)C2CCC2)c1

>  <score_type>  (416) 
oracle

>  <origin>  (416) 
adg

>  <m_score__min__energy>  (416) 
-16.949999999999999

>  <m_primary>  (416) 
energy

$$$$
20:0
     RDKit          3D

 30 32  0  0  0  0  0  0  0  0999 V2000
   58.9320   32.7110   49.8860 C   0  0  0  0  0  0  0  0  0  0  0  0
   59.4200   33.6010   48.8400 N   0  0  0  0  0  0  0  0  0  0  0  0
   59.2900   33.3540   47.4350 C   0  0  0  0  0  0  0  0  0  0  0  0
   58.9850   34.3110   46.6760 O   0  0  0  0  0  0  0  0  0  0  0  0
   59.5250   32.0170   46.8480 C   0  0  0  0  0  0  0  0  0  0  0  0
   58.5260   31.4280   46.0550 C   0  0  0  0  0  0  0  0  0  0  0  0
   58.7470   30.1930   45.4220 C   0  0  0  0  0  0  0  0  0  0  0  0
   57.7400   29.5530   44.6250 N   0  0  0  0  0  0  0  0  0  0  0  0
   56.7260   28.6500   45.0850 C   0  0  0  0  0  0  0  0  0  0  0  0
   55.5270   29.0320   45.1500 O   0  0  0  0  0  0  0  0  0  0  0  0
   57.0840   27.2470   45.4280 C   0  0  0  0  0  0  0  0  0  0  0  0
   58.4130   26.8200   45.2890 C   0  0  0  0  0  0  0  0  0  0  0  0
   58.7770   25.5110   45.5980 C   0  0  0  0  0  0  0  0  0  0  0  0
   57.8240   24.5860   46.0610 C   0  0  0  0  0  0  0  0  0  0  0  0
   58.1940   23.2690   46.3770 O   0  0  0  0  0  0  0  0  0  0  0  0
   58.1170   22.1630   45.4840 C   0  0  0  0  0  0  0  0  0  0  0  0
   56.4770   25.0030   46.2100 C   0  0  0  0  0  0  0  0  0  0  0  0
   55.4440   24.1600   46.6630 O   0  0  0  0  0  0  0  0  0  0  0  0
   54.3100   23.7320   45.9180 C   0  0  0  0  0  0  0  0  0  0  0  0
   56.1220   26.3260   45.8950 C   0  0  0  0  0  0  0  0  0  0  0  0
   54.7950   26.7130   46.0600 O   0  0  0  0  0  0  0  0  0  0  0  0
   59.9680   29.5380   45.6090 C   0  0  0  0  0  0  0  0  0  0  0  0
   60.9750   30.1230   46.3770 C   0  0  0  0  0  0  0  0  0  0  0  0
   60.7670   31.3600   47.0010 C   0  0  0  0  0  0  0  0  0  0  0  0
   61.8180   31.9340   47.7970 N   0  0  0  0  0  0  0  0  0  0  0  0
   62.1210   31.5510   49.1650 C   0  0  0  0  0  0  0  0  0  0  0  0
   63.3570   32.3790   49.5690 C   0  0  0  0  0  0  0  0  0  0  0  0
   63.5560   33.4540   48.4890 C   0  0  0  0  0  0  0  0  0  0  0  0
   62.6040   33.0540   47.4340 C   0  0  0  0  0  0  0  0  0  0  0  0
   62.4670   33.6720   46.3450 O   0  0  0  0  0  0  0  0  0  0  0  0
  1  2  1  0
  2  3  1  0
  3  4  2  0
  3  5  1  0
  5  6  2  0
  6  7  1  0
  7  8  1  0
  8  9  1  0
  9 10  2  0
  9 11  1  0
 11 12  2  0
 12 13  1  0
 13 14  2  0
 14 15  1  0
 15 16  1  0
 14 17  1  0
 17 18  1  0
 18 19  1  0
 17 20  2  0
 20 21  1  0
  7 22  2  0
 22 23  1  0
 23 24  2  0
 24 25  1  0
 25 26  1  0
 26 27  1  0
 27 28  1  0
 28 29  1  0
 29 30  2  0
 24  5  1  0
 29 25  1  0
 20 11  1  0
M  CHG  3   2  -1   8  -1  21  -1
M  END
>  <UniqueID>  (417) 
19

>  <SMILES>  (417) 
C[N-]C(=O)c1cc([N-]C(=O)c2ccc(OC)c(OC)c2[O-])ccc1N1CCCC1=O

>  <Energy>  (417) 
75.75228703588297

>  <Genealogy>  (417) 
C[N-]C(=O)c1cc([N-]C(=O)c2ccc(OC)c(OC)c2[O-])ccc1N1CCCC1=O (protonated)
C[N-]C(=O)c1cc([N-]C(=O)c2ccc(OC)c(OC)c2[O-])ccc1N1CCCC1=O (3D coordinates assigned)
C[N-]C(=O)c1cc([N-]C(=O)c2ccc(OC)c(OC)c2[O-])ccc1N1CCCC1=O (nonaromatic ring conformer: 75.75228703588297 kcal/mol)

>  <smiles>  (417) 
CNC(=O)c1cc(NC(=O)c2ccc(OC)c(OC)c2O)ccc1N1CCCC1=O

>  <score_type>  (417) 
oracle

>  <origin>  (417) 
adg

>  <m_score__min__energy>  (417) 
-14.25

>  <m_primary>  (417) 
energy

$$$$
38:0
     RDKit          3D

 26 28  0  0  0  0  0  0  0  0999 V2000
   56.2240   31.5130   44.5540 O   0  0  0  0  0  0  0  0  0  0  0  0
   57.2070   30.4140   44.8430 S   0  0  0  0  0  0  0  0  0  0  0  0
   58.0500   30.2070   43.6150 O   0  0  0  0  0  0  0  0  0  0  0  0
   56.3270   28.9690   45.2270 N   0  0  0  0  0  0  0  0  0  0  0  0
   56.9060   27.6920   45.5320 C   0  0  0  0  0  0  0  0  0  0  0  0
   58.2960   27.5550   45.4230 C   0  0  0  0  0  0  0  0  0  0  0  0
   58.9170   26.3380   45.7220 C   0  0  0  0  0  0  0  0  0  0  0  0
   58.1530   25.2510   46.1500 C   0  0  0  0  0  0  0  0  0  0  0  0
   56.7700   25.3810   46.2870 C   0  0  0  0  0  0  0  0  0  0  0  0
   56.1420   26.5980   45.9930 C   0  0  0  0  0  0  0  0  0  0  0  0
   54.7750   26.7090   46.2050 O   0  0  0  0  0  0  0  0  0  0  0  0
   58.1970   30.9000   46.2160 C   0  0  0  0  0  0  0  0  0  0  0  0
   58.5040   29.9690   47.2170 C   0  0  0  0  0  0  0  0  0  0  0  0
   59.2750   30.3470   48.3190 C   0  0  0  0  0  0  0  0  0  0  0  0
   59.7550   31.6550   48.4200 C   0  0  0  0  0  0  0  0  0  0  0  0
   59.4800   32.5880   47.4120 C   0  0  0  0  0  0  0  0  0  0  0  0
   60.1410   34.2230   47.5070 S   0  0  0  0  0  0  0  0  0  0  0  0
   59.4470   34.9690   48.6140 O   0  0  0  0  0  0  0  0  0  0  0  0
   59.8690   34.9450   46.2180 O   0  0  0  0  0  0  0  0  0  0  0  0
   61.8680   34.2050   47.7890 N   0  0  0  0  0  0  0  0  0  0  0  0
   62.5740   33.3410   46.8090 C   0  0  0  0  0  0  0  0  0  0  0  0
   62.9940   31.9870   47.4000 C   0  0  0  0  0  0  0  0  0  0  0  0
   63.9090   32.1690   48.6220 C   0  0  0  0  0  0  0  0  0  0  0  0
   63.6150   33.4640   49.4000 C   0  0  0  0  0  0  0  0  0  0  0  0
   62.1600   33.9010   49.2070 C   0  0  0  0  0  0  0  0  0  0  0  0
   58.6880   32.2090   46.3170 C   0  0  0  0  0  0  0  0  0  0  0  0
  1  2  2  0
  2  3  2  0
  2  4  1  0
  4  5  1  0
  5  6  2  0
  6  7  1  0
  7  8  2  0
  8  9  1  0
  9 10  2  0
 10 11  1  0
  2 12  1  0
 12 13  2  0
 13 14  1  0
 14 15  2  0
 15 16  1  0
 16 17  1  0
 17 18  2  0
 17 19  2  0
 17 20  1  0
 20 21  1  0
 21 22  1  0
 22 23  1  0
 23 24  1  0
 24 25  1  0
 16 26  2  0
 10  5  1  0
 26 12  1  0
 25 20  1  0
M  CHG  2   4  -1  11  -1
M  END
>  <UniqueID>  (418) 
35

>  <SMILES>  (418) 
O=S(=O)([N-]c1ccccc1[O-])c1cccc(S(=O)(=O)N2CCCCC2)c1

>  <Energy>  (418) 
55.81040223389657

>  <Genealogy>  (418) 
O=S(=O)([N-]c1ccccc1[O-])c1cccc(S(=O)(=O)N2CCCCC2)c1 (protonated)
O=S(=O)([N-]c1ccccc1[O-])c1cccc(S(=O)(=O)N2CCCCC2)c1 (3D coordinates assigned)
O=S(=O)([N-]c1ccccc1[O-])c1cccc(S(=O)(=O)N2CCCCC2)c1 (nonaromatic ring conformer: 55.81040223389657 kcal/mol)

>  <smiles>  (418) 
O=S(=O)(Nc1ccccc1O)c1cccc(S(=O)(=O)N2CCCCC2)c1

>  <score_type>  (418) 
oracle

>  <origin>  (418) 
adg

>  <m_score__min__energy>  (418) 
-15.289999999999999

>  <m_primary>  (418) 
energy

$$$$
47:0
     RDKit          3D

 29 31  0  0  0  0  0  0  0  0999 V2000
   54.8200   26.7060   46.0840 O   0  0  0  0  0  0  0  0  0  0  0  0
   55.1870   25.4280   45.6720 C   0  0  0  0  0  0  0  0  0  0  0  0
   54.2940   24.4090   45.8090 N   0  0  0  0  0  0  0  0  0  0  0  0
   54.5820   23.1380   45.4280 C   0  0  0  0  0  0  0  0  0  0  0  0
   53.7220   22.2300   45.5750 O   0  0  0  0  0  0  0  0  0  0  0  0
   55.8280   22.8420   44.8780 C   0  0  0  0  0  0  0  0  0  0  0  0
   56.7670   23.8620   44.7220 C   0  0  0  0  0  0  0  0  0  0  0  0
   56.4650   25.1790   45.1170 C   0  0  0  0  0  0  0  0  0  0  0  0
   57.4760   26.2560   44.9430 C   0  0  0  0  0  0  0  0  0  0  0  0
   58.4310   26.1010   44.1370 O   0  0  0  0  0  0  0  0  0  0  0  0
   57.3500   27.4750   45.6990 N   0  0  0  0  0  0  0  0  0  0  0  0
   57.2120   28.6850   45.2420 C   0  0  0  0  0  0  0  0  0  0  0  0
   55.9970   29.2210   44.9950 N   0  0  0  0  0  0  0  0  0  0  0  0
   56.0560   30.4700   44.5350 N   0  0  0  0  0  0  0  0  0  0  0  0
   57.3180   30.9320   44.4100 C   0  0  0  0  0  0  0  0  0  0  0  0
   57.7210   32.5820   43.8410 S   0  0  0  0  0  0  0  0  0  0  0  0
   57.4040   33.3960   45.4450 C   0  0  0  0  0  0  0  0  0  0  0  0
   58.4840   34.3890   45.7720 C   0  0  0  0  0  0  0  0  0  0  0  0
   58.9560   35.1040   44.8490 O   0  0  0  0  0  0  0  0  0  0  0  0
   59.0690   34.4790   47.0790 N   0  0  0  0  0  0  0  0  0  0  0  0
   60.4220   34.1660   47.4330 C   0  0  0  0  0  0  0  0  0  0  0  0
   61.3590   33.8960   46.4200 C   0  0  0  0  0  0  0  0  0  0  0  0
   62.6720   33.5480   46.7370 C   0  0  0  0  0  0  0  0  0  0  0  0
   63.0620   33.4450   48.0710 C   0  0  0  0  0  0  0  0  0  0  0  0
   62.1380   33.6810   49.0880 C   0  0  0  0  0  0  0  0  0  0  0  0
   60.8140   34.0370   48.7940 C   0  0  0  0  0  0  0  0  0  0  0  0
   59.9630   34.2540   49.8930 O   0  0  0  0  0  0  0  0  0  0  0  0
   59.3740   33.2590   50.7230 C   0  0  0  0  0  0  0  0  0  0  0  0
   58.4500   29.7830   44.8890 S   0  0  0  0  0  0  0  0  0  0  0  0
  1  2  1  0
  2  3  1  0
  3  4  1  0
  4  5  2  0
  4  6  1  0
  6  7  2  0
  7  8  1  0
  8  9  1  0
  9 10  2  0
  9 11  1  0
 11 12  2  0
 12 13  1  0
 13 14  1  0
 14 15  2  0
 15 16  1  0
 16 17  1  0
 17 18  1  0
 18 19  2  0
 18 20  1  0
 20 21  1  0
 21 22  2  0
 22 23  1  0
 23 24  2  0
 24 25  1  0
 25 26  2  0
 26 27  1  0
 27 28  1  0
 15 29  1  0
  8  2  2  0
 29 12  1  0
 26 21  1  0
M  CHG  3   3  -1  13  -1  20  -1
M  END
>  <UniqueID>  (419) 
42

>  <SMILES>  (419) 
COc1ccccc1[N-]C(=O)CSc1n[n-]/c(=N/C(=O)c2ccc(=O)[n-]c2O)s1

>  <Energy>  (419) 
88.76913412477147

>  <Genealogy>  (419) 
COc1ccccc1[N-]C(=O)CSc1n[n-]c(=NC(=O)c2ccc(=O)[n-]c2O)s1 (protonated)
COc1ccccc1[N-]C(=O)CSc1n[n-]/c(=N/C(=O)c2ccc(=O)[n-]c2O)s1 (cis-trans isomerization)
COc1ccccc1[N-]C(=O)CSc1n[n-]/c(=N/C(=O)c2ccc(=O)[n-]c2O)s1 (3D coordinates assigned)
COc1ccccc1[N-]C(=O)CSc1n[n-]/c(=N/C(=O)c2ccc(=O)[n-]c2O)s1 (optimized conformer: 88.76913412477147 kcal/mol)

>  <smiles>  (419) 
COc1ccccc1NC(=O)CSc1n[nH]c(=NC(=O)c2ccc(=O)[nH]c2O)s1

>  <score_type>  (419) 
oracle

>  <origin>  (419) 
adg

>  <m_score__min__energy>  (419) 
-14.26

>  <m_primary>  (419) 
energy

$$$$
52:0
     RDKit          3D

 30 32  0  0  0  0  0  0  0  0999 V2000
   55.0420   22.2690   49.1400 C   0  0  0  0  0  0  0  0  0  0  0  0
   56.3420   22.9150   48.1070 S   0  0  0  0  0  0  0  0  0  0  0  0
   57.0500   21.7880   47.4080 O   0  0  0  0  0  0  0  0  0  0  0  0
   57.3310   23.6430   48.9720 O   0  0  0  0  0  0  0  0  0  0  0  0
   55.7080   24.0210   46.9310 N   0  0  0  0  0  0  0  0  0  0  0  0
   56.4570   25.1660   46.5090 C   0  0  0  0  0  0  0  0  0  0  0  0
   57.8580   25.1450   46.5320 C   0  0  0  0  0  0  0  0  0  0  0  0
   58.5850   26.2570   46.1010 C   0  0  0  0  0  0  0  0  0  0  0  0
   57.9190   27.4030   45.6580 C   0  0  0  0  0  0  0  0  0  0  0  0
   56.5220   27.4440   45.6460 C   0  0  0  0  0  0  0  0  0  0  0  0
   55.8640   28.6470   45.2430 N   0  0  0  0  0  0  0  0  0  0  0  0
   56.5780   29.7270   44.0930 S   0  0  0  0  0  0  0  0  0  0  0  0
   57.3820   28.9300   43.1040 O   0  0  0  0  0  0  0  0  0  0  0  0
   55.5110   30.4820   43.3460 O   0  0  0  0  0  0  0  0  0  0  0  0
   57.6390   30.8530   44.9360 C   0  0  0  0  0  0  0  0  0  0  0  0
   58.7980   30.3930   45.5740 C   0  0  0  0  0  0  0  0  0  0  0  0
   59.6220   31.2860   46.2670 C   0  0  0  0  0  0  0  0  0  0  0  0
   59.2860   32.6470   46.3480 C   0  0  0  0  0  0  0  0  0  0  0  0
   60.1670   33.5960   47.0640 C   0  0  0  0  0  0  0  0  0  0  0  0
   59.8690   34.8230   47.0820 O   0  0  0  0  0  0  0  0  0  0  0  0
   61.3700   33.1530   47.7160 N   0  0  0  0  0  0  0  0  0  0  0  0
   61.3310   31.9780   48.6040 C   0  0  0  0  0  0  0  0  0  0  0  0
   62.4960   31.9900   49.6030 C   0  0  0  0  0  0  0  0  0  0  0  0
   63.8640   32.1870   48.9170 C   0  0  0  0  0  0  0  0  0  0  0  0
   63.8150   33.0730   47.6540 C   0  0  0  0  0  0  0  0  0  0  0  0
   62.5810   33.9780   47.6370 C   0  0  0  0  0  0  0  0  0  0  0  0
   58.1250   33.1050   45.7020 C   0  0  0  0  0  0  0  0  0  0  0  0
   57.3060   32.2130   45.0030 C   0  0  0  0  0  0  0  0  0  0  0  0
   55.7890   26.3150   46.0480 C   0  0  0  0  0  0  0  0  0  0  0  0
   54.4000   26.3300   45.9920 O   0  0  0  0  0  0  0  0  0  0  0  0
  1  2  1  0
  2  3  2  0
  2  4  2  0
  2  5  1  0
  5  6  1  0
  6  7  2  0
  7  8  1  0
  8  9  2  0
  9 10  1  0
 10 11  1  0
 11 12  1  0
 12 13  2  0
 12 14  2  0
 12 15  1  0
 15 16  2  0
 16 17  1  0
 17 18  2  0
 18 19  1  0
 19 20  2  0
 19 21  1  0
 21 22  1  0
 22 23  1  0
 23 24  1  0
 24 25  1  0
 25 26  1  0
 18 27  1  0
 27 28  2  0
 10 29  2  0
 29 30  1  0
 29  6  1  0
 28 15  1  0
 26 21  1  0
M  CHG  2  11  -1  30  -1
M  END
>  <UniqueID>  (420) 
47

>  <SMILES>  (420) 
CS(=O)(=O)Nc1cccc([N-]S(=O)(=O)c2ccc(C(=O)N3CCCCC3)cc2)c1[O-]

>  <Energy>  (420) 
68.50482408306686

>  <Genealogy>  (420) 
CS(=O)(=O)Nc1cccc([N-]S(=O)(=O)c2ccc(C(=O)N3CCCCC3)cc2)c1[O-] (protonated)
CS(=O)(=O)Nc1cccc([N-]S(=O)(=O)c2ccc(C(=O)N3CCCCC3)cc2)c1[O-] (3D coordinates assigned)
CS(=O)(=O)Nc1cccc([N-]S(=O)(=O)c2ccc(C(=O)N3CCCCC3)cc2)c1[O-] (nonaromatic ring conformer: 68.50482408306686 kcal/mol)

>  <smiles>  (420) 
CS(=O)(=O)Nc1cccc(NS(=O)(=O)c2ccc(C(=O)N3CCCCC3)cc2)c1O

>  <score_type>  (420) 
oracle

>  <origin>  (420) 
adg

>  <m_score__min__energy>  (420) 
-15.800000000000001

>  <m_primary>  (420) 
energy

$$$$
76:0
     RDKit          3D

 28 30  0  0  0  0  0  0  0  0999 V2000
   58.5610   26.0850   46.3050 C   0  0  0  0  0  0  0  0  0  0  0  0
   57.9880   27.1910   45.7630 N   0  0  0  0  0  0  0  0  0  0  0  0
   56.6390   27.3550   45.6810 C   0  0  0  0  0  0  0  0  0  0  0  0
   56.1970   28.4610   45.1450 N   0  0  0  0  0  0  0  0  0  0  0  0
   56.7410   29.7850   45.2350 C   0  0  0  0  0  0  0  0  0  0  0  0
   56.1950   30.7460   44.6300 O   0  0  0  0  0  0  0  0  0  0  0  0
   57.9260   30.0370   46.1140 C   0  0  0  0  0  0  0  0  0  0  0  0
   59.1810   30.2350   45.2620 C   0  0  0  0  0  0  0  0  0  0  0  0
   60.4110   30.1130   46.1050 C   0  0  0  0  0  0  0  0  0  0  0  0
   61.4000   29.4580   45.6780 O   0  0  0  0  0  0  0  0  0  0  0  0
   60.4560   30.7690   47.3780 N   0  0  0  0  0  0  0  0  0  0  0  0
   61.3520   31.8200   47.7740 C   0  0  0  0  0  0  0  0  0  0  0  0
   62.5450   31.5490   48.4690 C   0  0  0  0  0  0  0  0  0  0  0  0
   63.3790   32.5970   48.8740 C   0  0  0  0  0  0  0  0  0  0  0  0
   64.8670   32.2500   49.7370 Cl  0  0  0  0  0  0  0  0  0  0  0  0
   63.0200   33.9200   48.6060 C   0  0  0  0  0  0  0  0  0  0  0  0
   61.8260   34.1990   47.9400 C   0  0  0  0  0  0  0  0  0  0  0  0
   60.9870   33.1570   47.5250 C   0  0  0  0  0  0  0  0  0  0  0  0
   59.7640   33.4700   46.8480 N   0  0  0  0  0  0  0  0  0  0  0  0
   59.8190   34.2140   45.5890 C   0  0  0  0  0  0  0  0  0  0  0  0
   58.5480   33.9440   44.7750 C   0  0  0  0  0  0  0  0  0  0  0  0
   57.3910   34.1650   45.5590 O   0  0  0  0  0  0  0  0  0  0  0  0
   57.3400   33.2260   46.6170 C   0  0  0  0  0  0  0  0  0  0  0  0
   58.5020   33.4420   47.5900 C   0  0  0  0  0  0  0  0  0  0  0  0
   55.7970   26.3070   46.1380 C   0  0  0  0  0  0  0  0  0  0  0  0
   54.4150   26.3390   45.9890 O   0  0  0  0  0  0  0  0  0  0  0  0
   56.3760   25.1710   46.7120 C   0  0  0  0  0  0  0  0  0  0  0  0
   57.7610   25.0580   46.8020 C   0  0  0  0  0  0  0  0  0  0  0  0
  1  2  1  0
  2  3  1  0
  3  4  2  0
  4  5  1  0
  5  6  2  0
  5  7  1  0
  7  8  1  0
  8  9  1  0
  9 10  2  0
  9 11  1  0
 11 12  1  0
 12 13  2  0
 13 14  1  0
 14 15  1  0
 14 16  2  0
 16 17  1  0
 17 18  2  0
 18 19  1  0
 19 20  1  0
 20 21  1  0
 21 22  1  0
 22 23  1  0
 23 24  1  0
  3 25  1  0
 25 26  1  0
 25 27  2  0
 27 28  1  0
 28  1  2  0
 18 12  1  0
 24 19  1  0
M  CHG  3   2  -1  11  -1  26  -1
M  END
>  <UniqueID>  (421) 
70

>  <SMILES>  (421) 
O=C(CCC(=O)[N-]c1cc(Cl)ccc1N1CCOCC1)/N=c1/[n-]cccc1[O-]

>  <Energy>  (421) 
65.15147804331302

>  <Genealogy>  (421) 
O=C(CCC(=O)[N-]c1cc(Cl)ccc1N1CCOCC1)N=c1[n-]cccc1[O-] (protonated)
O=C(CCC(=O)[N-]c1cc(Cl)ccc1N1CCOCC1)/N=c1/[n-]cccc1[O-] (cis-trans isomerization)
O=C(CCC(=O)[N-]c1cc(Cl)ccc1N1CCOCC1)/N=c1/[n-]cccc1[O-] (3D coordinates assigned)
O=C(CCC(=O)[N-]c1cc(Cl)ccc1N1CCOCC1)/N=c1/[n-]cccc1[O-] (nonaromatic ring conformer: 65.15147804331302 kcal/mol)

>  <smiles>  (421) 
O=C(CCC(=O)Nc1cc(Cl)ccc1N1CCOCC1)N=c1[nH]cccc1O

>  <score_type>  (421) 
oracle

>  <origin>  (421) 
adg

>  <m_score__min__energy>  (421) 
-14.75

>  <m_primary>  (421) 
energy

$$$$
1:0
     RDKit          3D

 25 27  0  0  0  0  0  0  0  0999 V2000
   58.7140   26.9580   46.4040 C   0  0  0  0  0  0  0  0  0  0  0  0
   57.9390   27.8840   45.7800 N   0  0  0  0  0  0  0  0  0  0  0  0
   56.5950   27.7120   45.6170 C   0  0  0  0  0  0  0  0  0  0  0  0
   55.8660   28.6190   45.0350 N   0  0  0  0  0  0  0  0  0  0  0  0
   56.3130   29.8960   44.5530 C   0  0  0  0  0  0  0  0  0  0  0  0
   55.5480   30.8990   44.5530 O   0  0  0  0  0  0  0  0  0  0  0  0
   57.7160   30.0360   44.0420 C   0  0  0  0  0  0  0  0  0  0  0  0
   57.9470   31.3980   43.3790 C   0  0  0  0  0  0  0  0  0  0  0  0
   57.9270   32.5110   44.3820 C   0  0  0  0  0  0  0  0  0  0  0  0
   57.5320   33.7680   44.1060 N   0  0  0  0  0  0  0  0  0  0  0  0
   57.6900   34.4600   45.2230 N   0  0  0  0  0  0  0  0  0  0  0  0
   58.1720   33.5940   46.1360 C   0  0  0  0  0  0  0  0  0  0  0  0
   58.5330   33.9680   47.5350 C   0  0  0  0  0  0  0  0  0  0  0  0
   60.0160   33.8260   47.7420 C   0  0  0  0  0  0  0  0  0  0  0  0
   60.5520   33.8370   49.0400 C   0  0  0  0  0  0  0  0  0  0  0  0
   61.9300   33.7070   49.2350 C   0  0  0  0  0  0  0  0  0  0  0  0
   62.7900   33.5770   48.1340 C   0  0  0  0  0  0  0  0  0  0  0  0
   64.2640   33.3860   48.3370 C   0  0  0  0  0  0  0  0  0  0  0  0
   62.2560   33.5750   46.8380 C   0  0  0  0  0  0  0  0  0  0  0  0
   60.8790   33.7110   46.6420 C   0  0  0  0  0  0  0  0  0  0  0  0
   58.3220   32.3950   45.6270 O   0  0  0  0  0  0  0  0  0  0  0  0
   55.9870   26.5460   46.1060 C   0  0  0  0  0  0  0  0  0  0  0  0
   54.6210   26.3380   45.9500 O   0  0  0  0  0  0  0  0  0  0  0  0
   56.7680   25.5810   46.7480 C   0  0  0  0  0  0  0  0  0  0  0  0
   58.1400   25.7870   46.9020 C   0  0  0  0  0  0  0  0  0  0  0  0
  1  2  1  0
  2  3  1  0
  3  4  2  0
  4  5  1  0
  5  6  2  0
  5  7  1  0
  7  8  1  0
  8  9  1  0
  9 10  2  0
 10 11  1  0
 11 12  2  0
 12 13  1  0
 13 14  1  0
 14 15  2  0
 15 16  1  0
 16 17  2  0
 17 18  1  0
 17 19  1  0
 19 20  2  0
 12 21  1  0
  3 22  1  0
 22 23  1  0
 22 24  2  0
 24 25  1  0
 25  1  2  0
 21  9  1  0
 20 14  1  0
M  CHG  2   2  -1  23  -1
M  END
>  <UniqueID>  (422) 
2

>  <SMILES>  (422) 
Cc1ccc(Cc2nnc(CCC(=O)/N=c3\[n-]cccc3[O-])o2)cc1

>  <Energy>  (422) 
71.12269374680399

>  <Genealogy>  (422) 
Cc1ccc(Cc2nnc(CCC(=O)N=c3[n-]cccc3[O-])o2)cc1 (protonated)
Cc1ccc(Cc2nnc(CCC(=O)/N=c3\[n-]cccc3[O-])o2)cc1 (cis-trans isomerization)
Cc1ccc(Cc2nnc(CCC(=O)/N=c3\[n-]cccc3[O-])o2)cc1 (3D coordinates assigned)
Cc1ccc(Cc2nnc(CCC(=O)/N=c3\[n-]cccc3[O-])o2)cc1 (optimized conformer: 71.12269374680399 kcal/mol)

>  <smiles>  (422) 
Cc1ccc(Cc2nnc(CCC(=O)N=c3[nH]cccc3O)o2)cc1

>  <score_type>  (422) 
oracle

>  <origin>  (422) 
adg

>  <m_score__min__energy>  (422) 
-14.140000000000001

>  <m_primary>  (422) 
energy

$$$$
5:0
     RDKit          3D

 24 26  0  0  0  0  0  0  0  0999 V2000
   54.3910   29.2460   52.6420 O   0  0  0  0  0  0  0  0  0  0  0  0
   54.4300   30.3430   52.0200 C   0  0  0  0  0  0  0  0  0  0  0  0
   55.6790   31.0490   51.8860 N   0  0  0  0  0  0  0  0  0  0  0  0
   56.9020   30.6360   52.5200 C   0  0  0  0  0  0  0  0  0  0  0  0
   57.3760   29.3320   52.3140 C   0  0  0  0  0  0  0  0  0  0  0  0
   58.5750   28.9130   52.8960 C   0  0  0  0  0  0  0  0  0  0  0  0
   59.3250   29.7960   53.6880 C   0  0  0  0  0  0  0  0  0  0  0  0
   60.6350   29.3580   54.2820 C   0  0  0  0  0  0  0  0  0  0  0  0
   61.1650   28.1570   53.5460 C   0  0  0  0  0  0  0  0  0  0  0  0
   61.7970   28.3090   52.3030 C   0  0  0  0  0  0  0  0  0  0  0  0
   62.2510   27.1790   51.6190 C   0  0  0  0  0  0  0  0  0  0  0  0
   62.0700   25.9400   52.1520 N   0  0  0  0  0  0  0  0  0  0  0  0
   61.4510   25.7640   53.3500 C   0  0  0  0  0  0  0  0  0  0  0  0
   60.9830   26.8680   54.0670 C   0  0  0  0  0  0  0  0  0  0  0  0
   58.8720   31.1130   53.8650 C   0  0  0  0  0  0  0  0  0  0  0  0
   57.6720   31.5310   53.2820 C   0  0  0  0  0  0  0  0  0  0  0  0
   53.1770   30.8760   51.4320 C   0  0  0  0  0  0  0  0  0  0  0  0
   52.4900   31.9540   52.0160 C   0  0  0  0  0  0  0  0  0  0  0  0
   51.3150   32.4290   51.4250 C   0  0  0  0  0  0  0  0  0  0  0  0
   50.6290   33.4940   51.9960 O   0  0  0  0  0  0  0  0  0  0  0  0
   50.8440   31.8550   50.2870 N   0  0  0  0  0  0  0  0  0  0  0  0
   51.4900   30.8190   49.6900 C   0  0  0  0  0  0  0  0  0  0  0  0
   51.0220   30.3150   48.6360 O   0  0  0  0  0  0  0  0  0  0  0  0
   52.6680   30.3150   50.2470 C   0  0  0  0  0  0  0  0  0  0  0  0
  1  2  2  0
  2  3  1  0
  3  4  1  0
  4  5  2  0
  5  6  1  0
  6  7  2  0
  7  8  1  0
  8  9  1  0
  9 10  2  0
 10 11  1  0
 11 12  2  0
 12 13  1  0
 13 14  2  0
  7 15  1  0
 15 16  2  0
  2 17  1  0
 17 18  1  0
 18 19  2  0
 19 20  1  0
 19 21  1  0
 21 22  1  0
 22 23  2  0
 22 24  1  0
 16  4  1  0
 24 17  2  0
 14  9  1  0
M  CHG  2  20  -1  21  -1
M  END
>  <UniqueID>  (423) 
6

>  <SMILES>  (423) 
O=C(Nc1ccc(Cc2ccncc2)cc1)c1cc([O-])[n-]c(=O)c1

>  <Energy>  (423) 
47.217482774105484

>  <Genealogy>  (423) 
O=C(Nc1ccc(Cc2ccncc2)cc1)c1cc([O-])[n-]c(=O)c1 (protonated)
O=C(Nc1ccc(Cc2ccncc2)cc1)c1cc([O-])[n-]c(=O)c1 (3D coordinates assigned)
O=C(Nc1ccc(Cc2ccncc2)cc1)c1cc([O-])[n-]c(=O)c1 (optimized conformer: 47.217482774105484 kcal/mol)

>  <smiles>  (423) 
O=C(Nc1ccc(Cc2ccncc2)cc1)c1cc(O)[nH]c(=O)c1

>  <score_type>  (423) 
oracle

>  <origin>  (423) 
adg

>  <m_score__min__energy>  (423) 
-14.119999999999999

>  <m_primary>  (423) 
energy

$$$$
20:0
     RDKit          3D

 28 32  0  0  0  0  0  0  0  0999 V2000
   59.4470   27.5520   47.5460 C   0  0  0  0  0  0  0  0  0  0  0  0
   60.3330   28.4650   47.8190 N   0  0  0  0  0  0  0  0  0  0  0  0
   60.3270   29.3730   46.7520 N   0  0  0  0  0  0  0  0  0  0  0  0
   60.3870   30.7120   46.8380 C   0  0  0  0  0  0  0  0  0  0  0  0
   61.0790   31.3400   47.7380 N   0  0  0  0  0  0  0  0  0  0  0  0
   62.4070   31.8810   47.4740 C   0  0  0  0  0  0  0  0  0  0  0  0
   62.7110   33.1540   48.2440 C   0  0  0  0  0  0  0  0  0  0  0  0
   62.3680   33.2200   46.7620 C   0  0  0  0  0  0  0  0  0  0  0  0
   59.5360   31.3150   45.9720 N   0  0  0  0  0  0  0  0  0  0  0  0
   58.9330   30.2430   45.3950 C   0  0  0  0  0  0  0  0  0  0  0  0
   57.8920   30.3300   44.6210 N   0  0  0  0  0  0  0  0  0  0  0  0
   57.0340   31.5070   44.5140 C   0  0  0  0  0  0  0  0  0  0  0  0
   57.7630   32.6800   43.8430 C   0  0  0  0  0  0  0  0  0  0  0  0
   57.9160   33.8200   44.7720 N   0  0  0  0  0  0  0  0  0  0  0  0
   57.5500   33.4930   46.1590 C   0  0  0  0  0  0  0  0  0  0  0  0
   58.4630   34.2950   47.0800 C   0  0  0  0  0  0  0  0  0  0  0  0
   59.4740   34.9660   46.1680 C   0  0  0  0  0  0  0  0  0  0  0  0
   59.3070   34.2720   44.8330 C   0  0  0  0  0  0  0  0  0  0  0  0
   59.4420   29.0730   45.8350 N   0  0  0  0  0  0  0  0  0  0  0  0
   58.8150   27.8670   46.2580 C   0  0  0  0  0  0  0  0  0  0  0  0
   57.8820   27.1440   45.6270 C   0  0  0  0  0  0  0  0  0  0  0  0
   57.1930   25.9840   46.2140 C   0  0  0  0  0  0  0  0  0  0  0  0
   57.8310   24.8680   46.6060 N   0  0  0  0  0  0  0  0  0  0  0  0
   56.8280   24.0560   47.0020 C   0  0  0  0  0  0  0  0  0  0  0  0
   57.0320   22.9000   47.4580 O   0  0  0  0  0  0  0  0  0  0  0  0
   55.5890   24.5740   46.8640 N   0  0  0  0  0  0  0  0  0  0  0  0
   55.8350   25.7900   46.3530 C   0  0  0  0  0  0  0  0  0  0  0  0
   54.8380   26.6880   45.9910 O   0  0  0  0  0  0  0  0  0  0  0  0
  1  2  2  0
  2  3  1  0
  3  4  1  0
  4  5  2  0
  5  6  1  0
  6  7  1  0
  7  8  1  0
  4  9  1  0
  9 10  1  0
 10 11  2  3
 11 12  1  0
 12 13  1  0
 13 14  1  0
 14 15  1  0
 15 16  1  0
 16 17  1  0
 17 18  1  0
 10 19  1  0
 19 20  1  0
 20 21  2  3
 21 22  1  0
 22 23  1  0
 23 24  1  0
 24 25  2  0
 24 26  1  0
 26 27  1  0
 27 28  1  0
 20  1  1  0
 27 22  2  0
 19  3  1  0
  8  6  1  0
 18 14  1  0
M  CHG  4   9  -1  23  -1  26  -1  28  -1
M  END
>  <UniqueID>  (424) 
18

>  <SMILES>  (424) 
O=c1[n-]c([O-])c(C=C2C=Nn3/c(=N/C4CC4)[n-]c(=NCCN4CCCC4)n32)[n-]1

>  <Energy>  (424) 
441.9755363456952

>  <Genealogy>  (424) 
O=c1[n-]c([O-])c(C=C2C=Nn3c(=NC4CC4)[n-]c(=NCCN4CCCC4)n32)[n-]1 (protonated)
O=c1[n-]c([O-])c(C=C2C=Nn3/c(=N/C4CC4)[n-]c(=NCCN4CCCC4)n32)[n-]1 (cis-trans isomerization)
O=c1[n-]c([O-])c(C=C2C=Nn3/c(=N/C4CC4)[n-]c(=NCCN4CCCC4)n32)[n-]1 (3D coordinates assigned)
O=c1[n-]c([O-])c(C=C2C=Nn3/c(=N/C4CC4)[n-]c(=NCCN4CCCC4)n32)[n-]1 (nonaromatic ring conformer: 441.9755363456952 kcal/mol)

>  <smiles>  (424) 
O=c1[nH]c(O)c(C=C2C=Nn3c(=NC4CC4)[nH]c(=NCCN4CCCC4)n32)[nH]1

>  <score_type>  (424) 
oracle

>  <origin>  (424) 
adg

>  <m_score__min__energy>  (424) 
-16.699999999999999

>  <m_primary>  (424) 
energy

$$$$
22:0
     RDKit          3D

 31 33  0  0  0  0  0  0  0  0999 V2000
   58.0950   30.3000   47.1640 O   0  0  0  0  0  0  0  0  0  0  0  0
   58.0130   29.9360   45.9610 C   0  0  0  0  0  0  0  0  0  0  0  0
   58.2270   28.5160   45.6030 C   0  0  0  0  0  0  0  0  0  0  0  0
   57.2480   27.6550   45.2920 C   0  0  0  0  0  0  0  0  0  0  0  0
   57.0530   26.3490   45.9430 C   0  0  0  0  0  0  0  0  0  0  0  0
   58.3010   25.3960   46.5520 S   0  0  0  0  0  0  0  0  0  0  0  0
   57.2470   24.2280   47.1480 C   0  0  0  0  0  0  0  0  0  0  0  0
   57.6190   23.1780   47.7370 O   0  0  0  0  0  0  0  0  0  0  0  0
   55.9490   24.5510   46.9250 N   0  0  0  0  0  0  0  0  0  0  0  0
   54.8030   23.7200   47.3100 C   0  0  0  0  0  0  0  0  0  0  0  0
   55.2510   22.3140   47.5520 C   0  0  0  0  0  0  0  0  0  0  0  0
   55.6660   21.9850   48.6920 O   0  0  0  0  0  0  0  0  0  0  0  0
   55.2900   21.3910   46.4550 N   0  0  0  0  0  0  0  0  0  0  0  0
   55.8700   21.5830   45.1560 C   0  0  0  0  0  0  0  0  0  0  0  0
   56.2670   20.5080   44.3380 C   0  0  0  0  0  0  0  0  0  0  0  0
   56.8270   20.7500   43.0810 C   0  0  0  0  0  0  0  0  0  0  0  0
   56.9770   22.0580   42.6190 C   0  0  0  0  0  0  0  0  0  0  0  0
   56.5520   23.1330   43.4120 C   0  0  0  0  0  0  0  0  0  0  0  0
   56.6750   24.4410   42.9560 O   0  0  0  0  0  0  0  0  0  0  0  0
   55.9970   22.8910   44.6720 C   0  0  0  0  0  0  0  0  0  0  0  0
   55.8380   25.7400   46.2650 C   0  0  0  0  0  0  0  0  0  0  0  0
   54.6040   26.3090   45.9670 O   0  0  0  0  0  0  0  0  0  0  0  0
   57.6520   30.9070   44.9720 N   0  0  0  0  0  0  0  0  0  0  0  0
   57.0100   32.1830   45.2610 C   0  0  0  0  0  0  0  0  0  0  0  0
   57.9940   33.1280   45.8930 C   0  0  0  0  0  0  0  0  0  0  0  0
   58.0740   33.2470   47.2890 C   0  0  0  0  0  0  0  0  0  0  0  0
   58.9600   34.1570   47.8710 C   0  0  0  0  0  0  0  0  0  0  0  0
   59.7690   34.9570   47.0650 C   0  0  0  0  0  0  0  0  0  0  0  0
   59.6930   34.8490   45.6750 C   0  0  0  0  0  0  0  0  0  0  0  0
   58.8100   33.9380   45.0880 C   0  0  0  0  0  0  0  0  0  0  0  0
   58.7550   33.8440   43.7340 F   0  0  0  0  0  0  0  0  0  0  0  0
  1  2  2  0
  2  3  1  0
  3  4  2  3
  4  5  1  0
  5  6  1  0
  6  7  1  0
  7  8  2  0
  7  9  1  0
  9 10  1  0
 10 11  1  0
 11 12  2  0
 11 13  1  0
 13 14  1  0
 14 15  2  0
 15 16  1  0
 16 17  2  0
 17 18  1  0
 18 19  1  0
 18 20  2  0
  9 21  1  0
 21 22  1  0
  2 23  1  0
 23 24  1  0
 24 25  1  0
 25 26  2  0
 26 27  1  0
 27 28  2  0
 28 29  1  0
 29 30  2  0
 30 31  1  0
 21  5  2  0
 30 25  1  0
 20 14  1  0
M  CHG  3  13  -1  22  -1  23  -1
M  END
>  <UniqueID>  (425) 
20

>  <SMILES>  (425) 
O=C(C=Cc1sc(=O)n(CC(=O)[N-]c2cccc(O)c2)c1[O-])[N-]Cc1ccccc1F

>  <Energy>  (425) 
85.71314055946975

>  <Genealogy>  (425) 
O=C(C=Cc1sc(=O)n(CC(=O)[N-]c2cccc(O)c2)c1[O-])[N-]Cc1ccccc1F (protonated)
O=C(C=Cc1sc(=O)n(CC(=O)[N-]c2cccc(O)c2)c1[O-])[N-]Cc1ccccc1F (3D coordinates assigned)
O=C(C=Cc1sc(=O)n(CC(=O)[N-]c2cccc(O)c2)c1[O-])[N-]Cc1ccccc1F (optimized conformer: 85.71314055946975 kcal/mol)

>  <smiles>  (425) 
O=C(C=Cc1sc(=O)n(CC(=O)Nc2cccc(O)c2)c1O)NCc1ccccc1F

>  <score_type>  (425) 
oracle

>  <origin>  (425) 
adg

>  <m_score__min__energy>  (425) 
-14.130000000000001

>  <m_primary>  (425) 
energy

$$$$
44:0
     RDKit          3D

 26 28  0  0  0  0  0  0  0  0999 V2000
   58.6460   25.8140   46.5230 C   0  0  0  0  0  0  0  0  0  0  0  0
   59.2920   26.9560   46.0450 C   0  0  0  0  0  0  0  0  0  0  0  0
   58.5440   28.0310   45.5550 C   0  0  0  0  0  0  0  0  0  0  0  0
   57.1400   27.9760   45.5480 C   0  0  0  0  0  0  0  0  0  0  0  0
   56.3500   29.1250   44.9790 C   0  0  0  0  0  0  0  0  0  0  0  0
   57.2360   30.3140   44.7950 C   0  0  0  0  0  0  0  0  0  0  0  0
   57.8260   30.4880   43.6950 O   0  0  0  0  0  0  0  0  0  0  0  0
   57.4820   31.1850   45.9070 N   0  0  0  0  0  0  0  0  0  0  0  0
   58.3210   32.3490   45.9150 C   0  0  0  0  0  0  0  0  0  0  0  0
   57.8550   33.6120   45.5070 C   0  0  0  0  0  0  0  0  0  0  0  0
   58.7060   34.7200   45.5400 C   0  0  0  0  0  0  0  0  0  0  0  0
   60.0230   34.5800   45.9860 C   0  0  0  0  0  0  0  0  0  0  0  0
   60.4910   33.3310   46.4110 C   0  0  0  0  0  0  0  0  0  0  0  0
   62.1520   33.1450   46.9680 S   0  0  0  0  0  0  0  0  0  0  0  0
   62.5380   31.6920   47.0010 O   0  0  0  0  0  0  0  0  0  0  0  0
   63.0640   33.8700   46.0210 O   0  0  0  0  0  0  0  0  0  0  0  0
   62.3340   33.8190   48.5570 N   0  0  0  0  0  0  0  0  0  0  0  0
   63.3450   33.5920   49.3400 C   0  0  0  0  0  0  0  0  0  0  0  0
   64.4140   32.7610   48.9520 N   0  0  0  0  0  0  0  0  0  0  0  0
   65.4190   32.7140   49.9930 C   0  0  0  0  0  0  0  0  0  0  0  0
   64.8520   33.5290   51.1710 C   0  0  0  0  0  0  0  0  0  0  0  0
   63.5360   34.1650   50.6960 C   0  0  0  0  0  0  0  0  0  0  0  0
   59.6320   32.2240   46.3910 C   0  0  0  0  0  0  0  0  0  0  0  0
   56.4950   26.8140   46.0180 C   0  0  0  0  0  0  0  0  0  0  0  0
   55.1080   26.7160   45.9990 O   0  0  0  0  0  0  0  0  0  0  0  0
   57.2510   25.7430   46.5070 C   0  0  0  0  0  0  0  0  0  0  0  0
  1  2  2  0
  2  3  1  0
  3  4  2  0
  4  5  1  0
  5  6  1  0
  6  7  2  0
  6  8  1  0
  8  9  1  0
  9 10  2  0
 10 11  1  0
 11 12  2  0
 12 13  1  0
 13 14  1  0
 14 15  2  0
 14 16  2  0
 14 17  1  0
 17 18  2  0
 18 19  1  0
 19 20  1  0
 20 21  1  0
 21 22  1  0
 13 23  2  0
  4 24  1  0
 24 25  1  0
 24 26  2  0
 26  1  1  0
 23  9  1  0
 22 18  1  0
M  CHG  2   8  -1  25  -1
M  END
>  <UniqueID>  (426) 
39

>  <SMILES>  (426) 
O=C(Cc1ccccc1[O-])[N-]c1cccc(S(=O)(=O)/N=C2\CCCN2)c1

>  <Energy>  (426) 
54.26314850182952

>  <Genealogy>  (426) 
O=C(Cc1ccccc1[O-])[N-]c1cccc(S(=O)(=O)N=C2CCCN2)c1 (protonated)
O=C(Cc1ccccc1[O-])[N-]c1cccc(S(=O)(=O)/N=C2\CCCN2)c1 (cis-trans isomerization)
O=C(Cc1ccccc1[O-])[N-]c1cccc(S(=O)(=O)/N=C2\CCCN2)c1 (3D coordinates assigned)
O=C(Cc1ccccc1[O-])[N-]c1cccc(S(=O)(=O)/N=C2\CCCN2)c1 (nonaromatic ring conformer: 54.26314850182952 kcal/mol)

>  <smiles>  (426) 
O=C(Cc1ccccc1O)Nc1cccc(S(=O)(=O)N=C2CCCN2)c1

>  <score_type>  (426) 
oracle

>  <origin>  (426) 
adg

>  <m_score__min__energy>  (426) 
-14.41

>  <m_primary>  (426) 
energy

$$$$
70:0
     RDKit          3D

 34 37  0  0  0  0  0  0  0  0999 V2000
   54.7830   29.3350   44.4430 N   0  0  0  0  0  0  0  0  0  0  0  0
   56.3070   30.1070   44.1910 S   0  0  0  0  0  0  0  0  0  0  0  0
   56.5400   30.2920   42.7180 O   0  0  0  0  0  0  0  0  0  0  0  0
   56.2990   31.4570   44.8510 O   0  0  0  0  0  0  0  0  0  0  0  0
   57.5910   29.1140   44.8740 C   0  0  0  0  0  0  0  0  0  0  0  0
   58.6060   28.6180   44.0480 C   0  0  0  0  0  0  0  0  0  0  0  0
   59.6140   27.8100   44.5800 C   0  0  0  0  0  0  0  0  0  0  0  0
   59.6240   27.4980   45.9450 C   0  0  0  0  0  0  0  0  0  0  0  0
   60.8500   26.3810   46.5350 Cl  0  0  0  0  0  0  0  0  0  0  0  0
   58.6180   28.0170   46.7880 C   0  0  0  0  0  0  0  0  0  0  0  0
   58.5790   27.7220   48.1900 N   0  0  0  0  0  0  0  0  0  0  0  0
   59.2590   28.4840   49.1940 C   0  0  0  0  0  0  0  0  0  0  0  0
   60.4580   28.2260   49.4850 O   0  0  0  0  0  0  0  0  0  0  0  0
   58.5270   29.5720   49.9160 C   0  0  0  0  0  0  0  0  0  0  0  0
   59.0550   30.8850   49.5510 N   0  0  0  0  0  0  0  0  0  0  0  0
   58.7710   32.1230   50.1740 C   0  0  0  0  0  0  0  0  0  0  0  0
   58.1620   32.2290   51.2720 O   0  0  0  0  0  0  0  0  0  0  0  0
   59.2290   33.2380   49.4240 N   0  0  0  0  0  0  0  0  0  0  0  0
   59.8480   32.7490   48.1870 C   0  0  0  0  0  0  0  0  0  0  0  0
   61.3460   33.0590   48.1380 C   0  0  0  0  0  0  0  0  0  0  0  0
   62.1600   32.4070   47.1890 C   0  0  0  0  0  0  0  0  0  0  0  0
   63.5350   32.6480   47.1400 C   0  0  0  0  0  0  0  0  0  0  0  0
   64.1210   33.5370   48.0420 C   0  0  0  0  0  0  0  0  0  0  0  0
   63.3350   34.1820   48.9980 C   0  0  0  0  0  0  0  0  0  0  0  0
   61.9580   33.9430   49.0530 C   0  0  0  0  0  0  0  0  0  0  0  0
   59.0960   33.3580   47.0000 C   0  0  0  0  0  0  0  0  0  0  0  0
   57.6900   33.2830   46.8830 C   0  0  0  0  0  0  0  0  0  0  0  0
   57.0310   33.9000   45.8150 C   0  0  0  0  0  0  0  0  0  0  0  0
   57.7560   34.6110   44.8580 C   0  0  0  0  0  0  0  0  0  0  0  0
   59.1420   34.7190   44.9730 C   0  0  0  0  0  0  0  0  0  0  0  0
   59.8070   34.1110   46.0420 C   0  0  0  0  0  0  0  0  0  0  0  0
   59.6750   31.2500   48.3220 C   0  0  0  0  0  0  0  0  0  0  0  0
   60.0270   30.4060   47.4530 O   0  0  0  0  0  0  0  0  0  0  0  0
   57.5930   28.7970   46.2390 C   0  0  0  0  0  0  0  0  0  0  0  0
  1  2  1  0
  2  3  2  0
  2  4  2  0
  2  5  1  0
  5  6  2  0
  6  7  1  0
  7  8  2  0
  8  9  1  0
  8 10  1  0
 10 11  1  0
 11 12  1  0
 12 13  2  0
 12 14  1  0
 14 15  1  0
 15 16  1  0
 16 17  2  0
 16 18  1  0
 18 19  1  0
 19 20  1  0
 20 21  2  0
 21 22  1  0
 22 23  2  0
 23 24  1  0
 24 25  2  0
 19 26  1  0
 26 27  2  0
 27 28  1  0
 28 29  2  0
 29 30  1  0
 30 31  2  0
 19 32  1  0
 32 33  2  0
 10 34  2  0
 34  5  1  0
 32 15  1  0
 25 20  1  0
 31 26  1  0
M  CHG  2   1  -1  11  -1
M  END
>  <UniqueID>  (427) 
61

>  <SMILES>  (427) 
[NH-]S(=O)(=O)c1ccc(Cl)c([N-]C(=O)CN2C(=O)NC(c3ccccc3)(c3ccccc3)C2=O)c1

>  <Energy>  (427) 
85.52173335277656

>  <Genealogy>  (427) 
[NH-]S(=O)(=O)c1ccc(Cl)c([N-]C(=O)CN2C(=O)NC(c3ccccc3)(c3ccccc3)C2=O)c1 (protonated)
[NH-]S(=O)(=O)c1ccc(Cl)c([N-]C(=O)CN2C(=O)NC(c3ccccc3)(c3ccccc3)C2=O)c1 (3D coordinates assigned)
[NH-]S(=O)(=O)c1ccc(Cl)c([N-]C(=O)CN2C(=O)NC(c3ccccc3)(c3ccccc3)C2=O)c1 (nonaromatic ring conformer: 85.52173335277656 kcal/mol)

>  <smiles>  (427) 
NS(=O)(=O)c1ccc(Cl)c(NC(=O)CN2C(=O)NC(c3ccccc3)(c3ccccc3)C2=O)c1

>  <score_type>  (427) 
oracle

>  <origin>  (427) 
adg

>  <m_score__min__energy>  (427) 
-14.77

>  <m_primary>  (427) 
energy

$$$$
74:0
     RDKit          3D

 24 26  0  0  0  0  0  0  0  0999 V2000
   63.3330   32.0750   47.1300 C   0  0  0  0  0  0  0  0  0  0  0  0
   62.1740   31.2900   47.5370 N   0  0  0  0  0  0  0  0  0  0  0  0
   61.9440   30.7970   48.7700 C   0  0  0  0  0  0  0  0  0  0  0  0
   60.7940   30.0320   48.7600 C   0  0  0  0  0  0  0  0  0  0  0  0
   60.3220   30.0590   47.4590 C   0  0  0  0  0  0  0  0  0  0  0  0
   59.1240   29.3750   46.9490 C   0  0  0  0  0  0  0  0  0  0  0  0
   58.8280   28.1150   47.3650 N   0  0  0  0  0  0  0  0  0  0  0  0
   57.7220   27.4690   46.9140 C   0  0  0  0  0  0  0  0  0  0  0  0
   57.4690   26.3070   47.3260 O   0  0  0  0  0  0  0  0  0  0  0  0
   56.8710   28.0980   46.0020 C   0  0  0  0  0  0  0  0  0  0  0  0
   55.7100   27.4600   45.5760 O   0  0  0  0  0  0  0  0  0  0  0  0
   57.2010   29.3910   45.5570 C   0  0  0  0  0  0  0  0  0  0  0  0
   56.3660   30.1260   44.5850 C   0  0  0  0  0  0  0  0  0  0  0  0
   55.7270   29.4750   43.7170 O   0  0  0  0  0  0  0  0  0  0  0  0
   56.2700   31.5560   44.5830 N   0  0  0  0  0  0  0  0  0  0  0  0
   57.2830   32.4750   45.0190 C   0  0  0  0  0  0  0  0  0  0  0  0
   58.1780   32.9930   44.0750 C   0  0  0  0  0  0  0  0  0  0  0  0
   59.1700   33.8990   44.4620 C   0  0  0  0  0  0  0  0  0  0  0  0
   59.2650   34.3050   45.7970 C   0  0  0  0  0  0  0  0  0  0  0  0
   60.2510   35.2040   46.1820 O   0  0  0  0  0  0  0  0  0  0  0  0
   58.3620   33.8100   46.7430 C   0  0  0  0  0  0  0  0  0  0  0  0
   57.3680   32.9040   46.3560 C   0  0  0  0  0  0  0  0  0  0  0  0
   58.3100   29.9990   46.0560 N   0  0  0  0  0  0  0  0  0  0  0  0
   61.2000   30.8370   46.7260 C   0  0  0  0  0  0  0  0  0  0  0  0
  1  2  1  0
  2  3  1  0
  3  4  2  0
  4  5  1  0
  5  6  1  0
  6  7  2  0
  7  8  1  0
  8  9  2  0
  8 10  1  0
 10 11  1  0
 10 12  2  0
 12 13  1  0
 13 14  2  0
 13 15  1  0
 15 16  1  0
 16 17  2  0
 17 18  1  0
 18 19  2  0
 19 20  1  0
 19 21  1  0
 21 22  2  0
 12 23  1  0
  5 24  2  0
 24  2  1  0
 23  6  1  0
 22 16  1  0
M  CHG  4  11  -1  15  -1  20  -1  23  -1
M  END
>  <UniqueID>  (428) 
64

>  <SMILES>  (428) 
Cn1ccc(-c2nc(=O)c([O-])c(C(=O)[N-]c3ccc([O-])cc3)[n-]2)c1

>  <Energy>  (428) 
70.4494747104486

>  <Genealogy>  (428) 
Cn1ccc(-c2nc(=O)c([O-])c(C(=O)[N-]c3ccc([O-])cc3)[n-]2)c1 (protonated)
Cn1ccc(-c2nc(=O)c([O-])c(C(=O)[N-]c3ccc([O-])cc3)[n-]2)c1 (3D coordinates assigned)
Cn1ccc(-c2nc(=O)c([O-])c(C(=O)[N-]c3ccc([O-])cc3)[n-]2)c1 (optimized conformer: 70.4494747104486 kcal/mol)

>  <smiles>  (428) 
Cn1ccc(-c2nc(=O)c(O)c(C(=O)Nc3ccc(O)cc3)[nH]2)c1

>  <score_type>  (428) 
oracle

>  <origin>  (428) 
adg

>  <m_score__min__energy>  (428) 
-14.539999999999999

>  <m_primary>  (428) 
energy

$$$$
9:0
     RDKit          3D

 24 25  0  0  0  0  0  0  0  0999 V2000
   57.4570   33.5390   46.5310 C   0  0  0  0  0  0  0  0  0  0  0  0
   58.0300   32.8110   45.3950 N   0  0  0  0  0  0  0  0  0  0  0  0
   58.7900   33.5180   44.3640 C   0  0  0  0  0  0  0  0  0  0  0  0
   57.8810   31.3750   45.3210 C   0  0  0  0  0  0  0  0  0  0  0  0
   56.6510   30.8230   45.1200 N   0  0  0  0  0  0  0  0  0  0  0  0
   56.4810   29.4780   45.0420 C   0  0  0  0  0  0  0  0  0  0  0  0
   55.2010   28.9660   44.8510 O   0  0  0  0  0  0  0  0  0  0  0  0
   57.5900   28.6260   45.1520 C   0  0  0  0  0  0  0  0  0  0  0  0
   57.4400   27.1270   45.0720 C   0  0  0  0  0  0  0  0  0  0  0  0
   56.6400   26.6160   46.2400 C   0  0  0  0  0  0  0  0  0  0  0  0
   55.2180   26.5040   46.1440 N   0  0  0  0  0  0  0  0  0  0  0  0
   57.2270   26.2850   47.3130 O   0  0  0  0  0  0  0  0  0  0  0  0
   58.8530   29.2130   45.3570 C   0  0  0  0  0  0  0  0  0  0  0  0
   59.9850   28.4070   45.4890 O   0  0  0  0  0  0  0  0  0  0  0  0
   60.2610   27.6680   46.6780 C   0  0  0  0  0  0  0  0  0  0  0  0
   60.7050   28.5820   47.8360 C   0  0  0  0  0  0  0  0  0  0  0  0
   59.5570   29.4360   48.4080 C   0  0  0  0  0  0  0  0  0  0  0  0
   59.8690   30.9150   48.4040 C   0  0  0  0  0  0  0  0  0  0  0  0
   60.9600   31.4090   47.6610 C   0  0  0  0  0  0  0  0  0  0  0  0
   61.2640   32.7790   47.6780 C   0  0  0  0  0  0  0  0  0  0  0  0
   60.4730   33.6630   48.4220 C   0  0  0  0  0  0  0  0  0  0  0  0
   59.3800   33.1790   49.1550 C   0  0  0  0  0  0  0  0  0  0  0  0
   59.0750   31.8130   49.1430 C   0  0  0  0  0  0  0  0  0  0  0  0
   58.9680   30.5660   45.4440 N   0  0  0  0  0  0  0  0  0  0  0  0
  1  2  1  0
  2  3  1  0
  2  4  1  0
  4  5  2  0
  5  6  1  0
  6  7  1  0
  6  8  2  0
  8  9  1  0
  9 10  1  0
 10 11  1  0
 10 12  2  0
  8 13  1  0
 13 14  1  0
 14 15  1  0
 15 16  1  0
 16 17  1  0
 17 18  1  0
 18 19  2  0
 19 20  1  0
 20 21  2  0
 21 22  1  0
 22 23  2  0
 13 24  2  0
 24  4  1  0
 23 18  1  0
M  CHG  2   7  -1  11  -1
M  END
>  <UniqueID>  (429) 
9

>  <SMILES>  (429) 
CN(C)c1nc([O-])c(CC([NH-])=O)c(OCCCc2ccccc2)n1

>  <Energy>  (429) 
41.155729016547625

>  <Genealogy>  (429) 
CN(C)c1nc([O-])c(CC([NH-])=O)c(OCCCc2ccccc2)n1 (protonated)
CN(C)c1nc([O-])c(CC([NH-])=O)c(OCCCc2ccccc2)n1 (3D coordinates assigned)
CN(C)c1nc([O-])c(CC([NH-])=O)c(OCCCc2ccccc2)n1 (optimized conformer: 41.155729016547625 kcal/mol)

>  <smiles>  (429) 
CN(C)c1nc(O)c(CC(N)=O)c(OCCCc2ccccc2)n1

>  <score_type>  (429) 
oracle

>  <origin>  (429) 
adg

>  <m_score__min__energy>  (429) 
-14.02

>  <m_primary>  (429) 
energy

$$$$
43:0
     RDKit          3D

 30 34  0  0  0  0  0  0  0  0999 V2000
   53.1490   31.2670   52.3920 C   0  0  0  0  0  0  0  0  0  0  0  0
   52.3360   31.3410   51.1680 C   0  0  0  0  0  0  0  0  0  0  0  0
   52.3310   30.3840   50.2230 N   0  0  0  0  0  0  0  0  0  0  0  0
   51.3920   30.8110   49.3510 C   0  0  0  0  0  0  0  0  0  0  0  0
   51.1020   30.1770   48.3030 O   0  0  0  0  0  0  0  0  0  0  0  0
   50.7790   31.9640   49.6950 N   0  0  0  0  0  0  0  0  0  0  0  0
   51.3780   32.2800   50.8550 C   0  0  0  0  0  0  0  0  0  0  0  0
   51.0270   33.3800   51.6280 O   0  0  0  0  0  0  0  0  0  0  0  0
   54.2050   30.4540   52.5530 C   0  0  0  0  0  0  0  0  0  0  0  0
   54.1550   29.0780   52.6740 C   0  0  0  0  0  0  0  0  0  0  0  0
   55.4120   28.5900   52.7400 N   0  0  0  0  0  0  0  0  0  0  0  0
   56.2760   29.5980   52.6900 N   0  0  0  0  0  0  0  0  0  0  0  0
   57.6540   29.6320   52.6200 C   0  0  0  0  0  0  0  0  0  0  0  0
   58.4850   28.6720   52.9520 N   0  0  0  0  0  0  0  0  0  0  0  0
   59.8390   28.1130   52.7840 C   0  0  0  0  0  0  0  0  0  0  0  0
   60.9600   29.1140   52.6740 C   0  0  0  0  0  0  0  0  0  0  0  0
   60.5260   28.2750   51.4530 C   0  0  0  0  0  0  0  0  0  0  0  0
   58.2290   30.8190   52.2820 N   0  0  0  0  0  0  0  0  0  0  0  0
   57.4930   31.9450   52.0540 C   0  0  0  0  0  0  0  0  0  0  0  0
   58.0630   33.0750   51.7510 N   0  0  0  0  0  0  0  0  0  0  0  0
   59.2790   33.2560   51.0060 C   0  0  0  0  0  0  0  0  0  0  0  0
   60.4950   33.2860   51.7000 C   0  0  0  0  0  0  0  0  0  0  0  0
   61.6970   33.4910   51.0150 C   0  0  0  0  0  0  0  0  0  0  0  0
   61.6920   33.6880   49.6310 C   0  0  0  0  0  0  0  0  0  0  0  0
   62.8630   33.8880   48.9770 F   0  0  0  0  0  0  0  0  0  0  0  0
   60.4790   33.6930   48.9320 C   0  0  0  0  0  0  0  0  0  0  0  0
   60.4570   33.9720   47.1980 Cl  0  0  0  0  0  0  0  0  0  0  0  0
   59.2750   33.4890   49.6160 C   0  0  0  0  0  0  0  0  0  0  0  0
   56.1460   31.9040   52.1940 N   0  0  0  0  0  0  0  0  0  0  0  0
   55.5610   30.7320   52.5320 C   0  0  0  0  0  0  0  0  0  0  0  0
  1  2  1  0
  2  3  1  0
  3  4  1  0
  4  5  2  0
  4  6  1  0
  6  7  1  0
  7  8  1  0
  1  9  2  3
  9 10  1  0
 10 11  2  0
 11 12  1  0
 12 13  1  0
 13 14  2  0
 14 15  1  0
 15 16  1  0
 16 17  1  0
 13 18  1  0
 18 19  1  0
 19 20  2  3
 20 21  1  0
 21 22  2  0
 22 23  1  0
 23 24  2  0
 24 25  1  0
 24 26  1  0
 26 27  1  0
 26 28  2  0
 19 29  1  0
 29 30  2  0
  7  2  2  0
 30  9  1  0
 30 12  1  0
 17 15  1  0
 28 21  1  0
M  CHG  5   3  -1   6  -1   8  -1  11   1  18  -1
M  END
>  <UniqueID>  (430) 
40

>  <SMILES>  (430) 
O=c1[n-]c([O-])c(C=c2c[nH+]n3/c(=N\C4CC4)[n-]c(=Nc4ccc(F)c(Cl)c4)nc23)[n-]1

>  <Energy>  (430) 
432.1127641793269

>  <Genealogy>  (430) 
O=c1[n-]c([O-])c(C=c2c[nH+]n3c(=NC4CC4)[n-]c(=Nc4ccc(F)c(Cl)c4)nc23)[n-]1 (protonated)
O=c1[n-]c([O-])c(C=c2c[nH+]n3/c(=N\C4CC4)[n-]c(=Nc4ccc(F)c(Cl)c4)nc23)[n-]1 (cis-trans isomerization)
O=c1[n-]c([O-])c(C=c2c[nH+]n3/c(=N\C4CC4)[n-]c(=Nc4ccc(F)c(Cl)c4)nc23)[n-]1 (3D coordinates assigned)
O=c1[n-]c([O-])c(C=c2c[nH+]n3/c(=N\C4CC4)[n-]c(=Nc4ccc(F)c(Cl)c4)nc23)[n-]1 (nonaromatic ring conformer: 432.1127641793269 kcal/mol)

>  <smiles>  (430) 
O=c1[nH]c(O)c(C=c2cnn3c(=NC4CC4)[nH]c(=Nc4ccc(F)c(Cl)c4)nc23)[nH]1

>  <score_type>  (430) 
oracle

>  <origin>  (430) 
adg

>  <m_score__min__energy>  (430) 
-16.510000000000002

>  <m_primary>  (430) 
energy

$$$$
50:0
     RDKit          3D

 28 31  0  0  0  0  0  0  0  0999 V2000
   58.2300   26.5180   45.3760 C   0  0  0  0  0  0  0  0  0  0  0  0
   58.1100   27.8500   45.4540 C   0  0  0  0  0  0  0  0  0  0  0  0
   58.4680   28.6480   46.6250 C   0  0  0  0  0  0  0  0  0  0  0  0
   58.8680   28.2060   47.7350 O   0  0  0  0  0  0  0  0  0  0  0  0
   58.2910   30.0390   46.2810 C   0  0  0  0  0  0  0  0  0  0  0  0
   58.4950   31.1730   47.0650 C   0  0  0  0  0  0  0  0  0  0  0  0
   58.2460   32.4310   46.4940 C   0  0  0  0  0  0  0  0  0  0  0  0
   57.8090   32.5360   45.1530 C   0  0  0  0  0  0  0  0  0  0  0  0
   57.5060   33.8810   44.5650 C   0  0  0  0  0  0  0  0  0  0  0  0
   57.5950   31.3680   44.3920 C   0  0  0  0  0  0  0  0  0  0  0  0
   57.8490   30.1260   44.9760 C   0  0  0  0  0  0  0  0  0  0  0  0
   57.6890   28.7780   44.3380 C   0  0  0  0  0  0  0  0  0  0  0  0
   57.0840   25.6040   45.5570 C   0  0  0  0  0  0  0  0  0  0  0  0
   55.7770   26.0920   45.6590 C   0  0  0  0  0  0  0  0  0  0  0  0
   55.5190   27.4580   45.6100 O   0  0  0  0  0  0  0  0  0  0  0  0
   54.7460   25.2300   45.8310 N   0  0  0  0  0  0  0  0  0  0  0  0
   54.9490   23.8920   45.9210 C   0  0  0  0  0  0  0  0  0  0  0  0
   53.9560   23.1310   46.0880 O   0  0  0  0  0  0  0  0  0  0  0  0
   56.2170   23.3780   45.8460 N   0  0  0  0  0  0  0  0  0  0  0  0
   56.4290   21.9570   45.9540 C   0  0  0  0  0  0  0  0  0  0  0  0
   56.0460   21.1100   44.9020 C   0  0  0  0  0  0  0  0  0  0  0  0
   56.2510   19.7300   44.9980 C   0  0  0  0  0  0  0  0  0  0  0  0
   56.8370   19.1880   46.1450 C   0  0  0  0  0  0  0  0  0  0  0  0
   57.2180   20.0240   47.1980 C   0  0  0  0  0  0  0  0  0  0  0  0
   57.0150   21.4060   47.1080 C   0  0  0  0  0  0  0  0  0  0  0  0
   57.3860   22.2250   48.1690 O   0  0  0  0  0  0  0  0  0  0  0  0
   57.2870   24.2200   45.6740 C   0  0  0  0  0  0  0  0  0  0  0  0
   58.4580   23.7530   45.6010 O   0  0  0  0  0  0  0  0  0  0  0  0
  1  2  2  0
  2  3  1  0
  3  4  2  0
  3  5  1  0
  5  6  2  0
  6  7  1  0
  7  8  2  0
  8  9  1  0
  8 10  1  0
 10 11  2  0
 11 12  1  0
  1 13  1  0
 13 14  2  0
 14 15  1  0
 14 16  1  0
 16 17  1  0
 17 18  2  0
 17 19  1  0
 19 20  1  0
 20 21  2  0
 21 22  1  0
 22 23  2  0
 23 24  1  0
 24 25  2  0
 25 26  1  0
 19 27  1  0
 27 28  2  0
 12  2  1  0
 27 13  1  0
 11  5  1  0
 25 20  1  0
M  CHG  3  15  -1  16  -1  26  -1
M  END
>  <UniqueID>  (431) 
46

>  <SMILES>  (431) 
Cc1ccc2c(c1)C/C(=C\c1c([O-])[n-]c(=O)n(-c3ccccc3[O-])c1=O)C2=O

>  <Energy>  (431) 
82.77163367555023

>  <Genealogy>  (431) 
Cc1ccc2c(c1)CC(=Cc1c([O-])[n-]c(=O)n(-c3ccccc3[O-])c1=O)C2=O (protonated)
Cc1ccc2c(c1)C/C(=C\c1c([O-])[n-]c(=O)n(-c3ccccc3[O-])c1=O)C2=O (cis-trans isomerization)
Cc1ccc2c(c1)C/C(=C\c1c([O-])[n-]c(=O)n(-c3ccccc3[O-])c1=O)C2=O (3D coordinates assigned)
Cc1ccc2c(c1)C/C(=C\c1c([O-])[n-]c(=O)n(-c3ccccc3[O-])c1=O)C2=O (nonaromatic ring conformer: 82.77163367555023 kcal/mol)

>  <smiles>  (431) 
Cc1ccc2c(c1)CC(=Cc1c(O)[nH]c(=O)n(-c3ccccc3O)c1=O)C2=O

>  <score_type>  (431) 
oracle

>  <origin>  (431) 
adg

>  <m_score__min__energy>  (431) 
-15.619999999999999

>  <m_primary>  (431) 
energy

$$$$
55:0
     RDKit          3D

 28 30  0  0  0  0  0  0  0  0999 V2000
   58.8540   25.9760   45.6080 C   0  0  0  0  0  0  0  0  0  0  0  0
   58.4010   27.2540   45.6950 N   0  0  0  0  0  0  0  0  0  0  0  0
   57.0770   27.5600   45.7870 C   0  0  0  0  0  0  0  0  0  0  0  0
   56.7540   28.8230   45.8550 N   0  0  0  0  0  0  0  0  0  0  0  0
   56.1360   29.6540   44.8610 C   0  0  0  0  0  0  0  0  0  0  0  0
   54.9940   29.3480   44.4200 O   0  0  0  0  0  0  0  0  0  0  0  0
   56.8760   30.7950   44.2640 C   0  0  0  0  0  0  0  0  0  0  0  0
   57.4300   31.7830   45.1000 C   0  0  0  0  0  0  0  0  0  0  0  0
   58.1370   32.8670   44.5610 C   0  0  0  0  0  0  0  0  0  0  0  0
   58.8540   34.0830   45.6190 S   0  0  0  0  0  0  0  0  0  0  0  0
   57.9480   34.3470   46.7900 O   0  0  0  0  0  0  0  0  0  0  0  0
   59.0210   35.3640   44.8520 O   0  0  0  0  0  0  0  0  0  0  0  0
   60.4070   33.5510   46.1880 N   0  0  0  0  0  0  0  0  0  0  0  0
   60.3130   33.1590   47.5950 C   0  0  0  0  0  0  0  0  0  0  0  0
   60.0060   31.6900   47.6910 C   0  0  0  0  0  0  0  0  0  0  0  0
   60.6150   30.7790   46.8110 C   0  0  0  0  0  0  0  0  0  0  0  0
   60.3550   29.4100   46.9250 C   0  0  0  0  0  0  0  0  0  0  0  0
   59.4940   28.9410   47.9210 C   0  0  0  0  0  0  0  0  0  0  0  0
   58.8970   29.8400   48.8100 C   0  0  0  0  0  0  0  0  0  0  0  0
   59.1560   31.2100   48.7000 C   0  0  0  0  0  0  0  0  0  0  0  0
   58.3060   32.9640   43.1770 C   0  0  0  0  0  0  0  0  0  0  0  0
   57.7650   31.9930   42.3360 C   0  0  0  0  0  0  0  0  0  0  0  0
   57.0530   30.9130   42.8660 C   0  0  0  0  0  0  0  0  0  0  0  0
   56.5550   29.9860   42.0100 F   0  0  0  0  0  0  0  0  0  0  0  0
   56.1360   26.4980   45.8430 C   0  0  0  0  0  0  0  0  0  0  0  0
   54.7790   26.7130   46.0520 O   0  0  0  0  0  0  0  0  0  0  0  0
   56.5900   25.1800   45.7350 C   0  0  0  0  0  0  0  0  0  0  0  0
   57.9520   24.9150   45.6140 C   0  0  0  0  0  0  0  0  0  0  0  0
  1  2  1  0
  2  3  1  0
  3  4  2  0
  4  5  1  0
  5  6  2  0
  5  7  1  0
  7  8  2  0
  8  9  1  0
  9 10  1  0
 10 11  2  0
 10 12  2  0
 10 13  1  0
 13 14  1  0
 14 15  1  0
 15 16  2  0
 16 17  1  0
 17 18  2  0
 18 19  1  0
 19 20  2  0
  9 21  2  0
 21 22  1  0
 22 23  2  0
 23 24  1  0
  3 25  1  0
 25 26  1  0
 25 27  2  0
 27 28  1  0
 28  1  2  0
 23  7  1  0
 20 15  1  0
M  CHG  2   2  -1  26  -1
M  END
>  <UniqueID>  (432) 
51

>  <SMILES>  (432) 
O=C(/N=c1/[n-]cccc1[O-])c1cc(S(=O)(=O)NCc2ccccc2)ccc1F

>  <Energy>  (432) 
56.64111200448119

>  <Genealogy>  (432) 
O=C(N=c1[n-]cccc1[O-])c1cc(S(=O)(=O)NCc2ccccc2)ccc1F (protonated)
O=C(/N=c1/[n-]cccc1[O-])c1cc(S(=O)(=O)NCc2ccccc2)ccc1F (cis-trans isomerization)
O=C(/N=c1/[n-]cccc1[O-])c1cc(S(=O)(=O)NCc2ccccc2)ccc1F (3D coordinates assigned)
O=C(/N=c1/[n-]cccc1[O-])c1cc(S(=O)(=O)NCc2ccccc2)ccc1F (optimized conformer: 56.64111200448119 kcal/mol)

>  <smiles>  (432) 
O=C(N=c1[nH]cccc1O)c1cc(S(=O)(=O)NCc2ccccc2)ccc1F

>  <score_type>  (432) 
oracle

>  <origin>  (432) 
adg

>  <m_score__min__energy>  (432) 
-14.970000000000001

>  <m_primary>  (432) 
energy

$$$$
58:0
     RDKit          3D

 29 31  0  0  0  0  0  0  0  0999 V2000
   56.6280   22.8090   43.7010 C   0  0  0  0  0  0  0  0  0  0  0  0
   57.4570   22.4630   44.9310 C   0  0  0  0  0  0  0  0  0  0  0  0
   56.4390   22.4490   46.4010 S   0  0  0  0  0  0  0  0  0  0  0  0
   57.2180   21.7900   47.5050 O   0  0  0  0  0  0  0  0  0  0  0  0
   55.1840   21.6560   46.1720 O   0  0  0  0  0  0  0  0  0  0  0  0
   56.0520   24.0660   46.8990 N   0  0  0  0  0  0  0  0  0  0  0  0
   56.5930   25.3110   46.4270 C   0  0  0  0  0  0  0  0  0  0  0  0
   57.9880   25.4480   46.4460 C   0  0  0  0  0  0  0  0  0  0  0  0
   58.5980   26.6340   46.0360 C   0  0  0  0  0  0  0  0  0  0  0  0
   57.8170   27.7120   45.6190 C   0  0  0  0  0  0  0  0  0  0  0  0
   56.4220   27.6060   45.6070 C   0  0  0  0  0  0  0  0  0  0  0  0
   55.6170   28.7330   45.2480 N   0  0  0  0  0  0  0  0  0  0  0  0
   55.8480   29.5520   44.0920 C   0  0  0  0  0  0  0  0  0  0  0  0
   54.8670   29.8850   43.3780 O   0  0  0  0  0  0  0  0  0  0  0  0
   57.2260   30.0450   43.7240 C   0  0  0  0  0  0  0  0  0  0  0  0
   57.6950   31.0540   44.6870 N   0  0  0  0  0  0  0  0  0  0  0  0
   57.8660   30.6720   45.9570 N   0  0  0  0  0  0  0  0  0  0  0  0
   58.3680   31.4980   46.9080 C   0  0  0  0  0  0  0  0  0  0  0  0
   58.5090   31.0690   48.0850 O   0  0  0  0  0  0  0  0  0  0  0  0
   58.7370   32.8040   46.5640 C   0  0  0  0  0  0  0  0  0  0  0  0
   59.3070   33.6840   47.5050 C   0  0  0  0  0  0  0  0  0  0  0  0
   59.6770   34.9750   47.1240 C   0  0  0  0  0  0  0  0  0  0  0  0
   59.4790   35.4050   45.8110 C   0  0  0  0  0  0  0  0  0  0  0  0
   58.9060   34.5460   44.8700 C   0  0  0  0  0  0  0  0  0  0  0  0
   58.5330   33.2380   45.2370 C   0  0  0  0  0  0  0  0  0  0  0  0
   57.9790   32.3410   44.3050 C   0  0  0  0  0  0  0  0  0  0  0  0
   57.7600   32.7200   43.1200 O   0  0  0  0  0  0  0  0  0  0  0  0
   55.8040   26.4040   45.9940 C   0  0  0  0  0  0  0  0  0  0  0  0
   54.4180   26.3410   45.9820 O   0  0  0  0  0  0  0  0  0  0  0  0
  1  2  1  0
  2  3  1  0
  3  4  2  0
  3  5  2  0
  3  6  1  0
  6  7  1  0
  7  8  2  0
  8  9  1  0
  9 10  2  0
 10 11  1  0
 11 12  1  0
 12 13  1  0
 13 14  2  0
 13 15  1  0
 15 16  1  0
 16 17  1  0
 17 18  1  0
 18 19  2  0
 18 20  1  0
 20 21  2  0
 21 22  1  0
 22 23  2  0
 23 24  1  0
 24 25  2  0
 25 26  1  0
 26 27  2  0
 11 28  2  0
 28 29  1  0
 28  7  1  0
 26 16  1  0
 25 20  1  0
M  CHG  4   6  -1  12  -1  17  -1  29  -1
M  END
>  <UniqueID>  (433) 
54

>  <SMILES>  (433) 
CCS(=O)(=O)[N-]c1cccc([N-]C(=O)Cn2[n-]c(=O)c3ccccc3c2=O)c1[O-]

>  <Energy>  (433) 
55.12734230925073

>  <Genealogy>  (433) 
CCS(=O)(=O)[N-]c1cccc([N-]C(=O)Cn2[n-]c(=O)c3ccccc3c2=O)c1[O-] (protonated)
CCS(=O)(=O)[N-]c1cccc([N-]C(=O)Cn2[n-]c(=O)c3ccccc3c2=O)c1[O-] (3D coordinates assigned)
CCS(=O)(=O)[N-]c1cccc([N-]C(=O)Cn2[n-]c(=O)c3ccccc3c2=O)c1[O-] (optimized conformer: 55.12734230925073 kcal/mol)

>  <smiles>  (433) 
CCS(=O)(=O)Nc1cccc(NC(=O)Cn2[nH]c(=O)c3ccccc3c2=O)c1O

>  <score_type>  (433) 
oracle

>  <origin>  (433) 
adg

>  <m_score__min__energy>  (433) 
-18.219999999999999

>  <m_primary>  (433) 
energy

$$$$
0:0
     RDKit          3D

 25 27  0  0  0  0  0  0  0  0999 V2000
   56.2810   25.2180   47.0190 O   0  0  0  0  0  0  0  0  0  0  0  0
   55.9260   26.2240   46.3500 C   0  0  0  0  0  0  0  0  0  0  0  0
   54.6040   26.3390   45.9410 O   0  0  0  0  0  0  0  0  0  0  0  0
   56.9080   27.2520   45.9570 C   0  0  0  0  0  0  0  0  0  0  0  0
   57.9820   27.3460   46.6050 O   0  0  0  0  0  0  0  0  0  0  0  0
   56.6500   28.1990   44.9090 N   0  0  0  0  0  0  0  0  0  0  0  0
   57.0330   29.4410   44.8960 C   0  0  0  0  0  0  0  0  0  0  0  0
   57.3890   30.1380   46.0010 N   0  0  0  0  0  0  0  0  0  0  0  0
   57.7080   31.4210   45.6880 C   0  0  0  0  0  0  0  0  0  0  0  0
   57.5730   31.7450   44.3470 C   0  0  0  0  0  0  0  0  0  0  0  0
   57.0770   30.3810   43.4990 S   0  0  0  0  0  0  0  0  0  0  0  0
   57.9390   33.0730   43.7720 C   0  0  0  0  0  0  0  0  0  0  0  0
   57.8450   34.1510   44.8570 C   0  0  0  0  0  0  0  0  0  0  0  0
   58.5200   33.7070   46.0900 N   0  0  0  0  0  0  0  0  0  0  0  0
   59.4360   34.5810   46.7790 C   0  0  0  0  0  0  0  0  0  0  0  0
   59.6500   35.7380   46.3310 O   0  0  0  0  0  0  0  0  0  0  0  0
   60.0750   34.1880   48.0010 N   0  0  0  0  0  0  0  0  0  0  0  0
   61.4600   33.8500   48.1500 C   0  0  0  0  0  0  0  0  0  0  0  0
   62.1370   33.2700   47.0690 C   0  0  0  0  0  0  0  0  0  0  0  0
   63.4840   32.9150   47.1890 C   0  0  0  0  0  0  0  0  0  0  0  0
   64.1600   33.1250   48.3930 C   0  0  0  0  0  0  0  0  0  0  0  0
   63.4860   33.6820   49.4850 C   0  0  0  0  0  0  0  0  0  0  0  0
   64.1540   33.8780   50.6880 O   0  0  0  0  0  0  0  0  0  0  0  0
   62.1380   34.0370   49.3680 C   0  0  0  0  0  0  0  0  0  0  0  0
   58.1480   32.4230   46.7140 C   0  0  0  0  0  0  0  0  0  0  0  0
  1  2  2  0
  2  3  1  0
  2  4  1  0
  4  5  2  0
  4  6  1  0
  6  7  2  3
  7  8  1  0
  8  9  1  0
  9 10  2  0
 10 11  1  0
 10 12  1  0
 12 13  1  0
 13 14  1  0
 14 15  1  0
 15 16  2  0
 15 17  1  0
 17 18  1  0
 18 19  2  0
 19 20  1  0
 20 21  2  0
 21 22  1  0
 22 23  1  0
 22 24  2  0
 14 25  1  0
 11  7  1  0
 24 18  1  0
 25  9  1  0
M  CHG  4   3  -1   8  -1  17  -1  23  -1
M  END
>  <UniqueID>  (434) 
1

>  <SMILES>  (434) 
O=C([O-])C(=O)N=c1[n-]c2c(s1)CCN(C(=O)[N-]c1cccc([O-])c1)C2

>  <Energy>  (434) 
79.60499661544537

>  <Genealogy>  (434) 
O=C([O-])C(=O)N=c1[n-]c2c(s1)CCN(C(=O)[N-]c1cccc([O-])c1)C2 (protonated)
O=C([O-])C(=O)N=c1[n-]c2c(s1)CCN(C(=O)[N-]c1cccc([O-])c1)C2 (3D coordinates assigned)
O=C([O-])C(=O)N=c1[n-]c2c(s1)CCN(C(=O)[N-]c1cccc([O-])c1)C2 (nonaromatic ring conformer: 79.60499661544537 kcal/mol)

>  <smiles>  (434) 
O=C(O)C(=O)N=c1[nH]c2c(s1)CCN(C(=O)Nc1cccc(O)c1)C2

>  <score_type>  (434) 
oracle

>  <origin>  (434) 
adg

>  <m_score__min__energy>  (434) 
-14.890000000000001

>  <m_primary>  (434) 
energy

$$$$
23:0
     RDKit          3D

 25 27  0  0  0  0  0  0  0  0999 V2000
   57.4820   30.6710   44.6570 C   0  0  0  0  0  0  0  0  0  0  0  0
   57.9810   31.6400   45.4330 C   0  0  0  0  0  0  0  0  0  0  0  0
   57.6480   33.0860   45.1930 C   0  0  0  0  0  0  0  0  0  0  0  0
   57.7730   33.9280   46.4720 C   0  0  0  0  0  0  0  0  0  0  0  0
   59.2060   34.2880   46.7700 C   0  0  0  0  0  0  0  0  0  0  0  0
   59.8270   35.0490   45.9780 O   0  0  0  0  0  0  0  0  0  0  0  0
   59.8970   33.7180   47.8950 N   0  0  0  0  0  0  0  0  0  0  0  0
   61.3360   33.6010   47.9280 C   0  0  0  0  0  0  0  0  0  0  0  0
   62.0870   33.4000   46.7560 C   0  0  0  0  0  0  0  0  0  0  0  0
   63.4800   33.3120   46.8210 C   0  0  0  0  0  0  0  0  0  0  0  0
   64.1350   33.4110   48.0510 C   0  0  0  0  0  0  0  0  0  0  0  0
   63.3960   33.5850   49.2250 C   0  0  0  0  0  0  0  0  0  0  0  0
   61.9970   33.6660   49.1690 C   0  0  0  0  0  0  0  0  0  0  0  0
   61.2290   33.8160   50.3690 N   0  0  0  0  0  0  0  0  0  0  0  0
   59.8040   33.6930   50.3340 C   0  0  0  0  0  0  0  0  0  0  0  0
   59.1310   33.8720   51.3840 O   0  0  0  0  0  0  0  0  0  0  0  0
   59.1170   33.2840   49.0620 C   0  0  0  0  0  0  0  0  0  0  0  0
   57.2850   29.2820   45.1280 C   0  0  0  0  0  0  0  0  0  0  0  0
   56.0150   28.6680   45.1960 C   0  0  0  0  0  0  0  0  0  0  0  0
   54.8640   29.3550   44.8320 O   0  0  0  0  0  0  0  0  0  0  0  0
   55.9020   27.3910   45.6500 N   0  0  0  0  0  0  0  0  0  0  0  0
   56.9790   26.6750   46.0660 C   0  0  0  0  0  0  0  0  0  0  0  0
   56.8280   25.4950   46.4770 O   0  0  0  0  0  0  0  0  0  0  0  0
   58.2500   27.2530   46.0450 C   0  0  0  0  0  0  0  0  0  0  0  0
   58.3990   28.5610   45.5820 C   0  0  0  0  0  0  0  0  0  0  0  0
  1  2  2  0
  2  3  1  0
  3  4  1  0
  4  5  1  0
  5  6  2  0
  5  7  1  0
  7  8  1  0
  8  9  2  0
  9 10  1  0
 10 11  2  0
 11 12  1  0
 12 13  2  0
 13 14  1  0
 14 15  1  0
 15 16  2  0
 15 17  1  0
  1 18  1  0
 18 19  2  0
 19 20  1  0
 19 21  1  0
 21 22  1  0
 22 23  2  0
 22 24  1  0
 24 25  2  0
 17  7  1  0
 25 18  1  0
 13  8  1  0
M  CHG  2  20  -1  21  -1
M  END
>  <UniqueID>  (435) 
22

>  <SMILES>  (435) 
O=C1CN(C(=O)CC/C=C/c2ccc(=O)[n-]c2[O-])c2ccccc2N1

>  <Energy>  (435) 
48.927146999129185

>  <Genealogy>  (435) 
O=C1CN(C(=O)CCC=Cc2ccc(=O)[n-]c2[O-])c2ccccc2N1 (protonated)
O=C1CN(C(=O)CC/C=C/c2ccc(=O)[n-]c2[O-])c2ccccc2N1 (cis-trans isomerization)
O=C1CN(C(=O)CC/C=C/c2ccc(=O)[n-]c2[O-])c2ccccc2N1 (3D coordinates assigned)
O=C1CN(C(=O)CC/C=C/c2ccc(=O)[n-]c2[O-])c2ccccc2N1 (nonaromatic ring conformer: 48.927146999129185 kcal/mol)

>  <smiles>  (435) 
O=C1CN(C(=O)CCC=Cc2ccc(=O)[nH]c2O)c2ccccc2N1

>  <score_type>  (435) 
oracle

>  <origin>  (435) 
adg

>  <m_score__min__energy>  (435) 
-14.029999999999999

>  <m_primary>  (435) 
energy

$$$$
35:0
     RDKit          3D

 26 28  0  0  0  0  0  0  0  0999 V2000
   59.5290   32.7760   48.2680 C   0  0  0  0  0  0  0  0  0  0  0  0
   60.3390   31.8060   48.5870 N   0  0  0  0  0  0  0  0  0  0  0  0
   60.8280   30.7730   47.7210 C   0  0  0  0  0  0  0  0  0  0  0  0
   61.9920   30.8780   47.2520 O   0  0  0  0  0  0  0  0  0  0  0  0
   60.0370   29.5580   47.4260 C   0  0  0  0  0  0  0  0  0  0  0  0
   59.2010   29.3650   46.3340 C   0  0  0  0  0  0  0  0  0  0  0  0
   58.9600   30.3290   45.2110 C   0  0  0  0  0  0  0  0  0  0  0  0
   58.6770   28.0850   46.4630 C   0  0  0  0  0  0  0  0  0  0  0  0
   57.7750   27.3840   45.4910 C   0  0  0  0  0  0  0  0  0  0  0  0
   57.1980   26.1530   46.1160 C   0  0  0  0  0  0  0  0  0  0  0  0
   57.9330   25.1480   46.6250 N   0  0  0  0  0  0  0  0  0  0  0  0
   57.0020   24.3050   47.1240 C   0  0  0  0  0  0  0  0  0  0  0  0
   57.3030   23.2220   47.6900 O   0  0  0  0  0  0  0  0  0  0  0  0
   55.7250   24.7160   46.9730 N   0  0  0  0  0  0  0  0  0  0  0  0
   55.8680   25.8900   46.3380 C   0  0  0  0  0  0  0  0  0  0  0  0
   54.8050   26.7080   45.9730 O   0  0  0  0  0  0  0  0  0  0  0  0
   59.1530   27.5020   47.5810 N   0  0  0  0  0  0  0  0  0  0  0  0
   59.9810   28.3860   48.1710 C   0  0  0  0  0  0  0  0  0  0  0  0
   60.7150   28.0970   49.4430 C   0  0  0  0  0  0  0  0  0  0  0  0
   58.3000   32.6160   47.4100 C   0  0  0  0  0  0  0  0  0  0  0  0
   57.8340   33.9390   46.9420 N   0  0  0  0  0  0  0  0  0  0  0  0
   57.2000   33.8580   45.6120 C   0  0  0  0  0  0  0  0  0  0  0  0
   58.2370   33.5830   44.4940 C   0  0  0  0  0  0  0  0  0  0  0  0
   59.5730   33.8340   44.8950 O   0  0  0  0  0  0  0  0  0  0  0  0
   59.6470   35.0570   45.5960 C   0  0  0  0  0  0  0  0  0  0  0  0
   58.9140   34.9550   46.9490 C   0  0  0  0  0  0  0  0  0  0  0  0
  1  2  2  0
  2  3  1  0
  3  4  2  0
  3  5  1  0
  5  6  1  0
  6  7  1  0
  6  8  2  0
  8  9  1  0
  9 10  1  0
 10 11  1  0
 11 12  1  0
 12 13  2  0
 12 14  1  0
 14 15  1  0
 15 16  1  0
  8 17  1  0
 17 18  1  0
 18 19  1  0
  1 20  1  0
 20 21  1  0
 21 22  1  0
 22 23  1  0
 23 24  1  0
 24 25  1  0
 25 26  1  0
 18  5  2  0
 26 21  1  0
 15 10  2  0
M  CHG  3  11  -1  14  -1  16  -1
M  END
>  <UniqueID>  (436) 
33

>  <SMILES>  (436) 
Cc1[nH]c(Cc2[n-]c(=O)[n-]c2[O-])c(C)c1C(=O)/N=C\CN1CCOCC1

>  <Energy>  (436) 
118.1484900722439

>  <Genealogy>  (436) 
Cc1[nH]c(Cc2[n-]c(=O)[n-]c2[O-])c(C)c1C(=O)N=CCN1CCOCC1 (protonated)
Cc1[nH]c(Cc2[n-]c(=O)[n-]c2[O-])c(C)c1C(=O)/N=C\CN1CCOCC1 (cis-trans isomerization)
Cc1[nH]c(Cc2[n-]c(=O)[n-]c2[O-])c(C)c1C(=O)/N=C\CN1CCOCC1 (3D coordinates assigned)
Cc1[nH]c(Cc2[n-]c(=O)[n-]c2[O-])c(C)c1C(=O)/N=C\CN1CCOCC1 (nonaromatic ring conformer: 118.1484900722439 kcal/mol)

>  <smiles>  (436) 
Cc1[nH]c(Cc2[nH]c(=O)[nH]c2O)c(C)c1C(=O)N=CCN1CCOCC1

>  <score_type>  (436) 
oracle

>  <origin>  (436) 
adg

>  <m_score__min__energy>  (436) 
-15.77

>  <m_primary>  (436) 
energy

$$$$
40:0
     RDKit          3D

 30 32  0  0  0  0  0  0  0  0999 V2000
   55.4490   28.9740   44.6340 O   0  0  0  0  0  0  0  0  0  0  0  0
   56.6630   29.5280   45.0470 C   0  0  0  0  0  0  0  0  0  0  0  0
   56.7470   30.8730   45.1850 N   0  0  0  0  0  0  0  0  0  0  0  0
   57.8890   31.4820   45.5900 C   0  0  0  0  0  0  0  0  0  0  0  0
   57.8960   32.7360   45.7110 O   0  0  0  0  0  0  0  0  0  0  0  0
   59.0130   30.7410   45.8560 N   0  0  0  0  0  0  0  0  0  0  0  0
   60.2460   31.3940   46.3450 C   0  0  0  0  0  0  0  0  0  0  0  0
   59.9670   32.1360   47.6270 C   0  0  0  0  0  0  0  0  0  0  0  0
   59.3830   31.4690   48.7180 C   0  0  0  0  0  0  0  0  0  0  0  0
   59.1700   32.1420   49.9240 C   0  0  0  0  0  0  0  0  0  0  0  0
   59.5440   33.4830   50.0540 C   0  0  0  0  0  0  0  0  0  0  0  0
   60.1280   34.1530   48.9760 C   0  0  0  0  0  0  0  0  0  0  0  0
   60.3410   33.4850   47.7670 C   0  0  0  0  0  0  0  0  0  0  0  0
   58.9710   29.3760   45.7170 C   0  0  0  0  0  0  0  0  0  0  0  0
   60.0050   28.6860   45.9300 O   0  0  0  0  0  0  0  0  0  0  0  0
   57.7830   28.7330   45.3310 C   0  0  0  0  0  0  0  0  0  0  0  0
   57.7150   27.2590   45.2010 C   0  0  0  0  0  0  0  0  0  0  0  0
   57.3840   26.4430   46.2190 C   0  0  0  0  0  0  0  0  0  0  0  0
   56.0120   25.8980   46.2940 C   0  0  0  0  0  0  0  0  0  0  0  0
   55.0410   26.6950   46.2640 O   0  0  0  0  0  0  0  0  0  0  0  0
   55.7450   24.4930   46.4120 N   0  0  0  0  0  0  0  0  0  0  0  0
   55.5960   23.5500   45.3060 C   0  0  0  0  0  0  0  0  0  0  0  0
   56.9270   22.9640   44.9010 C   0  0  0  0  0  0  0  0  0  0  0  0
   58.1000   23.3960   45.5410 C   0  0  0  0  0  0  0  0  0  0  0  0
   59.3400   22.8530   45.1930 C   0  0  0  0  0  0  0  0  0  0  0  0
   59.4240   21.8940   44.1820 C   0  0  0  0  0  0  0  0  0  0  0  0
   58.2710   21.4850   43.5080 C   0  0  0  0  0  0  0  0  0  0  0  0
   57.0250   22.0210   43.8550 C   0  0  0  0  0  0  0  0  0  0  0  0
   55.8950   21.6140   43.1540 O   0  0  0  0  0  0  0  0  0  0  0  0
   58.2910   26.2530   47.4070 C   0  0  0  0  0  0  0  0  0  0  0  0
  1  2  1  0
  2  3  1  0
  3  4  1  0
  4  5  2  0
  4  6  1  0
  6  7  1  0
  7  8  1  0
  8  9  2  0
  9 10  1  0
 10 11  2  0
 11 12  1  0
 12 13  2  0
  6 14  1  0
 14 15  2  0
 14 16  1  0
 16 17  1  0
 17 18  2  0
 18 19  1  0
 19 20  2  0
 19 21  1  0
 21 22  1  0
 22 23  1  0
 23 24  2  0
 24 25  1  0
 25 26  2  0
 26 27  1  0
 27 28  2  0
 28 29  1  0
 18 30  1  0
 16  2  2  0
 28 23  1  0
 13  8  1  0
M  CHG  3   3  -1  21  -1  29  -1
M  END
>  <UniqueID>  (437) 
38

>  <SMILES>  (437) 
C/C(=C\c1c(O)[n-]c(=O)n(Cc2ccccc2)c1=O)C(=O)[N-]Cc1ccccc1[O-]

>  <Energy>  (437) 
65.02421971108478

>  <Genealogy>  (437) 
CC(=Cc1c(O)[n-]c(=O)n(Cc2ccccc2)c1=O)C(=O)[N-]Cc1ccccc1[O-] (protonated)
C/C(=C\c1c(O)[n-]c(=O)n(Cc2ccccc2)c1=O)C(=O)[N-]Cc1ccccc1[O-] (cis-trans isomerization)
C/C(=C\c1c(O)[n-]c(=O)n(Cc2ccccc2)c1=O)C(=O)[N-]Cc1ccccc1[O-] (3D coordinates assigned)
C/C(=C\c1c(O)[n-]c(=O)n(Cc2ccccc2)c1=O)C(=O)[N-]Cc1ccccc1[O-] (optimized conformer: 65.02421971108478 kcal/mol)

>  <smiles>  (437) 
CC(=Cc1c(O)[nH]c(=O)n(Cc2ccccc2)c1=O)C(=O)NCc1ccccc1O

>  <score_type>  (437) 
oracle

>  <origin>  (437) 
adg

>  <m_score__min__energy>  (437) 
-15.699999999999999

>  <m_primary>  (437) 
energy

$$$$
59:0
     RDKit          3D

 26 27  0  0  0  0  0  0  0  0999 V2000
   55.2720   29.0990   44.5470 N   0  0  0  0  0  0  0  0  0  0  0  0
   55.9830   29.6850   43.4590 C   0  0  0  0  0  0  0  0  0  0  0  0
   55.9200   29.1520   42.3170 O   0  0  0  0  0  0  0  0  0  0  0  0
   56.7830   30.9040   43.6750 C   0  0  0  0  0  0  0  0  0  0  0  0
   57.4050   31.5660   42.6060 C   0  0  0  0  0  0  0  0  0  0  0  0
   58.1450   32.7210   42.8550 C   0  0  0  0  0  0  0  0  0  0  0  0
   58.2680   33.2060   44.1580 C   0  0  0  0  0  0  0  0  0  0  0  0
   57.6470   32.5140   45.2160 C   0  0  0  0  0  0  0  0  0  0  0  0
   57.7140   32.9650   46.6240 C   0  0  0  0  0  0  0  0  0  0  0  0
   58.6660   33.7770   47.1100 C   0  0  0  0  0  0  0  0  0  0  0  0
   60.1140   33.5890   46.8650 C   0  0  0  0  0  0  0  0  0  0  0  0
   60.5040   33.4710   45.6720 O   0  0  0  0  0  0  0  0  0  0  0  0
   61.1470   33.5600   47.9600 C   0  0  0  0  0  0  0  0  0  0  0  0
   60.9610   32.3540   48.8460 C   0  0  0  0  0  0  0  0  0  0  0  0
   60.7520   32.5170   50.0770 O   0  0  0  0  0  0  0  0  0  0  0  0
   61.0790   30.9760   48.3290 C   0  0  0  0  0  0  0  0  0  0  0  0
   60.1190   30.0390   48.3840 C   0  0  0  0  0  0  0  0  0  0  0  0
   59.5070   29.3750   47.2140 C   0  0  0  0  0  0  0  0  0  0  0  0
   59.9840   29.6020   45.9110 C   0  0  0  0  0  0  0  0  0  0  0  0
   59.3690   28.9830   44.8190 C   0  0  0  0  0  0  0  0  0  0  0  0
   58.2600   28.1530   45.0080 C   0  0  0  0  0  0  0  0  0  0  0  0
   57.6670   27.5470   43.9010 O   0  0  0  0  0  0  0  0  0  0  0  0
   57.7600   27.9480   46.3050 C   0  0  0  0  0  0  0  0  0  0  0  0
   56.6520   27.1340   46.5130 O   0  0  0  0  0  0  0  0  0  0  0  0
   58.3770   28.5660   47.3990 C   0  0  0  0  0  0  0  0  0  0  0  0
   56.9200   31.3980   44.9370 N   0  0  0  0  0  0  0  0  0  0  0  0
  1  2  1  0
  2  3  2  0
  2  4  1  0
  4  5  2  0
  5  6  1  0
  6  7  2  0
  7  8  1  0
  8  9  1  0
  9 10  2  3
 10 11  1  0
 11 12  2  0
 11 13  1  0
 13 14  1  0
 14 15  2  0
 14 16  1  0
 16 17  2  3
 17 18  1  0
 18 19  2  0
 19 20  1  0
 20 21  2  0
 21 22  1  0
 21 23  1  0
 23 24  1  0
 23 25  2  0
  8 26  2  0
 26  4  1  0
 25 18  1  0
M  CHG  2   1  -1  24  -1
M  END
>  <UniqueID>  (438) 
55

>  <SMILES>  (438) 
[NH-]C(=O)c1cccc(C=CC(=O)CC(=O)C=Cc2ccc(O)c([O-])c2)n1

>  <Energy>  (438) 
50.685758255568636

>  <Genealogy>  (438) 
[NH-]C(=O)c1cccc(C=CC(=O)CC(=O)C=Cc2ccc(O)c([O-])c2)n1 (protonated)
[NH-]C(=O)c1cccc(C=CC(=O)CC(=O)C=Cc2ccc(O)c([O-])c2)n1 (3D coordinates assigned)
[NH-]C(=O)c1cccc(C=CC(=O)CC(=O)C=Cc2ccc(O)c([O-])c2)n1 (optimized conformer: 50.685758255568636 kcal/mol)

>  <smiles>  (438) 
NC(=O)c1cccc(C=CC(=O)CC(=O)C=Cc2ccc(O)c(O)c2)n1

>  <score_type>  (438) 
oracle

>  <origin>  (438) 
adg

>  <m_score__min__energy>  (438) 
-14.82

>  <m_primary>  (438) 
energy

$$$$
66:0
     RDKit          3D

 28 30  0  0  0  0  0  0  0  0999 V2000
   57.6970   21.8540   45.9880 C   0  0  0  0  0  0  0  0  0  0  0  0
   56.9640   23.1320   45.9550 N   0  0  0  0  0  0  0  0  0  0  0  0
   55.7310   23.2350   46.5450 C   0  0  0  0  0  0  0  0  0  0  0  0
   55.1950   22.2390   47.1030 O   0  0  0  0  0  0  0  0  0  0  0  0
   55.0700   24.4200   46.5450 N   0  0  0  0  0  0  0  0  0  0  0  0
   55.5970   25.5280   45.9710 C   0  0  0  0  0  0  0  0  0  0  0  0
   54.8740   26.7150   45.9920 O   0  0  0  0  0  0  0  0  0  0  0  0
   56.8520   25.4660   45.3600 C   0  0  0  0  0  0  0  0  0  0  0  0
   57.4370   26.6860   44.7570 C   0  0  0  0  0  0  0  0  0  0  0  0
   57.5830   27.8660   45.4000 C   0  0  0  0  0  0  0  0  0  0  0  0
   56.8570   29.0880   44.9770 C   0  0  0  0  0  0  0  0  0  0  0  0
   55.6160   29.1930   45.1780 O   0  0  0  0  0  0  0  0  0  0  0  0
   57.5860   30.1770   44.3970 N   0  0  0  0  0  0  0  0  0  0  0  0
   57.8840   31.4260   45.0350 C   0  0  0  0  0  0  0  0  0  0  0  0
   57.0310   32.5400   44.9230 C   0  0  0  0  0  0  0  0  0  0  0  0
   57.3700   33.7500   45.5390 C   0  0  0  0  0  0  0  0  0  0  0  0
   58.5660   33.8620   46.2540 C   0  0  0  0  0  0  0  0  0  0  0  0
   58.9000   35.0640   46.8660 O   0  0  0  0  0  0  0  0  0  0  0  0
   59.4280   32.7660   46.3490 C   0  0  0  0  0  0  0  0  0  0  0  0
   59.0910   31.5550   45.7350 C   0  0  0  0  0  0  0  0  0  0  0  0
   58.4650   27.9400   46.5960 C   0  0  0  0  0  0  0  0  0  0  0  0
   58.4020   29.0500   47.4580 C   0  0  0  0  0  0  0  0  0  0  0  0
   59.2350   29.1260   48.5780 C   0  0  0  0  0  0  0  0  0  0  0  0
   60.1380   28.0960   48.8500 C   0  0  0  0  0  0  0  0  0  0  0  0
   60.2120   26.9900   48.0010 C   0  0  0  0  0  0  0  0  0  0  0  0
   59.3820   26.9090   46.8790 C   0  0  0  0  0  0  0  0  0  0  0  0
   57.5490   24.2440   45.4020 C   0  0  0  0  0  0  0  0  0  0  0  0
   58.7240   24.1810   44.9410 O   0  0  0  0  0  0  0  0  0  0  0  0
  1  2  1  0
  2  3  1  0
  3  4  2  0
  3  5  1  0
  5  6  1  0
  6  7  1  0
  6  8  2  0
  8  9  1  0
  9 10  2  3
 10 11  1  0
 11 12  2  0
 11 13  1  0
 13 14  1  0
 14 15  2  0
 15 16  1  0
 16 17  2  0
 17 18  1  0
 17 19  1  0
 19 20  2  0
 10 21  1  0
 21 22  2  0
 22 23  1  0
 23 24  2  0
 24 25  1  0
 25 26  2  0
  8 27  1  0
 27 28  2  0
 27  2  1  0
 20 14  1  0
 26 21  1  0
M  CHG  4   5  -1   7  -1  13  -1  18  -1
M  END
>  <UniqueID>  (439) 
62

>  <SMILES>  (439) 
Cn1c(=O)[n-]c([O-])c(C=C(C(=O)[N-]c2ccc([O-])cc2)c2ccccc2)c1=O

>  <Energy>  (439) 
66.79902494933093

>  <Genealogy>  (439) 
Cn1c(=O)[n-]c([O-])c(C=C(C(=O)[N-]c2ccc([O-])cc2)c2ccccc2)c1=O (protonated)
Cn1c(=O)[n-]c([O-])c(C=C(C(=O)[N-]c2ccc([O-])cc2)c2ccccc2)c1=O (3D coordinates assigned)
Cn1c(=O)[n-]c([O-])c(C=C(C(=O)[N-]c2ccc([O-])cc2)c2ccccc2)c1=O (optimized conformer: 66.79902494933093 kcal/mol)

>  <smiles>  (439) 
Cn1c(=O)[nH]c(O)c(C=C(C(=O)Nc2ccc(O)cc2)c2ccccc2)c1=O

>  <score_type>  (439) 
oracle

>  <origin>  (439) 
adg

>  <m_score__min__energy>  (439) 
-15.94

>  <m_primary>  (439) 
energy

$$$$
67:0
     RDKit          3D

 30 32  0  0  0  0  0  0  0  0999 V2000
   56.7100   30.7310   43.0390 C   0  0  0  0  0  0  0  0  0  0  0  0
   57.9630   31.6010   42.9900 C   0  0  0  0  0  0  0  0  0  0  0  0
   57.7570   32.9040   43.7720 C   0  0  0  0  0  0  0  0  0  0  0  0
   57.7510   32.6180   45.5410 S   0  0  0  0  0  0  0  0  0  0  0  0
   56.6500   33.4060   46.1910 O   0  0  0  0  0  0  0  0  0  0  0  0
   59.0710   33.0840   46.0890 O   0  0  0  0  0  0  0  0  0  0  0  0
   57.5660   30.9320   45.9100 N   0  0  0  0  0  0  0  0  0  0  0  0
   58.4990   30.2480   46.7500 C   0  0  0  0  0  0  0  0  0  0  0  0
   58.9260   30.8640   47.9350 C   0  0  0  0  0  0  0  0  0  0  0  0
   59.8630   30.2380   48.7580 C   0  0  0  0  0  0  0  0  0  0  0  0
   60.3700   28.9860   48.4110 C   0  0  0  0  0  0  0  0  0  0  0  0
   59.9320   28.3500   47.2470 C   0  0  0  0  0  0  0  0  0  0  0  0
   58.9850   28.9660   46.4080 C   0  0  0  0  0  0  0  0  0  0  0  0
   58.4800   28.2270   45.1890 C   0  0  0  0  0  0  0  0  0  0  0  0
   57.5100   27.1280   45.5750 C   0  0  0  0  0  0  0  0  0  0  0  0
   56.1260   27.3540   45.5970 C   0  0  0  0  0  0  0  0  0  0  0  0
   55.5950   28.5900   45.2470 O   0  0  0  0  0  0  0  0  0  0  0  0
   55.2840   26.3570   45.9570 N   0  0  0  0  0  0  0  0  0  0  0  0
   55.7400   25.1270   46.2970 C   0  0  0  0  0  0  0  0  0  0  0  0
   54.9040   24.2410   46.6240 O   0  0  0  0  0  0  0  0  0  0  0  0
   57.0850   24.8560   46.2830 N   0  0  0  0  0  0  0  0  0  0  0  0
   57.5810   23.5060   46.6190 C   0  0  0  0  0  0  0  0  0  0  0  0
   57.2790   22.5380   45.5030 C   0  0  0  0  0  0  0  0  0  0  0  0
   57.3470   22.9520   44.1620 C   0  0  0  0  0  0  0  0  0  0  0  0
   57.0390   22.0590   43.1310 C   0  0  0  0  0  0  0  0  0  0  0  0
   56.6580   20.7480   43.4300 C   0  0  0  0  0  0  0  0  0  0  0  0
   56.5850   20.3280   44.7610 C   0  0  0  0  0  0  0  0  0  0  0  0
   56.8920   21.2190   45.7960 C   0  0  0  0  0  0  0  0  0  0  0  0
   57.9700   25.8410   45.9160 C   0  0  0  0  0  0  0  0  0  0  0  0
   59.2090   25.5980   45.8800 O   0  0  0  0  0  0  0  0  0  0  0  0
  1  2  1  0
  2  3  1  0
  3  4  1  0
  4  5  2  0
  4  6  2  0
  4  7  1  0
  7  8  1  0
  8  9  2  0
  9 10  1  0
 10 11  2  0
 11 12  1  0
 12 13  2  0
 13 14  1  0
 14 15  1  0
 15 16  2  0
 16 17  1  0
 16 18  1  0
 18 19  1  0
 19 20  2  0
 19 21  1  0
 21 22  1  0
 22 23  1  0
 23 24  2  0
 24 25  1  0
 25 26  2  0
 26 27  1  0
 27 28  2  0
 21 29  1  0
 29 30  2  0
 13  8  1  0
 29 15  1  0
 28 23  1  0
M  CHG  2  17  -1  18  -1
M  END
>  <UniqueID>  (440) 
63

>  <SMILES>  (440) 
CCCS(=O)(=O)Nc1ccccc1Cc1c([O-])[n-]c(=O)n(Cc2ccccc2)c1=O

>  <Energy>  (440) 
57.56683970962635

>  <Genealogy>  (440) 
CCCS(=O)(=O)Nc1ccccc1Cc1c([O-])[n-]c(=O)n(Cc2ccccc2)c1=O (protonated)
CCCS(=O)(=O)Nc1ccccc1Cc1c([O-])[n-]c(=O)n(Cc2ccccc2)c1=O (3D coordinates assigned)
CCCS(=O)(=O)Nc1ccccc1Cc1c([O-])[n-]c(=O)n(Cc2ccccc2)c1=O (optimized conformer: 57.56683970962635 kcal/mol)

>  <smiles>  (440) 
CCCS(=O)(=O)Nc1ccccc1Cc1c(O)[nH]c(=O)n(Cc2ccccc2)c1=O

>  <score_type>  (440) 
oracle

>  <origin>  (440) 
adg

>  <m_score__min__energy>  (440) 
-14.18

>  <m_primary>  (440) 
energy

$$$$
17:0
     RDKit          3D

 23 24  0  0  0  0  0  0  0  0999 V2000
   60.0080   34.2470   49.5010 C   0  0  0  0  0  0  0  0  0  0  0  0
   59.6990   33.6750   48.1500 C   0  0  0  0  0  0  0  0  0  0  0  0
   58.8880   34.3830   47.2570 C   0  0  0  0  0  0  0  0  0  0  0  0
   58.5710   33.8360   46.0110 C   0  0  0  0  0  0  0  0  0  0  0  0
   59.0640   32.5610   45.6690 C   0  0  0  0  0  0  0  0  0  0  0  0
   58.7830   31.9790   44.5370 N   0  0  0  0  0  0  0  0  0  0  0  0
   57.3750   31.0210   44.1900 S   0  0  0  0  0  0  0  0  0  0  0  0
   56.1640   31.7240   44.7390 O   0  0  0  0  0  0  0  0  0  0  0  0
   57.2310   30.8930   42.6990 O   0  0  0  0  0  0  0  0  0  0  0  0
   57.5490   29.4040   44.8830 C   0  0  0  0  0  0  0  0  0  0  0  0
   58.8320   28.9150   45.1580 C   0  0  0  0  0  0  0  0  0  0  0  0
   59.0000   27.6480   45.7160 C   0  0  0  0  0  0  0  0  0  0  0  0
   57.8870   26.8550   46.0030 C   0  0  0  0  0  0  0  0  0  0  0  0
   56.5910   27.3270   45.7330 C   0  0  0  0  0  0  0  0  0  0  0  0
   55.4220   26.5440   46.0200 N   0  0  0  0  0  0  0  0  0  0  0  0
   55.3210   24.8140   45.9580 S   0  0  0  0  0  0  0  0  0  0  0  0
   56.2600   24.1920   44.5790 C   0  0  0  0  0  0  0  0  0  0  0  0
   53.8840   24.3850   45.8510 O   0  0  0  0  0  0  0  0  0  0  0  0
   55.9060   24.2540   47.2230 O   0  0  0  0  0  0  0  0  0  0  0  0
   56.4270   28.6000   45.1610 C   0  0  0  0  0  0  0  0  0  0  0  0
   55.1440   29.0590   44.8790 O   0  0  0  0  0  0  0  0  0  0  0  0
   59.8570   31.8990   46.5550 N   0  0  0  0  0  0  0  0  0  0  0  0
   60.1830   32.4170   47.7680 C   0  0  0  0  0  0  0  0  0  0  0  0
  1  2  1  0
  2  3  1  0
  3  4  2  0
  4  5  1  0
  5  6  2  3
  6  7  1  0
  7  8  2  0
  7  9  2  0
  7 10  1  0
 10 11  2  0
 11 12  1  0
 12 13  2  0
 13 14  1  0
 14 15  1  0
 15 16  1  0
 16 17  1  0
 16 18  2  0
 16 19  2  0
 14 20  2  0
 20 21  1  0
  5 22  1  0
 22 23  1  0
 23  2  2  0
 20 10  1  0
M  CHG  3  15  -1  21  -1  22  -1
M  END
>  <UniqueID>  (441) 
16

>  <SMILES>  (441) 
Cc1ccc(=NS(=O)(=O)c2cccc([N-]S(C)(=O)=O)c2[O-])[n-]c1

>  <Energy>  (441) 
41.414854980870416

>  <Genealogy>  (441) 
Cc1ccc(=NS(=O)(=O)c2cccc([N-]S(C)(=O)=O)c2[O-])[n-]c1 (protonated)
Cc1ccc(=NS(=O)(=O)c2cccc([N-]S(C)(=O)=O)c2[O-])[n-]c1 (3D coordinates assigned)
Cc1ccc(=NS(=O)(=O)c2cccc([N-]S(C)(=O)=O)c2[O-])[n-]c1 (optimized conformer: 41.414854980870416 kcal/mol)

>  <smiles>  (441) 
Cc1ccc(=NS(=O)(=O)c2cccc(NS(C)(=O)=O)c2O)[nH]c1

>  <score_type>  (441) 
oracle

>  <origin>  (441) 
adg

>  <m_score__min__energy>  (441) 
-15.82

>  <m_primary>  (441) 
energy

$$$$
47:0
     RDKit          3D

 28 30  0  0  0  0  0  0  0  0999 V2000
   55.6650   29.6660   44.8610 O   0  0  0  0  0  0  0  0  0  0  0  0
   56.6620   29.1490   45.4340 C   0  0  0  0  0  0  0  0  0  0  0  0
   57.8010   29.9520   45.7750 N   0  0  0  0  0  0  0  0  0  0  0  0
   58.0290   31.3150   45.3870 C   0  0  0  0  0  0  0  0  0  0  0  0
   57.5370   31.7520   44.1520 C   0  0  0  0  0  0  0  0  0  0  0  0
   57.7450   33.0700   43.7350 C   0  0  0  0  0  0  0  0  0  0  0  0
   58.4600   33.9560   44.5430 C   0  0  0  0  0  0  0  0  0  0  0  0
   58.9890   33.5230   45.7650 C   0  0  0  0  0  0  0  0  0  0  0  0
   59.8910   34.6470   46.7780 S   0  0  0  0  0  0  0  0  0  0  0  0
   61.3530   34.2940   46.7680 O   0  0  0  0  0  0  0  0  0  0  0  0
   59.7350   36.0380   46.2290 O   0  0  0  0  0  0  0  0  0  0  0  0
   59.2790   34.6040   48.4040 N   0  0  0  0  0  0  0  0  0  0  0  0
   60.2380   33.9220   49.2770 C   0  0  0  0  0  0  0  0  0  0  0  0
   60.1410   32.4370   49.0690 C   0  0  0  0  0  0  0  0  0  0  0  0
   58.9910   31.7360   49.4690 C   0  0  0  0  0  0  0  0  0  0  0  0
   58.8910   30.3600   49.2430 C   0  0  0  0  0  0  0  0  0  0  0  0
   59.9320   29.6770   48.6070 C   0  0  0  0  0  0  0  0  0  0  0  0
   61.0720   30.3700   48.1920 C   0  0  0  0  0  0  0  0  0  0  0  0
   61.1760   31.7460   48.4170 C   0  0  0  0  0  0  0  0  0  0  0  0
   58.7760   32.2020   46.1850 C   0  0  0  0  0  0  0  0  0  0  0  0
   56.6900   27.7020   45.7120 C   0  0  0  0  0  0  0  0  0  0  0  0
   57.8960   27.0310   45.9640 C   0  0  0  0  0  0  0  0  0  0  0  0
   57.8570   25.6590   46.2190 C   0  0  0  0  0  0  0  0  0  0  0  0
   58.9210   25.0260   46.4470 O   0  0  0  0  0  0  0  0  0  0  0  0
   56.6670   25.0030   46.2210 N   0  0  0  0  0  0  0  0  0  0  0  0
   55.5070   25.6650   45.9760 C   0  0  0  0  0  0  0  0  0  0  0  0
   54.4150   25.0410   45.9820 O   0  0  0  0  0  0  0  0  0  0  0  0
   55.5250   27.0000   45.7250 N   0  0  0  0  0  0  0  0  0  0  0  0
  1  2  2  0
  2  3  1  0
  3  4  1  0
  4  5  2  0
  5  6  1  0
  6  7  2  0
  7  8  1  0
  8  9  1  0
  9 10  2  0
  9 11  2  0
  9 12  1  0
 12 13  1  0
 13 14  1  0
 14 15  2  0
 15 16  1  0
 16 17  2  0
 17 18  1  0
 18 19  2  0
  8 20  2  0
  2 21  1  0
 21 22  2  0
 22 23  1  0
 23 24  2  0
 23 25  1  0
 25 26  1  0
 26 27  2  0
 26 28  1  0
 20  4  1  0
 28 21  1  0
 19 14  1  0
M  CHG  3   3  -1  25  -1  28  -1
M  END
>  <UniqueID>  (442) 
44

>  <SMILES>  (442) 
O=C([N-]c1cccc(S(=O)(=O)NCc2ccccc2)c1)c1cc(=O)[n-]c(=O)[n-]1

>  <Energy>  (442) 
45.26868254505505

>  <Genealogy>  (442) 
O=C([N-]c1cccc(S(=O)(=O)NCc2ccccc2)c1)c1cc(=O)[n-]c(=O)[n-]1 (protonated)
O=C([N-]c1cccc(S(=O)(=O)NCc2ccccc2)c1)c1cc(=O)[n-]c(=O)[n-]1 (3D coordinates assigned)
O=C([N-]c1cccc(S(=O)(=O)NCc2ccccc2)c1)c1cc(=O)[n-]c(=O)[n-]1 (optimized conformer: 45.26868254505505 kcal/mol)

>  <smiles>  (442) 
O=C(Nc1cccc(S(=O)(=O)NCc2ccccc2)c1)c1cc(=O)[nH]c(=O)[nH]1

>  <score_type>  (442) 
oracle

>  <origin>  (442) 
adg

>  <m_score__min__energy>  (442) 
-15.1

>  <m_primary>  (442) 
energy

$$$$
93:0
     RDKit          3D

 30 32  0  0  0  0  0  0  0  0999 V2000
   55.9240   31.6900   44.8600 O   0  0  0  0  0  0  0  0  0  0  0  0
   57.0200   31.6690   44.2390 C   0  0  0  0  0  0  0  0  0  0  0  0
   57.4990   30.3770   43.6340 C   0  0  0  0  0  0  0  0  0  0  0  0
   56.3950   29.3660   43.6170 C   0  0  0  0  0  0  0  0  0  0  0  0
   55.9140   28.9810   42.5160 O   0  0  0  0  0  0  0  0  0  0  0  0
   55.9180   28.8210   44.8520 N   0  0  0  0  0  0  0  0  0  0  0  0
   56.6180   27.8710   45.6690 C   0  0  0  0  0  0  0  0  0  0  0  0
   57.8910   28.2090   46.1460 C   0  0  0  0  0  0  0  0  0  0  0  0
   58.6070   27.3200   46.9580 C   0  0  0  0  0  0  0  0  0  0  0  0
   60.2240   27.7500   47.5120 S   0  0  0  0  0  0  0  0  0  0  0  0
   61.0610   26.5010   47.5430 O   0  0  0  0  0  0  0  0  0  0  0  0
   60.8520   28.7150   46.5460 O   0  0  0  0  0  0  0  0  0  0  0  0
   60.1610   28.4410   49.1210 N   0  0  0  0  0  0  0  0  0  0  0  0
   58.8970   29.1570   49.3650 C   0  0  0  0  0  0  0  0  0  0  0  0
   58.8360   30.5100   48.6160 C   0  0  0  0  0  0  0  0  0  0  0  0
   60.1060   30.9900   48.2070 O   0  0  0  0  0  0  0  0  0  0  0  0
   61.0570   30.7880   49.2270 C   0  0  0  0  0  0  0  0  0  0  0  0
   61.3430   29.2840   49.4010 C   0  0  0  0  0  0  0  0  0  0  0  0
   58.0420   26.0860   47.2990 C   0  0  0  0  0  0  0  0  0  0  0  0
   56.7600   25.7540   46.8540 C   0  0  0  0  0  0  0  0  0  0  0  0
   56.0370   26.6470   46.0560 C   0  0  0  0  0  0  0  0  0  0  0  0
   54.7380   26.3200   45.6850 O   0  0  0  0  0  0  0  0  0  0  0  0
   57.7980   32.8710   44.1700 N   0  0  0  0  0  0  0  0  0  0  0  0
   58.3900   33.5670   45.2750 C   0  0  0  0  0  0  0  0  0  0  0  0
   59.1690   34.7030   45.0210 C   0  0  0  0  0  0  0  0  0  0  0  0
   59.7850   35.3860   46.0740 C   0  0  0  0  0  0  0  0  0  0  0  0
   59.6430   34.9270   47.3850 C   0  0  0  0  0  0  0  0  0  0  0  0
   58.8920   33.7770   47.6490 C   0  0  0  0  0  0  0  0  0  0  0  0
   58.7730   33.3200   48.9600 O   0  0  0  0  0  0  0  0  0  0  0  0
   58.2730   33.0920   46.5940 C   0  0  0  0  0  0  0  0  0  0  0  0
  1  2  2  0
  2  3  1  0
  3  4  1  0
  4  5  2  0
  4  6  1  0
  6  7  1  0
  7  8  2  0
  8  9  1  0
  9 10  1  0
 10 11  2  0
 10 12  2  0
 10 13  1  0
 13 14  1  0
 14 15  1  0
 15 16  1  0
 16 17  1  0
 17 18  1  0
  9 19  2  0
 19 20  1  0
 20 21  2  0
 21 22  1  0
  2 23  1  0
 23 24  1  0
 24 25  2  0
 25 26  1  0
 26 27  2  0
 27 28  1  0
 28 29  1  0
 28 30  2  0
 21  7  1  0
 30 24  1  0
 18 13  1  0
M  CHG  3   6  -1  22  -1  23  -1
M  END
>  <UniqueID>  (443) 
87

>  <SMILES>  (443) 
O=C(CC(=O)[N-]c1cc(S(=O)(=O)N2CCOCC2)ccc1[O-])[N-]c1cccc(O)c1

>  <Energy>  (443) 
68.4623900148749

>  <Genealogy>  (443) 
O=C(CC(=O)[N-]c1cc(S(=O)(=O)N2CCOCC2)ccc1[O-])[N-]c1cccc(O)c1 (protonated)
O=C(CC(=O)[N-]c1cc(S(=O)(=O)N2CCOCC2)ccc1[O-])[N-]c1cccc(O)c1 (3D coordinates assigned)
O=C(CC(=O)[N-]c1cc(S(=O)(=O)N2CCOCC2)ccc1[O-])[N-]c1cccc(O)c1 (nonaromatic ring conformer: 68.4623900148749 kcal/mol)

>  <smiles>  (443) 
O=C(CC(=O)Nc1cc(S(=O)(=O)N2CCOCC2)ccc1O)Nc1cccc(O)c1

>  <score_type>  (443) 
oracle

>  <origin>  (443) 
adg

>  <m_score__min__energy>  (443) 
-14.73

>  <m_primary>  (443) 
energy

$$$$
12:0
     RDKit          3D

 25 27  0  0  0  0  0  0  0  0999 V2000
   55.1510   26.5770   46.0190 N   0  0  0  0  0  0  0  0  0  0  0  0
   54.8130   25.2360   45.6670 C   0  0  0  0  0  0  0  0  0  0  0  0
   53.6320   24.8340   45.8450 O   0  0  0  0  0  0  0  0  0  0  0  0
   55.8340   24.3420   45.0630 C   0  0  0  0  0  0  0  0  0  0  0  0
   55.4120   23.1200   44.5050 C   0  0  0  0  0  0  0  0  0  0  0  0
   56.3390   22.2100   43.9930 C   0  0  0  0  0  0  0  0  0  0  0  0
   55.9040   21.0060   43.4520 O   0  0  0  0  0  0  0  0  0  0  0  0
   57.7010   22.5050   44.0270 C   0  0  0  0  0  0  0  0  0  0  0  0
   58.1410   23.7160   44.5610 C   0  0  0  0  0  0  0  0  0  0  0  0
   57.2230   24.6510   45.0710 C   0  0  0  0  0  0  0  0  0  0  0  0
   57.7450   25.9540   45.5420 C   0  0  0  0  0  0  0  0  0  0  0  0
   57.9390   27.0080   44.6340 C   0  0  0  0  0  0  0  0  0  0  0  0
   58.4110   28.2460   45.0820 C   0  0  0  0  0  0  0  0  0  0  0  0
   58.6820   28.4470   46.4420 C   0  0  0  0  0  0  0  0  0  0  0  0
   59.2620   30.0070   47.0160 S   0  0  0  0  0  0  0  0  0  0  0  0
   60.5400   30.3870   46.3200 O   0  0  0  0  0  0  0  0  0  0  0  0
   59.5180   29.9180   48.4930 O   0  0  0  0  0  0  0  0  0  0  0  0
   58.0700   31.2320   46.7180 N   0  0  0  0  0  0  0  0  0  0  0  0
   58.3360   32.4160   46.2550 C   0  0  0  0  0  0  0  0  0  0  0  0
   58.8300   33.3990   47.0350 N   0  0  0  0  0  0  0  0  0  0  0  0
   59.0240   34.5460   46.3310 C   0  0  0  0  0  0  0  0  0  0  0  0
   58.6850   34.4810   44.9840 C   0  0  0  0  0  0  0  0  0  0  0  0
   58.1210   32.9280   44.6620 S   0  0  0  0  0  0  0  0  0  0  0  0
   58.4820   27.4000   47.3500 C   0  0  0  0  0  0  0  0  0  0  0  0
   58.0100   26.1620   46.9050 C   0  0  0  0  0  0  0  0  0  0  0  0
  1  2  1  0
  2  3  2  0
  2  4  1  0
  4  5  2  0
  5  6  1  0
  6  7  1  0
  6  8  2  0
  8  9  1  0
  9 10  2  0
 10 11  1  0
 11 12  2  0
 12 13  1  0
 13 14  2  0
 14 15  1  0
 15 16  2  0
 15 17  2  0
 15 18  1  0
 18 19  2  0
 19 20  1  0
 20 21  1  0
 21 22  2  0
 22 23  1  0
 14 24  1  0
 24 25  2  0
 10  4  1  0
 25 11  1  0
 23 19  1  0
M  CHG  3   1  -1   7  -1  20  -1
M  END
>  <UniqueID>  (444) 
12

>  <SMILES>  (444) 
[NH-]C(=O)c1cc([O-])ccc1-c1ccc(S(=O)(=O)/N=c2/[n-]ccs2)cc1

>  <Energy>  (444) 
81.77715481226993

>  <Genealogy>  (444) 
[NH-]C(=O)c1cc([O-])ccc1-c1ccc(S(=O)(=O)N=c2[n-]ccs2)cc1 (protonated)
[NH-]C(=O)c1cc([O-])ccc1-c1ccc(S(=O)(=O)/N=c2/[n-]ccs2)cc1 (cis-trans isomerization)
[NH-]C(=O)c1cc([O-])ccc1-c1ccc(S(=O)(=O)/N=c2/[n-]ccs2)cc1 (3D coordinates assigned)
[NH-]C(=O)c1cc([O-])ccc1-c1ccc(S(=O)(=O)/N=c2/[n-]ccs2)cc1 (optimized conformer: 81.77715481226993 kcal/mol)

>  <smiles>  (444) 
NC(=O)c1cc(O)ccc1-c1ccc(S(=O)(=O)N=c2[nH]ccs2)cc1

>  <score_type>  (444) 
oracle

>  <origin>  (444) 
adg

>  <m_score__min__energy>  (444) 
-14.48

>  <m_primary>  (444) 
energy

$$$$
17:0
     RDKit          3D

 29 31  0  0  0  0  0  0  0  0999 V2000
   62.4610   33.5640   46.8110 C   0  0  0  0  0  0  0  0  0  0  0  0
   61.1330   33.9840   47.1100 O   0  0  0  0  0  0  0  0  0  0  0  0
   59.9790   33.4300   46.5350 C   0  0  0  0  0  0  0  0  0  0  0  0
   59.3120   32.4130   47.2270 C   0  0  0  0  0  0  0  0  0  0  0  0
   58.1590   31.8280   46.6960 C   0  0  0  0  0  0  0  0  0  0  0  0
   57.6560   32.2560   45.4560 C   0  0  0  0  0  0  0  0  0  0  0  0
   56.4750   31.6870   44.8730 N   0  0  0  0  0  0  0  0  0  0  0  0
   56.3430   30.0720   44.2560 S   0  0  0  0  0  0  0  0  0  0  0  0
   55.1430   29.3890   44.8500 O   0  0  0  0  0  0  0  0  0  0  0  0
   56.2100   30.1250   42.7590 O   0  0  0  0  0  0  0  0  0  0  0  0
   57.7910   29.1780   44.6990 C   0  0  0  0  0  0  0  0  0  0  0  0
   59.0620   29.7520   44.5530 C   0  0  0  0  0  0  0  0  0  0  0  0
   60.2030   29.0270   44.9070 C   0  0  0  0  0  0  0  0  0  0  0  0
   60.0830   27.7310   45.4130 C   0  0  0  0  0  0  0  0  0  0  0  0
   58.8130   27.1530   45.5800 C   0  0  0  0  0  0  0  0  0  0  0  0
   58.6560   25.8150   46.0740 N   0  0  0  0  0  0  0  0  0  0  0  0
   57.4730   25.2730   46.6760 C   0  0  0  0  0  0  0  0  0  0  0  0
   57.3740   25.2910   47.9330 O   0  0  0  0  0  0  0  0  0  0  0  0
   56.4170   24.6270   45.8670 C   0  0  0  0  0  0  0  0  0  0  0  0
   56.7380   23.6800   44.8820 C   0  0  0  0  0  0  0  0  0  0  0  0
   55.7040   23.1180   44.1300 C   0  0  0  0  0  0  0  0  0  0  0  0
   55.9590   22.2650   43.2400 O   0  0  0  0  0  0  0  0  0  0  0  0
   54.4190   23.4930   44.3590 N   0  0  0  0  0  0  0  0  0  0  0  0
   54.1220   24.4150   45.3100 C   0  0  0  0  0  0  0  0  0  0  0  0
   52.9250   24.7520   45.5070 O   0  0  0  0  0  0  0  0  0  0  0  0
   55.1130   24.9740   46.0490 N   0  0  0  0  0  0  0  0  0  0  0  0
   57.6740   27.8730   45.2000 C   0  0  0  0  0  0  0  0  0  0  0  0
   58.3210   33.2740   44.7620 C   0  0  0  0  0  0  0  0  0  0  0  0
   59.4740   33.8610   45.2930 C   0  0  0  0  0  0  0  0  0  0  0  0
  1  2  1  0
  2  3  1  0
  3  4  2  0
  4  5  1  0
  5  6  2  0
  6  7  1  0
  7  8  1  0
  8  9  2  0
  8 10  2  0
  8 11  1  0
 11 12  2  0
 12 13  1  0
 13 14  2  0
 14 15  1  0
 15 16  1  0
 16 17  1  0
 17 18  2  0
 17 19  1  0
 19 20  2  0
 20 21  1  0
 21 22  2  0
 21 23  1  0
 23 24  1  0
 24 25  2  0
 24 26  1  0
 15 27  2  0
  6 28  1  0
 28 29  2  0
 29  3  1  0
 27 11  1  0
 26 19  1  0
M  CHG  4   7  -1  16  -1  23  -1  26  -1
M  END
>  <UniqueID>  (445) 
17

>  <SMILES>  (445) 
COc1ccc([N-]S(=O)(=O)c2cccc([N-]C(=O)c3cc(=O)[n-]c(=O)[n-]3)c2)cc1

>  <Energy>  (445) 
54.21201120819741

>  <Genealogy>  (445) 
COc1ccc([N-]S(=O)(=O)c2cccc([N-]C(=O)c3cc(=O)[n-]c(=O)[n-]3)c2)cc1 (protonated)
COc1ccc([N-]S(=O)(=O)c2cccc([N-]C(=O)c3cc(=O)[n-]c(=O)[n-]3)c2)cc1 (3D coordinates assigned)
COc1ccc([N-]S(=O)(=O)c2cccc([N-]C(=O)c3cc(=O)[n-]c(=O)[n-]3)c2)cc1 (optimized conformer: 54.21201120819741 kcal/mol)

>  <smiles>  (445) 
COc1ccc(NS(=O)(=O)c2cccc(NC(=O)c3cc(=O)[nH]c(=O)[nH]3)c2)cc1

>  <score_type>  (445) 
oracle

>  <origin>  (445) 
adg

>  <m_score__min__energy>  (445) 
-15.15

>  <m_primary>  (445) 
energy

$$$$
19:0
     RDKit          3D

 25 27  0  0  0  0  0  0  0  0999 V2000
   56.6260   19.6320   50.5910 N   0  0  0  0  0  0  0  0  0  0  0  0
   57.1890   20.6780   49.3360 S   0  0  0  0  0  0  0  0  0  0  0  0
   57.8140   21.9010   49.9470 O   0  0  0  0  0  0  0  0  0  0  0  0
   58.2270   19.9650   48.5150 O   0  0  0  0  0  0  0  0  0  0  0  0
   55.8360   21.1470   48.3110 C   0  0  0  0  0  0  0  0  0  0  0  0
   55.5410   20.4120   47.1560 C   0  0  0  0  0  0  0  0  0  0  0  0
   54.4590   20.7750   46.3480 C   0  0  0  0  0  0  0  0  0  0  0  0
   53.6710   21.8850   46.6770 C   0  0  0  0  0  0  0  0  0  0  0  0
   52.5520   22.2120   45.8430 N   0  0  0  0  0  0  0  0  0  0  0  0
   52.2830   23.4850   45.2390 C   0  0  0  0  0  0  0  0  0  0  0  0
   51.2650   24.1290   45.6090 O   0  0  0  0  0  0  0  0  0  0  0  0
   53.1540   24.0490   44.1500 C   0  0  0  0  0  0  0  0  0  0  0  0
   54.5250   24.2170   44.6330 N   0  0  0  0  0  0  0  0  0  0  0  0
   55.5720   23.3940   44.4110 C   0  0  0  0  0  0  0  0  0  0  0  0
   55.5180   22.2500   43.6250 O   0  0  0  0  0  0  0  0  0  0  0  0
   56.6890   23.8460   45.0860 C   0  0  0  0  0  0  0  0  0  0  0  0
   56.3080   24.9810   45.7570 C   0  0  0  0  0  0  0  0  0  0  0  0
   54.9720   25.1810   45.4680 C   0  0  0  0  0  0  0  0  0  0  0  0
   54.1850   26.2110   45.9680 O   0  0  0  0  0  0  0  0  0  0  0  0
   57.2100   25.7710   46.6500 C   0  0  0  0  0  0  0  0  0  0  0  0
   58.6200   25.2160   46.6550 C   0  0  0  0  0  0  0  0  0  0  0  0
   58.9960   24.0980   45.9940 C   0  0  0  0  0  0  0  0  0  0  0  0
   58.0580   23.2500   45.1580 C   0  0  0  0  0  0  0  0  0  0  0  0
   53.9470   22.6000   47.8550 C   0  0  0  0  0  0  0  0  0  0  0  0
   55.0280   22.2360   48.6640 C   0  0  0  0  0  0  0  0  0  0  0  0
  1  2  1  0
  2  3  2  0
  2  4  2  0
  2  5  1  0
  5  6  2  0
  6  7  1  0
  7  8  2  0
  8  9  1  0
  9 10  1  0
 10 11  2  0
 10 12  1  0
 12 13  1  0
 13 14  1  0
 14 15  1  0
 14 16  2  0
 16 17  1  0
 17 18  2  0
 18 19  1  0
 17 20  1  0
 20 21  1  0
 21 22  2  0
 22 23  1  0
  8 24  1  0
 24 25  2  0
 25  5  1  0
 18 13  1  0
 23 16  1  0
M  CHG  4   1  -1   9  -1  15  -1  19  -1
M  END
>  <UniqueID>  (446) 
19

>  <SMILES>  (446) 
[NH-]S(=O)(=O)c1ccc([N-]C(=O)Cn2c([O-])c3c(c2[O-])CC=CC3)cc1

>  <Energy>  (446) 
75.87035409662458

>  <Genealogy>  (446) 
[NH-]S(=O)(=O)c1ccc([N-]C(=O)Cn2c([O-])c3c(c2[O-])CC=CC3)cc1 (protonated)
[NH-]S(=O)(=O)c1ccc([N-]C(=O)Cn2c([O-])c3c(c2[O-])CC=CC3)cc1 (3D coordinates assigned)
[NH-]S(=O)(=O)c1ccc([N-]C(=O)Cn2c([O-])c3c(c2[O-])CC=CC3)cc1 (nonaromatic ring conformer: 75.87035409662458 kcal/mol)

>  <smiles>  (446) 
NS(=O)(=O)c1ccc(NC(=O)Cn2c(O)c3c(c2O)CC=CC3)cc1

>  <score_type>  (446) 
oracle

>  <origin>  (446) 
adg

>  <m_score__min__energy>  (446) 
-14.050000000000001

>  <m_primary>  (446) 
energy

$$$$
31:0
     RDKit          3D

 26 27  0  0  0  0  0  0  0  0999 V2000
   55.5330   28.9700   44.9150 N   0  0  0  0  0  0  0  0  0  0  0  0
   56.5910   30.1480   44.2200 S   0  0  0  0  0  0  0  0  0  0  0  0
   56.0520   31.5230   44.4950 O   0  0  0  0  0  0  0  0  0  0  0  0
   56.6670   29.9340   42.7350 O   0  0  0  0  0  0  0  0  0  0  0  0
   58.2190   29.9990   44.9360 C   0  0  0  0  0  0  0  0  0  0  0  0
   58.1800   30.2840   46.4370 C   0  0  0  0  0  0  0  0  0  0  0  0
   59.3850   30.9930   46.8530 N   0  0  0  0  0  0  0  0  0  0  0  0
   60.5850   30.3350   47.2740 C   0  0  0  0  0  0  0  0  0  0  0  0
   61.6870   30.6220   46.7340 O   0  0  0  0  0  0  0  0  0  0  0  0
   60.5270   29.3360   48.3510 C   0  0  0  0  0  0  0  0  0  0  0  0
   60.3700   29.6950   49.9860 S   0  0  0  0  0  0  0  0  0  0  0  0
   60.3630   28.1070   50.5380 C   0  0  0  0  0  0  0  0  0  0  0  0
   60.4880   27.2660   49.4400 C   0  0  0  0  0  0  0  0  0  0  0  0
   60.6100   27.9510   48.2200 C   0  0  0  0  0  0  0  0  0  0  0  0
   60.7310   27.2980   46.9500 N   0  0  0  0  0  0  0  0  0  0  0  0
   59.7490   26.4610   46.3260 C   0  0  0  0  0  0  0  0  0  0  0  0
   59.9980   25.2350   46.1930 O   0  0  0  0  0  0  0  0  0  0  0  0
   58.3770   26.9670   45.9570 C   0  0  0  0  0  0  0  0  0  0  0  0
   57.2770   26.2830   46.7800 C   0  0  0  0  0  0  0  0  0  0  0  0
   56.6180   25.1490   46.0290 C   0  0  0  0  0  0  0  0  0  0  0  0
   57.3590   23.9990   45.7040 C   0  0  0  0  0  0  0  0  0  0  0  0
   56.7610   22.9460   45.0060 C   0  0  0  0  0  0  0  0  0  0  0  0
   55.4150   23.0230   44.6420 C   0  0  0  0  0  0  0  0  0  0  0  0
   54.6660   24.1550   44.9690 C   0  0  0  0  0  0  0  0  0  0  0  0
   55.2600   25.2190   45.6560 C   0  0  0  0  0  0  0  0  0  0  0  0
   54.4970   26.3400   45.9620 O   0  0  0  0  0  0  0  0  0  0  0  0
  1  2  1  0
  2  3  2  0
  2  4  2  0
  2  5  1  0
  5  6  1  0
  6  7  1  0
  7  8  1  0
  8  9  2  0
  8 10  1  0
 10 11  1  0
 11 12  1  0
 12 13  2  0
 13 14  1  0
 14 15  1  0
 15 16  1  0
 16 17  2  0
 16 18  1  0
 18 19  1  0
 19 20  1  0
 20 21  2  0
 21 22  1  0
 22 23  2  0
 23 24  1  0
 24 25  2  0
 25 26  1  0
 14 10  2  0
 25 20  1  0
M  CHG  4   1  -1   7  -1  15  -1  26  -1
M  END
>  <UniqueID>  (447) 
30

>  <SMILES>  (447) 
[NH-]S(=O)(=O)CC[N-]C(=O)c1sccc1[N-]C(=O)CCc1ccccc1[O-]

>  <Energy>  (447) 
56.02143683100238

>  <Genealogy>  (447) 
[NH-]S(=O)(=O)CC[N-]C(=O)c1sccc1[N-]C(=O)CCc1ccccc1[O-] (protonated)
[NH-]S(=O)(=O)CC[N-]C(=O)c1sccc1[N-]C(=O)CCc1ccccc1[O-] (3D coordinates assigned)
[NH-]S(=O)(=O)CC[N-]C(=O)c1sccc1[N-]C(=O)CCc1ccccc1[O-] (optimized conformer: 56.02143683100238 kcal/mol)

>  <smiles>  (447) 
NS(=O)(=O)CCNC(=O)c1sccc1NC(=O)CCc1ccccc1O

>  <score_type>  (447) 
oracle

>  <origin>  (447) 
adg

>  <m_score__min__energy>  (447) 
-17.41

>  <m_primary>  (447) 
energy

$$$$
94:0
     RDKit          3D

 32 35  0  0  0  0  0  0  0  0999 V2000
   64.3130   32.8980   48.9250 C   0  0  0  0  0  0  0  0  0  0  0  0
   63.2230   33.5800   49.7460 C   0  0  0  0  0  0  0  0  0  0  0  0
   61.9190   33.4170   49.0940 N   0  0  0  0  0  0  0  0  0  0  0  0
   61.5440   34.3330   48.1940 N   0  0  0  0  0  0  0  0  0  0  0  0
   60.3700   34.2390   47.5170 C   0  0  0  0  0  0  0  0  0  0  0  0
   59.5090   33.1740   47.7800 C   0  0  0  0  0  0  0  0  0  0  0  0
   59.8880   32.2110   48.7120 C   0  0  0  0  0  0  0  0  0  0  0  0
   61.1160   32.3390   49.3650 C   0  0  0  0  0  0  0  0  0  0  0  0
   61.4700   31.4610   50.1980 O   0  0  0  0  0  0  0  0  0  0  0  0
   58.2010   33.1190   47.0480 C   0  0  0  0  0  0  0  0  0  0  0  0
   58.4180   33.5080   45.6440 N   0  0  0  0  0  0  0  0  0  0  0  0
   57.9130   32.6870   44.5700 C   0  0  0  0  0  0  0  0  0  0  0  0
   58.3610   32.8870   43.2520 C   0  0  0  0  0  0  0  0  0  0  0  0
   57.9160   32.0570   42.2190 C   0  0  0  0  0  0  0  0  0  0  0  0
   57.0190   31.0210   42.4870 C   0  0  0  0  0  0  0  0  0  0  0  0
   56.5460   30.8160   43.7930 C   0  0  0  0  0  0  0  0  0  0  0  0
   55.5790   29.7310   44.0680 C   0  0  0  0  0  0  0  0  0  0  0  0
   54.6720   29.4860   43.2290 O   0  0  0  0  0  0  0  0  0  0  0  0
   55.6670   28.9160   45.2460 N   0  0  0  0  0  0  0  0  0  0  0  0
   56.6650   27.9200   45.5250 C   0  0  0  0  0  0  0  0  0  0  0  0
   58.0410   28.1840   45.3780 C   0  0  0  0  0  0  0  0  0  0  0  0
   58.9830   27.2110   45.7120 C   0  0  0  0  0  0  0  0  0  0  0  0
   58.5710   25.9800   46.2260 C   0  0  0  0  0  0  0  0  0  0  0  0
   57.2050   25.7070   46.3970 C   0  0  0  0  0  0  0  0  0  0  0  0
   56.7870   24.4240   46.9960 C   0  0  0  0  0  0  0  0  0  0  0  0
   57.6730   23.6180   47.3870 O   0  0  0  0  0  0  0  0  0  0  0  0
   55.4110   24.0350   47.0880 N   0  0  0  0  0  0  0  0  0  0  0  0
   54.5500   23.7840   45.9400 C   0  0  0  0  0  0  0  0  0  0  0  0
   56.2570   26.6840   46.0480 C   0  0  0  0  0  0  0  0  0  0  0  0
   57.0070   31.6410   44.8320 C   0  0  0  0  0  0  0  0  0  0  0  0
   59.2520   34.6850   45.3130 C   0  0  0  0  0  0  0  0  0  0  0  0
   59.9450   35.3020   46.5470 C   0  0  0  0  0  0  0  0  0  0  0  0
  1  2  1  0
  2  3  1  0
  3  4  1  0
  4  5  2  0
  5  6  1  0
  6  7  2  0
  7  8  1  0
  8  9  2  0
  6 10  1  0
 10 11  1  0
 11 12  1  0
 12 13  2  0
 13 14  1  0
 14 15  2  0
 15 16  1  0
 16 17  1  0
 17 18  2  0
 17 19  1  0
 19 20  1  0
 20 21  2  0
 21 22  1  0
 22 23  2  0
 23 24  1  0
 24 25  1  0
 25 26  2  0
 25 27  1  0
 27 28  1  0
 24 29  2  0
 16 30  2  0
 11 31  1  0
 31 32  1  0
  8  3  1  0
 30 12  1  0
 32  5  1  0
 29 20  1  0
M  CHG  2  19  -1  27  -1
M  END
>  <UniqueID>  (448) 
86

>  <SMILES>  (448) 
CCn1nc2c(cc1=O)CN(c1cccc(C(=O)[N-]c3cccc(C(=O)[N-]C)c3)c1)CC2

>  <Energy>  (448) 
74.16178162358834

>  <Genealogy>  (448) 
CCn1nc2c(cc1=O)CN(c1cccc(C(=O)[N-]c3cccc(C(=O)[N-]C)c3)c1)CC2 (protonated)
CCn1nc2c(cc1=O)CN(c1cccc(C(=O)[N-]c3cccc(C(=O)[N-]C)c3)c1)CC2 (3D coordinates assigned)
CCn1nc2c(cc1=O)CN(c1cccc(C(=O)[N-]c3cccc(C(=O)[N-]C)c3)c1)CC2 (nonaromatic ring conformer: 74.16178162358834 kcal/mol)

>  <smiles>  (448) 
CCn1nc2c(cc1=O)CN(c1cccc(C(=O)Nc3cccc(C(=O)NC)c3)c1)CC2

>  <score_type>  (448) 
oracle

>  <origin>  (448) 
adg

>  <m_score__min__energy>  (448) 
-14.460000000000001

>  <m_primary>  (448) 
energy

$$$$
24:0
     RDKit          3D

 29 31  0  0  0  0  0  0  0  0999 V2000
   58.3330   25.2900   46.3630 O   0  0  0  0  0  0  0  0  0  0  0  0
   57.1700   25.6470   46.0310 C   0  0  0  0  0  0  0  0  0  0  0  0
   56.8760   27.0750   45.7430 C   0  0  0  0  0  0  0  0  0  0  0  0
   57.7870   28.0120   45.4350 C   0  0  0  0  0  0  0  0  0  0  0  0
   57.5040   29.4570   45.2870 C   0  0  0  0  0  0  0  0  0  0  0  0
   56.2440   29.9090   44.8790 C   0  0  0  0  0  0  0  0  0  0  0  0
   55.2120   29.0120   44.6320 O   0  0  0  0  0  0  0  0  0  0  0  0
   56.0290   31.2340   44.7070 N   0  0  0  0  0  0  0  0  0  0  0  0
   57.0100   32.1470   44.9130 C   0  0  0  0  0  0  0  0  0  0  0  0
   56.7530   33.3680   44.7280 O   0  0  0  0  0  0  0  0  0  0  0  0
   58.2620   31.7440   45.3050 N   0  0  0  0  0  0  0  0  0  0  0  0
   59.3370   32.7380   45.4920 C   0  0  0  0  0  0  0  0  0  0  0  0
   59.6150   32.9470   46.9830 C   0  0  0  0  0  0  0  0  0  0  0  0
   61.0940   32.9110   47.2590 C   0  0  0  0  0  0  0  0  0  0  0  0
   61.9500   33.8480   46.6560 C   0  0  0  0  0  0  0  0  0  0  0  0
   63.3200   33.8350   46.9390 C   0  0  0  0  0  0  0  0  0  0  0  0
   63.8410   32.8950   47.8340 C   0  0  0  0  0  0  0  0  0  0  0  0
   62.9930   31.9700   48.4490 C   0  0  0  0  0  0  0  0  0  0  0  0
   61.6230   31.9800   48.1670 C   0  0  0  0  0  0  0  0  0  0  0  0
   58.5240   30.4060   45.4690 C   0  0  0  0  0  0  0  0  0  0  0  0
   59.6820   30.0160   45.7880 O   0  0  0  0  0  0  0  0  0  0  0  0
   56.1130   24.6140   45.9120 C   0  0  0  0  0  0  0  0  0  0  0  0
   56.4490   23.2470   45.8720 C   0  0  0  0  0  0  0  0  0  0  0  0
   55.4520   22.2730   45.7720 C   0  0  0  0  0  0  0  0  0  0  0  0
   54.1080   22.6480   45.7180 C   0  0  0  0  0  0  0  0  0  0  0  0
   53.1190   21.6780   45.6200 O   0  0  0  0  0  0  0  0  0  0  0  0
   53.7600   24.0000   45.7640 C   0  0  0  0  0  0  0  0  0  0  0  0
   54.7510   24.9820   45.8620 C   0  0  0  0  0  0  0  0  0  0  0  0
   54.3740   26.3220   45.8910 O   0  0  0  0  0  0  0  0  0  0  0  0
  1  2  2  0
  2  3  1  0
  3  4  2  3
  4  5  1  0
  5  6  2  0
  6  7  1  0
  6  8  1  0
  8  9  1  0
  9 10  2  0
  9 11  1  0
 11 12  1  0
 12 13  1  0
 13 14  1  0
 14 15  2  0
 15 16  1  0
 16 17  2  0
 17 18  1  0
 18 19  2  0
 11 20  1  0
 20 21  2  0
  2 22  1  0
 22 23  2  0
 23 24  1  0
 24 25  2  0
 25 26  1  0
 25 27  1  0
 27 28  2  0
 28 29  1  0
 20  5  1  0
 28 22  1  0
 19 14  1  0
M  CHG  4   7  -1   8  -1  26  -1  29  -1
M  END
>  <UniqueID>  (449) 
24

>  <SMILES>  (449) 
O=C(C=Cc1c([O-])[n-]c(=O)n(CCc2ccccc2)c1=O)c1ccc([O-])cc1[O-]

>  <Energy>  (449) 
62.27999096372342

>  <Genealogy>  (449) 
O=C(C=Cc1c([O-])[n-]c(=O)n(CCc2ccccc2)c1=O)c1ccc([O-])cc1[O-] (protonated)
O=C(C=Cc1c([O-])[n-]c(=O)n(CCc2ccccc2)c1=O)c1ccc([O-])cc1[O-] (3D coordinates assigned)
O=C(C=Cc1c([O-])[n-]c(=O)n(CCc2ccccc2)c1=O)c1ccc([O-])cc1[O-] (optimized conformer: 62.27999096372342 kcal/mol)

>  <smiles>  (449) 
O=C(C=Cc1c(O)[nH]c(=O)n(CCc2ccccc2)c1=O)c1ccc(O)cc1O

>  <score_type>  (449) 
oracle

>  <origin>  (449) 
adg

>  <m_score__min__energy>  (449) 
-19.199999999999999

>  <m_primary>  (449) 
energy

$$$$
63:0
     RDKit          3D

 27 29  0  0  0  0  0  0  0  0999 V2000
   55.1520   26.6750   45.6490 N   0  0  0  0  0  0  0  0  0  0  0  0
   56.3440   26.2620   46.3140 C   0  0  0  0  0  0  0  0  0  0  0  0
   56.2860   25.2870   47.1120 O   0  0  0  0  0  0  0  0  0  0  0  0
   57.6460   26.9390   46.0610 C   0  0  0  0  0  0  0  0  0  0  0  0
   58.8350   26.1930   46.1830 C   0  0  0  0  0  0  0  0  0  0  0  0
   60.0780   26.7860   45.9570 C   0  0  0  0  0  0  0  0  0  0  0  0
   60.1580   28.1350   45.6180 C   0  0  0  0  0  0  0  0  0  0  0  0
   58.9940   28.8910   45.4880 C   0  0  0  0  0  0  0  0  0  0  0  0
   57.7320   28.3050   45.6870 C   0  0  0  0  0  0  0  0  0  0  0  0
   56.5540   29.1210   45.6280 N   0  0  0  0  0  0  0  0  0  0  0  0
   56.0600   29.8080   44.4710 C   0  0  0  0  0  0  0  0  0  0  0  0
   55.0440   29.3540   43.8830 O   0  0  0  0  0  0  0  0  0  0  0  0
   56.7550   31.0160   43.9000 C   0  0  0  0  0  0  0  0  0  0  0  0
   56.7050   32.1160   44.8080 O   0  0  0  0  0  0  0  0  0  0  0  0
   57.7930   32.5220   45.5870 C   0  0  0  0  0  0  0  0  0  0  0  0
   58.7690   31.7460   45.7810 O   0  0  0  0  0  0  0  0  0  0  0  0
   57.8100   33.8950   46.1790 C   0  0  0  0  0  0  0  0  0  0  0  0
   59.0920   34.9180   45.3780 S   0  0  0  0  0  0  0  0  0  0  0  0
   60.4090   34.4080   46.4800 C   0  0  0  0  0  0  0  0  0  0  0  0
   60.3370   34.5580   47.8270 N   0  0  0  0  0  0  0  0  0  0  0  0
   61.5090   34.0550   48.2350 C   0  0  0  0  0  0  0  0  0  0  0  0
   61.9860   33.9560   49.5400 C   0  0  0  0  0  0  0  0  0  0  0  0
   63.2600   33.3850   49.7270 C   0  0  0  0  0  0  0  0  0  0  0  0
   64.0130   32.9370   48.6170 C   0  0  0  0  0  0  0  0  0  0  0  0
   63.4970   33.0570   47.3130 C   0  0  0  0  0  0  0  0  0  0  0  0
   62.2340   33.6260   47.1670 C   0  0  0  0  0  0  0  0  0  0  0  0
   61.5560   33.8380   46.0300 N   0  0  0  0  0  0  0  0  0  0  0  0
  1  2  1  0
  2  3  2  0
  2  4  1  0
  4  5  2  0
  5  6  1  0
  6  7  2  0
  7  8  1  0
  8  9  2  0
  9 10  1  0
 10 11  1  0
 11 12  2  0
 11 13  1  0
 13 14  1  0
 14 15  1  0
 15 16  2  0
 15 17  1  0
 17 18  1  0
 18 19  1  0
 19 20  2  0
 20 21  1  0
 21 22  2  0
 22 23  1  0
 23 24  2  0
 24 25  1  0
 25 26  2  0
 26 27  1  0
  9  4  1  0
 27 19  1  0
 26 21  1  0
M  CHG  3   1  -1  10  -1  27  -1
M  END
>  <UniqueID>  (450) 
60

>  <SMILES>  (450) 
[NH-]C(=O)c1ccccc1[N-]C(=O)COC(=O)CSc1nc2ccccc2[n-]1

>  <Energy>  (450) 
74.39746488586735

>  <Genealogy>  (450) 
[NH-]C(=O)c1ccccc1[N-]C(=O)COC(=O)CSc1nc2ccccc2[n-]1 (protonated)
[NH-]C(=O)c1ccccc1[N-]C(=O)COC(=O)CSc1nc2ccccc2[n-]1 (3D coordinates assigned)
[NH-]C(=O)c1ccccc1[N-]C(=O)COC(=O)CSc1nc2ccccc2[n-]1 (optimized conformer: 74.39746488586735 kcal/mol)

>  <smiles>  (450) 
NC(=O)c1ccccc1NC(=O)COC(=O)CSc1nc2ccccc2[nH]1

>  <score_type>  (450) 
oracle

>  <origin>  (450) 
adg

>  <m_score__min__energy>  (450) 
-14.93

>  <m_primary>  (450) 
energy

$$$$
90:0
     RDKit          3D

 23 24  0  0  0  0  0  0  0  0999 V2000
   55.1700   29.3540   44.4840 N   0  0  0  0  0  0  0  0  0  0  0  0
   56.6360   29.8250   43.6980 S   0  0  0  0  0  0  0  0  0  0  0  0
   57.4260   28.5980   43.3380 O   0  0  0  0  0  0  0  0  0  0  0  0
   56.3110   30.5770   42.4380 O   0  0  0  0  0  0  0  0  0  0  0  0
   57.5820   30.8440   44.7780 C   0  0  0  0  0  0  0  0  0  0  0  0
   57.8000   32.1920   44.4680 C   0  0  0  0  0  0  0  0  0  0  0  0
   58.5380   33.0010   45.3360 C   0  0  0  0  0  0  0  0  0  0  0  0
   59.0680   32.4660   46.5130 C   0  0  0  0  0  0  0  0  0  0  0  0
   58.8710   31.1170   46.8270 C   0  0  0  0  0  0  0  0  0  0  0  0
   59.4220   30.6000   48.0470 N   0  0  0  0  0  0  0  0  0  0  0  0
   59.1790   29.2990   48.6010 C   0  0  0  0  0  0  0  0  0  0  0  0
   59.0170   29.1930   49.8460 O   0  0  0  0  0  0  0  0  0  0  0  0
   59.1580   28.0790   47.7600 C   0  0  0  0  0  0  0  0  0  0  0  0
   60.3480   27.5460   47.2350 C   0  0  0  0  0  0  0  0  0  0  0  0
   60.3170   26.4070   46.4270 C   0  0  0  0  0  0  0  0  0  0  0  0
   59.1000   25.7800   46.1450 C   0  0  0  0  0  0  0  0  0  0  0  0
   57.9080   26.2850   46.6810 C   0  0  0  0  0  0  0  0  0  0  0  0
   56.3730   25.5080   46.3130 S   0  0  0  0  0  0  0  0  0  0  0  0
   55.1920   26.7120   45.9380 N   0  0  0  0  0  0  0  0  0  0  0  0
   55.9120   24.7040   47.4970 O   0  0  0  0  0  0  0  0  0  0  0  0
   56.5350   24.5840   45.1380 O   0  0  0  0  0  0  0  0  0  0  0  0
   57.9410   27.4320   47.4870 C   0  0  0  0  0  0  0  0  0  0  0  0
   58.1010   30.3130   45.9670 C   0  0  0  0  0  0  0  0  0  0  0  0
  1  2  1  0
  2  3  2  0
  2  4  2  0
  2  5  1  0
  5  6  2  0
  6  7  1  0
  7  8  2  0
  8  9  1  0
  9 10  1  0
 10 11  1  0
 11 12  2  0
 11 13  1  0
 13 14  2  0
 14 15  1  0
 15 16  2  0
 16 17  1  0
 17 18  1  0
 18 19  1  0
 18 20  2  0
 18 21  2  0
 17 22  2  0
  9 23  2  0
 23  5  1  0
 22 13  1  0
M  CHG  3   1  -1  10  -1  19  -1
M  END
>  <UniqueID>  (451) 
85

>  <SMILES>  (451) 
[NH-]S(=O)(=O)c1cccc([N-]C(=O)c2cccc(S([NH-])(=O)=O)c2)c1

>  <Energy>  (451) 
39.356651368936156

>  <Genealogy>  (451) 
[NH-]S(=O)(=O)c1cccc([N-]C(=O)c2cccc(S([NH-])(=O)=O)c2)c1 (protonated)
[NH-]S(=O)(=O)c1cccc([N-]C(=O)c2cccc(S([NH-])(=O)=O)c2)c1 (3D coordinates assigned)
[NH-]S(=O)(=O)c1cccc([N-]C(=O)c2cccc(S([NH-])(=O)=O)c2)c1 (optimized conformer: 39.356651368936156 kcal/mol)

>  <smiles>  (451) 
NS(=O)(=O)c1cccc(NC(=O)c2cccc(S(N)(=O)=O)c2)c1

>  <score_type>  (451) 
oracle

>  <origin>  (451) 
adg

>  <m_score__min__energy>  (451) 
-14.32

>  <m_primary>  (451) 
energy

$$$$
53:0
     RDKit          3D

 28 30  0  0  0  0  0  0  0  0999 V2000
   60.0450   31.9890   49.9500 O   0  0  0  0  0  0  0  0  0  0  0  0
   59.9020   30.7940   49.2470 C   0  0  0  0  0  0  0  0  0  0  0  0
   58.7730   29.9900   49.4450 C   0  0  0  0  0  0  0  0  0  0  0  0
   58.6280   28.7950   48.7380 C   0  0  0  0  0  0  0  0  0  0  0  0
   59.6020   28.3880   47.8140 C   0  0  0  0  0  0  0  0  0  0  0  0
   59.4010   27.1050   47.0950 C   0  0  0  0  0  0  0  0  0  0  0  0
   58.4080   26.8880   46.2210 C   0  0  0  0  0  0  0  0  0  0  0  0
   57.6690   27.9910   45.5600 C   0  0  0  0  0  0  0  0  0  0  0  0
   56.2750   27.9210   45.4630 C   0  0  0  0  0  0  0  0  0  0  0  0
   55.5790   26.8440   46.0010 O   0  0  0  0  0  0  0  0  0  0  0  0
   55.5880   28.9150   44.8540 N   0  0  0  0  0  0  0  0  0  0  0  0
   56.2160   29.9880   44.3150 C   0  0  0  0  0  0  0  0  0  0  0  0
   55.5190   30.8820   43.7600 O   0  0  0  0  0  0  0  0  0  0  0  0
   57.5830   30.0910   44.3670 N   0  0  0  0  0  0  0  0  0  0  0  0
   58.2730   31.2360   43.7360 C   0  0  0  0  0  0  0  0  0  0  0  0
   57.5990   32.5670   44.0990 C   0  0  0  0  0  0  0  0  0  0  0  0
   58.2560   33.2210   45.2860 C   0  0  0  0  0  0  0  0  0  0  0  0
   59.0870   34.3410   45.1100 C   0  0  0  0  0  0  0  0  0  0  0  0
   59.6590   34.9730   46.2180 C   0  0  0  0  0  0  0  0  0  0  0  0
   59.4030   34.4980   47.5070 C   0  0  0  0  0  0  0  0  0  0  0  0
   58.5710   33.3890   47.6900 C   0  0  0  0  0  0  0  0  0  0  0  0
   57.9960   32.7540   46.5860 C   0  0  0  0  0  0  0  0  0  0  0  0
   58.3160   29.0960   44.9690 C   0  0  0  0  0  0  0  0  0  0  0  0
   59.5780   29.1550   44.9690 O   0  0  0  0  0  0  0  0  0  0  0  0
   60.7450   29.1920   47.6310 C   0  0  0  0  0  0  0  0  0  0  0  0
   60.8970   30.3990   48.3420 C   0  0  0  0  0  0  0  0  0  0  0  0
   62.0180   31.2280   48.1810 O   0  0  0  0  0  0  0  0  0  0  0  0
   62.1820   32.1670   47.1230 C   0  0  0  0  0  0  0  0  0  0  0  0
  1  2  1  0
  2  3  2  0
  3  4  1  0
  4  5  2  0
  5  6  1  0
  6  7  2  0
  7  8  1  0
  8  9  2  0
  9 10  1  0
  9 11  1  0
 11 12  1  0
 12 13  2  0
 12 14  1  0
 14 15  1  0
 15 16  1  0
 16 17  1  0
 17 18  2  0
 18 19  1  0
 19 20  2  0
 20 21  1  0
 21 22  2  0
 14 23  1  0
 23 24  2  0
  5 25  1  0
 25 26  2  0
 26 27  1  0
 27 28  1  0
 26  2  1  0
 23  8  1  0
 22 17  1  0
M  CHG  2  10  -1  11  -1
M  END
>  <UniqueID>  (452) 
47

>  <SMILES>  (452) 
COc1cc(/C=C/c2c([O-])[n-]c(=O)n(CCc3ccccc3)c2=O)ccc1O

>  <Energy>  (452) 
57.01256596987954

>  <Genealogy>  (452) 
COc1cc(C=Cc2c([O-])[n-]c(=O)n(CCc3ccccc3)c2=O)ccc1O (protonated)
COc1cc(/C=C/c2c([O-])[n-]c(=O)n(CCc3ccccc3)c2=O)ccc1O (cis-trans isomerization)
COc1cc(/C=C/c2c([O-])[n-]c(=O)n(CCc3ccccc3)c2=O)ccc1O (3D coordinates assigned)
COc1cc(/C=C/c2c([O-])[n-]c(=O)n(CCc3ccccc3)c2=O)ccc1O (optimized conformer: 57.01256596987954 kcal/mol)

>  <smiles>  (452) 
COc1cc(C=Cc2c(O)[nH]c(=O)n(CCc3ccccc3)c2=O)ccc1O

>  <score_type>  (452) 
oracle

>  <origin>  (452) 
adg

>  <m_score__min__energy>  (452) 
-14.27

>  <m_primary>  (452) 
energy

$$$$
59:0
     RDKit          3D

 29 31  0  0  0  0  0  0  0  0999 V2000
   56.8600   30.6760   43.5660 C   0  0  0  0  0  0  0  0  0  0  0  0
   56.8910   31.2670   44.8630 O   0  0  0  0  0  0  0  0  0  0  0  0
   57.7590   32.2980   45.2510 C   0  0  0  0  0  0  0  0  0  0  0  0
   57.6210   33.6110   44.7490 C   0  0  0  0  0  0  0  0  0  0  0  0
   58.5010   34.6170   45.1520 C   0  0  0  0  0  0  0  0  0  0  0  0
   59.5260   34.3310   46.0550 C   0  0  0  0  0  0  0  0  0  0  0  0
   59.6740   33.0370   46.5600 C   0  0  0  0  0  0  0  0  0  0  0  0
   58.7930   32.0160   46.1680 C   0  0  0  0  0  0  0  0  0  0  0  0
   59.0090   30.4000   46.8450 S   0  0  0  0  0  0  0  0  0  0  0  0
   60.3370   29.8150   46.4550 O   0  0  0  0  0  0  0  0  0  0  0  0
   58.9380   30.4930   48.3430 O   0  0  0  0  0  0  0  0  0  0  0  0
   57.7500   29.3450   46.2800 N   0  0  0  0  0  0  0  0  0  0  0  0
   57.7820   27.9080   46.4070 C   0  0  0  0  0  0  0  0  0  0  0  0
   58.9200   27.2390   46.9000 C   0  0  0  0  0  0  0  0  0  0  0  0
   58.9310   25.8460   47.0080 C   0  0  0  0  0  0  0  0  0  0  0  0
   57.8110   25.1010   46.6410 C   0  0  0  0  0  0  0  0  0  0  0  0
   56.6650   25.7450   46.1520 C   0  0  0  0  0  0  0  0  0  0  0  0
   55.2520   24.7970   45.6870 S   0  0  0  0  0  0  0  0  0  0  0  0
   54.0310   25.6770   45.6640 O   0  0  0  0  0  0  0  0  0  0  0  0
   55.0520   23.6860   46.6790 O   0  0  0  0  0  0  0  0  0  0  0  0
   55.5100   24.1380   44.1040 N   0  0  0  0  0  0  0  0  0  0  0  0
   56.3240   23.1590   43.8530 C   0  0  0  0  0  0  0  0  0  0  0  0
   57.5740   23.1770   44.3860 N   0  0  0  0  0  0  0  0  0  0  0  0
   58.4550   22.1700   44.1450 C   0  0  0  0  0  0  0  0  0  0  0  0
   58.0800   21.0960   43.3370 C   0  0  0  0  0  0  0  0  0  0  0  0
   56.7960   21.0900   42.7980 C   0  0  0  0  0  0  0  0  0  0  0  0
   55.9440   22.1150   43.0640 N   0  0  0  0  0  0  0  0  0  0  0  0
   56.6550   27.1480   46.0290 C   0  0  0  0  0  0  0  0  0  0  0  0
   55.5250   27.7880   45.5270 O   0  0  0  0  0  0  0  0  0  0  0  0
  1  2  1  0
  2  3  1  0
  3  4  2  0
  4  5  1  0
  5  6  2  0
  6  7  1  0
  7  8  2  0
  8  9  1  0
  9 10  2  0
  9 11  2  0
  9 12  1  0
 12 13  1  0
 13 14  2  0
 14 15  1  0
 15 16  2  0
 16 17  1  0
 17 18  1  0
 18 19  2  0
 18 20  2  0
 18 21  1  0
 21 22  2  3
 22 23  1  0
 23 24  2  0
 24 25  1  0
 25 26  2  0
 26 27  1  0
 17 28  2  0
 28 29  1  0
  8  3  1  0
 28 13  1  0
 27 22  1  0
M  CHG  2  27  -1  29  -1
M  END
>  <UniqueID>  (453) 
53

>  <SMILES>  (453) 
COc1ccccc1S(=O)(=O)Nc1cccc(S(=O)(=O)N=c2nccc[n-]2)c1[O-]

>  <Energy>  (453) 
55.43575055495933

>  <Genealogy>  (453) 
COc1ccccc1S(=O)(=O)Nc1cccc(S(=O)(=O)N=c2nccc[n-]2)c1[O-] (protonated)
COc1ccccc1S(=O)(=O)Nc1cccc(S(=O)(=O)N=c2nccc[n-]2)c1[O-] (3D coordinates assigned)
COc1ccccc1S(=O)(=O)Nc1cccc(S(=O)(=O)N=c2nccc[n-]2)c1[O-] (optimized conformer: 55.43575055495933 kcal/mol)

>  <smiles>  (453) 
COc1ccccc1S(=O)(=O)Nc1cccc(S(=O)(=O)N=c2nccc[nH]2)c1O

>  <score_type>  (453) 
oracle

>  <origin>  (453) 
adg

>  <m_score__min__energy>  (453) 
-14.710000000000001

>  <m_primary>  (453) 
energy

$$$$
67:0
     RDKit          3D

 26 28  0  0  0  0  0  0  0  0999 V2000
   56.5840   29.5700   43.5790 C   0  0  0  0  0  0  0  0  0  0  0  0
   57.1410   30.9330   43.4240 C   0  0  0  0  0  0  0  0  0  0  0  0
   57.0290   31.4960   42.3030 O   0  0  0  0  0  0  0  0  0  0  0  0
   57.7890   31.6690   44.5340 C   0  0  0  0  0  0  0  0  0  0  0  0
   57.4060   32.9850   44.8470 C   0  0  0  0  0  0  0  0  0  0  0  0
   57.9720   33.6450   45.9410 C   0  0  0  0  0  0  0  0  0  0  0  0
   58.9350   33.0030   46.7350 C   0  0  0  0  0  0  0  0  0  0  0  0
   59.5260   33.6600   47.8680 N   0  0  0  0  0  0  0  0  0  0  0  0
   60.9420   33.7240   48.1040 C   0  0  0  0  0  0  0  0  0  0  0  0
   61.8260   33.4010   47.1200 N   0  0  0  0  0  0  0  0  0  0  0  0
   63.1660   33.4830   47.3220 C   0  0  0  0  0  0  0  0  0  0  0  0
   63.9620   33.1730   46.3990 O   0  0  0  0  0  0  0  0  0  0  0  0
   63.6490   33.9020   48.5210 N   0  0  0  0  0  0  0  0  0  0  0  0
   62.8070   34.2460   49.5290 C   0  0  0  0  0  0  0  0  0  0  0  0
   63.2730   34.6350   50.6310 O   0  0  0  0  0  0  0  0  0  0  0  0
   61.4250   34.1680   49.3400 C   0  0  0  0  0  0  0  0  0  0  0  0
   59.3650   31.7160   46.3840 C   0  0  0  0  0  0  0  0  0  0  0  0
   58.7950   31.0520   45.2940 C   0  0  0  0  0  0  0  0  0  0  0  0
   56.2430   28.9920   44.7430 C   0  0  0  0  0  0  0  0  0  0  0  0
   56.9880   27.8910   45.3920 C   0  0  0  0  0  0  0  0  0  0  0  0
   58.3880   27.9670   45.4570 C   0  0  0  0  0  0  0  0  0  0  0  0
   59.1260   26.9250   46.0250 C   0  0  0  0  0  0  0  0  0  0  0  0
   58.4720   25.8080   46.5500 C   0  0  0  0  0  0  0  0  0  0  0  0
   57.0780   25.7420   46.5290 C   0  0  0  0  0  0  0  0  0  0  0  0
   56.3310   26.7830   45.9660 C   0  0  0  0  0  0  0  0  0  0  0  0
   54.9410   26.7130   45.9910 O   0  0  0  0  0  0  0  0  0  0  0  0
  1  2  1  0
  2  3  2  0
  2  4  1  0
  4  5  2  0
  5  6  1  0
  6  7  2  0
  7  8  1  0
  8  9  1  0
  9 10  1  0
 10 11  1  0
 11 12  2  0
 11 13  1  0
 13 14  1  0
 14 15  2  0
 14 16  1  0
  7 17  1  0
 17 18  2  0
  1 19  2  0
 19 20  1  0
 20 21  2  0
 21 22  1  0
 22 23  2  0
 23 24  1  0
 24 25  2  0
 25 26  1  0
 18  4  1  0
 25 20  1  0
 16  9  2  0
M  CHG  3  10  -1  13  -1  26  -1
M  END
>  <UniqueID>  (454) 
60

>  <SMILES>  (454) 
O=C(/C=C\c1ccccc1[O-])c1ccc(Nc2cc(=O)[n-]c(=O)[n-]2)cc1

>  <Energy>  (454) 
56.245507198528685

>  <Genealogy>  (454) 
O=C(C=Cc1ccccc1[O-])c1ccc(Nc2cc(=O)[n-]c(=O)[n-]2)cc1 (protonated)
O=C(/C=C\c1ccccc1[O-])c1ccc(Nc2cc(=O)[n-]c(=O)[n-]2)cc1 (cis-trans isomerization)
O=C(/C=C\c1ccccc1[O-])c1ccc(Nc2cc(=O)[n-]c(=O)[n-]2)cc1 (3D coordinates assigned)
O=C(/C=C\c1ccccc1[O-])c1ccc(Nc2cc(=O)[n-]c(=O)[n-]2)cc1 (optimized conformer: 56.245507198528685 kcal/mol)

>  <smiles>  (454) 
O=C(C=Cc1ccccc1O)c1ccc(Nc2cc(=O)[nH]c(=O)[nH]2)cc1

>  <score_type>  (454) 
oracle

>  <origin>  (454) 
adg

>  <m_score__min__energy>  (454) 
-14.1

>  <m_primary>  (454) 
energy

$$$$
0:0
     RDKit          3D

 25 28  0  0  0  0  0  0  0  0999 V2000
   57.5160   27.1030   44.7710 C   0  0  0  0  0  0  0  0  0  0  0  0
   57.1000   26.0050   45.6650 C   0  0  0  0  0  0  0  0  0  0  0  0
   57.9030   25.0400   46.1480 N   0  0  0  0  0  0  0  0  0  0  0  0
   57.0980   24.3500   46.9850 C   0  0  0  0  0  0  0  0  0  0  0  0
   57.4910   23.3460   47.6320 O   0  0  0  0  0  0  0  0  0  0  0  0
   55.8380   24.8280   47.0810 N   0  0  0  0  0  0  0  0  0  0  0  0
   55.8610   25.8800   46.2480 C   0  0  0  0  0  0  0  0  0  0  0  0
   54.7710   26.7120   46.0270 O   0  0  0  0  0  0  0  0  0  0  0  0
   57.4620   28.4150   45.0550 C   0  0  0  0  0  0  0  0  0  0  0  0
   56.8040   29.3690   44.2910 C   0  0  0  0  0  0  0  0  0  0  0  0
   56.9760   30.5950   44.8350 N   0  0  0  0  0  0  0  0  0  0  0  0
   57.7220   30.4600   45.9180 N   0  0  0  0  0  0  0  0  0  0  0  0
   58.2050   31.4110   46.7790 C   0  0  0  0  0  0  0  0  0  0  0  0
   57.9530   32.6980   46.7260 N   0  0  0  0  0  0  0  0  0  0  0  0
   57.8680   33.8360   45.7890 C   0  0  0  0  0  0  0  0  0  0  0  0
   59.1480   34.5740   45.4680 C   0  0  0  0  0  0  0  0  0  0  0  0
   58.4830   33.6660   44.4190 C   0  0  0  0  0  0  0  0  0  0  0  0
   59.0190   30.9850   47.7840 N   0  0  0  0  0  0  0  0  0  0  0  0
   59.3340   29.6670   47.9350 C   0  0  0  0  0  0  0  0  0  0  0  0
   60.4280   29.1580   49.2620 S   0  0  0  0  0  0  0  0  0  0  0  0
   60.2140   27.3410   49.0810 C   0  0  0  0  0  0  0  0  0  0  0  0
   60.7890   26.8230   47.7600 C   0  0  0  0  0  0  0  0  0  0  0  0
   60.7830   26.5770   50.2800 C   0  0  0  0  0  0  0  0  0  0  0  0
   58.8530   28.7440   47.0630 N   0  0  0  0  0  0  0  0  0  0  0  0
   58.0330   29.1600   46.0720 C   0  0  0  0  0  0  0  0  0  0  0  0
  1  2  1  0
  2  3  1  0
  3  4  1  0
  4  5  2  0
  4  6  1  0
  6  7  1  0
  7  8  1  0
  1  9  2  0
  9 10  1  0
 10 11  2  0
 11 12  1  0
 12 13  1  0
 13 14  2  3
 14 15  1  0
 15 16  1  0
 16 17  1  0
 13 18  1  0
 18 19  2  0
 19 20  1  0
 20 21  1  0
 21 22  1  0
 21 23  1  0
 19 24  1  0
 24 25  2  0
  7  2  2  0
 25  9  1  0
 25 12  1  0
 17 15  1  0
M  CHG  3   3  -1   6  -1   8  -1
M  END
>  <UniqueID>  (455) 
1

>  <SMILES>  (455) 
CC(C)Sc1nc(=NC2CC2)n2nc/c(=C/c3[n-]c(=O)[n-]c3[O-])c2n1

>  <Energy>  (455) 
398.33973463074165

>  <Genealogy>  (455) 
CC(C)Sc1nc(=NC2CC2)n2ncc(=Cc3[n-]c(=O)[n-]c3[O-])c2n1 (protonated)
CC(C)Sc1nc(=NC2CC2)n2nc/c(=C/c3[n-]c(=O)[n-]c3[O-])c2n1 (cis-trans isomerization)
CC(C)Sc1nc(=NC2CC2)n2nc/c(=C/c3[n-]c(=O)[n-]c3[O-])c2n1 (3D coordinates assigned)
CC(C)Sc1nc(=NC2CC2)n2nc/c(=C/c3[n-]c(=O)[n-]c3[O-])c2n1 (nonaromatic ring conformer: 398.33973463074165 kcal/mol)

>  <smiles>  (455) 
CC(C)Sc1nc(=NC2CC2)n2ncc(=Cc3[nH]c(=O)[nH]c3O)c2n1

>  <score_type>  (455) 
oracle

>  <origin>  (455) 
adg

>  <m_score__min__energy>  (455) 
-15.68

>  <m_primary>  (455) 
energy

$$$$
21:0
     RDKit          3D

 25 27  0  0  0  0  0  0  0  0999 V2000
   57.4910   33.1420   45.6970 O   0  0  0  0  0  0  0  0  0  0  0  0
   57.6170   31.8880   45.7590 C   0  0  0  0  0  0  0  0  0  0  0  0
   56.6580   31.1030   45.2060 N   0  0  0  0  0  0  0  0  0  0  0  0
   56.7410   29.7510   45.2420 C   0  0  0  0  0  0  0  0  0  0  0  0
   55.7350   28.9910   44.6560 O   0  0  0  0  0  0  0  0  0  0  0  0
   57.8390   29.1350   45.8520 C   0  0  0  0  0  0  0  0  0  0  0  0
   57.9300   27.6560   45.8780 C   0  0  0  0  0  0  0  0  0  0  0  0
   57.0400   26.8440   46.4700 C   0  0  0  0  0  0  0  0  0  0  0  0
   56.5720   25.5490   45.9190 C   0  0  0  0  0  0  0  0  0  0  0  0
   57.4830   24.5330   45.5750 C   0  0  0  0  0  0  0  0  0  0  0  0
   57.0270   23.3220   45.0490 C   0  0  0  0  0  0  0  0  0  0  0  0
   55.6610   23.1200   44.8410 C   0  0  0  0  0  0  0  0  0  0  0  0
   54.7500   24.1320   45.1500 C   0  0  0  0  0  0  0  0  0  0  0  0
   55.1990   25.3470   45.6820 C   0  0  0  0  0  0  0  0  0  0  0  0
   54.2750   26.3400   45.9840 O   0  0  0  0  0  0  0  0  0  0  0  0
   58.8070   29.9580   46.4580 C   0  0  0  0  0  0  0  0  0  0  0  0
   59.7800   29.4330   47.0710 O   0  0  0  0  0  0  0  0  0  0  0  0
   58.6940   31.3220   46.3880 N   0  0  0  0  0  0  0  0  0  0  0  0
   59.7110   32.1620   46.9730 C   0  0  0  0  0  0  0  0  0  0  0  0
   61.0690   31.8890   46.7490 C   0  0  0  0  0  0  0  0  0  0  0  0
   62.0540   32.6990   47.3210 C   0  0  0  0  0  0  0  0  0  0  0  0
   61.6890   33.7870   48.1200 C   0  0  0  0  0  0  0  0  0  0  0  0
   62.6690   34.5930   48.6880 O   0  0  0  0  0  0  0  0  0  0  0  0
   60.3370   34.0650   48.3460 C   0  0  0  0  0  0  0  0  0  0  0  0
   59.3510   33.2570   47.7760 C   0  0  0  0  0  0  0  0  0  0  0  0
  1  2  2  0
  2  3  1  0
  3  4  1  0
  4  5  1  0
  4  6  2  0
  6  7  1  0
  7  8  2  3
  8  9  1  0
  9 10  2  0
 10 11  1  0
 11 12  2  0
 12 13  1  0
 13 14  2  0
 14 15  1  0
  6 16  1  0
 16 17  2  0
 16 18  1  0
 18 19  1  0
 19 20  2  0
 20 21  1  0
 21 22  2  0
 22 23  1  0
 22 24  1  0
 24 25  2  0
 18  2  1  0
 25 19  1  0
 14  9  1  0
M  CHG  4   3  -1   5  -1  15  -1  23  -1
M  END
>  <UniqueID>  (456) 
19

>  <SMILES>  (456) 
O=c1[n-]c([O-])c(C=Cc2ccccc2[O-])c(=O)n1-c1ccc([O-])cc1

>  <Energy>  (456) 
61.217332412069645

>  <Genealogy>  (456) 
O=c1[n-]c([O-])c(C=Cc2ccccc2[O-])c(=O)n1-c1ccc([O-])cc1 (protonated)
O=c1[n-]c([O-])c(C=Cc2ccccc2[O-])c(=O)n1-c1ccc([O-])cc1 (3D coordinates assigned)
O=c1[n-]c([O-])c(C=Cc2ccccc2[O-])c(=O)n1-c1ccc([O-])cc1 (optimized conformer: 61.217332412069645 kcal/mol)

>  <smiles>  (456) 
O=c1[nH]c(O)c(C=Cc2ccccc2O)c(=O)n1-c1ccc(O)cc1

>  <score_type>  (456) 
oracle

>  <origin>  (456) 
adg

>  <m_score__min__energy>  (456) 
-16.440000000000001

>  <m_primary>  (456) 
energy

$$$$
24:0
     RDKit          3D

 25 26  0  0  0  0  0  0  0  0999 V2000
   55.1450   29.5200   44.8880 N   0  0  0  0  0  0  0  0  0  0  0  0
   56.6460   29.9140   44.1240 S   0  0  0  0  0  0  0  0  0  0  0  0
   56.3800   30.2320   42.6780 O   0  0  0  0  0  0  0  0  0  0  0  0
   57.5660   28.7310   44.2170 O   0  0  0  0  0  0  0  0  0  0  0  0
   57.4060   31.3070   44.9060 C   0  0  0  0  0  0  0  0  0  0  0  0
   56.6460   32.4620   45.1510 C   0  0  0  0  0  0  0  0  0  0  0  0
   57.2270   33.5730   45.7610 C   0  0  0  0  0  0  0  0  0  0  0  0
   58.5670   33.5400   46.1380 C   0  0  0  0  0  0  0  0  0  0  0  0
   59.3390   32.3980   45.9120 C   0  0  0  0  0  0  0  0  0  0  0  0
   60.6260   32.4130   46.3270 F   0  0  0  0  0  0  0  0  0  0  0  0
   58.7660   31.2650   45.2860 C   0  0  0  0  0  0  0  0  0  0  0  0
   59.5090   30.0590   45.0340 N   0  0  0  0  0  0  0  0  0  0  0  0
   60.6130   29.2530   46.1000 S   0  0  0  0  0  0  0  0  0  0  0  0
   61.1770   28.0450   45.4040 O   0  0  0  0  0  0  0  0  0  0  0  0
   61.7330   30.1980   46.4300 O   0  0  0  0  0  0  0  0  0  0  0  0
   59.7730   28.8160   47.5890 C   0  0  0  0  0  0  0  0  0  0  0  0
   59.2800   27.5990   47.8450 C   0  0  0  0  0  0  0  0  0  0  0  0
   58.4250   26.8480   46.9080 C   0  0  0  0  0  0  0  0  0  0  0  0
   57.0460   27.1030   46.8880 C   0  0  0  0  0  0  0  0  0  0  0  0
   56.2120   26.4030   46.0100 C   0  0  0  0  0  0  0  0  0  0  0  0
   54.8500   26.6720   45.9840 O   0  0  0  0  0  0  0  0  0  0  0  0
   56.7500   25.4350   45.1580 C   0  0  0  0  0  0  0  0  0  0  0  0
   58.1190   25.1580   45.1890 C   0  0  0  0  0  0  0  0  0  0  0  0
   58.9620   25.8550   46.0680 C   0  0  0  0  0  0  0  0  0  0  0  0
   60.3220   25.5500   46.1210 O   0  0  0  0  0  0  0  0  0  0  0  0
  1  2  1  0
  2  3  2  0
  2  4  2  0
  2  5  1  0
  5  6  2  0
  6  7  1  0
  7  8  2  0
  8  9  1  0
  9 10  1  0
  9 11  2  0
 11 12  1  0
 12 13  1  0
 13 14  2  0
 13 15  2  0
 13 16  1  0
 16 17  2  3
 17 18  1  0
 18 19  2  0
 19 20  1  0
 20 21  1  0
 20 22  2  0
 22 23  1  0
 23 24  2  0
 24 25  1  0
 11  5  1  0
 24 18  1  0
M  CHG  3   1  -1  12  -1  21  -1
M  END
>  <UniqueID>  (457) 
22

>  <SMILES>  (457) 
[NH-]S(=O)(=O)c1cccc(F)c1[N-]S(=O)(=O)C=Cc1cc([O-])ccc1O

>  <Energy>  (457) 
50.18465212869995

>  <Genealogy>  (457) 
[NH-]S(=O)(=O)c1cccc(F)c1[N-]S(=O)(=O)C=Cc1cc([O-])ccc1O (protonated)
[NH-]S(=O)(=O)c1cccc(F)c1[N-]S(=O)(=O)C=Cc1cc([O-])ccc1O (3D coordinates assigned)
[NH-]S(=O)(=O)c1cccc(F)c1[N-]S(=O)(=O)C=Cc1cc([O-])ccc1O (optimized conformer: 50.18465212869995 kcal/mol)

>  <smiles>  (457) 
NS(=O)(=O)c1cccc(F)c1NS(=O)(=O)C=Cc1cc(O)ccc1O

>  <score_type>  (457) 
oracle

>  <origin>  (457) 
adg

>  <m_score__min__energy>  (457) 
-15.24

>  <m_primary>  (457) 
energy

$$$$
26:0
     RDKit          3D

 28 31  0  0  0  0  0  0  0  0999 V2000
   58.7250   29.9240   44.4120 O   0  0  0  0  0  0  0  0  0  0  0  0
   57.7980   29.6720   45.2290 C   0  0  0  0  0  0  0  0  0  0  0  0
   56.7620   28.6520   44.8820 C   0  0  0  0  0  0  0  0  0  0  0  0
   57.0400   27.4000   45.5830 N   0  0  0  0  0  0  0  0  0  0  0  0
   56.1490   26.5100   46.0490 C   0  0  0  0  0  0  0  0  0  0  0  0
   54.7700   26.6720   46.0000 O   0  0  0  0  0  0  0  0  0  0  0  0
   56.8270   25.4240   46.5600 C   0  0  0  0  0  0  0  0  0  0  0  0
   56.2200   24.1710   47.1090 C   0  0  0  0  0  0  0  0  0  0  0  0
   56.6100   22.9980   46.2610 C   0  0  0  0  0  0  0  0  0  0  0  0
   57.3740   21.9070   46.6640 C   0  0  0  0  0  0  0  0  0  0  0  0
   57.6040   21.0790   45.6190 N   0  0  0  0  0  0  0  0  0  0  0  0
   57.0040   21.6440   44.5570 C   0  0  0  0  0  0  0  0  0  0  0  0
   56.9780   21.1660   43.2470 C   0  0  0  0  0  0  0  0  0  0  0  0
   56.2950   21.9280   42.2810 C   0  0  0  0  0  0  0  0  0  0  0  0
   55.6630   23.1380   42.6410 C   0  0  0  0  0  0  0  0  0  0  0  0
   55.7050   23.5970   43.9720 C   0  0  0  0  0  0  0  0  0  0  0  0
   56.3890   22.8200   44.9070 C   0  0  0  0  0  0  0  0  0  0  0  0
   58.1560   25.6050   46.3910 N   0  0  0  0  0  0  0  0  0  0  0  0
   58.2390   26.8160   45.7950 C   0  0  0  0  0  0  0  0  0  0  0  0
   59.3350   27.3390   45.4610 O   0  0  0  0  0  0  0  0  0  0  0  0
   57.7560   30.3220   46.5040 N   0  0  0  0  0  0  0  0  0  0  0  0
   58.8520   31.1200   47.0390 C   0  0  0  0  0  0  0  0  0  0  0  0
   58.8870   32.4730   46.3780 C   0  0  0  0  0  0  0  0  0  0  0  0
   59.9680   33.3470   46.5950 C   0  0  0  0  0  0  0  0  0  0  0  0
   60.0010   34.5950   45.9620 C   0  0  0  0  0  0  0  0  0  0  0  0
   58.9580   34.9780   45.1120 C   0  0  0  0  0  0  0  0  0  0  0  0
   57.8820   34.1110   44.8890 C   0  0  0  0  0  0  0  0  0  0  0  0
   57.8450   32.8620   45.5180 C   0  0  0  0  0  0  0  0  0  0  0  0
  1  2  2  0
  2  3  1  0
  3  4  1  0
  4  5  1  0
  5  6  1  0
  5  7  2  0
  7  8  1  0
  8  9  1  0
  9 10  2  0
 10 11  1  0
 11 12  1  0
 12 13  2  0
 13 14  1  0
 14 15  2  0
 15 16  1  0
 16 17  2  0
  7 18  1  0
 18 19  1  0
 19 20  2  0
  2 21  1  0
 21 22  1  0
 22 23  1  0
 23 24  2  0
 24 25  1  0
 25 26  2  0
 26 27  1  0
 27 28  2  0
 19  4  1  0
 28 23  1  0
 17  9  1  0
 17 12  1  0
M  CHG  3   6  -1  18  -1  21  -1
M  END
>  <UniqueID>  (458) 
24

>  <SMILES>  (458) 
O=C(Cn1c([O-])c(Cc2c[nH]c3ccccc23)[n-]c1=O)[N-]Cc1ccccc1

>  <Energy>  (458) 
107.83679423134691

>  <Genealogy>  (458) 
O=C(Cn1c([O-])c(Cc2c[nH]c3ccccc23)[n-]c1=O)[N-]Cc1ccccc1 (protonated)
O=C(Cn1c([O-])c(Cc2c[nH]c3ccccc23)[n-]c1=O)[N-]Cc1ccccc1 (3D coordinates assigned)
O=C(Cn1c([O-])c(Cc2c[nH]c3ccccc23)[n-]c1=O)[N-]Cc1ccccc1 (optimized conformer: 107.83679423134691 kcal/mol)

>  <smiles>  (458) 
O=C(Cn1c(O)c(Cc2c[nH]c3ccccc23)[nH]c1=O)NCc1ccccc1

>  <score_type>  (458) 
oracle

>  <origin>  (458) 
adg

>  <m_score__min__energy>  (458) 
-15.42

>  <m_primary>  (458) 
energy

$$$$
28:0
     RDKit          3D

 28 30  0  0  0  0  0  0  0  0999 V2000
   59.4870   27.4050   45.4000 O   0  0  0  0  0  0  0  0  0  0  0  0
   58.3130   26.9530   45.3280 C   0  0  0  0  0  0  0  0  0  0  0  0
   58.0390   25.5570   45.8010 C   0  0  0  0  0  0  0  0  0  0  0  0
   56.5710   25.2590   45.6770 C   0  0  0  0  0  0  0  0  0  0  0  0
   55.6640   26.1720   46.1170 N   0  0  0  0  0  0  0  0  0  0  0  0
   54.3530   25.9670   45.9900 N   0  0  0  0  0  0  0  0  0  0  0  0
   53.8810   24.8350   45.4060 C   0  0  0  0  0  0  0  0  0  0  0  0
   52.6420   24.6530   45.2940 O   0  0  0  0  0  0  0  0  0  0  0  0
   54.7520   23.9060   44.9420 N   0  0  0  0  0  0  0  0  0  0  0  0
   56.0900   24.0920   45.0600 C   0  0  0  0  0  0  0  0  0  0  0  0
   56.8810   23.2190   44.6130 O   0  0  0  0  0  0  0  0  0  0  0  0
   57.2300   27.7880   44.8920 N   0  0  0  0  0  0  0  0  0  0  0  0
   57.3320   29.2160   44.8100 C   0  0  0  0  0  0  0  0  0  0  0  0
   56.9880   29.9070   43.6400 C   0  0  0  0  0  0  0  0  0  0  0  0
   57.1230   31.2960   43.5800 C   0  0  0  0  0  0  0  0  0  0  0  0
   57.6080   32.0120   44.6810 C   0  0  0  0  0  0  0  0  0  0  0  0
   57.8320   33.7500   44.5040 Cl  0  0  0  0  0  0  0  0  0  0  0  0
   57.9470   31.3280   45.8700 C   0  0  0  0  0  0  0  0  0  0  0  0
   58.4950   32.0330   47.0540 C   0  0  0  0  0  0  0  0  0  0  0  0
   57.8600   33.0000   47.5510 O   0  0  0  0  0  0  0  0  0  0  0  0
   59.6920   31.5890   47.7080 N   0  0  0  0  0  0  0  0  0  0  0  0
   61.0080   32.1310   47.5170 C   0  0  0  0  0  0  0  0  0  0  0  0
   62.1510   31.5030   48.0480 C   0  0  0  0  0  0  0  0  0  0  0  0
   63.4170   32.0620   47.8490 C   0  0  0  0  0  0  0  0  0  0  0  0
   63.5550   33.2380   47.1070 C   0  0  0  0  0  0  0  0  0  0  0  0
   62.4260   33.8530   46.5580 C   0  0  0  0  0  0  0  0  0  0  0  0
   61.1590   33.2970   46.7550 C   0  0  0  0  0  0  0  0  0  0  0  0
   57.7740   29.9330   45.9260 C   0  0  0  0  0  0  0  0  0  0  0  0
  1  2  2  0
  2  3  1  0
  3  4  1  0
  4  5  2  0
  5  6  1  0
  6  7  1  0
  7  8  2  0
  7  9  1  0
  9 10  1  0
 10 11  2  0
  2 12  1  0
 12 13  1  0
 13 14  2  0
 14 15  1  0
 15 16  2  0
 16 17  1  0
 16 18  1  0
 18 19  1  0
 19 20  2  0
 19 21  1  0
 21 22  1  0
 22 23  2  0
 23 24  1  0
 24 25  2  0
 25 26  1  0
 26 27  2  0
 18 28  2  0
 10  4  1  0
 28 13  1  0
 27 22  1  0
M  CHG  3   6  -1   9  -1  21  -1
M  END
>  <UniqueID>  (459) 
26

>  <SMILES>  (459) 
O=C(Cc1n[n-]c(=O)[n-]c1=O)Nc1ccc(Cl)c(C(=O)[N-]c2ccccc2)c1

>  <Energy>  (459) 
53.653073267402135

>  <Genealogy>  (459) 
O=C(Cc1n[n-]c(=O)[n-]c1=O)Nc1ccc(Cl)c(C(=O)[N-]c2ccccc2)c1 (protonated)
O=C(Cc1n[n-]c(=O)[n-]c1=O)Nc1ccc(Cl)c(C(=O)[N-]c2ccccc2)c1 (3D coordinates assigned)
O=C(Cc1n[n-]c(=O)[n-]c1=O)Nc1ccc(Cl)c(C(=O)[N-]c2ccccc2)c1 (optimized conformer: 53.653073267402135 kcal/mol)

>  <smiles>  (459) 
O=C(Cc1n[nH]c(=O)[nH]c1=O)Nc1ccc(Cl)c(C(=O)Nc2ccccc2)c1

>  <score_type>  (459) 
oracle

>  <origin>  (459) 
adg

>  <m_score__min__energy>  (459) 
-14.720000000000001

>  <m_primary>  (459) 
energy

$$$$
49:0
     RDKit          3D

 27 29  0  0  0  0  0  0  0  0999 V2000
   56.9930   25.0740   48.0270 O   0  0  0  0  0  0  0  0  0  0  0  0
   57.2090   25.2650   46.7990 C   0  0  0  0  0  0  0  0  0  0  0  0
   57.5410   24.1060   45.9320 C   0  0  0  0  0  0  0  0  0  0  0  0
   58.8110   23.5020   45.9860 C   0  0  0  0  0  0  0  0  0  0  0  0
   59.1090   22.4050   45.1720 C   0  0  0  0  0  0  0  0  0  0  0  0
   60.3670   21.8180   45.2290 O   0  0  0  0  0  0  0  0  0  0  0  0
   58.1410   21.8940   44.3020 C   0  0  0  0  0  0  0  0  0  0  0  0
   56.8720   22.4780   44.2490 C   0  0  0  0  0  0  0  0  0  0  0  0
   55.9100   21.9660   43.3870 O   0  0  0  0  0  0  0  0  0  0  0  0
   56.5710   23.5750   45.0620 C   0  0  0  0  0  0  0  0  0  0  0  0
   57.1270   26.6490   46.2710 C   0  0  0  0  0  0  0  0  0  0  0  0
   55.9290   27.1340   45.7360 C   0  0  0  0  0  0  0  0  0  0  0  0
   54.7880   26.3410   45.7110 O   0  0  0  0  0  0  0  0  0  0  0  0
   55.8690   28.3950   45.2480 N   0  0  0  0  0  0  0  0  0  0  0  0
   56.9490   29.2140   45.2550 C   0  0  0  0  0  0  0  0  0  0  0  0
   56.8310   30.3770   44.7830 O   0  0  0  0  0  0  0  0  0  0  0  0
   58.1480   28.7780   45.7630 N   0  0  0  0  0  0  0  0  0  0  0  0
   59.3390   29.6540   45.7330 C   0  0  0  0  0  0  0  0  0  0  0  0
   59.4220   30.5300   46.9920 C   0  0  0  0  0  0  0  0  0  0  0  0
   59.3390   31.9970   46.6560 C   0  0  0  0  0  0  0  0  0  0  0  0
   60.4880   32.8050   46.7190 C   0  0  0  0  0  0  0  0  0  0  0  0
   60.4180   34.1560   46.3640 C   0  0  0  0  0  0  0  0  0  0  0  0
   59.2050   34.7060   45.9400 C   0  0  0  0  0  0  0  0  0  0  0  0
   58.0600   33.9070   45.8690 C   0  0  0  0  0  0  0  0  0  0  0  0
   58.1270   32.5550   46.2220 C   0  0  0  0  0  0  0  0  0  0  0  0
   58.2490   27.5000   46.2570 C   0  0  0  0  0  0  0  0  0  0  0  0
   59.3580   27.0740   46.6900 O   0  0  0  0  0  0  0  0  0  0  0  0
  1  2  2  0
  2  3  1  0
  3  4  2  0
  4  5  1  0
  5  6  1  0
  5  7  2  0
  7  8  1  0
  8  9  1  0
  8 10  2  0
  2 11  1  0
 11 12  2  0
 12 13  1  0
 12 14  1  0
 14 15  1  0
 15 16  2  0
 15 17  1  0
 17 18  1  0
 18 19  1  0
 19 20  1  0
 20 21  2  0
 21 22  1  0
 22 23  2  0
 23 24  1  0
 24 25  2  0
 17 26  1  0
 26 27  2  0
 10  3  1  0
 26 11  1  0
 25 20  1  0
M  CHG  4   6  -1   9  -1  13  -1  14  -1
M  END
>  <UniqueID>  (460) 
47

>  <SMILES>  (460) 
O=C(c1cc([O-])cc([O-])c1)c1c([O-])[n-]c(=O)n(CCc2ccccc2)c1=O

>  <Energy>  (460) 
51.780622013841665

>  <Genealogy>  (460) 
O=C(c1cc([O-])cc([O-])c1)c1c([O-])[n-]c(=O)n(CCc2ccccc2)c1=O (protonated)
O=C(c1cc([O-])cc([O-])c1)c1c([O-])[n-]c(=O)n(CCc2ccccc2)c1=O (3D coordinates assigned)
O=C(c1cc([O-])cc([O-])c1)c1c([O-])[n-]c(=O)n(CCc2ccccc2)c1=O (optimized conformer: 51.780622013841665 kcal/mol)

>  <smiles>  (460) 
O=C(c1cc(O)cc(O)c1)c1c(O)[nH]c(=O)n(CCc2ccccc2)c1=O

>  <score_type>  (460) 
oracle

>  <origin>  (460) 
adg

>  <m_score__min__energy>  (460) 
-16.41

>  <m_primary>  (460) 
energy

$$$$
70:0
     RDKit          3D

 24 26  0  0  0  0  0  0  0  0999 V2000
   57.8270   29.9170   44.0140 C   0  0  0  0  0  0  0  0  0  0  0  0
   58.0470   29.5670   45.2910 C   0  0  0  0  0  0  0  0  0  0  0  0
   58.0620   28.2680   45.8280 C   0  0  0  0  0  0  0  0  0  0  0  0
   57.7110   27.0830   45.2900 C   0  0  0  0  0  0  0  0  0  0  0  0
   57.2740   25.8930   46.0450 C   0  0  0  0  0  0  0  0  0  0  0  0
   55.9220   25.7160   46.3670 C   0  0  0  0  0  0  0  0  0  0  0  0
   54.9810   26.6810   46.0260 O   0  0  0  0  0  0  0  0  0  0  0  0
   55.5210   24.5980   47.0270 N   0  0  0  0  0  0  0  0  0  0  0  0
   56.4100   23.6310   47.3710 C   0  0  0  0  0  0  0  0  0  0  0  0
   55.9000   22.3010   48.1670 S   0  0  0  0  0  0  0  0  0  0  0  0
   57.7210   23.7650   47.0440 N   0  0  0  0  0  0  0  0  0  0  0  0
   58.1710   24.8630   46.3850 C   0  0  0  0  0  0  0  0  0  0  0  0
   59.3910   24.9440   46.0780 O   0  0  0  0  0  0  0  0  0  0  0  0
   58.5260   28.3900   47.1270 C   0  0  0  0  0  0  0  0  0  0  0  0
   58.7190   29.7360   47.3590 C   0  0  0  0  0  0  0  0  0  0  0  0
   59.2060   30.3140   48.6530 C   0  0  0  0  0  0  0  0  0  0  0  0
   58.4310   30.4510   46.2490 N   0  0  0  0  0  0  0  0  0  0  0  0
   58.5370   31.8800   46.1200 C   0  0  0  0  0  0  0  0  0  0  0  0
   59.7330   32.5310   46.4580 C   0  0  0  0  0  0  0  0  0  0  0  0
   59.8400   33.9190   46.3250 C   0  0  0  0  0  0  0  0  0  0  0  0
   58.7560   34.6630   45.8510 C   0  0  0  0  0  0  0  0  0  0  0  0
   57.5590   34.0210   45.5090 C   0  0  0  0  0  0  0  0  0  0  0  0
   56.4710   34.7520   45.0380 O   0  0  0  0  0  0  0  0  0  0  0  0
   57.4510   32.6310   45.6430 C   0  0  0  0  0  0  0  0  0  0  0  0
  1  2  2  0
  2  3  1  0
  3  4  2  3
  4  5  1  0
  5  6  2  0
  6  7  1  0
  6  8  1  0
  8  9  1  0
  9 10  2  0
  9 11  1  0
 11 12  1  0
 12 13  2  0
  3 14  1  0
 14 15  2  0
 15 16  1  0
 15 17  1  0
 17 18  1  0
 18 19  2  0
 19 20  1  0
 20 21  2  0
 21 22  1  0
 22 23  1  0
 22 24  2  0
 17  2  1  0
 24 18  1  0
 12  5  1  0
M  CHG  3   7  -1   8  -1  11  -1
M  END
>  <UniqueID>  (461) 
66

>  <SMILES>  (461) 
C=c1c(=Cc2c([O-])[n-]c(=S)[n-]c2=O)cc(C)n1-c1cccc(O)c1

>  <Energy>  (461) 
87.00365523213742

>  <Genealogy>  (461) 
C=c1c(=Cc2c([O-])[n-]c(=S)[n-]c2=O)cc(C)n1-c1cccc(O)c1 (protonated)
C=c1c(=Cc2c([O-])[n-]c(=S)[n-]c2=O)cc(C)n1-c1cccc(O)c1 (3D coordinates assigned)
C=c1c(=Cc2c([O-])[n-]c(=S)[n-]c2=O)cc(C)n1-c1cccc(O)c1 (optimized conformer: 87.00365523213742 kcal/mol)

>  <smiles>  (461) 
C=c1c(=Cc2c(O)[nH]c(=S)[nH]c2=O)cc(C)n1-c1cccc(O)c1

>  <score_type>  (461) 
oracle

>  <origin>  (461) 
adg

>  <m_score__min__energy>  (461) 
-14.83

>  <m_primary>  (461) 
energy

$$$$
14:0
     RDKit          3D

 24 26  0  0  0  0  0  0  0  0999 V2000
   59.1400   33.9320   52.1100 N   0  0  0  0  0  0  0  0  0  0  0  0
   59.5020   32.8900   51.7620 C   0  0  0  0  0  0  0  0  0  0  0  0
   59.9540   31.5910   51.3280 C   0  0  0  0  0  0  0  0  0  0  0  0
   61.2460   31.4560   50.8010 C   0  0  0  0  0  0  0  0  0  0  0  0
   61.7120   30.2020   50.3960 C   0  0  0  0  0  0  0  0  0  0  0  0
   60.8940   29.0770   50.5190 C   0  0  0  0  0  0  0  0  0  0  0  0
   59.6050   29.2020   51.0440 C   0  0  0  0  0  0  0  0  0  0  0  0
   59.1250   30.4570   51.4490 C   0  0  0  0  0  0  0  0  0  0  0  0
   57.7960   30.5680   51.9810 N   0  0  0  0  0  0  0  0  0  0  0  0
   57.4770   29.9630   53.2770 C   0  0  0  0  0  0  0  0  0  0  0  0
   56.0730   29.3560   53.2370 C   0  0  0  0  0  0  0  0  0  0  0  0
   55.0880   30.2940   52.6750 N   0  0  0  0  0  0  0  0  0  0  0  0
   53.6880   29.9670   52.7890 C   0  0  0  0  0  0  0  0  0  0  0  0
   53.3390   28.7550   52.8620 O   0  0  0  0  0  0  0  0  0  0  0  0
   52.6260   31.0360   52.7820 C   0  0  0  0  0  0  0  0  0  0  0  0
   52.0350   31.2100   51.4160 C   0  0  0  0  0  0  0  0  0  0  0  0
   52.0830   30.2800   50.4470 N   0  0  0  0  0  0  0  0  0  0  0  0
   51.3860   30.8480   49.4380 C   0  0  0  0  0  0  0  0  0  0  0  0
   51.2080   30.2760   48.3310 O   0  0  0  0  0  0  0  0  0  0  0  0
   50.8890   32.0750   49.7110 N   0  0  0  0  0  0  0  0  0  0  0  0
   51.3050   32.2860   50.9690 C   0  0  0  0  0  0  0  0  0  0  0  0
   51.0200   33.4340   51.6960 O   0  0  0  0  0  0  0  0  0  0  0  0
   55.5260   31.5730   52.0960 C   0  0  0  0  0  0  0  0  0  0  0  0
   56.8070   31.3890   51.2730 C   0  0  0  0  0  0  0  0  0  0  0  0
  1  2  3  0
  2  3  1  0
  3  4  2  0
  4  5  1  0
  5  6  2  0
  6  7  1  0
  7  8  2  0
  8  9  1  0
  9 10  1  0
 10 11  1  0
 11 12  1  0
 12 13  1  0
 13 14  2  0
 13 15  1  0
 15 16  1  0
 16 17  1  0
 17 18  1  0
 18 19  2  0
 18 20  1  0
 20 21  1  0
 21 22  1  0
 12 23  1  0
 23 24  1  0
  8  3  1  0
 24  9  1  0
 21 16  2  0
M  CHG  3  17  -1  20  -1  22  -1
M  END
>  <UniqueID>  (462) 
15

>  <SMILES>  (462) 
N#Cc1ccccc1N1CCN(C(=O)Cc2[n-]c(=O)[n-]c2[O-])CC1

>  <Energy>  (462) 
73.80314502393213

>  <Genealogy>  (462) 
N#Cc1ccccc1N1CCN(C(=O)Cc2[n-]c(=O)[n-]c2[O-])CC1 (protonated)
N#Cc1ccccc1N1CCN(C(=O)Cc2[n-]c(=O)[n-]c2[O-])CC1 (3D coordinates assigned)
N#Cc1ccccc1N1CCN(C(=O)Cc2[n-]c(=O)[n-]c2[O-])CC1 (nonaromatic ring conformer: 73.80314502393213 kcal/mol)

>  <smiles>  (462) 
N#Cc1ccccc1N1CCN(C(=O)Cc2[nH]c(=O)[nH]c2O)CC1

>  <score_type>  (462) 
oracle

>  <origin>  (462) 
adg

>  <m_score__min__energy>  (462) 
-15.34

>  <m_primary>  (462) 
energy

$$$$
42:0
     RDKit          3D

 26 28  0  0  0  0  0  0  0  0999 V2000
   57.0910   31.1750   44.9320 O   0  0  0  0  0  0  0  0  0  0  0  0
   57.7600   32.1520   45.6690 C   0  0  0  0  0  0  0  0  0  0  0  0
   57.7070   33.4930   45.2620 C   0  0  0  0  0  0  0  0  0  0  0  0
   58.3790   34.4780   45.9880 C   0  0  0  0  0  0  0  0  0  0  0  0
   59.1070   34.1310   47.1280 C   0  0  0  0  0  0  0  0  0  0  0  0
   59.1710   32.7970   47.5390 C   0  0  0  0  0  0  0  0  0  0  0  0
   58.5020   31.7950   46.8150 C   0  0  0  0  0  0  0  0  0  0  0  0
   58.5550   30.3910   47.2860 C   0  0  0  0  0  0  0  0  0  0  0  0
   57.7680   29.5410   46.7920 O   0  0  0  0  0  0  0  0  0  0  0  0
   59.4290   29.9870   48.3490 N   0  0  0  0  0  0  0  0  0  0  0  0
   59.0920   29.9070   49.6010 C   0  0  0  0  0  0  0  0  0  0  0  0
   58.0110   30.5170   50.1370 N   0  0  0  0  0  0  0  0  0  0  0  0
   57.9360   30.3130   51.4820 C   0  0  0  0  0  0  0  0  0  0  0  0
   56.8850   30.9260   52.3210 C   0  0  0  0  0  0  0  0  0  0  0  0
   56.9590   32.1540   52.5900 O   0  0  0  0  0  0  0  0  0  0  0  0
   55.7620   30.1860   52.8220 N   0  0  0  0  0  0  0  0  0  0  0  0
   54.7010   29.5850   52.0190 C   0  0  0  0  0  0  0  0  0  0  0  0
   53.4890   30.4760   52.0110 C   0  0  0  0  0  0  0  0  0  0  0  0
   52.8320   30.7820   53.2140 C   0  0  0  0  0  0  0  0  0  0  0  0
   51.6890   31.5870   53.2090 C   0  0  0  0  0  0  0  0  0  0  0  0
   51.1870   32.0840   52.0030 C   0  0  0  0  0  0  0  0  0  0  0  0
   50.0520   32.8850   52.0000 O   0  0  0  0  0  0  0  0  0  0  0  0
   51.8250   31.7710   50.7990 C   0  0  0  0  0  0  0  0  0  0  0  0
   52.9680   30.9650   50.8010 C   0  0  0  0  0  0  0  0  0  0  0  0
   58.9770   29.5540   52.0160 C   0  0  0  0  0  0  0  0  0  0  0  0
   60.0090   29.1160   50.7600 S   0  0  0  0  0  0  0  0  0  0  0  0
  1  2  1  0
  2  3  2  0
  3  4  1  0
  4  5  2  0
  5  6  1  0
  6  7  2  0
  7  8  1  0
  8  9  2  0
  8 10  1  0
 10 11  2  0
 11 12  1  0
 12 13  1  0
 13 14  1  0
 14 15  2  0
 14 16  1  0
 16 17  1  0
 17 18  1  0
 18 19  2  0
 19 20  1  0
 20 21  2  0
 21 22  1  0
 21 23  1  0
 23 24  2  0
 13 25  2  0
 25 26  1  0
  7  2  1  0
 26 11  1  0
 24 18  1  0
M  CHG  3  12  -1  16  -1  22  -1
M  END
>  <UniqueID>  (463) 
41

>  <SMILES>  (463) 
O=C([N-]Cc1ccc([O-])cc1)c1cs/c(=N/C(=O)c2ccccc2O)[n-]1

>  <Energy>  (463) 
76.52751222406602

>  <Genealogy>  (463) 
O=C([N-]Cc1ccc([O-])cc1)c1csc(=NC(=O)c2ccccc2O)[n-]1 (protonated)
O=C([N-]Cc1ccc([O-])cc1)c1cs/c(=N/C(=O)c2ccccc2O)[n-]1 (cis-trans isomerization)
O=C([N-]Cc1ccc([O-])cc1)c1cs/c(=N/C(=O)c2ccccc2O)[n-]1 (3D coordinates assigned)
O=C([N-]Cc1ccc([O-])cc1)c1cs/c(=N/C(=O)c2ccccc2O)[n-]1 (optimized conformer: 76.52751222406602 kcal/mol)

>  <smiles>  (463) 
O=C(NCc1ccc(O)cc1)c1csc(=NC(=O)c2ccccc2O)[nH]1

>  <score_type>  (463) 
oracle

>  <origin>  (463) 
adg

>  <m_score__min__energy>  (463) 
-14.039999999999999

>  <m_primary>  (463) 
energy

$$$$
59:0
     RDKit          3D

 32 35  0  0  0  0  0  0  0  0999 V2000
   58.8780   34.3260   53.0800 C   0  0  0  0  0  0  0  0  0  0  0  0
   57.9660   33.6490   52.2200 O   0  0  0  0  0  0  0  0  0  0  0  0
   58.2940   32.5420   51.4220 C   0  0  0  0  0  0  0  0  0  0  0  0
   59.2690   32.6230   50.4050 C   0  0  0  0  0  0  0  0  0  0  0  0
   59.5720   31.5120   49.6040 C   0  0  0  0  0  0  0  0  0  0  0  0
   60.5950   31.6060   48.5360 C   0  0  0  0  0  0  0  0  0  0  0  0
   61.7910   31.8540   48.8470 O   0  0  0  0  0  0  0  0  0  0  0  0
   60.2490   31.4390   47.1470 N   0  0  0  0  0  0  0  0  0  0  0  0
   60.2440   30.0950   46.5570 C   0  0  0  0  0  0  0  0  0  0  0  0
   58.8180   29.7390   46.1450 C   0  0  0  0  0  0  0  0  0  0  0  0
   58.2890   30.7380   45.1040 C   0  0  0  0  0  0  0  0  0  0  0  0
   58.6050   32.1760   45.4510 C   0  0  0  0  0  0  0  0  0  0  0  0
   57.9640   33.2080   44.7440 C   0  0  0  0  0  0  0  0  0  0  0  0
   58.2800   34.5420   45.0030 C   0  0  0  0  0  0  0  0  0  0  0  0
   59.2460   34.8610   45.9650 C   0  0  0  0  0  0  0  0  0  0  0  0
   59.9000   33.8440   46.6670 C   0  0  0  0  0  0  0  0  0  0  0  0
   59.5840   32.4950   46.4220 C   0  0  0  0  0  0  0  0  0  0  0  0
   58.8750   30.3100   49.8070 C   0  0  0  0  0  0  0  0  0  0  0  0
   57.9210   30.2130   50.8200 C   0  0  0  0  0  0  0  0  0  0  0  0
   57.6260   31.3180   51.6380 C   0  0  0  0  0  0  0  0  0  0  0  0
   56.5900   31.1560   52.7200 C   0  0  0  0  0  0  0  0  0  0  0  0
   55.2570   31.3360   52.1510 N   0  0  0  0  0  0  0  0  0  0  0  0
   54.1300   30.4980   52.4370 C   0  0  0  0  0  0  0  0  0  0  0  0
   54.3120   29.2590   52.5690 O   0  0  0  0  0  0  0  0  0  0  0  0
   52.7500   31.0580   52.6340 C   0  0  0  0  0  0  0  0  0  0  0  0
   52.0470   31.2020   51.3170 C   0  0  0  0  0  0  0  0  0  0  0  0
   52.0750   30.2820   50.3390 N   0  0  0  0  0  0  0  0  0  0  0  0
   51.3200   30.8360   49.3640 C   0  0  0  0  0  0  0  0  0  0  0  0
   51.1030   30.2590   48.2650 O   0  0  0  0  0  0  0  0  0  0  0  0
   50.8140   32.0490   49.6620 N   0  0  0  0  0  0  0  0  0  0  0  0
   51.2840   32.2670   50.9020 C   0  0  0  0  0  0  0  0  0  0  0  0
   51.0190   33.4180   51.6380 O   0  0  0  0  0  0  0  0  0  0  0  0
  1  2  1  0
  2  3  1  0
  3  4  2  0
  4  5  1  0
  5  6  1  0
  6  7  2  0
  6  8  1  0
  8  9  1  0
  9 10  1  0
 10 11  1  0
 11 12  1  0
 12 13  2  0
 13 14  1  0
 14 15  2  0
 15 16  1  0
 16 17  2  0
  5 18  2  0
 18 19  1  0
 19 20  2  0
 20 21  1  0
 21 22  1  0
 22 23  1  0
 23 24  2  0
 23 25  1  0
 25 26  1  0
 26 27  1  0
 27 28  1  0
 28 29  2  0
 28 30  1  0
 30 31  1  0
 31 32  1  0
 20  3  1  0
 31 26  2  0
 17  8  1  0
 17 12  1  0
M  CHG  4  22  -1  27  -1  30  -1  32  -1
M  END
>  <UniqueID>  (464) 
56

>  <SMILES>  (464) 
COc1cc(C(=O)N2CCCc3ccccc32)ccc1C[N-]C(=O)Cc1[n-]c(=O)[n-]c1[O-]

>  <Energy>  (464) 
89.98399485681676

>  <Genealogy>  (464) 
COc1cc(C(=O)N2CCCc3ccccc32)ccc1C[N-]C(=O)Cc1[n-]c(=O)[n-]c1[O-] (protonated)
COc1cc(C(=O)N2CCCc3ccccc32)ccc1C[N-]C(=O)Cc1[n-]c(=O)[n-]c1[O-] (3D coordinates assigned)
COc1cc(C(=O)N2CCCc3ccccc32)ccc1C[N-]C(=O)Cc1[n-]c(=O)[n-]c1[O-] (nonaromatic ring conformer: 89.98399485681676 kcal/mol)

>  <smiles>  (464) 
COc1cc(C(=O)N2CCCc3ccccc32)ccc1CNC(=O)Cc1[nH]c(=O)[nH]c1O

>  <score_type>  (464) 
oracle

>  <origin>  (464) 
adg

>  <m_score__min__energy>  (464) 
-19.23

>  <m_primary>  (464) 
energy

$$$$
75:0
     RDKit          3D

 22 23  0  0  0  0  0  0  0  0999 V2000
   61.0240   31.4170   49.0680 N   0  0  0  0  0  0  0  0  0  0  0  0
   61.2760   31.5600   47.3640 S   0  0  0  0  0  0  0  0  0  0  0  0
   62.5710   32.2790   47.1060 O   0  0  0  0  0  0  0  0  0  0  0  0
   61.3570   30.1890   46.7550 O   0  0  0  0  0  0  0  0  0  0  0  0
   59.9430   32.4570   46.6450 C   0  0  0  0  0  0  0  0  0  0  0  0
   59.9640   33.8570   46.6230 C   0  0  0  0  0  0  0  0  0  0  0  0
   58.9140   34.5660   46.0340 C   0  0  0  0  0  0  0  0  0  0  0  0
   57.8370   33.8800   45.4660 C   0  0  0  0  0  0  0  0  0  0  0  0
   57.7970   32.4750   45.5000 C   0  0  0  0  0  0  0  0  0  0  0  0
   56.7120   31.7430   44.9120 N   0  0  0  0  0  0  0  0  0  0  0  0
   56.7940   30.8970   43.7560 C   0  0  0  0  0  0  0  0  0  0  0  0
   57.2210   31.3830   42.6760 O   0  0  0  0  0  0  0  0  0  0  0  0
   56.4600   29.4630   43.8050 C   0  0  0  0  0  0  0  0  0  0  0  0
   56.2320   28.8800   44.9420 N   0  0  0  0  0  0  0  0  0  0  0  0
   56.9650   27.7820   45.5130 C   0  0  0  0  0  0  0  0  0  0  0  0
   58.3740   27.7610   45.5790 C   0  0  0  0  0  0  0  0  0  0  0  0
   59.0360   26.6700   46.1510 C   0  0  0  0  0  0  0  0  0  0  0  0
   58.3050   25.5970   46.6680 C   0  0  0  0  0  0  0  0  0  0  0  0
   56.9100   25.6160   46.6180 C   0  0  0  0  0  0  0  0  0  0  0  0
   56.2410   26.7030   46.0450 C   0  0  0  0  0  0  0  0  0  0  0  0
   54.8500   26.7070   46.0040 O   0  0  0  0  0  0  0  0  0  0  0  0
   58.8650   31.7700   46.0670 C   0  0  0  0  0  0  0  0  0  0  0  0
  1  2  1  0
  2  3  2  0
  2  4  2  0
  2  5  1  0
  5  6  2  0
  6  7  1  0
  7  8  2  0
  8  9  1  0
  9 10  1  0
 10 11  1  0
 11 12  2  0
 11 13  1  0
 13 14  2  0
 14 15  1  0
 15 16  2  0
 16 17  1  0
 17 18  2  0
 18 19  1  0
 19 20  2  0
 20 21  1  0
  9 22  2  0
 22  5  1  0
 20 15  1  0
M  CHG  3   1  -1  10  -1  21  -1
M  END
>  <UniqueID>  (465) 
69

>  <SMILES>  (465) 
[NH-]S(=O)(=O)c1cccc([N-]C(=O)/C=N/c2ccccc2[O-])c1

>  <Energy>  (465) 
39.110794978822256

>  <Genealogy>  (465) 
[NH-]S(=O)(=O)c1cccc([N-]C(=O)C=Nc2ccccc2[O-])c1 (protonated)
[NH-]S(=O)(=O)c1cccc([N-]C(=O)/C=N/c2ccccc2[O-])c1 (cis-trans isomerization)
[NH-]S(=O)(=O)c1cccc([N-]C(=O)/C=N/c2ccccc2[O-])c1 (3D coordinates assigned)
[NH-]S(=O)(=O)c1cccc([N-]C(=O)/C=N/c2ccccc2[O-])c1 (optimized conformer: 39.110794978822256 kcal/mol)

>  <smiles>  (465) 
NS(=O)(=O)c1cccc(NC(=O)C=Nc2ccccc2O)c1

>  <score_type>  (465) 
oracle

>  <origin>  (465) 
adg

>  <m_score__min__energy>  (465) 
-14.4

>  <m_primary>  (465) 
energy

$$$$
7:0
     RDKit          3D

 29 31  0  0  0  0  0  0  0  0999 V2000
   64.4390   33.0840   48.8730 C   0  0  0  0  0  0  0  0  0  0  0  0
   63.2630   33.7660   48.4480 O   0  0  0  0  0  0  0  0  0  0  0  0
   62.0630   33.8040   49.1750 C   0  0  0  0  0  0  0  0  0  0  0  0
   60.8560   33.8110   48.4690 C   0  0  0  0  0  0  0  0  0  0  0  0
   59.6370   33.8230   49.1520 C   0  0  0  0  0  0  0  0  0  0  0  0
   59.6160   33.8300   50.5480 C   0  0  0  0  0  0  0  0  0  0  0  0
   60.8120   33.8310   51.2750 C   0  0  0  0  0  0  0  0  0  0  0  0
   60.7440   33.8220   52.7090 N   0  0  0  0  0  0  0  0  0  0  0  0
   59.2890   33.9630   53.6430 S   0  0  0  0  0  0  0  0  0  0  0  0
   59.6490   34.2580   55.0730 O   0  0  0  0  0  0  0  0  0  0  0  0
   58.4630   35.0980   53.1080 O   0  0  0  0  0  0  0  0  0  0  0  0
   58.3530   32.4740   53.5270 C   0  0  0  0  0  0  0  0  0  0  0  0
   58.5670   31.4480   54.4540 C   0  0  0  0  0  0  0  0  0  0  0  0
   57.7810   30.2930   54.4160 C   0  0  0  0  0  0  0  0  0  0  0  0
   56.7790   30.1590   53.4530 C   0  0  0  0  0  0  0  0  0  0  0  0
   56.5680   31.1730   52.5010 C   0  0  0  0  0  0  0  0  0  0  0  0
   55.5080   31.0880   51.5330 N   0  0  0  0  0  0  0  0  0  0  0  0
   54.2660   30.4050   51.7570 C   0  0  0  0  0  0  0  0  0  0  0  0
   54.1560   29.5590   52.6860 O   0  0  0  0  0  0  0  0  0  0  0  0
   53.0840   30.7010   50.8890 C   0  0  0  0  0  0  0  0  0  0  0  0
   52.0170   31.3710   51.6980 C   0  0  0  0  0  0  0  0  0  0  0  0
   51.8120   31.2050   53.3620 S   0  0  0  0  0  0  0  0  0  0  0  0
   50.5540   32.3190   53.4000 C   0  0  0  0  0  0  0  0  0  0  0  0
   49.9290   32.6470   54.4420 O   0  0  0  0  0  0  0  0  0  0  0  0
   50.2810   32.8380   52.1850 N   0  0  0  0  0  0  0  0  0  0  0  0
   51.1020   32.3150   51.2370 C   0  0  0  0  0  0  0  0  0  0  0  0
   51.0210   32.7060   49.9060 O   0  0  0  0  0  0  0  0  0  0  0  0
   57.3550   32.3330   52.5530 C   0  0  0  0  0  0  0  0  0  0  0  0
   62.0370   33.8300   50.5820 C   0  0  0  0  0  0  0  0  0  0  0  0
  1  2  1  0
  2  3  1  0
  3  4  2  0
  4  5  1  0
  5  6  2  0
  6  7  1  0
  7  8  1  0
  8  9  1  0
  9 10  2  0
  9 11  2  0
  9 12  1  0
 12 13  2  0
 13 14  1  0
 14 15  2  0
 15 16  1  0
 16 17  1  0
 17 18  1  0
 18 19  2  0
 18 20  1  0
 20 21  1  0
 21 22  1  0
 22 23  1  0
 23 24  2  0
 23 25  1  0
 25 26  1  0
 26 27  1  0
 16 28  2  0
  7 29  2  0
 29  3  1  0
 28 12  1  0
 26 21  2  0
M  CHG  3   8  -1  25  -1  27  -1
M  END
>  <UniqueID>  (466) 
8

>  <SMILES>  (466) 
COc1cccc([N-]S(=O)(=O)c2cccc(NC(=O)Cc3sc(=O)[n-]c3[O-])c2)c1

>  <Energy>  (466) 
78.2041768905757

>  <Genealogy>  (466) 
COc1cccc([N-]S(=O)(=O)c2cccc(NC(=O)Cc3sc(=O)[n-]c3[O-])c2)c1 (protonated)
COc1cccc([N-]S(=O)(=O)c2cccc(NC(=O)Cc3sc(=O)[n-]c3[O-])c2)c1 (3D coordinates assigned)
COc1cccc([N-]S(=O)(=O)c2cccc(NC(=O)Cc3sc(=O)[n-]c3[O-])c2)c1 (optimized conformer: 78.2041768905757 kcal/mol)

>  <smiles>  (466) 
COc1cccc(NS(=O)(=O)c2cccc(NC(=O)Cc3sc(=O)[nH]c3O)c2)c1

>  <score_type>  (466) 
oracle

>  <origin>  (466) 
adg

>  <m_score__min__energy>  (466) 
-17.530000000000001

>  <m_primary>  (466) 
energy

$$$$
18:0
     RDKit          3D

 25 27  0  0  0  0  0  0  0  0999 V2000
   56.5550   30.4620   42.8010 O   0  0  0  0  0  0  0  0  0  0  0  0
   56.9920   30.4830   43.9810 C   0  0  0  0  0  0  0  0  0  0  0  0
   56.6540   31.5980   44.8170 N   0  0  0  0  0  0  0  0  0  0  0  0
   57.5300   32.6720   45.1920 C   0  0  0  0  0  0  0  0  0  0  0  0
   58.3610   33.3100   44.2530 C   0  0  0  0  0  0  0  0  0  0  0  0
   59.1910   34.3630   44.6500 C   0  0  0  0  0  0  0  0  0  0  0  0
   59.1850   34.7980   45.9790 C   0  0  0  0  0  0  0  0  0  0  0  0
   60.0100   35.8440   46.3720 O   0  0  0  0  0  0  0  0  0  0  0  0
   58.3430   34.1820   46.9110 C   0  0  0  0  0  0  0  0  0  0  0  0
   57.5130   33.1280   46.5160 C   0  0  0  0  0  0  0  0  0  0  0  0
   57.7880   29.3370   44.4830 C   0  0  0  0  0  0  0  0  0  0  0  0
   58.9060   29.5440   45.3070 C   0  0  0  0  0  0  0  0  0  0  0  0
   59.6440   28.4570   45.7820 C   0  0  0  0  0  0  0  0  0  0  0  0
   59.2700   27.1540   45.4480 C   0  0  0  0  0  0  0  0  0  0  0  0
   58.1520   26.9270   44.6310 C   0  0  0  0  0  0  0  0  0  0  0  0
   57.7220   25.5220   44.3020 C   0  0  0  0  0  0  0  0  0  0  0  0
   57.3400   24.7820   45.5590 C   0  0  0  0  0  0  0  0  0  0  0  0
   58.0810   23.6670   45.9740 C   0  0  0  0  0  0  0  0  0  0  0  0
   57.7150   22.9810   47.0870 N   0  0  0  0  0  0  0  0  0  0  0  0
   56.6300   23.3520   47.8120 C   0  0  0  0  0  0  0  0  0  0  0  0
   56.3090   22.7030   48.8410 O   0  0  0  0  0  0  0  0  0  0  0  0
   55.8880   24.4210   47.4260 N   0  0  0  0  0  0  0  0  0  0  0  0
   56.2130   25.1390   46.3200 C   0  0  0  0  0  0  0  0  0  0  0  0
   55.4970   26.1220   45.9890 O   0  0  0  0  0  0  0  0  0  0  0  0
   57.4070   28.0220   44.1620 C   0  0  0  0  0  0  0  0  0  0  0  0
  1  2  2  0
  2  3  1  0
  3  4  1  0
  4  5  2  0
  5  6  1  0
  6  7  2  0
  7  8  1  0
  7  9  1  0
  9 10  2  0
  2 11  1  0
 11 12  2  0
 12 13  1  0
 13 14  2  0
 14 15  1  0
 15 16  1  0
 16 17  1  0
 17 18  2  0
 18 19  1  0
 19 20  1  0
 20 21  2  0
 20 22  1  0
 22 23  1  0
 23 24  2  0
 15 25  2  0
 10  4  1  0
 25 11  1  0
 23 17  1  0
M  CHG  4   3  -1   8  -1  19  -1  22  -1
M  END
>  <UniqueID>  (467) 
18

>  <SMILES>  (467) 
O=C([N-]c1ccc([O-])cc1)c1cccc(Cc2c[n-]c(=O)[n-]c2=O)c1

>  <Energy>  (467) 
46.755632701437236

>  <Genealogy>  (467) 
O=C([N-]c1ccc([O-])cc1)c1cccc(Cc2c[n-]c(=O)[n-]c2=O)c1 (protonated)
O=C([N-]c1ccc([O-])cc1)c1cccc(Cc2c[n-]c(=O)[n-]c2=O)c1 (3D coordinates assigned)
O=C([N-]c1ccc([O-])cc1)c1cccc(Cc2c[n-]c(=O)[n-]c2=O)c1 (optimized conformer: 46.755632701437236 kcal/mol)

>  <smiles>  (467) 
O=C(Nc1ccc(O)cc1)c1cccc(Cc2c[nH]c(=O)[nH]c2=O)c1

>  <score_type>  (467) 
oracle

>  <origin>  (467) 
adg

>  <m_score__min__energy>  (467) 
-14.25

>  <m_primary>  (467) 
energy

$$$$
82:0
     RDKit          3D

 23 24  0  0  0  0  0  0  0  0999 V2000
   57.4190   32.3910   51.8760 C   0  0  0  0  0  0  0  0  0  0  0  0
   57.3100   31.0240   52.4170 C   0  0  0  0  0  0  0  0  0  0  0  0
   58.1800   30.6200   53.2330 O   0  0  0  0  0  0  0  0  0  0  0  0
   56.2950   30.1620   51.9810 O   0  0  0  0  0  0  0  0  0  0  0  0
   55.1960   29.7630   52.7970 C   0  0  0  0  0  0  0  0  0  0  0  0
   53.9950   29.3840   51.9280 C   0  0  0  0  0  0  0  0  0  0  0  0
   52.9190   30.4320   52.0250 C   0  0  0  0  0  0  0  0  0  0  0  0
   52.4070   30.8080   53.2770 C   0  0  0  0  0  0  0  0  0  0  0  0
   51.4300   31.8030   53.3680 C   0  0  0  0  0  0  0  0  0  0  0  0
   50.9630   32.4370   52.2120 C   0  0  0  0  0  0  0  0  0  0  0  0
   49.9910   33.4260   52.3110 O   0  0  0  0  0  0  0  0  0  0  0  0
   51.4780   32.0770   50.9610 C   0  0  0  0  0  0  0  0  0  0  0  0
   51.0220   32.7080   49.8100 O   0  0  0  0  0  0  0  0  0  0  0  0
   52.4560   31.0810   50.8680 C   0  0  0  0  0  0  0  0  0  0  0  0
   58.3840   33.2690   52.1870 C   0  0  0  0  0  0  0  0  0  0  0  0
   59.5980   33.5200   51.3810 C   0  0  0  0  0  0  0  0  0  0  0  0
   60.8820   33.3490   51.9280 C   0  0  0  0  0  0  0  0  0  0  0  0
   62.0170   33.5620   51.1410 C   0  0  0  0  0  0  0  0  0  0  0  0
   61.8800   33.9220   49.7970 C   0  0  0  0  0  0  0  0  0  0  0  0
   63.0130   34.1350   49.0190 O   0  0  0  0  0  0  0  0  0  0  0  0
   60.6040   34.0600   49.2360 C   0  0  0  0  0  0  0  0  0  0  0  0
   60.4620   34.4070   47.8980 O   0  0  0  0  0  0  0  0  0  0  0  0
   59.4670   33.8500   50.0250 C   0  0  0  0  0  0  0  0  0  0  0  0
  1  2  1  0
  2  3  2  0
  2  4  1  0
  4  5  1  0
  5  6  1  0
  6  7  1  0
  7  8  2  0
  8  9  1  0
  9 10  2  0
 10 11  1  0
 10 12  1  0
 12 13  1  0
 12 14  2  0
  1 15  2  0
 15 16  1  0
 16 17  2  0
 17 18  1  0
 18 19  2  0
 19 20  1  0
 19 21  1  0
 21 22  1  0
 21 23  2  0
 14  7  1  0
 23 16  1  0
M  CHG  4  11  -1  13  -1  20  -1  22  -1
M  END
>  <UniqueID>  (468) 
77

>  <SMILES>  (468) 
O=C(/C=C\c1ccc([O-])c([O-])c1)OCCc1ccc([O-])c([O-])c1

>  <Energy>  (468) 
38.082385931285096

>  <Genealogy>  (468) 
O=C(C=Cc1ccc([O-])c([O-])c1)OCCc1ccc([O-])c([O-])c1 (protonated)
O=C(/C=C\c1ccc([O-])c([O-])c1)OCCc1ccc([O-])c([O-])c1 (cis-trans isomerization)
O=C(/C=C\c1ccc([O-])c([O-])c1)OCCc1ccc([O-])c([O-])c1 (3D coordinates assigned)
O=C(/C=C\c1ccc([O-])c([O-])c1)OCCc1ccc([O-])c([O-])c1 (optimized conformer: 38.082385931285096 kcal/mol)

>  <smiles>  (468) 
O=C(C=Cc1ccc(O)c(O)c1)OCCc1ccc(O)c(O)c1

>  <score_type>  (468) 
oracle

>  <origin>  (468) 
adg

>  <m_score__min__energy>  (468) 
-17.039999999999999

>  <m_primary>  (468) 
energy

$$$$
7:0
     RDKit          3D

 23 25  0  0  0  0  0  0  0  0999 V2000
   60.6610   29.6570   49.0480 C   0  0  0  0  0  0  0  0  0  0  0  0
   60.4030   30.7700   48.1400 N   0  0  0  0  0  0  0  0  0  0  0  0
   59.2030   31.1120   47.6140 C   0  0  0  0  0  0  0  0  0  0  0  0
   59.3280   32.2600   46.8380 C   0  0  0  0  0  0  0  0  0  0  0  0
   58.2060   32.9990   46.1650 C   0  0  0  0  0  0  0  0  0  0  0  0
   57.8590   32.3670   44.8110 C   0  0  0  0  0  0  0  0  0  0  0  0
   57.2280   31.0570   44.9750 N   0  0  0  0  0  0  0  0  0  0  0  0
   57.9770   29.8430   44.8410 C   0  0  0  0  0  0  0  0  0  0  0  0
   59.1310   29.8720   44.3330 O   0  0  0  0  0  0  0  0  0  0  0  0
   57.4010   28.5460   45.2640 C   0  0  0  0  0  0  0  0  0  0  0  0
   58.2490   27.5250   45.7230 C   0  0  0  0  0  0  0  0  0  0  0  0
   57.7220   26.2940   46.1130 C   0  0  0  0  0  0  0  0  0  0  0  0
   56.3420   26.0910   46.0540 C   0  0  0  0  0  0  0  0  0  0  0  0
   55.8500   24.9860   46.3970 O   0  0  0  0  0  0  0  0  0  0  0  0
   55.5270   27.0920   45.6300 N   0  0  0  0  0  0  0  0  0  0  0  0
   56.0120   28.3030   45.2440 C   0  0  0  0  0  0  0  0  0  0  0  0
   55.1160   29.2950   44.8630 O   0  0  0  0  0  0  0  0  0  0  0  0
   60.6600   32.6290   46.9210 C   0  0  0  0  0  0  0  0  0  0  0  0
   61.3540   33.7110   46.3760 C   0  0  0  0  0  0  0  0  0  0  0  0
   62.7220   33.8320   46.6720 C   0  0  0  0  0  0  0  0  0  0  0  0
   63.3630   32.8830   47.4980 C   0  0  0  0  0  0  0  0  0  0  0  0
   62.6400   31.8030   48.0350 C   0  0  0  0  0  0  0  0  0  0  0  0
   61.2830   31.7030   47.7220 C   0  0  0  0  0  0  0  0  0  0  0  0
  1  2  1  0
  2  3  1  0
  3  4  2  0
  4  5  1  0
  5  6  1  0
  6  7  1  0
  7  8  1  0
  8  9  2  0
  8 10  1  0
 10 11  1  0
 11 12  2  0
 12 13  1  0
 13 14  2  0
 13 15  1  0
 15 16  1  0
 16 17  1  0
  4 18  1  0
 18 19  2  0
 19 20  1  0
 20 21  2  0
 21 22  1  0
 22 23  2  0
 23  2  1  0
 16 10  2  0
 23 18  1  0
M  CHG  2  15  -1  17  -1
M  END
>  <UniqueID>  (469) 
7

>  <SMILES>  (469) 
Cn1cc(CCNC(=O)c2ccc(=O)[n-]c2[O-])c2ccccc21

>  <Energy>  (469) 
72.95547135493298

>  <Genealogy>  (469) 
Cn1cc(CCNC(=O)c2ccc(=O)[n-]c2[O-])c2ccccc21 (protonated)
Cn1cc(CCNC(=O)c2ccc(=O)[n-]c2[O-])c2ccccc21 (3D coordinates assigned)
Cn1cc(CCNC(=O)c2ccc(=O)[n-]c2[O-])c2ccccc21 (optimized conformer: 72.95547135493298 kcal/mol)

>  <smiles>  (469) 
Cn1cc(CCNC(=O)c2ccc(=O)[nH]c2O)c2ccccc21

>  <score_type>  (469) 
oracle

>  <origin>  (469) 
adg

>  <m_score__min__energy>  (469) 
-14.58

>  <m_primary>  (469) 
energy

$$$$
8:0
     RDKit          3D

 28 30  0  0  0  0  0  0  0  0999 V2000
   59.2810   34.6040   45.4130 C   0  0  0  0  0  0  0  0  0  0  0  0
   58.6040   33.3030   45.0690 C   0  0  0  0  0  0  0  0  0  0  0  0
   58.1500   33.1140   43.7520 C   0  0  0  0  0  0  0  0  0  0  0  0
   57.5000   31.9390   43.3820 C   0  0  0  0  0  0  0  0  0  0  0  0
   57.2910   30.9240   44.3190 C   0  0  0  0  0  0  0  0  0  0  0  0
   56.4790   29.4290   43.8440 S   0  0  0  0  0  0  0  0  0  0  0  0
   55.2390   29.7670   43.0670 O   0  0  0  0  0  0  0  0  0  0  0  0
   57.3700   28.6050   42.9590 O   0  0  0  0  0  0  0  0  0  0  0  0
   55.9850   28.5270   45.2440 N   0  0  0  0  0  0  0  0  0  0  0  0
   56.6030   27.3540   45.7960 C   0  0  0  0  0  0  0  0  0  0  0  0
   57.9910   27.2550   46.0080 C   0  0  0  0  0  0  0  0  0  0  0  0
   58.5410   26.0920   46.5580 C   0  0  0  0  0  0  0  0  0  0  0  0
   57.7170   25.0150   46.8870 C   0  0  0  0  0  0  0  0  0  0  0  0
   56.3400   25.1020   46.6780 C   0  0  0  0  0  0  0  0  0  0  0  0
   55.7820   26.2660   46.1380 C   0  0  0  0  0  0  0  0  0  0  0  0
   54.4080   26.3350   45.9430 O   0  0  0  0  0  0  0  0  0  0  0  0
   57.7450   31.0950   45.6300 C   0  0  0  0  0  0  0  0  0  0  0  0
   58.4090   32.2710   46.0270 C   0  0  0  0  0  0  0  0  0  0  0  0
   58.8740   32.3710   47.4360 C   0  0  0  0  0  0  0  0  0  0  0  0
   58.1770   32.9760   48.2960 O   0  0  0  0  0  0  0  0  0  0  0  0
   60.1460   31.8050   47.7970 N   0  0  0  0  0  0  0  0  0  0  0  0
   61.2960   32.4120   47.8520 C   0  0  0  0  0  0  0  0  0  0  0  0
   62.3650   31.9680   47.1320 N   0  0  0  0  0  0  0  0  0  0  0  0
   63.5740   32.5870   47.1760 C   0  0  0  0  0  0  0  0  0  0  0  0
   63.7500   33.7170   47.9760 C   0  0  0  0  0  0  0  0  0  0  0  0
   62.6730   34.2030   48.7170 C   0  0  0  0  0  0  0  0  0  0  0  0
   61.4370   33.5500   48.6620 C   0  0  0  0  0  0  0  0  0  0  0  0
   60.3560   34.0220   49.4030 O   0  0  0  0  0  0  0  0  0  0  0  0
  1  2  1  0
  2  3  2  0
  3  4  1  0
  4  5  2  0
  5  6  1  0
  6  7  2  0
  6  8  2  0
  6  9  1  0
  9 10  1  0
 10 11  2  0
 11 12  1  0
 12 13  2  0
 13 14  1  0
 14 15  2  0
 15 16  1  0
  5 17  1  0
 17 18  2  0
 18 19  1  0
 19 20  2  0
 19 21  1  0
 21 22  2  3
 22 23  1  0
 23 24  1  0
 24 25  2  0
 25 26  1  0
 26 27  2  0
 27 28  1  0
 18  2  1  0
 27 22  1  0
 15 10  1  0
M  CHG  3   9  -1  16  -1  23  -1
M  END
>  <UniqueID>  (470) 
8

>  <SMILES>  (470) 
Cc1ccc(S(=O)(=O)[N-]c2ccccc2[O-])cc1C(=O)N=c1[n-]cccc1O

>  <Energy>  (470) 
56.97548275993842

>  <Genealogy>  (470) 
Cc1ccc(S(=O)(=O)[N-]c2ccccc2[O-])cc1C(=O)N=c1[n-]cccc1O (protonated)
Cc1ccc(S(=O)(=O)[N-]c2ccccc2[O-])cc1C(=O)N=c1[n-]cccc1O (3D coordinates assigned)
Cc1ccc(S(=O)(=O)[N-]c2ccccc2[O-])cc1C(=O)N=c1[n-]cccc1O (optimized conformer: 56.97548275993842 kcal/mol)

>  <smiles>  (470) 
Cc1ccc(S(=O)(=O)Nc2ccccc2O)cc1C(=O)N=c1[nH]cccc1O

>  <score_type>  (470) 
oracle

>  <origin>  (470) 
adg

>  <m_score__min__energy>  (470) 
-15.470000000000001

>  <m_primary>  (470) 
energy

$$$$
14:0
     RDKit          3D

 25 27  0  0  0  0  0  0  0  0999 V2000
   54.7510   26.3460   45.9670 O   0  0  0  0  0  0  0  0  0  0  0  0
   55.8690   25.9100   46.3460 C   0  0  0  0  0  0  0  0  0  0  0  0
   55.9260   24.6560   46.9450 O   0  0  0  0  0  0  0  0  0  0  0  0
   57.1060   26.7110   46.1630 C   0  0  0  0  0  0  0  0  0  0  0  0
   57.1240   27.7420   45.2060 C   0  0  0  0  0  0  0  0  0  0  0  0
   58.2700   28.5270   45.0040 C   0  0  0  0  0  0  0  0  0  0  0  0
   58.2370   29.5760   44.0180 N   0  0  0  0  0  0  0  0  0  0  0  0
   57.4390   31.1000   44.2490 S   0  0  0  0  0  0  0  0  0  0  0  0
   57.2970   31.7870   42.9200 O   0  0  0  0  0  0  0  0  0  0  0  0
   56.0710   30.8600   44.8240 O   0  0  0  0  0  0  0  0  0  0  0  0
   58.3580   32.0950   45.3740 C   0  0  0  0  0  0  0  0  0  0  0  0
   57.9360   33.4030   45.6500 C   0  0  0  0  0  0  0  0  0  0  0  0
   58.6480   34.2000   46.5530 C   0  0  0  0  0  0  0  0  0  0  0  0
   59.7900   33.6950   47.1840 C   0  0  0  0  0  0  0  0  0  0  0  0
   60.4830   34.4670   48.0630 N   0  0  0  0  0  0  0  0  0  0  0  0
   61.5960   34.0090   48.6930 C   0  0  0  0  0  0  0  0  0  0  0  0
   62.2110   34.7540   49.5010 O   0  0  0  0  0  0  0  0  0  0  0  0
   62.0590   32.7110   48.4470 C   0  0  0  0  0  0  0  0  0  0  0  0
   61.3690   31.8950   47.5490 C   0  0  0  0  0  0  0  0  0  0  0  0
   60.2230   32.3790   46.9050 C   0  0  0  0  0  0  0  0  0  0  0  0
   59.5050   31.5850   46.0000 C   0  0  0  0  0  0  0  0  0  0  0  0
   59.4210   28.2630   45.7660 C   0  0  0  0  0  0  0  0  0  0  0  0
   59.4160   27.2440   46.7170 C   0  0  0  0  0  0  0  0  0  0  0  0
   58.2720   26.4680   46.9220 C   0  0  0  0  0  0  0  0  0  0  0  0
   58.3110   25.4620   47.8830 O   0  0  0  0  0  0  0  0  0  0  0  0
  1  2  2  0
  2  3  1  0
  2  4  1  0
  4  5  2  0
  5  6  1  0
  6  7  1  0
  7  8  1  0
  8  9  2  0
  8 10  2  0
  8 11  1  0
 11 12  2  0
 12 13  1  0
 13 14  2  0
 14 15  1  0
 15 16  1  0
 16 17  2  0
 16 18  1  0
 18 19  2  0
 19 20  1  0
 20 21  2  0
  6 22  2  0
 22 23  1  0
 23 24  2  0
 24 25  1  0
 24  4  1  0
 21 11  1  0
 20 14  1  0
M  CHG  3   3  -1  15  -1  25  -1
M  END
>  <UniqueID>  (471) 
14

>  <SMILES>  (471) 
O=C([O-])c1cc(NS(=O)(=O)c2ccc3[n-]c(=O)ccc3c2)ccc1[O-]

>  <Energy>  (471) 
45.32865719949602

>  <Genealogy>  (471) 
O=C([O-])c1cc(NS(=O)(=O)c2ccc3[n-]c(=O)ccc3c2)ccc1[O-] (protonated)
O=C([O-])c1cc(NS(=O)(=O)c2ccc3[n-]c(=O)ccc3c2)ccc1[O-] (3D coordinates assigned)
O=C([O-])c1cc(NS(=O)(=O)c2ccc3[n-]c(=O)ccc3c2)ccc1[O-] (optimized conformer: 45.32865719949602 kcal/mol)

>  <smiles>  (471) 
O=C(O)c1cc(NS(=O)(=O)c2ccc3[nH]c(=O)ccc3c2)ccc1O

>  <score_type>  (471) 
oracle

>  <origin>  (471) 
adg

>  <m_score__min__energy>  (471) 
-16.27

>  <m_primary>  (471) 
energy

$$$$
30:0
     RDKit          3D

 27 28  0  0  0  0  0  0  0  0999 V2000
   64.0140   32.7630   48.4890 C   0  0  0  0  0  0  0  0  0  0  0  0
   63.2870   33.3590   47.4170 O   0  0  0  0  0  0  0  0  0  0  0  0
   61.9380   33.7360   47.4880 C   0  0  0  0  0  0  0  0  0  0  0  0
   61.3710   33.9330   48.7530 C   0  0  0  0  0  0  0  0  0  0  0  0
   60.0320   34.3120   48.8760 C   0  0  0  0  0  0  0  0  0  0  0  0
   59.2440   34.4890   47.7360 C   0  0  0  0  0  0  0  0  0  0  0  0
   59.7910   34.2770   46.4590 C   0  0  0  0  0  0  0  0  0  0  0  0
   59.0240   34.4750   45.2630 N   0  0  0  0  0  0  0  0  0  0  0  0
   57.6860   34.0170   45.0310 C   0  0  0  0  0  0  0  0  0  0  0  0
   56.7070   34.5860   45.5830 O   0  0  0  0  0  0  0  0  0  0  0  0
   57.4530   32.7970   44.1790 C   0  0  0  0  0  0  0  0  0  0  0  0
   57.3690   31.5440   44.9610 N   0  0  0  0  0  0  0  0  0  0  0  0
   58.5490   31.3540   45.8250 C   0  0  0  0  0  0  0  0  0  0  0  0
   57.1220   30.3640   44.1070 C   0  0  0  0  0  0  0  0  0  0  0  0
   56.3310   29.3370   44.8550 C   0  0  0  0  0  0  0  0  0  0  0  0
   55.1460   29.0850   44.5010 O   0  0  0  0  0  0  0  0  0  0  0  0
   56.9410   28.6150   45.9300 N   0  0  0  0  0  0  0  0  0  0  0  0
   57.1570   27.1980   45.9700 C   0  0  0  0  0  0  0  0  0  0  0  0
   58.4720   26.7270   46.0590 C   0  0  0  0  0  0  0  0  0  0  0  0
   58.7320   25.3550   46.1130 C   0  0  0  0  0  0  0  0  0  0  0  0
   57.6810   24.4320   46.0960 C   0  0  0  0  0  0  0  0  0  0  0  0
   57.9940   23.0650   46.1490 O   0  0  0  0  0  0  0  0  0  0  0  0
   58.3060   22.2670   45.0120 C   0  0  0  0  0  0  0  0  0  0  0  0
   56.3550   24.9020   46.0340 C   0  0  0  0  0  0  0  0  0  0  0  0
   56.0920   26.2760   45.9890 C   0  0  0  0  0  0  0  0  0  0  0  0
   54.7700   26.7080   46.0000 O   0  0  0  0  0  0  0  0  0  0  0  0
   61.1420   33.9200   46.3400 C   0  0  0  0  0  0  0  0  0  0  0  0
  1  2  1  0
  2  3  1  0
  3  4  2  0
  4  5  1  0
  5  6  2  0
  6  7  1  0
  7  8  1  0
  8  9  1  0
  9 10  2  0
  9 11  1  0
 11 12  1  0
 12 13  1  0
 12 14  1  0
 14 15  1  0
 15 16  2  0
 15 17  1  0
 17 18  1  0
 18 19  2  0
 19 20  1  0
 20 21  2  0
 21 22  1  0
 22 23  1  0
 21 24  1  0
 24 25  2  0
 25 26  1  0
  7 27  2  0
 27  3  1  0
 25 18  1  0
M  CHG  3   8  -1  17  -1  26  -1
M  END
>  <UniqueID>  (472) 
30

>  <SMILES>  (472) 
COc1cccc([N-]C(=O)CN(C)CC(=O)[N-]c2ccc(OC)cc2[O-])c1

>  <Energy>  (472) 
55.74675594275869

>  <Genealogy>  (472) 
COc1cccc([N-]C(=O)CN(C)CC(=O)[N-]c2ccc(OC)cc2[O-])c1 (protonated)
COc1cccc([N-]C(=O)CN(C)CC(=O)[N-]c2ccc(OC)cc2[O-])c1 (3D coordinates assigned)
COc1cccc([N-]C(=O)CN(C)CC(=O)[N-]c2ccc(OC)cc2[O-])c1 (optimized conformer: 55.74675594275869 kcal/mol)

>  <smiles>  (472) 
COc1cccc(NC(=O)CN(C)CC(=O)Nc2ccc(OC)cc2O)c1

>  <score_type>  (472) 
oracle

>  <origin>  (472) 
adg

>  <m_score__min__energy>  (472) 
-14.77

>  <m_primary>  (472) 
energy

$$$$
38:0
     RDKit          3D

 28 30  0  0  0  0  0  0  0  0999 V2000
   55.1480   29.3790   44.8800 N   0  0  0  0  0  0  0  0  0  0  0  0
   56.6550   29.5820   44.0600 S   0  0  0  0  0  0  0  0  0  0  0  0
   56.4140   30.1920   42.7080 O   0  0  0  0  0  0  0  0  0  0  0  0
   57.3040   28.2380   43.8730 O   0  0  0  0  0  0  0  0  0  0  0  0
   57.7010   30.6360   45.0060 C   0  0  0  0  0  0  0  0  0  0  0  0
   57.4320   32.0080   45.1080 C   0  0  0  0  0  0  0  0  0  0  0  0
   58.2650   32.8310   45.8710 C   0  0  0  0  0  0  0  0  0  0  0  0
   59.3590   32.2870   46.5490 C   0  0  0  0  0  0  0  0  0  0  0  0
   59.6440   30.9200   46.4540 C   0  0  0  0  0  0  0  0  0  0  0  0
   60.7530   30.4120   47.1530 O   0  0  0  0  0  0  0  0  0  0  0  0
   60.7130   29.9240   48.4660 C   0  0  0  0  0  0  0  0  0  0  0  0
   61.0680   30.7810   49.5100 C   0  0  0  0  0  0  0  0  0  0  0  0
   61.1330   30.3030   50.8190 C   0  0  0  0  0  0  0  0  0  0  0  0
   60.8310   28.9670   51.0730 C   0  0  0  0  0  0  0  0  0  0  0  0
   60.4390   28.1530   50.0590 N   0  0  0  0  0  0  0  0  0  0  0  0
   60.3460   28.5900   48.7720 C   0  0  0  0  0  0  0  0  0  0  0  0
   59.8370   27.6640   47.7450 C   0  0  0  0  0  0  0  0  0  0  0  0
   60.5930   27.2710   46.8140 O   0  0  0  0  0  0  0  0  0  0  0  0
   58.4790   27.2210   47.8060 N   0  0  0  0  0  0  0  0  0  0  0  0
   57.5150   27.4170   46.7300 C   0  0  0  0  0  0  0  0  0  0  0  0
   57.1800   26.0900   46.0990 C   0  0  0  0  0  0  0  0  0  0  0  0
   58.2140   25.1720   45.8490 C   0  0  0  0  0  0  0  0  0  0  0  0
   57.9310   23.9190   45.2970 C   0  0  0  0  0  0  0  0  0  0  0  0
   56.6140   23.5700   44.9980 C   0  0  0  0  0  0  0  0  0  0  0  0
   55.5750   24.4680   45.2520 C   0  0  0  0  0  0  0  0  0  0  0  0
   55.8500   25.7270   45.8000 C   0  0  0  0  0  0  0  0  0  0  0  0
   54.7980   26.6050   46.0410 O   0  0  0  0  0  0  0  0  0  0  0  0
   58.8210   30.1010   45.6530 C   0  0  0  0  0  0  0  0  0  0  0  0
  1  2  1  0
  2  3  2  0
  2  4  2  0
  2  5  1  0
  5  6  2  0
  6  7  1  0
  7  8  2  0
  8  9  1  0
  9 10  1  0
 10 11  1  0
 11 12  2  0
 12 13  1  0
 13 14  2  0
 14 15  1  0
 15 16  2  0
 16 17  1  0
 17 18  2  0
 17 19  1  0
 19 20  1  0
 20 21  1  0
 21 22  2  0
 22 23  1  0
 23 24  2  0
 24 25  1  0
 25 26  2  0
 26 27  1  0
  9 28  2  0
 28  5  1  0
 16 11  1  0
 26 21  1  0
M  CHG  3   1  -1  19  -1  27  -1
M  END
>  <UniqueID>  (473) 
38

>  <SMILES>  (473) 
[NH-]S(=O)(=O)c1cccc(Oc2cccnc2C(=O)[N-]Cc2ccccc2[O-])c1

>  <Energy>  (473) 
54.35924119717904

>  <Genealogy>  (473) 
[NH-]S(=O)(=O)c1cccc(Oc2cccnc2C(=O)[N-]Cc2ccccc2[O-])c1 (protonated)
[NH-]S(=O)(=O)c1cccc(Oc2cccnc2C(=O)[N-]Cc2ccccc2[O-])c1 (3D coordinates assigned)
[NH-]S(=O)(=O)c1cccc(Oc2cccnc2C(=O)[N-]Cc2ccccc2[O-])c1 (optimized conformer: 54.35924119717904 kcal/mol)

>  <smiles>  (473) 
NS(=O)(=O)c1cccc(Oc2cccnc2C(=O)NCc2ccccc2O)c1

>  <score_type>  (473) 
oracle

>  <origin>  (473) 
adg

>  <m_score__min__energy>  (473) 
-15.52

>  <m_primary>  (473) 
energy

$$$$
50:0
     RDKit          3D

 24 25  0  0  0  0  0  0  0  0999 V2000
   55.1080   26.5380   46.1170 O   0  0  0  0  0  0  0  0  0  0  0  0
   56.0470   25.5460   46.3900 C   0  0  0  0  0  0  0  0  0  0  0  0
   55.7000   24.4880   47.1720 N   0  0  0  0  0  0  0  0  0  0  0  0
   56.5890   23.5010   47.4520 C   0  0  0  0  0  0  0  0  0  0  0  0
   56.2470   22.5360   48.1810 O   0  0  0  0  0  0  0  0  0  0  0  0
   57.8450   23.5520   46.9390 N   0  0  0  0  0  0  0  0  0  0  0  0
   58.2410   24.5850   46.1510 C   0  0  0  0  0  0  0  0  0  0  0  0
   59.4040   24.5830   45.6680 O   0  0  0  0  0  0  0  0  0  0  0  0
   57.3470   25.6350   45.8720 C   0  0  0  0  0  0  0  0  0  0  0  0
   57.7170   26.7660   44.9900 C   0  0  0  0  0  0  0  0  0  0  0  0
   57.6720   28.0650   45.3440 C   0  0  0  0  0  0  0  0  0  0  0  0
   58.3020   28.4510   46.5820 C   0  0  0  0  0  0  0  0  0  0  0  0
   58.8080   28.7620   47.5770 N   0  0  0  0  0  0  0  0  0  0  0  0
   57.0610   29.1330   44.5150 C   0  0  0  0  0  0  0  0  0  0  0  0
   56.8450   28.9480   43.2870 O   0  0  0  0  0  0  0  0  0  0  0  0
   56.7120   30.3820   45.1280 N   0  0  0  0  0  0  0  0  0  0  0  0
   57.4900   31.5870   45.1170 C   0  0  0  0  0  0  0  0  0  0  0  0
   57.7730   32.1920   43.8850 C   0  0  0  0  0  0  0  0  0  0  0  0
   58.5100   33.3780   43.8310 C   0  0  0  0  0  0  0  0  0  0  0  0
   58.9600   33.9790   45.0100 C   0  0  0  0  0  0  0  0  0  0  0  0
   59.6730   35.1310   44.9470 F   0  0  0  0  0  0  0  0  0  0  0  0
   58.6600   33.3970   46.2480 C   0  0  0  0  0  0  0  0  0  0  0  0
   59.1950   34.1600   47.7370 Cl  0  0  0  0  0  0  0  0  0  0  0  0
   57.9220   32.2090   46.3030 C   0  0  0  0  0  0  0  0  0  0  0  0
  1  2  1  0
  2  3  1  0
  3  4  1  0
  4  5  2  0
  4  6  1  0
  6  7  1  0
  7  8  2  0
  7  9  1  0
  9 10  1  0
 10 11  2  0
 11 12  1  0
 12 13  3  0
 11 14  1  0
 14 15  2  0
 14 16  1  0
 16 17  1  0
 17 18  2  0
 18 19  1  0
 19 20  2  0
 20 21  1  0
 20 22  1  0
 22 23  1  0
 22 24  2  0
  9  2  2  0
 24 17  1  0
M  CHG  3   3  -1   6  -1  16  -1
M  END
>  <UniqueID>  (474) 
48

>  <SMILES>  (474) 
N#C/C(=C/c1c(O)[n-]c(=O)[n-]c1=O)C(=O)[N-]c1ccc(F)c(Cl)c1

>  <Energy>  (474) 
43.84825959251094

>  <Genealogy>  (474) 
N#CC(=Cc1c(O)[n-]c(=O)[n-]c1=O)C(=O)[N-]c1ccc(F)c(Cl)c1 (protonated)
N#C/C(=C/c1c(O)[n-]c(=O)[n-]c1=O)C(=O)[N-]c1ccc(F)c(Cl)c1 (cis-trans isomerization)
N#C/C(=C/c1c(O)[n-]c(=O)[n-]c1=O)C(=O)[N-]c1ccc(F)c(Cl)c1 (3D coordinates assigned)
N#C/C(=C/c1c(O)[n-]c(=O)[n-]c1=O)C(=O)[N-]c1ccc(F)c(Cl)c1 (optimized conformer: 43.84825959251094 kcal/mol)

>  <smiles>  (474) 
N#CC(=Cc1c(O)[nH]c(=O)[nH]c1=O)C(=O)Nc1ccc(F)c(Cl)c1

>  <score_type>  (474) 
oracle

>  <origin>  (474) 
adg

>  <m_score__min__energy>  (474) 
-14.02

>  <m_primary>  (474) 
energy

$$$$
83:0
     RDKit          3D

 29 31  0  0  0  0  0  0  0  0999 V2000
   55.9190   30.1910   43.2220 O   0  0  0  0  0  0  0  0  0  0  0  0
   56.8510   30.1780   44.0710 C   0  0  0  0  0  0  0  0  0  0  0  0
   58.0200   29.2580   43.8810 C   0  0  0  0  0  0  0  0  0  0  0  0
   58.6260   28.8350   45.2260 C   0  0  0  0  0  0  0  0  0  0  0  0
   57.8730   27.6820   45.8430 C   0  0  0  0  0  0  0  0  0  0  0  0
   58.5560   26.7070   46.5880 C   0  0  0  0  0  0  0  0  0  0  0  0
   57.8640   25.6190   47.1290 C   0  0  0  0  0  0  0  0  0  0  0  0
   56.4830   25.4910   46.9290 C   0  0  0  0  0  0  0  0  0  0  0  0
   55.7870   24.4110   47.4710 O   0  0  0  0  0  0  0  0  0  0  0  0
   55.7980   26.4560   46.1790 C   0  0  0  0  0  0  0  0  0  0  0  0
   54.4270   26.3380   45.9770 O   0  0  0  0  0  0  0  0  0  0  0  0
   56.4910   27.5450   45.6340 C   0  0  0  0  0  0  0  0  0  0  0  0
   56.8090   31.0340   45.2200 N   0  0  0  0  0  0  0  0  0  0  0  0
   57.6230   32.1940   45.4380 C   0  0  0  0  0  0  0  0  0  0  0  0
   57.5780   33.3050   44.5800 C   0  0  0  0  0  0  0  0  0  0  0  0
   58.3690   34.4260   44.8430 C   0  0  0  0  0  0  0  0  0  0  0  0
   59.2060   34.4550   45.9610 C   0  0  0  0  0  0  0  0  0  0  0  0
   59.9840   35.5850   46.1920 O   0  0  0  0  0  0  0  0  0  0  0  0
   59.2480   33.3520   46.8370 C   0  0  0  0  0  0  0  0  0  0  0  0
   60.2820   33.3240   48.2720 S   0  0  0  0  0  0  0  0  0  0  0  0
   60.5990   31.8880   48.5870 O   0  0  0  0  0  0  0  0  0  0  0  0
   59.5810   33.9330   49.4550 O   0  0  0  0  0  0  0  0  0  0  0  0
   61.7670   34.1940   47.9450 N   0  0  0  0  0  0  0  0  0  0  0  0
   62.6540   34.2220   49.1240 C   0  0  0  0  0  0  0  0  0  0  0  0
   63.3690   32.8680   49.3580 C   0  0  0  0  0  0  0  0  0  0  0  0
   63.3720   32.0200   48.2210 O   0  0  0  0  0  0  0  0  0  0  0  0
   63.6420   32.7700   47.0580 C   0  0  0  0  0  0  0  0  0  0  0  0
   62.4510   33.6880   46.7330 C   0  0  0  0  0  0  0  0  0  0  0  0
   58.4420   32.2360   46.5730 C   0  0  0  0  0  0  0  0  0  0  0  0
  1  2  2  0
  2  3  1  0
  3  4  1  0
  4  5  1  0
  5  6  2  0
  6  7  1  0
  7  8  2  0
  8  9  1  0
  8 10  1  0
 10 11  1  0
 10 12  2  0
  2 13  1  0
 13 14  1  0
 14 15  2  0
 15 16  1  0
 16 17  2  0
 17 18  1  0
 17 19  1  0
 19 20  1  0
 20 21  2  0
 20 22  2  0
 20 23  1  0
 23 24  1  0
 24 25  1  0
 25 26  1  0
 26 27  1  0
 27 28  1  0
 19 29  2  0
 12  5  1  0
 29 14  1  0
 28 23  1  0
M  CHG  3  11  -1  13  -1  18  -1
M  END
>  <UniqueID>  (475) 
80

>  <SMILES>  (475) 
O=C(CCc1ccc(O)c([O-])c1)[N-]c1ccc([O-])c(S(=O)(=O)N2CCOCC2)c1

>  <Energy>  (475) 
60.186081569837825

>  <Genealogy>  (475) 
O=C(CCc1ccc(O)c([O-])c1)[N-]c1ccc([O-])c(S(=O)(=O)N2CCOCC2)c1 (protonated)
O=C(CCc1ccc(O)c([O-])c1)[N-]c1ccc([O-])c(S(=O)(=O)N2CCOCC2)c1 (3D coordinates assigned)
O=C(CCc1ccc(O)c([O-])c1)[N-]c1ccc([O-])c(S(=O)(=O)N2CCOCC2)c1 (nonaromatic ring conformer: 60.186081569837825 kcal/mol)

>  <smiles>  (475) 
O=C(CCc1ccc(O)c(O)c1)Nc1ccc(O)c(S(=O)(=O)N2CCOCC2)c1

>  <score_type>  (475) 
oracle

>  <origin>  (475) 
adg

>  <m_score__min__energy>  (475) 
-15.130000000000001

>  <m_primary>  (475) 
energy

$$$$
2:0
     RDKit          3D

 28 30  0  0  0  0  0  0  0  0999 V2000
   56.1910   30.4160   43.6920 C   0  0  0  0  0  0  0  0  0  0  0  0
   56.5520   31.0860   44.8180 N   0  0  0  0  0  0  0  0  0  0  0  0
   57.3710   32.1750   44.7770 C   0  0  0  0  0  0  0  0  0  0  0  0
   57.7010   32.8010   45.8660 N   0  0  0  0  0  0  0  0  0  0  0  0
   58.7720   32.1520   47.0660 S   0  0  0  0  0  0  0  0  0  0  0  0
   58.1290   32.2520   48.4220 O   0  0  0  0  0  0  0  0  0  0  0  0
   60.0420   32.9550   47.0810 O   0  0  0  0  0  0  0  0  0  0  0  0
   59.1550   30.4770   46.6800 C   0  0  0  0  0  0  0  0  0  0  0  0
   60.4720   30.1190   46.3710 C   0  0  0  0  0  0  0  0  0  0  0  0
   60.7790   28.7990   46.0310 C   0  0  0  0  0  0  0  0  0  0  0  0
   59.7720   27.8300   46.0000 C   0  0  0  0  0  0  0  0  0  0  0  0
   58.4480   28.1720   46.3250 C   0  0  0  0  0  0  0  0  0  0  0  0
   57.3870   27.2050   46.2660 N   0  0  0  0  0  0  0  0  0  0  0  0
   57.5630   25.8420   45.8360 C   0  0  0  0  0  0  0  0  0  0  0  0
   58.7020   25.4250   45.4940 O   0  0  0  0  0  0  0  0  0  0  0  0
   56.4150   24.9120   45.7800 C   0  0  0  0  0  0  0  0  0  0  0  0
   55.0810   25.3640   45.8420 C   0  0  0  0  0  0  0  0  0  0  0  0
   54.7880   26.7130   46.0030 O   0  0  0  0  0  0  0  0  0  0  0  0
   54.0560   24.4700   45.7770 N   0  0  0  0  0  0  0  0  0  0  0  0
   54.2730   23.1330   45.6660 C   0  0  0  0  0  0  0  0  0  0  0  0
   53.2950   22.3440   45.6040 O   0  0  0  0  0  0  0  0  0  0  0  0
   55.5780   22.6390   45.6260 C   0  0  0  0  0  0  0  0  0  0  0  0
   56.6490   23.5310   45.6900 C   0  0  0  0  0  0  0  0  0  0  0  0
   58.1440   29.5050   46.6430 C   0  0  0  0  0  0  0  0  0  0  0  0
   57.8640   32.6240   43.5460 C   0  0  0  0  0  0  0  0  0  0  0  0
   57.5200   31.9400   42.3710 C   0  0  0  0  0  0  0  0  0  0  0  0
   58.0080   32.4310   41.0410 C   0  0  0  0  0  0  0  0  0  0  0  0
   56.6630   30.8350   42.4470 C   0  0  0  0  0  0  0  0  0  0  0  0
  1  2  1  0
  2  3  1  0
  3  4  2  0
  4  5  1  0
  5  6  2  0
  5  7  2  0
  5  8  1  0
  8  9  2  0
  9 10  1  0
 10 11  2  0
 11 12  1  0
 12 13  1  0
 13 14  1  0
 14 15  2  0
 14 16  1  0
 16 17  2  0
 17 18  1  0
 17 19  1  0
 19 20  1  0
 20 21  2  0
 20 22  1  0
 22 23  2  0
 12 24  2  0
  3 25  1  0
 25 26  2  0
 26 27  1  0
 26 28  1  0
 28  1  2  0
 24  8  1  0
 23 16  1  0
M  CHG  3   2  -1  18  -1  19  -1
M  END
>  <UniqueID>  (476) 
3

>  <SMILES>  (476) 
Cc1cc[n-]/c(=N\S(=O)(=O)c2cccc(NC(=O)c3ccc(=O)[n-]c3[O-])c2)c1

>  <Energy>  (476) 
56.434806105597225

>  <Genealogy>  (476) 
Cc1cc[n-]c(=NS(=O)(=O)c2cccc(NC(=O)c3ccc(=O)[n-]c3[O-])c2)c1 (protonated)
Cc1cc[n-]/c(=N\S(=O)(=O)c2cccc(NC(=O)c3ccc(=O)[n-]c3[O-])c2)c1 (cis-trans isomerization)
Cc1cc[n-]/c(=N\S(=O)(=O)c2cccc(NC(=O)c3ccc(=O)[n-]c3[O-])c2)c1 (3D coordinates assigned)
Cc1cc[n-]/c(=N\S(=O)(=O)c2cccc(NC(=O)c3ccc(=O)[n-]c3[O-])c2)c1 (optimized conformer: 56.434806105597225 kcal/mol)

>  <smiles>  (476) 
Cc1cc[nH]c(=NS(=O)(=O)c2cccc(NC(=O)c3ccc(=O)[nH]c3O)c2)c1

>  <score_type>  (476) 
oracle

>  <origin>  (476) 
adg

>  <m_score__min__energy>  (476) 
-15.91

>  <m_primary>  (476) 
energy

$$$$
7:0
     RDKit          3D

 25 27  0  0  0  0  0  0  0  0999 V2000
   59.1310   25.9750   46.0650 C   0  0  0  0  0  0  0  0  0  0  0  0
   57.8650   26.3980   46.7690 C   0  0  0  0  0  0  0  0  0  0  0  0
   57.8310   27.4300   47.5670 N   0  0  0  0  0  0  0  0  0  0  0  0
   58.4190   28.7200   47.3430 C   0  0  0  0  0  0  0  0  0  0  0  0
   59.1820   29.3050   48.3600 C   0  0  0  0  0  0  0  0  0  0  0  0
   59.7960   30.5450   48.1590 C   0  0  0  0  0  0  0  0  0  0  0  0
   59.6740   31.2040   46.9260 C   0  0  0  0  0  0  0  0  0  0  0  0
   60.3270   32.5460   46.7230 C   0  0  0  0  0  0  0  0  0  0  0  0
   59.4090   33.6290   47.1390 N   0  0  0  0  0  0  0  0  0  0  0  0
   59.6470   34.8760   46.3880 C   0  0  0  0  0  0  0  0  0  0  0  0
   59.1790   34.7680   44.9210 C   0  0  0  0  0  0  0  0  0  0  0  0
   57.9770   33.9310   44.7440 N   0  0  0  0  0  0  0  0  0  0  0  0
   57.1740   33.8460   45.9680 C   0  0  0  0  0  0  0  0  0  0  0  0
   57.9810   33.2170   47.1200 C   0  0  0  0  0  0  0  0  0  0  0  0
   58.9380   30.6020   45.8940 C   0  0  0  0  0  0  0  0  0  0  0  0
   58.3230   29.3620   46.0970 C   0  0  0  0  0  0  0  0  0  0  0  0
   56.6000   25.6620   46.5090 C   0  0  0  0  0  0  0  0  0  0  0  0
   55.4760   26.3080   45.9580 C   0  0  0  0  0  0  0  0  0  0  0  0
   55.5200   27.6550   45.6150 O   0  0  0  0  0  0  0  0  0  0  0  0
   54.3330   25.6100   45.7330 N   0  0  0  0  0  0  0  0  0  0  0  0
   54.2490   24.2880   46.0220 C   0  0  0  0  0  0  0  0  0  0  0  0
   53.1780   23.6640   45.8040 O   0  0  0  0  0  0  0  0  0  0  0  0
   55.3170   23.6370   46.5450 N   0  0  0  0  0  0  0  0  0  0  0  0
   56.4830   24.2870   46.7940 C   0  0  0  0  0  0  0  0  0  0  0  0
   57.4470   23.6460   47.2940 O   0  0  0  0  0  0  0  0  0  0  0  0
  1  2  1  0
  2  3  2  3
  3  4  1  0
  4  5  2  0
  5  6  1  0
  6  7  2  0
  7  8  1  0
  8  9  1  0
  9 10  1  0
 10 11  1  0
 11 12  1  0
 12 13  1  0
 13 14  1  0
  7 15  1  0
 15 16  2  0
  2 17  1  0
 17 18  2  0
 18 19  1  0
 18 20  1  0
 20 21  1  0
 21 22  2  0
 21 23  1  0
 23 24  1  0
 24 25  2  0
 16  4  1  0
 24 17  1  0
 14  9  1  0
M  CHG  3  19  -1  20  -1  23  -1
M  END
>  <UniqueID>  (477) 
7

>  <SMILES>  (477) 
CC(=Nc1ccc(CN2CCNCC2)cc1)c1c([O-])[n-]c(=O)[n-]c1=O

>  <Energy>  (477) 
69.18679170419288

>  <Genealogy>  (477) 
CC(=Nc1ccc(CN2CCNCC2)cc1)c1c([O-])[n-]c(=O)[n-]c1=O (protonated)
CC(=Nc1ccc(CN2CCNCC2)cc1)c1c([O-])[n-]c(=O)[n-]c1=O (3D coordinates assigned)
CC(=Nc1ccc(CN2CCNCC2)cc1)c1c([O-])[n-]c(=O)[n-]c1=O (nonaromatic ring conformer: 69.18679170419288 kcal/mol)

>  <smiles>  (477) 
CC(=Nc1ccc(CN2CCNCC2)cc1)c1c(O)[nH]c(=O)[nH]c1=O

>  <score_type>  (477) 
oracle

>  <origin>  (477) 
adg

>  <m_score__min__energy>  (477) 
-15.119999999999999

>  <m_primary>  (477) 
energy

$$$$
27:0
     RDKit          3D

 30 33  0  0  0  0  0  0  0  0999 V2000
   56.9240   34.1010   44.6080 O   0  0  0  0  0  0  0  0  0  0  0  0
   57.3950   33.1340   45.2630 C   0  0  0  0  0  0  0  0  0  0  0  0
   57.9900   31.9740   44.5200 C   0  0  0  0  0  0  0  0  0  0  0  0
   56.7330   30.9560   43.6610 S   0  0  0  0  0  0  0  0  0  0  0  0
   57.0290   29.4860   44.6430 C   0  0  0  0  0  0  0  0  0  0  0  0
   58.2890   29.2250   45.1200 N   0  0  0  0  0  0  0  0  0  0  0  0
   58.5450   28.1120   45.8690 C   0  0  0  0  0  0  0  0  0  0  0  0
   59.7040   27.8790   46.3020 O   0  0  0  0  0  0  0  0  0  0  0  0
   57.4890   27.2540   46.1330 C   0  0  0  0  0  0  0  0  0  0  0  0
   57.3520   26.0710   46.8200 C   0  0  0  0  0  0  0  0  0  0  0  0
   56.0560   25.6800   46.7230 N   0  0  0  0  0  0  0  0  0  0  0  0
   55.3780   26.5710   46.0010 N   0  0  0  0  0  0  0  0  0  0  0  0
   56.2540   27.5230   45.6460 C   0  0  0  0  0  0  0  0  0  0  0  0
   55.9980   28.6220   44.8990 N   0  0  0  0  0  0  0  0  0  0  0  0
   57.3580   33.1420   46.6960 N   0  0  0  0  0  0  0  0  0  0  0  0
   58.4860   33.2870   47.5710 C   0  0  0  0  0  0  0  0  0  0  0  0
   59.4650   34.2750   47.3610 C   0  0  0  0  0  0  0  0  0  0  0  0
   60.5320   34.4080   48.2540 C   0  0  0  0  0  0  0  0  0  0  0  0
   60.6290   33.5640   49.3680 C   0  0  0  0  0  0  0  0  0  0  0  0
   61.9810   33.7050   50.4890 S   0  0  0  0  0  0  0  0  0  0  0  0
   62.7400   34.9740   50.2160 O   0  0  0  0  0  0  0  0  0  0  0  0
   61.4310   33.7760   51.8840 O   0  0  0  0  0  0  0  0  0  0  0  0
   63.0350   32.3130   50.3530 N   0  0  0  0  0  0  0  0  0  0  0  0
   62.9190   31.6600   49.0380 C   0  0  0  0  0  0  0  0  0  0  0  0
   63.5980   32.4800   47.9160 C   0  0  0  0  0  0  0  0  0  0  0  0
   64.5120   33.4520   48.3960 O   0  0  0  0  0  0  0  0  0  0  0  0
   65.2980   32.9120   49.4330 C   0  0  0  0  0  0  0  0  0  0  0  0
   64.4370   32.6480   50.6850 C   0  0  0  0  0  0  0  0  0  0  0  0
   59.6490   32.5850   49.5830 C   0  0  0  0  0  0  0  0  0  0  0  0
   58.5780   32.4580   48.6950 C   0  0  0  0  0  0  0  0  0  0  0  0
  1  2  2  0
  2  3  1  0
  3  4  1  0
  4  5  1  0
  5  6  2  0
  6  7  1  0
  7  8  2  0
  7  9  1  0
  9 10  2  0
 10 11  1  0
 11 12  1  0
 12 13  2  0
 13 14  1  0
  2 15  1  0
 15 16  1  0
 16 17  2  0
 17 18  1  0
 18 19  2  0
 19 20  1  0
 20 21  2  0
 20 22  2  0
 20 23  1  0
 23 24  1  0
 24 25  1  0
 25 26  1  0
 26 27  1  0
 27 28  1  0
 19 29  1  0
 29 30  2  0
 14  5  1  0
 30 16  1  0
 13  9  1  0
 28 23  1  0
M  CHG  3  11  -1  14  -1  15  -1
M  END
>  <UniqueID>  (478) 
27

>  <SMILES>  (478) 
O=C(CSc1nc(=O)c2c[n-]nc2[n-]1)[N-]c1ccc(S(=O)(=O)N2CCOCC2)cc1

>  <Energy>  (478) 
100.73289974819015

>  <Genealogy>  (478) 
O=C(CSc1nc(=O)c2c[n-]nc2[n-]1)[N-]c1ccc(S(=O)(=O)N2CCOCC2)cc1 (protonated)
O=C(CSc1nc(=O)c2c[n-]nc2[n-]1)[N-]c1ccc(S(=O)(=O)N2CCOCC2)cc1 (3D coordinates assigned)
O=C(CSc1nc(=O)c2c[n-]nc2[n-]1)[N-]c1ccc(S(=O)(=O)N2CCOCC2)cc1 (nonaromatic ring conformer: 100.73289974819015 kcal/mol)

>  <smiles>  (478) 
O=C(CSc1nc(=O)c2c[nH]nc2[nH]1)Nc1ccc(S(=O)(=O)N2CCOCC2)cc1

>  <score_type>  (478) 
oracle

>  <origin>  (478) 
adg

>  <m_score__min__energy>  (478) 
-14.699999999999999

>  <m_primary>  (478) 
energy

$$$$
58:0
     RDKit          3D

 26 28  0  0  0  0  0  0  0  0999 V2000
   59.7480   26.7470   47.8440 O   0  0  0  0  0  0  0  0  0  0  0  0
   59.6350   27.8990   47.3480 C   0  0  0  0  0  0  0  0  0  0  0  0
   60.7050   28.8360   47.5100 N   0  0  0  0  0  0  0  0  0  0  0  0
   60.8590   29.6990   48.6740 C   0  0  0  0  0  0  0  0  0  0  0  0
   61.7560   30.8400   48.3270 C   0  0  0  0  0  0  0  0  0  0  0  0
   62.4380   31.6340   49.2270 C   0  0  0  0  0  0  0  0  0  0  0  0
   63.1550   32.5280   48.4620 C   0  0  0  0  0  0  0  0  0  0  0  0
   62.8700   32.2210   47.1460 C   0  0  0  0  0  0  0  0  0  0  0  0
   62.0360   31.2080   47.0980 O   0  0  0  0  0  0  0  0  0  0  0  0
   58.4110   28.2430   46.5960 C   0  0  0  0  0  0  0  0  0  0  0  0
   58.2860   29.4790   45.9330 C   0  0  0  0  0  0  0  0  0  0  0  0
   59.3180   30.4780   46.0220 N   0  0  0  0  0  0  0  0  0  0  0  0
   59.0260   31.8760   46.1550 C   0  0  0  0  0  0  0  0  0  0  0  0
   59.3520   32.5310   47.3520 C   0  0  0  0  0  0  0  0  0  0  0  0
   59.0790   33.8920   47.5120 C   0  0  0  0  0  0  0  0  0  0  0  0
   58.4900   34.6130   46.4720 C   0  0  0  0  0  0  0  0  0  0  0  0
   58.1830   33.9790   45.2660 C   0  0  0  0  0  0  0  0  0  0  0  0
   58.4540   32.6150   45.0950 C   0  0  0  0  0  0  0  0  0  0  0  0
   58.1410   31.8860   43.5250 Cl  0  0  0  0  0  0  0  0  0  0  0  0
   57.1510   29.7450   45.2340 N   0  0  0  0  0  0  0  0  0  0  0  0
   56.1400   28.8460   45.1450 C   0  0  0  0  0  0  0  0  0  0  0  0
   55.1070   29.1350   44.4840 O   0  0  0  0  0  0  0  0  0  0  0  0
   56.2420   27.6400   45.7680 N   0  0  0  0  0  0  0  0  0  0  0  0
   55.2120   26.7300   45.6670 O   0  0  0  0  0  0  0  0  0  0  0  0
   57.3580   27.3200   46.4830 C   0  0  0  0  0  0  0  0  0  0  0  0
   57.4450   26.1870   47.0320 O   0  0  0  0  0  0  0  0  0  0  0  0
  1  2  2  0
  2  3  1  0
  3  4  1  0
  4  5  1  0
  5  6  2  0
  6  7  1  0
  7  8  2  0
  8  9  1  0
  2 10  1  0
 10 11  2  0
 11 12  1  0
 12 13  1  0
 13 14  2  0
 14 15  1  0
 15 16  2  0
 16 17  1  0
 17 18  2  0
 18 19  1  0
 11 20  1  0
 20 21  1  0
 21 22  2  0
 21 23  1  0
 23 24  1  0
 23 25  1  0
 25 26  2  0
  9  5  1  0
 25 10  1  0
 18 13  1  0
M  CHG  3   3  -1  20  -1  24  -1
M  END
>  <UniqueID>  (479) 
57

>  <SMILES>  (479) 
O=C([N-]Cc1ccco1)c1c(Nc2ccccc2Cl)[n-]c(=O)n([O-])c1=O

>  <Energy>  (479) 
77.79048567370471

>  <Genealogy>  (479) 
O=C([N-]Cc1ccco1)c1c(Nc2ccccc2Cl)[n-]c(=O)n([O-])c1=O (protonated)
O=C([N-]Cc1ccco1)c1c(Nc2ccccc2Cl)[n-]c(=O)n([O-])c1=O (3D coordinates assigned)
O=C([N-]Cc1ccco1)c1c(Nc2ccccc2Cl)[n-]c(=O)n([O-])c1=O (optimized conformer: 77.79048567370471 kcal/mol)

>  <smiles>  (479) 
O=C(NCc1ccco1)c1c(Nc2ccccc2Cl)[nH]c(=O)n(O)c1=O

>  <score_type>  (479) 
oracle

>  <origin>  (479) 
adg

>  <m_score__min__energy>  (479) 
-14.06

>  <m_primary>  (479) 
energy

$$$$
68:0
     RDKit          3D

 29 31  0  0  0  0  0  0  0  0999 V2000
   57.1640   33.4900   45.9480 C   0  0  0  0  0  0  0  0  0  0  0  0
   57.0370   32.3220   45.2680 N   0  0  0  0  0  0  0  0  0  0  0  0
   58.0590   31.4250   45.2170 C   0  0  0  0  0  0  0  0  0  0  0  0
   57.9530   30.3160   44.5440 N   0  0  0  0  0  0  0  0  0  0  0  0
   57.7330   28.9990   45.0780 C   0  0  0  0  0  0  0  0  0  0  0  0
   58.8370   28.2650   45.5290 C   0  0  0  0  0  0  0  0  0  0  0  0
   58.6650   26.9920   46.0800 C   0  0  0  0  0  0  0  0  0  0  0  0
   57.3810   26.4400   46.1990 C   0  0  0  0  0  0  0  0  0  0  0  0
   57.2220   25.0950   46.7830 C   0  0  0  0  0  0  0  0  0  0  0  0
   56.1870   24.8340   47.4510 O   0  0  0  0  0  0  0  0  0  0  0  0
   58.2280   24.0860   46.6370 N   0  0  0  0  0  0  0  0  0  0  0  0
   58.5040   23.3780   45.3940 C   0  0  0  0  0  0  0  0  0  0  0  0
   56.2640   27.1980   45.8050 C   0  0  0  0  0  0  0  0  0  0  0  0
   54.9750   26.7090   45.9920 O   0  0  0  0  0  0  0  0  0  0  0  0
   56.4400   28.4690   45.2470 C   0  0  0  0  0  0  0  0  0  0  0  0
   59.2310   31.7090   45.8420 N   0  0  0  0  0  0  0  0  0  0  0  0
   59.4100   32.8630   46.5440 C   0  0  0  0  0  0  0  0  0  0  0  0
   60.7150   33.1170   47.2060 C   0  0  0  0  0  0  0  0  0  0  0  0
   61.8220   33.5230   46.4400 C   0  0  0  0  0  0  0  0  0  0  0  0
   63.0600   33.7620   47.0430 C   0  0  0  0  0  0  0  0  0  0  0  0
   63.2180   33.5920   48.4290 C   0  0  0  0  0  0  0  0  0  0  0  0
   64.4670   33.8250   49.0940 N   0  0  0  0  0  0  0  0  0  0  0  0
   65.1230   32.8680   50.3840 S   0  0  0  0  0  0  0  0  0  0  0  0
   64.5950   33.3900   51.6890 O   0  0  0  0  0  0  0  0  0  0  0  0
   64.6960   31.4340   50.2300 O   0  0  0  0  0  0  0  0  0  0  0  0
   66.8990   32.9900   50.3960 C   0  0  0  0  0  0  0  0  0  0  0  0
   62.1240   33.1740   49.1930 C   0  0  0  0  0  0  0  0  0  0  0  0
   60.8840   32.9360   48.5920 C   0  0  0  0  0  0  0  0  0  0  0  0
   58.3570   33.7900   46.6020 C   0  0  0  0  0  0  0  0  0  0  0  0
  1  2  1  0
  2  3  1  0
  3  4  2  0
  4  5  1  0
  5  6  2  0
  6  7  1  0
  7  8  2  0
  8  9  1  0
  9 10  2  0
  9 11  1  0
 11 12  1  0
  8 13  1  0
 13 14  1  0
 13 15  2  0
  3 16  1  0
 16 17  2  0
 17 18  1  0
 18 19  2  0
 19 20  1  0
 20 21  2  0
 21 22  1  0
 22 23  1  0
 23 24  2  0
 23 25  2  0
 23 26  1  0
 21 27  1  0
 27 28  2  0
 17 29  1  0
 29  1  2  0
 15  5  1  0
 28 18  1  0
M  CHG  4   2  -1  11  -1  14  -1  22  -1
M  END
>  <UniqueID>  (480) 
65

>  <SMILES>  (480) 
C[N-]C(=O)c1ccc(/N=c2/nc(-c3ccc([N-]S(C)(=O)=O)cc3)cc[n-]2)cc1[O-]

>  <Energy>  (480) 
61.75111394142702

>  <Genealogy>  (480) 
C[N-]C(=O)c1ccc(N=c2nc(-c3ccc([N-]S(C)(=O)=O)cc3)cc[n-]2)cc1[O-] (protonated)
C[N-]C(=O)c1ccc(/N=c2/nc(-c3ccc([N-]S(C)(=O)=O)cc3)cc[n-]2)cc1[O-] (cis-trans isomerization)
C[N-]C(=O)c1ccc(/N=c2/nc(-c3ccc([N-]S(C)(=O)=O)cc3)cc[n-]2)cc1[O-] (3D coordinates assigned)
C[N-]C(=O)c1ccc(/N=c2/nc(-c3ccc([N-]S(C)(=O)=O)cc3)cc[n-]2)cc1[O-] (optimized conformer: 61.75111394142702 kcal/mol)

>  <smiles>  (480) 
CNC(=O)c1ccc(N=c2nc(-c3ccc(NS(C)(=O)=O)cc3)cc[nH]2)cc1O

>  <score_type>  (480) 
oracle

>  <origin>  (480) 
adg

>  <m_score__min__energy>  (480) 
-15.369999999999999

>  <m_primary>  (480) 
energy

$$$$
87:0
     RDKit          3D

 33 35  0  0  0  0  0  0  0  0999 V2000
   56.7600   30.9180   51.1450 O   0  0  0  0  0  0  0  0  0  0  0  0
   58.0810   30.8460   50.7110 C   0  0  0  0  0  0  0  0  0  0  0  0
   58.4980   29.7290   49.9820 C   0  0  0  0  0  0  0  0  0  0  0  0
   59.8270   29.6160   49.5460 C   0  0  0  0  0  0  0  0  0  0  0  0
   60.2260   28.4380   48.7510 C   0  0  0  0  0  0  0  0  0  0  0  0
   59.3840   27.5670   48.1760 C   0  0  0  0  0  0  0  0  0  0  0  0
   59.5870   26.9110   46.8680 C   0  0  0  0  0  0  0  0  0  0  0  0
   60.5950   27.2290   46.1780 O   0  0  0  0  0  0  0  0  0  0  0  0
   58.6360   25.9710   46.3550 N   0  0  0  0  0  0  0  0  0  0  0  0
   57.2490   25.8930   46.7950 C   0  0  0  0  0  0  0  0  0  0  0  0
   56.3990   26.8130   45.9780 C   0  0  0  0  0  0  0  0  0  0  0  0
   55.1420   26.7130   46.0110 O   0  0  0  0  0  0  0  0  0  0  0  0
   57.0260   27.7580   45.1100 N   0  0  0  0  0  0  0  0  0  0  0  0
   56.4170   29.0220   44.7300 C   0  0  0  0  0  0  0  0  0  0  0  0
   57.3130   30.1410   45.1600 C   0  0  0  0  0  0  0  0  0  0  0  0
   58.2700   29.9320   46.1660 C   0  0  0  0  0  0  0  0  0  0  0  0
   59.0450   30.9980   46.6320 C   0  0  0  0  0  0  0  0  0  0  0  0
   58.8550   32.2870   46.1160 C   0  0  0  0  0  0  0  0  0  0  0  0
   59.7700   33.6500   46.7700 S   0  0  0  0  0  0  0  0  0  0  0  0
   60.3500   34.4490   45.6350 O   0  0  0  0  0  0  0  0  0  0  0  0
   58.8400   34.5450   47.5410 O   0  0  0  0  0  0  0  0  0  0  0  0
   61.0550   33.1120   47.8290 N   0  0  0  0  0  0  0  0  0  0  0  0
   61.5200   34.2240   48.6810 C   0  0  0  0  0  0  0  0  0  0  0  0
   62.9520   33.9700   49.1840 C   0  0  0  0  0  0  0  0  0  0  0  0
   63.9150   33.8170   48.1470 O   0  0  0  0  0  0  0  0  0  0  0  0
   63.3630   33.3940   46.9070 C   0  0  0  0  0  0  0  0  0  0  0  0
   62.1470   32.4630   47.0730 C   0  0  0  0  0  0  0  0  0  0  0  0
   57.9010   32.4930   45.1070 C   0  0  0  0  0  0  0  0  0  0  0  0
   57.1270   31.4290   44.6390 C   0  0  0  0  0  0  0  0  0  0  0  0
   60.7260   30.6660   49.8050 C   0  0  0  0  0  0  0  0  0  0  0  0
   60.3150   31.7800   50.5410 C   0  0  0  0  0  0  0  0  0  0  0  0
   58.9960   31.8740   50.9940 C   0  0  0  0  0  0  0  0  0  0  0  0
   58.6010   32.9920   51.7240 O   0  0  0  0  0  0  0  0  0  0  0  0
  1  2  1  0
  2  3  2  0
  3  4  1  0
  4  5  1  0
  5  6  2  0
  6  7  1  0
  7  8  2  0
  7  9  1  0
  9 10  1  0
 10 11  1  0
 11 12  2  0
 11 13  1  0
 13 14  1  0
 14 15  1  0
 15 16  2  0
 16 17  1  0
 17 18  2  0
 18 19  1  0
 19 20  2  0
 19 21  2  0
 19 22  1  0
 22 23  1  0
 23 24  1  0
 24 25  1  0
 25 26  1  0
 26 27  1  0
 18 28  1  0
 28 29  2  0
  4 30  2  0
 30 31  1  0
 31 32  2  0
 32 33  1  0
 32  2  1  0
 29 15  1  0
 27 22  1  0
M  CHG  3   9  -1  13  -1  33  -1
M  END
>  <UniqueID>  (481) 
82

>  <SMILES>  (481) 
O=C(/C=C\c1ccc([O-])c(O)c1)[N-]CC(=O)[N-]Cc1ccc(S(=O)(=O)N2CCOCC2)cc1

>  <Energy>  (481) 
68.53808955742404

>  <Genealogy>  (481) 
O=C(C=Cc1ccc([O-])c(O)c1)[N-]CC(=O)[N-]Cc1ccc(S(=O)(=O)N2CCOCC2)cc1 (protonated)
O=C(/C=C\c1ccc([O-])c(O)c1)[N-]CC(=O)[N-]Cc1ccc(S(=O)(=O)N2CCOCC2)cc1 (cis-trans isomerization)
O=C(/C=C\c1ccc([O-])c(O)c1)[N-]CC(=O)[N-]Cc1ccc(S(=O)(=O)N2CCOCC2)cc1 (3D coordinates assigned)
O=C(/C=C\c1ccc([O-])c(O)c1)[N-]CC(=O)[N-]Cc1ccc(S(=O)(=O)N2CCOCC2)cc1 (nonaromatic ring conformer: 68.53808955742404 kcal/mol)

>  <smiles>  (481) 
O=C(C=Cc1ccc(O)c(O)c1)NCC(=O)NCc1ccc(S(=O)(=O)N2CCOCC2)cc1

>  <score_type>  (481) 
oracle

>  <origin>  (481) 
adg

>  <m_score__min__energy>  (481) 
-15.15

>  <m_primary>  (481) 
energy

$$$$
40:0
     RDKit          3D

 22 23  0  0  0  0  0  0  0  0999 V2000
   57.6250   23.2880   46.5070 C   0  0  0  0  0  0  0  0  0  0  0  0
   56.5660   23.3540   47.5970 C   0  0  0  0  0  0  0  0  0  0  0  0
   55.4390   24.1540   47.1380 N   0  0  0  0  0  0  0  0  0  0  0  0
   55.4370   24.9560   45.9500 C   0  0  0  0  0  0  0  0  0  0  0  0
   55.3510   24.3880   44.8310 O   0  0  0  0  0  0  0  0  0  0  0  0
   55.4590   26.3880   46.0010 N   0  0  0  0  0  0  0  0  0  0  0  0
   56.5800   27.2220   45.6820 C   0  0  0  0  0  0  0  0  0  0  0  0
   57.8670   26.7530   45.9710 C   0  0  0  0  0  0  0  0  0  0  0  0
   58.9860   27.5370   45.6870 C   0  0  0  0  0  0  0  0  0  0  0  0
   58.8290   28.8050   45.1260 C   0  0  0  0  0  0  0  0  0  0  0  0
   57.5470   29.3050   44.8570 C   0  0  0  0  0  0  0  0  0  0  0  0
   57.3500   30.9220   44.1760 S   0  0  0  0  0  0  0  0  0  0  0  0
   57.2730   30.8430   42.6770 O   0  0  0  0  0  0  0  0  0  0  0  0
   56.0670   31.5070   44.6970 O   0  0  0  0  0  0  0  0  0  0  0  0
   58.7090   31.9140   44.6580 N   0  0  0  0  0  0  0  0  0  0  0  0
   59.0470   31.7270   46.0830 C   0  0  0  0  0  0  0  0  0  0  0  0
   58.0530   32.4230   47.0320 C   0  0  0  0  0  0  0  0  0  0  0  0
   57.5880   33.7980   46.5210 C   0  0  0  0  0  0  0  0  0  0  0  0
   58.4870   34.3280   45.4070 C   0  0  0  0  0  0  0  0  0  0  0  0
   58.5410   33.3290   44.2380 C   0  0  0  0  0  0  0  0  0  0  0  0
   56.4180   28.5200   45.1510 C   0  0  0  0  0  0  0  0  0  0  0  0
   55.1430   29.0330   44.9290 O   0  0  0  0  0  0  0  0  0  0  0  0
  1  2  1  0
  2  3  1  0
  3  4  1  0
  4  5  2  0
  4  6  1  0
  6  7  1  0
  7  8  2  0
  8  9  1  0
  9 10  2  0
 10 11  1  0
 11 12  1  0
 12 13  2  0
 12 14  2  0
 12 15  1  0
 15 16  1  0
 16 17  1  0
 17 18  1  0
 18 19  1  0
 19 20  1  0
 11 21  2  0
 21 22  1  0
 21  7  1  0
 20 15  1  0
M  CHG  3   3  -1   6  -1  22  -1
M  END
>  <UniqueID>  (482) 
35

>  <SMILES>  (482) 
CC[N-]C(=O)[N-]c1cccc(S(=O)(=O)N2CCCCC2)c1[O-]

>  <Energy>  (482) 
49.460998927516954

>  <Genealogy>  (482) 
CC[N-]C(=O)[N-]c1cccc(S(=O)(=O)N2CCCCC2)c1[O-] (protonated)
CC[N-]C(=O)[N-]c1cccc(S(=O)(=O)N2CCCCC2)c1[O-] (3D coordinates assigned)
CC[N-]C(=O)[N-]c1cccc(S(=O)(=O)N2CCCCC2)c1[O-] (nonaromatic ring conformer: 49.460998927516954 kcal/mol)

>  <smiles>  (482) 
CCNC(=O)Nc1cccc(S(=O)(=O)N2CCCCC2)c1O

>  <score_type>  (482) 
oracle

>  <origin>  (482) 
adg

>  <m_score__min__energy>  (482) 
-15.630000000000001

>  <m_primary>  (482) 
energy

$$$$
43:0
     RDKit          3D

 25 27  0  0  0  0  0  0  0  0999 V2000
   59.1010   31.2970   46.5690 C   0  0  0  0  0  0  0  0  0  0  0  0
   59.6780   30.1200   47.0430 C   0  0  0  0  0  0  0  0  0  0  0  0
   59.2020   28.8760   46.6150 C   0  0  0  0  0  0  0  0  0  0  0  0
   59.8590   27.6110   47.1010 C   0  0  0  0  0  0  0  0  0  0  0  0
   58.8580   26.6830   47.6270 N   0  0  0  0  0  0  0  0  0  0  0  0
   58.0440   25.9780   46.9000 C   0  0  0  0  0  0  0  0  0  0  0  0
   58.5030   24.8590   46.2820 N   0  0  0  0  0  0  0  0  0  0  0  0
   57.6940   24.0950   45.5020 C   0  0  0  0  0  0  0  0  0  0  0  0
   56.3340   24.4440   45.3550 C   0  0  0  0  0  0  0  0  0  0  0  0
   55.8860   25.6120   45.9930 C   0  0  0  0  0  0  0  0  0  0  0  0
   54.6920   25.9960   45.8670 O   0  0  0  0  0  0  0  0  0  0  0  0
   56.7430   26.3430   46.7500 N   0  0  0  0  0  0  0  0  0  0  0  0
   55.4100   23.6590   44.4490 C   0  0  0  0  0  0  0  0  0  0  0  0
   55.9370   22.2540   44.1390 C   0  0  0  0  0  0  0  0  0  0  0  0
   57.4100   22.3110   43.7360 C   0  0  0  0  0  0  0  0  0  0  0  0
   58.2580   22.8350   44.8990 C   0  0  0  0  0  0  0  0  0  0  0  0
   58.1280   28.8230   45.7160 C   0  0  0  0  0  0  0  0  0  0  0  0
   57.5200   30.0010   45.2420 C   0  0  0  0  0  0  0  0  0  0  0  0
   56.3200   29.8720   44.3850 C   0  0  0  0  0  0  0  0  0  0  0  0
   56.3710   30.1960   43.1680 O   0  0  0  0  0  0  0  0  0  0  0  0
   55.1420   29.3340   44.8910 O   0  0  0  0  0  0  0  0  0  0  0  0
   58.0360   31.2600   45.6530 C   0  0  0  0  0  0  0  0  0  0  0  0
   57.5480   32.5430   45.0950 C   0  0  0  0  0  0  0  0  0  0  0  0
   56.6410   33.1870   45.6860 O   0  0  0  0  0  0  0  0  0  0  0  0
   58.1250   33.0840   43.9530 O   0  0  0  0  0  0  0  0  0  0  0  0
  1  2  2  0
  2  3  1  0
  3  4  1  0
  4  5  1  0
  5  6  2  0
  6  7  1  0
  7  8  1  0
  8  9  2  0
  9 10  1  0
 10 11  2  0
 10 12  1  0
  9 13  1  0
 13 14  1  0
 14 15  1  0
 15 16  1  0
  3 17  2  0
 17 18  1  0
 18 19  1  0
 19 20  2  0
 19 21  1  0
 18 22  2  0
 22 23  1  0
 23 24  2  0
 23 25  1  0
 22  1  1  0
 12  6  1  0
 16  8  1  0
M  CHG  4   7  -1  12  -1  21  -1  25  -1
M  END
>  <UniqueID>  (483) 
38

>  <SMILES>  (483) 
O=C([O-])c1ccc(C/N=c2/[n-]c3c(c(=O)[n-]2)CCCC3)cc1C(=O)[O-]

>  <Energy>  (483) 
48.59524175571539

>  <Genealogy>  (483) 
O=C([O-])c1ccc(CN=c2[n-]c3c(c(=O)[n-]2)CCCC3)cc1C(=O)[O-] (protonated)
O=C([O-])c1ccc(C/N=c2/[n-]c3c(c(=O)[n-]2)CCCC3)cc1C(=O)[O-] (cis-trans isomerization)
O=C([O-])c1ccc(C/N=c2/[n-]c3c(c(=O)[n-]2)CCCC3)cc1C(=O)[O-] (3D coordinates assigned)
O=C([O-])c1ccc(C/N=c2/[n-]c3c(c(=O)[n-]2)CCCC3)cc1C(=O)[O-] (nonaromatic ring conformer: 48.59524175571539 kcal/mol)

>  <smiles>  (483) 
O=C(O)c1ccc(CN=c2[nH]c3c(c(=O)[nH]2)CCCC3)cc1C(=O)O

>  <score_type>  (483) 
oracle

>  <origin>  (483) 
adg

>  <m_score__min__energy>  (483) 
-14.69

>  <m_primary>  (483) 
energy

$$$$
85:0
     RDKit          3D

 24 26  0  0  0  0  0  0  0  0999 V2000
   58.3640   27.6940   44.2480 O   0  0  0  0  0  0  0  0  0  0  0  0
   57.6950   28.0000   45.2710 C   0  0  0  0  0  0  0  0  0  0  0  0
   57.7340   27.1100   46.4700 C   0  0  0  0  0  0  0  0  0  0  0  0
   57.0450   25.8540   46.1790 N   0  0  0  0  0  0  0  0  0  0  0  0
   57.5950   24.6200   46.1390 C   0  0  0  0  0  0  0  0  0  0  0  0
   58.9480   24.3590   46.3260 O   0  0  0  0  0  0  0  0  0  0  0  0
   56.6220   23.6690   45.9060 C   0  0  0  0  0  0  0  0  0  0  0  0
   55.4220   24.3420   45.8490 C   0  0  0  0  0  0  0  0  0  0  0  0
   55.7170   25.6810   46.0060 C   0  0  0  0  0  0  0  0  0  0  0  0
   54.7860   26.7150   45.9980 O   0  0  0  0  0  0  0  0  0  0  0  0
   54.1030   23.6850   45.5760 C   0  0  0  0  0  0  0  0  0  0  0  0
   54.1910   22.1730   45.8640 C   0  0  0  0  0  0  0  0  0  0  0  0
   55.4730   21.5480   45.2710 C   0  0  0  0  0  0  0  0  0  0  0  0
   56.7470   22.1760   45.8710 C   0  0  0  0  0  0  0  0  0  0  0  0
   56.9910   29.2460   45.3460 N   0  0  0  0  0  0  0  0  0  0  0  0
   57.2700   30.4410   44.6010 C   0  0  0  0  0  0  0  0  0  0  0  0
   57.1280   30.5030   43.2030 C   0  0  0  0  0  0  0  0  0  0  0  0
   57.4000   31.6890   42.5210 C   0  0  0  0  0  0  0  0  0  0  0  0
   57.8000   32.8290   43.2240 C   0  0  0  0  0  0  0  0  0  0  0  0
   57.9210   32.7930   44.6240 C   0  0  0  0  0  0  0  0  0  0  0  0
   58.3300   34.0010   45.3760 C   0  0  0  0  0  0  0  0  0  0  0  0
   59.1170   34.8400   44.8630 O   0  0  0  0  0  0  0  0  0  0  0  0
   57.8470   34.2280   46.6610 O   0  0  0  0  0  0  0  0  0  0  0  0
   57.6470   31.5940   45.3030 C   0  0  0  0  0  0  0  0  0  0  0  0
  1  2  2  0
  2  3  1  0
  3  4  1  0
  4  5  1  0
  5  6  1  0
  5  7  2  0
  7  8  1  0
  8  9  2  0
  9 10  1  0
  8 11  1  0
 11 12  1  0
 12 13  1  0
 13 14  1  0
  2 15  1  0
 15 16  1  0
 16 17  2  0
 17 18  1  0
 18 19  2  0
 19 20  1  0
 20 21  1  0
 21 22  2  0
 21 23  1  0
 20 24  2  0
  9  4  1  0
 24 16  1  0
 14  7  1  0
M  CHG  4   6  -1  10  -1  15  -1  23  -1
M  END
>  <UniqueID>  (484) 
74

>  <SMILES>  (484) 
O=C(Cn1c([O-])c2c(c1[O-])CCCC2)[N-]c1cccc(C(=O)[O-])c1

>  <Energy>  (484) 
70.29956217578058

>  <Genealogy>  (484) 
O=C(Cn1c([O-])c2c(c1[O-])CCCC2)[N-]c1cccc(C(=O)[O-])c1 (protonated)
O=C(Cn1c([O-])c2c(c1[O-])CCCC2)[N-]c1cccc(C(=O)[O-])c1 (3D coordinates assigned)
O=C(Cn1c([O-])c2c(c1[O-])CCCC2)[N-]c1cccc(C(=O)[O-])c1 (nonaromatic ring conformer: 70.29956217578058 kcal/mol)

>  <smiles>  (484) 
O=C(Cn1c(O)c2c(c1O)CCCC2)Nc1cccc(C(=O)O)c1

>  <score_type>  (484) 
oracle

>  <origin>  (484) 
adg

>  <m_score__min__energy>  (484) 
-14.68

>  <m_primary>  (484) 
energy

$$$$
90:0
     RDKit          3D

 24 25  0  0  0  0  0  0  0  0999 V2000
   55.2920   29.5680   43.2730 O   0  0  0  0  0  0  0  0  0  0  0  0
   56.1660   29.8300   44.1420 C   0  0  0  0  0  0  0  0  0  0  0  0
   56.9420   31.1080   44.0470 C   0  0  0  0  0  0  0  0  0  0  0  0
   57.0730   31.7530   45.3560 N   0  0  0  0  0  0  0  0  0  0  0  0
   57.5000   33.1030   45.5420 C   0  0  0  0  0  0  0  0  0  0  0  0
   57.4040   33.9250   44.5910 O   0  0  0  0  0  0  0  0  0  0  0  0
   57.9960   33.5320   46.8140 N   0  0  0  0  0  0  0  0  0  0  0  0
   59.3770   33.7040   47.1500 C   0  0  0  0  0  0  0  0  0  0  0  0
   60.3080   33.8020   46.1080 C   0  0  0  0  0  0  0  0  0  0  0  0
   61.6820   33.8240   46.3770 C   0  0  0  0  0  0  0  0  0  0  0  0
   62.1380   33.7470   47.6950 C   0  0  0  0  0  0  0  0  0  0  0  0
   61.2210   33.6480   48.7440 C   0  0  0  0  0  0  0  0  0  0  0  0
   59.8460   33.6210   48.4800 C   0  0  0  0  0  0  0  0  0  0  0  0
   58.9930   33.4180   49.5100 F   0  0  0  0  0  0  0  0  0  0  0  0
   56.3730   28.9510   45.2540 N   0  0  0  0  0  0  0  0  0  0  0  0
   57.5860   28.2400   45.5610 C   0  0  0  0  0  0  0  0  0  0  0  0
   58.8310   28.9020   45.5240 C   0  0  0  0  0  0  0  0  0  0  0  0
   60.0060   28.2260   45.8550 C   0  0  0  0  0  0  0  0  0  0  0  0
   59.9580   26.8880   46.2400 C   0  0  0  0  0  0  0  0  0  0  0  0
   58.7310   26.2230   46.3110 C   0  0  0  0  0  0  0  0  0  0  0  0
   57.5310   26.8820   45.9760 C   0  0  0  0  0  0  0  0  0  0  0  0
   56.2500   26.1290   46.0780 C   0  0  0  0  0  0  0  0  0  0  0  0
   55.1370   26.7130   45.9800 O   0  0  0  0  0  0  0  0  0  0  0  0
   56.2610   24.7520   46.2710 O   0  0  0  0  0  0  0  0  0  0  0  0
  1  2  2  0
  2  3  1  0
  3  4  1  0
  4  5  1  0
  5  6  2  0
  5  7  1  0
  7  8  1  0
  8  9  2  0
  9 10  1  0
 10 11  2  0
 11 12  1  0
 12 13  2  0
 13 14  1  0
  2 15  1  0
 15 16  1  0
 16 17  2  0
 17 18  1  0
 18 19  2  0
 19 20  1  0
 20 21  2  0
 21 22  1  0
 22 23  2  0
 22 24  1  0
 13  8  1  0
 21 16  1  0
M  CHG  4   4  -1   7  -1  15  -1  24  -1
M  END
>  <UniqueID>  (485) 
79

>  <SMILES>  (485) 
O=C(C[N-]C(=O)[N-]c1ccccc1F)[N-]c1ccccc1C(=O)[O-]

>  <Energy>  (485) 
41.979339484836125

>  <Genealogy>  (485) 
O=C(C[N-]C(=O)[N-]c1ccccc1F)[N-]c1ccccc1C(=O)[O-] (protonated)
O=C(C[N-]C(=O)[N-]c1ccccc1F)[N-]c1ccccc1C(=O)[O-] (3D coordinates assigned)
O=C(C[N-]C(=O)[N-]c1ccccc1F)[N-]c1ccccc1C(=O)[O-] (optimized conformer: 41.979339484836125 kcal/mol)

>  <smiles>  (485) 
O=C(CNC(=O)Nc1ccccc1F)Nc1ccccc1C(=O)O

>  <score_type>  (485) 
oracle

>  <origin>  (485) 
adg

>  <m_score__min__energy>  (485) 
-14.76

>  <m_primary>  (485) 
energy

$$$$
2:0
     RDKit          3D

 23 25  0  0  0  0  0  0  0  0999 V2000
   55.2080   26.6380   45.9870 N   0  0  0  0  0  0  0  0  0  0  0  0
   56.9180   26.6610   45.7400 S   0  0  0  0  0  0  0  0  0  0  0  0
   57.2550   25.7700   44.5760 O   0  0  0  0  0  0  0  0  0  0  0  0
   57.6160   26.1470   46.9670 O   0  0  0  0  0  0  0  0  0  0  0  0
   57.4390   28.3150   45.4190 C   0  0  0  0  0  0  0  0  0  0  0  0
   58.7860   28.6750   45.5730 C   0  0  0  0  0  0  0  0  0  0  0  0
   59.2010   29.9840   45.3150 C   0  0  0  0  0  0  0  0  0  0  0  0
   58.2810   30.9500   44.8870 C   0  0  0  0  0  0  0  0  0  0  0  0
   58.7300   32.2940   44.6410 N   0  0  0  0  0  0  0  0  0  0  0  0
   58.9740   33.2600   45.6720 C   0  0  0  0  0  0  0  0  0  0  0  0
   59.9690   33.2970   46.5500 C   0  0  0  0  0  0  0  0  0  0  0  0
   61.0680   32.4450   46.6990 C   0  0  0  0  0  0  0  0  0  0  0  0
   61.9780   32.7060   47.7370 C   0  0  0  0  0  0  0  0  0  0  0  0
   63.3780   31.6710   47.9500 Cl  0  0  0  0  0  0  0  0  0  0  0  0
   61.7690   33.7920   48.6140 C   0  0  0  0  0  0  0  0  0  0  0  0
   60.6420   34.6190   48.4680 C   0  0  0  0  0  0  0  0  0  0  0  0
   59.7490   34.3490   47.4320 C   0  0  0  0  0  0  0  0  0  0  0  0
   58.6500   35.0020   47.2110 N   0  0  0  0  0  0  0  0  0  0  0  0
   58.0900   34.3310   46.0870 C   0  0  0  0  0  0  0  0  0  0  0  0
   56.9940   34.6380   45.5500 O   0  0  0  0  0  0  0  0  0  0  0  0
   56.9270   30.5960   44.7550 C   0  0  0  0  0  0  0  0  0  0  0  0
   56.5090   29.2860   45.0120 C   0  0  0  0  0  0  0  0  0  0  0  0
   55.1650   28.9590   44.8630 O   0  0  0  0  0  0  0  0  0  0  0  0
  1  2  1  0
  2  3  2  0
  2  4  2  0
  2  5  1  0
  5  6  2  0
  6  7  1  0
  7  8  2  0
  8  9  1  0
  9 10  1  0
 10 11  2  0
 11 12  1  0
 12 13  2  0
 13 14  1  0
 13 15  1  0
 15 16  2  0
 16 17  1  0
 17 18  2  0
 18 19  1  0
 19 20  2  0
  8 21  1  0
 21 22  2  0
 22 23  1  0
 22  5  1  0
 19 10  1  0
 17 11  1  0
M  CHG  2   1  -1  23  -1
M  END
>  <UniqueID>  (486) 
3

>  <SMILES>  (486) 
[NH-]S(=O)(=O)c1ccc(NC2=c3cc(Cl)ccc3=NC2=O)cc1[O-]

>  <Energy>  (486) 
73.61387343623879

>  <Genealogy>  (486) 
[NH-]S(=O)(=O)c1ccc(NC2=c3cc(Cl)ccc3=NC2=O)cc1[O-] (protonated)
[NH-]S(=O)(=O)c1ccc(NC2=c3cc(Cl)ccc3=NC2=O)cc1[O-] (3D coordinates assigned)
[NH-]S(=O)(=O)c1ccc(NC2=c3cc(Cl)ccc3=NC2=O)cc1[O-] (nonaromatic ring conformer: 73.61387343623879 kcal/mol)

>  <smiles>  (486) 
NS(=O)(=O)c1ccc(NC2=c3cc(Cl)ccc3=NC2=O)cc1O

>  <score_type>  (486) 
oracle

>  <origin>  (486) 
adg

>  <m_score__min__energy>  (486) 
-14.960000000000001

>  <m_primary>  (486) 
energy

$$$$
3:0
     RDKit          3D

 31 33  0  0  0  0  0  0  0  0999 V2000
   57.3990   32.2930   52.0040 C   0  0  0  0  0  0  0  0  0  0  0  0
   58.6560   32.2310   52.7420 N   0  0  0  0  0  0  0  0  0  0  0  0
   59.4920   33.7480   52.6070 S   0  0  0  0  0  0  0  0  0  0  0  0
   58.5050   34.8810   52.6790 O   0  0  0  0  0  0  0  0  0  0  0  0
   60.4570   33.8840   53.7510 O   0  0  0  0  0  0  0  0  0  0  0  0
   60.3880   33.8130   51.0900 C   0  0  0  0  0  0  0  0  0  0  0  0
   61.7860   33.8420   51.1150 C   0  0  0  0  0  0  0  0  0  0  0  0
   62.5090   33.8670   49.9200 C   0  0  0  0  0  0  0  0  0  0  0  0
   61.8390   33.8520   48.6940 C   0  0  0  0  0  0  0  0  0  0  0  0
   60.4330   33.8070   48.6500 C   0  0  0  0  0  0  0  0  0  0  0  0
   59.7140   33.7780   47.3530 C   0  0  0  0  0  0  0  0  0  0  0  0
   59.8990   34.7080   46.5200 O   0  0  0  0  0  0  0  0  0  0  0  0
   58.7690   32.7350   47.0600 N   0  0  0  0  0  0  0  0  0  0  0  0
   58.3150   32.4140   45.7340 C   0  0  0  0  0  0  0  0  0  0  0  0
   58.3930   33.3870   44.7260 C   0  0  0  0  0  0  0  0  0  0  0  0
   57.9370   33.1060   43.4360 C   0  0  0  0  0  0  0  0  0  0  0  0
   57.3960   31.8530   43.1390 C   0  0  0  0  0  0  0  0  0  0  0  0
   57.2920   30.8800   44.1410 C   0  0  0  0  0  0  0  0  0  0  0  0
   56.6040   29.2990   43.7810 S   0  0  0  0  0  0  0  0  0  0  0  0
   55.4370   29.4770   42.8530 O   0  0  0  0  0  0  0  0  0  0  0  0
   57.6220   28.4090   43.1230 O   0  0  0  0  0  0  0  0  0  0  0  0
   56.0560   28.5460   45.2450 N   0  0  0  0  0  0  0  0  0  0  0  0
   56.6540   27.3970   45.8620 C   0  0  0  0  0  0  0  0  0  0  0  0
   58.0280   27.3400   46.1580 C   0  0  0  0  0  0  0  0  0  0  0  0
   58.5680   26.2050   46.7740 C   0  0  0  0  0  0  0  0  0  0  0  0
   57.7500   25.1200   47.0890 C   0  0  0  0  0  0  0  0  0  0  0  0
   56.3840   25.1700   46.8040 C   0  0  0  0  0  0  0  0  0  0  0  0
   55.8370   26.3030   46.1930 C   0  0  0  0  0  0  0  0  0  0  0  0
   54.4750   26.3390   45.9150 O   0  0  0  0  0  0  0  0  0  0  0  0
   57.7420   31.1640   45.4380 C   0  0  0  0  0  0  0  0  0  0  0  0
   59.7150   33.7980   49.8600 C   0  0  0  0  0  0  0  0  0  0  0  0
  1  2  1  0
  2  3  1  0
  3  4  2  0
  3  5  2  0
  3  6  1  0
  6  7  2  0
  7  8  1  0
  8  9  2  0
  9 10  1  0
 10 11  1  0
 11 12  2  0
 11 13  1  0
 13 14  1  0
 14 15  2  0
 15 16  1  0
 16 17  2  0
 17 18  1  0
 18 19  1  0
 19 20  2  0
 19 21  2  0
 19 22  1  0
 22 23  1  0
 23 24  2  0
 24 25  1  0
 25 26  2  0
 26 27  1  0
 27 28  2  0
 28 29  1  0
 18 30  2  0
 10 31  2  0
 31  6  1  0
 30 14  1  0
 28 23  1  0
M  CHG  3   2  -1  22  -1  29  -1
M  END
>  <UniqueID>  (487) 
4

>  <SMILES>  (487) 
C[N-]S(=O)(=O)c1cccc(C(=O)Nc2cccc(S(=O)(=O)[N-]c3ccccc3[O-])c2)c1

>  <Energy>  (487) 
56.1145374394709

>  <Genealogy>  (487) 
C[N-]S(=O)(=O)c1cccc(C(=O)Nc2cccc(S(=O)(=O)[N-]c3ccccc3[O-])c2)c1 (protonated)
C[N-]S(=O)(=O)c1cccc(C(=O)Nc2cccc(S(=O)(=O)[N-]c3ccccc3[O-])c2)c1 (3D coordinates assigned)
C[N-]S(=O)(=O)c1cccc(C(=O)Nc2cccc(S(=O)(=O)[N-]c3ccccc3[O-])c2)c1 (optimized conformer: 56.1145374394709 kcal/mol)

>  <smiles>  (487) 
CNS(=O)(=O)c1cccc(C(=O)Nc2cccc(S(=O)(=O)Nc3ccccc3O)c2)c1

>  <score_type>  (487) 
oracle

>  <origin>  (487) 
adg

>  <m_score__min__energy>  (487) 
-16.260000000000002

>  <m_primary>  (487) 
energy

$$$$
15:0
     RDKit          3D

 26 28  0  0  0  0  0  0  0  0999 V2000
   57.1750   29.4520   52.0810 O   0  0  0  0  0  0  0  0  0  0  0  0
   56.9240   30.6010   51.6230 C   0  0  0  0  0  0  0  0  0  0  0  0
   55.5870   31.1220   51.7140 N   0  0  0  0  0  0  0  0  0  0  0  0
   54.5530   30.4800   52.5210 C   0  0  0  0  0  0  0  0  0  0  0  0
   53.1990   30.9310   52.0720 C   0  0  0  0  0  0  0  0  0  0  0  0
   52.0080   30.6460   52.7170 C   0  0  0  0  0  0  0  0  0  0  0  0
   51.0230   31.2910   52.0060 C   0  0  0  0  0  0  0  0  0  0  0  0
   51.6700   31.9360   50.9750 C   0  0  0  0  0  0  0  0  0  0  0  0
   51.0420   32.7150   50.0140 O   0  0  0  0  0  0  0  0  0  0  0  0
   53.0010   31.7300   51.0050 N   0  0  0  0  0  0  0  0  0  0  0  0
   58.0090   31.3820   50.9840 C   0  0  0  0  0  0  0  0  0  0  0  0
   59.2760   31.4860   51.5830 C   0  0  0  0  0  0  0  0  0  0  0  0
   60.2870   32.2290   50.9720 C   0  0  0  0  0  0  0  0  0  0  0  0
   60.0630   32.8640   49.7480 C   0  0  0  0  0  0  0  0  0  0  0  0
   61.3690   33.8310   49.0710 Cl  0  0  0  0  0  0  0  0  0  0  0  0
   58.8100   32.7360   49.1100 C   0  0  0  0  0  0  0  0  0  0  0  0
   58.4680   33.5180   47.5570 S   0  0  0  0  0  0  0  0  0  0  0  0
   58.9000   34.9570   47.5950 O   0  0  0  0  0  0  0  0  0  0  0  0
   56.9820   33.4530   47.3290 O   0  0  0  0  0  0  0  0  0  0  0  0
   59.3050   32.6860   46.2590 N   0  0  0  0  0  0  0  0  0  0  0  0
   58.8590   33.1550   44.9330 C   0  0  0  0  0  0  0  0  0  0  0  0
   57.4930   32.5570   44.5140 C   0  0  0  0  0  0  0  0  0  0  0  0
   57.0870   31.4660   45.3190 O   0  0  0  0  0  0  0  0  0  0  0  0
   58.1650   30.5760   45.4970 C   0  0  0  0  0  0  0  0  0  0  0  0
   59.2400   31.2140   46.3940 C   0  0  0  0  0  0  0  0  0  0  0  0
   57.7890   32.0120   49.7480 C   0  0  0  0  0  0  0  0  0  0  0  0
  1  2  2  0
  2  3  1  0
  3  4  1  0
  4  5  1  0
  5  6  2  0
  6  7  1  0
  7  8  2  0
  8  9  1  0
  8 10  1  0
  2 11  1  0
 11 12  2  0
 12 13  1  0
 13 14  2  0
 14 15  1  0
 14 16  1  0
 16 17  1  0
 17 18  2  0
 17 19  2  0
 17 20  1  0
 20 21  1  0
 21 22  1  0
 22 23  1  0
 23 24  1  0
 24 25  1  0
 16 26  2  0
 10  5  1  0
 26 11  1  0
 25 20  1  0
M  CHG  2   9  -1  10  -1
M  END
>  <UniqueID>  (488) 
15

>  <SMILES>  (488) 
O=C(NCc1ccc([O-])[n-]1)c1ccc(Cl)c(S(=O)(=O)N2CCOCC2)c1

>  <Energy>  (488) 
81.53820031471273

>  <Genealogy>  (488) 
O=C(NCc1ccc([O-])[n-]1)c1ccc(Cl)c(S(=O)(=O)N2CCOCC2)c1 (protonated)
O=C(NCc1ccc([O-])[n-]1)c1ccc(Cl)c(S(=O)(=O)N2CCOCC2)c1 (3D coordinates assigned)
O=C(NCc1ccc([O-])[n-]1)c1ccc(Cl)c(S(=O)(=O)N2CCOCC2)c1 (nonaromatic ring conformer: 81.53820031471273 kcal/mol)

>  <smiles>  (488) 
O=C(NCc1ccc(O)[nH]1)c1ccc(Cl)c(S(=O)(=O)N2CCOCC2)c1

>  <score_type>  (488) 
oracle

>  <origin>  (488) 
adg

>  <m_score__min__energy>  (488) 
-14.58

>  <m_primary>  (488) 
energy

$$$$
24:0
     RDKit          3D

 33 35  0  0  0  0  0  0  0  0999 V2000
   59.2260   29.1740   44.1650 C   0  0  0  0  0  0  0  0  0  0  0  0
   58.0100   29.6990   44.3500 C   0  0  0  0  0  0  0  0  0  0  0  0
   57.4030   30.5550   43.2670 C   0  0  0  0  0  0  0  0  0  0  0  0
   57.5500   31.9760   43.5820 N   0  0  0  0  0  0  0  0  0  0  0  0
   57.4470   32.5740   44.8810 C   0  0  0  0  0  0  0  0  0  0  0  0
   56.3040   32.8770   45.3120 O   0  0  0  0  0  0  0  0  0  0  0  0
   58.6180   32.8290   45.7430 C   0  0  0  0  0  0  0  0  0  0  0  0
   58.9200   34.1130   46.2120 C   0  0  0  0  0  0  0  0  0  0  0  0
   60.0410   34.3060   47.0200 C   0  0  0  0  0  0  0  0  0  0  0  0
   60.8970   33.2320   47.3210 C   0  0  0  0  0  0  0  0  0  0  0  0
   62.0590   33.4140   48.1670 N   0  0  0  0  0  0  0  0  0  0  0  0
   63.3920   33.6150   47.5810 C   0  0  0  0  0  0  0  0  0  0  0  0
   64.4610   33.0450   48.5160 C   0  0  0  0  0  0  0  0  0  0  0  0
   64.4320   33.6930   49.8430 N   0  0  0  0  0  0  0  0  0  0  0  0
   65.2440   32.6970   51.0280 S   0  0  0  0  0  0  0  0  0  0  0  0
   64.9670   33.2840   52.6890 C   0  0  0  0  0  0  0  0  0  0  0  0
   66.7200   32.7050   50.7490 O   0  0  0  0  0  0  0  0  0  0  0  0
   64.7420   31.2840   50.9240 O   0  0  0  0  0  0  0  0  0  0  0  0
   63.0890   34.1120   50.3100 C   0  0  0  0  0  0  0  0  0  0  0  0
   61.9370   33.3540   49.6320 C   0  0  0  0  0  0  0  0  0  0  0  0
   60.5900   31.9730   46.7700 C   0  0  0  0  0  0  0  0  0  0  0  0
   59.4740   31.8060   46.0130 N   0  0  0  0  0  0  0  0  0  0  0  0
   57.2470   29.4040   45.5810 C   0  0  0  0  0  0  0  0  0  0  0  0
   57.4130   30.1070   46.6160 O   0  0  0  0  0  0  0  0  0  0  0  0
   56.2970   28.3360   45.5940 N   0  0  0  0  0  0  0  0  0  0  0  0
   56.6370   26.9640   45.8240 C   0  0  0  0  0  0  0  0  0  0  0  0
   57.9850   26.6030   45.9080 C   0  0  0  0  0  0  0  0  0  0  0  0
   58.3490   25.2770   46.1540 C   0  0  0  0  0  0  0  0  0  0  0  0
   57.3650   24.3040   46.3270 C   0  0  0  0  0  0  0  0  0  0  0  0
   56.0130   24.6550   46.2600 C   0  0  0  0  0  0  0  0  0  0  0  0
   54.7890   23.4210   46.5020 Cl  0  0  0  0  0  0  0  0  0  0  0  0
   55.6440   25.9870   46.0170 C   0  0  0  0  0  0  0  0  0  0  0  0
   54.2980   26.3400   45.9920 O   0  0  0  0  0  0  0  0  0  0  0  0
  1  2  2  0
  2  3  1  0
  3  4  1  0
  4  5  1  0
  5  6  2  0
  5  7  1  0
  7  8  2  0
  8  9  1  0
  9 10  2  0
 10 11  1  0
 11 12  1  0
 12 13  1  0
 13 14  1  0
 14 15  1  0
 15 16  1  0
 15 17  2  0
 15 18  2  0
 14 19  1  0
 19 20  1  0
 10 21  1  0
 21 22  2  0
  2 23  1  0
 23 24  2  0
 23 25  1  0
 25 26  1  0
 26 27  2  0
 27 28  1  0
 28 29  2  0
 29 30  1  0
 30 31  1  0
 30 32  2  0
 32 33  1  0
 22  7  1  0
 32 26  1  0
 20 11  1  0
M  CHG  3   4  -1  25  -1  33  -1
M  END
>  <UniqueID>  (489) 
21

>  <SMILES>  (489) 
C=C(C[N-]C(=O)c1ccc(N2CCN(S(C)(=O)=O)CC2)cn1)C(=O)[N-]c1cccc(Cl)c1[O-]

>  <Energy>  (489) 
66.1359083248249

>  <Genealogy>  (489) 
C=C(C[N-]C(=O)c1ccc(N2CCN(S(C)(=O)=O)CC2)cn1)C(=O)[N-]c1cccc(Cl)c1[O-] (protonated)
C=C(C[N-]C(=O)c1ccc(N2CCN(S(C)(=O)=O)CC2)cn1)C(=O)[N-]c1cccc(Cl)c1[O-] (3D coordinates assigned)
C=C(C[N-]C(=O)c1ccc(N2CCN(S(C)(=O)=O)CC2)cn1)C(=O)[N-]c1cccc(Cl)c1[O-] (nonaromatic ring conformer: 66.1359083248249 kcal/mol)

>  <smiles>  (489) 
C=C(CNC(=O)c1ccc(N2CCN(S(C)(=O)=O)CC2)cn1)C(=O)Nc1cccc(Cl)c1O

>  <score_type>  (489) 
oracle

>  <origin>  (489) 
adg

>  <m_score__min__energy>  (489) 
-16.010000000000002

>  <m_primary>  (489) 
energy

$$$$
34:0
     RDKit          3D

 29 31  0  0  0  0  0  0  0  0999 V2000
   59.6650   22.2150   44.5230 C   0  0  0  0  0  0  0  0  0  0  0  0
   58.4090   21.5410   43.9880 C   0  0  0  0  0  0  0  0  0  0  0  0
   57.7450   20.8300   45.0300 O   0  0  0  0  0  0  0  0  0  0  0  0
   57.2600   21.4350   46.1960 C   0  0  0  0  0  0  0  0  0  0  0  0
   57.4660   20.9030   47.3210 O   0  0  0  0  0  0  0  0  0  0  0  0
   56.5190   22.7110   46.1030 C   0  0  0  0  0  0  0  0  0  0  0  0
   55.2090   22.7510   45.6010 C   0  0  0  0  0  0  0  0  0  0  0  0
   54.5060   23.9580   45.5630 C   0  0  0  0  0  0  0  0  0  0  0  0
   55.1100   25.1410   46.0020 C   0  0  0  0  0  0  0  0  0  0  0  0
   54.3970   26.3330   45.9600 O   0  0  0  0  0  0  0  0  0  0  0  0
   56.4320   25.1240   46.4680 C   0  0  0  0  0  0  0  0  0  0  0  0
   57.0390   26.3480   46.9000 N   0  0  0  0  0  0  0  0  0  0  0  0
   58.6140   26.8830   46.4030 S   0  0  0  0  0  0  0  0  0  0  0  0
   59.6320   26.3680   47.3810 O   0  0  0  0  0  0  0  0  0  0  0  0
   58.9210   26.3030   45.0510 O   0  0  0  0  0  0  0  0  0  0  0  0
   58.7040   28.6390   46.2920 C   0  0  0  0  0  0  0  0  0  0  0  0
   59.7560   29.3360   46.9030 C   0  0  0  0  0  0  0  0  0  0  0  0
   59.7810   30.7300   46.8800 C   0  0  0  0  0  0  0  0  0  0  0  0
   58.7570   31.4510   46.2450 C   0  0  0  0  0  0  0  0  0  0  0  0
   58.7870   32.8900   46.2620 N   0  0  0  0  0  0  0  0  0  0  0  0
   59.0530   33.6270   47.4990 C   0  0  0  0  0  0  0  0  0  0  0  0
   59.9210   34.8490   47.1800 C   0  0  0  0  0  0  0  0  0  0  0  0
   59.3380   35.6240   46.1480 O   0  0  0  0  0  0  0  0  0  0  0  0
   59.3090   34.8800   44.9430 C   0  0  0  0  0  0  0  0  0  0  0  0
   58.3940   33.6590   45.0790 C   0  0  0  0  0  0  0  0  0  0  0  0
   57.7090   30.7490   45.6190 C   0  0  0  0  0  0  0  0  0  0  0  0
   56.6940   31.4320   44.9560 O   0  0  0  0  0  0  0  0  0  0  0  0
   57.6850   29.3510   45.6480 C   0  0  0  0  0  0  0  0  0  0  0  0
   57.1220   23.9040   46.5350 C   0  0  0  0  0  0  0  0  0  0  0  0
  1  2  1  0
  2  3  1  0
  3  4  1  0
  4  5  2  0
  4  6  1  0
  6  7  2  0
  7  8  1  0
  8  9  2  0
  9 10  1  0
  9 11  1  0
 11 12  1  0
 12 13  1  0
 13 14  2  0
 13 15  2  0
 13 16  1  0
 16 17  2  0
 17 18  1  0
 18 19  2  0
 19 20  1  0
 20 21  1  0
 21 22  1  0
 22 23  1  0
 23 24  1  0
 24 25  1  0
 19 26  1  0
 26 27  1  0
 26 28  2  0
 11 29  2  0
 29  6  1  0
 28 16  1  0
 25 20  1  0
M  CHG  3  10  -1  12  -1  27  -1
M  END
>  <UniqueID>  (490) 
29

>  <SMILES>  (490) 
CCOC(=O)c1ccc([O-])c([N-]S(=O)(=O)c2ccc(N3CCOCC3)c([O-])c2)c1

>  <Energy>  (490) 
57.487190676297914

>  <Genealogy>  (490) 
CCOC(=O)c1ccc([O-])c([N-]S(=O)(=O)c2ccc(N3CCOCC3)c([O-])c2)c1 (protonated)
CCOC(=O)c1ccc([O-])c([N-]S(=O)(=O)c2ccc(N3CCOCC3)c([O-])c2)c1 (3D coordinates assigned)
CCOC(=O)c1ccc([O-])c([N-]S(=O)(=O)c2ccc(N3CCOCC3)c([O-])c2)c1 (nonaromatic ring conformer: 57.487190676297914 kcal/mol)

>  <smiles>  (490) 
CCOC(=O)c1ccc(O)c(NS(=O)(=O)c2ccc(N3CCOCC3)c(O)c2)c1

>  <score_type>  (490) 
oracle

>  <origin>  (490) 
adg

>  <m_score__min__energy>  (490) 
-14.77

>  <m_primary>  (490) 
energy

$$$$
40:0
     RDKit          3D

 30 33  0  0  0  0  0  0  0  0999 V2000
   55.5350   29.0600   45.0210 O   0  0  0  0  0  0  0  0  0  0  0  0
   56.7660   29.1370   45.2780 C   0  0  0  0  0  0  0  0  0  0  0  0
   57.3740   28.2070   46.2790 C   0  0  0  0  0  0  0  0  0  0  0  0
   57.1970   26.8210   45.8480 N   0  0  0  0  0  0  0  0  0  0  0  0
   58.1720   25.9310   45.5570 C   0  0  0  0  0  0  0  0  0  0  0  0
   59.5310   26.2250   45.5710 O   0  0  0  0  0  0  0  0  0  0  0  0
   57.6230   24.7010   45.2560 C   0  0  0  0  0  0  0  0  0  0  0  0
   56.2640   24.8370   45.3790 C   0  0  0  0  0  0  0  0  0  0  0  0
   56.0310   26.1470   45.7490 C   0  0  0  0  0  0  0  0  0  0  0  0
   54.7820   26.7050   45.9960 O   0  0  0  0  0  0  0  0  0  0  0  0
   55.2850   23.7320   45.1420 C   0  0  0  0  0  0  0  0  0  0  0  0
   55.9820   22.4250   44.8190 C   0  0  0  0  0  0  0  0  0  0  0  0
   57.3220   22.2910   44.6960 C   0  0  0  0  0  0  0  0  0  0  0  0
   58.3090   23.4290   44.8700 C   0  0  0  0  0  0  0  0  0  0  0  0
   57.5810   30.1480   44.6730 N   0  0  0  0  0  0  0  0  0  0  0  0
   57.9090   31.4260   45.2350 C   0  0  0  0  0  0  0  0  0  0  0  0
   57.3110   32.5710   44.6950 C   0  0  0  0  0  0  0  0  0  0  0  0
   57.5970   33.8340   45.2220 C   0  0  0  0  0  0  0  0  0  0  0  0
   58.4670   33.9600   46.3080 C   0  0  0  0  0  0  0  0  0  0  0  0
   59.0500   32.8190   46.8770 C   0  0  0  0  0  0  0  0  0  0  0  0
   60.1230   32.9560   48.2680 S   0  0  0  0  0  0  0  0  0  0  0  0
   59.3400   33.3630   49.4850 O   0  0  0  0  0  0  0  0  0  0  0  0
   60.7350   31.6070   48.5190 O   0  0  0  0  0  0  0  0  0  0  0  0
   61.3920   34.1210   47.9450 N   0  0  0  0  0  0  0  0  0  0  0  0
   62.3480   34.2190   49.0620 C   0  0  0  0  0  0  0  0  0  0  0  0
   63.3020   33.0010   49.1300 C   0  0  0  0  0  0  0  0  0  0  0  0
   63.3650   32.2590   47.9230 O   0  0  0  0  0  0  0  0  0  0  0  0
   63.4100   33.1310   46.8170 C   0  0  0  0  0  0  0  0  0  0  0  0
   62.0630   33.8580   46.6510 C   0  0  0  0  0  0  0  0  0  0  0  0
   58.7650   31.5540   46.3450 C   0  0  0  0  0  0  0  0  0  0  0  0
  1  2  2  0
  2  3  1  0
  3  4  1  0
  4  5  1  0
  5  6  1  0
  5  7  2  0
  7  8  1  0
  8  9  2  0
  9 10  1  0
  8 11  1  0
 11 12  1  0
 12 13  2  0
 13 14  1  0
  2 15  1  0
 15 16  1  0
 16 17  2  0
 17 18  1  0
 18 19  2  0
 19 20  1  0
 20 21  1  0
 21 22  2  0
 21 23  2  0
 21 24  1  0
 24 25  1  0
 25 26  1  0
 26 27  1  0
 27 28  1  0
 28 29  1  0
 20 30  2  0
  9  4  1  0
 30 16  1  0
 14  7  1  0
 29 24  1  0
M  CHG  3   6  -1  10  -1  15  -1
M  END
>  <UniqueID>  (491) 
35

>  <SMILES>  (491) 
O=C(Cn1c([O-])c2c(c1[O-])CC=CC2)[N-]c1cccc(S(=O)(=O)N2CCOCC2)c1

>  <Energy>  (491) 
97.57795556028452

>  <Genealogy>  (491) 
O=C(Cn1c([O-])c2c(c1[O-])CC=CC2)[N-]c1cccc(S(=O)(=O)N2CCOCC2)c1 (protonated)
O=C(Cn1c([O-])c2c(c1[O-])CC=CC2)[N-]c1cccc(S(=O)(=O)N2CCOCC2)c1 (3D coordinates assigned)
O=C(Cn1c([O-])c2c(c1[O-])CC=CC2)[N-]c1cccc(S(=O)(=O)N2CCOCC2)c1 (nonaromatic ring conformer: 97.57795556028452 kcal/mol)

>  <smiles>  (491) 
O=C(Cn1c(O)c2c(c1O)CC=CC2)Nc1cccc(S(=O)(=O)N2CCOCC2)c1

>  <score_type>  (491) 
oracle

>  <origin>  (491) 
adg

>  <m_score__min__energy>  (491) 
-15.32

>  <m_primary>  (491) 
energy

$$$$
65:0
     RDKit          3D

 27 29  0  0  0  0  0  0  0  0999 V2000
   58.6560   30.1050   47.5190 O   0  0  0  0  0  0  0  0  0  0  0  0
   58.9120   31.0220   48.3430 C   0  0  0  0  0  0  0  0  0  0  0  0
   59.0830   30.6760   49.7240 N   0  0  0  0  0  0  0  0  0  0  0  0
   58.2440   31.0530   50.8260 C   0  0  0  0  0  0  0  0  0  0  0  0
   58.1450   32.3860   51.2630 C   0  0  0  0  0  0  0  0  0  0  0  0
   57.3350   32.7100   52.3540 C   0  0  0  0  0  0  0  0  0  0  0  0
   56.6480   31.7050   53.0400 C   0  0  0  0  0  0  0  0  0  0  0  0
   56.7740   30.3680   52.6420 C   0  0  0  0  0  0  0  0  0  0  0  0
   55.9810   29.0850   53.5520 S   0  0  0  0  0  0  0  0  0  0  0  0
   55.8990   29.4520   55.0080 O   0  0  0  0  0  0  0  0  0  0  0  0
   56.7970   27.8300   53.4180 O   0  0  0  0  0  0  0  0  0  0  0  0
   54.3800   28.7830   52.9390 N   0  0  0  0  0  0  0  0  0  0  0  0
   53.4050   29.7150   53.5070 C   0  0  0  0  0  0  0  0  0  0  0  0
   52.6650   30.4400   52.4170 C   0  0  0  0  0  0  0  0  0  0  0  0
   52.6690   29.9510   51.1010 C   0  0  0  0  0  0  0  0  0  0  0  0
   51.9940   30.6440   50.0910 C   0  0  0  0  0  0  0  0  0  0  0  0
   51.3100   31.8270   50.3860 C   0  0  0  0  0  0  0  0  0  0  0  0
   50.6500   32.5170   49.3750 O   0  0  0  0  0  0  0  0  0  0  0  0
   51.2960   32.3170   51.6970 C   0  0  0  0  0  0  0  0  0  0  0  0
   50.6120   33.4890   51.9970 O   0  0  0  0  0  0  0  0  0  0  0  0
   51.9750   31.6300   52.7080 C   0  0  0  0  0  0  0  0  0  0  0  0
   57.5810   30.0470   51.5410 C   0  0  0  0  0  0  0  0  0  0  0  0
   58.9480   32.4190   47.8720 C   0  0  0  0  0  0  0  0  0  0  0  0
   58.1930   32.9420   46.8390 C   0  0  0  0  0  0  0  0  0  0  0  0
   58.5410   34.2720   46.7580 C   0  0  0  0  0  0  0  0  0  0  0  0
   59.4820   34.4820   47.7430 C   0  0  0  0  0  0  0  0  0  0  0  0
   59.7010   33.3610   48.3920 O   0  0  0  0  0  0  0  0  0  0  0  0
  1  2  2  0
  2  3  1  0
  3  4  1  0
  4  5  2  0
  5  6  1  0
  6  7  2  0
  7  8  1  0
  8  9  1  0
  9 10  2  0
  9 11  2  0
  9 12  1  0
 12 13  1  0
 13 14  1  0
 14 15  2  0
 15 16  1  0
 16 17  2  0
 17 18  1  0
 17 19  1  0
 19 20  1  0
 19 21  2  0
  8 22  2  0
  2 23  1  0
 23 24  2  0
 24 25  1  0
 25 26  2  0
 26 27  1  0
 22  4  1  0
 27 23  1  0
 21 14  1  0
M  CHG  4   3  -1  12  -1  18  -1  20  -1
M  END
>  <UniqueID>  (492) 
60

>  <SMILES>  (492) 
O=C([N-]c1cccc(S(=O)(=O)[N-]Cc2ccc([O-])c([O-])c2)c1)c1ccco1

>  <Energy>  (492) 
67.07489334962278

>  <Genealogy>  (492) 
O=C([N-]c1cccc(S(=O)(=O)[N-]Cc2ccc([O-])c([O-])c2)c1)c1ccco1 (protonated)
O=C([N-]c1cccc(S(=O)(=O)[N-]Cc2ccc([O-])c([O-])c2)c1)c1ccco1 (3D coordinates assigned)
O=C([N-]c1cccc(S(=O)(=O)[N-]Cc2ccc([O-])c([O-])c2)c1)c1ccco1 (optimized conformer: 67.07489334962278 kcal/mol)

>  <smiles>  (492) 
O=C(Nc1cccc(S(=O)(=O)NCc2ccc(O)c(O)c2)c1)c1ccco1

>  <score_type>  (492) 
oracle

>  <origin>  (492) 
adg

>  <m_score__min__energy>  (492) 
-18.239999999999998

>  <m_primary>  (492) 
energy

$$$$
81:0
     RDKit          3D

 22 23  0  0  0  0  0  0  0  0999 V2000
   57.8990   27.4690   43.7640 O   0  0  0  0  0  0  0  0  0  0  0  0
   57.3880   27.5560   44.9110 C   0  0  0  0  0  0  0  0  0  0  0  0
   56.9360   28.8340   45.3730 N   0  0  0  0  0  0  0  0  0  0  0  0
   56.6100   30.2060   44.3600 S   0  0  0  0  0  0  0  0  0  0  0  0
   55.1450   30.5290   44.4290 O   0  0  0  0  0  0  0  0  0  0  0  0
   56.9640   29.8730   42.9370 O   0  0  0  0  0  0  0  0  0  0  0  0
   57.5140   31.6130   44.9120 C   0  0  0  0  0  0  0  0  0  0  0  0
   58.0840   31.6430   46.1940 C   0  0  0  0  0  0  0  0  0  0  0  0
   58.7530   32.7870   46.6380 C   0  0  0  0  0  0  0  0  0  0  0  0
   58.8590   33.9060   45.8050 C   0  0  0  0  0  0  0  0  0  0  0  0
   59.6860   35.3450   46.3700 Cl  0  0  0  0  0  0  0  0  0  0  0  0
   58.3000   33.8770   44.5240 C   0  0  0  0  0  0  0  0  0  0  0  0
   57.6300   32.7340   44.0770 C   0  0  0  0  0  0  0  0  0  0  0  0
   57.2550   26.3350   45.7280 C   0  0  0  0  0  0  0  0  0  0  0  0
   56.0080   25.9270   46.2240 C   0  0  0  0  0  0  0  0  0  0  0  0
   54.8710   26.6960   45.9950 O   0  0  0  0  0  0  0  0  0  0  0  0
   55.9050   24.7800   46.9470 N   0  0  0  0  0  0  0  0  0  0  0  0
   57.0040   24.0250   47.2190 C   0  0  0  0  0  0  0  0  0  0  0  0
   56.8930   22.9630   47.8870 O   0  0  0  0  0  0  0  0  0  0  0  0
   58.2240   24.4160   46.7740 N   0  0  0  0  0  0  0  0  0  0  0  0
   58.3760   25.5500   46.0430 C   0  0  0  0  0  0  0  0  0  0  0  0
   59.5250   25.8790   45.6420 O   0  0  0  0  0  0  0  0  0  0  0  0
  1  2  2  0
  2  3  1  0
  3  4  1  0
  4  5  2  0
  4  6  2  0
  4  7  1  0
  7  8  2  0
  8  9  1  0
  9 10  2  0
 10 11  1  0
 10 12  1  0
 12 13  2  0
  2 14  1  0
 14 15  2  0
 15 16  1  0
 15 17  1  0
 17 18  1  0
 18 19  2  0
 18 20  1  0
 20 21  1  0
 21 22  2  0
 13  7  1  0
 21 14  1  0
M  CHG  3   3  -1  16  -1  20  -1
M  END
>  <UniqueID>  (493) 
75

>  <SMILES>  (493) 
O=C([N-]S(=O)(=O)c1ccc(Cl)cc1)c1c([O-])[nH]c(=O)[n-]c1=O

>  <Energy>  (493) 
36.39094310969337

>  <Genealogy>  (493) 
O=C([N-]S(=O)(=O)c1ccc(Cl)cc1)c1c([O-])[nH]c(=O)[n-]c1=O (protonated)
O=C([N-]S(=O)(=O)c1ccc(Cl)cc1)c1c([O-])[nH]c(=O)[n-]c1=O (3D coordinates assigned)
O=C([N-]S(=O)(=O)c1ccc(Cl)cc1)c1c([O-])[nH]c(=O)[n-]c1=O (optimized conformer: 36.39094310969337 kcal/mol)

>  <smiles>  (493) 
O=C(NS(=O)(=O)c1ccc(Cl)cc1)c1c(O)[nH]c(=O)[nH]c1=O

>  <score_type>  (493) 
oracle

>  <origin>  (493) 
adg

>  <m_score__min__energy>  (493) 
-15.050000000000001

>  <m_primary>  (493) 
energy

$$$$
14:0
     RDKit          3D

 30 33  0  0  0  0  0  0  0  0999 V2000
   55.1750   26.7520   45.7940 O   0  0  0  0  0  0  0  0  0  0  0  0
   56.0600   25.8270   46.3400 C   0  0  0  0  0  0  0  0  0  0  0  0
   55.6910   24.8240   47.1530 N   0  0  0  0  0  0  0  0  0  0  0  0
   56.8620   24.1930   47.3930 C   0  0  0  0  0  0  0  0  0  0  0  0
   56.9440   23.1720   48.1240 O   0  0  0  0  0  0  0  0  0  0  0  0
   57.9340   24.7360   46.7770 N   0  0  0  0  0  0  0  0  0  0  0  0
   57.4160   25.7960   46.1290 C   0  0  0  0  0  0  0  0  0  0  0  0
   58.1620   26.6540   45.1930 C   0  0  0  0  0  0  0  0  0  0  0  0
   57.9340   27.9650   44.9790 C   0  0  0  0  0  0  0  0  0  0  0  0
   57.3870   28.4480   43.8020 C   0  0  0  0  0  0  0  0  0  0  0  0
   57.3860   29.8240   43.8970 C   0  0  0  0  0  0  0  0  0  0  0  0
   56.8930   30.7490   42.8250 C   0  0  0  0  0  0  0  0  0  0  0  0
   57.8630   30.2140   45.1000 N   0  0  0  0  0  0  0  0  0  0  0  0
   57.9700   31.5720   45.5610 C   0  0  0  0  0  0  0  0  0  0  0  0
   56.9680   32.5010   45.2510 C   0  0  0  0  0  0  0  0  0  0  0  0
   57.0670   33.8190   45.7030 C   0  0  0  0  0  0  0  0  0  0  0  0
   58.1630   34.2170   46.4730 C   0  0  0  0  0  0  0  0  0  0  0  0
   59.1700   33.2940   46.8040 C   0  0  0  0  0  0  0  0  0  0  0  0
   60.3420   33.7090   47.6110 C   0  0  0  0  0  0  0  0  0  0  0  0
   61.0890   34.6290   47.1840 O   0  0  0  0  0  0  0  0  0  0  0  0
   60.6260   33.1370   48.8980 N   0  0  0  0  0  0  0  0  0  0  0  0
   59.7460   32.7140   49.7580 C   0  0  0  0  0  0  0  0  0  0  0  0
   59.4550   33.4300   50.8820 N   0  0  0  0  0  0  0  0  0  0  0  0
   58.5270   33.0110   51.7840 C   0  0  0  0  0  0  0  0  0  0  0  0
   57.8330   31.8190   51.5690 C   0  0  0  0  0  0  0  0  0  0  0  0
   58.1020   31.0710   50.4210 C   0  0  0  0  0  0  0  0  0  0  0  0
   59.0590   31.5190   49.5070 C   0  0  0  0  0  0  0  0  0  0  0  0
   59.0730   31.9750   46.3310 C   0  0  0  0  0  0  0  0  0  0  0  0
   58.1750   29.0860   45.7900 C   0  0  0  0  0  0  0  0  0  0  0  0
   58.4890   29.0880   47.0950 C   0  0  0  0  0  0  0  0  0  0  0  0
  1  2  1  0
  2  3  1  0
  3  4  1  0
  4  5  2  0
  4  6  1  0
  6  7  1  0
  7  8  1  0
  8  9  2  3
  9 10  1  0
 10 11  2  0
 11 12  1  0
 11 13  1  0
 13 14  1  0
 14 15  2  0
 15 16  1  0
 16 17  2  0
 17 18  1  0
 18 19  1  0
 19 20  2  0
 19 21  1  0
 21 22  2  0
 22 23  1  0
 23 24  1  0
 24 25  2  0
 25 26  1  0
 26 27  2  0
 18 28  2  0
 13 29  1  0
 29 30  2  0
  7  2  2  0
 29  9  1  0
 28 14  1  0
 27 22  1  0
M  CHG  3   3  -1   6  -1  23  -1
M  END
>  <UniqueID>  (494) 
14

>  <SMILES>  (494) 
C=c1c(=Cc2[n-]c(=O)[n-]c2O)cc(C)n1-c1cccc(C(=O)/N=c2/cccc[n-]2)c1

>  <Energy>  (494) 
132.67922331112229

>  <Genealogy>  (494) 
C=c1c(=Cc2[n-]c(=O)[n-]c2O)cc(C)n1-c1cccc(C(=O)N=c2cccc[n-]2)c1 (protonated)
C=c1c(=Cc2[n-]c(=O)[n-]c2O)cc(C)n1-c1cccc(C(=O)/N=c2/cccc[n-]2)c1 (cis-trans isomerization)
C=c1c(=Cc2[n-]c(=O)[n-]c2O)cc(C)n1-c1cccc(C(=O)/N=c2/cccc[n-]2)c1 (3D coordinates assigned)
C=c1c(=Cc2[n-]c(=O)[n-]c2O)cc(C)n1-c1cccc(C(=O)/N=c2/cccc[n-]2)c1 (optimized conformer: 132.67922331112229 kcal/mol)

>  <smiles>  (494) 
C=c1c(=Cc2[nH]c(=O)[nH]c2O)cc(C)n1-c1cccc(C(=O)N=c2cccc[nH]2)c1

>  <score_type>  (494) 
oracle

>  <origin>  (494) 
adg

>  <m_score__min__energy>  (494) 
-15.029999999999999

>  <m_primary>  (494) 
energy

$$$$
22:0
     RDKit          3D

 34 36  0  0  0  0  0  0  0  0999 V2000
   56.2960   22.0110   42.3890 C   0  0  0  0  0  0  0  0  0  0  0  0
   56.7210   21.2660   43.4130 C   0  0  0  0  0  0  0  0  0  0  0  0
   56.1110   21.3800   44.7840 C   0  0  0  0  0  0  0  0  0  0  0  0
   55.7990   22.7880   45.1000 N   0  0  0  0  0  0  0  0  0  0  0  0
   54.5380   23.1280   45.5220 C   0  0  0  0  0  0  0  0  0  0  0  0
   53.6380   22.2510   45.6370 O   0  0  0  0  0  0  0  0  0  0  0  0
   54.2370   24.4170   45.8190 N   0  0  0  0  0  0  0  0  0  0  0  0
   55.1630   25.4010   45.7280 C   0  0  0  0  0  0  0  0  0  0  0  0
   54.7920   26.7120   46.0060 O   0  0  0  0  0  0  0  0  0  0  0  0
   56.4710   25.0910   45.3400 C   0  0  0  0  0  0  0  0  0  0  0  0
   57.5060   26.1420   45.2200 C   0  0  0  0  0  0  0  0  0  0  0  0
   58.1880   26.6570   46.2660 C   0  0  0  0  0  0  0  0  0  0  0  0
   58.4290   25.8590   47.5260 C   0  0  0  0  0  0  0  0  0  0  0  0
   58.6990   28.0500   46.2030 C   0  0  0  0  0  0  0  0  0  0  0  0
   58.0700   28.9300   45.5550 O   0  0  0  0  0  0  0  0  0  0  0  0
   59.8820   28.4050   46.9320 N   0  0  0  0  0  0  0  0  0  0  0  0
   60.1870   29.6910   47.4900 C   0  0  0  0  0  0  0  0  0  0  0  0
   60.9690   30.5790   46.7410 C   0  0  0  0  0  0  0  0  0  0  0  0
   61.2590   31.8550   47.2310 C   0  0  0  0  0  0  0  0  0  0  0  0
   60.7540   32.2660   48.4700 C   0  0  0  0  0  0  0  0  0  0  0  0
   61.0890   33.8930   49.0530 S   0  0  0  0  0  0  0  0  0  0  0  0
   62.2770   34.4330   48.3060 O   0  0  0  0  0  0  0  0  0  0  0  0
   61.4170   33.8620   50.5210 O   0  0  0  0  0  0  0  0  0  0  0  0
   59.7110   34.9210   48.7430 N   0  0  0  0  0  0  0  0  0  0  0  0
   59.0430   34.7080   47.4470 C   0  0  0  0  0  0  0  0  0  0  0  0
   60.0070   34.6880   46.2400 C   0  0  0  0  0  0  0  0  0  0  0  0
   59.2330   34.6500   44.9080 C   0  0  0  0  0  0  0  0  0  0  0  0
   57.9200   33.8390   44.9780 C   0  0  0  0  0  0  0  0  0  0  0  0
   57.9330   32.8060   46.1110 C   0  0  0  0  0  0  0  0  0  0  0  0
   58.0970   33.4820   47.4850 C   0  0  0  0  0  0  0  0  0  0  0  0
   59.9550   31.3880   49.2170 C   0  0  0  0  0  0  0  0  0  0  0  0
   59.6670   30.1100   48.7280 C   0  0  0  0  0  0  0  0  0  0  0  0
   56.7670   23.7600   45.0060 C   0  0  0  0  0  0  0  0  0  0  0  0
   57.9360   23.4630   44.6300 O   0  0  0  0  0  0  0  0  0  0  0  0
  1  2  2  0
  2  3  1  0
  3  4  1  0
  4  5  1  0
  5  6  2  0
  5  7  1  0
  7  8  1  0
  8  9  1  0
  8 10  2  0
 10 11  1  0
 11 12  2  3
 12 13  1  0
 12 14  1  0
 14 15  2  0
 14 16  1  0
 16 17  1  0
 17 18  2  0
 18 19  1  0
 19 20  2  0
 20 21  1  0
 21 22  2  0
 21 23  2  0
 21 24  1  0
 24 25  1  0
 25 26  1  0
 26 27  1  0
 27 28  1  0
 28 29  1  0
 29 30  1  0
 20 31  1  0
 31 32  2  0
 10 33  1  0
 33 34  2  0
 33  4  1  0
 32 17  1  0
 30 25  1  0
M  CHG  4   7  -1   9  -1  16  -1  24  -1
M  END
>  <UniqueID>  (495) 
22

>  <SMILES>  (495) 
C=CCn1c(=O)[n-]c([O-])c(C=C(C)C(=O)[N-]c2ccc(S(=O)(=O)[N-]C3CCCCC3)cc2)c1=O

>  <Energy>  (495) 
78.82796765434621

>  <Genealogy>  (495) 
C=CCn1c(=O)[n-]c([O-])c(C=C(C)C(=O)[N-]c2ccc(S(=O)(=O)[N-]C3CCCCC3)cc2)c1=O (protonated)
C=CCn1c(=O)[n-]c([O-])c(C=C(C)C(=O)[N-]c2ccc(S(=O)(=O)[N-]C3CCCCC3)cc2)c1=O (3D coordinates assigned)
C=CCn1c(=O)[n-]c([O-])c(C=C(C)C(=O)[N-]c2ccc(S(=O)(=O)[N-]C3CCCCC3)cc2)c1=O (nonaromatic ring conformer: 78.82796765434621 kcal/mol)

>  <smiles>  (495) 
C=CCn1c(=O)[nH]c(O)c(C=C(C)C(=O)Nc2ccc(S(=O)(=O)NC3CCCCC3)cc2)c1=O

>  <score_type>  (495) 
oracle

>  <origin>  (495) 
adg

>  <m_score__min__energy>  (495) 
-17.420000000000002

>  <m_primary>  (495) 
energy

$$$$
48:0
     RDKit          3D

 25 27  0  0  0  0  0  0  0  0999 V2000
   57.2890   27.8830   44.9460 C   0  0  0  0  0  0  0  0  0  0  0  0
   58.3810   28.6460   44.7870 C   0  0  0  0  0  0  0  0  0  0  0  0
   58.4690   30.0310   45.3130 C   0  0  0  0  0  0  0  0  0  0  0  0
   57.3900   30.9270   45.2450 C   0  0  0  0  0  0  0  0  0  0  0  0
   56.1860   30.5610   44.6530 O   0  0  0  0  0  0  0  0  0  0  0  0
   57.5250   32.1830   45.7350 N   0  0  0  0  0  0  0  0  0  0  0  0
   58.6890   32.6140   46.2800 C   0  0  0  0  0  0  0  0  0  0  0  0
   58.7510   33.7880   46.7370 O   0  0  0  0  0  0  0  0  0  0  0  0
   59.7750   31.7810   46.3360 N   0  0  0  0  0  0  0  0  0  0  0  0
   61.0150   32.2510   46.9050 C   0  0  0  0  0  0  0  0  0  0  0  0
   61.6120   31.5580   47.9730 C   0  0  0  0  0  0  0  0  0  0  0  0
   62.8130   32.0140   48.5240 C   0  0  0  0  0  0  0  0  0  0  0  0
   63.4250   33.1630   48.0140 C   0  0  0  0  0  0  0  0  0  0  0  0
   62.8380   33.8580   46.9540 C   0  0  0  0  0  0  0  0  0  0  0  0
   61.6370   33.4040   46.3990 C   0  0  0  0  0  0  0  0  0  0  0  0
   59.6810   30.5010   45.8520 C   0  0  0  0  0  0  0  0  0  0  0  0
   60.6840   29.7330   45.8900 O   0  0  0  0  0  0  0  0  0  0  0  0
   57.3110   26.5460   45.5910 C   0  0  0  0  0  0  0  0  0  0  0  0
   58.5050   25.8070   45.7290 C   0  0  0  0  0  0  0  0  0  0  0  0
   58.4980   24.5580   46.3560 C   0  0  0  0  0  0  0  0  0  0  0  0
   57.3060   24.0330   46.8610 C   0  0  0  0  0  0  0  0  0  0  0  0
   57.3030   22.7920   47.4840 O   0  0  0  0  0  0  0  0  0  0  0  0
   56.1200   24.7600   46.7460 C   0  0  0  0  0  0  0  0  0  0  0  0
   56.1180   26.0110   46.1180 C   0  0  0  0  0  0  0  0  0  0  0  0
   54.9190   26.7110   46.0150 O   0  0  0  0  0  0  0  0  0  0  0  0
  1  2  2  0
  2  3  1  0
  3  4  2  0
  4  5  1  0
  4  6  1  0
  6  7  1  0
  7  8  2  0
  7  9  1  0
  9 10  1  0
 10 11  2  0
 11 12  1  0
 12 13  2  0
 13 14  1  0
 14 15  2  0
  9 16  1  0
 16 17  2  0
  1 18  1  0
 18 19  2  0
 19 20  1  0
 20 21  2  0
 21 22  1  0
 21 23  1  0
 23 24  2  0
 24 25  1  0
 16  3  1  0
 24 18  1  0
 15 10  1  0
M  CHG  4   5  -1   6  -1  22  -1  25  -1
M  END
>  <UniqueID>  (496) 
47

>  <SMILES>  (496) 
O=c1[n-]c([O-])c(/C=C/c2ccc([O-])cc2[O-])c(=O)n1-c1ccccc1

>  <Energy>  (496) 
58.5246834505305

>  <Genealogy>  (496) 
O=c1[n-]c([O-])c(C=Cc2ccc([O-])cc2[O-])c(=O)n1-c1ccccc1 (protonated)
O=c1[n-]c([O-])c(/C=C/c2ccc([O-])cc2[O-])c(=O)n1-c1ccccc1 (cis-trans isomerization)
O=c1[n-]c([O-])c(/C=C/c2ccc([O-])cc2[O-])c(=O)n1-c1ccccc1 (3D coordinates assigned)
O=c1[n-]c([O-])c(/C=C/c2ccc([O-])cc2[O-])c(=O)n1-c1ccccc1 (optimized conformer: 58.5246834505305 kcal/mol)

>  <smiles>  (496) 
O=c1[nH]c(O)c(C=Cc2ccc(O)cc2O)c(=O)n1-c1ccccc1

>  <score_type>  (496) 
oracle

>  <origin>  (496) 
adg

>  <m_score__min__energy>  (496) 
-17.57

>  <m_primary>  (496) 
energy

$$$$
54:0
     RDKit          3D

 29 31  0  0  0  0  0  0  0  0999 V2000
   58.8790   26.0860   46.3230 C   0  0  0  0  0  0  0  0  0  0  0  0
   58.3940   27.1780   45.6750 N   0  0  0  0  0  0  0  0  0  0  0  0
   57.0540   27.4100   45.5510 C   0  0  0  0  0  0  0  0  0  0  0  0
   56.6150   28.4780   44.9510 N   0  0  0  0  0  0  0  0  0  0  0  0
   57.0810   29.8170   45.1840 C   0  0  0  0  0  0  0  0  0  0  0  0
   56.5170   30.7660   44.5720 O   0  0  0  0  0  0  0  0  0  0  0  0
   58.2530   30.0980   46.0510 C   0  0  0  0  0  0  0  0  0  0  0  0
   59.4670   30.5350   45.4950 C   0  0  0  0  0  0  0  0  0  0  0  0
   60.5560   30.8420   46.3180 C   0  0  0  0  0  0  0  0  0  0  0  0
   60.4430   30.7200   47.7090 C   0  0  0  0  0  0  0  0  0  0  0  0
   61.7920   31.1540   48.7580 S   0  0  0  0  0  0  0  0  0  0  0  0
   61.9360   30.1210   49.8400 O   0  0  0  0  0  0  0  0  0  0  0  0
   63.0730   31.2310   47.9690 O   0  0  0  0  0  0  0  0  0  0  0  0
   61.4820   32.6970   49.4780 N   0  0  0  0  0  0  0  0  0  0  0  0
   60.1730   33.2760   49.4920 C   0  0  0  0  0  0  0  0  0  0  0  0
   59.2320   32.7170   50.1160 O   0  0  0  0  0  0  0  0  0  0  0  0
   59.9330   34.5830   48.8070 C   0  0  0  0  0  0  0  0  0  0  0  0
   59.2740   34.3470   47.4740 C   0  0  0  0  0  0  0  0  0  0  0  0
   59.8620   34.8470   46.2950 C   0  0  0  0  0  0  0  0  0  0  0  0
   59.2760   34.5880   45.0530 C   0  0  0  0  0  0  0  0  0  0  0  0
   58.0970   33.8300   44.9760 C   0  0  0  0  0  0  0  0  0  0  0  0
   57.5090   33.3280   46.1430 C   0  0  0  0  0  0  0  0  0  0  0  0
   58.0950   33.5760   47.3890 C   0  0  0  0  0  0  0  0  0  0  0  0
   59.2370   30.2790   48.2680 C   0  0  0  0  0  0  0  0  0  0  0  0
   58.1460   29.9790   47.4470 C   0  0  0  0  0  0  0  0  0  0  0  0
   56.1400   26.5020   46.1110 C   0  0  0  0  0  0  0  0  0  0  0  0
   54.7700   26.7080   45.9950 O   0  0  0  0  0  0  0  0  0  0  0  0
   56.6200   25.3750   46.7840 C   0  0  0  0  0  0  0  0  0  0  0  0
   58.0010   25.1680   46.9030 C   0  0  0  0  0  0  0  0  0  0  0  0
  1  2  1  0
  2  3  1  0
  3  4  2  0
  4  5  1  0
  5  6  2  0
  5  7  1  0
  7  8  2  0
  8  9  1  0
  9 10  2  0
 10 11  1  0
 11 12  2  0
 11 13  2  0
 11 14  1  0
 14 15  1  0
 15 16  2  0
 15 17  1  0
 17 18  1  0
 18 19  2  0
 19 20  1  0
 20 21  2  0
 21 22  1  0
 22 23  2  0
 10 24  1  0
 24 25  2  0
  3 26  1  0
 26 27  1  0
 26 28  2  0
 28 29  1  0
 29  1  2  0
 25  7  1  0
 23 18  1  0
M  CHG  3   2  -1  14  -1  27  -1
M  END
>  <UniqueID>  (497) 
53

>  <SMILES>  (497) 
O=C(Cc1ccccc1)[N-]S(=O)(=O)c1ccc(C(=O)/N=c2\[n-]cccc2[O-])cc1

>  <Energy>  (497) 
54.24394256442506

>  <Genealogy>  (497) 
O=C(Cc1ccccc1)[N-]S(=O)(=O)c1ccc(C(=O)N=c2[n-]cccc2[O-])cc1 (protonated)
O=C(Cc1ccccc1)[N-]S(=O)(=O)c1ccc(C(=O)/N=c2\[n-]cccc2[O-])cc1 (cis-trans isomerization)
O=C(Cc1ccccc1)[N-]S(=O)(=O)c1ccc(C(=O)/N=c2\[n-]cccc2[O-])cc1 (3D coordinates assigned)
O=C(Cc1ccccc1)[N-]S(=O)(=O)c1ccc(C(=O)/N=c2\[n-]cccc2[O-])cc1 (optimized conformer: 54.24394256442506 kcal/mol)

>  <smiles>  (497) 
O=C(Cc1ccccc1)NS(=O)(=O)c1ccc(C(=O)N=c2[nH]cccc2O)cc1

>  <score_type>  (497) 
oracle

>  <origin>  (497) 
adg

>  <m_score__min__energy>  (497) 
-15.41

>  <m_primary>  (497) 
energy

$$$$
84:0
     RDKit          3D

 30 33  0  0  0  0  0  0  0  0999 V2000
   57.7660   26.1710   43.4870 O   0  0  0  0  0  0  0  0  0  0  0  0
   57.6760   26.5500   44.6870 C   0  0  0  0  0  0  0  0  0  0  0  0
   58.0090   27.9550   45.0290 C   0  0  0  0  0  0  0  0  0  0  0  0
   57.0630   28.9840   44.8630 C   0  0  0  0  0  0  0  0  0  0  0  0
   57.3910   30.3040   45.1800 C   0  0  0  0  0  0  0  0  0  0  0  0
   58.6680   30.6210   45.6560 C   0  0  0  0  0  0  0  0  0  0  0  0
   59.0550   32.2870   46.0790 S   0  0  0  0  0  0  0  0  0  0  0  0
   58.1350   32.7270   47.1850 O   0  0  0  0  0  0  0  0  0  0  0  0
   58.8390   33.1830   44.8900 O   0  0  0  0  0  0  0  0  0  0  0  0
   60.7150   32.3920   46.6110 N   0  0  1  0  0  0  0  0  0  0  0  0
   61.2000   33.7780   46.4750 C   0  0  0  0  0  0  0  0  0  0  0  0
   62.7030   33.8530   46.7650 C   0  0  0  0  0  0  0  0  0  0  0  0
   63.0730   33.1040   48.0180 C   0  0  0  0  0  0  0  0  0  0  0  0
   64.3390   33.3040   48.5910 C   0  0  0  0  0  0  0  0  0  0  0  0
   64.7250   32.5820   49.7230 C   0  0  0  0  0  0  0  0  0  0  0  0
   63.8540   31.6470   50.2870 C   0  0  0  0  0  0  0  0  0  0  0  0
   62.5970   31.4300   49.7180 C   0  0  0  0  0  0  0  0  0  0  0  0
   62.2040   32.1380   48.5720 C   0  0  0  0  0  0  0  0  0  0  0  0
   60.8150   31.9380   48.0120 C   0  0  0  0  0  0  0  0  0  0  0  0
   59.6180   29.6030   45.8170 C   0  0  0  0  0  0  0  0  0  0  0  0
   59.2930   28.2810   45.4990 C   0  0  0  0  0  0  0  0  0  0  0  0
   57.2330   25.5720   45.7110 C   0  0  0  0  0  0  0  0  0  0  0  0
   55.9600   25.6770   46.2970 C   0  0  0  0  0  0  0  0  0  0  0  0
   55.0990   26.7130   45.9490 O   0  0  0  0  0  0  0  0  0  0  0  0
   55.5620   24.7700   47.2260 N   0  0  0  0  0  0  0  0  0  0  0  0
   56.3720   23.7490   47.6010 C   0  0  0  0  0  0  0  0  0  0  0  0
   55.9830   22.9230   48.4660 O   0  0  0  0  0  0  0  0  0  0  0  0
   57.6010   23.6150   47.0410 N   0  0  0  0  0  0  0  0  0  0  0  0
   58.0470   24.4930   46.1060 C   0  0  0  0  0  0  0  0  0  0  0  0
   59.1830   24.3180   45.5890 O   0  0  0  0  0  0  0  0  0  0  0  0
  1  2  2  0
  2  3  1  0
  3  4  2  0
  4  5  1  0
  5  6  2  0
  6  7  1  0
  7  8  2  0
  7  9  2  0
 10  7  1  1
 10 11  1  0
 11 12  1  0
 12 13  1  0
 13 14  2  0
 14 15  1  0
 15 16  2  0
 16 17  1  0
 17 18  2  0
 18 19  1  0
  6 20  1  0
 20 21  2  0
  2 22  1  0
 22 23  2  0
 23 24  1  0
 23 25  1  0
 25 26  1  0
 26 27  2  0
 26 28  1  0
 28 29  1  0
 29 30  2  0
 21  3  1  0
 29 22  1  0
 19 10  1  0
 18 13  1  0
M  CHG  4  10   1  24  -1  25  -1  28  -1
M  END
>  <UniqueID>  (498) 
81

>  <SMILES>  (498) 
O=C(c1ccc(S(=O)(=O)[N@H+]2CCc3ccccc3C2)cc1)c1c([O-])[n-]c(=O)[n-]c1=O

>  <Energy>  (498) 
60.31956095897329

>  <Genealogy>  (498) 
O=C(c1ccc(S(=O)(=O)[NH+]2CCc3ccccc3C2)cc1)c1c([O-])[n-]c(=O)[n-]c1=O (protonated)
O=C(c1ccc(S(=O)(=O)[N@H+]2CCc3ccccc3C2)cc1)c1c([O-])[n-]c(=O)[n-]c1=O (chirality)
O=C(c1ccc(S(=O)(=O)[N@H+]2CCc3ccccc3C2)cc1)c1c([O-])[n-]c(=O)[n-]c1=O (3D coordinates assigned)
O=C(c1ccc(S(=O)(=O)[N@H+]2CCc3ccccc3C2)cc1)c1c([O-])[n-]c(=O)[n-]c1=O (nonaromatic ring conformer: 60.31956095897329 kcal/mol)

>  <smiles>  (498) 
O=C(c1ccc(S(=O)(=O)N2CCc3ccccc3C2)cc1)c1c(O)[nH]c(=O)[nH]c1=O

>  <score_type>  (498) 
oracle

>  <origin>  (498) 
adg

>  <m_score__min__energy>  (498) 
-15.69

>  <m_primary>  (498) 
energy

$$$$
45:0
     RDKit          3D

 30 32  0  0  0  0  0  0  0  0999 V2000
   58.7890   29.3440   49.9360 O   0  0  0  0  0  0  0  0  0  0  0  0
   59.2780   29.4440   48.7820 C   0  0  0  0  0  0  0  0  0  0  0  0
   59.8530   30.6940   48.3810 N   0  0  0  0  0  0  0  0  0  0  0  0
   60.3750   31.0880   46.7710 S   0  0  0  0  0  0  0  0  0  0  0  0
   61.4680   30.1360   46.3770 O   0  0  0  0  0  0  0  0  0  0  0  0
   60.9230   32.4860   46.7720 O   0  0  0  0  0  0  0  0  0  0  0  0
   59.0190   31.0250   45.6310 C   0  0  0  0  0  0  0  0  0  0  0  0
   58.8670   29.8860   44.8240 C   0  0  0  0  0  0  0  0  0  0  0  0
   57.8300   29.8080   43.8920 C   0  0  0  0  0  0  0  0  0  0  0  0
   56.9160   30.8550   43.7740 C   0  0  0  0  0  0  0  0  0  0  0  0
   57.0290   31.9740   44.6000 C   0  0  0  0  0  0  0  0  0  0  0  0
   58.0690   32.0680   45.5320 C   0  0  0  0  0  0  0  0  0  0  0  0
   58.1110   33.4850   46.5740 Cl  0  0  0  0  0  0  0  0  0  0  0  0
   59.2060   28.2840   47.8730 C   0  0  0  0  0  0  0  0  0  0  0  0
   60.3350   27.4730   47.6880 C   0  0  0  0  0  0  0  0  0  0  0  0
   60.2730   26.3670   46.8370 C   0  0  0  0  0  0  0  0  0  0  0  0
   59.0890   26.0720   46.1560 C   0  0  0  0  0  0  0  0  0  0  0  0
   57.9550   26.8790   46.3320 C   0  0  0  0  0  0  0  0  0  0  0  0
   56.7480   26.6190   45.6130 N   0  0  0  0  0  0  0  0  0  0  0  0
   55.7370   25.2440   45.9140 S   0  0  0  0  0  0  0  0  0  0  0  0
   55.8940   24.8270   47.3490 O   0  0  0  0  0  0  0  0  0  0  0  0
   54.3020   25.6320   45.6910 O   0  0  0  0  0  0  0  0  0  0  0  0
   56.1430   23.8870   44.8560 C   0  0  0  0  0  0  0  0  0  0  0  0
   57.4700   23.4500   44.7730 C   0  0  0  0  0  0  0  0  0  0  0  0
   57.8110   22.4020   43.9160 C   0  0  0  0  0  0  0  0  0  0  0  0
   56.8160   21.7980   43.1480 C   0  0  0  0  0  0  0  0  0  0  0  0
   55.5310   22.2330   43.2340 N   0  0  0  0  0  0  0  0  0  0  0  0
   55.1720   23.2540   44.0580 C   0  0  0  0  0  0  0  0  0  0  0  0
   53.9700   23.6290   44.0860 O   0  0  0  0  0  0  0  0  0  0  0  0
   58.0280   27.9990   47.1680 C   0  0  0  0  0  0  0  0  0  0  0  0
  1  2  2  0
  2  3  1  0
  3  4  1  0
  4  5  2  0
  4  6  2  0
  4  7  1  0
  7  8  2  0
  8  9  1  0
  9 10  2  0
 10 11  1  0
 11 12  2  0
 12 13  1  0
  2 14  1  0
 14 15  2  0
 15 16  1  0
 16 17  2  0
 17 18  1  0
 18 19  1  0
 19 20  1  0
 20 21  2  0
 20 22  2  0
 20 23  1  0
 23 24  2  0
 24 25  1  0
 25 26  2  0
 26 27  1  0
 27 28  1  0
 28 29  2  0
 18 30  2  0
 12  7  1  0
 30 14  1  0
 28 23  1  0
M  CHG  3   3  -1  19  -1  27  -1
M  END
>  <UniqueID>  (499) 
46

>  <SMILES>  (499) 
O=C([N-]S(=O)(=O)c1ccccc1Cl)c1cccc([N-]S(=O)(=O)c2ccc[n-]c2=O)c1

>  <Energy>  (499) 
61.23743613025817

>  <Genealogy>  (499) 
O=C([N-]S(=O)(=O)c1ccccc1Cl)c1cccc([N-]S(=O)(=O)c2ccc[n-]c2=O)c1 (protonated)
O=C([N-]S(=O)(=O)c1ccccc1Cl)c1cccc([N-]S(=O)(=O)c2ccc[n-]c2=O)c1 (3D coordinates assigned)
O=C([N-]S(=O)(=O)c1ccccc1Cl)c1cccc([N-]S(=O)(=O)c2ccc[n-]c2=O)c1 (optimized conformer: 61.23743613025817 kcal/mol)

>  <smiles>  (499) 
O=C(NS(=O)(=O)c1ccccc1Cl)c1cccc(NS(=O)(=O)c2ccc[nH]c2=O)c1

>  <score_type>  (499) 
oracle

>  <origin>  (499) 
adg

>  <m_score__min__energy>  (499) 
-14.56

>  <m_primary>  (499) 
energy

$$$$
54:0
     RDKit          3D

 27 29  0  0  0  0  0  0  0  0999 V2000
   57.8630   26.3150   44.3280 C   0  0  0  0  0  0  0  0  0  0  0  0
   58.8690   27.2070   44.2940 N   0  0  0  0  0  0  0  0  0  0  0  0
   58.7990   27.8250   45.4940 C   0  0  0  0  0  0  0  0  0  0  0  0
   59.7390   28.8850   45.9010 C   0  0  0  0  0  0  0  0  0  0  0  0
   60.9260   28.8430   45.4850 O   0  0  0  0  0  0  0  0  0  0  0  0
   59.3600   29.9260   46.8100 N   0  0  0  0  0  0  0  0  0  0  0  0
   59.5950   31.3350   46.6400 C   0  0  0  0  0  0  0  0  0  0  0  0
   58.9270   32.0410   45.6210 C   0  0  0  0  0  0  0  0  0  0  0  0
   57.9600   31.3740   44.7150 C   0  0  0  0  0  0  0  0  0  0  0  0
   57.9740   31.6510   43.3380 C   0  0  0  0  0  0  0  0  0  0  0  0
   57.0600   31.0290   42.4830 C   0  0  0  0  0  0  0  0  0  0  0  0
   56.1200   30.1310   42.9960 C   0  0  0  0  0  0  0  0  0  0  0  0
   56.0910   29.8560   44.3660 C   0  0  0  0  0  0  0  0  0  0  0  0
   55.1510   28.9690   44.8760 O   0  0  0  0  0  0  0  0  0  0  0  0
   57.0050   30.4770   45.2240 C   0  0  0  0  0  0  0  0  0  0  0  0
   59.2150   33.4020   45.4460 C   0  0  0  0  0  0  0  0  0  0  0  0
   60.0910   34.0320   46.2710 N   0  0  0  0  0  0  0  0  0  0  0  0
   60.7140   33.3960   47.2970 C   0  0  0  0  0  0  0  0  0  0  0  0
   61.5460   34.0790   48.0330 N   0  0  0  0  0  0  0  0  0  0  0  0
   62.9400   33.8210   48.2610 C   0  0  0  0  0  0  0  0  0  0  0  0
   63.4480   34.1420   49.3670 O   0  0  0  0  0  0  0  0  0  0  0  0
   63.7780   33.0790   47.2650 C   0  0  0  0  0  0  0  0  0  0  0  0
   60.4730   32.0220   47.4950 C   0  0  0  0  0  0  0  0  0  0  0  0
   57.8110   27.3620   46.2900 N   0  0  0  0  0  0  0  0  0  0  0  0
   57.2260   26.4160   45.5390 C   0  0  0  0  0  0  0  0  0  0  0  0
   56.0980   25.6350   45.9660 C   0  0  0  0  0  0  0  0  0  0  0  0
   55.1890   25.0060   46.3080 N   0  0  0  0  0  0  0  0  0  0  0  0
  1  2  1  0
  2  3  1  0
  3  4  1  0
  4  5  2  0
  4  6  1  0
  6  7  1  0
  7  8  1  0
  8  9  1  0
  9 10  2  0
 10 11  1  0
 11 12  2  0
 12 13  1  0
 13 14  1  0
 13 15  2  0
  8 16  2  0
 16 17  1  0
 17 18  1  0
 18 19  2  0
 19 20  1  0
 20 21  2  0
 20 22  1  0
 18 23  1  0
  3 24  2  0
 24 25  1  0
 25 26  1  0
 26 27  3  0
 25  1  2  0
 23  7  2  0
 15  9  1  0
M  CHG  4   2  -1   6  -1  14  -1  17  -1
M  END
>  <UniqueID>  (500) 
55

>  <SMILES>  (500) 
CC(=O)/N=c1\cc([N-]C(=O)c2nc(C#N)c[n-]2)c(-c2cccc([O-])c2)c[n-]1

>  <Energy>  (500) 
85.85699495337042

>  <Genealogy>  (500) 
CC(=O)N=c1cc([N-]C(=O)c2nc(C#N)c[n-]2)c(-c2cccc([O-])c2)c[n-]1 (protonated)
CC(=O)/N=c1\cc([N-]C(=O)c2nc(C#N)c[n-]2)c(-c2cccc([O-])c2)c[n-]1 (cis-trans isomerization)
CC(=O)/N=c1\cc([N-]C(=O)c2nc(C#N)c[n-]2)c(-c2cccc([O-])c2)c[n-]1 (3D coordinates assigned)
CC(=O)/N=c1\cc([N-]C(=O)c2nc(C#N)c[n-]2)c(-c2cccc([O-])c2)c[n-]1 (optimized conformer: 85.85699495337042 kcal/mol)

>  <smiles>  (500) 
CC(=O)N=c1cc(NC(=O)c2nc(C#N)c[nH]2)c(-c2cccc(O)c2)c[nH]1

>  <score_type>  (500) 
oracle

>  <origin>  (500) 
adg

>  <m_score__min__energy>  (500) 
-14.44

>  <m_primary>  (500) 
energy

$$$$
66:0
     RDKit          3D

 28 30  0  0  0  0  0  0  0  0999 V2000
   55.9470   21.2820   43.0960 O   0  0  0  0  0  0  0  0  0  0  0  0
   56.2390   22.2700   44.0340 C   0  0  0  0  0  0  0  0  0  0  0  0
   57.4110   23.0180   43.8940 C   0  0  0  0  0  0  0  0  0  0  0  0
   57.7280   24.0150   44.8210 C   0  0  0  0  0  0  0  0  0  0  0  0
   56.8830   24.2720   45.9130 C   0  0  0  0  0  0  0  0  0  0  0  0
   57.2630   25.3460   46.8640 C   0  0  0  0  0  0  0  0  0  0  0  0
   58.0000   26.4160   46.5300 C   0  0  0  0  0  0  0  0  0  0  0  0
   57.4140   27.6130   45.8780 C   0  0  0  0  0  0  0  0  0  0  0  0
   56.0400   27.7220   45.6130 C   0  0  0  0  0  0  0  0  0  0  0  0
   55.1620   26.6930   45.9330 O   0  0  0  0  0  0  0  0  0  0  0  0
   55.5570   28.8320   45.0080 N   0  0  0  0  0  0  0  0  0  0  0  0
   56.3690   29.8480   44.6280 C   0  0  0  0  0  0  0  0  0  0  0  0
   55.8560   30.8570   44.0720 O   0  0  0  0  0  0  0  0  0  0  0  0
   57.7230   29.7740   44.8430 N   0  0  0  0  0  0  0  0  0  0  0  0
   58.6130   30.8610   44.3850 C   0  0  0  0  0  0  0  0  0  0  0  0
   58.8760   31.8340   45.5050 C   0  0  0  0  0  0  0  0  0  0  0  0
   59.8060   31.5270   46.5110 C   0  0  0  0  0  0  0  0  0  0  0  0
   60.0720   32.4440   47.5310 C   0  0  0  0  0  0  0  0  0  0  0  0
   59.4180   33.6810   47.5640 C   0  0  0  0  0  0  0  0  0  0  0  0
   59.7190   34.5670   48.6090 O   0  0  0  0  0  0  0  0  0  0  0  0
   60.0640   34.1650   49.9300 C   0  0  0  0  0  0  0  0  0  0  0  0
   58.4870   33.9930   46.5550 C   0  0  0  0  0  0  0  0  0  0  0  0
   58.2220   33.0750   45.5340 C   0  0  0  0  0  0  0  0  0  0  0  0
   58.2510   28.6620   45.4550 C   0  0  0  0  0  0  0  0  0  0  0  0
   59.4950   28.5790   45.6560 O   0  0  0  0  0  0  0  0  0  0  0  0
   55.6940   23.5250   46.0420 C   0  0  0  0  0  0  0  0  0  0  0  0
   55.3760   22.5290   45.1120 C   0  0  0  0  0  0  0  0  0  0  0  0
   54.2000   21.8040   45.2610 O   0  0  0  0  0  0  0  0  0  0  0  0
  1  2  1  0
  2  3  2  0
  3  4  1  0
  4  5  2  0
  5  6  1  0
  6  7  2  0
  7  8  1  0
  8  9  2  0
  9 10  1  0
  9 11  1  0
 11 12  1  0
 12 13  2  0
 12 14  1  0
 14 15  1  0
 15 16  1  0
 16 17  2  0
 17 18  1  0
 18 19  2  0
 19 20  1  0
 20 21  1  0
 19 22  1  0
 22 23  2  0
 14 24  1  0
 24 25  2  0
  5 26  1  0
 26 27  2  0
 27 28  1  0
 27  2  1  0
 24  8  1  0
 23 16  1  0
M  CHG  3  10  -1  11  -1  28  -1
M  END
>  <UniqueID>  (501) 
66

>  <SMILES>  (501) 
COc1ccc(Cn2c(=O)[n-]c([O-])c(/C=C/c3ccc(O)c([O-])c3)c2=O)cc1

>  <Energy>  (501) 
57.682618927314124

>  <Genealogy>  (501) 
COc1ccc(Cn2c(=O)[n-]c([O-])c(C=Cc3ccc(O)c([O-])c3)c2=O)cc1 (protonated)
COc1ccc(Cn2c(=O)[n-]c([O-])c(/C=C/c3ccc(O)c([O-])c3)c2=O)cc1 (cis-trans isomerization)
COc1ccc(Cn2c(=O)[n-]c([O-])c(/C=C/c3ccc(O)c([O-])c3)c2=O)cc1 (3D coordinates assigned)
COc1ccc(Cn2c(=O)[n-]c([O-])c(/C=C/c3ccc(O)c([O-])c3)c2=O)cc1 (optimized conformer: 57.682618927314124 kcal/mol)

>  <smiles>  (501) 
COc1ccc(Cn2c(=O)[nH]c(O)c(C=Cc3ccc(O)c(O)c3)c2=O)cc1

>  <score_type>  (501) 
oracle

>  <origin>  (501) 
adg

>  <m_score__min__energy>  (501) 
-15.49

>  <m_primary>  (501) 
energy

$$$$
68:0
     RDKit          3D

 21 22  0  0  0  0  0  0  0  0999 V2000
   59.6650   35.3940   46.0620 C   0  0  0  0  0  0  0  0  0  0  0  0
   59.5960   34.0570   46.5480 O   0  0  0  0  0  0  0  0  0  0  0  0
   58.8830   33.0240   45.9210 C   0  0  0  0  0  0  0  0  0  0  0  0
   58.2350   33.1950   44.6830 C   0  0  0  0  0  0  0  0  0  0  0  0
   57.5350   32.1330   44.1010 C   0  0  0  0  0  0  0  0  0  0  0  0
   57.4710   30.8920   44.7470 C   0  0  0  0  0  0  0  0  0  0  0  0
   56.5810   29.5570   44.0230 S   0  0  0  0  0  0  0  0  0  0  0  0
   57.5190   28.7500   43.1720 O   0  0  0  0  0  0  0  0  0  0  0  0
   55.4570   30.0700   43.1660 O   0  0  0  0  0  0  0  0  0  0  0  0
   55.9240   28.5370   45.2640 N   0  0  0  0  0  0  0  0  0  0  0  0
   56.5560   27.3620   45.7920 C   0  0  0  0  0  0  0  0  0  0  0  0
   57.9510   27.2800   45.9630 C   0  0  0  0  0  0  0  0  0  0  0  0
   58.5340   26.1150   46.4730 C   0  0  0  0  0  0  0  0  0  0  0  0
   59.9170   26.0520   46.6330 O   0  0  0  0  0  0  0  0  0  0  0  0
   57.7260   25.0250   46.8190 C   0  0  0  0  0  0  0  0  0  0  0  0
   56.3400   25.0990   46.6560 C   0  0  0  0  0  0  0  0  0  0  0  0
   55.5450   24.0130   47.0040 O   0  0  0  0  0  0  0  0  0  0  0  0
   55.7560   26.2640   46.1450 C   0  0  0  0  0  0  0  0  0  0  0  0
   54.3750   26.3300   45.9840 O   0  0  0  0  0  0  0  0  0  0  0  0
   58.1200   30.7180   45.9760 C   0  0  0  0  0  0  0  0  0  0  0  0
   58.8190   31.7780   46.5580 C   0  0  0  0  0  0  0  0  0  0  0  0
  1  2  1  0
  2  3  1  0
  3  4  2  0
  4  5  1  0
  5  6  2  0
  6  7  1  0
  7  8  2  0
  7  9  2  0
  7 10  1  0
 10 11  1  0
 11 12  2  0
 12 13  1  0
 13 14  1  0
 13 15  2  0
 15 16  1  0
 16 17  1  0
 16 18  2  0
 18 19  1  0
  6 20  1  0
 20 21  2  0
 21  3  1  0
 18 11  1  0
M  CHG  3  10  -1  17  -1  19  -1
M  END
>  <UniqueID>  (502) 
68

>  <SMILES>  (502) 
COc1ccc(S(=O)(=O)[N-]c2cc(O)cc([O-])c2[O-])cc1

>  <Energy>  (502) 
34.30624346445192

>  <Genealogy>  (502) 
COc1ccc(S(=O)(=O)[N-]c2cc(O)cc([O-])c2[O-])cc1 (protonated)
COc1ccc(S(=O)(=O)[N-]c2cc(O)cc([O-])c2[O-])cc1 (3D coordinates assigned)
COc1ccc(S(=O)(=O)[N-]c2cc(O)cc([O-])c2[O-])cc1 (optimized conformer: 34.30624346445192 kcal/mol)

>  <smiles>  (502) 
COc1ccc(S(=O)(=O)Nc2cc(O)cc(O)c2O)cc1

>  <score_type>  (502) 
oracle

>  <origin>  (502) 
adg

>  <m_score__min__energy>  (502) 
-14.300000000000001

>  <m_primary>  (502) 
energy

$$$$
95:0
     RDKit          3D

 26 28  0  0  0  0  0  0  0  0999 V2000
   56.9810   30.9600   43.0330 O   0  0  0  0  0  0  0  0  0  0  0  0
   56.9360   30.8980   44.2910 C   0  0  0  0  0  0  0  0  0  0  0  0
   56.6790   32.0850   45.0560 N   0  0  0  0  0  0  0  0  0  0  0  0
   57.6590   32.9640   45.6270 C   0  0  0  0  0  0  0  0  0  0  0  0
   58.2460   34.0100   44.8890 C   0  0  0  0  0  0  0  0  0  0  0  0
   59.2160   34.8270   45.4780 C   0  0  0  0  0  0  0  0  0  0  0  0
   59.6160   34.6020   46.7970 C   0  0  0  0  0  0  0  0  0  0  0  0
   59.0550   33.5510   47.5270 C   0  0  0  0  0  0  0  0  0  0  0  0
   58.0860   32.7300   46.9410 C   0  0  0  0  0  0  0  0  0  0  0  0
   57.0900   29.5890   44.9780 C   0  0  0  0  0  0  0  0  0  0  0  0
   56.0100   28.6850   45.0470 C   0  0  0  0  0  0  0  0  0  0  0  0
   54.7730   29.0000   44.4970 O   0  0  0  0  0  0  0  0  0  0  0  0
   56.1570   27.4910   45.6760 N   0  0  0  0  0  0  0  0  0  0  0  0
   57.3220   27.1150   46.2580 C   0  0  0  0  0  0  0  0  0  0  0  0
   57.3950   25.9840   46.8100 O   0  0  0  0  0  0  0  0  0  0  0  0
   58.4330   27.9750   46.2320 C   0  0  0  0  0  0  0  0  0  0  0  0
   59.7130   27.5460   46.8420 C   0  0  0  0  0  0  0  0  0  0  0  0
   60.4130   26.6930   46.2320 O   0  0  0  0  0  0  0  0  0  0  0  0
   60.1750   28.0810   48.1490 C   0  0  0  0  0  0  0  0  0  0  0  0
   60.3340   29.4660   48.3530 C   0  0  0  0  0  0  0  0  0  0  0  0
   60.7780   29.9540   49.5860 C   0  0  0  0  0  0  0  0  0  0  0  0
   61.0710   29.0710   50.6260 C   0  0  0  0  0  0  0  0  0  0  0  0
   60.9250   27.6940   50.4350 C   0  0  0  0  0  0  0  0  0  0  0  0
   60.4820   27.2000   49.2040 C   0  0  0  0  0  0  0  0  0  0  0  0
   58.3130   29.2250   45.5860 C   0  0  0  0  0  0  0  0  0  0  0  0
   59.3920   30.1150   45.5390 O   0  0  0  0  0  0  0  0  0  0  0  0
  1  2  2  0
  2  3  1  0
  3  4  1  0
  4  5  2  0
  5  6  1  0
  6  7  2  0
  7  8  1  0
  8  9  2  0
  2 10  1  0
 10 11  2  0
 11 12  1  0
 11 13  1  0
 13 14  1  0
 14 15  2  0
 14 16  1  0
 16 17  1  0
 17 18  2  0
 17 19  1  0
 19 20  2  0
 20 21  1  0
 21 22  2  0
 22 23  1  0
 23 24  2  0
 16 25  2  0
 25 26  1  0
  9  4  1  0
 25 10  1  0
 24 19  1  0
M  CHG  3   3  -1  12  -1  13  -1
M  END
>  <UniqueID>  (503) 
94

>  <SMILES>  (503) 
O=C([N-]c1ccccc1)c1c([O-])[n-]c(=O)c(C(=O)c2ccccc2)c1O

>  <Energy>  (503) 
59.367507883508026

>  <Genealogy>  (503) 
O=C([N-]c1ccccc1)c1c([O-])[n-]c(=O)c(C(=O)c2ccccc2)c1O (protonated)
O=C([N-]c1ccccc1)c1c([O-])[n-]c(=O)c(C(=O)c2ccccc2)c1O (3D coordinates assigned)
O=C([N-]c1ccccc1)c1c([O-])[n-]c(=O)c(C(=O)c2ccccc2)c1O (optimized conformer: 59.367507883508026 kcal/mol)

>  <smiles>  (503) 
O=C(Nc1ccccc1)c1c(O)[nH]c(=O)c(C(=O)c2ccccc2)c1O

>  <score_type>  (503) 
oracle

>  <origin>  (503) 
adg

>  <m_score__min__energy>  (503) 
-14.76

>  <m_primary>  (503) 
energy

$$$$
8:0
     RDKit          3D

 23 25  0  0  0  0  0  0  0  0999 V2000
   58.9400   26.7420   46.2740 C   0  0  0  0  0  0  0  0  0  0  0  0
   58.2560   27.7850   45.7380 N   0  0  0  0  0  0  0  0  0  0  0  0
   56.9010   27.7790   45.5940 C   0  0  0  0  0  0  0  0  0  0  0  0
   56.3420   28.8290   45.0560 N   0  0  0  0  0  0  0  0  0  0  0  0
   56.7990   29.5940   43.9330 C   0  0  0  0  0  0  0  0  0  0  0  0
   56.6280   29.1290   42.7750 O   0  0  0  0  0  0  0  0  0  0  0  0
   57.3900   30.9470   44.1090 C   0  0  0  0  0  0  0  0  0  0  0  0
   57.5200   31.8170   43.0150 C   0  0  0  0  0  0  0  0  0  0  0  0
   58.0900   33.0780   43.1800 C   0  0  0  0  0  0  0  0  0  0  0  0
   58.5240   33.5000   44.4380 C   0  0  0  0  0  0  0  0  0  0  0  0
   58.3830   32.6570   45.5670 C   0  0  0  0  0  0  0  0  0  0  0  0
   57.8420   31.3660   45.3730 C   0  0  0  0  0  0  0  0  0  0  0  0
   58.9600   33.0950   46.9240 C   0  0  0  0  0  0  0  0  0  0  0  0
   58.1630   32.5010   48.1110 C   0  0  0  0  0  0  0  0  0  0  0  0
   60.4210   32.6100   47.0150 C   0  0  0  0  0  0  0  0  0  0  0  0
   58.9140   34.6440   47.0700 C   0  0  0  0  0  0  0  0  0  0  0  0
   59.4210   35.3360   45.8430 C   0  0  0  0  0  0  0  0  0  0  0  0
   60.0360   36.4310   45.9350 O   0  0  0  0  0  0  0  0  0  0  0  0
   59.1300   34.7880   44.5630 N   0  0  0  0  0  0  0  0  0  0  0  0
   56.1730   26.6500   46.0510 C   0  0  0  0  0  0  0  0  0  0  0  0
   54.7840   26.5910   46.0100 O   0  0  0  0  0  0  0  0  0  0  0  0
   56.8680   25.5650   46.5930 C   0  0  0  0  0  0  0  0  0  0  0  0
   58.2570   25.6070   46.7050 C   0  0  0  0  0  0  0  0  0  0  0  0
  1  2  1  0
  2  3  1  0
  3  4  2  0
  4  5  1  0
  5  6  2  0
  5  7  1  0
  7  8  2  0
  8  9  1  0
  9 10  2  0
 10 11  1  0
 11 12  2  0
 11 13  1  0
 13 14  1  0
 13 15  1  0
 13 16  1  0
 16 17  1  0
 17 18  2  0
 17 19  1  0
  3 20  1  0
 20 21  1  0
 20 22  2  0
 22 23  1  0
 23  1  2  0
 12  7  1  0
 19 10  1  0
M  CHG  3   2  -1  19  -1  21  -1
M  END
>  <UniqueID>  (504) 
6

>  <SMILES>  (504) 
CC1(C)CC(=O)[N-]c2ccc(C(=O)/N=c3/[n-]cccc3[O-])cc21

>  <Energy>  (504) 
55.60392549334612

>  <Genealogy>  (504) 
CC1(C)CC(=O)[N-]c2ccc(C(=O)N=c3[n-]cccc3[O-])cc21 (protonated)
CC1(C)CC(=O)[N-]c2ccc(C(=O)/N=c3/[n-]cccc3[O-])cc21 (cis-trans isomerization)
CC1(C)CC(=O)[N-]c2ccc(C(=O)/N=c3/[n-]cccc3[O-])cc21 (3D coordinates assigned)
CC1(C)CC(=O)[N-]c2ccc(C(=O)/N=c3/[n-]cccc3[O-])cc21 (nonaromatic ring conformer: 55.60392549334612 kcal/mol)

>  <smiles>  (504) 
CC1(C)CC(=O)Nc2ccc(C(=O)N=c3[nH]cccc3O)cc21

>  <score_type>  (504) 
oracle

>  <origin>  (504) 
adg

>  <m_score__min__energy>  (504) 
-14.380000000000001

>  <m_primary>  (504) 
energy

$$$$
14:0
     RDKit          3D

 23 24  0  0  0  0  0  0  0  0999 V2000
   57.8580   32.3290   50.1620 N   0  0  0  0  0  0  0  0  0  0  0  0
   59.2240   32.8440   49.2400 S   0  0  0  0  0  0  0  0  0  0  0  0
   59.7810   34.1080   49.8340 O   0  0  0  0  0  0  0  0  0  0  0  0
   60.2880   31.7830   49.2830 O   0  0  0  0  0  0  0  0  0  0  0  0
   58.7340   33.1340   47.5730 C   0  0  0  0  0  0  0  0  0  0  0  0
   58.9580   34.3830   46.9810 C   0  0  0  0  0  0  0  0  0  0  0  0
   58.5850   34.6080   45.6550 C   0  0  0  0  0  0  0  0  0  0  0  0
   57.9840   33.5880   44.9120 C   0  0  0  0  0  0  0  0  0  0  0  0
   57.7440   32.3310   45.4940 C   0  0  0  0  0  0  0  0  0  0  0  0
   57.1160   31.2400   44.7130 C   0  0  0  0  0  0  0  0  0  0  0  0
   55.8690   31.2480   44.5320 O   0  0  0  0  0  0  0  0  0  0  0  0
   57.8760   30.1400   44.1940 N   0  0  0  0  0  0  0  0  0  0  0  0
   58.0610   28.8630   44.8260 C   0  0  0  0  0  0  0  0  0  0  0  0
   59.3420   28.3060   44.9600 C   0  0  0  0  0  0  0  0  0  0  0  0
   59.5100   27.0610   45.5600 C   0  0  0  0  0  0  0  0  0  0  0  0
   58.4040   26.3480   46.0190 C   0  0  0  0  0  0  0  0  0  0  0  0
   57.1040   26.8680   45.8770 C   0  0  0  0  0  0  0  0  0  0  0  0
   55.9460   26.0760   46.3690 C   0  0  0  0  0  0  0  0  0  0  0  0
   56.1170   25.1570   47.2130 O   0  0  0  0  0  0  0  0  0  0  0  0
   54.6570   26.3280   45.9150 O   0  0  0  0  0  0  0  0  0  0  0  0
   56.9350   28.1370   45.2690 C   0  0  0  0  0  0  0  0  0  0  0  0
   55.6530   28.6700   45.1140 O   0  0  0  0  0  0  0  0  0  0  0  0
   58.1390   32.1080   46.8250 C   0  0  0  0  0  0  0  0  0  0  0  0
  1  2  1  0
  2  3  2  0
  2  4  2  0
  2  5  1  0
  5  6  2  0
  6  7  1  0
  7  8  2  0
  8  9  1  0
  9 10  1  0
 10 11  2  0
 10 12  1  0
 12 13  1  0
 13 14  2  0
 14 15  1  0
 15 16  2  0
 16 17  1  0
 17 18  1  0
 18 19  2  0
 18 20  1  0
 17 21  2  0
 21 22  1  0
  9 23  2  0
 23  5  1  0
 21 13  1  0
M  CHG  3   1  -1  12  -1  20  -1
M  END
>  <UniqueID>  (505) 
12

>  <SMILES>  (505) 
[NH-]S(=O)(=O)c1cccc(C(=O)[N-]c2cccc(C(=O)[O-])c2O)c1

>  <Energy>  (505) 
42.515357429048194

>  <Genealogy>  (505) 
[NH-]S(=O)(=O)c1cccc(C(=O)[N-]c2cccc(C(=O)[O-])c2O)c1 (protonated)
[NH-]S(=O)(=O)c1cccc(C(=O)[N-]c2cccc(C(=O)[O-])c2O)c1 (3D coordinates assigned)
[NH-]S(=O)(=O)c1cccc(C(=O)[N-]c2cccc(C(=O)[O-])c2O)c1 (optimized conformer: 42.515357429048194 kcal/mol)

>  <smiles>  (505) 
NS(=O)(=O)c1cccc(C(=O)Nc2cccc(C(=O)O)c2O)c1

>  <score_type>  (505) 
oracle

>  <origin>  (505) 
adg

>  <m_score__min__energy>  (505) 
-14.35

>  <m_primary>  (505) 
energy

$$$$
51:0
     RDKit          3D

 36 39  0  0  0  0  0  0  0  0999 V2000
   57.2680   33.8450   45.2550 C   0  0  0  0  0  0  0  0  0  0  0  0
   57.8190   32.5560   45.7860 C   0  0  0  0  0  0  0  0  0  0  0  0
   57.3730   31.3920   45.2490 N   0  0  0  0  0  0  0  0  0  0  0  0
   57.8180   30.1860   45.6740 C   0  0  0  0  0  0  0  0  0  0  0  0
   57.2610   28.6760   44.9070 S   0  0  0  0  0  0  0  0  0  0  0  0
   58.7310   27.6630   45.2870 C   0  0  0  0  0  0  0  0  0  0  0  0
   58.4810   26.6240   46.3310 C   0  0  0  0  0  0  0  0  0  0  0  0
   59.4550   25.9870   46.8160 O   0  0  0  0  0  0  0  0  0  0  0  0
   57.1370   26.2900   46.6970 N   0  0  0  0  0  0  0  0  0  0  0  0
   56.4720   25.1140   46.2160 C   0  0  0  0  0  0  0  0  0  0  0  0
   57.1990   23.9250   46.1180 C   0  0  0  0  0  0  0  0  0  0  0  0
   56.5550   22.7190   45.7990 C   0  0  0  0  0  0  0  0  0  0  0  0
   57.4690   21.2130   45.7830 S   0  0  0  0  0  0  0  0  0  0  0  0
   57.0220   20.3740   44.6180 O   0  0  0  0  0  0  0  0  0  0  0  0
   58.9300   21.5170   45.6030 O   0  0  0  0  0  0  0  0  0  0  0  0
   57.2600   20.3080   47.2620 N   0  0  0  0  0  0  0  0  0  0  0  0
   58.4740   19.5370   47.5830 C   0  0  0  0  0  0  0  0  0  0  0  0
   58.3660   18.9010   48.9810 C   0  0  0  0  0  0  0  0  0  0  0  0
   57.0430   18.9850   49.4810 O   0  0  0  0  0  0  0  0  0  0  0  0
   56.6820   20.3460   49.6600 C   0  0  0  0  0  0  0  0  0  0  0  0
   56.9070   21.1920   48.3820 C   0  0  0  0  0  0  0  0  0  0  0  0
   55.1790   22.7200   45.5280 C   0  0  0  0  0  0  0  0  0  0  0  0
   54.4570   23.9140   45.5710 C   0  0  0  0  0  0  0  0  0  0  0  0
   55.0980   25.1120   45.9120 C   0  0  0  0  0  0  0  0  0  0  0  0
   54.3670   26.2940   45.9350 O   0  0  0  0  0  0  0  0  0  0  0  0
   58.7130   30.1200   46.6840 N   0  0  0  0  0  0  0  0  0  0  0  0
   59.1710   31.2440   47.2930 C   0  0  0  0  0  0  0  0  0  0  0  0
   59.9640   31.1320   48.2660 O   0  0  0  0  0  0  0  0  0  0  0  0
   58.7370   32.5160   46.8610 C   0  0  0  0  0  0  0  0  0  0  0  0
   59.2320   33.7790   47.5600 C   0  0  0  0  0  0  0  0  0  0  0  0
   60.7420   33.8390   47.6300 C   0  0  0  0  0  0  0  0  0  0  0  0
   61.3980   33.8750   48.8740 C   0  0  0  0  0  0  0  0  0  0  0  0
   62.7970   33.8980   48.9350 C   0  0  0  0  0  0  0  0  0  0  0  0
   63.5570   33.8710   47.7590 C   0  0  0  0  0  0  0  0  0  0  0  0
   62.9190   33.8260   46.5200 C   0  0  0  0  0  0  0  0  0  0  0  0
   61.5160   33.8130   46.4530 C   0  0  0  0  0  0  0  0  0  0  0  0
  1  2  1  0
  2  3  1  0
  3  4  1  0
  4  5  1  0
  5  6  1  0
  6  7  1  0
  7  8  2  0
  7  9  1  0
  9 10  1  0
 10 11  2  0
 11 12  1  0
 12 13  1  0
 13 14  2  0
 13 15  2  0
 13 16  1  0
 16 17  1  0
 17 18  1  0
 18 19  1  0
 19 20  1  0
 20 21  1  0
 12 22  2  0
 22 23  1  0
 23 24  2  0
 24 25  1  0
  4 26  2  0
 26 27  1  0
 27 28  2  0
 27 29  1  0
 29 30  1  0
 30 31  1  0
 31 32  2  0
 32 33  1  0
 33 34  2  0
 34 35  1  0
 35 36  2  0
 29  2  2  0
 36 31  1  0
 24 10  1  0
 21 16  1  0
M  CHG  3   3  -1   9  -1  25  -1
M  END
>  <UniqueID>  (506) 
44

>  <SMILES>  (506) 
Cc1[n-]c(SCC(=O)[N-]c2cc(S(=O)(=O)N3CCOCC3)ccc2[O-])nc(=O)c1Cc1ccccc1

>  <Energy>  (506) 
76.75051979675517

>  <Genealogy>  (506) 
Cc1[n-]c(SCC(=O)[N-]c2cc(S(=O)(=O)N3CCOCC3)ccc2[O-])nc(=O)c1Cc1ccccc1 (protonated)
Cc1[n-]c(SCC(=O)[N-]c2cc(S(=O)(=O)N3CCOCC3)ccc2[O-])nc(=O)c1Cc1ccccc1 (3D coordinates assigned)
Cc1[n-]c(SCC(=O)[N-]c2cc(S(=O)(=O)N3CCOCC3)ccc2[O-])nc(=O)c1Cc1ccccc1 (nonaromatic ring conformer: 76.75051979675517 kcal/mol)

>  <smiles>  (506) 
Cc1[nH]c(SCC(=O)Nc2cc(S(=O)(=O)N3CCOCC3)ccc2O)nc(=O)c1Cc1ccccc1

>  <score_type>  (506) 
oracle

>  <origin>  (506) 
adg

>  <m_score__min__energy>  (506) 
-18.129999999999999

>  <m_primary>  (506) 
energy

$$$$
61:0
     RDKit          3D

 27 29  0  0  0  0  0  0  0  0999 V2000
   55.7420   30.8640   44.0160 O   0  0  0  0  0  0  0  0  0  0  0  0
   56.3090   29.8710   44.5470 C   0  0  0  0  0  0  0  0  0  0  0  0
   55.5430   28.8470   45.0010 N   0  0  0  0  0  0  0  0  0  0  0  0
   56.0900   27.7570   45.5860 C   0  0  0  0  0  0  0  0  0  0  0  0
   55.2600   26.7180   45.9930 O   0  0  0  0  0  0  0  0  0  0  0  0
   57.4790   27.6790   45.7560 C   0  0  0  0  0  0  0  0  0  0  0  0
   58.1190   26.4980   46.3840 C   0  0  0  0  0  0  0  0  0  0  0  0
   58.7990   25.5500   45.7210 C   0  0  0  0  0  0  0  0  0  0  0  0
   58.1970   24.3550   45.0820 C   0  0  0  0  0  0  0  0  0  0  0  0
   56.9760   24.4390   44.3910 C   0  0  0  0  0  0  0  0  0  0  0  0
   56.4080   23.3020   43.8130 C   0  0  0  0  0  0  0  0  0  0  0  0
   57.0420   22.0590   43.9360 C   0  0  0  0  0  0  0  0  0  0  0  0
   56.4850   20.9180   43.3630 O   0  0  0  0  0  0  0  0  0  0  0  0
   58.2430   21.9620   44.6450 C   0  0  0  0  0  0  0  0  0  0  0  0
   58.8180   23.0990   45.2230 C   0  0  0  0  0  0  0  0  0  0  0  0
   60.0130   22.9750   45.9240 O   0  0  0  0  0  0  0  0  0  0  0  0
   58.2650   28.7320   45.2590 C   0  0  0  0  0  0  0  0  0  0  0  0
   59.5220   28.6740   45.3820 O   0  0  0  0  0  0  0  0  0  0  0  0
   57.6760   29.8180   44.6570 N   0  0  0  0  0  0  0  0  0  0  0  0
   58.4980   30.9370   44.1500 C   0  0  0  0  0  0  0  0  0  0  0  0
   57.8240   32.2920   44.4040 C   0  0  0  0  0  0  0  0  0  0  0  0
   58.4680   33.0340   45.5470 C   0  0  0  0  0  0  0  0  0  0  0  0
   59.1010   34.2700   45.3260 C   0  0  0  0  0  0  0  0  0  0  0  0
   59.6860   34.9610   46.3930 C   0  0  0  0  0  0  0  0  0  0  0  0
   59.6290   34.4320   47.6850 C   0  0  0  0  0  0  0  0  0  0  0  0
   58.9920   33.2100   47.9140 C   0  0  0  0  0  0  0  0  0  0  0  0
   58.4140   32.5110   46.8490 C   0  0  0  0  0  0  0  0  0  0  0  0
  1  2  2  0
  2  3  1  0
  3  4  1  0
  4  5  1  0
  4  6  2  0
  6  7  1  0
  7  8  2  3
  8  9  1  0
  9 10  2  0
 10 11  1  0
 11 12  2  0
 12 13  1  0
 12 14  1  0
 14 15  2  0
 15 16  1  0
  6 17  1  0
 17 18  2  0
 17 19  1  0
 19 20  1  0
 20 21  1  0
 21 22  1  0
 22 23  2  0
 23 24  1  0
 24 25  2  0
 25 26  1  0
 26 27  2  0
 19  2  1  0
 27 22  1  0
 15  9  1  0
M  CHG  3   3  -1   5  -1  16  -1
M  END
>  <UniqueID>  (507) 
54

>  <SMILES>  (507) 
O=c1[n-]c([O-])c(C=Cc2ccc(O)cc2[O-])c(=O)n1CCc1ccccc1

>  <Energy>  (507) 
56.1118707507465

>  <Genealogy>  (507) 
O=c1[n-]c([O-])c(C=Cc2ccc(O)cc2[O-])c(=O)n1CCc1ccccc1 (protonated)
O=c1[n-]c([O-])c(C=Cc2ccc(O)cc2[O-])c(=O)n1CCc1ccccc1 (3D coordinates assigned)
O=c1[n-]c([O-])c(C=Cc2ccc(O)cc2[O-])c(=O)n1CCc1ccccc1 (optimized conformer: 56.1118707507465 kcal/mol)

>  <smiles>  (507) 
O=c1[nH]c(O)c(C=Cc2ccc(O)cc2O)c(=O)n1CCc1ccccc1

>  <score_type>  (507) 
oracle

>  <origin>  (507) 
adg

>  <m_score__min__energy>  (507) 
-17.100000000000001

>  <m_primary>  (507) 
energy

$$$$
69:0
     RDKit          3D

 23 25  0  0  0  0  0  0  0  0999 V2000
   55.1360   26.7200   45.9900 N   0  0  0  0  0  0  0  0  0  0  0  0
   56.3180   26.1270   46.5290 C   0  0  0  0  0  0  0  0  0  0  0  0
   56.2570   24.9540   46.9870 O   0  0  0  0  0  0  0  0  0  0  0  0
   57.5970   26.8830   46.5420 C   0  0  0  0  0  0  0  0  0  0  0  0
   58.5370   26.6240   47.5570 C   0  0  0  0  0  0  0  0  0  0  0  0
   59.7640   27.2900   47.5790 C   0  0  0  0  0  0  0  0  0  0  0  0
   60.0740   28.2200   46.5900 C   0  0  0  0  0  0  0  0  0  0  0  0
   59.1610   28.4860   45.5720 C   0  0  0  0  0  0  0  0  0  0  0  0
   57.9270   27.8200   45.5310 C   0  0  0  0  0  0  0  0  0  0  0  0
   57.0230   28.0910   44.4530 N   0  0  0  0  0  0  0  0  0  0  0  0
   56.2900   29.3160   44.3120 C   0  0  0  0  0  0  0  0  0  0  0  0
   55.1700   29.4240   44.8750 O   0  0  0  0  0  0  0  0  0  0  0  0
   56.8040   30.4540   43.4680 C   0  0  0  0  0  0  0  0  0  0  0  0
   57.5460   31.4050   44.2920 N   0  0  0  0  0  0  0  0  0  0  0  0
   57.7820   31.2720   45.9400 S   0  0  0  0  0  0  0  0  0  0  0  0
   58.5380   32.7370   46.1910 C   0  0  0  0  0  0  0  0  0  0  0  0
   58.9910   33.3220   47.3680 C   0  0  0  0  0  0  0  0  0  0  0  0
   59.5550   34.6040   47.2880 C   0  0  0  0  0  0  0  0  0  0  0  0
   59.6500   35.2640   46.0470 C   0  0  0  0  0  0  0  0  0  0  0  0
   59.1830   34.6480   44.8700 C   0  0  0  0  0  0  0  0  0  0  0  0
   58.6230   33.3690   44.9580 C   0  0  0  0  0  0  0  0  0  0  0  0
   58.0720   32.6030   43.9100 C   0  0  0  0  0  0  0  0  0  0  0  0
   58.0510   33.0000   42.7130 O   0  0  0  0  0  0  0  0  0  0  0  0
  1  2  1  0
  2  3  2  0
  2  4  1  0
  4  5  2  0
  5  6  1  0
  6  7  2  0
  7  8  1  0
  8  9  2  0
  9 10  1  0
 10 11  1  0
 11 12  2  0
 11 13  1  0
 13 14  1  0
 14 15  1  0
 15 16  1  0
 16 17  2  0
 17 18  1  0
 18 19  2  0
 19 20  1  0
 20 21  2  0
 21 22  1  0
 22 23  2  0
  9  4  1  0
 22 14  1  0
 21 16  1  0
M  CHG  2   1  -1  10  -1
M  END
>  <UniqueID>  (508) 
62

>  <SMILES>  (508) 
[NH-]C(=O)c1ccccc1[N-]C(=O)Cn1sc2ccccc2c1=O

>  <Energy>  (508) 
80.52389227052363

>  <Genealogy>  (508) 
[NH-]C(=O)c1ccccc1[N-]C(=O)Cn1sc2ccccc2c1=O (protonated)
[NH-]C(=O)c1ccccc1[N-]C(=O)Cn1sc2ccccc2c1=O (3D coordinates assigned)
[NH-]C(=O)c1ccccc1[N-]C(=O)Cn1sc2ccccc2c1=O (optimized conformer: 80.52389227052363 kcal/mol)

>  <smiles>  (508) 
NC(=O)c1ccccc1NC(=O)Cn1sc2ccccc2c1=O

>  <score_type>  (508) 
oracle

>  <origin>  (508) 
adg

>  <m_score__min__energy>  (508) 
-14.27

>  <m_primary>  (508) 
energy

$$$$
84:0
     RDKit          3D

 24 25  0  0  0  0  0  0  0  0999 V2000
   60.0010   27.7650   48.1700 C   0  0  0  0  0  0  0  0  0  0  0  0
   59.9360   29.2570   48.0320 C   0  0  0  0  0  0  0  0  0  0  0  0
   58.6980   29.9130   48.0570 C   0  0  0  0  0  0  0  0  0  0  0  0
   58.6300   31.2960   47.8890 C   0  0  0  0  0  0  0  0  0  0  0  0
   59.8010   32.0540   47.7170 C   0  0  0  0  0  0  0  0  0  0  0  0
   59.7380   33.4780   47.5510 N   0  0  0  0  0  0  0  0  0  0  0  0
   58.9120   34.2170   46.6360 C   0  0  0  0  0  0  0  0  0  0  0  0
   59.2640   35.3820   46.3170 O   0  0  0  0  0  0  0  0  0  0  0  0
   57.5910   33.7010   46.1300 C   0  0  0  0  0  0  0  0  0  0  0  0
   57.6680   33.3480   44.3420 S   0  0  0  0  0  0  0  0  0  0  0  0
   57.6310   31.5700   44.5410 C   0  0  0  0  0  0  0  0  0  0  0  0
   58.7910   30.8710   44.5860 N   0  0  0  0  0  0  0  0  0  0  0  0
   58.7940   29.5220   44.7420 C   0  0  0  0  0  0  0  0  0  0  0  0
   59.8970   28.9160   44.7830 O   0  0  0  0  0  0  0  0  0  0  0  0
   57.5750   28.8180   44.8350 C   0  0  0  0  0  0  0  0  0  0  0  0
   57.5400   27.3800   44.9610 N   0  0  0  0  0  0  0  0  0  0  0  0
   57.8760   26.6470   44.0080 O   0  0  0  0  0  0  0  0  0  0  0  0
   57.1160   26.7870   46.1290 O   0  0  0  0  0  0  0  0  0  0  0  0
   56.3870   29.5730   44.7970 C   0  0  0  0  0  0  0  0  0  0  0  0
   55.1440   28.9630   44.9160 O   0  0  0  0  0  0  0  0  0  0  0  0
   56.4440   30.9220   44.6600 N   0  0  0  0  0  0  0  0  0  0  0  0
   61.0440   31.3890   47.6170 C   0  0  0  0  0  0  0  0  0  0  0  0
   62.3020   32.1300   47.2560 C   0  0  0  0  0  0  0  0  0  0  0  0
   61.1000   29.9950   47.7780 C   0  0  0  0  0  0  0  0  0  0  0  0
  1  2  1  0
  2  3  2  0
  3  4  1  0
  4  5  2  0
  5  6  1  0
  6  7  1  0
  7  8  2  0
  7  9  1  0
  9 10  1  0
 10 11  1  0
 11 12  2  0
 12 13  1  0
 13 14  2  0
 13 15  1  0
 15 16  1  0
 16 17  2  0
 16 18  1  0
 15 19  2  0
 19 20  1  0
 19 21  1  0
  5 22  1  0
 22 23  1  0
 22 24  2  0
 24  2  1  0
 21 11  1  0
M  CHG  5   6  -1  16   1  18  -1  20  -1  21  -1
M  END
>  <UniqueID>  (509) 
75

>  <SMILES>  (509) 
Cc1ccc([N-]C(=O)CSc2nc(=O)c([N+](=O)[O-])c([O-])[n-]2)c(C)c1

>  <Energy>  (509) 
38.502675644278334

>  <Genealogy>  (509) 
Cc1ccc([N-]C(=O)CSc2nc(=O)c([N+](=O)[O-])c([O-])[n-]2)c(C)c1 (protonated)
Cc1ccc([N-]C(=O)CSc2nc(=O)c([N+](=O)[O-])c([O-])[n-]2)c(C)c1 (3D coordinates assigned)
Cc1ccc([N-]C(=O)CSc2nc(=O)c([N+](=O)[O-])c([O-])[n-]2)c(C)c1 (optimized conformer: 38.502675644278334 kcal/mol)

>  <smiles>  (509) 
Cc1ccc(NC(=O)CSc2nc(=O)c([N+](=O)[O-])c(O)[nH]2)c(C)c1

>  <score_type>  (509) 
oracle

>  <origin>  (509) 
adg

>  <m_score__min__energy>  (509) 
-14.4

>  <m_primary>  (509) 
energy

$$$$
7:0
     RDKit          3D

 33 37  0  0  0  0  0  0  0  0999 V2000
   56.0890   31.9610   52.2340 C   0  0  0  0  0  0  0  0  0  0  0  0
   55.5340   30.7730   52.5180 C   0  0  0  0  0  0  0  0  0  0  0  0
   54.1690   30.4920   52.6980 C   0  0  0  0  0  0  0  0  0  0  0  0
   53.0720   31.2420   52.4760 C   0  0  0  0  0  0  0  0  0  0  0  0
   52.3180   31.3050   51.2130 C   0  0  0  0  0  0  0  0  0  0  0  0
   52.3240   30.3460   50.2680 N   0  0  0  0  0  0  0  0  0  0  0  0
   51.3950   30.7740   49.3860 C   0  0  0  0  0  0  0  0  0  0  0  0
   51.1190   30.1410   48.3330 O   0  0  0  0  0  0  0  0  0  0  0  0
   50.7800   31.9280   49.7240 N   0  0  0  0  0  0  0  0  0  0  0  0
   51.3670   32.2400   50.8910 C   0  0  0  0  0  0  0  0  0  0  0  0
   51.0370   33.3590   51.6460 O   0  0  0  0  0  0  0  0  0  0  0  0
   54.1000   29.1880   53.1650 C   0  0  0  0  0  0  0  0  0  0  0  0
   55.3910   28.7040   53.1940 C   0  0  0  0  0  0  0  0  0  0  0  0
   55.7780   27.3210   53.6210 C   0  0  0  0  0  0  0  0  0  0  0  0
   56.2590   29.6580   52.7930 N   0  0  0  0  0  0  0  0  0  0  0  0
   57.6900   29.5170   52.7640 C   0  0  0  0  0  0  0  0  0  0  0  0
   58.4210   29.5450   53.9590 C   0  0  0  0  0  0  0  0  0  0  0  0
   59.8120   29.4240   53.9320 C   0  0  0  0  0  0  0  0  0  0  0  0
   60.4810   29.2740   52.7140 C   0  0  0  0  0  0  0  0  0  0  0  0
   59.7600   29.2380   51.5060 C   0  0  0  0  0  0  0  0  0  0  0  0
   60.4660   29.0960   50.2110 C   0  0  0  0  0  0  0  0  0  0  0  0
   61.3870   28.2420   50.0950 O   0  0  0  0  0  0  0  0  0  0  0  0
   60.0990   29.8930   49.0720 N   0  0  0  0  0  0  0  0  0  0  0  0
   60.9660   31.0020   48.6420 C   0  0  0  0  0  0  0  0  0  0  0  0
   60.1260   32.1340   48.1280 C   0  0  0  0  0  0  0  0  0  0  0  0
   60.4670   33.4710   48.3740 C   0  0  0  0  0  0  0  0  0  0  0  0
   59.6740   34.5010   47.8590 C   0  0  0  0  0  0  0  0  0  0  0  0
   58.5480   34.2000   47.0880 C   0  0  0  0  0  0  0  0  0  0  0  0
   58.2100   32.8690   46.8290 C   0  0  0  0  0  0  0  0  0  0  0  0
   58.9920   31.8300   47.3560 C   0  0  0  0  0  0  0  0  0  0  0  0
   58.6870   30.3880   47.0530 C   0  0  0  0  0  0  0  0  0  0  0  0
   58.9100   29.5010   48.2920 C   0  0  0  0  0  0  0  0  0  0  0  0
   58.3610   29.3740   51.5410 C   0  0  0  0  0  0  0  0  0  0  0  0
  1  2  2  0
  2  3  1  0
  3  4  2  0
  4  5  1  0
  5  6  1  0
  6  7  1  0
  7  8  2  0
  7  9  1  0
  9 10  1  0
 10 11  1  0
  3 12  1  0
 12 13  2  0
 13 14  1  0
 13 15  1  0
 15 16  1  0
 16 17  2  0
 17 18  1  0
 18 19  2  0
 19 20  1  0
 20 21  1  0
 21 22  2  0
 21 23  1  0
 23 24  1  0
 24 25  1  0
 25 26  2  0
 26 27  1  0
 27 28  2  0
 28 29  1  0
 29 30  2  0
 30 31  1  0
 31 32  1  0
 20 33  2  0
 15  2  1  0
 33 16  1  0
 10  5  2  0
 32 23  1  0
 30 25  1  0
M  CHG  3   6  -1   9  -1  11  -1
M  END
>  <UniqueID>  (510) 
7

>  <SMILES>  (510) 
C=c1/c(=C\c2[n-]c(=O)[n-]c2[O-])cc(C)n1-c1cccc(C(=O)N2CCc3ccccc3C2)c1

>  <Energy>  (510) 
142.39422737721375

>  <Genealogy>  (510) 
C=c1c(=Cc2[n-]c(=O)[n-]c2[O-])cc(C)n1-c1cccc(C(=O)N2CCc3ccccc3C2)c1 (protonated)
C=c1/c(=C\c2[n-]c(=O)[n-]c2[O-])cc(C)n1-c1cccc(C(=O)N2CCc3ccccc3C2)c1 (cis-trans isomerization)
C=c1/c(=C\c2[n-]c(=O)[n-]c2[O-])cc(C)n1-c1cccc(C(=O)N2CCc3ccccc3C2)c1 (3D coordinates assigned)
C=c1/c(=C\c2[n-]c(=O)[n-]c2[O-])cc(C)n1-c1cccc(C(=O)N2CCc3ccccc3C2)c1 (nonaromatic ring conformer: 142.39422737721375 kcal/mol)

>  <smiles>  (510) 
C=c1c(=Cc2[nH]c(=O)[nH]c2O)cc(C)n1-c1cccc(C(=O)N2CCc3ccccc3C2)c1

>  <score_type>  (510) 
oracle

>  <origin>  (510) 
adg

>  <m_score__min__energy>  (510) 
-18.550000000000001

>  <m_primary>  (510) 
energy

$$$$
33:0
     RDKit          3D

 27 29  0  0  0  0  0  0  0  0999 V2000
   57.6830   34.7000   44.7700 O   0  0  0  0  0  0  0  0  0  0  0  0
   57.9510   33.7690   45.5730 C   0  0  0  0  0  0  0  0  0  0  0  0
   57.1080   32.6120   45.5980 N   0  0  0  0  0  0  0  0  0  0  0  0
   57.6100   31.0090   45.1580 S   0  0  0  0  0  0  0  0  0  0  0  0
   58.4180   31.0750   43.8930 O   0  0  0  0  0  0  0  0  0  0  0  0
   56.3960   30.1620   44.8950 O   0  0  0  0  0  0  0  0  0  0  0  0
   58.5490   30.2670   46.4680 C   0  0  0  0  0  0  0  0  0  0  0  0
   58.8810   31.0650   47.5770 C   0  0  0  0  0  0  0  0  0  0  0  0
   59.6140   30.5420   48.6410 C   0  0  0  0  0  0  0  0  0  0  0  0
   60.0480   29.2210   48.6050 C   0  0  0  0  0  0  0  0  0  0  0  0
   59.7420   28.4140   47.5090 C   0  0  0  0  0  0  0  0  0  0  0  0
   58.9660   28.9060   46.4390 C   0  0  0  0  0  0  0  0  0  0  0  0
   58.7000   27.9980   45.2490 C   0  0  0  0  0  0  0  0  0  0  0  0
   57.5850   27.0090   45.5130 C   0  0  0  0  0  0  0  0  0  0  0  0
   56.2660   27.4610   45.6440 C   0  0  0  0  0  0  0  0  0  0  0  0
   55.2640   26.5820   45.8990 N   0  0  0  0  0  0  0  0  0  0  0  0
   55.5170   25.2550   46.0330 C   0  0  0  0  0  0  0  0  0  0  0  0
   54.5740   24.4550   46.2700 O   0  0  0  0  0  0  0  0  0  0  0  0
   56.7870   24.7890   45.9120 N   0  0  0  0  0  0  0  0  0  0  0  0
   57.8220   25.6300   45.6580 C   0  0  0  0  0  0  0  0  0  0  0  0
   58.9870   25.1610   45.5580 O   0  0  0  0  0  0  0  0  0  0  0  0
   59.1110   33.9110   46.4700 C   0  0  0  0  0  0  0  0  0  0  0  0
   58.9290   34.2500   47.8190 C   0  0  0  0  0  0  0  0  0  0  0  0
   60.0360   34.3980   48.6620 C   0  0  0  0  0  0  0  0  0  0  0  0
   61.3270   34.2010   48.1630 C   0  0  0  0  0  0  0  0  0  0  0  0
   61.5130   33.8430   46.8250 C   0  0  0  0  0  0  0  0  0  0  0  0
   60.4080   33.6900   45.9810 C   0  0  0  0  0  0  0  0  0  0  0  0
  1  2  2  0
  2  3  1  0
  3  4  1  0
  4  5  2  0
  4  6  2  0
  4  7  1  0
  7  8  2  0
  8  9  1  0
  9 10  2  0
 10 11  1  0
 11 12  2  0
 12 13  1  0
 13 14  1  0
 14 15  2  0
 15 16  1  0
 16 17  1  0
 17 18  2  0
 17 19  1  0
 19 20  1  0
 20 21  2  0
  2 22  1  0
 22 23  2  0
 23 24  1  0
 24 25  2  0
 25 26  1  0
 26 27  2  0
 12  7  1  0
 20 14  1  0
 27 22  1  0
M  CHG  3   3  -1  16  -1  19  -1
M  END
>  <UniqueID>  (511) 
32

>  <SMILES>  (511) 
O=C([N-]S(=O)(=O)c1ccccc1Cc1c[n-]c(=O)[n-]c1=O)c1ccccc1

>  <Energy>  (511) 
52.28076224833055

>  <Genealogy>  (511) 
O=C([N-]S(=O)(=O)c1ccccc1Cc1c[n-]c(=O)[n-]c1=O)c1ccccc1 (protonated)
O=C([N-]S(=O)(=O)c1ccccc1Cc1c[n-]c(=O)[n-]c1=O)c1ccccc1 (3D coordinates assigned)
O=C([N-]S(=O)(=O)c1ccccc1Cc1c[n-]c(=O)[n-]c1=O)c1ccccc1 (optimized conformer: 52.28076224833055 kcal/mol)

>  <smiles>  (511) 
O=C(NS(=O)(=O)c1ccccc1Cc1c[nH]c(=O)[nH]c1=O)c1ccccc1

>  <score_type>  (511) 
oracle

>  <origin>  (511) 
adg

>  <m_score__min__energy>  (511) 
-15.220000000000001

>  <m_primary>  (511) 
energy

$$$$
42:0
     RDKit          3D

 27 29  0  0  0  0  0  0  0  0999 V2000
   55.8930   30.3830   43.2240 O   0  0  0  0  0  0  0  0  0  0  0  0
   56.4000   30.6240   44.3510 C   0  0  0  0  0  0  0  0  0  0  0  0
   57.0860   29.5140   45.1020 C   0  0  0  0  0  0  0  0  0  0  0  0
   56.1740   28.3920   45.3390 N   0  0  0  0  0  0  0  0  0  0  0  0
   56.6260   27.0750   45.7170 C   0  0  0  0  0  0  0  0  0  0  0  0
   58.0000   26.7630   45.7890 C   0  0  0  0  0  0  0  0  0  0  0  0
   58.4190   25.4820   46.1590 C   0  0  0  0  0  0  0  0  0  0  0  0
   57.4790   24.4970   46.4620 C   0  0  0  0  0  0  0  0  0  0  0  0
   56.1150   24.7910   46.3970 C   0  0  0  0  0  0  0  0  0  0  0  0
   55.6860   26.0710   46.0270 C   0  0  0  0  0  0  0  0  0  0  0  0
   54.3220   26.3350   45.9690 O   0  0  0  0  0  0  0  0  0  0  0  0
   56.2730   31.9440   44.8980 N   0  0  0  0  0  0  0  0  0  0  0  0
   57.3460   32.8010   45.3120 C   0  0  0  0  0  0  0  0  0  0  0  0
   57.8490   33.8090   44.4710 C   0  0  0  0  0  0  0  0  0  0  0  0
   58.8760   34.6440   44.9150 C   0  0  0  0  0  0  0  0  0  0  0  0
   59.3930   34.4970   46.2040 C   0  0  0  0  0  0  0  0  0  0  0  0
   58.8750   33.5200   47.0640 C   0  0  0  0  0  0  0  0  0  0  0  0
   59.5030   33.3560   48.7060 S   0  0  0  0  0  0  0  0  0  0  0  0
   58.5160   32.5840   49.5400 O   0  0  0  0  0  0  0  0  0  0  0  0
   59.6570   34.7220   49.3170 O   0  0  0  0  0  0  0  0  0  0  0  0
   61.0480   32.5370   48.7300 N   0  0  0  0  0  0  0  0  0  0  0  0
   61.2850   31.8480   47.4470 C   0  0  0  0  0  0  0  0  0  0  0  0
   62.7850   31.5730   47.2500 C   0  0  0  0  0  0  0  0  0  0  0  0
   63.5920   32.7440   47.2330 O   0  0  0  0  0  0  0  0  0  0  0  0
   63.0080   33.8550   47.8990 C   0  0  0  0  0  0  0  0  0  0  0  0
   62.1470   33.4520   49.1090 C   0  0  0  0  0  0  0  0  0  0  0  0
   57.8490   32.6750   46.6120 C   0  0  0  0  0  0  0  0  0  0  0  0
  1  2  2  0
  2  3  1  0
  3  4  1  0
  4  5  1  0
  5  6  2  0
  6  7  1  0
  7  8  2  0
  8  9  1  0
  9 10  2  0
 10 11  1  0
  2 12  1  0
 12 13  1  0
 13 14  2  0
 14 15  1  0
 15 16  2  0
 16 17  1  0
 17 18  1  0
 18 19  2  0
 18 20  2  0
 18 21  1  0
 21 22  1  0
 22 23  1  0
 23 24  1  0
 24 25  1  0
 25 26  1  0
 17 27  2  0
 10  5  1  0
 27 13  1  0
 26 21  1  0
M  CHG  2  11  -1  12  -1
M  END
>  <UniqueID>  (512) 
39

>  <SMILES>  (512) 
O=C(CNc1ccccc1[O-])[N-]c1cccc(S(=O)(=O)N2CCOCC2)c1

>  <Energy>  (512) 
64.32822955846598

>  <Genealogy>  (512) 
O=C(CNc1ccccc1[O-])[N-]c1cccc(S(=O)(=O)N2CCOCC2)c1 (protonated)
O=C(CNc1ccccc1[O-])[N-]c1cccc(S(=O)(=O)N2CCOCC2)c1 (3D coordinates assigned)
O=C(CNc1ccccc1[O-])[N-]c1cccc(S(=O)(=O)N2CCOCC2)c1 (nonaromatic ring conformer: 64.32822955846598 kcal/mol)

>  <smiles>  (512) 
O=C(CNc1ccccc1O)Nc1cccc(S(=O)(=O)N2CCOCC2)c1

>  <score_type>  (512) 
oracle

>  <origin>  (512) 
adg

>  <m_score__min__energy>  (512) 
-14.800000000000001

>  <m_primary>  (512) 
energy

$$$$
44:0
     RDKit          3D

 18 19  0  0  0  0  0  0  0  0999 V2000
   57.1690   28.0400   45.0370 C   0  0  0  0  0  0  0  0  0  0  0  0
   56.9700   29.2450   45.4910 N   0  0  0  0  0  0  0  0  0  0  0  0
   57.3830   30.4840   44.8910 C   0  0  0  0  0  0  0  0  0  0  0  0
   57.3030   30.6960   43.5020 C   0  0  0  0  0  0  0  0  0  0  0  0
   57.6840   31.9240   42.9540 C   0  0  0  0  0  0  0  0  0  0  0  0
   58.1250   32.9550   43.7870 C   0  0  0  0  0  0  0  0  0  0  0  0
   58.1750   32.7640   45.1720 C   0  0  0  0  0  0  0  0  0  0  0  0
   58.7580   34.1810   46.3120 Br  0  0  0  0  0  0  0  0  0  0  0  0
   57.7940   31.5350   45.7210 C   0  0  0  0  0  0  0  0  0  0  0  0
   57.2030   26.8270   45.8870 C   0  0  0  0  0  0  0  0  0  0  0  0
   56.0250   26.2020   46.3310 C   0  0  0  0  0  0  0  0  0  0  0  0
   54.7760   26.6990   45.9760 O   0  0  0  0  0  0  0  0  0  0  0  0
   56.0990   25.0850   47.0990 N   0  0  0  0  0  0  0  0  0  0  0  0
   57.2970   24.5420   47.4340 C   0  0  0  0  0  0  0  0  0  0  0  0
   57.3410   23.5090   48.1510 O   0  0  0  0  0  0  0  0  0  0  0  0
   58.4480   25.1100   46.9920 N   0  0  0  0  0  0  0  0  0  0  0  0
   58.4280   26.2290   46.2240 C   0  0  0  0  0  0  0  0  0  0  0  0
   59.5160   26.7280   45.8300 O   0  0  0  0  0  0  0  0  0  0  0  0
  1  2  2  0
  2  3  1  0
  3  4  2  0
  4  5  1  0
  5  6  2  0
  6  7  1  0
  7  8  1  0
  7  9  2  0
  1 10  1  0
 10 11  2  0
 11 12  1  0
 11 13  1  0
 13 14  1  0
 14 15  2  0
 14 16  1  0
 16 17  1  0
 17 18  2  0
  9  3  1  0
 17 10  1  0
M  CHG  3  12  -1  13  -1  16  -1
M  END
>  <UniqueID>  (513) 
41

>  <SMILES>  (513) 
O=c1[n-]c([O-])c(/C=N\c2cccc(Br)c2)c(=O)[n-]1

>  <Energy>  (513) 
38.486830095897496

>  <Genealogy>  (513) 
O=c1[n-]c([O-])c(C=Nc2cccc(Br)c2)c(=O)[n-]1 (protonated)
O=c1[n-]c([O-])c(/C=N\c2cccc(Br)c2)c(=O)[n-]1 (cis-trans isomerization)
O=c1[n-]c([O-])c(/C=N\c2cccc(Br)c2)c(=O)[n-]1 (3D coordinates assigned)
O=c1[n-]c([O-])c(/C=N\c2cccc(Br)c2)c(=O)[n-]1 (optimized conformer: 38.486830095897496 kcal/mol)

>  <smiles>  (513) 
O=c1[nH]c(O)c(C=Nc2cccc(Br)c2)c(=O)[nH]1

>  <score_type>  (513) 
oracle

>  <origin>  (513) 
adg

>  <m_score__min__energy>  (513) 
-14.56

>  <m_primary>  (513) 
energy

$$$$
91:0
     RDKit          3D

 25 27  0  0  0  0  0  0  0  0999 V2000
   55.9280   22.8080   44.7890 C   0  0  0  0  0  0  0  0  0  0  0  0
   56.8940   23.7580   44.6720 N   0  0  0  0  0  0  0  0  0  0  0  0
   56.7110   25.0440   45.0800 C   0  0  0  0  0  0  0  0  0  0  0  0
   57.7090   25.8730   44.9360 N   0  0  0  0  0  0  0  0  0  0  0  0
   57.8690   26.9050   43.9520 C   0  0  0  0  0  0  0  0  0  0  0  0
   58.3710   26.6030   42.8370 O   0  0  0  0  0  0  0  0  0  0  0  0
   57.5320   28.3190   44.2540 C   0  0  0  0  0  0  0  0  0  0  0  0
   57.9200   28.8960   45.4760 C   0  0  0  0  0  0  0  0  0  0  0  0
   57.6250   30.2340   45.7540 C   0  0  0  0  0  0  0  0  0  0  0  0
   56.9380   31.0190   44.8220 C   0  0  0  0  0  0  0  0  0  0  0  0
   56.6810   32.3940   45.1380 N   0  0  0  0  0  0  0  0  0  0  0  0
   57.8070   33.6950   44.9180 S   0  0  0  0  0  0  0  0  0  0  0  0
   58.7020   33.3840   43.7510 O   0  0  0  0  0  0  0  0  0  0  0  0
   57.0490   34.9610   44.6360 O   0  0  0  0  0  0  0  0  0  0  0  0
   58.7580   33.9120   46.3750 C   0  0  0  0  0  0  0  0  0  0  0  0
   60.0100   35.0170   46.5550 S   0  0  0  0  0  0  0  0  0  0  0  0
   60.3980   34.5800   48.1330 C   0  0  0  0  0  0  0  0  0  0  0  0
   59.5450   33.5570   48.5300 C   0  0  0  0  0  0  0  0  0  0  0  0
   58.6250   33.1810   47.5440 C   0  0  0  0  0  0  0  0  0  0  0  0
   56.5280   30.4420   43.6090 C   0  0  0  0  0  0  0  0  0  0  0  0
   56.8220   29.1050   43.3290 C   0  0  0  0  0  0  0  0  0  0  0  0
   55.4510   25.4170   45.6170 C   0  0  0  0  0  0  0  0  0  0  0  0
   55.1520   26.7250   45.9810 O   0  0  0  0  0  0  0  0  0  0  0  0
   54.4550   24.4440   45.7550 C   0  0  0  0  0  0  0  0  0  0  0  0
   54.6930   23.1340   45.3430 C   0  0  0  0  0  0  0  0  0  0  0  0
  1  2  1  0
  2  3  1  0
  3  4  2  0
  4  5  1  0
  5  6  2  0
  5  7  1  0
  7  8  2  0
  8  9  1  0
  9 10  2  0
 10 11  1  0
 11 12  1  0
 12 13  2  0
 12 14  2  0
 12 15  1  0
 15 16  1  0
 16 17  1  0
 17 18  2  0
 18 19  1  0
 10 20  1  0
 20 21  2  0
  3 22  1  0
 22 23  1  0
 22 24  2  0
 24 25  1  0
 25  1  2  0
 21  7  1  0
 19 15  2  0
M  CHG  3   2  -1  11  -1  23  -1
M  END
>  <UniqueID>  (514) 
85

>  <SMILES>  (514) 
O=C(/N=c1/[n-]cccc1[O-])c1ccc([N-]S(=O)(=O)c2cccs2)cc1

>  <Energy>  (514) 
81.26649558936278

>  <Genealogy>  (514) 
O=C(N=c1[n-]cccc1[O-])c1ccc([N-]S(=O)(=O)c2cccs2)cc1 (protonated)
O=C(/N=c1/[n-]cccc1[O-])c1ccc([N-]S(=O)(=O)c2cccs2)cc1 (cis-trans isomerization)
O=C(/N=c1/[n-]cccc1[O-])c1ccc([N-]S(=O)(=O)c2cccs2)cc1 (3D coordinates assigned)
O=C(/N=c1/[n-]cccc1[O-])c1ccc([N-]S(=O)(=O)c2cccs2)cc1 (optimized conformer: 81.26649558936278 kcal/mol)

>  <smiles>  (514) 
O=C(N=c1[nH]cccc1O)c1ccc(NS(=O)(=O)c2cccs2)cc1

>  <score_type>  (514) 
oracle

>  <origin>  (514) 
adg

>  <m_score__min__energy>  (514) 
-14.57

>  <m_primary>  (514) 
energy

$$$$
7:0
     RDKit          3D

 29 31  0  0  0  0  0  0  0  0999 V2000
   59.6830   34.8850   47.3660 C   0  0  0  0  0  0  0  0  0  0  0  0
   59.6590   35.2490   46.0170 C   0  0  0  0  0  0  0  0  0  0  0  0
   58.8920   34.5150   45.1070 C   0  0  0  0  0  0  0  0  0  0  0  0
   58.1400   33.4110   45.5430 C   0  0  0  0  0  0  0  0  0  0  0  0
   57.3340   32.5990   44.5620 C   0  0  0  0  0  0  0  0  0  0  0  0
   58.1700   32.1660   43.3500 C   0  0  0  0  0  0  0  0  0  0  0  0
   57.3010   31.6270   42.2450 C   0  0  0  0  0  0  0  0  0  0  0  0
   57.2330   32.2500   41.1530 O   0  0  0  0  0  0  0  0  0  0  0  0
   56.4340   30.5060   42.4610 N   0  0  0  0  0  0  0  0  0  0  0  0
   56.4930   29.6930   43.4760 C   0  0  0  0  0  0  0  0  0  0  0  0
   57.5280   28.8360   43.8020 C   0  0  0  0  0  0  0  0  0  0  0  0
   57.0610   28.1740   44.9270 C   0  0  0  0  0  0  0  0  0  0  0  0
   57.8160   27.1610   45.6930 C   0  0  0  0  0  0  0  0  0  0  0  0
   59.0540   27.0550   45.4920 O   0  0  0  0  0  0  0  0  0  0  0  0
   57.2120   26.3000   46.6660 N   0  0  0  0  0  0  0  0  0  0  0  0
   55.9110   25.1880   46.3870 S   0  0  0  0  0  0  0  0  0  0  0  0
   55.5880   24.4460   47.6550 O   0  0  0  0  0  0  0  0  0  0  0  0
   54.6900   25.9260   45.9150 O   0  0  0  0  0  0  0  0  0  0  0  0
   56.4040   24.0480   45.1390 C   0  0  0  0  0  0  0  0  0  0  0  0
   55.5330   23.7240   44.0890 C   0  0  0  0  0  0  0  0  0  0  0  0
   55.9210   22.8010   43.1150 C   0  0  0  0  0  0  0  0  0  0  0  0
   57.1800   22.1990   43.1800 C   0  0  0  0  0  0  0  0  0  0  0  0
   58.0650   22.5240   44.2200 C   0  0  0  0  0  0  0  0  0  0  0  0
   59.3980   21.8430   44.3170 C   0  0  0  0  0  0  0  0  0  0  0  0
   57.6630   23.4380   45.2080 C   0  0  0  0  0  0  0  0  0  0  0  0
   55.8270   28.6240   45.2420 N   0  0  0  0  0  0  0  0  0  0  0  0
   55.4860   29.5380   44.3500 N   0  0  0  0  0  0  0  0  0  0  0  0
   58.1760   33.0470   46.9000 C   0  0  0  0  0  0  0  0  0  0  0  0
   58.9440   33.7850   47.8070 C   0  0  0  0  0  0  0  0  0  0  0  0
  1  2  2  0
  2  3  1  0
  3  4  2  0
  4  5  1  0
  5  6  1  0
  6  7  1  0
  7  8  2  0
  7  9  1  0
  9 10  2  0
 10 11  1  0
 11 12  2  0
 12 13  1  0
 13 14  2  0
 13 15  1  0
 15 16  1  0
 16 17  2  0
 16 18  2  0
 16 19  1  0
 19 20  2  0
 20 21  1  0
 21 22  2  0
 22 23  1  0
 23 24  1  0
 23 25  2  0
 12 26  1  0
 26 27  1  0
  4 28  1  0
 28 29  2  0
 29  1  1  0
 27 10  1  0
 25 19  1  0
M  CHG  2  15  -1  26  -1
M  END
>  <UniqueID>  (515) 
8

>  <SMILES>  (515) 
Cc1cccc(S(=O)(=O)[N-]C(=O)c2c/c(=N\C(=O)CCc3ccccc3)[nH][n-]2)c1

>  <Energy>  (515) 
89.23181945398137

>  <Genealogy>  (515) 
Cc1cccc(S(=O)(=O)[N-]C(=O)c2cc(=NC(=O)CCc3ccccc3)[nH][n-]2)c1 (protonated)
Cc1cccc(S(=O)(=O)[N-]C(=O)c2c/c(=N\C(=O)CCc3ccccc3)[nH][n-]2)c1 (cis-trans isomerization)
Cc1cccc(S(=O)(=O)[N-]C(=O)c2c/c(=N\C(=O)CCc3ccccc3)[nH][n-]2)c1 (3D coordinates assigned)
Cc1cccc(S(=O)(=O)[N-]C(=O)c2c/c(=N\C(=O)CCc3ccccc3)[nH][n-]2)c1 (optimized conformer: 89.23181945398137 kcal/mol)

>  <smiles>  (515) 
Cc1cccc(S(=O)(=O)NC(=O)c2cc(=NC(=O)CCc3ccccc3)[nH][nH]2)c1

>  <score_type>  (515) 
oracle

>  <origin>  (515) 
adg

>  <m_score__min__energy>  (515) 
-14.210000000000001

>  <m_primary>  (515) 
energy

$$$$
18:0
     RDKit          3D

 28 30  0  0  0  0  0  0  0  0999 V2000
   51.3150   23.8470   44.8110 C   0  0  0  0  0  0  0  0  0  0  0  0
   52.4450   23.0040   44.8400 O   0  0  0  0  0  0  0  0  0  0  0  0
   52.4300   22.1940   46.0020 C   0  0  0  0  0  0  0  0  0  0  0  0
   53.7550   22.3090   46.7610 C   0  0  0  0  0  0  0  0  0  0  0  0
   54.1480   23.7070   46.9020 N   0  0  0  0  0  0  0  0  0  0  0  0
   55.0080   24.3910   45.9860 C   0  0  0  0  0  0  0  0  0  0  0  0
   54.7620   25.5890   45.6740 O   0  0  0  0  0  0  0  0  0  0  0  0
   56.1660   23.6930   45.3750 C   0  0  0  0  0  0  0  0  0  0  0  0
   55.9370   22.7830   44.3270 C   0  0  0  0  0  0  0  0  0  0  0  0
   56.9970   22.0920   43.7380 C   0  0  0  0  0  0  0  0  0  0  0  0
   58.2990   22.2970   44.1870 C   0  0  0  0  0  0  0  0  0  0  0  0
   58.5500   23.2070   45.2150 C   0  0  0  0  0  0  0  0  0  0  0  0
   57.4960   23.9320   45.8030 C   0  0  0  0  0  0  0  0  0  0  0  0
   57.7580   24.8910   46.8410 N   0  0  0  0  0  0  0  0  0  0  0  0
   58.4000   26.1610   46.6800 C   0  0  0  0  0  0  0  0  0  0  0  0
   59.5600   26.2400   46.1920 O   0  0  0  0  0  0  0  0  0  0  0  0
   57.6860   27.4080   47.0910 C   0  0  0  0  0  0  0  0  0  0  0  0
   58.2860   28.5670   46.4280 N   0  0  0  0  0  0  0  0  0  0  0  0
   59.5160   29.0890   46.6660 C   0  0  0  0  0  0  0  0  0  0  0  0
   60.3420   28.5710   47.4650 O   0  0  0  0  0  0  0  0  0  0  0  0
   59.7830   30.2260   45.9790 N   0  0  0  0  0  0  0  0  0  0  0  0
   58.6450   30.4220   45.2870 C   0  0  0  0  0  0  0  0  0  0  0  0
   58.3620   31.4730   44.4190 C   0  0  0  0  0  0  0  0  0  0  0  0
   57.0960   31.5010   43.8100 C   0  0  0  0  0  0  0  0  0  0  0  0
   56.1510   30.4880   44.0800 C   0  0  0  0  0  0  0  0  0  0  0  0
   56.4630   29.4350   44.9610 C   0  0  0  0  0  0  0  0  0  0  0  0
   55.5290   28.4410   45.2150 O   0  0  0  0  0  0  0  0  0  0  0  0
   57.7350   29.4340   45.5540 C   0  0  0  0  0  0  0  0  0  0  0  0
  1  2  1  0
  2  3  1  0
  3  4  1  0
  4  5  1  0
  5  6  1  0
  6  7  2  0
  6  8  1  0
  8  9  2  0
  9 10  1  0
 10 11  2  0
 11 12  1  0
 12 13  2  0
 13 14  1  0
 14 15  1  0
 15 16  2  0
 15 17  1  0
 17 18  1  0
 18 19  1  0
 19 20  2  0
 19 21  1  0
 21 22  1  0
 22 23  2  0
 23 24  1  0
 24 25  2  0
 25 26  1  0
 26 27  1  0
 26 28  2  0
 13  8  1  0
 28 18  1  0
 28 22  1  0
M  CHG  4   5  -1  14  -1  21  -1  27  -1
M  END
>  <UniqueID>  (516) 
16

>  <SMILES>  (516) 
COCC[N-]C(=O)c1ccccc1[N-]C(=O)Cn1c(=O)[n-]c2cccc([O-])c21

>  <Energy>  (516) 
87.90278603420488

>  <Genealogy>  (516) 
COCC[N-]C(=O)c1ccccc1[N-]C(=O)Cn1c(=O)[n-]c2cccc([O-])c21 (protonated)
COCC[N-]C(=O)c1ccccc1[N-]C(=O)Cn1c(=O)[n-]c2cccc([O-])c21 (3D coordinates assigned)
COCC[N-]C(=O)c1ccccc1[N-]C(=O)Cn1c(=O)[n-]c2cccc([O-])c21 (optimized conformer: 87.90278603420488 kcal/mol)

>  <smiles>  (516) 
COCCNC(=O)c1ccccc1NC(=O)Cn1c(=O)[nH]c2cccc(O)c21

>  <score_type>  (516) 
oracle

>  <origin>  (516) 
adg

>  <m_score__min__energy>  (516) 
-14.77

>  <m_primary>  (516) 
energy

$$$$
27:0
     RDKit          3D

 29 31  0  0  0  0  0  0  0  0999 V2000
   57.2760   26.9690   47.2680 O   0  0  0  0  0  0  0  0  0  0  0  0
   56.7220   26.4710   46.2510 C   0  0  0  0  0  0  0  0  0  0  0  0
   57.2770   26.7550   44.8930 C   0  0  0  0  0  0  0  0  0  0  0  0
   57.5240   28.1870   44.7500 N   0  0  0  0  0  0  0  0  0  0  0  0
   56.6200   29.1790   44.7750 C   0  0  0  0  0  0  0  0  0  0  0  0
   55.2460   28.9940   44.8790 O   0  0  0  0  0  0  0  0  0  0  0  0
   57.2750   30.3870   44.6680 C   0  0  0  0  0  0  0  0  0  0  0  0
   56.6390   31.7310   44.5140 C   0  0  0  0  0  0  0  0  0  0  0  0
   57.3240   32.6980   45.4260 C   0  0  0  0  0  0  0  0  0  0  0  0
   56.6710   33.6500   45.9330 O   0  0  0  0  0  0  0  0  0  0  0  0
   58.6890   32.4770   45.8030 N   0  0  0  0  0  0  0  0  0  0  0  0
   59.1560   32.7600   47.1560 C   0  0  0  0  0  0  0  0  0  0  0  0
   60.6620   32.7670   47.1770 C   0  0  0  0  0  0  0  0  0  0  0  0
   61.3710   33.8600   46.6500 C   0  0  0  0  0  0  0  0  0  0  0  0
   62.7680   33.8380   46.6010 C   0  0  0  0  0  0  0  0  0  0  0  0
   63.4670   32.7160   47.0580 C   0  0  0  0  0  0  0  0  0  0  0  0
   62.7690   31.6180   47.5720 C   0  0  0  0  0  0  0  0  0  0  0  0
   61.3720   31.6410   47.6300 C   0  0  0  0  0  0  0  0  0  0  0  0
   58.6050   30.1660   44.5620 N   0  0  0  0  0  0  0  0  0  0  0  0
   58.7110   28.8200   44.6330 C   0  0  0  0  0  0  0  0  0  0  0  0
   59.8180   28.2190   44.5850 O   0  0  0  0  0  0  0  0  0  0  0  0
   55.5670   25.6340   46.3770 N   0  0  0  0  0  0  0  0  0  0  0  0
   55.4850   24.2360   46.0600 C   0  0  0  0  0  0  0  0  0  0  0  0
   54.9350   23.2980   46.9540 C   0  0  0  0  0  0  0  0  0  0  0  0
   54.8980   21.9410   46.6150 C   0  0  0  0  0  0  0  0  0  0  0  0
   55.4190   21.5090   45.3920 C   0  0  0  0  0  0  0  0  0  0  0  0
   55.9860   22.4320   44.5090 C   0  0  0  0  0  0  0  0  0  0  0  0
   56.6520   21.8870   42.9790 Cl  0  0  0  0  0  0  0  0  0  0  0  0
   56.0260   23.7900   44.8470 C   0  0  0  0  0  0  0  0  0  0  0  0
  1  2  2  0
  2  3  1  0
  3  4  1  0
  4  5  1  0
  5  6  1  0
  5  7  2  0
  7  8  1  0
  8  9  1  0
  9 10  2  0
  9 11  1  0
 11 12  1  0
 12 13  1  0
 13 14  2  0
 14 15  1  0
 15 16  2  0
 16 17  1  0
 17 18  2  0
  7 19  1  0
 19 20  1  0
 20 21  2  0
  2 22  1  0
 22 23  1  0
 23 24  2  0
 24 25  1  0
 25 26  2  0
 26 27  1  0
 27 28  1  0
 27 29  2  0
 20  4  1  0
 29 23  1  0
 18 13  1  0
M  CHG  3   6  -1  19  -1  22  -1
M  END
>  <UniqueID>  (517) 
24

>  <SMILES>  (517) 
O=C(Cn1c([O-])c(CC(=O)NCc2ccccc2)[n-]c1=O)[N-]c1cccc(Cl)c1

>  <Energy>  (517) 
73.3441187679748

>  <Genealogy>  (517) 
O=C(Cn1c([O-])c(CC(=O)NCc2ccccc2)[n-]c1=O)[N-]c1cccc(Cl)c1 (protonated)
O=C(Cn1c([O-])c(CC(=O)NCc2ccccc2)[n-]c1=O)[N-]c1cccc(Cl)c1 (3D coordinates assigned)
O=C(Cn1c([O-])c(CC(=O)NCc2ccccc2)[n-]c1=O)[N-]c1cccc(Cl)c1 (optimized conformer: 73.3441187679748 kcal/mol)

>  <smiles>  (517) 
O=C(Cc1[nH]c(=O)n(CC(=O)Nc2cccc(Cl)c2)c1O)NCc1ccccc1

>  <score_type>  (517) 
oracle

>  <origin>  (517) 
adg

>  <m_score__min__energy>  (517) 
-15.48

>  <m_primary>  (517) 
energy

$$$$
31:0
     RDKit          3D

 36 39  0  0  0  0  0  0  0  0999 V2000
   60.7890   29.1590   49.9010 O   0  0  0  0  0  0  0  0  0  0  0  0
   59.6010   29.0210   49.4970 C   0  0  0  0  0  0  0  0  0  0  0  0
   58.5190   29.8660   50.1160 C   0  0  0  0  0  0  0  0  0  0  0  0
   58.8300   31.3500   50.1230 C   0  0  0  0  0  0  0  0  0  0  0  0
   59.4870   31.9000   49.0060 C   0  0  0  0  0  0  0  0  0  0  0  0
   59.9070   33.2380   49.0050 C   0  0  0  0  0  0  0  0  0  0  0  0
   60.7830   33.8960   47.6180 S   0  0  0  0  0  0  0  0  0  0  0  0
   60.5520   33.0090   46.4250 O   0  0  0  0  0  0  0  0  0  0  0  0
   60.2450   35.2620   47.2930 O   0  0  0  0  0  0  0  0  0  0  0  0
   62.5000   34.0180   47.9350 N   0  0  0  0  0  0  0  0  0  0  0  0
   63.2780   33.0490   47.1320 C   0  0  0  0  0  0  0  0  0  0  0  0
   63.7660   31.8580   47.9780 C   0  0  0  0  0  0  0  0  0  0  0  0
   64.5840   32.2480   49.0740 O   0  0  0  0  0  0  0  0  0  0  0  0
   64.2240   33.5040   49.6440 C   0  0  0  0  0  0  0  0  0  0  0  0
   62.7640   33.9170   49.3850 C   0  0  0  0  0  0  0  0  0  0  0  0
   59.6550   34.0430   50.1240 C   0  0  0  0  0  0  0  0  0  0  0  0
   58.9980   33.5150   51.2350 C   0  0  0  0  0  0  0  0  0  0  0  0
   58.5930   32.1770   51.2470 C   0  0  0  0  0  0  0  0  0  0  0  0
   57.9600   31.7090   52.3520 F   0  0  0  0  0  0  0  0  0  0  0  0
   59.3150   27.9640   48.5700 N   0  0  0  0  0  0  0  0  0  0  0  0
   59.1340   28.0510   47.1470 C   0  0  0  0  0  0  0  0  0  0  0  0
   58.1510   28.8780   46.5740 C   0  0  0  0  0  0  0  0  0  0  0  0
   58.0520   29.0080   45.1820 C   0  0  0  0  0  0  0  0  0  0  0  0
   56.8140   30.0510   44.4710 S   0  0  0  0  0  0  0  0  0  0  0  0
   55.4690   29.6430   45.0060 O   0  0  0  0  0  0  0  0  0  0  0  0
   56.7940   29.8670   42.9790 O   0  0  0  0  0  0  0  0  0  0  0  0
   57.1000   31.7360   44.8370 N   0  0  0  0  0  0  0  0  0  0  0  0
   57.7700   31.8750   46.1390 C   0  0  0  0  0  0  0  0  0  0  0  0
   57.7640   33.3500   46.5800 C   0  0  0  0  0  0  0  0  0  0  0  0
   57.7260   34.3190   45.3850 C   0  0  0  0  0  0  0  0  0  0  0  0
   58.4650   33.7430   44.1760 C   0  0  0  0  0  0  0  0  0  0  0  0
   57.8910   32.3680   43.7580 C   0  0  0  0  0  0  0  0  0  0  0  0
   58.9510   28.3200   44.3570 C   0  0  0  0  0  0  0  0  0  0  0  0
   59.9350   27.5030   44.9180 C   0  0  0  0  0  0  0  0  0  0  0  0
   60.0320   27.3730   46.3070 C   0  0  0  0  0  0  0  0  0  0  0  0
   61.0240   26.5630   46.8510 O   0  0  0  0  0  0  0  0  0  0  0  0
  1  2  2  0
  2  3  1  0
  3  4  1  0
  4  5  2  0
  5  6  1  0
  6  7  1  0
  7  8  2  0
  7  9  2  0
  7 10  1  0
 10 11  1  0
 11 12  1  0
 12 13  1  0
 13 14  1  0
 14 15  1  0
  6 16  2  0
 16 17  1  0
 17 18  2  0
 18 19  1  0
  2 20  1  0
 20 21  1  0
 21 22  2  0
 22 23  1  0
 23 24  1  0
 24 25  2  0
 24 26  2  0
 24 27  1  0
 27 28  1  0
 28 29  1  0
 29 30  1  0
 30 31  1  0
 31 32  1  0
 23 33  2  0
 33 34  1  0
 34 35  2  0
 35 36  1  0
 18  4  1  0
 35 21  1  0
 15 10  1  0
 32 27  1  0
M  CHG  2  20  -1  36  -1
M  END
>  <UniqueID>  (518) 
28

>  <SMILES>  (518) 
O=C(Cc1cc(S(=O)(=O)N2CCOCC2)ccc1F)[N-]c1cc(S(=O)(=O)N2CCCCC2)ccc1[O-]

>  <Energy>  (518) 
83.7365773483881

>  <Genealogy>  (518) 
O=C(Cc1cc(S(=O)(=O)N2CCOCC2)ccc1F)[N-]c1cc(S(=O)(=O)N2CCCCC2)ccc1[O-] (protonated)
O=C(Cc1cc(S(=O)(=O)N2CCOCC2)ccc1F)[N-]c1cc(S(=O)(=O)N2CCCCC2)ccc1[O-] (3D coordinates assigned)
O=C(Cc1cc(S(=O)(=O)N2CCOCC2)ccc1F)[N-]c1cc(S(=O)(=O)N2CCCCC2)ccc1[O-] (nonaromatic ring conformer: 83.7365773483881 kcal/mol)

>  <smiles>  (518) 
O=C(Cc1cc(S(=O)(=O)N2CCOCC2)ccc1F)Nc1cc(S(=O)(=O)N2CCCCC2)ccc1O

>  <score_type>  (518) 
oracle

>  <origin>  (518) 
adg

>  <m_score__min__energy>  (518) 
-16.57

>  <m_primary>  (518) 
energy

$$$$
39:0
     RDKit          3D

 32 35  0  0  0  0  0  0  0  0999 V2000
   58.1200   24.2410   46.2220 C   0  0  0  0  0  0  0  0  0  0  0  0
   58.2350   25.5810   46.4260 N   0  0  0  0  0  0  0  0  0  0  0  0
   57.1580   26.4170   46.3770 C   0  0  0  0  0  0  0  0  0  0  0  0
   57.2960   27.7020   46.5500 N   0  0  0  0  0  0  0  0  0  0  0  0
   58.3210   28.5080   45.9580 C   0  0  0  0  0  0  0  0  0  0  0  0
   59.5220   28.1540   46.0970 O   0  0  0  0  0  0  0  0  0  0  0  0
   58.0040   29.7210   45.1710 C   0  0  0  0  0  0  0  0  0  0  0  0
   57.7110   29.6260   43.8010 C   0  0  0  0  0  0  0  0  0  0  0  0
   57.3900   30.7720   43.0700 C   0  0  0  0  0  0  0  0  0  0  0  0
   57.3460   32.0180   43.6990 C   0  0  0  0  0  0  0  0  0  0  0  0
   57.6230   32.1240   45.0680 C   0  0  0  0  0  0  0  0  0  0  0  0
   57.4540   33.6730   45.8960 S   0  0  0  0  0  0  0  0  0  0  0  0
   56.6560   33.4850   47.1570 O   0  0  0  0  0  0  0  0  0  0  0  0
   56.7070   34.6280   45.0050 O   0  0  0  0  0  0  0  0  0  0  0  0
   59.0230   34.3470   46.2850 N   0  0  0  0  0  0  0  0  0  0  0  0
   59.1120   34.7290   47.7150 C   0  0  0  0  0  0  0  0  0  0  0  0
   60.0230   33.8060   48.5380 C   0  0  0  0  0  0  0  0  0  0  0  0
   61.3430   33.7430   47.9070 N   0  0  0  0  0  0  0  0  0  0  0  0
   62.5270   33.6530   48.7100 C   0  0  0  0  0  0  0  0  0  0  0  0
   63.6670   33.0000   48.2170 C   0  0  0  0  0  0  0  0  0  0  0  0
   64.7990   32.8580   49.0250 C   0  0  0  0  0  0  0  0  0  0  0  0
   64.8110   33.3870   50.3200 C   0  0  0  0  0  0  0  0  0  0  0  0
   65.9200   33.2090   51.1350 O   0  0  0  0  0  0  0  0  0  0  0  0
   63.6910   34.0800   50.7980 C   0  0  0  0  0  0  0  0  0  0  0  0
   62.5470   34.1960   50.0040 C   0  0  0  0  0  0  0  0  0  0  0  0
   61.4510   33.7690   46.4460 C   0  0  0  0  0  0  0  0  0  0  0  0
   60.0950   33.4450   45.8070 C   0  0  0  0  0  0  0  0  0  0  0  0
   57.9730   30.9750   45.7970 C   0  0  0  0  0  0  0  0  0  0  0  0
   55.8890   25.8850   46.1010 C   0  0  0  0  0  0  0  0  0  0  0  0
   54.7760   26.7150   46.0140 O   0  0  0  0  0  0  0  0  0  0  0  0
   55.7480   24.5090   45.9020 C   0  0  0  0  0  0  0  0  0  0  0  0
   56.8680   23.6820   45.9610 C   0  0  0  0  0  0  0  0  0  0  0  0
  1  2  1  0
  2  3  1  0
  3  4  2  0
  4  5  1  0
  5  6  2  0
  5  7  1  0
  7  8  2  0
  8  9  1  0
  9 10  2  0
 10 11  1  0
 11 12  1  0
 12 13  2  0
 12 14  2  0
 12 15  1  0
 15 16  1  0
 16 17  1  0
 17 18  1  0
 18 19  1  0
 19 20  2  0
 20 21  1  0
 21 22  2  0
 22 23  1  0
 22 24  1  0
 24 25  2  0
 18 26  1  0
 26 27  1  0
 11 28  2  0
  3 29  1  0
 29 30  1  0
 29 31  2  0
 31 32  1  0
 32  1  2  0
 28  7  1  0
 27 15  1  0
 25 19  1  0
M  CHG  3   2  -1  23  -1  30  -1
M  END
>  <UniqueID>  (519) 
36

>  <SMILES>  (519) 
O=C(/N=c1\[n-]cccc1[O-])c1cccc(S(=O)(=O)N2CCN(c3ccc([O-])cc3)CC2)c1

>  <Energy>  (519) 
73.03989118700679

>  <Genealogy>  (519) 
O=C(N=c1[n-]cccc1[O-])c1cccc(S(=O)(=O)N2CCN(c3ccc([O-])cc3)CC2)c1 (protonated)
O=C(/N=c1\[n-]cccc1[O-])c1cccc(S(=O)(=O)N2CCN(c3ccc([O-])cc3)CC2)c1 (cis-trans isomerization)
O=C(/N=c1\[n-]cccc1[O-])c1cccc(S(=O)(=O)N2CCN(c3ccc([O-])cc3)CC2)c1 (3D coordinates assigned)
O=C(/N=c1\[n-]cccc1[O-])c1cccc(S(=O)(=O)N2CCN(c3ccc([O-])cc3)CC2)c1 (nonaromatic ring conformer: 73.03989118700679 kcal/mol)

>  <smiles>  (519) 
O=C(N=c1[nH]cccc1O)c1cccc(S(=O)(=O)N2CCN(c3ccc(O)cc3)CC2)c1

>  <score_type>  (519) 
oracle

>  <origin>  (519) 
adg

>  <m_score__min__energy>  (519) 
-15.94

>  <m_primary>  (519) 
energy

$$$$
41:0
     RDKit          3D

 29 31  0  0  0  0  0  0  0  0999 V2000
   57.5920   30.0700   44.4370 C   0  0  0  0  0  0  0  0  0  0  0  0
   56.9870   31.2360   44.9860 O   0  0  0  0  0  0  0  0  0  0  0  0
   57.6810   32.3920   45.3760 C   0  0  0  0  0  0  0  0  0  0  0  0
   57.8050   33.4940   44.5050 C   0  0  0  0  0  0  0  0  0  0  0  0
   58.5380   34.6210   44.8830 C   0  0  0  0  0  0  0  0  0  0  0  0
   59.1580   34.6640   46.1290 C   0  0  0  0  0  0  0  0  0  0  0  0
   59.0380   33.5850   47.0060 C   0  0  0  0  0  0  0  0  0  0  0  0
   58.2910   32.4530   46.6550 C   0  0  0  0  0  0  0  0  0  0  0  0
   58.2090   31.3940   47.6220 N   0  0  0  0  0  0  0  0  0  0  0  0
   59.2080   31.1600   49.0220 S   0  0  0  0  0  0  0  0  0  0  0  0
   59.6760   29.7310   49.0740 O   0  0  0  0  0  0  0  0  0  0  0  0
   60.3850   32.0920   48.9550 O   0  0  0  0  0  0  0  0  0  0  0  0
   58.2850   31.4980   50.4870 C   0  0  0  0  0  0  0  0  0  0  0  0
   57.4160   30.5300   51.0150 C   0  0  0  0  0  0  0  0  0  0  0  0
   56.6710   30.7950   52.1760 C   0  0  0  0  0  0  0  0  0  0  0  0
   55.7630   29.7600   52.7300 C   0  0  0  0  0  0  0  0  0  0  0  0
   56.1180   29.1150   53.7530 O   0  0  0  0  0  0  0  0  0  0  0  0
   54.4620   29.5060   52.1770 N   0  0  0  0  0  0  0  0  0  0  0  0
   53.4720   30.3490   52.1320 C   0  0  0  0  0  0  0  0  0  0  0  0
   53.1730   30.9940   50.9250 C   0  0  0  0  0  0  0  0  0  0  0  0
   52.1210   31.9120   50.8780 C   0  0  0  0  0  0  0  0  0  0  0  0
   51.3850   32.1850   52.0320 C   0  0  0  0  0  0  0  0  0  0  0  0
   50.3360   33.0960   51.9980 O   0  0  0  0  0  0  0  0  0  0  0  0
   51.7150   31.5330   53.2230 C   0  0  0  0  0  0  0  0  0  0  0  0
   52.7420   30.6430   53.2470 N   0  0  0  0  0  0  0  0  0  0  0  0
   56.8250   32.0330   52.8220 C   0  0  0  0  0  0  0  0  0  0  0  0
   57.6910   32.9970   52.3020 C   0  0  0  0  0  0  0  0  0  0  0  0
   58.4210   32.7350   51.1390 C   0  0  0  0  0  0  0  0  0  0  0  0
   59.2810   33.7080   50.6400 O   0  0  0  0  0  0  0  0  0  0  0  0
  1  2  1  0
  2  3  1  0
  3  4  2  0
  4  5  1  0
  5  6  2  0
  6  7  1  0
  7  8  2  0
  8  9  1  0
  9 10  1  0
 10 11  2  0
 10 12  2  0
 10 13  1  0
 13 14  2  0
 14 15  1  0
 15 16  1  0
 16 17  2  0
 16 18  1  0
 18 19  2  3
 19 20  1  0
 20 21  2  0
 21 22  1  0
 22 23  1  0
 22 24  2  0
 24 25  1  0
 15 26  2  0
 26 27  1  0
 27 28  2  0
 28 29  1  0
  8  3  1  0
 28 13  1  0
 25 19  1  0
M  CHG  4   9  -1  23  -1  25  -1  29  -1
M  END
>  <UniqueID>  (520) 
38

>  <SMILES>  (520) 
COc1ccccc1[N-]S(=O)(=O)c1cc(C(=O)N=c2ccc([O-])c[n-]2)ccc1[O-]

>  <Energy>  (520) 
61.56118250553481

>  <Genealogy>  (520) 
COc1ccccc1[N-]S(=O)(=O)c1cc(C(=O)N=c2ccc([O-])c[n-]2)ccc1[O-] (protonated)
COc1ccccc1[N-]S(=O)(=O)c1cc(C(=O)N=c2ccc([O-])c[n-]2)ccc1[O-] (3D coordinates assigned)
COc1ccccc1[N-]S(=O)(=O)c1cc(C(=O)N=c2ccc([O-])c[n-]2)ccc1[O-] (optimized conformer: 61.56118250553481 kcal/mol)

>  <smiles>  (520) 
COc1ccccc1NS(=O)(=O)c1cc(C(=O)N=c2ccc(O)c[nH]2)ccc1O

>  <score_type>  (520) 
oracle

>  <origin>  (520) 
adg

>  <m_score__min__energy>  (520) 
-15.34

>  <m_primary>  (520) 
energy

$$$$
42:0
     RDKit          3D

 32 35  0  0  0  0  0  0  0  0999 V2000
   56.2860   32.2650   45.2190 O   0  0  0  0  0  0  0  0  0  0  0  0
   57.4380   32.8820   45.7010 C   0  0  0  0  0  0  0  0  0  0  0  0
   58.2500   33.6110   44.8250 C   0  0  0  0  0  0  0  0  0  0  0  0
   59.4130   34.2270   45.2940 C   0  0  0  0  0  0  0  0  0  0  0  0
   59.7680   34.1210   46.6430 C   0  0  0  0  0  0  0  0  0  0  0  0
   58.9550   33.4000   47.5290 C   0  0  0  0  0  0  0  0  0  0  0  0
   59.3970   33.2310   49.2240 S   0  0  0  0  0  0  0  0  0  0  0  0
   59.6320   34.5740   49.8570 O   0  0  0  0  0  0  0  0  0  0  0  0
   58.2810   32.5410   49.9550 O   0  0  0  0  0  0  0  0  0  0  0  0
   60.8380   32.2760   49.3430 N   0  0  0  0  0  0  0  0  0  0  0  0
   60.8940   31.1130   49.9210 C   0  0  0  0  0  0  0  0  0  0  0  0
   60.7660   31.0250   51.2750 N   0  0  0  0  0  0  0  0  0  0  0  0
   60.7490   29.8330   51.9190 C   0  0  0  0  0  0  0  0  0  0  0  0
   60.6180   29.7760   53.3100 C   0  0  0  0  0  0  0  0  0  0  0  0
   60.5880   28.5330   53.9540 C   0  0  0  0  0  0  0  0  0  0  0  0
   60.6860   27.3520   53.2090 C   0  0  0  0  0  0  0  0  0  0  0  0
   60.8170   27.4070   51.8170 C   0  0  0  0  0  0  0  0  0  0  0  0
   60.8490   28.6480   51.1700 C   0  0  0  0  0  0  0  0  0  0  0  0
   60.9890   28.7240   49.8220 N   0  0  0  0  0  0  0  0  0  0  0  0
   61.0410   29.9150   49.1640 C   0  0  0  0  0  0  0  0  0  0  0  0
   61.2100   29.8810   47.8680 N   0  0  0  0  0  0  0  0  0  0  0  0
   60.2370   29.6130   46.8470 C   0  0  0  0  0  0  0  0  0  0  0  0
   58.8750   29.7360   47.1410 C   0  0  0  0  0  0  0  0  0  0  0  0
   57.9160   29.4460   46.1660 C   0  0  0  0  0  0  0  0  0  0  0  0
   58.3120   29.0150   44.8890 C   0  0  0  0  0  0  0  0  0  0  0  0
   57.2800   28.6770   43.8490 C   0  0  0  0  0  0  0  0  0  0  0  0
   56.0900   29.5680   43.9980 C   0  0  0  0  0  0  0  0  0  0  0  0
   55.9110   30.5260   43.2000 O   0  0  0  0  0  0  0  0  0  0  0  0
   55.1460   29.3100   44.9840 O   0  0  0  0  0  0  0  0  0  0  0  0
   59.6780   28.8450   44.6120 C   0  0  0  0  0  0  0  0  0  0  0  0
   60.6340   29.1340   45.5890 C   0  0  0  0  0  0  0  0  0  0  0  0
   57.7920   32.7780   47.0540 C   0  0  0  0  0  0  0  0  0  0  0  0
  1  2  1  0
  2  3  2  0
  3  4  1  0
  4  5  2  0
  5  6  1  0
  6  7  1  0
  7  8  2  0
  7  9  2  0
  7 10  1  0
 10 11  2  3
 11 12  1  0
 12 13  1  0
 13 14  2  0
 14 15  1  0
 15 16  2  0
 16 17  1  0
 17 18  2  0
 18 19  1  0
 19 20  1  0
 20 21  2  0
 21 22  1  0
 22 23  2  0
 23 24  1  0
 24 25  2  0
 25 26  1  0
 26 27  1  0
 27 28  2  0
 27 29  1  0
 25 30  1  0
 30 31  2  0
  6 32  2  0
 32  2  1  0
 20 11  1  0
 31 22  1  0
 18 13  1  0
M  CHG  3  12  -1  19  -1  29  -1
M  END
>  <UniqueID>  (521) 
39

>  <SMILES>  (521) 
O=C([O-])Cc1ccc(/N=c2/[n-]c3ccccc3[n-]c2=NS(=O)(=O)c2cccc(O)c2)cc1

>  <Energy>  (521) 
68.73462437444876

>  <Genealogy>  (521) 
O=C([O-])Cc1ccc(N=c2[n-]c3ccccc3[n-]c2=NS(=O)(=O)c2cccc(O)c2)cc1 (protonated)
O=C([O-])Cc1ccc(/N=c2/[n-]c3ccccc3[n-]c2=NS(=O)(=O)c2cccc(O)c2)cc1 (cis-trans isomerization)
O=C([O-])Cc1ccc(/N=c2/[n-]c3ccccc3[n-]c2=NS(=O)(=O)c2cccc(O)c2)cc1 (3D coordinates assigned)
O=C([O-])Cc1ccc(/N=c2/[n-]c3ccccc3[n-]c2=NS(=O)(=O)c2cccc(O)c2)cc1 (optimized conformer: 68.73462437444876 kcal/mol)

>  <smiles>  (521) 
O=C(O)Cc1ccc(N=c2[nH]c3ccccc3[nH]c2=NS(=O)(=O)c2cccc(O)c2)cc1

>  <score_type>  (521) 
oracle

>  <origin>  (521) 
adg

>  <m_score__min__energy>  (521) 
-14.720000000000001

>  <m_primary>  (521) 
energy

$$$$
4:0
     RDKit          3D

 25 27  0  0  0  0  0  0  0  0999 V2000
   57.4330   32.7390   43.2610 O   0  0  0  0  0  0  0  0  0  0  0  0
   57.5710   32.4240   44.4740 C   0  0  0  0  0  0  0  0  0  0  0  0
   56.9900   31.1970   44.9330 N   0  0  0  0  0  0  0  0  0  0  0  0
   57.7080   30.0120   45.3070 C   0  0  0  0  0  0  0  0  0  0  0  0
   58.7970   30.0590   46.1950 C   0  0  0  0  0  0  0  0  0  0  0  0
   59.4790   28.8880   46.5330 C   0  0  0  0  0  0  0  0  0  0  0  0
   59.0920   27.6660   45.9790 C   0  0  0  0  0  0  0  0  0  0  0  0
   58.0230   27.6070   45.0700 C   0  0  0  0  0  0  0  0  0  0  0  0
   57.5830   26.2860   44.4970 C   0  0  0  0  0  0  0  0  0  0  0  0
   57.1210   25.3580   45.5990 C   0  0  0  0  0  0  0  0  0  0  0  0
   55.9320   25.6090   46.3080 C   0  0  0  0  0  0  0  0  0  0  0  0
   55.1270   26.6970   45.9880 O   0  0  0  0  0  0  0  0  0  0  0  0
   55.5550   24.7820   47.3170 N   0  0  0  0  0  0  0  0  0  0  0  0
   56.3090   23.7100   47.6650 C   0  0  0  0  0  0  0  0  0  0  0  0
   55.9390   22.9590   48.6040 O   0  0  0  0  0  0  0  0  0  0  0  0
   57.4640   23.4480   47.0030 N   0  0  0  0  0  0  0  0  0  0  0  0
   57.8870   24.2420   45.9860 C   0  0  0  0  0  0  0  0  0  0  0  0
   58.9660   23.9650   45.3970 O   0  0  0  0  0  0  0  0  0  0  0  0
   57.3390   28.7880   44.7350 C   0  0  0  0  0  0  0  0  0  0  0  0
   58.2780   33.3510   45.3890 C   0  0  0  0  0  0  0  0  0  0  0  0
   58.2290   33.1660   46.7830 C   0  0  0  0  0  0  0  0  0  0  0  0
   58.8960   34.0490   47.6380 C   0  0  0  0  0  0  0  0  0  0  0  0
   59.6090   35.1300   47.1110 C   0  0  0  0  0  0  0  0  0  0  0  0
   59.6510   35.3320   45.7300 C   0  0  0  0  0  0  0  0  0  0  0  0
   58.9850   34.4520   44.8720 C   0  0  0  0  0  0  0  0  0  0  0  0
  1  2  2  0
  2  3  1  0
  3  4  1  0
  4  5  2  0
  5  6  1  0
  6  7  2  0
  7  8  1  0
  8  9  1  0
  9 10  1  0
 10 11  2  0
 11 12  1  0
 11 13  1  0
 13 14  1  0
 14 15  2  0
 14 16  1  0
 16 17  1  0
 17 18  2  0
  8 19  2  0
  2 20  1  0
 20 21  2  0
 21 22  1  0
 22 23  2  0
 23 24  1  0
 24 25  2  0
 19  4  1  0
 25 20  1  0
 17 10  1  0
M  CHG  4   3  -1  12  -1  13  -1  16  -1
M  END
>  <UniqueID>  (522) 
4

>  <SMILES>  (522) 
O=C([N-]c1cccc(Cc2c([O-])[n-]c(=O)[n-]c2=O)c1)c1ccccc1

>  <Energy>  (522) 
47.503957691406846

>  <Genealogy>  (522) 
O=C([N-]c1cccc(Cc2c([O-])[n-]c(=O)[n-]c2=O)c1)c1ccccc1 (protonated)
O=C([N-]c1cccc(Cc2c([O-])[n-]c(=O)[n-]c2=O)c1)c1ccccc1 (3D coordinates assigned)
O=C([N-]c1cccc(Cc2c([O-])[n-]c(=O)[n-]c2=O)c1)c1ccccc1 (optimized conformer: 47.503957691406846 kcal/mol)

>  <smiles>  (522) 
O=C(Nc1cccc(Cc2c(O)[nH]c(=O)[nH]c2=O)c1)c1ccccc1

>  <score_type>  (522) 
oracle

>  <origin>  (522) 
adg

>  <m_score__min__energy>  (522) 
-17.239999999999998

>  <m_primary>  (522) 
energy

$$$$
89:0
     RDKit          3D

 25 27  0  0  0  0  0  0  0  0999 V2000
   55.2050   29.2000   44.8820 O   0  0  0  0  0  0  0  0  0  0  0  0
   56.3670   29.6800   44.8230 C   0  0  0  0  0  0  0  0  0  0  0  0
   57.5480   28.7570   44.9900 C   0  0  0  0  0  0  0  0  0  0  0  0
   57.4970   27.9640   46.3040 C   0  0  0  0  0  0  0  0  0  0  0  0
   57.1880   26.5530   46.0660 N   0  0  0  0  0  0  0  0  0  0  0  0
   55.9630   25.9990   45.9250 C   0  0  0  0  0  0  0  0  0  0  0  0
   54.7690   26.7080   46.0000 O   0  0  0  0  0  0  0  0  0  0  0  0
   56.0720   24.6420   45.6950 C   0  0  0  0  0  0  0  0  0  0  0  0
   57.4130   24.3520   45.6920 C   0  0  0  0  0  0  0  0  0  0  0  0
   58.0740   25.5420   45.9230 C   0  0  0  0  0  0  0  0  0  0  0  0
   59.4530   25.6950   46.0000 O   0  0  0  0  0  0  0  0  0  0  0  0
   57.9760   22.9860   45.4710 C   0  0  0  0  0  0  0  0  0  0  0  0
   56.8840   21.9570   45.2580 C   0  0  0  0  0  0  0  0  0  0  0  0
   55.5630   22.2420   45.2590 C   0  0  0  0  0  0  0  0  0  0  0  0
   54.9940   23.6320   45.4730 C   0  0  0  0  0  0  0  0  0  0  0  0
   56.5200   31.0600   44.4600 N   0  0  0  0  0  0  0  0  0  0  0  0
   57.3970   32.0220   45.0610 C   0  0  0  0  0  0  0  0  0  0  0  0
   57.4470   33.3150   44.5300 C   0  0  0  0  0  0  0  0  0  0  0  0
   58.2670   34.2880   45.1100 C   0  0  0  0  0  0  0  0  0  0  0  0
   59.0370   33.9850   46.2470 C   0  0  0  0  0  0  0  0  0  0  0  0
   59.9070   35.0090   46.8650 C   0  0  0  0  0  0  0  0  0  0  0  0
   60.0150   36.1540   46.3490 O   0  0  0  0  0  0  0  0  0  0  0  0
   60.6190   34.7230   48.0240 O   0  0  0  0  0  0  0  0  0  0  0  0
   58.9600   32.6940   46.7970 C   0  0  0  0  0  0  0  0  0  0  0  0
   58.1380   31.7240   46.2140 C   0  0  0  0  0  0  0  0  0  0  0  0
  1  2  2  0
  2  3  1  0
  3  4  1  0
  4  5  1  0
  5  6  1  0
  6  7  1  0
  6  8  2  0
  8  9  1  0
  9 10  2  0
 10 11  1  0
  9 12  1  0
 12 13  1  0
 13 14  2  0
 14 15  1  0
  2 16  1  0
 16 17  1  0
 17 18  2  0
 18 19  1  0
 19 20  2  0
 20 21  1  0
 21 22  2  0
 21 23  1  0
 20 24  1  0
 24 25  2  0
 10  5  1  0
 25 17  1  0
 15  8  1  0
M  CHG  4   7  -1  11  -1  16  -1  23  -1
M  END
>  <UniqueID>  (523) 
84

>  <SMILES>  (523) 
O=C(CCn1c([O-])c2c(c1[O-])CC=CC2)[N-]c1ccc(C(=O)[O-])cc1

>  <Energy>  (523) 
76.84458680513193

>  <Genealogy>  (523) 
O=C(CCn1c([O-])c2c(c1[O-])CC=CC2)[N-]c1ccc(C(=O)[O-])cc1 (protonated)
O=C(CCn1c([O-])c2c(c1[O-])CC=CC2)[N-]c1ccc(C(=O)[O-])cc1 (3D coordinates assigned)
O=C(CCn1c([O-])c2c(c1[O-])CC=CC2)[N-]c1ccc(C(=O)[O-])cc1 (nonaromatic ring conformer: 76.84458680513193 kcal/mol)

>  <smiles>  (523) 
O=C(CCn1c(O)c2c(c1O)CC=CC2)Nc1ccc(C(=O)O)cc1

>  <score_type>  (523) 
oracle

>  <origin>  (523) 
adg

>  <m_score__min__energy>  (523) 
-15.449999999999999

>  <m_primary>  (523) 
energy

$$$$
7:0
     RDKit          3D

 29 31  0  0  0  0  0  0  0  0999 V2000
   64.0540   32.7350   49.4830 C   0  0  0  0  0  0  0  0  0  0  0  0
   62.9480   33.2200   48.5920 C   0  0  0  0  0  0  0  0  0  0  0  0
   61.7800   33.7670   49.1450 C   0  0  0  0  0  0  0  0  0  0  0  0
   60.7380   34.1880   48.3140 C   0  0  0  0  0  0  0  0  0  0  0  0
   60.8450   34.0570   46.9240 C   0  0  0  0  0  0  0  0  0  0  0  0
   59.5320   34.6200   45.8920 S   0  0  0  0  0  0  0  0  0  0  0  0
   59.6650   36.0950   45.6300 O   0  0  0  0  0  0  0  0  0  0  0  0
   59.5950   33.8940   44.5770 O   0  0  0  0  0  0  0  0  0  0  0  0
   58.0090   34.2880   46.6610 N   0  0  0  0  0  0  0  0  0  0  0  0
   58.0060   32.9610   47.2750 C   0  0  0  0  0  0  0  0  0  0  0  0
   58.2720   31.9250   46.2310 C   0  0  0  0  0  0  0  0  0  0  0  0
   57.4050   31.7040   45.3440 O   0  0  0  0  0  0  0  0  0  0  0  0
   59.4870   31.1620   46.2910 N   0  0  0  0  0  0  0  0  0  0  0  0
   59.5750   29.8810   46.4890 C   0  0  0  0  0  0  0  0  0  0  0  0
   59.8370   29.3060   47.6840 N   0  0  0  0  0  0  0  0  0  0  0  0
   59.8700   27.9770   47.6250 N   0  0  0  0  0  0  0  0  0  0  0  0
   59.6230   27.4920   46.3870 C   0  0  0  0  0  0  0  0  0  0  0  0
   59.6620   26.0370   46.0500 C   0  0  0  0  0  0  0  0  0  0  0  0
   58.2660   25.4870   45.9720 C   0  0  0  0  0  0  0  0  0  0  0  0
   58.0530   24.1020   45.9050 C   0  0  0  0  0  0  0  0  0  0  0  0
   56.7520   23.5900   45.8660 C   0  0  0  0  0  0  0  0  0  0  0  0
   55.6520   24.4520   45.9040 C   0  0  0  0  0  0  0  0  0  0  0  0
   54.3660   23.9160   45.8630 O   0  0  0  0  0  0  0  0  0  0  0  0
   55.8590   25.8390   45.9860 C   0  0  0  0  0  0  0  0  0  0  0  0
   54.7780   26.7120   46.0360 O   0  0  0  0  0  0  0  0  0  0  0  0
   57.1600   26.3510   46.0220 C   0  0  0  0  0  0  0  0  0  0  0  0
   59.3690   28.7360   45.2750 S   0  0  0  0  0  0  0  0  0  0  0  0
   62.0050   33.5020   46.3690 C   0  0  0  0  0  0  0  0  0  0  0  0
   63.0480   33.0770   47.2000 C   0  0  0  0  0  0  0  0  0  0  0  0
  1  2  1  0
  2  3  2  0
  3  4  1  0
  4  5  2  0
  5  6  1  0
  6  7  2  0
  6  8  2  0
  6  9  1  0
  9 10  1  0
 10 11  1  0
 11 12  2  0
 11 13  1  0
 13 14  2  3
 14 15  1  0
 15 16  1  0
 16 17  2  0
 17 18  1  0
 18 19  1  0
 19 20  2  0
 20 21  1  0
 21 22  2  0
 22 23  1  0
 22 24  1  0
 24 25  1  0
 24 26  2  0
 17 27  1  0
  5 28  1  0
 28 29  2  0
 29  2  1  0
 27 14  1  0
 26 19  1  0
M  CHG  3   9  -1  15  -1  25  -1
M  END
>  <UniqueID>  (524) 
6

>  <SMILES>  (524) 
Cc1ccc(S(=O)(=O)[N-]CC(=O)N=c2[n-]nc(Cc3ccc(O)c([O-])c3)s2)cc1

>  <Energy>  (524) 
78.80261177454234

>  <Genealogy>  (524) 
Cc1ccc(S(=O)(=O)[N-]CC(=O)N=c2[n-]nc(Cc3ccc(O)c([O-])c3)s2)cc1 (protonated)
Cc1ccc(S(=O)(=O)[N-]CC(=O)N=c2[n-]nc(Cc3ccc(O)c([O-])c3)s2)cc1 (3D coordinates assigned)
Cc1ccc(S(=O)(=O)[N-]CC(=O)N=c2[n-]nc(Cc3ccc(O)c([O-])c3)s2)cc1 (optimized conformer: 78.80261177454234 kcal/mol)

>  <smiles>  (524) 
Cc1ccc(S(=O)(=O)NCC(=O)N=c2[nH]nc(Cc3ccc(O)c(O)c3)s2)cc1

>  <score_type>  (524) 
oracle

>  <origin>  (524) 
adg

>  <m_score__min__energy>  (524) 
-14.31

>  <m_primary>  (524) 
energy

$$$$
30:0
     RDKit          3D

 26 28  0  0  0  0  0  0  0  0999 V2000
   60.4230   28.2550   45.8970 C   0  0  0  0  0  0  0  0  0  0  0  0
   59.5990   27.6310   46.8770 O   0  0  0  0  0  0  0  0  0  0  0  0
   58.3570   27.0330   46.6150 C   0  0  0  0  0  0  0  0  0  0  0  0
   58.1010   25.6890   46.9540 C   0  0  0  0  0  0  0  0  0  0  0  0
   56.8640   25.1000   46.6420 C   0  0  0  0  0  0  0  0  0  0  0  0
   56.5520   23.7730   46.9820 C   0  0  0  0  0  0  0  0  0  0  0  0
   57.3830   23.0470   47.5910 O   0  0  0  0  0  0  0  0  0  0  0  0
   55.3380   23.2610   46.6530 N   0  0  0  0  0  0  0  0  0  0  0  0
   54.4100   24.0080   45.9970 C   0  0  0  0  0  0  0  0  0  0  0  0
   53.2610   23.4980   45.6930 N   0  0  0  0  0  0  0  0  0  0  0  0
   54.6870   25.2930   45.6600 N   0  0  0  0  0  0  0  0  0  0  0  0
   55.8860   25.8550   45.9660 C   0  0  0  0  0  0  0  0  0  0  0  0
   56.1400   27.1860   45.6260 C   0  0  0  0  0  0  0  0  0  0  0  0
   57.3510   27.7910   45.9810 C   0  0  0  0  0  0  0  0  0  0  0  0
   57.5330   29.1760   45.6670 N   0  0  0  0  0  0  0  0  0  0  0  0
   56.9410   29.9510   44.2290 S   0  0  0  0  0  0  0  0  0  0  0  0
   55.5720   30.4950   44.5230 O   0  0  0  0  0  0  0  0  0  0  0  0
   56.8230   28.9630   43.1030 O   0  0  0  0  0  0  0  0  0  0  0  0
   57.9770   31.3290   43.7440 C   0  0  0  0  0  0  0  0  0  0  0  0
   58.4290   32.1390   44.9290 C   0  0  0  0  0  0  0  0  0  0  0  0
   59.2310   31.5550   45.9240 C   0  0  0  0  0  0  0  0  0  0  0  0
   59.6180   32.2970   47.0440 C   0  0  0  0  0  0  0  0  0  0  0  0
   59.2120   33.6290   47.1770 C   0  0  0  0  0  0  0  0  0  0  0  0
   59.6690   34.5480   48.5990 Cl  0  0  0  0  0  0  0  0  0  0  0  0
   58.4310   34.2230   46.1820 C   0  0  0  0  0  0  0  0  0  0  0  0
   58.0440   33.4840   45.0610 C   0  0  0  0  0  0  0  0  0  0  0  0
  1  2  1  0
  2  3  1  0
  3  4  2  0
  4  5  1  0
  5  6  1  0
  6  7  2  0
  6  8  1  0
  8  9  1  0
  9 10  2  0
  9 11  1  0
 11 12  1  0
 12 13  1  0
 13 14  2  0
 14 15  1  0
 15 16  1  0
 16 17  2  0
 16 18  2  0
 16 19  1  0
 19 20  1  0
 20 21  2  0
 21 22  1  0
 22 23  2  0
 23 24  1  0
 23 25  1  0
 25 26  2  0
 14  3  1  0
 26 20  1  0
 12  5  2  0
M  CHG  3   8  -1  11  -1  15  -1
M  END
>  <UniqueID>  (525) 
24

>  <SMILES>  (525) 
COc1cc2c(=O)[n-]c(=N)[n-]c2cc1[N-]S(=O)(=O)Cc1ccc(Cl)cc1

>  <Energy>  (525) 
43.4040679285481

>  <Genealogy>  (525) 
COc1cc2c(=O)[n-]c(=N)[n-]c2cc1[N-]S(=O)(=O)Cc1ccc(Cl)cc1 (protonated)
COc1cc2c(=O)[n-]c(=N)[n-]c2cc1[N-]S(=O)(=O)Cc1ccc(Cl)cc1 (3D coordinates assigned)
COc1cc2c(=O)[n-]c(=N)[n-]c2cc1[N-]S(=O)(=O)Cc1ccc(Cl)cc1 (optimized conformer: 43.4040679285481 kcal/mol)

>  <smiles>  (525) 
COc1cc2c(=O)[nH]c(=N)[nH]c2cc1NS(=O)(=O)Cc1ccc(Cl)cc1

>  <score_type>  (525) 
oracle

>  <origin>  (525) 
adg

>  <m_score__min__energy>  (525) 
-14.199999999999999

>  <m_primary>  (525) 
energy

$$$$
34:0
     RDKit          3D

 30 32  0  0  0  0  0  0  0  0999 V2000
   58.4940   29.4710   49.6600 O   0  0  0  0  0  0  0  0  0  0  0  0
   59.1540   30.4940   49.3350 C   0  0  0  0  0  0  0  0  0  0  0  0
   59.2120   31.6630   50.2610 C   0  0  0  0  0  0  0  0  0  0  0  0
   58.5580   32.7560   49.6540 O   0  0  0  0  0  0  0  0  0  0  0  0
   59.4750   33.5200   48.8960 C   0  0  0  0  0  0  0  0  0  0  0  0
   58.9730   33.6940   47.4870 C   0  0  0  0  0  0  0  0  0  0  0  0
   59.6960   34.4800   46.5760 C   0  0  0  0  0  0  0  0  0  0  0  0
   59.2230   34.6640   45.2730 C   0  0  0  0  0  0  0  0  0  0  0  0
   58.0260   34.0660   44.8730 C   0  0  0  0  0  0  0  0  0  0  0  0
   57.2980   33.2850   45.7750 C   0  0  0  0  0  0  0  0  0  0  0  0
   57.7670   33.1000   47.0800 C   0  0  0  0  0  0  0  0  0  0  0  0
   59.8570   30.5520   48.0880 N   0  0  0  0  0  0  0  0  0  0  0  0
   59.5390   29.8270   46.8910 C   0  0  0  0  0  0  0  0  0  0  0  0
   60.5890   29.3130   46.1200 C   0  0  0  0  0  0  0  0  0  0  0  0
   60.3250   28.6120   44.9410 C   0  0  0  0  0  0  0  0  0  0  0  0
   59.0090   28.4350   44.5110 C   0  0  0  0  0  0  0  0  0  0  0  0
   57.9460   28.9800   45.2480 C   0  0  0  0  0  0  0  0  0  0  0  0
   56.5300   28.7800   44.7900 C   0  0  0  0  0  0  0  0  0  0  0  0
   55.8940   27.7700   45.6260 N   0  0  0  0  0  0  0  0  0  0  0  0
   56.3590   26.4320   45.8600 C   0  0  0  0  0  0  0  0  0  0  0  0
   57.4710   26.2870   46.4340 O   0  0  0  0  0  0  0  0  0  0  0  0
   55.5990   25.2220   45.4480 C   0  0  0  0  0  0  0  0  0  0  0  0
   56.1800   24.2720   44.5930 C   0  0  0  0  0  0  0  0  0  0  0  0
   55.4400   23.1430   44.2390 C   0  0  0  0  0  0  0  0  0  0  0  0
   55.9330   22.2780   43.4690 O   0  0  0  0  0  0  0  0  0  0  0  0
   54.1820   22.9780   44.7230 N   0  0  0  0  0  0  0  0  0  0  0  0
   53.6320   23.8980   45.5560 C   0  0  0  0  0  0  0  0  0  0  0  0
   52.4670   23.7280   45.9990 O   0  0  0  0  0  0  0  0  0  0  0  0
   54.3390   25.0030   45.9110 N   0  0  0  0  0  0  0  0  0  0  0  0
   58.2150   29.6700   46.4420 C   0  0  0  0  0  0  0  0  0  0  0  0
  1  2  2  0
  2  3  1  0
  3  4  1  0
  4  5  1  0
  5  6  1  0
  6  7  2  0
  7  8  1  0
  8  9  2  0
  9 10  1  0
 10 11  2  0
  2 12  1  0
 12 13  1  0
 13 14  2  0
 14 15  1  0
 15 16  2  0
 16 17  1  0
 17 18  1  0
 18 19  1  0
 19 20  1  0
 20 21  2  0
 20 22  1  0
 22 23  2  0
 23 24  1  0
 24 25  2  0
 24 26  1  0
 26 27  1  0
 27 28  2  0
 27 29  1  0
 17 30  2  0
 11  6  1  0
 30 13  1  0
 29 22  1  0
M  CHG  4  12  -1  19  -1  26  -1  29  -1
M  END
>  <UniqueID>  (526) 
27

>  <SMILES>  (526) 
O=C(COCc1ccccc1)[N-]c1cccc(C[N-]C(=O)c2cc(=O)[n-]c(=O)[n-]2)c1

>  <Energy>  (526) 
54.11352202583366

>  <Genealogy>  (526) 
O=C(COCc1ccccc1)[N-]c1cccc(C[N-]C(=O)c2cc(=O)[n-]c(=O)[n-]2)c1 (protonated)
O=C(COCc1ccccc1)[N-]c1cccc(C[N-]C(=O)c2cc(=O)[n-]c(=O)[n-]2)c1 (3D coordinates assigned)
O=C(COCc1ccccc1)[N-]c1cccc(C[N-]C(=O)c2cc(=O)[n-]c(=O)[n-]2)c1 (optimized conformer: 54.11352202583366 kcal/mol)

>  <smiles>  (526) 
O=C(COCc1ccccc1)Nc1cccc(CNC(=O)c2cc(=O)[nH]c(=O)[nH]2)c1

>  <score_type>  (526) 
oracle

>  <origin>  (526) 
adg

>  <m_score__min__energy>  (526) 
-15.06

>  <m_primary>  (526) 
energy

$$$$
53:0
     RDKit          3D

 26 28  0  0  0  0  0  0  0  0999 V2000
   59.6170   29.4880   45.6270 C   0  0  0  0  0  0  0  0  0  0  0  0
   59.9370   30.1350   46.9150 C   0  0  0  0  0  0  0  0  0  0  0  0
   61.0170   30.7780   47.0120 O   0  0  0  0  0  0  0  0  0  0  0  0
   58.9940   30.1150   47.9980 N   0  0  0  0  0  0  0  0  0  0  0  0
   58.8990   30.9530   48.9920 C   0  0  0  0  0  0  0  0  0  0  0  0
   58.7960   30.6430   50.3380 C   0  0  0  0  0  0  0  0  0  0  0  0
   58.6030   31.8730   50.9400 C   0  0  0  0  0  0  0  0  0  0  0  0
   58.3380   32.0990   52.3900 C   0  0  0  0  0  0  0  0  0  0  0  0
   58.5670   32.8490   50.0110 N   0  0  0  0  0  0  0  0  0  0  0  0
   58.7640   32.2870   48.8280 N   0  0  0  0  0  0  0  0  0  0  0  0
   58.7620   33.0280   47.5940 C   0  0  0  0  0  0  0  0  0  0  0  0
   59.7870   33.9530   47.3310 C   0  0  0  0  0  0  0  0  0  0  0  0
   59.8010   34.6730   46.1320 C   0  0  0  0  0  0  0  0  0  0  0  0
   58.8000   34.4680   45.1810 C   0  0  0  0  0  0  0  0  0  0  0  0
   57.7860   33.5400   45.4230 C   0  0  0  0  0  0  0  0  0  0  0  0
   57.7660   32.8190   46.6220 C   0  0  0  0  0  0  0  0  0  0  0  0
   58.3950   29.0840   45.2390 C   0  0  0  0  0  0  0  0  0  0  0  0
   57.7310   27.8370   45.6700 C   0  0  0  0  0  0  0  0  0  0  0  0
   58.5120   26.8050   46.2110 C   0  0  0  0  0  0  0  0  0  0  0  0
   57.9140   25.6200   46.6470 C   0  0  0  0  0  0  0  0  0  0  0  0
   56.5280   25.4580   46.5570 C   0  0  0  0  0  0  0  0  0  0  0  0
   55.9430   24.2720   46.9810 O   0  0  0  0  0  0  0  0  0  0  0  0
   55.7350   26.4910   46.0440 C   0  0  0  0  0  0  0  0  0  0  0  0
   54.3570   26.3330   45.9630 O   0  0  0  0  0  0  0  0  0  0  0  0
   56.3290   27.6870   45.6190 C   0  0  0  0  0  0  0  0  0  0  0  0
   55.5250   28.7240   45.1540 O   0  0  0  0  0  0  0  0  0  0  0  0
  1  2  1  0
  2  3  2  0
  2  4  1  0
  4  5  2  0
  5  6  1  0
  6  7  2  0
  7  8  1  0
  7  9  1  0
  9 10  1  0
 10 11  1  0
 11 12  2  0
 12 13  1  0
 13 14  2  0
 14 15  1  0
 15 16  2  0
  1 17  2  3
 17 18  1  0
 18 19  2  0
 19 20  1  0
 20 21  2  0
 21 22  1  0
 21 23  1  0
 23 24  1  0
 23 25  2  0
 25 26  1  0
 10  5  1  0
 16 11  1  0
 25 18  1  0
M  CHG  4   9  -1  22  -1  24  -1  26  -1
M  END
>  <UniqueID>  (527) 
45

>  <SMILES>  (527) 
Cc1c/c(=N\C(=O)C=Cc2ccc([O-])c([O-])c2[O-])n(-c2ccccc2)[n-]1

>  <Energy>  (527) 
84.16971468740545

>  <Genealogy>  (527) 
Cc1cc(=NC(=O)C=Cc2ccc([O-])c([O-])c2[O-])n(-c2ccccc2)[n-]1 (protonated)
Cc1c/c(=N\C(=O)C=Cc2ccc([O-])c([O-])c2[O-])n(-c2ccccc2)[n-]1 (cis-trans isomerization)
Cc1c/c(=N\C(=O)C=Cc2ccc([O-])c([O-])c2[O-])n(-c2ccccc2)[n-]1 (3D coordinates assigned)
Cc1c/c(=N\C(=O)C=Cc2ccc([O-])c([O-])c2[O-])n(-c2ccccc2)[n-]1 (optimized conformer: 84.16971468740545 kcal/mol)

>  <smiles>  (527) 
Cc1cc(=NC(=O)C=Cc2ccc(O)c(O)c2O)n(-c2ccccc2)[nH]1

>  <score_type>  (527) 
oracle

>  <origin>  (527) 
adg

>  <m_score__min__energy>  (527) 
-17.699999999999999

>  <m_primary>  (527) 
energy

$$$$
82:0
     RDKit          3D

 32 35  0  0  0  0  0  0  0  0999 V2000
   62.7770   32.3260   48.1150 C   0  0  0  0  0  0  0  0  0  0  0  0
   61.4920   32.9410   47.8070 N   0  0  0  0  0  0  0  0  0  0  0  0
   61.2150   34.2210   48.0000 N   0  0  0  0  0  0  0  0  0  0  0  0
   59.9200   34.4180   47.6670 C   0  0  0  0  0  0  0  0  0  0  0  0
   59.3640   33.2180   47.2570 C   0  0  0  0  0  0  0  0  0  0  0  0
   57.9440   32.9610   46.8480 C   0  0  0  0  0  0  0  0  0  0  0  0
   57.8590   31.7470   46.0350 N   0  0  0  0  0  0  0  0  0  0  0  0
   57.5620   31.7280   44.6190 C   0  0  0  0  0  0  0  0  0  0  0  0
   58.0200   32.7600   43.7730 C   0  0  0  0  0  0  0  0  0  0  0  0
   57.8250   32.6950   42.3930 C   0  0  0  0  0  0  0  0  0  0  0  0
   57.1710   31.6010   41.8300 C   0  0  0  0  0  0  0  0  0  0  0  0
   56.6920   30.5770   42.6480 C   0  0  0  0  0  0  0  0  0  0  0  0
   56.8620   30.6340   44.0410 C   0  0  0  0  0  0  0  0  0  0  0  0
   56.2790   29.5560   44.8620 C   0  0  0  0  0  0  0  0  0  0  0  0
   55.1770   29.0410   44.5330 O   0  0  0  0  0  0  0  0  0  0  0  0
   57.0040   29.0490   45.9920 N   0  0  0  0  0  0  0  0  0  0  0  0
   57.8500   27.8910   45.9760 C   0  0  0  0  0  0  0  0  0  0  0  0
   59.2380   28.0640   46.0110 C   0  0  0  0  0  0  0  0  0  0  0  0
   60.0860   26.9550   46.0360 C   0  0  0  0  0  0  0  0  0  0  0  0
   59.5550   25.6620   46.0570 C   0  0  0  0  0  0  0  0  0  0  0  0
   58.1650   25.4700   46.0650 C   0  0  0  0  0  0  0  0  0  0  0  0
   57.6000   24.1010   46.1040 C   0  0  0  0  0  0  0  0  0  0  0  0
   57.4240   23.5420   47.2220 O   0  0  0  0  0  0  0  0  0  0  0  0
   57.2550   23.3940   44.8970 N   0  0  0  0  0  0  0  0  0  0  0  0
   57.3220   21.9340   44.8620 C   0  0  0  0  0  0  0  0  0  0  0  0
   57.3570   21.4590   43.4000 C   0  0  0  0  0  0  0  0  0  0  0  0
   56.2720   21.9150   42.5990 O   0  0  0  0  0  0  0  0  0  0  0  0
   55.6830   23.1360   43.0310 C   0  0  0  0  0  0  0  0  0  0  0  0
   56.6480   24.0870   43.7560 C   0  0  0  0  0  0  0  0  0  0  0  0
   57.3180   26.5890   46.0060 C   0  0  0  0  0  0  0  0  0  0  0  0
   60.3880   32.3060   47.3790 C   0  0  0  0  0  0  0  0  0  0  0  0
   60.3100   30.9420   47.1200 O   0  0  0  0  0  0  0  0  0  0  0  0
  1  2  1  0
  2  3  1  0
  3  4  2  0
  4  5  1  0
  5  6  1  0
  6  7  1  0
  7  8  1  0
  8  9  2  0
  9 10  1  0
 10 11  2  0
 11 12  1  0
 12 13  2  0
 13 14  1  0
 14 15  2  0
 14 16  1  0
 16 17  1  0
 17 18  2  0
 18 19  1  0
 19 20  2  0
 20 21  1  0
 21 22  1  0
 22 23  2  0
 22 24  1  0
 24 25  1  0
 25 26  1  0
 26 27  1  0
 27 28  1  0
 28 29  1  0
 21 30  2  0
  5 31  2  0
 31 32  1  0
 31  2  1  0
 13  8  1  0
 30 17  1  0
 29 24  1  0
M  CHG  2  16  -1  32  -1
M  END
>  <UniqueID>  (528) 
73

>  <SMILES>  (528) 
Cn1ncc(CNc2ccccc2C(=O)[N-]c2cccc(C(=O)N3CCOCC3)c2)c1[O-]

>  <Energy>  (528) 
110.10342537180857

>  <Genealogy>  (528) 
Cn1ncc(CNc2ccccc2C(=O)[N-]c2cccc(C(=O)N3CCOCC3)c2)c1[O-] (protonated)
Cn1ncc(CNc2ccccc2C(=O)[N-]c2cccc(C(=O)N3CCOCC3)c2)c1[O-] (3D coordinates assigned)
Cn1ncc(CNc2ccccc2C(=O)[N-]c2cccc(C(=O)N3CCOCC3)c2)c1[O-] (nonaromatic ring conformer: 110.10342537180857 kcal/mol)

>  <smiles>  (528) 
Cn1ncc(CNc2ccccc2C(=O)Nc2cccc(C(=O)N3CCOCC3)c2)c1O

>  <score_type>  (528) 
oracle

>  <origin>  (528) 
adg

>  <m_score__min__energy>  (528) 
-15.44

>  <m_primary>  (528) 
energy

$$$$
18:0
     RDKit          3D

 35 38  0  0  0  0  0  0  0  0999 V2000
   58.4740   33.9650   46.2930 C   0  0  0  0  0  0  0  0  0  0  0  0
   58.1750   34.0350   44.9290 C   0  0  0  0  0  0  0  0  0  0  0  0
   57.8290   32.8750   44.2270 C   0  0  0  0  0  0  0  0  0  0  0  0
   57.7810   31.6360   44.8890 C   0  0  0  0  0  0  0  0  0  0  0  0
   57.3750   30.3880   44.1510 C   0  0  0  0  0  0  0  0  0  0  0  0
   56.4270   29.6100   44.9470 N   0  0  0  0  0  0  0  0  0  0  0  0
   56.7320   28.5500   45.6340 C   0  0  0  0  0  0  0  0  0  0  0  0
   57.8760   28.5350   46.3620 N   0  0  0  0  0  0  0  0  0  0  0  0
   58.2080   27.4450   47.1040 C   0  0  0  0  0  0  0  0  0  0  0  0
   59.2910   27.4270   47.8230 N   0  0  0  0  0  0  0  0  0  0  0  0
   59.5350   28.2810   48.9870 C   0  0  0  0  0  0  0  0  0  0  0  0
   60.2720   29.5310   48.5830 C   0  0  0  0  0  0  0  0  0  0  0  0
   60.7240   29.6840   47.2630 C   0  0  0  0  0  0  0  0  0  0  0  0
   56.6060   22.4190   42.8430 C   0  0  0  0  0  0  0  0  0  0  0  0
   56.7500   21.2870   43.6450 C   0  0  0  0  0  0  0  0  0  0  0  0
   56.2620   21.2890   44.9530 C   0  0  0  0  0  0  0  0  0  0  0  0
   55.6250   22.4250   45.4690 C   0  0  0  0  0  0  0  0  0  0  0  0
   55.0240   22.3710   47.1230 Cl  0  0  0  0  0  0  0  0  0  0  0  0
   57.3890   26.3630   47.1060 N   0  0  0  0  0  0  0  0  0  0  0  0
   56.2430   26.3650   46.3730 C   0  0  0  0  0  0  0  0  0  0  0  0
   55.4530   25.3340   46.3640 N   0  0  0  0  0  0  0  0  0  0  0  0
   54.7750   24.8090   45.1780 C   0  0  0  0  0  0  0  0  0  0  0  0
   55.4780   23.5760   44.6630 C   0  0  0  0  0  0  0  0  0  0  0  0
   60.5520   30.5320   49.5260 C   0  0  0  0  0  0  0  0  0  0  0  0
   61.4440   30.8230   46.8920 C   0  0  0  0  0  0  0  0  0  0  0  0
   61.7180   31.8230   47.8340 C   0  0  0  0  0  0  0  0  0  0  0  0
   62.6490   33.2430   47.3700 S   0  0  0  0  0  0  0  0  0  0  0  0
   62.8880   34.1110   48.5740 O   0  0  0  0  0  0  0  0  0  0  0  0
   61.8900   34.0360   46.3440 O   0  0  0  0  0  0  0  0  0  0  0  0
   64.1670   32.7420   46.7120 N   0  0  0  0  0  0  0  0  0  0  0  0
   61.2730   31.6700   49.1540 C   0  0  0  0  0  0  0  0  0  0  0  0
   55.9720   23.5590   43.3470 C   0  0  0  0  0  0  0  0  0  0  0  0
   55.9180   27.4600   45.6430 N   0  0  0  0  0  0  0  0  0  0  0  0
   58.0780   31.5760   46.2610 C   0  0  0  0  0  0  0  0  0  0  0  0
   58.4250   32.7370   46.9580 C   0  0  0  0  0  0  0  0  0  0  0  0
  1  2  2  0
  2  3  1  0
  3  4  2  0
  4  5  1  0
  5  6  1  0
  6  7  2  3
  7  8  1  0
  8  9  1  0
  9 10  2  0
 10 11  1  0
 11 12  1  0
 12 13  2  0
 13 14  1  0
 14 15  2  0
 15 16  1  0
 16 17  2  0
 17 18  1  0
  9 19  1  0
 19 20  1  0
 20 21  2  0
 21 22  1  0
 22 23  1  0
 23 24  2  0
 24 25  1  0
 25 26  2  0
 26 27  1  0
 27 28  2  0
 27 29  2  0
 27 30  1  0
 26 31  1  0
 31 32  2  0
 20 33  1  0
  4 34  1  0
 34 35  2  0
 35  1  1  0
 33  7  1  0
 17 12  1  0
 32 23  1  0
M  CHG  3   8  -1  19  -1  33  -1
M  END
>  <UniqueID>  (529) 
18

>  <SMILES>  (529) 
NS(=O)(=O)c1ccc(C/N=c2\[n-]c(=NCc3ccccc3)[n-]/c(=N/Cc3ccccc3Cl)[n-]2)cc1

>  <Energy>  (529) 
57.323283065261826

>  <Genealogy>  (529) 
NS(=O)(=O)c1ccc(CN=c2[n-]c(=NCc3ccccc3)[n-]c(=NCc3ccccc3Cl)[n-]2)cc1 (protonated)
NS(=O)(=O)c1ccc(C/N=c2\[n-]c(=NCc3ccccc3)[n-]/c(=N/Cc3ccccc3Cl)[n-]2)cc1 (cis-trans isomerization)
NS(=O)(=O)c1ccc(C/N=c2\[n-]c(=NCc3ccccc3)[n-]/c(=N/Cc3ccccc3Cl)[n-]2)cc1 (3D coordinates assigned)
NS(=O)(=O)c1ccc(C/N=c2\[n-]c(=NCc3ccccc3)[n-]/c(=N/Cc3ccccc3Cl)[n-]2)cc1 (optimized conformer: 57.323283065261826 kcal/mol)

>  <smiles>  (529) 
NS(=O)(=O)c1ccc(CN=c2[nH]c(=NCc3ccccc3)[nH]c(=NCc3ccccc3Cl)[nH]2)cc1

>  <score_type>  (529) 
oracle

>  <origin>  (529) 
adg

>  <m_score__min__energy>  (529) 
-15.470000000000001

>  <m_primary>  (529) 
energy

$$$$
21:0
     RDKit          3D

 29 31  0  0  0  0  0  0  0  0999 V2000
   59.6670   29.3910   45.8990 C   0  0  0  0  0  0  0  0  0  0  0  0
   58.9720   30.7230   45.7640 C   0  0  0  0  0  0  0  0  0  0  0  0
   59.5400   31.8480   46.3860 C   0  0  0  0  0  0  0  0  0  0  0  0
   58.9500   33.1160   46.2650 C   0  0  0  0  0  0  0  0  0  0  0  0
   59.5240   34.2790   46.9710 C   0  0  0  0  0  0  0  0  0  0  0  0
   60.2390   35.1020   46.3380 O   0  0  0  0  0  0  0  0  0  0  0  0
   59.2610   34.4700   48.3680 N   0  0  0  0  0  0  0  0  0  0  0  0
   59.8410   33.7020   49.4680 C   0  0  0  0  0  0  0  0  0  0  0  0
   61.2370   34.1970   49.8960 C   0  0  0  0  0  0  0  0  0  0  0  0
   62.3160   33.2640   49.5000 N   0  0  0  0  0  0  0  0  0  0  0  0
   63.2810   33.9220   48.5860 C   0  0  0  0  0  0  0  0  0  0  0  0
   62.9450   33.6510   47.1060 C   0  0  0  0  0  0  0  0  0  0  0  0
   62.8650   32.2740   46.7520 O   0  0  0  0  0  0  0  0  0  0  0  0
   62.6980   31.4090   47.8640 C   0  0  0  0  0  0  0  0  0  0  0  0
   61.7740   32.0000   48.9410 C   0  0  0  0  0  0  0  0  0  0  0  0
   57.7790   33.2560   45.5040 C   0  0  0  0  0  0  0  0  0  0  0  0
   57.1910   32.1440   44.9010 C   0  0  0  0  0  0  0  0  0  0  0  0
   57.7610   30.8680   45.0380 C   0  0  0  0  0  0  0  0  0  0  0  0
   56.9410   29.4740   44.3110 S   0  0  0  0  0  0  0  0  0  0  0  0
   55.7850   29.9610   43.4790 O   0  0  0  0  0  0  0  0  0  0  0  0
   57.9020   28.7250   43.4270 O   0  0  0  0  0  0  0  0  0  0  0  0
   56.3840   28.4380   45.5870 N   0  0  0  0  0  0  0  0  0  0  0  0
   56.7040   27.0520   45.7820 C   0  0  0  0  0  0  0  0  0  0  0  0
   58.0610   26.7000   45.8510 C   0  0  0  0  0  0  0  0  0  0  0  0
   58.4490   25.3750   46.0610 C   0  0  0  0  0  0  0  0  0  0  0  0
   57.4850   24.3850   46.2370 C   0  0  0  0  0  0  0  0  0  0  0  0
   56.1300   24.7180   46.1950 C   0  0  0  0  0  0  0  0  0  0  0  0
   55.7310   26.0420   45.9690 C   0  0  0  0  0  0  0  0  0  0  0  0
   54.3740   26.3340   45.9580 O   0  0  0  0  0  0  0  0  0  0  0  0
  1  2  1  0
  2  3  2  0
  3  4  1  0
  4  5  1  0
  5  6  2  0
  5  7  1  0
  7  8  1  0
  8  9  1  0
  9 10  1  0
 10 11  1  0
 11 12  1  0
 12 13  1  0
 13 14  1  0
 14 15  1  0
  4 16  2  0
 16 17  1  0
 17 18  2  0
 18 19  1  0
 19 20  2  0
 19 21  2  0
 19 22  1  0
 22 23  1  0
 23 24  2  0
 24 25  1  0
 25 26  2  0
 26 27  1  0
 27 28  2  0
 28 29  1  0
 18  2  1  0
 28 23  1  0
 15 10  1  0
M  CHG  3   7  -1  22  -1  29  -1
M  END
>  <UniqueID>  (530) 
21

>  <SMILES>  (530) 
Cc1cc(C(=O)[N-]CCN2CCOCC2)ccc1S(=O)(=O)[N-]c1ccccc1[O-]

>  <Energy>  (530) 
78.69933231603382

>  <Genealogy>  (530) 
Cc1cc(C(=O)[N-]CCN2CCOCC2)ccc1S(=O)(=O)[N-]c1ccccc1[O-] (protonated)
Cc1cc(C(=O)[N-]CCN2CCOCC2)ccc1S(=O)(=O)[N-]c1ccccc1[O-] (3D coordinates assigned)
Cc1cc(C(=O)[N-]CCN2CCOCC2)ccc1S(=O)(=O)[N-]c1ccccc1[O-] (nonaromatic ring conformer: 78.69933231603382 kcal/mol)

>  <smiles>  (530) 
Cc1cc(C(=O)NCCN2CCOCC2)ccc1S(=O)(=O)Nc1ccccc1O

>  <score_type>  (530) 
oracle

>  <origin>  (530) 
adg

>  <m_score__min__energy>  (530) 
-15.880000000000001

>  <m_primary>  (530) 
energy

$$$$
30:0
     RDKit          3D

 34 37  0  0  0  0  0  0  0  0999 V2000
   57.6370   32.8710   45.6430 C   0  0  0  0  0  0  0  0  0  0  0  0
   57.7660   31.5470   45.7600 C   0  0  0  0  0  0  0  0  0  0  0  0
   57.0430   30.6900   45.0020 N   0  0  0  0  0  0  0  0  0  0  0  0
   57.4280   29.4620   45.4060 C   0  0  0  0  0  0  0  0  0  0  0  0
   56.9000   28.3370   44.8960 C   0  0  0  0  0  0  0  0  0  0  0  0
   57.1680   26.9740   45.4000 C   0  0  0  0  0  0  0  0  0  0  0  0
   58.4490   26.4070   45.2880 C   0  0  0  0  0  0  0  0  0  0  0  0
   58.6840   25.1000   45.7240 C   0  0  0  0  0  0  0  0  0  0  0  0
   57.6380   24.3400   46.2510 C   0  0  0  0  0  0  0  0  0  0  0  0
   56.3540   24.8820   46.3370 C   0  0  0  0  0  0  0  0  0  0  0  0
   56.1120   26.1910   45.9050 C   0  0  0  0  0  0  0  0  0  0  0  0
   54.8230   26.7080   45.9840 O   0  0  0  0  0  0  0  0  0  0  0  0
   58.3660   29.6050   46.4140 C   0  0  0  0  0  0  0  0  0  0  0  0
   58.8950   28.6800   47.0890 O   0  0  0  0  0  0  0  0  0  0  0  0
   58.5980   30.9140   46.6280 N   0  0  0  0  0  0  0  0  0  0  0  0
   59.4400   31.4760   47.6920 C   0  0  0  0  0  0  0  0  0  0  0  0
   58.8880   31.0880   49.0360 C   0  0  0  0  0  0  0  0  0  0  0  0
   58.0650   31.9790   49.7420 C   0  0  0  0  0  0  0  0  0  0  0  0
   57.4370   31.5750   50.9220 C   0  0  0  0  0  0  0  0  0  0  0  0
   57.6150   30.2680   51.4050 C   0  0  0  0  0  0  0  0  0  0  0  0
   56.8900   29.7920   52.5470 N   0  0  0  0  0  0  0  0  0  0  0  0
   55.7660   30.4570   53.1420 C   0  0  0  0  0  0  0  0  0  0  0  0
   55.9650   31.2140   54.1290 O   0  0  0  0  0  0  0  0  0  0  0  0
   54.3800   30.2490   52.6500 C   0  0  0  0  0  0  0  0  0  0  0  0
   53.8030   28.9700   52.6930 C   0  0  0  0  0  0  0  0  0  0  0  0
   52.4850   28.7770   52.2730 C   0  0  0  0  0  0  0  0  0  0  0  0
   51.7290   29.8550   51.8080 C   0  0  0  0  0  0  0  0  0  0  0  0
   52.2910   31.1410   51.7410 C   0  0  0  0  0  0  0  0  0  0  0  0
   51.4920   32.2950   51.2680 C   0  0  0  0  0  0  0  0  0  0  0  0
   51.4010   32.5500   50.0380 O   0  0  0  0  0  0  0  0  0  0  0  0
   50.8210   33.1060   52.1780 O   0  0  0  0  0  0  0  0  0  0  0  0
   53.6260   31.3230   52.1420 C   0  0  0  0  0  0  0  0  0  0  0  0
   58.4830   29.3980   50.7350 C   0  0  0  0  0  0  0  0  0  0  0  0
   59.1050   29.7990   49.5490 C   0  0  0  0  0  0  0  0  0  0  0  0
  1  2  2  0
  2  3  1  0
  3  4  1  0
  4  5  2  0
  5  6  1  0
  6  7  2  0
  7  8  1  0
  8  9  2  0
  9 10  1  0
 10 11  2  0
 11 12  1  0
  4 13  1  0
 13 14  2  0
 13 15  1  0
 15 16  1  0
 16 17  1  0
 17 18  2  0
 18 19  1  0
 19 20  2  0
 20 21  1  0
 21 22  1  0
 22 23  2  0
 22 24  1  0
 24 25  2  0
 25 26  1  0
 26 27  2  0
 27 28  1  0
 28 29  1  0
 29 30  2  0
 29 31  1  0
 28 32  2  0
 20 33  1  0
 33 34  2  0
 15  2  1  0
 34 17  1  0
 11  6  1  0
 32 24  1  0
M  CHG  4   3  -1  12  -1  21  -1  31  -1
M  END
>  <UniqueID>  (531) 
29

>  <SMILES>  (531) 
C=c1[n-]/c(=C/c2ccccc2[O-])c(=O)n1Cc1ccc([N-]C(=O)c2cccc(C(=O)[O-])c2)cc1

>  <Energy>  (531) 
102.19152665295182

>  <Genealogy>  (531) 
C=c1[n-]c(=Cc2ccccc2[O-])c(=O)n1Cc1ccc([N-]C(=O)c2cccc(C(=O)[O-])c2)cc1 (protonated)
C=c1[n-]/c(=C/c2ccccc2[O-])c(=O)n1Cc1ccc([N-]C(=O)c2cccc(C(=O)[O-])c2)cc1 (cis-trans isomerization)
C=c1[n-]/c(=C/c2ccccc2[O-])c(=O)n1Cc1ccc([N-]C(=O)c2cccc(C(=O)[O-])c2)cc1 (3D coordinates assigned)
C=c1[n-]/c(=C/c2ccccc2[O-])c(=O)n1Cc1ccc([N-]C(=O)c2cccc(C(=O)[O-])c2)cc1 (optimized conformer: 102.19152665295182 kcal/mol)

>  <smiles>  (531) 
C=c1[nH]c(=Cc2ccccc2O)c(=O)n1Cc1ccc(NC(=O)c2cccc(C(=O)O)c2)cc1

>  <score_type>  (531) 
oracle

>  <origin>  (531) 
adg

>  <m_score__min__energy>  (531) 
-19.66

>  <m_primary>  (531) 
energy

$$$$
40:0
     RDKit          3D

 30 32  0  0  0  0  0  0  0  0999 V2000
   58.3160   33.1260   43.6260 C   0  0  0  0  0  0  0  0  0  0  0  0
   57.5090   33.8970   45.0110 S   0  0  0  0  0  0  0  0  0  0  0  0
   56.6330   35.0110   44.5100 O   0  0  0  0  0  0  0  0  0  0  0  0
   56.6770   32.8720   45.7270 O   0  0  0  0  0  0  0  0  0  0  0  0
   58.7150   34.5320   46.0810 N   0  0  0  0  0  0  0  0  0  0  0  0
   59.4230   33.7740   47.0720 C   0  0  0  0  0  0  0  0  0  0  0  0
   60.0740   34.4620   48.1020 C   0  0  0  0  0  0  0  0  0  0  0  0
   60.7850   33.7630   49.0800 C   0  0  0  0  0  0  0  0  0  0  0  0
   60.8430   32.3680   49.0430 C   0  0  0  0  0  0  0  0  0  0  0  0
   60.1740   31.6590   48.0280 C   0  0  0  0  0  0  0  0  0  0  0  0
   60.2280   30.2280   47.9390 N   0  0  0  0  0  0  0  0  0  0  0  0
   59.1140   29.3430   47.7600 C   0  0  0  0  0  0  0  0  0  0  0  0
   58.5070   28.8790   48.7630 O   0  0  0  0  0  0  0  0  0  0  0  0
   58.6230   29.0480   46.3910 C   0  0  0  0  0  0  0  0  0  0  0  0
   58.5080   30.1090   45.4730 C   0  0  0  0  0  0  0  0  0  0  0  0
   57.9870   29.8950   44.1960 C   0  0  0  0  0  0  0  0  0  0  0  0
   57.5770   28.6200   43.8120 C   0  0  0  0  0  0  0  0  0  0  0  0
   57.6970   27.5510   44.6990 C   0  0  0  0  0  0  0  0  0  0  0  0
   58.2220   27.7450   45.9890 C   0  0  0  0  0  0  0  0  0  0  0  0
   58.4100   26.5550   46.8530 C   0  0  0  0  0  0  0  0  0  0  0  0
   59.5800   26.1710   47.1180 O   0  0  0  0  0  0  0  0  0  0  0  0
   57.3030   25.7680   47.3250 N   0  0  0  0  0  0  0  0  0  0  0  0
   56.5920   24.9260   46.6310 C   0  0  0  0  0  0  0  0  0  0  0  0
   56.9520   23.6140   46.5300 N   0  0  0  0  0  0  0  0  0  0  0  0
   56.2340   22.7220   45.7970 C   0  0  0  0  0  0  0  0  0  0  0  0
   55.0920   23.1410   45.1120 C   0  0  0  0  0  0  0  0  0  0  0  0
   54.7040   24.4790   45.1870 C   0  0  0  0  0  0  0  0  0  0  0  0
   55.4560   25.3810   45.9460 C   0  0  0  0  0  0  0  0  0  0  0  0
   55.0700   26.7150   46.0150 O   0  0  0  0  0  0  0  0  0  0  0  0
   59.4840   32.3680   47.0360 C   0  0  0  0  0  0  0  0  0  0  0  0
  1  2  1  0
  2  3  2  0
  2  4  2  0
  2  5  1  0
  5  6  1  0
  6  7  2  0
  7  8  1  0
  8  9  2  0
  9 10  1  0
 10 11  1  0
 11 12  1  0
 12 13  2  0
 12 14  1  0
 14 15  2  0
 15 16  1  0
 16 17  2  0
 17 18  1  0
 18 19  2  0
 19 20  1  0
 20 21  2  0
 20 22  1  0
 22 23  2  3
 23 24  1  0
 24 25  1  0
 25 26  2  0
 26 27  1  0
 27 28  2  0
 28 29  1  0
 10 30  2  0
 30  6  1  0
 19 14  1  0
 28 23  1  0
M  CHG  4   5  -1  11  -1  24  -1  29  -1
M  END
>  <UniqueID>  (532) 
38

>  <SMILES>  (532) 
CS(=O)(=O)[N-]c1cccc([N-]C(=O)c2ccccc2C(=O)N=c2[n-]cccc2[O-])c1

>  <Energy>  (532) 
63.98307681873597

>  <Genealogy>  (532) 
CS(=O)(=O)[N-]c1cccc([N-]C(=O)c2ccccc2C(=O)N=c2[n-]cccc2[O-])c1 (protonated)
CS(=O)(=O)[N-]c1cccc([N-]C(=O)c2ccccc2C(=O)N=c2[n-]cccc2[O-])c1 (3D coordinates assigned)
CS(=O)(=O)[N-]c1cccc([N-]C(=O)c2ccccc2C(=O)N=c2[n-]cccc2[O-])c1 (optimized conformer: 63.98307681873597 kcal/mol)

>  <smiles>  (532) 
CS(=O)(=O)Nc1cccc(NC(=O)c2ccccc2C(=O)N=c2[nH]cccc2O)c1

>  <score_type>  (532) 
oracle

>  <origin>  (532) 
adg

>  <m_score__min__energy>  (532) 
-16.219999999999999

>  <m_primary>  (532) 
energy

$$$$
68:0
     RDKit          3D

 25 27  0  0  0  0  0  0  0  0999 V2000
   56.6900   30.6350   43.3740 C   0  0  0  0  0  0  0  0  0  0  0  0
   57.4060   31.9390   43.0470 C   0  0  0  0  0  0  0  0  0  0  0  0
   58.1080   32.4380   44.2250 N   0  0  0  0  0  0  0  0  0  0  0  0
   58.2000   31.8110   45.4140 C   0  0  0  0  0  0  0  0  0  0  0  0
   58.8980   32.6310   46.2740 C   0  0  0  0  0  0  0  0  0  0  0  0
   59.2670   32.3420   47.6990 C   0  0  0  0  0  0  0  0  0  0  0  0
   59.6890   30.9350   47.8450 N   0  0  0  0  0  0  0  0  0  0  0  0
   60.6880   30.5390   46.8150 C   0  0  0  0  0  0  0  0  0  0  0  0
   60.0790   29.7000   45.6850 C   0  0  0  0  0  0  0  0  0  0  0  0
   59.4690   28.3930   46.2380 C   0  0  0  0  0  0  0  0  0  0  0  0
   58.4260   27.8570   45.2780 C   0  0  0  0  0  0  0  0  0  0  0  0
   58.3890   28.3150   44.1030 O   0  0  0  0  0  0  0  0  0  0  0  0
   57.4700   26.7860   45.6680 C   0  0  0  0  0  0  0  0  0  0  0  0
   57.9300   25.5190   46.0720 C   0  0  0  0  0  0  0  0  0  0  0  0
   57.0250   24.5180   46.4230 C   0  0  0  0  0  0  0  0  0  0  0  0
   55.6560   24.7840   46.3660 C   0  0  0  0  0  0  0  0  0  0  0  0
   54.8240   23.8920   46.6780 O   0  0  0  0  0  0  0  0  0  0  0  0
   55.2180   26.0080   45.9740 N   0  0  0  0  0  0  0  0  0  0  0  0
   56.0770   27.0040   45.6270 C   0  0  0  0  0  0  0  0  0  0  0  0
   55.5580   28.2380   45.2490 O   0  0  0  0  0  0  0  0  0  0  0  0
   58.8830   28.5810   47.6610 C   0  0  0  0  0  0  0  0  0  0  0  0
   58.5060   30.0440   47.9220 C   0  0  0  0  0  0  0  0  0  0  0  0
   59.1880   33.7630   45.5320 C   0  0  0  0  0  0  0  0  0  0  0  0
   59.9790   34.9470   45.9890 C   0  0  0  0  0  0  0  0  0  0  0  0
   58.6990   33.6220   44.2840 N   0  0  0  0  0  0  0  0  0  0  0  0
  1  2  1  0
  2  3  1  0
  3  4  1  0
  4  5  2  0
  5  6  1  0
  6  7  1  0
  7  8  1  0
  8  9  1  0
  9 10  1  0
 10 11  1  0
 11 12  2  0
 11 13  1  0
 13 14  1  0
 14 15  2  0
 15 16  1  0
 16 17  2  0
 16 18  1  0
 18 19  1  0
 19 20  1  0
 10 21  1  0
 21 22  1  0
  5 23  1  0
 23 24  1  0
 23 25  2  0
 25  3  1  0
 22  7  1  0
 19 13  2  0
M  CHG  2  18  -1  20  -1
M  END
>  <UniqueID>  (533) 
63

>  <SMILES>  (533) 
CCn1cc(CN2CCC(C(=O)c3ccc(=O)[n-]c3[O-])CC2)c(C)n1

>  <Energy>  (533) 
85.02015293270765

>  <Genealogy>  (533) 
CCn1cc(CN2CCC(C(=O)c3ccc(=O)[n-]c3[O-])CC2)c(C)n1 (protonated)
CCn1cc(CN2CCC(C(=O)c3ccc(=O)[n-]c3[O-])CC2)c(C)n1 (3D coordinates assigned)
CCn1cc(CN2CCC(C(=O)c3ccc(=O)[n-]c3[O-])CC2)c(C)n1 (nonaromatic ring conformer: 85.02015293270765 kcal/mol)

>  <smiles>  (533) 
CCn1cc(CN2CCC(C(=O)c3ccc(=O)[nH]c3O)CC2)c(C)n1

>  <score_type>  (533) 
oracle

>  <origin>  (533) 
adg

>  <m_score__min__energy>  (533) 
-14.09

>  <m_primary>  (533) 
energy

$$$$
72:0
     RDKit          3D

 26 28  0  0  0  0  0  0  0  0999 V2000
   58.1380   29.8300   44.1370 C   0  0  0  0  0  0  0  0  0  0  0  0
   56.8810   30.6510   43.8290 C   0  0  0  0  0  0  0  0  0  0  0  0
   55.6710   29.7300   43.6870 C   0  0  0  0  0  0  0  0  0  0  0  0
   56.6260   31.5790   44.8860 O   0  0  0  0  0  0  0  0  0  0  0  0
   57.5860   32.3650   45.5430 C   0  0  0  0  0  0  0  0  0  0  0  0
   57.8370   33.7080   45.2070 C   0  0  0  0  0  0  0  0  0  0  0  0
   58.7930   34.4410   45.9150 C   0  0  0  0  0  0  0  0  0  0  0  0
   59.5030   33.8490   46.9600 C   0  0  0  0  0  0  0  0  0  0  0  0
   59.2790   32.5040   47.3040 C   0  0  0  0  0  0  0  0  0  0  0  0
   60.0190   31.9050   48.4960 C   0  0  0  0  0  0  0  0  0  0  0  0
   59.0480   31.1530   49.4270 C   0  0  0  0  0  0  0  0  0  0  0  0
   58.5350   29.8610   48.7780 C   0  0  0  0  0  0  0  0  0  0  0  0
   59.6140   29.1300   48.0920 N   0  0  0  0  0  0  0  0  0  0  0  0
   59.3170   27.9220   47.3650 C   0  0  0  0  0  0  0  0  0  0  0  0
   60.1340   26.9590   47.3980 O   0  0  0  0  0  0  0  0  0  0  0  0
   58.0270   27.7680   46.6020 C   0  0  0  0  0  0  0  0  0  0  0  0
   57.3900   26.4360   46.8650 C   0  0  0  0  0  0  0  0  0  0  0  0
   58.0280   25.3860   47.4110 N   0  0  0  0  0  0  0  0  0  0  0  0
   57.0840   24.4200   47.4130 C   0  0  0  0  0  0  0  0  0  0  0  0
   57.3000   23.2630   47.8610 O   0  0  0  0  0  0  0  0  0  0  0  0
   55.8910   24.7870   46.8950 N   0  0  0  0  0  0  0  0  0  0  0  0
   56.1050   26.0670   46.5480 C   0  0  0  0  0  0  0  0  0  0  0  0
   55.1490   26.8760   45.9490 O   0  0  0  0  0  0  0  0  0  0  0  0
   61.0150   29.5140   48.3210 C   0  0  0  0  0  0  0  0  0  0  0  0
   61.2320   31.0210   48.0890 C   0  0  0  0  0  0  0  0  0  0  0  0
   58.3070   31.7770   46.5870 C   0  0  0  0  0  0  0  0  0  0  0  0
  1  2  1  0
  2  3  1  0
  2  4  1  0
  4  5  1  0
  5  6  2  0
  6  7  1  0
  7  8  2  0
  8  9  1  0
  9 10  1  0
 10 11  1  0
 11 12  1  0
 12 13  1  0
 13 14  1  0
 14 15  2  0
 14 16  1  0
 16 17  1  0
 17 18  1  0
 18 19  1  0
 19 20  2  0
 19 21  1  0
 21 22  1  0
 22 23  1  0
 13 24  1  0
 24 25  1  0
  9 26  2  0
 26  5  1  0
 25 10  1  0
 22 17  2  0
M  CHG  3  18  -1  21  -1  23  -1
M  END
>  <UniqueID>  (534) 
67

>  <SMILES>  (534) 
CC(C)Oc1cccc(C2CCN(C(=O)Cc3[n-]c(=O)[n-]c3[O-])CC2)c1

>  <Energy>  (534) 
77.72406901441246

>  <Genealogy>  (534) 
CC(C)Oc1cccc(C2CCN(C(=O)Cc3[n-]c(=O)[n-]c3[O-])CC2)c1 (protonated)
CC(C)Oc1cccc(C2CCN(C(=O)Cc3[n-]c(=O)[n-]c3[O-])CC2)c1 (3D coordinates assigned)
CC(C)Oc1cccc(C2CCN(C(=O)Cc3[n-]c(=O)[n-]c3[O-])CC2)c1 (nonaromatic ring conformer: 77.72406901441246 kcal/mol)

>  <smiles>  (534) 
CC(C)Oc1cccc(C2CCN(C(=O)Cc3[nH]c(=O)[nH]c3O)CC2)c1

>  <score_type>  (534) 
oracle

>  <origin>  (534) 
adg

>  <m_score__min__energy>  (534) 
-16

>  <m_primary>  (534) 
energy

$$$$
28:0
     RDKit          3D

 30 32  0  0  0  0  0  0  0  0999 V2000
   55.6530   29.5740   44.8520 N   0  0  0  0  0  0  0  0  0  0  0  0
   56.9680   30.0770   45.0670 C   0  0  0  0  0  0  0  0  0  0  0  0
   57.6990   29.5650   45.9570 O   0  0  0  0  0  0  0  0  0  0  0  0
   57.4700   31.2260   44.2490 C   0  0  0  0  0  0  0  0  0  0  0  0
   58.1850   32.1880   45.1090 N   0  0  0  0  0  0  0  0  0  0  0  0
   58.5140   33.4230   44.3780 C   0  0  0  0  0  0  0  0  0  0  0  0
   59.4720   34.2860   45.2190 C   0  0  0  0  0  0  0  0  0  0  0  0
   59.2540   34.1570   46.6770 N   0  0  0  0  0  0  0  0  0  0  0  0
   60.4320   33.0990   47.4310 S   0  0  0  0  0  0  0  0  0  0  0  0
   61.0840   32.2250   46.3970 O   0  0  0  0  0  0  0  0  0  0  0  0
   61.4910   33.9290   48.0990 O   0  0  0  0  0  0  0  0  0  0  0  0
   59.6650   32.0990   48.6640 C   0  0  0  0  0  0  0  0  0  0  0  0
   59.1700   32.6730   49.8420 C   0  0  0  0  0  0  0  0  0  0  0  0
   58.5420   31.8740   50.8020 C   0  0  0  0  0  0  0  0  0  0  0  0
   58.4170   30.4930   50.6040 C   0  0  0  0  0  0  0  0  0  0  0  0
   57.7380   29.7160   51.6010 N   0  0  0  0  0  0  0  0  0  0  0  0
   56.5020   30.0470   52.2470 C   0  0  0  0  0  0  0  0  0  0  0  0
   56.2770   29.6730   53.4280 O   0  0  0  0  0  0  0  0  0  0  0  0
   55.5010   30.8050   51.5590 N   0  0  0  0  0  0  0  0  0  0  0  0
   54.0880   30.7520   51.8010 C   0  0  0  0  0  0  0  0  0  0  0  0
   53.5650   29.6620   52.5090 C   0  0  0  0  0  0  0  0  0  0  0  0
   52.1940   29.5810   52.7710 C   0  0  0  0  0  0  0  0  0  0  0  0
   51.3380   30.5990   52.3440 C   0  0  0  0  0  0  0  0  0  0  0  0
   51.8530   31.7030   51.6600 C   0  0  0  0  0  0  0  0  0  0  0  0
   51.0040   32.7230   51.2490 O   0  0  0  0  0  0  0  0  0  0  0  0
   53.2250   31.7880   51.3950 C   0  0  0  0  0  0  0  0  0  0  0  0
   58.8970   29.9220   49.4120 C   0  0  0  0  0  0  0  0  0  0  0  0
   59.5190   30.7230   48.4500 C   0  0  0  0  0  0  0  0  0  0  0  0
   57.8680   33.7900   47.0220 C   0  0  0  0  0  0  0  0  0  0  0  0
   57.3950   32.4980   46.3200 C   0  0  0  0  0  0  0  0  0  0  0  0
  1  2  1  0
  2  3  2  0
  2  4  1  0
  4  5  1  0
  5  6  1  0
  6  7  1  0
  7  8  1  0
  8  9  1  0
  9 10  2  0
  9 11  2  0
  9 12  1  0
 12 13  2  0
 13 14  1  0
 14 15  2  0
 15 16  1  0
 16 17  1  0
 17 18  2  0
 17 19  1  0
 19 20  1  0
 20 21  2  0
 21 22  1  0
 22 23  2  0
 23 24  1  0
 24 25  1  0
 24 26  2  0
 15 27  1  0
 27 28  2  0
  8 29  1  0
 29 30  1  0
 30  5  1  0
 28 12  1  0
 26 20  1  0
M  CHG  4   1  -1  16  -1  19  -1  25  -1
M  END
>  <UniqueID>  (535) 
24

>  <SMILES>  (535) 
[NH-]C(=O)CN1CCN(S(=O)(=O)c2ccc([N-]C(=O)[N-]c3cccc([O-])c3)cc2)CC1

>  <Energy>  (535) 
66.5722113640819

>  <Genealogy>  (535) 
[NH-]C(=O)CN1CCN(S(=O)(=O)c2ccc([N-]C(=O)[N-]c3cccc([O-])c3)cc2)CC1 (protonated)
[NH-]C(=O)CN1CCN(S(=O)(=O)c2ccc([N-]C(=O)[N-]c3cccc([O-])c3)cc2)CC1 (3D coordinates assigned)
[NH-]C(=O)CN1CCN(S(=O)(=O)c2ccc([N-]C(=O)[N-]c3cccc([O-])c3)cc2)CC1 (nonaromatic ring conformer: 66.5722113640819 kcal/mol)

>  <smiles>  (535) 
NC(=O)CN1CCN(S(=O)(=O)c2ccc(NC(=O)Nc3cccc(O)c3)cc2)CC1

>  <score_type>  (535) 
oracle

>  <origin>  (535) 
adg

>  <m_score__min__energy>  (535) 
-17.760000000000002

>  <m_primary>  (535) 
energy

$$$$
72:0
     RDKit          3D

 37 41  0  0  0  0  0  0  0  0999 V2000
   55.4210   30.7330   44.4570 O   0  0  0  0  0  0  0  0  0  0  0  0
   56.6660   30.7260   44.6520 C   0  0  0  0  0  0  0  0  0  0  0  0
   57.4830   29.5550   44.1970 C   0  0  0  0  0  0  0  0  0  0  0  0
   57.1920   28.3260   45.0240 C   0  0  0  0  0  0  0  0  0  0  0  0
   55.8900   28.0080   45.2530 N   0  0  0  0  0  0  0  0  0  0  0  0
   55.5330   26.9520   45.9820 N   0  0  0  0  0  0  0  0  0  0  0  0
   56.4520   26.1290   46.5450 C   0  0  0  0  0  0  0  0  0  0  0  0
   56.0620   25.1390   47.2220 O   0  0  0  0  0  0  0  0  0  0  0  0
   57.8210   26.3930   46.3640 C   0  0  0  0  0  0  0  0  0  0  0  0
   58.8100   25.5670   46.9360 C   0  0  0  0  0  0  0  0  0  0  0  0
   60.1620   25.8610   46.7590 C   0  0  0  0  0  0  0  0  0  0  0  0
   60.5450   26.9730   46.0080 C   0  0  0  0  0  0  0  0  0  0  0  0
   59.5800   27.7910   45.4200 C   0  0  0  0  0  0  0  0  0  0  0  0
   58.2060   27.5160   45.5920 C   0  0  0  0  0  0  0  0  0  0  0  0
   57.3200   31.8240   45.3030 N   0  0  0  0  0  0  0  0  0  0  0  0
   58.4780   31.7810   46.1530 C   0  0  0  0  0  0  0  0  0  0  0  0
   59.4640   30.8210   45.8900 C   0  0  0  0  0  0  0  0  0  0  0  0
   60.5930   30.7200   46.7080 C   0  0  0  0  0  0  0  0  0  0  0  0
   60.7470   31.5780   47.8000 C   0  0  0  0  0  0  0  0  0  0  0  0
   59.7820   32.5590   48.0610 C   0  0  0  0  0  0  0  0  0  0  0  0
   59.9030   33.5950   49.4810 S   0  0  0  0  0  0  0  0  0  0  0  0
   59.2690   34.9210   49.1680 O   0  0  0  0  0  0  0  0  0  0  0  0
   61.3460   33.8150   49.8480 O   0  0  0  0  0  0  0  0  0  0  0  0
   59.0630   32.8350   50.8090 N   0  0  0  0  0  0  0  0  0  0  0  0
   59.5050   31.4300   50.9490 C   0  0  0  0  0  0  0  0  0  0  0  0
   59.1370   30.8250   52.3190 C   0  0  0  0  0  0  0  0  0  0  0  0
   58.1060   31.6290   52.9820 N   0  0  0  0  0  0  0  0  0  0  0  0
   56.9590   30.9990   53.5780 C   0  0  0  0  0  0  0  0  0  0  0  0
   56.8740   30.8750   54.9750 C   0  0  0  0  0  0  0  0  0  0  0  0
   55.7620   30.2670   55.5630 C   0  0  0  0  0  0  0  0  0  0  0  0
   54.7230   29.7860   54.7630 C   0  0  0  0  0  0  0  0  0  0  0  0
   54.7900   29.9190   53.3730 C   0  0  0  0  0  0  0  0  0  0  0  0
   55.9020   30.5270   52.7750 C   0  0  0  0  0  0  0  0  0  0  0  0
   55.9540   30.6840   51.3890 O   0  0  0  0  0  0  0  0  0  0  0  0
   58.3040   33.0780   53.1170 C   0  0  0  0  0  0  0  0  0  0  0  0
   59.2790   33.5910   52.0500 C   0  0  0  0  0  0  0  0  0  0  0  0
   58.6650   32.6760   47.2240 C   0  0  0  0  0  0  0  0  0  0  0  0
  1  2  2  0
  2  3  1  0
  3  4  1  0
  4  5  2  0
  5  6  1  0
  6  7  1  0
  7  8  2  0
  7  9  1  0
  9 10  2  0
 10 11  1  0
 11 12  2  0
 12 13  1  0
 13 14  2  0
  2 15  1  0
 15 16  1  0
 16 17  2  0
 17 18  1  0
 18 19  2  0
 19 20  1  0
 20 21  1  0
 21 22  2  0
 21 23  2  0
 21 24  1  0
 24 25  1  0
 25 26  1  0
 26 27  1  0
 27 28  1  0
 28 29  2  0
 29 30  1  0
 30 31  2  0
 31 32  1  0
 32 33  2  0
 33 34  1  0
 27 35  1  0
 35 36  1  0
 20 37  2  0
 14  4  1  0
 37 16  1  0
 14  9  1  0
 36 24  1  0
 33 28  1  0
M  CHG  2   6  -1  15  -1
M  END
>  <UniqueID>  (536) 
65

>  <SMILES>  (536) 
O=C(Cc1n[n-]c(=O)c2ccccc12)[N-]c1cccc(S(=O)(=O)N2CCN(c3ccccc3O)CC2)c1

>  <Energy>  (536) 
82.89208037807818

>  <Genealogy>  (536) 
O=C(Cc1n[n-]c(=O)c2ccccc12)[N-]c1cccc(S(=O)(=O)N2CCN(c3ccccc3O)CC2)c1 (protonated)
O=C(Cc1n[n-]c(=O)c2ccccc12)[N-]c1cccc(S(=O)(=O)N2CCN(c3ccccc3O)CC2)c1 (3D coordinates assigned)
O=C(Cc1n[n-]c(=O)c2ccccc12)[N-]c1cccc(S(=O)(=O)N2CCN(c3ccccc3O)CC2)c1 (nonaromatic ring conformer: 82.89208037807818 kcal/mol)

>  <smiles>  (536) 
O=C(Cc1n[nH]c(=O)c2ccccc12)Nc1cccc(S(=O)(=O)N2CCN(c3ccccc3O)CC2)c1

>  <score_type>  (536) 
oracle

>  <origin>  (536) 
adg

>  <m_score__min__energy>  (536) 
-14.859999999999999

>  <m_primary>  (536) 
energy

$$$$
88:0
     RDKit          3D

 26 27  0  0  0  0  0  0  0  0999 V2000
   55.8750   28.2800   45.2370 O   0  0  0  0  0  0  0  0  0  0  0  0
   56.5150   29.3640   45.2280 C   0  0  0  0  0  0  0  0  0  0  0  0
   56.0130   30.4440   44.5160 O   0  0  0  0  0  0  0  0  0  0  0  0
   57.8400   29.4760   45.8660 C   0  0  0  0  0  0  0  0  0  0  0  0
   58.1210   30.2650   46.8640 N   0  0  0  0  0  0  0  0  0  0  0  0
   59.3170   30.2920   47.6580 C   0  0  0  0  0  0  0  0  0  0  0  0
   60.4510   30.1620   47.1220 O   0  0  0  0  0  0  0  0  0  0  0  0
   59.2070   30.3560   49.1510 C   0  0  0  0  0  0  0  0  0  0  0  0
   58.9860   31.7940   49.6240 C   0  0  0  0  0  0  0  0  0  0  0  0
   57.9190   31.8360   50.6760 C   0  0  0  0  0  0  0  0  0  0  0  0
   57.7880   32.8730   51.3820 O   0  0  0  0  0  0  0  0  0  0  0  0
   57.0590   30.7030   50.8750 N   0  0  0  0  0  0  0  0  0  0  0  0
   56.2420   30.5130   52.0420 C   0  0  0  0  0  0  0  0  0  0  0  0
   56.7640   29.9370   53.2140 C   0  0  0  0  0  0  0  0  0  0  0  0
   55.9430   29.7390   54.3280 C   0  0  0  0  0  0  0  0  0  0  0  0
   54.5950   30.0990   54.2790 C   0  0  0  0  0  0  0  0  0  0  0  0
   54.0510   30.6480   53.1050 C   0  0  0  0  0  0  0  0  0  0  0  0
   52.6070   31.0650   53.0630 C   0  0  0  0  0  0  0  0  0  0  0  0
   52.1070   31.0470   51.6510 C   0  0  0  0  0  0  0  0  0  0  0  0
   52.2710   29.7560   50.5800 S   0  0  0  0  0  0  0  0  0  0  0  0
   51.4120   30.5470   49.3700 C   0  0  0  0  0  0  0  0  0  0  0  0
   51.1820   30.0620   48.2330 O   0  0  0  0  0  0  0  0  0  0  0  0
   50.9850   31.7700   49.7490 N   0  0  0  0  0  0  0  0  0  0  0  0
   51.3660   32.0460   51.0230 C   0  0  0  0  0  0  0  0  0  0  0  0
   51.0310   33.2430   51.6420 O   0  0  0  0  0  0  0  0  0  0  0  0
   54.8820   30.8540   51.9920 C   0  0  0  0  0  0  0  0  0  0  0  0
  1  2  2  0
  2  3  1  0
  2  4  1  0
  4  5  2  3
  5  6  1  0
  6  7  2  0
  6  8  1  0
  8  9  1  0
  9 10  1  0
 10 11  2  0
 10 12  1  0
 12 13  1  0
 13 14  2  0
 14 15  1  0
 15 16  2  0
 16 17  1  0
 17 18  1  0
 18 19  1  0
 19 20  1  0
 20 21  1  0
 21 22  2  0
 21 23  1  0
 23 24  1  0
 24 25  1  0
 17 26  2  0
 26 13  1  0
 24 19  2  0
M  CHG  3   3  -1  23  -1  25  -1
M  END
>  <UniqueID>  (537) 
80

>  <SMILES>  (537) 
O=C([O-])C=NC(=O)CCC(=O)Nc1cccc(Cc2sc(=O)[n-]c2[O-])c1

>  <Energy>  (537) 
73.58224171630572

>  <Genealogy>  (537) 
O=C([O-])C=NC(=O)CCC(=O)Nc1cccc(Cc2sc(=O)[n-]c2[O-])c1 (protonated)
O=C([O-])C=NC(=O)CCC(=O)Nc1cccc(Cc2sc(=O)[n-]c2[O-])c1 (3D coordinates assigned)
O=C([O-])C=NC(=O)CCC(=O)Nc1cccc(Cc2sc(=O)[n-]c2[O-])c1 (optimized conformer: 73.58224171630572 kcal/mol)

>  <smiles>  (537) 
O=C(O)C=NC(=O)CCC(=O)Nc1cccc(Cc2sc(=O)[nH]c2O)c1

>  <score_type>  (537) 
oracle

>  <origin>  (537) 
adg

>  <m_score__min__energy>  (537) 
-17.190000000000001

>  <m_primary>  (537) 
energy

$$$$
94:0
     RDKit          3D

 32 34  0  0  0  0  0  0  0  0999 V2000
   58.1080   26.6610   42.8470 N   0  0  0  0  0  0  0  0  0  0  0  0
   58.1460   26.7840   43.9980 C   0  0  0  0  0  0  0  0  0  0  0  0
   58.1940   26.9330   45.4330 C   0  0  0  0  0  0  0  0  0  0  0  0
   57.4980   27.8880   46.0720 C   0  0  0  0  0  0  0  0  0  0  0  0
   57.4010   29.2950   45.6130 C   0  0  0  0  0  0  0  0  0  0  0  0
   56.2470   29.7840   44.9890 C   0  0  0  0  0  0  0  0  0  0  0  0
   55.1460   28.9640   44.7760 O   0  0  0  0  0  0  0  0  0  0  0  0
   56.1870   31.0820   44.6100 N   0  0  0  0  0  0  0  0  0  0  0  0
   57.2140   31.9400   44.8360 C   0  0  0  0  0  0  0  0  0  0  0  0
   57.0990   33.1380   44.4620 O   0  0  0  0  0  0  0  0  0  0  0  0
   58.3510   31.5080   45.4730 N   0  0  0  0  0  0  0  0  0  0  0  0
   59.4370   32.4650   45.7720 C   0  0  0  0  0  0  0  0  0  0  0  0
   59.4270   32.8760   47.2510 C   0  0  0  0  0  0  0  0  0  0  0  0
   60.8100   33.2160   47.7430 C   0  0  0  0  0  0  0  0  0  0  0  0
   61.9410   32.7460   47.0550 C   0  0  0  0  0  0  0  0  0  0  0  0
   63.2240   33.0120   47.5440 C   0  0  0  0  0  0  0  0  0  0  0  0
   63.3860   33.7420   48.7240 C   0  0  0  0  0  0  0  0  0  0  0  0
   62.2650   34.2080   49.4180 C   0  0  0  0  0  0  0  0  0  0  0  0
   60.9820   33.9460   48.9310 C   0  0  0  0  0  0  0  0  0  0  0  0
   58.4470   30.1960   45.8730 C   0  0  0  0  0  0  0  0  0  0  0  0
   59.4770   29.7870   46.4790 O   0  0  0  0  0  0  0  0  0  0  0  0
   59.0530   26.0090   46.1950 C   0  0  0  0  0  0  0  0  0  0  0  0
   60.3000   26.0610   46.0300 O   0  0  0  0  0  0  0  0  0  0  0  0
   58.5170   25.0700   47.1360 N   0  0  0  0  0  0  0  0  0  0  0  0
   57.1400   24.5780   47.1460 C   0  0  0  0  0  0  0  0  0  0  0  0
   56.8190   23.8900   45.8470 C   0  0  0  0  0  0  0  0  0  0  0  0
   55.6370   24.1890   45.1500 C   0  0  0  0  0  0  0  0  0  0  0  0
   55.3310   23.5230   43.9600 C   0  0  0  0  0  0  0  0  0  0  0  0
   56.2020   22.5530   43.4530 C   0  0  0  0  0  0  0  0  0  0  0  0
   55.8860   21.8970   42.2660 O   0  0  0  0  0  0  0  0  0  0  0  0
   57.3840   22.2510   44.1430 C   0  0  0  0  0  0  0  0  0  0  0  0
   57.6900   22.9150   45.3350 C   0  0  0  0  0  0  0  0  0  0  0  0
  1  2  3  0
  2  3  1  0
  3  4  2  3
  4  5  1  0
  5  6  2  0
  6  7  1  0
  6  8  1  0
  8  9  1  0
  9 10  2  0
  9 11  1  0
 11 12  1  0
 12 13  1  0
 13 14  1  0
 14 15  2  0
 15 16  1  0
 16 17  2  0
 17 18  1  0
 18 19  2  0
 11 20  1  0
 20 21  2  0
  3 22  1  0
 22 23  2  0
 22 24  1  0
 24 25  1  0
 25 26  1  0
 26 27  2  0
 27 28  1  0
 28 29  2  0
 29 30  1  0
 29 31  1  0
 31 32  2  0
 20  5  1  0
 32 26  1  0
 19 14  1  0
M  CHG  3   7  -1   8  -1  24  -1
M  END
>  <UniqueID>  (538) 
86

>  <SMILES>  (538) 
N#CC(=Cc1c([O-])[n-]c(=O)n(CCc2ccccc2)c1=O)C(=O)[N-]Cc1ccc(O)cc1

>  <Energy>  (538) 
61.05666890679271

>  <Genealogy>  (538) 
N#CC(=Cc1c([O-])[n-]c(=O)n(CCc2ccccc2)c1=O)C(=O)[N-]Cc1ccc(O)cc1 (protonated)
N#CC(=Cc1c([O-])[n-]c(=O)n(CCc2ccccc2)c1=O)C(=O)[N-]Cc1ccc(O)cc1 (3D coordinates assigned)
N#CC(=Cc1c([O-])[n-]c(=O)n(CCc2ccccc2)c1=O)C(=O)[N-]Cc1ccc(O)cc1 (optimized conformer: 61.05666890679271 kcal/mol)

>  <smiles>  (538) 
N#CC(=Cc1c(O)[nH]c(=O)n(CCc2ccccc2)c1=O)C(=O)NCc1ccc(O)cc1

>  <score_type>  (538) 
oracle

>  <origin>  (538) 
adg

>  <m_score__min__energy>  (538) 
-15.300000000000001

>  <m_primary>  (538) 
energy

$$$$
2:0
     RDKit          3D

 32 35  0  0  0  0  0  0  0  0999 V2000
   57.4730   30.7700   43.0440 C   0  0  0  0  0  0  0  0  0  0  0  0
   58.0120   30.5020   44.3110 C   0  0  0  0  0  0  0  0  0  0  0  0
   58.1110   29.1640   44.8230 N   0  0  0  0  0  0  0  0  0  0  0  0
   56.9870   28.3640   45.2340 C   0  0  0  0  0  0  0  0  0  0  0  0
   55.8160   28.8270   45.1690 O   0  0  0  0  0  0  0  0  0  0  0  0
   57.1830   26.9860   45.7340 C   0  0  0  0  0  0  0  0  0  0  0  0
   58.4810   26.4520   45.7790 C   0  0  0  0  0  0  0  0  0  0  0  0
   58.6960   25.1540   46.2520 C   0  0  0  0  0  0  0  0  0  0  0  0
   57.6180   24.3740   46.6720 C   0  0  0  0  0  0  0  0  0  0  0  0
   56.3210   24.8860   46.6120 C   0  0  0  0  0  0  0  0  0  0  0  0
   56.0950   26.1820   46.1350 C   0  0  0  0  0  0  0  0  0  0  0  0
   54.7870   26.6460   46.0360 O   0  0  0  0  0  0  0  0  0  0  0  0
   58.5140   31.5280   45.0500 N   0  0  0  0  0  0  0  0  0  0  0  0
   58.4920   32.8240   44.6320 C   0  0  0  0  0  0  0  0  0  0  0  0
   58.9860   33.7310   45.4290 N   0  0  0  0  0  0  0  0  0  0  0  0
   58.9220   33.8230   46.8630 C   0  0  0  0  0  0  0  0  0  0  0  0
   57.8230   34.0420   47.4410 O   0  0  0  0  0  0  0  0  0  0  0  0
   60.1680   33.7510   47.6620 C   0  0  0  0  0  0  0  0  0  0  0  0
   61.4150   33.5990   47.0290 C   0  0  0  0  0  0  0  0  0  0  0  0
   62.5910   33.5340   47.7820 C   0  0  0  0  0  0  0  0  0  0  0  0
   62.5470   33.6180   49.1840 C   0  0  0  0  0  0  0  0  0  0  0  0
   63.7580   33.5460   49.9610 N   0  0  0  0  0  0  0  0  0  0  0  0
   64.9660   32.9660   49.3630 C   0  0  0  0  0  0  0  0  0  0  0  0
   66.1490   33.0290   50.3390 C   0  0  0  0  0  0  0  0  0  0  0  0
   65.7540   32.6210   51.7010 N   0  0  0  0  0  0  0  0  0  0  0  0
   65.4690   31.1770   51.7790 C   0  0  0  0  0  0  0  0  0  0  0  0
   64.6480   33.4340   52.2730 C   0  0  0  0  0  0  0  0  0  0  0  0
   63.8650   34.2620   51.2370 C   0  0  0  0  0  0  0  0  0  0  0  0
   61.3020   33.7730   49.8160 C   0  0  0  0  0  0  0  0  0  0  0  0
   60.1270   33.8400   49.0650 C   0  0  0  0  0  0  0  0  0  0  0  0
   57.9110   33.1240   43.3830 C   0  0  0  0  0  0  0  0  0  0  0  0
   57.4150   32.0880   42.5920 C   0  0  0  0  0  0  0  0  0  0  0  0
  1  2  2  0
  2  3  1  0
  3  4  1  0
  4  5  2  0
  4  6  1  0
  6  7  2  0
  7  8  1  0
  8  9  2  0
  9 10  1  0
 10 11  2  0
 11 12  1  0
  2 13  1  0
 13 14  1  0
 14 15  2  0
 15 16  1  0
 16 17  2  0
 16 18  1  0
 18 19  2  0
 19 20  1  0
 20 21  2  0
 21 22  1  0
 22 23  1  0
 23 24  1  0
 24 25  1  0
 25 26  1  0
 25 27  1  0
 27 28  1  0
 21 29  1  0
 29 30  2  0
 14 31  1  0
 31 32  2  0
 32  1  1  0
 11  6  1  0
 30 18  1  0
 28 22  1  0
M  CHG  2  12  -1  13  -1
M  END
>  <UniqueID>  (539) 
3

>  <SMILES>  (539) 
CN1CCN(c2ccc(C(=O)/N=c3\cccc(NC(=O)c4ccccc4[O-])[n-]3)cc2)CC1

>  <Energy>  (539) 
87.99251486215665

>  <Genealogy>  (539) 
CN1CCN(c2ccc(C(=O)N=c3cccc(NC(=O)c4ccccc4[O-])[n-]3)cc2)CC1 (protonated)
CN1CCN(c2ccc(C(=O)/N=c3\cccc(NC(=O)c4ccccc4[O-])[n-]3)cc2)CC1 (cis-trans isomerization)
CN1CCN(c2ccc(C(=O)/N=c3\cccc(NC(=O)c4ccccc4[O-])[n-]3)cc2)CC1 (3D coordinates assigned)
CN1CCN(c2ccc(C(=O)/N=c3\cccc(NC(=O)c4ccccc4[O-])[n-]3)cc2)CC1 (nonaromatic ring conformer: 87.99251486215665 kcal/mol)

>  <smiles>  (539) 
CN1CCN(c2ccc(C(=O)N=c3cccc(NC(=O)c4ccccc4O)[nH]3)cc2)CC1

>  <score_type>  (539) 
oracle

>  <origin>  (539) 
adg

>  <m_score__min__energy>  (539) 
-15.57

>  <m_primary>  (539) 
energy

$$$$
51:0
     RDKit          3D

 37 40  0  0  0  0  0  0  0  0999 V2000
   58.9180   33.6820   51.7650 C   0  0  0  0  0  0  0  0  0  0  0  0
   57.8980   32.5440   51.7710 C   0  0  0  0  0  0  0  0  0  0  0  0
   58.5300   31.1820   51.4560 C   0  0  0  0  0  0  0  0  0  0  0  0
   59.8740   31.3040   50.7820 C   0  0  0  0  0  0  0  0  0  0  0  0
   60.1410   31.0570   49.4820 C   0  0  0  0  0  0  0  0  0  0  0  0
   61.2480   30.3710   49.1310 N   0  0  0  0  0  0  0  0  0  0  0  0
   61.1290   30.1080   47.8220 C   0  0  0  0  0  0  0  0  0  0  0  0
   59.9410   30.6540   47.3740 C   0  0  0  0  0  0  0  0  0  0  0  0
   59.4360   30.5260   46.1320 C   0  0  0  0  0  0  0  0  0  0  0  0
   58.2350   29.7350   45.8140 C   0  0  0  0  0  0  0  0  0  0  0  0
   57.2060   30.3450   45.1670 N   0  0  0  0  0  0  0  0  0  0  0  0
   56.0610   29.6750   44.8790 C   0  0  0  0  0  0  0  0  0  0  0  0
   55.1270   30.2600   44.2730 O   0  0  0  0  0  0  0  0  0  0  0  0
   55.9190   28.3770   45.2500 N   0  0  0  0  0  0  0  0  0  0  0  0
   56.9090   27.7280   45.9180 C   0  0  0  0  0  0  0  0  0  0  0  0
   56.7490   26.5270   46.2620 O   0  0  0  0  0  0  0  0  0  0  0  0
   58.0960   28.4000   46.2280 C   0  0  0  0  0  0  0  0  0  0  0  0
   59.1000   27.7600   46.9490 O   0  0  0  0  0  0  0  0  0  0  0  0
   59.3450   31.3200   48.4030 N   0  0  0  0  0  0  0  0  0  0  0  0
   58.2270   32.2820   48.3030 C   0  0  0  0  0  0  0  0  0  0  0  0
   58.3660   33.2260   47.1190 C   0  0  0  0  0  0  0  0  0  0  0  0
   57.2130   33.5340   46.3690 C   0  0  0  0  0  0  0  0  0  0  0  0
   57.2950   34.3360   45.2300 C   0  0  0  0  0  0  0  0  0  0  0  0
   58.5210   34.8620   44.8310 C   0  0  0  0  0  0  0  0  0  0  0  0
   59.6690   34.6020   45.5800 C   0  0  0  0  0  0  0  0  0  0  0  0
   59.6080   33.8040   46.7360 C   0  0  0  0  0  0  0  0  0  0  0  0
   60.8470   33.6450   47.5350 C   0  0  0  0  0  0  0  0  0  0  0  0
   60.8460   33.9710   48.8310 C   0  0  0  0  0  0  0  0  0  0  0  0
   62.1220   34.0090   49.6160 C   0  0  0  0  0  0  0  0  0  0  0  0
   63.0590   32.9770   49.1470 N   0  0  0  0  0  0  0  0  0  0  0  0
   63.9920   32.3890   50.0720 C   0  0  0  0  0  0  0  0  0  0  0  0
   63.7540   31.2540   50.5700 O   0  0  0  0  0  0  0  0  0  0  0  0
   65.1700   33.0690   50.4040 O   0  0  0  0  0  0  0  0  0  0  0  0
   66.4700   32.4900   50.2970 C   0  0  0  0  0  0  0  0  0  0  0  0
   67.5500   33.5440   50.5070 C   0  0  0  0  0  0  0  0  0  0  0  0
   63.1460   32.6200   47.7190 C   0  0  0  0  0  0  0  0  0  0  0  0
   62.1650   33.4150   46.8420 C   0  0  0  0  0  0  0  0  0  0  0  0
  1  2  1  0
  2  3  1  0
  3  4  1  0
  4  5  2  3
  5  6  1  0
  6  7  2  0
  7  8  1  0
  8  9  2  3
  9 10  1  0
 10 11  1  0
 11 12  1  0
 12 13  2  0
 12 14  1  0
 14 15  1  0
 15 16  2  0
 15 17  1  0
 17 18  1  0
  8 19  1  0
 19 20  1  0
 20 21  1  0
 21 22  2  0
 22 23  1  0
 23 24  2  0
 24 25  1  0
 25 26  2  0
 26 27  1  0
 27 28  2  0
 28 29  1  0
 29 30  1  0
 30 31  1  0
 31 32  2  0
 31 33  1  0
 33 34  1  0
 34 35  1  0
 30 36  1  0
 36 37  1  0
 19  5  1  0
 26 21  1  0
 37 27  1  0
 17 10  2  0
M  CHG  4   6   1  11  -1  14  -1  18  -1
M  END
>  <UniqueID>  (540) 
51

>  <SMILES>  (540) 
CCCC=c1[nH+]cc(=Cc2[n-]c(=O)[n-]c(=O)c2[O-])n1Cc1ccccc1C1=CCN(C(=O)OCC)CC1

>  <Energy>  (540) 
117.44432255339234

>  <Genealogy>  (540) 
CCCC=c1[nH+]cc(=Cc2[n-]c(=O)[n-]c(=O)c2[O-])n1Cc1ccccc1C1=CCN(C(=O)OCC)CC1 (protonated)
CCCC=c1[nH+]cc(=Cc2[n-]c(=O)[n-]c(=O)c2[O-])n1Cc1ccccc1C1=CCN(C(=O)OCC)CC1 (3D coordinates assigned)
CCCC=c1[nH+]cc(=Cc2[n-]c(=O)[n-]c(=O)c2[O-])n1Cc1ccccc1C1=CCN(C(=O)OCC)CC1 (nonaromatic ring conformer: 117.44432255339234 kcal/mol)

>  <smiles>  (540) 
CCCC=c1ncc(=Cc2[nH]c(=O)[nH]c(=O)c2O)n1Cc1ccccc1C1=CCN(C(=O)OCC)CC1

>  <score_type>  (540) 
oracle

>  <origin>  (540) 
adg

>  <m_score__min__energy>  (540) 
-14.01

>  <m_primary>  (540) 
energy

$$$$
70:0
     RDKit          3D

 26 27  0  0  0  0  0  0  0  0999 V2000
   59.6250   35.3310   45.8160 C   0  0  0  0  0  0  0  0  0  0  0  0
   59.3660   34.5800   47.4580 S   0  0  0  0  0  0  0  0  0  0  0  0
   59.4380   32.8490   46.8840 C   0  0  0  0  0  0  0  0  0  0  0  0
   58.4020   32.6020   45.8390 C   0  0  0  0  0  0  0  0  0  0  0  0
   57.0810   32.7610   46.0460 N   0  0  0  0  0  0  0  0  0  0  0  0
   56.5260   32.4030   44.9300 O   0  0  0  0  0  0  0  0  0  0  0  0
   57.4500   32.0380   44.0750 C   0  0  0  0  0  0  0  0  0  0  0  0
   57.1690   31.5300   42.6990 C   0  0  0  0  0  0  0  0  0  0  0  0
   56.5280   30.2230   42.7700 N   0  0  0  0  0  0  0  0  0  0  0  0
   56.2300   29.5490   43.9970 C   0  0  0  0  0  0  0  0  0  0  0  0
   55.1500   29.7810   44.6030 O   0  0  0  0  0  0  0  0  0  0  0  0
   57.1500   28.6040   44.5480 N   0  0  0  0  0  0  0  0  0  0  0  0
   57.1840   28.2380   45.9600 C   0  0  0  0  0  0  0  0  0  0  0  0
   57.1890   26.7390   46.1180 C   0  0  0  0  0  0  0  0  0  0  0  0
   58.4040   26.0380   46.1300 C   0  0  0  0  0  0  0  0  0  0  0  0
   58.4150   24.6500   46.2780 C   0  0  0  0  0  0  0  0  0  0  0  0
   57.2160   23.9470   46.4150 C   0  0  0  0  0  0  0  0  0  0  0  0
   55.9880   24.6330   46.4120 C   0  0  0  0  0  0  0  0  0  0  0  0
   54.7340   23.9490   46.5510 N   0  0  0  0  0  0  0  0  0  0  0  0
   53.7630   23.3250   45.2550 S   0  0  0  0  0  0  0  0  0  0  0  0
   52.4540   24.4670   44.8660 C   0  0  0  0  0  0  0  0  0  0  0  0
   54.6320   23.1530   44.0410 O   0  0  0  0  0  0  0  0  0  0  0  0
   53.1950   21.9870   45.6350 O   0  0  0  0  0  0  0  0  0  0  0  0
   55.9810   26.0300   46.2670 C   0  0  0  0  0  0  0  0  0  0  0  0
   54.7670   26.7130   46.2660 O   0  0  0  0  0  0  0  0  0  0  0  0
   58.6840   32.1390   44.6040 N   0  0  0  0  0  0  0  0  0  0  0  0
  1  2  1  0
  2  3  1  0
  3  4  1  0
  4  5  2  0
  5  6  1  0
  6  7  1  0
  7  8  1  0
  8  9  1  0
  9 10  1  0
 10 11  2  0
 10 12  1  0
 12 13  1  0
 13 14  1  0
 14 15  2  0
 15 16  1  0
 16 17  2  0
 17 18  1  0
 18 19  1  0
 19 20  1  0
 20 21  1  0
 20 22  2  0
 20 23  2  0
 18 24  2  0
 24 25  1  0
  7 26  2  0
 26  4  1  0
 24 14  1  0
M  CHG  4   9  -1  12  -1  19  -1  25  -1
M  END
>  <UniqueID>  (541) 
67

>  <SMILES>  (541) 
CSCc1noc(C[N-]C(=O)[N-]Cc2cccc([N-]S(C)(=O)=O)c2[O-])n1

>  <Energy>  (541) 
62.923781274003474

>  <Genealogy>  (541) 
CSCc1noc(C[N-]C(=O)[N-]Cc2cccc([N-]S(C)(=O)=O)c2[O-])n1 (protonated)
CSCc1noc(C[N-]C(=O)[N-]Cc2cccc([N-]S(C)(=O)=O)c2[O-])n1 (3D coordinates assigned)
CSCc1noc(C[N-]C(=O)[N-]Cc2cccc([N-]S(C)(=O)=O)c2[O-])n1 (optimized conformer: 62.923781274003474 kcal/mol)

>  <smiles>  (541) 
CSCc1noc(CNC(=O)NCc2cccc(NS(C)(=O)=O)c2O)n1

>  <score_type>  (541) 
oracle

>  <origin>  (541) 
adg

>  <m_score__min__energy>  (541) 
-17.260000000000002

>  <m_primary>  (541) 
energy

$$$$
77:0
     RDKit          3D

 33 36  0  0  0  0  0  0  0  0999 V2000
   58.8760   28.6580   46.6250 O   0  0  0  0  0  0  0  0  0  0  0  0
   57.9470   27.8950   46.2440 C   0  0  0  0  0  0  0  0  0  0  0  0
   57.6180   26.6780   47.0540 C   0  0  0  0  0  0  0  0  0  0  0  0
   56.9580   25.6860   46.2060 N   0  0  0  0  0  0  0  0  0  0  0  0
   55.6750   25.6770   45.8110 C   0  0  0  0  0  0  0  0  0  0  0  0
   54.7740   26.7130   46.0240 O   0  0  0  0  0  0  0  0  0  0  0  0
   55.3990   24.4720   45.2050 C   0  0  0  0  0  0  0  0  0  0  0  0
   54.0490   23.9900   44.7730 C   0  0  0  0  0  0  0  0  0  0  0  0
   53.3670   23.2990   45.9220 C   0  0  0  0  0  0  0  0  0  0  0  0
   51.9760   23.0950   45.9060 C   0  0  0  0  0  0  0  0  0  0  0  0
   51.3380   22.4970   46.9960 C   0  0  0  0  0  0  0  0  0  0  0  0
   52.0810   22.1050   48.1130 C   0  0  0  0  0  0  0  0  0  0  0  0
   53.4610   22.3180   48.1440 C   0  0  0  0  0  0  0  0  0  0  0  0
   54.1040   22.9170   47.0570 C   0  0  0  0  0  0  0  0  0  0  0  0
   56.5020   23.6940   45.2350 N   0  0  0  0  0  0  0  0  0  0  0  0
   57.4230   24.4710   45.8480 C   0  0  0  0  0  0  0  0  0  0  0  0
   58.5940   24.0770   46.0900 O   0  0  0  0  0  0  0  0  0  0  0  0
   57.1520   28.2260   45.0950 N   0  0  0  0  0  0  0  0  0  0  0  0
   57.2380   29.4780   44.4000 C   0  0  0  0  0  0  0  0  0  0  0  0
   56.8990   29.5840   43.0400 C   0  0  0  0  0  0  0  0  0  0  0  0
   56.9740   30.8210   42.3930 C   0  0  0  0  0  0  0  0  0  0  0  0
   57.3750   31.9600   43.0960 C   0  0  0  0  0  0  0  0  0  0  0  0
   57.7000   31.8680   44.4560 C   0  0  0  0  0  0  0  0  0  0  0  0
   58.2050   33.2910   45.3640 S   0  0  0  0  0  0  0  0  0  0  0  0
   57.0340   34.2110   45.5710 O   0  0  0  0  0  0  0  0  0  0  0  0
   59.2460   34.0130   44.5560 O   0  0  0  0  0  0  0  0  0  0  0  0
   58.8830   32.8160   46.9060 N   0  0  0  0  0  0  0  0  0  0  0  0
   58.9000   33.9330   47.8680 C   0  0  0  0  0  0  0  0  0  0  0  0
   60.0120   34.9620   47.5550 C   0  0  0  0  0  0  0  0  0  0  0  0
   61.0180   34.4670   46.6900 O   0  0  0  0  0  0  0  0  0  0  0  0
   61.3710   33.1540   47.0550 C   0  0  0  0  0  0  0  0  0  0  0  0
   60.2140   32.1860   46.7540 C   0  0  0  0  0  0  0  0  0  0  0  0
   57.6220   30.6280   45.1040 C   0  0  0  0  0  0  0  0  0  0  0  0
  1  2  2  0
  2  3  1  0
  3  4  1  0
  4  5  1  0
  5  6  1  0
  5  7  2  0
  7  8  1  0
  8  9  1  0
  9 10  2  0
 10 11  1  0
 11 12  2  0
 12 13  1  0
 13 14  2  0
  7 15  1  0
 15 16  1  0
 16 17  2  0
  2 18  1  0
 18 19  1  0
 19 20  2  0
 20 21  1  0
 21 22  2  0
 22 23  1  0
 23 24  1  0
 24 25  2  0
 24 26  2  0
 24 27  1  0
 27 28  1  0
 28 29  1  0
 29 30  1  0
 30 31  1  0
 31 32  1  0
 23 33  2  0
 16  4  1  0
 33 19  1  0
 14  9  1  0
 32 27  1  0
M  CHG  2   6  -1  15  -1
M  END
>  <UniqueID>  (542) 
74

>  <SMILES>  (542) 
O=C(Cn1c([O-])c(Cc2ccccc2)[n-]c1=O)Nc1cccc(S(=O)(=O)N2CCOCC2)c1

>  <Energy>  (542) 
97.58470724441925

>  <Genealogy>  (542) 
O=C(Cn1c([O-])c(Cc2ccccc2)[n-]c1=O)Nc1cccc(S(=O)(=O)N2CCOCC2)c1 (protonated)
O=C(Cn1c([O-])c(Cc2ccccc2)[n-]c1=O)Nc1cccc(S(=O)(=O)N2CCOCC2)c1 (3D coordinates assigned)
O=C(Cn1c([O-])c(Cc2ccccc2)[n-]c1=O)Nc1cccc(S(=O)(=O)N2CCOCC2)c1 (nonaromatic ring conformer: 97.58470724441925 kcal/mol)

>  <smiles>  (542) 
O=C(Cn1c(O)c(Cc2ccccc2)[nH]c1=O)Nc1cccc(S(=O)(=O)N2CCOCC2)c1

>  <score_type>  (542) 
oracle

>  <origin>  (542) 
adg

>  <m_score__min__energy>  (542) 
-14.08

>  <m_primary>  (542) 
energy

$$$$
92:0
     RDKit          3D

 26 28  0  0  0  0  0  0  0  0999 V2000
   57.3460   24.1550   45.1520 O   0  0  0  0  0  0  0  0  0  0  0  0
   56.7650   24.2750   46.2650 C   0  0  0  0  0  0  0  0  0  0  0  0
   55.7130   23.2920   46.6640 C   0  0  0  0  0  0  0  0  0  0  0  0
   54.4410   23.5790   45.9310 C   0  0  0  0  0  0  0  0  0  0  0  0
   53.5820   22.6340   45.5110 N   0  0  0  0  0  0  0  0  0  0  0  0
   52.5720   23.3520   44.9700 C   0  0  0  0  0  0  0  0  0  0  0  0
   51.5590   22.8130   44.4540 O   0  0  0  0  0  0  0  0  0  0  0  0
   52.7310   24.6910   45.0330 N   0  0  0  0  0  0  0  0  0  0  0  0
   53.9180   24.8180   45.6500 C   0  0  0  0  0  0  0  0  0  0  0  0
   54.5100   26.0390   45.9560 O   0  0  0  0  0  0  0  0  0  0  0  0
   57.1390   25.3170   47.1720 N   0  0  0  0  0  0  0  0  0  0  0  0
   58.4200   26.0130   47.1160 C   0  0  0  0  0  0  0  0  0  0  0  0
   58.2480   27.3740   46.4990 C   0  0  0  0  0  0  0  0  0  0  0  0
   59.2170   28.3670   46.7100 C   0  0  0  0  0  0  0  0  0  0  0  0
   59.0540   29.6410   46.1560 C   0  0  0  0  0  0  0  0  0  0  0  0
   57.9170   29.9380   45.3930 C   0  0  0  0  0  0  0  0  0  0  0  0
   57.7180   31.5320   44.6740 S   0  0  0  0  0  0  0  0  0  0  0  0
   58.0160   31.4510   43.2030 O   0  0  0  0  0  0  0  0  0  0  0  0
   56.2950   31.9940   44.8470 O   0  0  0  0  0  0  0  0  0  0  0  0
   58.8230   32.6500   45.4320 N   0  0  0  0  0  0  0  0  0  0  0  0
   58.3670   33.0230   46.7710 C   0  0  0  0  0  0  0  0  0  0  0  0
   58.9360   34.4040   47.0530 C   0  0  0  0  0  0  0  0  0  0  0  0
   59.2840   34.9820   45.6900 C   0  0  0  0  0  0  0  0  0  0  0  0
   58.9060   33.9040   44.6850 C   0  0  0  0  0  0  0  0  0  0  0  0
   56.9500   28.9470   45.1790 C   0  0  0  0  0  0  0  0  0  0  0  0
   57.1110   27.6730   45.7310 C   0  0  0  0  0  0  0  0  0  0  0  0
  1  2  2  0
  2  3  1  0
  3  4  1  0
  4  5  1  0
  5  6  1  0
  6  7  2  0
  6  8  1  0
  8  9  1  0
  9 10  1  0
  2 11  1  0
 11 12  1  0
 12 13  1  0
 13 14  2  0
 14 15  1  0
 15 16  2  0
 16 17  1  0
 17 18  2  0
 17 19  2  0
 17 20  1  0
 20 21  1  0
 21 22  1  0
 22 23  1  0
 23 24  1  0
 16 25  1  0
 25 26  2  0
  9  4  2  0
 26 13  1  0
 24 20  1  0
M  CHG  3   5  -1   8  -1  11  -1
M  END
>  <UniqueID>  (543) 
88

>  <SMILES>  (543) 
O=C(Cc1[n-]c(=O)[n-]c1O)[N-]Cc1ccc(S(=O)(=O)N2CCCC2)cc1

>  <Energy>  (543) 
68.04422562928825

>  <Genealogy>  (543) 
O=C(Cc1[n-]c(=O)[n-]c1O)[N-]Cc1ccc(S(=O)(=O)N2CCCC2)cc1 (protonated)
O=C(Cc1[n-]c(=O)[n-]c1O)[N-]Cc1ccc(S(=O)(=O)N2CCCC2)cc1 (3D coordinates assigned)
O=C(Cc1[n-]c(=O)[n-]c1O)[N-]Cc1ccc(S(=O)(=O)N2CCCC2)cc1 (nonaromatic ring conformer: 68.04422562928825 kcal/mol)

>  <smiles>  (543) 
O=C(Cc1[nH]c(=O)[nH]c1O)NCc1ccc(S(=O)(=O)N2CCCC2)cc1

>  <score_type>  (543) 
oracle

>  <origin>  (543) 
adg

>  <m_score__min__energy>  (543) 
-15.050000000000001

>  <m_primary>  (543) 
energy

$$$$
10:0
     RDKit          3D

 21 22  0  0  0  0  0  0  0  0999 V2000
   55.1340   26.6380   46.1080 N   0  0  0  0  0  0  0  0  0  0  0  0
   56.8510   26.5960   45.9190 S   0  0  0  0  0  0  0  0  0  0  0  0
   57.2090   25.7200   44.7520 O   0  0  0  0  0  0  0  0  0  0  0  0
   57.4650   26.0220   47.1660 O   0  0  0  0  0  0  0  0  0  0  0  0
   57.4520   28.2300   45.6310 C   0  0  0  0  0  0  0  0  0  0  0  0
   58.7920   28.5490   45.9000 C   0  0  0  0  0  0  0  0  0  0  0  0
   59.2770   29.8440   45.6800 C   0  0  0  0  0  0  0  0  0  0  0  0
   60.6520   30.1200   45.9780 N   0  0  0  0  0  0  0  0  0  0  0  0
   61.2130   31.1260   47.2740 S   0  0  0  0  0  0  0  0  0  0  0  0
   60.8660   30.4780   48.5840 O   0  0  0  0  0  0  0  0  0  0  0  0
   62.7060   31.2660   47.1760 O   0  0  0  0  0  0  0  0  0  0  0  0
   60.4340   32.7040   47.1960 C   0  0  0  0  0  0  0  0  0  0  0  0
   59.9490   33.3130   48.3630 C   0  0  0  0  0  0  0  0  0  0  0  0
   59.3390   34.5700   48.2970 C   0  0  0  0  0  0  0  0  0  0  0  0
   59.2090   35.2210   47.0660 C   0  0  0  0  0  0  0  0  0  0  0  0
   59.6870   34.6150   45.9010 C   0  0  0  0  0  0  0  0  0  0  0  0
   60.2970   33.3580   45.9640 C   0  0  0  0  0  0  0  0  0  0  0  0
   58.4070   30.8290   45.1810 C   0  0  0  0  0  0  0  0  0  0  0  0
   57.0730   30.5170   44.9130 C   0  0  0  0  0  0  0  0  0  0  0  0
   56.5920   29.2240   45.1360 C   0  0  0  0  0  0  0  0  0  0  0  0
   55.2590   28.9350   44.8640 O   0  0  0  0  0  0  0  0  0  0  0  0
  1  2  1  0
  2  3  2  0
  2  4  2  0
  2  5  1  0
  5  6  2  0
  6  7  1  0
  7  8  1  0
  8  9  1  0
  9 10  2  0
  9 11  2  0
  9 12  1  0
 12 13  2  0
 13 14  1  0
 14 15  2  0
 15 16  1  0
 16 17  2  0
  7 18  2  0
 18 19  1  0
 19 20  2  0
 20 21  1  0
 20  5  1  0
 17 12  1  0
M  CHG  3   1  -1   8  -1  21  -1
M  END
>  <UniqueID>  (544) 
11

>  <SMILES>  (544) 
[NH-]S(=O)(=O)c1cc([N-]S(=O)(=O)c2ccccc2)ccc1[O-]

>  <Energy>  (544) 
34.33257339043245

>  <Genealogy>  (544) 
[NH-]S(=O)(=O)c1cc([N-]S(=O)(=O)c2ccccc2)ccc1[O-] (protonated)
[NH-]S(=O)(=O)c1cc([N-]S(=O)(=O)c2ccccc2)ccc1[O-] (3D coordinates assigned)
[NH-]S(=O)(=O)c1cc([N-]S(=O)(=O)c2ccccc2)ccc1[O-] (optimized conformer: 34.33257339043245 kcal/mol)

>  <smiles>  (544) 
NS(=O)(=O)c1cc(NS(=O)(=O)c2ccccc2)ccc1O

>  <score_type>  (544) 
oracle

>  <origin>  (544) 
adg

>  <m_score__min__energy>  (544) 
-14.300000000000001

>  <m_primary>  (544) 
energy

$$$$
34:0
     RDKit          3D

 25 28  0  0  0  0  0  0  0  0999 V2000
   57.5670   27.6940   44.2380 C   0  0  0  0  0  0  0  0  0  0  0  0
   57.3850   29.0760   43.2990 S   0  0  0  0  0  0  0  0  0  0  0  0
   56.7420   29.9850   44.5670 C   0  0  0  0  0  0  0  0  0  0  0  0
   56.3150   31.2130   44.5080 N   0  0  0  0  0  0  0  0  0  0  0  0
   57.0930   32.4220   44.4920 C   0  0  0  0  0  0  0  0  0  0  0  0
   57.7220   32.7140   43.4400 O   0  0  0  0  0  0  0  0  0  0  0  0
   57.1410   33.3640   45.6660 C   0  0  0  0  0  0  0  0  0  0  0  0
   58.5160   33.5670   46.1210 N   0  0  0  0  0  0  0  0  0  0  0  0
   59.4190   32.5650   46.5550 C   0  0  0  0  0  0  0  0  0  0  0  0
   59.1780   31.1900   46.6520 C   0  0  0  0  0  0  0  0  0  0  0  0
   60.2180   30.3630   47.1070 C   0  0  0  0  0  0  0  0  0  0  0  0
   61.4670   30.9170   47.4520 C   0  0  0  0  0  0  0  0  0  0  0  0
   61.6800   32.3010   47.3440 C   0  0  0  0  0  0  0  0  0  0  0  0
   60.6310   33.1030   46.8890 C   0  0  0  0  0  0  0  0  0  0  0  0
   60.6230   34.5790   46.6910 C   0  0  0  0  0  0  0  0  0  0  0  0
   59.1900   34.8640   46.1740 C   0  0  0  0  0  0  0  0  0  0  0  0
   56.6420   29.2530   45.6960 N   0  0  0  0  0  0  0  0  0  0  0  0
   57.1130   27.9870   45.5220 C   0  0  0  0  0  0  0  0  0  0  0  0
   57.0670   26.9740   46.6210 C   0  0  0  0  0  0  0  0  0  0  0  0
   55.9660   25.9960   46.3680 C   0  0  0  0  0  0  0  0  0  0  0  0
   56.0530   24.6830   46.6610 N   0  0  0  0  0  0  0  0  0  0  0  0
   54.9270   24.1280   46.2490 N   0  0  0  0  0  0  0  0  0  0  0  0
   54.1990   25.1200   45.7110 C   0  0  0  0  0  0  0  0  0  0  0  0
   53.0570   24.9440   45.2130 O   0  0  0  0  0  0  0  0  0  0  0  0
   54.8090   26.3170   45.7530 N   0  0  0  0  0  0  0  0  0  0  0  0
  1  2  1  0
  2  3  1  0
  3  4  2  0
  4  5  1  0
  5  6  2  0
  5  7  1  0
  7  8  1  0
  8  9  1  0
  9 10  2  0
 10 11  1  0
 11 12  2  0
 12 13  1  0
 13 14  2  0
 14 15  1  0
 15 16  1  0
  3 17  1  0
 17 18  1  0
 18 19  1  0
 19 20  1  0
 20 21  2  0
 21 22  1  0
 22 23  1  0
 23 24  2  0
 23 25  1  0
 18  1  2  0
 25 20  1  0
 16  8  1  0
 14  9  1  0
M  CHG  3  17  -1  22  -1  25  -1
M  END
>  <UniqueID>  (545) 
35

>  <SMILES>  (545) 
O=C(CN1CCc2ccccc21)/N=c1/[n-]c(Cc2n[n-]c(=O)[n-]2)cs1

>  <Energy>  (545) 
120.73916554713429

>  <Genealogy>  (545) 
O=C(CN1CCc2ccccc21)N=c1[n-]c(Cc2n[n-]c(=O)[n-]2)cs1 (protonated)
O=C(CN1CCc2ccccc21)/N=c1/[n-]c(Cc2n[n-]c(=O)[n-]2)cs1 (cis-trans isomerization)
O=C(CN1CCc2ccccc21)/N=c1/[n-]c(Cc2n[n-]c(=O)[n-]2)cs1 (3D coordinates assigned)
O=C(CN1CCc2ccccc21)/N=c1/[n-]c(Cc2n[n-]c(=O)[n-]2)cs1 (nonaromatic ring conformer: 120.73916554713429 kcal/mol)

>  <smiles>  (545) 
O=C(CN1CCc2ccccc21)N=c1[nH]c(Cc2n[nH]c(=O)[nH]2)cs1

>  <score_type>  (545) 
oracle

>  <origin>  (545) 
adg

>  <m_score__min__energy>  (545) 
-14.32

>  <m_primary>  (545) 
energy

$$$$
39:0
     RDKit          3D

 27 30  0  0  0  0  0  0  0  0999 V2000
   56.8630   28.9810   43.4200 O   0  0  0  0  0  0  0  0  0  0  0  0
   56.2360   29.7850   44.1590 C   0  0  0  0  0  0  0  0  0  0  0  0
   55.1390   29.3370   44.8860 O   0  0  0  0  0  0  0  0  0  0  0  0
   56.6670   31.2150   44.2520 C   0  0  0  0  0  0  0  0  0  0  0  0
   57.6330   31.4080   45.3930 C   0  0  0  0  0  0  0  0  0  0  0  0
   57.7770   30.3850   46.2760 N   0  0  0  0  0  0  0  0  0  0  0  0
   58.6140   30.4310   47.3140 N   0  0  0  0  0  0  0  0  0  0  0  0
   58.6510   29.2780   48.2190 C   0  0  0  0  0  0  0  0  0  0  0  0
   58.5510   28.0040   47.4340 C   0  0  0  0  0  0  0  0  0  0  0  0
   59.7080   27.3070   47.0580 C   0  0  0  0  0  0  0  0  0  0  0  0
   59.5930   26.1440   46.2930 C   0  0  0  0  0  0  0  0  0  0  0  0
   58.3280   25.6890   45.9010 C   0  0  0  0  0  0  0  0  0  0  0  0
   58.1800   24.5270   45.1300 C   0  0  0  0  0  0  0  0  0  0  0  0
   56.9040   24.1000   44.7500 C   0  0  0  0  0  0  0  0  0  0  0  0
   55.7730   24.8290   45.1340 C   0  0  0  0  0  0  0  0  0  0  0  0
   55.9110   25.9900   45.9010 C   0  0  0  0  0  0  0  0  0  0  0  0
   54.7790   26.7070   46.2760 O   0  0  0  0  0  0  0  0  0  0  0  0
   57.1860   26.4250   46.2890 C   0  0  0  0  0  0  0  0  0  0  0  0
   57.3300   27.5540   47.0360 N   0  0  0  0  0  0  0  0  0  0  0  0
   59.3760   31.5430   47.5470 C   0  0  0  0  0  0  0  0  0  0  0  0
   60.1500   31.5850   48.5450 O   0  0  0  0  0  0  0  0  0  0  0  0
   59.2920   32.6400   46.6710 C   0  0  0  0  0  0  0  0  0  0  0  0
   60.0720   33.7960   46.8730 C   0  0  0  0  0  0  0  0  0  0  0  0
   59.9810   34.8730   45.9900 C   0  0  0  0  0  0  0  0  0  0  0  0
   59.1170   34.8100   44.8980 C   0  0  0  0  0  0  0  0  0  0  0  0
   58.3350   33.6740   44.6840 C   0  0  0  0  0  0  0  0  0  0  0  0
   58.4100   32.5750   45.5660 C   0  0  0  0  0  0  0  0  0  0  0  0
  1  2  2  0
  2  3  1  0
  2  4  1  0
  4  5  1  0
  5  6  2  0
  6  7  1  0
  7  8  1  0
  8  9  1  0
  9 10  2  0
 10 11  1  0
 11 12  2  0
 12 13  1  0
 13 14  2  0
 14 15  1  0
 15 16  2  0
 16 17  1  0
 16 18  1  0
 18 19  2  0
  7 20  1  0
 20 21  2  0
 20 22  1  0
 22 23  2  0
 23 24  1  0
 24 25  2  0
 25 26  1  0
 26 27  2  0
 27  5  1  0
 19  9  1  0
 27 22  1  0
 18 12  1  0
M  CHG  2   3  -1  17  -1
M  END
>  <UniqueID>  (546) 
40

>  <SMILES>  (546) 
O=C([O-])Cc1nn(Cc2ccc3cccc([O-])c3n2)c(=O)c2ccccc12

>  <Energy>  (546) 
53.52473973335126

>  <Genealogy>  (546) 
O=C([O-])Cc1nn(Cc2ccc3cccc([O-])c3n2)c(=O)c2ccccc12 (protonated)
O=C([O-])Cc1nn(Cc2ccc3cccc([O-])c3n2)c(=O)c2ccccc12 (3D coordinates assigned)
O=C([O-])Cc1nn(Cc2ccc3cccc([O-])c3n2)c(=O)c2ccccc12 (optimized conformer: 53.52473973335126 kcal/mol)

>  <smiles>  (546) 
O=C(O)Cc1nn(Cc2ccc3cccc(O)c3n2)c(=O)c2ccccc12

>  <score_type>  (546) 
oracle

>  <origin>  (546) 
adg

>  <m_score__min__energy>  (546) 
-15.279999999999999

>  <m_primary>  (546) 
energy

$$$$
40:0
     RDKit          3D

 31 35  0  0  0  0  0  0  0  0999 V2000
   55.9710   29.3630   44.8750 C   0  0  0  0  0  0  0  0  0  0  0  0
   56.1540   30.6310   44.6790 N   0  0  0  0  0  0  0  0  0  0  0  0
   58.2280   29.7720   44.9970 N   0  0  0  0  0  0  0  0  0  0  0  0
   59.2540   30.1830   45.7980 C   0  0  0  0  0  0  0  0  0  0  0  0
   60.1310   29.4360   46.4090 N   0  0  0  0  0  0  0  0  0  0  0  0
   58.1160   34.3790   45.8660 C   0  0  0  0  0  0  0  0  0  0  0  0
   58.9060   34.3010   47.1630 C   0  0  0  0  0  0  0  0  0  0  0  0
   59.6180   34.6090   45.8450 C   0  0  0  0  0  0  0  0  0  0  0  0
   59.2510   31.5270   45.9710 N   0  0  0  0  0  0  0  0  0  0  0  0
   58.1380   31.9050   45.3080 C   0  0  0  0  0  0  0  0  0  0  0  0
   57.6230   33.1030   45.3120 N   0  0  0  0  0  0  0  0  0  0  0  0
   60.2750   29.0940   47.8200 C   0  0  0  0  0  0  0  0  0  0  0  0
   59.9350   30.2420   48.7420 C   0  0  0  0  0  0  0  0  0  0  0  0
   60.7280   31.4050   48.8020 C   0  0  0  0  0  0  0  0  0  0  0  0
   60.4120   32.4270   49.7020 C   0  0  0  0  0  0  0  0  0  0  0  0
   59.3170   32.2930   50.5620 C   0  0  0  0  0  0  0  0  0  0  0  0
   58.9120   33.5850   51.6770 Cl  0  0  0  0  0  0  0  0  0  0  0  0
   58.5460   31.1290   50.5320 C   0  0  0  0  0  0  0  0  0  0  0  0
   58.8610   30.1020   49.6370 C   0  0  0  0  0  0  0  0  0  0  0  0
   57.5330   30.8550   44.7380 N   0  0  0  0  0  0  0  0  0  0  0  0
   57.2790   28.7050   45.0630 C   0  0  0  0  0  0  0  0  0  0  0  0
   57.5240   27.4340   44.7230 C   0  0  0  0  0  0  0  0  0  0  0  0
   57.3820   26.2880   45.6560 C   0  0  0  0  0  0  0  0  0  0  0  0
   56.1510   25.9650   46.2620 C   0  0  0  0  0  0  0  0  0  0  0  0
   55.0070   26.7090   45.9920 O   0  0  0  0  0  0  0  0  0  0  0  0
   56.0770   24.9310   47.1420 N   0  0  0  0  0  0  0  0  0  0  0  0
   57.1810   24.2100   47.4690 C   0  0  0  0  0  0  0  0  0  0  0  0
   57.0960   23.2570   48.2860 O   0  0  0  0  0  0  0  0  0  0  0  0
   58.3820   24.5190   46.9180 N   0  0  0  0  0  0  0  0  0  0  0  0
   58.5090   25.5390   46.0320 C   0  0  0  0  0  0  0  0  0  0  0  0
   59.6440   25.7970   45.5470 O   0  0  0  0  0  0  0  0  0  0  0  0
  1  2  2  0
  2  3  1  0
  3  4  1  0
  4  5  2  0
  5  6  1  0
  6  7  1  0
  7  8  1  0
  4  9  1  0
  9 10  1  0
 10 11  2  0
 11 12  1  0
 12 13  1  0
 13 14  2  0
 14 15  1  0
 15 16  2  0
 16 17  1  0
 16 18  1  0
 18 19  2  0
 10 20  1  0
 20 21  1  0
 21 22  2  3
 22 23  1  0
 23 24  2  0
 24 25  1  0
 24 26  1  0
 26 27  1  0
 27 28  2  0
 27 29  1  0
 29 30  1  0
 30 31  2  0
 21  1  1  0
 30 23  1  0
 20  3  1  0
  8  6  1  0
 19 13  1  0
M  CHG  3   9  -1  25  -1  29  -1
M  END
>  <UniqueID>  (547) 
41

>  <SMILES>  (547) 
O=c1[n-]c(=O)c(C=C2C=Nn3/c(=N/C4CC4)[n-]/c(=N/Cc4ccc(Cl)cc4)n32)c([O-])[nH]1

>  <Energy>  (547) 
434.65055729246455

>  <Genealogy>  (547) 
O=c1[n-]c(=O)c(C=C2C=Nn3c(=NC4CC4)[n-]c(=NCc4ccc(Cl)cc4)n32)c([O-])[nH]1 (protonated)
O=c1[n-]c(=O)c(C=C2C=Nn3/c(=N/C4CC4)[n-]/c(=N/Cc4ccc(Cl)cc4)n32)c([O-])[nH]1 (cis-trans isomerization)
O=c1[n-]c(=O)c(C=C2C=Nn3/c(=N/C4CC4)[n-]/c(=N/Cc4ccc(Cl)cc4)n32)c([O-])[nH]1 (3D coordinates assigned)
O=c1[n-]c(=O)c(C=C2C=Nn3/c(=N/C4CC4)[n-]/c(=N/Cc4ccc(Cl)cc4)n32)c([O-])[nH]1 (nonaromatic ring conformer: 434.65055729246455 kcal/mol)

>  <smiles>  (547) 
O=c1[nH]c(O)c(C=C2C=Nn3c(=NC4CC4)[nH]c(=NCc4ccc(Cl)cc4)n32)c(=O)[nH]1

>  <score_type>  (547) 
oracle

>  <origin>  (547) 
adg

>  <m_score__min__energy>  (547) 
-15.6

>  <m_primary>  (547) 
energy

$$$$
42:0
     RDKit          3D

 29 32  0  0  0  0  0  0  0  0999 V2000
   57.6580   28.3930   43.8150 C   0  0  0  0  0  0  0  0  0  0  0  0
   58.3320   29.3120   44.7920 C   0  0  0  0  0  0  0  0  0  0  0  0
   59.3100   28.9670   45.7140 C   0  0  0  0  0  0  0  0  0  0  0  0
   59.8780   27.6790   45.9640 N   0  0  0  0  0  0  0  0  0  0  0  0
   59.1220   26.4950   46.2400 C   0  0  0  0  0  0  0  0  0  0  0  0
   59.5050   25.4040   45.7400 O   0  0  0  0  0  0  0  0  0  0  0  0
   57.9760   26.5110   47.2200 C   0  0  0  0  0  0  0  0  0  0  0  0
   56.8930   25.6300   46.7800 N   0  0  0  0  0  0  0  0  0  0  0  0
   55.7890   25.9880   46.0860 C   0  0  0  0  0  0  0  0  0  0  0  0
   55.5250   27.2810   45.6480 O   0  0  0  0  0  0  0  0  0  0  0  0
   54.9680   24.8950   45.8930 C   0  0  0  0  0  0  0  0  0  0  0  0
   55.5700   23.8360   46.5350 C   0  0  0  0  0  0  0  0  0  0  0  0
   56.7560   24.3150   47.0540 C   0  0  0  0  0  0  0  0  0  0  0  0
   57.6840   23.5610   47.7630 O   0  0  0  0  0  0  0  0  0  0  0  0
   55.0290   22.4390   46.5350 C   0  0  0  0  0  0  0  0  0  0  0  0
   53.5280   22.4460   46.1810 C   0  0  0  0  0  0  0  0  0  0  0  0
   53.2270   23.3620   44.9740 C   0  0  0  0  0  0  0  0  0  0  0  0
   53.6120   24.8290   45.2580 C   0  0  0  0  0  0  0  0  0  0  0  0
   59.7260   30.1580   46.2600 C   0  0  0  0  0  0  0  0  0  0  0  0
   60.6210   30.2950   47.1360 O   0  0  0  0  0  0  0  0  0  0  0  0
   59.0090   31.1700   45.7290 N   0  0  0  0  0  0  0  0  0  0  0  0
   59.1280   32.5600   46.0810 C   0  0  0  0  0  0  0  0  0  0  0  0
   59.1800   33.5430   45.0800 C   0  0  0  0  0  0  0  0  0  0  0  0
   59.2860   34.8950   45.4250 C   0  0  0  0  0  0  0  0  0  0  0  0
   59.3320   35.2730   46.7700 C   0  0  0  0  0  0  0  0  0  0  0  0
   59.2720   34.3000   47.7720 C   0  0  0  0  0  0  0  0  0  0  0  0
   59.1660   32.9480   47.4300 C   0  0  0  0  0  0  0  0  0  0  0  0
   58.1740   30.6600   44.8240 N   0  0  0  0  0  0  0  0  0  0  0  0
   57.2450   31.4370   43.9980 C   0  0  0  0  0  0  0  0  0  0  0  0
  1  2  1  0
  2  3  2  0
  3  4  1  0
  4  5  1  0
  5  6  2  0
  5  7  1  0
  7  8  1  0
  8  9  1  0
  9 10  1  0
  9 11  2  0
 11 12  1  0
 12 13  2  0
 13 14  1  0
 12 15  1  0
 15 16  1  0
 16 17  1  0
 17 18  1  0
  3 19  1  0
 19 20  2  0
 19 21  1  0
 21 22  1  0
 22 23  2  0
 23 24  1  0
 24 25  2  0
 25 26  1  0
 26 27  2  0
 21 28  1  0
 28 29  1  0
 28  2  1  0
 13  8  1  0
 27 22  1  0
 18 11  1  0
M  CHG  3   4  -1  10  -1  14  -1
M  END
>  <UniqueID>  (548) 
43

>  <SMILES>  (548) 
Cc1c([N-]C(=O)Cn2c([O-])c3c(c2[O-])CCCC3)c(=O)n(-c2ccccc2)n1C

>  <Energy>  (548) 
128.46177579164234

>  <Genealogy>  (548) 
Cc1c([N-]C(=O)Cn2c([O-])c3c(c2[O-])CCCC3)c(=O)n(-c2ccccc2)n1C (protonated)
Cc1c([N-]C(=O)Cn2c([O-])c3c(c2[O-])CCCC3)c(=O)n(-c2ccccc2)n1C (3D coordinates assigned)
Cc1c([N-]C(=O)Cn2c([O-])c3c(c2[O-])CCCC3)c(=O)n(-c2ccccc2)n1C (nonaromatic ring conformer: 128.46177579164234 kcal/mol)

>  <smiles>  (548) 
Cc1c(NC(=O)Cn2c(O)c3c(c2O)CCCC3)c(=O)n(-c2ccccc2)n1C

>  <score_type>  (548) 
oracle

>  <origin>  (548) 
adg

>  <m_score__min__energy>  (548) 
-14.93

>  <m_primary>  (548) 
energy

$$$$
73:0
     RDKit          3D

 23 25  0  0  0  0  0  0  0  0999 V2000
   53.5060   22.0120   45.6220 O   0  0  0  0  0  0  0  0  0  0  0  0
   54.1400   23.0930   45.7430 C   0  0  0  0  0  0  0  0  0  0  0  0
   55.4490   23.0720   46.1100 N   0  0  0  0  0  0  0  0  0  0  0  0
   56.1600   24.2210   46.2490 C   0  0  0  0  0  0  0  0  0  0  0  0
   57.5060   24.1880   46.6250 C   0  0  0  0  0  0  0  0  0  0  0  0
   58.2210   25.3810   46.7640 C   0  0  0  0  0  0  0  0  0  0  0  0
   57.5950   26.6150   46.5300 C   0  0  0  0  0  0  0  0  0  0  0  0
   58.5040   28.1100   46.7220 S   0  0  0  0  0  0  0  0  0  0  0  0
   59.7060   28.1220   45.8170 O   0  0  0  0  0  0  0  0  0  0  0  0
   58.9650   28.2200   48.1470 O   0  0  0  0  0  0  0  0  0  0  0  0
   57.4980   29.4710   46.3440 N   0  0  0  0  0  0  0  0  0  0  0  0
   57.3320   30.0400   45.0380 C   0  0  0  0  0  0  0  0  0  0  0  0
   58.3160   30.8580   44.4490 C   0  0  0  0  0  0  0  0  0  0  0  0
   58.1200   31.3880   43.1710 C   0  0  0  0  0  0  0  0  0  0  0  0
   56.9430   31.1120   42.4710 C   0  0  0  0  0  0  0  0  0  0  0  0
   55.9600   30.3050   43.0470 C   0  0  0  0  0  0  0  0  0  0  0  0
   56.1510   29.7700   44.3270 C   0  0  0  0  0  0  0  0  0  0  0  0
   55.1650   28.9670   44.8880 O   0  0  0  0  0  0  0  0  0  0  0  0
   56.2460   26.6500   46.1460 C   0  0  0  0  0  0  0  0  0  0  0  0
   55.5280   25.4580   46.0060 C   0  0  0  0  0  0  0  0  0  0  0  0
   54.2190   25.4760   45.6400 N   0  0  0  0  0  0  0  0  0  0  0  0
   53.5110   24.3240   45.5020 C   0  0  0  0  0  0  0  0  0  0  0  0
   52.2990   24.3710   45.1610 O   0  0  0  0  0  0  0  0  0  0  0  0
  1  2  2  0
  2  3  1  0
  3  4  1  0
  4  5  2  0
  5  6  1  0
  6  7  2  0
  7  8  1  0
  8  9  2  0
  8 10  2  0
  8 11  1  0
 11 12  1  0
 12 13  2  0
 13 14  1  0
 14 15  2  0
 15 16  1  0
 16 17  2  0
 17 18  1  0
  7 19  1  0
 19 20  2  0
 20 21  1  0
 21 22  1  0
 22 23  2  0
 22  2  1  0
 20  4  1  0
 17 12  1  0
M  CHG  4   3  -1  11  -1  18  -1  21  -1
M  END
>  <UniqueID>  (549) 
71

>  <SMILES>  (549) 
O=c1[n-]c2ccc(S(=O)(=O)[N-]c3ccccc3[O-])cc2[n-]c1=O

>  <Energy>  (549) 
41.090416808798516

>  <Genealogy>  (549) 
O=c1[n-]c2ccc(S(=O)(=O)[N-]c3ccccc3[O-])cc2[n-]c1=O (protonated)
O=c1[n-]c2ccc(S(=O)(=O)[N-]c3ccccc3[O-])cc2[n-]c1=O (3D coordinates assigned)
O=c1[n-]c2ccc(S(=O)(=O)[N-]c3ccccc3[O-])cc2[n-]c1=O (optimized conformer: 41.090416808798516 kcal/mol)

>  <smiles>  (549) 
O=c1[nH]c2ccc(S(=O)(=O)Nc3ccccc3O)cc2[nH]c1=O

>  <score_type>  (549) 
oracle

>  <origin>  (549) 
adg

>  <m_score__min__energy>  (549) 
-15.56

>  <m_primary>  (549) 
energy

$$$$
81:0
     RDKit          3D

 24 26  0  0  0  0  0  0  0  0999 V2000
   59.2630   34.5450   45.7880 C   0  0  0  0  0  0  0  0  0  0  0  0
   57.8090   34.1200   45.0520 S   0  0  0  0  0  0  0  0  0  0  0  0
   57.9080   32.5240   45.5560 C   0  0  0  0  0  0  0  0  0  0  0  0
   57.0230   31.6190   45.2620 N   0  0  0  0  0  0  0  0  0  0  0  0
   57.2650   30.4520   44.4620 C   0  0  0  0  0  0  0  0  0  0  0  0
   57.6810   30.6030   43.2830 O   0  0  0  0  0  0  0  0  0  0  0  0
   56.9860   29.0880   44.9510 C   0  0  0  0  0  0  0  0  0  0  0  0
   55.7360   28.6210   45.1490 N   0  0  0  0  0  0  0  0  0  0  0  0
   55.9050   27.3750   45.6290 C   0  0  0  0  0  0  0  0  0  0  0  0
   54.8480   26.5380   45.9610 O   0  0  0  0  0  0  0  0  0  0  0  0
   57.2340   27.0410   45.7500 C   0  0  0  0  0  0  0  0  0  0  0  0
   57.9350   28.1470   45.3230 C   0  0  0  0  0  0  0  0  0  0  0  0
   59.0340   32.2830   46.2640 N   0  0  0  0  0  0  0  0  0  0  0  0
   59.7880   33.4060   46.4020 C   0  0  0  0  0  0  0  0  0  0  0  0
   61.0830   33.3900   47.1740 C   0  0  0  0  0  0  0  0  0  0  0  0
   62.2600   33.8000   46.2790 C   0  0  0  0  0  0  0  0  0  0  0  0
   63.5650   33.8380   47.0940 C   0  0  0  0  0  0  0  0  0  0  0  0
   63.7510   32.6740   47.9970 N   0  0  0  0  0  0  0  0  0  0  0  0
   63.8210   33.1490   49.6810 S   0  0  0  0  0  0  0  0  0  0  0  0
   63.0190   34.4010   49.9020 O   0  0  0  0  0  0  0  0  0  0  0  0
   65.2420   33.3940   50.1040 O   0  0  0  0  0  0  0  0  0  0  0  0
   63.1270   31.8570   50.6900 C   0  0  0  0  0  0  0  0  0  0  0  0
   62.7980   31.5680   47.7770 C   0  0  0  0  0  0  0  0  0  0  0  0
   61.3280   32.0210   47.8540 C   0  0  0  0  0  0  0  0  0  0  0  0
  1  2  1  0
  2  3  1  0
  3  4  2  0
  4  5  1  0
  5  6  2  0
  5  7  1  0
  7  8  1  0
  8  9  1  0
  9 10  1  0
  9 11  2  0
 11 12  1  0
  3 13  1  0
 13 14  1  0
 14 15  1  0
 15 16  1  0
 16 17  1  0
 17 18  1  0
 18 19  1  0
 19 20  2  0
 19 21  2  0
 19 22  1  0
 18 23  1  0
 23 24  1  0
 14  1  2  0
 24 15  1  0
 12  7  2  0
M  CHG  3   8  -1  10  -1  13  -1
M  END
>  <UniqueID>  (550) 
78

>  <SMILES>  (550) 
CS(=O)(=O)N1CCC(c2cs/c(=N/C(=O)c3ccc([O-])[n-]3)[n-]2)CC1

>  <Energy>  (550) 
103.76860049866536

>  <Genealogy>  (550) 
CS(=O)(=O)N1CCC(c2csc(=NC(=O)c3ccc([O-])[n-]3)[n-]2)CC1 (protonated)
CS(=O)(=O)N1CCC(c2cs/c(=N/C(=O)c3ccc([O-])[n-]3)[n-]2)CC1 (cis-trans isomerization)
CS(=O)(=O)N1CCC(c2cs/c(=N/C(=O)c3ccc([O-])[n-]3)[n-]2)CC1 (3D coordinates assigned)
CS(=O)(=O)N1CCC(c2cs/c(=N/C(=O)c3ccc([O-])[n-]3)[n-]2)CC1 (nonaromatic ring conformer: 103.76860049866536 kcal/mol)

>  <smiles>  (550) 
CS(=O)(=O)N1CCC(c2csc(=NC(=O)c3ccc(O)[nH]3)[nH]2)CC1

>  <score_type>  (550) 
oracle

>  <origin>  (550) 
adg

>  <m_score__min__energy>  (550) 
-15.460000000000001

>  <m_primary>  (550) 
energy

$$$$
88:0
     RDKit          3D

 23 25  0  0  0  0  0  0  0  0999 V2000
   54.4100   26.2370   45.9830 N   0  0  0  0  0  0  0  0  0  0  0  0
   55.0920   25.0280   45.6600 C   0  0  0  0  0  0  0  0  0  0  0  0
   54.4240   24.0210   45.3000 O   0  0  0  0  0  0  0  0  0  0  0  0
   56.5660   24.9460   45.7350 C   0  0  0  0  0  0  0  0  0  0  0  0
   57.2700   23.7390   45.5700 C   0  0  0  0  0  0  0  0  0  0  0  0
   58.6470   23.8660   45.6960 C   0  0  0  0  0  0  0  0  0  0  0  0
   59.0050   25.4760   46.0190 S   0  0  0  0  0  0  0  0  0  0  0  0
   57.4150   26.0290   45.9740 C   0  0  0  0  0  0  0  0  0  0  0  0
   56.9820   27.3620   46.2780 N   0  0  0  0  0  0  0  0  0  0  0  0
   56.7530   28.4260   45.3470 C   0  0  0  0  0  0  0  0  0  0  0  0
   55.5690   28.8090   45.1480 O   0  0  0  0  0  0  0  0  0  0  0  0
   57.8800   29.0860   44.5980 C   0  0  0  0  0  0  0  0  0  0  0  0
   58.2460   30.3560   45.2270 N   0  0  0  0  0  0  0  0  0  0  0  0
   57.5220   31.4970   45.2360 C   0  0  0  0  0  0  0  0  0  0  0  0
   56.2520   31.6220   44.6860 O   0  0  0  0  0  0  0  0  0  0  0  0
   58.2270   32.5080   45.8590 C   0  0  0  0  0  0  0  0  0  0  0  0
   59.4190   31.9570   46.2730 C   0  0  0  0  0  0  0  0  0  0  0  0
   59.4140   30.6450   45.8430 C   0  0  0  0  0  0  0  0  0  0  0  0
   60.4580   29.7420   46.0020 O   0  0  0  0  0  0  0  0  0  0  0  0
   60.5200   32.7360   46.9220 C   0  0  0  0  0  0  0  0  0  0  0  0
   59.9680   34.0510   47.5130 C   0  0  0  0  0  0  0  0  0  0  0  0
   59.0310   34.7750   46.5220 C   0  0  0  0  0  0  0  0  0  0  0  0
   57.8040   33.9140   46.1590 C   0  0  0  0  0  0  0  0  0  0  0  0
  1  2  1  0
  2  3  2  0
  2  4  1  0
  4  5  1  0
  5  6  2  0
  6  7  1  0
  7  8  1  0
  8  9  1  0
  9 10  1  0
 10 11  2  0
 10 12  1  0
 12 13  1  0
 13 14  1  0
 14 15  1  0
 14 16  2  0
 16 17  1  0
 17 18  2  0
 18 19  1  0
 17 20  1  0
 20 21  1  0
 21 22  1  0
 22 23  1  0
  8  4  2  0
 18 13  1  0
 23 16  1  0
M  CHG  4   1  -1   9  -1  15  -1  19  -1
M  END
>  <UniqueID>  (551) 
84

>  <SMILES>  (551) 
[NH-]C(=O)c1ccsc1[N-]C(=O)Cn1c([O-])c2c(c1[O-])CCCC2

>  <Energy>  (551) 
94.95500903168617

>  <Genealogy>  (551) 
[NH-]C(=O)c1ccsc1[N-]C(=O)Cn1c([O-])c2c(c1[O-])CCCC2 (protonated)
[NH-]C(=O)c1ccsc1[N-]C(=O)Cn1c([O-])c2c(c1[O-])CCCC2 (3D coordinates assigned)
[NH-]C(=O)c1ccsc1[N-]C(=O)Cn1c([O-])c2c(c1[O-])CCCC2 (nonaromatic ring conformer: 94.95500903168617 kcal/mol)

>  <smiles>  (551) 
NC(=O)c1ccsc1NC(=O)Cn1c(O)c2c(c1O)CCCC2

>  <score_type>  (551) 
oracle

>  <origin>  (551) 
adg

>  <m_score__min__energy>  (551) 
-16.050000000000001

>  <m_primary>  (551) 
energy

$$$$
5:0
     RDKit          3D

 31 34  0  0  0  0  0  0  0  0999 V2000
   64.5440   32.3880   49.3580 C   0  0  0  0  0  0  0  0  0  0  0  0
   63.7850   33.1800   48.3760 N   0  0  0  0  0  0  0  0  0  0  0  0
   62.9820   32.2880   47.5080 C   0  0  0  0  0  0  0  0  0  0  0  0
   61.8400   33.0510   46.8260 C   0  0  0  0  0  0  0  0  0  0  0  0
   60.9160   33.6600   47.8120 N   0  0  0  0  0  0  0  0  0  0  0  0
   59.5670   33.0470   47.8510 C   0  0  0  0  0  0  0  0  0  0  0  0
   58.9350   32.8710   46.4850 C   0  0  0  0  0  0  0  0  0  0  0  0
   59.1000   33.8430   45.4860 C   0  0  0  0  0  0  0  0  0  0  0  0
   58.5390   33.6570   44.2200 C   0  0  0  0  0  0  0  0  0  0  0  0
   57.7980   32.5070   43.9410 C   0  0  0  0  0  0  0  0  0  0  0  0
   57.5920   31.5350   44.9350 C   0  0  0  0  0  0  0  0  0  0  0  0
   56.8000   30.3160   44.6460 C   0  0  0  0  0  0  0  0  0  0  0  0
   55.5490   30.3990   44.5090 O   0  0  0  0  0  0  0  0  0  0  0  0
   57.4600   29.0530   44.4750 N   0  0  0  0  0  0  0  0  0  0  0  0
   57.8900   28.1630   45.5160 C   0  0  0  0  0  0  0  0  0  0  0  0
   58.8950   28.5930   46.3910 C   0  0  0  0  0  0  0  0  0  0  0  0
   59.3440   27.7570   47.4170 C   0  0  0  0  0  0  0  0  0  0  0  0
   58.7740   26.4940   47.5940 C   0  0  0  0  0  0  0  0  0  0  0  0
   57.7290   26.0680   46.7610 C   0  0  0  0  0  0  0  0  0  0  0  0
   57.1370   24.7280   46.9520 C   0  0  0  0  0  0  0  0  0  0  0  0
   57.7650   23.7440   47.6260 N   0  0  0  0  0  0  0  0  0  0  0  0
   57.0250   22.6480   47.5630 N   0  0  0  0  0  0  0  0  0  0  0  0
   55.9170   22.9170   46.8470 C   0  0  0  0  0  0  0  0  0  0  0  0
   55.9440   24.2370   46.4440 C   0  0  0  0  0  0  0  0  0  0  0  0
   54.8620   24.9450   45.7370 C   0  0  0  0  0  0  0  0  0  0  0  0
   54.6110   26.3250   45.9840 N   0  0  0  0  0  0  0  0  0  0  0  0
   54.1250   24.3170   44.9310 O   0  0  0  0  0  0  0  0  0  0  0  0
   57.2980   26.9020   45.7150 C   0  0  0  0  0  0  0  0  0  0  0  0
   58.1590   31.7320   46.2080 C   0  0  0  0  0  0  0  0  0  0  0  0
   61.5050   33.8880   49.1500 C   0  0  0  0  0  0  0  0  0  0  0  0
   62.9930   34.2490   49.0380 C   0  0  0  0  0  0  0  0  0  0  0  0
  1  2  1  0
  2  3  1  0
  3  4  1  0
  4  5  1  0
  5  6  1  0
  6  7  1  0
  7  8  2  0
  8  9  1  0
  9 10  2  0
 10 11  1  0
 11 12  1  0
 12 13  2  0
 12 14  1  0
 14 15  1  0
 15 16  2  0
 16 17  1  0
 17 18  2  0
 18 19  1  0
 19 20  1  0
 20 21  2  0
 21 22  1  0
 22 23  1  0
 23 24  2  0
 24 25  1  0
 25 26  1  0
 25 27  2  0
 19 28  2  0
 11 29  2  0
  5 30  1  0
 30 31  1  0
 31  2  1  0
 29  7  1  0
 28 15  1  0
 24 20  1  0
M  CHG  3  14  -1  22  -1  26  -1
M  END
>  <UniqueID>  (552) 
6

>  <SMILES>  (552) 
CN1CCN(Cc2cccc(C(=O)[N-]c3cccc(-c4n[n-]cc4C([NH-])=O)c3)c2)CC1

>  <Energy>  (552) 
110.93123611312339

>  <Genealogy>  (552) 
CN1CCN(Cc2cccc(C(=O)[N-]c3cccc(-c4n[n-]cc4C([NH-])=O)c3)c2)CC1 (protonated)
CN1CCN(Cc2cccc(C(=O)[N-]c3cccc(-c4n[n-]cc4C([NH-])=O)c3)c2)CC1 (3D coordinates assigned)
CN1CCN(Cc2cccc(C(=O)[N-]c3cccc(-c4n[n-]cc4C([NH-])=O)c3)c2)CC1 (nonaromatic ring conformer: 110.93123611312339 kcal/mol)

>  <smiles>  (552) 
CN1CCN(Cc2cccc(C(=O)Nc3cccc(-c4n[nH]cc4C(N)=O)c3)c2)CC1

>  <score_type>  (552) 
oracle

>  <origin>  (552) 
adg

>  <m_score__min__energy>  (552) 
-16.170000000000002

>  <m_primary>  (552) 
energy

$$$$
7:0
     RDKit          3D

 27 29  0  0  0  0  0  0  0  0999 V2000
   60.3010   27.4540   48.6430 C   0  0  0  0  0  0  0  0  0  0  0  0
   59.2890   27.2890   47.5480 C   0  0  0  0  0  0  0  0  0  0  0  0
   58.7980   26.0150   47.2270 C   0  0  0  0  0  0  0  0  0  0  0  0
   57.8830   25.8580   46.1830 C   0  0  0  0  0  0  0  0  0  0  0  0
   57.4650   26.9660   45.4430 C   0  0  0  0  0  0  0  0  0  0  0  0
   57.9670   28.2470   45.7330 C   0  0  0  0  0  0  0  0  0  0  0  0
   57.5410   29.3930   44.9720 N   0  0  0  0  0  0  0  0  0  0  0  0
   58.3450   30.3460   44.4540 C   0  0  0  0  0  0  0  0  0  0  0  0
   57.5810   31.2860   43.7840 C   0  0  0  0  0  0  0  0  0  0  0  0
   58.0820   32.4820   43.0910 C   0  0  0  0  0  0  0  0  0  0  0  0
   57.8010   32.6670   41.8770 O   0  0  0  0  0  0  0  0  0  0  0  0
   58.8890   33.4280   43.7990 N   0  0  0  0  0  0  0  0  0  0  0  0
   58.3430   34.4600   44.6750 C   0  0  0  0  0  0  0  0  0  0  0  0
   58.5520   34.0840   46.1160 C   0  0  0  0  0  0  0  0  0  0  0  0
   57.9400   32.9400   46.6530 C   0  0  0  0  0  0  0  0  0  0  0  0
   58.1590   32.5850   47.9870 C   0  0  0  0  0  0  0  0  0  0  0  0
   58.9960   33.3630   48.7980 C   0  0  0  0  0  0  0  0  0  0  0  0
   59.2560   32.9210   50.4820 S   0  0  0  0  0  0  0  0  0  0  0  0
   57.7920   32.2860   51.1430 N   0  0  0  0  0  0  0  0  0  0  0  0
   59.6740   34.1310   51.2700 O   0  0  0  0  0  0  0  0  0  0  0  0
   60.3410   31.8870   50.5750 O   0  0  0  0  0  0  0  0  0  0  0  0
   59.6070   34.5080   48.2640 C   0  0  0  0  0  0  0  0  0  0  0  0
   59.3890   34.8630   46.9300 C   0  0  0  0  0  0  0  0  0  0  0  0
   56.2590   30.8930   43.8880 C   0  0  0  0  0  0  0  0  0  0  0  0
   56.2800   29.7260   44.6210 C   0  0  0  0  0  0  0  0  0  0  0  0
   55.1530   28.9700   44.9250 O   0  0  0  0  0  0  0  0  0  0  0  0
   58.8810   28.3980   46.7910 C   0  0  0  0  0  0  0  0  0  0  0  0
  1  2  1  0
  2  3  2  0
  3  4  1  0
  4  5  2  0
  5  6  1  0
  6  7  1  0
  7  8  1  0
  8  9  2  0
  9 10  1  0
 10 11  2  0
 10 12  1  0
 12 13  1  0
 13 14  1  0
 14 15  2  0
 15 16  1  0
 16 17  2  0
 17 18  1  0
 18 19  1  0
 18 20  2  0
 18 21  2  0
 17 22  1  0
 22 23  2  0
  9 24  1  0
 24 25  2  0
 25 26  1  0
  6 27  2  0
 27  2  1  0
 25  7  1  0
 23 14  1  0
M  CHG  3  12  -1  19  -1  26  -1
M  END
>  <UniqueID>  (553) 
7

>  <SMILES>  (553) 
Cc1cccc(-n2cc(C(=O)[N-]Cc3ccc(S([NH-])(=O)=O)cc3)cc2[O-])c1

>  <Energy>  (553) 
72.97974207457032

>  <Genealogy>  (553) 
Cc1cccc(-n2cc(C(=O)[N-]Cc3ccc(S([NH-])(=O)=O)cc3)cc2[O-])c1 (protonated)
Cc1cccc(-n2cc(C(=O)[N-]Cc3ccc(S([NH-])(=O)=O)cc3)cc2[O-])c1 (3D coordinates assigned)
Cc1cccc(-n2cc(C(=O)[N-]Cc3ccc(S([NH-])(=O)=O)cc3)cc2[O-])c1 (optimized conformer: 72.97974207457032 kcal/mol)

>  <smiles>  (553) 
Cc1cccc(-n2cc(C(=O)NCc3ccc(S(N)(=O)=O)cc3)cc2O)c1

>  <score_type>  (553) 
oracle

>  <origin>  (553) 
adg

>  <m_score__min__energy>  (553) 
-15.35

>  <m_primary>  (553) 
energy

$$$$
23:0
     RDKit          3D

 32 35  0  0  0  0  0  0  0  0999 V2000
   59.1980   35.3280   44.8990 C   0  0  0  0  0  0  0  0  0  0  0  0
   58.2960   34.3670   45.4440 O   0  0  0  0  0  0  0  0  0  0  0  0
   58.5150   32.9790   45.4570 C   0  0  0  0  0  0  0  0  0  0  0  0
   58.0870   32.1580   44.3980 C   0  0  0  0  0  0  0  0  0  0  0  0
   58.2700   30.7770   44.4480 C   0  0  0  0  0  0  0  0  0  0  0  0
   58.9140   30.1870   45.5470 C   0  0  0  0  0  0  0  0  0  0  0  0
   59.0650   28.7650   45.6690 N   0  0  0  0  0  0  0  0  0  0  0  0
   59.0370   28.0010   46.8800 C   0  0  0  0  0  0  0  0  0  0  0  0
   60.0630   27.9180   47.6090 O   0  0  0  0  0  0  0  0  0  0  0  0
   57.7620   27.3190   47.2780 C   0  0  0  0  0  0  0  0  0  0  0  0
   57.4440   26.2090   46.3800 N   0  0  0  0  0  0  0  0  0  0  0  0
   58.2650   25.1990   46.0150 C   0  0  0  0  0  0  0  0  0  0  0  0
   59.5920   25.0860   46.4150 O   0  0  0  0  0  0  0  0  0  0  0  0
   57.5950   24.3010   45.2100 C   0  0  0  0  0  0  0  0  0  0  0  0
   56.3090   24.7660   45.0930 C   0  0  0  0  0  0  0  0  0  0  0  0
   56.2440   25.9330   45.8270 C   0  0  0  0  0  0  0  0  0  0  0  0
   55.1070   26.7140   45.9990 O   0  0  0  0  0  0  0  0  0  0  0  0
   55.2320   24.0710   44.3250 C   0  0  0  0  0  0  0  0  0  0  0  0
   55.7600   22.8440   43.6050 C   0  0  0  0  0  0  0  0  0  0  0  0
   57.0280   22.3880   43.7200 C   0  0  0  0  0  0  0  0  0  0  0  0
   58.0890   23.0370   44.5880 C   0  0  0  0  0  0  0  0  0  0  0  0
   59.3490   31.0010   46.6000 C   0  0  0  0  0  0  0  0  0  0  0  0
   59.1610   32.3900   46.5650 C   0  0  0  0  0  0  0  0  0  0  0  0
   59.6850   33.3550   47.9590 S   0  0  0  0  0  0  0  0  0  0  0  0
   58.9530   32.9220   49.1970 O   0  0  0  0  0  0  0  0  0  0  0  0
   59.3290   34.7940   47.7010 O   0  0  0  0  0  0  0  0  0  0  0  0
   61.4070   33.1960   48.2520 N   0  0  0  0  0  0  0  0  0  0  0  0
   62.1790   33.5850   47.0580 C   0  0  0  0  0  0  0  0  0  0  0  0
   63.6660   33.2230   47.2270 C   0  0  0  0  0  0  0  0  0  0  0  0
   64.0680   33.0590   48.7000 C   0  0  0  0  0  0  0  0  0  0  0  0
   63.3480   34.0820   49.5840 C   0  0  0  0  0  0  0  0  0  0  0  0
   61.8110   34.0000   49.4260 C   0  0  0  0  0  0  0  0  0  0  0  0
  1  2  1  0
  2  3  1  0
  3  4  2  0
  4  5  1  0
  5  6  2  0
  6  7  1  0
  7  8  1  0
  8  9  2  0
  8 10  1  0
 10 11  1  0
 11 12  1  0
 12 13  1  0
 12 14  2  0
 14 15  1  0
 15 16  2  0
 16 17  1  0
 15 18  1  0
 18 19  1  0
 19 20  2  0
 20 21  1  0
  6 22  1  0
 22 23  2  0
 23 24  1  0
 24 25  2  0
 24 26  2  0
 24 27  1  0
 27 28  1  0
 28 29  1  0
 29 30  1  0
 30 31  1  0
 31 32  1  0
 23  3  1  0
 32 27  1  0
 16 11  1  0
 21 14  1  0
M  CHG  3   7  -1  13  -1  17  -1
M  END
>  <UniqueID>  (554) 
21

>  <SMILES>  (554) 
COc1ccc([N-]C(=O)Cn2c([O-])c3c(c2[O-])CC=CC3)cc1S(=O)(=O)N1CCCCC1

>  <Energy>  (554) 
98.66774864316135

>  <Genealogy>  (554) 
COc1ccc([N-]C(=O)Cn2c([O-])c3c(c2[O-])CC=CC3)cc1S(=O)(=O)N1CCCCC1 (protonated)
COc1ccc([N-]C(=O)Cn2c([O-])c3c(c2[O-])CC=CC3)cc1S(=O)(=O)N1CCCCC1 (3D coordinates assigned)
COc1ccc([N-]C(=O)Cn2c([O-])c3c(c2[O-])CC=CC3)cc1S(=O)(=O)N1CCCCC1 (nonaromatic ring conformer: 98.66774864316135 kcal/mol)

>  <smiles>  (554) 
COc1ccc(NC(=O)Cn2c(O)c3c(c2O)CC=CC3)cc1S(=O)(=O)N1CCCCC1

>  <score_type>  (554) 
oracle

>  <origin>  (554) 
adg

>  <m_score__min__energy>  (554) 
-15.26

>  <m_primary>  (554) 
energy

$$$$
60:0
     RDKit          3D

 23 25  0  0  0  0  0  0  0  0999 V2000
   62.9540   31.6390   48.7890 O   0  0  0  0  0  0  0  0  0  0  0  0
   61.8490   32.0520   48.3490 C   0  0  0  0  0  0  0  0  0  0  0  0
   61.3560   33.3280   48.7560 N   0  0  0  0  0  0  0  0  0  0  0  0
   60.1040   33.8240   48.2740 C   0  0  0  0  0  0  0  0  0  0  0  0
   59.7020   34.9540   48.6570 O   0  0  0  0  0  0  0  0  0  0  0  0
   59.2940   33.0080   47.3360 C   0  0  0  0  0  0  0  0  0  0  0  0
   58.0590   33.4790   46.8630 C   0  0  0  0  0  0  0  0  0  0  0  0
   57.3010   32.7100   45.9760 C   0  0  0  0  0  0  0  0  0  0  0  0
   57.7680   31.4680   45.5380 C   0  0  0  0  0  0  0  0  0  0  0  0
   56.9580   30.7050   44.6320 N   0  0  0  0  0  0  0  0  0  0  0  0
   56.3400   29.4390   44.9070 C   0  0  0  0  0  0  0  0  0  0  0  0
   55.0880   29.3460   44.8010 O   0  0  0  0  0  0  0  0  0  0  0  0
   57.1370   28.2340   45.2430 C   0  0  0  0  0  0  0  0  0  0  0  0
   58.5270   28.2270   45.0280 C   0  0  0  0  0  0  0  0  0  0  0  0
   59.2860   27.0970   45.3420 C   0  0  0  0  0  0  0  0  0  0  0  0
   58.6690   25.9600   45.8640 C   0  0  0  0  0  0  0  0  0  0  0  0
   57.2870   25.9490   46.0720 C   0  0  0  0  0  0  0  0  0  0  0  0
   56.5190   27.0780   45.7650 C   0  0  0  0  0  0  0  0  0  0  0  0
   55.1470   27.0450   45.9990 O   0  0  0  0  0  0  0  0  0  0  0  0
   58.9880   30.9760   46.0300 C   0  0  0  0  0  0  0  0  0  0  0  0
   59.7630   31.7420   46.9190 C   0  0  0  0  0  0  0  0  0  0  0  0
   61.0610   31.2310   47.4190 C   0  0  0  0  0  0  0  0  0  0  0  0
   61.4950   30.1040   47.0560 O   0  0  0  0  0  0  0  0  0  0  0  0
  1  2  2  0
  2  3  1  0
  3  4  1  0
  4  5  2  0
  4  6  1  0
  6  7  2  0
  7  8  1  0
  8  9  2  0
  9 10  1  0
 10 11  1  0
 11 12  2  0
 11 13  1  0
 13 14  2  0
 14 15  1  0
 15 16  2  0
 16 17  1  0
 17 18  2  0
 18 19  1  0
  9 20  1  0
 20 21  2  0
 21 22  1  0
 22 23  2  0
 22  2  1  0
 21  6  1  0
 18 13  1  0
M  CHG  3   3  -1  10  -1  19  -1
M  END
>  <UniqueID>  (555) 
55

>  <SMILES>  (555) 
O=C1[N-]C(=O)c2ccc([N-]C(=O)c3ccccc3[O-])cc2C1=O

>  <Energy>  (555) 
41.55150973686582

>  <Genealogy>  (555) 
O=C1[N-]C(=O)c2ccc([N-]C(=O)c3ccccc3[O-])cc2C1=O (protonated)
O=C1[N-]C(=O)c2ccc([N-]C(=O)c3ccccc3[O-])cc2C1=O (3D coordinates assigned)
O=C1[N-]C(=O)c2ccc([N-]C(=O)c3ccccc3[O-])cc2C1=O (nonaromatic ring conformer: 41.55150973686582 kcal/mol)

>  <smiles>  (555) 
O=C1NC(=O)c2ccc(NC(=O)c3ccccc3O)cc2C1=O

>  <score_type>  (555) 
oracle

>  <origin>  (555) 
adg

>  <m_score__min__energy>  (555) 
-14.67

>  <m_primary>  (555) 
energy

$$$$
89:0
     RDKit          3D

 28 30  0  0  0  0  0  0  0  0999 V2000
   55.5360   29.7980   44.8330 O   0  0  0  0  0  0  0  0  0  0  0  0
   56.7480   29.5970   45.1220 C   0  0  0  0  0  0  0  0  0  0  0  0
   57.8180   30.3530   44.4030 C   0  0  0  0  0  0  0  0  0  0  0  0
   57.9930   31.7000   45.0490 C   0  0  0  0  0  0  0  0  0  0  0  0
   58.5460   31.8000   46.3380 C   0  0  0  0  0  0  0  0  0  0  0  0
   58.7660   33.0550   46.9140 C   0  0  0  0  0  0  0  0  0  0  0  0
   58.4450   34.2180   46.2060 C   0  0  0  0  0  0  0  0  0  0  0  0
   57.9080   34.1270   44.9180 C   0  0  0  0  0  0  0  0  0  0  0  0
   57.6870   32.8730   44.3380 C   0  0  0  0  0  0  0  0  0  0  0  0
   57.0990   28.7110   46.1470 O   0  0  0  0  0  0  0  0  0  0  0  0
   57.4200   27.3660   45.9350 C   0  0  0  0  0  0  0  0  0  0  0  0
   58.7680   26.9980   45.8740 C   0  0  0  0  0  0  0  0  0  0  0  0
   59.1290   25.6640   45.6760 C   0  0  0  0  0  0  0  0  0  0  0  0
   58.1420   24.6830   45.5540 C   0  0  0  0  0  0  0  0  0  0  0  0
   56.7860   25.0290   45.6330 C   0  0  0  0  0  0  0  0  0  0  0  0
   55.5450   23.7770   45.5410 S   0  0  0  0  0  0  0  0  0  0  0  0
   55.2090   23.4780   44.1060 O   0  0  0  0  0  0  0  0  0  0  0  0
   54.2940   24.2670   46.2160 O   0  0  0  0  0  0  0  0  0  0  0  0
   56.1470   22.3260   46.2990 N   0  0  0  0  0  0  0  0  0  0  0  0
   56.0210   21.1490   45.6210 C   0  0  0  0  0  0  0  0  0  0  0  0
   56.5080   19.9620   46.1640 C   0  0  0  0  0  0  0  0  0  0  0  0
   57.1290   20.0090   47.4080 C   0  0  0  0  0  0  0  0  0  0  0  0
   57.5850   18.9570   47.9290 O   0  0  0  0  0  0  0  0  0  0  0  0
   57.2460   21.1920   48.0600 N   0  0  0  0  0  0  0  0  0  0  0  0
   56.7650   22.3440   47.5230 C   0  0  0  0  0  0  0  0  0  0  0  0
   56.9030   23.4190   48.1640 O   0  0  0  0  0  0  0  0  0  0  0  0
   56.4240   26.3720   45.8340 C   0  0  0  0  0  0  0  0  0  0  0  0
   55.0830   26.7140   45.9700 O   0  0  0  0  0  0  0  0  0  0  0  0
  1  2  2  0
  2  3  1  0
  3  4  1  0
  4  5  2  0
  5  6  1  0
  6  7  2  0
  7  8  1  0
  8  9  2  0
  2 10  1  0
 10 11  1  0
 11 12  2  0
 12 13  1  0
 13 14  2  0
 14 15  1  0
 15 16  1  0
 16 17  2  0
 16 18  2  0
 16 19  1  0
 19 20  1  0
 20 21  2  0
 21 22  1  0
 22 23  2  0
 22 24  1  0
 24 25  1  0
 25 26  2  0
 15 27  2  0
 27 28  1  0
  9  4  1  0
 27 11  1  0
 25 19  1  0
M  CHG  2  24  -1  28  -1
M  END
>  <UniqueID>  (556) 
82

>  <SMILES>  (556) 
O=C(Cc1ccccc1)Oc1cccc(S(=O)(=O)n2ccc(=O)[n-]c2=O)c1[O-]

>  <Energy>  (556) 
52.607063368800205

>  <Genealogy>  (556) 
O=C(Cc1ccccc1)Oc1cccc(S(=O)(=O)n2ccc(=O)[n-]c2=O)c1[O-] (protonated)
O=C(Cc1ccccc1)Oc1cccc(S(=O)(=O)n2ccc(=O)[n-]c2=O)c1[O-] (3D coordinates assigned)
O=C(Cc1ccccc1)Oc1cccc(S(=O)(=O)n2ccc(=O)[n-]c2=O)c1[O-] (optimized conformer: 52.607063368800205 kcal/mol)

>  <smiles>  (556) 
O=C(Cc1ccccc1)Oc1cccc(S(=O)(=O)n2ccc(=O)[nH]c2=O)c1O

>  <score_type>  (556) 
oracle

>  <origin>  (556) 
adg

>  <m_score__min__energy>  (556) 
-15.300000000000001

>  <m_primary>  (556) 
energy

$$$$
6:0
     RDKit          3D

 28 30  0  0  0  0  0  0  0  0999 V2000
   55.3190   29.7650   44.8950 O   0  0  0  0  0  0  0  0  0  0  0  0
   56.4460   29.2940   45.1960 C   0  0  0  0  0  0  0  0  0  0  0  0
   56.7250   27.9160   44.9130 N   0  0  0  0  0  0  0  0  0  0  0  0
   56.9340   26.9390   45.7530 C   0  0  0  0  0  0  0  0  0  0  0  0
   58.2140   26.7260   46.1670 N   0  0  0  0  0  0  0  0  0  0  0  0
   58.5520   25.7180   47.0140 C   0  0  0  0  0  0  0  0  0  0  0  0
   57.5720   24.8550   47.4980 C   0  0  0  0  0  0  0  0  0  0  0  0
   56.2440   25.0570   47.1240 C   0  0  0  0  0  0  0  0  0  0  0  0
   55.9060   26.1090   46.2670 C   0  0  0  0  0  0  0  0  0  0  0  0
   54.5620   26.3290   45.9880 O   0  0  0  0  0  0  0  0  0  0  0  0
   57.3990   30.1400   45.8570 N   0  0  0  0  0  0  0  0  0  0  0  0
   57.8320   31.4360   45.4200 C   0  0  0  0  0  0  0  0  0  0  0  0
   57.5030   31.8570   44.1260 C   0  0  0  0  0  0  0  0  0  0  0  0
   57.9130   33.1100   43.6640 C   0  0  0  0  0  0  0  0  0  0  0  0
   58.6480   33.9570   44.4970 C   0  0  0  0  0  0  0  0  0  0  0  0
   58.9680   33.5580   45.8000 C   0  0  0  0  0  0  0  0  0  0  0  0
   59.8690   34.6450   46.8540 S   0  0  0  0  0  0  0  0  0  0  0  0
   61.3390   34.3330   46.7850 O   0  0  0  0  0  0  0  0  0  0  0  0
   59.6600   36.0600   46.3940 O   0  0  0  0  0  0  0  0  0  0  0  0
   59.3110   34.4910   48.4920 N   0  0  0  0  0  0  0  0  0  0  0  0
   60.2900   33.7530   49.2840 C   0  0  0  0  0  0  0  0  0  0  0  0
   60.1540   32.2860   48.9920 C   0  0  0  0  0  0  0  0  0  0  0  0
   59.0290   31.5750   49.4390 C   0  0  0  0  0  0  0  0  0  0  0  0
   58.8850   30.2180   49.1340 C   0  0  0  0  0  0  0  0  0  0  0  0
   59.8590   29.5660   48.3730 C   0  0  0  0  0  0  0  0  0  0  0  0
   60.9730   30.2710   47.9100 C   0  0  0  0  0  0  0  0  0  0  0  0
   61.1200   31.6280   48.2130 C   0  0  0  0  0  0  0  0  0  0  0  0
   58.5420   32.3070   46.2670 C   0  0  0  0  0  0  0  0  0  0  0  0
  1  2  2  0
  2  3  1  0
  3  4  2  3
  4  5  1  0
  5  6  1  0
  6  7  2  0
  7  8  1  0
  8  9  2  0
  9 10  1  0
  2 11  1  0
 11 12  1  0
 12 13  2  0
 13 14  1  0
 14 15  2  0
 15 16  1  0
 16 17  1  0
 17 18  2  0
 17 19  2  0
 17 20  1  0
 20 21  1  0
 21 22  1  0
 22 23  2  0
 23 24  1  0
 24 25  2  0
 25 26  1  0
 26 27  2  0
 16 28  2  0
  9  4  1  0
 28 12  1  0
 27 22  1  0
M  CHG  4   5  -1  10  -1  11  -1  20  -1
M  END
>  <UniqueID>  (557) 
7

>  <SMILES>  (557) 
O=C(N=c1[n-]cccc1[O-])[N-]c1cccc(S(=O)(=O)[N-]Cc2ccccc2)c1

>  <Energy>  (557) 
57.519754019109875

>  <Genealogy>  (557) 
O=C(N=c1[n-]cccc1[O-])[N-]c1cccc(S(=O)(=O)[N-]Cc2ccccc2)c1 (protonated)
O=C(N=c1[n-]cccc1[O-])[N-]c1cccc(S(=O)(=O)[N-]Cc2ccccc2)c1 (3D coordinates assigned)
O=C(N=c1[n-]cccc1[O-])[N-]c1cccc(S(=O)(=O)[N-]Cc2ccccc2)c1 (optimized conformer: 57.519754019109875 kcal/mol)

>  <smiles>  (557) 
O=C(N=c1[nH]cccc1O)Nc1cccc(S(=O)(=O)NCc2ccccc2)c1

>  <score_type>  (557) 
oracle

>  <origin>  (557) 
adg

>  <m_score__min__energy>  (557) 
-15.460000000000001

>  <m_primary>  (557) 
energy

$$$$
23:0
     RDKit          3D

 36 39  0  0  0  0  0  0  0  0999 V2000
   60.7890   27.8000   50.1890 C   0  0  0  0  0  0  0  0  0  0  0  0
   60.8410   28.8850   49.2120 N   0  0  0  0  0  0  0  0  0  0  0  0
   61.4090   30.1100   49.3470 C   0  0  0  0  0  0  0  0  0  0  0  0
   62.0420   30.4760   50.3750 O   0  0  0  0  0  0  0  0  0  0  0  0
   61.2060   30.9070   48.2680 N   0  0  0  0  0  0  0  0  0  0  0  0
   61.6140   32.3000   48.0860 C   0  0  0  0  0  0  0  0  0  0  0  0
   60.4610   30.1500   47.4360 C   0  0  0  0  0  0  0  0  0  0  0  0
   59.9080   30.4990   46.2060 C   0  0  0  0  0  0  0  0  0  0  0  0
   59.0910   29.5490   45.5420 C   0  0  0  0  0  0  0  0  0  0  0  0
   58.4780   29.8610   44.2740 N   0  0  0  0  0  0  0  0  0  0  0  0
   57.4130   31.2100   44.0280 S   0  0  0  0  0  0  0  0  0  0  0  0
   57.3450   31.5220   42.5610 O   0  0  0  0  0  0  0  0  0  0  0  0
   56.0370   30.8510   44.5110 O   0  0  0  0  0  0  0  0  0  0  0  0
   57.9910   32.6020   44.9440 C   0  0  0  0  0  0  0  0  0  0  0  0
   58.7550   33.5880   44.3020 C   0  0  0  0  0  0  0  0  0  0  0  0
   59.2180   34.6950   45.0190 C   0  0  0  0  0  0  0  0  0  0  0  0
   58.9200   34.8160   46.3810 C   0  0  0  0  0  0  0  0  0  0  0  0
   58.1560   33.8380   47.0240 C   0  0  0  0  0  0  0  0  0  0  0  0
   57.6920   32.7320   46.3090 C   0  0  0  0  0  0  0  0  0  0  0  0
   58.8840   28.2640   46.1310 C   0  0  0  0  0  0  0  0  0  0  0  0
   58.0140   27.3240   45.4850 N   0  0  0  0  0  0  0  0  0  0  0  0
   56.5870   27.2940   45.6010 C   0  0  0  0  0  0  0  0  0  0  0  0
   55.8980   28.2870   45.2400 O   0  0  0  0  0  0  0  0  0  0  0  0
   55.9300   26.1200   46.2510 C   0  0  0  0  0  0  0  0  0  0  0  0
   54.6120   25.9000   45.6590 N   0  0  0  0  0  0  0  0  0  0  0  0
   54.2350   24.2060   45.6450 S   0  0  0  0  0  0  0  0  0  0  0  0
   54.1210   23.6940   47.0500 O   0  0  0  0  0  0  0  0  0  0  0  0
   52.9230   23.9930   44.9470 O   0  0  0  0  0  0  0  0  0  0  0  0
   55.4980   23.3460   44.7740 C   0  0  0  0  0  0  0  0  0  0  0  0
   55.4900   23.3370   43.3750 C   0  0  0  0  0  0  0  0  0  0  0  0
   56.5040   22.6840   42.6710 C   0  0  0  0  0  0  0  0  0  0  0  0
   57.5320   22.0400   43.3610 C   0  0  0  0  0  0  0  0  0  0  0  0
   57.5490   22.0520   44.7560 C   0  0  0  0  0  0  0  0  0  0  0  0
   56.5360   22.7050   45.4630 C   0  0  0  0  0  0  0  0  0  0  0  0
   59.4580   27.9590   47.3870 C   0  0  0  0  0  0  0  0  0  0  0  0
   60.2410   28.9290   48.0050 C   0  0  0  0  0  0  0  0  0  0  0  0
  1  2  1  0
  2  3  1  0
  3  4  2  0
  3  5  1  0
  5  6  1  0
  5  7  1  0
  7  8  2  0
  8  9  1  0
  9 10  1  0
 10 11  1  0
 11 12  2  0
 11 13  2  0
 11 14  1  0
 14 15  2  0
 15 16  1  0
 16 17  2  0
 17 18  1  0
 18 19  2  0
  9 20  2  0
 20 21  1  0
 21 22  1  0
 22 23  2  0
 22 24  1  0
 24 25  1  0
 25 26  1  0
 26 27  2  0
 26 28  2  0
 26 29  1  0
 29 30  2  0
 30 31  1  0
 31 32  2  0
 32 33  1  0
 33 34  2  0
 20 35  1  0
 35 36  2  0
 36  2  1  0
 36  7  1  0
 19 14  1  0
 34 29  1  0
M  CHG  2  21  -1  25  -1
M  END
>  <UniqueID>  (558) 
23

>  <SMILES>  (558) 
Cn1c(=O)n(C)c2cc(NS(=O)(=O)c3ccccc3)c([N-]C(=O)C[N-]S(=O)(=O)c3ccccc3)cc21

>  <Energy>  (558) 
106.40334108962426

>  <Genealogy>  (558) 
Cn1c(=O)n(C)c2cc(NS(=O)(=O)c3ccccc3)c([N-]C(=O)C[N-]S(=O)(=O)c3ccccc3)cc21 (protonated)
Cn1c(=O)n(C)c2cc(NS(=O)(=O)c3ccccc3)c([N-]C(=O)C[N-]S(=O)(=O)c3ccccc3)cc21 (3D coordinates assigned)
Cn1c(=O)n(C)c2cc(NS(=O)(=O)c3ccccc3)c([N-]C(=O)C[N-]S(=O)(=O)c3ccccc3)cc21 (optimized conformer: 106.40334108962426 kcal/mol)

>  <smiles>  (558) 
Cn1c(=O)n(C)c2cc(NS(=O)(=O)c3ccccc3)c(NC(=O)CNS(=O)(=O)c3ccccc3)cc21

>  <score_type>  (558) 
oracle

>  <origin>  (558) 
adg

>  <m_score__min__energy>  (558) 
-14.42

>  <m_primary>  (558) 
energy

$$$$
49:0
     RDKit          3D

 26 28  0  0  0  0  0  0  0  0999 V2000
   57.4430   33.8470   44.8840 C   0  0  0  0  0  0  0  0  0  0  0  0
   56.9710   32.7650   45.6790 O   0  0  0  0  0  0  0  0  0  0  0  0
   57.7560   31.6730   46.0830 C   0  0  0  0  0  0  0  0  0  0  0  0
   57.7260   30.4380   45.4050 C   0  0  0  0  0  0  0  0  0  0  0  0
   58.5140   29.3650   45.8430 C   0  0  0  0  0  0  0  0  0  0  0  0
   58.5010   28.0580   45.0970 C   0  0  0  0  0  0  0  0  0  0  0  0
   57.4170   27.1730   45.6280 C   0  0  0  0  0  0  0  0  0  0  0  0
   57.6410   25.6060   46.2050 S   0  0  0  0  0  0  0  0  0  0  0  0
   55.9950   25.3790   46.4610 C   0  0  0  0  0  0  0  0  0  0  0  0
   55.4900   24.3240   46.9240 O   0  0  0  0  0  0  0  0  0  0  0  0
   55.2600   26.4540   46.1110 N   0  0  0  0  0  0  0  0  0  0  0  0
   56.0520   27.4520   45.6390 C   0  0  0  0  0  0  0  0  0  0  0  0
   55.5220   28.6590   45.2000 O   0  0  0  0  0  0  0  0  0  0  0  0
   59.3610   29.5380   46.9440 C   0  0  0  0  0  0  0  0  0  0  0  0
   59.4010   30.7600   47.6190 C   0  0  0  0  0  0  0  0  0  0  0  0
   58.5860   31.8300   47.2050 C   0  0  0  0  0  0  0  0  0  0  0  0
   58.5680   33.0700   47.8690 O   0  0  0  0  0  0  0  0  0  0  0  0
   59.3140   34.2330   47.5030 C   0  0  0  0  0  0  0  0  0  0  0  0
   60.3500   34.5870   48.5760 C   0  0  0  0  0  0  0  0  0  0  0  0
   61.6610   34.0150   48.2690 N   0  0  0  0  0  0  0  0  0  0  0  0
   62.6490   33.7380   49.1410 C   0  0  0  0  0  0  0  0  0  0  0  0
   62.5560   33.9410   50.5130 O   0  0  0  0  0  0  0  0  0  0  0  0
   63.7600   33.2370   48.4900 C   0  0  0  0  0  0  0  0  0  0  0  0
   63.4330   33.2070   47.1450 C   0  0  0  0  0  0  0  0  0  0  0  0
   62.1440   33.6890   47.0520 C   0  0  0  0  0  0  0  0  0  0  0  0
   61.4330   33.8350   45.8660 O   0  0  0  0  0  0  0  0  0  0  0  0
  1  2  1  0
  2  3  1  0
  3  4  2  0
  4  5  1  0
  5  6  1  0
  6  7  1  0
  7  8  1  0
  8  9  1  0
  9 10  2  0
  9 11  1  0
 11 12  1  0
 12 13  1  0
  5 14  2  0
 14 15  1  0
 15 16  2  0
 16 17  1  0
 17 18  1  0
 18 19  1  0
 19 20  1  0
 20 21  1  0
 21 22  1  0
 21 23  2  0
 23 24  1  0
 24 25  2  0
 25 26  1  0
 16  3  1  0
 25 20  1  0
 12  7  2  0
M  CHG  4  11  -1  13  -1  22  -1  26  -1
M  END
>  <UniqueID>  (559) 
47

>  <SMILES>  (559) 
COc1cc(Cc2sc(=O)[n-]c2[O-])ccc1OCCn1c([O-])ccc1[O-]

>  <Energy>  (559) 
96.1278831826564

>  <Genealogy>  (559) 
COc1cc(Cc2sc(=O)[n-]c2[O-])ccc1OCCn1c([O-])ccc1[O-] (protonated)
COc1cc(Cc2sc(=O)[n-]c2[O-])ccc1OCCn1c([O-])ccc1[O-] (3D coordinates assigned)
COc1cc(Cc2sc(=O)[n-]c2[O-])ccc1OCCn1c([O-])ccc1[O-] (optimized conformer: 96.1278831826564 kcal/mol)

>  <smiles>  (559) 
COc1cc(Cc2sc(=O)[nH]c2O)ccc1OCCn1c(O)ccc1O

>  <score_type>  (559) 
oracle

>  <origin>  (559) 
adg

>  <m_score__min__energy>  (559) 
-15.07

>  <m_primary>  (559) 
energy

$$$$
55:0
     RDKit          3D

 34 37  0  0  0  0  0  0  0  0999 V2000
   60.1540   29.8040   50.8560 C   0  0  0  0  0  0  0  0  0  0  0  0
   59.0670   29.9350   49.8710 N   0  0  0  0  0  0  0  0  0  0  0  0
   59.5840   29.8050   48.4750 C   0  0  0  0  0  0  0  0  0  0  0  0
   58.9070   30.7640   47.4850 C   0  0  0  0  0  0  0  0  0  0  0  0
   59.0150   32.1380   47.9870 N   0  0  0  0  0  0  0  0  0  0  0  0
   59.0590   33.2510   47.0690 C   0  0  0  0  0  0  0  0  0  0  0  0
   59.9100   34.3380   47.3320 C   0  0  0  0  0  0  0  0  0  0  0  0
   60.0180   35.3870   46.4180 C   0  0  0  0  0  0  0  0  0  0  0  0
   59.2890   35.3590   45.2260 C   0  0  0  0  0  0  0  0  0  0  0  0
   58.4230   34.2960   44.9590 C   0  0  0  0  0  0  0  0  0  0  0  0
   58.2970   33.2390   45.8790 C   0  0  0  0  0  0  0  0  0  0  0  0
   57.3410   32.1920   45.6720 N   0  0  0  0  0  0  0  0  0  0  0  0
   57.0960   31.4780   44.4620 C   0  0  0  0  0  0  0  0  0  0  0  0
   57.0690   32.0760   43.3560 O   0  0  0  0  0  0  0  0  0  0  0  0
   56.9300   30.0180   44.5210 C   0  0  0  0  0  0  0  0  0  0  0  0
   55.8200   29.5410   44.8800 O   0  0  0  0  0  0  0  0  0  0  0  0
   57.9850   29.1230   44.1620 N   0  0  0  0  0  0  0  0  0  0  0  0
   58.6390   28.1780   45.0270 C   0  0  0  0  0  0  0  0  0  0  0  0
   57.8740   27.1390   45.5710 C   0  0  0  0  0  0  0  0  0  0  0  0
   58.4380   26.2350   46.4860 C   0  0  0  0  0  0  0  0  0  0  0  0
   57.5880   25.1630   47.1140 C   0  0  0  0  0  0  0  0  0  0  0  0
   56.8520   24.3710   46.0750 C   0  0  0  0  0  0  0  0  0  0  0  0
   57.4520   22.9840   45.3320 S   0  0  0  0  0  0  0  0  0  0  0  0
   56.0990   22.8280   44.3440 C   0  0  0  0  0  0  0  0  0  0  0  0
   55.9320   21.8930   43.5150 O   0  0  0  0  0  0  0  0  0  0  0  0
   55.1850   23.8030   44.5550 N   0  0  0  0  0  0  0  0  0  0  0  0
   55.5940   24.6540   45.5290 C   0  0  0  0  0  0  0  0  0  0  0  0
   54.7790   25.7040   45.9460 O   0  0  0  0  0  0  0  0  0  0  0  0
   59.7880   26.3770   46.8500 C   0  0  0  0  0  0  0  0  0  0  0  0
   60.5530   27.4210   46.3270 C   0  0  0  0  0  0  0  0  0  0  0  0
   59.9850   28.3300   45.4280 C   0  0  0  0  0  0  0  0  0  0  0  0
   60.7290   29.3740   45.0030 F   0  0  0  0  0  0  0  0  0  0  0  0
   58.8350   32.3880   49.4270 C   0  0  0  0  0  0  0  0  0  0  0  0
   58.2570   31.1530   50.1280 C   0  0  0  0  0  0  0  0  0  0  0  0
  1  2  1  0
  2  3  1  0
  3  4  1  0
  4  5  1  0
  5  6  1  0
  6  7  2  0
  7  8  1  0
  8  9  2  0
  9 10  1  0
 10 11  2  0
 11 12  1  0
 12 13  1  0
 13 14  2  0
 13 15  1  0
 15 16  2  0
 15 17  1  0
 17 18  1  0
 18 19  2  0
 19 20  1  0
 20 21  1  0
 21 22  1  0
 22 23  1  0
 23 24  1  0
 24 25  2  0
 24 26  1  0
 26 27  1  0
 27 28  1  0
 20 29  2  0
 29 30  1  0
 30 31  2  0
 31 32  1  0
  5 33  1  0
 33 34  1  0
 34  2  1  0
 11  6  1  0
 31 18  1  0
 27 22  2  0
M  CHG  3  12  -1  17  -1  26  -1
M  END
>  <UniqueID>  (560) 
53

>  <SMILES>  (560) 
CN1CCN(c2ccccc2[N-]C(=O)C(=O)[N-]c2cc(Cc3sc(=O)[n-]c3O)ccc2F)CC1

>  <Energy>  (560) 
110.10676379802526

>  <Genealogy>  (560) 
CN1CCN(c2ccccc2[N-]C(=O)C(=O)[N-]c2cc(Cc3sc(=O)[n-]c3O)ccc2F)CC1 (protonated)
CN1CCN(c2ccccc2[N-]C(=O)C(=O)[N-]c2cc(Cc3sc(=O)[n-]c3O)ccc2F)CC1 (3D coordinates assigned)
CN1CCN(c2ccccc2[N-]C(=O)C(=O)[N-]c2cc(Cc3sc(=O)[n-]c3O)ccc2F)CC1 (nonaromatic ring conformer: 110.10676379802526 kcal/mol)

>  <smiles>  (560) 
CN1CCN(c2ccccc2NC(=O)C(=O)Nc2cc(Cc3sc(=O)[nH]c3O)ccc2F)CC1

>  <score_type>  (560) 
oracle

>  <origin>  (560) 
adg

>  <m_score__min__energy>  (560) 
-14.369999999999999

>  <m_primary>  (560) 
energy

$$$$
86:0
     RDKit          3D

 23 25  0  0  0  0  0  0  0  0999 V2000
   58.3650   23.7550   46.1870 O   0  0  0  0  0  0  0  0  0  0  0  0
   57.2310   24.2370   45.9270 C   0  0  0  0  0  0  0  0  0  0  0  0
   56.3150   23.5930   45.1700 N   0  0  0  0  0  0  0  0  0  0  0  0
   55.2710   24.4490   45.1240 C   0  0  0  0  0  0  0  0  0  0  0  0
   55.5860   25.5760   45.8460 C   0  0  0  0  0  0  0  0  0  0  0  0
   54.7730   26.6920   46.0120 O   0  0  0  0  0  0  0  0  0  0  0  0
   56.8160   25.4430   46.3680 N   0  0  0  0  0  0  0  0  0  0  0  0
   57.5720   26.4290   47.1380 C   0  0  0  0  0  0  0  0  0  0  0  0
   58.7730   26.9210   46.3280 C   0  0  0  0  0  0  0  0  0  0  0  0
   58.5270   28.3120   45.8090 C   0  0  0  0  0  0  0  0  0  0  0  0
   57.6190   28.5240   44.7610 C   0  0  0  0  0  0  0  0  0  0  0  0
   57.3660   29.8190   44.3020 C   0  0  0  0  0  0  0  0  0  0  0  0
   56.2340   30.0740   42.9850 Cl  0  0  0  0  0  0  0  0  0  0  0  0
   58.0080   30.9120   44.8920 C   0  0  0  0  0  0  0  0  0  0  0  0
   58.9070   30.7200   45.9570 C   0  0  0  0  0  0  0  0  0  0  0  0
   59.5710   31.8210   46.6040 N   0  0  0  0  0  0  0  0  0  0  0  0
   58.7680   33.2580   47.1570 S   0  0  0  0  0  0  0  0  0  0  0  0
   59.5420   33.8480   48.3020 O   0  0  0  0  0  0  0  0  0  0  0  0
   57.3970   32.8900   47.6520 O   0  0  0  0  0  0  0  0  0  0  0  0
   58.6360   34.4700   45.8400 C   0  0  0  0  0  0  0  0  0  0  0  0
   57.4890   34.2480   44.8640 C   0  0  0  0  0  0  0  0  0  0  0  0
   58.9130   33.9320   44.4440 C   0  0  0  0  0  0  0  0  0  0  0  0
   59.1580   29.4140   46.4090 C   0  0  0  0  0  0  0  0  0  0  0  0
  1  2  2  0
  2  3  1  0
  3  4  1  0
  4  5  2  0
  5  6  1  0
  5  7  1  0
  7  8  1  0
  8  9  1  0
  9 10  1  0
 10 11  2  0
 11 12  1  0
 12 13  1  0
 12 14  2  0
 14 15  1  0
 15 16  1  0
 16 17  1  0
 17 18  2  0
 17 19  2  0
 17 20  1  0
 20 21  1  0
 21 22  1  0
 15 23  2  0
  7  2  1  0
 23 10  1  0
 22 20  1  0
M  CHG  2   3  -1   6  -1
M  END
>  <UniqueID>  (561) 
81

>  <SMILES>  (561) 
O=c1[n-]cc([O-])n1CCc1cc(Cl)cc(NS(=O)(=O)C2CC2)c1

>  <Energy>  (561) 
330.4318151978599

>  <Genealogy>  (561) 
O=c1[n-]cc([O-])n1CCc1cc(Cl)cc(NS(=O)(=O)C2CC2)c1 (protonated)
O=c1[n-]cc([O-])n1CCc1cc(Cl)cc(NS(=O)(=O)C2CC2)c1 (3D coordinates assigned)
O=c1[n-]cc([O-])n1CCc1cc(Cl)cc(NS(=O)(=O)C2CC2)c1 (nonaromatic ring conformer: 330.4318151978599 kcal/mol)

>  <smiles>  (561) 
O=c1[nH]cc(O)n1CCc1cc(Cl)cc(NS(=O)(=O)C2CC2)c1

>  <score_type>  (561) 
oracle

>  <origin>  (561) 
adg

>  <m_score__min__energy>  (561) 
-14.06

>  <m_primary>  (561) 
energy

$$$$
11:0
     RDKit          3D

 24 26  0  0  0  0  0  0  0  0999 V2000
   56.8280   30.7710   44.2560 C   0  0  0  0  0  0  0  0  0  0  0  0
   56.6470   29.1020   44.1250 S   0  0  0  0  0  0  0  0  0  0  0  0
   57.8770   28.7830   45.2150 C   0  0  0  0  0  0  0  0  0  0  0  0
   58.2430   27.5830   45.5550 N   0  0  0  0  0  0  0  0  0  0  0  0
   57.7360   26.3570   45.0060 C   0  0  0  0  0  0  0  0  0  0  0  0
   57.7150   26.1580   43.7600 O   0  0  0  0  0  0  0  0  0  0  0  0
   57.2660   25.2810   45.9320 C   0  0  0  0  0  0  0  0  0  0  0  0
   55.9430   24.7280   45.4540 C   0  0  0  0  0  0  0  0  0  0  0  0
   54.7510   25.4540   45.6270 C   0  0  0  0  0  0  0  0  0  0  0  0
   54.7700   26.7150   46.2160 O   0  0  0  0  0  0  0  0  0  0  0  0
   53.5670   24.9270   45.2180 N   0  0  0  0  0  0  0  0  0  0  0  0
   53.5100   23.6920   44.6510 C   0  0  0  0  0  0  0  0  0  0  0  0
   52.4060   23.2160   44.2780 O   0  0  0  0  0  0  0  0  0  0  0  0
   54.6450   22.9660   44.4880 N   0  0  0  0  0  0  0  0  0  0  0  0
   55.8520   23.4490   44.8780 C   0  0  0  0  0  0  0  0  0  0  0  0
   56.8800   22.7380   44.7200 O   0  0  0  0  0  0  0  0  0  0  0  0
   58.4390   29.9160   45.6890 N   0  0  0  0  0  0  0  0  0  0  0  0
   57.8630   31.0320   45.1640 C   0  0  0  0  0  0  0  0  0  0  0  0
   58.3290   32.3940   45.5430 C   0  0  0  0  0  0  0  0  0  0  0  0
   58.4620   33.3880   44.5530 C   0  0  0  0  0  0  0  0  0  0  0  0
   58.8990   34.6730   44.8870 C   0  0  0  0  0  0  0  0  0  0  0  0
   59.2120   34.9850   46.2110 C   0  0  0  0  0  0  0  0  0  0  0  0
   59.0900   34.0110   47.2030 C   0  0  0  0  0  0  0  0  0  0  0  0
   58.6530   32.7240   46.8750 C   0  0  0  0  0  0  0  0  0  0  0  0
  1  2  1  0
  2  3  1  0
  3  4  2  0
  4  5  1  0
  5  6  2  0
  5  7  1  0
  7  8  1  0
  8  9  2  0
  9 10  1  0
  9 11  1  0
 11 12  1  0
 12 13  2  0
 12 14  1  0
 14 15  1  0
 15 16  2  0
  3 17  1  0
 17 18  1  0
 18 19  1  0
 19 20  2  0
 20 21  1  0
 21 22  2  0
 22 23  1  0
 23 24  2  0
 18  1  2  0
 24 19  1  0
 15  8  1  0
M  CHG  3  10  -1  14  -1  17  -1
M  END
>  <UniqueID>  (562) 
10

>  <SMILES>  (562) 
O=C(Cc1c([O-])[nH]c(=O)[n-]c1=O)/N=c1\[n-]c(-c2ccccc2)cs1

>  <Energy>  (562) 
70.42088982549052

>  <Genealogy>  (562) 
O=C(Cc1c([O-])[nH]c(=O)[n-]c1=O)N=c1[n-]c(-c2ccccc2)cs1 (protonated)
O=C(Cc1c([O-])[nH]c(=O)[n-]c1=O)/N=c1\[n-]c(-c2ccccc2)cs1 (cis-trans isomerization)
O=C(Cc1c([O-])[nH]c(=O)[n-]c1=O)/N=c1\[n-]c(-c2ccccc2)cs1 (3D coordinates assigned)
O=C(Cc1c([O-])[nH]c(=O)[n-]c1=O)/N=c1\[n-]c(-c2ccccc2)cs1 (optimized conformer: 70.42088982549052 kcal/mol)

>  <smiles>  (562) 
O=C(Cc1c(O)[nH]c(=O)[nH]c1=O)N=c1[nH]c(-c2ccccc2)cs1

>  <score_type>  (562) 
oracle

>  <origin>  (562) 
adg

>  <m_score__min__energy>  (562) 
-14.83

>  <m_primary>  (562) 
energy

$$$$
16:0
     RDKit          3D

 29 31  0  0  0  0  0  0  0  0999 V2000
   56.3230   20.8970   44.5150 C   0  0  0  0  0  0  0  0  0  0  0  0
   56.4950   22.3770   44.6540 C   0  0  0  0  0  0  0  0  0  0  0  0
   57.8480   23.2170   44.1230 S   0  0  0  0  0  0  0  0  0  0  0  0
   57.3230   24.7310   44.6300 C   0  0  0  0  0  0  0  0  0  0  0  0
   58.1020   25.9320   44.6030 N   0  0  0  0  0  0  0  0  0  0  0  0
   59.0620   26.3460   45.5820 C   0  0  0  0  0  0  0  0  0  0  0  0
   59.5460   25.5250   46.4060 O   0  0  0  0  0  0  0  0  0  0  0  0
   59.4360   27.7910   45.6610 C   0  0  0  0  0  0  0  0  0  0  0  0
   59.2200   28.4480   47.3570 S   0  0  0  0  0  0  0  0  0  0  0  0
   58.9590   30.1590   46.8530 C   0  0  0  0  0  0  0  0  0  0  0  0
   59.8950   31.0840   47.1840 N   0  0  0  0  0  0  0  0  0  0  0  0
   59.7950   32.3690   46.7670 C   0  0  0  0  0  0  0  0  0  0  0  0
   60.7870   33.2960   47.1080 C   0  0  0  0  0  0  0  0  0  0  0  0
   60.7050   34.6120   46.6440 C   0  0  0  0  0  0  0  0  0  0  0  0
   59.6320   35.0060   45.8390 C   0  0  0  0  0  0  0  0  0  0  0  0
   58.6350   34.0880   45.4960 C   0  0  0  0  0  0  0  0  0  0  0  0
   58.7090   32.7610   45.9620 C   0  0  0  0  0  0  0  0  0  0  0  0
   57.7430   31.7940   45.6350 C   0  0  0  0  0  0  0  0  0  0  0  0
   56.7900   32.1010   44.8650 O   0  0  0  0  0  0  0  0  0  0  0  0
   57.8640   30.5130   46.1130 N   0  0  0  0  0  0  0  0  0  0  0  0
   56.9210   29.5140   45.7930 N   0  0  0  0  0  0  0  0  0  0  0  0
   56.3480   29.3370   44.4950 C   0  0  0  0  0  0  0  0  0  0  0  0
   55.0990   29.3760   44.3540 O   0  0  0  0  0  0  0  0  0  0  0  0
   56.0780   24.6110   45.2540 C   0  0  0  0  0  0  0  0  0  0  0  0
   55.3800   25.7640   45.8760 C   0  0  0  0  0  0  0  0  0  0  0  0
   54.1620   25.9840   45.6500 O   0  0  0  0  0  0  0  0  0  0  0  0
   56.0600   26.6200   46.7340 O   0  0  0  0  0  0  0  0  0  0  0  0
   55.6030   23.2740   45.2550 C   0  0  0  0  0  0  0  0  0  0  0  0
   54.2980   22.8430   45.8680 C   0  0  0  0  0  0  0  0  0  0  0  0
  1  2  1  0
  2  3  1  0
  3  4  1  0
  4  5  1  0
  5  6  1  0
  6  7  2  0
  6  8  1  0
  8  9  1  0
  9 10  1  0
 10 11  2  0
 11 12  1  0
 12 13  2  0
 13 14  1  0
 14 15  2  0
 15 16  1  0
 16 17  2  0
 17 18  1  0
 18 19  2  0
 18 20  1  0
 20 21  1  0
 21 22  1  0
 22 23  2  0
  4 24  2  0
 24 25  1  0
 25 26  2  0
 25 27  1  0
 24 28  1  0
 28 29  1  0
 28  2  2  0
 20 10  1  0
 17 12  1  0
M  CHG  3   5  -1  21  -1  27  -1
M  END
>  <UniqueID>  (563) 
15

>  <SMILES>  (563) 
Cc1sc([N-]C(=O)CSc2nc3ccccc3c(=O)n2[N-]C=O)c(C(=O)[O-])c1C

>  <Energy>  (563) 
74.3077448682929

>  <Genealogy>  (563) 
Cc1sc([N-]C(=O)CSc2nc3ccccc3c(=O)n2[N-]C=O)c(C(=O)[O-])c1C (protonated)
Cc1sc([N-]C(=O)CSc2nc3ccccc3c(=O)n2[N-]C=O)c(C(=O)[O-])c1C (3D coordinates assigned)
Cc1sc([N-]C(=O)CSc2nc3ccccc3c(=O)n2[N-]C=O)c(C(=O)[O-])c1C (optimized conformer: 74.3077448682929 kcal/mol)

>  <smiles>  (563) 
Cc1sc(NC(=O)CSc2nc3ccccc3c(=O)n2NC=O)c(C(=O)O)c1C

>  <score_type>  (563) 
oracle

>  <origin>  (563) 
adg

>  <m_score__min__energy>  (563) 
-14.42

>  <m_primary>  (563) 
energy

$$$$
30:0
     RDKit          3D

 25 26  0  0  0  0  0  0  0  0999 V2000
   54.5620   26.1120   45.9530 N   0  0  0  0  0  0  0  0  0  0  0  0
   55.5060   25.0480   46.0200 C   0  0  0  0  0  0  0  0  0  0  0  0
   55.2960   24.0700   46.7860 O   0  0  0  0  0  0  0  0  0  0  0  0
   56.7220   25.0690   45.1480 C   0  0  0  0  0  0  0  0  0  0  0  0
   57.9930   25.0890   45.9990 C   0  0  0  0  0  0  0  0  0  0  0  0
   58.6150   26.4110   45.9640 N   0  0  0  0  0  0  0  0  0  0  0  0
   58.0110   27.4950   45.5800 C   0  0  0  0  0  0  0  0  0  0  0  0
   56.6800   27.7000   45.6940 N   0  0  0  0  0  0  0  0  0  0  0  0
   56.3270   28.9210   45.2130 C   0  0  0  0  0  0  0  0  0  0  0  0
   55.0040   29.3470   45.2190 O   0  0  0  0  0  0  0  0  0  0  0  0
   57.3770   29.7010   44.7260 C   0  0  0  0  0  0  0  0  0  0  0  0
   57.2530   31.0310   44.0890 C   0  0  0  0  0  0  0  0  0  0  0  0
   57.3270   31.1170   42.8340 O   0  0  0  0  0  0  0  0  0  0  0  0
   57.0900   32.2770   44.8630 C   0  0  0  0  0  0  0  0  0  0  0  0
   58.1100   33.0990   45.1400 C   0  0  0  0  0  0  0  0  0  0  0  0
   59.1170   32.7990   46.1860 C   0  0  0  0  0  0  0  0  0  0  0  0
   59.5930   31.4850   46.3490 C   0  0  0  0  0  0  0  0  0  0  0  0
   60.5780   31.1990   47.2940 C   0  0  0  0  0  0  0  0  0  0  0  0
   61.1120   32.2170   48.0820 C   0  0  0  0  0  0  0  0  0  0  0  0
   60.6570   33.5400   47.9350 C   0  0  0  0  0  0  0  0  0  0  0  0
   61.1670   34.5930   48.7120 O   0  0  0  0  0  0  0  0  0  0  0  0
   62.2520   34.4690   49.6260 C   0  0  0  0  0  0  0  0  0  0  0  0
   59.6570   33.8310   46.9920 C   0  0  0  0  0  0  0  0  0  0  0  0
   59.2090   35.1510   46.8960 O   0  0  0  0  0  0  0  0  0  0  0  0
   58.7990   28.8040   44.8840 S   0  0  0  0  0  0  0  0  0  0  0  0
  1  2  1  0
  2  3  2  0
  2  4  1  0
  4  5  1  0
  5  6  1  0
  6  7  2  3
  7  8  1  0
  8  9  1  0
  9 10  1  0
  9 11  2  0
 11 12  1  0
 12 13  2  0
 12 14  1  0
 14 15  2  0
 15 16  1  0
 16 17  2  0
 17 18  1  0
 18 19  2  0
 19 20  1  0
 20 21  1  0
 21 22  1  0
 20 23  2  0
 23 24  1  0
 11 25  1  0
 25  7  1  0
 23 16  1  0
M  CHG  3   1  -1   8  -1  10  -1
M  END
>  <UniqueID>  (564) 
29

>  <SMILES>  (564) 
COc1cccc(/C=C/C(=O)c2sc(=NCCC([NH-])=O)[n-]c2[O-])c1O

>  <Energy>  (564) 
73.23108057108055

>  <Genealogy>  (564) 
COc1cccc(C=CC(=O)c2sc(=NCCC([NH-])=O)[n-]c2[O-])c1O (protonated)
COc1cccc(/C=C/C(=O)c2sc(=NCCC([NH-])=O)[n-]c2[O-])c1O (cis-trans isomerization)
COc1cccc(/C=C/C(=O)c2sc(=NCCC([NH-])=O)[n-]c2[O-])c1O (3D coordinates assigned)
COc1cccc(/C=C/C(=O)c2sc(=NCCC([NH-])=O)[n-]c2[O-])c1O (optimized conformer: 73.23108057108055 kcal/mol)

>  <smiles>  (564) 
COc1cccc(C=CC(=O)c2sc(=NCCC(N)=O)[nH]c2O)c1O

>  <score_type>  (564) 
oracle

>  <origin>  (564) 
adg

>  <m_score__min__energy>  (564) 
-15.720000000000001

>  <m_primary>  (564) 
energy

$$$$
38:0
     RDKit          3D

 22 23  0  0  0  0  0  0  0  0999 V2000
   60.0890   28.1670   46.2540 C   0  0  0  0  0  0  0  0  0  0  0  0
   58.6280   28.3230   46.6650 C   0  0  0  0  0  0  0  0  0  0  0  0
   57.7500   28.3860   45.4830 N   0  0  0  0  0  0  0  0  0  0  0  0
   57.5290   27.1570   44.7050 C   0  0  0  0  0  0  0  0  0  0  0  0
   57.1270   26.0350   45.6090 C   0  0  0  0  0  0  0  0  0  0  0  0
   58.1360   24.7750   46.0920 S   0  0  0  0  0  0  0  0  0  0  0  0
   56.9270   24.0500   47.0080 C   0  0  0  0  0  0  0  0  0  0  0  0
   57.0750   22.9880   47.6640 O   0  0  0  0  0  0  0  0  0  0  0  0
   55.7640   24.7350   46.9700 N   0  0  0  0  0  0  0  0  0  0  0  0
   55.8770   25.8440   46.1940 C   0  0  0  0  0  0  0  0  0  0  0  0
   54.8110   26.7140   46.0050 O   0  0  0  0  0  0  0  0  0  0  0  0
   57.1920   29.6380   45.0130 C   0  0  0  0  0  0  0  0  0  0  0  0
   55.9420   29.7770   44.9380 O   0  0  0  0  0  0  0  0  0  0  0  0
   58.0210   30.7110   44.5500 N   0  0  0  0  0  0  0  0  0  0  0  0
   58.1230   32.0110   45.1470 C   0  0  0  0  0  0  0  0  0  0  0  0
   57.8870   33.1330   44.3420 C   0  0  0  0  0  0  0  0  0  0  0  0
   57.9920   34.4190   44.8740 C   0  0  0  0  0  0  0  0  0  0  0  0
   58.3170   34.5940   46.2180 C   0  0  0  0  0  0  0  0  0  0  0  0
   58.5230   33.4830   47.0410 C   0  0  0  0  0  0  0  0  0  0  0  0
   58.4120   32.1780   46.5180 C   0  0  0  0  0  0  0  0  0  0  0  0
   58.5540   31.0430   47.3320 O   0  0  0  0  0  0  0  0  0  0  0  0
   59.2960   31.0110   48.5460 C   0  0  0  0  0  0  0  0  0  0  0  0
  1  2  1  0
  2  3  1  0
  3  4  1  0
  4  5  1  0
  5  6  1  0
  6  7  1  0
  7  8  2  0
  7  9  1  0
  9 10  1  0
 10 11  1  0
  3 12  1  0
 12 13  2  0
 12 14  1  0
 14 15  1  0
 15 16  2  0
 16 17  1  0
 17 18  2  0
 18 19  1  0
 19 20  2  0
 20 21  1  0
 21 22  1  0
 10  5  2  0
 20 15  1  0
M  CHG  3   9  -1  11  -1  14  -1
M  END
>  <UniqueID>  (565) 
37

>  <SMILES>  (565) 
CCN(Cc1sc(=O)[n-]c1[O-])C(=O)[N-]c1ccccc1OC

>  <Energy>  (565) 
68.30019739126983

>  <Genealogy>  (565) 
CCN(Cc1sc(=O)[n-]c1[O-])C(=O)[N-]c1ccccc1OC (protonated)
CCN(Cc1sc(=O)[n-]c1[O-])C(=O)[N-]c1ccccc1OC (3D coordinates assigned)
CCN(Cc1sc(=O)[n-]c1[O-])C(=O)[N-]c1ccccc1OC (optimized conformer: 68.30019739126983 kcal/mol)

>  <smiles>  (565) 
CCN(Cc1sc(=O)[nH]c1O)C(=O)Nc1ccccc1OC

>  <score_type>  (565) 
oracle

>  <origin>  (565) 
adg

>  <m_score__min__energy>  (565) 
-14.75

>  <m_primary>  (565) 
energy

$$$$
41:0
     RDKit          3D

 27 29  0  0  0  0  0  0  0  0999 V2000
   57.1040   33.7990   44.5220 O   0  0  0  0  0  0  0  0  0  0  0  0
   57.3370   32.7370   45.1590 C   0  0  0  0  0  0  0  0  0  0  0  0
   58.3470   32.7580   46.2710 C   0  0  0  0  0  0  0  0  0  0  0  0
   58.7890   34.4760   46.6950 S   0  0  0  0  0  0  0  0  0  0  0  0
   60.4430   34.0640   47.2480 C   0  0  0  0  0  0  0  0  0  0  0  0
   60.7140   33.8900   48.6100 C   0  0  0  0  0  0  0  0  0  0  0  0
   62.0070   33.5380   49.0100 C   0  0  0  0  0  0  0  0  0  0  0  0
   63.0130   33.3730   48.0530 C   0  0  0  0  0  0  0  0  0  0  0  0
   62.7070   33.5680   46.7020 C   0  0  0  0  0  0  0  0  0  0  0  0
   61.4400   33.9080   46.3330 N   0  0  0  0  0  0  0  0  0  0  0  0
   56.7070   31.5220   44.7330 N   0  0  0  0  0  0  0  0  0  0  0  0
   57.1240   30.2060   45.1110 C   0  0  0  0  0  0  0  0  0  0  0  0
   58.4850   29.9630   45.3390 C   0  0  0  0  0  0  0  0  0  0  0  0
   58.9240   28.6810   45.7010 C   0  0  0  0  0  0  0  0  0  0  0  0
   60.6330   28.3770   46.0000 S   0  0  0  0  0  0  0  0  0  0  0  0
   61.4210   28.8900   44.8280 O   0  0  0  0  0  0  0  0  0  0  0  0
   60.8630   26.8980   46.1430 O   0  0  0  0  0  0  0  0  0  0  0  0
   61.1220   29.2050   47.4660 N   0  0  0  0  0  0  0  0  0  0  0  0
   60.6170   30.5970   47.5050 C   0  0  0  0  0  0  0  0  0  0  0  0
   59.3900   30.7590   48.4210 C   0  0  0  0  0  0  0  0  0  0  0  0
   58.5860   29.6020   48.3640 O   0  0  0  0  0  0  0  0  0  0  0  0
   59.2460   28.5130   48.9840 C   0  0  0  0  0  0  0  0  0  0  0  0
   60.7620   28.4380   48.6710 C   0  0  0  0  0  0  0  0  0  0  0  0
   57.9950   27.6400   45.8300 C   0  0  0  0  0  0  0  0  0  0  0  0
   56.6420   27.8700   45.5640 C   0  0  0  0  0  0  0  0  0  0  0  0
   56.2050   29.1420   45.1850 C   0  0  0  0  0  0  0  0  0  0  0  0
   54.8680   29.3370   44.8610 O   0  0  0  0  0  0  0  0  0  0  0  0
  1  2  2  0
  2  3  1  0
  3  4  1  0
  4  5  1  0
  5  6  2  0
  6  7  1  0
  7  8  2  0
  8  9  1  0
  9 10  2  0
  2 11  1  0
 11 12  1  0
 12 13  2  0
 13 14  1  0
 14 15  1  0
 15 16  2  0
 15 17  2  0
 15 18  1  0
 18 19  1  0
 19 20  1  0
 20 21  1  0
 21 22  1  0
 22 23  1  0
 14 24  2  0
 24 25  1  0
 25 26  2  0
 26 27  1  0
 10  5  1  0
 26 12  1  0
 23 18  1  0
M  CHG  2  11  -1  27  -1
M  END
>  <UniqueID>  (566) 
40

>  <SMILES>  (566) 
O=C(CSc1ccccn1)[N-]c1cc(S(=O)(=O)N2CCOCC2)ccc1[O-]

>  <Energy>  (566) 
59.345170502973

>  <Genealogy>  (566) 
O=C(CSc1ccccn1)[N-]c1cc(S(=O)(=O)N2CCOCC2)ccc1[O-] (protonated)
O=C(CSc1ccccn1)[N-]c1cc(S(=O)(=O)N2CCOCC2)ccc1[O-] (3D coordinates assigned)
O=C(CSc1ccccn1)[N-]c1cc(S(=O)(=O)N2CCOCC2)ccc1[O-] (nonaromatic ring conformer: 59.345170502973 kcal/mol)

>  <smiles>  (566) 
O=C(CSc1ccccn1)Nc1cc(S(=O)(=O)N2CCOCC2)ccc1O

>  <score_type>  (566) 
oracle

>  <origin>  (566) 
adg

>  <m_score__min__energy>  (566) 
-14.18

>  <m_primary>  (566) 
energy

$$$$
50:0
     RDKit          3D

 21 22  0  0  0  0  0  0  0  0999 V2000
   58.9760   32.3100   48.8020 C   0  0  0  0  0  0  0  0  0  0  0  0
   58.8860   31.2890   47.7000 C   0  0  0  0  0  0  0  0  0  0  0  0
   59.5690   30.0690   47.8350 C   0  0  0  0  0  0  0  0  0  0  0  0
   59.4990   29.0870   46.8360 C   0  0  0  0  0  0  0  0  0  0  0  0
   60.2480   27.7930   47.0100 C   0  0  0  0  0  0  0  0  0  0  0  0
   58.7280   29.3320   45.6820 C   0  0  0  0  0  0  0  0  0  0  0  0
   58.5780   28.1070   44.3710 S   0  0  0  0  0  0  0  0  0  0  0  0
   57.4430   27.0900   45.3150 C   0  0  0  0  0  0  0  0  0  0  0  0
   57.7990   25.5770   45.9570 S   0  0  0  0  0  0  0  0  0  0  0  0
   56.2590   25.4140   46.6160 C   0  0  0  0  0  0  0  0  0  0  0  0
   55.8730   24.4140   47.2750 O   0  0  0  0  0  0  0  0  0  0  0  0
   55.4670   26.4770   46.3620 N   0  0  0  0  0  0  0  0  0  0  0  0
   56.1290   27.4120   45.6330 C   0  0  0  0  0  0  0  0  0  0  0  0
   55.5220   28.5970   45.2380 O   0  0  0  0  0  0  0  0  0  0  0  0
   58.0700   30.5560   45.5320 C   0  0  0  0  0  0  0  0  0  0  0  0
   58.1260   31.5380   46.5340 C   0  0  0  0  0  0  0  0  0  0  0  0
   57.4310   32.7850   46.3630 N   0  0  0  0  0  0  0  0  0  0  0  0
   57.7360   33.8530   45.0290 S   0  0  0  0  0  0  0  0  0  0  0  0
   59.2660   34.7270   45.2840 C   0  0  0  0  0  0  0  0  0  0  0  0
   56.6000   34.8250   44.8790 O   0  0  0  0  0  0  0  0  0  0  0  0
   57.8550   33.0410   43.7710 O   0  0  0  0  0  0  0  0  0  0  0  0
  1  2  1  0
  2  3  2  0
  3  4  1  0
  4  5  1  0
  4  6  2  0
  6  7  1  0
  7  8  1  0
  8  9  1  0
  9 10  1  0
 10 11  2  0
 10 12  1  0
 12 13  1  0
 13 14  1  0
  6 15  1  0
 15 16  2  0
 16 17  1  0
 17 18  1  0
 18 19  1  0
 18 20  2  0
 18 21  2  0
 16  2  1  0
 13  8  2  0
M  CHG  2  12  -1  14  -1
M  END
>  <UniqueID>  (567) 
48

>  <SMILES>  (567) 
Cc1cc(C)c(Sc2sc(=O)[n-]c2[O-])cc1NS(C)(=O)=O

>  <Energy>  (567) 
59.733598630077374

>  <Genealogy>  (567) 
Cc1cc(C)c(Sc2sc(=O)[n-]c2[O-])cc1NS(C)(=O)=O (protonated)
Cc1cc(C)c(Sc2sc(=O)[n-]c2[O-])cc1NS(C)(=O)=O (3D coordinates assigned)
Cc1cc(C)c(Sc2sc(=O)[n-]c2[O-])cc1NS(C)(=O)=O (optimized conformer: 59.733598630077374 kcal/mol)

>  <smiles>  (567) 
Cc1cc(C)c(Sc2sc(=O)[nH]c2O)cc1NS(C)(=O)=O

>  <score_type>  (567) 
oracle

>  <origin>  (567) 
adg

>  <m_score__min__energy>  (567) 
-14.1

>  <m_primary>  (567) 
energy

$$$$
65:0
     RDKit          3D

 22 23  0  0  0  0  0  0  0  0999 V2000
   58.4680   32.6980   51.3350 C   0  0  0  0  0  0  0  0  0  0  0  0
   57.6050   31.6800   52.0220 C   0  0  0  0  0  0  0  0  0  0  0  0
   56.2090   31.8160   52.0150 C   0  0  0  0  0  0  0  0  0  0  0  0
   55.4040   30.8490   52.6240 C   0  0  0  0  0  0  0  0  0  0  0  0
   55.9840   29.7270   53.2300 C   0  0  0  0  0  0  0  0  0  0  0  0
   54.9640   28.5190   54.0020 S   0  0  0  0  0  0  0  0  0  0  0  0
   54.8770   27.2920   53.1390 O   0  0  0  0  0  0  0  0  0  0  0  0
   55.5660   28.1640   55.3330 O   0  0  0  0  0  0  0  0  0  0  0  0
   53.3740   29.1770   54.2200 N   0  0  0  0  0  0  0  0  0  0  0  0
   52.2850   28.9820   53.3110 C   0  0  0  0  0  0  0  0  0  0  0  0
   51.6250   27.9110   53.3750 O   0  0  0  0  0  0  0  0  0  0  0  0
   51.9110   30.0010   52.3090 C   0  0  0  0  0  0  0  0  0  0  0  0
   52.1100   29.7130   50.9500 C   0  0  0  0  0  0  0  0  0  0  0  0
   51.8010   30.6590   49.9730 C   0  0  0  0  0  0  0  0  0  0  0  0
   51.3070   31.9100   50.3400 C   0  0  0  0  0  0  0  0  0  0  0  0
   51.0140   32.8500   49.3600 O   0  0  0  0  0  0  0  0  0  0  0  0
   51.1080   32.2190   51.6920 C   0  0  0  0  0  0  0  0  0  0  0  0
   50.6270   33.4810   52.0340 O   0  0  0  0  0  0  0  0  0  0  0  0
   51.3920   31.2630   52.6900 C   0  0  0  0  0  0  0  0  0  0  0  0
   51.1730   31.6020   54.1440 C   0  0  0  0  0  0  0  0  0  0  0  0
   57.3790   29.5840   53.2290 C   0  0  0  0  0  0  0  0  0  0  0  0
   58.1850   30.5500   52.6200 C   0  0  0  0  0  0  0  0  0  0  0  0
  1  2  1  0
  2  3  2  0
  3  4  1  0
  4  5  2  0
  5  6  1  0
  6  7  2  0
  6  8  2  0
  6  9  1  0
  9 10  1  0
 10 11  2  0
 10 12  1  0
 12 13  2  0
 13 14  1  0
 14 15  2  0
 15 16  1  0
 15 17  1  0
 17 18  1  0
 17 19  2  0
 19 20  1  0
  5 21  1  0
 21 22  2  0
 22  2  1  0
 19 12  1  0
M  CHG  3   9  -1  16  -1  18  -1
M  END
>  <UniqueID>  (568) 
62

>  <SMILES>  (568) 
Cc1ccc(S(=O)(=O)[N-]C(=O)c2ccc([O-])c([O-])c2C)cc1

>  <Energy>  (568) 
44.79247773941586

>  <Genealogy>  (568) 
Cc1ccc(S(=O)(=O)[N-]C(=O)c2ccc([O-])c([O-])c2C)cc1 (protonated)
Cc1ccc(S(=O)(=O)[N-]C(=O)c2ccc([O-])c([O-])c2C)cc1 (3D coordinates assigned)
Cc1ccc(S(=O)(=O)[N-]C(=O)c2ccc([O-])c([O-])c2C)cc1 (optimized conformer: 44.79247773941586 kcal/mol)

>  <smiles>  (568) 
Cc1ccc(S(=O)(=O)NC(=O)c2ccc(O)c(O)c2C)cc1

>  <score_type>  (568) 
oracle

>  <origin>  (568) 
adg

>  <m_score__min__energy>  (568) 
-15.960000000000001

>  <m_primary>  (568) 
energy

$$$$
78:0
     RDKit          3D

 23 25  0  0  0  0  0  0  0  0999 V2000
   57.3650   29.2440   46.3830 O   0  0  0  0  0  0  0  0  0  0  0  0
   56.8520   28.5350   45.4770 C   0  0  0  0  0  0  0  0  0  0  0  0
   57.5240   27.2410   45.0990 C   0  0  0  0  0  0  0  0  0  0  0  0
   57.7860   26.3660   46.3310 C   0  0  0  0  0  0  0  0  0  0  0  0
   56.8570   25.2360   46.3860 N   0  0  0  0  0  0  0  0  0  0  0  0
   55.5170   25.2770   46.2200 C   0  0  0  0  0  0  0  0  0  0  0  0
   54.7860   26.4460   46.0380 O   0  0  0  0  0  0  0  0  0  0  0  0
   54.9910   24.0010   46.2290 C   0  0  0  0  0  0  0  0  0  0  0  0
   56.0490   23.1450   46.4030 C   0  0  0  0  0  0  0  0  0  0  0  0
   57.1810   23.9280   46.4920 C   0  0  0  0  0  0  0  0  0  0  0  0
   58.4800   23.4540   46.6320 O   0  0  0  0  0  0  0  0  0  0  0  0
   55.9310   21.6550   46.3930 C   0  0  0  0  0  0  0  0  0  0  0  0
   54.5020   21.2050   46.1630 C   0  0  0  0  0  0  0  0  0  0  0  0
   53.4610   22.0500   45.9930 C   0  0  0  0  0  0  0  0  0  0  0  0
   53.5800   23.5600   46.0090 C   0  0  0  0  0  0  0  0  0  0  0  0
   55.6210   28.9640   44.8820 N   0  0  0  0  0  0  0  0  0  0  0  0
   55.5090   29.7330   43.6490 C   0  0  0  0  0  0  0  0  0  0  0  0
   56.4890   30.8650   43.6810 C   0  0  0  0  0  0  0  0  0  0  0  0
   57.1910   31.2430   42.5250 C   0  0  0  0  0  0  0  0  0  0  0  0
   58.0750   32.3210   42.5830 C   0  0  0  0  0  0  0  0  0  0  0  0
   58.2480   33.0150   43.7830 C   0  0  0  0  0  0  0  0  0  0  0  0
   57.5290   32.6150   44.9120 C   0  0  0  0  0  0  0  0  0  0  0  0
   56.6720   31.5610   44.8370 N   0  0  0  0  0  0  0  0  0  0  0  0
  1  2  2  0
  2  3  1  0
  3  4  1  0
  4  5  1  0
  5  6  1  0
  6  7  1  0
  6  8  2  0
  8  9  1  0
  9 10  2  0
 10 11  1  0
  9 12  1  0
 12 13  1  0
 13 14  2  0
 14 15  1  0
  2 16  1  0
 16 17  1  0
 17 18  1  0
 18 19  2  0
 19 20  1  0
 20 21  2  0
 21 22  1  0
 22 23  2  0
 10  5  1  0
 23 18  1  0
 15  8  1  0
M  CHG  3   7  -1  11  -1  16  -1
M  END
>  <UniqueID>  (569) 
72

>  <SMILES>  (569) 
O=C(CCn1c([O-])c2c(c1[O-])CC=CC2)[N-]Cc1ccccn1

>  <Energy>  (569) 
64.83739701846805

>  <Genealogy>  (569) 
O=C(CCn1c([O-])c2c(c1[O-])CC=CC2)[N-]Cc1ccccn1 (protonated)
O=C(CCn1c([O-])c2c(c1[O-])CC=CC2)[N-]Cc1ccccn1 (3D coordinates assigned)
O=C(CCn1c([O-])c2c(c1[O-])CC=CC2)[N-]Cc1ccccn1 (nonaromatic ring conformer: 64.83739701846805 kcal/mol)

>  <smiles>  (569) 
O=C(CCn1c(O)c2c(c1O)CC=CC2)NCc1ccccn1

>  <score_type>  (569) 
oracle

>  <origin>  (569) 
adg

>  <m_score__min__energy>  (569) 
-14.52

>  <m_primary>  (569) 
energy

$$$$
80:0
     RDKit          3D

 30 32  0  0  0  0  0  0  0  0999 V2000
   56.6350   31.9400   45.2280 O   0  0  0  0  0  0  0  0  0  0  0  0
   57.6640   31.8260   44.5130 C   0  0  0  0  0  0  0  0  0  0  0  0
   58.5570   32.8850   44.4200 O   0  0  0  0  0  0  0  0  0  0  0  0
   57.9030   30.5690   43.7330 C   0  0  0  0  0  0  0  0  0  0  0  0
   58.8250   29.6010   44.4840 C   0  0  0  0  0  0  0  0  0  0  0  0
   58.2590   29.2160   45.8230 C   0  0  0  0  0  0  0  0  0  0  0  0
   58.4120   30.0270   46.8300 N   0  0  0  0  0  0  0  0  0  0  0  0
   59.4960   29.9570   47.8050 C   0  0  0  0  0  0  0  0  0  0  0  0
   60.4410   31.0990   47.5730 C   0  0  0  0  0  0  0  0  0  0  0  0
   59.9450   32.3650   47.2180 C   0  0  0  0  0  0  0  0  0  0  0  0
   60.8270   33.4200   46.9640 C   0  0  0  0  0  0  0  0  0  0  0  0
   62.2070   33.2170   47.0520 C   0  0  0  0  0  0  0  0  0  0  0  0
   63.0600   34.2410   46.8030 F   0  0  0  0  0  0  0  0  0  0  0  0
   62.7070   31.9560   47.3880 C   0  0  0  0  0  0  0  0  0  0  0  0
   61.8300   30.8980   47.6420 C   0  0  0  0  0  0  0  0  0  0  0  0
   57.5240   27.9370   45.9600 C   0  0  0  0  0  0  0  0  0  0  0  0
   56.1730   27.8470   45.6170 C   0  0  0  0  0  0  0  0  0  0  0  0
   55.4870   28.9540   45.1300 O   0  0  0  0  0  0  0  0  0  0  0  0
   55.5180   26.6710   45.7630 N   0  0  0  0  0  0  0  0  0  0  0  0
   56.1430   25.5620   46.2340 C   0  0  0  0  0  0  0  0  0  0  0  0
   55.4800   24.4990   46.3630 O   0  0  0  0  0  0  0  0  0  0  0  0
   57.4760   25.6050   46.5660 N   0  0  0  0  0  0  0  0  0  0  0  0
   58.1380   24.4070   47.1140 C   0  0  0  0  0  0  0  0  0  0  0  0
   58.0090   23.2670   46.1530 C   0  0  0  0  0  0  0  0  0  0  0  0
   58.1400   23.3480   44.7810 C   0  0  0  0  0  0  0  0  0  0  0  0
   57.9810   22.0590   44.3180 C   0  0  0  0  0  0  0  0  0  0  0  0
   57.7650   21.2760   45.4340 C   0  0  0  0  0  0  0  0  0  0  0  0
   57.7910   22.0240   46.5130 O   0  0  0  0  0  0  0  0  0  0  0  0
   58.1670   26.7860   46.4430 C   0  0  0  0  0  0  0  0  0  0  0  0
   59.3840   26.8500   46.7720 O   0  0  0  0  0  0  0  0  0  0  0  0
  1  2  2  0
  2  3  1  0
  2  4  1  0
  4  5  1  0
  5  6  1  0
  6  7  2  3
  7  8  1  0
  8  9  1  0
  9 10  2  0
 10 11  1  0
 11 12  2  0
 12 13  1  0
 12 14  1  0
 14 15  2  0
  6 16  1  0
 16 17  2  0
 17 18  1  0
 17 19  1  0
 19 20  1  0
 20 21  2  0
 20 22  1  0
 22 23  1  0
 23 24  1  0
 24 25  2  0
 25 26  1  0
 26 27  2  0
 27 28  1  0
 22 29  1  0
 29 30  2  0
 15  9  1  0
 29 16  1  0
 28 24  1  0
M  CHG  3   3  -1  18  -1  19  -1
M  END
>  <UniqueID>  (570) 
74

>  <SMILES>  (570) 
O=C([O-])CCC(=NCc1ccc(F)cc1)c1c([O-])[n-]c(=O)n(Cc2ccco2)c1=O

>  <Energy>  (570) 
78.40590046743723

>  <Genealogy>  (570) 
O=C([O-])CCC(=NCc1ccc(F)cc1)c1c([O-])[n-]c(=O)n(Cc2ccco2)c1=O (protonated)
O=C([O-])CCC(=NCc1ccc(F)cc1)c1c([O-])[n-]c(=O)n(Cc2ccco2)c1=O (3D coordinates assigned)
O=C([O-])CCC(=NCc1ccc(F)cc1)c1c([O-])[n-]c(=O)n(Cc2ccco2)c1=O (optimized conformer: 78.40590046743723 kcal/mol)

>  <smiles>  (570) 
O=C(O)CCC(=NCc1ccc(F)cc1)c1c(O)[nH]c(=O)n(Cc2ccco2)c1=O

>  <score_type>  (570) 
oracle

>  <origin>  (570) 
adg

>  <m_score__min__energy>  (570) 
-14.220000000000001

>  <m_primary>  (570) 
energy

$$$$
81:0
     RDKit          3D

 29 31  0  0  0  0  0  0  0  0999 V2000
   58.6780   30.0360   47.9290 C   0  0  0  0  0  0  0  0  0  0  0  0
   58.2360   29.8260   46.6780 C   0  0  0  0  0  0  0  0  0  0  0  0
   57.6180   28.6670   46.1770 C   0  0  0  0  0  0  0  0  0  0  0  0
   57.4520   27.4450   46.7190 C   0  0  0  0  0  0  0  0  0  0  0  0
   57.1620   26.2060   45.9720 C   0  0  0  0  0  0  0  0  0  0  0  0
   55.8430   25.8860   45.6200 C   0  0  0  0  0  0  0  0  0  0  0  0
   54.7910   26.7070   46.0120 O   0  0  0  0  0  0  0  0  0  0  0  0
   55.5840   24.7630   44.8970 N   0  0  0  0  0  0  0  0  0  0  0  0
   56.5950   23.9450   44.4920 C   0  0  0  0  0  0  0  0  0  0  0  0
   56.2730   22.5960   43.6260 S   0  0  0  0  0  0  0  0  0  0  0  0
   57.8820   24.2520   44.7980 N   0  0  0  0  0  0  0  0  0  0  0  0
   58.1890   25.3610   45.5160 C   0  0  0  0  0  0  0  0  0  0  0  0
   59.3960   25.6240   45.7620 O   0  0  0  0  0  0  0  0  0  0  0  0
   57.1620   28.9900   44.9080 C   0  0  0  0  0  0  0  0  0  0  0  0
   57.5610   30.2860   44.6570 C   0  0  0  0  0  0  0  0  0  0  0  0
   57.2820   31.0290   43.3850 C   0  0  0  0  0  0  0  0  0  0  0  0
   58.2100   30.7950   45.7270 N   0  0  0  0  0  0  0  0  0  0  0  0
   58.7460   32.1270   45.8270 C   0  0  0  0  0  0  0  0  0  0  0  0
   57.9640   33.2280   45.4550 C   0  0  0  0  0  0  0  0  0  0  0  0
   58.4800   34.5220   45.5580 C   0  0  0  0  0  0  0  0  0  0  0  0
   59.7770   34.7260   46.0350 C   0  0  0  0  0  0  0  0  0  0  0  0
   60.5750   33.6310   46.4160 C   0  0  0  0  0  0  0  0  0  0  0  0
   61.9500   33.8380   46.9200 C   0  0  0  0  0  0  0  0  0  0  0  0
   62.9290   33.7920   46.1250 O   0  0  0  0  0  0  0  0  0  0  0  0
   62.1600   34.0900   48.2820 O   0  0  0  0  0  0  0  0  0  0  0  0
   62.1960   33.0730   49.2840 C   0  0  0  0  0  0  0  0  0  0  0  0
   60.7820   32.6630   49.7060 C   0  0  0  0  0  0  0  0  0  0  0  0
   59.7990   33.8290   49.6780 C   0  0  0  0  0  0  0  0  0  0  0  0
   60.0490   32.3320   46.3060 C   0  0  0  0  0  0  0  0  0  0  0  0
  1  2  2  0
  2  3  1  0
  3  4  2  3
  4  5  1  0
  5  6  2  0
  6  7  1  0
  6  8  1  0
  8  9  1  0
  9 10  2  0
  9 11  1  0
 11 12  1  0
 12 13  2  0
  3 14  1  0
 14 15  2  0
 15 16  1  0
 15 17  1  0
 17 18  1  0
 18 19  2  0
 19 20  1  0
 20 21  2  0
 21 22  1  0
 22 23  1  0
 23 24  2  0
 23 25  1  0
 25 26  1  0
 26 27  1  0
 27 28  1  0
 22 29  2  0
 17  2  1  0
 29 18  1  0
 12  5  1  0
M  CHG  2   7  -1  11  -1
M  END
>  <UniqueID>  (571) 
75

>  <SMILES>  (571) 
C=c1c(=Cc2c([O-])[nH]c(=S)[n-]c2=O)cc(C)n1-c1cccc(C(=O)OCCC)c1

>  <Energy>  (571) 
94.17837287332391

>  <Genealogy>  (571) 
C=c1c(=Cc2c([O-])[nH]c(=S)[n-]c2=O)cc(C)n1-c1cccc(C(=O)OCCC)c1 (protonated)
C=c1c(=Cc2c([O-])[nH]c(=S)[n-]c2=O)cc(C)n1-c1cccc(C(=O)OCCC)c1 (3D coordinates assigned)
C=c1c(=Cc2c([O-])[nH]c(=S)[n-]c2=O)cc(C)n1-c1cccc(C(=O)OCCC)c1 (optimized conformer: 94.17837287332391 kcal/mol)

>  <smiles>  (571) 
C=c1c(=Cc2c(O)[nH]c(=S)[nH]c2=O)cc(C)n1-c1cccc(C(=O)OCCC)c1

>  <score_type>  (571) 
oracle

>  <origin>  (571) 
adg

>  <m_score__min__energy>  (571) 
-14.029999999999999

>  <m_primary>  (571) 
energy

$$$$
92:0
     RDKit          3D

 26 28  0  0  0  0  0  0  0  0999 V2000
   57.5800   21.5700   44.2660 C   0  0  0  0  0  0  0  0  0  0  0  0
   57.2840   22.2640   45.3970 N   0  0  0  0  0  0  0  0  0  0  0  0
   56.4460   23.3390   45.3890 C   0  0  0  0  0  0  0  0  0  0  0  0
   56.1660   24.0480   46.6500 C   0  0  0  0  0  0  0  0  0  0  0  0
   55.1250   23.7840   47.3110 O   0  0  0  0  0  0  0  0  0  0  0  0
   57.0610   25.0750   47.0940 N   0  0  0  0  0  0  0  0  0  0  0  0
   57.3120   26.3130   46.4120 C   0  0  0  0  0  0  0  0  0  0  0  0
   58.6210   26.7880   46.3490 C   0  0  0  0  0  0  0  0  0  0  0  0
   58.8920   27.9910   45.6980 C   0  0  0  0  0  0  0  0  0  0  0  0
   57.8860   28.7210   45.1270 N   0  0  0  0  0  0  0  0  0  0  0  0
   58.2180   29.9950   44.4700 C   0  0  0  0  0  0  0  0  0  0  0  0
   57.3950   31.1010   45.0510 C   0  0  0  0  0  0  0  0  0  0  0  0
   56.2920   31.3980   44.5190 O   0  0  0  0  0  0  0  0  0  0  0  0
   57.8640   31.7720   46.2330 N   0  0  0  0  0  0  0  0  0  0  0  0
   58.5620   32.8680   46.2990 C   0  0  0  0  0  0  0  0  0  0  0  0
   59.5560   33.0250   47.1980 N   0  0  0  0  0  0  0  0  0  0  0  0
   60.1470   34.2450   47.0900 C   0  0  0  0  0  0  0  0  0  0  0  0
   59.6260   35.0710   46.1010 C   0  0  0  0  0  0  0  0  0  0  0  0
   58.3790   34.2410   45.3350 S   0  0  0  0  0  0  0  0  0  0  0  0
   56.5830   28.2980   45.2230 C   0  0  0  0  0  0  0  0  0  0  0  0
   55.6470   28.9910   44.7390 O   0  0  0  0  0  0  0  0  0  0  0  0
   56.2760   27.0940   45.8740 C   0  0  0  0  0  0  0  0  0  0  0  0
   54.9460   26.7080   46.0110 O   0  0  0  0  0  0  0  0  0  0  0  0
   55.8640   23.7480   44.1760 C   0  0  0  0  0  0  0  0  0  0  0  0
   56.1550   23.0470   43.0040 C   0  0  0  0  0  0  0  0  0  0  0  0
   57.0180   21.9510   43.0460 C   0  0  0  0  0  0  0  0  0  0  0  0
  1  2  2  0
  2  3  1  0
  3  4  1  0
  4  5  2  0
  4  6  1  0
  6  7  1  0
  7  8  1  0
  8  9  2  0
  9 10  1  0
 10 11  1  0
 11 12  1  0
 12 13  2  0
 12 14  1  0
 14 15  2  0
 15 16  1  0
 16 17  1  0
 17 18  2  0
 18 19  1  0
 10 20  1  0
 20 21  2  0
 20 22  1  0
 22 23  1  0
  3 24  2  0
 24 25  1  0
 25 26  2  0
 26  1  1  0
 22  7  2  0
 19 15  1  0
M  CHG  3   6  -1  16  -1  23  -1
M  END
>  <UniqueID>  (572) 
84

>  <SMILES>  (572) 
O=C(Cn1ccc([N-]C(=O)c2ccccn2)c([O-])c1=O)/N=c1/[n-]ccs1

>  <Energy>  (572) 
79.69963573285433

>  <Genealogy>  (572) 
O=C(Cn1ccc([N-]C(=O)c2ccccn2)c([O-])c1=O)N=c1[n-]ccs1 (protonated)
O=C(Cn1ccc([N-]C(=O)c2ccccn2)c([O-])c1=O)/N=c1/[n-]ccs1 (cis-trans isomerization)
O=C(Cn1ccc([N-]C(=O)c2ccccn2)c([O-])c1=O)/N=c1/[n-]ccs1 (3D coordinates assigned)
O=C(Cn1ccc([N-]C(=O)c2ccccn2)c([O-])c1=O)/N=c1/[n-]ccs1 (optimized conformer: 79.69963573285433 kcal/mol)

>  <smiles>  (572) 
O=C(Cn1ccc(NC(=O)c2ccccn2)c(O)c1=O)N=c1[nH]ccs1

>  <score_type>  (572) 
oracle

>  <origin>  (572) 
adg

>  <m_score__min__energy>  (572) 
-14.56

>  <m_primary>  (572) 
energy

$$$$
2:0
     RDKit          3D

 28 30  0  0  0  0  0  0  0  0999 V2000
   55.3520   26.4320   46.0460 N   0  0  0  0  0  0  0  0  0  0  0  0
   57.0710   26.2540   46.0330 S   0  0  0  0  0  0  0  0  0  0  0  0
   57.4920   25.5330   44.7840 O   0  0  0  0  0  0  0  0  0  0  0  0
   57.4810   25.4490   47.2350 O   0  0  0  0  0  0  0  0  0  0  0  0
   57.8390   27.8380   46.0800 C   0  0  0  0  0  0  0  0  0  0  0  0
   59.0600   28.0060   46.7450 C   0  0  0  0  0  0  0  0  0  0  0  0
   59.6580   29.2670   46.8030 C   0  0  0  0  0  0  0  0  0  0  0  0
   59.0460   30.3660   46.1930 C   0  0  0  0  0  0  0  0  0  0  0  0
   57.8270   30.2060   45.5090 C   0  0  0  0  0  0  0  0  0  0  0  0
   57.1440   31.3110   44.9010 N   0  0  0  0  0  0  0  0  0  0  0  0
   57.7320   32.3460   44.1030 C   0  0  0  0  0  0  0  0  0  0  0  0
   57.9790   32.1530   42.8820 O   0  0  0  0  0  0  0  0  0  0  0  0
   57.9690   33.7020   44.7140 C   0  0  0  0  0  0  0  0  0  0  0  0
   57.1590   33.8790   46.0230 C   0  0  0  0  0  0  0  0  0  0  0  0
   57.9460   33.4800   47.2790 C   0  0  0  0  0  0  0  0  0  0  0  0
   59.2680   34.1230   47.3170 N   0  0  0  0  0  0  0  0  0  0  0  0
   59.9720   34.2120   48.5680 C   0  0  0  0  0  0  0  0  0  0  0  0
   59.3540   34.5960   49.5960 O   0  0  0  0  0  0  0  0  0  0  0  0
   61.4040   33.8450   48.6730 C   0  0  0  0  0  0  0  0  0  0  0  0
   62.0280   33.0900   47.6630 C   0  0  0  0  0  0  0  0  0  0  0  0
   63.3750   32.7350   47.7750 C   0  0  0  0  0  0  0  0  0  0  0  0
   64.1120   33.1220   48.8980 C   0  0  0  0  0  0  0  0  0  0  0  0
   65.4170   32.7740   49.0040 F   0  0  0  0  0  0  0  0  0  0  0  0
   63.4980   33.8610   49.9130 C   0  0  0  0  0  0  0  0  0  0  0  0
   62.1510   34.2180   49.8050 C   0  0  0  0  0  0  0  0  0  0  0  0
   59.7930   34.8030   46.1240 C   0  0  0  0  0  0  0  0  0  0  0  0
   59.4880   33.9630   44.8830 C   0  0  0  0  0  0  0  0  0  0  0  0
   57.2210   28.9420   45.4740 C   0  0  0  0  0  0  0  0  0  0  0  0
  1  2  1  0
  2  3  2  0
  2  4  2  0
  2  5  1  0
  5  6  2  0
  6  7  1  0
  7  8  2  0
  8  9  1  0
  9 10  1  0
 10 11  1  0
 11 12  2  0
 11 13  1  0
 13 14  1  0
 14 15  1  0
 15 16  1  0
 16 17  1  0
 17 18  2  0
 17 19  1  0
 19 20  2  0
 20 21  1  0
 21 22  2  0
 22 23  1  0
 22 24  1  0
 24 25  2  0
 16 26  1  0
 26 27  1  0
  9 28  2  0
 28  5  1  0
 27 13  1  0
 25 19  1  0
M  CHG  2   1  -1  10  -1
M  END
>  <UniqueID>  (573) 
3

>  <SMILES>  (573) 
[NH-]S(=O)(=O)c1cccc([N-]C(=O)C2CCN(C(=O)c3ccc(F)cc3)CC2)c1

>  <Energy>  (573) 
58.05085184626405

>  <Genealogy>  (573) 
[NH-]S(=O)(=O)c1cccc([N-]C(=O)C2CCN(C(=O)c3ccc(F)cc3)CC2)c1 (protonated)
[NH-]S(=O)(=O)c1cccc([N-]C(=O)C2CCN(C(=O)c3ccc(F)cc3)CC2)c1 (3D coordinates assigned)
[NH-]S(=O)(=O)c1cccc([N-]C(=O)C2CCN(C(=O)c3ccc(F)cc3)CC2)c1 (nonaromatic ring conformer: 58.05085184626405 kcal/mol)

>  <smiles>  (573) 
NS(=O)(=O)c1cccc(NC(=O)C2CCN(C(=O)c3ccc(F)cc3)CC2)c1

>  <score_type>  (573) 
oracle

>  <origin>  (573) 
adg

>  <m_score__min__energy>  (573) 
-14.039999999999999

>  <m_primary>  (573) 
energy

$$$$
4:0
     RDKit          3D

 28 31  0  0  0  0  0  0  0  0999 V2000
   56.9540   25.7020   47.1350 C   0  0  0  0  0  0  0  0  0  0  0  0
   58.3180   25.5850   47.3950 C   0  0  0  0  0  0  0  0  0  0  0  0
   59.2180   26.3910   46.6980 C   0  0  0  0  0  0  0  0  0  0  0  0
   58.7690   27.2790   45.7680 N   0  0  0  0  0  0  0  0  0  0  0  0
   57.4340   27.3990   45.4770 C   0  0  0  0  0  0  0  0  0  0  0  0
   56.9960   28.2430   44.5820 N   0  0  0  0  0  0  0  0  0  0  0  0
   56.4180   29.5340   44.8250 C   0  0  0  0  0  0  0  0  0  0  0  0
   55.1620   29.6360   44.8520 O   0  0  0  0  0  0  0  0  0  0  0  0
   57.2540   30.7520   44.9590 C   0  0  0  0  0  0  0  0  0  0  0  0
   57.0020   31.8840   44.1370 C   0  0  0  0  0  0  0  0  0  0  0  0
   57.7830   33.0490   44.2560 C   0  0  0  0  0  0  0  0  0  0  0  0
   58.8050   33.0500   45.1980 C   0  0  0  0  0  0  0  0  0  0  0  0
   59.6660   34.0400   45.4760 N   0  0  0  0  0  0  0  0  0  0  0  0
   60.4280   33.4960   46.4590 C   0  0  0  0  0  0  0  0  0  0  0  0
   61.4210   34.1480   46.9890 N   0  0  0  0  0  0  0  0  0  0  0  0
   62.8180   33.8040   46.9480 C   0  0  0  0  0  0  0  0  0  0  0  0
   63.5000   34.2140   45.9710 O   0  0  0  0  0  0  0  0  0  0  0  0
   63.5040   33.0340   48.0630 C   0  0  0  0  0  0  0  0  0  0  0  0
   62.9710   31.5740   48.1700 C   0  0  0  0  0  0  0  0  0  0  0  0
   62.2080   31.2820   49.4730 C   0  0  0  0  0  0  0  0  0  0  0  0
   61.2540   32.4270   49.8190 C   0  0  0  0  0  0  0  0  0  0  0  0
   61.9900   33.7700   50.0100 C   0  0  0  0  0  0  0  0  0  0  0  0
   63.4040   33.7980   49.4010 C   0  0  0  0  0  0  0  0  0  0  0  0
   60.0980   32.2200   46.7940 N   0  0  0  0  0  0  0  0  0  0  0  0
   59.0610   31.9690   45.9820 C   0  0  0  0  0  0  0  0  0  0  0  0
   58.3170   30.7970   45.8940 C   0  0  0  0  0  0  0  0  0  0  0  0
   56.5040   26.6130   46.1770 C   0  0  0  0  0  0  0  0  0  0  0  0
   55.1420   26.7270   45.9210 O   0  0  0  0  0  0  0  0  0  0  0  0
  1  2  1  0
  2  3  2  0
  3  4  1  0
  4  5  1  0
  5  6  2  3
  6  7  1  0
  7  8  2  0
  7  9  1  0
  9 10  2  0
 10 11  1  0
 11 12  2  0
 12 13  1  0
 13 14  1  0
 14 15  2  0
 15 16  1  0
 16 17  2  0
 16 18  1  0
 18 19  1  0
 19 20  1  0
 20 21  1  0
 21 22  1  0
 22 23  1  0
 14 24  1  0
 24 25  1  0
 25 26  2  0
  5 27  1  0
 27 28  1  0
 27  1  2  0
 26  9  1  0
 25 12  1  0
 23 18  1  0
M  CHG  3  13  -1  24  -1  28  -1
M  END
>  <UniqueID>  (574) 
5

>  <SMILES>  (574) 
O=C(N=c1[nH]cccc1[O-])c1ccc2[n-]/c(=N/C(=O)C3CCCCC3)[n-]c2c1

>  <Energy>  (574) 
103.48326886894691

>  <Genealogy>  (574) 
O=C(N=c1[nH]cccc1[O-])c1ccc2[n-]c(=NC(=O)C3CCCCC3)[n-]c2c1 (protonated)
O=C(N=c1[nH]cccc1[O-])c1ccc2[n-]/c(=N/C(=O)C3CCCCC3)[n-]c2c1 (cis-trans isomerization)
O=C(N=c1[nH]cccc1[O-])c1ccc2[n-]/c(=N/C(=O)C3CCCCC3)[n-]c2c1 (3D coordinates assigned)
O=C(N=c1[nH]cccc1[O-])c1ccc2[n-]/c(=N/C(=O)C3CCCCC3)[n-]c2c1 (nonaromatic ring conformer: 103.48326886894691 kcal/mol)

>  <smiles>  (574) 
O=C(N=c1[nH]cccc1O)c1ccc2[nH]c(=NC(=O)C3CCCCC3)[nH]c2c1

>  <score_type>  (574) 
oracle

>  <origin>  (574) 
adg

>  <m_score__min__energy>  (574) 
-14.220000000000001

>  <m_primary>  (574) 
energy

$$$$
75:0
     RDKit          3D

 26 28  0  0  0  0  0  0  0  0999 V2000
   51.0150   32.3420   49.9000 N   0  0  0  0  0  0  0  0  0  0  0  0
   51.4580   32.2850   51.2550 C   0  0  0  0  0  0  0  0  0  0  0  0
   51.0200   33.1230   52.0850 O   0  0  0  0  0  0  0  0  0  0  0  0
   52.3430   31.2020   51.7240 C   0  0  0  0  0  0  0  0  0  0  0  0
   53.6630   31.1170   51.4990 C   0  0  0  0  0  0  0  0  0  0  0  0
   54.6500   30.4930   52.3980 C   0  0  0  0  0  0  0  0  0  0  0  0
   54.3150   30.2430   53.5860 O   0  0  0  0  0  0  0  0  0  0  0  0
   55.9800   30.2110   51.9410 N   0  0  0  0  0  0  0  0  0  0  0  0
   57.0040   31.1730   51.6440 C   0  0  0  0  0  0  0  0  0  0  0  0
   57.1620   32.2680   52.5010 C   0  0  0  0  0  0  0  0  0  0  0  0
   58.1560   33.2190   52.2560 C   0  0  0  0  0  0  0  0  0  0  0  0
   59.0060   33.0770   51.1560 C   0  0  0  0  0  0  0  0  0  0  0  0
   58.8720   31.9770   50.2930 C   0  0  0  0  0  0  0  0  0  0  0  0
   59.8050   31.8160   49.1190 C   0  0  0  0  0  0  0  0  0  0  0  0
   59.0420   31.5390   47.8460 C   0  0  0  0  0  0  0  0  0  0  0  0
   58.5680   30.2810   47.6530 N   0  0  0  0  0  0  0  0  0  0  0  0
   57.8880   29.9390   46.5610 N   0  0  0  0  0  0  0  0  0  0  0  0
   57.6260   30.8340   45.5790 C   0  0  0  0  0  0  0  0  0  0  0  0
   56.9850   30.4600   44.5600 O   0  0  0  0  0  0  0  0  0  0  0  0
   58.0700   32.1590   45.7050 C   0  0  0  0  0  0  0  0  0  0  0  0
   58.8300   32.5180   46.8460 C   0  0  0  0  0  0  0  0  0  0  0  0
   59.3040   33.9470   47.0440 C   0  0  0  0  0  0  0  0  0  0  0  0
   59.3040   34.7710   45.7540 C   0  0  0  0  0  0  0  0  0  0  0  0
   57.9810   34.5970   45.0150 C   0  0  0  0  0  0  0  0  0  0  0  0
   57.8130   33.1410   44.5800 C   0  0  0  0  0  0  0  0  0  0  0  0
   57.8810   31.0150   50.5560 C   0  0  0  0  0  0  0  0  0  0  0  0
  1  2  1  0
  2  3  2  0
  2  4  1  0
  4  5  2  3
  5  6  1  0
  6  7  2  0
  6  8  1  0
  8  9  1  0
  9 10  2  0
 10 11  1  0
 11 12  2  0
 12 13  1  0
 13 14  1  0
 14 15  1  0
 15 16  2  0
 16 17  1  0
 17 18  1  0
 18 19  2  0
 18 20  1  0
 20 21  2  0
 21 22  1  0
 22 23  1  0
 23 24  1  0
 24 25  1  0
 13 26  2  0
 26  9  1  0
 21 15  1  0
 25 20  1  0
M  CHG  3   1  -1   8  -1  17  -1
M  END
>  <UniqueID>  (575) 
74

>  <SMILES>  (575) 
[NH-]C(=O)C=CC(=O)[N-]c1cccc(Cc2n[n-]c(=O)c3c2CCCC3)c1

>  <Energy>  (575) 
55.010429898549944

>  <Genealogy>  (575) 
[NH-]C(=O)C=CC(=O)[N-]c1cccc(Cc2n[n-]c(=O)c3c2CCCC3)c1 (protonated)
[NH-]C(=O)C=CC(=O)[N-]c1cccc(Cc2n[n-]c(=O)c3c2CCCC3)c1 (3D coordinates assigned)
[NH-]C(=O)C=CC(=O)[N-]c1cccc(Cc2n[n-]c(=O)c3c2CCCC3)c1 (nonaromatic ring conformer: 55.010429898549944 kcal/mol)

>  <smiles>  (575) 
NC(=O)C=CC(=O)Nc1cccc(Cc2n[nH]c(=O)c3c2CCCC3)c1

>  <score_type>  (575) 
oracle

>  <origin>  (575) 
adg

>  <m_score__min__energy>  (575) 
-15.210000000000001

>  <m_primary>  (575) 
energy

$$$$
77:0
     RDKit          3D

 25 27  0  0  0  0  0  0  0  0999 V2000
   58.8650   32.7470   48.7090 C   0  0  0  0  0  0  0  0  0  0  0  0
   59.2510   33.6110   47.5510 C   0  0  0  0  0  0  0  0  0  0  0  0
   59.0520   34.9460   47.5380 N   0  0  0  0  0  0  0  0  0  0  0  0
   59.4660   35.3320   46.3140 C   0  0  0  0  0  0  0  0  0  0  0  0
   59.8950   34.2330   45.6030 C   0  0  0  0  0  0  0  0  0  0  0  0
   59.7610   33.1500   46.3860 N   0  0  0  0  0  0  0  0  0  0  0  0
   60.0280   31.7640   45.9990 C   0  0  0  0  0  0  0  0  0  0  0  0
   58.7370   31.0470   45.7100 C   0  0  0  0  0  0  0  0  0  0  0  0
   57.7530   31.6400   44.9050 C   0  0  0  0  0  0  0  0  0  0  0  0
   56.5780   30.9460   44.6050 C   0  0  0  0  0  0  0  0  0  0  0  0
   56.3730   29.6560   45.1020 C   0  0  0  0  0  0  0  0  0  0  0  0
   55.2070   28.9760   44.7660 O   0  0  0  0  0  0  0  0  0  0  0  0
   57.3430   29.0560   45.9290 C   0  0  0  0  0  0  0  0  0  0  0  0
   57.1800   27.6430   46.4250 C   0  0  0  0  0  0  0  0  0  0  0  0
   57.2040   26.7200   45.2850 N   0  0  0  0  0  0  0  0  0  0  0  0
   57.1850   25.3150   45.7200 C   0  0  0  0  0  0  0  0  0  0  0  0
   56.5620   24.4030   44.6560 C   0  0  0  0  0  0  0  0  0  0  0  0
   55.1700   24.0780   44.9830 N   0  0  0  0  0  0  0  0  0  0  0  0
   54.2140   24.9090   45.4290 C   0  0  0  0  0  0  0  0  0  0  0  0
   54.3960   26.2630   45.6800 O   0  0  0  0  0  0  0  0  0  0  0  0
   53.0430   24.2080   45.5960 C   0  0  0  0  0  0  0  0  0  0  0  0
   53.2510   22.9170   45.2600 N   0  0  0  0  0  0  0  0  0  0  0  0
   54.5510   22.8830   44.8940 C   0  0  0  0  0  0  0  0  0  0  0  0
   55.1250   21.8270   44.5160 O   0  0  0  0  0  0  0  0  0  0  0  0
   58.5250   29.7570   46.2190 C   0  0  0  0  0  0  0  0  0  0  0  0
  1  2  1  0
  2  3  2  0
  3  4  1  0
  4  5  2  0
  5  6  1  0
  6  7  1  0
  7  8  1  0
  8  9  2  0
  9 10  1  0
 10 11  2  0
 11 12  1  0
 11 13  1  0
 13 14  1  0
 14 15  1  0
 15 16  1  0
 16 17  1  0
 17 18  1  0
 18 19  1  0
 19 20  1  0
 19 21  2  0
 21 22  1  0
 22 23  1  0
 23 24  2  0
 13 25  2  0
  6  2  1  0
 25  8  1  0
 23 18  1  0
M  CHG  3  12  -1  20  -1  22  -1
M  END
>  <UniqueID>  (576) 
76

>  <SMILES>  (576) 
Cc1nccn1Cc1ccc([O-])c(CNCCn2c([O-])c[n-]c2=O)c1

>  <Energy>  (576) 
98.60613709388704

>  <Genealogy>  (576) 
Cc1nccn1Cc1ccc([O-])c(CNCCn2c([O-])c[n-]c2=O)c1 (protonated)
Cc1nccn1Cc1ccc([O-])c(CNCCn2c([O-])c[n-]c2=O)c1 (3D coordinates assigned)
Cc1nccn1Cc1ccc([O-])c(CNCCn2c([O-])c[n-]c2=O)c1 (optimized conformer: 98.60613709388704 kcal/mol)

>  <smiles>  (576) 
Cc1nccn1Cc1ccc(O)c(CNCCn2c(O)c[nH]c2=O)c1

>  <score_type>  (576) 
oracle

>  <origin>  (576) 
adg

>  <m_score__min__energy>  (576) 
-15.380000000000001

>  <m_primary>  (576) 
energy

$$$$
4:0
     RDKit          3D

 27 29  0  0  0  0  0  0  0  0999 V2000
   55.9270   27.9640   45.2770 N   0  0  0  0  0  0  0  0  0  0  0  0
   57.3870   28.8610   45.0670 S   0  0  0  0  0  0  0  0  0  0  0  0
   58.0990   28.3700   43.8380 O   0  0  0  0  0  0  0  0  0  0  0  0
   57.0630   30.3180   44.8870 O   0  0  0  0  0  0  0  0  0  0  0  0
   58.4120   28.6560   46.4840 C   0  0  0  0  0  0  0  0  0  0  0  0
   59.4930   27.7650   46.4560 C   0  0  0  0  0  0  0  0  0  0  0  0
   60.2780   27.5830   47.5960 C   0  0  0  0  0  0  0  0  0  0  0  0
   59.9900   28.2860   48.7700 C   0  0  0  0  0  0  0  0  0  0  0  0
   58.9180   29.1980   48.8070 C   0  0  0  0  0  0  0  0  0  0  0  0
   58.5500   29.8940   50.0130 N   0  0  0  0  0  0  0  0  0  0  0  0
   58.8720   31.2630   50.3050 C   0  0  0  0  0  0  0  0  0  0  0  0
   59.0240   32.1000   49.3740 O   0  0  0  0  0  0  0  0  0  0  0  0
   59.0260   31.7080   51.7270 C   0  0  0  0  0  0  0  0  0  0  0  0
   59.0170   30.2750   52.8610 S   0  0  0  0  0  0  0  0  0  0  0  0
   57.2800   29.9070   52.6230 C   0  0  0  0  0  0  0  0  0  0  0  0
   56.7680   28.6650   52.5720 N   0  0  0  0  0  0  0  0  0  0  0  0
   55.4600   28.8120   52.4370 N   0  0  0  0  0  0  0  0  0  0  0  0
   55.2270   30.1400   52.4060 C   0  0  0  0  0  0  0  0  0  0  0  0
   53.8900   30.7540   52.3000 C   0  0  0  0  0  0  0  0  0  0  0  0
   53.4500   31.2730   51.0710 C   0  0  0  0  0  0  0  0  0  0  0  0
   52.2000   31.8930   50.9720 C   0  0  0  0  0  0  0  0  0  0  0  0
   51.3760   31.9890   52.0960 C   0  0  0  0  0  0  0  0  0  0  0  0
   50.1350   32.6070   51.9970 O   0  0  0  0  0  0  0  0  0  0  0  0
   51.8000   31.4650   53.3200 C   0  0  0  0  0  0  0  0  0  0  0  0
   53.0530   30.8520   53.4250 C   0  0  0  0  0  0  0  0  0  0  0  0
   56.3450   30.8170   52.5110 O   0  0  0  0  0  0  0  0  0  0  0  0
   58.1260   29.3630   47.6590 C   0  0  0  0  0  0  0  0  0  0  0  0
  1  2  1  0
  2  3  2  0
  2  4  2  0
  2  5  1  0
  5  6  2  0
  6  7  1  0
  7  8  2  0
  8  9  1  0
  9 10  1  0
 10 11  1  0
 11 12  2  0
 11 13  1  0
 13 14  1  0
 14 15  1  0
 15 16  2  0
 16 17  1  0
 17 18  2  0
 18 19  1  0
 19 20  2  0
 20 21  1  0
 21 22  2  0
 22 23  1  0
 22 24  1  0
 24 25  2  0
 18 26  1  0
  9 27  2  0
 27  5  1  0
 26 15  1  0
 25 19  1  0
M  CHG  2   1  -1  23  -1
M  END
>  <UniqueID>  (577) 
5

>  <SMILES>  (577) 
[NH-]S(=O)(=O)c1cccc(NC(=O)CSc2nnc(-c3ccc([O-])cc3)o2)c1

>  <Energy>  (577) 
69.31204453115343

>  <Genealogy>  (577) 
[NH-]S(=O)(=O)c1cccc(NC(=O)CSc2nnc(-c3ccc([O-])cc3)o2)c1 (protonated)
[NH-]S(=O)(=O)c1cccc(NC(=O)CSc2nnc(-c3ccc([O-])cc3)o2)c1 (3D coordinates assigned)
[NH-]S(=O)(=O)c1cccc(NC(=O)CSc2nnc(-c3ccc([O-])cc3)o2)c1 (optimized conformer: 69.31204453115343 kcal/mol)

>  <smiles>  (577) 
NS(=O)(=O)c1cccc(NC(=O)CSc2nnc(-c3ccc(O)cc3)o2)c1

>  <score_type>  (577) 
oracle

>  <origin>  (577) 
adg

>  <m_score__min__energy>  (577) 
-15.279999999999999

>  <m_primary>  (577) 
energy

$$$$
18:0
     RDKit          3D

 28 30  0  0  0  0  0  0  0  0999 V2000
   60.0970   30.1230   47.8520 C   0  0  0  0  0  0  0  0  0  0  0  0
   58.8080   30.6120   47.4960 O   0  0  0  0  0  0  0  0  0  0  0  0
   58.5740   31.8080   46.7970 C   0  0  0  0  0  0  0  0  0  0  0  0
   58.2630   33.0060   47.4700 C   0  0  0  0  0  0  0  0  0  0  0  0
   58.0250   34.1800   46.7540 C   0  0  0  0  0  0  0  0  0  0  0  0
   58.0950   34.1770   45.3620 C   0  0  0  0  0  0  0  0  0  0  0  0
   58.4090   33.0010   44.6800 C   0  0  0  0  0  0  0  0  0  0  0  0
   58.6530   31.8100   45.3850 C   0  0  0  0  0  0  0  0  0  0  0  0
   58.9590   30.5490   44.6080 C   0  0  0  0  0  0  0  0  0  0  0  0
   57.9650   29.5010   44.9200 N   0  0  0  0  0  0  0  0  0  0  0  0
   56.6210   29.7520   44.8050 C   0  0  0  0  0  0  0  0  0  0  0  0
   56.2030   30.8640   44.3810 O   0  0  0  0  0  0  0  0  0  0  0  0
   55.7130   28.8020   45.1430 N   0  0  0  0  0  0  0  0  0  0  0  0
   56.0950   27.5950   45.6220 C   0  0  0  0  0  0  0  0  0  0  0  0
   55.1240   26.6600   45.9670 O   0  0  0  0  0  0  0  0  0  0  0  0
   57.4520   27.3060   45.7820 C   0  0  0  0  0  0  0  0  0  0  0  0
   57.8660   25.9980   46.3410 C   0  0  0  0  0  0  0  0  0  0  0  0
   58.5460   25.0590   45.6620 C   0  0  0  0  0  0  0  0  0  0  0  0
   57.9410   23.8800   44.9960 C   0  0  0  0  0  0  0  0  0  0  0  0
   56.7020   23.9740   44.3330 C   0  0  0  0  0  0  0  0  0  0  0  0
   56.1570   22.8600   43.6900 C   0  0  0  0  0  0  0  0  0  0  0  0
   56.8490   21.6460   43.6790 C   0  0  0  0  0  0  0  0  0  0  0  0
   56.2970   20.5450   43.0270 O   0  0  0  0  0  0  0  0  0  0  0  0
   58.0910   21.5480   44.3200 C   0  0  0  0  0  0  0  0  0  0  0  0
   58.6390   22.6580   44.9710 C   0  0  0  0  0  0  0  0  0  0  0  0
   59.8730   22.5350   45.6000 O   0  0  0  0  0  0  0  0  0  0  0  0
   58.3870   28.2760   45.3770 C   0  0  0  0  0  0  0  0  0  0  0  0
   59.6190   28.0050   45.4220 O   0  0  0  0  0  0  0  0  0  0  0  0
  1  2  1  0
  2  3  1  0
  3  4  2  0
  4  5  1  0
  5  6  2  0
  6  7  1  0
  7  8  2  0
  8  9  1  0
  9 10  1  0
 10 11  1  0
 11 12  2  0
 11 13  1  0
 13 14  1  0
 14 15  1  0
 14 16  2  0
 16 17  1  0
 17 18  2  3
 18 19  1  0
 19 20  2  0
 20 21  1  0
 21 22  2  0
 22 23  1  0
 22 24  1  0
 24 25  2  0
 25 26  1  0
 16 27  1  0
 27 28  2  0
  8  3  1  0
 27 10  1  0
 25 19  1  0
M  CHG  3  13  -1  15  -1  26  -1
M  END
>  <UniqueID>  (578) 
19

>  <SMILES>  (578) 
COc1ccccc1Cn1c(=O)[n-]c([O-])c(C=Cc2ccc(O)cc2[O-])c1=O

>  <Energy>  (578) 
57.524316872049894

>  <Genealogy>  (578) 
COc1ccccc1Cn1c(=O)[n-]c([O-])c(C=Cc2ccc(O)cc2[O-])c1=O (protonated)
COc1ccccc1Cn1c(=O)[n-]c([O-])c(C=Cc2ccc(O)cc2[O-])c1=O (3D coordinates assigned)
COc1ccccc1Cn1c(=O)[n-]c([O-])c(C=Cc2ccc(O)cc2[O-])c1=O (optimized conformer: 57.524316872049894 kcal/mol)

>  <smiles>  (578) 
COc1ccccc1Cn1c(=O)[nH]c(O)c(C=Cc2ccc(O)cc2O)c1=O

>  <score_type>  (578) 
oracle

>  <origin>  (578) 
adg

>  <m_score__min__energy>  (578) 
-16.510000000000002

>  <m_primary>  (578) 
energy

$$$$
30:0
     RDKit          3D

 25 27  0  0  0  0  0  0  0  0999 V2000
   58.2640   20.9630   46.3590 N   0  0  0  0  0  0  0  0  0  0  0  0
   58.5400   22.1770   45.1610 S   0  0  0  0  0  0  0  0  0  0  0  0
   59.9570   22.6670   45.2630 O   0  0  0  0  0  0  0  0  0  0  0  0
   58.3300   21.5910   43.7920 O   0  0  0  0  0  0  0  0  0  0  0  0
   57.4270   23.5180   45.4140 C   0  0  0  0  0  0  0  0  0  0  0  0
   56.1390   23.4790   44.8670 C   0  0  0  0  0  0  0  0  0  0  0  0
   55.2590   24.5440   45.0710 C   0  0  0  0  0  0  0  0  0  0  0  0
   55.6600   25.6570   45.8170 C   0  0  0  0  0  0  0  0  0  0  0  0
   54.7770   26.7150   45.9990 O   0  0  0  0  0  0  0  0  0  0  0  0
   56.9470   25.7080   46.3730 C   0  0  0  0  0  0  0  0  0  0  0  0
   57.3340   26.8700   47.1200 N   0  0  0  0  0  0  0  0  0  0  0  0
   58.7920   27.7770   46.8740 S   0  0  0  0  0  0  0  0  0  0  0  0
   59.4510   28.0210   48.2010 O   0  0  0  0  0  0  0  0  0  0  0  0
   59.7220   26.9810   46.0010 O   0  0  0  0  0  0  0  0  0  0  0  0
   58.4190   29.3300   46.1290 C   0  0  0  0  0  0  0  0  0  0  0  0
   57.6820   29.3840   44.9390 C   0  0  0  0  0  0  0  0  0  0  0  0
   57.3530   30.6160   44.3670 C   0  0  0  0  0  0  0  0  0  0  0  0
   57.7590   31.8100   44.9830 C   0  0  0  0  0  0  0  0  0  0  0  0
   57.4270   33.0520   44.4220 C   0  0  0  0  0  0  0  0  0  0  0  0
   57.8410   34.2340   45.0430 C   0  0  0  0  0  0  0  0  0  0  0  0
   58.5890   34.1850   46.2240 C   0  0  0  0  0  0  0  0  0  0  0  0
   58.9240   32.9530   46.7940 C   0  0  0  0  0  0  0  0  0  0  0  0
   58.5120   31.7590   46.1800 C   0  0  0  0  0  0  0  0  0  0  0  0
   58.8400   30.5170   46.7440 C   0  0  0  0  0  0  0  0  0  0  0  0
   57.8240   24.6220   46.1800 C   0  0  0  0  0  0  0  0  0  0  0  0
  1  2  1  0
  2  3  2  0
  2  4  2  0
  2  5  1  0
  5  6  2  0
  6  7  1  0
  7  8  2  0
  8  9  1  0
  8 10  1  0
 10 11  1  0
 11 12  1  0
 12 13  2  0
 12 14  2  0
 12 15  1  0
 15 16  2  0
 16 17  1  0
 17 18  2  0
 18 19  1  0
 19 20  2  0
 20 21  1  0
 21 22  2  0
 22 23  1  0
 23 24  2  0
 10 25  2  0
 25  5  1  0
 24 15  1  0
 23 18  1  0
M  CHG  3   1  -1   9  -1  11  -1
M  END
>  <UniqueID>  (579) 
31

>  <SMILES>  (579) 
[NH-]S(=O)(=O)c1ccc([O-])c([N-]S(=O)(=O)c2ccc3ccccc3c2)c1

>  <Energy>  (579) 
44.126849088820684

>  <Genealogy>  (579) 
[NH-]S(=O)(=O)c1ccc([O-])c([N-]S(=O)(=O)c2ccc3ccccc3c2)c1 (protonated)
[NH-]S(=O)(=O)c1ccc([O-])c([N-]S(=O)(=O)c2ccc3ccccc3c2)c1 (3D coordinates assigned)
[NH-]S(=O)(=O)c1ccc([O-])c([N-]S(=O)(=O)c2ccc3ccccc3c2)c1 (optimized conformer: 44.126849088820684 kcal/mol)

>  <smiles>  (579) 
NS(=O)(=O)c1ccc(O)c(NS(=O)(=O)c2ccc3ccccc3c2)c1

>  <score_type>  (579) 
oracle

>  <origin>  (579) 
adg

>  <m_score__min__energy>  (579) 
-15.92

>  <m_primary>  (579) 
energy

$$$$
31:0
     RDKit          3D

 28 30  0  0  0  0  0  0  0  0999 V2000
   54.7410   26.3180   45.9970 O   0  0  0  0  0  0  0  0  0  0  0  0
   55.8870   25.9390   46.3580 C   0  0  0  0  0  0  0  0  0  0  0  0
   56.9320   26.9540   46.6980 C   0  0  0  0  0  0  0  0  0  0  0  0
   57.3200   27.6910   45.4970 N   0  0  0  0  0  0  0  0  0  0  0  0
   56.6250   28.6520   44.8660 C   0  0  0  0  0  0  0  0  0  0  0  0
   55.3490   29.0720   45.2260 O   0  0  0  0  0  0  0  0  0  0  0  0
   57.3880   29.1500   43.8310 C   0  0  0  0  0  0  0  0  0  0  0  0
   57.0110   30.2620   42.9020 C   0  0  0  0  0  0  0  0  0  0  0  0
   57.2600   31.5850   43.5560 C   0  0  0  0  0  0  0  0  0  0  0  0
   58.0250   32.4180   43.0010 O   0  0  0  0  0  0  0  0  0  0  0  0
   56.6490   31.8890   44.8180 N   0  0  0  0  0  0  0  0  0  0  0  0
   56.9080   33.1350   45.5330 C   0  0  0  0  0  0  0  0  0  0  0  0
   58.3450   33.1960   45.9820 C   0  0  0  0  0  0  0  0  0  0  0  0
   59.0040   32.0240   46.3910 C   0  0  0  0  0  0  0  0  0  0  0  0
   60.3440   32.0720   46.7900 C   0  0  0  0  0  0  0  0  0  0  0  0
   61.0330   33.2880   46.7870 C   0  0  0  0  0  0  0  0  0  0  0  0
   60.3840   34.4570   46.3800 C   0  0  0  0  0  0  0  0  0  0  0  0
   59.0440   34.4120   45.9740 C   0  0  0  0  0  0  0  0  0  0  0  0
   58.5860   28.5270   43.8180 N   0  0  0  0  0  0  0  0  0  0  0  0
   58.5020   27.6520   44.8450 C   0  0  0  0  0  0  0  0  0  0  0  0
   59.4470   26.8810   45.1670 O   0  0  0  0  0  0  0  0  0  0  0  0
   56.1910   24.5470   46.5010 N   0  0  0  0  0  0  0  0  0  0  0  0
   56.5390   23.6310   45.4530 C   0  0  0  0  0  0  0  0  0  0  0  0
   57.6280   22.7710   45.6510 C   0  0  0  0  0  0  0  0  0  0  0  0
   58.0280   21.8890   44.6420 C   0  0  0  0  0  0  0  0  0  0  0  0
   57.3510   21.8710   43.4210 C   0  0  0  0  0  0  0  0  0  0  0  0
   56.2740   22.7370   43.2090 C   0  0  0  0  0  0  0  0  0  0  0  0
   55.8710   23.6200   44.2150 C   0  0  0  0  0  0  0  0  0  0  0  0
  1  2  2  0
  2  3  1  0
  3  4  1  0
  4  5  1  0
  5  6  1  0
  5  7  2  0
  7  8  1  0
  8  9  1  0
  9 10  2  0
  9 11  1  0
 11 12  1  0
 12 13  1  0
 13 14  2  0
 14 15  1  0
 15 16  2  0
 16 17  1  0
 17 18  2  0
  7 19  1  0
 19 20  1  0
 20 21  2  0
  2 22  1  0
 22 23  1  0
 23 24  2  0
 24 25  1  0
 25 26  2  0
 26 27  1  0
 27 28  2  0
 20  4  1  0
 28 23  1  0
 18 13  1  0
M  CHG  3   6  -1  19  -1  22  -1
M  END
>  <UniqueID>  (580) 
32

>  <SMILES>  (580) 
O=C(Cn1c([O-])c(CC(=O)NCc2ccccc2)[n-]c1=O)[N-]c1ccccc1

>  <Energy>  (580) 
72.25993379009086

>  <Genealogy>  (580) 
O=C(Cn1c([O-])c(CC(=O)NCc2ccccc2)[n-]c1=O)[N-]c1ccccc1 (protonated)
O=C(Cn1c([O-])c(CC(=O)NCc2ccccc2)[n-]c1=O)[N-]c1ccccc1 (3D coordinates assigned)
O=C(Cn1c([O-])c(CC(=O)NCc2ccccc2)[n-]c1=O)[N-]c1ccccc1 (optimized conformer: 72.25993379009086 kcal/mol)

>  <smiles>  (580) 
O=C(Cc1[nH]c(=O)n(CC(=O)Nc2ccccc2)c1O)NCc1ccccc1

>  <score_type>  (580) 
oracle

>  <origin>  (580) 
adg

>  <m_score__min__energy>  (580) 
-14.66

>  <m_primary>  (580) 
energy

$$$$
81:0
     RDKit          3D

 23 25  0  0  0  0  0  0  0  0999 V2000
   62.5150   31.3990   49.4780 C   0  0  0  0  0  0  0  0  0  0  0  0
   61.6800   30.9650   48.3150 C   0  0  0  0  0  0  0  0  0  0  0  0
   62.1500   30.8000   47.0650 N   0  0  0  0  0  0  0  0  0  0  0  0
   61.1580   30.4580   46.3000 O   0  0  0  0  0  0  0  0  0  0  0  0
   60.0410   30.3780   46.9890 C   0  0  0  0  0  0  0  0  0  0  0  0
   58.7580   29.9670   46.3870 C   0  0  0  0  0  0  0  0  0  0  0  0
   58.2510   28.6690   46.5530 C   0  0  0  0  0  0  0  0  0  0  0  0
   57.0320   28.3070   45.9550 C   0  0  0  0  0  0  0  0  0  0  0  0
   56.5000   26.9370   46.1590 C   0  0  0  0  0  0  0  0  0  0  0  0
   57.2620   25.9840   46.4740 O   0  0  0  0  0  0  0  0  0  0  0  0
   55.1430   26.6810   46.0020 O   0  0  0  0  0  0  0  0  0  0  0  0
   56.3540   29.2650   45.1700 C   0  0  0  0  0  0  0  0  0  0  0  0
   55.1430   28.9660   44.5540 O   0  0  0  0  0  0  0  0  0  0  0  0
   56.9110   30.5400   45.0050 C   0  0  0  0  0  0  0  0  0  0  0  0
   56.3260   31.4010   44.2980 O   0  0  0  0  0  0  0  0  0  0  0  0
   58.0880   30.8530   45.6060 N   0  0  0  0  0  0  0  0  0  0  0  0
   60.3170   30.7130   48.3140 C   0  0  0  0  0  0  0  0  0  0  0  0
   59.3870   30.8930   49.4470 C   0  0  0  0  0  0  0  0  0  0  0  0
   58.9580   32.1720   49.8370 C   0  0  0  0  0  0  0  0  0  0  0  0
   58.0860   32.3020   50.9200 C   0  0  0  0  0  0  0  0  0  0  0  0
   57.6640   31.1670   51.6120 C   0  0  0  0  0  0  0  0  0  0  0  0
   58.1260   29.9110   51.2110 C   0  0  0  0  0  0  0  0  0  0  0  0
   58.9710   29.8030   50.1510 N   0  0  0  0  0  0  0  0  0  0  0  0
  1  2  1  0
  2  3  2  0
  3  4  1  0
  4  5  1  0
  5  6  1  0
  6  7  2  0
  7  8  1  0
  8  9  1  0
  9 10  2  0
  9 11  1  0
  8 12  2  0
 12 13  1  0
 12 14  1  0
 14 15  2  0
 14 16  1  0
  5 17  2  0
 17 18  1  0
 18 19  2  0
 19 20  1  0
 20 21  2  0
 21 22  1  0
 22 23  2  0
 17  2  1  0
 23 18  1  0
 16  6  1  0
M  CHG  4   3   1  11  -1  13  -1  16  -1
M  END
>  <UniqueID>  (581) 
80

>  <SMILES>  (581) 
Cc1[nH+]oc(-c2cc(C(=O)[O-])c([O-])c(=O)[n-]2)c1-c1ccccn1

>  <Energy>  (581) 
76.1289724732042

>  <Genealogy>  (581) 
Cc1[nH+]oc(-c2cc(C(=O)[O-])c([O-])c(=O)[n-]2)c1-c1ccccn1 (protonated)
Cc1[nH+]oc(-c2cc(C(=O)[O-])c([O-])c(=O)[n-]2)c1-c1ccccn1 (3D coordinates assigned)
Cc1[nH+]oc(-c2cc(C(=O)[O-])c([O-])c(=O)[n-]2)c1-c1ccccn1 (optimized conformer: 76.1289724732042 kcal/mol)

>  <smiles>  (581) 
Cc1noc(-c2cc(C(=O)O)c(O)c(=O)[nH]2)c1-c1ccccn1

>  <score_type>  (581) 
oracle

>  <origin>  (581) 
adg

>  <m_score__min__energy>  (581) 
-15.210000000000001

>  <m_primary>  (581) 
energy

$$$$
92:0
     RDKit          3D

 26 28  0  0  0  0  0  0  0  0999 V2000
   59.4990   28.3680   46.8300 C   0  0  0  0  0  0  0  0  0  0  0  0
   58.6360   29.0800   46.0870 C   0  0  0  0  0  0  0  0  0  0  0  0
   57.7410   28.5930   45.1190 C   0  0  0  0  0  0  0  0  0  0  0  0
   57.3860   27.3330   44.7940 C   0  0  0  0  0  0  0  0  0  0  0  0
   57.2390   26.2100   45.7390 C   0  0  0  0  0  0  0  0  0  0  0  0
   55.9970   25.9430   46.3310 C   0  0  0  0  0  0  0  0  0  0  0  0
   54.8770   26.6980   46.0000 O   0  0  0  0  0  0  0  0  0  0  0  0
   55.8780   24.9340   47.2310 N   0  0  0  0  0  0  0  0  0  0  0  0
   56.9500   24.1790   47.5850 C   0  0  0  0  0  0  0  0  0  0  0  0
   56.7750   22.9700   48.6670 S   0  0  0  0  0  0  0  0  0  0  0  0
   58.1690   24.4360   47.0470 N   0  0  0  0  0  0  0  0  0  0  0  0
   58.3410   25.4350   46.1440 C   0  0  0  0  0  0  0  0  0  0  0  0
   59.4920   25.6600   45.6810 O   0  0  0  0  0  0  0  0  0  0  0  0
   57.2130   29.7060   44.4840 C   0  0  0  0  0  0  0  0  0  0  0  0
   57.7420   30.8140   45.1110 C   0  0  0  0  0  0  0  0  0  0  0  0
   57.4220   32.2310   44.7450 C   0  0  0  0  0  0  0  0  0  0  0  0
   58.6060   30.4380   46.0800 N   0  0  0  0  0  0  0  0  0  0  0  0
   59.3570   31.3290   46.9250 C   0  0  0  0  0  0  0  0  0  0  0  0
   58.6990   32.1520   47.8480 C   0  0  0  0  0  0  0  0  0  0  0  0
   59.4300   33.0120   48.6730 C   0  0  0  0  0  0  0  0  0  0  0  0
   60.8330   33.0590   48.5890 C   0  0  0  0  0  0  0  0  0  0  0  0
   61.6030   33.9690   49.4650 C   0  0  0  0  0  0  0  0  0  0  0  0
   61.2240   34.1970   50.6440 O   0  0  0  0  0  0  0  0  0  0  0  0
   62.7580   34.5860   48.9970 O   0  0  0  0  0  0  0  0  0  0  0  0
   61.4880   32.2290   47.6630 C   0  0  0  0  0  0  0  0  0  0  0  0
   60.7550   31.3700   46.8380 C   0  0  0  0  0  0  0  0  0  0  0  0
  1  2  2  0
  2  3  1  0
  3  4  2  3
  4  5  1  0
  5  6  2  0
  6  7  1  0
  6  8  1  0
  8  9  1  0
  9 10  2  0
  9 11  1  0
 11 12  1  0
 12 13  2  0
  3 14  1  0
 14 15  2  0
 15 16  1  0
 15 17  1  0
 17 18  1  0
 18 19  2  0
 19 20  1  0
 20 21  2  0
 21 22  1  0
 22 23  2  0
 22 24  1  0
 21 25  1  0
 25 26  2  0
 17  2  1  0
 26 18  1  0
 12  5  1  0
M  CHG  4   7  -1   8  -1  11  -1  24  -1
M  END
>  <UniqueID>  (582) 
89

>  <SMILES>  (582) 
C=c1c(=Cc2c([O-])[n-]c(=S)[n-]c2=O)cc(C)n1-c1ccc(C(=O)[O-])cc1

>  <Energy>  (582) 
89.11460628156239

>  <Genealogy>  (582) 
C=c1c(=Cc2c([O-])[n-]c(=S)[n-]c2=O)cc(C)n1-c1ccc(C(=O)[O-])cc1 (protonated)
C=c1c(=Cc2c([O-])[n-]c(=S)[n-]c2=O)cc(C)n1-c1ccc(C(=O)[O-])cc1 (3D coordinates assigned)
C=c1c(=Cc2c([O-])[n-]c(=S)[n-]c2=O)cc(C)n1-c1ccc(C(=O)[O-])cc1 (optimized conformer: 89.11460628156239 kcal/mol)

>  <smiles>  (582) 
C=c1c(=Cc2c(O)[nH]c(=S)[nH]c2=O)cc(C)n1-c1ccc(C(=O)O)cc1

>  <score_type>  (582) 
oracle

>  <origin>  (582) 
adg

>  <m_score__min__energy>  (582) 
-15.279999999999999

>  <m_primary>  (582) 
energy

$$$$
9:0
     RDKit          3D

 25 27  0  0  0  0  0  0  0  0999 V2000
   55.9110   29.8140   42.7830 O   0  0  0  0  0  0  0  0  0  0  0  0
   56.3470   29.9320   43.9620 C   0  0  0  0  0  0  0  0  0  0  0  0
   56.0040   28.9640   44.9690 N   0  0  0  0  0  0  0  0  0  0  0  0
   56.7640   28.0210   45.4480 C   0  0  0  0  0  0  0  0  0  0  0  0
   58.1240   28.1350   45.4410 N   0  0  0  0  0  0  0  0  0  0  0  0
   58.9330   27.1580   45.9310 C   0  0  0  0  0  0  0  0  0  0  0  0
   58.3780   25.9920   46.4610 C   0  0  0  0  0  0  0  0  0  0  0  0
   56.9910   25.8470   46.4820 C   0  0  0  0  0  0  0  0  0  0  0  0
   56.1750   26.8610   45.9760 C   0  0  0  0  0  0  0  0  0  0  0  0
   54.7930   26.7140   45.9980 O   0  0  0  0  0  0  0  0  0  0  0  0
   57.2150   31.0820   44.3120 C   0  0  0  0  0  0  0  0  0  0  0  0
   57.5740   32.0290   43.3360 C   0  0  0  0  0  0  0  0  0  0  0  0
   58.3810   33.1180   43.6710 C   0  0  0  0  0  0  0  0  0  0  0  0
   58.8320   33.2810   44.9810 C   0  0  0  0  0  0  0  0  0  0  0  0
   58.4830   32.3560   45.9760 C   0  0  0  0  0  0  0  0  0  0  0  0
   58.9520   32.5630   47.3200 N   0  0  0  0  0  0  0  0  0  0  0  0
   59.7550   34.0060   47.8550 S   0  0  0  0  0  0  0  0  0  0  0  0
   59.3330   35.1590   46.9870 O   0  0  0  0  0  0  0  0  0  0  0  0
   59.3690   34.2940   49.2780 O   0  0  0  0  0  0  0  0  0  0  0  0
   61.4940   33.7910   47.7730 C   0  0  0  0  0  0  0  0  0  0  0  0
   62.3230   33.5000   48.8450 C   0  0  0  0  0  0  0  0  0  0  0  0
   63.6610   33.3330   48.4700 C   0  0  0  0  0  0  0  0  0  0  0  0
   63.8810   33.4900   47.1060 C   0  0  0  0  0  0  0  0  0  0  0  0
   62.4100   33.8360   46.3650 S   0  0  0  0  0  0  0  0  0  0  0  0
   57.6840   31.2490   45.6280 C   0  0  0  0  0  0  0  0  0  0  0  0
  1  2  2  0
  2  3  1  0
  3  4  2  3
  4  5  1  0
  5  6  1  0
  6  7  2  0
  7  8  1  0
  8  9  2  0
  9 10  1  0
  2 11  1  0
 11 12  2  0
 12 13  1  0
 13 14  2  0
 14 15  1  0
 15 16  1  0
 16 17  1  0
 17 18  2  0
 17 19  2  0
 17 20  1  0
 20 21  2  0
 21 22  1  0
 22 23  2  0
 23 24  1  0
 15 25  2  0
  9  4  1  0
 25 11  1  0
 24 20  1  0
M  CHG  2   5  -1  10  -1
M  END
>  <UniqueID>  (583) 
9

>  <SMILES>  (583) 
O=C(N=c1[n-]cccc1[O-])c1cccc(NS(=O)(=O)c2cccs2)c1

>  <Energy>  (583) 
71.04319165093554

>  <Genealogy>  (583) 
O=C(N=c1[n-]cccc1[O-])c1cccc(NS(=O)(=O)c2cccs2)c1 (protonated)
O=C(N=c1[n-]cccc1[O-])c1cccc(NS(=O)(=O)c2cccs2)c1 (3D coordinates assigned)
O=C(N=c1[n-]cccc1[O-])c1cccc(NS(=O)(=O)c2cccs2)c1 (optimized conformer: 71.04319165093554 kcal/mol)

>  <smiles>  (583) 
O=C(N=c1[nH]cccc1O)c1cccc(NS(=O)(=O)c2cccs2)c1

>  <score_type>  (583) 
oracle

>  <origin>  (583) 
adg

>  <m_score__min__energy>  (583) 
-14.279999999999999

>  <m_primary>  (583) 
energy

$$$$
17:0
     RDKit          3D

 38 42  0  0  0  0  0  0  0  0999 V2000
   56.5520   29.6100   44.7180 C   0  0  0  0  0  0  0  0  0  0  0  0
   57.8090   29.1950   44.9450 C   0  0  0  0  0  0  0  0  0  0  0  0
   58.2750   27.8780   44.8740 C   0  0  0  0  0  0  0  0  0  0  0  0
   57.5590   26.7710   44.5920 C   0  0  0  0  0  0  0  0  0  0  0  0
   57.0630   25.8300   45.6160 C   0  0  0  0  0  0  0  0  0  0  0  0
   57.8300   24.8750   46.1720 N   0  0  0  0  0  0  0  0  0  0  0  0
   57.0100   24.2960   47.0750 C   0  0  0  0  0  0  0  0  0  0  0  0
   57.3730   23.3360   47.8050 O   0  0  0  0  0  0  0  0  0  0  0  0
   55.7760   24.8400   47.1470 N   0  0  0  0  0  0  0  0  0  0  0  0
   55.8280   25.8170   46.2270 C   0  0  0  0  0  0  0  0  0  0  0  0
   54.7890   26.7100   45.9930 O   0  0  0  0  0  0  0  0  0  0  0  0
   59.6170   27.9240   45.2380 C   0  0  0  0  0  0  0  0  0  0  0  0
   59.9160   29.2450   45.4960 C   0  0  0  0  0  0  0  0  0  0  0  0
   61.2470   29.7420   45.9740 C   0  0  0  0  0  0  0  0  0  0  0  0
   58.8230   30.0180   45.3200 N   0  0  0  0  0  0  0  0  0  0  0  0
   58.7320   31.4210   45.6200 C   0  0  0  0  0  0  0  0  0  0  0  0
   58.1910   32.3150   44.6880 C   0  0  0  0  0  0  0  0  0  0  0  0
   58.1090   33.6770   44.9910 C   0  0  0  0  0  0  0  0  0  0  0  0
   58.5530   34.1520   46.2280 C   0  0  0  0  0  0  0  0  0  0  0  0
   59.1210   33.2700   47.1680 C   0  0  0  0  0  0  0  0  0  0  0  0
   59.5650   33.7420   48.5050 C   0  0  0  0  0  0  0  0  0  0  0  0
   58.8450   33.5080   49.5070 O   0  0  0  0  0  0  0  0  0  0  0  0
   60.7430   34.5390   48.6910 N   0  0  0  0  0  0  0  0  0  0  0  0
   62.0810   34.0760   48.9070 C   0  0  0  0  0  0  0  0  0  0  0  0
   62.8260   33.4480   47.8960 C   0  0  0  0  0  0  0  0  0  0  0  0
   64.1130   32.9680   48.1660 C   0  0  0  0  0  0  0  0  0  0  0  0
   64.6720   33.1120   49.4470 C   0  0  0  0  0  0  0  0  0  0  0  0
   66.0490   32.5800   49.7520 C   0  0  0  0  0  0  0  0  0  0  0  0
   66.2630   32.3030   51.2500 C   0  0  0  0  0  0  0  0  0  0  0  0
   67.6790   32.5430   51.6310 N   0  0  0  0  0  0  0  0  0  0  0  0
   68.4070   33.3890   50.6550 C   0  0  0  0  0  0  0  0  0  0  0  0
   68.1420   34.8980   50.8700 C   0  0  0  0  0  0  0  0  0  0  0  0
   67.0640   35.1140   51.7600 O   0  0  0  0  0  0  0  0  0  0  0  0
   67.3890   34.6010   53.0390 C   0  0  0  0  0  0  0  0  0  0  0  0
   67.8140   33.1110   52.9890 C   0  0  0  0  0  0  0  0  0  0  0  0
   63.9260   33.7500   50.4490 C   0  0  0  0  0  0  0  0  0  0  0  0
   62.6370   34.2110   50.1850 C   0  0  0  0  0  0  0  0  0  0  0  0
   59.1970   31.9020   46.8550 C   0  0  0  0  0  0  0  0  0  0  0  0
  1  2  2  0
  2  3  1  0
  3  4  2  3
  4  5  1  0
  5  6  1  0
  6  7  1  0
  7  8  2  0
  7  9  1  0
  9 10  1  0
 10 11  1  0
  3 12  1  0
 12 13  2  0
 13 14  1  0
 13 15  1  0
 15 16  1  0
 16 17  2  0
 17 18  1  0
 18 19  2  0
 19 20  1  0
 20 21  1  0
 21 22  2  0
 21 23  1  0
 23 24  1  0
 24 25  2  0
 25 26  1  0
 26 27  2  0
 27 28  1  0
 28 29  1  0
 29 30  1  0
 30 31  1  0
 31 32  1  0
 32 33  1  0
 33 34  1  0
 34 35  1  0
 27 36  1  0
 36 37  2  0
 20 38  2  0
 15  2  1  0
 38 16  1  0
 10  5  2  0
 37 24  1  0
 35 30  1  0
M  CHG  4   6  -1   9  -1  11  -1  23  -1
M  END
>  <UniqueID>  (584) 
17

>  <SMILES>  (584) 
C=c1c(=Cc2[n-]c(=O)[n-]c2[O-])cc(C)n1-c1cccc(C(=O)[N-]c2ccc(CCN3CCOCC3)cc2)c1

>  <Energy>  (584) 
160.4638877780137

>  <Genealogy>  (584) 
C=c1c(=Cc2[n-]c(=O)[n-]c2[O-])cc(C)n1-c1cccc(C(=O)[N-]c2ccc(CCN3CCOCC3)cc2)c1 (protonated)
C=c1c(=Cc2[n-]c(=O)[n-]c2[O-])cc(C)n1-c1cccc(C(=O)[N-]c2ccc(CCN3CCOCC3)cc2)c1 (3D coordinates assigned)
C=c1c(=Cc2[n-]c(=O)[n-]c2[O-])cc(C)n1-c1cccc(C(=O)[N-]c2ccc(CCN3CCOCC3)cc2)c1 (nonaromatic ring conformer: 160.4638877780137 kcal/mol)

>  <smiles>  (584) 
C=c1c(=Cc2[nH]c(=O)[nH]c2O)cc(C)n1-c1cccc(C(=O)Nc2ccc(CCN3CCOCC3)cc2)c1

>  <score_type>  (584) 
oracle

>  <origin>  (584) 
adg

>  <m_score__min__energy>  (584) 
-20.27

>  <m_primary>  (584) 
energy

$$$$
25:0
     RDKit          3D

 24 25  0  0  0  0  0  0  0  0999 V2000
   58.6920   30.8170   47.3150 O   0  0  0  0  0  0  0  0  0  0  0  0
   58.3940   31.8930   46.4750 C   0  0  0  0  0  0  0  0  0  0  0  0
   58.4980   33.1950   46.9880 C   0  0  0  0  0  0  0  0  0  0  0  0
   58.8970   33.3580   48.3240 O   0  0  0  0  0  0  0  0  0  0  0  0
   60.2420   33.5520   48.7480 C   0  0  0  0  0  0  0  0  0  0  0  0
   58.2030   34.2930   46.1570 C   0  0  0  0  0  0  0  0  0  0  0  0
   57.8020   34.0890   44.8350 C   0  0  0  0  0  0  0  0  0  0  0  0
   57.6950   32.7950   44.3260 C   0  0  0  0  0  0  0  0  0  0  0  0
   58.0030   31.6900   45.1330 C   0  0  0  0  0  0  0  0  0  0  0  0
   57.8430   30.3310   44.5850 C   0  0  0  0  0  0  0  0  0  0  0  0
   58.8490   29.4710   44.3650 C   0  0  0  0  0  0  0  0  0  0  0  0
   59.8130   28.9830   45.3840 C   0  0  0  0  0  0  0  0  0  0  0  0
   61.0210   29.3360   45.3530 O   0  0  0  0  0  0  0  0  0  0  0  0
   59.4060   28.0430   46.3870 N   0  0  0  0  0  0  0  0  0  0  0  0
   58.4420   26.9940   46.2250 C   0  0  0  0  0  0  0  0  0  0  0  0
   58.8310   25.6670   45.9920 C   0  0  0  0  0  0  0  0  0  0  0  0
   57.8680   24.6730   45.8010 C   0  0  0  0  0  0  0  0  0  0  0  0
   56.4950   24.9860   45.8230 C   0  0  0  0  0  0  0  0  0  0  0  0
   55.4930   23.9090   45.6200 C   0  0  0  0  0  0  0  0  0  0  0  0
   54.7240   23.5710   46.5590 O   0  0  0  0  0  0  0  0  0  0  0  0
   55.3810   23.2530   44.4000 O   0  0  0  0  0  0  0  0  0  0  0  0
   56.1100   26.3300   46.0310 C   0  0  0  0  0  0  0  0  0  0  0  0
   54.7700   26.7020   46.0510 O   0  0  0  0  0  0  0  0  0  0  0  0
   57.0820   27.3190   46.2190 C   0  0  0  0  0  0  0  0  0  0  0  0
  1  2  1  0
  2  3  2  0
  3  4  1  0
  4  5  1  0
  3  6  1  0
  6  7  2  0
  7  8  1  0
  8  9  2  0
  9 10  1  0
 10 11  2  0
 11 12  1  0
 12 13  2  0
 12 14  1  0
 14 15  1  0
 15 16  2  0
 16 17  1  0
 17 18  2  0
 18 19  1  0
 19 20  2  0
 19 21  1  0
 18 22  1  0
 22 23  1  0
 22 24  2  0
  9  2  1  0
 24 15  1  0
M  CHG  3  14  -1  21  -1  23  -1
M  END
>  <UniqueID>  (585) 
25

>  <SMILES>  (585) 
COc1cccc(/C=C\C(=O)[N-]c2ccc(C(=O)[O-])c([O-])c2)c1O

>  <Energy>  (585) 
53.21514930943058

>  <Genealogy>  (585) 
COc1cccc(C=CC(=O)[N-]c2ccc(C(=O)[O-])c([O-])c2)c1O (protonated)
COc1cccc(/C=C\C(=O)[N-]c2ccc(C(=O)[O-])c([O-])c2)c1O (cis-trans isomerization)
COc1cccc(/C=C\C(=O)[N-]c2ccc(C(=O)[O-])c([O-])c2)c1O (3D coordinates assigned)
COc1cccc(/C=C\C(=O)[N-]c2ccc(C(=O)[O-])c([O-])c2)c1O (optimized conformer: 53.21514930943058 kcal/mol)

>  <smiles>  (585) 
COc1cccc(C=CC(=O)Nc2ccc(C(=O)O)c(O)c2)c1O

>  <score_type>  (585) 
oracle

>  <origin>  (585) 
adg

>  <m_score__min__energy>  (585) 
-14.08

>  <m_primary>  (585) 
energy

$$$$
32:0
     RDKit          3D

 33 35  0  0  0  0  0  0  0  0999 V2000
   55.1180   24.4610   46.8730 O   0  0  0  0  0  0  0  0  0  0  0  0
   55.5040   25.2710   45.9900 C   0  0  0  0  0  0  0  0  0  0  0  0
   55.7180   24.7980   44.5840 C   0  0  0  0  0  0  0  0  0  0  0  0
   55.2130   23.3590   44.4110 C   0  0  0  0  0  0  0  0  0  0  0  0
   56.2610   22.4160   43.8660 C   0  0  0  0  0  0  0  0  0  0  0  0
   55.9470   21.6070   42.9480 O   0  0  0  0  0  0  0  0  0  0  0  0
   57.6250   22.4480   44.3530 N   0  0  0  0  0  0  0  0  0  0  0  0
   57.9690   23.2130   45.5640 C   0  0  0  0  0  0  0  0  0  0  0  0
   59.4770   23.4600   45.6600 C   0  0  0  0  0  0  0  0  0  0  0  0
   60.2000   22.2680   45.4390 O   0  0  0  0  0  0  0  0  0  0  0  0
   60.0190   21.8580   44.1020 C   0  0  0  0  0  0  0  0  0  0  0  0
   58.5690   21.4370   43.8540 C   0  0  0  0  0  0  0  0  0  0  0  0
   55.6930   26.6530   46.3110 N   0  0  0  0  0  0  0  0  0  0  0  0
   56.7380   27.4780   45.7780 C   0  0  0  0  0  0  0  0  0  0  0  0
   58.0650   27.1230   46.0350 C   0  0  0  0  0  0  0  0  0  0  0  0
   59.1260   27.8880   45.5250 C   0  0  0  0  0  0  0  0  0  0  0  0
   60.4940   27.4890   45.7520 N   0  0  0  0  0  0  0  0  0  0  0  0
   61.4370   28.1010   45.2070 O   0  0  0  0  0  0  0  0  0  0  0  0
   60.7870   26.4560   46.6130 O   0  0  0  0  0  0  0  0  0  0  0  0
   58.8360   29.0420   44.7790 C   0  0  0  0  0  0  0  0  0  0  0  0
   57.5070   29.4470   44.5500 C   0  0  0  0  0  0  0  0  0  0  0  0
   57.2420   30.6980   43.7920 C   0  0  0  0  0  0  0  0  0  0  0  0
   56.5030   30.6740   42.7690 O   0  0  0  0  0  0  0  0  0  0  0  0
   57.8150   31.9050   44.2000 O   0  0  0  0  0  0  0  0  0  0  0  0
   57.1160   32.8720   44.9740 C   0  0  0  0  0  0  0  0  0  0  0  0
   58.0620   33.4820   45.9670 C   0  0  0  0  0  0  0  0  0  0  0  0
   58.2190   32.9060   47.2410 C   0  0  0  0  0  0  0  0  0  0  0  0
   59.1320   33.4470   48.1520 C   0  0  0  0  0  0  0  0  0  0  0  0
   59.9020   34.5610   47.7950 C   0  0  0  0  0  0  0  0  0  0  0  0
   59.7630   35.1300   46.5230 C   0  0  0  0  0  0  0  0  0  0  0  0
   58.8520   34.5900   45.6080 C   0  0  0  0  0  0  0  0  0  0  0  0
   56.4540   28.6560   45.0610 C   0  0  0  0  0  0  0  0  0  0  0  0
   55.1290   29.0430   44.8810 O   0  0  0  0  0  0  0  0  0  0  0  0
  1  2  2  0
  2  3  1  0
  3  4  1  0
  4  5  1  0
  5  6  2  0
  5  7  1  0
  7  8  1  0
  8  9  1  0
  9 10  1  0
 10 11  1  0
 11 12  1  0
  2 13  1  0
 13 14  1  0
 14 15  2  0
 15 16  1  0
 16 17  1  0
 17 18  2  0
 17 19  1  0
 16 20  2  0
 20 21  1  0
 21 22  1  0
 22 23  2  0
 22 24  1  0
 24 25  1  0
 25 26  1  0
 26 27  2  0
 27 28  1  0
 28 29  2  0
 29 30  1  0
 30 31  2  0
 21 32  2  0
 32 33  1  0
 12  7  1  0
 32 14  1  0
 31 26  1  0
M  CHG  4  13  -1  17   1  19  -1  33  -1
M  END
>  <UniqueID>  (586) 
32

>  <SMILES>  (586) 
O=C(CCC(=O)N1CCOCC1)[N-]c1cc([N+](=O)[O-])cc(C(=O)OCc2ccccc2)c1[O-]

>  <Energy>  (586) 
62.014924869214795

>  <Genealogy>  (586) 
O=C(CCC(=O)N1CCOCC1)[N-]c1cc([N+](=O)[O-])cc(C(=O)OCc2ccccc2)c1[O-] (protonated)
O=C(CCC(=O)N1CCOCC1)[N-]c1cc([N+](=O)[O-])cc(C(=O)OCc2ccccc2)c1[O-] (3D coordinates assigned)
O=C(CCC(=O)N1CCOCC1)[N-]c1cc([N+](=O)[O-])cc(C(=O)OCc2ccccc2)c1[O-] (nonaromatic ring conformer: 62.014924869214795 kcal/mol)

>  <smiles>  (586) 
O=C(CCC(=O)N1CCOCC1)Nc1cc([N+](=O)[O-])cc(C(=O)OCc2ccccc2)c1O

>  <score_type>  (586) 
oracle

>  <origin>  (586) 
adg

>  <m_score__min__energy>  (586) 
-15.49

>  <m_primary>  (586) 
energy

$$$$
61:0
     RDKit          3D

 26 28  0  0  0  0  0  0  0  0999 V2000
   59.1840   28.5150   45.7880 C   0  0  0  0  0  0  0  0  0  0  0  0
   58.6760   29.7430   45.5000 N   0  0  0  0  0  0  0  0  0  0  0  0
   57.3560   29.9300   45.2080 C   0  0  0  0  0  0  0  0  0  0  0  0
   56.8920   31.1140   44.9260 N   0  0  0  0  0  0  0  0  0  0  0  0
   57.6570   32.2300   44.4430 C   0  0  0  0  0  0  0  0  0  0  0  0
   57.6350   32.4850   43.2100 O   0  0  0  0  0  0  0  0  0  0  0  0
   58.4130   33.1250   45.3540 C   0  0  0  0  0  0  0  0  0  0  0  0
   58.8490   34.3830   44.9060 C   0  0  0  0  0  0  0  0  0  0  0  0
   59.5470   35.2350   45.7640 C   0  0  0  0  0  0  0  0  0  0  0  0
   59.8050   34.8480   47.0810 C   0  0  0  0  0  0  0  0  0  0  0  0
   59.3540   33.6080   47.5520 C   0  0  0  0  0  0  0  0  0  0  0  0
   59.6250   33.1440   49.2330 S   0  0  0  0  0  0  0  0  0  0  0  0
   59.7310   34.3860   50.0750 O   0  0  0  0  0  0  0  0  0  0  0  0
   58.4300   32.3670   49.7130 O   0  0  0  0  0  0  0  0  0  0  0  0
   61.0640   32.1670   49.4460 N   0  0  0  0  0  0  0  0  0  0  0  0
   62.2350   32.9470   49.8880 C   0  0  0  0  0  0  0  0  0  0  0  0
   62.9380   33.7100   48.7430 C   0  0  0  0  0  0  0  0  0  0  0  0
   62.4740   33.2710   47.4140 N   0  0  0  0  0  0  0  0  0  0  0  0
   63.3420   33.8120   46.3600 C   0  0  0  0  0  0  0  0  0  0  0  0
   62.4250   31.8050   47.3500 C   0  0  0  0  0  0  0  0  0  0  0  0
   61.3340   31.2740   48.2980 C   0  0  0  0  0  0  0  0  0  0  0  0
   58.6630   32.7480   46.6850 C   0  0  0  0  0  0  0  0  0  0  0  0
   56.4940   28.8240   45.1830 C   0  0  0  0  0  0  0  0  0  0  0  0
   55.1460   28.9780   44.8740 O   0  0  0  0  0  0  0  0  0  0  0  0
   56.9990   27.5540   45.4750 C   0  0  0  0  0  0  0  0  0  0  0  0
   58.3510   27.3960   45.7820 C   0  0  0  0  0  0  0  0  0  0  0  0
  1  2  1  0
  2  3  1  0
  3  4  2  0
  4  5  1  0
  5  6  2  0
  5  7  1  0
  7  8  2  0
  8  9  1  0
  9 10  2  0
 10 11  1  0
 11 12  1  0
 12 13  2  0
 12 14  2  0
 12 15  1  0
 15 16  1  0
 16 17  1  0
 17 18  1  0
 18 19  1  0
 18 20  1  0
 20 21  1  0
 11 22  2  0
  3 23  1  0
 23 24  1  0
 23 25  2  0
 25 26  1  0
 26  1  2  0
 22  7  1  0
 21 15  1  0
M  CHG  2   2  -1  24  -1
M  END
>  <UniqueID>  (587) 
60

>  <SMILES>  (587) 
CN1CCN(S(=O)(=O)c2cccc(C(=O)/N=c3\[n-]cccc3[O-])c2)CC1

>  <Energy>  (587) 
62.24322655538311

>  <Genealogy>  (587) 
CN1CCN(S(=O)(=O)c2cccc(C(=O)N=c3[n-]cccc3[O-])c2)CC1 (protonated)
CN1CCN(S(=O)(=O)c2cccc(C(=O)/N=c3\[n-]cccc3[O-])c2)CC1 (cis-trans isomerization)
CN1CCN(S(=O)(=O)c2cccc(C(=O)/N=c3\[n-]cccc3[O-])c2)CC1 (3D coordinates assigned)
CN1CCN(S(=O)(=O)c2cccc(C(=O)/N=c3\[n-]cccc3[O-])c2)CC1 (nonaromatic ring conformer: 62.24322655538311 kcal/mol)

>  <smiles>  (587) 
CN1CCN(S(=O)(=O)c2cccc(C(=O)N=c3[nH]cccc3O)c2)CC1

>  <score_type>  (587) 
oracle

>  <origin>  (587) 
adg

>  <m_score__min__energy>  (587) 
-14.57

>  <m_primary>  (587) 
energy

$$$$
94:0
     RDKit          3D

 22 23  0  0  0  0  0  0  0  0999 V2000
   56.3550   24.2100   45.9860 C   0  0  0  0  0  0  0  0  0  0  0  0
   57.1870   24.4750   45.0250 N   0  0  0  0  0  0  0  0  0  0  0  0
   58.4990   25.0790   45.2500 C   0  0  0  0  0  0  0  0  0  0  0  0
   58.4630   26.0710   46.4190 C   0  0  0  0  0  0  0  0  0  0  0  0
   58.0870   27.4610   45.9690 C   0  0  0  0  0  0  0  0  0  0  0  0
   59.0450   28.4850   45.9660 C   0  0  0  0  0  0  0  0  0  0  0  0
   58.6870   29.7870   45.6010 C   0  0  0  0  0  0  0  0  0  0  0  0
   57.3590   30.0830   45.2380 C   0  0  0  0  0  0  0  0  0  0  0  0
   56.9550   31.3760   44.8700 O   0  0  0  0  0  0  0  0  0  0  0  0
   57.4930   32.1060   43.7730 C   0  0  0  0  0  0  0  0  0  0  0  0
   56.4030   29.0580   45.2450 C   0  0  0  0  0  0  0  0  0  0  0  0
   55.0860   29.3330   44.8960 O   0  0  0  0  0  0  0  0  0  0  0  0
   56.7630   27.7570   45.6070 C   0  0  0  0  0  0  0  0  0  0  0  0
   54.9240   23.9200   45.7200 C   0  0  0  0  0  0  0  0  0  0  0  0
   54.0050   24.9810   45.6240 C   0  0  0  0  0  0  0  0  0  0  0  0
   54.4190   26.2990   45.7750 O   0  0  0  0  0  0  0  0  0  0  0  0
   52.6940   24.7270   45.3750 N   0  0  0  0  0  0  0  0  0  0  0  0
   52.2430   23.4590   45.2150 C   0  0  0  0  0  0  0  0  0  0  0  0
   50.6610   23.1880   44.9160 S   0  0  0  0  0  0  0  0  0  0  0  0
   53.1040   22.4150   45.3010 N   0  0  0  0  0  0  0  0  0  0  0  0
   54.4260   22.6100   45.5470 C   0  0  0  0  0  0  0  0  0  0  0  0
   55.1850   21.6080   45.6230 O   0  0  0  0  0  0  0  0  0  0  0  0
  1  2  2  0
  2  3  1  0
  3  4  1  0
  4  5  1  0
  5  6  2  0
  6  7  1  0
  7  8  2  0
  8  9  1  0
  9 10  1  0
  8 11  1  0
 11 12  1  0
 11 13  2  0
  1 14  1  0
 14 15  2  0
 15 16  1  0
 15 17  1  0
 17 18  1  0
 18 19  2  0
 18 20  1  0
 20 21  1  0
 21 22  2  0
 13  5  1  0
 21 14  1  0
M  CHG  4  12  -1  16  -1  17  -1  20  -1
M  END
>  <UniqueID>  (588) 
88

>  <SMILES>  (588) 
COc1ccc(CC/N=C/c2c([O-])[n-]c(=S)[n-]c2=O)cc1[O-]

>  <Energy>  (588) 
32.182579507728576

>  <Genealogy>  (588) 
COc1ccc(CCN=Cc2c([O-])[n-]c(=S)[n-]c2=O)cc1[O-] (protonated)
COc1ccc(CC/N=C/c2c([O-])[n-]c(=S)[n-]c2=O)cc1[O-] (cis-trans isomerization)
COc1ccc(CC/N=C/c2c([O-])[n-]c(=S)[n-]c2=O)cc1[O-] (3D coordinates assigned)
COc1ccc(CC/N=C/c2c([O-])[n-]c(=S)[n-]c2=O)cc1[O-] (optimized conformer: 32.182579507728576 kcal/mol)

>  <smiles>  (588) 
COc1ccc(CCN=Cc2c(O)[nH]c(=S)[nH]c2=O)cc1O

>  <score_type>  (588) 
oracle

>  <origin>  (588) 
adg

>  <m_score__min__energy>  (588) 
-17.210000000000001

>  <m_primary>  (588) 
energy

$$$$
0:0
     RDKit          3D

 33 36  0  0  0  0  0  0  0  0999 V2000
   54.8220   25.8890   45.6200 N   0  0  0  0  0  0  0  0  0  0  0  0
   55.5250   24.5750   46.4980 S   0  0  0  0  0  0  0  0  0  0  0  0
   56.5330   25.1010   47.4790 O   0  0  0  0  0  0  0  0  0  0  0  0
   54.4290   23.8740   47.2520 O   0  0  0  0  0  0  0  0  0  0  0  0
   56.3090   23.4450   45.3820 C   0  0  0  0  0  0  0  0  0  0  0  0
   55.6740   22.2230   45.1000 C   0  0  0  0  0  0  0  0  0  0  0  0
   56.2360   21.3240   44.1920 C   0  0  0  0  0  0  0  0  0  0  0  0
   57.4350   21.6310   43.5520 C   0  0  0  0  0  0  0  0  0  0  0  0
   58.0850   22.8360   43.8270 C   0  0  0  0  0  0  0  0  0  0  0  0
   57.5410   23.7460   44.7480 C   0  0  0  0  0  0  0  0  0  0  0  0
   58.2840   24.9920   45.0250 C   0  0  0  0  0  0  0  0  0  0  0  0
   58.0600   26.1380   44.2480 C   0  0  0  0  0  0  0  0  0  0  0  0
   58.7660   27.3160   44.5130 C   0  0  0  0  0  0  0  0  0  0  0  0
   59.6870   27.3680   45.5700 C   0  0  0  0  0  0  0  0  0  0  0  0
   60.4760   28.6180   45.8260 C   0  0  0  0  0  0  0  0  0  0  0  0
   60.5670   28.8440   47.2630 N   0  0  0  0  0  0  0  0  0  0  0  0
   60.3020   30.0890   47.9200 C   0  0  0  0  0  0  0  0  0  0  0  0
   61.2600   30.7040   48.4570 O   0  0  0  0  0  0  0  0  0  0  0  0
   58.9260   30.6970   47.9760 C   0  0  0  0  0  0  0  0  0  0  0  0
   58.2670   30.5790   46.6700 N   0  0  0  0  0  0  0  0  0  0  0  0
   57.3880   29.5880   46.4970 N   0  0  0  0  0  0  0  0  0  0  0  0
   56.7420   29.3830   45.3230 C   0  0  0  0  0  0  0  0  0  0  0  0
   55.9210   28.4310   45.2270 O   0  0  0  0  0  0  0  0  0  0  0  0
   56.9970   30.2310   44.2350 C   0  0  0  0  0  0  0  0  0  0  0  0
   56.3530   30.0590   42.9950 C   0  0  0  0  0  0  0  0  0  0  0  0
   56.6340   30.9200   41.9310 C   0  0  0  0  0  0  0  0  0  0  0  0
   57.5560   31.9560   42.0910 C   0  0  0  0  0  0  0  0  0  0  0  0
   58.2020   32.1380   43.3160 C   0  0  0  0  0  0  0  0  0  0  0  0
   57.9310   31.2790   44.3990 C   0  0  0  0  0  0  0  0  0  0  0  0
   58.5660   31.4350   45.6430 C   0  0  0  0  0  0  0  0  0  0  0  0
   59.4110   32.3590   45.8120 O   0  0  0  0  0  0  0  0  0  0  0  0
   59.9080   26.2200   46.3480 C   0  0  0  0  0  0  0  0  0  0  0  0
   59.2020   25.0430   46.0830 C   0  0  0  0  0  0  0  0  0  0  0  0
  1  2  1  0
  2  3  2  0
  2  4  2  0
  2  5  1  0
  5  6  2  0
  6  7  1  0
  7  8  2  0
  8  9  1  0
  9 10  2  0
 10 11  1  0
 11 12  2  0
 12 13  1  0
 13 14  2  0
 14 15  1  0
 15 16  1  0
 16 17  1  0
 17 18  2  0
 17 19  1  0
 19 20  1  0
 20 21  1  0
 21 22  1  0
 22 23  2  0
 22 24  1  0
 24 25  2  0
 25 26  1  0
 26 27  2  0
 27 28  1  0
 28 29  2  0
 29 30  1  0
 30 31  2  0
 14 32  1  0
 32 33  2  0
 10  5  1  0
 33 11  1  0
 30 20  1  0
 29 24  1  0
M  CHG  3   1  -1  16  -1  21  -1
M  END
>  <UniqueID>  (589) 
1

>  <SMILES>  (589) 
[NH-]S(=O)(=O)c1ccccc1-c1ccc(C[N-]C(=O)Cn2[n-]c(=O)c3ccccc3c2=O)cc1

>  <Energy>  (589) 
67.56374956024416

>  <Genealogy>  (589) 
[NH-]S(=O)(=O)c1ccccc1-c1ccc(C[N-]C(=O)Cn2[n-]c(=O)c3ccccc3c2=O)cc1 (protonated)
[NH-]S(=O)(=O)c1ccccc1-c1ccc(C[N-]C(=O)Cn2[n-]c(=O)c3ccccc3c2=O)cc1 (3D coordinates assigned)
[NH-]S(=O)(=O)c1ccccc1-c1ccc(C[N-]C(=O)Cn2[n-]c(=O)c3ccccc3c2=O)cc1 (optimized conformer: 67.56374956024416 kcal/mol)

>  <smiles>  (589) 
NS(=O)(=O)c1ccccc1-c1ccc(CNC(=O)Cn2[nH]c(=O)c3ccccc3c2=O)cc1

>  <score_type>  (589) 
oracle

>  <origin>  (589) 
adg

>  <m_score__min__energy>  (589) 
-14.050000000000001

>  <m_primary>  (589) 
energy

$$$$
11:0
     RDKit          3D

 26 28  0  0  0  0  0  0  0  0999 V2000
   56.3770   21.0090   43.2970 O   0  0  0  0  0  0  0  0  0  0  0  0
   56.7010   22.2170   43.9100 C   0  0  0  0  0  0  0  0  0  0  0  0
   55.7560   23.2470   43.9490 C   0  0  0  0  0  0  0  0  0  0  0  0
   56.0670   24.4640   44.5620 C   0  0  0  0  0  0  0  0  0  0  0  0
   57.3240   24.6570   45.1630 C   0  0  0  0  0  0  0  0  0  0  0  0
   57.6930   25.9370   45.8100 C   0  0  0  0  0  0  0  0  0  0  0  0
   56.8830   26.9990   45.9410 C   0  0  0  0  0  0  0  0  0  0  0  0
   57.3060   28.4130   45.7930 C   0  0  0  0  0  0  0  0  0  0  0  0
   56.4240   29.3440   45.2390 C   0  0  0  0  0  0  0  0  0  0  0  0
   55.1460   28.9640   44.8420 O   0  0  0  0  0  0  0  0  0  0  0  0
   56.8070   30.6340   45.0970 N   0  0  0  0  0  0  0  0  0  0  0  0
   58.0400   31.0560   45.4690 C   0  0  0  0  0  0  0  0  0  0  0  0
   58.3350   32.2730   45.3200 O   0  0  0  0  0  0  0  0  0  0  0  0
   58.9470   30.1710   45.9980 N   0  0  0  0  0  0  0  0  0  0  0  0
   60.3050   30.6210   46.3690 C   0  0  0  0  0  0  0  0  0  0  0  0
   60.2340   31.7700   47.3420 C   0  0  0  0  0  0  0  0  0  0  0  0
   61.0520   32.8980   47.1650 C   0  0  0  0  0  0  0  0  0  0  0  0
   61.0080   33.9530   48.0830 C   0  0  0  0  0  0  0  0  0  0  0  0
   60.1490   33.8880   49.1830 C   0  0  0  0  0  0  0  0  0  0  0  0
   59.3340   32.7680   49.3680 C   0  0  0  0  0  0  0  0  0  0  0  0
   58.5030   32.7060   50.4380 F   0  0  0  0  0  0  0  0  0  0  0  0
   59.3750   31.7110   48.4530 C   0  0  0  0  0  0  0  0  0  0  0  0
   58.5980   28.8490   46.1410 C   0  0  0  0  0  0  0  0  0  0  0  0
   59.4410   28.0140   46.5710 O   0  0  0  0  0  0  0  0  0  0  0  0
   58.2790   23.6290   45.0950 C   0  0  0  0  0  0  0  0  0  0  0  0
   57.9660   22.4130   44.4810 C   0  0  0  0  0  0  0  0  0  0  0  0
  1  2  1  0
  2  3  2  0
  3  4  1  0
  4  5  2  0
  5  6  1  0
  6  7  2  0
  7  8  1  0
  8  9  2  0
  9 10  1  0
  9 11  1  0
 11 12  1  0
 12 13  2  0
 12 14  1  0
 14 15  1  0
 15 16  1  0
 16 17  2  0
 17 18  1  0
 18 19  2  0
 19 20  1  0
 20 21  1  0
 20 22  2  0
 14 23  1  0
 23 24  2  0
  5 25  1  0
 25 26  2  0
 26  2  1  0
 23  8  1  0
 22 16  1  0
M  CHG  2  10  -1  11  -1
M  END
>  <UniqueID>  (590) 
12

>  <SMILES>  (590) 
O=c1[n-]c([O-])c(/C=C\c2ccc(O)cc2)c(=O)n1Cc1cccc(F)c1

>  <Energy>  (590) 
56.9524022160307

>  <Genealogy>  (590) 
O=c1[n-]c([O-])c(C=Cc2ccc(O)cc2)c(=O)n1Cc1cccc(F)c1 (protonated)
O=c1[n-]c([O-])c(/C=C\c2ccc(O)cc2)c(=O)n1Cc1cccc(F)c1 (cis-trans isomerization)
O=c1[n-]c([O-])c(/C=C\c2ccc(O)cc2)c(=O)n1Cc1cccc(F)c1 (3D coordinates assigned)
O=c1[n-]c([O-])c(/C=C\c2ccc(O)cc2)c(=O)n1Cc1cccc(F)c1 (optimized conformer: 56.9524022160307 kcal/mol)

>  <smiles>  (590) 
O=c1[nH]c(O)c(C=Cc2ccc(O)cc2)c(=O)n1Cc1cccc(F)c1

>  <score_type>  (590) 
oracle

>  <origin>  (590) 
adg

>  <m_score__min__energy>  (590) 
-14.119999999999999

>  <m_primary>  (590) 
energy

$$$$
14:0
     RDKit          3D

 27 29  0  0  0  0  0  0  0  0999 V2000
   59.4010   34.9710   44.8380 O   0  0  0  0  0  0  0  0  0  0  0  0
   59.0070   33.9060   45.3880 C   0  0  0  0  0  0  0  0  0  0  0  0
   57.6750   33.4160   45.1560 N   0  0  0  0  0  0  0  0  0  0  0  0
   57.3540   32.3500   44.4850 C   0  0  0  0  0  0  0  0  0  0  0  0
   56.6620   31.3060   44.9930 N   0  0  0  0  0  0  0  0  0  0  0  0
   56.4750   30.3330   44.0600 C   0  0  0  0  0  0  0  0  0  0  0  0
   57.0180   30.6040   42.8080 C   0  0  0  0  0  0  0  0  0  0  0  0
   57.7600   32.1140   42.8740 S   0  0  0  0  0  0  0  0  0  0  0  0
   59.9240   33.1550   46.2790 C   0  0  0  0  0  0  0  0  0  0  0  0
   61.1580   33.7120   46.6660 C   0  0  0  0  0  0  0  0  0  0  0  0
   62.0170   33.0090   47.5140 C   0  0  0  0  0  0  0  0  0  0  0  0
   61.6600   31.7440   47.9830 C   0  0  0  0  0  0  0  0  0  0  0  0
   60.4420   31.1710   47.6020 C   0  0  0  0  0  0  0  0  0  0  0  0
   59.9880   29.5840   48.2220 S   0  0  0  0  0  0  0  0  0  0  0  0
   60.6720   29.3280   49.5370 O   0  0  0  0  0  0  0  0  0  0  0  0
   58.5020   29.5510   48.4460 O   0  0  0  0  0  0  0  0  0  0  0  0
   60.4200   28.3490   47.0820 N   0  0  0  0  0  0  0  0  0  0  0  0
   59.4660   28.3370   45.9760 C   0  0  0  0  0  0  0  0  0  0  0  0
   58.4650   27.2410   46.2000 C   0  0  0  0  0  0  0  0  0  0  0  0
   58.8790   25.9930   46.6910 C   0  0  0  0  0  0  0  0  0  0  0  0
   57.9400   24.9850   46.9320 C   0  0  0  0  0  0  0  0  0  0  0  0
   56.5820   25.2190   46.6960 C   0  0  0  0  0  0  0  0  0  0  0  0
   55.6550   24.2120   46.9370 O   0  0  0  0  0  0  0  0  0  0  0  0
   56.1600   26.4660   46.2220 C   0  0  0  0  0  0  0  0  0  0  0  0
   54.8110   26.7070   45.9910 O   0  0  0  0  0  0  0  0  0  0  0  0
   57.0970   27.4770   45.9790 C   0  0  0  0  0  0  0  0  0  0  0  0
   59.5750   31.8780   46.7560 C   0  0  0  0  0  0  0  0  0  0  0  0
  1  2  2  0
  2  3  1  0
  3  4  2  3
  4  5  1  0
  5  6  1  0
  6  7  2  0
  7  8  1  0
  2  9  1  0
  9 10  2  0
 10 11  1  0
 11 12  2  0
 12 13  1  0
 13 14  1  0
 14 15  2  0
 14 16  2  0
 14 17  1  0
 17 18  1  0
 18 19  1  0
 19 20  2  0
 20 21  1  0
 21 22  2  0
 22 23  1  0
 22 24  1  0
 24 25  1  0
 24 26  2  0
 13 27  2  0
  8  4  1  0
 27  9  1  0
 26 19  1  0
M  CHG  4   5  -1  17  -1  23  -1  25  -1
M  END
>  <UniqueID>  (591) 
15

>  <SMILES>  (591) 
O=C(N=c1[n-]ccs1)c1cccc(S(=O)(=O)[N-]Cc2ccc([O-])c([O-])c2)c1

>  <Energy>  (591) 
71.48913697511466

>  <Genealogy>  (591) 
O=C(N=c1[n-]ccs1)c1cccc(S(=O)(=O)[N-]Cc2ccc([O-])c([O-])c2)c1 (protonated)
O=C(N=c1[n-]ccs1)c1cccc(S(=O)(=O)[N-]Cc2ccc([O-])c([O-])c2)c1 (3D coordinates assigned)
O=C(N=c1[n-]ccs1)c1cccc(S(=O)(=O)[N-]Cc2ccc([O-])c([O-])c2)c1 (optimized conformer: 71.48913697511466 kcal/mol)

>  <smiles>  (591) 
O=C(N=c1[nH]ccs1)c1cccc(S(=O)(=O)NCc2ccc(O)c(O)c2)c1

>  <score_type>  (591) 
oracle

>  <origin>  (591) 
adg

>  <m_score__min__energy>  (591) 
-18.48

>  <m_primary>  (591) 
energy

$$$$
38:0
     RDKit          3D

 29 33  0  0  0  0  0  0  0  0999 V2000
   53.5770   31.5710   52.0040 C   0  0  0  0  0  0  0  0  0  0  0  0
   52.5470   31.4780   50.9560 C   0  0  0  0  0  0  0  0  0  0  0  0
   52.5210   30.5000   50.0330 N   0  0  0  0  0  0  0  0  0  0  0  0
   51.3890   30.7520   49.3390 C   0  0  0  0  0  0  0  0  0  0  0  0
   51.0210   30.0450   48.3650 O   0  0  0  0  0  0  0  0  0  0  0  0
   50.6800   31.8130   49.7760 N   0  0  0  0  0  0  0  0  0  0  0  0
   51.4180   32.2560   50.8070 C   0  0  0  0  0  0  0  0  0  0  0  0
   51.0380   33.3140   51.6230 O   0  0  0  0  0  0  0  0  0  0  0  0
   54.2460   30.5170   52.4920 C   0  0  0  0  0  0  0  0  0  0  0  0
   53.7910   29.4900   53.3140 C   0  0  0  0  0  0  0  0  0  0  0  0
   54.8200   28.6600   53.5980 N   0  0  0  0  0  0  0  0  0  0  0  0
   55.9130   29.1210   52.9980 N   0  0  0  0  0  0  0  0  0  0  0  0
   57.2020   28.6490   52.9770 C   0  0  0  0  0  0  0  0  0  0  0  0
   57.6060   27.5700   53.5900 N   0  0  0  0  0  0  0  0  0  0  0  0
   58.1790   27.4210   54.9200 C   0  0  0  0  0  0  0  0  0  0  0  0
   57.6780   28.4940   55.8720 C   0  0  0  0  0  0  0  0  0  0  0  0
   59.0990   28.5560   55.3370 C   0  0  0  0  0  0  0  0  0  0  0  0
   58.1220   29.3550   52.2630 N   0  0  0  0  0  0  0  0  0  0  0  0
   57.7840   30.4930   51.5890 C   0  0  0  0  0  0  0  0  0  0  0  0
   58.8220   31.2170   50.8340 C   0  0  0  0  0  0  0  0  0  0  0  0
   58.8640   31.2260   49.4940 C   0  0  0  0  0  0  0  0  0  0  0  0
   59.0270   32.4580   48.6830 C   0  0  0  0  0  0  0  0  0  0  0  0
   58.1790   32.6540   47.5790 C   0  0  0  0  0  0  0  0  0  0  0  0
   58.2900   33.8030   46.7920 C   0  0  0  0  0  0  0  0  0  0  0  0
   59.2420   34.7760   47.1030 C   0  0  0  0  0  0  0  0  0  0  0  0
   60.0800   34.6030   48.2070 C   0  0  0  0  0  0  0  0  0  0  0  0
   59.9740   33.4540   48.9980 C   0  0  0  0  0  0  0  0  0  0  0  0
   56.4990   30.9440   51.6230 N   0  0  0  0  0  0  0  0  0  0  0  0
   55.5860   30.2400   52.3320 C   0  0  0  0  0  0  0  0  0  0  0  0
  1  2  1  0
  2  3  1  0
  3  4  1  0
  4  5  2  0
  4  6  1  0
  6  7  1  0
  7  8  1  0
  1  9  2  3
  9 10  1  0
 10 11  2  0
 11 12  1  0
 12 13  1  0
 13 14  2  3
 14 15  1  0
 15 16  1  0
 16 17  1  0
 13 18  1  0
 18 19  2  0
 19 20  1  0
 20 21  2  0
 21 22  1  0
 22 23  2  0
 23 24  1  0
 24 25  2  0
 25 26  1  0
 26 27  2  0
 19 28  1  0
 28 29  2  0
  7  2  2  0
 29  9  1  0
 29 12  1  0
 17 15  1  0
 27 22  1  0
M  CHG  4   3  -1   6  -1   8  -1  11   1
M  END
>  <UniqueID>  (592) 
37

>  <SMILES>  (592) 
O=c1[n-]c([O-])c(C=c2c[nH+]n3c(=NC4CC4)nc(/C=C/c4ccccc4)nc23)[n-]1

>  <Energy>  (592) 
397.4449210769039

>  <Genealogy>  (592) 
O=c1[n-]c([O-])c(C=c2c[nH+]n3c(=NC4CC4)nc(C=Cc4ccccc4)nc23)[n-]1 (protonated)
O=c1[n-]c([O-])c(C=c2c[nH+]n3c(=NC4CC4)nc(/C=C/c4ccccc4)nc23)[n-]1 (cis-trans isomerization)
O=c1[n-]c([O-])c(C=c2c[nH+]n3c(=NC4CC4)nc(/C=C/c4ccccc4)nc23)[n-]1 (3D coordinates assigned)
O=c1[n-]c([O-])c(C=c2c[nH+]n3c(=NC4CC4)nc(/C=C/c4ccccc4)nc23)[n-]1 (nonaromatic ring conformer: 397.4449210769039 kcal/mol)

>  <smiles>  (592) 
O=c1[nH]c(O)c(C=c2cnn3c(=NC4CC4)nc(C=Cc4ccccc4)nc23)[nH]1

>  <score_type>  (592) 
oracle

>  <origin>  (592) 
adg

>  <m_score__min__energy>  (592) 
-16.149999999999999

>  <m_primary>  (592) 
energy

$$$$
54:0
     RDKit          3D

 26 28  0  0  0  0  0  0  0  0999 V2000
   57.5900   27.0540   47.1270 O   0  0  0  0  0  0  0  0  0  0  0  0
   58.3030   27.9490   46.5910 C   0  0  0  0  0  0  0  0  0  0  0  0
   58.1410   28.2410   45.1170 C   0  0  0  0  0  0  0  0  0  0  0  0
   57.5280   29.5870   44.8600 C   0  0  0  0  0  0  0  0  0  0  0  0
   58.2360   30.7100   44.6500 N   0  0  0  0  0  0  0  0  0  0  0  0
   57.2880   31.6460   44.4110 C   0  0  0  0  0  0  0  0  0  0  0  0
   57.6110   33.0890   44.1750 C   0  0  0  0  0  0  0  0  0  0  0  0
   58.6040   33.6070   45.2170 C   0  0  0  0  0  0  0  0  0  0  0  0
   58.5340   32.7960   46.4360 N   0  0  0  0  0  0  0  0  0  0  0  0
   59.2940   33.6380   47.7530 S   0  0  0  0  0  0  0  0  0  0  0  0
   58.8750   35.0810   47.7300 O   0  0  0  0  0  0  0  0  0  0  0  0
   58.8530   33.0280   49.0530 O   0  0  0  0  0  0  0  0  0  0  0  0
   61.0410   33.5270   47.6340 C   0  0  0  0  0  0  0  0  0  0  0  0
   61.7900   33.6540   46.4750 C   0  0  0  0  0  0  0  0  0  0  0  0
   63.1630   33.4970   46.6920 C   0  0  0  0  0  0  0  0  0  0  0  0
   63.4910   33.2420   48.0180 C   0  0  0  0  0  0  0  0  0  0  0  0
   62.0720   33.2140   48.9220 S   0  0  0  0  0  0  0  0  0  0  0  0
   56.0210   31.1770   44.4650 N   0  0  0  0  0  0  0  0  0  0  0  0
   56.1920   29.8740   44.7390 C   0  0  0  0  0  0  0  0  0  0  0  0
   55.1480   28.9700   44.8800 O   0  0  0  0  0  0  0  0  0  0  0  0
   59.2720   28.6630   47.3950 N   0  0  0  0  0  0  0  0  0  0  0  0
   59.3530   28.3710   48.8340 C   0  0  0  0  0  0  0  0  0  0  0  0
   60.7100   28.7930   49.4000 C   0  0  0  0  0  0  0  0  0  0  0  0
   61.0080   30.1270   49.0410 O   0  0  0  0  0  0  0  0  0  0  0  0
   61.1900   30.2040   47.6430 C   0  0  0  0  0  0  0  0  0  0  0  0
   59.8830   29.9080   46.9020 C   0  0  0  0  0  0  0  0  0  0  0  0
  1  2  2  0
  2  3  1  0
  3  4  1  0
  4  5  1  0
  5  6  1  0
  6  7  1  0
  7  8  1  0
  8  9  1  0
  9 10  1  0
 10 11  2  0
 10 12  2  0
 10 13  1  0
 13 14  2  0
 14 15  1  0
 15 16  2  0
 16 17  1  0
  6 18  2  0
 18 19  1  0
 19 20  1  0
  2 21  1  0
 21 22  1  0
 22 23  1  0
 23 24  1  0
 24 25  1  0
 25 26  1  0
 19  4  2  0
 26 21  1  0
 17 13  1  0
M  CHG  2   5  -1  20  -1
M  END
>  <UniqueID>  (593) 
51

>  <SMILES>  (593) 
O=C(Cc1[n-]c(CCNS(=O)(=O)c2cccs2)nc1[O-])N1CCOCC1

>  <Energy>  (593) 
95.76887791590775

>  <Genealogy>  (593) 
O=C(Cc1[n-]c(CCNS(=O)(=O)c2cccs2)nc1[O-])N1CCOCC1 (protonated)
O=C(Cc1[n-]c(CCNS(=O)(=O)c2cccs2)nc1[O-])N1CCOCC1 (3D coordinates assigned)
O=C(Cc1[n-]c(CCNS(=O)(=O)c2cccs2)nc1[O-])N1CCOCC1 (nonaromatic ring conformer: 95.76887791590775 kcal/mol)

>  <smiles>  (593) 
O=C(Cc1[nH]c(CCNS(=O)(=O)c2cccs2)nc1O)N1CCOCC1

>  <score_type>  (593) 
oracle

>  <origin>  (593) 
adg

>  <m_score__min__energy>  (593) 
-14.1

>  <m_primary>  (593) 
energy

$$$$
64:0
     RDKit          3D

 26 28  0  0  0  0  0  0  0  0999 V2000
   56.0280   30.1340   43.0400 O   0  0  0  0  0  0  0  0  0  0  0  0
   56.4880   30.1900   44.2110 C   0  0  0  0  0  0  0  0  0  0  0  0
   56.1180   29.1640   45.1450 N   0  0  0  0  0  0  0  0  0  0  0  0
   56.8150   28.1280   45.5300 C   0  0  0  0  0  0  0  0  0  0  0  0
   58.1690   28.2610   45.5760 N   0  0  0  0  0  0  0  0  0  0  0  0
   58.9930   27.2450   45.9460 C   0  0  0  0  0  0  0  0  0  0  0  0
   58.4590   26.0050   46.2930 C   0  0  0  0  0  0  0  0  0  0  0  0
   57.0770   25.8320   46.2790 C   0  0  0  0  0  0  0  0  0  0  0  0
   56.2380   26.8910   45.9180 C   0  0  0  0  0  0  0  0  0  0  0  0
   54.8640   26.6980   45.9880 O   0  0  0  0  0  0  0  0  0  0  0  0
   57.3250   31.3470   44.6210 C   0  0  0  0  0  0  0  0  0  0  0  0
   57.6970   32.3220   43.6790 C   0  0  0  0  0  0  0  0  0  0  0  0
   58.5250   33.3850   44.0500 C   0  0  0  0  0  0  0  0  0  0  0  0
   58.9890   33.4880   45.3630 C   0  0  0  0  0  0  0  0  0  0  0  0
   58.6130   32.5350   46.3180 C   0  0  0  0  0  0  0  0  0  0  0  0
   59.2320   32.6450   47.9660 S   0  0  0  0  0  0  0  0  0  0  0  0
   60.0340   33.9080   48.1010 O   0  0  0  0  0  0  0  0  0  0  0  0
   58.0860   32.7110   48.9380 O   0  0  0  0  0  0  0  0  0  0  0  0
   60.2540   31.2860   48.3420 N   0  0  0  0  0  0  0  0  0  0  0  0
   61.3050   31.1050   47.3380 C   0  0  0  0  0  0  0  0  0  0  0  0
   62.4070   32.0980   47.5300 C   0  0  0  0  0  0  0  0  0  0  0  0
   62.6310   33.2150   46.7520 C   0  0  0  0  0  0  0  0  0  0  0  0
   63.7260   33.8380   47.3080 C   0  0  0  0  0  0  0  0  0  0  0  0
   64.0980   33.0680   48.3910 C   0  0  0  0  0  0  0  0  0  0  0  0
   63.2910   32.0370   48.4970 O   0  0  0  0  0  0  0  0  0  0  0  0
   57.7740   31.4750   45.9480 C   0  0  0  0  0  0  0  0  0  0  0  0
  1  2  2  0
  2  3  1  0
  3  4  2  3
  4  5  1  0
  5  6  1  0
  6  7  2  0
  7  8  1  0
  8  9  2  0
  9 10  1  0
  2 11  1  0
 11 12  2  0
 12 13  1  0
 13 14  2  0
 14 15  1  0
 15 16  1  0
 16 17  2  0
 16 18  2  0
 16 19  1  0
 19 20  1  0
 20 21  1  0
 21 22  2  0
 22 23  1  0
 23 24  2  0
 24 25  1  0
 15 26  2  0
  9  4  1  0
 26 11  1  0
 25 21  1  0
M  CHG  3   5  -1  10  -1  19  -1
M  END
>  <UniqueID>  (594) 
61

>  <SMILES>  (594) 
O=C(N=c1[n-]cccc1[O-])c1cccc(S(=O)(=O)[N-]Cc2ccco2)c1

>  <Energy>  (594) 
75.81844996076678

>  <Genealogy>  (594) 
O=C(N=c1[n-]cccc1[O-])c1cccc(S(=O)(=O)[N-]Cc2ccco2)c1 (protonated)
O=C(N=c1[n-]cccc1[O-])c1cccc(S(=O)(=O)[N-]Cc2ccco2)c1 (3D coordinates assigned)
O=C(N=c1[n-]cccc1[O-])c1cccc(S(=O)(=O)[N-]Cc2ccco2)c1 (optimized conformer: 75.81844996076678 kcal/mol)

>  <smiles>  (594) 
O=C(N=c1[nH]cccc1O)c1cccc(S(=O)(=O)NCc2ccco2)c1

>  <score_type>  (594) 
oracle

>  <origin>  (594) 
adg

>  <m_score__min__energy>  (594) 
-15.23

>  <m_primary>  (594) 
energy

$$$$
67:0
     RDKit          3D

 25 27  0  0  0  0  0  0  0  0999 V2000
   51.8280   29.9730   49.2000 O   0  0  0  0  0  0  0  0  0  0  0  0
   51.7160   30.7930   50.3170 C   0  0  0  0  0  0  0  0  0  0  0  0
   51.0360   31.9560   50.3180 N   0  0  0  0  0  0  0  0  0  0  0  0
   51.1920   32.4330   51.5690 C   0  0  0  0  0  0  0  0  0  0  0  0
   50.6430   33.6350   51.9980 O   0  0  0  0  0  0  0  0  0  0  0  0
   51.9550   31.5980   52.3590 C   0  0  0  0  0  0  0  0  0  0  0  0
   52.2820   30.5310   51.5490 C   0  0  0  0  0  0  0  0  0  0  0  0
   53.1650   29.3770   51.9080 C   0  0  0  0  0  0  0  0  0  0  0  0
   53.8290   29.6340   53.2230 C   0  0  0  0  0  0  0  0  0  0  0  0
   53.4780   28.9680   54.2330 O   0  0  0  0  0  0  0  0  0  0  0  0
   54.8250   30.6660   53.3130 N   0  0  0  0  0  0  0  0  0  0  0  0
   55.8930   30.8020   52.5820 C   0  0  0  0  0  0  0  0  0  0  0  0
   56.4480   29.7580   51.9300 N   0  0  0  0  0  0  0  0  0  0  0  0
   57.5350   30.0900   51.2340 N   0  0  0  0  0  0  0  0  0  0  0  0
   57.8470   31.4020   51.3310 C   0  0  0  0  0  0  0  0  0  0  0  0
   59.2570   32.1460   50.5160 S   0  0  0  0  0  0  0  0  0  0  0  0
   58.8020   31.5520   48.8490 C   0  0  0  0  0  0  0  0  0  0  0  0
   58.9210   32.6540   47.8320 C   0  0  0  0  0  0  0  0  0  0  0  0
   59.8690   33.6790   47.9990 C   0  0  0  0  0  0  0  0  0  0  0  0
   59.9920   34.6880   47.0390 C   0  0  0  0  0  0  0  0  0  0  0  0
   59.1730   34.6800   45.9050 C   0  0  0  0  0  0  0  0  0  0  0  0
   59.2950   35.6590   44.9750 F   0  0  0  0  0  0  0  0  0  0  0  0
   58.2320   33.6610   45.7300 C   0  0  0  0  0  0  0  0  0  0  0  0
   58.1060   32.6510   46.6880 C   0  0  0  0  0  0  0  0  0  0  0  0
   56.7570   32.2310   52.3070 S   0  0  0  0  0  0  0  0  0  0  0  0
  1  2  1  0
  2  3  1  0
  3  4  1  0
  4  5  1  0
  4  6  2  0
  6  7  1  0
  7  8  1  0
  8  9  1  0
  9 10  2  0
  9 11  1  0
 11 12  2  0
 12 13  1  0
 13 14  1  0
 14 15  2  0
 15 16  1  0
 16 17  1  0
 17 18  1  0
 18 19  2  0
 19 20  1  0
 20 21  2  0
 21 22  1  0
 21 23  1  0
 23 24  2  0
 15 25  1  0
  7  2  2  0
 25 12  1  0
 24 18  1  0
M  CHG  3   3  -1   5  -1  13  -1
M  END
>  <UniqueID>  (595) 
63

>  <SMILES>  (595) 
O=C(Cc1cc([O-])[n-]c1O)/N=c1/[n-]nc(SCc2ccc(F)cc2)s1

>  <Energy>  (595) 
93.67284256112491

>  <Genealogy>  (595) 
O=C(Cc1cc([O-])[n-]c1O)N=c1[n-]nc(SCc2ccc(F)cc2)s1 (protonated)
O=C(Cc1cc([O-])[n-]c1O)/N=c1/[n-]nc(SCc2ccc(F)cc2)s1 (cis-trans isomerization)
O=C(Cc1cc([O-])[n-]c1O)/N=c1/[n-]nc(SCc2ccc(F)cc2)s1 (3D coordinates assigned)
O=C(Cc1cc([O-])[n-]c1O)/N=c1/[n-]nc(SCc2ccc(F)cc2)s1 (optimized conformer: 93.67284256112491 kcal/mol)

>  <smiles>  (595) 
O=C(Cc1cc(O)[nH]c1O)N=c1[nH]nc(SCc2ccc(F)cc2)s1

>  <score_type>  (595) 
oracle

>  <origin>  (595) 
adg

>  <m_score__min__energy>  (595) 
-16.859999999999999

>  <m_primary>  (595) 
energy

$$$$
74:0
     RDKit          3D

 23 24  0  0  0  0  0  0  0  0999 V2000
   54.7550   26.3340   45.9970 O   0  0  0  0  0  0  0  0  0  0  0  0
   55.9220   25.8780   46.1240 C   0  0  0  0  0  0  0  0  0  0  0  0
   56.9590   26.3610   45.2670 N   0  0  0  0  0  0  0  0  0  0  0  0
   57.6700   27.6190   45.4740 C   0  0  0  0  0  0  0  0  0  0  0  0
   57.6760   28.4710   44.2010 C   0  0  0  0  0  0  0  0  0  0  0  0
   56.4680   29.7930   44.2330 S   0  0  0  0  0  0  0  0  0  0  0  0
   55.1680   29.2530   44.7630 O   0  0  0  0  0  0  0  0  0  0  0  0
   56.2380   30.2910   42.8340 O   0  0  0  0  0  0  0  0  0  0  0  0
   56.9950   31.1200   45.2240 N   0  0  0  0  0  0  0  0  0  0  0  0
   57.3980   32.2730   44.4170 C   0  0  0  0  0  0  0  0  0  0  0  0
   58.1200   33.2660   45.2700 C   0  0  0  0  0  0  0  0  0  0  0  0
   59.0500   34.1940   44.8240 C   0  0  0  0  0  0  0  0  0  0  0  0
   59.5720   34.9880   45.8500 C   0  0  0  0  0  0  0  0  0  0  0  0
   59.0500   34.6930   47.1030 C   0  0  0  0  0  0  0  0  0  0  0  0
   57.9390   33.4420   46.9330 S   0  0  0  0  0  0  0  0  0  0  0  0
   56.2030   24.8860   47.1150 N   0  0  0  0  0  0  0  0  0  0  0  0
   55.8760   23.4780   46.9450 C   0  0  0  0  0  0  0  0  0  0  0  0
   56.2740   23.0410   45.5660 C   0  0  0  0  0  0  0  0  0  0  0  0
   57.4320   22.2690   45.3760 C   0  0  0  0  0  0  0  0  0  0  0  0
   57.7780   21.8210   44.0970 C   0  0  0  0  0  0  0  0  0  0  0  0
   56.9680   22.1350   43.0020 C   0  0  0  0  0  0  0  0  0  0  0  0
   55.8070   22.8920   43.1850 C   0  0  0  0  0  0  0  0  0  0  0  0
   55.4560   23.3380   44.4630 C   0  0  0  0  0  0  0  0  0  0  0  0
  1  2  2  0
  2  3  1  0
  3  4  1  0
  4  5  1  0
  5  6  1  0
  6  7  2  0
  6  8  2  0
  6  9  1  0
  9 10  1  0
 10 11  1  0
 11 12  2  0
 12 13  1  0
 13 14  2  0
 14 15  1  0
  2 16  1  0
 16 17  1  0
 17 18  1  0
 18 19  2  0
 19 20  1  0
 20 21  2  0
 21 22  1  0
 22 23  2  0
 15 11  1  0
 23 18  1  0
M  CHG  3   3  -1   9  -1  16  -1
M  END
>  <UniqueID>  (596) 
69

>  <SMILES>  (596) 
O=C([N-]CCS(=O)(=O)[N-]Cc1cccs1)[N-]Cc1ccccc1

>  <Energy>  (596) 
49.26847119692268

>  <Genealogy>  (596) 
O=C([N-]CCS(=O)(=O)[N-]Cc1cccs1)[N-]Cc1ccccc1 (protonated)
O=C([N-]CCS(=O)(=O)[N-]Cc1cccs1)[N-]Cc1ccccc1 (3D coordinates assigned)
O=C([N-]CCS(=O)(=O)[N-]Cc1cccs1)[N-]Cc1ccccc1 (optimized conformer: 49.26847119692268 kcal/mol)

>  <smiles>  (596) 
O=C(NCCS(=O)(=O)NCc1cccs1)NCc1ccccc1

>  <score_type>  (596) 
oracle

>  <origin>  (596) 
adg

>  <m_score__min__energy>  (596) 
-14.06

>  <m_primary>  (596) 
energy

$$$$
32:0
     RDKit          3D

 28 30  0  0  0  0  0  0  0  0999 V2000
   62.5940   32.7350   48.2330 C   0  0  0  0  0  0  0  0  0  0  0  0
   61.3230   32.5560   47.4590 C   0  0  0  0  0  0  0  0  0  0  0  0
   60.5940   33.6750   47.0290 C   0  0  0  0  0  0  0  0  0  0  0  0
   59.4380   33.5120   46.2620 C   0  0  0  0  0  0  0  0  0  0  0  0
   59.0010   32.2290   45.9090 C   0  0  0  0  0  0  0  0  0  0  0  0
   57.5690   32.0450   44.9010 S   0  0  0  0  0  0  0  0  0  0  0  0
   57.9770   32.1240   43.4570 O   0  0  0  0  0  0  0  0  0  0  0  0
   56.5690   33.1320   45.1810 O   0  0  0  0  0  0  0  0  0  0  0  0
   56.8380   30.5020   45.2050 N   0  0  0  0  0  0  0  0  0  0  0  0
   57.5120   29.2390   45.1250 C   0  0  0  0  0  0  0  0  0  0  0  0
   58.5570   29.0940   44.2040 C   0  0  0  0  0  0  0  0  0  0  0  0
   59.2440   27.8830   44.1000 C   0  0  0  0  0  0  0  0  0  0  0  0
   58.8900   26.8030   44.9130 C   0  0  0  0  0  0  0  0  0  0  0  0
   57.8480   26.9280   45.8450 C   0  0  0  0  0  0  0  0  0  0  0  0
   57.4890   25.8020   46.7400 C   0  0  0  0  0  0  0  0  0  0  0  0
   58.1270   25.6440   47.8180 O   0  0  0  0  0  0  0  0  0  0  0  0
   56.4010   24.8510   46.4060 C   0  0  0  0  0  0  0  0  0  0  0  0
   55.1330   25.3190   46.0150 C   0  0  0  0  0  0  0  0  0  0  0  0
   54.8580   26.6820   45.9820 O   0  0  0  0  0  0  0  0  0  0  0  0
   54.1570   24.4390   45.6760 N   0  0  0  0  0  0  0  0  0  0  0  0
   54.3810   23.1020   45.7010 C   0  0  0  0  0  0  0  0  0  0  0  0
   53.4620   22.3050   45.3800 O   0  0  0  0  0  0  0  0  0  0  0  0
   55.5960   22.6220   46.0680 N   0  0  0  0  0  0  0  0  0  0  0  0
   56.6080   23.4590   46.4150 C   0  0  0  0  0  0  0  0  0  0  0  0
   57.7290   22.9750   46.7240 O   0  0  0  0  0  0  0  0  0  0  0  0
   57.1650   28.1530   45.9490 C   0  0  0  0  0  0  0  0  0  0  0  0
   59.7340   31.1090   46.3260 C   0  0  0  0  0  0  0  0  0  0  0  0
   60.8940   31.2710   47.0880 C   0  0  0  0  0  0  0  0  0  0  0  0
  1  2  1  0
  2  3  2  0
  3  4  1  0
  4  5  2  0
  5  6  1  0
  6  7  2  0
  6  8  2  0
  6  9  1  0
  9 10  1  0
 10 11  2  0
 11 12  1  0
 12 13  2  0
 13 14  1  0
 14 15  1  0
 15 16  2  0
 15 17  1  0
 17 18  2  0
 18 19  1  0
 18 20  1  0
 20 21  1  0
 21 22  2  0
 21 23  1  0
 23 24  1  0
 24 25  2  0
 14 26  2  0
  5 27  1  0
 27 28  2  0
 28  2  1  0
 26 10  1  0
 24 17  1  0
M  CHG  4   9  -1  19  -1  20  -1  23  -1
M  END
>  <UniqueID>  (597) 
31

>  <SMILES>  (597) 
Cc1ccc(S(=O)(=O)[N-]c2cccc(C(=O)c3c([O-])[n-]c(=O)[n-]c3=O)c2)cc1

>  <Energy>  (597) 
54.099893210408176

>  <Genealogy>  (597) 
Cc1ccc(S(=O)(=O)[N-]c2cccc(C(=O)c3c([O-])[n-]c(=O)[n-]c3=O)c2)cc1 (protonated)
Cc1ccc(S(=O)(=O)[N-]c2cccc(C(=O)c3c([O-])[n-]c(=O)[n-]c3=O)c2)cc1 (3D coordinates assigned)
Cc1ccc(S(=O)(=O)[N-]c2cccc(C(=O)c3c([O-])[n-]c(=O)[n-]c3=O)c2)cc1 (optimized conformer: 54.099893210408176 kcal/mol)

>  <smiles>  (597) 
Cc1ccc(S(=O)(=O)Nc2cccc(C(=O)c3c(O)[nH]c(=O)[nH]c3=O)c2)cc1

>  <score_type>  (597) 
oracle

>  <origin>  (597) 
adg

>  <m_score__min__energy>  (597) 
-17.68

>  <m_primary>  (597) 
energy

$$$$
63:0
     RDKit          3D

 30 32  0  0  0  0  0  0  0  0999 V2000
   56.6570   31.9090   44.9740 O   0  0  0  0  0  0  0  0  0  0  0  0
   57.7150   31.2510   45.1680 C   0  0  0  0  0  0  0  0  0  0  0  0
   58.2800   30.4120   44.0660 C   0  0  0  0  0  0  0  0  0  0  0  0
   57.4120   29.2700   43.8020 N   0  0  0  0  0  0  0  0  0  0  0  0
   56.6200   28.6240   44.8040 C   0  0  0  0  0  0  0  0  0  0  0  0
   55.5150   29.1290   45.1410 O   0  0  0  0  0  0  0  0  0  0  0  0
   57.0690   27.3490   45.4260 C   0  0  0  0  0  0  0  0  0  0  0  0
   58.4410   27.0320   45.4260 C   0  0  0  0  0  0  0  0  0  0  0  0
   58.9040   25.8610   46.0240 C   0  0  0  0  0  0  0  0  0  0  0  0
   58.0060   24.9800   46.6270 C   0  0  0  0  0  0  0  0  0  0  0  0
   56.6380   25.2620   46.6280 C   0  0  0  0  0  0  0  0  0  0  0  0
   55.7640   24.3530   47.2230 O   0  0  0  0  0  0  0  0  0  0  0  0
   56.1620   26.4430   46.0280 C   0  0  0  0  0  0  0  0  0  0  0  0
   54.7950   26.6930   46.0140 O   0  0  0  0  0  0  0  0  0  0  0  0
   58.4080   31.3320   46.4200 N   0  0  0  0  0  0  0  0  0  0  0  0
   59.1570   32.4560   46.9020 C   0  0  0  0  0  0  0  0  0  0  0  0
   58.5260   33.6150   47.3930 C   0  0  0  0  0  0  0  0  0  0  0  0
   59.2930   34.6820   47.8700 C   0  0  0  0  0  0  0  0  0  0  0  0
   60.6900   34.5990   47.8730 C   0  0  0  0  0  0  0  0  0  0  0  0
   61.3250   33.4410   47.4030 C   0  0  0  0  0  0  0  0  0  0  0  0
   63.0810   33.3050   47.4150 S   0  0  0  0  0  0  0  0  0  0  0  0
   63.4470   31.8810   47.0970 O   0  0  0  0  0  0  0  0  0  0  0  0
   63.6770   34.2070   46.3690 O   0  0  0  0  0  0  0  0  0  0  0  0
   63.6740   33.7400   49.0050 N   0  0  0  0  0  0  0  0  0  0  0  0
   62.6550   33.5160   50.0470 C   0  0  0  0  0  0  0  0  0  0  0  0
   62.4890   32.0180   50.3930 C   0  0  0  0  0  0  0  0  0  0  0  0
   63.5620   31.2070   49.9520 O   0  0  0  0  0  0  0  0  0  0  0  0
   64.7920   31.8440   50.2210 C   0  0  0  0  0  0  0  0  0  0  0  0
   64.9600   33.0770   49.3160 C   0  0  0  0  0  0  0  0  0  0  0  0
   60.5550   32.3700   46.9310 C   0  0  0  0  0  0  0  0  0  0  0  0
  1  2  2  0
  2  3  1  0
  3  4  1  0
  4  5  1  0
  5  6  2  0
  5  7  1  0
  7  8  2  0
  8  9  1  0
  9 10  2  0
 10 11  1  0
 11 12  1  0
 11 13  2  0
 13 14  1  0
  2 15  1  0
 15 16  1  0
 16 17  2  0
 17 18  1  0
 18 19  2  0
 19 20  1  0
 20 21  1  0
 21 22  2  0
 21 23  2  0
 21 24  1  0
 24 25  1  0
 25 26  1  0
 26 27  1  0
 27 28  1  0
 28 29  1  0
 20 30  2  0
 13  7  1  0
 30 16  1  0
 29 24  1  0
M  CHG  3   4  -1  14  -1  15  -1
M  END
>  <UniqueID>  (598) 
61

>  <SMILES>  (598) 
O=C(C[N-]C(=O)c1cccc(O)c1[O-])[N-]c1cccc(S(=O)(=O)N2CCOCC2)c1

>  <Energy>  (598) 
64.4367429937829

>  <Genealogy>  (598) 
O=C(C[N-]C(=O)c1cccc(O)c1[O-])[N-]c1cccc(S(=O)(=O)N2CCOCC2)c1 (protonated)
O=C(C[N-]C(=O)c1cccc(O)c1[O-])[N-]c1cccc(S(=O)(=O)N2CCOCC2)c1 (3D coordinates assigned)
O=C(C[N-]C(=O)c1cccc(O)c1[O-])[N-]c1cccc(S(=O)(=O)N2CCOCC2)c1 (nonaromatic ring conformer: 64.4367429937829 kcal/mol)

>  <smiles>  (598) 
O=C(CNC(=O)c1cccc(O)c1O)Nc1cccc(S(=O)(=O)N2CCOCC2)c1

>  <score_type>  (598) 
oracle

>  <origin>  (598) 
adg

>  <m_score__min__energy>  (598) 
-15.890000000000001

>  <m_primary>  (598) 
energy

$$$$
85:0
     RDKit          3D

 26 28  0  0  0  0  0  0  0  0999 V2000
   57.1720   25.0310   46.7300 C   0  0  0  0  0  0  0  0  0  0  0  0
   57.9440   25.9310   46.1040 C   0  0  0  0  0  0  0  0  0  0  0  0
   57.4360   27.2580   45.6740 C   0  0  0  0  0  0  0  0  0  0  0  0
   56.0650   27.5470   45.6110 C   0  0  0  0  0  0  0  0  0  0  0  0
   55.1100   26.5880   45.9290 O   0  0  0  0  0  0  0  0  0  0  0  0
   55.6530   28.7710   45.2040 N   0  0  0  0  0  0  0  0  0  0  0  0
   56.5330   29.7340   44.8350 C   0  0  0  0  0  0  0  0  0  0  0  0
   56.0850   30.8540   44.4690 O   0  0  0  0  0  0  0  0  0  0  0  0
   57.8830   29.4860   44.8560 N   0  0  0  0  0  0  0  0  0  0  0  0
   58.8380   30.5200   44.4070 C   0  0  0  0  0  0  0  0  0  0  0  0
   58.6030   31.8110   45.1490 C   0  0  0  0  0  0  0  0  0  0  0  0
   58.6750   31.8440   46.5520 C   0  0  0  0  0  0  0  0  0  0  0  0
   58.4270   33.0340   47.2440 C   0  0  0  0  0  0  0  0  0  0  0  0
   58.1010   34.1980   46.5420 C   0  0  0  0  0  0  0  0  0  0  0  0
   58.0230   34.1730   45.1470 C   0  0  0  0  0  0  0  0  0  0  0  0
   58.2700   32.9850   44.4520 C   0  0  0  0  0  0  0  0  0  0  0  0
   58.3380   28.2560   45.2630 C   0  0  0  0  0  0  0  0  0  0  0  0
   59.5780   28.0140   45.2850 O   0  0  0  0  0  0  0  0  0  0  0  0
   56.7900   23.7240   46.1380 C   0  0  0  0  0  0  0  0  0  0  0  0
   56.3320   23.6170   44.8080 C   0  0  0  0  0  0  0  0  0  0  0  0
   55.9950   22.3710   44.2720 C   0  0  0  0  0  0  0  0  0  0  0  0
   55.5440   22.2780   42.9600 O   0  0  0  0  0  0  0  0  0  0  0  0
   56.1160   21.2180   45.0500 C   0  0  0  0  0  0  0  0  0  0  0  0
   56.5830   21.3070   46.3610 C   0  0  0  0  0  0  0  0  0  0  0  0
   56.9230   22.5490   46.9080 C   0  0  0  0  0  0  0  0  0  0  0  0
   57.3820   22.6080   48.2190 O   0  0  0  0  0  0  0  0  0  0  0  0
  1  2  2  0
  2  3  1  0
  3  4  2  0
  4  5  1  0
  4  6  1  0
  6  7  1  0
  7  8  2  0
  7  9  1  0
  9 10  1  0
 10 11  1  0
 11 12  2  0
 12 13  1  0
 13 14  2  0
 14 15  1  0
 15 16  2  0
  9 17  1  0
 17 18  2  0
  1 19  1  0
 19 20  2  0
 20 21  1  0
 21 22  1  0
 21 23  2  0
 23 24  1  0
 24 25  2  0
 25 26  1  0
 17  3  1  0
 25 19  1  0
 16 11  1  0
M  CHG  4   5  -1   6  -1  22  -1  26  -1
M  END
>  <UniqueID>  (599) 
80

>  <SMILES>  (599) 
O=c1[n-]c([O-])c(/C=C/c2cc([O-])ccc2[O-])c(=O)n1Cc1ccccc1

>  <Energy>  (599) 
54.39711833026982

>  <Genealogy>  (599) 
O=c1[n-]c([O-])c(C=Cc2cc([O-])ccc2[O-])c(=O)n1Cc1ccccc1 (protonated)
O=c1[n-]c([O-])c(/C=C/c2cc([O-])ccc2[O-])c(=O)n1Cc1ccccc1 (cis-trans isomerization)
O=c1[n-]c([O-])c(/C=C/c2cc([O-])ccc2[O-])c(=O)n1Cc1ccccc1 (3D coordinates assigned)
O=c1[n-]c([O-])c(/C=C/c2cc([O-])ccc2[O-])c(=O)n1Cc1ccccc1 (optimized conformer: 54.39711833026982 kcal/mol)

>  <smiles>  (599) 
O=c1[nH]c(O)c(C=Cc2cc(O)ccc2O)c(=O)n1Cc1ccccc1

>  <score_type>  (599) 
oracle

>  <origin>  (599) 
adg

>  <m_score__min__energy>  (599) 
-17.960000000000001

>  <m_primary>  (599) 
energy

$$$$
10:0
     RDKit          3D

 26 28  0  0  0  0  0  0  0  0999 V2000
   64.0880   33.2340   47.1110 N   0  0  0  0  0  0  0  0  0  0  0  0
   62.8740   32.8480   48.2790 S   0  0  0  0  0  0  0  0  0  0  0  0
   62.9990   31.4040   48.6700 O   0  0  0  0  0  0  0  0  0  0  0  0
   63.0650   33.6990   49.5020 O   0  0  0  0  0  0  0  0  0  0  0  0
   61.2820   33.1560   47.5930 C   0  0  0  0  0  0  0  0  0  0  0  0
   61.1180   34.1720   46.6420 C   0  0  0  0  0  0  0  0  0  0  0  0
   59.8670   34.3970   46.0610 C   0  0  0  0  0  0  0  0  0  0  0  0
   58.7670   33.6000   46.4180 C   0  0  0  0  0  0  0  0  0  0  0  0
   57.4360   33.7980   45.7360 C   0  0  0  0  0  0  0  0  0  0  0  0
   57.3540   32.9950   44.5160 N   0  0  0  0  0  0  0  0  0  0  0  0
   57.1430   31.7120   44.4800 C   0  0  0  0  0  0  0  0  0  0  0  0
   55.9040   31.1830   44.5770 N   0  0  0  0  0  0  0  0  0  0  0  0
   55.9320   29.8290   44.4490 C   0  0  0  0  0  0  0  0  0  0  0  0
   54.7700   29.0700   44.4940 O   0  0  0  0  0  0  0  0  0  0  0  0
   57.1970   29.2730   44.2660 C   0  0  0  0  0  0  0  0  0  0  0  0
   57.5100   27.8410   43.9640 C   0  0  0  0  0  0  0  0  0  0  0  0
   57.7980   27.0990   45.2450 C   0  0  0  0  0  0  0  0  0  0  0  0
   59.1310   26.8290   45.6070 C   0  0  0  0  0  0  0  0  0  0  0  0
   59.4160   26.0930   46.7600 C   0  0  0  0  0  0  0  0  0  0  0  0
   58.3760   25.6160   47.5610 C   0  0  0  0  0  0  0  0  0  0  0  0
   57.0480   25.8700   47.2080 C   0  0  0  0  0  0  0  0  0  0  0  0
   56.7540   26.6030   46.0520 C   0  0  0  0  0  0  0  0  0  0  0  0
   55.4240   26.8300   45.7140 O   0  0  0  0  0  0  0  0  0  0  0  0
   58.3190   30.5240   44.2470 S   0  0  0  0  0  0  0  0  0  0  0  0
   58.9300   32.5960   47.3860 C   0  0  0  0  0  0  0  0  0  0  0  0
   60.1830   32.3710   47.9640 C   0  0  0  0  0  0  0  0  0  0  0  0
  1  2  1  0
  2  3  2  0
  2  4  2  0
  2  5  1  0
  5  6  2  0
  6  7  1  0
  7  8  2  0
  8  9  1  0
  9 10  1  0
 10 11  2  0
 11 12  1  0
 12 13  1  0
 13 14  1  0
 13 15  2  0
 15 16  1  0
 16 17  1  0
 17 18  2  0
 18 19  1  0
 19 20  2  0
 20 21  1  0
 21 22  2  0
 22 23  1  0
 15 24  1  0
  8 25  1  0
 25 26  2  0
 26  5  1  0
 24 11  1  0
 22 17  1  0
M  CHG  4   1  -1  12  -1  14  -1  23  -1
M  END
>  <UniqueID>  (600) 
11

>  <SMILES>  (600) 
[NH-]S(=O)(=O)c1ccc(C/N=c2/[n-]c([O-])c(Cc3ccccc3[O-])s2)cc1

>  <Energy>  (600) 
69.57699344700173

>  <Genealogy>  (600) 
[NH-]S(=O)(=O)c1ccc(CN=c2[n-]c([O-])c(Cc3ccccc3[O-])s2)cc1 (protonated)
[NH-]S(=O)(=O)c1ccc(C/N=c2/[n-]c([O-])c(Cc3ccccc3[O-])s2)cc1 (cis-trans isomerization)
[NH-]S(=O)(=O)c1ccc(C/N=c2/[n-]c([O-])c(Cc3ccccc3[O-])s2)cc1 (3D coordinates assigned)
[NH-]S(=O)(=O)c1ccc(C/N=c2/[n-]c([O-])c(Cc3ccccc3[O-])s2)cc1 (optimized conformer: 69.57699344700173 kcal/mol)

>  <smiles>  (600) 
NS(=O)(=O)c1ccc(CN=c2[nH]c(O)c(Cc3ccccc3O)s2)cc1

>  <score_type>  (600) 
oracle

>  <origin>  (600) 
adg

>  <m_score__min__energy>  (600) 
-17.260000000000002

>  <m_primary>  (600) 
energy

$$$$
30:0
     RDKit          3D

 34 37  0  0  0  0  0  0  0  0999 V2000
   60.0970   25.9900   46.6230 C   0  0  0  0  0  0  0  0  0  0  0  0
   59.2320   26.9860   45.8950 C   0  0  0  0  0  0  0  0  0  0  0  0
   59.8430   28.0810   45.2620 C   0  0  0  0  0  0  0  0  0  0  0  0
   59.0730   29.0410   44.6000 C   0  0  0  0  0  0  0  0  0  0  0  0
   57.6800   28.9240   44.5630 C   0  0  0  0  0  0  0  0  0  0  0  0
   56.7160   30.1490   43.7420 S   0  0  0  0  0  0  0  0  0  0  0  0
   55.4720   30.4590   44.5310 O   0  0  0  0  0  0  0  0  0  0  0  0
   56.3120   29.6240   42.3910 O   0  0  0  0  0  0  0  0  0  0  0  0
   57.6160   31.6130   43.5310 N   0  0  0  0  0  0  0  0  0  0  0  0
   57.9720   32.4450   44.6360 C   0  0  0  0  0  0  0  0  0  0  0  0
   57.4310   33.7340   44.7350 C   0  0  0  0  0  0  0  0  0  0  0  0
   57.8020   34.5710   45.7900 C   0  0  0  0  0  0  0  0  0  0  0  0
   58.7260   34.1290   46.7420 C   0  0  0  0  0  0  0  0  0  0  0  0
   59.2730   32.8380   46.6520 C   0  0  0  0  0  0  0  0  0  0  0  0
   60.4460   32.2790   47.8470 S   0  0  0  0  0  0  0  0  0  0  0  0
   59.7240   32.0140   49.1400 O   0  0  0  0  0  0  0  0  0  0  0  0
   61.0400   30.9800   47.3800 O   0  0  0  0  0  0  0  0  0  0  0  0
   61.7250   33.4440   48.1450 N   0  0  0  0  0  0  0  0  0  0  0  0
   62.6310   33.0290   49.2350 C   0  0  0  0  0  0  0  0  0  0  0  0
   63.6800   31.9890   48.7780 C   0  0  0  0  0  0  0  0  0  0  0  0
   63.7410   31.8340   47.3740 O   0  0  0  0  0  0  0  0  0  0  0  0
   63.7890   33.0980   46.7560 C   0  0  0  0  0  0  0  0  0  0  0  0
   62.4440   33.8290   46.9110 C   0  0  0  0  0  0  0  0  0  0  0  0
   58.8980   32.0020   45.5900 C   0  0  0  0  0  0  0  0  0  0  0  0
   57.0650   27.8150   45.1530 C   0  0  0  0  0  0  0  0  0  0  0  0
   57.8250   26.8350   45.8090 C   0  0  0  0  0  0  0  0  0  0  0  0
   57.1160   25.6860   46.4200 C   0  0  0  0  0  0  0  0  0  0  0  0
   55.8980   25.8180   46.7290 O   0  0  0  0  0  0  0  0  0  0  0  0
   57.7630   24.4290   46.6840 N   0  0  0  0  0  0  0  0  0  0  0  0
   58.0790   23.5220   45.8060 C   0  0  0  0  0  0  0  0  0  0  0  0
   59.3330   23.0590   45.6030 N   0  0  0  0  0  0  0  0  0  0  0  0
   59.3650   22.1260   44.6140 C   0  0  0  0  0  0  0  0  0  0  0  0
   58.1370   21.8530   44.0190 C   0  0  0  0  0  0  0  0  0  0  0  0
   56.9700   22.8120   44.7640 S   0  0  0  0  0  0  0  0  0  0  0  0
  1  2  1  0
  2  3  2  0
  3  4  1  0
  4  5  2  0
  5  6  1  0
  6  7  2  0
  6  8  2  0
  6  9  1  0
  9 10  1  0
 10 11  2  0
 11 12  1  0
 12 13  2  0
 13 14  1  0
 14 15  1  0
 15 16  2  0
 15 17  2  0
 15 18  1  0
 18 19  1  0
 19 20  1  0
 20 21  1  0
 21 22  1  0
 22 23  1  0
 14 24  2  0
  5 25  1  0
 25 26  2  0
 26 27  1  0
 27 28  2  0
 27 29  1  0
 29 30  2  3
 30 31  1  0
 31 32  1  0
 32 33  2  0
 33 34  1  0
 26  2  1  0
 34 30  1  0
 24 10  1  0
 23 18  1  0
M  CHG  2   9  -1  31  -1
M  END
>  <UniqueID>  (601) 
30

>  <SMILES>  (601) 
Cc1ccc(S(=O)(=O)[N-]c2cccc(S(=O)(=O)N3CCOCC3)c2)cc1C(=O)N=c1[n-]ccs1

>  <Energy>  (601) 
113.0508956673694

>  <Genealogy>  (601) 
Cc1ccc(S(=O)(=O)[N-]c2cccc(S(=O)(=O)N3CCOCC3)c2)cc1C(=O)N=c1[n-]ccs1 (protonated)
Cc1ccc(S(=O)(=O)[N-]c2cccc(S(=O)(=O)N3CCOCC3)c2)cc1C(=O)N=c1[n-]ccs1 (3D coordinates assigned)
Cc1ccc(S(=O)(=O)[N-]c2cccc(S(=O)(=O)N3CCOCC3)c2)cc1C(=O)N=c1[n-]ccs1 (nonaromatic ring conformer: 113.0508956673694 kcal/mol)

>  <smiles>  (601) 
Cc1ccc(S(=O)(=O)Nc2cccc(S(=O)(=O)N3CCOCC3)c2)cc1C(=O)N=c1[nH]ccs1

>  <score_type>  (601) 
oracle

>  <origin>  (601) 
adg

>  <m_score__min__energy>  (601) 
-14.25

>  <m_primary>  (601) 
energy

$$$$
40:0
     RDKit          3D

 28 30  0  0  0  0  0  0  0  0999 V2000
   59.7720   29.6560   44.8860 C   0  0  0  0  0  0  0  0  0  0  0  0
   58.3240   29.7920   44.7410 N   0  0  0  0  0  0  0  0  0  0  0  0
   57.4530   28.8660   44.2980 C   0  0  0  0  0  0  0  0  0  0  0  0
   57.8890   27.1930   43.8130 S   0  0  0  0  0  0  0  0  0  0  0  0
   58.7720   26.8170   45.3660 C   0  0  0  0  0  0  0  0  0  0  0  0
   57.8750   27.0240   46.5540 C   0  0  0  0  0  0  0  0  0  0  0  0
   57.7700   28.1370   47.0450 O   0  0  0  0  0  0  0  0  0  0  0  0
   57.0820   25.8850   47.1270 C   0  0  0  0  0  0  0  0  0  0  0  0
   55.8340   25.7430   46.3900 N   0  0  0  0  0  0  0  0  0  0  0  0
   55.2940   24.4720   46.0120 C   0  0  0  0  0  0  0  0  0  0  0  0
   54.1120   24.1810   46.3390 O   0  0  0  0  0  0  0  0  0  0  0  0
   56.1250   23.5080   45.2420 C   0  0  0  0  0  0  0  0  0  0  0  0
   55.9370   23.3820   43.8500 C   0  0  0  0  0  0  0  0  0  0  0  0
   56.7060   22.4840   43.1050 C   0  0  0  0  0  0  0  0  0  0  0  0
   57.6720   21.6990   43.7330 C   0  0  0  0  0  0  0  0  0  0  0  0
   57.8730   21.8110   45.1090 C   0  0  0  0  0  0  0  0  0  0  0  0
   57.1100   22.7050   45.8670 C   0  0  0  0  0  0  0  0  0  0  0  0
   57.3430   22.7850   47.2360 O   0  0  0  0  0  0  0  0  0  0  0  0
   56.1980   29.3500   44.2480 N   0  0  0  0  0  0  0  0  0  0  0  0
   56.2510   30.6030   44.6760 N   0  0  0  0  0  0  0  0  0  0  0  0
   57.5370   30.8620   44.9890 C   0  0  0  0  0  0  0  0  0  0  0  0
   57.9940   32.1680   45.5000 C   0  0  0  0  0  0  0  0  0  0  0  0
   58.1870   32.3340   46.8800 C   0  0  0  0  0  0  0  0  0  0  0  0
   58.6220   33.5610   47.3910 C   0  0  0  0  0  0  0  0  0  0  0  0
   58.8800   34.6260   46.5260 C   0  0  0  0  0  0  0  0  0  0  0  0
   58.7140   34.4640   45.1480 C   0  0  0  0  0  0  0  0  0  0  0  0
   58.2840   33.2370   44.6300 C   0  0  0  0  0  0  0  0  0  0  0  0
   58.1760   33.0830   43.2520 O   0  0  0  0  0  0  0  0  0  0  0  0
  1  2  1  0
  2  3  1  0
  3  4  1  0
  4  5  1  0
  5  6  1  0
  6  7  2  0
  6  8  1  0
  8  9  1  0
  9 10  1  0
 10 11  2  0
 10 12  1  0
 12 13  2  0
 13 14  1  0
 14 15  2  0
 15 16  1  0
 16 17  2  0
 17 18  1  0
  3 19  2  0
 19 20  1  0
 20 21  2  0
 21 22  1  0
 22 23  2  0
 23 24  1  0
 24 25  2  0
 25 26  1  0
 26 27  2  0
 27 28  1  0
 21  2  1  0
 27 22  1  0
 17 12  1  0
M  CHG  3   9  -1  18  -1  28  -1
M  END
>  <UniqueID>  (602) 
39

>  <SMILES>  (602) 
Cn1c(SCC(=O)C[N-]C(=O)c2ccccc2[O-])nnc1-c1ccccc1[O-]

>  <Energy>  (602) 
80.44956517035949

>  <Genealogy>  (602) 
Cn1c(SCC(=O)C[N-]C(=O)c2ccccc2[O-])nnc1-c1ccccc1[O-] (protonated)
Cn1c(SCC(=O)C[N-]C(=O)c2ccccc2[O-])nnc1-c1ccccc1[O-] (3D coordinates assigned)
Cn1c(SCC(=O)C[N-]C(=O)c2ccccc2[O-])nnc1-c1ccccc1[O-] (optimized conformer: 80.44956517035949 kcal/mol)

>  <smiles>  (602) 
Cn1c(SCC(=O)CNC(=O)c2ccccc2O)nnc1-c1ccccc1O

>  <score_type>  (602) 
oracle

>  <origin>  (602) 
adg

>  <m_score__min__energy>  (602) 
-15.44

>  <m_primary>  (602) 
energy

$$$$
45:0
     RDKit          3D

 26 28  0  0  0  0  0  0  0  0999 V2000
   56.2060   30.7440   44.4360 O   0  0  0  0  0  0  0  0  0  0  0  0
   56.6160   29.6330   44.8690 C   0  0  0  0  0  0  0  0  0  0  0  0
   55.7050   28.6870   45.2020 N   0  0  0  0  0  0  0  0  0  0  0  0
   56.0780   27.4740   45.6740 C   0  0  0  0  0  0  0  0  0  0  0  0
   55.0980   26.5410   45.9900 O   0  0  0  0  0  0  0  0  0  0  0  0
   57.4360   27.1770   45.8400 C   0  0  0  0  0  0  0  0  0  0  0  0
   57.8720   25.8080   46.3190 C   0  0  0  0  0  0  0  0  0  0  0  0
   57.4560   24.7400   45.3350 C   0  0  0  0  0  0  0  0  0  0  0  0
   57.1140   25.1050   44.0210 C   0  0  0  0  0  0  0  0  0  0  0  0
   56.7010   24.1390   43.1000 C   0  0  0  0  0  0  0  0  0  0  0  0
   56.6250   22.7960   43.4760 C   0  0  0  0  0  0  0  0  0  0  0  0
   56.2100   21.8440   42.5470 O   0  0  0  0  0  0  0  0  0  0  0  0
   56.9670   22.4200   44.7820 C   0  0  0  0  0  0  0  0  0  0  0  0
   57.3820   23.3820   45.7090 C   0  0  0  0  0  0  0  0  0  0  0  0
   57.7220   22.9750   46.9950 O   0  0  0  0  0  0  0  0  0  0  0  0
   58.3750   28.1700   45.4990 C   0  0  0  0  0  0  0  0  0  0  0  0
   59.6050   27.9380   45.6610 O   0  0  0  0  0  0  0  0  0  0  0  0
   57.9590   29.3830   45.0030 N   0  0  0  0  0  0  0  0  0  0  0  0
   58.9410   30.4070   44.5870 C   0  0  0  0  0  0  0  0  0  0  0  0
   58.6460   31.7310   45.2530 C   0  0  0  0  0  0  0  0  0  0  0  0
   58.4060   32.8750   44.4710 C   0  0  0  0  0  0  0  0  0  0  0  0
   58.1590   34.1090   45.0790 C   0  0  0  0  0  0  0  0  0  0  0  0
   58.1520   34.2150   46.4720 C   0  0  0  0  0  0  0  0  0  0  0  0
   58.3870   33.0850   47.2580 C   0  0  0  0  0  0  0  0  0  0  0  0
   58.6340   31.8470   46.6570 C   0  0  0  0  0  0  0  0  0  0  0  0
   58.8490   30.7650   47.4460 F   0  0  0  0  0  0  0  0  0  0  0  0
  1  2  2  0
  2  3  1  0
  3  4  1  0
  4  5  1  0
  4  6  2  0
  6  7  1  0
  7  8  1  0
  8  9  2  0
  9 10  1  0
 10 11  2  0
 11 12  1  0
 11 13  1  0
 13 14  2  0
 14 15  1  0
  6 16  1  0
 16 17  2  0
 16 18  1  0
 18 19  1  0
 19 20  1  0
 20 21  2  0
 21 22  1  0
 22 23  2  0
 23 24  1  0
 24 25  2  0
 25 26  1  0
 18  2  1  0
 25 20  1  0
 14  8  1  0
M  CHG  3   3  -1   5  -1  15  -1
M  END
>  <UniqueID>  (603) 
44

>  <SMILES>  (603) 
O=c1[n-]c([O-])c(Cc2ccc(O)cc2[O-])c(=O)n1Cc1ccccc1F

>  <Energy>  (603) 
47.09932485164325

>  <Genealogy>  (603) 
O=c1[n-]c([O-])c(Cc2ccc(O)cc2[O-])c(=O)n1Cc1ccccc1F (protonated)
O=c1[n-]c([O-])c(Cc2ccc(O)cc2[O-])c(=O)n1Cc1ccccc1F (3D coordinates assigned)
O=c1[n-]c([O-])c(Cc2ccc(O)cc2[O-])c(=O)n1Cc1ccccc1F (optimized conformer: 47.09932485164325 kcal/mol)

>  <smiles>  (603) 
O=c1[nH]c(O)c(Cc2ccc(O)cc2O)c(=O)n1Cc1ccccc1F

>  <score_type>  (603) 
oracle

>  <origin>  (603) 
adg

>  <m_score__min__energy>  (603) 
-15.460000000000001

>  <m_primary>  (603) 
energy

$$$$
64:0
     RDKit          3D

 25 27  0  0  0  0  0  0  0  0999 V2000
   55.1700   30.4210   44.6350 O   0  0  0  0  0  0  0  0  0  0  0  0
   56.0730   29.5430   44.5840 C   0  0  0  0  0  0  0  0  0  0  0  0
   57.3570   29.8320   43.8730 C   0  0  0  0  0  0  0  0  0  0  0  0
   57.8800   31.1480   44.2890 N   0  0  0  0  0  0  0  0  0  0  0  0
   58.0510   32.1450   43.3580 C   0  0  0  0  0  0  0  0  0  0  0  0
   57.7830   31.9440   42.1430 O   0  0  0  0  0  0  0  0  0  0  0  0
   58.5070   33.3660   43.7340 N   0  0  0  0  0  0  0  0  0  0  0  0
   58.7970   33.6480   45.0260 C   0  0  0  0  0  0  0  0  0  0  0  0
   59.2670   34.9190   45.3780 C   0  0  0  0  0  0  0  0  0  0  0  0
   59.5610   35.2120   46.7120 C   0  0  0  0  0  0  0  0  0  0  0  0
   59.3850   34.2380   47.6990 C   0  0  0  0  0  0  0  0  0  0  0  0
   58.9160   32.9660   47.3560 C   0  0  0  0  0  0  0  0  0  0  0  0
   58.6190   32.6620   46.0140 C   0  0  0  0  0  0  0  0  0  0  0  0
   58.1460   31.3990   45.6140 C   0  0  0  0  0  0  0  0  0  0  0  0
   57.9620   30.4990   46.4810 O   0  0  0  0  0  0  0  0  0  0  0  0
   55.8980   28.2870   45.2440 N   0  0  0  0  0  0  0  0  0  0  0  0
   57.0100   27.5190   45.7850 C   0  0  0  0  0  0  0  0  0  0  0  0
   56.4740   26.2960   46.5270 C   0  0  0  0  0  0  0  0  0  0  0  0
   56.3180   25.1310   45.5870 C   0  0  0  0  0  0  0  0  0  0  0  0
   57.4060   24.6960   44.8110 C   0  0  0  0  0  0  0  0  0  0  0  0
   57.2700   23.5940   43.9610 C   0  0  0  0  0  0  0  0  0  0  0  0
   56.0500   22.9140   43.8860 C   0  0  0  0  0  0  0  0  0  0  0  0
   55.9150   21.8190   43.0400 O   0  0  0  0  0  0  0  0  0  0  0  0
   54.9670   23.3340   44.6640 C   0  0  0  0  0  0  0  0  0  0  0  0
   55.1000   24.4350   45.5160 C   0  0  0  0  0  0  0  0  0  0  0  0
  1  2  2  0
  2  3  1  0
  3  4  1  0
  4  5  1  0
  5  6  2  0
  5  7  1  0
  7  8  1  0
  8  9  2  0
  9 10  1  0
 10 11  2  0
 11 12  1  0
 12 13  2  0
 13 14  1  0
 14 15  2  0
  2 16  1  0
 16 17  1  0
 17 18  1  0
 18 19  1  0
 19 20  2  0
 20 21  1  0
 21 22  2  0
 22 23  1  0
 22 24  1  0
 24 25  2  0
 14  4  1  0
 25 19  1  0
 13  8  1  0
M  CHG  3   7  -1  16  -1  23  -1
M  END
>  <UniqueID>  (604) 
63

>  <SMILES>  (604) 
O=C(Cn1c(=O)[n-]c2ccccc2c1=O)[N-]CCc1ccc([O-])cc1

>  <Energy>  (604) 
43.27840125111814

>  <Genealogy>  (604) 
O=C(Cn1c(=O)[n-]c2ccccc2c1=O)[N-]CCc1ccc([O-])cc1 (protonated)
O=C(Cn1c(=O)[n-]c2ccccc2c1=O)[N-]CCc1ccc([O-])cc1 (3D coordinates assigned)
O=C(Cn1c(=O)[n-]c2ccccc2c1=O)[N-]CCc1ccc([O-])cc1 (optimized conformer: 43.27840125111814 kcal/mol)

>  <smiles>  (604) 
O=C(Cn1c(=O)[nH]c2ccccc2c1=O)NCCc1ccc(O)cc1

>  <score_type>  (604) 
oracle

>  <origin>  (604) 
adg

>  <m_score__min__energy>  (604) 
-14.210000000000001

>  <m_primary>  (604) 
energy

$$$$
74:0
     RDKit          3D

 28 30  0  0  0  0  0  0  0  0999 V2000
   57.1050   31.2560   53.1220 O   0  0  0  0  0  0  0  0  0  0  0  0
   56.9000   30.6350   52.0430 C   0  0  0  0  0  0  0  0  0  0  0  0
   57.4530   31.1180   50.8140 N   0  0  0  0  0  0  0  0  0  0  0  0
   58.5280   30.4420   50.0980 C   0  0  0  0  0  0  0  0  0  0  0  0
   58.8820   31.2190   48.8660 C   0  0  0  0  0  0  0  0  0  0  0  0
   59.7020   30.7350   48.0410 O   0  0  0  0  0  0  0  0  0  0  0  0
   58.3050   32.5120   48.6360 N   0  0  0  0  0  0  0  0  0  0  0  0
   58.4070   33.2230   47.3920 C   0  0  0  0  0  0  0  0  0  0  0  0
   57.2750   33.2810   46.5650 C   0  0  0  0  0  0  0  0  0  0  0  0
   57.3210   33.9450   45.3370 C   0  0  0  0  0  0  0  0  0  0  0  0
   58.5040   34.5470   44.9140 C   0  0  0  0  0  0  0  0  0  0  0  0
   59.6470   34.4810   45.7130 C   0  0  0  0  0  0  0  0  0  0  0  0
   59.6200   33.8170   46.9520 C   0  0  0  0  0  0  0  0  0  0  0  0
   60.8400   33.7120   47.7140 N   0  0  0  0  0  0  0  0  0  0  0  0
   60.8430   34.1820   49.1100 C   0  0  0  0  0  0  0  0  0  0  0  0
   62.2130   34.0080   49.7800 C   0  0  0  0  0  0  0  0  0  0  0  0
   63.2510   34.1770   48.8410 O   0  0  0  0  0  0  0  0  0  0  0  0
   63.2510   33.0680   47.9690 C   0  0  0  0  0  0  0  0  0  0  0  0
   61.9970   33.0550   47.0790 C   0  0  0  0  0  0  0  0  0  0  0  0
   56.0720   29.4710   52.0490 N   0  0  0  0  0  0  0  0  0  0  0  0
   54.9730   29.2830   52.9970 C   0  0  0  0  0  0  0  0  0  0  0  0
   53.7950   30.1440   52.6050 C   0  0  0  0  0  0  0  0  0  0  0  0
   53.7200   30.7150   51.3240 C   0  0  0  0  0  0  0  0  0  0  0  0
   52.6710   31.5750   51.0000 C   0  0  0  0  0  0  0  0  0  0  0  0
   51.6840   31.8700   51.9460 C   0  0  0  0  0  0  0  0  0  0  0  0
   50.6390   32.7210   51.6200 O   0  0  0  0  0  0  0  0  0  0  0  0
   51.7470   31.2980   53.2210 C   0  0  0  0  0  0  0  0  0  0  0  0
   52.7970   30.4360   53.5490 C   0  0  0  0  0  0  0  0  0  0  0  0
  1  2  2  0
  2  3  1  0
  3  4  1  0
  4  5  1  0
  5  6  2  0
  5  7  1  0
  7  8  1  0
  8  9  2  0
  9 10  1  0
 10 11  2  0
 11 12  1  0
 12 13  2  0
 13 14  1  0
 14 15  1  0
 15 16  1  0
 16 17  1  0
 17 18  1  0
 18 19  1  0
  2 20  1  0
 20 21  1  0
 21 22  1  0
 22 23  2  0
 23 24  1  0
 24 25  2  0
 25 26  1  0
 25 27  1  0
 27 28  2  0
 13  8  1  0
 19 14  1  0
 28 22  1  0
M  CHG  3   3  -1  20  -1  26  -1
M  END
>  <UniqueID>  (605) 
73

>  <SMILES>  (605) 
O=C([N-]CC(=O)Nc1ccccc1N1CCOCC1)[N-]Cc1ccc([O-])cc1

>  <Energy>  (605) 
57.974444272972605

>  <Genealogy>  (605) 
O=C([N-]CC(=O)Nc1ccccc1N1CCOCC1)[N-]Cc1ccc([O-])cc1 (protonated)
O=C([N-]CC(=O)Nc1ccccc1N1CCOCC1)[N-]Cc1ccc([O-])cc1 (3D coordinates assigned)
O=C([N-]CC(=O)Nc1ccccc1N1CCOCC1)[N-]Cc1ccc([O-])cc1 (nonaromatic ring conformer: 57.974444272972605 kcal/mol)

>  <smiles>  (605) 
O=C(CNC(=O)NCc1ccc(O)cc1)Nc1ccccc1N1CCOCC1

>  <score_type>  (605) 
oracle

>  <origin>  (605) 
adg

>  <m_score__min__energy>  (605) 
-14.380000000000001

>  <m_primary>  (605) 
energy

$$$$
86:0
     RDKit          3D

 36 39  0  0  0  0  0  0  0  0999 V2000
   60.0350   34.9670   47.5560 C   0  0  0  0  0  0  0  0  0  0  0  0
   59.1700   33.9780   46.8210 C   0  0  0  0  0  0  0  0  0  0  0  0
   58.5030   34.3940   45.6550 C   0  0  0  0  0  0  0  0  0  0  0  0
   57.6880   33.5110   44.9480 C   0  0  0  0  0  0  0  0  0  0  0  0
   57.5470   32.1830   45.3720 C   0  0  0  0  0  0  0  0  0  0  0  0
   56.6970   31.2520   44.6830 N   0  0  0  0  0  0  0  0  0  0  0  0
   57.1150   30.1970   43.8040 C   0  0  0  0  0  0  0  0  0  0  0  0
   57.1740   30.4330   42.5700 O   0  0  0  0  0  0  0  0  0  0  0  0
   57.4670   28.8500   44.3040 C   0  0  0  0  0  0  0  0  0  0  0  0
   57.5110   28.5800   45.6820 C   0  0  0  0  0  0  0  0  0  0  0  0
   57.8760   27.3120   46.1420 C   0  0  0  0  0  0  0  0  0  0  0  0
   58.2100   26.2970   45.2320 C   0  0  0  0  0  0  0  0  0  0  0  0
   58.5900   24.9300   45.7220 C   0  0  0  0  0  0  0  0  0  0  0  0
   57.7830   24.5980   46.8910 N   0  0  0  0  0  0  0  0  0  0  0  0
   56.1360   24.3300   46.4130 S   0  0  0  0  0  0  0  0  0  0  0  0
   55.5150   25.6240   45.9560 O   0  0  0  0  0  0  0  0  0  0  0  0
   55.3620   23.8010   47.5890 O   0  0  0  0  0  0  0  0  0  0  0  0
   56.1030   23.1570   45.1210 N   0  0  0  0  0  0  0  0  0  0  0  0
   57.2150   22.2060   45.2800 C   0  0  0  0  0  0  0  0  0  0  0  0
   57.2070   21.1790   44.1280 C   0  0  0  0  0  0  0  0  0  0  0  0
   56.2630   21.5060   43.1240 O   0  0  0  0  0  0  0  0  0  0  0  0
   56.4710   22.8340   42.6860 C   0  0  0  0  0  0  0  0  0  0  0  0
   56.2010   23.8420   43.8210 C   0  0  0  0  0  0  0  0  0  0  0  0
   58.1300   26.5560   43.8550 C   0  0  0  0  0  0  0  0  0  0  0  0
   57.7610   27.8220   43.3940 C   0  0  0  0  0  0  0  0  0  0  0  0
   58.1940   31.7650   46.5390 C   0  0  0  0  0  0  0  0  0  0  0  0
   59.0180   32.6410   47.2660 C   0  0  0  0  0  0  0  0  0  0  0  0
   59.7890   32.0550   48.7520 S   0  0  0  0  0  0  0  0  0  0  0  0
   59.9260   33.1890   49.7320 O   0  0  0  0  0  0  0  0  0  0  0  0
   58.9110   30.9880   49.3490 O   0  0  0  0  0  0  0  0  0  0  0  0
   61.3720   31.3940   48.3840 N   0  0  0  0  0  0  0  0  0  0  0  0
   61.8880   31.8970   47.0900 C   0  0  0  0  0  0  0  0  0  0  0  0
   62.9080   33.0390   47.2620 C   0  0  0  0  0  0  0  0  0  0  0  0
   62.5780   33.8300   48.3810 O   0  0  0  0  0  0  0  0  0  0  0  0
   62.7570   33.0980   49.5840 C   0  0  0  0  0  0  0  0  0  0  0  0
   62.3270   31.6150   49.4830 C   0  0  0  0  0  0  0  0  0  0  0  0
  1  2  1  0
  2  3  2  0
  3  4  1  0
  4  5  2  0
  5  6  1  0
  6  7  1  0
  7  8  2  0
  7  9  1  0
  9 10  2  0
 10 11  1  0
 11 12  2  0
 12 13  1  0
 13 14  1  0
 14 15  1  0
 15 16  2  0
 15 17  2  0
 15 18  1  0
 18 19  1  0
 19 20  1  0
 20 21  1  0
 21 22  1  0
 22 23  1  0
 12 24  1  0
 24 25  2  0
  5 26  1  0
 26 27  2  0
 27 28  1  0
 28 29  2  0
 28 30  2  0
 28 31  1  0
 31 32  1  0
 32 33  1  0
 33 34  1  0
 34 35  1  0
 35 36  1  0
 27  2  1  0
 36 31  1  0
 25  9  1  0
 23 18  1  0
M  CHG  2   6  -1  14  -1
M  END
>  <UniqueID>  (606) 
85

>  <SMILES>  (606) 
Cc1ccc([N-]C(=O)c2ccc(C[N-]S(=O)(=O)N3CCOCC3)cc2)cc1S(=O)(=O)N1CCOCC1

>  <Energy>  (606) 
89.33325027473427

>  <Genealogy>  (606) 
Cc1ccc([N-]C(=O)c2ccc(C[N-]S(=O)(=O)N3CCOCC3)cc2)cc1S(=O)(=O)N1CCOCC1 (protonated)
Cc1ccc([N-]C(=O)c2ccc(C[N-]S(=O)(=O)N3CCOCC3)cc2)cc1S(=O)(=O)N1CCOCC1 (3D coordinates assigned)
Cc1ccc([N-]C(=O)c2ccc(C[N-]S(=O)(=O)N3CCOCC3)cc2)cc1S(=O)(=O)N1CCOCC1 (nonaromatic ring conformer: 89.33325027473427 kcal/mol)

>  <smiles>  (606) 
Cc1ccc(NC(=O)c2ccc(CNS(=O)(=O)N3CCOCC3)cc2)cc1S(=O)(=O)N1CCOCC1

>  <score_type>  (606) 
oracle

>  <origin>  (606) 
adg

>  <m_score__min__energy>  (606) 
-14.27

>  <m_primary>  (606) 
energy

$$$$
11:0
     RDKit          3D

 26 28  0  0  0  0  0  0  0  0999 V2000
   51.3640   30.7670   49.1590 C   0  0  0  0  0  0  0  0  0  0  0  0
   50.8910   31.9550   49.6700 C   0  0  0  0  0  0  0  0  0  0  0  0
   50.0540   32.8280   48.9890 O   0  0  0  0  0  0  0  0  0  0  0  0
   51.3310   32.1790   50.9220 N   0  0  0  0  0  0  0  0  0  0  0  0
   52.1070   31.1140   51.2100 C   0  0  0  0  0  0  0  0  0  0  0  0
   52.7820   30.9160   52.5070 C   0  0  0  0  0  0  0  0  0  0  0  0
   52.4040   31.5860   53.5040 O   0  0  0  0  0  0  0  0  0  0  0  0
   53.9120   30.0450   52.6500 N   0  0  0  0  0  0  0  0  0  0  0  0
   55.1590   30.3740   52.4830 C   0  0  0  0  0  0  0  0  0  0  0  0
   55.5560   31.6600   52.3900 N   0  0  0  0  0  0  0  0  0  0  0  0
   56.8750   31.7950   52.2760 N   0  0  0  0  0  0  0  0  0  0  0  0
   57.5400   30.6170   52.2970 C   0  0  0  0  0  0  0  0  0  0  0  0
   59.0140   30.4960   52.0870 C   0  0  0  0  0  0  0  0  0  0  0  0
   59.3890   31.2000   50.8210 C   0  0  0  0  0  0  0  0  0  0  0  0
   60.2050   30.6610   50.0250 O   0  0  0  0  0  0  0  0  0  0  0  0
   58.8820   32.5140   50.5560 N   0  0  0  0  0  0  0  0  0  0  0  0
   59.6800   33.5100   49.8470 C   0  0  0  0  0  0  0  0  0  0  0  0
   59.2260   33.5850   48.4150 C   0  0  0  0  0  0  0  0  0  0  0  0
   58.2550   32.6920   47.9340 C   0  0  0  0  0  0  0  0  0  0  0  0
   57.7770   32.8090   46.6250 C   0  0  0  0  0  0  0  0  0  0  0  0
   58.2510   33.8270   45.7950 C   0  0  0  0  0  0  0  0  0  0  0  0
   59.2080   34.7280   46.2700 C   0  0  0  0  0  0  0  0  0  0  0  0
   59.6590   35.7230   45.4670 F   0  0  0  0  0  0  0  0  0  0  0  0
   59.6940   34.6090   47.5760 C   0  0  0  0  0  0  0  0  0  0  0  0
   56.4780   29.3160   52.4450 S   0  0  0  0  0  0  0  0  0  0  0  0
   52.1430   30.2210   50.1530 C   0  0  0  0  0  0  0  0  0  0  0  0
  1  2  2  0
  2  3  1  0
  2  4  1  0
  4  5  1  0
  5  6  1  0
  6  7  2  0
  6  8  1  0
  8  9  2  0
  9 10  1  0
 10 11  1  0
 11 12  2  0
 12 13  1  0
 13 14  1  0
 14 15  2  0
 14 16  1  0
 16 17  1  0
 17 18  1  0
 18 19  2  0
 19 20  1  0
 20 21  2  0
 21 22  1  0
 22 23  1  0
 22 24  2  0
 12 25  1  0
  5 26  2  0
 26  1  1  0
 25  9  1  0
 24 18  1  0
M  CHG  3   3  -1   4  -1  10  -1
M  END
>  <UniqueID>  (607) 
12

>  <SMILES>  (607) 
O=C(Cc1n[n-]/c(=N/C(=O)c2ccc([O-])[n-]2)s1)NCc1cccc(F)c1

>  <Energy>  (607) 
97.20163296903301

>  <Genealogy>  (607) 
O=C(Cc1n[n-]c(=NC(=O)c2ccc([O-])[n-]2)s1)NCc1cccc(F)c1 (protonated)
O=C(Cc1n[n-]/c(=N/C(=O)c2ccc([O-])[n-]2)s1)NCc1cccc(F)c1 (cis-trans isomerization)
O=C(Cc1n[n-]/c(=N/C(=O)c2ccc([O-])[n-]2)s1)NCc1cccc(F)c1 (3D coordinates assigned)
O=C(Cc1n[n-]/c(=N/C(=O)c2ccc([O-])[n-]2)s1)NCc1cccc(F)c1 (optimized conformer: 97.20163296903301 kcal/mol)

>  <smiles>  (607) 
O=C(Cc1n[nH]c(=NC(=O)c2ccc(O)[nH]2)s1)NCc1cccc(F)c1

>  <score_type>  (607) 
oracle

>  <origin>  (607) 
adg

>  <m_score__min__energy>  (607) 
-15.57

>  <m_primary>  (607) 
energy

$$$$
14:0
     RDKit          3D

 30 32  0  0  0  0  0  0  0  0999 V2000
   57.9310   23.9910   46.0360 C   0  0  0  0  0  0  0  0  0  0  0  0
   58.1320   25.2690   46.4530 N   0  0  0  0  0  0  0  0  0  0  0  0
   57.1470   26.2120   46.4380 C   0  0  0  0  0  0  0  0  0  0  0  0
   57.4560   27.4170   46.8390 N   0  0  0  0  0  0  0  0  0  0  0  0
   58.3850   28.3430   46.2550 C   0  0  0  0  0  0  0  0  0  0  0  0
   59.6120   28.1960   46.5120 O   0  0  0  0  0  0  0  0  0  0  0  0
   57.9360   29.3850   45.2800 C   0  0  0  0  0  0  0  0  0  0  0  0
   57.0610   29.0180   44.2430 C   0  0  0  0  0  0  0  0  0  0  0  0
   56.6130   29.9560   43.3190 C   0  0  0  0  0  0  0  0  0  0  0  0
   57.0210   31.2810   43.4140 C   0  0  0  0  0  0  0  0  0  0  0  0
   57.9010   31.6880   44.4330 C   0  0  0  0  0  0  0  0  0  0  0  0
   58.2820   33.0340   44.5540 O   0  0  0  0  0  0  0  0  0  0  0  0
   57.4020   34.1090   44.8710 C   0  0  0  0  0  0  0  0  0  0  0  0
   58.3920   30.7270   45.3590 C   0  0  0  0  0  0  0  0  0  0  0  0
   59.3190   31.0510   46.3710 O   0  0  0  0  0  0  0  0  0  0  0  0
   59.0260   31.4070   47.7200 C   0  0  0  0  0  0  0  0  0  0  0  0
   58.5660   32.8270   47.8160 C   0  0  0  0  0  0  0  0  0  0  0  0
   57.3490   33.1050   47.6390 O   0  0  0  0  0  0  0  0  0  0  0  0
   59.4940   33.8370   48.2270 N   0  0  0  0  0  0  0  0  0  0  0  0
   60.9090   33.8130   48.0030 C   0  0  0  0  0  0  0  0  0  0  0  0
   61.3770   33.8570   46.6820 C   0  0  0  0  0  0  0  0  0  0  0  0
   62.7480   33.8290   46.4140 C   0  0  0  0  0  0  0  0  0  0  0  0
   63.6650   33.7670   47.4680 C   0  0  0  0  0  0  0  0  0  0  0  0
   63.2130   33.7660   48.7900 C   0  0  0  0  0  0  0  0  0  0  0  0
   61.8400   33.8100   49.0640 C   0  0  0  0  0  0  0  0  0  0  0  0
   61.4170   33.8940   50.3870 O   0  0  0  0  0  0  0  0  0  0  0  0
   55.8500   25.8340   46.0030 C   0  0  0  0  0  0  0  0  0  0  0  0
   54.7690   26.7080   46.0340 O   0  0  0  0  0  0  0  0  0  0  0  0
   55.6350   24.5250   45.5580 C   0  0  0  0  0  0  0  0  0  0  0  0
   56.6770   23.5980   45.5700 C   0  0  0  0  0  0  0  0  0  0  0  0
  1  2  1  0
  2  3  1  0
  3  4  2  0
  4  5  1  0
  5  6  2  0
  5  7  1  0
  7  8  2  0
  8  9  1  0
  9 10  2  0
 10 11  1  0
 11 12  1  0
 12 13  1  0
 11 14  2  0
 14 15  1  0
 15 16  1  0
 16 17  1  0
 17 18  2  0
 17 19  1  0
 19 20  1  0
 20 21  2  0
 21 22  1  0
 22 23  2  0
 23 24  1  0
 24 25  2  0
 25 26  1  0
  3 27  1  0
 27 28  1  0
 27 29  2  0
 29 30  1  0
 30  1  2  0
 14  7  1  0
 25 20  1  0
M  CHG  4   2  -1  19  -1  26  -1  28  -1
M  END
>  <UniqueID>  (608) 
15

>  <SMILES>  (608) 
COc1cccc(C(=O)/N=c2/[n-]cccc2[O-])c1OCC(=O)[N-]c1ccccc1[O-]

>  <Energy>  (608) 
72.36083223974983

>  <Genealogy>  (608) 
COc1cccc(C(=O)N=c2[n-]cccc2[O-])c1OCC(=O)[N-]c1ccccc1[O-] (protonated)
COc1cccc(C(=O)/N=c2/[n-]cccc2[O-])c1OCC(=O)[N-]c1ccccc1[O-] (cis-trans isomerization)
COc1cccc(C(=O)/N=c2/[n-]cccc2[O-])c1OCC(=O)[N-]c1ccccc1[O-] (3D coordinates assigned)
COc1cccc(C(=O)/N=c2/[n-]cccc2[O-])c1OCC(=O)[N-]c1ccccc1[O-] (optimized conformer: 72.36083223974983 kcal/mol)

>  <smiles>  (608) 
COc1cccc(C(=O)N=c2[nH]cccc2O)c1OCC(=O)Nc1ccccc1O

>  <score_type>  (608) 
oracle

>  <origin>  (608) 
adg

>  <m_score__min__energy>  (608) 
-16.32

>  <m_primary>  (608) 
energy

$$$$
18:0
     RDKit          3D

 30 32  0  0  0  0  0  0  0  0999 V2000
   57.3120   30.1030   54.1140 O   0  0  0  0  0  0  0  0  0  0  0  0
   56.5750   30.2940   53.1090 C   0  0  0  0  0  0  0  0  0  0  0  0
   56.3640   31.6910   52.6020 C   0  0  0  0  0  0  0  0  0  0  0  0
   57.5540   32.1750   51.8800 N   0  0  0  0  0  0  0  0  0  0  0  0
   58.0530   33.4100   52.1930 C   0  0  0  0  0  0  0  0  0  0  0  0
   59.1400   33.9370   51.4970 C   0  0  0  0  0  0  0  0  0  0  0  0
   59.7160   33.2110   50.4550 C   0  0  0  0  0  0  0  0  0  0  0  0
   60.7930   33.8060   49.7220 N   0  0  0  0  0  0  0  0  0  0  0  0
   61.1420   33.4660   48.3740 C   0  0  0  0  0  0  0  0  0  0  0  0
   62.2850   33.0000   48.1150 O   0  0  0  0  0  0  0  0  0  0  0  0
   60.1470   33.6350   47.3020 C   0  0  0  0  0  0  0  0  0  0  0  0
   60.0800   34.8190   46.5480 C   0  0  0  0  0  0  0  0  0  0  0  0
   59.1210   34.9380   45.5400 C   0  0  0  0  0  0  0  0  0  0  0  0
   58.2400   33.8840   45.2900 C   0  0  0  0  0  0  0  0  0  0  0  0
   58.3330   32.7210   46.0570 C   0  0  0  0  0  0  0  0  0  0  0  0
   59.2740   32.6230   47.0350 N   0  0  0  0  0  0  0  0  0  0  0  0
   59.2280   31.9220   50.1630 C   0  0  0  0  0  0  0  0  0  0  0  0
   59.8340   31.1010   49.2090 O   0  0  0  0  0  0  0  0  0  0  0  0
   58.1210   31.4340   50.8730 C   0  0  0  0  0  0  0  0  0  0  0  0
   57.6570   30.2980   50.5770 O   0  0  0  0  0  0  0  0  0  0  0  0
   55.9620   29.1860   52.4430 N   0  0  0  0  0  0  0  0  0  0  0  0
   54.8090   28.4710   52.9720 C   0  0  0  0  0  0  0  0  0  0  0  0
   53.8740   29.4460   53.6880 C   0  0  0  0  0  0  0  0  0  0  0  0
   53.0500   30.2350   52.7010 C   0  0  0  0  0  0  0  0  0  0  0  0
   52.1950   31.2580   53.1460 C   0  0  0  0  0  0  0  0  0  0  0  0
   51.4040   31.9610   52.2320 C   0  0  0  0  0  0  0  0  0  0  0  0
   51.4500   31.6410   50.8720 C   0  0  0  0  0  0  0  0  0  0  0  0
   50.6600   32.3380   49.9680 O   0  0  0  0  0  0  0  0  0  0  0  0
   52.2900   30.6170   50.4250 C   0  0  0  0  0  0  0  0  0  0  0  0
   53.0840   29.9130   51.3340 C   0  0  0  0  0  0  0  0  0  0  0  0
  1  2  2  0
  2  3  1  0
  3  4  1  0
  4  5  1  0
  5  6  2  0
  6  7  1  0
  7  8  1  0
  8  9  1  0
  9 10  2  0
  9 11  1  0
 11 12  2  0
 12 13  1  0
 13 14  2  0
 14 15  1  0
 15 16  2  0
  7 17  2  0
 17 18  1  0
 17 19  1  0
 19 20  2  0
  2 21  1  0
 21 22  1  0
 22 23  1  0
 23 24  1  0
 24 25  2  0
 25 26  1  0
 26 27  2  0
 27 28  1  0
 27 29  1  0
 29 30  2  0
 19  4  1  0
 30 24  1  0
 16 11  1  0
M  CHG  3   8  -1  21  -1  28  -1
M  END
>  <UniqueID>  (609) 
19

>  <SMILES>  (609) 
O=C(Cn1ccc([N-]C(=O)c2ccccn2)c(O)c1=O)[N-]CCc1ccc([O-])cc1

>  <Energy>  (609) 
50.56573863443283

>  <Genealogy>  (609) 
O=C(Cn1ccc([N-]C(=O)c2ccccn2)c(O)c1=O)[N-]CCc1ccc([O-])cc1 (protonated)
O=C(Cn1ccc([N-]C(=O)c2ccccn2)c(O)c1=O)[N-]CCc1ccc([O-])cc1 (3D coordinates assigned)
O=C(Cn1ccc([N-]C(=O)c2ccccn2)c(O)c1=O)[N-]CCc1ccc([O-])cc1 (optimized conformer: 50.56573863443283 kcal/mol)

>  <smiles>  (609) 
O=C(Cn1ccc(NC(=O)c2ccccn2)c(O)c1=O)NCCc1ccc(O)cc1

>  <score_type>  (609) 
oracle

>  <origin>  (609) 
adg

>  <m_score__min__energy>  (609) 
-14.4

>  <m_primary>  (609) 
energy

$$$$
44:0
     RDKit          3D

 27 29  0  0  0  0  0  0  0  0999 V2000
   58.9930   34.3830   44.5400 C   0  0  0  0  0  0  0  0  0  0  0  0
   58.4950   33.4190   43.7250 N   0  0  0  0  0  0  0  0  0  0  0  0
   57.7910   32.3670   44.2260 C   0  0  0  0  0  0  0  0  0  0  0  0
   57.3260   31.4410   43.4460 N   0  0  0  0  0  0  0  0  0  0  0  0
   56.9800   29.8210   43.9680 S   0  0  0  0  0  0  0  0  0  0  0  0
   56.7320   28.9630   42.7580 O   0  0  0  0  0  0  0  0  0  0  0  0
   55.7460   29.8340   44.8240 O   0  0  0  0  0  0  0  0  0  0  0  0
   58.3250   29.1820   44.9090 C   0  0  0  0  0  0  0  0  0  0  0  0
   59.2970   30.0480   45.4230 C   0  0  0  0  0  0  0  0  0  0  0  0
   60.3610   29.5400   46.1710 C   0  0  0  0  0  0  0  0  0  0  0  0
   60.4610   28.1670   46.4110 C   0  0  0  0  0  0  0  0  0  0  0  0
   59.4920   27.2830   45.9010 C   0  0  0  0  0  0  0  0  0  0  0  0
   59.5960   25.8280   46.1530 C   0  0  0  0  0  0  0  0  0  0  0  0
   60.7040   25.2410   46.0150 O   0  0  0  0  0  0  0  0  0  0  0  0
   58.4700   25.1040   46.6610 N   0  0  0  0  0  0  0  0  0  0  0  0
   57.2490   25.0700   46.2010 C   0  0  0  0  0  0  0  0  0  0  0  0
   56.3450   26.0020   46.5710 N   0  0  0  0  0  0  0  0  0  0  0  0
   55.2370   25.6510   45.8950 C   0  0  0  0  0  0  0  0  0  0  0  0
   54.0340   26.3390   45.9740 O   0  0  0  0  0  0  0  0  0  0  0  0
   55.4670   24.5400   45.1240 C   0  0  0  0  0  0  0  0  0  0  0  0
   56.7500   24.1740   45.3020 N   0  0  0  0  0  0  0  0  0  0  0  0
   57.4090   23.1030   44.5540 C   0  0  0  0  0  0  0  0  0  0  0  0
   58.4290   27.8030   45.1410 C   0  0  0  0  0  0  0  0  0  0  0  0
   57.5790   32.2780   45.5670 N   0  0  0  0  0  0  0  0  0  0  0  0
   58.0560   33.2240   46.4210 C   0  0  0  0  0  0  0  0  0  0  0  0
   57.8160   33.0900   47.8910 C   0  0  0  0  0  0  0  0  0  0  0  0
   58.7850   34.3050   45.9160 C   0  0  0  0  0  0  0  0  0  0  0  0
  1  2  1  0
  2  3  1  0
  3  4  2  0
  4  5  1  0
  5  6  2  0
  5  7  2  0
  5  8  1  0
  8  9  2  0
  9 10  1  0
 10 11  2  0
 11 12  1  0
 12 13  1  0
 13 14  2  0
 13 15  1  0
 15 16  2  3
 16 17  1  0
 17 18  1  0
 18 19  1  0
 18 20  2  0
 20 21  1  0
 21 22  1  0
 12 23  2  0
  3 24  1  0
 24 25  2  0
 25 26  1  0
 25 27  1  0
 27  1  2  0
 23  8  1  0
 21 16  1  0
M  CHG  3   2  -1  17  -1  19  -1
M  END
>  <UniqueID>  (610) 
44

>  <SMILES>  (610) 
Cc1cc[n-]/c(=N\S(=O)(=O)c2cccc(C(=O)N=c3[n-]c([O-])cn3C)c2)n1

>  <Energy>  (610) 
87.71342500590953

>  <Genealogy>  (610) 
Cc1cc[n-]c(=NS(=O)(=O)c2cccc(C(=O)N=c3[n-]c([O-])cn3C)c2)n1 (protonated)
Cc1cc[n-]/c(=N\S(=O)(=O)c2cccc(C(=O)N=c3[n-]c([O-])cn3C)c2)n1 (cis-trans isomerization)
Cc1cc[n-]/c(=N\S(=O)(=O)c2cccc(C(=O)N=c3[n-]c([O-])cn3C)c2)n1 (3D coordinates assigned)
Cc1cc[n-]/c(=N\S(=O)(=O)c2cccc(C(=O)N=c3[n-]c([O-])cn3C)c2)n1 (optimized conformer: 87.71342500590953 kcal/mol)

>  <smiles>  (610) 
Cc1cc[nH]c(=NS(=O)(=O)c2cccc(C(=O)N=c3[nH]c(O)cn3C)c2)n1

>  <score_type>  (610) 
oracle

>  <origin>  (610) 
adg

>  <m_score__min__energy>  (610) 
-15.52

>  <m_primary>  (610) 
energy

$$$$
48:0
     RDKit          3D

 31 34  0  0  0  0  0  0  0  0999 V2000
   60.0540   27.4110   47.9170 C   0  0  0  0  0  0  0  0  0  0  0  0
   60.3390   28.7960   47.5300 N   0  0  0  0  0  0  0  0  0  0  0  0
   60.9100   29.7140   48.5260 C   0  0  0  0  0  0  0  0  0  0  0  0
   59.8210   30.3790   49.3230 C   0  0  0  0  0  0  0  0  0  0  0  0
   59.5020   31.7300   49.1210 C   0  0  0  0  0  0  0  0  0  0  0  0
   58.4980   32.3200   49.8920 C   0  0  0  0  0  0  0  0  0  0  0  0
   57.8260   31.5640   50.8540 C   0  0  0  0  0  0  0  0  0  0  0  0
   58.1710   30.2240   51.0310 C   0  0  0  0  0  0  0  0  0  0  0  0
   59.1510   29.6660   50.2710 N   0  0  0  0  0  0  0  0  0  0  0  0
   60.1750   29.1780   46.1460 C   0  0  0  0  0  0  0  0  0  0  0  0
   60.8110   28.5580   45.2500 O   0  0  0  0  0  0  0  0  0  0  0  0
   59.2380   30.2480   45.7370 C   0  0  0  0  0  0  0  0  0  0  0  0
   59.5930   31.5410   46.0090 N   0  0  0  0  0  0  0  0  0  0  0  0
   58.7360   32.5470   45.7200 C   0  0  0  0  0  0  0  0  0  0  0  0
   58.9460   33.8530   45.9230 N   0  0  0  0  0  0  0  0  0  0  0  0
   57.7870   34.3990   45.4660 C   0  0  0  0  0  0  0  0  0  0  0  0
   56.8840   33.4970   44.9970 N   0  0  0  0  0  0  0  0  0  0  0  0
   57.5210   32.3300   45.1760 C   0  0  0  0  0  0  0  0  0  0  0  0
   57.0860   31.0470   44.8680 C   0  0  0  0  0  0  0  0  0  0  0  0
   55.9560   30.8710   44.3360 O   0  0  0  0  0  0  0  0  0  0  0  0
   57.9610   29.9630   45.1470 C   0  0  0  0  0  0  0  0  0  0  0  0
   57.5670   28.5810   44.7790 C   0  0  0  0  0  0  0  0  0  0  0  0
   57.9050   28.1110   43.6580 O   0  0  0  0  0  0  0  0  0  0  0  0
   56.7470   27.8100   45.6670 N   0  0  0  0  0  0  0  0  0  0  0  0
   56.8060   26.3900   45.8650 C   0  0  0  0  0  0  0  0  0  0  0  0
   58.0320   25.7050   45.9640 C   0  0  0  0  0  0  0  0  0  0  0  0
   58.0530   24.3240   46.1820 C   0  0  0  0  0  0  0  0  0  0  0  0
   56.8550   23.6180   46.3170 C   0  0  0  0  0  0  0  0  0  0  0  0
   55.6350   24.2940   46.2450 C   0  0  0  0  0  0  0  0  0  0  0  0
   55.6080   25.6750   46.0270 C   0  0  0  0  0  0  0  0  0  0  0  0
   54.3870   26.3360   45.9650 O   0  0  0  0  0  0  0  0  0  0  0  0
  1  2  1  0
  2  3  1  0
  3  4  1  0
  4  5  2  0
  5  6  1  0
  6  7  2  0
  7  8  1  0
  8  9  2  0
  2 10  1  0
 10 11  2  0
 10 12  1  0
 12 13  1  0
 13 14  1  0
 14 15  1  0
 15 16  1  0
 16 17  2  0
 17 18  1  0
 18 19  1  0
 19 20  2  0
 19 21  1  0
 21 22  1  0
 22 23  2  0
 22 24  1  0
 24 25  1  0
 25 26  2  0
 26 27  1  0
 27 28  2  0
 28 29  1  0
 29 30  2  0
 30 31  1  0
  9  4  1  0
 21 12  2  0
 30 25  1  0
 18 14  2  0
M  CHG  4  13  -1  15  -1  24  -1  31  -1
M  END
>  <UniqueID>  (611) 
47

>  <SMILES>  (611) 
CN(Cc1ccccn1)C(=O)c1[n-]c2[n-]cnc2c(=O)c1C(=O)[N-]c1ccccc1[O-]

>  <Energy>  (611) 
100.62130063893278

>  <Genealogy>  (611) 
CN(Cc1ccccn1)C(=O)c1[n-]c2[n-]cnc2c(=O)c1C(=O)[N-]c1ccccc1[O-] (protonated)
CN(Cc1ccccn1)C(=O)c1[n-]c2[n-]cnc2c(=O)c1C(=O)[N-]c1ccccc1[O-] (3D coordinates assigned)
CN(Cc1ccccn1)C(=O)c1[n-]c2[n-]cnc2c(=O)c1C(=O)[N-]c1ccccc1[O-] (optimized conformer: 100.62130063893278 kcal/mol)

>  <smiles>  (611) 
CN(Cc1ccccn1)C(=O)c1[nH]c2[nH]cnc2c(=O)c1C(=O)Nc1ccccc1O

>  <score_type>  (611) 
oracle

>  <origin>  (611) 
adg

>  <m_score__min__energy>  (611) 
-15.039999999999999

>  <m_primary>  (611) 
energy

$$$$
74:0
     RDKit          3D

 29 31  0  0  0  0  0  0  0  0999 V2000
   55.1440   29.3010   44.8430 N   0  0  0  0  0  0  0  0  0  0  0  0
   56.2150   29.8420   44.0720 C   0  0  0  0  0  0  0  0  0  0  0  0
   56.1950   29.7030   42.8190 O   0  0  0  0  0  0  0  0  0  0  0  0
   57.3460   30.5330   44.7430 C   0  0  0  0  0  0  0  0  0  0  0  0
   57.3100   31.9350   44.8730 C   0  0  0  0  0  0  0  0  0  0  0  0
   58.3250   32.6180   45.5440 C   0  0  0  0  0  0  0  0  0  0  0  0
   59.3960   31.9140   46.0930 C   0  0  0  0  0  0  0  0  0  0  0  0
   59.4590   30.5260   45.9620 C   0  0  0  0  0  0  0  0  0  0  0  0
   58.4430   29.8220   45.2950 C   0  0  0  0  0  0  0  0  0  0  0  0
   58.5760   28.4040   45.1050 N   0  0  0  0  0  0  0  0  0  0  0  0
   57.8240   27.4420   45.8660 C   0  0  0  0  0  0  0  0  0  0  0  0
   57.0330   27.8380   46.7660 O   0  0  0  0  0  0  0  0  0  0  0  0
   57.9530   25.9870   45.6090 C   0  0  0  0  0  0  0  0  0  0  0  0
   59.1800   25.3180   45.7780 C   0  0  0  0  0  0  0  0  0  0  0  0
   59.2790   23.9460   45.5260 C   0  0  0  0  0  0  0  0  0  0  0  0
   58.1630   23.2280   45.0930 C   0  0  0  0  0  0  0  0  0  0  0  0
   56.9390   23.8820   44.9040 C   0  0  0  0  0  0  0  0  0  0  0  0
   55.5220   22.9890   44.3600 S   0  0  0  0  0  0  0  0  0  0  0  0
   54.4040   23.9610   44.1030 O   0  0  0  0  0  0  0  0  0  0  0  0
   55.8170   22.2390   43.0900 O   0  0  0  0  0  0  0  0  0  0  0  0
   55.0310   21.8640   45.5830 N   0  0  0  0  0  0  0  0  0  0  0  0
   55.9180   21.1790   46.4800 C   0  0  0  0  0  0  0  0  0  0  0  0
   56.2390   19.8210   46.3220 C   0  0  0  0  0  0  0  0  0  0  0  0
   57.1110   19.2000   47.2200 C   0  0  0  0  0  0  0  0  0  0  0  0
   57.6560   19.9420   48.2680 C   0  0  0  0  0  0  0  0  0  0  0  0
   57.3390   21.2540   48.4090 N   0  0  0  0  0  0  0  0  0  0  0  0
   56.4950   21.8850   47.5480 C   0  0  0  0  0  0  0  0  0  0  0  0
   56.2450   23.1090   47.7130 O   0  0  0  0  0  0  0  0  0  0  0  0
   56.8380   25.2560   45.1570 C   0  0  0  0  0  0  0  0  0  0  0  0
  1  2  1  0
  2  3  2  0
  2  4  1  0
  4  5  2  0
  5  6  1  0
  6  7  2  0
  7  8  1  0
  8  9  2  0
  9 10  1  0
 10 11  1  0
 11 12  2  0
 11 13  1  0
 13 14  2  0
 14 15  1  0
 15 16  2  0
 16 17  1  0
 17 18  1  0
 18 19  2  0
 18 20  2  0
 18 21  1  0
 21 22  1  0
 22 23  2  0
 23 24  1  0
 24 25  2  0
 25 26  1  0
 26 27  1  0
 27 28  2  0
 17 29  2  0
  9  4  1  0
 29 13  1  0
 27 22  1  0
M  CHG  3   1  -1  21  -1  26  -1
M  END
>  <UniqueID>  (612) 
71

>  <SMILES>  (612) 
[NH-]C(=O)c1ccccc1NC(=O)c1cccc(S(=O)(=O)[N-]c2ccc[n-]c2=O)c1

>  <Energy>  (612) 
59.69370639979215

>  <Genealogy>  (612) 
[NH-]C(=O)c1ccccc1NC(=O)c1cccc(S(=O)(=O)[N-]c2ccc[n-]c2=O)c1 (protonated)
[NH-]C(=O)c1ccccc1NC(=O)c1cccc(S(=O)(=O)[N-]c2ccc[n-]c2=O)c1 (3D coordinates assigned)
[NH-]C(=O)c1ccccc1NC(=O)c1cccc(S(=O)(=O)[N-]c2ccc[n-]c2=O)c1 (optimized conformer: 59.69370639979215 kcal/mol)

>  <smiles>  (612) 
NC(=O)c1ccccc1NC(=O)c1cccc(S(=O)(=O)Nc2ccc[nH]c2=O)c1

>  <score_type>  (612) 
oracle

>  <origin>  (612) 
adg

>  <m_score__min__energy>  (612) 
-14.66

>  <m_primary>  (612) 
energy

$$$$
84:0
     RDKit          3D

 28 30  0  0  0  0  0  0  0  0999 V2000
   56.8760   23.0930   45.8570 C   0  0  0  0  0  0  0  0  0  0  0  0
   57.4560   24.1970   46.3950 N   0  0  0  0  0  0  0  0  0  0  0  0
   56.8140   25.4010   46.4470 C   0  0  0  0  0  0  0  0  0  0  0  0
   57.3810   26.4420   46.9870 N   0  0  0  0  0  0  0  0  0  0  0  0
   58.2700   27.3640   46.3360 C   0  0  0  0  0  0  0  0  0  0  0  0
   59.4900   27.3520   46.6470 O   0  0  0  0  0  0  0  0  0  0  0  0
   57.7940   28.3410   45.3360 C   0  0  0  0  0  0  0  0  0  0  0  0
   57.7650   28.0120   43.9710 C   0  0  0  0  0  0  0  0  0  0  0  0
   57.3230   28.9500   43.0340 C   0  0  0  0  0  0  0  0  0  0  0  0
   56.9370   30.2280   43.4470 C   0  0  0  0  0  0  0  0  0  0  0  0
   56.9940   30.5790   44.8010 C   0  0  0  0  0  0  0  0  0  0  0  0
   56.7020   31.9290   45.1820 N   0  0  0  0  0  0  0  0  0  0  0  0
   57.7210   33.2740   44.7800 S   0  0  0  0  0  0  0  0  0  0  0  0
   58.2840   33.0800   43.4000 O   0  0  0  0  0  0  0  0  0  0  0  0
   56.9170   34.5430   44.8060 O   0  0  0  0  0  0  0  0  0  0  0  0
   59.0520   33.3440   45.9350 C   0  0  0  0  0  0  0  0  0  0  0  0
   59.4270   34.5590   46.5270 C   0  0  0  0  0  0  0  0  0  0  0  0
   60.3960   34.5820   47.5340 C   0  0  0  0  0  0  0  0  0  0  0  0
   61.0100   33.3870   47.9550 C   0  0  0  0  0  0  0  0  0  0  0  0
   61.9620   33.3510   48.9850 O   0  0  0  0  0  0  0  0  0  0  0  0
   63.3630   33.2050   48.7780 C   0  0  0  0  0  0  0  0  0  0  0  0
   60.6540   32.1820   47.3380 C   0  0  0  0  0  0  0  0  0  0  0  0
   59.6750   32.1580   46.3400 C   0  0  0  0  0  0  0  0  0  0  0  0
   57.3810   29.6150   45.7470 C   0  0  0  0  0  0  0  0  0  0  0  0
   55.5070   25.5040   45.9500 C   0  0  0  0  0  0  0  0  0  0  0  0
   54.8200   26.7130   46.0000 O   0  0  0  0  0  0  0  0  0  0  0  0
   54.8910   24.3760   45.4010 C   0  0  0  0  0  0  0  0  0  0  0  0
   55.5760   23.1620   45.3520 C   0  0  0  0  0  0  0  0  0  0  0  0
  1  2  1  0
  2  3  1  0
  3  4  2  0
  4  5  1  0
  5  6  2  0
  5  7  1  0
  7  8  2  0
  8  9  1  0
  9 10  2  0
 10 11  1  0
 11 12  1  0
 12 13  1  0
 13 14  2  0
 13 15  2  0
 13 16  1  0
 16 17  2  0
 17 18  1  0
 18 19  2  0
 19 20  1  0
 20 21  1  0
 19 22  1  0
 22 23  2  0
 11 24  2  0
  3 25  1  0
 25 26  1  0
 25 27  2  0
 27 28  1  0
 28  1  2  0
 24  7  1  0
 23 16  1  0
M  CHG  3   2  -1  12  -1  26  -1
M  END
>  <UniqueID>  (613) 
81

>  <SMILES>  (613) 
COc1ccc(S(=O)(=O)[N-]c2cccc(C(=O)/N=c3\[n-]cccc3[O-])c2)cc1

>  <Energy>  (613) 
54.92124920282449

>  <Genealogy>  (613) 
COc1ccc(S(=O)(=O)[N-]c2cccc(C(=O)N=c3[n-]cccc3[O-])c2)cc1 (protonated)
COc1ccc(S(=O)(=O)[N-]c2cccc(C(=O)/N=c3\[n-]cccc3[O-])c2)cc1 (cis-trans isomerization)
COc1ccc(S(=O)(=O)[N-]c2cccc(C(=O)/N=c3\[n-]cccc3[O-])c2)cc1 (3D coordinates assigned)
COc1ccc(S(=O)(=O)[N-]c2cccc(C(=O)/N=c3\[n-]cccc3[O-])c2)cc1 (optimized conformer: 54.92124920282449 kcal/mol)

>  <smiles>  (613) 
COc1ccc(S(=O)(=O)Nc2cccc(C(=O)N=c3[nH]cccc3O)c2)cc1

>  <score_type>  (613) 
oracle

>  <origin>  (613) 
adg

>  <m_score__min__energy>  (613) 
-14.41

>  <m_primary>  (613) 
energy

$$$$
77:0
     RDKit          3D

 33 36  0  0  0  0  0  0  0  0999 V2000
   59.5880   26.0220   47.0760 O   0  0  0  0  0  0  0  0  0  0  0  0
   58.4520   26.5200   46.8420 C   0  0  0  0  0  0  0  0  0  0  0  0
   57.2650   25.8210   47.2490 N   0  0  0  0  0  0  0  0  0  0  0  0
   56.5000   25.0200   46.5580 C   0  0  0  0  0  0  0  0  0  0  0  0
   56.8650   23.7090   46.4860 N   0  0  0  0  0  0  0  0  0  0  0  0
   56.1580   22.7880   45.7810 C   0  0  0  0  0  0  0  0  0  0  0  0
   55.0070   23.1690   45.0940 C   0  0  0  0  0  0  0  0  0  0  0  0
   54.5800   24.4930   45.1660 C   0  0  0  0  0  0  0  0  0  0  0  0
   55.3030   25.4280   45.9120 C   0  0  0  0  0  0  0  0  0  0  0  0
   54.7850   26.7110   46.0370 O   0  0  0  0  0  0  0  0  0  0  0  0
   58.3500   27.8770   46.2530 C   0  0  0  0  0  0  0  0  0  0  0  0
   57.2620   28.2220   45.4290 C   0  0  0  0  0  0  0  0  0  0  0  0
   57.1670   29.5060   44.8840 C   0  0  0  0  0  0  0  0  0  0  0  0
   58.1530   30.4630   45.1520 C   0  0  0  0  0  0  0  0  0  0  0  0
   57.9940   32.0860   44.4870 S   0  0  0  0  0  0  0  0  0  0  0  0
   56.6270   32.6060   44.8310 O   0  0  0  0  0  0  0  0  0  0  0  0
   58.1260   32.0530   42.9880 O   0  0  0  0  0  0  0  0  0  0  0  0
   59.1950   33.1510   45.1710 N   0  0  0  0  0  0  0  0  0  0  0  0
   58.6530   33.9440   46.2930 C   0  0  0  0  0  0  0  0  0  0  0  0
   57.8190   33.0400   47.2390 C   0  0  0  0  0  0  0  0  0  0  0  0
   58.7050   32.4220   48.3260 C   0  0  0  0  0  0  0  0  0  0  0  0
   59.3030   33.4530   49.2180 N   0  0  0  0  0  0  0  0  0  0  0  0
   60.5520   32.9650   49.8430 C   0  0  0  0  0  0  0  0  0  0  0  0
   61.6580   32.8650   48.8240 C   0  0  0  0  0  0  0  0  0  0  0  0
   62.5700   33.9210   48.6700 C   0  0  0  0  0  0  0  0  0  0  0  0
   63.6190   33.8180   47.7510 C   0  0  0  0  0  0  0  0  0  0  0  0
   63.7680   32.6580   46.9850 C   0  0  0  0  0  0  0  0  0  0  0  0
   62.8690   31.6000   47.1370 C   0  0  0  0  0  0  0  0  0  0  0  0
   61.8170   31.7000   48.0550 C   0  0  0  0  0  0  0  0  0  0  0  0
   59.5000   34.7720   48.5610 C   0  0  0  0  0  0  0  0  0  0  0  0
   59.8050   34.6420   47.0620 C   0  0  0  0  0  0  0  0  0  0  0  0
   59.2440   30.1230   45.9610 C   0  0  0  0  0  0  0  0  0  0  0  0
   59.3420   28.8410   46.5100 C   0  0  0  0  0  0  0  0  0  0  0  0
  1  2  2  0
  2  3  1  0
  3  4  2  3
  4  5  1  0
  5  6  1  0
  6  7  2  0
  7  8  1  0
  8  9  2  0
  9 10  1  0
  2 11  1  0
 11 12  2  0
 12 13  1  0
 13 14  2  0
 14 15  1  0
 15 16  2  0
 15 17  2  0
 15 18  1  0
 18 19  1  0
 19 20  1  0
 20 21  1  0
 21 22  1  0
 22 23  1  0
 23 24  1  0
 24 25  2  0
 25 26  1  0
 26 27  2  0
 27 28  1  0
 28 29  2  0
 22 30  1  0
 30 31  1  0
 14 32  1  0
 32 33  2  0
  9  4  1  0
 33 11  1  0
 31 19  1  0
 29 24  1  0
M  CHG  2   5  -1  10  -1
M  END
>  <UniqueID>  (614) 
71

>  <SMILES>  (614) 
O=C(N=c1[n-]cccc1[O-])c1ccc(S(=O)(=O)NC2CCN(Cc3ccccc3)CC2)cc1

>  <Energy>  (614) 
82.17667075239855

>  <Genealogy>  (614) 
O=C(N=c1[n-]cccc1[O-])c1ccc(S(=O)(=O)NC2CCN(Cc3ccccc3)CC2)cc1 (protonated)
O=C(N=c1[n-]cccc1[O-])c1ccc(S(=O)(=O)NC2CCN(Cc3ccccc3)CC2)cc1 (3D coordinates assigned)
O=C(N=c1[n-]cccc1[O-])c1ccc(S(=O)(=O)NC2CCN(Cc3ccccc3)CC2)cc1 (nonaromatic ring conformer: 82.17667075239855 kcal/mol)

>  <smiles>  (614) 
O=C(N=c1[nH]cccc1O)c1ccc(S(=O)(=O)NC2CCN(Cc3ccccc3)CC2)cc1

>  <score_type>  (614) 
oracle

>  <origin>  (614) 
adg

>  <m_score__min__energy>  (614) 
-15.56

>  <m_primary>  (614) 
energy

$$$$
4:0
     RDKit          3D

 32 34  0  0  0  0  0  0  0  0999 V2000
   61.3900   29.0110   49.9450 O   0  0  0  0  0  0  0  0  0  0  0  0
   61.9030   30.1530   49.8030 C   0  0  0  0  0  0  0  0  0  0  0  0
   62.8680   30.6500   50.8350 C   0  0  0  0  0  0  0  0  0  0  0  0
   63.3010   31.9610   50.4820 O   0  0  0  0  0  0  0  0  0  0  0  0
   64.4790   32.2110   49.7700 C   0  0  0  0  0  0  0  0  0  0  0  0
   65.5600   31.6520   50.0970 O   0  0  0  0  0  0  0  0  0  0  0  0
   64.4420   33.1070   48.5760 C   0  0  0  0  0  0  0  0  0  0  0  0
   63.1220   33.7140   48.4560 N   0  0  0  0  0  0  0  0  0  0  0  0
   62.4290   33.8640   47.2110 C   0  0  0  0  0  0  0  0  0  0  0  0
   63.0690   33.8870   46.1250 O   0  0  0  0  0  0  0  0  0  0  0  0
   60.9680   33.9960   47.1940 C   0  0  0  0  0  0  0  0  0  0  0  0
   60.2100   34.4960   46.1540 C   0  0  0  0  0  0  0  0  0  0  0  0
   58.9020   34.4210   46.5800 C   0  0  0  0  0  0  0  0  0  0  0  0
   58.9420   33.8830   47.8500 C   0  0  0  0  0  0  0  0  0  0  0  0
   60.1880   33.6390   48.1880 O   0  0  0  0  0  0  0  0  0  0  0  0
   61.4840   31.0170   48.7330 N   0  0  0  0  0  0  0  0  0  0  0  0
   60.3870   30.7180   47.8560 C   0  0  0  0  0  0  0  0  0  0  0  0
   60.5100   30.9830   46.4860 C   0  0  0  0  0  0  0  0  0  0  0  0
   59.4500   30.7200   45.6150 C   0  0  0  0  0  0  0  0  0  0  0  0
   58.2470   30.1800   46.1010 C   0  0  0  0  0  0  0  0  0  0  0  0
   57.1180   29.9270   45.1760 C   0  0  0  0  0  0  0  0  0  0  0  0
   56.6610   30.8770   44.4850 O   0  0  0  0  0  0  0  0  0  0  0  0
   56.5510   28.6210   45.0010 N   0  0  0  0  0  0  0  0  0  0  0  0
   57.0600   27.3910   45.5410 C   0  0  0  0  0  0  0  0  0  0  0  0
   58.4420   27.1370   45.6170 C   0  0  0  0  0  0  0  0  0  0  0  0
   58.9100   25.9380   46.1610 C   0  0  0  0  0  0  0  0  0  0  0  0
   58.0060   24.9900   46.6470 C   0  0  0  0  0  0  0  0  0  0  0  0
   56.6330   25.2450   46.5970 C   0  0  0  0  0  0  0  0  0  0  0  0
   56.1590   26.4420   46.0500 C   0  0  0  0  0  0  0  0  0  0  0  0
   54.7910   26.6840   46.0090 O   0  0  0  0  0  0  0  0  0  0  0  0
   58.1450   29.8620   47.4660 C   0  0  0  0  0  0  0  0  0  0  0  0
   59.2060   30.1300   48.3380 C   0  0  0  0  0  0  0  0  0  0  0  0
  1  2  2  0
  2  3  1  0
  3  4  1  0
  4  5  1  0
  5  6  2  0
  5  7  1  0
  7  8  1  0
  8  9  1  0
  9 10  2  0
  9 11  1  0
 11 12  2  0
 12 13  1  0
 13 14  2  0
 14 15  1  0
  2 16  1  0
 16 17  1  0
 17 18  2  0
 18 19  1  0
 19 20  2  0
 20 21  1  0
 21 22  2  0
 21 23  1  0
 23 24  1  0
 24 25  2  0
 25 26  1  0
 26 27  2  0
 27 28  1  0
 28 29  2  0
 29 30  1  0
 20 31  1  0
 31 32  2  0
 15 11  1  0
 32 17  1  0
 29 24  1  0
M  CHG  3   8  -1  23  -1  30  -1
M  END
>  <UniqueID>  (615) 
4

>  <SMILES>  (615) 
O=C(COC(=O)C[N-]C(=O)c1ccco1)Nc1ccc(C(=O)[N-]c2ccccc2[O-])cc1

>  <Energy>  (615) 
76.32473848336674

>  <Genealogy>  (615) 
O=C(COC(=O)C[N-]C(=O)c1ccco1)Nc1ccc(C(=O)[N-]c2ccccc2[O-])cc1 (protonated)
O=C(COC(=O)C[N-]C(=O)c1ccco1)Nc1ccc(C(=O)[N-]c2ccccc2[O-])cc1 (3D coordinates assigned)
O=C(COC(=O)C[N-]C(=O)c1ccco1)Nc1ccc(C(=O)[N-]c2ccccc2[O-])cc1 (optimized conformer: 76.32473848336674 kcal/mol)

>  <smiles>  (615) 
O=C(COC(=O)CNC(=O)c1ccco1)Nc1ccc(C(=O)Nc2ccccc2O)cc1

>  <score_type>  (615) 
oracle

>  <origin>  (615) 
adg

>  <m_score__min__energy>  (615) 
-14.43

>  <m_primary>  (615) 
energy

$$$$
33:0
     RDKit          3D

 24 25  0  0  0  0  0  0  0  0999 V2000
   57.0520   34.2680   45.0220 C   0  0  0  0  0  0  0  0  0  0  0  0
   58.2020   33.9290   45.9250 C   0  0  0  0  0  0  0  0  0  0  0  0
   57.9750   33.3730   47.1950 C   0  0  0  0  0  0  0  0  0  0  0  0
   59.0520   33.0790   48.0380 C   0  0  0  0  0  0  0  0  0  0  0  0
   60.3600   33.3480   47.6240 C   0  0  0  0  0  0  0  0  0  0  0  0
   61.7450   32.9100   48.6800 S   0  0  0  0  0  0  0  0  0  0  0  0
   62.4300   31.6230   47.5690 C   0  0  0  0  0  0  0  0  0  0  0  0
   61.3650   30.6350   47.0930 C   0  0  0  0  0  0  0  0  0  0  0  0
   60.3660   30.4270   48.1340 N   0  0  0  0  0  0  0  0  0  0  0  0
   59.8830   29.1330   48.5000 C   0  0  0  0  0  0  0  0  0  0  0  0
   59.7220   28.8320   49.7140 O   0  0  0  0  0  0  0  0  0  0  0  0
   59.6610   28.1030   47.4400 C   0  0  0  0  0  0  0  0  0  0  0  0
   58.2520   27.7260   47.4210 N   0  0  0  0  0  0  0  0  0  0  0  0
   57.4120   27.8700   46.2690 C   0  0  0  0  0  0  0  0  0  0  0  0
   56.5740   26.9680   45.9980 O   0  0  0  0  0  0  0  0  0  0  0  0
   57.5050   29.0760   45.4030 C   0  0  0  0  0  0  0  0  0  0  0  0
   58.7590   29.6880   45.2010 C   0  0  0  0  0  0  0  0  0  0  0  0
   58.8850   30.7970   44.3600 C   0  0  0  0  0  0  0  0  0  0  0  0
   57.7660   31.3090   43.7040 C   0  0  0  0  0  0  0  0  0  0  0  0
   56.5160   30.7160   43.8900 C   0  0  0  0  0  0  0  0  0  0  0  0
   56.3770   29.6040   44.7300 C   0  0  0  0  0  0  0  0  0  0  0  0
   55.1160   29.0310   44.8680 O   0  0  0  0  0  0  0  0  0  0  0  0
   60.5890   33.9150   46.3660 C   0  0  0  0  0  0  0  0  0  0  0  0
   59.5150   34.2080   45.5200 C   0  0  0  0  0  0  0  0  0  0  0  0
  1  2  1  0
  2  3  2  0
  3  4  1  0
  4  5  2  0
  5  6  1  0
  6  7  1  0
  7  8  1  0
  8  9  1  0
  9 10  1  0
 10 11  2  0
 10 12  1  0
 12 13  1  0
 13 14  1  0
 14 15  2  0
 14 16  1  0
 16 17  2  0
 17 18  1  0
 18 19  2  0
 19 20  1  0
 20 21  2  0
 21 22  1  0
  5 23  1  0
 23 24  2  0
 24  2  1  0
 21 16  1  0
M  CHG  3   9  -1  13  -1  22  -1
M  END
>  <UniqueID>  (616) 
33

>  <SMILES>  (616) 
Cc1ccc(SCC[N-]C(=O)C[N-]C(=O)c2ccccc2[O-])cc1

>  <Energy>  (616) 
30.20456174051683

>  <Genealogy>  (616) 
Cc1ccc(SCC[N-]C(=O)C[N-]C(=O)c2ccccc2[O-])cc1 (protonated)
Cc1ccc(SCC[N-]C(=O)C[N-]C(=O)c2ccccc2[O-])cc1 (3D coordinates assigned)
Cc1ccc(SCC[N-]C(=O)C[N-]C(=O)c2ccccc2[O-])cc1 (optimized conformer: 30.20456174051683 kcal/mol)

>  <smiles>  (616) 
Cc1ccc(SCCNC(=O)CNC(=O)c2ccccc2O)cc1

>  <score_type>  (616) 
oracle

>  <origin>  (616) 
adg

>  <m_score__min__energy>  (616) 
-14.41

>  <m_primary>  (616) 
energy

$$$$
38:0
     RDKit          3D

 26 28  0  0  0  0  0  0  0  0999 V2000
   59.0630   26.0580   48.2060 O   0  0  0  0  0  0  0  0  0  0  0  0
   58.2730   26.4130   47.2890 C   0  0  0  0  0  0  0  0  0  0  0  0
   56.9470   25.8660   47.2450 N   0  0  0  0  0  0  0  0  0  0  0  0
   56.4330   25.0210   46.3920 C   0  0  0  0  0  0  0  0  0  0  0  0
   57.1070   23.8570   46.1750 N   0  0  0  0  0  0  0  0  0  0  0  0
   56.6810   22.9150   45.2940 C   0  0  0  0  0  0  0  0  0  0  0  0
   55.5070   23.1180   44.5720 C   0  0  0  0  0  0  0  0  0  0  0  0
   54.7680   24.2800   44.7860 C   0  0  0  0  0  0  0  0  0  0  0  0
   55.2080   25.2350   45.7070 C   0  0  0  0  0  0  0  0  0  0  0  0
   54.3940   26.3330   45.9570 O   0  0  0  0  0  0  0  0  0  0  0  0
   58.6750   27.4880   46.3460 C   0  0  0  0  0  0  0  0  0  0  0  0
   57.7240   28.4400   45.9240 C   0  0  0  0  0  0  0  0  0  0  0  0
   58.0720   29.4520   45.0200 C   0  0  0  0  0  0  0  0  0  0  0  0
   56.8560   30.6030   44.4630 S   0  0  0  0  0  0  0  0  0  0  0  0
   56.9200   30.7050   42.9630 O   0  0  0  0  0  0  0  0  0  0  0  0
   55.4890   30.1030   44.8360 O   0  0  0  0  0  0  0  0  0  0  0  0
   57.1020   32.1850   45.1670 N   0  0  0  0  0  0  0  0  0  0  0  0
   57.7360   33.0940   44.1840 C   0  0  0  0  0  0  0  0  0  0  0  0
   58.3420   34.3220   44.8670 C   0  0  0  0  0  0  0  0  0  0  0  0
   59.4580   33.9160   45.8480 C   0  0  0  0  0  0  0  0  0  0  0  0
   59.2850   32.4840   46.3840 C   0  0  0  0  0  0  0  0  0  0  0  0
   57.8020   32.0990   46.4730 C   0  0  0  0  0  0  0  0  0  0  0  0
   59.3870   29.5330   44.5460 C   0  0  0  0  0  0  0  0  0  0  0  0
   60.3410   28.6040   44.9620 C   0  0  0  0  0  0  0  0  0  0  0  0
   59.9940   27.5840   45.8540 C   0  0  0  0  0  0  0  0  0  0  0  0
   60.9570   26.7090   46.2390 F   0  0  0  0  0  0  0  0  0  0  0  0
  1  2  2  0
  2  3  1  0
  3  4  2  3
  4  5  1  0
  5  6  1  0
  6  7  2  0
  7  8  1  0
  8  9  2  0
  9 10  1  0
  2 11  1  0
 11 12  2  0
 12 13  1  0
 13 14  1  0
 14 15  2  0
 14 16  2  0
 14 17  1  0
 17 18  1  0
 18 19  1  0
 19 20  1  0
 20 21  1  0
 21 22  1  0
 13 23  2  0
 23 24  1  0
 24 25  2  0
 25 26  1  0
  9  4  1  0
 25 11  1  0
 22 17  1  0
M  CHG  2   5  -1  10  -1
M  END
>  <UniqueID>  (617) 
38

>  <SMILES>  (617) 
O=C(N=c1[n-]cccc1[O-])c1cc(S(=O)(=O)N2CCCCC2)ccc1F

>  <Energy>  (617) 
62.91306409411653

>  <Genealogy>  (617) 
O=C(N=c1[n-]cccc1[O-])c1cc(S(=O)(=O)N2CCCCC2)ccc1F (protonated)
O=C(N=c1[n-]cccc1[O-])c1cc(S(=O)(=O)N2CCCCC2)ccc1F (3D coordinates assigned)
O=C(N=c1[n-]cccc1[O-])c1cc(S(=O)(=O)N2CCCCC2)ccc1F (nonaromatic ring conformer: 62.91306409411653 kcal/mol)

>  <smiles>  (617) 
O=C(N=c1[nH]cccc1O)c1cc(S(=O)(=O)N2CCCCC2)ccc1F

>  <score_type>  (617) 
oracle

>  <origin>  (617) 
adg

>  <m_score__min__energy>  (617) 
-14.359999999999999

>  <m_primary>  (617) 
energy

$$$$
63:0
     RDKit          3D

 29 31  0  0  0  0  0  0  0  0999 V2000
   56.0740   30.0550   43.8150 C   0  0  0  0  0  0  0  0  0  0  0  0
   56.5540   30.1520   45.1850 N   0  0  0  0  0  0  0  0  0  0  0  0
   57.9090   30.4770   45.5140 C   0  0  0  0  0  0  0  0  0  0  0  0
   58.7870   29.5700   45.5170 O   0  0  0  0  0  0  0  0  0  0  0  0
   58.2970   31.8790   45.8040 C   0  0  0  0  0  0  0  0  0  0  0  0
   58.2630   32.8160   44.7540 C   0  0  0  0  0  0  0  0  0  0  0  0
   58.5440   34.1630   44.9900 C   0  0  0  0  0  0  0  0  0  0  0  0
   58.8650   34.5950   46.2750 C   0  0  0  0  0  0  0  0  0  0  0  0
   58.9240   33.6800   47.3270 C   0  0  0  0  0  0  0  0  0  0  0  0
   58.6580   32.3170   47.1070 C   0  0  0  0  0  0  0  0  0  0  0  0
   58.8320   31.3810   48.2410 C   0  0  0  0  0  0  0  0  0  0  0  0
   59.6950   30.2800   48.1250 C   0  0  0  0  0  0  0  0  0  0  0  0
   59.8540   29.3950   49.1950 C   0  0  0  0  0  0  0  0  0  0  0  0
   59.1610   29.6090   50.3900 C   0  0  0  0  0  0  0  0  0  0  0  0
   58.3130   30.7160   50.5250 C   0  0  0  0  0  0  0  0  0  0  0  0
   57.4270   30.9770   52.0220 S   0  0  0  0  0  0  0  0  0  0  0  0
   58.2930   30.5970   53.1900 O   0  0  0  0  0  0  0  0  0  0  0  0
   57.0520   32.4300   52.1310 O   0  0  0  0  0  0  0  0  0  0  0  0
   55.9950   29.9930   51.9970 N   0  0  0  0  0  0  0  0  0  0  0  0
   54.7660   30.4100   52.1060 C   0  0  0  0  0  0  0  0  0  0  0  0
   54.0280   30.8940   51.0080 C   0  0  0  0  0  0  0  0  0  0  0  0
   52.7140   31.3250   51.1990 C   0  0  0  0  0  0  0  0  0  0  0  0
   52.1310   31.2770   52.4730 C   0  0  0  0  0  0  0  0  0  0  0  0
   50.7390   31.7310   52.6830 C   0  0  0  0  0  0  0  0  0  0  0  0
   50.2580   32.6640   51.9860 O   0  0  0  0  0  0  0  0  0  0  0  0
   49.9410   31.1320   53.6510 O   0  0  0  0  0  0  0  0  0  0  0  0
   52.9000   30.7880   53.5400 C   0  0  0  0  0  0  0  0  0  0  0  0
   54.1770   30.3730   53.3310 N   0  0  0  0  0  0  0  0  0  0  0  0
   58.1490   31.5990   49.4480 C   0  0  0  0  0  0  0  0  0  0  0  0
  1  2  1  0
  2  3  1  0
  3  4  2  0
  3  5  1  0
  5  6  2  0
  6  7  1  0
  7  8  2  0
  8  9  1  0
  9 10  2  0
 10 11  1  0
 11 12  2  0
 12 13  1  0
 13 14  2  0
 14 15  1  0
 15 16  1  0
 16 17  2  0
 16 18  2  0
 16 19  1  0
 19 20  2  3
 20 21  1  0
 21 22  2  0
 22 23  1  0
 23 24  1  0
 24 25  2  0
 24 26  1  0
 23 27  2  0
 27 28  1  0
 15 29  2  0
 10  5  1  0
 29 11  1  0
 28 20  1  0
M  CHG  3   2  -1  26  -1  28  -1
M  END
>  <UniqueID>  (618) 
60

>  <SMILES>  (618) 
C[N-]C(=O)c1ccccc1-c1cccc(S(=O)(=O)N=c2ccc(C(=O)[O-])c[n-]2)c1

>  <Energy>  (618) 
61.38567902741234

>  <Genealogy>  (618) 
C[N-]C(=O)c1ccccc1-c1cccc(S(=O)(=O)N=c2ccc(C(=O)[O-])c[n-]2)c1 (protonated)
C[N-]C(=O)c1ccccc1-c1cccc(S(=O)(=O)N=c2ccc(C(=O)[O-])c[n-]2)c1 (3D coordinates assigned)
C[N-]C(=O)c1ccccc1-c1cccc(S(=O)(=O)N=c2ccc(C(=O)[O-])c[n-]2)c1 (optimized conformer: 61.38567902741234 kcal/mol)

>  <smiles>  (618) 
CNC(=O)c1ccccc1-c1cccc(S(=O)(=O)N=c2ccc(C(=O)O)c[nH]2)c1

>  <score_type>  (618) 
oracle

>  <origin>  (618) 
adg

>  <m_score__min__energy>  (618) 
-14.26

>  <m_primary>  (618) 
energy

$$$$
66:0
     RDKit          3D

 28 30  0  0  0  0  0  0  0  0999 V2000
   61.6210   34.2180   49.0170 C   0  0  0  0  0  0  0  0  0  0  0  0
   60.6040   34.0070   47.9340 C   0  0  0  0  0  0  0  0  0  0  0  0
   59.2770   33.6910   48.2620 C   0  0  0  0  0  0  0  0  0  0  0  0
   58.3210   33.5290   47.2550 C   0  0  0  0  0  0  0  0  0  0  0  0
   58.6730   33.7070   45.9080 C   0  0  0  0  0  0  0  0  0  0  0  0
   57.6540   33.4970   44.8240 C   0  0  0  0  0  0  0  0  0  0  0  0
   56.6380   32.5480   45.2820 N   0  0  0  0  0  0  0  0  0  0  0  0
   56.7730   31.0630   44.3910 S   0  0  0  0  0  0  0  0  0  0  0  0
   55.4160   30.4240   44.2850 O   0  0  0  0  0  0  0  0  0  0  0  0
   57.2720   31.3490   43.0010 O   0  0  0  0  0  0  0  0  0  0  0  0
   57.8690   29.9530   45.2120 C   0  0  0  0  0  0  0  0  0  0  0  0
   59.1510   30.3820   45.5750 C   0  0  0  0  0  0  0  0  0  0  0  0
   60.0340   29.5010   46.2030 C   0  0  0  0  0  0  0  0  0  0  0  0
   59.6440   28.1850   46.4660 C   0  0  0  0  0  0  0  0  0  0  0  0
   58.3610   27.7350   46.1050 C   0  0  0  0  0  0  0  0  0  0  0  0
   57.9490   26.3360   46.3720 C   0  0  0  0  0  0  0  0  0  0  0  0
   58.1830   25.8140   47.4960 O   0  0  0  0  0  0  0  0  0  0  0  0
   57.3860   25.5380   45.3190 N   0  0  0  0  0  0  0  0  0  0  0  0
   56.2800   24.8450   45.3160 C   0  0  0  0  0  0  0  0  0  0  0  0
   56.3520   23.5470   44.9060 N   0  0  0  0  0  0  0  0  0  0  0  0
   55.2710   22.7270   44.8710 C   0  0  0  0  0  0  0  0  0  0  0  0
   54.0210   23.2040   45.2590 C   0  0  0  0  0  0  0  0  0  0  0  0
   53.8950   24.5330   45.6590 C   0  0  0  0  0  0  0  0  0  0  0  0
   55.0120   25.3740   45.6740 C   0  0  0  0  0  0  0  0  0  0  0  0
   54.8240   26.7140   45.9900 O   0  0  0  0  0  0  0  0  0  0  0  0
   57.4790   28.6310   45.4720 C   0  0  0  0  0  0  0  0  0  0  0  0
   60.0000   34.0270   45.5810 C   0  0  0  0  0  0  0  0  0  0  0  0
   60.9570   34.1870   46.5880 C   0  0  0  0  0  0  0  0  0  0  0  0
  1  2  1  0
  2  3  2  0
  3  4  1  0
  4  5  2  0
  5  6  1  0
  6  7  1  0
  7  8  1  0
  8  9  2  0
  8 10  2  0
  8 11  1  0
 11 12  2  0
 12 13  1  0
 13 14  2  0
 14 15  1  0
 15 16  1  0
 16 17  2  0
 16 18  1  0
 18 19  2  3
 19 20  1  0
 20 21  1  0
 21 22  2  0
 22 23  1  0
 23 24  2  0
 24 25  1  0
 15 26  2  0
  5 27  1  0
 27 28  2  0
 28  2  1  0
 26 11  1  0
 24 19  1  0
M  CHG  2  20  -1  25  -1
M  END
>  <UniqueID>  (619) 
63

>  <SMILES>  (619) 
Cc1ccc(CNS(=O)(=O)c2cccc(C(=O)N=c3[n-]cccc3[O-])c2)cc1

>  <Energy>  (619) 
57.23438806033204

>  <Genealogy>  (619) 
Cc1ccc(CNS(=O)(=O)c2cccc(C(=O)N=c3[n-]cccc3[O-])c2)cc1 (protonated)
Cc1ccc(CNS(=O)(=O)c2cccc(C(=O)N=c3[n-]cccc3[O-])c2)cc1 (3D coordinates assigned)
Cc1ccc(CNS(=O)(=O)c2cccc(C(=O)N=c3[n-]cccc3[O-])c2)cc1 (optimized conformer: 57.23438806033204 kcal/mol)

>  <smiles>  (619) 
Cc1ccc(CNS(=O)(=O)c2cccc(C(=O)N=c3[nH]cccc3O)c2)cc1

>  <score_type>  (619) 
oracle

>  <origin>  (619) 
adg

>  <m_score__min__energy>  (619) 
-14.94

>  <m_primary>  (619) 
energy

$$$$
34:0
     RDKit          3D

 28 31  0  0  0  0  0  0  0  0999 V2000
   58.2570   25.5480   47.5040 O   0  0  0  0  0  0  0  0  0  0  0  0
   57.7720   25.6860   46.3480 C   0  0  0  0  0  0  0  0  0  0  0  0
   57.5030   24.4750   45.5340 C   0  0  0  0  0  0  0  0  0  0  0  0
   57.1940   24.6160   44.1700 C   0  0  0  0  0  0  0  0  0  0  0  0
   56.9440   23.4920   43.3780 C   0  0  0  0  0  0  0  0  0  0  0  0
   56.9880   22.2160   43.9400 C   0  0  0  0  0  0  0  0  0  0  0  0
   57.2760   22.0600   45.2980 C   0  0  0  0  0  0  0  0  0  0  0  0
   57.5240   23.1800   46.0990 C   0  0  0  0  0  0  0  0  0  0  0  0
   57.7680   22.9950   47.4560 O   0  0  0  0  0  0  0  0  0  0  0  0
   57.4690   27.0560   45.8560 C   0  0  0  0  0  0  0  0  0  0  0  0
   56.1430   27.4680   45.6790 C   0  0  0  0  0  0  0  0  0  0  0  0
   55.0840   26.6190   45.9830 O   0  0  0  0  0  0  0  0  0  0  0  0
   55.8780   28.7140   45.2230 N   0  0  0  0  0  0  0  0  0  0  0  0
   56.8710   29.5900   44.9230 C   0  0  0  0  0  0  0  0  0  0  0  0
   56.5580   30.7370   44.5050 O   0  0  0  0  0  0  0  0  0  0  0  0
   58.1860   29.2270   45.0750 N   0  0  0  0  0  0  0  0  0  0  0  0
   59.2670   30.1660   44.7140 C   0  0  0  0  0  0  0  0  0  0  0  0
   59.2520   31.3640   45.6270 C   0  0  0  0  0  0  0  0  0  0  0  0
   58.6140   32.5650   45.2250 C   0  0  0  0  0  0  0  0  0  0  0  0
   58.5710   33.6760   46.0870 C   0  0  0  0  0  0  0  0  0  0  0  0
   59.1680   33.5520   47.3370 C   0  0  0  0  0  0  0  0  0  0  0  0
   59.7790   32.4060   47.7300 C   0  0  0  0  0  0  0  0  0  0  0  0
   59.8440   31.2850   46.9090 C   0  0  0  0  0  0  0  0  0  0  0  0
   60.2800   32.5660   49.0080 O   0  0  0  0  0  0  0  0  0  0  0  0
   59.9630   33.8960   49.4440 C   0  0  0  0  0  0  0  0  0  0  0  0
   59.2550   34.4910   48.3470 O   0  0  0  0  0  0  0  0  0  0  0  0
   58.4930   27.9650   45.5250 C   0  0  0  0  0  0  0  0  0  0  0  0
   59.6990   27.6070   45.6310 O   0  0  0  0  0  0  0  0  0  0  0  0
  1  2  2  0
  2  3  1  0
  3  4  2  0
  4  5  1  0
  5  6  2  0
  6  7  1  0
  7  8  2  0
  8  9  1  0
  2 10  1  0
 10 11  2  0
 11 12  1  0
 11 13  1  0
 13 14  1  0
 14 15  2  0
 14 16  1  0
 16 17  1  0
 17 18  1  0
 18 19  2  0
 19 20  1  0
 20 21  2  0
 21 22  1  0
 22 23  2  0
 22 24  1  0
 24 25  1  0
 25 26  1  0
 16 27  1  0
 27 28  2  0
  8  3  1  0
 27 10  1  0
 23 18  1  0
 26 21  1  0
M  CHG  3   9  -1  12  -1  13  -1
M  END
>  <UniqueID>  (620) 
34

>  <SMILES>  (620) 
O=C(c1ccccc1[O-])c1c([O-])[n-]c(=O)n(Cc2ccc3c(c2)OCO3)c1=O

>  <Energy>  (620) 
85.7406104969797

>  <Genealogy>  (620) 
O=C(c1ccccc1[O-])c1c([O-])[n-]c(=O)n(Cc2ccc3c(c2)OCO3)c1=O (protonated)
O=C(c1ccccc1[O-])c1c([O-])[n-]c(=O)n(Cc2ccc3c(c2)OCO3)c1=O (3D coordinates assigned)
O=C(c1ccccc1[O-])c1c([O-])[n-]c(=O)n(Cc2ccc3c(c2)OCO3)c1=O (nonaromatic ring conformer: 85.7406104969797 kcal/mol)

>  <smiles>  (620) 
O=C(c1ccccc1O)c1c(O)[nH]c(=O)n(Cc2ccc3c(c2)OCO3)c1=O

>  <score_type>  (620) 
oracle

>  <origin>  (620) 
adg

>  <m_score__min__energy>  (620) 
-14.949999999999999

>  <m_primary>  (620) 
energy

$$$$
47:0
     RDKit          3D

 25 27  0  0  0  0  0  0  0  0999 V2000
   54.5240   29.4320   53.1890 O   0  0  0  0  0  0  0  0  0  0  0  0
   54.0810   30.4950   52.6760 C   0  0  0  0  0  0  0  0  0  0  0  0
   52.6230   30.8130   52.7880 C   0  0  0  0  0  0  0  0  0  0  0  0
   52.0130   30.8910   51.4250 C   0  0  0  0  0  0  0  0  0  0  0  0
   52.1780   29.7250   50.2190 S   0  0  0  0  0  0  0  0  0  0  0  0
   51.3190   30.6430   49.1010 C   0  0  0  0  0  0  0  0  0  0  0  0
   51.0790   30.2790   47.9210 O   0  0  0  0  0  0  0  0  0  0  0  0
   50.9130   31.8280   49.6030 N   0  0  0  0  0  0  0  0  0  0  0  0
   51.3070   31.9690   50.8960 C   0  0  0  0  0  0  0  0  0  0  0  0
   51.0230   33.1170   51.6250 O   0  0  0  0  0  0  0  0  0  0  0  0
   54.9610   31.3960   51.9850 N   0  0  0  0  0  0  0  0  0  0  0  0
   56.3950   31.3350   52.0550 C   0  0  0  0  0  0  0  0  0  0  0  0
   57.0610   31.1000   53.2710 C   0  0  0  0  0  0  0  0  0  0  0  0
   58.4580   31.0650   53.3140 C   0  0  0  0  0  0  0  0  0  0  0  0
   59.2010   31.2790   52.1510 C   0  0  0  0  0  0  0  0  0  0  0  0
   58.5510   31.5460   50.9390 C   0  0  0  0  0  0  0  0  0  0  0  0
   59.4810   31.8050   49.4670 S   0  0  0  0  0  0  0  0  0  0  0  0
   59.3730   30.5970   48.5780 O   0  0  0  0  0  0  0  0  0  0  0  0
   60.9270   32.0060   49.8280 O   0  0  0  0  0  0  0  0  0  0  0  0
   58.8820   33.2260   48.6500 N   0  0  0  0  0  0  0  0  0  0  0  0
   58.1800   32.8720   47.4160 C   0  0  0  0  0  0  0  0  0  0  0  0
   58.3050   34.0700   46.4880 C   0  0  0  0  0  0  0  0  0  0  0  0
   59.4810   34.8740   47.0240 C   0  0  0  0  0  0  0  0  0  0  0  0
   59.9760   34.1040   48.2380 C   0  0  0  0  0  0  0  0  0  0  0  0
   57.1500   31.5740   50.8960 C   0  0  0  0  0  0  0  0  0  0  0  0
  1  2  2  0
  2  3  1  0
  3  4  1  0
  4  5  1  0
  5  6  1  0
  6  7  2  0
  6  8  1  0
  8  9  1  0
  9 10  1  0
  2 11  1  0
 11 12  1  0
 12 13  2  0
 13 14  1  0
 14 15  2  0
 15 16  1  0
 16 17  1  0
 17 18  2  0
 17 19  2  0
 17 20  1  0
 20 21  1  0
 21 22  1  0
 22 23  1  0
 23 24  1  0
 16 25  2  0
  9  4  2  0
 25 12  1  0
 24 20  1  0
M  CHG  2   8  -1  10  -1
M  END
>  <UniqueID>  (621) 
45

>  <SMILES>  (621) 
O=C(Cc1sc(=O)[n-]c1[O-])Nc1cccc(S(=O)(=O)N2CCCC2)c1

>  <Energy>  (621) 
73.22602071451006

>  <Genealogy>  (621) 
O=C(Cc1sc(=O)[n-]c1[O-])Nc1cccc(S(=O)(=O)N2CCCC2)c1 (protonated)
O=C(Cc1sc(=O)[n-]c1[O-])Nc1cccc(S(=O)(=O)N2CCCC2)c1 (3D coordinates assigned)
O=C(Cc1sc(=O)[n-]c1[O-])Nc1cccc(S(=O)(=O)N2CCCC2)c1 (nonaromatic ring conformer: 73.22602071451006 kcal/mol)

>  <smiles>  (621) 
O=C(Cc1sc(=O)[nH]c1O)Nc1cccc(S(=O)(=O)N2CCCC2)c1

>  <score_type>  (621) 
oracle

>  <origin>  (621) 
adg

>  <m_score__min__energy>  (621) 
-15.69

>  <m_primary>  (621) 
energy

$$$$
67:0
     RDKit          3D

 25 27  0  0  0  0  0  0  0  0999 V2000
   56.6690   31.1080   43.0660 O   0  0  0  0  0  0  0  0  0  0  0  0
   56.8930   31.1950   44.3020 C   0  0  0  0  0  0  0  0  0  0  0  0
   56.6570   32.4470   44.9600 N   0  0  0  0  0  0  0  0  0  0  0  0
   57.6330   33.2300   45.6630 C   0  0  0  0  0  0  0  0  0  0  0  0
   58.4100   34.1470   44.9450 C   0  0  0  0  0  0  0  0  0  0  0  0
   59.3790   34.9160   45.5960 C   0  0  0  0  0  0  0  0  0  0  0  0
   59.5890   34.7620   46.9690 C   0  0  0  0  0  0  0  0  0  0  0  0
   58.8360   33.8310   47.6900 C   0  0  0  0  0  0  0  0  0  0  0  0
   57.8670   33.0590   47.0400 C   0  0  0  0  0  0  0  0  0  0  0  0
   57.3460   29.9930   45.0450 C   0  0  0  0  0  0  0  0  0  0  0  0
   56.4640   28.9410   45.3170 C   0  0  0  0  0  0  0  0  0  0  0  0
   55.1510   28.9720   44.8610 O   0  0  0  0  0  0  0  0  0  0  0  0
   56.8940   27.8660   46.0170 N   0  0  0  0  0  0  0  0  0  0  0  0
   58.1690   27.7710   46.4670 C   0  0  0  0  0  0  0  0  0  0  0  0
   58.5070   26.7470   47.1190 O   0  0  0  0  0  0  0  0  0  0  0  0
   59.0720   28.7730   46.2110 N   0  0  0  0  0  0  0  0  0  0  0  0
   60.4470   28.6950   46.7450 C   0  0  0  0  0  0  0  0  0  0  0  0
   60.7450   29.8980   47.6050 C   0  0  0  0  0  0  0  0  0  0  0  0
   61.7070   30.8380   47.1980 C   0  0  0  0  0  0  0  0  0  0  0  0
   62.0130   31.9320   48.0130 C   0  0  0  0  0  0  0  0  0  0  0  0
   61.3640   32.0940   49.2400 C   0  0  0  0  0  0  0  0  0  0  0  0
   60.4080   31.1620   49.6540 C   0  0  0  0  0  0  0  0  0  0  0  0
   60.1000   30.0660   48.8420 C   0  0  0  0  0  0  0  0  0  0  0  0
   58.6720   29.8800   45.5000 C   0  0  0  0  0  0  0  0  0  0  0  0
   59.4890   30.8140   45.2660 O   0  0  0  0  0  0  0  0  0  0  0  0
  1  2  2  0
  2  3  1  0
  3  4  1  0
  4  5  2  0
  5  6  1  0
  6  7  2  0
  7  8  1  0
  8  9  2  0
  2 10  1  0
 10 11  2  0
 11 12  1  0
 11 13  1  0
 13 14  1  0
 14 15  2  0
 14 16  1  0
 16 17  1  0
 17 18  1  0
 18 19  2  0
 19 20  1  0
 20 21  2  0
 21 22  1  0
 22 23  2  0
 16 24  1  0
 24 25  2  0
  9  4  1  0
 24 10  1  0
 23 18  1  0
M  CHG  3   3  -1  12  -1  13  -1
M  END
>  <UniqueID>  (622) 
63

>  <SMILES>  (622) 
O=C([N-]c1ccccc1)c1c([O-])[n-]c(=O)n(Cc2ccccc2)c1=O

>  <Energy>  (622) 
53.34432523147458

>  <Genealogy>  (622) 
O=C([N-]c1ccccc1)c1c([O-])[n-]c(=O)n(Cc2ccccc2)c1=O (protonated)
O=C([N-]c1ccccc1)c1c([O-])[n-]c(=O)n(Cc2ccccc2)c1=O (3D coordinates assigned)
O=C([N-]c1ccccc1)c1c([O-])[n-]c(=O)n(Cc2ccccc2)c1=O (optimized conformer: 53.34432523147458 kcal/mol)

>  <smiles>  (622) 
O=C(Nc1ccccc1)c1c(O)[nH]c(=O)n(Cc2ccccc2)c1=O

>  <score_type>  (622) 
oracle

>  <origin>  (622) 
adg

>  <m_score__min__energy>  (622) 
-14.34

>  <m_primary>  (622) 
energy

$$$$
78:0
     RDKit          3D

 27 28  0  0  0  0  0  0  0  0999 V2000
   56.4230   22.6370   42.9140 C   0  0  0  0  0  0  0  0  0  0  0  0
   56.9710   21.3760   43.5830 C   0  0  0  0  0  0  0  0  0  0  0  0
   58.2120   21.6520   44.4440 C   0  0  0  0  0  0  0  0  0  0  0  0
   57.8590   22.0130   45.8940 C   0  0  0  0  0  0  0  0  0  0  0  0
   57.0710   23.2610   45.9310 N   0  0  0  0  0  0  0  0  0  0  0  0
   55.7460   23.2300   46.2930 C   0  0  0  0  0  0  0  0  0  0  0  0
   55.1880   22.1460   46.6090 O   0  0  0  0  0  0  0  0  0  0  0  0
   55.0170   24.3750   46.3200 N   0  0  0  0  0  0  0  0  0  0  0  0
   55.5540   25.5680   45.9720 C   0  0  0  0  0  0  0  0  0  0  0  0
   54.7730   26.7150   46.0600 O   0  0  0  0  0  0  0  0  0  0  0  0
   56.8870   25.6340   45.5480 C   0  0  0  0  0  0  0  0  0  0  0  0
   57.5140   26.9230   45.1660 C   0  0  0  0  0  0  0  0  0  0  0  0
   57.8870   27.8670   46.0500 C   0  0  0  0  0  0  0  0  0  0  0  0
   58.7000   27.5310   47.1980 C   0  0  0  0  0  0  0  0  0  0  0  0
   59.3500   27.2620   48.1170 N   0  0  0  0  0  0  0  0  0  0  0  0
   57.3880   29.2580   45.9150 C   0  0  0  0  0  0  0  0  0  0  0  0
   56.3560   29.4890   45.2290 O   0  0  0  0  0  0  0  0  0  0  0  0
   58.0090   30.3530   46.6030 N   0  0  0  0  0  0  0  0  0  0  0  0
   58.1750   31.6850   46.0950 C   0  0  0  0  0  0  0  0  0  0  0  0
   58.5300   32.7560   46.9350 C   0  0  0  0  0  0  0  0  0  0  0  0
   58.7010   34.0390   46.4060 C   0  0  0  0  0  0  0  0  0  0  0  0
   58.5360   34.2580   45.0340 C   0  0  0  0  0  0  0  0  0  0  0  0
   58.7040   35.5020   44.5220 F   0  0  0  0  0  0  0  0  0  0  0  0
   58.2080   33.1920   44.1910 C   0  0  0  0  0  0  0  0  0  0  0  0
   58.0360   31.9080   44.7190 C   0  0  0  0  0  0  0  0  0  0  0  0
   57.6430   24.4500   45.5510 C   0  0  0  0  0  0  0  0  0  0  0  0
   58.8520   24.4880   45.1860 O   0  0  0  0  0  0  0  0  0  0  0  0
  1  2  1  0
  2  3  1  0
  3  4  1  0
  4  5  1  0
  5  6  1  0
  6  7  2  0
  6  8  1  0
  8  9  1  0
  9 10  1  0
  9 11  2  0
 11 12  1  0
 12 13  2  3
 13 14  1  0
 14 15  3  0
 13 16  1  0
 16 17  2  0
 16 18  1  0
 18 19  1  0
 19 20  2  0
 20 21  1  0
 21 22  2  0
 22 23  1  0
 22 24  1  0
 24 25  2  0
 11 26  1  0
 26 27  2  0
 26  5  1  0
 25 19  1  0
M  CHG  3   8  -1  10  -1  18  -1
M  END
>  <UniqueID>  (623) 
74

>  <SMILES>  (623) 
CCCCn1c(=O)[n-]c([O-])c(C=C(C#N)C(=O)[N-]c2ccc(F)cc2)c1=O

>  <Energy>  (623) 
53.39717239704004

>  <Genealogy>  (623) 
CCCCn1c(=O)[n-]c([O-])c(C=C(C#N)C(=O)[N-]c2ccc(F)cc2)c1=O (protonated)
CCCCn1c(=O)[n-]c([O-])c(C=C(C#N)C(=O)[N-]c2ccc(F)cc2)c1=O (3D coordinates assigned)
CCCCn1c(=O)[n-]c([O-])c(C=C(C#N)C(=O)[N-]c2ccc(F)cc2)c1=O (optimized conformer: 53.39717239704004 kcal/mol)

>  <smiles>  (623) 
CCCCn1c(=O)[nH]c(O)c(C=C(C#N)C(=O)Nc2ccc(F)cc2)c1=O

>  <score_type>  (623) 
oracle

>  <origin>  (623) 
adg

>  <m_score__min__energy>  (623) 
-14.59

>  <m_primary>  (623) 
energy

$$$$
4:0
     RDKit          3D

 27 29  0  0  0  0  0  0  0  0999 V2000
   59.2700   34.2190   44.1020 O   0  0  0  0  0  0  0  0  0  0  0  0
   58.5260   33.8240   45.0390 C   0  0  0  0  0  0  0  0  0  0  0  0
   57.3270   32.9740   44.7100 C   0  0  0  0  0  0  0  0  0  0  0  0
   57.3950   31.6170   45.4160 C   0  0  0  0  0  0  0  0  0  0  0  0
   57.0900   30.5640   44.5020 O   0  0  0  0  0  0  0  0  0  0  0  0
   56.4200   29.3900   44.8710 C   0  0  0  0  0  0  0  0  0  0  0  0
   55.1590   29.3440   44.8150 O   0  0  0  0  0  0  0  0  0  0  0  0
   57.1810   28.2030   45.3360 C   0  0  0  0  0  0  0  0  0  0  0  0
   58.5890   28.2020   45.2560 C   0  0  0  0  0  0  0  0  0  0  0  0
   59.3270   27.0970   45.6900 C   0  0  0  0  0  0  0  0  0  0  0  0
   58.6740   25.9800   46.2100 C   0  0  0  0  0  0  0  0  0  0  0  0
   57.2810   25.9630   46.2970 C   0  0  0  0  0  0  0  0  0  0  0  0
   56.5320   27.0630   45.8650 C   0  0  0  0  0  0  0  0  0  0  0  0
   55.1460   27.0070   45.9740 O   0  0  0  0  0  0  0  0  0  0  0  0
   58.7800   34.3010   46.3680 N   0  0  0  0  0  0  0  0  0  0  0  0
   59.9010   33.9660   47.1960 C   0  0  0  0  0  0  0  0  0  0  0  0
   61.0970   33.4750   46.6470 C   0  0  0  0  0  0  0  0  0  0  0  0
   62.1810   33.1730   47.4750 C   0  0  0  0  0  0  0  0  0  0  0  0
   62.0940   33.3750   48.8640 C   0  0  0  0  0  0  0  0  0  0  0  0
   63.2070   33.0670   49.7250 N   0  0  0  0  0  0  0  0  0  0  0  0
   62.9720   32.7470   51.1360 C   0  0  0  0  0  0  0  0  0  0  0  0
   64.2070   33.1210   51.9610 C   0  0  0  0  0  0  0  0  0  0  0  0
   65.3740   32.5340   51.4150 O   0  0  0  0  0  0  0  0  0  0  0  0
   65.6240   33.0760   50.1300 C   0  0  0  0  0  0  0  0  0  0  0  0
   64.5060   32.6990   49.1530 C   0  0  0  0  0  0  0  0  0  0  0  0
   60.9100   33.9060   49.4030 C   0  0  0  0  0  0  0  0  0  0  0  0
   59.8260   34.2060   48.5720 C   0  0  0  0  0  0  0  0  0  0  0  0
  1  2  2  0
  2  3  1  0
  3  4  1  0
  4  5  1  0
  5  6  1  0
  6  7  2  0
  6  8  1  0
  8  9  2  0
  9 10  1  0
 10 11  2  0
 11 12  1  0
 12 13  2  0
 13 14  1  0
  2 15  1  0
 15 16  1  0
 16 17  2  0
 17 18  1  0
 18 19  2  0
 19 20  1  0
 20 21  1  0
 21 22  1  0
 22 23  1  0
 23 24  1  0
 24 25  1  0
 19 26  1  0
 26 27  2  0
 13  8  1  0
 27 16  1  0
 25 20  1  0
M  CHG  2  14  -1  15  -1
M  END
>  <UniqueID>  (624) 
5

>  <SMILES>  (624) 
O=C(CCOC(=O)c1ccccc1[O-])[N-]c1ccc(N2CCOCC2)cc1

>  <Energy>  (624) 
56.71402419117628

>  <Genealogy>  (624) 
O=C(CCOC(=O)c1ccccc1[O-])[N-]c1ccc(N2CCOCC2)cc1 (protonated)
O=C(CCOC(=O)c1ccccc1[O-])[N-]c1ccc(N2CCOCC2)cc1 (3D coordinates assigned)
O=C(CCOC(=O)c1ccccc1[O-])[N-]c1ccc(N2CCOCC2)cc1 (nonaromatic ring conformer: 56.71402419117628 kcal/mol)

>  <smiles>  (624) 
O=C(CCOC(=O)c1ccccc1O)Nc1ccc(N2CCOCC2)cc1

>  <score_type>  (624) 
oracle

>  <origin>  (624) 
adg

>  <m_score__min__energy>  (624) 
-14.210000000000001

>  <m_primary>  (624) 
energy

$$$$
16:0
     RDKit          3D

 27 29  0  0  0  0  0  0  0  0999 V2000
   63.2290   32.0540   47.7360 N   0  0  0  0  0  0  0  0  0  0  0  0
   62.7960   33.6910   47.3840 S   0  0  0  0  0  0  0  0  0  0  0  0
   63.7610   34.2420   46.3710 O   0  0  0  0  0  0  0  0  0  0  0  0
   62.8670   34.5070   48.6460 O   0  0  0  0  0  0  0  0  0  0  0  0
   61.1660   33.7480   46.7370 C   0  0  0  0  0  0  0  0  0  0  0  0
   60.5620   34.9740   46.4460 C   0  0  0  0  0  0  0  0  0  0  0  0
   59.2580   34.9900   45.9500 C   0  0  0  0  0  0  0  0  0  0  0  0
   58.5730   33.7910   45.7480 C   0  0  0  0  0  0  0  0  0  0  0  0
   59.2090   32.5700   46.0420 C   0  0  0  0  0  0  0  0  0  0  0  0
   58.5240   31.2640   45.8600 C   0  0  0  0  0  0  0  0  0  0  0  0
   57.6040   31.1000   44.8070 C   0  0  0  0  0  0  0  0  0  0  0  0
   56.9470   29.8800   44.6220 C   0  0  0  0  0  0  0  0  0  0  0  0
   57.1860   28.8040   45.4830 C   0  0  0  0  0  0  0  0  0  0  0  0
   56.4810   27.5760   45.2590 N   0  0  0  0  0  0  0  0  0  0  0  0
   57.2210   26.0240   45.0310 S   0  0  0  0  0  0  0  0  0  0  0  0
   58.3560   25.8790   46.0060 O   0  0  0  0  0  0  0  0  0  0  0  0
   57.7610   25.9470   43.6310 O   0  0  0  0  0  0  0  0  0  0  0  0
   56.0360   24.7320   45.2550 C   0  0  0  0  0  0  0  0  0  0  0  0
   56.4040   23.4000   45.0110 C   0  0  0  0  0  0  0  0  0  0  0  0
   55.4760   22.3690   45.1820 C   0  0  0  0  0  0  0  0  0  0  0  0
   54.1770   22.6600   45.6060 C   0  0  0  0  0  0  0  0  0  0  0  0
   53.8060   23.9820   45.8640 C   0  0  0  0  0  0  0  0  0  0  0  0
   54.7300   25.0190   45.6940 C   0  0  0  0  0  0  0  0  0  0  0  0
   54.3430   26.3250   45.9700 O   0  0  0  0  0  0  0  0  0  0  0  0
   58.0960   28.9630   46.5430 C   0  0  0  0  0  0  0  0  0  0  0  0
   58.7550   30.1820   46.7310 C   0  0  0  0  0  0  0  0  0  0  0  0
   60.4810   32.5910   46.5330 N   0  0  0  0  0  0  0  0  0  0  0  0
  1  2  1  0
  2  3  2  0
  2  4  2  0
  2  5  1  0
  5  6  2  0
  6  7  1  0
  7  8  2  0
  8  9  1  0
  9 10  1  0
 10 11  2  0
 11 12  1  0
 12 13  2  0
 13 14  1  0
 14 15  1  0
 15 16  2  0
 15 17  2  0
 15 18  1  0
 18 19  2  0
 19 20  1  0
 20 21  2  0
 21 22  1  0
 22 23  2  0
 23 24  1  0
 13 25  1  0
 25 26  2  0
  9 27  2  0
 27  5  1  0
 26 10  1  0
 23 18  1  0
M  CHG  3   1  -1  14  -1  24  -1
M  END
>  <UniqueID>  (625) 
15

>  <SMILES>  (625) 
[NH-]S(=O)(=O)c1cccc(-c2ccc([N-]S(=O)(=O)c3ccccc3[O-])cc2)n1

>  <Energy>  (625) 
49.79808730739532

>  <Genealogy>  (625) 
[NH-]S(=O)(=O)c1cccc(-c2ccc([N-]S(=O)(=O)c3ccccc3[O-])cc2)n1 (protonated)
[NH-]S(=O)(=O)c1cccc(-c2ccc([N-]S(=O)(=O)c3ccccc3[O-])cc2)n1 (3D coordinates assigned)
[NH-]S(=O)(=O)c1cccc(-c2ccc([N-]S(=O)(=O)c3ccccc3[O-])cc2)n1 (optimized conformer: 49.79808730739532 kcal/mol)

>  <smiles>  (625) 
NS(=O)(=O)c1cccc(-c2ccc(NS(=O)(=O)c3ccccc3O)cc2)n1

>  <score_type>  (625) 
oracle

>  <origin>  (625) 
adg

>  <m_score__min__energy>  (625) 
-14.1

>  <m_primary>  (625) 
energy

$$$$
44:0
     RDKit          3D

 28 30  0  0  0  0  0  0  0  0999 V2000
   55.5140   29.7600   44.9490 O   0  0  0  0  0  0  0  0  0  0  0  0
   56.6330   29.2470   45.2130 C   0  0  0  0  0  0  0  0  0  0  0  0
   57.8020   30.0740   45.1360 N   0  0  0  0  0  0  0  0  0  0  0  0
   57.9530   31.4000   45.6700 C   0  0  0  0  0  0  0  0  0  0  0  0
   57.6300   32.4810   44.8390 C   0  0  0  0  0  0  0  0  0  0  0  0
   57.6990   33.7900   45.3180 C   0  0  0  0  0  0  0  0  0  0  0  0
   58.1020   34.0340   46.6310 C   0  0  0  0  0  0  0  0  0  0  0  0
   58.4620   32.9710   47.4610 C   0  0  0  0  0  0  0  0  0  0  0  0
   58.4190   31.6490   46.9870 C   0  0  0  0  0  0  0  0  0  0  0  0
   58.8920   30.5740   47.8800 C   0  0  0  0  0  0  0  0  0  0  0  0
   59.1400   29.4380   47.3960 O   0  0  0  0  0  0  0  0  0  0  0  0
   59.0410   30.7710   49.2910 N   0  0  0  0  0  0  0  0  0  0  0  0
   60.3180   30.9800   49.9620 C   0  0  0  0  0  0  0  0  0  0  0  0
   61.2140   31.7990   49.0810 C   0  0  0  0  0  0  0  0  0  0  0  0
   62.0820   31.1680   48.1760 C   0  0  0  0  0  0  0  0  0  0  0  0
   62.9440   31.9270   47.3790 C   0  0  0  0  0  0  0  0  0  0  0  0
   62.9510   33.3210   47.4870 C   0  0  0  0  0  0  0  0  0  0  0  0
   63.7870   34.0570   46.7140 F   0  0  0  0  0  0  0  0  0  0  0  0
   62.1000   33.9560   48.3970 C   0  0  0  0  0  0  0  0  0  0  0  0
   61.2380   33.1980   49.1960 C   0  0  0  0  0  0  0  0  0  0  0  0
   56.6920   27.8270   45.6170 C   0  0  0  0  0  0  0  0  0  0  0  0
   57.8940   27.2210   46.0110 C   0  0  0  0  0  0  0  0  0  0  0  0
   57.8750   25.8740   46.3800 C   0  0  0  0  0  0  0  0  0  0  0  0
   58.9380   25.2980   46.7310 O   0  0  0  0  0  0  0  0  0  0  0  0
   56.7060   25.1840   46.3640 N   0  0  0  0  0  0  0  0  0  0  0  0
   55.5450   25.7870   45.9980 C   0  0  0  0  0  0  0  0  0  0  0  0
   54.4700   25.1330   45.9940 O   0  0  0  0  0  0  0  0  0  0  0  0
   55.5440   27.0950   45.6330 N   0  0  0  0  0  0  0  0  0  0  0  0
  1  2  2  0
  2  3  1  0
  3  4  1  0
  4  5  2  0
  5  6  1  0
  6  7  2  0
  7  8  1  0
  8  9  2  0
  9 10  1  0
 10 11  2  0
 10 12  1  0
 12 13  1  0
 13 14  1  0
 14 15  2  0
 15 16  1  0
 16 17  2  0
 17 18  1  0
 17 19  1  0
 19 20  2  0
  2 21  1  0
 21 22  2  0
 22 23  1  0
 23 24  2  0
 23 25  1  0
 25 26  1  0
 26 27  2  0
 26 28  1  0
  9  4  1  0
 20 14  1  0
 28 21  1  0
M  CHG  4   3  -1  12  -1  25  -1  28  -1
M  END
>  <UniqueID>  (626) 
43

>  <SMILES>  (626) 
O=C([N-]c1ccccc1C(=O)[N-]Cc1ccc(F)cc1)c1cc(=O)[n-]c(=O)[n-]1

>  <Energy>  (626) 
55.10331887067

>  <Genealogy>  (626) 
O=C([N-]c1ccccc1C(=O)[N-]Cc1ccc(F)cc1)c1cc(=O)[n-]c(=O)[n-]1 (protonated)
O=C([N-]c1ccccc1C(=O)[N-]Cc1ccc(F)cc1)c1cc(=O)[n-]c(=O)[n-]1 (3D coordinates assigned)
O=C([N-]c1ccccc1C(=O)[N-]Cc1ccc(F)cc1)c1cc(=O)[n-]c(=O)[n-]1 (optimized conformer: 55.10331887067 kcal/mol)

>  <smiles>  (626) 
O=C(Nc1ccccc1C(=O)NCc1ccc(F)cc1)c1cc(=O)[nH]c(=O)[nH]1

>  <score_type>  (626) 
oracle

>  <origin>  (626) 
adg

>  <m_score__min__energy>  (626) 
-16.16

>  <m_primary>  (626) 
energy

$$$$
56:0
     RDKit          3D

 32 35  0  0  0  0  0  0  0  0999 V2000
   55.9050   30.5410   44.7300 O   0  0  0  0  0  0  0  0  0  0  0  0
   57.1560   30.6850   44.6800 C   0  0  0  0  0  0  0  0  0  0  0  0
   57.9520   29.5960   44.1930 N   0  0  0  0  0  0  0  0  0  0  0  0
   58.2370   28.3740   44.8930 C   0  0  0  0  0  0  0  0  0  0  0  0
   59.0110   28.3580   46.0660 C   0  0  0  0  0  0  0  0  0  0  0  0
   59.2810   27.1500   46.7140 C   0  0  0  0  0  0  0  0  0  0  0  0
   58.7980   25.9490   46.1880 C   0  0  0  0  0  0  0  0  0  0  0  0
   58.0410   25.9480   45.0060 C   0  0  0  0  0  0  0  0  0  0  0  0
   57.5640   24.6510   44.4100 C   0  0  0  0  0  0  0  0  0  0  0  0
   56.1150   24.4160   44.7570 C   0  0  0  0  0  0  0  0  0  0  0  0
   55.4560   25.2730   45.6480 C   0  0  0  0  0  0  0  0  0  0  0  0
   54.1410   25.0850   45.9310 N   0  0  0  0  0  0  0  0  0  0  0  0
   53.4400   24.0760   45.3530 C   0  0  0  0  0  0  0  0  0  0  0  0
   52.2220   23.9220   45.6240 O   0  0  0  0  0  0  0  0  0  0  0  0
   54.0510   23.2370   44.4770 N   0  0  0  0  0  0  0  0  0  0  0  0
   55.3650   23.3840   44.1650 C   0  0  0  0  0  0  0  0  0  0  0  0
   55.8960   22.5880   43.3450 O   0  0  0  0  0  0  0  0  0  0  0  0
   57.7760   27.1650   44.3570 C   0  0  0  0  0  0  0  0  0  0  0  0
   57.7610   31.9410   45.1820 C   0  0  0  0  0  0  0  0  0  0  0  0
   57.7600   33.1050   44.3930 C   0  0  0  0  0  0  0  0  0  0  0  0
   58.3320   34.2850   44.8760 C   0  0  0  0  0  0  0  0  0  0  0  0
   58.9240   34.3110   46.1410 C   0  0  0  0  0  0  0  0  0  0  0  0
   58.9480   33.1540   46.9300 C   0  0  0  0  0  0  0  0  0  0  0  0
   59.6860   33.1700   48.5310 S   0  0  0  0  0  0  0  0  0  0  0  0
   59.9420   34.6000   48.9190 O   0  0  0  0  0  0  0  0  0  0  0  0
   58.7520   32.5570   49.5380 O   0  0  0  0  0  0  0  0  0  0  0  0
   61.1980   32.2860   48.4900 N   0  0  0  0  0  0  0  0  0  0  0  0
   62.2340   33.0040   49.2400 C   0  0  0  0  0  0  0  0  0  0  0  0
   63.0270   33.8590   48.2610 C   0  0  0  0  0  0  0  0  0  0  0  0
   62.6410   33.3650   46.8790 C   0  0  0  0  0  0  0  0  0  0  0  0
   61.7000   32.1950   47.1160 C   0  0  0  0  0  0  0  0  0  0  0  0
   58.3660   31.9730   46.4490 C   0  0  0  0  0  0  0  0  0  0  0  0
  1  2  2  0
  2  3  1  0
  3  4  1  0
  4  5  2  0
  5  6  1  0
  6  7  2  0
  7  8  1  0
  8  9  1  0
  9 10  1  0
 10 11  2  0
 11 12  1  0
 12 13  1  0
 13 14  2  0
 13 15  1  0
 15 16  1  0
 16 17  2  0
  8 18  2  0
  2 19  1  0
 19 20  2  0
 20 21  1  0
 21 22  2  0
 22 23  1  0
 23 24  1  0
 24 25  2  0
 24 26  2  0
 24 27  1  0
 27 28  1  0
 28 29  1  0
 29 30  1  0
 30 31  1  0
 23 32  2  0
 18  4  1  0
 32 19  1  0
 16 10  1  0
 31 27  1  0
M  CHG  3   3  -1  12  -1  15  -1
M  END
>  <UniqueID>  (627) 
54

>  <SMILES>  (627) 
O=C([N-]c1cccc(Cc2c[n-]c(=O)[n-]c2=O)c1)c1cccc(S(=O)(=O)N2CCCC2)c1

>  <Energy>  (627) 
63.037062020501544

>  <Genealogy>  (627) 
O=C([N-]c1cccc(Cc2c[n-]c(=O)[n-]c2=O)c1)c1cccc(S(=O)(=O)N2CCCC2)c1 (protonated)
O=C([N-]c1cccc(Cc2c[n-]c(=O)[n-]c2=O)c1)c1cccc(S(=O)(=O)N2CCCC2)c1 (3D coordinates assigned)
O=C([N-]c1cccc(Cc2c[n-]c(=O)[n-]c2=O)c1)c1cccc(S(=O)(=O)N2CCCC2)c1 (nonaromatic ring conformer: 63.037062020501544 kcal/mol)

>  <smiles>  (627) 
O=C(Nc1cccc(Cc2c[nH]c(=O)[nH]c2=O)c1)c1cccc(S(=O)(=O)N2CCCC2)c1

>  <score_type>  (627) 
oracle

>  <origin>  (627) 
adg

>  <m_score__min__energy>  (627) 
-16.300000000000001

>  <m_primary>  (627) 
energy

$$$$
72:0
     RDKit          3D

 26 28  0  0  0  0  0  0  0  0999 V2000
   52.2590   28.2290   53.3330 O   0  0  0  0  0  0  0  0  0  0  0  0
   52.8430   29.3010   53.0220 C   0  0  0  0  0  0  0  0  0  0  0  0
   54.0950   29.6080   53.6520 N   0  0  0  0  0  0  0  0  0  0  0  0
   55.3070   29.9860   52.9830 C   0  0  0  0  0  0  0  0  0  0  0  0
   55.4100   31.1930   52.2680 C   0  0  0  0  0  0  0  0  0  0  0  0
   56.6050   31.5310   51.6290 C   0  0  0  0  0  0  0  0  0  0  0  0
   57.7040   30.6650   51.6840 C   0  0  0  0  0  0  0  0  0  0  0  0
   59.2110   31.1090   50.8890 S   0  0  0  0  0  0  0  0  0  0  0  0
   60.1460   29.9320   50.8690 O   0  0  0  0  0  0  0  0  0  0  0  0
   58.9080   31.5250   49.4770 O   0  0  0  0  0  0  0  0  0  0  0  0
   59.9610   32.4320   51.7500 N   0  0  0  0  0  0  0  0  0  0  0  0
   59.3870   33.7340   51.3400 C   0  0  0  0  0  0  0  0  0  0  0  0
   58.4700   34.3330   52.4200 C   0  0  0  0  0  0  0  0  0  0  0  0
   59.1280   34.5260   53.6630 O   0  0  0  0  0  0  0  0  0  0  0  0
   60.0760   33.5110   53.9750 C   0  0  0  0  0  0  0  0  0  0  0  0
   59.8760   32.1960   53.2040 C   0  0  0  0  0  0  0  0  0  0  0  0
   57.5910   29.4470   52.3650 C   0  0  0  0  0  0  0  0  0  0  0  0
   56.3960   29.1080   53.0060 C   0  0  0  0  0  0  0  0  0  0  0  0
   52.1950   30.2280   52.0620 C   0  0  0  0  0  0  0  0  0  0  0  0
   51.7280   31.4790   52.4950 C   0  0  0  0  0  0  0  0  0  0  0  0
   51.1200   32.3430   51.5810 C   0  0  0  0  0  0  0  0  0  0  0  0
   50.6440   33.5780   52.0020 O   0  0  0  0  0  0  0  0  0  0  0  0
   50.9910   31.9780   50.2790 N   0  0  0  0  0  0  0  0  0  0  0  0
   51.4460   30.7800   49.8250 C   0  0  0  0  0  0  0  0  0  0  0  0
   51.3130   30.4800   48.6100 O   0  0  0  0  0  0  0  0  0  0  0  0
   52.0620   29.8860   50.7060 C   0  0  0  0  0  0  0  0  0  0  0  0
  1  2  2  0
  2  3  1  0
  3  4  1  0
  4  5  2  0
  5  6  1  0
  6  7  2  0
  7  8  1  0
  8  9  2  0
  8 10  2  0
  8 11  1  0
 11 12  1  0
 12 13  1  0
 13 14  1  0
 14 15  1  0
 15 16  1  0
  7 17  1  0
 17 18  2  0
  2 19  1  0
 19 20  1  0
 20 21  2  0
 21 22  1  0
 21 23  1  0
 23 24  1  0
 24 25  2  0
 24 26  1  0
 18  4  1  0
 26 19  2  0
 16 11  1  0
M  CHG  3   3  -1  22  -1  23  -1
M  END
>  <UniqueID>  (628) 
70

>  <SMILES>  (628) 
O=C([N-]c1ccc(S(=O)(=O)N2CCOCC2)cc1)c1cc([O-])[n-]c(=O)c1

>  <Energy>  (628) 
61.5112724487991

>  <Genealogy>  (628) 
O=C([N-]c1ccc(S(=O)(=O)N2CCOCC2)cc1)c1cc([O-])[n-]c(=O)c1 (protonated)
O=C([N-]c1ccc(S(=O)(=O)N2CCOCC2)cc1)c1cc([O-])[n-]c(=O)c1 (3D coordinates assigned)
O=C([N-]c1ccc(S(=O)(=O)N2CCOCC2)cc1)c1cc([O-])[n-]c(=O)c1 (nonaromatic ring conformer: 61.5112724487991 kcal/mol)

>  <smiles>  (628) 
O=C(Nc1ccc(S(=O)(=O)N2CCOCC2)cc1)c1cc(O)[nH]c(=O)c1

>  <score_type>  (628) 
oracle

>  <origin>  (628) 
adg

>  <m_score__min__energy>  (628) 
-16.129999999999999

>  <m_primary>  (628) 
energy

$$$$
57:0
     RDKit          3D

 23 25  0  0  0  0  0  0  0  0999 V2000
   56.1080   27.5770   56.0550 C   0  0  0  0  0  0  0  0  0  0  0  0
   55.0670   27.6250   55.1900 N   0  0  0  0  0  0  0  0  0  0  0  0
   55.1860   28.1370   53.9360 C   0  0  0  0  0  0  0  0  0  0  0  0
   54.1170   28.1330   53.1810 N   0  0  0  0  0  0  0  0  0  0  0  0
   53.3330   29.2500   52.7410 C   0  0  0  0  0  0  0  0  0  0  0  0
   52.8700   30.2110   53.6730 C   0  0  0  0  0  0  0  0  0  0  0  0
   52.0900   31.3010   53.2460 C   0  0  0  0  0  0  0  0  0  0  0  0
   51.7760   31.3900   51.8910 C   0  0  0  0  0  0  0  0  0  0  0  0
   51.0470   32.3520   51.2960 N   0  0  0  0  0  0  0  0  0  0  0  0
   51.0310   31.9830   49.9930 C   0  0  0  0  0  0  0  0  0  0  0  0
   50.3760   32.7120   49.0100 O   0  0  0  0  0  0  0  0  0  0  0  0
   51.7330   30.8090   49.7570 C   0  0  0  0  0  0  0  0  0  0  0  0
   52.2050   30.4450   50.9940 C   0  0  0  0  0  0  0  0  0  0  0  0
   52.9770   29.3530   51.3820 C   0  0  0  0  0  0  0  0  0  0  0  0
   56.4640   28.6110   53.5160 C   0  0  0  0  0  0  0  0  0  0  0  0
   56.6380   29.0450   52.2990 N   0  0  0  0  0  0  0  0  0  0  0  0
   57.9700   29.9710   51.6800 S   0  0  0  0  0  0  0  0  0  0  0  0
   59.2350   29.4700   52.3180 O   0  0  0  0  0  0  0  0  0  0  0  0
   58.0810   29.7880   50.1930 O   0  0  0  0  0  0  0  0  0  0  0  0
   57.7700   31.7000   52.0840 C   0  0  0  0  0  0  0  0  0  0  0  0
   56.3050   32.0270   52.3490 C   0  0  0  0  0  0  0  0  0  0  0  0
   57.5050   28.5640   54.4060 N   0  0  0  0  0  0  0  0  0  0  0  0
   57.3480   28.0620   55.6580 C   0  0  0  0  0  0  0  0  0  0  0  0
  1  2  1  0
  2  3  1  0
  3  4  2  0
  4  5  1  0
  5  6  2  0
  6  7  1  0
  7  8  2  0
  8  9  1  0
  9 10  1  0
 10 11  1  0
 10 12  2  0
 12 13  1  0
 13 14  2  0
  3 15  1  0
 15 16  2  0
 16 17  1  0
 17 18  2  0
 17 19  2  0
 17 20  1  0
 20 21  1  0
 15 22  1  0
 22 23  1  0
 23  1  2  0
 14  5  1  0
 13  8  1  0
M  CHG  3   2  -1   9  -1  11  -1
M  END
>  <UniqueID>  (629) 
51

>  <SMILES>  (629) 
CCS(=O)(=O)/N=c1\[nH]cc[n-]\c1=N\c1ccc2[n-]c([O-])cc2c1

>  <Energy>  (629) 
82.33598515151621

>  <Genealogy>  (629) 
CCS(=O)(=O)N=c1[nH]cc[n-]c1=Nc1ccc2[n-]c([O-])cc2c1 (protonated)
CCS(=O)(=O)/N=c1\[nH]cc[n-]\c1=N\c1ccc2[n-]c([O-])cc2c1 (cis-trans isomerization)
CCS(=O)(=O)/N=c1\[nH]cc[n-]\c1=N\c1ccc2[n-]c([O-])cc2c1 (3D coordinates assigned)
CCS(=O)(=O)/N=c1\[nH]cc[n-]\c1=N\c1ccc2[n-]c([O-])cc2c1 (optimized conformer: 82.33598515151621 kcal/mol)

>  <smiles>  (629) 
CCS(=O)(=O)N=c1[nH]cc[nH]c1=Nc1ccc2[nH]c(O)cc2c1

>  <score_type>  (629) 
oracle

>  <origin>  (629) 
adg

>  <m_score__min__energy>  (629) 
-14.109999999999999

>  <m_primary>  (629) 
energy

$$$$
89:0
     RDKit          3D

 28 30  0  0  0  0  0  0  0  0999 V2000
   57.5120   31.2030   43.2860 O   0  0  0  0  0  0  0  0  0  0  0  0
   56.9000   30.9820   44.3660 C   0  0  0  0  0  0  0  0  0  0  0  0
   56.0570   29.7570   44.5070 C   0  0  0  0  0  0  0  0  0  0  0  0
   56.7580   28.7720   45.3150 N   0  0  0  0  0  0  0  0  0  0  0  0
   57.3800   27.6100   44.7550 C   0  0  0  0  0  0  0  0  0  0  0  0
   58.0440   27.7160   43.6870 O   0  0  0  0  0  0  0  0  0  0  0  0
   57.2430   26.2950   45.4280 C   0  0  0  0  0  0  0  0  0  0  0  0
   58.3530   25.4310   45.4940 C   0  0  0  0  0  0  0  0  0  0  0  0
   58.2520   24.1880   46.1290 C   0  0  0  0  0  0  0  0  0  0  0  0
   57.0430   23.7900   46.7020 C   0  0  0  0  0  0  0  0  0  0  0  0
   55.9330   24.6330   46.6440 C   0  0  0  0  0  0  0  0  0  0  0  0
   56.0240   25.8800   46.0140 C   0  0  0  0  0  0  0  0  0  0  0  0
   54.9000   26.7020   45.9960 O   0  0  0  0  0  0  0  0  0  0  0  0
   56.9620   31.9180   45.4460 N   0  0  0  0  0  0  0  0  0  0  0  0
   57.9930   32.8980   45.6140 C   0  0  0  0  0  0  0  0  0  0  0  0
   57.9700   34.0340   44.7930 C   0  0  0  0  0  0  0  0  0  0  0  0
   58.9480   35.0220   44.9200 C   0  0  0  0  0  0  0  0  0  0  0  0
   59.9510   34.8930   45.8830 C   0  0  0  0  0  0  0  0  0  0  0  0
   59.9680   33.7830   46.7300 C   0  0  0  0  0  0  0  0  0  0  0  0
   58.9900   32.7830   46.6120 C   0  0  0  0  0  0  0  0  0  0  0  0
   59.0100   31.6710   47.5830 C   0  0  0  0  0  0  0  0  0  0  0  0
   58.5790   31.8890   48.7480 O   0  0  0  0  0  0  0  0  0  0  0  0
   59.4110   30.3370   47.1990 N   0  0  0  0  0  0  0  0  0  0  0  0
   58.8810   29.2000   47.9700 C   0  0  0  0  0  0  0  0  0  0  0  0
   59.6780   27.9180   47.7030 C   0  0  0  0  0  0  0  0  0  0  0  0
   59.8740   27.7140   46.3190 O   0  0  0  0  0  0  0  0  0  0  0  0
   60.6870   28.7480   45.8050 C   0  0  0  0  0  0  0  0  0  0  0  0
   59.9460   30.0860   45.8520 C   0  0  0  0  0  0  0  0  0  0  0  0
  1  2  2  0
  2  3  1  0
  3  4  1  0
  4  5  1  0
  5  6  2  0
  5  7  1  0
  7  8  2  0
  8  9  1  0
  9 10  2  0
 10 11  1  0
 11 12  2  0
 12 13  1  0
  2 14  1  0
 14 15  1  0
 15 16  2  0
 16 17  1  0
 17 18  2  0
 18 19  1  0
 19 20  2  0
 20 21  1  0
 21 22  2  0
 21 23  1  0
 23 24  1  0
 24 25  1  0
 25 26  1  0
 26 27  1  0
 27 28  1  0
 12  7  1  0
 20 15  1  0
 28 23  1  0
M  CHG  3   4  -1  13  -1  14  -1
M  END
>  <UniqueID>  (630) 
81

>  <SMILES>  (630) 
O=C(C[N-]C(=O)c1ccccc1[O-])[N-]c1ccccc1C(=O)N1CCOCC1

>  <Energy>  (630) 
61.02954505707156

>  <Genealogy>  (630) 
O=C(C[N-]C(=O)c1ccccc1[O-])[N-]c1ccccc1C(=O)N1CCOCC1 (protonated)
O=C(C[N-]C(=O)c1ccccc1[O-])[N-]c1ccccc1C(=O)N1CCOCC1 (3D coordinates assigned)
O=C(C[N-]C(=O)c1ccccc1[O-])[N-]c1ccccc1C(=O)N1CCOCC1 (nonaromatic ring conformer: 61.02954505707156 kcal/mol)

>  <smiles>  (630) 
O=C(CNC(=O)c1ccccc1O)Nc1ccccc1C(=O)N1CCOCC1

>  <score_type>  (630) 
oracle

>  <origin>  (630) 
adg

>  <m_score__min__energy>  (630) 
-15.49

>  <m_primary>  (630) 
energy

$$$$
95:0
     RDKit          3D

 28 31  0  0  0  0  0  0  0  0999 V2000
   51.3930   32.7040   50.8260 N   0  0  0  0  0  0  0  0  0  0  0  0
   51.6240   31.3380   50.4880 C   0  0  0  0  0  0  0  0  0  0  0  0
   51.0630   30.8540   49.4680 O   0  0  0  0  0  0  0  0  0  0  0  0
   52.5120   30.4960   51.3230 C   0  0  0  0  0  0  0  0  0  0  0  0
   52.0010   29.3340   51.9650 C   0  0  0  0  0  0  0  0  0  0  0  0
   52.8310   28.5250   52.7590 C   0  0  0  0  0  0  0  0  0  0  0  0
   54.1640   28.8980   52.8960 C   0  0  0  0  0  0  0  0  0  0  0  0
   55.1180   28.2690   53.6020 N   0  0  0  0  0  0  0  0  0  0  0  0
   56.2410   28.9670   53.4570 N   0  0  0  0  0  0  0  0  0  0  0  0
   56.0050   30.0380   52.6590 C   0  0  0  0  0  0  0  0  0  0  0  0
   57.0390   31.0270   52.2900 C   0  0  0  0  0  0  0  0  0  0  0  0
   57.5270   31.9390   53.2360 C   0  0  0  0  0  0  0  0  0  0  0  0
   58.5010   32.8550   52.8420 C   0  0  0  0  0  0  0  0  0  0  0  0
   58.9590   32.8510   51.5650 N   0  0  0  0  0  0  0  0  0  0  0  0
   58.4810   31.9620   50.6520 C   0  0  0  0  0  0  0  0  0  0  0  0
   58.9160   31.9620   49.4290 N   0  0  0  0  0  0  0  0  0  0  0  0
   59.7000   33.3190   48.6840 S   0  0  0  0  0  0  0  0  0  0  0  0
   61.1580   33.0080   48.5020 O   0  0  0  0  0  0  0  0  0  0  0  0
   59.5630   34.5160   49.5820 O   0  0  0  0  0  0  0  0  0  0  0  0
   58.9820   33.6400   47.1080 C   0  0  0  0  0  0  0  0  0  0  0  0
   59.7140   34.3100   46.1160 C   0  0  0  0  0  0  0  0  0  0  0  0
   59.1330   34.5680   44.8700 C   0  0  0  0  0  0  0  0  0  0  0  0
   57.8230   34.1570   44.6090 C   0  0  0  0  0  0  0  0  0  0  0  0
   57.0920   33.4840   45.5940 C   0  0  0  0  0  0  0  0  0  0  0  0
   57.6710   33.2240   46.8400 C   0  0  0  0  0  0  0  0  0  0  0  0
   57.5310   31.0650   51.0220 N   0  0  0  0  0  0  0  0  0  0  0  0
   54.6710   30.0100   52.2870 C   0  0  0  0  0  0  0  0  0  0  0  0
   53.8760   30.8390   51.4900 C   0  0  0  0  0  0  0  0  0  0  0  0
  1  2  1  0
  2  3  2  0
  2  4  1  0
  4  5  2  0
  5  6  1  0
  6  7  2  0
  7  8  1  0
  8  9  1  0
  9 10  2  0
 10 11  1  0
 11 12  1  0
 12 13  2  0
 13 14  1  0
 14 15  1  0
 15 16  2  3
 16 17  1  0
 17 18  2  0
 17 19  2  0
 17 20  1  0
 20 21  2  0
 21 22  1  0
 22 23  2  0
 23 24  1  0
 24 25  2  0
 15 26  1  0
 10 27  1  0
 27 28  2  0
 28  4  1  0
 27  7  1  0
 26 11  2  0
 25 20  1  0
M  CHG  3   1  -1   8  -1  14  -1
M  END
>  <UniqueID>  (631) 
87

>  <SMILES>  (631) 
[NH-]C(=O)c1ccc2[n-]nc(-c3cc[n-]c(=NS(=O)(=O)c4ccccc4)n3)c2c1

>  <Energy>  (631) 
87.27594274207738

>  <Genealogy>  (631) 
[NH-]C(=O)c1ccc2[n-]nc(-c3cc[n-]c(=NS(=O)(=O)c4ccccc4)n3)c2c1 (protonated)
[NH-]C(=O)c1ccc2[n-]nc(-c3cc[n-]c(=NS(=O)(=O)c4ccccc4)n3)c2c1 (3D coordinates assigned)
[NH-]C(=O)c1ccc2[n-]nc(-c3cc[n-]c(=NS(=O)(=O)c4ccccc4)n3)c2c1 (optimized conformer: 87.27594274207738 kcal/mol)

>  <smiles>  (631) 
NC(=O)c1ccc2[nH]nc(-c3cc[nH]c(=NS(=O)(=O)c4ccccc4)n3)c2c1

>  <score_type>  (631) 
oracle

>  <origin>  (631) 
adg

>  <m_score__min__energy>  (631) 
-14.75

>  <m_primary>  (631) 
energy

$$$$
10:0
     RDKit          3D

 31 34  0  0  0  0  0  0  0  0999 V2000
   59.1380   25.8200   45.2590 O   0  0  0  0  0  0  0  0  0  0  0  0
   57.7810   25.5300   45.4080 C   0  0  0  0  0  0  0  0  0  0  0  0
   57.2190   24.2850   45.2120 C   0  0  0  0  0  0  0  0  0  0  0  0
   55.8700   24.4230   45.4170 C   0  0  0  0  0  0  0  0  0  0  0  0
   55.6540   25.7490   45.7340 C   0  0  0  0  0  0  0  0  0  0  0  0
   54.4130   26.3210   45.9950 O   0  0  0  0  0  0  0  0  0  0  0  0
   56.8240   26.4280   45.7460 N   0  0  0  0  0  0  0  0  0  0  0  0
   56.9920   27.8610   45.9950 C   0  0  0  0  0  0  0  0  0  0  0  0
   57.4010   28.5720   44.7330 C   0  0  0  0  0  0  0  0  0  0  0  0
   57.9870   27.9280   43.8230 O   0  0  0  0  0  0  0  0  0  0  0  0
   57.1170   29.9620   44.5220 N   0  0  0  0  0  0  0  0  0  0  0  0
   57.8000   31.0710   45.1190 C   0  0  0  0  0  0  0  0  0  0  0  0
   57.3580   32.3920   44.9340 C   0  0  0  0  0  0  0  0  0  0  0  0
   58.0210   33.4520   45.5590 C   0  0  0  0  0  0  0  0  0  0  0  0
   59.1210   33.2030   46.3890 C   0  0  0  0  0  0  0  0  0  0  0  0
   59.9460   34.5270   47.2080 S   0  0  0  0  0  0  0  0  0  0  0  0
   59.0190   35.6960   47.3950 O   0  0  0  0  0  0  0  0  0  0  0  0
   61.1090   34.9640   46.3620 O   0  0  0  0  0  0  0  0  0  0  0  0
   60.5320   34.0030   48.7560 N   0  0  0  0  0  0  0  0  0  0  0  0
   61.7760   33.7210   49.0100 C   0  0  0  0  0  0  0  0  0  0  0  0
   62.3590   34.1120   50.1810 N   0  0  0  0  0  0  0  0  0  0  0  0
   63.6450   33.7940   50.4800 C   0  0  0  0  0  0  0  0  0  0  0  0
   64.4170   33.0630   49.5730 C   0  0  0  0  0  0  0  0  0  0  0  0
   63.8500   32.6710   48.3580 C   0  0  0  0  0  0  0  0  0  0  0  0
   62.5220   32.9950   48.0750 C   0  0  0  0  0  0  0  0  0  0  0  0
   59.5430   31.8830   46.6000 C   0  0  0  0  0  0  0  0  0  0  0  0
   58.8810   30.8240   45.9740 C   0  0  0  0  0  0  0  0  0  0  0  0
   54.8800   23.3160   45.2490 C   0  0  0  0  0  0  0  0  0  0  0  0
   55.5640   21.9930   44.9690 C   0  0  0  0  0  0  0  0  0  0  0  0
   56.8950   21.8570   44.7660 C   0  0  0  0  0  0  0  0  0  0  0  0
   57.8770   23.0100   44.7940 C   0  0  0  0  0  0  0  0  0  0  0  0
  1  2  1  0
  2  3  2  0
  3  4  1  0
  4  5  2  0
  5  6  1  0
  5  7  1  0
  7  8  1  0
  8  9  1  0
  9 10  2  0
  9 11  1  0
 11 12  1  0
 12 13  2  0
 13 14  1  0
 14 15  2  0
 15 16  1  0
 16 17  2  0
 16 18  2  0
 16 19  1  0
 19 20  2  0
 20 21  1  0
 21 22  1  0
 22 23  2  0
 23 24  1  0
 24 25  2  0
 15 26  1  0
 26 27  2  0
  4 28  1  0
 28 29  1  0
 29 30  2  0
 30 31  1  0
  7  2  1  0
 27 12  1  0
 31  3  1  0
 25 20  1  0
M  CHG  3   6  -1  11  -1  21  -1
M  END
>  <UniqueID>  (632) 
7

>  <SMILES>  (632) 
O=C(Cn1c([O-])c2c(c1O)CC=CC2)[N-]c1ccc(S(=O)(=O)/N=c2/cccc[n-]2)cc1

>  <Energy>  (632) 
91.90210504934396

>  <Genealogy>  (632) 
O=C(Cn1c([O-])c2c(c1O)CC=CC2)[N-]c1ccc(S(=O)(=O)N=c2cccc[n-]2)cc1 (protonated)
O=C(Cn1c([O-])c2c(c1O)CC=CC2)[N-]c1ccc(S(=O)(=O)/N=c2/cccc[n-]2)cc1 (cis-trans isomerization)
O=C(Cn1c([O-])c2c(c1O)CC=CC2)[N-]c1ccc(S(=O)(=O)/N=c2/cccc[n-]2)cc1 (3D coordinates assigned)
O=C(Cn1c([O-])c2c(c1O)CC=CC2)[N-]c1ccc(S(=O)(=O)/N=c2/cccc[n-]2)cc1 (nonaromatic ring conformer: 91.90210504934396 kcal/mol)

>  <smiles>  (632) 
O=C(Cn1c(O)c2c(c1O)CC=CC2)Nc1ccc(S(=O)(=O)N=c2cccc[nH]2)cc1

>  <score_type>  (632) 
oracle

>  <origin>  (632) 
adg

>  <m_score__min__energy>  (632) 
-14.32

>  <m_primary>  (632) 
energy

$$$$
22:0
     RDKit          3D

 26 28  0  0  0  0  0  0  0  0999 V2000
   54.2460   25.8770   45.8310 O   0  0  0  0  0  0  0  0  0  0  0  0
   55.4540   25.5260   45.7310 C   0  0  0  0  0  0  0  0  0  0  0  0
   56.4720   26.2350   46.4480 N   0  0  0  0  0  0  0  0  0  0  0  0
   57.3610   27.2050   45.8760 C   0  0  0  0  0  0  0  0  0  0  0  0
   58.7300   26.9190   45.8420 C   0  0  0  0  0  0  0  0  0  0  0  0
   59.6290   27.8350   45.2980 C   0  0  0  0  0  0  0  0  0  0  0  0
   59.1670   29.0370   44.7600 C   0  0  0  0  0  0  0  0  0  0  0  0
   57.7960   29.3240   44.7420 C   0  0  0  0  0  0  0  0  0  0  0  0
   57.2520   30.8590   44.0520 S   0  0  0  0  0  0  0  0  0  0  0  0
   57.2510   30.7380   42.5520 O   0  0  0  0  0  0  0  0  0  0  0  0
   55.8510   31.1750   44.5000 O   0  0  0  0  0  0  0  0  0  0  0  0
   58.3380   32.1440   44.5250 N   0  0  0  0  0  0  0  0  0  0  0  0
   58.7640   31.9580   45.9250 C   0  0  0  0  0  0  0  0  0  0  0  0
   59.3090   33.2760   46.4970 C   0  0  0  0  0  0  0  0  0  0  0  0
   58.3600   34.3370   46.5130 O   0  0  0  0  0  0  0  0  0  0  0  0
   57.3030   34.1740   45.5780 C   0  0  0  0  0  0  0  0  0  0  0  0
   57.7380   33.4740   44.2750 C   0  0  0  0  0  0  0  0  0  0  0  0
   56.8860   28.4000   45.2940 C   0  0  0  0  0  0  0  0  0  0  0  0
   55.5190   28.6510   45.2410 O   0  0  0  0  0  0  0  0  0  0  0  0
   55.8240   24.3620   44.9060 C   0  0  0  0  0  0  0  0  0  0  0  0
   57.1540   23.9360   44.7960 C   0  0  0  0  0  0  0  0  0  0  0  0
   57.4480   22.8120   44.0240 C   0  0  0  0  0  0  0  0  0  0  0  0
   56.4120   22.1410   43.3760 C   0  0  0  0  0  0  0  0  0  0  0  0
   56.6500   21.1240   42.6760 O   0  0  0  0  0  0  0  0  0  0  0  0
   55.1370   22.5920   43.5100 N   0  0  0  0  0  0  0  0  0  0  0  0
   54.8530   23.6660   44.2510 N   0  0  0  0  0  0  0  0  0  0  0  0
  1  2  2  0
  2  3  1  0
  3  4  1  0
  4  5  2  0
  5  6  1  0
  6  7  2  0
  7  8  1  0
  8  9  1  0
  9 10  2  0
  9 11  2  0
  9 12  1  0
 12 13  1  0
 13 14  1  0
 14 15  1  0
 15 16  1  0
 16 17  1  0
  8 18  2  0
 18 19  1  0
  2 20  1  0
 20 21  1  0
 21 22  2  0
 22 23  1  0
 23 24  2  0
 23 25  1  0
 25 26  1  0
 18  4  1  0
 26 20  2  0
 17 12  1  0
M  CHG  3   3  -1  19  -1  25  -1
M  END
>  <UniqueID>  (633) 
18

>  <SMILES>  (633) 
O=C([N-]c1cccc(S(=O)(=O)N2CCOCC2)c1[O-])c1ccc(=O)[n-]n1

>  <Energy>  (633) 
61.06615370512477

>  <Genealogy>  (633) 
O=C([N-]c1cccc(S(=O)(=O)N2CCOCC2)c1[O-])c1ccc(=O)[n-]n1 (protonated)
O=C([N-]c1cccc(S(=O)(=O)N2CCOCC2)c1[O-])c1ccc(=O)[n-]n1 (3D coordinates assigned)
O=C([N-]c1cccc(S(=O)(=O)N2CCOCC2)c1[O-])c1ccc(=O)[n-]n1 (nonaromatic ring conformer: 61.06615370512477 kcal/mol)

>  <smiles>  (633) 
O=C(Nc1cccc(S(=O)(=O)N2CCOCC2)c1O)c1ccc(=O)[nH]n1

>  <score_type>  (633) 
oracle

>  <origin>  (633) 
adg

>  <m_score__min__energy>  (633) 
-16.710000000000001

>  <m_primary>  (633) 
energy

$$$$
28:0
     RDKit          3D

 30 33  0  0  0  0  0  0  0  0999 V2000
   55.3250   29.4440   44.7430 O   0  0  0  0  0  0  0  0  0  0  0  0
   56.3040   28.8620   45.2820 C   0  0  0  0  0  0  0  0  0  0  0  0
   57.3980   29.6160   45.8210 N   0  0  0  0  0  0  0  0  0  0  0  0
   57.8230   30.9220   45.4090 C   0  0  0  0  0  0  0  0  0  0  0  0
   57.5920   31.4070   44.1080 C   0  0  0  0  0  0  0  0  0  0  0  0
   58.0490   32.6750   43.7400 C   0  0  0  0  0  0  0  0  0  0  0  0
   58.7470   33.4650   44.6580 C   0  0  0  0  0  0  0  0  0  0  0  0
   58.9990   32.9840   45.9500 C   0  0  0  0  0  0  0  0  0  0  0  0
   59.9140   33.9520   47.1040 S   0  0  0  0  0  0  0  0  0  0  0  0
   58.9470   34.8130   47.8680 O   0  0  0  0  0  0  0  0  0  0  0  0
   60.8690   34.8510   46.3700 O   0  0  0  0  0  0  0  0  0  0  0  0
   60.7760   32.9180   48.2250 N   0  0  0  0  0  0  0  0  0  0  0  0
   61.7880   32.0890   47.5450 C   0  0  0  0  0  0  0  0  0  0  0  0
   63.0250   32.9110   47.1130 C   0  0  0  0  0  0  0  0  0  0  0  0
   63.1500   34.1500   47.7910 O   0  0  0  0  0  0  0  0  0  0  0  0
   62.8510   33.9910   49.1590 C   0  0  0  0  0  0  0  0  0  0  0  0
   61.3520   33.6900   49.3490 C   0  0  0  0  0  0  0  0  0  0  0  0
   58.5460   31.7090   46.3150 C   0  0  0  0  0  0  0  0  0  0  0  0
   56.2960   27.3990   45.4070 C   0  0  0  0  0  0  0  0  0  0  0  0
   57.2130   26.5310   44.8540 C   0  0  0  0  0  0  0  0  0  0  0  0
   56.7750   25.2810   45.2560 C   0  0  0  0  0  0  0  0  0  0  0  0
   57.3970   23.9710   44.9420 C   0  0  0  0  0  0  0  0  0  0  0  0
   56.7070   23.0420   44.1410 C   0  0  0  0  0  0  0  0  0  0  0  0
   57.2800   21.8040   43.8370 C   0  0  0  0  0  0  0  0  0  0  0  0
   58.5450   21.4770   44.3260 C   0  0  0  0  0  0  0  0  0  0  0  0
   59.2450   22.3870   45.1230 C   0  0  0  0  0  0  0  0  0  0  0  0
   60.5070   22.0480   45.6050 O   0  0  0  0  0  0  0  0  0  0  0  0
   58.6730   23.6310   45.4300 C   0  0  0  0  0  0  0  0  0  0  0  0
   55.6600   25.4210   46.0040 N   0  0  0  0  0  0  0  0  0  0  0  0
   55.3690   26.7080   46.0960 N   0  0  0  0  0  0  0  0  0  0  0  0
  1  2  2  0
  2  3  1  0
  3  4  1  0
  4  5  2  0
  5  6  1  0
  6  7  2  0
  7  8  1  0
  8  9  1  0
  9 10  2  0
  9 11  2  0
  9 12  1  0
 12 13  1  0
 13 14  1  0
 14 15  1  0
 15 16  1  0
 16 17  1  0
  8 18  2  0
  2 19  1  0
 19 20  2  0
 20 21  1  0
 21 22  1  0
 22 23  2  0
 23 24  1  0
 24 25  2  0
 25 26  1  0
 26 27  1  0
 26 28  2  0
 21 29  2  0
 29 30  1  0
 18  4  1  0
 30 19  1  0
 17 12  1  0
 28 22  1  0
M  CHG  2   3  -1  30  -1
M  END
>  <UniqueID>  (634) 
24

>  <SMILES>  (634) 
O=C([N-]c1cccc(S(=O)(=O)N2CCOCC2)c1)c1cc(-c2cccc(O)c2)n[n-]1

>  <Energy>  (634) 
95.28170232988388

>  <Genealogy>  (634) 
O=C([N-]c1cccc(S(=O)(=O)N2CCOCC2)c1)c1cc(-c2cccc(O)c2)n[n-]1 (protonated)
O=C([N-]c1cccc(S(=O)(=O)N2CCOCC2)c1)c1cc(-c2cccc(O)c2)n[n-]1 (3D coordinates assigned)
O=C([N-]c1cccc(S(=O)(=O)N2CCOCC2)c1)c1cc(-c2cccc(O)c2)n[n-]1 (nonaromatic ring conformer: 95.28170232988388 kcal/mol)

>  <smiles>  (634) 
O=C(Nc1cccc(S(=O)(=O)N2CCOCC2)c1)c1cc(-c2cccc(O)c2)n[nH]1

>  <score_type>  (634) 
oracle

>  <origin>  (634) 
adg

>  <m_score__min__energy>  (634) 
-14.609999999999999

>  <m_primary>  (634) 
energy

$$$$
54:0
     RDKit          3D

 27 29  0  0  0  0  0  0  0  0999 V2000
   55.5430   22.2390   42.4030 N   0  0  0  0  0  0  0  0  0  0  0  0
   56.3710   22.0570   43.9070 S   0  0  0  0  0  0  0  0  0  0  0  0
   57.7290   21.4580   43.6650 O   0  0  0  0  0  0  0  0  0  0  0  0
   55.5910   21.1360   44.8030 O   0  0  0  0  0  0  0  0  0  0  0  0
   56.5390   23.6310   44.6760 C   0  0  0  0  0  0  0  0  0  0  0  0
   57.8100   24.1580   44.9380 C   0  0  0  0  0  0  0  0  0  0  0  0
   57.9420   25.4110   45.5420 C   0  0  0  0  0  0  0  0  0  0  0  0
   56.8010   26.1640   45.8750 C   0  0  0  0  0  0  0  0  0  0  0  0
   56.8990   27.4420   46.5230 N   0  0  0  0  0  0  0  0  0  0  0  0
   58.0790   28.2440   46.6590 C   0  0  0  0  0  0  0  0  0  0  0  0
   58.7250   28.2650   47.7400 O   0  0  0  0  0  0  0  0  0  0  0  0
   58.5560   29.0490   45.4930 C   0  0  0  0  0  0  0  0  0  0  0  0
   59.2330   30.2920   45.9780 C   0  0  0  0  0  0  0  0  0  0  0  0
   60.7640   30.3570   46.6720 S   0  0  0  0  0  0  0  0  0  0  0  0
   60.6560   32.0100   47.0050 C   0  0  0  0  0  0  0  0  0  0  0  0
   61.6700   32.8020   47.6550 N   0  0  0  0  0  0  0  0  0  0  0  0
   61.3330   34.0490   48.3570 C   0  0  0  0  0  0  0  0  0  0  0  0
   62.1310   34.1650   49.6630 C   0  0  0  0  0  0  0  0  0  0  0  0
   63.6320   33.8310   49.5100 C   0  0  0  0  0  0  0  0  0  0  0  0
   64.0310   33.4590   48.0770 C   0  0  0  0  0  0  0  0  0  0  0  0
   63.0790   32.4050   47.5020 C   0  0  0  0  0  0  0  0  0  0  0  0
   59.4620   32.5150   46.6170 N   0  0  0  0  0  0  0  0  0  0  0  0
   58.6720   31.5640   46.0550 C   0  0  0  0  0  0  0  0  0  0  0  0
   57.3920   31.8550   45.6000 O   0  0  0  0  0  0  0  0  0  0  0  0
   55.5300   25.6270   45.6250 C   0  0  0  0  0  0  0  0  0  0  0  0
   54.3880   26.3410   45.9720 O   0  0  0  0  0  0  0  0  0  0  0  0
   55.4000   24.3710   45.0200 C   0  0  0  0  0  0  0  0  0  0  0  0
  1  2  1  0
  2  3  2  0
  2  4  2  0
  2  5  1  0
  5  6  2  0
  6  7  1  0
  7  8  2  0
  8  9  1  0
  9 10  1  0
 10 11  2  0
 10 12  1  0
 12 13  1  0
 13 14  1  0
 14 15  1  0
 15 16  1  0
 16 17  1  0
 17 18  1  0
 18 19  1  0
 19 20  1  0
 20 21  1  0
 15 22  2  0
 22 23  1  0
 23 24  1  0
  8 25  1  0
 25 26  1  0
 25 27  2  0
 27  5  1  0
 23 13  2  0
 21 16  1  0
M  CHG  4   1  -1   9  -1  24  -1  26  -1
M  END
>  <UniqueID>  (635) 
49

>  <SMILES>  (635) 
[NH-]S(=O)(=O)c1ccc([N-]C(=O)Cc2sc(N3CCCCC3)nc2[O-])c([O-])c1

>  <Energy>  (635) 
76.70518266374816

>  <Genealogy>  (635) 
[NH-]S(=O)(=O)c1ccc([N-]C(=O)Cc2sc(N3CCCCC3)nc2[O-])c([O-])c1 (protonated)
[NH-]S(=O)(=O)c1ccc([N-]C(=O)Cc2sc(N3CCCCC3)nc2[O-])c([O-])c1 (3D coordinates assigned)
[NH-]S(=O)(=O)c1ccc([N-]C(=O)Cc2sc(N3CCCCC3)nc2[O-])c([O-])c1 (nonaromatic ring conformer: 76.70518266374816 kcal/mol)

>  <smiles>  (635) 
NS(=O)(=O)c1ccc(NC(=O)Cc2sc(N3CCCCC3)nc2O)c(O)c1

>  <score_type>  (635) 
oracle

>  <origin>  (635) 
adg

>  <m_score__min__energy>  (635) 
-18.27

>  <m_primary>  (635) 
energy

$$$$
85:0
     RDKit          3D

 26 28  0  0  0  0  0  0  0  0999 V2000
   58.2450   34.3190   44.5580 C   0  0  0  0  0  0  0  0  0  0  0  0
   57.8930   32.8880   44.8280 C   0  0  0  0  0  0  0  0  0  0  0  0
   57.0970   32.1040   44.0180 C   0  0  0  0  0  0  0  0  0  0  0  0
   57.0110   30.8970   44.6880 C   0  0  0  0  0  0  0  0  0  0  0  0
   56.2340   29.7140   44.2750 C   0  0  0  0  0  0  0  0  0  0  0  0
   55.9780   29.5480   43.0540 O   0  0  0  0  0  0  0  0  0  0  0  0
   55.8120   28.7160   45.2130 N   0  0  0  0  0  0  0  0  0  0  0  0
   56.5820   27.5860   45.6470 C   0  0  0  0  0  0  0  0  0  0  0  0
   57.9840   27.6520   45.7530 C   0  0  0  0  0  0  0  0  0  0  0  0
   58.7100   26.5420   46.1980 C   0  0  0  0  0  0  0  0  0  0  0  0
   58.0430   25.3690   46.5560 C   0  0  0  0  0  0  0  0  0  0  0  0
   56.6490   25.3030   46.4770 C   0  0  0  0  0  0  0  0  0  0  0  0
   55.9190   26.4100   46.0300 C   0  0  0  0  0  0  0  0  0  0  0  0
   54.5320   26.3350   45.9620 O   0  0  0  0  0  0  0  0  0  0  0  0
   57.7100   30.9610   45.8390 N   0  0  0  0  0  0  0  0  0  0  0  0
   58.2600   32.1640   45.9110 N   0  0  0  0  0  0  0  0  0  0  0  0
   59.0780   32.5820   47.0180 C   0  0  0  0  0  0  0  0  0  0  0  0
   58.5030   32.7400   48.2880 C   0  0  0  0  0  0  0  0  0  0  0  0
   59.2910   33.1260   49.3770 C   0  0  0  0  0  0  0  0  0  0  0  0
   60.6590   33.3470   49.2080 C   0  0  0  0  0  0  0  0  0  0  0  0
   61.2500   33.1790   47.9480 C   0  0  0  0  0  0  0  0  0  0  0  0
   62.9800   33.4220   47.7370 S   0  0  0  0  0  0  0  0  0  0  0  0
   63.7680   31.8890   47.6190 N   0  0  0  0  0  0  0  0  0  0  0  0
   63.5370   34.1800   48.9100 O   0  0  0  0  0  0  0  0  0  0  0  0
   63.2320   34.2170   46.4870 O   0  0  0  0  0  0  0  0  0  0  0  0
   60.4600   32.7830   46.8590 C   0  0  0  0  0  0  0  0  0  0  0  0
  1  2  1  0
  2  3  2  0
  3  4  1  0
  4  5  1  0
  5  6  2  0
  5  7  1  0
  7  8  1  0
  8  9  2  0
  9 10  1  0
 10 11  2  0
 11 12  1  0
 12 13  2  0
 13 14  1  0
  4 15  2  0
 15 16  1  0
 16 17  1  0
 17 18  2  0
 18 19  1  0
 19 20  2  0
 20 21  1  0
 21 22  1  0
 22 23  1  0
 22 24  2  0
 22 25  2  0
 21 26  2  0
 16  2  1  0
 26 17  1  0
 13  8  1  0
M  CHG  3   7  -1  14  -1  23  -1
M  END
>  <UniqueID>  (636) 
77

>  <SMILES>  (636) 
Cc1cc(C(=O)[N-]c2ccccc2[O-])nn1-c1cccc(S([NH-])(=O)=O)c1

>  <Energy>  (636) 
80.61729859574831

>  <Genealogy>  (636) 
Cc1cc(C(=O)[N-]c2ccccc2[O-])nn1-c1cccc(S([NH-])(=O)=O)c1 (protonated)
Cc1cc(C(=O)[N-]c2ccccc2[O-])nn1-c1cccc(S([NH-])(=O)=O)c1 (3D coordinates assigned)
Cc1cc(C(=O)[N-]c2ccccc2[O-])nn1-c1cccc(S([NH-])(=O)=O)c1 (optimized conformer: 80.61729859574831 kcal/mol)

>  <smiles>  (636) 
Cc1cc(C(=O)Nc2ccccc2O)nn1-c1cccc(S(N)(=O)=O)c1

>  <score_type>  (636) 
oracle

>  <origin>  (636) 
adg

>  <m_score__min__energy>  (636) 
-16.07

>  <m_primary>  (636) 
energy

$$$$
37:0
     RDKit          3D

 22 23  0  0  0  0  0  0  0  0999 V2000
   58.1380   31.6260   47.4390 O   0  0  0  0  0  0  0  0  0  0  0  0
   59.1460   31.4900   46.6910 C   0  0  0  0  0  0  0  0  0  0  0  0
   59.4110   32.5590   45.6650 C   0  0  0  0  0  0  0  0  0  0  0  0
   59.1440   34.2080   46.3870 S   0  0  0  0  0  0  0  0  0  0  0  0
   60.0080   30.3390   46.8550 N   0  0  0  0  0  0  0  0  0  0  0  0
   59.9880   29.2260   45.8890 C   0  0  0  0  0  0  0  0  0  0  0  0
   58.6680   28.4910   45.9050 C   0  0  0  0  0  0  0  0  0  0  0  0
   58.5920   27.2000   46.4550 C   0  0  0  0  0  0  0  0  0  0  0  0
   57.3730   26.5160   46.4870 C   0  0  0  0  0  0  0  0  0  0  0  0
   56.2210   27.1070   45.9630 C   0  0  0  0  0  0  0  0  0  0  0  0
   55.0110   26.4250   46.0060 O   0  0  0  0  0  0  0  0  0  0  0  0
   56.2890   28.3850   45.3960 C   0  0  0  0  0  0  0  0  0  0  0  0
   55.1450   28.9800   44.8750 O   0  0  0  0  0  0  0  0  0  0  0  0
   57.5080   29.0690   45.3560 C   0  0  0  0  0  0  0  0  0  0  0  0
   61.0360   30.3380   47.9130 C   0  0  0  0  0  0  0  0  0  0  0  0
   61.7960   31.6420   47.9240 C   0  0  0  0  0  0  0  0  0  0  0  0
   63.0430   31.7320   47.2810 C   0  0  0  0  0  0  0  0  0  0  0  0
   63.7870   32.9140   47.3410 C   0  0  0  0  0  0  0  0  0  0  0  0
   63.2900   34.0180   48.0350 C   0  0  0  0  0  0  0  0  0  0  0  0
   62.0460   33.9460   48.6650 C   0  0  0  0  0  0  0  0  0  0  0  0
   61.2960   32.7650   48.6120 C   0  0  0  0  0  0  0  0  0  0  0  0
   60.0580   32.7190   49.2440 O   0  0  0  0  0  0  0  0  0  0  0  0
  1  2  2  0
  2  3  1  0
  3  4  1  0
  2  5  1  0
  5  6  1  0
  6  7  1  0
  7  8  2  0
  8  9  1  0
  9 10  2  0
 10 11  1  0
 10 12  1  0
 12 13  1  0
 12 14  2  0
  5 15  1  0
 15 16  1  0
 16 17  2  0
 17 18  1  0
 18 19  2  0
 19 20  1  0
 20 21  2  0
 21 22  1  0
 14  7  1  0
 21 16  1  0
M  CHG  3  11  -1  13  -1  22  -1
M  END
>  <UniqueID>  (637) 
35

>  <SMILES>  (637) 
O=C(CS)N(Cc1ccc([O-])c([O-])c1)Cc1ccccc1[O-]

>  <Energy>  (637) 
34.51579444155046

>  <Genealogy>  (637) 
O=C(CS)N(Cc1ccc([O-])c([O-])c1)Cc1ccccc1[O-] (protonated)
O=C(CS)N(Cc1ccc([O-])c([O-])c1)Cc1ccccc1[O-] (3D coordinates assigned)
O=C(CS)N(Cc1ccc([O-])c([O-])c1)Cc1ccccc1[O-] (optimized conformer: 34.51579444155046 kcal/mol)

>  <smiles>  (637) 
O=C(CS)N(Cc1ccc(O)c(O)c1)Cc1ccccc1O

>  <score_type>  (637) 
oracle

>  <origin>  (637) 
adg

>  <m_score__min__energy>  (637) 
-14.630000000000001

>  <m_primary>  (637) 
energy

$$$$
80:0
     RDKit          3D

 27 29  0  0  0  0  0  0  0  0999 V2000
   54.4260   24.3980   46.2870 O   0  0  0  0  0  0  0  0  0  0  0  0
   55.5070   25.0420   46.2140 C   0  0  0  0  0  0  0  0  0  0  0  0
   56.8110   24.3200   46.3430 C   0  0  0  0  0  0  0  0  0  0  0  0
   56.9500   23.3100   45.2340 C   0  0  0  0  0  0  0  0  0  0  0  0
   56.4350   23.6000   43.9580 C   0  0  0  0  0  0  0  0  0  0  0  0
   56.5270   22.6580   42.9290 C   0  0  0  0  0  0  0  0  0  0  0  0
   57.1240   21.4170   43.1660 C   0  0  0  0  0  0  0  0  0  0  0  0
   57.6260   21.1150   44.4340 C   0  0  0  0  0  0  0  0  0  0  0  0
   57.5370   22.0510   45.4690 C   0  0  0  0  0  0  0  0  0  0  0  0
   58.0300   21.7230   46.7280 O   0  0  0  0  0  0  0  0  0  0  0  0
   55.5050   26.4620   46.0210 N   0  0  0  0  0  0  0  0  0  0  0  0
   56.6450   27.2830   45.7260 C   0  0  0  0  0  0  0  0  0  0  0  0
   57.9530   26.8690   46.0320 C   0  0  0  0  0  0  0  0  0  0  0  0
   59.0380   27.7030   45.7570 C   0  0  0  0  0  0  0  0  0  0  0  0
   58.8310   28.9600   45.1880 C   0  0  0  0  0  0  0  0  0  0  0  0
   57.5320   29.4000   44.9000 C   0  0  0  0  0  0  0  0  0  0  0  0
   57.2690   30.9940   44.1920 S   0  0  0  0  0  0  0  0  0  0  0  0
   57.0310   30.8400   42.7160 O   0  0  0  0  0  0  0  0  0  0  0  0
   56.0730   31.6490   44.8270 O   0  0  0  0  0  0  0  0  0  0  0  0
   58.6770   31.9670   44.4760 N   0  0  0  0  0  0  0  0  0  0  0  0
   58.7920   32.8230   45.4440 C   0  0  0  0  0  0  0  0  0  0  0  0
   59.8390   33.8700   45.5540 C   0  0  0  0  0  0  0  0  0  0  0  0
   59.4840   34.5980   46.8590 C   0  0  0  0  0  0  0  0  0  0  0  0
   58.2560   33.8900   47.4630 C   0  0  0  0  0  0  0  0  0  0  0  0
   57.8950   32.8420   46.5320 N   0  0  0  0  0  0  0  0  0  0  0  0
   56.4380   28.5590   45.1770 C   0  0  0  0  0  0  0  0  0  0  0  0
   55.1420   28.9850   44.9020 O   0  0  0  0  0  0  0  0  0  0  0  0
  1  2  2  0
  2  3  1  0
  3  4  1  0
  4  5  2  0
  5  6  1  0
  6  7  2  0
  7  8  1  0
  8  9  2  0
  9 10  1  0
  2 11  1  0
 11 12  1  0
 12 13  2  0
 13 14  1  0
 14 15  2  0
 15 16  1  0
 16 17  1  0
 17 18  2  0
 17 19  2  0
 17 20  1  0
 20 21  2  3
 21 22  1  0
 22 23  1  0
 23 24  1  0
 24 25  1  0
 16 26  2  0
 26 27  1  0
  9  4  1  0
 26 12  1  0
 25 21  1  0
M  CHG  3  10  -1  11  -1  27  -1
M  END
>  <UniqueID>  (638) 
73

>  <SMILES>  (638) 
O=C(Cc1ccccc1[O-])[N-]c1cccc(S(=O)(=O)N=C2CCCN2)c1[O-]

>  <Energy>  (638) 
56.77756102379125

>  <Genealogy>  (638) 
O=C(Cc1ccccc1[O-])[N-]c1cccc(S(=O)(=O)N=C2CCCN2)c1[O-] (protonated)
O=C(Cc1ccccc1[O-])[N-]c1cccc(S(=O)(=O)N=C2CCCN2)c1[O-] (3D coordinates assigned)
O=C(Cc1ccccc1[O-])[N-]c1cccc(S(=O)(=O)N=C2CCCN2)c1[O-] (nonaromatic ring conformer: 56.77756102379125 kcal/mol)

>  <smiles>  (638) 
O=C(Cc1ccccc1O)Nc1cccc(S(=O)(=O)N=C2CCCN2)c1O

>  <score_type>  (638) 
oracle

>  <origin>  (638) 
adg

>  <m_score__min__energy>  (638) 
-16.93

>  <m_primary>  (638) 
energy

$$$$
81:0
     RDKit          3D

 27 29  0  0  0  0  0  0  0  0999 V2000
   60.2770   29.7990   46.2510 C   0  0  0  0  0  0  0  0  0  0  0  0
   59.4990   30.8140   45.8420 C   0  0  0  0  0  0  0  0  0  0  0  0
   58.4750   30.7750   44.8790 C   0  0  0  0  0  0  0  0  0  0  0  0
   57.8950   29.7360   44.2470 C   0  0  0  0  0  0  0  0  0  0  0  0
   57.4750   28.4710   44.8810 C   0  0  0  0  0  0  0  0  0  0  0  0
   56.1350   28.2440   45.2400 C   0  0  0  0  0  0  0  0  0  0  0  0
   55.1700   29.2240   45.0370 O   0  0  0  0  0  0  0  0  0  0  0  0
   55.7720   27.0550   45.7850 N   0  0  0  0  0  0  0  0  0  0  0  0
   56.6820   26.0660   45.9780 C   0  0  0  0  0  0  0  0  0  0  0  0
   56.2160   24.6470   46.6370 S   0  0  0  0  0  0  0  0  0  0  0  0
   57.9760   26.2500   45.6130 N   0  0  0  0  0  0  0  0  0  0  0  0
   58.3900   27.4220   45.0640 C   0  0  0  0  0  0  0  0  0  0  0  0
   59.5980   27.5580   44.7310 O   0  0  0  0  0  0  0  0  0  0  0  0
   58.0960   32.0900   44.6620 C   0  0  0  0  0  0  0  0  0  0  0  0
   58.8420   32.8690   45.5220 C   0  0  0  0  0  0  0  0  0  0  0  0
   58.7580   34.3610   45.6220 C   0  0  0  0  0  0  0  0  0  0  0  0
   59.6860   32.0980   46.2390 N   0  0  0  0  0  0  0  0  0  0  0  0
   60.6400   32.5770   47.2030 C   0  0  0  0  0  0  0  0  0  0  0  0
   61.9690   32.7770   46.8120 C   0  0  0  0  0  0  0  0  0  0  0  0
   62.9180   33.2260   47.7310 C   0  0  0  0  0  0  0  0  0  0  0  0
   62.5530   33.4850   49.0620 C   0  0  0  0  0  0  0  0  0  0  0  0
   63.5640   33.9530   50.0360 C   0  0  0  0  0  0  0  0  0  0  0  0
   64.7160   33.4430   50.0590 O   0  0  0  0  0  0  0  0  0  0  0  0
   63.2560   34.9650   50.9390 O   0  0  0  0  0  0  0  0  0  0  0  0
   61.2150   33.2920   49.4530 C   0  0  0  0  0  0  0  0  0  0  0  0
   60.2510   32.8560   48.5300 C   0  0  0  0  0  0  0  0  0  0  0  0
   58.8290   32.6540   48.9760 C   0  0  0  0  0  0  0  0  0  0  0  0
  1  2  2  0
  2  3  1  0
  3  4  2  0
  4  5  1  0
  5  6  2  0
  6  7  1  0
  6  8  1  0
  8  9  1  0
  9 10  2  0
  9 11  1  0
 11 12  1  0
 12 13  2  0
  3 14  1  0
 14 15  2  0
 15 16  1  0
 15 17  1  0
 17 18  1  0
 18 19  2  0
 19 20  1  0
 20 21  2  0
 21 22  1  0
 22 23  2  0
 22 24  1  0
 21 25  1  0
 25 26  2  0
 26 27  1  0
 17  2  1  0
 26 18  1  0
 12  5  1  0
M  CHG  4   7  -1   8  -1  11  -1  24  -1
M  END
>  <UniqueID>  (639) 
74

>  <SMILES>  (639) 
C=c1/c(=C\c2c([O-])[n-]c(=S)[n-]c2=O)cc(C)n1-c1ccc(C(=O)[O-])cc1C

>  <Energy>  (639) 
91.3796778959809

>  <Genealogy>  (639) 
C=c1c(=Cc2c([O-])[n-]c(=S)[n-]c2=O)cc(C)n1-c1ccc(C(=O)[O-])cc1C (protonated)
C=c1/c(=C\c2c([O-])[n-]c(=S)[n-]c2=O)cc(C)n1-c1ccc(C(=O)[O-])cc1C (cis-trans isomerization)
C=c1/c(=C\c2c([O-])[n-]c(=S)[n-]c2=O)cc(C)n1-c1ccc(C(=O)[O-])cc1C (3D coordinates assigned)
C=c1/c(=C\c2c([O-])[n-]c(=S)[n-]c2=O)cc(C)n1-c1ccc(C(=O)[O-])cc1C (optimized conformer: 91.3796778959809 kcal/mol)

>  <smiles>  (639) 
C=c1c(=Cc2c(O)[nH]c(=S)[nH]c2=O)cc(C)n1-c1ccc(C(=O)O)cc1C

>  <score_type>  (639) 
oracle

>  <origin>  (639) 
adg

>  <m_score__min__energy>  (639) 
-15.470000000000001

>  <m_primary>  (639) 
energy

$$$$
8:0
     RDKit          3D

 26 28  0  0  0  0  0  0  0  0999 V2000
   55.1530   29.5060   44.9260 N   0  0  0  0  0  0  0  0  0  0  0  0
   56.7050   29.7390   44.2000 S   0  0  0  0  0  0  0  0  0  0  0  0
   57.5190   28.4840   44.3340 O   0  0  0  0  0  0  0  0  0  0  0  0
   56.5150   30.0580   42.7440 O   0  0  0  0  0  0  0  0  0  0  0  0
   57.5360   31.0630   45.0080 C   0  0  0  0  0  0  0  0  0  0  0  0
   56.8910   32.2970   45.1620 C   0  0  0  0  0  0  0  0  0  0  0  0
   57.5370   33.3520   45.8110 C   0  0  0  0  0  0  0  0  0  0  0  0
   58.8280   33.1790   46.3150 C   0  0  0  0  0  0  0  0  0  0  0  0
   59.4820   31.9450   46.1770 C   0  0  0  0  0  0  0  0  0  0  0  0
   60.8680   31.7610   46.7370 C   0  0  0  0  0  0  0  0  0  0  0  0
   60.8050   31.3320   48.1340 N   0  0  0  0  0  0  0  0  0  0  0  0
   60.6050   30.1090   48.5290 C   0  0  0  0  0  0  0  0  0  0  0  0
   59.8790   29.2330   47.7790 N   0  0  0  0  0  0  0  0  0  0  0  0
   59.6730   27.9460   48.1740 C   0  0  0  0  0  0  0  0  0  0  0  0
   58.8860   27.0280   47.3130 C   0  0  0  0  0  0  0  0  0  0  0  0
   59.4760   25.8940   46.7240 C   0  0  0  0  0  0  0  0  0  0  0  0
   58.7240   25.0490   45.9040 C   0  0  0  0  0  0  0  0  0  0  0  0
   57.3770   25.3240   45.6550 C   0  0  0  0  0  0  0  0  0  0  0  0
   56.6440   24.4730   44.8370 O   0  0  0  0  0  0  0  0  0  0  0  0
   56.7760   26.4560   46.2280 C   0  0  0  0  0  0  0  0  0  0  0  0
   55.4350   26.7540   45.9940 O   0  0  0  0  0  0  0  0  0  0  0  0
   57.5300   27.3010   47.0510 C   0  0  0  0  0  0  0  0  0  0  0  0
   60.2170   27.5250   49.4000 C   0  0  0  0  0  0  0  0  0  0  0  0
   60.9380   28.3990   50.1500 N   0  0  0  0  0  0  0  0  0  0  0  0
   61.1480   29.6760   49.7410 C   0  0  0  0  0  0  0  0  0  0  0  0
   58.8310   30.8890   45.5170 C   0  0  0  0  0  0  0  0  0  0  0  0
  1  2  1  0
  2  3  2  0
  2  4  2  0
  2  5  1  0
  5  6  2  0
  6  7  1  0
  7  8  2  0
  8  9  1  0
  9 10  1  0
 10 11  1  0
 11 12  2  0
 12 13  1  0
 13 14  1  0
 14 15  1  0
 15 16  2  0
 16 17  1  0
 17 18  2  0
 18 19  1  0
 18 20  1  0
 20 21  1  0
 20 22  2  0
 14 23  2  0
 23 24  1  0
 24 25  2  0
  9 26  2  0
 26  5  1  0
 25 12  1  0
 22 15  1  0
M  CHG  3   1  -1  13  -1  19  -1
M  END
>  <UniqueID>  (640) 
9

>  <SMILES>  (640) 
[NH-]S(=O)(=O)c1cccc(C/N=c2/cncc(-c3ccc([O-])c(O)c3)[n-]2)c1

>  <Energy>  (640) 
44.53889398862526

>  <Genealogy>  (640) 
[NH-]S(=O)(=O)c1cccc(CN=c2cncc(-c3ccc([O-])c(O)c3)[n-]2)c1 (protonated)
[NH-]S(=O)(=O)c1cccc(C/N=c2/cncc(-c3ccc([O-])c(O)c3)[n-]2)c1 (cis-trans isomerization)
[NH-]S(=O)(=O)c1cccc(C/N=c2/cncc(-c3ccc([O-])c(O)c3)[n-]2)c1 (3D coordinates assigned)
[NH-]S(=O)(=O)c1cccc(C/N=c2/cncc(-c3ccc([O-])c(O)c3)[n-]2)c1 (optimized conformer: 44.53889398862526 kcal/mol)

>  <smiles>  (640) 
NS(=O)(=O)c1cccc(CN=c2cncc(-c3ccc(O)c(O)c3)[nH]2)c1

>  <score_type>  (640) 
oracle

>  <origin>  (640) 
adg

>  <m_score__min__energy>  (640) 
-14.31

>  <m_primary>  (640) 
energy

$$$$
13:0
     RDKit          3D

 27 29  0  0  0  0  0  0  0  0999 V2000
   58.3760   24.9130   45.7580 O   0  0  0  0  0  0  0  0  0  0  0  0
   57.4790   25.4710   45.0700 C   0  0  0  0  0  0  0  0  0  0  0  0
   56.6450   24.6490   44.1360 C   0  0  0  0  0  0  0  0  0  0  0  0
   55.4460   24.1690   44.8220 N   0  0  0  0  0  0  0  0  0  0  0  0
   54.5320   24.9010   45.4780 C   0  0  0  0  0  0  0  0  0  0  0  0
   54.6080   26.2740   45.6720 O   0  0  0  0  0  0  0  0  0  0  0  0
   53.5140   24.0810   45.9080 C   0  0  0  0  0  0  0  0  0  0  0  0
   53.7750   22.8160   45.5150 N   0  0  0  0  0  0  0  0  0  0  0  0
   54.9510   22.9150   44.8570 C   0  0  0  0  0  0  0  0  0  0  0  0
   55.5230   21.9260   44.3260 O   0  0  0  0  0  0  0  0  0  0  0  0
   57.2050   26.8720   45.2220 N   0  0  0  0  0  0  0  0  0  0  0  0
   58.0080   27.7620   46.0170 C   0  0  0  0  0  0  0  0  0  0  0  0
   59.1070   27.2710   46.7430 C   0  0  0  0  0  0  0  0  0  0  0  0
   59.9420   28.1460   47.4430 C   0  0  0  0  0  0  0  0  0  0  0  0
   59.6960   29.5190   47.4180 C   0  0  0  0  0  0  0  0  0  0  0  0
   58.6150   30.0230   46.6910 C   0  0  0  0  0  0  0  0  0  0  0  0
   57.7690   29.1540   45.9860 C   0  0  0  0  0  0  0  0  0  0  0  0
   56.6300   29.7120   45.2340 C   0  0  0  0  0  0  0  0  0  0  0  0
   55.6860   28.9510   44.8950 O   0  0  0  0  0  0  0  0  0  0  0  0
   56.5870   31.0900   44.8480 N   0  0  0  0  0  0  0  0  0  0  0  0
   57.6600   31.7930   44.1500 C   0  0  0  0  0  0  0  0  0  0  0  0
   58.2320   32.8800   45.0220 C   0  0  0  0  0  0  0  0  0  0  0  0
   57.8750   32.9550   46.3790 C   0  0  0  0  0  0  0  0  0  0  0  0
   58.3560   33.9980   47.1770 C   0  0  0  0  0  0  0  0  0  0  0  0
   59.1950   34.9710   46.6260 C   0  0  0  0  0  0  0  0  0  0  0  0
   59.5620   34.8970   45.2810 C   0  0  0  0  0  0  0  0  0  0  0  0
   59.0880   33.8530   44.4810 C   0  0  0  0  0  0  0  0  0  0  0  0
  1  2  2  0
  2  3  1  0
  3  4  1  0
  4  5  1  0
  5  6  1  0
  5  7  2  0
  7  8  1  0
  8  9  1  0
  9 10  2  0
  2 11  1  0
 11 12  1  0
 12 13  2  0
 13 14  1  0
 14 15  2  0
 15 16  1  0
 16 17  2  0
 17 18  1  0
 18 19  2  0
 18 20  1  0
 20 21  1  0
 21 22  1  0
 22 23  2  0
 23 24  1  0
 24 25  2  0
 25 26  1  0
 26 27  2  0
  9  4  1  0
 17 12  1  0
 27 22  1  0
M  CHG  3   6  -1   8  -1  20  -1
M  END
>  <UniqueID>  (641) 
13

>  <SMILES>  (641) 
O=C(Cn1c([O-])c[n-]c1=O)Nc1ccccc1C(=O)[N-]Cc1ccccc1

>  <Energy>  (641) 
79.27856645106934

>  <Genealogy>  (641) 
O=C(Cn1c([O-])c[n-]c1=O)Nc1ccccc1C(=O)[N-]Cc1ccccc1 (protonated)
O=C(Cn1c([O-])c[n-]c1=O)Nc1ccccc1C(=O)[N-]Cc1ccccc1 (3D coordinates assigned)
O=C(Cn1c([O-])c[n-]c1=O)Nc1ccccc1C(=O)[N-]Cc1ccccc1 (optimized conformer: 79.27856645106934 kcal/mol)

>  <smiles>  (641) 
O=C(Cn1c(O)c[nH]c1=O)Nc1ccccc1C(=O)NCc1ccccc1

>  <score_type>  (641) 
oracle

>  <origin>  (641) 
adg

>  <m_score__min__energy>  (641) 
-15.699999999999999

>  <m_primary>  (641) 
energy

$$$$
38:0
     RDKit          3D

 23 24  0  0  0  0  0  0  0  0999 V2000
   58.2430   26.1570   47.8620 O   0  0  0  0  0  0  0  0  0  0  0  0
   58.5520   26.5280   46.7390 C   0  0  0  0  0  0  0  0  0  0  0  0
   58.8450   27.9830   46.4920 C   0  0  0  0  0  0  0  0  0  0  0  0
   57.5510   28.8030   46.4870 C   0  0  0  0  0  0  0  0  0  0  0  0
   57.4620   29.6460   45.2360 C   0  0  0  0  0  0  0  0  0  0  0  0
   56.2650   29.6990   44.4930 C   0  0  0  0  0  0  0  0  0  0  0  0
   55.1530   28.9600   44.8850 O   0  0  0  0  0  0  0  0  0  0  0  0
   56.1790   30.5020   43.3510 C   0  0  0  0  0  0  0  0  0  0  0  0
   57.2750   31.2650   42.9450 C   0  0  0  0  0  0  0  0  0  0  0  0
   58.4600   31.2350   43.6820 C   0  0  0  0  0  0  0  0  0  0  0  0
   58.5600   30.4350   44.8290 C   0  0  0  0  0  0  0  0  0  0  0  0
   59.7440   30.4260   45.5680 O   0  0  0  0  0  0  0  0  0  0  0  0
   58.6160   25.5270   45.6150 C   0  0  0  0  0  0  0  0  0  0  0  0
   57.4200   25.6330   44.7000 C   0  0  0  0  0  0  0  0  0  0  0  0
   57.4540   26.4440   43.7350 O   0  0  0  0  0  0  0  0  0  0  0  0
   56.2360   24.7500   44.8720 C   0  0  0  0  0  0  0  0  0  0  0  0
   56.2580   23.4280   44.3840 C   0  0  0  0  0  0  0  0  0  0  0  0
   55.1440   22.5960   44.5320 C   0  0  0  0  0  0  0  0  0  0  0  0
   53.9950   23.0690   45.1660 C   0  0  0  0  0  0  0  0  0  0  0  0
   52.8890   22.2410   45.3110 O   0  0  0  0  0  0  0  0  0  0  0  0
   53.9570   24.3780   45.6540 C   0  0  0  0  0  0  0  0  0  0  0  0
   55.0670   25.2180   45.5130 C   0  0  0  0  0  0  0  0  0  0  0  0
   55.0000   26.5080   46.0260 O   0  0  0  0  0  0  0  0  0  0  0  0
  1  2  2  0
  2  3  1  0
  3  4  1  0
  4  5  1  0
  5  6  2  0
  6  7  1  0
  6  8  1  0
  8  9  2  0
  9 10  1  0
 10 11  2  0
 11 12  1  0
  2 13  1  0
 13 14  1  0
 14 15  2  0
 14 16  1  0
 16 17  2  0
 17 18  1  0
 18 19  2  0
 19 20  1  0
 19 21  1  0
 21 22  2  0
 22 23  1  0
 11  5  1  0
 22 16  1  0
M  CHG  3   7  -1  20  -1  23  -1
M  END
>  <UniqueID>  (642) 
38

>  <SMILES>  (642) 
O=C(CCc1c([O-])cccc1O)CC(=O)c1ccc([O-])cc1[O-]

>  <Energy>  (642) 
36.35616099271364

>  <Genealogy>  (642) 
O=C(CCc1c([O-])cccc1O)CC(=O)c1ccc([O-])cc1[O-] (protonated)
O=C(CCc1c([O-])cccc1O)CC(=O)c1ccc([O-])cc1[O-] (3D coordinates assigned)
O=C(CCc1c([O-])cccc1O)CC(=O)c1ccc([O-])cc1[O-] (optimized conformer: 36.35616099271364 kcal/mol)

>  <smiles>  (642) 
O=C(CCc1c(O)cccc1O)CC(=O)c1ccc(O)cc1O

>  <score_type>  (642) 
oracle

>  <origin>  (642) 
adg

>  <m_score__min__energy>  (642) 
-15.09

>  <m_primary>  (642) 
energy

$$$$
49:0
     RDKit          3D

 25 26  0  0  0  0  0  0  0  0999 V2000
   60.6160   33.8190   50.6930 C   0  0  0  0  0  0  0  0  0  0  0  0
   61.8190   33.4920   49.8480 C   0  0  0  0  0  0  0  0  0  0  0  0
   63.1070   33.7180   50.3730 C   0  0  0  0  0  0  0  0  0  0  0  0
   63.2710   34.1720   51.6420 F   0  0  0  0  0  0  0  0  0  0  0  0
   64.2410   33.4930   49.5890 C   0  0  0  0  0  0  0  0  0  0  0  0
   64.1090   33.0450   48.2760 C   0  0  0  0  0  0  0  0  0  0  0  0
   62.8430   32.7910   47.7500 C   0  0  0  0  0  0  0  0  0  0  0  0
   61.6910   32.9680   48.5320 C   0  0  0  0  0  0  0  0  0  0  0  0
   60.4190   32.6230   47.9530 N   0  0  0  0  0  0  0  0  0  0  0  0
   59.7630   33.3610   46.9060 C   0  0  0  0  0  0  0  0  0  0  0  0
   60.2860   34.6140   46.5530 C   0  0  0  0  0  0  0  0  0  0  0  0
   59.6440   35.4130   45.6050 C   0  0  0  0  0  0  0  0  0  0  0  0
   58.4770   34.9630   44.9900 C   0  0  0  0  0  0  0  0  0  0  0  0
   57.9570   33.7070   45.3060 C   0  0  0  0  0  0  0  0  0  0  0  0
   58.6010   32.8820   46.2430 C   0  0  0  0  0  0  0  0  0  0  0  0
   58.0710   31.5210   46.4610 C   0  0  0  0  0  0  0  0  0  0  0  0
   58.4320   30.8570   47.4690 O   0  0  0  0  0  0  0  0  0  0  0  0
   57.1660   30.9510   45.5080 N   0  0  0  0  0  0  0  0  0  0  0  0
   57.5830   30.3320   44.2540 C   0  0  0  0  0  0  0  0  0  0  0  0
   56.5470   29.3120   43.7810 C   0  0  0  0  0  0  0  0  0  0  0  0
   55.7240   28.8710   44.9050 N   0  0  0  0  0  0  0  0  0  0  0  0
   56.3910   27.4270   45.6030 S   0  0  0  0  0  0  0  0  0  0  0  0
   55.1180   26.3430   46.0390 N   0  0  0  0  0  0  0  0  0  0  0  0
   57.2760   26.7600   44.5880 O   0  0  0  0  0  0  0  0  0  0  0  0
   57.2090   27.7620   46.8220 O   0  0  0  0  0  0  0  0  0  0  0  0
  1  2  1  0
  2  3  2  0
  3  4  1  0
  3  5  1  0
  5  6  2  0
  6  7  1  0
  7  8  2  0
  8  9  1  0
  9 10  1  0
 10 11  2  0
 11 12  1  0
 12 13  2  0
 13 14  1  0
 14 15  2  0
 15 16  1  0
 16 17  2  0
 16 18  1  0
 18 19  1  0
 19 20  1  0
 20 21  1  0
 21 22  1  0
 22 23  1  0
 22 24  2  0
 22 25  2  0
  8  2  1  0
 15 10  1  0
M  CHG  3  18  -1  21  -1  23  -1
M  END
>  <UniqueID>  (643) 
47

>  <SMILES>  (643) 
Cc1c(F)cccc1Nc1ccccc1C(=O)[N-]CC[N-]S([NH-])(=O)=O

>  <Energy>  (643) 
47.49104546606885

>  <Genealogy>  (643) 
Cc1c(F)cccc1Nc1ccccc1C(=O)[N-]CC[N-]S([NH-])(=O)=O (protonated)
Cc1c(F)cccc1Nc1ccccc1C(=O)[N-]CC[N-]S([NH-])(=O)=O (3D coordinates assigned)
Cc1c(F)cccc1Nc1ccccc1C(=O)[N-]CC[N-]S([NH-])(=O)=O (optimized conformer: 47.49104546606885 kcal/mol)

>  <smiles>  (643) 
Cc1c(F)cccc1Nc1ccccc1C(=O)NCCNS(N)(=O)=O

>  <score_type>  (643) 
oracle

>  <origin>  (643) 
adg

>  <m_score__min__energy>  (643) 
-14.08

>  <m_primary>  (643) 
energy

$$$$
75:0
     RDKit          3D

 23 25  0  0  0  0  0  0  0  0999 V2000
   57.5600   32.1170   43.7570 C   0  0  0  0  0  0  0  0  0  0  0  0
   56.6330   30.7930   43.2880 S   0  0  0  0  0  0  0  0  0  0  0  0
   56.8310   30.0070   44.7530 C   0  0  0  0  0  0  0  0  0  0  0  0
   56.2820   28.8630   45.0370 N   0  0  0  0  0  0  0  0  0  0  0  0
   56.9460   27.7060   45.5750 C   0  0  0  0  0  0  0  0  0  0  0  0
   58.3500   27.5850   45.5760 C   0  0  0  0  0  0  0  0  0  0  0  0
   58.9580   26.4320   46.0840 C   0  0  0  0  0  0  0  0  0  0  0  0
   58.1750   25.3850   46.5740 C   0  0  0  0  0  0  0  0  0  0  0  0
   56.7820   25.4830   46.5490 C   0  0  0  0  0  0  0  0  0  0  0  0
   56.1670   26.6340   46.0440 C   0  0  0  0  0  0  0  0  0  0  0  0
   54.7800   26.7140   46.0170 O   0  0  0  0  0  0  0  0  0  0  0  0
   57.5780   30.7280   45.6150 N   0  0  0  0  0  0  0  0  0  0  0  0
   57.9950   31.9050   45.0710 C   0  0  0  0  0  0  0  0  0  0  0  0
   58.8470   32.8500   45.8400 C   0  0  0  0  0  0  0  0  0  0  0  0
   58.4500   34.1820   46.0710 C   0  0  0  0  0  0  0  0  0  0  0  0
   59.2700   35.0510   46.7940 C   0  0  0  0  0  0  0  0  0  0  0  0
   60.4930   34.6070   47.3000 C   0  0  0  0  0  0  0  0  0  0  0  0
   60.9000   33.2840   47.0920 C   0  0  0  0  0  0  0  0  0  0  0  0
   62.4480   32.7260   47.7180 S   0  0  0  0  0  0  0  0  0  0  0  0
   62.5000   31.2240   47.6770 O   0  0  0  0  0  0  0  0  0  0  0  0
   62.6140   33.1750   49.1430 O   0  0  0  0  0  0  0  0  0  0  0  0
   63.7260   33.3740   46.7510 N   0  0  0  0  0  0  0  0  0  0  0  0
   60.0800   32.4120   46.3600 C   0  0  0  0  0  0  0  0  0  0  0  0
  1  2  1  0
  2  3  1  0
  3  4  2  0
  4  5  1  0
  5  6  2  0
  6  7  1  0
  7  8  2  0
  8  9  1  0
  9 10  2  0
 10 11  1  0
  3 12  1  0
 12 13  1  0
 13 14  1  0
 14 15  2  0
 15 16  1  0
 16 17  2  0
 17 18  1  0
 18 19  1  0
 19 20  2  0
 19 21  2  0
 19 22  1  0
 18 23  2  0
 13  1  2  0
 23 14  1  0
 10  5  1  0
M  CHG  2  11  -1  12  -1
M  END
>  <UniqueID>  (644) 
70

>  <SMILES>  (644) 
NS(=O)(=O)c1cccc(-c2cs/c(=N/c3ccccc3[O-])[n-]2)c1

>  <Energy>  (644) 
73.35466199226327

>  <Genealogy>  (644) 
NS(=O)(=O)c1cccc(-c2csc(=Nc3ccccc3[O-])[n-]2)c1 (protonated)
NS(=O)(=O)c1cccc(-c2cs/c(=N/c3ccccc3[O-])[n-]2)c1 (cis-trans isomerization)
NS(=O)(=O)c1cccc(-c2cs/c(=N/c3ccccc3[O-])[n-]2)c1 (3D coordinates assigned)
NS(=O)(=O)c1cccc(-c2cs/c(=N/c3ccccc3[O-])[n-]2)c1 (optimized conformer: 73.35466199226327 kcal/mol)

>  <smiles>  (644) 
NS(=O)(=O)c1cccc(-c2csc(=Nc3ccccc3O)[nH]2)c1

>  <score_type>  (644) 
oracle

>  <origin>  (644) 
adg

>  <m_score__min__energy>  (644) 
-14.880000000000001

>  <m_primary>  (644) 
energy

$$$$
82:0
     RDKit          3D

 24 25  0  0  0  0  0  0  0  0999 V2000
   56.3880   27.7030   45.6040 O   0  0  0  0  0  0  0  0  0  0  0  0
   57.7490   27.7980   45.9000 C   0  0  0  0  0  0  0  0  0  0  0  0
   58.3960   29.0500   45.7990 C   0  0  0  0  0  0  0  0  0  0  0  0
   57.6930   30.2690   45.5130 N   0  0  0  0  0  0  0  0  0  0  0  0
   56.7850   30.6200   44.0750 S   0  0  0  0  0  0  0  0  0  0  0  0
   56.8780   29.4400   43.1490 O   0  0  0  0  0  0  0  0  0  0  0  0
   55.3410   30.8380   44.4290 O   0  0  0  0  0  0  0  0  0  0  0  0
   57.4320   32.0680   43.2360 C   0  0  0  0  0  0  0  0  0  0  0  0
   58.2490   32.9820   44.1580 C   0  0  0  0  0  0  0  0  0  0  0  0
   57.3900   33.7220   45.1830 C   0  0  0  0  0  0  0  0  0  0  0  0
   59.7870   29.1200   45.9380 C   0  0  0  0  0  0  0  0  0  0  0  0
   60.5320   27.9770   46.2270 C   0  0  0  0  0  0  0  0  0  0  0  0
   59.8930   26.7490   46.3880 C   0  0  0  0  0  0  0  0  0  0  0  0
   58.5010   26.6480   46.2480 C   0  0  0  0  0  0  0  0  0  0  0  0
   57.8590   25.3340   46.4730 C   0  0  0  0  0  0  0  0  0  0  0  0
   58.4920   24.2850   46.1800 O   0  0  0  0  0  0  0  0  0  0  0  0
   56.5220   25.2140   46.9850 N   0  0  0  0  0  0  0  0  0  0  0  0
   55.5930   24.4170   46.5380 C   0  0  0  0  0  0  0  0  0  0  0  0
   55.6810   23.0660   46.7110 N   0  0  0  0  0  0  0  0  0  0  0  0
   54.7340   22.2150   46.2350 C   0  0  0  0  0  0  0  0  0  0  0  0
   53.6260   22.7150   45.5500 C   0  0  0  0  0  0  0  0  0  0  0  0
   53.5130   24.0920   45.3500 C   0  0  0  0  0  0  0  0  0  0  0  0
   54.5010   24.9510   45.8380 C   0  0  0  0  0  0  0  0  0  0  0  0
   54.3900   26.3210   45.6320 O   0  0  0  0  0  0  0  0  0  0  0  0
  1  2  1  0
  2  3  2  0
  3  4  1  0
  4  5  1  0
  5  6  2  0
  5  7  2  0
  5  8  1  0
  8  9  1  0
  9 10  1  0
  3 11  1  0
 11 12  2  0
 12 13  1  0
 13 14  2  0
 14 15  1  0
 15 16  2  0
 15 17  1  0
 17 18  2  0
 18 19  1  0
 19 20  1  0
 20 21  2  0
 21 22  1  0
 22 23  2  0
 23 24  1  0
 14  2  1  0
 23 18  1  0
M  CHG  3   4  -1  19  -1  24  -1
M  END
>  <UniqueID>  (645) 
76

>  <SMILES>  (645) 
CCCS(=O)(=O)[N-]c1cccc(C(=O)/N=c2\[n-]cccc2[O-])c1O

>  <Energy>  (645) 
46.361126292238346

>  <Genealogy>  (645) 
CCCS(=O)(=O)[N-]c1cccc(C(=O)N=c2[n-]cccc2[O-])c1O (protonated)
CCCS(=O)(=O)[N-]c1cccc(C(=O)/N=c2\[n-]cccc2[O-])c1O (cis-trans isomerization)
CCCS(=O)(=O)[N-]c1cccc(C(=O)/N=c2\[n-]cccc2[O-])c1O (3D coordinates assigned)
CCCS(=O)(=O)[N-]c1cccc(C(=O)/N=c2\[n-]cccc2[O-])c1O (optimized conformer: 46.361126292238346 kcal/mol)

>  <smiles>  (645) 
CCCS(=O)(=O)Nc1cccc(C(=O)N=c2[nH]cccc2O)c1O

>  <score_type>  (645) 
oracle

>  <origin>  (645) 
adg

>  <m_score__min__energy>  (645) 
-14.52

>  <m_primary>  (645) 
energy

$$$$
86:0
     RDKit          3D

 26 28  0  0  0  0  0  0  0  0999 V2000
   57.6250   23.6490   47.9280 O   0  0  0  0  0  0  0  0  0  0  0  0
   57.2030   24.6030   47.2230 C   0  0  0  0  0  0  0  0  0  0  0  0
   55.9060   24.9790   47.2110 N   0  0  0  0  0  0  0  0  0  0  0  0
   55.9060   26.0030   46.3430 C   0  0  0  0  0  0  0  0  0  0  0  0
   54.7690   26.7150   45.9870 O   0  0  0  0  0  0  0  0  0  0  0  0
   57.1770   26.2240   45.8680 C   0  0  0  0  0  0  0  0  0  0  0  0
   57.5840   27.2270   44.8340 C   0  0  0  0  0  0  0  0  0  0  0  0
   58.5090   28.2470   45.4370 C   0  0  0  0  0  0  0  0  0  0  0  0
   59.8910   28.0120   45.4870 C   0  0  0  0  0  0  0  0  0  0  0  0
   60.7420   28.9510   46.0740 C   0  0  0  0  0  0  0  0  0  0  0  0
   60.2230   30.1300   46.6160 C   0  0  0  0  0  0  0  0  0  0  0  0
   58.8410   30.3800   46.5710 C   0  0  0  0  0  0  0  0  0  0  0  0
   58.2770   31.5820   47.1170 N   0  0  0  0  0  0  0  0  0  0  0  0
   58.0870   33.0480   46.2060 S   0  0  0  0  0  0  0  0  0  0  0  0
   56.6300   33.3810   46.0490 O   0  0  0  0  0  0  0  0  0  0  0  0
   58.7120   32.8750   44.8500 O   0  0  0  0  0  0  0  0  0  0  0  0
   58.9050   34.3860   47.0720 C   0  0  0  0  0  0  0  0  0  0  0  0
   60.2790   34.7220   46.4720 C   0  0  0  0  0  0  0  0  0  0  0  0
   61.3770   33.8410   47.0130 C   0  0  0  0  0  0  0  0  0  0  0  0
   61.1470   33.0390   48.1440 C   0  0  0  0  0  0  0  0  0  0  0  0
   62.1750   32.2460   48.6650 C   0  0  0  0  0  0  0  0  0  0  0  0
   63.4350   32.2450   48.0610 C   0  0  0  0  0  0  0  0  0  0  0  0
   63.6710   33.0380   46.9350 C   0  0  0  0  0  0  0  0  0  0  0  0
   62.6480   33.8350   46.4120 C   0  0  0  0  0  0  0  0  0  0  0  0
   57.9890   29.4210   46.0020 C   0  0  0  0  0  0  0  0  0  0  0  0
   58.0120   25.3240   46.4170 N   0  0  0  0  0  0  0  0  0  0  0  0
  1  2  2  0
  2  3  1  0
  3  4  1  0
  4  5  1  0
  4  6  2  0
  6  7  1  0
  7  8  1  0
  8  9  2  0
  9 10  1  0
 10 11  2  0
 11 12  1  0
 12 13  1  0
 13 14  1  0
 14 15  2  0
 14 16  2  0
 14 17  1  0
 17 18  1  0
 18 19  1  0
 19 20  2  0
 20 21  1  0
 21 22  2  0
 22 23  1  0
 23 24  2  0
 12 25  2  0
  6 26  1  0
 26  2  1  0
 25  8  1  0
 24 19  1  0
M  CHG  3   3  -1   5  -1  26  -1
M  END
>  <UniqueID>  (646) 
79

>  <SMILES>  (646) 
O=c1[n-]c([O-])c(Cc2cccc(NS(=O)(=O)CCc3ccccc3)c2)[n-]1

>  <Energy>  (646) 
66.22809958746575

>  <Genealogy>  (646) 
O=c1[n-]c([O-])c(Cc2cccc(NS(=O)(=O)CCc3ccccc3)c2)[n-]1 (protonated)
O=c1[n-]c([O-])c(Cc2cccc(NS(=O)(=O)CCc3ccccc3)c2)[n-]1 (3D coordinates assigned)
O=c1[n-]c([O-])c(Cc2cccc(NS(=O)(=O)CCc3ccccc3)c2)[n-]1 (optimized conformer: 66.22809958746575 kcal/mol)

>  <smiles>  (646) 
O=c1[nH]c(O)c(Cc2cccc(NS(=O)(=O)CCc3ccccc3)c2)[nH]1

>  <score_type>  (646) 
oracle

>  <origin>  (646) 
adg

>  <m_score__min__energy>  (646) 
-17.899999999999999

>  <m_primary>  (646) 
energy

$$$$
21:0
     RDKit          3D

 30 32  0  0  0  0  0  0  0  0999 V2000
   55.1620   26.4100   46.0150 N   0  0  0  0  0  0  0  0  0  0  0  0
   56.6170   25.4850   45.9120 S   0  0  0  0  0  0  0  0  0  0  0  0
   56.8370   25.0380   44.4940 O   0  0  0  0  0  0  0  0  0  0  0  0
   56.4890   24.2680   46.7830 O   0  0  0  0  0  0  0  0  0  0  0  0
   57.9830   26.4770   46.4450 C   0  0  0  0  0  0  0  0  0  0  0  0
   58.5770   26.2100   47.6900 C   0  0  0  0  0  0  0  0  0  0  0  0
   59.6610   26.9680   48.1360 C   0  0  0  0  0  0  0  0  0  0  0  0
   60.1580   28.0070   47.3510 C   0  0  0  0  0  0  0  0  0  0  0  0
   59.5760   28.2900   46.1150 C   0  0  0  0  0  0  0  0  0  0  0  0
   58.4970   27.5220   45.6410 C   0  0  0  0  0  0  0  0  0  0  0  0
   57.8680   27.8750   44.3480 C   0  0  0  0  0  0  0  0  0  0  0  0
   57.5210   29.1170   43.9810 C   0  0  0  0  0  0  0  0  0  0  0  0
   56.3560   29.8650   44.5070 C   0  0  0  0  0  0  0  0  0  0  0  0
   55.4050   29.2520   45.0610 O   0  0  0  0  0  0  0  0  0  0  0  0
   56.3380   31.2980   44.5060 N   0  0  0  0  0  0  0  0  0  0  0  0
   57.3960   32.1560   44.9570 C   0  0  0  0  0  0  0  0  0  0  0  0
   57.9860   33.1070   44.1050 C   0  0  0  0  0  0  0  0  0  0  0  0
   58.9960   33.9460   44.5840 C   0  0  0  0  0  0  0  0  0  0  0  0
   59.4150   33.8510   45.9130 C   0  0  0  0  0  0  0  0  0  0  0  0
   58.8210   32.9190   46.7760 C   0  0  0  0  0  0  0  0  0  0  0  0
   59.3670   32.7850   48.4500 S   0  0  0  0  0  0  0  0  0  0  0  0
   58.4870   31.8070   49.1810 O   0  0  0  0  0  0  0  0  0  0  0  0
   59.2340   34.1220   49.1240 O   0  0  0  0  0  0  0  0  0  0  0  0
   61.0310   32.2560   48.5430 N   0  0  0  0  0  0  0  0  0  0  0  0
   61.3690   31.4070   47.3840 C   0  0  0  0  0  0  0  0  0  0  0  0
   62.8900   31.3670   47.1630 C   0  0  0  0  0  0  0  0  0  0  0  0
   63.4750   32.6410   46.9170 O   0  0  0  0  0  0  0  0  0  0  0  0
   62.7100   33.7290   47.4160 C   0  0  0  0  0  0  0  0  0  0  0  0
   61.9570   33.3950   48.7170 C   0  0  0  0  0  0  0  0  0  0  0  0
   57.7980   32.0900   46.2960 C   0  0  0  0  0  0  0  0  0  0  0  0
  1  2  1  0
  2  3  2  0
  2  4  2  0
  2  5  1  0
  5  6  2  0
  6  7  1  0
  7  8  2  0
  8  9  1  0
  9 10  2  0
 10 11  1  0
 11 12  2  3
 12 13  1  0
 13 14  2  0
 13 15  1  0
 15 16  1  0
 16 17  2  0
 17 18  1  0
 18 19  2  0
 19 20  1  0
 20 21  1  0
 21 22  2  0
 21 23  2  0
 21 24  1  0
 24 25  1  0
 25 26  1  0
 26 27  1  0
 27 28  1  0
 28 29  1  0
 20 30  2  0
 10  5  1  0
 30 16  1  0
 29 24  1  0
M  CHG  2   1  -1  15  -1
M  END
>  <UniqueID>  (647) 
22

>  <SMILES>  (647) 
[NH-]S(=O)(=O)c1ccccc1C=CC(=O)[N-]c1cccc(S(=O)(=O)N2CCOCC2)c1

>  <Energy>  (647) 
75.26403718015345

>  <Genealogy>  (647) 
[NH-]S(=O)(=O)c1ccccc1C=CC(=O)[N-]c1cccc(S(=O)(=O)N2CCOCC2)c1 (protonated)
[NH-]S(=O)(=O)c1ccccc1C=CC(=O)[N-]c1cccc(S(=O)(=O)N2CCOCC2)c1 (3D coordinates assigned)
[NH-]S(=O)(=O)c1ccccc1C=CC(=O)[N-]c1cccc(S(=O)(=O)N2CCOCC2)c1 (nonaromatic ring conformer: 75.26403718015345 kcal/mol)

>  <smiles>  (647) 
NS(=O)(=O)c1ccccc1C=CC(=O)Nc1cccc(S(=O)(=O)N2CCOCC2)c1

>  <score_type>  (647) 
oracle

>  <origin>  (647) 
adg

>  <m_score__min__energy>  (647) 
-15.02

>  <m_primary>  (647) 
energy

$$$$
40:0
     RDKit          3D

 26 27  0  0  0  0  0  0  0  0999 V2000
   63.5110   32.6530   47.1130 C   0  0  0  0  0  0  0  0  0  0  0  0
   62.4660   33.0950   47.9680 O   0  0  0  0  0  0  0  0  0  0  0  0
   61.1300   33.2790   47.5810 C   0  0  0  0  0  0  0  0  0  0  0  0
   60.5610   34.5680   47.5560 C   0  0  0  0  0  0  0  0  0  0  0  0
   59.2390   34.7560   47.1620 C   0  0  0  0  0  0  0  0  0  0  0  0
   58.4610   33.6690   46.7860 C   0  0  0  0  0  0  0  0  0  0  0  0
   59.0010   32.3740   46.7870 C   0  0  0  0  0  0  0  0  0  0  0  0
   58.1690   31.2220   46.2730 C   0  0  0  0  0  0  0  0  0  0  0  0
   57.1900   31.6950   45.2980 N   0  0  0  0  0  0  0  0  0  0  0  0
   57.4220   31.7030   43.8790 C   0  0  0  0  0  0  0  0  0  0  0  0
   58.2110   32.5440   43.3690 O   0  0  0  0  0  0  0  0  0  0  0  0
   56.7010   30.7400   42.9820 C   0  0  0  0  0  0  0  0  0  0  0  0
   56.8530   29.3680   43.4450 N   0  0  0  0  0  0  0  0  0  0  0  0
   56.2720   28.8570   44.6490 C   0  0  0  0  0  0  0  0  0  0  0  0
   55.1930   29.3550   45.0720 O   0  0  0  0  0  0  0  0  0  0  0  0
   56.9250   27.7520   45.4050 C   0  0  0  0  0  0  0  0  0  0  0  0
   58.3350   27.7100   45.4980 C   0  0  0  0  0  0  0  0  0  0  0  0
   58.9780   26.6980   46.2190 C   0  0  0  0  0  0  0  0  0  0  0  0
   60.8890   26.6830   46.3490 Br  0  0  0  0  0  0  0  0  0  0  0  0
   58.2270   25.7030   46.8440 C   0  0  0  0  0  0  0  0  0  0  0  0
   56.8310   25.7190   46.7500 C   0  0  0  0  0  0  0  0  0  0  0  0
   56.1760   26.7350   46.0440 C   0  0  0  0  0  0  0  0  0  0  0  0
   54.7860   26.7120   45.9880 O   0  0  0  0  0  0  0  0  0  0  0  0
   60.3360   32.1650   47.2020 C   0  0  0  0  0  0  0  0  0  0  0  0
   60.8070   30.8340   47.2140 O   0  0  0  0  0  0  0  0  0  0  0  0
   60.6190   29.8770   48.2540 C   0  0  0  0  0  0  0  0  0  0  0  0
  1  2  1  0
  2  3  1  0
  3  4  2  0
  4  5  1  0
  5  6  2  0
  6  7  1  0
  7  8  1  0
  8  9  1  0
  9 10  1  0
 10 11  2  0
 10 12  1  0
 12 13  1  0
 13 14  1  0
 14 15  2  0
 14 16  1  0
 16 17  2  0
 17 18  1  0
 18 19  1  0
 18 20  2  0
 20 21  1  0
 21 22  2  0
 22 23  1  0
  7 24  2  0
 24 25  1  0
 25 26  1  0
 24  3  1  0
 22 16  1  0
M  CHG  3   9  -1  13  -1  23  -1
M  END
>  <UniqueID>  (648) 
38

>  <SMILES>  (648) 
COc1cccc(C[N-]C(=O)C[N-]C(=O)c2cc(Br)ccc2[O-])c1OC

>  <Energy>  (648) 
41.0502314937149

>  <Genealogy>  (648) 
COc1cccc(C[N-]C(=O)C[N-]C(=O)c2cc(Br)ccc2[O-])c1OC (protonated)
COc1cccc(C[N-]C(=O)C[N-]C(=O)c2cc(Br)ccc2[O-])c1OC (3D coordinates assigned)
COc1cccc(C[N-]C(=O)C[N-]C(=O)c2cc(Br)ccc2[O-])c1OC (optimized conformer: 41.0502314937149 kcal/mol)

>  <smiles>  (648) 
COc1cccc(CNC(=O)CNC(=O)c2cc(Br)ccc2O)c1OC

>  <score_type>  (648) 
oracle

>  <origin>  (648) 
adg

>  <m_score__min__energy>  (648) 
-14.550000000000001

>  <m_primary>  (648) 
energy

$$$$
56:0
     RDKit          3D

 29 31  0  0  0  0  0  0  0  0999 V2000
   58.5660   30.1130   45.0770 C   0  0  0  0  0  0  0  0  0  0  0  0
   57.6130   29.2450   45.4730 C   0  0  0  0  0  0  0  0  0  0  0  0
   56.2720   29.3180   44.9350 C   0  0  0  0  0  0  0  0  0  0  0  0
   55.1990   29.3780   44.5030 N   0  0  0  0  0  0  0  0  0  0  0  0
   57.9260   28.1580   46.4280 C   0  0  0  0  0  0  0  0  0  0  0  0
   59.0660   28.0890   46.9630 O   0  0  0  0  0  0  0  0  0  0  0  0
   56.9380   27.1560   46.7080 N   0  0  0  0  0  0  0  0  0  0  0  0
   56.7450   25.9210   46.0000 C   0  0  0  0  0  0  0  0  0  0  0  0
   57.8200   25.0670   45.6890 C   0  0  0  0  0  0  0  0  0  0  0  0
   57.5910   23.8610   45.0200 C   0  0  0  0  0  0  0  0  0  0  0  0
   56.2910   23.4900   44.6690 C   0  0  0  0  0  0  0  0  0  0  0  0
   55.2160   24.3200   44.9950 C   0  0  0  0  0  0  0  0  0  0  0  0
   55.4390   25.5280   45.6640 C   0  0  0  0  0  0  0  0  0  0  0  0
   54.3590   26.3410   45.9900 O   0  0  0  0  0  0  0  0  0  0  0  0
   58.8010   31.4320   45.7120 C   0  0  0  0  0  0  0  0  0  0  0  0
   57.8460   32.4450   45.5830 C   0  0  0  0  0  0  0  0  0  0  0  0
   56.6640   32.2210   44.8860 O   0  0  0  0  0  0  0  0  0  0  0  0
   58.0630   33.6550   46.1510 N   0  0  0  0  0  0  0  0  0  0  0  0
   59.2000   33.9220   46.8410 C   0  0  0  0  0  0  0  0  0  0  0  0
   59.3410   35.0590   47.3700 O   0  0  0  0  0  0  0  0  0  0  0  0
   60.1730   32.9650   46.9660 N   0  0  0  0  0  0  0  0  0  0  0  0
   61.3850   33.2550   47.6940 C   0  0  0  0  0  0  0  0  0  0  0  0
   61.3370   33.5210   49.0730 C   0  0  0  0  0  0  0  0  0  0  0  0
   62.5130   33.8000   49.7770 C   0  0  0  0  0  0  0  0  0  0  0  0
   63.7410   33.8160   49.1100 C   0  0  0  0  0  0  0  0  0  0  0  0
   63.7970   33.5510   47.7390 C   0  0  0  0  0  0  0  0  0  0  0  0
   62.6250   33.2720   47.0310 C   0  0  0  0  0  0  0  0  0  0  0  0
   59.9950   31.7300   46.3950 C   0  0  0  0  0  0  0  0  0  0  0  0
   60.9140   30.8660   46.4530 O   0  0  0  0  0  0  0  0  0  0  0  0
  1  2  2  0
  2  3  1  0
  3  4  3  0
  2  5  1  0
  5  6  2  0
  5  7  1  0
  7  8  1  0
  8  9  2  0
  9 10  1  0
 10 11  2  0
 11 12  1  0
 12 13  2  0
 13 14  1  0
  1 15  1  0
 15 16  2  0
 16 17  1  0
 16 18  1  0
 18 19  1  0
 19 20  2  0
 19 21  1  0
 21 22  1  0
 22 23  2  0
 23 24  1  0
 24 25  2  0
 25 26  1  0
 26 27  2  0
 21 28  1  0
 28 29  2  0
 13  8  1  0
 28 15  1  0
 27 22  1  0
M  CHG  4   7  -1  14  -1  17  -1  18  -1
M  END
>  <UniqueID>  (649) 
53

>  <SMILES>  (649) 
N#C/C(=C\c1c([O-])[n-]c(=O)n(-c2ccccc2)c1=O)C(=O)[N-]c1ccccc1[O-]

>  <Energy>  (649) 
64.61827569907958

>  <Genealogy>  (649) 
N#CC(=Cc1c([O-])[n-]c(=O)n(-c2ccccc2)c1=O)C(=O)[N-]c1ccccc1[O-] (protonated)
N#C/C(=C\c1c([O-])[n-]c(=O)n(-c2ccccc2)c1=O)C(=O)[N-]c1ccccc1[O-] (cis-trans isomerization)
N#C/C(=C\c1c([O-])[n-]c(=O)n(-c2ccccc2)c1=O)C(=O)[N-]c1ccccc1[O-] (3D coordinates assigned)
N#C/C(=C\c1c([O-])[n-]c(=O)n(-c2ccccc2)c1=O)C(=O)[N-]c1ccccc1[O-] (optimized conformer: 64.61827569907958 kcal/mol)

>  <smiles>  (649) 
N#CC(=Cc1c(O)[nH]c(=O)n(-c2ccccc2)c1=O)C(=O)Nc1ccccc1O

>  <score_type>  (649) 
oracle

>  <origin>  (649) 
adg

>  <m_score__min__energy>  (649) 
-17.129999999999999

>  <m_primary>  (649) 
energy

$$$$
57:0
     RDKit          3D

 29 32  0  0  0  0  0  0  0  0999 V2000
   57.6730   25.5390   46.0800 O   0  0  0  0  0  0  0  0  0  0  0  0
   57.5390   26.8630   45.6700 C   0  0  0  0  0  0  0  0  0  0  0  0
   58.6650   27.6120   45.3030 C   0  0  0  0  0  0  0  0  0  0  0  0
   58.5220   28.9390   44.8890 C   0  0  0  0  0  0  0  0  0  0  0  0
   57.2450   29.5240   44.8140 C   0  0  0  0  0  0  0  0  0  0  0  0
   57.0780   30.9390   44.4160 C   0  0  0  0  0  0  0  0  0  0  0  0
   57.9350   31.9360   44.7280 C   0  0  0  0  0  0  0  0  0  0  0  0
   58.2950   32.9510   43.7160 C   0  0  0  0  0  0  0  0  0  0  0  0
   58.0020   32.7910   42.5000 O   0  0  0  0  0  0  0  0  0  0  0  0
   58.9610   34.1470   44.1170 N   0  0  0  0  0  0  0  0  0  0  0  0
   59.3050   34.3840   45.4830 C   0  0  0  0  0  0  0  0  0  0  0  0
   59.7900   35.5010   45.8060 O   0  0  0  0  0  0  0  0  0  0  0  0
   59.1080   33.3540   46.4720 N   0  0  0  0  0  0  0  0  0  0  0  0
   59.3300   33.6300   47.8980 C   0  0  0  0  0  0  0  0  0  0  0  0
   60.7890   33.4910   48.2190 C   0  0  0  0  0  0  0  0  0  0  0  0
   61.2500   33.9010   49.4320 N   0  0  0  0  0  0  0  0  0  0  0  0
   62.5500   33.7440   49.8000 C   0  0  0  0  0  0  0  0  0  0  0  0
   62.9840   34.1860   51.0540 C   0  0  0  0  0  0  0  0  0  0  0  0
   64.3210   34.0190   51.4300 C   0  0  0  0  0  0  0  0  0  0  0  0
   65.2270   33.4080   50.5560 C   0  0  0  0  0  0  0  0  0  0  0  0
   64.8010   32.9610   49.3000 C   0  0  0  0  0  0  0  0  0  0  0  0
   63.4630   33.1270   48.9160 C   0  0  0  0  0  0  0  0  0  0  0  0
   63.0040   32.6860   47.6680 C   0  0  0  0  0  0  0  0  0  0  0  0
   61.6640   32.8650   47.3170 C   0  0  0  0  0  0  0  0  0  0  0  0
   58.5620   32.0840   46.0670 C   0  0  0  0  0  0  0  0  0  0  0  0
   58.6700   31.0870   46.8310 O   0  0  0  0  0  0  0  0  0  0  0  0
   56.1240   28.7820   45.2110 C   0  0  0  0  0  0  0  0  0  0  0  0
   56.2680   27.4530   45.6270 C   0  0  0  0  0  0  0  0  0  0  0  0
   55.1470   26.7220   46.0000 O   0  0  0  0  0  0  0  0  0  0  0  0
  1  2  1  0
  2  3  2  0
  3  4  1  0
  4  5  2  0
  5  6  1  0
  6  7  2  0
  7  8  1  0
  8  9  2  0
  8 10  1  0
 10 11  1  0
 11 12  2  0
 11 13  1  0
 13 14  1  0
 14 15  1  0
 15 16  2  0
 16 17  1  0
 17 18  2  0
 18 19  1  0
 19 20  2  0
 20 21  1  0
 21 22  2  0
 22 23  1  0
 23 24  2  0
 13 25  1  0
 25 26  2  0
  5 27  1  0
 27 28  2  0
 28 29  1  0
 28  2  1  0
 25  7  1  0
 24 15  1  0
 22 17  1  0
M  CHG  2  10  -1  29  -1
M  END
>  <UniqueID>  (650) 
54

>  <SMILES>  (650) 
O=C1[N-]C(=O)N(Cc2ccc3ccccc3n2)C(=O)/C1=C\c1ccc(O)c([O-])c1

>  <Energy>  (650) 
57.270171775904025

>  <Genealogy>  (650) 
O=C1[N-]C(=O)N(Cc2ccc3ccccc3n2)C(=O)C1=Cc1ccc(O)c([O-])c1 (protonated)
O=C1[N-]C(=O)N(Cc2ccc3ccccc3n2)C(=O)/C1=C\c1ccc(O)c([O-])c1 (cis-trans isomerization)
O=C1[N-]C(=O)N(Cc2ccc3ccccc3n2)C(=O)/C1=C\c1ccc(O)c([O-])c1 (3D coordinates assigned)
O=C1[N-]C(=O)N(Cc2ccc3ccccc3n2)C(=O)/C1=C\c1ccc(O)c([O-])c1 (nonaromatic ring conformer: 57.270171775904025 kcal/mol)

>  <smiles>  (650) 
O=C1NC(=O)N(Cc2ccc3ccccc3n2)C(=O)C1=Cc1ccc(O)c(O)c1

>  <score_type>  (650) 
oracle

>  <origin>  (650) 
adg

>  <m_score__min__energy>  (650) 
-14.140000000000001

>  <m_primary>  (650) 
energy

$$$$
92:0
     RDKit          3D

 29 31  0  0  0  0  0  0  0  0999 V2000
   54.7740   26.3430   45.9560 O   0  0  0  0  0  0  0  0  0  0  0  0
   55.8770   25.8980   46.3750 C   0  0  0  0  0  0  0  0  0  0  0  0
   55.9240   24.6230   46.9270 O   0  0  0  0  0  0  0  0  0  0  0  0
   57.1030   26.7190   46.2780 C   0  0  0  0  0  0  0  0  0  0  0  0
   58.2060   26.4450   47.1020 C   0  0  0  0  0  0  0  0  0  0  0  0
   59.3700   27.2090   46.9990 C   0  0  0  0  0  0  0  0  0  0  0  0
   59.4470   28.2580   46.0790 C   0  0  0  0  0  0  0  0  0  0  0  0
   58.3500   28.5510   45.2490 C   0  0  0  0  0  0  0  0  0  0  0  0
   58.3660   29.6210   44.2910 N   0  0  0  0  0  0  0  0  0  0  0  0
   57.3040   30.9940   44.2170 S   0  0  0  0  0  0  0  0  0  0  0  0
   55.9790   30.6880   44.8550 O   0  0  0  0  0  0  0  0  0  0  0  0
   57.0620   31.3020   42.7640 O   0  0  0  0  0  0  0  0  0  0  0  0
   58.0580   32.3880   44.9910 C   0  0  0  0  0  0  0  0  0  0  0  0
   58.4750   33.4840   44.2250 C   0  0  0  0  0  0  0  0  0  0  0  0
   59.1220   34.5610   44.8340 C   0  0  0  0  0  0  0  0  0  0  0  0
   59.3600   34.5510   46.2110 C   0  0  0  0  0  0  0  0  0  0  0  0
   58.9400   33.4630   46.9990 C   0  0  0  0  0  0  0  0  0  0  0  0
   59.2110   33.4450   48.4610 C   0  0  0  0  0  0  0  0  0  0  0  0
   59.4310   34.5250   49.0700 O   0  0  0  0  0  0  0  0  0  0  0  0
   59.1420   32.2310   49.2240 N   0  0  0  0  0  0  0  0  0  0  0  0
   58.5820   32.0320   50.3870 C   0  0  0  0  0  0  0  0  0  0  0  0
   57.7250   30.9810   50.5030 N   0  0  0  0  0  0  0  0  0  0  0  0
   57.0960   30.6710   51.6660 C   0  0  0  0  0  0  0  0  0  0  0  0
   57.3160   31.4410   52.8040 C   0  0  0  0  0  0  0  0  0  0  0  0
   58.1750   32.5350   52.7300 C   0  0  0  0  0  0  0  0  0  0  0  0
   58.8050   32.8600   51.5200 C   0  0  0  0  0  0  0  0  0  0  0  0
   59.6100   33.9960   51.4550 O   0  0  0  0  0  0  0  0  0  0  0  0
   58.2750   32.3910   46.3750 C   0  0  0  0  0  0  0  0  0  0  0  0
   57.1900   27.7730   45.3500 C   0  0  0  0  0  0  0  0  0  0  0  0
  1  2  2  0
  2  3  1  0
  2  4  1  0
  4  5  2  0
  5  6  1  0
  6  7  2  0
  7  8  1  0
  8  9  1  0
  9 10  1  0
 10 11  2  0
 10 12  2  0
 10 13  1  0
 13 14  2  0
 14 15  1  0
 15 16  2  0
 16 17  1  0
 17 18  1  0
 18 19  2  0
 18 20  1  0
 20 21  2  3
 21 22  1  0
 22 23  1  0
 23 24  2  0
 24 25  1  0
 25 26  2  0
 26 27  1  0
 17 28  2  0
  8 29  2  0
 29  4  1  0
 28 13  1  0
 26 21  1  0
M  CHG  3   3  -1   9  -1  22  -1
M  END
>  <UniqueID>  (651) 
83

>  <SMILES>  (651) 
O=C([O-])c1cccc([N-]S(=O)(=O)c2cccc(C(=O)N=c3[n-]cccc3O)c2)c1

>  <Energy>  (651) 
59.50438834524227

>  <Genealogy>  (651) 
O=C([O-])c1cccc([N-]S(=O)(=O)c2cccc(C(=O)N=c3[n-]cccc3O)c2)c1 (protonated)
O=C([O-])c1cccc([N-]S(=O)(=O)c2cccc(C(=O)N=c3[n-]cccc3O)c2)c1 (3D coordinates assigned)
O=C([O-])c1cccc([N-]S(=O)(=O)c2cccc(C(=O)N=c3[n-]cccc3O)c2)c1 (optimized conformer: 59.50438834524227 kcal/mol)

>  <smiles>  (651) 
O=C(O)c1cccc(NS(=O)(=O)c2cccc(C(=O)N=c3[nH]cccc3O)c2)c1

>  <score_type>  (651) 
oracle

>  <origin>  (651) 
adg

>  <m_score__min__energy>  (651) 
-15.210000000000001

>  <m_primary>  (651) 
energy

$$$$
7:0
     RDKit          3D

 26 28  0  0  0  0  0  0  0  0999 V2000
   54.4170   26.3410   46.0040 O   0  0  0  0  0  0  0  0  0  0  0  0
   55.8090   26.4300   46.0270 C   0  0  0  0  0  0  0  0  0  0  0  0
   56.5890   25.3970   46.5730 C   0  0  0  0  0  0  0  0  0  0  0  0
   55.9870   24.2580   47.0940 O   0  0  0  0  0  0  0  0  0  0  0  0
   57.9810   25.5130   46.6010 C   0  0  0  0  0  0  0  0  0  0  0  0
   58.6030   26.6480   46.0770 C   0  0  0  0  0  0  0  0  0  0  0  0
   57.8380   27.6720   45.4990 C   0  0  0  0  0  0  0  0  0  0  0  0
   58.5290   28.8720   44.9780 C   0  0  0  0  0  0  0  0  0  0  0  0
   58.2740   30.1670   45.3200 C   0  0  0  0  0  0  0  0  0  0  0  0
   57.3230   31.0110   44.6680 C   0  0  0  0  0  0  0  0  0  0  0  0
   56.7880   30.7620   43.4640 C   0  0  0  0  0  0  0  0  0  0  0  0
   57.0090   32.2030   45.2310 N   0  0  0  0  0  0  0  0  0  0  0  0
   57.6180   32.6710   46.3430 C   0  0  0  0  0  0  0  0  0  0  0  0
   57.2540   33.7840   46.8100 O   0  0  0  0  0  0  0  0  0  0  0  0
   58.6310   31.9600   46.9260 N   0  0  0  0  0  0  0  0  0  0  0  0
   59.3170   32.4880   48.1250 C   0  0  0  0  0  0  0  0  0  0  0  0
   60.7640   32.7810   47.8210 C   0  0  0  0  0  0  0  0  0  0  0  0
   61.7820   32.2100   48.6020 C   0  0  0  0  0  0  0  0  0  0  0  0
   63.1250   32.4570   48.3020 C   0  0  0  0  0  0  0  0  0  0  0  0
   63.4620   33.2730   47.2190 C   0  0  0  0  0  0  0  0  0  0  0  0
   62.4570   33.8430   46.4350 C   0  0  0  0  0  0  0  0  0  0  0  0
   61.1130   33.5980   46.7320 C   0  0  0  0  0  0  0  0  0  0  0  0
   58.9700   30.7270   46.4270 C   0  0  0  0  0  0  0  0  0  0  0  0
   59.8960   30.0680   46.9820 O   0  0  0  0  0  0  0  0  0  0  0  0
   56.4320   27.5720   45.5030 C   0  0  0  0  0  0  0  0  0  0  0  0
   55.6480   28.6070   45.0010 O   0  0  0  0  0  0  0  0  0  0  0  0
  1  2  1  0
  2  3  2  0
  3  4  1  0
  3  5  1  0
  5  6  2  0
  6  7  1  0
  7  8  1  0
  8  9  2  0
  9 10  1  0
 10 11  2  0
 10 12  1  0
 12 13  1  0
 13 14  2  0
 13 15  1  0
 15 16  1  0
 16 17  1  0
 17 18  2  0
 18 19  1  0
 19 20  2  0
 20 21  1  0
 21 22  2  0
 15 23  1  0
 23 24  2  0
  7 25  2  0
 25 26  1  0
 25  2  1  0
 23  9  1  0
 22 17  1  0
M  CHG  3   4  -1  12  -1  26  -1
M  END
>  <UniqueID>  (652) 
6

>  <SMILES>  (652) 
C=c1[n-]c(=O)n(Cc2ccccc2)c(=O)/c1=C/c1ccc([O-])c(O)c1[O-]

>  <Energy>  (652) 
69.98618931694931

>  <Genealogy>  (652) 
C=c1[n-]c(=O)n(Cc2ccccc2)c(=O)c1=Cc1ccc([O-])c(O)c1[O-] (protonated)
C=c1[n-]c(=O)n(Cc2ccccc2)c(=O)/c1=C/c1ccc([O-])c(O)c1[O-] (cis-trans isomerization)
C=c1[n-]c(=O)n(Cc2ccccc2)c(=O)/c1=C/c1ccc([O-])c(O)c1[O-] (3D coordinates assigned)
C=c1[n-]c(=O)n(Cc2ccccc2)c(=O)/c1=C/c1ccc([O-])c(O)c1[O-] (optimized conformer: 69.98618931694931 kcal/mol)

>  <smiles>  (652) 
C=c1[nH]c(=O)n(Cc2ccccc2)c(=O)c1=Cc1ccc(O)c(O)c1O

>  <score_type>  (652) 
oracle

>  <origin>  (652) 
adg

>  <m_score__min__energy>  (652) 
-15.67

>  <m_primary>  (652) 
energy

$$$$
14:0
     RDKit          3D

 27 29  0  0  0  0  0  0  0  0999 V2000
   56.1550   24.4850   44.8830 O   0  0  0  0  0  0  0  0  0  0  0  0
   55.2350   25.1090   45.4770 C   0  0  0  0  0  0  0  0  0  0  0  0
   53.9060   24.4500   45.6850 C   0  0  0  0  0  0  0  0  0  0  0  0
   54.0550   23.1840   46.4960 C   0  0  0  0  0  0  0  0  0  0  0  0
   55.0560   23.1020   47.4840 C   0  0  0  0  0  0  0  0  0  0  0  0
   55.2220   21.9270   48.2280 C   0  0  0  0  0  0  0  0  0  0  0  0
   54.4040   20.8190   47.9780 C   0  0  0  0  0  0  0  0  0  0  0  0
   53.4140   20.8850   46.9910 C   0  0  0  0  0  0  0  0  0  0  0  0
   53.2390   22.0590   46.2460 C   0  0  0  0  0  0  0  0  0  0  0  0
   52.2540   22.0990   45.2610 O   0  0  0  0  0  0  0  0  0  0  0  0
   55.4450   26.4410   45.9710 N   0  0  0  0  0  0  0  0  0  0  0  0
   56.6030   27.2690   45.7750 C   0  0  0  0  0  0  0  0  0  0  0  0
   57.9020   26.8200   46.0830 C   0  0  0  0  0  0  0  0  0  0  0  0
   59.0020   27.6530   45.8730 C   0  0  0  0  0  0  0  0  0  0  0  0
   58.8260   28.9260   45.3280 C   0  0  0  0  0  0  0  0  0  0  0  0
   57.5470   29.3710   44.9690 C   0  0  0  0  0  0  0  0  0  0  0  0
   57.3470   30.9760   44.2500 S   0  0  0  0  0  0  0  0  0  0  0  0
   57.3330   30.8590   42.7500 O   0  0  0  0  0  0  0  0  0  0  0  0
   56.0350   31.5440   44.7170 O   0  0  0  0  0  0  0  0  0  0  0  0
   58.6680   32.0170   44.7510 N   0  0  0  0  0  0  0  0  0  0  0  0
   58.5460   33.3780   44.1770 C   0  0  0  0  0  0  0  0  0  0  0  0
   57.9930   34.4010   45.1860 C   0  0  0  0  0  0  0  0  0  0  0  0
   57.0650   33.7820   46.0480 O   0  0  0  0  0  0  0  0  0  0  0  0
   57.7320   32.8800   46.9160 C   0  0  0  0  0  0  0  0  0  0  0  0
   58.8240   32.0340   46.2160 C   0  0  0  0  0  0  0  0  0  0  0  0
   56.4330   28.5420   45.2030 C   0  0  0  0  0  0  0  0  0  0  0  0
   55.1520   28.9810   44.8800 O   0  0  0  0  0  0  0  0  0  0  0  0
  1  2  2  0
  2  3  1  0
  3  4  1  0
  4  5  2  0
  5  6  1  0
  6  7  2  0
  7  8  1  0
  8  9  2  0
  9 10  1  0
  2 11  1  0
 11 12  1  0
 12 13  2  0
 13 14  1  0
 14 15  2  0
 15 16  1  0
 16 17  1  0
 17 18  2  0
 17 19  2  0
 17 20  1  0
 20 21  1  0
 21 22  1  0
 22 23  1  0
 23 24  1  0
 24 25  1  0
 16 26  2  0
 26 27  1  0
  9  4  1  0
 26 12  1  0
 25 20  1  0
M  CHG  3  10  -1  11  -1  27  -1
M  END
>  <UniqueID>  (653) 
13

>  <SMILES>  (653) 
O=C(Cc1ccccc1[O-])[N-]c1cccc(S(=O)(=O)N2CCOCC2)c1[O-]

>  <Energy>  (653) 
61.08293465347156

>  <Genealogy>  (653) 
O=C(Cc1ccccc1[O-])[N-]c1cccc(S(=O)(=O)N2CCOCC2)c1[O-] (protonated)
O=C(Cc1ccccc1[O-])[N-]c1cccc(S(=O)(=O)N2CCOCC2)c1[O-] (3D coordinates assigned)
O=C(Cc1ccccc1[O-])[N-]c1cccc(S(=O)(=O)N2CCOCC2)c1[O-] (nonaromatic ring conformer: 61.08293465347156 kcal/mol)

>  <smiles>  (653) 
O=C(Cc1ccccc1O)Nc1cccc(S(=O)(=O)N2CCOCC2)c1O

>  <score_type>  (653) 
oracle

>  <origin>  (653) 
adg

>  <m_score__min__energy>  (653) 
-17.18

>  <m_primary>  (653) 
energy

$$$$
66:0
     RDKit          3D

 31 34  0  0  0  0  0  0  0  0999 V2000
   56.6680   21.8090   43.1240 C   0  0  0  0  0  0  0  0  0  0  0  0
   55.5360   22.4280   43.3730 O   0  0  0  0  0  0  0  0  0  0  0  0
   55.7000   23.1860   44.4330 C   0  0  0  0  0  0  0  0  0  0  0  0
   54.6290   24.0580   45.0110 C   0  0  0  0  0  0  0  0  0  0  0  0
   55.1330   24.7800   46.1780 N   0  0  0  0  0  0  0  0  0  0  0  0
   55.9560   25.7840   46.1310 C   0  0  0  0  0  0  0  0  0  0  0  0
   55.5180   26.9830   45.6710 N   0  0  0  0  0  0  0  0  0  0  0  0
   56.3600   28.0470   45.6090 C   0  0  0  0  0  0  0  0  0  0  0  0
   55.9130   29.1790   45.1510 N   0  0  0  0  0  0  0  0  0  0  0  0
   56.3190   29.8390   43.9420 C   0  0  0  0  0  0  0  0  0  0  0  0
   55.5110   30.0130   42.9910 O   0  0  0  0  0  0  0  0  0  0  0  0
   57.7000   30.4040   43.8410 C   0  0  0  0  0  0  0  0  0  0  0  0
   57.8040   31.6610   44.6580 C   0  0  0  0  0  0  0  0  0  0  0  0
   57.7760   31.6010   46.0610 C   0  0  0  0  0  0  0  0  0  0  0  0
   57.8320   32.7780   46.8160 C   0  0  0  0  0  0  0  0  0  0  0  0
   57.9070   34.0190   46.1780 C   0  0  0  0  0  0  0  0  0  0  0  0
   57.9240   34.0860   44.7830 C   0  0  0  0  0  0  0  0  0  0  0  0
   57.8700   32.9120   44.0240 C   0  0  0  0  0  0  0  0  0  0  0  0
   57.6480   27.9060   46.0270 N   0  0  0  0  0  0  0  0  0  0  0  0
   58.0940   26.7080   46.4920 C   0  0  0  0  0  0  0  0  0  0  0  0
   59.3220   26.5580   46.8930 N   0  0  0  0  0  0  0  0  0  0  0  0
   59.8650   27.0740   48.1490 C   0  0  0  0  0  0  0  0  0  0  0  0
   60.1530   28.5460   48.0210 C   0  0  0  0  0  0  0  0  0  0  0  0
   60.4830   29.0900   46.7680 C   0  0  0  0  0  0  0  0  0  0  0  0
   60.7770   30.4510   46.6460 C   0  0  0  0  0  0  0  0  0  0  0  0
   60.7450   31.2790   47.7720 C   0  0  0  0  0  0  0  0  0  0  0  0
   60.4160   30.7470   49.0220 C   0  0  0  0  0  0  0  0  0  0  0  0
   60.1170   29.3870   49.1470 C   0  0  0  0  0  0  0  0  0  0  0  0
   57.2460   25.6510   46.5390 N   0  0  0  0  0  0  0  0  0  0  0  0
   56.9920   23.0700   44.9050 C   0  0  0  0  0  0  0  0  0  0  0  0
   57.6150   22.1790   44.0580 C   0  0  0  0  0  0  0  0  0  0  0  0
  1  2  1  0
  2  3  1  0
  3  4  1  0
  4  5  1  0
  5  6  2  0
  6  7  1  0
  7  8  1  0
  8  9  2  3
  9 10  1  0
 10 11  2  0
 10 12  1  0
 12 13  1  0
 13 14  2  0
 14 15  1  0
 15 16  2  0
 16 17  1  0
 17 18  2  0
  8 19  1  0
 19 20  1  0
 20 21  2  3
 21 22  1  0
 22 23  1  0
 23 24  2  0
 24 25  1  0
 25 26  2  0
 26 27  1  0
 27 28  2  0
 20 29  1  0
  3 30  2  0
 30 31  1  0
 31  1  2  0
 29  6  1  0
 18 13  1  0
 28 23  1  0
M  CHG  3   7  -1  19  -1  29  -1
M  END
>  <UniqueID>  (654) 
60

>  <SMILES>  (654) 
O=C(Cc1ccccc1)N=c1[n-]c(=NCc2ccccc2)[n-]/c(=N\Cc2ccco2)[n-]1

>  <Energy>  (654) 
78.69769744009437

>  <Genealogy>  (654) 
O=C(Cc1ccccc1)N=c1[n-]c(=NCc2ccccc2)[n-]c(=NCc2ccco2)[n-]1 (protonated)
O=C(Cc1ccccc1)N=c1[n-]c(=NCc2ccccc2)[n-]/c(=N\Cc2ccco2)[n-]1 (cis-trans isomerization)
O=C(Cc1ccccc1)N=c1[n-]c(=NCc2ccccc2)[n-]/c(=N\Cc2ccco2)[n-]1 (3D coordinates assigned)
O=C(Cc1ccccc1)N=c1[n-]c(=NCc2ccccc2)[n-]/c(=N\Cc2ccco2)[n-]1 (optimized conformer: 78.69769744009437 kcal/mol)

>  <smiles>  (654) 
O=C(Cc1ccccc1)N=c1[nH]c(=NCc2ccccc2)[nH]c(=NCc2ccco2)[nH]1

>  <score_type>  (654) 
oracle

>  <origin>  (654) 
adg

>  <m_score__min__energy>  (654) 
-14.039999999999999

>  <m_primary>  (654) 
energy

$$$$
79:0
     RDKit          3D

 29 31  0  0  0  0  0  0  0  0999 V2000
   59.2700   35.1750   45.0420 C   0  0  0  0  0  0  0  0  0  0  0  0
   58.8370   33.7760   45.3980 C   0  0  0  0  0  0  0  0  0  0  0  0
   58.4220   32.9310   44.3580 C   0  0  0  0  0  0  0  0  0  0  0  0
   57.9510   31.6450   44.6280 C   0  0  0  0  0  0  0  0  0  0  0  0
   57.8880   31.1760   45.9410 C   0  0  0  0  0  0  0  0  0  0  0  0
   57.3750   29.8570   46.1820 N   0  0  0  0  0  0  0  0  0  0  0  0
   56.6780   29.0280   45.2410 C   0  0  0  0  0  0  0  0  0  0  0  0
   55.5320   29.3800   44.8540 O   0  0  0  0  0  0  0  0  0  0  0  0
   57.2850   27.7660   44.6950 C   0  0  0  0  0  0  0  0  0  0  0  0
   57.2050   26.6850   45.6780 N   0  0  0  0  0  0  0  0  0  0  0  0
   58.2230   25.9530   46.1700 C   0  0  0  0  0  0  0  0  0  0  0  0
   59.5550   26.1280   45.8110 O   0  0  0  0  0  0  0  0  0  0  0  0
   57.7640   25.0080   47.0660 C   0  0  0  0  0  0  0  0  0  0  0  0
   56.3890   25.1710   47.1260 C   0  0  0  0  0  0  0  0  0  0  0  0
   56.0900   26.2070   46.2620 C   0  0  0  0  0  0  0  0  0  0  0  0
   54.8120   26.6950   46.0180 O   0  0  0  0  0  0  0  0  0  0  0  0
   58.2630   32.0260   46.9940 C   0  0  0  0  0  0  0  0  0  0  0  0
   58.7660   33.3100   46.7340 C   0  0  0  0  0  0  0  0  0  0  0  0
   59.1750   34.1440   47.8810 C   0  0  0  0  0  0  0  0  0  0  0  0
   59.4680   35.3530   47.6850 O   0  0  0  0  0  0  0  0  0  0  0  0
   59.2400   33.6200   49.2150 N   0  0  0  0  0  0  0  0  0  0  0  0
   60.4660   33.2300   49.9080 C   0  0  0  0  0  0  0  0  0  0  0  0
   61.6570   34.0540   49.4170 C   0  0  0  0  0  0  0  0  0  0  0  0
   62.8030   33.1680   49.1040 N   0  0  0  0  0  0  0  0  0  0  0  0
   63.7860   33.8120   48.2000 C   0  0  0  0  0  0  0  0  0  0  0  0
   63.5220   33.4890   46.7140 C   0  0  0  0  0  0  0  0  0  0  0  0
   62.1510   33.2290   46.5000 O   0  0  0  0  0  0  0  0  0  0  0  0
   61.7750   32.0190   47.1370 C   0  0  0  0  0  0  0  0  0  0  0  0
   62.3660   31.8690   48.5600 C   0  0  0  0  0  0  0  0  0  0  0  0
  1  2  1  0
  2  3  2  0
  3  4  1  0
  4  5  2  0
  5  6  1  0
  6  7  1  0
  7  8  2  0
  7  9  1  0
  9 10  1  0
 10 11  1  0
 11 12  1  0
 11 13  2  0
 13 14  1  0
 14 15  2  0
 15 16  1  0
  5 17  1  0
 17 18  2  0
 18 19  1  0
 19 20  2  0
 19 21  1  0
 21 22  1  0
 22 23  1  0
 23 24  1  0
 24 25  1  0
 25 26  1  0
 26 27  1  0
 27 28  1  0
 28 29  1  0
 18  2  1  0
 29 24  1  0
 15 10  1  0
M  CHG  4   6  -1  12  -1  16  -1  21  -1
M  END
>  <UniqueID>  (655) 
72

>  <SMILES>  (655) 
Cc1ccc([N-]C(=O)Cn2c([O-])ccc2[O-])cc1C(=O)[N-]CCN1CCOCC1

>  <Energy>  (655) 
96.92580839903547

>  <Genealogy>  (655) 
Cc1ccc([N-]C(=O)Cn2c([O-])ccc2[O-])cc1C(=O)[N-]CCN1CCOCC1 (protonated)
Cc1ccc([N-]C(=O)Cn2c([O-])ccc2[O-])cc1C(=O)[N-]CCN1CCOCC1 (3D coordinates assigned)
Cc1ccc([N-]C(=O)Cn2c([O-])ccc2[O-])cc1C(=O)[N-]CCN1CCOCC1 (nonaromatic ring conformer: 96.92580839903547 kcal/mol)

>  <smiles>  (655) 
Cc1ccc(NC(=O)Cn2c(O)ccc2O)cc1C(=O)NCCN1CCOCC1

>  <score_type>  (655) 
oracle

>  <origin>  (655) 
adg

>  <m_score__min__energy>  (655) 
-15.51

>  <m_primary>  (655) 
energy

$$$$
92:0
     RDKit          3D

 35 38  0  0  0  0  0  0  0  0999 V2000
   58.6660   22.2150   44.8070 C   0  0  0  0  0  0  0  0  0  0  0  0
   57.8660   22.8190   45.8180 O   0  0  0  0  0  0  0  0  0  0  0  0
   56.5810   23.3440   45.6120 C   0  0  0  0  0  0  0  0  0  0  0  0
   55.5340   22.5500   45.1010 C   0  0  0  0  0  0  0  0  0  0  0  0
   54.2690   23.0950   44.8980 C   0  0  0  0  0  0  0  0  0  0  0  0
   54.0320   24.4390   45.1790 C   0  0  0  0  0  0  0  0  0  0  0  0
   55.0530   25.2420   45.6900 C   0  0  0  0  0  0  0  0  0  0  0  0
   54.7710   26.5690   45.9960 O   0  0  0  0  0  0  0  0  0  0  0  0
   56.3370   24.7020   45.9170 C   0  0  0  0  0  0  0  0  0  0  0  0
   57.4010   25.5330   46.5360 C   0  0  0  0  0  0  0  0  0  0  0  0
   57.3800   25.7440   47.7750 O   0  0  0  0  0  0  0  0  0  0  0  0
   58.4040   26.1870   45.7480 N   0  0  0  0  0  0  0  0  0  0  0  0
   58.3690   27.4270   45.3600 C   0  0  0  0  0  0  0  0  0  0  0  0
   59.4820   28.0880   44.9800 N   0  0  0  0  0  0  0  0  0  0  0  0
   59.2030   29.3470   44.5530 C   0  0  0  0  0  0  0  0  0  0  0  0
   57.8580   29.6940   44.5940 C   0  0  0  0  0  0  0  0  0  0  0  0
   57.2890   30.9710   44.0450 C   0  0  0  0  0  0  0  0  0  0  0  0
   57.7770   32.1820   44.7940 C   0  0  0  0  0  0  0  0  0  0  0  0
   57.7810   33.4460   44.1780 C   0  0  0  0  0  0  0  0  0  0  0  0
   58.2480   34.5630   44.8730 C   0  0  0  0  0  0  0  0  0  0  0  0
   58.6920   34.4380   46.1900 C   0  0  0  0  0  0  0  0  0  0  0  0
   58.6680   33.1870   46.8230 C   0  0  0  0  0  0  0  0  0  0  0  0
   59.0680   33.0590   48.2330 C   0  0  0  0  0  0  0  0  0  0  0  0
   58.1920   32.7090   49.0720 O   0  0  0  0  0  0  0  0  0  0  0  0
   60.4130   33.3630   48.6740 N   0  0  0  0  0  0  0  0  0  0  0  0
   61.4220   33.9020   47.7480 C   0  0  0  0  0  0  0  0  0  0  0  0
   62.8150   33.3810   48.1130 C   0  0  0  0  0  0  0  0  0  0  0  0
   63.1000   33.5370   49.5470 N   0  0  0  0  0  0  0  0  0  0  0  0
   64.4520   33.3340   50.0100 C   0  0  0  0  0  0  0  0  0  0  0  0
   64.9160   33.8380   51.3410 C   0  0  0  0  0  0  0  0  0  0  0  0
   65.2730   32.7070   49.2860 O   0  0  0  0  0  0  0  0  0  0  0  0
   62.0420   34.0070   50.4530 C   0  0  0  0  0  0  0  0  0  0  0  0
   60.7050   33.3320   50.1180 C   0  0  0  0  0  0  0  0  0  0  0  0
   58.2360   32.0560   46.1150 C   0  0  0  0  0  0  0  0  0  0  0  0
   56.9800   28.3690   45.1640 S   0  0  0  0  0  0  0  0  0  0  0  0
  1  2  1  0
  2  3  1  0
  3  4  2  0
  4  5  1  0
  5  6  2  0
  6  7  1  0
  7  8  1  0
  7  9  2  0
  9 10  1  0
 10 11  2  0
 10 12  1  0
 12 13  2  3
 13 14  1  0
 14 15  1  0
 15 16  2  0
 16 17  1  0
 17 18  1  0
 18 19  2  0
 19 20  1  0
 20 21  2  0
 21 22  1  0
 22 23  1  0
 23 24  2  0
 23 25  1  0
 25 26  1  0
 26 27  1  0
 27 28  1  0
 28 29  1  0
 29 30  1  0
 29 31  2  0
 28 32  1  0
 32 33  1  0
 22 34  2  0
 16 35  1  0
  9  3  1  0
 35 13  1  0
 34 18  1  0
 33 25  1  0
M  CHG  2   8  -1  14  -1
M  END
>  <UniqueID>  (656) 
85

>  <SMILES>  (656) 
COc1cccc([O-])c1C(=O)N=c1[n-]cc(Cc2cccc(C(=O)N3CCN(C(C)=O)CC3)c2)s1

>  <Energy>  (656) 
106.42940455277751

>  <Genealogy>  (656) 
COc1cccc([O-])c1C(=O)N=c1[n-]cc(Cc2cccc(C(=O)N3CCN(C(C)=O)CC3)c2)s1 (protonated)
COc1cccc([O-])c1C(=O)N=c1[n-]cc(Cc2cccc(C(=O)N3CCN(C(C)=O)CC3)c2)s1 (3D coordinates assigned)
COc1cccc([O-])c1C(=O)N=c1[n-]cc(Cc2cccc(C(=O)N3CCN(C(C)=O)CC3)c2)s1 (nonaromatic ring conformer: 106.42940455277751 kcal/mol)

>  <smiles>  (656) 
COc1cccc(O)c1C(=O)N=c1[nH]cc(Cc2cccc(C(=O)N3CCN(C(C)=O)CC3)c2)s1

>  <score_type>  (656) 
oracle

>  <origin>  (656) 
adg

>  <m_score__min__energy>  (656) 
-14.4

>  <m_primary>  (656) 
energy

$$$$
94:0
     RDKit          3D

 28 30  0  0  0  0  0  0  0  0999 V2000
   57.0150   33.6150   44.5680 O   0  0  0  0  0  0  0  0  0  0  0  0
   58.1620   33.6210   45.3620 C   0  0  0  0  0  0  0  0  0  0  0  0
   58.9540   34.7730   45.3800 C   0  0  0  0  0  0  0  0  0  0  0  0
   60.0850   34.8380   46.1960 C   0  0  0  0  0  0  0  0  0  0  0  0
   60.4290   33.7550   47.0040 C   0  0  0  0  0  0  0  0  0  0  0  0
   59.6470   32.5880   46.9990 C   0  0  0  0  0  0  0  0  0  0  0  0
   60.0500   31.4140   47.8490 C   0  0  0  0  0  0  0  0  0  0  0  0
   58.5230   32.5080   46.1520 C   0  0  0  0  0  0  0  0  0  0  0  0
   57.7580   31.3000   46.1050 N   0  0  0  0  0  0  0  0  0  0  0  0
   57.2060   30.6200   44.6110 S   0  0  0  0  0  0  0  0  0  0  0  0
   57.9210   31.2810   43.4670 O   0  0  0  0  0  0  0  0  0  0  0  0
   55.7300   30.8610   44.4570 O   0  0  0  0  0  0  0  0  0  0  0  0
   57.5390   28.8910   44.5970 C   0  0  0  0  0  0  0  0  0  0  0  0
   57.7920   28.2480   43.3810 C   0  0  0  0  0  0  0  0  0  0  0  0
   58.0650   26.8790   43.3540 C   0  0  0  0  0  0  0  0  0  0  0  0
   58.0900   26.1440   44.5420 C   0  0  0  0  0  0  0  0  0  0  0  0
   57.8430   26.7750   45.7770 C   0  0  0  0  0  0  0  0  0  0  0  0
   57.8760   25.9990   47.0400 C   0  0  0  0  0  0  0  0  0  0  0  0
   58.8980   26.0500   47.7780 O   0  0  0  0  0  0  0  0  0  0  0  0
   56.7410   25.1970   47.4160 N   0  0  0  0  0  0  0  0  0  0  0  0
   55.9780   24.4940   46.6290 C   0  0  0  0  0  0  0  0  0  0  0  0
   56.1390   23.1450   46.5080 N   0  0  0  0  0  0  0  0  0  0  0  0
   55.3530   22.3930   45.6910 C   0  0  0  0  0  0  0  0  0  0  0  0
   54.3420   23.0000   44.9440 C   0  0  0  0  0  0  0  0  0  0  0  0
   54.1520   24.3790   45.0460 C   0  0  0  0  0  0  0  0  0  0  0  0
   54.9700   25.1330   45.8920 C   0  0  0  0  0  0  0  0  0  0  0  0
   54.7780   26.5080   45.9940 O   0  0  0  0  0  0  0  0  0  0  0  0
   57.5670   28.1560   45.7910 C   0  0  0  0  0  0  0  0  0  0  0  0
  1  2  1  0
  2  3  2  0
  3  4  1  0
  4  5  2  0
  5  6  1  0
  6  7  1  0
  6  8  2  0
  8  9  1  0
  9 10  1  0
 10 11  2  0
 10 12  2  0
 10 13  1  0
 13 14  2  0
 14 15  1  0
 15 16  2  0
 16 17  1  0
 17 18  1  0
 18 19  2  0
 18 20  1  0
 20 21  2  0
 21 22  1  0
 22 23  1  0
 23 24  2  0
 24 25  1  0
 25 26  2  0
 26 27  1  0
 17 28  2  0
  8  2  1  0
 28 13  1  0
 26 21  1  0
M  CHG  3   9  -1  22  -1  27  -1
M  END
>  <UniqueID>  (657) 
87

>  <SMILES>  (657) 
Cc1cccc(O)c1[N-]S(=O)(=O)c1cccc(C(=O)/N=c2\[n-]cccc2[O-])c1

>  <Energy>  (657) 
59.81747623010763

>  <Genealogy>  (657) 
Cc1cccc(O)c1[N-]S(=O)(=O)c1cccc(C(=O)N=c2[n-]cccc2[O-])c1 (protonated)
Cc1cccc(O)c1[N-]S(=O)(=O)c1cccc(C(=O)/N=c2\[n-]cccc2[O-])c1 (cis-trans isomerization)
Cc1cccc(O)c1[N-]S(=O)(=O)c1cccc(C(=O)/N=c2\[n-]cccc2[O-])c1 (3D coordinates assigned)
Cc1cccc(O)c1[N-]S(=O)(=O)c1cccc(C(=O)/N=c2\[n-]cccc2[O-])c1 (optimized conformer: 59.81747623010763 kcal/mol)

>  <smiles>  (657) 
Cc1cccc(O)c1NS(=O)(=O)c1cccc(C(=O)N=c2[nH]cccc2O)c1

>  <score_type>  (657) 
oracle

>  <origin>  (657) 
adg

>  <m_score__min__energy>  (657) 
-14.529999999999999

>  <m_primary>  (657) 
energy

$$$$
41:0
     RDKit          3D

 24 26  0  0  0  0  0  0  0  0999 V2000
   57.2430   25.1640   46.2580 O   0  0  0  0  0  0  0  0  0  0  0  0
   57.9620   26.1980   46.2490 C   0  0  0  0  0  0  0  0  0  0  0  0
   59.2810   26.1320   46.8010 N   0  0  0  0  0  0  0  0  0  0  0  0
   59.6550   26.6870   48.0970 C   0  0  0  0  0  0  0  0  0  0  0  0
   59.7080   28.1840   47.9990 C   0  0  0  0  0  0  0  0  0  0  0  0
   58.8510   28.9760   48.7790 C   0  0  0  0  0  0  0  0  0  0  0  0
   58.9230   30.3690   48.7120 C   0  0  0  0  0  0  0  0  0  0  0  0
   59.8650   30.9910   47.8770 C   0  0  0  0  0  0  0  0  0  0  0  0
   59.9240   32.4920   47.7760 C   0  0  0  0  0  0  0  0  0  0  0  0
   59.5440   32.9300   46.4190 N   0  0  0  0  0  0  0  0  0  0  0  0
   58.0990   32.8460   46.1830 C   0  0  0  0  0  0  0  0  0  0  0  0
   57.7660   33.8850   45.1240 C   0  0  0  0  0  0  0  0  0  0  0  0
   58.9430   34.8460   45.1150 C   0  0  0  0  0  0  0  0  0  0  0  0
   59.8890   34.3350   46.1910 C   0  0  0  0  0  0  0  0  0  0  0  0
   60.7260   30.2000   47.1020 C   0  0  0  0  0  0  0  0  0  0  0  0
   60.6550   28.8060   47.1690 C   0  0  0  0  0  0  0  0  0  0  0  0
   57.4120   27.4510   45.7000 C   0  0  0  0  0  0  0  0  0  0  0  0
   58.2800   28.4660   45.2790 C   0  0  0  0  0  0  0  0  0  0  0  0
   57.7640   29.6540   44.7580 C   0  0  0  0  0  0  0  0  0  0  0  0
   56.3780   29.8200   44.6750 C   0  0  0  0  0  0  0  0  0  0  0  0
   55.8960   30.8830   44.2040 O   0  0  0  0  0  0  0  0  0  0  0  0
   55.5490   28.8350   45.1090 N   0  0  0  0  0  0  0  0  0  0  0  0
   56.0250   27.6680   45.6210 C   0  0  0  0  0  0  0  0  0  0  0  0
   55.1290   26.7100   46.0820 O   0  0  0  0  0  0  0  0  0  0  0  0
  1  2  2  0
  2  3  1  0
  3  4  1  0
  4  5  1  0
  5  6  2  0
  6  7  1  0
  7  8  2  0
  8  9  1  0
  9 10  1  0
 10 11  1  0
 11 12  1  0
 12 13  1  0
 13 14  1  0
  8 15  1  0
 15 16  2  0
  2 17  1  0
 17 18  1  0
 18 19  2  0
 19 20  1  0
 20 21  2  0
 20 22  1  0
 22 23  1  0
 23 24  1  0
 16  5  1  0
 23 17  2  0
 14 10  1  0
M  CHG  3   3  -1  22  -1  24  -1
M  END
>  <UniqueID>  (658) 
37

>  <SMILES>  (658) 
O=C([N-]Cc1ccc(CN2CCCC2)cc1)c1ccc(=O)[n-]c1[O-]

>  <Energy>  (658) 
50.331797784880585

>  <Genealogy>  (658) 
O=C([N-]Cc1ccc(CN2CCCC2)cc1)c1ccc(=O)[n-]c1[O-] (protonated)
O=C([N-]Cc1ccc(CN2CCCC2)cc1)c1ccc(=O)[n-]c1[O-] (3D coordinates assigned)
O=C([N-]Cc1ccc(CN2CCCC2)cc1)c1ccc(=O)[n-]c1[O-] (nonaromatic ring conformer: 50.331797784880585 kcal/mol)

>  <smiles>  (658) 
O=C(NCc1ccc(CN2CCCC2)cc1)c1ccc(=O)[nH]c1O

>  <score_type>  (658) 
oracle

>  <origin>  (658) 
adg

>  <m_score__min__energy>  (658) 
-14.800000000000001

>  <m_primary>  (658) 
energy

$$$$
67:0
     RDKit          3D

 31 34  0  0  0  0  0  0  0  0999 V2000
   57.2440   28.5840   43.8310 O   0  0  0  0  0  0  0  0  0  0  0  0
   57.0580   29.0540   44.9840 C   0  0  0  0  0  0  0  0  0  0  0  0
   57.4670   28.2320   46.1770 C   0  0  0  0  0  0  0  0  0  0  0  0
   57.2920   26.8100   45.8860 N   0  0  0  0  0  0  0  0  0  0  0  0
   58.2720   25.9010   45.6850 C   0  0  0  0  0  0  0  0  0  0  0  0
   59.6320   26.1990   45.6950 O   0  0  0  0  0  0  0  0  0  0  0  0
   57.7300   24.6460   45.4860 C   0  0  0  0  0  0  0  0  0  0  0  0
   56.3660   24.7840   45.6190 C   0  0  0  0  0  0  0  0  0  0  0  0
   56.1270   26.1260   45.8430 C   0  0  0  0  0  0  0  0  0  0  0  0
   54.8720   26.7040   45.9970 O   0  0  0  0  0  0  0  0  0  0  0  0
   55.3860   23.6660   45.4240 C   0  0  0  0  0  0  0  0  0  0  0  0
   56.0990   22.3010   45.5220 C   0  0  0  0  0  0  0  0  0  0  0  0
   57.4330   22.2870   44.7400 C   0  0  0  0  0  0  0  0  0  0  0  0
   58.4260   23.3350   45.2820 C   0  0  0  0  0  0  0  0  0  0  0  0
   56.6140   30.4100   45.1150 N   0  0  0  0  0  0  0  0  0  0  0  0
   57.4540   31.5560   45.2970 C   0  0  0  0  0  0  0  0  0  0  0  0
   57.4670   32.5530   44.3150 C   0  0  0  0  0  0  0  0  0  0  0  0
   58.2560   33.6940   44.4800 C   0  0  0  0  0  0  0  0  0  0  0  0
   59.0290   33.8590   45.6350 C   0  0  0  0  0  0  0  0  0  0  0  0
   59.7960   35.0090   45.7770 O   0  0  0  0  0  0  0  0  0  0  0  0
   59.0110   32.8700   46.6380 C   0  0  0  0  0  0  0  0  0  0  0  0
   59.9500   33.0360   48.1270 S   0  0  0  0  0  0  0  0  0  0  0  0
   60.2060   31.6880   48.7460 O   0  0  0  0  0  0  0  0  0  0  0  0
   59.1530   33.8620   49.1000 O   0  0  0  0  0  0  0  0  0  0  0  0
   61.4660   33.8400   47.7880 N   0  0  0  0  0  0  0  0  0  0  0  0
   62.2310   33.0790   46.7820 C   0  0  0  0  0  0  0  0  0  0  0  0
   63.7170   33.4800   46.8140 C   0  0  0  0  0  0  0  0  0  0  0  0
   64.3550   33.2910   48.0720 O   0  0  0  0  0  0  0  0  0  0  0  0
   63.4520   33.1600   49.1590 C   0  0  0  0  0  0  0  0  0  0  0  0
   62.2310   34.0890   49.0320 C   0  0  0  0  0  0  0  0  0  0  0  0
   58.2030   31.7350   46.4710 C   0  0  0  0  0  0  0  0  0  0  0  0
  1  2  2  0
  2  3  1  0
  3  4  1  0
  4  5  1  0
  5  6  1  0
  5  7  2  0
  7  8  1  0
  8  9  2  0
  9 10  1  0
  8 11  1  0
 11 12  1  0
 12 13  1  0
 13 14  1  0
  2 15  1  0
 15 16  1  0
 16 17  2  0
 17 18  1  0
 18 19  2  0
 19 20  1  0
 19 21  1  0
 21 22  1  0
 22 23  2  0
 22 24  2  0
 22 25  1  0
 25 26  1  0
 26 27  1  0
 27 28  1  0
 28 29  1  0
 29 30  1  0
 21 31  2  0
  9  4  1  0
 31 16  1  0
 14  7  1  0
 30 25  1  0
M  CHG  4   6  -1  10  -1  15  -1  20  -1
M  END
>  <UniqueID>  (659) 
61

>  <SMILES>  (659) 
O=C(Cn1c([O-])c2c(c1[O-])CCCC2)[N-]c1ccc([O-])c(S(=O)(=O)N2CCOCC2)c1

>  <Energy>  (659) 
99.80761335427754

>  <Genealogy>  (659) 
O=C(Cn1c([O-])c2c(c1[O-])CCCC2)[N-]c1ccc([O-])c(S(=O)(=O)N2CCOCC2)c1 (protonated)
O=C(Cn1c([O-])c2c(c1[O-])CCCC2)[N-]c1ccc([O-])c(S(=O)(=O)N2CCOCC2)c1 (3D coordinates assigned)
O=C(Cn1c([O-])c2c(c1[O-])CCCC2)[N-]c1ccc([O-])c(S(=O)(=O)N2CCOCC2)c1 (nonaromatic ring conformer: 99.80761335427754 kcal/mol)

>  <smiles>  (659) 
O=C(Cn1c(O)c2c(c1O)CCCC2)Nc1ccc(O)c(S(=O)(=O)N2CCOCC2)c1

>  <score_type>  (659) 
oracle

>  <origin>  (659) 
adg

>  <m_score__min__energy>  (659) 
-16.02

>  <m_primary>  (659) 
energy

$$$$
35:0
     RDKit          3D

 27 29  0  0  0  0  0  0  0  0999 V2000
   54.0350   24.8640   45.3550 O   0  0  0  0  0  0  0  0  0  0  0  0
   55.0620   25.2900   45.9500 C   0  0  0  0  0  0  0  0  0  0  0  0
   55.9980   24.3210   46.5980 C   0  0  0  0  0  0  0  0  0  0  0  0
   55.8450   22.9290   45.9790 C   0  0  0  0  0  0  0  0  0  0  0  0
   57.0680   22.5610   45.2450 N   0  0  0  0  0  0  0  0  0  0  0  0
   58.2850   22.8960   45.7700 C   0  0  0  0  0  0  0  0  0  0  0  0
   59.4610   22.5390   45.1140 C   0  0  0  0  0  0  0  0  0  0  0  0
   59.3670   21.8250   43.9220 C   0  0  0  0  0  0  0  0  0  0  0  0
   60.4090   21.4830   43.3040 O   0  0  0  0  0  0  0  0  0  0  0  0
   58.1490   21.4930   43.4290 N   0  0  0  0  0  0  0  0  0  0  0  0
   57.0070   21.8460   44.0750 C   0  0  0  0  0  0  0  0  0  0  0  0
   55.8970   21.5060   43.5840 O   0  0  0  0  0  0  0  0  0  0  0  0
   55.2880   26.6970   46.0960 N   0  0  0  0  0  0  0  0  0  0  0  0
   56.4330   27.4120   45.6070 C   0  0  0  0  0  0  0  0  0  0  0  0
   57.6660   26.7520   45.5760 C   0  0  0  0  0  0  0  0  0  0  0  0
   58.8080   27.4050   45.1120 C   0  0  0  0  0  0  0  0  0  0  0  0
   58.7240   28.7220   44.6540 C   0  0  0  0  0  0  0  0  0  0  0  0
   57.4870   29.3870   44.6270 C   0  0  0  0  0  0  0  0  0  0  0  0
   57.4050   30.7730   44.1210 C   0  0  0  0  0  0  0  0  0  0  0  0
   57.1410   30.9620   42.9030 O   0  0  0  0  0  0  0  0  0  0  0  0
   57.6330   31.9050   44.9810 N   0  0  0  0  0  0  0  0  0  0  0  0
   57.4140   33.2730   44.5440 C   0  0  0  0  0  0  0  0  0  0  0  0
   57.8350   34.1500   45.7150 C   0  0  0  0  0  0  0  0  0  0  0  0
   58.7120   33.2660   46.5960 C   0  0  0  0  0  0  0  0  0  0  0  0
   58.3280   31.8320   46.2580 C   0  0  0  0  0  0  0  0  0  0  0  0
   56.3350   28.7260   45.1020 C   0  0  0  0  0  0  0  0  0  0  0  0
   55.0970   29.3590   45.0220 O   0  0  0  0  0  0  0  0  0  0  0  0
  1  2  2  0
  2  3  1  0
  3  4  1  0
  4  5  1  0
  5  6  1  0
  6  7  2  0
  7  8  1  0
  8  9  2  0
  8 10  1  0
 10 11  1  0
 11 12  2  0
  2 13  1  0
 13 14  1  0
 14 15  2  0
 15 16  1  0
 16 17  2  0
 17 18  1  0
 18 19  1  0
 19 20  2  0
 19 21  1  0
 21 22  1  0
 22 23  1  0
 23 24  1  0
 24 25  1  0
 18 26  2  0
 26 27  1  0
 11  5  1  0
 26 14  1  0
 25 21  1  0
M  CHG  3  10  -1  13  -1  27  -1
M  END
>  <UniqueID>  (660) 
34

>  <SMILES>  (660) 
O=C(CCn1ccc(=O)[n-]c1=O)[N-]c1cccc(C(=O)N2CCCC2)c1[O-]

>  <Energy>  (660) 
54.824331885505565

>  <Genealogy>  (660) 
O=C(CCn1ccc(=O)[n-]c1=O)[N-]c1cccc(C(=O)N2CCCC2)c1[O-] (protonated)
O=C(CCn1ccc(=O)[n-]c1=O)[N-]c1cccc(C(=O)N2CCCC2)c1[O-] (3D coordinates assigned)
O=C(CCn1ccc(=O)[n-]c1=O)[N-]c1cccc(C(=O)N2CCCC2)c1[O-] (nonaromatic ring conformer: 54.824331885505565 kcal/mol)

>  <smiles>  (660) 
O=C(CCn1ccc(=O)[nH]c1=O)Nc1cccc(C(=O)N2CCCC2)c1O

>  <score_type>  (660) 
oracle

>  <origin>  (660) 
adg

>  <m_score__min__energy>  (660) 
-15.67

>  <m_primary>  (660) 
energy

$$$$
74:0
     RDKit          3D

 21 22  0  0  0  0  0  0  0  0999 V2000
   55.0850   29.4870   44.5770 N   0  0  0  0  0  0  0  0  0  0  0  0
   56.5540   30.3930   44.4630 S   0  0  0  0  0  0  0  0  0  0  0  0
   57.0370   30.3470   43.0400 O   0  0  0  0  0  0  0  0  0  0  0  0
   56.2780   31.8160   44.8550 O   0  0  0  0  0  0  0  0  0  0  0  0
   57.7960   29.7230   45.5300 C   0  0  0  0  0  0  0  0  0  0  0  0
   57.7680   28.3570   45.8580 C   0  0  0  0  0  0  0  0  0  0  0  0
   58.7380   27.7990   46.7100 C   0  0  0  0  0  0  0  0  0  0  0  0
   58.6930   26.3530   47.0520 C   0  0  0  0  0  0  0  0  0  0  0  0
   59.7610   25.6850   47.0950 O   0  0  0  0  0  0  0  0  0  0  0  0
   57.4640   25.7110   47.4140 N   0  0  0  0  0  0  0  0  0  0  0  0
   56.7080   24.9460   46.6740 C   0  0  0  0  0  0  0  0  0  0  0  0
   57.0730   23.6410   46.5320 N   0  0  0  0  0  0  0  0  0  0  0  0
   56.3530   22.7560   45.7940 C   0  0  0  0  0  0  0  0  0  0  0  0
   55.1920   23.1690   45.1450 C   0  0  0  0  0  0  0  0  0  0  0  0
   54.7920   24.5000   45.2490 C   0  0  0  0  0  0  0  0  0  0  0  0
   55.5460   25.4060   46.0000 C   0  0  0  0  0  0  0  0  0  0  0  0
   55.1440   26.7360   46.0320 O   0  0  0  0  0  0  0  0  0  0  0  0
   59.7470   28.6280   47.2280 C   0  0  0  0  0  0  0  0  0  0  0  0
   59.7770   29.9870   46.9100 C   0  0  0  0  0  0  0  0  0  0  0  0
   58.8090   30.5410   46.0680 C   0  0  0  0  0  0  0  0  0  0  0  0
   58.8990   32.2650   45.7190 Cl  0  0  0  0  0  0  0  0  0  0  0  0
  1  2  1  0
  2  3  2  0
  2  4  2  0
  2  5  1  0
  5  6  2  0
  6  7  1  0
  7  8  1  0
  8  9  2  0
  8 10  1  0
 10 11  2  0
 11 12  1  0
 12 13  1  0
 13 14  2  0
 14 15  1  0
 15 16  2  0
 16 17  1  0
  7 18  2  0
 18 19  1  0
 19 20  2  0
 20 21  1  0
 20  5  1  0
 16 11  1  0
M  CHG  3   1  -1  12  -1  17  -1
M  END
>  <UniqueID>  (661) 
68

>  <SMILES>  (661) 
[NH-]S(=O)(=O)c1cc(C(=O)/N=c2/[n-]cccc2[O-])ccc1Cl

>  <Energy>  (661) 
45.14363959261914

>  <Genealogy>  (661) 
[NH-]S(=O)(=O)c1cc(C(=O)N=c2[n-]cccc2[O-])ccc1Cl (protonated)
[NH-]S(=O)(=O)c1cc(C(=O)/N=c2/[n-]cccc2[O-])ccc1Cl (cis-trans isomerization)
[NH-]S(=O)(=O)c1cc(C(=O)/N=c2/[n-]cccc2[O-])ccc1Cl (3D coordinates assigned)
[NH-]S(=O)(=O)c1cc(C(=O)/N=c2/[n-]cccc2[O-])ccc1Cl (optimized conformer: 45.14363959261914 kcal/mol)

>  <smiles>  (661) 
NS(=O)(=O)c1cc(C(=O)N=c2[nH]cccc2O)ccc1Cl

>  <score_type>  (661) 
oracle

>  <origin>  (661) 
adg

>  <m_score__min__energy>  (661) 
-14.83

>  <m_primary>  (661) 
energy

$$$$
27:0
     RDKit          3D

 30 32  0  0  0  0  0  0  0  0999 V2000
   59.8540   25.6760   46.3880 C   0  0  0  0  0  0  0  0  0  0  0  0
   58.6420   26.5120   46.0800 C   0  0  0  0  0  0  0  0  0  0  0  0
   58.8510   27.7530   45.5660 N   0  0  0  0  0  0  0  0  0  0  0  0
   57.8350   28.5950   45.2550 C   0  0  0  0  0  0  0  0  0  0  0  0
   58.1570   29.9350   44.7040 C   0  0  0  0  0  0  0  0  0  0  0  0
   59.2850   30.1540   44.1840 O   0  0  0  0  0  0  0  0  0  0  0  0
   57.1860   30.9930   44.7570 N   0  0  0  0  0  0  0  0  0  0  0  0
   57.4230   32.3030   44.1520 C   0  0  0  0  0  0  0  0  0  0  0  0
   58.0960   33.2180   45.1380 C   0  0  0  0  0  0  0  0  0  0  0  0
   58.9450   34.2390   44.6830 C   0  0  0  0  0  0  0  0  0  0  0  0
   59.5910   35.0790   45.5960 C   0  0  0  0  0  0  0  0  0  0  0  0
   59.3960   34.9020   46.9680 C   0  0  0  0  0  0  0  0  0  0  0  0
   58.5560   33.8840   47.4290 C   0  0  0  0  0  0  0  0  0  0  0  0
   57.9090   33.0430   46.5200 C   0  0  0  0  0  0  0  0  0  0  0  0
   56.5170   28.1670   45.4710 C   0  0  0  0  0  0  0  0  0  0  0  0
   55.4300   28.9840   45.1760 O   0  0  0  0  0  0  0  0  0  0  0  0
   56.3000   26.8890   45.9960 C   0  0  0  0  0  0  0  0  0  0  0  0
   55.1130   26.5070   46.1940 O   0  0  0  0  0  0  0  0  0  0  0  0
   57.3570   26.0630   46.2930 N   0  0  0  0  0  0  0  0  0  0  0  0
   57.0790   24.7210   46.8540 C   0  0  0  0  0  0  0  0  0  0  0  0
   57.0970   23.6420   45.7810 C   0  0  0  0  0  0  0  0  0  0  0  0
   58.3100   23.3410   45.1280 C   0  0  0  0  0  0  0  0  0  0  0  0
   58.3620   22.3700   44.1270 C   0  0  0  0  0  0  0  0  0  0  0  0
   57.2050   21.6980   43.7460 C   0  0  0  0  0  0  0  0  0  0  0  0
   55.9880   22.0020   44.3530 C   0  0  0  0  0  0  0  0  0  0  0  0
   55.9100   22.9810   45.3590 C   0  0  0  0  0  0  0  0  0  0  0  0
   54.3210   23.3480   46.0520 S   0  0  0  0  0  0  0  0  0  0  0  0
   53.6560   24.7430   45.2780 N   0  0  0  0  0  0  0  0  0  0  0  0
   54.4450   23.6250   47.5250 O   0  0  0  0  0  0  0  0  0  0  0  0
   53.4020   22.1750   45.8650 O   0  0  0  0  0  0  0  0  0  0  0  0
  1  2  1  0
  2  3  2  0
  3  4  1  0
  4  5  1  0
  5  6  2  0
  5  7  1  0
  7  8  1  0
  8  9  1  0
  9 10  2  0
 10 11  1  0
 11 12  2  0
 12 13  1  0
 13 14  2  0
  4 15  2  0
 15 16  1  0
 15 17  1  0
 17 18  2  0
 17 19  1  0
 19 20  1  0
 20 21  1  0
 21 22  2  0
 22 23  1  0
 23 24  2  0
 24 25  1  0
 25 26  2  0
 26 27  1  0
 27 28  1  0
 27 29  2  0
 27 30  2  0
 19  2  1  0
 26 21  1  0
 14  9  1  0
M  CHG  2  16  -1  28  -1
M  END
>  <UniqueID>  (662) 
26

>  <SMILES>  (662) 
Cc1nc(C(=O)NCc2ccccc2)c([O-])c(=O)n1Cc1ccccc1S([NH-])(=O)=O

>  <Energy>  (662) 
57.49538343325953

>  <Genealogy>  (662) 
Cc1nc(C(=O)NCc2ccccc2)c([O-])c(=O)n1Cc1ccccc1S([NH-])(=O)=O (protonated)
Cc1nc(C(=O)NCc2ccccc2)c([O-])c(=O)n1Cc1ccccc1S([NH-])(=O)=O (3D coordinates assigned)
Cc1nc(C(=O)NCc2ccccc2)c([O-])c(=O)n1Cc1ccccc1S([NH-])(=O)=O (optimized conformer: 57.49538343325953 kcal/mol)

>  <smiles>  (662) 
Cc1nc(C(=O)NCc2ccccc2)c(O)c(=O)n1Cc1ccccc1S(N)(=O)=O

>  <score_type>  (662) 
oracle

>  <origin>  (662) 
adg

>  <m_score__min__energy>  (662) 
-14.390000000000001

>  <m_primary>  (662) 
energy

$$$$
34:0
     RDKit          3D

 30 32  0  0  0  0  0  0  0  0999 V2000
   55.1630   29.4350   44.8570 O   0  0  0  0  0  0  0  0  0  0  0  0
   56.1650   29.9900   44.3320 C   0  0  0  0  0  0  0  0  0  0  0  0
   57.0390   29.1890   43.4150 C   0  0  0  0  0  0  0  0  0  0  0  0
   58.1110   28.6190   44.1570 O   0  0  0  0  0  0  0  0  0  0  0  0
   58.2960   27.2390   44.2750 C   0  0  0  0  0  0  0  0  0  0  0  0
   57.9670   26.4620   43.3370 O   0  0  0  0  0  0  0  0  0  0  0  0
   58.9280   26.6860   45.5090 C   0  0  0  0  0  0  0  0  0  0  0  0
   58.0780   26.9960   46.6980 C   0  0  0  0  0  0  0  0  0  0  0  0
   58.3500   27.9950   47.4170 O   0  0  0  0  0  0  0  0  0  0  0  0
   57.0230   26.1000   47.0640 N   0  0  0  0  0  0  0  0  0  0  0  0
   56.4510   25.0960   46.2150 C   0  0  0  0  0  0  0  0  0  0  0  0
   57.2400   23.9940   45.8560 C   0  0  0  0  0  0  0  0  0  0  0  0
   56.7220   22.9940   45.0270 C   0  0  0  0  0  0  0  0  0  0  0  0
   55.4190   23.0970   44.5370 C   0  0  0  0  0  0  0  0  0  0  0  0
   54.6350   24.2070   44.8620 C   0  0  0  0  0  0  0  0  0  0  0  0
   55.1480   25.2140   45.6870 C   0  0  0  0  0  0  0  0  0  0  0  0
   54.3700   26.3390   45.9430 O   0  0  0  0  0  0  0  0  0  0  0  0
   56.4650   31.3480   44.6800 N   0  0  0  0  0  0  0  0  0  0  0  0
   57.6350   31.8160   45.3670 C   0  0  0  0  0  0  0  0  0  0  0  0
   58.5370   30.8840   45.8780 C   0  0  0  0  0  0  0  0  0  0  0  0
   59.6730   31.3020   46.5770 C   0  0  0  0  0  0  0  0  0  0  0  0
   59.9290   32.6760   46.8010 C   0  0  0  0  0  0  0  0  0  0  0  0
   61.1150   33.1170   47.5320 N   0  0  0  0  0  0  0  0  0  0  0  0
   60.9710   34.1320   48.5980 C   0  0  0  0  0  0  0  0  0  0  0  0
   62.2790   34.4360   49.3340 C   0  0  0  0  0  0  0  0  0  0  0  0
   63.3670   34.4500   48.4410 O   0  0  0  0  0  0  0  0  0  0  0  0
   63.5910   33.1330   47.9970 C   0  0  0  0  0  0  0  0  0  0  0  0
   62.4490   32.6550   47.0950 C   0  0  0  0  0  0  0  0  0  0  0  0
   58.9820   33.6040   46.3080 C   0  0  0  0  0  0  0  0  0  0  0  0
   57.8490   33.1790   45.6090 C   0  0  0  0  0  0  0  0  0  0  0  0
  1  2  2  0
  2  3  1  0
  3  4  1  0
  4  5  1  0
  5  6  2  0
  5  7  1  0
  7  8  1  0
  8  9  2  0
  8 10  1  0
 10 11  1  0
 11 12  2  0
 12 13  1  0
 13 14  2  0
 14 15  1  0
 15 16  2  0
 16 17  1  0
  2 18  1  0
 18 19  1  0
 19 20  2  0
 20 21  1  0
 21 22  2  0
 22 23  1  0
 23 24  1  0
 24 25  1  0
 25 26  1  0
 26 27  1  0
 27 28  1  0
 22 29  1  0
 29 30  2  0
 16 11  1  0
 30 19  1  0
 28 23  1  0
M  CHG  3  10  -1  17  -1  18  -1
M  END
>  <UniqueID>  (663) 
33

>  <SMILES>  (663) 
O=C(COC(=O)CC(=O)[N-]c1ccccc1[O-])[N-]c1ccc(N2CCOCC2)cc1

>  <Energy>  (663) 
63.68097512615774

>  <Genealogy>  (663) 
O=C(COC(=O)CC(=O)[N-]c1ccccc1[O-])[N-]c1ccc(N2CCOCC2)cc1 (protonated)
O=C(COC(=O)CC(=O)[N-]c1ccccc1[O-])[N-]c1ccc(N2CCOCC2)cc1 (3D coordinates assigned)
O=C(COC(=O)CC(=O)[N-]c1ccccc1[O-])[N-]c1ccc(N2CCOCC2)cc1 (nonaromatic ring conformer: 63.68097512615774 kcal/mol)

>  <smiles>  (663) 
O=C(COC(=O)CC(=O)Nc1ccccc1O)Nc1ccc(N2CCOCC2)cc1

>  <score_type>  (663) 
oracle

>  <origin>  (663) 
adg

>  <m_score__min__energy>  (663) 
-15.26

>  <m_primary>  (663) 
energy

$$$$
65:0
     RDKit          3D

 36 39  0  0  0  0  0  0  0  0999 V2000
   58.3920   28.9540   47.0430 C   0  0  0  0  0  0  0  0  0  0  0  0
   58.1120   29.0150   45.7320 C   0  0  0  0  0  0  0  0  0  0  0  0
   57.8750   27.9340   44.8670 C   0  0  0  0  0  0  0  0  0  0  0  0
   58.0780   26.6120   45.0260 C   0  0  0  0  0  0  0  0  0  0  0  0
   57.3890   25.7510   46.0030 C   0  0  0  0  0  0  0  0  0  0  0  0
   57.9350   24.6720   46.5940 N   0  0  0  0  0  0  0  0  0  0  0  0
   56.9020   24.1380   47.2820 C   0  0  0  0  0  0  0  0  0  0  0  0
   57.0210   23.1040   47.9890 O   0  0  0  0  0  0  0  0  0  0  0  0
   55.7290   24.7920   47.1420 N   0  0  0  0  0  0  0  0  0  0  0  0
   56.0540   25.8020   46.3180 C   0  0  0  0  0  0  0  0  0  0  0  0
   55.1460   26.7470   45.8590 O   0  0  0  0  0  0  0  0  0  0  0  0
   57.3590   28.4770   43.7010 C   0  0  0  0  0  0  0  0  0  0  0  0
   57.3730   29.8470   43.8580 C   0  0  0  0  0  0  0  0  0  0  0  0
   56.9040   30.8260   42.8240 C   0  0  0  0  0  0  0  0  0  0  0  0
   57.8310   30.1760   45.0860 N   0  0  0  0  0  0  0  0  0  0  0  0
   57.9350   31.5100   45.6150 C   0  0  0  0  0  0  0  0  0  0  0  0
   57.0640   32.5150   45.1700 C   0  0  0  0  0  0  0  0  0  0  0  0
   57.1700   33.8120   45.6780 C   0  0  0  0  0  0  0  0  0  0  0  0
   58.1460   34.1140   46.6310 C   0  0  0  0  0  0  0  0  0  0  0  0
   59.0200   33.1160   47.0840 C   0  0  0  0  0  0  0  0  0  0  0  0
   60.2890   33.4880   48.2490 S   0  0  0  0  0  0  0  0  0  0  0  0
   59.9420   34.7280   49.0250 O   0  0  0  0  0  0  0  0  0  0  0  0
   60.4180   32.3420   49.2110 O   0  0  0  0  0  0  0  0  0  0  0  0
   61.8040   33.7230   47.4290 N   0  0  0  0  0  0  0  0  0  0  0  0
   62.7540   32.6880   47.8400 C   0  0  0  0  0  0  0  0  0  0  0  0
   63.5060   33.1450   49.0590 C   0  0  0  0  0  0  0  0  0  0  0  0
   62.9090   34.0360   49.9630 C   0  0  0  0  0  0  0  0  0  0  0  0
   63.5870   34.4190   51.1220 C   0  0  0  0  0  0  0  0  0  0  0  0
   64.8630   33.9170   51.3890 C   0  0  0  0  0  0  0  0  0  0  0  0
   65.4830   33.0330   50.4890 C   0  0  0  0  0  0  0  0  0  0  0  0
   66.8340   32.4420   50.8020 C   0  0  0  0  0  0  0  0  0  0  0  0
   67.8310   33.1220   50.1250 F   0  0  0  0  0  0  0  0  0  0  0  0
   67.1020   32.5190   52.1580 F   0  0  0  0  0  0  0  0  0  0  0  0
   66.8510   31.1150   50.4150 F   0  0  0  0  0  0  0  0  0  0  0  0
   64.7820   32.6300   49.3370 C   0  0  0  0  0  0  0  0  0  0  0  0
   58.9120   31.8160   46.5740 C   0  0  0  0  0  0  0  0  0  0  0  0
  1  2  2  0
  2  3  1  0
  3  4  2  3
  4  5  1  0
  5  6  1  0
  6  7  1  0
  7  8  2  0
  7  9  1  0
  9 10  1  0
 10 11  1  0
  3 12  1  0
 12 13  2  0
 13 14  1  0
 13 15  1  0
 15 16  1  0
 16 17  2  0
 17 18  1  0
 18 19  2  0
 19 20  1  0
 20 21  1  0
 21 22  2  0
 21 23  2  0
 21 24  1  0
 24 25  1  0
 25 26  1  0
 26 27  2  0
 27 28  1  0
 28 29  2  0
 29 30  1  0
 30 31  1  0
 31 32  1  0
 31 33  1  0
 31 34  1  0
 30 35  2  0
 20 36  2  0
 15  2  1  0
 36 16  1  0
 10  5  2  0
 35 26  1  0
M  CHG  3   6  -1   9  -1  11  -1
M  END
>  <UniqueID>  (664) 
63

>  <SMILES>  (664) 
C=c1c(=Cc2[n-]c(=O)[n-]c2[O-])cc(C)n1-c1cccc(S(=O)(=O)NCc2cccc(C(F)(F)F)c2)c1

>  <Energy>  (664) 
129.6262519210991

>  <Genealogy>  (664) 
C=c1c(=Cc2[n-]c(=O)[n-]c2[O-])cc(C)n1-c1cccc(S(=O)(=O)NCc2cccc(C(F)(F)F)c2)c1 (protonated)
C=c1c(=Cc2[n-]c(=O)[n-]c2[O-])cc(C)n1-c1cccc(S(=O)(=O)NCc2cccc(C(F)(F)F)c2)c1 (3D coordinates assigned)
C=c1c(=Cc2[n-]c(=O)[n-]c2[O-])cc(C)n1-c1cccc(S(=O)(=O)NCc2cccc(C(F)(F)F)c2)c1 (optimized conformer: 129.6262519210991 kcal/mol)

>  <smiles>  (664) 
C=c1c(=Cc2[nH]c(=O)[nH]c2O)cc(C)n1-c1cccc(S(=O)(=O)NCc2cccc(C(F)(F)F)c2)c1

>  <score_type>  (664) 
oracle

>  <origin>  (664) 
adg

>  <m_score__min__energy>  (664) 
-17.670000000000002

>  <m_primary>  (664) 
energy

$$$$
67:0
     RDKit          3D

 27 28  0  0  0  0  0  0  0  0999 V2000
   58.1660   33.1770   52.0130 C   0  0  0  0  0  0  0  0  0  0  0  0
   59.0440   33.0810   50.9810 N   0  0  0  0  0  0  0  0  0  0  0  0
   59.1860   31.9430   50.2500 C   0  0  0  0  0  0  0  0  0  0  0  0
   60.0570   31.9360   49.2800 N   0  0  0  0  0  0  0  0  0  0  0  0
   59.8800   31.4190   47.9500 C   0  0  0  0  0  0  0  0  0  0  0  0
   60.3970   30.3070   47.6650 O   0  0  0  0  0  0  0  0  0  0  0  0
   59.0500   32.1210   46.9390 C   0  0  0  0  0  0  0  0  0  0  0  0
   58.5480   33.4100   47.1880 C   0  0  0  0  0  0  0  0  0  0  0  0
   57.8010   34.0790   46.2140 C   0  0  0  0  0  0  0  0  0  0  0  0
   57.5420   33.4680   44.9850 C   0  0  0  0  0  0  0  0  0  0  0  0
   58.0150   32.1720   44.7280 C   0  0  0  0  0  0  0  0  0  0  0  0
   57.7820   31.5230   43.3900 C   0  0  0  0  0  0  0  0  0  0  0  0
   57.3540   30.1410   43.5880 N   0  0  0  0  0  0  0  0  0  0  0  0
   56.1910   29.8190   44.3630 C   0  0  0  0  0  0  0  0  0  0  0  0
   55.1720   30.5560   44.3070 O   0  0  0  0  0  0  0  0  0  0  0  0
   56.1760   28.6800   45.2290 N   0  0  0  0  0  0  0  0  0  0  0  0
   57.3800   27.9660   45.6380 C   0  0  0  0  0  0  0  0  0  0  0  0
   57.1970   26.4630   45.4290 C   0  0  0  0  0  0  0  0  0  0  0  0
   56.0520   25.9400   46.2410 C   0  0  0  0  0  0  0  0  0  0  0  0
   56.2660   25.1710   47.2160 O   0  0  0  0  0  0  0  0  0  0  0  0
   54.7540   26.3410   45.9520 O   0  0  0  0  0  0  0  0  0  0  0  0
   58.7600   31.5010   45.7120 C   0  0  0  0  0  0  0  0  0  0  0  0
   58.3710   30.8290   50.5510 C   0  0  0  0  0  0  0  0  0  0  0  0
   57.4660   30.9000   51.6260 C   0  0  0  0  0  0  0  0  0  0  0  0
   56.6510   29.8200   51.9990 O   0  0  0  0  0  0  0  0  0  0  0  0
   55.4160   29.9480   52.6970 C   0  0  0  0  0  0  0  0  0  0  0  0
   57.3690   32.0860   52.3570 C   0  0  0  0  0  0  0  0  0  0  0  0
  1  2  1  0
  2  3  1  0
  3  4  2  0
  4  5  1  0
  5  6  2  0
  5  7  1  0
  7  8  2  0
  8  9  1  0
  9 10  2  0
 10 11  1  0
 11 12  1  0
 12 13  1  0
 13 14  1  0
 14 15  2  0
 14 16  1  0
 16 17  1  0
 17 18  1  0
 18 19  1  0
 19 20  2  0
 19 21  1  0
 11 22  2  0
  3 23  1  0
 23 24  2  0
 24 25  1  0
 25 26  1  0
 24 27  1  0
 27  1  2  0
 22  7  1  0
M  CHG  3   2  -1  16  -1  21  -1
M  END
>  <UniqueID>  (665) 
65

>  <SMILES>  (665) 
COc1cc[n-]/c(=N/C(=O)c2cccc(CNC(=O)[N-]CCC(=O)[O-])c2)c1

>  <Energy>  (665) 
46.315555024351106

>  <Genealogy>  (665) 
COc1cc[n-]c(=NC(=O)c2cccc(CNC(=O)[N-]CCC(=O)[O-])c2)c1 (protonated)
COc1cc[n-]/c(=N/C(=O)c2cccc(CNC(=O)[N-]CCC(=O)[O-])c2)c1 (cis-trans isomerization)
COc1cc[n-]/c(=N/C(=O)c2cccc(CNC(=O)[N-]CCC(=O)[O-])c2)c1 (3D coordinates assigned)
COc1cc[n-]/c(=N/C(=O)c2cccc(CNC(=O)[N-]CCC(=O)[O-])c2)c1 (optimized conformer: 46.315555024351106 kcal/mol)

>  <smiles>  (665) 
COc1cc[nH]c(=NC(=O)c2cccc(CNC(=O)NCCC(=O)O)c2)c1

>  <score_type>  (665) 
oracle

>  <origin>  (665) 
adg

>  <m_score__min__energy>  (665) 
-14.210000000000001

>  <m_primary>  (665) 
energy

$$$$
74:0
     RDKit          3D

 25 27  0  0  0  0  0  0  0  0999 V2000
   58.1850   32.6310   45.8050 O   0  0  0  0  0  0  0  0  0  0  0  0
   58.0640   31.3980   46.0350 C   0  0  0  0  0  0  0  0  0  0  0  0
   57.0980   30.7140   45.3730 N   0  0  0  0  0  0  0  0  0  0  0  0
   56.9130   29.3850   45.5500 C   0  0  0  0  0  0  0  0  0  0  0  0
   55.8820   28.7400   44.8730 O   0  0  0  0  0  0  0  0  0  0  0  0
   57.7500   28.6830   46.4210 C   0  0  0  0  0  0  0  0  0  0  0  0
   57.5850   27.2260   46.6420 C   0  0  0  0  0  0  0  0  0  0  0  0
   57.5980   26.2990   45.6700 C   0  0  0  0  0  0  0  0  0  0  0  0
   56.6370   25.1770   45.5520 C   0  0  0  0  0  0  0  0  0  0  0  0
   57.0800   23.8600   45.3250 C   0  0  0  0  0  0  0  0  0  0  0  0
   56.1630   22.8100   45.2350 C   0  0  0  0  0  0  0  0  0  0  0  0
   54.7970   23.0580   45.3900 C   0  0  0  0  0  0  0  0  0  0  0  0
   53.8870   22.0130   45.2990 O   0  0  0  0  0  0  0  0  0  0  0  0
   54.3480   24.3570   45.6410 C   0  0  0  0  0  0  0  0  0  0  0  0
   55.2610   25.4140   45.7290 C   0  0  0  0  0  0  0  0  0  0  0  0
   54.7920   26.6990   45.9810 O   0  0  0  0  0  0  0  0  0  0  0  0
   58.7290   29.4000   47.1290 C   0  0  0  0  0  0  0  0  0  0  0  0
   59.4710   28.7760   47.9390 O   0  0  0  0  0  0  0  0  0  0  0  0
   58.8880   30.7550   46.9330 N   0  0  0  0  0  0  0  0  0  0  0  0
   59.9400   31.5000   47.6810 C   0  0  0  0  0  0  0  0  0  0  0  0
   61.0620   32.0210   46.7410 C   0  0  0  0  0  0  0  0  0  0  0  0
   61.7110   33.3240   47.2430 C   0  0  0  0  0  0  0  0  0  0  0  0
   61.8040   33.3510   48.7730 C   0  0  0  0  0  0  0  0  0  0  0  0
   60.4150   33.2800   49.4430 C   0  0  0  0  0  0  0  0  0  0  0  0
   59.3380   32.6170   48.5610 C   0  0  0  0  0  0  0  0  0  0  0  0
  1  2  2  0
  2  3  1  0
  3  4  1  0
  4  5  1  0
  4  6  2  0
  6  7  1  0
  7  8  2  3
  8  9  1  0
  9 10  2  0
 10 11  1  0
 11 12  2  0
 12 13  1  0
 12 14  1  0
 14 15  2  0
 15 16  1  0
  6 17  1  0
 17 18  2  0
 17 19  1  0
 19 20  1  0
 20 21  1  0
 21 22  1  0
 22 23  1  0
 23 24  1  0
 24 25  1  0
 19  2  1  0
 25 20  1  0
 15  9  1  0
M  CHG  3   3  -1  13  -1  16  -1
M  END
>  <UniqueID>  (666) 
72

>  <SMILES>  (666) 
O=c1[n-]c(O)c(C=Cc2ccc([O-])cc2[O-])c(=O)n1C1CCCCC1

>  <Energy>  (666) 
65.70685647317862

>  <Genealogy>  (666) 
O=c1[n-]c(O)c(C=Cc2ccc([O-])cc2[O-])c(=O)n1C1CCCCC1 (protonated)
O=c1[n-]c(O)c(C=Cc2ccc([O-])cc2[O-])c(=O)n1C1CCCCC1 (3D coordinates assigned)
O=c1[n-]c(O)c(C=Cc2ccc([O-])cc2[O-])c(=O)n1C1CCCCC1 (nonaromatic ring conformer: 65.70685647317862 kcal/mol)

>  <smiles>  (666) 
O=c1[nH]c(O)c(C=Cc2ccc(O)cc2O)c(=O)n1C1CCCCC1

>  <score_type>  (666) 
oracle

>  <origin>  (666) 
adg

>  <m_score__min__energy>  (666) 
-16.199999999999999

>  <m_primary>  (666) 
energy

$$$$
81:0
     RDKit          3D

 28 30  0  0  0  0  0  0  0  0999 V2000
   64.6270   33.1150   48.6560 O   0  0  0  0  0  0  0  0  0  0  0  0
   63.3280   33.1140   48.1550 C   0  0  0  0  0  0  0  0  0  0  0  0
   62.2980   32.4570   48.8410 C   0  0  0  0  0  0  0  0  0  0  0  0
   60.9970   32.4600   48.3260 C   0  0  0  0  0  0  0  0  0  0  0  0
   60.7190   33.1060   47.1050 C   0  0  0  0  0  0  0  0  0  0  0  0
   59.3910   33.1600   46.5580 N   0  0  0  0  0  0  0  0  0  0  0  0
   58.8690   32.3330   45.6950 C   0  0  0  0  0  0  0  0  0  0  0  0
   58.6680   31.0270   46.0090 N   0  0  0  0  0  0  0  0  0  0  0  0
   58.1490   30.1420   45.1190 C   0  0  0  0  0  0  0  0  0  0  0  0
   57.9260   28.7390   45.5360 C   0  0  0  0  0  0  0  0  0  0  0  0
   59.0330   27.9380   45.8560 C   0  0  0  0  0  0  0  0  0  0  0  0
   58.8580   26.6140   46.2550 C   0  0  0  0  0  0  0  0  0  0  0  0
   57.5770   26.0660   46.3320 C   0  0  0  0  0  0  0  0  0  0  0  0
   56.4540   26.8420   45.9980 C   0  0  0  0  0  0  0  0  0  0  0  0
   55.1210   26.3100   46.0480 N   0  0  0  0  0  0  0  0  0  0  0  0
   54.6660   24.6700   45.7160 S   0  0  0  0  0  0  0  0  0  0  0  0
   53.1980   24.5960   45.4010 O   0  0  0  0  0  0  0  0  0  0  0  0
   54.9400   23.8370   46.9360 O   0  0  0  0  0  0  0  0  0  0  0  0
   55.6260   24.0290   44.3610 C   0  0  0  0  0  0  0  0  0  0  0  0
   56.6330   28.1730   45.5890 C   0  0  0  0  0  0  0  0  0  0  0  0
   55.5200   28.9200   45.2100 O   0  0  0  0  0  0  0  0  0  0  0  0
   57.7990   30.5990   43.8400 C   0  0  0  0  0  0  0  0  0  0  0  0
   58.0160   31.9030   43.4930 N   0  0  0  0  0  0  0  0  0  0  0  0
   57.6380   32.3690   42.1530 C   0  0  0  0  0  0  0  0  0  0  0  0
   58.5450   32.7800   44.4040 C   0  0  0  0  0  0  0  0  0  0  0  0
   58.7370   33.9890   44.0910 O   0  0  0  0  0  0  0  0  0  0  0  0
   61.7490   33.7860   46.4420 C   0  0  0  0  0  0  0  0  0  0  0  0
   63.0480   33.7810   46.9580 C   0  0  0  0  0  0  0  0  0  0  0  0
  1  2  1  0
  2  3  2  0
  3  4  1  0
  4  5  2  0
  5  6  1  0
  6  7  2  0
  7  8  1  0
  8  9  1  0
  9 10  1  0
 10 11  2  0
 11 12  1  0
 12 13  2  0
 13 14  1  0
 14 15  1  0
 15 16  1  0
 16 17  2  0
 16 18  2  0
 16 19  1  0
 14 20  2  0
 20 21  1  0
  9 22  2  0
 22 23  1  0
 23 24  1  0
 23 25  1  0
 25 26  2  0
  5 27  1  0
 27 28  2  0
 28  2  1  0
 25  7  1  0
 20 10  1  0
M  CHG  3   8  -1  15  -1  21  -1
M  END
>  <UniqueID>  (667) 
78

>  <SMILES>  (667) 
Cn1cc(-c2cccc([N-]S(C)(=O)=O)c2[O-])[n-]/c(=N\c2ccc(O)cc2)c1=O

>  <Energy>  (667) 
59.80739189466131

>  <Genealogy>  (667) 
Cn1cc(-c2cccc([N-]S(C)(=O)=O)c2[O-])[n-]c(=Nc2ccc(O)cc2)c1=O (protonated)
Cn1cc(-c2cccc([N-]S(C)(=O)=O)c2[O-])[n-]/c(=N\c2ccc(O)cc2)c1=O (cis-trans isomerization)
Cn1cc(-c2cccc([N-]S(C)(=O)=O)c2[O-])[n-]/c(=N\c2ccc(O)cc2)c1=O (3D coordinates assigned)
Cn1cc(-c2cccc([N-]S(C)(=O)=O)c2[O-])[n-]/c(=N\c2ccc(O)cc2)c1=O (optimized conformer: 59.80739189466131 kcal/mol)

>  <smiles>  (667) 
Cn1cc(-c2cccc(NS(C)(=O)=O)c2O)[nH]c(=Nc2ccc(O)cc2)c1=O

>  <score_type>  (667) 
oracle

>  <origin>  (667) 
adg

>  <m_score__min__energy>  (667) 
-15.44

>  <m_primary>  (667) 
energy

$$$$
92:0
     RDKit          3D

 27 29  0  0  0  0  0  0  0  0999 V2000
   59.0900   30.0250   47.2360 C   0  0  0  0  0  0  0  0  0  0  0  0
   58.4630   30.8880   46.4210 C   0  0  0  0  0  0  0  0  0  0  0  0
   57.9810   30.5930   45.1410 C   0  0  0  0  0  0  0  0  0  0  0  0
   57.9510   29.3920   44.5300 C   0  0  0  0  0  0  0  0  0  0  0  0
   57.4150   28.1680   45.1650 C   0  0  0  0  0  0  0  0  0  0  0  0
   56.0300   28.0080   45.3260 C   0  0  0  0  0  0  0  0  0  0  0  0
   55.1470   28.9760   44.8600 O   0  0  0  0  0  0  0  0  0  0  0  0
   55.5410   26.8960   45.9310 N   0  0  0  0  0  0  0  0  0  0  0  0
   56.3700   25.9310   46.4020 C   0  0  0  0  0  0  0  0  0  0  0  0
   55.8940   24.9070   46.9550 O   0  0  0  0  0  0  0  0  0  0  0  0
   57.7150   26.0730   46.2840 N   0  0  0  0  0  0  0  0  0  0  0  0
   58.2560   27.1680   45.6880 C   0  0  0  0  0  0  0  0  0  0  0  0
   59.5090   27.2820   45.6270 O   0  0  0  0  0  0  0  0  0  0  0  0
   57.5130   31.7870   44.6160 C   0  0  0  0  0  0  0  0  0  0  0  0
   57.7210   32.7520   45.5790 C   0  0  0  0  0  0  0  0  0  0  0  0
   57.4410   34.2120   45.3750 C   0  0  0  0  0  0  0  0  0  0  0  0
   58.2600   32.2060   46.6990 N   0  0  0  0  0  0  0  0  0  0  0  0
   58.6490   32.9510   47.9120 C   0  0  0  0  0  0  0  0  0  0  0  0
   60.1580   32.9300   48.1640 C   0  0  0  0  0  0  0  0  0  0  0  0
   61.0600   33.5560   47.2570 C   0  0  0  0  0  0  0  0  0  0  0  0
   60.5960   34.2100   45.9810 C   0  0  0  0  0  0  0  0  0  0  0  0
   62.4330   33.5900   47.5480 C   0  0  0  0  0  0  0  0  0  0  0  0
   62.9390   32.9790   48.6960 C   0  0  0  0  0  0  0  0  0  0  0  0
   64.4150   32.9900   48.9690 C   0  0  0  0  0  0  0  0  0  0  0  0
   62.0750   32.2830   49.5430 C   0  0  0  0  0  0  0  0  0  0  0  0
   60.6950   32.2380   49.2900 C   0  0  0  0  0  0  0  0  0  0  0  0
   59.8250   31.4520   50.2390 C   0  0  0  0  0  0  0  0  0  0  0  0
  1  2  2  0
  2  3  1  0
  3  4  2  0
  4  5  1  0
  5  6  2  0
  6  7  1  0
  6  8  1  0
  8  9  1  0
  9 10  2  0
  9 11  1  0
 11 12  1  0
 12 13  2  0
  3 14  1  0
 14 15  2  0
 15 16  1  0
 15 17  1  0
 17 18  1  0
 18 19  1  0
 19 20  2  0
 20 21  1  0
 20 22  1  0
 22 23  2  0
 23 24  1  0
 23 25  1  0
 25 26  2  0
 26 27  1  0
 17  2  1  0
 26 19  1  0
 12  5  1  0
M  CHG  3   7  -1   8  -1  11  -1
M  END
>  <UniqueID>  (668) 
88

>  <SMILES>  (668) 
C=c1/c(=C/c2c([O-])[n-]c(=O)[n-]c2=O)cc(C)n1Cc1c(C)cc(C)cc1C

>  <Energy>  (668) 
92.18050342975715

>  <Genealogy>  (668) 
C=c1c(=Cc2c([O-])[n-]c(=O)[n-]c2=O)cc(C)n1Cc1c(C)cc(C)cc1C (protonated)
C=c1/c(=C/c2c([O-])[n-]c(=O)[n-]c2=O)cc(C)n1Cc1c(C)cc(C)cc1C (cis-trans isomerization)
C=c1/c(=C/c2c([O-])[n-]c(=O)[n-]c2=O)cc(C)n1Cc1c(C)cc(C)cc1C (3D coordinates assigned)
C=c1/c(=C/c2c([O-])[n-]c(=O)[n-]c2=O)cc(C)n1Cc1c(C)cc(C)cc1C (optimized conformer: 92.18050342975715 kcal/mol)

>  <smiles>  (668) 
C=c1c(=Cc2c(O)[nH]c(=O)[nH]c2=O)cc(C)n1Cc1c(C)cc(C)cc1C

>  <score_type>  (668) 
oracle

>  <origin>  (668) 
adg

>  <m_score__min__energy>  (668) 
-16.32

>  <m_primary>  (668) 
energy

$$$$
94:0
     RDKit          3D

 29 31  0  0  0  0  0  0  0  0999 V2000
   59.2740   33.9320   46.1100 O   0  0  0  0  0  0  0  0  0  0  0  0
   58.3560   33.1770   45.6900 C   0  0  0  0  0  0  0  0  0  0  0  0
   57.6890   33.4900   44.3860 C   0  0  0  0  0  0  0  0  0  0  0  0
   58.0610   32.2100   43.1400 S   0  0  0  0  0  0  0  0  0  0  0  0
   57.3060   30.8730   44.0640 C   0  0  0  0  0  0  0  0  0  0  0  0
   56.0300   30.8980   44.5070 N   0  0  0  0  0  0  0  0  0  0  0  0
   55.6840   29.7920   45.1610 N   0  0  0  0  0  0  0  0  0  0  0  0
   56.6860   28.8860   45.2320 C   0  0  0  0  0  0  0  0  0  0  0  0
   56.5940   27.7300   45.8190 N   0  0  0  0  0  0  0  0  0  0  0  0
   57.2630   26.5180   45.4260 C   0  0  0  0  0  0  0  0  0  0  0  0
   58.4950   26.5330   45.1570 O   0  0  0  0  0  0  0  0  0  0  0  0
   56.4920   25.2480   45.3380 C   0  0  0  0  0  0  0  0  0  0  0  0
   57.1510   24.0550   44.9780 C   0  0  0  0  0  0  0  0  0  0  0  0
   56.4500   22.8500   44.8900 C   0  0  0  0  0  0  0  0  0  0  0  0
   55.0820   22.8140   45.1590 C   0  0  0  0  0  0  0  0  0  0  0  0
   54.4120   23.9840   45.5170 C   0  0  0  0  0  0  0  0  0  0  0  0
   55.1030   25.1970   45.6090 C   0  0  0  0  0  0  0  0  0  0  0  0
   54.3960   26.3400   45.9720 O   0  0  0  0  0  0  0  0  0  0  0  0
   58.0810   29.4310   44.4650 S   0  0  0  0  0  0  0  0  0  0  0  0
   57.9060   32.0620   46.4770 N   0  0  0  0  0  0  0  0  0  0  0  0
   58.5420   31.6250   47.6900 C   0  0  0  0  0  0  0  0  0  0  0  0
   59.2420   30.4080   47.7520 C   0  0  0  0  0  0  0  0  0  0  0  0
   59.8340   29.9970   48.9480 C   0  0  0  0  0  0  0  0  0  0  0  0
   59.7230   30.7860   50.0950 C   0  0  0  0  0  0  0  0  0  0  0  0
   59.0080   31.9950   50.0600 C   0  0  0  0  0  0  0  0  0  0  0  0
   58.8830   32.8240   51.2800 C   0  0  0  0  0  0  0  0  0  0  0  0
   58.2460   32.3990   52.2800 O   0  0  0  0  0  0  0  0  0  0  0  0
   59.4660   34.0840   51.3390 O   0  0  0  0  0  0  0  0  0  0  0  0
   58.4140   32.4030   48.8510 C   0  0  0  0  0  0  0  0  0  0  0  0
  1  2  2  0
  2  3  1  0
  3  4  1  0
  4  5  1  0
  5  6  2  0
  6  7  1  0
  7  8  1  0
  8  9  2  3
  9 10  1  0
 10 11  2  0
 10 12  1  0
 12 13  2  0
 13 14  1  0
 14 15  2  0
 15 16  1  0
 16 17  2  0
 17 18  1  0
  8 19  1  0
  2 20  1  0
 20 21  1  0
 21 22  2  0
 22 23  1  0
 23 24  2  0
 24 25  1  0
 25 26  1  0
 26 27  2  0
 26 28  1  0
 25 29  2  0
 19  5  1  0
 29 21  1  0
 17 12  1  0
M  CHG  3   7  -1  18  -1  28  -1
M  END
>  <UniqueID>  (669) 
90

>  <SMILES>  (669) 
O=C(CSc1n[n-]c(=NC(=O)c2ccccc2[O-])s1)Nc1cccc(C(=O)[O-])c1

>  <Energy>  (669) 
80.94535126247227

>  <Genealogy>  (669) 
O=C(CSc1n[n-]c(=NC(=O)c2ccccc2[O-])s1)Nc1cccc(C(=O)[O-])c1 (protonated)
O=C(CSc1n[n-]c(=NC(=O)c2ccccc2[O-])s1)Nc1cccc(C(=O)[O-])c1 (3D coordinates assigned)
O=C(CSc1n[n-]c(=NC(=O)c2ccccc2[O-])s1)Nc1cccc(C(=O)[O-])c1 (optimized conformer: 80.94535126247227 kcal/mol)

>  <smiles>  (669) 
O=C(CSc1n[nH]c(=NC(=O)c2ccccc2O)s1)Nc1cccc(C(=O)O)c1

>  <score_type>  (669) 
oracle

>  <origin>  (669) 
adg

>  <m_score__min__energy>  (669) 
-17.5

>  <m_primary>  (669) 
energy

$$$$
4:0
     RDKit          3D

 27 29  0  0  0  0  0  0  0  0999 V2000
   58.7560   33.1040   51.8570 C   0  0  0  0  0  0  0  0  0  0  0  0
   59.0130   31.9820   51.1410 N   0  0  0  0  0  0  0  0  0  0  0  0
   58.0950   30.9830   51.0130 C   0  0  0  0  0  0  0  0  0  0  0  0
   58.3620   29.9480   50.2770 N   0  0  0  0  0  0  0  0  0  0  0  0
   54.5190   30.3350   52.0550 C   0  0  0  0  0  0  0  0  0  0  0  0
   54.0430   29.5040   53.0730 C   0  0  0  0  0  0  0  0  0  0  0  0
   52.7150   29.5990   53.4930 C   0  0  0  0  0  0  0  0  0  0  0  0
   51.8500   30.5140   52.8880 C   0  0  0  0  0  0  0  0  0  0  0  0
   52.3040   31.3390   51.8430 C   0  0  0  0  0  0  0  0  0  0  0  0
   51.4020   32.3300   51.2170 C   0  0  0  0  0  0  0  0  0  0  0  0
   51.3020   32.4040   49.9630 O   0  0  0  0  0  0  0  0  0  0  0  0
   50.6430   33.1890   52.0050 O   0  0  0  0  0  0  0  0  0  0  0  0
   53.6380   31.2220   51.4130 C   0  0  0  0  0  0  0  0  0  0  0  0
   56.8370   31.1180   51.6660 C   0  0  0  0  0  0  0  0  0  0  0  0
   55.8870   30.2180   51.6290 N   0  0  0  0  0  0  0  0  0  0  0  0
   59.1230   29.9940   48.7220 S   0  0  0  0  0  0  0  0  0  0  0  0
   60.5340   29.4860   48.8190 O   0  0  0  0  0  0  0  0  0  0  0  0
   58.3440   29.1470   47.7540 O   0  0  0  0  0  0  0  0  0  0  0  0
   59.1300   31.6700   48.1890 C   0  0  0  0  0  0  0  0  0  0  0  0
   60.0710   32.5830   48.6900 C   0  0  0  0  0  0  0  0  0  0  0  0
   60.0890   33.8990   48.2190 C   0  0  0  0  0  0  0  0  0  0  0  0
   59.1720   34.3100   47.2470 C   0  0  0  0  0  0  0  0  0  0  0  0
   58.2330   33.4040   46.7450 C   0  0  0  0  0  0  0  0  0  0  0  0
   57.0860   33.9170   45.5210 Cl  0  0  0  0  0  0  0  0  0  0  0  0
   58.2140   32.0860   47.2130 C   0  0  0  0  0  0  0  0  0  0  0  0
   56.5930   32.2630   52.3580 N   0  0  0  0  0  0  0  0  0  0  0  0
   57.5150   33.2530   52.4700 C   0  0  0  0  0  0  0  0  0  0  0  0
  1  2  1  0
  2  3  1  0
  3  4  2  0
  4  5  1  0
  5  6  2  0
  6  7  1  0
  7  8  2  0
  8  9  1  0
  9 10  1  0
 10 11  2  0
 10 12  1  0
  9 13  2  0
  3 14  1  0
 14 15  2  0
 15 16  1  0
 16 17  2  0
 16 18  2  0
 16 19  1  0
 19 20  2  0
 20 21  1  0
 21 22  2  0
 22 23  1  0
 23 24  1  0
 23 25  2  0
 14 26  1  0
 26 27  1  0
 27  1  2  0
 13  5  1  0
 25 19  1  0
M  CHG  3   2  -1  12  -1  26  -1
M  END
>  <UniqueID>  (670) 
5

>  <SMILES>  (670) 
O=C([O-])c1cccc(N=c2[n-]cc[n-]/c2=N\S(=O)(=O)c2cccc(Cl)c2)c1

>  <Energy>  (670) 
55.48829241368185

>  <Genealogy>  (670) 
O=C([O-])c1cccc(N=c2[n-]cc[n-]c2=NS(=O)(=O)c2cccc(Cl)c2)c1 (protonated)
O=C([O-])c1cccc(N=c2[n-]cc[n-]/c2=N\S(=O)(=O)c2cccc(Cl)c2)c1 (cis-trans isomerization)
O=C([O-])c1cccc(N=c2[n-]cc[n-]/c2=N\S(=O)(=O)c2cccc(Cl)c2)c1 (3D coordinates assigned)
O=C([O-])c1cccc(N=c2[n-]cc[n-]/c2=N\S(=O)(=O)c2cccc(Cl)c2)c1 (optimized conformer: 55.48829241368185 kcal/mol)

>  <smiles>  (670) 
O=C(O)c1cccc(N=c2[nH]cc[nH]c2=NS(=O)(=O)c2cccc(Cl)c2)c1

>  <score_type>  (670) 
oracle

>  <origin>  (670) 
adg

>  <m_score__min__energy>  (670) 
-14.35

>  <m_primary>  (670) 
energy

$$$$
9:0
     RDKit          3D

 35 38  0  0  0  0  0  0  0  0999 V2000
   60.0020   27.7320   46.4170 C   0  0  0  0  0  0  0  0  0  0  0  0
   59.0700   28.5440   45.8930 C   0  0  0  0  0  0  0  0  0  0  0  0
   57.9620   28.1540   45.1310 C   0  0  0  0  0  0  0  0  0  0  0  0
   57.6270   26.9020   44.7610 C   0  0  0  0  0  0  0  0  0  0  0  0
   57.0960   25.8840   45.6850 C   0  0  0  0  0  0  0  0  0  0  0  0
   57.8510   24.9110   46.2230 N   0  0  0  0  0  0  0  0  0  0  0  0
   56.9990   24.2750   47.0560 C   0  0  0  0  0  0  0  0  0  0  0  0
   57.3410   23.2790   47.7450 O   0  0  0  0  0  0  0  0  0  0  0  0
   55.7560   24.7980   47.1030 N   0  0  0  0  0  0  0  0  0  0  0  0
   55.8350   25.8230   46.2390 C   0  0  0  0  0  0  0  0  0  0  0  0
   54.7920   26.7100   46.0010 O   0  0  0  0  0  0  0  0  0  0  0  0
   57.3060   29.3230   44.7720 C   0  0  0  0  0  0  0  0  0  0  0  0
   58.0130   30.3650   45.3380 C   0  0  0  0  0  0  0  0  0  0  0  0
   57.6650   31.8140   45.1800 C   0  0  0  0  0  0  0  0  0  0  0  0
   59.0860   29.8950   46.0120 N   0  0  0  0  0  0  0  0  0  0  0  0
   60.0480   30.6950   46.7240 C   0  0  0  0  0  0  0  0  0  0  0  0
   60.3250   32.0040   46.3070 C   0  0  0  0  0  0  0  0  0  0  0  0
   61.2490   32.7850   47.0060 C   0  0  0  0  0  0  0  0  0  0  0  0
   61.9170   32.2680   48.1310 C   0  0  0  0  0  0  0  0  0  0  0  0
   62.8910   33.1060   48.8710 C   0  0  0  0  0  0  0  0  0  0  0  0
   62.5430   34.2480   49.2800 O   0  0  0  0  0  0  0  0  0  0  0  0
   64.2400   32.6560   49.0830 N   0  0  0  0  0  0  0  0  0  0  0  0
   65.1070   33.1820   50.1030 C   0  0  0  0  0  0  0  0  0  0  0  0
   66.5030   33.0280   50.0280 C   0  0  0  0  0  0  0  0  0  0  0  0
   67.3280   33.5690   51.0190 C   0  0  0  0  0  0  0  0  0  0  0  0
   66.7730   34.2790   52.0940 C   0  0  0  0  0  0  0  0  0  0  0  0
   67.6620   34.8910   53.1410 C   0  0  0  0  0  0  0  0  0  0  0  0
   68.1830   36.5270   52.6480 S   0  0  0  0  0  0  0  0  0  0  0  0
   66.8280   37.6740   52.7690 C   0  0  0  0  0  0  0  0  0  0  0  0
   69.3070   36.9890   53.5330 O   0  0  0  0  0  0  0  0  0  0  0  0
   68.6620   36.4810   51.2260 O   0  0  0  0  0  0  0  0  0  0  0  0
   65.3820   34.4580   52.1540 C   0  0  0  0  0  0  0  0  0  0  0  0
   64.5580   33.9160   51.1640 C   0  0  0  0  0  0  0  0  0  0  0  0
   61.6240   30.9580   48.5510 C   0  0  0  0  0  0  0  0  0  0  0  0
   60.6980   30.1780   47.8520 C   0  0  0  0  0  0  0  0  0  0  0  0
  1  2  2  0
  2  3  1  0
  3  4  2  3
  4  5  1  0
  5  6  1  0
  6  7  1  0
  7  8  2  0
  7  9  1  0
  9 10  1  0
 10 11  1  0
  3 12  1  0
 12 13  2  0
 13 14  1  0
 13 15  1  0
 15 16  1  0
 16 17  2  0
 17 18  1  0
 18 19  2  0
 19 20  1  0
 20 21  2  0
 20 22  1  0
 22 23  1  0
 23 24  2  0
 24 25  1  0
 25 26  2  0
 26 27  1  0
 27 28  1  0
 28 29  1  0
 28 30  2  0
 28 31  2  0
 26 32  1  0
 32 33  2  0
 19 34  1  0
 34 35  2  0
 15  2  1  0
 35 16  1  0
 10  5  2  0
 33 23  1  0
M  CHG  3   6  -1   9  -1  11  -1
M  END
>  <UniqueID>  (671) 
10

>  <SMILES>  (671) 
C=c1c(=Cc2[n-]c(=O)[n-]c2[O-])cc(C)n1-c1ccc(C(=O)Nc2ccc(CS(C)(=O)=O)cc2)cc1

>  <Energy>  (671) 
128.21797332714897

>  <Genealogy>  (671) 
C=c1c(=Cc2[n-]c(=O)[n-]c2[O-])cc(C)n1-c1ccc(C(=O)Nc2ccc(CS(C)(=O)=O)cc2)cc1 (protonated)
C=c1c(=Cc2[n-]c(=O)[n-]c2[O-])cc(C)n1-c1ccc(C(=O)Nc2ccc(CS(C)(=O)=O)cc2)cc1 (3D coordinates assigned)
C=c1c(=Cc2[n-]c(=O)[n-]c2[O-])cc(C)n1-c1ccc(C(=O)Nc2ccc(CS(C)(=O)=O)cc2)cc1 (optimized conformer: 128.21797332714897 kcal/mol)

>  <smiles>  (671) 
C=c1c(=Cc2[nH]c(=O)[nH]c2O)cc(C)n1-c1ccc(C(=O)Nc2ccc(CS(C)(=O)=O)cc2)cc1

>  <score_type>  (671) 
oracle

>  <origin>  (671) 
adg

>  <m_score__min__energy>  (671) 
-17.050000000000001

>  <m_primary>  (671) 
energy

$$$$
14:0
     RDKit          3D

 32 34  0  0  0  0  0  0  0  0999 V2000
   56.6440   30.6200   43.1660 C   0  0  0  0  0  0  0  0  0  0  0  0
   57.8200   31.5040   43.5740 C   0  0  0  0  0  0  0  0  0  0  0  0
   58.2530   31.1910   44.9460 N   0  0  0  0  0  0  0  0  0  0  0  0
   57.7600   32.0410   46.0430 C   0  0  0  0  0  0  0  0  0  0  0  0
   57.7920   33.5010   45.6660 C   0  0  0  0  0  0  0  0  0  0  0  0
   56.9500   33.9600   44.8500 O   0  0  0  0  0  0  0  0  0  0  0  0
   58.7090   34.4080   46.2920 N   0  0  0  0  0  0  0  0  0  0  0  0
   59.9680   34.0480   46.8750 C   0  0  0  0  0  0  0  0  0  0  0  0
   61.1390   33.9990   46.1000 C   0  0  0  0  0  0  0  0  0  0  0  0
   62.3640   33.6810   46.6950 C   0  0  0  0  0  0  0  0  0  0  0  0
   62.4320   33.4310   48.0680 C   0  0  0  0  0  0  0  0  0  0  0  0
   61.2760   33.5130   48.8570 C   0  0  0  0  0  0  0  0  0  0  0  0
   61.3700   33.2210   50.5970 S   0  0  0  0  0  0  0  0  0  0  0  0
   61.8830   31.8270   50.8380 O   0  0  0  0  0  0  0  0  0  0  0  0
   62.3500   34.1890   51.2040 O   0  0  0  0  0  0  0  0  0  0  0  0
   59.8180   33.4140   51.3750 N   0  0  0  0  0  0  0  0  0  0  0  0
   59.9920   33.8190   52.7800 C   0  0  0  0  0  0  0  0  0  0  0  0
   58.6440   33.7760   53.5290 C   0  0  0  0  0  0  0  0  0  0  0  0
   57.5640   33.6140   52.6290 O   0  0  0  0  0  0  0  0  0  0  0  0
   57.6670   32.3610   51.9720 C   0  0  0  0  0  0  0  0  0  0  0  0
   59.0420   32.1670   51.2980 C   0  0  0  0  0  0  0  0  0  0  0  0
   60.0470   33.8310   48.2570 C   0  0  0  0  0  0  0  0  0  0  0  0
   59.1230   30.0700   45.2400 C   0  0  0  0  0  0  0  0  0  0  0  0
   59.9310   30.1530   46.2060 O   0  0  0  0  0  0  0  0  0  0  0  0
   59.0350   28.7730   44.4700 C   0  0  0  0  0  0  0  0  0  0  0  0
   58.2890   27.7050   45.2320 C   0  0  0  0  0  0  0  0  0  0  0  0
   58.9930   26.7320   45.9600 C   0  0  0  0  0  0  0  0  0  0  0  0
   58.3020   25.7560   46.6880 C   0  0  0  0  0  0  0  0  0  0  0  0
   56.9040   25.7490   46.7000 C   0  0  0  0  0  0  0  0  0  0  0  0
   56.1950   26.7200   45.9850 C   0  0  0  0  0  0  0  0  0  0  0  0
   54.8060   26.7140   45.9990 O   0  0  0  0  0  0  0  0  0  0  0  0
   56.8830   27.7010   45.2580 C   0  0  0  0  0  0  0  0  0  0  0  0
  1  2  1  0
  2  3  1  0
  3  4  1  0
  4  5  1  0
  5  6  2  0
  5  7  1  0
  7  8  1  0
  8  9  2  0
  9 10  1  0
 10 11  2  0
 11 12  1  0
 12 13  1  0
 13 14  2  0
 13 15  2  0
 13 16  1  0
 16 17  1  0
 17 18  1  0
 18 19  1  0
 19 20  1  0
 20 21  1  0
 12 22  2  0
  3 23  1  0
 23 24  2  0
 23 25  1  0
 25 26  1  0
 26 27  2  0
 27 28  1  0
 28 29  2  0
 29 30  1  0
 30 31  1  0
 30 32  2  0
 22  8  1  0
 32 26  1  0
 21 16  1  0
M  CHG  2   7  -1  31  -1
M  END
>  <UniqueID>  (672) 
15

>  <SMILES>  (672) 
CCN(CC(=O)[N-]c1cccc(S(=O)(=O)N2CCOCC2)c1)C(=O)Cc1cccc([O-])c1

>  <Energy>  (672) 
67.96911309820526

>  <Genealogy>  (672) 
CCN(CC(=O)[N-]c1cccc(S(=O)(=O)N2CCOCC2)c1)C(=O)Cc1cccc([O-])c1 (protonated)
CCN(CC(=O)[N-]c1cccc(S(=O)(=O)N2CCOCC2)c1)C(=O)Cc1cccc([O-])c1 (3D coordinates assigned)
CCN(CC(=O)[N-]c1cccc(S(=O)(=O)N2CCOCC2)c1)C(=O)Cc1cccc([O-])c1 (nonaromatic ring conformer: 67.96911309820526 kcal/mol)

>  <smiles>  (672) 
CCN(CC(=O)Nc1cccc(S(=O)(=O)N2CCOCC2)c1)C(=O)Cc1cccc(O)c1

>  <score_type>  (672) 
oracle

>  <origin>  (672) 
adg

>  <m_score__min__energy>  (672) 
-14.300000000000001

>  <m_primary>  (672) 
energy

$$$$
30:0
     RDKit          3D

 26 28  0  0  0  0  0  0  0  0999 V2000
   59.4370   29.9220   45.0990 O   0  0  0  0  0  0  0  0  0  0  0  0
   58.4750   30.7310   45.0220 C   0  0  0  0  0  0  0  0  0  0  0  0
   57.1540   30.2520   44.5440 C   0  0  0  0  0  0  0  0  0  0  0  0
   56.6150   30.8010   43.5470 O   0  0  0  0  0  0  0  0  0  0  0  0
   56.4640   29.1630   45.1830 N   0  0  0  0  0  0  0  0  0  0  0  0
   55.1570   28.9690   44.8870 O   0  0  0  0  0  0  0  0  0  0  0  0
   57.1610   28.1250   45.9510 C   0  0  0  0  0  0  0  0  0  0  0  0
   57.1670   26.8140   45.2020 C   0  0  0  0  0  0  0  0  0  0  0  0
   57.7510   26.7560   43.9240 C   0  0  0  0  0  0  0  0  0  0  0  0
   57.7720   25.5560   43.2070 C   0  0  0  0  0  0  0  0  0  0  0  0
   57.2080   24.4020   43.7570 C   0  0  0  0  0  0  0  0  0  0  0  0
   56.6190   24.4480   45.0240 C   0  0  0  0  0  0  0  0  0  0  0  0
   56.5890   25.6470   45.7460 C   0  0  0  0  0  0  0  0  0  0  0  0
   55.9790   25.6670   46.9960 O   0  0  0  0  0  0  0  0  0  0  0  0
   58.7140   32.1420   45.4010 C   0  0  0  0  0  0  0  0  0  0  0  0
   58.1610   33.1670   44.6170 C   0  0  0  0  0  0  0  0  0  0  0  0
   58.3920   34.5060   44.9390 C   0  0  0  0  0  0  0  0  0  0  0  0
   59.1830   34.8360   46.0420 C   0  0  0  0  0  0  0  0  0  0  0  0
   59.7480   33.8260   46.8350 C   0  0  0  0  0  0  0  0  0  0  0  0
   60.6360   34.1790   47.9950 C   0  0  0  0  0  0  0  0  0  0  0  0
   62.0360   33.7300   47.7270 C   0  0  0  0  0  0  0  0  0  0  0  0
   62.8870   33.2920   48.6720 N   0  0  0  0  0  0  0  0  0  0  0  0
   64.0160   33.0610   48.0220 N   0  0  0  0  0  0  0  0  0  0  0  0
   63.8640   33.3560   46.7400 N   0  0  0  0  0  0  0  0  0  0  0  0
   62.6310   33.7850   46.5220 N   0  0  0  0  0  0  0  0  0  0  0  0
   59.5230   32.4810   46.5010 C   0  0  0  0  0  0  0  0  0  0  0  0
  1  2  2  0
  2  3  1  0
  3  4  2  0
  3  5  1  0
  5  6  1  0
  5  7  1  0
  7  8  1  0
  8  9  2  0
  9 10  1  0
 10 11  2  0
 11 12  1  0
 12 13  2  0
 13 14  1  0
  2 15  1  0
 15 16  2  0
 16 17  1  0
 17 18  2  0
 18 19  1  0
 19 20  1  0
 20 21  1  0
 21 22  1  0
 22 23  2  0
 23 24  1  0
 24 25  1  0
 19 26  2  0
 13  8  1  0
 26 15  1  0
 25 21  2  0
M  CHG  3   6  -1  14  -1  24  -1
M  END
>  <UniqueID>  (673) 
31

>  <SMILES>  (673) 
O=C(C(=O)N([O-])Cc1ccccc1[O-])c1cccc(Cc2nn[n-]n2)c1

>  <Energy>  (673) 
84.27440863366498

>  <Genealogy>  (673) 
O=C(C(=O)N([O-])Cc1ccccc1[O-])c1cccc(Cc2nn[n-]n2)c1 (protonated)
O=C(C(=O)N([O-])Cc1ccccc1[O-])c1cccc(Cc2nn[n-]n2)c1 (3D coordinates assigned)
O=C(C(=O)N([O-])Cc1ccccc1[O-])c1cccc(Cc2nn[n-]n2)c1 (optimized conformer: 84.27440863366498 kcal/mol)

>  <smiles>  (673) 
O=C(C(=O)N(O)Cc1ccccc1O)c1cccc(Cc2nn[nH]n2)c1

>  <score_type>  (673) 
oracle

>  <origin>  (673) 
adg

>  <m_score__min__energy>  (673) 
-15.94

>  <m_primary>  (673) 
energy

$$$$
79:0
     RDKit          3D

 24 26  0  0  0  0  0  0  0  0999 V2000
   52.9110   22.8870   44.9810 O   0  0  0  0  0  0  0  0  0  0  0  0
   53.8480   23.6990   45.2020 C   0  0  0  0  0  0  0  0  0  0  0  0
   55.1510   23.3390   45.1810 N   0  0  0  0  0  0  0  0  0  0  0  0
   55.7980   24.4900   45.4590 C   0  0  0  0  0  0  0  0  0  0  0  0
   57.2830   24.6000   45.6170 C   0  0  0  0  0  0  0  0  0  0  0  0
   57.7290   26.0090   45.3370 C   0  0  0  0  0  0  0  0  0  0  0  0
   58.0630   26.8670   46.3950 C   0  0  0  0  0  0  0  0  0  0  0  0
   58.4450   28.1890   46.1400 C   0  0  0  0  0  0  0  0  0  0  0  0
   58.4870   28.6720   44.8190 C   0  0  0  0  0  0  0  0  0  0  0  0
   58.8610   29.9860   44.5040 O   0  0  0  0  0  0  0  0  0  0  0  0
   57.7710   31.2880   44.2900 S   0  0  0  0  0  0  0  0  0  0  0  0
   57.7080   31.6420   42.8300 O   0  0  0  0  0  0  0  0  0  0  0  0
   56.4060   30.8950   44.7800 O   0  0  0  0  0  0  0  0  0  0  0  0
   58.3350   32.6790   45.2050 C   0  0  0  0  0  0  0  0  0  0  0  0
   58.8180   33.8150   44.5380 C   0  0  0  0  0  0  0  0  0  0  0  0
   59.2740   34.9170   45.2690 C   0  0  0  0  0  0  0  0  0  0  0  0
   59.2520   34.8880   46.6670 C   0  0  0  0  0  0  0  0  0  0  0  0
   58.7760   33.7570   47.3350 C   0  0  0  0  0  0  0  0  0  0  0  0
   58.3210   32.6530   46.6070 C   0  0  0  0  0  0  0  0  0  0  0  0
   58.1400   27.8160   43.7670 C   0  0  0  0  0  0  0  0  0  0  0  0
   57.7590   26.4950   44.0210 C   0  0  0  0  0  0  0  0  0  0  0  0
   54.8750   25.4930   45.6550 C   0  0  0  0  0  0  0  0  0  0  0  0
   55.1510   26.8140   45.9860 O   0  0  0  0  0  0  0  0  0  0  0  0
   53.6410   24.9990   45.4870 N   0  0  0  0  0  0  0  0  0  0  0  0
  1  2  2  0
  2  3  1  0
  3  4  1  0
  4  5  1  0
  5  6  1  0
  6  7  2  0
  7  8  1  0
  8  9  2  0
  9 10  1  0
 10 11  1  0
 11 12  2  0
 11 13  2  0
 11 14  1  0
 14 15  2  0
 15 16  1  0
 16 17  2  0
 17 18  1  0
 18 19  2  0
  9 20  1  0
 20 21  2  0
  4 22  2  0
 22 23  1  0
 22 24  1  0
 24  2  1  0
 21  6  1  0
 19 14  1  0
M  CHG  2   3  -1  23  -1
M  END
>  <UniqueID>  (674) 
77

>  <SMILES>  (674) 
O=c1[n-]c(Cc2ccc(OS(=O)(=O)c3ccccc3)cc2)c([O-])[nH]1

>  <Energy>  (674) 
68.61347578103234

>  <Genealogy>  (674) 
O=c1[n-]c(Cc2ccc(OS(=O)(=O)c3ccccc3)cc2)c([O-])[nH]1 (protonated)
O=c1[n-]c(Cc2ccc(OS(=O)(=O)c3ccccc3)cc2)c([O-])[nH]1 (3D coordinates assigned)
O=c1[n-]c(Cc2ccc(OS(=O)(=O)c3ccccc3)cc2)c([O-])[nH]1 (optimized conformer: 68.61347578103234 kcal/mol)

>  <smiles>  (674) 
O=c1[nH]c(O)c(Cc2ccc(OS(=O)(=O)c3ccccc3)cc2)[nH]1

>  <score_type>  (674) 
oracle

>  <origin>  (674) 
adg

>  <m_score__min__energy>  (674) 
-14.32

>  <m_primary>  (674) 
energy

$$$$
88:0
     RDKit          3D

 24 25  0  0  0  0  0  0  0  0999 V2000
   51.8630   24.3700   44.9300 C   0  0  0  0  0  0  0  0  0  0  0  0
   53.1060   23.5470   45.2530 C   0  0  0  0  0  0  0  0  0  0  0  0
   54.0740   24.3470   46.0000 N   0  0  0  0  0  0  0  0  0  0  0  0
   55.3790   23.8630   46.3420 C   0  0  0  0  0  0  0  0  0  0  0  0
   55.7540   22.7230   45.9550 O   0  0  0  0  0  0  0  0  0  0  0  0
   56.2690   24.7130   47.0750 N   0  0  0  0  0  0  0  0  0  0  0  0
   57.1220   25.7320   46.5280 C   0  0  0  0  0  0  0  0  0  0  0  0
   58.5230   25.6230   46.5710 C   0  0  0  0  0  0  0  0  0  0  0  0
   59.3230   26.6450   46.0590 C   0  0  0  0  0  0  0  0  0  0  0  0
   58.7380   27.7870   45.5090 C   0  0  0  0  0  0  0  0  0  0  0  0
   57.3440   27.9220   45.4720 C   0  0  0  0  0  0  0  0  0  0  0  0
   56.6500   29.4010   44.7960 S   0  0  0  0  0  0  0  0  0  0  0  0
   56.9890   29.4620   43.3330 O   0  0  0  0  0  0  0  0  0  0  0  0
   55.1530   29.4030   44.9260 O   0  0  0  0  0  0  0  0  0  0  0  0
   57.3180   30.8030   45.5830 N   0  0  0  0  0  0  0  0  0  0  0  0
   57.5340   31.8950   44.6340 C   0  0  0  0  0  0  0  0  0  0  0  0
   58.2430   33.0450   45.2880 C   0  0  0  0  0  0  0  0  0  0  0  0
   58.5040   33.0320   46.6670 C   0  0  0  0  0  0  0  0  0  0  0  0
   59.1720   34.1130   47.2460 C   0  0  0  0  0  0  0  0  0  0  0  0
   59.5690   35.1910   46.4530 C   0  0  0  0  0  0  0  0  0  0  0  0
   59.2890   35.1710   45.0850 C   0  0  0  0  0  0  0  0  0  0  0  0
   58.6390   34.1100   44.5390 N   0  0  0  0  0  0  0  0  0  0  0  0
   56.5350   26.8930   45.9980 C   0  0  0  0  0  0  0  0  0  0  0  0
   55.1500   27.0130   45.9990 O   0  0  0  0  0  0  0  0  0  0  0  0
  1  2  1  0
  2  3  1  0
  3  4  1  0
  4  5  2  0
  4  6  1  0
  6  7  1  0
  7  8  2  0
  8  9  1  0
  9 10  2  0
 10 11  1  0
 11 12  1  0
 12 13  2  0
 12 14  2  0
 12 15  1  0
 15 16  1  0
 16 17  1  0
 17 18  2  0
 18 19  1  0
 19 20  2  0
 20 21  1  0
 21 22  2  0
 11 23  2  0
 23 24  1  0
 23  7  1  0
 22 17  1  0
M  CHG  3   6  -1  15  -1  24  -1
M  END
>  <UniqueID>  (675) 
85

>  <SMILES>  (675) 
CCNC(=O)[N-]c1cccc(S(=O)(=O)[N-]Cc2ccccn2)c1[O-]

>  <Energy>  (675) 
38.203567301730274

>  <Genealogy>  (675) 
CCNC(=O)[N-]c1cccc(S(=O)(=O)[N-]Cc2ccccn2)c1[O-] (protonated)
CCNC(=O)[N-]c1cccc(S(=O)(=O)[N-]Cc2ccccn2)c1[O-] (3D coordinates assigned)
CCNC(=O)[N-]c1cccc(S(=O)(=O)[N-]Cc2ccccn2)c1[O-] (optimized conformer: 38.203567301730274 kcal/mol)

>  <smiles>  (675) 
CCNC(=O)Nc1cccc(S(=O)(=O)NCc2ccccn2)c1O

>  <score_type>  (675) 
oracle

>  <origin>  (675) 
adg

>  <m_score__min__energy>  (675) 
-16.43

>  <m_primary>  (675) 
energy

$$$$
92:0
     RDKit          3D

 28 30  0  0  0  0  0  0  0  0999 V2000
   55.0990   24.8490   46.3370 O   0  0  0  0  0  0  0  0  0  0  0  0
   56.0770   25.6420   46.3800 C   0  0  0  0  0  0  0  0  0  0  0  0
   55.9190   26.9270   45.9650 N   0  0  0  0  0  0  0  0  0  0  0  0
   56.9410   27.8250   45.9890 C   0  0  0  0  0  0  0  0  0  0  0  0
   56.7210   29.1320   45.5610 O   0  0  0  0  0  0  0  0  0  0  0  0
   58.2120   27.4320   46.4520 C   0  0  0  0  0  0  0  0  0  0  0  0
   59.3760   28.3940   46.4520 C   0  0  0  0  0  0  0  0  0  0  0  0
   59.2590   29.3830   47.5920 C   0  0  0  0  0  0  0  0  0  0  0  0
   59.3940   28.9330   48.9160 C   0  0  0  0  0  0  0  0  0  0  0  0
   59.2570   29.8230   49.9840 C   0  0  0  0  0  0  0  0  0  0  0  0
   58.9850   31.1680   49.7420 C   0  0  0  0  0  0  0  0  0  0  0  0
   58.8480   31.6310   48.4320 C   0  0  0  0  0  0  0  0  0  0  0  0
   58.9780   30.7460   47.3470 C   0  0  0  0  0  0  0  0  0  0  0  0
   58.8370   31.1980   45.9940 N   0  0  0  0  0  0  0  0  0  0  0  0
   57.6440   32.3120   45.4130 S   0  0  0  0  0  0  0  0  0  0  0  0
   57.0290   33.0540   46.5670 O   0  0  0  0  0  0  0  0  0  0  0  0
   56.5790   31.5680   44.6570 O   0  0  0  0  0  0  0  0  0  0  0  0
   58.4330   33.4640   44.3030 C   0  0  0  0  0  0  0  0  0  0  0  0
   58.7790   34.7680   45.0260 C   0  0  0  0  0  0  0  0  0  0  0  0
   59.6830   34.4960   46.1990 C   0  0  0  0  0  0  0  0  0  0  0  0
   60.8860   33.7930   46.0220 C   0  0  0  0  0  0  0  0  0  0  0  0
   61.7040   33.5100   47.1220 C   0  0  0  0  0  0  0  0  0  0  0  0
   61.3210   33.9130   48.4030 C   0  0  0  0  0  0  0  0  0  0  0  0
   60.1190   34.6030   48.5880 C   0  0  0  0  0  0  0  0  0  0  0  0
   59.3010   34.8930   47.4920 C   0  0  0  0  0  0  0  0  0  0  0  0
   58.3850   26.1070   46.8860 C   0  0  0  0  0  0  0  0  0  0  0  0
   57.3190   25.2090   46.8500 C   0  0  0  0  0  0  0  0  0  0  0  0
   57.4980   23.8970   47.2770 O   0  0  0  0  0  0  0  0  0  0  0  0
  1  2  2  0
  2  3  1  0
  3  4  1  0
  4  5  1  0
  4  6  2  0
  6  7  1  0
  7  8  1  0
  8  9  2  0
  9 10  1  0
 10 11  2  0
 11 12  1  0
 12 13  2  0
 13 14  1  0
 14 15  1  0
 15 16  2  0
 15 17  2  0
 15 18  1  0
 18 19  1  0
 19 20  1  0
 20 21  2  0
 21 22  1  0
 22 23  2  0
 23 24  1  0
 24 25  2  0
  6 26  1  0
 26 27  2  0
 27 28  1  0
 27  2  1  0
 13  8  1  0
 25 20  1  0
M  CHG  3   3  -1  14  -1  28  -1
M  END
>  <UniqueID>  (676) 
89

>  <SMILES>  (676) 
O=c1[n-]c(O)c(Cc2ccccc2[N-]S(=O)(=O)CCc2ccccc2)cc1[O-]

>  <Energy>  (676) 
42.8816078524376

>  <Genealogy>  (676) 
O=c1[n-]c(O)c(Cc2ccccc2[N-]S(=O)(=O)CCc2ccccc2)cc1[O-] (protonated)
O=c1[n-]c(O)c(Cc2ccccc2[N-]S(=O)(=O)CCc2ccccc2)cc1[O-] (3D coordinates assigned)
O=c1[n-]c(O)c(Cc2ccccc2[N-]S(=O)(=O)CCc2ccccc2)cc1[O-] (optimized conformer: 42.8816078524376 kcal/mol)

>  <smiles>  (676) 
O=c1[nH]c(O)c(Cc2ccccc2NS(=O)(=O)CCc2ccccc2)cc1O

>  <score_type>  (676) 
oracle

>  <origin>  (676) 
adg

>  <m_score__min__energy>  (676) 
-15.92

>  <m_primary>  (676) 
energy

$$$$
32:0
     RDKit          3D

 24 26  0  0  0  0  0  0  0  0999 V2000
   60.0540   28.2020   48.8550 N   0  0  0  0  0  0  0  0  0  0  0  0
   59.5120   29.7360   49.4390 S   0  0  0  0  0  0  0  0  0  0  0  0
   58.2150   29.5620   50.1780 O   0  0  0  0  0  0  0  0  0  0  0  0
   60.5330   30.2990   50.3880 O   0  0  0  0  0  0  0  0  0  0  0  0
   59.2800   30.8360   48.0840 C   0  0  0  0  0  0  0  0  0  0  0  0
   59.8140   32.1270   48.1270 C   0  0  0  0  0  0  0  0  0  0  0  0
   59.6620   32.9860   47.0380 C   0  0  0  0  0  0  0  0  0  0  0  0
   58.9540   32.5750   45.9000 C   0  0  0  0  0  0  0  0  0  0  0  0
   58.4020   31.2730   45.8460 C   0  0  0  0  0  0  0  0  0  0  0  0
   58.5910   30.4070   46.9430 C   0  0  0  0  0  0  0  0  0  0  0  0
   57.6780   30.8470   44.6640 N   0  0  0  0  0  0  0  0  0  0  0  0
   56.8200   29.6880   44.6820 C   0  0  0  0  0  0  0  0  0  0  0  0
   55.6040   29.8130   44.9950 O   0  0  0  0  0  0  0  0  0  0  0  0
   57.3460   28.3270   44.3260 C   0  0  0  0  0  0  0  0  0  0  0  0
   57.4730   27.4700   45.5480 C   0  0  0  0  0  0  0  0  0  0  0  0
   58.6260   27.2490   46.2020 N   0  0  0  0  0  0  0  0  0  0  0  0
   58.2650   26.4040   47.1930 C   0  0  0  0  0  0  0  0  0  0  0  0
   59.0860   25.9600   48.0380 O   0  0  0  0  0  0  0  0  0  0  0  0
   56.9560   26.0710   47.2060 N   0  0  0  0  0  0  0  0  0  0  0  0
   56.4700   26.7510   46.1570 C   0  0  0  0  0  0  0  0  0  0  0  0
   55.1390   26.7170   45.7610 O   0  0  0  0  0  0  0  0  0  0  0  0
   57.8020   31.6300   43.4290 C   0  0  0  0  0  0  0  0  0  0  0  0
   57.7590   33.1220   43.7480 C   0  0  0  0  0  0  0  0  0  0  0  0
   58.8910   33.4950   44.7070 C   0  0  0  0  0  0  0  0  0  0  0  0
  1  2  1  0
  2  3  2  0
  2  4  2  0
  2  5  1  0
  5  6  2  0
  6  7  1  0
  7  8  2  0
  8  9  1  0
  9 10  2  0
  9 11  1  0
 11 12  1  0
 12 13  2  0
 12 14  1  0
 14 15  1  0
 15 16  1  0
 16 17  1  0
 17 18  2  0
 17 19  1  0
 19 20  1  0
 20 21  1  0
 11 22  1  0
 22 23  1  0
 23 24  1  0
 10  5  1  0
 20 15  2  0
 24  8  1  0
M  CHG  3  16  -1  19  -1  21  -1
M  END
>  <UniqueID>  (677) 
31

>  <SMILES>  (677) 
NS(=O)(=O)c1ccc2c(c1)N(C(=O)Cc1[n-]c(=O)[n-]c1[O-])CCC2

>  <Energy>  (677) 
70.36815955940833

>  <Genealogy>  (677) 
NS(=O)(=O)c1ccc2c(c1)N(C(=O)Cc1[n-]c(=O)[n-]c1[O-])CCC2 (protonated)
NS(=O)(=O)c1ccc2c(c1)N(C(=O)Cc1[n-]c(=O)[n-]c1[O-])CCC2 (3D coordinates assigned)
NS(=O)(=O)c1ccc2c(c1)N(C(=O)Cc1[n-]c(=O)[n-]c1[O-])CCC2 (nonaromatic ring conformer: 70.36815955940833 kcal/mol)

>  <smiles>  (677) 
NS(=O)(=O)c1ccc2c(c1)N(C(=O)Cc1[nH]c(=O)[nH]c1O)CCC2

>  <score_type>  (677) 
oracle

>  <origin>  (677) 
adg

>  <m_score__min__energy>  (677) 
-14.26

>  <m_primary>  (677) 
energy

$$$$
86:0
     RDKit          3D

 24 26  0  0  0  0  0  0  0  0999 V2000
   57.1570   32.7740   52.2580 C   0  0  0  0  0  0  0  0  0  0  0  0
   58.3800   31.9720   51.9590 C   0  0  0  0  0  0  0  0  0  0  0  0
   59.6340   32.4680   51.9860 N   0  0  0  0  0  0  0  0  0  0  0  0
   60.4620   31.4620   51.7440 N   0  0  0  0  0  0  0  0  0  0  0  0
   61.9130   31.5860   51.7640 C   0  0  0  0  0  0  0  0  0  0  0  0
   59.7750   30.3110   51.5980 C   0  0  0  0  0  0  0  0  0  0  0  0
   58.4340   30.6130   51.7250 C   0  0  0  0  0  0  0  0  0  0  0  0
   57.3070   29.7270   51.7030 N   0  0  0  0  0  0  0  0  0  0  0  0
   56.8660   28.8710   52.7670 C   0  0  0  0  0  0  0  0  0  0  0  0
   57.6880   28.1310   53.3710 O   0  0  0  0  0  0  0  0  0  0  0  0
   55.4330   28.8460   53.1470 C   0  0  0  0  0  0  0  0  0  0  0  0
   54.8580   27.6810   53.6880 C   0  0  0  0  0  0  0  0  0  0  0  0
   53.5120   27.6620   54.0590 C   0  0  0  0  0  0  0  0  0  0  0  0
   52.7210   28.8000   53.8940 C   0  0  0  0  0  0  0  0  0  0  0  0
   53.2700   29.9670   53.3420 C   0  0  0  0  0  0  0  0  0  0  0  0
   52.4290   31.2060   53.1990 C   0  0  0  0  0  0  0  0  0  0  0  0
   51.9110   31.3160   51.7980 C   0  0  0  0  0  0  0  0  0  0  0  0
   52.1190   30.3930   50.8430 N   0  0  0  0  0  0  0  0  0  0  0  0
   51.4210   30.8730   49.7900 C   0  0  0  0  0  0  0  0  0  0  0  0
   51.3740   30.2810   48.6820 O   0  0  0  0  0  0  0  0  0  0  0  0
   50.7720   32.0350   50.0230 N   0  0  0  0  0  0  0  0  0  0  0  0
   51.0880   32.2970   51.3010 C   0  0  0  0  0  0  0  0  0  0  0  0
   50.6290   33.4070   51.9980 O   0  0  0  0  0  0  0  0  0  0  0  0
   54.6270   29.9880   52.9810 C   0  0  0  0  0  0  0  0  0  0  0  0
  1  2  1  0
  2  3  2  0
  3  4  1  0
  4  5  1  0
  4  6  1  0
  6  7  2  0
  7  8  1  0
  8  9  1  0
  9 10  2  0
  9 11  1  0
 11 12  2  0
 12 13  1  0
 13 14  2  0
 14 15  1  0
 15 16  1  0
 16 17  1  0
 17 18  1  0
 18 19  1  0
 19 20  2  0
 19 21  1  0
 21 22  1  0
 22 23  1  0
 15 24  2  0
  7  2  1  0
 24 11  1  0
 22 17  2  0
M  CHG  4   8  -1  18  -1  21  -1  23  -1
M  END
>  <UniqueID>  (678) 
81

>  <SMILES>  (678) 
Cc1nn(C)cc1[N-]C(=O)c1cccc(Cc2[n-]c(=O)[n-]c2[O-])c1

>  <Energy>  (678) 
97.79698716060959

>  <Genealogy>  (678) 
Cc1nn(C)cc1[N-]C(=O)c1cccc(Cc2[n-]c(=O)[n-]c2[O-])c1 (protonated)
Cc1nn(C)cc1[N-]C(=O)c1cccc(Cc2[n-]c(=O)[n-]c2[O-])c1 (3D coordinates assigned)
Cc1nn(C)cc1[N-]C(=O)c1cccc(Cc2[n-]c(=O)[n-]c2[O-])c1 (optimized conformer: 97.79698716060959 kcal/mol)

>  <smiles>  (678) 
Cc1nn(C)cc1NC(=O)c1cccc(Cc2[nH]c(=O)[nH]c2O)c1

>  <score_type>  (678) 
oracle

>  <origin>  (678) 
adg

>  <m_score__min__energy>  (678) 
-17.390000000000001

>  <m_primary>  (678) 
energy

$$$$
7:0
     RDKit          3D

 26 28  0  0  0  0  0  0  0  0999 V2000
   57.4050   21.0770   49.2350 N   0  0  0  0  0  0  0  0  0  0  0  0
   56.9250   20.9810   47.5780 S   0  0  0  0  0  0  0  0  0  0  0  0
   58.0820   20.5070   46.7440 O   0  0  0  0  0  0  0  0  0  0  0  0
   55.7980   19.9960   47.4430 O   0  0  0  0  0  0  0  0  0  0  0  0
   56.4040   22.5700   47.0240 C   0  0  0  0  0  0  0  0  0  0  0  0
   55.0540   22.8100   46.7350 C   0  0  0  0  0  0  0  0  0  0  0  0
   54.6390   24.0730   46.3090 C   0  0  0  0  0  0  0  0  0  0  0  0
   55.5670   25.1110   46.1740 C   0  0  0  0  0  0  0  0  0  0  0  0
   55.1550   26.3350   45.7590 N   0  0  0  0  0  0  0  0  0  0  0  0
   56.0130   27.3800   45.6220 C   0  0  0  0  0  0  0  0  0  0  0  0
   55.5160   28.6100   45.2080 O   0  0  0  0  0  0  0  0  0  0  0  0
   57.3800   27.2180   45.9140 C   0  0  0  0  0  0  0  0  0  0  0  0
   58.3110   28.3670   45.7810 C   0  0  0  0  0  0  0  0  0  0  0  0
   58.9860   28.4940   44.7260 O   0  0  0  0  0  0  0  0  0  0  0  0
   58.5060   29.3140   46.8400 N   0  0  0  0  0  0  0  0  0  0  0  0
   58.7460   30.7210   46.6880 C   0  0  0  0  0  0  0  0  0  0  0  0
   58.0610   31.4930   45.7320 C   0  0  0  0  0  0  0  0  0  0  0  0
   58.3250   32.8600   45.6090 C   0  0  0  0  0  0  0  0  0  0  0  0
   59.2860   33.4650   46.4270 C   0  0  0  0  0  0  0  0  0  0  0  0
   59.6450   35.3320   46.2580 Br  0  0  0  0  0  0  0  0  0  0  0  0
   59.9890   32.6980   47.3610 C   0  0  0  0  0  0  0  0  0  0  0  0
   59.7250   31.3300   47.4850 C   0  0  0  0  0  0  0  0  0  0  0  0
   57.8400   25.9490   46.3240 C   0  0  0  0  0  0  0  0  0  0  0  0
   59.0690   25.7630   46.5450 O   0  0  0  0  0  0  0  0  0  0  0  0
   56.9300   24.8850   46.4690 C   0  0  0  0  0  0  0  0  0  0  0  0
   57.3380   23.6080   46.8960 C   0  0  0  0  0  0  0  0  0  0  0  0
  1  2  1  0
  2  3  2  0
  2  4  2  0
  2  5  1  0
  5  6  2  0
  6  7  1  0
  7  8  2  0
  8  9  1  0
  9 10  1  0
 10 11  1  0
 10 12  2  0
 12 13  1  0
 13 14  2  0
 13 15  1  0
 15 16  1  0
 16 17  2  0
 17 18  1  0
 18 19  2  0
 19 20  1  0
 19 21  1  0
 21 22  2  0
 12 23  1  0
 23 24  2  0
 23 25  1  0
 25 26  2  0
 26  5  1  0
 25  8  1  0
 22 16  1  0
M  CHG  4   1  -1   9  -1  11  -1  15  -1
M  END
>  <UniqueID>  (679) 
8

>  <SMILES>  (679) 
[NH-]S(=O)(=O)c1ccc2[n-]c([O-])c(C(=O)[N-]c3ccc(Br)cc3)c(=O)c2c1

>  <Energy>  (679) 
50.7001015618152

>  <Genealogy>  (679) 
[NH-]S(=O)(=O)c1ccc2[n-]c([O-])c(C(=O)[N-]c3ccc(Br)cc3)c(=O)c2c1 (protonated)
[NH-]S(=O)(=O)c1ccc2[n-]c([O-])c(C(=O)[N-]c3ccc(Br)cc3)c(=O)c2c1 (3D coordinates assigned)
[NH-]S(=O)(=O)c1ccc2[n-]c([O-])c(C(=O)[N-]c3ccc(Br)cc3)c(=O)c2c1 (optimized conformer: 50.7001015618152 kcal/mol)

>  <smiles>  (679) 
NS(=O)(=O)c1ccc2[nH]c(O)c(C(=O)Nc3ccc(Br)cc3)c(=O)c2c1

>  <score_type>  (679) 
oracle

>  <origin>  (679) 
adg

>  <m_score__min__energy>  (679) 
-14.74

>  <m_primary>  (679) 
energy

$$$$
8:0
     RDKit          3D

 25 26  0  0  0  0  0  0  0  0999 V2000
   56.9920   33.4610   46.0130 O   0  0  0  0  0  0  0  0  0  0  0  0
   57.6540   33.1530   44.9850 C   0  0  0  0  0  0  0  0  0  0  0  0
   57.3350   31.8920   44.2450 C   0  0  0  0  0  0  0  0  0  0  0  0
   56.9780   30.8310   45.1820 N   0  0  0  0  0  0  0  0  0  0  0  0
   56.4590   29.5380   44.8380 C   0  0  0  0  0  0  0  0  0  0  0  0
   55.2110   29.3710   44.8420 O   0  0  0  0  0  0  0  0  0  0  0  0
   57.3470   28.3770   44.4690 C   0  0  0  0  0  0  0  0  0  0  0  0
   58.0380   27.8770   45.6540 N   0  0  0  0  0  0  0  0  0  0  0  0
   57.6340   26.7390   46.4260 C   0  0  0  0  0  0  0  0  0  0  0  0
   57.8700   26.7270   47.6620 O   0  0  0  0  0  0  0  0  0  0  0  0
   56.9550   25.5810   45.8140 C   0  0  0  0  0  0  0  0  0  0  0  0
   57.7050   24.4510   45.4510 C   0  0  0  0  0  0  0  0  0  0  0  0
   57.0790   23.3450   44.8710 C   0  0  0  0  0  0  0  0  0  0  0  0
   55.6960   23.3510   44.6660 C   0  0  0  0  0  0  0  0  0  0  0  0
   54.9380   24.4590   45.0500 C   0  0  0  0  0  0  0  0  0  0  0  0
   55.5590   25.5720   45.6290 C   0  0  0  0  0  0  0  0  0  0  0  0
   54.7820   26.6530   46.0340 O   0  0  0  0  0  0  0  0  0  0  0  0
   58.7080   34.0010   44.5210 N   0  0  0  0  0  0  0  0  0  0  0  0
   59.2700   35.0850   45.3160 C   0  0  0  0  0  0  0  0  0  0  0  0
   59.9740   34.5210   46.5210 C   0  0  0  0  0  0  0  0  0  0  0  0
   59.3660   34.5910   47.7860 C   0  0  0  0  0  0  0  0  0  0  0  0
   59.9970   34.0330   48.9020 C   0  0  0  0  0  0  0  0  0  0  0  0
   61.2320   33.3950   48.7610 C   0  0  0  0  0  0  0  0  0  0  0  0
   61.8350   33.3070   47.5040 C   0  0  0  0  0  0  0  0  0  0  0  0
   61.2080   33.8650   46.3850 C   0  0  0  0  0  0  0  0  0  0  0  0
  1  2  2  0
  2  3  1  0
  3  4  1  0
  4  5  1  0
  5  6  2  0
  5  7  1  0
  7  8  1  0
  8  9  1  0
  9 10  2  0
  9 11  1  0
 11 12  2  0
 12 13  1  0
 13 14  2  0
 14 15  1  0
 15 16  2  0
 16 17  1  0
  2 18  1  0
 18 19  1  0
 19 20  1  0
 20 21  2  0
 21 22  1  0
 22 23  2  0
 23 24  1  0
 24 25  2  0
 16 11  1  0
 25 20  1  0
M  CHG  4   4  -1   8  -1  17  -1  18  -1
M  END
>  <UniqueID>  (680) 
9

>  <SMILES>  (680) 
O=C(C[N-]C(=O)C[N-]C(=O)c1ccccc1[O-])[N-]Cc1ccccc1

>  <Energy>  (680) 
37.55108874249747

>  <Genealogy>  (680) 
O=C(C[N-]C(=O)C[N-]C(=O)c1ccccc1[O-])[N-]Cc1ccccc1 (protonated)
O=C(C[N-]C(=O)C[N-]C(=O)c1ccccc1[O-])[N-]Cc1ccccc1 (3D coordinates assigned)
O=C(C[N-]C(=O)C[N-]C(=O)c1ccccc1[O-])[N-]Cc1ccccc1 (optimized conformer: 37.55108874249747 kcal/mol)

>  <smiles>  (680) 
O=C(CNC(=O)CNC(=O)c1ccccc1O)NCc1ccccc1

>  <score_type>  (680) 
oracle

>  <origin>  (680) 
adg

>  <m_score__min__energy>  (680) 
-15.720000000000001

>  <m_primary>  (680) 
energy

$$$$
13:0
     RDKit          3D

 34 37  0  0  0  0  0  0  0  0999 V2000
   51.0180   32.3400   49.9160 N   0  0  0  0  0  0  0  0  0  0  0  0
   51.3490   32.2300   51.2980 C   0  0  0  0  0  0  0  0  0  0  0  0
   51.0170   33.1570   52.0880 O   0  0  0  0  0  0  0  0  0  0  0  0
   52.0680   31.0370   51.8050 C   0  0  0  0  0  0  0  0  0  0  0  0
   51.3720   30.0280   52.4970 C   0  0  0  0  0  0  0  0  0  0  0  0
   52.0490   28.9180   53.0000 C   0  0  0  0  0  0  0  0  0  0  0  0
   53.4290   28.8000   52.8220 C   0  0  0  0  0  0  0  0  0  0  0  0
   54.1460   29.7990   52.1400 C   0  0  0  0  0  0  0  0  0  0  0  0
   55.5710   29.7310   51.9840 N   0  0  0  0  0  0  0  0  0  0  0  0
   56.6900   30.2250   53.2170 S   0  0  0  0  0  0  0  0  0  0  0  0
   57.4470   29.0320   53.7270 O   0  0  0  0  0  0  0  0  0  0  0  0
   55.9360   30.8530   54.3550 O   0  0  0  0  0  0  0  0  0  0  0  0
   57.8190   31.3650   52.4930 C   0  0  0  0  0  0  0  0  0  0  0  0
   58.7160   30.9080   51.5190 C   0  0  0  0  0  0  0  0  0  0  0  0
   59.4670   31.8160   50.7720 C   0  0  0  0  0  0  0  0  0  0  0  0
   59.3320   33.1960   50.9950 C   0  0  0  0  0  0  0  0  0  0  0  0
   59.9660   34.1800   50.0530 C   0  0  0  0  0  0  0  0  0  0  0  0
   59.4320   33.9750   48.7080 N   0  0  0  0  0  0  0  0  0  0  0  0
   59.9590   32.9760   47.8230 C   0  0  0  0  0  0  0  0  0  0  0  0
   61.1260   32.5370   48.0050 O   0  0  0  0  0  0  0  0  0  0  0  0
   59.1370   32.4510   46.7130 C   0  0  0  0  0  0  0  0  0  0  0  0
   58.6210   33.3070   45.7230 C   0  0  0  0  0  0  0  0  0  0  0  0
   57.8630   32.7790   44.6720 C   0  0  0  0  0  0  0  0  0  0  0  0
   57.4020   33.5560   43.7930 O   0  0  0  0  0  0  0  0  0  0  0  0
   57.6310   31.3930   44.6060 C   0  0  0  0  0  0  0  0  0  0  0  0
   56.8840   30.8100   43.5650 C   0  0  0  0  0  0  0  0  0  0  0  0
   56.6790   29.4270   43.5380 C   0  0  0  0  0  0  0  0  0  0  0  0
   57.2140   28.6170   44.5450 C   0  0  0  0  0  0  0  0  0  0  0  0
   57.9590   29.1840   45.5810 C   0  0  0  0  0  0  0  0  0  0  0  0
   58.1700   30.5680   45.6190 C   0  0  0  0  0  0  0  0  0  0  0  0
   58.8980   31.1140   46.6280 N   0  0  0  0  0  0  0  0  0  0  0  0
   58.4690   33.6510   52.0060 C   0  0  0  0  0  0  0  0  0  0  0  0
   57.7200   32.7400   52.7550 C   0  0  0  0  0  0  0  0  0  0  0  0
   53.4590   30.9030   51.6200 C   0  0  0  0  0  0  0  0  0  0  0  0
  1  2  1  0
  2  3  2  0
  2  4  1  0
  4  5  2  0
  5  6  1  0
  6  7  2  0
  7  8  1  0
  8  9  1  0
  9 10  1  0
 10 11  2  0
 10 12  2  0
 10 13  1  0
 13 14  2  0
 14 15  1  0
 15 16  2  0
 16 17  1  0
 17 18  1  0
 18 19  1  0
 19 20  2  0
 19 21  1  0
 21 22  2  0
 22 23  1  0
 23 24  2  0
 23 25  1  0
 25 26  2  0
 26 27  1  0
 27 28  2  0
 28 29  1  0
 29 30  2  0
 30 31  1  0
 16 32  1  0
 32 33  2  0
  8 34  2  0
 34  4  1  0
 33 13  1  0
 31 21  1  0
 30 25  1  0
M  CHG  3   1  -1   9  -1  31  -1
M  END
>  <UniqueID>  (681) 
13

>  <SMILES>  (681) 
[NH-]C(=O)c1cccc([N-]S(=O)(=O)c2ccc(CNC(=O)c3cc(=O)c4ccccc4[n-]3)cc2)c1

>  <Energy>  (681) 
59.52325819564948

>  <Genealogy>  (681) 
[NH-]C(=O)c1cccc([N-]S(=O)(=O)c2ccc(CNC(=O)c3cc(=O)c4ccccc4[n-]3)cc2)c1 (protonated)
[NH-]C(=O)c1cccc([N-]S(=O)(=O)c2ccc(CNC(=O)c3cc(=O)c4ccccc4[n-]3)cc2)c1 (3D coordinates assigned)
[NH-]C(=O)c1cccc([N-]S(=O)(=O)c2ccc(CNC(=O)c3cc(=O)c4ccccc4[n-]3)cc2)c1 (optimized conformer: 59.52325819564948 kcal/mol)

>  <smiles>  (681) 
NC(=O)c1cccc(NS(=O)(=O)c2ccc(CNC(=O)c3cc(=O)c4ccccc4[nH]3)cc2)c1

>  <score_type>  (681) 
oracle

>  <origin>  (681) 
adg

>  <m_score__min__energy>  (681) 
-15.27

>  <m_primary>  (681) 
energy

$$$$
21:0
     RDKit          3D

 22 23  0  0  0  0  0  0  0  0999 V2000
   55.4690   29.6930   44.8190 O   0  0  0  0  0  0  0  0  0  0  0  0
   56.6940   29.8990   45.0250 C   0  0  0  0  0  0  0  0  0  0  0  0
   57.5180   28.7960   45.6390 C   0  0  0  0  0  0  0  0  0  0  0  0
   57.4030   27.4880   44.8460 C   0  0  0  0  0  0  0  0  0  0  0  0
   57.2450   26.2900   45.7560 C   0  0  0  0  0  0  0  0  0  0  0  0
   55.9880   25.9300   46.2730 C   0  0  0  0  0  0  0  0  0  0  0  0
   54.8580   26.6900   45.9940 O   0  0  0  0  0  0  0  0  0  0  0  0
   55.8660   24.8260   47.0550 N   0  0  0  0  0  0  0  0  0  0  0  0
   56.9400   24.0510   47.3480 C   0  0  0  0  0  0  0  0  0  0  0  0
   56.8020   23.0330   48.0740 O   0  0  0  0  0  0  0  0  0  0  0  0
   58.1630   24.3700   46.8540 N   0  0  0  0  0  0  0  0  0  0  0  0
   58.3410   25.4620   46.0670 C   0  0  0  0  0  0  0  0  0  0  0  0
   59.4900   25.7190   45.6190 O   0  0  0  0  0  0  0  0  0  0  0  0
   57.2550   31.1570   44.6270 N   0  0  0  0  0  0  0  0  0  0  0  0
   56.9330   32.4670   45.1880 C   0  0  0  0  0  0  0  0  0  0  0  0
   58.1800   33.1880   45.6260 C   0  0  0  0  0  0  0  0  0  0  0  0
   58.3670   34.5410   45.2970 C   0  0  0  0  0  0  0  0  0  0  0  0
   59.5350   35.2060   45.6870 C   0  0  0  0  0  0  0  0  0  0  0  0
   60.5260   34.5240   46.3990 C   0  0  0  0  0  0  0  0  0  0  0  0
   60.3540   33.1730   46.7170 C   0  0  0  0  0  0  0  0  0  0  0  0
   61.7110   32.2390   47.6830 Br  0  0  0  0  0  0  0  0  0  0  0  0
   59.1890   32.5040   46.3260 C   0  0  0  0  0  0  0  0  0  0  0  0
  1  2  2  0
  2  3  1  0
  3  4  1  0
  4  5  1  0
  5  6  2  0
  6  7  1  0
  6  8  1  0
  8  9  1  0
  9 10  2  0
  9 11  1  0
 11 12  1  0
 12 13  2  0
  2 14  1  0
 14 15  1  0
 15 16  1  0
 16 17  2  0
 17 18  1  0
 18 19  2  0
 19 20  1  0
 20 21  1  0
 20 22  2  0
 12  5  1  0
 22 16  1  0
M  CHG  4   7  -1   8  -1  11  -1  14  -1
M  END
>  <UniqueID>  (682) 
21

>  <SMILES>  (682) 
O=C(CCc1c([O-])[n-]c(=O)[n-]c1=O)[N-]Cc1cccc(Br)c1

>  <Energy>  (682) 
29.412437390317887

>  <Genealogy>  (682) 
O=C(CCc1c([O-])[n-]c(=O)[n-]c1=O)[N-]Cc1cccc(Br)c1 (protonated)
O=C(CCc1c([O-])[n-]c(=O)[n-]c1=O)[N-]Cc1cccc(Br)c1 (3D coordinates assigned)
O=C(CCc1c([O-])[n-]c(=O)[n-]c1=O)[N-]Cc1cccc(Br)c1 (optimized conformer: 29.412437390317887 kcal/mol)

>  <smiles>  (682) 
O=C(CCc1c(O)[nH]c(=O)[nH]c1=O)NCc1cccc(Br)c1

>  <score_type>  (682) 
oracle

>  <origin>  (682) 
adg

>  <m_score__min__energy>  (682) 
-17.039999999999999

>  <m_primary>  (682) 
energy

$$$$
52:0
     RDKit          3D

 32 34  0  0  0  0  0  0  0  0999 V2000
   55.3810   21.4070   50.1550 C   0  0  0  0  0  0  0  0  0  0  0  0
   55.0620   20.7570   48.8080 C   0  0  0  0  0  0  0  0  0  0  0  0
   55.0550   21.7620   47.7360 N   0  0  0  0  0  0  0  0  0  0  0  0
   53.8030   22.4710   47.4190 C   0  0  0  0  0  0  0  0  0  0  0  0
   53.0140   21.7370   46.3330 C   0  0  0  0  0  0  0  0  0  0  0  0
   56.2920   22.1390   47.1000 C   0  0  0  0  0  0  0  0  0  0  0  0
   57.3810   22.0390   47.7320 O   0  0  0  0  0  0  0  0  0  0  0  0
   56.3200   22.6200   45.7040 C   0  0  0  0  0  0  0  0  0  0  0  0
   56.5540   21.6750   44.6910 C   0  0  0  0  0  0  0  0  0  0  0  0
   56.6420   22.0720   43.3550 C   0  0  0  0  0  0  0  0  0  0  0  0
   56.5070   23.4170   43.0160 C   0  0  0  0  0  0  0  0  0  0  0  0
   56.2760   24.3700   44.0120 C   0  0  0  0  0  0  0  0  0  0  0  0
   56.1730   23.9920   45.3660 C   0  0  0  0  0  0  0  0  0  0  0  0
   55.8480   25.0370   46.3740 C   0  0  0  0  0  0  0  0  0  0  0  0
   55.6840   24.7320   47.5860 O   0  0  0  0  0  0  0  0  0  0  0  0
   55.7170   26.4040   45.9610 N   0  0  0  0  0  0  0  0  0  0  0  0
   56.7930   27.2710   45.5620 C   0  0  0  0  0  0  0  0  0  0  0  0
   58.1370   26.8780   45.6930 C   0  0  0  0  0  0  0  0  0  0  0  0
   59.1650   27.7640   45.3660 C   0  0  0  0  0  0  0  0  0  0  0  0
   58.8660   29.0520   44.9200 C   0  0  0  0  0  0  0  0  0  0  0  0
   57.5300   29.4670   44.7970 C   0  0  0  0  0  0  0  0  0  0  0  0
   57.2010   31.1260   44.2880 S   0  0  0  0  0  0  0  0  0  0  0  0
   55.8930   31.6020   44.8640 O   0  0  0  0  0  0  0  0  0  0  0  0
   57.0890   31.1490   42.7850 O   0  0  0  0  0  0  0  0  0  0  0  0
   58.5300   32.1450   44.8180 N   0  0  0  0  0  0  0  0  0  0  0  0
   58.8010   31.9980   46.2640 C   0  0  0  0  0  0  0  0  0  0  0  0
   58.0910   33.0750   47.1130 C   0  0  0  0  0  0  0  0  0  0  0  0
   56.9060   33.5020   46.4770 O   0  0  0  0  0  0  0  0  0  0  0  0
   57.2190   34.2220   45.2940 C   0  0  0  0  0  0  0  0  0  0  0  0
   58.3280   33.5560   44.4470 C   0  0  0  0  0  0  0  0  0  0  0  0
   56.4920   28.5730   45.1280 C   0  0  0  0  0  0  0  0  0  0  0  0
   55.1590   28.9660   45.0330 O   0  0  0  0  0  0  0  0  0  0  0  0
  1  2  1  0
  2  3  1  0
  3  4  1  0
  4  5  1  0
  3  6  1  0
  6  7  2  0
  6  8  1  0
  8  9  2  0
  9 10  1  0
 10 11  2  0
 11 12  1  0
 12 13  2  0
 13 14  1  0
 14 15  2  0
 14 16  1  0
 16 17  1  0
 17 18  2  0
 18 19  1  0
 19 20  2  0
 20 21  1  0
 21 22  1  0
 22 23  2  0
 22 24  2  0
 22 25  1  0
 25 26  1  0
 26 27  1  0
 27 28  1  0
 28 29  1  0
 29 30  1  0
 21 31  2  0
 31 32  1  0
 13  8  1  0
 31 17  1  0
 30 25  1  0
M  CHG  2  16  -1  32  -1
M  END
>  <UniqueID>  (683) 
50

>  <SMILES>  (683) 
CCN(CC)C(=O)c1ccccc1C(=O)[N-]c1cccc(S(=O)(=O)N2CCOCC2)c1[O-]

>  <Energy>  (683) 
79.32239576889411

>  <Genealogy>  (683) 
CCN(CC)C(=O)c1ccccc1C(=O)[N-]c1cccc(S(=O)(=O)N2CCOCC2)c1[O-] (protonated)
CCN(CC)C(=O)c1ccccc1C(=O)[N-]c1cccc(S(=O)(=O)N2CCOCC2)c1[O-] (3D coordinates assigned)
CCN(CC)C(=O)c1ccccc1C(=O)[N-]c1cccc(S(=O)(=O)N2CCOCC2)c1[O-] (nonaromatic ring conformer: 79.32239576889411 kcal/mol)

>  <smiles>  (683) 
CCN(CC)C(=O)c1ccccc1C(=O)Nc1cccc(S(=O)(=O)N2CCOCC2)c1O

>  <score_type>  (683) 
oracle

>  <origin>  (683) 
adg

>  <m_score__min__energy>  (683) 
-15.199999999999999

>  <m_primary>  (683) 
energy

$$$$
91:0
     RDKit          3D

 31 33  0  0  0  0  0  0  0  0999 V2000
   59.6340   29.6140   45.6540 C   0  0  0  0  0  0  0  0  0  0  0  0
   60.0030   30.6160   46.6740 C   0  0  0  0  0  0  0  0  0  0  0  0
   60.6260   31.6630   46.3520 O   0  0  0  0  0  0  0  0  0  0  0  0
   59.6670   30.3380   48.0440 N   0  0  0  0  0  0  0  0  0  0  0  0
   60.2930   29.6400   48.9560 C   0  0  0  0  0  0  0  0  0  0  0  0
   60.0190   28.2780   49.2070 C   0  0  0  0  0  0  0  0  0  0  0  0
   60.7260   27.6000   50.2010 C   0  0  0  0  0  0  0  0  0  0  0  0
   61.6850   28.2400   50.9160 N   0  0  0  0  0  0  0  0  0  0  0  0
   61.9870   29.5440   50.6950 C   0  0  0  0  0  0  0  0  0  0  0  0
   61.3040   30.2730   49.7110 C   0  0  0  0  0  0  0  0  0  0  0  0
   61.7250   31.9720   49.4380 S   0  0  0  0  0  0  0  0  0  0  0  0
   62.4430   32.0950   48.1240 O   0  0  0  0  0  0  0  0  0  0  0  0
   62.6210   32.4730   50.5360 O   0  0  0  0  0  0  0  0  0  0  0  0
   60.2890   32.9370   49.4010 N   0  0  0  0  0  0  0  0  0  0  0  0
   60.5380   34.0070   48.6000 O   0  0  0  0  0  0  0  0  0  0  0  0
   59.2910   34.5830   48.2950 C   0  0  0  0  0  0  0  0  0  0  0  0
   58.8240   34.1650   46.9260 C   0  0  0  0  0  0  0  0  0  0  0  0
   59.4950   34.6190   45.7780 C   0  0  0  0  0  0  0  0  0  0  0  0
   59.0440   34.2480   44.5070 C   0  0  0  0  0  0  0  0  0  0  0  0
   57.9160   33.4340   44.3730 C   0  0  0  0  0  0  0  0  0  0  0  0
   57.2350   32.9920   45.5100 C   0  0  0  0  0  0  0  0  0  0  0  0
   57.6830   33.3590   46.7840 C   0  0  0  0  0  0  0  0  0  0  0  0
   58.3840   29.2370   45.3430 C   0  0  0  0  0  0  0  0  0  0  0  0
   57.7630   27.9530   45.7280 C   0  0  0  0  0  0  0  0  0  0  0  0
   58.5910   26.8840   46.1000 C   0  0  0  0  0  0  0  0  0  0  0  0
   58.0350   25.6480   46.4430 C   0  0  0  0  0  0  0  0  0  0  0  0
   56.6520   25.4640   46.3970 C   0  0  0  0  0  0  0  0  0  0  0  0
   55.8190   26.5140   45.9980 C   0  0  0  0  0  0  0  0  0  0  0  0
   54.4430   26.3190   45.9400 O   0  0  0  0  0  0  0  0  0  0  0  0
   56.3680   27.7550   45.6540 C   0  0  0  0  0  0  0  0  0  0  0  0
   55.5300   28.7800   45.2270 O   0  0  0  0  0  0  0  0  0  0  0  0
  1  2  1  0
  2  3  2  0
  2  4  1  0
  4  5  2  0
  5  6  1  0
  6  7  2  0
  7  8  1  0
  8  9  1  0
  9 10  2  0
 10 11  1  0
 11 12  2  0
 11 13  2  0
 11 14  1  0
 14 15  1  0
 15 16  1  0
 16 17  1  0
 17 18  2  0
 18 19  1  0
 19 20  2  0
 20 21  1  0
 21 22  2  0
  1 23  2  3
 23 24  1  0
 24 25  2  0
 25 26  1  0
 26 27  2  0
 27 28  1  0
 28 29  1  0
 28 30  2  0
 30 31  1  0
 10  5  1  0
 22 17  1  0
 30 24  1  0
M  CHG  4   8  -1  14  -1  29  -1  31  -1
M  END
>  <UniqueID>  (684) 
87

>  <SMILES>  (684) 
O=C(C=Cc1cccc([O-])c1[O-])/N=c1\cc[n-]cc1S(=O)(=O)[N-]OCc1ccccc1

>  <Energy>  (684) 
63.27245747290762

>  <Genealogy>  (684) 
O=C(C=Cc1cccc([O-])c1[O-])N=c1cc[n-]cc1S(=O)(=O)[N-]OCc1ccccc1 (protonated)
O=C(C=Cc1cccc([O-])c1[O-])/N=c1\cc[n-]cc1S(=O)(=O)[N-]OCc1ccccc1 (cis-trans isomerization)
O=C(C=Cc1cccc([O-])c1[O-])/N=c1\cc[n-]cc1S(=O)(=O)[N-]OCc1ccccc1 (3D coordinates assigned)
O=C(C=Cc1cccc([O-])c1[O-])/N=c1\cc[n-]cc1S(=O)(=O)[N-]OCc1ccccc1 (optimized conformer: 63.27245747290762 kcal/mol)

>  <smiles>  (684) 
O=C(C=Cc1cccc(O)c1O)N=c1cc[nH]cc1S(=O)(=O)NOCc1ccccc1

>  <score_type>  (684) 
oracle

>  <origin>  (684) 
adg

>  <m_score__min__energy>  (684) 
-17.98

>  <m_primary>  (684) 
energy

$$$$
8:0
     RDKit          3D

 27 28  0  0  0  0  0  0  0  0999 V2000
   57.7520   20.6800   46.3880 C   0  0  0  0  0  0  0  0  0  0  0  0
   56.5160   20.5520   45.9010 C   0  0  0  0  0  0  0  0  0  0  0  0
   56.2500   19.7840   44.6420 C   0  0  0  0  0  0  0  0  0  0  0  0
   55.9460   20.6870   43.5840 O   0  0  0  0  0  0  0  0  0  0  0  0
   56.3190   22.0330   43.6110 C   0  0  0  0  0  0  0  0  0  0  0  0
   57.3020   22.4380   42.9300 O   0  0  0  0  0  0  0  0  0  0  0  0
   55.5760   22.9500   44.4200 N   0  0  0  0  0  0  0  0  0  0  0  0
   55.9340   24.3650   44.5010 C   0  0  0  0  0  0  0  0  0  0  0  0
   55.2690   25.0190   45.6800 C   0  0  0  0  0  0  0  0  0  0  0  0
   54.5030   24.3320   46.4060 O   0  0  0  0  0  0  0  0  0  0  0  0
   55.4230   26.4170   45.9650 N   0  0  0  0  0  0  0  0  0  0  0  0
   56.5850   27.2210   45.7170 C   0  0  0  0  0  0  0  0  0  0  0  0
   57.8690   26.7690   46.0610 C   0  0  0  0  0  0  0  0  0  0  0  0
   58.9830   27.5760   45.8270 C   0  0  0  0  0  0  0  0  0  0  0  0
   58.8240   28.8490   45.2780 C   0  0  0  0  0  0  0  0  0  0  0  0
   57.5450   29.3380   44.9730 C   0  0  0  0  0  0  0  0  0  0  0  0
   57.3800   30.9750   44.3150 S   0  0  0  0  0  0  0  0  0  0  0  0
   57.5090   30.9130   42.8180 O   0  0  0  0  0  0  0  0  0  0  0  0
   56.0160   31.5190   44.6360 O   0  0  0  0  0  0  0  0  0  0  0  0
   58.5970   32.0630   44.9490 N   0  0  0  0  0  0  0  0  0  0  0  0
   58.5310   33.3970   44.3150 C   0  0  0  0  0  0  0  0  0  0  0  0
   57.8810   34.4420   45.2390 C   0  0  0  0  0  0  0  0  0  0  0  0
   58.5600   34.5990   46.4780 O   0  0  0  0  0  0  0  0  0  0  0  0
   59.1810   33.4080   46.9480 C   0  0  0  0  0  0  0  0  0  0  0  0
   58.5310   32.1190   46.4220 C   0  0  0  0  0  0  0  0  0  0  0  0
   56.4230   28.5120   45.1910 C   0  0  0  0  0  0  0  0  0  0  0  0
   55.1430   28.9590   44.8760 O   0  0  0  0  0  0  0  0  0  0  0  0
  1  2  2  0
  2  3  1  0
  3  4  1  0
  4  5  1  0
  5  6  2  0
  5  7  1  0
  7  8  1  0
  8  9  1  0
  9 10  2  0
  9 11  1  0
 11 12  1  0
 12 13  2  0
 13 14  1  0
 14 15  2  0
 15 16  1  0
 16 17  1  0
 17 18  2  0
 17 19  2  0
 17 20  1  0
 20 21  1  0
 21 22  1  0
 22 23  1  0
 23 24  1  0
 24 25  1  0
 16 26  2  0
 26 27  1  0
 26 12  1  0
 25 20  1  0
M  CHG  2  11  -1  27  -1
M  END
>  <UniqueID>  (685) 
9

>  <SMILES>  (685) 
C=CCOC(=O)NCC(=O)[N-]c1cccc(S(=O)(=O)N2CCOCC2)c1[O-]

>  <Energy>  (685) 
55.13929311433277

>  <Genealogy>  (685) 
C=CCOC(=O)NCC(=O)[N-]c1cccc(S(=O)(=O)N2CCOCC2)c1[O-] (protonated)
C=CCOC(=O)NCC(=O)[N-]c1cccc(S(=O)(=O)N2CCOCC2)c1[O-] (3D coordinates assigned)
C=CCOC(=O)NCC(=O)[N-]c1cccc(S(=O)(=O)N2CCOCC2)c1[O-] (nonaromatic ring conformer: 55.13929311433277 kcal/mol)

>  <smiles>  (685) 
C=CCOC(=O)NCC(=O)Nc1cccc(S(=O)(=O)N2CCOCC2)c1O

>  <score_type>  (685) 
oracle

>  <origin>  (685) 
adg

>  <m_score__min__energy>  (685) 
-14.1

>  <m_primary>  (685) 
energy

$$$$
57:0
     RDKit          3D

 23 25  0  0  0  0  0  0  0  0999 V2000
   58.4380   32.9210   53.8070 C   0  0  0  0  0  0  0  0  0  0  0  0
   57.9780   31.6860   54.2740 C   0  0  0  0  0  0  0  0  0  0  0  0
   57.3480   30.7810   53.4000 C   0  0  0  0  0  0  0  0  0  0  0  0
   56.8620   29.4690   53.8890 C   0  0  0  0  0  0  0  0  0  0  0  0
   57.6400   28.4770   53.8900 O   0  0  0  0  0  0  0  0  0  0  0  0
   55.4900   29.3250   54.2960 N   0  0  0  0  0  0  0  0  0  0  0  0
   54.4190   29.7690   53.7030 C   0  0  0  0  0  0  0  0  0  0  0  0
   54.2820   29.8770   52.0360 S   0  0  0  0  0  0  0  0  0  0  0  0
   52.7280   30.5320   52.0860 C   0  0  0  0  0  0  0  0  0  0  0  0
   51.9290   30.9060   50.8970 C   0  0  0  0  0  0  0  0  0  0  0  0
   51.8160   30.1500   49.7900 N   0  0  0  0  0  0  0  0  0  0  0  0
   51.0070   30.8750   48.9890 C   0  0  0  0  0  0  0  0  0  0  0  0
   50.6640   30.4860   47.8420 O   0  0  0  0  0  0  0  0  0  0  0  0
   50.5960   32.0470   49.5130 N   0  0  0  0  0  0  0  0  0  0  0  0
   51.1860   32.0550   50.7190 C   0  0  0  0  0  0  0  0  0  0  0  0
   51.0450   33.0920   51.6320 O   0  0  0  0  0  0  0  0  0  0  0  0
   52.3610   30.6590   53.4350 C   0  0  0  0  0  0  0  0  0  0  0  0
   51.0510   31.2220   53.9010 C   0  0  0  0  0  0  0  0  0  0  0  0
   53.3080   30.2370   54.3220 N   0  0  0  0  0  0  0  0  0  0  0  0
   57.1910   31.1420   52.0470 C   0  0  0  0  0  0  0  0  0  0  0  0
   57.6520   32.3790   51.5840 C   0  0  0  0  0  0  0  0  0  0  0  0
   58.2740   33.2680   52.4640 C   0  0  0  0  0  0  0  0  0  0  0  0
   58.7200   34.4670   52.0130 F   0  0  0  0  0  0  0  0  0  0  0  0
  1  2  2  0
  2  3  1  0
  3  4  1  0
  4  5  2  0
  4  6  1  0
  6  7  2  0
  7  8  1  0
  8  9  1  0
  9 10  1  0
 10 11  1  0
 11 12  1  0
 12 13  2  0
 12 14  1  0
 14 15  1  0
 15 16  1  0
  9 17  2  0
 17 18  1  0
 17 19  1  0
  3 20  2  0
 20 21  1  0
 21 22  2  0
 22 23  1  0
 22  1  1  0
 19  7  1  0
 15 10  2  0
M  CHG  3  11  -1  14  -1  16  -1
M  END
>  <UniqueID>  (686) 
57

>  <SMILES>  (686) 
Cc1[nH]/c(=N\C(=O)c2ccc(F)cc2)sc1-c1[n-]c(=O)[n-]c1[O-]

>  <Energy>  (686) 
99.56248796530332

>  <Genealogy>  (686) 
Cc1[nH]c(=NC(=O)c2ccc(F)cc2)sc1-c1[n-]c(=O)[n-]c1[O-] (protonated)
Cc1[nH]/c(=N\C(=O)c2ccc(F)cc2)sc1-c1[n-]c(=O)[n-]c1[O-] (cis-trans isomerization)
Cc1[nH]/c(=N\C(=O)c2ccc(F)cc2)sc1-c1[n-]c(=O)[n-]c1[O-] (3D coordinates assigned)
Cc1[nH]/c(=N\C(=O)c2ccc(F)cc2)sc1-c1[n-]c(=O)[n-]c1[O-] (optimized conformer: 99.56248796530332 kcal/mol)

>  <smiles>  (686) 
Cc1[nH]c(=NC(=O)c2ccc(F)cc2)sc1-c1[nH]c(=O)[nH]c1O

>  <score_type>  (686) 
oracle

>  <origin>  (686) 
adg

>  <m_score__min__energy>  (686) 
-15.449999999999999

>  <m_primary>  (686) 
energy

$$$$
59:0
     RDKit          3D

 29 31  0  0  0  0  0  0  0  0999 V2000
   59.7000   26.2080   46.1620 C   0  0  0  0  0  0  0  0  0  0  0  0
   58.2180   26.4200   46.0780 C   0  0  0  0  0  0  0  0  0  0  0  0
   57.3870   25.4020   46.4290 N   0  0  0  0  0  0  0  0  0  0  0  0
   56.0390   25.5390   46.3740 C   0  0  0  0  0  0  0  0  0  0  0  0
   55.2960   24.5780   46.7010 O   0  0  0  0  0  0  0  0  0  0  0  0
   55.4910   26.7120   45.9710 N   0  0  0  0  0  0  0  0  0  0  0  0
   56.2700   27.7640   45.6090 C   0  0  0  0  0  0  0  0  0  0  0  0
   55.7230   28.8450   45.2640 O   0  0  0  0  0  0  0  0  0  0  0  0
   57.6710   27.6410   45.6350 C   0  0  0  0  0  0  0  0  0  0  0  0
   58.5460   28.7810   45.2760 C   0  0  0  0  0  0  0  0  0  0  0  0
   58.4180   29.5240   44.1660 C   0  0  0  0  0  0  0  0  0  0  0  0
   57.1880   30.2410   43.7480 C   0  0  0  0  0  0  0  0  0  0  0  0
   56.5710   29.9020   42.7040 O   0  0  0  0  0  0  0  0  0  0  0  0
   56.7200   31.3840   44.4770 N   0  0  0  0  0  0  0  0  0  0  0  0
   57.5620   32.3890   45.0580 C   0  0  0  0  0  0  0  0  0  0  0  0
   57.7080   33.6030   44.3790 C   0  0  0  0  0  0  0  0  0  0  0  0
   58.5640   34.5880   44.8670 C   0  0  0  0  0  0  0  0  0  0  0  0
   59.2710   34.3760   46.0480 C   0  0  0  0  0  0  0  0  0  0  0  0
   59.1170   33.1810   46.7690 C   0  0  0  0  0  0  0  0  0  0  0  0
   59.8300   33.0340   48.0590 C   0  0  0  0  0  0  0  0  0  0  0  0
   59.1580   32.7840   49.0960 O   0  0  0  0  0  0  0  0  0  0  0  0
   61.3020   33.2030   48.1630 C   0  0  0  0  0  0  0  0  0  0  0  0
   62.1540   32.8150   47.1110 C   0  0  0  0  0  0  0  0  0  0  0  0
   63.5380   32.9710   47.2260 C   0  0  0  0  0  0  0  0  0  0  0  0
   64.0890   33.5110   48.3900 C   0  0  0  0  0  0  0  0  0  0  0  0
   63.2550   33.8910   49.4440 C   0  0  0  0  0  0  0  0  0  0  0  0
   61.8700   33.7360   49.3350 C   0  0  0  0  0  0  0  0  0  0  0  0
   58.2430   32.1780   46.2810 C   0  0  0  0  0  0  0  0  0  0  0  0
   58.0390   30.9630   47.0200 N   0  0  0  0  0  0  0  0  0  0  0  0
  1  2  1  0
  2  3  1  0
  3  4  1  0
  4  5  2  0
  4  6  1  0
  6  7  1  0
  7  8  2  0
  7  9  1  0
  9 10  1  0
 10 11  2  3
 11 12  1  0
 12 13  2  0
 12 14  1  0
 14 15  1  0
 15 16  2  0
 16 17  1  0
 17 18  2  0
 18 19  1  0
 19 20  1  0
 20 21  2  0
 20 22  1  0
 22 23  2  0
 23 24  1  0
 24 25  2  0
 25 26  1  0
 26 27  2  0
 19 28  2  0
 28 29  1  0
  9  2  2  0
 28 15  1  0
 27 22  1  0
M  CHG  3   3  -1   6  -1  14  -1
M  END
>  <UniqueID>  (687) 
58

>  <SMILES>  (687) 
Cc1[n-]c(=O)[n-]c(=O)c1C=CC(=O)[N-]c1cccc(C(=O)c2ccccc2)c1N

>  <Energy>  (687) 
72.67250063651043

>  <Genealogy>  (687) 
Cc1[n-]c(=O)[n-]c(=O)c1C=CC(=O)[N-]c1cccc(C(=O)c2ccccc2)c1N (protonated)
Cc1[n-]c(=O)[n-]c(=O)c1C=CC(=O)[N-]c1cccc(C(=O)c2ccccc2)c1N (3D coordinates assigned)
Cc1[n-]c(=O)[n-]c(=O)c1C=CC(=O)[N-]c1cccc(C(=O)c2ccccc2)c1N (optimized conformer: 72.67250063651043 kcal/mol)

>  <smiles>  (687) 
Cc1[nH]c(=O)[nH]c(=O)c1C=CC(=O)Nc1cccc(C(=O)c2ccccc2)c1N

>  <score_type>  (687) 
oracle

>  <origin>  (687) 
adg

>  <m_score__min__energy>  (687) 
-14.44

>  <m_primary>  (687) 
energy

$$$$
83:0
     RDKit          3D

 29 33  0  0  0  0  0  0  0  0999 V2000
   52.4270   30.9460   53.0250 C   0  0  0  0  0  0  0  0  0  0  0  0
   51.8160   31.1060   51.6960 C   0  0  0  0  0  0  0  0  0  0  0  0
   52.0530   30.2760   50.6660 N   0  0  0  0  0  0  0  0  0  0  0  0
   51.3790   30.8470   49.6430 C   0  0  0  0  0  0  0  0  0  0  0  0
   51.3480   30.3460   48.4900 O   0  0  0  0  0  0  0  0  0  0  0  0
   50.7510   32.0010   49.9520 N   0  0  0  0  0  0  0  0  0  0  0  0
   51.0480   32.1580   51.2520 C   0  0  0  0  0  0  0  0  0  0  0  0
   50.6600   33.2620   52.0030 O   0  0  0  0  0  0  0  0  0  0  0  0
   53.4920   30.1710   53.2780 C   0  0  0  0  0  0  0  0  0  0  0  0
   53.5480   29.1390   54.2090 C   0  0  0  0  0  0  0  0  0  0  0  0
   54.7880   28.5970   54.2240 N   0  0  0  0  0  0  0  0  0  0  0  0
   55.5160   29.2600   53.3380 N   0  0  0  0  0  0  0  0  0  0  0  0
   56.8340   29.1030   53.0230 C   0  0  0  0  0  0  0  0  0  0  0  0
   57.5880   28.1820   53.5580 N   0  0  0  0  0  0  0  0  0  0  0  0
   58.3460   28.2900   54.8010 C   0  0  0  0  0  0  0  0  0  0  0  0
   57.6190   29.1100   55.8510 C   0  0  0  0  0  0  0  0  0  0  0  0
   57.6920   27.5960   55.9830 C   0  0  0  0  0  0  0  0  0  0  0  0
   57.3770   29.9580   52.1080 N   0  0  0  0  0  0  0  0  0  0  0  0
   56.6210   30.9560   51.5450 C   0  0  0  0  0  0  0  0  0  0  0  0
   57.1680   31.8510   50.6170 O   0  0  0  0  0  0  0  0  0  0  0  0
   58.4710   32.3580   50.6870 C   0  0  0  0  0  0  0  0  0  0  0  0
   59.2900   32.2510   49.5560 C   0  0  0  0  0  0  0  0  0  0  0  0
   60.6040   32.7200   49.5870 C   0  0  0  0  0  0  0  0  0  0  0  0
   61.1090   33.3090   50.7480 C   0  0  0  0  0  0  0  0  0  0  0  0
   60.2950   33.4450   51.8750 C   0  0  0  0  0  0  0  0  0  0  0  0
   58.9640   32.9950   51.8520 C   0  0  0  0  0  0  0  0  0  0  0  0
   58.1020   33.1910   53.0680 C   0  0  0  0  0  0  0  0  0  0  0  0
   55.3050   31.0800   51.8730 N   0  0  0  0  0  0  0  0  0  0  0  0
   54.7730   30.2090   52.7600 C   0  0  0  0  0  0  0  0  0  0  0  0
  1  2  1  0
  2  3  1  0
  3  4  1  0
  4  5  2  0
  4  6  1  0
  6  7  1  0
  7  8  1  0
  1  9  2  0
  9 10  1  0
 10 11  2  0
 11 12  1  0
 12 13  1  0
 13 14  2  0
 14 15  1  0
 15 16  1  0
 16 17  1  0
 13 18  1  0
 18 19  2  0
 19 20  1  0
 20 21  1  0
 21 22  2  0
 22 23  1  0
 23 24  2  0
 24 25  1  0
 25 26  2  0
 26 27  1  0
 19 28  1  0
 28 29  2  0
  7  2  2  0
 29  9  1  0
 29 12  1  0
 17 15  1  0
 26 21  1  0
M  CHG  4   3  -1   6  -1   8  -1  18   1
M  END
>  <UniqueID>  (688) 
81

>  <SMILES>  (688) 
Cc1ccccc1Oc1nc2/c(=C\c3[n-]c(=O)[n-]c3[O-])cnn2/c(=N\C2CC2)[nH+]1

>  <Energy>  (688) 
398.63550089224134

>  <Genealogy>  (688) 
Cc1ccccc1Oc1nc2c(=Cc3[n-]c(=O)[n-]c3[O-])cnn2c(=NC2CC2)[nH+]1 (protonated)
Cc1ccccc1Oc1nc2/c(=C\c3[n-]c(=O)[n-]c3[O-])cnn2/c(=N\C2CC2)[nH+]1 (cis-trans isomerization)
Cc1ccccc1Oc1nc2/c(=C\c3[n-]c(=O)[n-]c3[O-])cnn2/c(=N\C2CC2)[nH+]1 (3D coordinates assigned)
Cc1ccccc1Oc1nc2/c(=C\c3[n-]c(=O)[n-]c3[O-])cnn2/c(=N\C2CC2)[nH+]1 (nonaromatic ring conformer: 398.63550089224134 kcal/mol)

>  <smiles>  (688) 
Cc1ccccc1Oc1nc(=NC2CC2)n2ncc(=Cc3[nH]c(=O)[nH]c3O)c2n1

>  <score_type>  (688) 
oracle

>  <origin>  (688) 
adg

>  <m_score__min__energy>  (688) 
-15.24

>  <m_primary>  (688) 
energy

$$$$
8:0
     RDKit          3D

 26 28  0  0  0  0  0  0  0  0999 V2000
   62.0300   34.2690   49.4480 C   0  0  0  0  0  0  0  0  0  0  0  0
   61.0610   33.9300   48.3540 C   0  0  0  0  0  0  0  0  0  0  0  0
   59.7510   33.5350   48.6660 C   0  0  0  0  0  0  0  0  0  0  0  0
   58.8370   33.2540   47.6450 C   0  0  0  0  0  0  0  0  0  0  0  0
   59.2180   33.3850   46.3020 C   0  0  0  0  0  0  0  0  0  0  0  0
   58.0760   33.0120   45.0150 S   0  0  0  0  0  0  0  0  0  0  0  0
   58.7120   33.2970   43.6830 O   0  0  0  0  0  0  0  0  0  0  0  0
   56.8490   33.8680   45.1660 O   0  0  0  0  0  0  0  0  0  0  0  0
   57.6320   31.3410   45.1010 N   0  0  0  0  0  0  0  0  0  0  0  0
   56.4090   30.8870   44.8610 N   0  0  0  0  0  0  0  0  0  0  0  0
   56.4460   29.5470   45.0230 C   0  0  0  0  0  0  0  0  0  0  0  0
   55.3450   28.7180   44.8570 O   0  0  0  0  0  0  0  0  0  0  0  0
   57.7180   29.1420   45.3750 C   0  0  0  0  0  0  0  0  0  0  0  0
   58.1500   27.8000   45.6330 N   0  0  0  0  0  0  0  0  0  0  0  0
   57.4600   26.9200   46.5770 C   0  0  0  0  0  0  0  0  0  0  0  0
   57.0610   25.6270   45.9090 C   0  0  0  0  0  0  0  0  0  0  0  0
   58.0620   24.7220   45.5100 C   0  0  0  0  0  0  0  0  0  0  0  0
   57.7260   23.5200   44.8840 C   0  0  0  0  0  0  0  0  0  0  0  0
   56.3880   23.2080   44.6420 C   0  0  0  0  0  0  0  0  0  0  0  0
   55.3830   24.1010   45.0200 C   0  0  0  0  0  0  0  0  0  0  0  0
   55.7060   25.3120   45.6450 C   0  0  0  0  0  0  0  0  0  0  0  0
   54.6630   26.1780   45.9830 O   0  0  0  0  0  0  0  0  0  0  0  0
   58.4430   30.3130   45.4130 C   0  0  0  0  0  0  0  0  0  0  0  0
   59.6670   30.4330   45.6920 O   0  0  0  0  0  0  0  0  0  0  0  0
   60.5230   33.7900   45.9900 C   0  0  0  0  0  0  0  0  0  0  0  0
   61.4360   34.0700   47.0100 C   0  0  0  0  0  0  0  0  0  0  0  0
  1  2  1  0
  2  3  2  0
  3  4  1  0
  4  5  2  0
  5  6  1  0
  6  7  2  0
  6  8  2  0
  6  9  1  0
  9 10  1  0
 10 11  1  0
 11 12  1  0
 11 13  2  0
 13 14  1  0
 14 15  1  0
 15 16  1  0
 16 17  2  0
 17 18  1  0
 18 19  2  0
 19 20  1  0
 20 21  2  0
 21 22  1  0
 13 23  1  0
 23 24  2  0
  5 25  1  0
 25 26  2  0
 26  2  1  0
 23  9  1  0
 21 16  1  0
M  CHG  2  10  -1  12  -1
M  END
>  <UniqueID>  (689) 
8

>  <SMILES>  (689) 
Cc1ccc(S(=O)(=O)n2[n-]c([O-])c(NCc3ccccc3O)c2=O)cc1

>  <Energy>  (689) 
80.33264453203944

>  <Genealogy>  (689) 
Cc1ccc(S(=O)(=O)n2[n-]c([O-])c(NCc3ccccc3O)c2=O)cc1 (protonated)
Cc1ccc(S(=O)(=O)n2[n-]c([O-])c(NCc3ccccc3O)c2=O)cc1 (3D coordinates assigned)
Cc1ccc(S(=O)(=O)n2[n-]c([O-])c(NCc3ccccc3O)c2=O)cc1 (optimized conformer: 80.33264453203944 kcal/mol)

>  <smiles>  (689) 
Cc1ccc(S(=O)(=O)n2[nH]c(O)c(NCc3ccccc3O)c2=O)cc1

>  <score_type>  (689) 
oracle

>  <origin>  (689) 
adg

>  <m_score__min__energy>  (689) 
-15.039999999999999

>  <m_primary>  (689) 
energy

$$$$
29:0
     RDKit          3D

 28 30  0  0  0  0  0  0  0  0999 V2000
   59.9510   28.0010   46.4120 O   0  0  0  0  0  0  0  0  0  0  0  0
   58.8820   27.3690   46.6320 C   0  0  0  0  0  0  0  0  0  0  0  0
   58.9460   26.0160   47.2710 C   0  0  0  0  0  0  0  0  0  0  0  0
   59.2680   24.7210   46.0260 S   0  0  0  0  0  0  0  0  0  0  0  0
   57.5540   24.5580   45.5320 C   0  0  0  0  0  0  0  0  0  0  0  0
   57.1680   23.5080   44.7600 N   0  0  0  0  0  0  0  0  0  0  0  0
   55.8720   23.3560   44.3850 C   0  0  0  0  0  0  0  0  0  0  0  0
   55.5350   22.3730   43.6760 O   0  0  0  0  0  0  0  0  0  0  0  0
   54.9180   24.2910   44.7900 C   0  0  0  0  0  0  0  0  0  0  0  0
   55.3340   25.3660   45.5770 C   0  0  0  0  0  0  0  0  0  0  0  0
   54.4160   26.3200   45.9960 O   0  0  0  0  0  0  0  0  0  0  0  0
   56.6390   25.4800   45.9330 N   0  0  0  0  0  0  0  0  0  0  0  0
   57.6090   27.9480   46.3030 N   0  0  0  0  0  0  0  0  0  0  0  0
   57.4400   29.0750   45.4260 C   0  0  0  0  0  0  0  0  0  0  0  0
   57.0090   28.9140   44.0970 C   0  0  0  0  0  0  0  0  0  0  0  0
   56.8310   30.0280   43.2740 C   0  0  0  0  0  0  0  0  0  0  0  0
   57.0670   31.3110   43.7680 C   0  0  0  0  0  0  0  0  0  0  0  0
   57.4720   31.4900   45.0970 C   0  0  0  0  0  0  0  0  0  0  0  0
   57.7730   33.1160   45.7030 S   0  0  0  0  0  0  0  0  0  0  0  0
   56.8650   34.0700   44.9780 O   0  0  0  0  0  0  0  0  0  0  0  0
   57.4610   33.1800   47.1730 O   0  0  0  0  0  0  0  0  0  0  0  0
   59.4470   33.5340   45.4110 N   0  0  0  0  0  0  0  0  0  0  0  0
   60.3580   32.8860   46.3820 C   0  0  0  0  0  0  0  0  0  0  0  0
   60.7960   33.8360   47.5120 C   0  0  0  0  0  0  0  0  0  0  0  0
   59.7600   34.7410   47.8180 O   0  0  0  0  0  0  0  0  0  0  0  0
   59.5740   35.6530   46.7490 C   0  0  0  0  0  0  0  0  0  0  0  0
   59.6400   34.9940   45.3490 C   0  0  0  0  0  0  0  0  0  0  0  0
   57.6520   30.3710   45.9230 C   0  0  0  0  0  0  0  0  0  0  0  0
  1  2  2  0
  2  3  1  0
  3  4  1  0
  4  5  1  0
  5  6  2  0
  6  7  1  0
  7  8  2  0
  7  9  1  0
  9 10  2  0
 10 11  1  0
 10 12  1  0
  2 13  1  0
 13 14  1  0
 14 15  2  0
 15 16  1  0
 16 17  2  0
 17 18  1  0
 18 19  1  0
 19 20  2  0
 19 21  2  0
 19 22  1  0
 22 23  1  0
 23 24  1  0
 24 25  1  0
 25 26  1  0
 26 27  1  0
 18 28  2  0
 12  5  1  0
 28 14  1  0
 27 22  1  0
M  CHG  2  11  -1  12  -1
M  END
>  <UniqueID>  (690) 
27

>  <SMILES>  (690) 
O=C(CSc1nc(=O)cc([O-])[n-]1)Nc1cccc(S(=O)(=O)N2CCOCC2)c1

>  <Energy>  (690) 
55.16502372047648

>  <Genealogy>  (690) 
O=C(CSc1nc(=O)cc([O-])[n-]1)Nc1cccc(S(=O)(=O)N2CCOCC2)c1 (protonated)
O=C(CSc1nc(=O)cc([O-])[n-]1)Nc1cccc(S(=O)(=O)N2CCOCC2)c1 (3D coordinates assigned)
O=C(CSc1nc(=O)cc([O-])[n-]1)Nc1cccc(S(=O)(=O)N2CCOCC2)c1 (nonaromatic ring conformer: 55.16502372047648 kcal/mol)

>  <smiles>  (690) 
O=C(CSc1nc(=O)cc(O)[nH]1)Nc1cccc(S(=O)(=O)N2CCOCC2)c1

>  <score_type>  (690) 
oracle

>  <origin>  (690) 
adg

>  <m_score__min__energy>  (690) 
-15.6

>  <m_primary>  (690) 
energy

$$$$
87:0
     RDKit          3D

 23 25  0  0  0  0  0  0  0  0999 V2000
   55.1440   29.3540   44.8170 N   0  0  0  0  0  0  0  0  0  0  0  0
   56.0600   29.8900   43.8650 C   0  0  0  0  0  0  0  0  0  0  0  0
   55.9950   29.5080   42.6670 O   0  0  0  0  0  0  0  0  0  0  0  0
   57.0810   30.8800   44.2700 C   0  0  0  0  0  0  0  0  0  0  0  0
   57.3750   32.0230   43.5030 C   0  0  0  0  0  0  0  0  0  0  0  0
   58.3500   32.8410   44.0600 C   0  0  0  0  0  0  0  0  0  0  0  0
   58.8520   32.1570   45.5100 S   0  0  0  0  0  0  0  0  0  0  0  0
   57.8560   30.8020   45.4290 C   0  0  0  0  0  0  0  0  0  0  0  0
   57.7080   29.8050   46.4490 N   0  0  0  0  0  0  0  0  0  0  0  0
   58.3410   28.5200   46.4930 C   0  0  0  0  0  0  0  0  0  0  0  0
   59.4270   28.3610   45.8740 O   0  0  0  0  0  0  0  0  0  0  0  0
   57.7510   27.3680   47.2600 C   0  0  0  0  0  0  0  0  0  0  0  0
   57.4470   26.2490   46.3660 N   0  0  0  0  0  0  0  0  0  0  0  0
   58.2860   25.2600   45.9860 C   0  0  0  0  0  0  0  0  0  0  0  0
   59.6220   25.1800   46.3610 O   0  0  0  0  0  0  0  0  0  0  0  0
   57.6210   24.3470   45.1920 C   0  0  0  0  0  0  0  0  0  0  0  0
   56.3240   24.7840   45.0930 C   0  0  0  0  0  0  0  0  0  0  0  0
   56.2430   25.9480   45.8300 C   0  0  0  0  0  0  0  0  0  0  0  0
   55.0930   26.7060   46.0160 O   0  0  0  0  0  0  0  0  0  0  0  0
   55.2490   24.0590   44.3500 C   0  0  0  0  0  0  0  0  0  0  0  0
   55.7860   22.8290   43.6460 C   0  0  0  0  0  0  0  0  0  0  0  0
   57.0640   22.3980   43.7430 C   0  0  0  0  0  0  0  0  0  0  0  0
   58.1310   23.0880   44.5700 C   0  0  0  0  0  0  0  0  0  0  0  0
  1  2  1  0
  2  3  2  0
  2  4  1  0
  4  5  1  0
  5  6  2  0
  6  7  1  0
  7  8  1  0
  8  9  1  0
  9 10  1  0
 10 11  2  0
 10 12  1  0
 12 13  1  0
 13 14  1  0
 14 15  1  0
 14 16  2  0
 16 17  1  0
 17 18  2  0
 18 19  1  0
 17 20  1  0
 20 21  1  0
 21 22  2  0
 22 23  1  0
  8  4  2  0
 18 13  1  0
 23 16  1  0
M  CHG  4   1  -1   9  -1  15  -1  19  -1
M  END
>  <UniqueID>  (691) 
79

>  <SMILES>  (691) 
[NH-]C(=O)c1ccsc1[N-]C(=O)Cn1c([O-])c2c(c1[O-])CC=CC2

>  <Energy>  (691) 
97.33378248384604

>  <Genealogy>  (691) 
[NH-]C(=O)c1ccsc1[N-]C(=O)Cn1c([O-])c2c(c1[O-])CC=CC2 (protonated)
[NH-]C(=O)c1ccsc1[N-]C(=O)Cn1c([O-])c2c(c1[O-])CC=CC2 (3D coordinates assigned)
[NH-]C(=O)c1ccsc1[N-]C(=O)Cn1c([O-])c2c(c1[O-])CC=CC2 (nonaromatic ring conformer: 97.33378248384604 kcal/mol)

>  <smiles>  (691) 
NC(=O)c1ccsc1NC(=O)Cn1c(O)c2c(c1O)CC=CC2

>  <score_type>  (691) 
oracle

>  <origin>  (691) 
adg

>  <m_score__min__energy>  (691) 
-16.079999999999998

>  <m_primary>  (691) 
energy

$$$$
93:0
     RDKit          3D

 27 29  0  0  0  0  0  0  0  0999 V2000
   56.2140   25.1830   47.1270 O   0  0  0  0  0  0  0  0  0  0  0  0
   56.6080   26.1790   46.4670 C   0  0  0  0  0  0  0  0  0  0  0  0
   55.7060   27.0680   45.9790 N   0  0  0  0  0  0  0  0  0  0  0  0
   56.1050   28.1510   45.2630 C   0  0  0  0  0  0  0  0  0  0  0  0
   55.1440   29.0330   44.7820 O   0  0  0  0  0  0  0  0  0  0  0  0
   57.4730   28.3700   45.0210 C   0  0  0  0  0  0  0  0  0  0  0  0
   57.9460   29.5470   44.1980 C   0  0  0  0  0  0  0  0  0  0  0  0
   57.8140   30.8280   44.9800 C   0  0  0  0  0  0  0  0  0  0  0  0
   57.1200   31.9220   44.4430 C   0  0  0  0  0  0  0  0  0  0  0  0
   56.9920   33.1020   45.1780 C   0  0  0  0  0  0  0  0  0  0  0  0
   57.5480   33.1980   46.4550 C   0  0  0  0  0  0  0  0  0  0  0  0
   58.2370   32.1110   47.0170 C   0  0  0  0  0  0  0  0  0  0  0  0
   58.7970   32.2430   48.3360 N   0  0  0  0  0  0  0  0  0  0  0  0
   59.7980   33.5700   48.8390 S   0  0  0  0  0  0  0  0  0  0  0  0
   59.2090   34.8550   48.3270 O   0  0  0  0  0  0  0  0  0  0  0  0
   59.8280   33.6100   50.3420 O   0  0  0  0  0  0  0  0  0  0  0  0
   61.4260   33.3880   48.1820 C   0  0  0  0  0  0  0  0  0  0  0  0
   62.4330   32.8210   48.9770 C   0  0  0  0  0  0  0  0  0  0  0  0
   63.7330   32.6910   48.4800 C   0  0  0  0  0  0  0  0  0  0  0  0
   64.0330   33.1230   47.1850 C   0  0  0  0  0  0  0  0  0  0  0  0
   63.0330   33.6800   46.3840 C   0  0  0  0  0  0  0  0  0  0  0  0
   61.7300   33.8120   46.8780 C   0  0  0  0  0  0  0  0  0  0  0  0
   60.7730   34.3490   46.0800 F   0  0  0  0  0  0  0  0  0  0  0  0
   58.3630   30.9250   46.2690 C   0  0  0  0  0  0  0  0  0  0  0  0
   58.3850   27.4280   45.5320 C   0  0  0  0  0  0  0  0  0  0  0  0
   59.6230   27.5590   45.3400 O   0  0  0  0  0  0  0  0  0  0  0  0
   57.9330   26.3610   46.2410 N   0  0  0  0  0  0  0  0  0  0  0  0
  1  2  2  0
  2  3  1  0
  3  4  1  0
  4  5  1  0
  4  6  2  0
  6  7  1  0
  7  8  1  0
  8  9  2  0
  9 10  1  0
 10 11  2  0
 11 12  1  0
 12 13  1  0
 13 14  1  0
 14 15  2  0
 14 16  2  0
 14 17  1  0
 17 18  2  0
 18 19  1  0
 19 20  2  0
 20 21  1  0
 21 22  2  0
 22 23  1  0
 12 24  2  0
  6 25  1  0
 25 26  2  0
 25 27  1  0
 27  2  1  0
 24  8  1  0
 22 17  1  0
M  CHG  3   3  -1   5  -1  27  -1
M  END
>  <UniqueID>  (692) 
85

>  <SMILES>  (692) 
O=c1[n-]c([O-])c(Cc2cccc(NS(=O)(=O)c3ccccc3F)c2)c(=O)[n-]1

>  <Energy>  (692) 
45.24750229650189

>  <Genealogy>  (692) 
O=c1[n-]c([O-])c(Cc2cccc(NS(=O)(=O)c3ccccc3F)c2)c(=O)[n-]1 (protonated)
O=c1[n-]c([O-])c(Cc2cccc(NS(=O)(=O)c3ccccc3F)c2)c(=O)[n-]1 (3D coordinates assigned)
O=c1[n-]c([O-])c(Cc2cccc(NS(=O)(=O)c3ccccc3F)c2)c(=O)[n-]1 (optimized conformer: 45.24750229650189 kcal/mol)

>  <smiles>  (692) 
O=c1[nH]c(O)c(Cc2cccc(NS(=O)(=O)c3ccccc3F)c2)c(=O)[nH]1

>  <score_type>  (692) 
oracle

>  <origin>  (692) 
adg

>  <m_score__min__energy>  (692) 
-16.309999999999999

>  <m_primary>  (692) 
energy

$$$$
1:0
     RDKit          3D

 27 29  0  0  0  0  0  0  0  0999 V2000
   58.2250   28.2570   46.3060 C   0  0  0  0  0  0  0  0  0  0  0  0
   57.4240   29.0240   45.2920 C   0  0  0  0  0  0  0  0  0  0  0  0
   57.9750   30.1520   44.6630 C   0  0  0  0  0  0  0  0  0  0  0  0
   57.2160   30.9070   43.7500 C   0  0  0  0  0  0  0  0  0  0  0  0
   57.7850   32.1140   43.1030 C   0  0  0  0  0  0  0  0  0  0  0  0
   58.3360   32.0070   41.9760 O   0  0  0  0  0  0  0  0  0  0  0  0
   57.7690   33.4010   43.7380 N   0  0  0  0  0  0  0  0  0  0  0  0
   58.3140   33.7120   45.0290 C   0  0  0  0  0  0  0  0  0  0  0  0
   57.5480   33.5940   46.2010 C   0  0  0  0  0  0  0  0  0  0  0  0
   58.1170   33.8760   47.4460 C   0  0  0  0  0  0  0  0  0  0  0  0
   59.4580   34.2860   47.5370 C   0  0  0  0  0  0  0  0  0  0  0  0
   60.0610   34.5810   48.8070 N   0  0  0  0  0  0  0  0  0  0  0  0
   61.3290   34.0650   49.2420 C   0  0  0  0  0  0  0  0  0  0  0  0
   62.3590   33.7910   48.3350 C   0  0  0  0  0  0  0  0  0  0  0  0
   63.5790   33.3190   48.8210 C   0  0  0  0  0  0  0  0  0  0  0  0
   64.5100   33.0830   48.0040 O   0  0  0  0  0  0  0  0  0  0  0  0
   63.7590   33.1230   50.1670 N   0  0  0  0  0  0  0  0  0  0  0  0
   65.0570   32.6510   50.6790 C   0  0  0  0  0  0  0  0  0  0  0  0
   62.7510   33.4510   51.0370 C   0  0  0  0  0  0  0  0  0  0  0  0
   62.9100   33.3350   52.2830 O   0  0  0  0  0  0  0  0  0  0  0  0
   61.5620   33.9100   50.5680 N   0  0  0  0  0  0  0  0  0  0  0  0
   60.1990   34.4670   46.3600 C   0  0  0  0  0  0  0  0  0  0  0  0
   59.6310   34.1800   45.1160 C   0  0  0  0  0  0  0  0  0  0  0  0
   55.9090   30.4970   43.4450 C   0  0  0  0  0  0  0  0  0  0  0  0
   55.3570   29.3760   44.0690 C   0  0  0  0  0  0  0  0  0  0  0  0
   56.1030   28.6450   44.9960 C   0  0  0  0  0  0  0  0  0  0  0  0
   55.5270   27.5430   45.6190 O   0  0  0  0  0  0  0  0  0  0  0  0
  1  2  1  0
  2  3  2  0
  3  4  1  0
  4  5  1  0
  5  6  2  0
  5  7  1  0
  7  8  1  0
  8  9  2  0
  9 10  1  0
 10 11  2  0
 11 12  1  0
 12 13  1  0
 13 14  2  0
 14 15  1  0
 15 16  2  0
 15 17  1  0
 17 18  1  0
 17 19  1  0
 19 20  2  0
 19 21  1  0
 11 22  1  0
 22 23  2  0
  4 24  2  0
 24 25  1  0
 25 26  2  0
 26 27  1  0
 26  2  1  0
 23  8  1  0
 21 13  1  0
M  CHG  3   7  -1  21  -1  27  -1
M  END
>  <UniqueID>  (693) 
2

>  <SMILES>  (693) 
Cc1cc(C(=O)[N-]c2ccc(Nc3cc(=O)n(C)c(=O)[n-]3)cc2)ccc1[O-]

>  <Energy>  (693) 
60.152379863676984

>  <Genealogy>  (693) 
Cc1cc(C(=O)[N-]c2ccc(Nc3cc(=O)n(C)c(=O)[n-]3)cc2)ccc1[O-] (protonated)
Cc1cc(C(=O)[N-]c2ccc(Nc3cc(=O)n(C)c(=O)[n-]3)cc2)ccc1[O-] (3D coordinates assigned)
Cc1cc(C(=O)[N-]c2ccc(Nc3cc(=O)n(C)c(=O)[n-]3)cc2)ccc1[O-] (optimized conformer: 60.152379863676984 kcal/mol)

>  <smiles>  (693) 
Cc1cc(C(=O)Nc2ccc(Nc3cc(=O)n(C)c(=O)[nH]3)cc2)ccc1O

>  <score_type>  (693) 
oracle

>  <origin>  (693) 
adg

>  <m_score__min__energy>  (693) 
-14.06

>  <m_primary>  (693) 
energy

$$$$
9:0
     RDKit          3D

 32 34  0  0  0  0  0  0  0  0999 V2000
   57.6710   26.3640   45.0220 C   0  0  0  0  0  0  0  0  0  0  0  0
   57.8380   27.2340   46.0300 C   0  0  0  0  0  0  0  0  0  0  0  0
   57.8290   28.7000   45.8080 C   0  0  0  0  0  0  0  0  0  0  0  0
   56.6710   29.3210   45.3310 C   0  0  0  0  0  0  0  0  0  0  0  0
   55.5390   28.5740   45.0230 O   0  0  0  0  0  0  0  0  0  0  0  0
   56.6360   30.6660   45.1840 N   0  0  0  0  0  0  0  0  0  0  0  0
   57.7040   31.4430   45.4890 C   0  0  0  0  0  0  0  0  0  0  0  0
   57.6020   32.6940   45.3650 O   0  0  0  0  0  0  0  0  0  0  0  0
   58.8710   30.8750   45.9330 N   0  0  0  0  0  0  0  0  0  0  0  0
   60.0030   31.7340   46.3430 C   0  0  0  0  0  0  0  0  0  0  0  0
   59.7620   32.3450   47.7320 C   0  0  0  0  0  0  0  0  0  0  0  0
   59.7620   31.2920   48.8170 C   0  0  0  0  0  0  0  0  0  0  0  0
   58.5860   31.0670   49.5520 C   0  0  0  0  0  0  0  0  0  0  0  0
   58.5690   30.1700   50.6260 C   0  0  0  0  0  0  0  0  0  0  0  0
   57.3700   30.0000   51.3340 O   0  0  0  0  0  0  0  0  0  0  0  0
   56.6730   31.0490   51.9980 C   0  0  0  0  0  0  0  0  0  0  0  0
   59.7450   29.4800   50.9620 C   0  0  0  0  0  0  0  0  0  0  0  0
   60.9210   29.6960   50.2400 C   0  0  0  0  0  0  0  0  0  0  0  0
   60.9450   30.6100   49.1700 C   0  0  0  0  0  0  0  0  0  0  0  0
   62.1260   30.8760   48.4570 O   0  0  0  0  0  0  0  0  0  0  0  0
   63.0810   31.8680   48.8160 C   0  0  0  0  0  0  0  0  0  0  0  0
   58.9540   29.5090   46.0640 C   0  0  0  0  0  0  0  0  0  0  0  0
   60.0430   28.9700   46.4080 O   0  0  0  0  0  0  0  0  0  0  0  0
   56.7280   25.2200   45.0500 C   0  0  0  0  0  0  0  0  0  0  0  0
   55.7090   25.2230   46.0170 C   0  0  0  0  0  0  0  0  0  0  0  0
   54.7890   24.1760   46.0830 C   0  0  0  0  0  0  0  0  0  0  0  0
   54.8660   23.1140   45.1790 C   0  0  0  0  0  0  0  0  0  0  0  0
   53.9450   22.0760   45.2580 O   0  0  0  0  0  0  0  0  0  0  0  0
   55.8620   23.0940   44.1940 C   0  0  0  0  0  0  0  0  0  0  0  0
   55.8940   22.0120   43.2990 O   0  0  0  0  0  0  0  0  0  0  0  0
   56.6190   20.8060   43.5160 C   0  0  0  0  0  0  0  0  0  0  0  0
   56.7910   24.1540   44.1290 C   0  0  0  0  0  0  0  0  0  0  0  0
  1  2  2  0
  2  3  1  0
  3  4  2  0
  4  5  1  0
  4  6  1  0
  6  7  1  0
  7  8  2  0
  7  9  1  0
  9 10  1  0
 10 11  1  0
 11 12  1  0
 12 13  2  0
 13 14  1  0
 14 15  1  0
 15 16  1  0
 14 17  2  0
 17 18  1  0
 18 19  2  0
 19 20  1  0
 20 21  1  0
  9 22  1  0
 22 23  2  0
  1 24  1  0
 24 25  2  0
 25 26  1  0
 26 27  2  0
 27 28  1  0
 27 29  1  0
 29 30  1  0
 30 31  1  0
 29 32  2  0
 22  3  1  0
 32 24  1  0
 19 12  1  0
M  CHG  3   5  -1   6  -1  28  -1
M  END
>  <UniqueID>  (694) 
10

>  <SMILES>  (694) 
COc1ccc(OC)c(CCn2c(=O)[n-]c([O-])c(/C=C/c3ccc([O-])c(OC)c3)c2=O)c1

>  <Energy>  (694) 
60.37840665361716

>  <Genealogy>  (694) 
COc1ccc(OC)c(CCn2c(=O)[n-]c([O-])c(C=Cc3ccc([O-])c(OC)c3)c2=O)c1 (protonated)
COc1ccc(OC)c(CCn2c(=O)[n-]c([O-])c(/C=C/c3ccc([O-])c(OC)c3)c2=O)c1 (cis-trans isomerization)
COc1ccc(OC)c(CCn2c(=O)[n-]c([O-])c(/C=C/c3ccc([O-])c(OC)c3)c2=O)c1 (3D coordinates assigned)
COc1ccc(OC)c(CCn2c(=O)[n-]c([O-])c(/C=C/c3ccc([O-])c(OC)c3)c2=O)c1 (optimized conformer: 60.37840665361716 kcal/mol)

>  <smiles>  (694) 
COc1ccc(OC)c(CCn2c(=O)[nH]c(O)c(C=Cc3ccc(O)c(OC)c3)c2=O)c1

>  <score_type>  (694) 
oracle

>  <origin>  (694) 
adg

>  <m_score__min__energy>  (694) 
-14.56

>  <m_primary>  (694) 
energy

$$$$
15:0
     RDKit          3D

 23 25  0  0  0  0  0  0  0  0999 V2000
   58.6800   26.5590   46.1640 C   0  0  0  0  0  0  0  0  0  0  0  0
   57.9480   27.6160   45.7220 N   0  0  0  0  0  0  0  0  0  0  0  0
   56.5870   27.5760   45.6420 C   0  0  0  0  0  0  0  0  0  0  0  0
   55.8960   28.6060   45.2420 N   0  0  0  0  0  0  0  0  0  0  0  0
   56.3580   29.8760   44.7440 C   0  0  0  0  0  0  0  0  0  0  0  0
   55.4980   30.7180   44.3730 O   0  0  0  0  0  0  0  0  0  0  0  0
   57.8160   30.2360   44.6020 C   0  0  0  0  0  0  0  0  0  0  0  0
   58.1470   31.6130   45.1400 C   0  0  0  0  0  0  0  0  0  0  0  0
   57.3900   32.7130   44.7060 C   0  0  0  0  0  0  0  0  0  0  0  0
   57.6940   34.0020   45.1470 C   0  0  0  0  0  0  0  0  0  0  0  0
   58.7720   34.2140   46.0080 C   0  0  0  0  0  0  0  0  0  0  0  0
   59.5690   33.1360   46.4280 C   0  0  0  0  0  0  0  0  0  0  0  0
   60.6860   33.3590   47.3120 N   0  0  0  0  0  0  0  0  0  0  0  0
   60.6740   34.1290   48.5020 C   0  0  0  0  0  0  0  0  0  0  0  0
   59.6270   34.6280   48.9990 O   0  0  0  0  0  0  0  0  0  0  0  0
   61.9990   34.2180   49.1480 C   0  0  0  0  0  0  0  0  0  0  0  0
   62.9200   33.4870   48.1620 C   0  0  0  0  0  0  0  0  0  0  0  0
   62.0150   32.7980   47.1240 C   0  0  0  0  0  0  0  0  0  0  0  0
   59.2430   31.8380   45.9980 C   0  0  0  0  0  0  0  0  0  0  0  0
   55.9140   26.4080   46.0360 C   0  0  0  0  0  0  0  0  0  0  0  0
   54.5260   26.3340   45.9780 O   0  0  0  0  0  0  0  0  0  0  0  0
   56.6490   25.3100   46.4930 C   0  0  0  0  0  0  0  0  0  0  0  0
   58.0400   25.3840   46.5580 C   0  0  0  0  0  0  0  0  0  0  0  0
  1  2  1  0
  2  3  1  0
  3  4  2  0
  4  5  1  0
  5  6  2  0
  5  7  1  0
  7  8  1  0
  8  9  2  0
  9 10  1  0
 10 11  2  0
 11 12  1  0
 12 13  1  0
 13 14  1  0
 14 15  2  0
 14 16  1  0
 16 17  1  0
 17 18  1  0
 12 19  2  0
  3 20  1  0
 20 21  1  0
 20 22  2  0
 22 23  1  0
 23  1  2  0
 19  8  1  0
 18 13  1  0
M  CHG  2   2  -1  21  -1
M  END
>  <UniqueID>  (695) 
15

>  <SMILES>  (695) 
O=C(Cc1cccc(N2CCCC2=O)c1)/N=c1\[n-]cccc1[O-]

>  <Energy>  (695) 
56.50781848746039

>  <Genealogy>  (695) 
O=C(Cc1cccc(N2CCCC2=O)c1)N=c1[n-]cccc1[O-] (protonated)
O=C(Cc1cccc(N2CCCC2=O)c1)/N=c1\[n-]cccc1[O-] (cis-trans isomerization)
O=C(Cc1cccc(N2CCCC2=O)c1)/N=c1\[n-]cccc1[O-] (3D coordinates assigned)
O=C(Cc1cccc(N2CCCC2=O)c1)/N=c1\[n-]cccc1[O-] (nonaromatic ring conformer: 56.50781848746039 kcal/mol)

>  <smiles>  (695) 
O=C(Cc1cccc(N2CCCC2=O)c1)N=c1[nH]cccc1O

>  <score_type>  (695) 
oracle

>  <origin>  (695) 
adg

>  <m_score__min__energy>  (695) 
-14.23

>  <m_primary>  (695) 
energy

$$$$
24:0
     RDKit          3D

 23 24  0  0  0  0  0  0  0  0999 V2000
   59.5020   34.7880   47.3230 C   0  0  0  0  0  0  0  0  0  0  0  0
   58.8670   33.8320   46.3570 C   0  0  0  0  0  0  0  0  0  0  0  0
   58.0720   34.3080   45.3030 C   0  0  0  0  0  0  0  0  0  0  0  0
   57.4400   33.4110   44.4360 C   0  0  0  0  0  0  0  0  0  0  0  0
   57.5690   32.0320   44.6370 C   0  0  0  0  0  0  0  0  0  0  0  0
   56.7450   30.8770   43.5350 S   0  0  0  0  0  0  0  0  0  0  0  0
   56.4490   29.5820   44.7970 C   0  0  0  0  0  0  0  0  0  0  0  0
   57.5590   28.5270   44.8220 C   0  0  0  0  0  0  0  0  0  0  0  0
   57.1780   27.3600   45.6150 N   0  0  0  0  0  0  0  0  0  0  0  0
   57.4830   26.0150   45.2130 C   0  0  0  0  0  0  0  0  0  0  0  0
   58.1420   25.7970   44.1620 O   0  0  0  0  0  0  0  0  0  0  0  0
   57.0540   24.8580   46.0640 C   0  0  0  0  0  0  0  0  0  0  0  0
   55.6660   24.4100   45.6740 C   0  0  0  0  0  0  0  0  0  0  0  0
   54.5930   25.3180   45.6480 C   0  0  0  0  0  0  0  0  0  0  0  0
   54.7770   26.6470   46.0080 O   0  0  0  0  0  0  0  0  0  0  0  0
   53.3590   24.8990   45.2660 N   0  0  0  0  0  0  0  0  0  0  0  0
   53.1360   23.6130   44.8970 C   0  0  0  0  0  0  0  0  0  0  0  0
   51.9830   23.2490   44.5490 O   0  0  0  0  0  0  0  0  0  0  0  0
   54.1580   22.7200   44.8980 N   0  0  0  0  0  0  0  0  0  0  0  0
   55.4120   23.0860   45.2710 C   0  0  0  0  0  0  0  0  0  0  0  0
   56.3360   22.2290   45.2500 O   0  0  0  0  0  0  0  0  0  0  0  0
   58.3680   31.5530   45.6810 C   0  0  0  0  0  0  0  0  0  0  0  0
   59.0090   32.4480   46.5430 C   0  0  0  0  0  0  0  0  0  0  0  0
  1  2  1  0
  2  3  2  0
  3  4  1  0
  4  5  2  0
  5  6  1  0
  6  7  1  0
  7  8  1  0
  8  9  1  0
  9 10  1  0
 10 11  2  0
 10 12  1  0
 12 13  1  0
 13 14  2  0
 14 15  1  0
 14 16  1  0
 16 17  1  0
 17 18  2  0
 17 19  1  0
 19 20  1  0
 20 21  2  0
  5 22  1  0
 22 23  2  0
 23  2  1  0
 20 13  1  0
M  CHG  3  15  -1  16  -1  19  -1
M  END
>  <UniqueID>  (696) 
24

>  <SMILES>  (696) 
Cc1ccc(SCCNC(=O)Cc2c([O-])[n-]c(=O)[n-]c2=O)cc1

>  <Energy>  (696) 
28.463966398122963

>  <Genealogy>  (696) 
Cc1ccc(SCCNC(=O)Cc2c([O-])[n-]c(=O)[n-]c2=O)cc1 (protonated)
Cc1ccc(SCCNC(=O)Cc2c([O-])[n-]c(=O)[n-]c2=O)cc1 (3D coordinates assigned)
Cc1ccc(SCCNC(=O)Cc2c([O-])[n-]c(=O)[n-]c2=O)cc1 (optimized conformer: 28.463966398122963 kcal/mol)

>  <smiles>  (696) 
Cc1ccc(SCCNC(=O)Cc2c(O)[nH]c(=O)[nH]c2=O)cc1

>  <score_type>  (696) 
oracle

>  <origin>  (696) 
adg

>  <m_score__min__energy>  (696) 
-14.85

>  <m_primary>  (696) 
energy

$$$$
31:0
     RDKit          3D

 27 30  0  0  0  0  0  0  0  0999 V2000
   63.6730   31.9660   48.9040 C   0  0  0  0  0  0  0  0  0  0  0  0
   62.5730   32.8000   48.3170 C   0  0  0  0  0  0  0  0  0  0  0  0
   62.5820   33.1230   46.9520 C   0  0  0  0  0  0  0  0  0  0  0  0
   61.5750   33.9280   46.4110 C   0  0  0  0  0  0  0  0  0  0  0  0
   60.5580   34.4390   47.2330 C   0  0  0  0  0  0  0  0  0  0  0  0
   59.4460   35.2580   46.6400 C   0  0  0  0  0  0  0  0  0  0  0  0
   58.5810   34.3900   45.7850 C   0  0  0  0  0  0  0  0  0  0  0  0
   57.2560   34.2420   45.9700 N   0  0  0  0  0  0  0  0  0  0  0  0
   56.8970   33.3470   45.1010 O   0  0  0  0  0  0  0  0  0  0  0  0
   57.9460   32.9520   44.4210 C   0  0  0  0  0  0  0  0  0  0  0  0
   57.9130   31.9050   43.3540 C   0  0  0  0  0  0  0  0  0  0  0  0
   57.8140   30.5630   43.9620 N   0  0  0  0  0  0  0  0  0  0  0  0
   56.3960   30.2070   44.2000 C   0  0  0  0  0  0  0  0  0  0  0  0
   56.2410   28.9560   45.0960 C   0  0  0  0  0  0  0  0  0  0  0  0
   57.5450   28.1470   45.1590 C   0  0  0  0  0  0  0  0  0  0  0  0
   57.3830   26.9370   45.9800 N   0  0  0  0  0  0  0  0  0  0  0  0
   56.2490   26.3090   46.3460 C   0  0  0  0  0  0  0  0  0  0  0  0
   54.9660   26.7090   45.9930 O   0  0  0  0  0  0  0  0  0  0  0  0
   56.5570   25.2210   47.1260 C   0  0  0  0  0  0  0  0  0  0  0  0
   57.8970   25.1480   47.2670 N   0  0  0  0  0  0  0  0  0  0  0  0
   58.3570   26.2030   46.5610 C   0  0  0  0  0  0  0  0  0  0  0  0
   59.5840   26.4710   46.4600 O   0  0  0  0  0  0  0  0  0  0  0  0
   58.7140   29.0160   45.6740 C   0  0  0  0  0  0  0  0  0  0  0  0
   58.5900   30.4810   45.2160 C   0  0  0  0  0  0  0  0  0  0  0  0
   59.0660   33.5860   44.8170 N   0  0  0  0  0  0  0  0  0  0  0  0
   60.5530   34.1200   48.6000 C   0  0  0  0  0  0  0  0  0  0  0  0
   61.5600   33.3150   49.1410 C   0  0  0  0  0  0  0  0  0  0  0  0
  1  2  1  0
  2  3  2  0
  3  4  1  0
  4  5  2  0
  5  6  1  0
  6  7  1  0
  7  8  2  0
  8  9  1  0
  9 10  1  0
 10 11  1  0
 11 12  1  0
 12 13  1  0
 13 14  1  0
 14 15  1  0
 15 16  1  0
 16 17  1  0
 17 18  1  0
 17 19  2  0
 19 20  1  0
 20 21  1  0
 21 22  2  0
 15 23  1  0
 23 24  1  0
 10 25  2  0
  5 26  1  0
 26 27  2  0
 27  2  1  0
 25  7  1  0
 24 12  1  0
 21 16  1  0
M  CHG  2  18  -1  20  -1
M  END
>  <UniqueID>  (697) 
31

>  <SMILES>  (697) 
Cc1ccc(Cc2noc(CN3CCC(n4c([O-])c[n-]c4=O)CC3)n2)cc1

>  <Energy>  (697) 
118.41096934652437

>  <Genealogy>  (697) 
Cc1ccc(Cc2noc(CN3CCC(n4c([O-])c[n-]c4=O)CC3)n2)cc1 (protonated)
Cc1ccc(Cc2noc(CN3CCC(n4c([O-])c[n-]c4=O)CC3)n2)cc1 (3D coordinates assigned)
Cc1ccc(Cc2noc(CN3CCC(n4c([O-])c[n-]c4=O)CC3)n2)cc1 (nonaromatic ring conformer: 118.41096934652437 kcal/mol)

>  <smiles>  (697) 
Cc1ccc(Cc2noc(CN3CCC(n4c(O)c[nH]c4=O)CC3)n2)cc1

>  <score_type>  (697) 
oracle

>  <origin>  (697) 
adg

>  <m_score__min__energy>  (697) 
-14.84

>  <m_primary>  (697) 
energy

$$$$
48:0
     RDKit          3D

 27 28  0  0  0  0  0  0  0  0999 V2000
   59.2760   35.0200   44.8690 C   0  0  0  0  0  0  0  0  0  0  0  0
   59.1960   34.3550   46.2180 C   0  0  0  0  0  0  0  0  0  0  0  0
   60.1970   34.6300   47.1650 C   0  0  0  0  0  0  0  0  0  0  0  0
   60.1820   34.0040   48.4140 C   0  0  0  0  0  0  0  0  0  0  0  0
   59.1710   33.0960   48.7310 C   0  0  0  0  0  0  0  0  0  0  0  0
   58.1590   32.8280   47.8070 C   0  0  0  0  0  0  0  0  0  0  0  0
   58.1410   33.4740   46.5630 C   0  0  0  0  0  0  0  0  0  0  0  0
   57.0690   33.1800   45.6590 N   0  0  0  0  0  0  0  0  0  0  0  0
   57.1830   32.2850   44.5500 C   0  0  0  0  0  0  0  0  0  0  0  0
   57.5940   32.7310   43.4460 O   0  0  0  0  0  0  0  0  0  0  0  0
   56.7950   30.9120   44.6880 N   0  0  0  0  0  0  0  0  0  0  0  0
   57.4910   29.8910   45.4180 C   0  0  0  0  0  0  0  0  0  0  0  0
   58.6520   30.1640   46.1620 C   0  0  0  0  0  0  0  0  0  0  0  0
   59.2890   29.1410   46.8740 C   0  0  0  0  0  0  0  0  0  0  0  0
   58.7610   27.8410   46.8710 C   0  0  0  0  0  0  0  0  0  0  0  0
   59.4630   26.7330   47.6090 C   0  0  0  0  0  0  0  0  0  0  0  0
   59.9720   25.7140   46.6400 C   0  0  0  0  0  0  0  0  0  0  0  0
   61.0630   25.9150   46.0360 O   0  0  0  0  0  0  0  0  0  0  0  0
   59.1930   24.5450   46.3660 N   0  0  0  0  0  0  0  0  0  0  0  0
   57.9050   24.5760   45.6790 C   0  0  0  0  0  0  0  0  0  0  0  0
   56.7670   24.2910   46.6600 C   0  0  0  0  0  0  0  0  0  0  0  0
   55.1750   24.5840   45.9040 S   0  0  0  0  0  0  0  0  0  0  0  0
   54.7630   26.2630   45.9920 N   0  0  0  0  0  0  0  0  0  0  0  0
   54.1250   23.7720   46.6110 O   0  0  0  0  0  0  0  0  0  0  0  0
   55.2340   24.1690   44.4620 O   0  0  0  0  0  0  0  0  0  0  0  0
   57.5930   27.5730   46.1400 C   0  0  0  0  0  0  0  0  0  0  0  0
   56.9580   28.5950   45.4280 C   0  0  0  0  0  0  0  0  0  0  0  0
  1  2  1  0
  2  3  2  0
  3  4  1  0
  4  5  2  0
  5  6  1  0
  6  7  2  0
  7  8  1  0
  8  9  1  0
  9 10  2  0
  9 11  1  0
 11 12  1  0
 12 13  2  0
 13 14  1  0
 14 15  2  0
 15 16  1  0
 16 17  1  0
 17 18  2  0
 17 19  1  0
 19 20  1  0
 20 21  1  0
 21 22  1  0
 22 23  1  0
 22 24  2  0
 22 25  2  0
 15 26  1  0
 26 27  2  0
  7  2  1  0
 27 12  1  0
M  CHG  4   8  -1  11  -1  19  -1  23  -1
M  END
>  <UniqueID>  (698) 
45

>  <SMILES>  (698) 
Cc1ccccc1[N-]C(=O)[N-]c1ccc(CC(=O)[N-]CCS([NH-])(=O)=O)cc1

>  <Energy>  (698) 
44.046756689873135

>  <Genealogy>  (698) 
Cc1ccccc1[N-]C(=O)[N-]c1ccc(CC(=O)[N-]CCS([NH-])(=O)=O)cc1 (protonated)
Cc1ccccc1[N-]C(=O)[N-]c1ccc(CC(=O)[N-]CCS([NH-])(=O)=O)cc1 (3D coordinates assigned)
Cc1ccccc1[N-]C(=O)[N-]c1ccc(CC(=O)[N-]CCS([NH-])(=O)=O)cc1 (optimized conformer: 44.046756689873135 kcal/mol)

>  <smiles>  (698) 
Cc1ccccc1NC(=O)Nc1ccc(CC(=O)NCCS(N)(=O)=O)cc1

>  <score_type>  (698) 
oracle

>  <origin>  (698) 
adg

>  <m_score__min__energy>  (698) 
-15.02

>  <m_primary>  (698) 
energy

$$$$
53:0
     RDKit          3D

 27 30  0  0  0  0  0  0  0  0999 V2000
   57.2860   33.4190   47.1530 O   0  0  0  0  0  0  0  0  0  0  0  0
   58.4750   33.3650   47.8890 C   0  0  0  0  0  0  0  0  0  0  0  0
   58.5470   32.0540   48.6180 C   0  0  0  0  0  0  0  0  0  0  0  0
   59.1150   30.9310   47.9980 C   0  0  0  0  0  0  0  0  0  0  0  0
   59.2110   29.7220   48.6880 C   0  0  0  0  0  0  0  0  0  0  0  0
   58.7540   29.6250   50.0040 C   0  0  0  0  0  0  0  0  0  0  0  0
   58.1990   30.7430   50.6520 C   0  0  0  0  0  0  0  0  0  0  0  0
   57.7380   30.6250   52.0560 C   0  0  0  0  0  0  0  0  0  0  0  0
   56.8760   29.6800   52.4780 N   0  0  0  0  0  0  0  0  0  0  0  0
   56.7680   29.9280   53.7990 C   0  0  0  0  0  0  0  0  0  0  0  0
   56.0340   29.2270   54.6080 N   0  0  0  0  0  0  0  0  0  0  0  0
   54.5270   28.5050   54.1390 S   0  0  0  0  0  0  0  0  0  0  0  0
   54.7870   27.4360   53.1170 O   0  0  0  0  0  0  0  0  0  0  0  0
   53.8800   27.8750   55.3420 O   0  0  0  0  0  0  0  0  0  0  0  0
   53.4670   29.7230   53.4350 C   0  0  0  0  0  0  0  0  0  0  0  0
   52.7740   30.6220   54.2800 C   0  0  0  0  0  0  0  0  0  0  0  0
   51.8730   31.5590   53.7430 C   0  0  0  0  0  0  0  0  0  0  0  0
   51.6810   31.5670   52.3630 C   0  0  0  0  0  0  0  0  0  0  0  0
   50.8500   32.3670   51.6700 N   0  0  0  0  0  0  0  0  0  0  0  0
   51.0190   31.9700   50.3860 C   0  0  0  0  0  0  0  0  0  0  0  0
   50.3350   32.5440   49.3220 O   0  0  0  0  0  0  0  0  0  0  0  0
   51.9380   30.9390   50.2570 C   0  0  0  0  0  0  0  0  0  0  0  0
   52.3530   30.6960   51.5440 C   0  0  0  0  0  0  0  0  0  0  0  0
   53.2570   29.7620   52.0400 C   0  0  0  0  0  0  0  0  0  0  0  0
   57.4920   30.9470   54.1950 O   0  0  0  0  0  0  0  0  0  0  0  0
   58.1110   31.4080   53.1360 C   0  0  0  0  0  0  0  0  0  0  0  0
   58.1050   31.9600   49.9490 C   0  0  0  0  0  0  0  0  0  0  0  0
  1  2  1  0
  2  3  1  0
  3  4  2  0
  4  5  1  0
  5  6  2  0
  6  7  1  0
  7  8  1  0
  8  9  1  0
  9 10  1  0
 10 11  2  0
 11 12  1  0
 12 13  2  0
 12 14  2  0
 12 15  1  0
 15 16  2  0
 16 17  1  0
 17 18  2  0
 18 19  1  0
 19 20  1  0
 20 21  1  0
 20 22  2  0
 22 23  1  0
 23 24  2  0
 10 25  1  0
 25 26  1  0
  7 27  2  0
 27  3  1  0
 26  8  2  0
 24 15  1  0
 23 18  1  0
M  CHG  3   9  -1  19  -1  21  -1
M  END
>  <UniqueID>  (699) 
50

>  <SMILES>  (699) 
O=S(=O)(/N=c1\[n-]c(-c2cccc(CO)c2)co1)c1ccc2[n-]c([O-])cc2c1

>  <Energy>  (699) 
107.49859956680139

>  <Genealogy>  (699) 
O=S(=O)(N=c1[n-]c(-c2cccc(CO)c2)co1)c1ccc2[n-]c([O-])cc2c1 (protonated)
O=S(=O)(/N=c1\[n-]c(-c2cccc(CO)c2)co1)c1ccc2[n-]c([O-])cc2c1 (cis-trans isomerization)
O=S(=O)(/N=c1\[n-]c(-c2cccc(CO)c2)co1)c1ccc2[n-]c([O-])cc2c1 (3D coordinates assigned)
O=S(=O)(/N=c1\[n-]c(-c2cccc(CO)c2)co1)c1ccc2[n-]c([O-])cc2c1 (optimized conformer: 107.49859956680139 kcal/mol)

>  <smiles>  (699) 
O=S(=O)(N=c1[nH]c(-c2cccc(CO)c2)co1)c1ccc2[nH]c(O)cc2c1

>  <score_type>  (699) 
oracle

>  <origin>  (699) 
adg

>  <m_score__min__energy>  (699) 
-14.5

>  <m_primary>  (699) 
energy

$$$$
60:0
     RDKit          3D

 27 29  0  0  0  0  0  0  0  0999 V2000
   58.8960   30.2750   47.3820 C   0  0  0  0  0  0  0  0  0  0  0  0
   58.2870   30.5280   46.2130 C   0  0  0  0  0  0  0  0  0  0  0  0
   58.1410   29.6550   45.1270 C   0  0  0  0  0  0  0  0  0  0  0  0
   58.3730   28.3350   44.9970 C   0  0  0  0  0  0  0  0  0  0  0  0
   57.5140   27.2590   45.5330 C   0  0  0  0  0  0  0  0  0  0  0  0
   56.1260   27.4190   45.6140 C   0  0  0  0  0  0  0  0  0  0  0  0
   55.5220   28.6120   45.2320 O   0  0  0  0  0  0  0  0  0  0  0  0
   55.3570   26.3980   46.0600 N   0  0  0  0  0  0  0  0  0  0  0  0
   55.8960   25.2080   46.4270 C   0  0  0  0  0  0  0  0  0  0  0  0
   55.1300   24.2890   46.8230 O   0  0  0  0  0  0  0  0  0  0  0  0
   57.2530   25.0120   46.3610 N   0  0  0  0  0  0  0  0  0  0  0  0
   57.8300   23.7060   46.7210 C   0  0  0  0  0  0  0  0  0  0  0  0
   58.0620   26.0160   45.8850 C   0  0  0  0  0  0  0  0  0  0  0  0
   59.3050   25.8290   45.7660 O   0  0  0  0  0  0  0  0  0  0  0  0
   57.6700   30.4540   44.0990 C   0  0  0  0  0  0  0  0  0  0  0  0
   57.4940   31.7100   44.5460 N   0  0  0  0  0  0  0  0  0  0  0  0
   57.8490   31.7540   45.8220 N   0  0  0  0  0  0  0  0  0  0  0  0
   57.7340   32.9610   46.5920 C   0  0  0  0  0  0  0  0  0  0  0  0
   56.5910   33.3780   46.9220 O   0  0  0  0  0  0  0  0  0  0  0  0
   58.9040   33.6510   47.0490 N   0  0  0  0  0  0  0  0  0  0  0  0
   60.0810   33.8840   46.2210 C   0  0  0  0  0  0  0  0  0  0  0  0
   61.3350   33.7220   47.0380 C   0  0  0  0  0  0  0  0  0  0  0  0
   61.2730   33.6650   48.4400 C   0  0  0  0  0  0  0  0  0  0  0  0
   62.4400   33.4930   49.1900 C   0  0  0  0  0  0  0  0  0  0  0  0
   63.6750   33.3740   48.5460 C   0  0  0  0  0  0  0  0  0  0  0  0
   63.7440   33.4250   47.1510 C   0  0  0  0  0  0  0  0  0  0  0  0
   62.5790   33.5960   46.3980 C   0  0  0  0  0  0  0  0  0  0  0  0
  1  2  2  0
  2  3  1  0
  3  4  2  3
  4  5  1  0
  5  6  2  0
  6  7  1  0
  6  8  1  0
  8  9  1  0
  9 10  2  0
  9 11  1  0
 11 12  1  0
 11 13  1  0
 13 14  2  0
  3 15  1  0
 15 16  2  0
 16 17  1  0
 17 18  1  0
 18 19  2  0
 18 20  1  0
 20 21  1  0
 21 22  1  0
 22 23  2  0
 23 24  1  0
 24 25  2  0
 25 26  1  0
 26 27  2  0
 17  2  1  0
 27 22  1  0
 13  5  1  0
M  CHG  3   7  -1   8  -1  20  -1
M  END
>  <UniqueID>  (700) 
56

>  <SMILES>  (700) 
C=c1c(=Cc2c([O-])[n-]c(=O)n(C)c2=O)cnn1C(=O)[N-]Cc1ccccc1

>  <Energy>  (700) 
94.82963391698499

>  <Genealogy>  (700) 
C=c1c(=Cc2c([O-])[n-]c(=O)n(C)c2=O)cnn1C(=O)[N-]Cc1ccccc1 (protonated)
C=c1c(=Cc2c([O-])[n-]c(=O)n(C)c2=O)cnn1C(=O)[N-]Cc1ccccc1 (3D coordinates assigned)
C=c1c(=Cc2c([O-])[n-]c(=O)n(C)c2=O)cnn1C(=O)[N-]Cc1ccccc1 (optimized conformer: 94.82963391698499 kcal/mol)

>  <smiles>  (700) 
C=c1c(=Cc2c(O)[nH]c(=O)n(C)c2=O)cnn1C(=O)NCc1ccccc1

>  <score_type>  (700) 
oracle

>  <origin>  (700) 
adg

>  <m_score__min__energy>  (700) 
-14.91

>  <m_primary>  (700) 
energy

$$$$
81:0
     RDKit          3D

 23 24  0  0  0  0  0  0  0  0999 V2000
   55.5890   29.6030   52.3360 O   0  0  0  0  0  0  0  0  0  0  0  0
   55.4520   30.8440   52.1600 C   0  0  0  0  0  0  0  0  0  0  0  0
   56.6470   31.7390   52.2950 C   0  0  0  0  0  0  0  0  0  0  0  0
   57.7320   31.0170   52.8690 O   0  0  0  0  0  0  0  0  0  0  0  0
   58.6900   30.3340   52.1090 C   0  0  0  0  0  0  0  0  0  0  0  0
   58.5850   29.0950   51.8980 O   0  0  0  0  0  0  0  0  0  0  0  0
   59.8180   31.0990   51.4960 C   0  0  0  0  0  0  0  0  0  0  0  0
   59.4680   31.4940   50.0870 C   0  0  0  0  0  0  0  0  0  0  0  0
   59.2420   30.4990   49.1200 C   0  0  0  0  0  0  0  0  0  0  0  0
   58.9350   30.8500   47.8020 C   0  0  0  0  0  0  0  0  0  0  0  0
   58.8490   32.1960   47.4380 C   0  0  0  0  0  0  0  0  0  0  0  0
   59.0830   33.1930   48.3890 C   0  0  0  0  0  0  0  0  0  0  0  0
   59.4010   32.8480   49.7070 C   0  0  0  0  0  0  0  0  0  0  0  0
   59.6440   33.8340   50.6080 F   0  0  0  0  0  0  0  0  0  0  0  0
   54.1600   31.3990   51.8790 N   0  0  0  0  0  0  0  0  0  0  0  0
   52.9330   30.6190   52.0060 C   0  0  0  0  0  0  0  0  0  0  0  0
   52.0180   30.9190   50.8590 C   0  0  0  0  0  0  0  0  0  0  0  0
   51.9090   30.1470   49.7640 N   0  0  0  0  0  0  0  0  0  0  0  0
   51.0250   30.8200   48.9970 C   0  0  0  0  0  0  0  0  0  0  0  0
   50.6510   30.4050   47.8690 O   0  0  0  0  0  0  0  0  0  0  0  0
   50.5720   31.9740   49.5320 N   0  0  0  0  0  0  0  0  0  0  0  0
   51.2180   32.0260   50.7080 C   0  0  0  0  0  0  0  0  0  0  0  0
   51.0780   33.0630   51.6210 O   0  0  0  0  0  0  0  0  0  0  0  0
  1  2  2  0
  2  3  1  0
  3  4  1  0
  4  5  1  0
  5  6  2  0
  5  7  1  0
  7  8  1  0
  8  9  2  0
  9 10  1  0
 10 11  2  0
 11 12  1  0
 12 13  2  0
 13 14  1  0
  2 15  1  0
 15 16  1  0
 16 17  1  0
 17 18  1  0
 18 19  1  0
 19 20  2  0
 19 21  1  0
 21 22  1  0
 22 23  1  0
 13  8  1  0
 22 17  2  0
M  CHG  3  18  -1  21  -1  23  -1
M  END
>  <UniqueID>  (701) 
72

>  <SMILES>  (701) 
O=C(COC(=O)Cc1ccccc1F)NCc1[n-]c(=O)[n-]c1[O-]

>  <Energy>  (701) 
53.21847701655092

>  <Genealogy>  (701) 
O=C(COC(=O)Cc1ccccc1F)NCc1[n-]c(=O)[n-]c1[O-] (protonated)
O=C(COC(=O)Cc1ccccc1F)NCc1[n-]c(=O)[n-]c1[O-] (3D coordinates assigned)
O=C(COC(=O)Cc1ccccc1F)NCc1[n-]c(=O)[n-]c1[O-] (optimized conformer: 53.21847701655092 kcal/mol)

>  <smiles>  (701) 
O=C(COC(=O)Cc1ccccc1F)NCc1[nH]c(=O)[nH]c1O

>  <score_type>  (701) 
oracle

>  <origin>  (701) 
adg

>  <m_score__min__energy>  (701) 
-16.219999999999999

>  <m_primary>  (701) 
energy

$$$$
84:0
     RDKit          3D

 29 31  0  0  0  0  0  0  0  0999 V2000
   57.6170   30.7630   51.8510 C   0  0  0  0  0  0  0  0  0  0  0  0
   59.0070   30.5090   51.6710 O   0  0  0  0  0  0  0  0  0  0  0  0
   59.5870   30.0450   50.4800 C   0  0  0  0  0  0  0  0  0  0  0  0
   59.9930   28.7030   50.3310 C   0  0  0  0  0  0  0  0  0  0  0  0
   60.5750   28.2680   49.1400 C   0  0  0  0  0  0  0  0  0  0  0  0
   60.7560   29.1600   48.0840 C   0  0  0  0  0  0  0  0  0  0  0  0
   60.3570   30.4900   48.2150 C   0  0  0  0  0  0  0  0  0  0  0  0
   59.7750   30.9500   49.4130 C   0  0  0  0  0  0  0  0  0  0  0  0
   59.3610   32.3230   49.5610 N   0  0  0  0  0  0  0  0  0  0  0  0
   59.8480   33.5930   48.4820 S   0  0  0  0  0  0  0  0  0  0  0  0
   61.3100   33.4450   48.1690 O   0  0  0  0  0  0  0  0  0  0  0  0
   59.6210   34.9200   49.1510 O   0  0  0  0  0  0  0  0  0  0  0  0
   58.9350   33.4850   46.9800 C   0  0  0  0  0  0  0  0  0  0  0  0
   58.9870   34.5370   46.0570 C   0  0  0  0  0  0  0  0  0  0  0  0
   58.2910   34.4450   44.8500 C   0  0  0  0  0  0  0  0  0  0  0  0
   57.5280   33.3090   44.5630 C   0  0  0  0  0  0  0  0  0  0  0  0
   57.4440   32.2600   45.4960 C   0  0  0  0  0  0  0  0  0  0  0  0
   56.6910   31.0660   45.2340 N   0  0  0  0  0  0  0  0  0  0  0  0
   57.1770   29.8640   44.6230 C   0  0  0  0  0  0  0  0  0  0  0  0
   57.6350   29.8840   43.4480 O   0  0  0  0  0  0  0  0  0  0  0  0
   57.0870   28.5910   45.3610 C   0  0  0  0  0  0  0  0  0  0  0  0
   58.1760   28.0910   46.0900 C   0  0  0  0  0  0  0  0  0  0  0  0
   58.0260   26.8800   46.7690 C   0  0  0  0  0  0  0  0  0  0  0  0
   58.9840   26.4040   47.4330 O   0  0  0  0  0  0  0  0  0  0  0  0
   56.8440   26.2160   46.7170 N   0  0  0  0  0  0  0  0  0  0  0  0
   55.7960   26.7110   46.0100 C   0  0  0  0  0  0  0  0  0  0  0  0
   54.7080   26.0820   45.9740 O   0  0  0  0  0  0  0  0  0  0  0  0
   55.9220   27.8870   45.3410 N   0  0  0  0  0  0  0  0  0  0  0  0
   58.1650   32.3480   46.6930 C   0  0  0  0  0  0  0  0  0  0  0  0
  1  2  1  0
  2  3  1  0
  3  4  2  0
  4  5  1  0
  5  6  2  0
  6  7  1  0
  7  8  2  0
  8  9  1  0
  9 10  1  0
 10 11  2  0
 10 12  2  0
 10 13  1  0
 13 14  2  0
 14 15  1  0
 15 16  2  0
 16 17  1  0
 17 18  1  0
 18 19  1  0
 19 20  2  0
 19 21  1  0
 21 22  2  0
 22 23  1  0
 23 24  2  0
 23 25  1  0
 25 26  1  0
 26 27  2  0
 26 28  1  0
 17 29  2  0
  8  3  1  0
 29 13  1  0
 28 21  1  0
M  CHG  3  18  -1  25  -1  28  -1
M  END
>  <UniqueID>  (702) 
75

>  <SMILES>  (702) 
COc1ccccc1NS(=O)(=O)c1cccc([N-]C(=O)c2cc(=O)[n-]c(=O)[n-]2)c1

>  <Energy>  (702) 
52.263597491198745

>  <Genealogy>  (702) 
COc1ccccc1NS(=O)(=O)c1cccc([N-]C(=O)c2cc(=O)[n-]c(=O)[n-]2)c1 (protonated)
COc1ccccc1NS(=O)(=O)c1cccc([N-]C(=O)c2cc(=O)[n-]c(=O)[n-]2)c1 (3D coordinates assigned)
COc1ccccc1NS(=O)(=O)c1cccc([N-]C(=O)c2cc(=O)[n-]c(=O)[n-]2)c1 (optimized conformer: 52.263597491198745 kcal/mol)

>  <smiles>  (702) 
COc1ccccc1NS(=O)(=O)c1cccc(NC(=O)c2cc(=O)[nH]c(=O)[nH]2)c1

>  <score_type>  (702) 
oracle

>  <origin>  (702) 
adg

>  <m_score__min__energy>  (702) 
-14.77

>  <m_primary>  (702) 
energy

$$$$
87:0
     RDKit          3D

 30 32  0  0  0  0  0  0  0  0999 V2000
   59.3730   34.4610   45.0300 C   0  0  0  0  0  0  0  0  0  0  0  0
   58.5870   33.1950   45.1700 C   0  0  0  0  0  0  0  0  0  0  0  0
   58.0050   32.4970   44.1330 C   0  0  0  0  0  0  0  0  0  0  0  0
   57.2980   31.4870   44.7600 C   0  0  0  0  0  0  0  0  0  0  0  0
   56.4530   30.4850   44.0990 C   0  0  0  0  0  0  0  0  0  0  0  0
   55.4030   29.8490   44.8240 N   0  0  0  0  0  0  0  0  0  0  0  0
   56.6490   30.1880   42.8900 O   0  0  0  0  0  0  0  0  0  0  0  0
   57.4420   31.5820   46.0960 N   0  0  0  0  0  0  0  0  0  0  0  0
   58.2360   32.6140   46.3390 N   0  0  0  0  0  0  0  0  0  0  0  0
   58.5190   33.1030   47.6870 C   0  0  0  0  0  0  0  0  0  0  0  0
   59.8560   32.5990   48.1290 C   0  0  0  0  0  0  0  0  0  0  0  0
   60.0240   32.2310   49.3230 O   0  0  0  0  0  0  0  0  0  0  0  0
   60.9140   32.4570   47.1740 N   0  0  0  0  0  0  0  0  0  0  0  0
   61.8630   31.3520   47.2530 C   0  0  0  0  0  0  0  0  0  0  0  0
   61.1560   30.0630   46.9330 C   0  0  0  0  0  0  0  0  0  0  0  0
   60.9520   29.6740   45.6000 C   0  0  0  0  0  0  0  0  0  0  0  0
   60.3970   28.4250   45.3070 C   0  0  0  0  0  0  0  0  0  0  0  0
   60.0380   27.5500   46.3430 C   0  0  0  0  0  0  0  0  0  0  0  0
   59.4990   26.2110   46.0280 C   0  0  0  0  0  0  0  0  0  0  0  0
   60.3910   25.1240   46.0080 C   0  0  0  0  0  0  0  0  0  0  0  0
   59.9290   23.8300   45.7620 C   0  0  0  0  0  0  0  0  0  0  0  0
   58.5720   23.6060   45.5280 C   0  0  0  0  0  0  0  0  0  0  0  0
   57.6770   24.6770   45.5250 C   0  0  0  0  0  0  0  0  0  0  0  0
   58.1250   25.9880   45.7600 C   0  0  0  0  0  0  0  0  0  0  0  0
   56.9500   27.3100   45.6670 S   0  0  0  0  0  0  0  0  0  0  0  0
   55.3630   26.7000   45.9760 N   0  0  0  0  0  0  0  0  0  0  0  0
   57.2860   28.3790   46.6690 O   0  0  0  0  0  0  0  0  0  0  0  0
   56.9810   27.9230   44.2950 O   0  0  0  0  0  0  0  0  0  0  0  0
   60.2550   27.9320   47.6750 C   0  0  0  0  0  0  0  0  0  0  0  0
   60.8070   29.1820   47.9680 C   0  0  0  0  0  0  0  0  0  0  0  0
  1  2  1  0
  2  3  2  0
  3  4  1  0
  4  5  1  0
  5  6  1  0
  5  7  2  0
  4  8  2  0
  8  9  1  0
  9 10  1  0
 10 11  1  0
 11 12  2  0
 11 13  1  0
 13 14  1  0
 14 15  1  0
 15 16  2  0
 16 17  1  0
 17 18  2  0
 18 19  1  0
 19 20  2  0
 20 21  1  0
 21 22  2  0
 22 23  1  0
 23 24  2  0
 24 25  1  0
 25 26  1  0
 25 27  2  0
 25 28  2  0
 18 29  1  0
 29 30  2  0
  9  2  1  0
 30 15  1  0
 24 19  1  0
M  CHG  2   6  -1  26  -1
M  END
>  <UniqueID>  (703) 
78

>  <SMILES>  (703) 
Cc1cc(C([NH-])=O)nn1CC(=O)NCc1ccc(-c2ccccc2S([NH-])(=O)=O)cc1

>  <Energy>  (703) 
77.0931755166923

>  <Genealogy>  (703) 
Cc1cc(C([NH-])=O)nn1CC(=O)NCc1ccc(-c2ccccc2S([NH-])(=O)=O)cc1 (protonated)
Cc1cc(C([NH-])=O)nn1CC(=O)NCc1ccc(-c2ccccc2S([NH-])(=O)=O)cc1 (3D coordinates assigned)
Cc1cc(C([NH-])=O)nn1CC(=O)NCc1ccc(-c2ccccc2S([NH-])(=O)=O)cc1 (optimized conformer: 77.0931755166923 kcal/mol)

>  <smiles>  (703) 
Cc1cc(C(N)=O)nn1CC(=O)NCc1ccc(-c2ccccc2S(N)(=O)=O)cc1

>  <score_type>  (703) 
oracle

>  <origin>  (703) 
adg

>  <m_score__min__energy>  (703) 
-14.800000000000001

>  <m_primary>  (703) 
energy

$$$$
3:0
     RDKit          3D

 28 30  0  0  0  0  0  0  0  0999 V2000
   60.4360   34.2800   48.1260 C   0  0  0  0  0  0  0  0  0  0  0  0
   60.8940   33.2220   47.1090 C   0  0  0  0  0  0  0  0  0  0  0  0
   62.0920   33.7160   46.2830 C   0  0  0  0  0  0  0  0  0  0  0  0
   59.7580   32.8470   46.1900 C   0  0  0  0  0  0  0  0  0  0  0  0
   59.1030   33.6720   45.4970 O   0  0  0  0  0  0  0  0  0  0  0  0
   59.4780   31.4500   46.2150 N   0  0  0  0  0  0  0  0  0  0  0  0
   58.2980   30.8030   45.7100 C   0  0  0  0  0  0  0  0  0  0  0  0
   57.3510   31.5340   44.9810 C   0  0  0  0  0  0  0  0  0  0  0  0
   56.2040   30.9090   44.4930 C   0  0  0  0  0  0  0  0  0  0  0  0
   55.9820   29.5480   44.7270 C   0  0  0  0  0  0  0  0  0  0  0  0
   54.8230   28.9700   44.2200 O   0  0  0  0  0  0  0  0  0  0  0  0
   56.9210   28.7900   45.4650 C   0  0  0  0  0  0  0  0  0  0  0  0
   56.7260   27.3420   45.7480 C   0  0  0  0  0  0  0  0  0  0  0  0
   55.4270   26.8060   45.9960 N   0  0  0  0  0  0  0  0  0  0  0  0
   57.7170   26.5630   45.7720 O   0  0  0  0  0  0  0  0  0  0  0  0
   58.0770   29.4370   45.9480 C   0  0  0  0  0  0  0  0  0  0  0  0
   60.3960   30.9310   47.1610 C   0  0  0  0  0  0  0  0  0  0  0  0
   60.5520   29.6980   47.3660 O   0  0  0  0  0  0  0  0  0  0  0  0
   61.2000   31.9420   47.7710 N   0  0  0  0  0  0  0  0  0  0  0  0
   62.1310   31.7380   48.8540 C   0  0  0  0  0  0  0  0  0  0  0  0
   63.3620   31.6550   48.6110 O   0  0  0  0  0  0  0  0  0  0  0  0
   61.6880   31.5880   50.2100 N   0  0  0  0  0  0  0  0  0  0  0  0
   60.3930   31.9370   50.7230 C   0  0  0  0  0  0  0  0  0  0  0  0
   60.2320   33.1640   51.3810 C   0  0  0  0  0  0  0  0  0  0  0  0
   58.9870   33.5230   51.9080 C   0  0  0  0  0  0  0  0  0  0  0  0
   57.8930   32.6660   51.7680 C   0  0  0  0  0  0  0  0  0  0  0  0
   58.0380   31.4530   51.0890 C   0  0  0  0  0  0  0  0  0  0  0  0
   59.2810   31.0920   50.5580 C   0  0  0  0  0  0  0  0  0  0  0  0
  1  2  1  0
  2  3  1  0
  2  4  1  0
  4  5  2  0
  4  6  1  0
  6  7  1  0
  7  8  2  0
  8  9  1  0
  9 10  2  0
 10 11  1  0
 10 12  1  0
 12 13  1  0
 13 14  1  0
 13 15  2  0
 12 16  2  0
  6 17  1  0
 17 18  2  0
 17 19  1  0
 19 20  1  0
 20 21  2  0
 20 22  1  0
 22 23  1  0
 23 24  2  0
 24 25  1  0
 25 26  2  0
 26 27  1  0
 27 28  2  0
 19  2  1  0
 28 23  1  0
 16  7  1  0
M  CHG  3  11  -1  14  -1  22  -1
M  END
>  <UniqueID>  (704) 
3

>  <SMILES>  (704) 
CC1(C)C(=O)N(c2ccc([O-])c(C([NH-])=O)c2)C(=O)N1C(=O)[N-]c1ccccc1

>  <Energy>  (704) 
74.09628409794249

>  <Genealogy>  (704) 
CC1(C)C(=O)N(c2ccc([O-])c(C([NH-])=O)c2)C(=O)N1C(=O)[N-]c1ccccc1 (protonated)
CC1(C)C(=O)N(c2ccc([O-])c(C([NH-])=O)c2)C(=O)N1C(=O)[N-]c1ccccc1 (3D coordinates assigned)
CC1(C)C(=O)N(c2ccc([O-])c(C([NH-])=O)c2)C(=O)N1C(=O)[N-]c1ccccc1 (nonaromatic ring conformer: 74.09628409794249 kcal/mol)

>  <smiles>  (704) 
CC1(C)C(=O)N(c2ccc(O)c(C(N)=O)c2)C(=O)N1C(=O)Nc1ccccc1

>  <score_type>  (704) 
oracle

>  <origin>  (704) 
adg

>  <m_score__min__energy>  (704) 
-14.92

>  <m_primary>  (704) 
energy

$$$$
8:0
     RDKit          3D

 26 28  0  0  0  0  0  0  0  0999 V2000
   58.8830   29.8210   47.8610 C   0  0  0  0  0  0  0  0  0  0  0  0
   58.2920   29.7160   46.6590 C   0  0  0  0  0  0  0  0  0  0  0  0
   57.6920   28.5700   46.1290 C   0  0  0  0  0  0  0  0  0  0  0  0
   57.5300   27.3750   46.7310 C   0  0  0  0  0  0  0  0  0  0  0  0
   57.1740   26.1370   46.0020 C   0  0  0  0  0  0  0  0  0  0  0  0
   55.8430   25.8390   45.6620 C   0  0  0  0  0  0  0  0  0  0  0  0
   54.8130   26.7110   46.0010 O   0  0  0  0  0  0  0  0  0  0  0  0
   55.5540   24.7010   44.9760 N   0  0  0  0  0  0  0  0  0  0  0  0
   56.5440   23.8500   44.5890 C   0  0  0  0  0  0  0  0  0  0  0  0
   56.1850   22.4860   43.7590 S   0  0  0  0  0  0  0  0  0  0  0  0
   57.8380   24.1340   44.8810 N   0  0  0  0  0  0  0  0  0  0  0  0
   58.1740   25.2550   45.5690 C   0  0  0  0  0  0  0  0  0  0  0  0
   59.3870   25.4860   45.8190 O   0  0  0  0  0  0  0  0  0  0  0  0
   57.2540   28.9110   44.8560 C   0  0  0  0  0  0  0  0  0  0  0  0
   57.5960   30.2350   44.6620 C   0  0  0  0  0  0  0  0  0  0  0  0
   57.3120   31.0140   43.4140 C   0  0  0  0  0  0  0  0  0  0  0  0
   58.2320   30.7220   45.7520 N   0  0  0  0  0  0  0  0  0  0  0  0
   58.7210   32.0670   45.9070 C   0  0  0  0  0  0  0  0  0  0  0  0
   57.8900   33.1570   45.6160 C   0  0  0  0  0  0  0  0  0  0  0  0
   58.3590   34.4610   45.7770 C   0  0  0  0  0  0  0  0  0  0  0  0
   59.6610   34.6880   46.2320 C   0  0  0  0  0  0  0  0  0  0  0  0
   60.5090   33.6050   46.5320 C   0  0  0  0  0  0  0  0  0  0  0  0
   61.8880   33.8390   47.0150 C   0  0  0  0  0  0  0  0  0  0  0  0
   62.8570   33.8430   46.2110 O   0  0  0  0  0  0  0  0  0  0  0  0
   62.1320   34.0590   48.3660 O   0  0  0  0  0  0  0  0  0  0  0  0
   60.0260   32.2950   46.3680 C   0  0  0  0  0  0  0  0  0  0  0  0
  1  2  2  0
  2  3  1  0
  3  4  2  3
  4  5  1  0
  5  6  2  0
  6  7  1  0
  6  8  1  0
  8  9  1  0
  9 10  2  0
  9 11  1  0
 11 12  1  0
 12 13  2  0
  3 14  1  0
 14 15  2  0
 15 16  1  0
 15 17  1  0
 17 18  1  0
 18 19  2  0
 19 20  1  0
 20 21  2  0
 21 22  1  0
 22 23  1  0
 23 24  2  0
 23 25  1  0
 22 26  2  0
 17  2  1  0
 26 18  1  0
 12  5  1  0
M  CHG  3   7  -1  11  -1  25  -1
M  END
>  <UniqueID>  (705) 
6

>  <SMILES>  (705) 
C=c1c(=Cc2c([O-])[nH]c(=S)[n-]c2=O)cc(C)n1-c1cccc(C(=O)[O-])c1

>  <Energy>  (705) 
85.77372455330482

>  <Genealogy>  (705) 
C=c1c(=Cc2c([O-])[nH]c(=S)[n-]c2=O)cc(C)n1-c1cccc(C(=O)[O-])c1 (protonated)
C=c1c(=Cc2c([O-])[nH]c(=S)[n-]c2=O)cc(C)n1-c1cccc(C(=O)[O-])c1 (3D coordinates assigned)
C=c1c(=Cc2c([O-])[nH]c(=S)[n-]c2=O)cc(C)n1-c1cccc(C(=O)[O-])c1 (optimized conformer: 85.77372455330482 kcal/mol)

>  <smiles>  (705) 
C=c1c(=Cc2c(O)[nH]c(=S)[nH]c2=O)cc(C)n1-c1cccc(C(=O)O)c1

>  <score_type>  (705) 
oracle

>  <origin>  (705) 
adg

>  <m_score__min__energy>  (705) 
-14.699999999999999

>  <m_primary>  (705) 
energy

$$$$
68:0
     RDKit          3D

 23 24  0  0  0  0  0  0  0  0999 V2000
   63.4220   31.9630   48.7130 C   0  0  0  0  0  0  0  0  0  0  0  0
   63.1560   32.3820   47.4730 C   0  0  0  0  0  0  0  0  0  0  0  0
   63.1500   33.8400   47.1240 C   0  0  0  0  0  0  0  0  0  0  0  0
   61.8830   34.1900   46.4910 N   0  0  0  0  0  0  0  0  0  0  0  0
   60.5950   33.9950   47.0880 C   0  0  0  0  0  0  0  0  0  0  0  0
   60.3900   34.4380   48.2490 O   0  0  0  0  0  0  0  0  0  0  0  0
   59.5200   33.2550   46.4010 C   0  0  0  0  0  0  0  0  0  0  0  0
   59.3260   31.8910   46.6700 C   0  0  0  0  0  0  0  0  0  0  0  0
   58.3270   31.1780   46.0030 C   0  0  0  0  0  0  0  0  0  0  0  0
   57.5140   31.8150   45.0590 C   0  0  0  0  0  0  0  0  0  0  0  0
   56.5270   31.0510   44.3570 N   0  0  0  0  0  0  0  0  0  0  0  0
   56.2080   29.6720   44.5930 C   0  0  0  0  0  0  0  0  0  0  0  0
   55.1180   29.3920   45.1570 O   0  0  0  0  0  0  0  0  0  0  0  0
   57.1440   28.5470   44.2260 C   0  0  0  0  0  0  0  0  0  0  0  0
   57.4120   27.6360   45.3900 C   0  0  0  0  0  0  0  0  0  0  0  0
   58.8930   27.4690   46.1810 S   0  0  0  0  0  0  0  0  0  0  0  0
   58.2780   26.3450   47.2690 C   0  0  0  0  0  0  0  0  0  0  0  0
   58.9530   25.7960   48.1790 O   0  0  0  0  0  0  0  0  0  0  0  0
   56.9690   26.0870   47.0680 N   0  0  0  0  0  0  0  0  0  0  0  0
   56.4850   26.8110   46.0260 C   0  0  0  0  0  0  0  0  0  0  0  0
   55.1540   26.7230   45.6360 O   0  0  0  0  0  0  0  0  0  0  0  0
   57.6600   33.1930   44.8400 C   0  0  0  0  0  0  0  0  0  0  0  0
   58.6600   33.9080   45.5040 C   0  0  0  0  0  0  0  0  0  0  0  0
  1  2  2  0
  2  3  1  0
  3  4  1  0
  4  5  1  0
  5  6  2  0
  5  7  1  0
  7  8  2  0
  8  9  1  0
  9 10  2  0
 10 11  1  0
 11 12  1  0
 12 13  2  0
 12 14  1  0
 14 15  1  0
 15 16  1  0
 16 17  1  0
 17 18  2  0
 17 19  1  0
 19 20  1  0
 20 21  1  0
 10 22  1  0
 22 23  2  0
 23  7  1  0
 20 15  2  0
M  CHG  4   4  -1  11  -1  19  -1  21  -1
M  END
>  <UniqueID>  (706) 
60

>  <SMILES>  (706) 
C=CC[N-]C(=O)c1ccc([N-]C(=O)Cc2sc(=O)[n-]c2[O-])cc1

>  <Energy>  (706) 
67.91492027171962

>  <Genealogy>  (706) 
C=CC[N-]C(=O)c1ccc([N-]C(=O)Cc2sc(=O)[n-]c2[O-])cc1 (protonated)
C=CC[N-]C(=O)c1ccc([N-]C(=O)Cc2sc(=O)[n-]c2[O-])cc1 (3D coordinates assigned)
C=CC[N-]C(=O)c1ccc([N-]C(=O)Cc2sc(=O)[n-]c2[O-])cc1 (optimized conformer: 67.91492027171962 kcal/mol)

>  <smiles>  (706) 
C=CCNC(=O)c1ccc(NC(=O)Cc2sc(=O)[nH]c2O)cc1

>  <score_type>  (706) 
oracle

>  <origin>  (706) 
adg

>  <m_score__min__energy>  (706) 
-15.539999999999999

>  <m_primary>  (706) 
energy

$$$$
10:0
     RDKit          3D

 32 35  0  0  0  0  0  0  0  0999 V2000
   60.3410   31.1320   52.1220 O   0  0  0  0  0  0  0  0  0  0  0  0
   59.3890   30.8420   51.3500 C   0  0  0  0  0  0  0  0  0  0  0  0
   58.1360   31.6780   51.3880 C   0  0  0  0  0  0  0  0  0  0  0  0
   57.9280   32.3450   50.1570 O   0  0  0  0  0  0  0  0  0  0  0  0
   59.0740   33.0880   49.7990 C   0  0  0  0  0  0  0  0  0  0  0  0
   58.9920   33.4300   48.3400 C   0  0  0  0  0  0  0  0  0  0  0  0
   59.6950   34.5330   47.8280 C   0  0  0  0  0  0  0  0  0  0  0  0
   59.5860   34.8720   46.4760 C   0  0  0  0  0  0  0  0  0  0  0  0
   58.7660   34.1210   45.6300 C   0  0  0  0  0  0  0  0  0  0  0  0
   58.0500   33.0320   46.1350 C   0  0  0  0  0  0  0  0  0  0  0  0
   58.1550   32.6910   47.4870 C   0  0  0  0  0  0  0  0  0  0  0  0
   59.5940   29.8330   50.3530 N   0  0  0  0  0  0  0  0  0  0  0  0
   60.2380   30.0080   49.0850 C   0  0  0  0  0  0  0  0  0  0  0  0
   61.2040   31.0070   48.8880 C   0  0  0  0  0  0  0  0  0  0  0  0
   61.7800   31.1890   47.6290 C   0  0  0  0  0  0  0  0  0  0  0  0
   61.3890   30.3850   46.5560 C   0  0  0  0  0  0  0  0  0  0  0  0
   60.4210   29.3830   46.7340 C   0  0  0  0  0  0  0  0  0  0  0  0
   59.9680   28.5470   45.5590 C   0  0  0  0  0  0  0  0  0  0  0  0
   58.4550   28.5290   45.4200 C   0  0  0  0  0  0  0  0  0  0  0  0
   57.8370   29.7070   44.9610 C   0  0  0  0  0  0  0  0  0  0  0  0
   56.4510   29.7750   44.8410 C   0  0  0  0  0  0  0  0  0  0  0  0
   55.9040   30.8320   44.4300 O   0  0  0  0  0  0  0  0  0  0  0  0
   55.6870   28.7060   45.1690 N   0  0  0  0  0  0  0  0  0  0  0  0
   56.2280   27.5460   45.6180 C   0  0  0  0  0  0  0  0  0  0  0  0
   55.4030   26.5160   45.9340 N   0  0  0  0  0  0  0  0  0  0  0  0
   55.8940   25.3380   46.3870 C   0  0  0  0  0  0  0  0  0  0  0  0
   55.1080   24.3980   46.6730 O   0  0  0  0  0  0  0  0  0  0  0  0
   57.2300   25.1700   46.5300 N   0  0  0  0  0  0  0  0  0  0  0  0
   58.1090   26.1610   46.2320 C   0  0  0  0  0  0  0  0  0  0  0  0
   59.3350   25.9310   46.3820 O   0  0  0  0  0  0  0  0  0  0  0  0
   57.6330   27.4120   45.7600 C   0  0  0  0  0  0  0  0  0  0  0  0
   59.8240   29.2270   47.9990 C   0  0  0  0  0  0  0  0  0  0  0  0
  1  2  2  0
  2  3  1  0
  3  4  1  0
  4  5  1  0
  5  6  1  0
  6  7  2  0
  7  8  1  0
  8  9  2  0
  9 10  1  0
 10 11  2  0
  2 12  1  0
 12 13  1  0
 13 14  2  0
 14 15  1  0
 15 16  2  0
 16 17  1  0
 17 18  1  0
 18 19  1  0
 19 20  2  0
 20 21  1  0
 21 22  2  0
 21 23  1  0
 23 24  1  0
 24 25  1  0
 25 26  1  0
 26 27  2  0
 26 28  1  0
 28 29  1  0
 29 30  2  0
 29 31  1  0
 17 32  2  0
 11  6  1  0
 32 13  1  0
 31 19  1  0
 31 24  2  0
M  CHG  4  12  -1  23  -1  25  -1  28  -1
M  END
>  <UniqueID>  (707) 
10

>  <SMILES>  (707) 
O=C(COCc1ccccc1)[N-]c1cccc(Cc2cc(=O)[n-]c3[n-]c(=O)[n-]c(=O)c23)c1

>  <Energy>  (707) 
69.836091486395

>  <Genealogy>  (707) 
O=C(COCc1ccccc1)[N-]c1cccc(Cc2cc(=O)[n-]c3[n-]c(=O)[n-]c(=O)c23)c1 (protonated)
O=C(COCc1ccccc1)[N-]c1cccc(Cc2cc(=O)[n-]c3[n-]c(=O)[n-]c(=O)c23)c1 (3D coordinates assigned)
O=C(COCc1ccccc1)[N-]c1cccc(Cc2cc(=O)[n-]c3[n-]c(=O)[n-]c(=O)c23)c1 (optimized conformer: 69.836091486395 kcal/mol)

>  <smiles>  (707) 
O=C(COCc1ccccc1)Nc1cccc(Cc2cc(=O)[nH]c3[nH]c(=O)[nH]c(=O)c23)c1

>  <score_type>  (707) 
oracle

>  <origin>  (707) 
adg

>  <m_score__min__energy>  (707) 
-16.84

>  <m_primary>  (707) 
energy

$$$$
23:0
     RDKit          3D

 31 34  0  0  0  0  0  0  0  0999 V2000
   64.3550   32.5290   49.2280 C   0  0  0  0  0  0  0  0  0  0  0  0
   63.7920   33.7050   48.5430 N   0  0  0  0  0  0  0  0  0  0  0  0
   62.6000   34.2310   49.2430 C   0  0  0  0  0  0  0  0  0  0  0  0
   61.4140   33.2530   49.1620 C   0  0  0  0  0  0  0  0  0  0  0  0
   61.3590   32.6080   47.8440 N   0  0  0  0  0  0  0  0  0  0  0  0
   60.6450   31.3650   47.6750 C   0  0  0  0  0  0  0  0  0  0  0  0
   59.5050   31.3070   46.8570 C   0  0  0  0  0  0  0  0  0  0  0  0
   58.7900   30.1130   46.7230 C   0  0  0  0  0  0  0  0  0  0  0  0
   59.2050   28.9570   47.3910 C   0  0  0  0  0  0  0  0  0  0  0  0
   58.4140   27.7660   47.2610 N   0  0  0  0  0  0  0  0  0  0  0  0
   58.2500   26.9720   46.0760 C   0  0  0  0  0  0  0  0  0  0  0  0
   59.0340   27.1280   45.0990 O   0  0  0  0  0  0  0  0  0  0  0  0
   57.1290   26.0010   45.9830 C   0  0  0  0  0  0  0  0  0  0  0  0
   55.8100   26.4440   45.7460 C   0  0  0  0  0  0  0  0  0  0  0  0
   55.5220   27.7990   45.6260 O   0  0  0  0  0  0  0  0  0  0  0  0
   54.7960   25.5460   45.6440 N   0  0  0  0  0  0  0  0  0  0  0  0
   54.9990   24.2100   45.7620 C   0  0  0  0  0  0  0  0  0  0  0  0
   56.2830   23.7090   46.0030 C   0  0  0  0  0  0  0  0  0  0  0  0
   56.4880   22.2470   46.1200 C   0  0  0  0  0  0  0  0  0  0  0  0
   56.1660   21.4130   45.0350 C   0  0  0  0  0  0  0  0  0  0  0  0
   56.3600   20.0320   45.1270 C   0  0  0  0  0  0  0  0  0  0  0  0
   56.8640   19.4700   46.3040 C   0  0  0  0  0  0  0  0  0  0  0  0
   57.1720   20.2900   47.3930 C   0  0  0  0  0  0  0  0  0  0  0  0
   56.9860   21.6760   47.3080 C   0  0  0  0  0  0  0  0  0  0  0  0
   57.2790   22.4730   48.4140 O   0  0  0  0  0  0  0  0  0  0  0  0
   57.3590   24.6130   46.1040 C   0  0  0  0  0  0  0  0  0  0  0  0
   58.5310   24.1730   46.2650 O   0  0  0  0  0  0  0  0  0  0  0  0
   60.3290   29.0130   48.2290 C   0  0  0  0  0  0  0  0  0  0  0  0
   61.0430   30.2080   48.3690 C   0  0  0  0  0  0  0  0  0  0  0  0
   62.0730   33.2440   46.7320 C   0  0  0  0  0  0  0  0  0  0  0  0
   63.5570   33.4440   47.0960 C   0  0  0  0  0  0  0  0  0  0  0  0
  1  2  1  0
  2  3  1  0
  3  4  1  0
  4  5  1  0
  5  6  1  0
  6  7  2  0
  7  8  1  0
  8  9  2  0
  9 10  1  0
 10 11  1  0
 11 12  2  0
 11 13  1  0
 13 14  2  0
 14 15  1  0
 14 16  1  0
 16 17  1  0
 17 18  2  0
 18 19  1  0
 19 20  2  0
 20 21  1  0
 21 22  2  0
 22 23  1  0
 23 24  2  0
 24 25  1  0
 18 26  1  0
 26 27  2  0
  9 28  1  0
 28 29  2  0
  5 30  1  0
 30 31  1  0
 31  2  1  0
 29  6  1  0
 26 13  1  0
 24 19  1  0
M  CHG  4  10  -1  15  -1  16  -1  25  -1
M  END
>  <UniqueID>  (708) 
21

>  <SMILES>  (708) 
CN1CCN(c2ccc([N-]C(=O)c3c([O-])[n-]cc(-c4ccccc4[O-])c3=O)cc2)CC1

>  <Energy>  (708) 
83.87300475832475

>  <Genealogy>  (708) 
CN1CCN(c2ccc([N-]C(=O)c3c([O-])[n-]cc(-c4ccccc4[O-])c3=O)cc2)CC1 (protonated)
CN1CCN(c2ccc([N-]C(=O)c3c([O-])[n-]cc(-c4ccccc4[O-])c3=O)cc2)CC1 (3D coordinates assigned)
CN1CCN(c2ccc([N-]C(=O)c3c([O-])[n-]cc(-c4ccccc4[O-])c3=O)cc2)CC1 (nonaromatic ring conformer: 83.87300475832475 kcal/mol)

>  <smiles>  (708) 
CN1CCN(c2ccc(NC(=O)c3c(O)[nH]cc(-c4ccccc4O)c3=O)cc2)CC1

>  <score_type>  (708) 
oracle

>  <origin>  (708) 
adg

>  <m_score__min__energy>  (708) 
-16.710000000000001

>  <m_primary>  (708) 
energy

$$$$
24:0
     RDKit          3D

 24 26  0  0  0  0  0  0  0  0999 V2000
   55.6610   23.9610   44.2530 C   0  0  0  0  0  0  0  0  0  0  0  0
   54.7180   24.6350   45.6040 S   0  0  0  0  0  0  0  0  0  0  0  0
   55.1420   23.9530   46.8740 O   0  0  0  0  0  0  0  0  0  0  0  0
   53.2500   24.3960   45.3940 O   0  0  0  0  0  0  0  0  0  0  0  0
   55.0300   26.3360   45.7560 N   0  0  0  0  0  0  0  0  0  0  0  0
   56.3080   26.9730   45.6180 C   0  0  0  0  0  0  0  0  0  0  0  0
   57.5140   26.2730   45.7970 C   0  0  0  0  0  0  0  0  0  0  0  0
   58.7370   26.9270   45.6520 C   0  0  0  0  0  0  0  0  0  0  0  0
   58.7730   28.2840   45.3270 C   0  0  0  0  0  0  0  0  0  0  0  0
   57.5810   29.0060   45.1490 C   0  0  0  0  0  0  0  0  0  0  0  0
   57.6520   30.4670   44.7690 C   0  0  0  0  0  0  0  0  0  0  0  0
   58.1060   31.2980   45.9450 C   0  0  0  0  0  0  0  0  0  0  0  0
   58.3280   30.6400   47.1160 N   0  0  0  0  0  0  0  0  0  0  0  0
   58.7260   31.2660   48.2220 N   0  0  0  0  0  0  0  0  0  0  0  0
   58.9320   32.6040   48.2460 C   0  0  0  0  0  0  0  0  0  0  0  0
   59.2900   33.1550   49.3200 O   0  0  0  0  0  0  0  0  0  0  0  0
   58.7380   33.3530   47.0770 C   0  0  0  0  0  0  0  0  0  0  0  0
   58.3260   32.6990   45.9010 C   0  0  0  0  0  0  0  0  0  0  0  0
   58.0620   33.5700   44.6900 C   0  0  0  0  0  0  0  0  0  0  0  0
   59.1880   34.6030   44.4960 C   0  0  0  0  0  0  0  0  0  0  0  0
   59.6420   35.3100   45.7960 C   0  0  0  0  0  0  0  0  0  0  0  0
   58.8920   34.8550   47.0570 C   0  0  0  0  0  0  0  0  0  0  0  0
   56.3460   28.3400   45.2940 C   0  0  0  0  0  0  0  0  0  0  0  0
   55.1510   29.0290   45.1270 O   0  0  0  0  0  0  0  0  0  0  0  0
  1  2  1  0
  2  3  2  0
  2  4  2  0
  2  5  1  0
  5  6  1  0
  6  7  2  0
  7  8  1  0
  8  9  2  0
  9 10  1  0
 10 11  1  0
 11 12  1  0
 12 13  2  0
 13 14  1  0
 14 15  1  0
 15 16  2  0
 15 17  1  0
 17 18  2  0
 18 19  1  0
 19 20  1  0
 20 21  1  0
 21 22  1  0
 10 23  2  0
 23 24  1  0
 23  6  1  0
 18 12  1  0
 22 17  1  0
M  CHG  3   5  -1  14  -1  24  -1
M  END
>  <UniqueID>  (709) 
22

>  <SMILES>  (709) 
CS(=O)(=O)[N-]c1cccc(Cc2n[n-]c(=O)c3c2CCCC3)c1[O-]

>  <Energy>  (709) 
51.21054910615552

>  <Genealogy>  (709) 
CS(=O)(=O)[N-]c1cccc(Cc2n[n-]c(=O)c3c2CCCC3)c1[O-] (protonated)
CS(=O)(=O)[N-]c1cccc(Cc2n[n-]c(=O)c3c2CCCC3)c1[O-] (3D coordinates assigned)
CS(=O)(=O)[N-]c1cccc(Cc2n[n-]c(=O)c3c2CCCC3)c1[O-] (nonaromatic ring conformer: 51.21054910615552 kcal/mol)

>  <smiles>  (709) 
CS(=O)(=O)Nc1cccc(Cc2n[nH]c(=O)c3c2CCCC3)c1O

>  <score_type>  (709) 
oracle

>  <origin>  (709) 
adg

>  <m_score__min__energy>  (709) 
-15.539999999999999

>  <m_primary>  (709) 
energy

$$$$
40:0
     RDKit          3D

 27 29  0  0  0  0  0  0  0  0999 V2000
   57.6140   26.7530   42.4930 O   0  0  0  0  0  0  0  0  0  0  0  0
   57.9730   26.2030   43.5710 C   0  0  0  0  0  0  0  0  0  0  0  0
   58.8690   26.9590   44.5200 C   0  0  0  0  0  0  0  0  0  0  0  0
   58.0970   27.8510   45.4010 N   0  0  0  0  0  0  0  0  0  0  0  0
   57.7480   27.4120   46.7340 C   0  0  0  0  0  0  0  0  0  0  0  0
   57.9000   28.2000   47.7080 O   0  0  0  0  0  0  0  0  0  0  0  0
   57.1960   26.0610   46.9920 C   0  0  0  0  0  0  0  0  0  0  0  0
   57.9920   25.0910   47.6140 C   0  0  0  0  0  0  0  0  0  0  0  0
   57.4920   23.8530   47.8660 N   0  0  0  0  0  0  0  0  0  0  0  0
   56.2240   23.5280   47.5100 C   0  0  0  0  0  0  0  0  0  0  0  0
   55.7770   22.3770   47.7560 O   0  0  0  0  0  0  0  0  0  0  0  0
   55.4380   24.4400   46.8840 N   0  0  0  0  0  0  0  0  0  0  0  0
   55.8940   25.6900   46.6100 C   0  0  0  0  0  0  0  0  0  0  0  0
   55.1460   26.4940   45.9930 O   0  0  0  0  0  0  0  0  0  0  0  0
   57.7820   29.1860   44.9490 C   0  0  0  0  0  0  0  0  0  0  0  0
   58.8060   30.1360   44.7990 C   0  0  0  0  0  0  0  0  0  0  0  0
   58.5150   31.4260   44.3490 C   0  0  0  0  0  0  0  0  0  0  0  0
   57.1970   31.7840   44.0550 C   0  0  0  0  0  0  0  0  0  0  0  0
   56.1670   30.8540   44.2180 C   0  0  0  0  0  0  0  0  0  0  0  0
   56.4510   29.5610   44.6720 C   0  0  0  0  0  0  0  0  0  0  0  0
   55.4070   28.6630   44.8610 O   0  0  0  0  0  0  0  0  0  0  0  0
   57.5310   24.8130   43.8600 C   0  0  0  0  0  0  0  0  0  0  0  0
   58.3390   23.9660   44.6440 C   0  0  0  0  0  0  0  0  0  0  0  0
   57.9350   22.6570   44.9250 C   0  0  0  0  0  0  0  0  0  0  0  0
   56.7210   22.1770   44.4310 C   0  0  0  0  0  0  0  0  0  0  0  0
   55.9060   23.0050   43.6580 C   0  0  0  0  0  0  0  0  0  0  0  0
   56.3050   24.3150   43.3730 C   0  0  0  0  0  0  0  0  0  0  0  0
  1  2  2  0
  2  3  1  0
  3  4  1  0
  4  5  1  0
  5  6  2  0
  5  7  1  0
  7  8  2  0
  8  9  1  0
  9 10  1  0
 10 11  2  0
 10 12  1  0
 12 13  1  0
 13 14  2  0
  4 15  1  0
 15 16  2  0
 16 17  1  0
 17 18  2  0
 18 19  1  0
 19 20  2  0
 20 21  1  0
  2 22  1  0
 22 23  2  0
 23 24  1  0
 24 25  2  0
 25 26  1  0
 26 27  2  0
 13  7  1  0
 20 15  1  0
 27 22  1  0
M  CHG  3   9  -1  12  -1  21  -1
M  END
>  <UniqueID>  (710) 
37

>  <SMILES>  (710) 
O=C(CN(C(=O)c1c[n-]c(=O)[n-]c1=O)c1ccccc1[O-])c1ccccc1

>  <Energy>  (710) 
56.80906322467151

>  <Genealogy>  (710) 
O=C(CN(C(=O)c1c[n-]c(=O)[n-]c1=O)c1ccccc1[O-])c1ccccc1 (protonated)
O=C(CN(C(=O)c1c[n-]c(=O)[n-]c1=O)c1ccccc1[O-])c1ccccc1 (3D coordinates assigned)
O=C(CN(C(=O)c1c[n-]c(=O)[n-]c1=O)c1ccccc1[O-])c1ccccc1 (optimized conformer: 56.80906322467151 kcal/mol)

>  <smiles>  (710) 
O=C(CN(C(=O)c1c[nH]c(=O)[nH]c1=O)c1ccccc1O)c1ccccc1

>  <score_type>  (710) 
oracle

>  <origin>  (710) 
adg

>  <m_score__min__energy>  (710) 
-14.69

>  <m_primary>  (710) 
energy

$$$$
44:0
     RDKit          3D

 24 26  0  0  0  0  0  0  0  0999 V2000
   63.4990   33.3450   47.8270 C   0  0  0  0  0  0  0  0  0  0  0  0
   64.0340   33.1110   46.7120 O   0  0  0  0  0  0  0  0  0  0  0  0
   62.0390   33.5120   47.9520 C   0  0  0  0  0  0  0  0  0  0  0  0
   61.4660   34.0230   49.1260 C   0  0  0  0  0  0  0  0  0  0  0  0
   60.0810   34.1690   49.2250 C   0  0  0  0  0  0  0  0  0  0  0  0
   59.2560   33.8040   48.1600 C   0  0  0  0  0  0  0  0  0  0  0  0
   59.8070   33.2860   46.9700 C   0  0  0  0  0  0  0  0  0  0  0  0
   58.9530   32.8680   45.8250 C   0  0  0  0  0  0  0  0  0  0  0  0
   58.7680   31.5510   45.5280 N   0  0  0  0  0  0  0  0  0  0  0  0
   57.9330   31.3760   44.4830 C   0  0  0  0  0  0  0  0  0  0  0  0
   57.5810   30.2180   44.0070 N   0  0  0  0  0  0  0  0  0  0  0  0
   56.2970   29.5830   44.1320 C   0  0  0  0  0  0  0  0  0  0  0  0
   55.4530   29.7380   43.2120 O   0  0  0  0  0  0  0  0  0  0  0  0
   55.9640   28.7370   45.2420 N   0  0  0  0  0  0  0  0  0  0  0  0
   56.5720   27.6530   45.6410 C   0  0  0  0  0  0  0  0  0  0  0  0
   57.9330   27.6720   45.6890 N   0  0  0  0  0  0  0  0  0  0  0  0
   58.6660   26.6140   46.1230 C   0  0  0  0  0  0  0  0  0  0  0  0
   58.0280   25.4470   46.5380 C   0  0  0  0  0  0  0  0  0  0  0  0
   56.6370   25.3750   46.4830 C   0  0  0  0  0  0  0  0  0  0  0  0
   55.8940   26.4670   46.0240 C   0  0  0  0  0  0  0  0  0  0  0  0
   54.5120   26.3390   45.9360 O   0  0  0  0  0  0  0  0  0  0  0  0
   57.3960   32.8350   43.8610 S   0  0  0  0  0  0  0  0  0  0  0  0
   58.2580   33.7470   44.9840 C   0  0  0  0  0  0  0  0  0  0  0  0
   61.2070   33.1520   46.8810 C   0  0  0  0  0  0  0  0  0  0  0  0
  1  2  2  0
  1  3  1  0
  3  4  2  0
  4  5  1  0
  5  6  2  0
  6  7  1  0
  7  8  1  0
  8  9  1  0
  9 10  1  0
 10 11  2  0
 11 12  1  0
 12 13  2  0
 12 14  1  0
 14 15  2  3
 15 16  1  0
 16 17  1  0
 17 18  2  0
 18 19  1  0
 19 20  2  0
 20 21  1  0
 10 22  1  0
 22 23  1  0
  7 24  2  0
 24  3  1  0
 23  8  2  0
 20 15  1  0
M  CHG  3   9  -1  16  -1  21  -1
M  END
>  <UniqueID>  (711) 
40

>  <SMILES>  (711) 
O=Cc1cccc(-c2cs/c(=N/C(=O)N=c3[n-]cccc3[O-])[n-]2)c1

>  <Energy>  (711) 
81.80869336237453

>  <Genealogy>  (711) 
O=Cc1cccc(-c2csc(=NC(=O)N=c3[n-]cccc3[O-])[n-]2)c1 (protonated)
O=Cc1cccc(-c2cs/c(=N/C(=O)N=c3[n-]cccc3[O-])[n-]2)c1 (cis-trans isomerization)
O=Cc1cccc(-c2cs/c(=N/C(=O)N=c3[n-]cccc3[O-])[n-]2)c1 (3D coordinates assigned)
O=Cc1cccc(-c2cs/c(=N/C(=O)N=c3[n-]cccc3[O-])[n-]2)c1 (optimized conformer: 81.80869336237453 kcal/mol)

>  <smiles>  (711) 
O=Cc1cccc(-c2csc(=NC(=O)N=c3[nH]cccc3O)[nH]2)c1

>  <score_type>  (711) 
oracle

>  <origin>  (711) 
adg

>  <m_score__min__energy>  (711) 
-15.07

>  <m_primary>  (711) 
energy

$$$$
79:0
     RDKit          3D

 28 30  0  0  0  0  0  0  0  0999 V2000
   57.4260   30.7180   46.0320 O   0  0  0  0  0  0  0  0  0  0  0  0
   57.9160   30.5910   44.8760 C   0  0  0  0  0  0  0  0  0  0  0  0
   58.6560   29.3360   44.5200 C   0  0  0  0  0  0  0  0  0  0  0  0
   58.0870   28.1810   45.2370 N   0  0  0  0  0  0  0  0  0  0  0  0
   58.9300   27.2890   45.8410 C   0  0  0  0  0  0  0  0  0  0  0  0
   58.4280   26.1770   46.5190 C   0  0  0  0  0  0  0  0  0  0  0  0
   57.0520   25.9840   46.6130 C   0  0  0  0  0  0  0  0  0  0  0  0
   56.5630   24.8010   47.2640 N   0  0  0  0  0  0  0  0  0  0  0  0
   56.8770   23.4550   46.8900 C   0  0  0  0  0  0  0  0  0  0  0  0
   57.1860   22.6310   47.7920 O   0  0  0  0  0  0  0  0  0  0  0  0
   56.7740   23.0030   45.4870 C   0  0  0  0  0  0  0  0  0  0  0  0
   55.9040   23.6400   44.5860 C   0  0  0  0  0  0  0  0  0  0  0  0
   55.8560   23.2090   43.2590 C   0  0  0  0  0  0  0  0  0  0  0  0
   56.6780   22.1620   42.8370 C   0  0  0  0  0  0  0  0  0  0  0  0
   57.5380   21.5590   43.7550 C   0  0  0  0  0  0  0  0  0  0  0  0
   57.5640   21.9840   45.0470 N   0  0  0  0  0  0  0  0  0  0  0  0
   56.1890   26.8970   45.9840 C   0  0  0  0  0  0  0  0  0  0  0  0
   54.8100   26.7090   46.0040 O   0  0  0  0  0  0  0  0  0  0  0  0
   56.7270   27.9950   45.2980 C   0  0  0  0  0  0  0  0  0  0  0  0
   55.9460   28.8090   44.7310 O   0  0  0  0  0  0  0  0  0  0  0  0
   57.7830   31.6450   43.9160 N   0  0  0  0  0  0  0  0  0  0  0  0
   57.4660   33.0160   44.3120 C   0  0  0  0  0  0  0  0  0  0  0  0
   58.3400   33.4430   45.4620 C   0  0  0  0  0  0  0  0  0  0  0  0
   59.6610   33.8640   45.2490 C   0  0  0  0  0  0  0  0  0  0  0  0
   60.4470   34.2680   46.3290 C   0  0  0  0  0  0  0  0  0  0  0  0
   59.9060   34.2490   47.6160 C   0  0  0  0  0  0  0  0  0  0  0  0
   58.6250   33.8370   47.8090 N   0  0  0  0  0  0  0  0  0  0  0  0
   57.8400   33.4340   46.7730 C   0  0  0  0  0  0  0  0  0  0  0  0
  1  2  2  0
  2  3  1  0
  3  4  1  0
  4  5  1  0
  5  6  2  0
  6  7  1  0
  7  8  1  0
  8  9  1  0
  9 10  2  0
  9 11  1  0
 11 12  2  0
 12 13  1  0
 13 14  2  0
 14 15  1  0
 15 16  2  0
  7 17  2  0
 17 18  1  0
 17 19  1  0
 19 20  2  0
  2 21  1  0
 21 22  1  0
 22 23  1  0
 23 24  2  0
 24 25  1  0
 25 26  2  0
 26 27  1  0
 27 28  2  0
 19  4  1  0
 28 23  1  0
 16 11  1  0
M  CHG  2   8  -1  18  -1
M  END
>  <UniqueID>  (712) 
72

>  <SMILES>  (712) 
O=C(Cn1ccc([N-]C(=O)c2ccccn2)c([O-])c1=O)NCc1cccnc1

>  <Energy>  (712) 
51.20057946305979

>  <Genealogy>  (712) 
O=C(Cn1ccc([N-]C(=O)c2ccccn2)c([O-])c1=O)NCc1cccnc1 (protonated)
O=C(Cn1ccc([N-]C(=O)c2ccccn2)c([O-])c1=O)NCc1cccnc1 (3D coordinates assigned)
O=C(Cn1ccc([N-]C(=O)c2ccccn2)c([O-])c1=O)NCc1cccnc1 (optimized conformer: 51.20057946305979 kcal/mol)

>  <smiles>  (712) 
O=C(Cn1ccc(NC(=O)c2ccccn2)c(O)c1=O)NCc1cccnc1

>  <score_type>  (712) 
oracle

>  <origin>  (712) 
adg

>  <m_score__min__energy>  (712) 
-14.039999999999999

>  <m_primary>  (712) 
energy

$$$$
18:0
     RDKit          3D

 33 36  0  0  0  0  0  0  0  0999 V2000
   54.4700   25.1990   45.8570 O   0  0  0  0  0  0  0  0  0  0  0  0
   55.3940   24.3900   45.1970 C   0  0  0  0  0  0  0  0  0  0  0  0
   54.9640   23.5380   44.1680 C   0  0  0  0  0  0  0  0  0  0  0  0
   55.8780   22.7190   43.5030 C   0  0  0  0  0  0  0  0  0  0  0  0
   57.2280   22.7450   43.8600 C   0  0  0  0  0  0  0  0  0  0  0  0
   57.6670   23.5890   44.8830 C   0  0  0  0  0  0  0  0  0  0  0  0
   56.7580   24.4240   45.5550 C   0  0  0  0  0  0  0  0  0  0  0  0
   57.2540   25.3050   46.6750 C   0  0  0  0  0  0  0  0  0  0  0  0
   57.6940   26.5960   46.1440 N   0  0  0  0  0  0  0  0  0  0  0  0
   56.9270   27.6020   45.6960 C   0  0  0  0  0  0  0  0  0  0  0  0
   55.5390   27.5630   45.6180 O   0  0  0  0  0  0  0  0  0  0  0  0
   57.7310   28.6640   45.3430 C   0  0  0  0  0  0  0  0  0  0  0  0
   57.2500   29.9770   44.8630 C   0  0  0  0  0  0  0  0  0  0  0  0
   57.7320   31.1750   45.2570 C   0  0  0  0  0  0  0  0  0  0  0  0
   57.7420   32.3540   44.5250 C   0  0  0  0  0  0  0  0  0  0  0  0
   58.3030   33.3220   45.3320 C   0  0  0  0  0  0  0  0  0  0  0  0
   58.5400   34.7400   44.9060 C   0  0  0  0  0  0  0  0  0  0  0  0
   58.6360   32.8030   46.5380 N   0  0  0  0  0  0  0  0  0  0  0  0
   59.2640   33.5320   47.6530 C   0  0  0  0  0  0  0  0  0  0  0  0
   60.7420   33.2040   47.7710 C   0  0  0  0  0  0  0  0  0  0  0  0
   61.6320   33.5780   46.7430 C   0  0  0  0  0  0  0  0  0  0  0  0
   61.1890   34.2380   45.6440 F   0  0  0  0  0  0  0  0  0  0  0  0
   62.9920   33.2760   46.8380 C   0  0  0  0  0  0  0  0  0  0  0  0
   63.4800   32.5860   47.9450 C   0  0  0  0  0  0  0  0  0  0  0  0
   62.6120   32.1900   48.9630 C   0  0  0  0  0  0  0  0  0  0  0  0
   61.2370   32.4880   48.8880 C   0  0  0  0  0  0  0  0  0  0  0  0
   60.3450   32.0930   49.8990 O   0  0  0  0  0  0  0  0  0  0  0  0
   59.8320   32.9570   50.9100 C   0  0  0  0  0  0  0  0  0  0  0  0
   58.3030   31.4860   46.4990 C   0  0  0  0  0  0  0  0  0  0  0  0
   58.5310   30.6240   47.5030 C   0  0  0  0  0  0  0  0  0  0  0  0
   59.0200   28.3410   45.5930 N   0  0  0  0  0  0  0  0  0  0  0  0
   58.9510   27.0810   46.0760 C   0  0  0  0  0  0  0  0  0  0  0  0
   59.9690   26.4310   46.4330 O   0  0  0  0  0  0  0  0  0  0  0  0
  1  2  1  0
  2  3  2  0
  3  4  1  0
  4  5  2  0
  5  6  1  0
  6  7  2  0
  7  8  1  0
  8  9  1  0
  9 10  1  0
 10 11  1  0
 10 12  2  0
 12 13  1  0
 13 14  2  0
 14 15  1  0
 15 16  2  0
 16 17  1  0
 16 18  1  0
 18 19  1  0
 19 20  1  0
 20 21  2  0
 21 22  1  0
 21 23  1  0
 23 24  2  0
 24 25  1  0
 25 26  2  0
 26 27  1  0
 27 28  1  0
 18 29  1  0
 29 30  2  0
 12 31  1  0
 31 32  1  0
 32 33  2  0
  7  2  1  0
 32  9  1  0
 29 14  1  0
 26 20  1  0
M  CHG  2  11  -1  31  -1
M  END
>  <UniqueID>  (713) 
17

>  <SMILES>  (713) 
C=c1/c(=C/c2[n-]c(=O)n(Cc3ccccc3O)c2[O-])cc(C)n1Cc1c(F)cccc1OC

>  <Energy>  (713) 
124.29696495918779

>  <Genealogy>  (713) 
C=c1c(=Cc2[n-]c(=O)n(Cc3ccccc3O)c2[O-])cc(C)n1Cc1c(F)cccc1OC (protonated)
C=c1/c(=C/c2[n-]c(=O)n(Cc3ccccc3O)c2[O-])cc(C)n1Cc1c(F)cccc1OC (cis-trans isomerization)
C=c1/c(=C/c2[n-]c(=O)n(Cc3ccccc3O)c2[O-])cc(C)n1Cc1c(F)cccc1OC (3D coordinates assigned)
C=c1/c(=C/c2[n-]c(=O)n(Cc3ccccc3O)c2[O-])cc(C)n1Cc1c(F)cccc1OC (optimized conformer: 124.29696495918779 kcal/mol)

>  <smiles>  (713) 
C=c1c(=Cc2[nH]c(=O)n(Cc3ccccc3O)c2O)cc(C)n1Cc1c(F)cccc1OC

>  <score_type>  (713) 
oracle

>  <origin>  (713) 
adg

>  <m_score__min__energy>  (713) 
-14.1

>  <m_primary>  (713) 
energy

$$$$
38:0
     RDKit          3D

 30 32  0  0  0  0  0  0  0  0999 V2000
   58.3520   33.1420   46.3050 C   0  0  0  0  0  0  0  0  0  0  0  0
   58.7210   31.9090   45.6980 O   0  0  0  0  0  0  0  0  0  0  0  0
   58.0490   31.3210   44.6110 C   0  0  0  0  0  0  0  0  0  0  0  0
   57.7560   32.0510   43.4420 C   0  0  0  0  0  0  0  0  0  0  0  0
   57.0250   31.4650   42.4050 C   0  0  0  0  0  0  0  0  0  0  0  0
   56.5730   30.1490   42.5240 C   0  0  0  0  0  0  0  0  0  0  0  0
   56.8680   29.4110   43.6700 C   0  0  0  0  0  0  0  0  0  0  0  0
   57.6270   29.9760   44.7070 C   0  0  0  0  0  0  0  0  0  0  0  0
   57.8870   29.1880   45.8800 N   0  0  0  0  0  0  0  0  0  0  0  0
   59.2050   28.9490   46.4010 C   0  0  0  0  0  0  0  0  0  0  0  0
   60.2250   29.3010   45.7500 O   0  0  0  0  0  0  0  0  0  0  0  0
   59.3790   28.2710   47.7280 C   0  0  0  0  0  0  0  0  0  0  0  0
   59.9850   26.5590   47.5300 S   0  0  0  0  0  0  0  0  0  0  0  0
   58.3660   25.8540   47.2330 C   0  0  0  0  0  0  0  0  0  0  0  0
   58.1400   24.5400   47.4850 N   0  0  0  0  0  0  0  0  0  0  0  0
   56.9220   23.9820   47.2570 C   0  0  0  0  0  0  0  0  0  0  0  0
   56.7620   22.7520   47.4690 O   0  0  0  0  0  0  0  0  0  0  0  0
   55.8700   24.7770   46.7620 C   0  0  0  0  0  0  0  0  0  0  0  0
   54.5630   24.2470   46.4760 N   0  0  0  0  0  0  0  0  0  0  0  0
   54.2180   23.3870   45.3810 C   0  0  0  0  0  0  0  0  0  0  0  0
   52.9980   23.2010   45.1270 O   0  0  0  0  0  0  0  0  0  0  0  0
   55.2480   22.6780   44.5820 C   0  0  0  0  0  0  0  0  0  0  0  0
   55.6780   23.1870   43.3440 C   0  0  0  0  0  0  0  0  0  0  0  0
   56.6480   22.5090   42.5990 C   0  0  0  0  0  0  0  0  0  0  0  0
   57.2060   21.3250   43.0870 C   0  0  0  0  0  0  0  0  0  0  0  0
   56.7990   20.8180   44.3220 C   0  0  0  0  0  0  0  0  0  0  0  0
   55.8290   21.4920   45.0700 C   0  0  0  0  0  0  0  0  0  0  0  0
   56.1390   26.1210   46.4860 C   0  0  0  0  0  0  0  0  0  0  0  0
   55.1480   26.9440   45.9660 O   0  0  0  0  0  0  0  0  0  0  0  0
   57.3720   26.6320   46.7310 N   0  0  0  0  0  0  0  0  0  0  0  0
  1  2  1  0
  2  3  1  0
  3  4  2  0
  4  5  1  0
  5  6  2  0
  6  7  1  0
  7  8  2  0
  8  9  1  0
  9 10  1  0
 10 11  2  0
 10 12  1  0
 12 13  1  0
 13 14  1  0
 14 15  2  0
 15 16  1  0
 16 17  2  0
 16 18  1  0
 18 19  1  0
 19 20  1  0
 20 21  2  0
 20 22  1  0
 22 23  2  0
 23 24  1  0
 24 25  2  0
 25 26  1  0
 26 27  2  0
 18 28  2  0
 28 29  1  0
 28 30  1  0
  8  3  1  0
 30 14  1  0
 27 22  1  0
M  CHG  3  19  -1  29  -1  30  -1
M  END
>  <UniqueID>  (714) 
37

>  <SMILES>  (714) 
COc1ccccc1NC(=O)CSc1nc(=O)c([N-]C(=O)c2ccccc2)c([O-])[n-]1

>  <Energy>  (714) 
55.76330629529149

>  <Genealogy>  (714) 
COc1ccccc1NC(=O)CSc1nc(=O)c([N-]C(=O)c2ccccc2)c([O-])[n-]1 (protonated)
COc1ccccc1NC(=O)CSc1nc(=O)c([N-]C(=O)c2ccccc2)c([O-])[n-]1 (3D coordinates assigned)
COc1ccccc1NC(=O)CSc1nc(=O)c([N-]C(=O)c2ccccc2)c([O-])[n-]1 (optimized conformer: 55.76330629529149 kcal/mol)

>  <smiles>  (714) 
COc1ccccc1NC(=O)CSc1nc(=O)c(NC(=O)c2ccccc2)c(O)[nH]1

>  <score_type>  (714) 
oracle

>  <origin>  (714) 
adg

>  <m_score__min__energy>  (714) 
-15.49

>  <m_primary>  (714) 
energy

$$$$
41:0
     RDKit          3D

 25 27  0  0  0  0  0  0  0  0999 V2000
   58.9570   26.4820   45.8680 C   0  0  0  0  0  0  0  0  0  0  0  0
   58.3260   27.6340   45.5200 N   0  0  0  0  0  0  0  0  0  0  0  0
   56.9740   27.7860   45.6030 C   0  0  0  0  0  0  0  0  0  0  0  0
   56.4740   28.9400   45.2520 N   0  0  0  0  0  0  0  0  0  0  0  0
   57.0450   29.9430   44.3980 C   0  0  0  0  0  0  0  0  0  0  0  0
   57.0820   29.7480   43.1530 O   0  0  0  0  0  0  0  0  0  0  0  0
   57.5290   31.2230   44.9800 C   0  0  0  0  0  0  0  0  0  0  0  0
   57.2990   32.4200   44.2720 C   0  0  0  0  0  0  0  0  0  0  0  0
   57.6620   33.6520   44.8160 C   0  0  0  0  0  0  0  0  0  0  0  0
   58.2560   33.7160   46.0740 C   0  0  0  0  0  0  0  0  0  0  0  0
   58.5030   32.5430   46.7880 C   0  0  0  0  0  0  0  0  0  0  0  0
   58.1560   31.2930   46.2530 C   0  0  0  0  0  0  0  0  0  0  0  0
   58.4670   30.1120   47.0000 N   0  0  0  0  0  0  0  0  0  0  0  0
   59.3930   30.2100   48.4590 S   0  0  0  0  0  0  0  0  0  0  0  0
   59.7790   28.8300   48.9140 O   0  0  0  0  0  0  0  0  0  0  0  0
   58.5750   30.8700   49.5320 O   0  0  0  0  0  0  0  0  0  0  0  0
   60.8290   31.1740   48.1630 C   0  0  0  0  0  0  0  0  0  0  0  0
   61.2750   32.5430   49.0330 S   0  0  0  0  0  0  0  0  0  0  0  0
   62.7440   32.7770   48.2440 C   0  0  0  0  0  0  0  0  0  0  0  0
   62.9000   31.7710   47.2950 C   0  0  0  0  0  0  0  0  0  0  0  0
   61.8290   30.8690   47.2530 C   0  0  0  0  0  0  0  0  0  0  0  0
   56.1900   26.6800   46.0250 C   0  0  0  0  0  0  0  0  0  0  0  0
   54.8000   26.7070   46.0270 O   0  0  0  0  0  0  0  0  0  0  0  0
   56.8310   25.4960   46.4030 C   0  0  0  0  0  0  0  0  0  0  0  0
   58.2180   25.3950   46.3300 C   0  0  0  0  0  0  0  0  0  0  0  0
  1  2  1  0
  2  3  1  0
  3  4  2  0
  4  5  1  0
  5  6  2  0
  5  7  1  0
  7  8  2  0
  8  9  1  0
  9 10  2  0
 10 11  1  0
 11 12  2  0
 12 13  1  0
 13 14  1  0
 14 15  2  0
 14 16  2  0
 14 17  1  0
 17 18  1  0
 18 19  1  0
 19 20  2  0
 20 21  1  0
  3 22  1  0
 22 23  1  0
 22 24  2  0
 24 25  1  0
 25  1  2  0
 12  7  1  0
 21 17  2  0
M  CHG  2   2  -1  23  -1
M  END
>  <UniqueID>  (715) 
40

>  <SMILES>  (715) 
O=C(/N=c1/[n-]cccc1[O-])c1ccccc1NS(=O)(=O)c1cccs1

>  <Energy>  (715) 
85.81529741152903

>  <Genealogy>  (715) 
O=C(N=c1[n-]cccc1[O-])c1ccccc1NS(=O)(=O)c1cccs1 (protonated)
O=C(/N=c1/[n-]cccc1[O-])c1ccccc1NS(=O)(=O)c1cccs1 (cis-trans isomerization)
O=C(/N=c1/[n-]cccc1[O-])c1ccccc1NS(=O)(=O)c1cccs1 (3D coordinates assigned)
O=C(/N=c1/[n-]cccc1[O-])c1ccccc1NS(=O)(=O)c1cccs1 (optimized conformer: 85.81529741152903 kcal/mol)

>  <smiles>  (715) 
O=C(N=c1[nH]cccc1O)c1ccccc1NS(=O)(=O)c1cccs1

>  <score_type>  (715) 
oracle

>  <origin>  (715) 
adg

>  <m_score__min__energy>  (715) 
-14.17

>  <m_primary>  (715) 
energy

$$$$
50:0
     RDKit          3D

 34 36  0  0  0  0  0  0  0  0999 V2000
   55.5080   19.1160   45.9420 C   0  0  0  0  0  0  0  0  0  0  0  0
   56.6370   19.6420   45.5500 N   0  0  0  0  0  0  0  0  0  0  0  0
   57.4470   20.6590   46.1650 C   0  0  0  0  0  0  0  0  0  0  0  0
   58.5170   20.3060   46.7260 O   0  0  0  0  0  0  0  0  0  0  0  0
   57.0380   22.0810   46.2460 C   0  0  0  0  0  0  0  0  0  0  0  0
   56.4950   22.6130   47.4320 C   0  0  0  0  0  0  0  0  0  0  0  0
   56.2710   21.7770   48.6590 C   0  0  0  0  0  0  0  0  0  0  0  0
   56.2190   23.9390   47.5030 N   0  0  0  0  0  0  0  0  0  0  0  0
   56.4040   24.7970   46.4660 C   0  0  0  0  0  0  0  0  0  0  0  0
   56.1990   26.2690   46.7470 C   0  0  0  0  0  0  0  0  0  0  0  0
   57.2450   27.0750   46.0050 C   0  0  0  0  0  0  0  0  0  0  0  0
   56.8860   28.2270   45.2800 C   0  0  0  0  0  0  0  0  0  0  0  0
   55.5380   28.5550   45.1520 O   0  0  0  0  0  0  0  0  0  0  0  0
   57.8460   29.0240   44.7110 N   0  0  0  0  0  0  0  0  0  0  0  0
   57.4600   30.2760   44.0330 C   0  0  0  0  0  0  0  0  0  0  0  0
   57.7250   31.4600   44.9280 C   0  0  0  0  0  0  0  0  0  0  0  0
   58.1600   31.2680   46.2500 C   0  0  0  0  0  0  0  0  0  0  0  0
   58.3620   32.3640   47.0940 C   0  0  0  0  0  0  0  0  0  0  0  0
   58.1270   33.6600   46.6270 C   0  0  0  0  0  0  0  0  0  0  0  0
   57.6890   33.8620   45.3160 C   0  0  0  0  0  0  0  0  0  0  0  0
   57.4900   32.7680   44.4670 C   0  0  0  0  0  0  0  0  0  0  0  0
   59.1700   28.6830   44.8360 C   0  0  0  0  0  0  0  0  0  0  0  0
   60.0730   29.3950   44.3190 O   0  0  0  0  0  0  0  0  0  0  0  0
   59.5280   27.5710   45.5240 N   0  0  0  0  0  0  0  0  0  0  0  0
   58.6090   26.7690   46.1120 C   0  0  0  0  0  0  0  0  0  0  0  0
   58.9970   25.7580   46.7530 O   0  0  0  0  0  0  0  0  0  0  0  0
   56.8450   24.2940   45.2180 C   0  0  0  0  0  0  0  0  0  0  0  0
   56.9950   25.1970   44.0170 C   0  0  0  0  0  0  0  0  0  0  0  0
   57.1650   22.9220   45.1240 C   0  0  0  0  0  0  0  0  0  0  0  0
   57.5770   22.4430   44.0310 O   0  0  0  0  0  0  0  0  0  0  0  0
   54.4710   19.8040   46.7940 C   0  0  0  0  0  0  0  0  0  0  0  0
   53.4680   20.5220   45.9820 N   0  0  0  0  0  0  0  0  0  0  0  0
   53.4270   21.9390   46.3820 C   0  0  0  0  0  0  0  0  0  0  0  0
   52.1290   19.9320   46.1410 C   0  0  0  0  0  0  0  0  0  0  0  0
  1  2  2  0
  2  3  1  0
  3  4  2  0
  3  5  1  0
  5  6  2  0
  6  7  1  0
  6  8  1  0
  8  9  1  0
  9 10  1  0
 10 11  1  0
 11 12  2  0
 12 13  1  0
 12 14  1  0
 14 15  1  0
 15 16  1  0
 16 17  2  0
 17 18  1  0
 18 19  2  0
 19 20  1  0
 20 21  2  0
 14 22  1  0
 22 23  2  0
 22 24  1  0
 24 25  1  0
 25 26  2  0
  9 27  2  0
 27 28  1  0
 27 29  1  0
 29 30  2  0
  1 31  1  0
 31 32  1  0
 32 33  1  0
 32 34  1  0
 29  5  1  0
 25 11  1  0
 21 16  1  0
M  CHG  3   8  -1  13  -1  24  -1
M  END
>  <UniqueID>  (716) 
49

>  <SMILES>  (716) 
Cc1[n-]c(Cc2c([O-])n(Cc3ccccc3)c(=O)[n-]c2=O)c(C)c(=O)c1C(=O)/N=C\CN(C)C

>  <Energy>  (716) 
71.80231504897328

>  <Genealogy>  (716) 
Cc1[n-]c(Cc2c([O-])n(Cc3ccccc3)c(=O)[n-]c2=O)c(C)c(=O)c1C(=O)N=CCN(C)C (protonated)
Cc1[n-]c(Cc2c([O-])n(Cc3ccccc3)c(=O)[n-]c2=O)c(C)c(=O)c1C(=O)/N=C\CN(C)C (cis-trans isomerization)
Cc1[n-]c(Cc2c([O-])n(Cc3ccccc3)c(=O)[n-]c2=O)c(C)c(=O)c1C(=O)/N=C\CN(C)C (3D coordinates assigned)
Cc1[n-]c(Cc2c([O-])n(Cc3ccccc3)c(=O)[n-]c2=O)c(C)c(=O)c1C(=O)/N=C\CN(C)C (optimized conformer: 71.80231504897328 kcal/mol)

>  <smiles>  (716) 
Cc1[nH]c(Cc2c(O)n(Cc3ccccc3)c(=O)[nH]c2=O)c(C)c(=O)c1C(=O)N=CCN(C)C

>  <score_type>  (716) 
oracle

>  <origin>  (716) 
adg

>  <m_score__min__energy>  (716) 
-15.08

>  <m_primary>  (716) 
energy

$$$$
68:0
     RDKit          3D

 27 29  0  0  0  0  0  0  0  0999 V2000
   55.3680   28.9900   44.8500 N   0  0  0  0  0  0  0  0  0  0  0  0
   56.4900   29.7090   44.3390 C   0  0  0  0  0  0  0  0  0  0  0  0
   56.3320   30.4630   43.3410 O   0  0  0  0  0  0  0  0  0  0  0  0
   57.8230   29.5740   44.9710 C   0  0  0  0  0  0  0  0  0  0  0  0
   58.6680   28.5010   44.6340 C   0  0  0  0  0  0  0  0  0  0  0  0
   59.9260   28.3770   45.2300 C   0  0  0  0  0  0  0  0  0  0  0  0
   60.3560   29.3180   46.1660 C   0  0  0  0  0  0  0  0  0  0  0  0
   59.5290   30.3940   46.5180 C   0  0  0  0  0  0  0  0  0  0  0  0
   60.0040   31.4100   47.5230 C   0  0  0  0  0  0  0  0  0  0  0  0
   59.9520   30.8490   48.8890 N   0  0  0  0  0  0  0  0  0  0  0  0
   58.7400   30.0160   49.0600 C   0  0  0  0  0  0  0  0  0  0  0  0
   58.4270   29.7860   50.5440 C   0  0  0  0  0  0  0  0  0  0  0  0
   58.1800   31.0560   51.2770 N   0  0  0  0  0  0  0  0  0  0  0  0
   56.7440   31.2750   51.5440 C   0  0  0  0  0  0  0  0  0  0  0  0
   56.1700   30.1110   52.2910 C   0  0  0  0  0  0  0  0  0  0  0  0
   56.8720   29.5200   53.1550 O   0  0  0  0  0  0  0  0  0  0  0  0
   54.8150   29.7130   52.0480 N   0  0  0  0  0  0  0  0  0  0  0  0
   53.6600   30.5630   52.0710 C   0  0  0  0  0  0  0  0  0  0  0  0
   53.2340   31.1510   50.8730 C   0  0  0  0  0  0  0  0  0  0  0  0
   52.0990   31.9690   50.8490 C   0  0  0  0  0  0  0  0  0  0  0  0
   51.3730   32.1920   52.0220 C   0  0  0  0  0  0  0  0  0  0  0  0
   50.2450   33.0030   51.9980 O   0  0  0  0  0  0  0  0  0  0  0  0
   51.7770   31.5920   53.2180 C   0  0  0  0  0  0  0  0  0  0  0  0
   52.9120   30.7740   53.2450 C   0  0  0  0  0  0  0  0  0  0  0  0
   58.7660   32.2420   50.6110 C   0  0  0  0  0  0  0  0  0  0  0  0
   60.0990   31.8980   49.9320 C   0  0  0  0  0  0  0  0  0  0  0  0
   58.2630   30.5180   45.9180 C   0  0  0  0  0  0  0  0  0  0  0  0
  1  2  1  0
  2  3  2  0
  2  4  1  0
  4  5  2  0
  5  6  1  0
  6  7  2  0
  7  8  1  0
  8  9  1  0
  9 10  1  0
 10 11  1  0
 11 12  1  0
 12 13  1  0
 13 14  1  0
 14 15  1  0
 15 16  2  0
 15 17  1  0
 17 18  1  0
 18 19  2  0
 19 20  1  0
 20 21  2  0
 21 22  1  0
 21 23  1  0
 23 24  2  0
 13 25  1  0
 25 26  1  0
  8 27  2  0
 27  4  1  0
 26 10  1  0
 24 18  1  0
M  CHG  3   1  -1  17  -1  22  -1
M  END
>  <UniqueID>  (717) 
66

>  <SMILES>  (717) 
[NH-]C(=O)c1cccc(CN2CCN(CC(=O)[N-]c3ccc([O-])cc3)CC2)c1

>  <Energy>  (717) 
64.94520933478373

>  <Genealogy>  (717) 
[NH-]C(=O)c1cccc(CN2CCN(CC(=O)[N-]c3ccc([O-])cc3)CC2)c1 (protonated)
[NH-]C(=O)c1cccc(CN2CCN(CC(=O)[N-]c3ccc([O-])cc3)CC2)c1 (3D coordinates assigned)
[NH-]C(=O)c1cccc(CN2CCN(CC(=O)[N-]c3ccc([O-])cc3)CC2)c1 (nonaromatic ring conformer: 64.94520933478373 kcal/mol)

>  <smiles>  (717) 
NC(=O)c1cccc(CN2CCN(CC(=O)Nc3ccc(O)cc3)CC2)c1

>  <score_type>  (717) 
oracle

>  <origin>  (717) 
adg

>  <m_score__min__energy>  (717) 
-16.079999999999998

>  <m_primary>  (717) 
energy

$$$$
42:0
     RDKit          3D

 35 39  0  0  0  0  0  0  0  0999 V2000
   60.1310   27.5020   47.3290 O   0  0  0  0  0  0  0  0  0  0  0  0
   59.0880   28.0700   46.9110 C   0  0  0  0  0  0  0  0  0  0  0  0
   57.7450   27.5270   47.3110 C   0  0  0  0  0  0  0  0  0  0  0  0
   57.4560   26.3010   46.5670 N   0  0  0  0  0  0  0  0  0  0  0  0
   58.3270   25.3150   46.2600 C   0  0  0  0  0  0  0  0  0  0  0  0
   59.6500   25.2790   46.6830 O   0  0  0  0  0  0  0  0  0  0  0  0
   57.7150   24.3660   45.4650 C   0  0  0  0  0  0  0  0  0  0  0  0
   56.4100   24.7740   45.3010 C   0  0  0  0  0  0  0  0  0  0  0  0
   56.2910   25.9800   45.9620 C   0  0  0  0  0  0  0  0  0  0  0  0
   55.1510   26.7760   45.9890 O   0  0  0  0  0  0  0  0  0  0  0  0
   55.4190   24.0720   44.4250 C   0  0  0  0  0  0  0  0  0  0  0  0
   55.8690   22.6200   44.1670 C   0  0  0  0  0  0  0  0  0  0  0  0
   57.3670   22.5420   43.8000 C   0  0  0  0  0  0  0  0  0  0  0  0
   58.2640   23.0760   44.9350 C   0  0  0  0  0  0  0  0  0  0  0  0
   59.2200   29.1940   46.0310 N   0  0  0  0  0  0  0  0  0  0  0  0
   59.0690   30.5750   46.3910 C   0  0  0  0  0  0  0  0  0  0  0  0
   59.7460   31.1070   47.5010 C   0  0  0  0  0  0  0  0  0  0  0  0
   59.6720   32.4760   47.7910 C   0  0  0  0  0  0  0  0  0  0  0  0
   60.5440   33.1370   49.1720 S   0  0  0  0  0  0  0  0  0  0  0  0
   59.6370   34.0810   49.9110 O   0  0  0  0  0  0  0  0  0  0  0  0
   60.9020   32.0180   50.1110 O   0  0  0  0  0  0  0  0  0  0  0  0
   62.0000   33.9940   48.7020 N   0  0  0  0  0  0  0  0  0  0  0  0
   63.1300   33.7410   49.6160 C   0  0  0  0  0  0  0  0  0  0  0  0
   63.9020   32.4420   49.2860 C   0  0  0  0  0  0  0  0  0  0  0  0
   63.4420   31.8090   48.1100 O   0  0  0  0  0  0  0  0  0  0  0  0
   63.4260   32.7380   47.0520 C   0  0  0  0  0  0  0  0  0  0  0  0
   62.3380   33.8020   47.2760 C   0  0  0  0  0  0  0  0  0  0  0  0
   58.9230   33.3180   46.9610 C   0  0  0  0  0  0  0  0  0  0  0  0
   58.2600   32.8000   45.8480 C   0  0  0  0  0  0  0  0  0  0  0  0
   58.3290   31.4310   45.5540 C   0  0  0  0  0  0  0  0  0  0  0  0
   57.6230   30.9100   44.4190 N   0  0  0  0  0  0  0  0  0  0  0  0
   56.5980   29.8860   44.5260 C   0  0  0  0  0  0  0  0  0  0  0  0
   56.1390   29.6230   43.0990 C   0  0  0  0  0  0  0  0  0  0  0  0
   56.6210   30.8180   42.2760 C   0  0  0  0  0  0  0  0  0  0  0  0
   57.7400   31.4630   43.0830 C   0  0  0  0  0  0  0  0  0  0  0  0
  1  2  2  0
  2  3  1  0
  3  4  1  0
  4  5  1  0
  5  6  1  0
  5  7  2  0
  7  8  1  0
  8  9  2  0
  9 10  1  0
  8 11  1  0
 11 12  1  0
 12 13  1  0
 13 14  1  0
  2 15  1  0
 15 16  1  0
 16 17  2  0
 17 18  1  0
 18 19  1  0
 19 20  2  0
 19 21  2  0
 19 22  1  0
 22 23  1  0
 23 24  1  0
 24 25  1  0
 25 26  1  0
 26 27  1  0
 18 28  2  0
 28 29  1  0
 29 30  2  0
 30 31  1  0
 31 32  1  0
 32 33  1  0
 33 34  1  0
 34 35  1  0
  9  4  1  0
 30 16  1  0
 35 31  1  0
 14  7  1  0
 27 22  1  0
M  CHG  3   6  -1  10  -1  15  -1
M  END
>  <UniqueID>  (718) 
37

>  <SMILES>  (718) 
O=C(Cn1c([O-])c2c(c1[O-])CCCC2)[N-]c1cc(S(=O)(=O)N2CCOCC2)ccc1N1CCCC1

>  <Energy>  (718) 
113.9962496903241

>  <Genealogy>  (718) 
O=C(Cn1c([O-])c2c(c1[O-])CCCC2)[N-]c1cc(S(=O)(=O)N2CCOCC2)ccc1N1CCCC1 (protonated)
O=C(Cn1c([O-])c2c(c1[O-])CCCC2)[N-]c1cc(S(=O)(=O)N2CCOCC2)ccc1N1CCCC1 (3D coordinates assigned)
O=C(Cn1c([O-])c2c(c1[O-])CCCC2)[N-]c1cc(S(=O)(=O)N2CCOCC2)ccc1N1CCCC1 (nonaromatic ring conformer: 113.9962496903241 kcal/mol)

>  <smiles>  (718) 
O=C(Cn1c(O)c2c(c1O)CCCC2)Nc1cc(S(=O)(=O)N2CCOCC2)ccc1N1CCCC1

>  <score_type>  (718) 
oracle

>  <origin>  (718) 
adg

>  <m_score__min__energy>  (718) 
-15.91

>  <m_primary>  (718) 
energy

$$$$
55:0
     RDKit          3D

 29 31  0  0  0  0  0  0  0  0999 V2000
   60.7280   34.1530   46.4460 C   0  0  0  0  0  0  0  0  0  0  0  0
   59.5260   34.5390   45.7900 O   0  0  0  0  0  0  0  0  0  0  0  0
   58.3470   33.7880   45.8710 C   0  0  0  0  0  0  0  0  0  0  0  0
   57.6110   33.8780   46.8920 O   0  0  0  0  0  0  0  0  0  0  0  0
   57.9700   32.8870   44.7600 C   0  0  0  0  0  0  0  0  0  0  0  0
   58.4790   33.0930   43.4660 C   0  0  0  0  0  0  0  0  0  0  0  0
   58.1130   32.2420   42.4190 C   0  0  0  0  0  0  0  0  0  0  0  0
   57.2300   31.1860   42.6490 C   0  0  0  0  0  0  0  0  0  0  0  0
   56.6970   30.9710   43.9300 C   0  0  0  0  0  0  0  0  0  0  0  0
   55.7420   29.8620   44.1590 C   0  0  0  0  0  0  0  0  0  0  0  0
   54.7940   29.6880   43.3480 O   0  0  0  0  0  0  0  0  0  0  0  0
   55.8840   28.9420   45.2510 N   0  0  0  0  0  0  0  0  0  0  0  0
   57.0170   28.1000   45.5180 C   0  0  0  0  0  0  0  0  0  0  0  0
   58.2110   28.6900   45.9480 C   0  0  0  0  0  0  0  0  0  0  0  0
   59.3340   27.9000   46.2120 C   0  0  0  0  0  0  0  0  0  0  0  0
   59.2730   26.5150   46.0390 C   0  0  0  0  0  0  0  0  0  0  0  0
   58.0880   25.9090   45.5940 C   0  0  0  0  0  0  0  0  0  0  0  0
   58.0220   24.4180   45.3860 C   0  0  0  0  0  0  0  0  0  0  0  0
   56.5860   23.9500   45.3370 C   0  0  0  0  0  0  0  0  0  0  0  0
   56.0670   23.3070   44.1980 C   0  0  0  0  0  0  0  0  0  0  0  0
   56.8580   23.1130   43.0680 O   0  0  0  0  0  0  0  0  0  0  0  0
   54.7800   22.8680   44.1950 N   0  0  0  0  0  0  0  0  0  0  0  0
   53.9780   23.0340   45.2770 C   0  0  0  0  0  0  0  0  0  0  0  0
   52.7910   22.6210   45.2490 O   0  0  0  0  0  0  0  0  0  0  0  0
   54.4560   23.6450   46.3900 N   0  0  0  0  0  0  0  0  0  0  0  0
   55.7340   24.1010   46.4470 C   0  0  0  0  0  0  0  0  0  0  0  0
   56.1430   24.6570   47.5010 O   0  0  0  0  0  0  0  0  0  0  0  0
   56.9690   26.7090   45.3150 C   0  0  0  0  0  0  0  0  0  0  0  0
   57.0890   31.8150   44.9840 C   0  0  0  0  0  0  0  0  0  0  0  0
  1  2  1  0
  2  3  1  0
  3  4  2  0
  3  5  1  0
  5  6  2  0
  6  7  1  0
  7  8  2  0
  8  9  1  0
  9 10  1  0
 10 11  2  0
 10 12  1  0
 12 13  1  0
 13 14  2  0
 14 15  1  0
 15 16  2  0
 16 17  1  0
 17 18  1  0
 18 19  1  0
 19 20  2  0
 20 21  1  0
 20 22  1  0
 22 23  1  0
 23 24  2  0
 23 25  1  0
 25 26  1  0
 26 27  2  0
 17 28  2  0
  9 29  2  0
 29  5  1  0
 28 13  1  0
 26 19  1  0
M  CHG  3  12  -1  22  -1  25  -1
M  END
>  <UniqueID>  (719) 
50

>  <SMILES>  (719) 
COC(=O)c1cccc(C(=O)[N-]c2cccc(Cc3c(O)[n-]c(=O)[n-]c3=O)c2)c1

>  <Energy>  (719) 
50.76297039918354

>  <Genealogy>  (719) 
COC(=O)c1cccc(C(=O)[N-]c2cccc(Cc3c(O)[n-]c(=O)[n-]c3=O)c2)c1 (protonated)
COC(=O)c1cccc(C(=O)[N-]c2cccc(Cc3c(O)[n-]c(=O)[n-]c3=O)c2)c1 (3D coordinates assigned)
COC(=O)c1cccc(C(=O)[N-]c2cccc(Cc3c(O)[n-]c(=O)[n-]c3=O)c2)c1 (optimized conformer: 50.76297039918354 kcal/mol)

>  <smiles>  (719) 
COC(=O)c1cccc(C(=O)Nc2cccc(Cc3c(O)[nH]c(=O)[nH]c3=O)c2)c1

>  <score_type>  (719) 
oracle

>  <origin>  (719) 
adg

>  <m_score__min__energy>  (719) 
-14.27

>  <m_primary>  (719) 
energy

$$$$
85:0
     RDKit          3D

 26 28  0  0  0  0  0  0  0  0999 V2000
   56.0310   21.3470   43.3750 O   0  0  0  0  0  0  0  0  0  0  0  0
   56.4930   22.3620   43.9570 C   0  0  0  0  0  0  0  0  0  0  0  0
   56.8550   23.5140   43.1980 N   0  0  0  0  0  0  0  0  0  0  0  0
   57.3510   24.6940   43.8340 C   0  0  0  0  0  0  0  0  0  0  0  0
   57.6660   25.6830   43.1180 O   0  0  0  0  0  0  0  0  0  0  0  0
   57.4750   24.7520   45.3140 C   0  0  0  0  0  0  0  0  0  0  0  0
   57.8650   25.9040   45.9050 C   0  0  0  0  0  0  0  0  0  0  0  0
   57.4290   27.2590   45.4990 C   0  0  0  0  0  0  0  0  0  0  0  0
   56.0820   27.6120   45.5820 C   0  0  0  0  0  0  0  0  0  0  0  0
   55.1300   26.6900   46.0000 O   0  0  0  0  0  0  0  0  0  0  0  0
   55.6930   28.8650   45.2460 N   0  0  0  0  0  0  0  0  0  0  0  0
   56.5840   29.8030   44.8380 C   0  0  0  0  0  0  0  0  0  0  0  0
   56.1600   30.9500   44.5330 O   0  0  0  0  0  0  0  0  0  0  0  0
   57.9230   29.5020   44.7620 N   0  0  0  0  0  0  0  0  0  0  0  0
   58.9000   30.5350   44.3590 C   0  0  0  0  0  0  0  0  0  0  0  0
   58.6480   31.8200   45.1060 C   0  0  0  0  0  0  0  0  0  0  0  0
   58.7090   31.8460   46.5100 C   0  0  0  0  0  0  0  0  0  0  0  0
   58.5040   33.0450   47.2010 C   0  0  0  0  0  0  0  0  0  0  0  0
   58.2440   34.2240   46.4980 C   0  0  0  0  0  0  0  0  0  0  0  0
   58.1850   34.2070   45.1020 C   0  0  0  0  0  0  0  0  0  0  0  0
   58.3890   33.0110   44.4070 C   0  0  0  0  0  0  0  0  0  0  0  0
   58.3540   28.2430   45.1050 C   0  0  0  0  0  0  0  0  0  0  0  0
   59.5840   27.9600   45.0730 O   0  0  0  0  0  0  0  0  0  0  0  0
   57.1770   23.4980   46.0640 C   0  0  0  0  0  0  0  0  0  0  0  0
   57.4060   23.3980   47.2980 O   0  0  0  0  0  0  0  0  0  0  0  0
   56.6630   22.3580   45.3720 N   0  0  0  0  0  0  0  0  0  0  0  0
  1  2  2  0
  2  3  1  0
  3  4  1  0
  4  5  2  0
  4  6  1  0
  6  7  2  3
  7  8  1  0
  8  9  2  0
  9 10  1  0
  9 11  1  0
 11 12  1  0
 12 13  2  0
 12 14  1  0
 14 15  1  0
 15 16  1  0
 16 17  2  0
 17 18  1  0
 18 19  2  0
 19 20  1  0
 20 21  2  0
 14 22  1  0
 22 23  2  0
  6 24  1  0
 24 25  2  0
 24 26  1  0
 26  2  1  0
 22  8  1  0
 21 16  1  0
M  CHG  4   3  -1  10  -1  11  -1  26  -1
M  END
>  <UniqueID>  (720) 
79

>  <SMILES>  (720) 
O=C1[N-]C(=O)C(=Cc2c([O-])[n-]c(=O)n(Cc3ccccc3)c2=O)C(=O)[N-]1

>  <Energy>  (720) 
50.583076468598215

>  <Genealogy>  (720) 
O=C1[N-]C(=O)C(=Cc2c([O-])[n-]c(=O)n(Cc3ccccc3)c2=O)C(=O)[N-]1 (protonated)
O=C1[N-]C(=O)C(=Cc2c([O-])[n-]c(=O)n(Cc3ccccc3)c2=O)C(=O)[N-]1 (3D coordinates assigned)
O=C1[N-]C(=O)C(=Cc2c([O-])[n-]c(=O)n(Cc3ccccc3)c2=O)C(=O)[N-]1 (nonaromatic ring conformer: 50.583076468598215 kcal/mol)

>  <smiles>  (720) 
O=C1NC(=O)C(=Cc2c(O)[nH]c(=O)n(Cc3ccccc3)c2=O)C(=O)N1

>  <score_type>  (720) 
oracle

>  <origin>  (720) 
adg

>  <m_score__min__energy>  (720) 
-16.260000000000002

>  <m_primary>  (720) 
energy

$$$$
93:0
     RDKit          3D

 27 29  0  0  0  0  0  0  0  0999 V2000
   58.4330   28.9470   44.8650 O   0  0  0  0  0  0  0  0  0  0  0  0
   57.2020   29.1120   44.6520 C   0  0  0  0  0  0  0  0  0  0  0  0
   56.7450   30.2260   43.7680 C   0  0  0  0  0  0  0  0  0  0  0  0
   57.3790   31.5050   44.2070 C   0  0  0  0  0  0  0  0  0  0  0  0
   57.3250   31.9600   45.4770 N   0  0  0  0  0  0  0  0  0  0  0  0
   57.8730   33.1990   45.5960 C   0  0  0  0  0  0  0  0  0  0  0  0
   57.9080   33.9200   46.9070 C   0  0  0  0  0  0  0  0  0  0  0  0
   59.3040   33.4160   47.9210 S   0  0  0  0  0  0  0  0  0  0  0  0
   58.9120   32.2320   48.7610 O   0  0  0  0  0  0  0  0  0  0  0  0
   59.6380   34.5560   48.8410 O   0  0  0  0  0  0  0  0  0  0  0  0
   60.7370   33.0220   46.9960 N   0  0  0  0  0  0  0  0  0  0  0  0
   61.7920   34.0330   47.1810 C   0  0  0  0  0  0  0  0  0  0  0  0
   63.1470   33.4830   46.7110 C   0  0  0  0  0  0  0  0  0  0  0  0
   63.5710   32.3050   47.3850 O   0  0  0  0  0  0  0  0  0  0  0  0
   62.5180   31.5880   48.0130 C   0  0  0  0  0  0  0  0  0  0  0  0
   61.1950   31.6370   47.2270 C   0  0  0  0  0  0  0  0  0  0  0  0
   58.3640   33.7430   44.4110 C   0  0  0  0  0  0  0  0  0  0  0  0
   58.0840   32.6320   43.1800 S   0  0  0  0  0  0  0  0  0  0  0  0
   56.2360   28.2420   45.2510 N   0  0  0  0  0  0  0  0  0  0  0  0
   56.5340   26.9720   45.8460 C   0  0  0  0  0  0  0  0  0  0  0  0
   57.8710   26.6010   46.0260 C   0  0  0  0  0  0  0  0  0  0  0  0
   58.1860   25.3680   46.5970 C   0  0  0  0  0  0  0  0  0  0  0  0
   57.1530   24.5010   46.9650 C   0  0  0  0  0  0  0  0  0  0  0  0
   57.4180   23.3880   47.4870 O   0  0  0  0  0  0  0  0  0  0  0  0
   55.8590   24.8570   46.7500 N   0  0  0  0  0  0  0  0  0  0  0  0
   55.5250   26.0530   46.1950 C   0  0  0  0  0  0  0  0  0  0  0  0
   54.1870   26.3330   45.9470 O   0  0  0  0  0  0  0  0  0  0  0  0
  1  2  2  0
  2  3  1  0
  3  4  1  0
  4  5  2  0
  5  6  1  0
  6  7  1  0
  7  8  1  0
  8  9  2  0
  8 10  2  0
  8 11  1  0
 11 12  1  0
 12 13  1  0
 13 14  1  0
 14 15  1  0
 15 16  1  0
  6 17  2  0
 17 18  1  0
  2 19  1  0
 19 20  1  0
 20 21  1  0
 21 22  2  0
 22 23  1  0
 23 24  2  0
 23 25  1  0
 25 26  1  0
 26 27  1  0
 18  4  1  0
 26 20  2  0
 16 11  1  0
M  CHG  3  19  -1  25  -1  27  -1
M  END
>  <UniqueID>  (721) 
87

>  <SMILES>  (721) 
O=C(Cc1nc(CS(=O)(=O)N2CCOCC2)cs1)[N-]c1ccc(=O)[n-]c1[O-]

>  <Energy>  (721) 
81.75676899811438

>  <Genealogy>  (721) 
O=C(Cc1nc(CS(=O)(=O)N2CCOCC2)cs1)[N-]c1ccc(=O)[n-]c1[O-] (protonated)
O=C(Cc1nc(CS(=O)(=O)N2CCOCC2)cs1)[N-]c1ccc(=O)[n-]c1[O-] (3D coordinates assigned)
O=C(Cc1nc(CS(=O)(=O)N2CCOCC2)cs1)[N-]c1ccc(=O)[n-]c1[O-] (nonaromatic ring conformer: 81.75676899811438 kcal/mol)

>  <smiles>  (721) 
O=C(Cc1nc(CS(=O)(=O)N2CCOCC2)cs1)Nc1ccc(=O)[nH]c1O

>  <score_type>  (721) 
oracle

>  <origin>  (721) 
adg

>  <m_score__min__energy>  (721) 
-17.219999999999999

>  <m_primary>  (721) 
energy

$$$$
95:0
     RDKit          3D

 25 26  0  0  0  0  0  0  0  0999 V2000
   59.7990   26.6660   45.9470 C   0  0  0  0  0  0  0  0  0  0  0  0
   58.4690   26.0100   46.1810 C   0  0  0  0  0  0  0  0  0  0  0  0
   58.4780   24.7830   46.7660 N   0  0  0  0  0  0  0  0  0  0  0  0
   57.3320   24.1390   47.0930 C   0  0  0  0  0  0  0  0  0  0  0  0
   57.3790   22.9980   47.6190 O   0  0  0  0  0  0  0  0  0  0  0  0
   56.1370   24.7280   46.8610 N   0  0  0  0  0  0  0  0  0  0  0  0
   56.0570   25.9580   46.2950 C   0  0  0  0  0  0  0  0  0  0  0  0
   54.9200   26.4700   46.1120 O   0  0  0  0  0  0  0  0  0  0  0  0
   57.2290   26.6450   45.9130 C   0  0  0  0  0  0  0  0  0  0  0  0
   57.1050   28.2770   45.1970 S   0  0  0  0  0  0  0  0  0  0  0  0
   55.6670   28.5910   44.8860 O   0  0  0  0  0  0  0  0  0  0  0  0
   57.8410   28.2900   43.8860 O   0  0  0  0  0  0  0  0  0  0  0  0
   57.7630   29.5460   46.2090 N   0  0  0  0  0  0  0  0  0  0  0  0
   58.5960   29.0160   47.2950 C   0  0  0  0  0  0  0  0  0  0  0  0
   58.3700   30.6630   45.4530 C   0  0  0  0  0  0  0  0  0  0  0  0
   57.3840   31.5330   44.7130 C   0  0  0  0  0  0  0  0  0  0  0  0
   56.2110   31.1230   44.5080 O   0  0  0  0  0  0  0  0  0  0  0  0
   57.7690   32.8460   44.2900 N   0  0  0  0  0  0  0  0  0  0  0  0
   57.5950   34.0380   45.1130 C   0  0  0  0  0  0  0  0  0  0  0  0
   58.4640   33.9560   46.3380 C   0  0  0  0  0  0  0  0  0  0  0  0
   59.6970   34.6290   46.3890 C   0  0  0  0  0  0  0  0  0  0  0  0
   60.5040   34.5340   47.5270 C   0  0  0  0  0  0  0  0  0  0  0  0
   60.0960   33.7560   48.6130 C   0  0  0  0  0  0  0  0  0  0  0  0
   58.8760   33.0760   48.5670 C   0  0  0  0  0  0  0  0  0  0  0  0
   58.0590   33.1790   47.4370 C   0  0  0  0  0  0  0  0  0  0  0  0
  1  2  1  0
  2  3  1  0
  3  4  1  0
  4  5  2  0
  4  6  1  0
  6  7  1  0
  7  8  2  0
  7  9  1  0
  9 10  1  0
 10 11  2  0
 10 12  2  0
 10 13  1  0
 13 14  1  0
 13 15  1  0
 15 16  1  0
 16 17  2  0
 16 18  1  0
 18 19  1  0
 19 20  1  0
 20 21  2  0
 21 22  1  0
 22 23  2  0
 23 24  1  0
 24 25  2  0
  9  2  2  0
 25 20  1  0
M  CHG  3   3  -1   6  -1  18  -1
M  END
>  <UniqueID>  (722) 
89

>  <SMILES>  (722) 
Cc1[n-]c(=O)[n-]c(=O)c1S(=O)(=O)N(C)CC(=O)[N-]Cc1ccccc1

>  <Energy>  (722) 
42.51202997382544

>  <Genealogy>  (722) 
Cc1[n-]c(=O)[n-]c(=O)c1S(=O)(=O)N(C)CC(=O)[N-]Cc1ccccc1 (protonated)
Cc1[n-]c(=O)[n-]c(=O)c1S(=O)(=O)N(C)CC(=O)[N-]Cc1ccccc1 (3D coordinates assigned)
Cc1[n-]c(=O)[n-]c(=O)c1S(=O)(=O)N(C)CC(=O)[N-]Cc1ccccc1 (optimized conformer: 42.51202997382544 kcal/mol)

>  <smiles>  (722) 
Cc1[nH]c(=O)[nH]c(=O)c1S(=O)(=O)N(C)CC(=O)NCc1ccccc1

>  <score_type>  (722) 
oracle

>  <origin>  (722) 
adg

>  <m_score__min__energy>  (722) 
-14.48

>  <m_primary>  (722) 
energy

$$$$
96:0
     RDKit          3D

 28 30  0  0  0  0  0  0  0  0999 V2000
   56.6430   33.2240   45.6390 O   0  0  0  0  0  0  0  0  0  0  0  0
   57.8000   32.7730   45.8600 C   0  0  0  0  0  0  0  0  0  0  0  0
   58.3150   31.6250   45.0530 C   0  0  0  0  0  0  0  0  0  0  0  0
   56.9920   30.9090   44.0160 S   0  0  0  0  0  0  0  0  0  0  0  0
   57.1430   29.2580   44.6940 C   0  0  0  0  0  0  0  0  0  0  0  0
   58.3640   28.6770   44.8060 N   0  0  0  0  0  0  0  0  0  0  0  0
   58.5020   27.4290   45.3230 C   0  0  0  0  0  0  0  0  0  0  0  0
   59.6530   26.9250   45.4120 O   0  0  0  0  0  0  0  0  0  0  0  0
   57.3660   26.7120   45.7480 C   0  0  0  0  0  0  0  0  0  0  0  0
   57.4840   25.3240   46.3320 C   0  0  0  0  0  0  0  0  0  0  0  0
   57.3380   24.2760   45.2620 C   0  0  0  0  0  0  0  0  0  0  0  0
   58.2370   23.1970   45.1940 C   0  0  0  0  0  0  0  0  0  0  0  0
   58.0890   22.2170   44.2080 C   0  0  0  0  0  0  0  0  0  0  0  0
   57.0480   22.3080   43.2810 C   0  0  0  0  0  0  0  0  0  0  0  0
   56.1640   23.3880   43.3260 C   0  0  0  0  0  0  0  0  0  0  0  0
   56.3070   24.3700   44.3110 C   0  0  0  0  0  0  0  0  0  0  0  0
   56.1160   27.3440   45.6280 C   0  0  0  0  0  0  0  0  0  0  0  0
   54.9520   26.7040   46.0360 O   0  0  0  0  0  0  0  0  0  0  0  0
   56.0330   28.5920   45.1030 N   0  0  0  0  0  0  0  0  0  0  0  0
   58.6230   33.3360   46.8870 N   0  0  0  0  0  0  0  0  0  0  0  0
   59.6710   34.2910   46.6800 C   0  0  0  0  0  0  0  0  0  0  0  0
   59.4440   35.3450   46.0240 O   0  0  0  0  0  0  0  0  0  0  0  0
   61.0200   34.0440   47.2390 C   0  0  0  0  0  0  0  0  0  0  0  0
   62.1260   33.8610   46.3870 C   0  0  0  0  0  0  0  0  0  0  0  0
   63.3910   33.5870   46.9150 C   0  0  0  0  0  0  0  0  0  0  0  0
   63.5670   33.4910   48.2980 C   0  0  0  0  0  0  0  0  0  0  0  0
   62.4800   33.6810   49.1540 C   0  0  0  0  0  0  0  0  0  0  0  0
   61.2140   33.9600   48.6320 C   0  0  0  0  0  0  0  0  0  0  0  0
  1  2  2  0
  2  3  1  0
  3  4  1  0
  4  5  1  0
  5  6  2  0
  6  7  1  0
  7  8  2  0
  7  9  1  0
  9 10  1  0
 10 11  1  0
 11 12  2  0
 12 13  1  0
 13 14  2  0
 14 15  1  0
 15 16  2  0
  9 17  2  0
 17 18  1  0
 17 19  1  0
  2 20  1  0
 20 21  1  0
 21 22  2  0
 21 23  1  0
 23 24  2  0
 24 25  1  0
 25 26  2  0
 26 27  1  0
 27 28  2  0
 19  5  1  0
 28 23  1  0
 16 11  1  0
M  CHG  3  18  -1  19  -1  20  -1
M  END
>  <UniqueID>  (723) 
90

>  <SMILES>  (723) 
O=C(CSc1nc(=O)c(Cc2ccccc2)c([O-])[n-]1)[N-]C(=O)c1ccccc1

>  <Energy>  (723) 
37.90877062534293

>  <Genealogy>  (723) 
O=C(CSc1nc(=O)c(Cc2ccccc2)c([O-])[n-]1)[N-]C(=O)c1ccccc1 (protonated)
O=C(CSc1nc(=O)c(Cc2ccccc2)c([O-])[n-]1)[N-]C(=O)c1ccccc1 (3D coordinates assigned)
O=C(CSc1nc(=O)c(Cc2ccccc2)c([O-])[n-]1)[N-]C(=O)c1ccccc1 (optimized conformer: 37.90877062534293 kcal/mol)

>  <smiles>  (723) 
O=C(CSc1nc(=O)c(Cc2ccccc2)c(O)[nH]1)NC(=O)c1ccccc1

>  <score_type>  (723) 
oracle

>  <origin>  (723) 
adg

>  <m_score__min__energy>  (723) 
-16.579999999999998

>  <m_primary>  (723) 
energy

$$$$
53:0
     RDKit          3D

 29 32  0  0  0  0  0  0  0  0999 V2000
   56.9820   33.6560   45.2280 C   0  0  0  0  0  0  0  0  0  0  0  0
   58.1180   32.8430   45.7720 C   0  0  0  0  0  0  0  0  0  0  0  0
   58.2000   31.4620   45.7800 C   0  0  0  0  0  0  0  0  0  0  0  0
   57.1660   30.5460   45.4040 N   0  0  0  0  0  0  0  0  0  0  0  0
   57.3340   29.1350   45.2220 C   0  0  0  0  0  0  0  0  0  0  0  0
   57.5520   28.6920   44.0630 O   0  0  0  0  0  0  0  0  0  0  0  0
   57.4170   28.1910   46.3890 C   0  0  0  0  0  0  0  0  0  0  0  0
   57.2560   26.8150   45.9220 N   0  0  0  0  0  0  0  0  0  0  0  0
   58.2400   25.9230   45.6630 C   0  0  0  0  0  0  0  0  0  0  0  0
   59.5980   26.2110   45.7460 O   0  0  0  0  0  0  0  0  0  0  0  0
   57.7010   24.6980   45.3220 C   0  0  0  0  0  0  0  0  0  0  0  0
   56.3360   24.8370   45.3930 C   0  0  0  0  0  0  0  0  0  0  0  0
   56.0920   26.1420   45.7740 C   0  0  0  0  0  0  0  0  0  0  0  0
   54.8350   26.6950   45.9990 O   0  0  0  0  0  0  0  0  0  0  0  0
   55.3680   23.7210   45.1670 C   0  0  0  0  0  0  0  0  0  0  0  0
   56.0680   22.4660   44.6790 C   0  0  0  0  0  0  0  0  0  0  0  0
   57.4110   22.3290   44.6080 C   0  0  0  0  0  0  0  0  0  0  0  0
   58.3960   23.4140   45.0000 C   0  0  0  0  0  0  0  0  0  0  0  0
   59.4150   31.1790   46.3660 C   0  0  0  0  0  0  0  0  0  0  0  0
   59.8480   30.0310   46.6590 O   0  0  0  0  0  0  0  0  0  0  0  0
   60.0530   32.3320   46.6490 N   0  0  0  0  0  0  0  0  0  0  0  0
   61.3440   32.4450   47.2750 C   0  0  0  0  0  0  0  0  0  0  0  0
   61.6150   31.7480   48.4630 C   0  0  0  0  0  0  0  0  0  0  0  0
   62.8640   31.8640   49.0790 C   0  0  0  0  0  0  0  0  0  0  0  0
   63.8490   32.6800   48.5160 C   0  0  0  0  0  0  0  0  0  0  0  0
   63.5840   33.3860   47.3390 C   0  0  0  0  0  0  0  0  0  0  0  0
   62.3360   33.2710   46.7210 C   0  0  0  0  0  0  0  0  0  0  0  0
   59.2750   33.3450   46.2710 N   0  0  0  0  0  0  0  0  0  0  0  0
   59.6180   34.7650   46.3860 C   0  0  0  0  0  0  0  0  0  0  0  0
  1  2  1  0
  2  3  2  0
  3  4  1  0
  4  5  1  0
  5  6  2  0
  5  7  1  0
  7  8  1  0
  8  9  1  0
  9 10  1  0
  9 11  2  0
 11 12  1  0
 12 13  2  0
 13 14  1  0
 12 15  1  0
 15 16  1  0
 16 17  2  0
 17 18  1  0
  3 19  1  0
 19 20  2  0
 19 21  1  0
 21 22  1  0
 22 23  2  0
 23 24  1  0
 24 25  2  0
 25 26  1  0
 26 27  2  0
 21 28  1  0
 28 29  1  0
 28  2  1  0
 13  8  1  0
 27 22  1  0
 18 11  1  0
M  CHG  3   4  -1  10  -1  14  -1
M  END
>  <UniqueID>  (724) 
51

>  <SMILES>  (724) 
Cc1c([N-]C(=O)Cn2c([O-])c3c(c2[O-])CC=CC3)c(=O)n(-c2ccccc2)n1C

>  <Energy>  (724) 
128.0982318293105

>  <Genealogy>  (724) 
Cc1c([N-]C(=O)Cn2c([O-])c3c(c2[O-])CC=CC3)c(=O)n(-c2ccccc2)n1C (protonated)
Cc1c([N-]C(=O)Cn2c([O-])c3c(c2[O-])CC=CC3)c(=O)n(-c2ccccc2)n1C (3D coordinates assigned)
Cc1c([N-]C(=O)Cn2c([O-])c3c(c2[O-])CC=CC3)c(=O)n(-c2ccccc2)n1C (nonaromatic ring conformer: 128.0982318293105 kcal/mol)

>  <smiles>  (724) 
Cc1c(NC(=O)Cn2c(O)c3c(c2O)CC=CC3)c(=O)n(-c2ccccc2)n1C

>  <score_type>  (724) 
oracle

>  <origin>  (724) 
adg

>  <m_score__min__energy>  (724) 
-14.6

>  <m_primary>  (724) 
energy

$$$$
59:0
     RDKit          3D

 24 26  0  0  0  0  0  0  0  0999 V2000
   58.8670   28.2230   47.2970 C   0  0  0  0  0  0  0  0  0  0  0  0
   58.1880   28.9580   46.4040 C   0  0  0  0  0  0  0  0  0  0  0  0
   57.5040   28.4930   45.2780 C   0  0  0  0  0  0  0  0  0  0  0  0
   57.4020   27.2130   44.8660 C   0  0  0  0  0  0  0  0  0  0  0  0
   57.1500   26.0720   45.7640 C   0  0  0  0  0  0  0  0  0  0  0  0
   55.8780   25.8610   46.3160 C   0  0  0  0  0  0  0  0  0  0  0  0
   54.8200   26.7040   45.9970 O   0  0  0  0  0  0  0  0  0  0  0  0
   55.6740   24.8220   47.1670 N   0  0  0  0  0  0  0  0  0  0  0  0
   56.6880   23.9850   47.5050 C   0  0  0  0  0  0  0  0  0  0  0  0
   56.4110   22.7430   48.5270 S   0  0  0  0  0  0  0  0  0  0  0  0
   57.9320   24.1830   47.0000 N   0  0  0  0  0  0  0  0  0  0  0  0
   58.1870   25.2070   46.1440 C   0  0  0  0  0  0  0  0  0  0  0  0
   59.3540   25.3670   45.6980 O   0  0  0  0  0  0  0  0  0  0  0  0
   56.9710   29.6520   44.7040 C   0  0  0  0  0  0  0  0  0  0  0  0
   56.1350   29.7810   43.4680 C   0  0  0  0  0  0  0  0  0  0  0  0
   57.3150   30.7230   45.4460 N   0  0  0  0  0  0  0  0  0  0  0  0
   58.0510   30.3060   46.4630 N   0  0  0  0  0  0  0  0  0  0  0  0
   58.5510   31.2180   47.4950 C   0  0  0  0  0  0  0  0  0  0  0  0
   58.9360   32.5390   46.8840 C   0  0  0  0  0  0  0  0  0  0  0  0
   60.2740   32.9700   46.8900 C   0  0  0  0  0  0  0  0  0  0  0  0
   60.6190   34.2030   46.3280 C   0  0  0  0  0  0  0  0  0  0  0  0
   59.6340   35.0120   45.7550 C   0  0  0  0  0  0  0  0  0  0  0  0
   58.3030   34.5890   45.7410 C   0  0  0  0  0  0  0  0  0  0  0  0
   57.9530   33.3570   46.3010 C   0  0  0  0  0  0  0  0  0  0  0  0
  1  2  2  0
  2  3  1  0
  3  4  2  3
  4  5  1  0
  5  6  2  0
  6  7  1  0
  6  8  1  0
  8  9  1  0
  9 10  2  0
  9 11  1  0
 11 12  1  0
 12 13  2  0
  3 14  1  0
 14 15  1  0
 14 16  2  0
 16 17  1  0
 17 18  1  0
 18 19  1  0
 19 20  2  0
 20 21  1  0
 21 22  2  0
 22 23  1  0
 23 24  2  0
 17  2  1  0
 24 19  1  0
 12  5  1  0
M  CHG  3   7  -1   8  -1  11  -1
M  END
>  <UniqueID>  (725) 
57

>  <SMILES>  (725) 
C=c1c(=Cc2c([O-])[n-]c(=S)[n-]c2=O)c(C)nn1Cc1ccccc1

>  <Energy>  (725) 
83.27598704127206

>  <Genealogy>  (725) 
C=c1c(=Cc2c([O-])[n-]c(=S)[n-]c2=O)c(C)nn1Cc1ccccc1 (protonated)
C=c1c(=Cc2c([O-])[n-]c(=S)[n-]c2=O)c(C)nn1Cc1ccccc1 (3D coordinates assigned)
C=c1c(=Cc2c([O-])[n-]c(=S)[n-]c2=O)c(C)nn1Cc1ccccc1 (optimized conformer: 83.27598704127206 kcal/mol)

>  <smiles>  (725) 
C=c1c(=Cc2c(O)[nH]c(=S)[nH]c2=O)c(C)nn1Cc1ccccc1

>  <score_type>  (725) 
oracle

>  <origin>  (725) 
adg

>  <m_score__min__energy>  (725) 
-15.66

>  <m_primary>  (725) 
energy

$$$$
63:0
     RDKit          3D

 26 28  0  0  0  0  0  0  0  0999 V2000
   59.2710   33.4050   48.8600 C   0  0  0  0  0  0  0  0  0  0  0  0
   58.9950   33.5960   47.3980 C   0  0  0  0  0  0  0  0  0  0  0  0
   59.4530   34.7380   46.7250 C   0  0  0  0  0  0  0  0  0  0  0  0
   59.1980   34.8980   45.3610 C   0  0  0  0  0  0  0  0  0  0  0  0
   58.4900   33.9200   44.6590 C   0  0  0  0  0  0  0  0  0  0  0  0
   58.0220   32.7710   45.3170 C   0  0  0  0  0  0  0  0  0  0  0  0
   57.2680   31.7380   44.5650 C   0  0  0  0  0  0  0  0  0  0  0  0
   57.0870   31.8850   43.3270 O   0  0  0  0  0  0  0  0  0  0  0  0
   56.7720   30.5470   45.1950 N   0  0  0  0  0  0  0  0  0  0  0  0
   57.2390   29.2120   44.9520 C   0  0  0  0  0  0  0  0  0  0  0  0
   57.8600   28.9200   43.7330 C   0  0  0  0  0  0  0  0  0  0  0  0
   58.3560   27.6370   43.4830 C   0  0  0  0  0  0  0  0  0  0  0  0
   58.2250   26.6350   44.4470 C   0  0  0  0  0  0  0  0  0  0  0  0
   57.5760   26.9030   45.6630 C   0  0  0  0  0  0  0  0  0  0  0  0
   57.4430   25.8340   46.7150 C   0  0  0  0  0  0  0  0  0  0  0  0
   56.3310   24.8720   46.3600 C   0  0  0  0  0  0  0  0  0  0  0  0
   55.0570   25.3460   46.0040 C   0  0  0  0  0  0  0  0  0  0  0  0
   54.7870   26.7100   45.9860 O   0  0  0  0  0  0  0  0  0  0  0  0
   54.0720   24.4700   45.6740 N   0  0  0  0  0  0  0  0  0  0  0  0
   54.2950   23.1330   45.6760 C   0  0  0  0  0  0  0  0  0  0  0  0
   53.3670   22.3410   45.3670 O   0  0  0  0  0  0  0  0  0  0  0  0
   55.5180   22.6470   46.0050 N   0  0  0  0  0  0  0  0  0  0  0  0
   56.5380   23.4780   46.3390 C   0  0  0  0  0  0  0  0  0  0  0  0
   57.6610   22.9870   46.6290 O   0  0  0  0  0  0  0  0  0  0  0  0
   57.0690   28.1910   45.9020 C   0  0  0  0  0  0  0  0  0  0  0  0
   58.2980   32.6080   46.6870 C   0  0  0  0  0  0  0  0  0  0  0  0
  1  2  1  0
  2  3  2  0
  3  4  1  0
  4  5  2  0
  5  6  1  0
  6  7  1  0
  7  8  2  0
  7  9  1  0
  9 10  1  0
 10 11  2  0
 11 12  1  0
 12 13  2  0
 13 14  1  0
 14 15  1  0
 15 16  1  0
 16 17  2  0
 17 18  1  0
 17 19  1  0
 19 20  1  0
 20 21  2  0
 20 22  1  0
 22 23  1  0
 23 24  2  0
 14 25  2  0
  6 26  2  0
 26  2  1  0
 25 10  1  0
 23 16  1  0
M  CHG  4   9  -1  18  -1  19  -1  22  -1
M  END
>  <UniqueID>  (726) 
61

>  <SMILES>  (726) 
Cc1cccc(C(=O)[N-]c2cccc(Cc3c([O-])[n-]c(=O)[n-]c3=O)c2)c1

>  <Energy>  (726) 
45.28495841346775

>  <Genealogy>  (726) 
Cc1cccc(C(=O)[N-]c2cccc(Cc3c([O-])[n-]c(=O)[n-]c3=O)c2)c1 (protonated)
Cc1cccc(C(=O)[N-]c2cccc(Cc3c([O-])[n-]c(=O)[n-]c3=O)c2)c1 (3D coordinates assigned)
Cc1cccc(C(=O)[N-]c2cccc(Cc3c([O-])[n-]c(=O)[n-]c3=O)c2)c1 (optimized conformer: 45.28495841346775 kcal/mol)

>  <smiles>  (726) 
Cc1cccc(C(=O)Nc2cccc(Cc3c(O)[nH]c(=O)[nH]c3=O)c2)c1

>  <score_type>  (726) 
oracle

>  <origin>  (726) 
adg

>  <m_score__min__energy>  (726) 
-17.52

>  <m_primary>  (726) 
energy

$$$$
86:0
     RDKit          3D

 31 34  0  0  0  0  0  0  0  0999 V2000
   56.6170   30.5650   42.8900 C   0  0  0  0  0  0  0  0  0  0  0  0
   57.4010   31.4450   43.8250 C   0  0  0  0  0  0  0  0  0  0  0  0
   57.8140   32.7190   43.4060 C   0  0  0  0  0  0  0  0  0  0  0  0
   58.5350   33.5480   44.2680 C   0  0  0  0  0  0  0  0  0  0  0  0
   58.8410   33.1210   45.5640 C   0  0  0  0  0  0  0  0  0  0  0  0
   59.7230   34.1860   46.6630 S   0  0  0  0  0  0  0  0  0  0  0  0
   60.0380   35.4760   45.9560 O   0  0  0  0  0  0  0  0  0  0  0  0
   58.8500   34.5040   47.8450 O   0  0  0  0  0  0  0  0  0  0  0  0
   61.2070   33.4560   47.2260 N   0  0  0  0  0  0  0  0  0  0  0  0
   61.4520   33.8090   48.6340 C   0  0  0  0  0  0  0  0  0  0  0  0
   62.8590   33.3530   49.0710 C   0  0  0  0  0  0  0  0  0  0  0  0
   63.4480   32.5050   48.1040 O   0  0  0  0  0  0  0  0  0  0  0  0
   63.6400   33.2170   46.8940 C   0  0  0  0  0  0  0  0  0  0  0  0
   62.3400   33.8810   46.3920 C   0  0  0  0  0  0  0  0  0  0  0  0
   58.4330   31.8500   45.9900 C   0  0  0  0  0  0  0  0  0  0  0  0
   57.7270   30.9970   45.1210 C   0  0  0  0  0  0  0  0  0  0  0  0
   57.2810   29.7000   45.5470 N   0  0  0  0  0  0  0  0  0  0  0  0
   58.0750   28.6760   46.1600 C   0  0  0  0  0  0  0  0  0  0  0  0
   59.3160   28.6030   45.9480 O   0  0  0  0  0  0  0  0  0  0  0  0
   57.4050   27.6180   46.9770 C   0  0  0  0  0  0  0  0  0  0  0  0
   57.1940   26.4190   46.1650 N   0  0  0  0  0  0  0  0  0  0  0  0
   56.0030   25.9290   45.7550 C   0  0  0  0  0  0  0  0  0  0  0  0
   54.7780   26.5410   45.9990 O   0  0  0  0  0  0  0  0  0  0  0  0
   56.1770   24.7390   45.0790 C   0  0  0  0  0  0  0  0  0  0  0  0
   57.5240   24.4780   45.0860 C   0  0  0  0  0  0  0  0  0  0  0  0
   58.1250   25.5200   45.7670 C   0  0  0  0  0  0  0  0  0  0  0  0
   59.4930   25.6180   46.0170 O   0  0  0  0  0  0  0  0  0  0  0  0
   58.1420   23.2480   44.5080 C   0  0  0  0  0  0  0  0  0  0  0  0
   57.1140   22.3770   43.8120 C   0  0  0  0  0  0  0  0  0  0  0  0
   55.7870   22.6380   43.7990 C   0  0  0  0  0  0  0  0  0  0  0  0
   55.1500   23.8320   44.4810 C   0  0  0  0  0  0  0  0  0  0  0  0
  1  2  1  0
  2  3  2  0
  3  4  1  0
  4  5  2  0
  5  6  1  0
  6  7  2  0
  6  8  2  0
  6  9  1  0
  9 10  1  0
 10 11  1  0
 11 12  1  0
 12 13  1  0
 13 14  1  0
  5 15  1  0
 15 16  2  0
 16 17  1  0
 17 18  1  0
 18 19  2  0
 18 20  1  0
 20 21  1  0
 21 22  1  0
 22 23  1  0
 22 24  2  0
 24 25  1  0
 25 26  2  0
 26 27  1  0
 25 28  1  0
 28 29  1  0
 29 30  2  0
 30 31  1  0
 16  2  1  0
 26 21  1  0
 14  9  1  0
 31 24  1  0
M  CHG  2  17  -1  23  -1
M  END
>  <UniqueID>  (727) 
83

>  <SMILES>  (727) 
Cc1ccc(S(=O)(=O)N2CCOCC2)cc1[N-]C(=O)Cn1c([O-])c2c(c1O)CC=CC2

>  <Energy>  (727) 
96.66643528280214

>  <Genealogy>  (727) 
Cc1ccc(S(=O)(=O)N2CCOCC2)cc1[N-]C(=O)Cn1c([O-])c2c(c1O)CC=CC2 (protonated)
Cc1ccc(S(=O)(=O)N2CCOCC2)cc1[N-]C(=O)Cn1c([O-])c2c(c1O)CC=CC2 (3D coordinates assigned)
Cc1ccc(S(=O)(=O)N2CCOCC2)cc1[N-]C(=O)Cn1c([O-])c2c(c1O)CC=CC2 (nonaromatic ring conformer: 96.66643528280214 kcal/mol)

>  <smiles>  (727) 
Cc1ccc(S(=O)(=O)N2CCOCC2)cc1NC(=O)Cn1c(O)c2c(c1O)CC=CC2

>  <score_type>  (727) 
oracle

>  <origin>  (727) 
adg

>  <m_score__min__energy>  (727) 
-14.18

>  <m_primary>  (727) 
energy

$$$$
90:0
     RDKit          3D

 28 30  0  0  0  0  0  0  0  0999 V2000
   59.3190   30.3160   49.4430 O   0  0  0  0  0  0  0  0  0  0  0  0
   58.6280   30.8930   50.5090 C   0  0  0  0  0  0  0  0  0  0  0  0
   57.8130   30.0590   51.2840 C   0  0  0  0  0  0  0  0  0  0  0  0
   57.0330   30.5830   52.3220 C   0  0  0  0  0  0  0  0  0  0  0  0
   55.9720   29.5410   53.2690 S   0  0  0  0  0  0  0  0  0  0  0  0
   56.8070   28.7850   54.2640 O   0  0  0  0  0  0  0  0  0  0  0  0
   55.2850   28.5460   52.3750 O   0  0  0  0  0  0  0  0  0  0  0  0
   54.7760   30.4710   54.1260 N   0  0  0  0  0  0  0  0  0  0  0  0
   53.4370   29.8930   53.9820 C   0  0  0  0  0  0  0  0  0  0  0  0
   52.7170   30.4680   52.7910 C   0  0  0  0  0  0  0  0  0  0  0  0
   52.9440   29.9430   51.5090 C   0  0  0  0  0  0  0  0  0  0  0  0
   52.2870   30.4850   50.3990 C   0  0  0  0  0  0  0  0  0  0  0  0
   51.3990   31.5510   50.5630 C   0  0  0  0  0  0  0  0  0  0  0  0
   51.1630   32.0770   51.8370 C   0  0  0  0  0  0  0  0  0  0  0  0
   50.2790   33.1370   51.9990 O   0  0  0  0  0  0  0  0  0  0  0  0
   51.8180   31.5360   52.9500 C   0  0  0  0  0  0  0  0  0  0  0  0
   57.0700   31.9540   52.5870 C   0  0  0  0  0  0  0  0  0  0  0  0
   57.8940   32.7950   51.8370 C   0  0  0  0  0  0  0  0  0  0  0  0
   58.6970   32.2780   50.8050 C   0  0  0  0  0  0  0  0  0  0  0  0
   59.6050   33.2000   50.0870 C   0  0  0  0  0  0  0  0  0  0  0  0
   59.9700   34.2760   50.6330 O   0  0  0  0  0  0  0  0  0  0  0  0
   60.0140   32.8810   48.7450 N   0  0  0  0  0  0  0  0  0  0  0  0
   59.2830   32.9280   47.6690 C   0  0  0  0  0  0  0  0  0  0  0  0
   58.8220   31.7920   47.0730 N   0  0  0  0  0  0  0  0  0  0  0  0
   58.0560   31.8290   45.9490 C   0  0  0  0  0  0  0  0  0  0  0  0
   57.7210   33.0550   45.3710 C   0  0  0  0  0  0  0  0  0  0  0  0
   58.1790   34.2330   45.9610 C   0  0  0  0  0  0  0  0  0  0  0  0
   58.9630   34.1750   47.1150 C   0  0  0  0  0  0  0  0  0  0  0  0
  1  2  1  0
  2  3  2  0
  3  4  1  0
  4  5  1  0
  5  6  2  0
  5  7  2  0
  5  8  1  0
  8  9  1  0
  9 10  1  0
 10 11  2  0
 11 12  1  0
 12 13  2  0
 13 14  1  0
 14 15  1  0
 14 16  2  0
  4 17  2  0
 17 18  1  0
 18 19  2  0
 19 20  1  0
 20 21  2  0
 20 22  1  0
 22 23  2  0
 23 24  1  0
 24 25  1  0
 25 26  2  0
 26 27  1  0
 27 28  2  0
 19  2  1  0
 28 23  1  0
 16 10  1  0
M  CHG  3   8  -1  15  -1  24  -1
M  END
>  <UniqueID>  (728) 
86

>  <SMILES>  (728) 
O=C(/N=c1/cccc[n-]1)c1ccc(S(=O)(=O)[N-]Cc2cccc([O-])c2)cc1O

>  <Energy>  (728) 
52.18998104509168

>  <Genealogy>  (728) 
O=C(N=c1cccc[n-]1)c1ccc(S(=O)(=O)[N-]Cc2cccc([O-])c2)cc1O (protonated)
O=C(/N=c1/cccc[n-]1)c1ccc(S(=O)(=O)[N-]Cc2cccc([O-])c2)cc1O (cis-trans isomerization)
O=C(/N=c1/cccc[n-]1)c1ccc(S(=O)(=O)[N-]Cc2cccc([O-])c2)cc1O (3D coordinates assigned)
O=C(/N=c1/cccc[n-]1)c1ccc(S(=O)(=O)[N-]Cc2cccc([O-])c2)cc1O (optimized conformer: 52.18998104509168 kcal/mol)

>  <smiles>  (728) 
O=C(N=c1cccc[nH]1)c1ccc(S(=O)(=O)NCc2cccc(O)c2)cc1O

>  <score_type>  (728) 
oracle

>  <origin>  (728) 
adg

>  <m_score__min__energy>  (728) 
-15.380000000000001

>  <m_primary>  (728) 
energy

$$$$
23:0
     RDKit          3D

 26 28  0  0  0  0  0  0  0  0999 V2000
   54.8520   26.3230   45.9980 N   0  0  0  0  0  0  0  0  0  0  0  0
   56.5210   25.8800   46.0510 S   0  0  0  0  0  0  0  0  0  0  0  0
   56.8760   25.4460   47.4470 O   0  0  0  0  0  0  0  0  0  0  0  0
   56.7670   24.7310   45.1130 O   0  0  0  0  0  0  0  0  0  0  0  0
   57.5100   27.2550   45.5710 C   0  0  0  0  0  0  0  0  0  0  0  0
   58.9060   27.1710   45.6480 C   0  0  0  0  0  0  0  0  0  0  0  0
   59.6960   28.2540   45.2570 C   0  0  0  0  0  0  0  0  0  0  0  0
   59.0990   29.4290   44.7950 C   0  0  0  0  0  0  0  0  0  0  0  0
   57.7000   29.5330   44.7280 C   0  0  0  0  0  0  0  0  0  0  0  0
   57.0480   30.7720   44.2540 C   0  0  0  0  0  0  0  0  0  0  0  0
   55.8400   30.9750   44.5470 O   0  0  0  0  0  0  0  0  0  0  0  0
   57.7570   31.7840   43.5270 N   0  0  0  0  0  0  0  0  0  0  0  0
   58.1700   33.0790   44.0580 C   0  0  0  0  0  0  0  0  0  0  0  0
   57.6700   33.2260   45.4640 C   0  0  0  0  0  0  0  0  0  0  0  0
   56.7040   34.0030   45.6890 O   0  0  0  0  0  0  0  0  0  0  0  0
   58.2960   32.5620   46.5710 N   0  0  0  0  0  0  0  0  0  0  0  0
   59.4920   32.9740   47.2460 C   0  0  0  0  0  0  0  0  0  0  0  0
   59.3830   33.7830   48.3940 C   0  0  0  0  0  0  0  0  0  0  0  0
   60.5320   34.2060   49.0780 C   0  0  0  0  0  0  0  0  0  0  0  0
   61.7830   33.7960   48.6090 C   0  0  0  0  0  0  0  0  0  0  0  0
   61.8950   32.9810   47.5130 C   0  0  0  0  0  0  0  0  0  0  0  0
   60.7650   32.5430   46.8190 C   0  0  0  0  0  0  0  0  0  0  0  0
   63.3040   32.6470   47.2090 C   0  0  0  0  0  0  0  0  0  0  0  0
   64.1110   33.4390   48.2560 C   0  0  0  0  0  0  0  0  0  0  0  0
   63.1010   34.1320   49.1920 C   0  0  0  0  0  0  0  0  0  0  0  0
   56.9110   28.4290   45.0920 C   0  0  0  0  0  0  0  0  0  0  0  0
  1  2  1  0
  2  3  2  0
  2  4  2  0
  2  5  1  0
  5  6  2  0
  6  7  1  0
  7  8  2  0
  8  9  1  0
  9 10  1  0
 10 11  2  0
 10 12  1  0
 12 13  1  0
 13 14  1  0
 14 15  2  0
 14 16  1  0
 16 17  1  0
 17 18  2  0
 18 19  1  0
 19 20  2  0
 20 21  1  0
 21 22  2  0
 21 23  1  0
 23 24  1  0
 24 25  1  0
  9 26  2  0
 26  5  1  0
 22 17  1  0
 25 20  1  0
M  CHG  3   1  -1  12  -1  16  -1
M  END
>  <UniqueID>  (729) 
21

>  <SMILES>  (729) 
[NH-]S(=O)(=O)c1cccc(C(=O)[N-]CC(=O)[N-]c2ccc3c(c2)CCC3)c1

>  <Energy>  (729) 
55.82141271653918

>  <Genealogy>  (729) 
[NH-]S(=O)(=O)c1cccc(C(=O)[N-]CC(=O)[N-]c2ccc3c(c2)CCC3)c1 (protonated)
[NH-]S(=O)(=O)c1cccc(C(=O)[N-]CC(=O)[N-]c2ccc3c(c2)CCC3)c1 (3D coordinates assigned)
[NH-]S(=O)(=O)c1cccc(C(=O)[N-]CC(=O)[N-]c2ccc3c(c2)CCC3)c1 (nonaromatic ring conformer: 55.82141271653918 kcal/mol)

>  <smiles>  (729) 
NS(=O)(=O)c1cccc(C(=O)NCC(=O)Nc2ccc3c(c2)CCC3)c1

>  <score_type>  (729) 
oracle

>  <origin>  (729) 
adg

>  <m_score__min__energy>  (729) 
-14.76

>  <m_primary>  (729) 
energy

$$$$
25:0
     RDKit          3D

 27 29  0  0  0  0  0  0  0  0999 V2000
   58.3190   32.6900   49.3670 N   0  0  0  0  0  0  0  0  0  0  0  0
   59.3910   32.6870   48.9330 C   0  0  0  0  0  0  0  0  0  0  0  0
   60.7280   32.6800   48.3900 C   0  0  0  0  0  0  0  0  0  0  0  0
   61.5530   33.7900   48.6200 C   0  0  0  0  0  0  0  0  0  0  0  0
   62.8540   33.8180   48.1110 C   0  0  0  0  0  0  0  0  0  0  0  0
   63.3400   32.7380   47.3730 C   0  0  0  0  0  0  0  0  0  0  0  0
   62.5260   31.6260   47.1380 C   0  0  0  0  0  0  0  0  0  0  0  0
   61.2160   31.5860   47.6400 C   0  0  0  0  0  0  0  0  0  0  0  0
   60.2030   30.1720   47.3130 S   0  0  0  0  0  0  0  0  0  0  0  0
   60.2030   29.2800   48.5220 O   0  0  0  0  0  0  0  0  0  0  0  0
   60.7270   29.3950   46.1370 O   0  0  0  0  0  0  0  0  0  0  0  0
   58.5840   30.6810   46.9780 N   0  0  0  0  0  0  0  0  0  0  0  0
   58.1600   31.1590   45.6980 C   0  0  0  0  0  0  0  0  0  0  0  0
   58.6830   32.5800   44.9630 S   0  0  0  0  0  0  0  0  0  0  0  0
   57.7850   32.3880   43.5540 C   0  0  0  0  0  0  0  0  0  0  0  0
   57.0640   31.2040   43.6470 C   0  0  0  0  0  0  0  0  0  0  0  0
   57.2660   30.5060   44.8510 C   0  0  0  0  0  0  0  0  0  0  0  0
   56.5890   29.2300   45.1630 C   0  0  0  0  0  0  0  0  0  0  0  0
   55.4050   29.0410   44.7730 O   0  0  0  0  0  0  0  0  0  0  0  0
   57.2250   28.2660   46.0140 N   0  0  0  0  0  0  0  0  0  0  0  0
   57.2400   26.9650   45.9200 C   0  0  0  0  0  0  0  0  0  0  0  0
   58.4480   26.3600   45.7500 N   0  0  0  0  0  0  0  0  0  0  0  0
   58.5880   25.0120   45.6470 C   0  0  0  0  0  0  0  0  0  0  0  0
   57.4660   24.1900   45.7110 C   0  0  0  0  0  0  0  0  0  0  0  0
   56.2060   24.7670   45.8570 C   0  0  0  0  0  0  0  0  0  0  0  0
   56.0740   26.1560   45.9440 C   0  0  0  0  0  0  0  0  0  0  0  0
   54.7930   26.6930   45.9970 O   0  0  0  0  0  0  0  0  0  0  0  0
  1  2  3  0
  2  3  1  0
  3  4  2  0
  4  5  1  0
  5  6  2  0
  6  7  1  0
  7  8  2  0
  8  9  1  0
  9 10  2  0
  9 11  2  0
  9 12  1  0
 12 13  1  0
 13 14  1  0
 14 15  1  0
 15 16  2  0
 16 17  1  0
 17 18  1  0
 18 19  2  0
 18 20  1  0
 20 21  2  3
 21 22  1  0
 22 23  1  0
 23 24  2  0
 24 25  1  0
 25 26  2  0
 26 27  1  0
  8  3  1  0
 17 13  2  0
 26 21  1  0
M  CHG  3  12  -1  22  -1  27  -1
M  END
>  <UniqueID>  (730) 
22

>  <SMILES>  (730) 
N#Cc1ccccc1S(=O)(=O)[N-]c1sccc1C(=O)N=c1[n-]cccc1[O-]

>  <Energy>  (730) 
80.54092334081736

>  <Genealogy>  (730) 
N#Cc1ccccc1S(=O)(=O)[N-]c1sccc1C(=O)N=c1[n-]cccc1[O-] (protonated)
N#Cc1ccccc1S(=O)(=O)[N-]c1sccc1C(=O)N=c1[n-]cccc1[O-] (3D coordinates assigned)
N#Cc1ccccc1S(=O)(=O)[N-]c1sccc1C(=O)N=c1[n-]cccc1[O-] (optimized conformer: 80.54092334081736 kcal/mol)

>  <smiles>  (730) 
N#Cc1ccccc1S(=O)(=O)Nc1sccc1C(=O)N=c1[nH]cccc1O

>  <score_type>  (730) 
oracle

>  <origin>  (730) 
adg

>  <m_score__min__energy>  (730) 
-15.720000000000001

>  <m_primary>  (730) 
energy

$$$$
27:0
     RDKit          3D

 27 29  0  0  0  0  0  0  0  0999 V2000
   61.4590   31.4680   47.0310 O   0  0  0  0  0  0  0  0  0  0  0  0
   61.1540   32.6840   46.9020 C   0  0  0  0  0  0  0  0  0  0  0  0
   61.9810   33.6700   47.5340 N   0  0  0  0  0  0  0  0  0  0  0  0
   62.7130   33.5690   48.6110 C   0  0  0  0  0  0  0  0  0  0  0  0
   62.4340   34.4250   49.6330 N   0  0  0  0  0  0  0  0  0  0  0  0
   63.1950   34.5020   50.7560 C   0  0  0  0  0  0  0  0  0  0  0  0
   64.3230   33.6990   50.8890 C   0  0  0  0  0  0  0  0  0  0  0  0
   64.6220   32.7770   49.8880 C   0  0  0  0  0  0  0  0  0  0  0  0
   63.7980   32.6560   48.7650 C   0  0  0  0  0  0  0  0  0  0  0  0
   64.0480   31.5890   47.9010 O   0  0  0  0  0  0  0  0  0  0  0  0
   59.9090   33.0550   46.1820 C   0  0  0  0  0  0  0  0  0  0  0  0
   59.7700   34.3390   45.6280 C   0  0  0  0  0  0  0  0  0  0  0  0
   58.5980   34.6980   44.9580 C   0  0  0  0  0  0  0  0  0  0  0  0
   57.5550   33.7790   44.8260 C   0  0  0  0  0  0  0  0  0  0  0  0
   57.6810   32.4850   45.3590 C   0  0  0  0  0  0  0  0  0  0  0  0
   56.6420   31.5050   45.2380 N   0  0  0  0  0  0  0  0  0  0  0  0
   56.7070   30.0970   44.2280 S   0  0  0  0  0  0  0  0  0  0  0  0
   57.3430   30.4630   42.9160 O   0  0  0  0  0  0  0  0  0  0  0  0
   55.3090   29.6110   43.9690 O   0  0  0  0  0  0  0  0  0  0  0  0
   57.6150   28.8170   45.0340 C   0  0  0  0  0  0  0  0  0  0  0  0
   59.0180   28.8670   45.0750 C   0  0  0  0  0  0  0  0  0  0  0  0
   59.7400   27.8620   45.7240 C   0  0  0  0  0  0  0  0  0  0  0  0
   59.0690   26.7990   46.3330 C   0  0  0  0  0  0  0  0  0  0  0  0
   57.6730   26.7380   46.2930 C   0  0  0  0  0  0  0  0  0  0  0  0
   56.9430   27.7430   45.6450 C   0  0  0  0  0  0  0  0  0  0  0  0
   55.5550   27.6620   45.6120 O   0  0  0  0  0  0  0  0  0  0  0  0
   58.8580   32.1330   46.0330 C   0  0  0  0  0  0  0  0  0  0  0  0
  1  2  2  0
  2  3  1  0
  3  4  2  3
  4  5  1  0
  5  6  1  0
  6  7  2  0
  7  8  1  0
  8  9  2  0
  9 10  1  0
  2 11  1  0
 11 12  2  0
 12 13  1  0
 13 14  2  0
 14 15  1  0
 15 16  1  0
 16 17  1  0
 17 18  2  0
 17 19  2  0
 17 20  1  0
 20 21  2  0
 21 22  1  0
 22 23  2  0
 23 24  1  0
 24 25  2  0
 25 26  1  0
 15 27  2  0
  9  4  1  0
 27 11  1  0
 25 20  1  0
M  CHG  3   5  -1  16  -1  26  -1
M  END
>  <UniqueID>  (731) 
24

>  <SMILES>  (731) 
O=C(N=c1[n-]cccc1O)c1cccc([N-]S(=O)(=O)c2ccccc2[O-])c1

>  <Energy>  (731) 
64.87864047258708

>  <Genealogy>  (731) 
O=C(N=c1[n-]cccc1O)c1cccc([N-]S(=O)(=O)c2ccccc2[O-])c1 (protonated)
O=C(N=c1[n-]cccc1O)c1cccc([N-]S(=O)(=O)c2ccccc2[O-])c1 (3D coordinates assigned)
O=C(N=c1[n-]cccc1O)c1cccc([N-]S(=O)(=O)c2ccccc2[O-])c1 (optimized conformer: 64.87864047258708 kcal/mol)

>  <smiles>  (731) 
O=C(N=c1[nH]cccc1O)c1cccc(NS(=O)(=O)c2ccccc2O)c1

>  <score_type>  (731) 
oracle

>  <origin>  (731) 
adg

>  <m_score__min__energy>  (731) 
-14.43

>  <m_primary>  (731) 
energy

$$$$
32:0
     RDKit          3D

 23 24  0  0  0  0  0  0  0  0999 V2000
   58.8510   30.6860   46.9860 C   0  0  0  0  0  0  0  0  0  0  0  0
   58.3550   29.9780   45.7460 C   0  0  0  0  0  0  0  0  0  0  0  0
   57.4110   30.6150   44.9030 C   0  0  0  0  0  0  0  0  0  0  0  0
   56.9220   31.9230   45.2480 N   0  0  0  0  0  0  0  0  0  0  0  0
   57.7190   33.4320   44.9420 S   0  0  0  0  0  0  0  0  0  0  0  0
   58.8890   33.7820   46.2380 C   0  0  0  0  0  0  0  0  0  0  0  0
   58.4620   33.3280   43.6410 O   0  0  0  0  0  0  0  0  0  0  0  0
   56.7070   34.5380   44.8340 O   0  0  0  0  0  0  0  0  0  0  0  0
   56.9640   29.9580   43.7440 C   0  0  0  0  0  0  0  0  0  0  0  0
   57.4300   28.6860   43.4270 C   0  0  0  0  0  0  0  0  0  0  0  0
   58.3300   28.0400   44.2690 C   0  0  0  0  0  0  0  0  0  0  0  0
   58.7830   28.6580   45.4420 C   0  0  0  0  0  0  0  0  0  0  0  0
   59.8880   27.7530   46.4950 S   0  0  0  0  0  0  0  0  0  0  0  0
   60.2980   28.5820   47.6810 O   0  0  0  0  0  0  0  0  0  0  0  0
   61.1130   27.3800   45.7090 O   0  0  0  0  0  0  0  0  0  0  0  0
   59.1390   26.3000   47.0750 N   0  0  0  0  0  0  0  0  0  0  0  0
   57.9680   25.6910   46.5130 C   0  0  0  0  0  0  0  0  0  0  0  0
   58.0880   24.4280   45.9210 C   0  0  0  0  0  0  0  0  0  0  0  0
   56.9730   23.8030   45.3540 C   0  0  0  0  0  0  0  0  0  0  0  0
   55.7280   24.4400   45.3730 C   0  0  0  0  0  0  0  0  0  0  0  0
   55.5980   25.7020   45.9600 C   0  0  0  0  0  0  0  0  0  0  0  0
   54.3610   26.3350   45.9750 O   0  0  0  0  0  0  0  0  0  0  0  0
   56.7130   26.3280   46.5290 C   0  0  0  0  0  0  0  0  0  0  0  0
  1  2  1  0
  2  3  2  0
  3  4  1  0
  4  5  1  0
  5  6  1  0
  5  7  2  0
  5  8  2  0
  3  9  1  0
  9 10  2  0
 10 11  1  0
 11 12  2  0
 12 13  1  0
 13 14  2  0
 13 15  2  0
 13 16  1  0
 16 17  1  0
 17 18  2  0
 18 19  1  0
 19 20  2  0
 20 21  1  0
 21 22  1  0
 21 23  2  0
 12  2  1  0
 23 17  1  0
M  CHG  3   4  -1  16  -1  22  -1
M  END
>  <UniqueID>  (732) 
29

>  <SMILES>  (732) 
Cc1c([N-]S(C)(=O)=O)cccc1S(=O)(=O)[N-]c1cccc([O-])c1

>  <Energy>  (732) 
42.08927072744687

>  <Genealogy>  (732) 
Cc1c([N-]S(C)(=O)=O)cccc1S(=O)(=O)[N-]c1cccc([O-])c1 (protonated)
Cc1c([N-]S(C)(=O)=O)cccc1S(=O)(=O)[N-]c1cccc([O-])c1 (3D coordinates assigned)
Cc1c([N-]S(C)(=O)=O)cccc1S(=O)(=O)[N-]c1cccc([O-])c1 (optimized conformer: 42.08927072744687 kcal/mol)

>  <smiles>  (732) 
Cc1c(NS(C)(=O)=O)cccc1S(=O)(=O)Nc1cccc(O)c1

>  <score_type>  (732) 
oracle

>  <origin>  (732) 
adg

>  <m_score__min__energy>  (732) 
-14.109999999999999

>  <m_primary>  (732) 
energy

$$$$
38:0
     RDKit          3D

 27 29  0  0  0  0  0  0  0  0999 V2000
   59.0570   29.3940   50.4660 C   0  0  0  0  0  0  0  0  0  0  0  0
   59.4850   29.0210   49.0410 C   0  0  0  0  0  0  0  0  0  0  0  0
   60.0540   27.6000   48.9870 C   0  0  0  0  0  0  0  0  0  0  0  0
   60.4810   30.0310   48.4850 C   0  0  0  0  0  0  0  0  0  0  0  0
   61.6590   30.3260   49.2030 C   0  0  0  0  0  0  0  0  0  0  0  0
   62.5850   31.2480   48.7110 C   0  0  0  0  0  0  0  0  0  0  0  0
   62.3530   31.8920   47.4960 C   0  0  0  0  0  0  0  0  0  0  0  0
   61.1960   31.6140   46.7680 C   0  0  0  0  0  0  0  0  0  0  0  0
   60.2560   30.6900   47.2500 C   0  0  0  0  0  0  0  0  0  0  0  0
   59.0790   30.4270   46.4660 N   0  0  0  0  0  0  0  0  0  0  0  0
   58.1390   31.4070   46.2990 C   0  0  0  0  0  0  0  0  0  0  0  0
   58.2920   32.5430   46.8270 O   0  0  0  0  0  0  0  0  0  0  0  0
   57.0240   31.1650   45.5670 N   0  0  0  0  0  0  0  0  0  0  0  0
   56.8100   29.9630   44.9770 C   0  0  0  0  0  0  0  0  0  0  0  0
   55.6450   29.7690   44.2460 O   0  0  0  0  0  0  0  0  0  0  0  0
   57.7550   28.9350   45.1140 C   0  0  0  0  0  0  0  0  0  0  0  0
   57.5410   27.5970   44.4350 C   0  0  0  0  0  0  0  0  0  0  0  0
   57.4820   26.4770   45.4480 C   0  0  0  0  0  0  0  0  0  0  0  0
   58.6170   25.6790   45.6750 C   0  0  0  0  0  0  0  0  0  0  0  0
   58.5830   24.6540   46.6260 C   0  0  0  0  0  0  0  0  0  0  0  0
   57.4170   24.4150   47.3570 C   0  0  0  0  0  0  0  0  0  0  0  0
   57.3870   23.3960   48.3020 O   0  0  0  0  0  0  0  0  0  0  0  0
   56.2830   25.1990   47.1370 C   0  0  0  0  0  0  0  0  0  0  0  0
   56.3080   26.2270   46.1880 C   0  0  0  0  0  0  0  0  0  0  0  0
   55.1620   26.9870   45.9840 O   0  0  0  0  0  0  0  0  0  0  0  0
   58.9030   29.1970   45.8870 C   0  0  0  0  0  0  0  0  0  0  0  0
   59.7690   28.2940   46.0550 O   0  0  0  0  0  0  0  0  0  0  0  0
  1  2  1  0
  2  3  1  0
  2  4  1  0
  4  5  2  0
  5  6  1  0
  6  7  2  0
  7  8  1  0
  8  9  2  0
  9 10  1  0
 10 11  1  0
 11 12  2  0
 11 13  1  0
 13 14  1  0
 14 15  1  0
 14 16  2  0
 16 17  1  0
 17 18  1  0
 18 19  2  0
 19 20  1  0
 20 21  2  0
 21 22  1  0
 21 23  1  0
 23 24  2  0
 24 25  1  0
 16 26  1  0
 26 27  2  0
  9  4  1  0
 26 10  1  0
 24 18  1  0
M  CHG  4  13  -1  15  -1  22  -1  25  -1
M  END
>  <UniqueID>  (733) 
35

>  <SMILES>  (733) 
CC(C)c1ccccc1-n1c(=O)[n-]c([O-])c(Cc2ccc([O-])cc2[O-])c1=O

>  <Energy>  (733) 
55.58961518455029

>  <Genealogy>  (733) 
CC(C)c1ccccc1-n1c(=O)[n-]c([O-])c(Cc2ccc([O-])cc2[O-])c1=O (protonated)
CC(C)c1ccccc1-n1c(=O)[n-]c([O-])c(Cc2ccc([O-])cc2[O-])c1=O (3D coordinates assigned)
CC(C)c1ccccc1-n1c(=O)[n-]c([O-])c(Cc2ccc([O-])cc2[O-])c1=O (optimized conformer: 55.58961518455029 kcal/mol)

>  <smiles>  (733) 
CC(C)c1ccccc1-n1c(=O)[nH]c(O)c(Cc2ccc(O)cc2O)c1=O

>  <score_type>  (733) 
oracle

>  <origin>  (733) 
adg

>  <m_score__min__energy>  (733) 
-15.49

>  <m_primary>  (733) 
energy

$$$$
42:0
     RDKit          3D

 29 31  0  0  0  0  0  0  0  0999 V2000
   58.3270   32.6820   46.7190 C   0  0  0  0  0  0  0  0  0  0  0  0
   57.0170   31.2220   45.1200 N   0  0  0  0  0  0  0  0  0  0  0  0
   59.1100   31.8380   48.8450 C   0  0  0  0  0  0  0  0  0  0  0  0
   60.2830   32.2980   48.9200 O   0  0  0  0  0  0  0  0  0  0  0  0
   58.3950   31.4240   50.0740 C   0  0  0  0  0  0  0  0  0  0  0  0
   57.7340   32.3770   50.8720 C   0  0  0  0  0  0  0  0  0  0  0  0
   57.0600   31.9870   52.0330 C   0  0  0  0  0  0  0  0  0  0  0  0
   57.0190   30.6350   52.4080 C   0  0  0  0  0  0  0  0  0  0  0  0
   56.3320   30.2170   53.6740 C   0  0  0  0  0  0  0  0  0  0  0  0
   55.0520   29.6800   53.3550 O   0  0  0  0  0  0  0  0  0  0  0  0
   53.9680   30.4370   52.8860 C   0  0  0  0  0  0  0  0  0  0  0  0
   53.8900   30.9060   51.5590 C   0  0  0  0  0  0  0  0  0  0  0  0
   52.7880   31.6610   51.1440 C   0  0  0  0  0  0  0  0  0  0  0  0
   51.7580   31.9510   52.0430 C   0  0  0  0  0  0  0  0  0  0  0  0
   50.6640   32.7010   51.6280 O   0  0  0  0  0  0  0  0  0  0  0  0
   51.8280   31.4870   53.3600 C   0  0  0  0  0  0  0  0  0  0  0  0
   52.9290   30.7340   53.7790 C   0  0  0  0  0  0  0  0  0  0  0  0
   57.6840   29.6830   51.6210 C   0  0  0  0  0  0  0  0  0  0  0  0
   58.3610   30.0720   50.4630 C   0  0  0  0  0  0  0  0  0  0  0  0
   57.7680   32.4150   45.3850 C   0  0  0  0  0  0  0  0  0  0  0  0
   58.0350   33.1990   44.4360 O   0  0  0  0  0  0  0  0  0  0  0  0
   58.4650   31.7130   47.5710 N   0  0  0  0  0  0  0  0  0  0  0  0
   57.4180   29.9820   45.1920 C   0  0  0  0  0  0  0  0  0  0  0  0
   58.7570   29.7540   45.2830 N   0  0  0  0  0  0  0  0  0  0  0  0
   59.2820   28.5060   45.3890 C   0  0  0  0  0  0  0  0  0  0  0  0
   58.4420   27.3940   45.3990 C   0  0  0  0  0  0  0  0  0  0  0  0
   57.0670   27.5800   45.2790 C   0  0  0  0  0  0  0  0  0  0  0  0
   56.5390   28.8670   45.1560 C   0  0  0  0  0  0  0  0  0  0  0  0
   55.1690   29.0060   44.9600 O   0  0  0  0  0  0  0  0  0  0  0  0
  1  2  2  0
  2  3  1  0
  3  4  2  0
  3  5  1  0
  5  6  2  0
  6  7  1  0
  7  8  2  0
  8  9  1  0
  9 10  1  0
 10 11  1  0
 11 12  2  0
 12 13  1  0
 13 14  2  0
 14 15  1  0
 14 16  1  0
 16 17  2  0
  8 18  1  0
 18 19  2  0
  1 20  1  0
 20 21  2  0
 20 22  1  0
 22 23  2  0
 23 24  1  0
 24 25  1  0
 25 26  2  0
 26 27  1  0
 27 28  2  0
 28 29  1  0
 19  5  1  0
 28 23  1  0
 17 11  1  0
M  CHG  3  15  -1  24  -1  29  -1
M  END
>  <UniqueID>  (734) 
39

>  <SMILES>  (734) 
O=C(/C=N/C(=O)c1ccc(COc2ccc([O-])cc2)cc1)/N=c1/[n-]cccc1[O-]

>  <Energy>  (734) 
57.29727988898383

>  <Genealogy>  (734) 
O=C(C=NC(=O)c1ccc(COc2ccc([O-])cc2)cc1)N=c1[n-]cccc1[O-] (protonated)
O=C(/C=N/C(=O)c1ccc(COc2ccc([O-])cc2)cc1)/N=c1/[n-]cccc1[O-] (cis-trans isomerization)
O=C(/C=N/C(=O)c1ccc(COc2ccc([O-])cc2)cc1)/N=c1/[n-]cccc1[O-] (3D coordinates assigned)
O=C(/C=N/C(=O)c1ccc(COc2ccc([O-])cc2)cc1)/N=c1/[n-]cccc1[O-] (optimized conformer: 57.29727988898383 kcal/mol)

>  <smiles>  (734) 
O=C(C=NC(=O)c1ccc(COc2ccc(O)cc2)cc1)N=c1[nH]cccc1O

>  <score_type>  (734) 
oracle

>  <origin>  (734) 
adg

>  <m_score__min__energy>  (734) 
-16.300000000000001

>  <m_primary>  (734) 
energy

$$$$
76:0
     RDKit          3D

 25 27  0  0  0  0  0  0  0  0999 V2000
   56.7980   31.2150   42.7510 O   0  0  0  0  0  0  0  0  0  0  0  0
   56.9440   31.0520   43.9910 C   0  0  0  0  0  0  0  0  0  0  0  0
   56.6770   32.1570   44.8660 N   0  0  0  0  0  0  0  0  0  0  0  0
   57.6560   32.9470   45.5580 C   0  0  0  0  0  0  0  0  0  0  0  0
   58.2930   34.0410   44.9450 C   0  0  0  0  0  0  0  0  0  0  0  0
   59.2450   34.7830   45.6480 C   0  0  0  0  0  0  0  0  0  0  0  0
   59.5830   34.4310   46.9570 C   0  0  0  0  0  0  0  0  0  0  0  0
   58.9780   33.3260   47.5660 C   0  0  0  0  0  0  0  0  0  0  0  0
   59.4170   32.8820   49.2130 S   0  0  0  0  0  0  0  0  0  0  0  0
   58.1750   32.6940   50.0410 O   0  0  0  0  0  0  0  0  0  0  0  0
   60.2440   33.9870   49.8070 O   0  0  0  0  0  0  0  0  0  0  0  0
   60.3340   31.3950   49.1980 N   0  0  0  0  0  0  0  0  0  0  0  0
   61.3640   31.4110   48.1340 C   0  0  0  0  0  0  0  0  0  0  0  0
   60.9920   30.5020   46.9500 C   0  0  0  0  0  0  0  0  0  0  0  0
   60.7880   29.1490   47.3290 O   0  0  0  0  0  0  0  0  0  0  0  0
   60.1720   28.9970   48.6040 C   0  0  0  0  0  0  0  0  0  0  0  0
   59.4180   30.2430   49.0970 C   0  0  0  0  0  0  0  0  0  0  0  0
   58.0170   32.5840   46.8630 C   0  0  0  0  0  0  0  0  0  0  0  0
   57.4190   29.7430   44.4980 C   0  0  0  0  0  0  0  0  0  0  0  0
   58.8010   29.4940   44.5720 C   0  0  0  0  0  0  0  0  0  0  0  0
   59.2740   28.2610   45.0300 C   0  0  0  0  0  0  0  0  0  0  0  0
   58.3740   27.2690   45.4280 C   0  0  0  0  0  0  0  0  0  0  0  0
   57.0010   27.5130   45.3780 C   0  0  0  0  0  0  0  0  0  0  0  0
   56.5170   28.7460   44.9270 C   0  0  0  0  0  0  0  0  0  0  0  0
   55.1460   28.9770   44.9300 O   0  0  0  0  0  0  0  0  0  0  0  0
  1  2  2  0
  2  3  1  0
  3  4  1  0
  4  5  2  0
  5  6  1  0
  6  7  2  0
  7  8  1  0
  8  9  1  0
  9 10  2  0
  9 11  2  0
  9 12  1  0
 12 13  1  0
 13 14  1  0
 14 15  1  0
 15 16  1  0
 16 17  1  0
  8 18  2  0
  2 19  1  0
 19 20  2  0
 20 21  1  0
 21 22  2  0
 22 23  1  0
 23 24  2  0
 24 25  1  0
 18  4  1  0
 24 19  1  0
 17 12  1  0
M  CHG  2   3  -1  25  -1
M  END
>  <UniqueID>  (735) 
69

>  <SMILES>  (735) 
O=C([N-]c1cccc(S(=O)(=O)N2CCOCC2)c1)c1ccccc1[O-]

>  <Energy>  (735) 
63.346087024226264

>  <Genealogy>  (735) 
O=C([N-]c1cccc(S(=O)(=O)N2CCOCC2)c1)c1ccccc1[O-] (protonated)
O=C([N-]c1cccc(S(=O)(=O)N2CCOCC2)c1)c1ccccc1[O-] (3D coordinates assigned)
O=C([N-]c1cccc(S(=O)(=O)N2CCOCC2)c1)c1ccccc1[O-] (nonaromatic ring conformer: 63.346087024226264 kcal/mol)

>  <smiles>  (735) 
O=C(Nc1cccc(S(=O)(=O)N2CCOCC2)c1)c1ccccc1O

>  <score_type>  (735) 
oracle

>  <origin>  (735) 
adg

>  <m_score__min__energy>  (735) 
-14.07

>  <m_primary>  (735) 
energy

$$$$
22:0
     RDKit          3D

 24 26  0  0  0  0  0  0  0  0999 V2000
   54.8160   26.6900   46.1420 O   0  0  0  0  0  0  0  0  0  0  0  0
   54.8860   25.4030   45.6120 C   0  0  0  0  0  0  0  0  0  0  0  0
   53.8050   24.5860   45.7220 N   0  0  0  0  0  0  0  0  0  0  0  0
   53.8160   23.3310   45.2100 C   0  0  0  0  0  0  0  0  0  0  0  0
   52.8010   22.5960   45.3250 O   0  0  0  0  0  0  0  0  0  0  0  0
   54.9190   22.8680   44.5730 N   0  0  0  0  0  0  0  0  0  0  0  0
   56.0290   23.6380   44.4350 C   0  0  0  0  0  0  0  0  0  0  0  0
   57.0340   23.1530   43.8510 O   0  0  0  0  0  0  0  0  0  0  0  0
   56.0500   24.9510   44.9560 C   0  0  0  0  0  0  0  0  0  0  0  0
   57.2470   25.8260   44.8220 C   0  0  0  0  0  0  0  0  0  0  0  0
   58.1970   25.4740   44.0710 O   0  0  0  0  0  0  0  0  0  0  0  0
   57.3160   27.0650   45.5520 N   0  0  0  0  0  0  0  0  0  0  0  0
   57.1540   28.2720   45.0950 C   0  0  0  0  0  0  0  0  0  0  0  0
   55.9270   28.8120   44.9320 N   0  0  0  0  0  0  0  0  0  0  0  0
   55.9890   30.0780   44.4390 C   0  0  0  0  0  0  0  0  0  0  0  0
   57.2770   30.5530   44.2170 C   0  0  0  0  0  0  0  0  0  0  0  0
   57.6320   31.8740   43.6120 C   0  0  0  0  0  0  0  0  0  0  0  0
   58.0440   32.8400   44.6880 C   0  0  0  0  0  0  0  0  0  0  0  0
   58.9050   33.9100   44.3900 C   0  0  0  0  0  0  0  0  0  0  0  0
   59.3160   34.7850   45.3990 C   0  0  0  0  0  0  0  0  0  0  0  0
   58.8780   34.5940   46.7130 C   0  0  0  0  0  0  0  0  0  0  0  0
   58.0330   33.5260   47.0200 C   0  0  0  0  0  0  0  0  0  0  0  0
   57.6190   32.6470   46.0140 C   0  0  0  0  0  0  0  0  0  0  0  0
   58.3740   29.3440   44.6270 S   0  0  0  0  0  0  0  0  0  0  0  0
  1  2  1  0
  2  3  1  0
  3  4  1  0
  4  5  2  0
  4  6  1  0
  6  7  1  0
  7  8  2  0
  7  9  1  0
  9 10  1  0
 10 11  2  0
 10 12  1  0
 12 13  2  0
 13 14  1  0
 14 15  1  0
 15 16  2  0
 16 17  1  0
 17 18  1  0
 18 19  2  0
 19 20  1  0
 20 21  2  0
 21 22  1  0
 22 23  2  0
 16 24  1  0
  9  2  2  0
 24 13  1  0
 23 18  1  0
M  CHG  3   3  -1   6  -1  14  -1
M  END
>  <UniqueID>  (736) 
21

>  <SMILES>  (736) 
O=C(/N=c1/[n-]cc(Cc2ccccc2)s1)c1c(O)[n-]c(=O)[n-]c1=O

>  <Energy>  (736) 
72.70577808157104

>  <Genealogy>  (736) 
O=C(N=c1[n-]cc(Cc2ccccc2)s1)c1c(O)[n-]c(=O)[n-]c1=O (protonated)
O=C(/N=c1/[n-]cc(Cc2ccccc2)s1)c1c(O)[n-]c(=O)[n-]c1=O (cis-trans isomerization)
O=C(/N=c1/[n-]cc(Cc2ccccc2)s1)c1c(O)[n-]c(=O)[n-]c1=O (3D coordinates assigned)
O=C(/N=c1/[n-]cc(Cc2ccccc2)s1)c1c(O)[n-]c(=O)[n-]c1=O (optimized conformer: 72.70577808157104 kcal/mol)

>  <smiles>  (736) 
O=C(N=c1[nH]cc(Cc2ccccc2)s1)c1c(O)[nH]c(=O)[nH]c1=O

>  <score_type>  (736) 
oracle

>  <origin>  (736) 
adg

>  <m_score__min__energy>  (736) 
-14.460000000000001

>  <m_primary>  (736) 
energy

$$$$
23:0
     RDKit          3D

 27 29  0  0  0  0  0  0  0  0999 V2000
   58.9650   27.5960   45.2780 O   0  0  0  0  0  0  0  0  0  0  0  0
   57.7190   27.4240   45.3630 C   0  0  0  0  0  0  0  0  0  0  0  0
   56.8120   28.3460   44.7370 N   0  0  0  0  0  0  0  0  0  0  0  0
   57.2000   29.6310   44.2230 C   0  0  0  0  0  0  0  0  0  0  0  0
   56.6730   30.0690   42.9990 C   0  0  0  0  0  0  0  0  0  0  0  0
   57.0190   31.3220   42.4900 C   0  0  0  0  0  0  0  0  0  0  0  0
   57.8790   32.1580   43.2040 C   0  0  0  0  0  0  0  0  0  0  0  0
   58.3870   31.7530   44.4510 C   0  0  0  0  0  0  0  0  0  0  0  0
   59.2330   32.5920   45.2520 N   0  0  0  0  0  0  0  0  0  0  0  0
   58.8150   34.1120   45.9840 S   0  0  0  0  0  0  0  0  0  0  0  0
   57.3790   34.1140   46.4250 O   0  0  0  0  0  0  0  0  0  0  0  0
   58.9910   35.1910   44.9550 O   0  0  0  0  0  0  0  0  0  0  0  0
   59.9000   34.4750   47.3590 C   0  0  0  0  0  0  0  0  0  0  0  0
   61.0320   33.4900   47.4370 C   0  0  0  0  0  0  0  0  0  0  0  0
   60.7770   32.1400   47.7330 C   0  0  0  0  0  0  0  0  0  0  0  0
   61.8250   31.2150   47.7560 C   0  0  0  0  0  0  0  0  0  0  0  0
   63.1320   31.6300   47.4810 C   0  0  0  0  0  0  0  0  0  0  0  0
   63.3930   32.9700   47.1870 C   0  0  0  0  0  0  0  0  0  0  0  0
   62.3480   33.8990   47.1650 C   0  0  0  0  0  0  0  0  0  0  0  0
   58.0450   30.4890   44.9510 C   0  0  0  0  0  0  0  0  0  0  0  0
   57.1940   26.2460   46.0720 C   0  0  0  0  0  0  0  0  0  0  0  0
   57.9290   25.2770   46.5590 O   0  0  0  0  0  0  0  0  0  0  0  0
   57.0980   24.4200   47.1110 C   0  0  0  0  0  0  0  0  0  0  0  0
   57.4780   23.3620   47.6760 O   0  0  0  0  0  0  0  0  0  0  0  0
   55.8010   24.7770   47.0160 N   0  0  0  0  0  0  0  0  0  0  0  0
   55.8780   25.9450   46.3510 C   0  0  0  0  0  0  0  0  0  0  0  0
   54.7720   26.7130   46.0080 O   0  0  0  0  0  0  0  0  0  0  0  0
  1  2  2  0
  2  3  1  0
  3  4  1  0
  4  5  2  0
  5  6  1  0
  6  7  2  0
  7  8  1  0
  8  9  1  0
  9 10  1  0
 10 11  2  0
 10 12  2  0
 10 13  1  0
 13 14  1  0
 14 15  2  0
 15 16  1  0
 16 17  2  0
 17 18  1  0
 18 19  2  0
  8 20  2  0
  2 21  1  0
 21 22  1  0
 22 23  1  0
 23 24  2  0
 23 25  1  0
 25 26  1  0
 26 27  1  0
 20  4  1  0
 26 21  2  0
 19 14  1  0
M  CHG  3   9  -1  25  -1  27  -1
M  END
>  <UniqueID>  (737) 
22

>  <SMILES>  (737) 
O=C(Nc1cccc([N-]S(=O)(=O)Cc2ccccc2)c1)c1oc(=O)[n-]c1[O-]

>  <Energy>  (737) 
73.48012611512623

>  <Genealogy>  (737) 
O=C(Nc1cccc([N-]S(=O)(=O)Cc2ccccc2)c1)c1oc(=O)[n-]c1[O-] (protonated)
O=C(Nc1cccc([N-]S(=O)(=O)Cc2ccccc2)c1)c1oc(=O)[n-]c1[O-] (3D coordinates assigned)
O=C(Nc1cccc([N-]S(=O)(=O)Cc2ccccc2)c1)c1oc(=O)[n-]c1[O-] (optimized conformer: 73.48012611512623 kcal/mol)

>  <smiles>  (737) 
O=C(Nc1cccc(NS(=O)(=O)Cc2ccccc2)c1)c1oc(=O)[nH]c1O

>  <score_type>  (737) 
oracle

>  <origin>  (737) 
adg

>  <m_score__min__energy>  (737) 
-16.140000000000001

>  <m_primary>  (737) 
energy

$$$$
42:0
     RDKit          3D

 27 29  0  0  0  0  0  0  0  0999 V2000
   57.7640   33.8070   44.1490 O   0  0  0  0  0  0  0  0  0  0  0  0
   57.3390   33.1290   45.1230 C   0  0  0  0  0  0  0  0  0  0  0  0
   57.6620   33.5480   46.5210 C   0  0  0  0  0  0  0  0  0  0  0  0
   59.1540   33.5640   46.7080 C   0  0  0  0  0  0  0  0  0  0  0  0
   59.7310   32.6040   47.4840 N   0  0  0  0  0  0  0  0  0  0  0  0
   61.0670   32.5980   47.7300 C   0  0  0  0  0  0  0  0  0  0  0  0
   61.6410   31.6020   48.5260 C   0  0  0  0  0  0  0  0  0  0  0  0
   63.0190   31.6110   48.7660 C   0  0  0  0  0  0  0  0  0  0  0  0
   63.8250   32.6100   48.2070 C   0  0  0  0  0  0  0  0  0  0  0  0
   63.2540   33.6110   47.4110 C   0  0  0  0  0  0  0  0  0  0  0  0
   61.8750   33.6100   47.1740 C   0  0  0  0  0  0  0  0  0  0  0  0
   61.3010   34.5810   46.4170 N   0  0  0  0  0  0  0  0  0  0  0  0
   59.9630   34.5900   46.1770 C   0  0  0  0  0  0  0  0  0  0  0  0
   59.4630   35.5180   45.4880 O   0  0  0  0  0  0  0  0  0  0  0  0
   56.6030   31.9240   44.9010 N   0  0  0  0  0  0  0  0  0  0  0  0
   57.2490   30.6370   44.6950 C   0  0  0  0  0  0  0  0  0  0  0  0
   56.2200   29.6190   44.1990 C   0  0  0  0  0  0  0  0  0  0  0  0
   55.9120   28.6460   45.2440 N   0  0  0  0  0  0  0  0  0  0  0  0
   56.8680   27.7430   45.8190 C   0  0  0  0  0  0  0  0  0  0  0  0
   57.8060   28.2110   46.5180 O   0  0  0  0  0  0  0  0  0  0  0  0
   56.7670   26.2820   45.6370 C   0  0  0  0  0  0  0  0  0  0  0  0
   57.9220   25.5400   45.3400 C   0  0  0  0  0  0  0  0  0  0  0  0
   57.8460   24.1540   45.1780 C   0  0  0  0  0  0  0  0  0  0  0  0
   56.6160   23.5030   45.2920 C   0  0  0  0  0  0  0  0  0  0  0  0
   55.4600   24.2340   45.5760 C   0  0  0  0  0  0  0  0  0  0  0  0
   55.5280   25.6220   45.7420 C   0  0  0  0  0  0  0  0  0  0  0  0
   54.3620   26.3390   45.9930 O   0  0  0  0  0  0  0  0  0  0  0  0
  1  2  2  0
  2  3  1  0
  3  4  1  0
  4  5  2  0
  5  6  1  0
  6  7  2  0
  7  8  1  0
  8  9  2  0
  9 10  1  0
 10 11  2  0
 11 12  1  0
 12 13  1  0
 13 14  2  0
  2 15  1  0
 15 16  1  0
 16 17  1  0
 17 18  1  0
 18 19  1  0
 19 20  2  0
 19 21  1  0
 21 22  2  0
 22 23  1  0
 23 24  2  0
 24 25  1  0
 25 26  2  0
 26 27  1  0
 13  4  1  0
 26 21  1  0
 11  6  1  0
M  CHG  4  12  -1  15  -1  18  -1  27  -1
M  END
>  <UniqueID>  (738) 
41

>  <SMILES>  (738) 
O=C(Cc1nc2ccccc2[n-]c1=O)[N-]CC[N-]C(=O)c1ccccc1[O-]

>  <Energy>  (738) 
44.674136739498465

>  <Genealogy>  (738) 
O=C(Cc1nc2ccccc2[n-]c1=O)[N-]CC[N-]C(=O)c1ccccc1[O-] (protonated)
O=C(Cc1nc2ccccc2[n-]c1=O)[N-]CC[N-]C(=O)c1ccccc1[O-] (3D coordinates assigned)
O=C(Cc1nc2ccccc2[n-]c1=O)[N-]CC[N-]C(=O)c1ccccc1[O-] (optimized conformer: 44.674136739498465 kcal/mol)

>  <smiles>  (738) 
O=C(Cc1nc2ccccc2[nH]c1=O)NCCNC(=O)c1ccccc1O

>  <score_type>  (738) 
oracle

>  <origin>  (738) 
adg

>  <m_score__min__energy>  (738) 
-15.93

>  <m_primary>  (738) 
energy

$$$$
44:0
     RDKit          3D

 25 27  0  0  0  0  0  0  0  0999 V2000
   56.6470   34.7380   44.8870 N   0  0  0  0  0  0  0  0  0  0  0  0
   57.5360   33.2580   44.7940 S   0  0  0  0  0  0  0  0  0  0  0  0
   56.6040   32.1270   45.1270 O   0  0  0  0  0  0  0  0  0  0  0  0
   58.0540   33.0870   43.3930 O   0  0  0  0  0  0  0  0  0  0  0  0
   58.8960   33.2880   45.9300 C   0  0  0  0  0  0  0  0  0  0  0  0
   59.4020   34.5310   46.3410 C   0  0  0  0  0  0  0  0  0  0  0  0
   60.4400   34.6050   47.2730 C   0  0  0  0  0  0  0  0  0  0  0  0
   60.9840   33.4370   47.8060 C   0  0  0  0  0  0  0  0  0  0  0  0
   60.5020   32.1920   47.4000 C   0  0  0  0  0  0  0  0  0  0  0  0
   59.4680   32.1010   46.4530 C   0  0  0  0  0  0  0  0  0  0  0  0
   59.0210   30.7580   46.0310 C   0  0  0  0  0  0  0  0  0  0  0  0
   58.9540   30.4340   44.6680 C   0  0  0  0  0  0  0  0  0  0  0  0
   58.5240   29.1680   44.2650 C   0  0  0  0  0  0  0  0  0  0  0  0
   58.1320   28.2120   45.2170 C   0  0  0  0  0  0  0  0  0  0  0  0
   57.7010   26.8650   44.7800 C   0  0  0  0  0  0  0  0  0  0  0  0
   57.8060   26.5550   43.5630 O   0  0  0  0  0  0  0  0  0  0  0  0
   57.1570   25.8640   45.7210 C   0  0  0  0  0  0  0  0  0  0  0  0
   57.8200   24.7440   46.1790 C   0  0  0  0  0  0  0  0  0  0  0  0
   56.9190   24.0880   46.9910 C   0  0  0  0  0  0  0  0  0  0  0  0
   57.1860   22.9060   47.6680 O   0  0  0  0  0  0  0  0  0  0  0  0
   55.7310   24.7210   47.0540 N   0  0  0  0  0  0  0  0  0  0  0  0
   55.8850   25.8030   46.2670 C   0  0  0  0  0  0  0  0  0  0  0  0
   54.8590   26.7070   46.0200 O   0  0  0  0  0  0  0  0  0  0  0  0
   58.2030   28.5390   46.5830 C   0  0  0  0  0  0  0  0  0  0  0  0
   58.6340   29.8060   46.9850 C   0  0  0  0  0  0  0  0  0  0  0  0
  1  2  1  0
  2  3  2  0
  2  4  2  0
  2  5  1  0
  5  6  2  0
  6  7  1  0
  7  8  2  0
  8  9  1  0
  9 10  2  0
 10 11  1  0
 11 12  2  0
 12 13  1  0
 13 14  2  0
 14 15  1  0
 15 16  2  0
 15 17  1  0
 17 18  1  0
 18 19  2  0
 19 20  1  0
 19 21  1  0
 21 22  1  0
 22 23  1  0
 14 24  1  0
 24 25  2  0
 10  5  1  0
 25 11  1  0
 22 17  2  0
M  CHG  4   1  -1  20  -1  21  -1  23  -1
M  END
>  <UniqueID>  (739) 
42

>  <SMILES>  (739) 
[NH-]S(=O)(=O)c1ccccc1-c1ccc(C(=O)c2cc([O-])[n-]c2[O-])cc1

>  <Energy>  (739) 
78.03816728085536

>  <Genealogy>  (739) 
[NH-]S(=O)(=O)c1ccccc1-c1ccc(C(=O)c2cc([O-])[n-]c2[O-])cc1 (protonated)
[NH-]S(=O)(=O)c1ccccc1-c1ccc(C(=O)c2cc([O-])[n-]c2[O-])cc1 (3D coordinates assigned)
[NH-]S(=O)(=O)c1ccccc1-c1ccc(C(=O)c2cc([O-])[n-]c2[O-])cc1 (optimized conformer: 78.03816728085536 kcal/mol)

>  <smiles>  (739) 
NS(=O)(=O)c1ccccc1-c1ccc(C(=O)c2cc(O)[nH]c2O)cc1

>  <score_type>  (739) 
oracle

>  <origin>  (739) 
adg

>  <m_score__min__energy>  (739) 
-17.780000000000001

>  <m_primary>  (739) 
energy

$$$$
64:0
     RDKit          3D

 30 33  0  0  0  0  0  0  0  0999 V2000
   58.6630   29.9650   44.3930 C   0  0  0  0  0  0  0  0  0  0  0  0
   58.6140   29.8610   45.7300 C   0  0  0  0  0  0  0  0  0  0  0  0
   58.5860   28.6790   46.4880 C   0  0  0  0  0  0  0  0  0  0  0  0
   58.3870   27.3990   46.1200 C   0  0  0  0  0  0  0  0  0  0  0  0
   57.1090   26.6760   46.2090 C   0  0  0  0  0  0  0  0  0  0  0  0
   56.9810   25.3870   46.5780 N   0  0  0  0  0  0  0  0  0  0  0  0
   55.6710   25.1310   46.3740 C   0  0  0  0  0  0  0  0  0  0  0  0
   55.1510   24.0130   46.6210 O   0  0  0  0  0  0  0  0  0  0  0  0
   54.9640   26.1670   45.8720 N   0  0  0  0  0  0  0  0  0  0  0  0
   55.8930   27.1300   45.7610 C   0  0  0  0  0  0  0  0  0  0  0  0
   55.6360   28.3970   45.2540 O   0  0  0  0  0  0  0  0  0  0  0  0
   58.7680   29.0600   47.8070 C   0  0  0  0  0  0  0  0  0  0  0  0
   58.8330   30.4380   47.8200 C   0  0  0  0  0  0  0  0  0  0  0  0
   58.9830   31.2690   49.0580 C   0  0  0  0  0  0  0  0  0  0  0  0
   58.7060   30.9270   46.5660 N   0  0  0  0  0  0  0  0  0  0  0  0
   58.7600   32.3190   46.1990 C   0  0  0  0  0  0  0  0  0  0  0  0
   57.6250   32.9210   45.6350 C   0  0  0  0  0  0  0  0  0  0  0  0
   57.6700   34.2460   45.1960 C   0  0  0  0  0  0  0  0  0  0  0  0
   58.8540   34.9770   45.3030 C   0  0  0  0  0  0  0  0  0  0  0  0
   59.9940   34.3870   45.8560 C   0  0  0  0  0  0  0  0  0  0  0  0
   59.9580   33.0630   46.3220 C   0  0  0  0  0  0  0  0  0  0  0  0
   61.1810   32.4740   46.9100 C   0  0  0  0  0  0  0  0  0  0  0  0
   61.4260   31.2510   46.7220 O   0  0  0  0  0  0  0  0  0  0  0  0
   62.0980   33.2720   47.6810 N   0  0  0  0  0  0  0  0  0  0  0  0
   61.5950   34.2180   48.6800 C   0  0  0  0  0  0  0  0  0  0  0  0
   61.7560   33.6010   50.0680 C   0  0  0  0  0  0  0  0  0  0  0  0
   63.1180   33.1000   50.2530 N   0  0  0  0  0  0  0  0  0  0  0  0
   63.9130   32.6170   49.1650 C   0  0  0  0  0  0  0  0  0  0  0  0
   64.9940   32.0180   49.4030 O   0  0  0  0  0  0  0  0  0  0  0  0
   63.5190   32.9120   47.7460 C   0  0  0  0  0  0  0  0  0  0  0  0
  1  2  2  0
  2  3  1  0
  3  4  2  3
  4  5  1  0
  5  6  1  0
  6  7  1  0
  7  8  2  0
  7  9  1  0
  9 10  1  0
 10 11  1  0
  3 12  1  0
 12 13  2  0
 13 14  1  0
 13 15  1  0
 15 16  1  0
 16 17  2  0
 17 18  1  0
 18 19  2  0
 19 20  1  0
 20 21  2  0
 21 22  1  0
 22 23  2  0
 22 24  1  0
 24 25  1  0
 25 26  1  0
 26 27  1  0
 27 28  1  0
 28 29  2  0
 28 30  1  0
 15  2  1  0
 21 16  1  0
 30 24  1  0
 10  5  2  0
M  CHG  4   6  -1   9  -1  11  -1  27  -1
M  END
>  <UniqueID>  (740) 
61

>  <SMILES>  (740) 
C=c1c(=Cc2[n-]c(=O)[n-]c2[O-])cc(C)n1-c1ccccc1C(=O)N1CC[N-]C(=O)C1

>  <Energy>  (740) 
129.4572889893554

>  <Genealogy>  (740) 
C=c1c(=Cc2[n-]c(=O)[n-]c2[O-])cc(C)n1-c1ccccc1C(=O)N1CC[N-]C(=O)C1 (protonated)
C=c1c(=Cc2[n-]c(=O)[n-]c2[O-])cc(C)n1-c1ccccc1C(=O)N1CC[N-]C(=O)C1 (3D coordinates assigned)
C=c1c(=Cc2[n-]c(=O)[n-]c2[O-])cc(C)n1-c1ccccc1C(=O)N1CC[N-]C(=O)C1 (nonaromatic ring conformer: 129.4572889893554 kcal/mol)

>  <smiles>  (740) 
C=c1c(=Cc2[nH]c(=O)[nH]c2O)cc(C)n1-c1ccccc1C(=O)N1CCNC(=O)C1

>  <score_type>  (740) 
oracle

>  <origin>  (740) 
adg

>  <m_score__min__energy>  (740) 
-16.859999999999999

>  <m_primary>  (740) 
energy

$$$$
68:0
     RDKit          3D

 30 33  0  0  0  0  0  0  0  0999 V2000
   57.7530   27.8410   44.0350 O   0  0  0  0  0  0  0  0  0  0  0  0
   57.5400   28.4320   45.1270 C   0  0  0  0  0  0  0  0  0  0  0  0
   57.6300   27.6500   46.4080 C   0  0  0  0  0  0  0  0  0  0  0  0
   57.1750   26.2770   46.1820 N   0  0  0  0  0  0  0  0  0  0  0  0
   55.8970   25.8600   46.0300 C   0  0  0  0  0  0  0  0  0  0  0  0
   54.7930   26.7080   46.0130 O   0  0  0  0  0  0  0  0  0  0  0  0
   55.8520   24.4850   45.9020 C   0  0  0  0  0  0  0  0  0  0  0  0
   57.1500   24.0400   45.9920 C   0  0  0  0  0  0  0  0  0  0  0  0
   57.9410   25.1610   46.1700 C   0  0  0  0  0  0  0  0  0  0  0  0
   59.3250   25.1560   46.3230 O   0  0  0  0  0  0  0  0  0  0  0  0
   57.5520   22.6010   45.9190 C   0  0  0  0  0  0  0  0  0  0  0  0
   56.3530   21.6940   45.6970 C   0  0  0  0  0  0  0  0  0  0  0  0
   55.0740   22.1330   45.6060 C   0  0  0  0  0  0  0  0  0  0  0  0
   54.6670   23.5930   45.7070 C   0  0  0  0  0  0  0  0  0  0  0  0
   57.0750   29.7900   45.1040 N   0  0  0  0  0  0  0  0  0  0  0  0
   57.7690   30.9150   45.6550 C   0  0  0  0  0  0  0  0  0  0  0  0
   58.4520   30.8240   46.8790 C   0  0  0  0  0  0  0  0  0  0  0  0
   59.1280   31.9340   47.3940 C   0  0  0  0  0  0  0  0  0  0  0  0
   59.1390   33.1450   46.6850 C   0  0  0  0  0  0  0  0  0  0  0  0
   59.9500   34.5630   47.3590 S   0  0  0  0  0  0  0  0  0  0  0  0
   59.8330   35.7100   46.3900 O   0  0  0  0  0  0  0  0  0  0  0  0
   59.2680   34.9640   48.6410 O   0  0  0  0  0  0  0  0  0  0  0  0
   61.6390   34.2390   47.6840 N   0  0  0  0  0  0  0  0  0  0  0  0
   61.8080   33.2530   48.7780 C   0  0  0  0  0  0  0  0  0  0  0  0
   62.2220   31.8650   48.2470 C   0  0  0  0  0  0  0  0  0  0  0  0
   63.4360   31.8870   47.5080 O   0  0  0  0  0  0  0  0  0  0  0  0
   63.6350   33.0860   46.7640 C   0  0  0  0  0  0  0  0  0  0  0  0
   62.3370   33.8490   46.4400 C   0  0  0  0  0  0  0  0  0  0  0  0
   58.4950   33.2230   45.4400 C   0  0  0  0  0  0  0  0  0  0  0  0
   57.8230   32.1110   44.9240 C   0  0  0  0  0  0  0  0  0  0  0  0
  1  2  2  0
  2  3  1  0
  3  4  1  0
  4  5  1  0
  5  6  1  0
  5  7  2  0
  7  8  1  0
  8  9  2  0
  9 10  1  0
  8 11  1  0
 11 12  1  0
 12 13  2  0
 13 14  1  0
  2 15  1  0
 15 16  1  0
 16 17  2  0
 17 18  1  0
 18 19  2  0
 19 20  1  0
 20 21  2  0
 20 22  2  0
 20 23  1  0
 23 24  1  0
 24 25  1  0
 25 26  1  0
 26 27  1  0
 27 28  1  0
 19 29  1  0
 29 30  2  0
  9  4  1  0
 30 16  1  0
 14  7  1  0
 28 23  1  0
M  CHG  3   6  -1  10  -1  15  -1
M  END
>  <UniqueID>  (741) 
64

>  <SMILES>  (741) 
O=C(Cn1c([O-])c2c(c1[O-])CC=CC2)[N-]c1ccc(S(=O)(=O)N2CCOCC2)cc1

>  <Energy>  (741) 
100.26101604971727

>  <Genealogy>  (741) 
O=C(Cn1c([O-])c2c(c1[O-])CC=CC2)[N-]c1ccc(S(=O)(=O)N2CCOCC2)cc1 (protonated)
O=C(Cn1c([O-])c2c(c1[O-])CC=CC2)[N-]c1ccc(S(=O)(=O)N2CCOCC2)cc1 (3D coordinates assigned)
O=C(Cn1c([O-])c2c(c1[O-])CC=CC2)[N-]c1ccc(S(=O)(=O)N2CCOCC2)cc1 (nonaromatic ring conformer: 100.26101604971727 kcal/mol)

>  <smiles>  (741) 
O=C(Cn1c(O)c2c(c1O)CC=CC2)Nc1ccc(S(=O)(=O)N2CCOCC2)cc1

>  <score_type>  (741) 
oracle

>  <origin>  (741) 
adg

>  <m_score__min__energy>  (741) 
-15.27

>  <m_primary>  (741) 
energy

$$$$
75:0
     RDKit          3D

 25 27  0  0  0  0  0  0  0  0999 V2000
   53.3590   23.7430   45.3400 O   0  0  0  0  0  0  0  0  0  0  0  0
   54.7230   24.0200   45.4080 C   0  0  0  0  0  0  0  0  0  0  0  0
   55.6620   23.0150   45.1520 C   0  0  0  0  0  0  0  0  0  0  0  0
   57.0270   23.2990   45.2150 C   0  0  0  0  0  0  0  0  0  0  0  0
   57.4630   24.5860   45.5390 C   0  0  0  0  0  0  0  0  0  0  0  0
   56.5310   25.6080   45.8150 C   0  0  0  0  0  0  0  0  0  0  0  0
   56.9640   26.9890   46.1460 C   0  0  0  0  0  0  0  0  0  0  0  0
   57.5910   27.7960   45.2780 C   0  0  0  0  0  0  0  0  0  0  0  0
   57.4170   29.2700   45.2850 C   0  0  0  0  0  0  0  0  0  0  0  0
   56.1970   29.8190   44.8730 C   0  0  0  0  0  0  0  0  0  0  0  0
   55.1460   28.9990   44.4760 O   0  0  0  0  0  0  0  0  0  0  0  0
   56.0250   31.1630   44.8690 N   0  0  0  0  0  0  0  0  0  0  0  0
   57.0140   32.0070   45.2500 C   0  0  0  0  0  0  0  0  0  0  0  0
   56.7920   33.2490   45.2490 O   0  0  0  0  0  0  0  0  0  0  0  0
   58.2330   31.5130   45.6360 N   0  0  0  0  0  0  0  0  0  0  0  0
   59.2880   32.4180   46.0260 C   0  0  0  0  0  0  0  0  0  0  0  0
   60.2630   32.0140   46.9540 C   0  0  0  0  0  0  0  0  0  0  0  0
   61.2830   32.8930   47.3310 C   0  0  0  0  0  0  0  0  0  0  0  0
   61.3370   34.1790   46.7860 C   0  0  0  0  0  0  0  0  0  0  0  0
   60.3700   34.5880   45.8630 C   0  0  0  0  0  0  0  0  0  0  0  0
   59.3490   33.7120   45.4830 C   0  0  0  0  0  0  0  0  0  0  0  0
   58.4520   30.1590   45.6440 C   0  0  0  0  0  0  0  0  0  0  0  0
   59.5960   29.7070   45.9340 O   0  0  0  0  0  0  0  0  0  0  0  0
   55.1540   25.3140   45.7350 C   0  0  0  0  0  0  0  0  0  0  0  0
   54.2060   26.3010   45.9890 O   0  0  0  0  0  0  0  0  0  0  0  0
  1  2  1  0
  2  3  2  0
  3  4  1  0
  4  5  2  0
  5  6  1  0
  6  7  1  0
  7  8  2  0
  8  9  1  0
  9 10  2  0
 10 11  1  0
 10 12  1  0
 12 13  1  0
 13 14  2  0
 13 15  1  0
 15 16  1  0
 16 17  2  0
 17 18  1  0
 18 19  2  0
 19 20  1  0
 20 21  2  0
 15 22  1  0
 22 23  2  0
  6 24  2  0
 24 25  1  0
 24  2  1  0
 22  9  1  0
 21 16  1  0
M  CHG  3  11  -1  12  -1  25  -1
M  END
>  <UniqueID>  (742) 
70

>  <SMILES>  (742) 
O=c1[n-]c([O-])c(/C=C/c2cccc(O)c2[O-])c(=O)n1-c1ccccc1

>  <Energy>  (742) 
59.074135414235755

>  <Genealogy>  (742) 
O=c1[n-]c([O-])c(C=Cc2cccc(O)c2[O-])c(=O)n1-c1ccccc1 (protonated)
O=c1[n-]c([O-])c(/C=C/c2cccc(O)c2[O-])c(=O)n1-c1ccccc1 (cis-trans isomerization)
O=c1[n-]c([O-])c(/C=C/c2cccc(O)c2[O-])c(=O)n1-c1ccccc1 (3D coordinates assigned)
O=c1[n-]c([O-])c(/C=C/c2cccc(O)c2[O-])c(=O)n1-c1ccccc1 (optimized conformer: 59.074135414235755 kcal/mol)

>  <smiles>  (742) 
O=c1[nH]c(O)c(C=Cc2cccc(O)c2O)c(=O)n1-c1ccccc1

>  <score_type>  (742) 
oracle

>  <origin>  (742) 
adg

>  <m_score__min__energy>  (742) 
-15.73

>  <m_primary>  (742) 
energy

$$$$
2:0
     RDKit          3D

 31 34  0  0  0  0  0  0  0  0999 V2000
   59.1880   29.8310   47.3090 C   0  0  0  0  0  0  0  0  0  0  0  0
   58.7300   30.8000   46.4990 C   0  0  0  0  0  0  0  0  0  0  0  0
   58.2300   30.6570   45.1940 C   0  0  0  0  0  0  0  0  0  0  0  0
   57.9270   29.5580   44.4760 C   0  0  0  0  0  0  0  0  0  0  0  0
   57.4410   28.2780   45.0290 C   0  0  0  0  0  0  0  0  0  0  0  0
   56.0710   28.0750   45.2420 C   0  0  0  0  0  0  0  0  0  0  0  0
   55.1460   29.0540   44.8910 O   0  0  0  0  0  0  0  0  0  0  0  0
   55.6340   26.9120   45.7890 N   0  0  0  0  0  0  0  0  0  0  0  0
   56.5080   25.9360   46.1490 C   0  0  0  0  0  0  0  0  0  0  0  0
   55.9540   24.5460   46.8010 S   0  0  0  0  0  0  0  0  0  0  0  0
   57.8430   26.1190   45.9780 N   0  0  0  0  0  0  0  0  0  0  0  0
   58.3280   27.2660   45.4370 C   0  0  0  0  0  0  0  0  0  0  0  0
   59.5740   27.4110   45.3100 O   0  0  0  0  0  0  0  0  0  0  0  0
   58.0610   31.9410   44.7000 C   0  0  0  0  0  0  0  0  0  0  0  0
   58.4010   32.8080   45.7170 C   0  0  0  0  0  0  0  0  0  0  0  0
   58.3340   34.3030   45.6210 C   0  0  0  0  0  0  0  0  0  0  0  0
   58.8110   32.1210   46.8050 N   0  0  0  0  0  0  0  0  0  0  0  0
   59.2500   32.7010   48.0460 C   0  0  0  0  0  0  0  0  0  0  0  0
   60.3140   33.6140   48.0620 C   0  0  0  0  0  0  0  0  0  0  0  0
   60.7290   34.1870   49.2660 C   0  0  0  0  0  0  0  0  0  0  0  0
   60.0730   33.8650   50.4580 C   0  0  0  0  0  0  0  0  0  0  0  0
   58.9890   32.9770   50.4480 C   0  0  0  0  0  0  0  0  0  0  0  0
   58.2990   32.6510   51.7090 C   0  0  0  0  0  0  0  0  0  0  0  0
   57.2500   33.2940   51.9910 O   0  0  0  0  0  0  0  0  0  0  0  0
   58.7810   31.6320   52.6260 N   0  0  0  0  0  0  0  0  0  0  0  0
   57.7090   31.0970   53.4980 C   0  0  0  0  0  0  0  0  0  0  0  0
   56.8560   29.9970   52.8160 C   0  0  0  0  0  0  0  0  0  0  0  0
   57.3940   29.5480   51.5870 O   0  0  0  0  0  0  0  0  0  0  0  0
   58.7650   29.2710   51.7390 C   0  0  0  0  0  0  0  0  0  0  0  0
   59.5600   30.5730   51.9360 C   0  0  0  0  0  0  0  0  0  0  0  0
   58.5970   32.3760   49.2430 C   0  0  0  0  0  0  0  0  0  0  0  0
  1  2  2  0
  2  3  1  0
  3  4  2  3
  4  5  1  0
  5  6  2  0
  6  7  1  0
  6  8  1  0
  8  9  1  0
  9 10  2  0
  9 11  1  0
 11 12  1  0
 12 13  2  0
  3 14  1  0
 14 15  2  0
 15 16  1  0
 15 17  1  0
 17 18  1  0
 18 19  2  0
 19 20  1  0
 20 21  2  0
 21 22  1  0
 22 23  1  0
 23 24  2  0
 23 25  1  0
 25 26  1  0
 26 27  1  0
 27 28  1  0
 28 29  1  0
 29 30  1  0
 22 31  2  0
 17  2  1  0
 31 18  1  0
 12  5  1  0
 30 25  1  0
M  CHG  4   7  -1   8  -1  11  -1  25   1
M  END
>  <UniqueID>  (743) 
3

>  <SMILES>  (743) 
C=c1c(=Cc2c([O-])[n-]c(=S)[n-]c2=O)cc(C)n1-c1cccc(C(=O)[NH+]2CCOCC2)c1

>  <Energy>  (743) 
124.34030007079888

>  <Genealogy>  (743) 
C=c1c(=Cc2c([O-])[n-]c(=S)[n-]c2=O)cc(C)n1-c1cccc(C(=O)[NH+]2CCOCC2)c1 (protonated)
C=c1c(=Cc2c([O-])[n-]c(=S)[n-]c2=O)cc(C)n1-c1cccc(C(=O)[NH+]2CCOCC2)c1 (3D coordinates assigned)
C=c1c(=Cc2c([O-])[n-]c(=S)[n-]c2=O)cc(C)n1-c1cccc(C(=O)[NH+]2CCOCC2)c1 (nonaromatic ring conformer: 124.34030007079888 kcal/mol)

>  <smiles>  (743) 
C=c1c(=Cc2c(O)[nH]c(=S)[nH]c2=O)cc(C)n1-c1cccc(C(=O)N2CCOCC2)c1

>  <score_type>  (743) 
oracle

>  <origin>  (743) 
adg

>  <m_score__min__energy>  (743) 
-15.300000000000001

>  <m_primary>  (743) 
energy

$$$$
12:0
     RDKit          3D

 27 29  0  0  0  0  0  0  0  0999 V2000
   53.6740   22.7260   48.8820 O   0  0  0  0  0  0  0  0  0  0  0  0
   53.5260   22.4160   47.6690 C   0  0  0  0  0  0  0  0  0  0  0  0
   54.7040   21.8800   46.8960 C   0  0  0  0  0  0  0  0  0  0  0  0
   56.2830   22.1720   47.7720 S   0  0  0  0  0  0  0  0  0  0  0  0
   56.6070   23.7320   46.9530 C   0  0  0  0  0  0  0  0  0  0  0  0
   57.8620   24.0280   46.5290 N   0  0  0  0  0  0  0  0  0  0  0  0
   58.1370   25.2090   45.9160 C   0  0  0  0  0  0  0  0  0  0  0  0
   59.3220   25.4640   45.5730 O   0  0  0  0  0  0  0  0  0  0  0  0
   57.1060   26.1410   45.6980 C   0  0  0  0  0  0  0  0  0  0  0  0
   57.3490   27.4140   45.0720 N   0  0  0  0  0  0  0  0  0  0  0  0
   57.9770   28.5150   45.7510 C   0  0  0  0  0  0  0  0  0  0  0  0
   58.6370   28.3020   46.8060 O   0  0  0  0  0  0  0  0  0  0  0  0
   57.8930   29.8910   45.2070 C   0  0  0  0  0  0  0  0  0  0  0  0
   57.2860   30.1430   43.9610 C   0  0  0  0  0  0  0  0  0  0  0  0
   57.2060   31.4470   43.4630 C   0  0  0  0  0  0  0  0  0  0  0  0
   57.7230   32.5150   44.2000 C   0  0  0  0  0  0  0  0  0  0  0  0
   58.3190   32.2790   45.4420 C   0  0  0  0  0  0  0  0  0  0  0  0
   58.4020   30.9770   45.9460 C   0  0  0  0  0  0  0  0  0  0  0  0
   55.8230   25.8190   46.1660 C   0  0  0  0  0  0  0  0  0  0  0  0
   54.7680   26.7080   46.0020 O   0  0  0  0  0  0  0  0  0  0  0  0
   55.6010   24.6260   46.7740 N   0  0  0  0  0  0  0  0  0  0  0  0
   52.2270   22.5830   47.0780 N   0  0  0  0  0  0  0  0  0  0  0  0
   51.9530   23.0810   45.9080 C   0  0  0  0  0  0  0  0  0  0  0  0
   52.8560   23.2560   44.9180 N   0  0  0  0  0  0  0  0  0  0  0  0
   52.2730   23.7580   43.7970 C   0  0  0  0  0  0  0  0  0  0  0  0
   50.9030   23.9770   43.8900 C   0  0  0  0  0  0  0  0  0  0  0  0
   50.4040   23.5210   45.4320 S   0  0  0  0  0  0  0  0  0  0  0  0
  1  2  2  0
  2  3  1  0
  3  4  1  0
  4  5  1  0
  5  6  2  0
  6  7  1  0
  7  8  2  0
  7  9  1  0
  9 10  1  0
 10 11  1  0
 11 12  2  0
 11 13  1  0
 13 14  2  0
 14 15  1  0
 15 16  2  0
 16 17  1  0
 17 18  2  0
  9 19  2  0
 19 20  1  0
 19 21  1  0
  2 22  1  0
 22 23  2  3
 23 24  1  0
 24 25  1  0
 25 26  2  0
 26 27  1  0
 21  5  1  0
 27 23  1  0
 18 13  1  0
M  CHG  3  20  -1  21  -1  24  -1
M  END
>  <UniqueID>  (744) 
11

>  <SMILES>  (744) 
O=C(CSc1nc(=O)c(NC(=O)c2ccccc2)c([O-])[n-]1)N=c1[n-]ccs1

>  <Energy>  (744) 
79.16232723522887

>  <Genealogy>  (744) 
O=C(CSc1nc(=O)c(NC(=O)c2ccccc2)c([O-])[n-]1)N=c1[n-]ccs1 (protonated)
O=C(CSc1nc(=O)c(NC(=O)c2ccccc2)c([O-])[n-]1)N=c1[n-]ccs1 (3D coordinates assigned)
O=C(CSc1nc(=O)c(NC(=O)c2ccccc2)c([O-])[n-]1)N=c1[n-]ccs1 (optimized conformer: 79.16232723522887 kcal/mol)

>  <smiles>  (744) 
O=C(CSc1nc(=O)c(NC(=O)c2ccccc2)c(O)[nH]1)N=c1[nH]ccs1

>  <score_type>  (744) 
oracle

>  <origin>  (744) 
adg

>  <m_score__min__energy>  (744) 
-14.33

>  <m_primary>  (744) 
energy

$$$$
20:0
     RDKit          3D

 27 29  0  0  0  0  0  0  0  0999 V2000
   56.7690   27.5180   46.4440 O   0  0  0  0  0  0  0  0  0  0  0  0
   57.3160   26.9010   45.4900 C   0  0  0  0  0  0  0  0  0  0  0  0
   57.9410   27.6700   44.3710 C   0  0  0  0  0  0  0  0  0  0  0  0
   57.6150   29.1260   44.5000 C   0  0  0  0  0  0  0  0  0  0  0  0
   58.7610   30.3620   44.5490 S   0  0  0  0  0  0  0  0  0  0  0  0
   57.5920   31.5500   44.7740 C   0  0  0  0  0  0  0  0  0  0  0  0
   57.8430   32.7770   44.8860 O   0  0  0  0  0  0  0  0  0  0  0  0
   56.3420   31.0450   44.8300 N   0  0  0  0  0  0  0  0  0  0  0  0
   56.3510   29.6940   44.6850 C   0  0  0  0  0  0  0  0  0  0  0  0
   55.1670   28.9600   44.7270 O   0  0  0  0  0  0  0  0  0  0  0  0
   57.4290   25.4740   45.5120 N   0  0  0  0  0  0  0  0  0  0  0  0
   56.3390   24.5560   45.6710 C   0  0  0  0  0  0  0  0  0  0  0  0
   56.6170   23.1830   45.6870 C   0  0  0  0  0  0  0  0  0  0  0  0
   55.5860   22.2480   45.8380 C   0  0  0  0  0  0  0  0  0  0  0  0
   55.9690   20.5300   45.8890 S   0  0  0  0  0  0  0  0  0  0  0  0
   57.4330   20.3580   45.5940 O   0  0  0  0  0  0  0  0  0  0  0  0
   55.1690   19.7990   44.8450 O   0  0  0  0  0  0  0  0  0  0  0  0
   55.5940   19.9060   47.4830 N   0  0  0  0  0  0  0  0  0  0  0  0
   56.7770   19.2910   48.1260 C   0  0  0  0  0  0  0  0  0  0  0  0
   57.4460   20.2220   49.1520 C   0  0  0  0  0  0  0  0  0  0  0  0
   57.3240   21.5650   48.7460 O   0  0  0  0  0  0  0  0  0  0  0  0
   55.9720   21.9850   48.8380 C   0  0  0  0  0  0  0  0  0  0  0  0
   54.9600   20.9290   48.3330 C   0  0  0  0  0  0  0  0  0  0  0  0
   54.2610   22.6890   45.9490 C   0  0  0  0  0  0  0  0  0  0  0  0
   53.9710   24.0550   45.8990 C   0  0  0  0  0  0  0  0  0  0  0  0
   54.9990   24.9900   45.7460 C   0  0  0  0  0  0  0  0  0  0  0  0
   54.6760   26.3380   45.6360 O   0  0  0  0  0  0  0  0  0  0  0  0
  1  2  2  0
  2  3  1  0
  3  4  1  0
  4  5  1  0
  5  6  1  0
  6  7  2  0
  6  8  1  0
  8  9  1  0
  9 10  1  0
  2 11  1  0
 11 12  1  0
 12 13  2  0
 13 14  1  0
 14 15  1  0
 15 16  2  0
 15 17  2  0
 15 18  1  0
 18 19  1  0
 19 20  1  0
 20 21  1  0
 21 22  1  0
 22 23  1  0
 14 24  2  0
 24 25  1  0
 25 26  2  0
 26 27  1  0
  9  4  2  0
 26 12  1  0
 23 18  1  0
M  CHG  3   8  -1  11  -1  27  -1
M  END
>  <UniqueID>  (745) 
19

>  <SMILES>  (745) 
O=C(Cc1sc(=O)[n-]c1O)[N-]c1cc(S(=O)(=O)N2CCOCC2)ccc1[O-]

>  <Energy>  (745) 
86.93290788530915

>  <Genealogy>  (745) 
O=C(Cc1sc(=O)[n-]c1O)[N-]c1cc(S(=O)(=O)N2CCOCC2)ccc1[O-] (protonated)
O=C(Cc1sc(=O)[n-]c1O)[N-]c1cc(S(=O)(=O)N2CCOCC2)ccc1[O-] (3D coordinates assigned)
O=C(Cc1sc(=O)[n-]c1O)[N-]c1cc(S(=O)(=O)N2CCOCC2)ccc1[O-] (nonaromatic ring conformer: 86.93290788530915 kcal/mol)

>  <smiles>  (745) 
O=C(Cc1sc(=O)[nH]c1O)Nc1cc(S(=O)(=O)N2CCOCC2)ccc1O

>  <score_type>  (745) 
oracle

>  <origin>  (745) 
adg

>  <m_score__min__energy>  (745) 
-15.26

>  <m_primary>  (745) 
energy

$$$$
39:0
     RDKit          3D

 24 25  0  0  0  0  0  0  0  0999 V2000
   56.6060   30.2510   43.2620 C   0  0  0  0  0  0  0  0  0  0  0  0
   56.4990   30.7630   44.5860 O   0  0  0  0  0  0  0  0  0  0  0  0
   57.4150   31.6500   45.1760 C   0  0  0  0  0  0  0  0  0  0  0  0
   57.1460   33.0300   45.2810 C   0  0  0  0  0  0  0  0  0  0  0  0
   58.0830   33.8900   45.8600 C   0  0  0  0  0  0  0  0  0  0  0  0
   59.2950   33.3900   46.3340 C   0  0  0  0  0  0  0  0  0  0  0  0
   59.5730   32.0250   46.2370 C   0  0  0  0  0  0  0  0  0  0  0  0
   58.6350   31.1470   45.6720 C   0  0  0  0  0  0  0  0  0  0  0  0
   59.0110   29.4230   45.5690 S   0  0  0  0  0  0  0  0  0  0  0  0
   59.6390   29.0900   44.2440 O   0  0  0  0  0  0  0  0  0  0  0  0
   59.9740   29.0760   46.6690 O   0  0  0  0  0  0  0  0  0  0  0  0
   57.5700   28.4720   45.7600 N   0  0  0  0  0  0  0  0  0  0  0  0
   57.5570   27.0380   45.9180 C   0  0  0  0  0  0  0  0  0  0  0  0
   58.7530   26.2980   45.9680 C   0  0  0  0  0  0  0  0  0  0  0  0
   58.7240   24.9140   46.1190 C   0  0  0  0  0  0  0  0  0  0  0  0
   57.5060   24.2460   46.2190 C   0  0  0  0  0  0  0  0  0  0  0  0
   56.2970   24.9480   46.1660 C   0  0  0  0  0  0  0  0  0  0  0  0
   55.0860   24.1780   46.2690 N   0  0  0  0  0  0  0  0  0  0  0  0
   54.5840   22.8330   45.2980 S   0  0  0  0  0  0  0  0  0  0  0  0
   52.8570   22.7820   45.2630 N   0  0  0  0  0  0  0  0  0  0  0  0
   55.0940   22.9930   43.8930 O   0  0  0  0  0  0  0  0  0  0  0  0
   55.0950   21.5490   45.8900 O   0  0  0  0  0  0  0  0  0  0  0  0
   56.3240   26.3580   46.0240 C   0  0  0  0  0  0  0  0  0  0  0  0
   55.1470   27.0940   45.9960 O   0  0  0  0  0  0  0  0  0  0  0  0
  1  2  1  0
  2  3  1  0
  3  4  2  0
  4  5  1  0
  5  6  2  0
  6  7  1  0
  7  8  2  0
  8  9  1  0
  9 10  2  0
  9 11  2  0
  9 12  1  0
 12 13  1  0
 13 14  2  0
 14 15  1  0
 15 16  2  0
 16 17  1  0
 17 18  1  0
 18 19  1  0
 19 20  1  0
 19 21  2  0
 19 22  2  0
 17 23  2  0
 23 24  1  0
  8  3  1  0
 23 13  1  0
M  CHG  3  18  -1  20  -1  24  -1
M  END
>  <UniqueID>  (746) 
36

>  <SMILES>  (746) 
COc1ccccc1S(=O)(=O)Nc1cccc([N-]S([NH-])(=O)=O)c1[O-]

>  <Energy>  (746) 
45.28670101588071

>  <Genealogy>  (746) 
COc1ccccc1S(=O)(=O)Nc1cccc([N-]S([NH-])(=O)=O)c1[O-] (protonated)
COc1ccccc1S(=O)(=O)Nc1cccc([N-]S([NH-])(=O)=O)c1[O-] (3D coordinates assigned)
COc1ccccc1S(=O)(=O)Nc1cccc([N-]S([NH-])(=O)=O)c1[O-] (optimized conformer: 45.28670101588071 kcal/mol)

>  <smiles>  (746) 
COc1ccccc1S(=O)(=O)Nc1cccc(NS(N)(=O)=O)c1O

>  <score_type>  (746) 
oracle

>  <origin>  (746) 
adg

>  <m_score__min__energy>  (746) 
-14.74

>  <m_primary>  (746) 
energy

$$$$
46:0
     RDKit          3D

 35 38  0  0  0  0  0  0  0  0999 V2000
   58.9020   28.1480   44.0730 O   0  0  0  0  0  0  0  0  0  0  0  0
   59.2630   28.5630   45.2060 C   0  0  0  0  0  0  0  0  0  0  0  0
   58.9230   27.7630   46.4350 C   0  0  0  0  0  0  0  0  0  0  0  0
   57.4130   27.7040   46.7060 C   0  0  0  0  0  0  0  0  0  0  0  0
   56.9370   26.3210   46.7840 N   0  0  0  0  0  0  0  0  0  0  0  0
   55.8780   25.7630   46.0020 C   0  0  0  0  0  0  0  0  0  0  0  0
   54.7650   26.3460   45.9960 O   0  0  0  0  0  0  0  0  0  0  0  0
   56.0410   24.5280   45.2110 C   0  0  0  0  0  0  0  0  0  0  0  0
   57.3020   24.2000   44.7000 C   0  0  0  0  0  0  0  0  0  0  0  0
   57.4590   23.0750   43.8920 C   0  0  0  0  0  0  0  0  0  0  0  0
   56.3470   22.2840   43.6000 C   0  0  0  0  0  0  0  0  0  0  0  0
   55.1270   22.6180   44.0890 N   0  0  0  0  0  0  0  0  0  0  0  0
   54.9430   23.7130   44.8740 C   0  0  0  0  0  0  0  0  0  0  0  0
   53.7810   23.9980   45.2690 O   0  0  0  0  0  0  0  0  0  0  0  0
   59.9890   29.7950   45.2930 N   0  0  0  0  0  0  0  0  0  0  0  0
   59.5440   30.9880   45.9510 C   0  0  0  0  0  0  0  0  0  0  0  0
   60.2680   31.4770   47.0550 C   0  0  0  0  0  0  0  0  0  0  0  0
   59.8190   32.5920   47.7720 C   0  0  0  0  0  0  0  0  0  0  0  0
   60.7040   33.1710   49.1920 S   0  0  0  0  0  0  0  0  0  0  0  0
   59.8250   34.1450   49.9260 O   0  0  0  0  0  0  0  0  0  0  0  0
   60.9580   32.0060   50.1120 O   0  0  0  0  0  0  0  0  0  0  0  0
   62.2160   33.9800   48.8090 N   0  0  0  0  0  0  0  0  0  0  0  0
   62.5830   33.8720   47.3870 C   0  0  0  0  0  0  0  0  0  0  0  0
   63.5050   32.6710   47.1060 C   0  0  0  0  0  0  0  0  0  0  0  0
   63.3920   31.6930   48.1130 O   0  0  0  0  0  0  0  0  0  0  0  0
   63.8840   32.1930   49.3420 C   0  0  0  0  0  0  0  0  0  0  0  0
   63.3250   33.5820   49.6950 C   0  0  0  0  0  0  0  0  0  0  0  0
   58.6230   33.2100   47.3960 C   0  0  0  0  0  0  0  0  0  0  0  0
   57.8870   32.7280   46.3130 C   0  0  0  0  0  0  0  0  0  0  0  0
   58.3240   31.6080   45.5740 C   0  0  0  0  0  0  0  0  0  0  0  0
   57.5280   31.1330   44.4550 N   0  0  0  0  0  0  0  0  0  0  0  0
   57.7470   31.5500   43.0760 C   0  0  0  0  0  0  0  0  0  0  0  0
   56.6750   30.8490   42.2520 C   0  0  0  0  0  0  0  0  0  0  0  0
   56.2300   29.6710   43.1050 C   0  0  0  0  0  0  0  0  0  0  0  0
   56.5010   30.1020   44.5380 C   0  0  0  0  0  0  0  0  0  0  0  0
  1  2  2  0
  2  3  1  0
  3  4  1  0
  4  5  1  0
  5  6  1  0
  6  7  2  0
  6  8  1  0
  8  9  2  0
  9 10  1  0
 10 11  2  0
 11 12  1  0
 12 13  1  0
 13 14  2  0
  2 15  1  0
 15 16  1  0
 16 17  2  0
 17 18  1  0
 18 19  1  0
 19 20  2  0
 19 21  2  0
 19 22  1  0
 22 23  1  0
 23 24  1  0
 24 25  1  0
 25 26  1  0
 26 27  1  0
 18 28  2  0
 28 29  1  0
 29 30  2  0
 30 31  1  0
 31 32  1  0
 32 33  1  0
 33 34  1  0
 34 35  1  0
 13  8  1  0
 30 16  1  0
 35 31  1  0
 27 22  1  0
M  CHG  3   5  -1  12  -1  15  -1
M  END
>  <UniqueID>  (747) 
42

>  <SMILES>  (747) 
O=C(CC[N-]C(=O)c1ccc[n-]c1=O)[N-]c1cc(S(=O)(=O)N2CCOCC2)ccc1N1CCCC1

>  <Energy>  (747) 
83.33047659844166

>  <Genealogy>  (747) 
O=C(CC[N-]C(=O)c1ccc[n-]c1=O)[N-]c1cc(S(=O)(=O)N2CCOCC2)ccc1N1CCCC1 (protonated)
O=C(CC[N-]C(=O)c1ccc[n-]c1=O)[N-]c1cc(S(=O)(=O)N2CCOCC2)ccc1N1CCCC1 (3D coordinates assigned)
O=C(CC[N-]C(=O)c1ccc[n-]c1=O)[N-]c1cc(S(=O)(=O)N2CCOCC2)ccc1N1CCCC1 (nonaromatic ring conformer: 83.33047659844166 kcal/mol)

>  <smiles>  (747) 
O=C(CCNC(=O)c1ccc[nH]c1=O)Nc1cc(S(=O)(=O)N2CCOCC2)ccc1N1CCCC1

>  <score_type>  (747) 
oracle

>  <origin>  (747) 
adg

>  <m_score__min__energy>  (747) 
-14.34

>  <m_primary>  (747) 
energy

$$$$
72:0
     RDKit          3D

 30 32  0  0  0  0  0  0  0  0999 V2000
   54.8920   26.3410   45.9770 N   0  0  0  0  0  0  0  0  0  0  0  0
   56.3230   25.4550   46.3680 S   0  0  0  0  0  0  0  0  0  0  0  0
   56.0290   24.4930   47.4850 O   0  0  0  0  0  0  0  0  0  0  0  0
   56.7740   24.6740   45.1650 O   0  0  0  0  0  0  0  0  0  0  0  0
   57.5890   26.5740   46.8650 C   0  0  0  0  0  0  0  0  0  0  0  0
   57.3840   27.9560   46.7630 C   0  0  0  0  0  0  0  0  0  0  0  0
   58.3920   28.8470   47.1470 C   0  0  0  0  0  0  0  0  0  0  0  0
   59.6190   28.3650   47.6290 C   0  0  0  0  0  0  0  0  0  0  0  0
   60.6900   29.3290   48.0590 C   0  0  0  0  0  0  0  0  0  0  0  0
   60.8010   29.3460   49.5140 N   0  0  0  0  0  0  0  0  0  0  0  0
   59.8420   29.9660   50.3750 C   0  0  0  0  0  0  0  0  0  0  0  0
   59.4140   29.3550   51.3910 O   0  0  0  0  0  0  0  0  0  0  0  0
   59.3420   31.2640   50.0370 N   0  0  0  0  0  0  0  0  0  0  0  0
   59.5990   31.9910   48.8270 C   0  0  0  0  0  0  0  0  0  0  0  0
   60.7540   32.7810   48.7510 C   0  0  0  0  0  0  0  0  0  0  0  0
   61.0290   33.5230   47.5990 C   0  0  0  0  0  0  0  0  0  0  0  0
   60.1450   33.4930   46.5180 C   0  0  0  0  0  0  0  0  0  0  0  0
   58.9770   32.7220   46.5860 C   0  0  0  0  0  0  0  0  0  0  0  0
   57.8290   32.7140   45.2500 S   0  0  0  0  0  0  0  0  0  0  0  0
   58.5270   33.2010   44.0100 O   0  0  0  0  0  0  0  0  0  0  0  0
   56.6840   33.6430   45.5510 O   0  0  0  0  0  0  0  0  0  0  0  0
   57.2370   31.0920   44.9940 N   0  0  0  0  0  0  0  0  0  0  0  0
   55.9030   31.1340   44.3690 C   0  0  0  0  0  0  0  0  0  0  0  0
   55.4890   29.7400   43.8600 C   0  0  0  0  0  0  0  0  0  0  0  0
   56.3310   28.7360   44.3910 O   0  0  0  0  0  0  0  0  0  0  0  0
   57.6510   28.9140   43.9070 C   0  0  0  0  0  0  0  0  0  0  0  0
   58.1760   30.3470   44.1430 C   0  0  0  0  0  0  0  0  0  0  0  0
   58.6990   31.9830   47.7450 C   0  0  0  0  0  0  0  0  0  0  0  0
   59.8230   26.9780   47.7250 C   0  0  0  0  0  0  0  0  0  0  0  0
   58.8150   26.0890   47.3420 C   0  0  0  0  0  0  0  0  0  0  0  0
  1  2  1  0
  2  3  2  0
  2  4  2  0
  2  5  1  0
  5  6  2  0
  6  7  1  0
  7  8  2  0
  8  9  1  0
  9 10  1  0
 10 11  1  0
 11 12  2  0
 11 13  1  0
 13 14  1  0
 14 15  2  0
 15 16  1  0
 16 17  2  0
 17 18  1  0
 18 19  1  0
 19 20  2  0
 19 21  2  0
 19 22  1  0
 22 23  1  0
 23 24  1  0
 24 25  1  0
 25 26  1  0
 26 27  1  0
 18 28  2  0
  8 29  1  0
 29 30  2  0
 30  5  1  0
 28 14  1  0
 27 22  1  0
M  CHG  3   1  -1  10  -1  13  -1
M  END
>  <UniqueID>  (748) 
66

>  <SMILES>  (748) 
[NH-]S(=O)(=O)c1ccc(C[N-]C(=O)[N-]c2cccc(S(=O)(=O)N3CCOCC3)c2)cc1

>  <Energy>  (748) 
57.97869330151737

>  <Genealogy>  (748) 
[NH-]S(=O)(=O)c1ccc(C[N-]C(=O)[N-]c2cccc(S(=O)(=O)N3CCOCC3)c2)cc1 (protonated)
[NH-]S(=O)(=O)c1ccc(C[N-]C(=O)[N-]c2cccc(S(=O)(=O)N3CCOCC3)c2)cc1 (3D coordinates assigned)
[NH-]S(=O)(=O)c1ccc(C[N-]C(=O)[N-]c2cccc(S(=O)(=O)N3CCOCC3)c2)cc1 (nonaromatic ring conformer: 57.97869330151737 kcal/mol)

>  <smiles>  (748) 
NS(=O)(=O)c1ccc(CNC(=O)Nc2cccc(S(=O)(=O)N3CCOCC3)c2)cc1

>  <score_type>  (748) 
oracle

>  <origin>  (748) 
adg

>  <m_score__min__energy>  (748) 
-14.25

>  <m_primary>  (748) 
energy

$$$$
91:0
     RDKit          3D

 25 27  0  0  0  0  0  0  0  0999 V2000
   64.5670   32.9970   48.8610 O   0  0  0  0  0  0  0  0  0  0  0  0
   63.3620   33.4090   48.2970 C   0  0  0  0  0  0  0  0  0  0  0  0
   63.1920   33.4260   46.9050 C   0  0  0  0  0  0  0  0  0  0  0  0
   61.9780   33.8420   46.3520 C   0  0  0  0  0  0  0  0  0  0  0  0
   60.9230   34.2530   47.1840 C   0  0  0  0  0  0  0  0  0  0  0  0
   59.6050   34.6640   46.5900 C   0  0  0  0  0  0  0  0  0  0  0  0
   58.8460   33.4560   46.1460 C   0  0  0  0  0  0  0  0  0  0  0  0
   59.0280   32.2230   46.6710 N   0  0  0  0  0  0  0  0  0  0  0  0
   58.1990   31.3090   46.1720 N   0  0  0  0  0  0  0  0  0  0  0  0
   57.3420   31.8080   45.2550 C   0  0  0  0  0  0  0  0  0  0  0  0
   56.4560   31.0620   44.6630 N   0  0  0  0  0  0  0  0  0  0  0  0
   56.3090   29.6350   44.7530 C   0  0  0  0  0  0  0  0  0  0  0  0
   55.2110   29.0710   44.4980 O   0  0  0  0  0  0  0  0  0  0  0  0
   57.4550   28.8120   45.1480 C   0  0  0  0  0  0  0  0  0  0  0  0
   57.3060   27.8670   46.0270 N   0  0  0  0  0  0  0  0  0  0  0  0
   57.1460   26.4620   45.7580 C   0  0  0  0  0  0  0  0  0  0  0  0
   58.2250   25.6300   45.3870 C   0  0  0  0  0  0  0  0  0  0  0  0
   58.0120   24.2740   45.1260 C   0  0  0  0  0  0  0  0  0  0  0  0
   56.7280   23.7330   45.2240 C   0  0  0  0  0  0  0  0  0  0  0  0
   55.6520   24.5500   45.5780 C   0  0  0  0  0  0  0  0  0  0  0  0
   55.8570   25.9090   45.8400 C   0  0  0  0  0  0  0  0  0  0  0  0
   54.7740   26.7090   46.1860 O   0  0  0  0  0  0  0  0  0  0  0  0
   57.5900   33.4650   45.0230 S   0  0  0  0  0  0  0  0  0  0  0  0
   61.0940   34.2220   48.5770 C   0  0  0  0  0  0  0  0  0  0  0  0
   62.3100   33.8050   49.1290 C   0  0  0  0  0  0  0  0  0  0  0  0
  1  2  1  0
  2  3  2  0
  3  4  1  0
  4  5  2  0
  5  6  1  0
  6  7  1  0
  7  8  2  0
  8  9  1  0
  9 10  1  0
 10 11  2  0
 11 12  1  0
 12 13  2  0
 12 14  1  0
 14 15  2  3
 15 16  1  0
 16 17  2  0
 17 18  1  0
 18 19  2  0
 19 20  1  0
 20 21  2  0
 21 22  1  0
 10 23  1  0
  5 24  1  0
 24 25  2  0
 25  2  1  0
 23  7  1  0
 21 16  1  0
M  CHG  2   9  -1  22  -1
M  END
>  <UniqueID>  (749) 
85

>  <SMILES>  (749) 
O=C(C=Nc1ccccc1[O-])/N=c1/[n-]nc(Cc2ccc(O)cc2)s1

>  <Energy>  (749) 
76.26817751406055

>  <Genealogy>  (749) 
O=C(C=Nc1ccccc1[O-])N=c1[n-]nc(Cc2ccc(O)cc2)s1 (protonated)
O=C(C=Nc1ccccc1[O-])/N=c1/[n-]nc(Cc2ccc(O)cc2)s1 (cis-trans isomerization)
O=C(C=Nc1ccccc1[O-])/N=c1/[n-]nc(Cc2ccc(O)cc2)s1 (3D coordinates assigned)
O=C(C=Nc1ccccc1[O-])/N=c1/[n-]nc(Cc2ccc(O)cc2)s1 (optimized conformer: 76.26817751406055 kcal/mol)

>  <smiles>  (749) 
O=C(C=Nc1ccccc1O)N=c1[nH]nc(Cc2ccc(O)cc2)s1

>  <score_type>  (749) 
oracle

>  <origin>  (749) 
adg

>  <m_score__min__energy>  (749) 
-14.210000000000001

>  <m_primary>  (749) 
energy

$$$$
22:0
     RDKit          3D

 26 28  0  0  0  0  0  0  0  0999 V2000
   56.8810   31.9230   53.1330 O   0  0  0  0  0  0  0  0  0  0  0  0
   56.3290   30.9440   52.5590 C   0  0  0  0  0  0  0  0  0  0  0  0
   54.9400   30.6750   52.7750 N   0  0  0  0  0  0  0  0  0  0  0  0
   54.1510   29.8250   51.8900 C   0  0  0  0  0  0  0  0  0  0  0  0
   53.0170   30.6130   51.3000 C   0  0  0  0  0  0  0  0  0  0  0  0
   52.4830   31.7140   51.9800 C   0  0  0  0  0  0  0  0  0  0  0  0
   51.3900   32.3780   51.4220 C   0  0  0  0  0  0  0  0  0  0  0  0
   50.8870   33.3730   52.0050 O   0  0  0  0  0  0  0  0  0  0  0  0
   50.8630   31.9450   50.2460 N   0  0  0  0  0  0  0  0  0  0  0  0
   51.3830   30.8670   49.6040 C   0  0  0  0  0  0  0  0  0  0  0  0
   50.8760   30.4750   48.5220 O   0  0  0  0  0  0  0  0  0  0  0  0
   52.4480   30.2090   50.1320 N   0  0  0  0  0  0  0  0  0  0  0  0
   57.0850   30.0980   51.6860 N   0  0  0  0  0  0  0  0  0  0  0  0
   58.1770   30.5730   50.8770 C   0  0  0  0  0  0  0  0  0  0  0  0
   59.2610   29.7240   50.6130 C   0  0  0  0  0  0  0  0  0  0  0  0
   60.3180   30.1590   49.8080 C   0  0  0  0  0  0  0  0  0  0  0  0
   60.2890   31.4360   49.2400 C   0  0  0  0  0  0  0  0  0  0  0  0
   59.1960   32.2820   49.4580 C   0  0  0  0  0  0  0  0  0  0  0  0
   59.1950   33.5550   48.8680 O   0  0  0  0  0  0  0  0  0  0  0  0
   58.8370   33.8280   47.5380 C   0  0  0  0  0  0  0  0  0  0  0  0
   57.7170   33.2270   46.9350 C   0  0  0  0  0  0  0  0  0  0  0  0
   57.3890   33.5240   45.6090 C   0  0  0  0  0  0  0  0  0  0  0  0
   58.1820   34.4090   44.8730 C   0  0  0  0  0  0  0  0  0  0  0  0
   59.3090   34.9890   45.4590 C   0  0  0  0  0  0  0  0  0  0  0  0
   59.6400   34.6930   46.7860 C   0  0  0  0  0  0  0  0  0  0  0  0
   58.1480   31.8520   50.2910 C   0  0  0  0  0  0  0  0  0  0  0  0
  1  2  2  0
  2  3  1  0
  3  4  1  0
  4  5  1  0
  5  6  2  0
  6  7  1  0
  7  8  2  0
  7  9  1  0
  9 10  1  0
 10 11  2  0
 10 12  1  0
  2 13  1  0
 13 14  1  0
 14 15  2  0
 15 16  1  0
 16 17  2  0
 17 18  1  0
 18 19  1  0
 19 20  1  0
 20 21  2  0
 21 22  1  0
 22 23  2  0
 23 24  1  0
 24 25  2  0
 18 26  2  0
 12  5  1  0
 26 14  1  0
 25 20  1  0
M  CHG  3   3  -1   9  -1  12  -1
M  END
>  <UniqueID>  (750) 
21

>  <SMILES>  (750) 
O=C([N-]Cc1cc(=O)[n-]c(=O)[n-]1)Nc1cccc(Oc2ccccc2)c1

>  <Energy>  (750) 
48.27840167934527

>  <Genealogy>  (750) 
O=C([N-]Cc1cc(=O)[n-]c(=O)[n-]1)Nc1cccc(Oc2ccccc2)c1 (protonated)
O=C([N-]Cc1cc(=O)[n-]c(=O)[n-]1)Nc1cccc(Oc2ccccc2)c1 (3D coordinates assigned)
O=C([N-]Cc1cc(=O)[n-]c(=O)[n-]1)Nc1cccc(Oc2ccccc2)c1 (optimized conformer: 48.27840167934527 kcal/mol)

>  <smiles>  (750) 
O=C(NCc1cc(=O)[nH]c(=O)[nH]1)Nc1cccc(Oc2ccccc2)c1

>  <score_type>  (750) 
oracle

>  <origin>  (750) 
adg

>  <m_score__min__energy>  (750) 
-14.58

>  <m_primary>  (750) 
energy

$$$$
33:0
     RDKit          3D

 30 32  0  0  0  0  0  0  0  0999 V2000
   58.2890   34.2230   52.4470 C   0  0  0  0  0  0  0  0  0  0  0  0
   59.3240   33.2630   51.9620 C   0  0  0  0  0  0  0  0  0  0  0  0
   59.6150   32.2620   52.6720 O   0  0  0  0  0  0  0  0  0  0  0  0
   60.0740   33.5760   50.7760 N   0  0  0  0  0  0  0  0  0  0  0  0
   59.6610   33.5600   49.5390 C   0  0  0  0  0  0  0  0  0  0  0  0
   60.3210   34.2500   48.5000 C   0  0  0  0  0  0  0  0  0  0  0  0
   59.8280   34.1690   47.1980 C   0  0  0  0  0  0  0  0  0  0  0  0
   58.6780   33.4220   46.9290 C   0  0  0  0  0  0  0  0  0  0  0  0
   58.0200   33.3180   45.2980 S   0  0  0  0  0  0  0  0  0  0  0  0
   56.6100   33.8430   45.2560 O   0  0  0  0  0  0  0  0  0  0  0  0
   58.8630   34.1560   44.3780 O   0  0  0  0  0  0  0  0  0  0  0  0
   58.0480   31.6690   44.7520 N   0  0  0  0  0  0  0  0  0  0  0  0
   58.6770   30.5770   45.4390 C   0  0  0  0  0  0  0  0  0  0  0  0
   59.8000   30.8400   46.2320 C   0  0  0  0  0  0  0  0  0  0  0  0
   60.4400   29.8040   46.9170 C   0  0  0  0  0  0  0  0  0  0  0  0
   59.9750   28.4930   46.8020 C   0  0  0  0  0  0  0  0  0  0  0  0
   58.8510   28.2050   46.0070 C   0  0  0  0  0  0  0  0  0  0  0  0
   58.3620   26.8100   45.8750 C   0  0  0  0  0  0  0  0  0  0  0  0
   59.0430   25.8620   46.3570 O   0  0  0  0  0  0  0  0  0  0  0  0
   57.1530   26.5220   45.1480 N   0  0  0  0  0  0  0  0  0  0  0  0
   56.4580   25.2660   45.2300 C   0  0  0  0  0  0  0  0  0  0  0  0
   57.1210   24.0950   44.8260 C   0  0  0  0  0  0  0  0  0  0  0  0
   56.4740   22.8550   44.8880 C   0  0  0  0  0  0  0  0  0  0  0  0
   55.1550   22.7750   45.3410 C   0  0  0  0  0  0  0  0  0  0  0  0
   54.4760   23.9360   45.7230 C   0  0  0  0  0  0  0  0  0  0  0  0
   55.1140   25.1820   45.6530 C   0  0  0  0  0  0  0  0  0  0  0  0
   54.3970   26.3280   45.9810 O   0  0  0  0  0  0  0  0  0  0  0  0
   58.1990   29.2600   45.3410 C   0  0  0  0  0  0  0  0  0  0  0  0
   58.0600   32.7350   47.9790 C   0  0  0  0  0  0  0  0  0  0  0  0
   58.5650   32.8120   49.2390 N   0  0  0  0  0  0  0  0  0  0  0  0
  1  2  1  0
  2  3  2  0
  2  4  1  0
  4  5  2  3
  5  6  1  0
  6  7  2  0
  7  8  1  0
  8  9  1  0
  9 10  2  0
  9 11  2  0
  9 12  1  0
 12 13  1  0
 13 14  2  0
 14 15  1  0
 15 16  2  0
 16 17  1  0
 17 18  1  0
 18 19  2  0
 18 20  1  0
 20 21  1  0
 21 22  2  0
 22 23  1  0
 23 24  2  0
 24 25  1  0
 25 26  2  0
 26 27  1  0
 17 28  2  0
  8 29  2  0
 29 30  1  0
 30  5  1  0
 28 13  1  0
 26 21  1  0
M  CHG  3  12  -1  27  -1  30  -1
M  END
>  <UniqueID>  (751) 
29

>  <SMILES>  (751) 
CC(=O)N=c1ccc(S(=O)(=O)[N-]c2cccc(C(=O)Nc3ccccc3[O-])c2)c[n-]1

>  <Energy>  (751) 
64.21218209822182

>  <Genealogy>  (751) 
CC(=O)N=c1ccc(S(=O)(=O)[N-]c2cccc(C(=O)Nc3ccccc3[O-])c2)c[n-]1 (protonated)
CC(=O)N=c1ccc(S(=O)(=O)[N-]c2cccc(C(=O)Nc3ccccc3[O-])c2)c[n-]1 (3D coordinates assigned)
CC(=O)N=c1ccc(S(=O)(=O)[N-]c2cccc(C(=O)Nc3ccccc3[O-])c2)c[n-]1 (optimized conformer: 64.21218209822182 kcal/mol)

>  <smiles>  (751) 
CC(=O)N=c1ccc(S(=O)(=O)Nc2cccc(C(=O)Nc3ccccc3O)c2)c[nH]1

>  <score_type>  (751) 
oracle

>  <origin>  (751) 
adg

>  <m_score__min__energy>  (751) 
-14.58

>  <m_primary>  (751) 
energy

$$$$
41:0
     RDKit          3D

 35 38  0  0  0  0  0  0  0  0999 V2000
   55.1430   29.3250   44.8100 N   0  0  0  0  0  0  0  0  0  0  0  0
   56.6800   30.0070   44.4120 S   0  0  0  0  0  0  0  0  0  0  0  0
   56.9050   29.8960   42.9290 O   0  0  0  0  0  0  0  0  0  0  0  0
   56.6990   31.4610   44.7940 O   0  0  0  0  0  0  0  0  0  0  0  0
   57.9480   29.1480   45.2800 C   0  0  0  0  0  0  0  0  0  0  0  0
   58.6400   28.0960   44.6650 C   0  0  0  0  0  0  0  0  0  0  0  0
   59.6460   27.4210   45.3560 C   0  0  0  0  0  0  0  0  0  0  0  0
   59.9630   27.7840   46.6670 C   0  0  0  0  0  0  0  0  0  0  0  0
   59.2660   28.8240   47.3080 C   0  0  0  0  0  0  0  0  0  0  0  0
   59.6090   29.2030   48.7000 C   0  0  0  0  0  0  0  0  0  0  0  0
   58.9760   30.1380   49.2620 O   0  0  0  0  0  0  0  0  0  0  0  0
   60.6840   28.5510   49.3980 N   0  0  0  0  0  0  0  0  0  0  0  0
   60.8270   28.5640   50.8280 C   0  0  0  0  0  0  0  0  0  0  0  0
   62.1070   28.6810   51.3920 C   0  0  0  0  0  0  0  0  0  0  0  0
   62.2700   28.6910   52.7790 C   0  0  0  0  0  0  0  0  0  0  0  0
   61.1590   28.5730   53.6160 C   0  0  0  0  0  0  0  0  0  0  0  0
   59.8770   28.4310   53.0700 C   0  0  0  0  0  0  0  0  0  0  0  0
   58.4730   28.2820   54.1310 S   0  0  0  0  0  0  0  0  0  0  0  0
   58.2970   26.8410   54.5260 O   0  0  0  0  0  0  0  0  0  0  0  0
   58.7130   29.0800   55.3810 O   0  0  0  0  0  0  0  0  0  0  0  0
   57.0190   28.8560   53.3500 N   0  0  0  0  0  0  0  0  0  0  0  0
   57.2670   30.1540   52.6870 C   0  0  0  0  0  0  0  0  0  0  0  0
   55.9800   30.9730   52.4330 C   0  0  0  0  0  0  0  0  0  0  0  0
   54.7640   30.1460   52.4940 N   0  0  0  0  0  0  0  0  0  0  0  0
   53.6100   30.5090   51.7040 C   0  0  0  0  0  0  0  0  0  0  0  0
   53.2440   29.7440   50.5810 C   0  0  0  0  0  0  0  0  0  0  0  0
   52.1250   30.0960   49.8190 C   0  0  0  0  0  0  0  0  0  0  0  0
   51.3610   31.2120   50.1680 C   0  0  0  0  0  0  0  0  0  0  0  0
   51.7140   31.9800   51.2800 C   0  0  0  0  0  0  0  0  0  0  0  0
   50.9530   33.0910   51.6260 O   0  0  0  0  0  0  0  0  0  0  0  0
   52.8320   31.6320   52.0460 C   0  0  0  0  0  0  0  0  0  0  0  0
   54.6160   29.1300   53.5470 C   0  0  0  0  0  0  0  0  0  0  0  0
   55.9210   28.9430   54.3180 C   0  0  0  0  0  0  0  0  0  0  0  0
   59.7160   28.4150   51.6770 C   0  0  0  0  0  0  0  0  0  0  0  0
   58.2590   29.5060   46.5990 C   0  0  0  0  0  0  0  0  0  0  0  0
  1  2  1  0
  2  3  2  0
  2  4  2  0
  2  5  1  0
  5  6  2  0
  6  7  1  0
  7  8  2  0
  8  9  1  0
  9 10  1  0
 10 11  2  0
 10 12  1  0
 12 13  1  0
 13 14  2  0
 14 15  1  0
 15 16  2  0
 16 17  1  0
 17 18  1  0
 18 19  2  0
 18 20  2  0
 18 21  1  0
 21 22  1  0
 22 23  1  0
 23 24  1  0
 24 25  1  0
 25 26  2  0
 26 27  1  0
 27 28  2  0
 28 29  1  0
 29 30  1  0
 29 31  2  0
 24 32  1  0
 32 33  1  0
 17 34  2  0
  9 35  2  0
 35  5  1  0
 34 13  1  0
 33 21  1  0
 31 25  1  0
M  CHG  2   1  -1  30  -1
M  END
>  <UniqueID>  (752) 
37

>  <SMILES>  (752) 
[NH-]S(=O)(=O)c1cccc(C(=O)Nc2cccc(S(=O)(=O)N3CCN(c4cccc([O-])c4)CC3)c2)c1

>  <Energy>  (752) 
73.10180052554293

>  <Genealogy>  (752) 
[NH-]S(=O)(=O)c1cccc(C(=O)Nc2cccc(S(=O)(=O)N3CCN(c4cccc([O-])c4)CC3)c2)c1 (protonated)
[NH-]S(=O)(=O)c1cccc(C(=O)Nc2cccc(S(=O)(=O)N3CCN(c4cccc([O-])c4)CC3)c2)c1 (3D coordinates assigned)
[NH-]S(=O)(=O)c1cccc(C(=O)Nc2cccc(S(=O)(=O)N3CCN(c4cccc([O-])c4)CC3)c2)c1 (nonaromatic ring conformer: 73.10180052554293 kcal/mol)

>  <smiles>  (752) 
NS(=O)(=O)c1cccc(C(=O)Nc2cccc(S(=O)(=O)N3CCN(c4cccc(O)c4)CC3)c2)c1

>  <score_type>  (752) 
oracle

>  <origin>  (752) 
adg

>  <m_score__min__energy>  (752) 
-16.719999999999999

>  <m_primary>  (752) 
energy

$$$$
67:0
     RDKit          3D

 29 32  0  0  0  0  0  0  0  0999 V2000
   54.7600   26.3290   45.9820 N   0  0  0  0  0  0  0  0  0  0  0  0
   54.4960   24.9780   45.6050 C   0  0  0  0  0  0  0  0  0  0  0  0
   53.3040   24.5710   45.6090 O   0  0  0  0  0  0  0  0  0  0  0  0
   55.6130   24.0750   45.2050 C   0  0  0  0  0  0  0  0  0  0  0  0
   55.3290   22.9410   44.4200 C   0  0  0  0  0  0  0  0  0  0  0  0
   56.3440   22.0630   44.0340 C   0  0  0  0  0  0  0  0  0  0  0  0
   57.6630   22.2960   44.4180 C   0  0  0  0  0  0  0  0  0  0  0  0
   57.9800   23.4220   45.1940 C   0  0  0  0  0  0  0  0  0  0  0  0
   59.2980   23.6970   45.6020 C   0  0  0  0  0  0  0  0  0  0  0  0
   60.2470   22.9300   45.2870 O   0  0  0  0  0  0  0  0  0  0  0  0
   59.5570   24.8010   46.3470 N   0  0  0  0  0  0  0  0  0  0  0  0
   58.5700   25.6620   46.7060 C   0  0  0  0  0  0  0  0  0  0  0  0
   58.8670   26.6980   47.4320 N   0  0  0  0  0  0  0  0  0  0  0  0
   58.2860   28.0070   47.3160 C   0  0  0  0  0  0  0  0  0  0  0  0
   58.1720   28.7100   48.3550 O   0  0  0  0  0  0  0  0  0  0  0  0
   57.8920   28.5750   46.0080 C   0  0  0  0  0  0  0  0  0  0  0  0
   56.6940   28.4950   45.6250 O   0  0  0  0  0  0  0  0  0  0  0  0
   58.9110   29.1800   45.0880 C   0  0  0  0  0  0  0  0  0  0  0  0
   58.4460   30.4790   44.6030 N   0  0  0  0  0  0  0  0  0  0  0  0
   57.7680   30.7030   43.4510 C   0  0  0  0  0  0  0  0  0  0  0  0
   57.4340   32.0470   43.3330 C   0  0  0  0  0  0  0  0  0  0  0  0
   57.9300   32.6470   44.4710 C   0  0  0  0  0  0  0  0  0  0  0  0
   57.8760   33.9750   44.8880 C   0  0  0  0  0  0  0  0  0  0  0  0
   58.4660   34.2990   46.1230 C   0  0  0  0  0  0  0  0  0  0  0  0
   59.0880   33.3010   46.9020 C   0  0  0  0  0  0  0  0  0  0  0  0
   59.1280   31.9680   46.4560 C   0  0  0  0  0  0  0  0  0  0  0  0
   58.5350   31.6730   45.2240 C   0  0  0  0  0  0  0  0  0  0  0  0
   57.2870   25.4050   46.3330 N   0  0  0  0  0  0  0  0  0  0  0  0
   56.9570   24.3160   45.5890 C   0  0  0  0  0  0  0  0  0  0  0  0
  1  2  1  0
  2  3  2  0
  2  4  1  0
  4  5  2  0
  5  6  1  0
  6  7  2  0
  7  8  1  0
  8  9  1  0
  9 10  2  0
  9 11  1  0
 11 12  1  0
 12 13  2  0
 13 14  1  0
 14 15  2  0
 14 16  1  0
 16 17  2  0
 16 18  1  0
 18 19  1  0
 19 20  1  0
 20 21  2  0
 21 22  1  0
 22 23  2  0
 23 24  1  0
 24 25  2  0
 25 26  1  0
 26 27  2  0
 12 28  1  0
 28 29  1  0
 29  4  1  0
 29  8  2  0
 27 19  1  0
 27 22  1  0
M  CHG  3   1  -1  11  -1  28  -1
M  END
>  <UniqueID>  (753) 
62

>  <SMILES>  (753) 
[NH-]C(=O)c1cccc2c(=O)[n-]/c(=N/C(=O)C(=O)Cn3ccc4ccccc43)[n-]c12

>  <Energy>  (753) 
90.07521665815287

>  <Genealogy>  (753) 
[NH-]C(=O)c1cccc2c(=O)[n-]c(=NC(=O)C(=O)Cn3ccc4ccccc43)[n-]c12 (protonated)
[NH-]C(=O)c1cccc2c(=O)[n-]/c(=N/C(=O)C(=O)Cn3ccc4ccccc43)[n-]c12 (cis-trans isomerization)
[NH-]C(=O)c1cccc2c(=O)[n-]/c(=N/C(=O)C(=O)Cn3ccc4ccccc43)[n-]c12 (3D coordinates assigned)
[NH-]C(=O)c1cccc2c(=O)[n-]/c(=N/C(=O)C(=O)Cn3ccc4ccccc43)[n-]c12 (optimized conformer: 90.07521665815287 kcal/mol)

>  <smiles>  (753) 
NC(=O)c1cccc2c(=O)[nH]c(=NC(=O)C(=O)Cn3ccc4ccccc43)[nH]c12

>  <score_type>  (753) 
oracle

>  <origin>  (753) 
adg

>  <m_score__min__energy>  (753) 
-14.35

>  <m_primary>  (753) 
energy

$$$$
77:0
     RDKit          3D

 30 33  0  0  0  0  0  0  0  0999 V2000
   59.0550   26.5840   47.4350 C   0  0  0  0  0  0  0  0  0  0  0  0
   58.5760   27.1710   46.3250 C   0  0  0  0  0  0  0  0  0  0  0  0
   57.8960   26.5390   45.2750 C   0  0  0  0  0  0  0  0  0  0  0  0
   57.5830   25.2270   45.1860 C   0  0  0  0  0  0  0  0  0  0  0  0
   56.2480   24.6380   45.4330 C   0  0  0  0  0  0  0  0  0  0  0  0
   55.9150   23.3420   45.2890 N   0  0  0  0  0  0  0  0  0  0  0  0
   54.6000   23.3170   45.5890 C   0  0  0  0  0  0  0  0  0  0  0  0
   53.9190   22.2580   45.5700 O   0  0  0  0  0  0  0  0  0  0  0  0
   54.0690   24.5160   45.9100 N   0  0  0  0  0  0  0  0  0  0  0  0
   55.1240   25.3400   45.8020 C   0  0  0  0  0  0  0  0  0  0  0  0
   55.0600   26.7080   46.0360 O   0  0  0  0  0  0  0  0  0  0  0  0
   57.6340   27.5310   44.3350 C   0  0  0  0  0  0  0  0  0  0  0  0
   58.1420   28.7090   44.8480 C   0  0  0  0  0  0  0  0  0  0  0  0
   58.0920   30.0330   44.1460 C   0  0  0  0  0  0  0  0  0  0  0  0
   58.7180   28.4910   46.0500 N   0  0  0  0  0  0  0  0  0  0  0  0
   59.3460   29.4920   46.8720 C   0  0  0  0  0  0  0  0  0  0  0  0
   58.8910   29.7210   48.1770 C   0  0  0  0  0  0  0  0  0  0  0  0
   59.5090   30.6840   48.9790 C   0  0  0  0  0  0  0  0  0  0  0  0
   60.5910   31.4280   48.4940 C   0  0  0  0  0  0  0  0  0  0  0  0
   61.1730   32.3830   49.3450 O   0  0  0  0  0  0  0  0  0  0  0  0
   61.1340   33.7970   49.1550 C   0  0  0  0  0  0  0  0  0  0  0  0
   59.6730   34.2870   49.0970 C   0  0  0  0  0  0  0  0  0  0  0  0
   59.0900   34.3360   47.7380 N   0  0  0  0  0  0  0  0  0  0  0  0
   60.0840   34.3990   46.6550 C   0  0  0  0  0  0  0  0  0  0  0  0
   59.3700   34.7000   45.3200 C   0  0  0  0  0  0  0  0  0  0  0  0
   57.9600   34.5610   45.4110 O   0  0  0  0  0  0  0  0  0  0  0  0
   57.6310   33.3220   46.0090 C   0  0  0  0  0  0  0  0  0  0  0  0
   58.0810   33.2890   47.4830 C   0  0  0  0  0  0  0  0  0  0  0  0
   61.0460   31.1970   47.1800 C   0  0  0  0  0  0  0  0  0  0  0  0
   60.4280   30.2340   46.3780 C   0  0  0  0  0  0  0  0  0  0  0  0
  1  2  2  0
  2  3  1  0
  3  4  2  0
  4  5  1  0
  5  6  1  0
  6  7  1  0
  7  8  2  0
  7  9  1  0
  9 10  1  0
 10 11  1  0
  3 12  1  0
 12 13  2  0
 13 14  1  0
 13 15  1  0
 15 16  1  0
 16 17  2  0
 17 18  1  0
 18 19  2  0
 19 20  1  0
 20 21  1  0
 21 22  1  0
 22 23  1  0
 23 24  1  0
 24 25  1  0
 25 26  1  0
 26 27  1  0
 27 28  1  0
 19 29  1  0
 29 30  2  0
 15  2  1  0
 30 16  1  0
 10  5  2  0
 28 23  1  0
M  CHG  3   6  -1   9  -1  11  -1
M  END
>  <UniqueID>  (754) 
71

>  <SMILES>  (754) 
C=c1/c(=C/c2[n-]c(=O)[n-]c2[O-])cc(C)n1-c1ccc(OCCN2CCOCC2)cc1

>  <Energy>  (754) 
136.21812142736087

>  <Genealogy>  (754) 
C=c1c(=Cc2[n-]c(=O)[n-]c2[O-])cc(C)n1-c1ccc(OCCN2CCOCC2)cc1 (protonated)
C=c1/c(=C/c2[n-]c(=O)[n-]c2[O-])cc(C)n1-c1ccc(OCCN2CCOCC2)cc1 (cis-trans isomerization)
C=c1/c(=C/c2[n-]c(=O)[n-]c2[O-])cc(C)n1-c1ccc(OCCN2CCOCC2)cc1 (3D coordinates assigned)
C=c1/c(=C/c2[n-]c(=O)[n-]c2[O-])cc(C)n1-c1ccc(OCCN2CCOCC2)cc1 (nonaromatic ring conformer: 136.21812142736087 kcal/mol)

>  <smiles>  (754) 
C=c1c(=Cc2[nH]c(=O)[nH]c2O)cc(C)n1-c1ccc(OCCN2CCOCC2)cc1

>  <score_type>  (754) 
oracle

>  <origin>  (754) 
adg

>  <m_score__min__energy>  (754) 
-15.539999999999999

>  <m_primary>  (754) 
energy

$$$$
59:0
     RDKit          3D

 22 23  0  0  0  0  0  0  0  0999 V2000
   57.0760   26.5670   46.2980 C   0  0  0  0  0  0  0  0  0  0  0  0
   58.2000   27.3260   46.3700 N   0  0  0  0  0  0  0  0  0  0  0  0
   58.2350   28.5980   45.8810 C   0  0  0  0  0  0  0  0  0  0  0  0
   59.3110   29.3270   45.9660 N   0  0  0  0  0  0  0  0  0  0  0  0
   59.8660   29.9310   47.1460 C   0  0  0  0  0  0  0  0  0  0  0  0
   59.6340   29.3950   48.2620 O   0  0  0  0  0  0  0  0  0  0  0  0
   60.6530   31.2150   47.1070 C   0  0  0  0  0  0  0  0  0  0  0  0
   60.7490   31.7850   48.4530 N   0  0  0  0  0  0  0  0  0  0  0  0
   60.2200   33.4430   48.4660 S   0  0  0  0  0  0  0  0  0  0  0  0
   61.4210   34.3480   48.4290 O   0  0  0  0  0  0  0  0  0  0  0  0
   59.4670   33.7090   49.7390 O   0  0  0  0  0  0  0  0  0  0  0  0
   59.1670   33.7850   47.0940 C   0  0  0  0  0  0  0  0  0  0  0  0
   59.6370   34.5370   46.0050 C   0  0  0  0  0  0  0  0  0  0  0  0
   58.8090   34.7680   44.9030 C   0  0  0  0  0  0  0  0  0  0  0  0
   57.5120   34.2480   44.8800 C   0  0  0  0  0  0  0  0  0  0  0  0
   57.0400   33.4980   45.9610 C   0  0  0  0  0  0  0  0  0  0  0  0
   57.8650   33.2650   47.0660 C   0  0  0  0  0  0  0  0  0  0  0  0
   57.0700   29.1350   45.3110 C   0  0  0  0  0  0  0  0  0  0  0  0
   57.0530   30.3130   44.8610 O   0  0  0  0  0  0  0  0  0  0  0  0
   55.9460   28.3730   45.2410 N   0  0  0  0  0  0  0  0  0  0  0  0
   55.9250   27.1020   45.7190 C   0  0  0  0  0  0  0  0  0  0  0  0
   54.7630   26.3450   45.6340 O   0  0  0  0  0  0  0  0  0  0  0  0
  1  2  1  0
  2  3  1  0
  3  4  2  0
  4  5  1  0
  5  6  2  0
  5  7  1  0
  7  8  1  0
  8  9  1  0
  9 10  2  0
  9 11  2  0
  9 12  1  0
 12 13  2  0
 13 14  1  0
 14 15  2  0
 15 16  1  0
 16 17  2  0
  3 18  1  0
 18 19  2  0
 18 20  1  0
 20 21  1  0
 21 22  1  0
 21  1  2  0
 17 12  1  0
M  CHG  4   2  -1   8  -1  20  -1  22  -1
M  END
>  <UniqueID>  (755) 
57

>  <SMILES>  (755) 
O=C(C[N-]S(=O)(=O)c1ccccc1)/N=c1\[n-]cc([O-])[n-]c1=O

>  <Energy>  (755) 
35.43861614009032

>  <Genealogy>  (755) 
O=C(C[N-]S(=O)(=O)c1ccccc1)N=c1[n-]cc([O-])[n-]c1=O (protonated)
O=C(C[N-]S(=O)(=O)c1ccccc1)/N=c1\[n-]cc([O-])[n-]c1=O (cis-trans isomerization)
O=C(C[N-]S(=O)(=O)c1ccccc1)/N=c1\[n-]cc([O-])[n-]c1=O (3D coordinates assigned)
O=C(C[N-]S(=O)(=O)c1ccccc1)/N=c1\[n-]cc([O-])[n-]c1=O (optimized conformer: 35.43861614009032 kcal/mol)

>  <smiles>  (755) 
O=C(CNS(=O)(=O)c1ccccc1)N=c1[nH]cc(O)[nH]c1=O

>  <score_type>  (755) 
oracle

>  <origin>  (755) 
adg

>  <m_score__min__energy>  (755) 
-15.57

>  <m_primary>  (755) 
energy

$$$$
32:0
     RDKit          3D

 29 31  0  0  0  0  0  0  0  0999 V2000
   54.9040   26.3390   45.9860 N   0  0  0  0  0  0  0  0  0  0  0  0
   56.3580   25.4580   46.2940 S   0  0  0  0  0  0  0  0  0  0  0  0
   56.2540   24.7640   47.6230 O   0  0  0  0  0  0  0  0  0  0  0  0
   56.5490   24.4220   45.2230 O   0  0  0  0  0  0  0  0  0  0  0  0
   57.7260   26.5680   46.3080 C   0  0  0  0  0  0  0  0  0  0  0  0
   58.1920   27.1270   45.1130 C   0  0  0  0  0  0  0  0  0  0  0  0
   59.2660   28.0190   45.1290 C   0  0  0  0  0  0  0  0  0  0  0  0
   59.8820   28.3570   46.3370 C   0  0  0  0  0  0  0  0  0  0  0  0
   59.4280   27.8010   47.5470 C   0  0  0  0  0  0  0  0  0  0  0  0
   60.0620   28.1550   48.8410 C   0  0  0  0  0  0  0  0  0  0  0  0
   61.0960   27.5340   49.2100 O   0  0  0  0  0  0  0  0  0  0  0  0
   59.5270   29.2010   49.6700 N   0  0  0  0  0  0  0  0  0  0  0  0
   60.0740   29.5100   50.9900 C   0  0  0  0  0  0  0  0  0  0  0  0
   59.1790   28.9310   52.0880 C   0  0  0  0  0  0  0  0  0  0  0  0
   57.8450   29.6270   52.1050 C   0  0  0  0  0  0  0  0  0  0  0  0
   57.6920   30.8800   51.4930 C   0  0  0  0  0  0  0  0  0  0  0  0
   56.4450   31.5120   51.4810 C   0  0  0  0  0  0  0  0  0  0  0  0
   55.3320   30.8940   52.0690 C   0  0  0  0  0  0  0  0  0  0  0  0
   53.9960   31.5890   52.0660 C   0  0  0  0  0  0  0  0  0  0  0  0
   52.9110   30.6090   51.8480 N   0  0  0  0  0  0  0  0  0  0  0  0
   51.9030   30.6270   52.9300 C   0  0  0  0  0  0  0  0  0  0  0  0
   51.1420   31.9600   52.9860 C   0  0  0  0  0  0  0  0  0  0  0  0
   50.6530   32.3350   51.6660 N   0  0  0  0  0  0  0  0  0  0  0  0
   51.2920   31.8870   50.4700 C   0  0  0  0  0  0  0  0  0  0  0  0
   50.9590   32.3840   49.3620 O   0  0  0  0  0  0  0  0  0  0  0  0
   52.2790   30.7520   50.5180 C   0  0  0  0  0  0  0  0  0  0  0  0
   55.4820   29.6360   52.6720 C   0  0  0  0  0  0  0  0  0  0  0  0
   56.7290   29.0040   52.6850 C   0  0  0  0  0  0  0  0  0  0  0  0
   58.3370   26.9130   47.5210 C   0  0  0  0  0  0  0  0  0  0  0  0
  1  2  1  0
  2  3  2  0
  2  4  2  0
  2  5  1  0
  5  6  2  0
  6  7  1  0
  7  8  2  0
  8  9  1  0
  9 10  1  0
 10 11  2  0
 10 12  1  0
 12 13  1  0
 13 14  1  0
 14 15  1  0
 15 16  2  0
 16 17  1  0
 17 18  2  0
 18 19  1  0
 19 20  1  0
 20 21  1  0
 21 22  1  0
 22 23  1  0
 23 24  1  0
 24 25  2  0
 24 26  1  0
 18 27  1  0
 27 28  2  0
  9 29  2  0
 29  5  1  0
 28 15  1  0
 26 20  1  0
M  CHG  2   1  -1  23  -1
M  END
>  <UniqueID>  (756) 
30

>  <SMILES>  (756) 
[NH-]S(=O)(=O)c1cccc(C(=O)NCCc2ccc(CN3CC[N-]C(=O)C3)cc2)c1

>  <Energy>  (756) 
54.195120513831235

>  <Genealogy>  (756) 
[NH-]S(=O)(=O)c1cccc(C(=O)NCCc2ccc(CN3CC[N-]C(=O)C3)cc2)c1 (protonated)
[NH-]S(=O)(=O)c1cccc(C(=O)NCCc2ccc(CN3CC[N-]C(=O)C3)cc2)c1 (3D coordinates assigned)
[NH-]S(=O)(=O)c1cccc(C(=O)NCCc2ccc(CN3CC[N-]C(=O)C3)cc2)c1 (nonaromatic ring conformer: 54.195120513831235 kcal/mol)

>  <smiles>  (756) 
NS(=O)(=O)c1cccc(C(=O)NCCc2ccc(CN3CCNC(=O)C3)cc2)c1

>  <score_type>  (756) 
oracle

>  <origin>  (756) 
adg

>  <m_score__min__energy>  (756) 
-14.720000000000001

>  <m_primary>  (756) 
energy

$$$$
51:0
     RDKit          3D

 20 21  0  0  0  0  0  0  0  0999 V2000
   57.4340   23.1240   47.4350 O   0  0  0  0  0  0  0  0  0  0  0  0
   57.1840   24.2870   47.0260 C   0  0  0  0  0  0  0  0  0  0  0  0
   55.9350   24.7180   46.7550 N   0  0  0  0  0  0  0  0  0  0  0  0
   55.9460   26.0090   46.3290 C   0  0  0  0  0  0  0  0  0  0  0  0
   54.7760   26.6750   45.9890 O   0  0  0  0  0  0  0  0  0  0  0  0
   57.2070   26.5960   46.2630 C   0  0  0  0  0  0  0  0  0  0  0  0
   57.5770   28.2300   45.7360 S   0  0  0  0  0  0  0  0  0  0  0  0
   58.2060   29.0060   46.8610 O   0  0  0  0  0  0  0  0  0  0  0  0
   58.5470   28.1580   44.5920 O   0  0  0  0  0  0  0  0  0  0  0  0
   56.1190   29.0170   45.1950 N   0  0  0  0  0  0  0  0  0  0  0  0
   56.2730   29.6150   43.8660 C   0  0  0  0  0  0  0  0  0  0  0  0
   56.3500   31.1440   43.9470 C   0  0  0  0  0  0  0  0  0  0  0  0
   57.7850   31.6410   43.7450 C   0  0  0  0  0  0  0  0  0  0  0  0
   58.1310   32.6780   44.7790 C   0  0  0  0  0  0  0  0  0  0  0  0
   58.8490   33.8290   44.4160 C   0  0  0  0  0  0  0  0  0  0  0  0
   59.2060   34.7710   45.3860 C   0  0  0  0  0  0  0  0  0  0  0  0
   58.8590   34.5660   46.7240 C   0  0  0  0  0  0  0  0  0  0  0  0
   58.1570   33.4160   47.0960 C   0  0  0  0  0  0  0  0  0  0  0  0
   57.7980   32.4700   46.1290 C   0  0  0  0  0  0  0  0  0  0  0  0
   58.3520   25.4670   46.7550 S   0  0  0  0  0  0  0  0  0  0  0  0
  1  2  2  0
  2  3  1  0
  3  4  1  0
  4  5  1  0
  4  6  2  0
  6  7  1  0
  7  8  2  0
  7  9  2  0
  7 10  1  0
 10 11  1  0
 11 12  1  0
 12 13  1  0
 13 14  1  0
 14 15  2  0
 15 16  1  0
 16 17  2  0
 17 18  1  0
 18 19  2  0
  6 20  1  0
 20  2  1  0
 19 14  1  0
M  CHG  3   3  -1   5  -1  10  -1
M  END
>  <UniqueID>  (757) 
48

>  <SMILES>  (757) 
O=c1[n-]c([O-])c(S(=O)(=O)[N-]CCCc2ccccc2)s1

>  <Energy>  (757) 
57.673215668029755

>  <Genealogy>  (757) 
O=c1[n-]c([O-])c(S(=O)(=O)[N-]CCCc2ccccc2)s1 (protonated)
O=c1[n-]c([O-])c(S(=O)(=O)[N-]CCCc2ccccc2)s1 (3D coordinates assigned)
O=c1[n-]c([O-])c(S(=O)(=O)[N-]CCCc2ccccc2)s1 (optimized conformer: 57.673215668029755 kcal/mol)

>  <smiles>  (757) 
O=c1[nH]c(O)c(S(=O)(=O)NCCCc2ccccc2)s1

>  <score_type>  (757) 
oracle

>  <origin>  (757) 
adg

>  <m_score__min__energy>  (757) 
-15.140000000000001

>  <m_primary>  (757) 
energy

$$$$
53:0
     RDKit          3D

 32 34  0  0  0  0  0  0  0  0999 V2000
   57.7560   31.7770   42.9960 C   0  0  0  0  0  0  0  0  0  0  0  0
   56.9550   30.2800   43.5350 S   0  0  0  0  0  0  0  0  0  0  0  0
   55.8910   30.6520   44.5300 O   0  0  0  0  0  0  0  0  0  0  0  0
   56.3170   29.5970   42.3590 O   0  0  0  0  0  0  0  0  0  0  0  0
   58.1250   29.1950   44.2820 C   0  0  0  0  0  0  0  0  0  0  0  0
   59.4470   29.6100   44.4980 C   0  0  0  0  0  0  0  0  0  0  0  0
   60.3730   28.7390   45.0800 C   0  0  0  0  0  0  0  0  0  0  0  0
   59.9910   27.4380   45.4380 C   0  0  0  0  0  0  0  0  0  0  0  0
   60.9680   26.5080   46.1010 C   0  0  0  0  0  0  0  0  0  0  0  0
   60.9110   26.6840   47.5440 N   0  0  0  0  0  0  0  0  0  0  0  0
   59.7280   27.1270   48.2070 C   0  0  0  0  0  0  0  0  0  0  0  0
   58.7040   26.3950   48.1900 O   0  0  0  0  0  0  0  0  0  0  0  0
   59.6910   28.3600   48.9380 N   0  0  0  0  0  0  0  0  0  0  0  0
   59.4440   29.6850   48.4400 C   0  0  0  0  0  0  0  0  0  0  0  0
   58.5150   29.9400   47.4190 C   0  0  0  0  0  0  0  0  0  0  0  0
   58.3430   31.2360   46.9340 C   0  0  0  0  0  0  0  0  0  0  0  0
   59.0520   32.3030   47.4920 C   0  0  0  0  0  0  0  0  0  0  0  0
   58.8120   33.9010   46.7930 Cl  0  0  0  0  0  0  0  0  0  0  0  0
   59.9260   32.0790   48.5780 C   0  0  0  0  0  0  0  0  0  0  0  0
   60.7620   33.4440   49.3530 S   0  0  0  0  0  0  0  0  0  0  0  0
   61.2570   33.0610   50.7200 O   0  0  0  0  0  0  0  0  0  0  0  0
   59.7790   34.5690   49.5240 O   0  0  0  0  0  0  0  0  0  0  0  0
   62.0950   33.9840   48.3530 N   0  0  0  0  0  0  0  0  0  0  0  0
   62.2730   33.1230   47.1700 C   0  0  0  0  0  0  0  0  0  0  0  0
   62.9220   31.7630   47.5190 C   0  0  0  0  0  0  0  0  0  0  0  0
   63.5660   31.7500   48.7810 O   0  0  0  0  0  0  0  0  0  0  0  0
   64.2990   32.9390   48.9650 C   0  0  0  0  0  0  0  0  0  0  0  0
   63.3450   34.1350   49.1310 C   0  0  0  0  0  0  0  0  0  0  0  0
   60.1310   30.7580   49.0290 C   0  0  0  0  0  0  0  0  0  0  0  0
   61.0280   30.4920   50.0580 O   0  0  0  0  0  0  0  0  0  0  0  0
   58.6610   27.0330   45.2430 C   0  0  0  0  0  0  0  0  0  0  0  0
   57.7340   27.9080   44.6720 C   0  0  0  0  0  0  0  0  0  0  0  0
  1  2  1  0
  2  3  2  0
  2  4  2  0
  2  5  1  0
  5  6  2  0
  6  7  1  0
  7  8  2  0
  8  9  1  0
  9 10  1  0
 10 11  1  0
 11 12  2  0
 11 13  1  0
 13 14  1  0
 14 15  2  0
 15 16  1  0
 16 17  2  0
 17 18  1  0
 17 19  1  0
 19 20  1  0
 20 21  2  0
 20 22  2  0
 20 23  1  0
 23 24  1  0
 24 25  1  0
 25 26  1  0
 26 27  1  0
 27 28  1  0
 19 29  2  0
 29 30  1  0
  8 31  1  0
 31 32  2  0
 32  5  1  0
 29 14  1  0
 28 23  1  0
M  CHG  3  10  -1  13  -1  30  -1
M  END
>  <UniqueID>  (758) 
50

>  <SMILES>  (758) 
CS(=O)(=O)c1ccc(C[N-]C(=O)[N-]c2ccc(Cl)c(S(=O)(=O)N3CCOCC3)c2[O-])cc1

>  <Energy>  (758) 
67.2760454326842

>  <Genealogy>  (758) 
CS(=O)(=O)c1ccc(C[N-]C(=O)[N-]c2ccc(Cl)c(S(=O)(=O)N3CCOCC3)c2[O-])cc1 (protonated)
CS(=O)(=O)c1ccc(C[N-]C(=O)[N-]c2ccc(Cl)c(S(=O)(=O)N3CCOCC3)c2[O-])cc1 (3D coordinates assigned)
CS(=O)(=O)c1ccc(C[N-]C(=O)[N-]c2ccc(Cl)c(S(=O)(=O)N3CCOCC3)c2[O-])cc1 (nonaromatic ring conformer: 67.2760454326842 kcal/mol)

>  <smiles>  (758) 
CS(=O)(=O)c1ccc(CNC(=O)Nc2ccc(Cl)c(S(=O)(=O)N3CCOCC3)c2O)cc1

>  <score_type>  (758) 
oracle

>  <origin>  (758) 
adg

>  <m_score__min__energy>  (758) 
-16.940000000000001

>  <m_primary>  (758) 
energy

$$$$
69:0
     RDKit          3D

 22 23  0  0  0  0  0  0  0  0999 V2000
   55.2080   29.4630   44.8830 O   0  0  0  0  0  0  0  0  0  0  0  0
   56.4620   29.3400   44.8750 C   0  0  0  0  0  0  0  0  0  0  0  0
   57.3200   30.5300   44.5860 C   0  0  0  0  0  0  0  0  0  0  0  0
   56.6650   31.7500   45.0630 N   0  0  0  0  0  0  0  0  0  0  0  0
   57.6980   33.1370   44.8800 S   0  0  0  0  0  0  0  0  0  0  0  0
   58.4580   33.0420   43.5870 O   0  0  0  0  0  0  0  0  0  0  0  0
   56.8470   34.3750   44.8360 O   0  0  0  0  0  0  0  0  0  0  0  0
   58.8230   33.2610   46.2300 C   0  0  0  0  0  0  0  0  0  0  0  0
   58.3560   33.1430   47.5470 C   0  0  0  0  0  0  0  0  0  0  0  0
   59.2440   33.2640   48.6200 C   0  0  0  0  0  0  0  0  0  0  0  0
   60.6030   33.4840   48.3840 C   0  0  0  0  0  0  0  0  0  0  0  0
   61.0790   33.5850   47.0720 C   0  0  0  0  0  0  0  0  0  0  0  0
   62.7890   33.8320   46.7750 Cl  0  0  0  0  0  0  0  0  0  0  0  0
   60.1890   33.4800   45.9970 C   0  0  0  0  0  0  0  0  0  0  0  0
   57.0700   28.0630   45.1010 N   0  0  0  0  0  0  0  0  0  0  0  0
   56.9680   27.3270   46.3560 C   0  0  0  0  0  0  0  0  0  0  0  0
   55.9770   26.2120   46.2400 C   0  0  0  0  0  0  0  0  0  0  0  0
   56.2060   24.9640   46.6930 N   0  0  0  0  0  0  0  0  0  0  0  0
   55.1400   24.2460   46.3850 N   0  0  0  0  0  0  0  0  0  0  0  0
   54.3010   25.0820   45.7510 C   0  0  0  0  0  0  0  0  0  0  0  0
   53.1740   24.7290   45.3150 O   0  0  0  0  0  0  0  0  0  0  0  0
   54.7800   26.3320   45.6290 N   0  0  0  0  0  0  0  0  0  0  0  0
  1  2  2  0
  2  3  1  0
  3  4  1  0
  4  5  1  0
  5  6  2  0
  5  7  2  0
  5  8  1  0
  8  9  2  0
  9 10  1  0
 10 11  2  0
 11 12  1  0
 12 13  1  0
 12 14  2  0
  2 15  1  0
 15 16  1  0
 16 17  1  0
 17 18  2  0
 18 19  1  0
 19 20  1  0
 20 21  2  0
 20 22  1  0
 14  8  1  0
 22 17  1  0
M  CHG  4   4  -1  15  -1  19  -1  22  -1
M  END
>  <UniqueID>  (759) 
65

>  <SMILES>  (759) 
O=C(C[N-]S(=O)(=O)c1cccc(Cl)c1)[N-]Cc1n[n-]c(=O)[n-]1

>  <Energy>  (759) 
55.04703416701429

>  <Genealogy>  (759) 
O=C(C[N-]S(=O)(=O)c1cccc(Cl)c1)[N-]Cc1n[n-]c(=O)[n-]1 (protonated)
O=C(C[N-]S(=O)(=O)c1cccc(Cl)c1)[N-]Cc1n[n-]c(=O)[n-]1 (3D coordinates assigned)
O=C(C[N-]S(=O)(=O)c1cccc(Cl)c1)[N-]Cc1n[n-]c(=O)[n-]1 (optimized conformer: 55.04703416701429 kcal/mol)

>  <smiles>  (759) 
O=C(CNS(=O)(=O)c1cccc(Cl)c1)NCc1n[nH]c(=O)[nH]1

>  <score_type>  (759) 
oracle

>  <origin>  (759) 
adg

>  <m_score__min__energy>  (759) 
-15.35

>  <m_primary>  (759) 
energy

$$$$
90:0
     RDKit          3D

 26 29  0  0  0  0  0  0  0  0999 V2000
   53.7660   29.0040   52.1850 O   0  0  0  0  0  0  0  0  0  0  0  0
   54.2680   30.1060   51.8320 C   0  0  0  0  0  0  0  0  0  0  0  0
   53.4560   31.0070   50.9410 C   0  0  0  0  0  0  0  0  0  0  0  0
   52.2660   31.5540   51.6670 C   0  0  0  0  0  0  0  0  0  0  0  0
   51.9150   31.1990   52.9160 N   0  0  0  0  0  0  0  0  0  0  0  0
   50.8000   31.9280   53.1440 C   0  0  0  0  0  0  0  0  0  0  0  0
   50.1640   31.8700   54.2280 O   0  0  0  0  0  0  0  0  0  0  0  0
   50.4240   32.7240   52.1200 N   0  0  0  0  0  0  0  0  0  0  0  0
   51.3620   32.4750   51.1940 C   0  0  0  0  0  0  0  0  0  0  0  0
   51.3940   33.0780   49.9440 O   0  0  0  0  0  0  0  0  0  0  0  0
   55.5870   30.4760   52.2930 N   0  0  0  0  0  0  0  0  0  0  0  0
   56.4800   29.4490   52.8510 C   0  0  0  0  0  0  0  0  0  0  0  0
   57.9210   29.6260   52.3410 C   0  0  0  0  0  0  0  0  0  0  0  0
   58.3830   31.1080   52.2680 C   0  0  0  0  0  0  0  0  0  0  0  0
   58.6910   31.5380   50.8880 N   0  0  0  0  0  0  0  0  0  0  0  0
   58.9520   32.7870   50.4010 C   0  0  0  0  0  0  0  0  0  0  0  0
   58.8910   33.8350   51.0970 O   0  0  0  0  0  0  0  0  0  0  0  0
   59.3020   32.8170   49.0890 N   0  0  0  0  0  0  0  0  0  0  0  0
   59.2700   31.5170   48.7590 C   0  0  0  0  0  0  0  0  0  0  0  0
   59.5770   30.9900   47.5480 N   0  0  0  0  0  0  0  0  0  0  0  0
   59.5320   29.6340   47.3850 C   0  0  0  0  0  0  0  0  0  0  0  0
   59.1810   28.7920   48.4660 C   0  0  0  0  0  0  0  0  0  0  0  0
   58.8730   29.3530   49.7170 C   0  0  0  0  0  0  0  0  0  0  0  0
   58.9190   30.7440   49.8240 C   0  0  0  0  0  0  0  0  0  0  0  0
   57.3890   32.0780   52.9270 C   0  0  0  0  0  0  0  0  0  0  0  0
   55.9690   31.8970   52.3800 C   0  0  0  0  0  0  0  0  0  0  0  0
  1  2  2  0
  2  3  1  0
  3  4  1  0
  4  5  1  0
  5  6  1  0
  6  7  2  0
  6  8  1  0
  8  9  1  0
  9 10  1  0
  2 11  1  0
 11 12  1  0
 12 13  1  0
 13 14  1  0
 14 15  1  0
 15 16  1  0
 16 17  2  0
 16 18  1  0
 18 19  1  0
 19 20  2  0
 20 21  1  0
 21 22  2  0
 22 23  1  0
 23 24  2  0
 14 25  1  0
 25 26  1  0
  9  4  2  0
 26 11  1  0
 24 15  1  0
 24 19  1  0
M  CHG  4   5  -1   8  -1  10  -1  18  -1
M  END
>  <UniqueID>  (760) 
84

>  <SMILES>  (760) 
O=C(Cc1[n-]c(=O)[n-]c1[O-])N1CCC(n2c(=O)[n-]c3ncccc32)CC1

>  <Energy>  (760) 
116.99137340234125

>  <Genealogy>  (760) 
O=C(Cc1[n-]c(=O)[n-]c1[O-])N1CCC(n2c(=O)[n-]c3ncccc32)CC1 (protonated)
O=C(Cc1[n-]c(=O)[n-]c1[O-])N1CCC(n2c(=O)[n-]c3ncccc32)CC1 (3D coordinates assigned)
O=C(Cc1[n-]c(=O)[n-]c1[O-])N1CCC(n2c(=O)[n-]c3ncccc32)CC1 (nonaromatic ring conformer: 116.99137340234125 kcal/mol)

>  <smiles>  (760) 
O=C(Cc1[nH]c(=O)[nH]c1O)N1CCC(n2c(=O)[nH]c3ncccc32)CC1

>  <score_type>  (760) 
oracle

>  <origin>  (760) 
adg

>  <m_score__min__energy>  (760) 
-16.789999999999999

>  <m_primary>  (760) 
energy

$$$$
7:0
     RDKit          3D

 23 25  0  0  0  0  0  0  0  0999 V2000
   59.9570   33.8820   49.4250 C   0  0  0  0  0  0  0  0  0  0  0  0
   59.7290   33.6470   50.8110 O   0  0  0  0  0  0  0  0  0  0  0  0
   59.3590   32.4080   51.3600 C   0  0  0  0  0  0  0  0  0  0  0  0
   58.0140   32.0790   51.6210 C   0  0  0  0  0  0  0  0  0  0  0  0
   57.6690   30.8300   52.1740 C   0  0  0  0  0  0  0  0  0  0  0  0
   56.2530   30.4780   52.4520 C   0  0  0  0  0  0  0  0  0  0  0  0
   55.7840   29.5970   53.4300 C   0  0  0  0  0  0  0  0  0  0  0  0
   54.3890   29.4730   53.4540 C   0  0  0  0  0  0  0  0  0  0  0  0
   53.7440   30.2370   52.4870 C   0  0  0  0  0  0  0  0  0  0  0  0
   52.2820   30.3570   52.3280 C   0  0  0  0  0  0  0  0  0  0  0  0
   51.5370   30.0970   53.3100 O   0  0  0  0  0  0  0  0  0  0  0  0
   51.6600   30.8030   51.0690 C   0  0  0  0  0  0  0  0  0  0  0  0
   51.6290   30.0520   49.9520 N   0  0  0  0  0  0  0  0  0  0  0  0
   51.0220   30.8530   49.0500 C   0  0  0  0  0  0  0  0  0  0  0  0
   50.7990   30.4910   47.8650 O   0  0  0  0  0  0  0  0  0  0  0  0
   50.6820   32.0730   49.5140 N   0  0  0  0  0  0  0  0  0  0  0  0
   51.0990   32.0310   50.7900 C   0  0  0  0  0  0  0  0  0  0  0  0
   51.0110   33.1100   51.6600 O   0  0  0  0  0  0  0  0  0  0  0  0
   54.9140   31.0910   51.6300 S   0  0  0  0  0  0  0  0  0  0  0  0
   58.6940   29.9100   52.4560 C   0  0  0  0  0  0  0  0  0  0  0  0
   60.0270   30.2320   52.1990 C   0  0  0  0  0  0  0  0  0  0  0  0
   60.3650   31.4730   51.6560 C   0  0  0  0  0  0  0  0  0  0  0  0
   61.7090   31.7580   51.4150 O   0  0  0  0  0  0  0  0  0  0  0  0
  1  2  1  0
  2  3  1  0
  3  4  2  0
  4  5  1  0
  5  6  1  0
  6  7  2  0
  7  8  1  0
  8  9  2  0
  9 10  1  0
 10 11  2  0
 10 12  1  0
 12 13  1  0
 13 14  1  0
 14 15  2  0
 14 16  1  0
 16 17  1  0
 17 18  1  0
  9 19  1  0
  5 20  2  0
 20 21  1  0
 21 22  2  0
 22 23  1  0
 22  3  1  0
 19  6  1  0
 17 12  2  0
M  CHG  3  13  -1  16  -1  18  -1
M  END
>  <UniqueID>  (761) 
7

>  <SMILES>  (761) 
COc1cc(-c2ccc(C(=O)c3[n-]c(=O)[n-]c3[O-])s2)ccc1O

>  <Energy>  (761) 
96.23172115525865

>  <Genealogy>  (761) 
COc1cc(-c2ccc(C(=O)c3[n-]c(=O)[n-]c3[O-])s2)ccc1O (protonated)
COc1cc(-c2ccc(C(=O)c3[n-]c(=O)[n-]c3[O-])s2)ccc1O (3D coordinates assigned)
COc1cc(-c2ccc(C(=O)c3[n-]c(=O)[n-]c3[O-])s2)ccc1O (optimized conformer: 96.23172115525865 kcal/mol)

>  <smiles>  (761) 
COc1cc(-c2ccc(C(=O)c3[nH]c(=O)[nH]c3O)s2)ccc1O

>  <score_type>  (761) 
oracle

>  <origin>  (761) 
adg

>  <m_score__min__energy>  (761) 
-14.74

>  <m_primary>  (761) 
energy

$$$$
49:0
     RDKit          3D

 30 32  0  0  0  0  0  0  0  0999 V2000
   55.4730   29.0030   44.8720 N   0  0  0  0  0  0  0  0  0  0  0  0
   56.6250   29.8160   45.0900 C   0  0  0  0  0  0  0  0  0  0  0  0
   57.2810   29.6820   46.1590 O   0  0  0  0  0  0  0  0  0  0  0  0
   57.0550   30.7800   44.0540 C   0  0  0  0  0  0  0  0  0  0  0  0
   56.6960   30.6400   42.6990 C   0  0  0  0  0  0  0  0  0  0  0  0
   57.2270   31.6190   41.8680 C   0  0  0  0  0  0  0  0  0  0  0  0
   58.1440   32.6710   42.8030 S   0  0  0  0  0  0  0  0  0  0  0  0
   57.8860   31.8860   44.2730 C   0  0  0  0  0  0  0  0  0  0  0  0
   58.3310   32.3680   45.5510 N   0  0  0  0  0  0  0  0  0  0  0  0
   58.4150   33.7640   45.8830 C   0  0  0  0  0  0  0  0  0  0  0  0
   58.1490   34.6460   45.0220 O   0  0  0  0  0  0  0  0  0  0  0  0
   58.8450   34.1880   47.2560 C   0  0  0  0  0  0  0  0  0  0  0  0
   59.1100   33.0330   48.1160 N   0  0  0  0  0  0  0  0  0  0  0  0
   60.5670   32.2020   47.6480 S   0  0  0  0  0  0  0  0  0  0  0  0
   61.5970   32.3300   48.7350 O   0  0  0  0  0  0  0  0  0  0  0  0
   61.1150   32.8420   46.4050 O   0  0  0  0  0  0  0  0  0  0  0  0
   60.2530   30.4980   47.3180 C   0  0  0  0  0  0  0  0  0  0  0  0
   60.4350   29.9910   46.0260 C   0  0  0  0  0  0  0  0  0  0  0  0
   60.1910   28.6410   45.7590 C   0  0  0  0  0  0  0  0  0  0  0  0
   59.7590   27.7800   46.7810 C   0  0  0  0  0  0  0  0  0  0  0  0
   59.5020   26.3490   46.5030 C   0  0  0  0  0  0  0  0  0  0  0  0
   60.4740   25.5630   46.3340 O   0  0  0  0  0  0  0  0  0  0  0  0
   58.1600   25.8370   46.4330 N   0  0  0  0  0  0  0  0  0  0  0  0
   57.2120   26.4270   45.4850 C   0  0  0  0  0  0  0  0  0  0  0  0
   55.7810   26.1760   45.9710 C   0  0  0  0  0  0  0  0  0  0  0  0
   55.5710   24.7970   46.2140 O   0  0  0  0  0  0  0  0  0  0  0  0
   56.3940   24.3670   47.2830 C   0  0  0  0  0  0  0  0  0  0  0  0
   57.8790   24.4830   46.9150 C   0  0  0  0  0  0  0  0  0  0  0  0
   59.5520   28.3010   48.0710 C   0  0  0  0  0  0  0  0  0  0  0  0
   59.8020   29.6500   48.3370 C   0  0  0  0  0  0  0  0  0  0  0  0
  1  2  1  0
  2  3  2  0
  2  4  1  0
  4  5  1  0
  5  6  2  0
  6  7  1  0
  7  8  1  0
  8  9  1  0
  9 10  1  0
 10 11  2  0
 10 12  1  0
 12 13  1  0
 13 14  1  0
 14 15  2  0
 14 16  2  0
 14 17  1  0
 17 18  2  0
 18 19  1  0
 19 20  2  0
 20 21  1  0
 21 22  2  0
 21 23  1  0
 23 24  1  0
 24 25  1  0
 25 26  1  0
 26 27  1  0
 27 28  1  0
 20 29  1  0
 29 30  2  0
  8  4  2  0
 30 17  1  0
 28 23  1  0
M  CHG  2   1  -1  13  -1
M  END
>  <UniqueID>  (762) 
45

>  <SMILES>  (762) 
[NH-]C(=O)c1ccsc1NC(=O)C[N-]S(=O)(=O)c1ccc(C(=O)N2CCOCC2)cc1

>  <Energy>  (762) 
82.41695564575718

>  <Genealogy>  (762) 
[NH-]C(=O)c1ccsc1NC(=O)C[N-]S(=O)(=O)c1ccc(C(=O)N2CCOCC2)cc1 (protonated)
[NH-]C(=O)c1ccsc1NC(=O)C[N-]S(=O)(=O)c1ccc(C(=O)N2CCOCC2)cc1 (3D coordinates assigned)
[NH-]C(=O)c1ccsc1NC(=O)C[N-]S(=O)(=O)c1ccc(C(=O)N2CCOCC2)cc1 (nonaromatic ring conformer: 82.41695564575718 kcal/mol)

>  <smiles>  (762) 
NC(=O)c1ccsc1NC(=O)CNS(=O)(=O)c1ccc(C(=O)N2CCOCC2)cc1

>  <score_type>  (762) 
oracle

>  <origin>  (762) 
adg

>  <m_score__min__energy>  (762) 
-14.390000000000001

>  <m_primary>  (762) 
energy

$$$$
68:0
     RDKit          3D

 23 25  0  0  0  0  0  0  0  0999 V2000
   58.8590   34.9420   46.3920 C   0  0  0  0  0  0  0  0  0  0  0  0
   60.0850   34.6160   46.8760 N   0  0  0  0  0  0  0  0  0  0  0  0
   60.5990   33.3620   46.7520 C   0  0  0  0  0  0  0  0  0  0  0  0
   61.7760   33.0560   47.2200 N   0  0  0  0  0  0  0  0  0  0  0  0
   62.4620   33.5940   48.3640 C   0  0  0  0  0  0  0  0  0  0  0  0
   64.0070   33.1150   48.6270 S   0  0  0  0  0  0  0  0  0  0  0  0
   61.8400   34.5220   49.2670 N   0  0  0  0  0  0  0  0  0  0  0  0
   59.8470   32.3710   46.1070 C   0  0  0  0  0  0  0  0  0  0  0  0
   58.5710   32.6720   45.5970 C   0  0  0  0  0  0  0  0  0  0  0  0
   57.7810   31.6160   44.9130 C   0  0  0  0  0  0  0  0  0  0  0  0
   57.2000   30.6020   45.6130 N   0  0  0  0  0  0  0  0  0  0  0  0
   56.5140   29.7600   44.8100 C   0  0  0  0  0  0  0  0  0  0  0  0
   55.8970   28.6950   45.2260 N   0  0  0  0  0  0  0  0  0  0  0  0
   56.5390   27.4810   45.6490 C   0  0  0  0  0  0  0  0  0  0  0  0
   57.9380   27.4140   45.6160 C   0  0  0  0  0  0  0  0  0  0  0  0
   58.5990   26.2470   46.0090 C   0  0  0  0  0  0  0  0  0  0  0  0
   57.8660   25.1310   46.4200 C   0  0  0  0  0  0  0  0  0  0  0  0
   56.4690   25.1760   46.4230 C   0  0  0  0  0  0  0  0  0  0  0  0
   55.8000   26.3380   46.0250 C   0  0  0  0  0  0  0  0  0  0  0  0
   54.4110   26.3370   45.9760 O   0  0  0  0  0  0  0  0  0  0  0  0
   56.6050   30.2130   43.2000 S   0  0  0  0  0  0  0  0  0  0  0  0
   57.5520   31.5640   43.5320 C   0  0  0  0  0  0  0  0  0  0  0  0
   58.0810   33.9820   45.7440 C   0  0  0  0  0  0  0  0  0  0  0  0
  1  2  1  0
  2  3  1  0
  3  4  2  0
  4  5  1  0
  5  6  2  0
  5  7  1  0
  3  8  1  0
  8  9  2  0
  9 10  1  0
 10 11  1  0
 11 12  1  0
 12 13  2  3
 13 14  1  0
 14 15  2  0
 15 16  1  0
 16 17  2  0
 17 18  1  0
 18 19  2  0
 19 20  1  0
 12 21  1  0
 21 22  1  0
  9 23  1  0
 23  1  2  0
 22 10  2  0
 19 14  1  0
M  CHG  4   2  -1   7   1  11  -1  20  -1
M  END
>  <UniqueID>  (763) 
62

>  <SMILES>  (763) 
[NH3+]C(=S)/N=c1/cc(-c2csc(=Nc3ccccc3[O-])[n-]2)cc[n-]1

>  <Energy>  (763) 
80.78979390493666

>  <Genealogy>  (763) 
[NH3+]C(=S)N=c1cc(-c2csc(=Nc3ccccc3[O-])[n-]2)cc[n-]1 (protonated)
[NH3+]C(=S)/N=c1/cc(-c2csc(=Nc3ccccc3[O-])[n-]2)cc[n-]1 (cis-trans isomerization)
[NH3+]C(=S)/N=c1/cc(-c2csc(=Nc3ccccc3[O-])[n-]2)cc[n-]1 (3D coordinates assigned)
[NH3+]C(=S)/N=c1/cc(-c2csc(=Nc3ccccc3[O-])[n-]2)cc[n-]1 (optimized conformer: 80.78979390493666 kcal/mol)

>  <smiles>  (763) 
NC(=S)N=c1cc(-c2csc(=Nc3ccccc3O)[nH]2)cc[nH]1

>  <score_type>  (763) 
oracle

>  <origin>  (763) 
adg

>  <m_score__min__energy>  (763) 
-14.32

>  <m_primary>  (763) 
energy

$$$$
4:0
     RDKit          3D

 28 30  0  0  0  0  0  0  0  0999 V2000
   50.3640   32.7360   52.0850 N   0  0  0  0  0  0  0  0  0  0  0  0
   51.3830   32.2630   51.2060 C   0  0  0  0  0  0  0  0  0  0  0  0
   51.4370   32.7130   50.0300 O   0  0  0  0  0  0  0  0  0  0  0  0
   52.3670   31.2540   51.6670 C   0  0  0  0  0  0  0  0  0  0  0  0
   51.9590   29.9430   51.9730 C   0  0  0  0  0  0  0  0  0  0  0  0
   52.8910   28.9930   52.3990 C   0  0  0  0  0  0  0  0  0  0  0  0
   54.2360   29.3380   52.5290 C   0  0  0  0  0  0  0  0  0  0  0  0
   54.6610   30.6440   52.2460 C   0  0  0  0  0  0  0  0  0  0  0  0
   56.1160   31.0050   52.3480 C   0  0  0  0  0  0  0  0  0  0  0  0
   56.9090   30.0080   51.6330 N   0  0  0  0  0  0  0  0  0  0  0  0
   58.0230   30.2240   50.9940 C   0  0  0  0  0  0  0  0  0  0  0  0
   58.1500   29.7380   49.7300 N   0  0  0  0  0  0  0  0  0  0  0  0
   59.2760   29.9090   48.9790 C   0  0  0  0  0  0  0  0  0  0  0  0
   59.3230   29.3460   47.6050 C   0  0  0  0  0  0  0  0  0  0  0  0
   60.4900   29.4220   46.8240 C   0  0  0  0  0  0  0  0  0  0  0  0
   60.5170   28.8800   45.5380 C   0  0  0  0  0  0  0  0  0  0  0  0
   59.3860   28.2470   45.0200 C   0  0  0  0  0  0  0  0  0  0  0  0
   58.2150   28.1390   45.7840 C   0  0  0  0  0  0  0  0  0  0  0  0
   57.0710   27.4740   45.2180 N   0  0  0  0  0  0  0  0  0  0  0  0
   56.3610   26.0230   45.8570 S   0  0  0  0  0  0  0  0  0  0  0  0
   54.8780   26.2250   45.9840 O   0  0  0  0  0  0  0  0  0  0  0  0
   56.9270   25.7280   47.2160 O   0  0  0  0  0  0  0  0  0  0  0  0
   56.6510   24.6570   44.7510 C   0  0  0  0  0  0  0  0  0  0  0  0
   58.1910   28.6990   47.0760 C   0  0  0  0  0  0  0  0  0  0  0  0
   60.3520   30.6310   49.5220 C   0  0  0  0  0  0  0  0  0  0  0  0
   60.2540   31.1440   50.8160 C   0  0  0  0  0  0  0  0  0  0  0  0
   59.0920   30.9430   51.5610 C   0  0  0  0  0  0  0  0  0  0  0  0
   53.7260   31.5940   51.8030 C   0  0  0  0  0  0  0  0  0  0  0  0
  1  2  1  0
  2  3  2  0
  2  4  1  0
  4  5  2  0
  5  6  1  0
  6  7  2  0
  7  8  1  0
  8  9  1  0
  9 10  1  0
 10 11  2  0
 11 12  1  0
 12 13  1  0
 13 14  1  0
 14 15  2  0
 15 16  1  0
 16 17  2  0
 17 18  1  0
 18 19  1  0
 19 20  1  0
 20 21  2  0
 20 22  2  0
 20 23  1  0
 18 24  2  0
 13 25  2  0
 25 26  1  0
 26 27  2  0
  8 28  2  0
 28  4  1  0
 27 11  1  0
 24 14  1  0
M  CHG  2   1  -1  12  -1
M  END
>  <UniqueID>  (764) 
5

>  <SMILES>  (764) 
CS(=O)(=O)Nc1cccc(-c2ccc/c(=N\Cc3cccc(C([NH-])=O)c3)[n-]2)c1

>  <Energy>  (764) 
52.50923607300798

>  <Genealogy>  (764) 
CS(=O)(=O)Nc1cccc(-c2cccc(=NCc3cccc(C([NH-])=O)c3)[n-]2)c1 (protonated)
CS(=O)(=O)Nc1cccc(-c2ccc/c(=N\Cc3cccc(C([NH-])=O)c3)[n-]2)c1 (cis-trans isomerization)
CS(=O)(=O)Nc1cccc(-c2ccc/c(=N\Cc3cccc(C([NH-])=O)c3)[n-]2)c1 (3D coordinates assigned)
CS(=O)(=O)Nc1cccc(-c2ccc/c(=N\Cc3cccc(C([NH-])=O)c3)[n-]2)c1 (optimized conformer: 52.50923607300798 kcal/mol)

>  <smiles>  (764) 
CS(=O)(=O)Nc1cccc(-c2cccc(=NCc3cccc(C(N)=O)c3)[nH]2)c1

>  <score_type>  (764) 
oracle

>  <origin>  (764) 
adg

>  <m_score__min__energy>  (764) 
-15

>  <m_primary>  (764) 
energy

$$$$
70:0
     RDKit          3D

 32 35  0  0  0  0  0  0  0  0999 V2000
   56.2530   29.1100   44.7560 C   0  0  0  0  0  0  0  0  0  0  0  0
   57.5300   28.7010   44.8280 C   0  0  0  0  0  0  0  0  0  0  0  0
   58.0110   27.3800   44.7930 C   0  0  0  0  0  0  0  0  0  0  0  0
   57.3790   26.2080   44.5820 C   0  0  0  0  0  0  0  0  0  0  0  0
   56.9340   25.2700   45.6280 C   0  0  0  0  0  0  0  0  0  0  0  0
   55.6410   25.3510   46.1750 C   0  0  0  0  0  0  0  0  0  0  0  0
   54.7610   26.3470   45.7690 O   0  0  0  0  0  0  0  0  0  0  0  0
   55.2430   24.4470   47.1080 N   0  0  0  0  0  0  0  0  0  0  0  0
   56.0690   23.4500   47.5130 C   0  0  0  0  0  0  0  0  0  0  0  0
   55.5630   22.3810   48.6370 S   0  0  0  0  0  0  0  0  0  0  0  0
   57.3120   23.3340   46.9790 N   0  0  0  0  0  0  0  0  0  0  0  0
   57.7580   24.2130   46.0440 C   0  0  0  0  0  0  0  0  0  0  0  0
   58.9140   24.0730   45.5640 O   0  0  0  0  0  0  0  0  0  0  0  0
   59.3780   27.4600   45.0080 C   0  0  0  0  0  0  0  0  0  0  0  0
   59.6890   28.7970   45.1290 C   0  0  0  0  0  0  0  0  0  0  0  0
   61.0710   29.3370   45.3400 C   0  0  0  0  0  0  0  0  0  0  0  0
   58.5750   29.5510   45.0110 N   0  0  0  0  0  0  0  0  0  0  0  0
   58.5250   30.9850   45.1220 C   0  0  0  0  0  0  0  0  0  0  0  0
   58.0840   31.7600   44.0420 C   0  0  0  0  0  0  0  0  0  0  0  0
   58.0190   33.1500   44.1580 C   0  0  0  0  0  0  0  0  0  0  0  0
   58.3880   33.7740   45.3530 C   0  0  0  0  0  0  0  0  0  0  0  0
   58.8290   33.0100   46.4500 C   0  0  0  0  0  0  0  0  0  0  0  0
   59.2160   33.6670   47.7220 C   0  0  0  0  0  0  0  0  0  0  0  0
   58.5190   33.4820   48.7560 O   0  0  0  0  0  0  0  0  0  0  0  0
   60.4300   34.4370   47.7880 N   0  0  0  0  0  0  0  0  0  0  0  0
   61.6580   34.0270   47.9460 C   0  0  0  0  0  0  0  0  0  0  0  0
   62.1880   34.0610   49.2000 N   0  0  0  0  0  0  0  0  0  0  0  0
   63.4550   33.6480   49.4690 C   0  0  0  0  0  0  0  0  0  0  0  0
   64.2620   33.1610   48.4420 C   0  0  0  0  0  0  0  0  0  0  0  0
   63.7500   33.0930   47.1480 C   0  0  0  0  0  0  0  0  0  0  0  0
   62.4450   33.5200   46.8890 C   0  0  0  0  0  0  0  0  0  0  0  0
   58.8910   31.6090   46.3230 C   0  0  0  0  0  0  0  0  0  0  0  0
  1  2  2  0
  2  3  1  0
  3  4  2  0
  4  5  1  0
  5  6  2  0
  6  7  1  0
  6  8  1  0
  8  9  1  0
  9 10  2  0
  9 11  1  0
 11 12  1  0
 12 13  2  0
  3 14  1  0
 14 15  2  0
 15 16  1  0
 15 17  1  0
 17 18  1  0
 18 19  2  0
 19 20  1  0
 20 21  2  0
 21 22  1  0
 22 23  1  0
 23 24  2  0
 23 25  1  0
 25 26  2  3
 26 27  1  0
 27 28  1  0
 28 29  2  0
 29 30  1  0
 30 31  2  0
 22 32  2  0
 17  2  1  0
 32 18  1  0
 12  5  1  0
 31 26  1  0
M  CHG  4   7  -1   8  -1  11  -1  27  -1
M  END
>  <UniqueID>  (765) 
69

>  <SMILES>  (765) 
C=c1/c(=C\c2c([O-])[n-]c(=S)[n-]c2=O)cc(C)n1-c1cccc(C(=O)N=c2cccc[n-]2)c1

>  <Energy>  (765) 
110.09641133845506

>  <Genealogy>  (765) 
C=c1c(=Cc2c([O-])[n-]c(=S)[n-]c2=O)cc(C)n1-c1cccc(C(=O)N=c2cccc[n-]2)c1 (protonated)
C=c1/c(=C\c2c([O-])[n-]c(=S)[n-]c2=O)cc(C)n1-c1cccc(C(=O)N=c2cccc[n-]2)c1 (cis-trans isomerization)
C=c1/c(=C\c2c([O-])[n-]c(=S)[n-]c2=O)cc(C)n1-c1cccc(C(=O)N=c2cccc[n-]2)c1 (3D coordinates assigned)
C=c1/c(=C\c2c([O-])[n-]c(=S)[n-]c2=O)cc(C)n1-c1cccc(C(=O)N=c2cccc[n-]2)c1 (optimized conformer: 110.09641133845506 kcal/mol)

>  <smiles>  (765) 
C=c1c(=Cc2c(O)[nH]c(=S)[nH]c2=O)cc(C)n1-c1cccc(C(=O)N=c2cccc[nH]2)c1

>  <score_type>  (765) 
oracle

>  <origin>  (765) 
adg

>  <m_score__min__energy>  (765) 
-17.760000000000002

>  <m_primary>  (765) 
energy

$$$$
84:0
     RDKit          3D

 29 31  0  0  0  0  0  0  0  0999 V2000
   59.6650   33.9990   48.1470 C   0  0  0  0  0  0  0  0  0  0  0  0
   61.0710   33.9220   48.5200 N   0  0  0  0  0  0  0  0  0  0  0  0
   61.9110   32.7790   48.3150 C   0  0  0  0  0  0  0  0  0  0  0  0
   63.1580   32.9180   48.4140 O   0  0  0  0  0  0  0  0  0  0  0  0
   61.3610   31.4390   48.0300 C   0  0  0  0  0  0  0  0  0  0  0  0
   60.9810   31.0770   46.7280 C   0  0  0  0  0  0  0  0  0  0  0  0
   60.4720   29.8010   46.4690 C   0  0  0  0  0  0  0  0  0  0  0  0
   60.3550   28.8650   47.5050 C   0  0  0  0  0  0  0  0  0  0  0  0
   59.6880   27.2670   47.1970 S   0  0  0  0  0  0  0  0  0  0  0  0
   59.6380   26.4940   48.4860 O   0  0  0  0  0  0  0  0  0  0  0  0
   60.5500   26.5120   46.2240 O   0  0  0  0  0  0  0  0  0  0  0  0
   58.0930   27.4330   46.5460 N   0  0  0  0  0  0  0  0  0  0  0  0
   57.6540   28.4370   45.7590 C   0  0  0  0  0  0  0  0  0  0  0  0
   56.3330   28.2040   45.4200 C   0  0  0  0  0  0  0  0  0  0  0  0
   55.5550   29.0190   44.5350 N   0  0  0  0  0  0  0  0  0  0  0  0
   56.0830   29.9290   43.5630 C   0  0  0  0  0  0  0  0  0  0  0  0
   55.9400   29.6560   42.3420 O   0  0  0  0  0  0  0  0  0  0  0  0
   56.8510   31.1300   43.9610 C   0  0  0  0  0  0  0  0  0  0  0  0
   57.7450   31.7440   43.0670 C   0  0  0  0  0  0  0  0  0  0  0  0
   58.4630   32.8690   43.4770 C   0  0  0  0  0  0  0  0  0  0  0  0
   58.2920   33.3700   44.7680 C   0  0  0  0  0  0  0  0  0  0  0  0
   57.4040   32.7320   45.6350 C   0  0  0  0  0  0  0  0  0  0  0  0
   56.7140   31.6370   45.2180 N   0  0  0  0  0  0  0  0  0  0  0  0
   55.9770   26.9970   45.9920 C   0  0  0  0  0  0  0  0  0  0  0  0
   54.7660   26.3280   45.8590 O   0  0  0  0  0  0  0  0  0  0  0  0
   57.0810   26.5540   46.6850 C   0  0  0  0  0  0  0  0  0  0  0  0
   57.1700   25.3700   47.4110 O   0  0  0  0  0  0  0  0  0  0  0  0
   60.7480   29.2170   48.8030 C   0  0  0  0  0  0  0  0  0  0  0  0
   61.2580   30.4930   49.0620 C   0  0  0  0  0  0  0  0  0  0  0  0
  1  2  1  0
  2  3  1  0
  3  4  2  0
  3  5  1  0
  5  6  2  0
  6  7  1  0
  7  8  2  0
  8  9  1  0
  9 10  2  0
  9 11  2  0
  9 12  1  0
 12 13  1  0
 13 14  2  0
 14 15  1  0
 15 16  1  0
 16 17  2  0
 16 18  1  0
 18 19  2  0
 19 20  1  0
 20 21  2  0
 21 22  1  0
 22 23  2  0
 14 24  1  0
 24 25  1  0
 24 26  2  0
 26 27  1  0
  8 28  1  0
 28 29  2  0
 29  5  1  0
 26 12  1  0
 23 18  1  0
M  CHG  3   2  -1  15  -1  25  -1
M  END
>  <UniqueID>  (766) 
83

>  <SMILES>  (766) 
C[N-]C(=O)c1ccc(S(=O)(=O)n2cc([N-]C(=O)c3ccccn3)c([O-])c2O)cc1

>  <Energy>  (766) 
85.73321818967113

>  <Genealogy>  (766) 
C[N-]C(=O)c1ccc(S(=O)(=O)n2cc([N-]C(=O)c3ccccn3)c([O-])c2O)cc1 (protonated)
C[N-]C(=O)c1ccc(S(=O)(=O)n2cc([N-]C(=O)c3ccccn3)c([O-])c2O)cc1 (3D coordinates assigned)
C[N-]C(=O)c1ccc(S(=O)(=O)n2cc([N-]C(=O)c3ccccn3)c([O-])c2O)cc1 (optimized conformer: 85.73321818967113 kcal/mol)

>  <smiles>  (766) 
CNC(=O)c1ccc(S(=O)(=O)n2cc(NC(=O)c3ccccn3)c(O)c2O)cc1

>  <score_type>  (766) 
oracle

>  <origin>  (766) 
adg

>  <m_score__min__energy>  (766) 
-14.470000000000001

>  <m_primary>  (766) 
energy

$$$$
93:0
     RDKit          3D

 27 29  0  0  0  0  0  0  0  0999 V2000
   57.4530   24.7690   47.4070 O   0  0  0  0  0  0  0  0  0  0  0  0
   57.7040   25.2060   46.2510 C   0  0  0  0  0  0  0  0  0  0  0  0
   57.0970   24.5400   45.0590 C   0  0  0  0  0  0  0  0  0  0  0  0
   55.6190   24.4110   45.2460 C   0  0  0  0  0  0  0  0  0  0  0  0
   54.9180   23.2950   44.9740 N   0  0  0  0  0  0  0  0  0  0  0  0
   53.6420   23.6640   45.2230 C   0  0  0  0  0  0  0  0  0  0  0  0
   52.6710   22.8730   45.0880 O   0  0  0  0  0  0  0  0  0  0  0  0
   53.4880   24.9440   45.6230 N   0  0  0  0  0  0  0  0  0  0  0  0
   54.7490   25.4040   45.6260 C   0  0  0  0  0  0  0  0  0  0  0  0
   55.0970   26.7060   45.9620 O   0  0  0  0  0  0  0  0  0  0  0  0
   58.5740   26.3300   46.0630 N   0  0  0  0  0  0  0  0  0  0  0  0
   58.1750   27.6740   45.7590 C   0  0  0  0  0  0  0  0  0  0  0  0
   58.3040   28.7190   46.6900 C   0  0  0  0  0  0  0  0  0  0  0  0
   57.8810   30.0090   46.3610 C   0  0  0  0  0  0  0  0  0  0  0  0
   57.3270   30.2780   45.1060 C   0  0  0  0  0  0  0  0  0  0  0  0
   56.9280   31.5870   44.8160 O   0  0  0  0  0  0  0  0  0  0  0  0
   57.8140   32.6040   44.4360 C   0  0  0  0  0  0  0  0  0  0  0  0
   58.1450   32.7300   43.2240 O   0  0  0  0  0  0  0  0  0  0  0  0
   58.3680   33.4830   45.4330 N   0  0  0  0  0  0  0  0  0  0  0  0
   57.8440   33.4410   46.8020 C   0  0  0  0  0  0  0  0  0  0  0  0
   58.8760   33.9980   47.7870 C   0  0  0  0  0  0  0  0  0  0  0  0
   59.3490   35.2600   47.3600 O   0  0  0  0  0  0  0  0  0  0  0  0
   60.0720   35.1090   46.1540 C   0  0  0  0  0  0  0  0  0  0  0  0
   59.1500   34.6550   45.0190 C   0  0  0  0  0  0  0  0  0  0  0  0
   57.1510   29.2240   44.1870 C   0  0  0  0  0  0  0  0  0  0  0  0
   56.3240   29.4690   42.6540 Cl  0  0  0  0  0  0  0  0  0  0  0  0
   57.5740   27.9320   44.5200 C   0  0  0  0  0  0  0  0  0  0  0  0
  1  2  2  0
  2  3  1  0
  3  4  1  0
  4  5  1  0
  5  6  1  0
  6  7  2  0
  6  8  1  0
  8  9  1  0
  9 10  1  0
  2 11  1  0
 11 12  1  0
 12 13  2  0
 13 14  1  0
 14 15  2  0
 15 16  1  0
 16 17  1  0
 17 18  2  0
 17 19  1  0
 19 20  1  0
 20 21  1  0
 21 22  1  0
 22 23  1  0
 23 24  1  0
 15 25  1  0
 25 26  1  0
 25 27  2  0
  9  4  2  0
 27 12  1  0
 24 19  1  0
M  CHG  4   5  -1   8  -1  10  -1  11  -1
M  END
>  <UniqueID>  (767) 
90

>  <SMILES>  (767) 
O=C(Cc1[n-]c(=O)[n-]c1[O-])[N-]c1ccc(OC(=O)N2CCOCC2)c(Cl)c1

>  <Energy>  (767) 
79.93036215972613

>  <Genealogy>  (767) 
O=C(Cc1[n-]c(=O)[n-]c1[O-])[N-]c1ccc(OC(=O)N2CCOCC2)c(Cl)c1 (protonated)
O=C(Cc1[n-]c(=O)[n-]c1[O-])[N-]c1ccc(OC(=O)N2CCOCC2)c(Cl)c1 (3D coordinates assigned)
O=C(Cc1[n-]c(=O)[n-]c1[O-])[N-]c1ccc(OC(=O)N2CCOCC2)c(Cl)c1 (nonaromatic ring conformer: 79.93036215972613 kcal/mol)

>  <smiles>  (767) 
O=C(Cc1[nH]c(=O)[nH]c1O)Nc1ccc(OC(=O)N2CCOCC2)c(Cl)c1

>  <score_type>  (767) 
oracle

>  <origin>  (767) 
adg

>  <m_score__min__energy>  (767) 
-17.640000000000001

>  <m_primary>  (767) 
energy

$$$$
17:0
     RDKit          3D

 23 25  0  0  0  0  0  0  0  0999 V2000
   56.3460   29.6610   44.6440 C   0  0  0  0  0  0  0  0  0  0  0  0
   57.5580   29.3370   45.1230 C   0  0  0  0  0  0  0  0  0  0  0  0
   58.0900   28.0470   45.2940 C   0  0  0  0  0  0  0  0  0  0  0  0
   57.6380   26.8410   44.8940 C   0  0  0  0  0  0  0  0  0  0  0  0
   57.2200   25.7410   45.7840 C   0  0  0  0  0  0  0  0  0  0  0  0
   55.9280   25.7250   46.3280 C   0  0  0  0  0  0  0  0  0  0  0  0
   55.0090   26.7150   45.9990 O   0  0  0  0  0  0  0  0  0  0  0  0
   55.5630   24.7310   47.1790 N   0  0  0  0  0  0  0  0  0  0  0  0
   56.4350   23.7520   47.5290 C   0  0  0  0  0  0  0  0  0  0  0  0
   55.9660   22.5700   48.5510 S   0  0  0  0  0  0  0  0  0  0  0  0
   57.7010   23.7610   47.0380 N   0  0  0  0  0  0  0  0  0  0  0  0
   58.1150   24.7330   46.1850 C   0  0  0  0  0  0  0  0  0  0  0  0
   59.3030   24.7230   45.7660 O   0  0  0  0  0  0  0  0  0  0  0  0
   59.2730   28.2050   45.9970 C   0  0  0  0  0  0  0  0  0  0  0  0
   59.4540   29.5610   46.1760 C   0  0  0  0  0  0  0  0  0  0  0  0
   60.6250   30.1760   46.8810 C   0  0  0  0  0  0  0  0  0  0  0  0
   58.4170   30.2490   45.6490 N   0  0  0  0  0  0  0  0  0  0  0  0
   58.2610   31.6790   45.6700 C   0  0  0  0  0  0  0  0  0  0  0  0
   58.1400   32.3930   44.4670 C   0  0  0  0  0  0  0  0  0  0  0  0
   57.9970   33.7830   44.4860 C   0  0  0  0  0  0  0  0  0  0  0  0
   57.9750   34.4690   45.7040 C   0  0  0  0  0  0  0  0  0  0  0  0
   58.0960   33.7630   46.9060 C   0  0  0  0  0  0  0  0  0  0  0  0
   58.2400   32.3730   46.8900 C   0  0  0  0  0  0  0  0  0  0  0  0
  1  2  2  0
  2  3  1  0
  3  4  2  0
  4  5  1  0
  5  6  2  0
  6  7  1  0
  6  8  1  0
  8  9  1  0
  9 10  2  0
  9 11  1  0
 11 12  1  0
 12 13  2  0
  3 14  1  0
 14 15  2  0
 15 16  1  0
 15 17  1  0
 17 18  1  0
 18 19  2  0
 19 20  1  0
 20 21  2  0
 21 22  1  0
 22 23  2  0
 17  2  1  0
 23 18  1  0
 12  5  1  0
M  CHG  3   7  -1   8  -1  11  -1
M  END
>  <UniqueID>  (768) 
15

>  <SMILES>  (768) 
C=c1/c(=C\c2c([O-])[n-]c(=S)[n-]c2=O)cc(C)n1-c1ccccc1

>  <Energy>  (768) 
86.41252462677312

>  <Genealogy>  (768) 
C=c1c(=Cc2c([O-])[n-]c(=S)[n-]c2=O)cc(C)n1-c1ccccc1 (protonated)
C=c1/c(=C\c2c([O-])[n-]c(=S)[n-]c2=O)cc(C)n1-c1ccccc1 (cis-trans isomerization)
C=c1/c(=C\c2c([O-])[n-]c(=S)[n-]c2=O)cc(C)n1-c1ccccc1 (3D coordinates assigned)
C=c1/c(=C\c2c([O-])[n-]c(=S)[n-]c2=O)cc(C)n1-c1ccccc1 (optimized conformer: 86.41252462677312 kcal/mol)

>  <smiles>  (768) 
C=c1c(=Cc2c(O)[nH]c(=S)[nH]c2=O)cc(C)n1-c1ccccc1

>  <score_type>  (768) 
oracle

>  <origin>  (768) 
adg

>  <m_score__min__energy>  (768) 
-15.09

>  <m_primary>  (768) 
energy

$$$$
18:0
     RDKit          3D

 26 27  0  0  0  0  0  0  0  0999 V2000
   59.4260   24.8290   46.3650 C   0  0  0  0  0  0  0  0  0  0  0  0
   58.4370   25.9170   46.0420 C   0  0  0  0  0  0  0  0  0  0  0  0
   57.0620   25.6460   46.1370 C   0  0  0  0  0  0  0  0  0  0  0  0
   56.1190   26.6380   45.8600 C   0  0  0  0  0  0  0  0  0  0  0  0
   54.7640   26.3470   45.9720 O   0  0  0  0  0  0  0  0  0  0  0  0
   56.5350   27.9220   45.4870 C   0  0  0  0  0  0  0  0  0  0  0  0
   55.5480   28.9320   45.2290 N   0  0  0  0  0  0  0  0  0  0  0  0
   55.6060   29.9280   44.1980 C   0  0  0  0  0  0  0  0  0  0  0  0
   54.6430   30.0270   43.3920 O   0  0  0  0  0  0  0  0  0  0  0  0
   56.7510   30.8930   44.0870 C   0  0  0  0  0  0  0  0  0  0  0  0
   57.0210   31.4900   45.3920 N   0  0  0  0  0  0  0  0  0  0  0  0
   58.0360   32.8880   45.1960 S   0  0  0  0  0  0  0  0  0  0  0  0
   58.3990   33.0400   43.7470 O   0  0  0  0  0  0  0  0  0  0  0  0
   57.2600   34.1080   45.6070 O   0  0  0  0  0  0  0  0  0  0  0  0
   59.4730   32.7500   46.2350 C   0  0  0  0  0  0  0  0  0  0  0  0
   60.0210   31.4680   46.4090 C   0  0  0  0  0  0  0  0  0  0  0  0
   61.2310   31.2930   47.0830 C   0  0  0  0  0  0  0  0  0  0  0  0
   61.9210   32.3970   47.5790 C   0  0  0  0  0  0  0  0  0  0  0  0
   61.3960   33.6800   47.4150 C   0  0  0  0  0  0  0  0  0  0  0  0
   60.1680   33.8710   46.7590 C   0  0  0  0  0  0  0  0  0  0  0  0
   59.6650   35.2480   46.6410 C   0  0  0  0  0  0  0  0  0  0  0  0
   58.9000   35.7170   47.5230 O   0  0  0  0  0  0  0  0  0  0  0  0
   59.9590   36.0050   45.5150 O   0  0  0  0  0  0  0  0  0  0  0  0
   57.9040   28.1840   45.3310 C   0  0  0  0  0  0  0  0  0  0  0  0
   58.8630   27.1950   45.6080 C   0  0  0  0  0  0  0  0  0  0  0  0
   60.3260   27.5310   45.4790 C   0  0  0  0  0  0  0  0  0  0  0  0
  1  2  1  0
  2  3  2  0
  3  4  1  0
  4  5  1  0
  4  6  2  0
  6  7  1  0
  7  8  1  0
  8  9  2  0
  8 10  1  0
 10 11  1  0
 11 12  1  0
 12 13  2  0
 12 14  2  0
 12 15  1  0
 15 16  2  0
 16 17  1  0
 17 18  2  0
 18 19  1  0
 19 20  2  0
 20 21  1  0
 21 22  2  0
 21 23  1  0
  6 24  1  0
 24 25  2  0
 25 26  1  0
 25  2  1  0
 20 15  1  0
M  CHG  4   5  -1   7  -1  11  -1  23  -1
M  END
>  <UniqueID>  (769) 
16

>  <SMILES>  (769) 
Cc1cc([O-])c([N-]C(=O)C[N-]S(=O)(=O)c2ccccc2C(=O)[O-])cc1C

>  <Energy>  (769) 
51.48015169399693

>  <Genealogy>  (769) 
Cc1cc([O-])c([N-]C(=O)C[N-]S(=O)(=O)c2ccccc2C(=O)[O-])cc1C (protonated)
Cc1cc([O-])c([N-]C(=O)C[N-]S(=O)(=O)c2ccccc2C(=O)[O-])cc1C (3D coordinates assigned)
Cc1cc([O-])c([N-]C(=O)C[N-]S(=O)(=O)c2ccccc2C(=O)[O-])cc1C (optimized conformer: 51.48015169399693 kcal/mol)

>  <smiles>  (769) 
Cc1cc(O)c(NC(=O)CNS(=O)(=O)c2ccccc2C(=O)O)cc1C

>  <score_type>  (769) 
oracle

>  <origin>  (769) 
adg

>  <m_score__min__energy>  (769) 
-15.68

>  <m_primary>  (769) 
energy

$$$$
25:0
     RDKit          3D

 29 31  0  0  0  0  0  0  0  0999 V2000
   59.5180   35.0190   45.7160 C   0  0  0  0  0  0  0  0  0  0  0  0
   58.9010   33.6840   45.9840 C   0  0  0  0  0  0  0  0  0  0  0  0
   59.2170   32.9790   47.1500 C   0  0  0  0  0  0  0  0  0  0  0  0
   58.6230   31.7310   47.3580 C   0  0  0  0  0  0  0  0  0  0  0  0
   58.9360   30.9370   48.5850 C   0  0  0  0  0  0  0  0  0  0  0  0
   57.7690   31.2300   46.4260 N   0  0  0  0  0  0  0  0  0  0  0  0
   57.4730   31.9240   45.2930 C   0  0  0  0  0  0  0  0  0  0  0  0
   56.6560   31.4410   44.4090 N   0  0  0  0  0  0  0  0  0  0  0  0
   56.3990   29.7430   44.1580 S   0  0  0  0  0  0  0  0  0  0  0  0
   55.1510   29.3290   44.8850 O   0  0  0  0  0  0  0  0  0  0  0  0
   56.2470   29.4920   42.6850 O   0  0  0  0  0  0  0  0  0  0  0  0
   57.7770   28.8170   44.7820 C   0  0  0  0  0  0  0  0  0  0  0  0
   59.0700   29.3450   44.6240 C   0  0  0  0  0  0  0  0  0  0  0  0
   60.1850   28.6580   45.1060 C   0  0  0  0  0  0  0  0  0  0  0  0
   60.0260   27.4350   45.7530 C   0  0  0  0  0  0  0  0  0  0  0  0
   58.7520   26.8940   45.9220 C   0  0  0  0  0  0  0  0  0  0  0  0
   57.6130   27.5710   45.4470 C   0  0  0  0  0  0  0  0  0  0  0  0
   56.2610   26.9220   45.6320 C   0  0  0  0  0  0  0  0  0  0  0  0
   56.2490   26.1000   46.8380 N   0  0  0  0  0  0  0  0  0  0  0  0
   56.7140   24.7450   46.8890 C   0  0  0  0  0  0  0  0  0  0  0  0
   57.2140   24.2950   47.9550 O   0  0  0  0  0  0  0  0  0  0  0  0
   56.6020   23.8770   45.6960 C   0  0  0  0  0  0  0  0  0  0  0  0
   57.7480   23.4460   45.0070 C   0  0  0  0  0  0  0  0  0  0  0  0
   57.6250   22.6210   43.8860 C   0  0  0  0  0  0  0  0  0  0  0  0
   56.3540   22.2330   43.4590 C   0  0  0  0  0  0  0  0  0  0  0  0
   56.2250   21.4910   42.4500 O   0  0  0  0  0  0  0  0  0  0  0  0
   55.2530   22.6550   44.1330 N   0  0  0  0  0  0  0  0  0  0  0  0
   55.3440   23.4550   45.2270 C   0  0  0  0  0  0  0  0  0  0  0  0
   58.0410   33.1410   45.0820 N   0  0  0  0  0  0  0  0  0  0  0  0
  1  2  1  0
  2  3  1  0
  3  4  2  0
  4  5  1  0
  4  6  1  0
  6  7  1  0
  7  8  2  3
  8  9  1  0
  9 10  2  0
  9 11  2  0
  9 12  1  0
 12 13  2  0
 13 14  1  0
 14 15  2  0
 15 16  1  0
 16 17  2  0
 17 18  1  0
 18 19  1  0
 19 20  1  0
 20 21  2  0
 20 22  1  0
 22 23  1  0
 23 24  2  0
 24 25  1  0
 25 26  2  0
 25 27  1  0
 27 28  1  0
  7 29  1  0
 29  2  2  0
 17 12  1  0
 28 22  2  0
M  CHG  3   6  -1  19  -1  27  -1
M  END
>  <UniqueID>  (770) 
22

>  <SMILES>  (770) 
Cc1cc(C)[n-]c(=NS(=O)(=O)c2ccccc2C[N-]C(=O)c2ccc(=O)[n-]c2)n1

>  <Energy>  (770) 
51.13638910994888

>  <Genealogy>  (770) 
Cc1cc(C)[n-]c(=NS(=O)(=O)c2ccccc2C[N-]C(=O)c2ccc(=O)[n-]c2)n1 (protonated)
Cc1cc(C)[n-]c(=NS(=O)(=O)c2ccccc2C[N-]C(=O)c2ccc(=O)[n-]c2)n1 (3D coordinates assigned)
Cc1cc(C)[n-]c(=NS(=O)(=O)c2ccccc2C[N-]C(=O)c2ccc(=O)[n-]c2)n1 (optimized conformer: 51.13638910994888 kcal/mol)

>  <smiles>  (770) 
Cc1cc(C)[nH]c(=NS(=O)(=O)c2ccccc2CNC(=O)c2ccc(=O)[nH]c2)n1

>  <score_type>  (770) 
oracle

>  <origin>  (770) 
adg

>  <m_score__min__energy>  (770) 
-14.199999999999999

>  <m_primary>  (770) 
energy

$$$$
31:0
     RDKit          3D

 27 29  0  0  0  0  0  0  0  0999 V2000
   62.6790   33.4480   47.4780 C   0  0  0  0  0  0  0  0  0  0  0  0
   63.9040   32.9770   47.8360 N   0  0  0  0  0  0  0  0  0  0  0  0
   64.3630   33.0740   49.1110 C   0  0  0  0  0  0  0  0  0  0  0  0
   65.5040   32.6280   49.4020 O   0  0  0  0  0  0  0  0  0  0  0  0
   63.5710   33.6670   50.0960 C   0  0  0  0  0  0  0  0  0  0  0  0
   62.3090   34.1580   49.7550 C   0  0  0  0  0  0  0  0  0  0  0  0
   61.8450   34.0570   48.4340 C   0  0  0  0  0  0  0  0  0  0  0  0
   60.5090   34.5750   48.0550 C   0  0  0  0  0  0  0  0  0  0  0  0
   59.6940   34.9180   48.9550 O   0  0  0  0  0  0  0  0  0  0  0  0
   60.1480   34.6770   46.6670 N   0  0  0  0  0  0  0  0  0  0  0  0
   59.1990   34.0210   46.0700 C   0  0  0  0  0  0  0  0  0  0  0  0
   59.3330   33.3980   44.8780 N   0  0  0  0  0  0  0  0  0  0  0  0
   58.1720   32.7970   44.4970 C   0  0  0  0  0  0  0  0  0  0  0  0
   58.0770   31.9960   43.2380 C   0  0  0  0  0  0  0  0  0  0  0  0
   57.1180   30.8620   43.4250 C   0  0  0  0  0  0  0  0  0  0  0  0
   56.2980   30.5820   42.5070 O   0  0  0  0  0  0  0  0  0  0  0  0
   57.1680   30.0680   44.6160 N   0  0  0  0  0  0  0  0  0  0  0  0
   56.2620   28.9390   44.8230 C   0  0  0  0  0  0  0  0  0  0  0  0
   56.9900   27.7850   45.4620 C   0  0  0  0  0  0  0  0  0  0  0  0
   58.3930   27.8110   45.5590 C   0  0  0  0  0  0  0  0  0  0  0  0
   59.0760   26.7620   46.1830 C   0  0  0  0  0  0  0  0  0  0  0  0
   58.3660   25.6870   46.7250 C   0  0  0  0  0  0  0  0  0  0  0  0
   56.9710   25.6620   46.6520 C   0  0  0  0  0  0  0  0  0  0  0  0
   56.2800   26.7080   46.0300 C   0  0  0  0  0  0  0  0  0  0  0  0
   54.8900   26.6730   45.9830 O   0  0  0  0  0  0  0  0  0  0  0  0
   57.1160   32.9290   45.3980 C   0  0  0  0  0  0  0  0  0  0  0  0
   57.6560   33.8430   46.7040 S   0  0  0  0  0  0  0  0  0  0  0  0
  1  2  1  0
  2  3  1  0
  3  4  2  0
  3  5  1  0
  5  6  2  0
  6  7  1  0
  7  8  1  0
  8  9  2  0
  8 10  1  0
 10 11  2  0
 11 12  1  0
 12 13  1  0
 13 14  1  0
 14 15  1  0
 15 16  2  0
 15 17  1  0
 17 18  1  0
 18 19  1  0
 19 20  2  0
 20 21  1  0
 21 22  2  0
 22 23  1  0
 23 24  2  0
 24 25  1  0
 13 26  2  0
 26 27  1  0
  7  1  2  0
 27 11  1  0
 24 19  1  0
M  CHG  3   2  -1  12  -1  25  -1
M  END
>  <UniqueID>  (771) 
28

>  <SMILES>  (771) 
O=C(Cc1cs/c(=N/C(=O)c2ccc(=O)[n-]c2)[n-]1)NCc1ccccc1[O-]

>  <Energy>  (771) 
71.64159371508852

>  <Genealogy>  (771) 
O=C(Cc1csc(=NC(=O)c2ccc(=O)[n-]c2)[n-]1)NCc1ccccc1[O-] (protonated)
O=C(Cc1cs/c(=N/C(=O)c2ccc(=O)[n-]c2)[n-]1)NCc1ccccc1[O-] (cis-trans isomerization)
O=C(Cc1cs/c(=N/C(=O)c2ccc(=O)[n-]c2)[n-]1)NCc1ccccc1[O-] (3D coordinates assigned)
O=C(Cc1cs/c(=N/C(=O)c2ccc(=O)[n-]c2)[n-]1)NCc1ccccc1[O-] (optimized conformer: 71.64159371508852 kcal/mol)

>  <smiles>  (771) 
O=C(Cc1csc(=NC(=O)c2ccc(=O)[nH]c2)[nH]1)NCc1ccccc1O

>  <score_type>  (771) 
oracle

>  <origin>  (771) 
adg

>  <m_score__min__energy>  (771) 
-15.24

>  <m_primary>  (771) 
energy

$$$$
47:0
     RDKit          3D

 27 29  0  0  0  0  0  0  0  0999 V2000
   55.1420   29.3410   44.8990 N   0  0  0  0  0  0  0  0  0  0  0  0
   56.7290   29.6540   44.2930 S   0  0  0  0  0  0  0  0  0  0  0  0
   56.7850   31.0590   43.7630 O   0  0  0  0  0  0  0  0  0  0  0  0
   57.0390   28.6980   43.1750 O   0  0  0  0  0  0  0  0  0  0  0  0
   57.9030   29.4380   45.5870 C   0  0  0  0  0  0  0  0  0  0  0  0
   57.8490   28.2900   46.3860 C   0  0  0  0  0  0  0  0  0  0  0  0
   58.7690   28.1070   47.4230 C   0  0  0  0  0  0  0  0  0  0  0  0
   59.7510   29.0770   47.6750 C   0  0  0  0  0  0  0  0  0  0  0  0
   60.7580   28.8680   48.7740 C   0  0  0  0  0  0  0  0  0  0  0  0
   61.0490   30.1830   49.5000 C   0  0  0  0  0  0  0  0  0  0  0  0
   62.2620   30.7930   48.9670 N   0  0  0  0  0  0  0  0  0  0  0  0
   62.5810   32.1800   49.1170 C   0  0  0  0  0  0  0  0  0  0  0  0
   63.7460   32.5990   48.8830 O   0  0  0  0  0  0  0  0  0  0  0  0
   61.5020   33.1470   49.4830 C   0  0  0  0  0  0  0  0  0  0  0  0
   60.5480   33.2560   48.3820 N   0  0  0  0  0  0  0  0  0  0  0  0
   59.2070   33.1150   48.4580 C   0  0  0  0  0  0  0  0  0  0  0  0
   58.5230   32.7500   49.6120 O   0  0  0  0  0  0  0  0  0  0  0  0
   58.6250   33.4000   47.2400 C   0  0  0  0  0  0  0  0  0  0  0  0
   59.6440   33.7480   46.3890 C   0  0  0  0  0  0  0  0  0  0  0  0
   60.8150   33.6620   47.1210 C   0  0  0  0  0  0  0  0  0  0  0  0
   62.0910   33.9680   46.6550 O   0  0  0  0  0  0  0  0  0  0  0  0
   59.4400   34.1880   44.9760 C   0  0  0  0  0  0  0  0  0  0  0  0
   57.9820   34.1200   44.5700 C   0  0  0  0  0  0  0  0  0  0  0  0
   56.9790   33.7760   45.4080 C   0  0  0  0  0  0  0  0  0  0  0  0
   57.1780   33.4140   46.8660 C   0  0  0  0  0  0  0  0  0  0  0  0
   59.8130   30.2220   46.8640 C   0  0  0  0  0  0  0  0  0  0  0  0
   58.8900   30.4040   45.8300 C   0  0  0  0  0  0  0  0  0  0  0  0
  1  2  1  0
  2  3  2  0
  2  4  2  0
  2  5  1  0
  5  6  2  0
  6  7  1  0
  7  8  2  0
  8  9  1  0
  9 10  1  0
 10 11  1  0
 11 12  1  0
 12 13  2  0
 12 14  1  0
 14 15  1  0
 15 16  1  0
 16 17  1  0
 16 18  2  0
 18 19  1  0
 19 20  2  0
 20 21  1  0
 19 22  1  0
 22 23  1  0
 23 24  2  0
 24 25  1  0
  8 26  1  0
 26 27  2  0
 27  5  1  0
 20 15  1  0
 25 18  1  0
M  CHG  3   1  -1  11  -1  17  -1
M  END
>  <UniqueID>  (772) 
44

>  <SMILES>  (772) 
[NH-]S(=O)(=O)c1ccc(CC[N-]C(=O)Cn2c([O-])c3c(c2O)CC=CC3)cc1

>  <Energy>  (772) 
71.22378920578001

>  <Genealogy>  (772) 
[NH-]S(=O)(=O)c1ccc(CC[N-]C(=O)Cn2c([O-])c3c(c2O)CC=CC3)cc1 (protonated)
[NH-]S(=O)(=O)c1ccc(CC[N-]C(=O)Cn2c([O-])c3c(c2O)CC=CC3)cc1 (3D coordinates assigned)
[NH-]S(=O)(=O)c1ccc(CC[N-]C(=O)Cn2c([O-])c3c(c2O)CC=CC3)cc1 (nonaromatic ring conformer: 71.22378920578001 kcal/mol)

>  <smiles>  (772) 
NS(=O)(=O)c1ccc(CCNC(=O)Cn2c(O)c3c(c2O)CC=CC3)cc1

>  <score_type>  (772) 
oracle

>  <origin>  (772) 
adg

>  <m_score__min__energy>  (772) 
-14.119999999999999

>  <m_primary>  (772) 
energy

$$$$
58:0
     RDKit          3D

 27 29  0  0  0  0  0  0  0  0999 V2000
   57.8180   27.8060   42.8420 O   0  0  0  0  0  0  0  0  0  0  0  0
   57.1040   28.6400   43.4590 C   0  0  0  0  0  0  0  0  0  0  0  0
   56.5760   29.8420   42.7210 C   0  0  0  0  0  0  0  0  0  0  0  0
   57.2180   31.0710   43.2010 N   0  0  0  0  0  0  0  0  0  0  0  0
   57.4010   31.4960   44.4680 C   0  0  0  0  0  0  0  0  0  0  0  0
   57.0210   30.8180   45.6240 O   0  0  0  0  0  0  0  0  0  0  0  0
   58.0260   32.7230   44.4390 C   0  0  0  0  0  0  0  0  0  0  0  0
   58.4390   33.5400   45.6230 C   0  0  0  0  0  0  0  0  0  0  0  0
   59.7160   33.0080   46.2130 C   0  0  0  0  0  0  0  0  0  0  0  0
   60.8260   33.8530   46.3720 C   0  0  0  0  0  0  0  0  0  0  0  0
   62.0100   33.3650   46.9340 C   0  0  0  0  0  0  0  0  0  0  0  0
   62.0940   32.0290   47.3360 C   0  0  0  0  0  0  0  0  0  0  0  0
   61.0000   31.1760   47.1620 C   0  0  0  0  0  0  0  0  0  0  0  0
   59.8170   31.6600   46.5960 C   0  0  0  0  0  0  0  0  0  0  0  0
   58.2470   33.0890   43.1580 N   0  0  0  0  0  0  0  0  0  0  0  0
   57.7330   32.0660   42.4430 C   0  0  0  0  0  0  0  0  0  0  0  0
   57.7360   32.0490   41.1840 O   0  0  0  0  0  0  0  0  0  0  0  0
   56.8690   28.4480   44.8600 N   0  0  0  0  0  0  0  0  0  0  0  0
   57.7920   27.8500   45.7790 C   0  0  0  0  0  0  0  0  0  0  0  0
   59.0640   28.4210   45.9550 C   0  0  0  0  0  0  0  0  0  0  0  0
   59.9600   27.8890   46.8810 C   0  0  0  0  0  0  0  0  0  0  0  0
   59.5890   26.7960   47.6590 C   0  0  0  0  0  0  0  0  0  0  0  0
   58.3220   26.2290   47.5130 C   0  0  0  0  0  0  0  0  0  0  0  0
   57.4070   26.7380   46.5700 C   0  0  0  0  0  0  0  0  0  0  0  0
   56.0840   26.0770   46.4160 C   0  0  0  0  0  0  0  0  0  0  0  0
   55.1010   26.7220   45.9640 O   0  0  0  0  0  0  0  0  0  0  0  0
   55.8930   24.7480   46.7790 O   0  0  0  0  0  0  0  0  0  0  0  0
  1  2  2  0
  2  3  1  0
  3  4  1  0
  4  5  1  0
  5  6  1  0
  5  7  2  0
  7  8  1  0
  8  9  1  0
  9 10  2  0
 10 11  1  0
 11 12  2  0
 12 13  1  0
 13 14  2  0
  7 15  1  0
 15 16  1  0
 16 17  2  0
  2 18  1  0
 18 19  1  0
 19 20  2  0
 20 21  1  0
 21 22  2  0
 22 23  1  0
 23 24  2  0
 24 25  1  0
 25 26  2  0
 25 27  1  0
 16  4  1  0
 24 19  1  0
 14  9  1  0
M  CHG  3  15  -1  18  -1  27  -1
M  END
>  <UniqueID>  (773) 
55

>  <SMILES>  (773) 
O=C(Cn1c(O)c(Cc2ccccc2)[n-]c1=O)[N-]c1ccccc1C(=O)[O-]

>  <Energy>  (773) 
75.71404170241128

>  <Genealogy>  (773) 
O=C(Cn1c(O)c(Cc2ccccc2)[n-]c1=O)[N-]c1ccccc1C(=O)[O-] (protonated)
O=C(Cn1c(O)c(Cc2ccccc2)[n-]c1=O)[N-]c1ccccc1C(=O)[O-] (3D coordinates assigned)
O=C(Cn1c(O)c(Cc2ccccc2)[n-]c1=O)[N-]c1ccccc1C(=O)[O-] (optimized conformer: 75.71404170241128 kcal/mol)

>  <smiles>  (773) 
O=C(Cn1c(O)c(Cc2ccccc2)[nH]c1=O)Nc1ccccc1C(=O)O

>  <score_type>  (773) 
oracle

>  <origin>  (773) 
adg

>  <m_score__min__energy>  (773) 
-14.93

>  <m_primary>  (773) 
energy

$$$$
70:0
     RDKit          3D

 30 32  0  0  0  0  0  0  0  0999 V2000
   58.6190   34.6560   44.9280 C   0  0  0  0  0  0  0  0  0  0  0  0
   58.7840   33.6770   45.9990 N   0  0  0  0  0  0  0  0  0  0  0  0
   59.4990   33.8600   47.1270 C   0  0  0  0  0  0  0  0  0  0  0  0
   59.3470   32.7640   47.9520 C   0  0  0  0  0  0  0  0  0  0  0  0
   59.8360   32.6450   49.3620 C   0  0  0  0  0  0  0  0  0  0  0  0
   58.9010   31.7660   50.1560 C   0  0  0  0  0  0  0  0  0  0  0  0
   57.9940   32.3370   51.0590 C   0  0  0  0  0  0  0  0  0  0  0  0
   57.1880   31.5430   51.8100 N   0  0  0  0  0  0  0  0  0  0  0  0
   57.2490   30.1900   51.7100 C   0  0  0  0  0  0  0  0  0  0  0  0
   56.4930   29.4720   52.4150 O   0  0  0  0  0  0  0  0  0  0  0  0
   58.1290   29.6110   50.8530 N   0  0  0  0  0  0  0  0  0  0  0  0
   58.9550   30.3630   50.0810 C   0  0  0  0  0  0  0  0  0  0  0  0
   59.7680   29.7900   49.3060 O   0  0  0  0  0  0  0  0  0  0  0  0
   58.4910   31.8860   47.3140 C   0  0  0  0  0  0  0  0  0  0  0  0
   58.1690   32.4770   46.1060 C   0  0  0  0  0  0  0  0  0  0  0  0
   57.1180   31.9670   45.1640 C   0  0  0  0  0  0  0  0  0  0  0  0
   57.1390   30.5100   45.1580 N   0  0  0  0  0  0  0  0  0  0  0  0
   56.0190   29.7060   44.7680 C   0  0  0  0  0  0  0  0  0  0  0  0
   55.1130   30.1880   44.0390 O   0  0  0  0  0  0  0  0  0  0  0  0
   55.8910   28.3650   45.2470 N   0  0  0  0  0  0  0  0  0  0  0  0
   56.9580   27.5830   45.8030 C   0  0  0  0  0  0  0  0  0  0  0  0
   58.2890   28.0390   45.7630 C   0  0  0  0  0  0  0  0  0  0  0  0
   59.3190   27.2570   46.2880 C   0  0  0  0  0  0  0  0  0  0  0  0
   59.0360   26.0070   46.8390 C   0  0  0  0  0  0  0  0  0  0  0  0
   57.7220   25.5320   46.8600 C   0  0  0  0  0  0  0  0  0  0  0  0
   56.6730   26.3140   46.3350 C   0  0  0  0  0  0  0  0  0  0  0  0
   55.3400   25.8700   46.3290 O   0  0  0  0  0  0  0  0  0  0  0  0
   54.8600   24.7440   45.5990 C   0  0  0  0  0  0  0  0  0  0  0  0
   53.4860   24.8330   45.4820 F   0  0  0  0  0  0  0  0  0  0  0  0
   55.1800   23.5760   46.2680 F   0  0  0  0  0  0  0  0  0  0  0  0
  1  2  1  0
  2  3  1  0
  3  4  2  0
  4  5  1  0
  5  6  1  0
  6  7  2  0
  7  8  1  0
  8  9  1  0
  9 10  2  0
  9 11  1  0
 11 12  1  0
 12 13  2  0
  4 14  1  0
 14 15  2  0
 15 16  1  0
 16 17  1  0
 17 18  1  0
 18 19  2  0
 18 20  1  0
 20 21  1  0
 21 22  2  0
 22 23  1  0
 23 24  2  0
 24 25  1  0
 25 26  2  0
 26 27  1  0
 27 28  1  0
 28 29  1  0
 28 30  1  0
 15  2  1  0
 26 21  1  0
 12  6  1  0
M  CHG  4   8  -1  11  -1  17  -1  20  -1
M  END
>  <UniqueID>  (774) 
65

>  <SMILES>  (774) 
Cn1cc(Cc2c[n-]c(=O)[n-]c2=O)cc1C[N-]C(=O)[N-]c1ccccc1OC(F)F

>  <Energy>  (774) 
72.13105415165121

>  <Genealogy>  (774) 
Cn1cc(Cc2c[n-]c(=O)[n-]c2=O)cc1C[N-]C(=O)[N-]c1ccccc1OC(F)F (protonated)
Cn1cc(Cc2c[n-]c(=O)[n-]c2=O)cc1C[N-]C(=O)[N-]c1ccccc1OC(F)F (3D coordinates assigned)
Cn1cc(Cc2c[n-]c(=O)[n-]c2=O)cc1C[N-]C(=O)[N-]c1ccccc1OC(F)F (optimized conformer: 72.13105415165121 kcal/mol)

>  <smiles>  (774) 
Cn1cc(Cc2c[nH]c(=O)[nH]c2=O)cc1CNC(=O)Nc1ccccc1OC(F)F

>  <score_type>  (774) 
oracle

>  <origin>  (774) 
adg

>  <m_score__min__energy>  (774) 
-14.82

>  <m_primary>  (774) 
energy

$$$$
76:0
     RDKit          3D

 32 35  0  0  0  0  0  0  0  0999 V2000
   57.2960   34.4520   44.7020 O   0  0  0  0  0  0  0  0  0  0  0  0
   57.9430   33.3940   44.9250 C   0  0  0  0  0  0  0  0  0  0  0  0
   57.8880   32.2890   44.0040 N   0  0  0  0  0  0  0  0  0  0  0  0
   57.1080   31.2460   44.0350 C   0  0  0  0  0  0  0  0  0  0  0  0
   56.6360   30.5050   42.9630 C   0  0  0  0  0  0  0  0  0  0  0  0
   55.8720   29.5290   43.5660 C   0  0  0  0  0  0  0  0  0  0  0  0
   55.9110   29.7050   44.8680 O   0  0  0  0  0  0  0  0  0  0  0  0
   56.6460   30.7300   45.1870 N   0  0  0  0  0  0  0  0  0  0  0  0
   58.7600   33.2820   46.1570 C   0  0  0  0  0  0  0  0  0  0  0  0
   58.7640   34.3190   47.1090 C   0  0  0  0  0  0  0  0  0  0  0  0
   59.5290   34.2110   48.2730 C   0  0  0  0  0  0  0  0  0  0  0  0
   60.3010   33.0700   48.5030 C   0  0  0  0  0  0  0  0  0  0  0  0
   61.0410   32.9790   49.6370 F   0  0  0  0  0  0  0  0  0  0  0  0
   60.3070   32.0280   47.5660 C   0  0  0  0  0  0  0  0  0  0  0  0
   61.2930   30.5560   47.8520 S   0  0  0  0  0  0  0  0  0  0  0  0
   60.1180   29.4920   47.0150 C   0  0  0  0  0  0  0  0  0  0  0  0
   60.3000   29.1610   45.6720 C   0  0  0  0  0  0  0  0  0  0  0  0
   59.3790   28.3320   45.0330 C   0  0  0  0  0  0  0  0  0  0  0  0
   58.2700   27.8470   45.7380 C   0  0  0  0  0  0  0  0  0  0  0  0
   57.4280   27.0740   45.1070 N   0  0  0  0  0  0  0  0  0  0  0  0
   56.6100   26.0190   45.6390 C   0  0  0  0  0  0  0  0  0  0  0  0
   55.8880   26.2240   46.6540 O   0  0  0  0  0  0  0  0  0  0  0  0
   56.5350   24.7170   44.9360 C   0  0  0  0  0  0  0  0  0  0  0  0
   57.7010   24.0710   44.4930 C   0  0  0  0  0  0  0  0  0  0  0  0
   57.6170   22.8460   43.8270 C   0  0  0  0  0  0  0  0  0  0  0  0
   56.3630   22.2750   43.6020 C   0  0  0  0  0  0  0  0  0  0  0  0
   56.2680   21.1730   43.0020 O   0  0  0  0  0  0  0  0  0  0  0  0
   55.2420   22.9090   44.0320 N   0  0  0  0  0  0  0  0  0  0  0  0
   55.2970   24.1020   44.6860 C   0  0  0  0  0  0  0  0  0  0  0  0
   58.1270   28.1620   47.0650 N   0  0  0  0  0  0  0  0  0  0  0  0
   59.0190   28.9700   47.7020 C   0  0  0  0  0  0  0  0  0  0  0  0
   59.5440   32.1370   46.3970 C   0  0  0  0  0  0  0  0  0  0  0  0
  1  2  2  0
  2  3  1  0
  3  4  2  3
  4  5  1  0
  5  6  2  0
  6  7  1  0
  7  8  1  0
  2  9  1  0
  9 10  2  0
 10 11  1  0
 11 12  2  0
 12 13  1  0
 12 14  1  0
 14 15  1  0
 15 16  1  0
 16 17  1  0
 17 18  2  0
 18 19  1  0
 19 20  2  3
 20 21  1  0
 21 22  2  0
 21 23  1  0
 23 24  1  0
 24 25  2  0
 25 26  1  0
 26 27  2  0
 26 28  1  0
 28 29  1  0
 19 30  1  0
 30 31  1  0
 14 32  2  0
  8  4  1  0
 32  9  1  0
 31 16  2  0
 29 23  2  0
M  CHG  2   8  -1  28  -1
M  END
>  <UniqueID>  (775) 
71

>  <SMILES>  (775) 
O=C(N=c1cco[n-]1)c1ccc(F)c(Sc2ccc(=NC(=O)c3ccc(=O)[n-]c3)[nH]c2)c1

>  <Energy>  (775) 
89.85594159467045

>  <Genealogy>  (775) 
O=C(N=c1cco[n-]1)c1ccc(F)c(Sc2ccc(=NC(=O)c3ccc(=O)[n-]c3)[nH]c2)c1 (protonated)
O=C(N=c1cco[n-]1)c1ccc(F)c(Sc2ccc(=NC(=O)c3ccc(=O)[n-]c3)[nH]c2)c1 (3D coordinates assigned)
O=C(N=c1cco[n-]1)c1ccc(F)c(Sc2ccc(=NC(=O)c3ccc(=O)[n-]c3)[nH]c2)c1 (optimized conformer: 89.85594159467045 kcal/mol)

>  <smiles>  (775) 
O=C(N=c1ccc(Sc2cc(C(=O)N=c3cco[nH]3)ccc2F)c[nH]1)c1ccc(=O)[nH]c1

>  <score_type>  (775) 
oracle

>  <origin>  (775) 
adg

>  <m_score__min__energy>  (775) 
-14.119999999999999

>  <m_primary>  (775) 
energy

$$$$
88:0
     RDKit          3D

 32 35  0  0  0  0  0  0  0  0999 V2000
   54.1080   25.9340   45.8250 O   0  0  0  0  0  0  0  0  0  0  0  0
   55.3590   26.0830   45.8310 C   0  0  0  0  0  0  0  0  0  0  0  0
   55.8920   27.3980   45.6220 N   0  0  0  0  0  0  0  0  0  0  0  0
   57.2800   27.7380   45.4950 C   0  0  0  0  0  0  0  0  0  0  0  0
   57.9490   27.6470   44.2630 C   0  0  0  0  0  0  0  0  0  0  0  0
   59.2960   28.0020   44.1700 C   0  0  0  0  0  0  0  0  0  0  0  0
   59.9810   28.4700   45.2930 C   0  0  0  0  0  0  0  0  0  0  0  0
   59.3160   28.6050   46.5260 C   0  0  0  0  0  0  0  0  0  0  0  0
   60.0250   29.1010   47.7350 C   0  0  0  0  0  0  0  0  0  0  0  0
   60.3320   28.2710   48.6360 O   0  0  0  0  0  0  0  0  0  0  0  0
   60.4170   30.4910   47.8690 N   0  0  0  0  0  0  0  0  0  0  0  0
   60.3830   31.1760   46.5520 C   0  0  0  0  0  0  0  0  0  0  0  0
   60.3350   32.7000   46.7240 C   0  0  0  0  0  0  0  0  0  0  0  0
   59.1320   33.1480   47.4770 N   0  0  0  0  0  0  0  0  0  0  0  0
   58.1170   33.7580   46.5950 C   0  0  0  0  0  0  0  0  0  0  0  0
   57.9510   32.9420   45.3380 C   0  0  0  0  0  0  0  0  0  0  0  0
   57.4140   31.6460   45.4090 C   0  0  0  0  0  0  0  0  0  0  0  0
   57.2490   30.8880   44.2470 C   0  0  0  0  0  0  0  0  0  0  0  0
   57.6210   31.4160   43.0070 C   0  0  0  0  0  0  0  0  0  0  0  0
   58.1570   32.7050   42.9290 C   0  0  0  0  0  0  0  0  0  0  0  0
   58.3230   33.4670   44.0890 C   0  0  0  0  0  0  0  0  0  0  0  0
   58.5230   32.0820   48.3040 C   0  0  0  0  0  0  0  0  0  0  0  0
   59.5960   31.1680   48.9110 C   0  0  0  0  0  0  0  0  0  0  0  0
   57.9630   28.2320   46.6140 C   0  0  0  0  0  0  0  0  0  0  0  0
   56.2340   24.9270   46.1280 C   0  0  0  0  0  0  0  0  0  0  0  0
   57.0530   24.3700   45.1350 C   0  0  0  0  0  0  0  0  0  0  0  0
   57.8500   23.2700   45.4650 C   0  0  0  0  0  0  0  0  0  0  0  0
   58.6000   22.7510   44.5990 O   0  0  0  0  0  0  0  0  0  0  0  0
   57.8150   22.7620   46.7240 N   0  0  0  0  0  0  0  0  0  0  0  0
   57.0120   23.3060   47.6730 C   0  0  0  0  0  0  0  0  0  0  0  0
   56.9910   22.8200   48.8330 O   0  0  0  0  0  0  0  0  0  0  0  0
   56.2290   24.3740   47.3710 N   0  0  0  0  0  0  0  0  0  0  0  0
  1  2  2  0
  2  3  1  0
  3  4  1  0
  4  5  2  0
  5  6  1  0
  6  7  2  0
  7  8  1  0
  8  9  1  0
  9 10  2  0
  9 11  1  0
 11 12  1  0
 12 13  1  0
 13 14  1  0
 14 15  1  0
 15 16  1  0
 16 17  2  0
 17 18  1  0
 18 19  2  0
 19 20  1  0
 20 21  2  0
 14 22  1  0
 22 23  1  0
  8 24  2  0
  2 25  1  0
 25 26  2  0
 26 27  1  0
 27 28  2  0
 27 29  1  0
 29 30  1  0
 30 31  2  0
 30 32  1  0
 24  4  1  0
 32 25  1  0
 23 11  1  0
 21 16  1  0
M  CHG  4   3  -1  11   1  29  -1  32  -1
M  END
>  <UniqueID>  (776) 
82

>  <SMILES>  (776) 
O=C([N-]c1cccc(C(=O)[NH+]2CCN(Cc3ccccc3)CC2)c1)c1cc(=O)[n-]c(=O)[n-]1

>  <Energy>  (776) 
81.39317798627386

>  <Genealogy>  (776) 
O=C([N-]c1cccc(C(=O)[NH+]2CCN(Cc3ccccc3)CC2)c1)c1cc(=O)[n-]c(=O)[n-]1 (protonated)
O=C([N-]c1cccc(C(=O)[NH+]2CCN(Cc3ccccc3)CC2)c1)c1cc(=O)[n-]c(=O)[n-]1 (3D coordinates assigned)
O=C([N-]c1cccc(C(=O)[NH+]2CCN(Cc3ccccc3)CC2)c1)c1cc(=O)[n-]c(=O)[n-]1 (nonaromatic ring conformer: 81.39317798627386 kcal/mol)

>  <smiles>  (776) 
O=C(Nc1cccc(C(=O)N2CCN(Cc3ccccc3)CC2)c1)c1cc(=O)[nH]c(=O)[nH]1

>  <score_type>  (776) 
oracle

>  <origin>  (776) 
adg

>  <m_score__min__energy>  (776) 
-14.119999999999999

>  <m_primary>  (776) 
energy

$$$$
1:0
     RDKit          3D

 33 36  0  0  0  0  0  0  0  0999 V2000
   56.8680   22.5230   43.7520 C   0  0  0  0  0  0  0  0  0  0  0  0
   55.7730   23.2400   44.4850 C   0  0  0  0  0  0  0  0  0  0  0  0
   54.6550   22.5290   44.7950 N   0  0  0  0  0  0  0  0  0  0  0  0
   53.6210   23.0870   45.4710 C   0  0  0  0  0  0  0  0  0  0  0  0
   52.5970   22.4030   45.7370 O   0  0  0  0  0  0  0  0  0  0  0  0
   53.6880   24.3830   45.8650 N   0  0  0  0  0  0  0  0  0  0  0  0
   54.7860   25.1420   45.6080 C   0  0  0  0  0  0  0  0  0  0  0  0
   54.8000   26.3420   45.9960 O   0  0  0  0  0  0  0  0  0  0  0  0
   55.8870   24.5850   44.9220 C   0  0  0  0  0  0  0  0  0  0  0  0
   57.3520   25.5560   44.6270 S   0  0  0  0  0  0  0  0  0  0  0  0
   57.7510   25.5090   43.1750 O   0  0  0  0  0  0  0  0  0  0  0  0
   58.4710   24.9880   45.4550 O   0  0  0  0  0  0  0  0  0  0  0  0
   57.1140   27.2200   45.0650 N   0  0  0  0  0  0  0  0  0  0  0  0
   58.1520   28.0790   45.5710 C   0  0  0  0  0  0  0  0  0  0  0  0
   58.8780   27.7670   46.7350 C   0  0  0  0  0  0  0  0  0  0  0  0
   59.9170   28.5970   47.1660 C   0  0  0  0  0  0  0  0  0  0  0  0
   60.2350   29.7630   46.4530 C   0  0  0  0  0  0  0  0  0  0  0  0
   61.4080   30.6100   46.8660 C   0  0  0  0  0  0  0  0  0  0  0  0
   61.4410   30.7590   48.3930 C   0  0  0  0  0  0  0  0  0  0  0  0
   62.6080   31.5650   48.8180 N   0  0  0  0  0  0  0  0  0  0  0  0
   62.3140   32.3680   50.0240 C   0  0  0  0  0  0  0  0  0  0  0  0
   61.2870   33.4860   49.7420 C   0  0  0  0  0  0  0  0  0  0  0  0
   61.4870   34.2020   48.3650 C   0  0  0  0  0  0  0  0  0  0  0  0
   60.3900   33.8290   47.4190 N   0  0  0  0  0  0  0  0  0  0  0  0
   59.1370   33.5090   48.1450 C   0  0  0  0  0  0  0  0  0  0  0  0
   58.1820   32.7270   47.2230 C   0  0  0  0  0  0  0  0  0  0  0  0
   58.3600   33.1130   45.7440 C   0  0  0  0  0  0  0  0  0  0  0  0
   58.7900   34.5790   45.6060 C   0  0  0  0  0  0  0  0  0  0  0  0
   60.0970   34.8610   46.3860 C   0  0  0  0  0  0  0  0  0  0  0  0
   62.9160   33.8940   47.8400 C   0  0  0  0  0  0  0  0  0  0  0  0
   63.1920   32.3770   47.7190 C   0  0  0  0  0  0  0  0  0  0  0  0
   59.5000   30.0850   45.3030 C   0  0  0  0  0  0  0  0  0  0  0  0
   58.4620   29.2540   44.8730 C   0  0  0  0  0  0  0  0  0  0  0  0
  1  2  1  0
  2  3  1  0
  3  4  1  0
  4  5  2  0
  4  6  1  0
  6  7  1  0
  7  8  2  0
  7  9  1  0
  9 10  1  0
 10 11  2  0
 10 12  2  0
 10 13  1  0
 13 14  1  0
 14 15  2  0
 15 16  1  0
 16 17  2  0
 17 18  1  0
 18 19  1  0
 19 20  1  0
 20 21  1  0
 21 22  1  0
 22 23  1  0
 23 24  1  0
 24 25  1  0
 25 26  1  0
 26 27  1  0
 27 28  1  0
 28 29  1  0
 23 30  1  0
 30 31  1  0
 17 32  1  0
 32 33  2  0
  9  2  2  0
 33 14  1  0
 31 20  1  0
 29 24  1  0
M  CHG  2   3  -1   6  -1
M  END
>  <UniqueID>  (777) 
2

>  <SMILES>  (777) 
Cc1[n-]c(=O)[n-]c(=O)c1S(=O)(=O)Nc1ccc(CCN2CCC(N3CCCCC3)CC2)cc1

>  <Energy>  (777) 
88.942598486362

>  <Genealogy>  (777) 
Cc1[n-]c(=O)[n-]c(=O)c1S(=O)(=O)Nc1ccc(CCN2CCC(N3CCCCC3)CC2)cc1 (protonated)
Cc1[n-]c(=O)[n-]c(=O)c1S(=O)(=O)Nc1ccc(CCN2CCC(N3CCCCC3)CC2)cc1 (3D coordinates assigned)
Cc1[n-]c(=O)[n-]c(=O)c1S(=O)(=O)Nc1ccc(CCN2CCC(N3CCCCC3)CC2)cc1 (nonaromatic ring conformer: 88.942598486362 kcal/mol)

>  <smiles>  (777) 
Cc1[nH]c(=O)[nH]c(=O)c1S(=O)(=O)Nc1ccc(CCN2CCC(N3CCCCC3)CC2)cc1

>  <score_type>  (777) 
oracle

>  <origin>  (777) 
adg

>  <m_score__min__energy>  (777) 
-14.140000000000001

>  <m_primary>  (777) 
energy

$$$$
7:0
     RDKit          3D

 25 27  0  0  0  0  0  0  0  0999 V2000
   57.4770   31.6750   43.0270 C   0  0  0  0  0  0  0  0  0  0  0  0
   57.7330   32.3050   44.3720 C   0  0  0  0  0  0  0  0  0  0  0  0
   57.9220   33.6960   44.4500 C   0  0  0  0  0  0  0  0  0  0  0  0
   58.1990   34.3060   45.6740 C   0  0  0  0  0  0  0  0  0  0  0  0
   58.3090   33.5360   46.8300 C   0  0  0  0  0  0  0  0  0  0  0  0
   58.1360   32.1520   46.7690 C   0  0  0  0  0  0  0  0  0  0  0  0
   57.8330   31.5230   45.5500 C   0  0  0  0  0  0  0  0  0  0  0  0
   57.6830   30.0470   45.4960 C   0  0  0  0  0  0  0  0  0  0  0  0
   56.5300   29.5790   45.2920 O   0  0  0  0  0  0  0  0  0  0  0  0
   58.8010   29.1300   45.6490 N   0  0  0  0  0  0  0  0  0  0  0  0
   58.5120   28.0760   46.6640 C   0  0  0  0  0  0  0  0  0  0  0  0
   58.8630   26.6600   46.1980 C   0  0  0  0  0  0  0  0  0  0  0  0
   58.3070   26.4290   44.8610 N   0  0  0  0  0  0  0  0  0  0  0  0
   57.5500   25.2460   44.5120 C   0  0  0  0  0  0  0  0  0  0  0  0
   57.3590   24.9700   43.2960 O   0  0  0  0  0  0  0  0  0  0  0  0
   56.9180   24.3510   45.5440 C   0  0  0  0  0  0  0  0  0  0  0  0
   55.4270   24.3680   45.4050 C   0  0  0  0  0  0  0  0  0  0  0  0
   54.6810   23.2950   45.0850 N   0  0  0  0  0  0  0  0  0  0  0  0
   53.4170   23.7710   45.1280 C   0  0  0  0  0  0  0  0  0  0  0  0
   52.4150   23.0520   44.8830 O   0  0  0  0  0  0  0  0  0  0  0  0
   53.3140   25.0760   45.4590 N   0  0  0  0  0  0  0  0  0  0  0  0
   54.5940   25.4370   45.6330 C   0  0  0  0  0  0  0  0  0  0  0  0
   54.9960   26.7150   46.0000 O   0  0  0  0  0  0  0  0  0  0  0  0
   58.6250   27.3970   43.8040 C   0  0  0  0  0  0  0  0  0  0  0  0
   59.3460   28.6410   44.3540 C   0  0  0  0  0  0  0  0  0  0  0  0
  1  2  1  0
  2  3  2  0
  3  4  1  0
  4  5  2  0
  5  6  1  0
  6  7  2  0
  7  8  1  0
  8  9  2  0
  8 10  1  0
 10 11  1  0
 11 12  1  0
 12 13  1  0
 13 14  1  0
 14 15  2  0
 14 16  1  0
 16 17  1  0
 17 18  1  0
 18 19  1  0
 19 20  2  0
 19 21  1  0
 21 22  1  0
 22 23  1  0
 13 24  1  0
 24 25  1  0
  7  2  1  0
 25 10  1  0
 22 17  2  0
M  CHG  4  10   1  18  -1  21  -1  23  -1
M  END
>  <UniqueID>  (778) 
8

>  <SMILES>  (778) 
Cc1ccccc1C(=O)[NH+]1CCN(C(=O)Cc2[n-]c(=O)[n-]c2[O-])CC1

>  <Energy>  (778) 
89.79095293251163

>  <Genealogy>  (778) 
Cc1ccccc1C(=O)[NH+]1CCN(C(=O)Cc2[n-]c(=O)[n-]c2[O-])CC1 (protonated)
Cc1ccccc1C(=O)[NH+]1CCN(C(=O)Cc2[n-]c(=O)[n-]c2[O-])CC1 (3D coordinates assigned)
Cc1ccccc1C(=O)[NH+]1CCN(C(=O)Cc2[n-]c(=O)[n-]c2[O-])CC1 (nonaromatic ring conformer: 89.79095293251163 kcal/mol)

>  <smiles>  (778) 
Cc1ccccc1C(=O)N1CCN(C(=O)Cc2[nH]c(=O)[nH]c2O)CC1

>  <score_type>  (778) 
oracle

>  <origin>  (778) 
adg

>  <m_score__min__energy>  (778) 
-14.710000000000001

>  <m_primary>  (778) 
energy

$$$$
26:0
     RDKit          3D

 32 34  0  0  0  0  0  0  0  0999 V2000
   56.3120   29.3310   52.8890 C   0  0  0  0  0  0  0  0  0  0  0  0
   56.9500   29.7440   51.6840 O   0  0  0  0  0  0  0  0  0  0  0  0
   57.7710   30.8760   51.5660 C   0  0  0  0  0  0  0  0  0  0  0  0
   57.3440   32.1550   51.9790 C   0  0  0  0  0  0  0  0  0  0  0  0
   58.1930   33.2540   51.8600 C   0  0  0  0  0  0  0  0  0  0  0  0
   59.4770   33.0910   51.3410 C   0  0  0  0  0  0  0  0  0  0  0  0
   59.9110   31.8290   50.9200 C   0  0  0  0  0  0  0  0  0  0  0  0
   59.0550   30.7200   51.0120 C   0  0  0  0  0  0  0  0  0  0  0  0
   59.4490   29.4220   50.5340 N   0  0  0  0  0  0  0  0  0  0  0  0
   59.5970   28.9840   48.8530 S   0  0  0  0  0  0  0  0  0  0  0  0
   58.3500   28.2590   48.4040 O   0  0  0  0  0  0  0  0  0  0  0  0
   60.7880   28.0680   48.6920 O   0  0  0  0  0  0  0  0  0  0  0  0
   59.7780   30.4370   47.8710 C   0  0  0  0  0  0  0  0  0  0  0  0
   61.0240   31.0690   47.7580 C   0  0  0  0  0  0  0  0  0  0  0  0
   61.1420   32.2690   47.0520 C   0  0  0  0  0  0  0  0  0  0  0  0
   60.0160   32.8470   46.4570 C   0  0  0  0  0  0  0  0  0  0  0  0
   58.7700   32.2100   46.5410 C   0  0  0  0  0  0  0  0  0  0  0  0
   57.5910   32.8180   45.9030 C   0  0  0  0  0  0  0  0  0  0  0  0
   57.2610   33.9910   46.2160 O   0  0  0  0  0  0  0  0  0  0  0  0
   56.8260   32.1230   44.9090 N   0  0  0  0  0  0  0  0  0  0  0  0
   57.2060   30.8610   44.2750 C   0  0  0  0  0  0  0  0  0  0  0  0
   56.0530   29.8880   44.2480 C   0  0  0  0  0  0  0  0  0  0  0  0
   55.1440   30.0590   43.3920 O   0  0  0  0  0  0  0  0  0  0  0  0
   55.9110   28.8070   45.1880 N   0  0  0  0  0  0  0  0  0  0  0  0
   56.7790   27.8800   45.4850 C   0  0  0  0  0  0  0  0  0  0  0  0
   58.1150   28.0840   45.3050 N   0  0  0  0  0  0  0  0  0  0  0  0
   59.0420   27.1320   45.5970 C   0  0  0  0  0  0  0  0  0  0  0  0
   58.6400   25.8920   46.0910 C   0  0  0  0  0  0  0  0  0  0  0  0
   57.2800   25.6450   46.2770 C   0  0  0  0  0  0  0  0  0  0  0  0
   56.3360   26.6330   45.9730 C   0  0  0  0  0  0  0  0  0  0  0  0
   54.9820   26.3600   46.1640 O   0  0  0  0  0  0  0  0  0  0  0  0
   58.6550   31.0040   47.2510 C   0  0  0  0  0  0  0  0  0  0  0  0
  1  2  1  0
  2  3  1  0
  3  4  2  0
  4  5  1  0
  5  6  2  0
  6  7  1  0
  7  8  2  0
  8  9  1  0
  9 10  1  0
 10 11  2  0
 10 12  2  0
 10 13  1  0
 13 14  2  0
 14 15  1  0
 15 16  2  0
 16 17  1  0
 17 18  1  0
 18 19  2  0
 18 20  1  0
 20 21  1  0
 21 22  1  0
 22 23  2  0
 22 24  1  0
 24 25  2  3
 25 26  1  0
 26 27  1  0
 27 28  2  0
 28 29  1  0
 29 30  2  0
 30 31  1  0
 17 32  2  0
  8  3  1  0
 32 13  1  0
 30 25  1  0
M  CHG  3   9  -1  20  -1  26  -1
M  END
>  <UniqueID>  (779) 
25

>  <SMILES>  (779) 
COc1ccccc1[N-]S(=O)(=O)c1cccc(C(=O)[N-]CC(=O)N=c2[n-]cccc2O)c1

>  <Energy>  (779) 
63.71304062253396

>  <Genealogy>  (779) 
COc1ccccc1[N-]S(=O)(=O)c1cccc(C(=O)[N-]CC(=O)N=c2[n-]cccc2O)c1 (protonated)
COc1ccccc1[N-]S(=O)(=O)c1cccc(C(=O)[N-]CC(=O)N=c2[n-]cccc2O)c1 (3D coordinates assigned)
COc1ccccc1[N-]S(=O)(=O)c1cccc(C(=O)[N-]CC(=O)N=c2[n-]cccc2O)c1 (optimized conformer: 63.71304062253396 kcal/mol)

>  <smiles>  (779) 
COc1ccccc1NS(=O)(=O)c1cccc(C(=O)NCC(=O)N=c2[nH]cccc2O)c1

>  <score_type>  (779) 
oracle

>  <origin>  (779) 
adg

>  <m_score__min__energy>  (779) 
-14.15

>  <m_primary>  (779) 
energy

$$$$
29:0
     RDKit          3D

 30 32  0  0  0  0  0  0  0  0999 V2000
   57.5030   33.7530   52.3640 C   0  0  0  0  0  0  0  0  0  0  0  0
   57.5180   32.2630   52.4900 C   0  0  0  0  0  0  0  0  0  0  0  0
   56.3290   31.5520   52.6440 C   0  0  0  0  0  0  0  0  0  0  0  0
   56.3690   30.1570   52.7340 C   0  0  0  0  0  0  0  0  0  0  0  0
   55.0870   29.3840   52.9350 C   0  0  0  0  0  0  0  0  0  0  0  0
   53.9000   30.2430   52.5910 C   0  0  0  0  0  0  0  0  0  0  0  0
   53.7160   30.7030   51.2760 C   0  0  0  0  0  0  0  0  0  0  0  0
   52.6310   31.5280   50.9620 C   0  0  0  0  0  0  0  0  0  0  0  0
   51.7260   31.9050   51.9600 C   0  0  0  0  0  0  0  0  0  0  0  0
   50.6490   32.7250   51.6460 O   0  0  0  0  0  0  0  0  0  0  0  0
   51.9060   31.4580   53.2720 C   0  0  0  0  0  0  0  0  0  0  0  0
   52.9910   30.6330   53.5890 C   0  0  0  0  0  0  0  0  0  0  0  0
   57.6180   29.5130   52.6860 C   0  0  0  0  0  0  0  0  0  0  0  0
   57.6840   28.2560   52.7730 O   0  0  0  0  0  0  0  0  0  0  0  0
   58.7600   30.2580   52.5390 N   0  0  0  0  0  0  0  0  0  0  0  0
   60.0770   29.6210   52.4450 C   0  0  0  0  0  0  0  0  0  0  0  0
   60.4920   29.5080   51.0100 C   0  0  0  0  0  0  0  0  0  0  0  0
   61.2880   28.5930   50.6650 O   0  0  0  0  0  0  0  0  0  0  0  0
   59.9490   30.4080   50.0350 N   0  0  0  0  0  0  0  0  0  0  0  0
   60.3980   30.4380   48.6460 C   0  0  0  0  0  0  0  0  0  0  0  0
   61.3750   31.5760   48.4480 C   0  0  0  0  0  0  0  0  0  0  0  0
   62.4790   31.3470   47.6060 C   0  0  0  0  0  0  0  0  0  0  0  0
   63.3560   32.3810   47.2780 C   0  0  0  0  0  0  0  0  0  0  0  0
   63.1340   33.6660   47.7690 C   0  0  0  0  0  0  0  0  0  0  0  0
   62.0400   33.9180   48.5980 C   0  0  0  0  0  0  0  0  0  0  0  0
   61.1570   32.8840   48.9570 C   0  0  0  0  0  0  0  0  0  0  0  0
   60.0400   33.2210   49.8630 C   0  0  0  0  0  0  0  0  0  0  0  0
   60.2910   33.7790   51.1500 N   0  0  0  0  0  0  0  0  0  0  0  0
   58.8510   33.0800   49.4690 O   0  0  0  0  0  0  0  0  0  0  0  0
   58.6940   31.5890   52.4350 N   0  0  0  0  0  0  0  0  0  0  0  0
  1  2  1  0
  2  3  1  0
  3  4  2  0
  4  5  1  0
  5  6  1  0
  6  7  2  0
  7  8  1  0
  8  9  2  0
  9 10  1  0
  9 11  1  0
 11 12  2  0
  4 13  1  0
 13 14  2  0
 13 15  1  0
 15 16  1  0
 16 17  1  0
 17 18  2  0
 17 19  1  0
 19 20  1  0
 20 21  1  0
 21 22  2  0
 22 23  1  0
 23 24  2  0
 24 25  1  0
 25 26  2  0
 26 27  1  0
 27 28  1  0
 27 29  2  0
 15 30  1  0
 30  2  2  0
 12  6  1  0
 26 21  1  0
M  CHG  2  10  -1  28  -1
M  END
>  <UniqueID>  (780) 
28

>  <SMILES>  (780) 
Cc1cc(Cc2ccc([O-])cc2)c(=O)n(CC(=O)NCc2ccccc2C([NH-])=O)n1

>  <Energy>  (780) 
55.78928038781103

>  <Genealogy>  (780) 
Cc1cc(Cc2ccc([O-])cc2)c(=O)n(CC(=O)NCc2ccccc2C([NH-])=O)n1 (protonated)
Cc1cc(Cc2ccc([O-])cc2)c(=O)n(CC(=O)NCc2ccccc2C([NH-])=O)n1 (3D coordinates assigned)
Cc1cc(Cc2ccc([O-])cc2)c(=O)n(CC(=O)NCc2ccccc2C([NH-])=O)n1 (optimized conformer: 55.78928038781103 kcal/mol)

>  <smiles>  (780) 
Cc1cc(Cc2ccc(O)cc2)c(=O)n(CC(=O)NCc2ccccc2C(N)=O)n1

>  <score_type>  (780) 
oracle

>  <origin>  (780) 
adg

>  <m_score__min__energy>  (780) 
-15.029999999999999

>  <m_primary>  (780) 
energy

$$$$
48:0
     RDKit          3D

 25 27  0  0  0  0  0  0  0  0999 V2000
   55.2610   30.0280   44.7030 O   0  0  0  0  0  0  0  0  0  0  0  0
   56.4780   29.7390   44.8520 C   0  0  0  0  0  0  0  0  0  0  0  0
   56.9020   28.3940   44.5800 N   0  0  0  0  0  0  0  0  0  0  0  0
   57.3830   27.5510   45.4490 C   0  0  0  0  0  0  0  0  0  0  0  0
   58.7200   27.5110   45.7250 N   0  0  0  0  0  0  0  0  0  0  0  0
   59.2420   26.6500   46.6380 C   0  0  0  0  0  0  0  0  0  0  0  0
   58.4050   25.7740   47.3320 C   0  0  0  0  0  0  0  0  0  0  0  0
   57.0330   25.8000   47.0800 C   0  0  0  0  0  0  0  0  0  0  0  0
   56.5130   26.6930   46.1380 C   0  0  0  0  0  0  0  0  0  0  0  0
   55.1440   26.7190   45.8910 O   0  0  0  0  0  0  0  0  0  0  0  0
   57.4310   30.8050   45.2440 C   0  0  0  0  0  0  0  0  0  0  0  0
   58.5780   30.5010   45.9980 C   0  0  0  0  0  0  0  0  0  0  0  0
   59.4710   31.5120   46.3650 C   0  0  0  0  0  0  0  0  0  0  0  0
   59.2350   32.8370   45.9780 C   0  0  0  0  0  0  0  0  0  0  0  0
   60.3570   34.1040   46.4620 S   0  0  0  0  0  0  0  0  0  0  0  0
   61.7000   33.8210   45.8470 O   0  0  0  0  0  0  0  0  0  0  0  0
   59.8620   35.4390   45.9770 O   0  0  0  0  0  0  0  0  0  0  0  0
   60.4960   34.1330   48.2040 N   0  0  0  0  0  0  0  0  0  0  0  0
   61.7570   33.4970   48.6520 C   0  0  0  0  0  0  0  0  0  0  0  0
   61.5190   32.1160   49.2870 C   0  0  0  0  0  0  0  0  0  0  0  0
   60.6390   32.1610   50.4010 O   0  0  0  0  0  0  0  0  0  0  0  0
   59.5840   33.1050   50.2620 C   0  0  0  0  0  0  0  0  0  0  0  0
   59.2970   33.5280   48.8120 C   0  0  0  0  0  0  0  0  0  0  0  0
   58.1080   33.1410   45.2030 C   0  0  0  0  0  0  0  0  0  0  0  0
   57.2140   32.1320   44.8340 C   0  0  0  0  0  0  0  0  0  0  0  0
  1  2  2  0
  2  3  1  0
  3  4  2  3
  4  5  1  0
  5  6  1  0
  6  7  2  0
  7  8  1  0
  8  9  2  0
  9 10  1  0
  2 11  1  0
 11 12  2  0
 12 13  1  0
 13 14  2  0
 14 15  1  0
 15 16  2  0
 15 17  2  0
 15 18  1  0
 18 19  1  0
 19 20  1  0
 20 21  1  0
 21 22  1  0
 22 23  1  0
 14 24  1  0
 24 25  2  0
  9  4  1  0
 25 11  1  0
 23 18  1  0
M  CHG  2   5  -1  10  -1
M  END
>  <UniqueID>  (781) 
43

>  <SMILES>  (781) 
O=C(N=c1[n-]cccc1[O-])c1ccc(S(=O)(=O)N2CCOCC2)cc1

>  <Energy>  (781) 
62.78110470067429

>  <Genealogy>  (781) 
O=C(N=c1[n-]cccc1[O-])c1ccc(S(=O)(=O)N2CCOCC2)cc1 (protonated)
O=C(N=c1[n-]cccc1[O-])c1ccc(S(=O)(=O)N2CCOCC2)cc1 (3D coordinates assigned)
O=C(N=c1[n-]cccc1[O-])c1ccc(S(=O)(=O)N2CCOCC2)cc1 (nonaromatic ring conformer: 62.78110470067429 kcal/mol)

>  <smiles>  (781) 
O=C(N=c1[nH]cccc1O)c1ccc(S(=O)(=O)N2CCOCC2)cc1

>  <score_type>  (781) 
oracle

>  <origin>  (781) 
adg

>  <m_score__min__energy>  (781) 
-14.02

>  <m_primary>  (781) 
energy

$$$$
65:0
     RDKit          3D

 30 32  0  0  0  0  0  0  0  0999 V2000
   58.7230   31.4750   47.8930 N   0  0  0  0  0  0  0  0  0  0  0  0
   58.9730   32.7920   47.3870 C   0  0  0  0  0  0  0  0  0  0  0  0
   59.6930   33.7000   48.1790 C   0  0  0  0  0  0  0  0  0  0  0  0
   60.0120   34.9700   47.6910 C   0  0  0  0  0  0  0  0  0  0  0  0
   59.6210   35.3430   46.4040 C   0  0  0  0  0  0  0  0  0  0  0  0
   58.9030   34.4500   45.6060 C   0  0  0  0  0  0  0  0  0  0  0  0
   58.5560   33.1800   46.0910 C   0  0  0  0  0  0  0  0  0  0  0  0
   57.8260   32.2920   45.2330 N   0  0  0  0  0  0  0  0  0  0  0  0
   58.3330   31.0110   44.8290 C   0  0  0  0  0  0  0  0  0  0  0  0
   59.4610   30.6160   45.2330 O   0  0  0  0  0  0  0  0  0  0  0  0
   57.5330   30.1380   43.9100 C   0  0  0  0  0  0  0  0  0  0  0  0
   56.1380   29.9470   44.4440 C   0  0  0  0  0  0  0  0  0  0  0  0
   55.2860   30.8550   44.2610 O   0  0  0  0  0  0  0  0  0  0  0  0
   55.7730   28.8100   45.2400 N   0  0  0  0  0  0  0  0  0  0  0  0
   56.6350   27.7230   45.6000 C   0  0  0  0  0  0  0  0  0  0  0  0
   58.0310   27.8710   45.5800 C   0  0  0  0  0  0  0  0  0  0  0  0
   58.8550   26.8030   45.9410 C   0  0  0  0  0  0  0  0  0  0  0  0
   58.2950   25.5770   46.3070 C   0  0  0  0  0  0  0  0  0  0  0  0
   56.9040   25.4040   46.2920 C   0  0  0  0  0  0  0  0  0  0  0  0
   56.1950   23.8680   46.7950 S   0  0  0  0  0  0  0  0  0  0  0  0
   57.2860   22.9760   47.3190 O   0  0  0  0  0  0  0  0  0  0  0  0
   55.1890   24.0900   47.8900 O   0  0  0  0  0  0  0  0  0  0  0  0
   55.4210   23.1290   45.4150 N   0  0  0  0  0  0  0  0  0  0  0  0
   55.7490   21.6880   45.3290 C   0  0  0  0  0  0  0  0  0  0  0  0
   56.7430   21.3820   44.1940 C   0  0  0  0  0  0  0  0  0  0  0  0
   56.2730   21.7930   42.9180 O   0  0  0  0  0  0  0  0  0  0  0  0
   55.5120   22.9960   42.9470 C   0  0  0  0  0  0  0  0  0  0  0  0
   55.7590   23.8700   44.1880 C   0  0  0  0  0  0  0  0  0  0  0  0
   56.0760   26.4780   45.9220 C   0  0  0  0  0  0  0  0  0  0  0  0
   54.6930   26.3140   45.8860 O   0  0  0  0  0  0  0  0  0  0  0  0
  1  2  1  0
  2  3  2  0
  3  4  1  0
  4  5  2  0
  5  6  1  0
  6  7  2  0
  7  8  1  0
  8  9  1  0
  9 10  2  0
  9 11  1  0
 11 12  1  0
 12 13  2  0
 12 14  1  0
 14 15  1  0
 15 16  2  0
 16 17  1  0
 17 18  2  0
 18 19  1  0
 19 20  1  0
 20 21  2  0
 20 22  2  0
 20 23  1  0
 23 24  1  0
 24 25  1  0
 25 26  1  0
 26 27  1  0
 27 28  1  0
 19 29  2  0
 29 30  1  0
  7  2  1  0
 29 15  1  0
 28 23  1  0
M  CHG  2  14  -1  30  -1
M  END
>  <UniqueID>  (782) 
58

>  <SMILES>  (782) 
Nc1ccccc1NC(=O)CC(=O)[N-]c1cccc(S(=O)(=O)N2CCOCC2)c1[O-]

>  <Energy>  (782) 
67.69097744437525

>  <Genealogy>  (782) 
Nc1ccccc1NC(=O)CC(=O)[N-]c1cccc(S(=O)(=O)N2CCOCC2)c1[O-] (protonated)
Nc1ccccc1NC(=O)CC(=O)[N-]c1cccc(S(=O)(=O)N2CCOCC2)c1[O-] (3D coordinates assigned)
Nc1ccccc1NC(=O)CC(=O)[N-]c1cccc(S(=O)(=O)N2CCOCC2)c1[O-] (nonaromatic ring conformer: 67.69097744437525 kcal/mol)

>  <smiles>  (782) 
Nc1ccccc1NC(=O)CC(=O)Nc1cccc(S(=O)(=O)N2CCOCC2)c1O

>  <score_type>  (782) 
oracle

>  <origin>  (782) 
adg

>  <m_score__min__energy>  (782) 
-15.85

>  <m_primary>  (782) 
energy

$$$$
72:0
     RDKit          3D

 28 30  0  0  0  0  0  0  0  0999 V2000
   54.7720   26.2680   45.9520 N   0  0  0  0  0  0  0  0  0  0  0  0
   56.4050   25.7000   45.9110 S   0  0  0  0  0  0  0  0  0  0  0  0
   56.7030   24.9790   47.1970 O   0  0  0  0  0  0  0  0  0  0  0  0
   56.5800   24.7450   44.7640 O   0  0  0  0  0  0  0  0  0  0  0  0
   57.4970   27.0660   45.7110 C   0  0  0  0  0  0  0  0  0  0  0  0
   58.8420   26.9740   46.0920 C   0  0  0  0  0  0  0  0  0  0  0  0
   59.6900   28.0730   45.9390 C   0  0  0  0  0  0  0  0  0  0  0  0
   59.1980   29.2740   45.4200 C   0  0  0  0  0  0  0  0  0  0  0  0
   57.8470   29.3870   45.0520 C   0  0  0  0  0  0  0  0  0  0  0  0
   57.3250   30.6680   44.5190 C   0  0  0  0  0  0  0  0  0  0  0  0
   57.0480   30.7580   43.2940 O   0  0  0  0  0  0  0  0  0  0  0  0
   57.0700   31.7980   45.3650 N   0  0  0  0  0  0  0  0  0  0  0  0
   57.9240   32.9400   45.5260 C   0  0  0  0  0  0  0  0  0  0  0  0
   58.0760   33.9470   44.5560 C   0  0  0  0  0  0  0  0  0  0  0  0
   58.9500   34.9550   44.9370 C   0  0  0  0  0  0  0  0  0  0  0  0
   59.5140   34.6090   46.4810 S   0  0  0  0  0  0  0  0  0  0  0  0
   58.6580   33.1740   46.6870 C   0  0  0  0  0  0  0  0  0  0  0  0
   58.7190   32.3290   47.8910 C   0  0  0  0  0  0  0  0  0  0  0  0
   57.8610   32.4620   48.8050 O   0  0  0  0  0  0  0  0  0  0  0  0
   59.7550   31.3530   48.0170 N   0  0  0  0  0  0  0  0  0  0  0  0
   60.8700   31.2580   47.0850 C   0  0  0  0  0  0  0  0  0  0  0  0
   62.0480   31.9990   47.6440 C   0  0  0  0  0  0  0  0  0  0  0  0
   62.5740   33.1140   46.9750 C   0  0  0  0  0  0  0  0  0  0  0  0
   63.6450   33.8180   47.5290 C   0  0  0  0  0  0  0  0  0  0  0  0
   64.1740   33.4090   48.7540 C   0  0  0  0  0  0  0  0  0  0  0  0
   63.6410   32.3380   49.4010 N   0  0  0  0  0  0  0  0  0  0  0  0
   62.6000   31.6330   48.8820 C   0  0  0  0  0  0  0  0  0  0  0  0
   57.0080   28.2660   45.1790 C   0  0  0  0  0  0  0  0  0  0  0  0
  1  2  1  0
  2  3  2  0
  2  4  2  0
  2  5  1  0
  5  6  2  0
  6  7  1  0
  7  8  2  0
  8  9  1  0
  9 10  1  0
 10 11  2  0
 10 12  1  0
 12 13  1  0
 13 14  1  0
 14 15  2  0
 15 16  1  0
 16 17  1  0
 17 18  1  0
 18 19  2  0
 18 20  1  0
 20 21  1  0
 21 22  1  0
 22 23  2  0
 23 24  1  0
 24 25  2  0
 25 26  1  0
 26 27  2  0
  9 28  2  0
 28  5  1  0
 17 13  2  0
 27 22  1  0
M  CHG  3   1  -1  12  -1  20  -1
M  END
>  <UniqueID>  (783) 
65

>  <SMILES>  (783) 
[NH-]S(=O)(=O)c1cccc(C(=O)[N-]c2ccsc2C(=O)[N-]Cc2cccnc2)c1

>  <Energy>  (783) 
72.77308989060184

>  <Genealogy>  (783) 
[NH-]S(=O)(=O)c1cccc(C(=O)[N-]c2ccsc2C(=O)[N-]Cc2cccnc2)c1 (protonated)
[NH-]S(=O)(=O)c1cccc(C(=O)[N-]c2ccsc2C(=O)[N-]Cc2cccnc2)c1 (3D coordinates assigned)
[NH-]S(=O)(=O)c1cccc(C(=O)[N-]c2ccsc2C(=O)[N-]Cc2cccnc2)c1 (optimized conformer: 72.77308989060184 kcal/mol)

>  <smiles>  (783) 
NS(=O)(=O)c1cccc(C(=O)Nc2ccsc2C(=O)NCc2cccnc2)c1

>  <score_type>  (783) 
oracle

>  <origin>  (783) 
adg

>  <m_score__min__energy>  (783) 
-14.18

>  <m_primary>  (783) 
energy

$$$$
79:0
     RDKit          3D

 26 28  0  0  0  0  0  0  0  0999 V2000
   55.4580   27.6850   54.5040 C   0  0  0  0  0  0  0  0  0  0  0  0
   55.9170   28.5810   53.6180 C   0  0  0  0  0  0  0  0  0  0  0  0
   57.2470   28.5490   53.3570 N   0  0  0  0  0  0  0  0  0  0  0  0
   57.8710   29.5050   52.6350 C   0  0  0  0  0  0  0  0  0  0  0  0
   59.1070   29.3870   52.4110 O   0  0  0  0  0  0  0  0  0  0  0  0
   57.1750   30.5890   52.1760 N   0  0  0  0  0  0  0  0  0  0  0  0
   57.8670   31.6130   51.3630 C   0  0  0  0  0  0  0  0  0  0  0  0
   58.3740   31.0240   50.0370 C   0  0  0  0  0  0  0  0  0  0  0  0
   58.8950   32.0950   49.1130 C   0  0  0  0  0  0  0  0  0  0  0  0
   58.1620   32.4640   47.9700 C   0  0  0  0  0  0  0  0  0  0  0  0
   58.6060   33.5080   47.1550 C   0  0  0  0  0  0  0  0  0  0  0  0
   59.7830   34.1910   47.4720 C   0  0  0  0  0  0  0  0  0  0  0  0
   60.5170   33.8320   48.6060 C   0  0  0  0  0  0  0  0  0  0  0  0
   60.0730   32.7910   49.4280 C   0  0  0  0  0  0  0  0  0  0  0  0
   55.8210   30.6710   52.3950 C   0  0  0  0  0  0  0  0  0  0  0  0
   55.1830   31.6750   51.9650 O   0  0  0  0  0  0  0  0  0  0  0  0
   55.1240   29.6200   53.0450 C   0  0  0  0  0  0  0  0  0  0  0  0
   53.7610   29.6440   53.0490 C   0  0  0  0  0  0  0  0  0  0  0  0
   52.9010   30.3810   52.0980 C   0  0  0  0  0  0  0  0  0  0  0  0
   52.7150   29.8750   50.8030 C   0  0  0  0  0  0  0  0  0  0  0  0
   51.8690   30.5330   49.9040 C   0  0  0  0  0  0  0  0  0  0  0  0
   51.1860   31.6870   50.3000 C   0  0  0  0  0  0  0  0  0  0  0  0
   50.3480   32.3370   49.4010 O   0  0  0  0  0  0  0  0  0  0  0  0
   51.3430   32.1810   51.6000 C   0  0  0  0  0  0  0  0  0  0  0  0
   50.6550   33.3210   52.0020 O   0  0  0  0  0  0  0  0  0  0  0  0
   52.1890   31.5250   52.5000 C   0  0  0  0  0  0  0  0  0  0  0  0
  1  2  2  0
  2  3  1  0
  3  4  1  0
  4  5  2  0
  4  6  1  0
  6  7  1  0
  7  8  1  0
  8  9  1  0
  9 10  2  0
 10 11  1  0
 11 12  2  0
 12 13  1  0
 13 14  2  0
  6 15  1  0
 15 16  2  0
 15 17  1  0
 17 18  2  3
 18 19  1  0
 19 20  2  0
 20 21  1  0
 21 22  2  0
 22 23  1  0
 22 24  1  0
 24 25  1  0
 24 26  2  0
 17  2  1  0
 26 19  1  0
 14  9  1  0
M  CHG  3   3  -1  23  -1  25  -1
M  END
>  <UniqueID>  (784) 
72

>  <SMILES>  (784) 
C=c1[n-]c(=O)n(CCc2ccccc2)c(=O)c1=Cc1ccc([O-])c([O-])c1

>  <Energy>  (784) 
66.75794745052428

>  <Genealogy>  (784) 
C=c1[n-]c(=O)n(CCc2ccccc2)c(=O)c1=Cc1ccc([O-])c([O-])c1 (protonated)
C=c1[n-]c(=O)n(CCc2ccccc2)c(=O)c1=Cc1ccc([O-])c([O-])c1 (3D coordinates assigned)
C=c1[n-]c(=O)n(CCc2ccccc2)c(=O)c1=Cc1ccc([O-])c([O-])c1 (optimized conformer: 66.75794745052428 kcal/mol)

>  <smiles>  (784) 
C=c1[nH]c(=O)n(CCc2ccccc2)c(=O)c1=Cc1ccc(O)c(O)c1

>  <score_type>  (784) 
oracle

>  <origin>  (784) 
adg

>  <m_score__min__energy>  (784) 
-17.690000000000001

>  <m_primary>  (784) 
energy

$$$$
87:0
     RDKit          3D

 27 29  0  0  0  0  0  0  0  0999 V2000
   59.7360   33.4510   50.7240 C   0  0  0  0  0  0  0  0  0  0  0  0
   60.0920   34.3130   49.6490 O   0  0  0  0  0  0  0  0  0  0  0  0
   61.1510   34.0880   48.7530 C   0  0  0  0  0  0  0  0  0  0  0  0
   62.4790   33.9700   49.2140 C   0  0  0  0  0  0  0  0  0  0  0  0
   63.5220   33.7210   48.3200 C   0  0  0  0  0  0  0  0  0  0  0  0
   63.2590   33.5870   46.9600 C   0  0  0  0  0  0  0  0  0  0  0  0
   61.9520   33.7080   46.4850 C   0  0  0  0  0  0  0  0  0  0  0  0
   60.8840   33.9660   47.3660 C   0  0  0  0  0  0  0  0  0  0  0  0
   59.5070   34.0960   46.8160 C   0  0  0  0  0  0  0  0  0  0  0  0
   59.1790   35.1470   46.1990 O   0  0  0  0  0  0  0  0  0  0  0  0
   58.5300   33.0720   47.0450 N   0  0  0  0  0  0  0  0  0  0  0  0
   58.7680   31.6600   47.1430 C   0  0  0  0  0  0  0  0  0  0  0  0
   59.3820   31.1640   48.2990 C   0  0  0  0  0  0  0  0  0  0  0  0
   59.6580   29.8020   48.4260 C   0  0  0  0  0  0  0  0  0  0  0  0
   59.3360   28.9230   47.3910 C   0  0  0  0  0  0  0  0  0  0  0  0
   58.7360   29.4030   46.2160 C   0  0  0  0  0  0  0  0  0  0  0  0
   58.4260   28.4630   45.0790 C   0  0  0  0  0  0  0  0  0  0  0  0
   57.5590   27.3180   45.5530 C   0  0  0  0  0  0  0  0  0  0  0  0
   56.1610   27.4550   45.6270 C   0  0  0  0  0  0  0  0  0  0  0  0
   55.5410   28.6350   45.2350 O   0  0  0  0  0  0  0  0  0  0  0  0
   55.4000   26.4280   46.0850 N   0  0  0  0  0  0  0  0  0  0  0  0
   55.9640   25.2570   46.4770 C   0  0  0  0  0  0  0  0  0  0  0  0
   55.2380   24.3200   46.8970 O   0  0  0  0  0  0  0  0  0  0  0  0
   57.3100   25.0970   46.4160 N   0  0  0  0  0  0  0  0  0  0  0  0
   58.1180   26.0940   45.9700 C   0  0  0  0  0  0  0  0  0  0  0  0
   59.3630   25.9060   45.9320 O   0  0  0  0  0  0  0  0  0  0  0  0
   58.4640   30.7760   46.0910 C   0  0  0  0  0  0  0  0  0  0  0  0
  1  2  1  0
  2  3  1  0
  3  4  2  0
  4  5  1  0
  5  6  2  0
  6  7  1  0
  7  8  2  0
  8  9  1  0
  9 10  2  0
  9 11  1  0
 11 12  1  0
 12 13  2  0
 13 14  1  0
 14 15  2  0
 15 16  1  0
 16 17  1  0
 17 18  1  0
 18 19  2  0
 19 20  1  0
 19 21  1  0
 21 22  1  0
 22 23  2  0
 22 24  1  0
 24 25  1  0
 25 26  2  0
 16 27  2  0
  8  3  1  0
 27 12  1  0
 25 18  1  0
M  CHG  4  11  -1  20  -1  21  -1  24  -1
M  END
>  <UniqueID>  (785) 
79

>  <SMILES>  (785) 
COc1ccccc1C(=O)[N-]c1cccc(Cc2c([O-])[n-]c(=O)[n-]c2=O)c1

>  <Energy>  (785) 
50.51836348894649

>  <Genealogy>  (785) 
COc1ccccc1C(=O)[N-]c1cccc(Cc2c([O-])[n-]c(=O)[n-]c2=O)c1 (protonated)
COc1ccccc1C(=O)[N-]c1cccc(Cc2c([O-])[n-]c(=O)[n-]c2=O)c1 (3D coordinates assigned)
COc1ccccc1C(=O)[N-]c1cccc(Cc2c([O-])[n-]c(=O)[n-]c2=O)c1 (optimized conformer: 50.51836348894649 kcal/mol)

>  <smiles>  (785) 
COc1ccccc1C(=O)Nc1cccc(Cc2c(O)[nH]c(=O)[nH]c2=O)c1

>  <score_type>  (785) 
oracle

>  <origin>  (785) 
adg

>  <m_score__min__energy>  (785) 
-16.75

>  <m_primary>  (785) 
energy

$$$$
6:0
     RDKit          3D

 27 29  0  0  0  0  0  0  0  0999 V2000
   53.0380   22.7340   45.2710 O   0  0  0  0  0  0  0  0  0  0  0  0
   54.2760   23.2540   45.6420 C   0  0  0  0  0  0  0  0  0  0  0  0
   54.5010   24.6360   45.6180 C   0  0  0  0  0  0  0  0  0  0  0  0
   55.7500   25.1590   45.9770 C   0  0  0  0  0  0  0  0  0  0  0  0
   55.9560   26.6270   45.9430 C   0  0  0  0  0  0  0  0  0  0  0  0
   57.1390   27.2380   46.1140 C   0  0  0  0  0  0  0  0  0  0  0  0
   57.3540   28.6940   45.9490 C   0  0  0  0  0  0  0  0  0  0  0  0
   56.4300   29.4920   45.2630 C   0  0  0  0  0  0  0  0  0  0  0  0
   55.2580   28.9470   44.7510 O   0  0  0  0  0  0  0  0  0  0  0  0
   56.6720   30.8150   45.0990 N   0  0  0  0  0  0  0  0  0  0  0  0
   57.7940   31.3970   45.5900 C   0  0  0  0  0  0  0  0  0  0  0  0
   57.9830   32.6280   45.3900 O   0  0  0  0  0  0  0  0  0  0  0  0
   58.7120   30.6510   46.2830 N   0  0  0  0  0  0  0  0  0  0  0  0
   59.9160   31.2710   46.7830 C   0  0  0  0  0  0  0  0  0  0  0  0
   61.1560   30.6290   46.6290 C   0  0  0  0  0  0  0  0  0  0  0  0
   62.3230   31.2310   47.1100 C   0  0  0  0  0  0  0  0  0  0  0  0
   62.2590   32.4740   47.7460 C   0  0  0  0  0  0  0  0  0  0  0  0
   61.0270   33.1190   47.9010 C   0  0  0  0  0  0  0  0  0  0  0  0
   59.8590   32.5200   47.4210 C   0  0  0  0  0  0  0  0  0  0  0  0
   58.4970   29.3110   46.4800 C   0  0  0  0  0  0  0  0  0  0  0  0
   59.3300   28.6210   47.1330 O   0  0  0  0  0  0  0  0  0  0  0  0
   56.7610   24.2840   46.4150 C   0  0  0  0  0  0  0  0  0  0  0  0
   56.5500   22.8940   46.4250 C   0  0  0  0  0  0  0  0  0  0  0  0
   57.5540   21.9910   46.8110 O   0  0  0  0  0  0  0  0  0  0  0  0
   58.0350   20.9260   45.9960 C   0  0  0  0  0  0  0  0  0  0  0  0
   55.3020   22.3860   46.0380 C   0  0  0  0  0  0  0  0  0  0  0  0
   55.0790   21.0140   46.0490 O   0  0  0  0  0  0  0  0  0  0  0  0
  1  2  1  0
  2  3  2  0
  3  4  1  0
  4  5  1  0
  5  6  2  0
  6  7  1  0
  7  8  2  0
  8  9  1  0
  8 10  1  0
 10 11  1  0
 11 12  2  0
 11 13  1  0
 13 14  1  0
 14 15  2  0
 15 16  1  0
 16 17  2  0
 17 18  1  0
 18 19  2  0
 13 20  1  0
 20 21  2  0
  4 22  2  0
 22 23  1  0
 23 24  1  0
 24 25  1  0
 23 26  2  0
 26 27  1  0
 26  2  1  0
 20  7  1  0
 19 14  1  0
M  CHG  3   9  -1  10  -1  27  -1
M  END
>  <UniqueID>  (786) 
7

>  <SMILES>  (786) 
COc1cc(/C=C\c2c([O-])[n-]c(=O)n(-c3ccccc3)c2=O)cc(O)c1[O-]

>  <Energy>  (786) 
63.97521721191127

>  <Genealogy>  (786) 
COc1cc(C=Cc2c([O-])[n-]c(=O)n(-c3ccccc3)c2=O)cc(O)c1[O-] (protonated)
COc1cc(/C=C\c2c([O-])[n-]c(=O)n(-c3ccccc3)c2=O)cc(O)c1[O-] (cis-trans isomerization)
COc1cc(/C=C\c2c([O-])[n-]c(=O)n(-c3ccccc3)c2=O)cc(O)c1[O-] (3D coordinates assigned)
COc1cc(/C=C\c2c([O-])[n-]c(=O)n(-c3ccccc3)c2=O)cc(O)c1[O-] (optimized conformer: 63.97521721191127 kcal/mol)

>  <smiles>  (786) 
COc1cc(C=Cc2c(O)[nH]c(=O)n(-c3ccccc3)c2=O)cc(O)c1O

>  <score_type>  (786) 
oracle

>  <origin>  (786) 
adg

>  <m_score__min__energy>  (786) 
-14.140000000000001

>  <m_primary>  (786) 
energy

$$$$
14:0
     RDKit          3D

 25 27  0  0  0  0  0  0  0  0999 V2000
   56.2440   29.5360   42.7020 C   0  0  0  0  0  0  0  0  0  0  0  0
   55.9530   30.1140   44.0540 C   0  0  0  0  0  0  0  0  0  0  0  0
   55.1370   29.5200   44.8070 O   0  0  0  0  0  0  0  0  0  0  0  0
   56.6050   31.2980   44.5340 N   0  0  0  0  0  0  0  0  0  0  0  0
   57.7160   31.3600   45.4400 C   0  0  0  0  0  0  0  0  0  0  0  0
   58.6030   32.4550   45.3480 C   0  0  0  0  0  0  0  0  0  0  0  0
   59.7270   32.5440   46.1860 C   0  0  0  0  0  0  0  0  0  0  0  0
   59.9560   31.5170   47.1010 C   0  0  0  0  0  0  0  0  0  0  0  0
   59.0970   30.4310   47.1860 C   0  0  0  0  0  0  0  0  0  0  0  0
   57.9780   30.3210   46.3580 C   0  0  0  0  0  0  0  0  0  0  0  0
   59.5400   29.5880   48.1120 C   0  0  0  0  0  0  0  0  0  0  0  0
   58.9970   28.2410   48.4830 C   0  0  0  0  0  0  0  0  0  0  0  0
   59.8820   27.1680   47.9370 C   0  0  0  0  0  0  0  0  0  0  0  0
   60.8800   26.7820   48.6050 O   0  0  0  0  0  0  0  0  0  0  0  0
   59.5830   26.5880   46.6610 N   0  0  0  0  0  0  0  0  0  0  0  0
   58.3760   25.9070   46.2960 C   0  0  0  0  0  0  0  0  0  0  0  0
   58.3790   24.5740   45.8440 C   0  0  0  0  0  0  0  0  0  0  0  0
   57.1800   23.9560   45.4700 C   0  0  0  0  0  0  0  0  0  0  0  0
   55.9770   24.6650   45.5280 C   0  0  0  0  0  0  0  0  0  0  0  0
   55.9720   25.9970   45.9520 C   0  0  0  0  0  0  0  0  0  0  0  0
   54.7770   26.7060   45.9980 O   0  0  0  0  0  0  0  0  0  0  0  0
   57.1680   26.6170   46.3270 C   0  0  0  0  0  0  0  0  0  0  0  0
   60.7580   30.2230   48.5920 C   0  0  0  0  0  0  0  0  0  0  0  0
   61.5360   29.7630   49.4690 O   0  0  0  0  0  0  0  0  0  0  0  0
   60.9660   31.4560   47.9110 N   0  0  0  0  0  0  0  0  0  0  0  0
  1  2  1  0
  2  3  2  0
  2  4  1  0
  4  5  1  0
  5  6  1  0
  6  7  2  0
  7  8  1  0
  8  9  1  0
  9 10  1  0
  9 11  2  0
 11 12  1  0
 12 13  1  0
 13 14  2  0
 13 15  1  0
 15 16  1  0
 16 17  2  0
 17 18  1  0
 18 19  2  0
 19 20  1  0
 20 21  1  0
 20 22  2  0
 11 23  1  0
 23 24  2  0
 23 25  1  0
 10  5  2  0
 22 16  1  0
 25  8  2  0
M  CHG  3   4  -1  15  -1  21  -1
M  END
>  <UniqueID>  (787) 
15

>  <SMILES>  (787) 
CC(=O)[N-]c1ccc2c(c1)=C(CC(=O)[N-]c1cccc([O-])c1)C(=O)N=2

>  <Energy>  (787) 
75.37351865335854

>  <Genealogy>  (787) 
CC(=O)[N-]c1ccc2c(c1)=C(CC(=O)[N-]c1cccc([O-])c1)C(=O)N=2 (protonated)
CC(=O)[N-]c1ccc2c(c1)=C(CC(=O)[N-]c1cccc([O-])c1)C(=O)N=2 (3D coordinates assigned)
CC(=O)[N-]c1ccc2c(c1)=C(CC(=O)[N-]c1cccc([O-])c1)C(=O)N=2 (nonaromatic ring conformer: 75.37351865335854 kcal/mol)

>  <smiles>  (787) 
CC(=O)Nc1ccc2c(c1)=C(CC(=O)Nc1cccc(O)c1)C(=O)N=2

>  <score_type>  (787) 
oracle

>  <origin>  (787) 
adg

>  <m_score__min__energy>  (787) 
-14.890000000000001

>  <m_primary>  (787) 
energy

$$$$
18:0
     RDKit          3D

 31 33  0  0  0  0  0  0  0  0999 V2000
   58.6670   31.6010   52.6250 C   0  0  0  0  0  0  0  0  0  0  0  0
   57.8550   30.9700   51.1750 S   0  0  0  0  0  0  0  0  0  0  0  0
   57.7290   32.0700   50.1590 O   0  0  0  0  0  0  0  0  0  0  0  0
   56.4870   30.4740   51.5520 O   0  0  0  0  0  0  0  0  0  0  0  0
   58.7990   29.6650   50.5250 N   0  0  0  0  0  0  0  0  0  0  0  0
   60.0890   30.1700   50.0670 C   0  0  0  0  0  0  0  0  0  0  0  0
   60.4250   29.5860   48.6930 C   0  0  0  0  0  0  0  0  0  0  0  0
   59.6550   30.2580   47.6200 N   0  0  0  0  0  0  0  0  0  0  0  0
   59.9970   31.5230   47.1850 C   0  0  0  0  0  0  0  0  0  0  0  0
   61.1780   32.2380   47.7220 C   0  0  0  0  0  0  0  0  0  0  0  0
   62.4460   32.0270   47.1590 C   0  0  0  0  0  0  0  0  0  0  0  0
   63.5630   32.6890   47.6780 C   0  0  0  0  0  0  0  0  0  0  0  0
   63.4200   33.5560   48.7660 C   0  0  0  0  0  0  0  0  0  0  0  0
   62.1610   33.7590   49.3400 C   0  0  0  0  0  0  0  0  0  0  0  0
   62.0240   34.5940   50.3980 F   0  0  0  0  0  0  0  0  0  0  0  0
   61.0420   33.0980   48.8220 C   0  0  0  0  0  0  0  0  0  0  0  0
   59.2140   32.1540   46.2010 C   0  0  0  0  0  0  0  0  0  0  0  0
   59.6020   33.7560   45.5850 Cl  0  0  0  0  0  0  0  0  0  0  0  0
   58.1330   31.5150   45.6950 N   0  0  0  0  0  0  0  0  0  0  0  0
   57.7770   30.2750   46.1130 C   0  0  0  0  0  0  0  0  0  0  0  0
   56.7300   29.6830   45.6150 N   0  0  0  0  0  0  0  0  0  0  0  0
   56.7830   28.6620   44.5730 C   0  0  0  0  0  0  0  0  0  0  0  0
   57.3370   27.3890   45.1500 C   0  0  0  0  0  0  0  0  0  0  0  0
   58.7160   27.1290   45.0800 C   0  0  0  0  0  0  0  0  0  0  0  0
   59.2440   25.9630   45.6410 C   0  0  0  0  0  0  0  0  0  0  0  0
   58.4020   25.0530   46.2870 C   0  0  0  0  0  0  0  0  0  0  0  0
   57.0320   25.3100   46.3770 C   0  0  0  0  0  0  0  0  0  0  0  0
   56.4960   26.4760   45.8180 C   0  0  0  0  0  0  0  0  0  0  0  0
   55.1320   26.7210   45.9310 O   0  0  0  0  0  0  0  0  0  0  0  0
   58.5480   29.6330   47.0920 C   0  0  0  0  0  0  0  0  0  0  0  0
   58.2100   28.4810   47.4850 O   0  0  0  0  0  0  0  0  0  0  0  0
  1  2  1  0
  2  3  2  0
  2  4  2  0
  2  5  1  0
  5  6  1  0
  6  7  1  0
  7  8  1  0
  8  9  1  0
  9 10  1  0
 10 11  2  0
 11 12  1  0
 12 13  2  0
 13 14  1  0
 14 15  1  0
 14 16  2  0
  9 17  2  0
 17 18  1  0
 17 19  1  0
 19 20  1  0
 20 21  2  3
 21 22  1  0
 22 23  1  0
 23 24  2  0
 24 25  1  0
 25 26  2  0
 26 27  1  0
 27 28  2  0
 28 29  1  0
 20 30  1  0
 30 31  2  0
 30  8  1  0
 16 10  1  0
 28 23  1  0
M  CHG  3   5  -1  19  -1  29  -1
M  END
>  <UniqueID>  (788) 
19

>  <SMILES>  (788) 
CS(=O)(=O)[N-]CCn1c(-c2cccc(F)c2)c(Cl)[n-]c(=NCc2ccccc2[O-])c1=O

>  <Energy>  (788) 
55.63867722438255

>  <Genealogy>  (788) 
CS(=O)(=O)[N-]CCn1c(-c2cccc(F)c2)c(Cl)[n-]c(=NCc2ccccc2[O-])c1=O (protonated)
CS(=O)(=O)[N-]CCn1c(-c2cccc(F)c2)c(Cl)[n-]c(=NCc2ccccc2[O-])c1=O (3D coordinates assigned)
CS(=O)(=O)[N-]CCn1c(-c2cccc(F)c2)c(Cl)[n-]c(=NCc2ccccc2[O-])c1=O (optimized conformer: 55.63867722438255 kcal/mol)

>  <smiles>  (788) 
CS(=O)(=O)NCCn1c(-c2cccc(F)c2)c(Cl)[nH]c(=NCc2ccccc2O)c1=O

>  <score_type>  (788) 
oracle

>  <origin>  (788) 
adg

>  <m_score__min__energy>  (788) 
-14.34

>  <m_primary>  (788) 
energy

$$$$
25:0
     RDKit          3D

 31 33  0  0  0  0  0  0  0  0999 V2000
   57.2530   30.4940   45.7100 O   0  0  0  0  0  0  0  0  0  0  0  0
   56.5760   29.8740   44.8480 C   0  0  0  0  0  0  0  0  0  0  0  0
   56.6230   30.3240   43.4100 C   0  0  0  0  0  0  0  0  0  0  0  0
   57.7380   31.3500   43.1650 C   0  0  0  0  0  0  0  0  0  0  0  0
   57.4430   32.7060   43.8210 C   0  0  0  0  0  0  0  0  0  0  0  0
   58.6390   33.5470   43.8640 N   0  0  0  0  0  0  0  0  0  0  0  0
   59.0730   34.3180   44.9920 C   0  0  0  0  0  0  0  0  0  0  0  0
   59.2290   35.5600   44.8570 O   0  0  0  0  0  0  0  0  0  0  0  0
   59.3360   33.7010   46.3070 C   0  0  0  0  0  0  0  0  0  0  0  0
   59.2850   34.4730   47.4770 C   0  0  0  0  0  0  0  0  0  0  0  0
   59.5150   33.8830   48.7220 C   0  0  0  0  0  0  0  0  0  0  0  0
   59.8080   32.5160   48.8110 C   0  0  0  0  0  0  0  0  0  0  0  0
   60.0670   31.7680   50.3850 S   0  0  0  0  0  0  0  0  0  0  0  0
   60.4990   32.8120   51.3770 O   0  0  0  0  0  0  0  0  0  0  0  0
   61.1510   30.7360   50.2490 O   0  0  0  0  0  0  0  0  0  0  0  0
   58.5950   31.0040   50.9340 N   0  0  0  0  0  0  0  0  0  0  0  0
   57.7080   31.9980   51.5560 C   0  0  0  0  0  0  0  0  0  0  0  0
   56.4000   31.3190   52.0130 C   0  0  0  0  0  0  0  0  0  0  0  0
   56.4760   29.9050   51.9570 O   0  0  0  0  0  0  0  0  0  0  0  0
   57.6380   29.4590   52.6270 C   0  0  0  0  0  0  0  0  0  0  0  0
   58.9110   29.9340   51.8970 C   0  0  0  0  0  0  0  0  0  0  0  0
   59.8460   31.7390   47.6460 C   0  0  0  0  0  0  0  0  0  0  0  0
   59.6000   32.3260   46.4010 C   0  0  0  0  0  0  0  0  0  0  0  0
   55.9060   28.6680   45.2350 N   0  0  0  0  0  0  0  0  0  0  0  0
   56.5460   27.4590   45.6610 C   0  0  0  0  0  0  0  0  0  0  0  0
   57.9400   27.4360   45.7850 C   0  0  0  0  0  0  0  0  0  0  0  0
   58.5910   26.2780   46.2230 C   0  0  0  0  0  0  0  0  0  0  0  0
   57.8480   25.1450   46.5610 C   0  0  0  0  0  0  0  0  0  0  0  0
   56.4550   25.1660   46.4630 C   0  0  0  0  0  0  0  0  0  0  0  0
   55.7990   26.3210   46.0230 C   0  0  0  0  0  0  0  0  0  0  0  0
   54.4090   26.3380   45.9710 O   0  0  0  0  0  0  0  0  0  0  0  0
  1  2  2  0
  2  3  1  0
  3  4  1  0
  4  5  1  0
  5  6  1  0
  6  7  1  0
  7  8  2  0
  7  9  1  0
  9 10  2  0
 10 11  1  0
 11 12  2  0
 12 13  1  0
 13 14  2  0
 13 15  2  0
 13 16  1  0
 16 17  1  0
 17 18  1  0
 18 19  1  0
 19 20  1  0
 20 21  1  0
 12 22  1  0
 22 23  2  0
  2 24  1  0
 24 25  1  0
 25 26  2  0
 26 27  1  0
 27 28  2  0
 28 29  1  0
 29 30  2  0
 30 31  1  0
 23  9  1  0
 30 25  1  0
 21 16  1  0
M  CHG  3   6  -1  24  -1  31  -1
M  END
>  <UniqueID>  (789) 
26

>  <SMILES>  (789) 
O=C(CCC[N-]C(=O)c1ccc(S(=O)(=O)N2CCOCC2)cc1)[N-]c1ccccc1[O-]

>  <Energy>  (789) 
64.75627654371617

>  <Genealogy>  (789) 
O=C(CCC[N-]C(=O)c1ccc(S(=O)(=O)N2CCOCC2)cc1)[N-]c1ccccc1[O-] (protonated)
O=C(CCC[N-]C(=O)c1ccc(S(=O)(=O)N2CCOCC2)cc1)[N-]c1ccccc1[O-] (3D coordinates assigned)
O=C(CCC[N-]C(=O)c1ccc(S(=O)(=O)N2CCOCC2)cc1)[N-]c1ccccc1[O-] (nonaromatic ring conformer: 64.75627654371617 kcal/mol)

>  <smiles>  (789) 
O=C(CCCNC(=O)c1ccc(S(=O)(=O)N2CCOCC2)cc1)Nc1ccccc1O

>  <score_type>  (789) 
oracle

>  <origin>  (789) 
adg

>  <m_score__min__energy>  (789) 
-16.43

>  <m_primary>  (789) 
energy

$$$$
31:0
     RDKit          3D

 27 29  0  0  0  0  0  0  0  0999 V2000
   51.0310   23.3830   45.6750 C   0  0  0  0  0  0  0  0  0  0  0  0
   52.0900   24.0480   44.8020 C   0  0  0  0  0  0  0  0  0  0  0  0
   53.2440   24.4470   45.6060 N   0  0  0  0  0  0  0  0  0  0  0  0
   54.2400   23.5160   46.0440 C   0  0  0  0  0  0  0  0  0  0  0  0
   54.1580   22.2980   45.7260 O   0  0  0  0  0  0  0  0  0  0  0  0
   55.3530   23.9890   46.8100 N   0  0  0  0  0  0  0  0  0  0  0  0
   56.4150   24.8130   46.3110 C   0  0  0  0  0  0  0  0  0  0  0  0
   57.6820   24.2420   46.1450 C   0  0  0  0  0  0  0  0  0  0  0  0
   58.7450   25.0070   45.6620 C   0  0  0  0  0  0  0  0  0  0  0  0
   58.5470   26.3460   45.3210 C   0  0  0  0  0  0  0  0  0  0  0  0
   57.2760   26.9250   45.4400 C   0  0  0  0  0  0  0  0  0  0  0  0
   57.0230   28.6090   44.9730 S   0  0  0  0  0  0  0  0  0  0  0  0
   55.5710   28.9530   45.1610 O   0  0  0  0  0  0  0  0  0  0  0  0
   57.3720   28.7960   43.5230 O   0  0  0  0  0  0  0  0  0  0  0  0
   58.0160   29.6760   45.9340 N   0  0  0  0  0  0  0  0  0  0  0  0
   58.8540   29.1030   46.9980 C   0  0  0  0  0  0  0  0  0  0  0  0
   58.9520   30.0350   48.1700 C   0  0  0  0  0  0  0  0  0  0  0  0
   59.2010   29.5840   49.3180 O   0  0  0  0  0  0  0  0  0  0  0  0
   58.8410   31.4430   47.9700 N   0  0  0  0  0  0  0  0  0  0  0  0
   58.4800   31.9700   46.6930 C   0  0  0  0  0  0  0  0  0  0  0  0
   58.5180   33.3510   46.4750 C   0  0  0  0  0  0  0  0  0  0  0  0
   58.1710   33.8730   45.2270 C   0  0  0  0  0  0  0  0  0  0  0  0
   57.7850   33.0160   44.1940 C   0  0  0  0  0  0  0  0  0  0  0  0
   57.7360   31.6350   44.4080 C   0  0  0  0  0  0  0  0  0  0  0  0
   58.0750   31.0960   45.6660 C   0  0  0  0  0  0  0  0  0  0  0  0
   56.2040   26.1540   45.9250 C   0  0  0  0  0  0  0  0  0  0  0  0
   54.9290   26.7100   45.9930 O   0  0  0  0  0  0  0  0  0  0  0  0
  1  2  1  0
  2  3  1  0
  3  4  1  0
  4  5  2  0
  4  6  1  0
  6  7  1  0
  7  8  2  0
  8  9  1  0
  9 10  2  0
 10 11  1  0
 11 12  1  0
 12 13  2  0
 12 14  2  0
 12 15  1  0
 15 16  1  0
 16 17  1  0
 17 18  2  0
 17 19  1  0
 19 20  1  0
 20 21  2  0
 21 22  1  0
 22 23  2  0
 23 24  1  0
 24 25  2  0
 11 26  2  0
 26 27  1  0
 26  7  1  0
 25 15  1  0
 25 20  1  0
M  CHG  3   6  -1  19  -1  27  -1
M  END
>  <UniqueID>  (790) 
32

>  <SMILES>  (790) 
CCNC(=O)[N-]c1cccc(S(=O)(=O)N2CC(=O)[N-]c3ccccc32)c1[O-]

>  <Energy>  (790) 
50.37393543228975

>  <Genealogy>  (790) 
CCNC(=O)[N-]c1cccc(S(=O)(=O)N2CC(=O)[N-]c3ccccc32)c1[O-] (protonated)
CCNC(=O)[N-]c1cccc(S(=O)(=O)N2CC(=O)[N-]c3ccccc32)c1[O-] (3D coordinates assigned)
CCNC(=O)[N-]c1cccc(S(=O)(=O)N2CC(=O)[N-]c3ccccc32)c1[O-] (nonaromatic ring conformer: 50.37393543228975 kcal/mol)

>  <smiles>  (790) 
CCNC(=O)Nc1cccc(S(=O)(=O)N2CC(=O)Nc3ccccc32)c1O

>  <score_type>  (790) 
oracle

>  <origin>  (790) 
adg

>  <m_score__min__energy>  (790) 
-15.24

>  <m_primary>  (790) 
energy

$$$$
32:0
     RDKit          3D

 32 35  0  0  0  0  0  0  0  0999 V2000
   54.2690   26.7320   46.5960 H   0  0  0  0  0  0  0  0  0  0  0  0
   55.0330   26.3280   46.0080 N   0  0  0  0  0  0  0  0  0  0  0  0
   56.1440   26.9630   45.8140 C   0  0  0  0  0  0  0  0  0  0  0  0
   56.1360   28.1970   45.2470 N   0  0  0  0  0  0  0  0  0  0  0  0
   57.2760   28.9110   45.0330 C   0  0  0  0  0  0  0  0  0  0  0  0
   57.1540   30.2580   44.3850 C   0  0  0  0  0  0  0  0  0  0  0  0
   58.5260   28.3750   45.4360 C   0  0  0  0  0  0  0  0  0  0  0  0
   59.8310   29.1130   45.2160 C   0  0  0  0  0  0  0  0  0  0  0  0
   60.1040   30.0640   46.2920 N   0  0  0  0  0  0  0  0  0  0  0  0
   59.1930   30.4450   47.3330 C   0  0  0  0  0  0  0  0  0  0  0  0
   58.4750   31.4650   47.1630 O   0  0  0  0  0  0  0  0  0  0  0  0
   59.0340   29.6490   48.5970 C   0  0  0  0  0  0  0  0  0  0  0  0
   59.4110   30.4550   49.7530 N   0  0  0  0  0  0  0  0  0  0  0  0
   60.6060   30.9820   49.9350 N   0  0  0  0  0  0  0  0  0  0  0  0
   60.5320   31.6620   51.0980 C   0  0  0  0  0  0  0  0  0  0  0  0
   61.6460   32.5160   51.6160 C   0  0  0  0  0  0  0  0  0  0  0  0
   61.7100   33.8710   50.8940 C   0  0  0  0  0  0  0  0  0  0  0  0
   62.0620   33.7230   49.4230 C   0  0  0  0  0  0  0  0  0  0  0  0
   63.3670   33.3040   49.1100 C   0  0  0  0  0  0  0  0  0  0  0  0
   63.7620   33.1060   47.7900 C   0  0  0  0  0  0  0  0  0  0  0  0
   62.8580   33.2990   46.7490 C   0  0  0  0  0  0  0  0  0  0  0  0
   61.5430   33.6950   47.0210 C   0  0  0  0  0  0  0  0  0  0  0  0
   60.6340   33.8550   45.9630 C   0  0  0  0  0  0  0  0  0  0  0  0
   59.3190   34.2420   46.2190 C   0  0  0  0  0  0  0  0  0  0  0  0
   58.9000   34.4810   47.5270 C   0  0  0  0  0  0  0  0  0  0  0  0
   59.7920   34.3300   48.5910 C   0  0  0  0  0  0  0  0  0  0  0  0
   61.1280   33.9250   48.3640 C   0  0  0  0  0  0  0  0  0  0  0  0
   59.3080   31.5950   51.6750 N   0  0  0  0  0  0  0  0  0  0  0  0
   58.6460   30.8180   50.7960 C   0  0  0  0  0  0  0  0  0  0  0  0
   57.4380   30.4870   50.9350 O   0  0  0  0  0  0  0  0  0  0  0  0
   58.5440   27.0830   45.9910 C   0  0  0  0  0  0  0  0  0  0  0  0
   57.3560   26.3810   46.1900 C   0  0  0  0  0  0  0  0  0  0  0  0
  1  2  1  0
  2  3  2  0
  3  4  1  0
  4  5  1  0
  5  6  1  0
  5  7  2  0
  7  8  1  0
  8  9  1  0
  9 10  1  0
 10 11  2  0
 10 12  1  0
 12 13  1  0
 13 14  1  0
 14 15  1  0
 15 16  1  0
 16 17  1  0
 17 18  1  0
 18 19  2  0
 19 20  1  0
 20 21  2  0
 21 22  1  0
 22 23  2  0
 23 24  1  0
 24 25  2  0
 25 26  1  0
 26 27  2  0
 15 28  2  0
 28 29  1  0
 29 30  2  0
  7 31  1  0
 31 32  2  0
 32  3  1  0
 29 13  1  0
 27 18  1  0
 27 22  1  0
M  CHG  3   4  -1   9  -1  14  -1
M  END
>  <UniqueID>  (791) 
33

>  <SMILES>  (791) 
[H]/N=c1/ccc(C[N-]C(=O)Cn2[n-]c(CCc3cccc4ccccc34)nc2=O)c(C)[n-]1

>  <Energy>  (791) 
86.57791356174552

>  <Genealogy>  (791) 
Cc1[n-]c(=N)ccc1C[N-]C(=O)Cn1[n-]c(CCc2cccc3ccccc23)nc1=O (protonated)
[H]/N=c1/ccc(C[N-]C(=O)Cn2[n-]c(CCc3cccc4ccccc34)nc2=O)c(C)[n-]1 (cis-trans isomerization)
[H]/N=c1/ccc(C[N-]C(=O)Cn2[n-]c(CCc3cccc4ccccc34)nc2=O)c(C)[n-]1 (3D coordinates assigned)
[H]/N=c1/ccc(C[N-]C(=O)Cn2[n-]c(CCc3cccc4ccccc34)nc2=O)c(C)[n-]1 (optimized conformer: 86.57791356174552 kcal/mol)

>  <smiles>  (791) 
Cc1[nH]c(=N)ccc1CNC(=O)Cn1[nH]c(CCc2cccc3ccccc23)nc1=O

>  <score_type>  (791) 
oracle

>  <origin>  (791) 
adg

>  <m_score__min__energy>  (791) 
-14.550000000000001

>  <m_primary>  (791) 
energy

$$$$
36:0
     RDKit          3D

 32 34  0  0  0  0  0  0  0  0999 V2000
   58.4290   27.4580   43.5090 C   0  0  0  0  0  0  0  0  0  0  0  0
   58.4260   28.6710   44.3500 N   0  0  0  0  0  0  0  0  0  0  0  0
   59.4440   28.8990   45.2490 C   0  0  0  0  0  0  0  0  0  0  0  0
   60.5820   27.9290   45.4600 C   0  0  0  0  0  0  0  0  0  0  0  0
   60.3430   27.0810   46.6700 C   0  0  0  0  0  0  0  0  0  0  0  0
   61.3210   26.5460   47.2590 O   0  0  0  0  0  0  0  0  0  0  0  0
   59.0080   26.9190   47.1660 N   0  0  0  0  0  0  0  0  0  0  0  0
   57.9790   26.0860   46.6140 C   0  0  0  0  0  0  0  0  0  0  0  0
   58.2510   24.8170   46.0710 C   0  0  0  0  0  0  0  0  0  0  0  0
   57.2160   24.0490   45.5260 C   0  0  0  0  0  0  0  0  0  0  0  0
   55.9070   24.5430   45.5030 C   0  0  0  0  0  0  0  0  0  0  0  0
   54.6220   23.5640   44.8160 Cl  0  0  0  0  0  0  0  0  0  0  0  0
   55.6360   25.8180   46.0190 C   0  0  0  0  0  0  0  0  0  0  0  0
   54.3420   26.3280   45.9920 O   0  0  0  0  0  0  0  0  0  0  0  0
   56.6710   26.5860   46.5640 C   0  0  0  0  0  0  0  0  0  0  0  0
   59.4290   30.0170   46.0190 N   0  0  0  0  0  0  0  0  0  0  0  0
   58.4550   30.9530   45.9280 C   0  0  0  0  0  0  0  0  0  0  0  0
   58.5390   32.1420   46.8030 C   0  0  0  0  0  0  0  0  0  0  0  0
   58.4710   32.0290   48.0570 O   0  0  0  0  0  0  0  0  0  0  0  0
   58.6980   33.4370   46.2130 N   0  0  0  0  0  0  0  0  0  0  0  0
   59.3150   34.5670   46.8980 C   0  0  0  0  0  0  0  0  0  0  0  0
   60.7120   34.2130   47.3310 C   0  0  0  0  0  0  0  0  0  0  0  0
   61.0420   34.2010   48.6950 C   0  0  0  0  0  0  0  0  0  0  0  0
   62.3310   33.8420   49.1050 C   0  0  0  0  0  0  0  0  0  0  0  0
   63.2930   33.4860   48.1570 C   0  0  0  0  0  0  0  0  0  0  0  0
   64.5420   33.1370   48.5550 F   0  0  0  0  0  0  0  0  0  0  0  0
   62.9700   33.4900   46.7970 C   0  0  0  0  0  0  0  0  0  0  0  0
   61.6830   33.8490   46.3830 C   0  0  0  0  0  0  0  0  0  0  0  0
   57.4200   30.7660   45.0010 C   0  0  0  0  0  0  0  0  0  0  0  0
   56.4020   31.7150   44.8670 O   0  0  0  0  0  0  0  0  0  0  0  0
   57.4290   29.6060   44.2100 C   0  0  0  0  0  0  0  0  0  0  0  0
   56.5080   29.4380   43.3630 O   0  0  0  0  0  0  0  0  0  0  0  0
  1  2  1  0
  2  3  1  0
  3  4  1  0
  4  5  1  0
  5  6  2  0
  5  7  1  0
  7  8  1  0
  8  9  2  0
  9 10  1  0
 10 11  2  0
 11 12  1  0
 11 13  1  0
 13 14  1  0
 13 15  2  0
  3 16  2  0
 16 17  1  0
 17 18  1  0
 18 19  2  0
 18 20  1  0
 20 21  1  0
 21 22  1  0
 22 23  2  0
 23 24  1  0
 24 25  2  0
 25 26  1  0
 25 27  1  0
 27 28  2  0
 17 29  2  0
 29 30  1  0
 29 31  1  0
 31 32  2  0
 31  2  1  0
 15  8  1  0
 28 22  1  0
M  CHG  3   7  -1  14  -1  20  -1
M  END
>  <UniqueID>  (792) 
36

>  <SMILES>  (792) 
Cn1c(CC(=O)[N-]c2ccc(Cl)c([O-])c2)nc(C(=O)[N-]Cc2ccc(F)cc2)c(O)c1=O

>  <Energy>  (792) 
56.30878011976466

>  <Genealogy>  (792) 
Cn1c(CC(=O)[N-]c2ccc(Cl)c([O-])c2)nc(C(=O)[N-]Cc2ccc(F)cc2)c(O)c1=O (protonated)
Cn1c(CC(=O)[N-]c2ccc(Cl)c([O-])c2)nc(C(=O)[N-]Cc2ccc(F)cc2)c(O)c1=O (3D coordinates assigned)
Cn1c(CC(=O)[N-]c2ccc(Cl)c([O-])c2)nc(C(=O)[N-]Cc2ccc(F)cc2)c(O)c1=O (optimized conformer: 56.30878011976466 kcal/mol)

>  <smiles>  (792) 
Cn1c(CC(=O)Nc2ccc(Cl)c(O)c2)nc(C(=O)NCc2ccc(F)cc2)c(O)c1=O

>  <score_type>  (792) 
oracle

>  <origin>  (792) 
adg

>  <m_score__min__energy>  (792) 
-14.16

>  <m_primary>  (792) 
energy

$$$$
66:0
     RDKit          3D

 32 35  0  0  0  0  0  0  0  0999 V2000
   59.2950   26.7190   46.5280 C   0  0  0  0  0  0  0  0  0  0  0  0
   58.6990   27.8770   46.1420 N   0  0  0  0  0  0  0  0  0  0  0  0
   57.3510   27.9980   45.9960 C   0  0  0  0  0  0  0  0  0  0  0  0
   56.8850   29.1590   45.6300 N   0  0  0  0  0  0  0  0  0  0  0  0
   57.4580   30.1120   44.7200 C   0  0  0  0  0  0  0  0  0  0  0  0
   57.5990   29.8060   43.5040 O   0  0  0  0  0  0  0  0  0  0  0  0
   57.7860   31.4810   45.1830 C   0  0  0  0  0  0  0  0  0  0  0  0
   56.9530   32.5680   44.8570 C   0  0  0  0  0  0  0  0  0  0  0  0
   57.2710   33.8580   45.2900 C   0  0  0  0  0  0  0  0  0  0  0  0
   58.4180   34.0790   46.0540 C   0  0  0  0  0  0  0  0  0  0  0  0
   59.2560   33.0080   46.3900 C   0  0  0  0  0  0  0  0  0  0  0  0
   60.6990   33.2740   47.3620 S   0  0  0  0  0  0  0  0  0  0  0  0
   60.6270   34.5950   48.0770 O   0  0  0  0  0  0  0  0  0  0  0  0
   61.9020   33.2710   46.4610 O   0  0  0  0  0  0  0  0  0  0  0  0
   60.8560   32.0010   48.5340 N   0  0  0  0  0  0  0  0  0  0  0  0
   59.7990   31.5880   49.4190 C   0  0  0  0  0  0  0  0  0  0  0  0
   59.0210   32.5120   50.1340 C   0  0  0  0  0  0  0  0  0  0  0  0
   58.0120   32.0770   50.9970 C   0  0  0  0  0  0  0  0  0  0  0  0
   57.7500   30.7000   51.1830 C   0  0  0  0  0  0  0  0  0  0  0  0
   56.7100   30.2440   52.1040 N   0  0  0  0  0  0  0  0  0  0  0  0
   55.3370   30.7770   51.9700 C   0  0  0  0  0  0  0  0  0  0  0  0
   54.3850   30.3000   53.0700 C   0  0  0  0  0  0  0  0  0  0  0  0
   54.6180   28.9480   53.3850 O   0  0  0  0  0  0  0  0  0  0  0  0
   55.8660   28.8500   54.0290 C   0  0  0  0  0  0  0  0  0  0  0  0
   57.0100   29.1500   53.0540 C   0  0  0  0  0  0  0  0  0  0  0  0
   58.5310   29.7830   50.4410 C   0  0  0  0  0  0  0  0  0  0  0  0
   59.5380   30.2230   49.5790 C   0  0  0  0  0  0  0  0  0  0  0  0
   58.9420   31.7170   45.9490 C   0  0  0  0  0  0  0  0  0  0  0  0
   56.5390   26.8540   46.2130 C   0  0  0  0  0  0  0  0  0  0  0  0
   55.1680   26.8590   45.9850 O   0  0  0  0  0  0  0  0  0  0  0  0
   57.1410   25.6610   46.6230 C   0  0  0  0  0  0  0  0  0  0  0  0
   58.5230   25.5910   46.7860 C   0  0  0  0  0  0  0  0  0  0  0  0
  1  2  1  0
  2  3  1  0
  3  4  2  0
  4  5  1  0
  5  6  2  0
  5  7  1  0
  7  8  2  0
  8  9  1  0
  9 10  2  0
 10 11  1  0
 11 12  1  0
 12 13  2  0
 12 14  2  0
 12 15  1  0
 15 16  1  0
 16 17  2  0
 17 18  1  0
 18 19  2  0
 19 20  1  0
 20 21  1  0
 21 22  1  0
 22 23  1  0
 23 24  1  0
 24 25  1  0
 19 26  1  0
 26 27  2  0
 11 28  2  0
  3 29  1  0
 29 30  1  0
 29 31  2  0
 31 32  1  0
 32  1  2  0
 28  7  1  0
 27 16  1  0
 25 20  1  0
M  CHG  2   2  -1  30  -1
M  END
>  <UniqueID>  (793) 
62

>  <SMILES>  (793) 
O=C(/N=c1/[n-]cccc1[O-])c1cccc(S(=O)(=O)Nc2ccc(N3CCOCC3)cc2)c1

>  <Energy>  (793) 
79.63396109922385

>  <Genealogy>  (793) 
O=C(N=c1[n-]cccc1[O-])c1cccc(S(=O)(=O)Nc2ccc(N3CCOCC3)cc2)c1 (protonated)
O=C(/N=c1/[n-]cccc1[O-])c1cccc(S(=O)(=O)Nc2ccc(N3CCOCC3)cc2)c1 (cis-trans isomerization)
O=C(/N=c1/[n-]cccc1[O-])c1cccc(S(=O)(=O)Nc2ccc(N3CCOCC3)cc2)c1 (3D coordinates assigned)
O=C(/N=c1/[n-]cccc1[O-])c1cccc(S(=O)(=O)Nc2ccc(N3CCOCC3)cc2)c1 (nonaromatic ring conformer: 79.63396109922385 kcal/mol)

>  <smiles>  (793) 
O=C(N=c1[nH]cccc1O)c1cccc(S(=O)(=O)Nc2ccc(N3CCOCC3)cc2)c1

>  <score_type>  (793) 
oracle

>  <origin>  (793) 
adg

>  <m_score__min__energy>  (793) 
-15.4

>  <m_primary>  (793) 
energy

$$$$
76:0
     RDKit          3D

 29 31  0  0  0  0  0  0  0  0999 V2000
   57.5510   31.2320   42.6100 O   0  0  0  0  0  0  0  0  0  0  0  0
   57.3060   30.7370   43.7430 C   0  0  0  0  0  0  0  0  0  0  0  0
   57.3320   29.2710   43.9310 C   0  0  0  0  0  0  0  0  0  0  0  0
   56.6400   28.6670   44.9070 C   0  0  0  0  0  0  0  0  0  0  0  0
   57.0620   27.3910   45.5290 C   0  0  0  0  0  0  0  0  0  0  0  0
   58.4380   27.1430   45.6720 C   0  0  0  0  0  0  0  0  0  0  0  0
   58.8870   25.9550   46.2540 C   0  0  0  0  0  0  0  0  0  0  0  0
   57.9700   25.0070   46.7110 C   0  0  0  0  0  0  0  0  0  0  0  0
   56.5960   25.2500   46.6110 C   0  0  0  0  0  0  0  0  0  0  0  0
   55.7020   24.2980   47.1010 O   0  0  0  0  0  0  0  0  0  0  0  0
   56.1370   26.4480   46.0350 C   0  0  0  0  0  0  0  0  0  0  0  0
   54.7710   26.7120   46.0070 O   0  0  0  0  0  0  0  0  0  0  0  0
   56.9430   31.6200   44.8120 N   0  0  0  0  0  0  0  0  0  0  0  0
   57.7110   32.7170   45.3280 C   0  0  0  0  0  0  0  0  0  0  0  0
   57.8710   33.8490   44.5210 C   0  0  0  0  0  0  0  0  0  0  0  0
   58.6490   34.9230   44.9540 C   0  0  0  0  0  0  0  0  0  0  0  0
   59.2840   34.8730   46.1950 C   0  0  0  0  0  0  0  0  0  0  0  0
   59.1540   33.7430   47.0160 C   0  0  0  0  0  0  0  0  0  0  0  0
   59.9870   33.7350   48.5840 S   0  0  0  0  0  0  0  0  0  0  0  0
   59.6550   34.9800   49.3600 O   0  0  0  0  0  0  0  0  0  0  0  0
   59.4840   32.5540   49.3750 O   0  0  0  0  0  0  0  0  0  0  0  0
   61.7300   33.6590   48.4180 N   0  0  0  0  0  0  0  0  0  0  0  0
   62.1310   33.3070   47.0500 C   0  0  0  0  0  0  0  0  0  0  0  0
   63.6670   33.3750   46.9280 C   0  0  0  0  0  0  0  0  0  0  0  0
   64.3080   33.4740   48.1900 O   0  0  0  0  0  0  0  0  0  0  0  0
   63.8130   32.4810   49.0660 C   0  0  0  0  0  0  0  0  0  0  0  0
   62.3220   32.7150   49.3810 C   0  0  0  0  0  0  0  0  0  0  0  0
   58.3890   32.6440   46.5650 C   0  0  0  0  0  0  0  0  0  0  0  0
   58.3340   31.4730   47.3150 O   0  0  0  0  0  0  0  0  0  0  0  0
  1  2  2  0
  2  3  1  0
  3  4  2  3
  4  5  1  0
  5  6  2  0
  6  7  1  0
  7  8  2  0
  8  9  1  0
  9 10  1  0
  9 11  2  0
 11 12  1  0
  2 13  1  0
 13 14  1  0
 14 15  2  0
 15 16  1  0
 16 17  2  0
 17 18  1  0
 18 19  1  0
 19 20  2  0
 19 21  2  0
 19 22  1  0
 22 23  1  0
 23 24  1  0
 24 25  1  0
 25 26  1  0
 26 27  1  0
 18 28  2  0
 28 29  1  0
 11  5  1  0
 28 14  1  0
 27 22  1  0
M  CHG  3  12  -1  13  -1  29  -1
M  END
>  <UniqueID>  (794) 
72

>  <SMILES>  (794) 
O=C(C=Cc1cccc(O)c1[O-])[N-]c1cccc(S(=O)(=O)N2CCOCC2)c1[O-]

>  <Energy>  (794) 
67.99727963797321

>  <Genealogy>  (794) 
O=C(C=Cc1cccc(O)c1[O-])[N-]c1cccc(S(=O)(=O)N2CCOCC2)c1[O-] (protonated)
O=C(C=Cc1cccc(O)c1[O-])[N-]c1cccc(S(=O)(=O)N2CCOCC2)c1[O-] (3D coordinates assigned)
O=C(C=Cc1cccc(O)c1[O-])[N-]c1cccc(S(=O)(=O)N2CCOCC2)c1[O-] (nonaromatic ring conformer: 67.99727963797321 kcal/mol)

>  <smiles>  (794) 
O=C(C=Cc1cccc(O)c1O)Nc1cccc(S(=O)(=O)N2CCOCC2)c1O

>  <score_type>  (794) 
oracle

>  <origin>  (794) 
adg

>  <m_score__min__energy>  (794) 
-16.52

>  <m_primary>  (794) 
energy

$$$$
79:0
     RDKit          3D

 31 34  0  0  0  0  0  0  0  0999 V2000
   58.8660   28.8700   47.0710 C   0  0  0  0  0  0  0  0  0  0  0  0
   58.4150   29.0030   45.8150 C   0  0  0  0  0  0  0  0  0  0  0  0
   57.9800   27.9800   44.9560 C   0  0  0  0  0  0  0  0  0  0  0  0
   58.0920   26.6410   45.0480 C   0  0  0  0  0  0  0  0  0  0  0  0
   57.3960   25.7880   46.0260 C   0  0  0  0  0  0  0  0  0  0  0  0
   57.9400   24.7150   46.6320 N   0  0  0  0  0  0  0  0  0  0  0  0
   56.9020   24.1830   47.3130 C   0  0  0  0  0  0  0  0  0  0  0  0
   57.0170   23.1560   48.0300 O   0  0  0  0  0  0  0  0  0  0  0  0
   55.7280   24.8330   47.1550 N   0  0  0  0  0  0  0  0  0  0  0  0
   56.0570   25.8360   46.3260 C   0  0  0  0  0  0  0  0  0  0  0  0
   55.1510   26.7740   45.8490 O   0  0  0  0  0  0  0  0  0  0  0  0
   57.3750   28.6090   43.8790 C   0  0  0  0  0  0  0  0  0  0  0  0
   57.5250   29.9660   44.0720 C   0  0  0  0  0  0  0  0  0  0  0  0
   57.0350   31.0210   43.1270 C   0  0  0  0  0  0  0  0  0  0  0  0
   58.1500   30.2060   45.2450 N   0  0  0  0  0  0  0  0  0  0  0  0
   58.4460   31.5050   45.7890 C   0  0  0  0  0  0  0  0  0  0  0  0
   59.7000   31.7510   46.3660 C   0  0  0  0  0  0  0  0  0  0  0  0
   60.0070   33.0160   46.8850 C   0  0  0  0  0  0  0  0  0  0  0  0
   61.5960   33.3260   47.5870 S   0  0  0  0  0  0  0  0  0  0  0  0
   62.5950   33.5190   46.4790 O   0  0  0  0  0  0  0  0  0  0  0  0
   61.5420   34.5980   48.3890 O   0  0  0  0  0  0  0  0  0  0  0  0
   62.1190   32.0150   48.6140 N   0  0  0  0  0  0  0  0  0  0  0  0
   61.0500   31.6350   49.5480 C   0  0  0  0  0  0  0  0  0  0  0  0
   61.5220   30.4650   50.4390 C   0  0  0  0  0  0  0  0  0  0  0  0
   62.8940   30.1630   50.2470 O   0  0  0  0  0  0  0  0  0  0  0  0
   63.6710   31.3320   50.4230 C   0  0  0  0  0  0  0  0  0  0  0  0
   63.3320   32.3940   49.3580 C   0  0  0  0  0  0  0  0  0  0  0  0
   59.0450   34.0350   46.8350 C   0  0  0  0  0  0  0  0  0  0  0  0
   57.7910   33.7910   46.2690 C   0  0  0  0  0  0  0  0  0  0  0  0
   57.4880   32.5300   45.7470 C   0  0  0  0  0  0  0  0  0  0  0  0
   56.2590   32.3020   45.2210 F   0  0  0  0  0  0  0  0  0  0  0  0
  1  2  2  0
  2  3  1  0
  3  4  2  0
  4  5  1  0
  5  6  1  0
  6  7  1  0
  7  8  2  0
  7  9  1  0
  9 10  1  0
 10 11  1  0
  3 12  1  0
 12 13  2  0
 13 14  1  0
 13 15  1  0
 15 16  1  0
 16 17  2  0
 17 18  1  0
 18 19  1  0
 19 20  2  0
 19 21  2  0
 19 22  1  0
 22 23  1  0
 23 24  1  0
 24 25  1  0
 25 26  1  0
 26 27  1  0
 18 28  2  0
 28 29  1  0
 29 30  2  0
 30 31  1  0
 15  2  1  0
 30 16  1  0
 10  5  2  0
 27 22  1  0
M  CHG  3   6  -1   9  -1  11  -1
M  END
>  <UniqueID>  (795) 
75

>  <SMILES>  (795) 
C=c1/c(=C\c2[n-]c(=O)[n-]c2[O-])cc(C)n1-c1cc(S(=O)(=O)N2CCOCC2)ccc1F

>  <Energy>  (795) 
133.84070783433629

>  <Genealogy>  (795) 
C=c1c(=Cc2[n-]c(=O)[n-]c2[O-])cc(C)n1-c1cc(S(=O)(=O)N2CCOCC2)ccc1F (protonated)
C=c1/c(=C\c2[n-]c(=O)[n-]c2[O-])cc(C)n1-c1cc(S(=O)(=O)N2CCOCC2)ccc1F (cis-trans isomerization)
C=c1/c(=C\c2[n-]c(=O)[n-]c2[O-])cc(C)n1-c1cc(S(=O)(=O)N2CCOCC2)ccc1F (3D coordinates assigned)
C=c1/c(=C\c2[n-]c(=O)[n-]c2[O-])cc(C)n1-c1cc(S(=O)(=O)N2CCOCC2)ccc1F (nonaromatic ring conformer: 133.84070783433629 kcal/mol)

>  <smiles>  (795) 
C=c1c(=Cc2[nH]c(=O)[nH]c2O)cc(C)n1-c1cc(S(=O)(=O)N2CCOCC2)ccc1F

>  <score_type>  (795) 
oracle

>  <origin>  (795) 
adg

>  <m_score__min__energy>  (795) 
-16.609999999999999

>  <m_primary>  (795) 
energy

$$$$
14:0
     RDKit          3D

 33 36  0  0  0  0  0  0  0  0999 V2000
   59.2940   28.0620   47.3780 C   0  0  0  0  0  0  0  0  0  0  0  0
   58.6730   28.9430   46.5760 C   0  0  0  0  0  0  0  0  0  0  0  0
   57.8640   28.6590   45.4620 C   0  0  0  0  0  0  0  0  0  0  0  0
   57.3650   27.4940   45.0030 C   0  0  0  0  0  0  0  0  0  0  0  0
   57.1590   26.2720   45.8040 C   0  0  0  0  0  0  0  0  0  0  0  0
   55.8820   25.9100   46.2670 C   0  0  0  0  0  0  0  0  0  0  0  0
   54.7790   26.7150   46.0100 O   0  0  0  0  0  0  0  0  0  0  0  0
   55.7170   24.7580   46.9670 N   0  0  0  0  0  0  0  0  0  0  0  0
   56.7670   23.9340   47.2190 C   0  0  0  0  0  0  0  0  0  0  0  0
   56.5380   22.5590   48.0650 S   0  0  0  0  0  0  0  0  0  0  0  0
   58.0040   24.2490   46.7570 N   0  0  0  0  0  0  0  0  0  0  0  0
   58.2220   25.3890   46.0520 C   0  0  0  0  0  0  0  0  0  0  0  0
   59.3810   25.6460   45.6320 O   0  0  0  0  0  0  0  0  0  0  0  0
   57.6170   29.8730   44.8430 C   0  0  0  0  0  0  0  0  0  0  0  0
   58.2170   30.8470   45.6130 C   0  0  0  0  0  0  0  0  0  0  0  0
   58.1840   32.3130   45.3080 C   0  0  0  0  0  0  0  0  0  0  0  0
   58.8590   30.2860   46.6640 N   0  0  0  0  0  0  0  0  0  0  0  0
   59.6090   30.9980   47.6640 C   0  0  0  0  0  0  0  0  0  0  0  0
   58.9520   31.5810   48.7560 C   0  0  0  0  0  0  0  0  0  0  0  0
   59.6780   32.2780   49.7260 C   0  0  0  0  0  0  0  0  0  0  0  0
   61.0730   32.4110   49.6150 C   0  0  0  0  0  0  0  0  0  0  0  0
   61.8340   33.1450   50.6550 C   0  0  0  0  0  0  0  0  0  0  0  0
   61.5990   32.9130   51.8720 O   0  0  0  0  0  0  0  0  0  0  0  0
   62.8210   34.1260   50.2970 N   0  0  0  0  0  0  0  0  0  0  0  0
   63.7530   34.6860   51.2740 C   0  0  0  0  0  0  0  0  0  0  0  0
   65.1030   34.0390   51.1300 C   0  0  0  0  0  0  0  0  0  0  0  0
   66.1910   34.4700   51.9080 C   0  0  0  0  0  0  0  0  0  0  0  0
   67.4350   33.8450   51.7850 C   0  0  0  0  0  0  0  0  0  0  0  0
   67.6020   32.7840   50.8910 C   0  0  0  0  0  0  0  0  0  0  0  0
   66.5220   32.3450   50.1180 C   0  0  0  0  0  0  0  0  0  0  0  0
   65.2760   32.9670   50.2380 C   0  0  0  0  0  0  0  0  0  0  0  0
   61.7290   31.8150   48.5220 C   0  0  0  0  0  0  0  0  0  0  0  0
   61.0010   31.1170   47.5540 C   0  0  0  0  0  0  0  0  0  0  0  0
  1  2  2  0
  2  3  1  0
  3  4  2  3
  4  5  1  0
  5  6  2  0
  6  7  1  0
  6  8  1  0
  8  9  1  0
  9 10  2  0
  9 11  1  0
 11 12  1  0
 12 13  2  0
  3 14  1  0
 14 15  2  0
 15 16  1  0
 15 17  1  0
 17 18  1  0
 18 19  2  0
 19 20  1  0
 20 21  2  0
 21 22  1  0
 22 23  2  0
 22 24  1  0
 24 25  1  0
 25 26  1  0
 26 27  2  0
 27 28  1  0
 28 29  2  0
 29 30  1  0
 30 31  2  0
 21 32  1  0
 32 33  2  0
 17  2  1  0
 33 18  1  0
 12  5  1  0
 31 26  1  0
M  CHG  3   7  -1   8  -1  11  -1
M  END
>  <UniqueID>  (796) 
15

>  <SMILES>  (796) 
C=c1c(=Cc2c([O-])[n-]c(=S)[n-]c2=O)cc(C)n1-c1ccc(C(=O)NCc2ccccc2)cc1

>  <Energy>  (796) 
105.20256292005897

>  <Genealogy>  (796) 
C=c1c(=Cc2c([O-])[n-]c(=S)[n-]c2=O)cc(C)n1-c1ccc(C(=O)NCc2ccccc2)cc1 (protonated)
C=c1c(=Cc2c([O-])[n-]c(=S)[n-]c2=O)cc(C)n1-c1ccc(C(=O)NCc2ccccc2)cc1 (3D coordinates assigned)
C=c1c(=Cc2c([O-])[n-]c(=S)[n-]c2=O)cc(C)n1-c1ccc(C(=O)NCc2ccccc2)cc1 (optimized conformer: 105.20256292005897 kcal/mol)

>  <smiles>  (796) 
C=c1c(=Cc2c(O)[nH]c(=S)[nH]c2=O)cc(C)n1-c1ccc(C(=O)NCc2ccccc2)cc1

>  <score_type>  (796) 
oracle

>  <origin>  (796) 
adg

>  <m_score__min__energy>  (796) 
-15.74

>  <m_primary>  (796) 
energy

$$$$
60:0
     RDKit          3D

 26 28  0  0  0  0  0  0  0  0999 V2000
   55.0640   30.3810   51.2620 O   0  0  0  0  0  0  0  0  0  0  0  0
   54.5890   30.5270   52.4210 C   0  0  0  0  0  0  0  0  0  0  0  0
   53.2790   31.2210   52.6050 C   0  0  0  0  0  0  0  0  0  0  0  0
   52.4920   31.1320   51.3340 C   0  0  0  0  0  0  0  0  0  0  0  0
   52.6000   30.1360   50.4400 N   0  0  0  0  0  0  0  0  0  0  0  0
   51.6400   30.3930   49.5280 C   0  0  0  0  0  0  0  0  0  0  0  0
   51.4340   29.6620   48.5250 O   0  0  0  0  0  0  0  0  0  0  0  0
   50.9100   31.4990   49.7910 N   0  0  0  0  0  0  0  0  0  0  0  0
   51.4540   31.9480   50.9400 C   0  0  0  0  0  0  0  0  0  0  0  0
   51.0020   33.0720   51.6190 O   0  0  0  0  0  0  0  0  0  0  0  0
   55.2480   29.9510   53.5500 N   0  0  0  0  0  0  0  0  0  0  0  0
   56.9210   30.2400   53.8750 S   0  0  0  0  0  0  0  0  0  0  0  0
   57.5590   28.9830   54.3970 O   0  0  0  0  0  0  0  0  0  0  0  0
   57.0510   31.3270   54.9070 O   0  0  0  0  0  0  0  0  0  0  0  0
   57.7100   30.7120   52.3810 C   0  0  0  0  0  0  0  0  0  0  0  0
   58.4210   29.8630   51.5490 C   0  0  0  0  0  0  0  0  0  0  0  0
   58.8830   30.4910   50.3870 C   0  0  0  0  0  0  0  0  0  0  0  0
   58.5300   31.8420   50.3000 C   0  0  0  0  0  0  0  0  0  0  0  0
   58.8470   32.7740   49.1860 C   0  0  0  0  0  0  0  0  0  0  0  0
   59.9080   33.6950   49.2900 C   0  0  0  0  0  0  0  0  0  0  0  0
   60.2010   34.5630   48.2340 C   0  0  0  0  0  0  0  0  0  0  0  0
   59.4430   34.5260   47.0640 C   0  0  0  0  0  0  0  0  0  0  0  0
   58.3860   33.6220   46.9460 C   0  0  0  0  0  0  0  0  0  0  0  0
   57.4310   33.5790   45.4750 Cl  0  0  0  0  0  0  0  0  0  0  0  0
   58.0860   32.7530   48.0000 C   0  0  0  0  0  0  0  0  0  0  0  0
   57.6350   32.2330   51.6800 S   0  0  0  0  0  0  0  0  0  0  0  0
  1  2  2  0
  2  3  1  0
  3  4  1  0
  4  5  1  0
  5  6  1  0
  6  7  2  0
  6  8  1  0
  8  9  1  0
  9 10  1  0
  2 11  1  0
 11 12  1  0
 12 13  2  0
 12 14  2  0
 12 15  1  0
 15 16  2  0
 16 17  1  0
 17 18  2  0
 18 19  1  0
 19 20  2  0
 20 21  1  0
 21 22  2  0
 22 23  1  0
 23 24  1  0
 23 25  2  0
 18 26  1  0
  9  4  2  0
 26 15  1  0
 25 19  1  0
M  CHG  3   8  -1  10  -1  11  -1
M  END
>  <UniqueID>  (797) 
59

>  <SMILES>  (797) 
O=C(Cc1[nH]c(=O)[n-]c1[O-])[N-]S(=O)(=O)c1ccc(-c2cccc(Cl)c2)s1

>  <Energy>  (797) 
95.51072350668085

>  <Genealogy>  (797) 
O=C(Cc1[nH]c(=O)[n-]c1[O-])[N-]S(=O)(=O)c1ccc(-c2cccc(Cl)c2)s1 (protonated)
O=C(Cc1[nH]c(=O)[n-]c1[O-])[N-]S(=O)(=O)c1ccc(-c2cccc(Cl)c2)s1 (3D coordinates assigned)
O=C(Cc1[nH]c(=O)[n-]c1[O-])[N-]S(=O)(=O)c1ccc(-c2cccc(Cl)c2)s1 (optimized conformer: 95.51072350668085 kcal/mol)

>  <smiles>  (797) 
O=C(Cc1[nH]c(=O)[nH]c1O)NS(=O)(=O)c1ccc(-c2cccc(Cl)c2)s1

>  <score_type>  (797) 
oracle

>  <origin>  (797) 
adg

>  <m_score__min__energy>  (797) 
-17.030000000000001

>  <m_primary>  (797) 
energy

$$$$
61:0
     RDKit          3D

 25 27  0  0  0  0  0  0  0  0999 V2000
   57.4140   27.2540   47.2130 O   0  0  0  0  0  0  0  0  0  0  0  0
   56.9690   27.0510   46.0500 C   0  0  0  0  0  0  0  0  0  0  0  0
   57.3680   27.8790   44.9470 N   0  0  0  0  0  0  0  0  0  0  0  0
   57.3430   29.1780   44.9190 C   0  0  0  0  0  0  0  0  0  0  0  0
   56.2170   29.9200   44.8320 N   0  0  0  0  0  0  0  0  0  0  0  0
   56.4610   31.2280   44.7750 N   0  0  0  0  0  0  0  0  0  0  0  0
   57.7790   31.5280   44.8170 C   0  0  0  0  0  0  0  0  0  0  0  0
   58.3120   32.9200   44.6870 C   0  0  0  0  0  0  0  0  0  0  0  0
   57.9670   33.7910   45.9020 C   0  0  0  0  0  0  0  0  0  0  0  0
   59.3990   34.6190   46.5980 S   0  0  0  0  0  0  0  0  0  0  0  0
   59.8940   35.6510   45.6240 O   0  0  0  0  0  0  0  0  0  0  0  0
   58.9980   35.3090   47.8710 O   0  0  0  0  0  0  0  0  0  0  0  0
   60.6780   33.4600   46.9630 C   0  0  0  0  0  0  0  0  0  0  0  0
   62.0270   33.8380   46.8980 C   0  0  0  0  0  0  0  0  0  0  0  0
   63.0330   32.8960   47.1430 C   0  0  0  0  0  0  0  0  0  0  0  0
   62.6960   31.5770   47.4600 C   0  0  0  0  0  0  0  0  0  0  0  0
   61.3520   31.2010   47.5430 C   0  0  0  0  0  0  0  0  0  0  0  0
   60.3460   32.1400   47.3000 C   0  0  0  0  0  0  0  0  0  0  0  0
   58.7250   30.1350   44.9410 S   0  0  0  0  0  0  0  0  0  0  0  0
   56.0210   25.9540   45.8170 C   0  0  0  0  0  0  0  0  0  0  0  0
   56.3390   24.6600   45.4690 C   0  0  0  0  0  0  0  0  0  0  0  0
   55.2060   23.9470   45.3460 N   0  0  0  0  0  0  0  0  0  0  0  0
   54.2390   24.8430   45.6270 C   0  0  0  0  0  0  0  0  0  0  0  0
   53.0160   24.5490   45.6170 O   0  0  0  0  0  0  0  0  0  0  0  0
   54.6860   26.0810   45.9210 N   0  0  0  0  0  0  0  0  0  0  0  0
  1  2  2  0
  2  3  1  0
  3  4  2  3
  4  5  1  0
  5  6  1  0
  6  7  2  0
  7  8  1  0
  8  9  1  0
  9 10  1  0
 10 11  2  0
 10 12  2  0
 10 13  1  0
 13 14  2  0
 14 15  1  0
 15 16  2  0
 16 17  1  0
 17 18  2  0
  7 19  1  0
  2 20  1  0
 20 21  2  0
 21 22  1  0
 22 23  1  0
 23 24  2  0
 23 25  1  0
 19  4  1  0
 25 20  1  0
 18 13  1  0
M  CHG  3   5  -1  22  -1  25  -1
M  END
>  <UniqueID>  (798) 
60

>  <SMILES>  (798) 
O=C(N=c1[n-]nc(CCS(=O)(=O)c2ccccc2)s1)c1c[n-]c(=O)[n-]1

>  <Energy>  (798) 
92.31100008515227

>  <Genealogy>  (798) 
O=C(N=c1[n-]nc(CCS(=O)(=O)c2ccccc2)s1)c1c[n-]c(=O)[n-]1 (protonated)
O=C(N=c1[n-]nc(CCS(=O)(=O)c2ccccc2)s1)c1c[n-]c(=O)[n-]1 (3D coordinates assigned)
O=C(N=c1[n-]nc(CCS(=O)(=O)c2ccccc2)s1)c1c[n-]c(=O)[n-]1 (optimized conformer: 92.31100008515227 kcal/mol)

>  <smiles>  (798) 
O=C(N=c1[nH]nc(CCS(=O)(=O)c2ccccc2)s1)c1c[nH]c(=O)[nH]1

>  <score_type>  (798) 
oracle

>  <origin>  (798) 
adg

>  <m_score__min__energy>  (798) 
-14.83

>  <m_primary>  (798) 
energy

$$$$
23:0
     RDKit          3D

 37 40  0  0  0  0  0  0  0  0999 V2000
   54.9660   26.4310   46.0330 O   0  0  0  0  0  0  0  0  0  0  0  0
   55.9550   25.5020   46.3500 C   0  0  0  0  0  0  0  0  0  0  0  0
   55.7700   24.4880   47.2110 N   0  0  0  0  0  0  0  0  0  0  0  0
   56.9630   23.8570   47.1900 C   0  0  0  0  0  0  0  0  0  0  0  0
   57.2000   22.8300   47.8780 O   0  0  0  0  0  0  0  0  0  0  0  0
   57.8820   24.4090   46.3690 N   0  0  0  0  0  0  0  0  0  0  0  0
   57.2390   25.4750   45.8540 C   0  0  0  0  0  0  0  0  0  0  0  0
   57.7810   26.3410   44.7930 C   0  0  0  0  0  0  0  0  0  0  0  0
   58.2920   27.5730   44.9770 C   0  0  0  0  0  0  0  0  0  0  0  0
   59.5180   27.7940   45.5820 C   0  0  0  0  0  0  0  0  0  0  0  0
   59.6740   29.1610   45.6830 C   0  0  0  0  0  0  0  0  0  0  0  0
   60.8640   29.8360   46.2970 C   0  0  0  0  0  0  0  0  0  0  0  0
   58.6220   29.7980   45.1230 N   0  0  0  0  0  0  0  0  0  0  0  0
   58.4580   31.2240   45.0200 C   0  0  0  0  0  0  0  0  0  0  0  0
   57.9820   31.7990   43.8330 C   0  0  0  0  0  0  0  0  0  0  0  0
   57.8290   33.1830   43.7350 C   0  0  0  0  0  0  0  0  0  0  0  0
   58.1470   34.0030   44.8220 C   0  0  0  0  0  0  0  0  0  0  0  0
   58.6230   33.4450   46.0210 C   0  0  0  0  0  0  0  0  0  0  0  0
   58.9560   34.3110   47.1760 C   0  0  0  0  0  0  0  0  0  0  0  0
   59.2580   35.5230   46.9930 O   0  0  0  0  0  0  0  0  0  0  0  0
   58.9360   33.7780   48.5030 N   0  0  0  0  0  0  0  0  0  0  0  0
   60.3550   33.1910   49.3020 S   0  0  0  0  0  0  0  0  0  0  0  0
   60.4120   33.7740   50.6870 O   0  0  0  0  0  0  0  0  0  0  0  0
   61.5840   33.6180   48.5530 O   0  0  0  0  0  0  0  0  0  0  0  0
   60.2710   31.4210   49.3970 C   0  0  0  0  0  0  0  0  0  0  0  0
   59.0430   30.8100   49.0870 C   0  0  0  0  0  0  0  0  0  0  0  0
   58.8970   29.4260   49.1500 C   0  0  0  0  0  0  0  0  0  0  0  0
   59.9730   28.6270   49.5240 C   0  0  0  0  0  0  0  0  0  0  0  0
   61.2050   29.2090   49.8230 C   0  0  0  0  0  0  0  0  0  0  0  0
   61.3890   30.6060   49.7420 C   0  0  0  0  0  0  0  0  0  0  0  0
   62.7490   31.1850   50.0900 C   0  0  0  0  0  0  0  0  0  0  0  0
   63.5290   30.2490   50.7400 F   0  0  0  0  0  0  0  0  0  0  0  0
   62.6330   32.2800   50.9300 F   0  0  0  0  0  0  0  0  0  0  0  0
   63.3850   31.5950   48.9330 F   0  0  0  0  0  0  0  0  0  0  0  0
   58.7770   32.0480   46.1090 C   0  0  0  0  0  0  0  0  0  0  0  0
   57.7760   28.8410   44.6570 C   0  0  0  0  0  0  0  0  0  0  0  0
   56.7220   29.1100   43.8710 C   0  0  0  0  0  0  0  0  0  0  0  0
  1  2  1  0
  2  3  1  0
  3  4  1  0
  4  5  2  0
  4  6  1  0
  6  7  1  0
  7  8  1  0
  8  9  2  0
  9 10  1  0
 10 11  2  0
 11 12  1  0
 11 13  1  0
 13 14  1  0
 14 15  2  0
 15 16  1  0
 16 17  2  0
 17 18  1  0
 18 19  1  0
 19 20  2  0
 19 21  1  0
 21 22  1  0
 22 23  2  0
 22 24  2  0
 22 25  1  0
 25 26  2  0
 26 27  1  0
 27 28  2  0
 28 29  1  0
 29 30  2  0
 30 31  1  0
 31 32  1  0
 31 33  1  0
 31 34  1  0
 18 35  2  0
 13 36  1  0
 36 37  2  0
  7  2  2  0
 36  9  1  0
 35 14  1  0
 30 25  1  0
M  CHG  3   3  -1   6  -1  21  -1
M  END
>  <UniqueID>  (799) 
22

>  <SMILES>  (799) 
C=c1/c(=C\c2[n-]c(=O)[n-]c2O)cc(C)n1-c1cccc(C(=O)[N-]S(=O)(=O)c2ccccc2C(F)(F)F)c1

>  <Energy>  (799) 
139.24981053207247

>  <Genealogy>  (799) 
C=c1c(=Cc2[n-]c(=O)[n-]c2O)cc(C)n1-c1cccc(C(=O)[N-]S(=O)(=O)c2ccccc2C(F)(F)F)c1 (protonated)
C=c1/c(=C\c2[n-]c(=O)[n-]c2O)cc(C)n1-c1cccc(C(=O)[N-]S(=O)(=O)c2ccccc2C(F)(F)F)c1 (cis-trans isomerization)
C=c1/c(=C\c2[n-]c(=O)[n-]c2O)cc(C)n1-c1cccc(C(=O)[N-]S(=O)(=O)c2ccccc2C(F)(F)F)c1 (3D coordinates assigned)
C=c1/c(=C\c2[n-]c(=O)[n-]c2O)cc(C)n1-c1cccc(C(=O)[N-]S(=O)(=O)c2ccccc2C(F)(F)F)c1 (optimized conformer: 139.24981053207247 kcal/mol)

>  <smiles>  (799) 
C=c1c(=Cc2[nH]c(=O)[nH]c2O)cc(C)n1-c1cccc(C(=O)NS(=O)(=O)c2ccccc2C(F)(F)F)c1

>  <score_type>  (799) 
oracle

>  <origin>  (799) 
adg

>  <m_score__min__energy>  (799) 
-15.630000000000001

>  <m_primary>  (799) 
energy

$$$$
31:0
     RDKit          3D

 30 32  0  0  0  0  0  0  0  0999 V2000
   63.3480   34.1930   47.8500 O   0  0  0  0  0  0  0  0  0  0  0  0
   62.6990   33.3470   47.1820 C   0  0  0  0  0  0  0  0  0  0  0  0
   62.9180   31.8880   47.4480 C   0  0  0  0  0  0  0  0  0  0  0  0
   62.4580   31.5630   48.7560 O   0  0  0  0  0  0  0  0  0  0  0  0
   61.1930   31.0290   49.0400 C   0  0  0  0  0  0  0  0  0  0  0  0
   60.2410   31.8630   49.6390 C   0  0  0  0  0  0  0  0  0  0  0  0
   58.9680   31.3800   49.9510 C   0  0  0  0  0  0  0  0  0  0  0  0
   58.6360   30.0530   49.6640 C   0  0  0  0  0  0  0  0  0  0  0  0
   59.5750   29.2120   49.0640 C   0  0  0  0  0  0  0  0  0  0  0  0
   60.8510   29.6940   48.7500 C   0  0  0  0  0  0  0  0  0  0  0  0
   61.7690   33.8150   46.1980 N   0  0  0  0  0  0  0  0  0  0  0  0
   60.1000   34.2000   46.4830 S   0  0  0  0  0  0  0  0  0  0  0  0
   59.7400   35.4130   45.6740 O   0  0  0  0  0  0  0  0  0  0  0  0
   59.8920   34.5140   47.9380 O   0  0  0  0  0  0  0  0  0  0  0  0
   59.0680   32.8620   45.9860 C   0  0  0  0  0  0  0  0  0  0  0  0
   59.3480   31.5580   46.4120 C   0  0  0  0  0  0  0  0  0  0  0  0
   58.5060   30.5020   46.0480 C   0  0  0  0  0  0  0  0  0  0  0  0
   57.3740   30.7360   45.2460 C   0  0  0  0  0  0  0  0  0  0  0  0
   56.4670   29.6140   44.8930 C   0  0  0  0  0  0  0  0  0  0  0  0
   55.2310   29.8310   44.7890 O   0  0  0  0  0  0  0  0  0  0  0  0
   56.9570   28.2960   44.5950 N   0  0  0  0  0  0  0  0  0  0  0  0
   57.4130   27.4380   45.4610 C   0  0  0  0  0  0  0  0  0  0  0  0
   58.7500   27.3340   45.7100 N   0  0  0  0  0  0  0  0  0  0  0  0
   59.2500   26.4570   46.6200 C   0  0  0  0  0  0  0  0  0  0  0  0
   58.3850   25.6320   47.3420 C   0  0  0  0  0  0  0  0  0  0  0  0
   57.0110   25.7230   47.1180 C   0  0  0  0  0  0  0  0  0  0  0  0
   56.5160   26.6300   46.1760 C   0  0  0  0  0  0  0  0  0  0  0  0
   55.1460   26.7210   45.9560 O   0  0  0  0  0  0  0  0  0  0  0  0
   57.0930   32.0500   44.8330 C   0  0  0  0  0  0  0  0  0  0  0  0
   57.9360   33.1040   45.1970 C   0  0  0  0  0  0  0  0  0  0  0  0
  1  2  2  0
  2  3  1  0
  3  4  1  0
  4  5  1  0
  5  6  2  0
  6  7  1  0
  7  8  2  0
  8  9  1  0
  9 10  2  0
  2 11  1  0
 11 12  1  0
 12 13  2  0
 12 14  2  0
 12 15  1  0
 15 16  2  0
 16 17  1  0
 17 18  2  0
 18 19  1  0
 19 20  2  0
 19 21  1  0
 21 22  2  3
 22 23  1  0
 23 24  1  0
 24 25  2  0
 25 26  1  0
 26 27  2  0
 27 28  1  0
 18 29  1  0
 29 30  2  0
 10  5  1  0
 30 15  1  0
 27 22  1  0
M  CHG  3  11  -1  23  -1  28  -1
M  END
>  <UniqueID>  (800) 
29

>  <SMILES>  (800) 
O=C(COc1ccccc1)[N-]S(=O)(=O)c1ccc(C(=O)N=c2[n-]cccc2[O-])cc1

>  <Energy>  (800) 
53.51412110956946

>  <Genealogy>  (800) 
O=C(COc1ccccc1)[N-]S(=O)(=O)c1ccc(C(=O)N=c2[n-]cccc2[O-])cc1 (protonated)
O=C(COc1ccccc1)[N-]S(=O)(=O)c1ccc(C(=O)N=c2[n-]cccc2[O-])cc1 (3D coordinates assigned)
O=C(COc1ccccc1)[N-]S(=O)(=O)c1ccc(C(=O)N=c2[n-]cccc2[O-])cc1 (optimized conformer: 53.51412110956946 kcal/mol)

>  <smiles>  (800) 
O=C(COc1ccccc1)NS(=O)(=O)c1ccc(C(=O)N=c2[nH]cccc2O)cc1

>  <score_type>  (800) 
oracle

>  <origin>  (800) 
adg

>  <m_score__min__energy>  (800) 
-14.58

>  <m_primary>  (800) 
energy

$$$$
52:0
     RDKit          3D

 30 32  0  0  0  0  0  0  0  0999 V2000
   54.7570   30.7850   52.1210 C   0  0  0  0  0  0  0  0  0  0  0  0
   55.8920   31.1660   52.8920 O   0  0  0  0  0  0  0  0  0  0  0  0
   57.0510   31.7510   52.3550 C   0  0  0  0  0  0  0  0  0  0  0  0
   57.3910   33.0960   52.5960 C   0  0  0  0  0  0  0  0  0  0  0  0
   58.5570   33.6380   52.0470 C   0  0  0  0  0  0  0  0  0  0  0  0
   59.4150   32.8420   51.2640 C   0  0  0  0  0  0  0  0  0  0  0  0
   60.6360   33.4040   50.6320 C   0  0  0  0  0  0  0  0  0  0  0  0
   60.6770   33.9740   49.4150 C   0  0  0  0  0  0  0  0  0  0  0  0
   59.7480   33.6250   48.3180 C   0  0  0  0  0  0  0  0  0  0  0  0
   58.7690   34.3910   48.1010 O   0  0  0  0  0  0  0  0  0  0  0  0
   59.9360   32.4410   47.5060 N   0  0  0  0  0  0  0  0  0  0  0  0
   58.8980   32.1250   46.5060 C   0  0  0  0  0  0  0  0  0  0  0  0
   59.4110   31.1780   45.4150 C   0  0  0  0  0  0  0  0  0  0  0  0
   60.2030   30.1010   46.0120 N   0  0  0  0  0  0  0  0  0  0  0  0
   59.9920   28.7260   45.6450 C   0  0  0  0  0  0  0  0  0  0  0  0
   60.9820   28.0170   45.3090 O   0  0  0  0  0  0  0  0  0  0  0  0
   58.6440   28.1150   45.7150 C   0  0  0  0  0  0  0  0  0  0  0  0
   57.5220   28.8150   45.2350 C   0  0  0  0  0  0  0  0  0  0  0  0
   56.2420   28.2560   45.3280 C   0  0  0  0  0  0  0  0  0  0  0  0
   55.1420   28.9650   44.8540 O   0  0  0  0  0  0  0  0  0  0  0  0
   56.0670   26.9920   45.9100 C   0  0  0  0  0  0  0  0  0  0  0  0
   54.7890   26.4450   46.0040 O   0  0  0  0  0  0  0  0  0  0  0  0
   57.1800   26.2870   46.4040 C   0  0  0  0  0  0  0  0  0  0  0  0
   57.0330   25.0280   46.9990 O   0  0  0  0  0  0  0  0  0  0  0  0
   58.4610   26.8510   46.3070 C   0  0  0  0  0  0  0  0  0  0  0  0
   61.3090   30.4810   46.8860 C   0  0  0  0  0  0  0  0  0  0  0  0
   60.7600   31.3350   48.0250 C   0  0  0  0  0  0  0  0  0  0  0  0
   59.0550   31.5120   50.9900 C   0  0  0  0  0  0  0  0  0  0  0  0
   57.8890   30.9670   51.5400 C   0  0  0  0  0  0  0  0  0  0  0  0
   57.5610   29.6410   51.2740 O   0  0  0  0  0  0  0  0  0  0  0  0
  1  2  1  0
  2  3  1  0
  3  4  2  0
  4  5  1  0
  5  6  2  0
  6  7  1  0
  7  8  2  3
  8  9  1  0
  9 10  2  0
  9 11  1  0
 11 12  1  0
 12 13  1  0
 13 14  1  0
 14 15  1  0
 15 16  2  0
 15 17  1  0
 17 18  2  0
 18 19  1  0
 19 20  1  0
 19 21  2  0
 21 22  1  0
 21 23  1  0
 23 24  1  0
 23 25  2  0
 14 26  1  0
 26 27  1  0
  6 28  1  0
 28 29  2  0
 29 30  1  0
 29  3  1  0
 27 11  1  0
 25 17  1  0
M  CHG  3  20  -1  22  -1  30  -1
M  END
>  <UniqueID>  (801) 
50

>  <SMILES>  (801) 
COc1ccc(C=CC(=O)N2CCN(C(=O)c3cc([O-])c([O-])c(O)c3)CC2)cc1[O-]

>  <Energy>  (801) 
66.76118889188216

>  <Genealogy>  (801) 
COc1ccc(C=CC(=O)N2CCN(C(=O)c3cc([O-])c([O-])c(O)c3)CC2)cc1[O-] (protonated)
COc1ccc(C=CC(=O)N2CCN(C(=O)c3cc([O-])c([O-])c(O)c3)CC2)cc1[O-] (3D coordinates assigned)
COc1ccc(C=CC(=O)N2CCN(C(=O)c3cc([O-])c([O-])c(O)c3)CC2)cc1[O-] (nonaromatic ring conformer: 66.76118889188216 kcal/mol)

>  <smiles>  (801) 
COc1ccc(C=CC(=O)N2CCN(C(=O)c3cc(O)c(O)c(O)c3)CC2)cc1O

>  <score_type>  (801) 
oracle

>  <origin>  (801) 
adg

>  <m_score__min__energy>  (801) 
-15.82

>  <m_primary>  (801) 
energy

$$$$
63:0
     RDKit          3D

 27 30  0  0  0  0  0  0  0  0999 V2000
   55.1200   30.8430   44.5090 O   0  0  0  0  0  0  0  0  0  0  0  0
   56.3330   31.1790   44.5030 C   0  0  0  0  0  0  0  0  0  0  0  0
   57.3480   30.2920   43.8320 C   0  0  0  0  0  0  0  0  0  0  0  0
   57.7380   29.1810   44.6990 N   0  0  0  0  0  0  0  0  0  0  0  0
   56.9140   28.2890   45.2960 C   0  0  0  0  0  0  0  0  0  0  0  0
   55.5260   28.3550   45.2480 O   0  0  0  0  0  0  0  0  0  0  0  0
   57.6470   27.2950   45.9110 C   0  0  0  0  0  0  0  0  0  0  0  0
   58.9690   27.5860   45.6870 C   0  0  0  0  0  0  0  0  0  0  0  0
   58.9960   28.7490   44.9420 C   0  0  0  0  0  0  0  0  0  0  0  0
   60.1430   29.3710   44.4620 O   0  0  0  0  0  0  0  0  0  0  0  0
   60.1040   26.7100   46.1110 C   0  0  0  0  0  0  0  0  0  0  0  0
   59.6120   25.4180   46.7330 C   0  0  0  0  0  0  0  0  0  0  0  0
   58.3100   25.1360   46.9620 C   0  0  0  0  0  0  0  0  0  0  0  0
   57.1660   26.0680   46.6150 C   0  0  0  0  0  0  0  0  0  0  0  0
   56.7060   32.4660   45.0070 N   0  0  0  0  0  0  0  0  0  0  0  0
   57.9840   32.7610   45.5830 C   0  0  0  0  0  0  0  0  0  0  0  0
   58.5830   34.0220   45.4290 C   0  0  0  0  0  0  0  0  0  0  0  0
   59.7880   34.3140   46.0730 C   0  0  0  0  0  0  0  0  0  0  0  0
   60.4300   33.3400   46.8550 C   0  0  0  0  0  0  0  0  0  0  0  0
   61.6510   33.6550   47.5540 N   0  0  0  0  0  0  0  0  0  0  0  0
   62.9460   33.4860   46.8860 C   0  0  0  0  0  0  0  0  0  0  0  0
   64.0770   33.4710   47.9190 C   0  0  0  0  0  0  0  0  0  0  0  0
   63.6380   32.8130   49.0890 O   0  0  0  0  0  0  0  0  0  0  0  0
   62.7190   33.6310   49.7950 C   0  0  0  0  0  0  0  0  0  0  0  0
   61.6210   34.2490   48.8970 C   0  0  0  0  0  0  0  0  0  0  0  0
   59.8480   32.0670   46.9740 C   0  0  0  0  0  0  0  0  0  0  0  0
   58.6390   31.7780   46.3330 C   0  0  0  0  0  0  0  0  0  0  0  0
  1  2  2  0
  2  3  1  0
  3  4  1  0
  4  5  1  0
  5  6  1  0
  5  7  2  0
  7  8  1  0
  8  9  2  0
  9 10  1  0
  8 11  1  0
 11 12  1  0
 12 13  2  0
 13 14  1  0
  2 15  1  0
 15 16  1  0
 16 17  2  0
 17 18  1  0
 18 19  2  0
 19 20  1  0
 20 21  1  0
 21 22  1  0
 22 23  1  0
 23 24  1  0
 24 25  1  0
 19 26  1  0
 26 27  2  0
  9  4  1  0
 27 16  1  0
 14  7  1  0
 25 20  1  0
M  CHG  3   6  -1  10  -1  15  -1
M  END
>  <UniqueID>  (802) 
61

>  <SMILES>  (802) 
O=C(Cn1c([O-])c2c(c1[O-])CC=CC2)[N-]c1ccc(N2CCOCC2)cc1

>  <Energy>  (802) 
95.49190775191165

>  <Genealogy>  (802) 
O=C(Cn1c([O-])c2c(c1[O-])CC=CC2)[N-]c1ccc(N2CCOCC2)cc1 (protonated)
O=C(Cn1c([O-])c2c(c1[O-])CC=CC2)[N-]c1ccc(N2CCOCC2)cc1 (3D coordinates assigned)
O=C(Cn1c([O-])c2c(c1[O-])CC=CC2)[N-]c1ccc(N2CCOCC2)cc1 (nonaromatic ring conformer: 95.49190775191165 kcal/mol)

>  <smiles>  (802) 
O=C(Cn1c(O)c2c(c1O)CC=CC2)Nc1ccc(N2CCOCC2)cc1

>  <score_type>  (802) 
oracle

>  <origin>  (802) 
adg

>  <m_score__min__energy>  (802) 
-14.220000000000001

>  <m_primary>  (802) 
energy

$$$$
76:0
     RDKit          3D

 31 34  0  0  0  0  0  0  0  0999 V2000
   59.0880   28.0940   45.9540 C   0  0  0  0  0  0  0  0  0  0  0  0
   58.7120   29.3740   45.6930 N   0  0  0  0  0  0  0  0  0  0  0  0
   57.4330   29.6960   45.3440 C   0  0  0  0  0  0  0  0  0  0  0  0
   57.0890   30.9280   45.0980 N   0  0  0  0  0  0  0  0  0  0  0  0
   57.9420   31.9970   44.6460 C   0  0  0  0  0  0  0  0  0  0  0  0
   58.1240   32.1930   43.4130 O   0  0  0  0  0  0  0  0  0  0  0  0
   58.6100   32.8720   45.6370 C   0  0  0  0  0  0  0  0  0  0  0  0
   57.8910   33.8900   46.2910 C   0  0  0  0  0  0  0  0  0  0  0  0
   58.5200   34.7100   47.2300 C   0  0  0  0  0  0  0  0  0  0  0  0
   59.8720   34.5310   47.5270 C   0  0  0  0  0  0  0  0  0  0  0  0
   60.6050   33.5280   46.8800 C   0  0  0  0  0  0  0  0  0  0  0  0
   62.3060   33.2710   47.2640 S   0  0  0  0  0  0  0  0  0  0  0  0
   63.1130   33.4700   46.0120 O   0  0  0  0  0  0  0  0  0  0  0  0
   62.7530   34.2840   48.2820 O   0  0  0  0  0  0  0  0  0  0  0  0
   62.5360   31.6370   47.8510 N   0  0  0  0  0  0  0  0  0  0  0  0
   61.3640   30.7770   47.6640 C   0  0  0  0  0  0  0  0  0  0  0  0
   60.1670   31.1990   48.5210 C   0  0  0  0  0  0  0  0  0  0  0  0
   60.5160   31.7040   49.8660 N   0  0  0  0  0  0  0  0  0  0  0  0
   59.4360   32.0470   50.7910 C   0  0  0  0  0  0  0  0  0  0  0  0
   58.3410   31.1710   51.0010 C   0  0  0  0  0  0  0  0  0  0  0  0
   57.3120   31.5040   51.8880 C   0  0  0  0  0  0  0  0  0  0  0  0
   57.3470   32.7080   52.5850 C   0  0  0  0  0  0  0  0  0  0  0  0
   58.4130   33.5850   52.4020 C   0  0  0  0  0  0  0  0  0  0  0  0
   59.4480   33.2630   51.5200 C   0  0  0  0  0  0  0  0  0  0  0  0
   61.9130   32.0050   50.2570 C   0  0  0  0  0  0  0  0  0  0  0  0
   62.9880   31.5860   49.2420 C   0  0  0  0  0  0  0  0  0  0  0  0
   59.9730   32.6990   45.9430 C   0  0  0  0  0  0  0  0  0  0  0  0
   56.4690   28.6800   45.2500 C   0  0  0  0  0  0  0  0  0  0  0  0
   55.1570   28.9750   44.8960 O   0  0  0  0  0  0  0  0  0  0  0  0
   56.8380   27.3580   45.5140 C   0  0  0  0  0  0  0  0  0  0  0  0
   58.1540   27.0600   45.8680 C   0  0  0  0  0  0  0  0  0  0  0  0
  1  2  1  0
  2  3  1  0
  3  4  2  0
  4  5  1  0
  5  6  2  0
  5  7  1  0
  7  8  2  0
  8  9  1  0
  9 10  2  0
 10 11  1  0
 11 12  1  0
 12 13  2  0
 12 14  2  0
 12 15  1  0
 15 16  1  0
 16 17  1  0
 17 18  1  0
 18 19  1  0
 19 20  2  0
 20 21  1  0
 21 22  2  0
 22 23  1  0
 23 24  2  0
 18 25  1  0
 25 26  1  0
 11 27  2  0
  3 28  1  0
 28 29  1  0
 28 30  2  0
 30 31  1  0
 31  1  2  0
 27  7  1  0
 26 15  1  0
 24 19  1  0
M  CHG  2   2  -1  29  -1
M  END
>  <UniqueID>  (803) 
73

>  <SMILES>  (803) 
O=C(/N=c1\[n-]cccc1[O-])c1cccc(S(=O)(=O)N2CCN(c3ccccc3)CC2)c1

>  <Energy>  (803) 
70.06494133069897

>  <Genealogy>  (803) 
O=C(N=c1[n-]cccc1[O-])c1cccc(S(=O)(=O)N2CCN(c3ccccc3)CC2)c1 (protonated)
O=C(/N=c1\[n-]cccc1[O-])c1cccc(S(=O)(=O)N2CCN(c3ccccc3)CC2)c1 (cis-trans isomerization)
O=C(/N=c1\[n-]cccc1[O-])c1cccc(S(=O)(=O)N2CCN(c3ccccc3)CC2)c1 (3D coordinates assigned)
O=C(/N=c1\[n-]cccc1[O-])c1cccc(S(=O)(=O)N2CCN(c3ccccc3)CC2)c1 (nonaromatic ring conformer: 70.06494133069897 kcal/mol)

>  <smiles>  (803) 
O=C(N=c1[nH]cccc1O)c1cccc(S(=O)(=O)N2CCN(c3ccccc3)CC2)c1

>  <score_type>  (803) 
oracle

>  <origin>  (803) 
adg

>  <m_score__min__energy>  (803) 
-15.52

>  <m_primary>  (803) 
energy

$$$$
81:0
     RDKit          3D

 23 24  0  0  0  0  0  0  0  0999 V2000
   56.8660   29.8520   43.3310 O   0  0  0  0  0  0  0  0  0  0  0  0
   57.0580   29.9240   44.5730 C   0  0  0  0  0  0  0  0  0  0  0  0
   56.9750   31.2150   45.1970 N   0  0  0  0  0  0  0  0  0  0  0  0
   57.3250   32.5060   44.6090 C   0  0  0  0  0  0  0  0  0  0  0  0
   58.1300   33.3390   45.5730 C   0  0  0  0  0  0  0  0  0  0  0  0
   58.8800   34.4360   45.1140 C   0  0  0  0  0  0  0  0  0  0  0  0
   59.6380   35.1950   46.0090 C   0  0  0  0  0  0  0  0  0  0  0  0
   59.6650   34.8590   47.3660 C   0  0  0  0  0  0  0  0  0  0  0  0
   58.9360   33.7600   47.8280 C   0  0  0  0  0  0  0  0  0  0  0  0
   58.1760   32.9980   46.9350 C   0  0  0  0  0  0  0  0  0  0  0  0
   57.3520   28.6810   45.3140 C   0  0  0  0  0  0  0  0  0  0  0  0
   57.6410   28.7130   46.5380 O   0  0  0  0  0  0  0  0  0  0  0  0
   57.3270   27.4310   44.6100 N   0  0  0  0  0  0  0  0  0  0  0  0
   57.2210   26.1230   45.1950 C   0  0  0  0  0  0  0  0  0  0  0  0
   58.2720   25.1900   45.1190 C   0  0  0  0  0  0  0  0  0  0  0  0
   58.1500   23.9210   45.7160 C   0  0  0  0  0  0  0  0  0  0  0  0
   59.2260   22.9690   45.6300 N   0  0  0  0  0  0  0  0  0  0  0  0
   60.4140   23.3530   45.5980 O   0  0  0  0  0  0  0  0  0  0  0  0
   58.9650   21.6190   45.5860 O   0  0  0  0  0  0  0  0  0  0  0  0
   56.9660   23.6040   46.4070 C   0  0  0  0  0  0  0  0  0  0  0  0
   55.9330   24.5380   46.5060 C   0  0  0  0  0  0  0  0  0  0  0  0
   56.0600   25.7940   45.9090 C   0  0  0  0  0  0  0  0  0  0  0  0
   55.0240   26.7150   46.0220 O   0  0  0  0  0  0  0  0  0  0  0  0
  1  2  2  0
  2  3  1  0
  3  4  1  0
  4  5  1  0
  5  6  2  0
  6  7  1  0
  7  8  2  0
  8  9  1  0
  9 10  2  0
  2 11  1  0
 11 12  2  0
 11 13  1  0
 13 14  1  0
 14 15  2  0
 15 16  1  0
 16 17  1  0
 17 18  2  0
 17 19  1  0
 16 20  2  0
 20 21  1  0
 21 22  2  0
 22 23  1  0
 10  5  1  0
 22 14  1  0
M  CHG  5   3  -1  13  -1  17   1  19  -1  23  -1
M  END
>  <UniqueID>  (804) 
77

>  <SMILES>  (804) 
O=C([N-]Cc1ccccc1)C(=O)[N-]c1cc([N+](=O)[O-])ccc1[O-]

>  <Energy>  (804) 
38.67946205246157

>  <Genealogy>  (804) 
O=C([N-]Cc1ccccc1)C(=O)[N-]c1cc([N+](=O)[O-])ccc1[O-] (protonated)
O=C([N-]Cc1ccccc1)C(=O)[N-]c1cc([N+](=O)[O-])ccc1[O-] (3D coordinates assigned)
O=C([N-]Cc1ccccc1)C(=O)[N-]c1cc([N+](=O)[O-])ccc1[O-] (optimized conformer: 38.67946205246157 kcal/mol)

>  <smiles>  (804) 
O=C(NCc1ccccc1)C(=O)Nc1cc([N+](=O)[O-])ccc1O

>  <score_type>  (804) 
oracle

>  <origin>  (804) 
adg

>  <m_score__min__energy>  (804) 
-14.789999999999999

>  <m_primary>  (804) 
energy

$$$$
9:0
     RDKit          3D

 26 28  0  0  0  0  0  0  0  0999 V2000
   54.4590   25.9970   45.8400 N   0  0  0  0  0  0  0  0  0  0  0  0
   55.8730   25.9160   46.0020 C   0  0  0  0  0  0  0  0  0  0  0  0
   56.4130   24.7920   46.1840 O   0  0  0  0  0  0  0  0  0  0  0  0
   56.6890   27.1430   45.9570 C   0  0  0  0  0  0  0  0  0  0  0  0
   56.2320   28.2250   45.2670 N   0  0  0  0  0  0  0  0  0  0  0  0
   58.0410   32.8580   44.6820 C   0  0  0  0  0  0  0  0  0  0  0  0
   57.6470   32.3230   43.5620 N   0  0  0  0  0  0  0  0  0  0  0  0
   56.9280   31.0940   43.3750 C   0  0  0  0  0  0  0  0  0  0  0  0
   56.6830   30.7200   42.1980 O   0  0  0  0  0  0  0  0  0  0  0  0
   56.3940   30.3700   44.4970 N   0  0  0  0  0  0  0  0  0  0  0  0
   56.9270   29.3910   45.1750 C   0  0  0  0  0  0  0  0  0  0  0  0
   59.2740   33.9940   44.8850 S   0  0  0  0  0  0  0  0  0  0  0  0
   59.0400   34.0960   46.5510 C   0  0  0  0  0  0  0  0  0  0  0  0
   59.8780   34.8990   47.4940 C   0  0  0  0  0  0  0  0  0  0  0  0
   61.1670   34.1790   47.7780 C   0  0  0  0  0  0  0  0  0  0  0  0
   61.8960   33.5930   46.7310 C   0  0  0  0  0  0  0  0  0  0  0  0
   63.1150   32.9580   46.9890 C   0  0  0  0  0  0  0  0  0  0  0  0
   63.6180   32.9110   48.2930 C   0  0  0  0  0  0  0  0  0  0  0  0
   62.9060   33.5050   49.3390 C   0  0  0  0  0  0  0  0  0  0  0  0
   63.3990   33.4680   50.6010 F   0  0  0  0  0  0  0  0  0  0  0  0
   61.6860   34.1410   49.0830 C   0  0  0  0  0  0  0  0  0  0  0  0
   58.0150   33.2250   46.9080 C   0  0  0  0  0  0  0  0  0  0  0  0
   57.4610   32.5530   45.8650 N   0  0  0  0  0  0  0  0  0  0  0  0
   58.1650   29.4990   45.8430 C   0  0  0  0  0  0  0  0  0  0  0  0
   58.6570   28.4060   46.5560 C   0  0  0  0  0  0  0  0  0  0  0  0
   57.9250   27.2200   46.6140 C   0  0  0  0  0  0  0  0  0  0  0  0
  1  2  1  0
  2  3  2  0
  2  4  1  0
  4  5  1  0
  5  6  1  0
  6  7  2  0
  7  8  1  0
  8  9  2  0
  8 10  1  0
 10 11  2  0
 11 12  1  0
 12 13  1  0
 13 14  1  0
 14 15  1  0
 15 16  2  0
 16 17  1  0
 17 18  2  0
 18 19  1  0
 19 20  1  0
 19 21  2  0
 13 22  2  0
 22 23  1  0
  6 24  1  0
 24 25  2  0
 25 26  1  0
 26  4  2  0
 23 11  1  0
 21 15  1  0
M  CHG  2   1  -1   5  -1
M  END
>  <UniqueID>  (805) 
10

>  <SMILES>  (805) 
[NH-]C(=O)c1ccc/c(=N\C(=O)/N=c2/[nH]cc(Cc3cccc(F)c3)s2)[n-]1

>  <Energy>  (805) 
79.19359613046996

>  <Genealogy>  (805) 
[NH-]C(=O)c1cccc(=NC(=O)N=c2[nH]cc(Cc3cccc(F)c3)s2)[n-]1 (protonated)
[NH-]C(=O)c1ccc/c(=N\C(=O)/N=c2/[nH]cc(Cc3cccc(F)c3)s2)[n-]1 (cis-trans isomerization)
[NH-]C(=O)c1ccc/c(=N\C(=O)/N=c2/[nH]cc(Cc3cccc(F)c3)s2)[n-]1 (3D coordinates assigned)
[NH-]C(=O)c1ccc/c(=N\C(=O)/N=c2/[nH]cc(Cc3cccc(F)c3)s2)[n-]1 (optimized conformer: 79.19359613046996 kcal/mol)

>  <smiles>  (805) 
NC(=O)c1cccc(=NC(=O)N=c2[nH]cc(Cc3cccc(F)c3)s2)[nH]1

>  <score_type>  (805) 
oracle

>  <origin>  (805) 
adg

>  <m_score__min__energy>  (805) 
-14.27

>  <m_primary>  (805) 
energy

$$$$
21:0
     RDKit          3D

 24 26  0  0  0  0  0  0  0  0999 V2000
   56.9160   24.8320   43.4050 O   0  0  0  0  0  0  0  0  0  0  0  0
   56.9520   23.4800   43.7530 C   0  0  0  0  0  0  0  0  0  0  0  0
   56.6380   22.5220   42.7840 C   0  0  0  0  0  0  0  0  0  0  0  0
   56.6680   21.1650   43.1080 C   0  0  0  0  0  0  0  0  0  0  0  0
   57.0110   20.7790   44.4040 C   0  0  0  0  0  0  0  0  0  0  0  0
   57.3120   21.7220   45.3350 N   0  0  0  0  0  0  0  0  0  0  0  0
   57.2940   23.0560   45.0520 C   0  0  0  0  0  0  0  0  0  0  0  0
   57.5880   23.9400   45.9630 N   0  0  0  0  0  0  0  0  0  0  0  0
   56.7150   24.9380   46.5180 C   0  0  0  0  0  0  0  0  0  0  0  0
   55.9320   24.6650   47.4680 O   0  0  0  0  0  0  0  0  0  0  0  0
   56.7310   26.3010   45.9700 C   0  0  0  0  0  0  0  0  0  0  0  0
   55.6150   27.0310   45.7640 N   0  0  0  0  0  0  0  0  0  0  0  0
   56.0510   28.1930   45.2460 C   0  0  0  0  0  0  0  0  0  0  0  0
   55.2010   29.2260   44.8690 O   0  0  0  0  0  0  0  0  0  0  0  0
   57.4250   28.2160   45.1300 C   0  0  0  0  0  0  0  0  0  0  0  0
   58.2670   29.3000   44.5230 C   0  0  0  0  0  0  0  0  0  0  0  0
   58.9940   30.1220   45.5950 C   0  0  0  0  0  0  0  0  0  0  0  0
   58.5080   31.5480   45.6290 C   0  0  0  0  0  0  0  0  0  0  0  0
   58.0340   32.1670   44.4590 C   0  0  0  0  0  0  0  0  0  0  0  0
   57.5440   33.4740   44.5030 C   0  0  0  0  0  0  0  0  0  0  0  0
   57.5190   34.1730   45.7130 C   0  0  0  0  0  0  0  0  0  0  0  0
   57.9820   33.5640   46.8820 C   0  0  0  0  0  0  0  0  0  0  0  0
   58.4710   32.2540   46.8440 C   0  0  0  0  0  0  0  0  0  0  0  0
   57.8680   26.9940   45.5860 C   0  0  0  0  0  0  0  0  0  0  0  0
  1  2  1  0
  2  3  2  0
  3  4  1  0
  4  5  2  0
  5  6  1  0
  6  7  1  0
  7  8  2  0
  8  9  1  0
  9 10  2  0
  9 11  1  0
 11 12  1  0
 12 13  1  0
 13 14  1  0
 13 15  2  0
 15 16  1  0
 16 17  1  0
 17 18  1  0
 18 19  2  0
 19 20  1  0
 20 21  2  0
 21 22  1  0
 22 23  2  0
 15 24  1  0
  7  2  1  0
 24 11  2  0
 23 18  1  0
M  CHG  3   6  -1  12  -1  14  -1
M  END
>  <UniqueID>  (806) 
21

>  <SMILES>  (806) 
O=C(/N=c1\[n-]cccc1O)c1cc(CCc2ccccc2)c([O-])[n-]1

>  <Energy>  (806) 
64.66084943106472

>  <Genealogy>  (806) 
O=C(N=c1[n-]cccc1O)c1cc(CCc2ccccc2)c([O-])[n-]1 (protonated)
O=C(/N=c1\[n-]cccc1O)c1cc(CCc2ccccc2)c([O-])[n-]1 (cis-trans isomerization)
O=C(/N=c1\[n-]cccc1O)c1cc(CCc2ccccc2)c([O-])[n-]1 (3D coordinates assigned)
O=C(/N=c1\[n-]cccc1O)c1cc(CCc2ccccc2)c([O-])[n-]1 (optimized conformer: 64.66084943106472 kcal/mol)

>  <smiles>  (806) 
O=C(N=c1[nH]cccc1O)c1cc(CCc2ccccc2)c(O)[nH]1

>  <score_type>  (806) 
oracle

>  <origin>  (806) 
adg

>  <m_score__min__energy>  (806) 
-15.039999999999999

>  <m_primary>  (806) 
energy

$$$$
57:0
     RDKit          3D

 22 23  0  0  0  0  0  0  0  0999 V2000
   58.9370   26.5010   46.4030 C   0  0  0  0  0  0  0  0  0  0  0  0
   58.3740   27.4890   45.6580 N   0  0  0  0  0  0  0  0  0  0  0  0
   57.0320   27.5760   45.4410 C   0  0  0  0  0  0  0  0  0  0  0  0
   56.6040   28.5600   44.7000 N   0  0  0  0  0  0  0  0  0  0  0  0
   56.6930   29.9750   44.9230 C   0  0  0  0  0  0  0  0  0  0  0  0
   55.6840   30.7080   44.7440 O   0  0  0  0  0  0  0  0  0  0  0  0
   57.9230   30.5820   45.3430 N   0  0  0  0  0  0  0  0  0  0  0  0
   58.1970   31.8450   45.5180 C   0  0  0  0  0  0  0  0  0  0  0  0
   58.9570   32.1930   46.5930 N   0  0  0  0  0  0  0  0  0  0  0  0
   59.2930   33.4830   46.8700 C   0  0  0  0  0  0  0  0  0  0  0  0
   60.0960   33.7980   48.0080 N   0  0  0  0  0  0  0  0  0  0  0  0
   61.8150   33.5780   48.0360 S   0  0  0  0  0  0  0  0  0  0  0  0
   62.1200   32.1770   48.4830 O   0  0  0  0  0  0  0  0  0  0  0  0
   62.4340   34.5470   49.0030 O   0  0  0  0  0  0  0  0  0  0  0  0
   62.4830   33.8290   46.4060 C   0  0  0  0  0  0  0  0  0  0  0  0
   58.8460   34.5080   46.0350 C   0  0  0  0  0  0  0  0  0  0  0  0
   58.0480   34.1940   44.9360 C   0  0  0  0  0  0  0  0  0  0  0  0
   57.7120   32.8650   44.6710 C   0  0  0  0  0  0  0  0  0  0  0  0
   56.1820   26.6220   46.0610 C   0  0  0  0  0  0  0  0  0  0  0  0
   54.7970   26.7030   45.9980 O   0  0  0  0  0  0  0  0  0  0  0  0
   56.7510   25.5900   46.8150 C   0  0  0  0  0  0  0  0  0  0  0  0
   58.1320   25.5240   46.9850 C   0  0  0  0  0  0  0  0  0  0  0  0
  1  2  1  0
  2  3  1  0
  3  4  2  0
  4  5  1  0
  5  6  2  0
  5  7  1  0
  7  8  2  3
  8  9  1  0
  9 10  1  0
 10 11  1  0
 11 12  1  0
 12 13  2  0
 12 14  2  0
 12 15  1  0
 10 16  2  0
 16 17  1  0
 17 18  2  0
  3 19  1  0
 19 20  1  0
 19 21  2  0
 21 22  1  0
 22  1  2  0
 18  8  1  0
M  CHG  4   2  -1   9  -1  11  -1  20  -1
M  END
>  <UniqueID>  (807) 
55

>  <SMILES>  (807) 
CS(=O)(=O)[N-]c1cccc(=NC(=O)/N=c2/[n-]cccc2[O-])[n-]1

>  <Energy>  (807) 
50.18855201507849

>  <Genealogy>  (807) 
CS(=O)(=O)[N-]c1cccc(=NC(=O)N=c2[n-]cccc2[O-])[n-]1 (protonated)
CS(=O)(=O)[N-]c1cccc(=NC(=O)/N=c2/[n-]cccc2[O-])[n-]1 (cis-trans isomerization)
CS(=O)(=O)[N-]c1cccc(=NC(=O)/N=c2/[n-]cccc2[O-])[n-]1 (3D coordinates assigned)
CS(=O)(=O)[N-]c1cccc(=NC(=O)/N=c2/[n-]cccc2[O-])[n-]1 (optimized conformer: 50.18855201507849 kcal/mol)

>  <smiles>  (807) 
CS(=O)(=O)Nc1cccc(=NC(=O)N=c2[nH]cccc2O)[nH]1

>  <score_type>  (807) 
oracle

>  <origin>  (807) 
adg

>  <m_score__min__energy>  (807) 
-14.59

>  <m_primary>  (807) 
energy

$$$$
11:0
     RDKit          3D

 23 25  0  0  0  0  0  0  0  0999 V2000
   55.6440   30.6130   54.4400 O   0  0  0  0  0  0  0  0  0  0  0  0
   55.3300   30.2010   53.2910 C   0  0  0  0  0  0  0  0  0  0  0  0
   56.4090   29.8840   52.3010 C   0  0  0  0  0  0  0  0  0  0  0  0
   57.2370   31.1100   52.0270 C   0  0  0  0  0  0  0  0  0  0  0  0
   56.9400   32.3270   52.6650 C   0  0  0  0  0  0  0  0  0  0  0  0
   57.7320   33.4560   52.4320 C   0  0  0  0  0  0  0  0  0  0  0  0
   58.8290   33.3750   51.5710 C   0  0  0  0  0  0  0  0  0  0  0  0
   59.1370   32.1660   50.9420 C   0  0  0  0  0  0  0  0  0  0  0  0
   58.3470   31.0360   51.1700 C   0  0  0  0  0  0  0  0  0  0  0  0
   53.9510   30.1010   52.9040 N   0  0  0  0  0  0  0  0  0  0  0  0
   52.8630   30.3850   53.7980 C   0  0  0  0  0  0  0  0  0  0  0  0
   53.0150   30.1540   55.1760 C   0  0  0  0  0  0  0  0  0  0  0  0
   51.9460   30.3510   56.0510 C   0  0  0  0  0  0  0  0  0  0  0  0
   50.7110   30.7740   55.5600 C   0  0  0  0  0  0  0  0  0  0  0  0
   50.5420   31.0030   54.1930 C   0  0  0  0  0  0  0  0  0  0  0  0
   51.6090   30.8110   53.2960 C   0  0  0  0  0  0  0  0  0  0  0  0
   51.4220   31.1210   51.8600 C   0  0  0  0  0  0  0  0  0  0  0  0
   51.6640   30.2500   50.8610 N   0  0  0  0  0  0  0  0  0  0  0  0
   51.3920   30.9600   49.7470 C   0  0  0  0  0  0  0  0  0  0  0  0
   51.5070   30.4780   48.5900 O   0  0  0  0  0  0  0  0  0  0  0  0
   50.9910   32.2300   49.9680 N   0  0  0  0  0  0  0  0  0  0  0  0
   51.0170   32.3180   51.3080 C   0  0  0  0  0  0  0  0  0  0  0  0
   50.6530   33.4620   52.0070 O   0  0  0  0  0  0  0  0  0  0  0  0
  1  2  2  0
  2  3  1  0
  3  4  1  0
  4  5  2  0
  5  6  1  0
  6  7  2  0
  7  8  1  0
  8  9  2  0
  2 10  1  0
 10 11  1  0
 11 12  2  0
 12 13  1  0
 13 14  2  0
 14 15  1  0
 15 16  2  0
 16 17  1  0
 17 18  1  0
 18 19  1  0
 19 20  2  0
 19 21  1  0
 21 22  1  0
 22 23  1  0
  9  4  1  0
 16 11  1  0
 22 17  2  0
M  CHG  3  18  -1  21  -1  23  -1
M  END
>  <UniqueID>  (808) 
12

>  <SMILES>  (808) 
O=C(Cc1ccccc1)Nc1ccccc1-c1[n-]c(=O)[n-]c1[O-]

>  <Energy>  (808) 
72.35535437293802

>  <Genealogy>  (808) 
O=C(Cc1ccccc1)Nc1ccccc1-c1[n-]c(=O)[n-]c1[O-] (protonated)
O=C(Cc1ccccc1)Nc1ccccc1-c1[n-]c(=O)[n-]c1[O-] (3D coordinates assigned)
O=C(Cc1ccccc1)Nc1ccccc1-c1[n-]c(=O)[n-]c1[O-] (optimized conformer: 72.35535437293802 kcal/mol)

>  <smiles>  (808) 
O=C(Cc1ccccc1)Nc1ccccc1-c1[nH]c(=O)[nH]c1O

>  <score_type>  (808) 
oracle

>  <origin>  (808) 
adg

>  <m_score__min__energy>  (808) 
-15.58

>  <m_primary>  (808) 
energy

$$$$
14:0
     RDKit          3D

 31 34  0  0  0  0  0  0  0  0999 V2000
   59.4030   29.8530   46.8070 C   0  0  0  0  0  0  0  0  0  0  0  0
   58.9410   30.8550   46.0430 C   0  0  0  0  0  0  0  0  0  0  0  0
   58.2520   30.7270   44.8330 C   0  0  0  0  0  0  0  0  0  0  0  0
   57.9110   29.5870   44.2010 C   0  0  0  0  0  0  0  0  0  0  0  0
   57.4740   28.3620   44.9090 C   0  0  0  0  0  0  0  0  0  0  0  0
   56.1270   28.1480   45.2490 C   0  0  0  0  0  0  0  0  0  0  0  0
   55.1530   29.0880   44.9320 O   0  0  0  0  0  0  0  0  0  0  0  0
   55.7620   27.0020   45.8790 N   0  0  0  0  0  0  0  0  0  0  0  0
   56.6740   26.0410   46.1730 C   0  0  0  0  0  0  0  0  0  0  0  0
   56.2040   24.6740   46.9300 S   0  0  0  0  0  0  0  0  0  0  0  0
   57.9750   26.2110   45.8270 N   0  0  0  0  0  0  0  0  0  0  0  0
   58.3930   27.3410   45.1990 C   0  0  0  0  0  0  0  0  0  0  0  0
   59.6090   27.4630   44.8900 O   0  0  0  0  0  0  0  0  0  0  0  0
   57.9400   32.0160   44.4220 C   0  0  0  0  0  0  0  0  0  0  0  0
   58.4570   32.8710   45.3740 C   0  0  0  0  0  0  0  0  0  0  0  0
   58.3360   34.3640   45.3330 C   0  0  0  0  0  0  0  0  0  0  0  0
   59.0600   32.1690   46.3610 N   0  0  0  0  0  0  0  0  0  0  0  0
   59.7170   32.7320   47.5110 C   0  0  0  0  0  0  0  0  0  0  0  0
   58.9610   33.2070   48.5920 C   0  0  0  0  0  0  0  0  0  0  0  0
   59.5990   33.7500   49.7070 C   0  0  0  0  0  0  0  0  0  0  0  0
   60.9930   33.8290   49.7500 C   0  0  0  0  0  0  0  0  0  0  0  0
   61.7700   33.3700   48.6700 C   0  0  0  0  0  0  0  0  0  0  0  0
   63.2550   33.4570   48.7430 C   0  0  0  0  0  0  0  0  0  0  0  0
   63.8690   34.0860   47.8340 O   0  0  0  0  0  0  0  0  0  0  0  0
   64.0040   32.8790   49.8430 N   0  0  0  0  0  0  0  0  0  0  0  0
   65.4610   32.9910   49.5750 C   0  0  0  0  0  0  0  0  0  0  0  0
   66.3160   32.0340   50.4370 C   0  0  0  0  0  0  0  0  0  0  0  0
   65.5750   31.5890   51.6980 C   0  0  0  0  0  0  0  0  0  0  0  0
   64.2430   30.9030   51.3480 C   0  0  0  0  0  0  0  0  0  0  0  0
   63.6030   31.4730   50.0640 C   0  0  0  0  0  0  0  0  0  0  0  0
   61.1160   32.8160   47.5530 C   0  0  0  0  0  0  0  0  0  0  0  0
  1  2  2  0
  2  3  1  0
  3  4  2  3
  4  5  1  0
  5  6  2  0
  6  7  1  0
  6  8  1  0
  8  9  1  0
  9 10  2  0
  9 11  1  0
 11 12  1  0
 12 13  2  0
  3 14  1  0
 14 15  2  0
 15 16  1  0
 15 17  1  0
 17 18  1  0
 18 19  2  0
 19 20  1  0
 20 21  2  0
 21 22  1  0
 22 23  1  0
 23 24  2  0
 23 25  1  0
 25 26  1  0
 26 27  1  0
 27 28  1  0
 28 29  1  0
 29 30  1  0
 22 31  2  0
 17  2  1  0
 31 18  1  0
 12  5  1  0
 30 25  1  0
M  CHG  4   7  -1   8  -1  11  -1  25   1
M  END
>  <UniqueID>  (809) 
15

>  <SMILES>  (809) 
C=c1c(=Cc2c([O-])[n-]c(=S)[n-]c2=O)cc(C)n1-c1cccc(C(=O)[NH+]2CCCCC2)c1

>  <Energy>  (809) 
110.19318460904292

>  <Genealogy>  (809) 
C=c1c(=Cc2c([O-])[n-]c(=S)[n-]c2=O)cc(C)n1-c1cccc(C(=O)[NH+]2CCCCC2)c1 (protonated)
C=c1c(=Cc2c([O-])[n-]c(=S)[n-]c2=O)cc(C)n1-c1cccc(C(=O)[NH+]2CCCCC2)c1 (3D coordinates assigned)
C=c1c(=Cc2c([O-])[n-]c(=S)[n-]c2=O)cc(C)n1-c1cccc(C(=O)[NH+]2CCCCC2)c1 (nonaromatic ring conformer: 110.19318460904292 kcal/mol)

>  <smiles>  (809) 
C=c1c(=Cc2c(O)[nH]c(=S)[nH]c2=O)cc(C)n1-c1cccc(C(=O)N2CCCCC2)c1

>  <score_type>  (809) 
oracle

>  <origin>  (809) 
adg

>  <m_score__min__energy>  (809) 
-16.120000000000001

>  <m_primary>  (809) 
energy

$$$$
15:0
     RDKit          3D

 28 30  0  0  0  0  0  0  0  0999 V2000
   58.3660   25.5870   48.0050 O   0  0  0  0  0  0  0  0  0  0  0  0
   57.3010   25.3240   47.3850 C   0  0  0  0  0  0  0  0  0  0  0  0
   56.3400   24.3290   47.9520 C   0  0  0  0  0  0  0  0  0  0  0  0
   56.3760   23.0700   47.1400 C   0  0  0  0  0  0  0  0  0  0  0  0
   55.9310   23.0610   45.8110 C   0  0  0  0  0  0  0  0  0  0  0  0
   56.0100   21.8820   45.0660 C   0  0  0  0  0  0  0  0  0  0  0  0
   55.5650   21.8690   43.7490 O   0  0  0  0  0  0  0  0  0  0  0  0
   56.5410   20.7240   45.6510 C   0  0  0  0  0  0  0  0  0  0  0  0
   56.6370   19.5270   44.9420 O   0  0  0  0  0  0  0  0  0  0  0  0
   56.9840   20.7750   46.9760 C   0  0  0  0  0  0  0  0  0  0  0  0
   56.8980   21.9350   47.6820 N   0  0  0  0  0  0  0  0  0  0  0  0
   56.9940   25.9720   46.1450 N   0  0  0  0  0  0  0  0  0  0  0  0
   57.6720   27.1060   45.5830 C   0  0  0  0  0  0  0  0  0  0  0  0
   59.0680   27.1210   45.4170 C   0  0  0  0  0  0  0  0  0  0  0  0
   59.6960   28.2290   44.8450 C   0  0  0  0  0  0  0  0  0  0  0  0
   58.9400   29.3230   44.4210 C   0  0  0  0  0  0  0  0  0  0  0  0
   57.5450   29.3160   44.5570 C   0  0  0  0  0  0  0  0  0  0  0  0
   56.6130   30.7170   44.0030 S   0  0  0  0  0  0  0  0  0  0  0  0
   56.8910   30.9440   42.5430 O   0  0  0  0  0  0  0  0  0  0  0  0
   55.1430   30.4360   44.1520 O   0  0  0  0  0  0  0  0  0  0  0  0
   57.0170   32.1640   44.8940 N   0  0  0  0  0  0  0  0  0  0  0  0
   57.7680   31.8310   46.1130 C   0  0  0  0  0  0  0  0  0  0  0  0
   58.0950   33.1200   46.8970 C   0  0  0  0  0  0  0  0  0  0  0  0
   57.7530   34.2900   46.1750 O   0  0  0  0  0  0  0  0  0  0  0  0
   58.3510   34.2560   44.8930 C   0  0  0  0  0  0  0  0  0  0  0  0
   57.7960   33.0880   44.0530 C   0  0  0  0  0  0  0  0  0  0  0  0
   56.9120   28.1970   45.1340 C   0  0  0  0  0  0  0  0  0  0  0  0
   55.5270   28.1650   45.2730 O   0  0  0  0  0  0  0  0  0  0  0  0
  1  2  2  0
  2  3  1  0
  3  4  1  0
  4  5  2  0
  5  6  1  0
  6  7  1  0
  6  8  2  0
  8  9  1  0
  8 10  1  0
 10 11  2  0
  2 12  1  0
 12 13  1  0
 13 14  2  0
 14 15  1  0
 15 16  2  0
 16 17  1  0
 17 18  1  0
 18 19  2  0
 18 20  2  0
 18 21  1  0
 21 22  1  0
 22 23  1  0
 23 24  1  0
 24 25  1  0
 25 26  1  0
 17 27  2  0
 27 28  1  0
 11  4  1  0
 27 13  1  0
 26 21  1  0
M  CHG  3   7  -1  12  -1  28  -1
M  END
>  <UniqueID>  (810) 
16

>  <SMILES>  (810) 
O=C(Cc1cc([O-])c(O)cn1)[N-]c1cccc(S(=O)(=O)N2CCOCC2)c1[O-]

>  <Energy>  (810) 
56.062170296143655

>  <Genealogy>  (810) 
O=C(Cc1cc([O-])c(O)cn1)[N-]c1cccc(S(=O)(=O)N2CCOCC2)c1[O-] (protonated)
O=C(Cc1cc([O-])c(O)cn1)[N-]c1cccc(S(=O)(=O)N2CCOCC2)c1[O-] (3D coordinates assigned)
O=C(Cc1cc([O-])c(O)cn1)[N-]c1cccc(S(=O)(=O)N2CCOCC2)c1[O-] (nonaromatic ring conformer: 56.062170296143655 kcal/mol)

>  <smiles>  (810) 
O=C(Cc1cc(O)c(O)cn1)Nc1cccc(S(=O)(=O)N2CCOCC2)c1O

>  <score_type>  (810) 
oracle

>  <origin>  (810) 
adg

>  <m_score__min__energy>  (810) 
-16.120000000000001

>  <m_primary>  (810) 
energy

$$$$
27:0
     RDKit          3D

 34 36  0  0  0  0  0  0  0  0999 V2000
   55.1740   30.0890   44.0320 C   0  0  0  0  0  0  0  0  0  0  0  0
   55.6200   28.9790   44.8650 N   0  0  0  0  0  0  0  0  0  0  0  0
   56.9630   28.4810   44.9030 C   0  0  0  0  0  0  0  0  0  0  0  0
   57.4200   27.8820   43.8940 O   0  0  0  0  0  0  0  0  0  0  0  0
   57.8350   28.6790   46.0810 C   0  0  0  0  0  0  0  0  0  0  0  0
   58.3690   27.5590   46.7550 C   0  0  0  0  0  0  0  0  0  0  0  0
   58.0300   26.2360   46.3040 N   0  0  0  0  0  0  0  0  0  0  0  0
   56.4540   25.5100   46.3840 S   0  0  0  0  0  0  0  0  0  0  0  0
   56.2120   24.3910   45.0200 C   0  0  0  0  0  0  0  0  0  0  0  0
   56.2940   24.7860   47.6930 O   0  0  0  0  0  0  0  0  0  0  0  0
   55.4190   26.5970   46.3090 O   0  0  0  0  0  0  0  0  0  0  0  0
   59.2410   27.7610   47.8420 C   0  0  0  0  0  0  0  0  0  0  0  0
   59.5760   29.0510   48.2510 C   0  0  0  0  0  0  0  0  0  0  0  0
   59.0310   30.1540   47.6030 C   0  0  0  0  0  0  0  0  0  0  0  0
   58.1370   29.9820   46.5420 C   0  0  0  0  0  0  0  0  0  0  0  0
   57.5720   31.1250   45.9630 O   0  0  0  0  0  0  0  0  0  0  0  0
   58.1240   32.4140   46.0320 C   0  0  0  0  0  0  0  0  0  0  0  0
   58.3420   33.1110   44.8410 C   0  0  0  0  0  0  0  0  0  0  0  0
   58.9100   34.3850   44.8810 C   0  0  0  0  0  0  0  0  0  0  0  0
   59.2580   34.9390   46.0720 N   0  0  0  0  0  0  0  0  0  0  0  0
   59.0720   34.2850   47.2530 C   0  0  0  0  0  0  0  0  0  0  0  0
   59.3870   34.8400   48.3880 N   0  0  0  0  0  0  0  0  0  0  0  0
   60.0190   34.1940   49.5060 C   0  0  0  0  0  0  0  0  0  0  0  0
   59.2710   33.6470   50.5640 C   0  0  0  0  0  0  0  0  0  0  0  0
   59.9190   33.0630   51.6560 C   0  0  0  0  0  0  0  0  0  0  0  0
   61.3150   33.0320   51.7100 C   0  0  0  0  0  0  0  0  0  0  0  0
   62.0730   33.5810   50.6660 C   0  0  0  0  0  0  0  0  0  0  0  0
   63.5740   33.5800   50.7390 C   0  0  0  0  0  0  0  0  0  0  0  0
   64.2750   33.0360   49.1890 S   0  0  0  0  0  0  0  0  0  0  0  0
   63.4010   31.5910   48.6290 C   0  0  0  0  0  0  0  0  0  0  0  0
   64.1420   34.1250   48.1630 O   0  0  0  0  0  0  0  0  0  0  0  0
   65.7280   32.6970   49.3760 O   0  0  0  0  0  0  0  0  0  0  0  0
   61.4180   34.1780   49.5760 C   0  0  0  0  0  0  0  0  0  0  0  0
   58.4930   33.0090   47.2520 C   0  0  0  0  0  0  0  0  0  0  0  0
  1  2  1  0
  2  3  1  0
  3  4  2  0
  3  5  1  0
  5  6  2  0
  6  7  1  0
  7  8  1  0
  8  9  1  0
  8 10  2  0
  8 11  2  0
  6 12  1  0
 12 13  2  0
 13 14  1  0
 14 15  2  0
 15 16  1  0
 16 17  1  0
 17 18  1  0
 18 19  2  0
 19 20  1  0
 20 21  1  0
 21 22  2  3
 22 23  1  0
 23 24  2  0
 24 25  1  0
 25 26  2  0
 26 27  1  0
 27 28  1  0
 28 29  1  0
 29 30  1  0
 29 31  2  0
 29 32  2  0
 27 33  2  0
 21 34  1  0
 15  5  1  0
 34 17  2  0
 33 23  1  0
M  CHG  3   2  -1   7  -1  20  -1
M  END
>  <UniqueID>  (811) 
23

>  <SMILES>  (811) 
C[N-]C(=O)c1c([N-]S(C)(=O)=O)cccc1Oc1cc[n-]c(=Nc2cccc(CS(C)(=O)=O)c2)c1

>  <Energy>  (811) 
68.13342007877114

>  <Genealogy>  (811) 
C[N-]C(=O)c1c([N-]S(C)(=O)=O)cccc1Oc1cc[n-]c(=Nc2cccc(CS(C)(=O)=O)c2)c1 (protonated)
C[N-]C(=O)c1c([N-]S(C)(=O)=O)cccc1Oc1cc[n-]c(=Nc2cccc(CS(C)(=O)=O)c2)c1 (3D coordinates assigned)
C[N-]C(=O)c1c([N-]S(C)(=O)=O)cccc1Oc1cc[n-]c(=Nc2cccc(CS(C)(=O)=O)c2)c1 (optimized conformer: 68.13342007877114 kcal/mol)

>  <smiles>  (811) 
CNC(=O)c1c(NS(C)(=O)=O)cccc1Oc1cc[nH]c(=Nc2cccc(CS(C)(=O)=O)c2)c1

>  <score_type>  (811) 
oracle

>  <origin>  (811) 
adg

>  <m_score__min__energy>  (811) 
-14.25

>  <m_primary>  (811) 
energy

$$$$
46:0
     RDKit          3D

 27 28  0  0  0  0  0  0  0  0999 V2000
   60.5390   29.2890   48.0040 C   0  0  0  0  0  0  0  0  0  0  0  0
   61.4590   30.3440   47.7440 O   0  0  0  0  0  0  0  0  0  0  0  0
   61.1130   31.5930   47.2060 C   0  0  0  0  0  0  0  0  0  0  0  0
   59.8380   31.8370   46.6550 C   0  0  0  0  0  0  0  0  0  0  0  0
   59.5310   33.0820   46.0900 C   0  0  0  0  0  0  0  0  0  0  0  0
   57.9410   33.3870   45.3880 S   0  0  0  0  0  0  0  0  0  0  0  0
   57.9130   34.7980   44.8720 O   0  0  0  0  0  0  0  0  0  0  0  0
   56.8790   33.2510   46.4420 O   0  0  0  0  0  0  0  0  0  0  0  0
   57.5830   32.3000   44.0740 N   0  0  0  0  0  0  0  0  0  0  0  0
   56.6260   31.2620   44.4630 C   0  0  0  0  0  0  0  0  0  0  0  0
   57.2500   29.9000   44.4500 C   0  0  0  0  0  0  0  0  0  0  0  0
   58.4510   29.7700   44.0900 O   0  0  0  0  0  0  0  0  0  0  0  0
   56.5370   28.8060   45.0450 N   0  0  0  0  0  0  0  0  0  0  0  0
   56.9830   27.7270   45.6300 C   0  0  0  0  0  0  0  0  0  0  0  0
   58.3250   27.6470   45.8550 N   0  0  0  0  0  0  0  0  0  0  0  0
   58.9090   26.5740   46.4480 C   0  0  0  0  0  0  0  0  0  0  0  0
   58.1300   25.4970   46.8610 C   0  0  0  0  0  0  0  0  0  0  0  0
   56.7510   25.5470   46.6770 C   0  0  0  0  0  0  0  0  0  0  0  0
   56.1580   26.6630   46.0780 C   0  0  0  0  0  0  0  0  0  0  0  0
   54.7720   26.7020   45.9960 O   0  0  0  0  0  0  0  0  0  0  0  0
   60.5050   34.0840   46.0560 C   0  0  0  0  0  0  0  0  0  0  0  0
   61.7700   33.8540   46.5960 C   0  0  0  0  0  0  0  0  0  0  0  0
   62.0750   32.6250   47.1950 C   0  0  0  0  0  0  0  0  0  0  0  0
   63.3890   32.4250   47.7410 N   0  0  0  0  0  0  0  0  0  0  0  0
   63.8510   33.0740   48.9340 C   0  0  0  0  0  0  0  0  0  0  0  0
   65.1910   32.7310   49.4980 C   0  0  0  0  0  0  0  0  0  0  0  0
   63.1680   33.9870   49.4730 O   0  0  0  0  0  0  0  0  0  0  0  0
  1  2  1  0
  2  3  1  0
  3  4  2  0
  4  5  1  0
  5  6  1  0
  6  7  2  0
  6  8  2  0
  6  9  1  0
  9 10  1  0
 10 11  1  0
 11 12  2  0
 11 13  1  0
 13 14  2  3
 14 15  1  0
 15 16  1  0
 16 17  2  0
 17 18  1  0
 18 19  2  0
 19 20  1  0
  5 21  2  0
 21 22  1  0
 22 23  2  0
 23 24  1  0
 24 25  1  0
 25 26  1  0
 25 27  2  0
 23  3  1  0
 19 14  1  0
M  CHG  3   9  -1  15  -1  20  -1
M  END
>  <UniqueID>  (812) 
41

>  <SMILES>  (812) 
COc1cc(S(=O)(=O)[N-]CC(=O)N=c2[n-]cccc2[O-])ccc1NC(C)=O

>  <Energy>  (812) 
53.346310023634636

>  <Genealogy>  (812) 
COc1cc(S(=O)(=O)[N-]CC(=O)N=c2[n-]cccc2[O-])ccc1NC(C)=O (protonated)
COc1cc(S(=O)(=O)[N-]CC(=O)N=c2[n-]cccc2[O-])ccc1NC(C)=O (3D coordinates assigned)
COc1cc(S(=O)(=O)[N-]CC(=O)N=c2[n-]cccc2[O-])ccc1NC(C)=O (optimized conformer: 53.346310023634636 kcal/mol)

>  <smiles>  (812) 
COc1cc(S(=O)(=O)NCC(=O)N=c2[nH]cccc2O)ccc1NC(C)=O

>  <score_type>  (812) 
oracle

>  <origin>  (812) 
adg

>  <m_score__min__energy>  (812) 
-14.890000000000001

>  <m_primary>  (812) 
energy

$$$$
77:0
     RDKit          3D

 27 29  0  0  0  0  0  0  0  0999 V2000
   55.5470   28.5820   53.3470 O   0  0  0  0  0  0  0  0  0  0  0  0
   55.1100   29.5610   52.6840 C   0  0  0  0  0  0  0  0  0  0  0  0
   55.9020   30.7450   52.5000 N   0  0  0  0  0  0  0  0  0  0  0  0
   56.9150   30.9450   51.7020 C   0  0  0  0  0  0  0  0  0  0  0  0
   57.4400   32.2250   51.4240 C   0  0  0  0  0  0  0  0  0  0  0  0
   58.5310   32.3480   50.5610 C   0  0  0  0  0  0  0  0  0  0  0  0
   59.0970   31.2170   49.9720 C   0  0  0  0  0  0  0  0  0  0  0  0
   60.2280   31.3690   49.1030 N   0  0  0  0  0  0  0  0  0  0  0  0
   60.1890   31.4540   47.6720 C   0  0  0  0  0  0  0  0  0  0  0  0
   60.8100   30.5860   47.0010 O   0  0  0  0  0  0  0  0  0  0  0  0
   59.4940   32.5560   46.9660 C   0  0  0  0  0  0  0  0  0  0  0  0
   60.1740   33.7340   46.6170 C   0  0  0  0  0  0  0  0  0  0  0  0
   59.4940   34.7530   45.9460 C   0  0  0  0  0  0  0  0  0  0  0  0
   58.1830   34.6000   45.6240 N   0  0  0  0  0  0  0  0  0  0  0  0
   57.5000   33.4670   45.9370 C   0  0  0  0  0  0  0  0  0  0  0  0
   58.1430   32.4230   46.6070 C   0  0  0  0  0  0  0  0  0  0  0  0
   58.5770   29.9560   50.3030 C   0  0  0  0  0  0  0  0  0  0  0  0
   57.5150   29.8570   51.1460 N   0  0  0  0  0  0  0  0  0  0  0  0
   53.7750   29.5410   52.1740 N   0  0  0  0  0  0  0  0  0  0  0  0
   52.9500   30.7340   52.0170 C   0  0  0  0  0  0  0  0  0  0  0  0
   52.2410   30.7110   50.6880 C   0  0  0  0  0  0  0  0  0  0  0  0
   52.4940   29.6750   49.7720 C   0  0  0  0  0  0  0  0  0  0  0  0
   51.8250   29.6380   48.5460 C   0  0  0  0  0  0  0  0  0  0  0  0
   50.8990   30.6310   48.2220 C   0  0  0  0  0  0  0  0  0  0  0  0
   50.6370   31.6640   49.1270 C   0  0  0  0  0  0  0  0  0  0  0  0
   51.3010   31.7070   50.3570 C   0  0  0  0  0  0  0  0  0  0  0  0
   51.0230   32.7400   51.2460 O   0  0  0  0  0  0  0  0  0  0  0  0
  1  2  2  0
  2  3  1  0
  3  4  2  3
  4  5  1  0
  5  6  2  0
  6  7  1  0
  7  8  1  0
  8  9  1  0
  9 10  2  0
  9 11  1  0
 11 12  2  0
 12 13  1  0
 13 14  2  0
 14 15  1  0
 15 16  2  0
  7 17  2  0
 17 18  1  0
  2 19  1  0
 19 20  1  0
 20 21  1  0
 21 22  2  0
 22 23  1  0
 23 24  2  0
 24 25  1  0
 25 26  2  0
 26 27  1  0
 18  4  1  0
 26 21  1  0
 16 11  1  0
M  CHG  4   8  -1  18  -1  19  -1  27  -1
M  END
>  <UniqueID>  (813) 
69

>  <SMILES>  (813) 
O=C(N=c1ccc([N-]C(=O)c2ccncc2)c[n-]1)[N-]Cc1ccccc1[O-]

>  <Energy>  (813) 
57.3316435001463

>  <Genealogy>  (813) 
O=C(N=c1ccc([N-]C(=O)c2ccncc2)c[n-]1)[N-]Cc1ccccc1[O-] (protonated)
O=C(N=c1ccc([N-]C(=O)c2ccncc2)c[n-]1)[N-]Cc1ccccc1[O-] (3D coordinates assigned)
O=C(N=c1ccc([N-]C(=O)c2ccncc2)c[n-]1)[N-]Cc1ccccc1[O-] (optimized conformer: 57.3316435001463 kcal/mol)

>  <smiles>  (813) 
O=C(N=c1ccc(NC(=O)c2ccncc2)c[nH]1)NCc1ccccc1O

>  <score_type>  (813) 
oracle

>  <origin>  (813) 
adg

>  <m_score__min__energy>  (813) 
-14.77

>  <m_primary>  (813) 
energy

$$$$
80:0
     RDKit          3D

 31 35  0  0  0  0  0  0  0  0999 V2000
   55.7510   30.3890   44.5050 O   0  0  0  0  0  0  0  0  0  0  0  0
   56.8450   31.0130   44.4550 C   0  0  0  0  0  0  0  0  0  0  0  0
   58.0290   30.3710   43.7850 C   0  0  0  0  0  0  0  0  0  0  0  0
   58.6100   29.3420   44.6490 N   0  0  0  0  0  0  0  0  0  0  0  0
   59.9280   29.1930   44.9260 C   0  0  0  0  0  0  0  0  0  0  0  0
   60.1360   28.0800   45.7330 C   0  0  0  0  0  0  0  0  0  0  0  0
   58.8840   27.5390   45.9360 C   0  0  0  0  0  0  0  0  0  0  0  0
   58.4980   26.4070   46.6510 C   0  0  0  0  0  0  0  0  0  0  0  0
   57.1310   26.0780   46.6680 C   0  0  0  0  0  0  0  0  0  0  0  0
   56.1920   26.8750   45.9720 C   0  0  0  0  0  0  0  0  0  0  0  0
   54.8460   26.5340   45.9940 O   0  0  0  0  0  0  0  0  0  0  0  0
   56.6150   28.0120   45.2570 C   0  0  0  0  0  0  0  0  0  0  0  0
   57.9790   28.3190   45.2630 C   0  0  0  0  0  0  0  0  0  0  0  0
   56.9110   32.3320   45.0090 N   0  0  0  0  0  0  0  0  0  0  0  0
   57.9530   32.8540   45.8460 C   0  0  0  0  0  0  0  0  0  0  0  0
   57.9130   34.2120   46.2160 C   0  0  0  0  0  0  0  0  0  0  0  0
   58.8990   34.7500   47.0570 C   0  0  0  0  0  0  0  0  0  0  0  0
   59.9120   33.9120   47.5270 C   0  0  0  0  0  0  0  0  0  0  0  0
   59.9420   32.5820   47.1940 C   0  0  0  0  0  0  0  0  0  0  0  0
   58.9660   32.0220   46.3660 C   0  0  0  0  0  0  0  0  0  0  0  0
   61.0660   31.8680   47.8440 C   0  0  0  0  0  0  0  0  0  0  0  0
   61.9100   33.0070   48.4960 C   0  0  0  0  0  0  0  0  0  0  0  0
   61.0140   34.2850   48.4450 C   0  0  0  0  0  0  0  0  0  0  0  0
   63.1620   33.2430   47.6550 C   0  0  0  0  0  0  0  0  0  0  0  0
   63.0420   33.5420   46.4360 O   0  0  0  0  0  0  0  0  0  0  0  0
   64.4760   33.1350   48.2020 N   0  0  0  0  0  0  0  0  0  0  0  0
   64.6890   32.8000   49.5660 C   0  0  0  0  0  0  0  0  0  0  0  0
   65.8600   32.7130   50.0180 O   0  0  0  0  0  0  0  0  0  0  0  0
   63.5780   32.5640   50.4200 N   0  0  0  0  0  0  0  0  0  0  0  0
   62.2350   32.6540   49.9430 C   0  0  0  0  0  0  0  0  0  0  0  0
   61.2950   32.4320   50.7550 O   0  0  0  0  0  0  0  0  0  0  0  0
  1  2  2  0
  2  3  1  0
  3  4  1  0
  4  5  1  0
  5  6  2  0
  6  7  1  0
  7  8  2  0
  8  9  1  0
  9 10  2  0
 10 11  1  0
 10 12  1  0
 12 13  2  0
  2 14  1  0
 14 15  1  0
 15 16  2  0
 16 17  1  0
 17 18  2  0
 18 19  1  0
 19 20  2  0
 19 21  1  0
 21 22  1  0
 22 23  1  0
 22 24  1  0
 24 25  2  0
 24 26  1  0
 26 27  1  0
 27 28  2  0
 27 29  1  0
 29 30  1  0
 30 31  2  0
 13  4  1  0
 20 15  1  0
 30 22  1  0
 13  7  1  0
 23 18  1  0
M  CHG  4  11  -1  14  -1  26  -1  29  -1
M  END
>  <UniqueID>  (814) 
72

>  <SMILES>  (814) 
O=C(Cn1ccc2ccc([O-])cc21)[N-]c1ccc2c(c1)CC1(C2)C(=O)[N-]C(=O)[N-]C1=O

>  <Energy>  (814) 
99.31635416595995

>  <Genealogy>  (814) 
O=C(Cn1ccc2ccc([O-])cc21)[N-]c1ccc2c(c1)CC1(C2)C(=O)[N-]C(=O)[N-]C1=O (protonated)
O=C(Cn1ccc2ccc([O-])cc21)[N-]c1ccc2c(c1)CC1(C2)C(=O)[N-]C(=O)[N-]C1=O (3D coordinates assigned)
O=C(Cn1ccc2ccc([O-])cc21)[N-]c1ccc2c(c1)CC1(C2)C(=O)[N-]C(=O)[N-]C1=O (nonaromatic ring conformer: 99.31635416595995 kcal/mol)

>  <smiles>  (814) 
O=C(Cn1ccc2ccc(O)cc21)Nc1ccc2c(c1)CC1(C2)C(=O)NC(=O)NC1=O

>  <score_type>  (814) 
oracle

>  <origin>  (814) 
adg

>  <m_score__min__energy>  (814) 
-16.57

>  <m_primary>  (814) 
energy

$$$$
82:0
     RDKit          3D

 27 29  0  0  0  0  0  0  0  0999 V2000
   59.3060   22.2090   44.8110 C   0  0  0  0  0  0  0  0  0  0  0  0
   59.2130   23.4490   45.5050 O   0  0  0  0  0  0  0  0  0  0  0  0
   58.0420   24.2140   45.6070 C   0  0  0  0  0  0  0  0  0  0  0  0
   56.8160   23.5860   45.3690 C   0  0  0  0  0  0  0  0  0  0  0  0
   55.6210   24.3010   45.4740 C   0  0  0  0  0  0  0  0  0  0  0  0
   55.6380   25.6580   45.8080 C   0  0  0  0  0  0  0  0  0  0  0  0
   54.4320   26.3290   45.9700 O   0  0  0  0  0  0  0  0  0  0  0  0
   56.8680   26.3150   46.0100 C   0  0  0  0  0  0  0  0  0  0  0  0
   56.9380   27.7050   46.3600 N   0  0  0  0  0  0  0  0  0  0  0  0
   56.6290   28.7990   45.4870 C   0  0  0  0  0  0  0  0  0  0  0  0
   55.5250   28.8230   44.8770 O   0  0  0  0  0  0  0  0  0  0  0  0
   57.6280   29.8700   45.2620 C   0  0  0  0  0  0  0  0  0  0  0  0
   57.2640   31.0850   44.8360 C   0  0  0  0  0  0  0  0  0  0  0  0
   58.3240   32.1110   44.5480 C   0  0  0  0  0  0  0  0  0  0  0  0
   59.3810   32.1480   45.5880 N   0  0  0  0  0  0  0  0  0  0  0  0
   59.0340   33.3790   46.7810 S   0  0  0  0  0  0  0  0  0  0  0  0
   58.6700   34.6600   46.0820 O   0  0  0  0  0  0  0  0  0  0  0  0
   57.8820   32.9430   47.6450 O   0  0  0  0  0  0  0  0  0  0  0  0
   60.4410   33.6310   47.8090 C   0  0  0  0  0  0  0  0  0  0  0  0
   61.7240   33.6360   47.2440 C   0  0  0  0  0  0  0  0  0  0  0  0
   62.8470   33.8370   48.0530 C   0  0  0  0  0  0  0  0  0  0  0  0
   62.6930   34.0300   49.4290 C   0  0  0  0  0  0  0  0  0  0  0  0
   61.4160   34.0210   49.9970 C   0  0  0  0  0  0  0  0  0  0  0  0
   60.2910   33.8210   49.1900 C   0  0  0  0  0  0  0  0  0  0  0  0
   59.6790   30.8480   46.2480 C   0  0  0  0  0  0  0  0  0  0  0  0
   59.0960   29.6350   45.5050 C   0  0  0  0  0  0  0  0  0  0  0  0
   58.0610   25.5840   45.9370 C   0  0  0  0  0  0  0  0  0  0  0  0
  1  2  1  0
  2  3  1  0
  3  4  2  0
  4  5  1  0
  5  6  2  0
  6  7  1  0
  6  8  1  0
  8  9  1  0
  9 10  1  0
 10 11  2  0
 10 12  1  0
 12 13  2  0
 13 14  1  0
 14 15  1  0
 15 16  1  0
 16 17  2  0
 16 18  2  0
 16 19  1  0
 19 20  2  0
 20 21  1  0
 21 22  2  0
 22 23  1  0
 23 24  2  0
 15 25  1  0
 25 26  1  0
  8 27  2  0
 27  3  1  0
 26 12  1  0
 24 19  1  0
M  CHG  2   7  -1   9  -1
M  END
>  <UniqueID>  (815) 
74

>  <SMILES>  (815) 
COc1ccc([O-])c([N-]C(=O)C2=CCN(S(=O)(=O)c3ccccc3)CC2)c1

>  <Energy>  (815) 
59.688535678716256

>  <Genealogy>  (815) 
COc1ccc([O-])c([N-]C(=O)C2=CCN(S(=O)(=O)c3ccccc3)CC2)c1 (protonated)
COc1ccc([O-])c([N-]C(=O)C2=CCN(S(=O)(=O)c3ccccc3)CC2)c1 (3D coordinates assigned)
COc1ccc([O-])c([N-]C(=O)C2=CCN(S(=O)(=O)c3ccccc3)CC2)c1 (nonaromatic ring conformer: 59.688535678716256 kcal/mol)

>  <smiles>  (815) 
COc1ccc(O)c(NC(=O)C2=CCN(S(=O)(=O)c3ccccc3)CC2)c1

>  <score_type>  (815) 
oracle

>  <origin>  (815) 
adg

>  <m_score__min__energy>  (815) 
-14.890000000000001

>  <m_primary>  (815) 
energy

$$$$
83:0
     RDKit          3D

 30 32  0  0  0  0  0  0  0  0999 V2000
   55.4970   29.0030   44.8690 N   0  0  0  0  0  0  0  0  0  0  0  0
   56.7680   29.4280   43.7690 S   0  0  0  0  0  0  0  0  0  0  0  0
   57.8150   28.3500   43.7460 O   0  0  0  0  0  0  0  0  0  0  0  0
   56.1850   29.5700   42.3880 O   0  0  0  0  0  0  0  0  0  0  0  0
   57.5010   30.9480   44.2930 C   0  0  0  0  0  0  0  0  0  0  0  0
   57.9090   31.1230   45.6250 C   0  0  0  0  0  0  0  0  0  0  0  0
   57.7280   30.0910   46.5550 O   0  0  0  0  0  0  0  0  0  0  0  0
   58.7810   29.3970   47.1530 C   0  0  0  0  0  0  0  0  0  0  0  0
   59.9600   29.8500   47.0950 O   0  0  0  0  0  0  0  0  0  0  0  0
   58.5720   28.0950   47.6950 N   0  0  0  0  0  0  0  0  0  0  0  0
   58.2710   26.9170   46.9320 C   0  0  0  0  0  0  0  0  0  0  0  0
   56.9630   26.7400   46.4740 C   0  0  0  0  0  0  0  0  0  0  0  0
   56.6530   25.6650   45.6310 C   0  0  0  0  0  0  0  0  0  0  0  0
   57.6420   24.7530   45.2560 C   0  0  0  0  0  0  0  0  0  0  0  0
   58.9470   24.9120   45.7180 C   0  0  0  0  0  0  0  0  0  0  0  0
   59.2720   25.9960   46.5440 C   0  0  0  0  0  0  0  0  0  0  0  0
   60.5640   26.1610   46.9170 F   0  0  0  0  0  0  0  0  0  0  0  0
   58.4680   32.3050   46.0130 N   0  0  0  0  0  0  0  0  0  0  0  0
   58.6760   33.3370   45.1520 C   0  0  0  0  0  0  0  0  0  0  0  0
   59.1680   34.4490   45.6250 N   0  0  0  0  0  0  0  0  0  0  0  0
   59.4900   34.7320   47.0210 C   0  0  0  0  0  0  0  0  0  0  0  0
   60.5970   33.8190   47.4640 C   0  0  0  0  0  0  0  0  0  0  0  0
   60.4150   32.9380   48.5430 C   0  0  0  0  0  0  0  0  0  0  0  0
   61.4570   32.0950   48.9490 C   0  0  0  0  0  0  0  0  0  0  0  0
   62.6910   32.1500   48.3040 C   0  0  0  0  0  0  0  0  0  0  0  0
   62.8940   33.0440   47.2480 C   0  0  0  0  0  0  0  0  0  0  0  0
   64.1390   33.1090   46.6370 O   0  0  0  0  0  0  0  0  0  0  0  0
   61.8440   33.8700   46.8190 C   0  0  0  0  0  0  0  0  0  0  0  0
   58.3280   33.1780   43.7980 C   0  0  0  0  0  0  0  0  0  0  0  0
   57.7390   31.9810   43.3740 C   0  0  0  0  0  0  0  0  0  0  0  0
  1  2  1  0
  2  3  2  0
  2  4  2  0
  2  5  1  0
  5  6  2  0
  6  7  1  0
  7  8  1  0
  8  9  2  0
  8 10  1  0
 10 11  1  0
 11 12  2  0
 12 13  1  0
 13 14  2  0
 14 15  1  0
 15 16  2  0
 16 17  1  0
  6 18  1  0
 18 19  1  0
 19 20  2  0
 20 21  1  0
 21 22  1  0
 22 23  2  0
 23 24  1  0
 24 25  2  0
 25 26  1  0
 26 27  1  0
 26 28  2  0
 19 29  1  0
 29 30  2  0
 30  5  1  0
 16 11  1  0
 28 22  1  0
M  CHG  3   1  -1  10  -1  18  -1
M  END
>  <UniqueID>  (816) 
75

>  <SMILES>  (816) 
[NH-]S(=O)(=O)c1cc/c(=N\Cc2cccc(O)c2)[n-]c1OC(=O)[N-]c1ccccc1F

>  <Energy>  (816) 
55.5400510494561

>  <Genealogy>  (816) 
[NH-]S(=O)(=O)c1ccc(=NCc2cccc(O)c2)[n-]c1OC(=O)[N-]c1ccccc1F (protonated)
[NH-]S(=O)(=O)c1cc/c(=N\Cc2cccc(O)c2)[n-]c1OC(=O)[N-]c1ccccc1F (cis-trans isomerization)
[NH-]S(=O)(=O)c1cc/c(=N\Cc2cccc(O)c2)[n-]c1OC(=O)[N-]c1ccccc1F (3D coordinates assigned)
[NH-]S(=O)(=O)c1cc/c(=N\Cc2cccc(O)c2)[n-]c1OC(=O)[N-]c1ccccc1F (optimized conformer: 55.5400510494561 kcal/mol)

>  <smiles>  (816) 
NS(=O)(=O)c1ccc(=NCc2cccc(O)c2)[nH]c1OC(=O)Nc1ccccc1F

>  <score_type>  (816) 
oracle

>  <origin>  (816) 
adg

>  <m_score__min__energy>  (816) 
-14.220000000000001

>  <m_primary>  (816) 
energy

$$$$
8:0
     RDKit          3D

 26 29  0  0  0  0  0  0  0  0999 V2000
   53.8560   28.8060   54.4950 C   0  0  0  0  0  0  0  0  0  0  0  0
   54.2250   29.6170   53.4890 C   0  0  0  0  0  0  0  0  0  0  0  0
   53.3790   30.4210   52.7130 C   0  0  0  0  0  0  0  0  0  0  0  0
   52.0390   30.5410   52.8380 C   0  0  0  0  0  0  0  0  0  0  0  0
   51.3050   31.8020   53.0960 C   0  0  0  0  0  0  0  0  0  0  0  0
   51.0930   32.3620   54.2990 N   0  0  0  0  0  0  0  0  0  0  0  0
   50.3540   33.4560   54.0140 C   0  0  0  0  0  0  0  0  0  0  0  0
   49.9540   34.2550   54.9010 O   0  0  0  0  0  0  0  0  0  0  0  0
   50.0750   33.6250   52.7050 N   0  0  0  0  0  0  0  0  0  0  0  0
   50.6790   32.5670   52.1390 C   0  0  0  0  0  0  0  0  0  0  0  0
   50.6600   32.3080   50.7740 O   0  0  0  0  0  0  0  0  0  0  0  0
   54.1960   31.0440   51.7750 C   0  0  0  0  0  0  0  0  0  0  0  0
   55.4850   30.6150   52.0210 C   0  0  0  0  0  0  0  0  0  0  0  0
   56.6850   31.0290   51.2260 C   0  0  0  0  0  0  0  0  0  0  0  0
   55.5040   29.7460   53.0550 N   0  0  0  0  0  0  0  0  0  0  0  0
   56.6750   29.1010   53.5880 C   0  0  0  0  0  0  0  0  0  0  0  0
   57.6700   29.8560   54.2230 C   0  0  0  0  0  0  0  0  0  0  0  0
   58.8010   29.2300   54.7530 C   0  0  0  0  0  0  0  0  0  0  0  0
   58.9510   27.8350   54.6570 C   0  0  0  0  0  0  0  0  0  0  0  0
   60.1430   27.1660   55.2140 C   0  0  0  0  0  0  0  0  0  0  0  0
   60.3000   25.8250   55.2640 N   0  0  0  0  0  0  0  0  0  0  0  0
   61.5080   25.6720   55.8380 C   0  0  0  0  0  0  0  0  0  0  0  0
   62.0370   26.9110   56.1140 C   0  0  0  0  0  0  0  0  0  0  0  0
   61.1730   27.8110   55.7190 O   0  0  0  0  0  0  0  0  0  0  0  0
   57.9500   27.0810   54.0230 C   0  0  0  0  0  0  0  0  0  0  0  0
   56.8190   27.7110   53.4940 C   0  0  0  0  0  0  0  0  0  0  0  0
  1  2  2  0
  2  3  1  0
  3  4  2  0
  4  5  1  0
  5  6  1  0
  6  7  1  0
  7  8  2  0
  7  9  1  0
  9 10  1  0
 10 11  1  0
  3 12  1  0
 12 13  2  0
 13 14  1  0
 13 15  1  0
 15 16  1  0
 16 17  2  0
 17 18  1  0
 18 19  2  0
 19 20  1  0
 20 21  2  0
 21 22  1  0
 22 23  2  0
 23 24  1  0
 19 25  1  0
 25 26  2  0
 15  2  1  0
 26 16  1  0
 10  5  2  0
 24 20  1  0
M  CHG  3   6  -1   9  -1  11  -1
M  END
>  <UniqueID>  (817) 
9

>  <SMILES>  (817) 
C=c1/c(=C/c2[n-]c(=O)[n-]c2[O-])cc(C)n1-c1ccc(-c2ncco2)cc1

>  <Energy>  (817) 
141.11492671931293

>  <Genealogy>  (817) 
C=c1c(=Cc2[n-]c(=O)[n-]c2[O-])cc(C)n1-c1ccc(-c2ncco2)cc1 (protonated)
C=c1/c(=C/c2[n-]c(=O)[n-]c2[O-])cc(C)n1-c1ccc(-c2ncco2)cc1 (cis-trans isomerization)
C=c1/c(=C/c2[n-]c(=O)[n-]c2[O-])cc(C)n1-c1ccc(-c2ncco2)cc1 (3D coordinates assigned)
C=c1/c(=C/c2[n-]c(=O)[n-]c2[O-])cc(C)n1-c1ccc(-c2ncco2)cc1 (optimized conformer: 141.11492671931293 kcal/mol)

>  <smiles>  (817) 
C=c1c(=Cc2[nH]c(=O)[nH]c2O)cc(C)n1-c1ccc(-c2ncco2)cc1

>  <score_type>  (817) 
oracle

>  <origin>  (817) 
adg

>  <m_score__min__energy>  (817) 
-15.23

>  <m_primary>  (817) 
energy

$$$$
33:0
     RDKit          3D

 33 36  0  0  0  0  0  0  0  0999 V2000
   59.8700   29.7020   46.9700 C   0  0  0  0  0  0  0  0  0  0  0  0
   58.9980   30.2610   46.1160 C   0  0  0  0  0  0  0  0  0  0  0  0
   58.3080   29.6090   45.0910 C   0  0  0  0  0  0  0  0  0  0  0  0
   58.3670   28.3030   44.7630 C   0  0  0  0  0  0  0  0  0  0  0  0
   57.5470   27.2640   45.4250 C   0  0  0  0  0  0  0  0  0  0  0  0
   56.1680   27.4390   45.6350 C   0  0  0  0  0  0  0  0  0  0  0  0
   55.5270   28.5980   45.2180 O   0  0  0  0  0  0  0  0  0  0  0  0
   55.4440   26.4590   46.2360 N   0  0  0  0  0  0  0  0  0  0  0  0
   56.0270   25.2960   46.6250 C   0  0  0  0  0  0  0  0  0  0  0  0
   55.3380   24.4030   47.1850 O   0  0  0  0  0  0  0  0  0  0  0  0
   57.3510   25.0930   46.4070 N   0  0  0  0  0  0  0  0  0  0  0  0
   58.1200   26.0430   45.8120 C   0  0  0  0  0  0  0  0  0  0  0  0
   59.3450   25.8190   45.6220 O   0  0  0  0  0  0  0  0  0  0  0  0
   57.4900   30.5640   44.5000 C   0  0  0  0  0  0  0  0  0  0  0  0
   57.7200   31.7480   45.1720 C   0  0  0  0  0  0  0  0  0  0  0  0
   57.0100   33.0370   44.8880 C   0  0  0  0  0  0  0  0  0  0  0  0
   58.6290   31.5650   46.1540 N   0  0  0  0  0  0  0  0  0  0  0  0
   59.0800   32.5710   47.0760 C   0  0  0  0  0  0  0  0  0  0  0  0
   59.4700   33.8330   46.6090 C   0  0  0  0  0  0  0  0  0  0  0  0
   59.9060   34.8100   47.5070 C   0  0  0  0  0  0  0  0  0  0  0  0
   59.9570   34.5340   48.8760 C   0  0  0  0  0  0  0  0  0  0  0  0
   59.5660   33.2730   49.3640 C   0  0  0  0  0  0  0  0  0  0  0  0
   59.6310   32.9700   50.8130 C   0  0  0  0  0  0  0  0  0  0  0  0
   58.6190   33.1490   51.5450 O   0  0  0  0  0  0  0  0  0  0  0  0
   60.8420   32.4710   51.3870 N   0  0  0  0  0  0  0  0  0  0  0  0
   61.6520   31.4320   50.7650 C   0  0  0  0  0  0  0  0  0  0  0  0
   62.3580   31.9980   49.5640 C   0  0  0  0  0  0  0  0  0  0  0  0
   62.3730   31.2830   48.3550 C   0  0  0  0  0  0  0  0  0  0  0  0
   63.0400   31.7990   47.2400 C   0  0  0  0  0  0  0  0  0  0  0  0
   63.6870   33.0340   47.3180 C   0  0  0  0  0  0  0  0  0  0  0  0
   63.6770   33.7510   48.5170 C   0  0  0  0  0  0  0  0  0  0  0  0
   63.0180   33.2360   49.6380 C   0  0  0  0  0  0  0  0  0  0  0  0
   59.1260   32.2970   48.4510 C   0  0  0  0  0  0  0  0  0  0  0  0
  1  2  2  0
  2  3  1  0
  3  4  2  0
  4  5  1  0
  5  6  2  0
  6  7  1  0
  6  8  1  0
  8  9  1  0
  9 10  2  0
  9 11  1  0
 11 12  1  0
 12 13  2  0
  3 14  1  0
 14 15  2  0
 15 16  1  0
 15 17  1  0
 17 18  1  0
 18 19  2  0
 19 20  1  0
 20 21  2  0
 21 22  1  0
 22 23  1  0
 23 24  2  0
 23 25  1  0
 25 26  1  0
 26 27  1  0
 27 28  2  0
 28 29  1  0
 29 30  2  0
 30 31  1  0
 31 32  2  0
 22 33  2  0
 17  2  1  0
 33 18  1  0
 12  5  1  0
 32 27  1  0
M  CHG  4   7  -1   8  -1  11  -1  25  -1
M  END
>  <UniqueID>  (818) 
31

>  <SMILES>  (818) 
C=c1/c(=C/c2c([O-])[n-]c(=O)[n-]c2=O)cc(C)n1-c1cccc(C(=O)[N-]Cc2ccccc2)c1

>  <Energy>  (818) 
98.83751926975373

>  <Genealogy>  (818) 
C=c1c(=Cc2c([O-])[n-]c(=O)[n-]c2=O)cc(C)n1-c1cccc(C(=O)[N-]Cc2ccccc2)c1 (protonated)
C=c1/c(=C/c2c([O-])[n-]c(=O)[n-]c2=O)cc(C)n1-c1cccc(C(=O)[N-]Cc2ccccc2)c1 (cis-trans isomerization)
C=c1/c(=C/c2c([O-])[n-]c(=O)[n-]c2=O)cc(C)n1-c1cccc(C(=O)[N-]Cc2ccccc2)c1 (3D coordinates assigned)
C=c1/c(=C/c2c([O-])[n-]c(=O)[n-]c2=O)cc(C)n1-c1cccc(C(=O)[N-]Cc2ccccc2)c1 (optimized conformer: 98.83751926975373 kcal/mol)

>  <smiles>  (818) 
C=c1c(=Cc2c(O)[nH]c(=O)[nH]c2=O)cc(C)n1-c1cccc(C(=O)NCc2ccccc2)c1

>  <score_type>  (818) 
oracle

>  <origin>  (818) 
adg

>  <m_score__min__energy>  (818) 
-17.73

>  <m_primary>  (818) 
energy

$$$$
36:0
     RDKit          3D

 30 32  0  0  0  0  0  0  0  0999 V2000
   51.0180   32.3390   49.9790 N   0  0  0  0  0  0  0  0  0  0  0  0
   51.3800   32.2560   51.3560 C   0  0  0  0  0  0  0  0  0  0  0  0
   51.0300   33.1840   52.1370 O   0  0  0  0  0  0  0  0  0  0  0  0
   52.2250   31.1410   51.8440 C   0  0  0  0  0  0  0  0  0  0  0  0
   51.6390   29.9480   52.2980 C   0  0  0  0  0  0  0  0  0  0  0  0
   52.4490   28.8650   52.6410 C   0  0  0  0  0  0  0  0  0  0  0  0
   53.7990   28.9660   52.5410 N   0  0  0  0  0  0  0  0  0  0  0  0
   54.4100   30.1180   52.1310 C   0  0  0  0  0  0  0  0  0  0  0  0
   55.7090   30.2230   52.0840 N   0  0  0  0  0  0  0  0  0  0  0  0
   56.5210   31.3960   51.7410 C   0  0  0  0  0  0  0  0  0  0  0  0
   57.6580   31.1030   50.8090 C   0  0  0  0  0  0  0  0  0  0  0  0
   58.5740   32.0120   50.3100 C   0  0  0  0  0  0  0  0  0  0  0  0
   59.4520   31.2830   49.5230 C   0  0  0  0  0  0  0  0  0  0  0  0
   59.0120   29.9680   49.5570 C   0  0  0  0  0  0  0  0  0  0  0  0
   59.6480   28.7920   48.9340 C   0  0  0  0  0  0  0  0  0  0  0  0
   60.1560   27.9320   49.7100 O   0  0  0  0  0  0  0  0  0  0  0  0
   59.6130   28.5370   47.5060 N   0  0  0  0  0  0  0  0  0  0  0  0
   59.9680   27.2040   46.9850 C   0  0  0  0  0  0  0  0  0  0  0  0
   58.7570   26.5870   46.2720 C   0  0  0  0  0  0  0  0  0  0  0  0
   58.0710   27.5630   45.2770 C   0  0  0  0  0  0  0  0  0  0  0  0
   56.6030   27.7370   45.5990 C   0  0  0  0  0  0  0  0  0  0  0  0
   56.0040   28.7910   45.2550 O   0  0  0  0  0  0  0  0  0  0  0  0
   55.9090   26.7060   46.3140 N   0  0  0  0  0  0  0  0  0  0  0  0
   55.9010   25.2770   45.9940 C   0  0  0  0  0  0  0  0  0  0  0  0
   54.4970   24.8130   45.6040 C   0  0  0  0  0  0  0  0  0  0  0  0
   56.4650   24.4340   47.1380 C   0  0  0  0  0  0  0  0  0  0  0  0
   58.7850   28.9270   45.1790 C   0  0  0  0  0  0  0  0  0  0  0  0
   59.0750   29.5350   46.5610 C   0  0  0  0  0  0  0  0  0  0  0  0
   57.9300   29.8680   50.3510 N   0  0  0  0  0  0  0  0  0  0  0  0
   53.6300   31.2270   51.7870 C   0  0  0  0  0  0  0  0  0  0  0  0
  1  2  1  0
  2  3  2  0
  2  4  1  0
  4  5  1  0
  5  6  2  0
  6  7  1  0
  7  8  1  0
  8  9  2  0
  9 10  1  0
 10 11  1  0
 11 12  2  0
 12 13  1  0
 13 14  2  0
 14 15  1  0
 15 16  2  0
 15 17  1  0
 17 18  1  0
 18 19  1  0
 19 20  1  0
 20 21  1  0
 21 22  2  0
 21 23  1  0
 23 24  1  0
 24 25  1  0
 24 26  1  0
 20 27  1  0
 27 28  1  0
 14 29  1  0
  8 30  1  0
 30  4  2  0
 29 11  1  0
 28 17  1  0
M  CHG  3   1  -1   7  -1  23  -1
M  END
>  <UniqueID>  (819) 
34

>  <SMILES>  (819) 
CC(C)[N-]C(=O)C1CCN(C(=O)c2ccc(C/N=c3/cc(C([NH-])=O)cc[n-]3)[nH]2)CC1

>  <Energy>  (819) 
90.3153191942599

>  <Genealogy>  (819) 
CC(C)[N-]C(=O)C1CCN(C(=O)c2ccc(CN=c3cc(C([NH-])=O)cc[n-]3)[nH]2)CC1 (protonated)
CC(C)[N-]C(=O)C1CCN(C(=O)c2ccc(C/N=c3/cc(C([NH-])=O)cc[n-]3)[nH]2)CC1 (cis-trans isomerization)
CC(C)[N-]C(=O)C1CCN(C(=O)c2ccc(C/N=c3/cc(C([NH-])=O)cc[n-]3)[nH]2)CC1 (3D coordinates assigned)
CC(C)[N-]C(=O)C1CCN(C(=O)c2ccc(C/N=c3/cc(C([NH-])=O)cc[n-]3)[nH]2)CC1 (nonaromatic ring conformer: 90.3153191942599 kcal/mol)

>  <smiles>  (819) 
CC(C)NC(=O)C1CCN(C(=O)c2ccc(CN=c3cc(C(N)=O)cc[nH]3)[nH]2)CC1

>  <score_type>  (819) 
oracle

>  <origin>  (819) 
adg

>  <m_score__min__energy>  (819) 
-15.94

>  <m_primary>  (819) 
energy

$$$$
39:0
     RDKit          3D

 24 26  0  0  0  0  0  0  0  0999 V2000
   56.6380   29.6910   43.6880 C   0  0  0  0  0  0  0  0  0  0  0  0
   57.2930   29.5470   44.8520 C   0  0  0  0  0  0  0  0  0  0  0  0
   57.8280   28.3580   45.3760 C   0  0  0  0  0  0  0  0  0  0  0  0
   57.6790   27.0750   44.9930 C   0  0  0  0  0  0  0  0  0  0  0  0
   57.1480   25.9860   45.8270 C   0  0  0  0  0  0  0  0  0  0  0  0
   57.9180   25.0410   46.3950 N   0  0  0  0  0  0  0  0  0  0  0  0
   57.0460   24.3460   47.1570 C   0  0  0  0  0  0  0  0  0  0  0  0
   57.3930   23.3500   47.8440 O   0  0  0  0  0  0  0  0  0  0  0  0
   55.7770   24.8060   47.1340 N   0  0  0  0  0  0  0  0  0  0  0  0
   55.8620   25.8550   46.3000 C   0  0  0  0  0  0  0  0  0  0  0  0
   54.7920   26.6890   46.0000 O   0  0  0  0  0  0  0  0  0  0  0  0
   58.6080   28.7280   46.4570 C   0  0  0  0  0  0  0  0  0  0  0  0
   58.4790   30.0940   46.5970 C   0  0  0  0  0  0  0  0  0  0  0  0
   59.1600   30.9060   47.6570 C   0  0  0  0  0  0  0  0  0  0  0  0
   57.6650   30.5950   45.6380 N   0  0  0  0  0  0  0  0  0  0  0  0
   57.3650   32.0190   45.4320 C   0  0  0  0  0  0  0  0  0  0  0  0
   58.5040   32.6850   44.7170 C   0  0  0  0  0  0  0  0  0  0  0  0
   59.0360   33.8330   45.1570 C   0  0  0  0  0  0  0  0  0  0  0  0
   59.8050   33.9550   46.4190 C   0  0  0  0  0  0  0  0  0  0  0  0
   61.1710   33.6240   46.4090 C   0  0  0  0  0  0  0  0  0  0  0  0
   61.9380   33.7330   47.5730 C   0  0  0  0  0  0  0  0  0  0  0  0
   61.3530   34.1860   48.7570 C   0  0  0  0  0  0  0  0  0  0  0  0
   60.0020   34.5370   48.7780 C   0  0  0  0  0  0  0  0  0  0  0  0
   59.2290   34.4270   47.6180 C   0  0  0  0  0  0  0  0  0  0  0  0
  1  2  2  0
  2  3  1  0
  3  4  2  3
  4  5  1  0
  5  6  1  0
  6  7  1  0
  7  8  2  0
  7  9  1  0
  9 10  1  0
 10 11  1  0
  3 12  1  0
 12 13  2  0
 13 14  1  0
 13 15  1  0
 15 16  1  0
 16 17  1  0
 17 18  2  3
 18 19  1  0
 19 20  2  0
 20 21  1  0
 21 22  2  0
 22 23  1  0
 23 24  2  0
 15  2  1  0
 24 19  1  0
 10  5  2  0
M  CHG  3   6  -1   9  -1  11  -1
M  END
>  <UniqueID>  (820) 
37

>  <SMILES>  (820) 
C=c1c(=Cc2[n-]c(=O)[n-]c2[O-])cc(C)n1CC=Cc1ccccc1

>  <Energy>  (820) 
112.21817441624016

>  <Genealogy>  (820) 
C=c1c(=Cc2[n-]c(=O)[n-]c2[O-])cc(C)n1CC=Cc1ccccc1 (protonated)
C=c1c(=Cc2[n-]c(=O)[n-]c2[O-])cc(C)n1CC=Cc1ccccc1 (3D coordinates assigned)
C=c1c(=Cc2[n-]c(=O)[n-]c2[O-])cc(C)n1CC=Cc1ccccc1 (optimized conformer: 112.21817441624016 kcal/mol)

>  <smiles>  (820) 
C=c1c(=Cc2[nH]c(=O)[nH]c2O)cc(C)n1CC=Cc1ccccc1

>  <score_type>  (820) 
oracle

>  <origin>  (820) 
adg

>  <m_score__min__energy>  (820) 
-15.529999999999999

>  <m_primary>  (820) 
energy

$$$$
46:0
     RDKit          3D

 26 28  0  0  0  0  0  0  0  0999 V2000
   56.4420   24.5250   44.4530 O   0  0  0  0  0  0  0  0  0  0  0  0
   55.7080   24.7540   45.4530 C   0  0  0  0  0  0  0  0  0  0  0  0
   56.0680   25.7890   46.3820 N   0  0  0  0  0  0  0  0  0  0  0  0
   57.1120   26.7430   46.1280 C   0  0  0  0  0  0  0  0  0  0  0  0
   58.4250   26.4330   46.5090 C   0  0  0  0  0  0  0  0  0  0  0  0
   59.4590   27.3380   46.2760 C   0  0  0  0  0  0  0  0  0  0  0  0
   59.1910   28.5700   45.6780 C   0  0  0  0  0  0  0  0  0  0  0  0
   57.8800   28.9180   45.3250 C   0  0  0  0  0  0  0  0  0  0  0  0
   57.5720   30.5110   44.6120 S   0  0  0  0  0  0  0  0  0  0  0  0
   56.3180   30.4670   43.7840 O   0  0  0  0  0  0  0  0  0  0  0  0
   58.7120   30.8650   43.6980 O   0  0  0  0  0  0  0  0  0  0  0  0
   57.4160   31.7490   45.8390 N   0  0  0  0  0  0  0  0  0  0  0  0
   57.0350   33.0600   45.2550 C   0  0  0  0  0  0  0  0  0  0  0  0
   58.2040   34.0540   45.1990 C   0  0  0  0  0  0  0  0  0  0  0  0
   58.7880   34.3050   46.5990 C   0  0  0  0  0  0  0  0  0  0  0  0
   58.6830   33.0720   47.5180 C   0  0  0  0  0  0  0  0  0  0  0  0
   58.6200   31.7800   46.6980 C   0  0  0  0  0  0  0  0  0  0  0  0
   56.8340   28.0010   45.5570 C   0  0  0  0  0  0  0  0  0  0  0  0
   55.5220   28.3440   45.2470 O   0  0  0  0  0  0  0  0  0  0  0  0
   54.4970   23.9360   45.6780 C   0  0  0  0  0  0  0  0  0  0  0  0
   54.2230   23.3680   46.9310 C   0  0  0  0  0  0  0  0  0  0  0  0
   53.0730   22.6000   47.0960 C   0  0  0  0  0  0  0  0  0  0  0  0
   52.2200   22.4110   46.0090 C   0  0  0  0  0  0  0  0  0  0  0  0
   51.1740   21.7220   46.1310 O   0  0  0  0  0  0  0  0  0  0  0  0
   52.5260   22.9790   44.8140 N   0  0  0  0  0  0  0  0  0  0  0  0
   53.6280   23.7150   44.6540 N   0  0  0  0  0  0  0  0  0  0  0  0
  1  2  2  0
  2  3  1  0
  3  4  1  0
  4  5  2  0
  5  6  1  0
  6  7  2  0
  7  8  1  0
  8  9  1  0
  9 10  2  0
  9 11  2  0
  9 12  1  0
 12 13  1  0
 13 14  1  0
 14 15  1  0
 15 16  1  0
 16 17  1  0
  8 18  2  0
 18 19  1  0
  2 20  1  0
 20 21  1  0
 21 22  2  0
 22 23  1  0
 23 24  2  0
 23 25  1  0
 25 26  1  0
 18  4  1  0
 26 20  2  0
 17 12  1  0
M  CHG  2  19  -1  25  -1
M  END
>  <UniqueID>  (821) 
44

>  <SMILES>  (821) 
O=C(Nc1cccc(S(=O)(=O)N2CCCCC2)c1[O-])c1ccc(=O)[n-]n1

>  <Energy>  (821) 
56.174386782024975

>  <Genealogy>  (821) 
O=C(Nc1cccc(S(=O)(=O)N2CCCCC2)c1[O-])c1ccc(=O)[n-]n1 (protonated)
O=C(Nc1cccc(S(=O)(=O)N2CCCCC2)c1[O-])c1ccc(=O)[n-]n1 (3D coordinates assigned)
O=C(Nc1cccc(S(=O)(=O)N2CCCCC2)c1[O-])c1ccc(=O)[n-]n1 (nonaromatic ring conformer: 56.174386782024975 kcal/mol)

>  <smiles>  (821) 
O=C(Nc1cccc(S(=O)(=O)N2CCCCC2)c1O)c1ccc(=O)[nH]n1

>  <score_type>  (821) 
oracle

>  <origin>  (821) 
adg

>  <m_score__min__energy>  (821) 
-14.359999999999999

>  <m_primary>  (821) 
energy

$$$$
60:0
     RDKit          3D

 30 33  0  0  0  0  0  0  0  0999 V2000
   59.1110   28.2550   47.6430 C   0  0  0  0  0  0  0  0  0  0  0  0
   58.4800   28.9700   46.6980 C   0  0  0  0  0  0  0  0  0  0  0  0
   57.9170   28.4870   45.5050 C   0  0  0  0  0  0  0  0  0  0  0  0
   57.6750   27.2280   45.0860 C   0  0  0  0  0  0  0  0  0  0  0  0
   57.1700   26.1280   45.9220 C   0  0  0  0  0  0  0  0  0  0  0  0
   57.9210   25.0830   46.3090 N   0  0  0  0  0  0  0  0  0  0  0  0
   57.0350   24.2770   46.9320 C   0  0  0  0  0  0  0  0  0  0  0  0
   57.3690   23.1820   47.4570 O   0  0  0  0  0  0  0  0  0  0  0  0
   55.7630   24.7280   46.9400 N   0  0  0  0  0  0  0  0  0  0  0  0
   55.8610   25.8940   46.2840 C   0  0  0  0  0  0  0  0  0  0  0  0
   54.7750   26.7120   45.9950 O   0  0  0  0  0  0  0  0  0  0  0  0
   57.6040   29.6010   44.7440 C   0  0  0  0  0  0  0  0  0  0  0  0
   57.9120   30.7070   45.5090 C   0  0  0  0  0  0  0  0  0  0  0  0
   57.7090   32.1260   45.0710 C   0  0  0  0  0  0  0  0  0  0  0  0
   58.4440   30.3280   46.6920 N   0  0  0  0  0  0  0  0  0  0  0  0
   58.9060   31.2130   47.7290 C   0  0  0  0  0  0  0  0  0  0  0  0
   59.4870   32.4440   47.3970 C   0  0  0  0  0  0  0  0  0  0  0  0
   59.9430   33.3030   48.4010 C   0  0  0  0  0  0  0  0  0  0  0  0
   59.8140   32.9440   49.7510 C   0  0  0  0  0  0  0  0  0  0  0  0
   60.3410   33.8520   50.8330 C   0  0  0  0  0  0  0  0  0  0  0  0
   61.4430   33.1990   51.5570 N   0  0  0  0  0  0  0  0  0  0  0  0
   62.7620   33.6470   51.0760 C   0  0  0  0  0  0  0  0  0  0  0  0
   63.0050   33.2470   49.6410 C   0  0  0  0  0  0  0  0  0  0  0  0
   63.2110   34.2250   48.6530 C   0  0  0  0  0  0  0  0  0  0  0  0
   63.4130   33.8500   47.3220 C   0  0  0  0  0  0  0  0  0  0  0  0
   63.4060   32.4980   46.9650 C   0  0  0  0  0  0  0  0  0  0  0  0
   63.1970   31.5200   47.9410 C   0  0  0  0  0  0  0  0  0  0  0  0
   62.9950   31.8910   49.2740 C   0  0  0  0  0  0  0  0  0  0  0  0
   59.2440   31.7040   50.0830 C   0  0  0  0  0  0  0  0  0  0  0  0
   58.7890   30.8470   49.0780 C   0  0  0  0  0  0  0  0  0  0  0  0
  1  2  2  0
  2  3  1  0
  3  4  2  3
  4  5  1  0
  5  6  1  0
  6  7  1  0
  7  8  2  0
  7  9  1  0
  9 10  1  0
 10 11  1  0
  3 12  1  0
 12 13  2  0
 13 14  1  0
 13 15  1  0
 15 16  1  0
 16 17  2  0
 17 18  1  0
 18 19  2  0
 19 20  1  0
 20 21  1  0
 21 22  1  0
 22 23  1  0
 23 24  2  0
 24 25  1  0
 25 26  2  0
 26 27  1  0
 27 28  2  0
 19 29  1  0
 29 30  2  0
 15  2  1  0
 30 16  1  0
 10  5  2  0
 28 23  1  0
M  CHG  4   6  -1   9  -1  11  -1  21   1
M  END
>  <UniqueID>  (822) 
58

>  <SMILES>  (822) 
C=c1c(=Cc2[n-]c(=O)[n-]c2[O-])cc(C)n1-c1ccc(C[NH2+]Cc2ccccc2)cc1

>  <Energy>  (822) 
130.65946262028737

>  <Genealogy>  (822) 
C=c1c(=Cc2[n-]c(=O)[n-]c2[O-])cc(C)n1-c1ccc(C[NH2+]Cc2ccccc2)cc1 (protonated)
C=c1c(=Cc2[n-]c(=O)[n-]c2[O-])cc(C)n1-c1ccc(C[NH2+]Cc2ccccc2)cc1 (3D coordinates assigned)
C=c1c(=Cc2[n-]c(=O)[n-]c2[O-])cc(C)n1-c1ccc(C[NH2+]Cc2ccccc2)cc1 (optimized conformer: 130.65946262028737 kcal/mol)

>  <smiles>  (822) 
C=c1c(=Cc2[nH]c(=O)[nH]c2O)cc(C)n1-c1ccc(CNCc2ccccc2)cc1

>  <score_type>  (822) 
oracle

>  <origin>  (822) 
adg

>  <m_score__min__energy>  (822) 
-14.68

>  <m_primary>  (822) 
energy

$$$$
74:0
     RDKit          3D

 26 28  0  0  0  0  0  0  0  0999 V2000
   59.6380   35.3330   46.1720 C   0  0  0  0  0  0  0  0  0  0  0  0
   60.0060   36.4060   45.6270 O   0  0  0  0  0  0  0  0  0  0  0  0
   59.0220   30.8730   48.3780 N   0  0  0  0  0  0  0  0  0  0  0  0
   58.5680   31.4190   47.2890 C   0  0  0  0  0  0  0  0  0  0  0  0
   57.8440   30.6690   46.4220 N   0  0  0  0  0  0  0  0  0  0  0  0
   57.3600   31.2150   45.2780 C   0  0  0  0  0  0  0  0  0  0  0  0
   56.6760   30.4720   44.4600 N   0  0  0  0  0  0  0  0  0  0  0  0
   55.9700   29.2430   44.8250 C   0  0  0  0  0  0  0  0  0  0  0  0
   56.9460   28.1450   45.1730 C   0  0  0  0  0  0  0  0  0  0  0  0
   58.3140   28.3070   44.8940 C   0  0  0  0  0  0  0  0  0  0  0  0
   59.2260   27.2970   45.2120 C   0  0  0  0  0  0  0  0  0  0  0  0
   58.7790   26.1110   45.7990 C   0  0  0  0  0  0  0  0  0  0  0  0
   57.4200   25.9290   46.0620 C   0  0  0  0  0  0  0  0  0  0  0  0
   56.5020   26.9370   45.7470 C   0  0  0  0  0  0  0  0  0  0  0  0
   55.1500   26.7290   46.0040 O   0  0  0  0  0  0  0  0  0  0  0  0
   57.5990   32.5280   45.0060 N   0  0  0  0  0  0  0  0  0  0  0  0
   58.3220   33.2890   45.8720 C   0  0  0  0  0  0  0  0  0  0  0  0
   58.5630   34.5460   45.6380 N   0  0  0  0  0  0  0  0  0  0  0  0
   60.4130   30.4770   48.5970 C   0  0  0  0  0  0  0  0  0  0  0  0
   61.3420   31.6290   48.3190 C   0  0  0  0  0  0  0  0  0  0  0  0
   62.3770   31.4860   47.3800 C   0  0  0  0  0  0  0  0  0  0  0  0
   63.2560   32.5450   47.1340 C   0  0  0  0  0  0  0  0  0  0  0  0
   63.1100   33.7520   47.8240 C   0  0  0  0  0  0  0  0  0  0  0  0
   62.0850   33.9010   48.7620 C   0  0  0  0  0  0  0  0  0  0  0  0
   61.2030   32.8440   49.0100 C   0  0  0  0  0  0  0  0  0  0  0  0
   58.8070   32.7270   47.0080 N   0  0  0  0  0  0  0  0  0  0  0  0
  1  2  2  0
  1  3  1  0
  3  4  2  0
  4  5  1  0
  5  6  1  0
  6  7  2  3
  7  8  1  0
  8  9  1  0
  9 10  2  0
 10 11  1  0
 11 12  2  0
 12 13  1  0
 13 14  2  0
 14 15  1  0
  6 16  1  0
 16 17  1  0
 17 18  2  0
 18 19  1  0
 19 20  1  0
 20 21  2  0
 21 22  1  0
 22 23  2  0
 23 24  1  0
 24 25  2  0
 17 26  1  0
 26  4  1  0
 14  9  1  0
 25 20  1  0
M  CHG  4   5  -1  15  -1  16  -1  26  -1
M  END
>  <UniqueID>  (823) 
71

>  <SMILES>  (823) 
O=C/N=c1\[n-]c(=NCc2ccccc2[O-])[n-]/c(=N/Cc2ccccc2)[n-]1

>  <Energy>  (823) 
44.3631604102173

>  <Genealogy>  (823) 
O=CN=c1[n-]c(=NCc2ccccc2)[n-]c(=NCc2ccccc2[O-])[n-]1 (protonated)
O=C/N=c1\[n-]c(=NCc2ccccc2[O-])[n-]/c(=N/Cc2ccccc2)[n-]1 (cis-trans isomerization)
O=C/N=c1\[n-]c(=NCc2ccccc2[O-])[n-]/c(=N/Cc2ccccc2)[n-]1 (3D coordinates assigned)
O=C/N=c1\[n-]c(=NCc2ccccc2[O-])[n-]/c(=N/Cc2ccccc2)[n-]1 (optimized conformer: 44.3631604102173 kcal/mol)

>  <smiles>  (823) 
O=CN=c1[nH]c(=NCc2ccccc2)[nH]c(=NCc2ccccc2O)[nH]1

>  <score_type>  (823) 
oracle

>  <origin>  (823) 
adg

>  <m_score__min__energy>  (823) 
-15.31

>  <m_primary>  (823) 
energy

$$$$
76:0
     RDKit          3D

 29 31  0  0  0  0  0  0  0  0999 V2000
   61.5330   34.0790   47.7760 O   0  0  0  0  0  0  0  0  0  0  0  0
   60.7840   33.0640   47.7900 C   0  0  0  0  0  0  0  0  0  0  0  0
   61.0340   31.9480   46.8230 C   0  0  0  0  0  0  0  0  0  0  0  0
   61.0990   30.5930   47.5390 C   0  0  0  0  0  0  0  0  0  0  0  0
   60.2560   29.5550   46.8440 C   0  0  0  0  0  0  0  0  0  0  0  0
   59.5380   28.6030   47.5860 C   0  0  0  0  0  0  0  0  0  0  0  0
   58.7430   27.6560   46.9340 C   0  0  0  0  0  0  0  0  0  0  0  0
   58.6370   27.6600   45.5330 C   0  0  0  0  0  0  0  0  0  0  0  0
   57.7460   26.6660   44.8330 C   0  0  0  0  0  0  0  0  0  0  0  0
   57.2480   25.6180   45.8050 C   0  0  0  0  0  0  0  0  0  0  0  0
   55.9470   25.6730   46.3360 C   0  0  0  0  0  0  0  0  0  0  0  0
   55.0810   26.7090   46.0010 O   0  0  0  0  0  0  0  0  0  0  0  0
   55.5170   24.6990   47.1810 N   0  0  0  0  0  0  0  0  0  0  0  0
   56.3190   23.6590   47.5210 C   0  0  0  0  0  0  0  0  0  0  0  0
   55.8950   22.7670   48.3030 O   0  0  0  0  0  0  0  0  0  0  0  0
   57.5760   23.5790   47.0200 N   0  0  0  0  0  0  0  0  0  0  0  0
   58.0580   24.5280   46.1750 C   0  0  0  0  0  0  0  0  0  0  0  0
   59.2310   24.4190   45.7300 O   0  0  0  0  0  0  0  0  0  0  0  0
   59.3480   28.6180   44.7940 C   0  0  0  0  0  0  0  0  0  0  0  0
   60.1510   29.5570   45.4450 C   0  0  0  0  0  0  0  0  0  0  0  0
   59.7210   32.9550   48.7430 N   0  0  0  0  0  0  0  0  0  0  0  0
   58.3190   32.7830   48.3770 C   0  0  0  0  0  0  0  0  0  0  0  0
   58.1450   32.9250   46.8890 C   0  0  0  0  0  0  0  0  0  0  0  0
   58.2900   34.1820   46.2690 C   0  0  0  0  0  0  0  0  0  0  0  0
   58.1010   34.3160   44.8900 C   0  0  0  0  0  0  0  0  0  0  0  0
   57.7760   33.1970   44.1170 C   0  0  0  0  0  0  0  0  0  0  0  0
   57.6310   31.9410   44.7240 C   0  0  0  0  0  0  0  0  0  0  0  0
   57.3230   30.8570   43.9690 F   0  0  0  0  0  0  0  0  0  0  0  0
   57.8040   31.8070   46.1070 C   0  0  0  0  0  0  0  0  0  0  0  0
  1  2  2  0
  2  3  1  0
  3  4  1  0
  4  5  1  0
  5  6  2  0
  6  7  1  0
  7  8  2  0
  8  9  1  0
  9 10  1  0
 10 11  2  0
 11 12  1  0
 11 13  1  0
 13 14  1  0
 14 15  2  0
 14 16  1  0
 16 17  1  0
 17 18  2  0
  8 19  1  0
 19 20  2  0
  2 21  1  0
 21 22  1  0
 22 23  1  0
 23 24  2  0
 24 25  1  0
 25 26  2  0
 26 27  1  0
 27 28  1  0
 27 29  2  0
 20  5  1  0
 29 23  1  0
 17 10  1  0
M  CHG  4  12  -1  13  -1  16  -1  21  -1
M  END
>  <UniqueID>  (824) 
73

>  <SMILES>  (824) 
O=C(CCc1ccc(Cc2c([O-])[n-]c(=O)[n-]c2=O)cc1)[N-]Cc1cccc(F)c1

>  <Energy>  (824) 
39.03542986677395

>  <Genealogy>  (824) 
O=C(CCc1ccc(Cc2c([O-])[n-]c(=O)[n-]c2=O)cc1)[N-]Cc1cccc(F)c1 (protonated)
O=C(CCc1ccc(Cc2c([O-])[n-]c(=O)[n-]c2=O)cc1)[N-]Cc1cccc(F)c1 (3D coordinates assigned)
O=C(CCc1ccc(Cc2c([O-])[n-]c(=O)[n-]c2=O)cc1)[N-]Cc1cccc(F)c1 (optimized conformer: 39.03542986677395 kcal/mol)

>  <smiles>  (824) 
O=C(CCc1ccc(Cc2c(O)[nH]c(=O)[nH]c2=O)cc1)NCc1cccc(F)c1

>  <score_type>  (824) 
oracle

>  <origin>  (824) 
adg

>  <m_score__min__energy>  (824) 
-17.539999999999999

>  <m_primary>  (824) 
energy

$$$$
22:0
     RDKit          3D

 28 30  0  0  0  0  0  0  0  0999 V2000
   55.0670   29.3020   44.6200 O   0  0  0  0  0  0  0  0  0  0  0  0
   56.3170   29.4660   44.5720 C   0  0  0  0  0  0  0  0  0  0  0  0
   57.2300   28.3140   44.2750 C   0  0  0  0  0  0  0  0  0  0  0  0
   57.4430   27.4320   45.4690 C   0  0  0  0  0  0  0  0  0  0  0  0
   58.6350   27.2230   46.0550 N   0  0  0  0  0  0  0  0  0  0  0  0
   58.3340   26.3990   47.0820 C   0  0  0  0  0  0  0  0  0  0  0  0
   59.2050   25.9710   47.8850 O   0  0  0  0  0  0  0  0  0  0  0  0
   57.0280   26.0750   47.1870 N   0  0  0  0  0  0  0  0  0  0  0  0
   56.4770   26.7360   46.1560 C   0  0  0  0  0  0  0  0  0  0  0  0
   55.1230   26.7030   45.8420 O   0  0  0  0  0  0  0  0  0  0  0  0
   56.8910   30.7320   44.9080 N   0  0  0  0  0  0  0  0  0  0  0  0
   58.3470   30.8950   45.8300 S   0  0  0  0  0  0  0  0  0  0  0  0
   59.4520   30.1750   45.1090 O   0  0  0  0  0  0  0  0  0  0  0  0
   58.1400   30.2620   47.1760 O   0  0  0  0  0  0  0  0  0  0  0  0
   58.7760   32.5920   46.0660 C   0  0  0  0  0  0  0  0  0  0  0  0
   58.7700   33.4750   44.9740 C   0  0  0  0  0  0  0  0  0  0  0  0
   59.1250   34.8130   45.1470 C   0  0  0  0  0  0  0  0  0  0  0  0
   59.4780   35.2850   46.4130 C   0  0  0  0  0  0  0  0  0  0  0  0
   59.4640   34.4230   47.5100 C   0  0  0  0  0  0  0  0  0  0  0  0
   59.1040   33.0700   47.3510 C   0  0  0  0  0  0  0  0  0  0  0  0
   59.0440   32.1790   48.4370 O   0  0  0  0  0  0  0  0  0  0  0  0
   60.1570   31.4950   49.0130 C   0  0  0  0  0  0  0  0  0  0  0  0
   61.4520   32.1480   48.6120 C   0  0  0  0  0  0  0  0  0  0  0  0
   62.1650   31.6930   47.4900 C   0  0  0  0  0  0  0  0  0  0  0  0
   63.3530   32.3240   47.1080 C   0  0  0  0  0  0  0  0  0  0  0  0
   63.8320   33.4170   47.8370 C   0  0  0  0  0  0  0  0  0  0  0  0
   63.1230   33.8810   48.9490 C   0  0  0  0  0  0  0  0  0  0  0  0
   61.9350   33.2510   49.3350 C   0  0  0  0  0  0  0  0  0  0  0  0
  1  2  2  0
  2  3  1  0
  3  4  1  0
  4  5  1  0
  5  6  1  0
  6  7  2  0
  6  8  1  0
  8  9  1  0
  9 10  1  0
  2 11  1  0
 11 12  1  0
 12 13  2  0
 12 14  2  0
 12 15  1  0
 15 16  2  0
 16 17  1  0
 17 18  2  0
 18 19  1  0
 19 20  2  0
 20 21  1  0
 21 22  1  0
 22 23  1  0
 23 24  2  0
 24 25  1  0
 25 26  2  0
 26 27  1  0
 27 28  2  0
  9  4  2  0
 20 15  1  0
 28 23  1  0
M  CHG  3   5  -1   8  -1  11  -1
M  END
>  <UniqueID>  (825) 
22

>  <SMILES>  (825) 
O=C(Cc1[n-]c(=O)[n-]c1O)[N-]S(=O)(=O)c1ccccc1OCc1ccccc1

>  <Energy>  (825) 
74.68066664155761

>  <Genealogy>  (825) 
O=C(Cc1[n-]c(=O)[n-]c1O)[N-]S(=O)(=O)c1ccccc1OCc1ccccc1 (protonated)
O=C(Cc1[n-]c(=O)[n-]c1O)[N-]S(=O)(=O)c1ccccc1OCc1ccccc1 (3D coordinates assigned)
O=C(Cc1[n-]c(=O)[n-]c1O)[N-]S(=O)(=O)c1ccccc1OCc1ccccc1 (optimized conformer: 74.68066664155761 kcal/mol)

>  <smiles>  (825) 
O=C(Cc1[nH]c(=O)[nH]c1O)NS(=O)(=O)c1ccccc1OCc1ccccc1

>  <score_type>  (825) 
oracle

>  <origin>  (825) 
adg

>  <m_score__min__energy>  (825) 
-14.390000000000001

>  <m_primary>  (825) 
energy

$$$$
29:0
     RDKit          3D

 37 40  0  0  0  0  0  0  0  0999 V2000
   55.7920   28.8050   45.1460 N   0  0  0  0  0  0  0  0  0  0  0  0
   57.0110   27.6860   45.6450 S   0  0  0  0  0  0  0  0  0  0  0  0
   57.5420   26.9600   44.4410 O   0  0  0  0  0  0  0  0  0  0  0  0
   56.4150   26.6830   46.5920 O   0  0  0  0  0  0  0  0  0  0  0  0
   58.3100   28.5570   46.4550 C   0  0  0  0  0  0  0  0  0  0  0  0
   59.5410   27.9380   46.7000 C   0  0  0  0  0  0  0  0  0  0  0  0
   60.5670   28.6420   47.3330 C   0  0  0  0  0  0  0  0  0  0  0  0
   60.3780   29.9750   47.7240 C   0  0  0  0  0  0  0  0  0  0  0  0
   61.4710   30.6920   48.3170 N   0  0  0  0  0  0  0  0  0  0  0  0
   61.6430   30.6980   49.7720 C   0  0  0  0  0  0  0  0  0  0  0  0
   63.1120   30.9610   50.1380 C   0  0  0  0  0  0  0  0  0  0  0  0
   63.6720   32.1810   49.4940 N   0  0  0  0  0  0  0  0  0  0  0  0
   63.7110   33.3330   50.4180 C   0  0  0  0  0  0  0  0  0  0  0  0
   62.3230   33.7960   50.7410 C   0  0  0  0  0  0  0  0  0  0  0  0
   61.7270   34.5740   49.9470 O   0  0  0  0  0  0  0  0  0  0  0  0
   61.7330   33.4380   51.9970 N   0  0  0  0  0  0  0  0  0  0  0  0
   60.4130   32.9100   52.2050 C   0  0  0  0  0  0  0  0  0  0  0  0
   59.2800   33.6610   51.8370 C   0  0  0  0  0  0  0  0  0  0  0  0
   57.9970   33.1420   52.0110 C   0  0  0  0  0  0  0  0  0  0  0  0
   57.8260   31.8650   52.5400 C   0  0  0  0  0  0  0  0  0  0  0  0
   58.9370   31.0960   52.8870 C   0  0  0  0  0  0  0  0  0  0  0  0
   60.2430   31.5970   52.7200 C   0  0  0  0  0  0  0  0  0  0  0  0
   61.3940   30.7330   53.0990 C   0  0  0  0  0  0  0  0  0  0  0  0
   62.2570   31.1210   53.9290 O   0  0  0  0  0  0  0  0  0  0  0  0
   61.5340   29.4690   52.5370 O   0  0  0  0  0  0  0  0  0  0  0  0
   63.0360   32.5600   48.2080 C   0  0  0  0  0  0  0  0  0  0  0  0
   62.4620   31.3530   47.4640 C   0  0  0  0  0  0  0  0  0  0  0  0
   59.1420   30.6110   47.4730 C   0  0  0  0  0  0  0  0  0  0  0  0
   58.8940   32.0040   47.9080 C   0  0  0  0  0  0  0  0  0  0  0  0
   58.5670   32.2170   49.1080 O   0  0  0  0  0  0  0  0  0  0  0  0
   59.0080   33.1520   46.9720 C   0  0  0  0  0  0  0  0  0  0  0  0
   59.8780   34.2190   47.2680 C   0  0  0  0  0  0  0  0  0  0  0  0
   60.0010   35.2980   46.3860 C   0  0  0  0  0  0  0  0  0  0  0  0
   59.2640   35.3210   45.1990 C   0  0  0  0  0  0  0  0  0  0  0  0
   58.4070   34.2620   44.8890 C   0  0  0  0  0  0  0  0  0  0  0  0
   58.2820   33.1810   45.7660 C   0  0  0  0  0  0  0  0  0  0  0  0
   58.1150   29.8890   46.8420 C   0  0  0  0  0  0  0  0  0  0  0  0
  1  2  1  0
  2  3  2  0
  2  4  2  0
  2  5  1  0
  5  6  2  0
  6  7  1  0
  7  8  2  0
  8  9  1  0
  9 10  1  0
 10 11  1  0
 11 12  1  0
 12 13  1  0
 13 14  1  0
 14 15  2  0
 14 16  1  0
 16 17  1  0
 17 18  2  0
 18 19  1  0
 19 20  2  0
 20 21  1  0
 21 22  2  0
 22 23  1  0
 23 24  2  0
 23 25  1  0
 12 26  1  0
 26 27  1  0
  8 28  1  0
 28 29  1  0
 29 30  2  0
 29 31  1  0
 31 32  2  0
 32 33  1  0
 33 34  2  0
 34 35  1  0
 35 36  2  0
 28 37  2  0
 37  5  1  0
 27  9  1  0
 36 31  1  0
 22 17  1  0
M  CHG  3   1  -1  16  -1  25  -1
M  END
>  <UniqueID>  (826) 
29

>  <SMILES>  (826) 
[NH-]S(=O)(=O)c1ccc(N2CCN(CC(=O)[N-]c3ccccc3C(=O)[O-])CC2)c(C(=O)c2ccccc2)c1

>  <Energy>  (826) 
88.33336303735108

>  <Genealogy>  (826) 
[NH-]S(=O)(=O)c1ccc(N2CCN(CC(=O)[N-]c3ccccc3C(=O)[O-])CC2)c(C(=O)c2ccccc2)c1 (protonated)
[NH-]S(=O)(=O)c1ccc(N2CCN(CC(=O)[N-]c3ccccc3C(=O)[O-])CC2)c(C(=O)c2ccccc2)c1 (3D coordinates assigned)
[NH-]S(=O)(=O)c1ccc(N2CCN(CC(=O)[N-]c3ccccc3C(=O)[O-])CC2)c(C(=O)c2ccccc2)c1 (nonaromatic ring conformer: 88.33336303735108 kcal/mol)

>  <smiles>  (826) 
NS(=O)(=O)c1ccc(N2CCN(CC(=O)Nc3ccccc3C(=O)O)CC2)c(C(=O)c2ccccc2)c1

>  <score_type>  (826) 
oracle

>  <origin>  (826) 
adg

>  <m_score__min__energy>  (826) 
-15.17

>  <m_primary>  (826) 
energy

$$$$
30:0
     RDKit          3D

 25 27  0  0  0  0  0  0  0  0999 V2000
   58.3050   23.4710   45.3000 C   0  0  0  0  0  0  0  0  0  0  0  0
   57.4870   24.6540   45.5680 N   0  0  0  0  0  0  0  0  0  0  0  0
   56.1510   24.6950   45.4140 C   0  0  0  0  0  0  0  0  0  0  0  0
   55.7110   25.9050   45.8870 C   0  0  0  0  0  0  0  0  0  0  0  0
   54.3870   26.3220   45.9180 O   0  0  0  0  0  0  0  0  0  0  0  0
   56.7390   26.6450   46.3370 N   0  0  0  0  0  0  0  0  0  0  0  0
   57.8150   25.8610   46.1120 C   0  0  0  0  0  0  0  0  0  0  0  0
   59.0130   26.2610   46.4400 N   0  0  0  0  0  0  0  0  0  0  0  0
   59.4000   27.4240   47.1810 C   0  0  0  0  0  0  0  0  0  0  0  0
   59.3210   27.4350   48.4390 O   0  0  0  0  0  0  0  0  0  0  0  0
   60.0670   28.5640   46.4700 C   0  0  0  0  0  0  0  0  0  0  0  0
   59.1370   29.6930   46.0370 C   0  0  0  0  0  0  0  0  0  0  0  0
   57.8680   29.4240   45.4810 C   0  0  0  0  0  0  0  0  0  0  0  0
   57.0330   30.4720   45.0910 C   0  0  0  0  0  0  0  0  0  0  0  0
   55.9030   30.2280   44.5940 O   0  0  0  0  0  0  0  0  0  0  0  0
   57.4350   31.7570   45.2460 N   0  0  0  0  0  0  0  0  0  0  0  0
   58.6440   32.0730   45.7770 C   0  0  0  0  0  0  0  0  0  0  0  0
   58.9970   33.4170   45.9180 C   0  0  0  0  0  0  0  0  0  0  0  0
   60.2320   33.7670   46.4630 C   0  0  0  0  0  0  0  0  0  0  0  0
   61.1390   32.7770   46.8730 C   0  0  0  0  0  0  0  0  0  0  0  0
   62.4460   33.1720   47.4530 C   0  0  0  0  0  0  0  0  0  0  0  0
   63.6490   32.4670   47.1340 N   0  0  0  0  0  0  0  0  0  0  0  0
   62.5090   34.1600   48.2350 O   0  0  0  0  0  0  0  0  0  0  0  0
   60.7790   31.4230   46.7450 C   0  0  0  0  0  0  0  0  0  0  0  0
   59.5330   31.0510   46.1900 C   0  0  0  0  0  0  0  0  0  0  0  0
  1  2  1  0
  2  3  1  0
  3  4  2  0
  4  5  1  0
  4  6  1  0
  6  7  1  0
  7  8  2  3
  8  9  1  0
  9 10  2  0
  9 11  1  0
 11 12  1  0
 12 13  2  0
 13 14  1  0
 14 15  2  0
 14 16  1  0
 16 17  1  0
 17 18  2  0
 18 19  1  0
 19 20  2  0
 20 21  1  0
 21 22  1  0
 21 23  2  0
 20 24  1  0
 24 25  2  0
  7  2  1  0
 25 12  1  0
 25 17  1  0
M  CHG  3   5  -1   6  -1  16  -1
M  END
>  <UniqueID>  (827) 
30

>  <SMILES>  (827) 
Cn1cc([O-])[n-]c1=NC(=O)Cc1cc(=O)[n-]c2ccc(C(N)=O)cc12

>  <Energy>  (827) 
90.73739666456193

>  <Genealogy>  (827) 
Cn1cc([O-])[n-]c1=NC(=O)Cc1cc(=O)[n-]c2ccc(C(N)=O)cc12 (protonated)
Cn1cc([O-])[n-]c1=NC(=O)Cc1cc(=O)[n-]c2ccc(C(N)=O)cc12 (3D coordinates assigned)
Cn1cc([O-])[n-]c1=NC(=O)Cc1cc(=O)[n-]c2ccc(C(N)=O)cc12 (optimized conformer: 90.73739666456193 kcal/mol)

>  <smiles>  (827) 
Cn1cc(O)[nH]c1=NC(=O)Cc1cc(=O)[nH]c2ccc(C(N)=O)cc12

>  <score_type>  (827) 
oracle

>  <origin>  (827) 
adg

>  <m_score__min__energy>  (827) 
-14.74

>  <m_primary>  (827) 
energy

$$$$
57:0
     RDKit          3D

 31 34  0  0  0  0  0  0  0  0999 V2000
   57.7320   28.7220   44.9340 C   0  0  0  0  0  0  0  0  0  0  0  0
   58.2310   27.7830   45.7530 C   0  0  0  0  0  0  0  0  0  0  0  0
   58.0760   26.4000   45.6230 C   0  0  0  0  0  0  0  0  0  0  0  0
   57.4090   25.7380   44.6570 C   0  0  0  0  0  0  0  0  0  0  0  0
   56.2260   24.8870   44.9190 C   0  0  0  0  0  0  0  0  0  0  0  0
   55.0870   25.3890   45.5730 C   0  0  0  0  0  0  0  0  0  0  0  0
   55.0390   26.7130   45.9950 O   0  0  0  0  0  0  0  0  0  0  0  0
   54.0110   24.5810   45.7800 N   0  0  0  0  0  0  0  0  0  0  0  0
   54.0090   23.2950   45.3390 C   0  0  0  0  0  0  0  0  0  0  0  0
   53.0040   22.5610   45.5370 O   0  0  0  0  0  0  0  0  0  0  0  0
   55.0850   22.7990   44.6790 N   0  0  0  0  0  0  0  0  0  0  0  0
   56.1850   23.5630   44.4540 C   0  0  0  0  0  0  0  0  0  0  0  0
   57.1660   23.0690   43.8350 O   0  0  0  0  0  0  0  0  0  0  0  0
   58.7910   25.8250   46.6650 C   0  0  0  0  0  0  0  0  0  0  0  0
   59.3330   26.8660   47.3920 C   0  0  0  0  0  0  0  0  0  0  0  0
   60.2010   26.6950   48.6020 C   0  0  0  0  0  0  0  0  0  0  0  0
   59.0010   28.0530   46.8380 N   0  0  0  0  0  0  0  0  0  0  0  0
   59.3890   29.3480   47.3310 C   0  0  0  0  0  0  0  0  0  0  0  0
   60.2720   30.1480   46.5950 C   0  0  0  0  0  0  0  0  0  0  0  0
   60.6600   31.4000   47.0810 C   0  0  0  0  0  0  0  0  0  0  0  0
   60.1770   31.8670   48.3090 C   0  0  0  0  0  0  0  0  0  0  0  0
   60.6050   33.1290   48.7530 O   0  0  0  0  0  0  0  0  0  0  0  0
   59.9430   34.3660   48.4840 C   0  0  0  0  0  0  0  0  0  0  0  0
   59.1430   34.2790   47.2110 C   0  0  0  0  0  0  0  0  0  0  0  0
   57.8970   33.6310   47.1920 C   0  0  0  0  0  0  0  0  0  0  0  0
   57.1650   33.5470   46.0030 C   0  0  0  0  0  0  0  0  0  0  0  0
   57.6740   34.1000   44.8260 C   0  0  0  0  0  0  0  0  0  0  0  0
   58.9180   34.7370   44.8340 C   0  0  0  0  0  0  0  0  0  0  0  0
   59.6540   34.8230   46.0200 C   0  0  0  0  0  0  0  0  0  0  0  0
   59.2850   31.0640   49.0460 C   0  0  0  0  0  0  0  0  0  0  0  0
   58.8990   29.8110   48.5600 C   0  0  0  0  0  0  0  0  0  0  0  0
  1  2  2  0
  2  3  1  0
  3  4  2  0
  4  5  1  0
  5  6  2  0
  6  7  1  0
  6  8  1  0
  8  9  1  0
  9 10  2  0
  9 11  1  0
 11 12  1  0
 12 13  2  0
  3 14  1  0
 14 15  2  0
 15 16  1  0
 15 17  1  0
 17 18  1  0
 18 19  2  0
 19 20  1  0
 20 21  2  0
 21 22  1  0
 22 23  1  0
 23 24  1  0
 24 25  2  0
 25 26  1  0
 26 27  2  0
 27 28  1  0
 28 29  2  0
 21 30  1  0
 30 31  2  0
 17  2  1  0
 31 18  1  0
 12  5  1  0
 29 24  1  0
M  CHG  2   7  -1  11  -1
M  END
>  <UniqueID>  (828) 
57

>  <SMILES>  (828) 
C=c1/c(=C/c2c([O-])[nH]c(=O)[n-]c2=O)cc(C)n1-c1ccc(OCc2ccccc2)cc1

>  <Energy>  (828) 
98.95466709367817

>  <Genealogy>  (828) 
C=c1c(=Cc2c([O-])[nH]c(=O)[n-]c2=O)cc(C)n1-c1ccc(OCc2ccccc2)cc1 (protonated)
C=c1/c(=C/c2c([O-])[nH]c(=O)[n-]c2=O)cc(C)n1-c1ccc(OCc2ccccc2)cc1 (cis-trans isomerization)
C=c1/c(=C/c2c([O-])[nH]c(=O)[n-]c2=O)cc(C)n1-c1ccc(OCc2ccccc2)cc1 (3D coordinates assigned)
C=c1/c(=C/c2c([O-])[nH]c(=O)[n-]c2=O)cc(C)n1-c1ccc(OCc2ccccc2)cc1 (optimized conformer: 98.95466709367817 kcal/mol)

>  <smiles>  (828) 
C=c1c(=Cc2c(O)[nH]c(=O)[nH]c2=O)cc(C)n1-c1ccc(OCc2ccccc2)cc1

>  <score_type>  (828) 
oracle

>  <origin>  (828) 
adg

>  <m_score__min__energy>  (828) 
-14.49

>  <m_primary>  (828) 
energy

$$$$
86:0
     RDKit          3D

 31 34  0  0  0  0  0  0  0  0999 V2000
   57.8920   28.1150   44.1620 O   0  0  0  0  0  0  0  0  0  0  0  0
   57.4530   28.5250   45.2700 C   0  0  0  0  0  0  0  0  0  0  0  0
   57.5890   27.6670   46.4850 C   0  0  0  0  0  0  0  0  0  0  0  0
   57.1620   26.3030   46.1740 N   0  0  0  0  0  0  0  0  0  0  0  0
   57.9390   25.1990   46.1480 C   0  0  0  0  0  0  0  0  0  0  0  0
   59.3140   25.2040   46.3500 O   0  0  0  0  0  0  0  0  0  0  0  0
   57.1690   24.0760   45.9160 C   0  0  0  0  0  0  0  0  0  0  0  0
   55.8700   24.5060   45.8150 C   0  0  0  0  0  0  0  0  0  0  0  0
   55.8940   25.8770   45.9880 C   0  0  0  0  0  0  0  0  0  0  0  0
   54.7790   26.7070   45.9940 O   0  0  0  0  0  0  0  0  0  0  0  0
   54.6990   23.5990   45.6230 C   0  0  0  0  0  0  0  0  0  0  0  0
   55.1330   22.1600   45.4240 C   0  0  0  0  0  0  0  0  0  0  0  0
   56.4130   21.7350   45.5250 C   0  0  0  0  0  0  0  0  0  0  0  0
   57.5840   22.6420   45.8480 C   0  0  0  0  0  0  0  0  0  0  0  0
   56.8140   29.8030   45.3770 N   0  0  0  0  0  0  0  0  0  0  0  0
   57.3830   31.0600   44.9810 C   0  0  0  0  0  0  0  0  0  0  0  0
   58.1540   31.8300   45.8700 C   0  0  0  0  0  0  0  0  0  0  0  0
   58.6990   33.0550   45.4620 C   0  0  0  0  0  0  0  0  0  0  0  0
   59.6300   34.0350   46.5980 S   0  0  0  0  0  0  0  0  0  0  0  0
   59.9510   35.3590   45.9620 O   0  0  0  0  0  0  0  0  0  0  0  0
   58.7990   34.2970   47.8250 O   0  0  0  0  0  0  0  0  0  0  0  0
   61.1150   33.2390   47.0660 N   0  0  0  0  0  0  0  0  0  0  0  0
   61.2800   33.2060   48.5360 C   0  0  0  0  0  0  0  0  0  0  0  0
   62.3270   34.2250   49.0240 C   0  0  0  0  0  0  0  0  0  0  0  0
   63.6120   34.0270   48.4490 O   0  0  0  0  0  0  0  0  0  0  0  0
   63.5740   33.5360   47.1140 C   0  0  0  0  0  0  0  0  0  0  0  0
   62.2650   33.8440   46.3680 C   0  0  0  0  0  0  0  0  0  0  0  0
   58.5000   33.4940   44.1460 C   0  0  0  0  0  0  0  0  0  0  0  0
   57.7660   32.7160   43.2480 C   0  0  0  0  0  0  0  0  0  0  0  0
   57.2120   31.5010   43.6610 C   0  0  0  0  0  0  0  0  0  0  0  0
   56.4840   30.7370   42.7550 O   0  0  0  0  0  0  0  0  0  0  0  0
  1  2  2  0
  2  3  1  0
  3  4  1  0
  4  5  1  0
  5  6  1  0
  5  7  2  0
  7  8  1  0
  8  9  2  0
  9 10  1  0
  8 11  1  0
 11 12  1  0
 12 13  2  0
 13 14  1  0
  2 15  1  0
 15 16  1  0
 16 17  2  0
 17 18  1  0
 18 19  1  0
 19 20  2  0
 19 21  2  0
 19 22  1  0
 22 23  1  0
 23 24  1  0
 24 25  1  0
 25 26  1  0
 26 27  1  0
 18 28  2  0
 28 29  1  0
 29 30  2  0
 30 31  1  0
  9  4  1  0
 30 16  1  0
 14  7  1  0
 27 22  1  0
M  CHG  4   6  -1  10  -1  15  -1  31  -1
M  END
>  <UniqueID>  (829) 
85

>  <SMILES>  (829) 
O=C(Cn1c([O-])c2c(c1[O-])CC=CC2)[N-]c1cc(S(=O)(=O)N2CCOCC2)ccc1[O-]

>  <Energy>  (829) 
98.19649746050996

>  <Genealogy>  (829) 
O=C(Cn1c([O-])c2c(c1[O-])CC=CC2)[N-]c1cc(S(=O)(=O)N2CCOCC2)ccc1[O-] (protonated)
O=C(Cn1c([O-])c2c(c1[O-])CC=CC2)[N-]c1cc(S(=O)(=O)N2CCOCC2)ccc1[O-] (3D coordinates assigned)
O=C(Cn1c([O-])c2c(c1[O-])CC=CC2)[N-]c1cc(S(=O)(=O)N2CCOCC2)ccc1[O-] (nonaromatic ring conformer: 98.19649746050996 kcal/mol)

>  <smiles>  (829) 
O=C(Cn1c(O)c2c(c1O)CC=CC2)Nc1cc(S(=O)(=O)N2CCOCC2)ccc1O

>  <score_type>  (829) 
oracle

>  <origin>  (829) 
adg

>  <m_score__min__energy>  (829) 
-16.59

>  <m_primary>  (829) 
energy

$$$$
88:0
     RDKit          3D

 31 34  0  0  0  0  0  0  0  0999 V2000
   59.8260   30.1840   47.0260 C   0  0  0  0  0  0  0  0  0  0  0  0
   59.0740   30.9730   46.2400 C   0  0  0  0  0  0  0  0  0  0  0  0
   58.4290   30.5970   45.0480 C   0  0  0  0  0  0  0  0  0  0  0  0
   58.2570   29.3900   44.4700 C   0  0  0  0  0  0  0  0  0  0  0  0
   57.5670   28.2340   45.0730 C   0  0  0  0  0  0  0  0  0  0  0  0
   56.1750   28.2380   45.2730 C   0  0  0  0  0  0  0  0  0  0  0  0
   55.4160   29.3570   44.9390 O   0  0  0  0  0  0  0  0  0  0  0  0
   55.5630   27.1410   45.7930 N   0  0  0  0  0  0  0  0  0  0  0  0
   56.2710   26.0260   46.1070 C   0  0  0  0  0  0  0  0  0  0  0  0
   55.6840   25.0240   46.5890 O   0  0  0  0  0  0  0  0  0  0  0  0
   57.6110   25.9890   45.8950 N   0  0  0  0  0  0  0  0  0  0  0  0
   58.2710   27.0590   45.3800 C   0  0  0  0  0  0  0  0  0  0  0  0
   59.5150   26.9880   45.1900 O   0  0  0  0  0  0  0  0  0  0  0  0
   57.9260   31.7600   44.4960 C   0  0  0  0  0  0  0  0  0  0  0  0
   58.2160   32.7810   45.3730 C   0  0  0  0  0  0  0  0  0  0  0  0
   57.8740   34.2200   45.1260 C   0  0  0  0  0  0  0  0  0  0  0  0
   58.9130   32.3120   46.4370 N   0  0  0  0  0  0  0  0  0  0  0  0
   59.4460   33.1430   47.5310 C   0  0  0  0  0  0  0  0  0  0  0  0
   60.9510   33.2150   47.4630 C   0  0  0  0  0  0  0  0  0  0  0  0
   61.5770   33.8570   46.3890 C   0  0  0  0  0  0  0  0  0  0  0  0
   62.9650   33.9470   46.3390 C   0  0  0  0  0  0  0  0  0  0  0  0
   63.7460   33.3990   47.3570 C   0  0  0  0  0  0  0  0  0  0  0  0
   63.1510   32.7350   48.4580 C   0  0  0  0  0  0  0  0  0  0  0  0
   63.9670   32.1690   49.5340 N   0  0  0  0  0  0  0  0  0  0  0  0
   65.3320   32.6980   49.7460 C   0  0  0  0  0  0  0  0  0  0  0  0
   66.1370   31.9930   50.8470 C   0  0  0  0  0  0  0  0  0  0  0  0
   65.3100   31.5660   51.9810 N   0  0  0  0  0  0  0  0  0  0  0  0
   64.7390   32.6960   52.7340 C   0  0  0  0  0  0  0  0  0  0  0  0
   64.2940   30.6150   51.5210 C   0  0  0  0  0  0  0  0  0  0  0  0
   63.3450   31.2050   50.4700 C   0  0  0  0  0  0  0  0  0  0  0  0
   61.7370   32.6550   48.4850 C   0  0  0  0  0  0  0  0  0  0  0  0
  1  2  2  0
  2  3  1  0
  3  4  2  3
  4  5  1  0
  5  6  2  0
  6  7  1  0
  6  8  1  0
  8  9  1  0
  9 10  2  0
  9 11  1  0
 11 12  1  0
 12 13  2  0
  3 14  1  0
 14 15  2  0
 15 16  1  0
 15 17  1  0
 17 18  1  0
 18 19  1  0
 19 20  2  0
 20 21  1  0
 21 22  2  0
 22 23  1  0
 23 24  1  0
 24 25  1  0
 25 26  1  0
 26 27  1  0
 27 28  1  0
 27 29  1  0
 29 30  1  0
 23 31  2  0
 17  2  1  0
 31 19  1  0
 12  5  1  0
 30 24  1  0
M  CHG  2   8  -1  11  -1
M  END
>  <UniqueID>  (830) 
87

>  <SMILES>  (830) 
C=c1c(=Cc2c(O)[n-]c(=O)[n-]c2=O)cc(C)n1Cc1cccc(N2CCN(C)CC2)c1

>  <Energy>  (830) 
111.64023442743762

>  <Genealogy>  (830) 
C=c1c(=Cc2c(O)[n-]c(=O)[n-]c2=O)cc(C)n1Cc1cccc(N2CCN(C)CC2)c1 (protonated)
C=c1c(=Cc2c(O)[n-]c(=O)[n-]c2=O)cc(C)n1Cc1cccc(N2CCN(C)CC2)c1 (3D coordinates assigned)
C=c1c(=Cc2c(O)[n-]c(=O)[n-]c2=O)cc(C)n1Cc1cccc(N2CCN(C)CC2)c1 (nonaromatic ring conformer: 111.64023442743762 kcal/mol)

>  <smiles>  (830) 
C=c1c(=Cc2c(O)[nH]c(=O)[nH]c2=O)cc(C)n1Cc1cccc(N2CCN(C)CC2)c1

>  <score_type>  (830) 
oracle

>  <origin>  (830) 
adg

>  <m_score__min__energy>  (830) 
-14.039999999999999

>  <m_primary>  (830) 
energy

$$$$
11:0
     RDKit          3D

 27 29  0  0  0  0  0  0  0  0999 V2000
   59.7060   26.5760   46.5490 C   0  0  0  0  0  0  0  0  0  0  0  0
   58.4850   27.0520   46.2540 C   0  0  0  0  0  0  0  0  0  0  0  0
   58.1750   28.2480   45.5760 C   0  0  0  0  0  0  0  0  0  0  0  0
   58.9590   29.2650   45.1660 C   0  0  0  0  0  0  0  0  0  0  0  0
   59.0030   30.6130   45.7670 C   0  0  0  0  0  0  0  0  0  0  0  0
   57.9260   31.4850   45.6050 C   0  0  0  0  0  0  0  0  0  0  0  0
   56.8190   31.0720   44.8640 O   0  0  0  0  0  0  0  0  0  0  0  0
   57.9610   32.7370   46.1570 N   0  0  0  0  0  0  0  0  0  0  0  0
   56.8190   33.6460   45.9670 C   0  0  0  0  0  0  0  0  0  0  0  0
   59.0240   33.1130   46.9390 C   0  0  0  0  0  0  0  0  0  0  0  0
   59.0390   34.2640   47.4640 O   0  0  0  0  0  0  0  0  0  0  0  0
   60.0700   32.2510   47.1620 N   0  0  0  0  0  0  0  0  0  0  0  0
   61.2190   32.6830   47.9780 C   0  0  0  0  0  0  0  0  0  0  0  0
   60.0780   31.0170   46.5690 C   0  0  0  0  0  0  0  0  0  0  0  0
   61.0520   30.2310   46.7430 O   0  0  0  0  0  0  0  0  0  0  0  0
   56.8030   28.2410   45.3820 C   0  0  0  0  0  0  0  0  0  0  0  0
   56.3340   27.0910   45.9680 C   0  0  0  0  0  0  0  0  0  0  0  0
   54.9970   26.7130   46.0010 O   0  0  0  0  0  0  0  0  0  0  0  0
   57.3370   26.3680   46.5060 N   0  0  0  0  0  0  0  0  0  0  0  0
   57.1840   25.0560   47.1480 C   0  0  0  0  0  0  0  0  0  0  0  0
   56.8460   24.0000   46.1260 C   0  0  0  0  0  0  0  0  0  0  0  0
   57.1320   24.2030   44.7650 C   0  0  0  0  0  0  0  0  0  0  0  0
   56.8130   23.2200   43.8230 C   0  0  0  0  0  0  0  0  0  0  0  0
   56.2130   22.0250   44.2310 C   0  0  0  0  0  0  0  0  0  0  0  0
   55.8970   21.0500   43.2930 O   0  0  0  0  0  0  0  0  0  0  0  0
   55.9350   21.8110   45.5840 C   0  0  0  0  0  0  0  0  0  0  0  0
   56.2510   22.7910   46.5290 C   0  0  0  0  0  0  0  0  0  0  0  0
  1  2  2  0
  2  3  1  0
  3  4  2  0
  4  5  1  0
  5  6  2  0
  6  7  1  0
  6  8  1  0
  8  9  1  0
  8 10  1  0
 10 11  2  0
 10 12  1  0
 12 13  1  0
 12 14  1  0
 14 15  2  0
  3 16  1  0
 16 17  2  0
 17 18  1  0
 17 19  1  0
 19 20  1  0
 20 21  1  0
 21 22  2  0
 22 23  1  0
 23 24  2  0
 24 25  1  0
 24 26  1  0
 26 27  2  0
 19  2  1  0
 27 21  1  0
 14  5  1  0
M  CHG  3   7  -1  18  -1  25  -1
M  END
>  <UniqueID>  (831) 
11

>  <SMILES>  (831) 
C=c1/c(=C\c2c([O-])n(C)c(=O)n(C)c2=O)cc([O-])n1Cc1ccc([O-])cc1

>  <Energy>  (831) 
94.91662334078308

>  <Genealogy>  (831) 
C=c1c(=Cc2c([O-])n(C)c(=O)n(C)c2=O)cc([O-])n1Cc1ccc([O-])cc1 (protonated)
C=c1/c(=C\c2c([O-])n(C)c(=O)n(C)c2=O)cc([O-])n1Cc1ccc([O-])cc1 (cis-trans isomerization)
C=c1/c(=C\c2c([O-])n(C)c(=O)n(C)c2=O)cc([O-])n1Cc1ccc([O-])cc1 (3D coordinates assigned)
C=c1/c(=C\c2c([O-])n(C)c(=O)n(C)c2=O)cc([O-])n1Cc1ccc([O-])cc1 (optimized conformer: 94.91662334078308 kcal/mol)

>  <smiles>  (831) 
C=c1c(=Cc2c(O)n(C)c(=O)n(C)c2=O)cc(O)n1Cc1ccc(O)cc1

>  <score_type>  (831) 
oracle

>  <origin>  (831) 
adg

>  <m_score__min__energy>  (831) 
-14.539999999999999

>  <m_primary>  (831) 
energy

$$$$
24:0
     RDKit          3D

 34 37  0  0  0  0  0  0  0  0999 V2000
   57.2220   28.5430   45.3450 C   0  0  0  0  0  0  0  0  0  0  0  0
   57.9630   27.6460   46.0150 C   0  0  0  0  0  0  0  0  0  0  0  0
   58.0470   26.2750   45.7530 C   0  0  0  0  0  0  0  0  0  0  0  0
   57.4250   25.5900   44.7730 C   0  0  0  0  0  0  0  0  0  0  0  0
   56.1950   24.7970   44.9920 C   0  0  0  0  0  0  0  0  0  0  0  0
   55.0780   25.3850   45.6030 C   0  0  0  0  0  0  0  0  0  0  0  0
   55.1080   26.7180   45.9980 O   0  0  0  0  0  0  0  0  0  0  0  0
   53.9520   24.6530   45.8040 N   0  0  0  0  0  0  0  0  0  0  0  0
   53.8880   23.3470   45.4400 C   0  0  0  0  0  0  0  0  0  0  0  0
   52.8300   22.6920   45.6280 O   0  0  0  0  0  0  0  0  0  0  0  0
   54.9660   22.7460   44.8770 N   0  0  0  0  0  0  0  0  0  0  0  0
   56.1170   23.4330   44.6560 C   0  0  0  0  0  0  0  0  0  0  0  0
   57.1090   22.8310   44.1660 O   0  0  0  0  0  0  0  0  0  0  0  0
   58.9470   25.7540   46.6750 C   0  0  0  0  0  0  0  0  0  0  0  0
   59.3600   26.8100   47.4620 C   0  0  0  0  0  0  0  0  0  0  0  0
   60.3460   26.7020   48.5850 C   0  0  0  0  0  0  0  0  0  0  0  0
   58.7710   27.9570   47.0590 N   0  0  0  0  0  0  0  0  0  0  0  0
   58.9690   29.2530   47.6480 C   0  0  0  0  0  0  0  0  0  0  0  0
   58.6710   29.4640   49.0010 C   0  0  0  0  0  0  0  0  0  0  0  0
   58.8620   30.7260   49.5710 C   0  0  0  0  0  0  0  0  0  0  0  0
   59.3300   31.7850   48.7890 C   0  0  0  0  0  0  0  0  0  0  0  0
   59.6010   31.5900   47.4270 C   0  0  0  0  0  0  0  0  0  0  0  0
   60.0580   32.7170   46.5990 C   0  0  0  0  0  0  0  0  0  0  0  0
   61.2960   32.8250   46.3720 O   0  0  0  0  0  0  0  0  0  0  0  0
   59.1370   33.7010   46.0690 N   0  0  0  0  0  0  0  0  0  0  0  0
   58.1480   34.2970   46.9790 C   0  0  0  0  0  0  0  0  0  0  0  0
   59.0070   33.9440   44.6210 C   0  0  0  0  0  0  0  0  0  0  0  0
   58.1510   32.8940   43.9500 C   0  0  0  0  0  0  0  0  0  0  0  0
   57.3440   32.0450   44.7280 C   0  0  0  0  0  0  0  0  0  0  0  0
   56.5680   31.0530   44.1210 C   0  0  0  0  0  0  0  0  0  0  0  0
   56.5960   30.8930   42.7330 C   0  0  0  0  0  0  0  0  0  0  0  0
   57.4100   31.7160   41.9520 C   0  0  0  0  0  0  0  0  0  0  0  0
   58.1920   32.7080   42.5570 C   0  0  0  0  0  0  0  0  0  0  0  0
   59.4350   30.3170   46.8640 C   0  0  0  0  0  0  0  0  0  0  0  0
  1  2  2  0
  2  3  1  0
  3  4  2  0
  4  5  1  0
  5  6  2  0
  6  7  1  0
  6  8  1  0
  8  9  1  0
  9 10  2  0
  9 11  1  0
 11 12  1  0
 12 13  2  0
  3 14  1  0
 14 15  2  0
 15 16  1  0
 15 17  1  0
 17 18  1  0
 18 19  2  0
 19 20  1  0
 20 21  2  0
 21 22  1  0
 22 23  1  0
 23 24  2  0
 23 25  1  0
 25 26  1  0
 25 27  1  0
 27 28  1  0
 28 29  2  0
 29 30  1  0
 30 31  2  0
 31 32  1  0
 32 33  2  0
 22 34  2  0
 17  2  1  0
 34 18  1  0
 12  5  1  0
 33 28  1  0
M  CHG  3   7  -1   8  -1  11  -1
M  END
>  <UniqueID>  (832) 
23

>  <SMILES>  (832) 
C=c1/c(=C/c2c([O-])[n-]c(=O)[n-]c2=O)cc(C)n1-c1cccc(C(=O)N(C)Cc2ccccc2)c1

>  <Energy>  (832) 
109.8054196472294

>  <Genealogy>  (832) 
C=c1c(=Cc2c([O-])[n-]c(=O)[n-]c2=O)cc(C)n1-c1cccc(C(=O)N(C)Cc2ccccc2)c1 (protonated)
C=c1/c(=C/c2c([O-])[n-]c(=O)[n-]c2=O)cc(C)n1-c1cccc(C(=O)N(C)Cc2ccccc2)c1 (cis-trans isomerization)
C=c1/c(=C/c2c([O-])[n-]c(=O)[n-]c2=O)cc(C)n1-c1cccc(C(=O)N(C)Cc2ccccc2)c1 (3D coordinates assigned)
C=c1/c(=C/c2c([O-])[n-]c(=O)[n-]c2=O)cc(C)n1-c1cccc(C(=O)N(C)Cc2ccccc2)c1 (optimized conformer: 109.8054196472294 kcal/mol)

>  <smiles>  (832) 
C=c1c(=Cc2c(O)[nH]c(=O)[nH]c2=O)cc(C)n1-c1cccc(C(=O)N(C)Cc2ccccc2)c1

>  <score_type>  (832) 
oracle

>  <origin>  (832) 
adg

>  <m_score__min__energy>  (832) 
-16.989999999999998

>  <m_primary>  (832) 
energy

$$$$
32:0
     RDKit          3D

 34 37  0  0  0  0  0  0  0  0999 V2000
   56.4990   29.3430   44.7700 C   0  0  0  0  0  0  0  0  0  0  0  0
   57.7500   29.1110   45.1940 C   0  0  0  0  0  0  0  0  0  0  0  0
   58.4080   27.8770   45.2200 C   0  0  0  0  0  0  0  0  0  0  0  0
   57.9100   26.6770   44.8670 C   0  0  0  0  0  0  0  0  0  0  0  0
   57.3830   25.6990   45.8460 C   0  0  0  0  0  0  0  0  0  0  0  0
   56.0330   25.7360   46.2480 C   0  0  0  0  0  0  0  0  0  0  0  0
   55.1510   26.7130   45.7840 O   0  0  0  0  0  0  0  0  0  0  0  0
   55.5690   24.8050   47.1230 N   0  0  0  0  0  0  0  0  0  0  0  0
   56.3770   23.8320   47.6150 C   0  0  0  0  0  0  0  0  0  0  0  0
   55.9200   22.9880   48.4280 O   0  0  0  0  0  0  0  0  0  0  0  0
   57.6760   23.7680   47.2300 N   0  0  0  0  0  0  0  0  0  0  0  0
   58.1930   24.6680   46.3550 C   0  0  0  0  0  0  0  0  0  0  0  0
   59.3970   24.5580   45.9980 O   0  0  0  0  0  0  0  0  0  0  0  0
   59.6860   28.1240   45.7040 C   0  0  0  0  0  0  0  0  0  0  0  0
   59.7560   29.4790   45.9610 C   0  0  0  0  0  0  0  0  0  0  0  0
   61.0000   30.2010   46.3720 C   0  0  0  0  0  0  0  0  0  0  0  0
   58.5830   30.0760   45.6560 N   0  0  0  0  0  0  0  0  0  0  0  0
   58.3140   31.4860   45.7340 C   0  0  0  0  0  0  0  0  0  0  0  0
   57.9930   32.1780   44.5580 C   0  0  0  0  0  0  0  0  0  0  0  0
   57.7350   33.5480   44.5920 C   0  0  0  0  0  0  0  0  0  0  0  0
   57.7900   34.2390   45.8030 C   0  0  0  0  0  0  0  0  0  0  0  0
   58.1120   33.5630   46.9810 C   0  0  0  0  0  0  0  0  0  0  0  0
   58.3970   32.1850   46.9640 C   0  0  0  0  0  0  0  0  0  0  0  0
   58.7170   31.4940   48.2380 C   0  0  0  0  0  0  0  0  0  0  0  0
   58.5180   30.2540   48.3360 O   0  0  0  0  0  0  0  0  0  0  0  0
   59.2020   32.2160   49.3870 N   0  0  0  0  0  0  0  0  0  0  0  0
   58.9770   31.6430   50.7170 C   0  0  0  0  0  0  0  0  0  0  0  0
   60.0050   33.4420   49.2330 C   0  0  0  0  0  0  0  0  0  0  0  0
   61.2860   33.1820   48.4780 C   0  0  0  0  0  0  0  0  0  0  0  0
   62.2900   32.3500   49.0080 C   0  0  0  0  0  0  0  0  0  0  0  0
   63.4910   32.1640   48.3180 C   0  0  0  0  0  0  0  0  0  0  0  0
   63.7150   32.8270   47.1090 C   0  0  0  0  0  0  0  0  0  0  0  0
   62.7370   33.6780   46.5890 C   0  0  0  0  0  0  0  0  0  0  0  0
   61.5300   33.8620   47.2730 C   0  0  0  0  0  0  0  0  0  0  0  0
  1  2  2  0
  2  3  1  0
  3  4  2  3
  4  5  1  0
  5  6  2  0
  6  7  1  0
  6  8  1  0
  8  9  1  0
  9 10  2  0
  9 11  1  0
 11 12  1  0
 12 13  2  0
  3 14  1  0
 14 15  2  0
 15 16  1  0
 15 17  1  0
 17 18  1  0
 18 19  2  0
 19 20  1  0
 20 21  2  0
 21 22  1  0
 22 23  2  0
 23 24  1  0
 24 25  2  0
 24 26  1  0
 26 27  1  0
 26 28  1  0
 28 29  1  0
 29 30  2  0
 30 31  1  0
 31 32  2  0
 32 33  1  0
 33 34  2  0
 17  2  1  0
 23 18  1  0
 34 29  1  0
 12  5  1  0
M  CHG  2   8  -1  11  -1
M  END
>  <UniqueID>  (833) 
31

>  <SMILES>  (833) 
C=c1c(=Cc2c(O)[n-]c(=O)[n-]c2=O)cc(C)n1-c1ccccc1C(=O)N(C)Cc1ccccc1

>  <Energy>  (833) 
108.6728667209217

>  <Genealogy>  (833) 
C=c1c(=Cc2c(O)[n-]c(=O)[n-]c2=O)cc(C)n1-c1ccccc1C(=O)N(C)Cc1ccccc1 (protonated)
C=c1c(=Cc2c(O)[n-]c(=O)[n-]c2=O)cc(C)n1-c1ccccc1C(=O)N(C)Cc1ccccc1 (3D coordinates assigned)
C=c1c(=Cc2c(O)[n-]c(=O)[n-]c2=O)cc(C)n1-c1ccccc1C(=O)N(C)Cc1ccccc1 (optimized conformer: 108.6728667209217 kcal/mol)

>  <smiles>  (833) 
C=c1c(=Cc2c(O)[nH]c(=O)[nH]c2=O)cc(C)n1-c1ccccc1C(=O)N(C)Cc1ccccc1

>  <score_type>  (833) 
oracle

>  <origin>  (833) 
adg

>  <m_score__min__energy>  (833) 
-14.890000000000001

>  <m_primary>  (833) 
energy

$$$$
42:0
     RDKit          3D

 30 33  0  0  0  0  0  0  0  0999 V2000
   59.5840   28.3740   46.5750 C   0  0  0  0  0  0  0  0  0  0  0  0
   58.6940   28.7820   45.6530 C   0  0  0  0  0  0  0  0  0  0  0  0
   57.9930   27.9770   44.7400 C   0  0  0  0  0  0  0  0  0  0  0  0
   57.8360   26.6400   44.6830 C   0  0  0  0  0  0  0  0  0  0  0  0
   57.2900   25.7910   45.7560 C   0  0  0  0  0  0  0  0  0  0  0  0
   57.9530   24.7430   46.2740 N   0  0  0  0  0  0  0  0  0  0  0  0
   57.0690   24.2080   47.1440 C   0  0  0  0  0  0  0  0  0  0  0  0
   57.3350   23.1980   47.8450 O   0  0  0  0  0  0  0  0  0  0  0  0
   55.8750   24.8330   47.1930 N   0  0  0  0  0  0  0  0  0  0  0  0
   56.0180   25.8230   46.2960 C   0  0  0  0  0  0  0  0  0  0  0  0
   54.9900   26.7010   45.9600 O   0  0  0  0  0  0  0  0  0  0  0  0
   57.3900   28.8440   43.8430 C   0  0  0  0  0  0  0  0  0  0  0  0
   57.6630   30.1230   44.2790 C   0  0  0  0  0  0  0  0  0  0  0  0
   57.1440   31.3690   43.6280 C   0  0  0  0  0  0  0  0  0  0  0  0
   58.4540   30.0880   45.3770 N   0  0  0  0  0  0  0  0  0  0  0  0
   58.8790   31.2280   46.1490 C   0  0  0  0  0  0  0  0  0  0  0  0
   57.9390   32.1160   46.6910 C   0  0  0  0  0  0  0  0  0  0  0  0
   58.3630   33.2020   47.4620 C   0  0  0  0  0  0  0  0  0  0  0  0
   59.7280   33.4140   47.6860 C   0  0  0  0  0  0  0  0  0  0  0  0
   60.6800   32.5420   47.1330 C   0  0  0  0  0  0  0  0  0  0  0  0
   62.1240   32.7580   47.3680 C   0  0  0  0  0  0  0  0  0  0  0  0
   62.8600   33.0960   46.3980 O   0  0  0  0  0  0  0  0  0  0  0  0
   62.7030   32.6030   48.6780 N   0  0  0  0  0  0  0  0  0  0  0  0
   63.7940   33.4890   49.0920 C   0  0  0  0  0  0  0  0  0  0  0  0
   64.0810   33.3240   50.5870 C   0  0  0  0  0  0  0  0  0  0  0  0
   64.3640   31.9100   50.9160 N   0  0  0  0  0  0  0  0  0  0  0  0
   64.5000   31.7470   52.3740 C   0  0  0  0  0  0  0  0  0  0  0  0
   63.3950   30.9310   50.3490 C   0  0  0  0  0  0  0  0  0  0  0  0
   62.2140   31.5760   49.6040 C   0  0  0  0  0  0  0  0  0  0  0  0
   60.2450   31.4400   46.3830 C   0  0  0  0  0  0  0  0  0  0  0  0
  1  2  2  0
  2  3  1  0
  3  4  2  3
  4  5  1  0
  5  6  1  0
  6  7  1  0
  7  8  2  0
  7  9  1  0
  9 10  1  0
 10 11  1  0
  3 12  1  0
 12 13  2  0
 13 14  1  0
 13 15  1  0
 15 16  1  0
 16 17  2  0
 17 18  1  0
 18 19  2  0
 19 20  1  0
 20 21  1  0
 21 22  2  0
 21 23  1  0
 23 24  1  0
 24 25  1  0
 25 26  1  0
 26 27  1  0
 26 28  1  0
 28 29  1  0
 20 30  2  0
 15  2  1  0
 30 16  1  0
 10  5  2  0
 29 23  1  0
M  CHG  2   6  -1   9  -1
M  END
>  <UniqueID>  (834) 
40

>  <SMILES>  (834) 
C=c1c(=Cc2[n-]c(=O)[n-]c2O)cc(C)n1-c1cccc(C(=O)N2CCN(C)CC2)c1

>  <Energy>  (834) 
140.57870126641276

>  <Genealogy>  (834) 
C=c1c(=Cc2[n-]c(=O)[n-]c2O)cc(C)n1-c1cccc(C(=O)N2CCN(C)CC2)c1 (protonated)
C=c1c(=Cc2[n-]c(=O)[n-]c2O)cc(C)n1-c1cccc(C(=O)N2CCN(C)CC2)c1 (3D coordinates assigned)
C=c1c(=Cc2[n-]c(=O)[n-]c2O)cc(C)n1-c1cccc(C(=O)N2CCN(C)CC2)c1 (nonaromatic ring conformer: 140.57870126641276 kcal/mol)

>  <smiles>  (834) 
C=c1c(=Cc2[nH]c(=O)[nH]c2O)cc(C)n1-c1cccc(C(=O)N2CCN(C)CC2)c1

>  <score_type>  (834) 
oracle

>  <origin>  (834) 
adg

>  <m_score__min__energy>  (834) 
-14.76

>  <m_primary>  (834) 
energy

$$$$
54:0
     RDKit          3D

 24 26  0  0  0  0  0  0  0  0999 V2000
   58.8800   28.5280   47.6480 C   0  0  0  0  0  0  0  0  0  0  0  0
   58.3290   29.1280   46.5790 C   0  0  0  0  0  0  0  0  0  0  0  0
   57.8780   28.4960   45.4080 C   0  0  0  0  0  0  0  0  0  0  0  0
   57.6980   27.1920   45.1160 C   0  0  0  0  0  0  0  0  0  0  0  0
   57.1930   26.1660   46.0410 C   0  0  0  0  0  0  0  0  0  0  0  0
   57.9550   25.1810   46.5470 N   0  0  0  0  0  0  0  0  0  0  0  0
   57.0690   24.4160   47.2220 C   0  0  0  0  0  0  0  0  0  0  0  0
   57.4110   23.3850   47.8580 O   0  0  0  0  0  0  0  0  0  0  0  0
   55.7870   24.8360   47.1520 N   0  0  0  0  0  0  0  0  0  0  0  0
   55.8810   25.9360   46.3880 C   0  0  0  0  0  0  0  0  0  0  0  0
   54.7860   26.6960   45.9930 O   0  0  0  0  0  0  0  0  0  0  0  0
   57.5780   29.5040   44.5110 C   0  0  0  0  0  0  0  0  0  0  0  0
   57.7860   30.6980   45.1680 C   0  0  0  0  0  0  0  0  0  0  0  0
   57.5040   32.0460   44.5750 C   0  0  0  0  0  0  0  0  0  0  0  0
   58.2410   30.4790   46.4250 N   0  0  0  0  0  0  0  0  0  0  0  0
   58.5370   31.5360   47.4090 C   0  0  0  0  0  0  0  0  0  0  0  0
   59.9790   31.9820   47.2940 C   0  0  0  0  0  0  0  0  0  0  0  0
   60.9970   31.0880   47.6710 C   0  0  0  0  0  0  0  0  0  0  0  0
   62.3400   31.4580   47.5860 C   0  0  0  0  0  0  0  0  0  0  0  0
   62.6910   32.7270   47.1140 C   0  0  0  0  0  0  0  0  0  0  0  0
   64.0280   33.1080   47.0260 O   0  0  0  0  0  0  0  0  0  0  0  0
   61.6910   33.6210   46.7230 C   0  0  0  0  0  0  0  0  0  0  0  0
   60.3400   33.2600   46.8030 C   0  0  0  0  0  0  0  0  0  0  0  0
   59.1480   34.4420   46.2670 Cl  0  0  0  0  0  0  0  0  0  0  0  0
  1  2  2  0
  2  3  1  0
  3  4  2  3
  4  5  1  0
  5  6  1  0
  6  7  1  0
  7  8  2  0
  7  9  1  0
  9 10  1  0
 10 11  1  0
  3 12  1  0
 12 13  2  0
 13 14  1  0
 13 15  1  0
 15 16  1  0
 16 17  1  0
 17 18  2  0
 18 19  1  0
 19 20  2  0
 20 21  1  0
 20 22  1  0
 22 23  2  0
 23 24  1  0
 15  2  1  0
 23 17  1  0
 10  5  2  0
M  CHG  3   6  -1   9  -1  11  -1
M  END
>  <UniqueID>  (835) 
51

>  <SMILES>  (835) 
C=c1c(=Cc2[n-]c(=O)[n-]c2[O-])cc(C)n1Cc1ccc(O)cc1Cl

>  <Energy>  (835) 
110.45769134359887

>  <Genealogy>  (835) 
C=c1c(=Cc2[n-]c(=O)[n-]c2[O-])cc(C)n1Cc1ccc(O)cc1Cl (protonated)
C=c1c(=Cc2[n-]c(=O)[n-]c2[O-])cc(C)n1Cc1ccc(O)cc1Cl (3D coordinates assigned)
C=c1c(=Cc2[n-]c(=O)[n-]c2[O-])cc(C)n1Cc1ccc(O)cc1Cl (optimized conformer: 110.45769134359887 kcal/mol)

>  <smiles>  (835) 
C=c1c(=Cc2[nH]c(=O)[nH]c2O)cc(C)n1Cc1ccc(O)cc1Cl

>  <score_type>  (835) 
oracle

>  <origin>  (835) 
adg

>  <m_score__min__energy>  (835) 
-15.609999999999999

>  <m_primary>  (835) 
energy

$$$$
7:0
     RDKit          3D

 30 33  0  0  0  0  0  0  0  0999 V2000
   55.9030   24.8110   47.8160 O   0  0  0  0  0  0  0  0  0  0  0  0
   56.9360   24.9290   47.1060 C   0  0  0  0  0  0  0  0  0  0  0  0
   57.6450   23.7440   46.7180 N   0  0  0  0  0  0  0  0  0  0  0  0
   57.4970   23.0300   45.4820 C   0  0  0  0  0  0  0  0  0  0  0  0
   58.5360   22.1910   45.0570 C   0  0  0  0  0  0  0  0  0  0  0  0
   58.4280   21.4860   43.8550 C   0  0  0  0  0  0  0  0  0  0  0  0
   57.2880   21.6270   43.0600 C   0  0  0  0  0  0  0  0  0  0  0  0
   56.2570   22.4820   43.4620 C   0  0  0  0  0  0  0  0  0  0  0  0
   55.1300   22.6340   42.6640 O   0  0  0  0  0  0  0  0  0  0  0  0
   56.3630   23.1890   44.6650 C   0  0  0  0  0  0  0  0  0  0  0  0
   57.3580   26.2810   46.6580 C   0  0  0  0  0  0  0  0  0  0  0  0
   56.4680   27.1340   45.9810 C   0  0  0  0  0  0  0  0  0  0  0  0
   55.1500   26.7240   45.7760 O   0  0  0  0  0  0  0  0  0  0  0  0
   56.8840   28.3670   45.5440 N   0  0  0  0  0  0  0  0  0  0  0  0
   56.0200   29.1870   44.8660 C   0  0  0  0  0  0  0  0  0  0  0  0
   56.4320   30.4410   44.4180 C   0  0  0  0  0  0  0  0  0  0  0  0
   57.7320   30.8680   44.6640 C   0  0  0  0  0  0  0  0  0  0  0  0
   58.6240   30.0360   45.3570 C   0  0  0  0  0  0  0  0  0  0  0  0
   59.9510   30.4140   45.6300 O   0  0  0  0  0  0  0  0  0  0  0  0
   60.3970   31.0530   46.8260 C   0  0  0  0  0  0  0  0  0  0  0  0
   59.9880   32.4980   46.8380 C   0  0  0  0  0  0  0  0  0  0  0  0
   60.0160   33.2430   48.0250 C   0  0  0  0  0  0  0  0  0  0  0  0
   59.6440   34.5900   47.9970 C   0  0  0  0  0  0  0  0  0  0  0  0
   59.2590   35.1800   46.7920 C   0  0  0  0  0  0  0  0  0  0  0  0
   59.2560   34.4110   45.6260 C   0  0  0  0  0  0  0  0  0  0  0  0
   59.6200   33.1010   45.6730 N   0  0  0  0  0  0  0  0  0  0  0  0
   58.1740   28.7800   45.7950 C   0  0  0  0  0  0  0  0  0  0  0  0
   59.0300   27.9710   46.4690 N   0  0  0  0  0  0  0  0  0  0  0  0
   58.6580   26.7450   46.9050 C   0  0  0  0  0  0  0  0  0  0  0  0
   59.4960   26.0280   47.5140 O   0  0  0  0  0  0  0  0  0  0  0  0
  1  2  2  0
  2  3  1  0
  3  4  1  0
  4  5  2  0
  5  6  1  0
  6  7  2  0
  7  8  1  0
  8  9  1  0
  8 10  2  0
  2 11  1  0
 11 12  2  0
 12 13  1  0
 12 14  1  0
 14 15  1  0
 15 16  2  0
 16 17  1  0
 17 18  2  0
 18 19  1  0
 19 20  1  0
 20 21  1  0
 21 22  2  0
 22 23  1  0
 23 24  2  0
 24 25  1  0
 25 26  2  0
 18 27  1  0
 27 28  2  0
 28 29  1  0
 29 30  2  0
 10  4  1  0
 29 11  1  0
 27 14  1  0
 26 21  1  0
M  CHG  3   3  -1   9  -1  13  -1
M  END
>  <UniqueID>  (836) 
8

>  <SMILES>  (836) 
O=C([N-]c1cccc([O-])c1)c1c([O-])n2cccc(OCc3ccccn3)c2nc1=O

>  <Energy>  (836) 
63.282459420646546

>  <Genealogy>  (836) 
O=C([N-]c1cccc([O-])c1)c1c([O-])n2cccc(OCc3ccccn3)c2nc1=O (protonated)
O=C([N-]c1cccc([O-])c1)c1c([O-])n2cccc(OCc3ccccn3)c2nc1=O (3D coordinates assigned)
O=C([N-]c1cccc([O-])c1)c1c([O-])n2cccc(OCc3ccccn3)c2nc1=O (optimized conformer: 63.282459420646546 kcal/mol)

>  <smiles>  (836) 
O=C(Nc1cccc(O)c1)c1c(O)n2cccc(OCc3ccccn3)c2nc1=O

>  <score_type>  (836) 
oracle

>  <origin>  (836) 
adg

>  <m_score__min__energy>  (836) 
-14.81

>  <m_primary>  (836) 
energy

$$$$
9:0
     RDKit          3D

 27 29  0  0  0  0  0  0  0  0999 V2000
   55.1660   30.4820   43.7290 O   0  0  0  0  0  0  0  0  0  0  0  0
   56.0960   29.8960   44.3450 C   0  0  0  0  0  0  0  0  0  0  0  0
   57.5180   30.2490   44.0440 C   0  0  0  0  0  0  0  0  0  0  0  0
   57.9010   31.5070   44.7730 C   0  0  0  0  0  0  0  0  0  0  0  0
   57.7970   32.7540   44.1380 C   0  0  0  0  0  0  0  0  0  0  0  0
   58.1200   33.9270   44.8280 C   0  0  0  0  0  0  0  0  0  0  0  0
   58.5400   33.8640   46.1640 C   0  0  0  0  0  0  0  0  0  0  0  0
   58.8630   35.0250   46.8620 O   0  0  0  0  0  0  0  0  0  0  0  0
   58.6330   32.6250   46.8050 C   0  0  0  0  0  0  0  0  0  0  0  0
   58.3100   31.4500   46.1160 C   0  0  0  0  0  0  0  0  0  0  0  0
   55.8170   28.8240   45.2530 N   0  0  0  0  0  0  0  0  0  0  0  0
   56.7100   27.7650   45.6310 C   0  0  0  0  0  0  0  0  0  0  0  0
   58.1070   27.9280   45.5960 C   0  0  0  0  0  0  0  0  0  0  0  0
   58.9470   26.8680   45.9430 C   0  0  0  0  0  0  0  0  0  0  0  0
   58.4060   25.6380   46.3180 C   0  0  0  0  0  0  0  0  0  0  0  0
   57.0170   25.4540   46.3470 C   0  0  0  0  0  0  0  0  0  0  0  0
   56.3520   23.8820   46.8040 S   0  0  0  0  0  0  0  0  0  0  0  0
   56.1950   23.8190   48.2980 O   0  0  0  0  0  0  0  0  0  0  0  0
   55.0040   23.7330   46.1570 O   0  0  0  0  0  0  0  0  0  0  0  0
   57.4250   22.6040   46.2640 N   0  0  0  0  0  0  0  0  0  0  0  0
   56.7500   21.2870   46.2540 C   0  0  0  0  0  0  0  0  0  0  0  0
   56.2770   20.8700   44.8500 C   0  0  0  0  0  0  0  0  0  0  0  0
   55.9050   22.0060   44.1020 O   0  0  0  0  0  0  0  0  0  0  0  0
   57.0470   22.7850   43.7900 C   0  0  0  0  0  0  0  0  0  0  0  0
   58.0440   22.9240   44.9670 C   0  0  0  0  0  0  0  0  0  0  0  0
   56.1700   26.5180   45.9830 C   0  0  0  0  0  0  0  0  0  0  0  0
   54.7890   26.3430   45.9690 O   0  0  0  0  0  0  0  0  0  0  0  0
  1  2  2  0
  2  3  1  0
  3  4  1  0
  4  5  2  0
  5  6  1  0
  6  7  2  0
  7  8  1  0
  7  9  1  0
  9 10  2  0
  2 11  1  0
 11 12  1  0
 12 13  2  0
 13 14  1  0
 14 15  2  0
 15 16  1  0
 16 17  1  0
 17 18  2  0
 17 19  2  0
 17 20  1  0
 20 21  1  0
 21 22  1  0
 22 23  1  0
 23 24  1  0
 24 25  1  0
 16 26  2  0
 26 27  1  0
 10  4  1  0
 26 12  1  0
 25 20  1  0
M  CHG  2  11  -1  27  -1
M  END
>  <UniqueID>  (837) 
10

>  <SMILES>  (837) 
O=C(Cc1ccc(O)cc1)[N-]c1cccc(S(=O)(=O)N2CCOCC2)c1[O-]

>  <Energy>  (837) 
59.727023348122025

>  <Genealogy>  (837) 
O=C(Cc1ccc(O)cc1)[N-]c1cccc(S(=O)(=O)N2CCOCC2)c1[O-] (protonated)
O=C(Cc1ccc(O)cc1)[N-]c1cccc(S(=O)(=O)N2CCOCC2)c1[O-] (3D coordinates assigned)
O=C(Cc1ccc(O)cc1)[N-]c1cccc(S(=O)(=O)N2CCOCC2)c1[O-] (nonaromatic ring conformer: 59.727023348122025 kcal/mol)

>  <smiles>  (837) 
O=C(Cc1ccc(O)cc1)Nc1cccc(S(=O)(=O)N2CCOCC2)c1O

>  <score_type>  (837) 
oracle

>  <origin>  (837) 
adg

>  <m_score__min__energy>  (837) 
-15.460000000000001

>  <m_primary>  (837) 
energy

$$$$
31:0
     RDKit          3D

 33 36  0  0  0  0  0  0  0  0999 V2000
   58.4920   31.8970   46.5490 O   0  0  0  0  0  0  0  0  0  0  0  0
   58.2630   30.7790   46.0120 C   0  0  0  0  0  0  0  0  0  0  0  0
   57.0200   30.5270   45.5390 N   0  0  0  0  0  0  0  0  0  0  0  0
   56.6950   29.3550   44.9450 C   0  0  0  0  0  0  0  0  0  0  0  0
   55.3820   29.2140   44.4850 O   0  0  0  0  0  0  0  0  0  0  0  0
   57.6790   28.3490   44.8120 C   0  0  0  0  0  0  0  0  0  0  0  0
   57.4010   26.9920   44.1860 C   0  0  0  0  0  0  0  0  0  0  0  0
   57.3170   25.9100   45.2390 C   0  0  0  0  0  0  0  0  0  0  0  0
   58.3680   24.9850   45.3760 C   0  0  0  0  0  0  0  0  0  0  0  0
   58.3130   23.9890   46.3550 C   0  0  0  0  0  0  0  0  0  0  0  0
   57.2100   23.9030   47.2060 C   0  0  0  0  0  0  0  0  0  0  0  0
   57.1580   22.9130   48.1790 O   0  0  0  0  0  0  0  0  0  0  0  0
   56.1580   24.8140   47.0790 C   0  0  0  0  0  0  0  0  0  0  0  0
   56.2060   25.8150   46.1010 C   0  0  0  0  0  0  0  0  0  0  0  0
   55.1440   26.7040   45.9950 O   0  0  0  0  0  0  0  0  0  0  0  0
   58.9720   28.6310   45.3030 C   0  0  0  0  0  0  0  0  0  0  0  0
   59.8820   27.7630   45.1870 O   0  0  0  0  0  0  0  0  0  0  0  0
   59.2510   29.8370   45.8990 N   0  0  0  0  0  0  0  0  0  0  0  0
   60.6220   30.1260   46.3730 C   0  0  0  0  0  0  0  0  0  0  0  0
   60.7490   29.9070   47.8880 C   0  0  0  0  0  0  0  0  0  0  0  0
   60.4670   31.1690   48.6590 C   0  0  0  0  0  0  0  0  0  0  0  0
   59.3370   31.2550   49.4880 C   0  0  0  0  0  0  0  0  0  0  0  0
   59.1040   32.4060   50.2440 C   0  0  0  0  0  0  0  0  0  0  0  0
   59.9980   33.4770   50.1860 C   0  0  0  0  0  0  0  0  0  0  0  0
   61.1340   33.4060   49.3640 C   0  0  0  0  0  0  0  0  0  0  0  0
   62.1310   34.5350   49.3360 C   0  0  0  0  0  0  0  0  0  0  0  0
   63.4150   34.1180   49.9420 N   0  0  0  0  0  0  0  0  0  0  0  0
   64.2380   33.3430   48.9850 C   0  0  0  0  0  0  0  0  0  0  0  0
   65.2750   32.4830   49.7250 C   0  0  0  0  0  0  0  0  0  0  0  0
   64.7070   31.5290   50.6130 O   0  0  0  0  0  0  0  0  0  0  0  0
   63.4110   31.8810   51.0760 C   0  0  0  0  0  0  0  0  0  0  0  0
   63.2060   33.4000   51.2240 C   0  0  0  0  0  0  0  0  0  0  0  0
   61.3660   32.2450   48.6080 C   0  0  0  0  0  0  0  0  0  0  0  0
  1  2  2  0
  2  3  1  0
  3  4  1  0
  4  5  1  0
  4  6  2  0
  6  7  1  0
  7  8  1  0
  8  9  2  0
  9 10  1  0
 10 11  2  0
 11 12  1  0
 11 13  1  0
 13 14  2  0
 14 15  1  0
  6 16  1  0
 16 17  2  0
 16 18  1  0
 18 19  1  0
 19 20  1  0
 20 21  1  0
 21 22  2  0
 22 23  1  0
 23 24  2  0
 24 25  1  0
 25 26  1  0
 26 27  1  0
 27 28  1  0
 28 29  1  0
 29 30  1  0
 30 31  1  0
 31 32  1  0
 25 33  2  0
 18  2  1  0
 33 21  1  0
 14  8  1  0
 32 27  1  0
M  CHG  3   3  -1  12  -1  15  -1
M  END
>  <UniqueID>  (838) 
30

>  <SMILES>  (838) 
O=c1[n-]c(O)c(Cc2ccc([O-])cc2[O-])c(=O)n1CCc1cccc(CN2CCOCC2)c1

>  <Energy>  (838) 
79.33475159102662

>  <Genealogy>  (838) 
O=c1[n-]c(O)c(Cc2ccc([O-])cc2[O-])c(=O)n1CCc1cccc(CN2CCOCC2)c1 (protonated)
O=c1[n-]c(O)c(Cc2ccc([O-])cc2[O-])c(=O)n1CCc1cccc(CN2CCOCC2)c1 (3D coordinates assigned)
O=c1[n-]c(O)c(Cc2ccc([O-])cc2[O-])c(=O)n1CCc1cccc(CN2CCOCC2)c1 (nonaromatic ring conformer: 79.33475159102662 kcal/mol)

>  <smiles>  (838) 
O=c1[nH]c(O)c(Cc2ccc(O)cc2O)c(=O)n1CCc1cccc(CN2CCOCC2)c1

>  <score_type>  (838) 
oracle

>  <origin>  (838) 
adg

>  <m_score__min__energy>  (838) 
-16.219999999999999

>  <m_primary>  (838) 
energy

$$$$
43:0
     RDKit          3D

 28 30  0  0  0  0  0  0  0  0999 V2000
   57.6850   33.0610   44.9190 C   0  0  0  0  0  0  0  0  0  0  0  0
   58.1630   31.6730   45.2490 C   0  0  0  0  0  0  0  0  0  0  0  0
   58.2210   30.7230   44.2140 C   0  0  0  0  0  0  0  0  0  0  0  0
   58.6510   29.4200   44.4640 C   0  0  0  0  0  0  0  0  0  0  0  0
   59.0160   29.0310   45.7520 C   0  0  0  0  0  0  0  0  0  0  0  0
   59.4620   27.6830   45.9620 N   0  0  0  0  0  0  0  0  0  0  0  0
   58.9950   26.7780   46.9700 C   0  0  0  0  0  0  0  0  0  0  0  0
   59.6010   26.6620   48.0680 O   0  0  0  0  0  0  0  0  0  0  0  0
   57.7160   26.0360   46.7510 C   0  0  0  0  0  0  0  0  0  0  0  0
   57.6300   25.3760   45.0500 S   0  0  0  0  0  0  0  0  0  0  0  0
   55.9860   24.6810   45.2310 C   0  0  0  0  0  0  0  0  0  0  0  0
   55.5670   23.0840   44.8960 S   0  0  0  0  0  0  0  0  0  0  0  0
   53.9580   23.3420   45.3130 C   0  0  0  0  0  0  0  0  0  0  0  0
   53.0670   22.4540   45.2740 O   0  0  0  0  0  0  0  0  0  0  0  0
   53.7140   24.6140   45.6950 N   0  0  0  0  0  0  0  0  0  0  0  0
   54.8470   25.3610   45.6470 C   0  0  0  0  0  0  0  0  0  0  0  0
   54.8530   26.7060   45.9940 O   0  0  0  0  0  0  0  0  0  0  0  0
   58.9890   29.9760   46.7890 C   0  0  0  0  0  0  0  0  0  0  0  0
   58.5610   31.2930   46.5580 C   0  0  0  0  0  0  0  0  0  0  0  0
   58.5580   32.3820   47.9630 S   0  0  0  0  0  0  0  0  0  0  0  0
   58.1850   31.6830   49.2390 O   0  0  0  0  0  0  0  0  0  0  0  0
   57.5360   33.4530   47.7020 O   0  0  0  0  0  0  0  0  0  0  0  0
   60.1370   33.1230   48.1270 N   0  0  0  0  0  0  0  0  0  0  0  0
   60.0420   34.5820   48.3170 C   0  0  0  0  0  0  0  0  0  0  0  0
   59.7020   35.3270   47.0030 C   0  0  0  0  0  0  0  0  0  0  0  0
   59.9160   34.5500   45.8380 O   0  0  0  0  0  0  0  0  0  0  0  0
   61.1360   33.8520   45.9380 C   0  0  0  0  0  0  0  0  0  0  0  0
   61.0400   32.7560   47.0140 C   0  0  0  0  0  0  0  0  0  0  0  0
  1  2  1  0
  2  3  2  0
  3  4  1  0
  4  5  2  0
  5  6  1  0
  6  7  1  0
  7  8  2  0
  7  9  1  0
  9 10  1  0
 10 11  1  0
 11 12  1  0
 12 13  1  0
 13 14  2  0
 13 15  1  0
 15 16  1  0
 16 17  1  0
  5 18  1  0
 18 19  2  0
 19 20  1  0
 20 21  2  0
 20 22  2  0
 20 23  1  0
 23 24  1  0
 24 25  1  0
 25 26  1  0
 26 27  1  0
 27 28  1  0
 19  2  1  0
 28 23  1  0
 16 11  2  0
M  CHG  3   6  -1  15  -1  17  -1
M  END
>  <UniqueID>  (839) 
41

>  <SMILES>  (839) 
Cc1ccc([N-]C(=O)CSc2sc(=O)[n-]c2[O-])cc1S(=O)(=O)N1CCOCC1

>  <Energy>  (839) 
88.31257780804359

>  <Genealogy>  (839) 
Cc1ccc([N-]C(=O)CSc2sc(=O)[n-]c2[O-])cc1S(=O)(=O)N1CCOCC1 (protonated)
Cc1ccc([N-]C(=O)CSc2sc(=O)[n-]c2[O-])cc1S(=O)(=O)N1CCOCC1 (3D coordinates assigned)
Cc1ccc([N-]C(=O)CSc2sc(=O)[n-]c2[O-])cc1S(=O)(=O)N1CCOCC1 (nonaromatic ring conformer: 88.31257780804359 kcal/mol)

>  <smiles>  (839) 
Cc1ccc(NC(=O)CSc2sc(=O)[nH]c2O)cc1S(=O)(=O)N1CCOCC1

>  <score_type>  (839) 
oracle

>  <origin>  (839) 
adg

>  <m_score__min__energy>  (839) 
-17.02

>  <m_primary>  (839) 
energy

$$$$
49:0
     RDKit          3D

 29 31  0  0  0  0  0  0  0  0999 V2000
   57.4190   30.6340   45.4020 O   0  0  0  0  0  0  0  0  0  0  0  0
   58.1860   29.6940   45.7450 C   0  0  0  0  0  0  0  0  0  0  0  0
   58.2270   28.4740   44.9120 C   0  0  0  0  0  0  0  0  0  0  0  0
   57.2430   27.5630   44.8510 C   0  0  0  0  0  0  0  0  0  0  0  0
   57.1590   26.3610   45.7130 C   0  0  0  0  0  0  0  0  0  0  0  0
   55.9260   25.9690   46.2560 C   0  0  0  0  0  0  0  0  0  0  0  0
   54.7770   26.7030   45.9990 O   0  0  0  0  0  0  0  0  0  0  0  0
   55.8460   24.8580   47.0320 N   0  0  0  0  0  0  0  0  0  0  0  0
   56.9490   24.1180   47.3130 C   0  0  0  0  0  0  0  0  0  0  0  0
   56.8490   23.0870   48.0260 O   0  0  0  0  0  0  0  0  0  0  0  0
   58.1610   24.4960   46.8320 N   0  0  0  0  0  0  0  0  0  0  0  0
   58.2950   25.6000   46.0530 C   0  0  0  0  0  0  0  0  0  0  0  0
   59.4410   25.9380   45.6540 O   0  0  0  0  0  0  0  0  0  0  0  0
   59.0400   29.8540   46.9410 C   0  0  0  0  0  0  0  0  0  0  0  0
   58.8790   28.9980   48.0410 C   0  0  0  0  0  0  0  0  0  0  0  0
   59.7230   29.1100   49.1470 C   0  0  0  0  0  0  0  0  0  0  0  0
   60.7120   30.0970   49.1780 C   0  0  0  0  0  0  0  0  0  0  0  0
   60.8540   30.9910   48.1120 C   0  0  0  0  0  0  0  0  0  0  0  0
   61.8400   32.0270   48.2090 N   0  0  0  0  0  0  0  0  0  0  0  0
   61.6230   33.6620   47.6690 S   0  0  0  0  0  0  0  0  0  0  0  0
   61.7240   34.5940   48.8430 O   0  0  0  0  0  0  0  0  0  0  0  0
   62.7210   34.0050   46.7020 O   0  0  0  0  0  0  0  0  0  0  0  0
   60.0720   33.8460   46.8580 C   0  0  0  0  0  0  0  0  0  0  0  0
   60.0360   34.2220   45.5070 C   0  0  0  0  0  0  0  0  0  0  0  0
   58.8090   34.4110   44.8620 C   0  0  0  0  0  0  0  0  0  0  0  0
   57.6140   34.2220   45.5610 C   0  0  0  0  0  0  0  0  0  0  0  0
   57.6440   33.8400   46.9060 C   0  0  0  0  0  0  0  0  0  0  0  0
   58.8690   33.6550   47.5550 C   0  0  0  0  0  0  0  0  0  0  0  0
   60.0250   30.8550   46.9850 C   0  0  0  0  0  0  0  0  0  0  0  0
  1  2  2  0
  2  3  1  0
  3  4  2  3
  4  5  1  0
  5  6  2  0
  6  7  1  0
  6  8  1  0
  8  9  1  0
  9 10  2  0
  9 11  1  0
 11 12  1  0
 12 13  2  0
  2 14  1  0
 14 15  2  0
 15 16  1  0
 16 17  2  0
 17 18  1  0
 18 19  1  0
 19 20  1  0
 20 21  2  0
 20 22  2  0
 20 23  1  0
 23 24  2  0
 24 25  1  0
 25 26  2  0
 26 27  1  0
 27 28  2  0
 18 29  2  0
 12  5  1  0
 29 14  1  0
 28 23  1  0
M  CHG  4   7  -1   8  -1  11  -1  19  -1
M  END
>  <UniqueID>  (840) 
47

>  <SMILES>  (840) 
O=C(C=Cc1c([O-])[n-]c(=O)[n-]c1=O)c1cccc([N-]S(=O)(=O)c2ccccc2)c1

>  <Energy>  (840) 
59.03326023775632

>  <Genealogy>  (840) 
O=C(C=Cc1c([O-])[n-]c(=O)[n-]c1=O)c1cccc([N-]S(=O)(=O)c2ccccc2)c1 (protonated)
O=C(C=Cc1c([O-])[n-]c(=O)[n-]c1=O)c1cccc([N-]S(=O)(=O)c2ccccc2)c1 (3D coordinates assigned)
O=C(C=Cc1c([O-])[n-]c(=O)[n-]c1=O)c1cccc([N-]S(=O)(=O)c2ccccc2)c1 (optimized conformer: 59.03326023775632 kcal/mol)

>  <smiles>  (840) 
O=C(C=Cc1c(O)[nH]c(=O)[nH]c1=O)c1cccc(NS(=O)(=O)c2ccccc2)c1

>  <score_type>  (840) 
oracle

>  <origin>  (840) 
adg

>  <m_score__min__energy>  (840) 
-18.010000000000002

>  <m_primary>  (840) 
energy

$$$$
59:0
     RDKit          3D

 25 27  0  0  0  0  0  0  0  0999 V2000
   56.2480   30.0780   43.2560 C   0  0  0  0  0  0  0  0  0  0  0  0
   56.9230   30.2330   44.4090 C   0  0  0  0  0  0  0  0  0  0  0  0
   57.0140   31.5000   44.8800 N   0  0  0  0  0  0  0  0  0  0  0  0
   57.6860   31.8200   46.0070 C   0  0  0  0  0  0  0  0  0  0  0  0
   57.7390   33.0290   46.3580 O   0  0  0  0  0  0  0  0  0  0  0  0
   58.2900   30.8430   46.7490 N   0  0  0  0  0  0  0  0  0  0  0  0
   59.0520   31.1980   47.9660 C   0  0  0  0  0  0  0  0  0  0  0  0
   60.3490   31.8690   47.5930 C   0  0  0  0  0  0  0  0  0  0  0  0
   60.3640   33.2260   47.2330 C   0  0  0  0  0  0  0  0  0  0  0  0
   61.5600   33.8400   46.8470 C   0  0  0  0  0  0  0  0  0  0  0  0
   62.7460   33.1020   46.8130 C   0  0  0  0  0  0  0  0  0  0  0  0
   62.7390   31.7490   47.1640 C   0  0  0  0  0  0  0  0  0  0  0  0
   61.5460   31.1320   47.5500 C   0  0  0  0  0  0  0  0  0  0  0  0
   58.2160   29.5330   46.3430 C   0  0  0  0  0  0  0  0  0  0  0  0
   58.6900   28.6380   47.0960 O   0  0  0  0  0  0  0  0  0  0  0  0
   57.5670   29.1760   45.1240 C   0  0  0  0  0  0  0  0  0  0  0  0
   57.5380   27.8850   44.6760 C   0  0  0  0  0  0  0  0  0  0  0  0
   57.5050   26.6730   45.5250 C   0  0  0  0  0  0  0  0  0  0  0  0
   58.6480   25.8630   45.6490 C   0  0  0  0  0  0  0  0  0  0  0  0
   58.6040   24.6940   46.4120 C   0  0  0  0  0  0  0  0  0  0  0  0
   57.4140   24.3100   47.0370 C   0  0  0  0  0  0  0  0  0  0  0  0
   57.3710   23.1460   47.7960 O   0  0  0  0  0  0  0  0  0  0  0  0
   56.2660   25.0940   46.8960 C   0  0  0  0  0  0  0  0  0  0  0  0
   56.3040   26.2690   46.1350 C   0  0  0  0  0  0  0  0  0  0  0  0
   55.1500   27.0320   45.9970 O   0  0  0  0  0  0  0  0  0  0  0  0
  1  2  2  0
  2  3  1  0
  3  4  1  0
  4  5  2  0
  4  6  1  0
  6  7  1  0
  7  8  1  0
  8  9  2  0
  9 10  1  0
 10 11  2  0
 11 12  1  0
 12 13  2  0
  6 14  1  0
 14 15  2  0
 14 16  1  0
 16 17  2  3
 17 18  1  0
 18 19  2  0
 19 20  1  0
 20 21  2  0
 21 22  1  0
 21 23  1  0
 23 24  2  0
 24 25  1  0
 16  2  1  0
 24 18  1  0
 13  8  1  0
M  CHG  3   3  -1  22  -1  25  -1
M  END
>  <UniqueID>  (841) 
57

>  <SMILES>  (841) 
C=c1[n-]c(=O)n(Cc2ccccc2)c(=O)c1=Cc1ccc([O-])cc1[O-]

>  <Energy>  (841) 
65.94606597658611

>  <Genealogy>  (841) 
C=c1[n-]c(=O)n(Cc2ccccc2)c(=O)c1=Cc1ccc([O-])cc1[O-] (protonated)
C=c1[n-]c(=O)n(Cc2ccccc2)c(=O)c1=Cc1ccc([O-])cc1[O-] (3D coordinates assigned)
C=c1[n-]c(=O)n(Cc2ccccc2)c(=O)c1=Cc1ccc([O-])cc1[O-] (optimized conformer: 65.94606597658611 kcal/mol)

>  <smiles>  (841) 
C=c1[nH]c(=O)n(Cc2ccccc2)c(=O)c1=Cc1ccc(O)cc1O

>  <score_type>  (841) 
oracle

>  <origin>  (841) 
adg

>  <m_score__min__energy>  (841) 
-14.960000000000001

>  <m_primary>  (841) 
energy

$$$$
61:0
     RDKit          3D

 26 28  0  0  0  0  0  0  0  0999 V2000
   64.0950   31.7220   49.5650 O   0  0  0  0  0  0  0  0  0  0  0  0
   63.1440   32.3150   48.9910 C   0  0  0  0  0  0  0  0  0  0  0  0
   61.9090   32.4370   49.6210 C   0  0  0  0  0  0  0  0  0  0  0  0
   60.8830   33.1020   48.9520 C   0  0  0  0  0  0  0  0  0  0  0  0
   61.0900   33.6160   47.7050 N   0  0  0  0  0  0  0  0  0  0  0  0
   59.7980   34.4550   46.8910 S   0  0  0  0  0  0  0  0  0  0  0  0
   60.3470   35.5310   45.9960 O   0  0  0  0  0  0  0  0  0  0  0  0
   58.9070   35.0930   47.9200 O   0  0  0  0  0  0  0  0  0  0  0  0
   58.8820   33.3140   45.9120 C   0  0  0  0  0  0  0  0  0  0  0  0
   58.6030   32.0350   46.4080 C   0  0  0  0  0  0  0  0  0  0  0  0
   57.8820   31.1220   45.6350 C   0  0  0  0  0  0  0  0  0  0  0  0
   57.4390   31.4750   44.3500 C   0  0  0  0  0  0  0  0  0  0  0  0
   56.6640   30.4850   43.5210 C   0  0  0  0  0  0  0  0  0  0  0  0
   57.4130   29.2360   43.3730 N   0  0  0  0  0  0  0  0  0  0  0  0
   57.8350   28.4030   44.4740 C   0  0  0  0  0  0  0  0  0  0  0  0
   59.1900   28.0670   44.6640 C   0  0  0  0  0  0  0  0  0  0  0  0
   59.5770   27.2610   45.7380 C   0  0  0  0  0  0  0  0  0  0  0  0
   58.6200   26.7750   46.6310 C   0  0  0  0  0  0  0  0  0  0  0  0
   57.2730   27.0940   46.4510 C   0  0  0  0  0  0  0  0  0  0  0  0
   56.8770   27.9030   45.3790 C   0  0  0  0  0  0  0  0  0  0  0  0
   55.5280   28.2090   45.2270 O   0  0  0  0  0  0  0  0  0  0  0  0
   57.7150   32.7610   43.8570 C   0  0  0  0  0  0  0  0  0  0  0  0
   58.4380   33.6730   44.6320 C   0  0  0  0  0  0  0  0  0  0  0  0
   62.3170   33.4880   47.1100 C   0  0  0  0  0  0  0  0  0  0  0  0
   62.5290   33.9680   45.9640 O   0  0  0  0  0  0  0  0  0  0  0  0
   63.3240   32.8420   47.7530 N   0  0  0  0  0  0  0  0  0  0  0  0
  1  2  2  0
  2  3  1  0
  3  4  2  0
  4  5  1  0
  5  6  1  0
  6  7  2  0
  6  8  2  0
  6  9  1  0
  9 10  2  0
 10 11  1  0
 11 12  2  0
 12 13  1  0
 13 14  1  0
 14 15  1  0
 15 16  2  0
 16 17  1  0
 17 18  2  0
 18 19  1  0
 19 20  2  0
 20 21  1  0
 12 22  1  0
 22 23  2  0
  5 24  1  0
 24 25  2  0
 24 26  1  0
 26  2  1  0
 23  9  1  0
 20 15  1  0
M  CHG  2  21  -1  26  -1
M  END
>  <UniqueID>  (842) 
59

>  <SMILES>  (842) 
O=c1ccn(S(=O)(=O)c2ccc(CNc3ccccc3[O-])cc2)c(=O)[n-]1

>  <Energy>  (842) 
46.41651394180199

>  <Genealogy>  (842) 
O=c1ccn(S(=O)(=O)c2ccc(CNc3ccccc3[O-])cc2)c(=O)[n-]1 (protonated)
O=c1ccn(S(=O)(=O)c2ccc(CNc3ccccc3[O-])cc2)c(=O)[n-]1 (3D coordinates assigned)
O=c1ccn(S(=O)(=O)c2ccc(CNc3ccccc3[O-])cc2)c(=O)[n-]1 (optimized conformer: 46.41651394180199 kcal/mol)

>  <smiles>  (842) 
O=c1ccn(S(=O)(=O)c2ccc(CNc3ccccc3O)cc2)c(=O)[nH]1

>  <score_type>  (842) 
oracle

>  <origin>  (842) 
adg

>  <m_score__min__energy>  (842) 
-14.08

>  <m_primary>  (842) 
energy

$$$$
6:0
     RDKit          3D

 35 38  0  0  0  0  0  0  0  0999 V2000
   61.3190   30.1380   46.2290 O   0  0  0  0  0  0  0  0  0  0  0  0
   60.4330   29.3710   45.7640 C   0  0  0  0  0  0  0  0  0  0  0  0
   60.6650   27.8910   45.7860 C   0  0  0  0  0  0  0  0  0  0  0  0
   59.3650   27.1680   46.0090 C   0  0  0  0  0  0  0  0  0  0  0  0
   58.4960   26.9310   44.9330 C   0  0  0  0  0  0  0  0  0  0  0  0
   57.2720   26.2840   45.1430 C   0  0  0  0  0  0  0  0  0  0  0  0
   56.9040   25.8620   46.4330 C   0  0  0  0  0  0  0  0  0  0  0  0
   55.6530   25.2080   46.6820 N   0  0  0  0  0  0  0  0  0  0  0  0
   54.9770   24.3110   45.7930 C   0  0  0  0  0  0  0  0  0  0  0  0
   53.7140   24.3230   45.7690 O   0  0  0  0  0  0  0  0  0  0  0  0
   55.7050   23.3410   44.9400 C   0  0  0  0  0  0  0  0  0  0  0  0
   56.9040   22.7740   45.4050 C   0  0  0  0  0  0  0  0  0  0  0  0
   57.5930   21.8520   44.6180 C   0  0  0  0  0  0  0  0  0  0  0  0
   57.0800   21.5030   43.3660 C   0  0  0  0  0  0  0  0  0  0  0  0
   55.9300   22.0710   42.9140 N   0  0  0  0  0  0  0  0  0  0  0  0
   55.2400   22.9770   43.6530 C   0  0  0  0  0  0  0  0  0  0  0  0
   54.1960   23.4950   43.1650 O   0  0  0  0  0  0  0  0  0  0  0  0
   57.7570   26.1260   47.5100 C   0  0  0  0  0  0  0  0  0  0  0  0
   58.9810   26.7750   47.3020 C   0  0  0  0  0  0  0  0  0  0  0  0
   59.2520   29.9030   45.1400 N   0  0  0  0  0  0  0  0  0  0  0  0
   58.8710   31.2870   45.1860 C   0  0  0  0  0  0  0  0  0  0  0  0
   57.8520   31.7440   44.3420 C   0  0  0  0  0  0  0  0  0  0  0  0
   57.4490   33.0800   44.3810 C   0  0  0  0  0  0  0  0  0  0  0  0
   58.0470   33.9670   45.2790 C   0  0  0  0  0  0  0  0  0  0  0  0
   59.0470   33.5200   46.1470 C   0  0  0  0  0  0  0  0  0  0  0  0
   59.7550   34.6440   47.3010 S   0  0  0  0  0  0  0  0  0  0  0  0
   58.9450   34.6080   48.5670 O   0  0  0  0  0  0  0  0  0  0  0  0
   59.7360   36.0450   46.7480 O   0  0  0  0  0  0  0  0  0  0  0  0
   61.4040   34.1690   47.6250 N   0  0  0  0  0  0  0  0  0  0  0  0
   62.0800   33.8410   46.3640 C   0  0  0  0  0  0  0  0  0  0  0  0
   63.4930   33.2990   46.6530 C   0  0  0  0  0  0  0  0  0  0  0  0
   63.5820   32.3160   47.6870 O   0  0  0  0  0  0  0  0  0  0  0  0
   62.3170   31.8770   48.1370 C   0  0  0  0  0  0  0  0  0  0  0  0
   61.4480   33.0580   48.6080 C   0  0  0  0  0  0  0  0  0  0  0  0
   59.4560   32.1810   46.1010 C   0  0  0  0  0  0  0  0  0  0  0  0
  1  2  2  0
  2  3  1  0
  3  4  1  0
  4  5  2  0
  5  6  1  0
  6  7  2  0
  7  8  1  0
  8  9  1  0
  9 10  2  0
  9 11  1  0
 11 12  2  0
 12 13  1  0
 13 14  2  0
 14 15  1  0
 15 16  1  0
 16 17  2  0
  7 18  1  0
 18 19  2  0
  2 20  1  0
 20 21  1  0
 21 22  2  0
 22 23  1  0
 23 24  2  0
 24 25  1  0
 25 26  1  0
 26 27  2  0
 26 28  2  0
 26 29  1  0
 29 30  1  0
 30 31  1  0
 31 32  1  0
 32 33  1  0
 33 34  1  0
 25 35  2  0
 19  4  1  0
 35 21  1  0
 16 11  1  0
 34 29  1  0
M  CHG  2   8  -1  15  -1
M  END
>  <UniqueID>  (843) 
7

>  <SMILES>  (843) 
O=C(Cc1ccc([N-]C(=O)c2ccc[n-]c2=O)cc1)Nc1cccc(S(=O)(=O)N2CCOCC2)c1

>  <Energy>  (843) 
82.97496721333074

>  <Genealogy>  (843) 
O=C(Cc1ccc([N-]C(=O)c2ccc[n-]c2=O)cc1)Nc1cccc(S(=O)(=O)N2CCOCC2)c1 (protonated)
O=C(Cc1ccc([N-]C(=O)c2ccc[n-]c2=O)cc1)Nc1cccc(S(=O)(=O)N2CCOCC2)c1 (3D coordinates assigned)
O=C(Cc1ccc([N-]C(=O)c2ccc[n-]c2=O)cc1)Nc1cccc(S(=O)(=O)N2CCOCC2)c1 (nonaromatic ring conformer: 82.97496721333074 kcal/mol)

>  <smiles>  (843) 
O=C(Cc1ccc(NC(=O)c2ccc[nH]c2=O)cc1)Nc1cccc(S(=O)(=O)N2CCOCC2)c1

>  <score_type>  (843) 
oracle

>  <origin>  (843) 
adg

>  <m_score__min__energy>  (843) 
-14.710000000000001

>  <m_primary>  (843) 
energy

$$$$
33:0
     RDKit          3D

 27 29  0  0  0  0  0  0  0  0999 V2000
   59.5850   36.2690   47.1920 H   0  0  0  0  0  0  0  0  0  0  0  0
   59.3310   35.4070   46.6610 N   0  0  0  0  0  0  0  0  0  0  0  0
   59.2010   34.2410   47.2160 C   0  0  0  0  0  0  0  0  0  0  0  0
   58.6400   33.2310   46.5050 N   0  0  0  0  0  0  0  0  0  0  0  0
   58.4760   31.9950   47.0390 C   0  0  0  0  0  0  0  0  0  0  0  0
   58.8910   31.7490   48.3460 C   0  0  0  0  0  0  0  0  0  0  0  0
   59.4710   32.7450   49.0810 N   0  0  0  0  0  0  0  0  0  0  0  0
   59.8750   32.4640   50.4680 C   0  0  0  0  0  0  0  0  0  0  0  0
   58.9790   33.2270   51.4480 C   0  0  0  0  0  0  0  0  0  0  0  0
   57.9020   32.3290   51.9940 C   0  0  0  0  0  0  0  0  0  0  0  0
   57.0180   31.6740   51.1220 C   0  0  0  0  0  0  0  0  0  0  0  0
   56.0380   30.8150   51.6280 C   0  0  0  0  0  0  0  0  0  0  0  0
   55.9190   30.6090   53.0070 C   0  0  0  0  0  0  0  0  0  0  0  0
   54.9230   29.6940   53.4930 N   0  0  0  0  0  0  0  0  0  0  0  0
   53.6300   29.8590   53.4960 C   0  0  0  0  0  0  0  0  0  0  0  0
   52.8690   30.5210   52.4140 C   0  0  0  0  0  0  0  0  0  0  0  0
   52.8240   29.9840   51.1150 C   0  0  0  0  0  0  0  0  0  0  0  0
   52.0760   30.6150   50.1170 C   0  0  0  0  0  0  0  0  0  0  0  0
   51.3480   31.7720   50.4110 C   0  0  0  0  0  0  0  0  0  0  0  0
   50.6070   32.3950   49.4140 O   0  0  0  0  0  0  0  0  0  0  0  0
   51.3640   32.2960   51.7090 C   0  0  0  0  0  0  0  0  0  0  0  0
   50.6350   33.4410   52.0100 O   0  0  0  0  0  0  0  0  0  0  0  0
   52.1140   31.6660   52.7090 C   0  0  0  0  0  0  0  0  0  0  0  0
   56.8360   31.2260   53.8770 C   0  0  0  0  0  0  0  0  0  0  0  0
   57.8160   32.0860   53.3730 C   0  0  0  0  0  0  0  0  0  0  0  0
   59.6230   33.9990   48.5400 C   0  0  0  0  0  0  0  0  0  0  0  0
   60.1330   34.9310   49.2230 O   0  0  0  0  0  0  0  0  0  0  0  0
  1  2  1  0
  2  3  2  0
  3  4  1  0
  4  5  1  0
  5  6  2  0
  6  7  1  0
  7  8  1  0
  8  9  1  0
  9 10  1  0
 10 11  2  0
 11 12  1  0
 12 13  2  0
 13 14  1  0
 14 15  2  3
 15 16  1  0
 16 17  2  0
 17 18  1  0
 18 19  2  0
 19 20  1  0
 19 21  1  0
 21 22  1  0
 21 23  2  0
 13 24  1  0
 24 25  2  0
  7 26  1  0
 26 27  2  0
 26  3  1  0
 25 10  1  0
 23 16  1  0
M  CHG  3   4  -1  20  -1  22  -1
M  END
>  <UniqueID>  (844) 
31

>  <SMILES>  (844) 
[H]/N=c1/[n-]ccn(CCc2ccc(N=Cc3ccc([O-])c([O-])c3)cc2)c1=O

>  <Energy>  (844) 
57.05047770197887

>  <Genealogy>  (844) 
N=c1[n-]ccn(CCc2ccc(N=Cc3ccc([O-])c([O-])c3)cc2)c1=O (protonated)
[H]/N=c1/[n-]ccn(CCc2ccc(N=Cc3ccc([O-])c([O-])c3)cc2)c1=O (cis-trans isomerization)
[H]/N=c1/[n-]ccn(CCc2ccc(N=Cc3ccc([O-])c([O-])c3)cc2)c1=O (3D coordinates assigned)
[H]/N=c1/[n-]ccn(CCc2ccc(N=Cc3ccc([O-])c([O-])c3)cc2)c1=O (optimized conformer: 57.05047770197887 kcal/mol)

>  <smiles>  (844) 
N=c1[nH]ccn(CCc2ccc(N=Cc3ccc(O)c(O)c3)cc2)c1=O

>  <score_type>  (844) 
oracle

>  <origin>  (844) 
adg

>  <m_score__min__energy>  (844) 
-17.059999999999999

>  <m_primary>  (844) 
energy

$$$$
42:0
     RDKit          3D

 36 39  0  0  0  0  0  0  0  0999 V2000
   57.4920   30.5730   43.1050 O   0  0  0  0  0  0  0  0  0  0  0  0
   56.9100   30.3400   44.1960 C   0  0  0  0  0  0  0  0  0  0  0  0
   56.5620   28.9130   44.5430 C   0  0  0  0  0  0  0  0  0  0  0  0
   57.5620   28.3080   45.4310 N   0  0  0  0  0  0  0  0  0  0  0  0
   58.7910   28.8150   45.6610 C   0  0  0  0  0  0  0  0  0  0  0  0
   59.4980   27.9870   46.5060 C   0  0  0  0  0  0  0  0  0  0  0  0
   58.6630   26.9350   46.8190 C   0  0  0  0  0  0  0  0  0  0  0  0
   57.4710   27.1640   46.1550 C   0  0  0  0  0  0  0  0  0  0  0  0
   56.2900   26.2830   46.2480 C   0  0  0  0  0  0  0  0  0  0  0  0
   55.1390   26.7280   45.9920 O   0  0  0  0  0  0  0  0  0  0  0  0
   56.4560   24.9340   46.7030 N   0  0  0  0  0  0  0  0  0  0  0  0
   56.7950   23.7960   45.8940 C   0  0  0  0  0  0  0  0  0  0  0  0
   58.1370   23.3880   45.7650 C   0  0  0  0  0  0  0  0  0  0  0  0
   58.4690   22.2700   45.0020 C   0  0  0  0  0  0  0  0  0  0  0  0
   57.4710   21.5330   44.3700 C   0  0  0  0  0  0  0  0  0  0  0  0
   56.1330   21.9050   44.5070 C   0  0  0  0  0  0  0  0  0  0  0  0
   55.7720   23.0320   45.2720 C   0  0  0  0  0  0  0  0  0  0  0  0
   54.3300   23.3820   45.3900 C   0  0  0  0  0  0  0  0  0  0  0  0
   53.4330   22.6210   44.9410 O   0  0  0  0  0  0  0  0  0  0  0  0
   53.9470   24.5680   46.0070 O   0  0  0  0  0  0  0  0  0  0  0  0
   56.6440   31.4360   45.0810 N   0  0  0  0  0  0  0  0  0  0  0  0
   57.5820   32.4440   45.4770 C   0  0  0  0  0  0  0  0  0  0  0  0
   57.9530   33.4310   44.5570 C   0  0  0  0  0  0  0  0  0  0  0  0
   58.8700   34.4210   44.9200 C   0  0  0  0  0  0  0  0  0  0  0  0
   59.4110   34.4380   46.2070 C   0  0  0  0  0  0  0  0  0  0  0  0
   59.0280   33.4690   47.1440 C   0  0  0  0  0  0  0  0  0  0  0  0
   59.6940   33.5090   48.7750 S   0  0  0  0  0  0  0  0  0  0  0  0
   59.7380   34.9290   49.2710 O   0  0  0  0  0  0  0  0  0  0  0  0
   58.8000   32.7130   49.6830 O   0  0  0  0  0  0  0  0  0  0  0  0
   61.3000   32.8220   48.7820 N   0  0  0  0  0  0  0  0  0  0  0  0
   61.3820   31.7210   47.8040 C   0  0  0  0  0  0  0  0  0  0  0  0
   62.8440   31.4490   47.4160 C   0  0  0  0  0  0  0  0  0  0  0  0
   63.5080   32.5630   46.8280 O   0  0  0  0  0  0  0  0  0  0  0  0
   62.9150   33.8140   47.1410 C   0  0  0  0  0  0  0  0  0  0  0  0
   62.3270   33.8670   48.5630 C   0  0  0  0  0  0  0  0  0  0  0  0
   58.0970   32.4850   46.7820 C   0  0  0  0  0  0  0  0  0  0  0  0
  1  2  2  0
  2  3  1  0
  3  4  1  0
  4  5  1  0
  5  6  2  0
  6  7  1  0
  7  8  2  0
  8  9  1  0
  9 10  2  0
  9 11  1  0
 11 12  1  0
 12 13  2  0
 13 14  1  0
 14 15  2  0
 15 16  1  0
 16 17  2  0
 17 18  1  0
 18 19  2  0
 18 20  1  0
  2 21  1  0
 21 22  1  0
 22 23  2  0
 23 24  1  0
 24 25  2  0
 25 26  1  0
 26 27  1  0
 27 28  2  0
 27 29  2  0
 27 30  1  0
 30 31  1  0
 31 32  1  0
 32 33  1  0
 33 34  1  0
 34 35  1  0
 26 36  2  0
  8  4  1  0
 17 12  1  0
 36 22  1  0
 35 30  1  0
M  CHG  3  11  -1  20  -1  21  -1
M  END
>  <UniqueID>  (845) 
39

>  <SMILES>  (845) 
O=C(Cn1cccc1C(=O)[N-]c1ccccc1C(=O)[O-])[N-]c1cccc(S(=O)(=O)N2CCOCC2)c1

>  <Energy>  (845) 
107.7986564624515

>  <Genealogy>  (845) 
O=C(Cn1cccc1C(=O)[N-]c1ccccc1C(=O)[O-])[N-]c1cccc(S(=O)(=O)N2CCOCC2)c1 (protonated)
O=C(Cn1cccc1C(=O)[N-]c1ccccc1C(=O)[O-])[N-]c1cccc(S(=O)(=O)N2CCOCC2)c1 (3D coordinates assigned)
O=C(Cn1cccc1C(=O)[N-]c1ccccc1C(=O)[O-])[N-]c1cccc(S(=O)(=O)N2CCOCC2)c1 (nonaromatic ring conformer: 107.7986564624515 kcal/mol)

>  <smiles>  (845) 
O=C(Cn1cccc1C(=O)Nc1ccccc1C(=O)O)Nc1cccc(S(=O)(=O)N2CCOCC2)c1

>  <score_type>  (845) 
oracle

>  <origin>  (845) 
adg

>  <m_score__min__energy>  (845) 
-16.379999999999999

>  <m_primary>  (845) 
energy

$$$$
58:0
     RDKit          3D

 24 26  0  0  0  0  0  0  0  0999 V2000
   59.2210   26.7800   45.5880 C   0  0  0  0  0  0  0  0  0  0  0  0
   58.5030   27.9340   45.5480 N   0  0  0  0  0  0  0  0  0  0  0  0
   57.1450   27.9480   45.6820 C   0  0  0  0  0  0  0  0  0  0  0  0
   56.4740   29.0630   45.6360 N   0  0  0  0  0  0  0  0  0  0  0  0
   55.9340   29.7070   44.4680 C   0  0  0  0  0  0  0  0  0  0  0  0
   54.8010   29.3750   44.0240 O   0  0  0  0  0  0  0  0  0  0  0  0
   56.7190   30.7490   43.7520 C   0  0  0  0  0  0  0  0  0  0  0  0
   56.6130   30.8380   42.3500 C   0  0  0  0  0  0  0  0  0  0  0  0
   57.3390   31.7950   41.6360 C   0  0  0  0  0  0  0  0  0  0  0  0
   58.1870   32.6730   42.3070 C   0  0  0  0  0  0  0  0  0  0  0  0
   58.3010   32.6080   43.6960 C   0  0  0  0  0  0  0  0  0  0  0  0
   57.5550   31.6710   44.4330 C   0  0  0  0  0  0  0  0  0  0  0  0
   57.7000   31.6160   45.8620 N   0  0  0  0  0  0  0  0  0  0  0  0
   58.4480   32.3800   46.6100 C   0  0  0  0  0  0  0  0  0  0  0  0
   58.1320   33.7420   46.7000 C   0  0  0  0  0  0  0  0  0  0  0  0
   58.9190   34.5860   47.4850 C   0  0  0  0  0  0  0  0  0  0  0  0
   59.9950   34.0940   48.1500 N   0  0  0  0  0  0  0  0  0  0  0  0
   60.3480   32.7830   48.0700 C   0  0  0  0  0  0  0  0  0  0  0  0
   61.5380   32.2860   48.8270 C   0  0  0  0  0  0  0  0  0  0  0  0
   59.5800   31.8990   47.3000 C   0  0  0  0  0  0  0  0  0  0  0  0
   56.4610   26.7370   45.8690 C   0  0  0  0  0  0  0  0  0  0  0  0
   55.0780   26.7170   46.0140 O   0  0  0  0  0  0  0  0  0  0  0  0
   57.1810   25.5410   45.9130 C   0  0  0  0  0  0  0  0  0  0  0  0
   58.5700   25.5590   45.7710 C   0  0  0  0  0  0  0  0  0  0  0  0
  1  2  1  0
  2  3  1  0
  3  4  2  0
  4  5  1  0
  5  6  2  0
  5  7  1  0
  7  8  2  0
  8  9  1  0
  9 10  2  0
 10 11  1  0
 11 12  2  0
 12 13  1  0
 13 14  2  3
 14 15  1  0
 15 16  2  0
 16 17  1  0
 17 18  1  0
 18 19  1  0
 18 20  2  0
  3 21  1  0
 21 22  1  0
 21 23  2  0
 23 24  1  0
 24  1  2  0
 12  7  1  0
 20 14  1  0
M  CHG  3   2  -1  17  -1  22  -1
M  END
>  <UniqueID>  (846) 
53

>  <SMILES>  (846) 
Cc1cc(=Nc2ccccc2C(=O)/N=c2\[n-]cccc2[O-])cc[n-]1

>  <Energy>  (846) 
55.737936367132434

>  <Genealogy>  (846) 
Cc1cc(=Nc2ccccc2C(=O)N=c2[n-]cccc2[O-])cc[n-]1 (protonated)
Cc1cc(=Nc2ccccc2C(=O)/N=c2\[n-]cccc2[O-])cc[n-]1 (cis-trans isomerization)
Cc1cc(=Nc2ccccc2C(=O)/N=c2\[n-]cccc2[O-])cc[n-]1 (3D coordinates assigned)
Cc1cc(=Nc2ccccc2C(=O)/N=c2\[n-]cccc2[O-])cc[n-]1 (optimized conformer: 55.737936367132434 kcal/mol)

>  <smiles>  (846) 
Cc1cc(=Nc2ccccc2C(=O)N=c2[nH]cccc2O)cc[nH]1

>  <score_type>  (846) 
oracle

>  <origin>  (846) 
adg

>  <m_score__min__energy>  (846) 
-14.029999999999999

>  <m_primary>  (846) 
energy

$$$$
66:0
     RDKit          3D

 22 23  0  0  0  0  0  0  0  0999 V2000
   58.6370   25.1520   45.9810 C   0  0  0  0  0  0  0  0  0  0  0  0
   58.4330   26.4950   45.9680 N   0  0  0  0  0  0  0  0  0  0  0  0
   57.1810   27.0390   45.9700 C   0  0  0  0  0  0  0  0  0  0  0  0
   57.0020   28.3290   45.9660 N   0  0  0  0  0  0  0  0  0  0  0  0
   56.4530   29.1200   44.8980 C   0  0  0  0  0  0  0  0  0  0  0  0
   55.2080   29.2060   44.7210 O   0  0  0  0  0  0  0  0  0  0  0  0
   57.3820   29.7970   43.9370 C   0  0  0  0  0  0  0  0  0  0  0  0
   56.8980   31.2140   43.6260 C   0  0  0  0  0  0  0  0  0  0  0  0
   56.6470   31.9400   44.8740 N   0  0  0  0  0  0  0  0  0  0  0  0
   57.5490   33.4230   44.9090 S   0  0  0  0  0  0  0  0  0  0  0  0
   56.6000   34.5860   44.8400 O   0  0  0  0  0  0  0  0  0  0  0  0
   58.4790   33.4850   43.7270 O   0  0  0  0  0  0  0  0  0  0  0  0
   58.4520   33.5070   46.4180 C   0  0  0  0  0  0  0  0  0  0  0  0
   58.1810   32.6200   47.4700 C   0  0  0  0  0  0  0  0  0  0  0  0
   58.8740   32.7340   48.6810 C   0  0  0  0  0  0  0  0  0  0  0  0
   59.8360   33.7350   48.8460 C   0  0  0  0  0  0  0  0  0  0  0  0
   60.1150   34.6170   47.7970 C   0  0  0  0  0  0  0  0  0  0  0  0
   59.4290   34.4980   46.5840 C   0  0  0  0  0  0  0  0  0  0  0  0
   56.0640   26.1910   45.9900 C   0  0  0  0  0  0  0  0  0  0  0  0
   54.7760   26.7130   46.0030 O   0  0  0  0  0  0  0  0  0  0  0  0
   56.2540   24.8060   45.9990 C   0  0  0  0  0  0  0  0  0  0  0  0
   57.5470   24.2810   45.9950 C   0  0  0  0  0  0  0  0  0  0  0  0
  1  2  1  0
  2  3  1  0
  3  4  2  0
  4  5  1  0
  5  6  2  0
  5  7  1  0
  7  8  1  0
  8  9  1  0
  9 10  1  0
 10 11  2  0
 10 12  2  0
 10 13  1  0
 13 14  2  0
 14 15  1  0
 15 16  2  0
 16 17  1  0
 17 18  2  0
  3 19  1  0
 19 20  1  0
 19 21  2  0
 21 22  1  0
 22  1  2  0
 18 13  1  0
M  CHG  3   2  -1   9  -1  20  -1
M  END
>  <UniqueID>  (847) 
60

>  <SMILES>  (847) 
O=C(CC[N-]S(=O)(=O)c1ccccc1)/N=c1\[n-]cccc1[O-]

>  <Energy>  (847) 
31.07938982155892

>  <Genealogy>  (847) 
O=C(CC[N-]S(=O)(=O)c1ccccc1)N=c1[n-]cccc1[O-] (protonated)
O=C(CC[N-]S(=O)(=O)c1ccccc1)/N=c1\[n-]cccc1[O-] (cis-trans isomerization)
O=C(CC[N-]S(=O)(=O)c1ccccc1)/N=c1\[n-]cccc1[O-] (3D coordinates assigned)
O=C(CC[N-]S(=O)(=O)c1ccccc1)/N=c1\[n-]cccc1[O-] (optimized conformer: 31.07938982155892 kcal/mol)

>  <smiles>  (847) 
O=C(CCNS(=O)(=O)c1ccccc1)N=c1[nH]cccc1O

>  <score_type>  (847) 
oracle

>  <origin>  (847) 
adg

>  <m_score__min__energy>  (847) 
-14.699999999999999

>  <m_primary>  (847) 
energy

$$$$
67:0
     RDKit          3D

 28 30  0  0  0  0  0  0  0  0999 V2000
   63.7310   33.5280   50.0850 C   0  0  0  0  0  0  0  0  0  0  0  0
   62.9760   33.6180   48.7920 C   0  0  0  0  0  0  0  0  0  0  0  0
   63.6170   33.3300   47.5770 C   0  0  0  0  0  0  0  0  0  0  0  0
   62.9230   33.4490   46.3700 C   0  0  0  0  0  0  0  0  0  0  0  0
   61.5910   33.8710   46.3660 C   0  0  0  0  0  0  0  0  0  0  0  0
   60.9520   34.1870   47.5700 C   0  0  0  0  0  0  0  0  0  0  0  0
   59.2490   34.7480   47.5630 S   0  0  0  0  0  0  0  0  0  0  0  0
   58.6380   33.2150   46.8420 C   0  0  0  0  0  0  0  0  0  0  0  0
   58.0470   33.2600   45.5730 C   0  0  0  0  0  0  0  0  0  0  0  0
   57.5910   32.0900   44.9630 C   0  0  0  0  0  0  0  0  0  0  0  0
   57.7290   30.8570   45.6110 C   0  0  0  0  0  0  0  0  0  0  0  0
   57.1560   29.3820   44.8420 S   0  0  0  0  0  0  0  0  0  0  0  0
   55.4280   29.3590   44.8670 N   0  0  0  0  0  0  0  0  0  0  0  0
   57.6390   29.3270   43.4190 O   0  0  0  0  0  0  0  0  0  0  0  0
   57.6870   28.1850   45.5780 O   0  0  0  0  0  0  0  0  0  0  0  0
   58.3060   30.8060   46.8870 C   0  0  0  0  0  0  0  0  0  0  0  0
   58.7450   31.9790   47.5170 C   0  0  0  0  0  0  0  0  0  0  0  0
   59.3720   31.8740   48.8480 C   0  0  0  0  0  0  0  0  0  0  0  0
   58.7120   31.6070   49.9970 C   0  0  0  0  0  0  0  0  0  0  0  0
   58.5220   32.6860   51.0020 C   0  0  0  0  0  0  0  0  0  0  0  0
   59.0140   33.8320   50.8210 O   0  0  0  0  0  0  0  0  0  0  0  0
   57.7630   32.4410   52.1870 N   0  0  0  0  0  0  0  0  0  0  0  0
   57.1860   31.1630   52.4450 C   0  0  0  0  0  0  0  0  0  0  0  0
   56.5020   30.9800   53.4840 O   0  0  0  0  0  0  0  0  0  0  0  0
   57.3910   30.0880   51.5300 N   0  0  0  0  0  0  0  0  0  0  0  0
   58.1580   30.2640   50.3370 C   0  0  0  0  0  0  0  0  0  0  0  0
   58.3770   29.2590   49.6100 O   0  0  0  0  0  0  0  0  0  0  0  0
   61.6430   34.0570   48.7810 C   0  0  0  0  0  0  0  0  0  0  0  0
  1  2  1  0
  2  3  2  0
  3  4  1  0
  4  5  2  0
  5  6  1  0
  6  7  1  0
  7  8  1  0
  8  9  2  0
  9 10  1  0
 10 11  2  0
 11 12  1  0
 12 13  1  0
 12 14  2  0
 12 15  2  0
 11 16  1  0
 16 17  2  0
 17 18  1  0
 18 19  2  3
 19 20  1  0
 20 21  2  0
 20 22  1  0
 22 23  1  0
 23 24  2  0
 23 25  1  0
 25 26  1  0
 26 27  2  0
  6 28  2  0
 28  2  1  0
 17  8  1  0
 26 19  1  0
M  CHG  3  13  -1  22  -1  25  -1
M  END
>  <UniqueID>  (848) 
61

>  <SMILES>  (848) 
Cc1cccc(Sc2ccc(S([NH-])(=O)=O)cc2C=C2C(=O)[N-]C(=O)[N-]C2=O)c1

>  <Energy>  (848) 
45.305732680006656

>  <Genealogy>  (848) 
Cc1cccc(Sc2ccc(S([NH-])(=O)=O)cc2C=C2C(=O)[N-]C(=O)[N-]C2=O)c1 (protonated)
Cc1cccc(Sc2ccc(S([NH-])(=O)=O)cc2C=C2C(=O)[N-]C(=O)[N-]C2=O)c1 (3D coordinates assigned)
Cc1cccc(Sc2ccc(S([NH-])(=O)=O)cc2C=C2C(=O)[N-]C(=O)[N-]C2=O)c1 (nonaromatic ring conformer: 45.305732680006656 kcal/mol)

>  <smiles>  (848) 
Cc1cccc(Sc2ccc(S(N)(=O)=O)cc2C=C2C(=O)NC(=O)NC2=O)c1

>  <score_type>  (848) 
oracle

>  <origin>  (848) 
adg

>  <m_score__min__energy>  (848) 
-14.91

>  <m_primary>  (848) 
energy

$$$$
83:0
     RDKit          3D

 32 35  0  0  0  0  0  0  0  0999 V2000
   55.1900   30.8350   44.1740 O   0  0  0  0  0  0  0  0  0  0  0  0
   56.0470   30.0860   44.7130 C   0  0  0  0  0  0  0  0  0  0  0  0
   57.4130   30.6430   45.0270 C   0  0  0  0  0  0  0  0  0  0  0  0
   57.4420   32.1790   45.0420 C   0  0  0  0  0  0  0  0  0  0  0  0
   58.6480   32.6880   45.7150 N   0  0  0  0  0  0  0  0  0  0  0  0
   59.3460   31.8210   46.6760 C   0  0  0  0  0  0  0  0  0  0  0  0
   60.8060   32.1840   46.8280 C   0  0  0  0  0  0  0  0  0  0  0  0
   61.7080   31.2450   47.3560 C   0  0  0  0  0  0  0  0  0  0  0  0
   63.0410   31.6000   47.5860 C   0  0  0  0  0  0  0  0  0  0  0  0
   63.4770   32.8990   47.3100 C   0  0  0  0  0  0  0  0  0  0  0  0
   62.5830   33.8450   46.7990 C   0  0  0  0  0  0  0  0  0  0  0  0
   61.2500   33.4930   46.5570 C   0  0  0  0  0  0  0  0  0  0  0  0
   60.3520   34.4570   46.0110 N   0  0  0  0  0  0  0  0  0  0  0  0
   59.0530   34.0630   45.5790 C   0  0  0  0  0  0  0  0  0  0  0  0
   58.2880   34.9180   45.0570 O   0  0  0  0  0  0  0  0  0  0  0  0
   55.7320   28.6960   44.8750 N   0  0  0  0  0  0  0  0  0  0  0  0
   56.4900   27.7360   45.6190 C   0  0  0  0  0  0  0  0  0  0  0  0
   57.8710   27.9210   45.7520 C   0  0  0  0  0  0  0  0  0  0  0  0
   58.6510   26.9930   46.4590 C   0  0  0  0  0  0  0  0  0  0  0  0
   60.3920   27.2430   46.6320 S   0  0  0  0  0  0  0  0  0  0  0  0
   61.1030   25.9390   46.3980 O   0  0  0  0  0  0  0  0  0  0  0  0
   60.8560   28.2200   45.5880 O   0  0  0  0  0  0  0  0  0  0  0  0
   60.8080   27.8470   48.2180 N   0  0  0  0  0  0  0  0  0  0  0  0
   59.9150   28.9520   48.6000 C   0  0  0  0  0  0  0  0  0  0  0  0
   60.2310   29.4270   50.0330 C   0  0  0  0  0  0  0  0  0  0  0  0
   61.3040   28.7000   50.6040 O   0  0  0  0  0  0  0  0  0  0  0  0
   60.9820   27.3230   50.6340 C   0  0  0  0  0  0  0  0  0  0  0  0
   60.7360   26.7660   49.2150 C   0  0  0  0  0  0  0  0  0  0  0  0
   58.0400   25.8670   47.0230 C   0  0  0  0  0  0  0  0  0  0  0  0
   56.6680   25.6580   46.8640 C   0  0  0  0  0  0  0  0  0  0  0  0
   55.8930   26.5780   46.1510 C   0  0  0  0  0  0  0  0  0  0  0  0
   54.5420   26.3240   45.9520 O   0  0  0  0  0  0  0  0  0  0  0  0
  1  2  2  0
  2  3  1  0
  3  4  1  0
  4  5  1  0
  5  6  1  0
  6  7  1  0
  7  8  2  0
  8  9  1  0
  9 10  2  0
 10 11  1  0
 11 12  2  0
 12 13  1  0
 13 14  1  0
 14 15  2  0
  2 16  1  0
 16 17  1  0
 17 18  2  0
 18 19  1  0
 19 20  1  0
 20 21  2  0
 20 22  2  0
 20 23  1  0
 23 24  1  0
 24 25  1  0
 25 26  1  0
 26 27  1  0
 27 28  1  0
 19 29  2  0
 29 30  1  0
 30 31  2  0
 31 32  1  0
 14  5  1  0
 31 17  1  0
 12  7  1  0
 28 23  1  0
M  CHG  3  13  -1  16  -1  32  -1
M  END
>  <UniqueID>  (849) 
74

>  <SMILES>  (849) 
O=C(CCN1Cc2ccccc2[N-]C1=O)[N-]c1cc(S(=O)(=O)N2CCOCC2)ccc1[O-]

>  <Energy>  (849) 
70.2588066921398

>  <Genealogy>  (849) 
O=C(CCN1Cc2ccccc2[N-]C1=O)[N-]c1cc(S(=O)(=O)N2CCOCC2)ccc1[O-] (protonated)
O=C(CCN1Cc2ccccc2[N-]C1=O)[N-]c1cc(S(=O)(=O)N2CCOCC2)ccc1[O-] (3D coordinates assigned)
O=C(CCN1Cc2ccccc2[N-]C1=O)[N-]c1cc(S(=O)(=O)N2CCOCC2)ccc1[O-] (nonaromatic ring conformer: 70.2588066921398 kcal/mol)

>  <smiles>  (849) 
O=C(CCN1Cc2ccccc2NC1=O)Nc1cc(S(=O)(=O)N2CCOCC2)ccc1O

>  <score_type>  (849) 
oracle

>  <origin>  (849) 
adg

>  <m_score__min__energy>  (849) 
-16.370000000000001

>  <m_primary>  (849) 
energy

$$$$
86:0
     RDKit          3D

 23 24  0  0  0  0  0  0  0  0999 V2000
   57.8010   32.8080   44.3370 C   0  0  0  0  0  0  0  0  0  0  0  0
   57.6720   31.9210   43.0990 C   0  0  0  0  0  0  0  0  0  0  0  0
   57.3290   30.4600   43.4480 C   0  0  0  0  0  0  0  0  0  0  0  0
   58.0900   29.9280   44.6710 C   0  0  0  0  0  0  0  0  0  0  0  0
   57.5250   28.6680   45.1520 N   0  0  0  0  0  0  0  0  0  0  0  0
   58.2230   27.6080   45.6180 C   0  0  0  0  0  0  0  0  0  0  0  0
   57.3470   26.6020   46.0090 C   0  0  0  0  0  0  0  0  0  0  0  0
   57.6680   25.3180   46.6630 C   0  0  0  0  0  0  0  0  0  0  0  0
   58.8310   24.8520   46.5330 O   0  0  0  0  0  0  0  0  0  0  0  0
   56.7270   24.5800   47.4580 N   0  0  0  0  0  0  0  0  0  0  0  0
   56.9230   23.2810   48.0960 C   0  0  0  0  0  0  0  0  0  0  0  0
   56.1490   22.1790   47.3610 C   0  0  0  0  0  0  0  0  0  0  0  0
   56.1030   22.4470   45.8760 C   0  0  0  0  0  0  0  0  0  0  0  0
   56.9860   21.7700   45.0170 C   0  0  0  0  0  0  0  0  0  0  0  0
   56.9650   22.0160   43.6420 C   0  0  0  0  0  0  0  0  0  0  0  0
   56.0700   22.9460   43.1110 C   0  0  0  0  0  0  0  0  0  0  0  0
   55.1960   23.6360   43.9550 C   0  0  0  0  0  0  0  0  0  0  0  0
   55.2110   23.3960   45.3370 C   0  0  0  0  0  0  0  0  0  0  0  0
   54.3490   24.1030   46.1740 O   0  0  0  0  0  0  0  0  0  0  0  0
   56.0750   27.0980   45.7830 C   0  0  0  0  0  0  0  0  0  0  0  0
   54.8730   26.4520   46.0450 O   0  0  0  0  0  0  0  0  0  0  0  0
   56.2180   28.3560   45.2540 C   0  0  0  0  0  0  0  0  0  0  0  0
   55.1770   29.1980   44.8830 O   0  0  0  0  0  0  0  0  0  0  0  0
  1  2  1  0
  2  3  1  0
  3  4  1  0
  4  5  1  0
  5  6  1  0
  6  7  2  0
  7  8  1  0
  8  9  2  0
  8 10  1  0
 10 11  1  0
 11 12  1  0
 12 13  1  0
 13 14  2  0
 14 15  1  0
 15 16  2  0
 16 17  1  0
 17 18  2  0
 18 19  1  0
  7 20  1  0
 20 21  1  0
 20 22  2  0
 22 23  1  0
 22  5  1  0
 18 13  1  0
M  CHG  3  10  -1  21  -1  23  -1
M  END
>  <UniqueID>  (850) 
77

>  <SMILES>  (850) 
CCCCn1cc(C(=O)[N-]CCc2ccccc2O)c([O-])c1[O-]

>  <Energy>  (850) 
64.8328358186673

>  <Genealogy>  (850) 
CCCCn1cc(C(=O)[N-]CCc2ccccc2O)c([O-])c1[O-] (protonated)
CCCCn1cc(C(=O)[N-]CCc2ccccc2O)c([O-])c1[O-] (3D coordinates assigned)
CCCCn1cc(C(=O)[N-]CCc2ccccc2O)c([O-])c1[O-] (optimized conformer: 64.8328358186673 kcal/mol)

>  <smiles>  (850) 
CCCCn1cc(C(=O)NCCc2ccccc2O)c(O)c1O

>  <score_type>  (850) 
oracle

>  <origin>  (850) 
adg

>  <m_score__min__energy>  (850) 
-14.58

>  <m_primary>  (850) 
energy

$$$$
90:0
     RDKit          3D

 24 26  0  0  0  0  0  0  0  0999 V2000
   54.7390   29.7110   43.3770 O   0  0  0  0  0  0  0  0  0  0  0  0
   55.8710   29.7230   43.9340 C   0  0  0  0  0  0  0  0  0  0  0  0
   57.0570   30.2570   43.1960 C   0  0  0  0  0  0  0  0  0  0  0  0
   57.5200   31.4880   43.8260 N   0  0  0  0  0  0  0  0  0  0  0  0
   57.6190   31.7250   45.1450 C   0  0  0  0  0  0  0  0  0  0  0  0
   57.9660   33.0530   45.2650 C   0  0  0  0  0  0  0  0  0  0  0  0
   58.1340   33.8260   46.5380 C   0  0  0  0  0  0  0  0  0  0  0  0
   59.3100   34.8090   46.4600 C   0  0  0  0  0  0  0  0  0  0  0  0
   60.5440   34.2680   47.1370 C   0  0  0  0  0  0  0  0  0  0  0  0
   61.6460   33.8530   46.3710 C   0  0  0  0  0  0  0  0  0  0  0  0
   62.8010   33.3770   46.9990 C   0  0  0  0  0  0  0  0  0  0  0  0
   62.8640   33.3110   48.3930 C   0  0  0  0  0  0  0  0  0  0  0  0
   61.7730   33.7230   49.1620 C   0  0  0  0  0  0  0  0  0  0  0  0
   60.6170   34.2050   48.5390 C   0  0  0  0  0  0  0  0  0  0  0  0
   58.0520   33.5860   44.0290 N   0  0  0  0  0  0  0  0  0  0  0  0
   57.7720   32.6120   43.1750 N   0  0  0  0  0  0  0  0  0  0  0  0
   56.0450   29.1630   45.2400 N   0  0  0  0  0  0  0  0  0  0  0  0
   56.7920   27.9780   45.5510 C   0  0  0  0  0  0  0  0  0  0  0  0
   58.1900   28.0610   45.5830 C   0  0  0  0  0  0  0  0  0  0  0  0
   58.9600   26.9390   45.9010 C   0  0  0  0  0  0  0  0  0  0  0  0
   58.3370   25.7280   46.2090 C   0  0  0  0  0  0  0  0  0  0  0  0
   56.9420   25.6420   46.2150 C   0  0  0  0  0  0  0  0  0  0  0  0
   56.1650   26.7650   45.9060 C   0  0  0  0  0  0  0  0  0  0  0  0
   54.7810   26.6710   45.9950 O   0  0  0  0  0  0  0  0  0  0  0  0
  1  2  2  0
  2  3  1  0
  3  4  1  0
  4  5  1  0
  5  6  2  0
  6  7  1  0
  7  8  1  0
  8  9  1  0
  9 10  2  0
 10 11  1  0
 11 12  2  0
 12 13  1  0
 13 14  2  0
  6 15  1  0
 15 16  2  0
  2 17  1  0
 17 18  1  0
 18 19  2  0
 19 20  1  0
 20 21  2  0
 21 22  1  0
 22 23  2  0
 23 24  1  0
 16  4  1  0
 23 18  1  0
 14  9  1  0
M  CHG  2  17  -1  24  -1
M  END
>  <UniqueID>  (851) 
81

>  <SMILES>  (851) 
O=C(Cn1cc(CCc2ccccc2)nn1)[N-]c1ccccc1[O-]

>  <Energy>  (851) 
74.08090170410914

>  <Genealogy>  (851) 
O=C(Cn1cc(CCc2ccccc2)nn1)[N-]c1ccccc1[O-] (protonated)
O=C(Cn1cc(CCc2ccccc2)nn1)[N-]c1ccccc1[O-] (3D coordinates assigned)
O=C(Cn1cc(CCc2ccccc2)nn1)[N-]c1ccccc1[O-] (optimized conformer: 74.08090170410914 kcal/mol)

>  <smiles>  (851) 
O=C(Cn1cc(CCc2ccccc2)nn1)Nc1ccccc1O

>  <score_type>  (851) 
oracle

>  <origin>  (851) 
adg

>  <m_score__min__energy>  (851) 
-15.17

>  <m_primary>  (851) 
energy

$$$$
91:0
     RDKit          3D

 21 22  0  0  0  0  0  0  0  0999 V2000
   56.9970   29.0620   43.2090 O   0  0  0  0  0  0  0  0  0  0  0  0
   56.3850   29.5440   44.2000 C   0  0  0  0  0  0  0  0  0  0  0  0
   56.2580   31.0270   44.3420 C   0  0  0  0  0  0  0  0  0  0  0  0
   57.6520   31.8790   43.5250 S   0  0  0  0  0  0  0  0  0  0  0  0
   58.1180   32.8310   44.9700 C   0  0  0  0  0  0  0  0  0  0  0  0
   58.7800   34.0090   44.8250 N   0  0  0  0  0  0  0  0  0  0  0  0
   59.1260   34.7520   45.9070 C   0  0  0  0  0  0  0  0  0  0  0  0
   59.7380   35.8410   45.7500 O   0  0  0  0  0  0  0  0  0  0  0  0
   58.8020   34.3060   47.1900 C   0  0  0  0  0  0  0  0  0  0  0  0
   58.1260   33.0890   47.3210 C   0  0  0  0  0  0  0  0  0  0  0  0
   57.7790   32.5990   48.5770 O   0  0  0  0  0  0  0  0  0  0  0  0
   57.8000   32.3770   46.2100 N   0  0  0  0  0  0  0  0  0  0  0  0
   55.8980   28.6940   45.2440 N   0  0  0  0  0  0  0  0  0  0  0  0
   56.5320   27.4960   45.7130 C   0  0  0  0  0  0  0  0  0  0  0  0
   57.9220   27.5020   45.8900 C   0  0  0  0  0  0  0  0  0  0  0  0
   58.5830   26.3560   46.3440 C   0  0  0  0  0  0  0  0  0  0  0  0
   60.3270   26.3680   46.5360 Cl  0  0  0  0  0  0  0  0  0  0  0  0
   57.8540   25.2020   46.6430 C   0  0  0  0  0  0  0  0  0  0  0  0
   56.4640   25.1980   46.5050 C   0  0  0  0  0  0  0  0  0  0  0  0
   55.7960   26.3430   46.0560 C   0  0  0  0  0  0  0  0  0  0  0  0
   54.4070   26.3340   45.9890 O   0  0  0  0  0  0  0  0  0  0  0  0
  1  2  2  0
  2  3  1  0
  3  4  1  0
  4  5  1  0
  5  6  2  0
  6  7  1  0
  7  8  2  0
  7  9  1  0
  9 10  2  0
 10 11  1  0
 10 12  1  0
  2 13  1  0
 13 14  1  0
 14 15  2  0
 15 16  1  0
 16 17  1  0
 16 18  2  0
 18 19  1  0
 19 20  2  0
 20 21  1  0
 12  5  1  0
 20 14  1  0
M  CHG  3  12  -1  13  -1  21  -1
M  END
>  <UniqueID>  (852) 
82

>  <SMILES>  (852) 
O=C(CSc1nc(=O)cc(O)[n-]1)[N-]c1cc(Cl)ccc1[O-]

>  <Energy>  (852) 
28.918145937942793

>  <Genealogy>  (852) 
O=C(CSc1nc(=O)cc(O)[n-]1)[N-]c1cc(Cl)ccc1[O-] (protonated)
O=C(CSc1nc(=O)cc(O)[n-]1)[N-]c1cc(Cl)ccc1[O-] (3D coordinates assigned)
O=C(CSc1nc(=O)cc(O)[n-]1)[N-]c1cc(Cl)ccc1[O-] (optimized conformer: 28.918145937942793 kcal/mol)

>  <smiles>  (852) 
O=C(CSc1nc(=O)cc(O)[nH]1)Nc1cc(Cl)ccc1O

>  <score_type>  (852) 
oracle

>  <origin>  (852) 
adg

>  <m_score__min__energy>  (852) 
-14.029999999999999

>  <m_primary>  (852) 
energy

$$$$
6:0
     RDKit          3D

 29 32  0  0  0  0  0  0  0  0999 V2000
   55.1870   26.7420   45.9760 O   0  0  0  0  0  0  0  0  0  0  0  0
   55.0140   25.4070   45.6180 C   0  0  0  0  0  0  0  0  0  0  0  0
   53.8260   24.7840   45.6600 N   0  0  0  0  0  0  0  0  0  0  0  0
   54.1370   23.5180   45.3100 C   0  0  0  0  0  0  0  0  0  0  0  0
   53.2770   22.6030   45.2360 O   0  0  0  0  0  0  0  0  0  0  0  0
   55.4460   23.3080   45.0530 N   0  0  0  0  0  0  0  0  0  0  0  0
   55.9980   24.5210   45.2290 C   0  0  0  0  0  0  0  0  0  0  0  0
   57.4420   24.7760   45.0930 C   0  0  0  0  0  0  0  0  0  0  0  0
   58.0900   25.7580   45.7520 C   0  0  0  0  0  0  0  0  0  0  0  0
   58.7530   25.6330   46.9660 C   0  0  0  0  0  0  0  0  0  0  0  0
   59.2300   26.8870   47.2860 C   0  0  0  0  0  0  0  0  0  0  0  0
   60.0130   27.2090   48.5230 C   0  0  0  0  0  0  0  0  0  0  0  0
   58.9000   27.7780   46.3250 N   0  0  0  0  0  0  0  0  0  0  0  0
   59.2230   29.1800   46.3320 C   0  0  0  0  0  0  0  0  0  0  0  0
   58.2340   30.1340   46.0540 C   0  0  0  0  0  0  0  0  0  0  0  0
   58.5420   31.4970   46.0780 C   0  0  0  0  0  0  0  0  0  0  0  0
   59.8470   31.9230   46.3760 C   0  0  0  0  0  0  0  0  0  0  0  0
   60.1690   33.3900   46.4450 C   0  0  0  0  0  0  0  0  0  0  0  0
   61.1570   33.6530   47.5480 C   0  0  0  0  0  0  0  0  0  0  0  0
   62.5380   33.5890   47.2920 C   0  0  0  0  0  0  0  0  0  0  0  0
   63.4560   33.7960   48.3260 C   0  0  0  0  0  0  0  0  0  0  0  0
   63.0040   34.0600   49.6230 C   0  0  0  0  0  0  0  0  0  0  0  0
   63.9180   34.2650   50.6500 O   0  0  0  0  0  0  0  0  0  0  0  0
   61.6320   34.1140   49.8870 C   0  0  0  0  0  0  0  0  0  0  0  0
   60.7110   33.9070   48.8560 C   0  0  0  0  0  0  0  0  0  0  0  0
   60.8320   30.9660   46.6670 C   0  0  0  0  0  0  0  0  0  0  0  0
   60.5220   29.6040   46.6420 C   0  0  0  0  0  0  0  0  0  0  0  0
   58.1960   27.1020   45.3820 C   0  0  0  0  0  0  0  0  0  0  0  0
   57.7240   27.6560   44.2540 C   0  0  0  0  0  0  0  0  0  0  0  0
  1  2  1  0
  2  3  1  0
  3  4  1  0
  4  5  2  0
  4  6  1  0
  6  7  1  0
  7  8  1  0
  8  9  2  0
  9 10  1  0
 10 11  2  0
 11 12  1  0
 11 13  1  0
 13 14  1  0
 14 15  2  0
 15 16  1  0
 16 17  2  0
 17 18  1  0
 18 19  1  0
 19 20  2  0
 20 21  1  0
 21 22  2  0
 22 23  1  0
 22 24  1  0
 24 25  2  0
 17 26  1  0
 26 27  2  0
 13 28  1  0
 28 29  2  0
  7  2  2  0
 28  9  1  0
 27 14  1  0
 25 19  1  0
M  CHG  3   3  -1   6  -1  23  -1
M  END
>  <UniqueID>  (853) 
7

>  <SMILES>  (853) 
C=c1/c(=C/c2[n-]c(=O)[n-]c2O)cc(C)n1-c1ccc(Cc2ccc([O-])cc2)cc1

>  <Energy>  (853) 
120.56935202410475

>  <Genealogy>  (853) 
C=c1c(=Cc2[n-]c(=O)[n-]c2O)cc(C)n1-c1ccc(Cc2ccc([O-])cc2)cc1 (protonated)
C=c1/c(=C/c2[n-]c(=O)[n-]c2O)cc(C)n1-c1ccc(Cc2ccc([O-])cc2)cc1 (cis-trans isomerization)
C=c1/c(=C/c2[n-]c(=O)[n-]c2O)cc(C)n1-c1ccc(Cc2ccc([O-])cc2)cc1 (3D coordinates assigned)
C=c1/c(=C/c2[n-]c(=O)[n-]c2O)cc(C)n1-c1ccc(Cc2ccc([O-])cc2)cc1 (optimized conformer: 120.56935202410475 kcal/mol)

>  <smiles>  (853) 
C=c1c(=Cc2[nH]c(=O)[nH]c2O)cc(C)n1-c1ccc(Cc2ccc(O)cc2)cc1

>  <score_type>  (853) 
oracle

>  <origin>  (853) 
adg

>  <m_score__min__energy>  (853) 
-14.210000000000001

>  <m_primary>  (853) 
energy

$$$$
24:0
     RDKit          3D

 24 26  0  0  0  0  0  0  0  0999 V2000
   56.6430   34.3610   44.5820 O   0  0  0  0  0  0  0  0  0  0  0  0
   57.4500   33.4330   44.8570 C   0  0  0  0  0  0  0  0  0  0  0  0
   57.5890   32.3430   43.9370 N   0  0  0  0  0  0  0  0  0  0  0  0
   56.7080   31.1810   43.8630 C   0  0  0  0  0  0  0  0  0  0  0  0
   57.3260   30.0000   44.5710 C   0  0  0  0  0  0  0  0  0  0  0  0
   58.7180   29.9410   44.7540 C   0  0  0  0  0  0  0  0  0  0  0  0
   59.3030   28.8410   45.3860 C   0  0  0  0  0  0  0  0  0  0  0  0
   58.5030   27.7900   45.8430 C   0  0  0  0  0  0  0  0  0  0  0  0
   57.1180   27.8400   45.6700 C   0  0  0  0  0  0  0  0  0  0  0  0
   56.5260   28.9390   45.0370 C   0  0  0  0  0  0  0  0  0  0  0  0
   55.1450   28.9700   44.8730 O   0  0  0  0  0  0  0  0  0  0  0  0
   58.2400   33.5170   46.0980 C   0  0  0  0  0  0  0  0  0  0  0  0
   57.9390   32.6960   47.1940 C   0  0  0  0  0  0  0  0  0  0  0  0
   58.6820   32.7960   48.3750 C   0  0  0  0  0  0  0  0  0  0  0  0
   59.7400   33.7150   48.4750 C   0  0  0  0  0  0  0  0  0  0  0  0
   60.5540   33.8340   49.7470 C   0  0  0  0  0  0  0  0  0  0  0  0
   61.8720   33.1640   49.6820 N   0  0  0  0  0  0  0  0  0  0  0  0
   62.9830   34.0620   49.2970 C   0  0  0  0  0  0  0  0  0  0  0  0
   64.2640   33.2550   49.0560 C   0  0  0  0  0  0  0  0  0  0  0  0
   64.1070   32.2610   47.9740 N   0  0  0  0  0  0  0  0  0  0  0  0
   62.7110   31.8670   47.7100 C   0  0  0  0  0  0  0  0  0  0  0  0
   61.8680   31.8530   48.9920 C   0  0  0  0  0  0  0  0  0  0  0  0
   60.0270   34.5460   47.3780 C   0  0  0  0  0  0  0  0  0  0  0  0
   59.2780   34.4520   46.2030 C   0  0  0  0  0  0  0  0  0  0  0  0
  1  2  2  0
  2  3  1  0
  3  4  1  0
  4  5  1  0
  5  6  2  0
  6  7  1  0
  7  8  2  0
  8  9  1  0
  9 10  2  0
 10 11  1  0
  2 12  1  0
 12 13  2  0
 13 14  1  0
 14 15  2  0
 15 16  1  0
 16 17  1  0
 17 18  1  0
 18 19  1  0
 19 20  1  0
 20 21  1  0
 21 22  1  0
 15 23  1  0
 23 24  2  0
 10  5  1  0
 24 12  1  0
 22 17  1  0
M  CHG  2   3  -1  11  -1
M  END
>  <UniqueID>  (854) 
24

>  <SMILES>  (854) 
O=C([N-]Cc1ccccc1[O-])c1ccc(CN2CCNCC2)cc1

>  <Energy>  (854) 
60.22255837283208

>  <Genealogy>  (854) 
O=C([N-]Cc1ccccc1[O-])c1ccc(CN2CCNCC2)cc1 (protonated)
O=C([N-]Cc1ccccc1[O-])c1ccc(CN2CCNCC2)cc1 (3D coordinates assigned)
O=C([N-]Cc1ccccc1[O-])c1ccc(CN2CCNCC2)cc1 (nonaromatic ring conformer: 60.22255837283208 kcal/mol)

>  <smiles>  (854) 
O=C(NCc1ccccc1O)c1ccc(CN2CCNCC2)cc1

>  <score_type>  (854) 
oracle

>  <origin>  (854) 
adg

>  <m_score__min__energy>  (854) 
-14.130000000000001

>  <m_primary>  (854) 
energy

$$$$
25:0
     RDKit          3D

 25 29  0  0  0  0  0  0  0  0999 V2000
   57.7450   27.6180   45.9460 C   0  0  0  0  0  0  0  0  0  0  0  0
   57.1950   26.3010   46.3110 C   0  0  0  0  0  0  0  0  0  0  0  0
   57.9480   25.2950   46.7900 N   0  0  0  0  0  0  0  0  0  0  0  0
   57.0450   24.3280   47.0590 C   0  0  0  0  0  0  0  0  0  0  0  0
   57.3740   23.2050   47.5200 O   0  0  0  0  0  0  0  0  0  0  0  0
   55.7620   24.6620   46.8040 N   0  0  0  0  0  0  0  0  0  0  0  0
   55.8710   25.9180   46.3430 C   0  0  0  0  0  0  0  0  0  0  0  0
   54.7790   26.7100   46.0090 O   0  0  0  0  0  0  0  0  0  0  0  0
   58.7160   28.2400   46.6300 C   0  0  0  0  0  0  0  0  0  0  0  0
   59.7140   27.6930   47.4450 C   0  0  0  0  0  0  0  0  0  0  0  0
   60.4520   28.6970   47.9730 N   0  0  0  0  0  0  0  0  0  0  0  0
   59.9580   29.8410   47.5320 N   0  0  0  0  0  0  0  0  0  0  0  0
   60.3650   31.1040   47.8040 C   0  0  0  0  0  0  0  0  0  0  0  0
   61.3810   31.3200   48.5850 N   0  0  0  0  0  0  0  0  0  0  0  0
   62.1970   32.5280   48.5260 C   0  0  0  0  0  0  0  0  0  0  0  0
   63.6220   32.2550   48.0870 C   0  0  0  0  0  0  0  0  0  0  0  0
   62.6380   32.8980   47.1220 C   0  0  0  0  0  0  0  0  0  0  0  0
   59.6790   32.1360   47.2310 N   0  0  0  0  0  0  0  0  0  0  0  0
   58.6120   31.8940   46.4090 C   0  0  0  0  0  0  0  0  0  0  0  0
   57.8760   33.0550   45.7920 C   0  0  0  0  0  0  0  0  0  0  0  0
   58.3440   34.4190   46.2940 C   0  0  0  0  0  0  0  0  0  0  0  0
   58.8250   34.7680   44.8920 C   0  0  0  0  0  0  0  0  0  0  0  0
   58.3550   33.4100   44.3860 C   0  0  0  0  0  0  0  0  0  0  0  0
   58.2210   30.6080   46.1540 N   0  0  0  0  0  0  0  0  0  0  0  0
   58.9170   29.6020   46.7320 C   0  0  0  0  0  0  0  0  0  0  0  0
  1  2  1  0
  2  3  1  0
  3  4  1  0
  4  5  2  0
  4  6  1  0
  6  7  1  0
  7  8  1  0
  1  9  2  3
  9 10  1  0
 10 11  2  0
 11 12  1  0
 12 13  1  0
 13 14  2  0
 14 15  1  0
 15 16  1  0
 16 17  1  0
 13 18  1  0
 18 19  2  0
 19 20  1  0
 20 21  1  0
 21 22  1  0
 22 23  1  0
 19 24  1  0
 24 25  2  0
  7  2  2  0
 25  9  1  0
 25 12  1  0
 17 15  1  0
 23 20  1  0
M  CHG  4   3  -1   6  -1   8  -1  11   1
M  END
>  <UniqueID>  (855) 
25

>  <SMILES>  (855) 
O=c1[n-]c([O-])c(C=c2c[nH+]n3/c(=N/C4CC4)nc(C4CCC4)nc23)[n-]1

>  <Energy>  (855) 
442.54492573218766

>  <Genealogy>  (855) 
O=c1[n-]c([O-])c(C=c2c[nH+]n3c(=NC4CC4)nc(C4CCC4)nc23)[n-]1 (protonated)
O=c1[n-]c([O-])c(C=c2c[nH+]n3/c(=N/C4CC4)nc(C4CCC4)nc23)[n-]1 (cis-trans isomerization)
O=c1[n-]c([O-])c(C=c2c[nH+]n3/c(=N/C4CC4)nc(C4CCC4)nc23)[n-]1 (3D coordinates assigned)
O=c1[n-]c([O-])c(C=c2c[nH+]n3/c(=N/C4CC4)nc(C4CCC4)nc23)[n-]1 (nonaromatic ring conformer: 442.54492573218766 kcal/mol)

>  <smiles>  (855) 
O=c1[nH]c(O)c(C=c2cnn3c(=NC4CC4)nc(C4CCC4)nc23)[nH]1

>  <score_type>  (855) 
oracle

>  <origin>  (855) 
adg

>  <m_score__min__energy>  (855) 
-14.75

>  <m_primary>  (855) 
energy

$$$$
32:0
     RDKit          3D

 32 35  0  0  0  0  0  0  0  0999 V2000
   54.5330   26.2010   45.9070 O   0  0  0  0  0  0  0  0  0  0  0  0
   54.2930   24.8320   45.7740 C   0  0  0  0  0  0  0  0  0  0  0  0
   53.0420   24.4210   45.4450 N   0  0  0  0  0  0  0  0  0  0  0  0
   52.7460   23.1050   45.2960 C   0  0  0  0  0  0  0  0  0  0  0  0
   51.5780   22.7550   44.9860 O   0  0  0  0  0  0  0  0  0  0  0  0
   53.7070   22.1670   45.4850 N   0  0  0  0  0  0  0  0  0  0  0  0
   54.9740   22.5180   45.8180 C   0  0  0  0  0  0  0  0  0  0  0  0
   55.8330   21.6170   46.0150 O   0  0  0  0  0  0  0  0  0  0  0  0
   55.3130   23.8770   45.9590 C   0  0  0  0  0  0  0  0  0  0  0  0
   56.6790   24.2910   46.3540 C   0  0  0  0  0  0  0  0  0  0  0  0
   57.4050   25.1950   45.6660 C   0  0  0  0  0  0  0  0  0  0  0  0
   57.2650   25.4940   44.3210 C   0  0  0  0  0  0  0  0  0  0  0  0
   58.1770   26.4900   44.0400 C   0  0  0  0  0  0  0  0  0  0  0  0
   58.3020   27.1570   42.7040 C   0  0  0  0  0  0  0  0  0  0  0  0
   58.8720   26.8310   45.1520 N   0  0  0  0  0  0  0  0  0  0  0  0
   59.8790   27.9030   45.2300 C   0  0  0  0  0  0  0  0  0  0  0  0
   59.2100   29.2460   45.3840 C   0  0  0  0  0  0  0  0  0  0  0  0
   59.1250   29.8540   46.6440 C   0  0  0  0  0  0  0  0  0  0  0  0
   58.4800   31.0850   46.7910 C   0  0  0  0  0  0  0  0  0  0  0  0
   57.9050   31.7290   45.6840 C   0  0  0  0  0  0  0  0  0  0  0  0
   57.2320   32.9880   45.8750 N   0  0  0  0  0  0  0  0  0  0  0  0
   57.9110   34.2820   45.9580 C   0  0  0  0  0  0  0  0  0  0  0  0
   59.2260   34.1480   46.6810 C   0  0  0  0  0  0  0  0  0  0  0  0
   59.2740   34.2510   48.0810 C   0  0  0  0  0  0  0  0  0  0  0  0
   60.4930   34.1300   48.7550 C   0  0  0  0  0  0  0  0  0  0  0  0
   61.6700   33.8990   48.0380 C   0  0  0  0  0  0  0  0  0  0  0  0
   61.6290   33.7840   46.6460 C   0  0  0  0  0  0  0  0  0  0  0  0
   60.4120   33.9050   45.9680 C   0  0  0  0  0  0  0  0  0  0  0  0
   58.0070   31.1240   44.4170 C   0  0  0  0  0  0  0  0  0  0  0  0
   58.6530   29.8940   44.2700 C   0  0  0  0  0  0  0  0  0  0  0  0
   58.4020   26.0430   46.1600 C   0  0  0  0  0  0  0  0  0  0  0  0
   58.8370   26.0870   47.4300 C   0  0  0  0  0  0  0  0  0  0  0  0
  1  2  1  0
  2  3  1  0
  3  4  1  0
  4  5  2  0
  4  6  1  0
  6  7  1  0
  7  8  2  0
  7  9  1  0
  9 10  1  0
 10 11  2  0
 11 12  1  0
 12 13  2  0
 13 14  1  0
 13 15  1  0
 15 16  1  0
 16 17  1  0
 17 18  2  0
 18 19  1  0
 19 20  2  0
 20 21  1  0
 21 22  1  0
 22 23  1  0
 23 24  2  0
 24 25  1  0
 25 26  2  0
 26 27  1  0
 27 28  2  0
 20 29  1  0
 29 30  2  0
 15 31  1  0
 31 32  2  0
  9  2  2  0
 31 11  1  0
 30 17  1  0
 28 23  1  0
M  CHG  2   3  -1   6  -1
M  END
>  <UniqueID>  (856) 
32

>  <SMILES>  (856) 
C=c1/c(=C/c2c(O)[n-]c(=O)[n-]c2=O)cc(C)n1Cc1ccc(NCc2ccccc2)cc1

>  <Energy>  (856) 
96.22613664912166

>  <Genealogy>  (856) 
C=c1c(=Cc2c(O)[n-]c(=O)[n-]c2=O)cc(C)n1Cc1ccc(NCc2ccccc2)cc1 (protonated)
C=c1/c(=C/c2c(O)[n-]c(=O)[n-]c2=O)cc(C)n1Cc1ccc(NCc2ccccc2)cc1 (cis-trans isomerization)
C=c1/c(=C/c2c(O)[n-]c(=O)[n-]c2=O)cc(C)n1Cc1ccc(NCc2ccccc2)cc1 (3D coordinates assigned)
C=c1/c(=C/c2c(O)[n-]c(=O)[n-]c2=O)cc(C)n1Cc1ccc(NCc2ccccc2)cc1 (optimized conformer: 96.22613664912166 kcal/mol)

>  <smiles>  (856) 
C=c1c(=Cc2c(O)[nH]c(=O)[nH]c2=O)cc(C)n1Cc1ccc(NCc2ccccc2)cc1

>  <score_type>  (856) 
oracle

>  <origin>  (856) 
adg

>  <m_score__min__energy>  (856) 
-14.289999999999999

>  <m_primary>  (856) 
energy

$$$$
57:0
     RDKit          3D

 29 31  0  0  0  0  0  0  0  0999 V2000
   60.3590   32.7800   51.3640 C   0  0  0  0  0  0  0  0  0  0  0  0
   58.9320   32.3180   51.5160 C   0  0  0  0  0  0  0  0  0  0  0  0
   58.0220   33.1620   52.1760 C   0  0  0  0  0  0  0  0  0  0  0  0
   56.6980   32.7720   52.3730 C   0  0  0  0  0  0  0  0  0  0  0  0
   56.2470   31.5330   51.8990 C   0  0  0  0  0  0  0  0  0  0  0  0
   54.8940   31.0970   52.1150 N   0  0  0  0  0  0  0  0  0  0  0  0
   54.5270   29.7450   52.4390 C   0  0  0  0  0  0  0  0  0  0  0  0
   55.4000   28.9130   52.8060 O   0  0  0  0  0  0  0  0  0  0  0  0
   53.0970   29.3120   52.3350 C   0  0  0  0  0  0  0  0  0  0  0  0
   52.3420   30.2440   51.4250 C   0  0  0  0  0  0  0  0  0  0  0  0
   52.0730   29.8730   50.1000 C   0  0  0  0  0  0  0  0  0  0  0  0
   51.4220   30.7280   49.2700 N   0  0  0  0  0  0  0  0  0  0  0  0
   51.0290   31.9550   49.6990 C   0  0  0  0  0  0  0  0  0  0  0  0
   50.4250   32.7310   48.9140 O   0  0  0  0  0  0  0  0  0  0  0  0
   51.2890   32.3450   50.9730 N   0  0  0  0  0  0  0  0  0  0  0  0
   51.9370   31.5260   51.8410 C   0  0  0  0  0  0  0  0  0  0  0  0
   52.1700   31.9260   53.0130 O   0  0  0  0  0  0  0  0  0  0  0  0
   57.1480   30.6800   51.2520 C   0  0  0  0  0  0  0  0  0  0  0  0
   58.4860   31.0580   51.0320 C   0  0  0  0  0  0  0  0  0  0  0  0
   59.3760   30.1160   50.3030 C   0  0  0  0  0  0  0  0  0  0  0  0
   59.7060   29.0190   50.8300 O   0  0  0  0  0  0  0  0  0  0  0  0
   59.8830   30.4850   49.0080 N   0  0  0  0  0  0  0  0  0  0  0  0
   59.3340   31.2980   48.1500 C   0  0  0  0  0  0  0  0  0  0  0  0
   59.4260   32.6800   48.3630 C   0  0  0  0  0  0  0  0  0  0  0  0
   58.8400   33.5570   47.4490 C   0  0  0  0  0  0  0  0  0  0  0  0
   58.1690   33.0530   46.3330 C   0  0  0  0  0  0  0  0  0  0  0  0
   57.4290   34.1430   45.1750 Cl  0  0  0  0  0  0  0  0  0  0  0  0
   58.0940   31.6710   46.1500 C   0  0  0  0  0  0  0  0  0  0  0  0
   58.6720   30.8320   47.0530 N   0  0  0  0  0  0  0  0  0  0  0  0
  1  2  1  0
  2  3  2  0
  3  4  1  0
  4  5  2  0
  5  6  1  0
  6  7  1  0
  7  8  2  0
  7  9  1  0
  9 10  1  0
 10 11  2  0
 11 12  1  0
 12 13  1  0
 13 14  2  0
 13 15  1  0
 15 16  1  0
 16 17  2  0
  5 18  1  0
 18 19  2  0
 19 20  1  0
 20 21  2  0
 20 22  1  0
 22 23  2  3
 23 24  1  0
 24 25  2  0
 25 26  1  0
 26 27  1  0
 26 28  2  0
 28 29  1  0
 19  2  1  0
 29 23  1  0
 16 10  1  0
M  CHG  3  12  -1  15  -1  29  -1
M  END
>  <UniqueID>  (857) 
56

>  <SMILES>  (857) 
Cc1ccc(NC(=O)Cc2c[n-]c(=O)[n-]c2=O)cc1C(=O)N=c1ccc(Cl)c[n-]1

>  <Energy>  (857) 
56.13231716477634

>  <Genealogy>  (857) 
Cc1ccc(NC(=O)Cc2c[n-]c(=O)[n-]c2=O)cc1C(=O)N=c1ccc(Cl)c[n-]1 (protonated)
Cc1ccc(NC(=O)Cc2c[n-]c(=O)[n-]c2=O)cc1C(=O)N=c1ccc(Cl)c[n-]1 (3D coordinates assigned)
Cc1ccc(NC(=O)Cc2c[n-]c(=O)[n-]c2=O)cc1C(=O)N=c1ccc(Cl)c[n-]1 (optimized conformer: 56.13231716477634 kcal/mol)

>  <smiles>  (857) 
Cc1ccc(NC(=O)Cc2c[nH]c(=O)[nH]c2=O)cc1C(=O)N=c1ccc(Cl)c[nH]1

>  <score_type>  (857) 
oracle

>  <origin>  (857) 
adg

>  <m_score__min__energy>  (857) 
-14.57

>  <m_primary>  (857) 
energy

$$$$
67:0
     RDKit          3D

 25 26  0  0  0  0  0  0  0  0999 V2000
   57.1520   22.5030   44.1250 C   0  0  0  0  0  0  0  0  0  0  0  0
   56.0180   23.3380   44.6420 C   0  0  0  0  0  0  0  0  0  0  0  0
   54.7590   22.8450   44.5060 N   0  0  0  0  0  0  0  0  0  0  0  0
   53.6750   23.5260   44.9510 C   0  0  0  0  0  0  0  0  0  0  0  0
   52.5240   23.0390   44.8080 O   0  0  0  0  0  0  0  0  0  0  0  0
   53.8320   24.7290   45.5530 N   0  0  0  0  0  0  0  0  0  0  0  0
   55.0620   25.2780   45.7160 C   0  0  0  0  0  0  0  0  0  0  0  0
   55.1610   26.3930   46.2940 O   0  0  0  0  0  0  0  0  0  0  0  0
   56.2070   24.6050   45.2470 C   0  0  0  0  0  0  0  0  0  0  0  0
   57.8060   25.3530   45.4880 S   0  0  0  0  0  0  0  0  0  0  0  0
   58.8640   24.3150   45.2400 O   0  0  0  0  0  0  0  0  0  0  0  0
   57.9890   25.8650   46.8900 O   0  0  0  0  0  0  0  0  0  0  0  0
   58.0250   26.6560   44.3580 N   0  0  0  0  0  0  0  0  0  0  0  0
   57.6990   27.9300   45.0010 C   0  0  0  0  0  0  0  0  0  0  0  0
   57.3130   28.9660   43.9440 C   0  0  0  0  0  0  0  0  0  0  0  0
   56.2170   29.8470   44.4550 C   0  0  0  0  0  0  0  0  0  0  0  0
   55.1470   29.3300   44.8750 O   0  0  0  0  0  0  0  0  0  0  0  0
   56.3970   31.2680   44.4540 N   0  0  0  0  0  0  0  0  0  0  0  0
   57.3410   32.0080   45.2420 C   0  0  0  0  0  0  0  0  0  0  0  0
   58.2650   31.3700   46.0920 C   0  0  0  0  0  0  0  0  0  0  0  0
   59.1850   32.1280   46.8240 C   0  0  0  0  0  0  0  0  0  0  0  0
   59.2000   33.5220   46.7060 C   0  0  0  0  0  0  0  0  0  0  0  0
   60.3560   34.4690   47.6230 Cl  0  0  0  0  0  0  0  0  0  0  0  0
   58.3000   34.1570   45.8450 C   0  0  0  0  0  0  0  0  0  0  0  0
   57.3800   33.4020   45.1110 C   0  0  0  0  0  0  0  0  0  0  0  0
  1  2  1  0
  2  3  1  0
  3  4  1  0
  4  5  2  0
  4  6  1  0
  6  7  1  0
  7  8  2  0
  7  9  1  0
  9 10  1  0
 10 11  2  0
 10 12  2  0
 10 13  1  0
 13 14  1  0
 14 15  1  0
 15 16  1  0
 16 17  2  0
 16 18  1  0
 18 19  1  0
 19 20  2  0
 20 21  1  0
 21 22  2  0
 22 23  1  0
 22 24  1  0
 24 25  2  0
  9  2  2  0
 25 19  1  0
M  CHG  3   3  -1   6  -1  18  -1
M  END
>  <UniqueID>  (858) 
65

>  <SMILES>  (858) 
Cc1[n-]c(=O)[n-]c(=O)c1S(=O)(=O)NCCC(=O)[N-]c1ccc(Cl)cc1

>  <Energy>  (858) 
38.97107516174912

>  <Genealogy>  (858) 
Cc1[n-]c(=O)[n-]c(=O)c1S(=O)(=O)NCCC(=O)[N-]c1ccc(Cl)cc1 (protonated)
Cc1[n-]c(=O)[n-]c(=O)c1S(=O)(=O)NCCC(=O)[N-]c1ccc(Cl)cc1 (3D coordinates assigned)
Cc1[n-]c(=O)[n-]c(=O)c1S(=O)(=O)NCCC(=O)[N-]c1ccc(Cl)cc1 (optimized conformer: 38.97107516174912 kcal/mol)

>  <smiles>  (858) 
Cc1[nH]c(=O)[nH]c(=O)c1S(=O)(=O)NCCC(=O)Nc1ccc(Cl)cc1

>  <score_type>  (858) 
oracle

>  <origin>  (858) 
adg

>  <m_score__min__energy>  (858) 
-14.65

>  <m_primary>  (858) 
energy

$$$$
79:0
     RDKit          3D

 23 25  0  0  0  0  0  0  0  0999 V2000
   57.0960   20.8850   47.3790 O   0  0  0  0  0  0  0  0  0  0  0  0
   56.7350   22.0630   47.1190 C   0  0  0  0  0  0  0  0  0  0  0  0
   57.6610   23.0700   47.1290 N   0  0  0  0  0  0  0  0  0  0  0  0
   57.2530   24.3300   46.8470 C   0  0  0  0  0  0  0  0  0  0  0  0
   58.0400   25.4230   46.8170 N   0  0  0  0  0  0  0  0  0  0  0  0
   57.1930   26.4320   46.4880 C   0  0  0  0  0  0  0  0  0  0  0  0
   57.6260   27.8600   46.3490 C   0  0  0  0  0  0  0  0  0  0  0  0
   56.9340   28.5260   45.1860 C   0  0  0  0  0  0  0  0  0  0  0  0
   56.6390   29.7840   45.1490 N   0  0  0  0  0  0  0  0  0  0  0  0
   56.5870   30.5880   43.9440 C   0  0  0  0  0  0  0  0  0  0  0  0
   57.9460   31.2400   43.6880 C   0  0  0  0  0  0  0  0  0  0  0  0
   58.2740   32.2620   44.7470 C   0  0  0  0  0  0  0  0  0  0  0  0
   58.7510   31.8500   46.0020 C   0  0  0  0  0  0  0  0  0  0  0  0
   59.0850   32.7980   46.9750 C   0  0  0  0  0  0  0  0  0  0  0  0
   58.9540   34.1620   46.6980 C   0  0  0  0  0  0  0  0  0  0  0  0
   58.4910   34.5790   45.4470 C   0  0  0  0  0  0  0  0  0  0  0  0
   58.1550   33.6350   44.4710 C   0  0  0  0  0  0  0  0  0  0  0  0
   55.8950   25.9610   46.3260 C   0  0  0  0  0  0  0  0  0  0  0  0
   54.7690   26.7070   45.9950 O   0  0  0  0  0  0  0  0  0  0  0  0
   55.9520   24.6140   46.5550 C   0  0  0  0  0  0  0  0  0  0  0  0
   55.0030   23.5990   46.5420 C   0  0  0  0  0  0  0  0  0  0  0  0
   53.7960   23.8380   46.2760 O   0  0  0  0  0  0  0  0  0  0  0  0
   55.4180   22.3290   46.8280 N   0  0  0  0  0  0  0  0  0  0  0  0
  1  2  2  0
  2  3  1  0
  3  4  1  0
  4  5  1  0
  5  6  1  0
  6  7  1  0
  7  8  1  0
  8  9  2  3
  9 10  1  0
 10 11  1  0
 11 12  1  0
 12 13  2  0
 13 14  1  0
 14 15  2  0
 15 16  1  0
 16 17  2  0
  6 18  2  0
 18 19  1  0
 18 20  1  0
 20 21  1  0
 21 22  2  0
 21 23  1  0
 23  2  1  0
 20  4  2  0
 17 12  1  0
M  CHG  3   3  -1   5  -1  19  -1
M  END
>  <UniqueID>  (859) 
77

>  <SMILES>  (859) 
O=c1[n-]c2[n-]c(CC=NCCc3ccccc3)c([O-])c2c(=O)[nH]1

>  <Energy>  (859) 
70.76028913140527

>  <Genealogy>  (859) 
O=c1[n-]c2[n-]c(CC=NCCc3ccccc3)c([O-])c2c(=O)[nH]1 (protonated)
O=c1[n-]c2[n-]c(CC=NCCc3ccccc3)c([O-])c2c(=O)[nH]1 (3D coordinates assigned)
O=c1[n-]c2[n-]c(CC=NCCc3ccccc3)c([O-])c2c(=O)[nH]1 (optimized conformer: 70.76028913140527 kcal/mol)

>  <smiles>  (859) 
O=c1[nH]c(=O)c2c(O)c(CC=NCCc3ccccc3)[nH]c2[nH]1

>  <score_type>  (859) 
oracle

>  <origin>  (859) 
adg

>  <m_score__min__energy>  (859) 
-14.49

>  <m_primary>  (859) 
energy

$$$$
80:0
     RDKit          3D

 28 31  0  0  0  0  0  0  0  0999 V2000
   55.1920   29.3330   44.7410 O   0  0  0  0  0  0  0  0  0  0  0  0
   56.2560   28.9010   45.2540 C   0  0  0  0  0  0  0  0  0  0  0  0
   57.3380   29.8220   45.4400 N   0  0  0  0  0  0  0  0  0  0  0  0
   57.3650   31.2100   44.9920 C   0  0  0  0  0  0  0  0  0  0  0  0
   58.3640   31.9640   45.8030 C   0  0  0  0  0  0  0  0  0  0  0  0
   59.6050   31.4780   46.0770 N   0  0  0  0  0  0  0  0  0  0  0  0
   60.1130   32.4210   46.8830 C   0  0  0  0  0  0  0  0  0  0  0  0
   61.3720   32.4450   47.4810 C   0  0  0  0  0  0  0  0  0  0  0  0
   61.6820   33.5410   48.3080 C   0  0  0  0  0  0  0  0  0  0  0  0
   60.7360   34.5700   48.5140 C   0  0  0  0  0  0  0  0  0  0  0  0
   59.4720   34.5100   47.8940 C   0  0  0  0  0  0  0  0  0  0  0  0
   59.2000   33.4120   47.0820 C   0  0  0  0  0  0  0  0  0  0  0  0
   58.0700   33.1430   46.4110 N   0  0  0  0  0  0  0  0  0  0  0  0
   56.3610   27.4700   45.6220 C   0  0  0  0  0  0  0  0  0  0  0  0
   55.3040   26.7140   45.9720 N   0  0  0  0  0  0  0  0  0  0  0  0
   55.8450   25.5120   46.2480 C   0  0  0  0  0  0  0  0  0  0  0  0
   55.1570   24.5240   46.6120 O   0  0  0  0  0  0  0  0  0  0  0  0
   57.1800   25.4510   46.0940 N   0  0  0  0  0  0  0  0  0  0  0  0
   57.5120   26.6960   45.7020 C   0  0  0  0  0  0  0  0  0  0  0  0
   58.9160   27.0930   45.3460 C   0  0  0  0  0  0  0  0  0  0  0  0
   59.8370   27.0190   46.5360 C   0  0  0  0  0  0  0  0  0  0  0  0
   60.6750   26.0790   46.5790 O   0  0  0  0  0  0  0  0  0  0  0  0
   59.7850   27.9740   47.6220 N   0  0  0  0  0  0  0  0  0  0  0  0
   58.5540   28.7350   47.8820 C   0  0  0  0  0  0  0  0  0  0  0  0
   58.8150   29.9070   48.8300 C   0  0  0  0  0  0  0  0  0  0  0  0
   59.5180   29.4790   49.9790 O   0  0  0  0  0  0  0  0  0  0  0  0
   60.8170   29.0780   49.6000 C   0  0  0  0  0  0  0  0  0  0  0  0
   60.7690   27.8320   48.7070 C   0  0  0  0  0  0  0  0  0  0  0  0
  1  2  2  0
  2  3  1  0
  3  4  1  0
  4  5  1  0
  5  6  2  0
  6  7  1  0
  7  8  2  0
  8  9  1  0
  9 10  2  0
 10 11  1  0
 11 12  2  0
 12 13  1  0
  2 14  1  0
 14 15  1  0
 15 16  1  0
 16 17  2  0
 16 18  1  0
 18 19  1  0
 19 20  1  0
 20 21  1  0
 21 22  2  0
 21 23  1  0
 23 24  1  0
 24 25  1  0
 25 26  1  0
 26 27  1  0
 27 28  1  0
 13  5  1  0
 19 14  2  0
 28 23  1  0
 12  7  1  0
M  CHG  4   3  -1  13  -1  15  -1  18  -1
M  END
>  <UniqueID>  (860) 
78

>  <SMILES>  (860) 
O=C([N-]Cc1nc2ccccc2[n-]1)c1[n-]c(=O)[n-]c1CC(=O)N1CCOCC1

>  <Energy>  (860) 
111.91148771303078

>  <Genealogy>  (860) 
O=C([N-]Cc1nc2ccccc2[n-]1)c1[n-]c(=O)[n-]c1CC(=O)N1CCOCC1 (protonated)
O=C([N-]Cc1nc2ccccc2[n-]1)c1[n-]c(=O)[n-]c1CC(=O)N1CCOCC1 (3D coordinates assigned)
O=C([N-]Cc1nc2ccccc2[n-]1)c1[n-]c(=O)[n-]c1CC(=O)N1CCOCC1 (nonaromatic ring conformer: 111.91148771303078 kcal/mol)

>  <smiles>  (860) 
O=C(NCc1nc2ccccc2[nH]1)c1[nH]c(=O)[nH]c1CC(=O)N1CCOCC1

>  <score_type>  (860) 
oracle

>  <origin>  (860) 
adg

>  <m_score__min__energy>  (860) 
-14.57

>  <m_primary>  (860) 
energy

$$$$
29:0
     RDKit          3D

 32 35  0  0  0  0  0  0  0  0999 V2000
   58.9930   25.8120   45.7050 C   0  0  0  0  0  0  0  0  0  0  0  0
   58.5880   27.1040   45.8210 N   0  0  0  0  0  0  0  0  0  0  0  0
   57.2760   27.4590   45.8990 C   0  0  0  0  0  0  0  0  0  0  0  0
   56.9970   28.7300   45.9960 N   0  0  0  0  0  0  0  0  0  0  0  0
   56.3360   29.5670   45.0360 C   0  0  0  0  0  0  0  0  0  0  0  0
   55.1310   29.3270   44.7560 O   0  0  0  0  0  0  0  0  0  0  0  0
   57.0150   30.7390   44.4240 C   0  0  0  0  0  0  0  0  0  0  0  0
   57.5770   31.7260   45.2560 C   0  0  0  0  0  0  0  0  0  0  0  0
   58.2170   32.8460   44.7070 C   0  0  0  0  0  0  0  0  0  0  0  0
   58.9170   34.0730   45.7670 S   0  0  0  0  0  0  0  0  0  0  0  0
   59.6570   35.0850   44.9370 O   0  0  0  0  0  0  0  0  0  0  0  0
   57.8080   34.7860   46.4910 O   0  0  0  0  0  0  0  0  0  0  0  0
   60.0100   33.3640   46.9320 N   0  0  0  0  0  0  0  0  0  0  0  0
   59.3390   33.2090   48.2360 C   0  0  0  0  0  0  0  0  0  0  0  0
   60.3670   32.8250   49.3110 C   0  0  0  0  0  0  0  0  0  0  0  0
   61.3950   31.9360   48.7530 N   0  0  0  0  0  0  0  0  0  0  0  0
   62.6570   31.7740   49.4300 C   0  0  0  0  0  0  0  0  0  0  0  0
   62.7920   30.8460   50.4770 C   0  0  0  0  0  0  0  0  0  0  0  0
   64.0150   30.7000   51.1400 C   0  0  0  0  0  0  0  0  0  0  0  0
   65.1100   31.4830   50.7690 C   0  0  0  0  0  0  0  0  0  0  0  0
   64.9840   32.4160   49.7370 C   0  0  0  0  0  0  0  0  0  0  0  0
   63.7640   32.5640   49.0710 C   0  0  0  0  0  0  0  0  0  0  0  0
   61.0800   31.1610   47.5460 C   0  0  0  0  0  0  0  0  0  0  0  0
   60.5410   32.0770   46.4260 C   0  0  0  0  0  0  0  0  0  0  0  0
   58.2990   32.9830   43.3170 C   0  0  0  0  0  0  0  0  0  0  0  0
   57.7560   32.0050   42.4830 C   0  0  0  0  0  0  0  0  0  0  0  0
   57.1190   30.8860   43.0260 C   0  0  0  0  0  0  0  0  0  0  0  0
   56.6380   29.9410   42.1810 F   0  0  0  0  0  0  0  0  0  0  0  0
   56.2910   26.4360   45.8900 C   0  0  0  0  0  0  0  0  0  0  0  0
   54.9370   26.7040   46.0430 O   0  0  0  0  0  0  0  0  0  0  0  0
   56.6960   25.1040   45.7580 C   0  0  0  0  0  0  0  0  0  0  0  0
   58.0490   24.7880   45.6630 C   0  0  0  0  0  0  0  0  0  0  0  0
  1  2  1  0
  2  3  1  0
  3  4  2  0
  4  5  1  0
  5  6  2  0
  5  7  1  0
  7  8  2  0
  8  9  1  0
  9 10  1  0
 10 11  2  0
 10 12  2  0
 10 13  1  0
 13 14  1  0
 14 15  1  0
 15 16  1  0
 16 17  1  0
 17 18  2  0
 18 19  1  0
 19 20  2  0
 20 21  1  0
 21 22  2  0
 16 23  1  0
 23 24  1  0
  9 25  2  0
 25 26  1  0
 26 27  2  0
 27 28  1  0
  3 29  1  0
 29 30  1  0
 29 31  2  0
 31 32  1  0
 32  1  2  0
 27  7  1  0
 24 13  1  0
 22 17  1  0
M  CHG  3   2  -1  13   1  30  -1
M  END
>  <UniqueID>  (861) 
30

>  <SMILES>  (861) 
O=C(/N=c1/[n-]cccc1[O-])c1cc(S(=O)(=O)[NH+]2CCN(c3ccccc3)CC2)ccc1F

>  <Energy>  (861) 
79.78990229915999

>  <Genealogy>  (861) 
O=C(N=c1[n-]cccc1[O-])c1cc(S(=O)(=O)[NH+]2CCN(c3ccccc3)CC2)ccc1F (protonated)
O=C(/N=c1/[n-]cccc1[O-])c1cc(S(=O)(=O)[NH+]2CCN(c3ccccc3)CC2)ccc1F (cis-trans isomerization)
O=C(/N=c1/[n-]cccc1[O-])c1cc(S(=O)(=O)[NH+]2CCN(c3ccccc3)CC2)ccc1F (3D coordinates assigned)
O=C(/N=c1/[n-]cccc1[O-])c1cc(S(=O)(=O)[NH+]2CCN(c3ccccc3)CC2)ccc1F (nonaromatic ring conformer: 79.78990229915999 kcal/mol)

>  <smiles>  (861) 
O=C(N=c1[nH]cccc1O)c1cc(S(=O)(=O)N2CCN(c3ccccc3)CC2)ccc1F

>  <score_type>  (861) 
oracle

>  <origin>  (861) 
adg

>  <m_score__min__energy>  (861) 
-14.27

>  <m_primary>  (861) 
energy

$$$$
34:0
     RDKit          3D

 28 30  0  0  0  0  0  0  0  0999 V2000
   57.7770   27.8320   44.8000 O   0  0  0  0  0  0  0  0  0  0  0  0
   56.6200   27.8200   45.2980 C   0  0  0  0  0  0  0  0  0  0  0  0
   56.1950   26.6720   46.1570 C   0  0  0  0  0  0  0  0  0  0  0  0
   54.8000   26.3350   45.8890 N   0  0  0  0  0  0  0  0  0  0  0  0
   54.3390   24.9980   45.6800 C   0  0  0  0  0  0  0  0  0  0  0  0
   53.1770   24.7890   45.2360 O   0  0  0  0  0  0  0  0  0  0  0  0
   55.2270   23.9070   45.9420 N   0  0  0  0  0  0  0  0  0  0  0  0
   55.8430   23.0550   44.9640 C   0  0  0  0  0  0  0  0  0  0  0  0
   55.6550   23.3460   43.6060 C   0  0  0  0  0  0  0  0  0  0  0  0
   56.2560   22.5530   42.6230 C   0  0  0  0  0  0  0  0  0  0  0  0
   57.0650   21.4740   42.9910 C   0  0  0  0  0  0  0  0  0  0  0  0
   57.2730   21.1880   44.3420 C   0  0  0  0  0  0  0  0  0  0  0  0
   56.6710   21.9760   45.3280 C   0  0  0  0  0  0  0  0  0  0  0  0
   55.6950   28.8780   45.0160 N   0  0  0  0  0  0  0  0  0  0  0  0
   56.0080   30.0150   44.1580 C   0  0  0  0  0  0  0  0  0  0  0  0
   57.0250   30.8950   44.8140 C   0  0  0  0  0  0  0  0  0  0  0  0
   57.3780   32.1650   44.4070 C   0  0  0  0  0  0  0  0  0  0  0  0
   58.2760   32.5730   45.3730 C   0  0  0  0  0  0  0  0  0  0  0  0
   58.9690   33.8690   45.4650 C   0  0  0  0  0  0  0  0  0  0  0  0
   58.5050   34.8430   44.8180 O   0  0  0  0  0  0  0  0  0  0  0  0
   60.1270   34.0780   46.2860 N   0  0  0  0  0  0  0  0  0  0  0  0
   60.4790   33.3360   47.5010 C   0  0  0  0  0  0  0  0  0  0  0  0
   61.2880   32.1020   47.1260 C   0  0  0  0  0  0  0  0  0  0  0  0
   62.7510   32.5310   47.1310 C   0  0  0  0  0  0  0  0  0  0  0  0
   62.8220   33.8600   47.8810 C   0  0  0  0  0  0  0  0  0  0  0  0
   61.4160   34.1520   48.3860 C   0  0  0  0  0  0  0  0  0  0  0  0
   58.3980   31.6160   46.2670 O   0  0  0  0  0  0  0  0  0  0  0  0
   57.6580   30.5900   45.9620 N   0  0  0  0  0  0  0  0  0  0  0  0
  1  2  2  0
  2  3  1  0
  3  4  1  0
  4  5  1  0
  5  6  2  0
  5  7  1  0
  7  8  1  0
  8  9  2  0
  9 10  1  0
 10 11  2  0
 11 12  1  0
 12 13  2  0
  2 14  1  0
 14 15  1  0
 15 16  1  0
 16 17  1  0
 17 18  2  0
 18 19  1  0
 19 20  2  0
 19 21  1  0
 21 22  1  0
 22 23  1  0
 23 24  1  0
 24 25  1  0
 25 26  1  0
 18 27  1  0
 27 28  1  0
 13  8  1  0
 28 16  2  0
 26 22  1  0
M  CHG  4   4  -1   7  -1  14  -1  21  -1
M  END
>  <UniqueID>  (862) 
35

>  <SMILES>  (862) 
O=C(C[N-]C(=O)[N-]c1ccccc1)[N-]Cc1cc(C(=O)[N-]C2CCCC2)on1

>  <Energy>  (862) 
78.31823191105595

>  <Genealogy>  (862) 
O=C(C[N-]C(=O)[N-]c1ccccc1)[N-]Cc1cc(C(=O)[N-]C2CCCC2)on1 (protonated)
O=C(C[N-]C(=O)[N-]c1ccccc1)[N-]Cc1cc(C(=O)[N-]C2CCCC2)on1 (3D coordinates assigned)
O=C(C[N-]C(=O)[N-]c1ccccc1)[N-]Cc1cc(C(=O)[N-]C2CCCC2)on1 (nonaromatic ring conformer: 78.31823191105595 kcal/mol)

>  <smiles>  (862) 
O=C(CNC(=O)Nc1ccccc1)NCc1cc(C(=O)NC2CCCC2)on1

>  <score_type>  (862) 
oracle

>  <origin>  (862) 
adg

>  <m_score__min__energy>  (862) 
-15.470000000000001

>  <m_primary>  (862) 
energy

$$$$
38:0
     RDKit          3D

 26 28  0  0  0  0  0  0  0  0999 V2000
   56.3610   27.2630   45.9460 O   0  0  0  0  0  0  0  0  0  0  0  0
   56.6000   26.0400   46.1260 C   0  0  0  0  0  0  0  0  0  0  0  0
   57.7650   25.6710   46.8760 N   0  0  0  0  0  0  0  0  0  0  0  0
   59.0940   26.2410   46.6940 C   0  0  0  0  0  0  0  0  0  0  0  0
   59.1260   27.6210   47.2860 C   0  0  0  0  0  0  0  0  0  0  0  0
   59.6220   27.8210   48.5830 C   0  0  0  0  0  0  0  0  0  0  0  0
   59.6780   29.1080   49.1220 C   0  0  0  0  0  0  0  0  0  0  0  0
   59.2560   30.2050   48.3680 C   0  0  0  0  0  0  0  0  0  0  0  0
   58.7850   30.0270   47.0560 C   0  0  0  0  0  0  0  0  0  0  0  0
   58.3360   31.1880   46.2530 C   0  0  0  0  0  0  0  0  0  0  0  0
   57.3920   31.0380   45.4290 O   0  0  0  0  0  0  0  0  0  0  0  0
   58.9370   32.4850   46.4090 N   0  0  0  0  0  0  0  0  0  0  0  0
   60.3980   32.6370   46.3800 C   0  0  0  0  0  0  0  0  0  0  0  0
   60.8750   33.6320   47.4530 C   0  0  0  0  0  0  0  0  0  0  0  0
   59.8690   34.7660   47.7370 C   0  0  0  0  0  0  0  0  0  0  0  0
   58.8770   34.9650   46.5880 C   0  0  0  0  0  0  0  0  0  0  0  0
   58.0770   33.6760   46.3510 C   0  0  0  0  0  0  0  0  0  0  0  0
   58.7160   28.7270   46.5250 C   0  0  0  0  0  0  0  0  0  0  0  0
   55.7010   25.0440   45.5170 C   0  0  0  0  0  0  0  0  0  0  0  0
   56.1680   24.1160   44.5790 C   0  0  0  0  0  0  0  0  0  0  0  0
   55.2700   23.1820   44.0580 C   0  0  0  0  0  0  0  0  0  0  0  0
   55.6560   22.3380   43.2090 O   0  0  0  0  0  0  0  0  0  0  0  0
   53.9780   23.1800   44.4760 N   0  0  0  0  0  0  0  0  0  0  0  0
   53.5440   24.0720   45.4030 C   0  0  0  0  0  0  0  0  0  0  0  0
   52.3450   24.0480   45.7850 O   0  0  0  0  0  0  0  0  0  0  0  0
   54.4030   24.9880   45.9200 N   0  0  0  0  0  0  0  0  0  0  0  0
  1  2  2  0
  2  3  1  0
  3  4  1  0
  4  5  1  0
  5  6  2  0
  6  7  1  0
  7  8  2  0
  8  9  1  0
  9 10  1  0
 10 11  2  0
 10 12  1  0
 12 13  1  0
 13 14  1  0
 14 15  1  0
 15 16  1  0
 16 17  1  0
  9 18  2  0
  2 19  1  0
 19 20  2  0
 20 21  1  0
 21 22  2  0
 21 23  1  0
 23 24  1  0
 24 25  2  0
 24 26  1  0
 18  5  1  0
 26 19  1  0
 17 12  1  0
M  CHG  3   3  -1  23  -1  26  -1
M  END
>  <UniqueID>  (863) 
39

>  <SMILES>  (863) 
O=C([N-]Cc1cccc(C(=O)N2CCCCC2)c1)c1cc(=O)[n-]c(=O)[n-]1

>  <Energy>  (863) 
54.074046860116795

>  <Genealogy>  (863) 
O=C([N-]Cc1cccc(C(=O)N2CCCCC2)c1)c1cc(=O)[n-]c(=O)[n-]1 (protonated)
O=C([N-]Cc1cccc(C(=O)N2CCCCC2)c1)c1cc(=O)[n-]c(=O)[n-]1 (3D coordinates assigned)
O=C([N-]Cc1cccc(C(=O)N2CCCCC2)c1)c1cc(=O)[n-]c(=O)[n-]1 (nonaromatic ring conformer: 54.074046860116795 kcal/mol)

>  <smiles>  (863) 
O=C(NCc1cccc(C(=O)N2CCCCC2)c1)c1cc(=O)[nH]c(=O)[nH]1

>  <score_type>  (863) 
oracle

>  <origin>  (863) 
adg

>  <m_score__min__energy>  (863) 
-14.65

>  <m_primary>  (863) 
energy

$$$$
45:0
     RDKit          3D

 25 26  0  0  0  0  0  0  0  0999 V2000
   63.2800   34.1680   48.3530 O   0  0  0  0  0  0  0  0  0  0  0  0
   62.7080   33.5280   47.4460 N   0  0  0  0  0  0  0  0  0  0  0  0
   62.9840   33.8230   46.1320 O   0  0  0  0  0  0  0  0  0  0  0  0
   61.7780   32.5490   47.7390 O   0  0  0  0  0  0  0  0  0  0  0  0
   60.4760   32.8520   48.2340 C   0  0  0  0  0  0  0  0  0  0  0  0
   59.5750   33.2800   47.1090 C   0  0  0  0  0  0  0  0  0  0  0  0
   59.7020   34.5670   46.5640 C   0  0  0  0  0  0  0  0  0  0  0  0
   58.8890   34.9640   45.5000 C   0  0  0  0  0  0  0  0  0  0  0  0
   57.9440   34.0810   44.9730 C   0  0  0  0  0  0  0  0  0  0  0  0
   57.8020   32.7940   45.5070 C   0  0  0  0  0  0  0  0  0  0  0  0
   56.8210   31.9210   44.9350 N   0  0  0  0  0  0  0  0  0  0  0  0
   57.0940   30.8310   43.6140 S   0  0  0  0  0  0  0  0  0  0  0  0
   57.5930   31.5810   42.4100 O   0  0  0  0  0  0  0  0  0  0  0  0
   55.8060   30.1340   43.2780 O   0  0  0  0  0  0  0  0  0  0  0  0
   58.2940   29.6280   44.0840 C   0  0  0  0  0  0  0  0  0  0  0  0
   58.3830   29.1010   45.3120 C   0  0  0  0  0  0  0  0  0  0  0  0
   57.7470   27.8310   45.7160 C   0  0  0  0  0  0  0  0  0  0  0  0
   58.5310   26.7600   46.1790 C   0  0  0  0  0  0  0  0  0  0  0  0
   57.9260   25.5680   46.5830 C   0  0  0  0  0  0  0  0  0  0  0  0
   56.5400   25.4270   46.5120 C   0  0  0  0  0  0  0  0  0  0  0  0
   55.7510   26.4750   46.0260 C   0  0  0  0  0  0  0  0  0  0  0  0
   54.3710   26.3130   45.9520 O   0  0  0  0  0  0  0  0  0  0  0  0
   56.3510   27.6800   45.6200 C   0  0  0  0  0  0  0  0  0  0  0  0
   55.5730   28.7350   45.1380 O   0  0  0  0  0  0  0  0  0  0  0  0
   58.6260   32.3940   46.5740 C   0  0  0  0  0  0  0  0  0  0  0  0
  1  2  2  0
  2  3  1  0
  2  4  1  0
  4  5  1  0
  5  6  1  0
  6  7  2  0
  7  8  1  0
  8  9  2  0
  9 10  1  0
 10 11  1  0
 11 12  1  0
 12 13  2  0
 12 14  2  0
 12 15  1  0
 15 16  2  3
 16 17  1  0
 17 18  2  0
 18 19  1  0
 19 20  2  0
 20 21  1  0
 21 22  1  0
 21 23  2  0
 23 24  1  0
 10 25  2  0
 25  6  1  0
 23 17  1  0
M  CHG  4   2   1   3  -1  11  -1  22  -1
M  END
>  <UniqueID>  (864) 
46

>  <SMILES>  (864) 
O=[N+]([O-])OCc1cccc([N-]S(=O)(=O)C=Cc2cccc([O-])c2O)c1

>  <Energy>  (864) 
45.40605364341502

>  <Genealogy>  (864) 
O=[N+]([O-])OCc1cccc([N-]S(=O)(=O)C=Cc2cccc([O-])c2O)c1 (protonated)
O=[N+]([O-])OCc1cccc([N-]S(=O)(=O)C=Cc2cccc([O-])c2O)c1 (3D coordinates assigned)
O=[N+]([O-])OCc1cccc([N-]S(=O)(=O)C=Cc2cccc([O-])c2O)c1 (optimized conformer: 45.40605364341502 kcal/mol)

>  <smiles>  (864) 
O=[N+]([O-])OCc1cccc(NS(=O)(=O)C=Cc2cccc(O)c2O)c1

>  <score_type>  (864) 
oracle

>  <origin>  (864) 
adg

>  <m_score__min__energy>  (864) 
-14.789999999999999

>  <m_primary>  (864) 
energy

$$$$
65:0
     RDKit          3D

 27 30  0  0  0  0  0  0  0  0999 V2000
   58.3710   29.5840   47.1810 C   0  0  0  0  0  0  0  0  0  0  0  0
   58.1320   30.3150   46.0800 C   0  0  0  0  0  0  0  0  0  0  0  0
   57.3310   29.9450   44.9900 C   0  0  0  0  0  0  0  0  0  0  0  0
   56.6610   28.7820   44.8380 C   0  0  0  0  0  0  0  0  0  0  0  0
   57.0420   27.4820   45.4360 C   0  0  0  0  0  0  0  0  0  0  0  0
   58.2950   27.0140   45.5840 N   0  0  0  0  0  0  0  0  0  0  0  0
   58.1200   25.8300   46.2080 C   0  0  0  0  0  0  0  0  0  0  0  0
   59.0810   25.0780   46.5170 O   0  0  0  0  0  0  0  0  0  0  0  0
   56.8350   25.5160   46.4750 N   0  0  0  0  0  0  0  0  0  0  0  0
   56.1680   26.5730   45.9860 C   0  0  0  0  0  0  0  0  0  0  0  0
   54.7860   26.7030   46.0400 O   0  0  0  0  0  0  0  0  0  0  0  0
   57.3470   31.0280   44.1180 C   0  0  0  0  0  0  0  0  0  0  0  0
   58.1520   31.9910   44.6910 C   0  0  0  0  0  0  0  0  0  0  0  0
   58.4300   33.3360   44.0900 C   0  0  0  0  0  0  0  0  0  0  0  0
   58.6260   31.5640   45.8820 N   0  0  0  0  0  0  0  0  0  0  0  0
   59.4960   32.3060   46.7530 C   0  0  0  0  0  0  0  0  0  0  0  0
   59.0440   33.4810   47.3700 C   0  0  0  0  0  0  0  0  0  0  0  0
   59.8880   34.1990   48.2230 C   0  0  0  0  0  0  0  0  0  0  0  0
   61.1890   33.7410   48.4810 C   0  0  0  0  0  0  0  0  0  0  0  0
   62.1110   34.5360   49.3610 C   0  0  0  0  0  0  0  0  0  0  0  0
   63.2470   33.7120   49.7650 N   0  0  0  0  0  0  0  0  0  0  0  0
   63.3590   32.9830   50.8920 C   0  0  0  0  0  0  0  0  0  0  0  0
   64.5020   32.2670   50.9290 N   0  0  0  0  0  0  0  0  0  0  0  0
   65.1180   32.5600   49.7650 C   0  0  0  0  0  0  0  0  0  0  0  0
   64.3460   33.4420   49.0430 C   0  0  0  0  0  0  0  0  0  0  0  0
   61.6440   32.5700   47.8540 C   0  0  0  0  0  0  0  0  0  0  0  0
   60.8010   31.8530   47.0010 C   0  0  0  0  0  0  0  0  0  0  0  0
  1  2  2  0
  2  3  1  0
  3  4  2  0
  4  5  1  0
  5  6  1  0
  6  7  1  0
  7  8  2  0
  7  9  1  0
  9 10  1  0
 10 11  1  0
  3 12  1  0
 12 13  2  0
 13 14  1  0
 13 15  1  0
 15 16  1  0
 16 17  2  0
 17 18  1  0
 18 19  2  0
 19 20  1  0
 20 21  1  0
 21 22  1  0
 22 23  2  0
 23 24  1  0
 24 25  2  0
 19 26  1  0
 26 27  2  0
 15  2  1  0
 27 16  1  0
 10  5  2  0
 25 21  1  0
M  CHG  3   6  -1   9  -1  11  -1
M  END
>  <UniqueID>  (865) 
66

>  <SMILES>  (865) 
C=c1/c(=C/c2[n-]c(=O)[n-]c2[O-])cc(C)n1-c1ccc(Cn2ccnc2)cc1

>  <Energy>  (865) 
142.73771475177273

>  <Genealogy>  (865) 
C=c1c(=Cc2[n-]c(=O)[n-]c2[O-])cc(C)n1-c1ccc(Cn2ccnc2)cc1 (protonated)
C=c1/c(=C/c2[n-]c(=O)[n-]c2[O-])cc(C)n1-c1ccc(Cn2ccnc2)cc1 (cis-trans isomerization)
C=c1/c(=C/c2[n-]c(=O)[n-]c2[O-])cc(C)n1-c1ccc(Cn2ccnc2)cc1 (3D coordinates assigned)
C=c1/c(=C/c2[n-]c(=O)[n-]c2[O-])cc(C)n1-c1ccc(Cn2ccnc2)cc1 (optimized conformer: 142.73771475177273 kcal/mol)

>  <smiles>  (865) 
C=c1c(=Cc2[nH]c(=O)[nH]c2O)cc(C)n1-c1ccc(Cn2ccnc2)cc1

>  <score_type>  (865) 
oracle

>  <origin>  (865) 
adg

>  <m_score__min__energy>  (865) 
-15.4

>  <m_primary>  (865) 
energy

$$$$
15:0
     RDKit          3D

 32 34  0  0  0  0  0  0  0  0999 V2000
   59.7360   29.5430   47.5610 C   0  0  0  0  0  0  0  0  0  0  0  0
   58.9300   30.2260   46.7290 C   0  0  0  0  0  0  0  0  0  0  0  0
   58.3130   29.7060   45.5860 C   0  0  0  0  0  0  0  0  0  0  0  0
   58.3990   28.4490   45.1040 C   0  0  0  0  0  0  0  0  0  0  0  0
   57.5460   27.3360   45.5760 C   0  0  0  0  0  0  0  0  0  0  0  0
   56.1510   27.4580   45.6240 C   0  0  0  0  0  0  0  0  0  0  0  0
   55.5240   28.6400   45.2430 O   0  0  0  0  0  0  0  0  0  0  0  0
   55.3960   26.4070   46.0210 N   0  0  0  0  0  0  0  0  0  0  0  0
   55.9560   25.2220   46.3740 C   0  0  0  0  0  0  0  0  0  0  0  0
   55.2020   24.2740   46.7250 O   0  0  0  0  0  0  0  0  0  0  0  0
   57.3180   25.0610   46.3390 N   0  0  0  0  0  0  0  0  0  0  0  0
   57.9180   23.7600   46.6800 C   0  0  0  0  0  0  0  0  0  0  0  0
   58.1130   26.0960   45.9130 C   0  0  0  0  0  0  0  0  0  0  0  0
   59.3650   25.9440   45.8250 O   0  0  0  0  0  0  0  0  0  0  0  0
   57.5770   30.7400   45.0320 C   0  0  0  0  0  0  0  0  0  0  0  0
   57.7680   31.8390   45.8400 C   0  0  0  0  0  0  0  0  0  0  0  0
   57.1720   33.1900   45.5760 C   0  0  0  0  0  0  0  0  0  0  0  0
   58.6110   31.5450   46.8600 N   0  0  0  0  0  0  0  0  0  0  0  0
   59.0730   32.5060   47.8800 C   0  0  0  0  0  0  0  0  0  0  0  0
   60.5600   32.7920   47.7450 C   0  0  0  0  0  0  0  0  0  0  0  0
   61.0480   33.7310   46.8030 C   0  0  0  0  0  0  0  0  0  0  0  0
   59.9890   34.6250   45.7200 Cl  0  0  0  0  0  0  0  0  0  0  0  0
   62.3810   33.9740   46.7140 N   0  0  0  0  0  0  0  0  0  0  0  0
   63.2850   33.3510   47.5100 C   0  0  0  0  0  0  0  0  0  0  0  0
   62.8580   32.4340   48.4650 C   0  0  0  0  0  0  0  0  0  0  0  0
   61.4880   32.1490   48.5960 C   0  0  0  0  0  0  0  0  0  0  0  0
   61.0210   31.2340   49.5530 O   0  0  0  0  0  0  0  0  0  0  0  0
   61.3260   31.2820   50.9450 C   0  0  0  0  0  0  0  0  0  0  0  0
   60.0330   31.4790   51.7370 C   0  0  0  0  0  0  0  0  0  0  0  0
   59.1420   32.4500   51.0660 N   0  0  0  0  0  0  0  0  0  0  0  0
   57.7460   31.9780   51.0700 C   0  0  0  0  0  0  0  0  0  0  0  0
   59.2180   33.7550   51.7420 C   0  0  0  0  0  0  0  0  0  0  0  0
  1  2  2  0
  2  3  1  0
  3  4  2  0
  4  5  1  0
  5  6  2  0
  6  7  1  0
  6  8  1  0
  8  9  1  0
  9 10  2  0
  9 11  1  0
 11 12  1  0
 11 13  1  0
 13 14  2  0
  3 15  1  0
 15 16  2  0
 16 17  1  0
 16 18  1  0
 18 19  1  0
 19 20  1  0
 20 21  2  0
 21 22  1  0
 21 23  1  0
 23 24  2  0
 24 25  1  0
 25 26  2  0
 26 27  1  0
 27 28  1  0
 28 29  1  0
 29 30  1  0
 30 31  1  0
 30 32  1  0
 18  2  1  0
 26 20  1  0
 13  5  1  0
M  CHG  2   7  -1   8  -1
M  END
>  <UniqueID>  (866) 
13

>  <SMILES>  (866) 
C=c1/c(=C/c2c([O-])[n-]c(=O)n(C)c2=O)cc(C)n1Cc1c(OCCN(C)C)ccnc1Cl

>  <Energy>  (866) 
98.86837048166353

>  <Genealogy>  (866) 
C=c1c(=Cc2c([O-])[n-]c(=O)n(C)c2=O)cc(C)n1Cc1c(OCCN(C)C)ccnc1Cl (protonated)
C=c1/c(=C/c2c([O-])[n-]c(=O)n(C)c2=O)cc(C)n1Cc1c(OCCN(C)C)ccnc1Cl (cis-trans isomerization)
C=c1/c(=C/c2c([O-])[n-]c(=O)n(C)c2=O)cc(C)n1Cc1c(OCCN(C)C)ccnc1Cl (3D coordinates assigned)
C=c1/c(=C/c2c([O-])[n-]c(=O)n(C)c2=O)cc(C)n1Cc1c(OCCN(C)C)ccnc1Cl (optimized conformer: 98.86837048166353 kcal/mol)

>  <smiles>  (866) 
C=c1c(=Cc2c(O)[nH]c(=O)n(C)c2=O)cc(C)n1Cc1c(OCCN(C)C)ccnc1Cl

>  <score_type>  (866) 
oracle

>  <origin>  (866) 
adg

>  <m_score__min__energy>  (866) 
-14.039999999999999

>  <m_primary>  (866) 
energy

$$$$
18:0
     RDKit          3D

 24 26  0  0  0  0  0  0  0  0999 V2000
   62.1940   34.2620   46.5140 O   0  0  0  0  0  0  0  0  0  0  0  0
   60.8460   33.9250   46.4050 C   0  0  0  0  0  0  0  0  0  0  0  0
   59.8710   34.9200   46.2420 C   0  0  0  0  0  0  0  0  0  0  0  0
   58.5230   34.5690   46.1350 C   0  0  0  0  0  0  0  0  0  0  0  0
   58.1430   33.2250   46.1890 C   0  0  0  0  0  0  0  0  0  0  0  0
   59.1110   32.2240   46.3520 C   0  0  0  0  0  0  0  0  0  0  0  0
   58.7190   30.8390   46.3990 N   0  0  0  0  0  0  0  0  0  0  0  0
   58.9080   30.0010   47.4420 C   0  0  0  0  0  0  0  0  0  0  0  0
   59.5570   30.3770   48.7400 C   0  0  0  0  0  0  0  0  0  0  0  0
   58.3950   28.7550   47.1560 C   0  0  0  0  0  0  0  0  0  0  0  0
   57.8990   28.8090   45.8640 C   0  0  0  0  0  0  0  0  0  0  0  0
   57.3750   27.7350   45.2410 C   0  0  0  0  0  0  0  0  0  0  0  0
   57.2160   26.3920   45.8320 C   0  0  0  0  0  0  0  0  0  0  0  0
   55.9480   25.9330   46.2160 C   0  0  0  0  0  0  0  0  0  0  0  0
   54.8190   26.7140   46.0000 O   0  0  0  0  0  0  0  0  0  0  0  0
   55.8160   24.7130   46.7980 N   0  0  0  0  0  0  0  0  0  0  0  0
   56.8970   23.9260   47.0310 C   0  0  0  0  0  0  0  0  0  0  0  0
   56.7480   22.7970   47.5670 O   0  0  0  0  0  0  0  0  0  0  0  0
   58.1390   24.3580   46.6930 N   0  0  0  0  0  0  0  0  0  0  0  0
   58.3250   25.5710   46.1110 C   0  0  0  0  0  0  0  0  0  0  0  0
   59.4940   25.9500   45.8310 O   0  0  0  0  0  0  0  0  0  0  0  0
   58.0820   30.1330   45.4280 C   0  0  0  0  0  0  0  0  0  0  0  0
   57.6070   30.6930   44.3040 C   0  0  0  0  0  0  0  0  0  0  0  0
   60.4640   32.5800   46.4580 C   0  0  0  0  0  0  0  0  0  0  0  0
  1  2  1  0
  2  3  2  0
  3  4  1  0
  4  5  2  0
  5  6  1  0
  6  7  1  0
  7  8  1  0
  8  9  1  0
  8 10  2  0
 10 11  1  0
 11 12  2  0
 12 13  1  0
 13 14  2  0
 14 15  1  0
 14 16  1  0
 16 17  1  0
 17 18  2  0
 17 19  1  0
 19 20  1  0
 20 21  2  0
 11 22  1  0
 22 23  2  0
  6 24  2  0
 24  2  1  0
 22  7  1  0
 20 13  1  0
M  CHG  3  15  -1  16  -1  19  -1
M  END
>  <UniqueID>  (867) 
15

>  <SMILES>  (867) 
C=c1/c(=C\c2c([O-])[n-]c(=O)[n-]c2=O)cc(C)n1-c1cccc(O)c1

>  <Energy>  (867) 
87.38560679276809

>  <Genealogy>  (867) 
C=c1c(=Cc2c([O-])[n-]c(=O)[n-]c2=O)cc(C)n1-c1cccc(O)c1 (protonated)
C=c1/c(=C\c2c([O-])[n-]c(=O)[n-]c2=O)cc(C)n1-c1cccc(O)c1 (cis-trans isomerization)
C=c1/c(=C\c2c([O-])[n-]c(=O)[n-]c2=O)cc(C)n1-c1cccc(O)c1 (3D coordinates assigned)
C=c1/c(=C\c2c([O-])[n-]c(=O)[n-]c2=O)cc(C)n1-c1cccc(O)c1 (optimized conformer: 87.38560679276809 kcal/mol)

>  <smiles>  (867) 
C=c1c(=Cc2c(O)[nH]c(=O)[nH]c2=O)cc(C)n1-c1cccc(O)c1

>  <score_type>  (867) 
oracle

>  <origin>  (867) 
adg

>  <m_score__min__energy>  (867) 
-15.130000000000001

>  <m_primary>  (867) 
energy

$$$$
22:0
     RDKit          3D

 25 27  0  0  0  0  0  0  0  0999 V2000
   59.2440   29.0830   47.9370 C   0  0  0  0  0  0  0  0  0  0  0  0
   58.7470   29.8600   46.9590 C   0  0  0  0  0  0  0  0  0  0  0  0
   58.3140   29.4170   45.7040 C   0  0  0  0  0  0  0  0  0  0  0  0
   58.3450   28.1580   45.2220 C   0  0  0  0  0  0  0  0  0  0  0  0
   57.4000   27.1000   45.6420 C   0  0  0  0  0  0  0  0  0  0  0  0
   56.0180   27.3440   45.6230 C   0  0  0  0  0  0  0  0  0  0  0  0
   55.5230   28.5870   45.2470 O   0  0  0  0  0  0  0  0  0  0  0  0
   55.1500   26.3630   45.9840 N   0  0  0  0  0  0  0  0  0  0  0  0
   55.5950   25.1340   46.3540 C   0  0  0  0  0  0  0  0  0  0  0  0
   54.7730   24.2440   46.6900 O   0  0  0  0  0  0  0  0  0  0  0  0
   56.9250   24.8650   46.3550 N   0  0  0  0  0  0  0  0  0  0  0  0
   57.8330   25.8100   46.0000 C   0  0  0  0  0  0  0  0  0  0  0  0
   59.0580   25.5120   45.9790 O   0  0  0  0  0  0  0  0  0  0  0  0
   57.8680   30.5390   45.0250 C   0  0  0  0  0  0  0  0  0  0  0  0
   58.0420   31.6120   45.8750 C   0  0  0  0  0  0  0  0  0  0  0  0
   57.6430   33.0190   45.5440 C   0  0  0  0  0  0  0  0  0  0  0  0
   58.5760   31.2080   47.0530 N   0  0  0  0  0  0  0  0  0  0  0  0
   58.8460   32.0820   48.2070 C   0  0  0  0  0  0  0  0  0  0  0  0
   60.2770   32.5550   48.1930 C   0  0  0  0  0  0  0  0  0  0  0  0
   60.6320   33.7580   48.8250 C   0  0  0  0  0  0  0  0  0  0  0  0
   61.9570   34.2020   48.8020 C   0  0  0  0  0  0  0  0  0  0  0  0
   62.9380   33.4510   48.1500 C   0  0  0  0  0  0  0  0  0  0  0  0
   62.5950   32.2480   47.5190 C   0  0  0  0  0  0  0  0  0  0  0  0
   63.5630   31.4900   46.8650 O   0  0  0  0  0  0  0  0  0  0  0  0
   61.2700   31.8020   47.5430 C   0  0  0  0  0  0  0  0  0  0  0  0
  1  2  2  0
  2  3  1  0
  3  4  2  3
  4  5  1  0
  5  6  2  0
  6  7  1  0
  6  8  1  0
  8  9  1  0
  9 10  2  0
  9 11  1  0
 11 12  1  0
 12 13  2  0
  3 14  1  0
 14 15  2  0
 15 16  1  0
 15 17  1  0
 17 18  1  0
 18 19  1  0
 19 20  2  0
 20 21  1  0
 21 22  2  0
 22 23  1  0
 23 24  1  0
 23 25  2  0
 17  2  1  0
 25 19  1  0
 12  5  1  0
M  CHG  3   7  -1   8  -1  11  -1
M  END
>  <UniqueID>  (868) 
19

>  <SMILES>  (868) 
C=c1c(=Cc2c([O-])[n-]c(=O)[n-]c2=O)cc(C)n1Cc1cccc(O)c1

>  <Energy>  (868) 
79.69185653651058

>  <Genealogy>  (868) 
C=c1c(=Cc2c([O-])[n-]c(=O)[n-]c2=O)cc(C)n1Cc1cccc(O)c1 (protonated)
C=c1c(=Cc2c([O-])[n-]c(=O)[n-]c2=O)cc(C)n1Cc1cccc(O)c1 (3D coordinates assigned)
C=c1c(=Cc2c([O-])[n-]c(=O)[n-]c2=O)cc(C)n1Cc1cccc(O)c1 (optimized conformer: 79.69185653651058 kcal/mol)

>  <smiles>  (868) 
C=c1c(=Cc2c(O)[nH]c(=O)[nH]c2=O)cc(C)n1Cc1cccc(O)c1

>  <score_type>  (868) 
oracle

>  <origin>  (868) 
adg

>  <m_score__min__energy>  (868) 
-15.41

>  <m_primary>  (868) 
energy

$$$$
39:0
     RDKit          3D

 26 29  0  0  0  0  0  0  0  0999 V2000
   59.0140   29.7430   44.5950 C   0  0  0  0  0  0  0  0  0  0  0  0
   58.9020   29.3190   45.8640 C   0  0  0  0  0  0  0  0  0  0  0  0
   58.3900   28.0860   46.2850 C   0  0  0  0  0  0  0  0  0  0  0  0
   57.8450   27.1250   45.5150 C   0  0  0  0  0  0  0  0  0  0  0  0
   57.1510   25.9370   46.0460 C   0  0  0  0  0  0  0  0  0  0  0  0
   57.7960   24.8550   46.5160 N   0  0  0  0  0  0  0  0  0  0  0  0
   56.7980   24.0660   46.9700 C   0  0  0  0  0  0  0  0  0  0  0  0
   57.0070   22.9360   47.4820 O   0  0  0  0  0  0  0  0  0  0  0  0
   55.5610   24.5890   46.8420 N   0  0  0  0  0  0  0  0  0  0  0  0
   55.8010   25.7790   46.2670 C   0  0  0  0  0  0  0  0  0  0  0  0
   54.8100   26.7160   45.9980 O   0  0  0  0  0  0  0  0  0  0  0  0
   58.5060   28.0680   47.6680 C   0  0  0  0  0  0  0  0  0  0  0  0
   59.0750   29.2710   48.0340 C   0  0  0  0  0  0  0  0  0  0  0  0
   59.3740   29.6780   49.4450 C   0  0  0  0  0  0  0  0  0  0  0  0
   59.3230   30.0280   46.9420 N   0  0  0  0  0  0  0  0  0  0  0  0
   59.8960   31.3480   46.9470 C   0  0  0  0  0  0  0  0  0  0  0  0
   59.2870   32.3820   46.2240 C   0  0  0  0  0  0  0  0  0  0  0  0
   59.8490   33.6590   46.2190 C   0  0  0  0  0  0  0  0  0  0  0  0
   61.0230   33.9120   46.9320 C   0  0  0  0  0  0  0  0  0  0  0  0
   61.6520   32.8870   47.6610 C   0  0  0  0  0  0  0  0  0  0  0  0
   62.8990   33.1730   48.4120 C   0  0  0  0  0  0  0  0  0  0  0  0
   62.9380   33.7960   49.6060 N   0  0  0  0  0  0  0  0  0  0  0  0
   64.2220   33.8510   49.9270 N   0  0  0  0  0  0  0  0  0  0  0  0
   64.9490   33.2860   48.9750 N   0  0  0  0  0  0  0  0  0  0  0  0
   64.1470   32.8560   48.0190 N   0  0  0  0  0  0  0  0  0  0  0  0
   61.0790   31.6020   47.6580 C   0  0  0  0  0  0  0  0  0  0  0  0
  1  2  2  0
  2  3  1  0
  3  4  2  0
  4  5  1  0
  5  6  1  0
  6  7  1  0
  7  8  2  0
  7  9  1  0
  9 10  1  0
 10 11  1  0
  3 12  1  0
 12 13  2  0
 13 14  1  0
 13 15  1  0
 15 16  1  0
 16 17  2  0
 17 18  1  0
 18 19  2  0
 19 20  1  0
 20 21  1  0
 21 22  2  0
 22 23  1  0
 23 24  1  0
 24 25  2  0
 20 26  2  0
 15  2  1  0
 26 16  1  0
 10  5  2  0
 25 21  1  0
M  CHG  5   6  -1   9  -1  11  -1  23  -1  25   1
M  END
>  <UniqueID>  (869) 
33

>  <SMILES>  (869) 
C=c1/c(=C/c2[n-]c(=O)[n-]c2[O-])cc(C)n1-c1cccc(-c2n[n-]n[nH+]2)c1

>  <Energy>  (869) 
153.94342198429143

>  <Genealogy>  (869) 
C=c1c(=Cc2[n-]c(=O)[n-]c2[O-])cc(C)n1-c1cccc(-c2n[n-]n[nH+]2)c1 (protonated)
C=c1/c(=C/c2[n-]c(=O)[n-]c2[O-])cc(C)n1-c1cccc(-c2n[n-]n[nH+]2)c1 (cis-trans isomerization)
C=c1/c(=C/c2[n-]c(=O)[n-]c2[O-])cc(C)n1-c1cccc(-c2n[n-]n[nH+]2)c1 (3D coordinates assigned)
C=c1/c(=C/c2[n-]c(=O)[n-]c2[O-])cc(C)n1-c1cccc(-c2n[n-]n[nH+]2)c1 (optimized conformer: 153.94342198429143 kcal/mol)

>  <smiles>  (869) 
C=c1c(=Cc2[nH]c(=O)[nH]c2O)cc(C)n1-c1cccc(-c2nn[nH]n2)c1

>  <score_type>  (869) 
oracle

>  <origin>  (869) 
adg

>  <m_score__min__energy>  (869) 
-16.239999999999998

>  <m_primary>  (869) 
energy

$$$$
40:0
     RDKit          3D

 37 40  0  0  0  0  0  0  0  0999 V2000
   57.3770   23.8180   45.0750 C   0  0  0  0  0  0  0  0  0  0  0  0
   56.7970   23.9120   46.7510 S   0  0  0  0  0  0  0  0  0  0  0  0
   55.3260   24.2020   46.7480 O   0  0  0  0  0  0  0  0  0  0  0  0
   57.0350   22.6020   47.4490 O   0  0  0  0  0  0  0  0  0  0  0  0
   57.6260   25.1800   47.5860 N   0  0  0  0  0  0  0  0  0  0  0  0
   58.0780   26.3370   46.8860 C   0  0  0  0  0  0  0  0  0  0  0  0
   59.4400   26.6470   46.8580 C   0  0  0  0  0  0  0  0  0  0  0  0
   59.8910   27.7700   46.1640 C   0  0  0  0  0  0  0  0  0  0  0  0
   58.9830   28.5840   45.4870 C   0  0  0  0  0  0  0  0  0  0  0  0
   57.6090   28.2830   45.4980 C   0  0  0  0  0  0  0  0  0  0  0  0
   56.6710   29.1090   44.7090 C   0  0  0  0  0  0  0  0  0  0  0  0
   55.4300   29.0340   44.9190 O   0  0  0  0  0  0  0  0  0  0  0  0
   57.1600   29.9950   43.6930 N   0  0  0  0  0  0  0  0  0  0  0  0
   57.7070   31.2850   43.9910 C   0  0  0  0  0  0  0  0  0  0  0  0
   57.9850   32.1890   42.9640 C   0  0  0  0  0  0  0  0  0  0  0  0
   58.4610   33.4290   43.2540 N   0  0  0  0  0  0  0  0  0  0  0  0
   58.6680   33.8350   44.5350 C   0  0  0  0  0  0  0  0  0  0  0  0
   58.3860   32.9760   45.6010 C   0  0  0  0  0  0  0  0  0  0  0  0
   58.5510   33.4370   46.9180 O   0  0  0  0  0  0  0  0  0  0  0  0
   59.7890   33.4900   47.5750 C   0  0  0  0  0  0  0  0  0  0  0  0
   59.8220   33.5400   48.9710 C   0  0  0  0  0  0  0  0  0  0  0  0
   61.0440   33.4430   49.6480 C   0  0  0  0  0  0  0  0  0  0  0  0
   62.2400   33.3140   48.9300 C   0  0  0  0  0  0  0  0  0  0  0  0
   63.7640   33.0440   49.7750 S   0  0  0  0  0  0  0  0  0  0  0  0
   63.8010   33.9060   51.0050 O   0  0  0  0  0  0  0  0  0  0  0  0
   64.9030   33.4580   48.8880 O   0  0  0  0  0  0  0  0  0  0  0  0
   63.9690   31.3690   50.2390 N   0  0  0  0  0  0  0  0  0  0  0  0
   62.7020   30.7130   50.6150 C   0  0  0  0  0  0  0  0  0  0  0  0
   62.3260   30.8630   52.1090 C   0  0  0  0  0  0  0  0  0  0  0  0
   63.4760   31.0190   53.0140 N   0  0  0  0  0  0  0  0  0  0  0  0
   64.6880   30.4260   52.4550 C   0  0  0  0  0  0  0  0  0  0  0  0
   65.0950   31.1610   51.1720 C   0  0  0  0  0  0  0  0  0  0  0  0
   62.2120   33.3670   47.5300 C   0  0  0  0  0  0  0  0  0  0  0  0
   60.9920   33.4600   46.8550 C   0  0  0  0  0  0  0  0  0  0  0  0
   57.8930   31.6930   45.3150 C   0  0  0  0  0  0  0  0  0  0  0  0
   57.1610   27.1550   46.2190 C   0  0  0  0  0  0  0  0  0  0  0  0
   55.8410   26.8490   46.2780 F   0  0  0  0  0  0  0  0  0  0  0  0
  1  2  1  0
  2  3  2  0
  2  4  2  0
  2  5  1  0
  5  6  1  0
  6  7  2  0
  7  8  1  0
  8  9  2  0
  9 10  1  0
 10 11  1  0
 11 12  2  0
 11 13  1  0
 13 14  1  0
 14 15  2  0
 15 16  1  0
 16 17  2  0
 17 18  1  0
 18 19  1  0
 19 20  1  0
 20 21  2  0
 21 22  1  0
 22 23  2  0
 23 24  1  0
 24 25  2  0
 24 26  2  0
 24 27  1  0
 27 28  1  0
 28 29  1  0
 29 30  1  0
 30 31  1  0
 31 32  1  0
 23 33  1  0
 33 34  2  0
 18 35  2  0
 10 36  2  0
 36 37  1  0
 36  6  1  0
 35 14  1  0
 34 20  1  0
 32 27  1  0
M  CHG  2   5  -1  13  -1
M  END
>  <UniqueID>  (870) 
34

>  <SMILES>  (870) 
CS(=O)(=O)[N-]c1cccc(C(=O)[N-]c2cncc(Oc3ccc(S(=O)(=O)N4CCNCC4)cc3)c2)c1F

>  <Energy>  (870) 
88.98568977271896

>  <Genealogy>  (870) 
CS(=O)(=O)[N-]c1cccc(C(=O)[N-]c2cncc(Oc3ccc(S(=O)(=O)N4CCNCC4)cc3)c2)c1F (protonated)
CS(=O)(=O)[N-]c1cccc(C(=O)[N-]c2cncc(Oc3ccc(S(=O)(=O)N4CCNCC4)cc3)c2)c1F (3D coordinates assigned)
CS(=O)(=O)[N-]c1cccc(C(=O)[N-]c2cncc(Oc3ccc(S(=O)(=O)N4CCNCC4)cc3)c2)c1F (nonaromatic ring conformer: 88.98568977271896 kcal/mol)

>  <smiles>  (870) 
CS(=O)(=O)Nc1cccc(C(=O)Nc2cncc(Oc3ccc(S(=O)(=O)N4CCNCC4)cc3)c2)c1F

>  <score_type>  (870) 
oracle

>  <origin>  (870) 
adg

>  <m_score__min__energy>  (870) 
-14.08

>  <m_primary>  (870) 
energy

$$$$
42:0
     RDKit          3D

 33 37  0  0  0  0  0  0  0  0999 V2000
   59.6060   27.1100   46.6830 C   0  0  0  0  0  0  0  0  0  0  0  0
   58.9250   27.9730   45.9140 C   0  0  0  0  0  0  0  0  0  0  0  0
   58.0060   27.6650   44.8960 C   0  0  0  0  0  0  0  0  0  0  0  0
   57.4490   26.4940   44.5300 C   0  0  0  0  0  0  0  0  0  0  0  0
   56.8590   25.5010   45.4420 C   0  0  0  0  0  0  0  0  0  0  0  0
   57.4910   24.3960   45.8800 N   0  0  0  0  0  0  0  0  0  0  0  0
   56.6490   23.9050   46.8140 C   0  0  0  0  0  0  0  0  0  0  0  0
   56.8860   22.8460   47.4510 O   0  0  0  0  0  0  0  0  0  0  0  0
   55.5360   24.6440   47.0200 N   0  0  0  0  0  0  0  0  0  0  0  0
   55.6950   25.6570   46.1530 C   0  0  0  0  0  0  0  0  0  0  0  0
   54.7880   26.7020   46.0060 O   0  0  0  0  0  0  0  0  0  0  0  0
   57.7070   28.8650   44.2680 C   0  0  0  0  0  0  0  0  0  0  0  0
   58.3950   29.8530   44.9400 C   0  0  0  0  0  0  0  0  0  0  0  0
   58.3280   31.3140   44.6140 C   0  0  0  0  0  0  0  0  0  0  0  0
   59.1230   29.3170   45.9450 N   0  0  0  0  0  0  0  0  0  0  0  0
   60.0200   30.0490   46.7980 C   0  0  0  0  0  0  0  0  0  0  0  0
   61.3660   30.2000   46.4430 C   0  0  0  0  0  0  0  0  0  0  0  0
   62.2260   30.9500   47.2490 C   0  0  0  0  0  0  0  0  0  0  0  0
   61.7560   31.5570   48.4270 C   0  0  0  0  0  0  0  0  0  0  0  0
   62.6850   32.3720   49.2530 C   0  0  0  0  0  0  0  0  0  0  0  0
   63.3630   31.7860   50.1390 O   0  0  0  0  0  0  0  0  0  0  0  0
   62.8560   33.7990   49.0270 N   0  0  1  0  0  0  0  0  0  0  0  0
   63.3410   34.1300   47.6720 C   0  0  0  0  0  0  0  0  0  0  0  0
   62.3210   33.8430   46.5540 C   0  0  0  0  0  0  0  0  0  0  0  0
   60.9240   34.1290   46.9160 N   0  0  0  0  0  0  0  0  0  0  0  0
   59.9700   33.9450   45.7910 C   0  0  0  0  0  0  0  0  0  0  0  0
   58.4990   34.2060   46.0680 C   0  0  0  0  0  0  0  0  0  0  0  0
   59.3120   35.1920   45.2280 C   0  0  0  0  0  0  0  0  0  0  0  0
   60.5770   34.4360   48.2940 C   0  0  0  0  0  0  0  0  0  0  0  0
   59.3930   34.6950   48.6330 O   0  0  0  0  0  0  0  0  0  0  0  0
   61.6330   34.5530   49.3530 C   0  0  0  0  0  0  0  0  0  0  0  0
   60.3990   31.4070   48.7710 C   0  0  0  0  0  0  0  0  0  0  0  0
   59.5390   30.6630   47.9600 C   0  0  0  0  0  0  0  0  0  0  0  0
  1  2  2  0
  2  3  1  0
  3  4  2  3
  4  5  1  0
  5  6  1  0
  6  7  1  0
  7  8  2  0
  7  9  1  0
  9 10  1  0
 10 11  1  0
  3 12  1  0
 12 13  2  0
 13 14  1  0
 13 15  1  0
 15 16  1  0
 16 17  2  0
 17 18  1  0
 18 19  2  0
 19 20  1  0
 20 21  2  0
 22 20  1  6
 22 23  1  0
 23 24  1  0
 24 25  1  0
 25 26  1  0
 26 27  1  0
 27 28  1  0
 25 29  1  0
 29 30  2  0
 29 31  1  0
 19 32  1  0
 32 33  2  0
 15  2  1  0
 33 16  1  0
 10  5  2  0
 31 22  1  0
 28 26  1  0
M  CHG  4   6  -1   9  -1  11  -1  22   1
M  END
>  <UniqueID>  (871) 
36

>  <SMILES>  (871) 
C=c1c(=Cc2[n-]c(=O)[n-]c2[O-])cc(C)n1-c1ccc(C(=O)[N@H+]2CCN(C3CC3)C(=O)C2)cc1

>  <Energy>  (871) 
420.11943882341075

>  <Genealogy>  (871) 
C=c1c(=Cc2[n-]c(=O)[n-]c2[O-])cc(C)n1-c1ccc(C(=O)[NH+]2CCN(C3CC3)C(=O)C2)cc1 (protonated)
C=c1c(=Cc2[n-]c(=O)[n-]c2[O-])cc(C)n1-c1ccc(C(=O)[N@H+]2CCN(C3CC3)C(=O)C2)cc1 (chirality)
C=c1c(=Cc2[n-]c(=O)[n-]c2[O-])cc(C)n1-c1ccc(C(=O)[N@H+]2CCN(C3CC3)C(=O)C2)cc1 (3D coordinates assigned)
C=c1c(=Cc2[n-]c(=O)[n-]c2[O-])cc(C)n1-c1ccc(C(=O)[N@H+]2CCN(C3CC3)C(=O)C2)cc1 (nonaromatic ring conformer: 420.11943882341075 kcal/mol)

>  <smiles>  (871) 
C=c1c(=Cc2[nH]c(=O)[nH]c2O)cc(C)n1-c1ccc(C(=O)N2CCN(C3CC3)C(=O)C2)cc1

>  <score_type>  (871) 
oracle

>  <origin>  (871) 
adg

>  <m_score__min__energy>  (871) 
-15.26

>  <m_primary>  (871) 
energy

$$$$
50:0
     RDKit          3D

 28 30  0  0  0  0  0  0  0  0999 V2000
   55.1450   29.3090   44.6080 O   0  0  0  0  0  0  0  0  0  0  0  0
   56.3680   29.4430   44.8820 C   0  0  0  0  0  0  0  0  0  0  0  0
   57.1190   30.5960   44.2860 C   0  0  0  0  0  0  0  0  0  0  0  0
   56.9820   31.8190   45.0780 N   0  0  0  0  0  0  0  0  0  0  0  0
   57.7840   33.0070   44.9970 C   0  0  0  0  0  0  0  0  0  0  0  0
   57.5420   33.8310   44.0760 O   0  0  0  0  0  0  0  0  0  0  0  0
   58.8420   33.3290   45.9770 C   0  0  0  0  0  0  0  0  0  0  0  0
   58.9920   34.6520   46.4220 C   0  0  0  0  0  0  0  0  0  0  0  0
   59.9930   34.9800   47.3390 C   0  0  0  0  0  0  0  0  0  0  0  0
   60.8610   33.9930   47.8100 C   0  0  0  0  0  0  0  0  0  0  0  0
   60.7370   32.6710   47.3600 C   0  0  0  0  0  0  0  0  0  0  0  0
   61.8510   31.4270   47.9370 S   0  0  0  0  0  0  0  0  0  0  0  0
   62.7450   32.0200   48.9890 O   0  0  0  0  0  0  0  0  0  0  0  0
   62.7160   30.9760   46.7930 O   0  0  0  0  0  0  0  0  0  0  0  0
   61.0280   30.0380   48.6070 N   0  0  0  0  0  0  0  0  0  0  0  0
   59.9510   30.4230   49.5170 C   0  0  0  0  0  0  0  0  0  0  0  0
   58.9440   29.2820   49.5020 C   0  0  0  0  0  0  0  0  0  0  0  0
   59.2700   28.4680   48.2590 C   0  0  0  0  0  0  0  0  0  0  0  0
   60.3950   29.2230   47.5720 C   0  0  0  0  0  0  0  0  0  0  0  0
   59.7390   32.3480   46.4280 C   0  0  0  0  0  0  0  0  0  0  0  0
   56.9790   28.6120   45.8790 N   0  0  0  0  0  0  0  0  0  0  0  0
   57.1760   27.3210   45.8630 C   0  0  0  0  0  0  0  0  0  0  0  0
   58.4550   26.8820   45.7050 N   0  0  0  0  0  0  0  0  0  0  0  0
   58.7790   25.5630   45.6610 C   0  0  0  0  0  0  0  0  0  0  0  0
   57.7820   24.5970   45.7730 C   0  0  0  0  0  0  0  0  0  0  0  0
   56.4570   25.0000   45.9150 C   0  0  0  0  0  0  0  0  0  0  0  0
   56.1340   26.3600   45.9460 C   0  0  0  0  0  0  0  0  0  0  0  0
   54.7910   26.7130   46.0060 O   0  0  0  0  0  0  0  0  0  0  0  0
  1  2  2  0
  2  3  1  0
  3  4  1  0
  4  5  1  0
  5  6  2  0
  5  7  1  0
  7  8  2  0
  8  9  1  0
  9 10  2  0
 10 11  1  0
 11 12  1  0
 12 13  2  0
 12 14  2  0
 12 15  1  0
 15 16  1  0
 16 17  1  0
 17 18  1  0
 18 19  1  0
 11 20  2  0
  2 21  1  0
 21 22  2  3
 22 23  1  0
 23 24  1  0
 24 25  2  0
 25 26  1  0
 26 27  2  0
 27 28  1  0
 20  7  1  0
 27 22  1  0
 19 15  1  0
M  CHG  3   4  -1  23  -1  28  -1
M  END
>  <UniqueID>  (872) 
43

>  <SMILES>  (872) 
O=C(C[N-]C(=O)c1cccc(S(=O)(=O)N2CCCC2)c1)N=c1[n-]cccc1[O-]

>  <Energy>  (872) 
58.07100817671488

>  <Genealogy>  (872) 
O=C(C[N-]C(=O)c1cccc(S(=O)(=O)N2CCCC2)c1)N=c1[n-]cccc1[O-] (protonated)
O=C(C[N-]C(=O)c1cccc(S(=O)(=O)N2CCCC2)c1)N=c1[n-]cccc1[O-] (3D coordinates assigned)
O=C(C[N-]C(=O)c1cccc(S(=O)(=O)N2CCCC2)c1)N=c1[n-]cccc1[O-] (nonaromatic ring conformer: 58.07100817671488 kcal/mol)

>  <smiles>  (872) 
O=C(CNC(=O)c1cccc(S(=O)(=O)N2CCCC2)c1)N=c1[nH]cccc1O

>  <score_type>  (872) 
oracle

>  <origin>  (872) 
adg

>  <m_score__min__energy>  (872) 
-15.82

>  <m_primary>  (872) 
energy

$$$$
51:0
     RDKit          3D

 25 26  0  0  0  0  0  0  0  0999 V2000
   52.3980   21.2440   45.6990 N   0  0  0  0  0  0  0  0  0  0  0  0
   52.6440   22.9550   45.6580 S   0  0  0  0  0  0  0  0  0  0  0  0
   52.3060   23.4670   44.2870 O   0  0  0  0  0  0  0  0  0  0  0  0
   51.7350   23.5910   46.6700 O   0  0  0  0  0  0  0  0  0  0  0  0
   54.3260   23.3470   46.0330 C   0  0  0  0  0  0  0  0  0  0  0  0
   55.2210   22.3240   46.3790 C   0  0  0  0  0  0  0  0  0  0  0  0
   56.5460   22.6240   46.7010 C   0  0  0  0  0  0  0  0  0  0  0  0
   56.9930   23.9440   46.6610 C   0  0  0  0  0  0  0  0  0  0  0  0
   56.1230   24.9770   46.2690 C   0  0  0  0  0  0  0  0  0  0  0  0
   56.5550   26.3480   46.2440 N   0  0  0  0  0  0  0  0  0  0  0  0
   57.2740   26.9360   45.3280 C   0  0  0  0  0  0  0  0  0  0  0  0
   57.6530   28.3690   45.3580 C   0  0  0  0  0  0  0  0  0  0  0  0
   58.9900   28.7560   45.5440 C   0  0  0  0  0  0  0  0  0  0  0  0
   59.3410   30.1070   45.5560 C   0  0  0  0  0  0  0  0  0  0  0  0
   58.3680   31.1020   45.3590 C   0  0  0  0  0  0  0  0  0  0  0  0
   58.7310   32.5020   45.3870 N   0  0  0  0  0  0  0  0  0  0  0  0
   58.0820   33.4670   44.4830 C   0  0  0  0  0  0  0  0  0  0  0  0
   56.9600   34.2120   45.2010 C   0  0  0  0  0  0  0  0  0  0  0  0
   59.7700   32.9800   46.3100 C   0  0  0  0  0  0  0  0  0  0  0  0
   60.0000   34.4810   46.1470 C   0  0  0  0  0  0  0  0  0  0  0  0
   57.0360   30.7090   45.1340 C   0  0  0  0  0  0  0  0  0  0  0  0
   56.6810   29.3550   45.1290 C   0  0  0  0  0  0  0  0  0  0  0  0
   55.3540   29.0010   44.9080 O   0  0  0  0  0  0  0  0  0  0  0  0
   54.7830   24.6760   45.9760 C   0  0  0  0  0  0  0  0  0  0  0  0
   53.9140   25.7010   45.6160 O   0  0  0  0  0  0  0  0  0  0  0  0
  1  2  1  0
  2  3  2  0
  2  4  2  0
  2  5  1  0
  5  6  2  0
  6  7  1  0
  7  8  2  0
  8  9  1  0
  9 10  1  0
 10 11  2  0
 11 12  1  0
 12 13  2  0
 13 14  1  0
 14 15  2  0
 15 16  1  0
 16 17  1  0
 17 18  1  0
 16 19  1  0
 19 20  1  0
 15 21  1  0
 21 22  2  0
 22 23  1  0
  9 24  2  0
 24 25  1  0
 24  5  1  0
 22 12  1  0
M  CHG  3   1  -1  23  -1  25  -1
M  END
>  <UniqueID>  (873) 
44

>  <SMILES>  (873) 
CCN(CC)c1ccc(/C=N\c2cccc(S([NH-])(=O)=O)c2[O-])c([O-])c1

>  <Energy>  (873) 
53.251527900795004

>  <Genealogy>  (873) 
CCN(CC)c1ccc(C=Nc2cccc(S([NH-])(=O)=O)c2[O-])c([O-])c1 (protonated)
CCN(CC)c1ccc(/C=N\c2cccc(S([NH-])(=O)=O)c2[O-])c([O-])c1 (cis-trans isomerization)
CCN(CC)c1ccc(/C=N\c2cccc(S([NH-])(=O)=O)c2[O-])c([O-])c1 (3D coordinates assigned)
CCN(CC)c1ccc(/C=N\c2cccc(S([NH-])(=O)=O)c2[O-])c([O-])c1 (optimized conformer: 53.251527900795004 kcal/mol)

>  <smiles>  (873) 
CCN(CC)c1ccc(C=Nc2cccc(S(N)(=O)=O)c2O)c(O)c1

>  <score_type>  (873) 
oracle

>  <origin>  (873) 
adg

>  <m_score__min__energy>  (873) 
-15.76

>  <m_primary>  (873) 
energy

$$$$
62:0
     RDKit          3D

 27 29  0  0  0  0  0  0  0  0999 V2000
   58.5200   25.7280   45.5290 O   0  0  0  0  0  0  0  0  0  0  0  0
   57.7270   25.4940   46.4830 C   0  0  0  0  0  0  0  0  0  0  0  0
   58.0220   26.0030   47.7880 N   0  0  0  0  0  0  0  0  0  0  0  0
   59.3620   26.3770   48.2270 C   0  0  0  0  0  0  0  0  0  0  0  0
   59.6490   27.8070   47.8620 C   0  0  0  0  0  0  0  0  0  0  0  0
   60.0600   28.1520   46.5670 C   0  0  0  0  0  0  0  0  0  0  0  0
   60.3480   29.4810   46.2560 C   0  0  0  0  0  0  0  0  0  0  0  0
   60.2380   30.4630   47.2510 C   0  0  0  0  0  0  0  0  0  0  0  0
   60.5180   31.8820   46.9610 C   0  0  0  0  0  0  0  0  0  0  0  0
   61.7160   32.2720   46.9200 O   0  0  0  0  0  0  0  0  0  0  0  0
   59.4590   32.8230   46.7030 N   0  0  0  0  0  0  0  0  0  0  0  0
   59.5540   34.1920   47.2210 C   0  0  0  0  0  0  0  0  0  0  0  0
   59.6060   35.2020   46.0630 C   0  0  0  0  0  0  0  0  0  0  0  0
   58.6660   34.8420   44.8900 C   0  0  0  0  0  0  0  0  0  0  0  0
   57.6660   33.7340   45.2420 C   0  0  0  0  0  0  0  0  0  0  0  0
   58.4040   32.4820   45.7330 C   0  0  0  0  0  0  0  0  0  0  0  0
   59.8240   30.1080   48.4980 N   0  0  0  0  0  0  0  0  0  0  0  0
   59.5370   28.8200   48.8240 C   0  0  0  0  0  0  0  0  0  0  0  0
   56.4910   24.7020   46.2470 C   0  0  0  0  0  0  0  0  0  0  0  0
   56.5170   23.2900   46.2830 C   0  0  0  0  0  0  0  0  0  0  0  0
   57.7000   22.5980   46.5220 O   0  0  0  0  0  0  0  0  0  0  0  0
   55.3460   22.5610   46.0630 C   0  0  0  0  0  0  0  0  0  0  0  0
   54.1540   23.2360   45.8030 C   0  0  0  0  0  0  0  0  0  0  0  0
   53.0930   22.5910   45.5990 O   0  0  0  0  0  0  0  0  0  0  0  0
   54.1370   24.5920   45.7730 N   0  0  0  0  0  0  0  0  0  0  0  0
   55.2550   25.3360   45.9860 C   0  0  0  0  0  0  0  0  0  0  0  0
   55.1490   26.7220   45.9620 O   0  0  0  0  0  0  0  0  0  0  0  0
  1  2  2  0
  2  3  1  0
  3  4  1  0
  4  5  1  0
  5  6  2  0
  6  7  1  0
  7  8  2  0
  8  9  1  0
  9 10  2  0
  9 11  1  0
 11 12  1  0
 12 13  1  0
 13 14  1  0
 14 15  1  0
 15 16  1  0
  8 17  1  0
 17 18  2  0
  2 19  1  0
 19 20  1  0
 20 21  1  0
 20 22  2  0
 22 23  1  0
 23 24  2  0
 23 25  1  0
 25 26  1  0
 26 27  1  0
 18  5  1  0
 26 19  2  0
 16 11  1  0
M  CHG  4   3  -1  21  -1  25  -1  27  -1
M  END
>  <UniqueID>  (874) 
55

>  <SMILES>  (874) 
O=C([N-]Cc1ccc(C(=O)N2CCCCC2)nc1)c1c([O-])cc(=O)[n-]c1[O-]

>  <Energy>  (874) 
54.16979845453419

>  <Genealogy>  (874) 
O=C([N-]Cc1ccc(C(=O)N2CCCCC2)nc1)c1c([O-])cc(=O)[n-]c1[O-] (protonated)
O=C([N-]Cc1ccc(C(=O)N2CCCCC2)nc1)c1c([O-])cc(=O)[n-]c1[O-] (3D coordinates assigned)
O=C([N-]Cc1ccc(C(=O)N2CCCCC2)nc1)c1c([O-])cc(=O)[n-]c1[O-] (nonaromatic ring conformer: 54.16979845453419 kcal/mol)

>  <smiles>  (874) 
O=C(NCc1ccc(C(=O)N2CCCCC2)nc1)c1c(O)cc(=O)[nH]c1O

>  <score_type>  (874) 
oracle

>  <origin>  (874) 
adg

>  <m_score__min__energy>  (874) 
-17.059999999999999

>  <m_primary>  (874) 
energy

$$$$
78:0
     RDKit          3D

 28 30  0  0  0  0  0  0  0  0999 V2000
   58.9880   33.4580   50.7360 O   0  0  0  0  0  0  0  0  0  0  0  0
   58.5090   32.3490   51.0920 C   0  0  0  0  0  0  0  0  0  0  0  0
   58.9610   31.1390   50.4720 N   0  0  0  0  0  0  0  0  0  0  0  0
   58.6080   30.7380   49.1170 C   0  0  0  0  0  0  0  0  0  0  0  0
   59.8040   30.9090   48.1800 C   0  0  0  0  0  0  0  0  0  0  0  0
   59.7020   32.2060   47.4240 C   0  0  0  0  0  0  0  0  0  0  0  0
   58.4850   32.5900   46.8360 C   0  0  0  0  0  0  0  0  0  0  0  0
   58.4000   33.7780   46.1040 C   0  0  0  0  0  0  0  0  0  0  0  0
   59.5300   34.5870   45.9460 C   0  0  0  0  0  0  0  0  0  0  0  0
   59.4470   35.7380   45.2350 F   0  0  0  0  0  0  0  0  0  0  0  0
   60.7480   34.2040   46.5170 C   0  0  0  0  0  0  0  0  0  0  0  0
   60.8370   33.0160   47.2490 C   0  0  0  0  0  0  0  0  0  0  0  0
   57.4790   32.3210   52.0870 N   0  0  0  0  0  0  0  0  0  0  0  0
   56.7850   31.1530   52.5490 C   0  0  0  0  0  0  0  0  0  0  0  0
   57.4710   30.2330   53.3510 C   0  0  0  0  0  0  0  0  0  0  0  0
   56.8290   29.0790   53.8110 C   0  0  0  0  0  0  0  0  0  0  0  0
   55.4960   28.8360   53.4710 C   0  0  0  0  0  0  0  0  0  0  0  0
   54.7960   29.7410   52.6640 C   0  0  0  0  0  0  0  0  0  0  0  0
   53.4630   29.4600   52.3290 O   0  0  0  0  0  0  0  0  0  0  0  0
   52.6210   30.3000   51.5850 C   0  0  0  0  0  0  0  0  0  0  0  0
   52.2320   29.9880   50.2720 C   0  0  0  0  0  0  0  0  0  0  0  0
   51.4050   30.8820   49.5900 C   0  0  0  0  0  0  0  0  0  0  0  0
   51.0330   30.6300   48.4140 O   0  0  0  0  0  0  0  0  0  0  0  0
   51.0040   32.0300   50.1960 N   0  0  0  0  0  0  0  0  0  0  0  0
   51.4010   32.3270   51.4600 C   0  0  0  0  0  0  0  0  0  0  0  0
   51.0250   33.3980   52.0010 O   0  0  0  0  0  0  0  0  0  0  0  0
   52.2070   31.4690   52.1400 N   0  0  0  0  0  0  0  0  0  0  0  0
   55.4570   30.8820   52.1740 C   0  0  0  0  0  0  0  0  0  0  0  0
  1  2  2  0
  2  3  1  0
  3  4  1  0
  4  5  1  0
  5  6  1  0
  6  7  2  0
  7  8  1  0
  8  9  2  0
  9 10  1  0
  9 11  1  0
 11 12  2  0
  2 13  1  0
 13 14  1  0
 14 15  2  0
 15 16  1  0
 16 17  2  0
 17 18  1  0
 18 19  1  0
 19 20  1  0
 20 21  2  0
 21 22  1  0
 22 23  2  0
 22 24  1  0
 24 25  1  0
 25 26  2  0
 25 27  1  0
 18 28  2  0
 12  6  1  0
 28 14  1  0
 27 20  1  0
M  CHG  4   3  -1  13  -1  24  -1  27  -1
M  END
>  <UniqueID>  (875) 
69

>  <SMILES>  (875) 
O=C([N-]CCc1ccc(F)cc1)[N-]c1cccc(Oc2cc(=O)[n-]c(=O)[n-]2)c1

>  <Energy>  (875) 
49.2062791920445

>  <Genealogy>  (875) 
O=C([N-]CCc1ccc(F)cc1)[N-]c1cccc(Oc2cc(=O)[n-]c(=O)[n-]2)c1 (protonated)
O=C([N-]CCc1ccc(F)cc1)[N-]c1cccc(Oc2cc(=O)[n-]c(=O)[n-]2)c1 (3D coordinates assigned)
O=C([N-]CCc1ccc(F)cc1)[N-]c1cccc(Oc2cc(=O)[n-]c(=O)[n-]2)c1 (optimized conformer: 49.2062791920445 kcal/mol)

>  <smiles>  (875) 
O=C(NCCc1ccc(F)cc1)Nc1cccc(Oc2cc(=O)[nH]c(=O)[nH]2)c1

>  <score_type>  (875) 
oracle

>  <origin>  (875) 
adg

>  <m_score__min__energy>  (875) 
-14.92

>  <m_primary>  (875) 
energy

$$$$
82:0
     RDKit          3D

 37 41  0  0  0  0  0  0  0  0999 V2000
   58.0770   25.6320   47.5100 C   0  0  0  0  0  0  0  0  0  0  0  0
   58.0310   26.3500   46.3760 C   0  0  0  0  0  0  0  0  0  0  0  0
   57.4930   25.9340   45.1520 C   0  0  0  0  0  0  0  0  0  0  0  0
   56.9200   24.7470   44.8710 C   0  0  0  0  0  0  0  0  0  0  0  0
   55.4720   24.4710   45.0270 C   0  0  0  0  0  0  0  0  0  0  0  0
   54.6270   25.4520   45.5700 C   0  0  0  0  0  0  0  0  0  0  0  0
   55.1410   26.6700   46.0000 O   0  0  0  0  0  0  0  0  0  0  0  0
   53.2950   25.2140   45.6860 N   0  0  0  0  0  0  0  0  0  0  0  0
   52.7540   24.0410   45.2720 C   0  0  0  0  0  0  0  0  0  0  0  0
   51.5190   23.8400   45.3980 O   0  0  0  0  0  0  0  0  0  0  0  0
   53.5440   23.0870   44.7150 N   0  0  0  0  0  0  0  0  0  0  0  0
   54.8810   23.2780   44.5730 C   0  0  0  0  0  0  0  0  0  0  0  0
   55.5730   22.3870   44.0120 O   0  0  0  0  0  0  0  0  0  0  0  0
   57.7070   26.9740   44.2580 C   0  0  0  0  0  0  0  0  0  0  0  0
   58.3350   27.9800   44.9640 C   0  0  0  0  0  0  0  0  0  0  0  0
   58.7540   29.2940   44.3760 C   0  0  0  0  0  0  0  0  0  0  0  0
   58.5400   27.6010   46.2470 N   0  0  0  0  0  0  0  0  0  0  0  0
   59.1600   28.4020   47.2710 C   0  0  0  0  0  0  0  0  0  0  0  0
   58.7100   29.7060   47.5170 C   0  0  0  0  0  0  0  0  0  0  0  0
   59.2950   30.4740   48.5280 C   0  0  0  0  0  0  0  0  0  0  0  0
   60.3410   29.9520   49.3110 C   0  0  0  0  0  0  0  0  0  0  0  0
   60.9700   30.7910   50.3670 C   0  0  0  0  0  0  0  0  0  0  0  0
   60.6860   30.5680   51.5760 O   0  0  0  0  0  0  0  0  0  0  0  0
   61.8780   31.8650   50.0510 N   0  0  0  0  0  0  0  0  0  0  0  0
   63.0630   31.5980   49.2290 C   0  0  0  0  0  0  0  0  0  0  0  0
   63.4800   32.8360   48.4120 C   0  0  0  0  0  0  0  0  0  0  0  0
   62.5970   34.0850   48.6490 C   0  0  0  0  0  0  0  0  0  0  0  0
   61.3350   34.0680   47.7850 C   0  0  0  0  0  0  0  0  0  0  0  0
   61.3540   33.8940   46.3840 C   0  0  0  0  0  0  0  0  0  0  0  0
   60.1630   33.9060   45.6480 C   0  0  0  0  0  0  0  0  0  0  0  0
   58.9390   34.0830   46.2950 C   0  0  0  0  0  0  0  0  0  0  0  0
   58.9020   34.2450   47.6800 C   0  0  0  0  0  0  0  0  0  0  0  0
   60.0890   34.2370   48.4210 C   0  0  0  0  0  0  0  0  0  0  0  0
   62.3650   34.3100   50.1620 C   0  0  0  0  0  0  0  0  0  0  0  0
   61.9180   33.0430   50.9260 C   0  0  0  0  0  0  0  0  0  0  0  0
   60.7950   28.6470   49.0480 C   0  0  0  0  0  0  0  0  0  0  0  0
   60.2030   27.8770   48.0430 C   0  0  0  0  0  0  0  0  0  0  0  0
  1  2  2  0
  2  3  1  0
  3  4  2  3
  4  5  1  0
  5  6  2  0
  6  7  1  0
  6  8  1  0
  8  9  1  0
  9 10  2  0
  9 11  1  0
 11 12  1  0
 12 13  2  0
  3 14  1  0
 14 15  2  0
 15 16  1  0
 15 17  1  0
 17 18  1  0
 18 19  2  0
 19 20  1  0
 20 21  2  0
 21 22  1  0
 22 23  2  0
 22 24  1  0
 24 25  1  0
 25 26  1  0
 26 27  1  0
 27 28  1  0
 28 29  2  0
 29 30  1  0
 30 31  2  0
 31 32  1  0
 32 33  2  0
 27 34  1  0
 34 35  1  0
 21 36  1  0
 36 37  2  0
 17  2  1  0
 37 18  1  0
 12  5  1  0
 35 24  1  0
 33 28  1  0
M  CHG  3   7  -1   8  -1  11  -1
M  END
>  <UniqueID>  (876) 
72

>  <SMILES>  (876) 
C=c1c(=Cc2c([O-])[n-]c(=O)[n-]c2=O)cc(C)n1-c1ccc(C(=O)N2CCC(c3ccccc3)CC2)cc1

>  <Energy>  (876) 
125.23544113660304

>  <Genealogy>  (876) 
C=c1c(=Cc2c([O-])[n-]c(=O)[n-]c2=O)cc(C)n1-c1ccc(C(=O)N2CCC(c3ccccc3)CC2)cc1 (protonated)
C=c1c(=Cc2c([O-])[n-]c(=O)[n-]c2=O)cc(C)n1-c1ccc(C(=O)N2CCC(c3ccccc3)CC2)cc1 (3D coordinates assigned)
C=c1c(=Cc2c([O-])[n-]c(=O)[n-]c2=O)cc(C)n1-c1ccc(C(=O)N2CCC(c3ccccc3)CC2)cc1 (nonaromatic ring conformer: 125.23544113660304 kcal/mol)

>  <smiles>  (876) 
C=c1c(=Cc2c(O)[nH]c(=O)[nH]c2=O)cc(C)n1-c1ccc(C(=O)N2CCC(c3ccccc3)CC2)cc1

>  <score_type>  (876) 
oracle

>  <origin>  (876) 
adg

>  <m_score__min__energy>  (876) 
-17.41

>  <m_primary>  (876) 
energy

$$$$
26:0
     RDKit          3D

 29 31  0  0  0  0  0  0  0  0999 V2000
   61.3940   34.2230   48.8590 C   0  0  0  0  0  0  0  0  0  0  0  0
   60.0050   33.6610   48.8990 C   0  0  0  0  0  0  0  0  0  0  0  0
   59.3130   33.8530   49.9370 O   0  0  0  0  0  0  0  0  0  0  0  0
   59.4220   32.9260   47.7390 C   0  0  0  0  0  0  0  0  0  0  0  0
   59.1550   31.5490   47.8370 C   0  0  0  0  0  0  0  0  0  0  0  0
   58.6340   30.8680   46.7860 N   0  0  0  0  0  0  0  0  0  0  0  0
   58.3400   31.4650   45.6000 C   0  0  0  0  0  0  0  0  0  0  0  0
   57.8040   30.7090   44.5290 C   0  0  0  0  0  0  0  0  0  0  0  0
   57.5190   29.2570   44.6610 C   0  0  0  0  0  0  0  0  0  0  0  0
   57.2610   28.5720   43.6340 O   0  0  0  0  0  0  0  0  0  0  0  0
   57.5040   28.6330   45.9570 N   0  0  0  0  0  0  0  0  0  0  0  0
   57.5650   27.2090   46.1580 C   0  0  0  0  0  0  0  0  0  0  0  0
   58.7920   26.5660   46.3950 C   0  0  0  0  0  0  0  0  0  0  0  0
   58.8360   25.1880   46.6120 C   0  0  0  0  0  0  0  0  0  0  0  0
   57.6600   24.4370   46.6070 C   0  0  0  0  0  0  0  0  0  0  0  0
   56.4200   25.0630   46.3920 C   0  0  0  0  0  0  0  0  0  0  0  0
   55.1870   24.3290   46.3870 N   0  0  0  0  0  0  0  0  0  0  0  0
   54.6980   23.1710   45.1920 S   0  0  0  0  0  0  0  0  0  0  0  0
   55.8170   21.7860   45.1830 C   0  0  0  0  0  0  0  0  0  0  0  0
   54.7350   23.8290   43.8410 O   0  0  0  0  0  0  0  0  0  0  0  0
   53.2950   22.7080   45.4660 O   0  0  0  0  0  0  0  0  0  0  0  0
   56.3780   26.4510   46.1750 C   0  0  0  0  0  0  0  0  0  0  0  0
   55.1530   27.0740   45.9630 O   0  0  0  0  0  0  0  0  0  0  0  0
   57.5250   31.3570   43.3120 C   0  0  0  0  0  0  0  0  0  0  0  0
   57.7700   32.7210   43.1580 C   0  0  0  0  0  0  0  0  0  0  0  0
   58.3000   33.4660   44.2110 C   0  0  0  0  0  0  0  0  0  0  0  0
   58.5900   32.8480   45.4410 C   0  0  0  0  0  0  0  0  0  0  0  0
   59.1310   33.5780   46.5210 C   0  0  0  0  0  0  0  0  0  0  0  0
   59.3420   34.8150   46.3970 O   0  0  0  0  0  0  0  0  0  0  0  0
  1  2  1  0
  2  3  2  0
  2  4  1  0
  4  5  2  0
  5  6  1  0
  6  7  1  0
  7  8  2  0
  8  9  1  0
  9 10  2  0
  9 11  1  0
 11 12  1  0
 12 13  2  0
 13 14  1  0
 14 15  2  0
 15 16  1  0
 16 17  1  0
 17 18  1  0
 18 19  1  0
 18 20  2  0
 18 21  2  0
 16 22  2  0
 22 23  1  0
  8 24  1  0
 24 25  2  0
 25 26  1  0
 26 27  2  0
 27 28  1  0
 28 29  2  0
 28  4  1  0
 27  7  1  0
 22 12  1  0
M  CHG  3   6  -1  17  -1  23  -1
M  END
>  <UniqueID>  (877) 
24

>  <SMILES>  (877) 
CC(=O)c1c[n-]c2c(C(=O)Nc3cccc([N-]S(C)(=O)=O)c3[O-])cccc2c1=O

>  <Energy>  (877) 
60.65621667446214

>  <Genealogy>  (877) 
CC(=O)c1c[n-]c2c(C(=O)Nc3cccc([N-]S(C)(=O)=O)c3[O-])cccc2c1=O (protonated)
CC(=O)c1c[n-]c2c(C(=O)Nc3cccc([N-]S(C)(=O)=O)c3[O-])cccc2c1=O (3D coordinates assigned)
CC(=O)c1c[n-]c2c(C(=O)Nc3cccc([N-]S(C)(=O)=O)c3[O-])cccc2c1=O (optimized conformer: 60.65621667446214 kcal/mol)

>  <smiles>  (877) 
CC(=O)c1c[nH]c2c(C(=O)Nc3cccc(NS(C)(=O)=O)c3O)cccc2c1=O

>  <score_type>  (877) 
oracle

>  <origin>  (877) 
adg

>  <m_score__min__energy>  (877) 
-15.56

>  <m_primary>  (877) 
energy

$$$$
28:0
     RDKit          3D

 29 31  0  0  0  0  0  0  0  0999 V2000
   63.3680   33.8350   47.7460 C   0  0  0  0  0  0  0  0  0  0  0  0
   62.7570   33.7780   46.4940 C   0  0  0  0  0  0  0  0  0  0  0  0
   61.4590   33.2780   46.3710 C   0  0  0  0  0  0  0  0  0  0  0  0
   60.7530   32.8330   47.5010 C   0  0  0  0  0  0  0  0  0  0  0  0
   59.1460   32.1250   47.2690 S   0  0  0  0  0  0  0  0  0  0  0  0
   58.0850   33.1730   47.4590 O   0  0  0  0  0  0  0  0  0  0  0  0
   58.9480   31.0240   48.2740 O   0  0  0  0  0  0  0  0  0  0  0  0
   59.0280   31.4970   45.6580 N   0  0  0  0  0  0  0  0  0  0  0  0
   57.9340   31.0180   45.1500 C   0  0  0  0  0  0  0  0  0  0  0  0
   57.2040   30.0380   45.7310 N   0  0  0  0  0  0  0  0  0  0  0  0
   56.1760   29.8820   44.8740 C   0  0  0  0  0  0  0  0  0  0  0  0
   55.1470   28.9700   45.0640 O   0  0  0  0  0  0  0  0  0  0  0  0
   56.2870   30.7440   43.8070 C   0  0  0  0  0  0  0  0  0  0  0  0
   57.4130   31.4520   43.9820 N   0  0  0  0  0  0  0  0  0  0  0  0
   57.9020   32.5350   43.1350 C   0  0  0  0  0  0  0  0  0  0  0  0
   61.3650   32.9150   48.7790 C   0  0  0  0  0  0  0  0  0  0  0  0
   60.6690   32.5090   50.0190 C   0  0  0  0  0  0  0  0  0  0  0  0
   61.3180   31.9480   50.9430 O   0  0  0  0  0  0  0  0  0  0  0  0
   59.2660   32.7750   50.1750 N   0  0  0  0  0  0  0  0  0  0  0  0
   58.4900   32.3460   51.3080 C   0  0  0  0  0  0  0  0  0  0  0  0
   58.8420   32.7910   52.5880 C   0  0  0  0  0  0  0  0  0  0  0  0
   58.1020   32.3920   53.7010 C   0  0  0  0  0  0  0  0  0  0  0  0
   56.9930   31.5580   53.5460 C   0  0  0  0  0  0  0  0  0  0  0  0
   56.6010   31.1180   52.2680 C   0  0  0  0  0  0  0  0  0  0  0  0
   55.4110   30.2440   52.0820 C   0  0  0  0  0  0  0  0  0  0  0  0
   55.5030   29.0060   52.3050 O   0  0  0  0  0  0  0  0  0  0  0  0
   54.0880   30.7900   51.6360 C   0  0  0  0  0  0  0  0  0  0  0  0
   57.3570   31.5270   51.1510 C   0  0  0  0  0  0  0  0  0  0  0  0
   62.6780   33.4050   48.8810 C   0  0  0  0  0  0  0  0  0  0  0  0
  1  2  2  0
  2  3  1  0
  3  4  2  0
  4  5  1  0
  5  6  2  0
  5  7  2  0
  5  8  1  0
  8  9  2  0
  9 10  1  0
 10 11  1  0
 11 12  1  0
 11 13  2  0
 13 14  1  0
 14 15  1  0
  4 16  1  0
 16 17  1  0
 17 18  2  0
 17 19  1  0
 19 20  1  0
 20 21  2  0
 21 22  1  0
 22 23  2  0
 23 24  1  0
 24 25  1  0
 25 26  2  0
 25 27  1  0
 24 28  2  0
 16 29  2  0
 29  1  1  0
 14  9  1  0
 28 20  1  0
M  CHG  2  10  -1  12  -1
M  END
>  <UniqueID>  (878) 
26

>  <SMILES>  (878) 
CC(=O)c1cccc(NC(=O)c2ccccc2S(=O)(=O)/N=c2\[n-]c([O-])cn2C)c1

>  <Energy>  (878) 
89.86992454722204

>  <Genealogy>  (878) 
CC(=O)c1cccc(NC(=O)c2ccccc2S(=O)(=O)N=c2[n-]c([O-])cn2C)c1 (protonated)
CC(=O)c1cccc(NC(=O)c2ccccc2S(=O)(=O)/N=c2\[n-]c([O-])cn2C)c1 (cis-trans isomerization)
CC(=O)c1cccc(NC(=O)c2ccccc2S(=O)(=O)/N=c2\[n-]c([O-])cn2C)c1 (3D coordinates assigned)
CC(=O)c1cccc(NC(=O)c2ccccc2S(=O)(=O)/N=c2\[n-]c([O-])cn2C)c1 (optimized conformer: 89.86992454722204 kcal/mol)

>  <smiles>  (878) 
CC(=O)c1cccc(NC(=O)c2ccccc2S(=O)(=O)N=c2[nH]c(O)cn2C)c1

>  <score_type>  (878) 
oracle

>  <origin>  (878) 
adg

>  <m_score__min__energy>  (878) 
-14.550000000000001

>  <m_primary>  (878) 
energy

$$$$
39:0
     RDKit          3D

 27 30  0  0  0  0  0  0  0  0999 V2000
   58.1770   28.6880   46.9920 C   0  0  0  0  0  0  0  0  0  0  0  0
   57.9920   28.9430   45.6870 C   0  0  0  0  0  0  0  0  0  0  0  0
   57.6940   28.0180   44.6720 C   0  0  0  0  0  0  0  0  0  0  0  0
   57.6870   26.6710   44.6760 C   0  0  0  0  0  0  0  0  0  0  0  0
   57.2260   25.8180   45.7840 C   0  0  0  0  0  0  0  0  0  0  0  0
   57.9280   24.7930   46.3040 N   0  0  0  0  0  0  0  0  0  0  0  0
   57.0590   24.2340   47.1750 C   0  0  0  0  0  0  0  0  0  0  0  0
   57.3580   23.2360   47.8820 O   0  0  0  0  0  0  0  0  0  0  0  0
   55.8430   24.8190   47.2190 N   0  0  0  0  0  0  0  0  0  0  0  0
   55.9620   25.8110   46.3210 C   0  0  0  0  0  0  0  0  0  0  0  0
   54.9350   26.6870   45.9960 O   0  0  0  0  0  0  0  0  0  0  0  0
   57.4010   28.7640   43.5420 C   0  0  0  0  0  0  0  0  0  0  0  0
   57.5860   30.0900   43.8780 C   0  0  0  0  0  0  0  0  0  0  0  0
   57.3840   31.2450   42.9450 C   0  0  0  0  0  0  0  0  0  0  0  0
   57.9520   30.1990   45.1730 N   0  0  0  0  0  0  0  0  0  0  0  0
   58.1460   31.4380   45.8770 C   0  0  0  0  0  0  0  0  0  0  0  0
   57.3470   32.5480   45.5760 C   0  0  0  0  0  0  0  0  0  0  0  0
   57.5210   33.7450   46.2730 C   0  0  0  0  0  0  0  0  0  0  0  0
   58.4950   33.8420   47.2710 C   0  0  0  0  0  0  0  0  0  0  0  0
   59.3190   32.7410   47.5730 C   0  0  0  0  0  0  0  0  0  0  0  0
   60.3070   32.8310   48.6270 N   0  0  0  0  0  0  0  0  0  0  0  0
   61.6650   33.2340   48.1900 C   0  0  0  0  0  0  0  0  0  0  0  0
   61.7290   33.9230   46.8300 C   0  0  0  0  0  0  0  0  0  0  0  0
   63.1900   33.8040   46.4080 C   0  0  0  0  0  0  0  0  0  0  0  0
   63.7870   32.6360   47.2010 C   0  0  0  0  0  0  0  0  0  0  0  0
   62.6740   32.0930   48.0920 C   0  0  0  0  0  0  0  0  0  0  0  0
   59.1170   31.5320   46.8840 C   0  0  0  0  0  0  0  0  0  0  0  0
  1  2  2  0
  2  3  1  0
  3  4  2  3
  4  5  1  0
  5  6  1  0
  6  7  1  0
  7  8  2  0
  7  9  1  0
  9 10  1  0
 10 11  1  0
  3 12  1  0
 12 13  2  0
 13 14  1  0
 13 15  1  0
 15 16  1  0
 16 17  2  0
 17 18  1  0
 18 19  2  0
 19 20  1  0
 20 21  1  0
 21 22  1  0
 22 23  1  0
 23 24  1  0
 24 25  1  0
 25 26  1  0
 20 27  2  0
 15  2  1  0
 27 16  1  0
 10  5  2  0
 26 22  1  0
M  CHG  4   6  -1   9  -1  11  -1  21   1
M  END
>  <UniqueID>  (879) 
36

>  <SMILES>  (879) 
C=c1c(=Cc2[n-]c(=O)[n-]c2[O-])cc(C)n1-c1cccc([NH2+]C2CCCC2)c1

>  <Energy>  (879) 
132.97054619336373

>  <Genealogy>  (879) 
C=c1c(=Cc2[n-]c(=O)[n-]c2[O-])cc(C)n1-c1cccc([NH2+]C2CCCC2)c1 (protonated)
C=c1c(=Cc2[n-]c(=O)[n-]c2[O-])cc(C)n1-c1cccc([NH2+]C2CCCC2)c1 (3D coordinates assigned)
C=c1c(=Cc2[n-]c(=O)[n-]c2[O-])cc(C)n1-c1cccc([NH2+]C2CCCC2)c1 (nonaromatic ring conformer: 132.97054619336373 kcal/mol)

>  <smiles>  (879) 
C=c1c(=Cc2[nH]c(=O)[nH]c2O)cc(C)n1-c1cccc(NC2CCCC2)c1

>  <score_type>  (879) 
oracle

>  <origin>  (879) 
adg

>  <m_score__min__energy>  (879) 
-15.34

>  <m_primary>  (879) 
energy

$$$$
40:0
     RDKit          3D

 25 26  0  0  0  0  0  0  0  0999 V2000
   56.6600   22.0200   43.7980 C   0  0  0  0  0  0  0  0  0  0  0  0
   56.7850   23.4390   44.2540 C   0  0  0  0  0  0  0  0  0  0  0  0
   57.3800   24.3960   43.4310 C   0  0  0  0  0  0  0  0  0  0  0  0
   57.5150   25.7200   43.8750 C   0  0  0  0  0  0  0  0  0  0  0  0
   58.1490   26.7320   42.9550 C   0  0  0  0  0  0  0  0  0  0  0  0
   57.0170   26.0770   45.1550 C   0  0  0  0  0  0  0  0  0  0  0  0
   57.0970   27.5080   45.6600 C   0  0  0  0  0  0  0  0  0  0  0  0
   55.9110   28.2590   45.2620 N   0  0  0  0  0  0  0  0  0  0  0  0
   55.9710   29.5070   44.5700 C   0  0  0  0  0  0  0  0  0  0  0  0
   55.0770   29.7900   43.7290 O   0  0  0  0  0  0  0  0  0  0  0  0
   57.0330   30.4290   44.8360 N   0  0  0  0  0  0  0  0  0  0  0  0
   57.1720   31.7120   44.1600 C   0  0  0  0  0  0  0  0  0  0  0  0
   57.9780   32.6440   45.0210 C   0  0  0  0  0  0  0  0  0  0  0  0
   58.4370   33.8660   44.5050 C   0  0  0  0  0  0  0  0  0  0  0  0
   59.1310   34.7590   45.3250 C   0  0  0  0  0  0  0  0  0  0  0  0
   59.3710   34.4420   46.6640 C   0  0  0  0  0  0  0  0  0  0  0  0
   58.9080   33.2300   47.1940 C   0  0  0  0  0  0  0  0  0  0  0  0
   59.1920   32.8180   48.8830 S   0  0  0  0  0  0  0  0  0  0  0  0
   59.6870   34.2260   49.7540 N   0  0  0  0  0  0  0  0  0  0  0  0
   60.2720   31.7770   48.9900 O   0  0  0  0  0  0  0  0  0  0  0  0
   57.9260   32.2710   49.4820 O   0  0  0  0  0  0  0  0  0  0  0  0
   58.2080   32.3370   46.3720 C   0  0  0  0  0  0  0  0  0  0  0  0
   56.4240   25.0700   45.9480 C   0  0  0  0  0  0  0  0  0  0  0  0
   55.9720   25.3310   47.0940 O   0  0  0  0  0  0  0  0  0  0  0  0
   56.3320   23.7970   45.4830 N   0  0  0  0  0  0  0  0  0  0  0  0
  1  2  1  0
  2  3  2  0
  3  4  1  0
  4  5  1  0
  4  6  2  0
  6  7  1  0
  7  8  1  0
  8  9  1  0
  9 10  2  0
  9 11  1  0
 11 12  1  0
 12 13  1  0
 13 14  2  0
 14 15  1  0
 15 16  2  0
 16 17  1  0
 17 18  1  0
 18 19  1  0
 18 20  2  0
 18 21  2  0
 17 22  2  0
  6 23  1  0
 23 24  2  0
 23 25  1  0
 25  2  1  0
 22 13  1  0
M  CHG  4   8  -1  11  -1  19  -1  25  -1
M  END
>  <UniqueID>  (880) 
37

>  <SMILES>  (880) 
Cc1cc(C)c(C[N-]C(=O)[N-]Cc2cccc(S([NH-])(=O)=O)c2)c(=O)[n-]1

>  <Energy>  (880) 
33.715274414077044

>  <Genealogy>  (880) 
Cc1cc(C)c(C[N-]C(=O)[N-]Cc2cccc(S([NH-])(=O)=O)c2)c(=O)[n-]1 (protonated)
Cc1cc(C)c(C[N-]C(=O)[N-]Cc2cccc(S([NH-])(=O)=O)c2)c(=O)[n-]1 (3D coordinates assigned)
Cc1cc(C)c(C[N-]C(=O)[N-]Cc2cccc(S([NH-])(=O)=O)c2)c(=O)[n-]1 (optimized conformer: 33.715274414077044 kcal/mol)

>  <smiles>  (880) 
Cc1cc(C)c(CNC(=O)NCc2cccc(S(N)(=O)=O)c2)c(=O)[nH]1

>  <score_type>  (880) 
oracle

>  <origin>  (880) 
adg

>  <m_score__min__energy>  (880) 
-15.130000000000001

>  <m_primary>  (880) 
energy

$$$$
51:0
     RDKit          3D

 30 32  0  0  0  0  0  0  0  0999 V2000
   57.7840   33.1060   44.0760 C   0  0  0  0  0  0  0  0  0  0  0  0
   57.4750   33.4260   45.4290 O   0  0  0  0  0  0  0  0  0  0  0  0
   58.4240   33.5150   46.4600 C   0  0  0  0  0  0  0  0  0  0  0  0
   59.6430   34.1510   46.1880 C   0  0  0  0  0  0  0  0  0  0  0  0
   60.6230   34.2610   47.1770 C   0  0  0  0  0  0  0  0  0  0  0  0
   60.3930   33.7380   48.4530 C   0  0  0  0  0  0  0  0  0  0  0  0
   59.1730   33.1140   48.7520 C   0  0  0  0  0  0  0  0  0  0  0  0
   58.9440   32.5300   50.1170 C   0  0  0  0  0  0  0  0  0  0  0  0
   60.0070   31.5730   50.4270 N   0  0  0  0  0  0  0  0  0  0  0  0
   59.4880   29.9660   50.0160 S   0  0  0  0  0  0  0  0  0  0  0  0
   60.3890   28.9590   50.6790 O   0  0  0  0  0  0  0  0  0  0  0  0
   58.0830   29.7550   50.5060 O   0  0  0  0  0  0  0  0  0  0  0  0
   59.5170   29.7640   48.2670 C   0  0  0  0  0  0  0  0  0  0  0  0
   60.7310   29.7170   47.5730 C   0  0  0  0  0  0  0  0  0  0  0  0
   60.7370   29.6040   46.1820 C   0  0  0  0  0  0  0  0  0  0  0  0
   59.5350   29.5330   45.4720 C   0  0  0  0  0  0  0  0  0  0  0  0
   59.5860   29.4240   44.1200 F   0  0  0  0  0  0  0  0  0  0  0  0
   58.3010   29.5710   46.1570 C   0  0  0  0  0  0  0  0  0  0  0  0
   57.0090   29.5010   45.4270 C   0  0  0  0  0  0  0  0  0  0  0  0
   56.5400   30.5310   44.8710 O   0  0  0  0  0  0  0  0  0  0  0  0
   56.3000   28.2500   45.3530 N   0  0  0  0  0  0  0  0  0  0  0  0
   56.7200   27.0800   45.7440 C   0  0  0  0  0  0  0  0  0  0  0  0
   58.0520   26.8000   45.8360 N   0  0  0  0  0  0  0  0  0  0  0  0
   58.5070   25.5790   46.2300 C   0  0  0  0  0  0  0  0  0  0  0  0
   57.6030   24.5660   46.5470 C   0  0  0  0  0  0  0  0  0  0  0  0
   56.2340   24.8230   46.4640 C   0  0  0  0  0  0  0  0  0  0  0  0
   55.7840   26.0840   46.0630 C   0  0  0  0  0  0  0  0  0  0  0  0
   54.4200   26.3410   45.9870 O   0  0  0  0  0  0  0  0  0  0  0  0
   58.3090   29.6910   47.5610 C   0  0  0  0  0  0  0  0  0  0  0  0
   58.1950   32.9920   47.7480 C   0  0  0  0  0  0  0  0  0  0  0  0
  1  2  1  0
  2  3  1  0
  3  4  2  0
  4  5  1  0
  5  6  2  0
  6  7  1  0
  7  8  1  0
  8  9  1  0
  9 10  1  0
 10 11  2  0
 10 12  2  0
 10 13  1  0
 13 14  2  0
 14 15  1  0
 15 16  2  0
 16 17  1  0
 16 18  1  0
 18 19  1  0
 19 20  2  0
 19 21  1  0
 21 22  2  3
 22 23  1  0
 23 24  1  0
 24 25  2  0
 25 26  1  0
 26 27  2  0
 27 28  1  0
 18 29  2  0
  7 30  2  0
 30  3  1  0
 29 13  1  0
 27 22  1  0
M  CHG  2  23  -1  28  -1
M  END
>  <UniqueID>  (881) 
47

>  <SMILES>  (881) 
COc1cccc(CNS(=O)(=O)c2ccc(F)c(C(=O)N=c3[n-]cccc3[O-])c2)c1

>  <Energy>  (881) 
50.73276501800022

>  <Genealogy>  (881) 
COc1cccc(CNS(=O)(=O)c2ccc(F)c(C(=O)N=c3[n-]cccc3[O-])c2)c1 (protonated)
COc1cccc(CNS(=O)(=O)c2ccc(F)c(C(=O)N=c3[n-]cccc3[O-])c2)c1 (3D coordinates assigned)
COc1cccc(CNS(=O)(=O)c2ccc(F)c(C(=O)N=c3[n-]cccc3[O-])c2)c1 (optimized conformer: 50.73276501800022 kcal/mol)

>  <smiles>  (881) 
COc1cccc(CNS(=O)(=O)c2ccc(F)c(C(=O)N=c3[nH]cccc3O)c2)c1

>  <score_type>  (881) 
oracle

>  <origin>  (881) 
adg

>  <m_score__min__energy>  (881) 
-14.699999999999999

>  <m_primary>  (881) 
energy

$$$$
88:0
     RDKit          3D

 28 30  0  0  0  0  0  0  0  0999 V2000
   59.6130   26.4090   47.2510 C   0  0  0  0  0  0  0  0  0  0  0  0
   58.3170   26.8950   46.6710 C   0  0  0  0  0  0  0  0  0  0  0  0
   57.2760   26.0240   46.6210 N   0  0  0  0  0  0  0  0  0  0  0  0
   56.0760   26.3800   46.1020 C   0  0  0  0  0  0  0  0  0  0  0  0
   55.1330   25.5470   46.0690 O   0  0  0  0  0  0  0  0  0  0  0  0
   55.8920   27.6310   45.6150 N   0  0  0  0  0  0  0  0  0  0  0  0
   56.8900   28.5490   45.6430 C   0  0  0  0  0  0  0  0  0  0  0  0
   56.6790   29.6950   45.1630 O   0  0  0  0  0  0  0  0  0  0  0  0
   58.1420   28.2180   46.1960 C   0  0  0  0  0  0  0  0  0  0  0  0
   59.4620   29.4090   46.2200 S   0  0  0  0  0  0  0  0  0  0  0  0
   59.9490   29.6530   44.8190 O   0  0  0  0  0  0  0  0  0  0  0  0
   60.6120   28.9060   47.0450 O   0  0  0  0  0  0  0  0  0  0  0  0
   58.8530   30.8760   46.9130 N   0  0  0  0  0  0  0  0  0  0  0  0
   58.6090   32.1030   46.2080 C   0  0  0  0  0  0  0  0  0  0  0  0
   58.0650   32.1080   44.9100 C   0  0  0  0  0  0  0  0  0  0  0  0
   57.8130   33.3150   44.2540 C   0  0  0  0  0  0  0  0  0  0  0  0
   58.1080   34.5270   44.8790 C   0  0  0  0  0  0  0  0  0  0  0  0
   58.6650   34.5350   46.1580 C   0  0  0  0  0  0  0  0  0  0  0  0
   58.9220   33.3300   46.8310 C   0  0  0  0  0  0  0  0  0  0  0  0
   59.6930   33.3700   48.4230 S   0  0  0  0  0  0  0  0  0  0  0  0
   59.1770   32.2360   49.2680 O   0  0  0  0  0  0  0  0  0  0  0  0
   59.3350   34.6700   49.0880 O   0  0  0  0  0  0  0  0  0  0  0  0
   61.4300   33.2450   48.2840 N   0  0  0  0  0  0  0  0  0  0  0  0
   61.8330   31.8340   48.4090 C   0  0  0  0  0  0  0  0  0  0  0  0
   63.3650   31.7100   48.4970 C   0  0  0  0  0  0  0  0  0  0  0  0
   64.0870   32.9260   47.8980 C   0  0  0  0  0  0  0  0  0  0  0  0
   63.3450   33.4600   46.6700 C   0  0  0  0  0  0  0  0  0  0  0  0
   61.8730   33.8040   46.9880 C   0  0  0  0  0  0  0  0  0  0  0  0
  1  2  1  0
  2  3  1  0
  3  4  1  0
  4  5  2  0
  4  6  1  0
  6  7  1  0
  7  8  2  0
  7  9  1  0
  9 10  1  0
 10 11  2  0
 10 12  2  0
 10 13  1  0
 13 14  1  0
 14 15  2  0
 15 16  1  0
 16 17  2  0
 17 18  1  0
 18 19  2  0
 19 20  1  0
 20 21  2  0
 20 22  2  0
 20 23  1  0
 23 24  1  0
 24 25  1  0
 25 26  1  0
 26 27  1  0
 27 28  1  0
  9  2  2  0
 19 14  1  0
 28 23  1  0
M  CHG  3   3  -1   6  -1  13  -1
M  END
>  <UniqueID>  (882) 
81

>  <SMILES>  (882) 
Cc1[n-]c(=O)[n-]c(=O)c1S(=O)(=O)[N-]c1ccccc1S(=O)(=O)N1CCCCC1

>  <Energy>  (882) 
54.870668284680605

>  <Genealogy>  (882) 
Cc1[n-]c(=O)[n-]c(=O)c1S(=O)(=O)[N-]c1ccccc1S(=O)(=O)N1CCCCC1 (protonated)
Cc1[n-]c(=O)[n-]c(=O)c1S(=O)(=O)[N-]c1ccccc1S(=O)(=O)N1CCCCC1 (3D coordinates assigned)
Cc1[n-]c(=O)[n-]c(=O)c1S(=O)(=O)[N-]c1ccccc1S(=O)(=O)N1CCCCC1 (nonaromatic ring conformer: 54.870668284680605 kcal/mol)

>  <smiles>  (882) 
Cc1[nH]c(=O)[nH]c(=O)c1S(=O)(=O)Nc1ccccc1S(=O)(=O)N1CCCCC1

>  <score_type>  (882) 
oracle

>  <origin>  (882) 
adg

>  <m_score__min__energy>  (882) 
-14.82

>  <m_primary>  (882) 
energy

$$$$
89:0
     RDKit          3D

 37 40  0  0  0  0  0  0  0  0999 V2000
   58.3520   28.6140   44.7830 C   0  0  0  0  0  0  0  0  0  0  0  0
   58.5070   29.7900   45.4350 C   0  0  0  0  0  0  0  0  0  0  0  0
   59.2240   29.7940   46.7440 C   0  0  0  0  0  0  0  0  0  0  0  0
   58.6520   29.3250   47.7660 O   0  0  0  0  0  0  0  0  0  0  0  0
   60.5470   30.3430   46.8780 N   0  0  0  0  0  0  0  0  0  0  0  0
   61.1870   30.5160   48.1810 C   0  0  0  0  0  0  0  0  0  0  0  0
   62.1820   31.6450   48.1220 C   0  0  0  0  0  0  0  0  0  0  0  0
   62.0940   32.6090   47.1010 C   0  0  0  0  0  0  0  0  0  0  0  0
   62.9960   33.6770   47.0600 C   0  0  0  0  0  0  0  0  0  0  0  0
   63.9940   33.7900   48.0350 C   0  0  0  0  0  0  0  0  0  0  0  0
   64.0910   32.8330   49.0510 C   0  0  0  0  0  0  0  0  0  0  0  0
   63.1880   31.7640   49.0970 C   0  0  0  0  0  0  0  0  0  0  0  0
   57.8650   31.3290   44.7950 S   0  0  0  0  0  0  0  0  0  0  0  0
   56.3650   31.4120   44.8540 O   0  0  0  0  0  0  0  0  0  0  0  0
   58.2750   31.4360   43.3510 O   0  0  0  0  0  0  0  0  0  0  0  0
   58.5110   32.6930   45.7110 C   0  0  0  0  0  0  0  0  0  0  0  0
   59.1180   33.7700   45.0470 C   0  0  0  0  0  0  0  0  0  0  0  0
   59.5820   34.8720   45.7730 C   0  0  0  0  0  0  0  0  0  0  0  0
   59.4400   34.9070   47.1640 C   0  0  0  0  0  0  0  0  0  0  0  0
   58.8570   33.8270   47.8320 C   0  0  0  0  0  0  0  0  0  0  0  0
   58.3920   32.7230   47.1090 C   0  0  0  0  0  0  0  0  0  0  0  0
   57.5610   27.4760   45.2830 C   0  0  0  0  0  0  0  0  0  0  0  0
   56.1890   27.6010   45.5120 C   0  0  0  0  0  0  0  0  0  0  0  0
   55.5310   28.7960   45.2470 O   0  0  0  0  0  0  0  0  0  0  0  0
   55.4930   26.5530   46.0130 N   0  0  0  0  0  0  0  0  0  0  0  0
   56.0970   25.3710   46.2990 C   0  0  0  0  0  0  0  0  0  0  0  0
   55.4020   24.4380   46.7860 O   0  0  0  0  0  0  0  0  0  0  0  0
   57.4370   25.1990   46.0560 N   0  0  0  0  0  0  0  0  0  0  0  0
   58.1110   23.9420   46.4380 C   0  0  0  0  0  0  0  0  0  0  0  0
   57.6460   22.8140   45.5520 C   0  0  0  0  0  0  0  0  0  0  0  0
   57.4120   23.0400   44.1850 C   0  0  0  0  0  0  0  0  0  0  0  0
   56.9290   22.0090   43.3720 C   0  0  0  0  0  0  0  0  0  0  0  0
   56.6730   20.7460   43.9180 C   0  0  0  0  0  0  0  0  0  0  0  0
   56.9000   20.5130   45.2780 C   0  0  0  0  0  0  0  0  0  0  0  0
   57.3820   21.5410   46.0940 C   0  0  0  0  0  0  0  0  0  0  0  0
   58.1650   26.2330   45.5200 C   0  0  0  0  0  0  0  0  0  0  0  0
   59.3850   26.0750   45.2320 O   0  0  0  0  0  0  0  0  0  0  0  0
  1  2  2  0
  2  3  1  0
  3  4  2  0
  3  5  1  0
  5  6  1  0
  6  7  1  0
  7  8  2  0
  8  9  1  0
  9 10  2  0
 10 11  1  0
 11 12  2  0
  2 13  1  0
 13 14  2  0
 13 15  2  0
 13 16  1  0
 16 17  2  0
 17 18  1  0
 18 19  2  0
 19 20  1  0
 20 21  2  0
  1 22  1  0
 22 23  2  0
 23 24  1  0
 23 25  1  0
 25 26  1  0
 26 27  2  0
 26 28  1  0
 28 29  1  0
 29 30  1  0
 30 31  2  0
 31 32  1  0
 32 33  2  0
 33 34  1  0
 34 35  2  0
 28 36  1  0
 36 37  2  0
 12  7  1  0
 21 16  1  0
 36 22  1  0
 35 30  1  0
M  CHG  2  24  -1  25  -1
M  END
>  <UniqueID>  (883) 
82

>  <SMILES>  (883) 
O=C(NCc1ccccc1)/C(=C/c1c([O-])[n-]c(=O)n(Cc2ccccc2)c1=O)S(=O)(=O)c1ccccc1

>  <Energy>  (883) 
76.27057036577537

>  <Genealogy>  (883) 
O=C(NCc1ccccc1)C(=Cc1c([O-])[n-]c(=O)n(Cc2ccccc2)c1=O)S(=O)(=O)c1ccccc1 (protonated)
O=C(NCc1ccccc1)/C(=C/c1c([O-])[n-]c(=O)n(Cc2ccccc2)c1=O)S(=O)(=O)c1ccccc1 (cis-trans isomerization)
O=C(NCc1ccccc1)/C(=C/c1c([O-])[n-]c(=O)n(Cc2ccccc2)c1=O)S(=O)(=O)c1ccccc1 (3D coordinates assigned)
O=C(NCc1ccccc1)/C(=C/c1c([O-])[n-]c(=O)n(Cc2ccccc2)c1=O)S(=O)(=O)c1ccccc1 (optimized conformer: 76.27057036577537 kcal/mol)

>  <smiles>  (883) 
O=C(NCc1ccccc1)C(=Cc1c(O)[nH]c(=O)n(Cc2ccccc2)c1=O)S(=O)(=O)c1ccccc1

>  <score_type>  (883) 
oracle

>  <origin>  (883) 
adg

>  <m_score__min__energy>  (883) 
-16.489999999999998

>  <m_primary>  (883) 
energy

$$$$
1:0
     RDKit          3D

 25 26  0  0  0  0  0  0  0  0999 V2000
   55.1440   29.3590   44.8320 N   0  0  0  0  0  0  0  0  0  0  0  0
   56.5930   29.7290   43.9670 S   0  0  0  0  0  0  0  0  0  0  0  0
   57.3250   28.4580   43.6440 O   0  0  0  0  0  0  0  0  0  0  0  0
   56.2380   30.4240   42.6820 O   0  0  0  0  0  0  0  0  0  0  0  0
   57.6210   30.7620   44.9570 C   0  0  0  0  0  0  0  0  0  0  0  0
   57.6490   32.1410   44.7210 C   0  0  0  0  0  0  0  0  0  0  0  0
   58.4680   32.9680   45.4930 C   0  0  0  0  0  0  0  0  0  0  0  0
   59.2650   32.4230   46.5020 C   0  0  0  0  0  0  0  0  0  0  0  0
   59.2510   31.0390   46.7520 C   0  0  0  0  0  0  0  0  0  0  0  0
   60.0990   30.4570   47.8180 C   0  0  0  0  0  0  0  0  0  0  0  0
   60.0610   30.9280   48.9870 O   0  0  0  0  0  0  0  0  0  0  0  0
   60.9700   29.3620   47.5220 N   0  0  0  0  0  0  0  0  0  0  0  0
   60.4960   28.0710   47.0460 C   0  0  0  0  0  0  0  0  0  0  0  0
   59.6990   27.4080   48.1270 C   0  0  0  0  0  0  0  0  0  0  0  0
   60.1500   27.3860   49.3030 O   0  0  0  0  0  0  0  0  0  0  0  0
   58.4140   26.8320   47.8680 N   0  0  0  0  0  0  0  0  0  0  0  0
   57.5720   27.1800   46.7290 C   0  0  0  0  0  0  0  0  0  0  0  0
   57.1390   25.9230   46.0280 C   0  0  0  0  0  0  0  0  0  0  0  0
   58.0840   24.9340   45.7120 C   0  0  0  0  0  0  0  0  0  0  0  0
   57.6840   23.7470   45.0920 C   0  0  0  0  0  0  0  0  0  0  0  0
   56.3360   23.5330   44.7900 C   0  0  0  0  0  0  0  0  0  0  0  0
   55.3850   24.5030   45.1150 C   0  0  0  0  0  0  0  0  0  0  0  0
   55.7780   25.6940   45.7380 C   0  0  0  0  0  0  0  0  0  0  0  0
   54.8140   26.6420   46.0670 O   0  0  0  0  0  0  0  0  0  0  0  0
   58.4250   30.2130   45.9660 C   0  0  0  0  0  0  0  0  0  0  0  0
  1  2  1  0
  2  3  2  0
  2  4  2  0
  2  5  1  0
  5  6  2  0
  6  7  1  0
  7  8  2  0
  8  9  1  0
  9 10  1  0
 10 11  2  0
 10 12  1  0
 12 13  1  0
 13 14  1  0
 14 15  2  0
 14 16  1  0
 16 17  1  0
 17 18  1  0
 18 19  2  0
 19 20  1  0
 20 21  2  0
 21 22  1  0
 22 23  2  0
 23 24  1  0
  9 25  2  0
 25  5  1  0
 23 18  1  0
M  CHG  4   1  -1  12  -1  16  -1  24  -1
M  END
>  <UniqueID>  (884) 
2

>  <SMILES>  (884) 
[NH-]S(=O)(=O)c1cccc(C(=O)[N-]CC(=O)[N-]Cc2ccccc2[O-])c1

>  <Energy>  (884) 
33.26285229594201

>  <Genealogy>  (884) 
[NH-]S(=O)(=O)c1cccc(C(=O)[N-]CC(=O)[N-]Cc2ccccc2[O-])c1 (protonated)
[NH-]S(=O)(=O)c1cccc(C(=O)[N-]CC(=O)[N-]Cc2ccccc2[O-])c1 (3D coordinates assigned)
[NH-]S(=O)(=O)c1cccc(C(=O)[N-]CC(=O)[N-]Cc2ccccc2[O-])c1 (optimized conformer: 33.26285229594201 kcal/mol)

>  <smiles>  (884) 
NS(=O)(=O)c1cccc(C(=O)NCC(=O)NCc2ccccc2O)c1

>  <score_type>  (884) 
oracle

>  <origin>  (884) 
adg

>  <m_score__min__energy>  (884) 
-15.76

>  <m_primary>  (884) 
energy

$$$$
25:0
     RDKit          3D

 23 24  0  0  0  0  0  0  0  0999 V2000
   55.7220   28.9770   52.0100 O   0  0  0  0  0  0  0  0  0  0  0  0
   55.1170   29.7300   52.8220 C   0  0  0  0  0  0  0  0  0  0  0  0
   55.4200   31.1950   52.8420 C   0  0  0  0  0  0  0  0  0  0  0  0
   56.8580   31.4310   52.4670 C   0  0  0  0  0  0  0  0  0  0  0  0
   57.8530   31.4570   53.4560 C   0  0  0  0  0  0  0  0  0  0  0  0
   59.1820   31.7260   53.1120 C   0  0  0  0  0  0  0  0  0  0  0  0
   59.5240   31.9860   51.7810 C   0  0  0  0  0  0  0  0  0  0  0  0
   60.8470   32.2560   51.4520 O   0  0  0  0  0  0  0  0  0  0  0  0
   58.5330   31.9750   50.7890 C   0  0  0  0  0  0  0  0  0  0  0  0
   58.9730   32.3490   48.9640 Br  0  0  0  0  0  0  0  0  0  0  0  0
   57.2050   31.7000   51.1330 C   0  0  0  0  0  0  0  0  0  0  0  0
   54.1620   29.2220   53.7110 O   0  0  0  0  0  0  0  0  0  0  0  0
   52.7730   29.3540   53.5730 C   0  0  0  0  0  0  0  0  0  0  0  0
   51.9900   28.7730   54.3740 O   0  0  0  0  0  0  0  0  0  0  0  0
   52.2290   30.1830   52.4740 C   0  0  0  0  0  0  0  0  0  0  0  0
   52.2320   29.7120   51.1490 C   0  0  0  0  0  0  0  0  0  0  0  0
   51.7110   30.4990   50.1160 C   0  0  0  0  0  0  0  0  0  0  0  0
   51.7220   30.0210   48.8110 O   0  0  0  0  0  0  0  0  0  0  0  0
   51.1820   31.7650   50.3960 C   0  0  0  0  0  0  0  0  0  0  0  0
   50.6650   32.5460   49.3690 O   0  0  0  0  0  0  0  0  0  0  0  0
   51.1740   32.2410   51.7120 C   0  0  0  0  0  0  0  0  0  0  0  0
   50.6480   33.4960   51.9960 O   0  0  0  0  0  0  0  0  0  0  0  0
   51.6940   31.4560   52.7460 C   0  0  0  0  0  0  0  0  0  0  0  0
  1  2  2  0
  2  3  1  0
  3  4  1  0
  4  5  2  0
  5  6  1  0
  6  7  2  0
  7  8  1  0
  7  9  1  0
  9 10  1  0
  9 11  2  0
  2 12  1  0
 12 13  1  0
 13 14  2  0
 13 15  1  0
 15 16  2  0
 16 17  1  0
 17 18  1  0
 17 19  2  0
 19 20  1  0
 19 21  1  0
 21 22  1  0
 21 23  2  0
 11  4  1  0
 23 15  1  0
M  CHG  4   8  -1  18  -1  20  -1  22  -1
M  END
>  <UniqueID>  (885) 
25

>  <SMILES>  (885) 
O=C(Cc1ccc([O-])c(Br)c1)OC(=O)c1cc([O-])c([O-])c([O-])c1

>  <Energy>  (885) 
31.052879634074383

>  <Genealogy>  (885) 
O=C(Cc1ccc([O-])c(Br)c1)OC(=O)c1cc([O-])c([O-])c([O-])c1 (protonated)
O=C(Cc1ccc([O-])c(Br)c1)OC(=O)c1cc([O-])c([O-])c([O-])c1 (3D coordinates assigned)
O=C(Cc1ccc([O-])c(Br)c1)OC(=O)c1cc([O-])c([O-])c([O-])c1 (optimized conformer: 31.052879634074383 kcal/mol)

>  <smiles>  (885) 
O=C(Cc1ccc(O)c(Br)c1)OC(=O)c1cc(O)c(O)c(O)c1

>  <score_type>  (885) 
oracle

>  <origin>  (885) 
adg

>  <m_score__min__energy>  (885) 
-17.739999999999998

>  <m_primary>  (885) 
energy

$$$$
36:0
     RDKit          3D

 26 28  0  0  0  0  0  0  0  0999 V2000
   53.1340   31.3830   51.6940 C   0  0  0  0  0  0  0  0  0  0  0  0
   51.9310   31.2920   50.8450 C   0  0  0  0  0  0  0  0  0  0  0  0
   51.7430   30.3160   50.0710 O   0  0  0  0  0  0  0  0  0  0  0  0
   51.0190   32.3380   50.8480 O   0  0  0  0  0  0  0  0  0  0  0  0
   53.9550   30.3660   52.0000 C   0  0  0  0  0  0  0  0  0  0  0  0
   55.4250   30.4060   51.9100 C   0  0  0  0  0  0  0  0  0  0  0  0
   56.0640   29.3250   52.0150 O   0  0  0  0  0  0  0  0  0  0  0  0
   56.1140   31.6430   51.6580 N   0  0  0  0  0  0  0  0  0  0  0  0
   57.5420   31.7650   51.5590 C   0  0  0  0  0  0  0  0  0  0  0  0
   58.3360   32.0280   52.6900 C   0  0  0  0  0  0  0  0  0  0  0  0
   59.7260   32.1070   52.5710 C   0  0  0  0  0  0  0  0  0  0  0  0
   60.3380   31.9140   51.3300 C   0  0  0  0  0  0  0  0  0  0  0  0
   59.5600   31.6400   50.1940 C   0  0  0  0  0  0  0  0  0  0  0  0
   60.2200   31.3820   48.8630 C   0  0  0  0  0  0  0  0  0  0  0  0
   59.2540   31.4750   47.7030 C   0  0  0  0  0  0  0  0  0  0  0  0
   58.6540   30.3450   47.2350 N   0  0  0  0  0  0  0  0  0  0  0  0
   57.7850   30.3690   46.2240 N   0  0  0  0  0  0  0  0  0  0  0  0
   57.4510   31.5240   45.6010 C   0  0  0  0  0  0  0  0  0  0  0  0
   56.6070   31.5030   44.6650 O   0  0  0  0  0  0  0  0  0  0  0  0
   58.0480   32.7260   46.0090 C   0  0  0  0  0  0  0  0  0  0  0  0
   58.9690   32.7040   47.0690 C   0  0  0  0  0  0  0  0  0  0  0  0
   59.5740   34.0230   47.4980 C   0  0  0  0  0  0  0  0  0  0  0  0
   59.9980   34.8410   46.2700 C   0  0  0  0  0  0  0  0  0  0  0  0
   58.9090   34.9460   45.1720 C   0  0  0  0  0  0  0  0  0  0  0  0
   57.6720   34.0570   45.4020 C   0  0  0  0  0  0  0  0  0  0  0  0
   58.1640   31.5470   50.3210 C   0  0  0  0  0  0  0  0  0  0  0  0
  1  2  1  0
  2  3  2  0
  2  4  1  0
  1  5  2  0
  5  6  1  0
  6  7  2  0
  6  8  1  0
  8  9  1  0
  9 10  2  0
 10 11  1  0
 11 12  2  0
 12 13  1  0
 13 14  1  0
 14 15  1  0
 15 16  2  0
 16 17  1  0
 17 18  1  0
 18 19  2  0
 18 20  1  0
 20 21  2  0
 21 22  1  0
 22 23  1  0
 23 24  1  0
 24 25  1  0
 13 26  2  0
 26  9  1  0
 21 15  1  0
 25 20  1  0
M  CHG  2   4  -1  17  -1
M  END
>  <UniqueID>  (886) 
34

>  <SMILES>  (886) 
O=C([O-])/C=C\C(=O)Nc1cccc(Cc2n[n-]c(=O)c3c2CCCC3)c1

>  <Energy>  (886) 
63.372683277298435

>  <Genealogy>  (886) 
O=C([O-])C=CC(=O)Nc1cccc(Cc2n[n-]c(=O)c3c2CCCC3)c1 (protonated)
O=C([O-])/C=C\C(=O)Nc1cccc(Cc2n[n-]c(=O)c3c2CCCC3)c1 (cis-trans isomerization)
O=C([O-])/C=C\C(=O)Nc1cccc(Cc2n[n-]c(=O)c3c2CCCC3)c1 (3D coordinates assigned)
O=C([O-])/C=C\C(=O)Nc1cccc(Cc2n[n-]c(=O)c3c2CCCC3)c1 (nonaromatic ring conformer: 63.372683277298435 kcal/mol)

>  <smiles>  (886) 
O=C(O)C=CC(=O)Nc1cccc(Cc2n[nH]c(=O)c3c2CCCC3)c1

>  <score_type>  (886) 
oracle

>  <origin>  (886) 
adg

>  <m_score__min__energy>  (886) 
-14.09

>  <m_primary>  (886) 
energy

$$$$
39:0
     RDKit          3D

 31 33  0  0  0  0  0  0  0  0999 V2000
   58.5050   28.8300   46.8520 C   0  0  0  0  0  0  0  0  0  0  0  0
   58.0400   28.9280   45.5970 C   0  0  0  0  0  0  0  0  0  0  0  0
   57.8710   27.8910   44.6640 C   0  0  0  0  0  0  0  0  0  0  0  0
   57.9930   26.5550   44.7880 C   0  0  0  0  0  0  0  0  0  0  0  0
   57.3340   25.7210   45.8030 C   0  0  0  0  0  0  0  0  0  0  0  0
   57.8670   24.5890   46.2910 N   0  0  0  0  0  0  0  0  0  0  0  0
   56.8950   24.1090   47.0980 C   0  0  0  0  0  0  0  0  0  0  0  0
   57.0260   23.0460   47.7590 O   0  0  0  0  0  0  0  0  0  0  0  0
   55.7690   24.8520   47.1330 N   0  0  0  0  0  0  0  0  0  0  0  0
   56.0520   25.8620   46.2940 C   0  0  0  0  0  0  0  0  0  0  0  0
   55.1470   26.8720   45.9780 O   0  0  0  0  0  0  0  0  0  0  0  0
   57.4960   28.4970   43.4740 C   0  0  0  0  0  0  0  0  0  0  0  0
   57.4070   29.8490   43.7230 C   0  0  0  0  0  0  0  0  0  0  0  0
   56.9920   30.8790   42.7160 C   0  0  0  0  0  0  0  0  0  0  0  0
   57.7240   30.1130   45.0100 N   0  0  0  0  0  0  0  0  0  0  0  0
   57.7710   31.4230   45.6030 C   0  0  0  0  0  0  0  0  0  0  0  0
   57.0050   32.4670   45.0680 C   0  0  0  0  0  0  0  0  0  0  0  0
   57.0360   33.7320   45.6570 C   0  0  0  0  0  0  0  0  0  0  0  0
   57.8260   33.9620   46.7870 C   0  0  0  0  0  0  0  0  0  0  0  0
   58.5970   32.9230   47.3420 C   0  0  0  0  0  0  0  0  0  0  0  0
   59.4250   33.1620   48.5460 C   0  0  0  0  0  0  0  0  0  0  0  0
   60.5250   33.7680   48.4440 O   0  0  0  0  0  0  0  0  0  0  0  0
   58.9730   32.7130   49.8300 N   0  0  0  0  0  0  0  0  0  0  0  0
   59.1600   31.0890   50.4070 S   0  0  0  0  0  0  0  0  0  0  0  0
   59.7930   31.1380   51.7690 O   0  0  0  0  0  0  0  0  0  0  0  0
   57.8190   30.4220   50.5330 O   0  0  0  0  0  0  0  0  0  0  0  0
   60.2260   30.1540   49.3120 C   0  0  0  0  0  0  0  0  0  0  0  0
   61.6050   30.7990   49.1180 C   0  0  0  0  0  0  0  0  0  0  0  0
   61.9030   31.1250   47.6480 C   0  0  0  0  0  0  0  0  0  0  0  0
   63.0230   32.1560   47.5320 C   0  0  0  0  0  0  0  0  0  0  0  0
   58.5610   31.6510   46.7380 C   0  0  0  0  0  0  0  0  0  0  0  0
  1  2  2  0
  2  3  1  0
  3  4  2  3
  4  5  1  0
  5  6  1  0
  6  7  1  0
  7  8  2  0
  7  9  1  0
  9 10  1  0
 10 11  1  0
  3 12  1  0
 12 13  2  0
 13 14  1  0
 13 15  1  0
 15 16  1  0
 16 17  2  0
 17 18  1  0
 18 19  2  0
 19 20  1  0
 20 21  1  0
 21 22  2  0
 21 23  1  0
 23 24  1  0
 24 25  2  0
 24 26  2  0
 24 27  1  0
 27 28  1  0
 28 29  1  0
 29 30  1  0
 20 31  2  0
 15  2  1  0
 31 16  1  0
 10  5  2  0
M  CHG  3   6  -1   9  -1  23  -1
M  END
>  <UniqueID>  (887) 
37

>  <SMILES>  (887) 
C=c1c(=Cc2[n-]c(=O)[n-]c2O)cc(C)n1-c1cccc(C(=O)[N-]S(=O)(=O)CCCC)c1

>  <Energy>  (887) 
121.46382132955011

>  <Genealogy>  (887) 
C=c1c(=Cc2[n-]c(=O)[n-]c2O)cc(C)n1-c1cccc(C(=O)[N-]S(=O)(=O)CCCC)c1 (protonated)
C=c1c(=Cc2[n-]c(=O)[n-]c2O)cc(C)n1-c1cccc(C(=O)[N-]S(=O)(=O)CCCC)c1 (3D coordinates assigned)
C=c1c(=Cc2[n-]c(=O)[n-]c2O)cc(C)n1-c1cccc(C(=O)[N-]S(=O)(=O)CCCC)c1 (optimized conformer: 121.46382132955011 kcal/mol)

>  <smiles>  (887) 
C=c1c(=Cc2[nH]c(=O)[nH]c2O)cc(C)n1-c1cccc(C(=O)NS(=O)(=O)CCCC)c1

>  <score_type>  (887) 
oracle

>  <origin>  (887) 
adg

>  <m_score__min__energy>  (887) 
-14.6

>  <m_primary>  (887) 
energy

$$$$
53:0
     RDKit          3D

 35 38  0  0  0  0  0  0  0  0999 V2000
   58.6880   27.2880   45.2050 O   0  0  0  0  0  0  0  0  0  0  0  0
   57.5340   27.7870   45.2310 C   0  0  0  0  0  0  0  0  0  0  0  0
   56.4540   27.1050   45.8880 N   0  0  0  0  0  0  0  0  0  0  0  0
   56.5400   25.9690   46.5040 C   0  0  0  0  0  0  0  0  0  0  0  0
   55.5340   25.0710   46.5780 N   0  0  0  0  0  0  0  0  0  0  0  0
   55.8750   23.9990   47.3460 C   0  0  0  0  0  0  0  0  0  0  0  0
   54.8870   22.9500   47.6680 C   0  0  0  0  0  0  0  0  0  0  0  0
   54.0420   23.1760   48.5740 O   0  0  0  0  0  0  0  0  0  0  0  0
   54.8830   21.6620   47.0390 N   0  0  0  0  0  0  0  0  0  0  0  0
   54.6690   21.4020   45.6190 C   0  0  0  0  0  0  0  0  0  0  0  0
   55.9570   20.8660   44.9890 C   0  0  0  0  0  0  0  0  0  0  0  0
   56.2630   21.5820   43.7300 N   0  0  0  0  0  0  0  0  0  0  0  0
   56.0600   23.0500   43.8400 C   0  0  0  0  0  0  0  0  0  0  0  0
   57.3760   23.8150   44.0810 C   0  0  0  0  0  0  0  0  0  0  0  0
   58.2520   23.0480   44.8710 O   0  0  0  0  0  0  0  0  0  0  0  0
   58.7040   21.9080   44.1580 C   0  0  0  0  0  0  0  0  0  0  0  0
   57.6250   21.2710   43.2500 C   0  0  0  0  0  0  0  0  0  0  0  0
   57.1570   24.0670   47.8990 C   0  0  0  0  0  0  0  0  0  0  0  0
   57.8780   25.5000   47.3980 S   0  0  0  0  0  0  0  0  0  0  0  0
   57.3060   29.1050   44.6050 C   0  0  0  0  0  0  0  0  0  0  0  0
   57.0610   29.2190   43.2280 C   0  0  0  0  0  0  0  0  0  0  0  0
   56.9150   30.4910   42.6580 C   0  0  0  0  0  0  0  0  0  0  0  0
   57.0010   31.6290   43.4610 C   0  0  0  0  0  0  0  0  0  0  0  0
   57.2300   31.4810   44.8340 C   0  0  0  0  0  0  0  0  0  0  0  0
   57.3120   32.6500   45.6560 N   0  0  0  0  0  0  0  0  0  0  0  0
   58.3920   33.5970   45.6520 C   0  0  0  0  0  0  0  0  0  0  0  0
   58.2430   34.7310   45.1180 O   0  0  0  0  0  0  0  0  0  0  0  0
   59.6690   33.2770   46.3290 C   0  0  0  0  0  0  0  0  0  0  0  0
   60.7930   34.0760   46.0510 C   0  0  0  0  0  0  0  0  0  0  0  0
   61.9990   33.8640   46.7230 C   0  0  0  0  0  0  0  0  0  0  0  0
   62.1010   32.8520   47.6770 C   0  0  0  0  0  0  0  0  0  0  0  0
   61.0010   32.0350   47.9440 C   0  0  0  0  0  0  0  0  0  0  0  0
   59.7910   32.2220   47.2670 C   0  0  0  0  0  0  0  0  0  0  0  0
   58.7540   31.3220   47.5250 O   0  0  0  0  0  0  0  0  0  0  0  0
   57.3820   30.2330   45.3620 N   0  0  0  0  0  0  0  0  0  0  0  0
  1  2  2  0
  2  3  1  0
  3  4  2  3
  4  5  1  0
  5  6  1  0
  6  7  1  0
  7  8  2  0
  7  9  1  0
  9 10  1  0
 10 11  1  0
 11 12  1  0
 12 13  1  0
 13 14  1  0
 14 15  1  0
 15 16  1  0
 16 17  1  0
  6 18  2  0
 18 19  1  0
  2 20  1  0
 20 21  2  0
 21 22  1  0
 22 23  2  0
 23 24  1  0
 24 25  1  0
 25 26  1  0
 26 27  2  0
 26 28  1  0
 28 29  2  0
 29 30  1  0
 30 31  2  0
 31 32  1  0
 32 33  2  0
 33 34  1  0
 24 35  2  0
 19  4  1  0
 35 20  1  0
 17 12  1  0
 33 28  1  0
M  CHG  3   5  -1   9  -1  25  -1
M  END
>  <UniqueID>  (888) 
50

>  <SMILES>  (888) 
O=C(N=c1[n-]c(C(=O)[N-]CCN2CCOCC2)cs1)c1cccc([N-]C(=O)c2ccccc2O)n1

>  <Energy>  (888) 
115.59454188503535

>  <Genealogy>  (888) 
O=C(N=c1[n-]c(C(=O)[N-]CCN2CCOCC2)cs1)c1cccc([N-]C(=O)c2ccccc2O)n1 (protonated)
O=C(N=c1[n-]c(C(=O)[N-]CCN2CCOCC2)cs1)c1cccc([N-]C(=O)c2ccccc2O)n1 (3D coordinates assigned)
O=C(N=c1[n-]c(C(=O)[N-]CCN2CCOCC2)cs1)c1cccc([N-]C(=O)c2ccccc2O)n1 (nonaromatic ring conformer: 115.59454188503535 kcal/mol)

>  <smiles>  (888) 
O=C(N=c1[nH]c(C(=O)NCCN2CCOCC2)cs1)c1cccc(NC(=O)c2ccccc2O)n1

>  <score_type>  (888) 
oracle

>  <origin>  (888) 
adg

>  <m_score__min__energy>  (888) 
-14.43

>  <m_primary>  (888) 
energy

$$$$
63:0
     RDKit          3D

 31 34  0  0  0  0  0  0  0  0999 V2000
   56.2840   24.2540   44.5710 C   0  0  0  0  0  0  0  0  0  0  0  0
   55.3880   24.8820   45.9730 S   0  0  0  0  0  0  0  0  0  0  0  0
   53.9500   24.4620   45.8670 O   0  0  0  0  0  0  0  0  0  0  0  0
   55.9900   24.3260   47.2320 O   0  0  0  0  0  0  0  0  0  0  0  0
   55.4970   26.6100   45.9810 N   0  0  0  0  0  0  0  0  0  0  0  0
   56.6420   27.3720   45.5730 C   0  0  0  0  0  0  0  0  0  0  0  0
   57.9480   26.8620   45.6830 C   0  0  0  0  0  0  0  0  0  0  0  0
   59.0360   27.6240   45.2670 C   0  0  0  0  0  0  0  0  0  0  0  0
   58.8430   28.9020   44.7420 C   0  0  0  0  0  0  0  0  0  0  0  0
   57.5470   29.4380   44.6250 C   0  0  0  0  0  0  0  0  0  0  0  0
   57.3710   30.7970   44.0560 C   0  0  0  0  0  0  0  0  0  0  0  0
   57.5480   31.0000   42.8250 O   0  0  0  0  0  0  0  0  0  0  0  0
   57.0440   31.8920   44.9210 N   0  0  0  0  0  0  0  0  0  0  0  0
   57.9560   32.6410   45.7380 C   0  0  0  0  0  0  0  0  0  0  0  0
   58.1160   34.0300   45.5910 C   0  0  0  0  0  0  0  0  0  0  0  0
   58.9800   34.7330   46.4340 C   0  0  0  0  0  0  0  0  0  0  0  0
   59.6840   34.0620   47.4380 C   0  0  0  0  0  0  0  0  0  0  0  0
   60.5140   34.7540   48.2620 N   0  0  0  0  0  0  0  0  0  0  0  0
   61.2080   34.1430   49.2570 C   0  0  0  0  0  0  0  0  0  0  0  0
   61.0820   32.7690   49.4590 C   0  0  0  0  0  0  0  0  0  0  0  0
   60.2430   32.0210   48.6280 C   0  0  0  0  0  0  0  0  0  0  0  0
   60.1400   30.6040   48.8180 N   0  0  0  0  0  0  0  0  0  0  0  0
   59.4600   30.0970   50.0130 C   0  0  0  0  0  0  0  0  0  0  0  0
   59.9330   28.6700   50.3110 C   0  0  0  0  0  0  0  0  0  0  0  0
   59.8360   27.8550   49.1590 O   0  0  0  0  0  0  0  0  0  0  0  0
   60.7310   28.3220   48.1670 C   0  0  0  0  0  0  0  0  0  0  0  0
   60.3110   29.7090   47.6740 C   0  0  0  0  0  0  0  0  0  0  0  0
   59.5250   32.6690   47.6030 C   0  0  0  0  0  0  0  0  0  0  0  0
   58.6480   31.9700   46.7530 C   0  0  0  0  0  0  0  0  0  0  0  0
   56.4460   28.6580   45.0410 C   0  0  0  0  0  0  0  0  0  0  0  0
   55.1480   29.1420   44.9150 O   0  0  0  0  0  0  0  0  0  0  0  0
  1  2  1  0
  2  3  2  0
  2  4  2  0
  2  5  1  0
  5  6  1  0
  6  7  2  0
  7  8  1  0
  8  9  2  0
  9 10  1  0
 10 11  1  0
 11 12  2  0
 11 13  1  0
 13 14  1  0
 14 15  2  0
 15 16  1  0
 16 17  2  0
 17 18  1  0
 18 19  2  0
 19 20  1  0
 20 21  2  0
 21 22  1  0
 22 23  1  0
 23 24  1  0
 24 25  1  0
 25 26  1  0
 26 27  1  0
 21 28  1  0
 28 29  2  0
 10 30  2  0
 30 31  1  0
 30  6  1  0
 29 14  1  0
 28 17  1  0
 27 22  1  0
M  CHG  3   5  -1  13  -1  31  -1
M  END
>  <UniqueID>  (889) 
60

>  <SMILES>  (889) 
CS(=O)(=O)[N-]c1cccc(C(=O)[N-]c2ccc3nccc(N4CCOCC4)c3c2)c1[O-]

>  <Energy>  (889) 
69.40613829085063

>  <Genealogy>  (889) 
CS(=O)(=O)[N-]c1cccc(C(=O)[N-]c2ccc3nccc(N4CCOCC4)c3c2)c1[O-] (protonated)
CS(=O)(=O)[N-]c1cccc(C(=O)[N-]c2ccc3nccc(N4CCOCC4)c3c2)c1[O-] (3D coordinates assigned)
CS(=O)(=O)[N-]c1cccc(C(=O)[N-]c2ccc3nccc(N4CCOCC4)c3c2)c1[O-] (nonaromatic ring conformer: 69.40613829085063 kcal/mol)

>  <smiles>  (889) 
CS(=O)(=O)Nc1cccc(C(=O)Nc2ccc3nccc(N4CCOCC4)c3c2)c1O

>  <score_type>  (889) 
oracle

>  <origin>  (889) 
adg

>  <m_score__min__energy>  (889) 
-16.859999999999999

>  <m_primary>  (889) 
energy

$$$$
68:0
     RDKit          3D

 29 31  0  0  0  0  0  0  0  0999 V2000
   62.2850   34.0000   49.0380 C   0  0  0  0  0  0  0  0  0  0  0  0
   61.1700   34.0290   48.0360 C   0  0  0  0  0  0  0  0  0  0  0  0
   61.4330   33.7910   46.6780 C   0  0  0  0  0  0  0  0  0  0  0  0
   60.4010   33.8520   45.7380 C   0  0  0  0  0  0  0  0  0  0  0  0
   59.0920   34.1550   46.1430 C   0  0  0  0  0  0  0  0  0  0  0  0
   57.9820   34.2290   45.1330 C   0  0  0  0  0  0  0  0  0  0  0  0
   56.9020   33.3150   45.5110 N   0  0  0  0  0  0  0  0  0  0  0  0
   57.1640   31.7600   44.7790 S   0  0  0  0  0  0  0  0  0  0  0  0
   57.8110   31.9410   43.4340 O   0  0  0  0  0  0  0  0  0  0  0  0
   55.8370   31.0820   44.5770 O   0  0  0  0  0  0  0  0  0  0  0  0
   58.1910   30.7460   45.7960 C   0  0  0  0  0  0  0  0  0  0  0  0
   58.4600   31.1110   47.1210 C   0  0  0  0  0  0  0  0  0  0  0  0
   59.2730   30.2990   47.9200 C   0  0  0  0  0  0  0  0  0  0  0  0
   59.8330   29.1310   47.3930 C   0  0  0  0  0  0  0  0  0  0  0  0
   59.6010   28.7770   46.0600 C   0  0  0  0  0  0  0  0  0  0  0  0
   60.1840   27.5740   45.5410 N   0  0  0  0  0  0  0  0  0  0  0  0
   59.9470   26.2610   46.0640 C   0  0  0  0  0  0  0  0  0  0  0  0
   60.9230   25.4770   46.2060 O   0  0  0  0  0  0  0  0  0  0  0  0
   58.5790   25.7980   46.3780 C   0  0  0  0  0  0  0  0  0  0  0  0
   57.4590   26.5560   46.0150 C   0  0  0  0  0  0  0  0  0  0  0  0
   56.1900   26.0730   46.3460 C   0  0  0  0  0  0  0  0  0  0  0  0
   55.1610   26.7220   46.0220 O   0  0  0  0  0  0  0  0  0  0  0  0
   56.0650   24.9010   47.0210 N   0  0  0  0  0  0  0  0  0  0  0  0
   57.1620   24.1830   47.3770 C   0  0  0  0  0  0  0  0  0  0  0  0
   57.0270   23.1010   48.0050 O   0  0  0  0  0  0  0  0  0  0  0  0
   58.4030   24.6290   47.0510 N   0  0  0  0  0  0  0  0  0  0  0  0
   58.7580   29.5770   45.2690 C   0  0  0  0  0  0  0  0  0  0  0  0
   58.8350   34.4250   47.4960 C   0  0  0  0  0  0  0  0  0  0  0  0
   59.8670   34.3640   48.4360 C   0  0  0  0  0  0  0  0  0  0  0  0
  1  2  1  0
  2  3  2  0
  3  4  1  0
  4  5  2  0
  5  6  1  0
  6  7  1  0
  7  8  1  0
  8  9  2  0
  8 10  2  0
  8 11  1  0
 11 12  2  0
 12 13  1  0
 13 14  2  0
 14 15  1  0
 15 16  1  0
 16 17  1  0
 17 18  2  0
 17 19  1  0
 19 20  2  0
 20 21  1  0
 21 22  2  0
 21 23  1  0
 23 24  1  0
 24 25  2  0
 24 26  1  0
 15 27  2  0
  5 28  1  0
 28 29  2  0
 29  2  1  0
 27 11  1  0
 26 19  1  0
M  CHG  3  16  -1  23  -1  26  -1
M  END
>  <UniqueID>  (890) 
65

>  <SMILES>  (890) 
Cc1ccc(CNS(=O)(=O)c2cccc([N-]C(=O)c3cc(=O)[n-]c(=O)[n-]3)c2)cc1

>  <Energy>  (890) 
46.698331143307826

>  <Genealogy>  (890) 
Cc1ccc(CNS(=O)(=O)c2cccc([N-]C(=O)c3cc(=O)[n-]c(=O)[n-]3)c2)cc1 (protonated)
Cc1ccc(CNS(=O)(=O)c2cccc([N-]C(=O)c3cc(=O)[n-]c(=O)[n-]3)c2)cc1 (3D coordinates assigned)
Cc1ccc(CNS(=O)(=O)c2cccc([N-]C(=O)c3cc(=O)[n-]c(=O)[n-]3)c2)cc1 (optimized conformer: 46.698331143307826 kcal/mol)

>  <smiles>  (890) 
Cc1ccc(CNS(=O)(=O)c2cccc(NC(=O)c3cc(=O)[nH]c(=O)[nH]3)c2)cc1

>  <score_type>  (890) 
oracle

>  <origin>  (890) 
adg

>  <m_score__min__energy>  (890) 
-15.32

>  <m_primary>  (890) 
energy

$$$$
79:0
     RDKit          3D

 21 22  0  0  0  0  0  0  0  0999 V2000
   60.5590   27.3140   54.1050 N   0  0  0  0  0  0  0  0  0  0  0  0
   59.4920   27.7620   54.1040 C   0  0  0  0  0  0  0  0  0  0  0  0
   58.1650   28.3190   54.1020 C   0  0  0  0  0  0  0  0  0  0  0  0
   57.2010   27.8360   54.9920 C   0  0  0  0  0  0  0  0  0  0  0  0
   55.9120   28.3760   54.9920 C   0  0  0  0  0  0  0  0  0  0  0  0
   55.5700   29.3980   54.0880 C   0  0  0  0  0  0  0  0  0  0  0  0
   54.2560   29.9780   54.0810 N   0  0  0  0  0  0  0  0  0  0  0  0
   53.1140   29.4750   53.3740 C   0  0  0  0  0  0  0  0  0  0  0  0
   52.6410   28.3580   53.7080 O   0  0  0  0  0  0  0  0  0  0  0  0
   52.4500   30.2420   52.2990 C   0  0  0  0  0  0  0  0  0  0  0  0
   52.4080   29.7700   50.9770 C   0  0  0  0  0  0  0  0  0  0  0  0
   51.7750   30.5350   49.9930 C   0  0  0  0  0  0  0  0  0  0  0  0
   51.7250   30.1150   48.8050 O   0  0  0  0  0  0  0  0  0  0  0  0
   51.2050   31.7670   50.3290 C   0  0  0  0  0  0  0  0  0  0  0  0
   50.5710   32.5400   49.3620 O   0  0  0  0  0  0  0  0  0  0  0  0
   51.2830   32.2160   51.6510 C   0  0  0  0  0  0  0  0  0  0  0  0
   50.7320   33.4400   52.0090 O   0  0  0  0  0  0  0  0  0  0  0  0
   51.9000   31.4540   52.5930 N   0  0  0  0  0  0  0  0  0  0  0  0
   56.5490   29.8960   53.2110 C   0  0  0  0  0  0  0  0  0  0  0  0
   56.1410   31.3070   51.9810 Br  0  0  0  0  0  0  0  0  0  0  0  0
   57.8390   29.3530   53.2160 C   0  0  0  0  0  0  0  0  0  0  0  0
  1  2  3  0
  2  3  1  0
  3  4  2  0
  4  5  1  0
  5  6  2  0
  6  7  1  0
  7  8  1  0
  8  9  2  0
  8 10  1  0
 10 11  2  0
 11 12  1  0
 12 13  2  0
 12 14  1  0
 14 15  1  0
 14 16  2  0
 16 17  1  0
 16 18  1  0
  6 19  1  0
 19 20  1  0
 19 21  2  0
 21  3  1  0
 18 10  1  0
M  CHG  4   7  -1  15  -1  17  -1  18  -1
M  END
>  <UniqueID>  (891) 
76

>  <SMILES>  (891) 
N#Cc1ccc([N-]C(=O)c2cc(=O)c([O-])c([O-])[n-]2)c(Br)c1

>  <Energy>  (891) 
33.47652646639526

>  <Genealogy>  (891) 
N#Cc1ccc([N-]C(=O)c2cc(=O)c([O-])c([O-])[n-]2)c(Br)c1 (protonated)
N#Cc1ccc([N-]C(=O)c2cc(=O)c([O-])c([O-])[n-]2)c(Br)c1 (3D coordinates assigned)
N#Cc1ccc([N-]C(=O)c2cc(=O)c([O-])c([O-])[n-]2)c(Br)c1 (optimized conformer: 33.47652646639526 kcal/mol)

>  <smiles>  (891) 
N#Cc1ccc(NC(=O)c2cc(=O)c(O)c(O)[nH]2)c(Br)c1

>  <score_type>  (891) 
oracle

>  <origin>  (891) 
adg

>  <m_score__min__energy>  (891) 
-17.969999999999999

>  <m_primary>  (891) 
energy

$$$$
80:0
     RDKit          3D

 29 32  0  0  0  0  0  0  0  0999 V2000
   59.8800   26.7960   46.4620 O   0  0  0  0  0  0  0  0  0  0  0  0
   58.8790   27.3310   45.9140 C   0  0  0  0  0  0  0  0  0  0  0  0
   59.0000   28.6670   45.4080 N   0  0  0  0  0  0  0  0  0  0  0  0
   59.0530   29.8710   46.1890 C   0  0  0  0  0  0  0  0  0  0  0  0
   59.9380   29.9910   47.2750 C   0  0  0  0  0  0  0  0  0  0  0  0
   59.9650   31.1570   48.0580 C   0  0  0  0  0  0  0  0  0  0  0  0
   60.9520   31.3030   49.1550 C   0  0  0  0  0  0  0  0  0  0  0  0
   60.6210   31.0340   50.3420 O   0  0  0  0  0  0  0  0  0  0  0  0
   62.2740   31.7940   48.8920 N   0  0  0  0  0  0  0  0  0  0  0  0
   62.6570   32.1780   47.5300 C   0  0  0  0  0  0  0  0  0  0  0  0
   63.7930   33.1720   47.5330 C   0  0  0  0  0  0  0  0  0  0  0  0
   64.4980   33.4620   48.6390 C   0  0  0  0  0  0  0  0  0  0  0  0
   64.1190   32.9340   49.9990 C   0  0  0  0  0  0  0  0  0  0  0  0
   63.3250   31.6320   49.8960 C   0  0  0  0  0  0  0  0  0  0  0  0
   59.0710   32.1980   47.7600 C   0  0  0  0  0  0  0  0  0  0  0  0
   58.1640   32.0710   46.7050 C   0  0  0  0  0  0  0  0  0  0  0  0
   58.1490   30.9120   45.9150 C   0  0  0  0  0  0  0  0  0  0  0  0
   57.2280   30.8060   44.8180 N   0  0  0  0  0  0  0  0  0  0  0  0
   56.1750   29.7850   44.8530 C   0  0  0  0  0  0  0  0  0  0  0  0
   55.4450   29.7190   43.5110 C   0  0  0  0  0  0  0  0  0  0  0  0
   56.4260   29.8300   42.4280 N   0  0  0  0  0  0  0  0  0  0  0  0
   57.0200   31.1790   42.3670 C   0  0  0  0  0  0  0  0  0  0  0  0
   57.2370   31.8190   43.7550 C   0  0  0  0  0  0  0  0  0  0  0  0
   57.6040   26.5910   45.8630 C   0  0  0  0  0  0  0  0  0  0  0  0
   57.4830   25.2250   45.6810 C   0  0  0  0  0  0  0  0  0  0  0  0
   56.1340   24.9490   45.7050 C   0  0  0  0  0  0  0  0  0  0  0  0
   55.5120   26.1600   45.9050 C   0  0  0  0  0  0  0  0  0  0  0  0
   54.1380   26.3370   45.9900 O   0  0  0  0  0  0  0  0  0  0  0  0
   56.3940   27.1710   46.0090 N   0  0  0  0  0  0  0  0  0  0  0  0
  1  2  2  0
  2  3  1  0
  3  4  1  0
  4  5  2  0
  5  6  1  0
  6  7  1  0
  7  8  2  0
  7  9  1  0
  9 10  1  0
 10 11  1  0
 11 12  2  0
 12 13  1  0
 13 14  1  0
  6 15  2  0
 15 16  1  0
 16 17  2  0
 17 18  1  0
 18 19  1  0
 19 20  1  0
 20 21  1  0
 21 22  1  0
 22 23  1  0
  2 24  1  0
 24 25  2  0
 25 26  1  0
 26 27  2  0
 27 28  1  0
 27 29  1  0
 17  4  1  0
 23 18  1  0
 29 24  1  0
 14  9  1  0
M  CHG  3   3  -1  28  -1  29  -1
M  END
>  <UniqueID>  (892) 
77

>  <SMILES>  (892) 
O=C([N-]c1cc(C(=O)N2CC=CCC2)ccc1N1CCNCC1)c1ccc([O-])[n-]1

>  <Energy>  (892) 
94.693912889699

>  <Genealogy>  (892) 
O=C([N-]c1cc(C(=O)N2CC=CCC2)ccc1N1CCNCC1)c1ccc([O-])[n-]1 (protonated)
O=C([N-]c1cc(C(=O)N2CC=CCC2)ccc1N1CCNCC1)c1ccc([O-])[n-]1 (3D coordinates assigned)
O=C([N-]c1cc(C(=O)N2CC=CCC2)ccc1N1CCNCC1)c1ccc([O-])[n-]1 (nonaromatic ring conformer: 94.693912889699 kcal/mol)

>  <smiles>  (892) 
O=C(Nc1cc(C(=O)N2CC=CCC2)ccc1N1CCNCC1)c1ccc(O)[nH]1

>  <score_type>  (892) 
oracle

>  <origin>  (892) 
adg

>  <m_score__min__energy>  (892) 
-14.699999999999999

>  <m_primary>  (892) 
energy

$$$$
6:0
     RDKit          3D

 26 28  0  0  0  0  0  0  0  0999 V2000
   55.7720   28.7890   44.9160 O   0  0  0  0  0  0  0  0  0  0  0  0
   56.9700   28.5610   45.2350 C   0  0  0  0  0  0  0  0  0  0  0  0
   57.5900   27.2420   44.8540 C   0  0  0  0  0  0  0  0  0  0  0  0
   57.1680   26.1690   45.8070 C   0  0  0  0  0  0  0  0  0  0  0  0
   57.9890   25.2210   46.2920 N   0  0  0  0  0  0  0  0  0  0  0  0
   57.1710   24.4630   47.0540 C   0  0  0  0  0  0  0  0  0  0  0  0
   57.5770   23.4570   47.6920 O   0  0  0  0  0  0  0  0  0  0  0  0
   55.8810   24.8640   47.0750 N   0  0  0  0  0  0  0  0  0  0  0  0
   55.8970   25.9440   46.2760 C   0  0  0  0  0  0  0  0  0  0  0  0
   54.7730   26.7040   45.9800 O   0  0  0  0  0  0  0  0  0  0  0  0
   57.6800   29.5450   45.9990 N   0  0  0  0  0  0  0  0  0  0  0  0
   57.9710   30.8850   45.5810 C   0  0  0  0  0  0  0  0  0  0  0  0
   57.4740   31.3410   44.3550 C   0  0  0  0  0  0  0  0  0  0  0  0
   57.7180   32.6530   43.9410 C   0  0  0  0  0  0  0  0  0  0  0  0
   58.4630   33.5160   44.7490 C   0  0  0  0  0  0  0  0  0  0  0  0
   58.9930   33.0610   45.9650 C   0  0  0  0  0  0  0  0  0  0  0  0
   59.8710   34.1650   47.0250 S   0  0  0  0  0  0  0  0  0  0  0  0
   58.9050   34.8290   47.9650 O   0  0  0  0  0  0  0  0  0  0  0  0
   60.5230   35.2350   46.1940 O   0  0  0  0  0  0  0  0  0  0  0  0
   61.0840   33.3190   47.9610 N   0  0  0  0  0  0  0  0  0  0  0  0
   61.9890   32.5260   47.0920 C   0  0  0  0  0  0  0  0  0  0  0  0
   63.3440   33.2110   46.8540 C   0  0  0  0  0  0  0  0  0  0  0  0
   64.0760   33.4850   48.1790 C   0  0  0  0  0  0  0  0  0  0  0  0
   63.1130   33.6830   49.3620 C   0  0  0  0  0  0  0  0  0  0  0  0
   61.7700   34.2470   48.8880 C   0  0  0  0  0  0  0  0  0  0  0  0
   58.7750   31.7340   46.3590 C   0  0  0  0  0  0  0  0  0  0  0  0
  1  2  2  0
  2  3  1  0
  3  4  1  0
  4  5  1  0
  5  6  1  0
  6  7  2  0
  6  8  1  0
  8  9  1  0
  9 10  1  0
  2 11  1  0
 11 12  1  0
 12 13  2  0
 13 14  1  0
 14 15  2  0
 15 16  1  0
 16 17  1  0
 17 18  2  0
 17 19  2  0
 17 20  1  0
 20 21  1  0
 21 22  1  0
 22 23  1  0
 23 24  1  0
 24 25  1  0
 16 26  2  0
  9  4  2  0
 26 12  1  0
 25 20  1  0
M  CHG  4   5  -1   8  -1  10  -1  11  -1
M  END
>  <UniqueID>  (893) 
7

>  <SMILES>  (893) 
O=C(Cc1[n-]c(=O)[n-]c1[O-])[N-]c1cccc(S(=O)(=O)N2CCCCC2)c1

>  <Energy>  (893) 
78.48580454839035

>  <Genealogy>  (893) 
O=C(Cc1[n-]c(=O)[n-]c1[O-])[N-]c1cccc(S(=O)(=O)N2CCCCC2)c1 (protonated)
O=C(Cc1[n-]c(=O)[n-]c1[O-])[N-]c1cccc(S(=O)(=O)N2CCCCC2)c1 (3D coordinates assigned)
O=C(Cc1[n-]c(=O)[n-]c1[O-])[N-]c1cccc(S(=O)(=O)N2CCCCC2)c1 (nonaromatic ring conformer: 78.48580454839035 kcal/mol)

>  <smiles>  (893) 
O=C(Cc1[nH]c(=O)[nH]c1O)Nc1cccc(S(=O)(=O)N2CCCCC2)c1

>  <score_type>  (893) 
oracle

>  <origin>  (893) 
adg

>  <m_score__min__energy>  (893) 
-18.18

>  <m_primary>  (893) 
energy

$$$$
9:0
     RDKit          3D

 29 32  0  0  0  0  0  0  0  0999 V2000
   59.3360   28.6140   45.6330 O   0  0  0  0  0  0  0  0  0  0  0  0
   58.2090   28.6820   46.1920 C   0  0  0  0  0  0  0  0  0  0  0  0
   57.7650   27.5620   47.0970 C   0  0  0  0  0  0  0  0  0  0  0  0
   57.4730   26.3510   46.3280 N   0  0  0  0  0  0  0  0  0  0  0  0
   56.2700   25.9740   45.8410 C   0  0  0  0  0  0  0  0  0  0  0  0
   55.1010   26.7130   45.9830 O   0  0  0  0  0  0  0  0  0  0  0  0
   56.3710   24.7530   45.2040 C   0  0  0  0  0  0  0  0  0  0  0  0
   57.6790   24.3460   45.3450 C   0  0  0  0  0  0  0  0  0  0  0  0
   58.3330   25.3550   46.0210 C   0  0  0  0  0  0  0  0  0  0  0  0
   59.6850   25.3590   46.3460 O   0  0  0  0  0  0  0  0  0  0  0  0
   58.2330   23.0870   44.7520 C   0  0  0  0  0  0  0  0  0  0  0  0
   57.0910   22.1030   44.4230 C   0  0  0  0  0  0  0  0  0  0  0  0
   55.9140   22.8070   43.7130 C   0  0  0  0  0  0  0  0  0  0  0  0
   55.2940   23.9130   44.5900 C   0  0  0  0  0  0  0  0  0  0  0  0
   57.4640   29.9020   46.0880 N   0  0  0  0  0  0  0  0  0  0  0  0
   57.5180   30.8330   44.9980 C   0  0  0  0  0  0  0  0  0  0  0  0
   57.2480   30.4000   43.6890 C   0  0  0  0  0  0  0  0  0  0  0  0
   57.3610   31.2820   42.6130 C   0  0  0  0  0  0  0  0  0  0  0  0
   57.7630   32.6000   42.8310 C   0  0  0  0  0  0  0  0  0  0  0  0
   58.0610   33.0360   44.1230 C   0  0  0  0  0  0  0  0  0  0  0  0
   57.9570   32.1590   45.2170 C   0  0  0  0  0  0  0  0  0  0  0  0
   58.2630   32.6590   46.5800 C   0  0  0  0  0  0  0  0  0  0  0  0
   57.3610   33.2330   47.2490 O   0  0  0  0  0  0  0  0  0  0  0  0
   59.5850   32.5380   47.1350 N   0  0  0  0  0  0  0  0  0  0  0  0
   60.0600   33.5400   48.0930 C   0  0  0  0  0  0  0  0  0  0  0  0
   61.5910   33.5860   48.0730 C   0  0  0  0  0  0  0  0  0  0  0  0
   62.1360   32.2930   48.2600 O   0  0  0  0  0  0  0  0  0  0  0  0
   61.7870   31.4640   47.1680 C   0  0  0  0  0  0  0  0  0  0  0  0
   60.2720   31.2430   47.1160 C   0  0  0  0  0  0  0  0  0  0  0  0
  1  2  2  0
  2  3  1  0
  3  4  1  0
  4  5  1  0
  5  6  1  0
  5  7  2  0
  7  8  1  0
  8  9  2  0
  9 10  1  0
  8 11  1  0
 11 12  1  0
 12 13  1  0
 13 14  1  0
  2 15  1  0
 15 16  1  0
 16 17  2  0
 17 18  1  0
 18 19  2  0
 19 20  1  0
 20 21  2  0
 21 22  1  0
 22 23  2  0
 22 24  1  0
 24 25  1  0
 25 26  1  0
 26 27  1  0
 27 28  1  0
 28 29  1  0
  9  4  1  0
 21 16  1  0
 29 24  1  0
 14  7  1  0
M  CHG  3   6  -1  10  -1  15  -1
M  END
>  <UniqueID>  (894) 
10

>  <SMILES>  (894) 
O=C(Cn1c([O-])c2c(c1[O-])CCCC2)[N-]c1ccccc1C(=O)N1CCOCC1

>  <Energy>  (894) 
94.11211567327278

>  <Genealogy>  (894) 
O=C(Cn1c([O-])c2c(c1[O-])CCCC2)[N-]c1ccccc1C(=O)N1CCOCC1 (protonated)
O=C(Cn1c([O-])c2c(c1[O-])CCCC2)[N-]c1ccccc1C(=O)N1CCOCC1 (3D coordinates assigned)
O=C(Cn1c([O-])c2c(c1[O-])CCCC2)[N-]c1ccccc1C(=O)N1CCOCC1 (nonaromatic ring conformer: 94.11211567327278 kcal/mol)

>  <smiles>  (894) 
O=C(Cn1c(O)c2c(c1O)CCCC2)Nc1ccccc1C(=O)N1CCOCC1

>  <score_type>  (894) 
oracle

>  <origin>  (894) 
adg

>  <m_score__min__energy>  (894) 
-14.5

>  <m_primary>  (894) 
energy

$$$$
50:0
     RDKit          3D

 30 32  0  0  0  0  0  0  0  0999 V2000
   58.1190   32.7430   43.4220 C   0  0  0  0  0  0  0  0  0  0  0  0
   58.2440   33.1740   44.8490 C   0  0  0  0  0  0  0  0  0  0  0  0
   57.1660   33.0480   45.7290 C   0  0  0  0  0  0  0  0  0  0  0  0
   57.3380   33.4540   47.0530 C   0  0  0  0  0  0  0  0  0  0  0  0
   58.5350   33.9510   47.4620 N   0  0  0  0  0  0  0  0  0  0  0  0
   59.5800   34.0600   46.5990 C   0  0  0  0  0  0  0  0  0  0  0  0
   60.7090   34.5420   47.0220 N   0  0  0  0  0  0  0  0  0  0  0  0
   62.0730   33.5560   47.4410 S   0  0  0  0  0  0  0  0  0  0  0  0
   62.8310   34.2050   48.5660 O   0  0  0  0  0  0  0  0  0  0  0  0
   62.9860   33.4400   46.2530 O   0  0  0  0  0  0  0  0  0  0  0  0
   61.5240   31.9480   47.9060 C   0  0  0  0  0  0  0  0  0  0  0  0
   61.0100   31.0640   46.9470 C   0  0  0  0  0  0  0  0  0  0  0  0
   60.6230   29.7730   47.3170 C   0  0  0  0  0  0  0  0  0  0  0  0
   60.7590   29.3470   48.6500 C   0  0  0  0  0  0  0  0  0  0  0  0
   60.3670   28.0330   49.0720 N   0  0  0  0  0  0  0  0  0  0  0  0
   60.0400   26.9300   48.2190 C   0  0  0  0  0  0  0  0  0  0  0  0
   59.2050   26.0610   48.5910 O   0  0  0  0  0  0  0  0  0  0  0  0
   60.7030   26.8270   46.9070 C   0  0  0  0  0  0  0  0  0  0  0  0
   60.1680   27.1880   45.7310 C   0  0  0  0  0  0  0  0  0  0  0  0
   58.8220   27.7710   45.5500 C   0  0  0  0  0  0  0  0  0  0  0  0
   58.6530   29.0470   44.9840 C   0  0  0  0  0  0  0  0  0  0  0  0
   57.3690   29.5580   44.7710 C   0  0  0  0  0  0  0  0  0  0  0  0
   56.2440   28.7940   45.0980 C   0  0  0  0  0  0  0  0  0  0  0  0
   54.9750   29.3160   44.8770 O   0  0  0  0  0  0  0  0  0  0  0  0
   56.4040   27.5060   45.6380 C   0  0  0  0  0  0  0  0  0  0  0  0
   55.3000   26.7190   45.9640 O   0  0  0  0  0  0  0  0  0  0  0  0
   57.6910   26.9980   45.8510 C   0  0  0  0  0  0  0  0  0  0  0  0
   61.2490   30.2430   49.6080 C   0  0  0  0  0  0  0  0  0  0  0  0
   61.6400   31.5330   49.2370 C   0  0  0  0  0  0  0  0  0  0  0  0
   59.4270   33.6670   45.3040 N   0  0  0  0  0  0  0  0  0  0  0  0
  1  2  1  0
  2  3  1  0
  3  4  2  0
  4  5  1  0
  5  6  1  0
  6  7  2  3
  7  8  1  0
  8  9  2  0
  8 10  2  0
  8 11  1  0
 11 12  2  0
 12 13  1  0
 13 14  2  0
 14 15  1  0
 15 16  1  0
 16 17  2  0
 16 18  1  0
 18 19  2  3
 19 20  1  0
 20 21  2  0
 21 22  1  0
 22 23  2  0
 23 24  1  0
 23 25  1  0
 25 26  1  0
 25 27  2  0
 14 28  1  0
 28 29  2  0
  6 30  1  0
 30  2  2  0
 29 11  1  0
 27 20  1  0
M  CHG  3   5  -1  15  -1  24  -1
M  END
>  <UniqueID>  (895) 
47

>  <SMILES>  (895) 
Cc1cc[n-]c(=NS(=O)(=O)c2ccc([N-]C(=O)C=Cc3ccc([O-])c(O)c3)cc2)n1

>  <Energy>  (895) 
60.91733089655283

>  <Genealogy>  (895) 
Cc1cc[n-]c(=NS(=O)(=O)c2ccc([N-]C(=O)C=Cc3ccc([O-])c(O)c3)cc2)n1 (protonated)
Cc1cc[n-]c(=NS(=O)(=O)c2ccc([N-]C(=O)C=Cc3ccc([O-])c(O)c3)cc2)n1 (3D coordinates assigned)
Cc1cc[n-]c(=NS(=O)(=O)c2ccc([N-]C(=O)C=Cc3ccc([O-])c(O)c3)cc2)n1 (optimized conformer: 60.91733089655283 kcal/mol)

>  <smiles>  (895) 
Cc1cc[nH]c(=NS(=O)(=O)c2ccc(NC(=O)C=Cc3ccc(O)c(O)c3)cc2)n1

>  <score_type>  (895) 
oracle

>  <origin>  (895) 
adg

>  <m_score__min__energy>  (895) 
-14.31

>  <m_primary>  (895) 
energy

$$$$
59:0
     RDKit          3D

 33 36  0  0  0  0  0  0  0  0999 V2000
   58.9580   27.9230   47.0450 C   0  0  0  0  0  0  0  0  0  0  0  0
   58.5130   28.4660   45.9010 C   0  0  0  0  0  0  0  0  0  0  0  0
   57.9970   27.7770   44.7950 C   0  0  0  0  0  0  0  0  0  0  0  0
   57.8150   26.4440   44.6830 C   0  0  0  0  0  0  0  0  0  0  0  0
   57.2290   25.5730   45.7250 C   0  0  0  0  0  0  0  0  0  0  0  0
   57.8400   24.5290   46.3090 N   0  0  0  0  0  0  0  0  0  0  0  0
   56.9320   24.0930   47.2090 C   0  0  0  0  0  0  0  0  0  0  0  0
   57.1440   23.1060   47.9610 O   0  0  0  0  0  0  0  0  0  0  0  0
   55.7800   24.7970   47.2360 N   0  0  0  0  0  0  0  0  0  0  0  0
   55.9860   25.7330   46.2950 C   0  0  0  0  0  0  0  0  0  0  0  0
   55.0540   26.7090   45.9610 O   0  0  0  0  0  0  0  0  0  0  0  0
   57.7040   28.7470   43.8410 C   0  0  0  0  0  0  0  0  0  0  0  0
   58.0430   29.9650   44.3940 C   0  0  0  0  0  0  0  0  0  0  0  0
   57.9040   31.2820   43.6880 C   0  0  0  0  0  0  0  0  0  0  0  0
   58.5440   29.7960   45.6370 N   0  0  0  0  0  0  0  0  0  0  0  0
   59.0130   30.8460   46.4990 C   0  0  0  0  0  0  0  0  0  0  0  0
   58.1270   31.8210   46.9740 C   0  0  0  0  0  0  0  0  0  0  0  0
   58.5870   32.8440   47.8120 C   0  0  0  0  0  0  0  0  0  0  0  0
   59.9350   32.8800   48.2120 C   0  0  0  0  0  0  0  0  0  0  0  0
   60.4210   33.9620   49.0880 C   0  0  0  0  0  0  0  0  0  0  0  0
   61.1350   34.8790   48.5990 O   0  0  0  0  0  0  0  0  0  0  0  0
   60.1090   33.9970   50.4870 N   0  0  0  0  0  0  0  0  0  0  0  0
   60.3460   32.8950   51.4220 C   0  0  0  0  0  0  0  0  0  0  0  0
   59.1170   32.6740   52.3150 C   0  0  0  0  0  0  0  0  0  0  0  0
   57.9200   32.3510   51.5010 N   0  0  0  0  0  0  0  0  0  0  0  0
   56.6970   32.1160   52.3150 C   0  0  0  0  0  0  0  0  0  0  0  0
   56.0470   30.7430   52.0750 C   0  0  0  0  0  0  0  0  0  0  0  0
   57.0440   29.6560   52.0520 N   0  0  0  0  0  0  0  0  0  0  0  0
   57.5340   29.3350   53.4010 C   0  0  0  0  0  0  0  0  0  0  0  0
   58.1570   29.8870   51.0980 C   0  0  0  0  0  0  0  0  0  0  0  0
   58.1690   31.3040   50.4880 C   0  0  0  0  0  0  0  0  0  0  0  0
   60.8210   31.9000   47.7370 C   0  0  0  0  0  0  0  0  0  0  0  0
   60.3620   30.8900   46.8820 C   0  0  0  0  0  0  0  0  0  0  0  0
  1  2  2  0
  2  3  1  0
  3  4  2  0
  4  5  1  0
  5  6  1  0
  6  7  1  0
  7  8  2  0
  7  9  1  0
  9 10  1  0
 10 11  1  0
  3 12  1  0
 12 13  2  0
 13 14  1  0
 13 15  1  0
 15 16  1  0
 16 17  2  0
 17 18  1  0
 18 19  2  0
 19 20  1  0
 20 21  2  0
 20 22  1  0
 22 23  1  0
 23 24  1  0
 24 25  1  0
 25 26  1  0
 26 27  1  0
 27 28  1  0
 28 29  1  0
 28 30  1  0
 30 31  1  0
 19 32  1  0
 32 33  2  0
 15  2  1  0
 33 16  1  0
 10  5  2  0
 31 25  1  0
M  CHG  4   6  -1   9  -1  11  -1  22  -1
M  END
>  <UniqueID>  (896) 
56

>  <SMILES>  (896) 
C=c1/c(=C/c2[n-]c(=O)[n-]c2[O-])cc(C)n1-c1ccc(C(=O)[N-]CCN2CCN(C)CC2)cc1

>  <Energy>  (896) 
147.68357107173222

>  <Genealogy>  (896) 
C=c1c(=Cc2[n-]c(=O)[n-]c2[O-])cc(C)n1-c1ccc(C(=O)[N-]CCN2CCN(C)CC2)cc1 (protonated)
C=c1/c(=C/c2[n-]c(=O)[n-]c2[O-])cc(C)n1-c1ccc(C(=O)[N-]CCN2CCN(C)CC2)cc1 (cis-trans isomerization)
C=c1/c(=C/c2[n-]c(=O)[n-]c2[O-])cc(C)n1-c1ccc(C(=O)[N-]CCN2CCN(C)CC2)cc1 (3D coordinates assigned)
C=c1/c(=C/c2[n-]c(=O)[n-]c2[O-])cc(C)n1-c1ccc(C(=O)[N-]CCN2CCN(C)CC2)cc1 (nonaromatic ring conformer: 147.68357107173222 kcal/mol)

>  <smiles>  (896) 
C=c1c(=Cc2[nH]c(=O)[nH]c2O)cc(C)n1-c1ccc(C(=O)NCCN2CCN(C)CC2)cc1

>  <score_type>  (896) 
oracle

>  <origin>  (896) 
adg

>  <m_score__min__energy>  (896) 
-16.600000000000001

>  <m_primary>  (896) 
energy

$$$$
78:0
     RDKit          3D

 25 26  0  0  0  0  0  0  0  0999 V2000
   64.6420   32.6800   49.5830 C   0  0  0  0  0  0  0  0  0  0  0  0
   63.1280   32.5960   49.7530 C   0  0  0  0  0  0  0  0  0  0  0  0
   62.4480   32.9680   48.4990 N   0  0  0  0  0  0  0  0  0  0  0  0
   63.2290   32.6220   47.2910 C   0  0  0  0  0  0  0  0  0  0  0  0
   63.3620   33.8530   46.4070 C   0  0  0  0  0  0  0  0  0  0  0  0
   60.8320   32.2900   48.4500 S   0  0  0  0  0  0  0  0  0  0  0  0
   60.1450   32.4640   49.7760 O   0  0  0  0  0  0  0  0  0  0  0  0
   60.9620   30.8170   48.1800 O   0  0  0  0  0  0  0  0  0  0  0  0
   59.8380   33.0280   47.1850 C   0  0  0  0  0  0  0  0  0  0  0  0
   60.0750   34.3500   46.7780 C   0  0  0  0  0  0  0  0  0  0  0  0
   59.3000   34.9240   45.7680 C   0  0  0  0  0  0  0  0  0  0  0  0
   58.2830   34.1840   45.1570 C   0  0  0  0  0  0  0  0  0  0  0  0
   58.0390   32.8570   45.5530 C   0  0  0  0  0  0  0  0  0  0  0  0
   56.9840   32.0810   44.9690 N   0  0  0  0  0  0  0  0  0  0  0  0
   57.1600   30.9380   44.1220 C   0  0  0  0  0  0  0  0  0  0  0  0
   57.1950   31.1060   42.8740 O   0  0  0  0  0  0  0  0  0  0  0  0
   57.2790   29.5700   44.6740 C   0  0  0  0  0  0  0  0  0  0  0  0
   58.5510   28.9900   44.8160 C   0  0  0  0  0  0  0  0  0  0  0  0
   58.6890   27.7110   45.3600 C   0  0  0  0  0  0  0  0  0  0  0  0
   57.5590   26.9940   45.7570 C   0  0  0  0  0  0  0  0  0  0  0  0
   56.2850   27.5470   45.6000 C   0  0  0  0  0  0  0  0  0  0  0  0
   55.1640   26.8190   45.9850 O   0  0  0  0  0  0  0  0  0  0  0  0
   56.1390   28.8300   45.0540 C   0  0  0  0  0  0  0  0  0  0  0  0
   54.8610   29.3490   44.8720 O   0  0  0  0  0  0  0  0  0  0  0  0
   58.8070   32.2930   46.5790 C   0  0  0  0  0  0  0  0  0  0  0  0
  1  2  1  0
  2  3  1  0
  3  4  1  0
  4  5  1  0
  3  6  1  0
  6  7  2  0
  6  8  2  0
  6  9  1  0
  9 10  2  0
 10 11  1  0
 11 12  2  0
 12 13  1  0
 13 14  1  0
 14 15  1  0
 15 16  2  0
 15 17  1  0
 17 18  2  0
 18 19  1  0
 19 20  2  0
 20 21  1  0
 21 22  1  0
 21 23  2  0
 23 24  1  0
 13 25  2  0
 25  9  1  0
 23 17  1  0
M  CHG  3  14  -1  22  -1  24  -1
M  END
>  <UniqueID>  (897) 
73

>  <SMILES>  (897) 
CCN(CC)S(=O)(=O)c1cccc([N-]C(=O)c2cccc([O-])c2[O-])c1

>  <Energy>  (897) 
49.5139663932042

>  <Genealogy>  (897) 
CCN(CC)S(=O)(=O)c1cccc([N-]C(=O)c2cccc([O-])c2[O-])c1 (protonated)
CCN(CC)S(=O)(=O)c1cccc([N-]C(=O)c2cccc([O-])c2[O-])c1 (3D coordinates assigned)
CCN(CC)S(=O)(=O)c1cccc([N-]C(=O)c2cccc([O-])c2[O-])c1 (optimized conformer: 49.5139663932042 kcal/mol)

>  <smiles>  (897) 
CCN(CC)S(=O)(=O)c1cccc(NC(=O)c2cccc(O)c2O)c1

>  <score_type>  (897) 
oracle

>  <origin>  (897) 
adg

>  <m_score__min__energy>  (897) 
-16.870000000000001

>  <m_primary>  (897) 
energy

$$$$
81:0
     RDKit          3D

 24 26  0  0  0  0  0  0  0  0999 V2000
   58.9310   30.3650   47.1990 C   0  0  0  0  0  0  0  0  0  0  0  0
   58.5800   31.2370   46.2400 C   0  0  0  0  0  0  0  0  0  0  0  0
   58.1750   30.9250   44.9290 C   0  0  0  0  0  0  0  0  0  0  0  0
   57.8830   29.7440   44.3460 C   0  0  0  0  0  0  0  0  0  0  0  0
   57.5140   28.5020   45.0540 C   0  0  0  0  0  0  0  0  0  0  0  0
   56.1700   28.1580   45.2730 C   0  0  0  0  0  0  0  0  0  0  0  0
   55.1440   29.0010   44.8590 O   0  0  0  0  0  0  0  0  0  0  0  0
   55.8610   26.9890   45.8900 N   0  0  0  0  0  0  0  0  0  0  0  0
   56.8330   26.1290   46.2880 C   0  0  0  0  0  0  0  0  0  0  0  0
   56.4330   24.7320   47.0290 S   0  0  0  0  0  0  0  0  0  0  0  0
   58.1390   26.4250   46.0600 N   0  0  0  0  0  0  0  0  0  0  0  0
   58.4990   27.5830   45.4470 C   0  0  0  0  0  0  0  0  0  0  0  0
   59.7200   27.8230   45.2470 O   0  0  0  0  0  0  0  0  0  0  0  0
   58.0730   32.1280   44.2570 C   0  0  0  0  0  0  0  0  0  0  0  0
   58.3600   33.1230   45.1670 C   0  0  0  0  0  0  0  0  0  0  0  0
   58.2850   34.5880   44.8610 C   0  0  0  0  0  0  0  0  0  0  0  0
   58.6650   32.5910   46.3740 N   0  0  0  0  0  0  0  0  0  0  0  0
   58.9670   33.3700   47.5880 C   0  0  0  0  0  0  0  0  0  0  0  0
   60.4560   33.5230   47.7620 C   0  0  0  0  0  0  0  0  0  0  0  0
   60.9930   33.8710   49.0130 C   0  0  0  0  0  0  0  0  0  0  0  0
   62.3730   34.0270   49.1690 C   0  0  0  0  0  0  0  0  0  0  0  0
   63.2280   33.8370   48.0800 C   0  0  0  0  0  0  0  0  0  0  0  0
   62.7040   33.4890   46.8330 C   0  0  0  0  0  0  0  0  0  0  0  0
   61.3230   33.3310   46.6720 C   0  0  0  0  0  0  0  0  0  0  0  0
  1  2  2  0
  2  3  1  0
  3  4  2  0
  4  5  1  0
  5  6  2  0
  6  7  1  0
  6  8  1  0
  8  9  1  0
  9 10  2  0
  9 11  1  0
 11 12  1  0
 12 13  2  0
  3 14  1  0
 14 15  2  0
 15 16  1  0
 15 17  1  0
 17 18  1  0
 18 19  1  0
 19 20  2  0
 20 21  1  0
 21 22  2  0
 22 23  1  0
 23 24  2  0
 17  2  1  0
 24 19  1  0
 12  5  1  0
M  CHG  3   7  -1   8  -1  11  -1
M  END
>  <UniqueID>  (898) 
76

>  <SMILES>  (898) 
C=c1/c(=C\c2c([O-])[n-]c(=S)[n-]c2=O)cc(C)n1Cc1ccccc1

>  <Energy>  (898) 
82.98167623709764

>  <Genealogy>  (898) 
C=c1c(=Cc2c([O-])[n-]c(=S)[n-]c2=O)cc(C)n1Cc1ccccc1 (protonated)
C=c1/c(=C\c2c([O-])[n-]c(=S)[n-]c2=O)cc(C)n1Cc1ccccc1 (cis-trans isomerization)
C=c1/c(=C\c2c([O-])[n-]c(=S)[n-]c2=O)cc(C)n1Cc1ccccc1 (3D coordinates assigned)
C=c1/c(=C\c2c([O-])[n-]c(=S)[n-]c2=O)cc(C)n1Cc1ccccc1 (optimized conformer: 82.98167623709764 kcal/mol)

>  <smiles>  (898) 
C=c1c(=Cc2c(O)[nH]c(=S)[nH]c2=O)cc(C)n1Cc1ccccc1

>  <score_type>  (898) 
oracle

>  <origin>  (898) 
adg

>  <m_score__min__energy>  (898) 
-15.210000000000001

>  <m_primary>  (898) 
energy

$$$$
31:0
     RDKit          3D

 28 30  0  0  0  0  0  0  0  0999 V2000
   58.6680   29.8860   47.6560 C   0  0  0  0  0  0  0  0  0  0  0  0
   58.3090   30.4130   46.4720 C   0  0  0  0  0  0  0  0  0  0  0  0
   58.1800   29.7070   45.2710 C   0  0  0  0  0  0  0  0  0  0  0  0
   58.4170   28.3970   45.0560 C   0  0  0  0  0  0  0  0  0  0  0  0
   57.5300   27.3170   45.5460 C   0  0  0  0  0  0  0  0  0  0  0  0
   56.1360   27.4830   45.6170 C   0  0  0  0  0  0  0  0  0  0  0  0
   55.5390   28.6750   45.2260 O   0  0  0  0  0  0  0  0  0  0  0  0
   55.3570   26.4770   46.0940 N   0  0  0  0  0  0  0  0  0  0  0  0
   55.9030   25.3110   46.5220 C   0  0  0  0  0  0  0  0  0  0  0  0
   55.1620   24.3920   46.9560 O   0  0  0  0  0  0  0  0  0  0  0  0
   57.2500   25.1370   46.4900 N   0  0  0  0  0  0  0  0  0  0  0  0
   58.0720   26.1120   46.0210 C   0  0  0  0  0  0  0  0  0  0  0  0
   59.3160   25.9170   46.0090 O   0  0  0  0  0  0  0  0  0  0  0  0
   57.8070   30.6340   44.3100 C   0  0  0  0  0  0  0  0  0  0  0  0
   57.7100   31.8510   44.9510 C   0  0  0  0  0  0  0  0  0  0  0  0
   57.3940   33.1410   44.2560 C   0  0  0  0  0  0  0  0  0  0  0  0
   58.0140   31.7250   46.2660 N   0  0  0  0  0  0  0  0  0  0  0  0
   58.0710   32.8350   47.2330 C   0  0  0  0  0  0  0  0  0  0  0  0
   59.4920   33.0870   47.6680 C   0  0  0  0  0  0  0  0  0  0  0  0
   60.5540   32.9150   46.7640 C   0  0  0  0  0  0  0  0  0  0  0  0
   61.8710   33.1340   47.1740 C   0  0  0  0  0  0  0  0  0  0  0  0
   62.1510   33.5090   48.4920 C   0  0  0  0  0  0  0  0  0  0  0  0
   63.5140   33.7490   48.8710 N   0  0  0  0  0  0  0  0  0  0  0  0
   64.3940   32.8280   49.5310 C   0  0  0  0  0  0  0  0  0  0  0  0
   63.8810   31.6450   50.2940 C   0  0  0  0  0  0  0  0  0  0  0  0
   65.6370   33.0000   49.4370 O   0  0  0  0  0  0  0  0  0  0  0  0
   61.0890   33.7150   49.3890 C   0  0  0  0  0  0  0  0  0  0  0  0
   59.7710   33.4960   48.9810 C   0  0  0  0  0  0  0  0  0  0  0  0
  1  2  2  0
  2  3  1  0
  3  4  2  3
  4  5  1  0
  5  6  2  0
  6  7  1  0
  6  8  1  0
  8  9  1  0
  9 10  2  0
  9 11  1  0
 11 12  1  0
 12 13  2  0
  3 14  1  0
 14 15  2  0
 15 16  1  0
 15 17  1  0
 17 18  1  0
 18 19  1  0
 19 20  2  0
 20 21  1  0
 21 22  2  0
 22 23  1  0
 23 24  1  0
 24 25  1  0
 24 26  2  0
 22 27  1  0
 27 28  2  0
 17  2  1  0
 28 19  1  0
 12  5  1  0
M  CHG  4   7  -1   8  -1  11  -1  23  -1
M  END
>  <UniqueID>  (899) 
30

>  <SMILES>  (899) 
C=c1c(=Cc2c([O-])[n-]c(=O)[n-]c2=O)cc(C)n1Cc1ccc([N-]C(C)=O)cc1

>  <Energy>  (899) 
88.02346829658035

>  <Genealogy>  (899) 
C=c1c(=Cc2c([O-])[n-]c(=O)[n-]c2=O)cc(C)n1Cc1ccc([N-]C(C)=O)cc1 (protonated)
C=c1c(=Cc2c([O-])[n-]c(=O)[n-]c2=O)cc(C)n1Cc1ccc([N-]C(C)=O)cc1 (3D coordinates assigned)
C=c1c(=Cc2c([O-])[n-]c(=O)[n-]c2=O)cc(C)n1Cc1ccc([N-]C(C)=O)cc1 (optimized conformer: 88.02346829658035 kcal/mol)

>  <smiles>  (899) 
C=c1c(=Cc2c(O)[nH]c(=O)[nH]c2=O)cc(C)n1Cc1ccc(NC(C)=O)cc1

>  <score_type>  (899) 
oracle

>  <origin>  (899) 
adg

>  <m_score__min__energy>  (899) 
-16.48

>  <m_primary>  (899) 
energy

$$$$
59:0
     RDKit          3D

 35 38  0  0  0  0  0  0  0  0999 V2000
   57.8890   32.9000   44.7590 C   0  0  0  0  0  0  0  0  0  0  0  0
   58.2800   31.8120   45.7180 C   0  0  0  0  0  0  0  0  0  0  0  0
   57.7480   30.5270   45.7460 C   0  0  0  0  0  0  0  0  0  0  0  0
   56.6800   29.9640   44.8980 C   0  0  0  0  0  0  0  0  0  0  0  0
   55.7990   30.7130   44.4010 O   0  0  0  0  0  0  0  0  0  0  0  0
   56.6980   28.5670   44.5720 N   0  0  0  0  0  0  0  0  0  0  0  0
   57.1950   27.5790   45.2610 C   0  0  0  0  0  0  0  0  0  0  0  0
   58.5500   27.4950   45.3570 N   0  0  0  0  0  0  0  0  0  0  0  0
   59.1750   26.5160   46.0610 C   0  0  0  0  0  0  0  0  0  0  0  0
   58.4280   25.5500   46.7270 C   0  0  0  0  0  0  0  0  0  0  0  0
   57.0380   25.6090   46.6710 C   0  0  0  0  0  0  0  0  0  0  0  0
   56.4050   26.6270   45.9560 C   0  0  0  0  0  0  0  0  0  0  0  0
   55.0190   26.6950   45.9940 O   0  0  0  0  0  0  0  0  0  0  0  0
   58.3740   29.8600   46.7830 C   0  0  0  0  0  0  0  0  0  0  0  0
   59.2770   30.7480   47.3290 C   0  0  0  0  0  0  0  0  0  0  0  0
   60.0680   30.4770   48.5330 C   0  0  0  0  0  0  0  0  0  0  0  0
   60.6090   29.3460   48.6400 O   0  0  0  0  0  0  0  0  0  0  0  0
   60.2710   31.4310   49.5870 N   0  0  0  0  0  0  0  0  0  0  0  0
   59.4000   31.9720   50.5960 C   0  0  0  0  0  0  0  0  0  0  0  0
   59.4370   33.3110   51.0350 C   0  0  0  0  0  0  0  0  0  0  0  0
   58.5140   33.7690   51.9790 C   0  0  0  0  0  0  0  0  0  0  0  0
   57.5550   32.9020   52.5080 C   0  0  0  0  0  0  0  0  0  0  0  0
   57.5210   31.5620   52.1040 C   0  0  0  0  0  0  0  0  0  0  0  0
   56.3380   30.4490   52.8060 S   0  0  0  0  0  0  0  0  0  0  0  0
   56.5830   30.3390   54.2870 O   0  0  0  0  0  0  0  0  0  0  0  0
   56.5380   29.0870   52.2020 O   0  0  0  0  0  0  0  0  0  0  0  0
   54.6920   30.9880   52.5650 N   0  0  0  0  0  0  0  0  0  0  0  0
   54.1810   30.5710   51.2530 C   0  0  0  0  0  0  0  0  0  0  0  0
   52.7590   31.1330   51.0400 C   0  0  0  0  0  0  0  0  0  0  0  0
   52.2030   31.6640   52.2310 O   0  0  0  0  0  0  0  0  0  0  0  0
   52.3300   30.7270   53.2820 C   0  0  0  0  0  0  0  0  0  0  0  0
   53.8120   30.5060   53.6430 C   0  0  0  0  0  0  0  0  0  0  0  0
   58.4400   31.1100   51.1430 C   0  0  0  0  0  0  0  0  0  0  0  0
   59.2130   31.9390   46.6920 N   0  0  0  0  0  0  0  0  0  0  0  0
   59.9940   33.1400   46.9980 C   0  0  0  0  0  0  0  0  0  0  0  0
  1  2  1  0
  2  3  2  0
  3  4  1  0
  4  5  2  0
  4  6  1  0
  6  7  2  3
  7  8  1  0
  8  9  1  0
  9 10  2  0
 10 11  1  0
 11 12  2  0
 12 13  1  0
  3 14  1  0
 14 15  2  0
 15 16  1  0
 16 17  2  0
 16 18  1  0
 18 19  1  0
 19 20  2  0
 20 21  1  0
 21 22  2  0
 22 23  1  0
 23 24  1  0
 24 25  2  0
 24 26  2  0
 24 27  1  0
 27 28  1  0
 28 29  1  0
 29 30  1  0
 30 31  1  0
 31 32  1  0
 23 33  2  0
 15 34  1  0
 34 35  1  0
 34  2  1  0
 12  7  1  0
 33 19  1  0
 32 27  1  0
M  CHG  3   8  -1  13  -1  18  -1
M  END
>  <UniqueID>  (900) 
57

>  <SMILES>  (900) 
Cc1c(C(=O)N=c2[n-]cccc2[O-])cc(C(=O)[N-]c2cccc(S(=O)(=O)N3CCOCC3)c2)n1C

>  <Energy>  (900) 
122.1068986141844

>  <Genealogy>  (900) 
Cc1c(C(=O)N=c2[n-]cccc2[O-])cc(C(=O)[N-]c2cccc(S(=O)(=O)N3CCOCC3)c2)n1C (protonated)
Cc1c(C(=O)N=c2[n-]cccc2[O-])cc(C(=O)[N-]c2cccc(S(=O)(=O)N3CCOCC3)c2)n1C (3D coordinates assigned)
Cc1c(C(=O)N=c2[n-]cccc2[O-])cc(C(=O)[N-]c2cccc(S(=O)(=O)N3CCOCC3)c2)n1C (nonaromatic ring conformer: 122.1068986141844 kcal/mol)

>  <smiles>  (900) 
Cc1c(C(=O)N=c2[nH]cccc2O)cc(C(=O)Nc2cccc(S(=O)(=O)N3CCOCC3)c2)n1C

>  <score_type>  (900) 
oracle

>  <origin>  (900) 
adg

>  <m_score__min__energy>  (900) 
-16.109999999999999

>  <m_primary>  (900) 
energy

$$$$
1:0
     RDKit          3D

 34 37  0  0  0  0  0  0  0  0999 V2000
   50.6460   23.4310   44.0950 C   0  0  0  0  0  0  0  0  0  0  0  0
   51.1690   22.2640   44.7220 O   0  0  0  0  0  0  0  0  0  0  0  0
   51.8190   22.2540   45.9650 C   0  0  0  0  0  0  0  0  0  0  0  0
   51.1800   21.8030   47.1380 C   0  0  0  0  0  0  0  0  0  0  0  0
   51.8600   21.8090   48.3590 C   0  0  0  0  0  0  0  0  0  0  0  0
   53.1790   22.2530   48.4230 C   0  0  0  0  0  0  0  0  0  0  0  0
   53.8230   22.7030   47.2690 C   0  0  0  0  0  0  0  0  0  0  0  0
   53.1430   22.7200   46.0370 C   0  0  0  0  0  0  0  0  0  0  0  0
   53.7880   23.1650   44.8350 N   0  0  0  0  0  0  0  0  0  0  0  0
   55.1750   23.0020   44.5240 C   0  0  0  0  0  0  0  0  0  0  0  0
   55.5270   22.3870   43.4800 O   0  0  0  0  0  0  0  0  0  0  0  0
   56.2030   23.4500   45.5180 C   0  0  0  0  0  0  0  0  0  0  0  0
   56.3820   24.9350   45.4910 C   0  0  0  0  0  0  0  0  0  0  0  0
   55.5190   25.7990   46.0740 N   0  0  0  0  0  0  0  0  0  0  0  0
   55.9070   27.0680   45.9880 N   0  0  0  0  0  0  0  0  0  0  0  0
   57.0820   27.2170   45.3350 C   0  0  0  0  0  0  0  0  0  0  0  0
   57.6820   28.3560   45.1560 N   0  0  0  0  0  0  0  0  0  0  0  0
   57.0620   29.6490   45.2330 C   0  0  0  0  0  0  0  0  0  0  0  0
   55.8650   29.7660   44.8680 O   0  0  0  0  0  0  0  0  0  0  0  0
   57.7660   30.8340   45.7710 C   0  0  0  0  0  0  0  0  0  0  0  0
   58.5340   30.7400   46.9450 C   0  0  0  0  0  0  0  0  0  0  0  0
   59.1970   31.8620   47.4460 C   0  0  0  0  0  0  0  0  0  0  0  0
   59.0920   33.0960   46.7890 C   0  0  0  0  0  0  0  0  0  0  0  0
   59.9610   34.5050   47.4050 S   0  0  0  0  0  0  0  0  0  0  0  0
   59.7930   35.6410   46.4370 O   0  0  0  0  0  0  0  0  0  0  0  0
   59.3540   34.9200   48.7170 O   0  0  0  0  0  0  0  0  0  0  0  0
   61.6660   34.2080   47.6380 N   0  0  0  0  0  0  0  0  0  0  0  0
   61.9160   33.1310   48.5920 C   0  0  0  0  0  0  0  0  0  0  0  0
   63.2890   32.5710   48.2530 C   0  0  0  0  0  0  0  0  0  0  0  0
   63.5700   33.0330   46.8280 C   0  0  0  0  0  0  0  0  0  0  0  0
   62.3250   33.7940   46.4040 C   0  0  0  0  0  0  0  0  0  0  0  0
   58.3170   33.1950   45.6260 C   0  0  0  0  0  0  0  0  0  0  0  0
   57.6490   32.0750   45.1260 C   0  0  0  0  0  0  0  0  0  0  0  0
   57.7160   25.7380   44.8440 S   0  0  0  0  0  0  0  0  0  0  0  0
  1  2  1  0
  2  3  1  0
  3  4  2  0
  4  5  1  0
  5  6  2  0
  6  7  1  0
  7  8  2  0
  8  9  1  0
  9 10  1  0
 10 11  2  0
 10 12  1  0
 12 13  1  0
 13 14  2  0
 14 15  1  0
 15 16  1  0
 16 17  2  3
 17 18  1  0
 18 19  2  0
 18 20  1  0
 20 21  2  0
 21 22  1  0
 22 23  2  0
 23 24  1  0
 24 25  2  0
 24 26  2  0
 24 27  1  0
 27 28  1  0
 28 29  1  0
 29 30  1  0
 30 31  1  0
 23 32  1  0
 32 33  2  0
 16 34  1  0
  8  3  1  0
 34 13  1  0
 33 20  1  0
 31 27  1  0
M  CHG  2   9  -1  15  -1
M  END
>  <UniqueID>  (901) 
2

>  <SMILES>  (901) 
COc1ccccc1[N-]C(=O)Cc1n[n-]c(=NC(=O)c2ccc(S(=O)(=O)N3CCCC3)cc2)s1

>  <Energy>  (901) 
102.5768191031831

>  <Genealogy>  (901) 
COc1ccccc1[N-]C(=O)Cc1n[n-]c(=NC(=O)c2ccc(S(=O)(=O)N3CCCC3)cc2)s1 (protonated)
COc1ccccc1[N-]C(=O)Cc1n[n-]c(=NC(=O)c2ccc(S(=O)(=O)N3CCCC3)cc2)s1 (3D coordinates assigned)
COc1ccccc1[N-]C(=O)Cc1n[n-]c(=NC(=O)c2ccc(S(=O)(=O)N3CCCC3)cc2)s1 (nonaromatic ring conformer: 102.5768191031831 kcal/mol)

>  <smiles>  (901) 
COc1ccccc1NC(=O)Cc1n[nH]c(=NC(=O)c2ccc(S(=O)(=O)N3CCCC3)cc2)s1

>  <score_type>  (901) 
oracle

>  <origin>  (901) 
adg

>  <m_score__min__energy>  (901) 
-14.43

>  <m_primary>  (901) 
energy

$$$$
39:0
     RDKit          3D

 31 33  0  0  0  0  0  0  0  0999 V2000
   62.1430   31.7910   48.1060 C   0  0  0  0  0  0  0  0  0  0  0  0
   61.3410   30.7320   47.9650 C   0  0  0  0  0  0  0  0  0  0  0  0
   61.1450   30.0530   46.6350 C   0  0  0  0  0  0  0  0  0  0  0  0
   60.4460   28.7650   46.8090 N   0  0  0  0  0  0  0  0  0  0  0  0
   60.7780   27.8190   45.7100 C   0  0  0  0  0  0  0  0  0  0  0  0
   60.5140   26.3460   46.0810 C   0  0  0  0  0  0  0  0  0  0  0  0
   59.5370   26.2570   47.1710 N   0  0  0  0  0  0  0  0  0  0  0  0
   58.2410   25.6770   46.9280 C   0  0  0  0  0  0  0  0  0  0  0  0
   58.0860   24.3310   47.0570 N   0  0  0  0  0  0  0  0  0  0  0  0
   56.8950   23.7280   46.8180 C   0  0  0  0  0  0  0  0  0  0  0  0
   56.7880   22.4800   46.9400 O   0  0  0  0  0  0  0  0  0  0  0  0
   55.8200   24.4680   46.4510 N   0  0  0  0  0  0  0  0  0  0  0  0
   55.9100   25.8150   46.3150 C   0  0  0  0  0  0  0  0  0  0  0  0
   54.7720   26.5400   45.9790 O   0  0  0  0  0  0  0  0  0  0  0  0
   57.1370   26.4640   46.5370 C   0  0  0  0  0  0  0  0  0  0  0  0
   57.2330   27.9400   46.4770 C   0  0  0  0  0  0  0  0  0  0  0  0
   57.4350   28.6300   45.3370 C   0  0  0  0  0  0  0  0  0  0  0  0
   57.6900   27.9360   44.0930 C   0  0  0  0  0  0  0  0  0  0  0  0
   57.8940   27.3800   43.0990 N   0  0  0  0  0  0  0  0  0  0  0  0
   57.4390   30.1150   45.3450 C   0  0  0  0  0  0  0  0  0  0  0  0
   56.4970   30.7490   44.7940 O   0  0  0  0  0  0  0  0  0  0  0  0
   58.5000   30.8420   45.9850 N   0  0  0  0  0  0  0  0  0  0  0  0
   58.6470   32.2630   45.8490 C   0  0  0  0  0  0  0  0  0  0  0  0
   58.9530   33.0220   46.9870 C   0  0  0  0  0  0  0  0  0  0  0  0
   59.0860   34.4090   46.8990 C   0  0  0  0  0  0  0  0  0  0  0  0
   58.9240   35.0500   45.6700 C   0  0  0  0  0  0  0  0  0  0  0  0
   58.6470   34.3040   44.5220 C   0  0  0  0  0  0  0  0  0  0  0  0
   58.5290   32.9050   44.5920 C   0  0  0  0  0  0  0  0  0  0  0  0
   58.2740   32.1310   43.3270 C   0  0  0  0  0  0  0  0  0  0  0  0
   59.7970   27.0150   48.4040 C   0  0  0  0  0  0  0  0  0  0  0  0
   60.7530   28.1830   48.1290 C   0  0  0  0  0  0  0  0  0  0  0  0
  1  2  2  0
  2  3  1  0
  3  4  1  0
  4  5  1  0
  5  6  1  0
  6  7  1  0
  7  8  1  0
  8  9  2  0
  9 10  1  0
 10 11  2  0
 10 12  1  0
 12 13  1  0
 13 14  1  0
 13 15  2  0
 15 16  1  0
 16 17  2  3
 17 18  1  0
 18 19  3  0
 17 20  1  0
 20 21  2  0
 20 22  1  0
 22 23  1  0
 23 24  2  0
 24 25  1  0
 25 26  2  0
 26 27  1  0
 27 28  2  0
 28 29  1  0
  7 30  1  0
 30 31  1  0
 31  4  1  0
 15  8  1  0
 28 23  1  0
M  CHG  2  12  -1  14  -1
M  END
>  <UniqueID>  (902) 
38

>  <SMILES>  (902) 
C=CCN1CCN(c2nc(=O)[n-]c([O-])c2C=C(C#N)C(=O)Nc2ccccc2C)CC1

>  <Energy>  (902) 
77.79836361266895

>  <Genealogy>  (902) 
C=CCN1CCN(c2nc(=O)[n-]c([O-])c2C=C(C#N)C(=O)Nc2ccccc2C)CC1 (protonated)
C=CCN1CCN(c2nc(=O)[n-]c([O-])c2C=C(C#N)C(=O)Nc2ccccc2C)CC1 (3D coordinates assigned)
C=CCN1CCN(c2nc(=O)[n-]c([O-])c2C=C(C#N)C(=O)Nc2ccccc2C)CC1 (nonaromatic ring conformer: 77.79836361266895 kcal/mol)

>  <smiles>  (902) 
C=CCN1CCN(c2nc(=O)[nH]c(O)c2C=C(C#N)C(=O)Nc2ccccc2C)CC1

>  <score_type>  (902) 
oracle

>  <origin>  (902) 
adg

>  <m_score__min__energy>  (902) 
-14.210000000000001

>  <m_primary>  (902) 
energy

$$$$
48:0
     RDKit          3D

 26 27  0  0  0  0  0  0  0  0999 V2000
   57.7560   32.0580   42.0670 C   0  0  0  0  0  0  0  0  0  0  0  0
   57.7740   32.7860   43.4070 C   0  0  0  0  0  0  0  0  0  0  0  0
   58.1550   31.8680   44.4920 N   0  0  0  0  0  0  0  0  0  0  0  0
   57.9300   30.4220   44.3180 C   0  0  0  0  0  0  0  0  0  0  0  0
   56.4650   30.0720   44.4200 C   0  0  0  0  0  0  0  0  0  0  0  0
   55.6080   30.7430   43.7860 O   0  0  0  0  0  0  0  0  0  0  0  0
   56.0180   29.0140   45.2760 N   0  0  0  0  0  0  0  0  0  0  0  0
   56.7860   27.8490   45.5900 C   0  0  0  0  0  0  0  0  0  0  0  0
   58.1820   27.9380   45.6230 C   0  0  0  0  0  0  0  0  0  0  0  0
   58.9530   26.8140   45.9390 C   0  0  0  0  0  0  0  0  0  0  0  0
   58.3270   25.6000   46.2400 C   0  0  0  0  0  0  0  0  0  0  0  0
   56.9330   25.5110   46.2390 C   0  0  0  0  0  0  0  0  0  0  0  0
   56.1580   26.6350   45.9300 C   0  0  0  0  0  0  0  0  0  0  0  0
   54.7730   26.5460   45.9890 O   0  0  0  0  0  0  0  0  0  0  0  0
   58.7730   32.3970   45.6890 C   0  0  0  0  0  0  0  0  0  0  0  0
   59.5340   33.3990   45.6110 O   0  0  0  0  0  0  0  0  0  0  0  0
   58.4880   31.8300   47.0500 C   0  0  0  0  0  0  0  0  0  0  0  0
   60.0110   31.8750   48.0520 S   0  0  0  0  0  0  0  0  0  0  0  0
   59.1300   31.9850   49.6060 C   0  0  0  0  0  0  0  0  0  0  0  0
   59.1980   33.1220   50.3500 N   0  0  0  0  0  0  0  0  0  0  0  0
   58.5360   33.2240   51.5330 C   0  0  0  0  0  0  0  0  0  0  0  0
   58.6280   34.4250   52.2970 N   0  0  0  0  0  0  0  0  0  0  0  0
   57.7730   32.1470   51.9950 C   0  0  0  0  0  0  0  0  0  0  0  0
   57.7130   30.9910   51.2160 C   0  0  0  0  0  0  0  0  0  0  0  0
   57.0390   30.0010   51.6000 O   0  0  0  0  0  0  0  0  0  0  0  0
   58.3880   30.9320   50.0380 N   0  0  0  0  0  0  0  0  0  0  0  0
  1  2  1  0
  2  3  1  0
  3  4  1  0
  4  5  1  0
  5  6  2  0
  5  7  1  0
  7  8  1  0
  8  9  2  0
  9 10  1  0
 10 11  2  0
 11 12  1  0
 12 13  2  0
 13 14  1  0
  3 15  1  0
 15 16  2  0
 15 17  1  0
 17 18  1  0
 18 19  1  0
 19 20  2  0
 20 21  1  0
 21 22  1  0
 21 23  2  0
 23 24  1  0
 24 25  2  0
 24 26  1  0
 13  8  1  0
 26 19  1  0
M  CHG  3   7  -1  14  -1  26  -1
M  END
>  <UniqueID>  (903) 
46

>  <SMILES>  (903) 
CCN(CC(=O)[N-]c1ccccc1[O-])C(=O)CSc1nc(N)cc(=O)[n-]1

>  <Energy>  (903) 
39.99579064845418

>  <Genealogy>  (903) 
CCN(CC(=O)[N-]c1ccccc1[O-])C(=O)CSc1nc(N)cc(=O)[n-]1 (protonated)
CCN(CC(=O)[N-]c1ccccc1[O-])C(=O)CSc1nc(N)cc(=O)[n-]1 (3D coordinates assigned)
CCN(CC(=O)[N-]c1ccccc1[O-])C(=O)CSc1nc(N)cc(=O)[n-]1 (optimized conformer: 39.99579064845418 kcal/mol)

>  <smiles>  (903) 
CCN(CC(=O)Nc1ccccc1O)C(=O)CSc1nc(N)cc(=O)[nH]1

>  <score_type>  (903) 
oracle

>  <origin>  (903) 
adg

>  <m_score__min__energy>  (903) 
-14.380000000000001

>  <m_primary>  (903) 
energy

$$$$
58:0
     RDKit          3D

 26 27  0  0  0  0  0  0  0  0999 V2000
   57.4860   32.6070   46.6900 O   0  0  0  0  0  0  0  0  0  0  0  0
   58.2000   33.2780   45.8940 C   0  0  0  0  0  0  0  0  0  0  0  0
   58.0100   33.1190   44.4170 C   0  0  0  0  0  0  0  0  0  0  0  0
   57.3570   31.8430   44.1300 N   0  0  0  0  0  0  0  0  0  0  0  0
   57.0830   31.3980   42.7940 C   0  0  0  0  0  0  0  0  0  0  0  0
   57.2890   32.1620   41.8120 O   0  0  0  0  0  0  0  0  0  0  0  0
   56.5450   30.0200   42.5570 C   0  0  0  0  0  0  0  0  0  0  0  0
   57.1480   29.0750   43.4900 N   0  0  0  0  0  0  0  0  0  0  0  0
   56.6300   28.8080   44.8000 C   0  0  0  0  0  0  0  0  0  0  0  0
   55.7010   29.5310   45.2580 O   0  0  0  0  0  0  0  0  0  0  0  0
   57.1640   27.6870   45.6210 C   0  0  0  0  0  0  0  0  0  0  0  0
   58.5530   27.6050   45.8580 C   0  0  0  0  0  0  0  0  0  0  0  0
   59.0870   26.5710   46.6340 C   0  0  0  0  0  0  0  0  0  0  0  0
   58.2460   25.6040   47.1840 C   0  0  0  0  0  0  0  0  0  0  0  0
   56.8710   25.6630   46.9560 C   0  0  0  0  0  0  0  0  0  0  0  0
   56.3230   26.6930   46.1800 C   0  0  0  0  0  0  0  0  0  0  0  0
   54.9470   26.7040   45.9740 O   0  0  0  0  0  0  0  0  0  0  0  0
   59.1500   34.2330   46.3850 N   0  0  0  0  0  0  0  0  0  0  0  0
   60.3830   33.9550   47.0660 C   0  0  0  0  0  0  0  0  0  0  0  0
   61.5700   33.6490   46.3710 C   0  0  0  0  0  0  0  0  0  0  0  0
   62.7540   33.4020   47.0730 C   0  0  0  0  0  0  0  0  0  0  0  0
   62.7680   33.4660   48.4710 C   0  0  0  0  0  0  0  0  0  0  0  0
   64.3810   33.1160   49.4300 Br  0  0  0  0  0  0  0  0  0  0  0  0
   61.5980   33.7940   49.1670 C   0  0  0  0  0  0  0  0  0  0  0  0
   60.4130   34.0410   48.4670 C   0  0  0  0  0  0  0  0  0  0  0  0
   59.2830   34.3510   49.1550 F   0  0  0  0  0  0  0  0  0  0  0  0
  1  2  2  0
  2  3  1  0
  3  4  1  0
  4  5  1  0
  5  6  2  0
  5  7  1  0
  7  8  1  0
  8  9  1  0
  9 10  2  0
  9 11  1  0
 11 12  2  0
 12 13  1  0
 13 14  2  0
 14 15  1  0
 15 16  2  0
 16 17  1  0
  2 18  1  0
 18 19  1  0
 19 20  2  0
 20 21  1  0
 21 22  2  0
 22 23  1  0
 22 24  1  0
 24 25  2  0
 25 26  1  0
 16 11  1  0
 25 19  1  0
M  CHG  3   8  -1  17  -1  18  -1
M  END
>  <UniqueID>  (904) 
56

>  <SMILES>  (904) 
O=C(CNC(=O)C[N-]C(=O)c1ccccc1[O-])[N-]c1ccc(Br)cc1F

>  <Energy>  (904) 
38.93892461880648

>  <Genealogy>  (904) 
O=C(CNC(=O)C[N-]C(=O)c1ccccc1[O-])[N-]c1ccc(Br)cc1F (protonated)
O=C(CNC(=O)C[N-]C(=O)c1ccccc1[O-])[N-]c1ccc(Br)cc1F (3D coordinates assigned)
O=C(CNC(=O)C[N-]C(=O)c1ccccc1[O-])[N-]c1ccc(Br)cc1F (optimized conformer: 38.93892461880648 kcal/mol)

>  <smiles>  (904) 
O=C(CNC(=O)c1ccccc1O)NCC(=O)Nc1ccc(Br)cc1F

>  <score_type>  (904) 
oracle

>  <origin>  (904) 
adg

>  <m_score__min__energy>  (904) 
-14.98

>  <m_primary>  (904) 
energy

$$$$
61:0
     RDKit          3D

 25 27  0  0  0  0  0  0  0  0999 V2000
   60.2900   31.0880   48.3580 C   0  0  0  0  0  0  0  0  0  0  0  0
   61.4250   31.9590   47.8910 C   0  0  0  0  0  0  0  0  0  0  0  0
   62.6970   31.8010   48.4660 C   0  0  0  0  0  0  0  0  0  0  0  0
   63.7670   32.5960   48.0500 C   0  0  0  0  0  0  0  0  0  0  0  0
   63.5780   33.5650   47.0650 C   0  0  0  0  0  0  0  0  0  0  0  0
   62.3150   33.7450   46.4950 C   0  0  0  0  0  0  0  0  0  0  0  0
   61.2290   32.9520   46.9010 C   0  0  0  0  0  0  0  0  0  0  0  0
   59.9290   33.1830   46.3280 N   0  0  0  0  0  0  0  0  0  0  0  0
   59.3160   32.1670   45.7140 N   0  0  0  0  0  0  0  0  0  0  0  0
   58.0880   32.2920   45.1440 C   0  0  0  0  0  0  0  0  0  0  0  0
   57.4830   31.1330   44.4660 C   0  0  0  0  0  0  0  0  0  0  0  0
   57.7490   30.8900   43.2570 O   0  0  0  0  0  0  0  0  0  0  0  0
   56.5920   30.2790   45.1910 N   0  0  0  0  0  0  0  0  0  0  0  0
   56.1550   28.9720   44.7140 C   0  0  0  0  0  0  0  0  0  0  0  0
   56.9200   27.8790   45.4180 C   0  0  0  0  0  0  0  0  0  0  0  0
   58.3240   27.9350   45.4480 C   0  0  0  0  0  0  0  0  0  0  0  0
   59.0590   26.9250   46.0760 C   0  0  0  0  0  0  0  0  0  0  0  0
   58.4000   25.8500   46.6760 C   0  0  0  0  0  0  0  0  0  0  0  0
   57.0050   25.7810   46.6480 C   0  0  0  0  0  0  0  0  0  0  0  0
   56.2620   26.7870   46.0210 C   0  0  0  0  0  0  0  0  0  0  0  0
   54.8740   26.6940   46.0060 O   0  0  0  0  0  0  0  0  0  0  0  0
   57.4360   33.5270   45.2070 C   0  0  0  0  0  0  0  0  0  0  0  0
   58.0620   34.5940   45.8460 C   0  0  0  0  0  0  0  0  0  0  0  0
   59.3250   34.4100   46.4070 C   0  0  0  0  0  0  0  0  0  0  0  0
   59.9020   35.3820   46.9690 O   0  0  0  0  0  0  0  0  0  0  0  0
  1  2  1  0
  2  3  2  0
  3  4  1  0
  4  5  2  0
  5  6  1  0
  6  7  2  0
  7  8  1  0
  8  9  1  0
  9 10  2  0
 10 11  1  0
 11 12  2  0
 11 13  1  0
 13 14  1  0
 14 15  1  0
 15 16  2  0
 16 17  1  0
 17 18  2  0
 18 19  1  0
 19 20  2  0
 20 21  1  0
 10 22  1  0
 22 23  2  0
 23 24  1  0
 24 25  2  0
  7  2  1  0
 24  8  1  0
 20 15  1  0
M  CHG  2  13  -1  21  -1
M  END
>  <UniqueID>  (905) 
59

>  <SMILES>  (905) 
Cc1ccccc1-n1nc(C(=O)[N-]Cc2ccccc2[O-])ccc1=O

>  <Energy>  (905) 
49.159490660700264

>  <Genealogy>  (905) 
Cc1ccccc1-n1nc(C(=O)[N-]Cc2ccccc2[O-])ccc1=O (protonated)
Cc1ccccc1-n1nc(C(=O)[N-]Cc2ccccc2[O-])ccc1=O (3D coordinates assigned)
Cc1ccccc1-n1nc(C(=O)[N-]Cc2ccccc2[O-])ccc1=O (optimized conformer: 49.159490660700264 kcal/mol)

>  <smiles>  (905) 
Cc1ccccc1-n1nc(C(=O)NCc2ccccc2O)ccc1=O

>  <score_type>  (905) 
oracle

>  <origin>  (905) 
adg

>  <m_score__min__energy>  (905) 
-14.300000000000001

>  <m_primary>  (905) 
energy

$$$$
80:0
     RDKit          3D

 29 33  0  0  0  0  0  0  0  0999 V2000
   56.2620   29.0800   44.4950 C   0  0  0  0  0  0  0  0  0  0  0  0
   56.2720   30.3750   44.5260 N   0  0  0  0  0  0  0  0  0  0  0  0
   57.8410   29.7360   46.0380 N   0  0  0  0  0  0  0  0  0  0  0  0
   59.1090   30.1370   46.3040 C   0  0  0  0  0  0  0  0  0  0  0  0
   59.9520   29.5230   47.0840 N   0  0  0  0  0  0  0  0  0  0  0  0
   57.9020   34.2300   44.9900 C   0  0  0  0  0  0  0  0  0  0  0  0
   58.5550   34.5980   46.3110 C   0  0  0  0  0  0  0  0  0  0  0  0
   59.2320   34.9650   44.9900 C   0  0  0  0  0  0  0  0  0  0  0  0
   59.3530   31.3870   45.8420 N   0  0  0  0  0  0  0  0  0  0  0  0
   58.1640   31.7250   45.2910 C   0  0  0  0  0  0  0  0  0  0  0  0
   57.9290   32.8080   44.6010 N   0  0  0  0  0  0  0  0  0  0  0  0
   60.9050   30.1280   47.9650 C   0  0  0  0  0  0  0  0  0  0  0  0
   61.7870   31.0570   47.5050 N   0  0  0  0  0  0  0  0  0  0  0  0
   62.7210   31.6380   48.3060 C   0  0  0  0  0  0  0  0  0  0  0  0
   63.6300   32.6750   47.7150 C   0  0  0  0  0  0  0  0  0  0  0  0
   62.8030   31.2630   49.6650 C   0  0  0  0  0  0  0  0  0  0  0  0
   63.8170   31.8780   50.5930 C   0  0  0  0  0  0  0  0  0  0  0  0
   61.9220   30.2820   50.1450 C   0  0  0  0  0  0  0  0  0  0  0  0
   60.9760   29.7080   49.2940 C   0  0  0  0  0  0  0  0  0  0  0  0
   57.2540   30.7510   45.4490 N   0  0  0  0  0  0  0  0  0  0  0  0
   57.3230   28.5710   45.3810 C   0  0  0  0  0  0  0  0  0  0  0  0
   57.8290   27.3290   45.4100 C   0  0  0  0  0  0  0  0  0  0  0  0
   57.2600   26.2390   46.2180 C   0  0  0  0  0  0  0  0  0  0  0  0
   58.0010   25.2510   46.7490 N   0  0  0  0  0  0  0  0  0  0  0  0
   57.0820   24.4420   47.3200 C   0  0  0  0  0  0  0  0  0  0  0  0
   57.3950   23.3930   47.9420 O   0  0  0  0  0  0  0  0  0  0  0  0
   55.8020   24.8390   47.1640 N   0  0  0  0  0  0  0  0  0  0  0  0
   55.9290   25.9720   46.4530 C   0  0  0  0  0  0  0  0  0  0  0  0
   54.8490   26.7130   45.9890 O   0  0  0  0  0  0  0  0  0  0  0  0
  1  2  2  0
  2  3  1  0
  3  4  1  0
  4  5  2  0
  5  6  1  0
  6  7  1  0
  7  8  1  0
  4  9  1  0
  9 10  1  0
 10 11  2  0
 11 12  1  0
 12 13  2  0
 13 14  1  0
 14 15  1  0
 14 16  2  0
 16 17  1  0
 16 18  1  0
 18 19  2  0
 10 20  1  0
 20 21  1  0
 21 22  2  3
 22 23  1  0
 23 24  1  0
 24 25  1  0
 25 26  2  0
 25 27  1  0
 27 28  1  0
 28 29  1  0
 21  1  1  0
 28 23  2  0
 20  3  1  0
  8  6  1  0
 19 12  1  0
M  CHG  4   9  -1  24  -1  27  -1  29  -1
M  END
>  <UniqueID>  (906) 
75

>  <SMILES>  (906) 
Cc1ccc(/N=c2/[n-]/c(=N\C3CC3)n3n2C(=Cc2[n-]c(=O)[n-]c2[O-])C=N3)nc1C

>  <Energy>  (906) 
461.96906577054807

>  <Genealogy>  (906) 
Cc1ccc(N=c2[n-]c(=NC3CC3)n3n2C(=Cc2[n-]c(=O)[n-]c2[O-])C=N3)nc1C (protonated)
Cc1ccc(/N=c2/[n-]/c(=N\C3CC3)n3n2C(=Cc2[n-]c(=O)[n-]c2[O-])C=N3)nc1C (cis-trans isomerization)
Cc1ccc(/N=c2/[n-]/c(=N\C3CC3)n3n2C(=Cc2[n-]c(=O)[n-]c2[O-])C=N3)nc1C (3D coordinates assigned)
Cc1ccc(/N=c2/[n-]/c(=N\C3CC3)n3n2C(=Cc2[n-]c(=O)[n-]c2[O-])C=N3)nc1C (nonaromatic ring conformer: 461.96906577054807 kcal/mol)

>  <smiles>  (906) 
Cc1ccc(N=c2[nH]c(=NC3CC3)n3n2C(=Cc2[nH]c(=O)[nH]c2O)C=N3)nc1C

>  <score_type>  (906) 
oracle

>  <origin>  (906) 
adg

>  <m_score__min__energy>  (906) 
-17.039999999999999

>  <m_primary>  (906) 
energy

$$$$
91:0
     RDKit          3D

 24 25  0  0  0  0  0  0  0  0999 V2000
   56.8420   34.5750   44.8640 C   0  0  0  0  0  0  0  0  0  0  0  0
   56.6520   33.1200   45.2710 C   0  0  0  0  0  0  0  0  0  0  0  0
   57.9170   32.5540   45.7380 N   0  0  0  0  0  0  0  0  0  0  0  0
   58.9340   33.2260   46.3030 C   0  0  0  0  0  0  0  0  0  0  0  0
   59.9570   32.3260   46.5350 C   0  0  0  0  0  0  0  0  0  0  0  0
   61.2590   32.6390   47.1450 C   0  0  0  0  0  0  0  0  0  0  0  0
   61.4790   33.8000   47.5830 O   0  0  0  0  0  0  0  0  0  0  0  0
   62.2740   31.6300   47.2420 N   0  0  0  0  0  0  0  0  0  0  0  0
   63.5740   31.9080   47.8410 C   0  0  0  0  0  0  0  0  0  0  0  0
   59.5960   31.0970   46.1100 N   0  0  0  0  0  0  0  0  0  0  0  0
   58.3510   31.2810   45.6180 C   0  0  0  0  0  0  0  0  0  0  0  0
   57.6180   30.3290   45.1150 N   0  0  0  0  0  0  0  0  0  0  0  0
   57.5510   28.9660   45.5710 C   0  0  0  0  0  0  0  0  0  0  0  0
   58.7030   28.2660   45.9710 C   0  0  0  0  0  0  0  0  0  0  0  0
   58.6130   26.9300   46.3590 C   0  0  0  0  0  0  0  0  0  0  0  0
   57.3800   26.2790   46.3470 C   0  0  0  0  0  0  0  0  0  0  0  0
   56.2180   26.9510   45.9470 C   0  0  0  0  0  0  0  0  0  0  0  0
   54.9880   26.2090   45.9560 N   0  0  0  0  0  0  0  0  0  0  0  0
   54.7670   24.5150   45.6440 S   0  0  0  0  0  0  0  0  0  0  0  0
   55.8460   23.9800   44.3330 C   0  0  0  0  0  0  0  0  0  0  0  0
   53.3330   24.2320   45.2980 O   0  0  0  0  0  0  0  0  0  0  0  0
   55.1110   23.7530   46.8920 O   0  0  0  0  0  0  0  0  0  0  0  0
   56.3160   28.2970   45.5230 C   0  0  0  0  0  0  0  0  0  0  0  0
   55.2100   28.9800   45.0340 O   0  0  0  0  0  0  0  0  0  0  0  0
  1  2  1  0
  2  3  1  0
  3  4  1  0
  4  5  2  0
  5  6  1  0
  6  7  2  0
  6  8  1  0
  8  9  1  0
  5 10  1  0
 10 11  1  0
 11 12  2  3
 12 13  1  0
 13 14  2  0
 14 15  1  0
 15 16  2  0
 16 17  1  0
 17 18  1  0
 18 19  1  0
 19 20  1  0
 19 21  2  0
 19 22  2  0
 17 23  2  0
 23 24  1  0
 11  3  1  0
 23 13  1  0
M  CHG  3  10  -1  18  -1  24  -1
M  END
>  <UniqueID>  (907) 
86

>  <SMILES>  (907) 
CCn1cc(C(=O)NC)[n-]c1=Nc1cccc([N-]S(C)(=O)=O)c1[O-]

>  <Energy>  (907) 
71.82217530743235

>  <Genealogy>  (907) 
CCn1cc(C(=O)NC)[n-]c1=Nc1cccc([N-]S(C)(=O)=O)c1[O-] (protonated)
CCn1cc(C(=O)NC)[n-]c1=Nc1cccc([N-]S(C)(=O)=O)c1[O-] (3D coordinates assigned)
CCn1cc(C(=O)NC)[n-]c1=Nc1cccc([N-]S(C)(=O)=O)c1[O-] (optimized conformer: 71.82217530743235 kcal/mol)

>  <smiles>  (907) 
CCn1cc(C(=O)NC)[nH]c1=Nc1cccc(NS(C)(=O)=O)c1O

>  <score_type>  (907) 
oracle

>  <origin>  (907) 
adg

>  <m_score__min__energy>  (907) 
-14.75

>  <m_primary>  (907) 
energy

$$$$
3:0
     RDKit          3D

 31 34  0  0  0  0  0  0  0  0999 V2000
   59.1130   21.8780   44.6180 C   0  0  0  0  0  0  0  0  0  0  0  0
   58.2690   22.2560   45.6140 N   0  0  0  0  0  0  0  0  0  0  0  0
   56.9140   22.2480   45.4550 C   0  0  0  0  0  0  0  0  0  0  0  0
   56.1180   22.6230   46.4150 N   0  0  0  0  0  0  0  0  0  0  0  0
   55.4530   23.8930   46.5310 C   0  0  0  0  0  0  0  0  0  0  0  0
   54.2140   23.9050   46.7540 O   0  0  0  0  0  0  0  0  0  0  0  0
   56.1840   25.1840   46.4560 C   0  0  0  0  0  0  0  0  0  0  0  0
   55.5240   26.3430   46.0120 C   0  0  0  0  0  0  0  0  0  0  0  0
   54.1890   26.2970   45.6250 O   0  0  0  0  0  0  0  0  0  0  0  0
   56.1910   27.5250   45.9380 N   0  0  0  0  0  0  0  0  0  0  0  0
   57.4980   27.6400   46.2870 C   0  0  0  0  0  0  0  0  0  0  0  0
   58.1360   28.8820   46.1860 C   0  0  0  0  0  0  0  0  0  0  0  0
   59.4900   29.0210   46.5420 C   0  0  0  0  0  0  0  0  0  0  0  0
   60.1780   30.3300   46.4430 C   0  0  0  0  0  0  0  0  0  0  0  0
   59.7490   31.1920   45.6270 O   0  0  0  0  0  0  0  0  0  0  0  0
   61.3130   30.6400   47.2710 N   0  0  0  0  0  0  0  0  0  0  0  0
   62.0550   31.8910   47.1410 C   0  0  0  0  0  0  0  0  0  0  0  0
   61.1100   33.0620   47.1570 C   0  0  0  0  0  0  0  0  0  0  0  0
   60.4100   33.3820   48.3320 C   0  0  0  0  0  0  0  0  0  0  0  0
   59.5160   34.4580   48.3480 C   0  0  0  0  0  0  0  0  0  0  0  0
   59.3130   35.2160   47.1920 C   0  0  0  0  0  0  0  0  0  0  0  0
   60.0020   34.9010   46.0180 C   0  0  0  0  0  0  0  0  0  0  0  0
   60.8980   33.8270   45.9980 C   0  0  0  0  0  0  0  0  0  0  0  0
   60.1870   27.8980   47.0210 C   0  0  0  0  0  0  0  0  0  0  0  0
   59.5540   26.6560   47.1240 C   0  0  0  0  0  0  0  0  0  0  0  0
   58.2060   26.5130   46.7550 C   0  0  0  0  0  0  0  0  0  0  0  0
   57.5360   25.2790   46.8480 C   0  0  0  0  0  0  0  0  0  0  0  0
   58.1370   24.2620   47.2920 O   0  0  0  0  0  0  0  0  0  0  0  0
   56.3690   21.8560   44.2260 C   0  0  0  0  0  0  0  0  0  0  0  0
   57.2190   21.4640   43.1900 C   0  0  0  0  0  0  0  0  0  0  0  0
   58.6020   21.4720   43.3850 C   0  0  0  0  0  0  0  0  0  0  0  0
  1  2  1  0
  2  3  1  0
  3  4  2  0
  4  5  1  0
  5  6  2  0
  5  7  1  0
  7  8  2  0
  8  9  1  0
  8 10  1  0
 10 11  1  0
 11 12  2  0
 12 13  1  0
 13 14  1  0
 14 15  2  0
 14 16  1  0
 16 17  1  0
 17 18  1  0
 18 19  2  0
 19 20  1  0
 20 21  2  0
 21 22  1  0
 22 23  2  0
 13 24  2  0
 24 25  1  0
 25 26  2  0
 26 27  1  0
 27 28  2  0
  3 29  1  0
 29 30  2  0
 30 31  1  0
 31  1  2  0
 27  7  1  0
 26 11  1  0
 23 18  1  0
M  CHG  3   2  -1   9  -1  10  -1
M  END
>  <UniqueID>  (908) 
4

>  <SMILES>  (908) 
O=C(NCc1ccccc1)c1ccc2c(=O)c(C(=O)/N=c3/cccc[n-]3)c([O-])[n-]c2c1

>  <Energy>  (908) 
67.08205485049257

>  <Genealogy>  (908) 
O=C(NCc1ccccc1)c1ccc2c(=O)c(C(=O)N=c3cccc[n-]3)c([O-])[n-]c2c1 (protonated)
O=C(NCc1ccccc1)c1ccc2c(=O)c(C(=O)/N=c3/cccc[n-]3)c([O-])[n-]c2c1 (cis-trans isomerization)
O=C(NCc1ccccc1)c1ccc2c(=O)c(C(=O)/N=c3/cccc[n-]3)c([O-])[n-]c2c1 (3D coordinates assigned)
O=C(NCc1ccccc1)c1ccc2c(=O)c(C(=O)/N=c3/cccc[n-]3)c([O-])[n-]c2c1 (optimized conformer: 67.08205485049257 kcal/mol)

>  <smiles>  (908) 
O=C(NCc1ccccc1)c1ccc2c(=O)c(C(=O)N=c3cccc[nH]3)c(O)[nH]c2c1

>  <score_type>  (908) 
oracle

>  <origin>  (908) 
adg

>  <m_score__min__energy>  (908) 
-15.199999999999999

>  <m_primary>  (908) 
energy

$$$$
8:0
     RDKit          3D

 33 36  0  0  0  0  0  0  0  0999 V2000
   61.3260   29.7650   52.6130 O   0  0  0  0  0  0  0  0  0  0  0  0
   61.3790   29.9430   51.3660 C   0  0  0  0  0  0  0  0  0  0  0  0
   60.4900   29.2180   50.5070 N   0  0  0  0  0  0  0  0  0  0  0  0
   59.3520   29.8240   49.8260 C   0  0  0  0  0  0  0  0  0  0  0  0
   58.5110   30.5900   50.8020 C   0  0  0  0  0  0  0  0  0  0  0  0
   59.0650   31.6280   51.5610 C   0  0  0  0  0  0  0  0  0  0  0  0
   58.2650   32.3010   52.4860 C   0  0  0  0  0  0  0  0  0  0  0  0
   56.9310   31.9290   52.6540 C   0  0  0  0  0  0  0  0  0  0  0  0
   56.4050   30.8760   51.8860 C   0  0  0  0  0  0  0  0  0  0  0  0
   54.9980   30.4470   52.0410 C   0  0  0  0  0  0  0  0  0  0  0  0
   54.7350   29.2350   52.2750 O   0  0  0  0  0  0  0  0  0  0  0  0
   53.9280   31.3990   51.9290 N   0  0  0  0  0  0  0  0  0  0  0  0
   52.5270   31.0250   52.1140 C   0  0  0  0  0  0  0  0  0  0  0  0
   51.7810   31.1690   50.8270 C   0  0  0  0  0  0  0  0  0  0  0  0
   51.7550   30.2180   49.8720 N   0  0  0  0  0  0  0  0  0  0  0  0
   51.0360   30.7040   48.8740 N   0  0  0  0  0  0  0  0  0  0  0  0
   50.6560   31.9350   49.2550 C   0  0  0  0  0  0  0  0  0  0  0  0
   49.9530   32.6920   48.5370 O   0  0  0  0  0  0  0  0  0  0  0  0
   51.1020   32.2800   50.4760 N   0  0  0  0  0  0  0  0  0  0  0  0
   57.2090   30.2400   50.9900 N   0  0  0  0  0  0  0  0  0  0  0  0
   62.3560   30.8970   50.7930 C   0  0  0  0  0  0  0  0  0  0  0  0
   63.7380   30.6950   50.9600 C   0  0  0  0  0  0  0  0  0  0  0  0
   64.6560   31.6030   50.4260 C   0  0  0  0  0  0  0  0  0  0  0  0
   64.2080   32.7160   49.7110 C   0  0  0  0  0  0  0  0  0  0  0  0
   62.8400   32.9250   49.5120 C   0  0  0  0  0  0  0  0  0  0  0  0
   62.4300   34.0580   48.7960 O   0  0  0  0  0  0  0  0  0  0  0  0
   61.3470   34.1090   47.9050 C   0  0  0  0  0  0  0  0  0  0  0  0
   60.0950   34.5070   48.3880 C   0  0  0  0  0  0  0  0  0  0  0  0
   58.9940   34.5820   47.5270 C   0  0  0  0  0  0  0  0  0  0  0  0
   59.1440   34.2710   46.1740 C   0  0  0  0  0  0  0  0  0  0  0  0
   60.3940   33.8920   45.6770 C   0  0  0  0  0  0  0  0  0  0  0  0
   61.4950   33.8180   46.5360 C   0  0  0  0  0  0  0  0  0  0  0  0
   61.9150   32.0240   50.0700 C   0  0  0  0  0  0  0  0  0  0  0  0
  1  2  2  0
  2  3  1  0
  3  4  1  0
  4  5  1  0
  5  6  2  0
  6  7  1  0
  7  8  2  0
  8  9  1  0
  9 10  1  0
 10 11  2  0
 10 12  1  0
 12 13  1  0
 13 14  1  0
 14 15  2  0
 15 16  1  0
 16 17  1  0
 17 18  2  0
 17 19  1  0
  9 20  2  0
  2 21  1  0
 21 22  2  0
 22 23  1  0
 23 24  2  0
 24 25  1  0
 25 26  1  0
 26 27  1  0
 27 28  2  0
 28 29  1  0
 29 30  2  0
 30 31  1  0
 31 32  2  0
 25 33  2  0
 20  5  1  0
 33 21  1  0
 19 14  1  0
 32 27  1  0
M  CHG  3   3  -1  16  -1  19  -1
M  END
>  <UniqueID>  (909) 
9

>  <SMILES>  (909) 
O=C([N-]Cc1cccc(C(=O)NCc2n[n-]c(=O)[n-]2)n1)c1cccc(Oc2ccccc2)c1

>  <Energy>  (909) 
89.087801700824

>  <Genealogy>  (909) 
O=C([N-]Cc1cccc(C(=O)NCc2n[n-]c(=O)[n-]2)n1)c1cccc(Oc2ccccc2)c1 (protonated)
O=C([N-]Cc1cccc(C(=O)NCc2n[n-]c(=O)[n-]2)n1)c1cccc(Oc2ccccc2)c1 (3D coordinates assigned)
O=C([N-]Cc1cccc(C(=O)NCc2n[n-]c(=O)[n-]2)n1)c1cccc(Oc2ccccc2)c1 (optimized conformer: 89.087801700824 kcal/mol)

>  <smiles>  (909) 
O=C(NCc1cccc(C(=O)NCc2n[nH]c(=O)[nH]2)n1)c1cccc(Oc2ccccc2)c1

>  <score_type>  (909) 
oracle

>  <origin>  (909) 
adg

>  <m_score__min__energy>  (909) 
-16.07

>  <m_primary>  (909) 
energy

$$$$
24:0
     RDKit          3D

 26 28  0  0  0  0  0  0  0  0999 V2000
   56.7140   24.3890   46.5950 O   0  0  0  0  0  0  0  0  0  0  0  0
   57.0750   25.6680   46.1720 C   0  0  0  0  0  0  0  0  0  0  0  0
   58.4300   25.9880   46.0570 C   0  0  0  0  0  0  0  0  0  0  0  0
   58.8210   27.2600   45.6330 C   0  0  0  0  0  0  0  0  0  0  0  0
   57.8570   28.2260   45.2980 C   0  0  0  0  0  0  0  0  0  0  0  0
   58.2610   29.5900   44.8930 C   0  0  0  0  0  0  0  0  0  0  0  0
   59.1510   30.3560   45.5420 C   0  0  0  0  0  0  0  0  0  0  0  0
   59.4730   30.2520   46.9830 C   0  0  0  0  0  0  0  0  0  0  0  0
   60.5180   29.6560   47.3570 O   0  0  0  0  0  0  0  0  0  0  0  0
   58.6810   30.9310   47.9640 N   0  0  0  0  0  0  0  0  0  0  0  0
   59.1490   31.9180   48.8950 C   0  0  0  0  0  0  0  0  0  0  0  0
   59.6110   31.5480   50.1710 C   0  0  0  0  0  0  0  0  0  0  0  0
   60.1230   32.5110   51.0430 C   0  0  0  0  0  0  0  0  0  0  0  0
   60.1960   33.8470   50.6460 C   0  0  0  0  0  0  0  0  0  0  0  0
   59.7600   34.2230   49.3730 C   0  0  0  0  0  0  0  0  0  0  0  0
   59.2370   33.2640   48.4900 C   0  0  0  0  0  0  0  0  0  0  0  0
   58.7830   33.6610   47.1860 N   0  0  0  0  0  0  0  0  0  0  0  0
   57.3900   33.4230   46.8000 C   0  0  0  0  0  0  0  0  0  0  0  0
   57.2990   33.2850   45.2770 C   0  0  0  0  0  0  0  0  0  0  0  0
   57.9030   34.3930   44.6370 O   0  0  0  0  0  0  0  0  0  0  0  0
   59.2920   34.4100   44.9140 C   0  0  0  0  0  0  0  0  0  0  0  0
   59.5470   34.6370   46.4070 C   0  0  0  0  0  0  0  0  0  0  0  0
   56.4930   27.9110   45.4360 C   0  0  0  0  0  0  0  0  0  0  0  0
   55.5190   28.8610   45.1420 O   0  0  0  0  0  0  0  0  0  0  0  0
   56.1030   26.6340   45.8640 C   0  0  0  0  0  0  0  0  0  0  0  0
   54.7510   26.3300   45.9830 O   0  0  0  0  0  0  0  0  0  0  0  0
  1  2  1  0
  2  3  2  0
  3  4  1  0
  4  5  2  0
  5  6  1  0
  6  7  2  0
  7  8  1  0
  8  9  2  0
  8 10  1  0
 10 11  1  0
 11 12  2  0
 12 13  1  0
 13 14  2  0
 14 15  1  0
 15 16  2  0
 16 17  1  0
 17 18  1  0
 18 19  1  0
 19 20  1  0
 20 21  1  0
 21 22  1  0
  5 23  1  0
 23 24  1  0
 23 25  2  0
 25 26  1  0
 25  2  1  0
 16 11  1  0
 22 17  1  0
M  CHG  3  10  -1  24  -1  26  -1
M  END
>  <UniqueID>  (910) 
25

>  <SMILES>  (910) 
O=C(/C=C\c1ccc(O)c([O-])c1[O-])[N-]c1ccccc1N1CCOCC1

>  <Energy>  (910) 
63.21282464595274

>  <Genealogy>  (910) 
O=C(C=Cc1ccc(O)c([O-])c1[O-])[N-]c1ccccc1N1CCOCC1 (protonated)
O=C(/C=C\c1ccc(O)c([O-])c1[O-])[N-]c1ccccc1N1CCOCC1 (cis-trans isomerization)
O=C(/C=C\c1ccc(O)c([O-])c1[O-])[N-]c1ccccc1N1CCOCC1 (3D coordinates assigned)
O=C(/C=C\c1ccc(O)c([O-])c1[O-])[N-]c1ccccc1N1CCOCC1 (nonaromatic ring conformer: 63.21282464595274 kcal/mol)

>  <smiles>  (910) 
O=C(C=Cc1ccc(O)c(O)c1O)Nc1ccccc1N1CCOCC1

>  <score_type>  (910) 
oracle

>  <origin>  (910) 
adg

>  <m_score__min__energy>  (910) 
-15.960000000000001

>  <m_primary>  (910) 
energy

$$$$
38:0
     RDKit          3D

 30 32  0  0  0  0  0  0  0  0999 V2000
   55.6800   30.8030   52.4490 C   0  0  0  0  0  0  0  0  0  0  0  0
   57.0780   30.9840   52.6510 O   0  0  0  0  0  0  0  0  0  0  0  0
   57.9060   31.7590   51.8240 C   0  0  0  0  0  0  0  0  0  0  0  0
   58.2870   33.0730   52.1610 C   0  0  0  0  0  0  0  0  0  0  0  0
   59.1100   33.8100   51.3080 C   0  0  0  0  0  0  0  0  0  0  0  0
   59.5630   33.2530   50.1020 C   0  0  0  0  0  0  0  0  0  0  0  0
   60.4370   34.0520   49.1720 C   0  0  0  0  0  0  0  0  0  0  0  0
   59.6360   34.8190   48.2140 N   0  0  0  0  0  0  0  0  0  0  0  0
   60.0550   34.4290   46.5700 S   0  0  0  0  0  0  0  0  0  0  0  0
   59.9320   35.6670   45.7280 O   0  0  0  0  0  0  0  0  0  0  0  0
   61.4820   33.9590   46.5140 O   0  0  0  0  0  0  0  0  0  0  0  0
   58.9800   33.1950   45.9140 C   0  0  0  0  0  0  0  0  0  0  0  0
   58.8670   31.9590   46.5630 C   0  0  0  0  0  0  0  0  0  0  0  0
   58.0300   30.9670   46.0460 C   0  0  0  0  0  0  0  0  0  0  0  0
   57.2880   31.2000   44.8750 C   0  0  0  0  0  0  0  0  0  0  0  0
   56.4110   30.1370   44.3260 C   0  0  0  0  0  0  0  0  0  0  0  0
   55.9630   30.2540   43.1550 O   0  0  0  0  0  0  0  0  0  0  0  0
   56.0030   29.0030   45.1080 N   0  0  0  0  0  0  0  0  0  0  0  0
   56.7590   28.0010   45.4560 C   0  0  0  0  0  0  0  0  0  0  0  0
   58.1180   28.0780   45.3570 N   0  0  0  0  0  0  0  0  0  0  0  0
   58.9260   27.0410   45.7020 C   0  0  0  0  0  0  0  0  0  0  0  0
   58.3700   25.8470   46.1660 C   0  0  0  0  0  0  0  0  0  0  0  0
   56.9830   25.7340   46.2660 C   0  0  0  0  0  0  0  0  0  0  0  0
   56.1680   26.8110   45.9080 C   0  0  0  0  0  0  0  0  0  0  0  0
   54.7850   26.6960   46.0060 O   0  0  0  0  0  0  0  0  0  0  0  0
   57.4210   32.4350   44.2180 C   0  0  0  0  0  0  0  0  0  0  0  0
   58.2570   33.4270   44.7380 C   0  0  0  0  0  0  0  0  0  0  0  0
   59.1900   31.9430   49.7680 C   0  0  0  0  0  0  0  0  0  0  0  0
   58.3630   31.2000   50.6220 C   0  0  0  0  0  0  0  0  0  0  0  0
   57.9920   29.9000   50.2820 O   0  0  0  0  0  0  0  0  0  0  0  0
  1  2  1  0
  2  3  1  0
  3  4  2  0
  4  5  1  0
  5  6  2  0
  6  7  1  0
  7  8  1  0
  8  9  1  0
  9 10  2  0
  9 11  2  0
  9 12  1  0
 12 13  2  0
 13 14  1  0
 14 15  2  0
 15 16  1  0
 16 17  2  0
 16 18  1  0
 18 19  2  3
 19 20  1  0
 20 21  1  0
 21 22  2  0
 22 23  1  0
 23 24  2  0
 24 25  1  0
 15 26  1  0
 26 27  2  0
  6 28  1  0
 28 29  2  0
 29 30  1  0
 29  3  1  0
 27 12  1  0
 24 19  1  0
M  CHG  3   8  -1  20  -1  25  -1
M  END
>  <UniqueID>  (911) 
38

>  <SMILES>  (911) 
COc1ccc(C[N-]S(=O)(=O)c2ccc(C(=O)N=c3[n-]cccc3[O-])cc2)cc1O

>  <Energy>  (911) 
55.283870257844136

>  <Genealogy>  (911) 
COc1ccc(C[N-]S(=O)(=O)c2ccc(C(=O)N=c3[n-]cccc3[O-])cc2)cc1O (protonated)
COc1ccc(C[N-]S(=O)(=O)c2ccc(C(=O)N=c3[n-]cccc3[O-])cc2)cc1O (3D coordinates assigned)
COc1ccc(C[N-]S(=O)(=O)c2ccc(C(=O)N=c3[n-]cccc3[O-])cc2)cc1O (optimized conformer: 55.283870257844136 kcal/mol)

>  <smiles>  (911) 
COc1ccc(CNS(=O)(=O)c2ccc(C(=O)N=c3[nH]cccc3O)cc2)cc1O

>  <score_type>  (911) 
oracle

>  <origin>  (911) 
adg

>  <m_score__min__energy>  (911) 
-14.75

>  <m_primary>  (911) 
energy

$$$$
43:0
     RDKit          3D

 28 30  0  0  0  0  0  0  0  0999 V2000
   58.6140   28.3810   47.3450 C   0  0  0  0  0  0  0  0  0  0  0  0
   58.1270   28.8040   46.1660 C   0  0  0  0  0  0  0  0  0  0  0  0
   57.7970   27.9920   45.0710 C   0  0  0  0  0  0  0  0  0  0  0  0
   57.9060   26.6470   44.9990 C   0  0  0  0  0  0  0  0  0  0  0  0
   57.2560   25.6720   45.9030 C   0  0  0  0  0  0  0  0  0  0  0  0
   57.8380   24.5950   46.4610 N   0  0  0  0  0  0  0  0  0  0  0  0
   56.8550   24.0540   47.2120 C   0  0  0  0  0  0  0  0  0  0  0  0
   57.0200   23.0080   47.8930 O   0  0  0  0  0  0  0  0  0  0  0  0
   55.6820   24.7200   47.1710 N   0  0  0  0  0  0  0  0  0  0  0  0
   55.9540   25.7400   46.3420 C   0  0  0  0  0  0  0  0  0  0  0  0
   55.0290   26.7160   45.9940 O   0  0  0  0  0  0  0  0  0  0  0  0
   57.3560   28.8530   44.0750 C   0  0  0  0  0  0  0  0  0  0  0  0
   57.4390   30.1310   44.5850 C   0  0  0  0  0  0  0  0  0  0  0  0
   57.0480   31.3680   43.8310 C   0  0  0  0  0  0  0  0  0  0  0  0
   57.8960   30.1090   45.8590 N   0  0  0  0  0  0  0  0  0  0  0  0
   58.1720   31.2960   46.6860 C   0  0  0  0  0  0  0  0  0  0  0  0
   59.3190   32.1170   46.0940 C   0  0  0  0  0  0  0  0  0  0  0  0
   58.8580   33.4760   45.7810 N   0  0  0  0  0  0  0  0  0  0  0  0
   59.7360   34.6690   46.6920 S   0  0  0  0  0  0  0  0  0  0  0  0
   60.0040   35.8820   45.8440 O   0  0  0  0  0  0  0  0  0  0  0  0
   58.9090   35.0930   47.8730 O   0  0  0  0  0  0  0  0  0  0  0  0
   61.2500   33.9670   47.2730 C   0  0  0  0  0  0  0  0  0  0  0  0
   62.3310   33.8450   46.3880 C   0  0  0  0  0  0  0  0  0  0  0  0
   63.5450   33.3080   46.8270 C   0  0  0  0  0  0  0  0  0  0  0  0
   63.6930   32.9060   48.1550 C   0  0  0  0  0  0  0  0  0  0  0  0
   62.6230   33.0300   49.0460 C   0  0  0  0  0  0  0  0  0  0  0  0
   61.4020   33.5550   48.6090 C   0  0  0  0  0  0  0  0  0  0  0  0
   60.3800   33.6630   49.4950 F   0  0  0  0  0  0  0  0  0  0  0  0
  1  2  2  0
  2  3  1  0
  3  4  2  0
  4  5  1  0
  5  6  1  0
  6  7  1  0
  7  8  2  0
  7  9  1  0
  9 10  1  0
 10 11  1  0
  3 12  1  0
 12 13  2  0
 13 14  1  0
 13 15  1  0
 15 16  1  0
 16 17  1  0
 17 18  1  0
 18 19  1  0
 19 20  2  0
 19 21  2  0
 19 22  1  0
 22 23  2  0
 23 24  1  0
 24 25  2  0
 25 26  1  0
 26 27  2  0
 27 28  1  0
 15  2  1  0
 27 22  1  0
 10  5  2  0
M  CHG  3   6  -1   9  -1  11  -1
M  END
>  <UniqueID>  (912) 
42

>  <SMILES>  (912) 
C=c1/c(=C/c2[n-]c(=O)[n-]c2[O-])cc(C)n1CCNS(=O)(=O)c1ccccc1F

>  <Energy>  (912) 
99.72159444893926

>  <Genealogy>  (912) 
C=c1c(=Cc2[n-]c(=O)[n-]c2[O-])cc(C)n1CCNS(=O)(=O)c1ccccc1F (protonated)
C=c1/c(=C/c2[n-]c(=O)[n-]c2[O-])cc(C)n1CCNS(=O)(=O)c1ccccc1F (cis-trans isomerization)
C=c1/c(=C/c2[n-]c(=O)[n-]c2[O-])cc(C)n1CCNS(=O)(=O)c1ccccc1F (3D coordinates assigned)
C=c1/c(=C/c2[n-]c(=O)[n-]c2[O-])cc(C)n1CCNS(=O)(=O)c1ccccc1F (optimized conformer: 99.72159444893926 kcal/mol)

>  <smiles>  (912) 
C=c1c(=Cc2[nH]c(=O)[nH]c2O)cc(C)n1CCNS(=O)(=O)c1ccccc1F

>  <score_type>  (912) 
oracle

>  <origin>  (912) 
adg

>  <m_score__min__energy>  (912) 
-16.289999999999999

>  <m_primary>  (912) 
energy

$$$$
45:0
     RDKit          3D

 32 35  0  0  0  0  0  0  0  0999 V2000
   62.4550   30.5390   53.0090 C   0  0  0  0  0  0  0  0  0  0  0  0
   63.1060   29.9660   51.8170 N   0  0  0  0  0  0  0  0  0  0  0  0
   62.2500   30.0670   50.6180 C   0  0  0  0  0  0  0  0  0  0  0  0
   62.1140   31.5180   50.1060 C   0  0  0  0  0  0  0  0  0  0  0  0
   63.1970   32.3910   50.5990 N   0  0  0  0  0  0  0  0  0  0  0  0
   63.2940   33.8350   49.6230 S   0  0  0  0  0  0  0  0  0  0  0  0
   64.5370   33.8060   48.7760 O   0  0  0  0  0  0  0  0  0  0  0  0
   63.3490   35.0450   50.5120 O   0  0  0  0  0  0  0  0  0  0  0  0
   61.8690   33.9510   48.5930 C   0  0  0  0  0  0  0  0  0  0  0  0
   61.9770   33.7810   47.2060 C   0  0  0  0  0  0  0  0  0  0  0  0
   60.8370   33.8410   46.3990 C   0  0  0  0  0  0  0  0  0  0  0  0
   59.5760   34.0710   46.9710 C   0  0  0  0  0  0  0  0  0  0  0  0
   58.3390   34.1030   46.1150 C   0  0  0  0  0  0  0  0  0  0  0  0
   57.7230   32.7790   46.0680 N   0  0  0  0  0  0  0  0  0  0  0  0
   57.4890   32.0820   44.8350 C   0  0  0  0  0  0  0  0  0  0  0  0
   57.7330   32.6450   43.7340 O   0  0  0  0  0  0  0  0  0  0  0  0
   56.9690   30.7060   44.8470 C   0  0  0  0  0  0  0  0  0  0  0  0
   55.7480   30.2940   44.3670 C   0  0  0  0  0  0  0  0  0  0  0  0
   55.6350   28.9670   44.5460 N   0  0  0  0  0  0  0  0  0  0  0  0
   56.7990   28.6080   45.1350 C   0  0  0  0  0  0  0  0  0  0  0  0
   57.1140   27.2090   45.5210 C   0  0  0  0  0  0  0  0  0  0  0  0
   58.4490   26.7590   45.4650 C   0  0  0  0  0  0  0  0  0  0  0  0
   58.7730   25.4470   45.8220 C   0  0  0  0  0  0  0  0  0  0  0  0
   57.7730   24.5670   46.2380 C   0  0  0  0  0  0  0  0  0  0  0  0
   56.4470   24.9960   46.2990 C   0  0  0  0  0  0  0  0  0  0  0  0
   56.1100   26.3080   45.9440 C   0  0  0  0  0  0  0  0  0  0  0  0
   54.7760   26.6960   46.0170 O   0  0  0  0  0  0  0  0  0  0  0  0
   57.6390   29.6480   45.3340 N   0  0  0  0  0  0  0  0  0  0  0  0
   59.4700   34.2340   48.3610 C   0  0  0  0  0  0  0  0  0  0  0  0
   60.6110   34.1710   49.1680 C   0  0  0  0  0  0  0  0  0  0  0  0
   64.4840   31.6870   50.5810 C   0  0  0  0  0  0  0  0  0  0  0  0
   64.4620   30.5230   51.5910 C   0  0  0  0  0  0  0  0  0  0  0  0
  1  2  1  0
  2  3  1  0
  3  4  1  0
  4  5  1  0
  5  6  1  0
  6  7  2  0
  6  8  2  0
  6  9  1  0
  9 10  2  0
 10 11  1  0
 11 12  2  0
 12 13  1  0
 13 14  1  0
 14 15  1  0
 15 16  2  0
 15 17  1  0
 17 18  2  0
 18 19  1  0
 19 20  1  0
 20 21  1  0
 21 22  2  0
 22 23  1  0
 23 24  2  0
 24 25  1  0
 25 26  2  0
 26 27  1  0
 20 28  2  0
 12 29  1  0
 29 30  2  0
  5 31  1  0
 31 32  1  0
 32  2  1  0
 30  9  1  0
 28 17  1  0
 26 21  1  0
M  CHG  2  19  -1  27  -1
M  END
>  <UniqueID>  (913) 
44

>  <SMILES>  (913) 
CN1CCN(S(=O)(=O)c2ccc(CNC(=O)c3c[n-]c(-c4ccccc4[O-])n3)cc2)CC1

>  <Energy>  (913) 
92.95666634486044

>  <Genealogy>  (913) 
CN1CCN(S(=O)(=O)c2ccc(CNC(=O)c3c[n-]c(-c4ccccc4[O-])n3)cc2)CC1 (protonated)
CN1CCN(S(=O)(=O)c2ccc(CNC(=O)c3c[n-]c(-c4ccccc4[O-])n3)cc2)CC1 (3D coordinates assigned)
CN1CCN(S(=O)(=O)c2ccc(CNC(=O)c3c[n-]c(-c4ccccc4[O-])n3)cc2)CC1 (nonaromatic ring conformer: 92.95666634486044 kcal/mol)

>  <smiles>  (913) 
CN1CCN(S(=O)(=O)c2ccc(CNC(=O)c3c[nH]c(-c4ccccc4O)n3)cc2)CC1

>  <score_type>  (913) 
oracle

>  <origin>  (913) 
adg

>  <m_score__min__energy>  (913) 
-14.859999999999999

>  <m_primary>  (913) 
energy

$$$$
56:0
     RDKit          3D

 31 34  0  0  0  0  0  0  0  0999 V2000
   58.6160   29.5210   47.7550 C   0  0  0  0  0  0  0  0  0  0  0  0
   58.0130   29.3450   46.5690 C   0  0  0  0  0  0  0  0  0  0  0  0
   57.6130   28.1310   45.9830 C   0  0  0  0  0  0  0  0  0  0  0  0
   57.6200   26.8680   46.4580 C   0  0  0  0  0  0  0  0  0  0  0  0
   57.0000   25.7000   45.8070 C   0  0  0  0  0  0  0  0  0  0  0  0
   55.6100   25.6400   45.6370 C   0  0  0  0  0  0  0  0  0  0  0  0
   54.8020   26.7010   46.0310 O   0  0  0  0  0  0  0  0  0  0  0  0
   55.0420   24.5410   45.0750 N   0  0  0  0  0  0  0  0  0  0  0  0
   55.7990   23.4830   44.6850 C   0  0  0  0  0  0  0  0  0  0  0  0
   55.2510   22.4780   44.1630 O   0  0  0  0  0  0  0  0  0  0  0  0
   57.1440   23.5070   44.8640 N   0  0  0  0  0  0  0  0  0  0  0  0
   57.7600   24.5810   45.4210 C   0  0  0  0  0  0  0  0  0  0  0  0
   59.0080   24.5620   45.5900 O   0  0  0  0  0  0  0  0  0  0  0  0
   57.1410   28.4460   44.7190 C   0  0  0  0  0  0  0  0  0  0  0  0
   57.2330   29.8160   44.5870 C   0  0  0  0  0  0  0  0  0  0  0  0
   56.8190   30.5860   43.3690 C   0  0  0  0  0  0  0  0  0  0  0  0
   57.7500   30.3630   45.7090 N   0  0  0  0  0  0  0  0  0  0  0  0
   58.0410   31.7590   45.8930 C   0  0  0  0  0  0  0  0  0  0  0  0
   57.3780   32.7260   45.1260 C   0  0  0  0  0  0  0  0  0  0  0  0
   57.6720   34.0810   45.2970 C   0  0  0  0  0  0  0  0  0  0  0  0
   58.6260   34.4790   46.2380 C   0  0  0  0  0  0  0  0  0  0  0  0
   59.2920   33.5220   47.0230 C   0  0  0  0  0  0  0  0  0  0  0  0
   60.3010   33.9430   48.0220 C   0  0  0  0  0  0  0  0  0  0  0  0
   60.0140   34.8500   48.8500 O   0  0  0  0  0  0  0  0  0  0  0  0
   61.6130   33.3530   48.0500 N   0  0  0  0  0  0  0  0  0  0  0  0
   62.7760   34.2070   48.3180 C   0  0  0  0  0  0  0  0  0  0  0  0
   64.0780   33.4230   48.1350 C   0  0  0  0  0  0  0  0  0  0  0  0
   63.9530   32.5490   46.9640 N   0  0  0  0  0  0  0  0  0  0  0  0
   62.9800   31.4640   47.1910 C   0  0  0  0  0  0  0  0  0  0  0  0
   61.7770   31.8930   48.0590 C   0  0  0  0  0  0  0  0  0  0  0  0
   59.0070   32.1600   46.8280 C   0  0  0  0  0  0  0  0  0  0  0  0
  1  2  2  0
  2  3  1  0
  3  4  2  3
  4  5  1  0
  5  6  2  0
  6  7  1  0
  6  8  1  0
  8  9  1  0
  9 10  2  0
  9 11  1  0
 11 12  1  0
 12 13  2  0
  3 14  1  0
 14 15  2  0
 15 16  1  0
 15 17  1  0
 17 18  1  0
 18 19  2  0
 19 20  1  0
 20 21  2  0
 21 22  1  0
 22 23  1  0
 23 24  2  0
 23 25  1  0
 25 26  1  0
 26 27  1  0
 27 28  1  0
 28 29  1  0
 29 30  1  0
 22 31  2  0
 17  2  1  0
 31 18  1  0
 12  5  1  0
 30 25  1  0
M  CHG  3   7  -1   8  -1  11  -1
M  END
>  <UniqueID>  (914) 
54

>  <SMILES>  (914) 
C=c1c(=Cc2c([O-])[n-]c(=O)[n-]c2=O)cc(C)n1-c1cccc(C(=O)N2CCNCC2)c1

>  <Energy>  (914) 
110.54106369536677

>  <Genealogy>  (914) 
C=c1c(=Cc2c([O-])[n-]c(=O)[n-]c2=O)cc(C)n1-c1cccc(C(=O)N2CCNCC2)c1 (protonated)
C=c1c(=Cc2c([O-])[n-]c(=O)[n-]c2=O)cc(C)n1-c1cccc(C(=O)N2CCNCC2)c1 (3D coordinates assigned)
C=c1c(=Cc2c([O-])[n-]c(=O)[n-]c2=O)cc(C)n1-c1cccc(C(=O)N2CCNCC2)c1 (nonaromatic ring conformer: 110.54106369536677 kcal/mol)

>  <smiles>  (914) 
C=c1c(=Cc2c(O)[nH]c(=O)[nH]c2=O)cc(C)n1-c1cccc(C(=O)N2CCNCC2)c1

>  <score_type>  (914) 
oracle

>  <origin>  (914) 
adg

>  <m_score__min__energy>  (914) 
-17.640000000000001

>  <m_primary>  (914) 
energy

$$$$
81:0
     RDKit          3D

 35 38  0  0  0  0  0  0  0  0999 V2000
   55.2180   29.3790   44.9760 O   0  0  0  0  0  0  0  0  0  0  0  0
   56.3880   29.8120   44.7960 C   0  0  0  0  0  0  0  0  0  0  0  0
   57.5470   28.8610   44.9640 C   0  0  0  0  0  0  0  0  0  0  0  0
   57.4360   28.0560   46.2680 C   0  0  0  0  0  0  0  0  0  0  0  0
   57.1970   26.6350   45.9920 N   0  0  0  0  0  0  0  0  0  0  0  0
   55.9970   26.0170   45.9030 C   0  0  0  0  0  0  0  0  0  0  0  0
   54.7710   26.6650   46.0020 O   0  0  0  0  0  0  0  0  0  0  0  0
   56.1680   24.6600   45.7160 C   0  0  0  0  0  0  0  0  0  0  0  0
   57.5240   24.4360   45.6970 C   0  0  0  0  0  0  0  0  0  0  0  0
   58.1300   25.6630   45.8770 C   0  0  0  0  0  0  0  0  0  0  0  0
   59.5020   25.8820   45.9550 O   0  0  0  0  0  0  0  0  0  0  0  0
   58.1460   23.0820   45.5630 C   0  0  0  0  0  0  0  0  0  0  0  0
   57.1030   22.0110   45.3040 C   0  0  0  0  0  0  0  0  0  0  0  0
   55.7680   22.2350   45.3160 C   0  0  0  0  0  0  0  0  0  0  0  0
   55.1370   23.5880   45.5900 C   0  0  0  0  0  0  0  0  0  0  0  0
   56.5620   31.2000   44.4750 N   0  0  0  0  0  0  0  0  0  0  0  0
   57.7980   31.9700   44.6070 C   0  0  0  0  0  0  0  0  0  0  0  0
   57.6540   33.0560   45.6310 C   0  0  0  0  0  0  0  0  0  0  0  0
   56.9000   34.0380   45.3870 O   0  0  0  0  0  0  0  0  0  0  0  0
   58.4320   33.0130   46.8330 N   0  0  0  0  0  0  0  0  0  0  0  0
   58.8510   31.8320   47.5280 C   0  0  0  0  0  0  0  0  0  0  0  0
   59.6540   30.8460   46.9160 C   0  0  0  0  0  0  0  0  0  0  0  0
   60.0660   29.7150   47.6380 C   0  0  0  0  0  0  0  0  0  0  0  0
   59.7060   29.5740   48.9800 C   0  0  0  0  0  0  0  0  0  0  0  0
   58.9350   30.5630   49.6090 C   0  0  0  0  0  0  0  0  0  0  0  0
   58.5320   30.3860   51.3160 S   0  0  0  0  0  0  0  0  0  0  0  0
   57.0590   30.1110   51.4310 O   0  0  0  0  0  0  0  0  0  0  0  0
   59.2910   29.2320   51.9130 O   0  0  0  0  0  0  0  0  0  0  0  0
   58.9250   31.8580   52.1670 N   0  0  0  0  0  0  0  0  0  0  0  0
   59.1030   31.5840   53.6060 C   0  0  0  0  0  0  0  0  0  0  0  0
   59.0560   32.8850   54.4290 C   0  0  0  0  0  0  0  0  0  0  0  0
   59.3040   34.0070   53.6050 O   0  0  0  0  0  0  0  0  0  0  0  0
   58.2430   34.1700   52.6770 C   0  0  0  0  0  0  0  0  0  0  0  0
   57.8640   32.8540   51.9620 C   0  0  0  0  0  0  0  0  0  0  0  0
   58.5120   31.6910   48.8810 C   0  0  0  0  0  0  0  0  0  0  0  0
  1  2  2  0
  2  3  1  0
  3  4  1  0
  4  5  1  0
  5  6  1  0
  6  7  1  0
  6  8  2  0
  8  9  1  0
  9 10  2  0
 10 11  1  0
  9 12  1  0
 12 13  1  0
 13 14  2  0
 14 15  1  0
  2 16  1  0
 16 17  1  0
 17 18  1  0
 18 19  2  0
 18 20  1  0
 20 21  1  0
 21 22  2  0
 22 23  1  0
 23 24  2  0
 24 25  1  0
 25 26  1  0
 26 27  2  0
 26 28  2  0
 26 29  1  0
 29 30  1  0
 30 31  1  0
 31 32  1  0
 32 33  1  0
 33 34  1  0
 25 35  2  0
 10  5  1  0
 35 21  1  0
 15  8  1  0
 34 29  1  0
M  CHG  4   7  -1  11  -1  16  -1  20  -1
M  END
>  <UniqueID>  (915) 
76

>  <SMILES>  (915) 
O=C(CCn1c([O-])c2c(c1[O-])CC=CC2)[N-]CC(=O)[N-]c1cccc(S(=O)(=O)N2CCOCC2)c1

>  <Energy>  (915) 
97.72227302881215

>  <Genealogy>  (915) 
O=C(CCn1c([O-])c2c(c1[O-])CC=CC2)[N-]CC(=O)[N-]c1cccc(S(=O)(=O)N2CCOCC2)c1 (protonated)
O=C(CCn1c([O-])c2c(c1[O-])CC=CC2)[N-]CC(=O)[N-]c1cccc(S(=O)(=O)N2CCOCC2)c1 (3D coordinates assigned)
O=C(CCn1c([O-])c2c(c1[O-])CC=CC2)[N-]CC(=O)[N-]c1cccc(S(=O)(=O)N2CCOCC2)c1 (nonaromatic ring conformer: 97.72227302881215 kcal/mol)

>  <smiles>  (915) 
O=C(CCn1c(O)c2c(c1O)CC=CC2)NCC(=O)Nc1cccc(S(=O)(=O)N2CCOCC2)c1

>  <score_type>  (915) 
oracle

>  <origin>  (915) 
adg

>  <m_score__min__energy>  (915) 
-17.5

>  <m_primary>  (915) 
energy

$$$$
85:0
     RDKit          3D

 30 33  0  0  0  0  0  0  0  0999 V2000
   58.4310   30.2270   44.4870 C   0  0  0  0  0  0  0  0  0  0  0  0
   58.5150   29.7450   45.7370 C   0  0  0  0  0  0  0  0  0  0  0  0
   58.1370   28.4660   46.1840 C   0  0  0  0  0  0  0  0  0  0  0  0
   57.4600   27.4770   45.5680 C   0  0  0  0  0  0  0  0  0  0  0  0
   57.2590   26.1140   46.0970 C   0  0  0  0  0  0  0  0  0  0  0  0
   55.9640   25.6000   46.2520 C   0  0  0  0  0  0  0  0  0  0  0  0
   54.8530   26.3870   45.9580 O   0  0  0  0  0  0  0  0  0  0  0  0
   55.7890   24.3280   46.7020 N   0  0  0  0  0  0  0  0  0  0  0  0
   56.8520   23.5350   46.9900 C   0  0  0  0  0  0  0  0  0  0  0  0
   56.6640   22.3630   47.4080 O   0  0  0  0  0  0  0  0  0  0  0  0
   58.1150   24.0010   46.8230 N   0  0  0  0  0  0  0  0  0  0  0  0
   58.3440   25.2620   46.3760 C   0  0  0  0  0  0  0  0  0  0  0  0
   59.5300   25.6550   46.2110 O   0  0  0  0  0  0  0  0  0  0  0  0
   58.5970   28.3590   47.4850 C   0  0  0  0  0  0  0  0  0  0  0  0
   59.1740   29.5690   47.8090 C   0  0  0  0  0  0  0  0  0  0  0  0
   59.8040   29.8780   49.1330 C   0  0  0  0  0  0  0  0  0  0  0  0
   59.1280   30.4100   46.7510 N   0  0  0  0  0  0  0  0  0  0  0  0
   59.6530   31.7500   46.7190 C   0  0  0  0  0  0  0  0  0  0  0  0
   58.8370   32.8150   46.3120 C   0  0  0  0  0  0  0  0  0  0  0  0
   59.3480   34.1140   46.2670 C   0  0  0  0  0  0  0  0  0  0  0  0
   60.6730   34.3600   46.6390 C   0  0  0  0  0  0  0  0  0  0  0  0
   61.4940   33.3080   47.0730 C   0  0  0  0  0  0  0  0  0  0  0  0
   62.8960   33.5760   47.4530 C   0  0  0  0  0  0  0  0  0  0  0  0
   63.6240   34.2390   46.6650 O   0  0  0  0  0  0  0  0  0  0  0  0
   63.4400   33.1210   48.7050 N   0  0  0  0  0  0  0  0  0  0  0  0
   62.6380   32.8220   49.8820 C   0  0  0  0  0  0  0  0  0  0  0  0
   63.6080   32.8400   51.0540 C   0  0  0  0  0  0  0  0  0  0  0  0
   64.9970   32.6950   50.4410 C   0  0  0  0  0  0  0  0  0  0  0  0
   64.8620   33.1730   49.0030 C   0  0  0  0  0  0  0  0  0  0  0  0
   60.9820   32.0000   47.0950 C   0  0  0  0  0  0  0  0  0  0  0  0
  1  2  2  0
  2  3  1  0
  3  4  2  3
  4  5  1  0
  5  6  2  0
  6  7  1  0
  6  8  1  0
  8  9  1  0
  9 10  2  0
  9 11  1  0
 11 12  1  0
 12 13  2  0
  3 14  1  0
 14 15  2  0
 15 16  1  0
 15 17  1  0
 17 18  1  0
 18 19  2  0
 19 20  1  0
 20 21  2  0
 21 22  1  0
 22 23  1  0
 23 24  2  0
 23 25  1  0
 25 26  1  0
 26 27  1  0
 27 28  1  0
 28 29  1  0
 22 30  2  0
 17  2  1  0
 30 18  1  0
 12  5  1  0
 29 25  1  0
M  CHG  2   8  -1  11  -1
M  END
>  <UniqueID>  (916) 
80

>  <SMILES>  (916) 
C=c1c(=Cc2c(O)[n-]c(=O)[n-]c2=O)cc(C)n1-c1cccc(C(=O)N2CCCC2)c1

>  <Energy>  (916) 
104.66583412109914

>  <Genealogy>  (916) 
C=c1c(=Cc2c(O)[n-]c(=O)[n-]c2=O)cc(C)n1-c1cccc(C(=O)N2CCCC2)c1 (protonated)
C=c1c(=Cc2c(O)[n-]c(=O)[n-]c2=O)cc(C)n1-c1cccc(C(=O)N2CCCC2)c1 (3D coordinates assigned)
C=c1c(=Cc2c(O)[n-]c(=O)[n-]c2=O)cc(C)n1-c1cccc(C(=O)N2CCCC2)c1 (nonaromatic ring conformer: 104.66583412109914 kcal/mol)

>  <smiles>  (916) 
C=c1c(=Cc2c(O)[nH]c(=O)[nH]c2=O)cc(C)n1-c1cccc(C(=O)N2CCCC2)c1

>  <score_type>  (916) 
oracle

>  <origin>  (916) 
adg

>  <m_score__min__energy>  (916) 
-14.41

>  <m_primary>  (916) 
energy

$$$$
87:0
     RDKit          3D

 35 39  0  0  0  0  0  0  0  0999 V2000
   58.9840   30.6700   50.8930 C   0  0  0  0  0  0  0  0  0  0  0  0
   59.0770   29.7340   49.9480 C   0  0  0  0  0  0  0  0  0  0  0  0
   58.3040   29.7450   48.8400 N   0  0  0  0  0  0  0  0  0  0  0  0
   58.7130   28.7030   48.0850 C   0  0  0  0  0  0  0  0  0  0  0  0
   58.1620   28.4320   46.8920 C   0  0  0  0  0  0  0  0  0  0  0  0
   57.5670   29.4420   45.9990 C   0  0  0  0  0  0  0  0  0  0  0  0
   56.3850   29.3490   45.2720 C   0  0  0  0  0  0  0  0  0  0  0  0
   55.5820   28.2170   45.2030 O   0  0  0  0  0  0  0  0  0  0  0  0
   56.0690   30.5130   44.6560 N   0  0  0  0  0  0  0  0  0  0  0  0
   57.0570   31.3530   45.0210 C   0  0  0  0  0  0  0  0  0  0  0  0
   57.1810   32.6930   44.6620 C   0  0  0  0  0  0  0  0  0  0  0  0
   58.2760   33.4160   45.1690 C   0  0  0  0  0  0  0  0  0  0  0  0
   59.2200   32.7910   46.0190 C   0  0  0  0  0  0  0  0  0  0  0  0
   60.5760   33.7070   46.6720 S   0  0  0  0  0  0  0  0  0  0  0  0
   60.1180   35.0900   47.0480 O   0  0  0  0  0  0  0  0  0  0  0  0
   61.6230   33.8330   45.6010 O   0  0  0  0  0  0  0  0  0  0  0  0
   61.2640   32.8850   48.0590 N   0  0  0  0  0  0  0  0  0  0  0  0
   62.2340   33.7330   48.7750 C   0  0  0  0  0  0  0  0  0  0  0  0
   63.5700   33.8740   48.0050 C   0  0  0  0  0  0  0  0  0  0  0  0
   63.7700   32.8700   47.0240 O   0  0  0  0  0  0  0  0  0  0  0  0
   63.3670   31.6140   47.5220 C   0  0  0  0  0  0  0  0  0  0  0  0
   61.8370   31.5710   47.6880 C   0  0  0  0  0  0  0  0  0  0  0  0
   59.0630   31.4360   46.3710 C   0  0  0  0  0  0  0  0  0  0  0  0
   57.9700   30.7480   45.8470 C   0  0  0  0  0  0  0  0  0  0  0  0
   59.7650   28.0480   48.7110 C   0  0  0  0  0  0  0  0  0  0  0  0
   60.5010   26.9770   48.2180 O   0  0  0  0  0  0  0  0  0  0  0  0
   59.9870   28.6820   49.9120 C   0  0  0  0  0  0  0  0  0  0  0  0
   61.0200   28.3220   50.9050 C   0  0  0  0  0  0  0  0  0  0  0  0
   60.9480   27.2000   51.4760 O   0  0  0  0  0  0  0  0  0  0  0  0
   62.0930   29.2230   51.2410 N   0  0  0  0  0  0  0  0  0  0  0  0
   61.8300   30.6600   51.4200 C   0  0  0  0  0  0  0  0  0  0  0  0
   62.9630   31.5230   50.8330 C   0  0  0  0  0  0  0  0  0  0  0  0
   64.3460   30.8440   50.8770 C   0  0  0  0  0  0  0  0  0  0  0  0
   64.4190   29.7540   51.9480 C   0  0  0  0  0  0  0  0  0  0  0  0
   63.3870   28.6580   51.6530 C   0  0  0  0  0  0  0  0  0  0  0  0
  1  2  2  0
  2  3  1  0
  3  4  1  0
  4  5  2  0
  5  6  1  0
  6  7  2  0
  7  8  1  0
  7  9  1  0
  9 10  1  0
 10 11  2  0
 11 12  1  0
 12 13  2  0
 13 14  1  0
 14 15  2  0
 14 16  2  0
 14 17  1  0
 17 18  1  0
 18 19  1  0
 19 20  1  0
 20 21  1  0
 21 22  1  0
 13 23  1  0
 23 24  2  0
  4 25  1  0
 25 26  1  0
 25 27  2  0
 27 28  1  0
 28 29  2  0
 28 30  1  0
 30 31  1  0
 31 32  1  0
 32 33  1  0
 33 34  1  0
 34 35  1  0
 27  2  1  0
 35 30  1  0
 24  6  1  0
 24 10  1  0
 22 17  1  0
M  CHG  4   3  -1   8  -1   9  -1  26  -1
M  END
>  <UniqueID>  (917) 
82

>  <SMILES>  (917) 
C=c1[n-]/c(=C/c2c([O-])[n-]c3ccc(S(=O)(=O)N4CCOCC4)cc23)c([O-])c1C(=O)N1CCCCC1

>  <Energy>  (917) 
147.4055295263498

>  <Genealogy>  (917) 
C=c1[n-]c(=Cc2c([O-])[n-]c3ccc(S(=O)(=O)N4CCOCC4)cc23)c([O-])c1C(=O)N1CCCCC1 (protonated)
C=c1[n-]/c(=C/c2c([O-])[n-]c3ccc(S(=O)(=O)N4CCOCC4)cc23)c([O-])c1C(=O)N1CCCCC1 (cis-trans isomerization)
C=c1[n-]/c(=C/c2c([O-])[n-]c3ccc(S(=O)(=O)N4CCOCC4)cc23)c([O-])c1C(=O)N1CCCCC1 (3D coordinates assigned)
C=c1[n-]/c(=C/c2c([O-])[n-]c3ccc(S(=O)(=O)N4CCOCC4)cc23)c([O-])c1C(=O)N1CCCCC1 (nonaromatic ring conformer: 147.4055295263498 kcal/mol)

>  <smiles>  (917) 
C=c1[nH]c(=Cc2c(O)[nH]c3ccc(S(=O)(=O)N4CCOCC4)cc23)c(O)c1C(=O)N1CCCCC1

>  <score_type>  (917) 
oracle

>  <origin>  (917) 
adg

>  <m_score__min__energy>  (917) 
-17.989999999999998

>  <m_primary>  (917) 
energy

$$$$
25:0
     RDKit          3D

 26 28  0  0  0  0  0  0  0  0999 V2000
   58.0950   34.3440   45.6150 C   0  0  0  0  0  0  0  0  0  0  0  0
   57.3200   33.4630   44.9070 N   0  0  0  0  0  0  0  0  0  0  0  0
   57.2600   32.1840   45.2450 C   0  0  0  0  0  0  0  0  0  0  0  0
   56.5400   31.2790   44.6160 N   0  0  0  0  0  0  0  0  0  0  0  0
   56.8970   29.9690   44.6000 C   0  0  0  0  0  0  0  0  0  0  0  0
   55.3560   29.5830   44.5310 O   0  0  0  0  0  0  0  0  0  0  0  0
   57.2700   28.6040   44.5830 C   0  0  0  0  0  0  0  0  0  0  0  0
   57.6370   28.0620   45.9790 C   0  0  0  0  0  0  0  0  0  0  0  0
   56.7960   26.8670   46.2300 C   0  0  0  0  0  0  0  0  0  0  0  0
   55.4920   26.7060   45.9830 N   0  0  0  0  0  0  0  0  0  0  0  0
   55.1720   25.4870   46.3660 N   0  0  0  0  0  0  0  0  0  0  0  0
   56.2410   24.8440   46.8610 C   0  0  0  0  0  0  0  0  0  0  0  0
   56.3370   23.6740   47.3240 O   0  0  0  0  0  0  0  0  0  0  0  0
   57.2660   25.7140   46.7750 N   0  0  0  0  0  0  0  0  0  0  0  0
   57.9970   31.7330   46.3400 C   0  0  0  0  0  0  0  0  0  0  0  0
   58.7870   32.5820   47.0760 C   0  0  0  0  0  0  0  0  0  0  0  0
   59.4790   32.0220   48.1460 O   0  0  0  0  0  0  0  0  0  0  0  0
   60.5840   31.1610   47.9340 C   0  0  0  0  0  0  0  0  0  0  0  0
   61.8070   31.9930   47.8990 C   0  0  0  0  0  0  0  0  0  0  0  0
   61.9900   32.9400   46.8860 C   0  0  0  0  0  0  0  0  0  0  0  0
   63.1590   33.7090   46.8700 C   0  0  0  0  0  0  0  0  0  0  0  0
   64.1230   33.5220   47.8640 C   0  0  0  0  0  0  0  0  0  0  0  0
   63.9410   32.5880   48.8630 C   0  0  0  0  0  0  0  0  0  0  0  0
   65.1810   32.3720   50.1120 Cl  0  0  0  0  0  0  0  0  0  0  0  0
   62.7780   31.8270   48.8730 C   0  0  0  0  0  0  0  0  0  0  0  0
   58.8400   33.9010   46.7150 C   0  0  0  0  0  0  0  0  0  0  0  0
  1  2  1  0
  2  3  1  0
  3  4  2  0
  4  5  1  0
  5  6  2  0
  5  7  1  0
  7  8  1  0
  8  9  1  0
  9 10  2  0
 10 11  1  0
 11 12  1  0
 12 13  2  0
 12 14  1  0
  3 15  1  0
 15 16  2  0
 16 17  1  0
 17 18  1  0
 18 19  1  0
 19 20  2  0
 20 21  1  0
 21 22  2  0
 22 23  1  0
 23 24  1  0
 23 25  2  0
 16 26  1  0
 26  1  2  0
 14  9  1  0
 25 19  1  0
M  CHG  3   2  -1  11  -1  14  -1
M  END
>  <UniqueID>  (918) 
25

>  <SMILES>  (918) 
O=C(CCc1n[n-]c(=O)[n-]1)/N=c1\cc(OCc2cccc(Cl)c2)cc[n-]1

>  <Energy>  (918) 
340.9272789318938

>  <Genealogy>  (918) 
O=C(CCc1n[n-]c(=O)[n-]1)N=c1cc(OCc2cccc(Cl)c2)cc[n-]1 (protonated)
O=C(CCc1n[n-]c(=O)[n-]1)/N=c1\cc(OCc2cccc(Cl)c2)cc[n-]1 (cis-trans isomerization)
O=C(CCc1n[n-]c(=O)[n-]1)/N=c1\cc(OCc2cccc(Cl)c2)cc[n-]1 (3D coordinates assigned)
O=C(CCc1n[n-]c(=O)[n-]1)/N=c1\cc(OCc2cccc(Cl)c2)cc[n-]1 (optimized conformer: 340.9272789318938 kcal/mol)

>  <smiles>  (918) 
O=C(CCc1n[nH]c(=O)[nH]1)N=c1cc(OCc2cccc(Cl)c2)cc[nH]1

>  <score_type>  (918) 
oracle

>  <origin>  (918) 
adg

>  <m_score__min__energy>  (918) 
-14.550000000000001

>  <m_primary>  (918) 
energy

$$$$
34:0
     RDKit          3D

 24 26  0  0  0  0  0  0  0  0999 V2000
   59.8910   31.5290   52.3830 O   0  0  0  0  0  0  0  0  0  0  0  0
   59.1680   31.2380   51.3920 C   0  0  0  0  0  0  0  0  0  0  0  0
   58.2890   30.1070   51.4930 N   0  0  0  0  0  0  0  0  0  0  0  0
   57.0840   30.0900   51.9910 C   0  0  0  0  0  0  0  0  0  0  0  0
   56.6510   29.1000   52.8970 C   0  0  0  0  0  0  0  0  0  0  0  0
   55.3460   29.1430   53.3900 C   0  0  0  0  0  0  0  0  0  0  0  0
   54.4740   30.1550   52.9850 C   0  0  0  0  0  0  0  0  0  0  0  0
   53.1450   30.1970   53.5240 N   0  0  0  0  0  0  0  0  0  0  0  0
   52.1010   31.0910   53.1230 C   0  0  0  0  0  0  0  0  0  0  0  0
   51.4620   31.7160   54.0100 O   0  0  0  0  0  0  0  0  0  0  0  0
   51.7070   31.2420   51.7090 C   0  0  0  0  0  0  0  0  0  0  0  0
   51.8280   30.2610   50.7390 C   0  0  0  0  0  0  0  0  0  0  0  0
   51.3780   30.8210   49.5640 C   0  0  0  0  0  0  0  0  0  0  0  0
   51.0180   32.1110   49.8830 C   0  0  0  0  0  0  0  0  0  0  0  0
   50.5100   33.0340   48.9780 O   0  0  0  0  0  0  0  0  0  0  0  0
   51.2160   32.3850   51.1840 N   0  0  0  0  0  0  0  0  0  0  0  0
   54.9520   31.1490   52.1160 C   0  0  0  0  0  0  0  0  0  0  0  0
   56.2260   31.0890   51.6470 N   0  0  0  0  0  0  0  0  0  0  0  0
   59.1840   32.1110   50.1910 C   0  0  0  0  0  0  0  0  0  0  0  0
   59.6440   33.4370   50.2860 C   0  0  0  0  0  0  0  0  0  0  0  0
   59.6610   34.2620   49.1570 C   0  0  0  0  0  0  0  0  0  0  0  0
   59.2130   33.7770   47.9270 C   0  0  0  0  0  0  0  0  0  0  0  0
   58.7430   32.4660   47.8230 C   0  0  0  0  0  0  0  0  0  0  0  0
   58.7240   31.6360   48.9490 C   0  0  0  0  0  0  0  0  0  0  0  0
  1  2  2  0
  2  3  1  0
  3  4  2  3
  4  5  1  0
  5  6  2  0
  6  7  1  0
  7  8  1  0
  8  9  1  0
  9 10  2  0
  9 11  1  0
 11 12  2  0
 12 13  1  0
 13 14  2  0
 14 15  1  0
 14 16  1  0
  7 17  2  0
 17 18  1  0
  2 19  1  0
 19 20  2  0
 20 21  1  0
 21 22  2  0
 22 23  1  0
 23 24  2  0
 18  4  1  0
 24 19  1  0
 16 11  1  0
M  CHG  4   8  -1  15  -1  16  -1  18  -1
M  END
>  <UniqueID>  (919) 
32

>  <SMILES>  (919) 
O=C(N=c1ccc([N-]C(=O)c2ccc([O-])[n-]2)c[n-]1)c1ccccc1

>  <Energy>  (919) 
78.09054572683964

>  <Genealogy>  (919) 
O=C(N=c1ccc([N-]C(=O)c2ccc([O-])[n-]2)c[n-]1)c1ccccc1 (protonated)
O=C(N=c1ccc([N-]C(=O)c2ccc([O-])[n-]2)c[n-]1)c1ccccc1 (3D coordinates assigned)
O=C(N=c1ccc([N-]C(=O)c2ccc([O-])[n-]2)c[n-]1)c1ccccc1 (optimized conformer: 78.09054572683964 kcal/mol)

>  <smiles>  (919) 
O=C(N=c1ccc(NC(=O)c2ccc(O)[nH]2)c[nH]1)c1ccccc1

>  <score_type>  (919) 
oracle

>  <origin>  (919) 
adg

>  <m_score__min__energy>  (919) 
-15.710000000000001

>  <m_primary>  (919) 
energy

$$$$
40:0
     RDKit          3D

 30 33  0  0  0  0  0  0  0  0999 V2000
   60.4910   29.4450   46.2880 C   0  0  0  0  0  0  0  0  0  0  0  0
   59.6670   30.4440   45.9370 C   0  0  0  0  0  0  0  0  0  0  0  0
   58.5810   30.3910   45.0460 C   0  0  0  0  0  0  0  0  0  0  0  0
   57.9990   29.3520   44.4150 C   0  0  0  0  0  0  0  0  0  0  0  0
   57.4140   28.1670   45.0720 C   0  0  0  0  0  0  0  0  0  0  0  0
   56.0280   28.0580   45.2760 C   0  0  0  0  0  0  0  0  0  0  0  0
   55.1720   29.0880   44.9020 O   0  0  0  0  0  0  0  0  0  0  0  0
   55.5130   26.9340   45.8380 N   0  0  0  0  0  0  0  0  0  0  0  0
   56.3150   25.8980   46.1950 C   0  0  0  0  0  0  0  0  0  0  0  0
   55.8160   24.8690   46.7170 O   0  0  0  0  0  0  0  0  0  0  0  0
   57.6540   25.9710   45.9830 N   0  0  0  0  0  0  0  0  0  0  0  0
   58.2180   27.0730   45.4250 C   0  0  0  0  0  0  0  0  0  0  0  0
   59.4640   27.1040   45.2380 O   0  0  0  0  0  0  0  0  0  0  0  0
   58.1330   31.6960   44.9030 C   0  0  0  0  0  0  0  0  0  0  0  0
   58.9160   32.4800   45.7250 C   0  0  0  0  0  0  0  0  0  0  0  0
   58.7560   33.9570   45.9150 C   0  0  0  0  0  0  0  0  0  0  0  0
   59.8380   31.7240   46.3540 N   0  0  0  0  0  0  0  0  0  0  0  0
   60.8300   32.2140   47.2700 C   0  0  0  0  0  0  0  0  0  0  0  0
   62.0280   32.7390   46.7800 C   0  0  0  0  0  0  0  0  0  0  0  0
   63.0010   33.2080   47.6610 C   0  0  0  0  0  0  0  0  0  0  0  0
   62.7710   33.1430   49.0470 C   0  0  0  0  0  0  0  0  0  0  0  0
   63.7540   33.6100   49.9990 N   0  0  0  0  0  0  0  0  0  0  0  0
   65.1770   33.2770   49.8450 C   0  0  0  0  0  0  0  0  0  0  0  0
   65.8790   33.2940   51.2060 C   0  0  0  0  0  0  0  0  0  0  0  0
   65.6160   34.5010   51.8940 O   0  0  0  0  0  0  0  0  0  0  0  0
   64.2400   34.5740   52.2100 C   0  0  0  0  0  0  0  0  0  0  0  0
   63.3960   34.6810   50.9380 C   0  0  0  0  0  0  0  0  0  0  0  0
   61.5910   32.6320   49.4970 N   0  0  0  0  0  0  0  0  0  0  0  0
   60.6240   32.1670   48.6600 C   0  0  0  0  0  0  0  0  0  0  0  0
   59.3540   31.6200   49.2400 C   0  0  0  0  0  0  0  0  0  0  0  0
  1  2  2  0
  2  3  1  0
  3  4  2  3
  4  5  1  0
  5  6  2  0
  6  7  1  0
  6  8  1  0
  8  9  1  0
  9 10  2  0
  9 11  1  0
 11 12  1  0
 12 13  2  0
  3 14  1  0
 14 15  2  0
 15 16  1  0
 15 17  1  0
 17 18  1  0
 18 19  2  0
 19 20  1  0
 20 21  2  0
 21 22  1  0
 22 23  1  0
 23 24  1  0
 24 25  1  0
 25 26  1  0
 26 27  1  0
 21 28  1  0
 28 29  2  0
 29 30  1  0
 17  2  1  0
 29 18  1  0
 12  5  1  0
 27 22  1  0
M  CHG  3   7  -1   8  -1  11  -1
M  END
>  <UniqueID>  (920) 
38

>  <SMILES>  (920) 
C=c1c(=Cc2c([O-])[n-]c(=O)[n-]c2=O)cc(C)n1-c1ccc(N2CCOCC2)nc1C

>  <Energy>  (920) 
106.1173826774669

>  <Genealogy>  (920) 
C=c1c(=Cc2c([O-])[n-]c(=O)[n-]c2=O)cc(C)n1-c1ccc(N2CCOCC2)nc1C (protonated)
C=c1c(=Cc2c([O-])[n-]c(=O)[n-]c2=O)cc(C)n1-c1ccc(N2CCOCC2)nc1C (3D coordinates assigned)
C=c1c(=Cc2c([O-])[n-]c(=O)[n-]c2=O)cc(C)n1-c1ccc(N2CCOCC2)nc1C (nonaromatic ring conformer: 106.1173826774669 kcal/mol)

>  <smiles>  (920) 
C=c1c(=Cc2c(O)[nH]c(=O)[nH]c2=O)cc(C)n1-c1ccc(N2CCOCC2)nc1C

>  <score_type>  (920) 
oracle

>  <origin>  (920) 
adg

>  <m_score__min__energy>  (920) 
-15.33

>  <m_primary>  (920) 
energy

$$$$
46:0
     RDKit          3D

 29 32  0  0  0  0  0  0  0  0999 V2000
   59.9010   27.4980   47.4310 C   0  0  0  0  0  0  0  0  0  0  0  0
   59.3510   28.4640   46.6790 C   0  0  0  0  0  0  0  0  0  0  0  0
   58.3010   28.3320   45.7550 C   0  0  0  0  0  0  0  0  0  0  0  0
   57.7040   27.2380   45.2430 C   0  0  0  0  0  0  0  0  0  0  0  0
   57.1870   26.1000   46.0200 C   0  0  0  0  0  0  0  0  0  0  0  0
   57.9190   25.0390   46.4060 N   0  0  0  0  0  0  0  0  0  0  0  0
   57.0030   24.2090   46.9480 C   0  0  0  0  0  0  0  0  0  0  0  0
   57.3090   23.0930   47.4450 O   0  0  0  0  0  0  0  0  0  0  0  0
   55.7320   24.6610   46.9060 N   0  0  0  0  0  0  0  0  0  0  0  0
   55.8660   25.8530   46.3020 C   0  0  0  0  0  0  0  0  0  0  0  0
   54.8000   26.6950   46.0080 O   0  0  0  0  0  0  0  0  0  0  0  0
   57.9470   29.6200   45.3850 C   0  0  0  0  0  0  0  0  0  0  0  0
   58.8130   30.4760   46.0330 C   0  0  0  0  0  0  0  0  0  0  0  0
   58.8080   31.9680   45.8990 C   0  0  0  0  0  0  0  0  0  0  0  0
   59.6670   29.7770   46.8090 N   0  0  0  0  0  0  0  0  0  0  0  0
   60.6680   30.3530   47.6660 C   0  0  0  0  0  0  0  0  0  0  0  0
   61.7760   30.9980   47.1050 C   0  0  0  0  0  0  0  0  0  0  0  0
   62.7510   31.5690   47.9280 C   0  0  0  0  0  0  0  0  0  0  0  0
   62.6250   31.5090   49.3260 C   0  0  0  0  0  0  0  0  0  0  0  0
   63.6330   32.0860   50.1760 N   0  0  0  0  0  0  0  0  0  0  0  0
   63.6860   33.5510   50.3400 C   0  0  0  0  0  0  0  0  0  0  0  0
   64.9190   34.0080   51.1360 C   0  0  0  0  0  0  0  0  0  0  0  0
   66.1390   33.2340   50.7080 C   0  0  0  0  0  0  0  0  0  0  0  0
   67.2090   33.8070   50.5730 O   0  0  0  0  0  0  0  0  0  0  0  0
   66.0510   31.7500   50.4790 C   0  0  0  0  0  0  0  0  0  0  0  0
   64.6480   31.2310   50.8100 C   0  0  0  0  0  0  0  0  0  0  0  0
   61.5080   30.8630   49.8850 C   0  0  0  0  0  0  0  0  0  0  0  0
   60.5330   30.2920   49.0620 C   0  0  0  0  0  0  0  0  0  0  0  0
   59.4300   29.6680   49.6340 O   0  0  0  0  0  0  0  0  0  0  0  0
  1  2  2  0
  2  3  1  0
  3  4  2  0
  4  5  1  0
  5  6  1  0
  6  7  1  0
  7  8  2  0
  7  9  1  0
  9 10  1  0
 10 11  1  0
  3 12  1  0
 12 13  2  0
 13 14  1  0
 13 15  1  0
 15 16  1  0
 16 17  2  0
 17 18  1  0
 18 19  2  0
 19 20  1  0
 20 21  1  0
 21 22  1  0
 22 23  1  0
 23 24  2  0
 23 25  1  0
 25 26  1  0
 19 27  1  0
 27 28  2  0
 28 29  1  0
 15  2  1  0
 28 16  1  0
 10  5  2  0
 26 20  1  0
M  CHG  4   6  -1   9  -1  11  -1  29  -1
M  END
>  <UniqueID>  (921) 
44

>  <SMILES>  (921) 
C=c1/c(=C\c2[n-]c(=O)[n-]c2[O-])cc(C)n1-c1ccc(N2CCC(=O)CC2)cc1[O-]

>  <Energy>  (921) 
129.11708389347234

>  <Genealogy>  (921) 
C=c1c(=Cc2[n-]c(=O)[n-]c2[O-])cc(C)n1-c1ccc(N2CCC(=O)CC2)cc1[O-] (protonated)
C=c1/c(=C\c2[n-]c(=O)[n-]c2[O-])cc(C)n1-c1ccc(N2CCC(=O)CC2)cc1[O-] (cis-trans isomerization)
C=c1/c(=C\c2[n-]c(=O)[n-]c2[O-])cc(C)n1-c1ccc(N2CCC(=O)CC2)cc1[O-] (3D coordinates assigned)
C=c1/c(=C\c2[n-]c(=O)[n-]c2[O-])cc(C)n1-c1ccc(N2CCC(=O)CC2)cc1[O-] (nonaromatic ring conformer: 129.11708389347234 kcal/mol)

>  <smiles>  (921) 
C=c1c(=Cc2[nH]c(=O)[nH]c2O)cc(C)n1-c1ccc(N2CCC(=O)CC2)cc1O

>  <score_type>  (921) 
oracle

>  <origin>  (921) 
adg

>  <m_score__min__energy>  (921) 
-16.960000000000001

>  <m_primary>  (921) 
energy

$$$$
55:0
     RDKit          3D

 27 29  0  0  0  0  0  0  0  0999 V2000
   58.7630   30.4130   47.3480 C   0  0  0  0  0  0  0  0  0  0  0  0
   58.3820   31.1900   46.3210 C   0  0  0  0  0  0  0  0  0  0  0  0
   57.9850   30.7700   45.0390 C   0  0  0  0  0  0  0  0  0  0  0  0
   57.9740   29.5510   44.4640 C   0  0  0  0  0  0  0  0  0  0  0  0
   57.4090   28.3240   45.0560 C   0  0  0  0  0  0  0  0  0  0  0  0
   56.0250   28.1830   45.2510 C   0  0  0  0  0  0  0  0  0  0  0  0
   55.1460   29.1830   44.8530 O   0  0  0  0  0  0  0  0  0  0  0  0
   55.5350   27.0600   45.8390 N   0  0  0  0  0  0  0  0  0  0  0  0
   56.3650   26.0710   46.2590 C   0  0  0  0  0  0  0  0  0  0  0  0
   55.8890   25.0390   46.7970 O   0  0  0  0  0  0  0  0  0  0  0  0
   57.7090   26.1970   46.1050 N   0  0  0  0  0  0  0  0  0  0  0  0
   58.2470   27.3000   45.5230 C   0  0  0  0  0  0  0  0  0  0  0  0
   59.4980   27.3880   45.4030 O   0  0  0  0  0  0  0  0  0  0  0  0
   57.5910   31.9120   44.3640 C   0  0  0  0  0  0  0  0  0  0  0  0
   57.7900   32.9740   45.2180 C   0  0  0  0  0  0  0  0  0  0  0  0
   57.5710   34.4110   44.8410 C   0  0  0  0  0  0  0  0  0  0  0  0
   58.2640   32.5440   46.4100 N   0  0  0  0  0  0  0  0  0  0  0  0
   58.5780   33.3920   47.5740 C   0  0  0  0  0  0  0  0  0  0  0  0
   60.0490   33.3450   47.9190 C   0  0  0  0  0  0  0  0  0  0  0  0
   60.4540   33.0180   49.2240 C   0  0  0  0  0  0  0  0  0  0  0  0
   61.7740   32.9540   49.5400 N   0  0  0  0  0  0  0  0  0  0  0  0
   62.7440   33.1920   48.6180 C   0  0  0  0  0  0  0  0  0  0  0  0
   64.1260   33.1140   49.0040 C   0  0  0  0  0  0  0  0  0  0  0  0
   65.2380   33.0520   49.3160 N   0  0  0  0  0  0  0  0  0  0  0  0
   62.3930   33.5050   47.3030 C   0  0  0  0  0  0  0  0  0  0  0  0
   61.0440   33.5750   46.9500 C   0  0  0  0  0  0  0  0  0  0  0  0
   60.7150   33.8670   45.6680 F   0  0  0  0  0  0  0  0  0  0  0  0
  1  2  2  0
  2  3  1  0
  3  4  2  3
  4  5  1  0
  5  6  2  0
  6  7  1  0
  6  8  1  0
  8  9  1  0
  9 10  2  0
  9 11  1  0
 11 12  1  0
 12 13  2  0
  3 14  1  0
 14 15  2  0
 15 16  1  0
 15 17  1  0
 17 18  1  0
 18 19  1  0
 19 20  2  0
 20 21  1  0
 21 22  2  0
 22 23  1  0
 23 24  3  0
 22 25  1  0
 25 26  2  0
 26 27  1  0
 17  2  1  0
 26 19  1  0
 12  5  1  0
M  CHG  3   7  -1   8  -1  11  -1
M  END
>  <UniqueID>  (922) 
53

>  <SMILES>  (922) 
C=c1c(=Cc2c([O-])[n-]c(=O)[n-]c2=O)cc(C)n1Cc1cnc(C#N)cc1F

>  <Energy>  (922) 
84.05871746446759

>  <Genealogy>  (922) 
C=c1c(=Cc2c([O-])[n-]c(=O)[n-]c2=O)cc(C)n1Cc1cnc(C#N)cc1F (protonated)
C=c1c(=Cc2c([O-])[n-]c(=O)[n-]c2=O)cc(C)n1Cc1cnc(C#N)cc1F (3D coordinates assigned)
C=c1c(=Cc2c([O-])[n-]c(=O)[n-]c2=O)cc(C)n1Cc1cnc(C#N)cc1F (optimized conformer: 84.05871746446759 kcal/mol)

>  <smiles>  (922) 
C=c1c(=Cc2c(O)[nH]c(=O)[nH]c2=O)cc(C)n1Cc1cnc(C#N)cc1F

>  <score_type>  (922) 
oracle

>  <origin>  (922) 
adg

>  <m_score__min__energy>  (922) 
-15.369999999999999

>  <m_primary>  (922) 
energy

$$$$
68:0
     RDKit          3D

 22 23  0  0  0  0  0  0  0  0999 V2000
   62.1290   33.3080   46.8560 C   0  0  0  0  0  0  0  0  0  0  0  0
   60.8500   33.5370   46.4560 N   0  0  0  0  0  0  0  0  0  0  0  0
   59.8710   33.9000   47.3330 C   0  0  0  0  0  0  0  0  0  0  0  0
   58.6470   34.1120   46.9410 N   0  0  0  0  0  0  0  0  0  0  0  0
   58.1150   34.1240   45.6040 C   0  0  0  0  0  0  0  0  0  0  0  0
   58.5980   34.9400   44.7760 O   0  0  0  0  0  0  0  0  0  0  0  0
   57.0450   33.1760   45.1310 C   0  0  0  0  0  0  0  0  0  0  0  0
   57.3890   31.8270   45.4440 O   0  0  0  0  0  0  0  0  0  0  0  0
   57.4610   30.8060   44.4880 C   0  0  0  0  0  0  0  0  0  0  0  0
   57.5320   31.1010   43.2620 O   0  0  0  0  0  0  0  0  0  0  0  0
   57.4570   29.3810   44.9090 C   0  0  0  0  0  0  0  0  0  0  0  0
   58.6740   28.6770   44.9910 C   0  0  0  0  0  0  0  0  0  0  0  0
   58.6980   27.3380   45.3900 C   0  0  0  0  0  0  0  0  0  0  0  0
   57.5110   26.6820   45.7140 C   0  0  0  0  0  0  0  0  0  0  0  0
   56.2940   27.3630   45.6400 C   0  0  0  0  0  0  0  0  0  0  0  0
   55.1150   26.7020   45.9670 O   0  0  0  0  0  0  0  0  0  0  0  0
   56.2580   28.7070   45.2410 C   0  0  0  0  0  0  0  0  0  0  0  0
   55.0280   29.3540   45.1790 O   0  0  0  0  0  0  0  0  0  0  0  0
   60.1830   34.0290   48.6920 C   0  0  0  0  0  0  0  0  0  0  0  0
   61.4910   33.8000   49.1250 C   0  0  0  0  0  0  0  0  0  0  0  0
   62.4750   33.4380   48.2030 C   0  0  0  0  0  0  0  0  0  0  0  0
   64.1230   33.1500   48.7280 Cl  0  0  0  0  0  0  0  0  0  0  0  0
  1  2  1  0
  2  3  1  0
  3  4  2  0
  4  5  1  0
  5  6  2  0
  5  7  1  0
  7  8  1  0
  8  9  1  0
  9 10  2  0
  9 11  1  0
 11 12  2  0
 12 13  1  0
 13 14  2  0
 14 15  1  0
 15 16  1  0
 15 17  2  0
 17 18  1  0
  3 19  1  0
 19 20  2  0
 20 21  1  0
 21 22  1  0
 21  1  2  0
 17 11  1  0
M  CHG  3   2  -1  16  -1  18  -1
M  END
>  <UniqueID>  (923) 
64

>  <SMILES>  (923) 
O=C(COC(=O)c1cccc([O-])c1[O-])/N=c1/ccc(Cl)c[n-]1

>  <Energy>  (923) 
35.8300682556132

>  <Genealogy>  (923) 
O=C(COC(=O)c1cccc([O-])c1[O-])N=c1ccc(Cl)c[n-]1 (protonated)
O=C(COC(=O)c1cccc([O-])c1[O-])/N=c1/ccc(Cl)c[n-]1 (cis-trans isomerization)
O=C(COC(=O)c1cccc([O-])c1[O-])/N=c1/ccc(Cl)c[n-]1 (3D coordinates assigned)
O=C(COC(=O)c1cccc([O-])c1[O-])/N=c1/ccc(Cl)c[n-]1 (optimized conformer: 35.8300682556132 kcal/mol)

>  <smiles>  (923) 
O=C(COC(=O)c1cccc(O)c1O)N=c1ccc(Cl)c[nH]1

>  <score_type>  (923) 
oracle

>  <origin>  (923) 
adg

>  <m_score__min__energy>  (923) 
-15.65

>  <m_primary>  (923) 
energy

$$$$
79:0
     RDKit          3D

 32 35  0  0  0  0  0  0  0  0999 V2000
   56.8780   31.1430   45.0310 O   0  0  0  0  0  0  0  0  0  0  0  0
   57.4300   30.0700   45.3930 C   0  0  0  0  0  0  0  0  0  0  0  0
   56.6670   28.8570   45.4690 N   0  0  0  0  0  0  0  0  0  0  0  0
   57.0620   27.6650   45.8230 C   0  0  0  0  0  0  0  0  0  0  0  0
   58.4030   27.4300   45.8590 N   0  0  0  0  0  0  0  0  0  0  0  0
   58.9280   26.2280   46.2100 C   0  0  0  0  0  0  0  0  0  0  0  0
   58.0860   25.1710   46.5470 C   0  0  0  0  0  0  0  0  0  0  0  0
   56.7060   25.3590   46.4980 C   0  0  0  0  0  0  0  0  0  0  0  0
   56.1770   26.5960   46.1210 C   0  0  0  0  0  0  0  0  0  0  0  0
   54.7970   26.7150   46.0080 O   0  0  0  0  0  0  0  0  0  0  0  0
   58.7740   30.1120   45.8810 N   0  0  0  0  0  0  0  0  0  0  0  0
   59.1790   30.5400   47.1910 C   0  0  0  0  0  0  0  0  0  0  0  0
   59.6640   29.6250   48.1410 C   0  0  0  0  0  0  0  0  0  0  0  0
   60.0760   30.0620   49.4070 C   0  0  0  0  0  0  0  0  0  0  0  0
   60.6940   28.9020   50.5870 S   0  0  0  0  0  0  0  0  0  0  0  0
   60.3630   27.5080   50.1310 O   0  0  0  0  0  0  0  0  0  0  0  0
   62.1910   29.0230   50.6620 O   0  0  0  0  0  0  0  0  0  0  0  0
   60.0080   29.1670   52.1740 N   0  0  0  0  0  0  0  0  0  0  0  0
   58.5460   29.3370   52.0830 C   0  0  0  0  0  0  0  0  0  0  0  0
   57.8810   29.0600   53.4410 C   0  0  0  0  0  0  0  0  0  0  0  0
   58.1040   27.7450   53.9390 O   0  0  0  0  0  0  0  0  0  0  0  0
   59.2640   27.1200   53.4090 C   0  0  0  0  0  0  0  0  0  0  0  0
   60.4110   28.1080   53.1260 C   0  0  0  0  0  0  0  0  0  0  0  0
   60.0050   31.4240   49.7250 C   0  0  0  0  0  0  0  0  0  0  0  0
   59.5510   32.3430   48.7760 C   0  0  0  0  0  0  0  0  0  0  0  0
   59.1480   31.9100   47.5090 C   0  0  0  0  0  0  0  0  0  0  0  0
   58.6920   32.8750   46.5510 N   0  0  0  0  0  0  0  0  0  0  0  0
   59.6700   33.5480   45.6970 C   0  0  0  0  0  0  0  0  0  0  0  0
   58.9780   34.0580   44.4290 C   0  0  0  0  0  0  0  0  0  0  0  0
   57.8340   34.8260   44.7550 O   0  0  0  0  0  0  0  0  0  0  0  0
   56.8660   34.0020   45.3770 C   0  0  0  0  0  0  0  0  0  0  0  0
   57.3750   33.4880   46.7270 C   0  0  0  0  0  0  0  0  0  0  0  0
  1  2  2  0
  2  3  1  0
  3  4  2  3
  4  5  1  0
  5  6  1  0
  6  7  2  0
  7  8  1  0
  8  9  2  0
  9 10  1  0
  2 11  1  0
 11 12  1  0
 12 13  2  0
 13 14  1  0
 14 15  1  0
 15 16  2  0
 15 17  2  0
 15 18  1  0
 18 19  1  0
 19 20  1  0
 20 21  1  0
 21 22  1  0
 22 23  1  0
 14 24  2  0
 24 25  1  0
 25 26  2  0
 26 27  1  0
 27 28  1  0
 28 29  1  0
 29 30  1  0
 30 31  1  0
 31 32  1  0
  9  4  1  0
 26 12  1  0
 32 27  1  0
 23 18  1  0
M  CHG  3   5  -1  10  -1  11  -1
M  END
>  <UniqueID>  (924) 
75

>  <SMILES>  (924) 
O=C(N=c1[n-]cccc1[O-])[N-]c1cc(S(=O)(=O)N2CCOCC2)ccc1N1CCOCC1

>  <Energy>  (924) 
89.59982674897626

>  <Genealogy>  (924) 
O=C(N=c1[n-]cccc1[O-])[N-]c1cc(S(=O)(=O)N2CCOCC2)ccc1N1CCOCC1 (protonated)
O=C(N=c1[n-]cccc1[O-])[N-]c1cc(S(=O)(=O)N2CCOCC2)ccc1N1CCOCC1 (3D coordinates assigned)
O=C(N=c1[n-]cccc1[O-])[N-]c1cc(S(=O)(=O)N2CCOCC2)ccc1N1CCOCC1 (nonaromatic ring conformer: 89.59982674897626 kcal/mol)

>  <smiles>  (924) 
O=C(N=c1[nH]cccc1O)Nc1cc(S(=O)(=O)N2CCOCC2)ccc1N1CCOCC1

>  <score_type>  (924) 
oracle

>  <origin>  (924) 
adg

>  <m_score__min__energy>  (924) 
-14.27

>  <m_primary>  (924) 
energy

$$$$
80:0
     RDKit          3D

 28 30  0  0  0  0  0  0  0  0999 V2000
   57.4300   33.4680   46.7600 C   0  0  0  0  0  0  0  0  0  0  0  0
   58.1260   33.0880   47.9430 O   0  0  0  0  0  0  0  0  0  0  0  0
   59.5130   33.2210   48.1290 C   0  0  0  0  0  0  0  0  0  0  0  0
   60.3520   33.7210   47.1130 C   0  0  0  0  0  0  0  0  0  0  0  0
   61.7290   33.8270   47.3200 C   0  0  0  0  0  0  0  0  0  0  0  0
   62.2860   33.4410   48.5390 C   0  0  0  0  0  0  0  0  0  0  0  0
   61.4660   32.9510   49.5580 C   0  0  0  0  0  0  0  0  0  0  0  0
   60.0800   32.8280   49.3620 C   0  0  0  0  0  0  0  0  0  0  0  0
   59.2280   32.3080   50.4580 C   0  0  0  0  0  0  0  0  0  0  0  0
   58.5210   33.1120   51.1200 O   0  0  0  0  0  0  0  0  0  0  0  0
   59.2200   30.9190   50.8320 N   0  0  0  0  0  0  0  0  0  0  0  0
   58.4440   30.3740   51.7220 C   0  0  0  0  0  0  0  0  0  0  0  0
   57.1000   30.2960   51.6130 N   0  0  0  0  0  0  0  0  0  0  0  0
   56.5410   29.6930   52.6950 C   0  0  0  0  0  0  0  0  0  0  0  0
   55.0880   29.4660   52.7900 C   0  0  0  0  0  0  0  0  0  0  0  0
   54.5330   28.6470   52.0090 O   0  0  0  0  0  0  0  0  0  0  0  0
   54.3040   30.1760   53.7630 N   0  0  0  0  0  0  0  0  0  0  0  0
   52.8490   30.0740   53.8180 C   0  0  0  0  0  0  0  0  0  0  0  0
   52.2350   30.7430   52.6140 C   0  0  0  0  0  0  0  0  0  0  0  0
   52.3860   30.1790   51.3380 C   0  0  0  0  0  0  0  0  0  0  0  0
   51.8420   30.8160   50.2210 C   0  0  0  0  0  0  0  0  0  0  0  0
   51.1520   32.0180   50.3880 C   0  0  0  0  0  0  0  0  0  0  0  0
   50.6050   32.6660   49.2890 O   0  0  0  0  0  0  0  0  0  0  0  0
   51.0170   32.5590   51.6280 N   0  0  0  0  0  0  0  0  0  0  0  0
   51.5360   31.9600   52.7330 C   0  0  0  0  0  0  0  0  0  0  0  0
   51.3850   32.5060   53.8590 O   0  0  0  0  0  0  0  0  0  0  0  0
   57.4480   29.3010   53.6800 C   0  0  0  0  0  0  0  0  0  0  0  0
   58.9950   29.7250   53.1670 S   0  0  0  0  0  0  0  0  0  0  0  0
  1  2  1  0
  2  3  1  0
  3  4  2  0
  4  5  1  0
  5  6  2  0
  6  7  1  0
  7  8  2  0
  8  9  1  0
  9 10  2  0
  9 11  1  0
 11 12  2  3
 12 13  1  0
 13 14  1  0
 14 15  1  0
 15 16  2  0
 15 17  1  0
 17 18  1  0
 18 19  1  0
 19 20  2  0
 20 21  1  0
 21 22  2  0
 22 23  1  0
 22 24  1  0
 24 25  1  0
 25 26  2  0
 14 27  2  0
 27 28  1  0
  8  3  1  0
 28 12  1  0
 25 19  1  0
M  CHG  3  13  -1  23  -1  24  -1
M  END
>  <UniqueID>  (925) 
76

>  <SMILES>  (925) 
COc1ccccc1C(=O)N=c1[n-]c(C(=O)NCc2ccc([O-])[n-]c2=O)cs1

>  <Energy>  (925) 
77.97141069133225

>  <Genealogy>  (925) 
COc1ccccc1C(=O)N=c1[n-]c(C(=O)NCc2ccc([O-])[n-]c2=O)cs1 (protonated)
COc1ccccc1C(=O)N=c1[n-]c(C(=O)NCc2ccc([O-])[n-]c2=O)cs1 (3D coordinates assigned)
COc1ccccc1C(=O)N=c1[n-]c(C(=O)NCc2ccc([O-])[n-]c2=O)cs1 (optimized conformer: 77.97141069133225 kcal/mol)

>  <smiles>  (925) 
COc1ccccc1C(=O)N=c1[nH]c(C(=O)NCc2ccc(O)[nH]c2=O)cs1

>  <score_type>  (925) 
oracle

>  <origin>  (925) 
adg

>  <m_score__min__energy>  (925) 
-15.630000000000001

>  <m_primary>  (925) 
energy

$$$$
86:0
     RDKit          3D

 33 36  0  0  0  0  0  0  0  0999 V2000
   56.5710   29.6800   44.6500 C   0  0  0  0  0  0  0  0  0  0  0  0
   57.7790   29.3340   45.1220 C   0  0  0  0  0  0  0  0  0  0  0  0
   58.3560   28.0530   45.1470 C   0  0  0  0  0  0  0  0  0  0  0  0
   57.8380   26.8440   44.8610 C   0  0  0  0  0  0  0  0  0  0  0  0
   57.3180   25.8810   45.8440 C   0  0  0  0  0  0  0  0  0  0  0  0
   58.0070   24.8180   46.3030 N   0  0  0  0  0  0  0  0  0  0  0  0
   57.0990   24.1580   47.0510 C   0  0  0  0  0  0  0  0  0  0  0  0
   57.3730   23.0960   47.6700 O   0  0  0  0  0  0  0  0  0  0  0  0
   55.8710   24.7180   47.0770 N   0  0  0  0  0  0  0  0  0  0  0  0
   56.0220   25.8010   46.2970 C   0  0  0  0  0  0  0  0  0  0  0  0
   54.9910   26.6940   46.0160 O   0  0  0  0  0  0  0  0  0  0  0  0
   59.6670   28.2270   45.5670 C   0  0  0  0  0  0  0  0  0  0  0  0
   59.8320   29.5730   45.8190 C   0  0  0  0  0  0  0  0  0  0  0  0
   61.0780   30.1960   46.3710 C   0  0  0  0  0  0  0  0  0  0  0  0
   58.6900   30.2410   45.5560 N   0  0  0  0  0  0  0  0  0  0  0  0
   58.5230   31.6670   45.6230 C   0  0  0  0  0  0  0  0  0  0  0  0
   58.4540   32.4060   44.4340 C   0  0  0  0  0  0  0  0  0  0  0  0
   58.3470   33.7980   44.4760 C   0  0  0  0  0  0  0  0  0  0  0  0
   58.3120   34.4610   45.7050 C   0  0  0  0  0  0  0  0  0  0  0  0
   58.3800   33.7330   46.8970 C   0  0  0  0  0  0  0  0  0  0  0  0
   58.4880   32.3340   46.8680 C   0  0  0  0  0  0  0  0  0  0  0  0
   58.5280   31.5790   48.1370 C   0  0  0  0  0  0  0  0  0  0  0  0
   58.5120   30.3210   48.1070 O   0  0  0  0  0  0  0  0  0  0  0  0
   58.6060   32.2370   49.4050 N   0  0  0  0  0  0  0  0  0  0  0  0
   59.8280   32.3800   50.1880 C   0  0  0  0  0  0  0  0  0  0  0  0
   61.0000   32.5540   49.2600 C   0  0  0  0  0  0  0  0  0  0  0  0
   61.1000   33.7120   48.4680 C   0  0  0  0  0  0  0  0  0  0  0  0
   62.1800   33.8800   47.5980 C   0  0  0  0  0  0  0  0  0  0  0  0
   63.1700   32.9010   47.5140 C   0  0  0  0  0  0  0  0  0  0  0  0
   63.0870   31.7500   48.3000 C   0  0  0  0  0  0  0  0  0  0  0  0
   62.0040   31.5670   49.1840 C   0  0  0  0  0  0  0  0  0  0  0  0
   61.9000   30.4280   50.0020 O   0  0  0  0  0  0  0  0  0  0  0  0
   61.0090   29.3430   49.7700 C   0  0  0  0  0  0  0  0  0  0  0  0
  1  2  2  0
  2  3  1  0
  3  4  2  3
  4  5  1  0
  5  6  1  0
  6  7  1  0
  7  8  2  0
  7  9  1  0
  9 10  1  0
 10 11  1  0
  3 12  1  0
 12 13  2  0
 13 14  1  0
 13 15  1  0
 15 16  1  0
 16 17  2  0
 17 18  1  0
 18 19  2  0
 19 20  1  0
 20 21  2  0
 21 22  1  0
 22 23  2  0
 22 24  1  0
 24 25  1  0
 25 26  1  0
 26 27  2  0
 27 28  1  0
 28 29  2  0
 29 30  1  0
 30 31  2  0
 31 32  1  0
 32 33  1  0
 15  2  1  0
 21 16  1  0
 31 26  1  0
 10  5  2  0
M  CHG  3   6  -1   9  -1  24  -1
M  END
>  <UniqueID>  (926) 
81

>  <SMILES>  (926) 
C=c1c(=Cc2[n-]c(=O)[n-]c2O)cc(C)n1-c1ccccc1C(=O)[N-]Cc1ccccc1OC

>  <Energy>  (926) 
133.56360625644786

>  <Genealogy>  (926) 
C=c1c(=Cc2[n-]c(=O)[n-]c2O)cc(C)n1-c1ccccc1C(=O)[N-]Cc1ccccc1OC (protonated)
C=c1c(=Cc2[n-]c(=O)[n-]c2O)cc(C)n1-c1ccccc1C(=O)[N-]Cc1ccccc1OC (3D coordinates assigned)
C=c1c(=Cc2[n-]c(=O)[n-]c2O)cc(C)n1-c1ccccc1C(=O)[N-]Cc1ccccc1OC (optimized conformer: 133.56360625644786 kcal/mol)

>  <smiles>  (926) 
C=c1c(=Cc2[nH]c(=O)[nH]c2O)cc(C)n1-c1ccccc1C(=O)NCc1ccccc1OC

>  <score_type>  (926) 
oracle

>  <origin>  (926) 
adg

>  <m_score__min__energy>  (926) 
-14.92

>  <m_primary>  (926) 
energy

$$$$
92:0
     RDKit          3D

 31 33  0  0  0  0  0  0  0  0999 V2000
   63.1980   31.5250   47.1280 C   0  0  0  0  0  0  0  0  0  0  0  0
   62.0020   31.7330   47.9990 C   0  0  0  0  0  0  0  0  0  0  0  0
   62.0490   32.3900   49.1740 N   0  0  0  0  0  0  0  0  0  0  0  0
   60.8280   32.3900   49.6840 N   0  0  0  0  0  0  0  0  0  0  0  0
   60.4860   33.0670   50.9310 C   0  0  0  0  0  0  0  0  0  0  0  0
   59.9760   31.7630   48.8430 C   0  0  0  0  0  0  0  0  0  0  0  0
   58.4860   31.6550   49.0470 C   0  0  0  0  0  0  0  0  0  0  0  0
   57.8110   32.7410   48.4110 O   0  0  0  0  0  0  0  0  0  0  0  0
   58.3140   33.4920   47.3370 C   0  0  0  0  0  0  0  0  0  0  0  0
   59.3810   34.4020   47.4790 C   0  0  0  0  0  0  0  0  0  0  0  0
   59.8270   35.1400   46.3780 C   0  0  0  0  0  0  0  0  0  0  0  0
   59.2250   34.9680   45.1290 C   0  0  0  0  0  0  0  0  0  0  0  0
   58.1740   34.0600   44.9780 C   0  0  0  0  0  0  0  0  0  0  0  0
   57.7230   33.3240   46.0780 C   0  0  0  0  0  0  0  0  0  0  0  0
   60.7000   31.3210   47.7460 C   0  0  0  0  0  0  0  0  0  0  0  0
   60.1970   30.5910   46.5700 C   0  0  0  0  0  0  0  0  0  0  0  0
   60.9990   29.9140   45.8740 O   0  0  0  0  0  0  0  0  0  0  0  0
   58.8040   30.6280   46.2330 N   0  0  0  0  0  0  0  0  0  0  0  0
   58.2380   29.8330   45.1470 C   0  0  0  0  0  0  0  0  0  0  0  0
   57.9020   28.4450   45.6390 C   0  0  0  0  0  0  0  0  0  0  0  0
   58.9410   27.5990   46.0550 C   0  0  0  0  0  0  0  0  0  0  0  0
   58.6690   26.2890   46.4500 C   0  0  0  0  0  0  0  0  0  0  0  0
   57.3600   25.8070   46.4330 C   0  0  0  0  0  0  0  0  0  0  0  0
   56.3030   26.6410   46.0270 C   0  0  0  0  0  0  0  0  0  0  0  0
   54.9430   26.1850   45.9970 N   0  0  0  0  0  0  0  0  0  0  0  0
   54.4170   24.5670   45.6630 S   0  0  0  0  0  0  0  0  0  0  0  0
   55.3490   23.8940   44.3020 C   0  0  0  0  0  0  0  0  0  0  0  0
   54.5780   23.7080   46.8860 O   0  0  0  0  0  0  0  0  0  0  0  0
   52.9620   24.6000   45.2840 O   0  0  0  0  0  0  0  0  0  0  0  0
   56.5790   27.9600   45.6310 C   0  0  0  0  0  0  0  0  0  0  0  0
   55.5310   28.7810   45.2230 O   0  0  0  0  0  0  0  0  0  0  0  0
  1  2  1  0
  2  3  2  0
  3  4  1  0
  4  5  1  0
  4  6  1  0
  6  7  1  0
  7  8  1  0
  8  9  1  0
  9 10  2  0
 10 11  1  0
 11 12  2  0
 12 13  1  0
 13 14  2  0
  6 15  2  0
 15 16  1  0
 16 17  2  0
 16 18  1  0
 18 19  1  0
 19 20  1  0
 20 21  2  0
 21 22  1  0
 22 23  2  0
 23 24  1  0
 24 25  1  0
 25 26  1  0
 26 27  1  0
 26 28  2  0
 26 29  2  0
 24 30  2  0
 30 31  1  0
 15  2  1  0
 30 20  1  0
 14  9  1  0
M  CHG  2  25  -1  31  -1
M  END
>  <UniqueID>  (927) 
87

>  <SMILES>  (927) 
Cc1nn(C)c(COc2ccccc2)c1C(=O)NCc1cccc([N-]S(C)(=O)=O)c1[O-]

>  <Energy>  (927) 
81.6488776917495

>  <Genealogy>  (927) 
Cc1nn(C)c(COc2ccccc2)c1C(=O)NCc1cccc([N-]S(C)(=O)=O)c1[O-] (protonated)
Cc1nn(C)c(COc2ccccc2)c1C(=O)NCc1cccc([N-]S(C)(=O)=O)c1[O-] (3D coordinates assigned)
Cc1nn(C)c(COc2ccccc2)c1C(=O)NCc1cccc([N-]S(C)(=O)=O)c1[O-] (optimized conformer: 81.6488776917495 kcal/mol)

>  <smiles>  (927) 
Cc1nn(C)c(COc2ccccc2)c1C(=O)NCc1cccc(NS(C)(=O)=O)c1O

>  <score_type>  (927) 
oracle

>  <origin>  (927) 
adg

>  <m_score__min__energy>  (927) 
-14.800000000000001

>  <m_primary>  (927) 
energy

$$$$
8:0
     RDKit          3D

 23 25  0  0  0  0  0  0  0  0999 V2000
   58.6510   34.6150   52.7430 O   0  0  0  0  0  0  0  0  0  0  0  0
   58.1600   33.3820   53.1660 C   0  0  0  0  0  0  0  0  0  0  0  0
   57.2060   32.6940   52.4060 C   0  0  0  0  0  0  0  0  0  0  0  0
   56.7210   31.4570   52.8420 C   0  0  0  0  0  0  0  0  0  0  0  0
   57.1800   30.9010   54.0480 C   0  0  0  0  0  0  0  0  0  0  0  0
   56.6830   29.5560   54.4970 C   0  0  0  0  0  0  0  0  0  0  0  0
   55.7080   29.0080   53.4930 C   0  0  0  0  0  0  0  0  0  0  0  0
   56.1220   28.6600   52.3560 O   0  0  0  0  0  0  0  0  0  0  0  0
   54.2980   29.0420   53.7440 N   0  0  0  0  0  0  0  0  0  0  0  0
   53.4760   30.0560   53.8080 C   0  0  0  0  0  0  0  0  0  0  0  0
   53.2380   30.5610   55.0480 N   0  0  0  0  0  0  0  0  0  0  0  0
   52.3010   31.5070   55.2970 C   0  0  0  0  0  0  0  0  0  0  0  0
   51.5110   31.9940   54.2650 C   0  0  0  0  0  0  0  0  0  0  0  0
   51.7550   31.5760   52.9490 C   0  0  0  0  0  0  0  0  0  0  0  0
   51.0120   32.1270   51.8840 C   0  0  0  0  0  0  0  0  0  0  0  0
   49.9600   33.0060   52.1270 O   0  0  0  0  0  0  0  0  0  0  0  0
   51.3360   31.8030   50.5640 C   0  0  0  0  0  0  0  0  0  0  0  0
   50.6010   32.3380   49.5120 O   0  0  0  0  0  0  0  0  0  0  0  0
   52.4130   30.9630   50.2960 C   0  0  0  0  0  0  0  0  0  0  0  0
   53.1510   30.4050   51.3410 C   0  0  0  0  0  0  0  0  0  0  0  0
   52.7900   30.6320   52.6890 C   0  0  0  0  0  0  0  0  0  0  0  0
   58.1460   31.5890   54.7990 C   0  0  0  0  0  0  0  0  0  0  0  0
   58.6290   32.8270   54.3620 C   0  0  0  0  0  0  0  0  0  0  0  0
  1  2  1  0
  2  3  2  0
  3  4  1  0
  4  5  2  0
  5  6  1  0
  6  7  1  0
  7  8  2  0
  7  9  1  0
  9 10  2  0
 10 11  1  0
 11 12  1  0
 12 13  2  0
 13 14  1  0
 14 15  2  0
 15 16  1  0
 15 17  1  0
 17 18  1  0
 17 19  2  0
 19 20  1  0
 20 21  2  0
  5 22  1  0
 22 23  2  0
 23  2  1  0
 21 10  1  0
 21 14  1  0
M  CHG  3  11  -1  16  -1  18  -1
M  END
>  <UniqueID>  (928) 
9

>  <SMILES>  (928) 
O=C(Cc1ccc(O)cc1)/N=c1/[n-]ccc2c([O-])c([O-])ccc12

>  <Energy>  (928) 
60.46613359442825

>  <Genealogy>  (928) 
O=C(Cc1ccc(O)cc1)N=c1[n-]ccc2c([O-])c([O-])ccc12 (protonated)
O=C(Cc1ccc(O)cc1)/N=c1/[n-]ccc2c([O-])c([O-])ccc12 (cis-trans isomerization)
O=C(Cc1ccc(O)cc1)/N=c1/[n-]ccc2c([O-])c([O-])ccc12 (3D coordinates assigned)
O=C(Cc1ccc(O)cc1)/N=c1/[n-]ccc2c([O-])c([O-])ccc12 (optimized conformer: 60.46613359442825 kcal/mol)

>  <smiles>  (928) 
O=C(Cc1ccc(O)cc1)N=c1[nH]ccc2c(O)c(O)ccc12

>  <score_type>  (928) 
oracle

>  <origin>  (928) 
adg

>  <m_score__min__energy>  (928) 
-15.34

>  <m_primary>  (928) 
energy

$$$$
12:0
     RDKit          3D

 36 39  0  0  0  0  0  0  0  0999 V2000
   57.7480   32.0780   41.5840 C   0  0  0  0  0  0  0  0  0  0  0  0
   57.8420   31.8110   43.0320 N   0  0  0  0  0  0  0  0  0  0  0  0
   58.4110   32.7370   43.8590 C   0  0  0  0  0  0  0  0  0  0  0  0
   58.8520   33.8230   43.3850 O   0  0  0  0  0  0  0  0  0  0  0  0
   58.5130   32.4880   45.2330 C   0  0  0  0  0  0  0  0  0  0  0  0
   59.1290   33.4170   46.0920 C   0  0  0  0  0  0  0  0  0  0  0  0
   59.2560   33.1500   47.4510 C   0  0  0  0  0  0  0  0  0  0  0  0
   58.7890   31.9440   47.9830 C   0  0  0  0  0  0  0  0  0  0  0  0
   58.9510   31.6550   49.4280 C   0  0  0  0  0  0  0  0  0  0  0  0
   59.4900   32.5120   50.1800 O   0  0  0  0  0  0  0  0  0  0  0  0
   58.5530   30.3830   49.9630 N   0  0  0  0  0  0  0  0  0  0  0  0
   58.1980   30.1600   51.3390 C   0  0  0  0  0  0  0  0  0  0  0  0
   59.1680   29.8610   52.3100 C   0  0  0  0  0  0  0  0  0  0  0  0
   58.7980   29.6850   53.6450 C   0  0  0  0  0  0  0  0  0  0  0  0
   57.4620   29.8160   54.0270 C   0  0  0  0  0  0  0  0  0  0  0  0
   56.4770   30.1350   53.0760 C   0  0  0  0  0  0  0  0  0  0  0  0
   55.0560   30.2890   53.4820 C   0  0  0  0  0  0  0  0  0  0  0  0
   54.6490   29.9770   54.7930 C   0  0  0  0  0  0  0  0  0  0  0  0
   53.3120   30.1260   55.1730 C   0  0  0  0  0  0  0  0  0  0  0  0
   52.3680   30.5850   54.2530 C   0  0  0  0  0  0  0  0  0  0  0  0
   52.7580   30.8970   52.9470 C   0  0  0  0  0  0  0  0  0  0  0  0
   51.5710   31.4700   51.7900 Cl  0  0  0  0  0  0  0  0  0  0  0  0
   54.0960   30.7510   52.5630 C   0  0  0  0  0  0  0  0  0  0  0  0
   56.8590   30.3120   51.7330 C   0  0  0  0  0  0  0  0  0  0  0  0
   58.1550   31.0220   47.1340 C   0  0  0  0  0  0  0  0  0  0  0  0
   57.9870   31.2810   45.7490 C   0  0  0  0  0  0  0  0  0  0  0  0
   57.3310   30.4060   44.9020 N   0  0  0  0  0  0  0  0  0  0  0  0
   56.6590   29.1740   45.3910 C   0  0  0  0  0  0  0  0  0  0  0  0
   57.6060   27.9670   45.3700 C   0  0  0  0  0  0  0  0  0  0  0  0
   57.4480   27.1530   46.5770 N   0  0  0  0  0  0  0  0  0  0  0  0
   56.3980   25.7950   46.2940 S   0  0  0  0  0  0  0  0  0  0  0  0
   54.7830   26.3370   45.9990 N   0  0  0  0  0  0  0  0  0  0  0  0
   56.8880   25.0030   45.1130 O   0  0  0  0  0  0  0  0  0  0  0  0
   56.4050   24.9100   47.5080 O   0  0  0  0  0  0  0  0  0  0  0  0
   57.2830   30.6710   43.5510 C   0  0  0  0  0  0  0  0  0  0  0  0
   56.7110   29.8550   42.7720 O   0  0  0  0  0  0  0  0  0  0  0  0
  1  2  1  0
  2  3  1  0
  3  4  2  0
  3  5  1  0
  5  6  2  0
  6  7  1  0
  7  8  2  0
  8  9  1  0
  9 10  2  0
  9 11  1  0
 11 12  1  0
 12 13  2  0
 13 14  1  0
 14 15  2  0
 15 16  1  0
 16 17  1  0
 17 18  2  0
 18 19  1  0
 19 20  2  0
 20 21  1  0
 21 22  1  0
 21 23  2  0
 16 24  2  0
  8 25  1  0
 25 26  2  0
 26 27  1  0
 27 28  1  0
 28 29  1  0
 29 30  1  0
 30 31  1  0
 31 32  1  0
 31 33  2  0
 31 34  2  0
 27 35  1  0
 35 36  2  0
 35  2  1  0
 26  5  1  0
 24 12  1  0
 23 17  1  0
M  CHG  2  30  -1  32  -1
M  END
>  <UniqueID>  (929) 
13

>  <SMILES>  (929) 
Cn1c(=O)c2ccc(C(=O)Nc3cccc(-c4cccc(Cl)c4)c3)cc2n(CC[N-]S([NH-])(=O)=O)c1=O

>  <Energy>  (929) 
82.02781548779284

>  <Genealogy>  (929) 
Cn1c(=O)c2ccc(C(=O)Nc3cccc(-c4cccc(Cl)c4)c3)cc2n(CC[N-]S([NH-])(=O)=O)c1=O (protonated)
Cn1c(=O)c2ccc(C(=O)Nc3cccc(-c4cccc(Cl)c4)c3)cc2n(CC[N-]S([NH-])(=O)=O)c1=O (3D coordinates assigned)
Cn1c(=O)c2ccc(C(=O)Nc3cccc(-c4cccc(Cl)c4)c3)cc2n(CC[N-]S([NH-])(=O)=O)c1=O (optimized conformer: 82.02781548779284 kcal/mol)

>  <smiles>  (929) 
Cn1c(=O)c2ccc(C(=O)Nc3cccc(-c4cccc(Cl)c4)c3)cc2n(CCNS(N)(=O)=O)c1=O

>  <score_type>  (929) 
oracle

>  <origin>  (929) 
adg

>  <m_score__min__energy>  (929) 
-14.720000000000001

>  <m_primary>  (929) 
energy

$$$$
19:0
     RDKit          3D

 27 29  0  0  0  0  0  0  0  0999 V2000
   58.9940   27.8950   43.9380 O   0  0  0  0  0  0  0  0  0  0  0  0
   58.5450   28.5310   44.9290 C   0  0  0  0  0  0  0  0  0  0  0  0
   58.3770   27.8180   46.2390 C   0  0  0  0  0  0  0  0  0  0  0  0
   57.1740   26.9280   46.1770 C   0  0  0  0  0  0  0  0  0  0  0  0
   57.1500   25.6590   46.6230 N   0  0  0  0  0  0  0  0  0  0  0  0
   55.8660   25.2870   46.4290 C   0  0  0  0  0  0  0  0  0  0  0  0
   55.4410   24.1390   46.7240 O   0  0  0  0  0  0  0  0  0  0  0  0
   55.0710   26.2430   45.9000 N   0  0  0  0  0  0  0  0  0  0  0  0
   55.9150   27.2770   45.7520 C   0  0  0  0  0  0  0  0  0  0  0  0
   55.5390   28.5170   45.2480 O   0  0  0  0  0  0  0  0  0  0  0  0
   58.2500   29.9730   44.8010 C   0  0  0  0  0  0  0  0  0  0  0  0
   58.8900   30.8890   45.6530 C   0  0  0  0  0  0  0  0  0  0  0  0
   58.6270   32.2600   45.5640 C   0  0  0  0  0  0  0  0  0  0  0  0
   59.2900   33.1250   46.4490 O   0  0  0  0  0  0  0  0  0  0  0  0
   58.7920   33.5090   47.7260 C   0  0  0  0  0  0  0  0  0  0  0  0
   59.7270   34.5490   48.3430 C   0  0  0  0  0  0  0  0  0  0  0  0
   60.8690   33.8970   49.1330 C   0  0  0  0  0  0  0  0  0  0  0  0
   62.1800   34.2100   48.5140 N   0  0  0  0  0  0  0  0  0  0  0  0
   62.3200   33.6790   47.1410 C   0  0  0  0  0  0  0  0  0  0  0  0
   62.6080   32.1640   47.1170 C   0  0  0  0  0  0  0  0  0  0  0  0
   63.7570   31.8200   47.9640 N   0  0  0  0  0  0  0  0  0  0  0  0
   63.5490   32.2960   49.3360 C   0  0  0  0  0  0  0  0  0  0  0  0
   63.3240   33.8150   49.3610 C   0  0  0  0  0  0  0  0  0  0  0  0
   57.7130   32.7240   44.6020 C   0  0  0  0  0  0  0  0  0  0  0  0
   57.0720   31.8210   43.7500 C   0  0  0  0  0  0  0  0  0  0  0  0
   57.3320   30.4500   43.8420 C   0  0  0  0  0  0  0  0  0  0  0  0
   56.5320   29.3710   42.7040 Cl  0  0  0  0  0  0  0  0  0  0  0  0
  1  2  2  0
  2  3  1  0
  3  4  1  0
  4  5  1  0
  5  6  1  0
  6  7  2  0
  6  8  1  0
  8  9  1  0
  9 10  1  0
  2 11  1  0
 11 12  2  0
 12 13  1  0
 13 14  1  0
 14 15  1  0
 15 16  1  0
 16 17  1  0
 17 18  1  0
 18 19  1  0
 19 20  1  0
 20 21  1  0
 21 22  1  0
 22 23  1  0
 13 24  2  0
 24 25  1  0
 25 26  2  0
 26 27  1  0
  9  4  2  0
 26 11  1  0
 23 18  1  0
M  CHG  3   5  -1   8  -1  10  -1
M  END
>  <UniqueID>  (930) 
20

>  <SMILES>  (930) 
O=C(Cc1[n-]c(=O)[n-]c1[O-])c1cc(OCCCN2CCNCC2)ccc1Cl

>  <Energy>  (930) 
80.57282798531442

>  <Genealogy>  (930) 
O=C(Cc1[n-]c(=O)[n-]c1[O-])c1cc(OCCCN2CCNCC2)ccc1Cl (protonated)
O=C(Cc1[n-]c(=O)[n-]c1[O-])c1cc(OCCCN2CCNCC2)ccc1Cl (3D coordinates assigned)
O=C(Cc1[n-]c(=O)[n-]c1[O-])c1cc(OCCCN2CCNCC2)ccc1Cl (nonaromatic ring conformer: 80.57282798531442 kcal/mol)

>  <smiles>  (930) 
O=C(Cc1[nH]c(=O)[nH]c1O)c1cc(OCCCN2CCNCC2)ccc1Cl

>  <score_type>  (930) 
oracle

>  <origin>  (930) 
adg

>  <m_score__min__energy>  (930) 
-16.57

>  <m_primary>  (930) 
energy

$$$$
87:0
     RDKit          3D

 25 27  0  0  0  0  0  0  0  0999 V2000
   58.6190   30.3470   44.2080 C   0  0  0  0  0  0  0  0  0  0  0  0
   58.7140   30.1320   45.5290 C   0  0  0  0  0  0  0  0  0  0  0  0
   58.5230   28.9200   46.2120 C   0  0  0  0  0  0  0  0  0  0  0  0
   58.4040   27.6580   45.7580 C   0  0  0  0  0  0  0  0  0  0  0  0
   57.1980   26.8210   45.8610 C   0  0  0  0  0  0  0  0  0  0  0  0
   57.1760   25.5660   46.3480 N   0  0  0  0  0  0  0  0  0  0  0  0
   55.8590   25.2690   46.3800 C   0  0  0  0  0  0  0  0  0  0  0  0
   55.4250   24.1540   46.7700 O   0  0  0  0  0  0  0  0  0  0  0  0
   55.0420   26.2640   45.9730 N   0  0  0  0  0  0  0  0  0  0  0  0
   55.9070   27.2430   45.6620 C   0  0  0  0  0  0  0  0  0  0  0  0
   55.5230   28.4990   45.2110 O   0  0  0  0  0  0  0  0  0  0  0  0
   58.5050   29.2350   47.5630 C   0  0  0  0  0  0  0  0  0  0  0  0
   58.7440   30.5910   47.6600 C   0  0  0  0  0  0  0  0  0  0  0  0
   58.8710   31.3520   48.9430 C   0  0  0  0  0  0  0  0  0  0  0  0
   58.8910   31.1290   46.4310 N   0  0  0  0  0  0  0  0  0  0  0  0
   59.1020   32.5240   46.1540 C   0  0  0  0  0  0  0  0  0  0  0  0
   58.0620   33.2560   45.5640 C   0  0  0  0  0  0  0  0  0  0  0  0
   58.2070   34.6220   45.3210 C   0  0  0  0  0  0  0  0  0  0  0  0
   59.3900   35.2700   45.6700 C   0  0  0  0  0  0  0  0  0  0  0  0
   60.4350   34.5550   46.2570 C   0  0  0  0  0  0  0  0  0  0  0  0
   60.3140   33.1730   46.5050 C   0  0  0  0  0  0  0  0  0  0  0  0
   61.4560   32.4420   47.1120 C   0  0  0  0  0  0  0  0  0  0  0  0
   61.5820   31.2010   46.9160 O   0  0  0  0  0  0  0  0  0  0  0  0
   62.3830   33.1130   47.9150 O   0  0  0  0  0  0  0  0  0  0  0  0
   63.7840   33.0720   47.6780 C   0  0  0  0  0  0  0  0  0  0  0  0
  1  2  2  0
  2  3  1  0
  3  4  2  0
  4  5  1  0
  5  6  1  0
  6  7  1  0
  7  8  2  0
  7  9  1  0
  9 10  1  0
 10 11  1  0
  3 12  1  0
 12 13  2  0
 13 14  1  0
 13 15  1  0
 15 16  1  0
 16 17  2  0
 17 18  1  0
 18 19  2  0
 19 20  1  0
 20 21  2  0
 21 22  1  0
 22 23  2  0
 22 24  1  0
 24 25  1  0
 15  2  1  0
 21 16  1  0
 10  5  2  0
M  CHG  3   6  -1   9  -1  11  -1
M  END
>  <UniqueID>  (931) 
82

>  <SMILES>  (931) 
C=c1/c(=C\c2[n-]c(=O)[n-]c2[O-])cc(C)n1-c1ccccc1C(=O)OC

>  <Energy>  (931) 
115.69060343274087

>  <Genealogy>  (931) 
C=c1c(=Cc2[n-]c(=O)[n-]c2[O-])cc(C)n1-c1ccccc1C(=O)OC (protonated)
C=c1/c(=C\c2[n-]c(=O)[n-]c2[O-])cc(C)n1-c1ccccc1C(=O)OC (cis-trans isomerization)
C=c1/c(=C\c2[n-]c(=O)[n-]c2[O-])cc(C)n1-c1ccccc1C(=O)OC (3D coordinates assigned)
C=c1/c(=C\c2[n-]c(=O)[n-]c2[O-])cc(C)n1-c1ccccc1C(=O)OC (optimized conformer: 115.69060343274087 kcal/mol)

>  <smiles>  (931) 
C=c1c(=Cc2[nH]c(=O)[nH]c2O)cc(C)n1-c1ccccc1C(=O)OC

>  <score_type>  (931) 
oracle

>  <origin>  (931) 
adg

>  <m_score__min__energy>  (931) 
-15.26

>  <m_primary>  (931) 
energy

$$$$
25:0
     RDKit          3D

 39 43  0  0  0  0  0  0  0  0999 V2000
   57.9390   27.1060   42.5510 C   0  0  0  0  0  0  0  0  0  0  0  0
   58.1450   26.6170   43.7860 C   0  0  0  0  0  0  0  0  0  0  0  0
   57.4600   25.5430   44.3640 C   0  0  0  0  0  0  0  0  0  0  0  0
   56.4580   24.8200   43.8250 C   0  0  0  0  0  0  0  0  0  0  0  0
   55.3760   24.2000   44.6230 C   0  0  0  0  0  0  0  0  0  0  0  0
   54.5670   24.9560   45.4880 C   0  0  0  0  0  0  0  0  0  0  0  0
   54.7650   26.3240   45.6360 O   0  0  0  0  0  0  0  0  0  0  0  0
   53.5900   24.3440   46.2070 N   0  0  0  0  0  0  0  0  0  0  0  0
   53.3900   23.0050   46.1220 C   0  0  0  0  0  0  0  0  0  0  0  0
   52.4740   22.4620   46.7920 O   0  0  0  0  0  0  0  0  0  0  0  0
   54.1820   22.2480   45.3210 N   0  0  0  0  0  0  0  0  0  0  0  0
   55.1710   22.8110   44.5800 C   0  0  0  0  0  0  0  0  0  0  0  0
   55.8900   22.0760   43.8510 O   0  0  0  0  0  0  0  0  0  0  0  0
   57.9710   25.3970   45.6450 C   0  0  0  0  0  0  0  0  0  0  0  0
   58.9450   26.3610   45.7960 C   0  0  0  0  0  0  0  0  0  0  0  0
   59.7060   26.5980   47.0660 C   0  0  0  0  0  0  0  0  0  0  0  0
   59.0560   27.1090   44.6700 N   0  0  0  0  0  0  0  0  0  0  0  0
   59.9380   28.2780   44.5170 C   0  0  0  0  0  0  0  0  0  0  0  0
   59.7100   29.2650   45.6330 C   0  0  0  0  0  0  0  0  0  0  0  0
   60.6770   29.4410   46.6330 C   0  0  0  0  0  0  0  0  0  0  0  0
   60.4760   30.3680   47.6570 C   0  0  0  0  0  0  0  0  0  0  0  0
   59.2950   31.1340   47.7170 C   0  0  0  0  0  0  0  0  0  0  0  0
   59.1160   32.1140   48.8280 C   0  0  0  0  0  0  0  0  0  0  0  0
   59.1930   33.3470   48.5710 O   0  0  0  0  0  0  0  0  0  0  0  0
   58.8340   31.6990   50.1780 N   0  0  0  0  0  0  0  0  0  0  0  0
   59.0490   32.5510   51.3210 C   0  0  0  0  0  0  0  0  0  0  0  0
   57.9570   33.0490   52.0580 C   0  0  0  0  0  0  0  0  0  0  0  0
   58.1640   33.9150   53.1350 C   0  0  0  0  0  0  0  0  0  0  0  0
   59.4560   34.3090   53.4790 C   0  0  0  0  0  0  0  0  0  0  0  0
   60.5480   33.8400   52.7480 C   0  0  0  0  0  0  0  0  0  0  0  0
   60.3570   32.9620   51.6660 C   0  0  0  0  0  0  0  0  0  0  0  0
   61.4950   32.4770   50.9340 N   0  0  0  0  0  0  0  0  0  0  0  0
   62.0600   33.2920   49.8570 C   0  0  0  0  0  0  0  0  0  0  0  0
   63.5380   32.9350   49.6620 C   0  0  0  0  0  0  0  0  0  0  0  0
   63.7020   31.5370   49.5000 O   0  0  0  0  0  0  0  0  0  0  0  0
   63.3190   30.8660   50.6850 C   0  0  0  0  0  0  0  0  0  0  0  0
   61.8230   31.0500   50.9560 C   0  0  0  0  0  0  0  0  0  0  0  0
   58.3170   30.9370   46.7200 C   0  0  0  0  0  0  0  0  0  0  0  0
   58.5260   30.0160   45.6900 C   0  0  0  0  0  0  0  0  0  0  0  0
  1  2  2  0
  2  3  1  0
  3  4  2  0
  4  5  1  0
  5  6  2  0
  6  7  1  0
  6  8  1  0
  8  9  1  0
  9 10  2  0
  9 11  1  0
 11 12  1  0
 12 13  2  0
  3 14  1  0
 14 15  2  0
 15 16  1  0
 15 17  1  0
 17 18  1  0
 18 19  1  0
 19 20  2  0
 20 21  1  0
 21 22  2  0
 22 23  1  0
 23 24  2  0
 23 25  1  0
 25 26  1  0
 26 27  2  0
 27 28  1  0
 28 29  2  0
 29 30  1  0
 30 31  2  0
 31 32  1  0
 32 33  1  0
 33 34  1  0
 34 35  1  0
 35 36  1  0
 36 37  1  0
 22 38  1  0
 38 39  2  0
 17  2  1  0
 39 19  1  0
 12  5  1  0
 31 26  1  0
 37 32  1  0
M  CHG  3   7  -1   8  -1  11  -1
M  END
>  <UniqueID>  (932) 
24

>  <SMILES>  (932) 
C=c1/c(=C/c2c([O-])[n-]c(=O)[n-]c2=O)cc(C)n1Cc1ccc(C(=O)Nc2ccccc2N2CCOCC2)cc1

>  <Energy>  (932) 
121.47991016619653

>  <Genealogy>  (932) 
C=c1c(=Cc2c([O-])[n-]c(=O)[n-]c2=O)cc(C)n1Cc1ccc(C(=O)Nc2ccccc2N2CCOCC2)cc1 (protonated)
C=c1/c(=C/c2c([O-])[n-]c(=O)[n-]c2=O)cc(C)n1Cc1ccc(C(=O)Nc2ccccc2N2CCOCC2)cc1 (cis-trans isomerization)
C=c1/c(=C/c2c([O-])[n-]c(=O)[n-]c2=O)cc(C)n1Cc1ccc(C(=O)Nc2ccccc2N2CCOCC2)cc1 (3D coordinates assigned)
C=c1/c(=C/c2c([O-])[n-]c(=O)[n-]c2=O)cc(C)n1Cc1ccc(C(=O)Nc2ccccc2N2CCOCC2)cc1 (nonaromatic ring conformer: 121.47991016619653 kcal/mol)

>  <smiles>  (932) 
C=c1c(=Cc2c(O)[nH]c(=O)[nH]c2=O)cc(C)n1Cc1ccc(C(=O)Nc2ccccc2N2CCOCC2)cc1

>  <score_type>  (932) 
oracle

>  <origin>  (932) 
adg

>  <m_score__min__energy>  (932) 
-16.870000000000001

>  <m_primary>  (932) 
energy

$$$$
50:0
     RDKit          3D

 29 31  0  0  0  0  0  0  0  0999 V2000
   62.5430   33.8030   46.8940 C   0  0  0  0  0  0  0  0  0  0  0  0
   61.2220   33.6880   46.7900 C   0  0  0  0  0  0  0  0  0  0  0  0
   60.5450   33.9040   45.6360 N   0  0  0  0  0  0  0  0  0  0  0  0
   59.2590   33.6860   45.9860 C   0  0  0  0  0  0  0  0  0  0  0  0
   58.2150   33.7880   45.1540 C   0  0  0  0  0  0  0  0  0  0  0  0
   57.0230   32.8760   45.2380 C   0  0  0  0  0  0  0  0  0  0  0  0
   57.2920   31.5980   44.5040 C   0  0  0  0  0  0  0  0  0  0  0  0
   58.0990   31.5920   43.5350 O   0  0  0  0  0  0  0  0  0  0  0  0
   56.6220   30.3990   44.9070 N   0  0  0  0  0  0  0  0  0  0  0  0
   57.0470   29.0570   44.6330 C   0  0  0  0  0  0  0  0  0  0  0  0
   57.5420   28.6780   43.3710 C   0  0  0  0  0  0  0  0  0  0  0  0
   57.9690   27.3640   43.1500 C   0  0  0  0  0  0  0  0  0  0  0  0
   57.9230   26.4280   44.1880 C   0  0  0  0  0  0  0  0  0  0  0  0
   57.4630   26.8070   45.4570 C   0  0  0  0  0  0  0  0  0  0  0  0
   57.4020   25.6130   46.7930 S   0  0  0  0  0  0  0  0  0  0  0  0
   57.3820   24.1930   45.6880 C   0  0  0  0  0  0  0  0  0  0  0  0
   58.5850   23.6650   45.3290 N   0  0  0  0  0  0  0  0  0  0  0  0
   58.6910   22.5970   44.4960 C   0  0  0  0  0  0  0  0  0  0  0  0
   57.5440   22.0080   43.9700 C   0  0  0  0  0  0  0  0  0  0  0  0
   56.2940   22.5240   44.3120 C   0  0  0  0  0  0  0  0  0  0  0  0
   56.1910   23.6320   45.1670 C   0  0  0  0  0  0  0  0  0  0  0  0
   54.5730   24.2370   45.5550 S   0  0  0  0  0  0  0  0  0  0  0  0
   54.6160   25.9630   45.6530 N   0  0  0  0  0  0  0  0  0  0  0  0
   53.5710   23.8130   44.5160 O   0  0  0  0  0  0  0  0  0  0  0  0
   54.1340   23.6810   46.8840 O   0  0  0  0  0  0  0  0  0  0  0  0
   57.0210   28.1180   45.6710 C   0  0  0  0  0  0  0  0  0  0  0  0
   59.2200   33.3500   47.3210 C   0  0  0  0  0  0  0  0  0  0  0  0
   58.1930   33.0790   47.9980 O   0  0  0  0  0  0  0  0  0  0  0  0
   60.4390   33.3550   47.7970 O   0  0  0  0  0  0  0  0  0  0  0  0
  1  2  2  0
  2  3  1  0
  3  4  1  0
  4  5  2  3
  5  6  1  0
  6  7  1  0
  7  8  2  0
  7  9  1  0
  9 10  1  0
 10 11  2  0
 11 12  1  0
 12 13  2  0
 13 14  1  0
 14 15  1  0
 15 16  1  0
 16 17  2  0
 17 18  1  0
 18 19  2  0
 19 20  1  0
 20 21  2  0
 21 22  1  0
 22 23  1  0
 22 24  2  0
 22 25  2  0
 14 26  2  0
  4 27  1  0
 27 28  2  0
 27 29  1  0
 29  2  1  0
 26 10  1  0
 21 16  1  0
M  CHG  3   3  -1   9  -1  23  -1
M  END
>  <UniqueID>  (933) 
48

>  <SMILES>  (933) 
C=c1[n-]c(=CCC(=O)[N-]c2cccc(Sc3ncccc3S([NH-])(=O)=O)c2)c(=O)o1

>  <Energy>  (933) 
75.85593349021563

>  <Genealogy>  (933) 
C=c1[n-]c(=CCC(=O)[N-]c2cccc(Sc3ncccc3S([NH-])(=O)=O)c2)c(=O)o1 (protonated)
C=c1[n-]c(=CCC(=O)[N-]c2cccc(Sc3ncccc3S([NH-])(=O)=O)c2)c(=O)o1 (3D coordinates assigned)
C=c1[n-]c(=CCC(=O)[N-]c2cccc(Sc3ncccc3S([NH-])(=O)=O)c2)c(=O)o1 (optimized conformer: 75.85593349021563 kcal/mol)

>  <smiles>  (933) 
C=c1[nH]c(=CCC(=O)Nc2cccc(Sc3ncccc3S(N)(=O)=O)c2)c(=O)o1

>  <score_type>  (933) 
oracle

>  <origin>  (933) 
adg

>  <m_score__min__energy>  (933) 
-14.06

>  <m_primary>  (933) 
energy

$$$$
75:0
     RDKit          3D

 28 30  0  0  0  0  0  0  0  0999 V2000
   61.2300   25.7240   46.0110 O   0  0  0  0  0  0  0  0  0  0  0  0
   60.3070   26.4930   46.3910 C   0  0  0  0  0  0  0  0  0  0  0  0
   60.4400   27.9680   46.1780 C   0  0  0  0  0  0  0  0  0  0  0  0
   59.3210   28.4600   45.3590 N   0  0  0  0  0  0  0  0  0  0  0  0
   58.8560   27.6790   44.3360 C   0  0  0  0  0  0  0  0  0  0  0  0
   57.7870   28.0990   43.5470 C   0  0  0  0  0  0  0  0  0  0  0  0
   57.1730   29.3180   43.8170 C   0  0  0  0  0  0  0  0  0  0  0  0
   57.6180   30.1040   44.8890 C   0  0  0  0  0  0  0  0  0  0  0  0
   57.0190   31.3740   45.1930 N   0  0  0  0  0  0  0  0  0  0  0  0
   57.6060   32.6630   44.9740 C   0  0  0  0  0  0  0  0  0  0  0  0
   57.4150   33.2720   43.8860 O   0  0  0  0  0  0  0  0  0  0  0  0
   58.3390   33.3380   46.0670 C   0  0  0  0  0  0  0  0  0  0  0  0
   58.1950   32.8490   47.3790 C   0  0  0  0  0  0  0  0  0  0  0  0
   58.9210   33.4090   48.4310 C   0  0  0  0  0  0  0  0  0  0  0  0
   59.7970   34.4670   48.1910 C   0  0  0  0  0  0  0  0  0  0  0  0
   59.9340   34.9800   46.9000 C   0  0  0  0  0  0  0  0  0  0  0  0
   59.1980   34.4420   45.8370 C   0  0  0  0  0  0  0  0  0  0  0  0
   59.3180   35.0520   44.5870 O   0  0  0  0  0  0  0  0  0  0  0  0
   58.7150   29.6600   45.6460 C   0  0  0  0  0  0  0  0  0  0  0  0
   59.1310   30.3720   46.6030 O   0  0  0  0  0  0  0  0  0  0  0  0
   59.1380   25.9730   47.0380 N   0  0  0  0  0  0  0  0  0  0  0  0
   57.9550   25.4870   46.3870 C   0  0  0  0  0  0  0  0  0  0  0  0
   58.0130   24.2590   45.7150 C   0  0  0  0  0  0  0  0  0  0  0  0
   56.8760   23.7410   45.0860 C   0  0  0  0  0  0  0  0  0  0  0  0
   55.6670   24.4410   45.1400 C   0  0  0  0  0  0  0  0  0  0  0  0
   55.5920   25.6540   45.8320 C   0  0  0  0  0  0  0  0  0  0  0  0
   54.3860   26.3390   45.9000 O   0  0  0  0  0  0  0  0  0  0  0  0
   56.7290   26.1750   46.4590 C   0  0  0  0  0  0  0  0  0  0  0  0
  1  2  2  0
  2  3  1  0
  3  4  1  0
  4  5  1  0
  5  6  2  0
  6  7  1  0
  7  8  2  0
  8  9  1  0
  9 10  1  0
 10 11  2  0
 10 12  1  0
 12 13  2  0
 13 14  1  0
 14 15  2  0
 15 16  1  0
 16 17  2  0
 17 18  1  0
  8 19  1  0
 19 20  2  0
  2 21  1  0
 21 22  1  0
 22 23  2  0
 23 24  1  0
 24 25  2  0
 25 26  1  0
 26 27  1  0
 26 28  2  0
 19  4  1  0
 28 22  1  0
 17 12  1  0
M  CHG  3   9  -1  21  -1  27  -1
M  END
>  <UniqueID>  (934) 
70

>  <SMILES>  (934) 
O=C(Cn1cccc([N-]C(=O)c2ccccc2O)c1=O)[N-]c1cccc([O-])c1

>  <Energy>  (934) 
58.99086594388379

>  <Genealogy>  (934) 
O=C(Cn1cccc([N-]C(=O)c2ccccc2O)c1=O)[N-]c1cccc([O-])c1 (protonated)
O=C(Cn1cccc([N-]C(=O)c2ccccc2O)c1=O)[N-]c1cccc([O-])c1 (3D coordinates assigned)
O=C(Cn1cccc([N-]C(=O)c2ccccc2O)c1=O)[N-]c1cccc([O-])c1 (optimized conformer: 58.99086594388379 kcal/mol)

>  <smiles>  (934) 
O=C(Cn1cccc(NC(=O)c2ccccc2O)c1=O)Nc1cccc(O)c1

>  <score_type>  (934) 
oracle

>  <origin>  (934) 
adg

>  <m_score__min__energy>  (934) 
-14.5

>  <m_primary>  (934) 
energy

$$$$
76:0
     RDKit          3D

 35 38  0  0  0  0  0  0  0  0999 V2000
   55.7000   28.6010   45.2080 O   0  0  0  0  0  0  0  0  0  0  0  0
   56.1260   27.3370   45.6040 C   0  0  0  0  0  0  0  0  0  0  0  0
   55.2090   26.3600   45.8370 N   0  0  0  0  0  0  0  0  0  0  0  0
   55.5900   25.1250   46.2510 C   0  0  0  0  0  0  0  0  0  0  0  0
   54.7230   24.2360   46.4580 O   0  0  0  0  0  0  0  0  0  0  0  0
   56.9050   24.8480   46.4470 N   0  0  0  0  0  0  0  0  0  0  0  0
   57.8610   25.7880   46.2260 C   0  0  0  0  0  0  0  0  0  0  0  0
   59.0720   25.4990   46.4270 O   0  0  0  0  0  0  0  0  0  0  0  0
   57.4950   27.0640   45.7700 C   0  0  0  0  0  0  0  0  0  0  0  0
   58.5160   28.1130   45.5750 C   0  0  0  0  0  0  0  0  0  0  0  0
   58.2730   29.4070   45.2770 C   0  0  0  0  0  0  0  0  0  0  0  0
   57.9120   29.8160   44.0080 C   0  0  0  0  0  0  0  0  0  0  0  0
   57.8280   31.1910   44.0360 C   0  0  0  0  0  0  0  0  0  0  0  0
   57.4320   32.0200   42.8520 C   0  0  0  0  0  0  0  0  0  0  0  0
   58.0780   31.6600   45.2840 N   0  0  0  0  0  0  0  0  0  0  0  0
   57.9990   33.0730   45.6980 C   0  0  0  0  0  0  0  0  0  0  0  0
   59.1880   33.4570   46.5440 C   0  0  0  0  0  0  0  0  0  0  0  0
   60.4830   33.4370   46.0020 C   0  0  0  0  0  0  0  0  0  0  0  0
   61.5840   33.8040   46.7810 C   0  0  0  0  0  0  0  0  0  0  0  0
   61.4090   34.1780   48.1230 C   0  0  0  0  0  0  0  0  0  0  0  0
   62.5070   34.5770   48.9560 N   0  0  0  0  0  0  0  0  0  0  0  0
   63.2550   33.5870   50.1660 S   0  0  0  0  0  0  0  0  0  0  0  0
   63.0670   34.2300   51.5110 O   0  0  0  0  0  0  0  0  0  0  0  0
   64.7290   33.4900   49.8820 O   0  0  0  0  0  0  0  0  0  0  0  0
   62.5130   31.9910   50.1910 C   0  0  0  0  0  0  0  0  0  0  0  0
   62.3880   31.2780   51.3910 C   0  0  0  0  0  0  0  0  0  0  0  0
   61.7940   30.0110   51.3980 C   0  0  0  0  0  0  0  0  0  0  0  0
   61.3050   29.4500   50.2070 C   0  0  0  0  0  0  0  0  0  0  0  0
   60.6880   28.0850   50.2060 C   0  0  0  0  0  0  0  0  0  0  0  0
   61.4450   30.1600   49.0050 C   0  0  0  0  0  0  0  0  0  0  0  0
   62.0430   31.4250   48.9980 C   0  0  0  0  0  0  0  0  0  0  0  0
   60.1220   34.1730   48.6710 C   0  0  0  0  0  0  0  0  0  0  0  0
   59.0180   33.8300   47.8830 C   0  0  0  0  0  0  0  0  0  0  0  0
   58.3340   30.5710   46.0650 C   0  0  0  0  0  0  0  0  0  0  0  0
   58.5200   30.6280   47.3950 C   0  0  0  0  0  0  0  0  0  0  0  0
  1  2  1  0
  2  3  1  0
  3  4  1  0
  4  5  2  0
  4  6  1  0
  6  7  1  0
  7  8  2  0
  7  9  1  0
  9 10  1  0
 10 11  2  0
 11 12  1  0
 12 13  2  0
 13 14  1  0
 13 15  1  0
 15 16  1  0
 16 17  1  0
 17 18  2  0
 18 19  1  0
 19 20  2  0
 20 21  1  0
 21 22  1  0
 22 23  2  0
 22 24  2  0
 22 25  1  0
 25 26  2  0
 26 27  1  0
 27 28  2  0
 28 29  1  0
 28 30  1  0
 30 31  2  0
 20 32  1  0
 32 33  2  0
 15 34  1  0
 34 35  2  0
  9  2  2  0
 34 11  1  0
 33 17  1  0
 31 25  1  0
M  CHG  3   3  -1   6  -1  21  -1
M  END
>  <UniqueID>  (935) 
71

>  <SMILES>  (935) 
C=c1/c(=C\c2c(O)[n-]c(=O)[n-]c2=O)cc(C)n1Cc1ccc([N-]S(=O)(=O)c2ccc(C)cc2)cc1

>  <Energy>  (935) 
105.15394745821452

>  <Genealogy>  (935) 
C=c1c(=Cc2c(O)[n-]c(=O)[n-]c2=O)cc(C)n1Cc1ccc([N-]S(=O)(=O)c2ccc(C)cc2)cc1 (protonated)
C=c1/c(=C\c2c(O)[n-]c(=O)[n-]c2=O)cc(C)n1Cc1ccc([N-]S(=O)(=O)c2ccc(C)cc2)cc1 (cis-trans isomerization)
C=c1/c(=C\c2c(O)[n-]c(=O)[n-]c2=O)cc(C)n1Cc1ccc([N-]S(=O)(=O)c2ccc(C)cc2)cc1 (3D coordinates assigned)
C=c1/c(=C\c2c(O)[n-]c(=O)[n-]c2=O)cc(C)n1Cc1ccc([N-]S(=O)(=O)c2ccc(C)cc2)cc1 (optimized conformer: 105.15394745821452 kcal/mol)

>  <smiles>  (935) 
C=c1c(=Cc2c(O)[nH]c(=O)[nH]c2=O)cc(C)n1Cc1ccc(NS(=O)(=O)c2ccc(C)cc2)cc1

>  <score_type>  (935) 
oracle

>  <origin>  (935) 
adg

>  <m_score__min__energy>  (935) 
-15.23

>  <m_primary>  (935) 
energy

$$$$
88:0
     RDKit          3D

 31 33  0  0  0  0  0  0  0  0999 V2000
   55.2300   29.6620   43.0640 O   0  0  0  0  0  0  0  0  0  0  0  0
   55.9990   30.0310   43.9940 C   0  0  0  0  0  0  0  0  0  0  0  0
   56.9440   31.1660   43.7590 C   0  0  0  0  0  0  0  0  0  0  0  0
   57.6490   31.5040   44.9940 N   0  0  0  0  0  0  0  0  0  0  0  0
   58.2080   32.8080   45.2040 C   0  0  0  0  0  0  0  0  0  0  0  0
   58.2860   33.6140   44.2370 O   0  0  0  0  0  0  0  0  0  0  0  0
   58.7020   33.2190   46.5390 C   0  0  0  0  0  0  0  0  0  0  0  0
   59.1710   34.5290   46.7480 C   0  0  0  0  0  0  0  0  0  0  0  0
   59.6410   34.9210   48.0060 C   0  0  0  0  0  0  0  0  0  0  0  0
   59.6460   34.0130   49.0680 C   0  0  0  0  0  0  0  0  0  0  0  0
   59.1750   32.7070   48.8760 C   0  0  0  0  0  0  0  0  0  0  0  0
   59.1940   31.5370   50.1950 S   0  0  0  0  0  0  0  0  0  0  0  0
   58.9340   32.2200   51.5090 O   0  0  0  0  0  0  0  0  0  0  0  0
   58.1210   30.5140   49.9540 O   0  0  0  0  0  0  0  0  0  0  0  0
   60.7400   30.7440   50.2550 N   0  0  0  0  0  0  0  0  0  0  0  0
   61.2380   30.5230   48.9000 C   0  0  0  0  0  0  0  0  0  0  0  0
   62.0960   31.6860   48.4930 C   0  0  0  0  0  0  0  0  0  0  0  0
   62.9400   32.3090   49.4280 C   0  0  0  0  0  0  0  0  0  0  0  0
   63.7500   33.3810   49.0420 C   0  0  0  0  0  0  0  0  0  0  0  0
   63.7250   33.8380   47.7200 C   0  0  0  0  0  0  0  0  0  0  0  0
   62.8950   33.2160   46.7830 C   0  0  0  0  0  0  0  0  0  0  0  0
   62.0920   32.1350   47.1620 C   0  0  0  0  0  0  0  0  0  0  0  0
   58.6940   32.3180   47.6190 C   0  0  0  0  0  0  0  0  0  0  0  0
   56.0370   29.3210   45.2390 N   0  0  0  0  0  0  0  0  0  0  0  0
   56.8360   28.3580   45.6120 C   0  0  0  0  0  0  0  0  0  0  0  0
   58.1630   28.6460   45.7160 N   0  0  0  0  0  0  0  0  0  0  0  0
   59.0890   27.7180   46.0730 C   0  0  0  0  0  0  0  0  0  0  0  0
   58.6960   26.4100   46.3480 C   0  0  0  0  0  0  0  0  0  0  0  0
   57.3440   26.0770   46.2830 C   0  0  0  0  0  0  0  0  0  0  0  0
   56.3960   27.0470   45.9400 C   0  0  0  0  0  0  0  0  0  0  0  0
   55.0530   26.6990   45.9970 O   0  0  0  0  0  0  0  0  0  0  0  0
  1  2  2  0
  2  3  1  0
  3  4  1  0
  4  5  1  0
  5  6  2  0
  5  7  1  0
  7  8  2  0
  8  9  1  0
  9 10  2  0
 10 11  1  0
 11 12  1  0
 12 13  2  0
 12 14  2  0
 12 15  1  0
 15 16  1  0
 16 17  1  0
 17 18  2  0
 18 19  1  0
 19 20  2  0
 20 21  1  0
 21 22  2  0
 11 23  2  0
  2 24  1  0
 24 25  2  3
 25 26  1  0
 26 27  1  0
 27 28  2  0
 28 29  1  0
 29 30  2  0
 30 31  1  0
 23  7  1  0
 30 25  1  0
 22 17  1  0
M  CHG  3  15  -1  26  -1  31  -1
M  END
>  <UniqueID>  (936) 
83

>  <SMILES>  (936) 
O=C(CNC(=O)c1cccc(S(=O)(=O)[N-]Cc2ccccc2)c1)N=c1[n-]cccc1[O-]

>  <Energy>  (936) 
58.045932627107014

>  <Genealogy>  (936) 
O=C(CNC(=O)c1cccc(S(=O)(=O)[N-]Cc2ccccc2)c1)N=c1[n-]cccc1[O-] (protonated)
O=C(CNC(=O)c1cccc(S(=O)(=O)[N-]Cc2ccccc2)c1)N=c1[n-]cccc1[O-] (3D coordinates assigned)
O=C(CNC(=O)c1cccc(S(=O)(=O)[N-]Cc2ccccc2)c1)N=c1[n-]cccc1[O-] (optimized conformer: 58.045932627107014 kcal/mol)

>  <smiles>  (936) 
O=C(CNC(=O)c1cccc(S(=O)(=O)NCc2ccccc2)c1)N=c1[nH]cccc1O

>  <score_type>  (936) 
oracle

>  <origin>  (936) 
adg

>  <m_score__min__energy>  (936) 
-15.42

>  <m_primary>  (936) 
energy

$$$$
16:0
     RDKit          3D

 24 26  0  0  0  0  0  0  0  0999 V2000
   58.6810   26.9120   46.1990 C   0  0  0  0  0  0  0  0  0  0  0  0
   58.7960   28.2980   45.7060 C   0  0  0  0  0  0  0  0  0  0  0  0
   59.9330   28.7220   45.3620 O   0  0  0  0  0  0  0  0  0  0  0  0
   57.6600   29.1730   45.6430 N   0  0  0  0  0  0  0  0  0  0  0  0
   57.6850   30.4000   44.8990 C   0  0  0  0  0  0  0  0  0  0  0  0
   57.3380   30.3680   43.5430 C   0  0  0  0  0  0  0  0  0  0  0  0
   57.3340   31.5380   42.7850 C   0  0  0  0  0  0  0  0  0  0  0  0
   57.6890   32.7510   43.3710 C   0  0  0  0  0  0  0  0  0  0  0  0
   58.0590   32.8110   44.7230 C   0  0  0  0  0  0  0  0  0  0  0  0
   58.0870   31.6210   45.4960 C   0  0  0  0  0  0  0  0  0  0  0  0
   58.4970   31.6570   46.9560 C   0  0  0  0  0  0  0  0  0  0  0  0
   59.3080   32.9030   47.3170 C   0  0  0  0  0  0  0  0  0  0  0  0
   58.6010   34.1550   46.8050 C   0  0  0  0  0  0  0  0  0  0  0  0
   58.5330   34.1360   45.2770 C   0  0  0  0  0  0  0  0  0  0  0  0
   57.7590   26.5300   47.0920 C   0  0  0  0  0  0  0  0  0  0  0  0
   56.5410   25.7740   46.7120 C   0  0  0  0  0  0  0  0  0  0  0  0
   55.4830   26.3590   45.9860 C   0  0  0  0  0  0  0  0  0  0  0  0
   55.5210   27.6970   45.6120 O   0  0  0  0  0  0  0  0  0  0  0  0
   54.3880   25.6200   45.6700 N   0  0  0  0  0  0  0  0  0  0  0  0
   54.2810   24.3230   46.0540 C   0  0  0  0  0  0  0  0  0  0  0  0
   53.2570   23.6600   45.7450 O   0  0  0  0  0  0  0  0  0  0  0  0
   55.2710   23.7450   46.7770 N   0  0  0  0  0  0  0  0  0  0  0  0
   56.3890   24.4360   47.1180 C   0  0  0  0  0  0  0  0  0  0  0  0
   57.2880   23.8620   47.7900 O   0  0  0  0  0  0  0  0  0  0  0  0
  1  2  1  0
  2  3  2  0
  2  4  1  0
  4  5  1  0
  5  6  2  0
  6  7  1  0
  7  8  2  0
  8  9  1  0
  9 10  2  0
 10 11  1  0
 11 12  1  0
 12 13  1  0
 13 14  1  0
  1 15  2  0
 15 16  1  0
 16 17  2  0
 17 18  1  0
 17 19  1  0
 19 20  1  0
 20 21  2  0
 20 22  1  0
 22 23  1  0
 23 24  2  0
 10  5  1  0
 23 16  1  0
 14  9  1  0
M  CHG  3  18  -1  19  -1  22  -1
M  END
>  <UniqueID>  (937) 
16

>  <SMILES>  (937) 
O=C(/C=C/c1c([O-])[n-]c(=O)[n-]c1=O)Nc1cccc2c1CCCC2

>  <Energy>  (937) 
52.79980539716219

>  <Genealogy>  (937) 
O=C(C=Cc1c([O-])[n-]c(=O)[n-]c1=O)Nc1cccc2c1CCCC2 (protonated)
O=C(/C=C/c1c([O-])[n-]c(=O)[n-]c1=O)Nc1cccc2c1CCCC2 (cis-trans isomerization)
O=C(/C=C/c1c([O-])[n-]c(=O)[n-]c1=O)Nc1cccc2c1CCCC2 (3D coordinates assigned)
O=C(/C=C/c1c([O-])[n-]c(=O)[n-]c1=O)Nc1cccc2c1CCCC2 (nonaromatic ring conformer: 52.79980539716219 kcal/mol)

>  <smiles>  (937) 
O=C(C=Cc1c(O)[nH]c(=O)[nH]c1=O)Nc1cccc2c1CCCC2

>  <score_type>  (937) 
oracle

>  <origin>  (937) 
adg

>  <m_score__min__energy>  (937) 
-15.65

>  <m_primary>  (937) 
energy

$$$$
30:0
     RDKit          3D

 29 31  0  0  0  0  0  0  0  0999 V2000
   58.9610   28.1330   47.8500 C   0  0  0  0  0  0  0  0  0  0  0  0
   58.6100   29.0250   46.9120 C   0  0  0  0  0  0  0  0  0  0  0  0
   57.8310   28.8070   45.7670 C   0  0  0  0  0  0  0  0  0  0  0  0
   57.3750   27.6670   45.2060 C   0  0  0  0  0  0  0  0  0  0  0  0
   57.2060   26.3780   45.9050 C   0  0  0  0  0  0  0  0  0  0  0  0
   55.9270   25.9260   46.2560 C   0  0  0  0  0  0  0  0  0  0  0  0
   54.8050   26.7100   46.0060 O   0  0  0  0  0  0  0  0  0  0  0  0
   55.7750   24.7170   46.8540 N   0  0  0  0  0  0  0  0  0  0  0  0
   56.8450   23.9220   47.1090 C   0  0  0  0  0  0  0  0  0  0  0  0
   56.6810   22.8060   47.6680 O   0  0  0  0  0  0  0  0  0  0  0  0
   58.0930   24.3250   46.7550 N   0  0  0  0  0  0  0  0  0  0  0  0
   58.2980   25.5250   46.1530 C   0  0  0  0  0  0  0  0  0  0  0  0
   59.4660   25.8560   45.8170 O   0  0  0  0  0  0  0  0  0  0  0  0
   57.6080   30.0840   45.2630 C   0  0  0  0  0  0  0  0  0  0  0  0
   56.8340   30.4440   44.0340 C   0  0  0  0  0  0  0  0  0  0  0  0
   58.2490   30.9950   46.0180 N   0  0  0  0  0  0  0  0  0  0  0  0
   58.8660   30.3560   46.9990 N   0  0  0  0  0  0  0  0  0  0  0  0
   59.6430   31.0620   48.0220 C   0  0  0  0  0  0  0  0  0  0  0  0
   61.0140   31.4380   47.5150 C   0  0  0  0  0  0  0  0  0  0  0  0
   61.7780   30.5080   47.1340 O   0  0  0  0  0  0  0  0  0  0  0  0
   61.4810   32.8070   47.4790 N   0  0  0  0  0  0  0  0  0  0  0  0
   62.8670   33.1270   47.1200 C   0  0  0  0  0  0  0  0  0  0  0  0
   60.5500   33.9020   47.7890 C   0  0  0  0  0  0  0  0  0  0  0  0
   59.4370   33.9450   46.7750 C   0  0  0  0  0  0  0  0  0  0  0  0
   58.1050   33.7670   47.1840 C   0  0  0  0  0  0  0  0  0  0  0  0
   57.0650   33.8310   46.2500 C   0  0  0  0  0  0  0  0  0  0  0  0
   57.3490   34.0760   44.9050 C   0  0  0  0  0  0  0  0  0  0  0  0
   58.6710   34.2570   44.4890 C   0  0  0  0  0  0  0  0  0  0  0  0
   59.7130   34.1930   45.4190 C   0  0  0  0  0  0  0  0  0  0  0  0
  1  2  2  0
  2  3  1  0
  3  4  2  0
  4  5  1  0
  5  6  2  0
  6  7  1  0
  6  8  1  0
  8  9  1  0
  9 10  2  0
  9 11  1  0
 11 12  1  0
 12 13  2  0
  3 14  1  0
 14 15  1  0
 14 16  2  0
 16 17  1  0
 17 18  1  0
 18 19  1  0
 19 20  2  0
 19 21  1  0
 21 22  1  0
 21 23  1  0
 23 24  1  0
 24 25  2  0
 25 26  1  0
 26 27  2  0
 27 28  1  0
 28 29  2  0
 17  2  1  0
 29 24  1  0
 12  5  1  0
M  CHG  3   7  -1   8  -1  11  -1
M  END
>  <UniqueID>  (938) 
29

>  <SMILES>  (938) 
C=c1/c(=C\c2c([O-])[n-]c(=O)[n-]c2=O)c(C)nn1CC(=O)N(C)Cc1ccccc1

>  <Energy>  (938) 
92.40203238964435

>  <Genealogy>  (938) 
C=c1c(=Cc2c([O-])[n-]c(=O)[n-]c2=O)c(C)nn1CC(=O)N(C)Cc1ccccc1 (protonated)
C=c1/c(=C\c2c([O-])[n-]c(=O)[n-]c2=O)c(C)nn1CC(=O)N(C)Cc1ccccc1 (cis-trans isomerization)
C=c1/c(=C\c2c([O-])[n-]c(=O)[n-]c2=O)c(C)nn1CC(=O)N(C)Cc1ccccc1 (3D coordinates assigned)
C=c1/c(=C\c2c([O-])[n-]c(=O)[n-]c2=O)c(C)nn1CC(=O)N(C)Cc1ccccc1 (optimized conformer: 92.40203238964435 kcal/mol)

>  <smiles>  (938) 
C=c1c(=Cc2c(O)[nH]c(=O)[nH]c2=O)c(C)nn1CC(=O)N(C)Cc1ccccc1

>  <score_type>  (938) 
oracle

>  <origin>  (938) 
adg

>  <m_score__min__energy>  (938) 
-16.800000000000001

>  <m_primary>  (938) 
energy

$$$$
35:0
     RDKit          3D

 24 25  0  0  0  0  0  0  0  0999 V2000
   58.7670   30.7100   49.8000 C   0  0  0  0  0  0  0  0  0  0  0  0
   59.1020   30.0140   48.4800 C   0  0  0  0  0  0  0  0  0  0  0  0
   60.5970   30.1170   48.1260 C   0  0  0  0  0  0  0  0  0  0  0  0
   61.0120   31.4540   47.5590 C   0  0  0  0  0  0  0  0  0  0  0  0
   62.3600   31.8310   47.5840 C   0  0  0  0  0  0  0  0  0  0  0  0
   62.7210   33.0650   47.0380 C   0  0  0  0  0  0  0  0  0  0  0  0
   63.9250   33.4300   47.0400 O   0  0  0  0  0  0  0  0  0  0  0  0
   61.7700   33.8730   46.5010 N   0  0  0  0  0  0  0  0  0  0  0  0
   60.4650   33.4990   46.4890 C   0  0  0  0  0  0  0  0  0  0  0  0
   59.2240   34.5720   45.7710 S   0  0  0  0  0  0  0  0  0  0  0  0
   58.8870   33.4880   44.3380 C   0  0  0  0  0  0  0  0  0  0  0  0
   57.9860   32.3490   44.7170 C   0  0  0  0  0  0  0  0  0  0  0  0
   57.0510   32.5480   45.5400 O   0  0  0  0  0  0  0  0  0  0  0  0
   58.2080   31.0410   44.1690 N   0  0  0  0  0  0  0  0  0  0  0  0
   57.5650   29.8680   44.6950 C   0  0  0  0  0  0  0  0  0  0  0  0
   58.3060   28.7660   45.1840 C   0  0  0  0  0  0  0  0  0  0  0  0
   59.8100   28.7770   45.2520 C   0  0  0  0  0  0  0  0  0  0  0  0
   57.6200   27.6240   45.6230 C   0  0  0  0  0  0  0  0  0  0  0  0
   56.2250   27.6110   45.6250 C   0  0  0  0  0  0  0  0  0  0  0  0
   55.5390   26.4870   46.0650 O   0  0  0  0  0  0  0  0  0  0  0  0
   55.5330   28.7020   45.2060 N   0  0  0  0  0  0  0  0  0  0  0  0
   56.1610   29.8190   44.7550 C   0  0  0  0  0  0  0  0  0  0  0  0
   55.4720   30.8050   44.3810 O   0  0  0  0  0  0  0  0  0  0  0  0
   60.0970   32.3040   47.0190 N   0  0  0  0  0  0  0  0  0  0  0  0
  1  2  1  0
  2  3  1  0
  3  4  1  0
  4  5  2  0
  5  6  1  0
  6  7  2  0
  6  8  1  0
  8  9  1  0
  9 10  1  0
 10 11  1  0
 11 12  1  0
 12 13  2  0
 12 14  1  0
 14 15  1  0
 15 16  2  0
 16 17  1  0
 16 18  1  0
 18 19  2  0
 19 20  1  0
 19 21  1  0
 21 22  1  0
 22 23  2  0
  9 24  2  0
 24  4  1  0
 22 15  1  0
M  CHG  3   8  -1  20  -1  21  -1
M  END
>  <UniqueID>  (939) 
34

>  <SMILES>  (939) 
CCCc1cc(=O)[n-]c(SCC(=O)Nc2c(C)cc([O-])[n-]c2=O)n1

>  <Energy>  (939) 
36.94547528791998

>  <Genealogy>  (939) 
CCCc1cc(=O)[n-]c(SCC(=O)Nc2c(C)cc([O-])[n-]c2=O)n1 (protonated)
CCCc1cc(=O)[n-]c(SCC(=O)Nc2c(C)cc([O-])[n-]c2=O)n1 (3D coordinates assigned)
CCCc1cc(=O)[n-]c(SCC(=O)Nc2c(C)cc([O-])[n-]c2=O)n1 (optimized conformer: 36.94547528791998 kcal/mol)

>  <smiles>  (939) 
CCCc1cc(=O)[nH]c(SCC(=O)Nc2c(C)cc(O)[nH]c2=O)n1

>  <score_type>  (939) 
oracle

>  <origin>  (939) 
adg

>  <m_score__min__energy>  (939) 
-14.220000000000001

>  <m_primary>  (939) 
energy

$$$$
57:0
     RDKit          3D

 31 34  0  0  0  0  0  0  0  0999 V2000
   61.8140   33.4320   51.9590 C   0  0  0  0  0  0  0  0  0  0  0  0
   61.4440   33.8820   50.7300 N   0  0  0  0  0  0  0  0  0  0  0  0
   60.1430   34.1310   50.4120 C   0  0  0  0  0  0  0  0  0  0  0  0
   59.7970   34.5590   49.2280 N   0  0  0  0  0  0  0  0  0  0  0  0
   59.5810   33.8100   47.9740 C   0  0  0  0  0  0  0  0  0  0  0  0
   60.9280   33.1300   47.6430 C   0  0  0  0  0  0  0  0  0  0  0  0
   61.0660   31.7470   47.8930 C   0  0  0  0  0  0  0  0  0  0  0  0
   62.2690   31.0830   47.6390 C   0  0  0  0  0  0  0  0  0  0  0  0
   63.3610   31.7840   47.1310 C   0  0  0  0  0  0  0  0  0  0  0  0
   63.2530   33.1490   46.8750 C   0  0  0  0  0  0  0  0  0  0  0  0
   62.0520   33.8190   47.1230 C   0  0  0  0  0  0  0  0  0  0  0  0
   58.4070   32.7970   48.1640 C   0  0  0  0  0  0  0  0  0  0  0  0
   57.7690   32.3530   46.8290 C   0  0  0  0  0  0  0  0  0  0  0  0
   58.6860   32.5860   45.6950 N   0  0  0  0  0  0  0  0  0  0  0  0
   58.1930   31.9480   44.4580 C   0  0  0  0  0  0  0  0  0  0  0  0
   57.5360   30.6370   44.7880 C   0  0  0  0  0  0  0  0  0  0  0  0
   56.2220   30.3640   44.3940 C   0  0  0  0  0  0  0  0  0  0  0  0
   55.6510   29.1720   44.7050 N   0  0  0  0  0  0  0  0  0  0  0  0
   56.3030   28.1980   45.4000 C   0  0  0  0  0  0  0  0  0  0  0  0
   55.6630   27.0810   45.6200 N   0  0  0  0  0  0  0  0  0  0  0  0
   56.1830   25.7550   45.7890 C   0  0  0  0  0  0  0  0  0  0  0  0
   55.5000   24.8650   46.3630 O   0  0  0  0  0  0  0  0  0  0  0  0
   57.5270   25.4730   45.4060 N   0  0  0  0  0  0  0  0  0  0  0  0
   57.6150   28.4630   45.8680 C   0  0  0  0  0  0  0  0  0  0  0  0
   58.3020   27.5900   46.7010 O   0  0  0  0  0  0  0  0  0  0  0  0
   58.2260   29.6740   45.5330 C   0  0  0  0  0  0  0  0  0  0  0  0
   58.9260   34.0290   45.4890 C   0  0  0  0  0  0  0  0  0  0  0  0
   59.2120   34.7760   46.8120 C   0  0  0  0  0  0  0  0  0  0  0  0
   59.1490   33.9240   51.3760 C   0  0  0  0  0  0  0  0  0  0  0  0
   59.5070   33.4620   52.6450 C   0  0  0  0  0  0  0  0  0  0  0  0
   60.8470   33.2120   52.9420 C   0  0  0  0  0  0  0  0  0  0  0  0
  1  2  1  0
  2  3  1  0
  3  4  2  0
  4  5  1  0
  5  6  1  0
  6  7  2  0
  7  8  1  0
  8  9  2  0
  9 10  1  0
 10 11  2  0
  5 12  1  0
 12 13  1  0
 13 14  1  0
 14 15  1  0
 15 16  1  0
 16 17  2  0
 17 18  1  0
 18 19  1  0
 19 20  2  3
 20 21  1  0
 21 22  2  0
 21 23  1  0
 19 24  1  0
 24 25  1  0
 24 26  2  0
 14 27  1  0
 27 28  1  0
  3 29  1  0
 29 30  2  0
 30 31  1  0
 31  1  2  0
 28  5  1  0
 11  6  1  0
 26 16  1  0
M  CHG  3   2  -1  18  -1  25  -1
M  END
>  <UniqueID>  (940) 
54

>  <SMILES>  (940) 
NC(=O)N=c1[n-]cc(CN2CCC(/N=c3/cccc[n-]3)(c3ccccc3)CC2)cc1[O-]

>  <Energy>  (940) 
85.18174328160015

>  <Genealogy>  (940) 
NC(=O)N=c1[n-]cc(CN2CCC(N=c3cccc[n-]3)(c3ccccc3)CC2)cc1[O-] (protonated)
NC(=O)N=c1[n-]cc(CN2CCC(/N=c3/cccc[n-]3)(c3ccccc3)CC2)cc1[O-] (cis-trans isomerization)
NC(=O)N=c1[n-]cc(CN2CCC(/N=c3/cccc[n-]3)(c3ccccc3)CC2)cc1[O-] (3D coordinates assigned)
NC(=O)N=c1[n-]cc(CN2CCC(/N=c3/cccc[n-]3)(c3ccccc3)CC2)cc1[O-] (nonaromatic ring conformer: 85.18174328160015 kcal/mol)

>  <smiles>  (940) 
NC(=O)N=c1[nH]cc(CN2CCC(N=c3cccc[nH]3)(c3ccccc3)CC2)cc1O

>  <score_type>  (940) 
oracle

>  <origin>  (940) 
adg

>  <m_score__min__energy>  (940) 
-14.710000000000001

>  <m_primary>  (940) 
energy

$$$$
67:0
     RDKit          3D

 35 38  0  0  0  0  0  0  0  0999 V2000
   54.3900   26.2180   45.9520 O   0  0  0  0  0  0  0  0  0  0  0  0
   54.1990   24.8390   45.8480 C   0  0  0  0  0  0  0  0  0  0  0  0
   52.9860   24.3800   45.4410 N   0  0  0  0  0  0  0  0  0  0  0  0
   52.7450   23.0530   45.3000 C   0  0  0  0  0  0  0  0  0  0  0  0
   51.6120   22.6580   44.9230 O   0  0  0  0  0  0  0  0  0  0  0  0
   53.7270   22.1520   45.5610 N   0  0  0  0  0  0  0  0  0  0  0  0
   54.9560   22.5530   45.9730 C   0  0  0  0  0  0  0  0  0  0  0  0
   55.8430   21.6880   46.2050 O   0  0  0  0  0  0  0  0  0  0  0  0
   55.2260   23.9190   46.1480 C   0  0  0  0  0  0  0  0  0  0  0  0
   56.5720   24.3600   46.5600 C   0  0  0  0  0  0  0  0  0  0  0  0
   57.3510   25.2440   45.9030 C   0  0  0  0  0  0  0  0  0  0  0  0
   57.1830   25.5210   44.5590 C   0  0  0  0  0  0  0  0  0  0  0  0
   58.0960   26.4980   44.2320 C   0  0  0  0  0  0  0  0  0  0  0  0
   58.2060   27.1310   42.8770 C   0  0  0  0  0  0  0  0  0  0  0  0
   58.8310   26.8460   45.3130 N   0  0  0  0  0  0  0  0  0  0  0  0
   59.8870   27.8720   45.3180 C   0  0  0  0  0  0  0  0  0  0  0  0
   59.3050   29.2530   45.5040 C   0  0  0  0  0  0  0  0  0  0  0  0
   59.3900   29.8900   46.7520 C   0  0  0  0  0  0  0  0  0  0  0  0
   58.8790   31.1780   46.9280 C   0  0  0  0  0  0  0  0  0  0  0  0
   58.2760   31.8600   45.8540 C   0  0  0  0  0  0  0  0  0  0  0  0
   57.7400   33.2290   46.0410 C   0  0  0  0  0  0  0  0  0  0  0  0
   56.8700   33.4510   46.9280 O   0  0  0  0  0  0  0  0  0  0  0  0
   58.2120   34.3050   45.2220 N   0  0  0  0  0  0  0  0  0  0  0  0
   59.3520   35.1480   45.5700 C   0  0  0  0  0  0  0  0  0  0  0  0
   60.1520   34.5130   46.6760 C   0  0  0  0  0  0  0  0  0  0  0  0
   59.7190   34.6200   48.0060 C   0  0  0  0  0  0  0  0  0  0  0  0
   60.4460   34.0160   49.0360 C   0  0  0  0  0  0  0  0  0  0  0  0
   61.6080   33.2830   48.7460 C   0  0  0  0  0  0  0  0  0  0  0  0
   62.4070   32.6660   49.8550 C   0  0  0  0  0  0  0  0  0  0  0  0
   62.0460   33.1840   47.4170 C   0  0  0  0  0  0  0  0  0  0  0  0
   61.3200   33.7880   46.3890 C   0  0  0  0  0  0  0  0  0  0  0  0
   58.1970   31.2230   44.6050 C   0  0  0  0  0  0  0  0  0  0  0  0
   58.7120   29.9350   44.4300 C   0  0  0  0  0  0  0  0  0  0  0  0
   58.4070   26.0620   46.3450 C   0  0  0  0  0  0  0  0  0  0  0  0
   58.9840   26.0520   47.5590 C   0  0  0  0  0  0  0  0  0  0  0  0
  1  2  1  0
  2  3  1  0
  3  4  1  0
  4  5  2  0
  4  6  1  0
  6  7  1  0
  7  8  2  0
  7  9  1  0
  9 10  1  0
 10 11  2  0
 11 12  1  0
 12 13  2  0
 13 14  1  0
 13 15  1  0
 15 16  1  0
 16 17  1  0
 17 18  2  0
 18 19  1  0
 19 20  2  0
 20 21  1  0
 21 22  2  0
 21 23  1  0
 23 24  1  0
 24 25  1  0
 25 26  2  0
 26 27  1  0
 27 28  2  0
 28 29  1  0
 28 30  1  0
 30 31  2  0
 20 32  1  0
 32 33  2  0
 15 34  1  0
 34 35  2  0
  9  2  2  0
 34 11  1  0
 33 17  1  0
 31 25  1  0
M  CHG  3   3  -1   6  -1  23  -1
M  END
>  <UniqueID>  (941) 
63

>  <SMILES>  (941) 
C=c1/c(=C\c2c(O)[n-]c(=O)[n-]c2=O)cc(C)n1Cc1ccc(C(=O)[N-]Cc2ccc(C)cc2)cc1

>  <Energy>  (941) 
103.38205151426821

>  <Genealogy>  (941) 
C=c1c(=Cc2c(O)[n-]c(=O)[n-]c2=O)cc(C)n1Cc1ccc(C(=O)[N-]Cc2ccc(C)cc2)cc1 (protonated)
C=c1/c(=C\c2c(O)[n-]c(=O)[n-]c2=O)cc(C)n1Cc1ccc(C(=O)[N-]Cc2ccc(C)cc2)cc1 (cis-trans isomerization)
C=c1/c(=C\c2c(O)[n-]c(=O)[n-]c2=O)cc(C)n1Cc1ccc(C(=O)[N-]Cc2ccc(C)cc2)cc1 (3D coordinates assigned)
C=c1/c(=C\c2c(O)[n-]c(=O)[n-]c2=O)cc(C)n1Cc1ccc(C(=O)[N-]Cc2ccc(C)cc2)cc1 (optimized conformer: 103.38205151426821 kcal/mol)

>  <smiles>  (941) 
C=c1c(=Cc2c(O)[nH]c(=O)[nH]c2=O)cc(C)n1Cc1ccc(C(=O)NCc2ccc(C)cc2)cc1

>  <score_type>  (941) 
oracle

>  <origin>  (941) 
adg

>  <m_score__min__energy>  (941) 
-15.34

>  <m_primary>  (941) 
energy

$$$$
68:0
     RDKit          3D

 22 23  0  0  0  0  0  0  0  0999 V2000
   55.1080   29.6440   44.7590 N   0  0  0  0  0  0  0  0  0  0  0  0
   56.2420   30.3740   44.2920 C   0  0  0  0  0  0  0  0  0  0  0  0
   56.3890   31.5800   44.6250 O   0  0  0  0  0  0  0  0  0  0  0  0
   57.2420   29.7290   43.3810 C   0  0  0  0  0  0  0  0  0  0  0  0
   58.7770   29.3340   44.2890 S   0  0  0  0  0  0  0  0  0  0  0  0
   58.0720   27.9500   45.1790 C   0  0  0  0  0  0  0  0  0  0  0  0
   58.8850   27.0620   45.8050 N   0  0  0  0  0  0  0  0  0  0  0  0
   58.3730   26.0060   46.4880 C   0  0  0  0  0  0  0  0  0  0  0  0
   59.1530   25.2030   47.0650 O   0  0  0  0  0  0  0  0  0  0  0  0
   56.9870   25.8100   46.5420 C   0  0  0  0  0  0  0  0  0  0  0  0
   56.4550   24.7010   47.2810 N   0  0  0  0  0  0  0  0  0  0  0  0
   56.8100   23.3260   47.0910 C   0  0  0  0  0  0  0  0  0  0  0  0
   57.1140   22.6070   48.0810 O   0  0  0  0  0  0  0  0  0  0  0  0
   56.7670   22.7470   45.7360 C   0  0  0  0  0  0  0  0  0  0  0  0
   56.5140   23.5470   44.6080 C   0  0  0  0  0  0  0  0  0  0  0  0
   56.4810   22.9560   43.3420 C   0  0  0  0  0  0  0  0  0  0  0  0
   56.6980   21.5850   43.2090 C   0  0  0  0  0  0  0  0  0  0  0  0
   56.9470   20.8190   44.3490 C   0  0  0  0  0  0  0  0  0  0  0  0
   56.9750   21.4100   45.5730 N   0  0  0  0  0  0  0  0  0  0  0  0
   56.1640   26.7620   45.9140 C   0  0  0  0  0  0  0  0  0  0  0  0
   54.7790   26.6830   46.0020 O   0  0  0  0  0  0  0  0  0  0  0  0
   56.7250   27.7990   45.2400 N   0  0  0  0  0  0  0  0  0  0  0  0
  1  2  1  0
  2  3  2  0
  2  4  1  0
  4  5  1  0
  5  6  1  0
  6  7  2  0
  7  8  1  0
  8  9  2  0
  8 10  1  0
 10 11  1  0
 11 12  1  0
 12 13  2  0
 12 14  1  0
 14 15  2  0
 15 16  1  0
 16 17  2  0
 17 18  1  0
 18 19  2  0
 10 20  2  0
 20 21  1  0
 20 22  1  0
 22  6  1  0
 19 14  1  0
M  CHG  3  11  -1  21  -1  22  -1
M  END
>  <UniqueID>  (942) 
64

>  <SMILES>  (942) 
NC(=O)CSc1nc(=O)c([N-]C(=O)c2ccccn2)c([O-])[n-]1

>  <Energy>  (942) 
31.867734979730997

>  <Genealogy>  (942) 
NC(=O)CSc1nc(=O)c([N-]C(=O)c2ccccn2)c([O-])[n-]1 (protonated)
NC(=O)CSc1nc(=O)c([N-]C(=O)c2ccccn2)c([O-])[n-]1 (3D coordinates assigned)
NC(=O)CSc1nc(=O)c([N-]C(=O)c2ccccn2)c([O-])[n-]1 (optimized conformer: 31.867734979730997 kcal/mol)

>  <smiles>  (942) 
NC(=O)CSc1nc(=O)c(NC(=O)c2ccccn2)c(O)[nH]1

>  <score_type>  (942) 
oracle

>  <origin>  (942) 
adg

>  <m_score__min__energy>  (942) 
-14.98

>  <m_primary>  (942) 
energy

$$$$
72:0
     RDKit          3D

 27 29  0  0  0  0  0  0  0  0999 V2000
   57.8960   26.8440   45.2510 C   0  0  0  0  0  0  0  0  0  0  0  0
   56.5960   27.2290   45.6170 C   0  0  0  0  0  0  0  0  0  0  0  0
   55.7000   26.3350   46.2210 O   0  0  0  0  0  0  0  0  0  0  0  0
   55.1380   25.2080   45.6060 C   0  0  0  0  0  0  0  0  0  0  0  0
   53.8520   24.8770   45.8980 N   0  0  0  0  0  0  0  0  0  0  0  0
   53.2600   23.7850   45.3460 C   0  0  0  0  0  0  0  0  0  0  0  0
   52.0660   23.5070   45.6270 O   0  0  0  0  0  0  0  0  0  0  0  0
   53.9580   22.9920   44.4920 N   0  0  0  0  0  0  0  0  0  0  0  0
   55.2500   23.2710   44.1820 C   0  0  0  0  0  0  0  0  0  0  0  0
   55.8830   22.5180   43.3950 O   0  0  0  0  0  0  0  0  0  0  0  0
   55.8760   24.3880   44.7380 C   0  0  0  0  0  0  0  0  0  0  0  0
   56.1720   28.4910   45.3380 N   0  0  0  0  0  0  0  0  0  0  0  0
   56.9740   29.4150   44.7360 C   0  0  0  0  0  0  0  0  0  0  0  0
   56.5510   30.6210   44.4860 N   0  0  0  0  0  0  0  0  0  0  0  0
   57.3450   31.8170   44.3790 C   0  0  0  0  0  0  0  0  0  0  0  0
   57.4220   32.4410   43.2840 O   0  0  0  0  0  0  0  0  0  0  0  0
   58.0820   32.3180   45.5630 C   0  0  0  0  0  0  0  0  0  0  0  0
   58.6180   31.4260   46.5060 C   0  0  0  0  0  0  0  0  0  0  0  0
   59.3110   31.9010   47.6230 C   0  0  0  0  0  0  0  0  0  0  0  0
   59.4910   33.2830   47.8300 C   0  0  0  0  0  0  0  0  0  0  0  0
   60.2120   33.7760   48.9900 N   0  0  0  0  0  0  0  0  0  0  0  0
   59.5740   33.8020   50.3120 C   0  0  0  0  0  0  0  0  0  0  0  0
   61.5950   34.2580   48.8610 C   0  0  0  0  0  0  0  0  0  0  0  0
   58.9510   34.1740   46.8800 C   0  0  0  0  0  0  0  0  0  0  0  0
   58.2570   33.6980   45.7650 C   0  0  0  0  0  0  0  0  0  0  0  0
   58.2800   29.0640   44.3800 C   0  0  0  0  0  0  0  0  0  0  0  0
   58.7380   27.7710   44.6360 C   0  0  0  0  0  0  0  0  0  0  0  0
  1  2  2  0
  2  3  1  0
  3  4  1  0
  4  5  1  0
  5  6  1  0
  6  7  2  0
  6  8  1  0
  8  9  1  0
  9 10  2  0
  9 11  1  0
  2 12  1  0
 12 13  1  0
 13 14  2  0
 14 15  1  0
 15 16  2  0
 15 17  1  0
 17 18  2  0
 18 19  1  0
 19 20  2  0
 20 21  1  0
 21 22  1  0
 21 23  1  0
 20 24  1  0
 24 25  2  0
 13 26  1  0
 26 27  2  0
 27  1  1  0
 11  4  2  0
 25 17  1  0
M  CHG  3   5  -1   8  -1  12  -1
M  END
>  <UniqueID>  (943) 
68

>  <SMILES>  (943) 
CN(C)c1ccc(C(=O)/N=c2/cccc(Oc3cc(=O)[n-]c(=O)[n-]3)[n-]2)cc1

>  <Energy>  (943) 
57.30884075078281

>  <Genealogy>  (943) 
CN(C)c1ccc(C(=O)N=c2cccc(Oc3cc(=O)[n-]c(=O)[n-]3)[n-]2)cc1 (protonated)
CN(C)c1ccc(C(=O)/N=c2/cccc(Oc3cc(=O)[n-]c(=O)[n-]3)[n-]2)cc1 (cis-trans isomerization)
CN(C)c1ccc(C(=O)/N=c2/cccc(Oc3cc(=O)[n-]c(=O)[n-]3)[n-]2)cc1 (3D coordinates assigned)
CN(C)c1ccc(C(=O)/N=c2/cccc(Oc3cc(=O)[n-]c(=O)[n-]3)[n-]2)cc1 (optimized conformer: 57.30884075078281 kcal/mol)

>  <smiles>  (943) 
CN(C)c1ccc(C(=O)N=c2cccc(Oc3cc(=O)[nH]c(=O)[nH]3)[nH]2)cc1

>  <score_type>  (943) 
oracle

>  <origin>  (943) 
adg

>  <m_score__min__energy>  (943) 
-14.58

>  <m_primary>  (943) 
energy

$$$$
91:0
     RDKit          3D

 26 28  0  0  0  0  0  0  0  0999 V2000
   57.3980   33.4450   45.9370 C   0  0  0  0  0  0  0  0  0  0  0  0
   57.0390   32.2890   44.7760 S   0  0  0  0  0  0  0  0  0  0  0  0
   57.7910   30.9890   45.5380 C   0  0  0  0  0  0  0  0  0  0  0  0
   57.8090   29.6240   44.9820 C   0  0  0  0  0  0  0  0  0  0  0  0
   58.7190   29.2990   44.1720 O   0  0  0  0  0  0  0  0  0  0  0  0
   56.8520   28.6480   45.4030 N   0  0  0  0  0  0  0  0  0  0  0  0
   57.1390   27.2820   45.7330 C   0  0  0  0  0  0  0  0  0  0  0  0
   58.4800   26.8950   45.8600 C   0  0  0  0  0  0  0  0  0  0  0  0
   58.8080   25.5800   46.2030 C   0  0  0  0  0  0  0  0  0  0  0  0
   60.1080   25.2100   46.3080 F   0  0  0  0  0  0  0  0  0  0  0  0
   57.7960   24.6460   46.4410 C   0  0  0  0  0  0  0  0  0  0  0  0
   56.4560   25.0300   46.3490 C   0  0  0  0  0  0  0  0  0  0  0  0
   56.1210   26.3450   46.0120 C   0  0  0  0  0  0  0  0  0  0  0  0
   54.7800   26.7150   45.9910 O   0  0  0  0  0  0  0  0  0  0  0  0
   58.3330   31.4560   46.7440 C   0  0  0  0  0  0  0  0  0  0  0  0
   59.1560   30.4630   47.9510 S   0  0  0  0  0  0  0  0  0  0  0  0
   60.6100   30.3200   47.5960 O   0  0  0  0  0  0  0  0  0  0  0  0
   58.5260   29.1000   47.9720 O   0  0  0  0  0  0  0  0  0  0  0  0
   59.0350   31.1790   49.5250 N   0  0  0  0  0  0  0  0  0  0  0  0
   58.2440   30.7390   50.4530 C   0  0  0  0  0  0  0  0  0  0  0  0
   58.1650   29.4520   50.8440 N   0  0  0  0  0  0  0  0  0  0  0  0
   57.2830   29.4180   51.8010 O   0  0  0  0  0  0  0  0  0  0  0  0
   56.7950   30.6160   52.0370 C   0  0  0  0  0  0  0  0  0  0  0  0
   55.7860   30.9260   53.0900 C   0  0  0  0  0  0  0  0  0  0  0  0
   57.3860   31.5250   51.1860 C   0  0  0  0  0  0  0  0  0  0  0  0
   58.1110   32.8270   46.9540 C   0  0  0  0  0  0  0  0  0  0  0  0
  1  2  1  0
  2  3  1  0
  3  4  1  0
  4  5  2  0
  4  6  1  0
  6  7  1  0
  7  8  2  0
  8  9  1  0
  9 10  1  0
  9 11  2  0
 11 12  1  0
 12 13  2  0
 13 14  1  0
  3 15  2  0
 15 16  1  0
 16 17  2  0
 16 18  2  0
 16 19  1  0
 19 20  2  0
 20 21  1  0
 21 22  1  0
 22 23  1  0
 23 24  1  0
 23 25  2  0
 15 26  1  0
 26  1  2  0
 13  7  1  0
 25 20  1  0
M  CHG  3   6  -1  14  -1  21  -1
M  END
>  <UniqueID>  (944) 
84

>  <SMILES>  (944) 
Cc1c/c(=N/S(=O)(=O)c2ccsc2C(=O)[N-]c2cc(F)ccc2[O-])[n-]o1

>  <Energy>  (944) 
101.35198269000495

>  <Genealogy>  (944) 
Cc1cc(=NS(=O)(=O)c2ccsc2C(=O)[N-]c2cc(F)ccc2[O-])[n-]o1 (protonated)
Cc1c/c(=N/S(=O)(=O)c2ccsc2C(=O)[N-]c2cc(F)ccc2[O-])[n-]o1 (cis-trans isomerization)
Cc1c/c(=N/S(=O)(=O)c2ccsc2C(=O)[N-]c2cc(F)ccc2[O-])[n-]o1 (3D coordinates assigned)
Cc1c/c(=N/S(=O)(=O)c2ccsc2C(=O)[N-]c2cc(F)ccc2[O-])[n-]o1 (optimized conformer: 101.35198269000495 kcal/mol)

>  <smiles>  (944) 
Cc1cc(=NS(=O)(=O)c2ccsc2C(=O)Nc2cc(F)ccc2O)[nH]o1

>  <score_type>  (944) 
oracle

>  <origin>  (944) 
adg

>  <m_score__min__energy>  (944) 
-14.43

>  <m_primary>  (944) 
energy

$$$$
94:0
     RDKit          3D

 32 35  0  0  0  0  0  0  0  0999 V2000
   56.3630   29.5390   45.5740 O   0  0  0  0  0  0  0  0  0  0  0  0
   57.3400   29.1800   44.8630 C   0  0  0  0  0  0  0  0  0  0  0  0
   58.3780   30.1240   44.5370 N   0  0  0  0  0  0  0  0  0  0  0  0
   58.4540   31.4500   45.0890 C   0  0  0  0  0  0  0  0  0  0  0  0
   57.8490   32.5140   44.4050 C   0  0  0  0  0  0  0  0  0  0  0  0
   57.9330   33.8150   44.9060 C   0  0  0  0  0  0  0  0  0  0  0  0
   58.6400   34.0700   46.0820 C   0  0  0  0  0  0  0  0  0  0  0  0
   59.2790   33.0230   46.7600 C   0  0  0  0  0  0  0  0  0  0  0  0
   60.2120   33.3500   48.2210 S   0  0  0  0  0  0  0  0  0  0  0  0
   60.6750   34.7810   48.1860 O   0  0  0  0  0  0  0  0  0  0  0  0
   59.3210   33.1880   49.4210 O   0  0  0  0  0  0  0  0  0  0  0  0
   61.6040   32.3000   48.3820 N   0  0  0  0  0  0  0  0  0  0  0  0
   62.4360   32.6260   49.5590 C   0  0  0  0  0  0  0  0  0  0  0  0
   63.7060   33.4120   49.1950 C   0  0  0  0  0  0  0  0  0  0  0  0
   63.4890   34.1940   48.0430 O   0  0  0  0  0  0  0  0  0  0  0  0
   63.3640   33.3530   46.9140 C   0  0  0  0  0  0  0  0  0  0  0  0
   62.3740   32.1830   47.1290 C   0  0  0  0  0  0  0  0  0  0  0  0
   59.1840   31.7150   46.2610 C   0  0  0  0  0  0  0  0  0  0  0  0
   57.3900   27.7820   44.3700 C   0  0  0  0  0  0  0  0  0  0  0  0
   57.7670   27.4830   43.0480 C   0  0  0  0  0  0  0  0  0  0  0  0
   57.7930   26.1590   42.6020 C   0  0  0  0  0  0  0  0  0  0  0  0
   57.4430   25.1190   43.4650 C   0  0  0  0  0  0  0  0  0  0  0  0
   57.0660   25.3960   44.7870 C   0  0  0  0  0  0  0  0  0  0  0  0
   56.6470   24.2810   45.7060 C   0  0  0  0  0  0  0  0  0  0  0  0
   55.1740   24.0410   45.5850 C   0  0  0  0  0  0  0  0  0  0  0  0
   54.6180   22.8270   45.4260 N   0  0  0  0  0  0  0  0  0  0  0  0
   53.2920   23.0890   45.4380 C   0  0  0  0  0  0  0  0  0  0  0  0
   52.4230   22.1890   45.3070 O   0  0  0  0  0  0  0  0  0  0  0  0
   52.9730   24.3900   45.6060 N   0  0  0  0  0  0  0  0  0  0  0  0
   54.1760   24.9780   45.7040 C   0  0  0  0  0  0  0  0  0  0  0  0
   54.3570   26.3400   45.9030 O   0  0  0  0  0  0  0  0  0  0  0  0
   57.0260   26.7280   45.2290 C   0  0  0  0  0  0  0  0  0  0  0  0
  1  2  2  0
  2  3  1  0
  3  4  1  0
  4  5  2  0
  5  6  1  0
  6  7  2  0
  7  8  1  0
  8  9  1  0
  9 10  2  0
  9 11  2  0
  9 12  1  0
 12 13  1  0
 13 14  1  0
 14 15  1  0
 15 16  1  0
 16 17  1  0
  8 18  2  0
  2 19  1  0
 19 20  2  0
 20 21  1  0
 21 22  2  0
 22 23  1  0
 23 24  1  0
 24 25  1  0
 25 26  1  0
 26 27  1  0
 27 28  2  0
 27 29  1  0
 29 30  1  0
 30 31  1  0
 23 32  2  0
 18  4  1  0
 32 19  1  0
 17 12  1  0
 30 25  2  0
M  CHG  3  26  -1  29  -1  31  -1
M  END
>  <UniqueID>  (945) 
87

>  <SMILES>  (945) 
O=C(Nc1cccc(S(=O)(=O)N2CCOCC2)c1)c1cccc(Cc2[n-]c(=O)[n-]c2[O-])c1

>  <Energy>  (945) 
99.36199988402137

>  <Genealogy>  (945) 
O=C(Nc1cccc(S(=O)(=O)N2CCOCC2)c1)c1cccc(Cc2[n-]c(=O)[n-]c2[O-])c1 (protonated)
O=C(Nc1cccc(S(=O)(=O)N2CCOCC2)c1)c1cccc(Cc2[n-]c(=O)[n-]c2[O-])c1 (3D coordinates assigned)
O=C(Nc1cccc(S(=O)(=O)N2CCOCC2)c1)c1cccc(Cc2[n-]c(=O)[n-]c2[O-])c1 (nonaromatic ring conformer: 99.36199988402137 kcal/mol)

>  <smiles>  (945) 
O=C(Nc1cccc(S(=O)(=O)N2CCOCC2)c1)c1cccc(Cc2[nH]c(=O)[nH]c2O)c1

>  <score_type>  (945) 
oracle

>  <origin>  (945) 
adg

>  <m_score__min__energy>  (945) 
-19.77

>  <m_primary>  (945) 
energy

$$$$
26:0
     RDKit          3D

 31 34  0  0  0  0  0  0  0  0999 V2000
   54.8570   26.2930   45.9820 N   0  0  0  0  0  0  0  0  0  0  0  0
   55.7080   25.2050   46.3350 C   0  0  0  0  0  0  0  0  0  0  0  0
   55.9870   25.0070   47.5460 O   0  0  0  0  0  0  0  0  0  0  0  0
   56.2130   24.2990   45.2880 C   0  0  0  0  0  0  0  0  0  0  0  0
   55.4720   23.8310   44.2230 C   0  0  0  0  0  0  0  0  0  0  0  0
   56.2750   22.9120   43.5820 C   0  0  0  0  0  0  0  0  0  0  0  0
   55.8970   22.1890   42.4570 O   0  0  0  0  0  0  0  0  0  0  0  0
   57.4760   22.7860   44.1780 N   0  0  0  0  0  0  0  0  0  0  0  0
   57.4410   23.6470   45.2130 C   0  0  0  0  0  0  0  0  0  0  0  0
   58.5680   23.8380   46.0770 N   0  0  0  0  0  0  0  0  0  0  0  0
   59.5440   24.8810   45.9540 C   0  0  0  0  0  0  0  0  0  0  0  0
   60.7580   24.5610   45.8480 O   0  0  0  0  0  0  0  0  0  0  0  0
   59.1670   26.3130   45.9240 C   0  0  0  0  0  0  0  0  0  0  0  0
   58.4010   26.8360   44.8670 C   0  0  0  0  0  0  0  0  0  0  0  0
   58.0410   28.1860   44.8580 C   0  0  0  0  0  0  0  0  0  0  0  0
   58.4510   29.0290   45.8920 C   0  0  0  0  0  0  0  0  0  0  0  0
   59.2350   28.5280   46.9390 C   0  0  0  0  0  0  0  0  0  0  0  0
   59.7240   29.5900   48.2590 S   0  0  0  0  0  0  0  0  0  0  0  0
   58.5030   30.0270   49.0210 O   0  0  0  0  0  0  0  0  0  0  0  0
   60.6230   28.8130   49.1810 O   0  0  0  0  0  0  0  0  0  0  0  0
   60.5670   30.9940   47.6540 N   0  0  0  0  0  0  0  0  0  0  0  0
   62.0040   31.0910   47.9480 C   0  0  0  0  0  0  0  0  0  0  0  0
   62.6840   32.1990   47.1410 C   0  0  0  0  0  0  0  0  0  0  0  0
   61.9360   33.5170   47.3160 C   0  0  0  0  0  0  0  0  0  0  0  0
   60.4980   33.3590   46.9090 C   0  0  0  0  0  0  0  0  0  0  0  0
   59.7980   34.4590   46.3950 C   0  0  0  0  0  0  0  0  0  0  0  0
   58.4600   34.3290   46.0170 C   0  0  0  0  0  0  0  0  0  0  0  0
   57.8140   33.1010   46.1520 C   0  0  0  0  0  0  0  0  0  0  0  0
   58.4970   32.0020   46.6810 C   0  0  0  0  0  0  0  0  0  0  0  0
   59.8420   32.1190   47.0910 C   0  0  0  0  0  0  0  0  0  0  0  0
   59.5920   27.1730   46.9510 C   0  0  0  0  0  0  0  0  0  0  0  0
  1  2  1  0
  2  3  2  0
  2  4  1  0
  4  5  1  0
  5  6  2  0
  6  7  1  0
  6  8  1  0
  8  9  1  0
  9 10  1  0
 10 11  1  0
 11 12  2  0
 11 13  1  0
 13 14  2  0
 14 15  1  0
 15 16  2  0
 16 17  1  0
 17 18  1  0
 18 19  2  0
 18 20  2  0
 18 21  1  0
 21 22  1  0
 22 23  1  0
 23 24  1  0
 24 25  1  0
 25 26  2  0
 26 27  1  0
 27 28  2  0
 28 29  1  0
 29 30  2  0
 17 31  2  0
  9  4  2  0
 31 13  1  0
 30 21  1  0
 30 25  1  0
M  CHG  3   1  -1   8  -1  10  -1
M  END
>  <UniqueID>  (946) 
22

>  <SMILES>  (946) 
[NH-]C(=O)c1cc(O)[n-]c1[N-]C(=O)c1cccc(S(=O)(=O)N2CCCc3ccccc32)c1

>  <Energy>  (946) 
88.28071675719424

>  <Genealogy>  (946) 
[NH-]C(=O)c1cc(O)[n-]c1[N-]C(=O)c1cccc(S(=O)(=O)N2CCCc3ccccc32)c1 (protonated)
[NH-]C(=O)c1cc(O)[n-]c1[N-]C(=O)c1cccc(S(=O)(=O)N2CCCc3ccccc32)c1 (3D coordinates assigned)
[NH-]C(=O)c1cc(O)[n-]c1[N-]C(=O)c1cccc(S(=O)(=O)N2CCCc3ccccc32)c1 (nonaromatic ring conformer: 88.28071675719424 kcal/mol)

>  <smiles>  (946) 
NC(=O)c1cc(O)[nH]c1NC(=O)c1cccc(S(=O)(=O)N2CCCc3ccccc32)c1

>  <score_type>  (946) 
oracle

>  <origin>  (946) 
adg

>  <m_score__min__energy>  (946) 
-15.949999999999999

>  <m_primary>  (946) 
energy

$$$$
50:0
     RDKit          3D

 25 27  0  0  0  0  0  0  0  0999 V2000
   58.3470   27.0830   43.1000 C   0  0  0  0  0  0  0  0  0  0  0  0
   58.3520   26.6100   44.3580 C   0  0  0  0  0  0  0  0  0  0  0  0
   57.5680   25.5530   44.8350 C   0  0  0  0  0  0  0  0  0  0  0  0
   56.6490   24.8390   44.1550 C   0  0  0  0  0  0  0  0  0  0  0  0
   55.4520   24.2380   44.7870 C   0  0  0  0  0  0  0  0  0  0  0  0
   54.5870   24.9950   45.5940 C   0  0  0  0  0  0  0  0  0  0  0  0
   54.8270   26.3450   45.8270 O   0  0  0  0  0  0  0  0  0  0  0  0
   53.5110   24.4040   46.1750 N   0  0  0  0  0  0  0  0  0  0  0  0
   53.2610   23.0800   46.0040 C   0  0  0  0  0  0  0  0  0  0  0  0
   51.9600   22.3980   46.7150 S   0  0  0  0  0  0  0  0  0  0  0  0
   54.0990   22.3210   45.2530 N   0  0  0  0  0  0  0  0  0  0  0  0
   55.1870   22.8660   44.6500 C   0  0  0  0  0  0  0  0  0  0  0  0
   55.9460   22.1310   43.9620 O   0  0  0  0  0  0  0  0  0  0  0  0
   57.8800   25.4100   46.1770 C   0  0  0  0  0  0  0  0  0  0  0  0
   58.8390   26.3580   46.4650 C   0  0  0  0  0  0  0  0  0  0  0  0
   59.4080   26.5880   47.8330 C   0  0  0  0  0  0  0  0  0  0  0  0
   59.1310   27.0930   45.3640 N   0  0  0  0  0  0  0  0  0  0  0  0
   60.0660   28.2300   45.3250 C   0  0  0  0  0  0  0  0  0  0  0  0
   59.3370   29.5270   45.5660 C   0  0  0  0  0  0  0  0  0  0  0  0
   59.8990   30.5170   46.3900 C   0  0  0  0  0  0  0  0  0  0  0  0
   59.2150   31.7140   46.6210 C   0  0  0  0  0  0  0  0  0  0  0  0
   57.9670   31.9330   46.0300 C   0  0  0  0  0  0  0  0  0  0  0  0
   57.4020   30.9560   45.2060 C   0  0  0  0  0  0  0  0  0  0  0  0
   56.1630   31.1750   44.6180 O   0  0  0  0  0  0  0  0  0  0  0  0
   58.0850   29.7580   44.9730 C   0  0  0  0  0  0  0  0  0  0  0  0
  1  2  2  0
  2  3  1  0
  3  4  2  0
  4  5  1  0
  5  6  2  0
  6  7  1  0
  6  8  1  0
  8  9  1  0
  9 10  2  0
  9 11  1  0
 11 12  1  0
 12 13  2  0
  3 14  1  0
 14 15  2  0
 15 16  1  0
 15 17  1  0
 17 18  1  0
 18 19  1  0
 19 20  2  0
 20 21  1  0
 21 22  2  0
 22 23  1  0
 23 24  1  0
 23 25  2  0
 17  2  1  0
 25 19  1  0
 12  5  1  0
M  CHG  4   7  -1   8  -1  11  -1  24  -1
M  END
>  <UniqueID>  (947) 
44

>  <SMILES>  (947) 
C=c1/c(=C/c2c([O-])[n-]c(=S)[n-]c2=O)cc(C)n1Cc1cccc([O-])c1

>  <Energy>  (947) 
78.83461170709104

>  <Genealogy>  (947) 
C=c1c(=Cc2c([O-])[n-]c(=S)[n-]c2=O)cc(C)n1Cc1cccc([O-])c1 (protonated)
C=c1/c(=C/c2c([O-])[n-]c(=S)[n-]c2=O)cc(C)n1Cc1cccc([O-])c1 (cis-trans isomerization)
C=c1/c(=C/c2c([O-])[n-]c(=S)[n-]c2=O)cc(C)n1Cc1cccc([O-])c1 (3D coordinates assigned)
C=c1/c(=C/c2c([O-])[n-]c(=S)[n-]c2=O)cc(C)n1Cc1cccc([O-])c1 (optimized conformer: 78.83461170709104 kcal/mol)

>  <smiles>  (947) 
C=c1c(=Cc2c(O)[nH]c(=S)[nH]c2=O)cc(C)n1Cc1cccc(O)c1

>  <score_type>  (947) 
oracle

>  <origin>  (947) 
adg

>  <m_score__min__energy>  (947) 
-17.120000000000001

>  <m_primary>  (947) 
energy

$$$$
51:0
     RDKit          3D

 23 25  0  0  0  0  0  0  0  0999 V2000
   54.4290   31.1660   51.1580 O   0  0  0  0  0  0  0  0  0  0  0  0
   53.9140   30.3720   51.9900 C   0  0  0  0  0  0  0  0  0  0  0  0
   52.4370   30.3960   52.2130 C   0  0  0  0  0  0  0  0  0  0  0  0
   51.7370   30.8180   50.9580 C   0  0  0  0  0  0  0  0  0  0  0  0
   51.6750   30.0690   49.8410 N   0  0  0  0  0  0  0  0  0  0  0  0
   51.0100   30.8630   48.9720 C   0  0  0  0  0  0  0  0  0  0  0  0
   50.7460   30.5060   47.7950 O   0  0  0  0  0  0  0  0  0  0  0  0
   50.6580   32.0710   49.4640 N   0  0  0  0  0  0  0  0  0  0  0  0
   51.1320   32.0280   50.7190 C   0  0  0  0  0  0  0  0  0  0  0  0
   51.0180   33.0740   51.6270 O   0  0  0  0  0  0  0  0  0  0  0  0
   54.7180   29.4190   52.7030 N   0  0  0  0  0  0  0  0  0  0  0  0
   56.0060   29.4730   52.8610 C   0  0  0  0  0  0  0  0  0  0  0  0
   56.8850   29.7560   51.8750 N   0  0  0  0  0  0  0  0  0  0  0  0
   58.1730   29.7430   52.3210 C   0  0  0  0  0  0  0  0  0  0  0  0
   59.3100   30.0120   51.4040 C   0  0  0  0  0  0  0  0  0  0  0  0
   59.1170   30.8190   50.2650 C   0  0  0  0  0  0  0  0  0  0  0  0
   60.1780   31.0900   49.3940 C   0  0  0  0  0  0  0  0  0  0  0  0
   61.4450   30.5620   49.6500 C   0  0  0  0  0  0  0  0  0  0  0  0
   62.4730   30.8280   48.8070 F   0  0  0  0  0  0  0  0  0  0  0  0
   61.6540   29.7630   50.7760 C   0  0  0  0  0  0  0  0  0  0  0  0
   60.5950   29.4890   51.6510 C   0  0  0  0  0  0  0  0  0  0  0  0
   58.3080   29.4400   53.6800 C   0  0  0  0  0  0  0  0  0  0  0  0
   56.7730   29.1890   54.3240 S   0  0  0  0  0  0  0  0  0  0  0  0
  1  2  2  0
  2  3  1  0
  3  4  1  0
  4  5  1  0
  5  6  1  0
  6  7  2  0
  6  8  1  0
  8  9  1  0
  9 10  1  0
  2 11  1  0
 11 12  2  3
 12 13  1  0
 13 14  1  0
 14 15  1  0
 15 16  2  0
 16 17  1  0
 17 18  2  0
 18 19  1  0
 18 20  1  0
 20 21  2  0
 14 22  2  0
 22 23  1  0
  9  4  2  0
 23 12  1  0
 21 15  1  0
M  CHG  4   5  -1   8  -1  10  -1  13  -1
M  END
>  <UniqueID>  (948) 
45

>  <SMILES>  (948) 
O=C(Cc1[n-]c(=O)[n-]c1[O-])N=c1[n-]c(-c2ccc(F)cc2)cs1

>  <Energy>  (948) 
93.82858357986835

>  <Genealogy>  (948) 
O=C(Cc1[n-]c(=O)[n-]c1[O-])N=c1[n-]c(-c2ccc(F)cc2)cs1 (protonated)
O=C(Cc1[n-]c(=O)[n-]c1[O-])N=c1[n-]c(-c2ccc(F)cc2)cs1 (3D coordinates assigned)
O=C(Cc1[n-]c(=O)[n-]c1[O-])N=c1[n-]c(-c2ccc(F)cc2)cs1 (optimized conformer: 93.82858357986835 kcal/mol)

>  <smiles>  (948) 
O=C(Cc1[nH]c(=O)[nH]c1O)N=c1[nH]c(-c2ccc(F)cc2)cs1

>  <score_type>  (948) 
oracle

>  <origin>  (948) 
adg

>  <m_score__min__energy>  (948) 
-17.079999999999998

>  <m_primary>  (948) 
energy

$$$$
54:0
     RDKit          3D

 23 25  0  0  0  0  0  0  0  0999 V2000
   58.2220   28.6840   47.6480 C   0  0  0  0  0  0  0  0  0  0  0  0
   58.1100   29.1740   46.4040 C   0  0  0  0  0  0  0  0  0  0  0  0
   57.8460   28.4390   45.2330 C   0  0  0  0  0  0  0  0  0  0  0  0
   57.7640   27.1110   45.0140 C   0  0  0  0  0  0  0  0  0  0  0  0
   57.2760   26.1080   45.9720 C   0  0  0  0  0  0  0  0  0  0  0  0
   58.0080   25.0990   46.4750 N   0  0  0  0  0  0  0  0  0  0  0  0
   57.1250   24.3520   47.1680 C   0  0  0  0  0  0  0  0  0  0  0  0
   57.4500   23.3080   47.7930 O   0  0  0  0  0  0  0  0  0  0  0  0
   55.8560   24.8120   47.1190 N   0  0  0  0  0  0  0  0  0  0  0  0
   55.9670   25.9110   46.3480 C   0  0  0  0  0  0  0  0  0  0  0  0
   54.8920   26.7130   45.9880 O   0  0  0  0  0  0  0  0  0  0  0  0
   57.7150   29.3650   44.2170 C   0  0  0  0  0  0  0  0  0  0  0  0
   57.9550   30.6050   44.7670 C   0  0  0  0  0  0  0  0  0  0  0  0
   58.0600   31.8700   43.9660 C   0  0  0  0  0  0  0  0  0  0  0  0
   58.1630   30.5030   46.1040 N   0  0  0  0  0  0  0  0  0  0  0  0
   58.4660   31.6290   47.0090 C   0  0  0  0  0  0  0  0  0  0  0  0
   59.9450   31.9710   47.0600 C   0  0  0  0  0  0  0  0  0  0  0  0
   60.8530   30.9690   47.4560 C   0  0  0  0  0  0  0  0  0  0  0  0
   62.2240   31.2270   47.5080 C   0  0  0  0  0  0  0  0  0  0  0  0
   62.7130   32.4830   47.1520 C   0  0  0  0  0  0  0  0  0  0  0  0
   61.8330   33.4790   46.7300 C   0  0  0  0  0  0  0  0  0  0  0  0
   60.4550   33.2340   46.6710 C   0  0  0  0  0  0  0  0  0  0  0  0
   59.3480   34.6550   46.0200 Br  0  0  0  0  0  0  0  0  0  0  0  0
  1  2  2  0
  2  3  1  0
  3  4  2  3
  4  5  1  0
  5  6  1  0
  6  7  1  0
  7  8  2  0
  7  9  1  0
  9 10  1  0
 10 11  1  0
  3 12  1  0
 12 13  2  0
 13 14  1  0
 13 15  1  0
 15 16  1  0
 16 17  1  0
 17 18  2  0
 18 19  1  0
 19 20  2  0
 20 21  1  0
 21 22  2  0
 22 23  1  0
 15  2  1  0
 22 17  1  0
 10  5  2  0
M  CHG  2   9  -1  11  -1
M  END
>  <UniqueID>  (949) 
48

>  <SMILES>  (949) 
C=c1c(=Cc2[nH]c(=O)[n-]c2[O-])cc(C)n1Cc1ccccc1Br

>  <Energy>  (949) 
113.22247975231086

>  <Genealogy>  (949) 
C=c1c(=Cc2[nH]c(=O)[n-]c2[O-])cc(C)n1Cc1ccccc1Br (protonated)
C=c1c(=Cc2[nH]c(=O)[n-]c2[O-])cc(C)n1Cc1ccccc1Br (3D coordinates assigned)
C=c1c(=Cc2[nH]c(=O)[n-]c2[O-])cc(C)n1Cc1ccccc1Br (optimized conformer: 113.22247975231086 kcal/mol)

>  <smiles>  (949) 
C=c1c(=Cc2[nH]c(=O)[nH]c2O)cc(C)n1Cc1ccccc1Br

>  <score_type>  (949) 
oracle

>  <origin>  (949) 
adg

>  <m_score__min__energy>  (949) 
-14.06

>  <m_primary>  (949) 
energy

$$$$
61:0
     RDKit          3D

 23 25  0  0  0  0  0  0  0  0999 V2000
   56.2240   20.7520   43.3330 O   0  0  0  0  0  0  0  0  0  0  0  0
   56.3020   22.0370   43.8580 C   0  0  0  0  0  0  0  0  0  0  0  0
   55.2750   22.6480   44.4800 N   0  0  0  0  0  0  0  0  0  0  0  0
   55.7540   23.8600   44.8300 C   0  0  0  0  0  0  0  0  0  0  0  0
   54.9570   24.8510   45.5790 C   0  0  0  0  0  0  0  0  0  0  0  0
   53.7030   24.8300   45.4770 O   0  0  0  0  0  0  0  0  0  0  0  0
   55.5620   25.7970   46.4740 N   0  0  0  0  0  0  0  0  0  0  0  0
   56.6950   26.4090   46.2820 C   0  0  0  0  0  0  0  0  0  0  0  0
   57.8750   25.8340   46.6520 N   0  0  0  0  0  0  0  0  0  0  0  0
   59.0720   26.4450   46.4460 C   0  0  0  0  0  0  0  0  0  0  0  0
   59.1210   27.6960   45.8260 C   0  0  0  0  0  0  0  0  0  0  0  0
   60.6940   28.5080   45.5460 S   0  0  0  0  0  0  0  0  0  0  0  0
   60.0820   30.0950   46.1170 C   0  0  0  0  0  0  0  0  0  0  0  0
   59.3020   30.8900   45.3560 N   0  0  0  0  0  0  0  0  0  0  0  0
   59.0460   31.9530   46.1460 C   0  0  0  0  0  0  0  0  0  0  0  0
   59.6690   31.7860   47.3640 C   0  0  0  0  0  0  0  0  0  0  0  0
   60.3340   30.6200   47.3340 N   0  0  0  0  0  0  0  0  0  0  0  0
   61.0640   30.0150   48.4420 C   0  0  0  0  0  0  0  0  0  0  0  0
   57.9280   28.3080   45.4340 C   0  0  0  0  0  0  0  0  0  0  0  0
   56.7080   27.6630   45.6540 C   0  0  0  0  0  0  0  0  0  0  0  0
   55.5220   28.2710   45.2550 O   0  0  0  0  0  0  0  0  0  0  0  0
   57.0770   24.0030   44.4460 C   0  0  0  0  0  0  0  0  0  0  0  0
   57.4250   22.8310   43.8140 C   0  0  0  0  0  0  0  0  0  0  0  0
  1  2  1  0
  2  3  1  0
  3  4  1  0
  4  5  1  0
  5  6  2  0
  5  7  1  0
  7  8  2  0
  8  9  1  0
  9 10  1  0
 10 11  2  0
 11 12  1  0
 12 13  1  0
 13 14  2  0
 14 15  1  0
 15 16  2  0
 16 17  1  0
 17 18  1  0
 11 19  1  0
 19 20  2  0
 20 21  1  0
  4 22  2  0
 22 23  1  0
 23  2  2  0
 20  8  1  0
 17 13  1  0
M  CHG  3   3  -1   9  -1  21  -1
M  END
>  <UniqueID>  (950) 
55

>  <SMILES>  (950) 
Cn1ccnc1Sc1c[n-]/c(=N\C(=O)c2ccc(O)[n-]2)c([O-])c1

>  <Energy>  (950) 
91.24378119484743

>  <Genealogy>  (950) 
Cn1ccnc1Sc1c[n-]c(=NC(=O)c2ccc(O)[n-]2)c([O-])c1 (protonated)
Cn1ccnc1Sc1c[n-]/c(=N\C(=O)c2ccc(O)[n-]2)c([O-])c1 (cis-trans isomerization)
Cn1ccnc1Sc1c[n-]/c(=N\C(=O)c2ccc(O)[n-]2)c([O-])c1 (3D coordinates assigned)
Cn1ccnc1Sc1c[n-]/c(=N\C(=O)c2ccc(O)[n-]2)c([O-])c1 (optimized conformer: 91.24378119484743 kcal/mol)

>  <smiles>  (950) 
Cn1ccnc1Sc1c[nH]c(=NC(=O)c2ccc(O)[nH]2)c(O)c1

>  <score_type>  (950) 
oracle

>  <origin>  (950) 
adg

>  <m_score__min__energy>  (950) 
-14.199999999999999

>  <m_primary>  (950) 
energy

$$$$
70:0
     RDKit          3D

 25 27  0  0  0  0  0  0  0  0999 V2000
   59.8990   34.4520   47.2470 C   0  0  0  0  0  0  0  0  0  0  0  0
   58.8280   33.6110   46.9330 C   0  0  0  0  0  0  0  0  0  0  0  0
   58.3130   32.7400   47.8980 C   0  0  0  0  0  0  0  0  0  0  0  0
   58.8580   32.7180   49.1930 C   0  0  0  0  0  0  0  0  0  0  0  0
   58.3420   31.7820   50.2110 C   0  0  0  0  0  0  0  0  0  0  0  0
   57.1830   32.0590   50.8710 N   0  0  0  0  0  0  0  0  0  0  0  0
   56.9110   31.1520   51.8330 C   0  0  0  0  0  0  0  0  0  0  0  0
   55.8290   31.2160   52.5510 N   0  0  0  0  0  0  0  0  0  0  0  0
   54.5950   30.5200   52.3180 C   0  0  0  0  0  0  0  0  0  0  0  0
   54.6410   29.3410   51.8740 O   0  0  0  0  0  0  0  0  0  0  0  0
   53.2560   31.1690   52.5500 C   0  0  0  0  0  0  0  0  0  0  0  0
   52.3870   31.0640   51.3320 C   0  0  0  0  0  0  0  0  0  0  0  0
   51.4150   31.9500   50.9280 C   0  0  0  0  0  0  0  0  0  0  0  0
   51.0230   33.0930   51.6140 O   0  0  0  0  0  0  0  0  0  0  0  0
   50.8860   31.5660   49.7510 N   0  0  0  0  0  0  0  0  0  0  0  0
   51.5740   30.4390   49.4680 C   0  0  0  0  0  0  0  0  0  0  0  0
   51.3790   29.7610   48.4240 O   0  0  0  0  0  0  0  0  0  0  0  0
   52.4940   30.1080   50.3960 N   0  0  0  0  0  0  0  0  0  0  0  0
   58.0850   29.9450   51.8930 S   0  0  0  0  0  0  0  0  0  0  0  0
   58.9920   30.6110   50.6400 C   0  0  0  0  0  0  0  0  0  0  0  0
   60.1900   29.9550   50.0740 C   0  0  0  0  0  0  0  0  0  0  0  0
   60.0460   28.9020   49.3980 O   0  0  0  0  0  0  0  0  0  0  0  0
   61.5650   30.5240   50.2360 C   0  0  0  0  0  0  0  0  0  0  0  0
   59.9480   33.5490   49.4950 C   0  0  0  0  0  0  0  0  0  0  0  0
   60.4610   34.4180   48.5270 C   0  0  0  0  0  0  0  0  0  0  0  0
  1  2  2  0
  2  3  1  0
  3  4  2  0
  4  5  1  0
  5  6  1  0
  6  7  1  0
  7  8  2  0
  8  9  1  0
  9 10  2  0
  9 11  1  0
 11 12  1  0
 12 13  2  0
 13 14  1  0
 13 15  1  0
 15 16  1  0
 16 17  2  0
 16 18  1  0
  7 19  1  0
 19 20  1  0
 20 21  1  0
 21 22  2  0
 21 23  1  0
  4 24  1  0
 24 25  2  0
 25  1  1  0
 20  5  2  0
 18 12  1  0
M  CHG  3   6  -1  14  -1  15  -1
M  END
>  <UniqueID>  (951) 
64

>  <SMILES>  (951) 
CC(=O)c1s/c(=N\C(=O)Cc2[nH]c(=O)[n-]c2[O-])[n-]c1-c1ccccc1

>  <Energy>  (951) 
111.27783638372449

>  <Genealogy>  (951) 
CC(=O)c1sc(=NC(=O)Cc2[nH]c(=O)[n-]c2[O-])[n-]c1-c1ccccc1 (protonated)
CC(=O)c1s/c(=N\C(=O)Cc2[nH]c(=O)[n-]c2[O-])[n-]c1-c1ccccc1 (cis-trans isomerization)
CC(=O)c1s/c(=N\C(=O)Cc2[nH]c(=O)[n-]c2[O-])[n-]c1-c1ccccc1 (3D coordinates assigned)
CC(=O)c1s/c(=N\C(=O)Cc2[nH]c(=O)[n-]c2[O-])[n-]c1-c1ccccc1 (optimized conformer: 111.27783638372449 kcal/mol)

>  <smiles>  (951) 
CC(=O)c1sc(=NC(=O)Cc2[nH]c(=O)[nH]c2O)[nH]c1-c1ccccc1

>  <score_type>  (951) 
oracle

>  <origin>  (951) 
adg

>  <m_score__min__energy>  (951) 
-15.470000000000001

>  <m_primary>  (951) 
energy

$$$$
77:0
     RDKit          3D

 29 32  0  0  0  0  0  0  0  0999 V2000
   56.1060   28.3880   45.2430 O   0  0  0  0  0  0  0  0  0  0  0  0
   56.1670   27.1000   45.7630 C   0  0  0  0  0  0  0  0  0  0  0  0
   55.0960   26.3000   45.9060 N   0  0  0  0  0  0  0  0  0  0  0  0
   55.6410   25.1560   46.3700 C   0  0  0  0  0  0  0  0  0  0  0  0
   54.9530   24.1350   46.6320 O   0  0  0  0  0  0  0  0  0  0  0  0
   56.9820   25.1870   46.5240 N   0  0  0  0  0  0  0  0  0  0  0  0
   57.3100   26.4390   46.1590 C   0  0  0  0  0  0  0  0  0  0  0  0
   58.7010   26.9230   46.0870 C   0  0  0  0  0  0  0  0  0  0  0  0
   59.1680   27.9810   46.7780 C   0  0  0  0  0  0  0  0  0  0  0  0
   59.2560   28.0870   48.1600 C   0  0  0  0  0  0  0  0  0  0  0  0
   59.8280   29.3140   48.4260 C   0  0  0  0  0  0  0  0  0  0  0  0
   60.1310   29.8320   49.8000 C   0  0  0  0  0  0  0  0  0  0  0  0
   60.1160   29.9620   47.2750 N   0  0  0  0  0  0  0  0  0  0  0  0
   60.7130   31.2660   47.1700 C   0  0  0  0  0  0  0  0  0  0  0  0
   62.1030   31.4170   47.2800 C   0  0  0  0  0  0  0  0  0  0  0  0
   62.6820   32.6840   47.1740 C   0  0  0  0  0  0  0  0  0  0  0  0
   61.8780   33.8070   46.9590 C   0  0  0  0  0  0  0  0  0  0  0  0
   60.4850   33.6720   46.8580 C   0  0  0  0  0  0  0  0  0  0  0  0
   59.6280   34.8790   46.5930 C   0  0  0  0  0  0  0  0  0  0  0  0
   59.0820   34.8220   45.2410 N   0  0  0  0  0  0  0  0  0  0  0  0
   58.0200   33.9450   44.8500 C   0  0  0  0  0  0  0  0  0  0  0  0
   56.8190   34.2960   45.0050 O   0  0  0  0  0  0  0  0  0  0  0  0
   58.3410   32.5620   44.3470 C   0  0  0  0  0  0  0  0  0  0  0  0
   57.3620   31.4790   44.8020 C   0  0  0  0  0  0  0  0  0  0  0  0
   56.9680   31.2240   43.3530 C   0  0  0  0  0  0  0  0  0  0  0  0
   57.9260   32.3150   42.8960 C   0  0  0  0  0  0  0  0  0  0  0  0
   59.9080   32.3960   46.9640 C   0  0  0  0  0  0  0  0  0  0  0  0
   59.7190   29.1560   46.2570 C   0  0  0  0  0  0  0  0  0  0  0  0
   59.8680   29.4590   44.9580 C   0  0  0  0  0  0  0  0  0  0  0  0
  1  2  1  0
  2  3  1  0
  3  4  1  0
  4  5  2  0
  4  6  1  0
  6  7  1  0
  7  8  1  0
  8  9  2  0
  9 10  1  0
 10 11  2  0
 11 12  1  0
 11 13  1  0
 13 14  1  0
 14 15  2  0
 15 16  1  0
 16 17  2  0
 17 18  1  0
 18 19  1  0
 19 20  1  0
 20 21  1  0
 21 22  2  0
 21 23  1  0
 23 24  1  0
 24 25  1  0
 25 26  1  0
 18 27  2  0
 13 28  1  0
 28 29  2  0
  7  2  2  0
 28  9  1  0
 27 14  1  0
 26 23  1  0
M  CHG  3   3  -1   6  -1  20  -1
M  END
>  <UniqueID>  (952) 
70

>  <SMILES>  (952) 
C=c1/c(=C/c2[n-]c(=O)[n-]c2O)cc(C)n1-c1cccc(C[N-]C(=O)C2CCC2)c1

>  <Energy>  (952) 
179.83417926155255

>  <Genealogy>  (952) 
C=c1c(=Cc2[n-]c(=O)[n-]c2O)cc(C)n1-c1cccc(C[N-]C(=O)C2CCC2)c1 (protonated)
C=c1/c(=C/c2[n-]c(=O)[n-]c2O)cc(C)n1-c1cccc(C[N-]C(=O)C2CCC2)c1 (cis-trans isomerization)
C=c1/c(=C/c2[n-]c(=O)[n-]c2O)cc(C)n1-c1cccc(C[N-]C(=O)C2CCC2)c1 (3D coordinates assigned)
C=c1/c(=C/c2[n-]c(=O)[n-]c2O)cc(C)n1-c1cccc(C[N-]C(=O)C2CCC2)c1 (nonaromatic ring conformer: 179.83417926155255 kcal/mol)

>  <smiles>  (952) 
C=c1c(=Cc2[nH]c(=O)[nH]c2O)cc(C)n1-c1cccc(CNC(=O)C2CCC2)c1

>  <score_type>  (952) 
oracle

>  <origin>  (952) 
adg

>  <m_score__min__energy>  (952) 
-14.99

>  <m_primary>  (952) 
energy

$$$$
84:0
     RDKit          3D

 29 31  0  0  0  0  0  0  0  0999 V2000
   58.6110   26.0150   46.4690 C   0  0  0  0  0  0  0  0  0  0  0  0
   58.8510   27.3300   46.2320 N   0  0  0  0  0  0  0  0  0  0  0  0
   57.8690   28.1830   45.8160 C   0  0  0  0  0  0  0  0  0  0  0  0
   58.1170   29.4480   45.6240 N   0  0  0  0  0  0  0  0  0  0  0  0
   59.0000   30.2560   46.4170 C   0  0  0  0  0  0  0  0  0  0  0  0
   60.0830   30.6490   45.9080 O   0  0  0  0  0  0  0  0  0  0  0  0
   58.6980   30.5900   47.8270 C   0  0  0  0  0  0  0  0  0  0  0  0
   58.5610   31.9280   48.2280 C   0  0  0  0  0  0  0  0  0  0  0  0
   58.2830   32.2410   49.5600 C   0  0  0  0  0  0  0  0  0  0  0  0
   58.1580   31.2240   50.5130 C   0  0  0  0  0  0  0  0  0  0  0  0
   57.8780   31.6330   52.2040 S   0  0  0  0  0  0  0  0  0  0  0  0
   59.1680   32.0980   52.8180 O   0  0  0  0  0  0  0  0  0  0  0  0
   56.8550   32.7310   52.3060 O   0  0  0  0  0  0  0  0  0  0  0  0
   57.3070   30.2330   53.0600 N   0  0  0  0  0  0  0  0  0  0  0  0
   56.2490   30.6100   53.9970 C   0  0  0  0  0  0  0  0  0  0  0  0
   55.0330   29.7020   53.8040 C   0  0  0  0  0  0  0  0  0  0  0  0
   53.8980   30.4490   53.1520 C   0  0  0  0  0  0  0  0  0  0  0  0
   53.9950   30.8520   51.8090 C   0  0  0  0  0  0  0  0  0  0  0  0
   52.9160   31.4840   51.1840 C   0  0  0  0  0  0  0  0  0  0  0  0
   51.7310   31.7130   51.8890 C   0  0  0  0  0  0  0  0  0  0  0  0
   50.6580   32.3340   51.2630 O   0  0  0  0  0  0  0  0  0  0  0  0
   51.6260   31.3130   53.2250 C   0  0  0  0  0  0  0  0  0  0  0  0
   52.7030   30.6790   53.8550 C   0  0  0  0  0  0  0  0  0  0  0  0
   58.2670   29.8850   50.1150 C   0  0  0  0  0  0  0  0  0  0  0  0
   58.5270   29.5690   48.7780 C   0  0  0  0  0  0  0  0  0  0  0  0
   56.5660   27.6960   45.6360 C   0  0  0  0  0  0  0  0  0  0  0  0
   55.5410   28.5410   45.2240 O   0  0  0  0  0  0  0  0  0  0  0  0
   56.3020   26.3430   45.8730 C   0  0  0  0  0  0  0  0  0  0  0  0
   57.3280   25.4960   46.2930 C   0  0  0  0  0  0  0  0  0  0  0  0
  1  2  1  0
  2  3  1  0
  3  4  2  0
  4  5  1  0
  5  6  2  0
  5  7  1  0
  7  8  2  0
  8  9  1  0
  9 10  2  0
 10 11  1  0
 11 12  2  0
 11 13  2  0
 11 14  1  0
 14 15  1  0
 15 16  1  0
 16 17  1  0
 17 18  2  0
 18 19  1  0
 19 20  2  0
 20 21  1  0
 20 22  1  0
 22 23  2  0
 10 24  1  0
 24 25  2  0
  3 26  1  0
 26 27  1  0
 26 28  2  0
 28 29  1  0
 29  1  2  0
 25  7  1  0
 23 17  1  0
M  CHG  4   2  -1  14  -1  21  -1  27  -1
M  END
>  <UniqueID>  (953) 
76

>  <SMILES>  (953) 
O=C(/N=c1\[n-]cccc1[O-])c1ccc(S(=O)(=O)[N-]CCc2ccc([O-])cc2)cc1

>  <Energy>  (953) 
47.16508509118419

>  <Genealogy>  (953) 
O=C(N=c1[n-]cccc1[O-])c1ccc(S(=O)(=O)[N-]CCc2ccc([O-])cc2)cc1 (protonated)
O=C(/N=c1\[n-]cccc1[O-])c1ccc(S(=O)(=O)[N-]CCc2ccc([O-])cc2)cc1 (cis-trans isomerization)
O=C(/N=c1\[n-]cccc1[O-])c1ccc(S(=O)(=O)[N-]CCc2ccc([O-])cc2)cc1 (3D coordinates assigned)
O=C(/N=c1\[n-]cccc1[O-])c1ccc(S(=O)(=O)[N-]CCc2ccc([O-])cc2)cc1 (optimized conformer: 47.16508509118419 kcal/mol)

>  <smiles>  (953) 
O=C(N=c1[nH]cccc1O)c1ccc(S(=O)(=O)NCCc2ccc(O)cc2)cc1

>  <score_type>  (953) 
oracle

>  <origin>  (953) 
adg

>  <m_score__min__energy>  (953) 
-17.27

>  <m_primary>  (953) 
energy

$$$$
0:0
     RDKit          3D

 31 34  0  0  0  0  0  0  0  0999 V2000
   54.9450   26.3460   45.9720 O   0  0  0  0  0  0  0  0  0  0  0  0
   55.9360   25.4230   46.2950 C   0  0  0  0  0  0  0  0  0  0  0  0
   55.7150   24.3390   47.0560 N   0  0  0  0  0  0  0  0  0  0  0  0
   56.9160   23.7220   47.0560 C   0  0  0  0  0  0  0  0  0  0  0  0
   57.1220   22.6420   47.6660 O   0  0  0  0  0  0  0  0  0  0  0  0
   57.8750   24.3500   46.3420 N   0  0  0  0  0  0  0  0  0  0  0  0
   57.2540   25.4480   45.8820 C   0  0  0  0  0  0  0  0  0  0  0  0
   57.8820   26.4080   44.9620 C   0  0  0  0  0  0  0  0  0  0  0  0
   57.9620   27.7400   45.1490 C   0  0  0  0  0  0  0  0  0  0  0  0
   57.2680   28.6480   44.3650 C   0  0  0  0  0  0  0  0  0  0  0  0
   57.5210   29.9000   44.8830 C   0  0  0  0  0  0  0  0  0  0  0  0
   56.9590   31.1780   44.3370 C   0  0  0  0  0  0  0  0  0  0  0  0
   58.3730   29.8130   45.9280 N   0  0  0  0  0  0  0  0  0  0  0  0
   58.8820   30.9240   46.6870 C   0  0  0  0  0  0  0  0  0  0  0  0
   59.3260   32.0810   46.0320 C   0  0  0  0  0  0  0  0  0  0  0  0
   59.8090   33.1660   46.7670 C   0  0  0  0  0  0  0  0  0  0  0  0
   59.8390   33.1150   48.1700 C   0  0  0  0  0  0  0  0  0  0  0  0
   60.3510   34.2550   48.9540 C   0  0  0  0  0  0  0  0  0  0  0  0
   59.5390   34.9620   49.6080 O   0  0  0  0  0  0  0  0  0  0  0  0
   61.7430   34.5930   48.9970 N   0  0  0  0  0  0  0  0  0  0  0  0
   63.0110   33.5180   49.4940 S   0  0  0  0  0  0  0  0  0  0  0  0
   63.9020   34.2100   50.4860 O   0  0  0  0  0  0  0  0  0  0  0  0
   62.4210   32.2850   50.1240 O   0  0  0  0  0  0  0  0  0  0  0  0
   63.9770   33.0830   48.0490 C   0  0  0  0  0  0  0  0  0  0  0  0
   63.3420   32.0490   47.1360 C   0  0  0  0  0  0  0  0  0  0  0  0
   63.3680   33.5130   46.7250 C   0  0  0  0  0  0  0  0  0  0  0  0
   59.4160   31.9470   48.8240 C   0  0  0  0  0  0  0  0  0  0  0  0
   58.9320   30.8600   48.0890 C   0  0  0  0  0  0  0  0  0  0  0  0
   58.5000   29.7520   48.7400 F   0  0  0  0  0  0  0  0  0  0  0  0
   58.6770   28.4990   46.0900 C   0  0  0  0  0  0  0  0  0  0  0  0
   59.6230   28.0640   46.9380 C   0  0  0  0  0  0  0  0  0  0  0  0
  1  2  1  0
  2  3  1  0
  3  4  1  0
  4  5  2  0
  4  6  1  0
  6  7  1  0
  7  8  1  0
  8  9  2  0
  9 10  1  0
 10 11  2  0
 11 12  1  0
 11 13  1  0
 13 14  1  0
 14 15  2  0
 15 16  1  0
 16 17  2  0
 17 18  1  0
 18 19  2  0
 18 20  1  0
 20 21  1  0
 21 22  2  0
 21 23  2  0
 21 24  1  0
 24 25  1  0
 25 26  1  0
 17 27  1  0
 27 28  2  0
 28 29  1  0
 13 30  1  0
 30 31  2  0
  7  2  2  0
 30  9  1  0
 28 14  1  0
 26 24  1  0
M  CHG  3   3  -1   6  -1  20  -1
M  END
>  <UniqueID>  (954) 
1

>  <SMILES>  (954) 
C=c1/c(=C\c2[n-]c(=O)[n-]c2O)cc(C)n1-c1ccc(C(=O)[N-]S(=O)(=O)C2CC2)cc1F

>  <Energy>  (954) 
394.0809019125506

>  <Genealogy>  (954) 
C=c1c(=Cc2[n-]c(=O)[n-]c2O)cc(C)n1-c1ccc(C(=O)[N-]S(=O)(=O)C2CC2)cc1F (protonated)
C=c1/c(=C\c2[n-]c(=O)[n-]c2O)cc(C)n1-c1ccc(C(=O)[N-]S(=O)(=O)C2CC2)cc1F (cis-trans isomerization)
C=c1/c(=C\c2[n-]c(=O)[n-]c2O)cc(C)n1-c1ccc(C(=O)[N-]S(=O)(=O)C2CC2)cc1F (3D coordinates assigned)
C=c1/c(=C\c2[n-]c(=O)[n-]c2O)cc(C)n1-c1ccc(C(=O)[N-]S(=O)(=O)C2CC2)cc1F (nonaromatic ring conformer: 394.0809019125506 kcal/mol)

>  <smiles>  (954) 
C=c1c(=Cc2[nH]c(=O)[nH]c2O)cc(C)n1-c1ccc(C(=O)NS(=O)(=O)C2CC2)cc1F

>  <score_type>  (954) 
oracle

>  <origin>  (954) 
adg

>  <m_score__min__energy>  (954) 
-14.26

>  <m_primary>  (954) 
energy

$$$$
16:0
     RDKit          3D

 33 35  0  0  0  0  0  0  0  0999 V2000
   58.3180   25.5310   48.1700 O   0  0  0  0  0  0  0  0  0  0  0  0
   58.2100   26.4700   47.3360 C   0  0  0  0  0  0  0  0  0  0  0  0
   59.1950   27.5870   47.3490 C   0  0  0  0  0  0  0  0  0  0  0  0
   58.9830   28.3810   48.5120 O   0  0  0  0  0  0  0  0  0  0  0  0
   59.1120   29.7720   48.5060 C   0  0  0  0  0  0  0  0  0  0  0  0
   58.4800   30.4770   49.3370 O   0  0  0  0  0  0  0  0  0  0  0  0
   59.9770   30.4150   47.5140 C   0  0  0  0  0  0  0  0  0  0  0  0
   61.2200   30.1970   47.5310 O   0  0  0  0  0  0  0  0  0  0  0  0
   59.4010   31.2720   46.5220 N   0  0  0  0  0  0  0  0  0  0  0  0
   58.4990   30.8460   45.4890 C   0  0  0  0  0  0  0  0  0  0  0  0
   58.5460   29.5020   45.0980 C   0  0  0  0  0  0  0  0  0  0  0  0
   57.6490   29.0060   44.1490 C   0  0  0  0  0  0  0  0  0  0  0  0
   56.7070   29.8560   43.5660 C   0  0  0  0  0  0  0  0  0  0  0  0
   56.6810   31.2110   43.9090 C   0  0  0  0  0  0  0  0  0  0  0  0
   57.5780   31.7270   44.8570 C   0  0  0  0  0  0  0  0  0  0  0  0
   57.5620   33.1800   45.1230 C   0  0  0  0  0  0  0  0  0  0  0  0
   56.6650   33.6810   45.8570 O   0  0  0  0  0  0  0  0  0  0  0  0
   58.5790   34.0200   44.5590 N   0  0  0  0  0  0  0  0  0  0  0  0
   59.2700   35.0730   45.2960 C   0  0  0  0  0  0  0  0  0  0  0  0
   59.9740   34.5130   46.5000 C   0  0  0  0  0  0  0  0  0  0  0  0
   61.2410   33.9190   46.3690 C   0  0  0  0  0  0  0  0  0  0  0  0
   61.9030   33.4130   47.4930 C   0  0  0  0  0  0  0  0  0  0  0  0
   61.3070   33.4960   48.7540 C   0  0  0  0  0  0  0  0  0  0  0  0
   60.0490   34.0890   48.8920 C   0  0  0  0  0  0  0  0  0  0  0  0
   59.3820   34.5990   47.7710 C   0  0  0  0  0  0  0  0  0  0  0  0
   57.1520   26.4810   46.3710 N   0  0  0  0  0  0  0  0  0  0  0  0
   56.5800   25.3310   45.7290 C   0  0  0  0  0  0  0  0  0  0  0  0
   57.3700   24.2370   45.3280 C   0  0  0  0  0  0  0  0  0  0  0  0
   56.7780   23.1280   44.7110 C   0  0  0  0  0  0  0  0  0  0  0  0
   55.4000   23.1060   44.4900 C   0  0  0  0  0  0  0  0  0  0  0  0
   54.6060   24.1740   44.9140 C   0  0  0  0  0  0  0  0  0  0  0  0
   55.1920   25.2830   45.5350 C   0  0  0  0  0  0  0  0  0  0  0  0
   54.3920   26.3410   45.9490 O   0  0  0  0  0  0  0  0  0  0  0  0
  1  2  2  0
  2  3  1  0
  3  4  1  0
  4  5  1  0
  5  6  2  0
  5  7  1  0
  7  8  2  0
  7  9  1  0
  9 10  1  0
 10 11  2  0
 11 12  1  0
 12 13  2  0
 13 14  1  0
 14 15  2  0
 15 16  1  0
 16 17  2  0
 16 18  1  0
 18 19  1  0
 19 20  1  0
 20 21  2  0
 21 22  1  0
 22 23  2  0
 23 24  1  0
 24 25  2  0
  2 26  1  0
 26 27  1  0
 27 28  2  0
 28 29  1  0
 29 30  2  0
 30 31  1  0
 31 32  2  0
 32 33  1  0
 15 10  1  0
 25 20  1  0
 32 27  1  0
M  CHG  4   9  -1  18  -1  26  -1  33  -1
M  END
>  <UniqueID>  (955) 
16

>  <SMILES>  (955) 
O=C(COC(=O)C(=O)[N-]c1ccccc1C(=O)[N-]Cc1ccccc1)[N-]c1ccccc1[O-]

>  <Energy>  (955) 
61.05448506024187

>  <Genealogy>  (955) 
O=C(COC(=O)C(=O)[N-]c1ccccc1C(=O)[N-]Cc1ccccc1)[N-]c1ccccc1[O-] (protonated)
O=C(COC(=O)C(=O)[N-]c1ccccc1C(=O)[N-]Cc1ccccc1)[N-]c1ccccc1[O-] (3D coordinates assigned)
O=C(COC(=O)C(=O)[N-]c1ccccc1C(=O)[N-]Cc1ccccc1)[N-]c1ccccc1[O-] (optimized conformer: 61.05448506024187 kcal/mol)

>  <smiles>  (955) 
O=C(COC(=O)C(=O)Nc1ccccc1C(=O)NCc1ccccc1)Nc1ccccc1O

>  <score_type>  (955) 
oracle

>  <origin>  (955) 
adg

>  <m_score__min__energy>  (955) 
-16.539999999999999

>  <m_primary>  (955) 
energy

$$$$
28:0
     RDKit          3D

 23 25  0  0  0  0  0  0  0  0999 V2000
   57.1550   30.5910   44.0260 C   0  0  0  0  0  0  0  0  0  0  0  0
   57.8210   30.1530   45.1080 C   0  0  0  0  0  0  0  0  0  0  0  0
   57.8180   28.8510   45.6360 C   0  0  0  0  0  0  0  0  0  0  0  0
   57.3400   27.6940   45.1350 C   0  0  0  0  0  0  0  0  0  0  0  0
   57.1820   26.4320   45.8860 C   0  0  0  0  0  0  0  0  0  0  0  0
   55.9130   25.9690   46.2780 C   0  0  0  0  0  0  0  0  0  0  0  0
   54.7690   26.7070   45.9970 O   0  0  0  0  0  0  0  0  0  0  0  0
   55.7980   24.7840   46.9300 N   0  0  0  0  0  0  0  0  0  0  0  0
   56.8890   24.0230   47.2000 C   0  0  0  0  0  0  0  0  0  0  0  0
   56.7580   22.9300   47.8100 O   0  0  0  0  0  0  0  0  0  0  0  0
   58.1210   24.4360   46.8060 N   0  0  0  0  0  0  0  0  0  0  0  0
   58.2900   25.6140   46.1510 C   0  0  0  0  0  0  0  0  0  0  0  0
   59.4480   25.9630   45.7950 O   0  0  0  0  0  0  0  0  0  0  0  0
   58.4480   28.9290   46.8660 C   0  0  0  0  0  0  0  0  0  0  0  0
   58.8610   30.2360   47.0230 C   0  0  0  0  0  0  0  0  0  0  0  0
   59.6030   30.7550   48.2170 C   0  0  0  0  0  0  0  0  0  0  0  0
   58.4920   30.9780   45.9550 N   0  0  0  0  0  0  0  0  0  0  0  0
   58.7490   32.3850   45.7940 C   0  0  0  0  0  0  0  0  0  0  0  0
   57.7610   33.2360   45.2750 C   0  0  0  0  0  0  0  0  0  0  0  0
   58.0450   34.5940   45.1060 C   0  0  0  0  0  0  0  0  0  0  0  0
   59.3070   35.0860   45.4460 C   0  0  0  0  0  0  0  0  0  0  0  0
   60.2700   34.2090   45.9470 C   0  0  0  0  0  0  0  0  0  0  0  0
   59.9750   32.8910   46.1050 N   0  0  0  0  0  0  0  0  0  0  0  0
  1  2  2  0
  2  3  1  0
  3  4  2  3
  4  5  1  0
  5  6  2  0
  6  7  1  0
  6  8  1  0
  8  9  1  0
  9 10  2  0
  9 11  1  0
 11 12  1  0
 12 13  2  0
  3 14  1  0
 14 15  2  0
 15 16  1  0
 15 17  1  0
 17 18  1  0
 18 19  2  0
 19 20  1  0
 20 21  2  0
 21 22  1  0
 22 23  2  0
 17  2  1  0
 23 18  1  0
 12  5  1  0
M  CHG  3   7  -1   8  -1  11  -1
M  END
>  <UniqueID>  (956) 
27

>  <SMILES>  (956) 
C=c1c(=Cc2c([O-])[n-]c(=O)[n-]c2=O)cc(C)n1-c1ccccn1

>  <Energy>  (956) 
86.24268458116954

>  <Genealogy>  (956) 
C=c1c(=Cc2c([O-])[n-]c(=O)[n-]c2=O)cc(C)n1-c1ccccn1 (protonated)
C=c1c(=Cc2c([O-])[n-]c(=O)[n-]c2=O)cc(C)n1-c1ccccn1 (3D coordinates assigned)
C=c1c(=Cc2c([O-])[n-]c(=O)[n-]c2=O)cc(C)n1-c1ccccn1 (optimized conformer: 86.24268458116954 kcal/mol)

>  <smiles>  (956) 
C=c1c(=Cc2c(O)[nH]c(=O)[nH]c2=O)cc(C)n1-c1ccccn1

>  <score_type>  (956) 
oracle

>  <origin>  (956) 
adg

>  <m_score__min__energy>  (956) 
-15.119999999999999

>  <m_primary>  (956) 
energy

$$$$
29:0
     RDKit          3D

 30 33  0  0  0  0  0  0  0  0999 V2000
   56.4690   29.6200   44.3800 C   0  0  0  0  0  0  0  0  0  0  0  0
   57.6710   29.1640   44.7650 C   0  0  0  0  0  0  0  0  0  0  0  0
   58.1250   27.8330   44.7480 C   0  0  0  0  0  0  0  0  0  0  0  0
   57.4770   26.6780   44.4960 C   0  0  0  0  0  0  0  0  0  0  0  0
   56.9960   25.7260   45.5080 C   0  0  0  0  0  0  0  0  0  0  0  0
   57.7560   24.7470   46.0290 N   0  0  0  0  0  0  0  0  0  0  0  0
   56.9680   24.2190   46.9920 C   0  0  0  0  0  0  0  0  0  0  0  0
   57.3300   23.2490   47.7060 O   0  0  0  0  0  0  0  0  0  0  0  0
   55.7680   24.8200   47.1350 N   0  0  0  0  0  0  0  0  0  0  0  0
   55.8070   25.7820   46.1990 C   0  0  0  0  0  0  0  0  0  0  0  0
   54.7910   26.7070   46.0000 O   0  0  0  0  0  0  0  0  0  0  0  0
   59.4710   27.8780   45.0750 C   0  0  0  0  0  0  0  0  0  0  0  0
   59.7790   29.1990   45.3280 C   0  0  0  0  0  0  0  0  0  0  0  0
   61.1270   29.6980   45.7470 C   0  0  0  0  0  0  0  0  0  0  0  0
   58.6890   29.9770   45.1510 N   0  0  0  0  0  0  0  0  0  0  0  0
   58.6620   31.4080   45.2760 C   0  0  0  0  0  0  0  0  0  0  0  0
   58.0040   32.1820   44.3110 C   0  0  0  0  0  0  0  0  0  0  0  0
   57.9620   33.5710   44.4340 C   0  0  0  0  0  0  0  0  0  0  0  0
   58.5830   34.1990   45.5160 C   0  0  0  0  0  0  0  0  0  0  0  0
   59.2580   33.4400   46.4870 C   0  0  0  0  0  0  0  0  0  0  0  0
   59.9250   34.1190   47.6220 C   0  0  0  0  0  0  0  0  0  0  0  0
   59.2850   34.9740   48.2930 O   0  0  0  0  0  0  0  0  0  0  0  0
   61.2870   33.8160   47.9740 N   0  0  0  0  0  0  0  0  0  0  0  0
   62.3320   33.8450   46.9450 C   0  0  0  0  0  0  0  0  0  0  0  0
   63.4900   32.9350   47.3650 C   0  0  0  0  0  0  0  0  0  0  0  0
   63.9420   33.2650   48.6650 O   0  0  0  0  0  0  0  0  0  0  0  0
   62.9190   33.0030   49.6090 C   0  0  0  0  0  0  0  0  0  0  0  0
   61.7110   33.9170   49.3720 C   0  0  0  0  0  0  0  0  0  0  0  0
   59.2730   32.0370   46.3730 C   0  0  0  0  0  0  0  0  0  0  0  0
   59.8450   31.2730   47.3410 F   0  0  0  0  0  0  0  0  0  0  0  0
  1  2  2  0
  2  3  1  0
  3  4  2  3
  4  5  1  0
  5  6  1  0
  6  7  1  0
  7  8  2  0
  7  9  1  0
  9 10  1  0
 10 11  1  0
  3 12  1  0
 12 13  2  0
 13 14  1  0
 13 15  1  0
 15 16  1  0
 16 17  2  0
 17 18  1  0
 18 19  2  0
 19 20  1  0
 20 21  1  0
 21 22  2  0
 21 23  1  0
 23 24  1  0
 24 25  1  0
 25 26  1  0
 26 27  1  0
 27 28  1  0
 20 29  2  0
 29 30  1  0
 15  2  1  0
 29 16  1  0
 10  5  2  0
 28 23  1  0
M  CHG  3   6  -1   9  -1  11  -1
M  END
>  <UniqueID>  (957) 
28

>  <SMILES>  (957) 
C=c1c(=Cc2[n-]c(=O)[n-]c2[O-])cc(C)n1-c1cccc(C(=O)N2CCOCC2)c1F

>  <Energy>  (957) 
133.30499074912555

>  <Genealogy>  (957) 
C=c1c(=Cc2[n-]c(=O)[n-]c2[O-])cc(C)n1-c1cccc(C(=O)N2CCOCC2)c1F (protonated)
C=c1c(=Cc2[n-]c(=O)[n-]c2[O-])cc(C)n1-c1cccc(C(=O)N2CCOCC2)c1F (3D coordinates assigned)
C=c1c(=Cc2[n-]c(=O)[n-]c2[O-])cc(C)n1-c1cccc(C(=O)N2CCOCC2)c1F (nonaromatic ring conformer: 133.30499074912555 kcal/mol)

>  <smiles>  (957) 
C=c1c(=Cc2[nH]c(=O)[nH]c2O)cc(C)n1-c1cccc(C(=O)N2CCOCC2)c1F

>  <score_type>  (957) 
oracle

>  <origin>  (957) 
adg

>  <m_score__min__energy>  (957) 
-16.719999999999999

>  <m_primary>  (957) 
energy

$$$$
36:0
     RDKit          3D

 31 33  0  0  0  0  0  0  0  0999 V2000
   60.6050   30.1540   48.9570 C   0  0  0  0  0  0  0  0  0  0  0  0
   59.3980   30.6630   49.6820 C   0  0  0  0  0  0  0  0  0  0  0  0
   58.6440   29.9420   50.5860 C   0  0  0  0  0  0  0  0  0  0  0  0
   57.7020   30.8510   51.0230 C   0  0  0  0  0  0  0  0  0  0  0  0
   56.7820   30.5880   51.9020 N   0  0  0  0  0  0  0  0  0  0  0  0
   56.7680   29.4630   52.7950 C   0  0  0  0  0  0  0  0  0  0  0  0
   57.8360   29.0190   53.2990 O   0  0  0  0  0  0  0  0  0  0  0  0
   55.4660   28.8120   53.1360 C   0  0  0  0  0  0  0  0  0  0  0  0
   54.3200   29.6480   52.6330 C   0  0  0  0  0  0  0  0  0  0  0  0
   54.0210   29.6910   51.2640 C   0  0  0  0  0  0  0  0  0  0  0  0
   52.9800   30.4960   50.7930 C   0  0  0  0  0  0  0  0  0  0  0  0
   52.2260   31.2800   51.6840 C   0  0  0  0  0  0  0  0  0  0  0  0
   51.1290   32.1410   51.1880 C   0  0  0  0  0  0  0  0  0  0  0  0
   50.9740   32.3320   49.9520 O   0  0  0  0  0  0  0  0  0  0  0  0
   50.2610   32.7580   52.0810 O   0  0  0  0  0  0  0  0  0  0  0  0
   52.5360   31.2420   53.0540 C   0  0  0  0  0  0  0  0  0  0  0  0
   53.5750   30.4350   53.5250 C   0  0  0  0  0  0  0  0  0  0  0  0
   57.8840   32.0510   50.4350 N   0  0  0  0  0  0  0  0  0  0  0  0
   58.9210   31.9280   49.6200 N   0  0  0  0  0  0  0  0  0  0  0  0
   59.4620   33.0420   48.8410 C   0  0  0  0  0  0  0  0  0  0  0  0
   58.8900   33.0350   47.4480 C   0  0  0  0  0  0  0  0  0  0  0  0
   58.8880   34.2140   46.6820 C   0  0  0  0  0  0  0  0  0  0  0  0
   58.3870   34.2040   45.3790 C   0  0  0  0  0  0  0  0  0  0  0  0
   57.8910   33.0200   44.8260 C   0  0  0  0  0  0  0  0  0  0  0  0
   57.9100   31.8280   45.5700 C   0  0  0  0  0  0  0  0  0  0  0  0
   57.4010   30.5660   44.9900 C   0  0  0  0  0  0  0  0  0  0  0  0
   56.1690   30.4690   44.7380 O   0  0  0  0  0  0  0  0  0  0  0  0
   58.2680   29.4410   44.7340 N   0  0  0  0  0  0  0  0  0  0  0  0
   57.8580   28.4360   43.7520 C   0  0  0  0  0  0  0  0  0  0  0  0
   59.4690   29.2220   45.5480 C   0  0  0  0  0  0  0  0  0  0  0  0
   58.3900   31.8480   46.8890 C   0  0  0  0  0  0  0  0  0  0  0  0
  1  2  1  0
  2  3  2  0
  3  4  1  0
  4  5  2  3
  5  6  1  0
  6  7  2  0
  6  8  1  0
  8  9  1  0
  9 10  2  0
 10 11  1  0
 11 12  2  0
 12 13  1  0
 13 14  2  0
 13 15  1  0
 12 16  1  0
 16 17  2  0
  4 18  1  0
 18 19  1  0
 19 20  1  0
 20 21  1  0
 21 22  2  0
 22 23  1  0
 23 24  2  0
 24 25  1  0
 25 26  1  0
 26 27  2  0
 26 28  1  0
 28 29  1  0
 28 30  1  0
 25 31  2  0
 19  2  1  0
 31 21  1  0
 17  9  1  0
M  CHG  2  15  -1  18  -1
M  END
>  <UniqueID>  (958) 
34

>  <SMILES>  (958) 
Cc1cc(=NC(=O)Cc2ccc(C(=O)[O-])cc2)[n-]n1Cc1cccc(C(=O)N(C)C)c1

>  <Energy>  (958) 
86.70679861197561

>  <Genealogy>  (958) 
Cc1cc(=NC(=O)Cc2ccc(C(=O)[O-])cc2)[n-]n1Cc1cccc(C(=O)N(C)C)c1 (protonated)
Cc1cc(=NC(=O)Cc2ccc(C(=O)[O-])cc2)[n-]n1Cc1cccc(C(=O)N(C)C)c1 (3D coordinates assigned)
Cc1cc(=NC(=O)Cc2ccc(C(=O)[O-])cc2)[n-]n1Cc1cccc(C(=O)N(C)C)c1 (optimized conformer: 86.70679861197561 kcal/mol)

>  <smiles>  (958) 
Cc1cc(=NC(=O)Cc2ccc(C(=O)O)cc2)[nH]n1Cc1cccc(C(=O)N(C)C)c1

>  <score_type>  (958) 
oracle

>  <origin>  (958) 
adg

>  <m_score__min__energy>  (958) 
-14.09

>  <m_primary>  (958) 
energy

$$$$
37:0
     RDKit          3D

 21 22  0  0  0  0  0  0  0  0999 V2000
   56.2770   29.8760   42.5160 O   0  0  0  0  0  0  0  0  0  0  0  0
   56.6910   29.7780   43.7010 C   0  0  0  0  0  0  0  0  0  0  0  0
   57.2800   28.4740   44.1710 C   0  0  0  0  0  0  0  0  0  0  0  0
   57.1950   28.3380   45.6980 C   0  0  0  0  0  0  0  0  0  0  0  0
   57.2540   26.8890   46.1350 C   0  0  0  0  0  0  0  0  0  0  0  0
   56.0790   26.1250   46.2510 C   0  0  0  0  0  0  0  0  0  0  0  0
   54.8360   26.6990   46.0060 O   0  0  0  0  0  0  0  0  0  0  0  0
   56.1510   24.8130   46.6040 N   0  0  0  0  0  0  0  0  0  0  0  0
   57.3490   24.2180   46.8430 C   0  0  0  0  0  0  0  0  0  0  0  0
   57.3980   23.0030   47.1680 O   0  0  0  0  0  0  0  0  0  0  0  0
   58.4970   24.9330   46.7310 N   0  0  0  0  0  0  0  0  0  0  0  0
   58.4790   26.2440   46.3830 C   0  0  0  0  0  0  0  0  0  0  0  0
   59.5700   26.8680   46.2810 O   0  0  0  0  0  0  0  0  0  0  0  0
   56.4310   30.8450   44.6220 N   0  0  0  0  0  0  0  0  0  0  0  0
   57.2050   31.8600   44.8870 C   0  0  0  0  0  0  0  0  0  0  0  0
   57.8180   32.6300   43.8780 C   0  0  0  0  0  0  0  0  0  0  0  0
   58.6310   33.7090   44.2350 C   0  0  0  0  0  0  0  0  0  0  0  0
   58.8210   34.0220   45.5820 C   0  0  0  0  0  0  0  0  0  0  0  0
   59.8360   35.3750   46.0440 Cl  0  0  0  0  0  0  0  0  0  0  0  0
   58.1810   33.2530   46.5560 C   0  0  0  0  0  0  0  0  0  0  0  0
   57.3950   32.2060   46.1890 N   0  0  0  0  0  0  0  0  0  0  0  0
  1  2  2  0
  2  3  1  0
  3  4  1  0
  4  5  1  0
  5  6  2  0
  6  7  1  0
  6  8  1  0
  8  9  1  0
  9 10  2  0
  9 11  1  0
 11 12  1  0
 12 13  2  0
  2 14  1  0
 14 15  2  3
 15 16  1  0
 16 17  2  0
 17 18  1  0
 18 19  1  0
 18 20  2  0
 20 21  1  0
 12  5  1  0
 21 15  1  0
M  CHG  3   7  -1  11  -1  21  -1
M  END
>  <UniqueID>  (959) 
35

>  <SMILES>  (959) 
O=C(CCc1c([O-])[nH]c(=O)[n-]c1=O)N=c1ccc(Cl)c[n-]1

>  <Energy>  (959) 
38.603978238523

>  <Genealogy>  (959) 
O=C(CCc1c([O-])[nH]c(=O)[n-]c1=O)N=c1ccc(Cl)c[n-]1 (protonated)
O=C(CCc1c([O-])[nH]c(=O)[n-]c1=O)N=c1ccc(Cl)c[n-]1 (3D coordinates assigned)
O=C(CCc1c([O-])[nH]c(=O)[n-]c1=O)N=c1ccc(Cl)c[n-]1 (optimized conformer: 38.603978238523 kcal/mol)

>  <smiles>  (959) 
O=C(CCc1c(O)[nH]c(=O)[nH]c1=O)N=c1ccc(Cl)c[nH]1

>  <score_type>  (959) 
oracle

>  <origin>  (959) 
adg

>  <m_score__min__energy>  (959) 
-14.630000000000001

>  <m_primary>  (959) 
energy

$$$$
41:0
     RDKit          3D

 35 38  0  0  0  0  0  0  0  0999 V2000
   57.4550   30.4460   50.8940 O   0  0  0  0  0  0  0  0  0  0  0  0
   58.5430   30.9770   50.5410 C   0  0  0  0  0  0  0  0  0  0  0  0
   58.5560   32.2380   49.7780 C   0  0  0  0  0  0  0  0  0  0  0  0
   59.5200   32.6100   48.9220 C   0  0  0  0  0  0  0  0  0  0  0  0
   59.2920   33.3410   47.6570 C   0  0  0  0  0  0  0  0  0  0  0  0
   59.7720   34.6570   47.4720 C   0  0  0  0  0  0  0  0  0  0  0  0
   59.5930   35.3230   46.2430 C   0  0  0  0  0  0  0  0  0  0  0  0
   58.9460   34.6840   45.1740 C   0  0  0  0  0  0  0  0  0  0  0  0
   58.4900   33.3810   45.3680 C   0  0  0  0  0  0  0  0  0  0  0  0
   58.6640   32.7210   46.5680 C   0  0  0  0  0  0  0  0  0  0  0  0
   58.0640   31.3940   46.4230 C   0  0  0  0  0  0  0  0  0  0  0  0
   58.0050   30.5140   47.3230 O   0  0  0  0  0  0  0  0  0  0  0  0
   57.5200   31.2350   45.1080 N   0  0  0  0  0  0  0  0  0  0  0  0
   56.8510   30.0740   44.5860 C   0  0  0  0  0  0  0  0  0  0  0  0
   55.5910   30.0710   44.5050 O   0  0  0  0  0  0  0  0  0  0  0  0
   57.6340   28.8640   44.1430 C   0  0  0  0  0  0  0  0  0  0  0  0
   57.9030   27.8990   45.2730 C   0  0  0  0  0  0  0  0  0  0  0  0
   59.2260   27.5750   45.6130 C   0  0  0  0  0  0  0  0  0  0  0  0
   59.4910   26.6660   46.6420 C   0  0  0  0  0  0  0  0  0  0  0  0
   58.4360   26.0700   47.3370 C   0  0  0  0  0  0  0  0  0  0  0  0
   57.1160   26.3700   46.9950 C   0  0  0  0  0  0  0  0  0  0  0  0
   56.8430   27.2750   45.9630 C   0  0  0  0  0  0  0  0  0  0  0  0
   55.5200   27.5460   45.6280 O   0  0  0  0  0  0  0  0  0  0  0  0
   57.7940   32.4820   44.4550 C   0  0  0  0  0  0  0  0  0  0  0  0
   57.4900   32.7510   43.2630 O   0  0  0  0  0  0  0  0  0  0  0  0
   59.7820   30.3320   50.8350 N   0  0  0  0  0  0  0  0  0  0  0  0
   60.7640   29.6240   49.5990 S   0  0  0  0  0  0  0  0  0  0  0  0
   61.5050   28.4400   50.1590 O   0  0  0  0  0  0  0  0  0  0  0  0
   59.8850   29.1510   48.4760 O   0  0  0  0  0  0  0  0  0  0  0  0
   61.8910   30.8330   48.9910 C   0  0  0  0  0  0  0  0  0  0  0  0
   61.9590   31.1200   47.6190 C   0  0  0  0  0  0  0  0  0  0  0  0
   62.8880   32.0480   47.1400 C   0  0  0  0  0  0  0  0  0  0  0  0
   63.7540   32.6960   48.0280 C   0  0  0  0  0  0  0  0  0  0  0  0
   63.6940   32.4100   49.3940 C   0  0  0  0  0  0  0  0  0  0  0  0
   62.7670   31.4810   49.8760 C   0  0  0  0  0  0  0  0  0  0  0  0
  1  2  2  0
  2  3  1  0
  3  4  2  3
  4  5  1  0
  5  6  2  0
  6  7  1  0
  7  8  2  0
  8  9  1  0
  9 10  2  0
 10 11  1  0
 11 12  2  0
 11 13  1  0
 13 14  1  0
 14 15  2  0
 14 16  1  0
 16 17  1  0
 17 18  2  0
 18 19  1  0
 19 20  2  0
 20 21  1  0
 21 22  2  0
 22 23  1  0
 13 24  1  0
 24 25  2  0
  2 26  1  0
 26 27  1  0
 27 28  2  0
 27 29  2  0
 27 30  1  0
 30 31  2  0
 31 32  1  0
 32 33  2  0
 33 34  1  0
 34 35  2  0
 10  5  1  0
 22 17  1  0
 35 30  1  0
 24  9  1  0
M  CHG  2  23  -1  26  -1
M  END
>  <UniqueID>  (960) 
39

>  <SMILES>  (960) 
O=C(C=Cc1cccc2c1C(=O)N(C(=O)Cc1ccccc1[O-])C2=O)[N-]S(=O)(=O)c1ccccc1

>  <Energy>  (960) 
98.97910019899419

>  <Genealogy>  (960) 
O=C(C=Cc1cccc2c1C(=O)N(C(=O)Cc1ccccc1[O-])C2=O)[N-]S(=O)(=O)c1ccccc1 (protonated)
O=C(C=Cc1cccc2c1C(=O)N(C(=O)Cc1ccccc1[O-])C2=O)[N-]S(=O)(=O)c1ccccc1 (3D coordinates assigned)
O=C(C=Cc1cccc2c1C(=O)N(C(=O)Cc1ccccc1[O-])C2=O)[N-]S(=O)(=O)c1ccccc1 (nonaromatic ring conformer: 98.97910019899419 kcal/mol)

>  <smiles>  (960) 
O=C(C=Cc1cccc2c1C(=O)N(C(=O)Cc1ccccc1O)C2=O)NS(=O)(=O)c1ccccc1

>  <score_type>  (960) 
oracle

>  <origin>  (960) 
adg

>  <m_score__min__energy>  (960) 
-14.779999999999999

>  <m_primary>  (960) 
energy

$$$$
60:0
     RDKit          3D

 29 31  0  0  0  0  0  0  0  0999 V2000
   58.1870   29.6990   45.9650 O   0  0  0  0  0  0  0  0  0  0  0  0
   58.1090   28.5030   46.3550 C   0  0  0  0  0  0  0  0  0  0  0  0
   57.7360   27.4290   45.3820 C   0  0  0  0  0  0  0  0  0  0  0  0
   57.2120   26.2440   46.1310 C   0  0  0  0  0  0  0  0  0  0  0  0
   57.9910   25.3310   46.7430 N   0  0  0  0  0  0  0  0  0  0  0  0
   57.0970   24.5170   47.3460 C   0  0  0  0  0  0  0  0  0  0  0  0
   57.4450   23.5160   48.0250 O   0  0  0  0  0  0  0  0  0  0  0  0
   55.8030   24.8610   47.1650 N   0  0  0  0  0  0  0  0  0  0  0  0
   55.8920   25.9620   46.4020 C   0  0  0  0  0  0  0  0  0  0  0  0
   54.7930   26.7040   45.9810 O   0  0  0  0  0  0  0  0  0  0  0  0
   58.4680   28.1560   47.6980 N   0  0  0  0  0  0  0  0  0  0  0  0
   59.5260   28.8660   48.4060 C   0  0  0  0  0  0  0  0  0  0  0  0
   58.9330   30.0350   49.1380 C   0  0  0  0  0  0  0  0  0  0  0  0
   58.1420   29.7960   50.0930 O   0  0  0  0  0  0  0  0  0  0  0  0
   59.3100   31.3970   48.8310 N   0  0  0  0  0  0  0  0  0  0  0  0
   58.2810   32.4320   48.6610 C   0  0  0  0  0  0  0  0  0  0  0  0
   58.4790   33.1490   47.3520 C   0  0  0  0  0  0  0  0  0  0  0  0
   59.3120   34.2770   47.2750 C   0  0  0  0  0  0  0  0  0  0  0  0
   59.4250   34.9900   46.0720 C   0  0  0  0  0  0  0  0  0  0  0  0
   58.7120   34.5780   44.9430 C   0  0  0  0  0  0  0  0  0  0  0  0
   57.8880   33.4520   45.0080 C   0  0  0  0  0  0  0  0  0  0  0  0
   57.7730   32.7350   46.2090 C   0  0  0  0  0  0  0  0  0  0  0  0
   60.6860   31.7540   48.6030 C   0  0  0  0  0  0  0  0  0  0  0  0
   61.3500   31.2640   47.4690 C   0  0  0  0  0  0  0  0  0  0  0  0
   62.6850   31.6080   47.2340 C   0  0  0  0  0  0  0  0  0  0  0  0
   63.3640   32.4450   48.1220 C   0  0  0  0  0  0  0  0  0  0  0  0
   62.7150   32.9290   49.2580 C   0  0  0  0  0  0  0  0  0  0  0  0
   61.3800   32.5860   49.5090 C   0  0  0  0  0  0  0  0  0  0  0  0
   60.6160   33.1790   50.9840 Cl  0  0  0  0  0  0  0  0  0  0  0  0
  1  2  2  0
  2  3  1  0
  3  4  1  0
  4  5  1  0
  5  6  1  0
  6  7  2  0
  6  8  1  0
  8  9  1  0
  9 10  1  0
  2 11  1  0
 11 12  1  0
 12 13  1  0
 13 14  2  0
 13 15  1  0
 15 16  1  0
 16 17  1  0
 17 18  2  0
 18 19  1  0
 19 20  2  0
 20 21  1  0
 21 22  2  0
 15 23  1  0
 23 24  2  0
 24 25  1  0
 25 26  2  0
 26 27  1  0
 27 28  2  0
 28 29  1  0
  9  4  2  0
 22 17  1  0
 28 23  1  0
M  CHG  3   5  -1   8  -1  10  -1
M  END
>  <UniqueID>  (961) 
58

>  <SMILES>  (961) 
O=C(Cc1[n-]c(=O)[n-]c1[O-])NCC(=O)N(Cc1ccccc1)c1ccccc1Cl

>  <Energy>  (961) 
75.40797677274733

>  <Genealogy>  (961) 
O=C(Cc1[n-]c(=O)[n-]c1[O-])NCC(=O)N(Cc1ccccc1)c1ccccc1Cl (protonated)
O=C(Cc1[n-]c(=O)[n-]c1[O-])NCC(=O)N(Cc1ccccc1)c1ccccc1Cl (3D coordinates assigned)
O=C(Cc1[n-]c(=O)[n-]c1[O-])NCC(=O)N(Cc1ccccc1)c1ccccc1Cl (optimized conformer: 75.40797677274733 kcal/mol)

>  <smiles>  (961) 
O=C(Cc1[nH]c(=O)[nH]c1O)NCC(=O)N(Cc1ccccc1)c1ccccc1Cl

>  <score_type>  (961) 
oracle

>  <origin>  (961) 
adg

>  <m_score__min__energy>  (961) 
-17.620000000000001

>  <m_primary>  (961) 
energy

$$$$
66:0
     RDKit          3D

 30 33  0  0  0  0  0  0  0  0999 V2000
   55.4390   26.7100   46.4040 O   0  0  0  0  0  0  0  0  0  0  0  0
   55.4000   25.5410   45.6420 C   0  0  0  0  0  0  0  0  0  0  0  0
   54.2390   24.8360   45.5950 N   0  0  0  0  0  0  0  0  0  0  0  0
   54.1460   23.6700   44.9080 C   0  0  0  0  0  0  0  0  0  0  0  0
   53.0580   23.0420   44.8810 O   0  0  0  0  0  0  0  0  0  0  0  0
   55.2290   23.1790   44.2540 N   0  0  0  0  0  0  0  0  0  0  0  0
   56.4130   23.8420   44.2620 C   0  0  0  0  0  0  0  0  0  0  0  0
   57.3970   23.3560   43.6420 O   0  0  0  0  0  0  0  0  0  0  0  0
   56.5300   25.0650   44.9430 C   0  0  0  0  0  0  0  0  0  0  0  0
   57.8190   25.7930   44.9400 C   0  0  0  0  0  0  0  0  0  0  0  0
   57.9030   27.1340   44.8630 C   0  0  0  0  0  0  0  0  0  0  0  0
   57.4130   27.9250   43.8310 C   0  0  0  0  0  0  0  0  0  0  0  0
   57.7370   29.2290   44.1480 C   0  0  0  0  0  0  0  0  0  0  0  0
   57.3920   30.4190   43.3050 C   0  0  0  0  0  0  0  0  0  0  0  0
   58.3950   29.2800   45.3290 N   0  0  0  0  0  0  0  0  0  0  0  0
   58.8910   30.4720   45.9620 C   0  0  0  0  0  0  0  0  0  0  0  0
   58.1070   31.6350   45.9930 C   0  0  0  0  0  0  0  0  0  0  0  0
   58.5950   32.7970   46.5940 C   0  0  0  0  0  0  0  0  0  0  0  0
   59.8710   32.8110   47.1780 C   0  0  0  0  0  0  0  0  0  0  0  0
   60.4140   34.0760   47.7870 C   0  0  0  0  0  0  0  0  0  0  0  0
   61.7770   33.8260   48.3750 C   0  0  0  0  0  0  0  0  0  0  0  0
   61.9530   33.7980   49.7680 C   0  0  0  0  0  0  0  0  0  0  0  0
   63.2260   33.6020   50.3120 C   0  0  0  0  0  0  0  0  0  0  0  0
   64.3320   33.4430   49.4720 C   0  0  0  0  0  0  0  0  0  0  0  0
   64.1650   33.4830   48.0840 C   0  0  0  0  0  0  0  0  0  0  0  0
   62.8940   33.6780   47.5360 C   0  0  0  0  0  0  0  0  0  0  0  0
   60.6600   31.6510   47.1340 C   0  0  0  0  0  0  0  0  0  0  0  0
   60.1720   30.4890   46.5330 C   0  0  0  0  0  0  0  0  0  0  0  0
   58.5070   28.0040   45.7760 C   0  0  0  0  0  0  0  0  0  0  0  0
   59.0780   27.6630   46.9410 C   0  0  0  0  0  0  0  0  0  0  0  0
  1  2  1  0
  2  3  1  0
  3  4  1  0
  4  5  2  0
  4  6  1  0
  6  7  1  0
  7  8  2  0
  7  9  1  0
  9 10  1  0
 10 11  2  0
 11 12  1  0
 12 13  2  0
 13 14  1  0
 13 15  1  0
 15 16  1  0
 16 17  2  0
 17 18  1  0
 18 19  2  0
 19 20  1  0
 20 21  1  0
 21 22  2  0
 22 23  1  0
 23 24  2  0
 24 25  1  0
 25 26  2  0
 19 27  1  0
 27 28  2  0
 15 29  1  0
 29 30  2  0
  9  2  2  0
 29 11  1  0
 28 16  1  0
 26 21  1  0
M  CHG  2   3  -1   6  -1
M  END
>  <UniqueID>  (962) 
64

>  <SMILES>  (962) 
C=c1/c(=C/c2c(O)[n-]c(=O)[n-]c2=O)cc(C)n1-c1ccc(Cc2ccccc2)cc1

>  <Energy>  (962) 
97.5090296484659

>  <Genealogy>  (962) 
C=c1c(=Cc2c(O)[n-]c(=O)[n-]c2=O)cc(C)n1-c1ccc(Cc2ccccc2)cc1 (protonated)
C=c1/c(=C/c2c(O)[n-]c(=O)[n-]c2=O)cc(C)n1-c1ccc(Cc2ccccc2)cc1 (cis-trans isomerization)
C=c1/c(=C/c2c(O)[n-]c(=O)[n-]c2=O)cc(C)n1-c1ccc(Cc2ccccc2)cc1 (3D coordinates assigned)
C=c1/c(=C/c2c(O)[n-]c(=O)[n-]c2=O)cc(C)n1-c1ccc(Cc2ccccc2)cc1 (optimized conformer: 97.5090296484659 kcal/mol)

>  <smiles>  (962) 
C=c1c(=Cc2c(O)[nH]c(=O)[nH]c2=O)cc(C)n1-c1ccc(Cc2ccccc2)cc1

>  <score_type>  (962) 
oracle

>  <origin>  (962) 
adg

>  <m_score__min__energy>  (962) 
-14.050000000000001

>  <m_primary>  (962) 
energy

$$$$
68:0
     RDKit          3D

 35 38  0  0  0  0  0  0  0  0999 V2000
   61.5560   28.1750   53.1040 C   0  0  0  0  0  0  0  0  0  0  0  0
   61.8730   29.5420   53.3600 O   0  0  0  0  0  0  0  0  0  0  0  0
   62.4940   30.4020   52.4430 C   0  0  0  0  0  0  0  0  0  0  0  0
   61.8640   31.5690   51.9680 C   0  0  0  0  0  0  0  0  0  0  0  0
   62.5100   32.4110   51.0540 C   0  0  0  0  0  0  0  0  0  0  0  0
   63.7860   32.0640   50.5720 C   0  0  0  0  0  0  0  0  0  0  0  0
   64.4210   30.9100   51.0550 C   0  0  0  0  0  0  0  0  0  0  0  0
   63.7800   30.0750   51.9890 C   0  0  0  0  0  0  0  0  0  0  0  0
   64.3910   28.9130   52.4880 O   0  0  0  0  0  0  0  0  0  0  0  0
   65.5800   28.3330   51.9600 C   0  0  0  0  0  0  0  0  0  0  0  0
   64.5230   32.9710   49.6140 C   0  0  0  0  0  0  0  0  0  0  0  0
   63.6190   33.8550   48.8460 N   0  0  0  0  0  0  0  0  0  0  0  0
   62.8820   33.1420   47.7760 C   0  0  0  0  0  0  0  0  0  0  0  0
   63.0250   31.6210   47.9230 C   0  0  0  0  0  0  0  0  0  0  0  0
   61.7070   30.9340   47.6780 C   0  0  0  0  0  0  0  0  0  0  0  0
   61.3790   30.4780   46.3910 C   0  0  0  0  0  0  0  0  0  0  0  0
   60.1770   29.8010   46.1650 C   0  0  0  0  0  0  0  0  0  0  0  0
   59.2850   29.5710   47.2270 C   0  0  0  0  0  0  0  0  0  0  0  0
   58.0320   28.9020   47.0240 N   0  0  0  0  0  0  0  0  0  0  0  0
   57.2750   28.9100   45.8100 C   0  0  0  0  0  0  0  0  0  0  0  0
   56.6960   29.9630   45.4270 O   0  0  0  0  0  0  0  0  0  0  0  0
   57.2730   27.6910   44.9380 C   0  0  0  0  0  0  0  0  0  0  0  0
   57.1700   26.4280   45.7650 C   0  0  0  0  0  0  0  0  0  0  0  0
   55.9280   25.9880   46.2540 C   0  0  0  0  0  0  0  0  0  0  0  0
   54.7690   26.7120   45.9990 O   0  0  0  0  0  0  0  0  0  0  0  0
   55.8500   24.8430   46.9830 N   0  0  0  0  0  0  0  0  0  0  0  0
   56.9560   24.1010   47.2460 C   0  0  0  0  0  0  0  0  0  0  0  0
   56.8590   23.0450   47.9270 O   0  0  0  0  0  0  0  0  0  0  0  0
   58.1650   24.4930   46.7730 N   0  0  0  0  0  0  0  0  0  0  0  0
   58.2980   25.6300   46.0380 C   0  0  0  0  0  0  0  0  0  0  0  0
   59.4390   25.9560   45.6080 O   0  0  0  0  0  0  0  0  0  0  0  0
   59.5990   30.0510   48.5040 C   0  0  0  0  0  0  0  0  0  0  0  0
   60.8100   30.7120   48.7340 C   0  0  0  0  0  0  0  0  0  0  0  0
   62.7130   34.5770   49.7610 C   0  0  0  0  0  0  0  0  0  0  0  0
   61.7830   33.6250   50.5320 C   0  0  0  0  0  0  0  0  0  0  0  0
  1  2  1  0
  2  3  1  0
  3  4  2  0
  4  5  1  0
  5  6  2  0
  6  7  1  0
  7  8  2  0
  8  9  1  0
  9 10  1  0
  6 11  1  0
 11 12  1  0
 12 13  1  0
 13 14  1  0
 14 15  1  0
 15 16  2  0
 16 17  1  0
 17 18  2  0
 18 19  1  0
 19 20  1  0
 20 21  2  0
 20 22  1  0
 22 23  1  0
 23 24  2  0
 24 25  1  0
 24 26  1  0
 26 27  1  0
 27 28  2  0
 27 29  1  0
 29 30  1  0
 30 31  2  0
 18 32  1  0
 32 33  2  0
 12 34  1  0
 34 35  1  0
  8  3  1  0
 33 15  1  0
 35  5  1  0
 30 23  1  0
M  CHG  4  19  -1  25  -1  26  -1  29  -1
M  END
>  <UniqueID>  (963) 
66

>  <SMILES>  (963) 
COc1cc2c(cc1OC)CN(CCc1ccc([N-]C(=O)Cc3c([O-])[n-]c(=O)[n-]c3=O)cc1)CC2

>  <Energy>  (963) 
71.18179581145863

>  <Genealogy>  (963) 
COc1cc2c(cc1OC)CN(CCc1ccc([N-]C(=O)Cc3c([O-])[n-]c(=O)[n-]c3=O)cc1)CC2 (protonated)
COc1cc2c(cc1OC)CN(CCc1ccc([N-]C(=O)Cc3c([O-])[n-]c(=O)[n-]c3=O)cc1)CC2 (3D coordinates assigned)
COc1cc2c(cc1OC)CN(CCc1ccc([N-]C(=O)Cc3c([O-])[n-]c(=O)[n-]c3=O)cc1)CC2 (nonaromatic ring conformer: 71.18179581145863 kcal/mol)

>  <smiles>  (963) 
COc1cc2c(cc1OC)CN(CCc1ccc(NC(=O)Cc3c(O)[nH]c(=O)[nH]c3=O)cc1)CC2

>  <score_type>  (963) 
oracle

>  <origin>  (963) 
adg

>  <m_score__min__energy>  (963) 
-17.170000000000002

>  <m_primary>  (963) 
energy

$$$$
71:0
     RDKit          3D

 24 26  0  0  0  0  0  0  0  0999 V2000
   60.6910   27.5710   52.2150 C   0  0  0  0  0  0  0  0  0  0  0  0
   60.1880   28.2430   53.4870 C   0  0  0  0  0  0  0  0  0  0  0  0
   58.8670   28.8620   53.2550 N   0  0  0  0  0  0  0  0  0  0  0  0
   57.7210   28.1770   53.5950 C   0  0  0  0  0  0  0  0  0  0  0  0
   57.7690   27.0320   54.1230 O   0  0  0  0  0  0  0  0  0  0  0  0
   56.5000   28.7720   53.3360 C   0  0  0  0  0  0  0  0  0  0  0  0
   55.2680   28.2990   53.5750 N   0  0  0  0  0  0  0  0  0  0  0  0
   54.4810   29.3000   53.1000 C   0  0  0  0  0  0  0  0  0  0  0  0
   52.9900   29.2680   53.1940 C   0  0  0  0  0  0  0  0  0  0  0  0
   52.3920   30.1910   52.1700 C   0  0  0  0  0  0  0  0  0  0  0  0
   52.3510   29.8170   50.8160 C   0  0  0  0  0  0  0  0  0  0  0  0
   51.7610   30.6590   49.8700 C   0  0  0  0  0  0  0  0  0  0  0  0
   51.1970   31.8760   50.2670 C   0  0  0  0  0  0  0  0  0  0  0  0
   50.6120   32.7090   49.3210 O   0  0  0  0  0  0  0  0  0  0  0  0
   51.2210   32.2500   51.6170 C   0  0  0  0  0  0  0  0  0  0  0  0
   50.6550   33.4540   52.0180 O   0  0  0  0  0  0  0  0  0  0  0  0
   51.8120   31.4080   52.5660 C   0  0  0  0  0  0  0  0  0  0  0  0
   55.1600   30.3650   52.5980 N   0  0  0  0  0  0  0  0  0  0  0  0
   56.4370   29.9890   52.7620 C   0  0  0  0  0  0  0  0  0  0  0  0
   57.5510   30.6900   52.4130 N   0  0  0  0  0  0  0  0  0  0  0  0
   57.4330   31.9990   51.7510 C   0  0  0  0  0  0  0  0  0  0  0  0
   58.0630   31.9510   50.3620 C   0  0  0  0  0  0  0  0  0  0  0  0
   58.7780   30.1040   52.6460 C   0  0  0  0  0  0  0  0  0  0  0  0
   59.8320   30.7080   52.2940 O   0  0  0  0  0  0  0  0  0  0  0  0
  1  2  1  0
  2  3  1  0
  3  4  1  0
  4  5  2  0
  4  6  1  0
  6  7  1  0
  7  8  1  0
  8  9  1  0
  9 10  1  0
 10 11  2  0
 11 12  1  0
 12 13  2  0
 13 14  1  0
 13 15  1  0
 15 16  1  0
 15 17  2  0
  8 18  2  0
 18 19  1  0
 19 20  1  0
 20 21  1  0
 21 22  1  0
 20 23  1  0
 23 24  2  0
 23  3  1  0
 19  6  2  0
 17 10  1  0
M  CHG  3   7  -1  14  -1  16  -1
M  END
>  <UniqueID>  (964) 
69

>  <SMILES>  (964) 
CCn1c(=O)c2[n-]c(Cc3ccc([O-])c([O-])c3)nc2n(CC)c1=O

>  <Energy>  (964) 
76.04606117742647

>  <Genealogy>  (964) 
CCn1c(=O)c2[n-]c(Cc3ccc([O-])c([O-])c3)nc2n(CC)c1=O (protonated)
CCn1c(=O)c2[n-]c(Cc3ccc([O-])c([O-])c3)nc2n(CC)c1=O (3D coordinates assigned)
CCn1c(=O)c2[n-]c(Cc3ccc([O-])c([O-])c3)nc2n(CC)c1=O (optimized conformer: 76.04606117742647 kcal/mol)

>  <smiles>  (964) 
CCn1c(=O)c2[nH]c(Cc3ccc(O)c(O)c3)nc2n(CC)c1=O

>  <score_type>  (964) 
oracle

>  <origin>  (964) 
adg

>  <m_score__min__energy>  (964) 
-16.43

>  <m_primary>  (964) 
energy

$$$$
75:0
     RDKit          3D

 25 27  0  0  0  0  0  0  0  0999 V2000
   58.8410   30.5320   47.3410 C   0  0  0  0  0  0  0  0  0  0  0  0
   58.4240   31.2890   46.3120 C   0  0  0  0  0  0  0  0  0  0  0  0
   57.9640   30.8300   45.0640 C   0  0  0  0  0  0  0  0  0  0  0  0
   57.9530   29.5970   44.5180 C   0  0  0  0  0  0  0  0  0  0  0  0
   57.4180   28.3770   45.1510 C   0  0  0  0  0  0  0  0  0  0  0  0
   56.0330   28.1940   45.2760 C   0  0  0  0  0  0  0  0  0  0  0  0
   55.1490   29.1790   44.8520 O   0  0  0  0  0  0  0  0  0  0  0  0
   55.5470   27.0490   45.8220 N   0  0  0  0  0  0  0  0  0  0  0  0
   56.3790   26.0630   46.2390 C   0  0  0  0  0  0  0  0  0  0  0  0
   55.9060   25.0130   46.7460 O   0  0  0  0  0  0  0  0  0  0  0  0
   57.7230   26.2040   46.1040 N   0  0  0  0  0  0  0  0  0  0  0  0
   58.2590   27.3280   45.5640 C   0  0  0  0  0  0  0  0  0  0  0  0
   59.5100   27.4160   45.4340 O   0  0  0  0  0  0  0  0  0  0  0  0
   57.4810   31.9400   44.3960 C   0  0  0  0  0  0  0  0  0  0  0  0
   57.7090   33.0280   45.2080 C   0  0  0  0  0  0  0  0  0  0  0  0
   57.3030   34.4310   44.8670 C   0  0  0  0  0  0  0  0  0  0  0  0
   58.2840   32.6440   46.3730 N   0  0  0  0  0  0  0  0  0  0  0  0
   58.6080   33.5460   47.4930 C   0  0  0  0  0  0  0  0  0  0  0  0
   60.0660   33.4420   47.8600 C   0  0  0  0  0  0  0  0  0  0  0  0
   61.0530   33.4340   46.8600 C   0  0  0  0  0  0  0  0  0  0  0  0
   62.4050   33.3300   47.2020 C   0  0  0  0  0  0  0  0  0  0  0  0
   62.7830   33.2340   48.5450 C   0  0  0  0  0  0  0  0  0  0  0  0
   64.4790   33.1010   48.9720 Cl  0  0  0  0  0  0  0  0  0  0  0  0
   61.8070   33.2440   49.5460 C   0  0  0  0  0  0  0  0  0  0  0  0
   60.4550   33.3490   49.2070 C   0  0  0  0  0  0  0  0  0  0  0  0
  1  2  2  0
  2  3  1  0
  3  4  2  0
  4  5  1  0
  5  6  2  0
  6  7  1  0
  6  8  1  0
  8  9  1  0
  9 10  2  0
  9 11  1  0
 11 12  1  0
 12 13  2  0
  3 14  1  0
 14 15  2  0
 15 16  1  0
 15 17  1  0
 17 18  1  0
 18 19  1  0
 19 20  2  0
 20 21  1  0
 21 22  2  0
 22 23  1  0
 22 24  1  0
 24 25  2  0
 17  2  1  0
 25 19  1  0
 12  5  1  0
M  CHG  3   7  -1   8  -1  11  -1
M  END
>  <UniqueID>  (965) 
73

>  <SMILES>  (965) 
C=c1/c(=C\c2c([O-])[n-]c(=O)[n-]c2=O)cc(C)n1Cc1ccc(Cl)cc1

>  <Energy>  (965) 
83.3667155658118

>  <Genealogy>  (965) 
C=c1c(=Cc2c([O-])[n-]c(=O)[n-]c2=O)cc(C)n1Cc1ccc(Cl)cc1 (protonated)
C=c1/c(=C\c2c([O-])[n-]c(=O)[n-]c2=O)cc(C)n1Cc1ccc(Cl)cc1 (cis-trans isomerization)
C=c1/c(=C\c2c([O-])[n-]c(=O)[n-]c2=O)cc(C)n1Cc1ccc(Cl)cc1 (3D coordinates assigned)
C=c1/c(=C\c2c([O-])[n-]c(=O)[n-]c2=O)cc(C)n1Cc1ccc(Cl)cc1 (optimized conformer: 83.3667155658118 kcal/mol)

>  <smiles>  (965) 
C=c1c(=Cc2c(O)[nH]c(=O)[nH]c2=O)cc(C)n1Cc1ccc(Cl)cc1

>  <score_type>  (965) 
oracle

>  <origin>  (965) 
adg

>  <m_score__min__energy>  (965) 
-15.92

>  <m_primary>  (965) 
energy

$$$$
4:0
     RDKit          3D

 31 34  0  0  0  0  0  0  0  0999 V2000
   57.3900   23.7860   46.6190 C   0  0  0  0  0  0  0  0  0  0  0  0
   56.3460   24.5300   46.2420 C   0  0  0  0  0  0  0  0  0  0  0  0
   55.2070   23.9700   45.7930 N   0  0  0  0  0  0  0  0  0  0  0  0
   54.3670   25.0130   45.6620 C   0  0  0  0  0  0  0  0  0  0  0  0
   53.1800   24.8850   45.2650 O   0  0  0  0  0  0  0  0  0  0  0  0
   54.8970   26.2060   45.9960 N   0  0  0  0  0  0  0  0  0  0  0  0
   56.1660   25.9140   46.3450 C   0  0  0  0  0  0  0  0  0  0  0  0
   57.0280   26.8840   46.7020 C   0  0  0  0  0  0  0  0  0  0  0  0
   57.6260   27.8730   45.7960 C   0  0  0  0  0  0  0  0  0  0  0  0
   58.9490   28.1290   45.7390 N   0  0  0  0  0  0  0  0  0  0  0  0
   59.0390   29.1550   44.8650 C   0  0  0  0  0  0  0  0  0  0  0  0
   60.1380   29.6770   44.5380 O   0  0  0  0  0  0  0  0  0  0  0  0
   57.8450   29.5730   44.3900 N   0  0  0  0  0  0  0  0  0  0  0  0
   57.5920   30.6280   43.4050 C   0  0  0  0  0  0  0  0  0  0  0  0
   58.1550   31.9800   43.8710 C   0  0  0  0  0  0  0  0  0  0  0  0
   57.3620   32.6100   45.0270 C   0  0  0  0  0  0  0  0  0  0  0  0
   58.1380   33.6740   45.7080 N   0  0  0  0  0  0  0  0  0  0  0  0
   57.7160   33.8770   47.1070 C   0  0  0  0  0  0  0  0  0  0  0  0
   58.2040   32.7440   48.0230 C   0  0  0  0  0  0  0  0  0  0  0  0
   59.6700   32.5850   47.9680 N   0  0  0  0  0  0  0  0  0  0  0  0
   60.3860   33.6630   48.6860 C   0  0  0  0  0  0  0  0  0  0  0  0
   61.8420   33.3120   48.8410 C   0  0  0  0  0  0  0  0  0  0  0  0
   62.2950   32.6250   49.9800 C   0  0  0  0  0  0  0  0  0  0  0  0
   63.6530   32.3180   50.1230 C   0  0  0  0  0  0  0  0  0  0  0  0
   64.5640   32.6960   49.1340 C   0  0  0  0  0  0  0  0  0  0  0  0
   64.1210   33.3830   48.0000 C   0  0  0  0  0  0  0  0  0  0  0  0
   62.7650   33.6930   47.8530 C   0  0  0  0  0  0  0  0  0  0  0  0
   60.1340   32.4020   46.5760 C   0  0  0  0  0  0  0  0  0  0  0  0
   59.6010   33.4860   45.6150 C   0  0  0  0  0  0  0  0  0  0  0  0
   56.9500   28.7760   45.0010 C   0  0  0  0  0  0  0  0  0  0  0  0
   55.5650   28.8700   44.8720 O   0  0  0  0  0  0  0  0  0  0  0  0
  1  2  2  0
  2  3  1  0
  3  4  1  0
  4  5  2  0
  4  6  1  0
  6  7  1  0
  7  8  2  3
  8  9  1  0
  9 10  1  0
 10 11  1  0
 11 12  2  0
 11 13  1  0
 13 14  1  0
 14 15  1  0
 15 16  1  0
 16 17  1  0
 17 18  1  0
 18 19  1  0
 19 20  1  0
 20 21  1  0
 21 22  1  0
 22 23  2  0
 23 24  1  0
 24 25  2  0
 25 26  1  0
 26 27  2  0
 20 28  1  0
 28 29  1  0
 13 30  1  0
 30 31  1  0
  7  2  1  0
 30  9  2  0
 29 17  1  0
 27 22  1  0
M  CHG  3   3  -1   6  -1  10  -1
M  END
>  <UniqueID>  (966) 
4

>  <SMILES>  (966) 
C=c1[n-]c(=O)[n-]c1=Cc1[n-]c(=O)n(CCCN2CCN(Cc3ccccc3)CC2)c1O

>  <Energy>  (966) 
134.45576820017143

>  <Genealogy>  (966) 
C=c1[n-]c(=O)[n-]c1=Cc1[n-]c(=O)n(CCCN2CCN(Cc3ccccc3)CC2)c1O (protonated)
C=c1[n-]c(=O)[n-]c1=Cc1[n-]c(=O)n(CCCN2CCN(Cc3ccccc3)CC2)c1O (3D coordinates assigned)
C=c1[n-]c(=O)[n-]c1=Cc1[n-]c(=O)n(CCCN2CCN(Cc3ccccc3)CC2)c1O (nonaromatic ring conformer: 134.45576820017143 kcal/mol)

>  <smiles>  (966) 
C=c1[nH]c(=O)[nH]c1=Cc1[nH]c(=O)n(CCCN2CCN(Cc3ccccc3)CC2)c1O

>  <score_type>  (966) 
oracle

>  <origin>  (966) 
adg

>  <m_score__min__energy>  (966) 
-15.25

>  <m_primary>  (966) 
energy

$$$$
31:0
     RDKit          3D

 23 25  0  0  0  0  0  0  0  0999 V2000
   54.5070   30.6220   50.8850 O   0  0  0  0  0  0  0  0  0  0  0  0
   54.0210   30.6320   52.0480 C   0  0  0  0  0  0  0  0  0  0  0  0
   52.5340   30.4760   52.2250 C   0  0  0  0  0  0  0  0  0  0  0  0
   51.7970   30.8760   50.9820 C   0  0  0  0  0  0  0  0  0  0  0  0
   51.7350   30.1190   49.8710 N   0  0  0  0  0  0  0  0  0  0  0  0
   51.0290   30.8840   49.0090 C   0  0  0  0  0  0  0  0  0  0  0  0
   50.7550   30.5110   47.8360 O   0  0  0  0  0  0  0  0  0  0  0  0
   50.6450   32.0820   49.4980 N   0  0  0  0  0  0  0  0  0  0  0  0
   51.1440   32.0620   50.7470 C   0  0  0  0  0  0  0  0  0  0  0  0
   51.0230   33.1140   51.6420 O   0  0  0  0  0  0  0  0  0  0  0  0
   54.8820   30.9290   53.1550 N   0  0  0  0  0  0  0  0  0  0  0  0
   55.9290   30.0820   53.6440 C   0  0  0  0  0  0  0  0  0  0  0  0
   55.6170   28.9280   54.3790 C   0  0  0  0  0  0  0  0  0  0  0  0
   56.6320   28.0720   54.8130 C   0  0  0  0  0  0  0  0  0  0  0  0
   57.9620   28.3490   54.4980 C   0  0  0  0  0  0  0  0  0  0  0  0
   58.2810   29.4850   53.7520 C   0  0  0  0  0  0  0  0  0  0  0  0
   57.2730   30.3620   53.3210 C   0  0  0  0  0  0  0  0  0  0  0  0
   57.6350   31.5650   52.6140 N   0  0  0  0  0  0  0  0  0  0  0  0
   57.4310   31.6730   51.1680 C   0  0  0  0  0  0  0  0  0  0  0  0
   58.6280   32.3890   50.5450 C   0  0  0  0  0  0  0  0  0  0  0  0
   58.8650   33.6240   51.1950 O   0  0  0  0  0  0  0  0  0  0  0  0
   59.2490   33.4000   52.5410 C   0  0  0  0  0  0  0  0  0  0  0  0
   58.1070   32.7520   53.3300 C   0  0  0  0  0  0  0  0  0  0  0  0
  1  2  2  0
  2  3  1  0
  3  4  1  0
  4  5  1  0
  5  6  1  0
  6  7  2  0
  6  8  1  0
  8  9  1  0
  9 10  1  0
  2 11  1  0
 11 12  1  0
 12 13  2  0
 13 14  1  0
 14 15  2  0
 15 16  1  0
 16 17  2  0
 17 18  1  0
 18 19  1  0
 19 20  1  0
 20 21  1  0
 21 22  1  0
 22 23  1  0
  9  4  2  0
 17 12  1  0
 23 18  1  0
M  CHG  4   5  -1   8  -1  10  -1  11  -1
M  END
>  <UniqueID>  (967) 
31

>  <SMILES>  (967) 
O=C(Cc1[n-]c(=O)[n-]c1[O-])[N-]c1ccccc1N1CCOCC1

>  <Energy>  (967) 
78.27654614444512

>  <Genealogy>  (967) 
O=C(Cc1[n-]c(=O)[n-]c1[O-])[N-]c1ccccc1N1CCOCC1 (protonated)
O=C(Cc1[n-]c(=O)[n-]c1[O-])[N-]c1ccccc1N1CCOCC1 (3D coordinates assigned)
O=C(Cc1[n-]c(=O)[n-]c1[O-])[N-]c1ccccc1N1CCOCC1 (nonaromatic ring conformer: 78.27654614444512 kcal/mol)

>  <smiles>  (967) 
O=C(Cc1[nH]c(=O)[nH]c1O)Nc1ccccc1N1CCOCC1

>  <score_type>  (967) 
oracle

>  <origin>  (967) 
adg

>  <m_score__min__energy>  (967) 
-16.149999999999999

>  <m_primary>  (967) 
energy

$$$$
36:0
     RDKit          3D

 33 36  0  0  0  0  0  0  0  0999 V2000
   58.4010   28.4810   45.4920 C   0  0  0  0  0  0  0  0  0  0  0  0
   57.5220   27.3490   45.8490 C   0  0  0  0  0  0  0  0  0  0  0  0
   56.1270   27.4350   45.6980 C   0  0  0  0  0  0  0  0  0  0  0  0
   55.5310   28.6040   45.2390 O   0  0  0  0  0  0  0  0  0  0  0  0
   55.3480   26.3620   45.9940 N   0  0  0  0  0  0  0  0  0  0  0  0
   55.8940   25.1950   46.4210 C   0  0  0  0  0  0  0  0  0  0  0  0
   55.1520   24.2160   46.6930 O   0  0  0  0  0  0  0  0  0  0  0  0
   57.2410   25.0800   46.5470 N   0  0  0  0  0  0  0  0  0  0  0  0
   58.0640   26.1230   46.2630 C   0  0  0  0  0  0  0  0  0  0  0  0
   59.3100   25.9790   46.3830 O   0  0  0  0  0  0  0  0  0  0  0  0
   58.7230   29.5050   46.3070 C   0  0  0  0  0  0  0  0  0  0  0  0
   58.4140   30.8210   46.0120 C   0  0  0  0  0  0  0  0  0  0  0  0
   58.7880   31.5760   47.1050 C   0  0  0  0  0  0  0  0  0  0  0  0
   58.5760   33.0550   47.2230 C   0  0  0  0  0  0  0  0  0  0  0  0
   59.3480   30.7900   48.0540 N   0  0  0  0  0  0  0  0  0  0  0  0
   59.8240   31.2320   49.3760 C   0  0  0  0  0  0  0  0  0  0  0  0
   58.7750   30.9810   50.4310 C   0  0  0  0  0  0  0  0  0  0  0  0
   57.7470   31.9120   50.6430 C   0  0  0  0  0  0  0  0  0  0  0  0
   56.7920   31.6960   51.6410 C   0  0  0  0  0  0  0  0  0  0  0  0
   56.8550   30.5470   52.4470 C   0  0  0  0  0  0  0  0  0  0  0  0
   55.8710   30.3440   53.5380 C   0  0  0  0  0  0  0  0  0  0  0  0
   56.1330   30.7570   54.6980 O   0  0  0  0  0  0  0  0  0  0  0  0
   54.5870   29.7470   53.2900 N   0  0  0  0  0  0  0  0  0  0  0  0
   53.6260   30.2300   52.5530 C   0  0  0  0  0  0  0  0  0  0  0  0
   52.7650   31.1220   53.1140 N   0  0  0  0  0  0  0  0  0  0  0  0
   51.7330   31.6720   52.4180 C   0  0  0  0  0  0  0  0  0  0  0  0
   51.5220   31.3200   51.0850 C   0  0  0  0  0  0  0  0  0  0  0  0
   52.3740   30.3930   50.4820 C   0  0  0  0  0  0  0  0  0  0  0  0
   53.4290   29.8400   51.2100 C   0  0  0  0  0  0  0  0  0  0  0  0
   57.8620   29.5980   52.2080 C   0  0  0  0  0  0  0  0  0  0  0  0
   58.8090   29.8090   51.2030 C   0  0  0  0  0  0  0  0  0  0  0  0
   59.3470   29.5200   47.5660 C   0  0  0  0  0  0  0  0  0  0  0  0
   59.9480   28.4910   48.1840 C   0  0  0  0  0  0  0  0  0  0  0  0
  1  2  1  0
  2  3  2  0
  3  4  1  0
  3  5  1  0
  5  6  1  0
  6  7  2  0
  6  8  1  0
  8  9  1  0
  9 10  2  0
  1 11  2  3
 11 12  1  0
 12 13  2  0
 13 14  1  0
 13 15  1  0
 15 16  1  0
 16 17  1  0
 17 18  2  0
 18 19  1  0
 19 20  2  0
 20 21  1  0
 21 22  2  0
 21 23  1  0
 23 24  2  0
 24 25  1  0
 25 26  1  0
 26 27  2  0
 27 28  1  0
 28 29  2  0
 20 30  1  0
 30 31  2  0
 15 32  1  0
 32 33  2  0
  9  2  1  0
 32 11  1  0
 31 17  1  0
 29 24  1  0
M  CHG  4   4  -1   5  -1   8  -1  25  -1
M  END
>  <UniqueID>  (968) 
35

>  <SMILES>  (968) 
C=c1c(=Cc2c([O-])[n-]c(=O)[n-]c2=O)cc(C)n1Cc1ccc(C(=O)/N=c2\cccc[n-]2)cc1

>  <Energy>  (968) 
107.01869236975323

>  <Genealogy>  (968) 
C=c1c(=Cc2c([O-])[n-]c(=O)[n-]c2=O)cc(C)n1Cc1ccc(C(=O)N=c2cccc[n-]2)cc1 (protonated)
C=c1c(=Cc2c([O-])[n-]c(=O)[n-]c2=O)cc(C)n1Cc1ccc(C(=O)/N=c2\cccc[n-]2)cc1 (cis-trans isomerization)
C=c1c(=Cc2c([O-])[n-]c(=O)[n-]c2=O)cc(C)n1Cc1ccc(C(=O)/N=c2\cccc[n-]2)cc1 (3D coordinates assigned)
C=c1c(=Cc2c([O-])[n-]c(=O)[n-]c2=O)cc(C)n1Cc1ccc(C(=O)/N=c2\cccc[n-]2)cc1 (optimized conformer: 107.01869236975323 kcal/mol)

>  <smiles>  (968) 
C=c1c(=Cc2c(O)[nH]c(=O)[nH]c2=O)cc(C)n1Cc1ccc(C(=O)N=c2cccc[nH]2)cc1

>  <score_type>  (968) 
oracle

>  <origin>  (968) 
adg

>  <m_score__min__energy>  (968) 
-17.739999999999998

>  <m_primary>  (968) 
energy

$$$$
43:0
     RDKit          3D

 29 31  0  0  0  0  0  0  0  0999 V2000
   58.8710   33.2890   53.6710 C   0  0  0  0  0  0  0  0  0  0  0  0
   58.8230   32.9460   52.3750 C   0  0  0  0  0  0  0  0  0  0  0  0
   59.1720   33.9070   51.4860 N   0  0  0  0  0  0  0  0  0  0  0  0
   59.3550   33.6540   50.1710 C   0  0  0  0  0  0  0  0  0  0  0  0
   59.6650   34.6100   49.4080 O   0  0  0  0  0  0  0  0  0  0  0  0
   59.2380   32.3790   49.6890 N   0  0  0  0  0  0  0  0  0  0  0  0
   59.4690   32.1010   48.2560 C   0  0  0  0  0  0  0  0  0  0  0  0
   60.8840   32.4520   47.8690 C   0  0  0  0  0  0  0  0  0  0  0  0
   61.9660   31.7560   48.4350 C   0  0  0  0  0  0  0  0  0  0  0  0
   63.2790   32.1000   48.0980 C   0  0  0  0  0  0  0  0  0  0  0  0
   63.5220   33.1410   47.1990 C   0  0  0  0  0  0  0  0  0  0  0  0
   62.4520   33.8390   46.6330 C   0  0  0  0  0  0  0  0  0  0  0  0
   61.1380   33.4990   46.9670 C   0  0  0  0  0  0  0  0  0  0  0  0
   58.8480   31.3670   50.5330 C   0  0  0  0  0  0  0  0  0  0  0  0
   58.7240   30.1960   50.0750 O   0  0  0  0  0  0  0  0  0  0  0  0
   58.5500   31.6270   51.8980 C   0  0  0  0  0  0  0  0  0  0  0  0
   57.9970   30.6290   52.6460 C   0  0  0  0  0  0  0  0  0  0  0  0
   56.6000   30.1500   52.5820 C   0  0  0  0  0  0  0  0  0  0  0  0
   55.6740   30.8580   51.8000 C   0  0  0  0  0  0  0  0  0  0  0  0
   54.3360   30.4520   51.7300 C   0  0  0  0  0  0  0  0  0  0  0  0
   53.4610   31.1860   50.9160 O   0  0  0  0  0  0  0  0  0  0  0  0
   52.0480   31.0040   50.8830 C   0  0  0  0  0  0  0  0  0  0  0  0
   51.3890   32.3240   50.6660 C   0  0  0  0  0  0  0  0  0  0  0  0
   51.0980   33.0550   51.6480 O   0  0  0  0  0  0  0  0  0  0  0  0
   51.0420   32.7250   49.3820 O   0  0  0  0  0  0  0  0  0  0  0  0
   53.9170   29.3330   52.4730 C   0  0  0  0  0  0  0  0  0  0  0  0
   54.8260   28.6440   53.2800 C   0  0  0  0  0  0  0  0  0  0  0  0
   56.1590   29.0530   53.3490 C   0  0  0  0  0  0  0  0  0  0  0  0
   57.0350   28.3750   54.1910 O   0  0  0  0  0  0  0  0  0  0  0  0
  1  2  2  0
  2  3  1  0
  3  4  1  0
  4  5  2  0
  4  6  1  0
  6  7  1  0
  7  8  1  0
  8  9  2  0
  9 10  1  0
 10 11  2  0
 11 12  1  0
 12 13  2  0
  6 14  1  0
 14 15  2  0
 14 16  1  0
 16 17  2  3
 17 18  1  0
 18 19  2  0
 19 20  1  0
 20 21  1  0
 21 22  1  0
 22 23  1  0
 23 24  2  0
 23 25  1  0
 20 26  2  0
 26 27  1  0
 27 28  2  0
 28 29  1  0
 16  2  1  0
 28 18  1  0
 13  8  1  0
M  CHG  3   3  -1  25  -1  29  -1
M  END
>  <UniqueID>  (969) 
42

>  <SMILES>  (969) 
C=c1[n-]c(=O)n(Cc2ccccc2)c(=O)c1=Cc1cc(OCC(=O)[O-])ccc1[O-]

>  <Energy>  (969) 
72.6594492478076

>  <Genealogy>  (969) 
C=c1[n-]c(=O)n(Cc2ccccc2)c(=O)c1=Cc1cc(OCC(=O)[O-])ccc1[O-] (protonated)
C=c1[n-]c(=O)n(Cc2ccccc2)c(=O)c1=Cc1cc(OCC(=O)[O-])ccc1[O-] (3D coordinates assigned)
C=c1[n-]c(=O)n(Cc2ccccc2)c(=O)c1=Cc1cc(OCC(=O)[O-])ccc1[O-] (optimized conformer: 72.6594492478076 kcal/mol)

>  <smiles>  (969) 
C=c1[nH]c(=O)n(Cc2ccccc2)c(=O)c1=Cc1cc(OCC(=O)O)ccc1O

>  <score_type>  (969) 
oracle

>  <origin>  (969) 
adg

>  <m_score__min__energy>  (969) 
-14.42

>  <m_primary>  (969) 
energy

$$$$
63:0
     RDKit          3D

 27 29  0  0  0  0  0  0  0  0999 V2000
   55.8540   24.3580   47.2270 O   0  0  0  0  0  0  0  0  0  0  0  0
   56.4810   25.4900   46.7100 C   0  0  0  0  0  0  0  0  0  0  0  0
   57.8690   25.6450   46.8180 C   0  0  0  0  0  0  0  0  0  0  0  0
   58.4930   26.7790   46.2950 C   0  0  0  0  0  0  0  0  0  0  0  0
   57.7410   27.7630   45.6370 C   0  0  0  0  0  0  0  0  0  0  0  0
   58.4310   28.9630   45.1170 C   0  0  0  0  0  0  0  0  0  0  0  0
   58.1630   30.2580   45.4510 C   0  0  0  0  0  0  0  0  0  0  0  0
   57.3110   31.1310   44.7070 C   0  0  0  0  0  0  0  0  0  0  0  0
   56.9230   30.9140   43.4430 C   0  0  0  0  0  0  0  0  0  0  0  0
   56.9470   32.3170   45.2540 N   0  0  0  0  0  0  0  0  0  0  0  0
   57.4200   32.7490   46.4430 C   0  0  0  0  0  0  0  0  0  0  0  0
   57.0090   33.8530   46.8930 O   0  0  0  0  0  0  0  0  0  0  0  0
   58.3420   32.0070   47.1300 N   0  0  0  0  0  0  0  0  0  0  0  0
   58.8660   32.4850   48.4290 C   0  0  0  0  0  0  0  0  0  0  0  0
   59.5770   33.8390   48.2840 C   0  0  0  0  0  0  0  0  0  0  0  0
   61.0440   33.6720   47.9870 C   0  0  0  0  0  0  0  0  0  0  0  0
   61.5320   33.8960   46.6890 C   0  0  0  0  0  0  0  0  0  0  0  0
   62.9010   33.7890   46.4230 C   0  0  0  0  0  0  0  0  0  0  0  0
   63.7920   33.4660   47.4520 C   0  0  0  0  0  0  0  0  0  0  0  0
   63.3130   33.2510   48.7480 C   0  0  0  0  0  0  0  0  0  0  0  0
   61.9460   33.3550   49.0170 C   0  0  0  0  0  0  0  0  0  0  0  0
   58.7290   30.7820   46.6450 C   0  0  0  0  0  0  0  0  0  0  0  0
   59.5730   30.0990   47.2930 O   0  0  0  0  0  0  0  0  0  0  0  0
   56.3390   27.6250   45.5600 C   0  0  0  0  0  0  0  0  0  0  0  0
   55.5600   28.6210   44.9780 O   0  0  0  0  0  0  0  0  0  0  0  0
   55.7180   26.4840   46.0850 C   0  0  0  0  0  0  0  0  0  0  0  0
   54.3370   26.3420   45.9900 O   0  0  0  0  0  0  0  0  0  0  0  0
  1  2  1  0
  2  3  2  0
  3  4  1  0
  4  5  2  0
  5  6  1  0
  6  7  2  0
  7  8  1  0
  8  9  2  0
  8 10  1  0
 10 11  1  0
 11 12  2  0
 11 13  1  0
 13 14  1  0
 14 15  1  0
 15 16  1  0
 16 17  2  0
 17 18  1  0
 18 19  2  0
 19 20  1  0
 20 21  2  0
 13 22  1  0
 22 23  2  0
  5 24  1  0
 24 25  1  0
 24 26  2  0
 26 27  1  0
 26  2  1  0
 22  7  1  0
 21 16  1  0
M  CHG  3  10  -1  25  -1  27  -1
M  END
>  <UniqueID>  (970) 
60

>  <SMILES>  (970) 
C=c1[n-]c(=O)n(CCc2ccccc2)c(=O)/c1=C/c1ccc(O)c([O-])c1[O-]

>  <Energy>  (970) 
69.14033997590701

>  <Genealogy>  (970) 
C=c1[n-]c(=O)n(CCc2ccccc2)c(=O)c1=Cc1ccc(O)c([O-])c1[O-] (protonated)
C=c1[n-]c(=O)n(CCc2ccccc2)c(=O)/c1=C/c1ccc(O)c([O-])c1[O-] (cis-trans isomerization)
C=c1[n-]c(=O)n(CCc2ccccc2)c(=O)/c1=C/c1ccc(O)c([O-])c1[O-] (3D coordinates assigned)
C=c1[n-]c(=O)n(CCc2ccccc2)c(=O)/c1=C/c1ccc(O)c([O-])c1[O-] (optimized conformer: 69.14033997590701 kcal/mol)

>  <smiles>  (970) 
C=c1[nH]c(=O)n(CCc2ccccc2)c(=O)c1=Cc1ccc(O)c(O)c1O

>  <score_type>  (970) 
oracle

>  <origin>  (970) 
adg

>  <m_score__min__energy>  (970) 
-17.48

>  <m_primary>  (970) 
energy

$$$$
71:0
     RDKit          3D

 28 30  0  0  0  0  0  0  0  0999 V2000
   58.7110   28.6730   44.5980 C   0  0  0  0  0  0  0  0  0  0  0  0
   59.0870   29.1480   45.9370 N   0  0  0  0  0  0  0  0  0  0  0  0
   60.4920   29.6160   45.9440 C   0  0  0  0  0  0  0  0  0  0  0  0
   60.7410   30.6180   47.0750 C   0  0  0  0  0  0  0  0  0  0  0  0
   59.9340   31.8410   46.8810 N   0  0  0  0  0  0  0  0  0  0  0  0
   59.7810   32.7170   48.3870 S   0  0  0  0  0  0  0  0  0  0  0  0
   61.1470   33.0610   48.9130 O   0  0  0  0  0  0  0  0  0  0  0  0
   59.0440   34.0040   48.1380 O   0  0  0  0  0  0  0  0  0  0  0  0
   58.9080   31.7720   49.5960 C   0  0  0  0  0  0  0  0  0  0  0  0
   59.1710   30.4030   49.7450 C   0  0  0  0  0  0  0  0  0  0  0  0
   58.4290   29.6390   50.6470 C   0  0  0  0  0  0  0  0  0  0  0  0
   57.4120   30.2340   51.4050 C   0  0  0  0  0  0  0  0  0  0  0  0
   56.6280   29.4510   52.3090 N   0  0  0  0  0  0  0  0  0  0  0  0
   55.3060   29.8080   52.7390 C   0  0  0  0  0  0  0  0  0  0  0  0
   55.1700   30.4930   53.7890 O   0  0  0  0  0  0  0  0  0  0  0  0
   54.0860   29.4470   51.9320 C   0  0  0  0  0  0  0  0  0  0  0  0
   53.0030   30.4940   52.0260 C   0  0  0  0  0  0  0  0  0  0  0  0
   52.4350   30.8170   53.2690 C   0  0  0  0  0  0  0  0  0  0  0  0
   51.4140   31.7670   53.3540 C   0  0  0  0  0  0  0  0  0  0  0  0
   50.9360   32.3890   52.1990 C   0  0  0  0  0  0  0  0  0  0  0  0
   49.9120   33.3240   52.2870 O   0  0  0  0  0  0  0  0  0  0  0  0
   51.4870   32.0680   50.9540 C   0  0  0  0  0  0  0  0  0  0  0  0
   51.0200   32.6890   49.8030 O   0  0  0  0  0  0  0  0  0  0  0  0
   52.5120   31.1190   50.8670 C   0  0  0  0  0  0  0  0  0  0  0  0
   57.1880   31.6120   51.3030 C   0  0  0  0  0  0  0  0  0  0  0  0
   57.9250   32.3760   50.3940 C   0  0  0  0  0  0  0  0  0  0  0  0
   58.6130   31.5980   46.2490 C   0  0  0  0  0  0  0  0  0  0  0  0
   58.1180   30.1530   46.4450 C   0  0  0  0  0  0  0  0  0  0  0  0
  1  2  1  0
  2  3  1  0
  3  4  1  0
  4  5  1  0
  5  6  1  0
  6  7  2  0
  6  8  2  0
  6  9  1  0
  9 10  2  0
 10 11  1  0
 11 12  2  0
 12 13  1  0
 13 14  1  0
 14 15  2  0
 14 16  1  0
 16 17  1  0
 17 18  2  0
 18 19  1  0
 19 20  2  0
 20 21  1  0
 20 22  1  0
 22 23  1  0
 22 24  2  0
 12 25  1  0
 25 26  2  0
  5 27  1  0
 27 28  1  0
 28  2  1  0
 26  9  1  0
 24 17  1  0
M  CHG  3  13  -1  21  -1  23  -1
M  END
>  <UniqueID>  (971) 
68

>  <SMILES>  (971) 
CN1CCN(S(=O)(=O)c2ccc([N-]C(=O)Cc3ccc([O-])c([O-])c3)cc2)CC1

>  <Energy>  (971) 
62.12410262241421

>  <Genealogy>  (971) 
CN1CCN(S(=O)(=O)c2ccc([N-]C(=O)Cc3ccc([O-])c([O-])c3)cc2)CC1 (protonated)
CN1CCN(S(=O)(=O)c2ccc([N-]C(=O)Cc3ccc([O-])c([O-])c3)cc2)CC1 (3D coordinates assigned)
CN1CCN(S(=O)(=O)c2ccc([N-]C(=O)Cc3ccc([O-])c([O-])c3)cc2)CC1 (nonaromatic ring conformer: 62.12410262241421 kcal/mol)

>  <smiles>  (971) 
CN1CCN(S(=O)(=O)c2ccc(NC(=O)Cc3ccc(O)c(O)c3)cc2)CC1

>  <score_type>  (971) 
oracle

>  <origin>  (971) 
adg

>  <m_score__min__energy>  (971) 
-18.32

>  <m_primary>  (971) 
energy

$$$$
76:0
     RDKit          3D

 31 34  0  0  0  0  0  0  0  0999 V2000
   57.0280   31.2680   42.8900 C   0  0  0  0  0  0  0  0  0  0  0  0
   57.4650   31.4530   44.1430 C   0  0  0  0  0  0  0  0  0  0  0  0
   57.2020   32.6580   44.7040 N   0  0  0  0  0  0  0  0  0  0  0  0
   57.7570   33.0600   45.8690 C   0  0  0  0  0  0  0  0  0  0  0  0
   57.4480   34.1920   46.3280 O   0  0  0  0  0  0  0  0  0  0  0  0
   58.6590   32.2600   46.5150 N   0  0  0  0  0  0  0  0  0  0  0  0
   59.3440   32.7430   47.7330 C   0  0  0  0  0  0  0  0  0  0  0  0
   60.8320   32.8200   47.5040 C   0  0  0  0  0  0  0  0  0  0  0  0
   61.3620   33.7210   46.5650 C   0  0  0  0  0  0  0  0  0  0  0  0
   62.7460   33.8100   46.3780 C   0  0  0  0  0  0  0  0  0  0  0  0
   63.6080   33.0070   47.1290 C   0  0  0  0  0  0  0  0  0  0  0  0
   63.0880   32.1120   48.0690 C   0  0  0  0  0  0  0  0  0  0  0  0
   61.7050   32.0200   48.2580 C   0  0  0  0  0  0  0  0  0  0  0  0
   58.9410   31.0110   46.0160 C   0  0  0  0  0  0  0  0  0  0  0  0
   59.7660   30.2730   46.6260 O   0  0  0  0  0  0  0  0  0  0  0  0
   58.2870   30.5260   44.8510 C   0  0  0  0  0  0  0  0  0  0  0  0
   58.4670   29.2230   44.4970 C   0  0  0  0  0  0  0  0  0  0  0  0
   57.6490   28.0780   44.9400 C   0  0  0  0  0  0  0  0  0  0  0  0
   58.1440   26.8800   45.1710 O   0  0  0  0  0  0  0  0  0  0  0  0
   57.1730   26.0980   45.5960 C   0  0  0  0  0  0  0  0  0  0  0  0
   57.3600   24.7120   45.9100 N   0  0  0  0  0  0  0  0  0  0  0  0
   57.2330   23.6430   44.9590 C   0  0  0  0  0  0  0  0  0  0  0  0
   56.2970   23.7520   43.9190 C   0  0  0  0  0  0  0  0  0  0  0  0
   56.1790   22.7360   42.9650 C   0  0  0  0  0  0  0  0  0  0  0  0
   57.0060   21.6120   43.0340 C   0  0  0  0  0  0  0  0  0  0  0  0
   57.9590   21.5060   44.0510 C   0  0  0  0  0  0  0  0  0  0  0  0
   58.0790   22.5210   45.0050 C   0  0  0  0  0  0  0  0  0  0  0  0
   55.9870   26.8090   45.6440 C   0  0  0  0  0  0  0  0  0  0  0  0
   54.7280   26.3370   45.9940 O   0  0  0  0  0  0  0  0  0  0  0  0
   56.2970   28.0820   45.2390 C   0  0  0  0  0  0  0  0  0  0  0  0
   55.4220   29.1590   45.1660 O   0  0  0  0  0  0  0  0  0  0  0  0
  1  2  2  0
  2  3  1  0
  3  4  1  0
  4  5  2  0
  4  6  1  0
  6  7  1  0
  7  8  1  0
  8  9  2  0
  9 10  1  0
 10 11  2  0
 11 12  1  0
 12 13  2  0
  6 14  1  0
 14 15  2  0
 14 16  1  0
 16 17  2  0
 17 18  1  0
 18 19  1  0
 19 20  1  0
 20 21  1  0
 21 22  1  0
 22 23  2  0
 23 24  1  0
 24 25  2  0
 25 26  1  0
 26 27  2  0
 20 28  2  0
 28 29  1  0
 28 30  1  0
 30 31  1  0
 16  2  1  0
 30 18  2  0
 13  8  1  0
 27 22  1  0
M  CHG  3   3  -1  29  -1  31  -1
M  END
>  <UniqueID>  (972) 
72

>  <SMILES>  (972) 
C=c1[n-]c(=O)n(Cc2ccccc2)c(=O)/c1=C/c1oc(Nc2ccccc2)c([O-])c1[O-]

>  <Energy>  (972) 
114.31153811839513

>  <Genealogy>  (972) 
C=c1[n-]c(=O)n(Cc2ccccc2)c(=O)c1=Cc1oc(Nc2ccccc2)c([O-])c1[O-] (protonated)
C=c1[n-]c(=O)n(Cc2ccccc2)c(=O)/c1=C/c1oc(Nc2ccccc2)c([O-])c1[O-] (cis-trans isomerization)
C=c1[n-]c(=O)n(Cc2ccccc2)c(=O)/c1=C/c1oc(Nc2ccccc2)c([O-])c1[O-] (3D coordinates assigned)
C=c1[n-]c(=O)n(Cc2ccccc2)c(=O)/c1=C/c1oc(Nc2ccccc2)c([O-])c1[O-] (optimized conformer: 114.31153811839513 kcal/mol)

>  <smiles>  (972) 
C=c1[nH]c(=O)n(Cc2ccccc2)c(=O)c1=Cc1oc(Nc2ccccc2)c(O)c1O

>  <score_type>  (972) 
oracle

>  <origin>  (972) 
adg

>  <m_score__min__energy>  (972) 
-17.210000000000001

>  <m_primary>  (972) 
energy

$$$$
13:0
     RDKit          3D

 34 38  0  0  0  0  0  0  0  0999 V2000
   59.6320   27.8420   46.4740 C   0  0  0  0  0  0  0  0  0  0  0  0
   58.7790   28.5200   45.6920 C   0  0  0  0  0  0  0  0  0  0  0  0
   57.9000   27.9820   44.7350 C   0  0  0  0  0  0  0  0  0  0  0  0
   57.5050   26.7140   44.5050 C   0  0  0  0  0  0  0  0  0  0  0  0
   57.0480   25.7490   45.5250 C   0  0  0  0  0  0  0  0  0  0  0  0
   57.8190   24.7910   46.0760 N   0  0  0  0  0  0  0  0  0  0  0  0
   57.0310   24.2710   47.0420 C   0  0  0  0  0  0  0  0  0  0  0  0
   57.3990   23.3170   47.7770 O   0  0  0  0  0  0  0  0  0  0  0  0
   55.8270   24.8630   47.1700 N   0  0  0  0  0  0  0  0  0  0  0  0
   55.8610   25.8060   46.2140 C   0  0  0  0  0  0  0  0  0  0  0  0
   54.8350   26.7110   45.9840 O   0  0  0  0  0  0  0  0  0  0  0  0
   57.3970   29.0620   44.0270 C   0  0  0  0  0  0  0  0  0  0  0  0
   57.9100   30.2020   44.6140 C   0  0  0  0  0  0  0  0  0  0  0  0
   57.5880   31.6030   44.1890 C   0  0  0  0  0  0  0  0  0  0  0  0
   58.7380   29.8760   45.6300 N   0  0  0  0  0  0  0  0  0  0  0  0
   59.3970   30.8120   46.5010 C   0  0  0  0  0  0  0  0  0  0  0  0
   60.7940   30.8010   46.5990 C   0  0  0  0  0  0  0  0  0  0  0  0
   61.4520   31.7110   47.4260 C   0  0  0  0  0  0  0  0  0  0  0  0
   60.7230   32.6500   48.1730 C   0  0  0  0  0  0  0  0  0  0  0  0
   61.4520   33.6340   49.0110 C   0  0  0  0  0  0  0  0  0  0  0  0
   61.0940   34.8440   48.9540 O   0  0  0  0  0  0  0  0  0  0  0  0
   62.5490   33.2700   49.8760 N   0  0  0  0  0  0  0  0  0  0  0  0
   63.3330   32.0440   49.6660 C   0  0  0  0  0  0  0  0  0  0  0  0
   64.8340   32.3440   49.7400 C   0  0  0  0  0  0  0  0  0  0  0  0
   65.1590   33.2300   50.8600 N   0  0  0  0  0  0  0  0  0  0  0  0
   66.5150   33.6770   51.0270 C   0  0  0  0  0  0  0  0  0  0  0  0
   66.7530   34.8930   51.2600 O   0  0  0  0  0  0  0  0  0  0  0  0
   67.6530   32.7200   50.8640 C   0  0  0  0  0  0  0  0  0  0  0  0
   68.4630   32.4460   52.1160 C   0  0  0  0  0  0  0  0  0  0  0  0
   67.4570   31.4210   51.6250 C   0  0  0  0  0  0  0  0  0  0  0  0
   64.1070   33.6800   51.7760 C   0  0  0  0  0  0  0  0  0  0  0  0
   62.8990   34.1770   50.9790 C   0  0  0  0  0  0  0  0  0  0  0  0
   59.3220   32.6730   48.0560 C   0  0  0  0  0  0  0  0  0  0  0  0
   58.6620   31.7480   47.2400 C   0  0  0  0  0  0  0  0  0  0  0  0
  1  2  2  0
  2  3  1  0
  3  4  2  0
  4  5  1  0
  5  6  1  0
  6  7  1  0
  7  8  2  0
  7  9  1  0
  9 10  1  0
 10 11  1  0
  3 12  1  0
 12 13  2  0
 13 14  1  0
 13 15  1  0
 15 16  1  0
 16 17  2  0
 17 18  1  0
 18 19  2  0
 19 20  1  0
 20 21  2  0
 20 22  1  0
 22 23  1  0
 23 24  1  0
 24 25  1  0
 25 26  1  0
 26 27  2  0
 26 28  1  0
 28 29  1  0
 29 30  1  0
 25 31  1  0
 31 32  1  0
 19 33  1  0
 33 34  2  0
 15  2  1  0
 34 16  1  0
 10  5  2  0
 32 22  1  0
 30 28  1  0
M  CHG  3   6  -1   9  -1  11  -1
M  END
>  <UniqueID>  (973) 
14

>  <SMILES>  (973) 
C=c1/c(=C\c2[n-]c(=O)[n-]c2[O-])cc(C)n1-c1ccc(C(=O)N2CCN(C(=O)C3CC3)CC2)cc1

>  <Energy>  (973) 
408.5142400073379

>  <Genealogy>  (973) 
C=c1c(=Cc2[n-]c(=O)[n-]c2[O-])cc(C)n1-c1ccc(C(=O)N2CCN(C(=O)C3CC3)CC2)cc1 (protonated)
C=c1/c(=C\c2[n-]c(=O)[n-]c2[O-])cc(C)n1-c1ccc(C(=O)N2CCN(C(=O)C3CC3)CC2)cc1 (cis-trans isomerization)
C=c1/c(=C\c2[n-]c(=O)[n-]c2[O-])cc(C)n1-c1ccc(C(=O)N2CCN(C(=O)C3CC3)CC2)cc1 (3D coordinates assigned)
C=c1/c(=C\c2[n-]c(=O)[n-]c2[O-])cc(C)n1-c1ccc(C(=O)N2CCN(C(=O)C3CC3)CC2)cc1 (nonaromatic ring conformer: 408.5142400073379 kcal/mol)

>  <smiles>  (973) 
C=c1c(=Cc2[nH]c(=O)[nH]c2O)cc(C)n1-c1ccc(C(=O)N2CCN(C(=O)C3CC3)CC2)cc1

>  <score_type>  (973) 
oracle

>  <origin>  (973) 
adg

>  <m_score__min__energy>  (973) 
-16.239999999999998

>  <m_primary>  (973) 
energy

$$$$
16:0
     RDKit          3D

 28 30  0  0  0  0  0  0  0  0999 V2000
   58.9180   26.3930   45.6270 C   0  0  0  0  0  0  0  0  0  0  0  0
   58.3200   27.6110   45.5420 N   0  0  0  0  0  0  0  0  0  0  0  0
   56.9800   27.7890   45.7160 C   0  0  0  0  0  0  0  0  0  0  0  0
   56.5150   29.0040   45.6170 N   0  0  0  0  0  0  0  0  0  0  0  0
   56.0550   29.7160   44.4590 C   0  0  0  0  0  0  0  0  0  0  0  0
   54.9420   29.4250   43.9370 O   0  0  0  0  0  0  0  0  0  0  0  0
   56.8180   30.8880   43.9760 C   0  0  0  0  0  0  0  0  0  0  0  0
   57.0170   31.0800   42.5960 C   0  0  0  0  0  0  0  0  0  0  0  0
   57.7640   32.1660   42.1330 C   0  0  0  0  0  0  0  0  0  0  0  0
   58.3220   33.0700   43.0370 C   0  0  0  0  0  0  0  0  0  0  0  0
   58.1280   32.8980   44.4160 C   0  0  0  0  0  0  0  0  0  0  0  0
   58.8570   34.0170   45.5630 S   0  0  0  0  0  0  0  0  0  0  0  0
   58.9900   35.3620   44.9040 O   0  0  0  0  0  0  0  0  0  0  0  0
   57.9850   34.1630   46.7810 O   0  0  0  0  0  0  0  0  0  0  0  0
   60.4240   33.4690   46.0580 N   0  0  0  0  0  0  0  0  0  0  0  0
   60.5750   32.3510   46.9430 C   0  0  0  0  0  0  0  0  0  0  0  0
   59.6400   31.3010   46.9210 C   0  0  0  0  0  0  0  0  0  0  0  0
   59.7950   30.2010   47.7670 C   0  0  0  0  0  0  0  0  0  0  0  0
   60.8790   30.1420   48.6450 C   0  0  0  0  0  0  0  0  0  0  0  0
   61.8170   31.1800   48.6760 C   0  0  0  0  0  0  0  0  0  0  0  0
   61.6750   32.2940   47.8230 C   0  0  0  0  0  0  0  0  0  0  0  0
   62.5910   33.3610   47.8340 O   0  0  0  0  0  0  0  0  0  0  0  0
   63.7320   33.4600   46.9820 C   0  0  0  0  0  0  0  0  0  0  0  0
   57.3710   31.8130   44.8830 C   0  0  0  0  0  0  0  0  0  0  0  0
   56.1680   26.6450   45.9580 C   0  0  0  0  0  0  0  0  0  0  0  0
   54.7830   26.7160   46.0570 O   0  0  0  0  0  0  0  0  0  0  0  0
   56.7750   25.3880   46.0540 C   0  0  0  0  0  0  0  0  0  0  0  0
   58.1540   25.2590   45.8970 C   0  0  0  0  0  0  0  0  0  0  0  0
  1  2  1  0
  2  3  1  0
  3  4  2  0
  4  5  1  0
  5  6  2  0
  5  7  1  0
  7  8  2  0
  8  9  1  0
  9 10  2  0
 10 11  1  0
 11 12  1  0
 12 13  2  0
 12 14  2  0
 12 15  1  0
 15 16  1  0
 16 17  2  0
 17 18  1  0
 18 19  2  0
 19 20  1  0
 20 21  2  0
 21 22  1  0
 22 23  1  0
 11 24  2  0
  3 25  1  0
 25 26  1  0
 25 27  2  0
 27 28  1  0
 28  1  2  0
 24  7  1  0
 21 16  1  0
M  CHG  2   2  -1  26  -1
M  END
>  <UniqueID>  (974) 
17

>  <SMILES>  (974) 
COc1ccccc1NS(=O)(=O)c1cccc(C(=O)/N=c2/[n-]cccc2[O-])c1

>  <Energy>  (974) 
65.25284735009748

>  <Genealogy>  (974) 
COc1ccccc1NS(=O)(=O)c1cccc(C(=O)N=c2[n-]cccc2[O-])c1 (protonated)
COc1ccccc1NS(=O)(=O)c1cccc(C(=O)/N=c2/[n-]cccc2[O-])c1 (cis-trans isomerization)
COc1ccccc1NS(=O)(=O)c1cccc(C(=O)/N=c2/[n-]cccc2[O-])c1 (3D coordinates assigned)
COc1ccccc1NS(=O)(=O)c1cccc(C(=O)/N=c2/[n-]cccc2[O-])c1 (optimized conformer: 65.25284735009748 kcal/mol)

>  <smiles>  (974) 
COc1ccccc1NS(=O)(=O)c1cccc(C(=O)N=c2[nH]cccc2O)c1

>  <score_type>  (974) 
oracle

>  <origin>  (974) 
adg

>  <m_score__min__energy>  (974) 
-14.380000000000001

>  <m_primary>  (974) 
energy

$$$$
20:0
     RDKit          3D

 27 29  0  0  0  0  0  0  0  0999 V2000
   57.6590   32.3340   41.3000 C   0  0  0  0  0  0  0  0  0  0  0  0
   57.8070   32.2700   42.8120 C   0  0  0  0  0  0  0  0  0  0  0  0
   58.0740   30.9300   43.2090 O   0  0  0  0  0  0  0  0  0  0  0  0
   57.0630   30.0360   43.5780 C   0  0  0  0  0  0  0  0  0  0  0  0
   56.2950   29.5430   42.7070 O   0  0  0  0  0  0  0  0  0  0  0  0
   56.8970   29.6710   44.9870 C   0  0  0  0  0  0  0  0  0  0  0  0
   57.4210   30.3880   45.8830 O   0  0  0  0  0  0  0  0  0  0  0  0
   56.1020   28.5330   45.3400 N   0  0  0  0  0  0  0  0  0  0  0  0
   56.6100   27.2200   45.6160 C   0  0  0  0  0  0  0  0  0  0  0  0
   57.9950   27.0420   45.6870 C   0  0  0  0  0  0  0  0  0  0  0  0
   58.5320   25.7860   45.9680 C   0  0  0  0  0  0  0  0  0  0  0  0
   57.6900   24.6960   46.1880 C   0  0  0  0  0  0  0  0  0  0  0  0
   56.2930   24.8500   46.1320 C   0  0  0  0  0  0  0  0  0  0  0  0
   55.3960   23.6630   46.3990 C   0  0  0  0  0  0  0  0  0  0  0  0
   55.7050   23.0070   47.7260 C   0  0  0  0  0  0  0  0  0  0  0  0
   57.0110   22.8880   48.0840 N   0  0  0  0  0  0  0  0  0  0  0  0
   57.3850   22.3170   49.2260 N   0  0  0  0  0  0  0  0  0  0  0  0
   56.4800   21.8070   50.0950 C   0  0  0  0  0  0  0  0  0  0  0  0
   56.8840   21.2830   51.1680 O   0  0  0  0  0  0  0  0  0  0  0  0
   55.1110   21.8680   49.7920 C   0  0  0  0  0  0  0  0  0  0  0  0
   54.7040   22.5150   48.5990 C   0  0  0  0  0  0  0  0  0  0  0  0
   53.2380   22.5700   48.2090 C   0  0  0  0  0  0  0  0  0  0  0  0
   52.2860   22.3080   49.3790 C   0  0  0  0  0  0  0  0  0  0  0  0
   52.7310   21.0790   50.1610 C   0  0  0  0  0  0  0  0  0  0  0  0
   54.1030   21.3280   50.7880 C   0  0  0  0  0  0  0  0  0  0  0  0
   55.7540   26.1310   45.8830 C   0  0  0  0  0  0  0  0  0  0  0  0
   54.3780   26.3280   45.9490 O   0  0  0  0  0  0  0  0  0  0  0  0
  1  2  1  0
  2  3  1  0
  3  4  1  0
  4  5  2  0
  4  6  1  0
  6  7  2  0
  6  8  1  0
  8  9  1  0
  9 10  2  0
 10 11  1  0
 11 12  2  0
 12 13  1  0
 13 14  1  0
 14 15  1  0
 15 16  2  0
 16 17  1  0
 17 18  1  0
 18 19  2  0
 18 20  1  0
 20 21  2  0
 21 22  1  0
 22 23  1  0
 23 24  1  0
 24 25  1  0
 13 26  2  0
 26 27  1  0
 26  9  1  0
 21 15  1  0
 25 20  1  0
M  CHG  3   8  -1  17  -1  27  -1
M  END
>  <UniqueID>  (975) 
21

>  <SMILES>  (975) 
CCOC(=O)C(=O)[N-]c1cccc(Cc2n[n-]c(=O)c3c2CCCC3)c1[O-]

>  <Energy>  (975) 
48.745951565269976

>  <Genealogy>  (975) 
CCOC(=O)C(=O)[N-]c1cccc(Cc2n[n-]c(=O)c3c2CCCC3)c1[O-] (protonated)
CCOC(=O)C(=O)[N-]c1cccc(Cc2n[n-]c(=O)c3c2CCCC3)c1[O-] (3D coordinates assigned)
CCOC(=O)C(=O)[N-]c1cccc(Cc2n[n-]c(=O)c3c2CCCC3)c1[O-] (nonaromatic ring conformer: 48.745951565269976 kcal/mol)

>  <smiles>  (975) 
CCOC(=O)C(=O)Nc1cccc(Cc2n[nH]c(=O)c3c2CCCC3)c1O

>  <score_type>  (975) 
oracle

>  <origin>  (975) 
adg

>  <m_score__min__energy>  (975) 
-14.859999999999999

>  <m_primary>  (975) 
energy

$$$$
27:0
     RDKit          3D

 31 34  0  0  0  0  0  0  0  0999 V2000
   59.4180   30.5800   46.4660 C   0  0  0  0  0  0  0  0  0  0  0  0
   59.4520   29.4990   47.2630 C   0  0  0  0  0  0  0  0  0  0  0  0
   58.9960   28.2080   46.9500 C   0  0  0  0  0  0  0  0  0  0  0  0
   58.2580   27.7560   45.9170 C   0  0  0  0  0  0  0  0  0  0  0  0
   57.1920   26.7400   46.0040 C   0  0  0  0  0  0  0  0  0  0  0  0
   55.8760   27.0630   45.6420 C   0  0  0  0  0  0  0  0  0  0  0  0
   55.5490   28.3550   45.2430 O   0  0  0  0  0  0  0  0  0  0  0  0
   54.9070   26.1130   45.6880 N   0  0  0  0  0  0  0  0  0  0  0  0
   55.1890   24.8400   46.0650 C   0  0  0  0  0  0  0  0  0  0  0  0
   54.2730   23.9780   46.1040 O   0  0  0  0  0  0  0  0  0  0  0  0
   56.4600   24.4940   46.3930 N   0  0  0  0  0  0  0  0  0  0  0  0
   57.4660   25.4060   46.3620 C   0  0  0  0  0  0  0  0  0  0  0  0
   58.6390   25.0450   46.6490 O   0  0  0  0  0  0  0  0  0  0  0  0
   59.4600   27.3800   47.9560 C   0  0  0  0  0  0  0  0  0  0  0  0
   60.1100   28.1820   48.8700 C   0  0  0  0  0  0  0  0  0  0  0  0
   60.8580   27.6590   50.0600 C   0  0  0  0  0  0  0  0  0  0  0  0
   60.0790   29.4770   48.4710 N   0  0  0  0  0  0  0  0  0  0  0  0
   60.7320   30.6010   49.1600 C   0  0  0  0  0  0  0  0  0  0  0  0
   59.7480   31.4700   49.9050 C   0  0  0  0  0  0  0  0  0  0  0  0
   58.8310   31.0420   50.8490 C   0  0  0  0  0  0  0  0  0  0  0  0
   58.6910   29.6570   51.3920 C   0  0  0  0  0  0  0  0  0  0  0  0
   58.0530   32.0730   51.2270 N   0  0  0  0  0  0  0  0  0  0  0  0
   58.4420   33.1120   50.5460 O   0  0  0  0  0  0  0  0  0  0  0  0
   59.4370   32.8150   49.7400 C   0  0  0  0  0  0  0  0  0  0  0  0
   60.0690   33.8230   48.8220 C   0  0  0  0  0  0  0  0  0  0  0  0
   59.3310   34.0010   47.5180 C   0  0  0  0  0  0  0  0  0  0  0  0
   59.9280   34.6390   46.4130 C   0  0  0  0  0  0  0  0  0  0  0  0
   59.2390   34.7380   45.1990 C   0  0  0  0  0  0  0  0  0  0  0  0
   57.9660   34.1800   45.0680 C   0  0  0  0  0  0  0  0  0  0  0  0
   57.3800   33.5140   46.1460 C   0  0  0  0  0  0  0  0  0  0  0  0
   58.0630   33.4160   47.3630 C   0  0  0  0  0  0  0  0  0  0  0  0
  1  2  2  0
  2  3  1  0
  3  4  2  3
  4  5  1  0
  5  6  2  0
  6  7  1  0
  6  8  1  0
  8  9  1  0
  9 10  2  0
  9 11  1  0
 11 12  1  0
 12 13  2  0
  3 14  1  0
 14 15  2  0
 15 16  1  0
 15 17  1  0
 17 18  1  0
 18 19  1  0
 19 20  1  0
 20 21  1  0
 20 22  2  0
 22 23  1  0
 23 24  1  0
 24 25  1  0
 25 26  1  0
 26 27  2  0
 27 28  1  0
 28 29  2  0
 29 30  1  0
 30 31  2  0
 17  2  1  0
 24 19  2  0
 31 26  1  0
 12  5  1  0
M  CHG  3   7  -1   8  -1  11  -1
M  END
>  <UniqueID>  (976) 
28

>  <SMILES>  (976) 
C=c1c(=Cc2c([O-])[n-]c(=O)[n-]c2=O)cc(C)n1Cc1c(C)noc1Cc1ccccc1

>  <Energy>  (976) 
123.9380675088918

>  <Genealogy>  (976) 
C=c1c(=Cc2c([O-])[n-]c(=O)[n-]c2=O)cc(C)n1Cc1c(C)noc1Cc1ccccc1 (protonated)
C=c1c(=Cc2c([O-])[n-]c(=O)[n-]c2=O)cc(C)n1Cc1c(C)noc1Cc1ccccc1 (3D coordinates assigned)
C=c1c(=Cc2c([O-])[n-]c(=O)[n-]c2=O)cc(C)n1Cc1c(C)noc1Cc1ccccc1 (optimized conformer: 123.9380675088918 kcal/mol)

>  <smiles>  (976) 
C=c1c(=Cc2c(O)[nH]c(=O)[nH]c2=O)cc(C)n1Cc1c(C)noc1Cc1ccccc1

>  <score_type>  (976) 
oracle

>  <origin>  (976) 
adg

>  <m_score__min__energy>  (976) 
-17.210000000000001

>  <m_primary>  (976) 
energy

$$$$
37:0
     RDKit          3D

 25 27  0  0  0  0  0  0  0  0999 V2000
   59.4100   34.9010   48.7630 O   0  0  0  0  0  0  0  0  0  0  0  0
   60.5590   34.2070   48.3910 C   0  0  0  0  0  0  0  0  0  0  0  0
   61.7020   34.2980   49.1210 N   0  0  0  0  0  0  0  0  0  0  0  0
   62.7040   33.5890   48.5610 C   0  0  0  0  0  0  0  0  0  0  0  0
   64.2090   33.5110   49.1890 S   0  0  0  0  0  0  0  0  0  0  0  0
   62.2310   32.8320   47.1370 S   0  0  0  0  0  0  0  0  0  0  0  0
   60.6500   33.3970   47.2540 C   0  0  0  0  0  0  0  0  0  0  0  0
   59.6190   33.1820   46.2300 C   0  0  0  0  0  0  0  0  0  0  0  0
   59.1170   31.9880   45.8570 C   0  0  0  0  0  0  0  0  0  0  0  0
   58.1390   31.8590   44.8850 C   0  0  0  0  0  0  0  0  0  0  0  0
   57.8150   30.5210   44.8170 C   0  0  0  0  0  0  0  0  0  0  0  0
   56.7800   29.9430   43.9000 C   0  0  0  0  0  0  0  0  0  0  0  0
   58.5770   29.8080   45.6750 N   0  0  0  0  0  0  0  0  0  0  0  0
   58.5230   28.3820   45.8610 C   0  0  0  0  0  0  0  0  0  0  0  0
   59.7010   27.6250   45.8640 C   0  0  0  0  0  0  0  0  0  0  0  0
   59.6460   26.2430   46.0380 C   0  0  0  0  0  0  0  0  0  0  0  0
   58.4170   25.5980   46.2090 C   0  0  0  0  0  0  0  0  0  0  0  0
   58.4080   24.2180   46.3800 O   0  0  0  0  0  0  0  0  0  0  0  0
   57.2170   26.3450   46.2070 C   0  0  0  0  0  0  0  0  0  0  0  0
   55.8930   25.6940   46.3870 C   0  0  0  0  0  0  0  0  0  0  0  0
   55.8120   24.5530   46.9140 O   0  0  0  0  0  0  0  0  0  0  0  0
   54.7230   26.3240   45.9810 O   0  0  0  0  0  0  0  0  0  0  0  0
   57.2880   27.7400   46.0300 C   0  0  0  0  0  0  0  0  0  0  0  0
   59.3990   30.6870   46.3060 C   0  0  0  0  0  0  0  0  0  0  0  0
   60.3960   30.3050   47.1210 C   0  0  0  0  0  0  0  0  0  0  0  0
  1  2  1  0
  2  3  1  0
  3  4  1  0
  4  5  2  0
  4  6  1  0
  6  7  1  0
  7  8  1  0
  8  9  2  0
  9 10  1  0
 10 11  2  0
 11 12  1  0
 11 13  1  0
 13 14  1  0
 14 15  2  0
 15 16  1  0
 16 17  2  0
 17 18  1  0
 17 19  1  0
 19 20  1  0
 20 21  2  0
 20 22  1  0
 19 23  2  0
 13 24  1  0
 24 25  2  0
  7  2  2  0
 24  9  1  0
 23 14  1  0
M  CHG  3   3  -1  18  -1  22  -1
M  END
>  <UniqueID>  (977) 
36

>  <SMILES>  (977) 
C=c1/c(=C\c2sc(=S)[n-]c2O)cc(C)n1-c1ccc([O-])c(C(=O)[O-])c1

>  <Energy>  (977) 
116.99901640100938

>  <Genealogy>  (977) 
C=c1c(=Cc2sc(=S)[n-]c2O)cc(C)n1-c1ccc([O-])c(C(=O)[O-])c1 (protonated)
C=c1/c(=C\c2sc(=S)[n-]c2O)cc(C)n1-c1ccc([O-])c(C(=O)[O-])c1 (cis-trans isomerization)
C=c1/c(=C\c2sc(=S)[n-]c2O)cc(C)n1-c1ccc([O-])c(C(=O)[O-])c1 (3D coordinates assigned)
C=c1/c(=C\c2sc(=S)[n-]c2O)cc(C)n1-c1ccc([O-])c(C(=O)[O-])c1 (optimized conformer: 116.99901640100938 kcal/mol)

>  <smiles>  (977) 
C=c1c(=Cc2sc(=S)[nH]c2O)cc(C)n1-c1ccc(O)c(C(=O)O)c1

>  <score_type>  (977) 
oracle

>  <origin>  (977) 
adg

>  <m_score__min__energy>  (977) 
-14.210000000000001

>  <m_primary>  (977) 
energy

$$$$
44:0
     RDKit          3D

 26 28  0  0  0  0  0  0  0  0999 V2000
   57.2300   30.1160   51.8990 C   0  0  0  0  0  0  0  0  0  0  0  0
   56.0890   29.8600   52.5760 C   0  0  0  0  0  0  0  0  0  0  0  0
   54.8570   30.3470   52.0750 C   0  0  0  0  0  0  0  0  0  0  0  0
   54.8360   31.0560   51.0290 O   0  0  0  0  0  0  0  0  0  0  0  0
   53.6670   30.0600   52.7810 C   0  0  0  0  0  0  0  0  0  0  0  0
   52.4320   30.4470   52.3940 C   0  0  0  0  0  0  0  0  0  0  0  0
   51.9710   30.6230   51.0010 C   0  0  0  0  0  0  0  0  0  0  0  0
   52.1340   29.5880   50.0650 C   0  0  0  0  0  0  0  0  0  0  0  0
   51.6510   29.7330   48.7620 C   0  0  0  0  0  0  0  0  0  0  0  0
   50.9840   30.9030   48.3890 C   0  0  0  0  0  0  0  0  0  0  0  0
   50.7910   31.9280   49.3220 C   0  0  0  0  0  0  0  0  0  0  0  0
   50.1160   33.0830   48.9470 O   0  0  0  0  0  0  0  0  0  0  0  0
   51.2760   31.7870   50.6290 C   0  0  0  0  0  0  0  0  0  0  0  0
   51.0700   32.8080   51.5530 O   0  0  0  0  0  0  0  0  0  0  0  0
   53.7590   29.3720   53.9470 N   0  0  0  0  0  0  0  0  0  0  0  0
   54.9360   28.9180   54.4350 C   0  0  0  0  0  0  0  0  0  0  0  0
   54.9380   28.2800   55.5230 O   0  0  0  0  0  0  0  0  0  0  0  0
   56.1030   29.1430   53.7560 N   0  0  0  0  0  0  0  0  0  0  0  0
   57.3260   28.6180   54.3100 C   0  0  0  0  0  0  0  0  0  0  0  0
   57.9340   27.4930   53.7320 C   0  0  0  0  0  0  0  0  0  0  0  0
   59.1190   26.9810   54.2680 C   0  0  0  0  0  0  0  0  0  0  0  0
   59.7060   27.5930   55.3820 C   0  0  0  0  0  0  0  0  0  0  0  0
   61.3250   26.8930   56.1120 Br  0  0  0  0  0  0  0  0  0  0  0  0
   59.1050   28.7170   55.9590 C   0  0  0  0  0  0  0  0  0  0  0  0
   57.9200   29.2310   55.4250 C   0  0  0  0  0  0  0  0  0  0  0  0
   57.3440   30.3210   55.9920 F   0  0  0  0  0  0  0  0  0  0  0  0
  1  2  2  0
  2  3  1  0
  3  4  2  0
  3  5  1  0
  5  6  2  0
  6  7  1  0
  7  8  2  0
  8  9  1  0
  9 10  2  0
 10 11  1  0
 11 12  1  0
 11 13  2  0
 13 14  1  0
  5 15  1  0
 15 16  1  0
 16 17  2  0
 16 18  1  0
 18 19  1  0
 19 20  2  0
 20 21  1  0
 21 22  2  0
 22 23  1  0
 22 24  1  0
 24 25  2  0
 25 26  1  0
 18  2  1  0
 25 19  1  0
 13  7  1  0
M  CHG  3  12  -1  14  -1  15  -1
M  END
>  <UniqueID>  (978) 
43

>  <SMILES>  (978) 
C=c1c(=O)/c(=C\c2cccc([O-])c2[O-])[n-]c(=O)n1-c1ccc(Br)cc1F

>  <Energy>  (978) 
67.51690383474157

>  <Genealogy>  (978) 
C=c1c(=O)c(=Cc2cccc([O-])c2[O-])[n-]c(=O)n1-c1ccc(Br)cc1F (protonated)
C=c1c(=O)/c(=C\c2cccc([O-])c2[O-])[n-]c(=O)n1-c1ccc(Br)cc1F (cis-trans isomerization)
C=c1c(=O)/c(=C\c2cccc([O-])c2[O-])[n-]c(=O)n1-c1ccc(Br)cc1F (3D coordinates assigned)
C=c1c(=O)/c(=C\c2cccc([O-])c2[O-])[n-]c(=O)n1-c1ccc(Br)cc1F (optimized conformer: 67.51690383474157 kcal/mol)

>  <smiles>  (978) 
C=c1c(=O)c(=Cc2cccc(O)c2O)[nH]c(=O)n1-c1ccc(Br)cc1F

>  <score_type>  (978) 
oracle

>  <origin>  (978) 
adg

>  <m_score__min__energy>  (978) 
-15.69

>  <m_primary>  (978) 
energy

$$$$
49:0
     RDKit          3D

 32 34  0  0  0  0  0  0  0  0999 V2000
   57.0090   21.3450   42.9380 C   0  0  0  0  0  0  0  0  0  0  0  0
   57.8220   22.0780   44.3930 S   0  0  0  0  0  0  0  0  0  0  0  0
   56.3240   22.8730   44.9770 C   0  0  0  0  0  0  0  0  0  0  0  0
   55.1830   22.1090   45.2450 C   0  0  0  0  0  0  0  0  0  0  0  0
   54.0220   22.7280   45.7160 C   0  0  0  0  0  0  0  0  0  0  0  0
   53.9970   24.1120   45.9150 C   0  0  0  0  0  0  0  0  0  0  0  0
   55.1370   24.8930   45.6370 C   0  0  0  0  0  0  0  0  0  0  0  0
   55.1890   26.3070   45.9080 N   0  0  0  0  0  0  0  0  0  0  0  0
   56.2410   27.0690   45.9920 C   0  0  0  0  0  0  0  0  0  0  0  0
   56.3280   28.2370   45.2990 N   0  0  0  0  0  0  0  0  0  0  0  0
   57.4140   29.0440   45.4090 C   0  0  0  0  0  0  0  0  0  0  0  0
   57.4310   30.3310   44.7020 C   0  0  0  0  0  0  0  0  0  0  0  0
   58.1170   30.4430   43.6530 O   0  0  0  0  0  0  0  0  0  0  0  0
   56.6540   31.4480   45.1530 N   0  0  0  0  0  0  0  0  0  0  0  0
   57.0260   32.8520   44.9760 C   0  0  0  0  0  0  0  0  0  0  0  0
   58.1920   33.2070   45.8600 C   0  0  0  0  0  0  0  0  0  0  0  0
   59.0160   34.3000   45.5540 C   0  0  0  0  0  0  0  0  0  0  0  0
   60.1380   34.5810   46.3360 C   0  0  0  0  0  0  0  0  0  0  0  0
   60.4560   33.7760   47.4460 C   0  0  0  0  0  0  0  0  0  0  0  0
   61.6300   34.0170   48.2430 N   0  0  0  0  0  0  0  0  0  0  0  0
   63.2230   33.4790   47.8110 S   0  0  0  0  0  0  0  0  0  0  0  0
   63.1850   31.7220   47.5220 C   0  0  0  0  0  0  0  0  0  0  0  0
   63.6740   34.1670   46.5530 O   0  0  0  0  0  0  0  0  0  0  0  0
   64.1790   33.7760   48.9310 O   0  0  0  0  0  0  0  0  0  0  0  0
   59.6090   32.7000   47.7670 C   0  0  0  0  0  0  0  0  0  0  0  0
   59.8840   31.9010   48.8300 F   0  0  0  0  0  0  0  0  0  0  0  0
   58.4900   32.4180   46.9800 C   0  0  0  0  0  0  0  0  0  0  0  0
   58.4820   28.6610   46.2250 C   0  0  0  0  0  0  0  0  0  0  0  0
   58.3930   27.4460   46.9060 C   0  0  0  0  0  0  0  0  0  0  0  0
   59.3390   27.0620   47.6420 O   0  0  0  0  0  0  0  0  0  0  0  0
   57.2800   26.6790   46.7770 N   0  0  0  0  0  0  0  0  0  0  0  0
   56.3030   24.2570   45.1870 C   0  0  0  0  0  0  0  0  0  0  0  0
  1  2  1  0
  2  3  1  0
  3  4  2  0
  4  5  1  0
  5  6  2  0
  6  7  1  0
  7  8  1  0
  8  9  2  3
  9 10  1  0
 10 11  1  0
 11 12  1  0
 12 13  2  0
 12 14  1  0
 14 15  1  0
 15 16  1  0
 16 17  2  0
 17 18  1  0
 18 19  2  0
 19 20  1  0
 20 21  1  0
 21 22  1  0
 21 23  2  0
 21 24  2  0
 19 25  1  0
 25 26  1  0
 25 27  2  0
 11 28  2  0
 28 29  1  0
 29 30  2  0
 29 31  1  0
  7 32  2  0
 32  3  1  0
 31  9  1  0
 27 16  1  0
M  CHG  3  10  -1  14  -1  31  -1
M  END
>  <UniqueID>  (979) 
48

>  <SMILES>  (979) 
CSc1cccc(N=c2[n-]c(C(=O)[N-]Cc3ccc(NS(C)(=O)=O)c(F)c3)cc(=O)[n-]2)c1

>  <Energy>  (979) 
51.90415710004046

>  <Genealogy>  (979) 
CSc1cccc(N=c2[n-]c(C(=O)[N-]Cc3ccc(NS(C)(=O)=O)c(F)c3)cc(=O)[n-]2)c1 (protonated)
CSc1cccc(N=c2[n-]c(C(=O)[N-]Cc3ccc(NS(C)(=O)=O)c(F)c3)cc(=O)[n-]2)c1 (3D coordinates assigned)
CSc1cccc(N=c2[n-]c(C(=O)[N-]Cc3ccc(NS(C)(=O)=O)c(F)c3)cc(=O)[n-]2)c1 (optimized conformer: 51.90415710004046 kcal/mol)

>  <smiles>  (979) 
CSc1cccc(N=c2[nH]c(C(=O)NCc3ccc(NS(C)(=O)=O)c(F)c3)cc(=O)[nH]2)c1

>  <score_type>  (979) 
oracle

>  <origin>  (979) 
adg

>  <m_score__min__energy>  (979) 
-14.039999999999999

>  <m_primary>  (979) 
energy

$$$$
68:0
     RDKit          3D

 26 28  0  0  0  0  0  0  0  0999 V2000
   56.9550   31.1150   42.9170 C   0  0  0  0  0  0  0  0  0  0  0  0
   57.6750   31.7580   44.0710 C   0  0  0  0  0  0  0  0  0  0  0  0
   58.3040   32.9980   43.8760 C   0  0  0  0  0  0  0  0  0  0  0  0
   58.9460   33.6430   44.9330 C   0  0  0  0  0  0  0  0  0  0  0  0
   58.9820   33.0580   46.2080 C   0  0  0  0  0  0  0  0  0  0  0  0
   59.6410   33.7620   47.3340 C   0  0  0  0  0  0  0  0  0  0  0  0
   58.9560   34.5060   48.0870 O   0  0  0  0  0  0  0  0  0  0  0  0
   61.0440   33.5930   47.5970 N   0  0  0  0  0  0  0  0  0  0  0  0
   61.5250   33.5820   48.9790 C   0  0  0  0  0  0  0  0  0  0  0  0
   62.8430   32.8040   49.0570 C   0  0  0  0  0  0  0  0  0  0  0  0
   63.7770   33.2970   48.1130 O   0  0  0  0  0  0  0  0  0  0  0  0
   63.2970   33.0730   46.8000 C   0  0  0  0  0  0  0  0  0  0  0  0
   62.0230   33.8820   46.5440 C   0  0  0  0  0  0  0  0  0  0  0  0
   58.3600   31.8150   46.4060 C   0  0  0  0  0  0  0  0  0  0  0  0
   57.7390   31.1460   45.3440 C   0  0  0  0  0  0  0  0  0  0  0  0
   57.1290   29.8740   45.6010 N   0  0  0  0  0  0  0  0  0  0  0  0
   57.8380   28.6700   45.9190 C   0  0  0  0  0  0  0  0  0  0  0  0
   58.6690   28.6850   46.8640 O   0  0  0  0  0  0  0  0  0  0  0  0
   57.6700   27.4100   45.1140 C   0  0  0  0  0  0  0  0  0  0  0  0
   57.2270   26.2850   45.9950 C   0  0  0  0  0  0  0  0  0  0  0  0
   58.0540   25.3640   46.5210 N   0  0  0  0  0  0  0  0  0  0  0  0
   57.2180   24.5510   47.2020 C   0  0  0  0  0  0  0  0  0  0  0  0
   57.6240   23.5500   47.8470 O   0  0  0  0  0  0  0  0  0  0  0  0
   55.9130   24.8930   47.1370 N   0  0  0  0  0  0  0  0  0  0  0  0
   55.9370   25.9920   46.3660 C   0  0  0  0  0  0  0  0  0  0  0  0
   54.8040   26.7060   46.0020 O   0  0  0  0  0  0  0  0  0  0  0  0
  1  2  1  0
  2  3  2  0
  3  4  1  0
  4  5  2  0
  5  6  1  0
  6  7  2  0
  6  8  1  0
  8  9  1  0
  9 10  1  0
 10 11  1  0
 11 12  1  0
 12 13  1  0
  5 14  1  0
 14 15  2  0
 15 16  1  0
 16 17  1  0
 17 18  2  0
 17 19  1  0
 19 20  1  0
 20 21  1  0
 21 22  1  0
 22 23  2  0
 22 24  1  0
 24 25  1  0
 25 26  1  0
 15  2  1  0
 25 20  2  0
 13  8  1  0
M  CHG  4  16  -1  21  -1  24  -1  26  -1
M  END
>  <UniqueID>  (980) 
65

>  <SMILES>  (980) 
Cc1ccc(C(=O)N2CCOCC2)cc1[N-]C(=O)Cc1[n-]c(=O)[n-]c1[O-]

>  <Energy>  (980) 
82.66678657258353

>  <Genealogy>  (980) 
Cc1ccc(C(=O)N2CCOCC2)cc1[N-]C(=O)Cc1[n-]c(=O)[n-]c1[O-] (protonated)
Cc1ccc(C(=O)N2CCOCC2)cc1[N-]C(=O)Cc1[n-]c(=O)[n-]c1[O-] (3D coordinates assigned)
Cc1ccc(C(=O)N2CCOCC2)cc1[N-]C(=O)Cc1[n-]c(=O)[n-]c1[O-] (nonaromatic ring conformer: 82.66678657258353 kcal/mol)

>  <smiles>  (980) 
Cc1ccc(C(=O)N2CCOCC2)cc1NC(=O)Cc1[nH]c(=O)[nH]c1O

>  <score_type>  (980) 
oracle

>  <origin>  (980) 
adg

>  <m_score__min__energy>  (980) 
-17.27

>  <m_primary>  (980) 
energy

$$$$
80:0
     RDKit          3D

 22 24  0  0  0  0  0  0  0  0999 V2000
   57.9860   31.3590   53.0510 C   0  0  0  0  0  0  0  0  0  0  0  0
   56.8130   30.7130   54.0710 S   0  0  0  0  0  0  0  0  0  0  0  0
   55.9600   30.0090   52.8130 C   0  0  0  0  0  0  0  0  0  0  0  0
   54.8670   29.3250   52.9830 N   0  0  0  0  0  0  0  0  0  0  0  0
   53.5160   29.7140   52.6750 C   0  0  0  0  0  0  0  0  0  0  0  0
   52.6220   28.8260   52.7170 O   0  0  0  0  0  0  0  0  0  0  0  0
   53.1430   31.1340   52.3130 C   0  0  0  0  0  0  0  0  0  0  0  0
   52.3040   31.2070   51.0700 C   0  0  0  0  0  0  0  0  0  0  0  0
   52.3200   30.0770   49.8200 S   0  0  0  0  0  0  0  0  0  0  0  0
   51.1010   30.8710   48.9780 C   0  0  0  0  0  0  0  0  0  0  0  0
   50.6370   30.4880   47.8730 O   0  0  0  0  0  0  0  0  0  0  0  0
   50.6600   31.9760   49.6170 N   0  0  0  0  0  0  0  0  0  0  0  0
   51.3270   32.1580   50.7870 C   0  0  0  0  0  0  0  0  0  0  0  0
   51.0380   33.2220   51.6330 O   0  0  0  0  0  0  0  0  0  0  0  0
   56.5390   30.2490   51.6180 N   0  0  0  0  0  0  0  0  0  0  0  0
   57.6700   31.0010   51.7350 C   0  0  0  0  0  0  0  0  0  0  0  0
   58.4730   31.3770   50.5410 C   0  0  0  0  0  0  0  0  0  0  0  0
   58.8350   32.7230   50.3400 C   0  0  0  0  0  0  0  0  0  0  0  0
   59.5910   33.0970   49.2250 C   0  0  0  0  0  0  0  0  0  0  0  0
   59.9980   32.1360   48.2990 C   0  0  0  0  0  0  0  0  0  0  0  0
   59.6520   30.7970   48.4880 C   0  0  0  0  0  0  0  0  0  0  0  0
   58.8960   30.4150   49.6010 C   0  0  0  0  0  0  0  0  0  0  0  0
  1  2  1  0
  2  3  1  0
  3  4  2  0
  4  5  1  0
  5  6  2  0
  5  7  1  0
  7  8  1  0
  8  9  1  0
  9 10  1  0
 10 11  2  0
 10 12  1  0
 12 13  1  0
 13 14  1  0
  3 15  1  0
 15 16  1  0
 16 17  1  0
 17 18  2  0
 18 19  1  0
 19 20  2  0
 20 21  1  0
 21 22  2  0
 16  1  2  0
 22 17  1  0
 13  8  2  0
M  CHG  3  12  -1  14  -1  15  -1
M  END
>  <UniqueID>  (981) 
74

>  <SMILES>  (981) 
O=C(Cc1sc(=O)[n-]c1[O-])/N=c1\[n-]c(-c2ccccc2)cs1

>  <Energy>  (981) 
98.68510084448707

>  <Genealogy>  (981) 
O=C(Cc1sc(=O)[n-]c1[O-])N=c1[n-]c(-c2ccccc2)cs1 (protonated)
O=C(Cc1sc(=O)[n-]c1[O-])/N=c1\[n-]c(-c2ccccc2)cs1 (cis-trans isomerization)
O=C(Cc1sc(=O)[n-]c1[O-])/N=c1\[n-]c(-c2ccccc2)cs1 (3D coordinates assigned)
O=C(Cc1sc(=O)[n-]c1[O-])/N=c1\[n-]c(-c2ccccc2)cs1 (optimized conformer: 98.68510084448707 kcal/mol)

>  <smiles>  (981) 
O=C(Cc1sc(=O)[nH]c1O)N=c1[nH]c(-c2ccccc2)cs1

>  <score_type>  (981) 
oracle

>  <origin>  (981) 
adg

>  <m_score__min__energy>  (981) 
-15.699999999999999

>  <m_primary>  (981) 
energy

$$$$
81:0
     RDKit          3D

 27 29  0  0  0  0  0  0  0  0999 V2000
   60.5040   30.3340   46.3620 C   0  0  0  0  0  0  0  0  0  0  0  0
   59.3760   30.9600   45.9870 C   0  0  0  0  0  0  0  0  0  0  0  0
   58.4260   30.4930   45.0610 C   0  0  0  0  0  0  0  0  0  0  0  0
   58.2880   29.2930   44.4610 C   0  0  0  0  0  0  0  0  0  0  0  0
   57.5870   28.1220   45.0260 C   0  0  0  0  0  0  0  0  0  0  0  0
   56.2080   28.1760   45.2700 C   0  0  0  0  0  0  0  0  0  0  0  0
   55.4760   29.3130   44.9370 O   0  0  0  0  0  0  0  0  0  0  0  0
   55.5770   27.1080   45.8280 N   0  0  0  0  0  0  0  0  0  0  0  0
   56.2640   25.9880   46.1700 C   0  0  0  0  0  0  0  0  0  0  0  0
   55.6570   25.0110   46.6800 O   0  0  0  0  0  0  0  0  0  0  0  0
   57.6040   25.9230   45.9690 N   0  0  0  0  0  0  0  0  0  0  0  0
   58.2820   26.9620   45.4160 C   0  0  0  0  0  0  0  0  0  0  0  0
   59.5300   26.8760   45.2640 O   0  0  0  0  0  0  0  0  0  0  0  0
   57.5330   31.5290   44.8630 C   0  0  0  0  0  0  0  0  0  0  0  0
   57.9200   32.5560   45.6950 C   0  0  0  0  0  0  0  0  0  0  0  0
   57.1670   33.8440   45.8490 C   0  0  0  0  0  0  0  0  0  0  0  0
   59.0350   32.2180   46.3860 N   0  0  0  0  0  0  0  0  0  0  0  0
   59.6760   33.0530   47.4160 C   0  0  0  0  0  0  0  0  0  0  0  0
   59.8080   32.2870   48.7070 C   0  0  0  0  0  0  0  0  0  0  0  0
   61.0730   32.0580   49.2720 C   0  0  0  0  0  0  0  0  0  0  0  0
   61.1910   31.3630   50.4750 C   0  0  0  0  0  0  0  0  0  0  0  0
   60.0520   30.8890   51.1300 C   0  0  0  0  0  0  0  0  0  0  0  0
   58.7740   31.1040   50.5810 C   0  0  0  0  0  0  0  0  0  0  0  0
   57.5640   30.6070   51.2770 C   0  0  0  0  0  0  0  0  0  0  0  0
   56.4820   31.4880   51.5700 N   0  0  0  0  0  0  0  0  0  0  0  0
   57.4810   29.3960   51.6210 O   0  0  0  0  0  0  0  0  0  0  0  0
   58.6650   31.8020   49.3650 C   0  0  0  0  0  0  0  0  0  0  0  0
  1  2  2  0
  2  3  1  0
  3  4  2  3
  4  5  1  0
  5  6  2  0
  6  7  1  0
  6  8  1  0
  8  9  1  0
  9 10  2  0
  9 11  1  0
 11 12  1  0
 12 13  2  0
  3 14  1  0
 14 15  2  0
 15 16  1  0
 15 17  1  0
 17 18  1  0
 18 19  1  0
 19 20  2  0
 20 21  1  0
 21 22  2  0
 22 23  1  0
 23 24  1  0
 24 25  1  0
 24 26  2  0
 23 27  2  0
 17  2  1  0
 27 19  1  0
 12  5  1  0
M  CHG  3   8  -1  11  -1  25  -1
M  END
>  <UniqueID>  (982) 
75

>  <SMILES>  (982) 
C=c1c(=Cc2c(O)[n-]c(=O)[n-]c2=O)cc(C)n1Cc1cccc(C([NH-])=O)c1

>  <Energy>  (982) 
86.45177897443368

>  <Genealogy>  (982) 
C=c1c(=Cc2c(O)[n-]c(=O)[n-]c2=O)cc(C)n1Cc1cccc(C([NH-])=O)c1 (protonated)
C=c1c(=Cc2c(O)[n-]c(=O)[n-]c2=O)cc(C)n1Cc1cccc(C([NH-])=O)c1 (3D coordinates assigned)
C=c1c(=Cc2c(O)[n-]c(=O)[n-]c2=O)cc(C)n1Cc1cccc(C([NH-])=O)c1 (optimized conformer: 86.45177897443368 kcal/mol)

>  <smiles>  (982) 
C=c1c(=Cc2c(O)[nH]c(=O)[nH]c2=O)cc(C)n1Cc1cccc(C(N)=O)c1

>  <score_type>  (982) 
oracle

>  <origin>  (982) 
adg

>  <m_score__min__energy>  (982) 
-14.27

>  <m_primary>  (982) 
energy

$$$$
83:0
     RDKit          3D

 31 35  0  0  0  0  0  0  0  0999 V2000
   55.5760   22.1010   44.8490 O   0  0  0  0  0  0  0  0  0  0  0  0
   55.6020   23.3220   45.1470 C   0  0  0  0  0  0  0  0  0  0  0  0
   54.4820   24.0410   45.3680 N   0  0  0  0  0  0  0  0  0  0  0  0
   54.9640   25.2630   45.6490 C   0  0  0  0  0  0  0  0  0  0  0  0
   54.1540   26.3390   45.9870 O   0  0  0  0  0  0  0  0  0  0  0  0
   56.3440   25.2610   45.5880 C   0  0  0  0  0  0  0  0  0  0  0  0
   57.2750   26.3860   45.8380 C   0  0  0  0  0  0  0  0  0  0  0  0
   57.7000   27.1870   44.7640 C   0  0  0  0  0  0  0  0  0  0  0  0
   58.5680   28.2610   44.9770 C   0  0  0  0  0  0  0  0  0  0  0  0
   59.0110   28.5640   46.2700 C   0  0  0  0  0  0  0  0  0  0  0  0
   60.0810   29.9310   46.5590 S   0  0  0  0  0  0  0  0  0  0  0  0
   61.4130   29.6160   45.9380 O   0  0  0  0  0  0  0  0  0  0  0  0
   60.2860   30.1400   48.0310 O   0  0  0  0  0  0  0  0  0  0  0  0
   59.4460   31.3790   45.8310 N   0  0  0  0  0  0  0  0  0  0  0  0
   58.5140   31.3560   44.8480 C   0  0  0  0  0  0  0  0  0  0  0  0
   58.0100   32.6220   44.6110 C   0  0  0  0  0  0  0  0  0  0  0  0
   58.6620   33.4410   45.5020 C   0  0  0  0  0  0  0  0  0  0  0  0
   58.4890   34.8040   45.7270 C   0  0  0  0  0  0  0  0  0  0  0  0
   59.2570   35.4060   46.7320 C   0  0  0  0  0  0  0  0  0  0  0  0
   60.1830   34.6460   47.4710 C   0  0  0  0  0  0  0  0  0  0  0  0
   60.3510   33.2660   47.2270 C   0  0  0  0  0  0  0  0  0  0  0  0
   61.4110   32.5700   47.8930 N   0  0  0  0  0  0  0  0  0  0  0  0
   61.4230   32.5010   49.3580 C   0  0  0  0  0  0  0  0  0  0  0  0
   62.6630   33.2260   49.8930 C   0  0  0  0  0  0  0  0  0  0  0  0
   63.9300   32.7420   49.2990 N   0  0  0  0  0  0  0  0  0  0  0  0
   63.7750   31.8870   48.1070 C   0  0  0  0  0  0  0  0  0  0  0  0
   62.6780   32.4050   47.1690 C   0  0  0  0  0  0  0  0  0  0  0  0
   59.5440   32.6730   46.2300 C   0  0  0  0  0  0  0  0  0  0  0  0
   58.5970   27.7690   47.3450 C   0  0  0  0  0  0  0  0  0  0  0  0
   57.7300   26.6930   47.1340 C   0  0  0  0  0  0  0  0  0  0  0  0
   56.7530   24.0160   45.2740 N   0  0  0  0  0  0  0  0  0  0  0  0
  1  2  2  0
  2  3  1  0
  3  4  1  0
  4  5  1  0
  4  6  2  0
  6  7  1  0
  7  8  2  0
  8  9  1  0
  9 10  2  0
 10 11  1  0
 11 12  2  0
 11 13  2  0
 11 14  1  0
 14 15  1  0
 15 16  2  0
 16 17  1  0
 17 18  2  0
 18 19  1  0
 19 20  2  0
 20 21  1  0
 21 22  1  0
 22 23  1  0
 23 24  1  0
 24 25  1  0
 25 26  1  0
 26 27  1  0
 21 28  2  0
 10 29  1  0
 29 30  2  0
  6 31  1  0
 31  2  1  0
 30  7  1  0
 28 14  1  0
 28 17  1  0
 27 22  1  0
M  CHG  3   3  -1   5  -1  31  -1
M  END
>  <UniqueID>  (983) 
77

>  <SMILES>  (983) 
O=c1[n-]c([O-])c(-c2ccc(S(=O)(=O)n3ccc4cccc(N5CCNCC5)c43)cc2)[n-]1

>  <Energy>  (983) 
135.74999990170926

>  <Genealogy>  (983) 
O=c1[n-]c([O-])c(-c2ccc(S(=O)(=O)n3ccc4cccc(N5CCNCC5)c43)cc2)[n-]1 (protonated)
O=c1[n-]c([O-])c(-c2ccc(S(=O)(=O)n3ccc4cccc(N5CCNCC5)c43)cc2)[n-]1 (3D coordinates assigned)
O=c1[n-]c([O-])c(-c2ccc(S(=O)(=O)n3ccc4cccc(N5CCNCC5)c43)cc2)[n-]1 (nonaromatic ring conformer: 135.74999990170926 kcal/mol)

>  <smiles>  (983) 
O=c1[nH]c(O)c(-c2ccc(S(=O)(=O)n3ccc4cccc(N5CCNCC5)c43)cc2)[nH]1

>  <score_type>  (983) 
oracle

>  <origin>  (983) 
adg

>  <m_score__min__energy>  (983) 
-15.25

>  <m_primary>  (983) 
energy

$$$$
7:0
     RDKit          3D

 27 29  0  0  0  0  0  0  0  0999 V2000
   58.9870   27.5730   46.0520 O   0  0  0  0  0  0  0  0  0  0  0  0
   57.8120   28.0290   45.9990 C   0  0  0  0  0  0  0  0  0  0  0  0
   56.7060   27.1980   46.3810 N   0  0  0  0  0  0  0  0  0  0  0  0
   56.4580   25.8500   45.9520 C   0  0  0  0  0  0  0  0  0  0  0  0
   57.5090   24.9540   45.6760 C   0  0  0  0  0  0  0  0  0  0  0  0
   57.2290   23.6560   45.2370 C   0  0  0  0  0  0  0  0  0  0  0  0
   55.9060   23.2480   45.0550 C   0  0  0  0  0  0  0  0  0  0  0  0
   54.8590   24.1380   45.3020 C   0  0  0  0  0  0  0  0  0  0  0  0
   55.1320   25.4380   45.7430 C   0  0  0  0  0  0  0  0  0  0  0  0
   54.0810   26.3180   45.9780 O   0  0  0  0  0  0  0  0  0  0  0  0
   57.5800   29.4440   45.6030 C   0  0  0  0  0  0  0  0  0  0  0  0
   56.3680   29.8420   45.0130 C   0  0  0  0  0  0  0  0  0  0  0  0
   55.3580   28.9180   44.7560 O   0  0  0  0  0  0  0  0  0  0  0  0
   56.1750   31.1390   44.6740 N   0  0  0  0  0  0  0  0  0  0  0  0
   57.1290   32.0810   44.8730 C   0  0  0  0  0  0  0  0  0  0  0  0
   56.8820   33.2730   44.5490 O   0  0  0  0  0  0  0  0  0  0  0  0
   58.3380   31.7350   45.4200 N   0  0  0  0  0  0  0  0  0  0  0  0
   59.3650   32.7710   45.6530 C   0  0  0  0  0  0  0  0  0  0  0  0
   59.3650   33.2000   47.1220 C   0  0  0  0  0  0  0  0  0  0  0  0
   60.7670   33.4650   47.5990 C   0  0  0  0  0  0  0  0  0  0  0  0
   61.8620   33.2050   46.7580 C   0  0  0  0  0  0  0  0  0  0  0  0
   63.1670   33.4200   47.2140 C   0  0  0  0  0  0  0  0  0  0  0  0
   63.3860   33.8870   48.5130 C   0  0  0  0  0  0  0  0  0  0  0  0
   62.3020   34.1350   49.3600 C   0  0  0  0  0  0  0  0  0  0  0  0
   60.9970   33.9200   48.9080 C   0  0  0  0  0  0  0  0  0  0  0  0
   58.5660   30.4370   45.8040 C   0  0  0  0  0  0  0  0  0  0  0  0
   59.6580   30.1280   46.3590 O   0  0  0  0  0  0  0  0  0  0  0  0
  1  2  2  0
  2  3  1  0
  3  4  1  0
  4  5  2  0
  5  6  1  0
  6  7  2  0
  7  8  1  0
  8  9  2  0
  9 10  1  0
  2 11  1  0
 11 12  2  0
 12 13  1  0
 12 14  1  0
 14 15  1  0
 15 16  2  0
 15 17  1  0
 17 18  1  0
 18 19  1  0
 19 20  1  0
 20 21  2  0
 21 22  1  0
 22 23  2  0
 23 24  1  0
 24 25  2  0
 17 26  1  0
 26 27  2  0
  9  4  1  0
 26 11  1  0
 25 20  1  0
M  CHG  3   3  -1  10  -1  14  -1
M  END
>  <UniqueID>  (984) 
8

>  <SMILES>  (984) 
O=C([N-]c1ccccc1[O-])c1c(O)[n-]c(=O)n(CCc2ccccc2)c1=O

>  <Energy>  (984) 
53.396729615083515

>  <Genealogy>  (984) 
O=C([N-]c1ccccc1[O-])c1c(O)[n-]c(=O)n(CCc2ccccc2)c1=O (protonated)
O=C([N-]c1ccccc1[O-])c1c(O)[n-]c(=O)n(CCc2ccccc2)c1=O (3D coordinates assigned)
O=C([N-]c1ccccc1[O-])c1c(O)[n-]c(=O)n(CCc2ccccc2)c1=O (optimized conformer: 53.396729615083515 kcal/mol)

>  <smiles>  (984) 
O=C(Nc1ccccc1O)c1c(O)[nH]c(=O)n(CCc2ccccc2)c1=O

>  <score_type>  (984) 
oracle

>  <origin>  (984) 
adg

>  <m_score__min__energy>  (984) 
-15.68

>  <m_primary>  (984) 
energy

$$$$
24:0
     RDKit          3D

 29 31  0  0  0  0  0  0  0  0999 V2000
   58.9050   34.6770   53.3420 C   0  0  0  0  0  0  0  0  0  0  0  0
   58.5250   34.2060   52.0550 O   0  0  0  0  0  0  0  0  0  0  0  0
   58.2970   32.8570   51.7710 C   0  0  0  0  0  0  0  0  0  0  0  0
   57.1810   32.2510   52.2650 N   0  0  0  0  0  0  0  0  0  0  0  0
   56.9040   30.9460   52.0240 C   0  0  0  0  0  0  0  0  0  0  0  0
   57.7830   30.1960   51.2500 C   0  0  0  0  0  0  0  0  0  0  0  0
   58.8990   30.7870   50.7510 N   0  0  0  0  0  0  0  0  0  0  0  0
   59.1960   32.0940   50.9800 C   0  0  0  0  0  0  0  0  0  0  0  0
   60.2950   32.5620   50.4530 N   0  0  0  0  0  0  0  0  0  0  0  0
   60.5150   33.5330   49.0290 S   0  0  0  0  0  0  0  0  0  0  0  0
   60.1860   34.9660   49.3430 O   0  0  0  0  0  0  0  0  0  0  0  0
   61.9280   33.4200   48.5290 O   0  0  0  0  0  0  0  0  0  0  0  0
   59.4270   32.9450   47.7760 C   0  0  0  0  0  0  0  0  0  0  0  0
   58.8910   33.8420   46.8430 C   0  0  0  0  0  0  0  0  0  0  0  0
   58.0170   33.3870   45.8510 C   0  0  0  0  0  0  0  0  0  0  0  0
   57.6820   32.0290   45.7700 C   0  0  0  0  0  0  0  0  0  0  0  0
   56.7710   31.6000   44.7470 N   0  0  0  0  0  0  0  0  0  0  0  0
   56.8490   30.3760   44.0030 C   0  0  0  0  0  0  0  0  0  0  0  0
   56.3170   30.3320   42.8620 O   0  0  0  0  0  0  0  0  0  0  0  0
   57.5930   29.1960   44.5090 C   0  0  0  0  0  0  0  0  0  0  0  0
   58.9930   29.1430   44.3820 C   0  0  0  0  0  0  0  0  0  0  0  0
   59.7040   28.0350   44.8470 C   0  0  0  0  0  0  0  0  0  0  0  0
   59.0290   26.9650   45.4350 C   0  0  0  0  0  0  0  0  0  0  0  0
   57.6380   26.9980   45.5620 C   0  0  0  0  0  0  0  0  0  0  0  0
   56.7380   25.5190   46.3780 Br  0  0  0  0  0  0  0  0  0  0  0  0
   56.9150   28.1090   45.1010 C   0  0  0  0  0  0  0  0  0  0  0  0
   55.5320   28.1340   45.2460 O   0  0  0  0  0  0  0  0  0  0  0  0
   58.1980   31.1350   46.7250 C   0  0  0  0  0  0  0  0  0  0  0  0
   59.0690   31.5910   47.7190 C   0  0  0  0  0  0  0  0  0  0  0  0
  1  2  1  0
  2  3  1  0
  3  4  2  0
  4  5  1  0
  5  6  2  0
  6  7  1  0
  7  8  1  0
  8  9  2  3
  9 10  1  0
 10 11  2  0
 10 12  2  0
 10 13  1  0
 13 14  2  0
 14 15  1  0
 15 16  2  0
 16 17  1  0
 17 18  1  0
 18 19  2  0
 18 20  1  0
 20 21  2  0
 21 22  1  0
 22 23  2  0
 23 24  1  0
 24 25  1  0
 24 26  2  0
 26 27  1  0
 16 28  1  0
 28 29  2  0
  8  3  1  0
 29 13  1  0
 26 20  1  0
M  CHG  3   7  -1  17  -1  27  -1
M  END
>  <UniqueID>  (985) 
24

>  <SMILES>  (985) 
COc1ncc[n-]c1=NS(=O)(=O)c1ccc([N-]C(=O)c2cccc(Br)c2[O-])cc1

>  <Energy>  (985) 
62.224881383315164

>  <Genealogy>  (985) 
COc1ncc[n-]c1=NS(=O)(=O)c1ccc([N-]C(=O)c2cccc(Br)c2[O-])cc1 (protonated)
COc1ncc[n-]c1=NS(=O)(=O)c1ccc([N-]C(=O)c2cccc(Br)c2[O-])cc1 (3D coordinates assigned)
COc1ncc[n-]c1=NS(=O)(=O)c1ccc([N-]C(=O)c2cccc(Br)c2[O-])cc1 (optimized conformer: 62.224881383315164 kcal/mol)

>  <smiles>  (985) 
COc1ncc[nH]c1=NS(=O)(=O)c1ccc(NC(=O)c2cccc(Br)c2O)cc1

>  <score_type>  (985) 
oracle

>  <origin>  (985) 
adg

>  <m_score__min__energy>  (985) 
-15

>  <m_primary>  (985) 
energy

$$$$
47:0
     RDKit          3D

 31 34  0  0  0  0  0  0  0  0999 V2000
   55.8910   27.4830   45.8770 O   0  0  0  0  0  0  0  0  0  0  0  0
   55.6550   26.1230   46.0760 C   0  0  0  0  0  0  0  0  0  0  0  0
   54.4800   25.5930   45.6420 N   0  0  0  0  0  0  0  0  0  0  0  0
   54.1910   24.2800   45.8160 C   0  0  0  0  0  0  0  0  0  0  0  0
   53.0930   23.8190   45.4070 O   0  0  0  0  0  0  0  0  0  0  0  0
   55.0810   23.4650   46.4370 N   0  0  0  0  0  0  0  0  0  0  0  0
   56.2700   23.9390   46.8900 C   0  0  0  0  0  0  0  0  0  0  0  0
   57.0680   23.1570   47.4760 O   0  0  0  0  0  0  0  0  0  0  0  0
   56.5990   25.2940   46.7080 C   0  0  0  0  0  0  0  0  0  0  0  0
   57.8490   25.8490   47.2600 C   0  0  0  0  0  0  0  0  0  0  0  0
   58.5100   26.9260   46.7900 C   0  0  0  0  0  0  0  0  0  0  0  0
   59.1000   26.9440   45.5400 C   0  0  0  0  0  0  0  0  0  0  0  0
   59.6590   28.1940   45.3710 C   0  0  0  0  0  0  0  0  0  0  0  0
   60.3860   28.6420   44.1370 C   0  0  0  0  0  0  0  0  0  0  0  0
   59.4360   28.9590   46.4620 N   0  0  0  0  0  0  0  0  0  0  0  0
   59.9090   30.3090   46.6390 C   0  0  0  0  0  0  0  0  0  0  0  0
   61.2130   30.5510   47.0940 C   0  0  0  0  0  0  0  0  0  0  0  0
   61.6800   31.8620   47.2140 C   0  0  0  0  0  0  0  0  0  0  0  0
   60.8620   32.9370   46.8540 C   0  0  0  0  0  0  0  0  0  0  0  0
   59.5640   32.7070   46.3750 C   0  0  0  0  0  0  0  0  0  0  0  0
   58.7180   33.8360   45.9350 C   0  0  0  0  0  0  0  0  0  0  0  0
   58.8430   34.9520   46.5040 O   0  0  0  0  0  0  0  0  0  0  0  0
   57.7840   33.7150   44.8490 N   0  0  0  0  0  0  0  0  0  0  0  0
   57.4080   32.6150   44.2640 C   0  0  0  0  0  0  0  0  0  0  0  0
   56.6330   31.6980   44.8840 N   0  0  0  0  0  0  0  0  0  0  0  0
   56.4280   30.6020   44.1050 C   0  0  0  0  0  0  0  0  0  0  0  0
   57.0530   30.6300   42.8650 C   0  0  0  0  0  0  0  0  0  0  0  0
   57.8910   32.0810   42.7390 S   0  0  0  0  0  0  0  0  0  0  0  0
   59.0840   31.3920   46.2930 C   0  0  0  0  0  0  0  0  0  0  0  0
   58.7500   28.1930   47.3530 C   0  0  0  0  0  0  0  0  0  0  0  0
   58.4070   28.6220   48.5770 C   0  0  0  0  0  0  0  0  0  0  0  0
  1  2  1  0
  2  3  1  0
  3  4  1  0
  4  5  2  0
  4  6  1  0
  6  7  1  0
  7  8  2  0
  7  9  1  0
  9 10  1  0
 10 11  2  3
 11 12  1  0
 12 13  2  0
 13 14  1  0
 13 15  1  0
 15 16  1  0
 16 17  2  0
 17 18  1  0
 18 19  2  0
 19 20  1  0
 20 21  1  0
 21 22  2  0
 21 23  1  0
 23 24  2  0
 24 25  1  0
 25 26  1  0
 26 27  2  0
 27 28  1  0
 20 29  2  0
 15 30  1  0
 30 31  2  0
  9  2  2  0
 30 11  1  0
 29 16  1  0
 28 24  1  0
M  CHG  3   3  -1   6  -1  25  -1
M  END
>  <UniqueID>  (986) 
45

>  <SMILES>  (986) 
C=c1c(=Cc2c(O)[n-]c(=O)[n-]c2=O)cc(C)n1-c1cccc(C(=O)/N=c2/[n-]ccs2)c1

>  <Energy>  (986) 
138.43302697376387

>  <Genealogy>  (986) 
C=c1c(=Cc2c(O)[n-]c(=O)[n-]c2=O)cc(C)n1-c1cccc(C(=O)N=c2[n-]ccs2)c1 (protonated)
C=c1c(=Cc2c(O)[n-]c(=O)[n-]c2=O)cc(C)n1-c1cccc(C(=O)/N=c2/[n-]ccs2)c1 (cis-trans isomerization)
C=c1c(=Cc2c(O)[n-]c(=O)[n-]c2=O)cc(C)n1-c1cccc(C(=O)/N=c2/[n-]ccs2)c1 (3D coordinates assigned)
C=c1c(=Cc2c(O)[n-]c(=O)[n-]c2=O)cc(C)n1-c1cccc(C(=O)/N=c2/[n-]ccs2)c1 (optimized conformer: 138.43302697376387 kcal/mol)

>  <smiles>  (986) 
C=c1c(=Cc2c(O)[nH]c(=O)[nH]c2=O)cc(C)n1-c1cccc(C(=O)N=c2[nH]ccs2)c1

>  <score_type>  (986) 
oracle

>  <origin>  (986) 
adg

>  <m_score__min__energy>  (986) 
-14.619999999999999

>  <m_primary>  (986) 
energy

$$$$
83:0
     RDKit          3D

 26 28  0  0  0  0  0  0  0  0999 V2000
   58.8920   32.7350   48.1510 O   0  0  0  0  0  0  0  0  0  0  0  0
   60.1920   33.0030   47.7270 C   0  0  0  0  0  0  0  0  0  0  0  0
   61.2630   32.3770   48.3800 C   0  0  0  0  0  0  0  0  0  0  0  0
   62.5760   32.6920   48.0350 C   0  0  0  0  0  0  0  0  0  0  0  0
   62.8120   33.6370   47.0400 C   0  0  0  0  0  0  0  0  0  0  0  0
   61.7670   34.2230   46.4010 N   0  0  0  0  0  0  0  0  0  0  0  0
   60.4680   33.9280   46.6860 C   0  0  0  0  0  0  0  0  0  0  0  0
   59.5440   34.5440   45.9980 N   0  0  0  0  0  0  0  0  0  0  0  0
   58.3500   34.0120   45.4110 C   0  0  0  0  0  0  0  0  0  0  0  0
   57.2510   34.2130   45.9930 O   0  0  0  0  0  0  0  0  0  0  0  0
   58.3880   33.4220   44.0530 C   0  0  0  0  0  0  0  0  0  0  0  0
   57.7260   32.3220   43.6580 C   0  0  0  0  0  0  0  0  0  0  0  0
   57.6960   31.0340   44.3800 C   0  0  0  0  0  0  0  0  0  0  0  0
   58.6690   30.7720   45.3560 C   0  0  0  0  0  0  0  0  0  0  0  0
   58.6360   29.5790   46.0840 C   0  0  0  0  0  0  0  0  0  0  0  0
   57.6290   28.6320   45.8420 C   0  0  0  0  0  0  0  0  0  0  0  0
   57.5460   27.4350   46.6270 N   0  0  0  0  0  0  0  0  0  0  0  0
   57.2180   26.2320   46.2380 C   0  0  0  0  0  0  0  0  0  0  0  0
   58.2050   25.2950   46.1830 N   0  0  0  0  0  0  0  0  0  0  0  0
   57.9800   24.0160   45.7850 C   0  0  0  0  0  0  0  0  0  0  0  0
   56.6980   23.6160   45.4140 C   0  0  0  0  0  0  0  0  0  0  0  0
   55.6540   24.5370   45.4770 C   0  0  0  0  0  0  0  0  0  0  0  0
   55.8930   25.8470   45.9030 C   0  0  0  0  0  0  0  0  0  0  0  0
   54.8120   26.7120   46.0220 O   0  0  0  0  0  0  0  0  0  0  0  0
   56.6190   28.9200   44.9180 C   0  0  0  0  0  0  0  0  0  0  0  0
   56.6510   30.1120   44.1890 C   0  0  0  0  0  0  0  0  0  0  0  0
  1  2  1  0
  2  3  2  0
  3  4  1  0
  4  5  2  0
  5  6  1  0
  6  7  1  0
  7  8  2  3
  8  9  1  0
  9 10  2  0
  9 11  1  0
 11 12  2  3
 12 13  1  0
 13 14  2  0
 14 15  1  0
 15 16  2  0
 16 17  1  0
 17 18  2  0
 18 19  1  0
 19 20  1  0
 20 21  2  0
 21 22  1  0
 22 23  2  0
 23 24  1  0
 16 25  1  0
 25 26  2  0
  7  2  1  0
 26 13  1  0
 23 18  1  0
M  CHG  3   6  -1  19  -1  24  -1
M  END
>  <UniqueID>  (987) 
78

>  <SMILES>  (987) 
O=C(C=Cc1ccc(/N=c2/[n-]cccc2[O-])cc1)N=c1[n-]cccc1O

>  <Energy>  (987) 
76.04330169408644

>  <Genealogy>  (987) 
O=C(C=Cc1ccc(N=c2[n-]cccc2[O-])cc1)N=c1[n-]cccc1O (protonated)
O=C(C=Cc1ccc(/N=c2/[n-]cccc2[O-])cc1)N=c1[n-]cccc1O (cis-trans isomerization)
O=C(C=Cc1ccc(/N=c2/[n-]cccc2[O-])cc1)N=c1[n-]cccc1O (3D coordinates assigned)
O=C(C=Cc1ccc(/N=c2/[n-]cccc2[O-])cc1)N=c1[n-]cccc1O (optimized conformer: 76.04330169408644 kcal/mol)

>  <smiles>  (987) 
O=C(C=Cc1ccc(N=c2[nH]cccc2O)cc1)N=c1[nH]cccc1O

>  <score_type>  (987) 
oracle

>  <origin>  (987) 
adg

>  <m_score__min__energy>  (987) 
-14.050000000000001

>  <m_primary>  (987) 
energy

$$$$
23:0
     RDKit          3D

 32 34  0  0  0  0  0  0  0  0999 V2000
   55.3160   22.3380   45.2170 C   0  0  0  0  0  0  0  0  0  0  0  0
   56.2570   23.2990   45.0180 N   0  0  0  0  0  0  0  0  0  0  0  0
   56.0350   24.6140   45.2890 C   0  0  0  0  0  0  0  0  0  0  0  0
   57.0140   25.4500   45.0720 N   0  0  0  0  0  0  0  0  0  0  0  0
   58.3230   25.4840   45.6600 C   0  0  0  0  0  0  0  0  0  0  0  0
   59.0410   24.4460   45.6490 O   0  0  0  0  0  0  0  0  0  0  0  0
   58.8750   26.7600   46.1740 C   0  0  0  0  0  0  0  0  0  0  0  0
   59.4290   26.8280   47.4600 C   0  0  0  0  0  0  0  0  0  0  0  0
   59.9420   28.0300   47.9480 C   0  0  0  0  0  0  0  0  0  0  0  0
   59.9140   29.1990   47.1670 C   0  0  0  0  0  0  0  0  0  0  0  0
   60.4670   30.4550   47.7370 C   0  0  0  0  0  0  0  0  0  0  0  0
   60.1760   30.8260   48.9050 O   0  0  0  0  0  0  0  0  0  0  0  0
   61.3240   31.2490   46.9820 O   0  0  0  0  0  0  0  0  0  0  0  0
   59.3580   29.1440   45.8650 C   0  0  0  0  0  0  0  0  0  0  0  0
   59.3310   30.3130   45.0810 O   0  0  0  0  0  0  0  0  0  0  0  0
   58.3880   30.6280   44.0550 C   0  0  0  0  0  0  0  0  0  0  0  0
   57.0900   31.0960   44.6400 C   0  0  0  0  0  0  0  0  0  0  0  0
   56.1100   30.3050   44.6770 O   0  0  0  0  0  0  0  0  0  0  0  0
   57.0020   32.3940   45.2410 N   0  0  0  0  0  0  0  0  0  0  0  0
   57.9760   33.0170   46.0910 C   0  0  0  0  0  0  0  0  0  0  0  0
   58.8920   33.9060   45.5190 C   0  0  0  0  0  0  0  0  0  0  0  0
   59.8460   34.5510   46.3130 C   0  0  0  0  0  0  0  0  0  0  0  0
   59.8860   34.3210   47.7010 C   0  0  0  0  0  0  0  0  0  0  0  0
   60.8250   34.9390   48.5400 O   0  0  0  0  0  0  0  0  0  0  0  0
   61.8250   34.2420   49.2770 C   0  0  0  0  0  0  0  0  0  0  0  0
   58.9540   33.4490   48.2740 C   0  0  0  0  0  0  0  0  0  0  0  0
   58.0000   32.8050   47.4800 C   0  0  0  0  0  0  0  0  0  0  0  0
   58.8530   27.9190   45.3820 C   0  0  0  0  0  0  0  0  0  0  0  0
   54.7510   25.0050   45.7520 C   0  0  0  0  0  0  0  0  0  0  0  0
   54.3950   26.3360   45.9360 O   0  0  0  0  0  0  0  0  0  0  0  0
   53.7820   24.0220   45.9810 C   0  0  0  0  0  0  0  0  0  0  0  0
   54.0640   22.6830   45.7180 C   0  0  0  0  0  0  0  0  0  0  0  0
  1  2  1  0
  2  3  1  0
  3  4  2  0
  4  5  1  0
  5  6  2  0
  5  7  1  0
  7  8  2  0
  8  9  1  0
  9 10  2  0
 10 11  1  0
 11 12  2  0
 11 13  1  0
 10 14  1  0
 14 15  1  0
 15 16  1  0
 16 17  1  0
 17 18  2  0
 17 19  1  0
 19 20  1  0
 20 21  2  0
 21 22  1  0
 22 23  2  0
 23 24  1  0
 24 25  1  0
 23 26  1  0
 26 27  2  0
 14 28  2  0
  3 29  1  0
 29 30  1  0
 29 31  2  0
 31 32  1  0
 32  1  2  0
 28  7  1  0
 27 20  1  0
M  CHG  4   2  -1  13  -1  19  -1  30  -1
M  END
>  <UniqueID>  (988) 
22

>  <SMILES>  (988) 
COc1ccc([N-]C(=O)COc2cc(C(=O)/N=c3/[n-]cccc3[O-])ccc2C(=O)[O-])cc1

>  <Energy>  (988) 
68.68806252369764

>  <Genealogy>  (988) 
COc1ccc([N-]C(=O)COc2cc(C(=O)N=c3[n-]cccc3[O-])ccc2C(=O)[O-])cc1 (protonated)
COc1ccc([N-]C(=O)COc2cc(C(=O)/N=c3/[n-]cccc3[O-])ccc2C(=O)[O-])cc1 (cis-trans isomerization)
COc1ccc([N-]C(=O)COc2cc(C(=O)/N=c3/[n-]cccc3[O-])ccc2C(=O)[O-])cc1 (3D coordinates assigned)
COc1ccc([N-]C(=O)COc2cc(C(=O)/N=c3/[n-]cccc3[O-])ccc2C(=O)[O-])cc1 (optimized conformer: 68.68806252369764 kcal/mol)

>  <smiles>  (988) 
COc1ccc(NC(=O)COc2cc(C(=O)N=c3[nH]cccc3O)ccc2C(=O)O)cc1

>  <score_type>  (988) 
oracle

>  <origin>  (988) 
adg

>  <m_score__min__energy>  (988) 
-14.550000000000001

>  <m_primary>  (988) 
energy

$$$$
34:0
     RDKit          3D

 19 20  0  0  0  0  0  0  0  0999 V2000
   55.1420   29.0350   44.7520 O   0  0  0  0  0  0  0  0  0  0  0  0
   56.3260   29.7610   44.6360 C   0  0  0  0  0  0  0  0  0  0  0  0
   56.2580   31.1510   44.4650 C   0  0  0  0  0  0  0  0  0  0  0  0
   57.4250   31.9110   44.4130 C   0  0  0  0  0  0  0  0  0  0  0  0
   58.6580   31.2740   44.5350 C   0  0  0  0  0  0  0  0  0  0  0  0
   58.7130   29.9250   44.6840 N   0  0  0  0  0  0  0  0  0  0  0  0
   57.6010   29.1410   44.7200 C   0  0  0  0  0  0  0  0  0  0  0  0
   57.7710   27.8540   44.8530 N   0  0  0  0  0  0  0  0  0  0  0  0
   57.2370   26.9860   45.8620 C   0  0  0  0  0  0  0  0  0  0  0  0
   57.3140   27.3460   47.0660 O   0  0  0  0  0  0  0  0  0  0  0  0
   56.7020   25.6400   45.5190 C   0  0  0  0  0  0  0  0  0  0  0  0
   57.5830   24.6240   45.1040 C   0  0  0  0  0  0  0  0  0  0  0  0
   57.1020   23.3550   44.7750 C   0  0  0  0  0  0  0  0  0  0  0  0
   55.7370   23.0790   44.8560 C   0  0  0  0  0  0  0  0  0  0  0  0
   55.2730   21.8110   44.5250 O   0  0  0  0  0  0  0  0  0  0  0  0
   54.8430   24.0750   45.2670 C   0  0  0  0  0  0  0  0  0  0  0  0
   52.9670   23.6930   45.3730 Br  0  0  0  0  0  0  0  0  0  0  0  0
   55.3210   25.3540   45.5980 C   0  0  0  0  0  0  0  0  0  0  0  0
   54.4140   26.3370   45.9860 O   0  0  0  0  0  0  0  0  0  0  0  0
  1  2  1  0
  2  3  2  0
  3  4  1  0
  4  5  2  0
  5  6  1  0
  6  7  1  0
  7  8  2  0
  8  9  1  0
  9 10  2  0
  9 11  1  0
 11 12  2  0
 12 13  1  0
 13 14  2  0
 14 15  1  0
 14 16  1  0
 16 17  1  0
 16 18  2  0
 18 19  1  0
  7  2  1  0
 18 11  1  0
M  CHG  3   6  -1  15  -1  19  -1
M  END
>  <UniqueID>  (989) 
32

>  <SMILES>  (989) 
O=C(/N=c1/[n-]cccc1O)c1ccc([O-])c(Br)c1[O-]

>  <Energy>  (989) 
42.67061841460442

>  <Genealogy>  (989) 
O=C(N=c1[n-]cccc1O)c1ccc([O-])c(Br)c1[O-] (protonated)
O=C(/N=c1/[n-]cccc1O)c1ccc([O-])c(Br)c1[O-] (cis-trans isomerization)
O=C(/N=c1/[n-]cccc1O)c1ccc([O-])c(Br)c1[O-] (3D coordinates assigned)
O=C(/N=c1/[n-]cccc1O)c1ccc([O-])c(Br)c1[O-] (optimized conformer: 42.67061841460442 kcal/mol)

>  <smiles>  (989) 
O=C(N=c1[nH]cccc1O)c1ccc(O)c(Br)c1O

>  <score_type>  (989) 
oracle

>  <origin>  (989) 
adg

>  <m_score__min__energy>  (989) 
-14.23

>  <m_primary>  (989) 
energy

$$$$
44:0
     RDKit          3D

 37 41  0  0  0  0  0  0  0  0999 V2000
   56.3370   29.2570   44.8200 C   0  0  0  0  0  0  0  0  0  0  0  0
   57.6270   28.9090   44.9570 C   0  0  0  0  0  0  0  0  0  0  0  0
   58.1520   27.6160   44.8570 C   0  0  0  0  0  0  0  0  0  0  0  0
   57.4900   26.4860   44.5440 C   0  0  0  0  0  0  0  0  0  0  0  0
   57.0980   25.4620   45.5390 C   0  0  0  0  0  0  0  0  0  0  0  0
   55.8960   25.6000   46.2490 C   0  0  0  0  0  0  0  0  0  0  0  0
   55.0460   26.6710   46.0000 O   0  0  0  0  0  0  0  0  0  0  0  0
   55.5480   24.6760   47.1820 N   0  0  0  0  0  0  0  0  0  0  0  0
   56.3530   23.6200   47.4560 C   0  0  0  0  0  0  0  0  0  0  0  0
   56.0090   22.7740   48.3240 O   0  0  0  0  0  0  0  0  0  0  0  0
   57.5340   23.4760   46.8020 N   0  0  0  0  0  0  0  0  0  0  0  0
   57.9290   24.3730   45.8610 C   0  0  0  0  0  0  0  0  0  0  0  0
   59.0480   24.2270   45.3010 O   0  0  0  0  0  0  0  0  0  0  0  0
   59.5130   27.7270   45.1070 C   0  0  0  0  0  0  0  0  0  0  0  0
   59.7650   29.0640   45.3430 C   0  0  0  0  0  0  0  0  0  0  0  0
   61.1150   29.6340   45.6600 C   0  0  0  0  0  0  0  0  0  0  0  0
   58.6210   29.7810   45.2580 N   0  0  0  0  0  0  0  0  0  0  0  0
   58.5130   31.2060   45.4220 C   0  0  0  0  0  0  0  0  0  0  0  0
   57.9120   31.9850   44.4250 C   0  0  0  0  0  0  0  0  0  0  0  0
   57.8510   33.3710   44.5630 C   0  0  0  0  0  0  0  0  0  0  0  0
   58.3860   33.9920   45.6940 C   0  0  0  0  0  0  0  0  0  0  0  0
   58.9890   33.2280   46.7170 C   0  0  0  0  0  0  0  0  0  0  0  0
   59.5950   33.8560   47.9320 C   0  0  0  0  0  0  0  0  0  0  0  0
   58.9660   33.7680   49.0250 O   0  0  0  0  0  0  0  0  0  0  0  0
   60.9060   34.4880   47.9070 N   0  0  1  0  0  0  0  0  0  0  0  0
   61.5450   34.5490   49.2580 C   0  0  0  0  0  0  0  0  0  0  0  0
   62.8170   33.6860   49.3930 C   0  0  0  0  0  0  0  0  0  0  0  0
   62.6450   32.2750   48.7740 C   0  0  1  0  0  0  0  0  0  0  0  0
   61.7200   31.3820   49.5390 N   0  0  0  0  0  0  0  0  0  0  0  0
   61.0420   30.4240   48.6340 C   0  0  0  0  0  0  0  0  0  0  0  0
   59.9780   29.6210   49.4130 C   0  0  0  0  0  0  0  0  0  0  0  0
   60.1290   29.7390   50.8160 O   0  0  0  0  0  0  0  0  0  0  0  0
   61.4740   29.5010   51.1720 C   0  0  0  0  0  0  0  0  0  0  0  0
   62.3890   30.6110   50.6160 C   0  0  0  0  0  0  0  0  0  0  0  0
   62.1720   32.4110   47.2930 C   0  0  0  0  0  0  0  0  0  0  0  0
   61.7650   33.8430   46.8880 C   0  0  0  0  0  0  0  0  0  0  0  0
   59.0440   31.8270   46.5610 C   0  0  0  0  0  0  0  0  0  0  0  0
  1  2  2  0
  2  3  1  0
  3  4  2  3
  4  5  1  0
  5  6  2  0
  6  7  1  0
  6  8  1  0
  8  9  1  0
  9 10  2  0
  9 11  1  0
 11 12  1  0
 12 13  2  0
  3 14  1  0
 14 15  2  0
 15 16  1  0
 15 17  1  0
 17 18  1  0
 18 19  2  0
 19 20  1  0
 20 21  2  0
 21 22  1  0
 22 23  1  0
 23 24  2  0
 25 23  1  1
 25 26  1  0
 26 27  1  0
 27 28  1  0
 28 29  1  1
 29 30  1  0
 30 31  1  0
 31 32  1  0
 32 33  1  0
 33 34  1  0
 28 35  1  0
 35 36  1  0
 22 37  2  0
 17  2  1  0
 37 18  1  0
 12  5  1  0
 36 25  1  0
 34 29  1  0
M  CHG  4   7  -1   8  -1  11  -1  25   1
M  END
>  <UniqueID>  (990) 
42

>  <SMILES>  (990) 
C=c1c(=Cc2c([O-])[n-]c(=O)[n-]c2=O)cc(C)n1-c1cccc(C(=O)[NH+]2CCC(N3CCOCC3)CC2)c1

>  <Energy>  (990) 
146.73159260152056

>  <Genealogy>  (990) 
C=c1c(=Cc2c([O-])[n-]c(=O)[n-]c2=O)cc(C)n1-c1cccc(C(=O)[NH+]2CCC(N3CCOCC3)CC2)c1 (protonated)
C=c1c(=Cc2c([O-])[n-]c(=O)[n-]c2=O)cc(C)n1-c1cccc(C(=O)[NH+]2CCC(N3CCOCC3)CC2)c1 (3D coordinates assigned)
C=c1c(=Cc2c([O-])[n-]c(=O)[n-]c2=O)cc(C)n1-c1cccc(C(=O)[NH+]2CCC(N3CCOCC3)CC2)c1 (nonaromatic ring conformer: 146.73159260152056 kcal/mol)

>  <smiles>  (990) 
C=c1c(=Cc2c(O)[nH]c(=O)[nH]c2=O)cc(C)n1-c1cccc(C(=O)N2CCC(N3CCOCC3)CC2)c1

>  <score_type>  (990) 
oracle

>  <origin>  (990) 
adg

>  <m_score__min__energy>  (990) 
-16

>  <m_primary>  (990) 
energy

$$$$
59:0
     RDKit          3D

 29 32  0  0  0  0  0  0  0  0999 V2000
   59.8970   29.1110   46.3290 C   0  0  0  0  0  0  0  0  0  0  0  0
   58.8660   29.1290   45.4690 C   0  0  0  0  0  0  0  0  0  0  0  0
   58.3120   28.0320   44.7900 C   0  0  0  0  0  0  0  0  0  0  0  0
   58.4800   26.7060   44.9650 C   0  0  0  0  0  0  0  0  0  0  0  0
   57.6360   25.8400   45.8050 C   0  0  0  0  0  0  0  0  0  0  0  0
   58.0860   24.7950   46.5230 N   0  0  0  0  0  0  0  0  0  0  0  0
   56.9980   24.4080   47.2240 C   0  0  0  0  0  0  0  0  0  0  0  0
   57.0150   23.4290   48.0150 O   0  0  0  0  0  0  0  0  0  0  0  0
   55.8950   25.1580   47.0190 N   0  0  0  0  0  0  0  0  0  0  0  0
   56.3210   26.0700   46.1270 C   0  0  0  0  0  0  0  0  0  0  0  0
   55.5290   27.0940   45.6230 O   0  0  0  0  0  0  0  0  0  0  0  0
   57.4660   28.5580   43.8270 C   0  0  0  0  0  0  0  0  0  0  0  0
   57.4730   29.9270   43.9950 C   0  0  0  0  0  0  0  0  0  0  0  0
   56.6480   30.8890   43.1950 C   0  0  0  0  0  0  0  0  0  0  0  0
   58.3170   30.2750   44.9920 N   0  0  0  0  0  0  0  0  0  0  0  0
   58.6050   31.6180   45.4190 C   0  0  0  0  0  0  0  0  0  0  0  0
   58.4900   32.6840   44.5170 C   0  0  0  0  0  0  0  0  0  0  0  0
   58.7620   33.9900   44.9330 C   0  0  0  0  0  0  0  0  0  0  0  0
   59.1520   34.2380   46.2530 C   0  0  0  0  0  0  0  0  0  0  0  0
   59.2740   33.1790   47.1630 C   0  0  0  0  0  0  0  0  0  0  0  0
   59.7750   33.4900   48.8270 S   0  0  0  0  0  0  0  0  0  0  0  0
   58.8600   32.7490   49.7630 O   0  0  0  0  0  0  0  0  0  0  0  0
   59.6400   34.9590   49.1160 O   0  0  0  0  0  0  0  0  0  0  0  0
   61.4260   32.9870   49.1220 N   0  0  0  0  0  0  0  0  0  0  0  0
   61.7180   31.7160   48.4510 C   0  0  0  0  0  0  0  0  0  0  0  0
   62.4130   32.0230   47.1340 C   0  0  0  0  0  0  0  0  0  0  0  0
   62.9010   33.4520   47.2510 C   0  0  0  0  0  0  0  0  0  0  0  0
   62.3830   33.9620   48.5900 C   0  0  0  0  0  0  0  0  0  0  0  0
   58.9950   31.8700   46.7430 C   0  0  0  0  0  0  0  0  0  0  0  0
  1  2  2  0
  2  3  1  0
  3  4  2  3
  4  5  1  0
  5  6  1  0
  6  7  1  0
  7  8  2  0
  7  9  1  0
  9 10  1  0
 10 11  1  0
  3 12  1  0
 12 13  2  0
 13 14  1  0
 13 15  1  0
 15 16  1  0
 16 17  2  0
 17 18  1  0
 18 19  2  0
 19 20  1  0
 20 21  1  0
 21 22  2  0
 21 23  2  0
 21 24  1  0
 24 25  1  0
 25 26  1  0
 26 27  1  0
 27 28  1  0
 20 29  2  0
 15  2  1  0
 29 16  1  0
 10  5  2  0
 28 24  1  0
M  CHG  2   6  -1   9  -1
M  END
>  <UniqueID>  (991) 
55

>  <SMILES>  (991) 
C=c1c(=Cc2[n-]c(=O)[n-]c2O)cc(C)n1-c1cccc(S(=O)(=O)N2CCCC2)c1

>  <Energy>  (991) 
124.5596516765822

>  <Genealogy>  (991) 
C=c1c(=Cc2[n-]c(=O)[n-]c2O)cc(C)n1-c1cccc(S(=O)(=O)N2CCCC2)c1 (protonated)
C=c1c(=Cc2[n-]c(=O)[n-]c2O)cc(C)n1-c1cccc(S(=O)(=O)N2CCCC2)c1 (3D coordinates assigned)
C=c1c(=Cc2[n-]c(=O)[n-]c2O)cc(C)n1-c1cccc(S(=O)(=O)N2CCCC2)c1 (nonaromatic ring conformer: 124.5596516765822 kcal/mol)

>  <smiles>  (991) 
C=c1c(=Cc2[nH]c(=O)[nH]c2O)cc(C)n1-c1cccc(S(=O)(=O)N2CCCC2)c1

>  <score_type>  (991) 
oracle

>  <origin>  (991) 
adg

>  <m_score__min__energy>  (991) 
-14.25

>  <m_primary>  (991) 
energy

$$$$
65:0
     RDKit          3D

 30 32  0  0  0  0  0  0  0  0999 V2000
   60.8470   30.0790   48.7180 O   0  0  0  0  0  0  0  0  0  0  0  0
   60.2040   31.1650   48.7250 C   0  0  0  0  0  0  0  0  0  0  0  0
   58.7100   31.1350   48.6330 C   0  0  0  0  0  0  0  0  0  0  0  0
   58.2920   31.4420   47.2620 N   0  0  0  0  0  0  0  0  0  0  0  0
   57.7710   30.4530   46.5290 N   0  0  0  0  0  0  0  0  0  0  0  0
   57.3140   30.6450   45.2610 C   0  0  0  0  0  0  0  0  0  0  0  0
   56.7530   29.5070   44.5100 C   0  0  0  0  0  0  0  0  0  0  0  0
   56.9310   29.4400   43.2650 O   0  0  0  0  0  0  0  0  0  0  0  0
   56.0600   28.4590   45.2010 N   0  0  0  0  0  0  0  0  0  0  0  0
   56.6330   27.2480   45.7200 C   0  0  0  0  0  0  0  0  0  0  0  0
   58.0260   27.0670   45.8160 C   0  0  0  0  0  0  0  0  0  0  0  0
   58.5480   25.8660   46.3040 C   0  0  0  0  0  0  0  0  0  0  0  0
   57.6890   24.8320   46.6850 C   0  0  0  0  0  0  0  0  0  0  0  0
   56.3070   24.9950   46.5710 C   0  0  0  0  0  0  0  0  0  0  0  0
   55.7790   26.1950   46.0830 C   0  0  0  0  0  0  0  0  0  0  0  0
   54.4000   26.3400   45.9680 O   0  0  0  0  0  0  0  0  0  0  0  0
   57.3850   31.9260   44.7040 C   0  0  0  0  0  0  0  0  0  0  0  0
   57.9150   32.9660   45.4610 C   0  0  0  0  0  0  0  0  0  0  0  0
   58.3670   32.7130   46.7550 C   0  0  0  0  0  0  0  0  0  0  0  0
   58.8360   33.6600   47.4440 O   0  0  0  0  0  0  0  0  0  0  0  0
   60.8940   32.4150   48.8700 N   0  0  0  0  0  0  0  0  0  0  0  0
   62.3150   32.4880   49.0490 C   0  0  0  0  0  0  0  0  0  0  0  0
   62.8820   31.8280   50.1480 C   0  0  0  0  0  0  0  0  0  0  0  0
   64.2510   31.9260   50.4050 C   0  0  0  0  0  0  0  0  0  0  0  0
   65.0670   32.6770   49.5610 C   0  0  0  0  0  0  0  0  0  0  0  0
   64.5240   33.3170   48.4460 C   0  0  0  0  0  0  0  0  0  0  0  0
   63.1490   33.2170   48.1600 C   0  0  0  0  0  0  0  0  0  0  0  0
   62.6370   33.8320   46.9110 C   0  0  0  0  0  0  0  0  0  0  0  0
   63.4120   34.0990   45.9550 O   0  0  0  0  0  0  0  0  0  0  0  0
   61.2920   34.1650   46.7970 O   0  0  0  0  0  0  0  0  0  0  0  0
  1  2  2  0
  2  3  1  0
  3  4  1  0
  4  5  1  0
  5  6  2  0
  6  7  1  0
  7  8  2  0
  7  9  1  0
  9 10  1  0
 10 11  2  0
 11 12  1  0
 12 13  2  0
 13 14  1  0
 14 15  2  0
 15 16  1  0
  6 17  1  0
 17 18  2  0
 18 19  1  0
 19 20  2  0
  2 21  1  0
 21 22  1  0
 22 23  2  0
 23 24  1  0
 24 25  2  0
 25 26  1  0
 26 27  2  0
 27 28  1  0
 28 29  2  0
 28 30  1  0
 19  4  1  0
 27 22  1  0
 15 10  1  0
M  CHG  3   9  -1  16  -1  30  -1
M  END
>  <UniqueID>  (992) 
61

>  <SMILES>  (992) 
O=C(Cn1nc(C(=O)[N-]c2ccccc2[O-])ccc1=O)Nc1ccccc1C(=O)[O-]

>  <Energy>  (992) 
57.954665904483235

>  <Genealogy>  (992) 
O=C(Cn1nc(C(=O)[N-]c2ccccc2[O-])ccc1=O)Nc1ccccc1C(=O)[O-] (protonated)
O=C(Cn1nc(C(=O)[N-]c2ccccc2[O-])ccc1=O)Nc1ccccc1C(=O)[O-] (3D coordinates assigned)
O=C(Cn1nc(C(=O)[N-]c2ccccc2[O-])ccc1=O)Nc1ccccc1C(=O)[O-] (optimized conformer: 57.954665904483235 kcal/mol)

>  <smiles>  (992) 
O=C(Cn1nc(C(=O)Nc2ccccc2O)ccc1=O)Nc1ccccc1C(=O)O

>  <score_type>  (992) 
oracle

>  <origin>  (992) 
adg

>  <m_score__min__energy>  (992) 
-16.260000000000002

>  <m_primary>  (992) 
energy

$$$$
73:0
     RDKit          3D

 27 29  0  0  0  0  0  0  0  0999 V2000
   59.2410   27.7940   46.6680 C   0  0  0  0  0  0  0  0  0  0  0  0
   58.5950   28.3910   45.6540 C   0  0  0  0  0  0  0  0  0  0  0  0
   57.8750   27.7520   44.6390 C   0  0  0  0  0  0  0  0  0  0  0  0
   57.6240   26.4330   44.5220 C   0  0  0  0  0  0  0  0  0  0  0  0
   57.0720   25.6000   45.6050 C   0  0  0  0  0  0  0  0  0  0  0  0
   57.6690   24.4810   46.0530 N   0  0  0  0  0  0  0  0  0  0  0  0
   56.7950   24.0020   46.9640 C   0  0  0  0  0  0  0  0  0  0  0  0
   57.0110   22.9500   47.6220 O   0  0  0  0  0  0  0  0  0  0  0  0
   55.6680   24.7300   47.1060 N   0  0  0  0  0  0  0  0  0  0  0  0
   55.8510   25.7310   46.2310 C   0  0  0  0  0  0  0  0  0  0  0  0
   54.9010   26.7140   45.9790 O   0  0  0  0  0  0  0  0  0  0  0  0
   57.4190   28.7560   43.7940 C   0  0  0  0  0  0  0  0  0  0  0  0
   57.8720   29.9500   44.3170 C   0  0  0  0  0  0  0  0  0  0  0  0
   57.6020   31.2980   43.7190 C   0  0  0  0  0  0  0  0  0  0  0  0
   58.5920   29.7310   45.4400 N   0  0  0  0  0  0  0  0  0  0  0  0
   59.2030   30.7460   46.2560 C   0  0  0  0  0  0  0  0  0  0  0  0
   60.5800   30.7090   46.5170 C   0  0  0  0  0  0  0  0  0  0  0  0
   61.1760   31.7020   47.2980 C   0  0  0  0  0  0  0  0  0  0  0  0
   60.4050   32.7380   47.8390 C   0  0  0  0  0  0  0  0  0  0  0  0
   61.0500   33.7170   48.6100 O   0  0  0  0  0  0  0  0  0  0  0  0
   62.1630   33.4970   49.4360 C   0  0  0  0  0  0  0  0  0  0  0  0
   62.0090   33.2500   50.6630 O   0  0  0  0  0  0  0  0  0  0  0  0
   63.4830   33.4950   48.8640 N   0  0  0  0  0  0  0  0  0  0  0  0
   64.6470   33.2420   49.7170 C   0  0  0  0  0  0  0  0  0  0  0  0
   63.6440   33.7570   47.4320 C   0  0  0  0  0  0  0  0  0  0  0  0
   59.0270   32.7880   47.5590 C   0  0  0  0  0  0  0  0  0  0  0  0
   58.4320   31.7950   46.7770 C   0  0  0  0  0  0  0  0  0  0  0  0
  1  2  2  0
  2  3  1  0
  3  4  2  0
  4  5  1  0
  5  6  1  0
  6  7  1  0
  7  8  2  0
  7  9  1  0
  9 10  1  0
 10 11  1  0
  3 12  1  0
 12 13  2  0
 13 14  1  0
 13 15  1  0
 15 16  1  0
 16 17  2  0
 17 18  1  0
 18 19  2  0
 19 20  1  0
 20 21  1  0
 21 22  2  0
 21 23  1  0
 23 24  1  0
 23 25  1  0
 19 26  1  0
 26 27  2  0
 15  2  1  0
 27 16  1  0
 10  5  2  0
M  CHG  3   6  -1   9  -1  11  -1
M  END
>  <UniqueID>  (993) 
69

>  <SMILES>  (993) 
C=c1/c(=C/c2[n-]c(=O)[n-]c2[O-])cc(C)n1-c1ccc(OC(=O)N(C)C)cc1

>  <Energy>  (993) 
117.82681585542517

>  <Genealogy>  (993) 
C=c1c(=Cc2[n-]c(=O)[n-]c2[O-])cc(C)n1-c1ccc(OC(=O)N(C)C)cc1 (protonated)
C=c1/c(=C/c2[n-]c(=O)[n-]c2[O-])cc(C)n1-c1ccc(OC(=O)N(C)C)cc1 (cis-trans isomerization)
C=c1/c(=C/c2[n-]c(=O)[n-]c2[O-])cc(C)n1-c1ccc(OC(=O)N(C)C)cc1 (3D coordinates assigned)
C=c1/c(=C/c2[n-]c(=O)[n-]c2[O-])cc(C)n1-c1ccc(OC(=O)N(C)C)cc1 (optimized conformer: 117.82681585542517 kcal/mol)

>  <smiles>  (993) 
C=c1c(=Cc2[nH]c(=O)[nH]c2O)cc(C)n1-c1ccc(OC(=O)N(C)C)cc1

>  <score_type>  (993) 
oracle

>  <origin>  (993) 
adg

>  <m_score__min__energy>  (993) 
-15.18

>  <m_primary>  (993) 
energy

$$$$
76:0
     RDKit          3D

 31 33  0  0  0  0  0  0  0  0999 V2000
   55.9990   23.9660   46.0800 C   0  0  0  0  0  0  0  0  0  0  0  0
   55.7660   25.4240   46.3430 C   0  0  0  0  0  0  0  0  0  0  0  0
   54.6800   25.9500   45.9880 O   0  0  0  0  0  0  0  0  0  0  0  0
   56.7560   26.2370   46.9870 N   0  0  0  0  0  0  0  0  0  0  0  0
   57.6650   27.0940   46.2870 C   0  0  0  0  0  0  0  0  0  0  0  0
   59.0380   26.9390   46.5080 C   0  0  0  0  0  0  0  0  0  0  0  0
   59.9560   27.7100   45.7960 C   0  0  0  0  0  0  0  0  0  0  0  0
   59.5080   28.6570   44.8750 C   0  0  0  0  0  0  0  0  0  0  0  0
   58.1380   28.8720   44.6820 C   0  0  0  0  0  0  0  0  0  0  0  0
   57.7300   29.8560   43.7200 N   0  0  0  0  0  0  0  0  0  0  0  0
   57.2690   31.1750   44.0330 C   0  0  0  0  0  0  0  0  0  0  0  0
   56.1340   31.3440   44.5570 O   0  0  0  0  0  0  0  0  0  0  0  0
   58.1630   32.3630   43.8160 C   0  0  0  0  0  0  0  0  0  0  0  0
   58.6160   32.9460   45.0960 N   0  0  0  0  0  0  0  0  0  0  0  0
   59.3450   34.2060   44.8960 C   0  0  0  0  0  0  0  0  0  0  0  0
   60.0550   34.5660   46.2030 C   0  0  0  0  0  0  0  0  0  0  0  0
   59.2110   34.3480   47.4030 N   0  0  0  0  0  0  0  0  0  0  0  0
   59.8370   33.1320   48.4980 S   0  0  0  0  0  0  0  0  0  0  0  0
   59.3710   31.7820   48.0250 O   0  0  0  0  0  0  0  0  0  0  0  0
   59.2920   33.3430   49.8830 O   0  0  0  0  0  0  0  0  0  0  0  0
   61.6000   33.1350   48.5640 C   0  0  0  0  0  0  0  0  0  0  0  0
   62.3470   32.7080   47.4550 C   0  0  0  0  0  0  0  0  0  0  0  0
   63.7440   32.7320   47.4970 C   0  0  0  0  0  0  0  0  0  0  0  0
   64.4020   33.1780   48.6470 C   0  0  0  0  0  0  0  0  0  0  0  0
   63.6620   33.5970   49.7560 C   0  0  0  0  0  0  0  0  0  0  0  0
   64.3060   34.0260   50.8680 F   0  0  0  0  0  0  0  0  0  0  0  0
   62.2640   33.5770   49.7170 C   0  0  0  0  0  0  0  0  0  0  0  0
   57.7700   34.1750   47.1350 C   0  0  0  0  0  0  0  0  0  0  0  0
   57.4620   33.1730   45.9930 C   0  0  0  0  0  0  0  0  0  0  0  0
   57.2040   28.0780   45.3850 C   0  0  0  0  0  0  0  0  0  0  0  0
   55.8360   28.2680   45.1740 O   0  0  0  0  0  0  0  0  0  0  0  0
  1  2  1  0
  2  3  2  0
  2  4  1  0
  4  5  1  0
  5  6  2  0
  6  7  1  0
  7  8  2  0
  8  9  1  0
  9 10  1  0
 10 11  1  0
 11 12  2  0
 11 13  1  0
 13 14  1  0
 14 15  1  0
 15 16  1  0
 16 17  1  0
 17 18  1  0
 18 19  2  0
 18 20  2  0
 18 21  1  0
 21 22  2  0
 22 23  1  0
 23 24  2  0
 24 25  1  0
 25 26  1  0
 25 27  2  0
 17 28  1  0
 28 29  1  0
  9 30  2  0
 30 31  1  0
 30  5  1  0
 29 14  1  0
 27 21  1  0
M  CHG  2   4  -1  10  -1
M  END
>  <UniqueID>  (994) 
72

>  <SMILES>  (994) 
CC(=O)[N-]c1cccc([N-]C(=O)CN2CCN(S(=O)(=O)c3cccc(F)c3)CC2)c1O

>  <Energy>  (994) 
73.84056779770623

>  <Genealogy>  (994) 
CC(=O)[N-]c1cccc([N-]C(=O)CN2CCN(S(=O)(=O)c3cccc(F)c3)CC2)c1O (protonated)
CC(=O)[N-]c1cccc([N-]C(=O)CN2CCN(S(=O)(=O)c3cccc(F)c3)CC2)c1O (3D coordinates assigned)
CC(=O)[N-]c1cccc([N-]C(=O)CN2CCN(S(=O)(=O)c3cccc(F)c3)CC2)c1O (nonaromatic ring conformer: 73.84056779770623 kcal/mol)

>  <smiles>  (994) 
CC(=O)Nc1cccc(NC(=O)CN2CCN(S(=O)(=O)c3cccc(F)c3)CC2)c1O

>  <score_type>  (994) 
oracle

>  <origin>  (994) 
adg

>  <m_score__min__energy>  (994) 
-14.119999999999999

>  <m_primary>  (994) 
energy

$$$$
78:0
     RDKit          3D

 34 37  0  0  0  0  0  0  0  0999 V2000
   60.1460   28.7130   47.9280 C   0  0  0  0  0  0  0  0  0  0  0  0
   59.3400   29.6390   47.3820 C   0  0  0  0  0  0  0  0  0  0  0  0
   58.6010   29.5130   46.1930 C   0  0  0  0  0  0  0  0  0  0  0  0
   58.3740   28.4490   45.3950 C   0  0  0  0  0  0  0  0  0  0  0  0
   57.5090   27.3000   45.7250 C   0  0  0  0  0  0  0  0  0  0  0  0
   56.1160   27.4190   45.6510 C   0  0  0  0  0  0  0  0  0  0  0  0
   55.5280   28.6070   45.2300 O   0  0  0  0  0  0  0  0  0  0  0  0
   55.3280   26.3640   45.9820 N   0  0  0  0  0  0  0  0  0  0  0  0
   55.8670   25.1880   46.3970 C   0  0  0  0  0  0  0  0  0  0  0  0
   55.1170   24.2240   46.6930 O   0  0  0  0  0  0  0  0  0  0  0  0
   57.2140   25.0570   46.5000 N   0  0  0  0  0  0  0  0  0  0  0  0
   58.0440   26.0840   46.1880 C   0  0  0  0  0  0  0  0  0  0  0  0
   59.2880   25.9340   46.3160 O   0  0  0  0  0  0  0  0  0  0  0  0
   58.0490   30.7570   45.9450 C   0  0  0  0  0  0  0  0  0  0  0  0
   58.4090   31.5720   46.9950 C   0  0  0  0  0  0  0  0  0  0  0  0
   57.9970   33.0070   47.1310 C   0  0  0  0  0  0  0  0  0  0  0  0
   59.1980   30.9040   47.8700 N   0  0  0  0  0  0  0  0  0  0  0  0
   59.7560   31.4750   49.1070 C   0  0  0  0  0  0  0  0  0  0  0  0
   58.8170   31.2540   50.2640 C   0  0  0  0  0  0  0  0  0  0  0  0
   58.0480   32.3140   50.7710 C   0  0  0  0  0  0  0  0  0  0  0  0
   57.1890   32.1090   51.8550 C   0  0  0  0  0  0  0  0  0  0  0  0
   57.0780   30.8460   52.4470 C   0  0  0  0  0  0  0  0  0  0  0  0
   56.2060   30.7030   53.5370 O   0  0  0  0  0  0  0  0  0  0  0  0
   54.8760   29.6280   53.5870 S   0  0  0  0  0  0  0  0  0  0  0  0
   54.4500   29.4390   55.0170 O   0  0  0  0  0  0  0  0  0  0  0  0
   55.2910   28.3010   53.0190 O   0  0  0  0  0  0  0  0  0  0  0  0
   53.5450   30.2750   52.6330 C   0  0  0  0  0  0  0  0  0  0  0  0
   53.4720   30.0300   51.2530 C   0  0  0  0  0  0  0  0  0  0  0  0
   52.4090   30.5460   50.5040 C   0  0  0  0  0  0  0  0  0  0  0  0
   51.4110   31.2970   51.1290 C   0  0  0  0  0  0  0  0  0  0  0  0
   51.4820   31.5440   52.5030 C   0  0  0  0  0  0  0  0  0  0  0  0
   52.5500   31.0410   53.2550 C   0  0  0  0  0  0  0  0  0  0  0  0
   57.8300   29.7770   51.9270 C   0  0  0  0  0  0  0  0  0  0  0  0
   58.6940   29.9810   50.8480 C   0  0  0  0  0  0  0  0  0  0  0  0
  1  2  2  0
  2  3  1  0
  3  4  2  3
  4  5  1  0
  5  6  2  0
  6  7  1  0
  6  8  1  0
  8  9  1  0
  9 10  2  0
  9 11  1  0
 11 12  1  0
 12 13  2  0
  3 14  1  0
 14 15  2  0
 15 16  1  0
 15 17  1  0
 17 18  1  0
 18 19  1  0
 19 20  2  0
 20 21  1  0
 21 22  2  0
 22 23  1  0
 23 24  1  0
 24 25  2  0
 24 26  2  0
 24 27  1  0
 27 28  2  0
 28 29  1  0
 29 30  2  0
 30 31  1  0
 31 32  2  0
 22 33  1  0
 33 34  2  0
 17  2  1  0
 34 19  1  0
 12  5  1  0
 32 27  1  0
M  CHG  3   7  -1   8  -1  11  -1
M  END
>  <UniqueID>  (995) 
74

>  <SMILES>  (995) 
C=c1c(=Cc2c([O-])[n-]c(=O)[n-]c2=O)cc(C)n1Cc1ccc(OS(=O)(=O)c2ccccc2)cc1

>  <Energy>  (995) 
99.19546633187625

>  <Genealogy>  (995) 
C=c1c(=Cc2c([O-])[n-]c(=O)[n-]c2=O)cc(C)n1Cc1ccc(OS(=O)(=O)c2ccccc2)cc1 (protonated)
C=c1c(=Cc2c([O-])[n-]c(=O)[n-]c2=O)cc(C)n1Cc1ccc(OS(=O)(=O)c2ccccc2)cc1 (3D coordinates assigned)
C=c1c(=Cc2c([O-])[n-]c(=O)[n-]c2=O)cc(C)n1Cc1ccc(OS(=O)(=O)c2ccccc2)cc1 (optimized conformer: 99.19546633187625 kcal/mol)

>  <smiles>  (995) 
C=c1c(=Cc2c(O)[nH]c(=O)[nH]c2=O)cc(C)n1Cc1ccc(OS(=O)(=O)c2ccccc2)cc1

>  <score_type>  (995) 
oracle

>  <origin>  (995) 
adg

>  <m_score__min__energy>  (995) 
-17.109999999999999

>  <m_primary>  (995) 
energy

$$$$
14:0
     RDKit          3D

 29 31  0  0  0  0  0  0  0  0999 V2000
   59.2530   34.9750   45.5850 C   0  0  0  0  0  0  0  0  0  0  0  0
   58.8750   34.3040   46.7830 O   0  0  0  0  0  0  0  0  0  0  0  0
   59.7600   33.5950   47.6120 C   0  0  0  0  0  0  0  0  0  0  0  0
   60.3490   34.1820   48.7450 C   0  0  0  0  0  0  0  0  0  0  0  0
   61.2420   33.4560   49.5280 C   0  0  0  0  0  0  0  0  0  0  0  0
   61.5360   32.1310   49.2120 C   0  0  0  0  0  0  0  0  0  0  0  0
   60.9210   31.4990   48.1150 C   0  0  0  0  0  0  0  0  0  0  0  0
   61.2530   30.0440   47.8340 C   0  0  0  0  0  0  0  0  0  0  0  0
   60.0860   29.1600   48.0590 N   0  0  0  0  0  0  0  0  0  0  0  0
   59.9740   28.7930   49.4790 C   0  0  0  0  0  0  0  0  0  0  0  0
   60.0520   27.9730   47.1680 C   0  0  0  0  0  0  0  0  0  0  0  0
   58.6580   27.5410   46.7600 C   0  0  0  0  0  0  0  0  0  0  0  0
   58.1720   26.2770   47.1330 C   0  0  0  0  0  0  0  0  0  0  0  0
   56.8780   25.8890   46.7840 C   0  0  0  0  0  0  0  0  0  0  0  0
   56.0630   26.7460   46.0400 C   0  0  0  0  0  0  0  0  0  0  0  0
   54.7730   26.3480   45.7080 O   0  0  0  0  0  0  0  0  0  0  0  0
   56.5450   27.9950   45.6240 C   0  0  0  0  0  0  0  0  0  0  0  0
   55.6750   28.8590   44.8760 N   0  0  0  0  0  0  0  0  0  0  0  0
   56.0480   29.7120   43.7850 C   0  0  0  0  0  0  0  0  0  0  0  0
   55.8040   29.3780   42.5960 O   0  0  0  0  0  0  0  0  0  0  0  0
   56.6720   31.0150   44.0550 C   0  0  0  0  0  0  0  0  0  0  0  0
   56.6500   31.6460   45.2430 N   0  0  0  0  0  0  0  0  0  0  0  0
   57.3060   32.7610   45.0650 O   0  0  0  0  0  0  0  0  0  0  0  0
   57.7620   32.9200   43.8530 N   0  0  0  0  0  0  0  0  0  0  0  0
   57.3700   31.8220   43.1930 C   0  0  0  0  0  0  0  0  0  0  0  0
   57.6170   31.5960   41.9790 O   0  0  0  0  0  0  0  0  0  0  0  0
   57.8410   28.3940   45.9990 C   0  0  0  0  0  0  0  0  0  0  0  0
   60.0640   32.2640   47.2790 C   0  0  0  0  0  0  0  0  0  0  0  0
   59.5040   31.7510   46.1040 O   0  0  0  0  0  0  0  0  0  0  0  0
  1  2  1  0
  2  3  1  0
  3  4  2  0
  4  5  1  0
  5  6  2  0
  6  7  1  0
  7  8  1  0
  8  9  1  0
  9 10  1  0
  9 11  1  0
 11 12  1  0
 12 13  2  0
 13 14  1  0
 14 15  2  0
 15 16  1  0
 15 17  1  0
 17 18  1  0
 18 19  1  0
 19 20  2  0
 19 21  1  0
 21 22  2  0
 22 23  1  0
 23 24  1  0
 24 25  1  0
 25 26  2  0
 17 27  2  0
  7 28  2  0
 28 29  1  0
 28  3  1  0
 27 12  1  0
 25 21  1  0
M  CHG  3  16  -1  18  -1  24  -1
M  END
>  <UniqueID>  (996) 
15

>  <SMILES>  (996) 
COc1cccc(CN(C)Cc2ccc([O-])c([N-]C(=O)c3no[n-]c3=O)c2)c1O

>  <Energy>  (996) 
94.13624623797557

>  <Genealogy>  (996) 
COc1cccc(CN(C)Cc2ccc([O-])c([N-]C(=O)c3no[n-]c3=O)c2)c1O (protonated)
COc1cccc(CN(C)Cc2ccc([O-])c([N-]C(=O)c3no[n-]c3=O)c2)c1O (3D coordinates assigned)
COc1cccc(CN(C)Cc2ccc([O-])c([N-]C(=O)c3no[n-]c3=O)c2)c1O (optimized conformer: 94.13624623797557 kcal/mol)

>  <smiles>  (996) 
COc1cccc(CN(C)Cc2ccc(O)c(NC(=O)c3no[nH]c3=O)c2)c1O

>  <score_type>  (996) 
oracle

>  <origin>  (996) 
adg

>  <m_score__min__energy>  (996) 
-14.27

>  <m_primary>  (996) 
energy

$$$$
18:0
     RDKit          3D

 28 30  0  0  0  0  0  0  0  0999 V2000
   58.8190   35.3450   46.8760 O   0  0  0  0  0  0  0  0  0  0  0  0
   59.5110   34.3910   46.4330 C   0  0  0  0  0  0  0  0  0  0  0  0
   60.9410   34.5280   46.4340 N   0  0  0  0  0  0  0  0  0  0  0  0
   61.7750   33.9420   47.2450 C   0  0  0  0  0  0  0  0  0  0  0  0
   62.8760   33.2930   46.7670 N   0  0  0  0  0  0  0  0  0  0  0  0
   63.7600   32.6660   47.5870 C   0  0  0  0  0  0  0  0  0  0  0  0
   63.5490   32.6630   48.9660 C   0  0  0  0  0  0  0  0  0  0  0  0
   62.4270   33.3050   49.4870 C   0  0  0  0  0  0  0  0  0  0  0  0
   61.5270   33.9490   48.6320 C   0  0  0  0  0  0  0  0  0  0  0  0
   60.4090   34.5840   49.1760 O   0  0  0  0  0  0  0  0  0  0  0  0
   58.8240   33.2020   45.8660 C   0  0  0  0  0  0  0  0  0  0  0  0
   58.8820   31.9550   46.5130 C   0  0  0  0  0  0  0  0  0  0  0  0
   58.2260   30.8450   45.9750 C   0  0  0  0  0  0  0  0  0  0  0  0
   57.5240   30.9580   44.7680 C   0  0  0  0  0  0  0  0  0  0  0  0
   56.6700   29.5720   44.0930 S   0  0  0  0  0  0  0  0  0  0  0  0
   55.4010   29.3630   44.8700 O   0  0  0  0  0  0  0  0  0  0  0  0
   56.3170   29.8270   42.6540 O   0  0  0  0  0  0  0  0  0  0  0  0
   57.6440   28.1340   44.1970 N   0  0  0  0  0  0  0  0  0  0  0  0
   57.4930   27.4760   45.4960 C   0  0  0  0  0  0  0  0  0  0  0  0
   56.9880   26.0660   45.3190 C   0  0  0  0  0  0  0  0  0  0  0  0
   57.8440   25.0640   44.8280 C   0  0  0  0  0  0  0  0  0  0  0  0
   57.3840   23.7520   44.6810 C   0  0  0  0  0  0  0  0  0  0  0  0
   56.0680   23.4290   45.0150 C   0  0  0  0  0  0  0  0  0  0  0  0
   55.2040   24.4180   45.4880 C   0  0  0  0  0  0  0  0  0  0  0  0
   55.6550   25.7350   45.6370 C   0  0  0  0  0  0  0  0  0  0  0  0
   54.7750   26.7060   46.1020 O   0  0  0  0  0  0  0  0  0  0  0  0
   57.5040   32.1840   44.0920 C   0  0  0  0  0  0  0  0  0  0  0  0
   58.1430   33.3000   44.6400 C   0  0  0  0  0  0  0  0  0  0  0  0
  1  2  2  0
  2  3  1  0
  3  4  2  3
  4  5  1  0
  5  6  1  0
  6  7  2  0
  7  8  1  0
  8  9  2  0
  9 10  1  0
  2 11  1  0
 11 12  2  0
 12 13  1  0
 13 14  2  0
 14 15  1  0
 15 16  2  0
 15 17  2  0
 15 18  1  0
 18 19  1  0
 19 20  1  0
 20 21  2  0
 21 22  1  0
 22 23  2  0
 23 24  1  0
 24 25  2  0
 25 26  1  0
 14 27  1  0
 27 28  2  0
  9  4  1  0
 28 11  1  0
 25 20  1  0
M  CHG  3   5  -1  18  -1  26  -1
M  END
>  <UniqueID>  (997) 
19

>  <SMILES>  (997) 
O=C(N=c1[n-]cccc1O)c1ccc(S(=O)(=O)[N-]Cc2ccccc2[O-])cc1

>  <Energy>  (997) 
50.081753896882525

>  <Genealogy>  (997) 
O=C(N=c1[n-]cccc1O)c1ccc(S(=O)(=O)[N-]Cc2ccccc2[O-])cc1 (protonated)
O=C(N=c1[n-]cccc1O)c1ccc(S(=O)(=O)[N-]Cc2ccccc2[O-])cc1 (3D coordinates assigned)
O=C(N=c1[n-]cccc1O)c1ccc(S(=O)(=O)[N-]Cc2ccccc2[O-])cc1 (optimized conformer: 50.081753896882525 kcal/mol)

>  <smiles>  (997) 
O=C(N=c1[nH]cccc1O)c1ccc(S(=O)(=O)NCc2ccccc2O)cc1

>  <score_type>  (997) 
oracle

>  <origin>  (997) 
adg

>  <m_score__min__energy>  (997) 
-15.19

>  <m_primary>  (997) 
energy

$$$$
22:0
     RDKit          3D

 35 38  0  0  0  0  0  0  0  0999 V2000
   56.3640   22.5980   42.6270 C   0  0  0  0  0  0  0  0  0  0  0  0
   56.8970   21.4380   43.1980 C   0  0  0  0  0  0  0  0  0  0  0  0
   56.5300   21.0600   44.4930 C   0  0  0  0  0  0  0  0  0  0  0  0
   55.6310   21.8490   45.2310 C   0  0  0  0  0  0  0  0  0  0  0  0
   55.2000   21.4230   46.6020 C   0  0  0  0  0  0  0  0  0  0  0  0
   55.2160   22.5810   47.4900 N   0  0  0  0  0  0  0  0  0  0  0  0
   56.7840   23.3320   47.4670 S   0  0  0  0  0  0  0  0  0  0  0  0
   57.2660   23.4960   48.8810 O   0  0  0  0  0  0  0  0  0  0  0  0
   57.7690   22.4770   46.7200 O   0  0  0  0  0  0  0  0  0  0  0  0
   56.6840   24.9150   46.7180 C   0  0  0  0  0  0  0  0  0  0  0  0
   55.5200   25.5700   46.5140 N   0  0  0  0  0  0  0  0  0  0  0  0
   55.6810   26.7490   45.9170 N   0  0  0  0  0  0  0  0  0  0  0  0
   56.9770   27.0290   45.6480 C   0  0  0  0  0  0  0  0  0  0  0  0
   57.3820   28.1010   45.0350 N   0  0  0  0  0  0  0  0  0  0  0  0
   56.6570   29.3370   44.9550 C   0  0  0  0  0  0  0  0  0  0  0  0
   55.4000   29.2920   44.8630 O   0  0  0  0  0  0  0  0  0  0  0  0
   57.3410   30.6540   44.9140 C   0  0  0  0  0  0  0  0  0  0  0  0
   57.2810   31.4530   43.7640 C   0  0  0  0  0  0  0  0  0  0  0  0
   57.9020   32.7020   43.7380 C   0  0  0  0  0  0  0  0  0  0  0  0
   58.5960   33.1820   44.8600 C   0  0  0  0  0  0  0  0  0  0  0  0
   59.2170   34.5530   44.7960 C   0  0  0  0  0  0  0  0  0  0  0  0
   58.6390   32.3940   46.0360 C   0  0  0  0  0  0  0  0  0  0  0  0
   59.4550   32.9590   47.5050 S   0  0  0  0  0  0  0  0  0  0  0  0
   58.9660   34.3360   47.8730 O   0  0  0  0  0  0  0  0  0  0  0  0
   59.1320   32.0210   48.6350 O   0  0  0  0  0  0  0  0  0  0  0  0
   61.1800   33.0050   47.2390 N   0  0  0  0  0  0  0  0  0  0  0  0
   61.8180   33.8910   48.2250 C   0  0  0  0  0  0  0  0  0  0  0  0
   63.3500   33.8700   48.0500 C   0  0  0  0  0  0  0  0  0  0  0  0
   63.7510   33.0030   47.0050 O   0  0  0  0  0  0  0  0  0  0  0  0
   63.2810   31.6940   47.2620 C   0  0  0  0  0  0  0  0  0  0  0  0
   61.7410   31.6490   47.3410 C   0  0  0  0  0  0  0  0  0  0  0  0
   58.0100   31.1380   46.0490 C   0  0  0  0  0  0  0  0  0  0  0  0
   58.0040   25.7920   46.1430 S   0  0  0  0  0  0  0  0  0  0  0  0
   55.0880   23.0040   44.6430 C   0  0  0  0  0  0  0  0  0  0  0  0
   55.4580   23.3790   43.3490 C   0  0  0  0  0  0  0  0  0  0  0  0
  1  2  2  0
  2  3  1  0
  3  4  2  0
  4  5  1  0
  5  6  1  0
  6  7  1  0
  7  8  2  0
  7  9  2  0
  7 10  1  0
 10 11  2  0
 11 12  1  0
 12 13  1  0
 13 14  2  0
 14 15  1  0
 15 16  2  0
 15 17  1  0
 17 18  2  0
 18 19  1  0
 19 20  2  0
 20 21  1  0
 20 22  1  0
 22 23  1  0
 23 24  2  0
 23 25  2  0
 23 26  1  0
 26 27  1  0
 27 28  1  0
 28 29  1  0
 29 30  1  0
 30 31  1  0
 22 32  2  0
 13 33  1  0
  4 34  1  0
 34 35  2  0
 35  1  1  0
 33 10  1  0
 32 17  1  0
 31 26  1  0
M  CHG  2   6  -1  12  -1
M  END
>  <UniqueID>  (998) 
23

>  <SMILES>  (998) 
Cc1ccc(C(=O)/N=c2\[n-]nc(S(=O)(=O)[N-]Cc3ccccc3)s2)cc1S(=O)(=O)N1CCOCC1

>  <Energy>  (998) 
107.1808267247641

>  <Genealogy>  (998) 
Cc1ccc(C(=O)N=c2[n-]nc(S(=O)(=O)[N-]Cc3ccccc3)s2)cc1S(=O)(=O)N1CCOCC1 (protonated)
Cc1ccc(C(=O)/N=c2\[n-]nc(S(=O)(=O)[N-]Cc3ccccc3)s2)cc1S(=O)(=O)N1CCOCC1 (cis-trans isomerization)
Cc1ccc(C(=O)/N=c2\[n-]nc(S(=O)(=O)[N-]Cc3ccccc3)s2)cc1S(=O)(=O)N1CCOCC1 (3D coordinates assigned)
Cc1ccc(C(=O)/N=c2\[n-]nc(S(=O)(=O)[N-]Cc3ccccc3)s2)cc1S(=O)(=O)N1CCOCC1 (nonaromatic ring conformer: 107.1808267247641 kcal/mol)

>  <smiles>  (998) 
Cc1ccc(C(=O)N=c2[nH]nc(S(=O)(=O)NCc3ccccc3)s2)cc1S(=O)(=O)N1CCOCC1

>  <score_type>  (998) 
oracle

>  <origin>  (998) 
adg

>  <m_score__min__energy>  (998) 
-14.44

>  <m_primary>  (998) 
energy

$$$$
23:0
     RDKit          3D

 30 32  0  0  0  0  0  0  0  0999 V2000
   56.8110   22.9540   45.3910 C   0  0  0  0  0  0  0  0  0  0  0  0
   60.0040   34.7800   46.8580 N   0  0  0  0  0  0  0  0  0  0  0  0
   59.9580   34.1720   48.0760 C   0  0  0  0  0  0  0  0  0  0  0  0
   60.6600   34.6210   49.0740 N   0  0  0  0  0  0  0  0  0  0  0  0
   57.9450   27.0800   46.8910 C   0  0  0  0  0  0  0  0  0  0  0  0
   58.8980   27.3420   47.6740 O   0  0  0  0  0  0  0  0  0  0  0  0
   57.6810   27.9570   45.7250 C   0  0  0  0  0  0  0  0  0  0  0  0
   57.7070   27.4340   44.4210 C   0  0  0  0  0  0  0  0  0  0  0  0
   57.4410   28.2570   43.3240 C   0  0  0  0  0  0  0  0  0  0  0  0
   57.1560   29.6100   43.5150 C   0  0  0  0  0  0  0  0  0  0  0  0
   57.1530   30.1590   44.8020 C   0  0  0  0  0  0  0  0  0  0  0  0
   56.8180   31.5470   44.9510 N   0  0  0  0  0  0  0  0  0  0  0  0
   57.6920   32.6720   44.7780 C   0  0  0  0  0  0  0  0  0  0  0  0
   57.7740   33.2460   43.6570 O   0  0  0  0  0  0  0  0  0  0  0  0
   58.4650   33.1910   45.9300 C   0  0  0  0  0  0  0  0  0  0  0  0
   59.2840   34.3240   45.7980 C   0  0  0  0  0  0  0  0  0  0  0  0
   57.2370   23.9490   46.2090 N   0  0  0  0  0  0  0  0  0  0  0  0
   56.5350   25.1020   46.3940 C   0  0  0  0  0  0  0  0  0  0  0  0
   57.0490   26.0000   47.1920 N   0  0  0  0  0  0  0  0  0  0  0  0
   61.7070   33.8590   49.7510 C   0  0  0  0  0  0  0  0  0  0  0  0
   63.0290   34.0330   49.0050 C   0  0  0  0  0  0  0  0  0  0  0  0
   63.1700   33.0330   48.0130 O   0  0  0  0  0  0  0  0  0  0  0  0
   63.2680   33.6190   46.7330 C   0  0  0  0  0  0  0  0  0  0  0  0
   55.2810   25.2450   45.7440 C   0  0  0  0  0  0  0  0  0  0  0  0
   54.8410   24.2330   44.8860 C   0  0  0  0  0  0  0  0  0  0  0  0
   57.3980   29.3260   45.9080 C   0  0  0  0  0  0  0  0  0  0  0  0
   59.1490   33.0460   48.2560 C   0  0  0  0  0  0  0  0  0  0  0  0
   54.4430   26.3300   45.9680 O   0  0  0  0  0  0  0  0  0  0  0  0
   58.4060   32.5550   47.1820 C   0  0  0  0  0  0  0  0  0  0  0  0
   55.6080   23.0840   44.7010 C   0  0  0  0  0  0  0  0  0  0  0  0
  1  2  1  0
  2  3  1  0
  3  4  2  0
  4  5  1  0
  5  6  2  0
  5  7  1  0
  7  8  2  0
  8  9  1  0
  9 10  2  0
 10 11  1  0
 11 12  1  0
 12 13  1  0
 13 14  2  0
 13 15  1  0
 15 16  2  0
 16 17  1  0
 17 18  1  0
 18 19  2  0
 19 20  1  0
 20 21  1  0
 21 22  1  0
 22 23  1  0
 18 24  1  0
 24 25  2  0
 11 26  2  0
  3 27  1  0
 27 28  1  0
 27 29  2  0
 29 30  1  0
 30  1  2  0
 26  7  1  0
 25 15  1  0
M  CHG  4   2  -1  12  -1  17  -1  28  -1
M  END
>  <UniqueID>  (999) 
24

>  <SMILES>  (999) 
COCC/N=c1/ccc(C(=O)[N-]c2cccc(C(=O)/N=c3/[n-]cccc3[O-])c2)c[n-]1

>  <Energy>  (999) 
67.52921389573426

>  <Genealogy>  (999) 
COCCN=c1ccc(C(=O)[N-]c2cccc(C(=O)N=c3[n-]cccc3[O-])c2)c[n-]1 (protonated)
COCC/N=c1/ccc(C(=O)[N-]c2cccc(C(=O)/N=c3/[n-]cccc3[O-])c2)c[n-]1 (cis-trans isomerization)
COCC/N=c1/ccc(C(=O)[N-]c2cccc(C(=O)/N=c3/[n-]cccc3[O-])c2)c[n-]1 (3D coordinates assigned)
COCC/N=c1/ccc(C(=O)[N-]c2cccc(C(=O)/N=c3/[n-]cccc3[O-])c2)c[n-]1 (optimized conformer: 67.52921389573426 kcal/mol)

>  <smiles>  (999) 
COCCN=c1ccc(C(=O)Nc2cccc(C(=O)N=c3[nH]cccc3O)c2)c[nH]1

>  <score_type>  (999) 
oracle

>  <origin>  (999) 
adg

>  <m_score__min__energy>  (999) 
-15.33

>  <m_primary>  (999) 
energy

$$$$
44:0
     RDKit          3D

 27 29  0  0  0  0  0  0  0  0999 V2000
   59.3540   30.9080   46.0580 O   0  0  0  0  0  0  0  0  0  0  0  0
   58.4240   30.5140   45.3060 C   0  0  0  0  0  0  0  0  0  0  0  0
   58.6110   29.2840   44.4540 C   0  0  0  0  0  0  0  0  0  0  0  0
   58.0360   28.0910   45.1020 N   0  0  0  0  0  0  0  0  0  0  0  0
   58.8840   27.1280   45.5770 C   0  0  0  0  0  0  0  0  0  0  0  0
   58.3880   25.9900   46.2140 C   0  0  0  0  0  0  0  0  0  0  0  0
   57.0060   25.8400   46.3940 C   0  0  0  0  0  0  0  0  0  0  0  0
   56.4430   24.6770   47.0190 N   0  0  0  0  0  0  0  0  0  0  0  0
   56.8190   23.3140   46.7870 C   0  0  0  0  0  0  0  0  0  0  0  0
   57.0420   22.5350   47.7540 O   0  0  0  0  0  0  0  0  0  0  0  0
   56.8940   22.8050   45.4120 C   0  0  0  0  0  0  0  0  0  0  0  0
   57.7650   21.8260   44.9470 C   0  0  0  0  0  0  0  0  0  0  0  0
   57.6050   21.5460   43.5840 C   0  0  0  0  0  0  0  0  0  0  0  0
   56.6130   22.3020   42.9730 C   0  0  0  0  0  0  0  0  0  0  0  0
   55.9350   23.3190   44.1280 S   0  0  0  0  0  0  0  0  0  0  0  0
   56.1490   26.8270   45.8990 C   0  0  0  0  0  0  0  0  0  0  0  0
   54.7710   26.6920   46.0460 O   0  0  0  0  0  0  0  0  0  0  0  0
   56.6790   27.9580   45.2620 C   0  0  0  0  0  0  0  0  0  0  0  0
   55.8930   28.8520   44.8430 O   0  0  0  0  0  0  0  0  0  0  0  0
   57.1830   31.2270   45.3170 N   0  0  0  0  0  0  0  0  0  0  0  0
   57.0190   32.5920   44.8320 C   0  0  0  0  0  0  0  0  0  0  0  0
   57.9360   33.5050   45.5930 C   0  0  0  0  0  0  0  0  0  0  0  0
   58.7510   34.4200   44.9050 C   0  0  0  0  0  0  0  0  0  0  0  0
   59.6280   35.2500   45.6090 C   0  0  0  0  0  0  0  0  0  0  0  0
   59.7050   35.1660   47.0030 C   0  0  0  0  0  0  0  0  0  0  0  0
   58.9070   34.2490   47.6930 C   0  0  0  0  0  0  0  0  0  0  0  0
   58.0290   33.4160   46.9920 C   0  0  0  0  0  0  0  0  0  0  0  0
  1  2  2  0
  2  3  1  0
  3  4  1  0
  4  5  1  0
  5  6  2  0
  6  7  1  0
  7  8  1  0
  8  9  1  0
  9 10  2  0
  9 11  1  0
 11 12  2  0
 12 13  1  0
 13 14  2  0
 14 15  1  0
  7 16  2  0
 16 17  1  0
 16 18  1  0
 18 19  2  0
  2 20  1  0
 20 21  1  0
 21 22  1  0
 22 23  2  0
 23 24  1  0
 24 25  2  0
 25 26  1  0
 26 27  2  0
 18  4  1  0
 27 22  1  0
 15 11  1  0
M  CHG  3   8  -1  17  -1  20  -1
M  END
>  <UniqueID>  (1000) 
40

>  <SMILES>  (1000) 
O=C(Cn1ccc([N-]C(=O)c2cccs2)c([O-])c1=O)[N-]Cc1ccccc1

>  <Energy>  (1000) 
72.77908898700663

>  <Genealogy>  (1000) 
O=C(Cn1ccc([N-]C(=O)c2cccs2)c([O-])c1=O)[N-]Cc1ccccc1 (protonated)
O=C(Cn1ccc([N-]C(=O)c2cccs2)c([O-])c1=O)[N-]Cc1ccccc1 (3D coordinates assigned)
O=C(Cn1ccc([N-]C(=O)c2cccs2)c([O-])c1=O)[N-]Cc1ccccc1 (optimized conformer: 72.77908898700663 kcal/mol)

>  <smiles>  (1000) 
O=C(Cn1ccc(NC(=O)c2cccs2)c(O)c1=O)NCc1ccccc1

>  <score_type>  (1000) 
oracle

>  <origin>  (1000) 
adg

>  <m_score__min__energy>  (1000) 
-15.51

>  <m_primary>  (1000) 
energy

$$$$
47:0
     RDKit          3D

 30 33  0  0  0  0  0  0  0  0999 V2000
   56.6100   29.4760   44.2640 C   0  0  0  0  0  0  0  0  0  0  0  0
   57.7930   29.0970   44.7740 C   0  0  0  0  0  0  0  0  0  0  0  0
   58.2470   27.7800   44.9350 C   0  0  0  0  0  0  0  0  0  0  0  0
   57.5620   26.6490   44.6600 C   0  0  0  0  0  0  0  0  0  0  0  0
   57.0380   25.6940   45.6630 C   0  0  0  0  0  0  0  0  0  0  0  0
   57.6780   24.6060   46.1270 N   0  0  0  0  0  0  0  0  0  0  0  0
   56.7820   24.0480   46.9700 C   0  0  0  0  0  0  0  0  0  0  0  0
   57.0250   22.9950   47.6140 O   0  0  0  0  0  0  0  0  0  0  0  0
   55.6080   24.7060   47.0650 N   0  0  0  0  0  0  0  0  0  0  0  0
   55.7860   25.7420   46.2300 C   0  0  0  0  0  0  0  0  0  0  0  0
   54.8220   26.7140   45.9920 O   0  0  0  0  0  0  0  0  0  0  0  0
   59.5330   27.8790   45.4540 C   0  0  0  0  0  0  0  0  0  0  0  0
   59.8050   29.2250   45.5940 C   0  0  0  0  0  0  0  0  0  0  0  0
   61.0940   29.7810   46.1220 C   0  0  0  0  0  0  0  0  0  0  0  0
   58.7560   29.9660   45.1750 N   0  0  0  0  0  0  0  0  0  0  0  0
   58.6820   31.4020   45.1930 C   0  0  0  0  0  0  0  0  0  0  0  0
   58.1270   32.0940   44.1090 C   0  0  0  0  0  0  0  0  0  0  0  0
   58.0670   33.4880   44.1210 C   0  0  0  0  0  0  0  0  0  0  0  0
   58.5580   34.2020   45.2180 C   0  0  0  0  0  0  0  0  0  0  0  0
   59.1080   33.5250   46.3200 C   0  0  0  0  0  0  0  0  0  0  0  0
   59.6380   34.2750   47.4840 C   0  0  0  0  0  0  0  0  0  0  0  0
   59.0790   35.3490   47.8360 O   0  0  0  0  0  0  0  0  0  0  0  0
   60.7750   33.7950   48.2250 N   0  0  0  0  0  0  0  0  0  0  0  0
   62.1180   33.8420   47.6390 C   0  0  0  0  0  0  0  0  0  0  0  0
   62.6820   32.4550   47.5300 C   0  0  0  0  0  0  0  0  0  0  0  0
   63.6530   32.2360   46.7570 O   0  0  0  0  0  0  0  0  0  0  0  0
   62.1740   31.3960   48.3520 N   0  0  0  0  0  0  0  0  0  0  0  0
   60.9000   31.5080   49.0640 C   0  0  0  0  0  0  0  0  0  0  0  0
   60.5900   32.9640   49.4180 C   0  0  0  0  0  0  0  0  0  0  0  0
   59.1780   32.1200   46.2920 C   0  0  0  0  0  0  0  0  0  0  0  0
  1  2  2  0
  2  3  1  0
  3  4  2  0
  4  5  1  0
  5  6  1  0
  6  7  1  0
  7  8  2  0
  7  9  1  0
  9 10  1  0
 10 11  1  0
  3 12  1  0
 12 13  2  0
 13 14  1  0
 13 15  1  0
 15 16  1  0
 16 17  2  0
 17 18  1  0
 18 19  2  0
 19 20  1  0
 20 21  1  0
 21 22  2  0
 21 23  1  0
 23 24  1  0
 24 25  1  0
 25 26  2  0
 25 27  1  0
 27 28  1  0
 28 29  1  0
 20 30  2  0
 15  2  1  0
 30 16  1  0
 10  5  2  0
 29 23  1  0
M  CHG  3   6  -1   9  -1  11  -1
M  END
>  <UniqueID>  (1001) 
42

>  <SMILES>  (1001) 
C=c1/c(=C/c2[n-]c(=O)[n-]c2[O-])cc(C)n1-c1cccc(C(=O)N2CCNC(=O)C2)c1

>  <Energy>  (1001) 
124.22457473202788

>  <Genealogy>  (1001) 
C=c1c(=Cc2[n-]c(=O)[n-]c2[O-])cc(C)n1-c1cccc(C(=O)N2CCNC(=O)C2)c1 (protonated)
C=c1/c(=C/c2[n-]c(=O)[n-]c2[O-])cc(C)n1-c1cccc(C(=O)N2CCNC(=O)C2)c1 (cis-trans isomerization)
C=c1/c(=C/c2[n-]c(=O)[n-]c2[O-])cc(C)n1-c1cccc(C(=O)N2CCNC(=O)C2)c1 (3D coordinates assigned)
C=c1/c(=C/c2[n-]c(=O)[n-]c2[O-])cc(C)n1-c1cccc(C(=O)N2CCNC(=O)C2)c1 (nonaromatic ring conformer: 124.22457473202788 kcal/mol)

>  <smiles>  (1001) 
C=c1c(=Cc2[nH]c(=O)[nH]c2O)cc(C)n1-c1cccc(C(=O)N2CCNC(=O)C2)c1

>  <score_type>  (1001) 
oracle

>  <origin>  (1001) 
adg

>  <m_score__min__energy>  (1001) 
-16.82

>  <m_primary>  (1001) 
energy

$$$$
52:0
     RDKit          3D

 33 36  0  0  0  0  0  0  0  0999 V2000
   58.2510   30.3460   44.8420 C   0  0  0  0  0  0  0  0  0  0  0  0
   58.4120   29.8170   46.0680 C   0  0  0  0  0  0  0  0  0  0  0  0
   58.2200   28.4730   46.4080 C   0  0  0  0  0  0  0  0  0  0  0  0
   57.8050   27.4740   45.6020 C   0  0  0  0  0  0  0  0  0  0  0  0
   57.2370   26.2040   46.0880 C   0  0  0  0  0  0  0  0  0  0  0  0
   57.9880   25.1910   46.5540 N   0  0  0  0  0  0  0  0  0  0  0  0
   57.0750   24.2840   46.9640 C   0  0  0  0  0  0  0  0  0  0  0  0
   57.3980   23.1730   47.4570 O   0  0  0  0  0  0  0  0  0  0  0  0
   55.7900   24.6670   46.8110 N   0  0  0  0  0  0  0  0  0  0  0  0
   55.9070   25.8880   46.2680 C   0  0  0  0  0  0  0  0  0  0  0  0
   54.8250   26.7130   45.9880 O   0  0  0  0  0  0  0  0  0  0  0  0
   58.4770   28.3750   47.7660 C   0  0  0  0  0  0  0  0  0  0  0  0
   58.8270   29.6370   48.1970 C   0  0  0  0  0  0  0  0  0  0  0  0
   59.1100   29.9870   49.6270 C   0  0  0  0  0  0  0  0  0  0  0  0
   58.7890   30.5210   47.1710 N   0  0  0  0  0  0  0  0  0  0  0  0
   59.0450   31.9660   47.2850 C   0  0  0  0  0  0  0  0  0  0  0  0
   60.4920   32.2250   47.6170 C   0  0  0  0  0  0  0  0  0  0  0  0
   60.8550   33.3280   48.4050 C   0  0  0  0  0  0  0  0  0  0  0  0
   62.1990   33.5730   48.7010 C   0  0  0  0  0  0  0  0  0  0  0  0
   63.2060   32.7230   48.2170 C   0  0  0  0  0  0  0  0  0  0  0  0
   64.5780   33.0110   48.5430 N   0  0  0  0  0  0  0  0  0  0  0  0
   65.1840   33.2090   50.1570 S   0  0  0  0  0  0  0  0  0  0  0  0
   66.6030   33.7030   50.1110 O   0  0  0  0  0  0  0  0  0  0  0  0
   64.3420   34.2310   50.8680 O   0  0  0  0  0  0  0  0  0  0  0  0
   65.0740   31.6600   51.0410 C   0  0  0  0  0  0  0  0  0  0  0  0
   63.6440   31.3530   51.3820 C   0  0  0  0  0  0  0  0  0  0  0  0
   62.8960   32.2420   52.1730 C   0  0  0  0  0  0  0  0  0  0  0  0
   61.5740   31.9380   52.5140 C   0  0  0  0  0  0  0  0  0  0  0  0
   60.9950   30.7440   52.0780 C   0  0  0  0  0  0  0  0  0  0  0  0
   61.7370   29.8490   51.3020 C   0  0  0  0  0  0  0  0  0  0  0  0
   63.0580   30.1480   50.9570 C   0  0  0  0  0  0  0  0  0  0  0  0
   62.8380   31.6180   47.4260 C   0  0  0  0  0  0  0  0  0  0  0  0
   61.4940   31.3720   47.1320 C   0  0  0  0  0  0  0  0  0  0  0  0
  1  2  2  0
  2  3  1  0
  3  4  2  0
  4  5  1  0
  5  6  1  0
  6  7  1  0
  7  8  2  0
  7  9  1  0
  9 10  1  0
 10 11  1  0
  3 12  1  0
 12 13  2  0
 13 14  1  0
 13 15  1  0
 15 16  1  0
 16 17  1  0
 17 18  2  0
 18 19  1  0
 19 20  2  0
 20 21  1  0
 21 22  1  0
 22 23  2  0
 22 24  2  0
 22 25  1  0
 25 26  1  0
 26 27  2  0
 27 28  1  0
 28 29  2  0
 29 30  1  0
 30 31  2  0
 20 32  1  0
 32 33  2  0
 15  2  1  0
 33 17  1  0
 10  5  2  0
 31 26  1  0
M  CHG  3   6  -1   9  -1  11  -1
M  END
>  <UniqueID>  (1002) 
47

>  <SMILES>  (1002) 
C=c1/c(=C/c2[n-]c(=O)[n-]c2[O-])cc(C)n1Cc1ccc(NS(=O)(=O)Cc2ccccc2)cc1

>  <Energy>  (1002) 
120.69603111764285

>  <Genealogy>  (1002) 
C=c1c(=Cc2[n-]c(=O)[n-]c2[O-])cc(C)n1Cc1ccc(NS(=O)(=O)Cc2ccccc2)cc1 (protonated)
C=c1/c(=C/c2[n-]c(=O)[n-]c2[O-])cc(C)n1Cc1ccc(NS(=O)(=O)Cc2ccccc2)cc1 (cis-trans isomerization)
C=c1/c(=C/c2[n-]c(=O)[n-]c2[O-])cc(C)n1Cc1ccc(NS(=O)(=O)Cc2ccccc2)cc1 (3D coordinates assigned)
C=c1/c(=C/c2[n-]c(=O)[n-]c2[O-])cc(C)n1Cc1ccc(NS(=O)(=O)Cc2ccccc2)cc1 (optimized conformer: 120.69603111764285 kcal/mol)

>  <smiles>  (1002) 
C=c1c(=Cc2[nH]c(=O)[nH]c2O)cc(C)n1Cc1ccc(NS(=O)(=O)Cc2ccccc2)cc1

>  <score_type>  (1002) 
oracle

>  <origin>  (1002) 
adg

>  <m_score__min__energy>  (1002) 
-18.539999999999999

>  <m_primary>  (1002) 
energy

$$$$
74:0
     RDKit          3D

 26 28  0  0  0  0  0  0  0  0999 V2000
   60.5670   34.0170   49.5900 O   0  0  0  0  0  0  0  0  0  0  0  0
   61.6250   33.4270   48.8980 C   0  0  0  0  0  0  0  0  0  0  0  0
   62.8810   34.0400   48.9280 C   0  0  0  0  0  0  0  0  0  0  0  0
   63.9490   33.4840   48.2240 C   0  0  0  0  0  0  0  0  0  0  0  0
   63.7480   32.3130   47.4940 C   0  0  0  0  0  0  0  0  0  0  0  0
   62.5250   31.7200   47.4800 N   0  0  0  0  0  0  0  0  0  0  0  0
   61.4610   32.2380   48.1590 C   0  0  0  0  0  0  0  0  0  0  0  0
   60.3080   31.6320   48.1560 N   0  0  0  0  0  0  0  0  0  0  0  0
   59.0350   32.2080   47.8100 C   0  0  0  0  0  0  0  0  0  0  0  0
   58.1360   32.3440   48.6860 O   0  0  0  0  0  0  0  0  0  0  0  0
   58.7510   32.5950   46.4080 C   0  0  0  0  0  0  0  0  0  0  0  0
   59.2180   33.8320   45.9300 C   0  0  0  0  0  0  0  0  0  0  0  0
   58.9610   34.2290   44.6200 C   0  0  0  0  0  0  0  0  0  0  0  0
   58.2610   33.3880   43.7560 C   0  0  0  0  0  0  0  0  0  0  0  0
   57.8150   32.1320   44.1940 C   0  0  0  0  0  0  0  0  0  0  0  0
   57.1210   31.2250   43.2120 C   0  0  0  0  0  0  0  0  0  0  0  0
   58.0300   31.7450   45.5380 C   0  0  0  0  0  0  0  0  0  0  0  0
   57.5930   30.4990   46.0060 O   0  0  0  0  0  0  0  0  0  0  0  0
   58.0390   29.2770   45.4890 C   0  0  0  0  0  0  0  0  0  0  0  0
   59.0580   29.2230   44.7480 O   0  0  0  0  0  0  0  0  0  0  0  0
   57.2820   28.0540   45.7740 C   0  0  0  0  0  0  0  0  0  0  0  0
   55.9510   27.9430   45.5910 N   0  0  0  0  0  0  0  0  0  0  0  0
   55.6550   26.6930   45.9970 C   0  0  0  0  0  0  0  0  0  0  0  0
   54.3700   26.1690   45.9710 O   0  0  0  0  0  0  0  0  0  0  0  0
   56.7680   26.0130   46.4360 C   0  0  0  0  0  0  0  0  0  0  0  0
   57.8200   26.8890   46.2940 C   0  0  0  0  0  0  0  0  0  0  0  0
  1  2  1  0
  2  3  2  0
  3  4  1  0
  4  5  2  0
  5  6  1  0
  6  7  1  0
  7  8  2  0
  8  9  1  0
  9 10  2  0
  9 11  1  0
 11 12  2  0
 12 13  1  0
 13 14  2  0
 14 15  1  0
 15 16  1  0
 15 17  2  0
 17 18  1  0
 18 19  1  0
 19 20  2  0
 19 21  1  0
 21 22  1  0
 22 23  1  0
 23 24  1  0
 23 25  2  0
 25 26  1  0
  7  2  1  0
 17 11  1  0
 26 21  2  0
M  CHG  3   6  -1  22  -1  24  -1
M  END
>  <UniqueID>  (1003) 
69

>  <SMILES>  (1003) 
Cc1cccc(C(=O)/N=c2\[n-]cccc2O)c1OC(=O)c1ccc([O-])[n-]1

>  <Energy>  (1003) 
77.29724967615314

>  <Genealogy>  (1003) 
Cc1cccc(C(=O)N=c2[n-]cccc2O)c1OC(=O)c1ccc([O-])[n-]1 (protonated)
Cc1cccc(C(=O)/N=c2\[n-]cccc2O)c1OC(=O)c1ccc([O-])[n-]1 (cis-trans isomerization)
Cc1cccc(C(=O)/N=c2\[n-]cccc2O)c1OC(=O)c1ccc([O-])[n-]1 (3D coordinates assigned)
Cc1cccc(C(=O)/N=c2\[n-]cccc2O)c1OC(=O)c1ccc([O-])[n-]1 (optimized conformer: 77.29724967615314 kcal/mol)

>  <smiles>  (1003) 
Cc1cccc(C(=O)N=c2[nH]cccc2O)c1OC(=O)c1ccc(O)[nH]1

>  <score_type>  (1003) 
oracle

>  <origin>  (1003) 
adg

>  <m_score__min__energy>  (1003) 
-14.58

>  <m_primary>  (1003) 
energy

$$$$
86:0
     RDKit          3D

 30 32  0  0  0  0  0  0  0  0999 V2000
   59.8310   27.2010   45.8850 O   0  0  0  0  0  0  0  0  0  0  0  0
   58.7700   27.5390   45.2930 C   0  0  0  0  0  0  0  0  0  0  0  0
   58.6640   28.9090   44.6890 C   0  0  0  0  0  0  0  0  0  0  0  0
   57.2710   29.2640   44.4390 N   0  0  0  0  0  0  0  0  0  0  0  0
   56.7170   30.5690   44.6270 C   0  0  0  0  0  0  0  0  0  0  0  0
   55.4780   30.7400   44.4780 O   0  0  0  0  0  0  0  0  0  0  0  0
   57.5580   31.7110   45.0030 C   0  0  0  0  0  0  0  0  0  0  0  0
   57.6460   32.8260   44.1560 C   0  0  0  0  0  0  0  0  0  0  0  0
   58.4100   33.9340   44.5320 C   0  0  0  0  0  0  0  0  0  0  0  0
   59.1050   33.9270   45.7440 C   0  0  0  0  0  0  0  0  0  0  0  0
   59.0490   32.8030   46.5840 C   0  0  0  0  0  0  0  0  0  0  0  0
   59.9870   32.7640   48.0780 S   0  0  0  0  0  0  0  0  0  0  0  0
   60.9120   33.9490   48.1120 O   0  0  0  0  0  0  0  0  0  0  0  0
   60.8240   31.5180   48.1030 O   0  0  0  0  0  0  0  0  0  0  0  0
   58.9590   32.7990   49.4860 N   0  0  0  0  0  0  0  0  0  0  0  0
   58.6530   31.4330   49.9280 C   0  0  0  0  0  0  0  0  0  0  0  0
   57.7710   31.4670   51.1920 C   0  0  0  0  0  0  0  0  0  0  0  0
   57.5540   32.7890   51.6540 O   0  0  0  0  0  0  0  0  0  0  0  0
   58.7930   33.4280   51.8800 C   0  0  0  0  0  0  0  0  0  0  0  0
   59.6000   33.5540   50.5750 C   0  0  0  0  0  0  0  0  0  0  0  0
   58.2620   31.7010   46.2150 C   0  0  0  0  0  0  0  0  0  0  0  0
   57.6710   26.6250   45.1980 N   0  0  0  0  0  0  0  0  0  0  0  0
   57.6560   25.3340   45.8800 C   0  0  0  0  0  0  0  0  0  0  0  0
   56.3460   24.6300   45.6480 C   0  0  0  0  0  0  0  0  0  0  0  0
   56.3280   23.2550   45.3580 C   0  0  0  0  0  0  0  0  0  0  0  0
   55.1140   22.5990   45.1390 C   0  0  0  0  0  0  0  0  0  0  0  0
   53.9100   23.3040   45.2120 C   0  0  0  0  0  0  0  0  0  0  0  0
   53.9180   24.6680   45.4970 C   0  0  0  0  0  0  0  0  0  0  0  0
   55.1300   25.3350   45.7100 C   0  0  0  0  0  0  0  0  0  0  0  0
   55.1180   26.6980   45.9830 O   0  0  0  0  0  0  0  0  0  0  0  0
  1  2  2  0
  2  3  1  0
  3  4  1  0
  4  5  1  0
  5  6  2  0
  5  7  1  0
  7  8  2  0
  8  9  1  0
  9 10  2  0
 10 11  1  0
 11 12  1  0
 12 13  2  0
 12 14  2  0
 12 15  1  0
 15 16  1  0
 16 17  1  0
 17 18  1  0
 18 19  1  0
 19 20  1  0
 11 21  2  0
  2 22  1  0
 22 23  1  0
 23 24  1  0
 24 25  2  0
 25 26  1  0
 26 27  2  0
 27 28  1  0
 28 29  2  0
 29 30  1  0
 21  7  1  0
 29 24  1  0
 20 15  1  0
M  CHG  2   4  -1  30  -1
M  END
>  <UniqueID>  (1004) 
81

>  <SMILES>  (1004) 
O=C(C[N-]C(=O)c1cccc(S(=O)(=O)N2CCOCC2)c1)NCc1ccccc1[O-]

>  <Energy>  (1004) 
60.46890155479432

>  <Genealogy>  (1004) 
O=C(C[N-]C(=O)c1cccc(S(=O)(=O)N2CCOCC2)c1)NCc1ccccc1[O-] (protonated)
O=C(C[N-]C(=O)c1cccc(S(=O)(=O)N2CCOCC2)c1)NCc1ccccc1[O-] (3D coordinates assigned)
O=C(C[N-]C(=O)c1cccc(S(=O)(=O)N2CCOCC2)c1)NCc1ccccc1[O-] (nonaromatic ring conformer: 60.46890155479432 kcal/mol)

>  <smiles>  (1004) 
O=C(CNC(=O)c1cccc(S(=O)(=O)N2CCOCC2)c1)NCc1ccccc1O

>  <score_type>  (1004) 
oracle

>  <origin>  (1004) 
adg

>  <m_score__min__energy>  (1004) 
-15.5

>  <m_primary>  (1004) 
energy

$$$$
88:0
     RDKit          3D

 35 38  0  0  0  0  0  0  0  0999 V2000
   59.9670   34.5820   48.5240 C   0  0  0  0  0  0  0  0  0  0  0  0
   59.3750   33.8140   47.3710 C   0  0  0  0  0  0  0  0  0  0  0  0
   58.8460   34.5210   46.2790 C   0  0  0  0  0  0  0  0  0  0  0  0
   58.2490   33.8470   45.2120 C   0  0  0  0  0  0  0  0  0  0  0  0
   58.1700   32.4490   45.2160 C   0  0  0  0  0  0  0  0  0  0  0  0
   57.5470   31.7100   44.0650 C   0  0  0  0  0  0  0  0  0  0  0  0
   56.3330   31.0320   44.5110 N   0  0  0  0  0  0  0  0  0  0  0  0
   55.9970   29.6520   44.2990 C   0  0  0  0  0  0  0  0  0  0  0  0
   54.7810   29.3360   44.1880 O   0  0  0  0  0  0  0  0  0  0  0  0
   57.0380   28.5860   44.1040 C   0  0  0  0  0  0  0  0  0  0  0  0
   57.2970   27.8850   45.4020 C   0  0  0  0  0  0  0  0  0  0  0  0
   58.4740   27.9050   46.0510 N   0  0  0  0  0  0  0  0  0  0  0  0
   58.2740   27.0630   47.0880 C   0  0  0  0  0  0  0  0  0  0  0  0
   59.1650   26.8140   47.9390 O   0  0  0  0  0  0  0  0  0  0  0  0
   57.0470   26.5020   47.1330 N   0  0  0  0  0  0  0  0  0  0  0  0
   56.4440   27.0280   46.0550 C   0  0  0  0  0  0  0  0  0  0  0  0
   55.1450   26.7220   45.6720 O   0  0  0  0  0  0  0  0  0  0  0  0
   58.7210   31.7330   46.2880 C   0  0  0  0  0  0  0  0  0  0  0  0
   59.3310   32.4010   47.3620 C   0  0  0  0  0  0  0  0  0  0  0  0
   59.9000   31.5930   48.4600 C   0  0  0  0  0  0  0  0  0  0  0  0
   59.1720   30.7350   49.0300 O   0  0  0  0  0  0  0  0  0  0  0  0
   61.2720   31.7550   48.8720 N   0  0  0  0  0  0  0  0  0  0  0  0
   62.3270   31.7780   47.8490 C   0  0  0  0  0  0  0  0  0  0  0  0
   63.5470   32.5650   48.3360 C   0  0  0  0  0  0  0  0  0  0  0  0
   63.9020   32.1640   49.6990 N   0  0  0  0  0  0  0  0  0  0  0  0
   65.2800   32.1990   50.1110 C   0  0  0  0  0  0  0  0  0  0  0  0
   66.0450   33.0870   49.6440 O   0  0  0  0  0  0  0  0  0  0  0  0
   65.8170   31.2010   51.0640 C   0  0  0  0  0  0  0  0  0  0  0  0
   65.1380   29.9880   51.2780 C   0  0  0  0  0  0  0  0  0  0  0  0
   65.6430   29.0410   52.1780 C   0  0  0  0  0  0  0  0  0  0  0  0
   66.8210   29.3070   52.8830 C   0  0  0  0  0  0  0  0  0  0  0  0
   67.4930   30.5160   52.6890 C   0  0  0  0  0  0  0  0  0  0  0  0
   66.9940   31.4630   51.7860 C   0  0  0  0  0  0  0  0  0  0  0  0
   62.8430   32.1990   50.7110 C   0  0  0  0  0  0  0  0  0  0  0  0
   61.6440   31.3780   50.2400 C   0  0  0  0  0  0  0  0  0  0  0  0
  1  2  1  0
  2  3  2  0
  3  4  1  0
  4  5  2  0
  5  6  1  0
  6  7  1  0
  7  8  1  0
  8  9  2  0
  8 10  1  0
 10 11  1  0
 11 12  1  0
 12 13  1  0
 13 14  2  0
 13 15  1  0
 15 16  1  0
 16 17  1  0
  5 18  1  0
 18 19  2  0
 19 20  1  0
 20 21  2  0
 20 22  1  0
 22 23  1  0
 23 24  1  0
 24 25  1  0
 25 26  1  0
 26 27  2  0
 26 28  1  0
 28 29  2  0
 29 30  1  0
 30 31  2  0
 31 32  1  0
 32 33  2  0
 25 34  1  0
 34 35  1  0
 19  2  1  0
 35 22  1  0
 16 11  2  0
 33 28  1  0
M  CHG  4   7  -1  12  -1  15  -1  17  -1
M  END
>  <UniqueID>  (1005) 
83

>  <SMILES>  (1005) 
Cc1ccc(C[N-]C(=O)Cc2[n-]c(=O)[n-]c2[O-])cc1C(=O)N1CCN(C(=O)c2ccccc2)CC1

>  <Energy>  (1005) 
98.87700930494772

>  <Genealogy>  (1005) 
Cc1ccc(C[N-]C(=O)Cc2[n-]c(=O)[n-]c2[O-])cc1C(=O)N1CCN(C(=O)c2ccccc2)CC1 (protonated)
Cc1ccc(C[N-]C(=O)Cc2[n-]c(=O)[n-]c2[O-])cc1C(=O)N1CCN(C(=O)c2ccccc2)CC1 (3D coordinates assigned)
Cc1ccc(C[N-]C(=O)Cc2[n-]c(=O)[n-]c2[O-])cc1C(=O)N1CCN(C(=O)c2ccccc2)CC1 (nonaromatic ring conformer: 98.87700930494772 kcal/mol)

>  <smiles>  (1005) 
Cc1ccc(CNC(=O)Cc2[nH]c(=O)[nH]c2O)cc1C(=O)N1CCN(C(=O)c2ccccc2)CC1

>  <score_type>  (1005) 
oracle

>  <origin>  (1005) 
adg

>  <m_score__min__energy>  (1005) 
-18.949999999999999

>  <m_primary>  (1005) 
energy

$$$$
92:0
     RDKit          3D

 26 27  0  0  0  0  0  0  0  0999 V2000
   58.6510   33.0230   44.2960 O   0  0  0  0  0  0  0  0  0  0  0  0
   57.7440   32.9310   45.1690 C   0  0  0  0  0  0  0  0  0  0  0  0
   57.9080   33.6200   46.4860 C   0  0  0  0  0  0  0  0  0  0  0  0
   57.9630   32.6610   47.5370 O   0  0  0  0  0  0  0  0  0  0  0  0
   58.7900   32.7950   48.6570 C   0  0  0  0  0  0  0  0  0  0  0  0
   58.7030   31.9910   49.6230 O   0  0  0  0  0  0  0  0  0  0  0  0
   59.8180   33.8790   48.6910 C   0  0  0  0  0  0  0  0  0  0  0  0
   61.1660   33.3260   48.3130 C   0  0  0  0  0  0  0  0  0  0  0  0
   61.2550   32.2100   47.4620 C   0  0  0  0  0  0  0  0  0  0  0  0
   62.5040   31.6800   47.1180 C   0  0  0  0  0  0  0  0  0  0  0  0
   63.6700   32.2500   47.6360 C   0  0  0  0  0  0  0  0  0  0  0  0
   63.5920   33.3520   48.4940 C   0  0  0  0  0  0  0  0  0  0  0  0
   62.3460   33.8890   48.8330 C   0  0  0  0  0  0  0  0  0  0  0  0
   62.2920   34.9540   49.6770 F   0  0  0  0  0  0  0  0  0  0  0  0
   56.5810   32.1340   44.9290 N   0  0  0  0  0  0  0  0  0  0  0  0
   56.6080   30.8600   44.2190 C   0  0  0  0  0  0  0  0  0  0  0  0
   57.0830   29.7710   45.1280 C   0  0  0  0  0  0  0  0  0  0  0  0
   57.7980   30.0590   46.1260 O   0  0  0  0  0  0  0  0  0  0  0  0
   56.6760   28.4210   44.8800 N   0  0  0  0  0  0  0  0  0  0  0  0
   57.0960   27.2560   45.6060 C   0  0  0  0  0  0  0  0  0  0  0  0
   58.4550   26.9210   45.7450 C   0  0  0  0  0  0  0  0  0  0  0  0
   58.8280   25.7620   46.4310 C   0  0  0  0  0  0  0  0  0  0  0  0
   57.8500   24.9200   46.9700 C   0  0  0  0  0  0  0  0  0  0  0  0
   56.4980   25.2340   46.8180 C   0  0  0  0  0  0  0  0  0  0  0  0
   56.1190   26.3950   46.1310 C   0  0  0  0  0  0  0  0  0  0  0  0
   54.7690   26.6950   45.9800 O   0  0  0  0  0  0  0  0  0  0  0  0
  1  2  2  0
  2  3  1  0
  3  4  1  0
  4  5  1  0
  5  6  2  0
  5  7  1  0
  7  8  1  0
  8  9  2  0
  9 10  1  0
 10 11  2  0
 11 12  1  0
 12 13  2  0
 13 14  1  0
  2 15  1  0
 15 16  1  0
 16 17  1  0
 17 18  2  0
 17 19  1  0
 19 20  1  0
 20 21  2  0
 21 22  1  0
 22 23  2  0
 23 24  1  0
 24 25  2  0
 25 26  1  0
 13  8  1  0
 25 20  1  0
M  CHG  3  15  -1  19  -1  26  -1
M  END
>  <UniqueID>  (1006) 
87

>  <SMILES>  (1006) 
O=C(COC(=O)Cc1ccccc1F)[N-]CC(=O)[N-]c1ccccc1[O-]

>  <Energy>  (1006) 
34.31870496598744

>  <Genealogy>  (1006) 
O=C(COC(=O)Cc1ccccc1F)[N-]CC(=O)[N-]c1ccccc1[O-] (protonated)
O=C(COC(=O)Cc1ccccc1F)[N-]CC(=O)[N-]c1ccccc1[O-] (3D coordinates assigned)
O=C(COC(=O)Cc1ccccc1F)[N-]CC(=O)[N-]c1ccccc1[O-] (optimized conformer: 34.31870496598744 kcal/mol)

>  <smiles>  (1006) 
O=C(COC(=O)Cc1ccccc1F)NCC(=O)Nc1ccccc1O

>  <score_type>  (1006) 
oracle

>  <origin>  (1006) 
adg

>  <m_score__min__energy>  (1006) 
-14.81

>  <m_primary>  (1006) 
energy

$$$$
93:0
     RDKit          3D

 28 30  0  0  0  0  0  0  0  0999 V2000
   55.3880   29.9790   53.7650 O   0  0  0  0  0  0  0  0  0  0  0  0
   55.3170   29.8120   52.5180 C   0  0  0  0  0  0  0  0  0  0  0  0
   54.0120   29.3700   51.9080 C   0  0  0  0  0  0  0  0  0  0  0  0
   52.9470   30.4350   52.0030 C   0  0  0  0  0  0  0  0  0  0  0  0
   52.4600   30.8450   53.2570 C   0  0  0  0  0  0  0  0  0  0  0  0
   51.4860   31.8440   53.3440 C   0  0  0  0  0  0  0  0  0  0  0  0
   51.0000   32.4550   52.1860 C   0  0  0  0  0  0  0  0  0  0  0  0
   50.0330   33.4490   52.2800 O   0  0  0  0  0  0  0  0  0  0  0  0
   51.4920   32.0680   50.9330 C   0  0  0  0  0  0  0  0  0  0  0  0
   51.0220   32.6810   49.7780 O   0  0  0  0  0  0  0  0  0  0  0  0
   52.4650   31.0670   50.8430 C   0  0  0  0  0  0  0  0  0  0  0  0
   56.5120   29.9350   51.7380 N   0  0  0  0  0  0  0  0  0  0  0  0
   57.3040   31.1210   51.6120 C   0  0  0  0  0  0  0  0  0  0  0  0
   57.0800   32.2240   52.4500 C   0  0  0  0  0  0  0  0  0  0  0  0
   57.8610   33.3730   52.3220 C   0  0  0  0  0  0  0  0  0  0  0  0
   58.8880   33.4210   51.3790 C   0  0  0  0  0  0  0  0  0  0  0  0
   59.1580   32.3090   50.5680 C   0  0  0  0  0  0  0  0  0  0  0  0
   60.4720   32.3820   49.3900 S   0  0  0  0  0  0  0  0  0  0  0  0
   61.2260   31.0820   49.4340 O   0  0  0  0  0  0  0  0  0  0  0  0
   61.4040   33.5110   49.7340 O   0  0  0  0  0  0  0  0  0  0  0  0
   59.8310   32.6370   47.7830 N   0  0  0  0  0  0  0  0  0  0  0  0
   58.4360   33.1060   47.8690 C   0  0  0  0  0  0  0  0  0  0  0  0
   57.7090   32.8840   46.5330 C   0  0  0  0  0  0  0  0  0  0  0  0
   57.6650   31.5270   46.1050 O   0  0  0  0  0  0  0  0  0  0  0  0
   58.6440   30.7010   46.7180 C   0  0  0  0  0  0  0  0  0  0  0  0
   59.9840   31.4230   46.9470 C   0  0  0  0  0  0  0  0  0  0  0  0
   58.3580   31.1570   50.6860 C   0  0  0  0  0  0  0  0  0  0  0  0
   58.5940   30.0500   49.8760 O   0  0  0  0  0  0  0  0  0  0  0  0
  1  2  2  0
  2  3  1  0
  3  4  1  0
  4  5  2  0
  5  6  1  0
  6  7  2  0
  7  8  1  0
  7  9  1  0
  9 10  1  0
  9 11  2  0
  2 12  1  0
 12 13  1  0
 13 14  2  0
 14 15  1  0
 15 16  2  0
 16 17  1  0
 17 18  1  0
 18 19  2  0
 18 20  2  0
 18 21  1  0
 21 22  1  0
 22 23  1  0
 23 24  1  0
 24 25  1  0
 25 26  1  0
 17 27  2  0
 27 28  1  0
 11  4  1  0
 27 13  1  0
 26 21  1  0
M  CHG  4   8  -1  10  -1  12  -1  28  -1
M  END
>  <UniqueID>  (1007) 
88

>  <SMILES>  (1007) 
O=C(Cc1ccc([O-])c([O-])c1)[N-]c1cccc(S(=O)(=O)N2CCOCC2)c1[O-]

>  <Energy>  (1007) 
64.09073246805106

>  <Genealogy>  (1007) 
O=C(Cc1ccc([O-])c([O-])c1)[N-]c1cccc(S(=O)(=O)N2CCOCC2)c1[O-] (protonated)
O=C(Cc1ccc([O-])c([O-])c1)[N-]c1cccc(S(=O)(=O)N2CCOCC2)c1[O-] (3D coordinates assigned)
O=C(Cc1ccc([O-])c([O-])c1)[N-]c1cccc(S(=O)(=O)N2CCOCC2)c1[O-] (nonaromatic ring conformer: 64.09073246805106 kcal/mol)

>  <smiles>  (1007) 
O=C(Cc1ccc(O)c(O)c1)Nc1cccc(S(=O)(=O)N2CCOCC2)c1O

>  <score_type>  (1007) 
oracle

>  <origin>  (1007) 
adg

>  <m_score__min__energy>  (1007) 
-19.579999999999998

>  <m_primary>  (1007) 
energy

$$$$
9:0
     RDKit          3D

 25 27  0  0  0  0  0  0  0  0999 V2000
   56.2260   30.7290   44.3560 O   0  0  0  0  0  0  0  0  0  0  0  0
   56.6350   29.6230   44.8030 C   0  0  0  0  0  0  0  0  0  0  0  0
   55.7230   28.6770   45.1360 N   0  0  0  0  0  0  0  0  0  0  0  0
   56.0940   27.4710   45.6250 C   0  0  0  0  0  0  0  0  0  0  0  0
   55.1120   26.5410   45.9470 O   0  0  0  0  0  0  0  0  0  0  0  0
   57.4510   27.1760   45.8020 C   0  0  0  0  0  0  0  0  0  0  0  0
   57.8910   25.8210   46.3140 C   0  0  0  0  0  0  0  0  0  0  0  0
   57.3470   24.7230   45.4390 C   0  0  0  0  0  0  0  0  0  0  0  0
   56.9280   23.5050   46.0020 C   0  0  0  0  0  0  0  0  0  0  0  0
   56.4520   22.4760   45.1850 C   0  0  0  0  0  0  0  0  0  0  0  0
   56.3950   22.6500   43.7980 C   0  0  0  0  0  0  0  0  0  0  0  0
   55.9220   21.6270   42.9880 O   0  0  0  0  0  0  0  0  0  0  0  0
   56.8130   23.8570   43.2290 C   0  0  0  0  0  0  0  0  0  0  0  0
   57.2900   24.8890   44.0440 C   0  0  0  0  0  0  0  0  0  0  0  0
   58.3910   28.1630   45.4470 C   0  0  0  0  0  0  0  0  0  0  0  0
   59.6230   27.9240   45.5900 O   0  0  0  0  0  0  0  0  0  0  0  0
   57.9770   29.3760   44.9500 N   0  0  0  0  0  0  0  0  0  0  0  0
   58.9680   30.4200   44.6150 C   0  0  0  0  0  0  0  0  0  0  0  0
   58.6620   31.6960   45.3580 C   0  0  0  0  0  0  0  0  0  0  0  0
   58.9590   31.8100   46.7270 C   0  0  0  0  0  0  0  0  0  0  0  0
   58.6440   32.9830   47.4210 C   0  0  0  0  0  0  0  0  0  0  0  0
   58.0270   34.0460   46.7570 C   0  0  0  0  0  0  0  0  0  0  0  0
   57.7250   33.9400   45.3970 C   0  0  0  0  0  0  0  0  0  0  0  0
   57.1260   34.9710   44.7520 F   0  0  0  0  0  0  0  0  0  0  0  0
   58.0390   32.7680   44.6990 C   0  0  0  0  0  0  0  0  0  0  0  0
  1  2  2  0
  2  3  1  0
  3  4  1  0
  4  5  1  0
  4  6  2  0
  6  7  1  0
  7  8  1  0
  8  9  2  0
  9 10  1  0
 10 11  2  0
 11 12  1  0
 11 13  1  0
 13 14  2  0
  6 15  1  0
 15 16  2  0
 15 17  1  0
 17 18  1  0
 18 19  1  0
 19 20  2  0
 20 21  1  0
 21 22  2  0
 22 23  1  0
 23 24  1  0
 23 25  2  0
 17  2  1  0
 25 19  1  0
 14  8  1  0
M  CHG  3   3  -1   5  -1  12  -1
M  END
>  <UniqueID>  (1008) 
10

>  <SMILES>  (1008) 
O=c1[n-]c([O-])c(Cc2ccc([O-])cc2)c(=O)n1Cc1cccc(F)c1

>  <Energy>  (1008) 
44.48635754779374

>  <Genealogy>  (1008) 
O=c1[n-]c([O-])c(Cc2ccc([O-])cc2)c(=O)n1Cc1cccc(F)c1 (protonated)
O=c1[n-]c([O-])c(Cc2ccc([O-])cc2)c(=O)n1Cc1cccc(F)c1 (3D coordinates assigned)
O=c1[n-]c([O-])c(Cc2ccc([O-])cc2)c(=O)n1Cc1cccc(F)c1 (optimized conformer: 44.48635754779374 kcal/mol)

>  <smiles>  (1008) 
O=c1[nH]c(O)c(Cc2ccc(O)cc2)c(=O)n1Cc1cccc(F)c1

>  <score_type>  (1008) 
oracle

>  <origin>  (1008) 
adg

>  <m_score__min__energy>  (1008) 
-15.029999999999999

>  <m_primary>  (1008) 
energy

$$$$
12:0
     RDKit          3D

 27 29  0  0  0  0  0  0  0  0999 V2000
   58.2500   27.9550   47.1090 C   0  0  0  0  0  0  0  0  0  0  0  0
   58.0090   27.4380   45.8930 C   0  0  0  0  0  0  0  0  0  0  0  0
   58.2430   28.0550   44.6530 C   0  0  0  0  0  0  0  0  0  0  0  0
   58.5720   29.3250   44.3430 C   0  0  0  0  0  0  0  0  0  0  0  0
   58.7990   30.4150   45.3120 C   0  0  0  0  0  0  0  0  0  0  0  0
   59.9410   30.4350   46.1210 C   0  0  0  0  0  0  0  0  0  0  0  0
   60.9070   29.4390   46.0170 O   0  0  0  0  0  0  0  0  0  0  0  0
   60.1140   31.4350   47.0170 N   0  0  0  0  0  0  0  0  0  0  0  0
   59.1880   32.4140   47.1770 C   0  0  0  0  0  0  0  0  0  0  0  0
   59.4110   33.3330   48.0110 O   0  0  0  0  0  0  0  0  0  0  0  0
   58.0290   32.3980   46.4430 N   0  0  0  0  0  0  0  0  0  0  0  0
   57.0350   33.4720   46.6060 C   0  0  0  0  0  0  0  0  0  0  0  0
   57.8340   31.4170   45.5020 C   0  0  0  0  0  0  0  0  0  0  0  0
   56.7890   31.4120   44.7920 O   0  0  0  0  0  0  0  0  0  0  0  0
   58.0530   27.0780   43.6930 C   0  0  0  0  0  0  0  0  0  0  0  0
   57.6570   25.9350   44.3560 C   0  0  0  0  0  0  0  0  0  0  0  0
   57.3720   24.6260   43.6810 C   0  0  0  0  0  0  0  0  0  0  0  0
   57.6100   26.1530   45.6920 N   0  0  0  0  0  0  0  0  0  0  0  0
   57.2440   25.1600   46.7180 C   0  0  0  0  0  0  0  0  0  0  0  0
   55.9880   24.4080   46.3340 C   0  0  0  0  0  0  0  0  0  0  0  0
   55.9920   23.0020   46.3290 C   0  0  0  0  0  0  0  0  0  0  0  0
   54.8440   22.2910   45.9700 C   0  0  0  0  0  0  0  0  0  0  0  0
   53.6830   22.9740   45.6020 C   0  0  0  0  0  0  0  0  0  0  0  0
   52.5410   22.2650   45.2470 O   0  0  0  0  0  0  0  0  0  0  0  0
   53.6710   24.3710   45.5870 C   0  0  0  0  0  0  0  0  0  0  0  0
   54.8160   25.0900   45.9440 C   0  0  0  0  0  0  0  0  0  0  0  0
   54.7790   26.4790   45.9060 O   0  0  0  0  0  0  0  0  0  0  0  0
  1  2  2  0
  2  3  1  0
  3  4  2  3
  4  5  1  0
  5  6  2  0
  6  7  1  0
  6  8  1  0
  8  9  1  0
  9 10  2  0
  9 11  1  0
 11 12  1  0
 11 13  1  0
 13 14  2  0
  3 15  1  0
 15 16  2  0
 16 17  1  0
 16 18  1  0
 18 19  1  0
 19 20  1  0
 20 21  2  0
 21 22  1  0
 22 23  2  0
 23 24  1  0
 23 25  1  0
 25 26  2  0
 26 27  1  0
 18  2  1  0
 26 20  1  0
 13  5  1  0
M  CHG  4   7  -1   8  -1  24  -1  27  -1
M  END
>  <UniqueID>  (1009) 
13

>  <SMILES>  (1009) 
C=c1c(=Cc2c([O-])[n-]c(=O)n(C)c2=O)cc(C)n1Cc1ccc([O-])cc1[O-]

>  <Energy>  (1009) 
91.03562461098966

>  <Genealogy>  (1009) 
C=c1c(=Cc2c([O-])[n-]c(=O)n(C)c2=O)cc(C)n1Cc1ccc([O-])cc1[O-] (protonated)
C=c1c(=Cc2c([O-])[n-]c(=O)n(C)c2=O)cc(C)n1Cc1ccc([O-])cc1[O-] (3D coordinates assigned)
C=c1c(=Cc2c([O-])[n-]c(=O)n(C)c2=O)cc(C)n1Cc1ccc([O-])cc1[O-] (optimized conformer: 91.03562461098966 kcal/mol)

>  <smiles>  (1009) 
C=c1c(=Cc2c(O)[nH]c(=O)n(C)c2=O)cc(C)n1Cc1ccc(O)cc1O

>  <score_type>  (1009) 
oracle

>  <origin>  (1009) 
adg

>  <m_score__min__energy>  (1009) 
-15.84

>  <m_primary>  (1009) 
energy

$$$$
27:0
     RDKit          3D

 25 27  0  0  0  0  0  0  0  0999 V2000
   56.5960   23.7370   43.5810 C   0  0  0  0  0  0  0  0  0  0  0  0
   55.5750   23.7390   44.4440 C   0  0  0  0  0  0  0  0  0  0  0  0
   54.3430   23.3190   44.1050 N   0  0  0  0  0  0  0  0  0  0  0  0
   53.6450   23.3270   45.2530 C   0  0  0  0  0  0  0  0  0  0  0  0
   52.4420   22.9680   45.3300 O   0  0  0  0  0  0  0  0  0  0  0  0
   54.3550   23.7460   46.3200 N   0  0  0  0  0  0  0  0  0  0  0  0
   55.5750   24.0310   45.8130 C   0  0  0  0  0  0  0  0  0  0  0  0
   56.5550   24.5190   46.5930 C   0  0  0  0  0  0  0  0  0  0  0  0
   57.1530   25.8070   46.4120 N   0  0  0  0  0  0  0  0  0  0  0  0
   56.5250   26.9430   46.0710 C   0  0  0  0  0  0  0  0  0  0  0  0
   55.1440   27.0880   45.9970 O   0  0  0  0  0  0  0  0  0  0  0  0
   57.4630   27.9170   45.8080 C   0  0  0  0  0  0  0  0  0  0  0  0
   57.1610   29.3260   45.4770 C   0  0  0  0  0  0  0  0  0  0  0  0
   57.3370   29.9040   44.2800 C   0  0  0  0  0  0  0  0  0  0  0  0
   57.4120   31.3640   44.0580 C   0  0  0  0  0  0  0  0  0  0  0  0
   57.0190   32.2750   44.9600 C   0  0  0  0  0  0  0  0  0  0  0  0
   57.9180   33.2170   45.6640 C   0  0  0  0  0  0  0  0  0  0  0  0
   58.1250   33.1400   47.0530 C   0  0  0  0  0  0  0  0  0  0  0  0
   59.0100   34.0190   47.6840 C   0  0  0  0  0  0  0  0  0  0  0  0
   59.7100   34.9680   46.9330 C   0  0  0  0  0  0  0  0  0  0  0  0
   59.5320   35.0310   45.5490 C   0  0  0  0  0  0  0  0  0  0  0  0
   58.6470   34.1530   44.9140 C   0  0  0  0  0  0  0  0  0  0  0  0
   58.7010   27.3940   45.9650 N   0  0  0  0  0  0  0  0  0  0  0  0
   58.4660   26.1080   46.3060 C   0  0  0  0  0  0  0  0  0  0  0  0
   59.3880   25.2710   46.4890 O   0  0  0  0  0  0  0  0  0  0  0  0
  1  2  2  0
  2  3  1  0
  3  4  1  0
  4  5  2  0
  4  6  1  0
  6  7  1  0
  7  8  2  3
  8  9  1  0
  9 10  1  0
 10 11  1  0
 10 12  2  0
 12 13  1  0
 13 14  2  3
 14 15  1  0
 15 16  2  3
 16 17  1  0
 17 18  2  0
 18 19  1  0
 19 20  2  0
 20 21  1  0
 21 22  2  0
 12 23  1  0
 23 24  1  0
 24 25  2  0
  7  2  1  0
 24  9  1  0
 22 17  1  0
M  CHG  3   6  -1  11  -1  23  -1
M  END
>  <UniqueID>  (1010) 
27

>  <SMILES>  (1010) 
C=c1[nH]c(=O)[n-]c1=Cn1c([O-])c(C=CC=Cc2ccccc2)[n-]c1=O

>  <Energy>  (1010) 
123.84551731552646

>  <Genealogy>  (1010) 
C=c1[nH]c(=O)[n-]c1=Cn1c([O-])c(C=CC=Cc2ccccc2)[n-]c1=O (protonated)
C=c1[nH]c(=O)[n-]c1=Cn1c([O-])c(C=CC=Cc2ccccc2)[n-]c1=O (3D coordinates assigned)
C=c1[nH]c(=O)[n-]c1=Cn1c([O-])c(C=CC=Cc2ccccc2)[n-]c1=O (optimized conformer: 123.84551731552646 kcal/mol)

>  <smiles>  (1010) 
C=c1[nH]c(=O)[nH]c1=Cn1c(O)c(C=CC=Cc2ccccc2)[nH]c1=O

>  <score_type>  (1010) 
oracle

>  <origin>  (1010) 
adg

>  <m_score__min__energy>  (1010) 
-15.31

>  <m_primary>  (1010) 
energy

$$$$
33:0
     RDKit          3D

 31 33  0  0  0  0  0  0  0  0999 V2000
   60.7320   29.0570   45.3650 O   0  0  0  0  0  0  0  0  0  0  0  0
   60.3630   29.8530   46.2700 C   0  0  0  0  0  0  0  0  0  0  0  0
   61.3830   30.6260   47.0390 C   0  0  0  0  0  0  0  0  0  0  0  0
   60.7000   31.4060   48.0690 N   0  0  0  0  0  0  0  0  0  0  0  0
   60.3590   30.4190   49.4580 S   0  0  0  0  0  0  0  0  0  0  0  0
   59.2140   29.5000   49.1440 O   0  0  0  0  0  0  0  0  0  0  0  0
   61.5740   29.5950   49.7890 O   0  0  0  0  0  0  0  0  0  0  0  0
   59.9140   31.4400   50.8310 C   0  0  0  0  0  0  0  0  0  0  0  0
   60.2360   31.0300   52.1340 C   0  0  0  0  0  0  0  0  0  0  0  0
   59.9050   31.8300   53.2280 C   0  0  0  0  0  0  0  0  0  0  0  0
   59.2470   33.0450   53.0310 C   0  0  0  0  0  0  0  0  0  0  0  0
   58.9180   33.4630   51.7390 C   0  0  0  0  0  0  0  0  0  0  0  0
   59.2440   32.6630   50.6250 C   0  0  0  0  0  0  0  0  0  0  0  0
   58.9260   33.0490   49.3100 O   0  0  0  0  0  0  0  0  0  0  0  0
   59.5710   34.0860   48.5700 C   0  0  0  0  0  0  0  0  0  0  0  0
   59.0930   34.0990   47.1410 C   0  0  0  0  0  0  0  0  0  0  0  0
   59.6900   34.9760   46.2180 C   0  0  0  0  0  0  0  0  0  0  0  0
   59.2390   35.0250   44.8970 C   0  0  0  0  0  0  0  0  0  0  0  0
   58.1860   34.2040   44.4860 C   0  0  0  0  0  0  0  0  0  0  0  0
   57.5800   33.3350   45.3960 C   0  0  0  0  0  0  0  0  0  0  0  0
   58.0230   33.2840   46.7210 C   0  0  0  0  0  0  0  0  0  0  0  0
   57.4070   32.4440   47.5910 F   0  0  0  0  0  0  0  0  0  0  0  0
   58.9700   30.0160   46.5770 N   0  0  0  0  0  0  0  0  0  0  0  0
   57.9640   29.0170   46.3200 C   0  0  0  0  0  0  0  0  0  0  0  0
   58.0130   27.7550   46.9380 C   0  0  0  0  0  0  0  0  0  0  0  0
   57.0030   26.8200   46.7050 C   0  0  0  0  0  0  0  0  0  0  0  0
   55.9420   27.1540   45.8640 C   0  0  0  0  0  0  0  0  0  0  0  0
   54.9290   26.2350   45.6210 O   0  0  0  0  0  0  0  0  0  0  0  0
   55.8940   28.3830   45.2850 N   0  0  0  0  0  0  0  0  0  0  0  0
   56.8630   29.3150   45.4950 C   0  0  0  0  0  0  0  0  0  0  0  0
   56.7650   30.4420   44.9390 O   0  0  0  0  0  0  0  0  0  0  0  0
  1  2  2  0
  2  3  1  0
  3  4  1  0
  4  5  1  0
  5  6  2  0
  5  7  2  0
  5  8  1  0
  8  9  2  0
  9 10  1  0
 10 11  2  0
 11 12  1  0
 12 13  2  0
 13 14  1  0
 14 15  1  0
 15 16  1  0
 16 17  2  0
 17 18  1  0
 18 19  2  0
 19 20  1  0
 20 21  2  0
 21 22  1  0
  2 23  1  0
 23 24  1  0
 24 25  2  0
 25 26  1  0
 26 27  2  0
 27 28  1  0
 27 29  1  0
 29 30  1  0
 30 31  2  0
 13  8  1  0
 21 16  1  0
 30 24  1  0
M  CHG  3   4  -1  28  -1  29  -1
M  END
>  <UniqueID>  (1011) 
33

>  <SMILES>  (1011) 
O=C(C[N-]S(=O)(=O)c1ccccc1OCc1ccccc1F)Nc1ccc([O-])[n-]c1=O

>  <Energy>  (1011) 
49.68636010600881

>  <Genealogy>  (1011) 
O=C(C[N-]S(=O)(=O)c1ccccc1OCc1ccccc1F)Nc1ccc([O-])[n-]c1=O (protonated)
O=C(C[N-]S(=O)(=O)c1ccccc1OCc1ccccc1F)Nc1ccc([O-])[n-]c1=O (3D coordinates assigned)
O=C(C[N-]S(=O)(=O)c1ccccc1OCc1ccccc1F)Nc1ccc([O-])[n-]c1=O (optimized conformer: 49.68636010600881 kcal/mol)

>  <smiles>  (1011) 
O=C(CNS(=O)(=O)c1ccccc1OCc1ccccc1F)Nc1ccc(O)[nH]c1=O

>  <score_type>  (1011) 
oracle

>  <origin>  (1011) 
adg

>  <m_score__min__energy>  (1011) 
-14.699999999999999

>  <m_primary>  (1011) 
energy

$$$$
35:0
     RDKit          3D

 19 20  0  0  0  0  0  0  0  0999 V2000
   54.9370   30.4820   51.2480 O   0  0  0  0  0  0  0  0  0  0  0  0
   54.1790   30.3020   52.2380 C   0  0  0  0  0  0  0  0  0  0  0  0
   53.0100   31.2060   52.4560 C   0  0  0  0  0  0  0  0  0  0  0  0
   52.2320   31.3180   51.1830 C   0  0  0  0  0  0  0  0  0  0  0  0
   52.2200   30.3760   50.2220 N   0  0  0  0  0  0  0  0  0  0  0  0
   51.3090   30.8450   49.3410 C   0  0  0  0  0  0  0  0  0  0  0  0
   51.0140   30.2330   48.2820 O   0  0  0  0  0  0  0  0  0  0  0  0
   50.7310   32.0150   49.6880 N   0  0  0  0  0  0  0  0  0  0  0  0
   51.3220   32.2960   50.8600 C   0  0  0  0  0  0  0  0  0  0  0  0
   51.0240   33.4140   51.6280 O   0  0  0  0  0  0  0  0  0  0  0  0
   54.3690   29.1790   53.1040 N   0  0  0  0  0  0  0  0  0  0  0  0
   53.3300   28.6760   53.9940 C   0  0  0  0  0  0  0  0  0  0  0  0
   52.4740   27.6730   53.2660 C   0  0  0  0  0  0  0  0  0  0  0  0
   51.2870   28.0720   52.6290 C   0  0  0  0  0  0  0  0  0  0  0  0
   50.4790   27.1270   51.9900 C   0  0  0  0  0  0  0  0  0  0  0  0
   50.8480   25.7780   51.9850 C   0  0  0  0  0  0  0  0  0  0  0  0
   52.0280   25.3730   52.6150 C   0  0  0  0  0  0  0  0  0  0  0  0
   52.5210   23.5270   52.6260 Br  0  0  0  0  0  0  0  0  0  0  0  0
   52.8430   26.3170   53.2480 C   0  0  0  0  0  0  0  0  0  0  0  0
  1  2  2  0
  2  3  1  0
  3  4  1  0
  4  5  1  0
  5  6  1  0
  6  7  2  0
  6  8  1  0
  8  9  1  0
  9 10  1  0
  2 11  1  0
 11 12  1  0
 12 13  1  0
 13 14  2  0
 14 15  1  0
 15 16  2  0
 16 17  1  0
 17 18  1  0
 17 19  2  0
  9  4  2  0
 19 13  1  0
M  CHG  4   5  -1   8  -1  10  -1  11  -1
M  END
>  <UniqueID>  (1012) 
35

>  <SMILES>  (1012) 
O=C(Cc1[n-]c(=O)[n-]c1[O-])[N-]Cc1cccc(Br)c1

>  <Energy>  (1012) 
50.727546683951005

>  <Genealogy>  (1012) 
O=C(Cc1[n-]c(=O)[n-]c1[O-])[N-]Cc1cccc(Br)c1 (protonated)
O=C(Cc1[n-]c(=O)[n-]c1[O-])[N-]Cc1cccc(Br)c1 (3D coordinates assigned)
O=C(Cc1[n-]c(=O)[n-]c1[O-])[N-]Cc1cccc(Br)c1 (optimized conformer: 50.727546683951005 kcal/mol)

>  <smiles>  (1012) 
O=C(Cc1[nH]c(=O)[nH]c1O)NCc1cccc(Br)c1

>  <score_type>  (1012) 
oracle

>  <origin>  (1012) 
adg

>  <m_score__min__energy>  (1012) 
-16.66

>  <m_primary>  (1012) 
energy

$$$$
61:0
     RDKit          3D

 39 42  0  0  0  0  0  0  0  0999 V2000
   56.0960   20.8070   43.9130 N   0  0  0  0  0  0  0  0  0  0  0  0
   56.2740   22.1310   43.4150 C   0  0  0  0  0  0  0  0  0  0  0  0
   55.8040   22.4330   42.2860 O   0  0  0  0  0  0  0  0  0  0  0  0
   57.0030   23.1280   44.2250 C   0  0  0  0  0  0  0  0  0  0  0  0
   56.6860   24.4730   44.2970 C   0  0  0  0  0  0  0  0  0  0  0  0
   57.6370   24.9920   45.1640 C   0  0  0  0  0  0  0  0  0  0  0  0
   57.7380   26.2260   45.5650 N   0  0  0  0  0  0  0  0  0  0  0  0
   56.6770   27.1930   45.5950 C   0  0  0  0  0  0  0  0  0  0  0  0
   55.5440   26.8300   46.0080 O   0  0  0  0  0  0  0  0  0  0  0  0
   56.8980   28.6130   45.2270 C   0  0  0  0  0  0  0  0  0  0  0  0
   55.8740   29.3820   44.6520 C   0  0  0  0  0  0  0  0  0  0  0  0
   56.0950   30.6820   44.3200 N   0  0  0  0  0  0  0  0  0  0  0  0
   57.2980   31.2890   44.5110 C   0  0  0  0  0  0  0  0  0  0  0  0
   57.4170   32.5440   44.1790 N   0  0  0  0  0  0  0  0  0  0  0  0
   57.8270   33.6260   45.0300 C   0  0  0  0  0  0  0  0  0  0  0  0
   57.5270   34.8020   44.6940 O   0  0  0  0  0  0  0  0  0  0  0  0
   58.6580   33.3970   46.2400 C   0  0  0  0  0  0  0  0  0  0  0  0
   58.0670   33.0150   47.4510 C   0  0  0  0  0  0  0  0  0  0  0  0
   58.8510   32.7850   48.5770 C   0  0  0  0  0  0  0  0  0  0  0  0
   60.2510   32.9120   48.5250 C   0  0  0  0  0  0  0  0  0  0  0  0
   61.0270   32.6230   49.7990 C   0  0  0  0  0  0  0  0  0  0  0  0
   61.2330   31.1690   49.9820 N   0  0  0  0  0  0  0  0  0  0  0  0
   60.0010   30.5120   50.4850 C   0  0  0  0  0  0  0  0  0  0  0  0
   60.0360   28.9960   50.2430 C   0  0  0  0  0  0  0  0  0  0  0  0
   60.1460   28.6580   48.8010 N   0  0  0  0  0  0  0  0  0  0  0  0
   58.8530   28.2210   48.2530 C   0  0  0  0  0  0  0  0  0  0  0  0
   60.7130   29.7500   47.9780 C   0  0  0  0  0  0  0  0  0  0  0  0
   61.7790   30.5340   48.7550 C   0  0  0  0  0  0  0  0  0  0  0  0
   60.8660   33.3260   47.3100 C   0  0  0  0  0  0  0  0  0  0  0  0
   62.3650   33.5390   47.2000 C   0  0  0  0  0  0  0  0  0  0  0  0
   63.0100   32.3150   47.1620 F   0  0  0  0  0  0  0  0  0  0  0  0
   62.6530   34.2490   46.0500 F   0  0  0  0  0  0  0  0  0  0  0  0
   62.8700   34.2480   48.2750 F   0  0  0  0  0  0  0  0  0  0  0  0
   60.0520   33.5470   46.1780 C   0  0  0  0  0  0  0  0  0  0  0  0
   58.3530   30.5500   45.0840 C   0  0  0  0  0  0  0  0  0  0  0  0
   58.1490   29.2130   45.4300 C   0  0  0  0  0  0  0  0  0  0  0  0
   58.4620   24.0210   45.5950 N   0  0  0  0  0  0  0  0  0  0  0  0
   58.0780   22.8930   45.0170 N   0  0  0  0  0  0  0  0  0  0  0  0
   58.7500   21.6170   45.2450 C   0  0  0  0  0  0  0  0  0  0  0  0
  1  2  1  0
  2  3  2  0
  2  4  1  0
  4  5  2  0
  5  6  1  0
  6  7  2  3
  7  8  1  0
  8  9  2  0
  8 10  1  0
 10 11  2  0
 11 12  1  0
 12 13  1  0
 13 14  2  0
 14 15  1  0
 15 16  2  0
 15 17  1  0
 17 18  2  0
 18 19  1  0
 19 20  2  0
 20 21  1  0
 21 22  1  0
 22 23  1  0
 23 24  1  0
 24 25  1  0
 25 26  1  0
 25 27  1  0
 27 28  1  0
 20 29  1  0
 29 30  1  0
 30 31  1  0
 30 32  1  0
 30 33  1  0
 29 34  2  0
 13 35  1  0
 35 36  2  0
  6 37  1  0
 37 38  1  0
 38 39  1  0
 38  4  1  0
 36 10  1  0
 34 17  1  0
 28 22  1  0
M  CHG  3   1  -1  12  -1  37  -1
M  END
>  <UniqueID>  (1013) 
60

>  <SMILES>  (1013) 
CN1CCN(Cc2ccc(C(=O)/N=c3\ccc(C(=O)N=c4cc(C([NH-])=O)n(C)[n-]4)c[n-]3)cc2C(F)(F)F)CC1

>  <Energy>  (1013) 
132.52077877963544

>  <Genealogy>  (1013) 
CN1CCN(Cc2ccc(C(=O)N=c3ccc(C(=O)N=c4cc(C([NH-])=O)n(C)[n-]4)c[n-]3)cc2C(F)(F)F)CC1 (protonated)
CN1CCN(Cc2ccc(C(=O)/N=c3\ccc(C(=O)N=c4cc(C([NH-])=O)n(C)[n-]4)c[n-]3)cc2C(F)(F)F)CC1 (cis-trans isomerization)
CN1CCN(Cc2ccc(C(=O)/N=c3\ccc(C(=O)N=c4cc(C([NH-])=O)n(C)[n-]4)c[n-]3)cc2C(F)(F)F)CC1 (3D coordinates assigned)
CN1CCN(Cc2ccc(C(=O)/N=c3\ccc(C(=O)N=c4cc(C([NH-])=O)n(C)[n-]4)c[n-]3)cc2C(F)(F)F)CC1 (nonaromatic ring conformer: 132.52077877963544 kcal/mol)

>  <smiles>  (1013) 
CN1CCN(Cc2ccc(C(=O)N=c3ccc(C(=O)N=c4cc(C(N)=O)n(C)[nH]4)c[nH]3)cc2C(F)(F)F)CC1

>  <score_type>  (1013) 
oracle

>  <origin>  (1013) 
adg

>  <m_score__min__energy>  (1013) 
-15.51

>  <m_primary>  (1013) 
energy

$$$$
63:0
     RDKit          3D

 24 26  0  0  0  0  0  0  0  0999 V2000
   51.0620   32.2800   52.1530 C   0  0  0  0  0  0  0  0  0  0  0  0
   51.5560   32.1310   50.8770 C   0  0  0  0  0  0  0  0  0  0  0  0
   51.0100   32.7230   49.7460 O   0  0  0  0  0  0  0  0  0  0  0  0
   52.6430   31.3380   50.8430 N   0  0  0  0  0  0  0  0  0  0  0  0
   52.8410   30.9700   52.1260 C   0  0  0  0  0  0  0  0  0  0  0  0
   53.9560   30.1110   52.5660 C   0  0  0  0  0  0  0  0  0  0  0  0
   53.8070   28.8610   52.5800 O   0  0  0  0  0  0  0  0  0  0  0  0
   55.1820   30.6680   53.0610 N   0  0  0  0  0  0  0  0  0  0  0  0
   56.2720   30.8330   52.3710 C   0  0  0  0  0  0  0  0  0  0  0  0
   56.8620   29.8190   51.7060 N   0  0  0  0  0  0  0  0  0  0  0  0
   57.9430   30.1980   51.0250 N   0  0  0  0  0  0  0  0  0  0  0  0
   58.2150   31.5180   51.1360 C   0  0  0  0  0  0  0  0  0  0  0  0
   59.3490   32.1780   50.4730 C   0  0  0  0  0  0  0  0  0  0  0  0
   59.7540   33.2900   50.9060 O   0  0  0  0  0  0  0  0  0  0  0  0
   60.0110   31.5470   49.3640 N   0  0  0  0  0  0  0  0  0  0  0  0
   60.9960   32.2080   48.5510 C   0  0  0  0  0  0  0  0  0  0  0  0
   62.3650   31.9470   48.7460 C   0  0  0  0  0  0  0  0  0  0  0  0
   63.3310   32.6120   47.9870 C   0  0  0  0  0  0  0  0  0  0  0  0
   62.9440   33.5540   47.0350 C   0  0  0  0  0  0  0  0  0  0  0  0
   61.5910   33.8370   46.8380 C   0  0  0  0  0  0  0  0  0  0  0  0
   60.6070   33.1680   47.5850 C   0  0  0  0  0  0  0  0  0  0  0  0
   59.1560   33.4930   47.3550 C   0  0  0  0  0  0  0  0  0  0  0  0
   57.0820   32.2950   52.1150 S   0  0  0  0  0  0  0  0  0  0  0  0
   51.8930   31.5370   52.9610 C   0  0  0  0  0  0  0  0  0  0  0  0
  1  2  2  0
  2  3  1  0
  2  4  1  0
  4  5  1  0
  5  6  1  0
  6  7  2  0
  6  8  1  0
  8  9  2  0
  9 10  1  0
 10 11  1  0
 11 12  2  0
 12 13  1  0
 13 14  2  0
 13 15  1  0
 15 16  1  0
 16 17  2  0
 17 18  1  0
 18 19  2  0
 19 20  1  0
 20 21  2  0
 21 22  1  0
 12 23  1  0
  5 24  2  0
 24  1  1  0
 23  9  1  0
 21 16  1  0
M  CHG  3   3  -1   4  -1  10  -1
M  END
>  <UniqueID>  (1014) 
62

>  <SMILES>  (1014) 
Cc1ccccc1NC(=O)c1n[n-]/c(=N/C(=O)c2ccc([O-])[n-]2)s1

>  <Energy>  (1014) 
105.88858806692247

>  <Genealogy>  (1014) 
Cc1ccccc1NC(=O)c1n[n-]c(=NC(=O)c2ccc([O-])[n-]2)s1 (protonated)
Cc1ccccc1NC(=O)c1n[n-]/c(=N/C(=O)c2ccc([O-])[n-]2)s1 (cis-trans isomerization)
Cc1ccccc1NC(=O)c1n[n-]/c(=N/C(=O)c2ccc([O-])[n-]2)s1 (3D coordinates assigned)
Cc1ccccc1NC(=O)c1n[n-]/c(=N/C(=O)c2ccc([O-])[n-]2)s1 (optimized conformer: 105.88858806692247 kcal/mol)

>  <smiles>  (1014) 
Cc1ccccc1NC(=O)c1n[nH]c(=NC(=O)c2ccc(O)[nH]2)s1

>  <score_type>  (1014) 
oracle

>  <origin>  (1014) 
adg

>  <m_score__min__energy>  (1014) 
-15.23

>  <m_primary>  (1014) 
energy

$$$$
67:0
     RDKit          3D

 27 29  0  0  0  0  0  0  0  0999 V2000
   58.0610   26.8700   43.3750 C   0  0  0  0  0  0  0  0  0  0  0  0
   58.1750   26.8790   44.7140 C   0  0  0  0  0  0  0  0  0  0  0  0
   57.6570   25.9220   45.6050 C   0  0  0  0  0  0  0  0  0  0  0  0
   57.0920   24.7170   45.3860 C   0  0  0  0  0  0  0  0  0  0  0  0
   55.6420   24.4470   45.3090 C   0  0  0  0  0  0  0  0  0  0  0  0
   54.6970   25.4430   45.6130 C   0  0  0  0  0  0  0  0  0  0  0  0
   55.1030   26.7040   46.0330 O   0  0  0  0  0  0  0  0  0  0  0  0
   53.3710   25.1760   45.4920 N   0  0  0  0  0  0  0  0  0  0  0  0
   52.9360   23.9640   45.0630 C   0  0  0  0  0  0  0  0  0  0  0  0
   51.7020   23.7390   44.9610 O   0  0  0  0  0  0  0  0  0  0  0  0
   53.8310   22.9960   44.7350 N   0  0  0  0  0  0  0  0  0  0  0  0
   55.1680   23.2130   44.8400 C   0  0  0  0  0  0  0  0  0  0  0  0
   55.9710   22.2940   44.5220 O   0  0  0  0  0  0  0  0  0  0  0  0
   57.8670   26.4230   46.8770 C   0  0  0  0  0  0  0  0  0  0  0  0
   58.5420   27.6160   46.7330 C   0  0  0  0  0  0  0  0  0  0  0  0
   59.0360   28.4470   47.8790 C   0  0  0  0  0  0  0  0  0  0  0  0
   58.7370   27.8980   45.4230 N   0  0  0  0  0  0  0  0  0  0  0  0
   59.4840   29.0610   44.9130 C   0  0  0  0  0  0  0  0  0  0  0  0
   58.6310   30.3020   44.9720 C   0  0  0  0  0  0  0  0  0  0  0  0
   57.4600   30.3950   44.2030 C   0  0  0  0  0  0  0  0  0  0  0  0
   56.6620   31.5390   44.2730 C   0  0  0  0  0  0  0  0  0  0  0  0
   57.0220   32.5980   45.1080 C   0  0  0  0  0  0  0  0  0  0  0  0
   58.1920   32.5250   45.8850 C   0  0  0  0  0  0  0  0  0  0  0  0
   58.5760   33.6430   46.7750 C   0  0  0  0  0  0  0  0  0  0  0  0
   58.5870   33.4920   48.0260 O   0  0  0  0  0  0  0  0  0  0  0  0
   58.9350   34.8760   46.2420 O   0  0  0  0  0  0  0  0  0  0  0  0
   58.9920   31.3720   45.8070 C   0  0  0  0  0  0  0  0  0  0  0  0
  1  2  2  0
  2  3  1  0
  3  4  2  0
  4  5  1  0
  5  6  2  0
  6  7  1  0
  6  8  1  0
  8  9  1  0
  9 10  2  0
  9 11  1  0
 11 12  1  0
 12 13  2  0
  3 14  1  0
 14 15  2  0
 15 16  1  0
 15 17  1  0
 17 18  1  0
 18 19  1  0
 19 20  2  0
 20 21  1  0
 21 22  2  0
 22 23  1  0
 23 24  1  0
 24 25  2  0
 24 26  1  0
 23 27  2  0
 17  2  1  0
 27 19  1  0
 12  5  1  0
M  CHG  4   7  -1   8  -1  11  -1  26  -1
M  END
>  <UniqueID>  (1015) 
66

>  <SMILES>  (1015) 
C=c1/c(=C\c2c([O-])[n-]c(=O)[n-]c2=O)cc(C)n1Cc1cccc(C(=O)[O-])c1

>  <Energy>  (1015) 
85.83132885805435

>  <Genealogy>  (1015) 
C=c1c(=Cc2c([O-])[n-]c(=O)[n-]c2=O)cc(C)n1Cc1cccc(C(=O)[O-])c1 (protonated)
C=c1/c(=C\c2c([O-])[n-]c(=O)[n-]c2=O)cc(C)n1Cc1cccc(C(=O)[O-])c1 (cis-trans isomerization)
C=c1/c(=C\c2c([O-])[n-]c(=O)[n-]c2=O)cc(C)n1Cc1cccc(C(=O)[O-])c1 (3D coordinates assigned)
C=c1/c(=C\c2c([O-])[n-]c(=O)[n-]c2=O)cc(C)n1Cc1cccc(C(=O)[O-])c1 (optimized conformer: 85.83132885805435 kcal/mol)

>  <smiles>  (1015) 
C=c1c(=Cc2c(O)[nH]c(=O)[nH]c2=O)cc(C)n1Cc1cccc(C(=O)O)c1

>  <score_type>  (1015) 
oracle

>  <origin>  (1015) 
adg

>  <m_score__min__energy>  (1015) 
-16.469999999999999

>  <m_primary>  (1015) 
energy

$$$$
76:0
     RDKit          3D

 23 24  0  0  0  0  0  0  0  0999 V2000
   56.1310   24.1230   44.5710 C   0  0  0  0  0  0  0  0  0  0  0  0
   55.2760   24.7420   46.0040 S   0  0  0  0  0  0  0  0  0  0  0  0
   55.8550   24.1500   47.2580 O   0  0  0  0  0  0  0  0  0  0  0  0
   53.8290   24.3480   45.9080 O   0  0  0  0  0  0  0  0  0  0  0  0
   55.3780   26.4730   46.0600 N   0  0  0  0  0  0  0  0  0  0  0  0
   56.5550   27.2550   45.8140 C   0  0  0  0  0  0  0  0  0  0  0  0
   57.8400   26.8010   46.1620 C   0  0  0  0  0  0  0  0  0  0  0  0
   58.9600   27.5920   45.9050 C   0  0  0  0  0  0  0  0  0  0  0  0
   58.8150   28.8420   45.3010 C   0  0  0  0  0  0  0  0  0  0  0  0
   57.5430   29.3130   44.9500 C   0  0  0  0  0  0  0  0  0  0  0  0
   57.3590   30.8930   44.1880 S   0  0  0  0  0  0  0  0  0  0  0  0
   56.2160   30.8350   43.2130 O   0  0  0  0  0  0  0  0  0  0  0  0
   58.6330   31.2410   43.4720 O   0  0  0  0  0  0  0  0  0  0  0  0
   57.0270   32.1010   45.3880 N   0  0  0  0  0  0  0  0  0  0  0  0
   57.9110   33.1680   45.7570 C   0  0  0  0  0  0  0  0  0  0  0  0
   58.3920   34.0980   44.8140 C   0  0  0  0  0  0  0  0  0  0  0  0
   59.2530   35.1250   45.2130 C   0  0  0  0  0  0  0  0  0  0  0  0
   59.6410   35.2340   46.5500 C   0  0  0  0  0  0  0  0  0  0  0  0
   59.1690   34.3170   47.4920 C   0  0  0  0  0  0  0  0  0  0  0  0
   58.3070   33.2870   47.0990 C   0  0  0  0  0  0  0  0  0  0  0  0
   57.8450   32.3810   48.0460 O   0  0  0  0  0  0  0  0  0  0  0  0
   56.4130   28.5150   45.2090 C   0  0  0  0  0  0  0  0  0  0  0  0
   55.1440   28.9700   44.8650 O   0  0  0  0  0  0  0  0  0  0  0  0
  1  2  1  0
  2  3  2  0
  2  4  2  0
  2  5  1  0
  5  6  1  0
  6  7  2  0
  7  8  1  0
  8  9  2  0
  9 10  1  0
 10 11  1  0
 11 12  2  0
 11 13  2  0
 11 14  1  0
 14 15  1  0
 15 16  2  0
 16 17  1  0
 17 18  2  0
 18 19  1  0
 19 20  2  0
 20 21  1  0
 10 22  2  0
 22 23  1  0
 22  6  1  0
 20 15  1  0
M  CHG  4   5  -1  14  -1  21  -1  23  -1
M  END
>  <UniqueID>  (1016) 
74

>  <SMILES>  (1016) 
CS(=O)(=O)[N-]c1cccc(S(=O)(=O)[N-]c2ccccc2[O-])c1[O-]

>  <Energy>  (1016) 
38.36163122340165

>  <Genealogy>  (1016) 
CS(=O)(=O)[N-]c1cccc(S(=O)(=O)[N-]c2ccccc2[O-])c1[O-] (protonated)
CS(=O)(=O)[N-]c1cccc(S(=O)(=O)[N-]c2ccccc2[O-])c1[O-] (3D coordinates assigned)
CS(=O)(=O)[N-]c1cccc(S(=O)(=O)[N-]c2ccccc2[O-])c1[O-] (optimized conformer: 38.36163122340165 kcal/mol)

>  <smiles>  (1016) 
CS(=O)(=O)Nc1cccc(S(=O)(=O)Nc2ccccc2O)c1O

>  <score_type>  (1016) 
oracle

>  <origin>  (1016) 
adg

>  <m_score__min__energy>  (1016) 
-17.440000000000001

>  <m_primary>  (1016) 
energy

$$$$
83:0
     RDKit          3D

 25 26  0  0  0  0  0  0  0  0999 V2000
   63.4280   33.4880   46.7310 C   0  0  0  0  0  0  0  0  0  0  0  0
   62.8100   33.8270   48.0540 C   0  0  0  0  0  0  0  0  0  0  0  0
   63.5210   33.7670   49.0910 O   0  0  0  0  0  0  0  0  0  0  0  0
   61.4260   34.1790   48.1820 N   0  0  0  0  0  0  0  0  0  0  0  0
   60.3630   33.8150   47.2900 C   0  0  0  0  0  0  0  0  0  0  0  0
   59.5020   34.8140   46.8220 C   0  0  0  0  0  0  0  0  0  0  0  0
   58.4710   34.4990   45.9350 C   0  0  0  0  0  0  0  0  0  0  0  0
   58.3050   33.1860   45.4910 C   0  0  0  0  0  0  0  0  0  0  0  0
   59.1760   32.1760   45.9200 C   0  0  0  0  0  0  0  0  0  0  0  0
   58.9760   30.8770   45.4280 O   0  0  0  0  0  0  0  0  0  0  0  0
   58.1640   30.5330   44.3050 C   0  0  0  0  0  0  0  0  0  0  0  0
   56.8200   30.0040   44.7360 C   0  0  0  0  0  0  0  0  0  0  0  0
   55.8130   30.7510   44.6200 O   0  0  0  0  0  0  0  0  0  0  0  0
   56.6540   28.7130   45.3460 N   0  0  0  0  0  0  0  0  0  0  0  0
   57.3970   27.6550   45.1960 C   0  0  0  0  0  0  0  0  0  0  0  0
   57.1890   26.3850   45.9250 C   0  0  0  0  0  0  0  0  0  0  0  0
   55.9050   25.9600   46.3050 C   0  0  0  0  0  0  0  0  0  0  0  0
   54.7820   26.7150   45.9890 O   0  0  0  0  0  0  0  0  0  0  0  0
   55.7520   24.8020   46.9990 N   0  0  0  0  0  0  0  0  0  0  0  0
   56.8260   24.0510   47.3540 C   0  0  0  0  0  0  0  0  0  0  0  0
   56.6110   22.6630   48.1840 S   0  0  0  0  0  0  0  0  0  0  0  0
   58.0790   24.4600   47.0290 N   0  0  0  0  0  0  0  0  0  0  0  0
   58.2850   25.6080   46.3350 C   0  0  0  0  0  0  0  0  0  0  0  0
   59.4620   25.9620   46.0560 O   0  0  0  0  0  0  0  0  0  0  0  0
   60.2130   32.4990   46.8170 C   0  0  0  0  0  0  0  0  0  0  0  0
  1  2  1  0
  2  3  2  0
  2  4  1  0
  4  5  1  0
  5  6  2  0
  6  7  1  0
  7  8  2  0
  8  9  1  0
  9 10  1  0
 10 11  1  0
 11 12  1  0
 12 13  2  0
 12 14  1  0
 14 15  2  3
 15 16  1  0
 16 17  2  0
 17 18  1  0
 17 19  1  0
 19 20  1  0
 20 21  2  0
 20 22  1  0
 22 23  1  0
 23 24  2  0
  9 25  2  0
 25  5  1  0
 23 16  1  0
M  CHG  4   4  -1  18  -1  19  -1  22  -1
M  END
>  <UniqueID>  (1017) 
80

>  <SMILES>  (1017) 
CC(=O)[N-]c1cccc(OCC(=O)N=Cc2c([O-])[n-]c(=S)[n-]c2=O)c1

>  <Energy>  (1017) 
51.50588926193572

>  <Genealogy>  (1017) 
CC(=O)[N-]c1cccc(OCC(=O)N=Cc2c([O-])[n-]c(=S)[n-]c2=O)c1 (protonated)
CC(=O)[N-]c1cccc(OCC(=O)N=Cc2c([O-])[n-]c(=S)[n-]c2=O)c1 (3D coordinates assigned)
CC(=O)[N-]c1cccc(OCC(=O)N=Cc2c([O-])[n-]c(=S)[n-]c2=O)c1 (optimized conformer: 51.50588926193572 kcal/mol)

>  <smiles>  (1017) 
CC(=O)Nc1cccc(OCC(=O)N=Cc2c(O)[nH]c(=S)[nH]c2=O)c1

>  <score_type>  (1017) 
oracle

>  <origin>  (1017) 
adg

>  <m_score__min__energy>  (1017) 
-16.199999999999999

>  <m_primary>  (1017) 
energy

$$$$
9:0
     RDKit          3D

 27 29  0  0  0  0  0  0  0  0999 V2000
   58.7880   26.4920   47.4900 C   0  0  0  0  0  0  0  0  0  0  0  0
   58.3750   26.3350   46.2210 C   0  0  0  0  0  0  0  0  0  0  0  0
   57.3690   25.4620   45.7920 C   0  0  0  0  0  0  0  0  0  0  0  0
   56.6060   24.6510   46.5510 C   0  0  0  0  0  0  0  0  0  0  0  0
   55.3060   24.0990   46.1050 C   0  0  0  0  0  0  0  0  0  0  0  0
   54.2330   24.9600   45.8330 C   0  0  0  0  0  0  0  0  0  0  0  0
   54.3860   26.3390   45.9450 O   0  0  0  0  0  0  0  0  0  0  0  0
   53.0340   24.4530   45.4480 N   0  0  0  0  0  0  0  0  0  0  0  0
   52.8450   23.1130   45.3320 C   0  0  0  0  0  0  0  0  0  0  0  0
   51.7270   22.6660   44.9670 O   0  0  0  0  0  0  0  0  0  0  0  0
   53.8590   22.2570   45.6140 N   0  0  0  0  0  0  0  0  0  0  0  0
   55.0760   22.7140   46.0050 C   0  0  0  0  0  0  0  0  0  0  0  0
   55.9820   21.8870   46.2930 O   0  0  0  0  0  0  0  0  0  0  0  0
   57.2640   25.6300   44.4200 C   0  0  0  0  0  0  0  0  0  0  0  0
   58.2060   26.5720   44.0630 C   0  0  0  0  0  0  0  0  0  0  0  0
   58.3790   27.0970   42.6690 C   0  0  0  0  0  0  0  0  0  0  0  0
   58.8850   27.0070   45.1520 N   0  0  0  0  0  0  0  0  0  0  0  0
   59.9200   28.0550   45.1440 C   0  0  0  0  0  0  0  0  0  0  0  0
   59.2960   29.4180   45.3020 C   0  0  0  0  0  0  0  0  0  0  0  0
   59.8890   30.3810   46.1330 C   0  0  0  0  0  0  0  0  0  0  0  0
   59.3180   31.6480   46.2690 C   0  0  0  0  0  0  0  0  0  0  0  0
   58.1410   31.9780   45.5760 C   0  0  0  0  0  0  0  0  0  0  0  0
   57.5330   33.3190   45.7130 C   0  0  0  0  0  0  0  0  0  0  0  0
   56.6590   33.5400   46.5940 O   0  0  0  0  0  0  0  0  0  0  0  0
   57.9160   34.3580   44.8720 O   0  0  0  0  0  0  0  0  0  0  0  0
   57.5460   31.0120   44.7470 C   0  0  0  0  0  0  0  0  0  0  0  0
   58.1180   29.7440   44.6120 C   0  0  0  0  0  0  0  0  0  0  0  0
  1  2  2  0
  2  3  1  0
  3  4  2  3
  4  5  1  0
  5  6  2  0
  6  7  1  0
  6  8  1  0
  8  9  1  0
  9 10  2  0
  9 11  1  0
 11 12  1  0
 12 13  2  0
  3 14  1  0
 14 15  2  0
 15 16  1  0
 15 17  1  0
 17 18  1  0
 18 19  1  0
 19 20  2  0
 20 21  1  0
 21 22  2  0
 22 23  1  0
 23 24  2  0
 23 25  1  0
 22 26  1  0
 26 27  2  0
 17  2  1  0
 27 19  1  0
 12  5  1  0
M  CHG  4   7  -1   8  -1  11  -1  25  -1
M  END
>  <UniqueID>  (1018) 
10

>  <SMILES>  (1018) 
C=c1c(=Cc2c([O-])[n-]c(=O)[n-]c2=O)cc(C)n1Cc1ccc(C(=O)[O-])cc1

>  <Energy>  (1018) 
81.7729252595162

>  <Genealogy>  (1018) 
C=c1c(=Cc2c([O-])[n-]c(=O)[n-]c2=O)cc(C)n1Cc1ccc(C(=O)[O-])cc1 (protonated)
C=c1c(=Cc2c([O-])[n-]c(=O)[n-]c2=O)cc(C)n1Cc1ccc(C(=O)[O-])cc1 (3D coordinates assigned)
C=c1c(=Cc2c([O-])[n-]c(=O)[n-]c2=O)cc(C)n1Cc1ccc(C(=O)[O-])cc1 (optimized conformer: 81.7729252595162 kcal/mol)

>  <smiles>  (1018) 
C=c1c(=Cc2c(O)[nH]c(=O)[nH]c2=O)cc(C)n1Cc1ccc(C(=O)O)cc1

>  <score_type>  (1018) 
oracle

>  <origin>  (1018) 
adg

>  <m_score__min__energy>  (1018) 
-16.210000000000001

>  <m_primary>  (1018) 
energy

$$$$
11:0
     RDKit          3D

 27 30  0  0  0  0  0  0  0  0999 V2000
   58.4000   30.2130   44.4240 C   0  0  0  0  0  0  0  0  0  0  0  0
   58.5900   29.6510   45.6280 C   0  0  0  0  0  0  0  0  0  0  0  0
   58.1900   28.3690   46.0420 C   0  0  0  0  0  0  0  0  0  0  0  0
   57.6930   27.3270   45.3460 C   0  0  0  0  0  0  0  0  0  0  0  0
   57.1540   26.0860   45.9260 C   0  0  0  0  0  0  0  0  0  0  0  0
   57.9030   25.0660   46.3850 N   0  0  0  0  0  0  0  0  0  0  0  0
   56.9940   24.2400   46.9450 C   0  0  0  0  0  0  0  0  0  0  0  0
   57.3110   23.1450   47.4790 O   0  0  0  0  0  0  0  0  0  0  0  0
   55.7200   24.6840   46.8980 N   0  0  0  0  0  0  0  0  0  0  0  0
   55.8420   25.8600   46.2630 C   0  0  0  0  0  0  0  0  0  0  0  0
   54.7770   26.7140   46.0040 O   0  0  0  0  0  0  0  0  0  0  0  0
   58.4300   28.3100   47.4050 C   0  0  0  0  0  0  0  0  0  0  0  0
   59.0120   29.5080   47.7620 C   0  0  0  0  0  0  0  0  0  0  0  0
   59.4730   29.8560   49.1460 C   0  0  0  0  0  0  0  0  0  0  0  0
   59.1200   30.3170   46.6860 N   0  0  0  0  0  0  0  0  0  0  0  0
   59.6300   31.6620   46.7090 C   0  0  0  0  0  0  0  0  0  0  0  0
   58.7990   32.7400   46.3750 C   0  0  0  0  0  0  0  0  0  0  0  0
   59.2960   34.0430   46.4060 C   0  0  0  0  0  0  0  0  0  0  0  0
   60.6200   34.2810   46.7820 C   0  0  0  0  0  0  0  0  0  0  0  0
   61.4630   33.2140   47.1420 C   0  0  0  0  0  0  0  0  0  0  0  0
   62.8650   33.4770   47.5420 C   0  0  0  0  0  0  0  0  0  0  0  0
   63.5950   34.1980   46.8080 O   0  0  0  0  0  0  0  0  0  0  0  0
   63.4010   32.9380   48.7590 N   0  0  0  0  0  0  0  0  0  0  0  0
   64.8130   33.0900   49.0990 C   0  0  0  0  0  0  0  0  0  0  0  0
   65.0590   33.4620   50.5510 C   0  0  0  0  0  0  0  0  0  0  0  0
   65.3100   32.0390   50.0770 C   0  0  0  0  0  0  0  0  0  0  0  0
   60.9580   31.9020   47.0930 C   0  0  0  0  0  0  0  0  0  0  0  0
  1  2  2  0
  2  3  1  0
  3  4  2  3
  4  5  1  0
  5  6  1  0
  6  7  1  0
  7  8  2  0
  7  9  1  0
  9 10  1  0
 10 11  1  0
  3 12  1  0
 12 13  2  0
 13 14  1  0
 13 15  1  0
 15 16  1  0
 16 17  2  0
 17 18  1  0
 18 19  2  0
 19 20  1  0
 20 21  1  0
 21 22  2  0
 21 23  1  0
 23 24  1  0
 24 25  1  0
 25 26  1  0
 20 27  2  0
 15  2  1  0
 27 16  1  0
 10  5  2  0
 26 24  1  0
M  CHG  3   6  -1   9  -1  11  -1
M  END
>  <UniqueID>  (1019) 
12

>  <SMILES>  (1019) 
C=c1c(=Cc2[n-]c(=O)[n-]c2[O-])cc(C)n1-c1cccc(C(=O)NC2CC2)c1

>  <Energy>  (1019) 
386.96801750149433

>  <Genealogy>  (1019) 
C=c1c(=Cc2[n-]c(=O)[n-]c2[O-])cc(C)n1-c1cccc(C(=O)NC2CC2)c1 (protonated)
C=c1c(=Cc2[n-]c(=O)[n-]c2[O-])cc(C)n1-c1cccc(C(=O)NC2CC2)c1 (3D coordinates assigned)
C=c1c(=Cc2[n-]c(=O)[n-]c2[O-])cc(C)n1-c1cccc(C(=O)NC2CC2)c1 (nonaromatic ring conformer: 386.96801750149433 kcal/mol)

>  <smiles>  (1019) 
C=c1c(=Cc2[nH]c(=O)[nH]c2O)cc(C)n1-c1cccc(C(=O)NC2CC2)c1

>  <score_type>  (1019) 
oracle

>  <origin>  (1019) 
adg

>  <m_score__min__energy>  (1019) 
-16.210000000000001

>  <m_primary>  (1019) 
energy

$$$$
30:0
     RDKit          3D

 33 36  0  0  0  0  0  0  0  0999 V2000
   58.8660   28.1180   47.4140 C   0  0  0  0  0  0  0  0  0  0  0  0
   58.3660   28.2570   46.1770 C   0  0  0  0  0  0  0  0  0  0  0  0
   57.8360   27.2390   45.3780 C   0  0  0  0  0  0  0  0  0  0  0  0
   57.7800   25.9220   45.6590 C   0  0  0  0  0  0  0  0  0  0  0  0
   56.5460   25.1130   45.5390 C   0  0  0  0  0  0  0  0  0  0  0  0
   55.2900   25.7220   45.6880 C   0  0  0  0  0  0  0  0  0  0  0  0
   55.1910   27.0760   45.9840 O   0  0  0  0  0  0  0  0  0  0  0  0
   54.1580   24.9840   45.5520 N   0  0  0  0  0  0  0  0  0  0  0  0
   54.2140   23.6600   45.2590 C   0  0  0  0  0  0  0  0  0  0  0  0
   53.1520   22.9950   45.1450 O   0  0  0  0  0  0  0  0  0  0  0  0
   55.4160   23.0530   45.0840 N   0  0  0  0  0  0  0  0  0  0  0  0
   56.5780   23.7460   45.2060 C   0  0  0  0  0  0  0  0  0  0  0  0
   57.6720   23.1570   45.0020 O   0  0  0  0  0  0  0  0  0  0  0  0
   57.4030   27.8460   44.2070 C   0  0  0  0  0  0  0  0  0  0  0  0
   57.6840   29.1920   44.3320 C   0  0  0  0  0  0  0  0  0  0  0  0
   57.3780   30.2260   43.2910 C   0  0  0  0  0  0  0  0  0  0  0  0
   58.2620   29.4440   45.5280 N   0  0  0  0  0  0  0  0  0  0  0  0
   58.6970   30.7330   45.9960 C   0  0  0  0  0  0  0  0  0  0  0  0
   60.0440   30.9500   46.3170 C   0  0  0  0  0  0  0  0  0  0  0  0
   60.4680   32.2040   46.7650 C   0  0  0  0  0  0  0  0  0  0  0  0
   59.5500   33.2580   46.9060 C   0  0  0  0  0  0  0  0  0  0  0  0
   60.0090   34.5830   47.3880 C   0  0  0  0  0  0  0  0  0  0  0  0
   59.6190   35.6240   46.7970 O   0  0  0  0  0  0  0  0  0  0  0  0
   60.8490   34.7230   48.5430 N   0  0  0  0  0  0  0  0  0  0  0  0
   62.0000   33.9250   48.8540 C   0  0  0  0  0  0  0  0  0  0  0  0
   63.0340   33.8400   47.9120 C   0  0  0  0  0  0  0  0  0  0  0  0
   64.1710   33.0720   48.1770 C   0  0  0  0  0  0  0  0  0  0  0  0
   64.2760   32.3690   49.3800 C   0  0  0  0  0  0  0  0  0  0  0  0
   63.2370   32.4220   50.3130 C   0  0  0  0  0  0  0  0  0  0  0  0
   62.0960   33.1890   50.0520 C   0  0  0  0  0  0  0  0  0  0  0  0
   61.0770   33.1730   50.9480 F   0  0  0  0  0  0  0  0  0  0  0  0
   58.2040   33.0410   46.5610 C   0  0  0  0  0  0  0  0  0  0  0  0
   57.7810   31.7870   46.1130 C   0  0  0  0  0  0  0  0  0  0  0  0
  1  2  2  0
  2  3  1  0
  3  4  2  3
  4  5  1  0
  5  6  2  0
  6  7  1  0
  6  8  1  0
  8  9  1  0
  9 10  2  0
  9 11  1  0
 11 12  1  0
 12 13  2  0
  3 14  1  0
 14 15  2  0
 15 16  1  0
 15 17  1  0
 17 18  1  0
 18 19  2  0
 19 20  1  0
 20 21  2  0
 21 22  1  0
 22 23  2  0
 22 24  1  0
 24 25  1  0
 25 26  2  0
 26 27  1  0
 27 28  2  0
 28 29  1  0
 29 30  2  0
 30 31  1  0
 21 32  1  0
 32 33  2  0
 17  2  1  0
 33 18  1  0
 12  5  1  0
 30 25  1  0
M  CHG  4   7  -1   8  -1  11  -1  24  -1
M  END
>  <UniqueID>  (1020) 
30

>  <SMILES>  (1020) 
C=c1c(=Cc2c([O-])[n-]c(=O)[n-]c2=O)cc(C)n1-c1ccc(C(=O)[N-]c2ccccc2F)cc1

>  <Energy>  (1020) 
106.04466586837633

>  <Genealogy>  (1020) 
C=c1c(=Cc2c([O-])[n-]c(=O)[n-]c2=O)cc(C)n1-c1ccc(C(=O)[N-]c2ccccc2F)cc1 (protonated)
C=c1c(=Cc2c([O-])[n-]c(=O)[n-]c2=O)cc(C)n1-c1ccc(C(=O)[N-]c2ccccc2F)cc1 (3D coordinates assigned)
C=c1c(=Cc2c([O-])[n-]c(=O)[n-]c2=O)cc(C)n1-c1ccc(C(=O)[N-]c2ccccc2F)cc1 (optimized conformer: 106.04466586837633 kcal/mol)

>  <smiles>  (1020) 
C=c1c(=Cc2c(O)[nH]c(=O)[nH]c2=O)cc(C)n1-c1ccc(C(=O)Nc2ccccc2F)cc1

>  <score_type>  (1020) 
oracle

>  <origin>  (1020) 
adg

>  <m_score__min__energy>  (1020) 
-17.390000000000001

>  <m_primary>  (1020) 
energy

$$$$
52:0
     RDKit          3D

 30 33  0  0  0  0  0  0  0  0999 V2000
   57.5510   32.3340   42.6820 O   0  0  0  0  0  0  0  0  0  0  0  0
   57.3460   32.1650   43.9130 C   0  0  0  0  0  0  0  0  0  0  0  0
   57.5210   33.2750   44.8020 N   0  0  0  0  0  0  0  0  0  0  0  0
   58.6370   33.4840   45.6780 C   0  0  0  0  0  0  0  0  0  0  0  0
   59.0850   34.7760   46.0050 C   0  0  0  0  0  0  0  0  0  0  0  0
   60.1860   34.9450   46.8460 C   0  0  0  0  0  0  0  0  0  0  0  0
   60.8570   33.8320   47.3570 C   0  0  0  0  0  0  0  0  0  0  0  0
   60.4300   32.5400   47.0250 C   0  0  0  0  0  0  0  0  0  0  0  0
   61.3030   31.1460   47.6560 S   0  0  0  0  0  0  0  0  0  0  0  0
   62.7800   31.4290   47.6620 O   0  0  0  0  0  0  0  0  0  0  0  0
   61.0440   29.9730   46.7500 O   0  0  0  0  0  0  0  0  0  0  0  0
   60.7350   30.7980   49.2750 N   0  0  0  0  0  0  0  0  0  0  0  0
   61.5020   29.7010   49.9060 C   0  0  0  0  0  0  0  0  0  0  0  0
   60.7720   28.3480   49.8360 C   0  0  0  0  0  0  0  0  0  0  0  0
   60.0030   28.2670   48.6570 O   0  0  0  0  0  0  0  0  0  0  0  0
   58.9110   29.1670   48.7220 C   0  0  0  0  0  0  0  0  0  0  0  0
   59.2830   30.5530   49.3020 C   0  0  0  0  0  0  0  0  0  0  0  0
   59.3280   32.3710   46.1740 C   0  0  0  0  0  0  0  0  0  0  0  0
   56.9930   30.8190   44.4020 C   0  0  0  0  0  0  0  0  0  0  0  0
   57.8670   29.8360   44.8220 C   0  0  0  0  0  0  0  0  0  0  0  0
   57.0450   28.7740   45.1400 C   0  0  0  0  0  0  0  0  0  0  0  0
   57.4640   27.4860   45.7310 C   0  0  0  0  0  0  0  0  0  0  0  0
   58.8240   27.3010   46.0350 C   0  0  0  0  0  0  0  0  0  0  0  0
   59.2830   26.0750   46.5220 C   0  0  0  0  0  0  0  0  0  0  0  0
   58.3900   25.0210   46.7170 C   0  0  0  0  0  0  0  0  0  0  0  0
   57.0330   25.1960   46.4430 C   0  0  0  0  0  0  0  0  0  0  0  0
   56.5540   26.4260   45.9740 C   0  0  0  0  0  0  0  0  0  0  0  0
   55.1760   26.5680   45.8000 O   0  0  0  0  0  0  0  0  0  0  0  0
   55.7600   29.1200   44.9340 N   0  0  0  0  0  0  0  0  0  0  0  0
   55.7290   30.3600   44.4690 N   0  0  0  0  0  0  0  0  0  0  0  0
  1  2  2  0
  2  3  1  0
  3  4  1  0
  4  5  2  0
  5  6  1  0
  6  7  2  0
  7  8  1  0
  8  9  1  0
  9 10  2  0
  9 11  2  0
  9 12  1  0
 12 13  1  0
 13 14  1  0
 14 15  1  0
 15 16  1  0
 16 17  1  0
  8 18  2  0
  2 19  1  0
 19 20  1  0
 20 21  2  0
 21 22  1  0
 22 23  2  0
 23 24  1  0
 24 25  2  0
 25 26  1  0
 26 27  2  0
 27 28  1  0
 21 29  1  0
 29 30  1  0
 18  4  1  0
 30 19  2  0
 17 12  1  0
 27 22  1  0
M  CHG  2   3  -1  29  -1
M  END
>  <UniqueID>  (1021) 
48

>  <SMILES>  (1021) 
O=C([N-]c1cccc(S(=O)(=O)N2CCOCC2)c1)c1cc(-c2ccccc2O)[n-]n1

>  <Energy>  (1021) 
102.93073474033189

>  <Genealogy>  (1021) 
O=C([N-]c1cccc(S(=O)(=O)N2CCOCC2)c1)c1cc(-c2ccccc2O)[n-]n1 (protonated)
O=C([N-]c1cccc(S(=O)(=O)N2CCOCC2)c1)c1cc(-c2ccccc2O)[n-]n1 (3D coordinates assigned)
O=C([N-]c1cccc(S(=O)(=O)N2CCOCC2)c1)c1cc(-c2ccccc2O)[n-]n1 (nonaromatic ring conformer: 102.93073474033189 kcal/mol)

>  <smiles>  (1021) 
O=C(Nc1cccc(S(=O)(=O)N2CCOCC2)c1)c1cc(-c2ccccc2O)[nH]n1

>  <score_type>  (1021) 
oracle

>  <origin>  (1021) 
adg

>  <m_score__min__energy>  (1021) 
-14.539999999999999

>  <m_primary>  (1021) 
energy

$$$$
56:0
     RDKit          3D

 37 40  0  0  0  0  0  0  0  0999 V2000
   57.3640   31.2550   42.9520 O   0  0  0  0  0  0  0  0  0  0  0  0
   56.6670   30.8780   43.9310 C   0  0  0  0  0  0  0  0  0  0  0  0
   55.7230   29.7300   43.7710 C   0  0  0  0  0  0  0  0  0  0  0  0
   55.6230   28.9890   45.0250 N   0  0  0  0  0  0  0  0  0  0  0  0
   56.6450   28.1430   45.5650 C   0  0  0  0  0  0  0  0  0  0  0  0
   56.4400   26.9010   45.6100 O   0  0  0  0  0  0  0  0  0  0  0  0
   57.9250   28.6790   46.0660 C   0  0  0  0  0  0  0  0  0  0  0  0
   58.9070   29.1100   45.1610 C   0  0  0  0  0  0  0  0  0  0  0  0
   60.1270   29.6070   45.6300 C   0  0  0  0  0  0  0  0  0  0  0  0
   60.3800   29.6690   47.0020 C   0  0  0  0  0  0  0  0  0  0  0  0
   59.4140   29.2210   47.9150 C   0  0  0  0  0  0  0  0  0  0  0  0
   59.6960   29.3170   49.6510 S   0  0  0  0  0  0  0  0  0  0  0  0
   58.3600   29.3610   50.3350 O   0  0  0  0  0  0  0  0  0  0  0  0
   60.4520   28.1130   50.1370 O   0  0  0  0  0  0  0  0  0  0  0  0
   60.6200   30.7550   50.0060 N   0  0  0  0  0  0  0  0  0  0  0  0
   62.0470   30.8040   49.6750 C   0  0  0  0  0  0  0  0  0  0  0  0
   62.8440   31.1410   50.9330 C   0  0  0  0  0  0  0  0  0  0  0  0
   62.4180   32.5070   51.4820 C   0  0  0  0  0  0  0  0  0  0  0  0
   60.9160   32.6590   51.5580 C   0  0  0  0  0  0  0  0  0  0  0  0
   60.3730   33.6850   52.3460 C   0  0  0  0  0  0  0  0  0  0  0  0
   58.9920   33.8780   52.4040 C   0  0  0  0  0  0  0  0  0  0  0  0
   58.1420   33.0660   51.6520 C   0  0  0  0  0  0  0  0  0  0  0  0
   58.6680   32.0550   50.8440 C   0  0  0  0  0  0  0  0  0  0  0  0
   60.0580   31.8290   50.7960 C   0  0  0  0  0  0  0  0  0  0  0  0
   58.1960   28.7150   47.4430 C   0  0  0  0  0  0  0  0  0  0  0  0
   56.7350   31.5780   45.1770 N   0  0  0  0  0  0  0  0  0  0  0  0
   57.4080   32.8610   45.3300 C   0  0  0  0  0  0  0  0  0  0  0  0
   58.1850   32.8870   46.6180 C   0  0  0  0  0  0  0  0  0  0  0  0
   58.0430   31.9380   47.4340 O   0  0  0  0  0  0  0  0  0  0  0  0
   59.0450   33.9840   46.9730 N   0  0  0  0  0  0  0  0  0  0  0  0
   60.4090   33.8860   47.4010 C   0  0  0  0  0  0  0  0  0  0  0  0
   61.3570   33.1560   46.6640 C   0  0  0  0  0  0  0  0  0  0  0  0
   62.6840   33.0850   47.1030 C   0  0  0  0  0  0  0  0  0  0  0  0
   63.0680   33.7210   48.2870 C   0  0  0  0  0  0  0  0  0  0  0  0
   64.3550   33.6540   48.7100 F   0  0  0  0  0  0  0  0  0  0  0  0
   62.1180   34.4180   49.0430 C   0  0  0  0  0  0  0  0  0  0  0  0
   60.7910   34.4910   48.6050 C   0  0  0  0  0  0  0  0  0  0  0  0
  1  2  2  0
  2  3  1  0
  3  4  1  0
  4  5  1  0
  5  6  2  0
  5  7  1  0
  7  8  2  0
  8  9  1  0
  9 10  2  0
 10 11  1  0
 11 12  1  0
 12 13  2  0
 12 14  2  0
 12 15  1  0
 15 16  1  0
 16 17  1  0
 17 18  1  0
 18 19  1  0
 19 20  2  0
 20 21  1  0
 21 22  2  0
 22 23  1  0
 23 24  2  0
 11 25  2  0
  2 26  1  0
 26 27  1  0
 27 28  1  0
 28 29  2  0
 28 30  1  0
 30 31  1  0
 31 32  2  0
 32 33  1  0
 33 34  2  0
 34 35  1  0
 34 36  1  0
 36 37  2  0
 25  7  1  0
 37 31  1  0
 24 15  1  0
 24 19  1  0
M  CHG  3   4  -1  26  -1  30  -1
M  END
>  <UniqueID>  (1022) 
52

>  <SMILES>  (1022) 
O=C(C[N-]C(=O)c1cccc(S(=O)(=O)N2CCCc3ccccc32)c1)[N-]CC(=O)[N-]c1ccc(F)cc1

>  <Energy>  (1022) 
65.83305572036669

>  <Genealogy>  (1022) 
O=C(C[N-]C(=O)c1cccc(S(=O)(=O)N2CCCc3ccccc32)c1)[N-]CC(=O)[N-]c1ccc(F)cc1 (protonated)
O=C(C[N-]C(=O)c1cccc(S(=O)(=O)N2CCCc3ccccc32)c1)[N-]CC(=O)[N-]c1ccc(F)cc1 (3D coordinates assigned)
O=C(C[N-]C(=O)c1cccc(S(=O)(=O)N2CCCc3ccccc32)c1)[N-]CC(=O)[N-]c1ccc(F)cc1 (nonaromatic ring conformer: 65.83305572036669 kcal/mol)

>  <smiles>  (1022) 
O=C(CNC(=O)c1cccc(S(=O)(=O)N2CCCc3ccccc32)c1)NCC(=O)Nc1ccc(F)cc1

>  <score_type>  (1022) 
oracle

>  <origin>  (1022) 
adg

>  <m_score__min__energy>  (1022) 
-15.5

>  <m_primary>  (1022) 
energy

$$$$
75:0
     RDKit          3D

 28 30  0  0  0  0  0  0  0  0999 V2000
   55.1810   26.7130   45.9960 N   0  0  0  0  0  0  0  0  0  0  0  0
   56.4950   25.6270   46.2760 S   0  0  0  0  0  0  0  0  0  0  0  0
   56.2060   24.7810   47.4830 O   0  0  0  0  0  0  0  0  0  0  0  0
   56.6210   24.7200   45.0840 O   0  0  0  0  0  0  0  0  0  0  0  0
   58.0050   26.5300   46.5180 C   0  0  0  0  0  0  0  0  0  0  0  0
   58.7080   26.3470   47.7220 C   0  0  0  0  0  0  0  0  0  0  0  0
   59.8990   27.0330   47.9650 C   0  0  0  0  0  0  0  0  0  0  0  0
   60.5800   26.8400   49.1610 O   0  0  0  0  0  0  0  0  0  0  0  0
   60.4080   27.9100   47.0090 C   0  0  0  0  0  0  0  0  0  0  0  0
   59.7270   28.1040   45.8070 C   0  0  0  0  0  0  0  0  0  0  0  0
   58.5220   27.4260   45.5430 C   0  0  0  0  0  0  0  0  0  0  0  0
   57.8520   27.6480   44.2070 C   0  0  0  0  0  0  0  0  0  0  0  0
   57.6870   29.0750   43.9560 N   0  0  0  0  0  0  0  0  0  0  0  0
   56.9210   29.9500   44.7880 C   0  0  0  0  0  0  0  0  0  0  0  0
   55.7910   29.5920   45.2170 O   0  0  0  0  0  0  0  0  0  0  0  0
   57.4740   31.2670   45.1400 C   0  0  0  0  0  0  0  0  0  0  0  0
   56.7650   32.4500   44.8870 C   0  0  0  0  0  0  0  0  0  0  0  0
   57.3420   33.6690   45.2410 C   0  0  0  0  0  0  0  0  0  0  0  0
   56.7350   34.7470   45.0130 O   0  0  0  0  0  0  0  0  0  0  0  0
   58.6000   33.6850   45.8450 C   0  0  0  0  0  0  0  0  0  0  0  0
   59.2560   32.4650   46.0870 C   0  0  0  0  0  0  0  0  0  0  0  0
   60.5910   32.4010   46.7350 C   0  0  0  0  0  0  0  0  0  0  0  0
   61.4100   33.5470   46.7440 C   0  0  0  0  0  0  0  0  0  0  0  0
   62.6770   33.5100   47.3330 C   0  0  0  0  0  0  0  0  0  0  0  0
   63.1450   32.3300   47.9140 C   0  0  0  0  0  0  0  0  0  0  0  0
   62.3510   31.1830   47.9010 C   0  0  0  0  0  0  0  0  0  0  0  0
   61.0830   31.2130   47.3120 C   0  0  0  0  0  0  0  0  0  0  0  0
   58.6710   31.3260   45.7180 O   0  0  0  0  0  0  0  0  0  0  0  0
  1  2  1  0
  2  3  2  0
  2  4  2  0
  2  5  1  0
  5  6  2  0
  6  7  1  0
  7  8  1  0
  7  9  2  0
  9 10  1  0
 10 11  2  0
 11 12  1  0
 12 13  1  0
 13 14  1  0
 14 15  2  0
 14 16  1  0
 16 17  2  0
 17 18  1  0
 18 19  2  0
 18 20  1  0
 20 21  2  0
 21 22  1  0
 22 23  2  0
 23 24  1  0
 24 25  2  0
 25 26  1  0
 26 27  2  0
 21 28  1  0
 11  5  1  0
 28 16  1  0
 27 22  1  0
M  CHG  3   1  -1   8  -1  13  -1
M  END
>  <UniqueID>  (1023) 
68

>  <SMILES>  (1023) 
[NH-]S(=O)(=O)c1cc([O-])ccc1C[N-]C(=O)c1cc(=O)cc(-c2ccccc2)o1

>  <Energy>  (1023) 
47.921797427457264

>  <Genealogy>  (1023) 
[NH-]S(=O)(=O)c1cc([O-])ccc1C[N-]C(=O)c1cc(=O)cc(-c2ccccc2)o1 (protonated)
[NH-]S(=O)(=O)c1cc([O-])ccc1C[N-]C(=O)c1cc(=O)cc(-c2ccccc2)o1 (3D coordinates assigned)
[NH-]S(=O)(=O)c1cc([O-])ccc1C[N-]C(=O)c1cc(=O)cc(-c2ccccc2)o1 (optimized conformer: 47.921797427457264 kcal/mol)

>  <smiles>  (1023) 
NS(=O)(=O)c1cc(O)ccc1CNC(=O)c1cc(=O)cc(-c2ccccc2)o1

>  <score_type>  (1023) 
oracle

>  <origin>  (1023) 
adg

>  <m_score__min__energy>  (1023) 
-16.030000000000001

>  <m_primary>  (1023) 
energy

$$$$
76:0
     RDKit          3D

 28 30  0  0  0  0  0  0  0  0999 V2000
   57.7750   31.3880   43.1550 C   0  0  0  0  0  0  0  0  0  0  0  0
   57.2880   30.6340   44.3700 C   0  0  0  0  0  0  0  0  0  0  0  0
   57.8240   30.8410   45.5930 C   0  0  0  0  0  0  0  0  0  0  0  0
   58.4100   32.1250   46.0360 C   0  0  0  0  0  0  0  0  0  0  0  0
   57.7310   33.3350   45.8540 C   0  0  0  0  0  0  0  0  0  0  0  0
   56.4790   33.3660   45.2490 O   0  0  0  0  0  0  0  0  0  0  0  0
   58.3030   34.4970   46.2520 N   0  0  0  0  0  0  0  0  0  0  0  0
   59.5360   34.5230   46.8170 C   0  0  0  0  0  0  0  0  0  0  0  0
   60.0140   35.6290   47.1890 O   0  0  0  0  0  0  0  0  0  0  0  0
   60.2440   33.3610   46.9850 N   0  0  0  0  0  0  0  0  0  0  0  0
   61.5600   33.3970   47.5760 C   0  0  0  0  0  0  0  0  0  0  0  0
   61.7180   33.6820   48.9430 C   0  0  0  0  0  0  0  0  0  0  0  0
   62.9940   33.7170   49.5130 C   0  0  0  0  0  0  0  0  0  0  0  0
   64.1200   33.4700   48.7230 C   0  0  0  0  0  0  0  0  0  0  0  0
   63.9730   33.1870   47.3630 C   0  0  0  0  0  0  0  0  0  0  0  0
   62.6980   33.1500   46.7880 C   0  0  0  0  0  0  0  0  0  0  0  0
   59.6990   32.1660   46.5920 C   0  0  0  0  0  0  0  0  0  0  0  0
   60.3520   31.0930   46.7260 O   0  0  0  0  0  0  0  0  0  0  0  0
   56.2140   29.6230   44.1930 C   0  0  0  0  0  0  0  0  0  0  0  0
   55.5380   29.5980   43.1260 O   0  0  0  0  0  0  0  0  0  0  0  0
   55.9470   28.6820   45.2480 N   0  0  0  0  0  0  0  0  0  0  0  0
   56.6910   27.6760   45.6150 C   0  0  0  0  0  0  0  0  0  0  0  0
   58.0520   27.7720   45.6330 N   0  0  0  0  0  0  0  0  0  0  0  0
   58.8440   26.7340   46.0140 C   0  0  0  0  0  0  0  0  0  0  0  0
   58.2680   25.5220   46.4000 C   0  0  0  0  0  0  0  0  0  0  0  0
   56.8800   25.3930   46.3900 C   0  0  0  0  0  0  0  0  0  0  0  0
   56.0820   26.4720   45.9970 C   0  0  0  0  0  0  0  0  0  0  0  0
   54.6960   26.3410   45.9880 O   0  0  0  0  0  0  0  0  0  0  0  0
  1  2  1  0
  2  3  2  3
  3  4  1  0
  4  5  2  0
  5  6  1  0
  5  7  1  0
  7  8  1  0
  8  9  2  0
  8 10  1  0
 10 11  1  0
 11 12  2  0
 12 13  1  0
 13 14  2  0
 14 15  1  0
 15 16  2  0
 10 17  1  0
 17 18  2  0
  2 19  1  0
 19 20  2  0
 19 21  1  0
 21 22  2  3
 22 23  1  0
 23 24  1  0
 24 25  2  0
 25 26  1  0
 26 27  2  0
 27 28  1  0
 17  4  1  0
 27 22  1  0
 16 11  1  0
M  CHG  4   6  -1   7  -1  23  -1  28  -1
M  END
>  <UniqueID>  (1024) 
69

>  <SMILES>  (1024) 
CC(=Cc1c([O-])[n-]c(=O)n(-c2ccccc2)c1=O)C(=O)N=c1[n-]cccc1[O-]

>  <Energy>  (1024) 
66.57599597486386

>  <Genealogy>  (1024) 
CC(=Cc1c([O-])[n-]c(=O)n(-c2ccccc2)c1=O)C(=O)N=c1[n-]cccc1[O-] (protonated)
CC(=Cc1c([O-])[n-]c(=O)n(-c2ccccc2)c1=O)C(=O)N=c1[n-]cccc1[O-] (3D coordinates assigned)
CC(=Cc1c([O-])[n-]c(=O)n(-c2ccccc2)c1=O)C(=O)N=c1[n-]cccc1[O-] (optimized conformer: 66.57599597486386 kcal/mol)

>  <smiles>  (1024) 
CC(=Cc1c(O)[nH]c(=O)n(-c2ccccc2)c1=O)C(=O)N=c1[nH]cccc1O

>  <score_type>  (1024) 
oracle

>  <origin>  (1024) 
adg

>  <m_score__min__energy>  (1024) 
-16.800000000000001

>  <m_primary>  (1024) 
energy

$$$$
29:0
     RDKit          3D

 31 34  0  0  0  0  0  0  0  0999 V2000
   59.4770   29.8740   45.1960 C   0  0  0  0  0  0  0  0  0  0  0  0
   59.2890   29.3480   46.4180 C   0  0  0  0  0  0  0  0  0  0  0  0
   58.5300   28.2130   46.7490 C   0  0  0  0  0  0  0  0  0  0  0  0
   57.6650   27.4860   46.0160 C   0  0  0  0  0  0  0  0  0  0  0  0
   57.2440   26.1030   46.3200 C   0  0  0  0  0  0  0  0  0  0  0  0
   55.8870   25.7530   46.2870 C   0  0  0  0  0  0  0  0  0  0  0  0
   54.9170   26.7070   46.0030 O   0  0  0  0  0  0  0  0  0  0  0  0
   55.5110   24.4730   46.5450 N   0  0  0  0  0  0  0  0  0  0  0  0
   56.4320   23.5140   46.8210 C   0  0  0  0  0  0  0  0  0  0  0  0
   56.0590   22.3380   47.0630 O   0  0  0  0  0  0  0  0  0  0  0  0
   57.7540   23.8220   46.8310 N   0  0  0  0  0  0  0  0  0  0  0  0
   58.1810   25.0860   46.5780 C   0  0  0  0  0  0  0  0  0  0  0  0
   59.4170   25.3320   46.5710 O   0  0  0  0  0  0  0  0  0  0  0  0
   58.8080   27.9360   48.0780 C   0  0  0  0  0  0  0  0  0  0  0  0
   59.6560   28.9290   48.5250 C   0  0  0  0  0  0  0  0  0  0  0  0
   60.1960   29.0260   49.9190 C   0  0  0  0  0  0  0  0  0  0  0  0
   59.9460   29.7850   47.5220 N   0  0  0  0  0  0  0  0  0  0  0  0
   60.7960   30.9420   47.6230 C   0  0  0  0  0  0  0  0  0  0  0  0
   62.1040   30.8990   47.1270 C   0  0  0  0  0  0  0  0  0  0  0  0
   62.9090   32.0340   47.1910 C   0  0  0  0  0  0  0  0  0  0  0  0
   62.3970   33.2040   47.7510 C   0  0  0  0  0  0  0  0  0  0  0  0
   61.1250   33.2360   48.2350 N   0  0  0  0  0  0  0  0  0  0  0  0
   60.3140   32.1350   48.1890 C   0  0  0  0  0  0  0  0  0  0  0  0
   59.0080   32.1520   48.7050 O   0  0  0  0  0  0  0  0  0  0  0  0
   57.8860   32.7820   48.0890 C   0  0  0  0  0  0  0  0  0  0  0  0
   58.3390   33.6550   46.9570 C   0  0  0  0  0  0  0  0  0  0  0  0
   57.9220   33.3880   45.6460 C   0  0  0  0  0  0  0  0  0  0  0  0
   58.3910   34.1870   44.6020 C   0  0  0  0  0  0  0  0  0  0  0  0
   59.2670   35.2400   44.8730 C   0  0  0  0  0  0  0  0  0  0  0  0
   59.6640   35.4750   46.1910 C   0  0  0  0  0  0  0  0  0  0  0  0
   59.1990   34.6830   47.1950 N   0  0  0  0  0  0  0  0  0  0  0  0
  1  2  2  0
  2  3  1  0
  3  4  2  3
  4  5  1  0
  5  6  2  0
  6  7  1  0
  6  8  1  0
  8  9  1  0
  9 10  2  0
  9 11  1  0
 11 12  1  0
 12 13  2  0
  3 14  1  0
 14 15  2  0
 15 16  1  0
 15 17  1  0
 17 18  1  0
 18 19  2  0
 19 20  1  0
 20 21  2  0
 21 22  1  0
 22 23  2  0
 23 24  1  0
 24 25  1  0
 25 26  1  0
 26 27  2  0
 27 28  1  0
 28 29  2  0
 29 30  1  0
 30 31  2  0
 17  2  1  0
 23 18  1  0
 31 26  1  0
 12  5  1  0
M  CHG  4   7  -1   8  -1  11  -1  22   1
M  END
>  <UniqueID>  (1025) 
27

>  <SMILES>  (1025) 
C=c1c(=Cc2c([O-])[n-]c(=O)[n-]c2=O)cc(C)n1-c1ccc[nH+]c1OCc1ccccn1

>  <Energy>  (1025) 
99.48203665885231

>  <Genealogy>  (1025) 
C=c1c(=Cc2c([O-])[n-]c(=O)[n-]c2=O)cc(C)n1-c1ccc[nH+]c1OCc1ccccn1 (protonated)
C=c1c(=Cc2c([O-])[n-]c(=O)[n-]c2=O)cc(C)n1-c1ccc[nH+]c1OCc1ccccn1 (3D coordinates assigned)
C=c1c(=Cc2c([O-])[n-]c(=O)[n-]c2=O)cc(C)n1-c1ccc[nH+]c1OCc1ccccn1 (optimized conformer: 99.48203665885231 kcal/mol)

>  <smiles>  (1025) 
C=c1c(=Cc2c(O)[nH]c(=O)[nH]c2=O)cc(C)n1-c1cccnc1OCc1ccccn1

>  <score_type>  (1025) 
oracle

>  <origin>  (1025) 
adg

>  <m_score__min__energy>  (1025) 
-15.16

>  <m_primary>  (1025) 
energy

$$$$
30:0
     RDKit          3D

 29 32  0  0  0  0  0  0  0  0999 V2000
   59.2700   27.7990   47.1810 C   0  0  0  0  0  0  0  0  0  0  0  0
   58.7980   28.4130   46.0850 C   0  0  0  0  0  0  0  0  0  0  0  0
   58.2240   27.8120   44.9510 C   0  0  0  0  0  0  0  0  0  0  0  0
   57.8660   26.5350   44.7100 C   0  0  0  0  0  0  0  0  0  0  0  0
   57.3380   25.5880   45.7020 C   0  0  0  0  0  0  0  0  0  0  0  0
   57.9690   24.4570   46.0590 N   0  0  0  0  0  0  0  0  0  0  0  0
   57.0820   23.8470   46.8740 C   0  0  0  0  0  0  0  0  0  0  0  0
   57.3200   22.7450   47.4330 O   0  0  0  0  0  0  0  0  0  0  0  0
   55.9130   24.5050   47.0330 N   0  0  0  0  0  0  0  0  0  0  0  0
   56.0840   25.5980   46.2710 C   0  0  0  0  0  0  0  0  0  0  0  0
   55.1110   26.5740   46.0810 O   0  0  0  0  0  0  0  0  0  0  0  0
   58.0420   28.8260   44.0250 C   0  0  0  0  0  0  0  0  0  0  0  0
   58.4540   29.9970   44.6260 C   0  0  0  0  0  0  0  0  0  0  0  0
   58.4090   31.3490   43.9820 C   0  0  0  0  0  0  0  0  0  0  0  0
   58.9000   29.7510   45.8770 N   0  0  0  0  0  0  0  0  0  0  0  0
   59.4700   30.7320   46.7620 C   0  0  0  0  0  0  0  0  0  0  0  0
   58.6380   31.5320   47.5550 C   0  0  0  0  0  0  0  0  0  0  0  0
   59.1910   32.4950   48.4020 C   0  0  0  0  0  0  0  0  0  0  0  0
   60.5780   32.6600   48.4660 C   0  0  0  0  0  0  0  0  0  0  0  0
   61.4260   31.8570   47.6840 C   0  0  0  0  0  0  0  0  0  0  0  0
   62.8950   32.0310   47.7510 C   0  0  0  0  0  0  0  0  0  0  0  0
   63.6270   31.4370   46.9130 O   0  0  0  0  0  0  0  0  0  0  0  0
   63.5050   32.8470   48.7680 N   0  0  0  0  0  0  0  0  0  0  0  0
   64.7620   32.3920   49.3820 C   0  0  0  0  0  0  0  0  0  0  0  0
   65.2240   33.3430   50.4950 C   0  0  0  0  0  0  0  0  0  0  0  0
   64.0310   33.7660   51.3560 C   0  0  0  0  0  0  0  0  0  0  0  0
   62.9480   34.4980   50.5360 C   0  0  0  0  0  0  0  0  0  0  0  0
   63.0170   34.2090   49.0260 C   0  0  0  0  0  0  0  0  0  0  0  0
   60.8600   30.9080   46.8170 C   0  0  0  0  0  0  0  0  0  0  0  0
  1  2  2  0
  2  3  1  0
  3  4  2  3
  4  5  1  0
  5  6  1  0
  6  7  1  0
  7  8  2  0
  7  9  1  0
  9 10  1  0
 10 11  1  0
  3 12  1  0
 12 13  2  0
 13 14  1  0
 13 15  1  0
 15 16  1  0
 16 17  2  0
 17 18  1  0
 18 19  2  0
 19 20  1  0
 20 21  1  0
 21 22  2  0
 21 23  1  0
 23 24  1  0
 24 25  1  0
 25 26  1  0
 26 27  1  0
 27 28  1  0
 20 29  2  0
 15  2  1  0
 29 16  1  0
 10  5  2  0
 28 23  1  0
M  CHG  2   6  -1   9  -1
M  END
>  <UniqueID>  (1026) 
28

>  <SMILES>  (1026) 
C=c1c(=Cc2[n-]c(=O)[n-]c2O)cc(C)n1-c1cccc(C(=O)N2CCCCC2)c1

>  <Energy>  (1026) 
133.0323678360988

>  <Genealogy>  (1026) 
C=c1c(=Cc2[n-]c(=O)[n-]c2O)cc(C)n1-c1cccc(C(=O)N2CCCCC2)c1 (protonated)
C=c1c(=Cc2[n-]c(=O)[n-]c2O)cc(C)n1-c1cccc(C(=O)N2CCCCC2)c1 (3D coordinates assigned)
C=c1c(=Cc2[n-]c(=O)[n-]c2O)cc(C)n1-c1cccc(C(=O)N2CCCCC2)c1 (nonaromatic ring conformer: 133.0323678360988 kcal/mol)

>  <smiles>  (1026) 
C=c1c(=Cc2[nH]c(=O)[nH]c2O)cc(C)n1-c1cccc(C(=O)N2CCCCC2)c1

>  <score_type>  (1026) 
oracle

>  <origin>  (1026) 
adg

>  <m_score__min__energy>  (1026) 
-14.76

>  <m_primary>  (1026) 
energy

$$$$
33:0
     RDKit          3D

 25 27  0  0  0  0  0  0  0  0999 V2000
   55.0090   24.4170   45.5100 C   0  0  0  0  0  0  0  0  0  0  0  0
   55.6530   24.9760   46.6510 O   0  0  0  0  0  0  0  0  0  0  0  0
   56.9090   25.6020   46.6260 C   0  0  0  0  0  0  0  0  0  0  0  0
   58.0710   24.9770   47.1130 C   0  0  0  0  0  0  0  0  0  0  0  0
   59.2660   25.6220   47.0690 N   0  0  0  0  0  0  0  0  0  0  0  0
   59.3890   26.8760   46.5620 C   0  0  0  0  0  0  0  0  0  0  0  0
   58.2620   27.5490   46.0610 C   0  0  0  0  0  0  0  0  0  0  0  0
   58.3400   28.8500   45.5300 C   0  0  0  0  0  0  0  0  0  0  0  0
   59.4490   29.4530   45.5080 O   0  0  0  0  0  0  0  0  0  0  0  0
   57.1750   29.4850   45.0390 C   0  0  0  0  0  0  0  0  0  0  0  0
   57.2330   30.8610   44.4750 C   0  0  0  0  0  0  0  0  0  0  0  0
   57.7290   31.0560   43.3320 O   0  0  0  0  0  0  0  0  0  0  0  0
   56.7370   31.9750   45.2270 N   0  0  0  0  0  0  0  0  0  0  0  0
   57.2530   33.3330   45.1000 C   0  0  0  0  0  0  0  0  0  0  0  0
   58.3840   33.5530   46.0680 C   0  0  0  0  0  0  0  0  0  0  0  0
   59.6110   34.0750   45.6280 C   0  0  0  0  0  0  0  0  0  0  0  0
   60.6630   34.2550   46.5310 C   0  0  0  0  0  0  0  0  0  0  0  0
   60.5000   33.9140   47.8770 C   0  0  0  0  0  0  0  0  0  0  0  0
   61.8220   34.1400   49.0080 Cl  0  0  0  0  0  0  0  0  0  0  0  0
   59.2820   33.3880   48.3210 C   0  0  0  0  0  0  0  0  0  0  0  0
   58.2280   33.2060   47.4210 C   0  0  0  0  0  0  0  0  0  0  0  0
   55.9540   28.7780   45.0980 C   0  0  0  0  0  0  0  0  0  0  0  0
   54.7770   29.3350   44.6090 O   0  0  0  0  0  0  0  0  0  0  0  0
   55.9100   27.5260   45.6200 N   0  0  0  0  0  0  0  0  0  0  0  0
   57.0140   26.8960   46.0980 C   0  0  0  0  0  0  0  0  0  0  0  0
  1  2  1  0
  2  3  1  0
  3  4  2  0
  4  5  1  0
  5  6  2  0
  6  7  1  0
  7  8  1  0
  8  9  2  0
  8 10  1  0
 10 11  1  0
 11 12  2  0
 11 13  1  0
 13 14  1  0
 14 15  1  0
 15 16  2  0
 16 17  1  0
 17 18  2  0
 18 19  1  0
 18 20  1  0
 20 21  2  0
 10 22  2  0
 22 23  1  0
 22 24  1  0
 24 25  1  0
 25  3  1  0
 25  7  2  0
 21 15  1  0
M  CHG  3  13  -1  23  -1  24  -1
M  END
>  <UniqueID>  (1027) 
30

>  <SMILES>  (1027) 
COc1cncc2c(=O)c(C(=O)[N-]Cc3ccc(Cl)cc3)c([O-])[n-]c12

>  <Energy>  (1027) 
46.521430328006105

>  <Genealogy>  (1027) 
COc1cncc2c(=O)c(C(=O)[N-]Cc3ccc(Cl)cc3)c([O-])[n-]c12 (protonated)
COc1cncc2c(=O)c(C(=O)[N-]Cc3ccc(Cl)cc3)c([O-])[n-]c12 (3D coordinates assigned)
COc1cncc2c(=O)c(C(=O)[N-]Cc3ccc(Cl)cc3)c([O-])[n-]c12 (optimized conformer: 46.521430328006105 kcal/mol)

>  <smiles>  (1027) 
COc1cncc2c(=O)c(C(=O)NCc3ccc(Cl)cc3)c(O)[nH]c12

>  <score_type>  (1027) 
oracle

>  <origin>  (1027) 
adg

>  <m_score__min__energy>  (1027) 
-14.94

>  <m_primary>  (1027) 
energy

$$$$
51:0
     RDKit          3D

 32 35  0  0  0  0  0  0  0  0999 V2000
   59.6060   28.1060   46.5570 C   0  0  0  0  0  0  0  0  0  0  0  0
   58.7310   28.7510   45.7680 C   0  0  0  0  0  0  0  0  0  0  0  0
   57.8110   28.1600   44.8900 C   0  0  0  0  0  0  0  0  0  0  0  0
   57.6160   26.8330   44.6980 C   0  0  0  0  0  0  0  0  0  0  0  0
   57.1580   25.8640   45.7220 C   0  0  0  0  0  0  0  0  0  0  0  0
   57.8660   24.8200   46.1930 N   0  0  0  0  0  0  0  0  0  0  0  0
   57.0000   24.1980   47.0190 C   0  0  0  0  0  0  0  0  0  0  0  0
   57.2990   23.1480   47.6470 O   0  0  0  0  0  0  0  0  0  0  0  0
   55.7810   24.7700   47.0970 N   0  0  0  0  0  0  0  0  0  0  0  0
   55.8970   25.8180   46.2680 C   0  0  0  0  0  0  0  0  0  0  0  0
   54.8630   26.6960   45.9880 O   0  0  0  0  0  0  0  0  0  0  0  0
   57.1120   29.2100   44.3040 C   0  0  0  0  0  0  0  0  0  0  0  0
   57.5950   30.3750   44.8640 C   0  0  0  0  0  0  0  0  0  0  0  0
   57.1730   31.7540   44.4510 C   0  0  0  0  0  0  0  0  0  0  0  0
   58.5710   30.0980   45.7580 N   0  0  0  0  0  0  0  0  0  0  0  0
   59.1980   31.0480   46.6380 C   0  0  0  0  0  0  0  0  0  0  0  0
   60.5030   31.5010   46.3900 C   0  0  0  0  0  0  0  0  0  0  0  0
   61.1470   32.3320   47.3130 C   0  0  0  0  0  0  0  0  0  0  0  0
   60.4720   32.7500   48.4670 C   0  0  0  0  0  0  0  0  0  0  0  0
   61.1910   33.5120   49.5000 C   0  0  0  0  0  0  0  0  0  0  0  0
   60.5830   34.4830   50.0380 O   0  0  0  0  0  0  0  0  0  0  0  0
   62.5720   33.2320   49.8620 N   0  0  0  0  0  0  0  0  0  0  0  0
   63.5210   33.5280   48.7700 C   0  0  0  0  0  0  0  0  0  0  0  0
   64.9560   33.1040   49.1440 C   0  0  0  0  0  0  0  0  0  0  0  0
   65.1000   32.8320   50.5930 N   0  0  0  0  0  0  0  0  0  0  0  0
   66.5220   32.7180   50.9810 C   0  0  0  0  0  0  0  0  0  0  0  0
   67.0120   31.2620   50.9380 C   0  0  0  0  0  0  0  0  0  0  0  0
   65.9590   30.3910   51.2450 O   0  0  0  0  0  0  0  0  0  0  0  0
   64.4520   33.9000   51.3830 C   0  0  0  0  0  0  0  0  0  0  0  0
   62.9350   33.9690   51.0890 C   0  0  0  0  0  0  0  0  0  0  0  0
   59.1470   32.3460   48.6880 C   0  0  0  0  0  0  0  0  0  0  0  0
   58.5140   31.4970   47.7780 C   0  0  0  0  0  0  0  0  0  0  0  0
  1  2  2  0
  2  3  1  0
  3  4  2  3
  4  5  1  0
  5  6  1  0
  6  7  1  0
  7  8  2  0
  7  9  1  0
  9 10  1  0
 10 11  1  0
  3 12  1  0
 12 13  2  0
 13 14  1  0
 13 15  1  0
 15 16  1  0
 16 17  2  0
 17 18  1  0
 18 19  2  0
 19 20  1  0
 20 21  2  0
 20 22  1  0
 22 23  1  0
 23 24  1  0
 24 25  1  0
 25 26  1  0
 26 27  1  0
 27 28  1  0
 25 29  1  0
 29 30  1  0
 19 31  1  0
 31 32  2  0
 15  2  1  0
 32 16  1  0
 10  5  2  0
 30 22  1  0
M  CHG  4   6  -1   9  -1  11  -1  22   1
M  END
>  <UniqueID>  (1028) 
46

>  <SMILES>  (1028) 
C=c1c(=Cc2[n-]c(=O)[n-]c2[O-])cc(C)n1-c1ccc(C(=O)[NH+]2CCN(CCO)CC2)cc1

>  <Energy>  (1028) 
149.2125120189494

>  <Genealogy>  (1028) 
C=c1c(=Cc2[n-]c(=O)[n-]c2[O-])cc(C)n1-c1ccc(C(=O)[NH+]2CCN(CCO)CC2)cc1 (protonated)
C=c1c(=Cc2[n-]c(=O)[n-]c2[O-])cc(C)n1-c1ccc(C(=O)[NH+]2CCN(CCO)CC2)cc1 (3D coordinates assigned)
C=c1c(=Cc2[n-]c(=O)[n-]c2[O-])cc(C)n1-c1ccc(C(=O)[NH+]2CCN(CCO)CC2)cc1 (nonaromatic ring conformer: 149.2125120189494 kcal/mol)

>  <smiles>  (1028) 
C=c1c(=Cc2[nH]c(=O)[nH]c2O)cc(C)n1-c1ccc(C(=O)N2CCN(CCO)CC2)cc1

>  <score_type>  (1028) 
oracle

>  <origin>  (1028) 
adg

>  <m_score__min__energy>  (1028) 
-14.69

>  <m_primary>  (1028) 
energy

$$$$
56:0
     RDKit          3D

 34 37  0  0  0  0  0  0  0  0999 V2000
   58.1340   27.1700   42.6690 C   0  0  0  0  0  0  0  0  0  0  0  0
   58.3510   26.7050   43.9100 C   0  0  0  0  0  0  0  0  0  0  0  0
   57.7320   25.5990   44.4960 C   0  0  0  0  0  0  0  0  0  0  0  0
   56.8340   24.7660   43.9340 C   0  0  0  0  0  0  0  0  0  0  0  0
   55.6480   24.2470   44.6490 C   0  0  0  0  0  0  0  0  0  0  0  0
   54.9940   25.0270   45.6250 C   0  0  0  0  0  0  0  0  0  0  0  0
   55.4010   26.3280   45.9210 O   0  0  0  0  0  0  0  0  0  0  0  0
   53.9290   24.5120   46.2920 N   0  0  0  0  0  0  0  0  0  0  0  0
   53.4790   23.2560   46.0450 C   0  0  0  0  0  0  0  0  0  0  0  0
   52.4860   22.8080   46.6730 O   0  0  0  0  0  0  0  0  0  0  0  0
   54.1020   22.4810   45.1230 N   0  0  0  0  0  0  0  0  0  0  0  0
   55.1750   22.9400   44.4290 C   0  0  0  0  0  0  0  0  0  0  0  0
   55.7480   22.1770   43.6060 O   0  0  0  0  0  0  0  0  0  0  0  0
   58.2460   25.4970   45.7800 C   0  0  0  0  0  0  0  0  0  0  0  0
   59.1450   26.5330   45.9300 C   0  0  0  0  0  0  0  0  0  0  0  0
   59.9000   26.8190   47.1930 C   0  0  0  0  0  0  0  0  0  0  0  0
   59.2140   27.2710   44.7960 N   0  0  0  0  0  0  0  0  0  0  0  0
   60.0820   28.4380   44.5670 C   0  0  0  0  0  0  0  0  0  0  0  0
   59.5240   29.6620   45.2490 C   0  0  0  0  0  0  0  0  0  0  0  0
   59.9400   30.0070   46.5440 C   0  0  0  0  0  0  0  0  0  0  0  0
   59.4270   31.1440   47.1730 C   0  0  0  0  0  0  0  0  0  0  0  0
   58.4940   31.9670   46.5150 C   0  0  0  0  0  0  0  0  0  0  0  0
   57.9510   33.1740   47.1820 C   0  0  0  0  0  0  0  0  0  0  0  0
   56.7070   33.3780   47.1950 O   0  0  0  0  0  0  0  0  0  0  0  0
   58.8430   34.1340   47.7640 N   0  0  0  0  0  0  0  0  0  0  0  0
   60.2770   34.0760   47.7850 C   0  0  0  0  0  0  0  0  0  0  0  0
   60.9630   33.9960   46.5660 C   0  0  0  0  0  0  0  0  0  0  0  0
   62.3560   33.9160   46.5410 C   0  0  0  0  0  0  0  0  0  0  0  0
   63.0780   33.8900   47.7370 C   0  0  0  0  0  0  0  0  0  0  0  0
   62.4070   33.9450   48.9680 C   0  0  0  0  0  0  0  0  0  0  0  0
   63.1680   33.8840   50.2590 C   0  0  0  0  0  0  0  0  0  0  0  0
   61.0050   34.0280   48.9890 C   0  0  0  0  0  0  0  0  0  0  0  0
   58.0900   31.6260   45.2120 C   0  0  0  0  0  0  0  0  0  0  0  0
   58.6020   30.4870   44.5850 C   0  0  0  0  0  0  0  0  0  0  0  0
  1  2  2  0
  2  3  1  0
  3  4  2  3
  4  5  1  0
  5  6  2  0
  6  7  1  0
  6  8  1  0
  8  9  1  0
  9 10  2  0
  9 11  1  0
 11 12  1  0
 12 13  2  0
  3 14  1  0
 14 15  2  0
 15 16  1  0
 15 17  1  0
 17 18  1  0
 18 19  1  0
 19 20  2  0
 20 21  1  0
 21 22  2  0
 22 23  1  0
 23 24  2  0
 23 25  1  0
 25 26  1  0
 26 27  2  0
 27 28  1  0
 28 29  2  0
 29 30  1  0
 30 31  1  0
 30 32  2  0
 22 33  1  0
 33 34  2  0
 17  2  1  0
 34 19  1  0
 12  5  1  0
 32 26  1  0
M  CHG  3   8  -1  11  -1  25  -1
M  END
>  <UniqueID>  (1029) 
47

>  <SMILES>  (1029) 
C=c1c(=Cc2c(O)[n-]c(=O)[n-]c2=O)cc(C)n1Cc1ccc(C(=O)[N-]c2cccc(C)c2)cc1

>  <Energy>  (1029) 
101.51784327335427

>  <Genealogy>  (1029) 
C=c1c(=Cc2c(O)[n-]c(=O)[n-]c2=O)cc(C)n1Cc1ccc(C(=O)[N-]c2cccc(C)c2)cc1 (protonated)
C=c1c(=Cc2c(O)[n-]c(=O)[n-]c2=O)cc(C)n1Cc1ccc(C(=O)[N-]c2cccc(C)c2)cc1 (3D coordinates assigned)
C=c1c(=Cc2c(O)[n-]c(=O)[n-]c2=O)cc(C)n1Cc1ccc(C(=O)[N-]c2cccc(C)c2)cc1 (optimized conformer: 101.51784327335427 kcal/mol)

>  <smiles>  (1029) 
C=c1c(=Cc2c(O)[nH]c(=O)[nH]c2=O)cc(C)n1Cc1ccc(C(=O)Nc2cccc(C)c2)cc1

>  <score_type>  (1029) 
oracle

>  <origin>  (1029) 
adg

>  <m_score__min__energy>  (1029) 
-14.85

>  <m_primary>  (1029) 
energy

$$$$
78:0
     RDKit          3D

 25 26  0  0  0  0  0  0  0  0999 V2000
   58.2030   31.3870   50.4700 C   0  0  0  0  0  0  0  0  0  0  0  0
   59.1350   31.1250   49.3250 C   0  0  0  0  0  0  0  0  0  0  0  0
   59.1580   29.8670   48.6990 C   0  0  0  0  0  0  0  0  0  0  0  0
   59.9870   29.6470   47.5940 C   0  0  0  0  0  0  0  0  0  0  0  0
   60.7900   30.6800   47.0990 C   0  0  0  0  0  0  0  0  0  0  0  0
   60.7680   31.9450   47.7090 C   0  0  0  0  0  0  0  0  0  0  0  0
   61.6090   33.0720   47.1660 C   0  0  0  0  0  0  0  0  0  0  0  0
   60.8590   33.8870   46.1080 C   0  0  0  0  0  0  0  0  0  0  0  0
   59.5680   33.2790   45.7940 N   0  0  0  0  0  0  0  0  0  0  0  0
   58.3320   33.7370   46.3690 C   0  0  0  0  0  0  0  0  0  0  0  0
   58.3360   34.4350   47.4200 O   0  0  0  0  0  0  0  0  0  0  0  0
   57.0270   33.4030   45.7040 C   0  0  0  0  0  0  0  0  0  0  0  0
   57.2030   32.3740   44.6810 N   0  0  0  0  0  0  0  0  0  0  0  0
   57.6280   31.0340   44.9640 C   0  0  0  0  0  0  0  0  0  0  0  0
   58.8270   30.7070   44.7600 O   0  0  0  0  0  0  0  0  0  0  0  0
   56.7060   30.0900   45.5160 N   0  0  0  0  0  0  0  0  0  0  0  0
   56.2510   28.8900   44.8270 C   0  0  0  0  0  0  0  0  0  0  0  0
   56.9250   27.6960   45.4420 C   0  0  0  0  0  0  0  0  0  0  0  0
   58.3290   27.6530   45.5190 C   0  0  0  0  0  0  0  0  0  0  0  0
   58.9700   26.5900   46.1600 C   0  0  0  0  0  0  0  0  0  0  0  0
   58.2190   25.5670   46.7410 C   0  0  0  0  0  0  0  0  0  0  0  0
   56.8220   25.6030   46.6790 C   0  0  0  0  0  0  0  0  0  0  0  0
   56.1720   26.6640   46.0390 C   0  0  0  0  0  0  0  0  0  0  0  0
   54.7810   26.6900   46.0040 O   0  0  0  0  0  0  0  0  0  0  0  0
   59.9330   32.1630   48.8190 C   0  0  0  0  0  0  0  0  0  0  0  0
  1  2  1  0
  2  3  2  0
  3  4  1  0
  4  5  2  0
  5  6  1  0
  6  7  1  0
  7  8  1  0
  8  9  1  0
  9 10  1  0
 10 11  2  0
 10 12  1  0
 12 13  1  0
 13 14  1  0
 14 15  2  0
 14 16  1  0
 16 17  1  0
 17 18  1  0
 18 19  2  0
 19 20  1  0
 20 21  2  0
 21 22  1  0
 22 23  2  0
 23 24  1  0
  6 25  2  0
 25  2  1  0
 23 18  1  0
M  CHG  3  13  -1  16  -1  24  -1
M  END
>  <UniqueID>  (1030) 
64

>  <SMILES>  (1030) 
Cc1cccc(CCNC(=O)C[N-]C(=O)[N-]Cc2ccccc2[O-])c1

>  <Energy>  (1030) 
33.65183227531526

>  <Genealogy>  (1030) 
Cc1cccc(CCNC(=O)C[N-]C(=O)[N-]Cc2ccccc2[O-])c1 (protonated)
Cc1cccc(CCNC(=O)C[N-]C(=O)[N-]Cc2ccccc2[O-])c1 (3D coordinates assigned)
Cc1cccc(CCNC(=O)C[N-]C(=O)[N-]Cc2ccccc2[O-])c1 (optimized conformer: 33.65183227531526 kcal/mol)

>  <smiles>  (1030) 
Cc1cccc(CCNC(=O)CNC(=O)NCc2ccccc2O)c1

>  <score_type>  (1030) 
oracle

>  <origin>  (1030) 
adg

>  <m_score__min__energy>  (1030) 
-14.380000000000001

>  <m_primary>  (1030) 
energy

$$$$
2:0
     RDKit          3D

 24 25  0  0  0  0  0  0  0  0999 V2000
   58.1520   31.7800   47.3520 N   0  0  0  0  0  0  0  0  0  0  0  0
   58.4760   33.1610   46.3650 S   0  0  0  0  0  0  0  0  0  0  0  0
   58.1600   34.4100   47.1380 O   0  0  0  0  0  0  0  0  0  0  0  0
   59.9290   33.1730   45.9810 O   0  0  0  0  0  0  0  0  0  0  0  0
   57.4570   33.1120   44.8970 C   0  0  0  0  0  0  0  0  0  0  0  0
   57.3960   31.7110   44.2900 C   0  0  0  0  0  0  0  0  0  0  0  0
   56.2640   30.9730   44.8380 N   0  0  0  0  0  0  0  0  0  0  0  0
   56.1710   29.5450   44.8890 C   0  0  0  0  0  0  0  0  0  0  0  0
   55.1510   28.9850   44.4050 O   0  0  0  0  0  0  0  0  0  0  0  0
   57.2290   28.7000   45.5390 C   0  0  0  0  0  0  0  0  0  0  0  0
   56.7730   27.2780   45.6530 C   0  0  0  0  0  0  0  0  0  0  0  0
   55.5130   26.9080   45.9420 N   0  0  0  0  0  0  0  0  0  0  0  0
   55.5790   25.5600   45.9480 C   0  0  0  0  0  0  0  0  0  0  0  0
   54.5780   24.8330   46.1830 O   0  0  0  0  0  0  0  0  0  0  0  0
   56.8000   25.0520   45.6840 N   0  0  0  0  0  0  0  0  0  0  0  0
   57.5490   26.1550   45.4990 C   0  0  0  0  0  0  0  0  0  0  0  0
   58.9130   26.1490   45.1950 O   0  0  0  0  0  0  0  0  0  0  0  0
   59.9290   26.1130   46.1930 C   0  0  0  0  0  0  0  0  0  0  0  0
   60.1860   27.4980   46.7190 C   0  0  0  0  0  0  0  0  0  0  0  0
   60.4350   28.5510   45.8230 C   0  0  0  0  0  0  0  0  0  0  0  0
   60.6400   29.8500   46.3000 C   0  0  0  0  0  0  0  0  0  0  0  0
   60.5880   30.1070   47.6740 C   0  0  0  0  0  0  0  0  0  0  0  0
   60.3320   29.0660   48.5720 C   0  0  0  0  0  0  0  0  0  0  0  0
   60.1290   27.7660   48.0970 C   0  0  0  0  0  0  0  0  0  0  0  0
  1  2  1  0
  2  3  2  0
  2  4  2  0
  2  5  1  0
  5  6  1  0
  6  7  1  0
  7  8  1  0
  8  9  2  0
  8 10  1  0
 10 11  1  0
 11 12  1  0
 12 13  1  0
 13 14  2  0
 13 15  1  0
 15 16  1  0
 16 17  1  0
 17 18  1  0
 18 19  1  0
 19 20  2  0
 20 21  1  0
 21 22  2  0
 22 23  1  0
 23 24  2  0
 16 11  2  0
 24 19  1  0
M  CHG  4   1  -1   7  -1  12  -1  15  -1
M  END
>  <UniqueID>  (1031) 
3

>  <SMILES>  (1031) 
[NH-]S(=O)(=O)CC[N-]C(=O)Cc1[n-]c(=O)[n-]c1OCc1ccccc1

>  <Energy>  (1031) 
53.69294559641584

>  <Genealogy>  (1031) 
[NH-]S(=O)(=O)CC[N-]C(=O)Cc1[n-]c(=O)[n-]c1OCc1ccccc1 (protonated)
[NH-]S(=O)(=O)CC[N-]C(=O)Cc1[n-]c(=O)[n-]c1OCc1ccccc1 (3D coordinates assigned)
[NH-]S(=O)(=O)CC[N-]C(=O)Cc1[n-]c(=O)[n-]c1OCc1ccccc1 (optimized conformer: 53.69294559641584 kcal/mol)

>  <smiles>  (1031) 
NS(=O)(=O)CCNC(=O)Cc1[nH]c(=O)[nH]c1OCc1ccccc1

>  <score_type>  (1031) 
oracle

>  <origin>  (1031) 
adg

>  <m_score__min__energy>  (1031) 
-14.67

>  <m_primary>  (1031) 
energy

$$$$
3:0
     RDKit          3D

 26 28  0  0  0  0  0  0  0  0999 V2000
   56.8720   23.1580   45.2230 C   0  0  0  0  0  0  0  0  0  0  0  0
   57.2990   24.2110   45.9700 N   0  0  0  0  0  0  0  0  0  0  0  0
   56.5230   25.3040   46.2110 C   0  0  0  0  0  0  0  0  0  0  0  0
   57.0380   26.2610   46.9340 N   0  0  0  0  0  0  0  0  0  0  0  0
   58.4030   26.4650   47.3260 C   0  0  0  0  0  0  0  0  0  0  0  0
   58.8940   25.7830   48.2680 O   0  0  0  0  0  0  0  0  0  0  0  0
   59.2010   27.5500   46.7080 C   0  0  0  0  0  0  0  0  0  0  0  0
   60.0800   27.2740   45.6450 C   0  0  0  0  0  0  0  0  0  0  0  0
   60.8220   28.3000   45.0540 C   0  0  0  0  0  0  0  0  0  0  0  0
   60.6980   29.6120   45.5150 C   0  0  0  0  0  0  0  0  0  0  0  0
   59.8340   29.9070   46.5800 C   0  0  0  0  0  0  0  0  0  0  0  0
   59.6690   31.3290   47.0520 C   0  0  0  0  0  0  0  0  0  0  0  0
   58.2220   31.8000   46.9030 C   0  0  0  0  0  0  0  0  0  0  0  0
   57.4350   30.7920   46.1960 N   0  0  0  0  0  0  0  0  0  0  0  0
   57.1990   30.8120   44.9170 C   0  0  0  0  0  0  0  0  0  0  0  0
   57.9700   31.5620   44.0780 N   0  0  0  0  0  0  0  0  0  0  0  0
   57.7440   31.6010   42.7380 C   0  0  0  0  0  0  0  0  0  0  0  0
   56.6980   30.8620   42.1830 C   0  0  0  0  0  0  0  0  0  0  0  0
   55.8920   30.0870   43.0190 C   0  0  0  0  0  0  0  0  0  0  0  0
   56.1390   30.0580   44.3940 C   0  0  0  0  0  0  0  0  0  0  0  0
   55.3350   29.2870   45.2260 O   0  0  0  0  0  0  0  0  0  0  0  0
   59.0810   28.8760   47.1650 C   0  0  0  0  0  0  0  0  0  0  0  0
   55.1990   25.3230   45.7010 C   0  0  0  0  0  0  0  0  0  0  0  0
   54.2990   26.3410   45.9940 O   0  0  0  0  0  0  0  0  0  0  0  0
   54.7560   24.2540   44.9170 C   0  0  0  0  0  0  0  0  0  0  0  0
   55.5940   23.1670   44.6720 C   0  0  0  0  0  0  0  0  0  0  0  0
  1  2  1  0
  2  3  1  0
  3  4  2  3
  4  5  1  0
  5  6  2  0
  5  7  1  0
  7  8  2  0
  8  9  1  0
  9 10  2  0
 10 11  1  0
 11 12  1  0
 12 13  1  0
 13 14  1  0
 14 15  2  0
 15 16  1  0
 16 17  1  0
 17 18  2  0
 18 19  1  0
 19 20  2  0
 20 21  1  0
 11 22  2  0
  3 23  1  0
 23 24  1  0
 23 25  2  0
 25 26  1  0
 26  1  2  0
 22  7  1  0
 20 15  1  0
M  CHG  4   2  -1  16  -1  21  -1  24  -1
M  END
>  <UniqueID>  (1032) 
4

>  <SMILES>  (1032) 
O=C(N=c1[n-]cccc1[O-])c1cccc(CC/N=c2/[n-]cccc2[O-])c1

>  <Energy>  (1032) 
53.957380281818416

>  <Genealogy>  (1032) 
O=C(N=c1[n-]cccc1[O-])c1cccc(CCN=c2[n-]cccc2[O-])c1 (protonated)
O=C(N=c1[n-]cccc1[O-])c1cccc(CC/N=c2/[n-]cccc2[O-])c1 (cis-trans isomerization)
O=C(N=c1[n-]cccc1[O-])c1cccc(CC/N=c2/[n-]cccc2[O-])c1 (3D coordinates assigned)
O=C(N=c1[n-]cccc1[O-])c1cccc(CC/N=c2/[n-]cccc2[O-])c1 (optimized conformer: 53.957380281818416 kcal/mol)

>  <smiles>  (1032) 
O=C(N=c1[nH]cccc1O)c1cccc(CCN=c2[nH]cccc2O)c1

>  <score_type>  (1032) 
oracle

>  <origin>  (1032) 
adg

>  <m_score__min__energy>  (1032) 
-16.27

>  <m_primary>  (1032) 
energy

$$$$
4:0
     RDKit          3D

 25 27  0  0  0  0  0  0  0  0999 V2000
   58.2400   30.8340   47.0330 C   0  0  0  0  0  0  0  0  0  0  0  0
   58.0450   31.5360   45.9060 C   0  0  0  0  0  0  0  0  0  0  0  0
   57.9130   31.0490   44.5970 C   0  0  0  0  0  0  0  0  0  0  0  0
   57.8160   29.7900   44.1200 C   0  0  0  0  0  0  0  0  0  0  0  0
   57.5390   28.5890   44.9300 C   0  0  0  0  0  0  0  0  0  0  0  0
   56.2250   28.2210   45.2600 C   0  0  0  0  0  0  0  0  0  0  0  0
   55.1470   29.0060   44.8640 O   0  0  0  0  0  0  0  0  0  0  0  0
   55.9960   27.0880   45.9720 N   0  0  0  0  0  0  0  0  0  0  0  0
   57.0220   26.2860   46.3590 C   0  0  0  0  0  0  0  0  0  0  0  0
   56.7170   24.9300   47.2150 S   0  0  0  0  0  0  0  0  0  0  0  0
   58.2980   26.6050   46.0250 N   0  0  0  0  0  0  0  0  0  0  0  0
   58.5790   27.7290   45.3160 C   0  0  0  0  0  0  0  0  0  0  0  0
   59.7750   27.9910   45.0180 O   0  0  0  0  0  0  0  0  0  0  0  0
   57.8870   32.1980   43.8130 C   0  0  0  0  0  0  0  0  0  0  0  0
   57.7610   32.2670   42.3230 C   0  0  0  0  0  0  0  0  0  0  0  0
   57.9570   33.2910   44.5940 N   0  0  0  0  0  0  0  0  0  0  0  0
   58.0410   32.8930   45.8530 N   0  0  0  0  0  0  0  0  0  0  0  0
   58.2080   33.8400   46.9590 C   0  0  0  0  0  0  0  0  0  0  0  0
   59.5960   33.7400   47.5340 C   0  0  0  0  0  0  0  0  0  0  0  0
   59.7720   33.5700   48.9170 C   0  0  0  0  0  0  0  0  0  0  0  0
   61.0560   33.4970   49.4610 C   0  0  0  0  0  0  0  0  0  0  0  0
   62.1760   33.5830   48.6300 C   0  0  0  0  0  0  0  0  0  0  0  0
   62.0160   33.7290   47.2430 C   0  0  0  0  0  0  0  0  0  0  0  0
   63.2180   33.8600   46.3550 C   0  0  0  0  0  0  0  0  0  0  0  0
   60.7240   33.8200   46.7010 C   0  0  0  0  0  0  0  0  0  0  0  0
  1  2  2  0
  2  3  1  0
  3  4  2  0
  4  5  1  0
  5  6  2  0
  6  7  1  0
  6  8  1  0
  8  9  1  0
  9 10  2  0
  9 11  1  0
 11 12  1  0
 12 13  2  0
  3 14  1  0
 14 15  1  0
 14 16  2  0
 16 17  1  0
 17 18  1  0
 18 19  1  0
 19 20  2  0
 20 21  1  0
 21 22  2  0
 22 23  1  0
 23 24  1  0
 23 25  2  0
 17  2  1  0
 25 19  1  0
 12  5  1  0
M  CHG  3   7  -1   8  -1  11  -1
M  END
>  <UniqueID>  (1033) 
5

>  <SMILES>  (1033) 
C=c1/c(=C\c2c([O-])[n-]c(=S)[n-]c2=O)c(C)nn1Cc1cccc(C)c1

>  <Energy>  (1033) 
86.41030973407639

>  <Genealogy>  (1033) 
C=c1c(=Cc2c([O-])[n-]c(=S)[n-]c2=O)c(C)nn1Cc1cccc(C)c1 (protonated)
C=c1/c(=C\c2c([O-])[n-]c(=S)[n-]c2=O)c(C)nn1Cc1cccc(C)c1 (cis-trans isomerization)
C=c1/c(=C\c2c([O-])[n-]c(=S)[n-]c2=O)c(C)nn1Cc1cccc(C)c1 (3D coordinates assigned)
C=c1/c(=C\c2c([O-])[n-]c(=S)[n-]c2=O)c(C)nn1Cc1cccc(C)c1 (optimized conformer: 86.41030973407639 kcal/mol)

>  <smiles>  (1033) 
C=c1c(=Cc2c(O)[nH]c(=S)[nH]c2=O)c(C)nn1Cc1cccc(C)c1

>  <score_type>  (1033) 
oracle

>  <origin>  (1033) 
adg

>  <m_score__min__energy>  (1033) 
-16.079999999999998

>  <m_primary>  (1033) 
energy

$$$$
11:0
     RDKit          3D

 25 27  0  0  0  0  0  0  0  0999 V2000
   55.8320   28.9920   44.8730 N   0  0  0  0  0  0  0  0  0  0  0  0
   57.1950   27.9750   45.1790 S   0  0  0  0  0  0  0  0  0  0  0  0
   56.7490   26.7520   45.9300 O   0  0  0  0  0  0  0  0  0  0  0  0
   57.8020   27.5450   43.8740 O   0  0  0  0  0  0  0  0  0  0  0  0
   58.3870   28.8600   46.1270 C   0  0  0  0  0  0  0  0  0  0  0  0
   59.5040   29.4250   45.5000 C   0  0  0  0  0  0  0  0  0  0  0  0
   60.4500   30.1250   46.2520 C   0  0  0  0  0  0  0  0  0  0  0  0
   60.2910   30.2570   47.6330 C   0  0  0  0  0  0  0  0  0  0  0  0
   59.1850   29.6830   48.2820 C   0  0  0  0  0  0  0  0  0  0  0  0
   59.0290   29.8360   49.7500 C   0  0  0  0  0  0  0  0  0  0  0  0
   60.1380   29.9660   50.6040 C   0  0  0  0  0  0  0  0  0  0  0  0
   59.9420   30.1160   51.9400 N   0  0  0  0  0  0  0  0  0  0  0  0
   58.6930   30.1440   52.4730 C   0  0  0  0  0  0  0  0  0  0  0  0
   57.5840   30.0220   51.6330 C   0  0  0  0  0  0  0  0  0  0  0  0
   56.3850   30.0490   52.1380 N   0  0  0  0  0  0  0  0  0  0  0  0
   55.5700   31.2530   52.2950 C   0  0  0  0  0  0  0  0  0  0  0  0
   54.1120   30.9510   52.0620 C   0  0  0  0  0  0  0  0  0  0  0  0
   53.6040   29.6650   52.3070 C   0  0  0  0  0  0  0  0  0  0  0  0
   52.2520   29.3880   52.0800 C   0  0  0  0  0  0  0  0  0  0  0  0
   51.3990   30.3910   51.6140 C   0  0  0  0  0  0  0  0  0  0  0  0
   51.8950   31.6760   51.3770 C   0  0  0  0  0  0  0  0  0  0  0  0
   51.0460   32.6740   50.9160 O   0  0  0  0  0  0  0  0  0  0  0  0
   53.2480   31.9580   51.6010 C   0  0  0  0  0  0  0  0  0  0  0  0
   57.7820   29.8730   50.2930 N   0  0  0  0  0  0  0  0  0  0  0  0
   58.2310   28.9850   47.5140 C   0  0  0  0  0  0  0  0  0  0  0  0
  1  2  1  0
  2  3  2  0
  2  4  2  0
  2  5  1  0
  5  6  2  0
  6  7  1  0
  7  8  2  0
  8  9  1  0
  9 10  1  0
 10 11  2  0
 11 12  1  0
 12 13  2  0
 13 14  1  0
 14 15  2  3
 15 16  1  0
 16 17  1  0
 17 18  2  0
 18 19  1  0
 19 20  2  0
 20 21  1  0
 21 22  1  0
 21 23  2  0
 14 24  1  0
  9 25  2  0
 25  5  1  0
 24 10  1  0
 23 17  1  0
M  CHG  3   1  -1  22  -1  24  -1
M  END
>  <UniqueID>  (1034) 
12

>  <SMILES>  (1034) 
[NH-]S(=O)(=O)c1cccc(-c2cncc(=NCc3cccc([O-])c3)[n-]2)c1

>  <Energy>  (1034) 
44.449322579342756

>  <Genealogy>  (1034) 
[NH-]S(=O)(=O)c1cccc(-c2cncc(=NCc3cccc([O-])c3)[n-]2)c1 (protonated)
[NH-]S(=O)(=O)c1cccc(-c2cncc(=NCc3cccc([O-])c3)[n-]2)c1 (3D coordinates assigned)
[NH-]S(=O)(=O)c1cccc(-c2cncc(=NCc3cccc([O-])c3)[n-]2)c1 (optimized conformer: 44.449322579342756 kcal/mol)

>  <smiles>  (1034) 
NS(=O)(=O)c1cccc(-c2cncc(=NCc3cccc(O)c3)[nH]2)c1

>  <score_type>  (1034) 
oracle

>  <origin>  (1034) 
adg

>  <m_score__min__energy>  (1034) 
-15.56

>  <m_primary>  (1034) 
energy

$$$$
27:0
     RDKit          3D

 21 23  0  0  0  0  0  0  0  0999 V2000
   56.0880   22.0060   43.1990 O   0  0  0  0  0  0  0  0  0  0  0  0
   55.6790   22.8190   44.0690 C   0  0  0  0  0  0  0  0  0  0  0  0
   56.5330   23.8100   44.5600 C   0  0  0  0  0  0  0  0  0  0  0  0
   56.0450   24.7020   45.5300 C   0  0  0  0  0  0  0  0  0  0  0  0
   56.8820   25.7840   46.1080 C   0  0  0  0  0  0  0  0  0  0  0  0
   57.9510   25.5740   46.9890 C   0  0  0  0  0  0  0  0  0  0  0  0
   58.6210   27.0700   47.3740 S   0  0  0  0  0  0  0  0  0  0  0  0
   57.5270   27.9230   46.4340 C   0  0  0  0  0  0  0  0  0  0  0  0
   57.5630   29.2170   46.2970 N   0  0  0  0  0  0  0  0  0  0  0  0
   57.3590   29.9480   45.0770 C   0  0  0  0  0  0  0  0  0  0  0  0
   58.3820   30.7370   44.5230 C   0  0  0  0  0  0  0  0  0  0  0  0
   58.1810   31.4000   43.3080 C   0  0  0  0  0  0  0  0  0  0  0  0
   56.9690   31.2620   42.6280 C   0  0  0  0  0  0  0  0  0  0  0  0
   55.9600   30.4510   43.1550 C   0  0  0  0  0  0  0  0  0  0  0  0
   56.1560   29.7860   44.3720 C   0  0  0  0  0  0  0  0  0  0  0  0
   55.1500   28.9720   44.8790 O   0  0  0  0  0  0  0  0  0  0  0  0
   56.6610   27.0950   45.8050 N   0  0  0  0  0  0  0  0  0  0  0  0
   54.7570   24.5690   45.9530 N   0  0  0  0  0  0  0  0  0  0  0  0
   53.9430   23.5990   45.4650 C   0  0  0  0  0  0  0  0  0  0  0  0
   52.4070   23.4770   46.0030 S   0  0  0  0  0  0  0  0  0  0  0  0
   54.4060   22.7320   44.5290 N   0  0  0  0  0  0  0  0  0  0  0  0
  1  2  2  0
  2  3  1  0
  3  4  2  0
  4  5  1  0
  5  6  2  0
  6  7  1  0
  7  8  1  0
  8  9  2  3
  9 10  1  0
 10 11  2  0
 11 12  1  0
 12 13  2  0
 13 14  1  0
 14 15  2  0
 15 16  1  0
  8 17  1  0
  4 18  1  0
 18 19  1  0
 19 20  2  0
 19 21  1  0
 21  2  1  0
 17  5  1  0
 15 10  1  0
M  CHG  3  16  -1  18  -1  21  -1
M  END
>  <UniqueID>  (1035) 
28

>  <SMILES>  (1035) 
O=c1cc(-c2csc(=Nc3ccccc3[O-])[nH]2)[n-]c(=S)[n-]1

>  <Energy>  (1035) 
70.95840795188849

>  <Genealogy>  (1035) 
O=c1cc(-c2csc(=Nc3ccccc3[O-])[nH]2)[n-]c(=S)[n-]1 (protonated)
O=c1cc(-c2csc(=Nc3ccccc3[O-])[nH]2)[n-]c(=S)[n-]1 (3D coordinates assigned)
O=c1cc(-c2csc(=Nc3ccccc3[O-])[nH]2)[n-]c(=S)[n-]1 (optimized conformer: 70.95840795188849 kcal/mol)

>  <smiles>  (1035) 
O=c1cc(-c2csc(=Nc3ccccc3O)[nH]2)[nH]c(=S)[nH]1

>  <score_type>  (1035) 
oracle

>  <origin>  (1035) 
adg

>  <m_score__min__energy>  (1035) 
-14.289999999999999

>  <m_primary>  (1035) 
energy

$$$$
44:0
     RDKit          3D

 24 25  0  0  0  0  0  0  0  0999 V2000
   56.2900   24.1120   44.0840 C   0  0  0  0  0  0  0  0  0  0  0  0
   57.2720   23.7530   45.1900 C   0  0  0  0  0  0  0  0  0  0  0  0
   56.6610   24.2700   46.7920 S   0  0  0  0  0  0  0  0  0  0  0  0
   55.1630   24.3520   46.7200 O   0  0  0  0  0  0  0  0  0  0  0  0
   57.0390   23.2600   47.8390 O   0  0  0  0  0  0  0  0  0  0  0  0
   57.2770   25.8340   47.2300 N   0  0  0  0  0  0  0  0  0  0  0  0
   57.7580   26.8330   46.3200 C   0  0  0  0  0  0  0  0  0  0  0  0
   59.1430   26.9610   46.1580 C   0  0  0  0  0  0  0  0  0  0  0  0
   59.6720   27.9550   45.3320 C   0  0  0  0  0  0  0  0  0  0  0  0
   58.8200   28.8350   44.6640 C   0  0  0  0  0  0  0  0  0  0  0  0
   57.4310   28.7090   44.7940 C   0  0  0  0  0  0  0  0  0  0  0  0
   56.3700   29.8730   43.9960 S   0  0  0  0  0  0  0  0  0  0  0  0
   55.9240   29.3570   42.6560 O   0  0  0  0  0  0  0  0  0  0  0  0
   55.1620   30.0990   44.8600 O   0  0  0  0  0  0  0  0  0  0  0  0
   57.1990   31.3850   43.7720 N   0  0  0  0  0  0  0  0  0  0  0  0
   57.6450   32.1720   44.7080 C   0  0  0  0  0  0  0  0  0  0  0  0
   58.0650   33.4930   44.4560 C   0  0  0  0  0  0  0  0  0  0  0  0
   58.5810   34.2630   45.5000 C   0  0  0  0  0  0  0  0  0  0  0  0
   58.6590   33.7310   46.7920 C   0  0  0  0  0  0  0  0  0  0  0  0
   59.2640   34.5280   47.9090 C   0  0  0  0  0  0  0  0  0  0  0  0
   58.2300   32.4160   47.0060 C   0  0  0  0  0  0  0  0  0  0  0  0
   57.7360   31.6820   45.9740 N   0  0  0  0  0  0  0  0  0  0  0  0
   56.8960   27.6790   45.5900 C   0  0  0  0  0  0  0  0  0  0  0  0
   55.5210   27.4840   45.6230 O   0  0  0  0  0  0  0  0  0  0  0  0
  1  2  1  0
  2  3  1  0
  3  4  2  0
  3  5  2  0
  3  6  1  0
  6  7  1  0
  7  8  2  0
  8  9  1  0
  9 10  2  0
 10 11  1  0
 11 12  1  0
 12 13  2  0
 12 14  2  0
 12 15  1  0
 15 16  2  3
 16 17  1  0
 17 18  2  0
 18 19  1  0
 19 20  1  0
 19 21  2  0
 21 22  1  0
 11 23  2  0
 23 24  1  0
 23  7  1  0
 22 16  1  0
M  CHG  3   6  -1  22  -1  24  -1
M  END
>  <UniqueID>  (1036) 
42

>  <SMILES>  (1036) 
CCS(=O)(=O)[N-]c1cccc(S(=O)(=O)N=c2ccc(C)c[n-]2)c1[O-]

>  <Energy>  (1036) 
41.70654755873302

>  <Genealogy>  (1036) 
CCS(=O)(=O)[N-]c1cccc(S(=O)(=O)N=c2ccc(C)c[n-]2)c1[O-] (protonated)
CCS(=O)(=O)[N-]c1cccc(S(=O)(=O)N=c2ccc(C)c[n-]2)c1[O-] (3D coordinates assigned)
CCS(=O)(=O)[N-]c1cccc(S(=O)(=O)N=c2ccc(C)c[n-]2)c1[O-] (optimized conformer: 41.70654755873302 kcal/mol)

>  <smiles>  (1036) 
CCS(=O)(=O)Nc1cccc(S(=O)(=O)N=c2ccc(C)c[nH]2)c1O

>  <score_type>  (1036) 
oracle

>  <origin>  (1036) 
adg

>  <m_score__min__energy>  (1036) 
-15.75

>  <m_primary>  (1036) 
energy

$$$$
54:0
     RDKit          3D

 23 25  0  0  0  0  0  0  0  0999 V2000
   56.5590   30.3210   43.3410 C   0  0  0  0  0  0  0  0  0  0  0  0
   58.1260   30.9150   43.4750 S   0  0  0  0  0  0  0  0  0  0  0  0
   58.2330   30.5840   45.1220 C   0  0  0  0  0  0  0  0  0  0  0  0
   59.3970   30.9300   45.9900 C   0  0  0  0  0  0  0  0  0  0  0  0
   59.7600   29.7580   46.8470 C   0  0  0  0  0  0  0  0  0  0  0  0
   60.0020   28.5290   46.3120 N   0  0  0  0  0  0  0  0  0  0  0  0
   60.3530   27.6340   47.2580 C   0  0  0  0  0  0  0  0  0  0  0  0
   60.6610   26.4050   46.9660 N   0  0  0  0  0  0  0  0  0  0  0  0
   59.7750   25.4220   46.4100 C   0  0  0  0  0  0  0  0  0  0  0  0
   60.2720   24.3730   45.9230 O   0  0  0  0  0  0  0  0  0  0  0  0
   58.3120   25.6510   46.3120 C   0  0  0  0  0  0  0  0  0  0  0  0
   57.8250   26.8410   45.7400 C   0  0  0  0  0  0  0  0  0  0  0  0
   56.4500   27.0640   45.6290 C   0  0  0  0  0  0  0  0  0  0  0  0
   55.5450   26.1000   46.0800 C   0  0  0  0  0  0  0  0  0  0  0  0
   54.1780   26.3240   45.9690 O   0  0  0  0  0  0  0  0  0  0  0  0
   56.0150   24.9100   46.6420 C   0  0  0  0  0  0  0  0  0  0  0  0
   57.3900   24.6810   46.7600 C   0  0  0  0  0  0  0  0  0  0  0  0
   57.8300   23.4930   47.3370 O   0  0  0  0  0  0  0  0  0  0  0  0
   60.4120   28.3400   48.7900 S   0  0  0  0  0  0  0  0  0  0  0  0
   59.9440   29.8530   48.2250 C   0  0  0  0  0  0  0  0  0  0  0  0
   57.0860   30.0450   45.5920 N   0  0  0  0  0  0  0  0  0  0  0  0
   56.1650   29.8930   44.6030 C   0  0  0  0  0  0  0  0  0  0  0  0
   54.9120   29.3500   44.8500 O   0  0  0  0  0  0  0  0  0  0  0  0
  1  2  1  0
  2  3  1  0
  3  4  1  0
  4  5  1  0
  5  6  1  0
  6  7  1  0
  7  8  2  0
  8  9  1  0
  9 10  2  0
  9 11  1  0
 11 12  2  0
 12 13  1  0
 13 14  2  0
 14 15  1  0
 14 16  1  0
 16 17  2  0
 17 18  1  0
  7 19  1  0
 19 20  1  0
  3 21  2  0
 21 22  1  0
 22 23  1  0
 22  1  2  0
 20  5  2  0
 17 11  1  0
M  CHG  4   6  -1  15  -1  18  -1  23  -1
M  END
>  <UniqueID>  (1037) 
50

>  <SMILES>  (1037) 
O=C(/N=c1/[n-]c(Cc2nc([O-])cs2)cs1)c1ccc([O-])cc1[O-]

>  <Energy>  (1037) 
99.60709054900387

>  <Genealogy>  (1037) 
O=C(N=c1[n-]c(Cc2nc([O-])cs2)cs1)c1ccc([O-])cc1[O-] (protonated)
O=C(/N=c1/[n-]c(Cc2nc([O-])cs2)cs1)c1ccc([O-])cc1[O-] (cis-trans isomerization)
O=C(/N=c1/[n-]c(Cc2nc([O-])cs2)cs1)c1ccc([O-])cc1[O-] (3D coordinates assigned)
O=C(/N=c1/[n-]c(Cc2nc([O-])cs2)cs1)c1ccc([O-])cc1[O-] (optimized conformer: 99.60709054900387 kcal/mol)

>  <smiles>  (1037) 
O=C(N=c1[nH]c(Cc2nc(O)cs2)cs1)c1ccc(O)cc1O

>  <score_type>  (1037) 
oracle

>  <origin>  (1037) 
adg

>  <m_score__min__energy>  (1037) 
-16.969999999999999

>  <m_primary>  (1037) 
energy

$$$$
70:0
     RDKit          3D

 33 37  0  0  0  0  0  0  0  0999 V2000
   59.7540   29.1770   46.2560 C   0  0  0  0  0  0  0  0  0  0  0  0
   58.5930   29.0180   45.6010 C   0  0  0  0  0  0  0  0  0  0  0  0
   57.9020   27.8150   45.3750 C   0  0  0  0  0  0  0  0  0  0  0  0
   58.2680   26.5330   45.5710 C   0  0  0  0  0  0  0  0  0  0  0  0
   57.5200   25.5350   46.3470 C   0  0  0  0  0  0  0  0  0  0  0  0
   58.1080   24.5320   47.0230 N   0  0  0  0  0  0  0  0  0  0  0  0
   57.0760   23.9360   47.6570 C   0  0  0  0  0  0  0  0  0  0  0  0
   57.2260   22.9260   48.3940 O   0  0  0  0  0  0  0  0  0  0  0  0
   55.8730   24.5110   47.4500 N   0  0  0  0  0  0  0  0  0  0  0  0
   56.1690   25.5340   46.6300 C   0  0  0  0  0  0  0  0  0  0  0  0
   55.2230   26.4510   46.1800 O   0  0  0  0  0  0  0  0  0  0  0  0
   56.6660   28.1700   44.8580 C   0  0  0  0  0  0  0  0  0  0  0  0
   56.6670   29.5420   44.7240 C   0  0  0  0  0  0  0  0  0  0  0  0
   55.5210   30.3440   44.1830 C   0  0  0  0  0  0  0  0  0  0  0  0
   57.8320   30.0580   45.1730 N   0  0  0  0  0  0  0  0  0  0  0  0
   58.1730   31.4560   45.2080 C   0  0  0  0  0  0  0  0  0  0  0  0
   58.0710   32.2320   44.0450 C   0  0  0  0  0  0  0  0  0  0  0  0
   58.3870   33.5920   44.0780 C   0  0  0  0  0  0  0  0  0  0  0  0
   58.8100   34.1850   45.2710 C   0  0  0  0  0  0  0  0  0  0  0  0
   58.9320   33.4190   46.4410 C   0  0  0  0  0  0  0  0  0  0  0  0
   59.3710   34.0420   47.7080 C   0  0  0  0  0  0  0  0  0  0  0  0
   58.9350   35.1840   48.0200 O   0  0  0  0  0  0  0  0  0  0  0  0
   60.2610   33.3540   48.6030 N   0  0  0  0  0  0  0  0  0  0  0  0
   59.9130   33.0130   49.9870 C   0  0  0  0  0  0  0  0  0  0  0  0
   61.2470   32.7090   50.7090 C   0  0  0  0  0  0  0  0  0  0  0  0
   62.2690   32.9200   49.6470 C   0  0  0  0  0  0  0  0  0  0  0  0
   63.6550   32.7720   49.7420 C   0  0  0  0  0  0  0  0  0  0  0  0
   64.2350   32.4080   50.9120 F   0  0  0  0  0  0  0  0  0  0  0  0
   64.4350   33.0050   48.5990 C   0  0  0  0  0  0  0  0  0  0  0  0
   63.8210   33.3710   47.3860 C   0  0  0  0  0  0  0  0  0  0  0  0
   62.4250   33.5110   47.3130 C   0  0  0  0  0  0  0  0  0  0  0  0
   61.6730   33.2890   48.4730 C   0  0  0  0  0  0  0  0  0  0  0  0
   58.5980   32.0540   46.4040 C   0  0  0  0  0  0  0  0  0  0  0  0
  1  2  2  0
  2  3  1  0
  3  4  2  3
  4  5  1  0
  5  6  1  0
  6  7  1  0
  7  8  2  0
  7  9  1  0
  9 10  1  0
 10 11  1  0
  3 12  1  0
 12 13  2  0
 13 14  1  0
 13 15  1  0
 15 16  1  0
 16 17  2  0
 17 18  1  0
 18 19  2  0
 19 20  1  0
 20 21  1  0
 21 22  2  0
 21 23  1  0
 23 24  1  0
 24 25  1  0
 25 26  1  0
 26 27  2  0
 27 28  1  0
 27 29  1  0
 29 30  2  0
 30 31  1  0
 31 32  2  0
 20 33  2  0
 15  2  1  0
 33 16  1  0
 10  5  2  0
 32 23  1  0
 32 26  1  0
M  CHG  2   6  -1   9  -1
M  END
>  <UniqueID>  (1038) 
66

>  <SMILES>  (1038) 
C=c1c(=Cc2[n-]c(=O)[n-]c2O)cc(C)n1-c1cccc(C(=O)N2CCc3c(F)cccc32)c1

>  <Energy>  (1038) 
153.13968144466114

>  <Genealogy>  (1038) 
C=c1c(=Cc2[n-]c(=O)[n-]c2O)cc(C)n1-c1cccc(C(=O)N2CCc3c(F)cccc32)c1 (protonated)
C=c1c(=Cc2[n-]c(=O)[n-]c2O)cc(C)n1-c1cccc(C(=O)N2CCc3c(F)cccc32)c1 (3D coordinates assigned)
C=c1c(=Cc2[n-]c(=O)[n-]c2O)cc(C)n1-c1cccc(C(=O)N2CCc3c(F)cccc32)c1 (nonaromatic ring conformer: 153.13968144466114 kcal/mol)

>  <smiles>  (1038) 
C=c1c(=Cc2[nH]c(=O)[nH]c2O)cc(C)n1-c1cccc(C(=O)N2CCc3c(F)cccc32)c1

>  <score_type>  (1038) 
oracle

>  <origin>  (1038) 
adg

>  <m_score__min__energy>  (1038) 
-15.390000000000001

>  <m_primary>  (1038) 
energy

$$$$
77:0
     RDKit          3D

 31 34  0  0  0  0  0  0  0  0999 V2000
   51.9930   29.6460   48.5860 C   0  0  0  0  0  0  0  0  0  0  0  0
   52.6150   29.7260   49.7920 N   0  0  0  0  0  0  0  0  0  0  0  0
   52.3000   30.6730   50.7180 C   0  0  0  0  0  0  0  0  0  0  0  0
   52.9330   30.6390   51.8590 N   0  0  0  0  0  0  0  0  0  0  0  0
   53.6970   29.5640   52.4220 C   0  0  0  0  0  0  0  0  0  0  0  0
   53.1050   28.5000   52.7480 O   0  0  0  0  0  0  0  0  0  0  0  0
   55.1320   29.7420   52.7340 C   0  0  0  0  0  0  0  0  0  0  0  0
   55.9750   30.1780   51.7590 N   0  0  0  0  0  0  0  0  0  0  0  0
   57.3070   30.3630   51.9650 C   0  0  0  0  0  0  0  0  0  0  0  0
   58.1480   30.8320   50.8480 C   0  0  0  0  0  0  0  0  0  0  0  0
   59.2250   30.2370   50.5740 O   0  0  0  0  0  0  0  0  0  0  0  0
   57.7340   31.9610   50.0650 N   0  0  0  0  0  0  0  0  0  0  0  0
   58.6480   32.7390   49.2780 C   0  0  0  0  0  0  0  0  0  0  0  0
   58.4680   32.7940   47.8890 C   0  0  0  0  0  0  0  0  0  0  0  0
   59.3500   33.5250   47.0890 C   0  0  0  0  0  0  0  0  0  0  0  0
   60.4110   34.2180   47.6730 C   0  0  0  0  0  0  0  0  0  0  0  0
   60.5860   34.1970   49.0580 C   0  0  0  0  0  0  0  0  0  0  0  0
   59.7030   33.4710   49.8750 C   0  0  0  0  0  0  0  0  0  0  0  0
   59.8460   33.5310   51.3060 N   0  0  0  0  0  0  0  0  0  0  0  0
   58.8160   34.2040   52.1100 C   0  0  0  0  0  0  0  0  0  0  0  0
   58.7420   33.6280   53.5430 C   0  0  0  0  0  0  0  0  0  0  0  0
   59.6830   32.5960   53.7790 O   0  0  0  0  0  0  0  0  0  0  0  0
   60.9770   33.0490   53.4430 C   0  0  0  0  0  0  0  0  0  0  0  0
   61.1160   33.1270   51.9220 C   0  0  0  0  0  0  0  0  0  0  0  0
   57.8440   30.1190   53.2380 C   0  0  0  0  0  0  0  0  0  0  0  0
   57.0040   29.6760   54.2610 C   0  0  0  0  0  0  0  0  0  0  0  0
   55.6440   29.4820   54.0150 C   0  0  0  0  0  0  0  0  0  0  0  0
   51.3220   31.6480   50.3890 C   0  0  0  0  0  0  0  0  0  0  0  0
   51.0230   32.7150   51.2290 O   0  0  0  0  0  0  0  0  0  0  0  0
   50.6620   31.5620   49.1610 C   0  0  0  0  0  0  0  0  0  0  0  0
   50.9920   30.5560   48.2550 C   0  0  0  0  0  0  0  0  0  0  0  0
  1  2  1  0
  2  3  1  0
  3  4  2  0
  4  5  1  0
  5  6  2  0
  5  7  1  0
  7  8  2  0
  8  9  1  0
  9 10  1  0
 10 11  2  0
 10 12  1  0
 12 13  1  0
 13 14  2  0
 14 15  1  0
 15 16  2  0
 16 17  1  0
 17 18  2  0
 18 19  1  0
 19 20  1  0
 20 21  1  0
 21 22  1  0
 22 23  1  0
 23 24  1  0
  9 25  2  0
 25 26  1  0
 26 27  2  0
  3 28  1  0
 28 29  1  0
 28 30  2  0
 30 31  1  0
 31  1  2  0
 27  7  1  0
 18 13  1  0
 24 19  1  0
M  CHG  2   2  -1  29  -1
M  END
>  <UniqueID>  (1039) 
73

>  <SMILES>  (1039) 
O=C(/N=c1/[n-]cccc1[O-])c1cccc(C(=O)Nc2ccccc2N2CCOCC2)n1

>  <Energy>  (1039) 
80.79950069488838

>  <Genealogy>  (1039) 
O=C(N=c1[n-]cccc1[O-])c1cccc(C(=O)Nc2ccccc2N2CCOCC2)n1 (protonated)
O=C(/N=c1/[n-]cccc1[O-])c1cccc(C(=O)Nc2ccccc2N2CCOCC2)n1 (cis-trans isomerization)
O=C(/N=c1/[n-]cccc1[O-])c1cccc(C(=O)Nc2ccccc2N2CCOCC2)n1 (3D coordinates assigned)
O=C(/N=c1/[n-]cccc1[O-])c1cccc(C(=O)Nc2ccccc2N2CCOCC2)n1 (nonaromatic ring conformer: 80.79950069488838 kcal/mol)

>  <smiles>  (1039) 
O=C(N=c1[nH]cccc1O)c1cccc(C(=O)Nc2ccccc2N2CCOCC2)n1

>  <score_type>  (1039) 
oracle

>  <origin>  (1039) 
adg

>  <m_score__min__energy>  (1039) 
-14.789999999999999

>  <m_primary>  (1039) 
energy

$$$$
80:0
     RDKit          3D

 24 26  0  0  0  0  0  0  0  0999 V2000
   59.0630   27.7710   47.8280 O   0  0  0  0  0  0  0  0  0  0  0  0
   58.2490   27.3350   46.9700 C   0  0  0  0  0  0  0  0  0  0  0  0
   57.3300   26.3060   47.3580 N   0  0  0  0  0  0  0  0  0  0  0  0
   56.7580   25.3090   46.4990 C   0  0  0  0  0  0  0  0  0  0  0  0
   57.4820   24.1370   46.2520 C   0  0  0  0  0  0  0  0  0  0  0  0
   56.9630   23.1470   45.4130 C   0  0  0  0  0  0  0  0  0  0  0  0
   55.7230   23.3300   44.7990 C   0  0  0  0  0  0  0  0  0  0  0  0
   55.0060   24.5110   45.0120 C   0  0  0  0  0  0  0  0  0  0  0  0
   55.5220   25.5080   45.8470 C   0  0  0  0  0  0  0  0  0  0  0  0
   54.8170   26.6970   45.9980 O   0  0  0  0  0  0  0  0  0  0  0  0
   58.2020   27.9590   45.6280 C   0  0  0  0  0  0  0  0  0  0  0  0
   58.3410   27.2350   44.6060 O   0  0  0  0  0  0  0  0  0  0  0  0
   57.9370   29.4090   45.4550 C   0  0  0  0  0  0  0  0  0  0  0  0
   56.6950   29.8640   44.9670 C   0  0  0  0  0  0  0  0  0  0  0  0
   55.6810   28.9610   44.6580 O   0  0  0  0  0  0  0  0  0  0  0  0
   56.4660   31.1940   44.8150 N   0  0  0  0  0  0  0  0  0  0  0  0
   57.3970   32.1310   45.1280 C   0  0  0  0  0  0  0  0  0  0  0  0
   57.1070   33.4890   44.9510 C   0  0  0  0  0  0  0  0  0  0  0  0
   58.0590   34.4580   45.2760 C   0  0  0  0  0  0  0  0  0  0  0  0
   59.3050   34.0750   45.7800 C   0  0  0  0  0  0  0  0  0  0  0  0
   59.6060   32.7210   45.9620 C   0  0  0  0  0  0  0  0  0  0  0  0
   58.6540   31.7350   45.6370 C   0  0  0  0  0  0  0  0  0  0  0  0
   58.9190   30.3620   45.8010 C   0  0  0  0  0  0  0  0  0  0  0  0
   60.0400   29.9810   46.2420 O   0  0  0  0  0  0  0  0  0  0  0  0
  1  2  2  0
  2  3  1  0
  3  4  1  0
  4  5  2  0
  5  6  1  0
  6  7  2  0
  7  8  1  0
  8  9  2  0
  9 10  1  0
  2 11  1  0
 11 12  2  0
 11 13  1  0
 13 14  2  0
 14 15  1  0
 14 16  1  0
 16 17  1  0
 17 18  2  0
 18 19  1  0
 19 20  2  0
 20 21  1  0
 21 22  2  0
 22 23  1  0
 23 24  2  0
  9  4  1  0
 23 13  1  0
 22 17  1  0
M  CHG  3   3  -1  10  -1  16  -1
M  END
>  <UniqueID>  (1040) 
76

>  <SMILES>  (1040) 
O=C([N-]c1ccccc1[O-])C(=O)c1c(O)[n-]c2ccccc2c1=O

>  <Energy>  (1040) 
53.63392444262738

>  <Genealogy>  (1040) 
O=C([N-]c1ccccc1[O-])C(=O)c1c(O)[n-]c2ccccc2c1=O (protonated)
O=C([N-]c1ccccc1[O-])C(=O)c1c(O)[n-]c2ccccc2c1=O (3D coordinates assigned)
O=C([N-]c1ccccc1[O-])C(=O)c1c(O)[n-]c2ccccc2c1=O (optimized conformer: 53.63392444262738 kcal/mol)

>  <smiles>  (1040) 
O=C(Nc1ccccc1O)C(=O)c1c(O)[nH]c2ccccc2c1=O

>  <score_type>  (1040) 
oracle

>  <origin>  (1040) 
adg

>  <m_score__min__energy>  (1040) 
-15.359999999999999

>  <m_primary>  (1040) 
energy

$$$$
81:0
     RDKit          3D

 35 38  0  0  0  0  0  0  0  0999 V2000
   57.5970   29.3480   43.9740 C   0  0  0  0  0  0  0  0  0  0  0  0
   58.0620   29.2200   45.2270 C   0  0  0  0  0  0  0  0  0  0  0  0
   58.3340   28.0200   45.8940 C   0  0  0  0  0  0  0  0  0  0  0  0
   58.1660   26.7690   45.4230 C   0  0  0  0  0  0  0  0  0  0  0  0
   57.3830   25.7270   46.1110 C   0  0  0  0  0  0  0  0  0  0  0  0
   57.9390   24.6530   46.6980 N   0  0  0  0  0  0  0  0  0  0  0  0
   56.8870   24.0250   47.2650 C   0  0  0  0  0  0  0  0  0  0  0  0
   57.0070   22.9490   47.9080 O   0  0  0  0  0  0  0  0  0  0  0  0
   55.7000   24.6440   47.0990 N   0  0  0  0  0  0  0  0  0  0  0  0
   56.0310   25.7260   46.3770 C   0  0  0  0  0  0  0  0  0  0  0  0
   55.1230   26.7140   46.0140 O   0  0  0  0  0  0  0  0  0  0  0  0
   58.7540   28.3710   47.1710 C   0  0  0  0  0  0  0  0  0  0  0  0
   58.7430   29.7490   47.2270 C   0  0  0  0  0  0  0  0  0  0  0  0
   59.1060   30.5540   48.4380 C   0  0  0  0  0  0  0  0  0  0  0  0
   58.3180   30.2670   46.0520 N   0  0  0  0  0  0  0  0  0  0  0  0
   58.1810   31.6670   45.7520 C   0  0  0  0  0  0  0  0  0  0  0  0
   57.1650   32.1100   44.8950 C   0  0  0  0  0  0  0  0  0  0  0  0
   57.0270   33.4700   44.6150 C   0  0  0  0  0  0  0  0  0  0  0  0
   57.8960   34.3980   45.1920 C   0  0  0  0  0  0  0  0  0  0  0  0
   58.9100   33.9720   46.0680 C   0  0  0  0  0  0  0  0  0  0  0  0
   59.8350   34.9490   46.6890 C   0  0  0  0  0  0  0  0  0  0  0  0
   60.0400   36.0540   46.1210 O   0  0  0  0  0  0  0  0  0  0  0  0
   60.4710   34.6980   47.9500 N   0  0  0  0  0  0  0  0  0  0  0  0
   61.6590   33.9170   48.1580 C   0  0  0  0  0  0  0  0  0  0  0  0
   62.4730   33.5280   47.0780 C   0  0  0  0  0  0  0  0  0  0  0  0
   63.6310   32.7810   47.3020 C   0  0  0  0  0  0  0  0  0  0  0  0
   63.9950   32.4310   48.6020 C   0  0  0  0  0  0  0  0  0  0  0  0
   63.2070   32.8310   49.6840 C   0  0  0  0  0  0  0  0  0  0  0  0
   62.0350   33.5830   49.4700 C   0  0  0  0  0  0  0  0  0  0  0  0
   61.2140   34.0100   50.5260 O   0  0  0  0  0  0  0  0  0  0  0  0
   59.6710   33.3670   50.8870 S   0  0  0  0  0  0  0  0  0  0  0  0
   58.9290   34.2990   51.8040 O   0  0  0  0  0  0  0  0  0  0  0  0
   58.8860   33.1750   49.6200 O   0  0  0  0  0  0  0  0  0  0  0  0
   59.8750   31.7950   51.6920 C   0  0  0  0  0  0  0  0  0  0  0  0
   59.0520   32.6000   46.3340 C   0  0  0  0  0  0  0  0  0  0  0  0
  1  2  2  0
  2  3  1  0
  3  4  2  0
  4  5  1  0
  5  6  1  0
  6  7  1  0
  7  8  2  0
  7  9  1  0
  9 10  1  0
 10 11  1  0
  3 12  1  0
 12 13  2  0
 13 14  1  0
 13 15  1  0
 15 16  1  0
 16 17  2  0
 17 18  1  0
 18 19  2  0
 19 20  1  0
 20 21  1  0
 21 22  2  0
 21 23  1  0
 23 24  1  0
 24 25  2  0
 25 26  1  0
 26 27  2  0
 27 28  1  0
 28 29  2  0
 29 30  1  0
 30 31  1  0
 31 32  2  0
 31 33  2  0
 31 34  1  0
 20 35  2  0
 15  2  1  0
 35 16  1  0
 10  5  2  0
 29 24  1  0
M  CHG  4   6  -1   9  -1  11  -1  23  -1
M  END
>  <UniqueID>  (1041) 
77

>  <SMILES>  (1041) 
C=c1/c(=C/c2[n-]c(=O)[n-]c2[O-])cc(C)n1-c1cccc(C(=O)[N-]c2ccccc2OS(C)(=O)=O)c1

>  <Energy>  (1041) 
130.90585295236414

>  <Genealogy>  (1041) 
C=c1c(=Cc2[n-]c(=O)[n-]c2[O-])cc(C)n1-c1cccc(C(=O)[N-]c2ccccc2OS(C)(=O)=O)c1 (protonated)
C=c1/c(=C/c2[n-]c(=O)[n-]c2[O-])cc(C)n1-c1cccc(C(=O)[N-]c2ccccc2OS(C)(=O)=O)c1 (cis-trans isomerization)
C=c1/c(=C/c2[n-]c(=O)[n-]c2[O-])cc(C)n1-c1cccc(C(=O)[N-]c2ccccc2OS(C)(=O)=O)c1 (3D coordinates assigned)
C=c1/c(=C/c2[n-]c(=O)[n-]c2[O-])cc(C)n1-c1cccc(C(=O)[N-]c2ccccc2OS(C)(=O)=O)c1 (optimized conformer: 130.90585295236414 kcal/mol)

>  <smiles>  (1041) 
C=c1c(=Cc2[nH]c(=O)[nH]c2O)cc(C)n1-c1cccc(C(=O)Nc2ccccc2OS(C)(=O)=O)c1

>  <score_type>  (1041) 
oracle

>  <origin>  (1041) 
adg

>  <m_score__min__energy>  (1041) 
-18.140000000000001

>  <m_primary>  (1041) 
energy

$$$$
88:0
     RDKit          3D

 30 33  0  0  0  0  0  0  0  0999 V2000
   60.1870   27.9250   46.8180 C   0  0  0  0  0  0  0  0  0  0  0  0
   59.2650   28.8060   46.3990 C   0  0  0  0  0  0  0  0  0  0  0  0
   58.1600   28.5560   45.5690 C   0  0  0  0  0  0  0  0  0  0  0  0
   57.6210   27.3980   45.1380 C   0  0  0  0  0  0  0  0  0  0  0  0
   57.2000   26.2780   45.9940 C   0  0  0  0  0  0  0  0  0  0  0  0
   58.0390   25.4480   46.6410 N   0  0  0  0  0  0  0  0  0  0  0  0
   57.2130   24.6960   47.3980 C   0  0  0  0  0  0  0  0  0  0  0  0
   57.6300   23.7760   48.1480 O   0  0  0  0  0  0  0  0  0  0  0  0
   55.9050   25.0140   47.2970 N   0  0  0  0  0  0  0  0  0  0  0  0
   55.9160   26.0280   46.4160 C   0  0  0  0  0  0  0  0  0  0  0  0
   54.7790   26.7140   46.0110 O   0  0  0  0  0  0  0  0  0  0  0  0
   57.6340   29.7950   45.2390 C   0  0  0  0  0  0  0  0  0  0  0  0
   58.3760   30.7390   45.9200 C   0  0  0  0  0  0  0  0  0  0  0  0
   58.1480   32.2180   45.8640 C   0  0  0  0  0  0  0  0  0  0  0  0
   59.3570   30.1400   46.6270 N   0  0  0  0  0  0  0  0  0  0  0  0
   60.3540   30.8230   47.4030 C   0  0  0  0  0  0  0  0  0  0  0  0
   61.6200   31.0600   46.8550 C   0  0  0  0  0  0  0  0  0  0  0  0
   62.5960   31.7250   47.5960 C   0  0  0  0  0  0  0  0  0  0  0  0
   62.3180   32.1690   48.8980 C   0  0  0  0  0  0  0  0  0  0  0  0
   63.3330   32.8510   49.6600 N   0  0  0  0  0  0  0  0  0  0  0  0
   63.0070   34.0740   50.3990 C   0  0  0  0  0  0  0  0  0  0  0  0
   63.9450   34.2130   51.6010 C   0  0  0  0  0  0  0  0  0  0  0  0
   65.2980   34.1160   51.1970 O   0  0  0  0  0  0  0  0  0  0  0  0
   65.5550   32.8190   50.6910 C   0  0  0  0  0  0  0  0  0  0  0  0
   64.7490   32.5630   49.4130 C   0  0  0  0  0  0  0  0  0  0  0  0
   61.0480   31.9260   49.4490 C   0  0  0  0  0  0  0  0  0  0  0  0
   60.0600   31.2480   48.7090 C   0  0  0  0  0  0  0  0  0  0  0  0
   58.7800   30.9810   49.2240 O   0  0  0  0  0  0  0  0  0  0  0  0
   58.4940   30.2100   50.3900 C   0  0  0  0  0  0  0  0  0  0  0  0
   59.5920   29.1840   50.6430 C   0  0  0  0  0  0  0  0  0  0  0  0
  1  2  2  0
  2  3  1  0
  3  4  2  3
  4  5  1  0
  5  6  1  0
  6  7  1  0
  7  8  2  0
  7  9  1  0
  9 10  1  0
 10 11  1  0
  3 12  1  0
 12 13  2  0
 13 14  1  0
 13 15  1  0
 15 16  1  0
 16 17  2  0
 17 18  1  0
 18 19  2  0
 19 20  1  0
 20 21  1  0
 21 22  1  0
 22 23  1  0
 23 24  1  0
 24 25  1  0
 19 26  1  0
 26 27  2  0
 27 28  1  0
 28 29  1  0
 29 30  1  0
 15  2  1  0
 27 16  1  0
 10  5  2  0
 25 20  1  0
M  CHG  3   6  -1   9  -1  11  -1
M  END
>  <UniqueID>  (1042) 
84

>  <SMILES>  (1042) 
C=c1c(=Cc2[n-]c(=O)[n-]c2[O-])cc(C)n1-c1ccc(N2CCOCC2)cc1OCC

>  <Energy>  (1042) 
133.66923101871444

>  <Genealogy>  (1042) 
C=c1c(=Cc2[n-]c(=O)[n-]c2[O-])cc(C)n1-c1ccc(N2CCOCC2)cc1OCC (protonated)
C=c1c(=Cc2[n-]c(=O)[n-]c2[O-])cc(C)n1-c1ccc(N2CCOCC2)cc1OCC (3D coordinates assigned)
C=c1c(=Cc2[n-]c(=O)[n-]c2[O-])cc(C)n1-c1ccc(N2CCOCC2)cc1OCC (nonaromatic ring conformer: 133.66923101871444 kcal/mol)

>  <smiles>  (1042) 
C=c1c(=Cc2[nH]c(=O)[nH]c2O)cc(C)n1-c1ccc(N2CCOCC2)cc1OCC

>  <score_type>  (1042) 
oracle

>  <origin>  (1042) 
adg

>  <m_score__min__energy>  (1042) 
-15.140000000000001

>  <m_primary>  (1042) 
energy

$$$$
22:0
     RDKit          3D

 23 25  0  0  0  0  0  0  0  0999 V2000
   57.9180   27.9020   43.9970 C   0  0  0  0  0  0  0  0  0  0  0  0
   57.8730   26.9980   45.0020 C   0  0  0  0  0  0  0  0  0  0  0  0
   58.4220   27.3560   46.3310 C   0  0  0  0  0  0  0  0  0  0  0  0
   59.0450   28.4380   46.5080 O   0  0  0  0  0  0  0  0  0  0  0  0
   58.2290   26.4830   47.4410 N   0  0  0  0  0  0  0  0  0  0  0  0
   57.5410   25.2410   47.3060 C   0  0  0  0  0  0  0  0  0  0  0  0
   57.3650   24.5220   48.3260 O   0  0  0  0  0  0  0  0  0  0  0  0
   57.0820   24.8040   46.0130 N   0  0  0  0  0  0  0  0  0  0  0  0
   56.4000   23.5430   45.8840 C   0  0  0  0  0  0  0  0  0  0  0  0
   57.1080   22.3370   46.0070 C   0  0  0  0  0  0  0  0  0  0  0  0
   56.4410   21.1130   45.8840 C   0  0  0  0  0  0  0  0  0  0  0  0
   55.0650   21.0880   45.6400 C   0  0  0  0  0  0  0  0  0  0  0  0
   54.3530   22.2860   45.5210 C   0  0  0  0  0  0  0  0  0  0  0  0
   52.9850   22.2580   45.2780 O   0  0  0  0  0  0  0  0  0  0  0  0
   55.0180   23.5110   45.6430 C   0  0  0  0  0  0  0  0  0  0  0  0
   57.3280   25.6200   44.8500 C   0  0  0  0  0  0  0  0  0  0  0  0
   57.1220   25.1390   43.7020 O   0  0  0  0  0  0  0  0  0  0  0  0
   57.4570   29.2990   44.0800 C   0  0  0  0  0  0  0  0  0  0  0  0
   58.2230   30.3340   43.8220 O   0  0  0  0  0  0  0  0  0  0  0  0
   57.5350   31.4370   44.0340 C   0  0  0  0  0  0  0  0  0  0  0  0
   56.2590   31.1240   44.4650 C   0  0  0  0  0  0  0  0  0  0  0  0
   56.2230   29.7510   44.5020 C   0  0  0  0  0  0  0  0  0  0  0  0
   55.1510   28.9720   44.9210 O   0  0  0  0  0  0  0  0  0  0  0  0
  1  2  2  0
  2  3  1  0
  3  4  2  0
  3  5  1  0
  5  6  1  0
  6  7  2  0
  6  8  1  0
  8  9  1  0
  9 10  2  0
 10 11  1  0
 11 12  2  0
 12 13  1  0
 13 14  1  0
 13 15  2  0
  8 16  1  0
 16 17  2  0
  1 18  1  0
 18 19  1  0
 19 20  1  0
 20 21  2  0
 21 22  1  0
 22 23  1  0
 16  2  1  0
 22 18  2  0
 15  9  1  0
M  CHG  3   5  -1  14  -1  23  -1
M  END
>  <UniqueID>  (1043) 
21

>  <SMILES>  (1043) 
O=C1[N-]C(=O)N(c2cccc([O-])c2)C(=O)/C1=C\c1occc1[O-]

>  <Energy>  (1043) 
76.92683453846598

>  <Genealogy>  (1043) 
O=C1[N-]C(=O)N(c2cccc([O-])c2)C(=O)C1=Cc1occc1[O-] (protonated)
O=C1[N-]C(=O)N(c2cccc([O-])c2)C(=O)/C1=C\c1occc1[O-] (cis-trans isomerization)
O=C1[N-]C(=O)N(c2cccc([O-])c2)C(=O)/C1=C\c1occc1[O-] (3D coordinates assigned)
O=C1[N-]C(=O)N(c2cccc([O-])c2)C(=O)/C1=C\c1occc1[O-] (nonaromatic ring conformer: 76.92683453846598 kcal/mol)

>  <smiles>  (1043) 
O=C1NC(=O)N(c2cccc(O)c2)C(=O)C1=Cc1occc1O

>  <score_type>  (1043) 
oracle

>  <origin>  (1043) 
adg

>  <m_score__min__energy>  (1043) 
-14.109999999999999

>  <m_primary>  (1043) 
energy

$$$$
26:0
     RDKit          3D

 33 37  0  0  0  0  0  0  0  0999 V2000
   59.3940   28.6650   45.7760 O   0  0  0  0  0  0  0  0  0  0  0  0
   58.2300   28.7890   46.2450 C   0  0  0  0  0  0  0  0  0  0  0  0
   57.6790   27.7290   47.1460 C   0  0  0  0  0  0  0  0  0  0  0  0
   57.4550   26.4920   46.3990 N   0  0  0  0  0  0  0  0  0  0  0  0
   56.3010   26.0530   45.8750 C   0  0  0  0  0  0  0  0  0  0  0  0
   55.0790   26.7060   45.9960 O   0  0  0  0  0  0  0  0  0  0  0  0
   56.5360   24.8790   45.1940 C   0  0  0  0  0  0  0  0  0  0  0  0
   55.5360   24.0980   44.4020 C   0  0  0  0  0  0  0  0  0  0  0  0
   55.9330   22.6560   44.3590 C   0  0  0  0  0  0  0  0  0  0  0  0
   56.3450   21.9420   43.2380 C   0  0  0  0  0  0  0  0  0  0  0  0
   56.6670   20.6730   43.5790 N   0  0  0  0  0  0  0  0  0  0  0  0
   56.4750   20.5850   44.9070 C   0  0  0  0  0  0  0  0  0  0  0  0
   56.6770   19.4700   45.7180 C   0  0  0  0  0  0  0  0  0  0  0  0
   56.4330   19.6060   47.0980 C   0  0  0  0  0  0  0  0  0  0  0  0
   55.9820   20.8370   47.6260 C   0  0  0  0  0  0  0  0  0  0  0  0
   55.7800   21.9440   46.7810 C   0  0  0  0  0  0  0  0  0  0  0  0
   56.0380   21.7790   45.4200 C   0  0  0  0  0  0  0  0  0  0  0  0
   57.8510   24.5800   45.2560 N   0  0  0  0  0  0  0  0  0  0  0  0
   58.3710   25.5830   45.9980 C   0  0  0  0  0  0  0  0  0  0  0  0
   59.5980   25.6640   46.2740 O   0  0  0  0  0  0  0  0  0  0  0  0
   57.4380   29.9460   45.9470 N   0  0  0  0  0  0  0  0  0  0  0  0
   57.4230   30.6740   44.7100 C   0  0  0  0  0  0  0  0  0  0  0  0
   56.8900   30.1060   43.5380 C   0  0  0  0  0  0  0  0  0  0  0  0
   56.8780   30.8290   42.3440 C   0  0  0  0  0  0  0  0  0  0  0  0
   57.3870   32.1280   42.3070 C   0  0  0  0  0  0  0  0  0  0  0  0
   57.8990   32.7110   43.4660 C   0  0  0  0  0  0  0  0  0  0  0  0
   57.9160   31.9960   44.6750 C   0  0  0  0  0  0  0  0  0  0  0  0
   58.4480   32.6220   45.8570 N   0  0  0  0  0  0  0  0  0  0  0  0
   57.8490   33.8570   46.3760 C   0  0  0  0  0  0  0  0  0  0  0  0
   58.8790   34.6220   47.2110 C   0  0  0  0  0  0  0  0  0  0  0  0
   60.1390   34.5530   46.5790 O   0  0  0  0  0  0  0  0  0  0  0  0
   60.6900   33.2480   46.6900 C   0  0  0  0  0  0  0  0  0  0  0  0
   59.6650   32.1080   46.4870 C   0  0  0  0  0  0  0  0  0  0  0  0
  1  2  2  0
  2  3  1  0
  3  4  1  0
  4  5  1  0
  5  6  1  0
  5  7  2  0
  7  8  1  0
  8  9  1  0
  9 10  2  0
 10 11  1  0
 11 12  1  0
 12 13  2  0
 13 14  1  0
 14 15  2  0
 15 16  1  0
 16 17  2  0
  7 18  1  0
 18 19  1  0
 19 20  2  0
  2 21  1  0
 21 22  1  0
 22 23  2  0
 23 24  1  0
 24 25  2  0
 25 26  1  0
 26 27  2  0
 27 28  1  0
 28 29  1  0
 29 30  1  0
 30 31  1  0
 31 32  1  0
 32 33  1  0
 19  4  1  0
 27 22  1  0
 33 28  1  0
 17  9  1  0
 17 12  1  0
M  CHG  3   6  -1  18  -1  21  -1
M  END
>  <UniqueID>  (1044) 
24

>  <SMILES>  (1044) 
O=C(Cn1c([O-])c(Cc2c[nH]c3ccccc23)[n-]c1=O)[N-]c1ccccc1N1CCOCC1

>  <Energy>  (1044) 
131.67893179208357

>  <Genealogy>  (1044) 
O=C(Cn1c([O-])c(Cc2c[nH]c3ccccc23)[n-]c1=O)[N-]c1ccccc1N1CCOCC1 (protonated)
O=C(Cn1c([O-])c(Cc2c[nH]c3ccccc23)[n-]c1=O)[N-]c1ccccc1N1CCOCC1 (3D coordinates assigned)
O=C(Cn1c([O-])c(Cc2c[nH]c3ccccc23)[n-]c1=O)[N-]c1ccccc1N1CCOCC1 (nonaromatic ring conformer: 131.67893179208357 kcal/mol)

>  <smiles>  (1044) 
O=C(Cn1c(O)c(Cc2c[nH]c3ccccc23)[nH]c1=O)Nc1ccccc1N1CCOCC1

>  <score_type>  (1044) 
oracle

>  <origin>  (1044) 
adg

>  <m_score__min__energy>  (1044) 
-15.140000000000001

>  <m_primary>  (1044) 
energy

$$$$
46:0
     RDKit          3D

 23 25  0  0  0  0  0  0  0  0999 V2000
   60.3890   34.6270   48.6520 N   0  0  0  0  0  0  0  0  0  0  0  0
   60.1110   33.2740   48.2960 C   0  0  0  0  0  0  0  0  0  0  0  0
   60.4480   32.8590   47.1540 O   0  0  0  0  0  0  0  0  0  0  0  0
   59.4360   32.3670   49.2540 C   0  0  0  0  0  0  0  0  0  0  0  0
   58.9150   32.8600   50.4630 C   0  0  0  0  0  0  0  0  0  0  0  0
   58.2800   32.0000   51.3640 C   0  0  0  0  0  0  0  0  0  0  0  0
   58.1660   30.6300   51.0780 C   0  0  0  0  0  0  0  0  0  0  0  0
   57.5250   29.7390   51.9510 O   0  0  0  0  0  0  0  0  0  0  0  0
   56.1880   29.8320   52.3530 C   0  0  0  0  0  0  0  0  0  0  0  0
   55.6520   29.1370   53.4280 C   0  0  0  0  0  0  0  0  0  0  0  0
   54.3060   29.4390   53.6590 C   0  0  0  0  0  0  0  0  0  0  0  0
   53.7880   30.3670   52.7620 C   0  0  0  0  0  0  0  0  0  0  0  0
   52.4090   30.9430   52.8030 C   0  0  0  0  0  0  0  0  0  0  0  0
   51.9070   31.1690   51.4110 C   0  0  0  0  0  0  0  0  0  0  0  0
   51.9400   30.2420   50.4380 N   0  0  0  0  0  0  0  0  0  0  0  0
   51.3280   30.8590   49.4030 C   0  0  0  0  0  0  0  0  0  0  0  0
   51.1670   30.3050   48.2840 O   0  0  0  0  0  0  0  0  0  0  0  0
   50.8990   32.1120   49.6620 N   0  0  0  0  0  0  0  0  0  0  0  0
   51.2680   32.2900   50.9400 C   0  0  0  0  0  0  0  0  0  0  0  0
   51.0210   33.4510   51.6640 O   0  0  0  0  0  0  0  0  0  0  0  0
   55.0040   30.8400   51.6980 S   0  0  0  0  0  0  0  0  0  0  0  0
   58.6620   30.1400   49.8660 C   0  0  0  0  0  0  0  0  0  0  0  0
   59.2990   30.9970   48.9630 C   0  0  0  0  0  0  0  0  0  0  0  0
  1  2  1  0
  2  3  2  0
  2  4  1  0
  4  5  2  0
  5  6  1  0
  6  7  2  0
  7  8  1  0
  8  9  1  0
  9 10  2  0
 10 11  1  0
 11 12  2  0
 12 13  1  0
 13 14  1  0
 14 15  1  0
 15 16  1  0
 16 17  2  0
 16 18  1  0
 18 19  1  0
 19 20  1  0
 12 21  1  0
  7 22  1  0
 22 23  2  0
 23  4  1  0
 21  9  1  0
 19 14  2  0
M  CHG  4   1  -1  15  -1  18  -1  20  -1
M  END
>  <UniqueID>  (1045) 
42

>  <SMILES>  (1045) 
[NH-]C(=O)c1ccc(Oc2ccc(Cc3[n-]c(=O)[n-]c3[O-])s2)cc1

>  <Energy>  (1045) 
93.81226682870992

>  <Genealogy>  (1045) 
[NH-]C(=O)c1ccc(Oc2ccc(Cc3[n-]c(=O)[n-]c3[O-])s2)cc1 (protonated)
[NH-]C(=O)c1ccc(Oc2ccc(Cc3[n-]c(=O)[n-]c3[O-])s2)cc1 (3D coordinates assigned)
[NH-]C(=O)c1ccc(Oc2ccc(Cc3[n-]c(=O)[n-]c3[O-])s2)cc1 (optimized conformer: 93.81226682870992 kcal/mol)

>  <smiles>  (1045) 
NC(=O)c1ccc(Oc2ccc(Cc3[nH]c(=O)[nH]c3O)s2)cc1

>  <score_type>  (1045) 
oracle

>  <origin>  (1045) 
adg

>  <m_score__min__energy>  (1045) 
-16.52

>  <m_primary>  (1045) 
energy

$$$$
50:0
     RDKit          3D

 26 29  0  0  0  0  0  0  0  0999 V2000
   54.7860   28.4330   52.7380 C   0  0  0  0  0  0  0  0  0  0  0  0
   55.1740   29.7080   52.5810 C   0  0  0  0  0  0  0  0  0  0  0  0
   54.3340   30.8190   52.4440 C   0  0  0  0  0  0  0  0  0  0  0  0
   52.9890   30.8210   52.3660 C   0  0  0  0  0  0  0  0  0  0  0  0
   52.2360   31.0230   51.1150 C   0  0  0  0  0  0  0  0  0  0  0  0
   52.2260   30.1310   50.1090 N   0  0  0  0  0  0  0  0  0  0  0  0
   51.3590   30.6680   49.2220 C   0  0  0  0  0  0  0  0  0  0  0  0
   51.0890   30.1200   48.1220 O   0  0  0  0  0  0  0  0  0  0  0  0
   50.8000   31.8330   49.6110 N   0  0  0  0  0  0  0  0  0  0  0  0
   51.3550   32.0390   50.8170 C   0  0  0  0  0  0  0  0  0  0  0  0
   51.0230   33.1060   51.6420 O   0  0  0  0  0  0  0  0  0  0  0  0
   55.1660   31.9270   52.3500 C   0  0  0  0  0  0  0  0  0  0  0  0
   56.4620   31.4570   52.4330 C   0  0  0  0  0  0  0  0  0  0  0  0
   57.6860   32.3190   52.3680 C   0  0  0  0  0  0  0  0  0  0  0  0
   56.4690   30.1130   52.5790 N   0  0  0  0  0  0  0  0  0  0  0  0
   57.6410   29.2860   52.6830 C   0  0  0  0  0  0  0  0  0  0  0  0
   57.7520   28.3420   53.7130 C   0  0  0  0  0  0  0  0  0  0  0  0
   58.8850   27.5300   53.8080 C   0  0  0  0  0  0  0  0  0  0  0  0
   59.9260   27.6430   52.8700 C   0  0  0  0  0  0  0  0  0  0  0  0
   61.1300   26.7790   52.9690 C   0  0  0  0  0  0  0  0  0  0  0  0
   62.4450   27.1980   52.8370 C   0  0  0  0  0  0  0  0  0  0  0  0
   63.2320   26.0770   53.0000 C   0  0  0  0  0  0  0  0  0  0  0  0
   62.3730   25.0220   53.2270 C   0  0  0  0  0  0  0  0  0  0  0  0
   61.0990   25.4510   53.2060 N   0  0  0  0  0  0  0  0  0  0  0  0
   59.8060   28.5890   51.8340 C   0  0  0  0  0  0  0  0  0  0  0  0
   58.6730   29.4020   51.7440 C   0  0  0  0  0  0  0  0  0  0  0  0
  1  2  2  0
  2  3  1  0
  3  4  2  0
  4  5  1  0
  5  6  1  0
  6  7  1  0
  7  8  2  0
  7  9  1  0
  9 10  1  0
 10 11  1  0
  3 12  1  0
 12 13  2  0
 13 14  1  0
 13 15  1  0
 15 16  1  0
 16 17  2  0
 17 18  1  0
 18 19  2  0
 19 20  1  0
 20 21  2  0
 21 22  1  0
 22 23  2  0
 23 24  1  0
 19 25  1  0
 25 26  2  0
 15  2  1  0
 26 16  1  0
 10  5  2  0
 24 20  1  0
M  CHG  3   6  -1   9  -1  11  -1
M  END
>  <UniqueID>  (1046) 
46

>  <SMILES>  (1046) 
C=c1/c(=C/c2[n-]c(=O)[n-]c2[O-])cc(C)n1-c1ccc(-c2ccc[nH]2)cc1

>  <Energy>  (1046) 
143.96949227412847

>  <Genealogy>  (1046) 
C=c1c(=Cc2[n-]c(=O)[n-]c2[O-])cc(C)n1-c1ccc(-c2ccc[nH]2)cc1 (protonated)
C=c1/c(=C/c2[n-]c(=O)[n-]c2[O-])cc(C)n1-c1ccc(-c2ccc[nH]2)cc1 (cis-trans isomerization)
C=c1/c(=C/c2[n-]c(=O)[n-]c2[O-])cc(C)n1-c1ccc(-c2ccc[nH]2)cc1 (3D coordinates assigned)
C=c1/c(=C/c2[n-]c(=O)[n-]c2[O-])cc(C)n1-c1ccc(-c2ccc[nH]2)cc1 (optimized conformer: 143.96949227412847 kcal/mol)

>  <smiles>  (1046) 
C=c1c(=Cc2[nH]c(=O)[nH]c2O)cc(C)n1-c1ccc(-c2ccc[nH]2)cc1

>  <score_type>  (1046) 
oracle

>  <origin>  (1046) 
adg

>  <m_score__min__energy>  (1046) 
-15.210000000000001

>  <m_primary>  (1046) 
energy

$$$$
51:0
     RDKit          3D

 29 31  0  0  0  0  0  0  0  0999 V2000
   62.0180   34.3680   49.6810 N   0  0  0  0  0  0  0  0  0  0  0  0
   60.8500   33.8820   49.0200 C   0  0  0  0  0  0  0  0  0  0  0  0
   59.7610   34.5010   49.1680 O   0  0  0  0  0  0  0  0  0  0  0  0
   60.9130   32.6680   48.1730 C   0  0  0  0  0  0  0  0  0  0  0  0
   62.1430   32.0330   47.9210 C   0  0  0  0  0  0  0  0  0  0  0  0
   62.1990   30.8890   47.1200 C   0  0  0  0  0  0  0  0  0  0  0  0
   61.0320   30.3650   46.5620 C   0  0  0  0  0  0  0  0  0  0  0  0
   59.7950   30.9830   46.8010 C   0  0  0  0  0  0  0  0  0  0  0  0
   58.5900   30.4410   46.2250 N   0  0  0  0  0  0  0  0  0  0  0  0
   57.7660   31.2430   45.4770 C   0  0  0  0  0  0  0  0  0  0  0  0
   58.0430   32.4610   45.2960 O   0  0  0  0  0  0  0  0  0  0  0  0
   56.6330   30.7380   44.9280 N   0  0  0  0  0  0  0  0  0  0  0  0
   56.2770   29.4430   45.1040 C   0  0  0  0  0  0  0  0  0  0  0  0
   55.1200   28.9650   44.4970 O   0  0  0  0  0  0  0  0  0  0  0  0
   57.0800   28.5990   45.8760 C   0  0  0  0  0  0  0  0  0  0  0  0
   56.7120   27.1840   46.0810 C   0  0  0  0  0  0  0  0  0  0  0  0
   55.5050   26.8400   45.9730 O   0  0  0  0  0  0  0  0  0  0  0  0
   57.6960   26.1860   46.3750 N   0  0  0  0  0  0  0  0  0  0  0  0
   58.6070   25.6240   45.3850 C   0  0  0  0  0  0  0  0  0  0  0  0
   57.9760   24.4130   44.7610 C   0  0  0  0  0  0  0  0  0  0  0  0
   56.9960   24.5590   43.7660 C   0  0  0  0  0  0  0  0  0  0  0  0
   56.4330   23.4310   43.1620 C   0  0  0  0  0  0  0  0  0  0  0  0
   56.8520   22.1510   43.5380 C   0  0  0  0  0  0  0  0  0  0  0  0
   56.3070   21.0590   42.9490 F   0  0  0  0  0  0  0  0  0  0  0  0
   57.8390   21.9990   44.5160 C   0  0  0  0  0  0  0  0  0  0  0  0
   58.4050   23.1250   45.1230 C   0  0  0  0  0  0  0  0  0  0  0  0
   58.2610   29.1240   46.4250 C   0  0  0  0  0  0  0  0  0  0  0  0
   59.0200   28.3750   47.1020 O   0  0  0  0  0  0  0  0  0  0  0  0
   59.7420   32.1330   47.6060 C   0  0  0  0  0  0  0  0  0  0  0  0
  1  2  1  0
  2  3  2  0
  2  4  1  0
  4  5  2  0
  5  6  1  0
  6  7  2  0
  7  8  1  0
  8  9  1  0
  9 10  1  0
 10 11  2  0
 10 12  1  0
 12 13  1  0
 13 14  1  0
 13 15  2  0
 15 16  1  0
 16 17  2  0
 16 18  1  0
 18 19  1  0
 19 20  1  0
 20 21  2  0
 21 22  1  0
 22 23  2  0
 23 24  1  0
 23 25  1  0
 25 26  2  0
 15 27  1  0
 27 28  2  0
  8 29  2  0
 29  4  1  0
 27  9  1  0
 26 20  1  0
M  CHG  4   1  -1  12  -1  14  -1  18  -1
M  END
>  <UniqueID>  (1047) 
47

>  <SMILES>  (1047) 
[NH-]C(=O)c1cccc(-n2c(=O)[n-]c([O-])c(C(=O)[N-]Cc3ccc(F)cc3)c2=O)c1

>  <Energy>  (1047) 
59.65845550784994

>  <Genealogy>  (1047) 
[NH-]C(=O)c1cccc(-n2c(=O)[n-]c([O-])c(C(=O)[N-]Cc3ccc(F)cc3)c2=O)c1 (protonated)
[NH-]C(=O)c1cccc(-n2c(=O)[n-]c([O-])c(C(=O)[N-]Cc3ccc(F)cc3)c2=O)c1 (3D coordinates assigned)
[NH-]C(=O)c1cccc(-n2c(=O)[n-]c([O-])c(C(=O)[N-]Cc3ccc(F)cc3)c2=O)c1 (optimized conformer: 59.65845550784994 kcal/mol)

>  <smiles>  (1047) 
NC(=O)c1cccc(-n2c(=O)[nH]c(O)c(C(=O)NCc3ccc(F)cc3)c2=O)c1

>  <score_type>  (1047) 
oracle

>  <origin>  (1047) 
adg

>  <m_score__min__energy>  (1047) 
-14.15

>  <m_primary>  (1047) 
energy

$$$$
82:0
     RDKit          3D

 27 29  0  0  0  0  0  0  0  0999 V2000
   55.9800   24.7330   47.5420 O   0  0  0  0  0  0  0  0  0  0  0  0
   55.6270   24.9830   46.3580 C   0  0  0  0  0  0  0  0  0  0  0  0
   55.4040   23.8590   45.4000 C   0  0  0  0  0  0  0  0  0  0  0  0
   56.6840   23.1220   45.1650 C   0  0  0  0  0  0  0  0  0  0  0  0
   58.1340   23.4190   45.9710 S   0  0  0  0  0  0  0  0  0  0  0  0
   58.9650   22.2710   45.0660 C   0  0  0  0  0  0  0  0  0  0  0  0
   60.1850   22.0020   45.2140 O   0  0  0  0  0  0  0  0  0  0  0  0
   58.1830   21.6640   44.1500 N   0  0  0  0  0  0  0  0  0  0  0  0
   56.9110   22.1430   44.2010 C   0  0  0  0  0  0  0  0  0  0  0  0
   55.9230   21.6810   43.3410 O   0  0  0  0  0  0  0  0  0  0  0  0
   55.5190   26.3360   45.8990 N   0  0  0  0  0  0  0  0  0  0  0  0
   56.6160   27.2180   45.6310 C   0  0  0  0  0  0  0  0  0  0  0  0
   57.9170   26.7270   45.7870 C   0  0  0  0  0  0  0  0  0  0  0  0
   59.0180   27.5430   45.5280 C   0  0  0  0  0  0  0  0  0  0  0  0
   58.8300   28.8570   45.0990 C   0  0  0  0  0  0  0  0  0  0  0  0
   57.5360   29.3650   44.9120 C   0  0  0  0  0  0  0  0  0  0  0  0
   57.3380   31.0440   44.3810 S   0  0  0  0  0  0  0  0  0  0  0  0
   55.9920   31.5610   44.8020 O   0  0  0  0  0  0  0  0  0  0  0  0
   57.3980   31.0940   42.8800 O   0  0  0  0  0  0  0  0  0  0  0  0
   58.5880   32.0750   45.0400 N   0  0  0  0  0  0  0  0  0  0  0  0
   58.4800   33.4410   44.4820 C   0  0  0  0  0  0  0  0  0  0  0  0
   59.2830   34.4470   45.3110 C   0  0  0  0  0  0  0  0  0  0  0  0
   58.7540   34.5290   46.7540 C   0  0  0  0  0  0  0  0  0  0  0  0
   58.0190   33.2510   47.1920 C   0  0  0  0  0  0  0  0  0  0  0  0
   58.6270   32.0110   46.5230 C   0  0  0  0  0  0  0  0  0  0  0  0
   56.4240   28.5320   45.1540 C   0  0  0  0  0  0  0  0  0  0  0  0
   55.1380   28.9960   44.8900 O   0  0  0  0  0  0  0  0  0  0  0  0
  1  2  2  0
  2  3  1  0
  3  4  1  0
  4  5  1  0
  5  6  1  0
  6  7  2  0
  6  8  1  0
  8  9  1  0
  9 10  1  0
  2 11  1  0
 11 12  1  0
 12 13  2  0
 13 14  1  0
 14 15  2  0
 15 16  1  0
 16 17  1  0
 17 18  2  0
 17 19  2  0
 17 20  1  0
 20 21  1  0
 21 22  1  0
 22 23  1  0
 23 24  1  0
 24 25  1  0
 16 26  2  0
 26 27  1  0
  9  4  2  0
 26 12  1  0
 25 20  1  0
M  CHG  4   8  -1  10  -1  11  -1  27  -1
M  END
>  <UniqueID>  (1048) 
77

>  <SMILES>  (1048) 
O=C(Cc1sc(=O)[n-]c1[O-])[N-]c1cccc(S(=O)(=O)N2CCCCC2)c1[O-]

>  <Energy>  (1048) 
82.98271690288753

>  <Genealogy>  (1048) 
O=C(Cc1sc(=O)[n-]c1[O-])[N-]c1cccc(S(=O)(=O)N2CCCCC2)c1[O-] (protonated)
O=C(Cc1sc(=O)[n-]c1[O-])[N-]c1cccc(S(=O)(=O)N2CCCCC2)c1[O-] (3D coordinates assigned)
O=C(Cc1sc(=O)[n-]c1[O-])[N-]c1cccc(S(=O)(=O)N2CCCCC2)c1[O-] (nonaromatic ring conformer: 82.98271690288753 kcal/mol)

>  <smiles>  (1048) 
O=C(Cc1sc(=O)[nH]c1O)Nc1cccc(S(=O)(=O)N2CCCCC2)c1O

>  <score_type>  (1048) 
oracle

>  <origin>  (1048) 
adg

>  <m_score__min__energy>  (1048) 
-18.670000000000002

>  <m_primary>  (1048) 
energy

$$$$
8:0
     RDKit          3D

 23 25  0  0  0  0  0  0  0  0999 V2000
   55.5170   22.7690   44.8390 C   0  0  0  0  0  0  0  0  0  0  0  0
   56.5360   23.6670   44.8850 N   0  0  0  0  0  0  0  0  0  0  0  0
   56.3620   24.9570   45.2850 C   0  0  0  0  0  0  0  0  0  0  0  0
   57.4070   25.7380   45.2790 N   0  0  0  0  0  0  0  0  0  0  0  0
   57.8910   26.5840   46.3290 C   0  0  0  0  0  0  0  0  0  0  0  0
   57.5990   26.3400   47.5310 O   0  0  0  0  0  0  0  0  0  0  0  0
   58.7590   27.7580   45.9930 C   0  0  0  0  0  0  0  0  0  0  0  0
   57.9850   28.7580   45.1860 C   0  0  0  0  0  0  0  0  0  0  0  0
   57.7730   30.0250   45.6310 N   0  0  0  0  0  0  0  0  0  0  0  0
   57.0440   30.7490   44.7560 C   0  0  0  0  0  0  0  0  0  0  0  0
   56.7670   32.0100   44.9060 N   0  0  0  0  0  0  0  0  0  0  0  0
   57.6680   33.0150   45.4030 C   0  0  0  0  0  0  0  0  0  0  0  0
   58.3360   33.8340   44.4850 C   0  0  0  0  0  0  0  0  0  0  0  0
   59.2160   34.8270   44.9320 C   0  0  0  0  0  0  0  0  0  0  0  0
   59.4140   35.0220   46.3020 C   0  0  0  0  0  0  0  0  0  0  0  0
   58.7280   34.2300   47.2250 C   0  0  0  0  0  0  0  0  0  0  0  0
   57.8530   33.2330   46.7830 C   0  0  0  0  0  0  0  0  0  0  0  0
   56.6270   29.8540   43.4000 S   0  0  0  0  0  0  0  0  0  0  0  0
   57.4040   28.4640   43.9530 C   0  0  0  0  0  0  0  0  0  0  0  0
   55.0560   25.3890   45.6400 C   0  0  0  0  0  0  0  0  0  0  0  0
   54.7730   26.7030   45.9930 O   0  0  0  0  0  0  0  0  0  0  0  0
   54.0010   24.4710   45.5990 C   0  0  0  0  0  0  0  0  0  0  0  0
   54.2290   23.1560   45.2010 C   0  0  0  0  0  0  0  0  0  0  0  0
  1  2  1  0
  2  3  1  0
  3  4  2  0
  4  5  1  0
  5  6  2  0
  5  7  1  0
  7  8  1  0
  8  9  1  0
  9 10  1  0
 10 11  2  3
 11 12  1  0
 12 13  2  0
 13 14  1  0
 14 15  2  0
 15 16  1  0
 16 17  2  0
 10 18  1  0
 18 19  1  0
  3 20  1  0
 20 21  1  0
 20 22  2  0
 22 23  1  0
 23  1  2  0
 19  8  2  0
 17 12  1  0
M  CHG  3   2  -1   9  -1  21  -1
M  END
>  <UniqueID>  (1049) 
8

>  <SMILES>  (1049) 
O=C(Cc1csc(=Nc2ccccc2)[n-]1)/N=c1/[n-]cccc1[O-]

>  <Energy>  (1049) 
79.0024835952437

>  <Genealogy>  (1049) 
O=C(Cc1csc(=Nc2ccccc2)[n-]1)N=c1[n-]cccc1[O-] (protonated)
O=C(Cc1csc(=Nc2ccccc2)[n-]1)/N=c1/[n-]cccc1[O-] (cis-trans isomerization)
O=C(Cc1csc(=Nc2ccccc2)[n-]1)/N=c1/[n-]cccc1[O-] (3D coordinates assigned)
O=C(Cc1csc(=Nc2ccccc2)[n-]1)/N=c1/[n-]cccc1[O-] (optimized conformer: 79.0024835952437 kcal/mol)

>  <smiles>  (1049) 
O=C(Cc1csc(=Nc2ccccc2)[nH]1)N=c1[nH]cccc1O

>  <score_type>  (1049) 
oracle

>  <origin>  (1049) 
adg

>  <m_score__min__energy>  (1049) 
-14.69

>  <m_primary>  (1049) 
energy

$$$$
21:0
     RDKit          3D

 22 24  0  0  0  0  0  0  0  0999 V2000
   56.1460   29.7010   44.5820 C   0  0  0  0  0  0  0  0  0  0  0  0
   57.4140   29.4170   44.9210 C   0  0  0  0  0  0  0  0  0  0  0  0
   57.9870   28.1430   45.0700 C   0  0  0  0  0  0  0  0  0  0  0  0
   57.5380   26.9250   44.7150 C   0  0  0  0  0  0  0  0  0  0  0  0
   57.0670   25.8830   45.6430 C   0  0  0  0  0  0  0  0  0  0  0  0
   57.8420   24.9130   46.1640 N   0  0  0  0  0  0  0  0  0  0  0  0
   57.0230   24.3010   47.0460 C   0  0  0  0  0  0  0  0  0  0  0  0
   57.3860   23.3120   47.7360 O   0  0  0  0  0  0  0  0  0  0  0  0
   55.7860   24.8350   47.1370 N   0  0  0  0  0  0  0  0  0  0  0  0
   55.8380   25.8450   46.2530 C   0  0  0  0  0  0  0  0  0  0  0  0
   54.7840   26.7160   46.0130 O   0  0  0  0  0  0  0  0  0  0  0  0
   59.2150   28.3410   45.6840 C   0  0  0  0  0  0  0  0  0  0  0  0
   59.3820   29.7040   45.8130 C   0  0  0  0  0  0  0  0  0  0  0  0
   60.5750   30.3630   46.4350 C   0  0  0  0  0  0  0  0  0  0  0  0
   58.2950   30.3570   45.3470 N   0  0  0  0  0  0  0  0  0  0  0  0
   58.0920   31.7800   45.3930 C   0  0  0  0  0  0  0  0  0  0  0  0
   57.8360   32.5150   44.2210 C   0  0  0  0  0  0  0  0  0  0  0  0
   57.7850   31.7320   42.6500 Cl  0  0  0  0  0  0  0  0  0  0  0  0
   57.6450   33.8590   44.2930 N   0  0  0  0  0  0  0  0  0  0  0  0
   57.6950   34.5300   45.4740 C   0  0  0  0  0  0  0  0  0  0  0  0
   57.9510   33.8390   46.6600 C   0  0  0  0  0  0  0  0  0  0  0  0
   58.1520   32.4600   46.6160 C   0  0  0  0  0  0  0  0  0  0  0  0
  1  2  2  0
  2  3  1  0
  3  4  2  0
  4  5  1  0
  5  6  1  0
  6  7  1  0
  7  8  2  0
  7  9  1  0
  9 10  1  0
 10 11  1  0
  3 12  1  0
 12 13  2  0
 13 14  1  0
 13 15  1  0
 15 16  1  0
 16 17  2  0
 17 18  1  0
 17 19  1  0
 19 20  2  0
 20 21  1  0
 21 22  2  0
 15  2  1  0
 22 16  1  0
 10  5  2  0
M  CHG  3   6  -1   9  -1  11  -1
M  END
>  <UniqueID>  (1050) 
21

>  <SMILES>  (1050) 
C=c1/c(=C\c2[n-]c(=O)[n-]c2[O-])cc(C)n1-c1cccnc1Cl

>  <Energy>  (1050) 
110.21856494642985

>  <Genealogy>  (1050) 
C=c1c(=Cc2[n-]c(=O)[n-]c2[O-])cc(C)n1-c1cccnc1Cl (protonated)
C=c1/c(=C\c2[n-]c(=O)[n-]c2[O-])cc(C)n1-c1cccnc1Cl (cis-trans isomerization)
C=c1/c(=C\c2[n-]c(=O)[n-]c2[O-])cc(C)n1-c1cccnc1Cl (3D coordinates assigned)
C=c1/c(=C\c2[n-]c(=O)[n-]c2[O-])cc(C)n1-c1cccnc1Cl (optimized conformer: 110.21856494642985 kcal/mol)

>  <smiles>  (1050) 
C=c1c(=Cc2[nH]c(=O)[nH]c2O)cc(C)n1-c1cccnc1Cl

>  <score_type>  (1050) 
oracle

>  <origin>  (1050) 
adg

>  <m_score__min__energy>  (1050) 
-15.16

>  <m_primary>  (1050) 
energy

$$$$
29:0
     RDKit          3D

 24 26  0  0  0  0  0  0  0  0999 V2000
   57.7670   27.8800   43.8990 C   0  0  0  0  0  0  0  0  0  0  0  0
   57.8150   27.8120   45.2380 C   0  0  0  0  0  0  0  0  0  0  0  0
   57.8460   26.6540   46.0320 C   0  0  0  0  0  0  0  0  0  0  0  0
   57.6340   25.3620   45.7150 C   0  0  0  0  0  0  0  0  0  0  0  0
   56.3270   24.6840   45.7270 C   0  0  0  0  0  0  0  0  0  0  0  0
   56.1300   23.3780   45.4820 N   0  0  0  0  0  0  0  0  0  0  0  0
   54.7900   23.2360   45.4510 C   0  0  0  0  0  0  0  0  0  0  0  0
   54.2210   22.1330   45.2480 O   0  0  0  0  0  0  0  0  0  0  0  0
   54.1100   24.3880   45.6420 N   0  0  0  0  0  0  0  0  0  0  0  0
   55.0950   25.2930   45.7990 C   0  0  0  0  0  0  0  0  0  0  0  0
   54.8730   26.6490   45.9980 O   0  0  0  0  0  0  0  0  0  0  0  0
   58.1450   27.0730   47.3190 C   0  0  0  0  0  0  0  0  0  0  0  0
   58.2100   28.4500   47.2860 C   0  0  0  0  0  0  0  0  0  0  0  0
   58.5270   29.3210   48.4630 C   0  0  0  0  0  0  0  0  0  0  0  0
   58.0020   28.8990   46.0290 N   0  0  0  0  0  0  0  0  0  0  0  0
   58.0960   30.2720   45.6070 C   0  0  0  0  0  0  0  0  0  0  0  0
   59.1820   31.0410   46.0520 C   0  0  0  0  0  0  0  0  0  0  0  0
   59.3440   32.3580   45.6230 C   0  0  0  0  0  0  0  0  0  0  0  0
   58.4230   32.9200   44.7410 C   0  0  0  0  0  0  0  0  0  0  0  0
   57.3320   32.1710   44.2920 C   0  0  0  0  0  0  0  0  0  0  0  0
   57.1450   30.8430   44.7220 C   0  0  0  0  0  0  0  0  0  0  0  0
   55.9510   30.0940   44.2530 C   0  0  0  0  0  0  0  0  0  0  0  0
   55.6390   30.0990   43.0330 O   0  0  0  0  0  0  0  0  0  0  0  0
   55.1410   29.4030   45.1460 O   0  0  0  0  0  0  0  0  0  0  0  0
  1  2  2  0
  2  3  1  0
  3  4  2  3
  4  5  1  0
  5  6  1  0
  6  7  1  0
  7  8  2  0
  7  9  1  0
  9 10  1  0
 10 11  1  0
  3 12  1  0
 12 13  2  0
 13 14  1  0
 13 15  1  0
 15 16  1  0
 16 17  2  0
 17 18  1  0
 18 19  2  0
 19 20  1  0
 20 21  2  0
 21 22  1  0
 22 23  2  0
 22 24  1  0
 15  2  1  0
 21 16  1  0
 10  5  2  0
M  CHG  3   9  -1  11  -1  24  -1
M  END
>  <UniqueID>  (1051) 
29

>  <SMILES>  (1051) 
C=c1c(=Cc2[nH]c(=O)[n-]c2[O-])cc(C)n1-c1ccccc1C(=O)[O-]

>  <Energy>  (1051) 
117.37533559443985

>  <Genealogy>  (1051) 
C=c1c(=Cc2[nH]c(=O)[n-]c2[O-])cc(C)n1-c1ccccc1C(=O)[O-] (protonated)
C=c1c(=Cc2[nH]c(=O)[n-]c2[O-])cc(C)n1-c1ccccc1C(=O)[O-] (3D coordinates assigned)
C=c1c(=Cc2[nH]c(=O)[n-]c2[O-])cc(C)n1-c1ccccc1C(=O)[O-] (optimized conformer: 117.37533559443985 kcal/mol)

>  <smiles>  (1051) 
C=c1c(=Cc2[nH]c(=O)[nH]c2O)cc(C)n1-c1ccccc1C(=O)O

>  <score_type>  (1051) 
oracle

>  <origin>  (1051) 
adg

>  <m_score__min__energy>  (1051) 
-15.289999999999999

>  <m_primary>  (1051) 
energy

$$$$
37:0
     RDKit          3D

 29 31  0  0  0  0  0  0  0  0999 V2000
   59.9110   27.6640   46.3250 C   0  0  0  0  0  0  0  0  0  0  0  0
   58.9830   28.3540   45.6440 C   0  0  0  0  0  0  0  0  0  0  0  0
   57.9660   27.8100   44.8530 C   0  0  0  0  0  0  0  0  0  0  0  0
   57.7420   26.5090   44.5860 C   0  0  0  0  0  0  0  0  0  0  0  0
   57.2540   25.5420   45.5950 C   0  0  0  0  0  0  0  0  0  0  0  0
   55.9870   25.6750   46.1920 C   0  0  0  0  0  0  0  0  0  0  0  0
   55.1460   26.7280   45.8520 O   0  0  0  0  0  0  0  0  0  0  0  0
   55.5840   24.7790   47.1300 N   0  0  0  0  0  0  0  0  0  0  0  0
   56.3890   23.7580   47.5180 C   0  0  0  0  0  0  0  0  0  0  0  0
   55.8750   22.6980   48.6470 S   0  0  0  0  0  0  0  0  0  0  0  0
   57.6280   23.6270   46.9780 N   0  0  0  0  0  0  0  0  0  0  0  0
   58.0780   24.4940   46.0360 C   0  0  0  0  0  0  0  0  0  0  0  0
   59.2350   24.3420   45.5580 O   0  0  0  0  0  0  0  0  0  0  0  0
   57.2420   28.8830   44.3570 C   0  0  0  0  0  0  0  0  0  0  0  0
   57.8350   30.0270   44.8550 C   0  0  0  0  0  0  0  0  0  0  0  0
   57.3460   31.4170   44.5830 C   0  0  0  0  0  0  0  0  0  0  0  0
   58.8920   29.7100   45.6400 N   0  0  0  0  0  0  0  0  0  0  0  0
   59.7830   30.6620   46.3230 C   0  0  0  0  0  0  0  0  0  0  0  0
   59.3170   30.9190   47.7340 C   0  0  0  0  0  0  0  0  0  0  0  0
   58.9750   32.2180   48.1420 C   0  0  0  0  0  0  0  0  0  0  0  0
   58.5540   32.4580   49.4520 C   0  0  0  0  0  0  0  0  0  0  0  0
   58.4730   31.4110   50.3780 C   0  0  0  0  0  0  0  0  0  0  0  0
   58.0300   31.7070   51.7100 N   0  0  0  0  0  0  0  0  0  0  0  0
   56.7500   30.9000   52.5560 S   0  0  0  0  0  0  0  0  0  0  0  0
   57.1050   30.8490   54.3000 C   0  0  0  0  0  0  0  0  0  0  0  0
   56.6460   29.4910   52.0440 O   0  0  0  0  0  0  0  0  0  0  0  0
   55.4450   31.6010   52.3060 O   0  0  0  0  0  0  0  0  0  0  0  0
   58.8310   30.1120   49.9760 C   0  0  0  0  0  0  0  0  0  0  0  0
   59.2530   29.8710   48.6650 C   0  0  0  0  0  0  0  0  0  0  0  0
  1  2  2  0
  2  3  1  0
  3  4  2  3
  4  5  1  0
  5  6  2  0
  6  7  1  0
  6  8  1  0
  8  9  1  0
  9 10  2  0
  9 11  1  0
 11 12  1  0
 12 13  2  0
  3 14  1  0
 14 15  2  0
 15 16  1  0
 15 17  1  0
 17 18  1  0
 18 19  1  0
 19 20  2  0
 20 21  1  0
 21 22  2  0
 22 23  1  0
 23 24  1  0
 24 25  1  0
 24 26  2  0
 24 27  2  0
 22 28  1  0
 28 29  2  0
 17  2  1  0
 29 19  1  0
 12  5  1  0
M  CHG  4   7  -1   8  -1  11  -1  23  -1
M  END
>  <UniqueID>  (1052) 
37

>  <SMILES>  (1052) 
C=c1c(=Cc2c([O-])[n-]c(=S)[n-]c2=O)cc(C)n1Cc1ccc([N-]S(C)(=O)=O)cc1

>  <Energy>  (1052) 
83.88254964247689

>  <Genealogy>  (1052) 
C=c1c(=Cc2c([O-])[n-]c(=S)[n-]c2=O)cc(C)n1Cc1ccc([N-]S(C)(=O)=O)cc1 (protonated)
C=c1c(=Cc2c([O-])[n-]c(=S)[n-]c2=O)cc(C)n1Cc1ccc([N-]S(C)(=O)=O)cc1 (3D coordinates assigned)
C=c1c(=Cc2c([O-])[n-]c(=S)[n-]c2=O)cc(C)n1Cc1ccc([N-]S(C)(=O)=O)cc1 (optimized conformer: 83.88254964247689 kcal/mol)

>  <smiles>  (1052) 
C=c1c(=Cc2c(O)[nH]c(=S)[nH]c2=O)cc(C)n1Cc1ccc(NS(C)(=O)=O)cc1

>  <score_type>  (1052) 
oracle

>  <origin>  (1052) 
adg

>  <m_score__min__energy>  (1052) 
-16.350000000000001

>  <m_primary>  (1052) 
energy

$$$$
53:0
     RDKit          3D

 28 30  0  0  0  0  0  0  0  0999 V2000
   58.8630   29.1030   47.4760 C   0  0  0  0  0  0  0  0  0  0  0  0
   58.4450   29.2170   46.2050 C   0  0  0  0  0  0  0  0  0  0  0  0
   58.1630   28.1670   45.3270 C   0  0  0  0  0  0  0  0  0  0  0  0
   58.2570   26.8450   45.5730 C   0  0  0  0  0  0  0  0  0  0  0  0
   57.0830   25.9660   45.7720 C   0  0  0  0  0  0  0  0  0  0  0  0
   55.7720   26.4770   45.7830 C   0  0  0  0  0  0  0  0  0  0  0  0
   55.5360   27.8350   45.6040 O   0  0  0  0  0  0  0  0  0  0  0  0
   54.7220   25.6420   45.9900 N   0  0  0  0  0  0  0  0  0  0  0  0
   54.9120   24.3150   46.2070 C   0  0  0  0  0  0  0  0  0  0  0  0
   53.6290   23.3370   46.4530 S   0  0  0  0  0  0  0  0  0  0  0  0
   56.1690   23.8040   46.2320 N   0  0  0  0  0  0  0  0  0  0  0  0
   57.2540   24.5960   46.0280 C   0  0  0  0  0  0  0  0  0  0  0  0
   58.4060   24.0870   46.0620 O   0  0  0  0  0  0  0  0  0  0  0  0
   57.8080   28.7510   44.1190 C   0  0  0  0  0  0  0  0  0  0  0  0
   57.8680   30.1170   44.3080 C   0  0  0  0  0  0  0  0  0  0  0  0
   57.5770   31.1360   43.2480 C   0  0  0  0  0  0  0  0  0  0  0  0
   58.2610   30.4020   45.5700 N   0  0  0  0  0  0  0  0  0  0  0  0
   58.4310   31.7210   46.1190 C   0  0  0  0  0  0  0  0  0  0  0  0
   57.4940   32.7250   45.8440 C   0  0  0  0  0  0  0  0  0  0  0  0
   57.6530   34.0000   46.3890 C   0  0  0  0  0  0  0  0  0  0  0  0
   58.7480   34.2840   47.2090 C   0  0  0  0  0  0  0  0  0  0  0  0
   59.7040   33.2890   47.4910 C   0  0  0  0  0  0  0  0  0  0  0  0
   60.8740   33.5630   48.3690 C   0  0  0  0  0  0  0  0  0  0  0  0
   60.6740   33.7640   49.6000 O   0  0  0  0  0  0  0  0  0  0  0  0
   62.2230   33.6320   47.8410 N   0  0  0  0  0  0  0  0  0  0  0  0
   62.9600   32.4090   48.1940 C   0  0  0  0  0  0  0  0  0  0  0  0
   62.2010   33.8180   46.3800 C   0  0  0  0  0  0  0  0  0  0  0  0
   59.5270   32.0040   46.9470 C   0  0  0  0  0  0  0  0  0  0  0  0
  1  2  2  0
  2  3  1  0
  3  4  2  3
  4  5  1  0
  5  6  2  0
  6  7  1  0
  6  8  1  0
  8  9  1  0
  9 10  2  0
  9 11  1  0
 11 12  1  0
 12 13  2  0
  3 14  1  0
 14 15  2  0
 15 16  1  0
 15 17  1  0
 17 18  1  0
 18 19  2  0
 19 20  1  0
 20 21  2  0
 21 22  1  0
 22 23  1  0
 23 24  2  0
 23 25  1  0
 25 26  1  0
 25 27  1  0
 22 28  2  0
 17  2  1  0
 28 18  1  0
 12  5  1  0
M  CHG  4   7  -1   8  -1  11  -1  25   1
M  END
>  <UniqueID>  (1053) 
52

>  <SMILES>  (1053) 
C=c1c(=Cc2c([O-])[n-]c(=S)[n-]c2=O)cc(C)n1-c1cccc(C(=O)[NH+](C)C)c1

>  <Energy>  (1053) 
96.5029089174656

>  <Genealogy>  (1053) 
C=c1c(=Cc2c([O-])[n-]c(=S)[n-]c2=O)cc(C)n1-c1cccc(C(=O)[NH+](C)C)c1 (protonated)
C=c1c(=Cc2c([O-])[n-]c(=S)[n-]c2=O)cc(C)n1-c1cccc(C(=O)[NH+](C)C)c1 (3D coordinates assigned)
C=c1c(=Cc2c([O-])[n-]c(=S)[n-]c2=O)cc(C)n1-c1cccc(C(=O)[NH+](C)C)c1 (optimized conformer: 96.5029089174656 kcal/mol)

>  <smiles>  (1053) 
C=c1c(=Cc2c(O)[nH]c(=S)[nH]c2=O)cc(C)n1-c1cccc(C(=O)N(C)C)c1

>  <score_type>  (1053) 
oracle

>  <origin>  (1053) 
adg

>  <m_score__min__energy>  (1053) 
-14.699999999999999

>  <m_primary>  (1053) 
energy

$$$$
73:0
     RDKit          3D

 27 29  0  0  0  0  0  0  0  0999 V2000
   58.0920   32.2220   46.3460 C   0  0  0  0  0  0  0  0  0  0  0  0
   58.4460   31.6400   47.5210 N   0  0  0  0  0  0  0  0  0  0  0  0
   59.0330   32.3300   48.5380 C   0  0  0  0  0  0  0  0  0  0  0  0
   59.3420   31.6690   49.6190 N   0  0  0  0  0  0  0  0  0  0  0  0
   58.5640   30.6920   50.3240 C   0  0  0  0  0  0  0  0  0  0  0  0
   58.0900   29.6950   49.7120 O   0  0  0  0  0  0  0  0  0  0  0  0
   58.2720   30.8900   51.7880 C   0  0  0  0  0  0  0  0  0  0  0  0
   57.7340   29.5750   52.3940 C   0  0  0  0  0  0  0  0  0  0  0  0
   56.8390   29.8470   53.6130 C   0  0  0  0  0  0  0  0  0  0  0  0
   55.6680   30.6980   53.2890 N   0  0  0  0  0  0  0  0  0  0  0  0
   54.2180   29.7410   53.0700 S   0  0  0  0  0  0  0  0  0  0  0  0
   53.5540   29.5200   54.4010 O   0  0  0  0  0  0  0  0  0  0  0  0
   54.5920   28.3980   52.5080 O   0  0  0  0  0  0  0  0  0  0  0  0
   53.0800   30.5330   51.9760 C   0  0  0  0  0  0  0  0  0  0  0  0
   52.8890   30.0410   50.6770 C   0  0  0  0  0  0  0  0  0  0  0  0
   51.9510   30.6380   49.8300 C   0  0  0  0  0  0  0  0  0  0  0  0
   51.2060   31.7370   50.2700 C   0  0  0  0  0  0  0  0  0  0  0  0
   50.2750   32.3260   49.4240 O   0  0  0  0  0  0  0  0  0  0  0  0
   51.4010   32.2390   51.5630 C   0  0  0  0  0  0  0  0  0  0  0  0
   50.6650   33.3320   52.0060 O   0  0  0  0  0  0  0  0  0  0  0  0
   52.3370   31.6400   52.4120 C   0  0  0  0  0  0  0  0  0  0  0  0
   55.8610   31.6110   52.1410 C   0  0  0  0  0  0  0  0  0  0  0  0
   57.3150   32.0840   52.0270 C   0  0  0  0  0  0  0  0  0  0  0  0
   59.2360   33.7280   48.3820 C   0  0  0  0  0  0  0  0  0  0  0  0
   59.7170   34.5340   49.4080 O   0  0  0  0  0  0  0  0  0  0  0  0
   58.8900   34.3340   47.1700 C   0  0  0  0  0  0  0  0  0  0  0  0
   58.3200   33.5810   46.1460 C   0  0  0  0  0  0  0  0  0  0  0  0
  1  2  1  0
  2  3  1  0
  3  4  2  0
  4  5  1  0
  5  6  2  0
  5  7  1  0
  7  8  1  0
  8  9  1  0
  9 10  1  0
 10 11  1  0
 11 12  2  0
 11 13  2  0
 11 14  1  0
 14 15  2  0
 15 16  1  0
 16 17  2  0
 17 18  1  0
 17 19  1  0
 19 20  1  0
 19 21  2  0
 10 22  1  0
 22 23  1  0
  3 24  1  0
 24 25  1  0
 24 26  2  0
 26 27  1  0
 27  1  2  0
 23  7  1  0
 21 14  1  0
M  CHG  4   2  -1  18  -1  20  -1  25  -1
M  END
>  <UniqueID>  (1054) 
71

>  <SMILES>  (1054) 
O=C(/N=c1/[n-]cccc1[O-])C1CCN(S(=O)(=O)c2ccc([O-])c([O-])c2)CC1

>  <Energy>  (1054) 
61.37426393644367

>  <Genealogy>  (1054) 
O=C(N=c1[n-]cccc1[O-])C1CCN(S(=O)(=O)c2ccc([O-])c([O-])c2)CC1 (protonated)
O=C(/N=c1/[n-]cccc1[O-])C1CCN(S(=O)(=O)c2ccc([O-])c([O-])c2)CC1 (cis-trans isomerization)
O=C(/N=c1/[n-]cccc1[O-])C1CCN(S(=O)(=O)c2ccc([O-])c([O-])c2)CC1 (3D coordinates assigned)
O=C(/N=c1/[n-]cccc1[O-])C1CCN(S(=O)(=O)c2ccc([O-])c([O-])c2)CC1 (nonaromatic ring conformer: 61.37426393644367 kcal/mol)

>  <smiles>  (1054) 
O=C(N=c1[nH]cccc1O)C1CCN(S(=O)(=O)c2ccc(O)c(O)c2)CC1

>  <score_type>  (1054) 
oracle

>  <origin>  (1054) 
adg

>  <m_score__min__energy>  (1054) 
-17.719999999999999

>  <m_primary>  (1054) 
energy

$$$$
85:0
     RDKit          3D

 26 28  0  0  0  0  0  0  0  0999 V2000
   59.3060   30.4600   45.5540 C   0  0  0  0  0  0  0  0  0  0  0  0
   59.4760   29.5930   46.5650 C   0  0  0  0  0  0  0  0  0  0  0  0
   59.1120   28.2420   46.5610 C   0  0  0  0  0  0  0  0  0  0  0  0
   58.4670   27.5730   45.5860 C   0  0  0  0  0  0  0  0  0  0  0  0
   57.2120   26.8270   45.7880 C   0  0  0  0  0  0  0  0  0  0  0  0
   57.1670   25.5780   46.2840 N   0  0  0  0  0  0  0  0  0  0  0  0
   55.8440   25.3240   46.3770 C   0  0  0  0  0  0  0  0  0  0  0  0
   55.3920   24.2270   46.7970 O   0  0  0  0  0  0  0  0  0  0  0  0
   55.0430   26.3420   45.9980 N   0  0  0  0  0  0  0  0  0  0  0  0
   55.9220   27.2910   45.6400 C   0  0  0  0  0  0  0  0  0  0  0  0
   55.5530   28.5670   45.2310 O   0  0  0  0  0  0  0  0  0  0  0  0
   59.4880   27.7340   47.7950 C   0  0  0  0  0  0  0  0  0  0  0  0
   60.0640   28.7740   48.4940 C   0  0  0  0  0  0  0  0  0  0  0  0
   60.6300   28.6480   49.8770 C   0  0  0  0  0  0  0  0  0  0  0  0
   60.0570   29.9090   47.7530 N   0  0  0  0  0  0  0  0  0  0  0  0
   60.5510   31.2270   48.1810 C   0  0  0  0  0  0  0  0  0  0  0  0
   59.3960   32.1750   48.5420 C   0  0  0  0  0  0  0  0  0  0  0  0
   59.0610   33.1170   47.4040 C   0  0  0  0  0  0  0  0  0  0  0  0
   57.7500   33.0790   46.8940 C   0  0  0  0  0  0  0  0  0  0  0  0
   57.3970   33.8240   45.7690 C   0  0  0  0  0  0  0  0  0  0  0  0
   58.3500   34.6080   45.1240 C   0  0  0  0  0  0  0  0  0  0  0  0
   59.6560   34.6620   45.6100 C   0  0  0  0  0  0  0  0  0  0  0  0
   60.0290   33.9370   46.7570 C   0  0  0  0  0  0  0  0  0  0  0  0
   61.4240   34.0740   47.2300 C   0  0  0  0  0  0  0  0  0  0  0  0
   61.6550   34.3000   48.4480 O   0  0  0  0  0  0  0  0  0  0  0  0
   62.4950   33.8750   46.3680 O   0  0  0  0  0  0  0  0  0  0  0  0
  1  2  2  0
  2  3  1  0
  3  4  2  3
  4  5  1  0
  5  6  1  0
  6  7  1  0
  7  8  2  0
  7  9  1  0
  9 10  1  0
 10 11  1  0
  3 12  1  0
 12 13  2  0
 13 14  1  0
 13 15  1  0
 15 16  1  0
 16 17  1  0
 17 18  1  0
 18 19  2  0
 19 20  1  0
 20 21  2  0
 21 22  1  0
 22 23  2  0
 23 24  1  0
 24 25  2  0
 24 26  1  0
 15  2  1  0
 23 18  1  0
 10  5  2  0
M  CHG  4   6  -1   9  -1  11  -1  26  -1
M  END
>  <UniqueID>  (1055) 
81

>  <SMILES>  (1055) 
C=c1c(=Cc2[n-]c(=O)[n-]c2[O-])cc(C)n1CCc1ccccc1C(=O)[O-]

>  <Energy>  (1055) 
110.15265708682921

>  <Genealogy>  (1055) 
C=c1c(=Cc2[n-]c(=O)[n-]c2[O-])cc(C)n1CCc1ccccc1C(=O)[O-] (protonated)
C=c1c(=Cc2[n-]c(=O)[n-]c2[O-])cc(C)n1CCc1ccccc1C(=O)[O-] (3D coordinates assigned)
C=c1c(=Cc2[n-]c(=O)[n-]c2[O-])cc(C)n1CCc1ccccc1C(=O)[O-] (optimized conformer: 110.15265708682921 kcal/mol)

>  <smiles>  (1055) 
C=c1c(=Cc2[nH]c(=O)[nH]c2O)cc(C)n1CCc1ccccc1C(=O)O

>  <score_type>  (1055) 
oracle

>  <origin>  (1055) 
adg

>  <m_score__min__energy>  (1055) 
-17.280000000000001

>  <m_primary>  (1055) 
energy

$$$$
23:0
     RDKit          3D

 27 30  0  0  0  0  0  0  0  0999 V2000
   57.9840   35.0230   44.5790 O   0  0  0  0  0  0  0  0  0  0  0  0
   58.1200   33.8560   45.0370 C   0  0  0  0  0  0  0  0  0  0  0  0
   57.6250   32.6990   44.2570 C   0  0  0  0  0  0  0  0  0  0  0  0
   57.8910   32.6000   42.8810 C   0  0  0  0  0  0  0  0  0  0  0  0
   57.4430   31.4960   42.1510 C   0  0  0  0  0  0  0  0  0  0  0  0
   56.7310   30.4750   42.7870 C   0  0  0  0  0  0  0  0  0  0  0  0
   56.4560   30.5570   44.1610 C   0  0  0  0  0  0  0  0  0  0  0  0
   55.7350   29.4380   44.8600 C   0  0  0  0  0  0  0  0  0  0  0  0
   56.7090   28.3870   45.2940 C   0  0  0  0  0  0  0  0  0  0  0  0
   58.0450   28.5210   45.2230 N   0  0  0  0  0  0  0  0  0  0  0  0
   58.5000   27.3730   45.7720 C   0  0  0  0  0  0  0  0  0  0  0  0
   59.7280   27.1170   45.8810 O   0  0  0  0  0  0  0  0  0  0  0  0
   57.5390   26.5260   46.1960 N   0  0  0  0  0  0  0  0  0  0  0  0
   56.4100   27.1860   45.8910 C   0  0  0  0  0  0  0  0  0  0  0  0
   55.1330   26.7060   46.1570 O   0  0  0  0  0  0  0  0  0  0  0  0
   56.9180   31.6640   44.8910 C   0  0  0  0  0  0  0  0  0  0  0  0
   58.7730   33.6690   46.3020 N   0  0  0  0  0  0  0  0  0  0  0  0
   58.0630   33.0150   47.4060 C   0  0  0  0  0  0  0  0  0  0  0  0
   59.0090   32.0630   48.1340 C   0  0  0  0  0  0  0  0  0  0  0  0
   60.2790   32.7810   48.6590 C   0  0  0  0  0  0  0  0  0  0  0  0
   61.4340   31.8420   48.6880 N   0  0  0  0  0  0  0  0  0  0  0  0
   62.5910   32.3520   49.4450 C   0  0  0  0  0  0  0  0  0  0  0  0
   63.8170   32.2960   48.5410 C   0  0  0  0  0  0  0  0  0  0  0  0
   63.2820   32.0370   47.1500 C   0  0  0  0  0  0  0  0  0  0  0  0
   61.9260   31.4020   47.3730 C   0  0  0  0  0  0  0  0  0  0  0  0
   60.5730   34.1520   47.9710 C   0  0  0  0  0  0  0  0  0  0  0  0
   60.0950   34.2720   46.5130 C   0  0  0  0  0  0  0  0  0  0  0  0
  1  2  2  0
  2  3  1  0
  3  4  2  0
  4  5  1  0
  5  6  2  0
  6  7  1  0
  7  8  1  0
  8  9  1  0
  9 10  1  0
 10 11  1  0
 11 12  2  0
 11 13  1  0
 13 14  1  0
 14 15  1  0
  7 16  2  0
  2 17  1  0
 17 18  1  0
 18 19  1  0
 19 20  1  0
 20 21  1  0
 21 22  1  0
 22 23  1  0
 23 24  1  0
 24 25  1  0
 20 26  1  0
 26 27  1  0
 16  3  1  0
 27 17  1  0
 14  9  2  0
 25 21  1  0
M  CHG  2  10  -1  13  -1
M  END
>  <UniqueID>  (1056) 
23

>  <SMILES>  (1056) 
O=C(c1cccc(Cc2[n-]c(=O)[n-]c2O)c1)N1CCC(N2CCCC2)CC1

>  <Energy>  (1056) 
94.4378803311384

>  <Genealogy>  (1056) 
O=C(c1cccc(Cc2[n-]c(=O)[n-]c2O)c1)N1CCC(N2CCCC2)CC1 (protonated)
O=C(c1cccc(Cc2[n-]c(=O)[n-]c2O)c1)N1CCC(N2CCCC2)CC1 (3D coordinates assigned)
O=C(c1cccc(Cc2[n-]c(=O)[n-]c2O)c1)N1CCC(N2CCCC2)CC1 (nonaromatic ring conformer: 94.4378803311384 kcal/mol)

>  <smiles>  (1056) 
O=C(c1cccc(Cc2[nH]c(=O)[nH]c2O)c1)N1CCC(N2CCCC2)CC1

>  <score_type>  (1056) 
oracle

>  <origin>  (1056) 
adg

>  <m_score__min__energy>  (1056) 
-14.44

>  <m_primary>  (1056) 
energy

$$$$
47:0
     RDKit          3D

 31 34  0  0  0  0  0  0  0  0999 V2000
   58.7990   28.6380   47.1080 C   0  0  0  0  0  0  0  0  0  0  0  0
   58.3380   29.2060   45.9820 C   0  0  0  0  0  0  0  0  0  0  0  0
   57.6370   28.5780   44.9400 C   0  0  0  0  0  0  0  0  0  0  0  0
   57.4100   27.2740   44.6860 C   0  0  0  0  0  0  0  0  0  0  0  0
   57.2700   26.2140   45.7050 C   0  0  0  0  0  0  0  0  0  0  0  0
   56.0400   25.9730   46.3430 C   0  0  0  0  0  0  0  0  0  0  0  0
   54.9070   26.7060   46.0070 O   0  0  0  0  0  0  0  0  0  0  0  0
   55.9520   25.0150   47.3030 N   0  0  0  0  0  0  0  0  0  0  0  0
   57.0410   24.2950   47.6760 C   0  0  0  0  0  0  0  0  0  0  0  0
   56.9340   23.4120   48.5640 O   0  0  0  0  0  0  0  0  0  0  0  0
   58.2440   24.5310   47.0950 N   0  0  0  0  0  0  0  0  0  0  0  0
   58.3850   25.4750   46.1290 C   0  0  0  0  0  0  0  0  0  0  0  0
   59.5190   25.6730   45.6150 O   0  0  0  0  0  0  0  0  0  0  0  0
   57.1880   29.5920   44.1080 C   0  0  0  0  0  0  0  0  0  0  0  0
   57.6760   30.7760   44.6200 C   0  0  0  0  0  0  0  0  0  0  0  0
   57.4600   32.1220   43.9990 C   0  0  0  0  0  0  0  0  0  0  0  0
   58.3720   30.5460   45.7550 N   0  0  0  0  0  0  0  0  0  0  0  0
   59.0550   31.5400   46.5420 C   0  0  0  0  0  0  0  0  0  0  0  0
   58.3420   32.5820   47.1500 C   0  0  0  0  0  0  0  0  0  0  0  0
   59.0140   33.5420   47.9100 C   0  0  0  0  0  0  0  0  0  0  0  0
   60.3990   33.4620   48.0810 C   0  0  0  0  0  0  0  0  0  0  0  0
   61.1260   32.4130   47.4910 C   0  0  0  0  0  0  0  0  0  0  0  0
   62.5920   32.3130   47.6790 C   0  0  0  0  0  0  0  0  0  0  0  0
   63.2990   31.7610   46.7920 O   0  0  0  0  0  0  0  0  0  0  0  0
   63.2180   32.8150   48.8720 N   0  0  0  0  0  0  0  0  0  0  0  0
   63.0380   34.2140   49.2650 C   0  0  0  0  0  0  0  0  0  0  0  0
   63.1670   34.3340   50.7860 C   0  0  0  0  0  0  0  0  0  0  0  0
   64.3820   33.7600   51.2310 O   0  0  0  0  0  0  0  0  0  0  0  0
   64.3790   32.3670   50.9760 C   0  0  0  0  0  0  0  0  0  0  0  0
   64.3370   32.0850   49.4700 C   0  0  0  0  0  0  0  0  0  0  0  0
   60.4460   31.4680   46.7050 C   0  0  0  0  0  0  0  0  0  0  0  0
  1  2  2  0
  2  3  1  0
  3  4  2  3
  4  5  1  0
  5  6  2  0
  6  7  1  0
  6  8  1  0
  8  9  1  0
  9 10  2  0
  9 11  1  0
 11 12  1  0
 12 13  2  0
  3 14  1  0
 14 15  2  0
 15 16  1  0
 15 17  1  0
 17 18  1  0
 18 19  2  0
 19 20  1  0
 20 21  2  0
 21 22  1  0
 22 23  1  0
 23 24  2  0
 23 25  1  0
 25 26  1  0
 26 27  1  0
 27 28  1  0
 28 29  1  0
 29 30  1  0
 22 31  2  0
 17  2  1  0
 31 18  1  0
 12  5  1  0
 30 25  1  0
M  CHG  3   7  -1   8  -1  11  -1
M  END
>  <UniqueID>  (1057) 
44

>  <SMILES>  (1057) 
C=c1c(=Cc2c([O-])[n-]c(=O)[n-]c2=O)cc(C)n1-c1cccc(C(=O)N2CCOCC2)c1

>  <Energy>  (1057) 
106.73283433654319

>  <Genealogy>  (1057) 
C=c1c(=Cc2c([O-])[n-]c(=O)[n-]c2=O)cc(C)n1-c1cccc(C(=O)N2CCOCC2)c1 (protonated)
C=c1c(=Cc2c([O-])[n-]c(=O)[n-]c2=O)cc(C)n1-c1cccc(C(=O)N2CCOCC2)c1 (3D coordinates assigned)
C=c1c(=Cc2c([O-])[n-]c(=O)[n-]c2=O)cc(C)n1-c1cccc(C(=O)N2CCOCC2)c1 (nonaromatic ring conformer: 106.73283433654319 kcal/mol)

>  <smiles>  (1057) 
C=c1c(=Cc2c(O)[nH]c(=O)[nH]c2=O)cc(C)n1-c1cccc(C(=O)N2CCOCC2)c1

>  <score_type>  (1057) 
oracle

>  <origin>  (1057) 
adg

>  <m_score__min__energy>  (1057) 
-17.149999999999999

>  <m_primary>  (1057) 
energy

$$$$
53:0
     RDKit          3D

 29 31  0  0  0  0  0  0  0  0999 V2000
   56.1010   32.6380   52.3360 O   0  0  0  0  0  0  0  0  0  0  0  0
   56.3940   31.4560   52.0110 C   0  0  0  0  0  0  0  0  0  0  0  0
   57.8230   31.0990   51.7560 C   0  0  0  0  0  0  0  0  0  0  0  0
   57.8830   29.8520   51.0080 N   0  0  0  0  0  0  0  0  0  0  0  0
   59.0860   29.3600   50.4100 C   0  0  0  0  0  0  0  0  0  0  0  0
   60.1110   29.1810   51.1240 O   0  0  0  0  0  0  0  0  0  0  0  0
   59.1310   29.0620   48.9590 C   0  0  0  0  0  0  0  0  0  0  0  0
   59.6680   27.8470   48.4950 C   0  0  0  0  0  0  0  0  0  0  0  0
   59.7000   27.5640   47.1270 C   0  0  0  0  0  0  0  0  0  0  0  0
   59.2020   28.4880   46.2070 C   0  0  0  0  0  0  0  0  0  0  0  0
   58.6740   29.7060   46.6500 C   0  0  0  0  0  0  0  0  0  0  0  0
   58.0220   30.8560   45.4820 S   0  0  0  0  0  0  0  0  0  0  0  0
   58.8990   30.8930   44.2610 O   0  0  0  0  0  0  0  0  0  0  0  0
   56.6500   30.4000   45.0710 O   0  0  0  0  0  0  0  0  0  0  0  0
   57.9240   32.4460   46.1990 N   0  0  0  0  0  0  0  0  0  0  0  0
   59.1870   32.7590   46.9050 C   0  0  0  0  0  0  0  0  0  0  0  0
   59.3370   34.2630   47.1480 C   0  0  0  0  0  0  0  0  0  0  0  0
   59.3960   35.0360   45.8190 C   0  0  0  0  0  0  0  0  0  0  0  0
   58.6870   34.2970   44.6710 C   0  0  0  0  0  0  0  0  0  0  0  0
   57.5120   33.4580   45.1940 C   0  0  0  0  0  0  0  0  0  0  0  0
   58.6340   29.9890   48.0230 C   0  0  0  0  0  0  0  0  0  0  0  0
   55.3630   30.4800   51.7910 N   0  0  0  0  0  0  0  0  0  0  0  0
   53.9860   30.6610   52.1620 C   0  0  0  0  0  0  0  0  0  0  0  0
   53.4660   29.9380   53.2470 C   0  0  0  0  0  0  0  0  0  0  0  0
   52.1350   30.1130   53.6410 C   0  0  0  0  0  0  0  0  0  0  0  0
   51.3180   31.0200   52.9630 C   0  0  0  0  0  0  0  0  0  0  0  0
   51.8310   31.7630   51.8960 C   0  0  0  0  0  0  0  0  0  0  0  0
   51.0220   32.6780   51.2340 O   0  0  0  0  0  0  0  0  0  0  0  0
   53.1630   31.5900   51.4980 C   0  0  0  0  0  0  0  0  0  0  0  0
  1  2  2  0
  2  3  1  0
  3  4  1  0
  4  5  1  0
  5  6  2  0
  5  7  1  0
  7  8  2  0
  8  9  1  0
  9 10  2  0
 10 11  1  0
 11 12  1  0
 12 13  2  0
 12 14  2  0
 12 15  1  0
 15 16  1  0
 16 17  1  0
 17 18  1  0
 18 19  1  0
 19 20  1  0
 11 21  2  0
  2 22  1  0
 22 23  1  0
 23 24  2  0
 24 25  1  0
 25 26  2  0
 26 27  1  0
 27 28  1  0
 27 29  2  0
 21  7  1  0
 29 23  1  0
 20 15  1  0
M  CHG  2   4  -1  28  -1
M  END
>  <UniqueID>  (1058) 
49

>  <SMILES>  (1058) 
O=C(C[N-]C(=O)c1cccc(S(=O)(=O)N2CCCCC2)c1)Nc1cccc([O-])c1

>  <Energy>  (1058) 
56.701255746892

>  <Genealogy>  (1058) 
O=C(C[N-]C(=O)c1cccc(S(=O)(=O)N2CCCCC2)c1)Nc1cccc([O-])c1 (protonated)
O=C(C[N-]C(=O)c1cccc(S(=O)(=O)N2CCCCC2)c1)Nc1cccc([O-])c1 (3D coordinates assigned)
O=C(C[N-]C(=O)c1cccc(S(=O)(=O)N2CCCCC2)c1)Nc1cccc([O-])c1 (nonaromatic ring conformer: 56.701255746892 kcal/mol)

>  <smiles>  (1058) 
O=C(CNC(=O)c1cccc(S(=O)(=O)N2CCCCC2)c1)Nc1cccc(O)c1

>  <score_type>  (1058) 
oracle

>  <origin>  (1058) 
adg

>  <m_score__min__energy>  (1058) 
-15.18

>  <m_primary>  (1058) 
energy

$$$$
65:0
     RDKit          3D

 28 30  0  0  0  0  0  0  0  0999 V2000
   55.1400   26.6460   45.9860 N   0  0  0  0  0  0  0  0  0  0  0  0
   55.8870   25.4770   46.3290 C   0  0  0  0  0  0  0  0  0  0  0  0
   56.2600   25.3210   47.5240 O   0  0  0  0  0  0  0  0  0  0  0  0
   56.2100   24.4610   45.2920 C   0  0  0  0  0  0  0  0  0  0  0  0
   55.2040   24.0700   44.3830 C   0  0  0  0  0  0  0  0  0  0  0  0
   55.4710   23.1390   43.3780 C   0  0  0  0  0  0  0  0  0  0  0  0
   56.7470   22.5970   43.2480 C   0  0  0  0  0  0  0  0  0  0  0  0
   57.7570   22.9680   44.1360 C   0  0  0  0  0  0  0  0  0  0  0  0
   57.4940   23.8680   45.1840 C   0  0  0  0  0  0  0  0  0  0  0  0
   58.5500   24.2520   46.0810 N   0  0  0  0  0  0  0  0  0  0  0  0
   59.2750   25.4900   46.0740 C   0  0  0  0  0  0  0  0  0  0  0  0
   60.5330   25.4570   46.1080 O   0  0  0  0  0  0  0  0  0  0  0  0
   58.5880   26.8200   45.9260 C   0  0  0  0  0  0  0  0  0  0  0  0
   59.7200   28.0770   45.2390 S   0  0  0  0  0  0  0  0  0  0  0  0
   58.4180   29.2340   44.8210 C   0  0  0  0  0  0  0  0  0  0  0  0
   58.7250   30.5200   44.5090 N   0  0  0  0  0  0  0  0  0  0  0  0
   57.7520   31.4210   44.2140 C   0  0  0  0  0  0  0  0  0  0  0  0
   58.1290   32.8280   43.8550 C   0  0  0  0  0  0  0  0  0  0  0  0
   58.5240   33.5870   45.0930 C   0  0  0  0  0  0  0  0  0  0  0  0
   59.2920   34.7590   44.9920 C   0  0  0  0  0  0  0  0  0  0  0  0
   59.6980   35.4350   46.1470 C   0  0  0  0  0  0  0  0  0  0  0  0
   59.3460   34.9430   47.4070 C   0  0  0  0  0  0  0  0  0  0  0  0
   58.5870   33.7730   47.5140 C   0  0  0  0  0  0  0  0  0  0  0  0
   58.1840   33.0920   46.3620 C   0  0  0  0  0  0  0  0  0  0  0  0
   56.4140   31.0090   44.1890 C   0  0  0  0  0  0  0  0  0  0  0  0
   56.1210   29.6790   44.4940 C   0  0  0  0  0  0  0  0  0  0  0  0
   54.9290   29.2710   44.4750 O   0  0  0  0  0  0  0  0  0  0  0  0
   57.1230   28.8220   44.8150 N   0  0  0  0  0  0  0  0  0  0  0  0
  1  2  1  0
  2  3  2  0
  2  4  1  0
  4  5  2  0
  5  6  1  0
  6  7  2  0
  7  8  1  0
  8  9  2  0
  9 10  1  0
 10 11  1  0
 11 12  2  0
 11 13  1  0
 13 14  1  0
 14 15  1  0
 15 16  2  0
 16 17  1  0
 17 18  1  0
 18 19  1  0
 19 20  2  0
 20 21  1  0
 21 22  2  0
 22 23  1  0
 23 24  2  0
 17 25  2  0
 25 26  1  0
 26 27  2  0
 26 28  1  0
  9  4  1  0
 28 15  1  0
 24 19  1  0
M  CHG  3   1  -1  10  -1  28  -1
M  END
>  <UniqueID>  (1059) 
61

>  <SMILES>  (1059) 
[NH-]C(=O)c1ccccc1[N-]C(=O)CSc1nc(Cc2ccccc2)cc(=O)[n-]1

>  <Energy>  (1059) 
46.17402602077896

>  <Genealogy>  (1059) 
[NH-]C(=O)c1ccccc1[N-]C(=O)CSc1nc(Cc2ccccc2)cc(=O)[n-]1 (protonated)
[NH-]C(=O)c1ccccc1[N-]C(=O)CSc1nc(Cc2ccccc2)cc(=O)[n-]1 (3D coordinates assigned)
[NH-]C(=O)c1ccccc1[N-]C(=O)CSc1nc(Cc2ccccc2)cc(=O)[n-]1 (optimized conformer: 46.17402602077896 kcal/mol)

>  <smiles>  (1059) 
NC(=O)c1ccccc1NC(=O)CSc1nc(Cc2ccccc2)cc(=O)[nH]1

>  <score_type>  (1059) 
oracle

>  <origin>  (1059) 
adg

>  <m_score__min__energy>  (1059) 
-15.48

>  <m_primary>  (1059) 
energy

$$$$
71:0
     RDKit          3D

 23 25  0  0  0  0  0  0  0  0999 V2000
   56.9550   30.7230   42.5040 O   0  0  0  0  0  0  0  0  0  0  0  0
   57.1340   30.1860   43.6320 C   0  0  0  0  0  0  0  0  0  0  0  0
   57.6170   28.7710   43.7060 C   0  0  0  0  0  0  0  0  0  0  0  0
   58.6430   28.6210   44.8060 C   0  0  0  0  0  0  0  0  0  0  0  0
   59.8060   29.4120   44.7610 C   0  0  0  0  0  0  0  0  0  0  0  0
   60.7380   29.3660   45.7980 C   0  0  0  0  0  0  0  0  0  0  0  0
   60.5170   28.5440   46.9030 C   0  0  0  0  0  0  0  0  0  0  0  0
   59.3650   27.7600   46.9710 C   0  0  0  0  0  0  0  0  0  0  0  0
   58.4260   27.7800   45.9280 C   0  0  0  0  0  0  0  0  0  0  0  0
   57.2210   26.9400   46.0550 C   0  0  0  0  0  0  0  0  0  0  0  0
   57.1860   25.6220   46.4510 C   0  0  0  0  0  0  0  0  0  0  0  0
   55.8590   25.2520   46.3710 C   0  0  0  0  0  0  0  0  0  0  0  0
   55.3730   23.9930   46.6960 O   0  0  0  0  0  0  0  0  0  0  0  0
   55.0740   26.2560   45.9320 N   0  0  0  0  0  0  0  0  0  0  0  0
   55.9220   27.2820   45.7340 C   0  0  0  0  0  0  0  0  0  0  0  0
   55.5200   28.5180   45.2400 O   0  0  0  0  0  0  0  0  0  0  0  0
   56.8740   30.9040   44.8490 N   0  0  0  0  0  0  0  0  0  0  0  0
   57.4820   31.9730   45.2710 C   0  0  0  0  0  0  0  0  0  0  0  0
   57.7010   33.0370   44.4480 N   0  0  0  0  0  0  0  0  0  0  0  0
   58.3310   34.1540   44.8950 C   0  0  0  0  0  0  0  0  0  0  0  0
   58.7650   34.2240   46.2180 C   0  0  0  0  0  0  0  0  0  0  0  0
   58.5350   33.1300   47.0490 C   0  0  0  0  0  0  0  0  0  0  0  0
   57.9000   32.0310   46.5630 N   0  0  0  0  0  0  0  0  0  0  0  0
  1  2  2  0
  2  3  1  0
  3  4  1  0
  4  5  2  0
  5  6  1  0
  6  7  2  0
  7  8  1  0
  8  9  2  0
  9 10  1  0
 10 11  1  0
 11 12  2  0
 12 13  1  0
 12 14  1  0
 14 15  1  0
 15 16  1  0
  2 17  1  0
 17 18  2  3
 18 19  1  0
 19 20  2  0
 20 21  1  0
 21 22  2  0
 22 23  1  0
  9  4  1  0
 15 10  2  0
 23 18  1  0
M  CHG  4  13  -1  14  -1  16  -1  23  -1
M  END
>  <UniqueID>  (1060) 
66

>  <SMILES>  (1060) 
O=C(Cc1ccccc1-c1cc([O-])[n-]c1[O-])N=c1nccc[n-]1

>  <Energy>  (1060) 
71.95744615199057

>  <Genealogy>  (1060) 
O=C(Cc1ccccc1-c1cc([O-])[n-]c1[O-])N=c1nccc[n-]1 (protonated)
O=C(Cc1ccccc1-c1cc([O-])[n-]c1[O-])N=c1nccc[n-]1 (3D coordinates assigned)
O=C(Cc1ccccc1-c1cc([O-])[n-]c1[O-])N=c1nccc[n-]1 (optimized conformer: 71.95744615199057 kcal/mol)

>  <smiles>  (1060) 
O=C(Cc1ccccc1-c1cc(O)[nH]c1O)N=c1nccc[nH]1

>  <score_type>  (1060) 
oracle

>  <origin>  (1060) 
adg

>  <m_score__min__energy>  (1060) 
-16.640000000000001

>  <m_primary>  (1060) 
energy

$$$$
76:0
     RDKit          3D

 23 25  0  0  0  0  0  0  0  0999 V2000
   53.5680   28.8860   52.1520 O   0  0  0  0  0  0  0  0  0  0  0  0
   54.0600   30.0080   51.8500 C   0  0  0  0  0  0  0  0  0  0  0  0
   53.2550   30.9140   50.9520 C   0  0  0  0  0  0  0  0  0  0  0  0
   52.1150   31.5660   51.6850 C   0  0  0  0  0  0  0  0  0  0  0  0
   51.8570   31.4270   53.0000 N   0  0  0  0  0  0  0  0  0  0  0  0
   50.7230   32.1440   53.1720 C   0  0  0  0  0  0  0  0  0  0  0  0
   50.1610   32.2660   54.2920 O   0  0  0  0  0  0  0  0  0  0  0  0
   50.2380   32.7210   52.0490 N   0  0  0  0  0  0  0  0  0  0  0  0
   51.1300   32.3410   51.1180 C   0  0  0  0  0  0  0  0  0  0  0  0
   51.0390   32.6870   49.7740 O   0  0  0  0  0  0  0  0  0  0  0  0
   55.3560   30.3820   52.3750 N   0  0  0  0  0  0  0  0  0  0  0  0
   55.8530   31.7650   52.3440 C   0  0  0  0  0  0  0  0  0  0  0  0
   57.3500   31.8180   51.9730 C   0  0  0  0  0  0  0  0  0  0  0  0
   58.1230   30.6110   52.3700 N   0  0  0  0  0  0  0  0  0  0  0  0
   58.3940   29.7110   51.2250 C   0  0  0  0  0  0  0  0  0  0  0  0
   59.6030   30.1910   50.4650 C   0  0  0  0  0  0  0  0  0  0  0  0
   60.8780   30.0830   51.0380 C   0  0  0  0  0  0  0  0  0  0  0  0
   61.9890   30.5550   50.3340 C   0  0  0  0  0  0  0  0  0  0  0  0
   61.8320   31.1190   49.1040 N   0  0  0  0  0  0  0  0  0  0  0  0
   60.6050   31.2350   48.5260 C   0  0  0  0  0  0  0  0  0  0  0  0
   59.4680   30.7740   49.1950 C   0  0  0  0  0  0  0  0  0  0  0  0
   57.5100   29.8980   53.5060 C   0  0  0  0  0  0  0  0  0  0  0  0
   56.1080   29.3860   53.1520 C   0  0  0  0  0  0  0  0  0  0  0  0
  1  2  2  0
  2  3  1  0
  3  4  1  0
  4  5  1  0
  5  6  1  0
  6  7  2  0
  6  8  1  0
  8  9  1  0
  9 10  1  0
  2 11  1  0
 11 12  1  0
 12 13  1  0
 13 14  1  0
 14 15  1  0
 15 16  1  0
 16 17  2  0
 17 18  1  0
 18 19  2  0
 19 20  1  0
 20 21  2  0
 14 22  1  0
 22 23  1  0
  9  4  2  0
 23 11  1  0
 21 16  1  0
M  CHG  4   5  -1   8  -1  10  -1  19   1
M  END
>  <UniqueID>  (1061) 
71

>  <SMILES>  (1061) 
O=C(Cc1[n-]c(=O)[n-]c1[O-])N1CCN(Cc2cc[nH+]cc2)CC1

>  <Energy>  (1061) 
78.63260327078365

>  <Genealogy>  (1061) 
O=C(Cc1[n-]c(=O)[n-]c1[O-])N1CCN(Cc2cc[nH+]cc2)CC1 (protonated)
O=C(Cc1[n-]c(=O)[n-]c1[O-])N1CCN(Cc2cc[nH+]cc2)CC1 (3D coordinates assigned)
O=C(Cc1[n-]c(=O)[n-]c1[O-])N1CCN(Cc2cc[nH+]cc2)CC1 (nonaromatic ring conformer: 78.63260327078365 kcal/mol)

>  <smiles>  (1061) 
O=C(Cc1[nH]c(=O)[nH]c1O)N1CCN(Cc2ccncc2)CC1

>  <score_type>  (1061) 
oracle

>  <origin>  (1061) 
adg

>  <m_score__min__energy>  (1061) 
-14.029999999999999

>  <m_primary>  (1061) 
energy

$$$$
8:0
     RDKit          3D

 33 35  0  0  0  0  0  0  0  0999 V2000
   52.7110   24.4700   44.8770 C   0  0  0  0  0  0  0  0  0  0  0  0
   53.7750   23.6420   45.4400 N   0  0  0  0  0  0  0  0  0  0  0  0
   55.1280   24.1080   45.3910 C   0  0  0  0  0  0  0  0  0  0  0  0
   56.1530   23.2250   45.0370 C   0  0  0  0  0  0  0  0  0  0  0  0
   57.4700   23.6740   44.9610 C   0  0  0  0  0  0  0  0  0  0  0  0
   57.7730   25.0100   45.2330 C   0  0  0  0  0  0  0  0  0  0  0  0
   56.7580   25.9170   45.5970 C   0  0  0  0  0  0  0  0  0  0  0  0
   57.1050   27.3380   45.8480 C   0  0  0  0  0  0  0  0  0  0  0  0
   56.3370   28.2510   45.4390 O   0  0  0  0  0  0  0  0  0  0  0  0
   58.3290   27.6840   46.5100 N   0  0  0  0  0  0  0  0  0  0  0  0
   58.7620   29.0150   46.8210 C   0  0  0  0  0  0  0  0  0  0  0  0
   59.5620   29.2280   47.9500 C   0  0  0  0  0  0  0  0  0  0  0  0
   59.9100   30.4910   48.3160 N   0  0  0  0  0  0  0  0  0  0  0  0
   59.4940   31.5790   47.6160 C   0  0  0  0  0  0  0  0  0  0  0  0
   58.6810   31.4200   46.4890 C   0  0  0  0  0  0  0  0  0  0  0  0
   58.0650   32.8280   45.6230 S   0  0  0  0  0  0  0  0  0  0  0  0
   58.8660   33.0040   44.3650 O   0  0  0  0  0  0  0  0  0  0  0  0
   56.6320   32.5900   45.2340 O   0  0  0  0  0  0  0  0  0  0  0  0
   58.1610   34.2960   46.5600 N   0  0  0  0  0  0  0  0  0  0  0  0
   59.4070   35.0310   46.3290 C   0  0  0  0  0  0  0  0  0  0  0  0
   60.5700   34.4470   47.0940 C   0  0  0  0  0  0  0  0  0  0  0  0
   61.6360   33.8410   46.4030 C   0  0  0  0  0  0  0  0  0  0  0  0
   62.7160   33.2980   47.1050 C   0  0  0  0  0  0  0  0  0  0  0  0
   62.7560   33.3810   48.4990 C   0  0  0  0  0  0  0  0  0  0  0  0
   61.7220   34.0160   49.1920 C   0  0  0  0  0  0  0  0  0  0  0  0
   60.6380   34.5550   48.4940 C   0  0  0  0  0  0  0  0  0  0  0  0
   58.3240   30.1280   46.0870 C   0  0  0  0  0  0  0  0  0  0  0  0
   55.4240   25.4530   45.6720 C   0  0  0  0  0  0  0  0  0  0  0  0
   54.3820   26.3210   45.9910 O   0  0  0  0  0  0  0  0  0  0  0  0
   53.4060   22.1410   46.2330 S   0  0  0  0  0  0  0  0  0  0  0  0
   53.4010   22.3650   48.0020 C   0  0  0  0  0  0  0  0  0  0  0  0
   54.4510   21.1150   45.8870 O   0  0  0  0  0  0  0  0  0  0  0  0
   52.0570   21.6530   45.7870 O   0  0  0  0  0  0  0  0  0  0  0  0
  1  2  1  0
  2  3  1  0
  3  4  2  0
  4  5  1  0
  5  6  2  0
  6  7  1  0
  7  8  1  0
  8  9  2  0
  8 10  1  0
 10 11  1  0
 11 12  2  0
 12 13  1  0
 13 14  2  0
 14 15  1  0
 15 16  1  0
 16 17  2  0
 16 18  2  0
 16 19  1  0
 19 20  1  0
 20 21  1  0
 21 22  2  0
 22 23  1  0
 23 24  2  0
 24 25  1  0
 25 26  2  0
 15 27  2  0
  7 28  2  0
 28 29  1  0
  2 30  1  0
 30 31  1  0
 30 32  2  0
 30 33  2  0
 28  3  1  0
 27 11  1  0
 26 21  1  0
M  CHG  3  10  -1  19  -1  29  -1
M  END
>  <UniqueID>  (1062) 
8

>  <SMILES>  (1062) 
CN(c1cccc(C(=O)[N-]c2cncc(S(=O)(=O)[N-]Cc3ccccc3)c2)c1[O-])S(C)(=O)=O

>  <Energy>  (1062) 
60.77682344041453

>  <Genealogy>  (1062) 
CN(c1cccc(C(=O)[N-]c2cncc(S(=O)(=O)[N-]Cc3ccccc3)c2)c1[O-])S(C)(=O)=O (protonated)
CN(c1cccc(C(=O)[N-]c2cncc(S(=O)(=O)[N-]Cc3ccccc3)c2)c1[O-])S(C)(=O)=O (3D coordinates assigned)
CN(c1cccc(C(=O)[N-]c2cncc(S(=O)(=O)[N-]Cc3ccccc3)c2)c1[O-])S(C)(=O)=O (optimized conformer: 60.77682344041453 kcal/mol)

>  <smiles>  (1062) 
CN(c1cccc(C(=O)Nc2cncc(S(=O)(=O)NCc3ccccc3)c2)c1O)S(C)(=O)=O

>  <score_type>  (1062) 
oracle

>  <origin>  (1062) 
adg

>  <m_score__min__energy>  (1062) 
-15.66

>  <m_primary>  (1062) 
energy

$$$$
16:0
     RDKit          3D

 30 33  0  0  0  0  0  0  0  0999 V2000
   58.2030   30.2790   44.4420 C   0  0  0  0  0  0  0  0  0  0  0  0
   58.2980   29.8270   45.7020 C   0  0  0  0  0  0  0  0  0  0  0  0
   57.8960   28.5690   46.1810 C   0  0  0  0  0  0  0  0  0  0  0  0
   57.1350   27.6110   45.6180 C   0  0  0  0  0  0  0  0  0  0  0  0
   56.8190   26.3040   46.2190 C   0  0  0  0  0  0  0  0  0  0  0  0
   57.7350   25.4020   46.6170 N   0  0  0  0  0  0  0  0  0  0  0  0
   56.9870   24.3320   46.9610 C   0  0  0  0  0  0  0  0  0  0  0  0
   57.4900   23.2680   47.4070 O   0  0  0  0  0  0  0  0  0  0  0  0
   55.6580   24.4860   46.7800 N   0  0  0  0  0  0  0  0  0  0  0  0
   55.5720   25.7360   46.2970 C   0  0  0  0  0  0  0  0  0  0  0  0
   54.3770   26.3410   45.9280 O   0  0  0  0  0  0  0  0  0  0  0  0
   58.4320   28.4500   47.4520 C   0  0  0  0  0  0  0  0  0  0  0  0
   59.0630   29.6420   47.7360 C   0  0  0  0  0  0  0  0  0  0  0  0
   59.7590   29.9510   49.0260 C   0  0  0  0  0  0  0  0  0  0  0  0
   58.9850   30.4790   46.6750 N   0  0  0  0  0  0  0  0  0  0  0  0
   59.5580   31.7970   46.6000 C   0  0  0  0  0  0  0  0  0  0  0  0
   58.7680   32.8930   46.2270 C   0  0  0  0  0  0  0  0  0  0  0  0
   59.3320   34.1690   46.1430 C   0  0  0  0  0  0  0  0  0  0  0  0
   60.6860   34.3580   46.4330 C   0  0  0  0  0  0  0  0  0  0  0  0
   61.4820   33.2710   46.8130 C   0  0  0  0  0  0  0  0  0  0  0  0
   63.1940   33.5170   47.1540 S   0  0  0  0  0  0  0  0  0  0  0  0
   63.7270   34.6210   46.2830 O   0  0  0  0  0  0  0  0  0  0  0  0
   63.9320   32.2500   46.8220 O   0  0  0  0  0  0  0  0  0  0  0  0
   63.3980   33.9090   48.8500 N   0  0  0  0  0  0  0  0  0  0  0  0
   62.2320   33.4810   49.6470 C   0  0  0  0  0  0  0  0  0  0  0  0
   62.1840   31.9450   49.8400 C   0  0  0  0  0  0  0  0  0  0  0  0
   63.4220   31.3030   49.5850 O   0  0  0  0  0  0  0  0  0  0  0  0
   64.4800   32.0420   50.1480 C   0  0  0  0  0  0  0  0  0  0  0  0
   64.6710   33.3700   49.3910 C   0  0  0  0  0  0  0  0  0  0  0  0
   60.9170   31.9900   46.8910 C   0  0  0  0  0  0  0  0  0  0  0  0
  1  2  2  0
  2  3  1  0
  3  4  2  3
  4  5  1  0
  5  6  1  0
  6  7  1  0
  7  8  2  0
  7  9  1  0
  9 10  1  0
 10 11  1  0
  3 12  1  0
 12 13  2  0
 13 14  1  0
 13 15  1  0
 15 16  1  0
 16 17  2  0
 17 18  1  0
 18 19  2  0
 19 20  1  0
 20 21  1  0
 21 22  2  0
 21 23  2  0
 21 24  1  0
 24 25  1  0
 25 26  1  0
 26 27  1  0
 27 28  1  0
 28 29  1  0
 20 30  2  0
 15  2  1  0
 30 16  1  0
 10  5  2  0
 29 24  1  0
M  CHG  4   6  -1   9  -1  11  -1  24   1
M  END
>  <UniqueID>  (1063) 
14

>  <SMILES>  (1063) 
C=c1c(=Cc2[n-]c(=O)[n-]c2[O-])cc(C)n1-c1cccc(S(=O)(=O)[NH+]2CCOCC2)c1

>  <Energy>  (1063) 
137.8628016356485

>  <Genealogy>  (1063) 
C=c1c(=Cc2[n-]c(=O)[n-]c2[O-])cc(C)n1-c1cccc(S(=O)(=O)[NH+]2CCOCC2)c1 (protonated)
C=c1c(=Cc2[n-]c(=O)[n-]c2[O-])cc(C)n1-c1cccc(S(=O)(=O)[NH+]2CCOCC2)c1 (3D coordinates assigned)
C=c1c(=Cc2[n-]c(=O)[n-]c2[O-])cc(C)n1-c1cccc(S(=O)(=O)[NH+]2CCOCC2)c1 (nonaromatic ring conformer: 137.8628016356485 kcal/mol)

>  <smiles>  (1063) 
C=c1c(=Cc2[nH]c(=O)[nH]c2O)cc(C)n1-c1cccc(S(=O)(=O)N2CCOCC2)c1

>  <score_type>  (1063) 
oracle

>  <origin>  (1063) 
adg

>  <m_score__min__energy>  (1063) 
-15.74

>  <m_primary>  (1063) 
energy

$$$$
36:0
     RDKit          3D

 29 32  0  0  0  0  0  0  0  0999 V2000
   59.7590   31.0620   45.9720 C   0  0  0  0  0  0  0  0  0  0  0  0
   59.7630   30.0940   46.9010 C   0  0  0  0  0  0  0  0  0  0  0  0
   59.0670   28.8750   46.8560 C   0  0  0  0  0  0  0  0  0  0  0  0
   58.4400   28.2550   45.8380 C   0  0  0  0  0  0  0  0  0  0  0  0
   57.3560   27.2690   45.9790 C   0  0  0  0  0  0  0  0  0  0  0  0
   57.4700   26.0900   46.6170 N   0  0  0  0  0  0  0  0  0  0  0  0
   56.2080   25.6070   46.6080 C   0  0  0  0  0  0  0  0  0  0  0  0
   55.9060   24.4930   47.1080 O   0  0  0  0  0  0  0  0  0  0  0  0
   55.2960   26.4170   46.0290 N   0  0  0  0  0  0  0  0  0  0  0  0
   56.0370   27.4700   45.6510 C   0  0  0  0  0  0  0  0  0  0  0  0
   55.5190   28.5950   45.0220 O   0  0  0  0  0  0  0  0  0  0  0  0
   59.1500   28.3350   48.1300 C   0  0  0  0  0  0  0  0  0  0  0  0
   59.9490   29.1810   48.8720 C   0  0  0  0  0  0  0  0  0  0  0  0
   60.3110   28.9710   50.3100 C   0  0  0  0  0  0  0  0  0  0  0  0
   60.3250   30.2430   48.1260 N   0  0  0  0  0  0  0  0  0  0  0  0
   61.1280   31.3470   48.5840 C   0  0  0  0  0  0  0  0  0  0  0  0
   62.5060   31.1590   48.7780 C   0  0  0  0  0  0  0  0  0  0  0  0
   63.2990   32.1980   49.2690 C   0  0  0  0  0  0  0  0  0  0  0  0
   62.7240   33.4330   49.5720 C   0  0  0  0  0  0  0  0  0  0  0  0
   61.3570   33.6360   49.3790 C   0  0  0  0  0  0  0  0  0  0  0  0
   60.5440   32.6010   48.8820 C   0  0  0  0  0  0  0  0  0  0  0  0
   59.1030   32.8600   48.6480 C   0  0  0  0  0  0  0  0  0  0  0  0
   58.2620   32.4960   49.5130 O   0  0  0  0  0  0  0  0  0  0  0  0
   58.6490   33.4890   47.4340 N   0  0  0  0  0  0  0  0  0  0  0  0
   59.3200   34.7020   46.9460 C   0  0  0  0  0  0  0  0  0  0  0  0
   59.3020   34.7390   45.4160 C   0  0  0  0  0  0  0  0  0  0  0  0
   57.8780   34.5520   44.8840 C   0  0  0  0  0  0  0  0  0  0  0  0
   57.2720   33.2470   45.4070 C   0  0  0  0  0  0  0  0  0  0  0  0
   57.2970   33.2060   46.9380 C   0  0  0  0  0  0  0  0  0  0  0  0
  1  2  2  0
  2  3  1  0
  3  4  2  3
  4  5  1  0
  5  6  1  0
  6  7  1  0
  7  8  2  0
  7  9  1  0
  9 10  1  0
 10 11  1  0
  3 12  1  0
 12 13  2  0
 13 14  1  0
 13 15  1  0
 15 16  1  0
 16 17  2  0
 17 18  1  0
 18 19  2  0
 19 20  1  0
 20 21  2  0
 21 22  1  0
 22 23  2  0
 22 24  1  0
 24 25  1  0
 25 26  1  0
 26 27  1  0
 27 28  1  0
 28 29  1  0
 15  2  1  0
 21 16  1  0
 29 24  1  0
 10  5  2  0
M  CHG  3   6  -1   9  -1  11  -1
M  END
>  <UniqueID>  (1064) 
31

>  <SMILES>  (1064) 
C=c1c(=Cc2[n-]c(=O)[n-]c2[O-])cc(C)n1-c1ccccc1C(=O)N1CCCCC1

>  <Energy>  (1064) 
127.16395989980943

>  <Genealogy>  (1064) 
C=c1c(=Cc2[n-]c(=O)[n-]c2[O-])cc(C)n1-c1ccccc1C(=O)N1CCCCC1 (protonated)
C=c1c(=Cc2[n-]c(=O)[n-]c2[O-])cc(C)n1-c1ccccc1C(=O)N1CCCCC1 (3D coordinates assigned)
C=c1c(=Cc2[n-]c(=O)[n-]c2[O-])cc(C)n1-c1ccccc1C(=O)N1CCCCC1 (nonaromatic ring conformer: 127.16395989980943 kcal/mol)

>  <smiles>  (1064) 
C=c1c(=Cc2[nH]c(=O)[nH]c2O)cc(C)n1-c1ccccc1C(=O)N1CCCCC1

>  <score_type>  (1064) 
oracle

>  <origin>  (1064) 
adg

>  <m_score__min__energy>  (1064) 
-16.27

>  <m_primary>  (1064) 
energy

$$$$
44:0
     RDKit          3D

 29 31  0  0  0  0  0  0  0  0999 V2000
   51.4010   32.9850   49.7780 O   0  0  0  0  0  0  0  0  0  0  0  0
   51.3770   32.2510   50.8010 C   0  0  0  0  0  0  0  0  0  0  0  0
   50.8720   32.7500   51.9940 O   0  0  0  0  0  0  0  0  0  0  0  0
   51.8430   30.8340   50.7190 C   0  0  0  0  0  0  0  0  0  0  0  0
   53.0610   30.6460   51.5670 C   0  0  0  0  0  0  0  0  0  0  0  0
   53.0360   30.6760   52.9610 C   0  0  0  0  0  0  0  0  0  0  0  0
   54.6130   30.4740   53.5130 S   0  0  0  0  0  0  0  0  0  0  0  0
   55.2490   30.3610   51.9650 C   0  0  0  0  0  0  0  0  0  0  0  0
   56.5170   30.2220   51.7180 N   0  0  0  0  0  0  0  0  0  0  0  0
   57.5070   31.2600   51.7850 C   0  0  0  0  0  0  0  0  0  0  0  0
   57.7010   31.8400   52.8860 O   0  0  0  0  0  0  0  0  0  0  0  0
   58.3140   31.5990   50.6450 N   0  0  0  0  0  0  0  0  0  0  0  0
   58.9000   32.8970   50.4590 C   0  0  0  0  0  0  0  0  0  0  0  0
   58.6480   33.8270   51.2720 O   0  0  0  0  0  0  0  0  0  0  0  0
   59.7980   33.1490   49.3070 C   0  0  0  0  0  0  0  0  0  0  0  0
   61.1590   33.3880   49.5610 C   0  0  0  0  0  0  0  0  0  0  0  0
   62.0490   33.6280   48.5130 C   0  0  0  0  0  0  0  0  0  0  0  0
   61.5940   33.6240   47.1960 C   0  0  0  0  0  0  0  0  0  0  0  0
   60.2480   33.3800   46.9220 C   0  0  0  0  0  0  0  0  0  0  0  0
   59.3340   33.1390   47.9640 C   0  0  0  0  0  0  0  0  0  0  0  0
   57.8910   32.8490   47.6090 C   0  0  0  0  0  0  0  0  0  0  0  0
   57.5720   33.3570   46.2750 N   0  0  0  0  0  0  0  0  0  0  0  0
   57.4820   32.6340   45.1970 C   0  0  0  0  0  0  0  0  0  0  0  0
   58.1090   33.0680   44.0220 C   0  0  0  0  0  0  0  0  0  0  0  0
   58.0110   32.2930   42.8660 C   0  0  0  0  0  0  0  0  0  0  0  0
   57.2900   31.0970   42.8890 C   0  0  0  0  0  0  0  0  0  0  0  0
   56.6710   30.6970   44.0760 C   0  0  0  0  0  0  0  0  0  0  0  0
   56.7800   31.4660   45.1920 N   0  0  0  0  0  0  0  0  0  0  0  0
   54.2950   30.4860   51.0170 N   0  0  0  0  0  0  0  0  0  0  0  0
  1  2  2  0
  2  3  1  0
  2  4  1  0
  4  5  1  0
  5  6  2  0
  6  7  1  0
  7  8  1  0
  8  9  2  3
  9 10  1  0
 10 11  2  0
 10 12  1  0
 12 13  1  0
 13 14  2  0
 13 15  1  0
 15 16  2  0
 16 17  1  0
 17 18  2  0
 18 19  1  0
 19 20  2  0
 20 21  1  0
 21 22  1  0
 22 23  2  3
 23 24  1  0
 24 25  2  0
 25 26  1  0
 26 27  2  0
 27 28  1  0
  8 29  1  0
 29  5  1  0
 20 15  1  0
 28 23  1  0
M  CHG  3   3  -1  28  -1  29  -1
M  END
>  <UniqueID>  (1065) 
38

>  <SMILES>  (1065) 
O=C([O-])Cc1csc(=NC(=O)NC(=O)c2ccccc2CN=c2cccc[n-]2)[n-]1

>  <Energy>  (1065) 
83.27116596193785

>  <Genealogy>  (1065) 
O=C([O-])Cc1csc(=NC(=O)NC(=O)c2ccccc2CN=c2cccc[n-]2)[n-]1 (protonated)
O=C([O-])Cc1csc(=NC(=O)NC(=O)c2ccccc2CN=c2cccc[n-]2)[n-]1 (3D coordinates assigned)
O=C([O-])Cc1csc(=NC(=O)NC(=O)c2ccccc2CN=c2cccc[n-]2)[n-]1 (optimized conformer: 83.27116596193785 kcal/mol)

>  <smiles>  (1065) 
O=C(O)Cc1csc(=NC(=O)NC(=O)c2ccccc2CN=c2cccc[nH]2)[nH]1

>  <score_type>  (1065) 
oracle

>  <origin>  (1065) 
adg

>  <m_score__min__energy>  (1065) 
-15.1

>  <m_primary>  (1065) 
energy

$$$$
53:0
     RDKit          3D

 31 33  0  0  0  0  0  0  0  0999 V2000
   57.7540   32.2740   41.8090 C   0  0  0  0  0  0  0  0  0  0  0  0
   57.4630   32.7070   40.6620 O   0  0  0  0  0  0  0  0  0  0  0  0
   56.9810   31.1720   42.3930 C   0  0  0  0  0  0  0  0  0  0  0  0
   56.8370   31.0580   43.7170 C   0  0  0  0  0  0  0  0  0  0  0  0
   57.3670   29.9120   44.4900 C   0  0  0  0  0  0  0  0  0  0  0  0
   58.7580   29.7740   44.6060 C   0  0  0  0  0  0  0  0  0  0  0  0
   59.3100   28.7110   45.3240 C   0  0  0  0  0  0  0  0  0  0  0  0
   58.4790   27.7590   45.9320 C   0  0  0  0  0  0  0  0  0  0  0  0
   59.0750   26.5940   46.6790 C   0  0  0  0  0  0  0  0  0  0  0  0
   60.3850   26.9830   47.3770 C   0  0  0  0  0  0  0  0  0  0  0  0
   60.2110   27.0900   48.8260 N   0  0  0  0  0  0  0  0  0  0  0  0
   60.0240   28.2060   49.4640 C   0  0  0  0  0  0  0  0  0  0  0  0
   60.7110   28.5650   50.5730 N   0  0  0  0  0  0  0  0  0  0  0  0
   60.3080   29.7820   51.0230 C   0  0  0  0  0  0  0  0  0  0  0  0
   60.8820   30.3740   52.1410 O   0  0  0  0  0  0  0  0  0  0  0  0
   59.2950   30.3850   50.2800 C   0  0  0  0  0  0  0  0  0  0  0  0
   58.7350   31.7550   50.4950 C   0  0  0  0  0  0  0  0  0  0  0  0
   59.2250   32.6790   49.4260 C   0  0  0  0  0  0  0  0  0  0  0  0
   59.7200   33.7940   49.7460 O   0  0  0  0  0  0  0  0  0  0  0  0
   59.1440   32.2630   48.0530 N   0  0  0  0  0  0  0  0  0  0  0  0
   58.7640   32.9800   47.0330 C   0  0  0  0  0  0  0  0  0  0  0  0
   57.4570   33.0110   46.6460 N   0  0  0  0  0  0  0  0  0  0  0  0
   57.0300   33.7520   45.5900 C   0  0  0  0  0  0  0  0  0  0  0  0
   57.9410   34.5160   44.8610 C   0  0  0  0  0  0  0  0  0  0  0  0
   59.2870   34.5090   45.2280 C   0  0  0  0  0  0  0  0  0  0  0  0
   59.7160   33.7420   46.3220 C   0  0  0  0  0  0  0  0  0  0  0  0
   61.1680   33.7380   46.7180 C   0  0  0  0  0  0  0  0  0  0  0  0
   58.9070   29.3690   48.9940 S   0  0  0  0  0  0  0  0  0  0  0  0
   57.0890   27.8700   45.7880 C   0  0  0  0  0  0  0  0  0  0  0  0
   56.5300   28.9290   45.0650 C   0  0  0  0  0  0  0  0  0  0  0  0
   55.1500   28.9730   44.8990 O   0  0  0  0  0  0  0  0  0  0  0  0
  1  2  2  0
  1  3  1  0
  3  4  2  0
  4  5  1  0
  5  6  2  0
  6  7  1  0
  7  8  2  0
  8  9  1  0
  9 10  1  0
 10 11  1  0
 11 12  2  3
 12 13  1  0
 13 14  1  0
 14 15  1  0
 14 16  2  0
 16 17  1  0
 17 18  1  0
 18 19  2  0
 18 20  1  0
 20 21  2  3
 21 22  1  0
 22 23  1  0
 23 24  2  0
 24 25  1  0
 25 26  2  0
 26 27  1  0
 16 28  1  0
  8 29  1  0
 29 30  2  0
 30 31  1  0
 30  5  1  0
 28 12  1  0
 26 21  1  0
M  CHG  4  13  -1  15  -1  22  -1  31  -1
M  END
>  <UniqueID>  (1066) 
46

>  <SMILES>  (1066) 
Cc1ccc[n-]c1=NC(=O)Cc1sc(=NCCc2ccc(/C=C/C=O)c([O-])c2)[n-]c1[O-]

>  <Energy>  (1066) 
81.8237346673722

>  <Genealogy>  (1066) 
Cc1ccc[n-]c1=NC(=O)Cc1sc(=NCCc2ccc(C=CC=O)c([O-])c2)[n-]c1[O-] (protonated)
Cc1ccc[n-]c1=NC(=O)Cc1sc(=NCCc2ccc(/C=C/C=O)c([O-])c2)[n-]c1[O-] (cis-trans isomerization)
Cc1ccc[n-]c1=NC(=O)Cc1sc(=NCCc2ccc(/C=C/C=O)c([O-])c2)[n-]c1[O-] (3D coordinates assigned)
Cc1ccc[n-]c1=NC(=O)Cc1sc(=NCCc2ccc(/C=C/C=O)c([O-])c2)[n-]c1[O-] (optimized conformer: 81.8237346673722 kcal/mol)

>  <smiles>  (1066) 
Cc1ccc[nH]c1=NC(=O)Cc1sc(=NCCc2ccc(C=CC=O)c(O)c2)[nH]c1O

>  <score_type>  (1066) 
oracle

>  <origin>  (1066) 
adg

>  <m_score__min__energy>  (1066) 
-18.27

>  <m_primary>  (1066) 
energy

$$$$
63:0
     RDKit          3D

 30 32  0  0  0  0  0  0  0  0999 V2000
   59.9600   25.0130   46.0170 O   0  0  0  0  0  0  0  0  0  0  0  0
   58.7860   24.6760   45.9920 C   0  0  0  0  0  0  0  0  0  0  0  0
   58.3920   23.4150   45.2750 C   0  0  0  0  0  0  0  0  0  0  0  0
   56.8960   23.3410   45.1390 C   0  0  0  0  0  0  0  0  0  0  0  0
   56.2810   23.6140   43.9060 C   0  0  0  0  0  0  0  0  0  0  0  0
   54.8940   23.5120   43.7750 C   0  0  0  0  0  0  0  0  0  0  0  0
   54.1100   23.1290   44.8670 C   0  0  0  0  0  0  0  0  0  0  0  0
   52.7310   23.0310   44.7270 O   0  0  0  0  0  0  0  0  0  0  0  0
   54.7140   22.8420   46.0970 C   0  0  0  0  0  0  0  0  0  0  0  0
   53.9280   22.4540   47.1800 O   0  0  0  0  0  0  0  0  0  0  0  0
   56.1060   22.9440   46.2300 C   0  0  0  0  0  0  0  0  0  0  0  0
   57.7520   25.5470   46.6500 C   0  0  0  0  0  0  0  0  0  0  0  0
   57.8860   26.9570   46.1680 C   0  0  0  0  0  0  0  0  0  0  0  0
   59.3440   27.7920   46.0170 S   0  0  0  0  0  0  0  0  0  0  0  0
   58.6070   29.1440   45.3430 C   0  0  0  0  0  0  0  0  0  0  0  0
   59.2280   30.1780   44.9790 O   0  0  0  0  0  0  0  0  0  0  0  0
   57.2660   28.9870   45.2200 N   0  0  0  0  0  0  0  0  0  0  0  0
   56.3650   29.9690   44.6070 C   0  0  0  0  0  0  0  0  0  0  0  0
   56.8430   30.3360   43.2370 C   0  0  0  0  0  0  0  0  0  0  0  0
   56.2710   29.8480   42.2240 O   0  0  0  0  0  0  0  0  0  0  0  0
   57.9220   31.2650   43.0810 N   0  0  0  0  0  0  0  0  0  0  0  0
   57.7530   32.7120   43.1290 C   0  0  0  0  0  0  0  0  0  0  0  0
   58.1440   33.2390   44.4830 C   0  0  0  0  0  0  0  0  0  0  0  0
   57.4150   32.8560   45.6210 C   0  0  0  0  0  0  0  0  0  0  0  0
   57.7640   33.3520   46.8810 C   0  0  0  0  0  0  0  0  0  0  0  0
   58.8380   34.2370   47.0120 C   0  0  0  0  0  0  0  0  0  0  0  0
   59.5620   34.6300   45.8820 C   0  0  0  0  0  0  0  0  0  0  0  0
   59.2160   34.1360   44.6200 C   0  0  0  0  0  0  0  0  0  0  0  0
   56.8650   27.7620   45.6660 C   0  0  0  0  0  0  0  0  0  0  0  0
   55.5370   27.3480   45.6120 O   0  0  0  0  0  0  0  0  0  0  0  0
  1  2  2  0
  2  3  1  0
  3  4  1  0
  4  5  2  0
  5  6  1  0
  6  7  2  0
  7  8  1  0
  7  9  1  0
  9 10  1  0
  9 11  2  0
  2 12  1  0
 12 13  1  0
 13 14  1  0
 14 15  1  0
 15 16  2  0
 15 17  1  0
 17 18  1  0
 18 19  1  0
 19 20  2  0
 19 21  1  0
 21 22  1  0
 22 23  1  0
 23 24  2  0
 24 25  1  0
 25 26  2  0
 26 27  1  0
 27 28  2  0
 17 29  1  0
 29 30  1  0
 11  4  1  0
 29 13  2  0
 28 23  1  0
M  CHG  3   8  -1  21  -1  30  -1
M  END
>  <UniqueID>  (1067) 
55

>  <SMILES>  (1067) 
O=C(Cc1ccc([O-])c(O)c1)Cc1sc(=O)n(CC(=O)[N-]Cc2ccccc2)c1[O-]

>  <Energy>  (1067) 
72.5346506677432

>  <Genealogy>  (1067) 
O=C(Cc1ccc([O-])c(O)c1)Cc1sc(=O)n(CC(=O)[N-]Cc2ccccc2)c1[O-] (protonated)
O=C(Cc1ccc([O-])c(O)c1)Cc1sc(=O)n(CC(=O)[N-]Cc2ccccc2)c1[O-] (3D coordinates assigned)
O=C(Cc1ccc([O-])c(O)c1)Cc1sc(=O)n(CC(=O)[N-]Cc2ccccc2)c1[O-] (optimized conformer: 72.5346506677432 kcal/mol)

>  <smiles>  (1067) 
O=C(Cc1ccc(O)c(O)c1)Cc1sc(=O)n(CC(=O)NCc2ccccc2)c1O

>  <score_type>  (1067) 
oracle

>  <origin>  (1067) 
adg

>  <m_score__min__energy>  (1067) 
-14.19

>  <m_primary>  (1067) 
energy

$$$$
70:0
     RDKit          3D

 28 30  0  0  0  0  0  0  0  0999 V2000
   56.2520   29.3470   42.7360 O   0  0  0  0  0  0  0  0  0  0  0  0
   55.9790   29.7090   43.9130 C   0  0  0  0  0  0  0  0  0  0  0  0
   56.1880   31.1320   44.3240 C   0  0  0  0  0  0  0  0  0  0  0  0
   57.2970   31.2420   45.2670 N   0  0  0  0  0  0  0  0  0  0  0  0
   57.7530   32.4410   45.9090 C   0  0  0  0  0  0  0  0  0  0  0  0
   56.9280   33.3740   46.0930 O   0  0  0  0  0  0  0  0  0  0  0  0
   59.1540   32.6490   46.3190 C   0  0  0  0  0  0  0  0  0  0  0  0
   60.0610   31.6830   46.7410 C   0  0  0  0  0  0  0  0  0  0  0  0
   61.2960   32.2130   47.1310 C   0  0  0  0  0  0  0  0  0  0  0  0
   61.3640   33.5960   47.0390 C   0  0  0  0  0  0  0  0  0  0  0  0
   59.8820   34.1570   46.4780 S   0  0  0  0  0  0  0  0  0  0  0  0
   55.5680   28.7490   44.8950 N   0  0  0  0  0  0  0  0  0  0  0  0
   56.4300   27.8310   45.5840 C   0  0  0  0  0  0  0  0  0  0  0  0
   57.8050   28.0850   45.7380 C   0  0  0  0  0  0  0  0  0  0  0  0
   58.6260   27.1670   46.4060 C   0  0  0  0  0  0  0  0  0  0  0  0
   60.3460   27.5070   46.6150 S   0  0  0  0  0  0  0  0  0  0  0  0
   60.7790   28.5050   45.5790 O   0  0  0  0  0  0  0  0  0  0  0  0
   61.1320   26.2430   46.4000 O   0  0  0  0  0  0  0  0  0  0  0  0
   60.6930   28.1380   48.2070 N   0  0  0  0  0  0  0  0  0  0  0  0
   60.7510   27.0460   49.1910 C   0  0  0  0  0  0  0  0  0  0  0  0
   60.9200   27.6120   50.6160 C   0  0  0  0  0  0  0  0  0  0  0  0
   61.1010   29.0160   50.6000 O   0  0  0  0  0  0  0  0  0  0  0  0
   59.9640   29.6390   50.0310 C   0  0  0  0  0  0  0  0  0  0  0  0
   59.6770   29.1240   48.6050 C   0  0  0  0  0  0  0  0  0  0  0  0
   58.0760   25.9780   46.9010 C   0  0  0  0  0  0  0  0  0  0  0  0
   56.7180   25.7070   46.7230 C   0  0  0  0  0  0  0  0  0  0  0  0
   55.8970   26.6250   46.0620 C   0  0  0  0  0  0  0  0  0  0  0  0
   54.5470   26.3400   45.8910 O   0  0  0  0  0  0  0  0  0  0  0  0
  1  2  2  0
  2  3  1  0
  3  4  1  0
  4  5  1  0
  5  6  2  0
  5  7  1  0
  7  8  2  0
  8  9  1  0
  9 10  2  0
 10 11  1  0
  2 12  1  0
 12 13  1  0
 13 14  2  0
 14 15  1  0
 15 16  1  0
 16 17  2  0
 16 18  2  0
 16 19  1  0
 19 20  1  0
 20 21  1  0
 21 22  1  0
 22 23  1  0
 23 24  1  0
 15 25  2  0
 25 26  1  0
 26 27  2  0
 27 28  1  0
 11  7  1  0
 27 13  1  0
 24 19  1  0
M  CHG  3   4  -1  12  -1  28  -1
M  END
>  <UniqueID>  (1068) 
61

>  <SMILES>  (1068) 
O=C(C[N-]C(=O)c1cccs1)[N-]c1cc(S(=O)(=O)N2CCOCC2)ccc1[O-]

>  <Energy>  (1068) 
83.80105935666167

>  <Genealogy>  (1068) 
O=C(C[N-]C(=O)c1cccs1)[N-]c1cc(S(=O)(=O)N2CCOCC2)ccc1[O-] (protonated)
O=C(C[N-]C(=O)c1cccs1)[N-]c1cc(S(=O)(=O)N2CCOCC2)ccc1[O-] (3D coordinates assigned)
O=C(C[N-]C(=O)c1cccs1)[N-]c1cc(S(=O)(=O)N2CCOCC2)ccc1[O-] (nonaromatic ring conformer: 83.80105935666167 kcal/mol)

>  <smiles>  (1068) 
O=C(CNC(=O)c1cccs1)Nc1cc(S(=O)(=O)N2CCOCC2)ccc1O

>  <score_type>  (1068) 
oracle

>  <origin>  (1068) 
adg

>  <m_score__min__energy>  (1068) 
-15.18

>  <m_primary>  (1068) 
energy

$$$$
72:0
     RDKit          3D

 29 31  0  0  0  0  0  0  0  0999 V2000
   60.2130   27.4400   46.3950 C   0  0  0  0  0  0  0  0  0  0  0  0
   59.2880   28.3720   46.1110 C   0  0  0  0  0  0  0  0  0  0  0  0
   58.1440   28.1940   45.3130 C   0  0  0  0  0  0  0  0  0  0  0  0
   57.5760   27.0780   44.8140 C   0  0  0  0  0  0  0  0  0  0  0  0
   57.0800   25.9400   45.6050 C   0  0  0  0  0  0  0  0  0  0  0  0
   57.8320   24.9190   46.0500 N   0  0  0  0  0  0  0  0  0  0  0  0
   57.0050   24.2080   46.8420 C   0  0  0  0  0  0  0  0  0  0  0  0
   57.3600   23.1600   47.4410 O   0  0  0  0  0  0  0  0  0  0  0  0
   55.7630   24.7290   46.9500 N   0  0  0  0  0  0  0  0  0  0  0  0
   55.8330   25.8290   46.1750 C   0  0  0  0  0  0  0  0  0  0  0  0
   54.7790   26.7170   46.0000 O   0  0  0  0  0  0  0  0  0  0  0  0
   57.6210   29.4550   45.0980 C   0  0  0  0  0  0  0  0  0  0  0  0
   58.3940   30.3380   45.8190 C   0  0  0  0  0  0  0  0  0  0  0  0
   58.1790   31.8220   45.8350 C   0  0  0  0  0  0  0  0  0  0  0  0
   59.4070   29.6890   46.4410 N   0  0  0  0  0  0  0  0  0  0  0  0
   60.4610   30.3370   47.2420 C   0  0  0  0  0  0  0  0  0  0  0  0
   59.8940   30.8970   48.5210 C   0  0  0  0  0  0  0  0  0  0  0  0
   60.0750   32.2530   48.8440 C   0  0  0  0  0  0  0  0  0  0  0  0
   59.5630   32.7690   50.0380 C   0  0  0  0  0  0  0  0  0  0  0  0
   58.8590   31.9410   50.9200 C   0  0  0  0  0  0  0  0  0  0  0  0
   58.2450   32.6010   52.4330 S   0  0  0  0  0  0  0  0  0  0  0  0
   57.3910   33.8130   52.1790 O   0  0  0  0  0  0  0  0  0  0  0  0
   59.4040   33.0040   53.3000 O   0  0  0  0  0  0  0  0  0  0  0  0
   57.3080   31.3980   53.2510 N   0  0  0  0  0  0  0  0  0  0  0  0
   56.3170   30.6130   52.5860 C   0  0  0  0  0  0  0  0  0  0  0  0
   55.0050   31.2260   52.2340 C   0  0  0  0  0  0  0  0  0  0  0  0
   56.5600   29.4200   52.2600 O   0  0  0  0  0  0  0  0  0  0  0  0
   58.6730   30.5900   50.6020 C   0  0  0  0  0  0  0  0  0  0  0  0
   59.1850   30.0710   49.4090 C   0  0  0  0  0  0  0  0  0  0  0  0
  1  2  2  0
  2  3  1  0
  3  4  2  3
  4  5  1  0
  5  6  1  0
  6  7  1  0
  7  8  2  0
  7  9  1  0
  9 10  1  0
 10 11  1  0
  3 12  1  0
 12 13  2  0
 13 14  1  0
 13 15  1  0
 15 16  1  0
 16 17  1  0
 17 18  2  0
 18 19  1  0
 19 20  2  0
 20 21  1  0
 21 22  2  0
 21 23  2  0
 21 24  1  0
 24 25  1  0
 25 26  1  0
 25 27  2  0
 20 28  1  0
 28 29  2  0
 15  2  1  0
 29 17  1  0
 10  5  2  0
M  CHG  3   9  -1  11  -1  24  -1
M  END
>  <UniqueID>  (1069) 
63

>  <SMILES>  (1069) 
C=c1c(=Cc2[nH]c(=O)[n-]c2[O-])cc(C)n1Cc1ccc(S(=O)(=O)[N-]C(C)=O)cc1

>  <Energy>  (1069) 
117.8424141066207

>  <Genealogy>  (1069) 
C=c1c(=Cc2[nH]c(=O)[n-]c2[O-])cc(C)n1Cc1ccc(S(=O)(=O)[N-]C(C)=O)cc1 (protonated)
C=c1c(=Cc2[nH]c(=O)[n-]c2[O-])cc(C)n1Cc1ccc(S(=O)(=O)[N-]C(C)=O)cc1 (3D coordinates assigned)
C=c1c(=Cc2[nH]c(=O)[n-]c2[O-])cc(C)n1Cc1ccc(S(=O)(=O)[N-]C(C)=O)cc1 (optimized conformer: 117.8424141066207 kcal/mol)

>  <smiles>  (1069) 
C=c1c(=Cc2[nH]c(=O)[nH]c2O)cc(C)n1Cc1ccc(S(=O)(=O)NC(C)=O)cc1

>  <score_type>  (1069) 
oracle

>  <origin>  (1069) 
adg

>  <m_score__min__energy>  (1069) 
-15.57

>  <m_primary>  (1069) 
energy

$$$$
84:0
     RDKit          3D

 29 32  0  0  0  0  0  0  0  0999 V2000
   58.4370   29.2160   47.1490 C   0  0  0  0  0  0  0  0  0  0  0  0
   58.1090   29.1710   45.8470 C   0  0  0  0  0  0  0  0  0  0  0  0
   57.9010   28.0210   45.0700 C   0  0  0  0  0  0  0  0  0  0  0  0
   58.1920   26.7280   45.3120 C   0  0  0  0  0  0  0  0  0  0  0  0
   57.4260   25.8320   46.1940 C   0  0  0  0  0  0  0  0  0  0  0  0
   57.9390   24.7670   46.8380 N   0  0  0  0  0  0  0  0  0  0  0  0
   56.8550   24.1910   47.4020 C   0  0  0  0  0  0  0  0  0  0  0  0
   56.9300   23.1560   48.1140 O   0  0  0  0  0  0  0  0  0  0  0  0
   55.6830   24.8060   47.1330 N   0  0  0  0  0  0  0  0  0  0  0  0
   56.0620   25.8350   46.3560 C   0  0  0  0  0  0  0  0  0  0  0  0
   55.1810   26.7560   45.8000 O   0  0  0  0  0  0  0  0  0  0  0  0
   57.3170   28.4510   43.8900 C   0  0  0  0  0  0  0  0  0  0  0  0
   57.2660   29.8280   43.9470 C   0  0  0  0  0  0  0  0  0  0  0  0
   56.7370   30.7040   42.8510 C   0  0  0  0  0  0  0  0  0  0  0  0
   57.7430   30.2680   45.1340 N   0  0  0  0  0  0  0  0  0  0  0  0
   57.8360   31.6430   45.5520 C   0  0  0  0  0  0  0  0  0  0  0  0
   57.0100   32.6200   44.9780 C   0  0  0  0  0  0  0  0  0  0  0  0
   57.1070   33.9500   45.3900 C   0  0  0  0  0  0  0  0  0  0  0  0
   58.0150   34.3120   46.3880 C   0  0  0  0  0  0  0  0  0  0  0  0
   58.8350   33.3420   46.9900 C   0  0  0  0  0  0  0  0  0  0  0  0
   59.7680   33.7280   48.0690 C   0  0  0  0  0  0  0  0  0  0  0  0
   59.3350   33.8790   49.2420 O   0  0  0  0  0  0  0  0  0  0  0  0
   61.1700   33.8840   47.8230 N   0  0  0  0  0  0  0  0  0  0  0  0
   62.1450   33.6520   46.7380 C   0  0  0  0  0  0  0  0  0  0  0  0
   63.3660   33.9320   47.5580 C   0  0  0  0  0  0  0  0  0  0  0  0
   64.1330   32.7720   47.8080 O   0  0  0  0  0  0  0  0  0  0  0  0
   63.3760   31.6360   47.4540 C   0  0  0  0  0  0  0  0  0  0  0  0
   62.3620   34.1690   48.6420 C   0  0  0  0  0  0  0  0  0  0  0  0
   58.7560   32.0120   46.5450 C   0  0  0  0  0  0  0  0  0  0  0  0
  1  2  2  0
  2  3  1  0
  3  4  2  3
  4  5  1  0
  5  6  1  0
  6  7  1  0
  7  8  2  0
  7  9  1  0
  9 10  1  0
 10 11  1  0
  3 12  1  0
 12 13  2  0
 13 14  1  0
 13 15  1  0
 15 16  1  0
 16 17  2  0
 17 18  1  0
 18 19  2  0
 19 20  1  0
 20 21  1  0
 21 22  2  0
 21 23  1  0
 23 24  1  0
 24 25  1  0
 25 26  1  0
 26 27  1  0
 25 28  1  0
 20 29  2  0
 15  2  1  0
 29 16  1  0
 10  5  2  0
 28 23  1  0
M  CHG  2   6  -1   9  -1
M  END
>  <UniqueID>  (1070) 
75

>  <SMILES>  (1070) 
C=c1c(=Cc2[n-]c(=O)[n-]c2O)cc(C)n1-c1cccc(C(=O)N2CC(OC)C2)c1

>  <Energy>  (1070) 
172.89082799452729

>  <Genealogy>  (1070) 
C=c1c(=Cc2[n-]c(=O)[n-]c2O)cc(C)n1-c1cccc(C(=O)N2CC(OC)C2)c1 (protonated)
C=c1c(=Cc2[n-]c(=O)[n-]c2O)cc(C)n1-c1cccc(C(=O)N2CC(OC)C2)c1 (3D coordinates assigned)
C=c1c(=Cc2[n-]c(=O)[n-]c2O)cc(C)n1-c1cccc(C(=O)N2CC(OC)C2)c1 (nonaromatic ring conformer: 172.89082799452729 kcal/mol)

>  <smiles>  (1070) 
C=c1c(=Cc2[nH]c(=O)[nH]c2O)cc(C)n1-c1cccc(C(=O)N2CC(OC)C2)c1

>  <score_type>  (1070) 
oracle

>  <origin>  (1070) 
adg

>  <m_score__min__energy>  (1070) 
-14.26

>  <m_primary>  (1070) 
energy

$$$$
87:0
     RDKit          3D

 26 29  0  0  0  0  0  0  0  0999 V2000
   58.9350   30.2730   47.7520 C   0  0  0  0  0  0  0  0  0  0  0  0
   58.4740   30.4100   46.4980 C   0  0  0  0  0  0  0  0  0  0  0  0
   58.3910   29.3970   45.5310 C   0  0  0  0  0  0  0  0  0  0  0  0
   58.4770   28.0580   45.6500 C   0  0  0  0  0  0  0  0  0  0  0  0
   57.3330   27.1490   45.8380 C   0  0  0  0  0  0  0  0  0  0  0  0
   57.4070   25.9330   46.4120 N   0  0  0  0  0  0  0  0  0  0  0  0
   56.1170   25.5420   46.4820 C   0  0  0  0  0  0  0  0  0  0  0  0
   55.7710   24.4280   46.9540 O   0  0  0  0  0  0  0  0  0  0  0  0
   55.2260   26.4430   46.0160 N   0  0  0  0  0  0  0  0  0  0  0  0
   56.0120   27.4590   45.6250 C   0  0  0  0  0  0  0  0  0  0  0  0
   55.5320   28.6480   45.0900 O   0  0  0  0  0  0  0  0  0  0  0  0
   58.1160   30.0270   44.3310 C   0  0  0  0  0  0  0  0  0  0  0  0
   57.9510   31.3670   44.6140 C   0  0  0  0  0  0  0  0  0  0  0  0
   57.5840   32.4060   43.5960 C   0  0  0  0  0  0  0  0  0  0  0  0
   58.1590   31.6060   45.9300 N   0  0  0  0  0  0  0  0  0  0  0  0
   57.9680   32.9040   46.6010 C   0  0  0  0  0  0  0  0  0  0  0  0
   59.1600   33.8430   46.3560 C   0  0  0  0  0  0  0  0  0  0  0  0
   60.0470   33.9580   47.5600 C   0  0  0  0  0  0  0  0  0  0  0  0
   59.6320   34.1530   48.8750 C   0  0  0  0  0  0  0  0  0  0  0  0
   60.6850   34.0770   49.7200 N   0  0  0  0  0  0  0  0  0  0  0  0
   61.7600   33.8250   48.9520 C   0  0  0  0  0  0  0  0  0  0  0  0
   63.0700   33.6150   49.3780 C   0  0  0  0  0  0  0  0  0  0  0  0
   64.0390   33.3200   48.4010 C   0  0  0  0  0  0  0  0  0  0  0  0
   63.6780   33.2360   47.0380 C   0  0  0  0  0  0  0  0  0  0  0  0
   62.3460   33.4470   46.6380 C   0  0  0  0  0  0  0  0  0  0  0  0
   61.4100   33.7460   47.6280 C   0  0  0  0  0  0  0  0  0  0  0  0
  1  2  2  0
  2  3  1  0
  3  4  2  0
  4  5  1  0
  5  6  1  0
  6  7  1  0
  7  8  2  0
  7  9  1  0
  9 10  1  0
 10 11  1  0
  3 12  1  0
 12 13  2  0
 13 14  1  0
 13 15  1  0
 15 16  1  0
 16 17  1  0
 17 18  1  0
 18 19  2  0
 19 20  1  0
 20 21  1  0
 21 22  2  0
 22 23  1  0
 23 24  2  0
 24 25  1  0
 25 26  2  0
 15  2  1  0
 26 18  1  0
 10  5  2  0
 26 21  1  0
M  CHG  3   6  -1   9  -1  11  -1
M  END
>  <UniqueID>  (1071) 
78

>  <SMILES>  (1071) 
C=c1/c(=C\c2[n-]c(=O)[n-]c2[O-])cc(C)n1CCc1c[nH]c2ccccc12

>  <Energy>  (1071) 
142.77660268469575

>  <Genealogy>  (1071) 
C=c1c(=Cc2[n-]c(=O)[n-]c2[O-])cc(C)n1CCc1c[nH]c2ccccc12 (protonated)
C=c1/c(=C\c2[n-]c(=O)[n-]c2[O-])cc(C)n1CCc1c[nH]c2ccccc12 (cis-trans isomerization)
C=c1/c(=C\c2[n-]c(=O)[n-]c2[O-])cc(C)n1CCc1c[nH]c2ccccc12 (3D coordinates assigned)
C=c1/c(=C\c2[n-]c(=O)[n-]c2[O-])cc(C)n1CCc1c[nH]c2ccccc12 (optimized conformer: 142.77660268469575 kcal/mol)

>  <smiles>  (1071) 
C=c1c(=Cc2[nH]c(=O)[nH]c2O)cc(C)n1CCc1c[nH]c2ccccc12

>  <score_type>  (1071) 
oracle

>  <origin>  (1071) 
adg

>  <m_score__min__energy>  (1071) 
-16.399999999999999

>  <m_primary>  (1071) 
energy

$$$$
94:0
     RDKit          3D

 29 31  0  0  0  0  0  0  0  0999 V2000
   60.2550   29.8800   46.5080 C   0  0  0  0  0  0  0  0  0  0  0  0
   59.4640   30.8340   45.9940 C   0  0  0  0  0  0  0  0  0  0  0  0
   58.3880   30.6690   45.1020 C   0  0  0  0  0  0  0  0  0  0  0  0
   57.9200   29.5780   44.4640 C   0  0  0  0  0  0  0  0  0  0  0  0
   57.3860   28.3630   45.1070 C   0  0  0  0  0  0  0  0  0  0  0  0
   56.0030   28.1930   45.2590 C   0  0  0  0  0  0  0  0  0  0  0  0
   55.1190   29.1820   44.8420 O   0  0  0  0  0  0  0  0  0  0  0  0
   55.5170   27.0570   45.8210 N   0  0  0  0  0  0  0  0  0  0  0  0
   56.3490   26.0630   46.2250 C   0  0  0  0  0  0  0  0  0  0  0  0
   55.8760   25.0220   46.7480 O   0  0  0  0  0  0  0  0  0  0  0  0
   57.6900   26.1890   46.0590 N   0  0  0  0  0  0  0  0  0  0  0  0
   58.2260   27.3060   45.5020 C   0  0  0  0  0  0  0  0  0  0  0  0
   59.4740   27.3820   45.3440 O   0  0  0  0  0  0  0  0  0  0  0  0
   57.8180   31.9220   44.9480 C   0  0  0  0  0  0  0  0  0  0  0  0
   58.5620   32.8000   45.7050 C   0  0  0  0  0  0  0  0  0  0  0  0
   58.2950   34.2700   45.8220 C   0  0  0  0  0  0  0  0  0  0  0  0
   59.5650   32.1480   46.3320 N   0  0  0  0  0  0  0  0  0  0  0  0
   60.4850   32.7420   47.2660 C   0  0  0  0  0  0  0  0  0  0  0  0
   61.7150   33.2420   46.8120 C   0  0  0  0  0  0  0  0  0  0  0  0
   62.6110   33.8250   47.7090 C   0  0  0  0  0  0  0  0  0  0  0  0
   62.2860   33.9170   49.0630 C   0  0  0  0  0  0  0  0  0  0  0  0
   61.0610   33.4280   49.5260 C   0  0  0  0  0  0  0  0  0  0  0  0
   60.1490   32.8400   48.6290 C   0  0  0  0  0  0  0  0  0  0  0  0
   58.9050   32.3430   49.0450 O   0  0  0  0  0  0  0  0  0  0  0  0
   58.5600   32.0450   50.3950 C   0  0  0  0  0  0  0  0  0  0  0  0
   58.1610   30.5710   50.5010 C   0  0  0  0  0  0  0  0  0  0  0  0
   57.0350   30.3890   51.4440 N   0  0  0  0  0  0  0  0  0  0  0  0
   57.3990   29.4760   52.5400 C   0  0  0  0  0  0  0  0  0  0  0  0
   56.6290   31.6880   52.0030 C   0  0  0  0  0  0  0  0  0  0  0  0
  1  2  2  0
  2  3  1  0
  3  4  2  3
  4  5  1  0
  5  6  2  0
  6  7  1  0
  6  8  1  0
  8  9  1  0
  9 10  2  0
  9 11  1  0
 11 12  1  0
 12 13  2  0
  3 14  1  0
 14 15  2  0
 15 16  1  0
 15 17  1  0
 17 18  1  0
 18 19  2  0
 19 20  1  0
 20 21  2  0
 21 22  1  0
 22 23  2  0
 23 24  1  0
 24 25  1  0
 25 26  1  0
 26 27  1  0
 27 28  1  0
 27 29  1  0
 17  2  1  0
 23 18  1  0
 12  5  1  0
M  CHG  3   7  -1   8  -1  11  -1
M  END
>  <UniqueID>  (1072) 
85

>  <SMILES>  (1072) 
C=c1c(=Cc2c([O-])[n-]c(=O)[n-]c2=O)cc(C)n1-c1ccccc1OCCN(C)C

>  <Energy>  (1072) 
96.6614398672026

>  <Genealogy>  (1072) 
C=c1c(=Cc2c([O-])[n-]c(=O)[n-]c2=O)cc(C)n1-c1ccccc1OCCN(C)C (protonated)
C=c1c(=Cc2c([O-])[n-]c(=O)[n-]c2=O)cc(C)n1-c1ccccc1OCCN(C)C (3D coordinates assigned)
C=c1c(=Cc2c([O-])[n-]c(=O)[n-]c2=O)cc(C)n1-c1ccccc1OCCN(C)C (optimized conformer: 96.6614398672026 kcal/mol)

>  <smiles>  (1072) 
C=c1c(=Cc2c(O)[nH]c(=O)[nH]c2=O)cc(C)n1-c1ccccc1OCCN(C)C

>  <score_type>  (1072) 
oracle

>  <origin>  (1072) 
adg

>  <m_score__min__energy>  (1072) 
-15.699999999999999

>  <m_primary>  (1072) 
energy

$$$$
0:0
     RDKit          3D

 28 30  0  0  0  0  0  0  0  0999 V2000
   55.9440   27.4530   45.6610 O   0  0  0  0  0  0  0  0  0  0  0  0
   55.9720   26.0620   45.7620 C   0  0  0  0  0  0  0  0  0  0  0  0
   54.8030   25.4050   45.9840 N   0  0  0  0  0  0  0  0  0  0  0  0
   54.7550   24.0510   46.0510 C   0  0  0  0  0  0  0  0  0  0  0  0
   53.3310   23.2980   46.3170 S   0  0  0  0  0  0  0  0  0  0  0  0
   55.8870   23.3210   45.8840 N   0  0  0  0  0  0  0  0  0  0  0  0
   57.0840   23.9230   45.6660 C   0  0  0  0  0  0  0  0  0  0  0  0
   58.1140   23.2130   45.5190 O   0  0  0  0  0  0  0  0  0  0  0  0
   57.1670   25.3250   45.6200 C   0  0  0  0  0  0  0  0  0  0  0  0
   58.4750   25.9790   45.3950 C   0  0  0  0  0  0  0  0  0  0  0  0
   58.9430   26.9730   46.1750 C   0  0  0  0  0  0  0  0  0  0  0  0
   58.9800   26.9670   47.5600 C   0  0  0  0  0  0  0  0  0  0  0  0
   59.5520   28.1610   47.9450 C   0  0  0  0  0  0  0  0  0  0  0  0
   59.8380   28.5330   49.3700 C   0  0  0  0  0  0  0  0  0  0  0  0
   59.8810   28.9060   46.8620 N   0  0  0  0  0  0  0  0  0  0  0  0
   60.5640   30.2100   46.9040 C   0  0  0  0  0  0  0  0  0  0  0  0
   59.6060   31.3240   46.5660 C   0  0  0  0  0  0  0  0  0  0  0  0
   59.8660   32.6350   46.9940 C   0  0  0  0  0  0  0  0  0  0  0  0
   58.9640   33.6610   46.7030 C   0  0  0  0  0  0  0  0  0  0  0  0
   57.8010   33.3910   45.9790 C   0  0  0  0  0  0  0  0  0  0  0  0
   57.5390   32.0880   45.5220 C   0  0  0  0  0  0  0  0  0  0  0  0
   56.3460   31.7610   44.7940 N   0  0  0  0  0  0  0  0  0  0  0  0
   55.9860   30.4730   44.2780 C   0  0  0  0  0  0  0  0  0  0  0  0
   55.1540   29.7450   44.8810 O   0  0  0  0  0  0  0  0  0  0  0  0
   56.5180   30.0410   42.9530 C   0  0  0  0  0  0  0  0  0  0  0  0
   58.4370   31.0580   45.8350 C   0  0  0  0  0  0  0  0  0  0  0  0
   59.5140   28.1830   45.7680 C   0  0  0  0  0  0  0  0  0  0  0  0
   59.6810   28.5820   44.4960 C   0  0  0  0  0  0  0  0  0  0  0  0
  1  2  1  0
  2  3  1  0
  3  4  1  0
  4  5  2  0
  4  6  1  0
  6  7  1  0
  7  8  2  0
  7  9  1  0
  9 10  1  0
 10 11  2  0
 11 12  1  0
 12 13  2  0
 13 14  1  0
 13 15  1  0
 15 16  1  0
 16 17  1  0
 17 18  2  0
 18 19  1  0
 19 20  2  0
 20 21  1  0
 21 22  1  0
 22 23  1  0
 23 24  2  0
 23 25  1  0
 21 26  2  0
 15 27  1  0
 27 28  2  0
  9  2  2  0
 27 11  1  0
 26 17  1  0
M  CHG  3   3  -1   6  -1  22  -1
M  END
>  <UniqueID>  (1073) 
1

>  <SMILES>  (1073) 
C=c1/c(=C/c2c(O)[n-]c(=S)[n-]c2=O)cc(C)n1Cc1cccc([N-]C(C)=O)c1

>  <Energy>  (1073) 
87.41043441006288

>  <Genealogy>  (1073) 
C=c1c(=Cc2c(O)[n-]c(=S)[n-]c2=O)cc(C)n1Cc1cccc([N-]C(C)=O)c1 (protonated)
C=c1/c(=C/c2c(O)[n-]c(=S)[n-]c2=O)cc(C)n1Cc1cccc([N-]C(C)=O)c1 (cis-trans isomerization)
C=c1/c(=C/c2c(O)[n-]c(=S)[n-]c2=O)cc(C)n1Cc1cccc([N-]C(C)=O)c1 (3D coordinates assigned)
C=c1/c(=C/c2c(O)[n-]c(=S)[n-]c2=O)cc(C)n1Cc1cccc([N-]C(C)=O)c1 (optimized conformer: 87.41043441006288 kcal/mol)

>  <smiles>  (1073) 
C=c1c(=Cc2c(O)[nH]c(=S)[nH]c2=O)cc(C)n1Cc1cccc(NC(C)=O)c1

>  <score_type>  (1073) 
oracle

>  <origin>  (1073) 
adg

>  <m_score__min__energy>  (1073) 
-14.859999999999999

>  <m_primary>  (1073) 
energy

$$$$
4:0
     RDKit          3D

 29 32  0  0  0  0  0  0  0  0999 V2000
   59.8570   27.8120   46.7620 C   0  0  0  0  0  0  0  0  0  0  0  0
   58.9620   28.5700   46.1100 C   0  0  0  0  0  0  0  0  0  0  0  0
   58.0250   28.1490   45.1520 C   0  0  0  0  0  0  0  0  0  0  0  0
   57.6380   26.9150   44.7760 C   0  0  0  0  0  0  0  0  0  0  0  0
   57.1370   25.8620   45.6740 C   0  0  0  0  0  0  0  0  0  0  0  0
   57.8970   24.8880   46.2130 N   0  0  0  0  0  0  0  0  0  0  0  0
   57.0540   24.2740   47.0690 C   0  0  0  0  0  0  0  0  0  0  0  0
   57.3980   23.2840   47.7660 O   0  0  0  0  0  0  0  0  0  0  0  0
   55.8170   24.8130   47.1330 N   0  0  0  0  0  0  0  0  0  0  0  0
   55.8930   25.8260   46.2540 C   0  0  0  0  0  0  0  0  0  0  0  0
   54.8500   26.7060   45.9980 O   0  0  0  0  0  0  0  0  0  0  0  0
   57.4780   29.3020   44.6120 C   0  0  0  0  0  0  0  0  0  0  0  0
   58.0400   30.3660   45.2870 C   0  0  0  0  0  0  0  0  0  0  0  0
   57.7000   31.8070   45.0540 C   0  0  0  0  0  0  0  0  0  0  0  0
   58.9280   29.9240   46.2030 N   0  0  0  0  0  0  0  0  0  0  0  0
   59.7490   30.7630   47.0310 C   0  0  0  0  0  0  0  0  0  0  0  0
   59.1920   31.4200   48.1350 C   0  0  0  0  0  0  0  0  0  0  0  0
   59.9800   32.2630   48.9220 C   0  0  0  0  0  0  0  0  0  0  0  0
   61.3300   32.4800   48.5980 C   0  0  0  0  0  0  0  0  0  0  0  0
   62.1460   33.4020   49.4200 C   0  0  0  0  0  0  0  0  0  0  0  0
   61.8110   34.6170   49.4830 O   0  0  0  0  0  0  0  0  0  0  0  0
   63.3420   32.9460   50.1000 N   0  0  0  0  0  0  0  0  0  0  0  0
   64.5160   33.0600   49.2110 C   0  0  0  0  0  0  0  0  0  0  0  0
   65.8240   32.7680   49.9740 C   0  0  0  0  0  0  0  0  0  0  0  0
   65.6080   31.8600   51.1990 C   0  0  0  0  0  0  0  0  0  0  0  0
   64.4810   30.8550   50.9520 C   0  0  0  0  0  0  0  0  0  0  0  0
   63.1520   31.5520   50.5720 C   0  0  0  0  0  0  0  0  0  0  0  0
   61.8880   31.8090   47.4960 C   0  0  0  0  0  0  0  0  0  0  0  0
   61.1000   30.9560   46.7170 C   0  0  0  0  0  0  0  0  0  0  0  0
  1  2  2  0
  2  3  1  0
  3  4  2  0
  4  5  1  0
  5  6  1  0
  6  7  1  0
  7  8  2  0
  7  9  1  0
  9 10  1  0
 10 11  1  0
  3 12  1  0
 12 13  2  0
 13 14  1  0
 13 15  1  0
 15 16  1  0
 16 17  2  0
 17 18  1  0
 18 19  2  0
 19 20  1  0
 20 21  2  0
 20 22  1  0
 22 23  1  0
 23 24  1  0
 24 25  1  0
 25 26  1  0
 26 27  1  0
 19 28  1  0
 28 29  2  0
 15  2  1  0
 29 16  1  0
 10  5  2  0
 27 22  1  0
M  CHG  4   6  -1   9  -1  11  -1  22   1
M  END
>  <UniqueID>  (1074) 
4

>  <SMILES>  (1074) 
C=c1/c(=C\c2[n-]c(=O)[n-]c2[O-])cc(C)n1-c1ccc(C(=O)[NH+]2CCCCC2)cc1

>  <Energy>  (1074) 
139.84557812570006

>  <Genealogy>  (1074) 
C=c1c(=Cc2[n-]c(=O)[n-]c2[O-])cc(C)n1-c1ccc(C(=O)[NH+]2CCCCC2)cc1 (protonated)
C=c1/c(=C\c2[n-]c(=O)[n-]c2[O-])cc(C)n1-c1ccc(C(=O)[NH+]2CCCCC2)cc1 (cis-trans isomerization)
C=c1/c(=C\c2[n-]c(=O)[n-]c2[O-])cc(C)n1-c1ccc(C(=O)[NH+]2CCCCC2)cc1 (3D coordinates assigned)
C=c1/c(=C\c2[n-]c(=O)[n-]c2[O-])cc(C)n1-c1ccc(C(=O)[NH+]2CCCCC2)cc1 (nonaromatic ring conformer: 139.84557812570006 kcal/mol)

>  <smiles>  (1074) 
C=c1c(=Cc2[nH]c(=O)[nH]c2O)cc(C)n1-c1ccc(C(=O)N2CCCCC2)cc1

>  <score_type>  (1074) 
oracle

>  <origin>  (1074) 
adg

>  <m_score__min__energy>  (1074) 
-14.970000000000001

>  <m_primary>  (1074) 
energy

$$$$
7:0
     RDKit          3D

 36 39  0  0  0  0  0  0  0  0999 V2000
   55.1450   29.6660   44.8440 O   0  0  0  0  0  0  0  0  0  0  0  0
   56.3080   29.2150   44.6670 C   0  0  0  0  0  0  0  0  0  0  0  0
   56.9330   29.3360   43.3010 C   0  0  0  0  0  0  0  0  0  0  0  0
   56.7760   30.6820   42.7620 N   0  0  0  0  0  0  0  0  0  0  0  0
   57.6640   31.7840   42.9770 C   0  0  0  0  0  0  0  0  0  0  0  0
   58.0820   32.4300   41.9840 O   0  0  0  0  0  0  0  0  0  0  0  0
   58.0970   32.1980   44.3190 C   0  0  0  0  0  0  0  0  0  0  0  0
   58.7500   31.2910   45.1660 C   0  0  0  0  0  0  0  0  0  0  0  0
   59.2550   31.7170   46.4000 C   0  0  0  0  0  0  0  0  0  0  0  0
   59.1370   33.0590   46.7860 C   0  0  0  0  0  0  0  0  0  0  0  0
   59.9290   33.6310   48.2590 S   0  0  0  0  0  0  0  0  0  0  0  0
   59.3420   34.9660   48.6420 O   0  0  0  0  0  0  0  0  0  0  0  0
   59.6290   32.6560   49.3700 O   0  0  0  0  0  0  0  0  0  0  0  0
   61.6640   33.8050   48.0990 N   0  0  0  0  0  0  0  0  0  0  0  0
   62.3820   32.6970   48.7200 C   0  0  0  0  0  0  0  0  0  0  0  0
   63.7520   32.6610   48.0550 C   0  0  0  0  0  0  0  0  0  0  0  0
   63.5720   33.4030   46.7350 C   0  0  0  0  0  0  0  0  0  0  0  0
   62.1020   33.8070   46.7100 C   0  0  0  0  0  0  0  0  0  0  0  0
   58.4820   33.9640   45.9390 C   0  0  0  0  0  0  0  0  0  0  0  0
   57.9660   33.5370   44.7120 C   0  0  0  0  0  0  0  0  0  0  0  0
   57.0500   28.7800   45.8160 N   0  0  0  0  0  0  0  0  0  0  0  0
   57.7300   27.5300   45.9960 C   0  0  0  0  0  0  0  0  0  0  0  0
   59.1290   27.4230   45.8880 C   0  0  0  0  0  0  0  0  0  0  0  0
   59.7590   26.1880   46.0430 C   0  0  0  0  0  0  0  0  0  0  0  0
   58.9980   25.0410   46.2670 C   0  0  0  0  0  0  0  0  0  0  0  0
   57.5990   25.1250   46.3300 C   0  0  0  0  0  0  0  0  0  0  0  0
   56.6420   23.6680   46.5590 S   0  0  0  0  0  0  0  0  0  0  0  0
   55.3000   24.0480   47.1120 O   0  0  0  0  0  0  0  0  0  0  0  0
   57.3270   22.7850   47.5600 O   0  0  0  0  0  0  0  0  0  0  0  0
   56.4250   22.7880   45.0730 N   0  0  0  0  0  0  0  0  0  0  0  0
   57.5630   21.8850   44.8350 C   0  0  0  0  0  0  0  0  0  0  0  0
   57.4750   21.2670   43.4210 C   0  0  0  0  0  0  0  0  0  0  0  0
   56.2040   21.5030   42.8420 O   0  0  0  0  0  0  0  0  0  0  0  0
   56.0110   22.8970   42.6520 C   0  0  0  0  0  0  0  0  0  0  0  0
   56.2690   23.7070   43.9400 C   0  0  0  0  0  0  0  0  0  0  0  0
   56.9680   26.3710   46.1890 C   0  0  0  0  0  0  0  0  0  0  0  0
  1  2  2  0
  2  3  1  0
  3  4  1  0
  4  5  1  0
  5  6  2  0
  5  7  1  0
  7  8  2  0
  8  9  1  0
  9 10  2  0
 10 11  1  0
 11 12  2  0
 11 13  2  0
 11 14  1  0
 14 15  1  0
 15 16  1  0
 16 17  1  0
 17 18  1  0
 10 19  1  0
 19 20  2  0
  2 21  1  0
 21 22  1  0
 22 23  2  0
 23 24  1  0
 24 25  2  0
 25 26  1  0
 26 27  1  0
 27 28  2  0
 27 29  2  0
 27 30  1  0
 30 31  1  0
 31 32  1  0
 32 33  1  0
 33 34  1  0
 34 35  1  0
 26 36  2  0
 20  7  1  0
 36 22  1  0
 18 14  1  0
 35 30  1  0
M  CHG  2   4  -1  21  -1
M  END
>  <UniqueID>  (1075) 
7

>  <SMILES>  (1075) 
O=C(C[N-]C(=O)c1ccc(S(=O)(=O)N2CCCC2)cc1)[N-]c1cccc(S(=O)(=O)N2CCOCC2)c1

>  <Energy>  (1075) 
79.64311835218008

>  <Genealogy>  (1075) 
O=C(C[N-]C(=O)c1ccc(S(=O)(=O)N2CCCC2)cc1)[N-]c1cccc(S(=O)(=O)N2CCOCC2)c1 (protonated)
O=C(C[N-]C(=O)c1ccc(S(=O)(=O)N2CCCC2)cc1)[N-]c1cccc(S(=O)(=O)N2CCOCC2)c1 (3D coordinates assigned)
O=C(C[N-]C(=O)c1ccc(S(=O)(=O)N2CCCC2)cc1)[N-]c1cccc(S(=O)(=O)N2CCOCC2)c1 (nonaromatic ring conformer: 79.64311835218008 kcal/mol)

>  <smiles>  (1075) 
O=C(CNC(=O)c1ccc(S(=O)(=O)N2CCCC2)cc1)Nc1cccc(S(=O)(=O)N2CCOCC2)c1

>  <score_type>  (1075) 
oracle

>  <origin>  (1075) 
adg

>  <m_score__min__energy>  (1075) 
-15.24

>  <m_primary>  (1075) 
energy

$$$$
12:0
     RDKit          3D

 34 38  0  0  0  0  0  0  0  0999 V2000
   54.3500   26.0590   45.9500 N   0  0  0  0  0  0  0  0  0  0  0  0
   55.5800   24.8450   45.9380 S   0  0  0  0  0  0  0  0  0  0  0  0
   55.3970   23.9630   44.7350 O   0  0  0  0  0  0  0  0  0  0  0  0
   55.4660   24.0010   47.1760 O   0  0  0  0  0  0  0  0  0  0  0  0
   57.1630   25.6130   45.8880 C   0  0  0  0  0  0  0  0  0  0  0  0
   58.3270   24.8510   46.0510 C   0  0  0  0  0  0  0  0  0  0  0  0
   59.5800   25.4630   45.9860 C   0  0  0  0  0  0  0  0  0  0  0  0
   59.6790   26.8380   45.7590 C   0  0  0  0  0  0  0  0  0  0  0  0
   58.5230   27.6200   45.6010 C   0  0  0  0  0  0  0  0  0  0  0  0
   58.6320   29.0360   45.3520 N   0  0  0  0  0  0  0  0  0  0  0  0
   58.1670   29.7170   44.1460 C   0  0  0  0  0  0  0  0  0  0  0  0
   58.3580   31.2310   44.4090 C   0  0  0  0  0  0  0  0  0  0  0  0
   58.9280   31.3390   45.7500 N   0  0  0  0  0  0  0  0  0  0  0  0
   59.1440   32.5740   46.4620 C   0  0  0  0  0  0  0  0  0  0  0  0
   59.2820   33.7900   45.7700 C   0  0  0  0  0  0  0  0  0  0  0  0
   59.5000   34.9790   46.4670 C   0  0  0  0  0  0  0  0  0  0  0  0
   59.6000   34.9700   47.8600 C   0  0  0  0  0  0  0  0  0  0  0  0
   59.4980   33.7630   48.5680 C   0  0  0  0  0  0  0  0  0  0  0  0
   59.6030   33.7510   50.0740 C   0  0  0  0  0  0  0  0  0  0  0  0
   58.9760   32.5120   50.6620 C   0  0  0  0  0  0  0  0  0  0  0  0
   57.6640   32.5670   51.0180 N   0  0  0  0  0  0  0  0  0  0  0  0
   57.0220   31.5150   51.5260 N   0  0  0  0  0  0  0  0  0  0  0  0
   57.6430   30.3240   51.7090 C   0  0  0  0  0  0  0  0  0  0  0  0
   57.0000   29.3610   52.2050 O   0  0  0  0  0  0  0  0  0  0  0  0
   58.9890   30.1840   51.3450 C   0  0  0  0  0  0  0  0  0  0  0  0
   59.6730   31.2920   50.8170 C   0  0  0  0  0  0  0  0  0  0  0  0
   61.1400   31.1140   50.4950 C   0  0  0  0  0  0  0  0  0  0  0  0
   61.3680   29.8010   49.7310 C   0  0  0  0  0  0  0  0  0  0  0  0
   60.6380   28.5760   50.3390 C   0  0  0  0  0  0  0  0  0  0  0  0
   59.7530   28.8980   51.5560 C   0  0  0  0  0  0  0  0  0  0  0  0
   59.2530   32.5710   47.8630 C   0  0  0  0  0  0  0  0  0  0  0  0
   59.1050   30.0250   46.2490 C   0  0  0  0  0  0  0  0  0  0  0  0
   59.7240   29.7620   47.3140 O   0  0  0  0  0  0  0  0  0  0  0  0
   57.2640   26.9910   45.6530 C   0  0  0  0  0  0  0  0  0  0  0  0
  1  2  1  0
  2  3  2  0
  2  4  2  0
  2  5  1  0
  5  6  2  0
  6  7  1  0
  7  8  2  0
  8  9  1  0
  9 10  1  0
 10 11  1  0
 11 12  1  0
 12 13  1  0
 13 14  1  0
 14 15  2  0
 15 16  1  0
 16 17  2  0
 17 18  1  0
 18 19  1  0
 19 20  1  0
 20 21  2  0
 21 22  1  0
 22 23  1  0
 23 24  2  0
 23 25  1  0
 25 26  2  0
 26 27  1  0
 27 28  1  0
 28 29  1  0
 29 30  1  0
 18 31  2  0
 13 32  1  0
 32 33  2  0
  9 34  2  0
 34  5  1  0
 32 10  1  0
 31 14  1  0
 26 20  1  0
 30 25  1  0
M  CHG  2   1  -1  22  -1
M  END
>  <UniqueID>  (1076) 
12

>  <SMILES>  (1076) 
[NH-]S(=O)(=O)c1cccc(N2CCN(c3cccc(Cc4n[n-]c(=O)c5c4CCCC5)c3)C2=O)c1

>  <Energy>  (1076) 
89.85826815541607

>  <Genealogy>  (1076) 
[NH-]S(=O)(=O)c1cccc(N2CCN(c3cccc(Cc4n[n-]c(=O)c5c4CCCC5)c3)C2=O)c1 (protonated)
[NH-]S(=O)(=O)c1cccc(N2CCN(c3cccc(Cc4n[n-]c(=O)c5c4CCCC5)c3)C2=O)c1 (3D coordinates assigned)
[NH-]S(=O)(=O)c1cccc(N2CCN(c3cccc(Cc4n[n-]c(=O)c5c4CCCC5)c3)C2=O)c1 (nonaromatic ring conformer: 89.85826815541607 kcal/mol)

>  <smiles>  (1076) 
NS(=O)(=O)c1cccc(N2CCN(c3cccc(Cc4n[nH]c(=O)c5c4CCCC5)c3)C2=O)c1

>  <score_type>  (1076) 
oracle

>  <origin>  (1076) 
adg

>  <m_score__min__energy>  (1076) 
-14.43

>  <m_primary>  (1076) 
energy

$$$$
47:0
     RDKit          3D

 32 35  0  0  0  0  0  0  0  0999 V2000
   61.6400   30.9620   48.4640 O   0  0  0  0  0  0  0  0  0  0  0  0
   60.6300   31.2500   47.7660 C   0  0  0  0  0  0  0  0  0  0  0  0
   59.9510   30.1810   47.0060 C   0  0  0  0  0  0  0  0  0  0  0  0
   60.2450   29.9460   45.6540 C   0  0  0  0  0  0  0  0  0  0  0  0
   59.5730   28.9310   44.9710 C   0  0  0  0  0  0  0  0  0  0  0  0
   58.6110   28.1560   45.6310 C   0  0  0  0  0  0  0  0  0  0  0  0
   57.8630   27.0720   44.9000 C   0  0  0  0  0  0  0  0  0  0  0  0
   57.4550   25.9700   45.8510 C   0  0  0  0  0  0  0  0  0  0  0  0
   56.1280   25.8530   46.3050 C   0  0  0  0  0  0  0  0  0  0  0  0
   55.1570   26.7660   45.9110 O   0  0  0  0  0  0  0  0  0  0  0  0
   55.7830   24.8410   47.1420 N   0  0  0  0  0  0  0  0  0  0  0  0
   56.6970   23.9250   47.5500 C   0  0  0  0  0  0  0  0  0  0  0  0
   56.3520   22.9950   48.3260 O   0  0  0  0  0  0  0  0  0  0  0  0
   57.9820   24.0090   47.1220 N   0  0  0  0  0  0  0  0  0  0  0  0
   58.3810   25.0020   46.2850 C   0  0  0  0  0  0  0  0  0  0  0  0
   59.5820   25.0420   45.9070 O   0  0  0  0  0  0  0  0  0  0  0  0
   58.3290   28.4370   46.9760 C   0  0  0  0  0  0  0  0  0  0  0  0
   58.9960   29.4300   47.6220 N   0  0  0  0  0  0  0  0  0  0  0  0
   60.1610   32.6090   47.7340 N   0  0  0  0  0  0  0  0  0  0  0  0
   59.0600   33.0100   48.6250 C   0  0  0  0  0  0  0  0  0  0  0  0
   57.7040   32.9510   47.9070 C   0  0  0  0  0  0  0  0  0  0  0  0
   57.6410   33.7800   46.6160 C   0  0  0  0  0  0  0  0  0  0  0  0
   58.4600   33.1790   45.5520 N   0  0  0  0  0  0  0  0  0  0  0  0
   57.8400   32.2780   44.6170 C   0  0  0  0  0  0  0  0  0  0  0  0
   58.0170   32.4610   43.2370 C   0  0  0  0  0  0  0  0  0  0  0  0
   57.4090   31.5910   42.3270 C   0  0  0  0  0  0  0  0  0  0  0  0
   56.6210   30.5330   42.7870 C   0  0  0  0  0  0  0  0  0  0  0  0
   56.4370   30.3400   44.1600 C   0  0  0  0  0  0  0  0  0  0  0  0
   55.6510   29.2790   44.6050 O   0  0  0  0  0  0  0  0  0  0  0  0
   57.0450   31.2110   45.0740 C   0  0  0  0  0  0  0  0  0  0  0  0
   59.8920   33.4960   45.3780 C   0  0  0  0  0  0  0  0  0  0  0  0
   60.7020   33.4990   46.6890 C   0  0  0  0  0  0  0  0  0  0  0  0
  1  2  2  0
  2  3  1  0
  3  4  2  0
  4  5  1  0
  5  6  2  0
  6  7  1  0
  7  8  1  0
  8  9  2  0
  9 10  1  0
  9 11  1  0
 11 12  1  0
 12 13  2  0
 12 14  1  0
 14 15  1  0
 15 16  2  0
  6 17  1  0
 17 18  2  0
  2 19  1  0
 19 20  1  0
 20 21  1  0
 21 22  1  0
 22 23  1  0
 23 24  1  0
 24 25  2  0
 25 26  1  0
 26 27  2  0
 27 28  1  0
 28 29  1  0
 28 30  2  0
 23 31  1  0
 31 32  1  0
 18  3  1  0
 32 19  1  0
 15  8  1  0
 30 24  1  0
M  CHG  3  10  -1  11  -1  14  -1
M  END
>  <UniqueID>  (1077) 
44

>  <SMILES>  (1077) 
O=C(c1ccc(Cc2c([O-])[n-]c(=O)[n-]c2=O)cn1)N1CCCN(c2cccc(O)c2)CC1

>  <Energy>  (1077) 
70.78858553163738

>  <Genealogy>  (1077) 
O=C(c1ccc(Cc2c([O-])[n-]c(=O)[n-]c2=O)cn1)N1CCCN(c2cccc(O)c2)CC1 (protonated)
O=C(c1ccc(Cc2c([O-])[n-]c(=O)[n-]c2=O)cn1)N1CCCN(c2cccc(O)c2)CC1 (3D coordinates assigned)
O=C(c1ccc(Cc2c([O-])[n-]c(=O)[n-]c2=O)cn1)N1CCCN(c2cccc(O)c2)CC1 (nonaromatic ring conformer: 70.78858553163738 kcal/mol)

>  <smiles>  (1077) 
O=C(c1ccc(Cc2c(O)[nH]c(=O)[nH]c2=O)cn1)N1CCCN(c2cccc(O)c2)CC1

>  <score_type>  (1077) 
oracle

>  <origin>  (1077) 
adg

>  <m_score__min__energy>  (1077) 
-14.48

>  <m_primary>  (1077) 
energy

$$$$
56:0
     RDKit          3D

 34 37  0  0  0  0  0  0  0  0999 V2000
   57.9610   29.6420   50.8290 O   0  0  0  0  0  0  0  0  0  0  0  0
   58.5120   30.3790   49.9650 C   0  0  0  0  0  0  0  0  0  0  0  0
   59.6030   29.7950   49.1000 C   0  0  0  0  0  0  0  0  0  0  0  0
   59.1210   28.9940   47.9540 N   0  0  0  0  0  0  0  0  0  0  0  0
   59.4020   27.5420   48.0860 C   0  0  0  0  0  0  0  0  0  0  0  0
   59.4790   26.8160   46.7300 C   0  0  0  0  0  0  0  0  0  0  0  0
   58.5650   27.4340   45.7590 N   0  0  0  0  0  0  0  0  0  0  0  0
   57.7950   26.6230   44.8520 C   0  0  0  0  0  0  0  0  0  0  0  0
   57.6900   26.9740   43.6450 O   0  0  0  0  0  0  0  0  0  0  0  0
   57.0840   25.4070   45.3170 C   0  0  0  0  0  0  0  0  0  0  0  0
   57.7080   24.1500   45.2190 C   0  0  0  0  0  0  0  0  0  0  0  0
   57.0620   22.9990   45.6820 C   0  0  0  0  0  0  0  0  0  0  0  0
   55.7870   23.0910   46.2470 C   0  0  0  0  0  0  0  0  0  0  0  0
   55.1550   24.3340   46.3480 C   0  0  0  0  0  0  0  0  0  0  0  0
   55.7960   25.4910   45.8890 C   0  0  0  0  0  0  0  0  0  0  0  0
   55.1360   26.7150   45.9860 O   0  0  0  0  0  0  0  0  0  0  0  0
   58.5980   28.8890   45.5620 C   0  0  0  0  0  0  0  0  0  0  0  0
   59.4510   29.5690   46.6360 C   0  0  0  0  0  0  0  0  0  0  0  0
   58.1360   31.7580   49.8570 N   0  0  0  0  0  0  0  0  0  0  0  0
   58.6970   32.6500   48.8870 C   0  0  0  0  0  0  0  0  0  0  0  0
   58.2990   32.5190   47.5510 C   0  0  0  0  0  0  0  0  0  0  0  0
   58.7550   33.4190   46.5850 C   0  0  0  0  0  0  0  0  0  0  0  0
   59.6170   34.4550   46.9480 C   0  0  0  0  0  0  0  0  0  0  0  0
   60.0440   34.5800   48.2740 C   0  0  0  0  0  0  0  0  0  0  0  0
   59.6090   33.6710   49.2540 C   0  0  0  0  0  0  0  0  0  0  0  0
   60.1610   33.7650   50.6240 C   0  0  0  0  0  0  0  0  0  0  0  0
   59.3840   33.7820   51.6180 O   0  0  0  0  0  0  0  0  0  0  0  0
   61.5740   33.8870   50.8170 N   0  0  0  0  0  0  0  0  0  0  0  0
   62.5070   32.7840   50.6360 C   0  0  0  0  0  0  0  0  0  0  0  0
   62.9530   32.7530   49.2100 C   0  0  0  0  0  0  0  0  0  0  0  0
   62.8410   31.6830   48.3450 C   0  0  0  0  0  0  0  0  0  0  0  0
   63.3300   32.1330   47.1350 C   0  0  0  0  0  0  0  0  0  0  0  0
   63.7130   33.4440   47.3380 C   0  0  0  0  0  0  0  0  0  0  0  0
   63.4720   33.7860   48.5840 O   0  0  0  0  0  0  0  0  0  0  0  0
  1  2  2  0
  2  3  1  0
  3  4  1  0
  4  5  1  0
  5  6  1  0
  6  7  1  0
  7  8  1  0
  8  9  2  0
  8 10  1  0
 10 11  2  0
 11 12  1  0
 12 13  2  0
 13 14  1  0
 14 15  2  0
 15 16  1  0
  7 17  1  0
 17 18  1  0
  2 19  1  0
 19 20  1  0
 20 21  2  0
 21 22  1  0
 22 23  2  0
 23 24  1  0
 24 25  2  0
 25 26  1  0
 26 27  2  0
 26 28  1  0
 28 29  1  0
 29 30  1  0
 30 31  2  0
 31 32  1  0
 32 33  2  0
 33 34  1  0
 18  4  1  0
 25 20  1  0
 34 30  1  0
 15 10  1  0
M  CHG  3  16  -1  19  -1  28  -1
M  END
>  <UniqueID>  (1078) 
53

>  <SMILES>  (1078) 
O=C(CN1CCN(C(=O)c2ccccc2[O-])CC1)[N-]c1ccccc1C(=O)[N-]Cc1ccco1

>  <Energy>  (1078) 
105.08049062258898

>  <Genealogy>  (1078) 
O=C(CN1CCN(C(=O)c2ccccc2[O-])CC1)[N-]c1ccccc1C(=O)[N-]Cc1ccco1 (protonated)
O=C(CN1CCN(C(=O)c2ccccc2[O-])CC1)[N-]c1ccccc1C(=O)[N-]Cc1ccco1 (3D coordinates assigned)
O=C(CN1CCN(C(=O)c2ccccc2[O-])CC1)[N-]c1ccccc1C(=O)[N-]Cc1ccco1 (nonaromatic ring conformer: 105.08049062258898 kcal/mol)

>  <smiles>  (1078) 
O=C(CN1CCN(C(=O)c2ccccc2O)CC1)Nc1ccccc1C(=O)NCc1ccco1

>  <score_type>  (1078) 
oracle

>  <origin>  (1078) 
adg

>  <m_score__min__energy>  (1078) 
-15.220000000000001

>  <m_primary>  (1078) 
energy

$$$$
82:0
     RDKit          3D

 22 23  0  0  0  0  0  0  0  0999 V2000
   60.7830   27.0870   46.7900 C   0  0  0  0  0  0  0  0  0  0  0  0
   60.3080   27.7000   48.0460 C   0  0  0  0  0  0  0  0  0  0  0  0
   59.4480   27.1170   48.7600 O   0  0  0  0  0  0  0  0  0  0  0  0
   60.7940   29.0070   48.3930 N   0  0  0  0  0  0  0  0  0  0  0  0
   60.4510   30.1460   47.8660 C   0  0  0  0  0  0  0  0  0  0  0  0
   61.3630   30.9970   47.3490 N   0  0  0  0  0  0  0  0  0  0  0  0
   60.8240   32.1150   46.8640 N   0  0  0  0  0  0  0  0  0  0  0  0
   59.4810   32.1570   46.9920 C   0  0  0  0  0  0  0  0  0  0  0  0
   58.4940   33.5000   46.4560 S   0  0  0  0  0  0  0  0  0  0  0  0
   59.1810   34.7930   46.7940 O   0  0  0  0  0  0  0  0  0  0  0  0
   57.1640   33.4540   47.1550 O   0  0  0  0  0  0  0  0  0  0  0  0
   58.2380   33.3900   44.7000 C   0  0  0  0  0  0  0  0  0  0  0  0
   58.8830   30.7710   47.7390 S   0  0  0  0  0  0  0  0  0  0  0  0
   60.0620   26.9490   45.6670 C   0  0  0  0  0  0  0  0  0  0  0  0
   58.7430   27.5680   45.4140 C   0  0  0  0  0  0  0  0  0  0  0  0
   58.6360   28.8640   44.8780 C   0  0  0  0  0  0  0  0  0  0  0  0
   57.3800   29.4470   44.6890 C   0  0  0  0  0  0  0  0  0  0  0  0
   56.2230   28.7530   45.0570 C   0  0  0  0  0  0  0  0  0  0  0  0
   54.9760   29.3380   44.8670 O   0  0  0  0  0  0  0  0  0  0  0  0
   56.3230   27.4750   45.6210 C   0  0  0  0  0  0  0  0  0  0  0  0
   55.1760   26.7860   45.9970 O   0  0  0  0  0  0  0  0  0  0  0  0
   57.5800   26.8900   45.8090 C   0  0  0  0  0  0  0  0  0  0  0  0
  1  2  1  0
  2  3  2  0
  2  4  1  0
  4  5  2  0
  5  6  1  0
  6  7  1  0
  7  8  2  0
  8  9  1  0
  9 10  2  0
  9 11  2  0
  9 12  1  0
  8 13  1  0
  1 14  2  3
 14 15  1  0
 15 16  2  0
 16 17  1  0
 17 18  2  0
 18 19  1  0
 18 20  1  0
 20 21  1  0
 20 22  2  0
 13  5  1  0
 22 15  1  0
M  CHG  3   6  -1  19  -1  21  -1
M  END
>  <UniqueID>  (1079) 
77

>  <SMILES>  (1079) 
CS(=O)(=O)c1n[n-]/c(=N/C(=O)C=Cc2ccc([O-])c([O-])c2)s1

>  <Energy>  (1079) 
73.11312337299137

>  <Genealogy>  (1079) 
CS(=O)(=O)c1n[n-]c(=NC(=O)C=Cc2ccc([O-])c([O-])c2)s1 (protonated)
CS(=O)(=O)c1n[n-]/c(=N/C(=O)C=Cc2ccc([O-])c([O-])c2)s1 (cis-trans isomerization)
CS(=O)(=O)c1n[n-]/c(=N/C(=O)C=Cc2ccc([O-])c([O-])c2)s1 (3D coordinates assigned)
CS(=O)(=O)c1n[n-]/c(=N/C(=O)C=Cc2ccc([O-])c([O-])c2)s1 (optimized conformer: 73.11312337299137 kcal/mol)

>  <smiles>  (1079) 
CS(=O)(=O)c1n[nH]c(=NC(=O)C=Cc2ccc(O)c(O)c2)s1

>  <score_type>  (1079) 
oracle

>  <origin>  (1079) 
adg

>  <m_score__min__energy>  (1079) 
-16.739999999999998

>  <m_primary>  (1079) 
energy

$$$$
0:0
     RDKit          3D

 36 40  0  0  0  0  0  0  0  0999 V2000
   55.8870   19.7040   43.6500 O   0  0  0  0  0  0  0  0  0  0  0  0
   56.2250   20.6080   44.4600 C   0  0  0  0  0  0  0  0  0  0  0  0
   56.5220   20.2750   45.7410 N   0  0  0  0  0  0  0  0  0  0  0  0
   56.8770   21.2060   46.6590 C   0  0  0  0  0  0  0  0  0  0  0  0
   56.9730   22.5490   46.2950 C   0  0  0  0  0  0  0  0  0  0  0  0
   57.3470   23.4620   47.2220 N   0  0  0  0  0  0  0  0  0  0  0  0
   57.4860   24.7710   46.9100 C   0  0  0  0  0  0  0  0  0  0  0  0
   57.8350   25.5820   47.8120 O   0  0  0  0  0  0  0  0  0  0  0  0
   57.2700   25.2010   45.6290 N   0  0  0  0  0  0  0  0  0  0  0  0
   57.4540   26.5950   45.3050 C   0  0  0  0  0  0  0  0  0  0  0  0
   58.6810   27.0380   44.7910 C   0  0  0  0  0  0  0  0  0  0  0  0
   58.8680   28.3860   44.4750 C   0  0  0  0  0  0  0  0  0  0  0  0
   57.8320   29.3100   44.6770 C   0  0  0  0  0  0  0  0  0  0  0  0
   58.0200   30.7560   44.3030 C   0  0  0  0  0  0  0  0  0  0  0  0
   57.5900   31.6730   45.4540 C   0  0  0  0  0  0  0  0  0  0  0  0
   58.7730   32.1710   46.1860 N   0  0  0  0  0  0  0  0  0  0  0  0
   58.9000   31.5630   47.5380 C   0  0  0  0  0  0  0  0  0  0  0  0
   58.4480   32.5140   48.6600 C   0  0  0  0  0  0  0  0  0  0  0  0
   59.1910   33.7970   48.6350 N   0  0  0  0  0  0  0  0  0  0  0  0
   60.1630   33.9730   49.7370 C   0  0  0  0  0  0  0  0  0  0  0  0
   61.5510   33.4480   49.4240 C   0  0  0  0  0  0  0  0  0  0  0  0
   62.6560   34.3180   49.3890 C   0  0  0  0  0  0  0  0  0  0  0  0
   63.9330   33.8280   49.1000 C   0  0  0  0  0  0  0  0  0  0  0  0
   64.1180   32.4700   48.8290 C   0  0  0  0  0  0  0  0  0  0  0  0
   63.0240   31.6020   48.8360 C   0  0  0  0  0  0  0  0  0  0  0  0
   61.7450   32.0880   49.1230 C   0  0  0  0  0  0  0  0  0  0  0  0
   59.7170   34.1770   47.3060 C   0  0  0  0  0  0  0  0  0  0  0  0
   58.8050   33.6520   46.1950 C   0  0  0  0  0  0  0  0  0  0  0  0
   56.5990   28.8650   45.1770 C   0  0  0  0  0  0  0  0  0  0  0  0
   56.4090   27.5150   45.4920 C   0  0  0  0  0  0  0  0  0  0  0  0
   55.1780   27.0900   45.9820 O   0  0  0  0  0  0  0  0  0  0  0  0
   56.9000   24.3130   44.6510 C   0  0  0  0  0  0  0  0  0  0  0  0
   56.7670   24.7260   43.4670 O   0  0  0  0  0  0  0  0  0  0  0  0
   56.6980   22.9460   44.9670 C   0  0  0  0  0  0  0  0  0  0  0  0
   56.2720   21.9470   44.0400 C   0  0  0  0  0  0  0  0  0  0  0  0
   55.8650   22.2210   42.7290 O   0  0  0  0  0  0  0  0  0  0  0  0
  1  2  2  0
  2  3  1  0
  3  4  1  0
  4  5  2  0
  5  6  1  0
  6  7  1  0
  7  8  2  0
  7  9  1  0
  9 10  1  0
 10 11  2  0
 11 12  1  0
 12 13  2  0
 13 14  1  0
 14 15  1  0
 15 16  1  0
 16 17  1  0
 17 18  1  0
 18 19  1  0
 19 20  1  0
 20 21  1  0
 21 22  2  0
 22 23  1  0
 23 24  2  0
 24 25  1  0
 25 26  2  0
 19 27  1  0
 27 28  1  0
 13 29  1  0
 29 30  2  0
 30 31  1  0
  9 32  1  0
 32 33  2  0
 32 34  1  0
 34 35  2  0
 35 36  1  0
 35  2  1  0
 34  5  1  0
 30 10  1  0
 28 16  1  0
 26 21  1  0
M  CHG  3   3  -1   6  -1  31  -1
M  END
>  <UniqueID>  (1080) 
1

>  <SMILES>  (1080) 
O=c1[n-]cc2[n-]c(=O)n(-c3ccc(CCN4CCN(Cc5ccccc5)CC4)cc3[O-])c(=O)c2c1O

>  <Energy>  (1080) 
102.43903466905337

>  <Genealogy>  (1080) 
O=c1[n-]cc2[n-]c(=O)n(-c3ccc(CCN4CCN(Cc5ccccc5)CC4)cc3[O-])c(=O)c2c1O (protonated)
O=c1[n-]cc2[n-]c(=O)n(-c3ccc(CCN4CCN(Cc5ccccc5)CC4)cc3[O-])c(=O)c2c1O (3D coordinates assigned)
O=c1[n-]cc2[n-]c(=O)n(-c3ccc(CCN4CCN(Cc5ccccc5)CC4)cc3[O-])c(=O)c2c1O (nonaromatic ring conformer: 102.43903466905337 kcal/mol)

>  <smiles>  (1080) 
O=c1[nH]cc2[nH]c(=O)n(-c3ccc(CCN4CCN(Cc5ccccc5)CC4)cc3O)c(=O)c2c1O

>  <score_type>  (1080) 
oracle

>  <origin>  (1080) 
adg

>  <m_score__min__energy>  (1080) 
-16.260000000000002

>  <m_primary>  (1080) 
energy

$$$$
9:0
     RDKit          3D

 26 28  0  0  0  0  0  0  0  0999 V2000
   58.5240   25.8480   46.0570 C   0  0  0  0  0  0  0  0  0  0  0  0
   57.9730   27.0440   45.7160 N   0  0  0  0  0  0  0  0  0  0  0  0
   56.6220   27.2330   45.6750 C   0  0  0  0  0  0  0  0  0  0  0  0
   56.1180   28.3930   45.3660 N   0  0  0  0  0  0  0  0  0  0  0  0
   56.8540   29.6160   45.2040 C   0  0  0  0  0  0  0  0  0  0  0  0
   56.3610   30.5270   44.4890 O   0  0  0  0  0  0  0  0  0  0  0  0
   58.1800   29.8280   45.8180 C   0  0  0  0  0  0  0  0  0  0  0  0
   58.2540   30.3680   47.0640 N   0  0  0  0  0  0  0  0  0  0  0  0
   59.4380   30.5820   47.7010 C   0  0  0  0  0  0  0  0  0  0  0  0
   59.4280   31.1080   49.0780 C   0  0  0  0  0  0  0  0  0  0  0  0
   59.7630   30.3780   50.0490 O   0  0  0  0  0  0  0  0  0  0  0  0
   59.0060   32.4510   49.3230 N   0  0  0  0  0  0  0  0  0  0  0  0
   59.6460   33.5840   48.6680 C   0  0  0  0  0  0  0  0  0  0  0  0
   58.9910   33.8480   47.3400 C   0  0  0  0  0  0  0  0  0  0  0  0
   57.6660   33.4420   47.1070 C   0  0  0  0  0  0  0  0  0  0  0  0
   57.0860   33.6180   45.8470 C   0  0  0  0  0  0  0  0  0  0  0  0
   57.8260   34.1930   44.8090 C   0  0  0  0  0  0  0  0  0  0  0  0
   59.1480   34.5870   45.0290 C   0  0  0  0  0  0  0  0  0  0  0  0
   59.7320   34.4130   46.2880 C   0  0  0  0  0  0  0  0  0  0  0  0
   60.6380   30.2570   47.0500 C   0  0  0  0  0  0  0  0  0  0  0  0
   60.5930   29.7230   45.7610 C   0  0  0  0  0  0  0  0  0  0  0  0
   59.3650   29.5070   45.1370 C   0  0  0  0  0  0  0  0  0  0  0  0
   55.7680   26.1700   46.0070 C   0  0  0  0  0  0  0  0  0  0  0  0
   54.3870   26.3350   45.9880 O   0  0  0  0  0  0  0  0  0  0  0  0
   56.3160   24.9350   46.3600 C   0  0  0  0  0  0  0  0  0  0  0  0
   57.7020   24.7690   46.3850 C   0  0  0  0  0  0  0  0  0  0  0  0
  1  2  1  0
  2  3  1  0
  3  4  2  0
  4  5  1  0
  5  6  2  0
  5  7  1  0
  7  8  2  0
  8  9  1  0
  9 10  1  0
 10 11  2  0
 10 12  1  0
 12 13  1  0
 13 14  1  0
 14 15  2  0
 15 16  1  0
 16 17  2  0
 17 18  1  0
 18 19  2  0
  9 20  2  0
 20 21  1  0
 21 22  2  0
  3 23  1  0
 23 24  1  0
 23 25  2  0
 25 26  1  0
 26  1  2  0
 22  7  1  0
 19 14  1  0
M  CHG  3   2  -1  12  -1  24  -1
M  END
>  <UniqueID>  (1081) 
9

>  <SMILES>  (1081) 
O=C(/N=c1\[n-]cccc1[O-])c1cccc(C(=O)[N-]Cc2ccccc2)n1

>  <Energy>  (1081) 
52.30766114735908

>  <Genealogy>  (1081) 
O=C(N=c1[n-]cccc1[O-])c1cccc(C(=O)[N-]Cc2ccccc2)n1 (protonated)
O=C(/N=c1\[n-]cccc1[O-])c1cccc(C(=O)[N-]Cc2ccccc2)n1 (cis-trans isomerization)
O=C(/N=c1\[n-]cccc1[O-])c1cccc(C(=O)[N-]Cc2ccccc2)n1 (3D coordinates assigned)
O=C(/N=c1\[n-]cccc1[O-])c1cccc(C(=O)[N-]Cc2ccccc2)n1 (optimized conformer: 52.30766114735908 kcal/mol)

>  <smiles>  (1081) 
O=C(N=c1[nH]cccc1O)c1cccc(C(=O)NCc2ccccc2)n1

>  <score_type>  (1081) 
oracle

>  <origin>  (1081) 
adg

>  <m_score__min__energy>  (1081) 
-15.56

>  <m_primary>  (1081) 
energy

$$$$
13:0
     RDKit          3D

 40 44  0  0  0  0  0  0  0  0999 V2000
   58.0150   25.5030   47.4750 C   0  0  0  0  0  0  0  0  0  0  0  0
   58.0630   26.3590   46.4410 C   0  0  0  0  0  0  0  0  0  0  0  0
   57.6840   26.1100   45.1100 C   0  0  0  0  0  0  0  0  0  0  0  0
   57.0370   25.0670   44.5520 C   0  0  0  0  0  0  0  0  0  0  0  0
   55.6920   24.5870   44.9290 C   0  0  0  0  0  0  0  0  0  0  0  0
   54.7840   25.4170   45.6100 C   0  0  0  0  0  0  0  0  0  0  0  0
   55.1420   26.7080   45.9820 O   0  0  0  0  0  0  0  0  0  0  0  0
   53.5410   24.9580   45.9090 N   0  0  0  0  0  0  0  0  0  0  0  0
   53.1460   23.7120   45.5400 C   0  0  0  0  0  0  0  0  0  0  0  0
   51.9910   23.3080   45.8310 O   0  0  0  0  0  0  0  0  0  0  0  0
   53.9930   22.9070   44.8510 N   0  0  0  0  0  0  0  0  0  0  0  0
   55.2480   23.3170   44.5310 C   0  0  0  0  0  0  0  0  0  0  0  0
   56.0050   22.5450   43.8840 O   0  0  0  0  0  0  0  0  0  0  0  0
   58.1000   27.2090   44.3770 C   0  0  0  0  0  0  0  0  0  0  0  0
   58.6530   28.1010   45.2710 C   0  0  0  0  0  0  0  0  0  0  0  0
   59.2150   29.4420   44.9010 C   0  0  0  0  0  0  0  0  0  0  0  0
   58.6320   27.5890   46.5200 N   0  0  0  0  0  0  0  0  0  0  0  0
   59.1290   28.2410   47.7020 C   0  0  0  0  0  0  0  0  0  0  0  0
   60.2060   27.6890   48.4100 C   0  0  0  0  0  0  0  0  0  0  0  0
   60.6780   28.3090   49.5700 C   0  0  0  0  0  0  0  0  0  0  0  0
   60.0740   29.4860   50.0430 C   0  0  0  0  0  0  0  0  0  0  0  0
   60.5680   30.1430   51.2730 C   0  0  0  0  0  0  0  0  0  0  0  0
   59.8910   30.0570   52.3330 O   0  0  0  0  0  0  0  0  0  0  0  0
   61.8120   30.8670   51.2870 N   0  0  0  0  0  0  0  0  0  0  0  0
   61.8680   32.2080   51.8740 C   0  0  0  0  0  0  0  0  0  0  0  0
   63.1870   32.3970   52.6320 C   0  0  0  0  0  0  0  0  0  0  0  0
   64.3640   32.0410   51.8100 N   0  0  0  0  0  0  0  0  0  0  0  0
   64.6190   33.0230   50.7330 C   0  0  0  0  0  0  0  0  0  0  0  0
   63.7090   34.2130   50.8780 C   0  0  0  0  0  0  0  0  0  0  0  0
   62.8720   34.6460   49.9230 C   0  0  0  0  0  0  0  0  0  0  0  0
   62.1380   33.7700   48.9840 C   0  0  0  0  0  0  0  0  0  0  0  0
   60.7350   33.7880   48.9020 C   0  0  0  0  0  0  0  0  0  0  0  0
   60.0710   32.9570   47.9920 C   0  0  0  0  0  0  0  0  0  0  0  0
   60.8030   32.1170   47.1500 C   0  0  0  0  0  0  0  0  0  0  0  0
   62.1990   32.1140   47.2060 C   0  0  0  0  0  0  0  0  0  0  0  0
   62.8660   32.9440   48.1130 C   0  0  0  0  0  0  0  0  0  0  0  0
   64.2700   30.6470   51.3190 C   0  0  0  0  0  0  0  0  0  0  0  0
   62.9740   30.3710   50.5420 C   0  0  0  0  0  0  0  0  0  0  0  0
   59.0100   30.0490   49.3180 C   0  0  0  0  0  0  0  0  0  0  0  0
   58.5370   29.4260   48.1600 C   0  0  0  0  0  0  0  0  0  0  0  0
  1  2  2  0
  2  3  1  0
  3  4  2  3
  4  5  1  0
  5  6  2  0
  6  7  1  0
  6  8  1  0
  8  9  1  0
  9 10  2  0
  9 11  1  0
 11 12  1  0
 12 13  2  0
  3 14  1  0
 14 15  2  0
 15 16  1  0
 15 17  1  0
 17 18  1  0
 18 19  2  0
 19 20  1  0
 20 21  2  0
 21 22  1  0
 22 23  2  0
 22 24  1  0
 24 25  1  0
 25 26  1  0
 26 27  1  0
 27 28  1  0
 28 29  1  0
 29 30  2  3
 30 31  1  0
 31 32  2  0
 32 33  1  0
 33 34  2  0
 34 35  1  0
 35 36  2  0
 27 37  1  0
 37 38  1  0
 21 39  1  0
 39 40  2  0
 17  2  1  0
 40 18  1  0
 12  5  1  0
 38 24  1  0
 36 31  1  0
M  CHG  3   7  -1   8  -1  11  -1
M  END
>  <UniqueID>  (1082) 
13

>  <SMILES>  (1082) 
C=c1c(=Cc2c([O-])[n-]c(=O)[n-]c2=O)cc(C)n1-c1ccc(C(=O)N2CCN(CC=Cc3ccccc3)CC2)cc1

>  <Energy>  (1082) 
136.18156008166895

>  <Genealogy>  (1082) 
C=c1c(=Cc2c([O-])[n-]c(=O)[n-]c2=O)cc(C)n1-c1ccc(C(=O)N2CCN(CC=Cc3ccccc3)CC2)cc1 (protonated)
C=c1c(=Cc2c([O-])[n-]c(=O)[n-]c2=O)cc(C)n1-c1ccc(C(=O)N2CCN(CC=Cc3ccccc3)CC2)cc1 (3D coordinates assigned)
C=c1c(=Cc2c([O-])[n-]c(=O)[n-]c2=O)cc(C)n1-c1ccc(C(=O)N2CCN(CC=Cc3ccccc3)CC2)cc1 (nonaromatic ring conformer: 136.18156008166895 kcal/mol)

>  <smiles>  (1082) 
C=c1c(=Cc2c(O)[nH]c(=O)[nH]c2=O)cc(C)n1-c1ccc(C(=O)N2CCN(CC=Cc3ccccc3)CC2)cc1

>  <score_type>  (1082) 
oracle

>  <origin>  (1082) 
adg

>  <m_score__min__energy>  (1082) 
-16.969999999999999

>  <m_primary>  (1082) 
energy

$$$$
61:0
     RDKit          3D

 25 27  0  0  0  0  0  0  0  0999 V2000
   59.1410   27.9410   47.0490 C   0  0  0  0  0  0  0  0  0  0  0  0
   58.7410   28.5070   45.9000 C   0  0  0  0  0  0  0  0  0  0  0  0
   57.9490   27.9280   44.8950 C   0  0  0  0  0  0  0  0  0  0  0  0
   57.5460   26.6570   44.7070 C   0  0  0  0  0  0  0  0  0  0  0  0
   57.0390   25.7540   45.7530 C   0  0  0  0  0  0  0  0  0  0  0  0
   57.6890   24.6660   46.2090 N   0  0  0  0  0  0  0  0  0  0  0  0
   56.7890   24.0890   47.0340 C   0  0  0  0  0  0  0  0  0  0  0  0
   57.0370   23.0350   47.6770 O   0  0  0  0  0  0  0  0  0  0  0  0
   55.6000   24.7250   47.1110 N   0  0  0  0  0  0  0  0  0  0  0  0
   55.7720   25.7670   46.2820 C   0  0  0  0  0  0  0  0  0  0  0  0
   54.7860   26.7080   46.0090 O   0  0  0  0  0  0  0  0  0  0  0  0
   57.6240   28.9530   44.0190 C   0  0  0  0  0  0  0  0  0  0  0  0
   58.2640   30.0870   44.4740 C   0  0  0  0  0  0  0  0  0  0  0  0
   58.2110   31.4280   43.8090 C   0  0  0  0  0  0  0  0  0  0  0  0
   58.9530   29.8150   45.6030 N   0  0  0  0  0  0  0  0  0  0  0  0
   59.6850   30.7760   46.3810 C   0  0  0  0  0  0  0  0  0  0  0  0
   61.0360   30.5580   46.6730 C   0  0  0  0  0  0  0  0  0  0  0  0
   61.7510   31.4810   47.4390 C   0  0  0  0  0  0  0  0  0  0  0  0
   61.1250   32.6420   47.9300 C   0  0  0  0  0  0  0  0  0  0  0  0
   61.8990   33.6170   48.7460 C   0  0  0  0  0  0  0  0  0  0  0  0
   62.8840   34.2180   48.2360 O   0  0  0  0  0  0  0  0  0  0  0  0
   61.5460   33.9140   50.1730 C   0  0  0  0  0  0  0  0  0  0  0  0
   59.7640   32.8550   47.6310 C   0  0  0  0  0  0  0  0  0  0  0  0
   59.0500   31.9300   46.8630 C   0  0  0  0  0  0  0  0  0  0  0  0
   57.7100   32.1640   46.5750 O   0  0  0  0  0  0  0  0  0  0  0  0
  1  2  2  0
  2  3  1  0
  3  4  2  0
  4  5  1  0
  5  6  1  0
  6  7  1  0
  7  8  2  0
  7  9  1  0
  9 10  1  0
 10 11  1  0
  3 12  1  0
 12 13  2  0
 13 14  1  0
 13 15  1  0
 15 16  1  0
 16 17  2  0
 17 18  1  0
 18 19  2  0
 19 20  1  0
 20 21  2  0
 20 22  1  0
 19 23  1  0
 23 24  2  0
 24 25  1  0
 15  2  1  0
 24 16  1  0
 10  5  2  0
M  CHG  4   6  -1   9  -1  11  -1  25  -1
M  END
>  <UniqueID>  (1083) 
56

>  <SMILES>  (1083) 
C=c1/c(=C\c2[n-]c(=O)[n-]c2[O-])cc(C)n1-c1ccc(C(C)=O)cc1[O-]

>  <Energy>  (1083) 
116.23502199742927

>  <Genealogy>  (1083) 
C=c1c(=Cc2[n-]c(=O)[n-]c2[O-])cc(C)n1-c1ccc(C(C)=O)cc1[O-] (protonated)
C=c1/c(=C\c2[n-]c(=O)[n-]c2[O-])cc(C)n1-c1ccc(C(C)=O)cc1[O-] (cis-trans isomerization)
C=c1/c(=C\c2[n-]c(=O)[n-]c2[O-])cc(C)n1-c1ccc(C(C)=O)cc1[O-] (3D coordinates assigned)
C=c1/c(=C\c2[n-]c(=O)[n-]c2[O-])cc(C)n1-c1ccc(C(C)=O)cc1[O-] (optimized conformer: 116.23502199742927 kcal/mol)

>  <smiles>  (1083) 
C=c1c(=Cc2[nH]c(=O)[nH]c2O)cc(C)n1-c1ccc(C(C)=O)cc1O

>  <score_type>  (1083) 
oracle

>  <origin>  (1083) 
adg

>  <m_score__min__energy>  (1083) 
-16.420000000000002

>  <m_primary>  (1083) 
energy

$$$$
65:0
     RDKit          3D

 24 26  0  0  0  0  0  0  0  0999 V2000
   57.7730   28.2260   43.6690 C   0  0  0  0  0  0  0  0  0  0  0  0
   57.8440   27.8660   44.9600 C   0  0  0  0  0  0  0  0  0  0  0  0
   57.6630   26.5750   45.4720 C   0  0  0  0  0  0  0  0  0  0  0  0
   57.3080   25.4670   44.7910 C   0  0  0  0  0  0  0  0  0  0  0  0
   56.0510   24.7250   45.0350 C   0  0  0  0  0  0  0  0  0  0  0  0
   54.9530   25.3760   45.6180 C   0  0  0  0  0  0  0  0  0  0  0  0
   55.0430   26.7090   46.0040 O   0  0  0  0  0  0  0  0  0  0  0  0
   53.7920   24.7020   45.8190 N   0  0  0  0  0  0  0  0  0  0  0  0
   53.6640   23.4010   45.4520 C   0  0  0  0  0  0  0  0  0  0  0  0
   52.5800   22.7950   45.6530 O   0  0  0  0  0  0  0  0  0  0  0  0
   54.7020   22.7560   44.8620 N   0  0  0  0  0  0  0  0  0  0  0  0
   55.8830   23.3850   44.6360 C   0  0  0  0  0  0  0  0  0  0  0  0
   56.8120   22.7640   44.0540 O   0  0  0  0  0  0  0  0  0  0  0  0
   57.8860   26.6580   46.8410 C   0  0  0  0  0  0  0  0  0  0  0  0
   58.1890   27.9750   47.0990 C   0  0  0  0  0  0  0  0  0  0  0  0
   58.4620   28.4900   48.3600 O   0  0  0  0  0  0  0  0  0  0  0  0
   58.1630   28.7140   45.9710 N   0  0  0  0  0  0  0  0  0  0  0  0
   58.4010   30.1320   45.9030 C   0  0  0  0  0  0  0  0  0  0  0  0
   57.5460   30.9630   45.1620 C   0  0  0  0  0  0  0  0  0  0  0  0
   57.7710   32.3420   45.1140 C   0  0  0  0  0  0  0  0  0  0  0  0
   58.8470   32.9020   45.8110 C   0  0  0  0  0  0  0  0  0  0  0  0
   59.1280   34.6320   45.7500 Cl  0  0  0  0  0  0  0  0  0  0  0  0
   59.6960   32.0800   46.5600 C   0  0  0  0  0  0  0  0  0  0  0  0
   59.4720   30.7010   46.6110 C   0  0  0  0  0  0  0  0  0  0  0  0
  1  2  2  0
  2  3  1  0
  3  4  2  3
  4  5  1  0
  5  6  2  0
  6  7  1  0
  6  8  1  0
  8  9  1  0
  9 10  2  0
  9 11  1  0
 11 12  1  0
 12 13  2  0
  3 14  1  0
 14 15  2  0
 15 16  1  0
 15 17  1  0
 17 18  1  0
 18 19  2  0
 19 20  1  0
 20 21  2  0
 21 22  1  0
 21 23  1  0
 23 24  2  0
 17  2  1  0
 24 18  1  0
 12  5  1  0
M  CHG  4   7  -1   8  -1  11  -1  16  -1
M  END
>  <UniqueID>  (1084) 
60

>  <SMILES>  (1084) 
C=c1c(=Cc2c([O-])[n-]c(=O)[n-]c2=O)cc([O-])n1-c1ccc(Cl)cc1

>  <Energy>  (1084) 
81.87590116459403

>  <Genealogy>  (1084) 
C=c1c(=Cc2c([O-])[n-]c(=O)[n-]c2=O)cc([O-])n1-c1ccc(Cl)cc1 (protonated)
C=c1c(=Cc2c([O-])[n-]c(=O)[n-]c2=O)cc([O-])n1-c1ccc(Cl)cc1 (3D coordinates assigned)
C=c1c(=Cc2c([O-])[n-]c(=O)[n-]c2=O)cc([O-])n1-c1ccc(Cl)cc1 (optimized conformer: 81.87590116459403 kcal/mol)

>  <smiles>  (1084) 
C=c1c(=Cc2c(O)[nH]c(=O)[nH]c2=O)cc(O)n1-c1ccc(Cl)cc1

>  <score_type>  (1084) 
oracle

>  <origin>  (1084) 
adg

>  <m_score__min__energy>  (1084) 
-16.23

>  <m_primary>  (1084) 
energy

$$$$
66:0
     RDKit          3D

 30 33  0  0  0  0  0  0  0  0999 V2000
   59.7130   27.9230   46.5340 C   0  0  0  0  0  0  0  0  0  0  0  0
   58.8570   28.7410   45.8970 C   0  0  0  0  0  0  0  0  0  0  0  0
   57.8630   28.3800   44.9720 C   0  0  0  0  0  0  0  0  0  0  0  0
   57.3960   27.1730   44.5990 C   0  0  0  0  0  0  0  0  0  0  0  0
   57.0820   26.0600   45.5070 C   0  0  0  0  0  0  0  0  0  0  0  0
   58.1930   24.9410   46.1130 S   0  0  0  0  0  0  0  0  0  0  0  0
   57.0680   24.2750   47.1690 C   0  0  0  0  0  0  0  0  0  0  0  0
   57.3050   23.3110   47.9420 O   0  0  0  0  0  0  0  0  0  0  0  0
   55.8690   24.8940   47.1120 N   0  0  0  0  0  0  0  0  0  0  0  0
   55.8850   25.9010   46.2000 C   0  0  0  0  0  0  0  0  0  0  0  0
   54.7780   26.7150   45.9930 O   0  0  0  0  0  0  0  0  0  0  0  0
   57.3700   29.5660   44.4510 C   0  0  0  0  0  0  0  0  0  0  0  0
   58.0210   30.5930   45.1040 C   0  0  0  0  0  0  0  0  0  0  0  0
   57.8040   32.0530   44.8370 C   0  0  0  0  0  0  0  0  0  0  0  0
   58.9140   30.0950   45.9870 N   0  0  0  0  0  0  0  0  0  0  0  0
   59.8180   30.8780   46.7840 C   0  0  0  0  0  0  0  0  0  0  0  0
   61.2010   30.7100   46.6460 C   0  0  0  0  0  0  0  0  0  0  0  0
   62.0800   31.4710   47.4180 C   0  0  0  0  0  0  0  0  0  0  0  0
   61.5890   32.4090   48.3330 C   0  0  0  0  0  0  0  0  0  0  0  0
   62.7500   33.3780   49.2350 Cl  0  0  0  0  0  0  0  0  0  0  0  0
   60.1960   32.5850   48.4810 C   0  0  0  0  0  0  0  0  0  0  0  0
   59.6370   33.5540   49.4530 C   0  0  0  0  0  0  0  0  0  0  0  0
   59.7060   34.7850   49.1890 O   0  0  0  0  0  0  0  0  0  0  0  0
   59.0360   33.1240   50.6930 N   0  0  0  0  0  0  0  0  0  0  0  0
   58.5560   31.7470   50.8730 C   0  0  0  0  0  0  0  0  0  0  0  0
   57.3390   31.7380   51.8030 C   0  0  0  0  0  0  0  0  0  0  0  0
   57.6260   32.4250   53.0070 O   0  0  0  0  0  0  0  0  0  0  0  0
   57.8430   33.7960   52.7340 C   0  0  0  0  0  0  0  0  0  0  0  0
   59.1000   33.9870   51.8790 C   0  0  0  0  0  0  0  0  0  0  0  0
   59.3200   31.8020   47.7110 C   0  0  0  0  0  0  0  0  0  0  0  0
  1  2  2  0
  2  3  1  0
  3  4  2  3
  4  5  1  0
  5  6  1  0
  6  7  1  0
  7  8  2  0
  7  9  1  0
  9 10  1  0
 10 11  1  0
  3 12  1  0
 12 13  2  0
 13 14  1  0
 13 15  1  0
 15 16  1  0
 16 17  2  0
 17 18  1  0
 18 19  2  0
 19 20  1  0
 19 21  1  0
 21 22  1  0
 22 23  2  0
 22 24  1  0
 24 25  1  0
 25 26  1  0
 26 27  1  0
 27 28  1  0
 28 29  1  0
 21 30  2  0
 15  2  1  0
 30 16  1  0
 10  5  2  0
 29 24  1  0
M  CHG  2   9  -1  11  -1
M  END
>  <UniqueID>  (1085) 
61

>  <SMILES>  (1085) 
C=c1c(=Cc2sc(=O)[n-]c2[O-])cc(C)n1-c1ccc(Cl)c(C(=O)N2CCOCC2)c1

>  <Energy>  (1085) 
136.64370235385215

>  <Genealogy>  (1085) 
C=c1c(=Cc2sc(=O)[n-]c2[O-])cc(C)n1-c1ccc(Cl)c(C(=O)N2CCOCC2)c1 (protonated)
C=c1c(=Cc2sc(=O)[n-]c2[O-])cc(C)n1-c1ccc(Cl)c(C(=O)N2CCOCC2)c1 (3D coordinates assigned)
C=c1c(=Cc2sc(=O)[n-]c2[O-])cc(C)n1-c1ccc(Cl)c(C(=O)N2CCOCC2)c1 (nonaromatic ring conformer: 136.64370235385215 kcal/mol)

>  <smiles>  (1085) 
C=c1c(=Cc2sc(=O)[nH]c2O)cc(C)n1-c1ccc(Cl)c(C(=O)N2CCOCC2)c1

>  <score_type>  (1085) 
oracle

>  <origin>  (1085) 
adg

>  <m_score__min__energy>  (1085) 
-15.27

>  <m_primary>  (1085) 
energy

$$$$
76:0
     RDKit          3D

 28 30  0  0  0  0  0  0  0  0999 V2000
   64.5680   32.8910   49.1680 C   0  0  0  0  0  0  0  0  0  0  0  0
   63.2690   33.3340   48.5640 C   0  0  0  0  0  0  0  0  0  0  0  0
   63.1200   33.3870   47.1690 C   0  0  0  0  0  0  0  0  0  0  0  0
   61.9240   33.8360   46.6040 C   0  0  0  0  0  0  0  0  0  0  0  0
   60.8590   34.2380   47.4260 C   0  0  0  0  0  0  0  0  0  0  0  0
   59.5860   34.7560   46.8180 C   0  0  0  0  0  0  0  0  0  0  0  0
   58.5030   33.8000   47.0580 N   0  0  0  0  0  0  0  0  0  0  0  0
   58.0110   33.0770   45.5560 S   0  0  0  0  0  0  0  0  0  0  0  0
   58.9570   33.4900   44.4620 O   0  0  0  0  0  0  0  0  0  0  0  0
   56.6340   33.5640   45.2010 O   0  0  0  0  0  0  0  0  0  0  0  0
   57.9810   31.3210   45.7020 C   0  0  0  0  0  0  0  0  0  0  0  0
   58.6420   30.6830   46.7590 C   0  0  0  0  0  0  0  0  0  0  0  0
   58.5960   29.2910   46.8800 C   0  0  0  0  0  0  0  0  0  0  0  0
   57.8910   28.5180   45.9410 C   0  0  0  0  0  0  0  0  0  0  0  0
   57.8280   27.0410   46.0680 C   0  0  0  0  0  0  0  0  0  0  0  0
   58.2710   26.4950   47.1140 O   0  0  0  0  0  0  0  0  0  0  0  0
   57.3340   26.2010   45.0130 N   0  0  0  0  0  0  0  0  0  0  0  0
   56.5110   25.2020   45.1510 C   0  0  0  0  0  0  0  0  0  0  0  0
   56.8770   23.9360   44.7970 N   0  0  0  0  0  0  0  0  0  0  0  0
   56.0300   22.8790   44.9190 C   0  0  0  0  0  0  0  0  0  0  0  0
   54.7380   23.0730   45.4110 C   0  0  0  0  0  0  0  0  0  0  0  0
   54.3310   24.3590   45.7710 C   0  0  0  0  0  0  0  0  0  0  0  0
   55.2170   25.4320   45.6410 C   0  0  0  0  0  0  0  0  0  0  0  0
   54.8090   26.7130   45.9980 O   0  0  0  0  0  0  0  0  0  0  0  0
   57.2100   29.1660   44.8970 C   0  0  0  0  0  0  0  0  0  0  0  0
   57.2580   30.5570   44.7770 C   0  0  0  0  0  0  0  0  0  0  0  0
   61.0200   34.2170   48.8200 C   0  0  0  0  0  0  0  0  0  0  0  0
   62.2170   33.7680   49.3860 C   0  0  0  0  0  0  0  0  0  0  0  0
  1  2  1  0
  2  3  2  0
  3  4  1  0
  4  5  2  0
  5  6  1  0
  6  7  1  0
  7  8  1  0
  8  9  2  0
  8 10  2  0
  8 11  1  0
 11 12  2  0
 12 13  1  0
 13 14  2  0
 14 15  1  0
 15 16  2  0
 15 17  1  0
 17 18  2  3
 18 19  1  0
 19 20  1  0
 20 21  2  0
 21 22  1  0
 22 23  2  0
 23 24  1  0
 14 25  1  0
 25 26  2  0
  5 27  1  0
 27 28  2  0
 28  2  1  0
 26 11  1  0
 23 18  1  0
M  CHG  2  19  -1  24  -1
M  END
>  <UniqueID>  (1086) 
70

>  <SMILES>  (1086) 
Cc1ccc(CNS(=O)(=O)c2ccc(C(=O)N=c3[n-]cccc3[O-])cc2)cc1

>  <Energy>  (1086) 
52.781222675734995

>  <Genealogy>  (1086) 
Cc1ccc(CNS(=O)(=O)c2ccc(C(=O)N=c3[n-]cccc3[O-])cc2)cc1 (protonated)
Cc1ccc(CNS(=O)(=O)c2ccc(C(=O)N=c3[n-]cccc3[O-])cc2)cc1 (3D coordinates assigned)
Cc1ccc(CNS(=O)(=O)c2ccc(C(=O)N=c3[n-]cccc3[O-])cc2)cc1 (optimized conformer: 52.781222675734995 kcal/mol)

>  <smiles>  (1086) 
Cc1ccc(CNS(=O)(=O)c2ccc(C(=O)N=c3[nH]cccc3O)cc2)cc1

>  <score_type>  (1086) 
oracle

>  <origin>  (1086) 
adg

>  <m_score__min__energy>  (1086) 
-14.890000000000001

>  <m_primary>  (1086) 
energy

$$$$
84:0
     RDKit          3D

 24 26  0  0  0  0  0  0  0  0999 V2000
   58.1500   32.2530   51.0120 C   0  0  0  0  0  0  0  0  0  0  0  0
   58.2760   32.3790   52.5080 C   0  0  0  0  0  0  0  0  0  0  0  0
   58.6460   33.6200   53.0560 C   0  0  0  0  0  0  0  0  0  0  0  0
   58.7630   33.7790   54.4370 C   0  0  0  0  0  0  0  0  0  0  0  0
   58.5090   32.7060   55.2890 C   0  0  0  0  0  0  0  0  0  0  0  0
   58.1300   31.4700   54.7630 C   0  0  0  0  0  0  0  0  0  0  0  0
   58.0000   31.2910   53.3750 C   0  0  0  0  0  0  0  0  0  0  0  0
   57.5110   29.7040   52.7560 S   0  0  0  0  0  0  0  0  0  0  0  0
   57.2890   29.7940   51.2720 O   0  0  0  0  0  0  0  0  0  0  0  0
   58.5950   28.7110   53.0670 O   0  0  0  0  0  0  0  0  0  0  0  0
   56.0350   29.2030   53.5190 N   0  0  0  0  0  0  0  0  0  0  0  0
   54.7620   29.8710   53.5100 C   0  0  0  0  0  0  0  0  0  0  0  0
   54.3100   30.3660   52.2800 C   0  0  0  0  0  0  0  0  0  0  0  0
   53.0850   31.0390   52.1790 C   0  0  0  0  0  0  0  0  0  0  0  0
   52.6450   31.5370   50.9460 C   0  0  0  0  0  0  0  0  0  0  0  0
   51.4220   32.2060   50.8720 C   0  0  0  0  0  0  0  0  0  0  0  0
   50.9740   32.7050   49.6570 O   0  0  0  0  0  0  0  0  0  0  0  0
   50.6650   32.3680   51.9890 N   0  0  0  0  0  0  0  0  0  0  0  0
   51.0580   31.8990   53.2030 C   0  0  0  0  0  0  0  0  0  0  0  0
   50.3130   32.0810   54.2030 O   0  0  0  0  0  0  0  0  0  0  0  0
   52.2850   31.2170   53.3290 C   0  0  0  0  0  0  0  0  0  0  0  0
   52.7290   30.7100   54.5620 C   0  0  0  0  0  0  0  0  0  0  0  0
   53.9550   30.0330   54.6590 C   0  0  0  0  0  0  0  0  0  0  0  0
   54.3430   29.5180   55.8940 O   0  0  0  0  0  0  0  0  0  0  0  0
  1  2  1  0
  2  3  2  0
  3  4  1  0
  4  5  2  0
  5  6  1  0
  6  7  2  0
  7  8  1  0
  8  9  2  0
  8 10  2  0
  8 11  1  0
 11 12  1  0
 12 13  2  0
 13 14  1  0
 14 15  1  0
 15 16  2  0
 16 17  1  0
 16 18  1  0
 18 19  1  0
 19 20  2  0
 19 21  1  0
 21 22  1  0
 22 23  2  0
 23 24  1  0
  7  2  1  0
 23 12  1  0
 21 14  2  0
M  CHG  3  11  -1  17  -1  18  -1
M  END
>  <UniqueID>  (1087) 
77

>  <SMILES>  (1087) 
Cc1ccccc1S(=O)(=O)[N-]c1cc2cc([O-])[n-]c(=O)c2cc1O

>  <Energy>  (1087) 
51.84928402778185

>  <Genealogy>  (1087) 
Cc1ccccc1S(=O)(=O)[N-]c1cc2cc([O-])[n-]c(=O)c2cc1O (protonated)
Cc1ccccc1S(=O)(=O)[N-]c1cc2cc([O-])[n-]c(=O)c2cc1O (3D coordinates assigned)
Cc1ccccc1S(=O)(=O)[N-]c1cc2cc([O-])[n-]c(=O)c2cc1O (optimized conformer: 51.84928402778185 kcal/mol)

>  <smiles>  (1087) 
Cc1ccccc1S(=O)(=O)Nc1cc2cc(O)[nH]c(=O)c2cc1O

>  <score_type>  (1087) 
oracle

>  <origin>  (1087) 
adg

>  <m_score__min__energy>  (1087) 
-14.32

>  <m_primary>  (1087) 
energy

$$$$
0:0
     RDKit          3D

 29 31  0  0  0  0  0  0  0  0999 V2000
   53.6340   30.8770   53.6800 O   0  0  0  0  0  0  0  0  0  0  0  0
   53.5260   30.6280   52.4510 C   0  0  0  0  0  0  0  0  0  0  0  0
   54.7720   30.6290   51.6140 C   0  0  0  0  0  0  0  0  0  0  0  0
   55.9400   30.7410   52.4810 N   0  0  0  0  0  0  0  0  0  0  0  0
   57.0820   31.5610   52.2070 C   0  0  0  0  0  0  0  0  0  0  0  0
   57.1010   32.7420   52.6470 O   0  0  0  0  0  0  0  0  0  0  0  0
   58.2430   31.0610   51.4480 C   0  0  0  0  0  0  0  0  0  0  0  0
   59.4190   30.6740   52.1080 C   0  0  0  0  0  0  0  0  0  0  0  0
   60.5090   30.1920   51.3810 C   0  0  0  0  0  0  0  0  0  0  0  0
   60.4300   30.0790   49.9910 C   0  0  0  0  0  0  0  0  0  0  0  0
   59.2530   30.4410   49.3200 C   0  0  0  0  0  0  0  0  0  0  0  0
   59.1570   30.3010   47.5630 S   0  0  0  0  0  0  0  0  0  0  0  0
   60.5430   30.1310   47.0060 O   0  0  0  0  0  0  0  0  0  0  0  0
   58.3580   29.0790   47.2040 O   0  0  0  0  0  0  0  0  0  0  0  0
   58.4160   31.7110   46.8470 N   0  0  0  0  0  0  0  0  0  0  0  0
   59.0450   32.9410   47.3710 C   0  0  0  0  0  0  0  0  0  0  0  0
   58.6290   34.2000   46.5750 C   0  0  0  0  0  0  0  0  0  0  0  0
   57.4030   33.9370   45.6960 C   0  0  0  0  0  0  0  0  0  0  0  0
   57.6500   32.7560   44.7410 C   0  0  0  0  0  0  0  0  0  0  0  0
   58.5150   31.6530   45.3800 C   0  0  0  0  0  0  0  0  0  0  0  0
   58.1590   30.9210   50.0530 C   0  0  0  0  0  0  0  0  0  0  0  0
   52.2110   30.3630   51.9240 N   0  0  0  0  0  0  0  0  0  0  0  0
   51.7590   30.5110   50.7090 C   0  0  0  0  0  0  0  0  0  0  0  0
   51.8740   29.5220   49.7790 N   0  0  0  0  0  0  0  0  0  0  0  0
   51.4150   29.6650   48.5080 C   0  0  0  0  0  0  0  0  0  0  0  0
   50.8040   30.8580   48.1170 C   0  0  0  0  0  0  0  0  0  0  0  0
   50.6730   31.8910   49.0440 C   0  0  0  0  0  0  0  0  0  0  0  0
   51.1530   31.7240   50.3470 C   0  0  0  0  0  0  0  0  0  0  0  0
   51.0240   32.7580   51.2690 O   0  0  0  0  0  0  0  0  0  0  0  0
  1  2  2  0
  2  3  1  0
  3  4  1  0
  4  5  1  0
  5  6  2  0
  5  7  1  0
  7  8  2  0
  8  9  1  0
  9 10  2  0
 10 11  1  0
 11 12  1  0
 12 13  2  0
 12 14  2  0
 12 15  1  0
 15 16  1  0
 16 17  1  0
 17 18  1  0
 18 19  1  0
 19 20  1  0
 11 21  2  0
  2 22  1  0
 22 23  2  3
 23 24  1  0
 24 25  1  0
 25 26  2  0
 26 27  1  0
 27 28  2  0
 28 29  1  0
 21  7  1  0
 28 23  1  0
 20 15  1  0
M  CHG  3   4  -1  24  -1  29  -1
M  END
>  <UniqueID>  (1088) 
1

>  <SMILES>  (1088) 
O=C(C[N-]C(=O)c1cccc(S(=O)(=O)N2CCCCC2)c1)N=c1[n-]cccc1[O-]

>  <Energy>  (1088) 
59.71011545679245

>  <Genealogy>  (1088) 
O=C(C[N-]C(=O)c1cccc(S(=O)(=O)N2CCCCC2)c1)N=c1[n-]cccc1[O-] (protonated)
O=C(C[N-]C(=O)c1cccc(S(=O)(=O)N2CCCCC2)c1)N=c1[n-]cccc1[O-] (3D coordinates assigned)
O=C(C[N-]C(=O)c1cccc(S(=O)(=O)N2CCCCC2)c1)N=c1[n-]cccc1[O-] (nonaromatic ring conformer: 59.71011545679245 kcal/mol)

>  <smiles>  (1088) 
O=C(CNC(=O)c1cccc(S(=O)(=O)N2CCCCC2)c1)N=c1[nH]cccc1O

>  <score_type>  (1088) 
oracle

>  <origin>  (1088) 
adg

>  <m_score__min__energy>  (1088) 
-16.050000000000001

>  <m_primary>  (1088) 
energy

$$$$
3:0
     RDKit          3D

 32 35  0  0  0  0  0  0  0  0999 V2000
   59.0530   30.3550   46.9320 C   0  0  0  0  0  0  0  0  0  0  0  0
   58.8770   31.3830   46.0860 C   0  0  0  0  0  0  0  0  0  0  0  0
   58.0770   31.4170   44.9300 C   0  0  0  0  0  0  0  0  0  0  0  0
   57.4060   30.4410   44.2880 C   0  0  0  0  0  0  0  0  0  0  0  0
   57.2510   29.0480   44.7530 C   0  0  0  0  0  0  0  0  0  0  0  0
   56.0030   28.5520   45.1680 C   0  0  0  0  0  0  0  0  0  0  0  0
   54.8660   29.3510   45.1100 O   0  0  0  0  0  0  0  0  0  0  0  0
   55.8990   27.2800   45.6320 N   0  0  0  0  0  0  0  0  0  0  0  0
   56.9920   26.4770   45.7240 C   0  0  0  0  0  0  0  0  0  0  0  0
   56.8350   24.9480   46.2680 S   0  0  0  0  0  0  0  0  0  0  0  0
   58.2110   26.9390   45.3470 N   0  0  0  0  0  0  0  0  0  0  0  0
   58.3670   28.2070   44.8810 C   0  0  0  0  0  0  0  0  0  0  0  0
   59.5150   28.6120   44.5610 O   0  0  0  0  0  0  0  0  0  0  0  0
   58.0920   32.7320   44.4890 C   0  0  0  0  0  0  0  0  0  0  0  0
   58.9300   33.4290   45.3320 C   0  0  0  0  0  0  0  0  0  0  0  0
   59.2330   34.8920   45.2230 C   0  0  0  0  0  0  0  0  0  0  0  0
   59.3990   32.6160   46.3000 N   0  0  0  0  0  0  0  0  0  0  0  0
   60.2880   33.0050   47.3580 C   0  0  0  0  0  0  0  0  0  0  0  0
   59.7720   33.2600   48.6400 C   0  0  0  0  0  0  0  0  0  0  0  0
   60.6380   33.6000   49.6840 C   0  0  0  0  0  0  0  0  0  0  0  0
   62.0220   33.7120   49.4460 C   0  0  0  0  0  0  0  0  0  0  0  0
   62.9350   34.0480   50.5480 C   0  0  0  0  0  0  0  0  0  0  0  0
   63.3300   35.2400   50.6590 O   0  0  0  0  0  0  0  0  0  0  0  0
   63.4500   33.0070   51.4230 N   0  0  0  0  0  0  0  0  0  0  0  0
   64.3390   33.5610   52.4710 C   0  0  0  0  0  0  0  0  0  0  0  0
   65.7270   33.9830   51.9360 C   0  0  0  0  0  0  0  0  0  0  0  0
   66.0470   33.3690   50.6320 N   0  0  0  0  0  0  0  0  0  0  0  0
   67.4900   33.4630   50.3680 C   0  0  0  0  0  0  0  0  0  0  0  0
   65.6130   31.9650   50.6160 C   0  0  0  0  0  0  0  0  0  0  0  0
   64.0740   31.9020   50.6430 C   0  0  0  0  0  0  0  0  0  0  0  0
   62.5340   33.4820   48.1550 C   0  0  0  0  0  0  0  0  0  0  0  0
   61.6700   33.1100   47.1190 C   0  0  0  0  0  0  0  0  0  0  0  0
  1  2  2  0
  2  3  1  0
  3  4  2  3
  4  5  1  0
  5  6  2  0
  6  7  1  0
  6  8  1  0
  8  9  1  0
  9 10  2  0
  9 11  1  0
 11 12  1  0
 12 13  2  0
  3 14  1  0
 14 15  2  0
 15 16  1  0
 15 17  1  0
 17 18  1  0
 18 19  2  0
 19 20  1  0
 20 21  2  0
 21 22  1  0
 22 23  2  0
 22 24  1  0
 24 25  1  0
 25 26  1  0
 26 27  1  0
 27 28  1  0
 27 29  1  0
 29 30  1  0
 21 31  1  0
 31 32  2  0
 17  2  1  0
 32 18  1  0
 12  5  1  0
 30 24  1  0
M  CHG  4   7  -1   8  -1  11  -1  24   1
M  END
>  <UniqueID>  (1089) 
3

>  <SMILES>  (1089) 
C=c1c(=Cc2c([O-])[n-]c(=S)[n-]c2=O)cc(C)n1-c1ccc(C(=O)[NH+]2CCN(C)CC2)cc1

>  <Energy>  (1089) 
126.48208331216621

>  <Genealogy>  (1089) 
C=c1c(=Cc2c([O-])[n-]c(=S)[n-]c2=O)cc(C)n1-c1ccc(C(=O)[NH+]2CCN(C)CC2)cc1 (protonated)
C=c1c(=Cc2c([O-])[n-]c(=S)[n-]c2=O)cc(C)n1-c1ccc(C(=O)[NH+]2CCN(C)CC2)cc1 (3D coordinates assigned)
C=c1c(=Cc2c([O-])[n-]c(=S)[n-]c2=O)cc(C)n1-c1ccc(C(=O)[NH+]2CCN(C)CC2)cc1 (nonaromatic ring conformer: 126.48208331216621 kcal/mol)

>  <smiles>  (1089) 
C=c1c(=Cc2c(O)[nH]c(=S)[nH]c2=O)cc(C)n1-c1ccc(C(=O)N2CCN(C)CC2)cc1

>  <score_type>  (1089) 
oracle

>  <origin>  (1089) 
adg

>  <m_score__min__energy>  (1089) 
-14.56

>  <m_primary>  (1089) 
energy

$$$$
14:0
     RDKit          3D

 34 38  0  0  0  0  0  0  0  0999 V2000
   58.4700   29.5920   47.5960 C   0  0  0  0  0  0  0  0  0  0  0  0
   57.9770   29.3710   46.3680 C   0  0  0  0  0  0  0  0  0  0  0  0
   57.6290   28.1290   45.8250 C   0  0  0  0  0  0  0  0  0  0  0  0
   57.7100   26.9230   46.4200 C   0  0  0  0  0  0  0  0  0  0  0  0
   57.0670   25.7040   45.8800 C   0  0  0  0  0  0  0  0  0  0  0  0
   55.6770   25.6250   45.6890 C   0  0  0  0  0  0  0  0  0  0  0  0
   54.8570   26.7040   46.0040 O   0  0  0  0  0  0  0  0  0  0  0  0
   55.1250   24.4940   45.1730 N   0  0  0  0  0  0  0  0  0  0  0  0
   55.9020   23.4390   44.8130 C   0  0  0  0  0  0  0  0  0  0  0  0
   55.3760   22.4000   44.3340 O   0  0  0  0  0  0  0  0  0  0  0  0
   57.2490   23.5050   44.9620 N   0  0  0  0  0  0  0  0  0  0  0  0
   57.8470   24.6080   45.4770 C   0  0  0  0  0  0  0  0  0  0  0  0
   59.1020   24.6340   45.5980 O   0  0  0  0  0  0  0  0  0  0  0  0
   57.1290   28.3840   44.5550 C   0  0  0  0  0  0  0  0  0  0  0  0
   57.2080   29.7500   44.3670 C   0  0  0  0  0  0  0  0  0  0  0  0
   56.7530   30.4650   43.1300 C   0  0  0  0  0  0  0  0  0  0  0  0
   57.7160   30.3500   45.4670 N   0  0  0  0  0  0  0  0  0  0  0  0
   57.9380   31.7630   45.6240 C   0  0  0  0  0  0  0  0  0  0  0  0
   57.1840   32.6820   44.8800 C   0  0  0  0  0  0  0  0  0  0  0  0
   57.3950   34.0530   45.0400 C   0  0  0  0  0  0  0  0  0  0  0  0
   58.3510   34.5160   45.9460 C   0  0  0  0  0  0  0  0  0  0  0  0
   59.1020   33.6090   46.7120 C   0  0  0  0  0  0  0  0  0  0  0  0
   60.1220   34.0920   47.6680 C   0  0  0  0  0  0  0  0  0  0  0  0
   59.8080   34.9700   48.5170 O   0  0  0  0  0  0  0  0  0  0  0  0
   61.4720   33.6000   47.6220 N   0  0  0  0  0  0  0  0  0  0  0  0
   62.3150   33.6620   46.4230 C   0  0  0  0  0  0  0  0  0  0  0  0
   63.7730   33.4620   46.9060 C   0  0  0  0  0  0  0  0  0  0  0  0
   63.6290   33.3090   48.3790 C   0  0  0  0  0  0  0  0  0  0  0  0
   64.6340   33.0900   49.3210 C   0  0  0  0  0  0  0  0  0  0  0  0
   64.2690   32.9530   50.6710 C   0  0  0  0  0  0  0  0  0  0  0  0
   62.9150   33.0310   51.0490 C   0  0  0  0  0  0  0  0  0  0  0  0
   61.9210   33.2500   50.0810 C   0  0  0  0  0  0  0  0  0  0  0  0
   62.3140   33.4000   48.7460 C   0  0  0  0  0  0  0  0  0  0  0  0
   58.8990   32.2290   46.5340 C   0  0  0  0  0  0  0  0  0  0  0  0
  1  2  2  0
  2  3  1  0
  3  4  2  3
  4  5  1  0
  5  6  2  0
  6  7  1  0
  6  8  1  0
  8  9  1  0
  9 10  2  0
  9 11  1  0
 11 12  1  0
 12 13  2  0
  3 14  1  0
 14 15  2  0
 15 16  1  0
 15 17  1  0
 17 18  1  0
 18 19  2  0
 19 20  1  0
 20 21  2  0
 21 22  1  0
 22 23  1  0
 23 24  2  0
 23 25  1  0
 25 26  1  0
 26 27  1  0
 27 28  1  0
 28 29  2  0
 29 30  1  0
 30 31  2  0
 31 32  1  0
 32 33  2  0
 22 34  2  0
 17  2  1  0
 34 18  1  0
 12  5  1  0
 33 25  1  0
 33 28  1  0
M  CHG  2   7  -1  11  -1
M  END
>  <UniqueID>  (1090) 
13

>  <SMILES>  (1090) 
C=c1c(=Cc2c([O-])[nH]c(=O)[n-]c2=O)cc(C)n1-c1cccc(C(=O)N2CCc3ccccc32)c1

>  <Energy>  (1090) 
124.93829330899624

>  <Genealogy>  (1090) 
C=c1c(=Cc2c([O-])[nH]c(=O)[n-]c2=O)cc(C)n1-c1cccc(C(=O)N2CCc3ccccc32)c1 (protonated)
C=c1c(=Cc2c([O-])[nH]c(=O)[n-]c2=O)cc(C)n1-c1cccc(C(=O)N2CCc3ccccc32)c1 (3D coordinates assigned)
C=c1c(=Cc2c([O-])[nH]c(=O)[n-]c2=O)cc(C)n1-c1cccc(C(=O)N2CCc3ccccc32)c1 (nonaromatic ring conformer: 124.93829330899624 kcal/mol)

>  <smiles>  (1090) 
C=c1c(=Cc2c(O)[nH]c(=O)[nH]c2=O)cc(C)n1-c1cccc(C(=O)N2CCc3ccccc32)c1

>  <score_type>  (1090) 
oracle

>  <origin>  (1090) 
adg

>  <m_score__min__energy>  (1090) 
-16.239999999999998

>  <m_primary>  (1090) 
energy

$$$$
17:0
     RDKit          3D

 24 25  0  0  0  0  0  0  0  0999 V2000
   55.4080   30.2830   44.4090 O   0  0  0  0  0  0  0  0  0  0  0  0
   56.6170   29.9910   44.6130 C   0  0  0  0  0  0  0  0  0  0  0  0
   57.6250   31.0540   44.8240 C   0  0  0  0  0  0  0  0  0  0  0  0
   57.3580   32.3010   45.2430 C   0  0  0  0  0  0  0  0  0  0  0  0
   58.2030   33.0820   46.1680 C   0  0  0  0  0  0  0  0  0  0  0  0
   58.3560   32.6360   47.4890 C   0  0  0  0  0  0  0  0  0  0  0  0
   59.1330   33.3660   48.3960 C   0  0  0  0  0  0  0  0  0  0  0  0
   59.3520   32.7380   50.1860 Br  0  0  0  0  0  0  0  0  0  0  0  0
   59.7440   34.5560   47.9920 C   0  0  0  0  0  0  0  0  0  0  0  0
   59.5730   35.0240   46.6870 C   0  0  0  0  0  0  0  0  0  0  0  0
   58.7950   34.3010   45.7770 C   0  0  0  0  0  0  0  0  0  0  0  0
   58.6050   34.8060   44.4940 O   0  0  0  0  0  0  0  0  0  0  0  0
   57.0380   28.5500   44.5670 C   0  0  0  0  0  0  0  0  0  0  0  0
   57.3820   28.0490   45.9440 C   0  0  0  0  0  0  0  0  0  0  0  0
   57.7690   28.8840   46.8070 O   0  0  0  0  0  0  0  0  0  0  0  0
   57.2470   26.6170   46.3270 C   0  0  0  0  0  0  0  0  0  0  0  0
   55.9790   26.0050   46.3520 C   0  0  0  0  0  0  0  0  0  0  0  0
   54.8370   26.7150   46.0020 O   0  0  0  0  0  0  0  0  0  0  0  0
   55.8590   24.7000   46.7060 N   0  0  0  0  0  0  0  0  0  0  0  0
   56.9440   23.9610   47.0430 C   0  0  0  0  0  0  0  0  0  0  0  0
   56.8060   22.7520   47.3640 O   0  0  0  0  0  0  0  0  0  0  0  0
   58.1770   24.5240   47.0370 N   0  0  0  0  0  0  0  0  0  0  0  0
   58.3560   25.8260   46.6940 C   0  0  0  0  0  0  0  0  0  0  0  0
   59.5170   26.3100   46.7330 O   0  0  0  0  0  0  0  0  0  0  0  0
  1  2  2  0
  2  3  1  0
  3  4  2  3
  4  5  1  0
  5  6  2  0
  6  7  1  0
  7  8  1  0
  7  9  2  0
  9 10  1  0
 10 11  2  0
 11 12  1  0
  2 13  1  0
 13 14  1  0
 14 15  2  0
 14 16  1  0
 16 17  2  0
 17 18  1  0
 17 19  1  0
 19 20  1  0
 20 21  2  0
 20 22  1  0
 22 23  1  0
 23 24  2  0
 11  5  1  0
 23 16  1  0
M  CHG  4  12  -1  18  -1  19  -1  22  -1
M  END
>  <UniqueID>  (1091) 
16

>  <SMILES>  (1091) 
O=C(C=Cc1cc(Br)ccc1[O-])CC(=O)c1c([O-])[n-]c(=O)[n-]c1=O

>  <Energy>  (1091) 
45.956445319169084

>  <Genealogy>  (1091) 
O=C(C=Cc1cc(Br)ccc1[O-])CC(=O)c1c([O-])[n-]c(=O)[n-]c1=O (protonated)
O=C(C=Cc1cc(Br)ccc1[O-])CC(=O)c1c([O-])[n-]c(=O)[n-]c1=O (3D coordinates assigned)
O=C(C=Cc1cc(Br)ccc1[O-])CC(=O)c1c([O-])[n-]c(=O)[n-]c1=O (optimized conformer: 45.956445319169084 kcal/mol)

>  <smiles>  (1091) 
O=C(C=Cc1cc(Br)ccc1O)CC(=O)c1c(O)[nH]c(=O)[nH]c1=O

>  <score_type>  (1091) 
oracle

>  <origin>  (1091) 
adg

>  <m_score__min__energy>  (1091) 
-17.260000000000002

>  <m_primary>  (1091) 
energy

$$$$
35:0
     RDKit          3D

 28 31  0  0  0  0  0  0  0  0999 V2000
   54.1740   28.5840   54.0170 C   0  0  0  0  0  0  0  0  0  0  0  0
   54.5330   29.5820   53.1940 C   0  0  0  0  0  0  0  0  0  0  0  0
   53.6770   30.4620   52.5130 C   0  0  0  0  0  0  0  0  0  0  0  0
   52.3440   30.4270   52.3180 C   0  0  0  0  0  0  0  0  0  0  0  0
   51.6500   30.7980   51.0740 C   0  0  0  0  0  0  0  0  0  0  0  0
   51.6070   30.0360   49.9640 N   0  0  0  0  0  0  0  0  0  0  0  0
   51.0350   30.8490   49.0490 C   0  0  0  0  0  0  0  0  0  0  0  0
   50.8050   30.4860   47.8650 O   0  0  0  0  0  0  0  0  0  0  0  0
   50.7300   32.0850   49.5010 N   0  0  0  0  0  0  0  0  0  0  0  0
   51.1390   32.0370   50.7810 C   0  0  0  0  0  0  0  0  0  0  0  0
   51.0230   33.1000   51.6730 O   0  0  0  0  0  0  0  0  0  0  0  0
   54.4810   31.4650   51.9970 C   0  0  0  0  0  0  0  0  0  0  0  0
   55.7830   31.1300   52.3030 C   0  0  0  0  0  0  0  0  0  0  0  0
   56.9800   31.9240   51.8740 C   0  0  0  0  0  0  0  0  0  0  0  0
   55.8190   29.9940   53.0370 N   0  0  0  0  0  0  0  0  0  0  0  0
   57.0070   29.3590   53.5460 C   0  0  0  0  0  0  0  0  0  0  0  0
   57.2320   27.9960   53.3090 C   0  0  0  0  0  0  0  0  0  0  0  0
   58.3930   27.3770   53.7780 C   0  0  0  0  0  0  0  0  0  0  0  0
   59.3570   28.1170   54.4900 C   0  0  0  0  0  0  0  0  0  0  0  0
   60.5970   27.4810   55.0140 C   0  0  0  0  0  0  0  0  0  0  0  0
   60.5280   26.8370   56.1020 O   0  0  0  0  0  0  0  0  0  0  0  0
   61.8350   27.5030   54.2480 N   0  0  0  0  0  0  0  0  0  0  0  0
   62.3370   26.1600   53.9140 C   0  0  0  0  0  0  0  0  0  0  0  0
   61.6940   25.7530   52.5950 C   0  0  0  0  0  0  0  0  0  0  0  0
   61.2880   27.0620   51.9330 C   0  0  0  0  0  0  0  0  0  0  0  0
   61.6210   28.1550   52.9440 C   0  0  0  0  0  0  0  0  0  0  0  0
   59.1320   29.4870   54.7120 C   0  0  0  0  0  0  0  0  0  0  0  0
   57.9640   30.1020   54.2500 C   0  0  0  0  0  0  0  0  0  0  0  0
  1  2  2  0
  2  3  1  0
  3  4  2  3
  4  5  1  0
  5  6  1  0
  6  7  1  0
  7  8  2  0
  7  9  1  0
  9 10  1  0
 10 11  1  0
  3 12  1  0
 12 13  2  0
 13 14  1  0
 13 15  1  0
 15 16  1  0
 16 17  2  0
 17 18  1  0
 18 19  2  0
 19 20  1  0
 20 21  2  0
 20 22  1  0
 22 23  1  0
 23 24  1  0
 24 25  1  0
 25 26  1  0
 19 27  1  0
 27 28  2  0
 15  2  1  0
 28 16  1  0
 10  5  2  0
 26 22  1  0
M  CHG  4   6  -1   9  -1  11  -1  22   1
M  END
>  <UniqueID>  (1092) 
32

>  <SMILES>  (1092) 
C=c1c(=Cc2[n-]c(=O)[n-]c2[O-])cc(C)n1-c1ccc(C(=O)[NH+]2CCCC2)cc1

>  <Energy>  (1092) 
135.85632699767322

>  <Genealogy>  (1092) 
C=c1c(=Cc2[n-]c(=O)[n-]c2[O-])cc(C)n1-c1ccc(C(=O)[NH+]2CCCC2)cc1 (protonated)
C=c1c(=Cc2[n-]c(=O)[n-]c2[O-])cc(C)n1-c1ccc(C(=O)[NH+]2CCCC2)cc1 (3D coordinates assigned)
C=c1c(=Cc2[n-]c(=O)[n-]c2[O-])cc(C)n1-c1ccc(C(=O)[NH+]2CCCC2)cc1 (nonaromatic ring conformer: 135.85632699767322 kcal/mol)

>  <smiles>  (1092) 
C=c1c(=Cc2[nH]c(=O)[nH]c2O)cc(C)n1-c1ccc(C(=O)N2CCCC2)cc1

>  <score_type>  (1092) 
oracle

>  <origin>  (1092) 
adg

>  <m_score__min__energy>  (1092) 
-14.5

>  <m_primary>  (1092) 
energy

$$$$
37:0
     RDKit          3D

 30 32  0  0  0  0  0  0  0  0999 V2000
   59.8730   34.4850   48.2270 C   0  0  0  0  0  0  0  0  0  0  0  0
   59.2450   34.9470   46.9160 C   0  0  0  0  0  0  0  0  0  0  0  0
   58.0190   34.1660   46.6320 N   0  0  0  0  0  0  0  0  0  0  0  0
   58.1440   32.7430   46.9980 C   0  0  0  0  0  0  0  0  0  0  0  0
   59.0190   31.9630   46.0030 C   0  0  0  0  0  0  0  0  0  0  0  0
   58.5780   32.1200   44.6060 N   0  0  0  0  0  0  0  0  0  0  0  0
   57.2090   31.1040   44.1920 S   0  0  0  0  0  0  0  0  0  0  0  0
   57.0150   31.1030   42.7020 O   0  0  0  0  0  0  0  0  0  0  0  0
   55.9600   31.6260   44.8440 O   0  0  0  0  0  0  0  0  0  0  0  0
   57.5220   29.4400   44.7010 C   0  0  0  0  0  0  0  0  0  0  0  0
   58.8490   28.9980   44.7920 C   0  0  0  0  0  0  0  0  0  0  0  0
   59.1350   27.6960   45.2020 C   0  0  0  0  0  0  0  0  0  0  0  0
   58.0970   26.8120   45.5010 C   0  0  0  0  0  0  0  0  0  0  0  0
   56.7620   27.2170   45.3710 C   0  0  0  0  0  0  0  0  0  0  0  0
   55.7160   26.2820   45.6800 N   0  0  0  0  0  0  0  0  0  0  0  0
   55.8960   25.1750   46.5810 C   0  0  0  0  0  0  0  0  0  0  0  0
   56.9350   25.0960   47.2870 O   0  0  0  0  0  0  0  0  0  0  0  0
   54.8940   24.1620   46.7140 N   0  0  0  0  0  0  0  0  0  0  0  0
   54.2980   23.4490   45.5920 C   0  0  0  0  0  0  0  0  0  0  0  0
   55.3820   22.7810   44.7940 C   0  0  0  0  0  0  0  0  0  0  0  0
   55.6370   23.1890   43.4740 C   0  0  0  0  0  0  0  0  0  0  0  0
   56.6210   22.5490   42.7140 C   0  0  0  0  0  0  0  0  0  0  0  0
   57.3500   21.4910   43.2620 C   0  0  0  0  0  0  0  0  0  0  0  0
   57.0930   21.0670   44.5690 C   0  0  0  0  0  0  0  0  0  0  0  0
   56.1090   21.7030   45.3330 C   0  0  0  0  0  0  0  0  0  0  0  0
   55.8630   21.2650   46.5940 F   0  0  0  0  0  0  0  0  0  0  0  0
   56.4730   28.5440   44.9890 C   0  0  0  0  0  0  0  0  0  0  0  0
   55.1500   28.9710   44.9220 O   0  0  0  0  0  0  0  0  0  0  0  0
   58.3780   33.5290   44.2230 C   0  0  0  0  0  0  0  0  0  0  0  0
   57.5350   34.3180   45.2440 C   0  0  0  0  0  0  0  0  0  0  0  0
  1  2  1  0
  2  3  1  0
  3  4  1  0
  4  5  1  0
  5  6  1  0
  6  7  1  0
  7  8  2  0
  7  9  2  0
  7 10  1  0
 10 11  2  0
 11 12  1  0
 12 13  2  0
 13 14  1  0
 14 15  1  0
 15 16  1  0
 16 17  2  0
 16 18  1  0
 18 19  1  0
 19 20  1  0
 20 21  2  0
 21 22  1  0
 22 23  2  0
 23 24  1  0
 24 25  2  0
 25 26  1  0
 14 27  2  0
 27 28  1  0
  6 29  1  0
 29 30  1  0
 30  3  1  0
 27 10  1  0
 25 20  1  0
M  CHG  2  18  -1  28  -1
M  END
>  <UniqueID>  (1093) 
34

>  <SMILES>  (1093) 
CCN1CCN(S(=O)(=O)c2cccc(NC(=O)[N-]Cc3ccccc3F)c2[O-])CC1

>  <Energy>  (1093) 
64.53092919035569

>  <Genealogy>  (1093) 
CCN1CCN(S(=O)(=O)c2cccc(NC(=O)[N-]Cc3ccccc3F)c2[O-])CC1 (protonated)
CCN1CCN(S(=O)(=O)c2cccc(NC(=O)[N-]Cc3ccccc3F)c2[O-])CC1 (3D coordinates assigned)
CCN1CCN(S(=O)(=O)c2cccc(NC(=O)[N-]Cc3ccccc3F)c2[O-])CC1 (nonaromatic ring conformer: 64.53092919035569 kcal/mol)

>  <smiles>  (1093) 
CCN1CCN(S(=O)(=O)c2cccc(NC(=O)NCc3ccccc3F)c2O)CC1

>  <score_type>  (1093) 
oracle

>  <origin>  (1093) 
adg

>  <m_score__min__energy>  (1093) 
-15.449999999999999

>  <m_primary>  (1093) 
energy

$$$$
52:0
     RDKit          3D

 32 35  0  0  0  0  0  0  0  0999 V2000
   59.6440   28.1190   47.6450 C   0  0  0  0  0  0  0  0  0  0  0  0
   59.0510   28.9140   46.7420 C   0  0  0  0  0  0  0  0  0  0  0  0
   58.1200   28.5330   45.7620 C   0  0  0  0  0  0  0  0  0  0  0  0
   57.7540   27.3160   45.3160 C   0  0  0  0  0  0  0  0  0  0  0  0
   57.2420   26.2150   46.1490 C   0  0  0  0  0  0  0  0  0  0  0  0
   57.9930   25.2160   46.6470 N   0  0  0  0  0  0  0  0  0  0  0  0
   57.0830   24.3930   47.2110 C   0  0  0  0  0  0  0  0  0  0  0  0
   57.4040   23.3310   47.8050 O   0  0  0  0  0  0  0  0  0  0  0  0
   55.7990   24.7920   47.0790 N   0  0  0  0  0  0  0  0  0  0  0  0
   55.9190   25.9400   46.3920 C   0  0  0  0  0  0  0  0  0  0  0  0
   54.8390   26.7160   45.9890 O   0  0  0  0  0  0  0  0  0  0  0  0
   57.5860   29.7070   45.2560 C   0  0  0  0  0  0  0  0  0  0  0  0
   58.2510   30.7470   45.8730 C   0  0  0  0  0  0  0  0  0  0  0  0
   57.9960   32.1980   45.6000 C   0  0  0  0  0  0  0  0  0  0  0  0
   59.1390   30.2690   46.7730 N   0  0  0  0  0  0  0  0  0  0  0  0
   59.9820   31.0650   47.6270 C   0  0  0  0  0  0  0  0  0  0  0  0
   59.7850   31.0520   49.0110 C   0  0  0  0  0  0  0  0  0  0  0  0
   60.6070   31.8090   49.8450 C   0  0  0  0  0  0  0  0  0  0  0  0
   61.6350   32.5990   49.3070 C   0  0  0  0  0  0  0  0  0  0  0  0
   62.4940   33.3570   50.2380 C   0  0  0  0  0  0  0  0  0  0  0  0
   61.9890   34.2960   50.9100 O   0  0  0  0  0  0  0  0  0  0  0  0
   63.8900   33.0410   50.3860 N   0  0  0  0  0  0  0  0  0  0  0  0
   64.7780   33.7880   51.2570 C   0  0  0  0  0  0  0  0  0  0  0  0
   66.0550   32.9620   51.3500 C   0  0  0  0  0  0  0  0  0  0  0  0
   65.9920   31.9580   50.2030 C   0  0  0  0  0  0  0  0  0  0  0  0
   64.5270   31.8740   49.7980 C   0  0  0  0  0  0  0  0  0  0  0  0
   61.8340   32.6370   47.9030 C   0  0  0  0  0  0  0  0  0  0  0  0
   62.9310   33.4810   47.2840 C   0  0  0  0  0  0  0  0  0  0  0  0
   62.5620   33.8860   46.0130 F   0  0  0  0  0  0  0  0  0  0  0  0
   63.1530   34.5960   48.0710 F   0  0  0  0  0  0  0  0  0  0  0  0
   64.1180   32.7770   47.1770 F   0  0  0  0  0  0  0  0  0  0  0  0
   61.0050   31.8500   47.0800 C   0  0  0  0  0  0  0  0  0  0  0  0
  1  2  2  0
  2  3  1  0
  3  4  2  3
  4  5  1  0
  5  6  1  0
  6  7  1  0
  7  8  2  0
  7  9  1  0
  9 10  1  0
 10 11  1  0
  3 12  1  0
 12 13  2  0
 13 14  1  0
 13 15  1  0
 15 16  1  0
 16 17  2  0
 17 18  1  0
 18 19  2  0
 19 20  1  0
 20 21  2  0
 20 22  1  0
 22 23  1  0
 23 24  1  0
 24 25  1  0
 25 26  1  0
 19 27  1  0
 27 28  1  0
 28 29  1  0
 28 30  1  0
 28 31  1  0
 27 32  2  0
 15  2  1  0
 32 16  1  0
 10  5  2  0
 26 22  1  0
M  CHG  3   6  -1   9  -1  11  -1
M  END
>  <UniqueID>  (1094) 
49

>  <SMILES>  (1094) 
C=c1c(=Cc2[n-]c(=O)[n-]c2[O-])cc(C)n1-c1ccc(C(=O)N2CCCC2)c(C(F)(F)F)c1

>  <Energy>  (1094) 
135.09565425789665

>  <Genealogy>  (1094) 
C=c1c(=Cc2[n-]c(=O)[n-]c2[O-])cc(C)n1-c1ccc(C(=O)N2CCCC2)c(C(F)(F)F)c1 (protonated)
C=c1c(=Cc2[n-]c(=O)[n-]c2[O-])cc(C)n1-c1ccc(C(=O)N2CCCC2)c(C(F)(F)F)c1 (3D coordinates assigned)
C=c1c(=Cc2[n-]c(=O)[n-]c2[O-])cc(C)n1-c1ccc(C(=O)N2CCCC2)c(C(F)(F)F)c1 (nonaromatic ring conformer: 135.09565425789665 kcal/mol)

>  <smiles>  (1094) 
C=c1c(=Cc2[nH]c(=O)[nH]c2O)cc(C)n1-c1ccc(C(=O)N2CCCC2)c(C(F)(F)F)c1

>  <score_type>  (1094) 
oracle

>  <origin>  (1094) 
adg

>  <m_score__min__energy>  (1094) 
-15.76

>  <m_primary>  (1094) 
energy

$$$$
72:0
     RDKit          3D

 29 32  0  0  0  0  0  0  0  0999 V2000
   55.8830   25.1680   46.4800 O   0  0  0  0  0  0  0  0  0  0  0  0
   57.0930   24.9210   46.2130 C   0  0  0  0  0  0  0  0  0  0  0  0
   57.4610   23.5940   45.5940 C   0  0  0  0  0  0  0  0  0  0  0  0
   56.2400   22.7590   45.1900 C   0  0  0  0  0  0  0  0  0  0  0  0
   55.4700   22.3430   46.3620 N   0  0  0  0  0  0  0  0  0  0  0  0
   54.1360   22.1270   46.4290 C   0  0  0  0  0  0  0  0  0  0  0  0
   53.2640   22.2640   45.3580 O   0  0  0  0  0  0  0  0  0  0  0  0
   53.7740   21.7390   47.7030 C   0  0  0  0  0  0  0  0  0  0  0  0
   54.9370   21.6820   48.4390 C   0  0  0  0  0  0  0  0  0  0  0  0
   55.9550   22.0770   47.5930 C   0  0  0  0  0  0  0  0  0  0  0  0
   57.2960   22.1840   47.9430 O   0  0  0  0  0  0  0  0  0  0  0  0
   54.9840   21.3520   49.9030 C   0  0  0  0  0  0  0  0  0  0  0  0
   53.7140   20.5830   50.3240 C   0  0  0  0  0  0  0  0  0  0  0  0
   52.4350   21.2500   49.7650 C   0  0  0  0  0  0  0  0  0  0  0  0
   52.4350   21.2960   48.2170 C   0  0  0  0  0  0  0  0  0  0  0  0
   58.0850   25.9430   46.4320 N   0  0  0  0  0  0  0  0  0  0  0  0
   59.3470   25.9630   45.6780 C   0  0  0  0  0  0  0  0  0  0  0  0
   59.7310   27.4130   45.3650 C   0  0  0  0  0  0  0  0  0  0  0  0
   59.8670   28.2350   46.5920 N   0  0  0  0  0  0  0  0  0  0  0  0
   59.8100   29.6960   46.3420 C   0  0  0  0  0  0  0  0  0  0  0  0
   58.5810   30.1410   45.5710 C   0  0  0  0  0  0  0  0  0  0  0  0
   58.5890   31.3480   44.8440 C   0  0  0  0  0  0  0  0  0  0  0  0
   57.4620   31.7490   44.1170 C   0  0  0  0  0  0  0  0  0  0  0  0
   56.3120   30.9550   44.1180 C   0  0  0  0  0  0  0  0  0  0  0  0
   56.2810   29.7700   44.8590 C   0  0  0  0  0  0  0  0  0  0  0  0
   55.1350   28.9870   44.8660 O   0  0  0  0  0  0  0  0  0  0  0  0
   57.4040   29.3700   45.5940 C   0  0  0  0  0  0  0  0  0  0  0  0
   59.0830   27.7730   47.7650 C   0  0  0  0  0  0  0  0  0  0  0  0
   57.7920   27.0380   47.3660 C   0  0  0  0  0  0  0  0  0  0  0  0
  1  2  2  0
  2  3  1  0
  3  4  1  0
  4  5  1  0
  5  6  1  0
  6  7  1  0
  6  8  2  0
  8  9  1  0
  9 10  2  0
 10 11  1  0
  9 12  1  0
 12 13  1  0
 13 14  1  0
 14 15  1  0
  2 16  1  0
 16 17  1  0
 17 18  1  0
 18 19  1  0
 19 20  1  0
 20 21  1  0
 21 22  2  0
 22 23  1  0
 23 24  2  0
 24 25  1  0
 25 26  1  0
 25 27  2  0
 19 28  1  0
 28 29  1  0
 10  5  1  0
 29 16  1  0
 15  8  1  0
 27 21  1  0
M  CHG  3   7  -1  11  -1  26  -1
M  END
>  <UniqueID>  (1095) 
65

>  <SMILES>  (1095) 
O=C(CCn1c([O-])c2c(c1[O-])CCCC2)N1CCN(Cc2cccc([O-])c2)CC1

>  <Energy>  (1095) 
94.01657469120504

>  <Genealogy>  (1095) 
O=C(CCn1c([O-])c2c(c1[O-])CCCC2)N1CCN(Cc2cccc([O-])c2)CC1 (protonated)
O=C(CCn1c([O-])c2c(c1[O-])CCCC2)N1CCN(Cc2cccc([O-])c2)CC1 (3D coordinates assigned)
O=C(CCn1c([O-])c2c(c1[O-])CCCC2)N1CCN(Cc2cccc([O-])c2)CC1 (nonaromatic ring conformer: 94.01657469120504 kcal/mol)

>  <smiles>  (1095) 
O=C(CCn1c(O)c2c(c1O)CCCC2)N1CCN(Cc2cccc(O)c2)CC1

>  <score_type>  (1095) 
oracle

>  <origin>  (1095) 
adg

>  <m_score__min__energy>  (1095) 
-14.800000000000001

>  <m_primary>  (1095) 
energy

$$$$
4:0
     RDKit          3D

 24 26  0  0  0  0  0  0  0  0999 V2000
   59.2600   28.1280   48.4470 C   0  0  0  0  0  0  0  0  0  0  0  0
   59.0700   29.1920   47.6470 C   0  0  0  0  0  0  0  0  0  0  0  0
   58.7330   29.1750   46.2820 C   0  0  0  0  0  0  0  0  0  0  0  0
   58.3700   28.1620   45.4680 C   0  0  0  0  0  0  0  0  0  0  0  0
   57.3980   27.1010   45.7950 C   0  0  0  0  0  0  0  0  0  0  0  0
   56.0150   27.3110   45.6590 C   0  0  0  0  0  0  0  0  0  0  0  0
   55.5200   28.5430   45.2460 O   0  0  0  0  0  0  0  0  0  0  0  0
   55.1470   26.3020   45.9270 N   0  0  0  0  0  0  0  0  0  0  0  0
   55.5930   25.0770   46.3100 C   0  0  0  0  0  0  0  0  0  0  0  0
   54.7700   24.1590   46.5570 O   0  0  0  0  0  0  0  0  0  0  0  0
   56.9250   24.8430   46.4210 N   0  0  0  0  0  0  0  0  0  0  0  0
   57.8340   25.8190   46.1660 C   0  0  0  0  0  0  0  0  0  0  0  0
   59.0640   25.5650   46.2720 O   0  0  0  0  0  0  0  0  0  0  0  0
   58.8230   30.4840   45.8450 C   0  0  0  0  0  0  0  0  0  0  0  0
   59.1570   31.2520   46.9400 C   0  0  0  0  0  0  0  0  0  0  0  0
   59.3440   32.7390   46.9070 C   0  0  0  0  0  0  0  0  0  0  0  0
   59.2900   30.4760   48.0410 N   0  0  0  0  0  0  0  0  0  0  0  0
   59.7060   30.9470   49.3700 C   0  0  0  0  0  0  0  0  0  0  0  0
   58.5610   30.8700   50.3290 C   0  0  0  0  0  0  0  0  0  0  0  0
   58.0340   29.7490   50.7710 O   0  0  0  0  0  0  0  0  0  0  0  0
   57.0650   29.9820   51.6090 N   0  0  0  0  0  0  0  0  0  0  0  0
   56.9720   31.3190   51.7080 C   0  0  0  0  0  0  0  0  0  0  0  0
   56.1350   31.9100   52.4380 O   0  0  0  0  0  0  0  0  0  0  0  0
   57.9070   31.9370   50.9100 C   0  0  0  0  0  0  0  0  0  0  0  0
  1  2  2  0
  2  3  1  0
  3  4  2  0
  4  5  1  0
  5  6  2  0
  6  7  1  0
  6  8  1  0
  8  9  1  0
  9 10  2  0
  9 11  1  0
 11 12  1  0
 12 13  2  0
  3 14  1  0
 14 15  2  0
 15 16  1  0
 15 17  1  0
 17 18  1  0
 18 19  1  0
 19 20  1  0
 20 21  1  0
 21 22  1  0
 22 23  2  0
 22 24  1  0
 17  2  1  0
 24 19  2  0
 12  5  1  0
M  CHG  4   7  -1   8  -1  11  -1  21  -1
M  END
>  <UniqueID>  (1096) 
3

>  <SMILES>  (1096) 
C=c1/c(=C\c2c([O-])[n-]c(=O)[n-]c2=O)cc(C)n1Cc1cc(=O)[n-]o1

>  <Energy>  (1096) 
109.42731552217909

>  <Genealogy>  (1096) 
C=c1c(=Cc2c([O-])[n-]c(=O)[n-]c2=O)cc(C)n1Cc1cc(=O)[n-]o1 (protonated)
C=c1/c(=C\c2c([O-])[n-]c(=O)[n-]c2=O)cc(C)n1Cc1cc(=O)[n-]o1 (cis-trans isomerization)
C=c1/c(=C\c2c([O-])[n-]c(=O)[n-]c2=O)cc(C)n1Cc1cc(=O)[n-]o1 (3D coordinates assigned)
C=c1/c(=C\c2c([O-])[n-]c(=O)[n-]c2=O)cc(C)n1Cc1cc(=O)[n-]o1 (optimized conformer: 109.42731552217909 kcal/mol)

>  <smiles>  (1096) 
C=c1c(=Cc2c(O)[nH]c(=O)[nH]c2=O)cc(C)n1Cc1cc(=O)[nH]o1

>  <score_type>  (1096) 
oracle

>  <origin>  (1096) 
adg

>  <m_score__min__energy>  (1096) 
-16.379999999999999

>  <m_primary>  (1096) 
energy

$$$$
24:0
     RDKit          3D

 28 30  0  0  0  0  0  0  0  0999 V2000
   57.7760   26.4410   44.1880 C   0  0  0  0  0  0  0  0  0  0  0  0
   57.4220   25.5110   45.2830 C   0  0  0  0  0  0  0  0  0  0  0  0
   58.1910   25.3800   46.2730 O   0  0  0  0  0  0  0  0  0  0  0  0
   56.1460   24.7540   45.2530 C   0  0  0  0  0  0  0  0  0  0  0  0
   54.9370   25.3760   45.6190 C   0  0  0  0  0  0  0  0  0  0  0  0
   54.9100   26.7130   45.9990 O   0  0  0  0  0  0  0  0  0  0  0  0
   53.7740   24.6750   45.5870 N   0  0  0  0  0  0  0  0  0  0  0  0
   53.7500   23.3720   45.2110 C   0  0  0  0  0  0  0  0  0  0  0  0
   52.6590   22.7460   45.1860 O   0  0  0  0  0  0  0  0  0  0  0  0
   54.9010   22.7430   44.8640 N   0  0  0  0  0  0  0  0  0  0  0  0
   56.0920   23.3960   44.8800 C   0  0  0  0  0  0  0  0  0  0  0  0
   57.1400   22.7640   44.5810 O   0  0  0  0  0  0  0  0  0  0  0  0
   58.4830   27.5600   44.4030 C   0  0  0  0  0  0  0  0  0  0  0  0
   57.8990   28.9250   44.3870 C   0  0  0  0  0  0  0  0  0  0  0  0
   56.5180   29.0620   44.1740 C   0  0  0  0  0  0  0  0  0  0  0  0
   55.9290   30.3270   44.1300 C   0  0  0  0  0  0  0  0  0  0  0  0
   56.7120   31.4720   44.2860 C   0  0  0  0  0  0  0  0  0  0  0  0
   58.0910   31.3640   44.4840 C   0  0  0  0  0  0  0  0  0  0  0  0
   58.8610   32.5690   44.6160 N   0  0  0  0  0  0  0  0  0  0  0  0
   58.4140   33.9440   45.5730 S   0  0  0  0  0  0  0  0  0  0  0  0
   56.9190   34.1040   45.5430 O   0  0  0  0  0  0  0  0  0  0  0  0
   59.0500   35.1770   44.9980 O   0  0  0  0  0  0  0  0  0  0  0  0
   58.9710   33.7320   47.2220 C   0  0  0  0  0  0  0  0  0  0  0  0
   58.5690   32.4370   48.2130 S   0  0  0  0  0  0  0  0  0  0  0  0
   59.4070   32.9880   49.5650 C   0  0  0  0  0  0  0  0  0  0  0  0
   60.0060   34.2010   49.2480 C   0  0  0  0  0  0  0  0  0  0  0  0
   59.7630   34.6200   47.9350 C   0  0  0  0  0  0  0  0  0  0  0  0
   58.6840   30.0880   44.5340 C   0  0  0  0  0  0  0  0  0  0  0  0
  1  2  1  0
  2  3  2  0
  2  4  1  0
  4  5  2  0
  5  6  1  0
  5  7  1  0
  7  8  1  0
  8  9  2  0
  8 10  1  0
 10 11  1  0
 11 12  2  0
  1 13  2  0
 13 14  1  0
 14 15  2  0
 15 16  1  0
 16 17  2  0
 17 18  1  0
 18 19  1  0
 19 20  1  0
 20 21  2  0
 20 22  2  0
 20 23  1  0
 23 24  1  0
 24 25  1  0
 25 26  2  0
 26 27  1  0
 18 28  2  0
 11  4  1  0
 28 14  1  0
 27 23  2  0
M  CHG  4   6  -1   7  -1  10  -1  19  -1
M  END
>  <UniqueID>  (1097) 
20

>  <SMILES>  (1097) 
O=C(/C=C/c1cccc([N-]S(=O)(=O)c2cccs2)c1)c1c([O-])[n-]c(=O)[n-]c1=O

>  <Energy>  (1097) 
77.64110479581653

>  <Genealogy>  (1097) 
O=C(C=Cc1cccc([N-]S(=O)(=O)c2cccs2)c1)c1c([O-])[n-]c(=O)[n-]c1=O (protonated)
O=C(/C=C/c1cccc([N-]S(=O)(=O)c2cccs2)c1)c1c([O-])[n-]c(=O)[n-]c1=O (cis-trans isomerization)
O=C(/C=C/c1cccc([N-]S(=O)(=O)c2cccs2)c1)c1c([O-])[n-]c(=O)[n-]c1=O (3D coordinates assigned)
O=C(/C=C/c1cccc([N-]S(=O)(=O)c2cccs2)c1)c1c([O-])[n-]c(=O)[n-]c1=O (optimized conformer: 77.64110479581653 kcal/mol)

>  <smiles>  (1097) 
O=C(C=Cc1cccc(NS(=O)(=O)c2cccs2)c1)c1c(O)[nH]c(=O)[nH]c1=O

>  <score_type>  (1097) 
oracle

>  <origin>  (1097) 
adg

>  <m_score__min__energy>  (1097) 
-17.829999999999998

>  <m_primary>  (1097) 
energy

$$$$
30:0
     RDKit          3D

 25 27  0  0  0  0  0  0  0  0999 V2000
   59.7940   34.2310   50.0900 O   0  0  0  0  0  0  0  0  0  0  0  0
   60.5790   33.9640   48.9700 C   0  0  0  0  0  0  0  0  0  0  0  0
   61.9690   34.1390   49.0380 C   0  0  0  0  0  0  0  0  0  0  0  0
   62.7710   33.8610   47.9300 C   0  0  0  0  0  0  0  0  0  0  0  0
   62.1910   33.4020   46.7460 C   0  0  0  0  0  0  0  0  0  0  0  0
   60.8070   33.2250   46.6670 C   0  0  0  0  0  0  0  0  0  0  0  0
   59.9840   33.5170   47.7700 C   0  0  0  0  0  0  0  0  0  0  0  0
   58.4900   33.3030   47.6630 C   0  0  0  0  0  0  0  0  0  0  0  0
   58.1370   32.5250   46.4630 N   0  0  0  0  0  0  0  0  0  0  0  0
   57.5070   32.9990   45.3610 C   0  0  0  0  0  0  0  0  0  0  0  0
   57.0150   34.4050   45.1830 C   0  0  0  0  0  0  0  0  0  0  0  0
   57.3320   31.9940   44.4310 C   0  0  0  0  0  0  0  0  0  0  0  0
   57.8630   30.8410   44.9880 C   0  0  0  0  0  0  0  0  0  0  0  0
   57.9220   29.6290   44.4010 C   0  0  0  0  0  0  0  0  0  0  0  0
   57.4490   28.3840   45.0480 C   0  0  0  0  0  0  0  0  0  0  0  0
   56.0760   28.1740   45.2450 C   0  0  0  0  0  0  0  0  0  0  0  0
   55.1500   29.1410   44.8700 O   0  0  0  0  0  0  0  0  0  0  0  0
   55.6420   27.0210   45.8170 N   0  0  0  0  0  0  0  0  0  0  0  0
   56.5160   26.0530   46.1930 C   0  0  0  0  0  0  0  0  0  0  0  0
   55.9630   24.6800   46.8820 S   0  0  0  0  0  0  0  0  0  0  0  0
   57.8460   26.2200   45.9880 N   0  0  0  0  0  0  0  0  0  0  0  0
   58.3310   27.3530   45.4180 C   0  0  0  0  0  0  0  0  0  0  0  0
   59.5700   27.4580   45.2120 O   0  0  0  0  0  0  0  0  0  0  0  0
   58.3470   31.1980   46.2500 C   0  0  0  0  0  0  0  0  0  0  0  0
   58.9010   30.3680   47.1480 C   0  0  0  0  0  0  0  0  0  0  0  0
  1  2  1  0
  2  3  2  0
  3  4  1  0
  4  5  2  0
  5  6  1  0
  6  7  2  0
  7  8  1  0
  8  9  1  0
  9 10  1  0
 10 11  1  0
 10 12  2  0
 12 13  1  0
 13 14  2  0
 14 15  1  0
 15 16  2  0
 16 17  1  0
 16 18  1  0
 18 19  1  0
 19 20  2  0
 19 21  1  0
 21 22  1  0
 22 23  2  0
 13 24  1  0
 24 25  2  0
  7  2  1  0
 24  9  1  0
 22 15  1  0
M  CHG  3  17  -1  18  -1  21  -1
M  END
>  <UniqueID>  (1098) 
26

>  <SMILES>  (1098) 
C=c1/c(=C/c2c([O-])[n-]c(=S)[n-]c2=O)cc(C)n1Cc1ccccc1O

>  <Energy>  (1098) 
80.28924064215701

>  <Genealogy>  (1098) 
C=c1c(=Cc2c([O-])[n-]c(=S)[n-]c2=O)cc(C)n1Cc1ccccc1O (protonated)
C=c1/c(=C/c2c([O-])[n-]c(=S)[n-]c2=O)cc(C)n1Cc1ccccc1O (cis-trans isomerization)
C=c1/c(=C/c2c([O-])[n-]c(=S)[n-]c2=O)cc(C)n1Cc1ccccc1O (3D coordinates assigned)
C=c1/c(=C/c2c([O-])[n-]c(=S)[n-]c2=O)cc(C)n1Cc1ccccc1O (optimized conformer: 80.28924064215701 kcal/mol)

>  <smiles>  (1098) 
C=c1c(=Cc2c(O)[nH]c(=S)[nH]c2=O)cc(C)n1Cc1ccccc1O

>  <score_type>  (1098) 
oracle

>  <origin>  (1098) 
adg

>  <m_score__min__energy>  (1098) 
-14.67

>  <m_primary>  (1098) 
energy

$$$$
33:0
     RDKit          3D

 26 28  0  0  0  0  0  0  0  0999 V2000
   55.2340   29.3060   44.8730 N   0  0  0  0  0  0  0  0  0  0  0  0
   56.5060   29.8780   44.5750 C   0  0  0  0  0  0  0  0  0  0  0  0
   56.6280   30.6450   43.5820 O   0  0  0  0  0  0  0  0  0  0  0  0
   57.6730   29.5920   45.4330 C   0  0  0  0  0  0  0  0  0  0  0  0
   58.2760   28.3130   45.3600 C   0  0  0  0  0  0  0  0  0  0  0  0
   57.7830   27.0750   44.1440 S   0  0  0  0  0  0  0  0  0  0  0  0
   57.4920   25.8060   45.3810 C   0  0  0  0  0  0  0  0  0  0  0  0
   58.4300   24.8470   45.5920 N   0  0  0  0  0  0  0  0  0  0  0  0
   58.2470   23.8890   46.5020 N   0  0  0  0  0  0  0  0  0  0  0  0
   57.1100   23.8450   47.2430 C   0  0  0  0  0  0  0  0  0  0  0  0
   56.9510   22.9400   48.1020 O   0  0  0  0  0  0  0  0  0  0  0  0
   56.1450   24.7780   47.0490 N   0  0  0  0  0  0  0  0  0  0  0  0
   56.3100   25.7600   46.1270 C   0  0  0  0  0  0  0  0  0  0  0  0
   55.3950   26.6050   45.9440 O   0  0  0  0  0  0  0  0  0  0  0  0
   59.2710   27.9570   46.2730 C   0  0  0  0  0  0  0  0  0  0  0  0
   59.6330   28.8450   47.2770 C   0  0  0  0  0  0  0  0  0  0  0  0
   59.0660   30.0740   47.3310 N   0  0  0  0  0  0  0  0  0  0  0  0
   58.1340   30.5020   46.4380 C   0  0  0  0  0  0  0  0  0  0  0  0
   57.7370   31.7420   46.5540 N   0  0  0  0  0  0  0  0  0  0  0  0
   58.4670   32.9600   46.3560 C   0  0  0  0  0  0  0  0  0  0  0  0
   58.5300   33.5230   45.0750 C   0  0  0  0  0  0  0  0  0  0  0  0
   59.1950   34.7360   44.8710 C   0  0  0  0  0  0  0  0  0  0  0  0
   59.7780   35.4050   45.9510 C   0  0  0  0  0  0  0  0  0  0  0  0
   59.6840   34.8690   47.2400 C   0  0  0  0  0  0  0  0  0  0  0  0
   59.0180   33.6570   47.4470 C   0  0  0  0  0  0  0  0  0  0  0  0
   58.9020   33.1650   48.7070 F   0  0  0  0  0  0  0  0  0  0  0  0
  1  2  1  0
  2  3  2  0
  2  4  1  0
  4  5  2  0
  5  6  1  0
  6  7  1  0
  7  8  2  0
  8  9  1  0
  9 10  1  0
 10 11  2  0
 10 12  1  0
 12 13  1  0
 13 14  2  0
  5 15  1  0
 15 16  2  0
 16 17  1  0
 17 18  1  0
 18 19  2  0
 19 20  1  0
 20 21  2  0
 21 22  1  0
 22 23  2  0
 23 24  1  0
 24 25  2  0
 25 26  1  0
 18  4  1  0
 25 20  1  0
 13  7  1  0
M  CHG  4   1  -1   9  -1  12  -1  17  -1
M  END
>  <UniqueID>  (1099) 
29

>  <SMILES>  (1099) 
[NH-]C(=O)c1c(Sc2n[n-]c(=O)[n-]c2=O)cc[n-]/c1=N/c1ccccc1F

>  <Energy>  (1099) 
59.13452405651088

>  <Genealogy>  (1099) 
[NH-]C(=O)c1c(Sc2n[n-]c(=O)[n-]c2=O)cc[n-]c1=Nc1ccccc1F (protonated)
[NH-]C(=O)c1c(Sc2n[n-]c(=O)[n-]c2=O)cc[n-]/c1=N/c1ccccc1F (cis-trans isomerization)
[NH-]C(=O)c1c(Sc2n[n-]c(=O)[n-]c2=O)cc[n-]/c1=N/c1ccccc1F (3D coordinates assigned)
[NH-]C(=O)c1c(Sc2n[n-]c(=O)[n-]c2=O)cc[n-]/c1=N/c1ccccc1F (optimized conformer: 59.13452405651088 kcal/mol)

>  <smiles>  (1099) 
NC(=O)c1c(Sc2n[nH]c(=O)[nH]c2=O)cc[nH]c1=Nc1ccccc1F

>  <score_type>  (1099) 
oracle

>  <origin>  (1099) 
adg

>  <m_score__min__energy>  (1099) 
-16.460000000000001

>  <m_primary>  (1099) 
energy

$$$$
47:0
     RDKit          3D

 30 32  0  0  0  0  0  0  0  0999 V2000
   58.0750   32.7140   43.0080 C   0  0  0  0  0  0  0  0  0  0  0  0
   58.3250   33.1070   44.2600 C   0  0  0  0  0  0  0  0  0  0  0  0
   58.9630   34.3680   44.4670 N   0  0  0  0  0  0  0  0  0  0  0  0
   59.2460   34.8650   45.7750 C   0  0  0  0  0  0  0  0  0  0  0  0
   59.7770   36.0010   45.8980 O   0  0  0  0  0  0  0  0  0  0  0  0
   58.9360   34.0730   46.9370 N   0  0  0  0  0  0  0  0  0  0  0  0
   59.2900   34.5640   48.2730 C   0  0  0  0  0  0  0  0  0  0  0  0
   58.4340   32.7330   46.7660 C   0  0  0  0  0  0  0  0  0  0  0  0
   58.4770   31.9240   47.7330 O   0  0  0  0  0  0  0  0  0  0  0  0
   57.9450   32.2850   45.4350 C   0  0  0  0  0  0  0  0  0  0  0  0
   57.2410   31.1990   45.2550 N   0  0  0  0  0  0  0  0  0  0  0  0
   57.7130   29.8750   44.9630 C   0  0  0  0  0  0  0  0  0  0  0  0
   57.3750   29.2860   43.7400 C   0  0  0  0  0  0  0  0  0  0  0  0
   57.7660   27.9750   43.4580 C   0  0  0  0  0  0  0  0  0  0  0  0
   58.4690   27.2320   44.4100 C   0  0  0  0  0  0  0  0  0  0  0  0
   58.7680   27.7910   45.6630 C   0  0  0  0  0  0  0  0  0  0  0  0
   59.4960   27.0130   46.6840 C   0  0  0  0  0  0  0  0  0  0  0  0
   60.6810   27.3320   46.9680 O   0  0  0  0  0  0  0  0  0  0  0  0
   58.8830   25.9330   47.3980 N   0  0  0  0  0  0  0  0  0  0  0  0
   57.4980   25.5060   47.2240 C   0  0  0  0  0  0  0  0  0  0  0  0
   57.2940   24.9260   45.8240 C   0  0  0  0  0  0  0  0  0  0  0  0
   55.9570   24.2340   45.7030 C   0  0  0  0  0  0  0  0  0  0  0  0
   55.9100   22.8400   45.5270 C   0  0  0  0  0  0  0  0  0  0  0  0
   54.6840   22.1860   45.3740 C   0  0  0  0  0  0  0  0  0  0  0  0
   53.4930   22.9170   45.3990 C   0  0  0  0  0  0  0  0  0  0  0  0
   52.2740   22.2660   45.2550 O   0  0  0  0  0  0  0  0  0  0  0  0
   53.5280   24.3040   45.5690 C   0  0  0  0  0  0  0  0  0  0  0  0
   54.7520   24.9660   45.7160 C   0  0  0  0  0  0  0  0  0  0  0  0
   54.7610   26.3490   45.8750 O   0  0  0  0  0  0  0  0  0  0  0  0
   58.3910   29.1160   45.9320 C   0  0  0  0  0  0  0  0  0  0  0  0
  1  2  2  0
  2  3  1  0
  3  4  1  0
  4  5  2  0
  4  6  1  0
  6  7  1  0
  6  8  1  0
  8  9  2  0
  8 10  1  0
 10 11  2  3
 11 12  1  0
 12 13  2  0
 13 14  1  0
 14 15  2  0
 15 16  1  0
 16 17  1  0
 17 18  2  0
 17 19  1  0
 19 20  1  0
 20 21  1  0
 21 22  1  0
 22 23  2  0
 23 24  1  0
 24 25  2  0
 25 26  1  0
 25 27  1  0
 27 28  2  0
 28 29  1  0
 16 30  2  0
 10  2  1  0
 30 12  1  0
 28 22  1  0
M  CHG  4   3  -1  19  -1  26  -1  29  -1
M  END
>  <UniqueID>  (1100) 
42

>  <SMILES>  (1100) 
C=C1[N-]C(=O)N(C)C(=O)C1=Nc1cccc(C(=O)[N-]CCc2ccc([O-])cc2[O-])c1

>  <Energy>  (1100) 
59.2490562739288

>  <Genealogy>  (1100) 
C=C1[N-]C(=O)N(C)C(=O)C1=Nc1cccc(C(=O)[N-]CCc2ccc([O-])cc2[O-])c1 (protonated)
C=C1[N-]C(=O)N(C)C(=O)C1=Nc1cccc(C(=O)[N-]CCc2ccc([O-])cc2[O-])c1 (3D coordinates assigned)
C=C1[N-]C(=O)N(C)C(=O)C1=Nc1cccc(C(=O)[N-]CCc2ccc([O-])cc2[O-])c1 (nonaromatic ring conformer: 59.2490562739288 kcal/mol)

>  <smiles>  (1100) 
C=C1NC(=O)N(C)C(=O)C1=Nc1cccc(C(=O)NCCc2ccc(O)cc2O)c1

>  <score_type>  (1100) 
oracle

>  <origin>  (1100) 
adg

>  <m_score__min__energy>  (1100) 
-17.390000000000001

>  <m_primary>  (1100) 
energy

$$$$
54:0
     RDKit          3D

 30 33  0  0  0  0  0  0  0  0999 V2000
   54.4940   30.5160   54.0990 O   0  0  0  0  0  0  0  0  0  0  0  0
   53.8650   30.9000   53.0750 C   0  0  0  0  0  0  0  0  0  0  0  0
   52.3720   30.9910   53.1200 C   0  0  0  0  0  0  0  0  0  0  0  0
   51.8290   31.1510   51.7340 C   0  0  0  0  0  0  0  0  0  0  0  0
   52.0510   30.2820   50.7300 N   0  0  0  0  0  0  0  0  0  0  0  0
   51.4000   30.8400   49.6870 C   0  0  0  0  0  0  0  0  0  0  0  0
   51.3810   30.3170   48.5410 O   0  0  0  0  0  0  0  0  0  0  0  0
   50.7750   32.0090   49.9640 N   0  0  0  0  0  0  0  0  0  0  0  0
   51.0610   32.1920   51.2630 C   0  0  0  0  0  0  0  0  0  0  0  0
   50.6290   33.2890   52.0010 O   0  0  0  0  0  0  0  0  0  0  0  0
   54.5670   31.2550   51.8730 N   0  0  0  0  0  0  0  0  0  0  0  0
   55.9840   31.4980   51.8040 C   0  0  0  0  0  0  0  0  0  0  0  0
   56.8660   30.5600   51.2370 C   0  0  0  0  0  0  0  0  0  0  0  0
   58.2410   30.8090   51.2110 C   0  0  0  0  0  0  0  0  0  0  0  0
   58.7610   31.9890   51.7660 C   0  0  0  0  0  0  0  0  0  0  0  0
   60.1810   32.2380   51.7490 N   0  0  0  0  0  0  0  0  0  0  0  0
   60.7130   33.3890   52.4930 C   0  0  0  0  0  0  0  0  0  0  0  0
   62.2300   33.4890   52.3420 C   0  0  0  0  0  0  0  0  0  0  0  0
   62.5720   33.2450   50.9330 N   0  0  0  0  0  0  0  0  0  0  0  0
   63.9110   33.7440   50.5480 C   0  0  0  0  0  0  0  0  0  0  0  0
   65.0560   32.8830   51.0410 C   0  0  0  0  0  0  0  0  0  0  0  0
   65.8930   32.2210   50.1250 C   0  0  0  0  0  0  0  0  0  0  0  0
   66.9590   31.4380   50.5790 C   0  0  0  0  0  0  0  0  0  0  0  0
   67.2030   31.3140   51.9490 C   0  0  0  0  0  0  0  0  0  0  0  0
   66.3850   31.9780   52.8680 C   0  0  0  0  0  0  0  0  0  0  0  0
   65.3200   32.7640   52.4170 C   0  0  0  0  0  0  0  0  0  0  0  0
   62.3230   31.8470   50.5200 C   0  0  0  0  0  0  0  0  0  0  0  0
   61.0970   31.2170   51.2200 C   0  0  0  0  0  0  0  0  0  0  0  0
   57.8820   32.9140   52.3530 C   0  0  0  0  0  0  0  0  0  0  0  0
   56.5070   32.6670   52.3750 C   0  0  0  0  0  0  0  0  0  0  0  0
  1  2  2  0
  2  3  1  0
  3  4  1  0
  4  5  1  0
  5  6  1  0
  6  7  2  0
  6  8  1  0
  8  9  1  0
  9 10  1  0
  2 11  1  0
 11 12  1  0
 12 13  2  0
 13 14  1  0
 14 15  2  0
 15 16  1  0
 16 17  1  0
 17 18  1  0
 18 19  1  0
 19 20  1  0
 20 21  1  0
 21 22  2  0
 22 23  1  0
 23 24  2  0
 24 25  1  0
 25 26  2  0
 19 27  1  0
 27 28  1  0
 15 29  1  0
 29 30  2  0
  9  4  2  0
 30 12  1  0
 28 16  1  0
 26 21  1  0
M  CHG  3   5  -1   8  -1  10  -1
M  END
>  <UniqueID>  (1101) 
49

>  <SMILES>  (1101) 
O=C(Cc1[n-]c(=O)[n-]c1[O-])Nc1ccc(N2CCN(Cc3ccccc3)CC2)cc1

>  <Energy>  (1101) 
98.38497369008246

>  <Genealogy>  (1101) 
O=C(Cc1[n-]c(=O)[n-]c1[O-])Nc1ccc(N2CCN(Cc3ccccc3)CC2)cc1 (protonated)
O=C(Cc1[n-]c(=O)[n-]c1[O-])Nc1ccc(N2CCN(Cc3ccccc3)CC2)cc1 (3D coordinates assigned)
O=C(Cc1[n-]c(=O)[n-]c1[O-])Nc1ccc(N2CCN(Cc3ccccc3)CC2)cc1 (nonaromatic ring conformer: 98.38497369008246 kcal/mol)

>  <smiles>  (1101) 
O=C(Cc1[nH]c(=O)[nH]c1O)Nc1ccc(N2CCN(Cc3ccccc3)CC2)cc1

>  <score_type>  (1101) 
oracle

>  <origin>  (1101) 
adg

>  <m_score__min__energy>  (1101) 
-16.559999999999999

>  <m_primary>  (1101) 
energy

$$$$
58:0
     RDKit          3D

 32 35  0  0  0  0  0  0  0  0999 V2000
   58.8820   26.6480   47.5020 C   0  0  0  0  0  0  0  0  0  0  0  0
   58.4780   27.1980   46.3450 C   0  0  0  0  0  0  0  0  0  0  0  0
   57.7680   26.5730   45.3070 C   0  0  0  0  0  0  0  0  0  0  0  0
   57.4520   25.2780   45.1010 C   0  0  0  0  0  0  0  0  0  0  0  0
   56.0920   24.7080   45.1460 C   0  0  0  0  0  0  0  0  0  0  0  0
   55.0200   25.4750   45.6210 C   0  0  0  0  0  0  0  0  0  0  0  0
   55.2290   26.7630   46.1030 O   0  0  0  0  0  0  0  0  0  0  0  0
   53.7630   24.9590   45.6210 N   0  0  0  0  0  0  0  0  0  0  0  0
   53.5180   23.7090   45.1530 C   0  0  0  0  0  0  0  0  0  0  0  0
   52.3470   23.2510   45.1670 O   0  0  0  0  0  0  0  0  0  0  0  0
   54.5360   22.9560   44.6620 N   0  0  0  0  0  0  0  0  0  0  0  0
   55.8100   23.4260   44.6380 C   0  0  0  0  0  0  0  0  0  0  0  0
   56.7250   22.7080   44.1550 O   0  0  0  0  0  0  0  0  0  0  0  0
   57.4060   27.5780   44.4250 C   0  0  0  0  0  0  0  0  0  0  0  0
   57.9460   28.7500   44.9090 C   0  0  0  0  0  0  0  0  0  0  0  0
   57.8060   30.0880   44.2470 C   0  0  0  0  0  0  0  0  0  0  0  0
   58.5960   28.5240   46.0730 N   0  0  0  0  0  0  0  0  0  0  0  0
   59.2650   29.5190   46.8670 C   0  0  0  0  0  0  0  0  0  0  0  0
   60.5390   29.9820   46.5100 C   0  0  0  0  0  0  0  0  0  0  0  0
   61.1640   30.9190   47.2720 N   0  0  0  0  0  0  0  0  0  0  0  0
   60.5870   31.4330   48.3950 C   0  0  0  0  0  0  0  0  0  0  0  0
   61.2510   32.3940   49.1640 O   0  0  0  0  0  0  0  0  0  0  0  0
   61.0110   33.7910   49.0250 C   0  0  0  0  0  0  0  0  0  0  0  0
   60.9530   34.1470   47.5350 C   0  0  0  0  0  0  0  0  0  0  0  0
   59.6460   34.6910   47.1000 N   0  0  0  0  0  0  0  0  0  0  0  0
   59.6310   35.2600   45.7360 C   0  0  0  0  0  0  0  0  0  0  0  0
   59.1990   34.2390   44.6550 C   0  0  0  0  0  0  0  0  0  0  0  0
   58.7280   33.0180   45.1910 O   0  0  0  0  0  0  0  0  0  0  0  0
   57.7790   33.2810   46.1990 C   0  0  0  0  0  0  0  0  0  0  0  0
   58.4750   33.8510   47.4410 C   0  0  0  0  0  0  0  0  0  0  0  0
   59.3190   30.9970   48.7850 C   0  0  0  0  0  0  0  0  0  0  0  0
   58.6570   30.0370   48.0180 C   0  0  0  0  0  0  0  0  0  0  0  0
  1  2  2  0
  2  3  1  0
  3  4  2  0
  4  5  1  0
  5  6  2  0
  6  7  1  0
  6  8  1  0
  8  9  1  0
  9 10  2  0
  9 11  1  0
 11 12  1  0
 12 13  2  0
  3 14  1  0
 14 15  2  0
 15 16  1  0
 15 17  1  0
 17 18  1  0
 18 19  2  0
 19 20  1  0
 20 21  2  0
 21 22  1  0
 22 23  1  0
 23 24  1  0
 24 25  1  0
 25 26  1  0
 26 27  1  0
 27 28  1  0
 28 29  1  0
 29 30  1  0
 21 31  1  0
 31 32  2  0
 17  2  1  0
 32 18  1  0
 12  5  1  0
 30 25  1  0
M  CHG  3   7  -1   8  -1  11  -1
M  END
>  <UniqueID>  (1102) 
53

>  <SMILES>  (1102) 
C=c1/c(=C\c2c([O-])[n-]c(=O)[n-]c2=O)cc(C)n1-c1ccc(OCCN2CCOCC2)nc1

>  <Energy>  (1102) 
119.1765927171703

>  <Genealogy>  (1102) 
C=c1c(=Cc2c([O-])[n-]c(=O)[n-]c2=O)cc(C)n1-c1ccc(OCCN2CCOCC2)nc1 (protonated)
C=c1/c(=C\c2c([O-])[n-]c(=O)[n-]c2=O)cc(C)n1-c1ccc(OCCN2CCOCC2)nc1 (cis-trans isomerization)
C=c1/c(=C\c2c([O-])[n-]c(=O)[n-]c2=O)cc(C)n1-c1ccc(OCCN2CCOCC2)nc1 (3D coordinates assigned)
C=c1/c(=C\c2c([O-])[n-]c(=O)[n-]c2=O)cc(C)n1-c1ccc(OCCN2CCOCC2)nc1 (nonaromatic ring conformer: 119.1765927171703 kcal/mol)

>  <smiles>  (1102) 
C=c1c(=Cc2c(O)[nH]c(=O)[nH]c2=O)cc(C)n1-c1ccc(OCCN2CCOCC2)nc1

>  <score_type>  (1102) 
oracle

>  <origin>  (1102) 
adg

>  <m_score__min__energy>  (1102) 
-15.66

>  <m_primary>  (1102) 
energy

$$$$
61:0
     RDKit          3D

 32 35  0  0  0  0  0  0  0  0999 V2000
   59.1110   28.2240   47.1470 C   0  0  0  0  0  0  0  0  0  0  0  0
   58.4800   28.7150   46.0680 C   0  0  0  0  0  0  0  0  0  0  0  0
   57.7930   27.9900   45.0790 C   0  0  0  0  0  0  0  0  0  0  0  0
   57.7190   26.6650   44.8420 C   0  0  0  0  0  0  0  0  0  0  0  0
   57.2740   25.6420   45.8080 C   0  0  0  0  0  0  0  0  0  0  0  0
   55.9790   25.6890   46.3410 C   0  0  0  0  0  0  0  0  0  0  0  0
   55.1140   26.7260   46.0080 O   0  0  0  0  0  0  0  0  0  0  0  0
   55.5620   24.7210   47.1970 N   0  0  0  0  0  0  0  0  0  0  0  0
   56.3760   23.6890   47.5390 C   0  0  0  0  0  0  0  0  0  0  0  0
   55.9690   22.8070   48.3370 O   0  0  0  0  0  0  0  0  0  0  0  0
   57.6250   23.6070   47.0140 N   0  0  0  0  0  0  0  0  0  0  0  0
   58.0890   24.5490   46.1530 C   0  0  0  0  0  0  0  0  0  0  0  0
   59.2460   24.4280   45.6680 O   0  0  0  0  0  0  0  0  0  0  0  0
   57.1440   28.9280   44.2920 C   0  0  0  0  0  0  0  0  0  0  0  0
   57.4940   30.1700   44.7770 C   0  0  0  0  0  0  0  0  0  0  0  0
   57.0190   31.4710   44.2040 C   0  0  0  0  0  0  0  0  0  0  0  0
   58.3020   30.0440   45.8530 N   0  0  0  0  0  0  0  0  0  0  0  0
   58.8450   31.1310   46.6250 C   0  0  0  0  0  0  0  0  0  0  0  0
   58.6840   31.1600   48.0170 C   0  0  0  0  0  0  0  0  0  0  0  0
   59.2100   32.2170   48.7660 C   0  0  0  0  0  0  0  0  0  0  0  0
   59.8960   33.2630   48.1280 C   0  0  0  0  0  0  0  0  0  0  0  0
   60.5000   34.3790   48.9370 C   0  0  0  0  0  0  0  0  0  0  0  0
   61.9410   34.0740   49.2440 C   0  0  0  0  0  0  0  0  0  0  0  0
   62.4070   34.1110   50.5690 C   0  0  0  0  0  0  0  0  0  0  0  0
   63.7360   33.7910   50.8590 C   0  0  0  0  0  0  0  0  0  0  0  0
   64.6110   33.4230   49.8280 C   0  0  0  0  0  0  0  0  0  0  0  0
   65.9790   33.0920   50.1280 C   0  0  0  0  0  0  0  0  0  0  0  0
   67.0800   32.8250   50.3680 N   0  0  0  0  0  0  0  0  0  0  0  0
   64.1490   33.3730   48.5080 C   0  0  0  0  0  0  0  0  0  0  0  0
   62.8190   33.6920   48.2160 C   0  0  0  0  0  0  0  0  0  0  0  0
   60.0650   33.2280   46.7340 C   0  0  0  0  0  0  0  0  0  0  0  0
   59.5380   32.1700   45.9880 C   0  0  0  0  0  0  0  0  0  0  0  0
  1  2  2  0
  2  3  1  0
  3  4  2  3
  4  5  1  0
  5  6  2  0
  6  7  1  0
  6  8  1  0
  8  9  1  0
  9 10  2  0
  9 11  1  0
 11 12  1  0
 12 13  2  0
  3 14  1  0
 14 15  2  0
 15 16  1  0
 15 17  1  0
 17 18  1  0
 18 19  2  0
 19 20  1  0
 20 21  2  0
 21 22  1  0
 22 23  1  0
 23 24  2  0
 24 25  1  0
 25 26  2  0
 26 27  1  0
 27 28  3  0
 26 29  1  0
 29 30  2  0
 21 31  1  0
 31 32  2  0
 17  2  1  0
 32 18  1  0
 12  5  1  0
 30 23  1  0
M  CHG  3   7  -1   8  -1  11  -1
M  END
>  <UniqueID>  (1103) 
56

>  <SMILES>  (1103) 
C=c1c(=Cc2c([O-])[n-]c(=O)[n-]c2=O)cc(C)n1-c1ccc(Cc2ccc(C#N)cc2)cc1

>  <Energy>  (1103) 
100.36683511185235

>  <Genealogy>  (1103) 
C=c1c(=Cc2c([O-])[n-]c(=O)[n-]c2=O)cc(C)n1-c1ccc(Cc2ccc(C#N)cc2)cc1 (protonated)
C=c1c(=Cc2c([O-])[n-]c(=O)[n-]c2=O)cc(C)n1-c1ccc(Cc2ccc(C#N)cc2)cc1 (3D coordinates assigned)
C=c1c(=Cc2c([O-])[n-]c(=O)[n-]c2=O)cc(C)n1-c1ccc(Cc2ccc(C#N)cc2)cc1 (optimized conformer: 100.36683511185235 kcal/mol)

>  <smiles>  (1103) 
C=c1c(=Cc2c(O)[nH]c(=O)[nH]c2=O)cc(C)n1-c1ccc(Cc2ccc(C#N)cc2)cc1

>  <score_type>  (1103) 
oracle

>  <origin>  (1103) 
adg

>  <m_score__min__energy>  (1103) 
-16.690000000000001

>  <m_primary>  (1103) 
energy

$$$$
62:0
     RDKit          3D

 30 33  0  0  0  0  0  0  0  0999 V2000
   54.6000   30.4130   51.4910 C   0  0  0  0  0  0  0  0  0  0  0  0
   54.4240   30.3020   52.8170 C   0  0  0  0  0  0  0  0  0  0  0  0
   53.2140   30.4060   53.5210 C   0  0  0  0  0  0  0  0  0  0  0  0
   52.0020   30.8500   53.1370 C   0  0  0  0  0  0  0  0  0  0  0  0
   51.5860   31.1110   51.7490 C   0  0  0  0  0  0  0  0  0  0  0  0
   51.7710   30.2620   50.7200 N   0  0  0  0  0  0  0  0  0  0  0  0
   51.3660   30.9780   49.6490 C   0  0  0  0  0  0  0  0  0  0  0  0
   51.3730   30.5120   48.4800 O   0  0  0  0  0  0  0  0  0  0  0  0
   50.9630   32.2360   49.9280 N   0  0  0  0  0  0  0  0  0  0  0  0
   51.1230   32.3070   51.2580 C   0  0  0  0  0  0  0  0  0  0  0  0
   50.8560   33.4450   52.0100 O   0  0  0  0  0  0  0  0  0  0  0  0
   53.4730   29.9550   54.8060 C   0  0  0  0  0  0  0  0  0  0  0  0
   54.8210   29.6720   54.8660 C   0  0  0  0  0  0  0  0  0  0  0  0
   55.5320   29.1780   56.0890 C   0  0  0  0  0  0  0  0  0  0  0  0
   55.4010   29.8810   53.6630 N   0  0  0  0  0  0  0  0  0  0  0  0
   56.7860   29.6550   53.3450 C   0  0  0  0  0  0  0  0  0  0  0  0
   57.5290   30.6360   52.6730 C   0  0  0  0  0  0  0  0  0  0  0  0
   58.8720   30.4110   52.3600 C   0  0  0  0  0  0  0  0  0  0  0  0
   59.4950   29.2050   52.7220 C   0  0  0  0  0  0  0  0  0  0  0  0
   60.9130   28.9560   52.3780 C   0  0  0  0  0  0  0  0  0  0  0  0
   61.6090   29.8940   51.9040 O   0  0  0  0  0  0  0  0  0  0  0  0
   61.5120   27.6630   52.5730 N   0  0  0  0  0  0  0  0  0  0  0  0
   60.8620   26.4720   51.9970 C   0  0  0  0  0  0  0  0  0  0  0  0
   61.7090   25.2030   52.1740 C   0  0  0  0  0  0  0  0  0  0  0  0
   63.1490   25.4870   51.8460 C   0  0  0  0  0  0  0  0  0  0  0  0
   63.8060   24.6690   51.2220 O   0  0  0  0  0  0  0  0  0  0  0  0
   63.7930   26.7650   52.3110 C   0  0  0  0  0  0  0  0  0  0  0  0
   62.8380   27.5640   53.2020 C   0  0  0  0  0  0  0  0  0  0  0  0
   58.7440   28.2190   53.3830 C   0  0  0  0  0  0  0  0  0  0  0  0
   57.4000   28.4450   53.6960 C   0  0  0  0  0  0  0  0  0  0  0  0
  1  2  2  0
  2  3  1  0
  3  4  2  0
  4  5  1  0
  5  6  1  0
  6  7  1  0
  7  8  2  0
  7  9  1  0
  9 10  1  0
 10 11  1  0
  3 12  1  0
 12 13  2  0
 13 14  1  0
 13 15  1  0
 15 16  1  0
 16 17  2  0
 17 18  1  0
 18 19  2  0
 19 20  1  0
 20 21  2  0
 20 22  1  0
 22 23  1  0
 23 24  1  0
 24 25  1  0
 25 26  2  0
 25 27  1  0
 27 28  1  0
 19 29  1  0
 29 30  2  0
 15  2  1  0
 30 16  1  0
 10  5  2  0
 28 22  1  0
M  CHG  3   6  -1   9  -1  11  -1
M  END
>  <UniqueID>  (1104) 
57

>  <SMILES>  (1104) 
C=c1/c(=C\c2[n-]c(=O)[n-]c2[O-])cc(C)n1-c1ccc(C(=O)N2CCC(=O)CC2)cc1

>  <Energy>  (1104) 
131.44539638168777

>  <Genealogy>  (1104) 
C=c1c(=Cc2[n-]c(=O)[n-]c2[O-])cc(C)n1-c1ccc(C(=O)N2CCC(=O)CC2)cc1 (protonated)
C=c1/c(=C\c2[n-]c(=O)[n-]c2[O-])cc(C)n1-c1ccc(C(=O)N2CCC(=O)CC2)cc1 (cis-trans isomerization)
C=c1/c(=C\c2[n-]c(=O)[n-]c2[O-])cc(C)n1-c1ccc(C(=O)N2CCC(=O)CC2)cc1 (3D coordinates assigned)
C=c1/c(=C\c2[n-]c(=O)[n-]c2[O-])cc(C)n1-c1ccc(C(=O)N2CCC(=O)CC2)cc1 (nonaromatic ring conformer: 131.44539638168777 kcal/mol)

>  <smiles>  (1104) 
C=c1c(=Cc2[nH]c(=O)[nH]c2O)cc(C)n1-c1ccc(C(=O)N2CCC(=O)CC2)cc1

>  <score_type>  (1104) 
oracle

>  <origin>  (1104) 
adg

>  <m_score__min__energy>  (1104) 
-16.02

>  <m_primary>  (1104) 
energy

$$$$
71:0
     RDKit          3D

 24 26  0  0  0  0  0  0  0  0999 V2000
   60.1940   29.8540   46.5310 C   0  0  0  0  0  0  0  0  0  0  0  0
   59.4090   30.7890   45.9740 C   0  0  0  0  0  0  0  0  0  0  0  0
   58.3600   30.5970   45.0570 C   0  0  0  0  0  0  0  0  0  0  0  0
   57.9490   29.4970   44.3970 C   0  0  0  0  0  0  0  0  0  0  0  0
   57.3880   28.2810   45.0190 C   0  0  0  0  0  0  0  0  0  0  0  0
   56.0080   28.1520   45.2480 C   0  0  0  0  0  0  0  0  0  0  0  0
   55.1260   29.1530   44.8580 O   0  0  0  0  0  0  0  0  0  0  0  0
   55.5250   27.0410   45.8600 N   0  0  0  0  0  0  0  0  0  0  0  0
   56.3570   26.0510   46.2750 C   0  0  0  0  0  0  0  0  0  0  0  0
   55.8860   25.0280   46.8370 O   0  0  0  0  0  0  0  0  0  0  0  0
   57.6970   26.1670   46.0890 N   0  0  0  0  0  0  0  0  0  0  0  0
   58.2300   27.2590   45.4810 C   0  0  0  0  0  0  0  0  0  0  0  0
   59.4790   27.3360   45.3310 O   0  0  0  0  0  0  0  0  0  0  0  0
   57.7480   31.8320   44.9040 C   0  0  0  0  0  0  0  0  0  0  0  0
   58.4610   32.7300   45.6710 C   0  0  0  0  0  0  0  0  0  0  0  0
   58.1380   34.1870   45.8090 C   0  0  0  0  0  0  0  0  0  0  0  0
   59.4600   32.0990   46.3210 N   0  0  0  0  0  0  0  0  0  0  0  0
   60.3760   32.7150   47.2420 C   0  0  0  0  0  0  0  0  0  0  0  0
   61.6150   33.1780   46.7890 C   0  0  0  0  0  0  0  0  0  0  0  0
   62.5040   33.7790   47.6810 C   0  0  0  0  0  0  0  0  0  0  0  0
   62.1410   33.9060   49.0240 C   0  0  0  0  0  0  0  0  0  0  0  0
   60.9350   33.4450   49.4510 N   0  0  0  0  0  0  0  0  0  0  0  0
   60.0500   32.8580   48.6020 C   0  0  0  0  0  0  0  0  0  0  0  0
   58.5230   32.2680   49.2370 Cl  0  0  0  0  0  0  0  0  0  0  0  0
  1  2  2  0
  2  3  1  0
  3  4  2  3
  4  5  1  0
  5  6  2  0
  6  7  1  0
  6  8  1  0
  8  9  1  0
  9 10  2  0
  9 11  1  0
 11 12  1  0
 12 13  2  0
  3 14  1  0
 14 15  2  0
 15 16  1  0
 15 17  1  0
 17 18  1  0
 18 19  2  0
 19 20  1  0
 20 21  2  0
 21 22  1  0
 22 23  2  0
 23 24  1  0
 17  2  1  0
 23 18  1  0
 12  5  1  0
M  CHG  3   7  -1   8  -1  11  -1
M  END
>  <UniqueID>  (1105) 
65

>  <SMILES>  (1105) 
C=c1c(=Cc2c([O-])[n-]c(=O)[n-]c2=O)cc(C)n1-c1cccnc1Cl

>  <Energy>  (1105) 
87.22984827338587

>  <Genealogy>  (1105) 
C=c1c(=Cc2c([O-])[n-]c(=O)[n-]c2=O)cc(C)n1-c1cccnc1Cl (protonated)
C=c1c(=Cc2c([O-])[n-]c(=O)[n-]c2=O)cc(C)n1-c1cccnc1Cl (3D coordinates assigned)
C=c1c(=Cc2c([O-])[n-]c(=O)[n-]c2=O)cc(C)n1-c1cccnc1Cl (optimized conformer: 87.22984827338587 kcal/mol)

>  <smiles>  (1105) 
C=c1c(=Cc2c(O)[nH]c(=O)[nH]c2=O)cc(C)n1-c1cccnc1Cl

>  <score_type>  (1105) 
oracle

>  <origin>  (1105) 
adg

>  <m_score__min__energy>  (1105) 
-15.210000000000001

>  <m_primary>  (1105) 
energy

$$$$
77:0
     RDKit          3D

 22 23  0  0  0  0  0  0  0  0999 V2000
   56.5950   24.2500   43.7240 C   0  0  0  0  0  0  0  0  0  0  0  0
   56.4950   24.2810   45.0570 C   0  0  0  0  0  0  0  0  0  0  0  0
   57.4270   23.4420   45.8860 C   0  0  0  0  0  0  0  0  0  0  0  0
   55.3930   25.0180   45.7210 C   0  0  0  0  0  0  0  0  0  0  0  0
   54.3420   24.3990   46.0340 O   0  0  0  0  0  0  0  0  0  0  0  0
   55.4600   26.4280   45.9780 N   0  0  0  0  0  0  0  0  0  0  0  0
   56.6060   27.2720   45.7820 C   0  0  0  0  0  0  0  0  0  0  0  0
   57.8890   26.8660   46.1870 C   0  0  0  0  0  0  0  0  0  0  0  0
   58.9820   27.7160   46.0120 C   0  0  0  0  0  0  0  0  0  0  0  0
   58.8060   28.9770   45.4420 C   0  0  0  0  0  0  0  0  0  0  0  0
   57.5320   29.4000   45.0370 C   0  0  0  0  0  0  0  0  0  0  0  0
   57.3420   31.0110   44.3320 S   0  0  0  0  0  0  0  0  0  0  0  0
   56.1180   30.9940   43.4590 O   0  0  0  0  0  0  0  0  0  0  0  0
   58.5390   31.3470   43.4870 O   0  0  0  0  0  0  0  0  0  0  0  0
   57.1440   32.1960   45.6080 N   0  0  0  0  0  0  0  0  0  0  0  0
   58.1340   32.0490   46.6970 C   0  0  0  0  0  0  0  0  0  0  0  0
   59.5060   32.6580   46.3630 C   0  0  0  0  0  0  0  0  0  0  0  0
   59.3670   34.0990   45.8760 C   0  0  0  0  0  0  0  0  0  0  0  0
   58.3860   34.1800   44.7080 C   0  0  0  0  0  0  0  0  0  0  0  0
   57.0320   33.5770   45.1010 C   0  0  0  0  0  0  0  0  0  0  0  0
   56.4260   28.5500   45.2310 C   0  0  0  0  0  0  0  0  0  0  0  0
   55.1450   28.9650   44.8780 O   0  0  0  0  0  0  0  0  0  0  0  0
  1  2  2  0
  2  3  1  0
  2  4  1  0
  4  5  2  0
  4  6  1  0
  6  7  1  0
  7  8  2  0
  8  9  1  0
  9 10  2  0
 10 11  1  0
 11 12  1  0
 12 13  2  0
 12 14  2  0
 12 15  1  0
 15 16  1  0
 16 17  1  0
 17 18  1  0
 18 19  1  0
 19 20  1  0
 11 21  2  0
 21 22  1  0
 21  7  1  0
 20 15  1  0
M  CHG  2   6  -1  22  -1
M  END
>  <UniqueID>  (1106) 
71

>  <SMILES>  (1106) 
C=C(C)C(=O)[N-]c1cccc(S(=O)(=O)N2CCCCC2)c1[O-]

>  <Energy>  (1106) 
44.91283283803415

>  <Genealogy>  (1106) 
C=C(C)C(=O)[N-]c1cccc(S(=O)(=O)N2CCCCC2)c1[O-] (protonated)
C=C(C)C(=O)[N-]c1cccc(S(=O)(=O)N2CCCCC2)c1[O-] (3D coordinates assigned)
C=C(C)C(=O)[N-]c1cccc(S(=O)(=O)N2CCCCC2)c1[O-] (nonaromatic ring conformer: 44.91283283803415 kcal/mol)

>  <smiles>  (1106) 
C=C(C)C(=O)Nc1cccc(S(=O)(=O)N2CCCCC2)c1O

>  <score_type>  (1106) 
oracle

>  <origin>  (1106) 
adg

>  <m_score__min__energy>  (1106) 
-14.92

>  <m_primary>  (1106) 
energy

$$$$
79:0
     RDKit          3D

 29 31  0  0  0  0  0  0  0  0999 V2000
   56.6120   22.5020   48.6430 C   0  0  0  0  0  0  0  0  0  0  0  0
   56.8140   23.9270   48.4110 N   0  0  0  0  0  0  0  0  0  0  0  0
   56.3220   24.6560   47.2800 C   0  0  0  0  0  0  0  0  0  0  0  0
   55.1510   24.4290   46.8750 O   0  0  0  0  0  0  0  0  0  0  0  0
   57.1590   25.6190   46.5390 C   0  0  0  0  0  0  0  0  0  0  0  0
   58.5530   25.4530   46.5390 C   0  0  0  0  0  0  0  0  0  0  0  0
   59.3660   26.3150   45.8040 C   0  0  0  0  0  0  0  0  0  0  0  0
   58.8010   27.3520   45.0640 C   0  0  0  0  0  0  0  0  0  0  0  0
   57.4160   27.5390   45.0510 C   0  0  0  0  0  0  0  0  0  0  0  0
   56.8810   28.6190   44.2730 N   0  0  0  0  0  0  0  0  0  0  0  0
   56.4070   29.8700   44.7840 C   0  0  0  0  0  0  0  0  0  0  0  0
   55.1640   30.0410   44.8830 O   0  0  0  0  0  0  0  0  0  0  0  0
   57.3310   30.9800   45.1330 C   0  0  0  0  0  0  0  0  0  0  0  0
   58.2650   30.7840   46.0810 C   0  0  0  0  0  0  0  0  0  0  0  0
   59.2170   31.8680   46.4930 C   0  0  0  0  0  0  0  0  0  0  0  0
   58.6080   33.1930   46.3140 N   0  0  0  0  0  0  0  0  0  0  0  0
   59.7540   34.4340   46.7520 S   0  0  0  0  0  0  0  0  0  0  0  0
   59.9700   35.3550   45.5840 O   0  0  0  0  0  0  0  0  0  0  0  0
   59.1940   35.2480   47.8860 O   0  0  0  0  0  0  0  0  0  0  0  0
   61.3040   33.7450   47.2400 C   0  0  0  0  0  0  0  0  0  0  0  0
   62.4120   33.8320   46.3870 C   0  0  0  0  0  0  0  0  0  0  0  0
   63.6420   33.2870   46.7710 C   0  0  0  0  0  0  0  0  0  0  0  0
   63.7700   32.6570   48.0100 C   0  0  0  0  0  0  0  0  0  0  0  0
   62.6710   32.5680   48.8660 C   0  0  0  0  0  0  0  0  0  0  0  0
   61.4400   33.1110   48.4840 C   0  0  0  0  0  0  0  0  0  0  0  0
   58.2020   33.3620   44.9170 C   0  0  0  0  0  0  0  0  0  0  0  0
   57.0870   32.3690   44.5670 C   0  0  0  0  0  0  0  0  0  0  0  0
   56.5850   26.6400   45.7570 C   0  0  0  0  0  0  0  0  0  0  0  0
   55.2010   26.7220   45.6360 O   0  0  0  0  0  0  0  0  0  0  0  0
  1  2  1  0
  2  3  1  0
  3  4  2  0
  3  5  1  0
  5  6  2  0
  6  7  1  0
  7  8  2  0
  8  9  1  0
  9 10  1  0
 10 11  1  0
 11 12  2  0
 11 13  1  0
 13 14  2  0
 14 15  1  0
 15 16  1  0
 16 17  1  0
 17 18  2  0
 17 19  2  0
 17 20  1  0
 20 21  2  0
 21 22  1  0
 22 23  2  0
 23 24  1  0
 24 25  2  0
 16 26  1  0
 26 27  1  0
  9 28  2  0
 28 29  1  0
 28  5  1  0
 27 13  1  0
 25 20  1  0
M  CHG  3   2  -1  10  -1  29  -1
M  END
>  <UniqueID>  (1107) 
73

>  <SMILES>  (1107) 
C[N-]C(=O)c1cccc([N-]C(=O)C2=CCN(S(=O)(=O)c3ccccc3)CC2)c1[O-]

>  <Energy>  (1107) 
59.760895697453236

>  <Genealogy>  (1107) 
C[N-]C(=O)c1cccc([N-]C(=O)C2=CCN(S(=O)(=O)c3ccccc3)CC2)c1[O-] (protonated)
C[N-]C(=O)c1cccc([N-]C(=O)C2=CCN(S(=O)(=O)c3ccccc3)CC2)c1[O-] (3D coordinates assigned)
C[N-]C(=O)c1cccc([N-]C(=O)C2=CCN(S(=O)(=O)c3ccccc3)CC2)c1[O-] (nonaromatic ring conformer: 59.760895697453236 kcal/mol)

>  <smiles>  (1107) 
CNC(=O)c1cccc(NC(=O)C2=CCN(S(=O)(=O)c3ccccc3)CC2)c1O

>  <score_type>  (1107) 
oracle

>  <origin>  (1107) 
adg

>  <m_score__min__energy>  (1107) 
-18.02

>  <m_primary>  (1107) 
energy

$$$$
1:0
     RDKit          3D

 27 29  0  0  0  0  0  0  0  0999 V2000
   55.8570   24.0830   44.3600 C   0  0  0  0  0  0  0  0  0  0  0  0
   54.8890   24.6350   45.7490 S   0  0  0  0  0  0  0  0  0  0  0  0
   55.2730   23.8850   46.9930 O   0  0  0  0  0  0  0  0  0  0  0  0
   53.4430   24.3650   45.4460 O   0  0  0  0  0  0  0  0  0  0  0  0
   55.0930   26.3420   45.9880 N   0  0  0  0  0  0  0  0  0  0  0  0
   56.3040   27.0900   45.8000 C   0  0  0  0  0  0  0  0  0  0  0  0
   57.5110   26.4690   46.1430 C   0  0  0  0  0  0  0  0  0  0  0  0
   58.7210   27.1470   46.0120 C   0  0  0  0  0  0  0  0  0  0  0  0
   58.7440   28.4480   45.5120 C   0  0  0  0  0  0  0  0  0  0  0  0
   57.5560   29.0780   45.1100 C   0  0  0  0  0  0  0  0  0  0  0  0
   57.6250   30.4490   44.5560 C   0  0  0  0  0  0  0  0  0  0  0  0
   57.4160   30.6990   43.1920 C   0  0  0  0  0  0  0  0  0  0  0  0
   57.5030   32.0050   42.7130 C   0  0  0  0  0  0  0  0  0  0  0  0
   57.8130   33.0500   43.5830 C   0  0  0  0  0  0  0  0  0  0  0  0
   58.0530   32.7690   44.9440 C   0  0  0  0  0  0  0  0  0  0  0  0
   58.3500   33.6980   45.8100 N   0  0  0  0  0  0  0  0  0  0  0  0
   58.9420   33.5100   47.1040 C   0  0  0  0  0  0  0  0  0  0  0  0
   58.9060   34.4590   47.9300 O   0  0  0  0  0  0  0  0  0  0  0  0
   59.5350   32.2200   47.5210 C   0  0  0  0  0  0  0  0  0  0  0  0
   60.7500   31.8280   47.1100 C   0  0  0  0  0  0  0  0  0  0  0  0
   61.2420   30.5730   47.4900 O   0  0  0  0  0  0  0  0  0  0  0  0
   60.3950   29.5820   48.0730 C   0  0  0  0  0  0  0  0  0  0  0  0
   59.3890   30.2510   49.0080 C   0  0  0  0  0  0  0  0  0  0  0  0
   58.7910   31.3700   48.3510 O   0  0  0  0  0  0  0  0  0  0  0  0
   57.9450   31.4850   45.3810 N   0  0  0  0  0  0  0  0  0  0  0  0
   56.3270   28.3960   45.2600 C   0  0  0  0  0  0  0  0  0  0  0  0
   55.1460   29.0140   44.8680 O   0  0  0  0  0  0  0  0  0  0  0  0
  1  2  1  0
  2  3  2  0
  2  4  2  0
  2  5  1  0
  5  6  1  0
  6  7  2  0
  7  8  1  0
  8  9  2  0
  9 10  1  0
 10 11  1  0
 11 12  2  0
 12 13  1  0
 13 14  2  0
 14 15  1  0
 15 16  2  3
 16 17  1  0
 17 18  2  0
 17 19  1  0
 19 20  2  0
 20 21  1  0
 21 22  1  0
 22 23  1  0
 23 24  1  0
 15 25  1  0
 10 26  2  0
 26 27  1  0
 26  6  1  0
 25 11  1  0
 24 19  1  0
M  CHG  3   5  -1  25  -1  27  -1
M  END
>  <UniqueID>  (1108) 
1

>  <SMILES>  (1108) 
CS(=O)(=O)[N-]c1cccc(-c2cccc(=NC(=O)C3=COCCO3)[n-]2)c1[O-]

>  <Energy>  (1108) 
62.484220549069285

>  <Genealogy>  (1108) 
CS(=O)(=O)[N-]c1cccc(-c2cccc(=NC(=O)C3=COCCO3)[n-]2)c1[O-] (protonated)
CS(=O)(=O)[N-]c1cccc(-c2cccc(=NC(=O)C3=COCCO3)[n-]2)c1[O-] (3D coordinates assigned)
CS(=O)(=O)[N-]c1cccc(-c2cccc(=NC(=O)C3=COCCO3)[n-]2)c1[O-] (nonaromatic ring conformer: 62.484220549069285 kcal/mol)

>  <smiles>  (1108) 
CS(=O)(=O)Nc1cccc(-c2cccc(=NC(=O)C3=COCCO3)[nH]2)c1O

>  <score_type>  (1108) 
oracle

>  <origin>  (1108) 
adg

>  <m_score__min__energy>  (1108) 
-15.970000000000001

>  <m_primary>  (1108) 
energy

$$$$
9:0
     RDKit          3D

 25 26  0  0  0  0  0  0  0  0999 V2000
   57.0350   29.6910   52.0410 N   0  0  0  0  0  0  0  0  0  0  0  0
   58.3000   30.8400   51.7730 S   0  0  0  0  0  0  0  0  0  0  0  0
   59.5640   30.3190   52.3950 O   0  0  0  0  0  0  0  0  0  0  0  0
   57.9320   32.1510   52.4090 O   0  0  0  0  0  0  0  0  0  0  0  0
   58.5320   31.0730   50.0440 C   0  0  0  0  0  0  0  0  0  0  0  0
   58.8280   29.9770   49.2230 C   0  0  0  0  0  0  0  0  0  0  0  0
   59.0150   30.1570   47.8500 C   0  0  0  0  0  0  0  0  0  0  0  0
   58.8920   31.4330   47.2800 C   0  0  0  0  0  0  0  0  0  0  0  0
   59.0780   31.6150   45.7990 C   0  0  0  0  0  0  0  0  0  0  0  0
   57.8220   31.3820   45.0970 N   0  0  0  0  0  0  0  0  0  0  0  0
   57.6230   31.6690   43.7100 C   0  0  0  0  0  0  0  0  0  0  0  0
   58.1810   32.6680   43.1780 O   0  0  0  0  0  0  0  0  0  0  0  0
   56.6750   30.8210   42.9190 C   0  0  0  0  0  0  0  0  0  0  0  0
   56.6750   29.4350   43.3840 N   0  0  0  0  0  0  0  0  0  0  0  0
   56.2920   28.9850   44.6910 C   0  0  0  0  0  0  0  0  0  0  0  0
   55.2330   29.4350   45.2010 O   0  0  0  0  0  0  0  0  0  0  0  0
   57.0730   27.9800   45.4370 C   0  0  0  0  0  0  0  0  0  0  0  0
   58.4730   28.0790   45.4580 C   0  0  0  0  0  0  0  0  0  0  0  0
   59.2370   27.1200   46.1280 C   0  0  0  0  0  0  0  0  0  0  0  0
   58.6110   26.0630   46.7900 C   0  0  0  0  0  0  0  0  0  0  0  0
   57.2190   25.9470   46.7610 C   0  0  0  0  0  0  0  0  0  0  0  0
   56.4480   26.8880   46.0700 C   0  0  0  0  0  0  0  0  0  0  0  0
   55.0700   26.7140   45.9900 O   0  0  0  0  0  0  0  0  0  0  0  0
   58.6080   32.5310   48.1060 C   0  0  0  0  0  0  0  0  0  0  0  0
   58.4240   32.3510   49.4800 C   0  0  0  0  0  0  0  0  0  0  0  0
  1  2  1  0
  2  3  2  0
  2  4  2  0
  2  5  1  0
  5  6  2  0
  6  7  1  0
  7  8  2  0
  8  9  1  0
  9 10  1  0
 10 11  1  0
 11 12  2  0
 11 13  1  0
 13 14  1  0
 14 15  1  0
 15 16  2  0
 15 17  1  0
 17 18  2  0
 18 19  1  0
 19 20  2  0
 20 21  1  0
 21 22  2  0
 22 23  1  0
  8 24  1  0
 24 25  2  0
 25  5  1  0
 22 17  1  0
M  CHG  4   1  -1  10  -1  14  -1  23  -1
M  END
>  <UniqueID>  (1109) 
6

>  <SMILES>  (1109) 
[NH-]S(=O)(=O)c1ccc(C[N-]C(=O)C[N-]C(=O)c2ccccc2[O-])cc1

>  <Energy>  (1109) 
36.046049747374305

>  <Genealogy>  (1109) 
[NH-]S(=O)(=O)c1ccc(C[N-]C(=O)C[N-]C(=O)c2ccccc2[O-])cc1 (protonated)
[NH-]S(=O)(=O)c1ccc(C[N-]C(=O)C[N-]C(=O)c2ccccc2[O-])cc1 (3D coordinates assigned)
[NH-]S(=O)(=O)c1ccc(C[N-]C(=O)C[N-]C(=O)c2ccccc2[O-])cc1 (optimized conformer: 36.046049747374305 kcal/mol)

>  <smiles>  (1109) 
NS(=O)(=O)c1ccc(CNC(=O)CNC(=O)c2ccccc2O)cc1

>  <score_type>  (1109) 
oracle

>  <origin>  (1109) 
adg

>  <m_score__min__energy>  (1109) 
-15.84

>  <m_primary>  (1109) 
energy

$$$$
14:0
     RDKit          3D

 32 35  0  0  0  0  0  0  0  0999 V2000
   59.6220   29.7950   44.9890 C   0  0  0  0  0  0  0  0  0  0  0  0
   59.5330   29.3750   46.2590 C   0  0  0  0  0  0  0  0  0  0  0  0
   58.8440   28.2480   46.7170 C   0  0  0  0  0  0  0  0  0  0  0  0
   58.2000   27.3280   45.9730 C   0  0  0  0  0  0  0  0  0  0  0  0
   57.4850   26.1680   46.5340 C   0  0  0  0  0  0  0  0  0  0  0  0
   58.1080   25.0960   47.0530 N   0  0  0  0  0  0  0  0  0  0  0  0
   57.0940   24.2590   47.3590 C   0  0  0  0  0  0  0  0  0  0  0  0
   57.2800   23.1320   47.8880 O   0  0  0  0  0  0  0  0  0  0  0  0
   55.8640   24.7200   47.0440 N   0  0  0  0  0  0  0  0  0  0  0  0
   56.1290   25.9240   46.5120 C   0  0  0  0  0  0  0  0  0  0  0  0
   55.1550   26.7590   45.9790 O   0  0  0  0  0  0  0  0  0  0  0  0
   59.0020   28.2280   48.0980 C   0  0  0  0  0  0  0  0  0  0  0  0
   59.7660   29.3310   48.4240 C   0  0  0  0  0  0  0  0  0  0  0  0
   60.2180   29.6860   49.8080 C   0  0  0  0  0  0  0  0  0  0  0  0
   60.0920   30.0230   47.3120 N   0  0  0  0  0  0  0  0  0  0  0  0
   60.9040   31.2090   47.2720 C   0  0  0  0  0  0  0  0  0  0  0  0
   62.2990   31.0880   47.3480 C   0  0  0  0  0  0  0  0  0  0  0  0
   63.1080   32.2260   47.3270 C   0  0  0  0  0  0  0  0  0  0  0  0
   62.5300   33.4930   47.2200 C   0  0  0  0  0  0  0  0  0  0  0  0
   61.1420   33.6260   47.1380 C   0  0  0  0  0  0  0  0  0  0  0  0
   60.3160   32.4910   47.1730 C   0  0  0  0  0  0  0  0  0  0  0  0
   58.8500   32.6440   47.0470 C   0  0  0  0  0  0  0  0  0  0  0  0
   58.0970   31.7540   47.5230 O   0  0  0  0  0  0  0  0  0  0  0  0
   58.2570   33.7930   46.4310 N   0  0  0  0  0  0  0  0  0  0  0  0
   58.2790   34.0770   45.0010 C   0  0  0  0  0  0  0  0  0  0  0  0
   57.7670   32.8820   44.2520 C   0  0  0  0  0  0  0  0  0  0  0  0
   58.0840   32.7150   42.8950 C   0  0  0  0  0  0  0  0  0  0  0  0
   57.5850   31.6200   42.1840 C   0  0  0  0  0  0  0  0  0  0  0  0
   56.7590   30.6880   42.8210 C   0  0  0  0  0  0  0  0  0  0  0  0
   56.4270   30.8550   44.1690 C   0  0  0  0  0  0  0  0  0  0  0  0
   55.6220   29.9550   44.7850 F   0  0  0  0  0  0  0  0  0  0  0  0
   56.9240   31.9510   44.8820 C   0  0  0  0  0  0  0  0  0  0  0  0
  1  2  2  0
  2  3  1  0
  3  4  2  3
  4  5  1  0
  5  6  1  0
  6  7  1  0
  7  8  2  0
  7  9  1  0
  9 10  1  0
 10 11  1  0
  3 12  1  0
 12 13  2  0
 13 14  1  0
 13 15  1  0
 15 16  1  0
 16 17  2  0
 17 18  1  0
 18 19  2  0
 19 20  1  0
 20 21  2  0
 21 22  1  0
 22 23  2  0
 22 24  1  0
 24 25  1  0
 25 26  1  0
 26 27  2  0
 27 28  1  0
 28 29  2  0
 29 30  1  0
 30 31  1  0
 30 32  2  0
 15  2  1  0
 21 16  1  0
 32 26  1  0
 10  5  2  0
M  CHG  4   6  -1   9  -1  11  -1  24  -1
M  END
>  <UniqueID>  (1110) 
10

>  <SMILES>  (1110) 
C=c1c(=Cc2[n-]c(=O)[n-]c2[O-])cc(C)n1-c1ccccc1C(=O)[N-]Cc1cccc(F)c1

>  <Energy>  (1110) 
127.27976949789753

>  <Genealogy>  (1110) 
C=c1c(=Cc2[n-]c(=O)[n-]c2[O-])cc(C)n1-c1ccccc1C(=O)[N-]Cc1cccc(F)c1 (protonated)
C=c1c(=Cc2[n-]c(=O)[n-]c2[O-])cc(C)n1-c1ccccc1C(=O)[N-]Cc1cccc(F)c1 (3D coordinates assigned)
C=c1c(=Cc2[n-]c(=O)[n-]c2[O-])cc(C)n1-c1ccccc1C(=O)[N-]Cc1cccc(F)c1 (optimized conformer: 127.27976949789753 kcal/mol)

>  <smiles>  (1110) 
C=c1c(=Cc2[nH]c(=O)[nH]c2O)cc(C)n1-c1ccccc1C(=O)NCc1cccc(F)c1

>  <score_type>  (1110) 
oracle

>  <origin>  (1110) 
adg

>  <m_score__min__energy>  (1110) 
-17.84

>  <m_primary>  (1110) 
energy

$$$$
31:0
     RDKit          3D

 32 35  0  0  0  0  0  0  0  0999 V2000
   57.9970   29.6880   44.1620 C   0  0  0  0  0  0  0  0  0  0  0  0
   58.1590   29.3360   45.4460 C   0  0  0  0  0  0  0  0  0  0  0  0
   58.0650   28.0430   45.9720 C   0  0  0  0  0  0  0  0  0  0  0  0
   57.8270   26.9000   45.3000 C   0  0  0  0  0  0  0  0  0  0  0  0
   57.2680   25.6850   45.9340 C   0  0  0  0  0  0  0  0  0  0  0  0
   55.9080   25.6320   46.2700 C   0  0  0  0  0  0  0  0  0  0  0  0
   55.0670   26.7040   45.9930 O   0  0  0  0  0  0  0  0  0  0  0  0
   55.3980   24.5200   46.8590 N   0  0  0  0  0  0  0  0  0  0  0  0
   56.1870   23.4520   47.1450 C   0  0  0  0  0  0  0  0  0  0  0  0
   55.5440   22.1300   47.8500 S   0  0  0  0  0  0  0  0  0  0  0  0
   57.5120   23.4910   46.8570 N   0  0  0  0  0  0  0  0  0  0  0  0
   58.0720   24.5810   46.2700 C   0  0  0  0  0  0  0  0  0  0  0  0
   59.3120   24.5930   46.0470 O   0  0  0  0  0  0  0  0  0  0  0  0
   58.3190   28.1570   47.3330 C   0  0  0  0  0  0  0  0  0  0  0  0
   58.5370   29.4980   47.5840 C   0  0  0  0  0  0  0  0  0  0  0  0
   58.8990   30.0550   48.9250 C   0  0  0  0  0  0  0  0  0  0  0  0
   58.4580   30.2110   46.4380 N   0  0  0  0  0  0  0  0  0  0  0  0
   58.6140   31.6350   46.3070 C   0  0  0  0  0  0  0  0  0  0  0  0
   57.5030   32.4050   45.9330 C   0  0  0  0  0  0  0  0  0  0  0  0
   57.6300   33.7790   45.7330 C   0  0  0  0  0  0  0  0  0  0  0  0
   58.8730   34.3930   45.8890 C   0  0  0  0  0  0  0  0  0  0  0  0
   59.9880   33.6390   46.2600 C   0  0  0  0  0  0  0  0  0  0  0  0
   59.8700   32.2590   46.5090 C   0  0  0  0  0  0  0  0  0  0  0  0
   61.0660   31.4490   46.8710 C   0  0  0  0  0  0  0  0  0  0  0  0
   61.1790   30.3070   46.3460 O   0  0  0  0  0  0  0  0  0  0  0  0
   62.1150   31.8990   47.7740 N   0  0  0  0  0  0  0  0  0  0  0  0
   61.6330   32.3290   49.1070 C   0  0  0  0  0  0  0  0  0  0  0  0
   62.7880   32.8390   49.9980 C   0  0  0  0  0  0  0  0  0  0  0  0
   64.0950   32.6680   49.3350 N   0  0  0  0  0  0  0  0  0  0  0  0
   65.1720   33.1730   50.2020 C   0  0  0  0  0  0  0  0  0  0  0  0
   64.1100   33.3800   48.0430 C   0  0  0  0  0  0  0  0  0  0  0  0
   62.9300   32.9540   47.1400 C   0  0  0  0  0  0  0  0  0  0  0  0
  1  2  2  0
  2  3  1  0
  3  4  2  3
  4  5  1  0
  5  6  2  0
  6  7  1  0
  6  8  1  0
  8  9  1  0
  9 10  2  0
  9 11  1  0
 11 12  1  0
 12 13  2  0
  3 14  1  0
 14 15  2  0
 15 16  1  0
 15 17  1  0
 17 18  1  0
 18 19  2  0
 19 20  1  0
 20 21  2  0
 21 22  1  0
 22 23  2  0
 23 24  1  0
 24 25  2  0
 24 26  1  0
 26 27  1  0
 27 28  1  0
 28 29  1  0
 29 30  1  0
 29 31  1  0
 31 32  1  0
 17  2  1  0
 23 18  1  0
 32 26  1  0
 12  5  1  0
M  CHG  4   7  -1   8  -1  11  -1  26   1
M  END
>  <UniqueID>  (1111) 
26

>  <SMILES>  (1111) 
C=c1c(=Cc2c([O-])[n-]c(=S)[n-]c2=O)cc(C)n1-c1ccccc1C(=O)[NH+]1CCN(C)CC1

>  <Energy>  (1111) 
121.60226378794829

>  <Genealogy>  (1111) 
C=c1c(=Cc2c([O-])[n-]c(=S)[n-]c2=O)cc(C)n1-c1ccccc1C(=O)[NH+]1CCN(C)CC1 (protonated)
C=c1c(=Cc2c([O-])[n-]c(=S)[n-]c2=O)cc(C)n1-c1ccccc1C(=O)[NH+]1CCN(C)CC1 (3D coordinates assigned)
C=c1c(=Cc2c([O-])[n-]c(=S)[n-]c2=O)cc(C)n1-c1ccccc1C(=O)[NH+]1CCN(C)CC1 (nonaromatic ring conformer: 121.60226378794829 kcal/mol)

>  <smiles>  (1111) 
C=c1c(=Cc2c(O)[nH]c(=S)[nH]c2=O)cc(C)n1-c1ccccc1C(=O)N1CCN(C)CC1

>  <score_type>  (1111) 
oracle

>  <origin>  (1111) 
adg

>  <m_score__min__energy>  (1111) 
-15.44

>  <m_primary>  (1111) 
energy

$$$$
39:0
     RDKit          3D

 34 37  0  0  0  0  0  0  0  0999 V2000
   59.6820   29.6650   47.2290 C   0  0  0  0  0  0  0  0  0  0  0  0
   59.0010   30.2040   46.2060 C   0  0  0  0  0  0  0  0  0  0  0  0
   58.3500   29.5240   45.1610 C   0  0  0  0  0  0  0  0  0  0  0  0
   58.3560   28.2220   44.8120 C   0  0  0  0  0  0  0  0  0  0  0  0
   57.4990   27.1720   45.3940 C   0  0  0  0  0  0  0  0  0  0  0  0
   56.1270   27.3880   45.6100 C   0  0  0  0  0  0  0  0  0  0  0  0
   55.5310   28.5890   45.2460 O   0  0  0  0  0  0  0  0  0  0  0  0
   55.3720   26.4160   46.1850 N   0  0  0  0  0  0  0  0  0  0  0  0
   55.9230   25.2380   46.5750 C   0  0  0  0  0  0  0  0  0  0  0  0
   55.2020   24.3510   47.1010 O   0  0  0  0  0  0  0  0  0  0  0  0
   57.2510   25.0180   46.4020 N   0  0  0  0  0  0  0  0  0  0  0  0
   58.0490   25.9570   45.8310 C   0  0  0  0  0  0  0  0  0  0  0  0
   59.2800   25.7230   45.6940 O   0  0  0  0  0  0  0  0  0  0  0  0
   57.6350   30.4810   44.4610 C   0  0  0  0  0  0  0  0  0  0  0  0
   57.9070   31.6970   45.0500 C   0  0  0  0  0  0  0  0  0  0  0  0
   57.3380   33.0080   44.5970 C   0  0  0  0  0  0  0  0  0  0  0  0
   58.7330   31.5330   46.1080 N   0  0  0  0  0  0  0  0  0  0  0  0
   59.1950   32.5800   46.9820 C   0  0  0  0  0  0  0  0  0  0  0  0
   59.6740   33.7840   46.4460 C   0  0  0  0  0  0  0  0  0  0  0  0
   60.1180   34.8020   47.2930 C   0  0  0  0  0  0  0  0  0  0  0  0
   60.0940   34.6240   48.6780 C   0  0  0  0  0  0  0  0  0  0  0  0
   59.6340   33.4160   49.2260 C   0  0  0  0  0  0  0  0  0  0  0  0
   59.6320   33.2310   50.6890 C   0  0  0  0  0  0  0  0  0  0  0  0
   58.8520   33.9260   51.3920 O   0  0  0  0  0  0  0  0  0  0  0  0
   60.5240   32.3180   51.3460 N   0  0  0  0  0  0  0  0  0  0  0  0
   61.9860   32.3620   51.3100 C   0  0  0  0  0  0  0  0  0  0  0  0
   62.4920   32.5040   49.8960 C   0  0  0  0  0  0  0  0  0  0  0  0
   62.3180   31.4560   48.9760 C   0  0  0  0  0  0  0  0  0  0  0  0
   62.7570   31.5940   47.6560 C   0  0  0  0  0  0  0  0  0  0  0  0
   63.3840   32.7740   47.2480 C   0  0  0  0  0  0  0  0  0  0  0  0
   63.5770   33.8150   48.1590 C   0  0  0  0  0  0  0  0  0  0  0  0
   63.1380   33.6830   49.4800 C   0  0  0  0  0  0  0  0  0  0  0  0
   63.3370   34.7050   50.3520 F   0  0  0  0  0  0  0  0  0  0  0  0
   59.1670   32.4040   48.3740 C   0  0  0  0  0  0  0  0  0  0  0  0
  1  2  2  0
  2  3  1  0
  3  4  2  3
  4  5  1  0
  5  6  2  0
  6  7  1  0
  6  8  1  0
  8  9  1  0
  9 10  2  0
  9 11  1  0
 11 12  1  0
 12 13  2  0
  3 14  1  0
 14 15  2  0
 15 16  1  0
 15 17  1  0
 17 18  1  0
 18 19  2  0
 19 20  1  0
 20 21  2  0
 21 22  1  0
 22 23  1  0
 23 24  2  0
 23 25  1  0
 25 26  1  0
 26 27  1  0
 27 28  2  0
 28 29  1  0
 29 30  2  0
 30 31  1  0
 31 32  2  0
 32 33  1  0
 22 34  2  0
 17  2  1  0
 34 18  1  0
 12  5  1  0
 32 27  1  0
M  CHG  4   7  -1   8  -1  11  -1  25  -1
M  END
>  <UniqueID>  (1112) 
33

>  <SMILES>  (1112) 
C=c1c(=Cc2c([O-])[n-]c(=O)[n-]c2=O)cc(C)n1-c1cccc(C(=O)[N-]Cc2ccccc2F)c1

>  <Energy>  (1112) 
105.98820926966962

>  <Genealogy>  (1112) 
C=c1c(=Cc2c([O-])[n-]c(=O)[n-]c2=O)cc(C)n1-c1cccc(C(=O)[N-]Cc2ccccc2F)c1 (protonated)
C=c1c(=Cc2c([O-])[n-]c(=O)[n-]c2=O)cc(C)n1-c1cccc(C(=O)[N-]Cc2ccccc2F)c1 (3D coordinates assigned)
C=c1c(=Cc2c([O-])[n-]c(=O)[n-]c2=O)cc(C)n1-c1cccc(C(=O)[N-]Cc2ccccc2F)c1 (optimized conformer: 105.98820926966962 kcal/mol)

>  <smiles>  (1112) 
C=c1c(=Cc2c(O)[nH]c(=O)[nH]c2=O)cc(C)n1-c1cccc(C(=O)NCc2ccccc2F)c1

>  <score_type>  (1112) 
oracle

>  <origin>  (1112) 
adg

>  <m_score__min__energy>  (1112) 
-17.77

>  <m_primary>  (1112) 
energy

$$$$
55:0
     RDKit          3D

 33 36  0  0  0  0  0  0  0  0999 V2000
   60.0630   29.6600   45.0410 C   0  0  0  0  0  0  0  0  0  0  0  0
   60.0990   29.1540   46.2820 C   0  0  0  0  0  0  0  0  0  0  0  0
   59.6040   27.9120   46.7170 C   0  0  0  0  0  0  0  0  0  0  0  0
   59.0860   26.8720   46.0350 C   0  0  0  0  0  0  0  0  0  0  0  0
   57.6630   26.5050   45.9780 C   0  0  0  0  0  0  0  0  0  0  0  0
   57.1870   25.2700   46.2250 N   0  0  0  0  0  0  0  0  0  0  0  0
   55.8480   25.4420   46.2030 C   0  0  0  0  0  0  0  0  0  0  0  0
   55.0400   24.4940   46.3800 O   0  0  0  0  0  0  0  0  0  0  0  0
   55.4440   26.7120   45.9860 N   0  0  0  0  0  0  0  0  0  0  0  0
   56.6040   27.3750   45.8590 C   0  0  0  0  0  0  0  0  0  0  0  0
   56.6840   28.7480   45.6400 O   0  0  0  0  0  0  0  0  0  0  0  0
   59.7600   27.8920   48.0930 C   0  0  0  0  0  0  0  0  0  0  0  0
   60.3630   29.0800   48.4460 C   0  0  0  0  0  0  0  0  0  0  0  0
   60.7870   29.4420   49.8370 C   0  0  0  0  0  0  0  0  0  0  0  0
   60.5630   29.8480   47.3520 N   0  0  0  0  0  0  0  0  0  0  0  0
   61.1890   31.1430   47.3530 C   0  0  0  0  0  0  0  0  0  0  0  0
   62.5860   31.2110   47.2650 C   0  0  0  0  0  0  0  0  0  0  0  0
   63.2210   32.4520   47.2780 C   0  0  0  0  0  0  0  0  0  0  0  0
   62.4890   33.5890   47.3780 N   0  0  0  0  0  0  0  0  0  0  0  0
   61.1340   33.5610   47.4710 C   0  0  0  0  0  0  0  0  0  0  0  0
   60.4430   32.3400   47.4710 C   0  0  0  0  0  0  0  0  0  0  0  0
   58.6760   32.3750   47.5890 S   0  0  0  0  0  0  0  0  0  0  0  0
   58.2820   32.7680   48.9850 O   0  0  0  0  0  0  0  0  0  0  0  0
   58.1190   31.0070   47.3050 O   0  0  0  0  0  0  0  0  0  0  0  0
   57.9730   33.4960   46.4730 N   0  0  0  0  0  0  0  0  0  0  0  0
   58.3330   33.5520   45.0910 C   0  0  0  0  0  0  0  0  0  0  0  0
   59.1350   34.4380   44.6870 O   0  0  0  0  0  0  0  0  0  0  0  0
   57.7400   32.5920   44.1320 C   0  0  0  0  0  0  0  0  0  0  0  0
   57.9910   32.7130   42.7520 C   0  0  0  0  0  0  0  0  0  0  0  0
   57.4600   31.7840   41.8520 C   0  0  0  0  0  0  0  0  0  0  0  0
   56.6700   30.7310   42.3170 C   0  0  0  0  0  0  0  0  0  0  0  0
   56.4100   30.6030   43.6830 C   0  0  0  0  0  0  0  0  0  0  0  0
   56.9420   31.5270   44.5880 C   0  0  0  0  0  0  0  0  0  0  0  0
  1  2  2  0
  2  3  1  0
  3  4  2  3
  4  5  1  0
  5  6  1  0
  6  7  1  0
  7  8  2  0
  7  9  1  0
  9 10  1  0
 10 11  1  0
  3 12  1  0
 12 13  2  0
 13 14  1  0
 13 15  1  0
 15 16  1  0
 16 17  2  0
 17 18  1  0
 18 19  2  0
 19 20  1  0
 20 21  2  0
 21 22  1  0
 22 23  2  0
 22 24  2  0
 22 25  1  0
 25 26  1  0
 26 27  2  0
 26 28  1  0
 28 29  2  0
 29 30  1  0
 30 31  2  0
 31 32  1  0
 32 33  2  0
 15  2  1  0
 21 16  1  0
 33 28  1  0
 10  5  2  0
M  CHG  3   6  -1   9  -1  25  -1
M  END
>  <UniqueID>  (1113) 
47

>  <SMILES>  (1113) 
C=c1c(=Cc2[n-]c(=O)[n-]c2O)cc(C)n1-c1ccncc1S(=O)(=O)[N-]C(=O)c1ccccc1

>  <Energy>  (1113) 
128.76976998993402

>  <Genealogy>  (1113) 
C=c1c(=Cc2[n-]c(=O)[n-]c2O)cc(C)n1-c1ccncc1S(=O)(=O)[N-]C(=O)c1ccccc1 (protonated)
C=c1c(=Cc2[n-]c(=O)[n-]c2O)cc(C)n1-c1ccncc1S(=O)(=O)[N-]C(=O)c1ccccc1 (3D coordinates assigned)
C=c1c(=Cc2[n-]c(=O)[n-]c2O)cc(C)n1-c1ccncc1S(=O)(=O)[N-]C(=O)c1ccccc1 (optimized conformer: 128.76976998993402 kcal/mol)

>  <smiles>  (1113) 
C=c1c(=Cc2[nH]c(=O)[nH]c2O)cc(C)n1-c1ccncc1S(=O)(=O)NC(=O)c1ccccc1

>  <score_type>  (1113) 
oracle

>  <origin>  (1113) 
adg

>  <m_score__min__energy>  (1113) 
-14.76

>  <m_primary>  (1113) 
energy

$$$$
62:0
     RDKit          3D

 28 30  0  0  0  0  0  0  0  0999 V2000
   63.0780   33.2460   46.7540 C   0  0  0  0  0  0  0  0  0  0  0  0
   62.0940   34.1480   46.5040 N   0  0  0  0  0  0  0  0  0  0  0  0
   60.9670   34.2230   47.2640 C   0  0  0  0  0  0  0  0  0  0  0  0
   59.7130   35.4160   46.7750 S   0  0  0  0  0  0  0  0  0  0  0  0
   59.2370   34.5390   45.2430 C   0  0  0  0  0  0  0  0  0  0  0  0
   57.8940   33.8730   45.3690 C   0  0  0  0  0  0  0  0  0  0  0  0
   56.9290   34.3650   44.7260 O   0  0  0  0  0  0  0  0  0  0  0  0
   57.6590   32.6640   46.1150 N   0  0  0  0  0  0  0  0  0  0  0  0
   57.8370   31.4190   45.7810 C   0  0  0  0  0  0  0  0  0  0  0  0
   57.1380   30.8520   44.7740 N   0  0  0  0  0  0  0  0  0  0  0  0
   57.4620   29.5440   44.5970 C   0  0  0  0  0  0  0  0  0  0  0  0
   58.4140   29.0560   45.4840 C   0  0  0  0  0  0  0  0  0  0  0  0
   59.0320   27.6940   45.4480 C   0  0  0  0  0  0  0  0  0  0  0  0
   57.9950   26.6540   45.7750 C   0  0  0  0  0  0  0  0  0  0  0  0
   58.3860   25.3810   46.2210 C   0  0  0  0  0  0  0  0  0  0  0  0
   57.4210   24.4300   46.5730 C   0  0  0  0  0  0  0  0  0  0  0  0
   57.8140   23.1690   47.0020 O   0  0  0  0  0  0  0  0  0  0  0  0
   56.0620   24.7490   46.4910 C   0  0  0  0  0  0  0  0  0  0  0  0
   55.6650   26.0190   46.0630 C   0  0  0  0  0  0  0  0  0  0  0  0
   54.3150   26.3380   45.9890 O   0  0  0  0  0  0  0  0  0  0  0  0
   56.6280   26.9710   45.7090 C   0  0  0  0  0  0  0  0  0  0  0  0
   58.8820   30.3080   46.5050 S   0  0  0  0  0  0  0  0  0  0  0  0
   60.8060   33.3510   48.3700 C   0  0  0  0  0  0  0  0  0  0  0  0
   59.6340   33.4070   49.2810 C   0  0  0  0  0  0  0  0  0  0  0  0
   59.6210   34.2200   50.2430 O   0  0  0  0  0  0  0  0  0  0  0  0
   58.5210   32.6020   49.0720 O   0  0  0  0  0  0  0  0  0  0  0  0
   61.8150   32.4030   48.6180 C   0  0  0  0  0  0  0  0  0  0  0  0
   62.9510   32.3510   47.8120 C   0  0  0  0  0  0  0  0  0  0  0  0
  1  2  2  0
  2  3  1  0
  3  4  1  0
  4  5  1  0
  5  6  1  0
  6  7  2  0
  6  8  1  0
  8  9  2  0
  9 10  1  0
 10 11  1  0
 11 12  2  0
 12 13  1  0
 13 14  1  0
 14 15  2  0
 15 16  1  0
 16 17  1  0
 16 18  2  0
 18 19  1  0
 19 20  1  0
 19 21  2  0
 12 22  1  0
  3 23  2  0
 23 24  1  0
 24 25  2  0
 24 26  1  0
 23 27  1  0
 27 28  2  0
 28  1  1  0
 22  9  1  0
 21 14  1  0
M  CHG  4  10  -1  17  -1  20  -1  26  -1
M  END
>  <UniqueID>  (1114) 
52

>  <SMILES>  (1114) 
O=C(CSc1ncccc1C(=O)[O-])/N=c1/[n-]cc(Cc2cc([O-])cc([O-])c2)s1

>  <Energy>  (1114) 
77.11044150898792

>  <Genealogy>  (1114) 
O=C(CSc1ncccc1C(=O)[O-])N=c1[n-]cc(Cc2cc([O-])cc([O-])c2)s1 (protonated)
O=C(CSc1ncccc1C(=O)[O-])/N=c1/[n-]cc(Cc2cc([O-])cc([O-])c2)s1 (cis-trans isomerization)
O=C(CSc1ncccc1C(=O)[O-])/N=c1/[n-]cc(Cc2cc([O-])cc([O-])c2)s1 (3D coordinates assigned)
O=C(CSc1ncccc1C(=O)[O-])/N=c1/[n-]cc(Cc2cc([O-])cc([O-])c2)s1 (optimized conformer: 77.11044150898792 kcal/mol)

>  <smiles>  (1114) 
O=C(CSc1ncccc1C(=O)O)N=c1[nH]cc(Cc2cc(O)cc(O)c2)s1

>  <score_type>  (1114) 
oracle

>  <origin>  (1114) 
adg

>  <m_score__min__energy>  (1114) 
-17.73

>  <m_primary>  (1114) 
energy

$$$$
64:0
     RDKit          3D

 32 35  0  0  0  0  0  0  0  0999 V2000
   58.6180   30.7410   47.6470 C   0  0  0  0  0  0  0  0  0  0  0  0
   58.4940   30.6880   46.3100 C   0  0  0  0  0  0  0  0  0  0  0  0
   58.3630   29.5280   45.5270 C   0  0  0  0  0  0  0  0  0  0  0  0
   58.5030   28.2250   45.8430 C   0  0  0  0  0  0  0  0  0  0  0  0
   57.4110   27.2500   45.9680 C   0  0  0  0  0  0  0  0  0  0  0  0
   57.5370   26.0650   46.5900 N   0  0  0  0  0  0  0  0  0  0  0  0
   56.2810   25.5650   46.5630 C   0  0  0  0  0  0  0  0  0  0  0  0
   55.9900   24.4420   47.0490 O   0  0  0  0  0  0  0  0  0  0  0  0
   55.3620   26.3680   45.9880 N   0  0  0  0  0  0  0  0  0  0  0  0
   56.0910   27.4390   45.6290 C   0  0  0  0  0  0  0  0  0  0  0  0
   55.5580   28.5740   45.0240 O   0  0  0  0  0  0  0  0  0  0  0  0
   58.0430   29.9540   44.2510 C   0  0  0  0  0  0  0  0  0  0  0  0
   58.0530   31.3320   44.2740 C   0  0  0  0  0  0  0  0  0  0  0  0
   57.7670   32.2020   43.0860 C   0  0  0  0  0  0  0  0  0  0  0  0
   58.3380   31.7870   45.5180 N   0  0  0  0  0  0  0  0  0  0  0  0
   58.3890   33.2080   45.9030 C   0  0  0  0  0  0  0  0  0  0  0  0
   59.6310   33.5070   46.7060 C   0  0  0  0  0  0  0  0  0  0  0  0
   60.9000   33.4450   46.1120 C   0  0  0  0  0  0  0  0  0  0  0  0
   62.0490   33.7210   46.8600 C   0  0  0  0  0  0  0  0  0  0  0  0
   61.9430   34.0700   48.2170 C   0  0  0  0  0  0  0  0  0  0  0  0
   63.0940   34.3460   49.0270 N   0  0  0  0  0  0  0  0  0  0  0  0
   63.8890   33.2020   50.0590 S   0  0  0  0  0  0  0  0  0  0  0  0
   65.2160   32.8280   49.4580 O   0  0  0  0  0  0  0  0  0  0  0  0
   64.1300   33.8330   51.4010 O   0  0  0  0  0  0  0  0  0  0  0  0
   62.8690   31.7820   50.2760 C   0  0  0  0  0  0  0  0  0  0  0  0
   62.2590   31.1620   49.1760 C   0  0  0  0  0  0  0  0  0  0  0  0
   61.4540   30.0320   49.3650 C   0  0  0  0  0  0  0  0  0  0  0  0
   61.2600   29.5170   50.6520 C   0  0  0  0  0  0  0  0  0  0  0  0
   61.8660   30.1320   51.7500 C   0  0  0  0  0  0  0  0  0  0  0  0
   62.6690   31.2650   51.5650 C   0  0  0  0  0  0  0  0  0  0  0  0
   60.6760   34.1570   48.8020 C   0  0  0  0  0  0  0  0  0  0  0  0
   59.5270   33.8780   48.0570 C   0  0  0  0  0  0  0  0  0  0  0  0
  1  2  2  0
  2  3  1  0
  3  4  2  3
  4  5  1  0
  5  6  1  0
  6  7  1  0
  7  8  2  0
  7  9  1  0
  9 10  1  0
 10 11  1  0
  3 12  1  0
 12 13  2  0
 13 14  1  0
 13 15  1  0
 15 16  1  0
 16 17  1  0
 17 18  2  0
 18 19  1  0
 19 20  2  0
 20 21  1  0
 21 22  1  0
 22 23  2  0
 22 24  2  0
 22 25  1  0
 25 26  2  0
 26 27  1  0
 27 28  2  0
 28 29  1  0
 29 30  2  0
 20 31  1  0
 31 32  2  0
 15  2  1  0
 32 17  1  0
 10  5  2  0
 30 25  1  0
M  CHG  3   6  -1   9  -1  21  -1
M  END
>  <UniqueID>  (1115) 
54

>  <SMILES>  (1115) 
C=c1c(=Cc2[n-]c(=O)[n-]c2O)cc(C)n1Cc1ccc([N-]S(=O)(=O)c2ccccc2)cc1

>  <Energy>  (1115) 
126.85186106450516

>  <Genealogy>  (1115) 
C=c1c(=Cc2[n-]c(=O)[n-]c2O)cc(C)n1Cc1ccc([N-]S(=O)(=O)c2ccccc2)cc1 (protonated)
C=c1c(=Cc2[n-]c(=O)[n-]c2O)cc(C)n1Cc1ccc([N-]S(=O)(=O)c2ccccc2)cc1 (3D coordinates assigned)
C=c1c(=Cc2[n-]c(=O)[n-]c2O)cc(C)n1Cc1ccc([N-]S(=O)(=O)c2ccccc2)cc1 (optimized conformer: 126.85186106450516 kcal/mol)

>  <smiles>  (1115) 
C=c1c(=Cc2[nH]c(=O)[nH]c2O)cc(C)n1Cc1ccc(NS(=O)(=O)c2ccccc2)cc1

>  <score_type>  (1115) 
oracle

>  <origin>  (1115) 
adg

>  <m_score__min__energy>  (1115) 
-15.19

>  <m_primary>  (1115) 
energy

$$$$
70:0
     RDKit          3D

 27 29  0  0  0  0  0  0  0  0999 V2000
   58.1550   27.1700   42.6390 N   0  0  0  0  0  0  0  0  0  0  0  0
   57.7870   27.8980   43.4590 C   0  0  0  0  0  0  0  0  0  0  0  0
   57.3280   28.8050   44.4810 C   0  0  0  0  0  0  0  0  0  0  0  0
   56.5890   28.3100   45.4910 C   0  0  0  0  0  0  0  0  0  0  0  0
   56.8000   26.9830   46.1150 C   0  0  0  0  0  0  0  0  0  0  0  0
   58.0320   26.6600   46.7120 C   0  0  0  0  0  0  0  0  0  0  0  0
   59.1440   27.5650   46.6540 N   0  0  0  0  0  0  0  0  0  0  0  0
   60.1910   27.3780   45.6430 C   0  0  0  0  0  0  0  0  0  0  0  0
   60.8380   28.7280   45.2540 C   0  0  0  0  0  0  0  0  0  0  0  0
   60.4480   29.8120   46.0810 O   0  0  0  0  0  0  0  0  0  0  0  0
   60.5200   29.4400   47.4420 C   0  0  0  0  0  0  0  0  0  0  0  0
   59.3670   28.4900   47.7680 C   0  0  0  0  0  0  0  0  0  0  0  0
   58.1740   25.4700   47.3570 N   0  0  0  0  0  0  0  0  0  0  0  0
   57.1520   24.5820   47.4340 C   0  0  0  0  0  0  0  0  0  0  0  0
   57.3150   23.4860   48.0290 O   0  0  0  0  0  0  0  0  0  0  0  0
   55.9520   24.8780   46.8750 N   0  0  0  0  0  0  0  0  0  0  0  0
   55.7480   26.0550   46.2310 C   0  0  0  0  0  0  0  0  0  0  0  0
   54.4900   26.3350   45.7100 O   0  0  0  0  0  0  0  0  0  0  0  0
   57.6650   30.2390   44.3410 C   0  0  0  0  0  0  0  0  0  0  0  0
   58.7200   30.5950   43.7460 O   0  0  0  0  0  0  0  0  0  0  0  0
   56.7980   31.2300   44.9060 N   0  0  0  0  0  0  0  0  0  0  0  0
   57.0510   32.6620   44.8130 C   0  0  0  0  0  0  0  0  0  0  0  0
   57.9340   33.1000   45.9390 C   0  0  0  0  0  0  0  0  0  0  0  0
   58.8310   34.1480   45.8980 C   0  0  0  0  0  0  0  0  0  0  0  0
   59.4460   34.1550   47.1320 C   0  0  0  0  0  0  0  0  0  0  0  0
   58.8870   33.1130   47.8450 C   0  0  0  0  0  0  0  0  0  0  0  0
   57.9910   32.5020   47.1060 O   0  0  0  0  0  0  0  0  0  0  0  0
  1  2  3  0
  2  3  1  0
  3  4  2  3
  4  5  1  0
  5  6  1  0
  6  7  1  0
  7  8  1  0
  8  9  1  0
  9 10  1  0
 10 11  1  0
 11 12  1  0
  6 13  2  0
 13 14  1  0
 14 15  2  0
 14 16  1  0
 16 17  1  0
 17 18  1  0
  3 19  1  0
 19 20  2  0
 19 21  1  0
 21 22  1  0
 22 23  1  0
 23 24  2  0
 24 25  1  0
 25 26  2  0
 26 27  1  0
 17  5  2  0
 27 23  1  0
 12  7  1  0
M  CHG  3  16  -1  18  -1  21  -1
M  END
>  <UniqueID>  (1116) 
58

>  <SMILES>  (1116) 
N#CC(=Cc1c(N2CCOCC2)nc(=O)[n-]c1[O-])C(=O)[N-]Cc1ccco1

>  <Energy>  (1116) 
84.71910707127662

>  <Genealogy>  (1116) 
N#CC(=Cc1c(N2CCOCC2)nc(=O)[n-]c1[O-])C(=O)[N-]Cc1ccco1 (protonated)
N#CC(=Cc1c(N2CCOCC2)nc(=O)[n-]c1[O-])C(=O)[N-]Cc1ccco1 (3D coordinates assigned)
N#CC(=Cc1c(N2CCOCC2)nc(=O)[n-]c1[O-])C(=O)[N-]Cc1ccco1 (nonaromatic ring conformer: 84.71910707127662 kcal/mol)

>  <smiles>  (1116) 
N#CC(=Cc1c(N2CCOCC2)nc(=O)[nH]c1O)C(=O)NCc1ccco1

>  <score_type>  (1116) 
oracle

>  <origin>  (1116) 
adg

>  <m_score__min__energy>  (1116) 
-14.33

>  <m_primary>  (1116) 
energy

$$$$
83:0
     RDKit          3D

 23 25  0  0  0  0  0  0  0  0999 V2000
   59.5580   29.3240   45.7610 C   0  0  0  0  0  0  0  0  0  0  0  0
   58.3050   29.2440   45.2870 C   0  0  0  0  0  0  0  0  0  0  0  0
   57.5260   28.0940   45.0940 C   0  0  0  0  0  0  0  0  0  0  0  0
   57.8790   26.7950   45.1070 C   0  0  0  0  0  0  0  0  0  0  0  0
   57.1990   25.7280   45.8570 C   0  0  0  0  0  0  0  0  0  0  0  0
   57.8330   24.6550   46.3600 N   0  0  0  0  0  0  0  0  0  0  0  0
   56.8660   24.0200   47.0590 C   0  0  0  0  0  0  0  0  0  0  0  0
   57.0720   22.9410   47.6750 O   0  0  0  0  0  0  0  0  0  0  0  0
   55.6660   24.6380   47.0570 N   0  0  0  0  0  0  0  0  0  0  0  0
   55.8960   25.7260   46.3040 C   0  0  0  0  0  0  0  0  0  0  0  0
   54.9460   26.7100   46.0500 O   0  0  0  0  0  0  0  0  0  0  0  0
   56.2490   28.4640   44.8510 N   0  0  0  0  0  0  0  0  0  0  0  0
   56.2840   29.8100   44.8500 C   0  0  0  0  0  0  0  0  0  0  0  0
   55.2640   30.5180   44.6340 O   0  0  0  0  0  0  0  0  0  0  0  0
   57.5090   30.3200   45.0880 N   0  0  0  0  0  0  0  0  0  0  0  0
   57.8540   31.7160   45.1540 C   0  0  0  0  0  0  0  0  0  0  0  0
   57.8670   32.3730   46.3940 C   0  0  0  0  0  0  0  0  0  0  0  0
   58.2030   33.7260   46.4720 C   0  0  0  0  0  0  0  0  0  0  0  0
   58.5220   34.4350   45.3140 C   0  0  0  0  0  0  0  0  0  0  0  0
   58.5010   33.7950   44.0720 C   0  0  0  0  0  0  0  0  0  0  0  0
   58.1600   32.4310   43.9790 C   0  0  0  0  0  0  0  0  0  0  0  0
   58.1040   31.7610   42.7470 O   0  0  0  0  0  0  0  0  0  0  0  0
   57.7310   32.3660   41.5130 C   0  0  0  0  0  0  0  0  0  0  0  0
  1  2  2  0
  2  3  1  0
  3  4  2  3
  4  5  1  0
  5  6  1  0
  6  7  1  0
  7  8  2  0
  7  9  1  0
  9 10  1  0
 10 11  1  0
  3 12  1  0
 12 13  1  0
 13 14  2  0
 13 15  1  0
 15 16  1  0
 16 17  2  0
 17 18  1  0
 18 19  2  0
 19 20  1  0
 20 21  2  0
 21 22  1  0
 22 23  1  0
 15  2  1  0
 21 16  1  0
 10  5  2  0
M  CHG  3   6  -1   9  -1  12  -1
M  END
>  <UniqueID>  (1117) 
70

>  <SMILES>  (1117) 
C=c1c(=Cc2[n-]c(=O)[n-]c2O)[n-]c(=O)n1-c1ccccc1OC

>  <Energy>  (1117) 
115.50739346955392

>  <Genealogy>  (1117) 
C=c1c(=Cc2[n-]c(=O)[n-]c2O)[n-]c(=O)n1-c1ccccc1OC (protonated)
C=c1c(=Cc2[n-]c(=O)[n-]c2O)[n-]c(=O)n1-c1ccccc1OC (3D coordinates assigned)
C=c1c(=Cc2[n-]c(=O)[n-]c2O)[n-]c(=O)n1-c1ccccc1OC (optimized conformer: 115.50739346955392 kcal/mol)

>  <smiles>  (1117) 
C=c1c(=Cc2[nH]c(=O)[nH]c2O)[nH]c(=O)n1-c1ccccc1OC

>  <score_type>  (1117) 
oracle

>  <origin>  (1117) 
adg

>  <m_score__min__energy>  (1117) 
-14.220000000000001

>  <m_primary>  (1117) 
energy

$$$$
87:0
     RDKit          3D

 30 32  0  0  0  0  0  0  0  0999 V2000
   54.7620   26.0040   45.7490 O   0  0  0  0  0  0  0  0  0  0  0  0
   55.9090   26.2760   46.1930 C   0  0  0  0  0  0  0  0  0  0  0  0
   56.4440   25.4440   47.2320 N   0  0  0  0  0  0  0  0  0  0  0  0
   57.3060   24.2850   47.0410 C   0  0  0  0  0  0  0  0  0  0  0  0
   56.7220   23.1120   47.7550 C   0  0  0  0  0  0  0  0  0  0  0  0
   55.4780   23.1160   48.2770 N   0  0  0  0  0  0  0  0  0  0  0  0
   55.3340   21.8750   48.7700 C   0  0  0  0  0  0  0  0  0  0  0  0
   56.4790   21.1540   48.5260 C   0  0  0  0  0  0  0  0  0  0  0  0
   57.3620   21.9300   47.8760 N   0  0  0  0  0  0  0  0  0  0  0  0
   56.6530   27.4350   45.6310 C   0  0  0  0  0  0  0  0  0  0  0  0
   58.0460   27.3500   45.5740 C   0  0  0  0  0  0  0  0  0  0  0  0
   58.9690   28.2780   45.1020 C   0  0  0  0  0  0  0  0  0  0  0  0
   60.1820   27.9350   45.1470 O   0  0  0  0  0  0  0  0  0  0  0  0
   58.7010   29.5410   44.5830 C   0  0  0  0  0  0  0  0  0  0  0  0
   57.4830   30.2070   44.4190 C   0  0  0  0  0  0  0  0  0  0  0  0
   57.5750   31.5690   43.8390 C   0  0  0  0  0  0  0  0  0  0  0  0
   57.8640   31.7020   42.6200 O   0  0  0  0  0  0  0  0  0  0  0  0
   57.3280   32.7400   44.6240 N   0  0  0  0  0  0  0  0  0  0  0  0
   57.4520   32.7920   46.0760 C   0  0  0  0  0  0  0  0  0  0  0  0
   58.9030   32.8960   46.4490 C   0  0  0  0  0  0  0  0  0  0  0  0
   59.6340   34.0500   46.1160 C   0  0  0  0  0  0  0  0  0  0  0  0
   60.9930   34.1390   46.4320 C   0  0  0  0  0  0  0  0  0  0  0  0
   61.6350   33.0750   47.0730 C   0  0  0  0  0  0  0  0  0  0  0  0
   62.9540   33.1630   47.3760 F   0  0  0  0  0  0  0  0  0  0  0  0
   60.9190   31.9180   47.3930 C   0  0  0  0  0  0  0  0  0  0  0  0
   59.5600   31.8220   47.0790 C   0  0  0  0  0  0  0  0  0  0  0  0
   58.8860   30.6840   47.3840 F   0  0  0  0  0  0  0  0  0  0  0  0
   56.2010   29.7180   44.7220 C   0  0  0  0  0  0  0  0  0  0  0  0
   55.2140   30.4700   44.4970 O   0  0  0  0  0  0  0  0  0  0  0  0
   55.9220   28.5040   45.2460 N   0  0  0  0  0  0  0  0  0  0  0  0
  1  2  2  0
  2  3  1  0
  3  4  1  0
  4  5  1  0
  5  6  2  0
  6  7  1  0
  7  8  2  0
  8  9  1  0
  2 10  1  0
 10 11  2  0
 11 12  1  0
 12 13  2  0
 12 14  1  0
 14 15  2  0
 15 16  1  0
 16 17  2  0
 16 18  1  0
 18 19  1  0
 19 20  1  0
 20 21  2  0
 21 22  1  0
 22 23  2  0
 23 24  1  0
 23 25  1  0
 25 26  2  0
 26 27  1  0
 15 28  1  0
 28 29  2  0
 28 30  1  0
  9  5  1  0
 30 10  1  0
 26 20  1  0
M  CHG  4   3  -1   9  -1  18  -1  30  -1
M  END
>  <UniqueID>  (1118) 
73

>  <SMILES>  (1118) 
O=C([N-]Cc1ncc[n-]1)c1cc(=O)cc(C(=O)[N-]Cc2ccc(F)cc2F)c(=O)[n-]1

>  <Energy>  (1118) 
99.39266091903022

>  <Genealogy>  (1118) 
O=C([N-]Cc1ncc[n-]1)c1cc(=O)cc(C(=O)[N-]Cc2ccc(F)cc2F)c(=O)[n-]1 (protonated)
O=C([N-]Cc1ncc[n-]1)c1cc(=O)cc(C(=O)[N-]Cc2ccc(F)cc2F)c(=O)[n-]1 (3D coordinates assigned)
O=C([N-]Cc1ncc[n-]1)c1cc(=O)cc(C(=O)[N-]Cc2ccc(F)cc2F)c(=O)[n-]1 (optimized conformer: 99.39266091903022 kcal/mol)

>  <smiles>  (1118) 
O=C(NCc1ncc[nH]1)c1cc(=O)cc(C(=O)NCc2ccc(F)cc2F)c(=O)[nH]1

>  <score_type>  (1118) 
oracle

>  <origin>  (1118) 
adg

>  <m_score__min__energy>  (1118) 
-15.720000000000001

>  <m_primary>  (1118) 
energy

$$$$
88:0
     RDKit          3D

 26 29  0  0  0  0  0  0  0  0999 V2000
   58.5280   28.5070   46.7080 C   0  0  0  0  0  0  0  0  0  0  0  0
   58.0110   28.7140   45.4870 C   0  0  0  0  0  0  0  0  0  0  0  0
   57.7320   27.7440   44.5080 C   0  0  0  0  0  0  0  0  0  0  0  0
   57.7420   26.3980   44.5640 C   0  0  0  0  0  0  0  0  0  0  0  0
   57.2060   25.5790   45.6620 C   0  0  0  0  0  0  0  0  0  0  0  0
   57.8990   24.6320   46.3220 N   0  0  0  0  0  0  0  0  0  0  0  0
   57.0600   24.2680   47.3160 C   0  0  0  0  0  0  0  0  0  0  0  0
   57.3510   23.3750   48.1540 O   0  0  0  0  0  0  0  0  0  0  0  0
   55.8920   24.9430   47.3480 N   0  0  0  0  0  0  0  0  0  0  0  0
   56.0080   25.7790   46.3030 C   0  0  0  0  0  0  0  0  0  0  0  0
   55.0400   26.7100   45.9470 O   0  0  0  0  0  0  0  0  0  0  0  0
   57.3780   28.4400   43.3640 C   0  0  0  0  0  0  0  0  0  0  0  0
   57.3900   29.7800   43.6890 C   0  0  0  0  0  0  0  0  0  0  0  0
   57.0400   30.8910   42.7470 C   0  0  0  0  0  0  0  0  0  0  0  0
   57.7700   29.9490   44.9750 N   0  0  0  0  0  0  0  0  0  0  0  0
   57.9480   31.2230   45.6180 C   0  0  0  0  0  0  0  0  0  0  0  0
   59.1530   31.5350   46.2570 C   0  0  0  0  0  0  0  0  0  0  0  0
   59.2970   32.8000   46.8500 C   0  0  0  0  0  0  0  0  0  0  0  0
   60.5080   33.1760   47.5330 N   0  0  0  0  0  0  0  0  0  0  0  0
   61.8480   32.8160   47.0970 C   0  0  0  0  0  0  0  0  0  0  0  0
   62.7990   33.5520   48.0320 C   0  0  0  0  0  0  0  0  0  0  0  0
   61.9570   33.9850   49.2290 C   0  0  0  0  0  0  0  0  0  0  0  0
   60.5110   33.9680   48.7510 C   0  0  0  0  0  0  0  0  0  0  0  0
   58.2650   33.6860   46.7730 N   0  0  0  0  0  0  0  0  0  0  0  0
   57.1090   33.3710   46.1340 C   0  0  0  0  0  0  0  0  0  0  0  0
   56.9580   32.1510   45.5600 N   0  0  0  0  0  0  0  0  0  0  0  0
  1  2  2  0
  2  3  1  0
  3  4  2  3
  4  5  1  0
  5  6  1  0
  6  7  1  0
  7  8  2  0
  7  9  1  0
  9 10  1  0
 10 11  1  0
  3 12  1  0
 12 13  2  0
 13 14  1  0
 13 15  1  0
 15 16  1  0
 16 17  2  0
 17 18  1  0
 18 19  1  0
 19 20  1  0
 20 21  1  0
 21 22  1  0
 22 23  1  0
 18 24  2  0
 24 25  1  0
 25 26  2  0
 15  2  1  0
 26 16  1  0
 10  5  2  0
 23 19  1  0
M  CHG  3   6  -1   9  -1  11  -1
M  END
>  <UniqueID>  (1119) 
74

>  <SMILES>  (1119) 
C=c1c(=Cc2[n-]c(=O)[n-]c2[O-])cc(C)n1-c1cc(N2CCCC2)ncn1

>  <Energy>  (1119) 
121.95370536226305

>  <Genealogy>  (1119) 
C=c1c(=Cc2[n-]c(=O)[n-]c2[O-])cc(C)n1-c1cc(N2CCCC2)ncn1 (protonated)
C=c1c(=Cc2[n-]c(=O)[n-]c2[O-])cc(C)n1-c1cc(N2CCCC2)ncn1 (3D coordinates assigned)
C=c1c(=Cc2[n-]c(=O)[n-]c2[O-])cc(C)n1-c1cc(N2CCCC2)ncn1 (nonaromatic ring conformer: 121.95370536226305 kcal/mol)

>  <smiles>  (1119) 
C=c1c(=Cc2[nH]c(=O)[nH]c2O)cc(C)n1-c1cc(N2CCCC2)ncn1

>  <score_type>  (1119) 
oracle

>  <origin>  (1119) 
adg

>  <m_score__min__energy>  (1119) 
-15.720000000000001

>  <m_primary>  (1119) 
energy

$$$$
90:0
     RDKit          3D

 30 33  0  0  0  0  0  0  0  0999 V2000
   56.4500   29.3510   44.4770 C   0  0  0  0  0  0  0  0  0  0  0  0
   57.7020   28.9480   44.7450 C   0  0  0  0  0  0  0  0  0  0  0  0
   58.1520   27.6250   44.8850 C   0  0  0  0  0  0  0  0  0  0  0  0
   57.5610   26.4540   44.5820 C   0  0  0  0  0  0  0  0  0  0  0  0
   56.9810   25.5100   45.5520 C   0  0  0  0  0  0  0  0  0  0  0  0
   57.6250   24.4440   46.0630 N   0  0  0  0  0  0  0  0  0  0  0  0
   56.7630   23.9750   46.9910 C   0  0  0  0  0  0  0  0  0  0  0  0
   57.0040   22.9550   47.6880 O   0  0  0  0  0  0  0  0  0  0  0  0
   55.6260   24.6920   47.1230 N   0  0  0  0  0  0  0  0  0  0  0  0
   55.7880   25.6670   46.2140 C   0  0  0  0  0  0  0  0  0  0  0  0
   54.8670   26.6840   45.9980 O   0  0  0  0  0  0  0  0  0  0  0  0
   59.4290   27.7050   45.4190 C   0  0  0  0  0  0  0  0  0  0  0  0
   59.7410   29.0450   45.5090 C   0  0  0  0  0  0  0  0  0  0  0  0
   61.0480   29.5810   46.0100 C   0  0  0  0  0  0  0  0  0  0  0  0
   58.6960   29.8000   45.1040 N   0  0  0  0  0  0  0  0  0  0  0  0
   58.6550   31.2380   45.0900 C   0  0  0  0  0  0  0  0  0  0  0  0
   58.0800   31.9210   44.0080 C   0  0  0  0  0  0  0  0  0  0  0  0
   58.0310   33.3180   44.0060 C   0  0  0  0  0  0  0  0  0  0  0  0
   58.5510   34.0390   45.0830 C   0  0  0  0  0  0  0  0  0  0  0  0
   59.1230   33.3670   46.1730 C   0  0  0  0  0  0  0  0  0  0  0  0
   59.7470   34.2760   47.5520 S   0  0  0  0  0  0  0  0  0  0  0  0
   59.2040   33.6830   48.8220 O   0  0  0  0  0  0  0  0  0  0  0  0
   59.2720   35.7000   47.4620 O   0  0  0  0  0  0  0  0  0  0  0  0
   61.4950   34.2450   47.6040 N   0  0  0  0  0  0  0  0  0  0  0  0
   62.0440   33.8550   46.2900 C   0  0  0  0  0  0  0  0  0  0  0  0
   63.4920   33.3660   46.4230 C   0  0  0  0  0  0  0  0  0  0  0  0
   63.5890   32.1640   47.2730 N   0  0  0  0  0  0  0  0  0  0  0  0
   62.5090   32.0460   48.2700 C   0  0  0  0  0  0  0  0  0  0  0  0
   61.9940   33.4200   48.7300 C   0  0  0  0  0  0  0  0  0  0  0  0
   59.1810   31.9660   46.1680 C   0  0  0  0  0  0  0  0  0  0  0  0
  1  2  2  0
  2  3  1  0
  3  4  2  3
  4  5  1  0
  5  6  1  0
  6  7  1  0
  7  8  2  0
  7  9  1  0
  9 10  1  0
 10 11  1  0
  3 12  1  0
 12 13  2  0
 13 14  1  0
 13 15  1  0
 15 16  1  0
 16 17  2  0
 17 18  1  0
 18 19  2  0
 19 20  1  0
 20 21  1  0
 21 22  2  0
 21 23  2  0
 21 24  1  0
 24 25  1  0
 25 26  1  0
 26 27  1  0
 27 28  1  0
 28 29  1  0
 20 30  2  0
 15  2  1  0
 30 16  1  0
 10  5  2  0
 29 24  1  0
M  CHG  3   6  -1   9  -1  11  -1
M  END
>  <UniqueID>  (1120) 
76

>  <SMILES>  (1120) 
C=c1c(=Cc2[n-]c(=O)[n-]c2[O-])cc(C)n1-c1cccc(S(=O)(=O)N2CCNCC2)c1

>  <Energy>  (1120) 
134.95269929390997

>  <Genealogy>  (1120) 
C=c1c(=Cc2[n-]c(=O)[n-]c2[O-])cc(C)n1-c1cccc(S(=O)(=O)N2CCNCC2)c1 (protonated)
C=c1c(=Cc2[n-]c(=O)[n-]c2[O-])cc(C)n1-c1cccc(S(=O)(=O)N2CCNCC2)c1 (3D coordinates assigned)
C=c1c(=Cc2[n-]c(=O)[n-]c2[O-])cc(C)n1-c1cccc(S(=O)(=O)N2CCNCC2)c1 (nonaromatic ring conformer: 134.95269929390997 kcal/mol)

>  <smiles>  (1120) 
C=c1c(=Cc2[nH]c(=O)[nH]c2O)cc(C)n1-c1cccc(S(=O)(=O)N2CCNCC2)c1

>  <score_type>  (1120) 
oracle

>  <origin>  (1120) 
adg

>  <m_score__min__energy>  (1120) 
-17.27

>  <m_primary>  (1120) 
energy

$$$$
7:0
     RDKit          3D

 24 26  0  0  0  0  0  0  0  0999 V2000
   55.5440   30.8600   44.4330 O   0  0  0  0  0  0  0  0  0  0  0  0
   56.2150   29.7960   44.4600 C   0  0  0  0  0  0  0  0  0  0  0  0
   57.5440   29.7540   43.7590 C   0  0  0  0  0  0  0  0  0  0  0  0
   58.5490   31.2130   44.2230 S   0  0  0  0  0  0  0  0  0  0  0  0
   58.5560   30.9320   46.0300 C   0  0  0  0  0  0  0  0  0  0  0  0
   59.5350   31.8430   46.7070 C   0  0  0  0  0  0  0  0  0  0  0  0
   59.0960   33.0280   47.3290 C   0  0  0  0  0  0  0  0  0  0  0  0
   60.0340   33.8370   47.9830 C   0  0  0  0  0  0  0  0  0  0  0  0
   59.6680   34.9020   48.5490 O   0  0  0  0  0  0  0  0  0  0  0  0
   61.3400   33.4500   47.9960 N   0  0  0  0  0  0  0  0  0  0  0  0
   62.3790   34.1060   48.5840 C   0  0  0  0  0  0  0  0  0  0  0  0
   63.6090   33.4660   48.4380 C   0  0  0  0  0  0  0  0  0  0  0  0
   63.3810   32.0430   47.5500 S   0  0  0  0  0  0  0  0  0  0  0  0
   61.7320   32.3090   47.3920 C   0  0  0  0  0  0  0  0  0  0  0  0
   60.8540   31.5010   46.7520 N   0  0  0  0  0  0  0  0  0  0  0  0
   55.7320   28.6960   45.2440 N   0  0  0  0  0  0  0  0  0  0  0  0
   56.4770   27.5400   45.6540 C   0  0  0  0  0  0  0  0  0  0  0  0
   57.8820   27.5350   45.6400 C   0  0  0  0  0  0  0  0  0  0  0  0
   58.5870   26.3850   46.0120 C   0  0  0  0  0  0  0  0  0  0  0  0
   57.8940   25.2280   46.3790 C   0  0  0  0  0  0  0  0  0  0  0  0
   58.5950   24.0860   46.7480 O   0  0  0  0  0  0  0  0  0  0  0  0
   56.4970   25.2170   46.3660 C   0  0  0  0  0  0  0  0  0  0  0  0
   55.7880   26.3660   45.9960 C   0  0  0  0  0  0  0  0  0  0  0  0
   54.3990   26.3400   45.9780 O   0  0  0  0  0  0  0  0  0  0  0  0
  1  2  2  0
  2  3  1  0
  3  4  1  0
  4  5  1  0
  5  6  1  0
  6  7  2  0
  7  8  1  0
  8  9  2  0
  8 10  1  0
 10 11  1  0
 11 12  2  0
 12 13  1  0
 13 14  1  0
 14 15  2  0
  2 16  1  0
 16 17  1  0
 17 18  2  0
 18 19  1  0
 19 20  2  0
 20 21  1  0
 20 22  1  0
 22 23  2  0
 23 24  1  0
 15  6  1  0
 23 17  1  0
 14 10  1  0
M  CHG  3  16  -1  21  -1  24  -1
M  END
>  <UniqueID>  (1121) 
8

>  <SMILES>  (1121) 
O=C(CSCc1cc(=O)n2ccsc2n1)[N-]c1ccc([O-])cc1[O-]

>  <Energy>  (1121) 
73.24729628677558

>  <Genealogy>  (1121) 
O=C(CSCc1cc(=O)n2ccsc2n1)[N-]c1ccc([O-])cc1[O-] (protonated)
O=C(CSCc1cc(=O)n2ccsc2n1)[N-]c1ccc([O-])cc1[O-] (3D coordinates assigned)
O=C(CSCc1cc(=O)n2ccsc2n1)[N-]c1ccc([O-])cc1[O-] (optimized conformer: 73.24729628677558 kcal/mol)

>  <smiles>  (1121) 
O=C(CSCc1cc(=O)n2ccsc2n1)Nc1ccc(O)cc1O

>  <score_type>  (1121) 
oracle

>  <origin>  (1121) 
adg

>  <m_score__min__energy>  (1121) 
-15.52

>  <m_primary>  (1121) 
energy

$$$$
33:0
     RDKit          3D

 36 39  0  0  0  0  0  0  0  0999 V2000
   57.4140   32.7140   48.9010 O   0  0  0  0  0  0  0  0  0  0  0  0
   58.7320   32.5840   48.4700 C   0  0  0  0  0  0  0  0  0  0  0  0
   59.3560   33.6350   47.8840 N   0  0  0  0  0  0  0  0  0  0  0  0
   60.6380   33.5490   47.4490 C   0  0  0  0  0  0  0  0  0  0  0  0
   61.1710   34.5640   46.9250 O   0  0  0  0  0  0  0  0  0  0  0  0
   61.3400   32.3760   47.5810 N   0  0  0  0  0  0  0  0  0  0  0  0
   62.7530   32.3090   47.1530 C   0  0  0  0  0  0  0  0  0  0  0  0
   63.6730   33.0240   48.1530 C   0  0  0  0  0  0  0  0  0  0  0  0
   63.1710   32.8830   49.5710 C   0  0  0  0  0  0  0  0  0  0  0  0
   63.3700   31.7490   50.2650 C   0  0  0  0  0  0  0  0  0  0  0  0
   62.8600   31.6460   51.6770 C   0  0  0  0  0  0  0  0  0  0  0  0
   61.4230   32.1900   51.7730 C   0  0  0  0  0  0  0  0  0  0  0  0
   61.1890   33.5010   50.9740 C   0  0  0  0  0  0  0  0  0  0  0  0
   62.4440   34.0210   50.2490 C   0  0  0  0  0  0  0  0  0  0  0  0
   60.7350   31.2870   48.1640 C   0  0  0  0  0  0  0  0  0  0  0  0
   61.3610   30.1980   48.2900 O   0  0  0  0  0  0  0  0  0  0  0  0
   59.4200   31.3790   48.6420 C   0  0  0  0  0  0  0  0  0  0  0  0
   58.7630   30.2150   49.2780 C   0  0  0  0  0  0  0  0  0  0  0  0
   58.6930   29.9740   50.6210 C   0  0  0  0  0  0  0  0  0  0  0  0
   59.7180   29.2500   51.3060 C   0  0  0  0  0  0  0  0  0  0  0  0
   60.8070   28.7240   50.7190 C   0  0  0  0  0  0  0  0  0  0  0  0
   59.6000   29.0390   52.6400 N   0  0  0  0  0  0  0  0  0  0  0  0
   58.5490   29.4780   53.3640 C   0  0  0  0  0  0  0  0  0  0  0  0
   58.5130   29.2160   54.5960 O   0  0  0  0  0  0  0  0  0  0  0  0
   57.5470   30.1870   52.7650 N   0  0  0  0  0  0  0  0  0  0  0  0
   56.3760   30.6350   53.5510 C   0  0  0  0  0  0  0  0  0  0  0  0
   55.1700   29.7080   53.3400 C   0  0  0  0  0  0  0  0  0  0  0  0
   53.9580   30.4700   52.8730 C   0  0  0  0  0  0  0  0  0  0  0  0
   52.9040   30.7370   53.7640 C   0  0  0  0  0  0  0  0  0  0  0  0
   51.8020   31.4880   53.3440 C   0  0  0  0  0  0  0  0  0  0  0  0
   51.7460   31.9810   52.0360 C   0  0  0  0  0  0  0  0  0  0  0  0
   50.6510   32.7290   51.6220 O   0  0  0  0  0  0  0  0  0  0  0  0
   52.7950   31.7240   51.1480 C   0  0  0  0  0  0  0  0  0  0  0  0
   53.8990   30.9740   51.5650 C   0  0  0  0  0  0  0  0  0  0  0  0
   57.6070   30.4520   51.4190 C   0  0  0  0  0  0  0  0  0  0  0  0
   56.6920   31.1490   50.8990 O   0  0  0  0  0  0  0  0  0  0  0  0
  1  2  1  0
  2  3  1  0
  3  4  1  0
  4  5  2  0
  4  6  1  0
  6  7  1  0
  7  8  1  0
  8  9  1  0
  9 10  2  0
 10 11  1  0
 11 12  1  0
 12 13  1  0
 13 14  1  0
  6 15  1  0
 15 16  2  0
 15 17  1  0
 17 18  1  0
 18 19  2  0
 19 20  1  0
 20 21  2  0
 20 22  1  0
 22 23  1  0
 23 24  2  0
 23 25  1  0
 25 26  1  0
 26 27  1  0
 27 28  1  0
 28 29  2  0
 29 30  1  0
 30 31  2  0
 31 32  1  0
 31 33  1  0
 33 34  2  0
 25 35  1  0
 35 36  2  0
 17  2  2  0
 35 19  1  0
 14  9  1  0
 34 28  1  0
M  CHG  3   3  -1  22  -1  32  -1
M  END
>  <UniqueID>  (1122) 
33

>  <SMILES>  (1122) 
C=c1[n-]c(=O)n(CCc2ccc([O-])cc2)c(=O)/c1=C\c1c(O)[n-]c(=O)n(CCC2=CCCCC2)c1=O

>  <Energy>  (1122) 
85.7837945961297

>  <Genealogy>  (1122) 
C=c1[n-]c(=O)n(CCc2ccc([O-])cc2)c(=O)c1=Cc1c(O)[n-]c(=O)n(CCC2=CCCCC2)c1=O (protonated)
C=c1[n-]c(=O)n(CCc2ccc([O-])cc2)c(=O)/c1=C\c1c(O)[n-]c(=O)n(CCC2=CCCCC2)c1=O (cis-trans isomerization)
C=c1[n-]c(=O)n(CCc2ccc([O-])cc2)c(=O)/c1=C\c1c(O)[n-]c(=O)n(CCC2=CCCCC2)c1=O (3D coordinates assigned)
C=c1[n-]c(=O)n(CCc2ccc([O-])cc2)c(=O)/c1=C\c1c(O)[n-]c(=O)n(CCC2=CCCCC2)c1=O (nonaromatic ring conformer: 85.7837945961297 kcal/mol)

>  <smiles>  (1122) 
C=c1[nH]c(=O)n(CCc2ccc(O)cc2)c(=O)c1=Cc1c(O)[nH]c(=O)n(CCC2=CCCCC2)c1=O

>  <score_type>  (1122) 
oracle

>  <origin>  (1122) 
adg

>  <m_score__min__energy>  (1122) 
-15.01

>  <m_primary>  (1122) 
energy

$$$$
43:0
     RDKit          3D

 27 29  0  0  0  0  0  0  0  0999 V2000
   60.4310   30.1850   46.3180 C   0  0  0  0  0  0  0  0  0  0  0  0
   59.2620   29.7330   45.8140 C   0  0  0  0  0  0  0  0  0  0  0  0
   59.0940   28.3460   45.5810 C   0  0  0  0  0  0  0  0  0  0  0  0
   60.0160   27.5370   45.8840 O   0  0  0  0  0  0  0  0  0  0  0  0
   57.8750   27.8850   45.0330 C   0  0  0  0  0  0  0  0  0  0  0  0
   57.6040   26.5930   44.7480 C   0  0  0  0  0  0  0  0  0  0  0  0
   57.1610   25.5660   45.7150 C   0  0  0  0  0  0  0  0  0  0  0  0
   55.9010   25.6400   46.3300 C   0  0  0  0  0  0  0  0  0  0  0  0
   55.0200   26.6690   46.0190 O   0  0  0  0  0  0  0  0  0  0  0  0
   55.5370   24.7040   47.2450 N   0  0  0  0  0  0  0  0  0  0  0  0
   56.3800   23.6980   47.5890 C   0  0  0  0  0  0  0  0  0  0  0  0
   55.9150   22.5860   48.6900 S   0  0  0  0  0  0  0  0  0  0  0  0
   57.6130   23.6190   47.0270 N   0  0  0  0  0  0  0  0  0  0  0  0
   58.0240   24.5310   46.1070 C   0  0  0  0  0  0  0  0  0  0  0  0
   59.1780   24.4330   45.6100 O   0  0  0  0  0  0  0  0  0  0  0  0
   56.8930   28.7890   44.7930 N   0  0  0  0  0  0  0  0  0  0  0  0
   57.0460   30.1130   45.0270 C   0  0  0  0  0  0  0  0  0  0  0  0
   56.0860   30.8910   44.7730 O   0  0  0  0  0  0  0  0  0  0  0  0
   58.2250   30.5970   45.5280 N   0  0  0  0  0  0  0  0  0  0  0  0
   58.3390   32.0220   45.7460 C   0  0  0  0  0  0  0  0  0  0  0  0
   58.4870   32.5290   47.0580 C   0  0  0  0  0  0  0  0  0  0  0  0
   58.5250   31.5970   48.2380 C   0  0  0  0  0  0  0  0  0  0  0  0
   58.5950   33.9130   47.2570 C   0  0  0  0  0  0  0  0  0  0  0  0
   58.5580   34.7880   46.1720 C   0  0  0  0  0  0  0  0  0  0  0  0
   58.4130   34.2940   44.8750 C   0  0  0  0  0  0  0  0  0  0  0  0
   58.3020   32.9130   44.6490 C   0  0  0  0  0  0  0  0  0  0  0  0
   58.1420   32.3960   43.2450 C   0  0  0  0  0  0  0  0  0  0  0  0
  1  2  2  0
  2  3  1  0
  3  4  2  0
  3  5  1  0
  5  6  2  3
  6  7  1  0
  7  8  2  0
  8  9  1  0
  8 10  1  0
 10 11  1  0
 11 12  2  0
 11 13  1  0
 13 14  1  0
 14 15  2  0
  5 16  1  0
 16 17  1  0
 17 18  2  0
 17 19  1  0
 19 20  1  0
 20 21  2  0
 21 22  1  0
 21 23  1  0
 23 24  2  0
 24 25  1  0
 25 26  2  0
 26 27  1  0
 19  2  1  0
 26 20  1  0
 14  7  1  0
M  CHG  4   9  -1  10  -1  13  -1  16  -1
M  END
>  <UniqueID>  (1123) 
43

>  <SMILES>  (1123) 
C=c1c(=O)c(=Cc2c([O-])[n-]c(=S)[n-]c2=O)[n-]c(=O)n1-c1c(C)cccc1C

>  <Energy>  (1123) 
71.29316655486906

>  <Genealogy>  (1123) 
C=c1c(=O)c(=Cc2c([O-])[n-]c(=S)[n-]c2=O)[n-]c(=O)n1-c1c(C)cccc1C (protonated)
C=c1c(=O)c(=Cc2c([O-])[n-]c(=S)[n-]c2=O)[n-]c(=O)n1-c1c(C)cccc1C (3D coordinates assigned)
C=c1c(=O)c(=Cc2c([O-])[n-]c(=S)[n-]c2=O)[n-]c(=O)n1-c1c(C)cccc1C (optimized conformer: 71.29316655486906 kcal/mol)

>  <smiles>  (1123) 
C=c1c(=O)c(=Cc2c(O)[nH]c(=S)[nH]c2=O)[nH]c(=O)n1-c1c(C)cccc1C

>  <score_type>  (1123) 
oracle

>  <origin>  (1123) 
adg

>  <m_score__min__energy>  (1123) 
-17.5

>  <m_primary>  (1123) 
energy

$$$$
57:0
     RDKit          3D

 32 35  0  0  0  0  0  0  0  0999 V2000
   59.5620   29.9730   47.1080 C   0  0  0  0  0  0  0  0  0  0  0  0
   59.1320   30.9100   46.2470 C   0  0  0  0  0  0  0  0  0  0  0  0
   58.4210   30.7120   45.0500 C   0  0  0  0  0  0  0  0  0  0  0  0
   58.0780   29.5850   44.3960 C   0  0  0  0  0  0  0  0  0  0  0  0
   57.5340   28.3620   45.0170 C   0  0  0  0  0  0  0  0  0  0  0  0
   56.1560   28.2090   45.2370 C   0  0  0  0  0  0  0  0  0  0  0  0
   55.2610   29.1980   44.8340 O   0  0  0  0  0  0  0  0  0  0  0  0
   55.6890   27.0890   45.8500 N   0  0  0  0  0  0  0  0  0  0  0  0
   56.5360   26.1160   46.2730 C   0  0  0  0  0  0  0  0  0  0  0  0
   56.0810   25.0860   46.8340 O   0  0  0  0  0  0  0  0  0  0  0  0
   57.8750   26.2550   46.0950 N   0  0  0  0  0  0  0  0  0  0  0  0
   58.3920   27.3550   45.4870 C   0  0  0  0  0  0  0  0  0  0  0  0
   59.6400   27.4550   45.3440 O   0  0  0  0  0  0  0  0  0  0  0  0
   58.1070   31.9750   44.5730 C   0  0  0  0  0  0  0  0  0  0  0  0
   58.6550   32.8840   45.4530 C   0  0  0  0  0  0  0  0  0  0  0  0
   58.5730   34.3730   45.3020 C   0  0  0  0  0  0  0  0  0  0  0  0
   59.2840   32.2430   46.4610 N   0  0  0  0  0  0  0  0  0  0  0  0
   59.9250   32.8800   47.5790 C   0  0  0  0  0  0  0  0  0  0  0  0
   61.1060   33.6100   47.3920 C   0  0  0  0  0  0  0  0  0  0  0  0
   61.7290   34.2270   48.4800 C   0  0  0  0  0  0  0  0  0  0  0  0
   61.1770   34.1180   49.7590 C   0  0  0  0  0  0  0  0  0  0  0  0
   59.9920   33.3940   49.9560 C   0  0  0  0  0  0  0  0  0  0  0  0
   59.3030   33.2380   51.5740 S   0  0  0  0  0  0  0  0  0  0  0  0
   60.4150   33.0410   52.5670 O   0  0  0  0  0  0  0  0  0  0  0  0
   58.5830   34.5090   51.9290 O   0  0  0  0  0  0  0  0  0  0  0  0
   58.1940   31.8930   51.6780 N   0  0  0  0  0  0  0  0  0  0  0  0
   58.8110   30.7680   52.4000 C   0  0  0  0  0  0  0  0  0  0  0  0
   57.7680   29.6710   52.6940 C   0  0  0  0  0  0  0  0  0  0  0  0
   56.5700   29.9000   51.9780 O   0  0  0  0  0  0  0  0  0  0  0  0
   55.9730   31.1100   52.4140 C   0  0  0  0  0  0  0  0  0  0  0  0
   56.9510   32.3020   52.3450 C   0  0  0  0  0  0  0  0  0  0  0  0
   59.3640   32.7850   48.8610 C   0  0  0  0  0  0  0  0  0  0  0  0
  1  2  2  0
  2  3  1  0
  3  4  2  3
  4  5  1  0
  5  6  2  0
  6  7  1  0
  6  8  1  0
  8  9  1  0
  9 10  2  0
  9 11  1  0
 11 12  1  0
 12 13  2  0
  3 14  1  0
 14 15  2  0
 15 16  1  0
 15 17  1  0
 17 18  1  0
 18 19  2  0
 19 20  1  0
 20 21  2  0
 21 22  1  0
 22 23  1  0
 23 24  2  0
 23 25  2  0
 23 26  1  0
 26 27  1  0
 27 28  1  0
 28 29  1  0
 29 30  1  0
 30 31  1  0
 22 32  2  0
 17  2  1  0
 32 18  1  0
 12  5  1  0
 31 26  1  0
M  CHG  2   8  -1  11  -1
M  END
>  <UniqueID>  (1124) 
57

>  <SMILES>  (1124) 
C=c1c(=Cc2c(O)[n-]c(=O)[n-]c2=O)cc(C)n1-c1cccc(S(=O)(=O)N2CCOCC2)c1

>  <Energy>  (1124) 
110.11013548513202

>  <Genealogy>  (1124) 
C=c1c(=Cc2c(O)[n-]c(=O)[n-]c2=O)cc(C)n1-c1cccc(S(=O)(=O)N2CCOCC2)c1 (protonated)
C=c1c(=Cc2c(O)[n-]c(=O)[n-]c2=O)cc(C)n1-c1cccc(S(=O)(=O)N2CCOCC2)c1 (3D coordinates assigned)
C=c1c(=Cc2c(O)[n-]c(=O)[n-]c2=O)cc(C)n1-c1cccc(S(=O)(=O)N2CCOCC2)c1 (nonaromatic ring conformer: 110.11013548513202 kcal/mol)

>  <smiles>  (1124) 
C=c1c(=Cc2c(O)[nH]c(=O)[nH]c2=O)cc(C)n1-c1cccc(S(=O)(=O)N2CCOCC2)c1

>  <score_type>  (1124) 
oracle

>  <origin>  (1124) 
adg

>  <m_score__min__energy>  (1124) 
-14.77

>  <m_primary>  (1124) 
energy

$$$$
72:0
     RDKit          3D

 37 41  0  0  0  0  0  0  0  0999 V2000
   54.8020   26.5160   46.0000 O   0  0  0  0  0  0  0  0  0  0  0  0
   55.8250   25.6430   46.3710 C   0  0  0  0  0  0  0  0  0  0  0  0
   55.6360   24.4740   47.0140 N   0  0  0  0  0  0  0  0  0  0  0  0
   56.8970   23.9980   47.1400 C   0  0  0  0  0  0  0  0  0  0  0  0
   57.1560   22.9010   47.7010 O   0  0  0  0  0  0  0  0  0  0  0  0
   57.8580   24.7900   46.6180 N   0  0  0  0  0  0  0  0  0  0  0  0
   57.1650   25.8420   46.1470 C   0  0  0  0  0  0  0  0  0  0  0  0
   57.7730   26.9930   45.4650 C   0  0  0  0  0  0  0  0  0  0  0  0
   58.2240   28.1030   46.0820 C   0  0  0  0  0  0  0  0  0  0  0  0
   58.3580   28.1840   47.4590 C   0  0  0  0  0  0  0  0  0  0  0  0
   58.8700   29.4350   47.7370 C   0  0  0  0  0  0  0  0  0  0  0  0
   59.1410   29.9610   49.1120 C   0  0  0  0  0  0  0  0  0  0  0  0
   59.0140   30.1450   46.6000 N   0  0  0  0  0  0  0  0  0  0  0  0
   59.3760   31.5330   46.5350 C   0  0  0  0  0  0  0  0  0  0  0  0
   60.6480   31.9450   46.9620 C   0  0  0  0  0  0  0  0  0  0  0  0
   61.0150   33.3040   46.9040 C   0  0  0  0  0  0  0  0  0  0  0  0
   62.3690   33.7450   47.3250 C   0  0  0  0  0  0  0  0  0  0  0  0
   63.0740   34.4490   46.5550 O   0  0  0  0  0  0  0  0  0  0  0  0
   62.9310   33.2910   48.5660 N   0  0  0  0  0  0  0  0  0  0  0  0
   63.3410   34.2810   49.5640 C   0  0  0  0  0  0  0  0  0  0  0  0
   64.1210   33.6220   50.7070 C   0  0  0  0  0  0  0  0  0  0  0  0
   63.4080   32.4140   51.1640 N   0  0  0  0  0  0  0  0  0  0  0  0
   64.0540   31.8600   52.3760 C   0  0  0  0  0  0  0  0  0  0  0  0
   65.0730   30.8130   51.9970 C   0  0  0  0  0  0  0  0  0  0  0  0
   64.8230   29.4510   52.2500 C   0  0  0  0  0  0  0  0  0  0  0  0
   65.7510   28.4720   51.8720 C   0  0  0  0  0  0  0  0  0  0  0  0
   66.9330   28.8430   51.2250 C   0  0  0  0  0  0  0  0  0  0  0  0
   67.1830   30.1950   50.9560 C   0  0  0  0  0  0  0  0  0  0  0  0
   66.2600   31.1810   51.3370 C   0  0  0  0  0  0  0  0  0  0  0  0
   63.2580   31.3770   50.1000 C   0  0  0  0  0  0  0  0  0  0  0  0
   63.4030   31.9110   48.6690 C   0  0  0  0  0  0  0  0  0  0  0  0
   60.0770   34.2450   46.4400 C   0  0  0  0  0  0  0  0  0  0  0  0
   58.8090   33.8320   46.0180 C   0  0  0  0  0  0  0  0  0  0  0  0
   58.4600   32.4810   46.0600 C   0  0  0  0  0  0  0  0  0  0  0  0
   57.2230   32.0960   45.6630 F   0  0  0  0  0  0  0  0  0  0  0  0
   58.6110   29.3550   45.5730 C   0  0  0  0  0  0  0  0  0  0  0  0
   58.5150   29.7940   44.3090 C   0  0  0  0  0  0  0  0  0  0  0  0
  1  2  1  0
  2  3  1  0
  3  4  1  0
  4  5  2  0
  4  6  1  0
  6  7  1  0
  7  8  1  0
  8  9  2  0
  9 10  1  0
 10 11  2  0
 11 12  1  0
 11 13  1  0
 13 14  1  0
 14 15  2  0
 15 16  1  0
 16 17  1  0
 17 18  2  0
 17 19  1  0
 19 20  1  0
 20 21  1  0
 21 22  1  0
 22 23  1  0
 23 24  1  0
 24 25  2  0
 25 26  1  0
 26 27  2  0
 27 28  1  0
 28 29  2  0
 22 30  1  0
 30 31  1  0
 16 32  2  0
 32 33  1  0
 33 34  2  0
 34 35  1  0
 13 36  1  0
 36 37  2  0
  7  2  2  0
 36  9  1  0
 34 14  1  0
 31 19  1  0
 29 24  1  0
M  CHG  2   3  -1   6  -1
M  END
>  <UniqueID>  (1125) 
71

>  <SMILES>  (1125) 
C=c1/c(=C\c2[n-]c(=O)[n-]c2O)cc(C)n1-c1cc(C(=O)N2CCN(Cc3ccccc3)CC2)ccc1F

>  <Energy>  (1125) 
154.90965082275014

>  <Genealogy>  (1125) 
C=c1c(=Cc2[n-]c(=O)[n-]c2O)cc(C)n1-c1cc(C(=O)N2CCN(Cc3ccccc3)CC2)ccc1F (protonated)
C=c1/c(=C\c2[n-]c(=O)[n-]c2O)cc(C)n1-c1cc(C(=O)N2CCN(Cc3ccccc3)CC2)ccc1F (cis-trans isomerization)
C=c1/c(=C\c2[n-]c(=O)[n-]c2O)cc(C)n1-c1cc(C(=O)N2CCN(Cc3ccccc3)CC2)ccc1F (3D coordinates assigned)
C=c1/c(=C\c2[n-]c(=O)[n-]c2O)cc(C)n1-c1cc(C(=O)N2CCN(Cc3ccccc3)CC2)ccc1F (nonaromatic ring conformer: 154.90965082275014 kcal/mol)

>  <smiles>  (1125) 
C=c1c(=Cc2[nH]c(=O)[nH]c2O)cc(C)n1-c1cc(C(=O)N2CCN(Cc3ccccc3)CC2)ccc1F

>  <score_type>  (1125) 
oracle

>  <origin>  (1125) 
adg

>  <m_score__min__energy>  (1125) 
-14.800000000000001

>  <m_primary>  (1125) 
energy

$$$$
77:0
     RDKit          3D

 26 28  0  0  0  0  0  0  0  0999 V2000
   58.4520   24.7660   45.9620 C   0  0  0  0  0  0  0  0  0  0  0  0
   58.3700   26.0960   45.6960 N   0  0  0  0  0  0  0  0  0  0  0  0
   57.1810   26.7630   45.6870 C   0  0  0  0  0  0  0  0  0  0  0  0
   57.1190   28.0400   45.4400 N   0  0  0  0  0  0  0  0  0  0  0  0
   57.6800   29.1310   46.1950 C   0  0  0  0  0  0  0  0  0  0  0  0
   57.4050   30.3060   45.8360 O   0  0  0  0  0  0  0  0  0  0  0  0
   58.6440   28.9390   47.3380 C   0  0  0  0  0  0  0  0  0  0  0  0
   59.5680   30.1140   47.4760 C   0  0  0  0  0  0  0  0  0  0  0  0
   60.7080   30.3630   46.7260 C   0  0  0  0  0  0  0  0  0  0  0  0
   61.2150   31.5570   47.1990 C   0  0  0  0  0  0  0  0  0  0  0  0
   62.3810   32.1600   46.7420 O   0  0  0  0  0  0  0  0  0  0  0  0
   60.4370   32.0620   48.1790 N   0  0  0  0  0  0  0  0  0  0  0  0
   60.6930   33.2620   48.9780 C   0  0  0  0  0  0  0  0  0  0  0  0
   59.6000   34.3140   48.7560 C   0  0  0  0  0  0  0  0  0  0  0  0
   59.0390   34.2460   47.3600 C   0  0  0  0  0  0  0  0  0  0  0  0
   57.8240   33.5850   47.1150 C   0  0  0  0  0  0  0  0  0  0  0  0
   57.3260   33.4880   45.8110 C   0  0  0  0  0  0  0  0  0  0  0  0
   58.0410   34.0420   44.7450 C   0  0  0  0  0  0  0  0  0  0  0  0
   59.2560   34.6930   44.9800 C   0  0  0  0  0  0  0  0  0  0  0  0
   59.7550   34.7920   46.2820 C   0  0  0  0  0  0  0  0  0  0  0  0
   59.4310   31.1810   48.3450 C   0  0  0  0  0  0  0  0  0  0  0  0
   58.4070   31.3380   49.2730 O   0  0  0  0  0  0  0  0  0  0  0  0
   56.0000   26.0610   45.9790 C   0  0  0  0  0  0  0  0  0  0  0  0
   54.7720   26.7120   45.9910 O   0  0  0  0  0  0  0  0  0  0  0  0
   56.0640   24.6930   46.2550 C   0  0  0  0  0  0  0  0  0  0  0  0
   57.2970   24.0380   46.2450 C   0  0  0  0  0  0  0  0  0  0  0  0
  1  2  1  0
  2  3  1  0
  3  4  2  0
  4  5  1  0
  5  6  2  0
  5  7  1  0
  7  8  1  0
  8  9  1  0
  9 10  2  0
 10 11  1  0
 10 12  1  0
 12 13  1  0
 13 14  1  0
 14 15  1  0
 15 16  2  0
 16 17  1  0
 17 18  2  0
 18 19  1  0
 19 20  2  0
 12 21  1  0
 21 22  1  0
  3 23  1  0
 23 24  1  0
 23 25  2  0
 25 26  1  0
 26  1  2  0
 21  8  2  0
 20 15  1  0
M  CHG  4   2  -1  11  -1  22  -1  24  -1
M  END
>  <UniqueID>  (1126) 
76

>  <SMILES>  (1126) 
O=C(Cc1cc([O-])n(CCc2ccccc2)c1[O-])/N=c1\[n-]cccc1[O-]

>  <Energy>  (1126) 
68.9133555192792

>  <Genealogy>  (1126) 
O=C(Cc1cc([O-])n(CCc2ccccc2)c1[O-])N=c1[n-]cccc1[O-] (protonated)
O=C(Cc1cc([O-])n(CCc2ccccc2)c1[O-])/N=c1\[n-]cccc1[O-] (cis-trans isomerization)
O=C(Cc1cc([O-])n(CCc2ccccc2)c1[O-])/N=c1\[n-]cccc1[O-] (3D coordinates assigned)
O=C(Cc1cc([O-])n(CCc2ccccc2)c1[O-])/N=c1\[n-]cccc1[O-] (optimized conformer: 68.9133555192792 kcal/mol)

>  <smiles>  (1126) 
O=C(Cc1cc(O)n(CCc2ccccc2)c1O)N=c1[nH]cccc1O

>  <score_type>  (1126) 
oracle

>  <origin>  (1126) 
adg

>  <m_score__min__energy>  (1126) 
-17

>  <m_primary>  (1126) 
energy

$$$$
7:0
     RDKit          3D

 24 26  0  0  0  0  0  0  0  0999 V2000
   57.7680   30.0630   43.8620 C   0  0  0  0  0  0  0  0  0  0  0  0
   57.9790   29.7110   45.1410 C   0  0  0  0  0  0  0  0  0  0  0  0
   57.9370   28.4170   45.6900 C   0  0  0  0  0  0  0  0  0  0  0  0
   57.5400   27.2420   45.1620 C   0  0  0  0  0  0  0  0  0  0  0  0
   57.3220   25.9920   45.9170 C   0  0  0  0  0  0  0  0  0  0  0  0
   56.0280   25.5920   46.2990 C   0  0  0  0  0  0  0  0  0  0  0  0
   54.9070   26.3810   46.0360 O   0  0  0  0  0  0  0  0  0  0  0  0
   55.8560   24.4130   46.9510 N   0  0  0  0  0  0  0  0  0  0  0  0
   56.9070   23.6030   47.2350 C   0  0  0  0  0  0  0  0  0  0  0  0
   56.7170   22.5190   47.8450 O   0  0  0  0  0  0  0  0  0  0  0  0
   58.1610   23.9580   46.8580 N   0  0  0  0  0  0  0  0  0  0  0  0
   58.3920   25.1230   46.2010 C   0  0  0  0  0  0  0  0  0  0  0  0
   59.5670   25.4120   45.8490 O   0  0  0  0  0  0  0  0  0  0  0  0
   58.4000   28.5340   46.9910 C   0  0  0  0  0  0  0  0  0  0  0  0
   58.6520   29.8720   47.2090 C   0  0  0  0  0  0  0  0  0  0  0  0
   59.1730   30.4430   48.4920 C   0  0  0  0  0  0  0  0  0  0  0  0
   58.3970   30.5870   46.0910 N   0  0  0  0  0  0  0  0  0  0  0  0
   58.5810   32.0060   45.9470 C   0  0  0  0  0  0  0  0  0  0  0  0
   59.8060   32.5980   46.2790 C   0  0  0  0  0  0  0  0  0  0  0  0
   59.9750   33.9760   46.1380 C   0  0  0  0  0  0  0  0  0  0  0  0
   58.9140   34.7510   45.6670 C   0  0  0  0  0  0  0  0  0  0  0  0
   57.7300   34.1630   45.3530 N   0  0  0  0  0  0  0  0  0  0  0  0
   57.5380   32.8230   45.4810 C   0  0  0  0  0  0  0  0  0  0  0  0
   56.3030   32.2730   45.1590 O   0  0  0  0  0  0  0  0  0  0  0  0
  1  2  2  0
  2  3  1  0
  3  4  2  3
  4  5  1  0
  5  6  2  0
  6  7  1  0
  6  8  1  0
  8  9  1  0
  9 10  2  0
  9 11  1  0
 11 12  1  0
 12 13  2  0
  3 14  1  0
 14 15  2  0
 15 16  1  0
 15 17  1  0
 17 18  1  0
 18 19  2  0
 19 20  1  0
 20 21  2  0
 21 22  1  0
 22 23  2  0
 23 24  1  0
 17  2  1  0
 23 18  1  0
 12  5  1  0
M  CHG  3   8  -1  11  -1  24  -1
M  END
>  <UniqueID>  (1127) 
8

>  <SMILES>  (1127) 
C=c1c(=Cc2c(O)[n-]c(=O)[n-]c2=O)cc(C)n1-c1cccnc1[O-]

>  <Energy>  (1127) 
88.31375197443516

>  <Genealogy>  (1127) 
C=c1c(=Cc2c(O)[n-]c(=O)[n-]c2=O)cc(C)n1-c1cccnc1[O-] (protonated)
C=c1c(=Cc2c(O)[n-]c(=O)[n-]c2=O)cc(C)n1-c1cccnc1[O-] (3D coordinates assigned)
C=c1c(=Cc2c(O)[n-]c(=O)[n-]c2=O)cc(C)n1-c1cccnc1[O-] (optimized conformer: 88.31375197443516 kcal/mol)

>  <smiles>  (1127) 
C=c1c(=Cc2c(O)[nH]c(=O)[nH]c2=O)cc(C)n1-c1cccnc1O

>  <score_type>  (1127) 
oracle

>  <origin>  (1127) 
adg

>  <m_score__min__energy>  (1127) 
-14.16

>  <m_primary>  (1127) 
energy

$$$$
9:0
     RDKit          3D

 22 23  0  0  0  0  0  0  0  0999 V2000
   57.3750   31.5210   43.7950 C   0  0  0  0  0  0  0  0  0  0  0  0
   56.9320   29.9140   44.4150 S   0  0  0  0  0  0  0  0  0  0  0  0
   57.0800   28.9040   43.3130 O   0  0  0  0  0  0  0  0  0  0  0  0
   55.5080   29.9490   44.8930 O   0  0  0  0  0  0  0  0  0  0  0  0
   57.9860   29.5090   45.7310 N   0  0  0  0  0  0  0  0  0  0  0  0
   58.1380   28.2000   46.2940 C   0  0  0  0  0  0  0  0  0  0  0  0
   59.2040   27.8730   47.1510 C   0  0  0  0  0  0  0  0  0  0  0  0
   59.3050   26.5870   47.6880 C   0  0  0  0  0  0  0  0  0  0  0  0
   58.3520   25.6160   47.3700 C   0  0  0  0  0  0  0  0  0  0  0  0
   57.2930   25.9240   46.5030 C   0  0  0  0  0  0  0  0  0  0  0  0
   56.2920   24.8930   46.1660 C   0  0  0  0  0  0  0  0  0  0  0  0
   54.9460   25.1050   45.9590 C   0  0  0  0  0  0  0  0  0  0  0  0
   54.3080   26.3400   45.9680 O   0  0  0  0  0  0  0  0  0  0  0  0
   54.3070   23.9390   45.7410 N   0  0  0  0  0  0  0  0  0  0  0  0
   55.3000   23.0270   45.8330 C   0  0  0  0  0  0  0  0  0  0  0  0
   55.0960   21.7900   45.7200 O   0  0  0  0  0  0  0  0  0  0  0  0
   56.5170   23.5640   46.0790 N   0  0  0  0  0  0  0  0  0  0  0  0
   57.7450   22.8300   46.3960 C   0  0  0  0  0  0  0  0  0  0  0  0
   58.7140   22.9320   45.2620 C   0  0  0  0  0  0  0  0  0  0  0  0
   60.0870   22.6040   45.4640 N   0  0  0  0  0  0  0  0  0  0  0  0
   58.3100   23.2700   44.1170 O   0  0  0  0  0  0  0  0  0  0  0  0
   57.1850   27.2210   45.9810 C   0  0  0  0  0  0  0  0  0  0  0  0
  1  2  1  0
  2  3  2  0
  2  4  2  0
  2  5  1  0
  5  6  1  0
  6  7  2  0
  7  8  1  0
  8  9  2  0
  9 10  1  0
 10 11  1  0
 11 12  2  0
 12 13  1  0
 12 14  1  0
 14 15  1  0
 15 16  2  0
 15 17  1  0
 17 18  1  0
 18 19  1  0
 19 20  1  0
 19 21  2  0
 10 22  2  0
 22  6  1  0
 17 11  1  0
M  CHG  4   5  -1  13  -1  14  -1  20  -1
M  END
>  <UniqueID>  (1128) 
10

>  <SMILES>  (1128) 
CS(=O)(=O)[N-]c1cccc(-c2c([O-])[n-]c(=O)n2CC([NH-])=O)c1

>  <Energy>  (1128) 
66.56500491023611

>  <Genealogy>  (1128) 
CS(=O)(=O)[N-]c1cccc(-c2c([O-])[n-]c(=O)n2CC([NH-])=O)c1 (protonated)
CS(=O)(=O)[N-]c1cccc(-c2c([O-])[n-]c(=O)n2CC([NH-])=O)c1 (3D coordinates assigned)
CS(=O)(=O)[N-]c1cccc(-c2c([O-])[n-]c(=O)n2CC([NH-])=O)c1 (optimized conformer: 66.56500491023611 kcal/mol)

>  <smiles>  (1128) 
CS(=O)(=O)Nc1cccc(-c2c(O)[nH]c(=O)n2CC(N)=O)c1

>  <score_type>  (1128) 
oracle

>  <origin>  (1128) 
adg

>  <m_score__min__energy>  (1128) 
-15.359999999999999

>  <m_primary>  (1128) 
energy

$$$$
26:0
     RDKit          3D

 29 31  0  0  0  0  0  0  0  0999 V2000
   55.1510   29.3170   44.8620 N   0  0  0  0  0  0  0  0  0  0  0  0
   56.7880   29.5520   44.3630 S   0  0  0  0  0  0  0  0  0  0  0  0
   56.8540   29.5830   42.8620 O   0  0  0  0  0  0  0  0  0  0  0  0
   57.2930   30.8640   44.8950 O   0  0  0  0  0  0  0  0  0  0  0  0
   57.7850   28.2360   44.9770 C   0  0  0  0  0  0  0  0  0  0  0  0
   57.6060   26.9320   44.4970 C   0  0  0  0  0  0  0  0  0  0  0  0
   58.3770   25.8850   45.0100 C   0  0  0  0  0  0  0  0  0  0  0  0
   59.3340   26.1360   45.9970 C   0  0  0  0  0  0  0  0  0  0  0  0
   59.5390   27.4380   46.4700 C   0  0  0  0  0  0  0  0  0  0  0  0
   60.5150   27.6540   47.4980 N   0  0  0  0  0  0  0  0  0  0  0  0
   60.2910   27.5520   48.9080 C   0  0  0  0  0  0  0  0  0  0  0  0
   60.3830   26.4240   49.4600 O   0  0  0  0  0  0  0  0  0  0  0  0
   59.9660   28.7170   49.6790 N   0  0  0  0  0  0  0  0  0  0  0  0
   60.7320   29.9260   49.7760 C   0  0  0  0  0  0  0  0  0  0  0  0
   61.9980   29.8700   50.3730 C   0  0  0  0  0  0  0  0  0  0  0  0
   62.7720   31.0270   50.4990 C   0  0  0  0  0  0  0  0  0  0  0  0
   62.2790   32.2530   50.0460 C   0  0  0  0  0  0  0  0  0  0  0  0
   61.0020   32.3290   49.4750 C   0  0  0  0  0  0  0  0  0  0  0  0
   60.3680   33.8680   48.8960 S   0  0  0  0  0  0  0  0  0  0  0  0
   61.4770   34.8800   48.8060 O   0  0  0  0  0  0  0  0  0  0  0  0
   59.3430   34.3660   49.8770 O   0  0  0  0  0  0  0  0  0  0  0  0
   59.6280   33.6480   47.3320 N   0  0  0  0  0  0  0  0  0  0  0  0
   60.1830   34.6270   46.3730 C   0  0  0  0  0  0  0  0  0  0  0  0
   59.3440   34.7350   45.0800 C   0  0  0  0  0  0  0  0  0  0  0  0
   58.4120   33.5330   44.9120 C   0  0  0  0  0  0  0  0  0  0  0  0
   57.4820   33.3830   46.1270 C   0  0  0  0  0  0  0  0  0  0  0  0
   58.1670   33.7900   47.4460 C   0  0  0  0  0  0  0  0  0  0  0  0
   60.2290   31.1670   49.3440 C   0  0  0  0  0  0  0  0  0  0  0  0
   58.7390   28.4850   45.9740 C   0  0  0  0  0  0  0  0  0  0  0  0
  1  2  1  0
  2  3  2  0
  2  4  2  0
  2  5  1  0
  5  6  2  0
  6  7  1  0
  7  8  2  0
  8  9  1  0
  9 10  1  0
 10 11  1  0
 11 12  2  0
 11 13  1  0
 13 14  1  0
 14 15  2  0
 15 16  1  0
 16 17  2  0
 17 18  1  0
 18 19  1  0
 19 20  2  0
 19 21  2  0
 19 22  1  0
 22 23  1  0
 23 24  1  0
 24 25  1  0
 25 26  1  0
 26 27  1  0
 18 28  2  0
  9 29  2  0
 29  5  1  0
 28 14  1  0
 27 22  1  0
M  CHG  3   1  -1  10  -1  13  -1
M  END
>  <UniqueID>  (1129) 
24

>  <SMILES>  (1129) 
[NH-]S(=O)(=O)c1cccc([N-]C(=O)[N-]c2cccc(S(=O)(=O)N3CCCCC3)c2)c1

>  <Energy>  (1129) 
58.002721262760154

>  <Genealogy>  (1129) 
[NH-]S(=O)(=O)c1cccc([N-]C(=O)[N-]c2cccc(S(=O)(=O)N3CCCCC3)c2)c1 (protonated)
[NH-]S(=O)(=O)c1cccc([N-]C(=O)[N-]c2cccc(S(=O)(=O)N3CCCCC3)c2)c1 (3D coordinates assigned)
[NH-]S(=O)(=O)c1cccc([N-]C(=O)[N-]c2cccc(S(=O)(=O)N3CCCCC3)c2)c1 (nonaromatic ring conformer: 58.002721262760154 kcal/mol)

>  <smiles>  (1129) 
NS(=O)(=O)c1cccc(NC(=O)Nc2cccc(S(=O)(=O)N3CCCCC3)c2)c1

>  <score_type>  (1129) 
oracle

>  <origin>  (1129) 
adg

>  <m_score__min__energy>  (1129) 
-15.300000000000001

>  <m_primary>  (1129) 
energy

$$$$
36:0
     RDKit          3D

 35 38  0  0  0  0  0  0  0  0999 V2000
   64.0960   32.9570   47.6440 O   0  0  0  0  0  0  0  0  0  0  0  0
   63.9370   32.2130   48.8120 C   0  0  0  0  0  0  0  0  0  0  0  0
   64.9760   32.1580   49.7500 C   0  0  0  0  0  0  0  0  0  0  0  0
   64.8210   31.4430   50.9390 C   0  0  0  0  0  0  0  0  0  0  0  0
   63.6160   30.7680   51.2070 C   0  0  0  0  0  0  0  0  0  0  0  0
   63.4110   30.0380   52.3880 O   0  0  0  0  0  0  0  0  0  0  0  0
   62.4680   28.9810   52.5260 C   0  0  0  0  0  0  0  0  0  0  0  0
   62.5800   30.8190   50.2680 C   0  0  0  0  0  0  0  0  0  0  0  0
   62.7290   31.5300   49.0650 C   0  0  0  0  0  0  0  0  0  0  0  0
   61.6150   31.5540   48.0860 C   0  0  0  0  0  0  0  0  0  0  0  0
   60.8150   30.4170   47.8940 C   0  0  0  0  0  0  0  0  0  0  0  0
   59.7670   30.4490   46.9580 C   0  0  0  0  0  0  0  0  0  0  0  0
   58.8960   29.2700   46.7180 C   0  0  0  0  0  0  0  0  0  0  0  0
   59.2640   27.9840   47.1530 C   0  0  0  0  0  0  0  0  0  0  0  0
   58.4250   26.8900   46.9230 C   0  0  0  0  0  0  0  0  0  0  0  0
   57.2070   27.0590   46.2490 C   0  0  0  0  0  0  0  0  0  0  0  0
   56.3400   25.8910   46.0130 C   0  0  0  0  0  0  0  0  0  0  0  0
   55.0910   26.0480   45.9900 O   0  0  0  0  0  0  0  0  0  0  0  0
   56.8780   24.5740   45.8440 N   0  0  0  0  0  0  0  0  0  0  0  0
   57.0990   23.6350   46.9360 C   0  0  0  0  0  0  0  0  0  0  0  0
   56.8150   28.3460   45.8440 C   0  0  0  0  0  0  0  0  0  0  0  0
   55.5840   28.5520   45.2330 O   0  0  0  0  0  0  0  0  0  0  0  0
   57.6580   29.4390   46.0720 C   0  0  0  0  0  0  0  0  0  0  0  0
   59.5630   31.5820   46.2330 N   0  0  0  0  0  0  0  0  0  0  0  0
   60.3320   32.6970   46.3780 C   0  0  0  0  0  0  0  0  0  0  0  0
   60.1020   33.7660   45.6730 N   0  0  0  0  0  0  0  0  0  0  0  0
   58.8960   34.0490   44.9440 C   0  0  0  0  0  0  0  0  0  0  0  0
   58.5720   35.2510   44.7580 O   0  0  0  0  0  0  0  0  0  0  0  0
   58.0420   32.9880   44.3720 C   0  0  0  0  0  0  0  0  0  0  0  0
   57.0180   32.4540   45.0550 C   0  0  0  0  0  0  0  0  0  0  0  0
   56.2680   31.4160   44.4880 O   0  0  0  0  0  0  0  0  0  0  0  0
   56.7130   30.7170   43.3250 C   0  0  0  0  0  0  0  0  0  0  0  0
   57.4030   31.6900   42.3680 C   0  0  0  0  0  0  0  0  0  0  0  0
   58.3320   32.4990   43.0900 O   0  0  0  0  0  0  0  0  0  0  0  0
   61.3660   32.7020   47.3170 C   0  0  0  0  0  0  0  0  0  0  0  0
  1  2  1  0
  2  3  2  0
  3  4  1  0
  4  5  2  0
  5  6  1  0
  6  7  1  0
  5  8  1  0
  8  9  2  0
  9 10  1  0
 10 11  1  0
 11 12  2  0
 12 13  1  0
 13 14  2  0
 14 15  1  0
 15 16  2  0
 16 17  1  0
 17 18  2  0
 17 19  1  0
 19 20  1  0
 16 21  1  0
 21 22  1  0
 21 23  2  0
 12 24  1  0
 24 25  1  0
 25 26  2  0
 26 27  1  0
 27 28  2  0
 27 29  1  0
 29 30  2  0
 30 31  1  0
 31 32  1  0
 32 33  1  0
 33 34  1  0
 25 35  1  0
  9  2  1  0
 35 10  2  0
 23 13  1  0
 34 29  1  0
M  CHG  3  19  -1  22  -1  24  -1
M  END
>  <UniqueID>  (1130) 
34

>  <SMILES>  (1130) 
C[N-]C(=O)c1ccc(-c2cc(-c3cc(OC)ccc3O)c/c(=N/C(=O)C3=COCCO3)[n-]2)cc1[O-]

>  <Energy>  (1130) 
79.13549905016572

>  <Genealogy>  (1130) 
C[N-]C(=O)c1ccc(-c2cc(-c3cc(OC)ccc3O)cc(=NC(=O)C3=COCCO3)[n-]2)cc1[O-] (protonated)
C[N-]C(=O)c1ccc(-c2cc(-c3cc(OC)ccc3O)c/c(=N/C(=O)C3=COCCO3)[n-]2)cc1[O-] (cis-trans isomerization)
C[N-]C(=O)c1ccc(-c2cc(-c3cc(OC)ccc3O)c/c(=N/C(=O)C3=COCCO3)[n-]2)cc1[O-] (3D coordinates assigned)
C[N-]C(=O)c1ccc(-c2cc(-c3cc(OC)ccc3O)c/c(=N/C(=O)C3=COCCO3)[n-]2)cc1[O-] (nonaromatic ring conformer: 79.13549905016572 kcal/mol)

>  <smiles>  (1130) 
CNC(=O)c1ccc(-c2cc(-c3cc(OC)ccc3O)cc(=NC(=O)C3=COCCO3)[nH]2)cc1O

>  <score_type>  (1130) 
oracle

>  <origin>  (1130) 
adg

>  <m_score__min__energy>  (1130) 
-14.93

>  <m_primary>  (1130) 
energy

$$$$
65:0
     RDKit          3D

 26 28  0  0  0  0  0  0  0  0999 V2000
   63.6830   31.8560   47.0440 N   0  0  0  0  0  0  0  0  0  0  0  0
   63.1250   33.4900   47.0520 S   0  0  0  0  0  0  0  0  0  0  0  0
   63.7060   34.2160   48.2330 O   0  0  0  0  0  0  0  0  0  0  0  0
   63.5770   34.1780   45.7950 O   0  0  0  0  0  0  0  0  0  0  0  0
   61.3670   33.5110   47.1510 C   0  0  0  0  0  0  0  0  0  0  0  0
   60.6270   34.4780   46.4580 C   0  0  0  0  0  0  0  0  0  0  0  0
   59.2330   34.5010   46.5590 C   0  0  0  0  0  0  0  0  0  0  0  0
   58.5710   33.5590   47.3520 C   0  0  0  0  0  0  0  0  0  0  0  0
   59.3010   32.5770   48.0380 C   0  0  0  0  0  0  0  0  0  0  0  0
   58.5950   31.6000   48.9400 C   0  0  0  0  0  0  0  0  0  0  0  0
   59.3630   29.9410   48.8540 S   0  0  0  0  0  0  0  0  0  0  0  0
   58.4770   29.4350   47.3810 C   0  0  0  0  0  0  0  0  0  0  0  0
   58.1950   28.1230   47.1750 N   0  0  0  0  0  0  0  0  0  0  0  0
   57.4790   27.7140   46.0910 C   0  0  0  0  0  0  0  0  0  0  0  0
   57.1750   26.2720   45.9140 C   0  0  0  0  0  0  0  0  0  0  0  0
   58.2200   25.3390   45.7690 C   0  0  0  0  0  0  0  0  0  0  0  0
   57.9410   23.9820   45.5840 C   0  0  0  0  0  0  0  0  0  0  0  0
   56.6190   23.5400   45.5350 C   0  0  0  0  0  0  0  0  0  0  0  0
   55.5720   24.4530   45.6710 C   0  0  0  0  0  0  0  0  0  0  0  0
   55.8410   25.8130   45.8600 C   0  0  0  0  0  0  0  0  0  0  0  0
   54.7750   26.6950   46.0110 O   0  0  0  0  0  0  0  0  0  0  0  0
   57.0310   28.6740   45.1690 C   0  0  0  0  0  0  0  0  0  0  0  0
   57.3350   30.0170   45.3980 C   0  0  0  0  0  0  0  0  0  0  0  0
   56.9490   30.9010   44.5900 O   0  0  0  0  0  0  0  0  0  0  0  0
   58.0490   30.3720   46.4960 N   0  0  0  0  0  0  0  0  0  0  0  0
   60.7010   32.5540   47.9270 C   0  0  0  0  0  0  0  0  0  0  0  0
  1  2  1  0
  2  3  2  0
  2  4  2  0
  2  5  1  0
  5  6  2  0
  6  7  1  0
  7  8  2  0
  8  9  1  0
  9 10  1  0
 10 11  1  0
 11 12  1  0
 12 13  2  0
 13 14  1  0
 14 15  1  0
 15 16  2  0
 16 17  1  0
 17 18  2  0
 18 19  1  0
 19 20  2  0
 20 21  1  0
 14 22  2  0
 22 23  1  0
 23 24  2  0
 23 25  1  0
  9 26  2  0
 26  5  1  0
 25 12  1  0
 20 15  1  0
M  CHG  3   1  -1  21  -1  25  -1
M  END
>  <UniqueID>  (1131) 
61

>  <SMILES>  (1131) 
[NH-]S(=O)(=O)c1cccc(CSc2nc(-c3ccccc3[O-])cc(=O)[n-]2)c1

>  <Energy>  (1131) 
40.94562513030107

>  <Genealogy>  (1131) 
[NH-]S(=O)(=O)c1cccc(CSc2nc(-c3ccccc3[O-])cc(=O)[n-]2)c1 (protonated)
[NH-]S(=O)(=O)c1cccc(CSc2nc(-c3ccccc3[O-])cc(=O)[n-]2)c1 (3D coordinates assigned)
[NH-]S(=O)(=O)c1cccc(CSc2nc(-c3ccccc3[O-])cc(=O)[n-]2)c1 (optimized conformer: 40.94562513030107 kcal/mol)

>  <smiles>  (1131) 
NS(=O)(=O)c1cccc(CSc2nc(-c3ccccc3O)cc(=O)[nH]2)c1

>  <score_type>  (1131) 
oracle

>  <origin>  (1131) 
adg

>  <m_score__min__energy>  (1131) 
-14.779999999999999

>  <m_primary>  (1131) 
energy

$$$$
86:0
     RDKit          3D

 33 36  0  0  0  0  0  0  0  0999 V2000
   59.6840   26.7620   45.6060 O   0  0  0  0  0  0  0  0  0  0  0  0
   58.2990   26.9210   45.6640 C   0  0  0  0  0  0  0  0  0  0  0  0
   57.5490   25.9050   46.1620 N   0  0  0  0  0  0  0  0  0  0  0  0
   56.1960   25.9890   46.2210 C   0  0  0  0  0  0  0  0  0  0  0  0
   55.5270   25.0320   46.6900 O   0  0  0  0  0  0  0  0  0  0  0  0
   55.5630   27.1010   45.7700 N   0  0  0  0  0  0  0  0  0  0  0  0
   56.2620   28.1500   45.2660 C   0  0  0  0  0  0  0  0  0  0  0  0
   55.6410   29.1660   44.8550 O   0  0  0  0  0  0  0  0  0  0  0  0
   57.6640   28.0990   45.2170 C   0  0  0  0  0  0  0  0  0  0  0  0
   58.4290   29.2310   44.6610 C   0  0  0  0  0  0  0  0  0  0  0  0
   58.4050   30.4960   45.1250 C   0  0  0  0  0  0  0  0  0  0  0  0
   57.4570   31.4200   44.7230 C   0  0  0  0  0  0  0  0  0  0  0  0
   57.7780   32.6160   45.3250 C   0  0  0  0  0  0  0  0  0  0  0  0
   56.9990   33.8850   45.1510 C   0  0  0  0  0  0  0  0  0  0  0  0
   58.8710   32.4730   46.1100 N   0  0  0  0  0  0  0  0  0  0  0  0
   59.5110   33.5360   46.9050 C   0  0  0  0  0  0  0  0  0  0  0  0
   59.2810   33.3110   48.3770 C   0  0  0  0  0  0  0  0  0  0  0  0
   58.3430   32.3590   48.8120 C   0  0  0  0  0  0  0  0  0  0  0  0
   58.1220   32.1580   50.1760 C   0  0  0  0  0  0  0  0  0  0  0  0
   58.8140   32.9260   51.1240 C   0  0  0  0  0  0  0  0  0  0  0  0
   58.6180   32.6820   52.5600 C   0  0  0  0  0  0  0  0  0  0  0  0
   58.8320   33.6290   53.3610 O   0  0  0  0  0  0  0  0  0  0  0  0
   58.1880   31.4180   53.0910 N   0  0  0  0  0  0  0  0  0  0  0  0
   56.8410   30.8420   53.1820 C   0  0  0  0  0  0  0  0  0  0  0  0
   55.8200   31.5840   52.2840 C   0  0  0  0  0  0  0  0  0  0  0  0
   54.6670   30.6750   51.8100 C   0  0  0  0  0  0  0  0  0  0  0  0
   54.2800   29.6510   52.8870 C   0  0  0  0  0  0  0  0  0  0  0  0
   55.4570   28.7260   53.2690 C   0  0  0  0  0  0  0  0  0  0  0  0
   56.8380   29.3250   52.9410 C   0  0  0  0  0  0  0  0  0  0  0  0
   59.7910   33.8330   50.6950 C   0  0  0  0  0  0  0  0  0  0  0  0
   60.0170   34.0320   49.3300 C   0  0  0  0  0  0  0  0  0  0  0  0
   59.2570   31.1710   46.0170 C   0  0  0  0  0  0  0  0  0  0  0  0
   60.2510   30.6420   46.7500 C   0  0  0  0  0  0  0  0  0  0  0  0
  1  2  1  0
  2  3  1  0
  3  4  1  0
  4  5  2  0
  4  6  1  0
  6  7  1  0
  7  8  2  0
  7  9  1  0
  9 10  1  0
 10 11  2  0
 11 12  1  0
 12 13  2  0
 13 14  1  0
 13 15  1  0
 15 16  1  0
 16 17  1  0
 17 18  2  0
 18 19  1  0
 19 20  2  0
 20 21  1  0
 21 22  2  0
 21 23  1  0
 23 24  1  0
 24 25  1  0
 25 26  1  0
 26 27  1  0
 27 28  1  0
 28 29  1  0
 20 30  1  0
 30 31  2  0
 15 32  1  0
 32 33  2  0
  9  2  2  0
 32 11  1  0
 31 17  1  0
 29 24  1  0
M  CHG  3   3  -1   6  -1  23  -1
M  END
>  <UniqueID>  (1132) 
78

>  <SMILES>  (1132) 
C=c1/c(=C\c2c(O)[n-]c(=O)[n-]c2=O)cc(C)n1Cc1ccc(C(=O)[N-]C2CCCCC2)cc1

>  <Energy>  (1132) 
111.07641247068622

>  <Genealogy>  (1132) 
C=c1c(=Cc2c(O)[n-]c(=O)[n-]c2=O)cc(C)n1Cc1ccc(C(=O)[N-]C2CCCCC2)cc1 (protonated)
C=c1/c(=C\c2c(O)[n-]c(=O)[n-]c2=O)cc(C)n1Cc1ccc(C(=O)[N-]C2CCCCC2)cc1 (cis-trans isomerization)
C=c1/c(=C\c2c(O)[n-]c(=O)[n-]c2=O)cc(C)n1Cc1ccc(C(=O)[N-]C2CCCCC2)cc1 (3D coordinates assigned)
C=c1/c(=C\c2c(O)[n-]c(=O)[n-]c2=O)cc(C)n1Cc1ccc(C(=O)[N-]C2CCCCC2)cc1 (nonaromatic ring conformer: 111.07641247068622 kcal/mol)

>  <smiles>  (1132) 
C=c1c(=Cc2c(O)[nH]c(=O)[nH]c2=O)cc(C)n1Cc1ccc(C(=O)NC2CCCCC2)cc1

>  <score_type>  (1132) 
oracle

>  <origin>  (1132) 
adg

>  <m_score__min__energy>  (1132) 
-14.619999999999999

>  <m_primary>  (1132) 
energy

$$$$
18:0
     RDKit          3D

 37 41  0  0  0  0  0  0  0  0999 V2000
   55.5560   31.5110   52.3020 C   0  0  0  0  0  0  0  0  0  0  0  0
   54.9660   30.4230   52.8170 C   0  0  0  0  0  0  0  0  0  0  0  0
   53.5900   30.1480   52.8670 C   0  0  0  0  0  0  0  0  0  0  0  0
   52.5200   30.9340   52.6420 C   0  0  0  0  0  0  0  0  0  0  0  0
   51.8360   31.1060   51.3500 C   0  0  0  0  0  0  0  0  0  0  0  0
   51.8790   30.2260   50.3340 N   0  0  0  0  0  0  0  0  0  0  0  0
   51.2290   30.8670   49.3380 C   0  0  0  0  0  0  0  0  0  0  0  0
   51.0450   30.3510   48.2060 O   0  0  0  0  0  0  0  0  0  0  0  0
   50.8020   32.1090   49.6480 N   0  0  0  0  0  0  0  0  0  0  0  0
   51.2070   32.2510   50.9200 C   0  0  0  0  0  0  0  0  0  0  0  0
   51.0200   33.4040   51.6660 O   0  0  0  0  0  0  0  0  0  0  0  0
   53.4770   28.8160   53.2310 C   0  0  0  0  0  0  0  0  0  0  0  0
   54.7550   28.3530   53.4580 C   0  0  0  0  0  0  0  0  0  0  0  0
   55.0950   26.9550   53.8820 C   0  0  0  0  0  0  0  0  0  0  0  0
   55.6570   29.3250   53.2140 N   0  0  0  0  0  0  0  0  0  0  0  0
   57.0840   29.1780   53.2800 C   0  0  0  0  0  0  0  0  0  0  0  0
   57.7020   28.8680   54.4960 C   0  0  0  0  0  0  0  0  0  0  0  0
   59.0870   28.7180   54.5590 C   0  0  0  0  0  0  0  0  0  0  0  0
   59.8650   28.8890   53.4110 C   0  0  0  0  0  0  0  0  0  0  0  0
   59.2610   29.2280   52.1890 C   0  0  0  0  0  0  0  0  0  0  0  0
   60.0900   29.4330   50.9770 C   0  0  0  0  0  0  0  0  0  0  0  0
   61.2040   28.8460   50.8860 O   0  0  0  0  0  0  0  0  0  0  0  0
   59.6500   30.2860   49.9000 N   0  0  0  0  0  0  0  0  0  0  0  0
   58.9530   31.5540   50.1670 C   0  0  0  0  0  0  0  0  0  0  0  0
   59.6840   32.7080   49.4770 C   0  0  0  0  0  0  0  0  0  0  0  0
   59.9770   32.3490   48.0860 N   0  0  0  0  0  0  0  0  0  0  0  0
   59.6000   33.2140   46.9980 C   0  0  0  0  0  0  0  0  0  0  0  0
   60.0000   34.5610   46.9870 C   0  0  0  0  0  0  0  0  0  0  0  0
   59.6380   35.3980   45.9320 C   0  0  0  0  0  0  0  0  0  0  0  0
   58.8770   34.8970   44.8730 C   0  0  0  0  0  0  0  0  0  0  0  0
   58.4770   33.5560   44.8580 C   0  0  0  0  0  0  0  0  0  0  0  0
   57.7310   33.0990   43.7670 O   0  0  0  0  0  0  0  0  0  0  0  0
   57.7700   31.7650   43.2750 C   0  0  0  0  0  0  0  0  0  0  0  0
   58.8410   32.7180   45.9290 C   0  0  0  0  0  0  0  0  0  0  0  0
   60.6980   31.0920   47.8430 C   0  0  0  0  0  0  0  0  0  0  0  0
   59.9470   29.9400   48.5060 C   0  0  0  0  0  0  0  0  0  0  0  0
   57.8630   29.3520   52.1290 C   0  0  0  0  0  0  0  0  0  0  0  0
  1  2  2  0
  2  3  1  0
  3  4  2  3
  4  5  1  0
  5  6  1  0
  6  7  1  0
  7  8  2  0
  7  9  1  0
  9 10  1  0
 10 11  1  0
  3 12  1  0
 12 13  2  0
 13 14  1  0
 13 15  1  0
 15 16  1  0
 16 17  2  0
 17 18  1  0
 18 19  2  0
 19 20  1  0
 20 21  1  0
 21 22  2  0
 21 23  1  0
 23 24  1  0
 24 25  1  0
 25 26  1  0
 26 27  1  0
 27 28  2  0
 28 29  1  0
 29 30  2  0
 30 31  1  0
 31 32  1  0
 32 33  1  0
 31 34  2  0
 26 35  1  0
 35 36  1  0
 20 37  2  0
 15  2  1  0
 37 16  1  0
 10  5  2  0
 36 23  1  0
 34 27  1  0
M  CHG  3   6  -1   9  -1  11  -1
M  END
>  <UniqueID>  (1133) 
17

>  <SMILES>  (1133) 
C=c1c(=Cc2[n-]c(=O)[n-]c2[O-])cc(C)n1-c1cccc(C(=O)N2CCN(c3cccc(OC)c3)CC2)c1

>  <Energy>  (1133) 
150.5283148708139

>  <Genealogy>  (1133) 
C=c1c(=Cc2[n-]c(=O)[n-]c2[O-])cc(C)n1-c1cccc(C(=O)N2CCN(c3cccc(OC)c3)CC2)c1 (protonated)
C=c1c(=Cc2[n-]c(=O)[n-]c2[O-])cc(C)n1-c1cccc(C(=O)N2CCN(c3cccc(OC)c3)CC2)c1 (3D coordinates assigned)
C=c1c(=Cc2[n-]c(=O)[n-]c2[O-])cc(C)n1-c1cccc(C(=O)N2CCN(c3cccc(OC)c3)CC2)c1 (nonaromatic ring conformer: 150.5283148708139 kcal/mol)

>  <smiles>  (1133) 
C=c1c(=Cc2[nH]c(=O)[nH]c2O)cc(C)n1-c1cccc(C(=O)N2CCN(c3cccc(OC)c3)CC2)c1

>  <score_type>  (1133) 
oracle

>  <origin>  (1133) 
adg

>  <m_score__min__energy>  (1133) 
-18.670000000000002

>  <m_primary>  (1133) 
energy

$$$$
57:0
     RDKit          3D

 25 27  0  0  0  0  0  0  0  0999 V2000
   54.8600   29.3800   44.1670 O   0  0  0  0  0  0  0  0  0  0  0  0
   55.9360   29.3530   44.8200 C   0  0  0  0  0  0  0  0  0  0  0  0
   56.6580   30.5810   45.0010 N   0  0  0  0  0  0  0  0  0  0  0  0
   58.0090   30.7220   45.5390 C   0  0  0  0  0  0  0  0  0  0  0  0
   58.3410   32.1720   45.7800 C   0  0  0  0  0  0  0  0  0  0  0  0
   57.8510   33.1610   44.9140 C   0  0  0  0  0  0  0  0  0  0  0  0
   58.2090   34.4990   45.1000 C   0  0  0  0  0  0  0  0  0  0  0  0
   59.0660   34.8580   46.1430 C   0  0  0  0  0  0  0  0  0  0  0  0
   59.5610   33.8800   47.0180 C   0  0  0  0  0  0  0  0  0  0  0  0
   60.4920   34.2390   48.1030 C   0  0  0  0  0  0  0  0  0  0  0  0
   60.0560   34.8950   49.0880 O   0  0  0  0  0  0  0  0  0  0  0  0
   61.8690   33.8190   48.0800 N   0  0  0  0  0  0  0  0  0  0  0  0
   62.3820   32.7660   47.2180 C   0  0  0  0  0  0  0  0  0  0  0  0
   63.7130   32.3490   47.8300 C   0  0  0  0  0  0  0  0  0  0  0  0
   64.1200   33.4980   48.7490 C   0  0  0  0  0  0  0  0  0  0  0  0
   62.8280   34.2280   49.0910 C   0  0  0  0  0  0  0  0  0  0  0  0
   59.1680   32.5440   46.8530 C   0  0  0  0  0  0  0  0  0  0  0  0
   56.4190   28.0610   45.3550 C   0  0  0  0  0  0  0  0  0  0  0  0
   57.7880   27.8450   45.5630 C   0  0  0  0  0  0  0  0  0  0  0  0
   58.2000   26.6110   46.0720 C   0  0  0  0  0  0  0  0  0  0  0  0
   59.4210   26.3900   46.2830 O   0  0  0  0  0  0  0  0  0  0  0  0
   57.2820   25.6480   46.3400 N   0  0  0  0  0  0  0  0  0  0  0  0
   55.9590   25.8660   46.1190 C   0  0  0  0  0  0  0  0  0  0  0  0
   55.1230   24.9610   46.3720 O   0  0  0  0  0  0  0  0  0  0  0  0
   55.5390   27.0610   45.6270 N   0  0  0  0  0  0  0  0  0  0  0  0
  1  2  2  0
  2  3  1  0
  3  4  1  0
  4  5  1  0
  5  6  2  0
  6  7  1  0
  7  8  2  0
  8  9  1  0
  9 10  1  0
 10 11  2  0
 10 12  1  0
 12 13  1  0
 13 14  1  0
 14 15  1  0
 15 16  1  0
  9 17  2  0
  2 18  1  0
 18 19  2  0
 19 20  1  0
 20 21  2  0
 20 22  1  0
 22 23  1  0
 23 24  2  0
 23 25  1  0
 17  5  1  0
 25 18  1  0
 16 12  1  0
M  CHG  3   3  -1  22  -1  25  -1
M  END
>  <UniqueID>  (1134) 
55

>  <SMILES>  (1134) 
O=C([N-]Cc1cccc(C(=O)N2CCCC2)c1)c1cc(=O)[n-]c(=O)[n-]1

>  <Energy>  (1134) 
45.74414091684065

>  <Genealogy>  (1134) 
O=C([N-]Cc1cccc(C(=O)N2CCCC2)c1)c1cc(=O)[n-]c(=O)[n-]1 (protonated)
O=C([N-]Cc1cccc(C(=O)N2CCCC2)c1)c1cc(=O)[n-]c(=O)[n-]1 (3D coordinates assigned)
O=C([N-]Cc1cccc(C(=O)N2CCCC2)c1)c1cc(=O)[n-]c(=O)[n-]1 (nonaromatic ring conformer: 45.74414091684065 kcal/mol)

>  <smiles>  (1134) 
O=C(NCc1cccc(C(=O)N2CCCC2)c1)c1cc(=O)[nH]c(=O)[nH]1

>  <score_type>  (1134) 
oracle

>  <origin>  (1134) 
adg

>  <m_score__min__energy>  (1134) 
-14.65

>  <m_primary>  (1134) 
energy

$$$$
63:0
     RDKit          3D

 26 28  0  0  0  0  0  0  0  0999 V2000
   58.8900   30.4230   46.9590 C   0  0  0  0  0  0  0  0  0  0  0  0
   58.5970   31.4030   46.0870 C   0  0  0  0  0  0  0  0  0  0  0  0
   58.0980   31.2440   44.7810 C   0  0  0  0  0  0  0  0  0  0  0  0
   57.6560   30.1530   44.1240 C   0  0  0  0  0  0  0  0  0  0  0  0
   57.4840   28.8070   44.7030 C   0  0  0  0  0  0  0  0  0  0  0  0
   56.2520   28.4250   45.2500 C   0  0  0  0  0  0  0  0  0  0  0  0
   55.1650   29.2930   45.2090 O   0  0  0  0  0  0  0  0  0  0  0  0
   56.1090   27.1980   45.8180 N   0  0  0  0  0  0  0  0  0  0  0  0
   57.1570   26.3300   45.8800 C   0  0  0  0  0  0  0  0  0  0  0  0
   56.9740   24.8560   46.5620 S   0  0  0  0  0  0  0  0  0  0  0  0
   58.3670   26.6920   45.3820 N   0  0  0  0  0  0  0  0  0  0  0  0
   58.5580   27.9060   44.8060 C   0  0  0  0  0  0  0  0  0  0  0  0
   59.7010   28.2140   44.3730 O   0  0  0  0  0  0  0  0  0  0  0  0
   58.1140   32.5010   44.2040 C   0  0  0  0  0  0  0  0  0  0  0  0
   58.5550   33.3800   45.1680 C   0  0  0  0  0  0  0  0  0  0  0  0
   58.7480   34.8500   44.9390 C   0  0  0  0  0  0  0  0  0  0  0  0
   58.8470   32.7240   46.3160 N   0  0  0  0  0  0  0  0  0  0  0  0
   59.4020   33.3520   47.5280 C   0  0  0  0  0  0  0  0  0  0  0  0
   60.9090   33.3190   47.5070 C   0  0  0  0  0  0  0  0  0  0  0  0
   61.6140   33.8350   46.4080 C   0  0  0  0  0  0  0  0  0  0  0  0
   63.0100   33.7970   46.3830 C   0  0  0  0  0  0  0  0  0  0  0  0
   63.7170   33.2470   47.4550 C   0  0  0  0  0  0  0  0  0  0  0  0
   63.0300   32.7310   48.5640 C   0  0  0  0  0  0  0  0  0  0  0  0
   63.7920   32.1550   49.6880 C   0  0  0  0  0  0  0  0  0  0  0  0
   65.0470   32.2510   49.7420 O   0  0  0  0  0  0  0  0  0  0  0  0
   61.6240   32.7720   48.5860 C   0  0  0  0  0  0  0  0  0  0  0  0
  1  2  2  0
  2  3  1  0
  3  4  2  3
  4  5  1  0
  5  6  2  0
  6  7  1  0
  6  8  1  0
  8  9  1  0
  9 10  2  0
  9 11  1  0
 11 12  1  0
 12 13  2  0
  3 14  1  0
 14 15  2  0
 15 16  1  0
 15 17  1  0
 17 18  1  0
 18 19  1  0
 19 20  2  0
 20 21  1  0
 21 22  2  0
 22 23  1  0
 23 24  1  0
 24 25  2  0
 23 26  2  0
 17  2  1  0
 26 19  1  0
 12  5  1  0
M  CHG  2   7  -1  11  -1
M  END
>  <UniqueID>  (1135) 
61

>  <SMILES>  (1135) 
C=c1c(=Cc2c([O-])[nH]c(=S)[n-]c2=O)cc(C)n1Cc1cccc(C=O)c1

>  <Energy>  (1135) 
85.58263315844694

>  <Genealogy>  (1135) 
C=c1c(=Cc2c([O-])[nH]c(=S)[n-]c2=O)cc(C)n1Cc1cccc(C=O)c1 (protonated)
C=c1c(=Cc2c([O-])[nH]c(=S)[n-]c2=O)cc(C)n1Cc1cccc(C=O)c1 (3D coordinates assigned)
C=c1c(=Cc2c([O-])[nH]c(=S)[n-]c2=O)cc(C)n1Cc1cccc(C=O)c1 (optimized conformer: 85.58263315844694 kcal/mol)

>  <smiles>  (1135) 
C=c1c(=Cc2c(O)[nH]c(=S)[nH]c2=O)cc(C)n1Cc1cccc(C=O)c1

>  <score_type>  (1135) 
oracle

>  <origin>  (1135) 
adg

>  <m_score__min__energy>  (1135) 
-14.06

>  <m_primary>  (1135) 
energy

$$$$
78:0
     RDKit          3D

 28 30  0  0  0  0  0  0  0  0999 V2000
   59.3080   33.5020   50.5730 C   0  0  0  0  0  0  0  0  0  0  0  0
   59.8040   34.3160   49.5160 O   0  0  0  0  0  0  0  0  0  0  0  0
   60.8590   33.9570   48.6590 C   0  0  0  0  0  0  0  0  0  0  0  0
   62.0020   33.2840   49.1370 C   0  0  0  0  0  0  0  0  0  0  0  0
   63.0280   32.9210   48.2610 C   0  0  0  0  0  0  0  0  0  0  0  0
   62.9310   33.2260   46.9050 C   0  0  0  0  0  0  0  0  0  0  0  0
   61.8070   33.8960   46.4160 C   0  0  0  0  0  0  0  0  0  0  0  0
   60.7610   34.2620   47.2820 C   0  0  0  0  0  0  0  0  0  0  0  0
   59.5800   34.9780   46.7420 C   0  0  0  0  0  0  0  0  0  0  0  0
   59.6580   36.2130   46.5060 O   0  0  0  0  0  0  0  0  0  0  0  0
   58.3650   34.2930   46.4100 N   0  0  0  0  0  0  0  0  0  0  0  0
   58.2450   32.9100   46.0480 C   0  0  0  0  0  0  0  0  0  0  0  0
   57.9960   32.5730   44.7140 C   0  0  0  0  0  0  0  0  0  0  0  0
   57.8590   31.2330   44.3420 C   0  0  0  0  0  0  0  0  0  0  0  0
   57.9500   30.2350   45.3170 C   0  0  0  0  0  0  0  0  0  0  0  0
   57.8410   28.9860   44.9650 N   0  0  0  0  0  0  0  0  0  0  0  0
   56.7500   28.1050   45.2790 C   0  0  0  0  0  0  0  0  0  0  0  0
   55.5760   28.5560   45.2130 O   0  0  0  0  0  0  0  0  0  0  0  0
   56.9670   26.7130   45.7460 C   0  0  0  0  0  0  0  0  0  0  0  0
   58.2750   26.2160   45.8870 C   0  0  0  0  0  0  0  0  0  0  0  0
   58.4930   24.9110   46.3380 C   0  0  0  0  0  0  0  0  0  0  0  0
   57.4090   24.0920   46.6650 C   0  0  0  0  0  0  0  0  0  0  0  0
   57.6280   22.7960   47.1140 O   0  0  0  0  0  0  0  0  0  0  0  0
   56.1040   24.5790   46.5400 C   0  0  0  0  0  0  0  0  0  0  0  0
   55.8780   25.8830   46.0850 C   0  0  0  0  0  0  0  0  0  0  0  0
   54.5690   26.3370   45.9580 O   0  0  0  0  0  0  0  0  0  0  0  0
   58.1790   30.5850   46.6150 N   0  0  0  0  0  0  0  0  0  0  0  0
   58.3160   31.8810   47.0010 C   0  0  0  0  0  0  0  0  0  0  0  0
  1  2  1  0
  2  3  1  0
  3  4  2  0
  4  5  1  0
  5  6  2  0
  6  7  1  0
  7  8  2  0
  8  9  1  0
  9 10  2  0
  9 11  1  0
 11 12  1  0
 12 13  1  0
 13 14  2  0
 14 15  1  0
 15 16  2  3
 16 17  1  0
 17 18  2  0
 17 19  1  0
 19 20  2  0
 20 21  1  0
 21 22  2  0
 22 23  1  0
 22 24  1  0
 24 25  2  0
 25 26  1  0
 15 27  1  0
 27 28  1  0
  8  3  1  0
 28 12  2  0
 25 19  1  0
M  CHG  4  11  -1  23  -1  26  -1  27  -1
M  END
>  <UniqueID>  (1136) 
75

>  <SMILES>  (1136) 
COc1ccccc1C(=O)[N-]c1ccc(=NC(=O)c2ccc([O-])cc2[O-])[n-]c1

>  <Energy>  (1136) 
61.221839755360854

>  <Genealogy>  (1136) 
COc1ccccc1C(=O)[N-]c1ccc(=NC(=O)c2ccc([O-])cc2[O-])[n-]c1 (protonated)
COc1ccccc1C(=O)[N-]c1ccc(=NC(=O)c2ccc([O-])cc2[O-])[n-]c1 (3D coordinates assigned)
COc1ccccc1C(=O)[N-]c1ccc(=NC(=O)c2ccc([O-])cc2[O-])[n-]c1 (optimized conformer: 61.221839755360854 kcal/mol)

>  <smiles>  (1136) 
COc1ccccc1C(=O)Nc1ccc(=NC(=O)c2ccc(O)cc2O)[nH]c1

>  <score_type>  (1136) 
oracle

>  <origin>  (1136) 
adg

>  <m_score__min__energy>  (1136) 
-16.109999999999999

>  <m_primary>  (1136) 
energy

$$$$
85:0
     RDKit          3D

 31 34  0  0  0  0  0  0  0  0999 V2000
   59.0690   26.9080   47.6080 C   0  0  0  0  0  0  0  0  0  0  0  0
   58.4870   27.3000   46.4640 C   0  0  0  0  0  0  0  0  0  0  0  0
   57.8090   26.5010   45.5240 C   0  0  0  0  0  0  0  0  0  0  0  0
   57.4940   25.1900   45.5310 C   0  0  0  0  0  0  0  0  0  0  0  0
   56.1410   24.6320   45.3580 C   0  0  0  0  0  0  0  0  0  0  0  0
   55.0090   25.4180   45.6200 C   0  0  0  0  0  0  0  0  0  0  0  0
   55.1440   26.7470   46.0070 O   0  0  0  0  0  0  0  0  0  0  0  0
   53.7680   24.8830   45.4850 N   0  0  0  0  0  0  0  0  0  0  0  0
   53.5990   23.5890   45.1110 C   0  0  0  0  0  0  0  0  0  0  0  0
   52.4400   23.1200   44.9830 O   0  0  0  0  0  0  0  0  0  0  0  0
   54.6810   22.8000   44.8770 N   0  0  0  0  0  0  0  0  0  0  0  0
   55.9430   23.2880   44.9990 C   0  0  0  0  0  0  0  0  0  0  0  0
   56.9240   22.5260   44.7880 O   0  0  0  0  0  0  0  0  0  0  0  0
   57.4590   27.3420   44.4800 C   0  0  0  0  0  0  0  0  0  0  0  0
   57.8980   28.6050   44.8170 C   0  0  0  0  0  0  0  0  0  0  0  0
   57.7170   29.8280   43.9680 C   0  0  0  0  0  0  0  0  0  0  0  0
   58.5130   28.5830   46.0190 N   0  0  0  0  0  0  0  0  0  0  0  0
   59.1420   29.7110   46.6520 C   0  0  0  0  0  0  0  0  0  0  0  0
   60.3610   30.2040   46.1640 C   0  0  0  0  0  0  0  0  0  0  0  0
   60.9760   31.2970   46.7820 C   0  0  0  0  0  0  0  0  0  0  0  0
   60.3760   31.9070   47.8910 C   0  0  0  0  0  0  0  0  0  0  0  0
   61.0300   33.0520   48.5550 C   0  0  0  0  0  0  0  0  0  0  0  0
   60.5100   34.1920   48.3970 O   0  0  0  0  0  0  0  0  0  0  0  0
   62.2760   32.9280   49.2960 N   0  0  0  0  0  0  0  0  0  0  0  0
   63.4780   33.0940   48.4490 C   0  0  0  0  0  0  0  0  0  0  0  0
   64.7730   33.0630   49.2930 C   0  0  0  0  0  0  0  0  0  0  0  0
   64.6050   32.3720   50.5830 N   0  0  0  0  0  0  0  0  0  0  0  0
   63.7270   31.2060   50.4470 C   0  0  0  0  0  0  0  0  0  0  0  0
   62.3080   31.6180   49.9970 C   0  0  0  0  0  0  0  0  0  0  0  0
   59.1480   31.4270   48.3700 C   0  0  0  0  0  0  0  0  0  0  0  0
   58.5360   30.3320   47.7530 C   0  0  0  0  0  0  0  0  0  0  0  0
  1  2  2  0
  2  3  1  0
  3  4  2  0
  4  5  1  0
  5  6  2  0
  6  7  1  0
  6  8  1  0
  8  9  1  0
  9 10  2  0
  9 11  1  0
 11 12  1  0
 12 13  2  0
  3 14  1  0
 14 15  2  0
 15 16  1  0
 15 17  1  0
 17 18  1  0
 18 19  2  0
 19 20  1  0
 20 21  2  0
 21 22  1  0
 22 23  2  0
 22 24  1  0
 24 25  1  0
 25 26  1  0
 26 27  1  0
 27 28  1  0
 28 29  1  0
 21 30  1  0
 30 31  2  0
 17  2  1  0
 31 18  1  0
 12  5  1  0
 29 24  1  0
M  CHG  4   7  -1   8  -1  11  -1  24   1
M  END
>  <UniqueID>  (1137) 
82

>  <SMILES>  (1137) 
C=c1/c(=C\c2c([O-])[n-]c(=O)[n-]c2=O)cc(C)n1-c1ccc(C(=O)[NH+]2CCNCC2)cc1

>  <Energy>  (1137) 
124.63616849284769

>  <Genealogy>  (1137) 
C=c1c(=Cc2c([O-])[n-]c(=O)[n-]c2=O)cc(C)n1-c1ccc(C(=O)[NH+]2CCNCC2)cc1 (protonated)
C=c1/c(=C\c2c([O-])[n-]c(=O)[n-]c2=O)cc(C)n1-c1ccc(C(=O)[NH+]2CCNCC2)cc1 (cis-trans isomerization)
C=c1/c(=C\c2c([O-])[n-]c(=O)[n-]c2=O)cc(C)n1-c1ccc(C(=O)[NH+]2CCNCC2)cc1 (3D coordinates assigned)
C=c1/c(=C\c2c([O-])[n-]c(=O)[n-]c2=O)cc(C)n1-c1ccc(C(=O)[NH+]2CCNCC2)cc1 (nonaromatic ring conformer: 124.63616849284769 kcal/mol)

>  <smiles>  (1137) 
C=c1c(=Cc2c(O)[nH]c(=O)[nH]c2=O)cc(C)n1-c1ccc(C(=O)N2CCNCC2)cc1

>  <score_type>  (1137) 
oracle

>  <origin>  (1137) 
adg

>  <m_score__min__energy>  (1137) 
-14.890000000000001

>  <m_primary>  (1137) 
energy

$$$$
13:0
     RDKit          3D

 32 35  0  0  0  0  0  0  0  0999 V2000
   57.7550   28.0570   44.6460 C   0  0  0  0  0  0  0  0  0  0  0  0
   58.2320   27.2850   45.6340 C   0  0  0  0  0  0  0  0  0  0  0  0
   58.1130   25.8910   45.7600 C   0  0  0  0  0  0  0  0  0  0  0  0
   57.3870   24.9970   45.0600 C   0  0  0  0  0  0  0  0  0  0  0  0
   55.9800   24.6500   45.3110 C   0  0  0  0  0  0  0  0  0  0  0  0
   54.9800   25.5240   45.6740 C   0  0  0  0  0  0  0  0  0  0  0  0
   55.1510   26.8650   45.9900 O   0  0  0  0  0  0  0  0  0  0  0  0
   53.7850   24.9010   45.6740 N   0  0  0  0  0  0  0  0  0  0  0  0
   54.1000   23.6490   45.2790 C   0  0  0  0  0  0  0  0  0  0  0  0
   53.2410   22.7400   45.1360 O   0  0  0  0  0  0  0  0  0  0  0  0
   55.4130   23.4620   45.0360 N   0  0  0  0  0  0  0  0  0  0  0  0
   58.9140   25.5280   46.8310 C   0  0  0  0  0  0  0  0  0  0  0  0
   59.4410   26.6920   47.3500 C   0  0  0  0  0  0  0  0  0  0  0  0
   60.3440   26.7640   48.5440 C   0  0  0  0  0  0  0  0  0  0  0  0
   59.0210   27.7580   46.6340 N   0  0  0  0  0  0  0  0  0  0  0  0
   59.4200   29.1200   46.8630 C   0  0  0  0  0  0  0  0  0  0  0  0
   58.5420   30.0150   47.4890 C   0  0  0  0  0  0  0  0  0  0  0  0
   58.9360   31.3350   47.7290 C   0  0  0  0  0  0  0  0  0  0  0  0
   60.2060   31.7790   47.3420 C   0  0  0  0  0  0  0  0  0  0  0  0
   60.5630   33.1060   47.6180 O   0  0  0  0  0  0  0  0  0  0  0  0
   59.8290   34.2330   47.2300 C   0  0  0  0  0  0  0  0  0  0  0  0
   59.3210   35.0040   48.0900 O   0  0  0  0  0  0  0  0  0  0  0  0
   59.6840   34.5500   45.7730 C   0  0  0  0  0  0  0  0  0  0  0  0
   58.2130   34.5360   45.3360 C   0  0  0  0  0  0  0  0  0  0  0  0
   57.8650   33.2790   44.5780 C   0  0  0  0  0  0  0  0  0  0  0  0
   58.3530   33.0790   43.2760 C   0  0  0  0  0  0  0  0  0  0  0  0
   57.9960   31.9320   42.5600 C   0  0  0  0  0  0  0  0  0  0  0  0
   57.1460   30.9840   43.1330 C   0  0  0  0  0  0  0  0  0  0  0  0
   56.6490   31.1790   44.4250 C   0  0  0  0  0  0  0  0  0  0  0  0
   57.0060   32.3220   45.1460 C   0  0  0  0  0  0  0  0  0  0  0  0
   61.0950   30.8720   46.7350 C   0  0  0  0  0  0  0  0  0  0  0  0
   60.7020   29.5520   46.4960 C   0  0  0  0  0  0  0  0  0  0  0  0
  1  2  2  0
  2  3  1  0
  3  4  2  0
  4  5  1  0
  5  6  2  0
  6  7  1  0
  6  8  1  0
  8  9  1  0
  9 10  2  0
  9 11  1  0
  3 12  1  0
 12 13  2  0
 13 14  1  0
 13 15  1  0
 15 16  1  0
 16 17  2  0
 17 18  1  0
 18 19  2  0
 19 20  1  0
 20 21  1  0
 21 22  2  0
 21 23  1  0
 23 24  1  0
 24 25  1  0
 25 26  2  0
 26 27  1  0
 27 28  2  0
 28 29  1  0
 29 30  2  0
 19 31  1  0
 31 32  2  0
 15  2  1  0
 32 16  1  0
 11  5  1  0
 30 25  1  0
M  CHG  2   7  -1   8  -1
M  END
>  <UniqueID>  (1138) 
13

>  <SMILES>  (1138) 
C=c1/c(=C\c2[nH]c(=O)[n-]c2[O-])cc(C)n1-c1ccc(OC(=O)CCc2ccccc2)cc1

>  <Energy>  (1138) 
133.46181311229446

>  <Genealogy>  (1138) 
C=c1c(=Cc2[nH]c(=O)[n-]c2[O-])cc(C)n1-c1ccc(OC(=O)CCc2ccccc2)cc1 (protonated)
C=c1/c(=C\c2[nH]c(=O)[n-]c2[O-])cc(C)n1-c1ccc(OC(=O)CCc2ccccc2)cc1 (cis-trans isomerization)
C=c1/c(=C\c2[nH]c(=O)[n-]c2[O-])cc(C)n1-c1ccc(OC(=O)CCc2ccccc2)cc1 (3D coordinates assigned)
C=c1/c(=C\c2[nH]c(=O)[n-]c2[O-])cc(C)n1-c1ccc(OC(=O)CCc2ccccc2)cc1 (optimized conformer: 133.46181311229446 kcal/mol)

>  <smiles>  (1138) 
C=c1c(=Cc2[nH]c(=O)[nH]c2O)cc(C)n1-c1ccc(OC(=O)CCc2ccccc2)cc1

>  <score_type>  (1138) 
oracle

>  <origin>  (1138) 
adg

>  <m_score__min__energy>  (1138) 
-14.529999999999999

>  <m_primary>  (1138) 
energy

$$$$
38:0
     RDKit          3D

 30 33  0  0  0  0  0  0  0  0999 V2000
   58.7670   28.8990   47.5420 C   0  0  0  0  0  0  0  0  0  0  0  0
   58.4850   29.6390   46.4580 C   0  0  0  0  0  0  0  0  0  0  0  0
   57.6220   29.3050   45.3990 C   0  0  0  0  0  0  0  0  0  0  0  0
   56.9990   28.1490   45.0930 C   0  0  0  0  0  0  0  0  0  0  0  0
   57.1700   26.8670   45.8030 C   0  0  0  0  0  0  0  0  0  0  0  0
   56.0520   26.1680   46.2790 C   0  0  0  0  0  0  0  0  0  0  0  0
   54.7740   26.6960   46.1350 O   0  0  0  0  0  0  0  0  0  0  0  0
   56.2140   24.9680   46.8940 N   0  0  0  0  0  0  0  0  0  0  0  0
   57.4460   24.4180   47.0450 C   0  0  0  0  0  0  0  0  0  0  0  0
   57.5710   23.3070   47.6230 O   0  0  0  0  0  0  0  0  0  0  0  0
   58.5420   25.0620   46.5690 N   0  0  0  0  0  0  0  0  0  0  0  0
   58.4340   26.2640   45.9460 C   0  0  0  0  0  0  0  0  0  0  0  0
   59.4690   26.8230   45.4960 O   0  0  0  0  0  0  0  0  0  0  0  0
   57.4980   30.4480   44.6260 C   0  0  0  0  0  0  0  0  0  0  0  0
   58.3160   31.4050   45.1890 C   0  0  0  0  0  0  0  0  0  0  0  0
   58.4910   32.7950   44.6560 C   0  0  0  0  0  0  0  0  0  0  0  0
   58.9140   30.9180   46.2980 N   0  0  0  0  0  0  0  0  0  0  0  0
   59.8200   31.6430   47.1500 C   0  0  0  0  0  0  0  0  0  0  0  0
   59.4000   32.0830   48.4130 C   0  0  0  0  0  0  0  0  0  0  0  0
   60.2800   32.7800   49.2450 C   0  0  0  0  0  0  0  0  0  0  0  0
   61.5980   33.0330   48.8310 C   0  0  0  0  0  0  0  0  0  0  0  0
   62.5280   33.7840   49.6970 C   0  0  0  0  0  0  0  0  0  0  0  0
   62.2130   34.9510   50.0590 O   0  0  0  0  0  0  0  0  0  0  0  0
   63.7810   33.2230   50.1260 N   0  0  0  0  0  0  0  0  0  0  0  0
   64.5330   32.2430   49.3580 C   0  0  0  0  0  0  0  0  0  0  0  0
   65.8200   32.0060   50.1370 C   0  0  0  0  0  0  0  0  0  0  0  0
   65.9440   33.1780   51.1070 C   0  0  0  0  0  0  0  0  0  0  0  0
   64.5480   33.7720   51.2330 C   0  0  0  0  0  0  0  0  0  0  0  0
   62.0100   32.6100   47.5580 C   0  0  0  0  0  0  0  0  0  0  0  0
   61.1290   31.9130   46.7260 C   0  0  0  0  0  0  0  0  0  0  0  0
  1  2  2  0
  2  3  1  0
  3  4  2  0
  4  5  1  0
  5  6  2  0
  6  7  1  0
  6  8  1  0
  8  9  1  0
  9 10  2  0
  9 11  1  0
 11 12  1  0
 12 13  2  0
  3 14  1  0
 14 15  2  0
 15 16  1  0
 15 17  1  0
 17 18  1  0
 18 19  2  0
 19 20  1  0
 20 21  2  0
 21 22  1  0
 22 23  2  0
 22 24  1  0
 24 25  1  0
 25 26  1  0
 26 27  1  0
 27 28  1  0
 21 29  1  0
 29 30  2  0
 17  2  1  0
 30 18  1  0
 12  5  1  0
 28 24  1  0
M  CHG  3   7  -1   8  -1  11  -1
M  END
>  <UniqueID>  (1139) 
37

>  <SMILES>  (1139) 
C=c1/c(=C\c2c([O-])[n-]c(=O)[n-]c2=O)cc(C)n1-c1ccc(C(=O)N2CCCC2)cc1

>  <Energy>  (1139) 
105.90190120552533

>  <Genealogy>  (1139) 
C=c1c(=Cc2c([O-])[n-]c(=O)[n-]c2=O)cc(C)n1-c1ccc(C(=O)N2CCCC2)cc1 (protonated)
C=c1/c(=C\c2c([O-])[n-]c(=O)[n-]c2=O)cc(C)n1-c1ccc(C(=O)N2CCCC2)cc1 (cis-trans isomerization)
C=c1/c(=C\c2c([O-])[n-]c(=O)[n-]c2=O)cc(C)n1-c1ccc(C(=O)N2CCCC2)cc1 (3D coordinates assigned)
C=c1/c(=C\c2c([O-])[n-]c(=O)[n-]c2=O)cc(C)n1-c1ccc(C(=O)N2CCCC2)cc1 (nonaromatic ring conformer: 105.90190120552533 kcal/mol)

>  <smiles>  (1139) 
C=c1c(=Cc2c(O)[nH]c(=O)[nH]c2=O)cc(C)n1-c1ccc(C(=O)N2CCCC2)cc1

>  <score_type>  (1139) 
oracle

>  <origin>  (1139) 
adg

>  <m_score__min__energy>  (1139) 
-16.239999999999998

>  <m_primary>  (1139) 
energy

$$$$
53:0
     RDKit          3D

 29 32  0  0  0  0  0  0  0  0999 V2000
   54.9590   26.3880   45.9780 O   0  0  0  0  0  0  0  0  0  0  0  0
   55.9860   25.5230   46.3450 C   0  0  0  0  0  0  0  0  0  0  0  0
   55.8010   24.4630   47.1490 N   0  0  0  0  0  0  0  0  0  0  0  0
   57.0210   23.8860   47.1720 C   0  0  0  0  0  0  0  0  0  0  0  0
   57.2630   22.8380   47.8250 O   0  0  0  0  0  0  0  0  0  0  0  0
   57.9600   24.5160   46.4340 N   0  0  0  0  0  0  0  0  0  0  0  0
   57.3000   25.5730   45.9260 C   0  0  0  0  0  0  0  0  0  0  0  0
   57.9190   26.5450   45.0080 C   0  0  0  0  0  0  0  0  0  0  0  0
   58.1240   27.8380   45.3220 C   0  0  0  0  0  0  0  0  0  0  0  0
   57.3900   28.9210   44.8580 C   0  0  0  0  0  0  0  0  0  0  0  0
   57.9160   30.0450   45.4630 C   0  0  0  0  0  0  0  0  0  0  0  0
   57.4250   31.4420   45.2330 C   0  0  0  0  0  0  0  0  0  0  0  0
   58.9450   29.7070   46.2730 N   0  0  0  0  0  0  0  0  0  0  0  0
   59.7250   30.6210   47.0630 C   0  0  0  0  0  0  0  0  0  0  0  0
   61.0410   30.9320   46.6930 C   0  0  0  0  0  0  0  0  0  0  0  0
   61.8010   31.8070   47.4710 C   0  0  0  0  0  0  0  0  0  0  0  0
   61.2580   32.3690   48.6300 C   0  0  0  0  0  0  0  0  0  0  0  0
   59.9470   32.0540   49.0260 C   0  0  0  0  0  0  0  0  0  0  0  0
   59.3720   32.6480   50.2550 C   0  0  0  0  0  0  0  0  0  0  0  0
   59.6120   33.8540   50.5330 O   0  0  0  0  0  0  0  0  0  0  0  0
   58.5260   31.8780   51.1270 N   0  0  0  0  0  0  0  0  0  0  0  0
   57.4070   32.5320   51.8070 C   0  0  0  0  0  0  0  0  0  0  0  0
   56.3350   31.4900   52.1470 C   0  0  0  0  0  0  0  0  0  0  0  0
   56.8980   30.4000   52.8550 O   0  0  0  0  0  0  0  0  0  0  0  0
   57.8200   29.7150   52.0280 C   0  0  0  0  0  0  0  0  0  0  0  0
   59.0130   30.6140   51.6880 C   0  0  0  0  0  0  0  0  0  0  0  0
   59.1810   31.1880   48.2240 C   0  0  0  0  0  0  0  0  0  0  0  0
   59.0800   28.3580   46.2000 C   0  0  0  0  0  0  0  0  0  0  0  0
   60.0280   27.6610   46.8460 C   0  0  0  0  0  0  0  0  0  0  0  0
  1  2  1  0
  2  3  1  0
  3  4  1  0
  4  5  2  0
  4  6  1  0
  6  7  1  0
  7  8  1  0
  8  9  2  0
  9 10  1  0
 10 11  2  0
 11 12  1  0
 11 13  1  0
 13 14  1  0
 14 15  2  0
 15 16  1  0
 16 17  2  0
 17 18  1  0
 18 19  1  0
 19 20  2  0
 19 21  1  0
 21 22  1  0
 22 23  1  0
 23 24  1  0
 24 25  1  0
 25 26  1  0
 18 27  2  0
 13 28  1  0
 28 29  2  0
  7  2  2  0
 28  9  1  0
 27 14  1  0
 26 21  1  0
M  CHG  2   3  -1   6  -1
M  END
>  <UniqueID>  (1140) 
52

>  <SMILES>  (1140) 
C=c1/c(=C/c2[n-]c(=O)[n-]c2O)cc(C)n1-c1cccc(C(=O)N2CCOCC2)c1

>  <Energy>  (1140) 
127.23887285189144

>  <Genealogy>  (1140) 
C=c1c(=Cc2[n-]c(=O)[n-]c2O)cc(C)n1-c1cccc(C(=O)N2CCOCC2)c1 (protonated)
C=c1/c(=C/c2[n-]c(=O)[n-]c2O)cc(C)n1-c1cccc(C(=O)N2CCOCC2)c1 (cis-trans isomerization)
C=c1/c(=C/c2[n-]c(=O)[n-]c2O)cc(C)n1-c1cccc(C(=O)N2CCOCC2)c1 (3D coordinates assigned)
C=c1/c(=C/c2[n-]c(=O)[n-]c2O)cc(C)n1-c1cccc(C(=O)N2CCOCC2)c1 (nonaromatic ring conformer: 127.23887285189144 kcal/mol)

>  <smiles>  (1140) 
C=c1c(=Cc2[nH]c(=O)[nH]c2O)cc(C)n1-c1cccc(C(=O)N2CCOCC2)c1

>  <score_type>  (1140) 
oracle

>  <origin>  (1140) 
adg

>  <m_score__min__energy>  (1140) 
-14.470000000000001

>  <m_primary>  (1140) 
energy

$$$$
60:0
     RDKit          3D

 31 34  0  0  0  0  0  0  0  0999 V2000
   57.3950   28.3770   44.6620 C   0  0  0  0  0  0  0  0  0  0  0  0
   57.9890   27.5180   45.5050 C   0  0  0  0  0  0  0  0  0  0  0  0
   57.8790   26.1240   45.4830 C   0  0  0  0  0  0  0  0  0  0  0  0
   57.2150   25.3690   44.5860 C   0  0  0  0  0  0  0  0  0  0  0  0
   55.9210   24.7100   44.8730 C   0  0  0  0  0  0  0  0  0  0  0  0
   54.9260   25.3970   45.5830 C   0  0  0  0  0  0  0  0  0  0  0  0
   55.1260   26.7110   45.9910 O   0  0  0  0  0  0  0  0  0  0  0  0
   53.7480   24.7840   45.8670 N   0  0  0  0  0  0  0  0  0  0  0  0
   53.5160   23.5010   45.4890 C   0  0  0  0  0  0  0  0  0  0  0  0
   52.4150   22.9550   45.7580 O   0  0  0  0  0  0  0  0  0  0  0  0
   54.4730   22.8040   44.8250 N   0  0  0  0  0  0  0  0  0  0  0  0
   55.6690   23.3710   44.5180 C   0  0  0  0  0  0  0  0  0  0  0  0
   56.5460   22.6820   43.9330 O   0  0  0  0  0  0  0  0  0  0  0  0
   58.6260   25.6570   46.5580 C   0  0  0  0  0  0  0  0  0  0  0  0
   59.1570   26.7670   47.1820 C   0  0  0  0  0  0  0  0  0  0  0  0
   60.0270   26.7260   48.4010 C   0  0  0  0  0  0  0  0  0  0  0  0
   58.7670   27.8960   46.5490 N   0  0  0  0  0  0  0  0  0  0  0  0
   59.1300   29.2360   46.9260 C   0  0  0  0  0  0  0  0  0  0  0  0
   58.5520   29.8270   48.0570 C   0  0  0  0  0  0  0  0  0  0  0  0
   58.9120   31.1220   48.4360 C   0  0  0  0  0  0  0  0  0  0  0  0
   59.8540   31.8440   47.6870 C   0  0  0  0  0  0  0  0  0  0  0  0
   60.2620   33.2290   48.1210 C   0  0  0  0  0  0  0  0  0  0  0  0
   59.5620   34.2590   47.3230 N   0  0  0  0  0  0  0  0  0  0  0  0
   60.2780   34.5420   46.0560 C   0  0  0  0  0  0  0  0  0  0  0  0
   59.3270   35.1420   45.0080 C   0  0  0  0  0  0  0  0  0  0  0  0
   58.2460   34.2870   44.6590 O   0  0  0  0  0  0  0  0  0  0  0  0
   57.8920   33.3660   45.6810 C   0  0  0  0  0  0  0  0  0  0  0  0
   58.1390   33.9040   47.1030 C   0  0  0  0  0  0  0  0  0  0  0  0
   60.4410   31.2460   46.5600 C   0  0  0  0  0  0  0  0  0  0  0  0
   60.0810   29.9500   46.1800 C   0  0  0  0  0  0  0  0  0  0  0  0
   60.6720   29.3820   45.0990 F   0  0  0  0  0  0  0  0  0  0  0  0
  1  2  2  0
  2  3  1  0
  3  4  2  0
  4  5  1  0
  5  6  2  0
  6  7  1  0
  6  8  1  0
  8  9  1  0
  9 10  2  0
  9 11  1  0
 11 12  1  0
 12 13  2  0
  3 14  1  0
 14 15  2  0
 15 16  1  0
 15 17  1  0
 17 18  1  0
 18 19  2  0
 19 20  1  0
 20 21  2  0
 21 22  1  0
 22 23  1  0
 23 24  1  0
 24 25  1  0
 25 26  1  0
 26 27  1  0
 27 28  1  0
 21 29  1  0
 29 30  2  0
 30 31  1  0
 17  2  1  0
 30 18  1  0
 12  5  1  0
 28 23  1  0
M  CHG  3   7  -1   8  -1  11  -1
M  END
>  <UniqueID>  (1141) 
59

>  <SMILES>  (1141) 
C=c1/c(=C/c2c([O-])[n-]c(=O)[n-]c2=O)cc(C)n1-c1ccc(CN2CCOCC2)cc1F

>  <Energy>  (1141) 
113.67445454854526

>  <Genealogy>  (1141) 
C=c1c(=Cc2c([O-])[n-]c(=O)[n-]c2=O)cc(C)n1-c1ccc(CN2CCOCC2)cc1F (protonated)
C=c1/c(=C/c2c([O-])[n-]c(=O)[n-]c2=O)cc(C)n1-c1ccc(CN2CCOCC2)cc1F (cis-trans isomerization)
C=c1/c(=C/c2c([O-])[n-]c(=O)[n-]c2=O)cc(C)n1-c1ccc(CN2CCOCC2)cc1F (3D coordinates assigned)
C=c1/c(=C/c2c([O-])[n-]c(=O)[n-]c2=O)cc(C)n1-c1ccc(CN2CCOCC2)cc1F (nonaromatic ring conformer: 113.67445454854526 kcal/mol)

>  <smiles>  (1141) 
C=c1c(=Cc2c(O)[nH]c(=O)[nH]c2=O)cc(C)n1-c1ccc(CN2CCOCC2)cc1F

>  <score_type>  (1141) 
oracle

>  <origin>  (1141) 
adg

>  <m_score__min__energy>  (1141) 
-15.59

>  <m_primary>  (1141) 
energy

$$$$
67:0
     RDKit          3D

 31 34  0  0  0  0  0  0  0  0999 V2000
   58.7920   28.1740   46.6950 C   0  0  0  0  0  0  0  0  0  0  0  0
   58.2960   28.5020   45.4910 C   0  0  0  0  0  0  0  0  0  0  0  0
   57.8150   27.6150   44.5220 C   0  0  0  0  0  0  0  0  0  0  0  0
   57.8260   26.2690   44.5710 C   0  0  0  0  0  0  0  0  0  0  0  0
   57.2130   25.4780   45.6540 C   0  0  0  0  0  0  0  0  0  0  0  0
   57.8440   24.4670   46.2770 N   0  0  0  0  0  0  0  0  0  0  0  0
   56.9680   24.0930   47.2350 C   0  0  0  0  0  0  0  0  0  0  0  0
   57.1980   23.1470   48.0310 O   0  0  0  0  0  0  0  0  0  0  0  0
   55.8310   24.8190   47.2780 N   0  0  0  0  0  0  0  0  0  0  0  0
   56.0060   25.7000   46.2800 C   0  0  0  0  0  0  0  0  0  0  0  0
   55.1020   26.7130   45.9830 O   0  0  0  0  0  0  0  0  0  0  0  0
   57.3670   28.3980   43.4660 C   0  0  0  0  0  0  0  0  0  0  0  0
   57.5870   29.7120   43.8260 C   0  0  0  0  0  0  0  0  0  0  0  0
   57.2540   30.8970   42.9690 C   0  0  0  0  0  0  0  0  0  0  0  0
   58.1440   29.7780   45.0560 N   0  0  0  0  0  0  0  0  0  0  0  0
   58.5210   30.9850   45.7430 C   0  0  0  0  0  0  0  0  0  0  0  0
   57.5930   32.0200   45.9130 C   0  0  0  0  0  0  0  0  0  0  0  0
   57.9610   33.1980   46.5690 C   0  0  0  0  0  0  0  0  0  0  0  0
   59.2670   33.3600   47.0690 C   0  0  0  0  0  0  0  0  0  0  0  0
   59.6880   34.6080   47.7620 C   0  0  0  0  0  0  0  0  0  0  0  0
   59.6490   35.6980   47.1240 O   0  0  0  0  0  0  0  0  0  0  0  0
   60.1080   34.6110   49.1520 N   0  0  1  0  0  0  0  0  0  0  0  0
   59.3830   33.5520   49.9160 C   0  0  0  0  0  0  0  0  0  0  0  0
   60.1870   32.2930   50.0610 C   0  0  0  0  0  0  0  0  0  0  0  0
   59.6380   31.1640   49.9530 O   0  0  0  0  0  0  0  0  0  0  0  0
   61.5790   32.4110   50.3700 N   0  0  0  0  0  0  0  0  0  0  0  0
   62.4200   31.2270   50.5380 C   0  0  0  0  0  0  0  0  0  0  0  0
   62.1260   33.7650   50.4250 C   0  0  0  0  0  0  0  0  0  0  0  0
   61.6010   34.5600   49.2220 C   0  0  0  0  0  0  0  0  0  0  0  0
   60.1970   32.3210   46.8810 C   0  0  0  0  0  0  0  0  0  0  0  0
   59.8260   31.1440   46.2260 C   0  0  0  0  0  0  0  0  0  0  0  0
  1  2  2  0
  2  3  1  0
  3  4  2  0
  4  5  1  0
  5  6  1  0
  6  7  1  0
  7  8  2  0
  7  9  1  0
  9 10  1  0
 10 11  1  0
  3 12  1  0
 12 13  2  0
 13 14  1  0
 13 15  1  0
 15 16  1  0
 16 17  2  0
 17 18  1  0
 18 19  2  0
 19 20  1  0
 20 21  2  0
 22 20  1  6
 22 23  1  0
 23 24  1  0
 24 25  2  0
 24 26  1  0
 26 27  1  0
 26 28  1  0
 28 29  1  0
 19 30  1  0
 30 31  2  0
 15  2  1  0
 31 16  1  0
 10  5  2  0
 29 22  1  0
M  CHG  4   6  -1   9  -1  11  -1  22   1
M  END
>  <UniqueID>  (1142) 
65

>  <SMILES>  (1142) 
C=c1/c(=C/c2[n-]c(=O)[n-]c2[O-])cc(C)n1-c1ccc(C(=O)[N@@H+]2CCN(C)C(=O)C2)cc1

>  <Energy>  (1142) 
138.39130925383552

>  <Genealogy>  (1142) 
C=c1c(=Cc2[n-]c(=O)[n-]c2[O-])cc(C)n1-c1ccc(C(=O)[NH+]2CCN(C)C(=O)C2)cc1 (protonated)
C=c1c(=Cc2[n-]c(=O)[n-]c2[O-])cc(C)n1-c1ccc(C(=O)[N@@H+]2CCN(C)C(=O)C2)cc1 (chirality)
C=c1/c(=C/c2[n-]c(=O)[n-]c2[O-])cc(C)n1-c1ccc(C(=O)[N@@H+]2CCN(C)C(=O)C2)cc1 (cis-trans isomerization)
C=c1/c(=C/c2[n-]c(=O)[n-]c2[O-])cc(C)n1-c1ccc(C(=O)[N@@H+]2CCN(C)C(=O)C2)cc1 (3D coordinates assigned)
C=c1/c(=C/c2[n-]c(=O)[n-]c2[O-])cc(C)n1-c1ccc(C(=O)[N@@H+]2CCN(C)C(=O)C2)cc1 (nonaromatic ring conformer: 138.39130925383552 kcal/mol)

>  <smiles>  (1142) 
C=c1c(=Cc2[nH]c(=O)[nH]c2O)cc(C)n1-c1ccc(C(=O)N2CCN(C)C(=O)C2)cc1

>  <score_type>  (1142) 
oracle

>  <origin>  (1142) 
adg

>  <m_score__min__energy>  (1142) 
-14.68

>  <m_primary>  (1142) 
energy

$$$$
79:0
     RDKit          3D

 25 27  0  0  0  0  0  0  0  0999 V2000
   57.6000   32.6540   45.6340 C   0  0  0  0  0  0  0  0  0  0  0  0
   58.0570   31.4010   45.8500 C   0  0  0  0  0  0  0  0  0  0  0  0
   57.3920   30.3040   45.2520 C   0  0  0  0  0  0  0  0  0  0  0  0
   56.3730   30.4860   44.5240 O   0  0  0  0  0  0  0  0  0  0  0  0
   57.8810   29.0030   45.4750 C   0  0  0  0  0  0  0  0  0  0  0  0
   57.2750   27.9220   44.9430 C   0  0  0  0  0  0  0  0  0  0  0  0
   57.2630   26.5900   45.5880 C   0  0  0  0  0  0  0  0  0  0  0  0
   58.4790   25.9090   45.7560 C   0  0  0  0  0  0  0  0  0  0  0  0
   58.5080   24.6560   46.3710 C   0  0  0  0  0  0  0  0  0  0  0  0
   57.3270   24.0770   46.8400 C   0  0  0  0  0  0  0  0  0  0  0  0
   57.3570   22.8270   47.4480 O   0  0  0  0  0  0  0  0  0  0  0  0
   56.1140   24.7580   46.7040 C   0  0  0  0  0  0  0  0  0  0  0  0
   56.0770   26.0170   46.0940 C   0  0  0  0  0  0  0  0  0  0  0  0
   54.8660   26.6980   46.0200 O   0  0  0  0  0  0  0  0  0  0  0  0
   58.9700   28.8420   46.2690 N   0  0  0  0  0  0  0  0  0  0  0  0
   59.6080   29.8880   46.8430 C   0  0  0  0  0  0  0  0  0  0  0  0
   60.6170   29.6630   47.5660 O   0  0  0  0  0  0  0  0  0  0  0  0
   59.1620   31.1680   46.6430 N   0  0  0  0  0  0  0  0  0  0  0  0
   59.8790   32.2460   47.2810 C   0  0  0  0  0  0  0  0  0  0  0  0
   61.1070   32.6770   46.7580 C   0  0  0  0  0  0  0  0  0  0  0  0
   61.8030   33.7220   47.3760 C   0  0  0  0  0  0  0  0  0  0  0  0
   61.2760   34.3380   48.5150 C   0  0  0  0  0  0  0  0  0  0  0  0
   60.0530   33.9090   49.0390 C   0  0  0  0  0  0  0  0  0  0  0  0
   59.3540   32.8650   48.4260 C   0  0  0  0  0  0  0  0  0  0  0  0
   58.1680   32.4550   48.9420 F   0  0  0  0  0  0  0  0  0  0  0  0
  1  2  2  0
  2  3  1  0
  3  4  2  0
  3  5  1  0
  5  6  2  0
  6  7  1  0
  7  8  2  0
  8  9  1  0
  9 10  2  0
 10 11  1  0
 10 12  1  0
 12 13  2  0
 13 14  1  0
  5 15  1  0
 15 16  1  0
 16 17  2  0
 16 18  1  0
 18 19  1  0
 19 20  2  0
 20 21  1  0
 21 22  2  0
 22 23  1  0
 23 24  2  0
 24 25  1  0
 18  2  1  0
 24 19  1  0
 13  7  1  0
M  CHG  3  11  -1  14  -1  15  -1
M  END
>  <UniqueID>  (1143) 
77

>  <SMILES>  (1143) 
C=c1c(=O)/c(=C/c2ccc([O-])cc2[O-])[n-]c(=O)n1-c1ccccc1F

>  <Energy>  (1143) 
63.685220997261425

>  <Genealogy>  (1143) 
C=c1c(=O)c(=Cc2ccc([O-])cc2[O-])[n-]c(=O)n1-c1ccccc1F (protonated)
C=c1c(=O)/c(=C/c2ccc([O-])cc2[O-])[n-]c(=O)n1-c1ccccc1F (cis-trans isomerization)
C=c1c(=O)/c(=C/c2ccc([O-])cc2[O-])[n-]c(=O)n1-c1ccccc1F (3D coordinates assigned)
C=c1c(=O)/c(=C/c2ccc([O-])cc2[O-])[n-]c(=O)n1-c1ccccc1F (optimized conformer: 63.685220997261425 kcal/mol)

>  <smiles>  (1143) 
C=c1c(=O)c(=Cc2ccc(O)cc2O)[nH]c(=O)n1-c1ccccc1F

>  <score_type>  (1143) 
oracle

>  <origin>  (1143) 
adg

>  <m_score__min__energy>  (1143) 
-15.289999999999999

>  <m_primary>  (1143) 
energy

$$$$
6:0
     RDKit          3D

 32 35  0  0  0  0  0  0  0  0999 V2000
   59.4950   29.9990   46.5310 C   0  0  0  0  0  0  0  0  0  0  0  0
   58.7040   30.7560   45.7540 C   0  0  0  0  0  0  0  0  0  0  0  0
   57.9780   30.3300   44.6380 C   0  0  0  0  0  0  0  0  0  0  0  0
   57.9120   29.0830   44.1310 C   0  0  0  0  0  0  0  0  0  0  0  0
   57.3650   27.9360   44.8860 C   0  0  0  0  0  0  0  0  0  0  0  0
   56.0140   27.9140   45.2600 C   0  0  0  0  0  0  0  0  0  0  0  0
   55.1730   28.9690   44.9280 O   0  0  0  0  0  0  0  0  0  0  0  0
   55.5140   26.8470   45.9360 N   0  0  0  0  0  0  0  0  0  0  0  0
   56.3050   25.7980   46.2760 C   0  0  0  0  0  0  0  0  0  0  0  0
   55.8150   24.8100   46.8860 O   0  0  0  0  0  0  0  0  0  0  0  0
   57.6230   25.8090   45.9580 N   0  0  0  0  0  0  0  0  0  0  0  0
   58.1720   26.8550   45.2880 C   0  0  0  0  0  0  0  0  0  0  0  0
   59.4070   26.8490   45.0420 O   0  0  0  0  0  0  0  0  0  0  0  0
   57.2950   31.4460   44.1670 C   0  0  0  0  0  0  0  0  0  0  0  0
   57.6420   32.4990   44.9910 C   0  0  0  0  0  0  0  0  0  0  0  0
   57.0980   33.8920   44.8770 C   0  0  0  0  0  0  0  0  0  0  0  0
   58.4910   32.0800   45.9550 N   0  0  0  0  0  0  0  0  0  0  0  0
   59.0630   32.9100   46.9800 C   0  0  0  0  0  0  0  0  0  0  0  0
   59.7790   34.0670   46.6320 C   0  0  0  0  0  0  0  0  0  0  0  0
   60.2890   34.9060   47.6300 C   0  0  0  0  0  0  0  0  0  0  0  0
   60.0940   34.5870   48.9760 C   0  0  0  0  0  0  0  0  0  0  0  0
   59.4100   33.4080   49.3340 C   0  0  0  0  0  0  0  0  0  0  0  0
   59.2820   33.0330   50.7580 C   0  0  0  0  0  0  0  0  0  0  0  0
   58.8800   33.9020   51.5810 O   0  0  0  0  0  0  0  0  0  0  0  0
   59.7630   31.7500   51.2290 N   0  0  0  0  0  0  0  0  0  0  0  0
   58.6550   30.7550   51.2200 C   0  0  0  0  0  0  0  0  0  0  0  0
   58.8050   29.7210   50.0950 C   0  0  0  0  0  0  0  0  0  0  0  0
   60.0740   28.9710   50.2450 N   0  0  0  0  0  0  0  0  0  0  0  0
   60.3780   28.2160   49.0180 C   0  0  0  0  0  0  0  0  0  0  0  0
   61.2230   29.8170   50.6660 C   0  0  0  0  0  0  0  0  0  0  0  0
   60.9570   31.3180   50.4620 C   0  0  0  0  0  0  0  0  0  0  0  0
   58.8830   32.5810   48.3300 C   0  0  0  0  0  0  0  0  0  0  0  0
  1  2  2  0
  2  3  1  0
  3  4  2  0
  4  5  1  0
  5  6  2  0
  6  7  1  0
  6  8  1  0
  8  9  1  0
  9 10  2  0
  9 11  1  0
 11 12  1  0
 12 13  2  0
  3 14  1  0
 14 15  2  0
 15 16  1  0
 15 17  1  0
 17 18  1  0
 18 19  2  0
 19 20  1  0
 20 21  2  0
 21 22  1  0
 22 23  1  0
 23 24  2  0
 23 25  1  0
 25 26  1  0
 26 27  1  0
 27 28  1  0
 28 29  1  0
 28 30  1  0
 30 31  1  0
 22 32  2  0
 17  2  1  0
 32 18  1  0
 12  5  1  0
 31 25  1  0
M  CHG  4   7  -1   8  -1  11  -1  25   1
M  END
>  <UniqueID>  (1144) 
7

>  <SMILES>  (1144) 
C=c1/c(=C/c2c([O-])[n-]c(=O)[n-]c2=O)cc(C)n1-c1cccc(C(=O)[NH+]2CCN(C)CC2)c1

>  <Energy>  (1144) 
122.75773461118972

>  <Genealogy>  (1144) 
C=c1c(=Cc2c([O-])[n-]c(=O)[n-]c2=O)cc(C)n1-c1cccc(C(=O)[NH+]2CCN(C)CC2)c1 (protonated)
C=c1/c(=C/c2c([O-])[n-]c(=O)[n-]c2=O)cc(C)n1-c1cccc(C(=O)[NH+]2CCN(C)CC2)c1 (cis-trans isomerization)
C=c1/c(=C/c2c([O-])[n-]c(=O)[n-]c2=O)cc(C)n1-c1cccc(C(=O)[NH+]2CCN(C)CC2)c1 (3D coordinates assigned)
C=c1/c(=C/c2c([O-])[n-]c(=O)[n-]c2=O)cc(C)n1-c1cccc(C(=O)[NH+]2CCN(C)CC2)c1 (nonaromatic ring conformer: 122.75773461118972 kcal/mol)

>  <smiles>  (1144) 
C=c1c(=Cc2c(O)[nH]c(=O)[nH]c2=O)cc(C)n1-c1cccc(C(=O)N2CCN(C)CC2)c1

>  <score_type>  (1144) 
oracle

>  <origin>  (1144) 
adg

>  <m_score__min__energy>  (1144) 
-15.51

>  <m_primary>  (1144) 
energy

$$$$
16:0
     RDKit          3D

 26 28  0  0  0  0  0  0  0  0999 V2000
   58.4700   33.0930   51.9440 C   0  0  0  0  0  0  0  0  0  0  0  0
   57.2120   32.8820   52.4120 N   0  0  0  0  0  0  0  0  0  0  0  0
   56.5000   31.7640   52.0900 C   0  0  0  0  0  0  0  0  0  0  0  0
   55.2960   31.5720   52.5480 N   0  0  0  0  0  0  0  0  0  0  0  0
   54.3380   30.6090   52.0790 C   0  0  0  0  0  0  0  0  0  0  0  0
   54.3090   29.4340   52.5380 O   0  0  0  0  0  0  0  0  0  0  0  0
   53.3230   31.0250   51.0630 C   0  0  0  0  0  0  0  0  0  0  0  0
   52.1340   31.6250   51.7440 C   0  0  0  0  0  0  0  0  0  0  0  0
   51.8520   31.4680   53.0490 N   0  0  0  0  0  0  0  0  0  0  0  0
   50.6770   32.1170   53.1930 C   0  0  0  0  0  0  0  0  0  0  0  0
   50.0780   32.2000   54.2980 O   0  0  0  0  0  0  0  0  0  0  0  0
   50.1890   32.6650   52.0600 N   0  0  0  0  0  0  0  0  0  0  0  0
   51.1220   32.3400   51.1510 C   0  0  0  0  0  0  0  0  0  0  0  0
   51.0450   32.6810   49.8070 O   0  0  0  0  0  0  0  0  0  0  0  0
   57.0740   30.8000   51.2520 C   0  0  0  0  0  0  0  0  0  0  0  0
   58.3680   30.9960   50.7510 C   0  0  0  0  0  0  0  0  0  0  0  0
   58.9990   29.9570   49.8630 C   0  0  0  0  0  0  0  0  0  0  0  0
   59.6510   30.5690   48.7660 O   0  0  0  0  0  0  0  0  0  0  0  0
   58.8970   30.4190   47.5770 C   0  0  0  0  0  0  0  0  0  0  0  0
   58.6100   31.7620   46.9590 C   0  0  0  0  0  0  0  0  0  0  0  0
   58.8680   32.9460   47.6690 C   0  0  0  0  0  0  0  0  0  0  0  0
   58.5820   34.1880   47.0950 C   0  0  0  0  0  0  0  0  0  0  0  0
   58.0340   34.2560   45.8100 C   0  0  0  0  0  0  0  0  0  0  0  0
   57.7710   33.0820   45.1000 C   0  0  0  0  0  0  0  0  0  0  0  0
   58.0540   31.8380   45.6710 C   0  0  0  0  0  0  0  0  0  0  0  0
   59.0720   32.1550   51.1060 C   0  0  0  0  0  0  0  0  0  0  0  0
  1  2  1  0
  2  3  1  0
  3  4  2  0
  4  5  1  0
  5  6  2  0
  5  7  1  0
  7  8  1  0
  8  9  1  0
  9 10  1  0
 10 11  2  0
 10 12  1  0
 12 13  1  0
 13 14  1  0
  3 15  1  0
 15 16  2  0
 16 17  1  0
 17 18  1  0
 18 19  1  0
 19 20  1  0
 20 21  2  0
 21 22  1  0
 22 23  2  0
 23 24  1  0
 24 25  2  0
 16 26  1  0
 26  1  2  0
 13  8  2  0
 25 20  1  0
M  CHG  4   2  -1   9  -1  12  -1  14  -1
M  END
>  <UniqueID>  (1145) 
17

>  <SMILES>  (1145) 
O=C(Cc1[n-]c(=O)[n-]c1[O-])/N=c1/cc(COCc2ccccc2)cc[n-]1

>  <Energy>  (1145) 
74.90807908239697

>  <Genealogy>  (1145) 
O=C(Cc1[n-]c(=O)[n-]c1[O-])N=c1cc(COCc2ccccc2)cc[n-]1 (protonated)
O=C(Cc1[n-]c(=O)[n-]c1[O-])/N=c1/cc(COCc2ccccc2)cc[n-]1 (cis-trans isomerization)
O=C(Cc1[n-]c(=O)[n-]c1[O-])/N=c1/cc(COCc2ccccc2)cc[n-]1 (3D coordinates assigned)
O=C(Cc1[n-]c(=O)[n-]c1[O-])/N=c1/cc(COCc2ccccc2)cc[n-]1 (optimized conformer: 74.90807908239697 kcal/mol)

>  <smiles>  (1145) 
O=C(Cc1[nH]c(=O)[nH]c1O)N=c1cc(COCc2ccccc2)cc[nH]1

>  <score_type>  (1145) 
oracle

>  <origin>  (1145) 
adg

>  <m_score__min__energy>  (1145) 
-18.550000000000001

>  <m_primary>  (1145) 
energy

$$$$
18:0
     RDKit          3D

 26 28  0  0  0  0  0  0  0  0999 V2000
   59.9950   25.8570   47.1080 O   0  0  0  0  0  0  0  0  0  0  0  0
   59.2330   26.7750   46.7040 C   0  0  0  0  0  0  0  0  0  0  0  0
   58.1710   26.4630   45.6940 C   0  0  0  0  0  0  0  0  0  0  0  0
   57.3140   27.6680   45.4660 C   0  0  0  0  0  0  0  0  0  0  0  0
   57.7790   28.8490   45.0210 N   0  0  0  0  0  0  0  0  0  0  0  0
   56.6620   29.6000   44.9080 C   0  0  0  0  0  0  0  0  0  0  0  0
   56.6840   30.7950   44.5150 O   0  0  0  0  0  0  0  0  0  0  0  0
   55.5180   28.9660   45.2410 N   0  0  0  0  0  0  0  0  0  0  0  0
   55.9480   27.7410   45.5860 C   0  0  0  0  0  0  0  0  0  0  0  0
   55.1090   26.7120   45.9970 O   0  0  0  0  0  0  0  0  0  0  0  0
   59.3480   28.0990   47.2370 N   0  0  0  0  0  0  0  0  0  0  0  0
   60.3530   28.4460   48.2420 C   0  0  0  0  0  0  0  0  0  0  0  0
   59.8610   29.5840   49.0980 C   0  0  0  0  0  0  0  0  0  0  0  0
   60.1470   29.6030   50.4740 C   0  0  0  0  0  0  0  0  0  0  0  0
   59.6400   30.6180   51.2860 C   0  0  0  0  0  0  0  0  0  0  0  0
   58.8360   31.6160   50.7360 C   0  0  0  0  0  0  0  0  0  0  0  0
   58.5310   31.6030   49.3730 C   0  0  0  0  0  0  0  0  0  0  0  0
   59.0370   30.5840   48.5420 C   0  0  0  0  0  0  0  0  0  0  0  0
   58.7430   30.5290   47.1680 O   0  0  0  0  0  0  0  0  0  0  0  0
   59.5820   31.0220   46.1260 C   0  0  0  0  0  0  0  0  0  0  0  0
   59.5860   32.5250   46.1290 C   0  0  0  0  0  0  0  0  0  0  0  0
   58.7140   33.2290   45.2820 C   0  0  0  0  0  0  0  0  0  0  0  0
   58.6990   34.6270   45.2900 C   0  0  0  0  0  0  0  0  0  0  0  0
   59.5520   35.3300   46.1430 C   0  0  0  0  0  0  0  0  0  0  0  0
   60.4230   34.6370   46.9890 C   0  0  0  0  0  0  0  0  0  0  0  0
   60.4440   33.2390   46.9810 C   0  0  0  0  0  0  0  0  0  0  0  0
  1  2  2  0
  2  3  1  0
  3  4  1  0
  4  5  1  0
  5  6  1  0
  6  7  2  0
  6  8  1  0
  8  9  1  0
  9 10  1  0
  2 11  1  0
 11 12  1  0
 12 13  1  0
 13 14  2  0
 14 15  1  0
 15 16  2  0
 16 17  1  0
 17 18  2  0
 18 19  1  0
 19 20  1  0
 20 21  1  0
 21 22  2  0
 22 23  1  0
 23 24  2  0
 24 25  1  0
 25 26  2  0
  9  4  2  0
 18 13  1  0
 26 21  1  0
M  CHG  3   5  -1   8  -1  10  -1
M  END
>  <UniqueID>  (1146) 
19

>  <SMILES>  (1146) 
O=C(Cc1[n-]c(=O)[n-]c1[O-])NCc1ccccc1OCc1ccccc1

>  <Energy>  (1146) 
68.05460852043637

>  <Genealogy>  (1146) 
O=C(Cc1[n-]c(=O)[n-]c1[O-])NCc1ccccc1OCc1ccccc1 (protonated)
O=C(Cc1[n-]c(=O)[n-]c1[O-])NCc1ccccc1OCc1ccccc1 (3D coordinates assigned)
O=C(Cc1[n-]c(=O)[n-]c1[O-])NCc1ccccc1OCc1ccccc1 (optimized conformer: 68.05460852043637 kcal/mol)

>  <smiles>  (1146) 
O=C(Cc1[nH]c(=O)[nH]c1O)NCc1ccccc1OCc1ccccc1

>  <score_type>  (1146) 
oracle

>  <origin>  (1146) 
adg

>  <m_score__min__energy>  (1146) 
-17.260000000000002

>  <m_primary>  (1146) 
energy

$$$$
23:0
     RDKit          3D

 28 30  0  0  0  0  0  0  0  0999 V2000
   54.7510   26.3310   45.9700 N   0  0  0  0  0  0  0  0  0  0  0  0
   56.0850   25.2640   46.2260 S   0  0  0  0  0  0  0  0  0  0  0  0
   55.8730   24.4980   47.5020 O   0  0  0  0  0  0  0  0  0  0  0  0
   56.1750   24.2870   45.0870 O   0  0  0  0  0  0  0  0  0  0  0  0
   57.5740   26.1980   46.3280 C   0  0  0  0  0  0  0  0  0  0  0  0
   58.7510   25.6030   46.8020 C   0  0  0  0  0  0  0  0  0  0  0  0
   59.9310   26.3470   46.8840 C   0  0  0  0  0  0  0  0  0  0  0  0
   59.9400   27.6920   46.5040 C   0  0  0  0  0  0  0  0  0  0  0  0
   58.7620   28.3070   46.0500 C   0  0  0  0  0  0  0  0  0  0  0  0
   58.7770   29.7430   45.6110 C   0  0  0  0  0  0  0  0  0  0  0  0
   57.4170   30.2640   45.6420 N   0  0  0  0  0  0  0  0  0  0  0  0
   56.7520   31.0370   44.6310 C   0  0  0  0  0  0  0  0  0  0  0  0
   55.6950   30.5740   44.1310 O   0  0  0  0  0  0  0  0  0  0  0  0
   57.2230   32.3090   44.1590 N   0  0  0  0  0  0  0  0  0  0  0  0
   57.0630   33.6090   44.7960 C   0  0  0  0  0  0  0  0  0  0  0  0
   58.1120   33.7690   45.8570 C   0  0  0  0  0  0  0  0  0  0  0  0
   59.2080   34.6210   45.6470 C   0  0  0  0  0  0  0  0  0  0  0  0
   60.1660   34.7990   46.6490 C   0  0  0  0  0  0  0  0  0  0  0  0
   60.0420   34.1260   47.8750 C   0  0  0  0  0  0  0  0  0  0  0  0
   61.0480   34.3530   48.9680 C   0  0  0  0  0  0  0  0  0  0  0  0
   62.2850   33.6450   48.6580 N   0  0  0  0  0  0  0  0  0  0  0  0
   62.4480   32.7250   47.6900 C   0  0  0  0  0  0  0  0  0  0  0  0
   63.7740   32.3480   47.6720 C   0  0  0  0  0  0  0  0  0  0  0  0
   64.3670   33.1010   48.6680 C   0  0  0  0  0  0  0  0  0  0  0  0
   63.4430   33.8890   49.2500 N   0  0  0  0  0  0  0  0  0  0  0  0
   58.9310   33.3000   48.0970 C   0  0  0  0  0  0  0  0  0  0  0  0
   57.9710   33.1220   47.0950 C   0  0  0  0  0  0  0  0  0  0  0  0
   57.5820   27.5500   45.9540 C   0  0  0  0  0  0  0  0  0  0  0  0
  1  2  1  0
  2  3  2  0
  2  4  2  0
  2  5  1  0
  5  6  2  0
  6  7  1  0
  7  8  2  0
  8  9  1  0
  9 10  1  0
 10 11  1  0
 11 12  1  0
 12 13  2  0
 12 14  1  0
 14 15  1  0
 15 16  1  0
 16 17  2  0
 17 18  1  0
 18 19  2  0
 19 20  1  0
 20 21  1  0
 21 22  1  0
 22 23  2  0
 23 24  1  0
 24 25  2  0
 19 26  1  0
 26 27  2  0
  9 28  2  0
 28  5  1  0
 27 16  1  0
 25 21  1  0
M  CHG  3   1  -1  11  -1  14  -1
M  END
>  <UniqueID>  (1147) 
23

>  <SMILES>  (1147) 
[NH-]S(=O)(=O)c1cccc(C[N-]C(=O)[N-]Cc2ccc(Cn3cccn3)cc2)c1

>  <Energy>  (1147) 
75.24342138497131

>  <Genealogy>  (1147) 
[NH-]S(=O)(=O)c1cccc(C[N-]C(=O)[N-]Cc2ccc(Cn3cccn3)cc2)c1 (protonated)
[NH-]S(=O)(=O)c1cccc(C[N-]C(=O)[N-]Cc2ccc(Cn3cccn3)cc2)c1 (3D coordinates assigned)
[NH-]S(=O)(=O)c1cccc(C[N-]C(=O)[N-]Cc2ccc(Cn3cccn3)cc2)c1 (optimized conformer: 75.24342138497131 kcal/mol)

>  <smiles>  (1147) 
NS(=O)(=O)c1cccc(CNC(=O)NCc2ccc(Cn3cccn3)cc2)c1

>  <score_type>  (1147) 
oracle

>  <origin>  (1147) 
adg

>  <m_score__min__energy>  (1147) 
-15.25

>  <m_primary>  (1147) 
energy

$$$$
24:0
     RDKit          3D

 26 28  0  0  0  0  0  0  0  0999 V2000
   58.7880   30.2860   47.0730 C   0  0  0  0  0  0  0  0  0  0  0  0
   58.3780   31.1580   46.1380 C   0  0  0  0  0  0  0  0  0  0  0  0
   58.0640   30.8620   44.8030 C   0  0  0  0  0  0  0  0  0  0  0  0
   57.8530   29.6820   44.1860 C   0  0  0  0  0  0  0  0  0  0  0  0
   57.4500   28.4270   44.8530 C   0  0  0  0  0  0  0  0  0  0  0  0
   56.1190   28.2350   45.2480 C   0  0  0  0  0  0  0  0  0  0  0  0
   55.1570   29.2020   44.9730 O   0  0  0  0  0  0  0  0  0  0  0  0
   55.7570   27.0940   45.8940 N   0  0  0  0  0  0  0  0  0  0  0  0
   56.6770   26.1340   46.1820 C   0  0  0  0  0  0  0  0  0  0  0  0
   56.3260   25.0800   46.7770 O   0  0  0  0  0  0  0  0  0  0  0  0
   57.9770   26.3110   45.8350 N   0  0  0  0  0  0  0  0  0  0  0  0
   58.3860   27.4320   45.1910 C   0  0  0  0  0  0  0  0  0  0  0  0
   59.6060   27.5710   44.9080 O   0  0  0  0  0  0  0  0  0  0  0  0
   57.9840   32.0750   44.1450 C   0  0  0  0  0  0  0  0  0  0  0  0
   58.1770   33.0570   45.0930 C   0  0  0  0  0  0  0  0  0  0  0  0
   58.2220   34.5250   44.7830 C   0  0  0  0  0  0  0  0  0  0  0  0
   58.3680   32.5080   46.3180 N   0  0  0  0  0  0  0  0  0  0  0  0
   58.6100   33.2590   47.5650 C   0  0  0  0  0  0  0  0  0  0  0  0
   60.0910   33.5010   47.8180 C   0  0  0  0  0  0  0  0  0  0  0  0
   60.9440   33.5680   46.7030 C   0  0  0  0  0  0  0  0  0  0  0  0
   62.3160   33.7380   46.8620 C   0  0  0  0  0  0  0  0  0  0  0  0
   62.8650   33.8370   48.1370 C   0  0  0  0  0  0  0  0  0  0  0  0
   62.0450   33.7930   49.2740 C   0  0  0  0  0  0  0  0  0  0  0  0
   62.6950   33.8950   50.6310 C   0  0  0  0  0  0  0  0  0  0  0  0
   60.6360   33.6840   49.1220 C   0  0  0  0  0  0  0  0  0  0  0  0
   59.7360   33.7100   50.3370 C   0  0  0  0  0  0  0  0  0  0  0  0
  1  2  2  0
  2  3  1  0
  3  4  2  0
  4  5  1  0
  5  6  2  0
  6  7  1  0
  6  8  1  0
  8  9  1  0
  9 10  2  0
  9 11  1  0
 11 12  1  0
 12 13  2  0
  3 14  1  0
 14 15  2  0
 15 16  1  0
 15 17  1  0
 17 18  1  0
 18 19  1  0
 19 20  2  0
 20 21  1  0
 21 22  2  0
 22 23  1  0
 23 24  1  0
 23 25  2  0
 25 26  1  0
 17  2  1  0
 25 19  1  0
 12  5  1  0
M  CHG  2   7  -1  11  -1
M  END
>  <UniqueID>  (1148) 
24

>  <SMILES>  (1148) 
C=c1/c(=C\c2c([O-])[nH]c(=O)[n-]c2=O)cc(C)n1Cc1cccc(C)c1C

>  <Energy>  (1148) 
93.44920399709157

>  <Genealogy>  (1148) 
C=c1c(=Cc2c([O-])[nH]c(=O)[n-]c2=O)cc(C)n1Cc1cccc(C)c1C (protonated)
C=c1/c(=C\c2c([O-])[nH]c(=O)[n-]c2=O)cc(C)n1Cc1cccc(C)c1C (cis-trans isomerization)
C=c1/c(=C\c2c([O-])[nH]c(=O)[n-]c2=O)cc(C)n1Cc1cccc(C)c1C (3D coordinates assigned)
C=c1/c(=C\c2c([O-])[nH]c(=O)[n-]c2=O)cc(C)n1Cc1cccc(C)c1C (optimized conformer: 93.44920399709157 kcal/mol)

>  <smiles>  (1148) 
C=c1c(=Cc2c(O)[nH]c(=O)[nH]c2=O)cc(C)n1Cc1cccc(C)c1C

>  <score_type>  (1148) 
oracle

>  <origin>  (1148) 
adg

>  <m_score__min__energy>  (1148) 
-14.43

>  <m_primary>  (1148) 
energy

$$$$
55:0
     RDKit          3D

 32 35  0  0  0  0  0  0  0  0999 V2000
   55.2020   26.8340   45.9840 O   0  0  0  0  0  0  0  0  0  0  0  0
   56.0370   25.7600   46.2850 C   0  0  0  0  0  0  0  0  0  0  0  0
   55.5190   24.6480   46.8710 N   0  0  0  0  0  0  0  0  0  0  0  0
   56.3050   23.5840   47.1730 C   0  0  0  0  0  0  0  0  0  0  0  0
   55.8030   22.5660   47.7190 O   0  0  0  0  0  0  0  0  0  0  0  0
   57.6300   23.6110   46.8800 N   0  0  0  0  0  0  0  0  0  0  0  0
   58.1960   24.6980   46.2940 C   0  0  0  0  0  0  0  0  0  0  0  0
   59.4220   24.6720   46.0050 O   0  0  0  0  0  0  0  0  0  0  0  0
   57.4080   25.8250   45.9970 C   0  0  0  0  0  0  0  0  0  0  0  0
   57.9690   27.0250   45.3360 C   0  0  0  0  0  0  0  0  0  0  0  0
   58.2020   28.1850   45.9790 C   0  0  0  0  0  0  0  0  0  0  0  0
   58.3820   28.3440   47.3480 C   0  0  0  0  0  0  0  0  0  0  0  0
   58.5580   29.6950   47.5690 C   0  0  0  0  0  0  0  0  0  0  0  0
   58.7410   30.3140   48.9210 C   0  0  0  0  0  0  0  0  0  0  0  0
   58.4710   30.3780   46.4060 N   0  0  0  0  0  0  0  0  0  0  0  0
   58.5990   31.8030   46.2510 C   0  0  0  0  0  0  0  0  0  0  0  0
   57.4880   32.5470   45.8280 C   0  0  0  0  0  0  0  0  0  0  0  0
   57.5880   33.9270   45.6430 C   0  0  0  0  0  0  0  0  0  0  0  0
   58.7990   34.5760   45.8860 C   0  0  0  0  0  0  0  0  0  0  0  0
   59.9130   33.8490   46.3110 C   0  0  0  0  0  0  0  0  0  0  0  0
   59.8300   32.4570   46.4910 C   0  0  0  0  0  0  0  0  0  0  0  0
   61.0150   31.7120   46.9740 C   0  0  0  0  0  0  0  0  0  0  0  0
   61.3240   30.6280   46.4080 O   0  0  0  0  0  0  0  0  0  0  0  0
   61.8150   32.1900   48.0740 N   0  0  0  0  0  0  0  0  0  0  0  0
   61.8610   33.6170   48.4220 C   0  0  0  0  0  0  0  0  0  0  0  0
   63.2810   33.9920   48.8520 C   0  0  0  0  0  0  0  0  0  0  0  0
   63.7440   33.1990   50.0170 N   0  0  0  0  0  0  0  0  0  0  0  0
   65.2130   33.1430   50.0520 C   0  0  0  0  0  0  0  0  0  0  0  0
   63.1480   31.8430   50.1240 C   0  0  0  0  0  0  0  0  0  0  0  0
   62.7170   31.2630   48.7690 C   0  0  0  0  0  0  0  0  0  0  0  0
   58.2610   29.4670   45.4240 C   0  0  0  0  0  0  0  0  0  0  0  0
   58.1190   29.7840   44.1280 C   0  0  0  0  0  0  0  0  0  0  0  0
  1  2  1  0
  2  3  1  0
  3  4  1  0
  4  5  2  0
  4  6  1  0
  6  7  1  0
  7  8  2  0
  7  9  1  0
  9 10  1  0
 10 11  2  0
 11 12  1  0
 12 13  2  0
 13 14  1  0
 13 15  1  0
 15 16  1  0
 16 17  2  0
 17 18  1  0
 18 19  2  0
 19 20  1  0
 20 21  2  0
 21 22  1  0
 22 23  2  0
 22 24  1  0
 24 25  1  0
 25 26  1  0
 26 27  1  0
 27 28  1  0
 27 29  1  0
 29 30  1  0
 15 31  1  0
 31 32  2  0
  9  2  2  0
 31 11  1  0
 21 16  1  0
 30 24  1  0
M  CHG  2   3  -1   6  -1
M  END
>  <UniqueID>  (1149) 
54

>  <SMILES>  (1149) 
C=c1/c(=C/c2c(O)[n-]c(=O)[n-]c2=O)cc(C)n1-c1ccccc1C(=O)N1CCN(C)CC1

>  <Energy>  (1149) 
112.98354954280859

>  <Genealogy>  (1149) 
C=c1c(=Cc2c(O)[n-]c(=O)[n-]c2=O)cc(C)n1-c1ccccc1C(=O)N1CCN(C)CC1 (protonated)
C=c1/c(=C/c2c(O)[n-]c(=O)[n-]c2=O)cc(C)n1-c1ccccc1C(=O)N1CCN(C)CC1 (cis-trans isomerization)
C=c1/c(=C/c2c(O)[n-]c(=O)[n-]c2=O)cc(C)n1-c1ccccc1C(=O)N1CCN(C)CC1 (3D coordinates assigned)
C=c1/c(=C/c2c(O)[n-]c(=O)[n-]c2=O)cc(C)n1-c1ccccc1C(=O)N1CCN(C)CC1 (nonaromatic ring conformer: 112.98354954280859 kcal/mol)

>  <smiles>  (1149) 
C=c1c(=Cc2c(O)[nH]c(=O)[nH]c2=O)cc(C)n1-c1ccccc1C(=O)N1CCN(C)CC1

>  <score_type>  (1149) 
oracle

>  <origin>  (1149) 
adg

>  <m_score__min__energy>  (1149) 
-14.460000000000001

>  <m_primary>  (1149) 
energy

$$$$
71:0
     RDKit          3D

 25 27  0  0  0  0  0  0  0  0999 V2000
   58.4140   30.5540   43.8990 C   0  0  0  0  0  0  0  0  0  0  0  0
   56.6610   30.5890   44.2130 S   0  0  0  0  0  0  0  0  0  0  0  0
   56.2610   31.8980   44.8320 O   0  0  0  0  0  0  0  0  0  0  0  0
   55.9490   30.4350   42.8990 O   0  0  0  0  0  0  0  0  0  0  0  0
   56.2060   29.2700   45.2450 N   0  0  0  0  0  0  0  0  0  0  0  0
   57.0280   28.1530   45.6120 C   0  0  0  0  0  0  0  0  0  0  0  0
   58.4170   28.3170   45.5470 C   0  0  0  0  0  0  0  0  0  0  0  0
   59.2730   27.2760   45.9080 C   0  0  0  0  0  0  0  0  0  0  0  0
   58.7510   26.0510   46.3220 C   0  0  0  0  0  0  0  0  0  0  0  0
   57.3640   25.8510   46.3570 C   0  0  0  0  0  0  0  0  0  0  0  0
   56.7130   24.2870   46.8530 S   0  0  0  0  0  0  0  0  0  0  0  0
   57.7720   23.5360   47.6090 O   0  0  0  0  0  0  0  0  0  0  0  0
   55.5300   24.4870   47.7590 O   0  0  0  0  0  0  0  0  0  0  0  0
   56.2050   23.3650   45.4620 N   0  0  0  0  0  0  0  0  0  0  0  0
   55.8540   24.0490   44.2120 C   0  0  0  0  0  0  0  0  0  0  0  0
   56.5610   23.3650   43.0400 C   0  0  0  0  0  0  0  0  0  0  0  0
   56.2900   21.9630   43.0500 O   0  0  0  0  0  0  0  0  0  0  0  0
   56.2050   21.2380   44.2460 C   0  0  0  0  0  0  0  0  0  0  0  0
   56.1390   19.8410   44.2110 C   0  0  0  0  0  0  0  0  0  0  0  0
   56.0470   19.1160   45.4020 C   0  0  0  0  0  0  0  0  0  0  0  0
   56.0120   19.7850   46.6280 C   0  0  0  0  0  0  0  0  0  0  0  0
   56.0700   21.1820   46.6690 C   0  0  0  0  0  0  0  0  0  0  0  0
   56.1720   21.9210   45.4760 C   0  0  0  0  0  0  0  0  0  0  0  0
   56.4980   26.9000   45.9910 C   0  0  0  0  0  0  0  0  0  0  0  0
   55.1270   26.6750   45.9800 O   0  0  0  0  0  0  0  0  0  0  0  0
  1  2  1  0
  2  3  2  0
  2  4  2  0
  2  5  1  0
  5  6  1  0
  6  7  2  0
  7  8  1  0
  8  9  2  0
  9 10  1  0
 10 11  1  0
 11 12  2  0
 11 13  2  0
 11 14  1  0
 14 15  1  0
 15 16  1  0
 16 17  1  0
 17 18  1  0
 18 19  2  0
 19 20  1  0
 20 21  2  0
 21 22  1  0
 22 23  2  0
 10 24  2  0
 24 25  1  0
 24  6  1  0
 23 14  1  0
 23 18  1  0
M  CHG  2   5  -1  25  -1
M  END
>  <UniqueID>  (1150) 
70

>  <SMILES>  (1150) 
CS(=O)(=O)[N-]c1cccc(S(=O)(=O)N2CCOc3ccccc32)c1[O-]

>  <Energy>  (1150) 
48.74550321084339

>  <Genealogy>  (1150) 
CS(=O)(=O)[N-]c1cccc(S(=O)(=O)N2CCOc3ccccc32)c1[O-] (protonated)
CS(=O)(=O)[N-]c1cccc(S(=O)(=O)N2CCOc3ccccc32)c1[O-] (3D coordinates assigned)
CS(=O)(=O)[N-]c1cccc(S(=O)(=O)N2CCOc3ccccc32)c1[O-] (nonaromatic ring conformer: 48.74550321084339 kcal/mol)

>  <smiles>  (1150) 
CS(=O)(=O)Nc1cccc(S(=O)(=O)N2CCOc3ccccc32)c1O

>  <score_type>  (1150) 
oracle

>  <origin>  (1150) 
adg

>  <m_score__min__energy>  (1150) 
-14.619999999999999

>  <m_primary>  (1150) 
energy

$$$$
79:0
     RDKit          3D

 31 33  0  0  0  0  0  0  0  0999 V2000
   59.1780   29.3640   50.1580 C   0  0  0  0  0  0  0  0  0  0  0  0
   58.9290   28.9430   48.7110 C   0  0  0  0  0  0  0  0  0  0  0  0
   60.2250   28.6370   47.9420 C   0  0  0  0  0  0  0  0  0  0  0  0
   60.4880   27.1370   47.7020 C   0  0  0  0  0  0  0  0  0  0  0  0
   60.0740   26.6330   46.3070 C   0  0  0  0  0  0  0  0  0  0  0  0
   58.7940   27.2310   45.8650 N   0  0  0  0  0  0  0  0  0  0  0  0
   57.6070   26.7330   46.3430 C   0  0  0  0  0  0  0  0  0  0  0  0
   57.5890   25.7300   47.1070 O   0  0  0  0  0  0  0  0  0  0  0  0
   56.4320   27.3160   46.0010 N   0  0  0  0  0  0  0  0  0  0  0  0
   56.3830   28.3950   45.1840 C   0  0  0  0  0  0  0  0  0  0  0  0
   55.1500   28.9620   44.8850 O   0  0  0  0  0  0  0  0  0  0  0  0
   57.5660   28.9210   44.6510 C   0  0  0  0  0  0  0  0  0  0  0  0
   57.5400   30.1630   43.7870 C   0  0  0  0  0  0  0  0  0  0  0  0
   57.8060   31.3880   44.6230 C   0  0  0  0  0  0  0  0  0  0  0  0
   57.5700   32.6680   44.1010 C   0  0  0  0  0  0  0  0  0  0  0  0
   57.7730   33.7990   44.8930 C   0  0  0  0  0  0  0  0  0  0  0  0
   58.2010   33.6640   46.2170 C   0  0  0  0  0  0  0  0  0  0  0  0
   58.4330   32.3900   46.7630 C   0  0  0  0  0  0  0  0  0  0  0  0
   58.8520   32.2400   48.1780 C   0  0  0  0  0  0  0  0  0  0  0  0
   58.0640   32.5750   49.1040 O   0  0  0  0  0  0  0  0  0  0  0  0
   60.1550   31.7090   48.4800 N   0  0  0  0  0  0  0  0  0  0  0  0
   61.3080   32.2640   48.2370 C   0  0  0  0  0  0  0  0  0  0  0  0
   62.2330   31.6560   47.4400 N   0  0  0  0  0  0  0  0  0  0  0  0
   63.4340   32.2280   47.1610 C   0  0  0  0  0  0  0  0  0  0  0  0
   63.7510   33.4790   47.6920 C   0  0  0  0  0  0  0  0  0  0  0  0
   62.8250   34.1280   48.5080 C   0  0  0  0  0  0  0  0  0  0  0  0
   61.5930   33.5230   48.7880 C   0  0  0  0  0  0  0  0  0  0  0  0
   60.6580   34.1660   49.5980 O   0  0  0  0  0  0  0  0  0  0  0  0
   58.2360   31.2560   45.9540 C   0  0  0  0  0  0  0  0  0  0  0  0
   58.7810   28.3040   45.0070 C   0  0  0  0  0  0  0  0  0  0  0  0
   59.8610   28.7470   44.5260 O   0  0  0  0  0  0  0  0  0  0  0  0
  1  2  1  0
  2  3  1  0
  3  4  1  0
  4  5  1  0
  5  6  1  0
  6  7  1  0
  7  8  2  0
  7  9  1  0
  9 10  1  0
 10 11  1  0
 10 12  2  0
 12 13  1  0
 13 14  1  0
 14 15  2  0
 15 16  1  0
 16 17  2  0
 17 18  1  0
 18 19  1  0
 19 20  2  0
 19 21  1  0
 21 22  2  3
 22 23  1  0
 23 24  1  0
 24 25  2  0
 25 26  1  0
 26 27  2  0
 27 28  1  0
 18 29  2  0
 12 30  1  0
 30 31  2  0
 30  6  1  0
 29 14  1  0
 27 22  1  0
M  CHG  3   9  -1  11  -1  23  -1
M  END
>  <UniqueID>  (1151) 
78

>  <SMILES>  (1151) 
CCCCCn1c(=O)[n-]c([O-])c(Cc2cccc(C(=O)N=c3[n-]cccc3O)c2)c1=O

>  <Energy>  (1151) 
53.85118534803877

>  <Genealogy>  (1151) 
CCCCCn1c(=O)[n-]c([O-])c(Cc2cccc(C(=O)N=c3[n-]cccc3O)c2)c1=O (protonated)
CCCCCn1c(=O)[n-]c([O-])c(Cc2cccc(C(=O)N=c3[n-]cccc3O)c2)c1=O (3D coordinates assigned)
CCCCCn1c(=O)[n-]c([O-])c(Cc2cccc(C(=O)N=c3[n-]cccc3O)c2)c1=O (optimized conformer: 53.85118534803877 kcal/mol)

>  <smiles>  (1151) 
CCCCCn1c(=O)[nH]c(O)c(Cc2cccc(C(=O)N=c3[nH]cccc3O)c2)c1=O

>  <score_type>  (1151) 
oracle

>  <origin>  (1151) 
adg

>  <m_score__min__energy>  (1151) 
-15.02

>  <m_primary>  (1151) 
energy

$$$$
7:0
     RDKit          3D

 25 27  0  0  0  0  0  0  0  0999 V2000
   58.1550   33.0750   44.4260 C   0  0  0  0  0  0  0  0  0  0  0  0
   58.3160   32.4370   45.5950 C   0  0  0  0  0  0  0  0  0  0  0  0
   58.1810   31.0600   45.8080 C   0  0  0  0  0  0  0  0  0  0  0  0
   57.8130   30.1250   44.9110 C   0  0  0  0  0  0  0  0  0  0  0  0
   57.5270   28.7180   45.2730 C   0  0  0  0  0  0  0  0  0  0  0  0
   56.2190   28.2030   45.2560 C   0  0  0  0  0  0  0  0  0  0  0  0
   55.1450   29.0120   44.8960 O   0  0  0  0  0  0  0  0  0  0  0  0
   55.9900   26.9100   45.6110 N   0  0  0  0  0  0  0  0  0  0  0  0
   57.0130   26.1060   46.0110 C   0  0  0  0  0  0  0  0  0  0  0  0
   56.7270   24.5540   46.4420 S   0  0  0  0  0  0  0  0  0  0  0  0
   58.2790   26.5920   46.0640 N   0  0  0  0  0  0  0  0  0  0  0  0
   58.5570   27.8730   45.7130 C   0  0  0  0  0  0  0  0  0  0  0  0
   59.7450   28.2880   45.7770 O   0  0  0  0  0  0  0  0  0  0  0  0
   58.4670   30.8420   47.1480 C   0  0  0  0  0  0  0  0  0  0  0  0
   58.7720   32.0720   47.6920 C   0  0  0  0  0  0  0  0  0  0  0  0
   59.1370   32.2960   49.1290 C   0  0  0  0  0  0  0  0  0  0  0  0
   58.6640   33.0460   46.7590 N   0  0  0  0  0  0  0  0  0  0  0  0
   58.9460   34.4730   46.9710 C   0  0  0  0  0  0  0  0  0  0  0  0
   60.2860   34.8490   46.3330 C   0  0  0  0  0  0  0  0  0  0  0  0
   61.4250   34.2060   47.0750 C   0  0  0  0  0  0  0  0  0  0  0  0
   62.5060   33.6500   46.3700 C   0  0  0  0  0  0  0  0  0  0  0  0
   63.5810   33.0830   47.0620 C   0  0  0  0  0  0  0  0  0  0  0  0
   63.5900   33.0770   48.4600 C   0  0  0  0  0  0  0  0  0  0  0  0
   62.5250   33.6410   49.1680 C   0  0  0  0  0  0  0  0  0  0  0  0
   61.4480   34.2090   48.4800 C   0  0  0  0  0  0  0  0  0  0  0  0
  1  2  2  0
  2  3  1  0
  3  4  2  0
  4  5  1  0
  5  6  2  0
  6  7  1  0
  6  8  1  0
  8  9  1  0
  9 10  2  0
  9 11  1  0
 11 12  1  0
 12 13  2  0
  3 14  1  0
 14 15  2  0
 15 16  1  0
 15 17  1  0
 17 18  1  0
 18 19  1  0
 19 20  1  0
 20 21  2  0
 21 22  1  0
 22 23  2  0
 23 24  1  0
 24 25  2  0
 17  2  1  0
 25 20  1  0
 12  5  1  0
M  CHG  2   7  -1  11  -1
M  END
>  <UniqueID>  (1152) 
8

>  <SMILES>  (1152) 
C=c1/c(=C/c2c([O-])[nH]c(=S)[n-]c2=O)cc(C)n1CCc1ccccc1

>  <Energy>  (1152) 
79.06867813843297

>  <Genealogy>  (1152) 
C=c1c(=Cc2c([O-])[nH]c(=S)[n-]c2=O)cc(C)n1CCc1ccccc1 (protonated)
C=c1/c(=C/c2c([O-])[nH]c(=S)[n-]c2=O)cc(C)n1CCc1ccccc1 (cis-trans isomerization)
C=c1/c(=C/c2c([O-])[nH]c(=S)[n-]c2=O)cc(C)n1CCc1ccccc1 (3D coordinates assigned)
C=c1/c(=C/c2c([O-])[nH]c(=S)[n-]c2=O)cc(C)n1CCc1ccccc1 (optimized conformer: 79.06867813843297 kcal/mol)

>  <smiles>  (1152) 
C=c1c(=Cc2c(O)[nH]c(=S)[nH]c2=O)cc(C)n1CCc1ccccc1

>  <score_type>  (1152) 
oracle

>  <origin>  (1152) 
adg

>  <m_score__min__energy>  (1152) 
-14.300000000000001

>  <m_primary>  (1152) 
energy

$$$$
20:0
     RDKit          3D

 22 23  0  0  0  0  0  0  0  0999 V2000
   58.2910   27.4480   44.2530 O   0  0  0  0  0  0  0  0  0  0  0  0
   58.2460   28.2080   45.2570 C   0  0  0  0  0  0  0  0  0  0  0  0
   57.4500   27.7940   46.4710 C   0  0  0  0  0  0  0  0  0  0  0  0
   57.1560   26.3090   46.4720 C   0  0  0  0  0  0  0  0  0  0  0  0
   55.8430   25.8340   46.3030 C   0  0  0  0  0  0  0  0  0  0  0  0
   54.7870   26.7160   46.1090 O   0  0  0  0  0  0  0  0  0  0  0  0
   55.5940   24.4990   46.3320 N   0  0  0  0  0  0  0  0  0  0  0  0
   56.5930   23.6030   46.5290 C   0  0  0  0  0  0  0  0  0  0  0  0
   56.2620   22.0060   46.5590 S   0  0  0  0  0  0  0  0  0  0  0  0
   57.8670   24.0340   46.7080 N   0  0  0  0  0  0  0  0  0  0  0  0
   58.1710   25.3580   46.6870 C   0  0  0  0  0  0  0  0  0  0  0  0
   59.3650   25.7180   46.8610 O   0  0  0  0  0  0  0  0  0  0  0  0
   59.1010   29.3590   45.2810 N   0  0  0  0  0  0  0  0  0  0  0  0
   58.6750   30.7270   45.3260 C   0  0  0  0  0  0  0  0  0  0  0  0
   59.4620   31.6810   45.9930 C   0  0  0  0  0  0  0  0  0  0  0  0
   59.0330   33.0030   46.1080 C   0  0  0  0  0  0  0  0  0  0  0  0
   57.8000   33.3840   45.5800 C   0  0  0  0  0  0  0  0  0  0  0  0
   56.9920   32.4410   44.9400 C   0  0  0  0  0  0  0  0  0  0  0  0
   57.4110   31.1050   44.8070 C   0  0  0  0  0  0  0  0  0  0  0  0
   56.5500   30.1590   44.1370 N   0  0  0  0  0  0  0  0  0  0  0  0
   56.7150   29.8750   42.9340 O   0  0  0  0  0  0  0  0  0  0  0  0
   55.4760   29.6100   44.8010 O   0  0  0  0  0  0  0  0  0  0  0  0
  1  2  2  0
  2  3  1  0
  3  4  1  0
  4  5  2  0
  5  6  1  0
  5  7  1  0
  7  8  1  0
  8  9  2  0
  8 10  1  0
 10 11  1  0
 11 12  2  0
  2 13  1  0
 13 14  1  0
 14 15  2  0
 15 16  1  0
 16 17  2  0
 17 18  1  0
 18 19  2  0
 19 20  1  0
 20 21  2  0
 20 22  1  0
 11  4  1  0
 19 14  1  0
M  CHG  6   6  -1   7  -1  10  -1  13  -1  20   1  22  -1
M  END
>  <UniqueID>  (1153) 
19

>  <SMILES>  (1153) 
O=C(Cc1c([O-])[n-]c(=S)[n-]c1=O)[N-]c1ccccc1[N+](=O)[O-]

>  <Energy>  (1153) 
40.57571170847445

>  <Genealogy>  (1153) 
O=C(Cc1c([O-])[n-]c(=S)[n-]c1=O)[N-]c1ccccc1[N+](=O)[O-] (protonated)
O=C(Cc1c([O-])[n-]c(=S)[n-]c1=O)[N-]c1ccccc1[N+](=O)[O-] (3D coordinates assigned)
O=C(Cc1c([O-])[n-]c(=S)[n-]c1=O)[N-]c1ccccc1[N+](=O)[O-] (optimized conformer: 40.57571170847445 kcal/mol)

>  <smiles>  (1153) 
O=C(Cc1c(O)[nH]c(=S)[nH]c1=O)Nc1ccccc1[N+](=O)[O-]

>  <score_type>  (1153) 
oracle

>  <origin>  (1153) 
adg

>  <m_score__min__energy>  (1153) 
-15.65

>  <m_primary>  (1153) 
energy

$$$$
23:0
     RDKit          3D

 24 26  0  0  0  0  0  0  0  0999 V2000
   60.1580   29.9850   46.1540 C   0  0  0  0  0  0  0  0  0  0  0  0
   59.1700   30.7970   45.7480 C   0  0  0  0  0  0  0  0  0  0  0  0
   58.1530   30.4770   44.8430 C   0  0  0  0  0  0  0  0  0  0  0  0
   57.9240   29.2870   44.2540 C   0  0  0  0  0  0  0  0  0  0  0  0
   57.3830   28.1120   44.9720 C   0  0  0  0  0  0  0  0  0  0  0  0
   56.0150   28.0430   45.2760 C   0  0  0  0  0  0  0  0  0  0  0  0
   55.1490   29.0560   44.8790 O   0  0  0  0  0  0  0  0  0  0  0  0
   55.5240   26.9750   45.9570 N   0  0  0  0  0  0  0  0  0  0  0  0
   56.3380   25.9680   46.3640 C   0  0  0  0  0  0  0  0  0  0  0  0
   55.8590   24.9860   46.9870 O   0  0  0  0  0  0  0  0  0  0  0  0
   57.6690   26.0230   46.1050 N   0  0  0  0  0  0  0  0  0  0  0  0
   58.2110   27.0700   45.4300 C   0  0  0  0  0  0  0  0  0  0  0  0
   59.4570   27.1030   45.2410 O   0  0  0  0  0  0  0  0  0  0  0  0
   57.3880   31.6270   44.6910 C   0  0  0  0  0  0  0  0  0  0  0  0
   57.9590   32.5900   45.5000 C   0  0  0  0  0  0  0  0  0  0  0  0
   57.4500   33.9930   45.6420 C   0  0  0  0  0  0  0  0  0  0  0  0
   59.0420   32.0910   46.1370 N   0  0  0  0  0  0  0  0  0  0  0  0
   59.8740   32.8080   47.0660 C   0  0  0  0  0  0  0  0  0  0  0  0
   61.2140   33.0840   46.7500 C   0  0  0  0  0  0  0  0  0  0  0  0
   62.0250   33.7710   47.6590 C   0  0  0  0  0  0  0  0  0  0  0  0
   61.5040   34.1840   48.8890 C   0  0  0  0  0  0  0  0  0  0  0  0
   62.3100   34.8670   49.7910 O   0  0  0  0  0  0  0  0  0  0  0  0
   60.1710   33.9090   49.2110 C   0  0  0  0  0  0  0  0  0  0  0  0
   59.3580   33.2230   48.3030 C   0  0  0  0  0  0  0  0  0  0  0  0
  1  2  2  0
  2  3  1  0
  3  4  2  0
  4  5  1  0
  5  6  2  0
  6  7  1  0
  6  8  1  0
  8  9  1  0
  9 10  2  0
  9 11  1  0
 11 12  1  0
 12 13  2  0
  3 14  1  0
 14 15  2  0
 15 16  1  0
 15 17  1  0
 17 18  1  0
 18 19  2  0
 19 20  1  0
 20 21  2  0
 21 22  1  0
 21 23  1  0
 23 24  2  0
 17  2  1  0
 24 18  1  0
 12  5  1  0
M  CHG  4   7  -1   8  -1  11  -1  22  -1
M  END
>  <UniqueID>  (1154) 
22

>  <SMILES>  (1154) 
C=c1/c(=C/c2c([O-])[n-]c(=O)[n-]c2=O)cc(C)n1-c1ccc([O-])cc1

>  <Energy>  (1154) 
82.91769044607716

>  <Genealogy>  (1154) 
C=c1c(=Cc2c([O-])[n-]c(=O)[n-]c2=O)cc(C)n1-c1ccc([O-])cc1 (protonated)
C=c1/c(=C/c2c([O-])[n-]c(=O)[n-]c2=O)cc(C)n1-c1ccc([O-])cc1 (cis-trans isomerization)
C=c1/c(=C/c2c([O-])[n-]c(=O)[n-]c2=O)cc(C)n1-c1ccc([O-])cc1 (3D coordinates assigned)
C=c1/c(=C/c2c([O-])[n-]c(=O)[n-]c2=O)cc(C)n1-c1ccc([O-])cc1 (optimized conformer: 82.91769044607716 kcal/mol)

>  <smiles>  (1154) 
C=c1c(=Cc2c(O)[nH]c(=O)[nH]c2=O)cc(C)n1-c1ccc(O)cc1

>  <score_type>  (1154) 
oracle

>  <origin>  (1154) 
adg

>  <m_score__min__energy>  (1154) 
-15.9

>  <m_primary>  (1154) 
energy

$$$$
35:0
     RDKit          3D

 30 32  0  0  0  0  0  0  0  0999 V2000
   57.8830   24.2120   44.4730 C   0  0  0  0  0  0  0  0  0  0  0  0
   58.9050   24.3290   45.6010 C   0  0  0  0  0  0  0  0  0  0  0  0
   58.7290   25.6150   46.3570 C   0  0  0  0  0  0  0  0  0  0  0  0
   59.7700   26.3720   46.7450 N   0  0  0  0  0  0  0  0  0  0  0  0
   59.2010   27.4400   47.3460 C   0  0  0  0  0  0  0  0  0  0  0  0
   59.9820   28.5460   47.9430 C   0  0  0  0  0  0  0  0  0  0  0  0
   60.3630   28.5030   49.2940 C   0  0  0  0  0  0  0  0  0  0  0  0
   61.0980   29.5520   49.8530 C   0  0  0  0  0  0  0  0  0  0  0  0
   61.4700   30.6470   49.0700 C   0  0  0  0  0  0  0  0  0  0  0  0
   61.1160   30.6950   47.7120 C   0  0  0  0  0  0  0  0  0  0  0  0
   61.4610   31.8090   46.8770 N   0  0  0  0  0  0  0  0  0  0  0  0
   61.2120   33.1900   47.1600 C   0  0  0  0  0  0  0  0  0  0  0  0
   62.0620   33.8830   47.7840 O   0  0  0  0  0  0  0  0  0  0  0  0
   59.9630   33.8330   46.6440 C   0  0  0  0  0  0  0  0  0  0  0  0
   59.0910   32.8160   45.9580 C   0  0  0  0  0  0  0  0  0  0  0  0
   58.5260   31.7560   46.6860 C   0  0  0  0  0  0  0  0  0  0  0  0
   57.7300   30.8040   46.0410 C   0  0  0  0  0  0  0  0  0  0  0  0
   57.4990   30.8940   44.6590 C   0  0  0  0  0  0  0  0  0  0  0  0
   56.4970   29.7030   43.8350 S   0  0  0  0  0  0  0  0  0  0  0  0
   57.4660   28.2580   43.4670 C   0  0  0  0  0  0  0  0  0  0  0  0
   55.3420   29.3270   44.7190 O   0  0  0  0  0  0  0  0  0  0  0  0
   55.9630   30.2710   42.5490 O   0  0  0  0  0  0  0  0  0  0  0  0
   58.0760   31.9420   43.9300 C   0  0  0  0  0  0  0  0  0  0  0  0
   58.8710   32.8950   44.5730 C   0  0  0  0  0  0  0  0  0  0  0  0
   60.3550   29.6550   47.1620 C   0  0  0  0  0  0  0  0  0  0  0  0
   57.8500   27.4020   47.3430 N   0  0  0  0  0  0  0  0  0  0  0  0
   57.5460   26.2520   46.7140 C   0  0  0  0  0  0  0  0  0  0  0  0
   56.1550   25.8150   46.4840 C   0  0  0  0  0  0  0  0  0  0  0  0
   55.1640   26.7190   46.0000 N   0  0  0  0  0  0  0  0  0  0  0  0
   55.8370   24.6200   46.7120 O   0  0  0  0  0  0  0  0  0  0  0  0
  1  2  1  0
  2  3  1  0
  3  4  1  0
  4  5  1  0
  5  6  1  0
  6  7  2  0
  7  8  1  0
  8  9  2  0
  9 10  1  0
 10 11  1  0
 11 12  1  0
 12 13  2  0
 12 14  1  0
 14 15  1  0
 15 16  2  0
 16 17  1  0
 17 18  2  0
 18 19  1  0
 19 20  1  0
 19 21  2  0
 19 22  2  0
 18 23  1  0
 23 24  2  0
 10 25  2  0
  5 26  2  0
 26 27  1  0
 27 28  1  0
 28 29  1  0
 28 30  2  0
 27  3  2  0
 25  6  1  0
 24 15  1  0
M  CHG  3   4  -1  11  -1  29  -1
M  END
>  <UniqueID>  (1155) 
33

>  <SMILES>  (1155) 
CCc1[n-]c(-c2cccc([N-]C(=O)Cc3ccc(S(C)(=O)=O)cc3)c2)nc1C([NH-])=O

>  <Energy>  (1155) 
75.13875363135766

>  <Genealogy>  (1155) 
CCc1[n-]c(-c2cccc([N-]C(=O)Cc3ccc(S(C)(=O)=O)cc3)c2)nc1C([NH-])=O (protonated)
CCc1[n-]c(-c2cccc([N-]C(=O)Cc3ccc(S(C)(=O)=O)cc3)c2)nc1C([NH-])=O (3D coordinates assigned)
CCc1[n-]c(-c2cccc([N-]C(=O)Cc3ccc(S(C)(=O)=O)cc3)c2)nc1C([NH-])=O (optimized conformer: 75.13875363135766 kcal/mol)

>  <smiles>  (1155) 
CCc1[nH]c(-c2cccc(NC(=O)Cc3ccc(S(C)(=O)=O)cc3)c2)nc1C(N)=O

>  <score_type>  (1155) 
oracle

>  <origin>  (1155) 
adg

>  <m_score__min__energy>  (1155) 
-14.73

>  <m_primary>  (1155) 
energy

$$$$
50:0
     RDKit          3D

 28 31  0  0  0  0  0  0  0  0999 V2000
   59.1390   34.6210   46.0070 C   0  0  0  0  0  0  0  0  0  0  0  0
   58.0540   34.1890   44.7950 S   0  0  0  0  0  0  0  0  0  0  0  0
   57.5650   32.7850   45.5860 C   0  0  0  0  0  0  0  0  0  0  0  0
   56.6840   31.9230   45.1680 N   0  0  0  0  0  0  0  0  0  0  0  0
   56.8990   30.7980   44.3020 C   0  0  0  0  0  0  0  0  0  0  0  0
   57.1650   30.9530   43.0800 O   0  0  0  0  0  0  0  0  0  0  0  0
   56.8050   29.4400   44.8560 C   0  0  0  0  0  0  0  0  0  0  0  0
   55.6330   28.8370   45.1410 N   0  0  0  0  0  0  0  0  0  0  0  0
   55.9770   27.6260   45.6190 C   0  0  0  0  0  0  0  0  0  0  0  0
   55.0510   26.6800   46.0350 O   0  0  0  0  0  0  0  0  0  0  0  0
   57.3430   27.4490   45.6450 C   0  0  0  0  0  0  0  0  0  0  0  0
   57.8780   28.6170   45.1520 C   0  0  0  0  0  0  0  0  0  0  0  0
   58.2100   32.6320   46.7610 N   0  0  0  0  0  0  0  0  0  0  0  0
   59.0900   33.6440   47.0070 C   0  0  0  0  0  0  0  0  0  0  0  0
   59.9020   33.6780   48.2520 C   0  0  0  0  0  0  0  0  0  0  0  0
   61.3010   33.8080   48.2120 C   0  0  0  0  0  0  0  0  0  0  0  0
   62.0440   33.8310   49.3920 C   0  0  0  0  0  0  0  0  0  0  0  0
   61.4070   33.7250   50.6300 C   0  0  0  0  0  0  0  0  0  0  0  0
   60.0090   33.5980   50.7000 C   0  0  0  0  0  0  0  0  0  0  0  0
   59.3050   33.4720   52.0060 C   0  0  0  0  0  0  0  0  0  0  0  0
   59.0120   34.5250   52.6410 O   0  0  0  0  0  0  0  0  0  0  0  0
   58.9270   32.1810   52.5530 N   0  0  0  0  0  0  0  0  0  0  0  0
   59.3080   31.1070   51.6050 C   0  0  0  0  0  0  0  0  0  0  0  0
   58.4410   29.8540   51.8190 C   0  0  0  0  0  0  0  0  0  0  0  0
   57.0500   30.0750   51.6200 O   0  0  0  0  0  0  0  0  0  0  0  0
   56.6480   31.4210   51.8330 C   0  0  0  0  0  0  0  0  0  0  0  0
   57.4820   32.1470   52.9050 C   0  0  0  0  0  0  0  0  0  0  0  0
   59.2690   33.5640   49.5040 C   0  0  0  0  0  0  0  0  0  0  0  0
  1  2  1  0
  2  3  1  0
  3  4  2  0
  4  5  1  0
  5  6  2  0
  5  7  1  0
  7  8  1  0
  8  9  1  0
  9 10  1  0
  9 11  2  0
 11 12  1  0
  3 13  1  0
 13 14  1  0
 14 15  1  0
 15 16  2  0
 16 17  1  0
 17 18  2  0
 18 19  1  0
 19 20  1  0
 20 21  2  0
 20 22  1  0
 22 23  1  0
 23 24  1  0
 24 25  1  0
 25 26  1  0
 26 27  1  0
 19 28  2  0
 14  1  2  0
 28 15  1  0
 12  7  2  0
 27 22  1  0
M  CHG  4   8  -1  10  -1  13  -1  22   1
M  END
>  <UniqueID>  (1156) 
46

>  <SMILES>  (1156) 
O=C(/N=c1/[n-]c(-c2cccc(C(=O)[NH+]3CCOCC3)c2)cs1)c1ccc([O-])[n-]1

>  <Energy>  (1156) 
126.43848516889962

>  <Genealogy>  (1156) 
O=C(N=c1[n-]c(-c2cccc(C(=O)[NH+]3CCOCC3)c2)cs1)c1ccc([O-])[n-]1 (protonated)
O=C(/N=c1/[n-]c(-c2cccc(C(=O)[NH+]3CCOCC3)c2)cs1)c1ccc([O-])[n-]1 (cis-trans isomerization)
O=C(/N=c1/[n-]c(-c2cccc(C(=O)[NH+]3CCOCC3)c2)cs1)c1ccc([O-])[n-]1 (3D coordinates assigned)
O=C(/N=c1/[n-]c(-c2cccc(C(=O)[NH+]3CCOCC3)c2)cs1)c1ccc([O-])[n-]1 (nonaromatic ring conformer: 126.43848516889962 kcal/mol)

>  <smiles>  (1156) 
O=C(N=c1[nH]c(-c2cccc(C(=O)N3CCOCC3)c2)cs1)c1ccc(O)[nH]1

>  <score_type>  (1156) 
oracle

>  <origin>  (1156) 
adg

>  <m_score__min__energy>  (1156) 
-15.06

>  <m_primary>  (1156) 
energy

$$$$
68:0
     RDKit          3D

 25 27  0  0  0  0  0  0  0  0999 V2000
   61.0000   29.6490   45.1250 O   0  0  0  0  0  0  0  0  0  0  0  0
   60.0770   28.9070   45.5600 C   0  0  0  0  0  0  0  0  0  0  0  0
   60.3880   27.9380   46.4560 N   0  0  0  0  0  0  0  0  0  0  0  0
   59.4440   27.1130   46.9670 C   0  0  0  0  0  0  0  0  0  0  0  0
   59.8210   26.1430   47.8870 O   0  0  0  0  0  0  0  0  0  0  0  0
   58.1090   27.2430   46.5660 C   0  0  0  0  0  0  0  0  0  0  0  0
   57.0320   26.3670   47.1710 C   0  0  0  0  0  0  0  0  0  0  0  0
   56.6060   25.2940   46.1970 C   0  0  0  0  0  0  0  0  0  0  0  0
   57.5110   24.2750   45.8480 C   0  0  0  0  0  0  0  0  0  0  0  0
   57.1490   23.2870   44.9280 C   0  0  0  0  0  0  0  0  0  0  0  0
   55.8790   23.3040   44.3470 C   0  0  0  0  0  0  0  0  0  0  0  0
   55.5210   22.3210   43.4330 O   0  0  0  0  0  0  0  0  0  0  0  0
   54.9690   24.3070   44.6870 C   0  0  0  0  0  0  0  0  0  0  0  0
   55.3240   25.3000   45.6070 C   0  0  0  0  0  0  0  0  0  0  0  0
   54.3940   26.2830   45.9320 O   0  0  0  0  0  0  0  0  0  0  0  0
   57.7980   28.2480   45.6280 C   0  0  0  0  0  0  0  0  0  0  0  0
   56.6050   28.3860   45.2390 O   0  0  0  0  0  0  0  0  0  0  0  0
   58.7820   29.0720   45.1360 N   0  0  0  0  0  0  0  0  0  0  0  0
   58.4350   30.1630   44.2020 C   0  0  0  0  0  0  0  0  0  0  0  0
   58.2190   31.4490   44.9570 C   0  0  0  0  0  0  0  0  0  0  0  0
   57.7930   32.6080   44.2840 C   0  0  0  0  0  0  0  0  0  0  0  0
   57.5550   33.7880   44.9950 C   0  0  0  0  0  0  0  0  0  0  0  0
   57.7350   33.8210   46.3800 C   0  0  0  0  0  0  0  0  0  0  0  0
   58.1550   32.6740   47.0570 C   0  0  0  0  0  0  0  0  0  0  0  0
   58.3940   31.4900   46.3500 C   0  0  0  0  0  0  0  0  0  0  0  0
  1  2  2  0
  2  3  1  0
  3  4  1  0
  4  5  1  0
  4  6  2  0
  6  7  1  0
  7  8  1  0
  8  9  2  0
  9 10  1  0
 10 11  2  0
 11 12  1  0
 11 13  1  0
 13 14  2  0
 14 15  1  0
  6 16  1  0
 16 17  2  0
 16 18  1  0
 18 19  1  0
 19 20  1  0
 20 21  2  0
 21 22  1  0
 22 23  2  0
 23 24  1  0
 24 25  2  0
 18  2  1  0
 25 20  1  0
 14  8  1  0
M  CHG  4   3  -1   5  -1  12  -1  15  -1
M  END
>  <UniqueID>  (1157) 
63

>  <SMILES>  (1157) 
O=c1[n-]c([O-])c(Cc2ccc([O-])cc2[O-])c(=O)n1Cc1ccccc1

>  <Energy>  (1157) 
45.48157485267933

>  <Genealogy>  (1157) 
O=c1[n-]c([O-])c(Cc2ccc([O-])cc2[O-])c(=O)n1Cc1ccccc1 (protonated)
O=c1[n-]c([O-])c(Cc2ccc([O-])cc2[O-])c(=O)n1Cc1ccccc1 (3D coordinates assigned)
O=c1[n-]c([O-])c(Cc2ccc([O-])cc2[O-])c(=O)n1Cc1ccccc1 (optimized conformer: 45.48157485267933 kcal/mol)

>  <smiles>  (1157) 
O=c1[nH]c(O)c(Cc2ccc(O)cc2O)c(=O)n1Cc1ccccc1

>  <score_type>  (1157) 
oracle

>  <origin>  (1157) 
adg

>  <m_score__min__energy>  (1157) 
-16.98

>  <m_primary>  (1157) 
energy

$$$$
69:0
     RDKit          3D

 27 29  0  0  0  0  0  0  0  0999 V2000
   61.3860   31.0900   46.7820 N   0  0  0  0  0  0  0  0  0  0  0  0
   60.0220   31.3050   46.3700 C   0  0  0  0  0  0  0  0  0  0  0  0
   59.1780   30.1890   46.1630 C   0  0  0  0  0  0  0  0  0  0  0  0
   59.6910   28.8050   46.2490 C   0  0  0  0  0  0  0  0  0  0  0  0
   60.7560   28.5080   45.6480 O   0  0  0  0  0  0  0  0  0  0  0  0
   59.0170   27.7950   47.0120 N   0  0  0  0  0  0  0  0  0  0  0  0
   59.2220   26.3560   46.8700 C   0  0  0  0  0  0  0  0  0  0  0  0
   57.9870   25.6820   46.3310 C   0  0  0  0  0  0  0  0  0  0  0  0
   58.0690   24.3980   45.7680 C   0  0  0  0  0  0  0  0  0  0  0  0
   56.9190   23.7680   45.2830 C   0  0  0  0  0  0  0  0  0  0  0  0
   55.6850   24.4180   45.3440 C   0  0  0  0  0  0  0  0  0  0  0  0
   55.5930   25.6950   45.9050 C   0  0  0  0  0  0  0  0  0  0  0  0
   54.3650   26.3400   45.9640 O   0  0  0  0  0  0  0  0  0  0  0  0
   56.7380   26.3220   46.4090 C   0  0  0  0  0  0  0  0  0  0  0  0
   57.8410   30.4160   45.8260 C   0  0  0  0  0  0  0  0  0  0  0  0
   57.0530   29.4520   45.6260 O   0  0  0  0  0  0  0  0  0  0  0  0
   57.3850   31.6800   45.6990 N   0  0  0  0  0  0  0  0  0  0  0  0
   58.1960   32.7510   45.8700 C   0  0  0  0  0  0  0  0  0  0  0  0
   57.7090   33.9030   45.7160 O   0  0  0  0  0  0  0  0  0  0  0  0
   59.5230   32.5830   46.1930 N   0  0  0  0  0  0  0  0  0  0  0  0
   60.4000   33.7700   46.3040 C   0  0  0  0  0  0  0  0  0  0  0  0
   61.0610   33.8570   47.6610 C   0  0  0  0  0  0  0  0  0  0  0  0
   62.4630   33.8790   47.7730 C   0  0  0  0  0  0  0  0  0  0  0  0
   63.0710   33.8880   49.0320 C   0  0  0  0  0  0  0  0  0  0  0  0
   62.2890   33.8750   50.1890 C   0  0  0  0  0  0  0  0  0  0  0  0
   60.8960   33.8420   50.0890 C   0  0  0  0  0  0  0  0  0  0  0  0
   60.2830   33.8220   48.8320 C   0  0  0  0  0  0  0  0  0  0  0  0
  1  2  1  0
  2  3  2  0
  3  4  1  0
  4  5  2  0
  4  6  1  0
  6  7  1  0
  7  8  1  0
  8  9  2  0
  9 10  1  0
 10 11  2  0
 11 12  1  0
 12 13  1  0
 12 14  2  0
  3 15  1  0
 15 16  2  0
 15 17  1  0
 17 18  1  0
 18 19  2  0
 18 20  1  0
 20 21  1  0
 21 22  1  0
 22 23  2  0
 23 24  1  0
 24 25  2  0
 25 26  1  0
 26 27  2  0
 20  2  1  0
 27 22  1  0
 14  8  1  0
M  CHG  3   6  -1  13  -1  17  -1
M  END
>  <UniqueID>  (1158) 
64

>  <SMILES>  (1158) 
Nc1c(C(=O)[N-]Cc2cccc([O-])c2)c(=O)[n-]c(=O)n1Cc1ccccc1

>  <Energy>  (1158) 
52.967887481441664

>  <Genealogy>  (1158) 
Nc1c(C(=O)[N-]Cc2cccc([O-])c2)c(=O)[n-]c(=O)n1Cc1ccccc1 (protonated)
Nc1c(C(=O)[N-]Cc2cccc([O-])c2)c(=O)[n-]c(=O)n1Cc1ccccc1 (3D coordinates assigned)
Nc1c(C(=O)[N-]Cc2cccc([O-])c2)c(=O)[n-]c(=O)n1Cc1ccccc1 (optimized conformer: 52.967887481441664 kcal/mol)

>  <smiles>  (1158) 
Nc1c(C(=O)NCc2cccc(O)c2)c(=O)[nH]c(=O)n1Cc1ccccc1

>  <score_type>  (1158) 
oracle

>  <origin>  (1158) 
adg

>  <m_score__min__energy>  (1158) 
-14.42

>  <m_primary>  (1158) 
energy

$$$$
86:0
     RDKit          3D

 21 22  0  0  0  0  0  0  0  0999 V2000
   61.3910   28.4210   52.6780 N   0  0  0  0  0  0  0  0  0  0  0  0
   60.6800   29.8330   51.9800 S   0  0  0  0  0  0  0  0  0  0  0  0
   61.5940   31.0080   52.1910 O   0  0  0  0  0  0  0  0  0  0  0  0
   60.4950   29.6250   50.5030 O   0  0  0  0  0  0  0  0  0  0  0  0
   59.1210   30.1430   52.7390 C   0  0  0  0  0  0  0  0  0  0  0  0
   59.0010   30.1330   54.1340 C   0  0  0  0  0  0  0  0  0  0  0  0
   57.7620   30.3770   54.7310 C   0  0  0  0  0  0  0  0  0  0  0  0
   56.6360   30.6190   53.9410 C   0  0  0  0  0  0  0  0  0  0  0  0
   56.7370   30.6050   52.5380 C   0  0  0  0  0  0  0  0  0  0  0  0
   55.5980   30.8690   51.7020 N   0  0  0  0  0  0  0  0  0  0  0  0
   54.3400   30.1840   51.8250 C   0  0  0  0  0  0  0  0  0  0  0  0
   54.2970   29.0530   52.3830 O   0  0  0  0  0  0  0  0  0  0  0  0
   53.0980   30.7660   51.2610 C   0  0  0  0  0  0  0  0  0  0  0  0
   52.4620   31.8410   51.9070 C   0  0  0  0  0  0  0  0  0  0  0  0
   51.2950   32.3850   51.3630 C   0  0  0  0  0  0  0  0  0  0  0  0
   50.6570   33.4410   52.0000 O   0  0  0  0  0  0  0  0  0  0  0  0
   50.7820   31.8820   50.2100 N   0  0  0  0  0  0  0  0  0  0  0  0
   51.3760   30.8510   49.5560 C   0  0  0  0  0  0  0  0  0  0  0  0
   50.8730   30.4160   48.4860 O   0  0  0  0  0  0  0  0  0  0  0  0
   52.5440   30.2750   50.0660 C   0  0  0  0  0  0  0  0  0  0  0  0
   57.9900   30.3790   51.9460 C   0  0  0  0  0  0  0  0  0  0  0  0
  1  2  1  0
  2  3  2  0
  2  4  2  0
  2  5  1  0
  5  6  2  0
  6  7  1  0
  7  8  2  0
  8  9  1  0
  9 10  1  0
 10 11  1  0
 11 12  2  0
 11 13  1  0
 13 14  1  0
 14 15  2  0
 15 16  1  0
 15 17  1  0
 17 18  1  0
 18 19  2  0
 18 20  1  0
  9 21  2  0
 21  5  1  0
 20 13  2  0
M  CHG  3   1  -1  16  -1  17  -1
M  END
>  <UniqueID>  (1159) 
81

>  <SMILES>  (1159) 
[NH-]S(=O)(=O)c1cccc(NC(=O)c2cc([O-])[n-]c(=O)c2)c1

>  <Energy>  (1159) 
36.07210976969563

>  <Genealogy>  (1159) 
[NH-]S(=O)(=O)c1cccc(NC(=O)c2cc([O-])[n-]c(=O)c2)c1 (protonated)
[NH-]S(=O)(=O)c1cccc(NC(=O)c2cc([O-])[n-]c(=O)c2)c1 (3D coordinates assigned)
[NH-]S(=O)(=O)c1cccc(NC(=O)c2cc([O-])[n-]c(=O)c2)c1 (optimized conformer: 36.07210976969563 kcal/mol)

>  <smiles>  (1159) 
NS(=O)(=O)c1cccc(NC(=O)c2cc(O)[nH]c(=O)c2)c1

>  <score_type>  (1159) 
oracle

>  <origin>  (1159) 
adg

>  <m_score__min__energy>  (1159) 
-14.15

>  <m_primary>  (1159) 
energy

$$$$
16:0
     RDKit          3D

 24 25  0  0  0  0  0  0  0  0999 V2000
   53.4820   30.4610   53.6060 C   0  0  0  0  0  0  0  0  0  0  0  0
   54.8000   30.2350   53.3590 N   0  0  0  0  0  0  0  0  0  0  0  0
   55.1090   30.4180   52.0580 C   0  0  0  0  0  0  0  0  0  0  0  0
   56.3270   30.2850   51.6180 N   0  0  0  0  0  0  0  0  0  0  0  0
   57.5000   31.0130   52.0150 C   0  0  0  0  0  0  0  0  0  0  0  0
   58.2890   30.4820   52.8400 O   0  0  0  0  0  0  0  0  0  0  0  0
   57.8670   32.3460   51.4250 C   0  0  0  0  0  0  0  0  0  0  0  0
   58.5570   32.1770   50.1470 N   0  0  0  0  0  0  0  0  0  0  0  0
   59.4880   33.1550   49.6660 C   0  0  0  0  0  0  0  0  0  0  0  0
   59.6850   34.2190   50.3130 O   0  0  0  0  0  0  0  0  0  0  0  0
   60.2740   32.8930   48.4180 C   0  0  0  0  0  0  0  0  0  0  0  0
   59.4120   33.1370   47.2060 C   0  0  0  0  0  0  0  0  0  0  0  0
   59.5030   34.3580   46.5160 C   0  0  0  0  0  0  0  0  0  0  0  0
   58.6920   34.6050   45.4050 C   0  0  0  0  0  0  0  0  0  0  0  0
   57.7780   33.6390   44.9770 C   0  0  0  0  0  0  0  0  0  0  0  0
   57.6660   32.4290   45.6650 C   0  0  0  0  0  0  0  0  0  0  0  0
   58.4740   32.1750   46.7790 C   0  0  0  0  0  0  0  0  0  0  0  0
   58.3390   30.9670   47.4550 O   0  0  0  0  0  0  0  0  0  0  0  0
   53.7590   30.8920   51.1590 S   0  0  0  0  0  0  0  0  0  0  0  0
   52.7400   30.8500   52.4970 C   0  0  0  0  0  0  0  0  0  0  0  0
   51.2690   31.1130   52.4730 C   0  0  0  0  0  0  0  0  0  0  0  0
   50.9830   32.3520   51.6870 C   0  0  0  0  0  0  0  0  0  0  0  0
   50.6500   33.4120   52.2770 O   0  0  0  0  0  0  0  0  0  0  0  0
   51.0330   32.3220   50.2990 O   0  0  0  0  0  0  0  0  0  0  0  0
  1  2  1  0
  2  3  1  0
  3  4  2  0
  4  5  1  0
  5  6  2  0
  5  7  1  0
  7  8  1  0
  8  9  1  0
  9 10  2  0
  9 11  1  0
 11 12  1  0
 12 13  2  0
 13 14  1  0
 14 15  2  0
 15 16  1  0
 16 17  2  0
 17 18  1  0
  3 19  1  0
 19 20  1  0
 20 21  1  0
 21 22  1  0
 22 23  2  0
 22 24  1  0
 20  1  2  0
 17 12  1  0
M  CHG  3   2  -1  18  -1  24  -1
M  END
>  <UniqueID>  (1160) 
17

>  <SMILES>  (1160) 
O=C([O-])Cc1c[n-]/c(=N/C(=O)CNC(=O)Cc2ccccc2[O-])s1

>  <Energy>  (1160) 
62.86556155367707

>  <Genealogy>  (1160) 
O=C([O-])Cc1c[n-]c(=NC(=O)CNC(=O)Cc2ccccc2[O-])s1 (protonated)
O=C([O-])Cc1c[n-]/c(=N/C(=O)CNC(=O)Cc2ccccc2[O-])s1 (cis-trans isomerization)
O=C([O-])Cc1c[n-]/c(=N/C(=O)CNC(=O)Cc2ccccc2[O-])s1 (3D coordinates assigned)
O=C([O-])Cc1c[n-]/c(=N/C(=O)CNC(=O)Cc2ccccc2[O-])s1 (optimized conformer: 62.86556155367707 kcal/mol)

>  <smiles>  (1160) 
O=C(O)Cc1c[nH]c(=NC(=O)CNC(=O)Cc2ccccc2O)s1

>  <score_type>  (1160) 
oracle

>  <origin>  (1160) 
adg

>  <m_score__min__energy>  (1160) 
-14.789999999999999

>  <m_primary>  (1160) 
energy

$$$$
17:0
     RDKit          3D

 36 40  0  0  0  0  0  0  0  0999 V2000
   57.3230   25.6120   47.5520 C   0  0  0  0  0  0  0  0  0  0  0  0
   57.8630   26.1290   46.4360 C   0  0  0  0  0  0  0  0  0  0  0  0
   57.5040   25.8330   45.1110 C   0  0  0  0  0  0  0  0  0  0  0  0
   56.7490   24.8400   44.6000 C   0  0  0  0  0  0  0  0  0  0  0  0
   55.3750   24.5120   45.0140 C   0  0  0  0  0  0  0  0  0  0  0  0
   54.7310   23.3710   44.7060 N   0  0  0  0  0  0  0  0  0  0  0  0
   53.4800   23.5850   45.1680 C   0  0  0  0  0  0  0  0  0  0  0  0
   52.5670   22.7240   45.0740 O   0  0  0  0  0  0  0  0  0  0  0  0
   53.2790   24.7990   45.7220 N   0  0  0  0  0  0  0  0  0  0  0  0
   54.4860   25.3770   45.6040 C   0  0  0  0  0  0  0  0  0  0  0  0
   54.7690   26.6710   46.0220 O   0  0  0  0  0  0  0  0  0  0  0  0
   58.1150   26.7920   44.3190 C   0  0  0  0  0  0  0  0  0  0  0  0
   58.8790   27.5740   45.1590 C   0  0  0  0  0  0  0  0  0  0  0  0
   59.7320   28.7200   44.7040 C   0  0  0  0  0  0  0  0  0  0  0  0
   58.7280   27.1770   46.4430 N   0  0  0  0  0  0  0  0  0  0  0  0
   59.3550   27.7800   47.5920 C   0  0  0  0  0  0  0  0  0  0  0  0
   60.1920   27.0180   48.4160 C   0  0  0  0  0  0  0  0  0  0  0  0
   60.8170   27.6060   49.5140 C   0  0  0  0  0  0  0  0  0  0  0  0
   60.6210   28.9600   49.7970 C   0  0  0  0  0  0  0  0  0  0  0  0
   59.7820   29.7490   48.9830 C   0  0  0  0  0  0  0  0  0  0  0  0
   59.5690   31.2080   49.2330 C   0  0  0  0  0  0  0  0  0  0  0  0
   58.5040   31.5680   49.8100 O   0  0  0  0  0  0  0  0  0  0  0  0
   60.5140   32.2210   48.7800 N   0  0  0  0  0  0  0  0  0  0  0  0
   59.9280   33.5910   48.7810 C   0  0  0  0  0  0  0  0  0  0  0  0
   59.3980   34.0530   47.4060 C   0  0  0  0  0  0  0  0  0  0  0  0
   59.0070   32.9060   46.5780 N   0  0  0  0  0  0  0  0  0  0  0  0
   57.6820   32.8310   46.0030 C   0  0  0  0  0  0  0  0  0  0  0  0
   56.7450   33.5110   46.5050 O   0  0  0  0  0  0  0  0  0  0  0  0
   57.3760   31.9700   44.8410 C   0  0  0  0  0  0  0  0  0  0  0  0
   57.7680   32.2130   43.5370 C   0  0  0  0  0  0  0  0  0  0  0  0
   57.2760   31.1610   42.7950 C   0  0  0  0  0  0  0  0  0  0  0  0
   56.6210   30.3390   43.6870 C   0  0  0  0  0  0  0  0  0  0  0  0
   56.6990   30.8450   44.8950 O   0  0  0  0  0  0  0  0  0  0  0  0
   59.9900   31.8350   46.3680 C   0  0  0  0  0  0  0  0  0  0  0  0
   61.0750   31.8600   47.4580 C   0  0  0  0  0  0  0  0  0  0  0  0
   59.1470   29.1370   47.8820 C   0  0  0  0  0  0  0  0  0  0  0  0
  1  2  2  0
  2  3  1  0
  3  4  2  3
  4  5  1  0
  5  6  1  0
  6  7  1  0
  7  8  2  0
  7  9  1  0
  9 10  1  0
 10 11  1  0
  3 12  1  0
 12 13  2  0
 13 14  1  0
 13 15  1  0
 15 16  1  0
 16 17  2  0
 17 18  1  0
 18 19  2  0
 19 20  1  0
 20 21  1  0
 21 22  2  0
 21 23  1  0
 23 24  1  0
 24 25  1  0
 25 26  1  0
 26 27  1  0
 27 28  2  0
 27 29  1  0
 29 30  2  0
 30 31  1  0
 31 32  2  0
 32 33  1  0
 26 34  1  0
 34 35  1  0
 20 36  2  0
 15  2  1  0
 36 16  1  0
 10  5  2  0
 35 23  1  0
 33 29  1  0
M  CHG  4   6  -1   9  -1  11  -1  23   1
M  END
>  <UniqueID>  (1161) 
18

>  <SMILES>  (1161) 
C=c1c(=Cc2[n-]c(=O)[n-]c2[O-])cc(C)n1-c1cccc(C(=O)[NH+]2CCN(C(=O)c3ccco3)CC2)c1

>  <Energy>  (1161) 
179.54456638502154

>  <Genealogy>  (1161) 
C=c1c(=Cc2[n-]c(=O)[n-]c2[O-])cc(C)n1-c1cccc(C(=O)[NH+]2CCN(C(=O)c3ccco3)CC2)c1 (protonated)
C=c1c(=Cc2[n-]c(=O)[n-]c2[O-])cc(C)n1-c1cccc(C(=O)[NH+]2CCN(C(=O)c3ccco3)CC2)c1 (3D coordinates assigned)
C=c1c(=Cc2[n-]c(=O)[n-]c2[O-])cc(C)n1-c1cccc(C(=O)[NH+]2CCN(C(=O)c3ccco3)CC2)c1 (nonaromatic ring conformer: 179.54456638502154 kcal/mol)

>  <smiles>  (1161) 
C=c1c(=Cc2[nH]c(=O)[nH]c2O)cc(C)n1-c1cccc(C(=O)N2CCN(C(=O)c3ccco3)CC2)c1

>  <score_type>  (1161) 
oracle

>  <origin>  (1161) 
adg

>  <m_score__min__energy>  (1161) 
-17.48

>  <m_primary>  (1161) 
energy

$$$$
18:0
     RDKit          3D

 24 26  0  0  0  0  0  0  0  0999 V2000
   62.2080   33.8420   46.7240 C   0  0  0  0  0  0  0  0  0  0  0  0
   62.3020   32.5990   47.1980 C   0  0  0  0  0  0  0  0  0  0  0  0
   61.1610   31.6580   47.3050 C   0  0  0  0  0  0  0  0  0  0  0  0
   61.2270   30.4610   48.0470 C   0  0  0  0  0  0  0  0  0  0  0  0
   60.1210   29.6110   48.1170 C   0  0  0  0  0  0  0  0  0  0  0  0
   58.9440   29.9310   47.4380 C   0  0  0  0  0  0  0  0  0  0  0  0
   58.8710   31.0970   46.6610 C   0  0  0  0  0  0  0  0  0  0  0  0
   57.6630   31.4540   45.9740 N   0  0  0  0  0  0  0  0  0  0  0  0
   57.2280   30.8210   44.7670 C   0  0  0  0  0  0  0  0  0  0  0  0
   56.5020   29.6850   44.4370 C   0  0  0  0  0  0  0  0  0  0  0  0
   55.8630   28.6460   45.1890 N   0  0  0  0  0  0  0  0  0  0  0  0
   56.5320   27.4460   45.6020 C   0  0  0  0  0  0  0  0  0  0  0  0
   57.9300   27.3910   45.6990 C   0  0  0  0  0  0  0  0  0  0  0  0
   58.5570   26.2210   46.1310 C   0  0  0  0  0  0  0  0  0  0  0  0
   57.7760   25.1160   46.4800 C   0  0  0  0  0  0  0  0  0  0  0  0
   58.3230   24.0520   46.8710 O   0  0  0  0  0  0  0  0  0  0  0  0
   56.4220   25.1900   46.4020 N   0  0  0  0  0  0  0  0  0  0  0  0
   55.7860   26.3180   45.9820 C   0  0  0  0  0  0  0  0  0  0  0  0
   54.3980   26.3390   45.9250 O   0  0  0  0  0  0  0  0  0  0  0  0
   56.6470   29.9910   43.0950 C   0  0  0  0  0  0  0  0  0  0  0  0
   56.2510   29.4840   42.0130 O   0  0  0  0  0  0  0  0  0  0  0  0
   57.4210   31.0830   43.4250 C   0  0  0  0  0  0  0  0  0  0  0  0
   58.0340   31.9680   42.7720 O   0  0  0  0  0  0  0  0  0  0  0  0
   59.9750   31.9620   46.6140 C   0  0  0  0  0  0  0  0  0  0  0  0
  1  2  2  0
  2  3  1  0
  3  4  2  0
  4  5  1  0
  5  6  2  0
  6  7  1  0
  7  8  1  0
  8  9  1  0
  9 10  2  0
 10 11  1  0
 11 12  1  0
 12 13  1  0
 13 14  2  0
 14 15  1  0
 15 16  2  0
 15 17  1  0
 17 18  1  0
 18 19  1  0
 10 20  1  0
 20 21  2  0
 20 22  1  0
 22 23  2  0
  7 24  2  0
 24  3  1  0
 22  9  1  0
 18 12  2  0
M  CHG  2  17  -1  19  -1
M  END
>  <UniqueID>  (1162) 
19

>  <SMILES>  (1162) 
C=Cc1cccc(Nc2c(Nc3ccc(=O)[n-]c3[O-])c(=O)c2=O)c1

>  <Energy>  (1162) 
37.89409392919116

>  <Genealogy>  (1162) 
C=Cc1cccc(Nc2c(Nc3ccc(=O)[n-]c3[O-])c(=O)c2=O)c1 (protonated)
C=Cc1cccc(Nc2c(Nc3ccc(=O)[n-]c3[O-])c(=O)c2=O)c1 (3D coordinates assigned)
C=Cc1cccc(Nc2c(Nc3ccc(=O)[n-]c3[O-])c(=O)c2=O)c1 (optimized conformer: 37.89409392919116 kcal/mol)

>  <smiles>  (1162) 
C=Cc1cccc(Nc2c(Nc3ccc(=O)[nH]c3O)c(=O)c2=O)c1

>  <score_type>  (1162) 
oracle

>  <origin>  (1162) 
adg

>  <m_score__min__energy>  (1162) 
-14.16

>  <m_primary>  (1162) 
energy

$$$$
33:0
     RDKit          3D

 24 26  0  0  0  0  0  0  0  0999 V2000
   56.2590   29.9130   42.6750 C   0  0  0  0  0  0  0  0  0  0  0  0
   56.8420   29.7110   43.8550 C   0  0  0  0  0  0  0  0  0  0  0  0
   57.8210   30.5140   44.4080 C   0  0  0  0  0  0  0  0  0  0  0  0
   58.1490   29.9370   45.6210 C   0  0  0  0  0  0  0  0  0  0  0  0
   59.2380   30.4200   46.5400 C   0  0  0  0  0  0  0  0  0  0  0  0
   59.3290   31.9230   46.5050 C   0  0  0  0  0  0  0  0  0  0  0  0
   58.1670   32.7130   46.5280 C   0  0  0  0  0  0  0  0  0  0  0  0
   58.2620   34.1070   46.5190 C   0  0  0  0  0  0  0  0  0  0  0  0
   59.5160   34.7250   46.4870 C   0  0  0  0  0  0  0  0  0  0  0  0
   59.6060   36.0770   46.4780 F   0  0  0  0  0  0  0  0  0  0  0  0
   60.6770   33.9460   46.4620 C   0  0  0  0  0  0  0  0  0  0  0  0
   60.5860   32.5520   46.4710 C   0  0  0  0  0  0  0  0  0  0  0  0
   57.3550   28.7990   45.7510 C   0  0  0  0  0  0  0  0  0  0  0  0
   57.3930   27.9300   46.7750 C   0  0  0  0  0  0  0  0  0  0  0  0
   57.2220   26.4690   46.6120 C   0  0  0  0  0  0  0  0  0  0  0  0
   55.9880   25.9090   46.2380 C   0  0  0  0  0  0  0  0  0  0  0  0
   54.8820   26.7160   45.9980 O   0  0  0  0  0  0  0  0  0  0  0  0
   55.8630   24.5610   46.1250 N   0  0  0  0  0  0  0  0  0  0  0  0
   56.9090   23.7350   46.3870 C   0  0  0  0  0  0  0  0  0  0  0  0
   56.7710   22.4900   46.2730 O   0  0  0  0  0  0  0  0  0  0  0  0
   58.1020   24.2520   46.7790 N   0  0  0  0  0  0  0  0  0  0  0  0
   58.2790   25.5930   46.9050 C   0  0  0  0  0  0  0  0  0  0  0  0
   59.3980   26.0360   47.2760 O   0  0  0  0  0  0  0  0  0  0  0  0
   56.5600   28.6720   44.6650 N   0  0  0  0  0  0  0  0  0  0  0  0
  1  2  2  0
  2  3  1  0
  3  4  2  0
  4  5  1  0
  5  6  1  0
  6  7  2  0
  7  8  1  0
  8  9  2  0
  9 10  1  0
  9 11  1  0
 11 12  2  0
  4 13  1  0
 13 14  2  0
 14 15  1  0
 15 16  2  0
 16 17  1  0
 16 18  1  0
 18 19  1  0
 19 20  2  0
 19 21  1  0
 21 22  1  0
 22 23  2  0
 13 24  1  0
 24  2  1  0
 12  6  1  0
 22 15  1  0
M  CHG  3  17  -1  18  -1  21  -1
M  END
>  <UniqueID>  (1163) 
33

>  <SMILES>  (1163) 
C=c1cc(Cc2ccc(F)cc2)/c(=C/c2c([O-])[n-]c(=O)[n-]c2=O)[nH]1

>  <Energy>  (1163) 
71.26150342654557

>  <Genealogy>  (1163) 
C=c1cc(Cc2ccc(F)cc2)c(=Cc2c([O-])[n-]c(=O)[n-]c2=O)[nH]1 (protonated)
C=c1cc(Cc2ccc(F)cc2)/c(=C/c2c([O-])[n-]c(=O)[n-]c2=O)[nH]1 (cis-trans isomerization)
C=c1cc(Cc2ccc(F)cc2)/c(=C/c2c([O-])[n-]c(=O)[n-]c2=O)[nH]1 (3D coordinates assigned)
C=c1cc(Cc2ccc(F)cc2)/c(=C/c2c([O-])[n-]c(=O)[n-]c2=O)[nH]1 (optimized conformer: 71.26150342654557 kcal/mol)

>  <smiles>  (1163) 
C=c1cc(Cc2ccc(F)cc2)c(=Cc2c(O)[nH]c(=O)[nH]c2=O)[nH]1

>  <score_type>  (1163) 
oracle

>  <origin>  (1163) 
adg

>  <m_score__min__energy>  (1163) 
-15.25

>  <m_primary>  (1163) 
energy

$$$$
37:0
     RDKit          3D

 24 26  0  0  0  0  0  0  0  0999 V2000
   54.5040   29.5720   51.6020 O   0  0  0  0  0  0  0  0  0  0  0  0
   54.3700   30.6440   52.2510 C   0  0  0  0  0  0  0  0  0  0  0  0
   53.0010   31.1780   52.5220 C   0  0  0  0  0  0  0  0  0  0  0  0
   52.2260   31.2700   51.2450 C   0  0  0  0  0  0  0  0  0  0  0  0
   52.2450   30.3340   50.2800 N   0  0  0  0  0  0  0  0  0  0  0  0
   51.3640   30.8070   49.3710 C   0  0  0  0  0  0  0  0  0  0  0  0
   51.1060   30.2010   48.2990 O   0  0  0  0  0  0  0  0  0  0  0  0
   50.7780   31.9770   49.7040 N   0  0  0  0  0  0  0  0  0  0  0  0
   51.3310   32.2530   50.8970 C   0  0  0  0  0  0  0  0  0  0  0  0
   51.0190   33.3750   51.6520 O   0  0  0  0  0  0  0  0  0  0  0  0
   55.5080   31.3040   52.8230 N   0  0  0  0  0  0  0  0  0  0  0  0
   56.6980   31.7090   52.1320 C   0  0  0  0  0  0  0  0  0  0  0  0
   57.3110   32.9530   52.3660 C   0  0  0  0  0  0  0  0  0  0  0  0
   58.4820   33.3000   51.6850 C   0  0  0  0  0  0  0  0  0  0  0  0
   59.0680   32.4020   50.7800 C   0  0  0  0  0  0  0  0  0  0  0  0
   60.3070   32.7920   50.0180 C   0  0  0  0  0  0  0  0  0  0  0  0
   59.9470   33.2020   48.6170 C   0  0  0  0  0  0  0  0  0  0  0  0
   59.8220   32.2390   47.6040 C   0  0  0  0  0  0  0  0  0  0  0  0
   59.4520   32.6370   46.3180 C   0  0  0  0  0  0  0  0  0  0  0  0
   59.2060   33.9480   46.0530 N   0  0  0  0  0  0  0  0  0  0  0  0
   59.3100   34.9010   47.0170 C   0  0  0  0  0  0  0  0  0  0  0  0
   59.6770   34.5460   48.3170 C   0  0  0  0  0  0  0  0  0  0  0  0
   58.4620   31.1570   50.5560 C   0  0  0  0  0  0  0  0  0  0  0  0
   57.2920   30.8100   51.2380 C   0  0  0  0  0  0  0  0  0  0  0  0
  1  2  2  0
  2  3  1  0
  3  4  1  0
  4  5  1  0
  5  6  1  0
  6  7  2  0
  6  8  1  0
  8  9  1  0
  9 10  1  0
  2 11  1  0
 11 12  1  0
 12 13  2  0
 13 14  1  0
 14 15  2  0
 15 16  1  0
 16 17  1  0
 17 18  2  0
 18 19  1  0
 19 20  2  0
 20 21  1  0
 21 22  2  0
 15 23  1  0
 23 24  2  0
  9  4  2  0
 24 12  1  0
 22 17  1  0
M  CHG  4   5  -1   8  -1  10  -1  11  -1
M  END
>  <UniqueID>  (1164) 
36

>  <SMILES>  (1164) 
O=C(Cc1[n-]c(=O)[n-]c1[O-])[N-]c1ccc(Cc2ccncc2)cc1

>  <Energy>  (1164) 
68.33436395478891

>  <Genealogy>  (1164) 
O=C(Cc1[n-]c(=O)[n-]c1[O-])[N-]c1ccc(Cc2ccncc2)cc1 (protonated)
O=C(Cc1[n-]c(=O)[n-]c1[O-])[N-]c1ccc(Cc2ccncc2)cc1 (3D coordinates assigned)
O=C(Cc1[n-]c(=O)[n-]c1[O-])[N-]c1ccc(Cc2ccncc2)cc1 (optimized conformer: 68.33436395478891 kcal/mol)

>  <smiles>  (1164) 
O=C(Cc1[nH]c(=O)[nH]c1O)Nc1ccc(Cc2ccncc2)cc1

>  <score_type>  (1164) 
oracle

>  <origin>  (1164) 
adg

>  <m_score__min__energy>  (1164) 
-17.539999999999999

>  <m_primary>  (1164) 
energy

$$$$
48:0
     RDKit          3D

 31 34  0  0  0  0  0  0  0  0999 V2000
   59.4440   29.5970   47.0120 C   0  0  0  0  0  0  0  0  0  0  0  0
   58.4270   29.2620   46.2020 C   0  0  0  0  0  0  0  0  0  0  0  0
   57.8640   27.9860   46.0360 C   0  0  0  0  0  0  0  0  0  0  0  0
   58.0020   26.8590   46.7610 C   0  0  0  0  0  0  0  0  0  0  0  0
   57.1790   25.6470   46.6230 C   0  0  0  0  0  0  0  0  0  0  0  0
   57.5830   24.4040   46.9450 N   0  0  0  0  0  0  0  0  0  0  0  0
   56.4650   23.6620   46.7870 C   0  0  0  0  0  0  0  0  0  0  0  0
   56.4440   22.4190   46.9820 O   0  0  0  0  0  0  0  0  0  0  0  0
   55.3700   24.3590   46.4140 N   0  0  0  0  0  0  0  0  0  0  0  0
   55.8380   25.6150   46.3290 C   0  0  0  0  0  0  0  0  0  0  0  0
   55.0520   26.7110   45.9950 O   0  0  0  0  0  0  0  0  0  0  0  0
   57.0490   28.0640   44.9190 C   0  0  0  0  0  0  0  0  0  0  0  0
   57.0770   29.3760   44.4940 C   0  0  0  0  0  0  0  0  0  0  0  0
   56.3100   29.9050   43.3190 C   0  0  0  0  0  0  0  0  0  0  0  0
   57.9110   30.1050   45.2700 N   0  0  0  0  0  0  0  0  0  0  0  0
   58.2110   31.5030   45.1030 C   0  0  0  0  0  0  0  0  0  0  0  0
   57.9680   32.1380   43.8770 C   0  0  0  0  0  0  0  0  0  0  0  0
   58.2530   33.4960   43.7220 C   0  0  0  0  0  0  0  0  0  0  0  0
   58.7910   34.2270   44.7840 C   0  0  0  0  0  0  0  0  0  0  0  0
   59.0580   33.6000   46.0120 C   0  0  0  0  0  0  0  0  0  0  0  0
   59.6230   34.3670   47.1440 C   0  0  0  0  0  0  0  0  0  0  0  0
   58.9600   35.3320   47.6150 O   0  0  0  0  0  0  0  0  0  0  0  0
   60.9020   34.0360   47.7230 N   0  0  0  0  0  0  0  0  0  0  0  0
   62.0440   33.8290   46.8140 C   0  0  0  0  0  0  0  0  0  0  0  0
   63.2690   33.3370   47.5340 C   0  0  0  0  0  0  0  0  0  0  0  0
   64.1420   32.6870   46.8970 O   0  0  0  0  0  0  0  0  0  0  0  0
   63.4580   33.6400   48.9240 N   0  0  0  0  0  0  0  0  0  0  0  0
   64.6190   33.1160   49.6460 C   0  0  0  0  0  0  0  0  0  0  0  0
   62.4520   34.4580   49.6020 C   0  0  0  0  0  0  0  0  0  0  0  0
   61.0570   33.9950   49.1880 C   0  0  0  0  0  0  0  0  0  0  0  0
   58.7490   32.2390   46.1690 C   0  0  0  0  0  0  0  0  0  0  0  0
  1  2  2  0
  2  3  1  0
  3  4  2  0
  4  5  1  0
  5  6  1  0
  6  7  1  0
  7  8  2  0
  7  9  1  0
  9 10  1  0
 10 11  1  0
  3 12  1  0
 12 13  2  0
 13 14  1  0
 13 15  1  0
 15 16  1  0
 16 17  2  0
 17 18  1  0
 18 19  2  0
 19 20  1  0
 20 21  1  0
 21 22  2  0
 21 23  1  0
 23 24  1  0
 24 25  1  0
 25 26  2  0
 25 27  1  0
 27 28  1  0
 27 29  1  0
 29 30  1  0
 20 31  2  0
 15  2  1  0
 31 16  1  0
 10  5  2  0
 30 23  1  0
M  CHG  3   6  -1   9  -1  11  -1
M  END
>  <UniqueID>  (1165) 
46

>  <SMILES>  (1165) 
C=c1/c(=C\c2[n-]c(=O)[n-]c2[O-])cc(C)n1-c1cccc(C(=O)N2CCN(C)C(=O)C2)c1

>  <Energy>  (1165) 
131.9504900202611

>  <Genealogy>  (1165) 
C=c1c(=Cc2[n-]c(=O)[n-]c2[O-])cc(C)n1-c1cccc(C(=O)N2CCN(C)C(=O)C2)c1 (protonated)
C=c1/c(=C\c2[n-]c(=O)[n-]c2[O-])cc(C)n1-c1cccc(C(=O)N2CCN(C)C(=O)C2)c1 (cis-trans isomerization)
C=c1/c(=C\c2[n-]c(=O)[n-]c2[O-])cc(C)n1-c1cccc(C(=O)N2CCN(C)C(=O)C2)c1 (3D coordinates assigned)
C=c1/c(=C\c2[n-]c(=O)[n-]c2[O-])cc(C)n1-c1cccc(C(=O)N2CCN(C)C(=O)C2)c1 (nonaromatic ring conformer: 131.9504900202611 kcal/mol)

>  <smiles>  (1165) 
C=c1c(=Cc2[nH]c(=O)[nH]c2O)cc(C)n1-c1cccc(C(=O)N2CCN(C)C(=O)C2)c1

>  <score_type>  (1165) 
oracle

>  <origin>  (1165) 
adg

>  <m_score__min__energy>  (1165) 
-17.219999999999999

>  <m_primary>  (1165) 
energy

$$$$
51:0
     RDKit          3D

 31 34  0  0  0  0  0  0  0  0999 V2000
   57.3630   28.8230   45.3550 C   0  0  0  0  0  0  0  0  0  0  0  0
   56.9330   27.4460   45.7700 C   0  0  0  0  0  0  0  0  0  0  0  0
   55.6210   27.1200   45.6260 N   0  0  0  0  0  0  0  0  0  0  0  0
   55.1510   25.8930   45.9560 C   0  0  0  0  0  0  0  0  0  0  0  0
   53.9320   25.6260   45.8100 O   0  0  0  0  0  0  0  0  0  0  0  0
   55.9970   24.9530   46.4410 N   0  0  0  0  0  0  0  0  0  0  0  0
   57.3200   25.2120   46.6050 C   0  0  0  0  0  0  0  0  0  0  0  0
   58.0670   24.3030   47.0540 O   0  0  0  0  0  0  0  0  0  0  0  0
   57.8420   26.4790   46.2690 C   0  0  0  0  0  0  0  0  0  0  0  0
   59.3320   26.7500   46.3770 C   0  0  0  0  0  0  0  0  0  0  0  0
   59.5890   27.9670   47.2270 C   0  0  0  0  0  0  0  0  0  0  0  0
   60.2620   29.0750   46.6900 C   0  0  0  0  0  0  0  0  0  0  0  0
   60.3820   30.2540   47.4270 C   0  0  0  0  0  0  0  0  0  0  0  0
   59.8230   30.3490   48.7130 C   0  0  0  0  0  0  0  0  0  0  0  0
   59.8720   31.6350   49.4400 C   0  0  0  0  0  0  0  0  0  0  0  0
   60.6050   31.7350   50.4600 O   0  0  0  0  0  0  0  0  0  0  0  0
   59.0980   32.7740   49.0420 N   0  0  0  0  0  0  0  0  0  0  0  0
   59.0170   33.3620   47.7350 C   0  0  0  0  0  0  0  0  0  0  0  0
   57.7380   33.5540   47.1930 C   0  0  0  0  0  0  0  0  0  0  0  0
   57.5770   34.0950   45.9180 C   0  0  0  0  0  0  0  0  0  0  0  0
   58.6940   34.4720   45.1750 C   0  0  0  0  0  0  0  0  0  0  0  0
   59.9730   34.3240   45.7100 C   0  0  0  0  0  0  0  0  0  0  0  0
   60.1590   33.7780   46.9940 C   0  0  0  0  0  0  0  0  0  0  0  0
   61.4920   33.7230   47.5420 N   0  0  0  0  0  0  0  0  0  0  0  0
   61.7050   34.2200   48.9160 C   0  0  0  0  0  0  0  0  0  0  0  0
   63.1780   34.1900   49.3570 C   0  0  0  0  0  0  0  0  0  0  0  0
   64.0620   34.1670   48.2570 O   0  0  0  0  0  0  0  0  0  0  0  0
   63.8640   32.9700   47.5420 C   0  0  0  0  0  0  0  0  0  0  0  0
   62.5390   33.0230   46.7810 C   0  0  0  0  0  0  0  0  0  0  0  0
   59.2280   29.2120   49.2830 C   0  0  0  0  0  0  0  0  0  0  0  0
   59.1100   28.0310   48.5450 C   0  0  0  0  0  0  0  0  0  0  0  0
  1  2  1  0
  2  3  1  0
  3  4  1  0
  4  5  2  0
  4  6  1  0
  6  7  1  0
  7  8  2  0
  7  9  1  0
  9 10  1  0
 10 11  1  0
 11 12  2  0
 12 13  1  0
 13 14  2  0
 14 15  1  0
 15 16  2  0
 15 17  1  0
 17 18  1  0
 18 19  2  0
 19 20  1  0
 20 21  2  0
 21 22  1  0
 22 23  2  0
 23 24  1  0
 24 25  1  0
 25 26  1  0
 26 27  1  0
 27 28  1  0
 28 29  1  0
 14 30  1  0
 30 31  2  0
  9  2  2  0
 31 11  1  0
 23 18  1  0
 29 24  1  0
M  CHG  3   3  -1   6  -1  17  -1
M  END
>  <UniqueID>  (1166) 
49

>  <SMILES>  (1166) 
Cc1[n-]c(=O)[n-]c(=O)c1Cc1ccc(C(=O)[N-]c2ccccc2N2CCOCC2)cc1

>  <Energy>  (1166) 
72.23836941363587

>  <Genealogy>  (1166) 
Cc1[n-]c(=O)[n-]c(=O)c1Cc1ccc(C(=O)[N-]c2ccccc2N2CCOCC2)cc1 (protonated)
Cc1[n-]c(=O)[n-]c(=O)c1Cc1ccc(C(=O)[N-]c2ccccc2N2CCOCC2)cc1 (3D coordinates assigned)
Cc1[n-]c(=O)[n-]c(=O)c1Cc1ccc(C(=O)[N-]c2ccccc2N2CCOCC2)cc1 (nonaromatic ring conformer: 72.23836941363587 kcal/mol)

>  <smiles>  (1166) 
Cc1[nH]c(=O)[nH]c(=O)c1Cc1ccc(C(=O)Nc2ccccc2N2CCOCC2)cc1

>  <score_type>  (1166) 
oracle

>  <origin>  (1166) 
adg

>  <m_score__min__energy>  (1166) 
-14.32

>  <m_primary>  (1166) 
energy

$$$$
54:0
     RDKit          3D

 26 28  0  0  0  0  0  0  0  0999 V2000
   57.7460   32.1420   50.2780 N   0  0  0  0  0  0  0  0  0  0  0  0
   58.6450   31.5950   49.3160 C   0  0  0  0  0  0  0  0  0  0  0  0
   58.6000   30.3580   49.0760 O   0  0  0  0  0  0  0  0  0  0  0  0
   59.6460   32.4490   48.6260 C   0  0  0  0  0  0  0  0  0  0  0  0
   60.4190   33.3450   49.3910 C   0  0  0  0  0  0  0  0  0  0  0  0
   61.3510   34.1870   48.7810 C   0  0  0  0  0  0  0  0  0  0  0  0
   61.5330   34.1460   47.4000 C   0  0  0  0  0  0  0  0  0  0  0  0
   60.7870   33.2580   46.6240 C   0  0  0  0  0  0  0  0  0  0  0  0
   59.8470   32.4050   47.2230 C   0  0  0  0  0  0  0  0  0  0  0  0
   59.1510   31.4600   46.3910 N   0  0  0  0  0  0  0  0  0  0  0  0
   58.0310   31.7220   45.6840 C   0  0  0  0  0  0  0  0  0  0  0  0
   57.3830   33.0690   45.5800 C   0  0  0  0  0  0  0  0  0  0  0  0
   57.5860   30.5800   45.0520 C   0  0  0  0  0  0  0  0  0  0  0  0
   58.4750   29.5670   45.3780 C   0  0  0  0  0  0  0  0  0  0  0  0
   58.3690   28.3180   44.8810 C   0  0  0  0  0  0  0  0  0  0  0  0
   57.5300   27.2410   45.4390 C   0  0  0  0  0  0  0  0  0  0  0  0
   56.1470   27.4120   45.6170 C   0  0  0  0  0  0  0  0  0  0  0  0
   55.5230   28.5950   45.2360 O   0  0  0  0  0  0  0  0  0  0  0  0
   55.4080   26.4180   46.1730 N   0  0  0  0  0  0  0  0  0  0  0  0
   55.9850   25.2570   46.5770 C   0  0  0  0  0  0  0  0  0  0  0  0
   55.2780   24.3480   47.0850 O   0  0  0  0  0  0  0  0  0  0  0  0
   57.3230   25.0800   46.4410 N   0  0  0  0  0  0  0  0  0  0  0  0
   58.1070   26.0430   45.8910 C   0  0  0  0  0  0  0  0  0  0  0  0
   59.3470   25.8480   45.7860 O   0  0  0  0  0  0  0  0  0  0  0  0
   59.4200   30.1380   46.2480 C   0  0  0  0  0  0  0  0  0  0  0  0
   60.4020   29.5150   46.9190 C   0  0  0  0  0  0  0  0  0  0  0  0
  1  2  1  0
  2  3  2  0
  2  4  1  0
  4  5  2  0
  5  6  1  0
  6  7  2  0
  7  8  1  0
  8  9  2  0
  9 10  1  0
 10 11  1  0
 11 12  1  0
 11 13  2  0
 13 14  1  0
 14 15  2  0
 15 16  1  0
 16 17  2  0
 17 18  1  0
 17 19  1  0
 19 20  1  0
 20 21  2  0
 20 22  1  0
 22 23  1  0
 23 24  2  0
 14 25  1  0
 25 26  2  0
  9  4  1  0
 25 10  1  0
 23 16  1  0
M  CHG  4   1  -1  18  -1  19  -1  22  -1
M  END
>  <UniqueID>  (1167) 
52

>  <SMILES>  (1167) 
C=c1/c(=C\c2c([O-])[n-]c(=O)[n-]c2=O)cc(C)n1-c1ccccc1C([NH-])=O

>  <Energy>  (1167) 
92.54360004941782

>  <Genealogy>  (1167) 
C=c1c(=Cc2c([O-])[n-]c(=O)[n-]c2=O)cc(C)n1-c1ccccc1C([NH-])=O (protonated)
C=c1/c(=C\c2c([O-])[n-]c(=O)[n-]c2=O)cc(C)n1-c1ccccc1C([NH-])=O (cis-trans isomerization)
C=c1/c(=C\c2c([O-])[n-]c(=O)[n-]c2=O)cc(C)n1-c1ccccc1C([NH-])=O (3D coordinates assigned)
C=c1/c(=C\c2c([O-])[n-]c(=O)[n-]c2=O)cc(C)n1-c1ccccc1C([NH-])=O (optimized conformer: 92.54360004941782 kcal/mol)

>  <smiles>  (1167) 
C=c1c(=Cc2c(O)[nH]c(=O)[nH]c2=O)cc(C)n1-c1ccccc1C(N)=O

>  <score_type>  (1167) 
oracle

>  <origin>  (1167) 
adg

>  <m_score__min__energy>  (1167) 
-18.75

>  <m_primary>  (1167) 
energy

$$$$
59:0
     RDKit          3D

 29 32  0  0  0  0  0  0  0  0999 V2000
   57.7590   28.2880   44.7180 C   0  0  0  0  0  0  0  0  0  0  0  0
   58.2000   27.5250   45.7300 C   0  0  0  0  0  0  0  0  0  0  0  0
   58.1360   26.1250   45.8220 C   0  0  0  0  0  0  0  0  0  0  0  0
   57.4520   25.2210   45.0950 C   0  0  0  0  0  0  0  0  0  0  0  0
   56.0510   24.8270   45.3170 C   0  0  0  0  0  0  0  0  0  0  0  0
   55.5400   23.6140   45.0340 N   0  0  0  0  0  0  0  0  0  0  0  0
   54.2200   23.7710   45.2660 C   0  0  0  0  0  0  0  0  0  0  0  0
   53.3920   22.8330   45.1250 O   0  0  0  0  0  0  0  0  0  0  0  0
   53.8540   25.0120   45.6510 N   0  0  0  0  0  0  0  0  0  0  0  0
   55.0240   25.6700   45.6640 C   0  0  0  0  0  0  0  0  0  0  0  0
   55.1490   27.0170   45.9800 O   0  0  0  0  0  0  0  0  0  0  0  0
   58.9460   25.7700   46.8890 C   0  0  0  0  0  0  0  0  0  0  0  0
   59.4060   26.9440   47.4510 C   0  0  0  0  0  0  0  0  0  0  0  0
   60.3010   27.0180   48.6500 C   0  0  0  0  0  0  0  0  0  0  0  0
   58.9540   28.0090   46.7510 N   0  0  0  0  0  0  0  0  0  0  0  0
   59.2620   29.3880   47.0260 C   0  0  0  0  0  0  0  0  0  0  0  0
   58.7370   30.0190   48.1630 C   0  0  0  0  0  0  0  0  0  0  0  0
   59.0290   31.3610   48.4210 C   0  0  0  0  0  0  0  0  0  0  0  0
   59.8540   32.0840   47.5490 C   0  0  0  0  0  0  0  0  0  0  0  0
   60.1960   33.7810   47.8780 S   0  0  0  0  0  0  0  0  0  0  0  0
   60.0590   34.0150   49.3570 O   0  0  0  0  0  0  0  0  0  0  0  0
   61.6050   34.1100   47.4690 O   0  0  0  0  0  0  0  0  0  0  0  0
   59.0630   34.7940   47.0110 N   0  0  0  0  0  0  0  0  0  0  0  0
   57.8360   34.0580   46.6830 C   0  0  0  0  0  0  0  0  0  0  0  0
   58.0040   33.4790   45.2850 C   0  0  0  0  0  0  0  0  0  0  0  0
   59.1620   34.2400   44.6630 C   0  0  0  0  0  0  0  0  0  0  0  0
   59.6220   35.2290   45.7250 C   0  0  0  0  0  0  0  0  0  0  0  0
   60.3780   31.4540   46.4100 C   0  0  0  0  0  0  0  0  0  0  0  0
   60.0840   30.1130   46.1510 C   0  0  0  0  0  0  0  0  0  0  0  0
  1  2  2  0
  2  3  1  0
  3  4  2  0
  4  5  1  0
  5  6  1  0
  6  7  1  0
  7  8  2  0
  7  9  1  0
  9 10  1  0
 10 11  1  0
  3 12  1  0
 12 13  2  0
 13 14  1  0
 13 15  1  0
 15 16  1  0
 16 17  2  0
 17 18  1  0
 18 19  2  0
 19 20  1  0
 20 21  2  0
 20 22  2  0
 20 23  1  0
 23 24  1  0
 24 25  1  0
 25 26  1  0
 26 27  1  0
 19 28  1  0
 28 29  2  0
 15  2  1  0
 29 16  1  0
 10  5  2  0
 27 23  1  0
M  CHG  4   6  -1   9  -1  11  -1  23   1
M  END
>  <UniqueID>  (1168) 
57

>  <SMILES>  (1168) 
C=c1/c(=C\c2[n-]c(=O)[n-]c2[O-])cc(C)n1-c1ccc(S(=O)(=O)[NH+]2CCCC2)cc1

>  <Energy>  (1168) 
127.66747784759761

>  <Genealogy>  (1168) 
C=c1c(=Cc2[n-]c(=O)[n-]c2[O-])cc(C)n1-c1ccc(S(=O)(=O)[NH+]2CCCC2)cc1 (protonated)
C=c1/c(=C\c2[n-]c(=O)[n-]c2[O-])cc(C)n1-c1ccc(S(=O)(=O)[NH+]2CCCC2)cc1 (cis-trans isomerization)
C=c1/c(=C\c2[n-]c(=O)[n-]c2[O-])cc(C)n1-c1ccc(S(=O)(=O)[NH+]2CCCC2)cc1 (3D coordinates assigned)
C=c1/c(=C\c2[n-]c(=O)[n-]c2[O-])cc(C)n1-c1ccc(S(=O)(=O)[NH+]2CCCC2)cc1 (nonaromatic ring conformer: 127.66747784759761 kcal/mol)

>  <smiles>  (1168) 
C=c1c(=Cc2[nH]c(=O)[nH]c2O)cc(C)n1-c1ccc(S(=O)(=O)N2CCCC2)cc1

>  <score_type>  (1168) 
oracle

>  <origin>  (1168) 
adg

>  <m_score__min__energy>  (1168) 
-14.66

>  <m_primary>  (1168) 
energy

$$$$
67:0
     RDKit          3D

 31 34  0  0  0  0  0  0  0  0999 V2000
   59.0510   26.3490   47.3080 C   0  0  0  0  0  0  0  0  0  0  0  0
   58.5860   27.0000   46.2310 C   0  0  0  0  0  0  0  0  0  0  0  0
   57.9300   26.4470   45.1180 C   0  0  0  0  0  0  0  0  0  0  0  0
   57.4420   25.2110   44.9020 C   0  0  0  0  0  0  0  0  0  0  0  0
   56.0410   24.7970   45.0820 C   0  0  0  0  0  0  0  0  0  0  0  0
   55.5830   23.5440   44.9040 N   0  0  0  0  0  0  0  0  0  0  0  0
   54.2990   23.6210   45.3170 C   0  0  0  0  0  0  0  0  0  0  0  0
   53.5180   22.6350   45.2890 O   0  0  0  0  0  0  0  0  0  0  0  0
   53.9210   24.8350   45.7710 N   0  0  0  0  0  0  0  0  0  0  0  0
   55.0400   25.5630   45.6290 C   0  0  0  0  0  0  0  0  0  0  0  0
   55.1460   26.8990   45.9970 O   0  0  0  0  0  0  0  0  0  0  0  0
   57.8290   27.4650   44.1830 C   0  0  0  0  0  0  0  0  0  0  0  0
   58.3540   28.5990   44.7670 C   0  0  0  0  0  0  0  0  0  0  0  0
   58.4500   29.9390   44.1040 C   0  0  0  0  0  0  0  0  0  0  0  0
   58.8050   28.3220   46.0090 N   0  0  0  0  0  0  0  0  0  0  0  0
   59.4850   29.2510   46.8680 C   0  0  0  0  0  0  0  0  0  0  0  0
   58.9100   29.6310   48.0870 C   0  0  0  0  0  0  0  0  0  0  0  0
   59.5590   30.5510   48.9130 C   0  0  0  0  0  0  0  0  0  0  0  0
   60.7870   31.1150   48.5260 C   0  0  0  0  0  0  0  0  0  0  0  0
   61.4660   32.1420   49.4150 C   0  0  0  0  0  0  0  0  0  0  0  0
   61.4940   33.5400   48.8780 N   0  0  2  0  0  0  0  0  0  0  0  0
   62.5360   34.4180   49.4480 C   0  0  0  0  0  0  0  0  0  0  0  0
   60.1590   34.1930   48.8530 C   0  0  0  0  0  0  0  0  0  0  0  0
   59.4530   34.1320   47.5150 C   0  0  0  0  0  0  0  0  0  0  0  0
   58.3060   33.3370   47.3450 C   0  0  0  0  0  0  0  0  0  0  0  0
   57.6450   33.3050   46.1130 C   0  0  0  0  0  0  0  0  0  0  0  0
   58.1070   34.0830   45.0490 C   0  0  0  0  0  0  0  0  0  0  0  0
   59.2260   34.9040   45.2180 C   0  0  0  0  0  0  0  0  0  0  0  0
   59.8920   34.9350   46.4470 C   0  0  0  0  0  0  0  0  0  0  0  0
   61.3640   30.7210   47.3080 C   0  0  0  0  0  0  0  0  0  0  0  0
   60.7150   29.7990   46.4830 C   0  0  0  0  0  0  0  0  0  0  0  0
  1  2  2  0
  2  3  1  0
  3  4  2  0
  4  5  1  0
  5  6  1  0
  6  7  1  0
  7  8  2  0
  7  9  1  0
  9 10  1  0
 10 11  1  0
  3 12  1  0
 12 13  2  0
 13 14  1  0
 13 15  1  0
 15 16  1  0
 16 17  2  0
 17 18  1  0
 18 19  2  0
 19 20  1  0
 20 21  1  0
 21 22  1  1
 21 23  1  0
 23 24  1  0
 24 25  2  0
 25 26  1  0
 26 27  2  0
 27 28  1  0
 28 29  2  0
 19 30  1  0
 30 31  2  0
 15  2  1  0
 31 16  1  0
 10  5  2  0
 29 24  1  0
M  CHG  4   6  -1   9  -1  11  -1  21   1
M  END
>  <UniqueID>  (1169) 
64

>  <SMILES>  (1169) 
C=c1/c(=C\c2[n-]c(=O)[n-]c2[O-])cc(C)n1-c1ccc(C[N@H+](C)Cc2ccccc2)cc1

>  <Energy>  (1169) 
144.67890829297698

>  <Genealogy>  (1169) 
C=c1c(=Cc2[n-]c(=O)[n-]c2[O-])cc(C)n1-c1ccc(C[NH+](C)Cc2ccccc2)cc1 (protonated)
C=c1c(=Cc2[n-]c(=O)[n-]c2[O-])cc(C)n1-c1ccc(C[N@H+](C)Cc2ccccc2)cc1 (chirality)
C=c1/c(=C\c2[n-]c(=O)[n-]c2[O-])cc(C)n1-c1ccc(C[N@H+](C)Cc2ccccc2)cc1 (cis-trans isomerization)
C=c1/c(=C\c2[n-]c(=O)[n-]c2[O-])cc(C)n1-c1ccc(C[N@H+](C)Cc2ccccc2)cc1 (3D coordinates assigned)
C=c1/c(=C\c2[n-]c(=O)[n-]c2[O-])cc(C)n1-c1ccc(C[N@H+](C)Cc2ccccc2)cc1 (optimized conformer: 144.67890829297698 kcal/mol)

>  <smiles>  (1169) 
C=c1c(=Cc2[nH]c(=O)[nH]c2O)cc(C)n1-c1ccc(CN(C)Cc2ccccc2)cc1

>  <score_type>  (1169) 
oracle

>  <origin>  (1169) 
adg

>  <m_score__min__energy>  (1169) 
-14.9

>  <m_primary>  (1169) 
energy

$$$$
68:0
     RDKit          3D

 28 31  0  0  0  0  0  0  0  0999 V2000
   58.7760   30.0710   47.6150 C   0  0  0  0  0  0  0  0  0  0  0  0
   58.3360   30.5240   46.4290 C   0  0  0  0  0  0  0  0  0  0  0  0
   58.2390   29.8000   45.2290 C   0  0  0  0  0  0  0  0  0  0  0  0
   58.3930   28.4860   44.9690 C   0  0  0  0  0  0  0  0  0  0  0  0
   57.5880   27.3930   45.5490 C   0  0  0  0  0  0  0  0  0  0  0  0
   56.1870   27.4720   45.6080 C   0  0  0  0  0  0  0  0  0  0  0  0
   55.5190   28.6030   45.1530 O   0  0  0  0  0  0  0  0  0  0  0  0
   55.4710   26.4320   46.1090 N   0  0  0  0  0  0  0  0  0  0  0  0
   56.0860   25.3010   46.5410 C   0  0  0  0  0  0  0  0  0  0  0  0
   55.4020   24.3520   47.0050 O   0  0  0  0  0  0  0  0  0  0  0  0
   57.4380   25.1910   46.4680 N   0  0  0  0  0  0  0  0  0  0  0  0
   58.1980   26.2030   45.9760 C   0  0  0  0  0  0  0  0  0  0  0  0
   59.4490   26.0630   45.9160 O   0  0  0  0  0  0  0  0  0  0  0  0
   57.9150   30.7190   44.2460 C   0  0  0  0  0  0  0  0  0  0  0  0
   57.7810   31.9420   44.8690 C   0  0  0  0  0  0  0  0  0  0  0  0
   57.4160   33.2150   44.1670 C   0  0  0  0  0  0  0  0  0  0  0  0
   58.0140   31.8260   46.1960 N   0  0  0  0  0  0  0  0  0  0  0  0
   58.0210   32.9370   47.1600 C   0  0  0  0  0  0  0  0  0  0  0  0
   59.1920   33.8820   46.8780 C   0  0  0  0  0  0  0  0  0  0  0  0
   60.1810   33.8430   48.0030 C   0  0  0  0  0  0  0  0  0  0  0  0
   59.9380   34.1710   49.3330 C   0  0  0  0  0  0  0  0  0  0  0  0
   61.0800   34.0950   50.0530 N   0  0  0  0  0  0  0  0  0  0  0  0
   62.0430   33.7370   49.1870 C   0  0  0  0  0  0  0  0  0  0  0  0
   63.3990   33.5540   49.4580 C   0  0  0  0  0  0  0  0  0  0  0  0
   64.2420   33.1980   48.3890 C   0  0  0  0  0  0  0  0  0  0  0  0
   63.7170   33.0400   47.0870 C   0  0  0  0  0  0  0  0  0  0  0  0
   62.3450   33.2340   46.8420 C   0  0  0  0  0  0  0  0  0  0  0  0
   61.5340   33.5790   47.9230 C   0  0  0  0  0  0  0  0  0  0  0  0
  1  2  2  0
  2  3  1  0
  3  4  2  0
  4  5  1  0
  5  6  2  0
  6  7  1  0
  6  8  1  0
  8  9  1  0
  9 10  2  0
  9 11  1  0
 11 12  1  0
 12 13  2  0
  3 14  1  0
 14 15  2  0
 15 16  1  0
 15 17  1  0
 17 18  1  0
 18 19  1  0
 19 20  1  0
 20 21  2  0
 21 22  1  0
 22 23  1  0
 23 24  2  0
 24 25  1  0
 25 26  2  0
 26 27  1  0
 27 28  2  0
 17  2  1  0
 28 20  1  0
 12  5  1  0
 28 23  1  0
M  CHG  3   7  -1   8  -1  11  -1
M  END
>  <UniqueID>  (1170) 
65

>  <SMILES>  (1170) 
C=c1/c(=C\c2c([O-])[n-]c(=O)[n-]c2=O)cc(C)n1CCc1c[nH]c2ccccc12

>  <Energy>  (1170) 
120.9796672070883

>  <Genealogy>  (1170) 
C=c1c(=Cc2c([O-])[n-]c(=O)[n-]c2=O)cc(C)n1CCc1c[nH]c2ccccc12 (protonated)
C=c1/c(=C\c2c([O-])[n-]c(=O)[n-]c2=O)cc(C)n1CCc1c[nH]c2ccccc12 (cis-trans isomerization)
C=c1/c(=C\c2c([O-])[n-]c(=O)[n-]c2=O)cc(C)n1CCc1c[nH]c2ccccc12 (3D coordinates assigned)
C=c1/c(=C\c2c([O-])[n-]c(=O)[n-]c2=O)cc(C)n1CCc1c[nH]c2ccccc12 (optimized conformer: 120.9796672070883 kcal/mol)

>  <smiles>  (1170) 
C=c1c(=Cc2c(O)[nH]c(=O)[nH]c2=O)cc(C)n1CCc1c[nH]c2ccccc12

>  <score_type>  (1170) 
oracle

>  <origin>  (1170) 
adg

>  <m_score__min__energy>  (1170) 
-16.91

>  <m_primary>  (1170) 
energy

$$$$
78:0
     RDKit          3D

 35 39  0  0  0  0  0  0  0  0999 V2000
   58.6190   29.6140   47.5720 C   0  0  0  0  0  0  0  0  0  0  0  0
   58.1660   29.2270   46.3680 C   0  0  0  0  0  0  0  0  0  0  0  0
   57.9210   27.9110   45.9510 C   0  0  0  0  0  0  0  0  0  0  0  0
   58.1010   26.7860   46.6770 C   0  0  0  0  0  0  0  0  0  0  0  0
   57.2230   25.5950   46.6550 C   0  0  0  0  0  0  0  0  0  0  0  0
   57.5830   24.3390   46.9760 N   0  0  0  0  0  0  0  0  0  0  0  0
   56.4390   23.6360   46.8410 C   0  0  0  0  0  0  0  0  0  0  0  0
   56.3750   22.3980   47.0560 O   0  0  0  0  0  0  0  0  0  0  0  0
   55.3680   24.3650   46.4630 N   0  0  0  0  0  0  0  0  0  0  0  0
   55.8810   25.6020   46.3540 C   0  0  0  0  0  0  0  0  0  0  0  0
   55.1350   26.7140   45.9870 O   0  0  0  0  0  0  0  0  0  0  0  0
   57.4250   28.0050   44.6550 C   0  0  0  0  0  0  0  0  0  0  0  0
   57.4020   29.3470   44.3320 C   0  0  0  0  0  0  0  0  0  0  0  0
   56.9170   29.9020   43.0280 C   0  0  0  0  0  0  0  0  0  0  0  0
   57.8450   30.0890   45.3710 N   0  0  0  0  0  0  0  0  0  0  0  0
   57.9530   31.5240   45.3900 C   0  0  0  0  0  0  0  0  0  0  0  0
   56.9160   32.3150   44.8820 C   0  0  0  0  0  0  0  0  0  0  0  0
   57.0150   33.7060   44.9150 C   0  0  0  0  0  0  0  0  0  0  0  0
   58.1460   34.3180   45.4610 C   0  0  0  0  0  0  0  0  0  0  0  0
   59.1950   33.5400   45.9900 C   0  0  0  0  0  0  0  0  0  0  0  0
   60.4290   34.1490   46.5690 C   0  0  0  0  0  0  0  0  0  0  0  0
   60.6910   35.3490   46.2720 O   0  0  0  0  0  0  0  0  0  0  0  0
   61.3430   33.4390   47.4480 N   0  0  0  0  0  0  0  0  0  0  0  0
   62.6920   33.2840   46.8350 C   0  0  0  0  0  0  0  0  0  0  0  0
   63.8550   33.4790   47.8260 C   0  0  0  0  0  0  0  0  0  0  0  0
   63.5390   32.8970   49.1370 N   0  0  0  0  0  0  0  0  0  0  0  0
   64.5760   32.2890   49.9360 C   0  0  0  0  0  0  0  0  0  0  0  0
   65.8990   32.7630   49.8670 C   0  0  0  0  0  0  0  0  0  0  0  0
   66.9040   32.1710   50.6390 C   0  0  0  0  0  0  0  0  0  0  0  0
   66.6020   31.1010   51.4840 C   0  0  0  0  0  0  0  0  0  0  0  0
   65.2930   30.6190   51.5580 C   0  0  0  0  0  0  0  0  0  0  0  0
   64.2840   31.2080   50.7900 C   0  0  0  0  0  0  0  0  0  0  0  0
   62.2170   33.1380   49.7360 C   0  0  0  0  0  0  0  0  0  0  0  0
   61.3490   34.0020   48.8170 C   0  0  0  0  0  0  0  0  0  0  0  0
   59.0880   32.1380   45.9380 C   0  0  0  0  0  0  0  0  0  0  0  0
  1  2  2  0
  2  3  1  0
  3  4  2  0
  4  5  1  0
  5  6  1  0
  6  7  1  0
  7  8  2  0
  7  9  1  0
  9 10  1  0
 10 11  1  0
  3 12  1  0
 12 13  2  0
 13 14  1  0
 13 15  1  0
 15 16  1  0
 16 17  2  0
 17 18  1  0
 18 19  2  0
 19 20  1  0
 20 21  1  0
 21 22  2  0
 21 23  1  0
 23 24  1  0
 24 25  1  0
 25 26  1  0
 26 27  1  0
 27 28  2  0
 28 29  1  0
 29 30  2  0
 30 31  1  0
 31 32  2  0
 26 33  1  0
 33 34  1  0
 20 35  2  0
 15  2  1  0
 35 16  1  0
 10  5  2  0
 34 23  1  0
 32 27  1  0
M  CHG  4   6  -1   9  -1  11  -1  23   1
M  END
>  <UniqueID>  (1171) 
74

>  <SMILES>  (1171) 
C=c1/c(=C/c2[n-]c(=O)[n-]c2[O-])cc(C)n1-c1cccc(C(=O)[NH+]2CCN(c3ccccc3)CC2)c1

>  <Energy>  (1171) 
151.1806308493476

>  <Genealogy>  (1171) 
C=c1c(=Cc2[n-]c(=O)[n-]c2[O-])cc(C)n1-c1cccc(C(=O)[NH+]2CCN(c3ccccc3)CC2)c1 (protonated)
C=c1/c(=C/c2[n-]c(=O)[n-]c2[O-])cc(C)n1-c1cccc(C(=O)[NH+]2CCN(c3ccccc3)CC2)c1 (cis-trans isomerization)
C=c1/c(=C/c2[n-]c(=O)[n-]c2[O-])cc(C)n1-c1cccc(C(=O)[NH+]2CCN(c3ccccc3)CC2)c1 (3D coordinates assigned)
C=c1/c(=C/c2[n-]c(=O)[n-]c2[O-])cc(C)n1-c1cccc(C(=O)[NH+]2CCN(c3ccccc3)CC2)c1 (nonaromatic ring conformer: 151.1806308493476 kcal/mol)

>  <smiles>  (1171) 
C=c1c(=Cc2[nH]c(=O)[nH]c2O)cc(C)n1-c1cccc(C(=O)N2CCN(c3ccccc3)CC2)c1

>  <score_type>  (1171) 
oracle

>  <origin>  (1171) 
adg

>  <m_score__min__energy>  (1171) 
-17.199999999999999

>  <m_primary>  (1171) 
energy

$$$$
2:0
     RDKit          3D

 26 28  0  0  0  0  0  0  0  0999 V2000
   59.9030   30.0460   46.2560 C   0  0  0  0  0  0  0  0  0  0  0  0
   59.1760   31.0320   45.7080 C   0  0  0  0  0  0  0  0  0  0  0  0
   58.2340   30.9310   44.6700 C   0  0  0  0  0  0  0  0  0  0  0  0
   57.7070   29.8550   44.0520 C   0  0  0  0  0  0  0  0  0  0  0  0
   57.4150   28.5570   44.6910 C   0  0  0  0  0  0  0  0  0  0  0  0
   56.1540   28.3100   45.2500 C   0  0  0  0  0  0  0  0  0  0  0  0
   55.1480   29.2680   45.1610 O   0  0  0  0  0  0  0  0  0  0  0  0
   55.9030   27.1290   45.8730 N   0  0  0  0  0  0  0  0  0  0  0  0
   56.8720   26.1770   45.9800 C   0  0  0  0  0  0  0  0  0  0  0  0
   56.5590   24.7580   46.7300 S   0  0  0  0  0  0  0  0  0  0  0  0
   58.1090   26.4070   45.4720 N   0  0  0  0  0  0  0  0  0  0  0  0
   58.4060   27.5710   44.8410 C   0  0  0  0  0  0  0  0  0  0  0  0
   59.5710   27.7560   44.4000 O   0  0  0  0  0  0  0  0  0  0  0  0
   57.8720   32.2300   44.3460 C   0  0  0  0  0  0  0  0  0  0  0  0
   58.5520   33.0610   45.2120 C   0  0  0  0  0  0  0  0  0  0  0  0
   58.4770   34.5570   45.2040 C   0  0  0  0  0  0  0  0  0  0  0  0
   59.3310   32.3370   46.0420 N   0  0  0  0  0  0  0  0  0  0  0  0
   60.2470   32.8830   47.0050 C   0  0  0  0  0  0  0  0  0  0  0  0
   61.5290   33.2540   46.5710 C   0  0  0  0  0  0  0  0  0  0  0  0
   62.4420   33.8210   47.4610 C   0  0  0  0  0  0  0  0  0  0  0  0
   62.0820   34.0260   48.7920 C   0  0  0  0  0  0  0  0  0  0  0  0
   60.8100   33.6610   49.2400 C   0  0  0  0  0  0  0  0  0  0  0  0
   59.8740   33.0810   48.3590 C   0  0  0  0  0  0  0  0  0  0  0  0
   58.5370   32.6920   48.8810 C   0  0  0  0  0  0  0  0  0  0  0  0
   57.5130   32.8190   48.1580 O   0  0  0  0  0  0  0  0  0  0  0  0
   58.3800   32.2010   50.1720 O   0  0  0  0  0  0  0  0  0  0  0  0
  1  2  2  0
  2  3  1  0
  3  4  2  3
  4  5  1  0
  5  6  2  0
  6  7  1  0
  6  8  1  0
  8  9  1  0
  9 10  2  0
  9 11  1  0
 11 12  1  0
 12 13  2  0
  3 14  1  0
 14 15  2  0
 15 16  1  0
 15 17  1  0
 17 18  1  0
 18 19  2  0
 19 20  1  0
 20 21  2  0
 21 22  1  0
 22 23  2  0
 23 24  1  0
 24 25  2  0
 24 26  1  0
 17  2  1  0
 23 18  1  0
 12  5  1  0
M  CHG  3   7  -1  11  -1  26  -1
M  END
>  <UniqueID>  (1172) 
3

>  <SMILES>  (1172) 
C=c1c(=Cc2c([O-])[nH]c(=S)[n-]c2=O)cc(C)n1-c1ccccc1C(=O)[O-]

>  <Energy>  (1172) 
92.29616946201314

>  <Genealogy>  (1172) 
C=c1c(=Cc2c([O-])[nH]c(=S)[n-]c2=O)cc(C)n1-c1ccccc1C(=O)[O-] (protonated)
C=c1c(=Cc2c([O-])[nH]c(=S)[n-]c2=O)cc(C)n1-c1ccccc1C(=O)[O-] (3D coordinates assigned)
C=c1c(=Cc2c([O-])[nH]c(=S)[n-]c2=O)cc(C)n1-c1ccccc1C(=O)[O-] (optimized conformer: 92.29616946201314 kcal/mol)

>  <smiles>  (1172) 
C=c1c(=Cc2c(O)[nH]c(=S)[nH]c2=O)cc(C)n1-c1ccccc1C(=O)O

>  <score_type>  (1172) 
oracle

>  <origin>  (1172) 
adg

>  <m_score__min__energy>  (1172) 
-15.199999999999999

>  <m_primary>  (1172) 
energy

$$$$
6:0
     RDKit          3D

 34 37  0  0  0  0  0  0  0  0999 V2000
   54.6780   26.3280   45.9260 O   0  0  0  0  0  0  0  0  0  0  0  0
   54.4090   25.0110   45.5600 C   0  0  0  0  0  0  0  0  0  0  0  0
   53.2220   24.4200   45.7730 N   0  0  0  0  0  0  0  0  0  0  0  0
   53.4090   23.1830   45.2720 C   0  0  0  0  0  0  0  0  0  0  0  0
   52.5070   22.3040   45.2770 O   0  0  0  0  0  0  0  0  0  0  0  0
   54.6360   22.9630   44.7540 N   0  0  0  0  0  0  0  0  0  0  0  0
   55.2790   24.1290   44.9490 C   0  0  0  0  0  0  0  0  0  0  0  0
   56.6480   24.4370   44.4780 C   0  0  0  0  0  0  0  0  0  0  0  0
   57.4600   25.3770   45.0090 C   0  0  0  0  0  0  0  0  0  0  0  0
   57.8410   25.5000   46.3410 C   0  0  0  0  0  0  0  0  0  0  0  0
   58.6560   26.6120   46.4200 C   0  0  0  0  0  0  0  0  0  0  0  0
   59.2940   27.1160   47.6800 C   0  0  0  0  0  0  0  0  0  0  0  0
   58.7930   27.1850   45.2060 N   0  0  0  0  0  0  0  0  0  0  0  0
   59.5800   28.3570   44.9220 C   0  0  0  0  0  0  0  0  0  0  0  0
   60.7260   28.2170   44.4150 O   0  0  0  0  0  0  0  0  0  0  0  0
   59.0730   29.7140   45.2330 C   0  0  0  0  0  0  0  0  0  0  0  0
   59.8860   30.6400   45.9060 C   0  0  0  0  0  0  0  0  0  0  0  0
   59.4160   31.9250   46.1880 C   0  0  0  0  0  0  0  0  0  0  0  0
   58.1170   32.3110   45.8110 C   0  0  0  0  0  0  0  0  0  0  0  0
   57.6250   33.6800   46.0900 C   0  0  0  0  0  0  0  0  0  0  0  0
   56.6880   34.1680   45.4000 O   0  0  0  0  0  0  0  0  0  0  0  0
   58.2210   34.4590   47.1300 N   0  0  0  0  0  0  0  0  0  0  0  0
   59.5780   34.9850   47.0480 C   0  0  0  0  0  0  0  0  0  0  0  0
   60.4350   34.4730   48.2160 C   0  0  0  0  0  0  0  0  0  0  0  0
   61.2840   33.3040   47.8940 N   0  0  0  0  0  0  0  0  0  0  0  0
   61.8020   32.5510   49.0570 C   0  0  0  0  0  0  0  0  0  0  0  0
   63.2380   32.9680   49.4580 C   0  0  0  0  0  0  0  0  0  0  0  0
   63.8200   33.8960   48.5630 O   0  0  0  0  0  0  0  0  0  0  0  0
   63.7030   33.4160   47.2440 C   0  0  0  0  0  0  0  0  0  0  0  0
   62.2410   33.4890   46.7800 C   0  0  0  0  0  0  0  0  0  0  0  0
   57.2980   31.3780   45.1520 C   0  0  0  0  0  0  0  0  0  0  0  0
   57.7700   30.0930   44.8670 C   0  0  0  0  0  0  0  0  0  0  0  0
   58.0740   26.4380   44.3300 C   0  0  0  0  0  0  0  0  0  0  0  0
   58.0200   26.6790   43.0100 C   0  0  0  0  0  0  0  0  0  0  0  0
  1  2  1  0
  2  3  1  0
  3  4  1  0
  4  5  2  0
  4  6  1  0
  6  7  1  0
  7  8  1  0
  8  9  2  0
  9 10  1  0
 10 11  2  0
 11 12  1  0
 11 13  1  0
 13 14  1  0
 14 15  2  0
 14 16  1  0
 16 17  2  0
 17 18  1  0
 18 19  2  0
 19 20  1  0
 20 21  2  0
 20 22  1  0
 22 23  1  0
 23 24  1  0
 24 25  1  0
 25 26  1  0
 26 27  1  0
 27 28  1  0
 28 29  1  0
 29 30  1  0
 19 31  1  0
 31 32  2  0
 13 33  1  0
 33 34  2  0
  7  2  2  0
 33  9  1  0
 32 16  1  0
 30 25  1  0
M  CHG  3   3  -1   6  -1  22  -1
M  END
>  <UniqueID>  (1173) 
7

>  <SMILES>  (1173) 
C=c1/c(=C/c2[n-]c(=O)[n-]c2O)cc(C)n1C(=O)c1ccc(C(=O)[N-]CCN2CCOCC2)cc1

>  <Energy>  (1173) 
142.5345009893762

>  <Genealogy>  (1173) 
C=c1c(=Cc2[n-]c(=O)[n-]c2O)cc(C)n1C(=O)c1ccc(C(=O)[N-]CCN2CCOCC2)cc1 (protonated)
C=c1/c(=C/c2[n-]c(=O)[n-]c2O)cc(C)n1C(=O)c1ccc(C(=O)[N-]CCN2CCOCC2)cc1 (cis-trans isomerization)
C=c1/c(=C/c2[n-]c(=O)[n-]c2O)cc(C)n1C(=O)c1ccc(C(=O)[N-]CCN2CCOCC2)cc1 (3D coordinates assigned)
C=c1/c(=C/c2[n-]c(=O)[n-]c2O)cc(C)n1C(=O)c1ccc(C(=O)[N-]CCN2CCOCC2)cc1 (nonaromatic ring conformer: 142.5345009893762 kcal/mol)

>  <smiles>  (1173) 
C=c1c(=Cc2[nH]c(=O)[nH]c2O)cc(C)n1C(=O)c1ccc(C(=O)NCCN2CCOCC2)cc1

>  <score_type>  (1173) 
oracle

>  <origin>  (1173) 
adg

>  <m_score__min__energy>  (1173) 
-15.279999999999999

>  <m_primary>  (1173) 
energy

$$$$
16:0
     RDKit          3D

 30 32  0  0  0  0  0  0  0  0999 V2000
   56.8540   29.6910   43.1260 O   0  0  0  0  0  0  0  0  0  0  0  0
   57.5720   29.0680   43.9540 C   0  0  0  0  0  0  0  0  0  0  0  0
   57.8650   27.6200   43.7280 C   0  0  0  0  0  0  0  0  0  0  0  0
   58.7530   27.1430   44.7860 N   0  0  0  0  0  0  0  0  0  0  0  0
   57.8170   26.5720   46.1340 S   0  0  0  0  0  0  0  0  0  0  0  0
   57.0400   27.7200   46.7180 O   0  0  0  0  0  0  0  0  0  0  0  0
   58.7480   26.0250   47.1780 O   0  0  0  0  0  0  0  0  0  0  0  0
   56.7190   25.2870   45.6190 C   0  0  0  0  0  0  0  0  0  0  0  0
   57.2420   24.0470   45.2180 C   0  0  0  0  0  0  0  0  0  0  0  0
   56.3890   23.0180   44.8120 C   0  0  0  0  0  0  0  0  0  0  0  0
   55.0070   23.2140   44.8100 C   0  0  0  0  0  0  0  0  0  0  0  0
   54.4740   24.4390   45.2220 C   0  0  0  0  0  0  0  0  0  0  0  0
   55.3240   25.4730   45.6340 C   0  0  0  0  0  0  0  0  0  0  0  0
   54.7700   26.6770   46.0580 O   0  0  0  0  0  0  0  0  0  0  0  0
   58.0390   29.7120   45.1500 N   0  0  0  0  0  0  0  0  0  0  0  0
   57.9540   31.1260   45.3910 C   0  0  0  0  0  0  0  0  0  0  0  0
   57.0460   31.9370   44.6880 C   0  0  0  0  0  0  0  0  0  0  0  0
   57.0030   33.3150   44.9220 C   0  0  0  0  0  0  0  0  0  0  0  0
   57.8720   33.8950   45.8490 C   0  0  0  0  0  0  0  0  0  0  0  0
   58.7900   33.1020   46.5460 C   0  0  0  0  0  0  0  0  0  0  0  0
   59.8910   33.8510   47.6990 S   0  0  0  0  0  0  0  0  0  0  0  0
   59.2660   33.8820   49.0680 O   0  0  0  0  0  0  0  0  0  0  0  0
   60.1560   35.2660   47.2610 O   0  0  0  0  0  0  0  0  0  0  0  0
   61.3870   32.9520   47.7470 N   0  0  0  0  0  0  0  0  0  0  0  0
   61.9370   32.9010   49.1210 C   0  0  0  0  0  0  0  0  0  0  0  0
   63.1570   33.8240   49.2940 C   0  0  0  0  0  0  0  0  0  0  0  0
   64.2150   33.5210   48.3980 O   0  0  0  0  0  0  0  0  0  0  0  0
   63.7760   33.0960   47.1140 C   0  0  0  0  0  0  0  0  0  0  0  0
   62.3370   33.5090   46.7660 C   0  0  0  0  0  0  0  0  0  0  0  0
   58.8370   31.7210   46.3050 C   0  0  0  0  0  0  0  0  0  0  0  0
  1  2  2  0
  2  3  1  0
  3  4  1  0
  4  5  1  0
  5  6  2  0
  5  7  2  0
  5  8  1  0
  8  9  2  0
  9 10  1  0
 10 11  2  0
 11 12  1  0
 12 13  2  0
 13 14  1  0
  2 15  1  0
 15 16  1  0
 16 17  2  0
 17 18  1  0
 18 19  2  0
 19 20  1  0
 20 21  1  0
 21 22  2  0
 21 23  2  0
 21 24  1  0
 24 25  1  0
 25 26  1  0
 26 27  1  0
 27 28  1  0
 28 29  1  0
 20 30  2  0
 13  8  1  0
 30 16  1  0
 29 24  1  0
M  CHG  2   4  -1  14  -1
M  END
>  <UniqueID>  (1174) 
16

>  <SMILES>  (1174) 
O=C(C[N-]S(=O)(=O)c1ccccc1[O-])Nc1cccc(S(=O)(=O)N2CCOCC2)c1

>  <Energy>  (1174) 
63.66400233422362

>  <Genealogy>  (1174) 
O=C(C[N-]S(=O)(=O)c1ccccc1[O-])Nc1cccc(S(=O)(=O)N2CCOCC2)c1 (protonated)
O=C(C[N-]S(=O)(=O)c1ccccc1[O-])Nc1cccc(S(=O)(=O)N2CCOCC2)c1 (3D coordinates assigned)
O=C(C[N-]S(=O)(=O)c1ccccc1[O-])Nc1cccc(S(=O)(=O)N2CCOCC2)c1 (nonaromatic ring conformer: 63.66400233422362 kcal/mol)

>  <smiles>  (1174) 
O=C(CNS(=O)(=O)c1ccccc1O)Nc1cccc(S(=O)(=O)N2CCOCC2)c1

>  <score_type>  (1174) 
oracle

>  <origin>  (1174) 
adg

>  <m_score__min__energy>  (1174) 
-15.449999999999999

>  <m_primary>  (1174) 
energy

$$$$
20:0
     RDKit          3D

 32 35  0  0  0  0  0  0  0  0999 V2000
   54.8660   26.3180   45.9970 O   0  0  0  0  0  0  0  0  0  0  0  0
   55.8730   25.3900   46.2430 C   0  0  0  0  0  0  0  0  0  0  0  0
   55.7130   24.3040   47.0180 N   0  0  0  0  0  0  0  0  0  0  0  0
   56.9070   23.6820   46.9070 C   0  0  0  0  0  0  0  0  0  0  0  0
   57.1640   22.5970   47.4930 O   0  0  0  0  0  0  0  0  0  0  0  0
   57.7990   24.3060   46.1110 N   0  0  0  0  0  0  0  0  0  0  0  0
   57.1420   25.4100   45.7090 C   0  0  0  0  0  0  0  0  0  0  0  0
   57.6990   26.3720   44.7410 C   0  0  0  0  0  0  0  0  0  0  0  0
   58.2630   27.5490   45.0820 C   0  0  0  0  0  0  0  0  0  0  0  0
   59.4820   27.7240   45.7220 C   0  0  0  0  0  0  0  0  0  0  0  0
   59.6910   29.0860   45.8110 C   0  0  0  0  0  0  0  0  0  0  0  0
   60.8960   29.7200   46.4370 C   0  0  0  0  0  0  0  0  0  0  0  0
   58.6530   29.7600   45.2660 N   0  0  0  0  0  0  0  0  0  0  0  0
   58.5540   31.1910   45.1360 C   0  0  0  0  0  0  0  0  0  0  0  0
   57.9550   31.7550   44.0010 C   0  0  0  0  0  0  0  0  0  0  0  0
   57.8510   33.1420   43.8770 C   0  0  0  0  0  0  0  0  0  0  0  0
   58.3550   33.9760   44.8780 C   0  0  0  0  0  0  0  0  0  0  0  0
   58.9840   33.4270   46.0090 C   0  0  0  0  0  0  0  0  0  0  0  0
   59.5090   34.3150   47.0670 C   0  0  0  0  0  0  0  0  0  0  0  0
   58.8840   35.3760   47.3450 O   0  0  0  0  0  0  0  0  0  0  0  0
   60.7250   34.0050   47.7750 N   0  0  0  0  0  0  0  0  0  0  0  0
   60.8890   34.4730   49.1570 C   0  0  0  0  0  0  0  0  0  0  0  0
   61.7720   33.5010   49.9470 C   0  0  0  0  0  0  0  0  0  0  0  0
   62.9900   33.1330   49.2050 N   0  0  0  0  0  0  0  0  0  0  0  0
   64.0290   32.3680   49.8560 C   0  0  0  0  0  0  0  0  0  0  0  0
   65.1500   32.2170   49.2930 O   0  0  0  0  0  0  0  0  0  0  0  0
   63.8180   31.7530   51.2110 C   0  0  0  0  0  0  0  0  0  0  0  0
   63.1820   33.6290   47.8340 C   0  0  0  0  0  0  0  0  0  0  0  0
   61.8840   33.4880   47.0320 C   0  0  0  0  0  0  0  0  0  0  0  0
   59.0670   32.0300   46.1370 C   0  0  0  0  0  0  0  0  0  0  0  0
   57.7750   28.8310   44.8110 C   0  0  0  0  0  0  0  0  0  0  0  0
   56.6010   29.1280   44.2310 C   0  0  0  0  0  0  0  0  0  0  0  0
  1  2  1  0
  2  3  1  0
  3  4  1  0
  4  5  2  0
  4  6  1  0
  6  7  1  0
  7  8  1  0
  8  9  2  0
  9 10  1  0
 10 11  2  0
 11 12  1  0
 11 13  1  0
 13 14  1  0
 14 15  2  0
 15 16  1  0
 16 17  2  0
 17 18  1  0
 18 19  1  0
 19 20  2  0
 19 21  1  0
 21 22  1  0
 22 23  1  0
 23 24  1  0
 24 25  1  0
 25 26  2  0
 25 27  1  0
 24 28  1  0
 28 29  1  0
 18 30  2  0
 13 31  1  0
 31 32  2  0
  7  2  2  0
 31  9  1  0
 30 14  1  0
 29 21  1  0
M  CHG  2   3  -1   6  -1
M  END
>  <UniqueID>  (1175) 
20

>  <SMILES>  (1175) 
C=c1/c(=C/c2[n-]c(=O)[n-]c2O)cc(C)n1-c1cccc(C(=O)N2CCN(C(C)=O)CC2)c1

>  <Energy>  (1175) 
130.93525530369155

>  <Genealogy>  (1175) 
C=c1c(=Cc2[n-]c(=O)[n-]c2O)cc(C)n1-c1cccc(C(=O)N2CCN(C(C)=O)CC2)c1 (protonated)
C=c1/c(=C/c2[n-]c(=O)[n-]c2O)cc(C)n1-c1cccc(C(=O)N2CCN(C(C)=O)CC2)c1 (cis-trans isomerization)
C=c1/c(=C/c2[n-]c(=O)[n-]c2O)cc(C)n1-c1cccc(C(=O)N2CCN(C(C)=O)CC2)c1 (3D coordinates assigned)
C=c1/c(=C/c2[n-]c(=O)[n-]c2O)cc(C)n1-c1cccc(C(=O)N2CCN(C(C)=O)CC2)c1 (nonaromatic ring conformer: 130.93525530369155 kcal/mol)

>  <smiles>  (1175) 
C=c1c(=Cc2[nH]c(=O)[nH]c2O)cc(C)n1-c1cccc(C(=O)N2CCN(C(C)=O)CC2)c1

>  <score_type>  (1175) 
oracle

>  <origin>  (1175) 
adg

>  <m_score__min__energy>  (1175) 
-14.949999999999999

>  <m_primary>  (1175) 
energy

$$$$
21:0
     RDKit          3D

 28 30  0  0  0  0  0  0  0  0999 V2000
   58.7610   25.5160   45.7100 C   0  0  0  0  0  0  0  0  0  0  0  0
   58.4480   26.8380   45.7100 N   0  0  0  0  0  0  0  0  0  0  0  0
   57.1720   27.2920   45.8560 C   0  0  0  0  0  0  0  0  0  0  0  0
   56.9880   28.5840   45.8510 N   0  0  0  0  0  0  0  0  0  0  0  0
   56.3430   29.4040   44.8630 C   0  0  0  0  0  0  0  0  0  0  0  0
   55.1540   29.1530   44.5210 O   0  0  0  0  0  0  0  0  0  0  0  0
   57.0270   30.6070   44.3370 C   0  0  0  0  0  0  0  0  0  0  0  0
   56.9980   30.9010   42.9610 C   0  0  0  0  0  0  0  0  0  0  0  0
   57.6440   32.0370   42.4660 C   0  0  0  0  0  0  0  0  0  0  0  0
   58.3230   32.8930   43.3340 C   0  0  0  0  0  0  0  0  0  0  0  0
   58.3600   32.6190   44.7080 C   0  0  0  0  0  0  0  0  0  0  0  0
   59.2000   33.7140   45.8100 S   0  0  0  0  0  0  0  0  0  0  0  0
   58.2710   34.1050   46.9260 O   0  0  0  0  0  0  0  0  0  0  0  0
   59.5870   34.9630   45.0680 O   0  0  0  0  0  0  0  0  0  0  0  0
   60.6350   32.9700   46.4790 N   0  0  0  0  0  0  0  0  0  0  0  0
   61.7940   33.8770   46.3430 C   0  0  0  0  0  0  0  0  0  0  0  0
   62.9270   33.5120   47.3070 C   0  0  0  0  0  0  0  0  0  0  0  0
   62.4390   33.5500   48.6920 N   0  0  0  0  0  0  0  0  0  0  0  0
   63.3630   33.8060   49.7710 C   0  0  0  0  0  0  0  0  0  0  0  0
   64.6050   33.7250   49.5660 O   0  0  0  0  0  0  0  0  0  0  0  0
   62.8840   34.1420   51.1500 C   0  0  0  0  0  0  0  0  0  0  0  0
   61.0080   33.3450   48.9470 C   0  0  0  0  0  0  0  0  0  0  0  0
   60.3950   32.4610   47.8510 C   0  0  0  0  0  0  0  0  0  0  0  0
   57.7200   31.4730   45.2030 C   0  0  0  0  0  0  0  0  0  0  0  0
   56.1210   26.3440   45.9650 C   0  0  0  0  0  0  0  0  0  0  0  0
   54.7810   26.7120   46.0000 O   0  0  0  0  0  0  0  0  0  0  0  0
   56.4340   24.9810   45.9840 C   0  0  0  0  0  0  0  0  0  0  0  0
   57.7560   24.5610   45.8590 C   0  0  0  0  0  0  0  0  0  0  0  0
  1  2  1  0
  2  3  1  0
  3  4  2  0
  4  5  1  0
  5  6  2  0
  5  7  1  0
  7  8  2  0
  8  9  1  0
  9 10  2  0
 10 11  1  0
 11 12  1  0
 12 13  2  0
 12 14  2  0
 12 15  1  0
 15 16  1  0
 16 17  1  0
 17 18  1  0
 18 19  1  0
 19 20  2  0
 19 21  1  0
 18 22  1  0
 22 23  1  0
 11 24  2  0
  3 25  1  0
 25 26  1  0
 25 27  2  0
 27 28  1  0
 28  1  2  0
 24  7  1  0
 23 15  1  0
M  CHG  2   2  -1  26  -1
M  END
>  <UniqueID>  (1176) 
21

>  <SMILES>  (1176) 
CC(=O)N1CCN(S(=O)(=O)c2cccc(C(=O)/N=c3/[n-]cccc3[O-])c2)CC1

>  <Energy>  (1176) 
64.48820488905172

>  <Genealogy>  (1176) 
CC(=O)N1CCN(S(=O)(=O)c2cccc(C(=O)N=c3[n-]cccc3[O-])c2)CC1 (protonated)
CC(=O)N1CCN(S(=O)(=O)c2cccc(C(=O)/N=c3/[n-]cccc3[O-])c2)CC1 (cis-trans isomerization)
CC(=O)N1CCN(S(=O)(=O)c2cccc(C(=O)/N=c3/[n-]cccc3[O-])c2)CC1 (3D coordinates assigned)
CC(=O)N1CCN(S(=O)(=O)c2cccc(C(=O)/N=c3/[n-]cccc3[O-])c2)CC1 (nonaromatic ring conformer: 64.48820488905172 kcal/mol)

>  <smiles>  (1176) 
CC(=O)N1CCN(S(=O)(=O)c2cccc(C(=O)N=c3[nH]cccc3O)c2)CC1

>  <score_type>  (1176) 
oracle

>  <origin>  (1176) 
adg

>  <m_score__min__energy>  (1176) 
-15.15

>  <m_primary>  (1176) 
energy

$$$$
60:0
     RDKit          3D

 28 31  0  0  0  0  0  0  0  0999 V2000
   56.5300   29.6030   44.1520 C   0  0  0  0  0  0  0  0  0  0  0  0
   57.6640   29.1570   44.7170 C   0  0  0  0  0  0  0  0  0  0  0  0
   58.1120   27.8280   44.7850 C   0  0  0  0  0  0  0  0  0  0  0  0
   57.4840   26.6680   44.5100 C   0  0  0  0  0  0  0  0  0  0  0  0
   56.9810   25.7080   45.5030 C   0  0  0  0  0  0  0  0  0  0  0  0
   57.7210   24.7080   46.0120 N   0  0  0  0  0  0  0  0  0  0  0  0
   56.9180   24.1750   46.9590 C   0  0  0  0  0  0  0  0  0  0  0  0
   57.2590   23.1870   47.6580 O   0  0  0  0  0  0  0  0  0  0  0  0
   55.7260   24.7930   47.1060 N   0  0  0  0  0  0  0  0  0  0  0  0
   55.7870   25.7700   46.1880 C   0  0  0  0  0  0  0  0  0  0  0  0
   54.7870   26.7160   46.0000 O   0  0  0  0  0  0  0  0  0  0  0  0
   59.4220   27.8830   45.2310 C   0  0  0  0  0  0  0  0  0  0  0  0
   59.7030   29.2090   45.4860 C   0  0  0  0  0  0  0  0  0  0  0  0
   61.0120   29.7150   46.0130 C   0  0  0  0  0  0  0  0  0  0  0  0
   58.6400   29.9840   45.1750 N   0  0  0  0  0  0  0  0  0  0  0  0
   58.5810   31.4160   45.2970 C   0  0  0  0  0  0  0  0  0  0  0  0
   57.8490   32.1770   44.3740 C   0  0  0  0  0  0  0  0  0  0  0  0
   57.7880   33.5660   44.5000 C   0  0  0  0  0  0  0  0  0  0  0  0
   58.4650   34.2060   45.5420 C   0  0  0  0  0  0  0  0  0  0  0  0
   59.2200   33.4590   46.4610 C   0  0  0  0  0  0  0  0  0  0  0  0
   59.9200   34.1400   47.5680 C   0  0  0  0  0  0  0  0  0  0  0  0
   59.2930   34.9900   48.2550 O   0  0  0  0  0  0  0  0  0  0  0  0
   61.2980   33.8570   47.8750 N   0  0  0  0  0  0  0  0  0  0  0  0
   61.9010   34.1980   49.1530 C   0  0  0  0  0  0  0  0  0  0  0  0
   63.4070   34.1120   48.9370 C   0  0  0  0  0  0  0  0  0  0  0  0
   63.6040   33.3550   47.6280 C   0  0  0  0  0  0  0  0  0  0  0  0
   62.2820   33.4590   46.8800 C   0  0  0  0  0  0  0  0  0  0  0  0
   59.2570   32.0610   46.3420 C   0  0  0  0  0  0  0  0  0  0  0  0
  1  2  2  0
  2  3  1  0
  3  4  2  3
  4  5  1  0
  5  6  1  0
  6  7  1  0
  7  8  2  0
  7  9  1  0
  9 10  1  0
 10 11  1  0
  3 12  1  0
 12 13  2  0
 13 14  1  0
 13 15  1  0
 15 16  1  0
 16 17  2  0
 17 18  1  0
 18 19  2  0
 19 20  1  0
 20 21  1  0
 21 22  2  0
 21 23  1  0
 23 24  1  0
 24 25  1  0
 25 26  1  0
 26 27  1  0
 20 28  2  0
 15  2  1  0
 28 16  1  0
 10  5  2  0
 27 23  1  0
M  CHG  3   6  -1   9  -1  11  -1
M  END
>  <UniqueID>  (1177) 
57

>  <SMILES>  (1177) 
C=c1c(=Cc2[n-]c(=O)[n-]c2[O-])cc(C)n1-c1cccc(C(=O)N2CCCC2)c1

>  <Energy>  (1177) 
129.7678205365689

>  <Genealogy>  (1177) 
C=c1c(=Cc2[n-]c(=O)[n-]c2[O-])cc(C)n1-c1cccc(C(=O)N2CCCC2)c1 (protonated)
C=c1c(=Cc2[n-]c(=O)[n-]c2[O-])cc(C)n1-c1cccc(C(=O)N2CCCC2)c1 (3D coordinates assigned)
C=c1c(=Cc2[n-]c(=O)[n-]c2[O-])cc(C)n1-c1cccc(C(=O)N2CCCC2)c1 (nonaromatic ring conformer: 129.7678205365689 kcal/mol)

>  <smiles>  (1177) 
C=c1c(=Cc2[nH]c(=O)[nH]c2O)cc(C)n1-c1cccc(C(=O)N2CCCC2)c1

>  <score_type>  (1177) 
oracle

>  <origin>  (1177) 
adg

>  <m_score__min__energy>  (1177) 
-17.100000000000001

>  <m_primary>  (1177) 
energy

$$$$
68:0
     RDKit          3D

 28 31  0  0  0  0  0  0  0  0999 V2000
   54.6280   28.2560   53.2060 C   0  0  0  0  0  0  0  0  0  0  0  0
   54.9180   29.4570   52.6800 C   0  0  0  0  0  0  0  0  0  0  0  0
   54.0060   30.4320   52.2420 C   0  0  0  0  0  0  0  0  0  0  0  0
   52.6750   30.3720   52.0420 C   0  0  0  0  0  0  0  0  0  0  0  0
   51.9670   30.8230   50.8350 C   0  0  0  0  0  0  0  0  0  0  0  0
   51.8180   30.0650   49.7350 N   0  0  0  0  0  0  0  0  0  0  0  0
   51.0120   30.8130   48.9480 C   0  0  0  0  0  0  0  0  0  0  0  0
   50.6500   30.4410   47.8020 O   0  0  0  0  0  0  0  0  0  0  0  0
   50.6160   31.9840   49.4920 N   0  0  0  0  0  0  0  0  0  0  0  0
   51.2170   31.9680   50.6920 C   0  0  0  0  0  0  0  0  0  0  0  0
   51.0570   32.9650   51.6470 O   0  0  0  0  0  0  0  0  0  0  0  0
   54.7470   31.5810   52.0160 C   0  0  0  0  0  0  0  0  0  0  0  0
   56.0670   31.2580   52.2470 C   0  0  0  0  0  0  0  0  0  0  0  0
   57.2140   32.2120   52.0980 C   0  0  0  0  0  0  0  0  0  0  0  0
   56.1740   29.9710   52.6490 N   0  0  0  0  0  0  0  0  0  0  0  0
   57.3970   29.3000   53.0050 C   0  0  0  0  0  0  0  0  0  0  0  0
   58.4740   29.2640   52.1130 C   0  0  0  0  0  0  0  0  0  0  0  0
   59.6550   28.5940   52.4570 C   0  0  0  0  0  0  0  0  0  0  0  0
   60.8070   28.5760   51.4900 C   0  0  0  0  0  0  0  0  0  0  0  0
   59.7470   27.9930   53.7300 C   0  0  0  0  0  0  0  0  0  0  0  0
   60.9420   27.3210   54.1470 N   0  0  0  0  0  0  0  0  0  0  0  0
   61.9760   28.0550   54.8770 C   0  0  0  0  0  0  0  0  0  0  0  0
   63.3740   27.7930   54.2750 C   0  0  0  0  0  0  0  0  0  0  0  0
   63.5060   26.4910   53.5890 N   0  0  0  0  0  0  0  0  0  0  0  0
   62.5740   25.4790   54.1010 C   0  0  0  0  0  0  0  0  0  0  0  0
   61.1280   25.9030   53.8270 C   0  0  0  0  0  0  0  0  0  0  0  0
   58.6800   28.0350   54.5780 N   0  0  0  0  0  0  0  0  0  0  0  0
   57.5230   28.6670   54.2450 C   0  0  0  0  0  0  0  0  0  0  0  0
  1  2  2  0
  2  3  1  0
  3  4  2  0
  4  5  1  0
  5  6  1  0
  6  7  1  0
  7  8  2  0
  7  9  1  0
  9 10  1  0
 10 11  1  0
  3 12  1  0
 12 13  2  0
 13 14  1  0
 13 15  1  0
 15 16  1  0
 16 17  2  0
 17 18  1  0
 18 19  1  0
 18 20  2  0
 20 21  1  0
 21 22  1  0
 22 23  1  0
 23 24  1  0
 24 25  1  0
 25 26  1  0
 20 27  1  0
 27 28  2  0
 15  2  1  0
 28 16  1  0
 10  5  2  0
 26 21  1  0
M  CHG  4   6  -1   9  -1  11  -1  27   1
M  END
>  <UniqueID>  (1178) 
63

>  <SMILES>  (1178) 
C=c1/c(=C\c2[n-]c(=O)[n-]c2[O-])cc(C)n1-c1c[nH+]c(N2CCNCC2)c(C)c1

>  <Energy>  (1178) 
137.96137880014047

>  <Genealogy>  (1178) 
C=c1c(=Cc2[n-]c(=O)[n-]c2[O-])cc(C)n1-c1c[nH+]c(N2CCNCC2)c(C)c1 (protonated)
C=c1/c(=C\c2[n-]c(=O)[n-]c2[O-])cc(C)n1-c1c[nH+]c(N2CCNCC2)c(C)c1 (cis-trans isomerization)
C=c1/c(=C\c2[n-]c(=O)[n-]c2[O-])cc(C)n1-c1c[nH+]c(N2CCNCC2)c(C)c1 (3D coordinates assigned)
C=c1/c(=C\c2[n-]c(=O)[n-]c2[O-])cc(C)n1-c1c[nH+]c(N2CCNCC2)c(C)c1 (nonaromatic ring conformer: 137.96137880014047 kcal/mol)

>  <smiles>  (1178) 
C=c1c(=Cc2[nH]c(=O)[nH]c2O)cc(C)n1-c1cnc(N2CCNCC2)c(C)c1

>  <score_type>  (1178) 
oracle

>  <origin>  (1178) 
adg

>  <m_score__min__energy>  (1178) 
-14.699999999999999

>  <m_primary>  (1178) 
energy

$$$$
77:0
     RDKit          3D

 31 34  0  0  0  0  0  0  0  0999 V2000
   56.8390   26.6330   45.2550 O   0  0  0  0  0  0  0  0  0  0  0  0
   57.8610   27.1240   44.6990 C   0  0  0  0  0  0  0  0  0  0  0  0
   57.7180   28.0160   43.5040 C   0  0  0  0  0  0  0  0  0  0  0  0
   57.3640   29.4190   43.9080 C   0  0  0  0  0  0  0  0  0  0  0  0
   58.3700   30.7630   43.7370 S   0  0  0  0  0  0  0  0  0  0  0  0
   57.2460   31.7930   44.4500 C   0  0  0  0  0  0  0  0  0  0  0  0
   57.4230   33.0270   44.6130 O   0  0  0  0  0  0  0  0  0  0  0  0
   56.1190   31.1540   44.8310 N   0  0  0  0  0  0  0  0  0  0  0  0
   56.1880   29.8300   44.5330 C   0  0  0  0  0  0  0  0  0  0  0  0
   55.1470   28.9570   44.8390 O   0  0  0  0  0  0  0  0  0  0  0  0
   59.1690   26.7680   45.1530 N   0  0  0  0  0  0  0  0  0  0  0  0
   59.5310   26.7180   46.5610 C   0  0  0  0  0  0  0  0  0  0  0  0
   59.6520   28.1160   47.0930 C   0  0  0  0  0  0  0  0  0  0  0  0
   59.7920   29.1970   46.2080 C   0  0  0  0  0  0  0  0  0  0  0  0
   59.8480   30.5060   46.6940 C   0  0  0  0  0  0  0  0  0  0  0  0
   59.7480   30.7540   48.0720 C   0  0  0  0  0  0  0  0  0  0  0  0
   59.7610   32.1650   48.6000 C   0  0  0  0  0  0  0  0  0  0  0  0
   61.1010   32.7670   48.4390 N   0  0  0  0  0  0  0  0  0  0  0  0
   62.1750   31.7400   48.3570 C   0  0  0  0  0  0  0  0  0  0  0  0
   63.1060   31.7100   49.5780 C   0  0  0  0  0  0  0  0  0  0  0  0
   63.6320   33.0530   49.8540 N   0  0  0  0  0  0  0  0  0  0  0  0
   64.9310   33.2460   50.4550 C   0  0  0  0  0  0  0  0  0  0  0  0
   65.1130   34.1120   51.5510 C   0  0  0  0  0  0  0  0  0  0  0  0
   66.3870   34.2670   52.1030 C   0  0  0  0  0  0  0  0  0  0  0  0
   67.4680   33.5740   51.5620 C   0  0  0  0  0  0  0  0  0  0  0  0
   67.2610   32.7350   50.4660 C   0  0  0  0  0  0  0  0  0  0  0  0
   66.0130   32.5920   49.9440 N   0  0  0  0  0  0  0  0  0  0  0  0
   62.7980   34.2190   49.5450 C   0  0  0  0  0  0  0  0  0  0  0  0
   61.3250   33.8110   49.4630 C   0  0  0  0  0  0  0  0  0  0  0  0
   59.5960   29.6740   48.9560 C   0  0  0  0  0  0  0  0  0  0  0  0
   59.5460   28.3640   48.4700 C   0  0  0  0  0  0  0  0  0  0  0  0
  1  2  2  0
  2  3  1  0
  3  4  1  0
  4  5  1  0
  5  6  1  0
  6  7  2  0
  6  8  1  0
  8  9  1  0
  9 10  1  0
  2 11  1  0
 11 12  1  0
 12 13  1  0
 13 14  2  0
 14 15  1  0
 15 16  2  0
 16 17  1  0
 17 18  1  0
 18 19  1  0
 19 20  1  0
 20 21  1  0
 21 22  1  0
 22 23  2  0
 23 24  1  0
 24 25  2  0
 25 26  1  0
 26 27  2  0
 21 28  1  0
 28 29  1  0
 16 30  1  0
 30 31  2  0
  9  4  2  0
 31 13  1  0
 29 18  1  0
 27 22  1  0
M  CHG  3   8  -1  10  -1  11  -1
M  END
>  <UniqueID>  (1179) 
71

>  <SMILES>  (1179) 
O=C(Cc1sc(=O)[n-]c1[O-])[N-]Cc1ccc(CN2CCN(c3ccccn3)CC2)cc1

>  <Energy>  (1179) 
93.21259068642755

>  <Genealogy>  (1179) 
O=C(Cc1sc(=O)[n-]c1[O-])[N-]Cc1ccc(CN2CCN(c3ccccn3)CC2)cc1 (protonated)
O=C(Cc1sc(=O)[n-]c1[O-])[N-]Cc1ccc(CN2CCN(c3ccccn3)CC2)cc1 (3D coordinates assigned)
O=C(Cc1sc(=O)[n-]c1[O-])[N-]Cc1ccc(CN2CCN(c3ccccn3)CC2)cc1 (nonaromatic ring conformer: 93.21259068642755 kcal/mol)

>  <smiles>  (1179) 
O=C(Cc1sc(=O)[nH]c1O)NCc1ccc(CN2CCN(c3ccccn3)CC2)cc1

>  <score_type>  (1179) 
oracle

>  <origin>  (1179) 
adg

>  <m_score__min__energy>  (1179) 
-17.949999999999999

>  <m_primary>  (1179) 
energy

$$$$
79:0
     RDKit          3D

 26 28  0  0  0  0  0  0  0  0999 V2000
   53.2410   22.2410   45.6730 N   0  0  0  0  0  0  0  0  0  0  0  0
   54.0250   23.5480   44.8610 S   0  0  0  0  0  0  0  0  0  0  0  0
   53.4530   23.7010   43.4780 O   0  0  0  0  0  0  0  0  0  0  0  0
   53.7880   24.8210   45.6240 O   0  0  0  0  0  0  0  0  0  0  0  0
   55.7510   23.2180   44.7540 C   0  0  0  0  0  0  0  0  0  0  0  0
   56.2190   22.2350   43.8710 C   0  0  0  0  0  0  0  0  0  0  0  0
   57.5860   21.9610   43.7860 C   0  0  0  0  0  0  0  0  0  0  0  0
   58.4920   22.6540   44.5950 C   0  0  0  0  0  0  0  0  0  0  0  0
   58.0330   23.6260   45.5000 C   0  0  0  0  0  0  0  0  0  0  0  0
   58.9310   24.3800   46.3280 N   0  0  0  0  0  0  0  0  0  0  0  0
   59.4220   25.6990   46.0600 C   0  0  0  0  0  0  0  0  0  0  0  0
   60.4390   26.1440   46.6570 O   0  0  0  0  0  0  0  0  0  0  0  0
   58.7070   26.5660   45.0730 C   0  0  0  0  0  0  0  0  0  0  0  0
   57.4420   27.1530   45.7000 C   0  0  0  0  0  0  0  0  0  0  0  0
   57.4540   28.6480   45.6110 C   0  0  0  0  0  0  0  0  0  0  0  0
   58.7940   29.6260   45.8940 S   0  0  0  0  0  0  0  0  0  0  0  0
   57.9620   31.0390   45.4980 C   0  0  0  0  0  0  0  0  0  0  0  0
   58.5320   32.3560   45.5100 N   0  0  0  0  0  0  0  0  0  0  0  0
   58.0620   33.4430   44.6720 C   0  0  0  0  0  0  0  0  0  0  0  0
   59.0440   34.5850   44.9020 C   0  0  0  0  0  0  0  0  0  0  0  0
   59.7960   34.2400   46.1860 C   0  0  0  0  0  0  0  0  0  0  0  0
   59.6250   32.7400   46.3840 C   0  0  0  0  0  0  0  0  0  0  0  0
   56.6830   30.7890   45.1340 N   0  0  0  0  0  0  0  0  0  0  0  0
   56.4010   29.4610   45.1950 C   0  0  0  0  0  0  0  0  0  0  0  0
   55.1480   28.9650   44.8570 O   0  0  0  0  0  0  0  0  0  0  0  0
   56.6620   23.9160   45.5600 C   0  0  0  0  0  0  0  0  0  0  0  0
  1  2  1  0
  2  3  2  0
  2  4  2  0
  2  5  1  0
  5  6  2  0
  6  7  1  0
  7  8  2  0
  8  9  1  0
  9 10  1  0
 10 11  1  0
 11 12  2  0
 11 13  1  0
 13 14  1  0
 14 15  1  0
 15 16  1  0
 16 17  1  0
 17 18  1  0
 18 19  1  0
 19 20  1  0
 20 21  1  0
 21 22  1  0
 17 23  2  0
 23 24  1  0
 24 25  1  0
  9 26  2  0
 26  5  1  0
 24 15  2  0
 22 18  1  0
M  CHG  3   1  -1  10  -1  25  -1
M  END
>  <UniqueID>  (1180) 
73

>  <SMILES>  (1180) 
[NH-]S(=O)(=O)c1cccc([N-]C(=O)CCc2sc(N3CCCC3)nc2[O-])c1

>  <Energy>  (1180) 
71.62042173914898

>  <Genealogy>  (1180) 
[NH-]S(=O)(=O)c1cccc([N-]C(=O)CCc2sc(N3CCCC3)nc2[O-])c1 (protonated)
[NH-]S(=O)(=O)c1cccc([N-]C(=O)CCc2sc(N3CCCC3)nc2[O-])c1 (3D coordinates assigned)
[NH-]S(=O)(=O)c1cccc([N-]C(=O)CCc2sc(N3CCCC3)nc2[O-])c1 (nonaromatic ring conformer: 71.62042173914898 kcal/mol)

>  <smiles>  (1180) 
NS(=O)(=O)c1cccc(NC(=O)CCc2sc(N3CCCC3)nc2O)c1

>  <score_type>  (1180) 
oracle

>  <origin>  (1180) 
adg

>  <m_score__min__energy>  (1180) 
-16

>  <m_primary>  (1180) 
energy

$$$$
86:0
     RDKit          3D

 26 28  0  0  0  0  0  0  0  0999 V2000
   58.6750   28.4190   47.3320 C   0  0  0  0  0  0  0  0  0  0  0  0
   58.1420   28.8370   46.1710 C   0  0  0  0  0  0  0  0  0  0  0  0
   57.7590   28.0240   45.0950 C   0  0  0  0  0  0  0  0  0  0  0  0
   57.8550   26.6780   45.0210 C   0  0  0  0  0  0  0  0  0  0  0  0
   57.2210   25.7170   45.9510 C   0  0  0  0  0  0  0  0  0  0  0  0
   57.8070   24.6310   46.4880 N   0  0  0  0  0  0  0  0  0  0  0  0
   56.8190   24.0640   47.2140 C   0  0  0  0  0  0  0  0  0  0  0  0
   56.9870   23.0090   47.8780 O   0  0  0  0  0  0  0  0  0  0  0  0
   55.6360   24.7140   47.1650 N   0  0  0  0  0  0  0  0  0  0  0  0
   55.9080   25.7530   46.3590 C   0  0  0  0  0  0  0  0  0  0  0  0
   54.9720   26.7150   46.0020 O   0  0  0  0  0  0  0  0  0  0  0  0
   57.2930   28.8850   44.1100 C   0  0  0  0  0  0  0  0  0  0  0  0
   57.4070   30.1650   44.6120 C   0  0  0  0  0  0  0  0  0  0  0  0
   57.0210   31.4070   43.8670 C   0  0  0  0  0  0  0  0  0  0  0  0
   57.9020   30.1400   45.8710 N   0  0  0  0  0  0  0  0  0  0  0  0
   58.2000   31.3200   46.6980 C   0  0  0  0  0  0  0  0  0  0  0  0
   59.3720   32.1010   46.1040 C   0  0  0  0  0  0  0  0  0  0  0  0
   58.9440   33.4560   45.7490 N   0  0  0  0  0  0  0  0  0  0  0  0
   59.7640   34.6100   46.7560 S   0  0  0  0  0  0  0  0  0  0  0  0
   60.0180   35.8640   45.9680 O   0  0  0  0  0  0  0  0  0  0  0  0
   58.9060   34.9540   47.9420 O   0  0  0  0  0  0  0  0  0  0  0  0
   61.2990   33.9630   47.3090 C   0  0  0  0  0  0  0  0  0  0  0  0
   61.5430   33.4080   48.5560 C   0  0  0  0  0  0  0  0  0  0  0  0
   62.8520   32.9330   48.6930 C   0  0  0  0  0  0  0  0  0  0  0  0
   63.6310   33.1100   47.5560 C   0  0  0  0  0  0  0  0  0  0  0  0
   62.6910   33.8550   46.3770 S   0  0  0  0  0  0  0  0  0  0  0  0
  1  2  2  0
  2  3  1  0
  3  4  2  3
  4  5  1  0
  5  6  1  0
  6  7  1  0
  7  8  2  0
  7  9  1  0
  9 10  1  0
 10 11  1  0
  3 12  1  0
 12 13  2  0
 13 14  1  0
 13 15  1  0
 15 16  1  0
 16 17  1  0
 17 18  1  0
 18 19  1  0
 19 20  2  0
 19 21  2  0
 19 22  1  0
 22 23  2  0
 23 24  1  0
 24 25  2  0
 25 26  1  0
 15  2  1  0
 26 22  1  0
 10  5  2  0
M  CHG  3   6  -1   9  -1  11  -1
M  END
>  <UniqueID>  (1181) 
80

>  <SMILES>  (1181) 
C=c1c(=Cc2[n-]c(=O)[n-]c2[O-])cc(C)n1CCNS(=O)(=O)c1cccs1

>  <Energy>  (1181) 
125.38015801110002

>  <Genealogy>  (1181) 
C=c1c(=Cc2[n-]c(=O)[n-]c2[O-])cc(C)n1CCNS(=O)(=O)c1cccs1 (protonated)
C=c1c(=Cc2[n-]c(=O)[n-]c2[O-])cc(C)n1CCNS(=O)(=O)c1cccs1 (3D coordinates assigned)
C=c1c(=Cc2[n-]c(=O)[n-]c2[O-])cc(C)n1CCNS(=O)(=O)c1cccs1 (optimized conformer: 125.38015801110002 kcal/mol)

>  <smiles>  (1181) 
C=c1c(=Cc2[nH]c(=O)[nH]c2O)cc(C)n1CCNS(=O)(=O)c1cccs1

>  <score_type>  (1181) 
oracle

>  <origin>  (1181) 
adg

>  <m_score__min__energy>  (1181) 
-16.379999999999999

>  <m_primary>  (1181) 
energy

$$$$
88:0
     RDKit          3D

 27 30  0  0  0  0  0  0  0  0999 V2000
   59.9940   29.3410   47.2130 C   0  0  0  0  0  0  0  0  0  0  0  0
   59.2650   29.7680   46.1700 C   0  0  0  0  0  0  0  0  0  0  0  0
   58.6520   28.9760   45.1850 C   0  0  0  0  0  0  0  0  0  0  0  0
   58.4500   27.6460   45.1180 C   0  0  0  0  0  0  0  0  0  0  0  0
   57.2740   26.9290   45.6330 C   0  0  0  0  0  0  0  0  0  0  0  0
   57.3030   25.6480   46.0410 N   0  0  0  0  0  0  0  0  0  0  0  0
   56.0060   25.3740   46.3020 C   0  0  0  0  0  0  0  0  0  0  0  0
   55.6230   24.2540   46.7290 O   0  0  0  0  0  0  0  0  0  0  0  0
   55.1510   26.3890   46.0570 N   0  0  0  0  0  0  0  0  0  0  0  0
   55.9660   27.3620   45.6210 C   0  0  0  0  0  0  0  0  0  0  0  0
   55.5230   28.6070   45.1920 O   0  0  0  0  0  0  0  0  0  0  0  0
   58.2310   29.8480   44.1940 C   0  0  0  0  0  0  0  0  0  0  0  0
   58.5290   31.1220   44.6280 C   0  0  0  0  0  0  0  0  0  0  0  0
   58.2220   32.3750   43.8630 C   0  0  0  0  0  0  0  0  0  0  0  0
   59.1570   31.0760   45.8250 N   0  0  0  0  0  0  0  0  0  0  0  0
   59.6370   32.2130   46.5660 C   0  0  0  0  0  0  0  0  0  0  0  0
   58.7370   33.1580   47.0770 C   0  0  0  0  0  0  0  0  0  0  0  0
   59.2080   34.2600   47.7940 C   0  0  0  0  0  0  0  0  0  0  0  0
   60.5790   34.4210   48.0140 C   0  0  0  0  0  0  0  0  0  0  0  0
   61.4940   33.4740   47.5240 C   0  0  0  0  0  0  0  0  0  0  0  0
   62.9470   33.6310   47.7450 C   0  0  0  0  0  0  0  0  0  0  0  0
   63.6450   34.2190   46.8770 O   0  0  0  0  0  0  0  0  0  0  0  0
   63.5930   33.0890   48.9000 N   0  0  0  0  0  0  0  0  0  0  0  0
   63.2910   32.1880   50.0290 C   0  0  0  0  0  0  0  0  0  0  0  0
   64.6890   32.1010   50.5420 C   0  0  0  0  0  0  0  0  0  0  0  0
   64.9780   33.0170   49.4000 C   0  0  0  0  0  0  0  0  0  0  0  0
   61.0130   32.3770   46.7880 C   0  0  0  0  0  0  0  0  0  0  0  0
  1  2  2  0
  2  3  1  0
  3  4  2  3
  4  5  1  0
  5  6  1  0
  6  7  1  0
  7  8  2  0
  7  9  1  0
  9 10  1  0
 10 11  1  0
  3 12  1  0
 12 13  2  0
 13 14  1  0
 13 15  1  0
 15 16  1  0
 16 17  2  0
 17 18  1  0
 18 19  2  0
 19 20  1  0
 20 21  1  0
 21 22  2  0
 21 23  1  0
 23 24  1  0
 24 25  1  0
 25 26  1  0
 20 27  2  0
 15  2  1  0
 27 16  1  0
 10  5  2  0
 26 23  1  0
M  CHG  3   6  -1   9  -1  11  -1
M  END
>  <UniqueID>  (1182) 
82

>  <SMILES>  (1182) 
C=c1c(=Cc2[n-]c(=O)[n-]c2[O-])cc(C)n1-c1cccc(C(=O)N2CCC2)c1

>  <Energy>  (1182) 
168.95107455810472

>  <Genealogy>  (1182) 
C=c1c(=Cc2[n-]c(=O)[n-]c2[O-])cc(C)n1-c1cccc(C(=O)N2CCC2)c1 (protonated)
C=c1c(=Cc2[n-]c(=O)[n-]c2[O-])cc(C)n1-c1cccc(C(=O)N2CCC2)c1 (3D coordinates assigned)
C=c1c(=Cc2[n-]c(=O)[n-]c2[O-])cc(C)n1-c1cccc(C(=O)N2CCC2)c1 (nonaromatic ring conformer: 168.95107455810472 kcal/mol)

>  <smiles>  (1182) 
C=c1c(=Cc2[nH]c(=O)[nH]c2O)cc(C)n1-c1cccc(C(=O)N2CCC2)c1

>  <score_type>  (1182) 
oracle

>  <origin>  (1182) 
adg

>  <m_score__min__energy>  (1182) 
-16.449999999999999

>  <m_primary>  (1182) 
energy

$$$$
91:0
     RDKit          3D

 27 29  0  0  0  0  0  0  0  0999 V2000
   55.5970   28.5630   54.1170 C   0  0  0  0  0  0  0  0  0  0  0  0
   55.4660   30.0820   54.1830 C   0  0  0  0  0  0  0  0  0  0  0  0
   54.7870   30.5940   52.9830 N   0  0  0  0  0  0  0  0  0  0  0  0
   55.4740   31.6060   52.1690 C   0  0  0  0  0  0  0  0  0  0  0  0
   56.7220   31.0310   51.5800 C   0  0  0  0  0  0  0  0  0  0  0  0
   57.0570   29.7310   51.6710 N   0  0  0  0  0  0  0  0  0  0  0  0
   58.1880   29.5870   51.0050 N   0  0  0  0  0  0  0  0  0  0  0  0
   58.5000   30.8000   50.5120 C   0  0  0  0  0  0  0  0  0  0  0  0
   59.7450   31.0820   49.7350 C   0  0  0  0  0  0  0  0  0  0  0  0
   59.5250   32.2570   48.8220 C   0  0  0  0  0  0  0  0  0  0  0  0
   60.2300   33.4550   49.0290 C   0  0  0  0  0  0  0  0  0  0  0  0
   60.0010   34.5590   48.2010 C   0  0  0  0  0  0  0  0  0  0  0  0
   59.0600   34.4770   47.1700 C   0  0  0  0  0  0  0  0  0  0  0  0
   58.3450   33.2930   46.9670 C   0  0  0  0  0  0  0  0  0  0  0  0
   57.4280   33.2180   45.9720 F   0  0  0  0  0  0  0  0  0  0  0  0
   58.5720   32.1870   47.7930 C   0  0  0  0  0  0  0  0  0  0  0  0
   57.6040   31.7450   50.8550 N   0  0  0  0  0  0  0  0  0  0  0  0
   53.4690   30.1380   52.5930 C   0  0  0  0  0  0  0  0  0  0  0  0
   53.2850   28.9130   52.3500 O   0  0  0  0  0  0  0  0  0  0  0  0
   52.2860   31.0790   52.5430 C   0  0  0  0  0  0  0  0  0  0  0  0
   51.7930   31.2960   51.1410 C   0  0  0  0  0  0  0  0  0  0  0  0
   51.3950   32.4870   50.6610 N   0  0  0  0  0  0  0  0  0  0  0  0
   51.0050   32.1990   49.4000 C   0  0  0  0  0  0  0  0  0  0  0  0
   50.5640   33.0740   48.6100 O   0  0  0  0  0  0  0  0  0  0  0  0
   51.1230   30.8990   49.0520 N   0  0  0  0  0  0  0  0  0  0  0  0
   51.6180   30.3370   50.1660 C   0  0  0  0  0  0  0  0  0  0  0  0
   51.8940   28.9780   50.2840 O   0  0  0  0  0  0  0  0  0  0  0  0
  1  2  1  0
  2  3  1  0
  3  4  1  0
  4  5  1  0
  5  6  2  0
  6  7  1  0
  7  8  1  0
  8  9  1  0
  9 10  1  0
 10 11  2  0
 11 12  1  0
 12 13  2  0
 13 14  1  0
 14 15  1  0
 14 16  2  0
  8 17  2  0
  3 18  1  0
 18 19  2  0
 18 20  1  0
 20 21  1  0
 21 22  1  0
 22 23  1  0
 23 24  2  0
 23 25  1  0
 25 26  1  0
 26 27  1  0
 17  5  1  0
 26 21  2  0
 16 10  1  0
M  CHG  3   7  -1  22  -1  25  -1
M  END
>  <UniqueID>  (1183) 
85

>  <SMILES>  (1183) 
CCN(Cc1n[n-]c(Cc2cccc(F)c2)n1)C(=O)Cc1[n-]c(=O)[n-]c1O

>  <Energy>  (1183) 
98.4860643603485

>  <Genealogy>  (1183) 
CCN(Cc1n[n-]c(Cc2cccc(F)c2)n1)C(=O)Cc1[n-]c(=O)[n-]c1O (protonated)
CCN(Cc1n[n-]c(Cc2cccc(F)c2)n1)C(=O)Cc1[n-]c(=O)[n-]c1O (3D coordinates assigned)
CCN(Cc1n[n-]c(Cc2cccc(F)c2)n1)C(=O)Cc1[n-]c(=O)[n-]c1O (optimized conformer: 98.4860643603485 kcal/mol)

>  <smiles>  (1183) 
CCN(Cc1n[nH]c(Cc2cccc(F)c2)n1)C(=O)Cc1[nH]c(=O)[nH]c1O

>  <score_type>  (1183) 
oracle

>  <origin>  (1183) 
adg

>  <m_score__min__energy>  (1183) 
-14.630000000000001

>  <m_primary>  (1183) 
energy

$$$$
8:0
     RDKit          3D

 26 28  0  0  0  0  0  0  0  0999 V2000
   58.4310   30.4780   47.2470 C   0  0  0  0  0  0  0  0  0  0  0  0
   58.3760   31.2500   46.1500 C   0  0  0  0  0  0  0  0  0  0  0  0
   58.0860   30.8600   44.8340 C   0  0  0  0  0  0  0  0  0  0  0  0
   57.9130   29.6410   44.2830 C   0  0  0  0  0  0  0  0  0  0  0  0
   57.4760   28.4310   45.0040 C   0  0  0  0  0  0  0  0  0  0  0  0
   56.1150   28.1780   45.2440 C   0  0  0  0  0  0  0  0  0  0  0  0
   55.1380   29.0480   44.7740 O   0  0  0  0  0  0  0  0  0  0  0  0
   55.7450   27.0770   45.9470 N   0  0  0  0  0  0  0  0  0  0  0  0
   56.6710   26.2170   46.4410 C   0  0  0  0  0  0  0  0  0  0  0  0
   56.3040   25.2010   47.0860 O   0  0  0  0  0  0  0  0  0  0  0  0
   57.9940   26.4530   46.2450 N   0  0  0  0  0  0  0  0  0  0  0  0
   58.4160   27.5410   45.5480 C   0  0  0  0  0  0  0  0  0  0  0  0
   59.6500   27.7340   45.3900 O   0  0  0  0  0  0  0  0  0  0  0  0
   58.0110   32.0630   44.1380 C   0  0  0  0  0  0  0  0  0  0  0  0
   57.7220   32.2410   42.6800 C   0  0  0  0  0  0  0  0  0  0  0  0
   58.2760   33.0910   44.9630 N   0  0  0  0  0  0  0  0  0  0  0  0
   58.5070   32.6010   46.1710 N   0  0  0  0  0  0  0  0  0  0  0  0
   58.7580   33.4660   47.3270 C   0  0  0  0  0  0  0  0  0  0  0  0
   60.1960   33.3580   47.7630 C   0  0  0  0  0  0  0  0  0  0  0  0
   60.5840   33.8270   49.0290 C   0  0  0  0  0  0  0  0  0  0  0  0
   61.9160   33.7230   49.4430 C   0  0  0  0  0  0  0  0  0  0  0  0
   62.8730   33.1540   48.5940 C   0  0  0  0  0  0  0  0  0  0  0  0
   64.2440   33.0470   49.0200 C   0  0  0  0  0  0  0  0  0  0  0  0
   65.3440   32.9610   49.3630 N   0  0  0  0  0  0  0  0  0  0  0  0
   62.4940   32.6920   47.3270 C   0  0  0  0  0  0  0  0  0  0  0  0
   61.1610   32.7950   46.9130 C   0  0  0  0  0  0  0  0  0  0  0  0
  1  2  2  0
  2  3  1  0
  3  4  2  3
  4  5  1  0
  5  6  2  0
  6  7  1  0
  6  8  1  0
  8  9  1  0
  9 10  2  0
  9 11  1  0
 11 12  1  0
 12 13  2  0
  3 14  1  0
 14 15  1  0
 14 16  2  0
 16 17  1  0
 17 18  1  0
 18 19  1  0
 19 20  2  0
 20 21  1  0
 21 22  2  0
 22 23  1  0
 23 24  3  0
 22 25  1  0
 25 26  2  0
 17  2  1  0
 26 19  1  0
 12  5  1  0
M  CHG  3   7  -1   8  -1  11  -1
M  END
>  <UniqueID>  (1184) 
9

>  <SMILES>  (1184) 
C=c1c(=Cc2c([O-])[n-]c(=O)[n-]c2=O)c(C)nn1Cc1ccc(C#N)cc1

>  <Energy>  (1184) 
85.12248469826805

>  <Genealogy>  (1184) 
C=c1c(=Cc2c([O-])[n-]c(=O)[n-]c2=O)c(C)nn1Cc1ccc(C#N)cc1 (protonated)
C=c1c(=Cc2c([O-])[n-]c(=O)[n-]c2=O)c(C)nn1Cc1ccc(C#N)cc1 (3D coordinates assigned)
C=c1c(=Cc2c([O-])[n-]c(=O)[n-]c2=O)c(C)nn1Cc1ccc(C#N)cc1 (optimized conformer: 85.12248469826805 kcal/mol)

>  <smiles>  (1184) 
C=c1c(=Cc2c(O)[nH]c(=O)[nH]c2=O)c(C)nn1Cc1ccc(C#N)cc1

>  <score_type>  (1184) 
oracle

>  <origin>  (1184) 
adg

>  <m_score__min__energy>  (1184) 
-15.69

>  <m_primary>  (1184) 
energy

$$$$
23:0
     RDKit          3D

 27 29  0  0  0  0  0  0  0  0999 V2000
   59.5020   29.8620   47.1470 C   0  0  0  0  0  0  0  0  0  0  0  0
   58.9350   30.8170   46.3940 C   0  0  0  0  0  0  0  0  0  0  0  0
   58.3000   30.6630   45.1500 C   0  0  0  0  0  0  0  0  0  0  0  0
   57.9540   29.5570   44.4620 C   0  0  0  0  0  0  0  0  0  0  0  0
   57.4200   28.3120   45.0490 C   0  0  0  0  0  0  0  0  0  0  0  0
   56.0420   28.1580   45.2480 C   0  0  0  0  0  0  0  0  0  0  0  0
   55.1540   29.1500   44.8500 O   0  0  0  0  0  0  0  0  0  0  0  0
   55.5620   27.0270   45.8280 N   0  0  0  0  0  0  0  0  0  0  0  0
   56.4000   26.0390   46.2360 C   0  0  0  0  0  0  0  0  0  0  0  0
   55.9330   24.9980   46.7660 O   0  0  0  0  0  0  0  0  0  0  0  0
   57.7410   26.1770   46.0790 N   0  0  0  0  0  0  0  0  0  0  0  0
   58.2710   27.2890   45.5060 C   0  0  0  0  0  0  0  0  0  0  0  0
   59.5220   27.3930   45.3960 O   0  0  0  0  0  0  0  0  0  0  0  0
   58.0390   31.9430   44.6860 C   0  0  0  0  0  0  0  0  0  0  0  0
   58.4610   32.8180   45.6640 C   0  0  0  0  0  0  0  0  0  0  0  0
   58.3630   34.3110   45.5730 C   0  0  0  0  0  0  0  0  0  0  0  0
   59.0090   32.1390   46.6970 N   0  0  0  0  0  0  0  0  0  0  0  0
   59.5780   32.7260   47.8790 C   0  0  0  0  0  0  0  0  0  0  0  0
   58.9280   32.5660   49.1110 C   0  0  0  0  0  0  0  0  0  0  0  0
   59.4630   33.1390   50.2790 C   0  0  0  0  0  0  0  0  0  0  0  0
   58.8470   33.0040   51.5330 O   0  0  0  0  0  0  0  0  0  0  0  0
   57.6390   32.2870   51.7610 C   0  0  0  0  0  0  0  0  0  0  0  0
   60.6510   33.8710   50.1980 C   0  0  0  0  0  0  0  0  0  0  0  0
   61.3060   34.0310   48.9750 C   0  0  0  0  0  0  0  0  0  0  0  0
   60.7780   33.4550   47.8040 C   0  0  0  0  0  0  0  0  0  0  0  0
   61.4170   33.5750   46.5610 O   0  0  0  0  0  0  0  0  0  0  0  0
   62.8160   33.7800   46.3880 C   0  0  0  0  0  0  0  0  0  0  0  0
  1  2  2  0
  2  3  1  0
  3  4  2  3
  4  5  1  0
  5  6  2  0
  6  7  1  0
  6  8  1  0
  8  9  1  0
  9 10  2  0
  9 11  1  0
 11 12  1  0
 12 13  2  0
  3 14  1  0
 14 15  2  0
 15 16  1  0
 15 17  1  0
 17 18  1  0
 18 19  2  0
 19 20  1  0
 20 21  1  0
 21 22  1  0
 20 23  2  0
 23 24  1  0
 24 25  2  0
 25 26  1  0
 26 27  1  0
 17  2  1  0
 25 18  1  0
 12  5  1  0
M  CHG  3   7  -1   8  -1  11  -1
M  END
>  <UniqueID>  (1185) 
24

>  <SMILES>  (1185) 
C=c1c(=Cc2c([O-])[n-]c(=O)[n-]c2=O)cc(C)n1-c1cc(OC)ccc1OC

>  <Energy>  (1185) 
93.06574091037177

>  <Genealogy>  (1185) 
C=c1c(=Cc2c([O-])[n-]c(=O)[n-]c2=O)cc(C)n1-c1cc(OC)ccc1OC (protonated)
C=c1c(=Cc2c([O-])[n-]c(=O)[n-]c2=O)cc(C)n1-c1cc(OC)ccc1OC (3D coordinates assigned)
C=c1c(=Cc2c([O-])[n-]c(=O)[n-]c2=O)cc(C)n1-c1cc(OC)ccc1OC (optimized conformer: 93.06574091037177 kcal/mol)

>  <smiles>  (1185) 
C=c1c(=Cc2c(O)[nH]c(=O)[nH]c2=O)cc(C)n1-c1cc(OC)ccc1OC

>  <score_type>  (1185) 
oracle

>  <origin>  (1185) 
adg

>  <m_score__min__energy>  (1185) 
-15.039999999999999

>  <m_primary>  (1185) 
energy

$$$$
24:0
     RDKit          3D

 34 37  0  0  0  0  0  0  0  0999 V2000
   59.2580   35.2650   48.5520 O   0  0  0  0  0  0  0  0  0  0  0  0
   59.7500   34.2040   48.0810 C   0  0  0  0  0  0  0  0  0  0  0  0
   60.7900   33.5220   48.7990 N   0  0  0  0  0  0  0  0  0  0  0  0
   61.0030   33.7140   50.2300 C   0  0  0  0  0  0  0  0  0  0  0  0
   59.7930   33.2460   50.9910 C   0  0  0  0  0  0  0  0  0  0  0  0
   59.2530   34.0290   52.0250 C   0  0  0  0  0  0  0  0  0  0  0  0
   58.0970   33.6120   52.6920 C   0  0  0  0  0  0  0  0  0  0  0  0
   57.4680   32.4180   52.3270 C   0  0  0  0  0  0  0  0  0  0  0  0
   57.9940   31.6390   51.2930 C   0  0  0  0  0  0  0  0  0  0  0  0
   57.3790   30.4860   50.9330 F   0  0  0  0  0  0  0  0  0  0  0  0
   59.1520   32.0520   50.6250 C   0  0  0  0  0  0  0  0  0  0  0  0
   59.2560   33.6790   46.7890 C   0  0  0  0  0  0  0  0  0  0  0  0
   59.6420   34.2890   45.5830 C   0  0  0  0  0  0  0  0  0  0  0  0
   59.1740   33.8020   44.3580 C   0  0  0  0  0  0  0  0  0  0  0  0
   58.2980   32.7030   44.3210 C   0  0  0  0  0  0  0  0  0  0  0  0
   57.8030   32.1820   43.1110 C   0  0  0  0  0  0  0  0  0  0  0  0
   58.1420   32.6810   42.0030 O   0  0  0  0  0  0  0  0  0  0  0  0
   56.9250   31.0940   43.1320 C   0  0  0  0  0  0  0  0  0  0  0  0
   56.5310   30.5400   44.3610 C   0  0  0  0  0  0  0  0  0  0  0  0
   55.6240   29.3780   44.4120 C   0  0  0  0  0  0  0  0  0  0  0  0
   54.6090   29.3440   43.6670 O   0  0  0  0  0  0  0  0  0  0  0  0
   55.9050   28.2470   45.2450 N   0  0  0  0  0  0  0  0  0  0  0  0
   57.2460   27.8300   45.6460 C   0  0  0  0  0  0  0  0  0  0  0  0
   57.1670   26.7740   46.7540 C   0  0  0  0  0  0  0  0  0  0  0  0
   55.8930   26.0520   46.7130 N   0  0  0  0  0  0  0  0  0  0  0  0
   55.5430   25.1820   45.8140 C   0  0  0  0  0  0  0  0  0  0  0  0
   54.2310   24.8530   45.6820 N   0  0  0  0  0  0  0  0  0  0  0  0
   53.8250   23.9420   44.7600 C   0  0  0  0  0  0  0  0  0  0  0  0
   54.7620   23.3240   43.9340 C   0  0  0  0  0  0  0  0  0  0  0  0
   56.1040   23.6750   44.0740 C   0  0  0  0  0  0  0  0  0  0  0  0
   56.4680   24.5960   45.0040 N   0  0  0  0  0  0  0  0  0  0  0  0
   57.0320   31.0520   45.5160 N   0  0  0  0  0  0  0  0  0  0  0  0
   57.8940   32.1020   45.5330 C   0  0  0  0  0  0  0  0  0  0  0  0
   58.3730   32.5880   46.7530 C   0  0  0  0  0  0  0  0  0  0  0  0
  1  2  2  0
  2  3  1  0
  3  4  1  0
  4  5  1  0
  5  6  2  0
  6  7  1  0
  7  8  2  0
  8  9  1  0
  9 10  1  0
  9 11  2  0
  2 12  1  0
 12 13  2  0
 13 14  1  0
 14 15  2  0
 15 16  1  0
 16 17  2  0
 16 18  1  0
 18 19  2  0
 19 20  1  0
 20 21  2  0
 20 22  1  0
 22 23  1  0
 23 24  1  0
 24 25  1  0
 25 26  2  3
 26 27  1  0
 27 28  2  0
 28 29  1  0
 29 30  2  0
 30 31  1  0
 19 32  1  0
 32 33  1  0
 33 34  2  0
 11  5  1  0
 34 12  1  0
 33 15  1  0
 31 26  1  0
M  CHG  3  22  -1  31  -1  32  -1
M  END
>  <UniqueID>  (1186) 
25

>  <SMILES>  (1186) 
O=C(NCc1cccc(F)c1)c1ccc2c(=O)cc(C(=O)[N-]CCN=c3nccc[n-]3)[n-]c2c1

>  <Energy>  (1186) 
61.84982144339831

>  <Genealogy>  (1186) 
O=C(NCc1cccc(F)c1)c1ccc2c(=O)cc(C(=O)[N-]CCN=c3nccc[n-]3)[n-]c2c1 (protonated)
O=C(NCc1cccc(F)c1)c1ccc2c(=O)cc(C(=O)[N-]CCN=c3nccc[n-]3)[n-]c2c1 (3D coordinates assigned)
O=C(NCc1cccc(F)c1)c1ccc2c(=O)cc(C(=O)[N-]CCN=c3nccc[n-]3)[n-]c2c1 (optimized conformer: 61.84982144339831 kcal/mol)

>  <smiles>  (1186) 
O=C(NCc1cccc(F)c1)c1ccc2c(=O)cc(C(=O)NCCN=c3nccc[nH]3)[nH]c2c1

>  <score_type>  (1186) 
oracle

>  <origin>  (1186) 
adg

>  <m_score__min__energy>  (1186) 
-14.609999999999999

>  <m_primary>  (1186) 
energy

$$$$
34:0
     RDKit          3D

 29 32  0  0  0  0  0  0  0  0999 V2000
   59.1340   28.0240   46.7510 C   0  0  0  0  0  0  0  0  0  0  0  0
   58.4280   28.6600   45.8030 C   0  0  0  0  0  0  0  0  0  0  0  0
   57.6780   28.0610   44.7850 C   0  0  0  0  0  0  0  0  0  0  0  0
   57.5320   26.7440   44.5440 C   0  0  0  0  0  0  0  0  0  0  0  0
   57.0340   25.7720   45.5340 C   0  0  0  0  0  0  0  0  0  0  0  0
   57.7880   24.7830   46.0410 N   0  0  0  0  0  0  0  0  0  0  0  0
   56.9770   24.2030   46.9520 C   0  0  0  0  0  0  0  0  0  0  0  0
   57.3310   23.2110   47.6410 O   0  0  0  0  0  0  0  0  0  0  0  0
   55.7620   24.7780   47.0760 N   0  0  0  0  0  0  0  0  0  0  0  0
   55.8160   25.7780   46.1800 C   0  0  0  0  0  0  0  0  0  0  0  0
   54.7940   26.6990   45.9960 O   0  0  0  0  0  0  0  0  0  0  0  0
   57.1590   29.1000   44.0220 C   0  0  0  0  0  0  0  0  0  0  0  0
   57.5880   30.2740   44.6070 C   0  0  0  0  0  0  0  0  0  0  0  0
   57.2780   31.6450   44.0870 C   0  0  0  0  0  0  0  0  0  0  0  0
   58.3620   30.0100   45.6830 N   0  0  0  0  0  0  0  0  0  0  0  0
   58.9840   30.9910   46.5330 C   0  0  0  0  0  0  0  0  0  0  0  0
   58.9280   30.8540   47.9250 C   0  0  0  0  0  0  0  0  0  0  0  0
   59.5190   31.8120   48.7520 C   0  0  0  0  0  0  0  0  0  0  0  0
   60.1800   32.9280   48.2020 C   0  0  0  0  0  0  0  0  0  0  0  0
   60.7980   33.9380   49.1080 C   0  0  0  0  0  0  0  0  0  0  0  0
   60.0440   34.5960   49.8780 O   0  0  0  0  0  0  0  0  0  0  0  0
   62.2290   34.2010   49.1030 N   0  0  0  0  0  0  0  0  0  0  0  0
   62.8900   33.5340   50.2440 C   0  0  0  0  0  0  0  0  0  0  0  0
   62.9930   32.0010   50.0510 C   0  0  0  0  0  0  0  0  0  0  0  0
   62.7730   31.5840   48.7150 O   0  0  0  0  0  0  0  0  0  0  0  0
   63.4780   32.4190   47.8250 C   0  0  0  0  0  0  0  0  0  0  0  0
   62.8670   33.8340   47.8100 C   0  0  0  0  0  0  0  0  0  0  0  0
   60.2220   33.0620   46.7990 C   0  0  0  0  0  0  0  0  0  0  0  0
   59.6290   32.1010   45.9750 C   0  0  0  0  0  0  0  0  0  0  0  0
  1  2  2  0
  2  3  1  0
  3  4  2  0
  4  5  1  0
  5  6  1  0
  6  7  1  0
  7  8  2  0
  7  9  1  0
  9 10  1  0
 10 11  1  0
  3 12  1  0
 12 13  2  0
 13 14  1  0
 13 15  1  0
 15 16  1  0
 16 17  2  0
 17 18  1  0
 18 19  2  0
 19 20  1  0
 20 21  2  0
 20 22  1  0
 22 23  1  0
 23 24  1  0
 24 25  1  0
 25 26  1  0
 26 27  1  0
 19 28  1  0
 28 29  2  0
 15  2  1  0
 29 16  1  0
 10  5  2  0
 27 22  1  0
M  CHG  4   6  -1   9  -1  11  -1  22   1
M  END
>  <UniqueID>  (1187) 
34

>  <SMILES>  (1187) 
C=c1/c(=C/c2[n-]c(=O)[n-]c2[O-])cc(C)n1-c1ccc(C(=O)[NH+]2CCOCC2)cc1

>  <Energy>  (1187) 
139.85604176936752

>  <Genealogy>  (1187) 
C=c1c(=Cc2[n-]c(=O)[n-]c2[O-])cc(C)n1-c1ccc(C(=O)[NH+]2CCOCC2)cc1 (protonated)
C=c1/c(=C/c2[n-]c(=O)[n-]c2[O-])cc(C)n1-c1ccc(C(=O)[NH+]2CCOCC2)cc1 (cis-trans isomerization)
C=c1/c(=C/c2[n-]c(=O)[n-]c2[O-])cc(C)n1-c1ccc(C(=O)[NH+]2CCOCC2)cc1 (3D coordinates assigned)
C=c1/c(=C/c2[n-]c(=O)[n-]c2[O-])cc(C)n1-c1ccc(C(=O)[NH+]2CCOCC2)cc1 (nonaromatic ring conformer: 139.85604176936752 kcal/mol)

>  <smiles>  (1187) 
C=c1c(=Cc2[nH]c(=O)[nH]c2O)cc(C)n1-c1ccc(C(=O)N2CCOCC2)cc1

>  <score_type>  (1187) 
oracle

>  <origin>  (1187) 
adg

>  <m_score__min__energy>  (1187) 
-14.710000000000001

>  <m_primary>  (1187) 
energy

$$$$
37:0
     RDKit          3D

 28 30  0  0  0  0  0  0  0  0999 V2000
   58.2830   27.2260   46.3280 C   0  0  0  0  0  0  0  0  0  0  0  0
   58.2250   28.1250   45.3260 C   0  0  0  0  0  0  0  0  0  0  0  0
   58.2550   27.7100   43.9400 C   0  0  0  0  0  0  0  0  0  0  0  0
   58.2800   27.3810   42.8310 N   0  0  0  0  0  0  0  0  0  0  0  0
   58.1020   29.5720   45.6330 C   0  0  0  0  0  0  0  0  0  0  0  0
   56.9920   30.1470   45.4840 O   0  0  0  0  0  0  0  0  0  0  0  0
   59.1990   30.3280   46.1650 N   0  0  0  0  0  0  0  0  0  0  0  0
   59.2580   30.9290   47.4670 C   0  0  0  0  0  0  0  0  0  0  0  0
   59.1570   30.1100   48.5960 C   0  0  0  0  0  0  0  0  0  0  0  0
   59.1960   30.6660   49.8790 C   0  0  0  0  0  0  0  0  0  0  0  0
   59.3180   32.0550   50.0490 C   0  0  0  0  0  0  0  0  0  0  0  0
   59.3650   32.6330   51.3680 N   0  0  0  0  0  0  0  0  0  0  0  0
   58.1360   33.1330   51.9940 C   0  0  0  0  0  0  0  0  0  0  0  0
   58.4790   34.2540   52.9790 C   0  0  0  0  0  0  0  0  0  0  0  0
   59.4740   33.8320   53.8930 O   0  0  0  0  0  0  0  0  0  0  0  0
   60.6840   33.5790   53.2030 C   0  0  0  0  0  0  0  0  0  0  0  0
   60.5230   32.4040   52.2350 C   0  0  0  0  0  0  0  0  0  0  0  0
   59.3980   32.8770   48.9130 C   0  0  0  0  0  0  0  0  0  0  0  0
   59.3590   32.3210   47.6310 C   0  0  0  0  0  0  0  0  0  0  0  0
   57.3550   26.0810   46.4880 C   0  0  0  0  0  0  0  0  0  0  0  0
   55.9970   26.2240   46.1570 C   0  0  0  0  0  0  0  0  0  0  0  0
   55.5190   27.4210   45.6330 O   0  0  0  0  0  0  0  0  0  0  0  0
   55.1370   25.1850   46.3360 N   0  0  0  0  0  0  0  0  0  0  0  0
   55.5450   23.9940   46.8460 C   0  0  0  0  0  0  0  0  0  0  0  0
   54.7120   23.0590   46.9920 O   0  0  0  0  0  0  0  0  0  0  0  0
   56.8810   23.8130   47.2140 C   0  0  0  0  0  0  0  0  0  0  0  0
   57.3120   22.6050   47.7510 O   0  0  0  0  0  0  0  0  0  0  0  0
   57.7860   24.8630   47.0400 C   0  0  0  0  0  0  0  0  0  0  0  0
  1  2  2  0
  2  3  1  0
  3  4  3  0
  2  5  1  0
  5  6  2  0
  5  7  1  0
  7  8  1  0
  8  9  2  0
  9 10  1  0
 10 11  2  0
 11 12  1  0
 12 13  1  0
 13 14  1  0
 14 15  1  0
 15 16  1  0
 16 17  1  0
 11 18  1  0
 18 19  2  0
  1 20  1  0
 20 21  2  0
 21 22  1  0
 21 23  1  0
 23 24  1  0
 24 25  2  0
 24 26  1  0
 26 27  1  0
 26 28  2  0
 19  8  1  0
 28 20  1  0
 17 12  1  0
M  CHG  4   7  -1  22  -1  23  -1  27  -1
M  END
>  <UniqueID>  (1188) 
37

>  <SMILES>  (1188) 
N#C/C(=C\c1cc([O-])c(=O)[n-]c1[O-])C(=O)[N-]c1ccc(N2CCOCC2)cc1

>  <Energy>  (1188) 
62.58354695135562

>  <Genealogy>  (1188) 
N#CC(=Cc1cc([O-])c(=O)[n-]c1[O-])C(=O)[N-]c1ccc(N2CCOCC2)cc1 (protonated)
N#C/C(=C\c1cc([O-])c(=O)[n-]c1[O-])C(=O)[N-]c1ccc(N2CCOCC2)cc1 (cis-trans isomerization)
N#C/C(=C\c1cc([O-])c(=O)[n-]c1[O-])C(=O)[N-]c1ccc(N2CCOCC2)cc1 (3D coordinates assigned)
N#C/C(=C\c1cc([O-])c(=O)[n-]c1[O-])C(=O)[N-]c1ccc(N2CCOCC2)cc1 (nonaromatic ring conformer: 62.58354695135562 kcal/mol)

>  <smiles>  (1188) 
N#CC(=Cc1cc(O)c(=O)[nH]c1O)C(=O)Nc1ccc(N2CCOCC2)cc1

>  <score_type>  (1188) 
oracle

>  <origin>  (1188) 
adg

>  <m_score__min__energy>  (1188) 
-16.93

>  <m_primary>  (1188) 
energy

$$$$
54:0
     RDKit          3D

 30 32  0  0  0  0  0  0  0  0999 V2000
   59.0580   33.5140   46.9500 C   0  0  0  0  0  0  0  0  0  0  0  0
   60.4550   32.9940   47.1710 C   0  0  0  0  0  0  0  0  0  0  0  0
   61.5410   33.7790   46.7430 C   0  0  0  0  0  0  0  0  0  0  0  0
   62.8520   33.3250   46.9000 C   0  0  0  0  0  0  0  0  0  0  0  0
   63.0960   32.0820   47.4820 C   0  0  0  0  0  0  0  0  0  0  0  0
   62.0300   31.2830   47.9000 C   0  0  0  0  0  0  0  0  0  0  0  0
   60.7040   31.7170   47.7390 C   0  0  0  0  0  0  0  0  0  0  0  0
   59.3900   30.6580   48.2740 S   0  0  0  0  0  0  0  0  0  0  0  0
   58.7920   31.1630   49.5560 O   0  0  0  0  0  0  0  0  0  0  0  0
   58.3300   30.6320   47.2080 O   0  0  0  0  0  0  0  0  0  0  0  0
   60.0160   29.0670   48.5380 N   0  0  0  0  0  0  0  0  0  0  0  0
   59.9530   28.0260   47.5620 C   0  0  0  0  0  0  0  0  0  0  0  0
   60.7450   27.0460   47.6340 O   0  0  0  0  0  0  0  0  0  0  0  0
   58.9370   28.0940   46.4850 C   0  0  0  0  0  0  0  0  0  0  0  0
   57.6580   27.7460   46.7400 C   0  0  0  0  0  0  0  0  0  0  0  0
   57.1560   26.3570   46.7700 C   0  0  0  0  0  0  0  0  0  0  0  0
   57.9200   25.2960   47.0740 N   0  0  0  0  0  0  0  0  0  0  0  0
   57.1010   24.2360   46.9400 C   0  0  0  0  0  0  0  0  0  0  0  0
   57.4700   23.0520   47.1570 O   0  0  0  0  0  0  0  0  0  0  0  0
   55.8490   24.5510   46.5450 N   0  0  0  0  0  0  0  0  0  0  0  0
   55.9000   25.8930   46.4320 C   0  0  0  0  0  0  0  0  0  0  0  0
   54.8330   26.6670   45.9970 O   0  0  0  0  0  0  0  0  0  0  0  0
   59.3550   28.6360   45.1690 C   0  0  0  0  0  0  0  0  0  0  0  0
   60.5470   28.4620   44.7970 O   0  0  0  0  0  0  0  0  0  0  0  0
   58.4230   29.3980   44.3020 C   0  0  0  0  0  0  0  0  0  0  0  0
   57.4240   28.7240   43.5750 C   0  0  0  0  0  0  0  0  0  0  0  0
   56.5380   29.4370   42.7640 C   0  0  0  0  0  0  0  0  0  0  0  0
   56.6430   30.8260   42.6590 C   0  0  0  0  0  0  0  0  0  0  0  0
   57.6380   31.5050   43.3660 C   0  0  0  0  0  0  0  0  0  0  0  0
   58.5270   30.7980   44.1810 C   0  0  0  0  0  0  0  0  0  0  0  0
  1  2  1  0
  2  3  2  0
  3  4  1  0
  4  5  2  0
  5  6  1  0
  6  7  2  0
  7  8  1  0
  8  9  2  0
  8 10  2  0
  8 11  1  0
 11 12  1  0
 12 13  2  0
 12 14  1  0
 14 15  2  3
 15 16  1  0
 16 17  1  0
 17 18  1  0
 18 19  2  0
 18 20  1  0
 20 21  1  0
 21 22  1  0
 14 23  1  0
 23 24  2  0
 23 25  1  0
 25 26  2  0
 26 27  1  0
 27 28  2  0
 28 29  1  0
 29 30  2  0
  7  2  1  0
 21 16  2  0
 30 25  1  0
M  CHG  3  11  -1  20  -1  22  -1
M  END
>  <UniqueID>  (1189) 
53

>  <SMILES>  (1189) 
Cc1ccccc1S(=O)(=O)[N-]C(=O)C(=Cc1[nH]c(=O)[n-]c1[O-])C(=O)c1ccccc1

>  <Energy>  (1189) 
93.036697357602

>  <Genealogy>  (1189) 
Cc1ccccc1S(=O)(=O)[N-]C(=O)C(=Cc1[nH]c(=O)[n-]c1[O-])C(=O)c1ccccc1 (protonated)
Cc1ccccc1S(=O)(=O)[N-]C(=O)C(=Cc1[nH]c(=O)[n-]c1[O-])C(=O)c1ccccc1 (3D coordinates assigned)
Cc1ccccc1S(=O)(=O)[N-]C(=O)C(=Cc1[nH]c(=O)[n-]c1[O-])C(=O)c1ccccc1 (optimized conformer: 93.036697357602 kcal/mol)

>  <smiles>  (1189) 
Cc1ccccc1S(=O)(=O)NC(=O)C(=Cc1[nH]c(=O)[nH]c1O)C(=O)c1ccccc1

>  <score_type>  (1189) 
oracle

>  <origin>  (1189) 
adg

>  <m_score__min__energy>  (1189) 
-17.09

>  <m_primary>  (1189) 
energy

$$$$
69:0
     RDKit          3D

 30 33  0  0  0  0  0  0  0  0999 V2000
   59.3350   31.1490   50.5410 O   0  0  0  0  0  0  0  0  0  0  0  0
   59.5940   31.7390   49.4590 C   0  0  0  0  0  0  0  0  0  0  0  0
   59.1540   33.1610   49.2700 C   0  0  0  0  0  0  0  0  0  0  0  0
   59.0590   33.5060   47.8020 C   0  0  0  0  0  0  0  0  0  0  0  0
   57.7980   33.4840   47.1750 C   0  0  0  0  0  0  0  0  0  0  0  0
   57.6600   33.8410   45.8310 C   0  0  0  0  0  0  0  0  0  0  0  0
   58.7800   34.2190   45.0910 C   0  0  0  0  0  0  0  0  0  0  0  0
   60.0400   34.2420   45.6930 C   0  0  0  0  0  0  0  0  0  0  0  0
   60.1920   33.8950   47.0460 C   0  0  0  0  0  0  0  0  0  0  0  0
   61.5080   33.9400   47.6220 N   0  0  0  0  0  0  0  0  0  0  0  0
   62.5540   33.1080   47.0060 C   0  0  0  0  0  0  0  0  0  0  0  0
   63.7020   32.7500   47.9760 C   0  0  0  0  0  0  0  0  0  0  0  0
   63.3040   32.8720   49.3260 O   0  0  0  0  0  0  0  0  0  0  0  0
   62.9910   34.2210   49.5840 C   0  0  0  0  0  0  0  0  0  0  0  0
   61.6580   34.5750   48.9380 C   0  0  0  0  0  0  0  0  0  0  0  0
   60.3240   31.0620   48.4250 N   0  0  0  0  0  0  0  0  0  0  0  0
   60.4320   29.6070   48.3680 C   0  0  0  0  0  0  0  0  0  0  0  0
   59.5160   29.0680   47.3020 C   0  0  0  0  0  0  0  0  0  0  0  0
   59.2200   29.8540   46.1760 C   0  0  0  0  0  0  0  0  0  0  0  0
   58.3270   29.3870   45.2100 C   0  0  0  0  0  0  0  0  0  0  0  0
   57.7040   28.1470   45.3730 C   0  0  0  0  0  0  0  0  0  0  0  0
   57.9590   27.3600   46.5120 C   0  0  0  0  0  0  0  0  0  0  0  0
   57.2320   26.0810   46.6900 C   0  0  0  0  0  0  0  0  0  0  0  0
   57.8320   24.9340   47.0760 N   0  0  0  0  0  0  0  0  0  0  0  0
   56.8230   24.0340   47.0900 C   0  0  0  0  0  0  0  0  0  0  0  0
   57.0010   22.8270   47.4000 O   0  0  0  0  0  0  0  0  0  0  0  0
   55.6150   24.5270   46.7260 N   0  0  0  0  0  0  0  0  0  0  0  0
   55.8860   25.8180   46.4710 C   0  0  0  0  0  0  0  0  0  0  0  0
   54.9250   26.7160   46.0090 O   0  0  0  0  0  0  0  0  0  0  0  0
   58.8920   27.8210   47.4620 C   0  0  0  0  0  0  0  0  0  0  0  0
  1  2  2  0
  2  3  1  0
  3  4  1  0
  4  5  2  0
  5  6  1  0
  6  7  2  0
  7  8  1  0
  8  9  2  0
  9 10  1  0
 10 11  1  0
 11 12  1  0
 12 13  1  0
 13 14  1  0
 14 15  1  0
  2 16  1  0
 16 17  1  0
 17 18  1  0
 18 19  2  0
 19 20  1  0
 20 21  2  0
 21 22  1  0
 22 23  1  0
 23 24  1  0
 24 25  1  0
 25 26  2  0
 25 27  1  0
 27 28  1  0
 28 29  1  0
 22 30  2  0
  9  4  1  0
 15 10  1  0
 30 18  1  0
 28 23  2  0
M  CHG  3  24  -1  27  -1  29  -1
M  END
>  <UniqueID>  (1190) 
65

>  <SMILES>  (1190) 
O=C(Cc1ccccc1N1CCOCC1)NCc1cccc(-c2[n-]c(=O)[n-]c2[O-])c1

>  <Energy>  (1190) 
89.4067681626771

>  <Genealogy>  (1190) 
O=C(Cc1ccccc1N1CCOCC1)NCc1cccc(-c2[n-]c(=O)[n-]c2[O-])c1 (protonated)
O=C(Cc1ccccc1N1CCOCC1)NCc1cccc(-c2[n-]c(=O)[n-]c2[O-])c1 (3D coordinates assigned)
O=C(Cc1ccccc1N1CCOCC1)NCc1cccc(-c2[n-]c(=O)[n-]c2[O-])c1 (nonaromatic ring conformer: 89.4067681626771 kcal/mol)

>  <smiles>  (1190) 
O=C(Cc1ccccc1N1CCOCC1)NCc1cccc(-c2[nH]c(=O)[nH]c2O)c1

>  <score_type>  (1190) 
oracle

>  <origin>  (1190) 
adg

>  <m_score__min__energy>  (1190) 
-17.66

>  <m_primary>  (1190) 
energy

$$$$
77:0
     RDKit          3D

 23 25  0  0  0  0  0  0  0  0999 V2000
   56.8240   30.4130   43.9810 C   0  0  0  0  0  0  0  0  0  0  0  0
   57.6440   30.0610   44.9840 C   0  0  0  0  0  0  0  0  0  0  0  0
   57.8640   28.7610   45.4520 C   0  0  0  0  0  0  0  0  0  0  0  0
   57.3130   27.6190   44.9940 C   0  0  0  0  0  0  0  0  0  0  0  0
   57.2140   26.3800   45.7980 C   0  0  0  0  0  0  0  0  0  0  0  0
   55.9660   25.9410   46.2610 C   0  0  0  0  0  0  0  0  0  0  0  0
   54.8160   26.6790   46.0040 O   0  0  0  0  0  0  0  0  0  0  0  0
   55.8730   24.7910   46.9780 N   0  0  0  0  0  0  0  0  0  0  0  0
   56.9720   24.0420   47.2450 C   0  0  0  0  0  0  0  0  0  0  0  0
   56.8620   22.9820   47.9150 O   0  0  0  0  0  0  0  0  0  0  0  0
   58.1880   24.4290   46.7850 N   0  0  0  0  0  0  0  0  0  0  0  0
   58.3340   25.5700   46.0620 C   0  0  0  0  0  0  0  0  0  0  0  0
   59.4740   25.8800   45.6220 O   0  0  0  0  0  0  0  0  0  0  0  0
   58.7320   28.8750   46.5280 C   0  0  0  0  0  0  0  0  0  0  0  0
   59.0200   30.2170   46.6640 C   0  0  0  0  0  0  0  0  0  0  0  0
   59.9280   30.7840   47.7140 C   0  0  0  0  0  0  0  0  0  0  0  0
   58.3600   30.9420   45.7300 N   0  0  0  0  0  0  0  0  0  0  0  0
   58.4400   32.3680   45.5620 C   0  0  0  0  0  0  0  0  0  0  0  0
   57.6790   33.1490   44.7140 C   0  0  0  0  0  0  0  0  0  0  0  0
   58.0390   34.4380   44.8750 N   0  0  0  0  0  0  0  0  0  0  0  0
   58.9800   34.4810   45.8080 N   0  0  0  0  0  0  0  0  0  0  0  0
   59.6600   35.7000   46.2220 C   0  0  0  0  0  0  0  0  0  0  0  0
   59.2590   33.2390   46.2460 C   0  0  0  0  0  0  0  0  0  0  0  0
  1  2  2  0
  2  3  1  0
  3  4  2  0
  4  5  1  0
  5  6  2  0
  6  7  1  0
  6  8  1  0
  8  9  1  0
  9 10  2  0
  9 11  1  0
 11 12  1  0
 12 13  2  0
  3 14  1  0
 14 15  2  0
 15 16  1  0
 15 17  1  0
 17 18  1  0
 18 19  1  0
 19 20  2  0
 20 21  1  0
 21 22  1  0
 21 23  1  0
 17  2  1  0
 23 18  2  0
 12  5  1  0
M  CHG  3   7  -1   8  -1  11  -1
M  END
>  <UniqueID>  (1191) 
71

>  <SMILES>  (1191) 
C=c1/c(=C/c2c([O-])[n-]c(=O)[n-]c2=O)cc(C)n1-c1cnn(C)c1

>  <Energy>  (1191) 
111.75612534969723

>  <Genealogy>  (1191) 
C=c1c(=Cc2c([O-])[n-]c(=O)[n-]c2=O)cc(C)n1-c1cnn(C)c1 (protonated)
C=c1/c(=C/c2c([O-])[n-]c(=O)[n-]c2=O)cc(C)n1-c1cnn(C)c1 (cis-trans isomerization)
C=c1/c(=C/c2c([O-])[n-]c(=O)[n-]c2=O)cc(C)n1-c1cnn(C)c1 (3D coordinates assigned)
C=c1/c(=C/c2c([O-])[n-]c(=O)[n-]c2=O)cc(C)n1-c1cnn(C)c1 (optimized conformer: 111.75612534969723 kcal/mol)

>  <smiles>  (1191) 
C=c1c(=Cc2c(O)[nH]c(=O)[nH]c2=O)cc(C)n1-c1cnn(C)c1

>  <score_type>  (1191) 
oracle

>  <origin>  (1191) 
adg

>  <m_score__min__energy>  (1191) 
-14.98

>  <m_primary>  (1191) 
energy

$$$$
88:0
     RDKit          3D

 21 22  0  0  0  0  0  0  0  0999 V2000
   60.0070   27.9800   45.2340 C   0  0  0  0  0  0  0  0  0  0  0  0
   58.8510   28.9290   45.0680 C   0  0  0  0  0  0  0  0  0  0  0  0
   59.1060   30.3100   45.0030 C   0  0  0  0  0  0  0  0  0  0  0  0
   58.0540   31.2230   44.9030 C   0  0  0  0  0  0  0  0  0  0  0  0
   58.3880   32.9440   44.8390 Cl  0  0  0  0  0  0  0  0  0  0  0  0
   56.7340   30.7660   44.8690 C   0  0  0  0  0  0  0  0  0  0  0  0
   56.4640   29.3970   44.9100 C   0  0  0  0  0  0  0  0  0  0  0  0
   55.1450   28.9580   44.8700 O   0  0  0  0  0  0  0  0  0  0  0  0
   57.5150   28.4690   44.9800 C   0  0  0  0  0  0  0  0  0  0  0  0
   57.1990   27.0710   45.0090 N   0  0  0  0  0  0  0  0  0  0  0  0
   56.4010   26.4590   46.0270 C   0  0  0  0  0  0  0  0  0  0  0  0
   55.1550   26.6510   46.0640 O   0  0  0  0  0  0  0  0  0  0  0  0
   57.0450   25.5590   47.0300 C   0  0  0  0  0  0  0  0  0  0  0  0
   56.8340   24.1300   46.6330 C   0  0  0  0  0  0  0  0  0  0  0  0
   56.3920   23.8020   45.3450 C   0  0  0  0  0  0  0  0  0  0  0  0
   56.2650   22.4540   45.0070 C   0  0  0  0  0  0  0  0  0  0  0  0
   55.8670   22.1240   43.8590 O   0  0  0  0  0  0  0  0  0  0  0  0
   56.5760   21.4950   45.9170 N   0  0  0  0  0  0  0  0  0  0  0  0
   57.0140   21.8280   47.1590 C   0  0  0  0  0  0  0  0  0  0  0  0
   57.3010   20.9260   47.9870 O   0  0  0  0  0  0  0  0  0  0  0  0
   57.1450   23.1350   47.5060 N   0  0  0  0  0  0  0  0  0  0  0  0
  1  2  1  0
  2  3  2  0
  3  4  1  0
  4  5  1  0
  4  6  2  0
  6  7  1  0
  7  8  1  0
  7  9  2  0
  9 10  1  0
 10 11  1  0
 11 12  2  0
 11 13  1  0
 13 14  1  0
 14 15  2  0
 15 16  1  0
 16 17  2  0
 16 18  1  0
 18 19  1  0
 19 20  2  0
 19 21  1  0
  9  2  1  0
 21 14  1  0
M  CHG  4   8  -1  10  -1  18  -1  21  -1
M  END
>  <UniqueID>  (1192) 
80

>  <SMILES>  (1192) 
Cc1cc(Cl)cc([O-])c1[N-]C(=O)Cc1cc(=O)[n-]c(=O)[n-]1

>  <Energy>  (1192) 
34.67321485905095

>  <Genealogy>  (1192) 
Cc1cc(Cl)cc([O-])c1[N-]C(=O)Cc1cc(=O)[n-]c(=O)[n-]1 (protonated)
Cc1cc(Cl)cc([O-])c1[N-]C(=O)Cc1cc(=O)[n-]c(=O)[n-]1 (3D coordinates assigned)
Cc1cc(Cl)cc([O-])c1[N-]C(=O)Cc1cc(=O)[n-]c(=O)[n-]1 (optimized conformer: 34.67321485905095 kcal/mol)

>  <smiles>  (1192) 
Cc1cc(Cl)cc(O)c1NC(=O)Cc1cc(=O)[nH]c(=O)[nH]1

>  <score_type>  (1192) 
oracle

>  <origin>  (1192) 
adg

>  <m_score__min__energy>  (1192) 
-15.42

>  <m_primary>  (1192) 
energy

$$$$
89:0
     RDKit          3D

 29 31  0  0  0  0  0  0  0  0999 V2000
   58.6400   34.8090   44.8960 C   0  0  0  0  0  0  0  0  0  0  0  0
   59.5180   34.8880   46.1090 C   0  0  0  0  0  0  0  0  0  0  0  0
   59.6600   36.0090   46.6690 O   0  0  0  0  0  0  0  0  0  0  0  0
   60.2200   33.7000   46.6660 C   0  0  0  0  0  0  0  0  0  0  0  0
   61.6250   33.7230   46.7490 C   0  0  0  0  0  0  0  0  0  0  0  0
   62.3260   32.6390   47.2770 C   0  0  0  0  0  0  0  0  0  0  0  0
   61.6400   31.5130   47.7290 C   0  0  0  0  0  0  0  0  0  0  0  0
   60.2420   31.4580   47.6510 C   0  0  0  0  0  0  0  0  0  0  0  0
   59.3810   30.0260   48.2190 S   0  0  0  0  0  0  0  0  0  0  0  0
   58.5180   30.3910   49.3950 O   0  0  0  0  0  0  0  0  0  0  0  0
   60.3720   28.9770   48.6450 O   0  0  0  0  0  0  0  0  0  0  0  0
   58.3790   29.3750   46.9680 N   0  0  0  0  0  0  0  0  0  0  0  0
   58.2350   28.0670   46.6810 C   0  0  0  0  0  0  0  0  0  0  0  0
   57.3960   27.9730   45.5900 C   0  0  0  0  0  0  0  0  0  0  0  0
   57.0170   26.7900   44.8690 N   0  0  0  0  0  0  0  0  0  0  0  0
   56.4590   25.6240   45.4970 C   0  0  0  0  0  0  0  0  0  0  0  0
   55.8990   25.7270   46.6240 O   0  0  0  0  0  0  0  0  0  0  0  0
   56.4910   24.3050   44.8200 C   0  0  0  0  0  0  0  0  0  0  0  0
   57.6510   23.5100   44.8180 C   0  0  0  0  0  0  0  0  0  0  0  0
   57.6510   22.2680   44.1800 C   0  0  0  0  0  0  0  0  0  0  0  0
   56.4870   21.8210   43.5520 C   0  0  0  0  0  0  0  0  0  0  0  0
   56.4690   20.7040   42.9720 O   0  0  0  0  0  0  0  0  0  0  0  0
   55.3680   22.5900   43.5690 N   0  0  0  0  0  0  0  0  0  0  0  0
   55.3410   23.8040   44.1830 C   0  0  0  0  0  0  0  0  0  0  0  0
   57.0760   29.2780   45.2580 C   0  0  0  0  0  0  0  0  0  0  0  0
   56.2460   29.7260   44.1000 C   0  0  0  0  0  0  0  0  0  0  0  0
   57.6940   30.1180   46.1130 N   0  0  0  0  0  0  0  0  0  0  0  0
   59.5300   32.5460   47.1090 C   0  0  0  0  0  0  0  0  0  0  0  0
   58.1460   32.4590   46.9960 O   0  0  0  0  0  0  0  0  0  0  0  0
  1  2  1  0
  2  3  2  0
  2  4  1  0
  4  5  2  0
  5  6  1  0
  6  7  2  0
  7  8  1  0
  8  9  1  0
  9 10  2  0
  9 11  2  0
  9 12  1  0
 12 13  1  0
 13 14  2  0
 14 15  1  0
 15 16  1  0
 16 17  2  0
 16 18  1  0
 18 19  1  0
 19 20  2  0
 20 21  1  0
 21 22  2  0
 21 23  1  0
 23 24  1  0
 14 25  1  0
 25 26  1  0
 25 27  2  0
  8 28  2  0
 28 29  1  0
 28  4  1  0
 27 12  1  0
 24 18  2  0
M  CHG  2  23  -1  29  -1
M  END
>  <UniqueID>  (1193) 
81

>  <SMILES>  (1193) 
CC(=O)c1cccc(S(=O)(=O)n2cc(NC(=O)c3ccc(=O)[n-]c3)c(C)n2)c1[O-]

>  <Energy>  (1193) 
86.28138774309774

>  <Genealogy>  (1193) 
CC(=O)c1cccc(S(=O)(=O)n2cc(NC(=O)c3ccc(=O)[n-]c3)c(C)n2)c1[O-] (protonated)
CC(=O)c1cccc(S(=O)(=O)n2cc(NC(=O)c3ccc(=O)[n-]c3)c(C)n2)c1[O-] (3D coordinates assigned)
CC(=O)c1cccc(S(=O)(=O)n2cc(NC(=O)c3ccc(=O)[n-]c3)c(C)n2)c1[O-] (optimized conformer: 86.28138774309774 kcal/mol)

>  <smiles>  (1193) 
CC(=O)c1cccc(S(=O)(=O)n2cc(NC(=O)c3ccc(=O)[nH]c3)c(C)n2)c1O

>  <score_type>  (1193) 
oracle

>  <origin>  (1193) 
adg

>  <m_score__min__energy>  (1193) 
-14.44

>  <m_primary>  (1193) 
energy

$$$$
24:0
     RDKit          3D

 30 33  0  0  0  0  0  0  0  0999 V2000
   59.6840   27.9730   46.4750 C   0  0  0  0  0  0  0  0  0  0  0  0
   58.7430   28.6230   45.7720 C   0  0  0  0  0  0  0  0  0  0  0  0
   57.8480   28.0670   44.8440 C   0  0  0  0  0  0  0  0  0  0  0  0
   57.5290   26.7840   44.5830 C   0  0  0  0  0  0  0  0  0  0  0  0
   57.0650   25.7980   45.5720 C   0  0  0  0  0  0  0  0  0  0  0  0
   57.8310   24.8320   46.1120 N   0  0  0  0  0  0  0  0  0  0  0  0
   57.0260   24.2820   47.0470 C   0  0  0  0  0  0  0  0  0  0  0  0
   57.3880   23.3170   47.7680 O   0  0  0  0  0  0  0  0  0  0  0  0
   55.8090   24.8560   47.1560 N   0  0  0  0  0  0  0  0  0  0  0  0
   55.8560   25.8220   46.2260 C   0  0  0  0  0  0  0  0  0  0  0  0
   54.8180   26.7110   45.9810 O   0  0  0  0  0  0  0  0  0  0  0  0
   57.2680   29.1340   44.1780 C   0  0  0  0  0  0  0  0  0  0  0  0
   57.7560   30.2840   44.7620 C   0  0  0  0  0  0  0  0  0  0  0  0
   57.3690   31.6740   44.3560 C   0  0  0  0  0  0  0  0  0  0  0  0
   58.6500   29.9780   45.7300 N   0  0  0  0  0  0  0  0  0  0  0  0
   59.3870   30.9250   46.5240 C   0  0  0  0  0  0  0  0  0  0  0  0
   60.7790   31.0230   46.3920 C   0  0  0  0  0  0  0  0  0  0  0  0
   61.4980   31.9360   47.1680 C   0  0  0  0  0  0  0  0  0  0  0  0
   60.8350   32.7580   48.0950 C   0  0  0  0  0  0  0  0  0  0  0  0
   61.6030   33.7280   48.9090 C   0  0  0  0  0  0  0  0  0  0  0  0
   61.2330   34.9340   48.9300 O   0  0  0  0  0  0  0  0  0  0  0  0
   62.7560   33.3290   49.6740 N   0  0  0  0  0  0  0  0  0  0  0  0
   63.6810   32.3040   49.1630 C   0  0  0  0  0  0  0  0  0  0  0  0
   65.1260   32.7230   49.4430 C   0  0  0  0  0  0  0  0  0  0  0  0
   65.3880   32.9330   50.9560 C   0  0  0  0  0  0  0  0  0  0  0  0
   66.4880   33.9810   51.1690 C   0  0  0  0  0  0  0  0  0  0  0  0
   64.1070   33.2980   51.7510 C   0  0  0  0  0  0  0  0  0  0  0  0
   63.0890   34.0680   50.9010 C   0  0  0  0  0  0  0  0  0  0  0  0
   59.4380   32.6710   48.2110 C   0  0  0  0  0  0  0  0  0  0  0  0
   58.7200   31.7570   47.4340 C   0  0  0  0  0  0  0  0  0  0  0  0
  1  2  2  0
  2  3  1  0
  3  4  2  3
  4  5  1  0
  5  6  1  0
  6  7  1  0
  7  8  2  0
  7  9  1  0
  9 10  1  0
 10 11  1  0
  3 12  1  0
 12 13  2  0
 13 14  1  0
 13 15  1  0
 15 16  1  0
 16 17  2  0
 17 18  1  0
 18 19  2  0
 19 20  1  0
 20 21  2  0
 20 22  1  0
 22 23  1  0
 23 24  1  0
 24 25  1  0
 25 26  1  0
 25 27  1  0
 27 28  1  0
 19 29  1  0
 29 30  2  0
 15  2  1  0
 30 16  1  0
 10  5  2  0
 28 22  1  0
M  CHG  3   6  -1   9  -1  11  -1
M  END
>  <UniqueID>  (1194) 
23

>  <SMILES>  (1194) 
C=c1c(=Cc2[n-]c(=O)[n-]c2[O-])cc(C)n1-c1ccc(C(=O)N2CCC(C)CC2)cc1

>  <Energy>  (1194) 
134.99206739539255

>  <Genealogy>  (1194) 
C=c1c(=Cc2[n-]c(=O)[n-]c2[O-])cc(C)n1-c1ccc(C(=O)N2CCC(C)CC2)cc1 (protonated)
C=c1c(=Cc2[n-]c(=O)[n-]c2[O-])cc(C)n1-c1ccc(C(=O)N2CCC(C)CC2)cc1 (3D coordinates assigned)
C=c1c(=Cc2[n-]c(=O)[n-]c2[O-])cc(C)n1-c1ccc(C(=O)N2CCC(C)CC2)cc1 (nonaromatic ring conformer: 134.99206739539255 kcal/mol)

>  <smiles>  (1194) 
C=c1c(=Cc2[nH]c(=O)[nH]c2O)cc(C)n1-c1ccc(C(=O)N2CCC(C)CC2)cc1

>  <score_type>  (1194) 
oracle

>  <origin>  (1194) 
adg

>  <m_score__min__energy>  (1194) 
-16.030000000000001

>  <m_primary>  (1194) 
energy

$$$$
71:0
     RDKit          3D

 29 32  0  0  0  0  0  0  0  0999 V2000
   57.8480   33.5810   45.9720 C   0  0  0  0  0  0  0  0  0  0  0  0
   58.5610   34.5690   46.3860 N   0  0  0  0  0  0  0  0  0  0  0  0
   59.8490   34.3270   47.0050 C   0  0  0  0  0  0  0  0  0  0  0  0
   59.7480   33.1750   48.0310 C   0  0  0  0  0  0  0  0  0  0  0  0
   58.8380   32.0610   47.6040 N   0  0  2  0  0  0  0  0  0  0  0  0
   59.3980   30.7140   47.8870 C   0  0  0  0  0  0  0  0  0  0  0  0
   59.2170   30.2600   49.3150 C   0  0  0  0  0  0  0  0  0  0  0  0
   58.1500   30.9320   50.4270 S   0  0  0  0  0  0  0  0  0  0  0  0
   58.5400   29.9100   51.7080 C   0  0  0  0  0  0  0  0  0  0  0  0
   57.8680   29.9690   53.0560 C   0  0  0  0  0  0  0  0  0  0  0  0
   56.3970   29.9500   52.9440 N   0  0  0  0  0  0  0  0  0  0  0  0
   55.6040   28.8610   53.1030 C   0  0  0  0  0  0  0  0  0  0  0  0
   56.0710   27.5030   53.5380 C   0  0  0  0  0  0  0  0  0  0  0  0
   54.2820   29.1930   52.8970 C   0  0  0  0  0  0  0  0  0  0  0  0
   54.2380   30.5540   52.6530 C   0  0  0  0  0  0  0  0  0  0  0  0
   53.0750   31.2200   52.4980 C   0  0  0  0  0  0  0  0  0  0  0  0
   52.2010   31.1720   51.3160 C   0  0  0  0  0  0  0  0  0  0  0  0
   52.2760   30.2500   50.3400 N   0  0  0  0  0  0  0  0  0  0  0  0
   51.4010   30.7000   49.4160 C   0  0  0  0  0  0  0  0  0  0  0  0
   51.1720   30.0830   48.3440 O   0  0  0  0  0  0  0  0  0  0  0  0
   50.7970   31.8660   49.7280 N   0  0  0  0  0  0  0  0  0  0  0  0
   51.3290   32.1600   50.9250 C   0  0  0  0  0  0  0  0  0  0  0  0
   51.0310   33.3130   51.6400 O   0  0  0  0  0  0  0  0  0  0  0  0
   55.5710   30.9980   52.6610 C   0  0  0  0  0  0  0  0  0  0  0  0
   56.0100   32.2250   52.3470 C   0  0  0  0  0  0  0  0  0  0  0  0
   59.5620   29.0530   51.2880 C   0  0  0  0  0  0  0  0  0  0  0  0
   60.2080   28.0150   52.1520 C   0  0  0  0  0  0  0  0  0  0  0  0
   59.9390   29.2560   49.9510 C   0  0  0  0  0  0  0  0  0  0  0  0
   58.3440   32.1820   46.2090 C   0  0  0  0  0  0  0  0  0  0  0  0
  1  2  2  0
  2  3  1  0
  3  4  1  0
  4  5  1  0
  5  6  1  6
  6  7  1  0
  7  8  1  0
  8  9  1  0
  9 10  1  0
 10 11  1  0
 11 12  1  0
 12 13  1  0
 12 14  2  0
 14 15  1  0
 15 16  2  0
 16 17  1  0
 17 18  1  0
 18 19  1  0
 19 20  2  0
 19 21  1  0
 21 22  1  0
 22 23  1  0
 15 24  1  0
 24 25  2  0
  9 26  2  0
 26 27  1  0
 26 28  1  0
  5 29  1  0
 29  1  1  0
 28  7  2  0
 24 11  1  0
 22 17  2  0
M  CHG  4   5   1  18  -1  21  -1  23  -1
M  END
>  <UniqueID>  (1195) 
67

>  <SMILES>  (1195) 
C=c1/c(=C\c2[n-]c(=O)[n-]c2[O-])cc(C)n1Cc1sc(C[N@@H+]2CC=NCC2)cc1C

>  <Energy>  (1195) 
158.5486287256236

>  <Genealogy>  (1195) 
C=c1c(=Cc2[n-]c(=O)[n-]c2[O-])cc(C)n1Cc1sc(C[NH+]2CC=NCC2)cc1C (protonated)
C=c1c(=Cc2[n-]c(=O)[n-]c2[O-])cc(C)n1Cc1sc(C[N@@H+]2CC=NCC2)cc1C (chirality)
C=c1/c(=C\c2[n-]c(=O)[n-]c2[O-])cc(C)n1Cc1sc(C[N@@H+]2CC=NCC2)cc1C (cis-trans isomerization)
C=c1/c(=C\c2[n-]c(=O)[n-]c2[O-])cc(C)n1Cc1sc(C[N@@H+]2CC=NCC2)cc1C (3D coordinates assigned)
C=c1/c(=C\c2[n-]c(=O)[n-]c2[O-])cc(C)n1Cc1sc(C[N@@H+]2CC=NCC2)cc1C (nonaromatic ring conformer: 158.5486287256236 kcal/mol)

>  <smiles>  (1195) 
C=c1c(=Cc2[nH]c(=O)[nH]c2O)cc(C)n1Cc1sc(CN2CC=NCC2)cc1C

>  <score_type>  (1195) 
oracle

>  <origin>  (1195) 
adg

>  <m_score__min__energy>  (1195) 
-15.23

>  <m_primary>  (1195) 
energy

$$$$
89:0
     RDKit          3D

 27 29  0  0  0  0  0  0  0  0999 V2000
   56.5500   29.4720   43.5920 O   0  0  0  0  0  0  0  0  0  0  0  0
   56.9980   29.9980   44.6460 C   0  0  0  0  0  0  0  0  0  0  0  0
   57.8400   29.1920   45.5830 C   0  0  0  0  0  0  0  0  0  0  0  0
   57.1770   27.8780   45.8800 C   0  0  0  0  0  0  0  0  0  0  0  0
   55.8890   27.6240   45.5810 N   0  0  0  0  0  0  0  0  0  0  0  0
   55.6860   26.3900   46.0810 C   0  0  0  0  0  0  0  0  0  0  0  0
   54.5810   25.7960   45.9940 O   0  0  0  0  0  0  0  0  0  0  0  0
   56.7580   25.8460   46.6890 N   0  0  0  0  0  0  0  0  0  0  0  0
   57.7070   26.7910   46.5640 C   0  0  0  0  0  0  0  0  0  0  0  0
   59.0650   26.6360   47.1100 C   0  0  0  0  0  0  0  0  0  0  0  0
   59.8890   25.8500   46.5700 O   0  0  0  0  0  0  0  0  0  0  0  0
   59.4450   27.3880   48.2680 N   0  0  0  0  0  0  0  0  0  0  0  0
   58.8910   28.6960   48.5970 C   0  0  0  0  0  0  0  0  0  0  0  0
   59.9510   29.7560   48.4820 C   0  0  0  0  0  0  0  0  0  0  0  0
   60.3780   30.4490   49.6260 C   0  0  0  0  0  0  0  0  0  0  0  0
   61.3800   31.4200   49.5290 C   0  0  0  0  0  0  0  0  0  0  0  0
   61.9650   31.7010   48.2900 C   0  0  0  0  0  0  0  0  0  0  0  0
   61.5490   31.0110   47.1480 C   0  0  0  0  0  0  0  0  0  0  0  0
   60.5470   30.0390   47.2410 C   0  0  0  0  0  0  0  0  0  0  0  0
   56.7180   31.3700   44.9450 N   0  0  0  0  0  0  0  0  0  0  0  0
   57.4890   32.4750   44.3920 C   0  0  0  0  0  0  0  0  0  0  0  0
   58.2260   33.1790   45.4990 C   0  0  0  0  0  0  0  0  0  0  0  0
   58.0960   32.7520   46.8320 C   0  0  0  0  0  0  0  0  0  0  0  0
   58.7410   33.4470   47.8600 C   0  0  0  0  0  0  0  0  0  0  0  0
   59.5110   34.5760   47.5670 C   0  0  0  0  0  0  0  0  0  0  0  0
   59.6350   35.0140   46.2450 C   0  0  0  0  0  0  0  0  0  0  0  0
   58.9940   34.3210   45.2150 C   0  0  0  0  0  0  0  0  0  0  0  0
  1  2  2  0
  2  3  1  0
  3  4  1  0
  4  5  1  0
  5  6  1  0
  6  7  2  0
  6  8  1  0
  8  9  1  0
  9 10  1  0
 10 11  2  0
 10 12  1  0
 12 13  1  0
 13 14  1  0
 14 15  2  0
 15 16  1  0
 16 17  2  0
 17 18  1  0
 18 19  2  0
  2 20  1  0
 20 21  1  0
 21 22  1  0
 22 23  2  0
 23 24  1  0
 24 25  2  0
 25 26  1  0
 26 27  2  0
  9  4  2  0
 19 14  1  0
 27 22  1  0
M  CHG  4   5  -1   8  -1  12  -1  20  -1
M  END
>  <UniqueID>  (1196) 
85

>  <SMILES>  (1196) 
O=C(Cc1[n-]c(=O)[n-]c1C(=O)[N-]Cc1ccccc1)[N-]Cc1ccccc1

>  <Energy>  (1196) 
63.921701406498464

>  <Genealogy>  (1196) 
O=C(Cc1[n-]c(=O)[n-]c1C(=O)[N-]Cc1ccccc1)[N-]Cc1ccccc1 (protonated)
O=C(Cc1[n-]c(=O)[n-]c1C(=O)[N-]Cc1ccccc1)[N-]Cc1ccccc1 (3D coordinates assigned)
O=C(Cc1[n-]c(=O)[n-]c1C(=O)[N-]Cc1ccccc1)[N-]Cc1ccccc1 (optimized conformer: 63.921701406498464 kcal/mol)

>  <smiles>  (1196) 
O=C(Cc1[nH]c(=O)[nH]c1C(=O)NCc1ccccc1)NCc1ccccc1

>  <score_type>  (1196) 
oracle

>  <origin>  (1196) 
adg

>  <m_score__min__energy>  (1196) 
-14.84

>  <m_primary>  (1196) 
energy

$$$$
90:0
     RDKit          3D

 37 41  0  0  0  0  0  0  0  0999 V2000
   60.3360   30.1890   46.8170 C   0  0  0  0  0  0  0  0  0  0  0  0
   59.7660   31.3170   46.3650 C   0  0  0  0  0  0  0  0  0  0  0  0
   58.5770   31.4380   45.6280 C   0  0  0  0  0  0  0  0  0  0  0  0
   57.7880   30.5040   45.0620 C   0  0  0  0  0  0  0  0  0  0  0  0
   57.4760   29.1880   45.6380 C   0  0  0  0  0  0  0  0  0  0  0  0
   58.3810   28.3760   46.2160 N   0  0  0  0  0  0  0  0  0  0  0  0
   57.6900   27.2330   46.4160 C   0  0  0  0  0  0  0  0  0  0  0  0
   58.2040   26.2140   46.9490 O   0  0  0  0  0  0  0  0  0  0  0  0
   56.4130   27.2600   45.9770 N   0  0  0  0  0  0  0  0  0  0  0  0
   56.3000   28.5000   45.4750 C   0  0  0  0  0  0  0  0  0  0  0  0
   55.1480   28.9930   44.8740 O   0  0  0  0  0  0  0  0  0  0  0  0
   58.3110   32.7950   45.5420 C   0  0  0  0  0  0  0  0  0  0  0  0
   59.3540   33.4480   46.1650 C   0  0  0  0  0  0  0  0  0  0  0  0
   59.4960   34.9340   46.2800 C   0  0  0  0  0  0  0  0  0  0  0  0
   60.2290   32.5560   46.6700 N   0  0  0  0  0  0  0  0  0  0  0  0
   61.3990   32.8820   47.4410 C   0  0  0  0  0  0  0  0  0  0  0  0
   62.6510   32.8690   46.8100 C   0  0  0  0  0  0  0  0  0  0  0  0
   63.8120   33.1520   47.5320 C   0  0  0  0  0  0  0  0  0  0  0  0
   63.7300   33.4560   48.8910 C   0  0  0  0  0  0  0  0  0  0  0  0
   62.4900   33.4720   49.5320 C   0  0  0  0  0  0  0  0  0  0  0  0
   61.3100   33.1850   48.8210 C   0  0  0  0  0  0  0  0  0  0  0  0
   59.9980   33.2340   49.5180 C   0  0  0  0  0  0  0  0  0  0  0  0
   59.2280   34.2150   49.3070 O   0  0  0  0  0  0  0  0  0  0  0  0
   59.5970   32.1900   50.4390 N   0  0  1  0  0  0  0  0  0  0  0  0
   58.6190   32.7270   51.4000 C   0  0  0  0  0  0  0  0  0  0  0  0
   58.2320   31.6960   52.4770 C   0  0  0  0  0  0  0  0  0  0  0  0
   58.4860   30.2050   52.1040 C   0  0  1  0  0  0  0  0  0  0  0  0
   57.4280   29.3000   52.7080 C   0  0  0  0  0  0  0  0  0  0  0  0
   57.8110   28.2270   53.2540 O   0  0  0  0  0  0  0  0  0  0  0  0
   56.0140   29.6260   52.6950 N   0  0  0  0  0  0  0  0  0  0  0  0
   55.0890   28.8230   53.5090 C   0  0  0  0  0  0  0  0  0  0  0  0
   53.8610   29.6550   53.8880 C   0  0  0  0  0  0  0  0  0  0  0  0
   53.2700   30.2330   52.7430 O   0  0  0  0  0  0  0  0  0  0  0  0
   54.1640   31.1650   52.1640 C   0  0  0  0  0  0  0  0  0  0  0  0
   55.4220   30.4650   51.6400 C   0  0  0  0  0  0  0  0  0  0  0  0
   58.7260   29.8640   50.6060 C   0  0  0  0  0  0  0  0  0  0  0  0
   58.9900   31.0710   49.6980 C   0  0  0  0  0  0  0  0  0  0  0  0
  1  2  2  0
  2  3  1  0
  3  4  2  0
  4  5  1  0
  5  6  1  0
  6  7  1  0
  7  8  2  0
  7  9  1  0
  9 10  1  0
 10 11  1  0
  3 12  1  0
 12 13  2  0
 13 14  1  0
 13 15  1  0
 15 16  1  0
 16 17  2  0
 17 18  1  0
 18 19  2  0
 19 20  1  0
 20 21  2  0
 21 22  1  0
 22 23  2  0
 24 22  1  6
 24 25  1  0
 25 26  1  0
 26 27  1  0
 27 28  1  6
 28 29  2  0
 28 30  1  0
 30 31  1  0
 31 32  1  0
 32 33  1  0
 33 34  1  0
 34 35  1  0
 27 36  1  0
 36 37  1  0
 15  2  1  0
 21 16  1  0
 37 24  1  0
 10  5  2  0
 35 30  1  0
M  CHG  4   6  -1   9  -1  11  -1  24   1
M  END
>  <UniqueID>  (1197) 
86

>  <SMILES>  (1197) 
C=c1/c(=C\c2[n-]c(=O)[n-]c2[O-])cc(C)n1-c1ccccc1C(=O)[NH+]1CCC(C(=O)N2CCOCC2)CC1

>  <Energy>  (1197) 
164.09787985492807

>  <Genealogy>  (1197) 
C=c1c(=Cc2[n-]c(=O)[n-]c2[O-])cc(C)n1-c1ccccc1C(=O)[NH+]1CCC(C(=O)N2CCOCC2)CC1 (protonated)
C=c1/c(=C\c2[n-]c(=O)[n-]c2[O-])cc(C)n1-c1ccccc1C(=O)[NH+]1CCC(C(=O)N2CCOCC2)CC1 (cis-trans isomerization)
C=c1/c(=C\c2[n-]c(=O)[n-]c2[O-])cc(C)n1-c1ccccc1C(=O)[NH+]1CCC(C(=O)N2CCOCC2)CC1 (3D coordinates assigned)
C=c1/c(=C\c2[n-]c(=O)[n-]c2[O-])cc(C)n1-c1ccccc1C(=O)[NH+]1CCC(C(=O)N2CCOCC2)CC1 (nonaromatic ring conformer: 164.09787985492807 kcal/mol)

>  <smiles>  (1197) 
C=c1c(=Cc2[nH]c(=O)[nH]c2O)cc(C)n1-c1ccccc1C(=O)N1CCC(C(=O)N2CCOCC2)CC1

>  <score_type>  (1197) 
oracle

>  <origin>  (1197) 
adg

>  <m_score__min__energy>  (1197) 
-16.23

>  <m_primary>  (1197) 
energy

$$$$
5:0
     RDKit          3D

 30 33  0  0  0  0  0  0  0  0999 V2000
   60.3130   26.7420   48.9570 O   0  0  0  0  0  0  0  0  0  0  0  0
   60.2280   27.0560   47.7390 C   0  0  0  0  0  0  0  0  0  0  0  0
   60.0960   25.9700   46.7150 C   0  0  0  0  0  0  0  0  0  0  0  0
   58.3370   25.5660   46.4200 S   0  0  0  0  0  0  0  0  0  0  0  0
   57.9360   27.1520   45.6910 C   0  0  0  0  0  0  0  0  0  0  0  0
   58.9350   27.9420   45.1770 N   0  0  0  0  0  0  0  0  0  0  0  0
   58.6580   29.1460   44.5960 C   0  0  0  0  0  0  0  0  0  0  0  0
   59.5800   29.8620   44.1260 O   0  0  0  0  0  0  0  0  0  0  0  0
   57.3300   29.5450   44.5380 C   0  0  0  0  0  0  0  0  0  0  0  0
   56.6720   30.6350   44.0250 C   0  0  0  0  0  0  0  0  0  0  0  0
   55.3450   30.4610   44.2500 N   0  0  0  0  0  0  0  0  0  0  0  0
   55.1510   29.3070   44.8820 N   0  0  0  0  0  0  0  0  0  0  0  0
   56.3610   28.7550   45.0570 C   0  0  0  0  0  0  0  0  0  0  0  0
   56.6330   27.5630   45.6380 N   0  0  0  0  0  0  0  0  0  0  0  0
   60.1850   28.4330   47.3330 N   0  0  0  0  0  0  0  0  0  0  0  0
   59.9380   29.5290   48.2300 C   0  0  0  0  0  0  0  0  0  0  0  0
   59.3250   29.3370   49.4800 C   0  0  0  0  0  0  0  0  0  0  0  0
   59.1000   30.4250   50.3270 C   0  0  0  0  0  0  0  0  0  0  0  0
   59.4950   31.7100   49.9440 C   0  0  0  0  0  0  0  0  0  0  0  0
   60.1270   31.9120   48.7090 C   0  0  0  0  0  0  0  0  0  0  0  0
   60.6570   33.5280   48.2330 S   0  0  0  0  0  0  0  0  0  0  0  0
   60.8690   34.3650   49.4650 O   0  0  0  0  0  0  0  0  0  0  0  0
   61.9730   33.4250   47.5110 O   0  0  0  0  0  0  0  0  0  0  0  0
   59.4850   34.3130   47.2000 N   0  0  0  0  0  0  0  0  0  0  0  0
   58.1420   33.6870   47.3180 C   0  0  0  0  0  0  0  0  0  0  0  0
   57.7130   32.9290   46.0540 C   0  0  0  0  0  0  0  0  0  0  0  0
   57.7330   33.8550   44.8270 C   0  0  0  0  0  0  0  0  0  0  0  0
   58.9030   34.8580   44.8530 C   0  0  0  0  0  0  0  0  0  0  0  0
   60.0040   34.4130   45.8190 C   0  0  0  0  0  0  0  0  0  0  0  0
   60.3540   30.8180   47.8620 C   0  0  0  0  0  0  0  0  0  0  0  0
  1  2  2  0
  2  3  1  0
  3  4  1  0
  4  5  1  0
  5  6  2  0
  6  7  1  0
  7  8  2  0
  7  9  1  0
  9 10  2  0
 10 11  1  0
 11 12  1  0
 12 13  2  0
 13 14  1  0
  2 15  1  0
 15 16  1  0
 16 17  2  0
 17 18  1  0
 18 19  2  0
 19 20  1  0
 20 21  1  0
 21 22  2  0
 21 23  2  0
 21 24  1  0
 24 25  1  0
 25 26  1  0
 26 27  1  0
 27 28  1  0
 28 29  1  0
 20 30  2  0
 14  5  1  0
 30 16  1  0
 13  9  1  0
 29 24  1  0
M  CHG  2  11  -1  14  -1
M  END
>  <UniqueID>  (1198) 
6

>  <SMILES>  (1198) 
O=C(CSc1nc(=O)c2c[n-]nc2[n-]1)Nc1cccc(S(=O)(=O)N2CCCCC2)c1

>  <Energy>  (1198) 
94.98506490211429

>  <Genealogy>  (1198) 
O=C(CSc1nc(=O)c2c[n-]nc2[n-]1)Nc1cccc(S(=O)(=O)N2CCCCC2)c1 (protonated)
O=C(CSc1nc(=O)c2c[n-]nc2[n-]1)Nc1cccc(S(=O)(=O)N2CCCCC2)c1 (3D coordinates assigned)
O=C(CSc1nc(=O)c2c[n-]nc2[n-]1)Nc1cccc(S(=O)(=O)N2CCCCC2)c1 (nonaromatic ring conformer: 94.98506490211429 kcal/mol)

>  <smiles>  (1198) 
O=C(CSc1nc(=O)c2c[nH]nc2[nH]1)Nc1cccc(S(=O)(=O)N2CCCCC2)c1

>  <score_type>  (1198) 
oracle

>  <origin>  (1198) 
adg

>  <m_score__min__energy>  (1198) 
-15.08

>  <m_primary>  (1198) 
energy

$$$$
9:0
     RDKit          3D

 32 34  0  0  0  0  0  0  0  0999 V2000
   63.0440   33.8440   46.6240 C   0  0  0  0  0  0  0  0  0  0  0  0
   63.5470   33.7720   48.0630 C   0  0  0  0  0  0  0  0  0  0  0  0
   62.5600   34.3960   49.0580 C   0  0  0  0  0  0  0  0  0  0  0  0
   61.3090   33.6250   49.1410 N   0  0  0  0  0  0  0  0  0  0  0  0
   60.0150   34.3220   49.0640 C   0  0  0  0  0  0  0  0  0  0  0  0
   59.3870   34.1680   47.7020 C   0  0  0  0  0  0  0  0  0  0  0  0
   58.3520   33.2420   47.4960 C   0  0  0  0  0  0  0  0  0  0  0  0
   57.8160   33.0800   46.2160 C   0  0  0  0  0  0  0  0  0  0  0  0
   58.2890   33.8220   45.1810 N   0  0  0  0  0  0  0  0  0  0  0  0
   59.2810   34.7360   45.3530 C   0  0  0  0  0  0  0  0  0  0  0  0
   59.8480   34.9270   46.6160 C   0  0  0  0  0  0  0  0  0  0  0  0
   61.3640   32.2780   49.6530 C   0  0  0  0  0  0  0  0  0  0  0  0
   61.0280   32.0500   50.8490 O   0  0  0  0  0  0  0  0  0  0  0  0
   61.9110   31.1460   48.8310 C   0  0  0  0  0  0  0  0  0  0  0  0
   60.7930   30.5090   48.0520 C   0  0  0  0  0  0  0  0  0  0  0  0
   59.7830   29.8000   48.7210 C   0  0  0  0  0  0  0  0  0  0  0  0
   58.6780   29.3170   48.0180 C   0  0  0  0  0  0  0  0  0  0  0  0
   58.5730   29.5280   46.6320 C   0  0  0  0  0  0  0  0  0  0  0  0
   57.4330   29.0670   45.8950 N   0  0  0  0  0  0  0  0  0  0  0  0
   57.3620   27.8130   45.2040 C   0  0  0  0  0  0  0  0  0  0  0  0
   57.3600   27.8140   43.9450 O   0  0  0  0  0  0  0  0  0  0  0  0
   57.2420   26.5270   45.9340 C   0  0  0  0  0  0  0  0  0  0  0  0
   55.9840   26.0260   46.3130 C   0  0  0  0  0  0  0  0  0  0  0  0
   54.8190   26.7140   45.9940 O   0  0  0  0  0  0  0  0  0  0  0  0
   55.8940   24.8480   46.9820 N   0  0  0  0  0  0  0  0  0  0  0  0
   57.0040   24.1380   47.3040 C   0  0  0  0  0  0  0  0  0  0  0  0
   56.8970   23.0460   47.9190 O   0  0  0  0  0  0  0  0  0  0  0  0
   58.2310   24.6030   46.9590 N   0  0  0  0  0  0  0  0  0  0  0  0
   58.3780   25.7730   46.2900 C   0  0  0  0  0  0  0  0  0  0  0  0
   59.5350   26.1800   46.0170 O   0  0  0  0  0  0  0  0  0  0  0  0
   59.6050   30.1890   45.9570 C   0  0  0  0  0  0  0  0  0  0  0  0
   60.6990   30.6960   46.6640 C   0  0  0  0  0  0  0  0  0  0  0  0
  1  2  1  0
  2  3  1  0
  3  4  1  0
  4  5  1  0
  5  6  1  0
  6  7  2  0
  7  8  1  0
  8  9  2  0
  9 10  1  0
 10 11  2  0
  4 12  1  0
 12 13  2  0
 12 14  1  0
 14 15  1  0
 15 16  2  0
 16 17  1  0
 17 18  2  0
 18 19  1  0
 19 20  1  0
 20 21  2  0
 20 22  1  0
 22 23  2  0
 23 24  1  0
 23 25  1  0
 25 26  1  0
 26 27  2  0
 26 28  1  0
 28 29  1  0
 29 30  2  0
 18 31  1  0
 31 32  2  0
 11  6  1  0
 32 15  1  0
 29 22  1  0
M  CHG  4  19  -1  24  -1  25  -1  28  -1
M  END
>  <UniqueID>  (1199) 
10

>  <SMILES>  (1199) 
CCCN(Cc1ccncc1)C(=O)Cc1ccc([N-]C(=O)c2c([O-])[n-]c(=O)[n-]c2=O)cc1

>  <Energy>  (1199) 
56.747359909002384

>  <Genealogy>  (1199) 
CCCN(Cc1ccncc1)C(=O)Cc1ccc([N-]C(=O)c2c([O-])[n-]c(=O)[n-]c2=O)cc1 (protonated)
CCCN(Cc1ccncc1)C(=O)Cc1ccc([N-]C(=O)c2c([O-])[n-]c(=O)[n-]c2=O)cc1 (3D coordinates assigned)
CCCN(Cc1ccncc1)C(=O)Cc1ccc([N-]C(=O)c2c([O-])[n-]c(=O)[n-]c2=O)cc1 (optimized conformer: 56.747359909002384 kcal/mol)

>  <smiles>  (1199) 
CCCN(Cc1ccncc1)C(=O)Cc1ccc(NC(=O)c2c(O)[nH]c(=O)[nH]c2=O)cc1

>  <score_type>  (1199) 
oracle

>  <origin>  (1199) 
adg

>  <m_score__min__energy>  (1199) 
-17.16

>  <m_primary>  (1199) 
energy

$$$$
21:0
     RDKit          3D

 32 35  0  0  0  0  0  0  0  0999 V2000
   65.5660   33.0920   50.3300 C   0  0  0  0  0  0  0  0  0  0  0  0
   64.7670   33.8400   51.0950 C   0  0  0  0  0  0  0  0  0  0  0  0
   63.4320   34.3370   50.6050 C   0  0  0  0  0  0  0  0  0  0  0  0
   62.5920   33.2070   50.1590 N   0  0  0  0  0  0  0  0  0  0  0  0
   62.6930   32.9900   48.6880 C   0  0  0  0  0  0  0  0  0  0  0  0
   61.3590   32.6260   48.0270 C   0  0  0  0  0  0  0  0  0  0  0  0
   60.3590   33.6440   48.3690 N   0  0  0  0  0  0  0  0  0  0  0  0
   59.5230   34.2430   47.3600 C   0  0  0  0  0  0  0  0  0  0  0  0
   59.2210   35.4640   47.4540 O   0  0  0  0  0  0  0  0  0  0  0  0
   58.9980   33.4610   46.2170 C   0  0  0  0  0  0  0  0  0  0  0  0
   58.3510   34.1150   45.1550 C   0  0  0  0  0  0  0  0  0  0  0  0
   57.8390   33.3820   44.0810 C   0  0  0  0  0  0  0  0  0  0  0  0
   57.9560   31.9910   44.0610 C   0  0  0  0  0  0  0  0  0  0  0  0
   58.5840   31.3230   45.1220 C   0  0  0  0  0  0  0  0  0  0  0  0
   58.6760   29.8860   45.1160 N   0  0  0  0  0  0  0  0  0  0  0  0
   59.7480   29.1620   45.5100 C   0  0  0  0  0  0  0  0  0  0  0  0
   61.0480   29.7400   45.9790 C   0  0  0  0  0  0  0  0  0  0  0  0
   59.4910   27.8120   45.3830 C   0  0  0  0  0  0  0  0  0  0  0  0
   58.1910   27.6970   44.9060 C   0  0  0  0  0  0  0  0  0  0  0  0
   57.5470   26.5520   44.6100 C   0  0  0  0  0  0  0  0  0  0  0  0
   56.9890   25.6340   45.6210 C   0  0  0  0  0  0  0  0  0  0  0  0
   57.6110   24.5100   46.0160 N   0  0  0  0  0  0  0  0  0  0  0  0
   56.7310   23.9480   46.8720 C   0  0  0  0  0  0  0  0  0  0  0  0
   56.9640   22.8670   47.4710 O   0  0  0  0  0  0  0  0  0  0  0  0
   55.5780   24.6310   47.0260 N   0  0  0  0  0  0  0  0  0  0  0  0
   55.7490   25.6890   46.2180 C   0  0  0  0  0  0  0  0  0  0  0  0
   54.7740   26.6520   45.9970 O   0  0  0  0  0  0  0  0  0  0  0  0
   57.7170   29.0030   44.7390 C   0  0  0  0  0  0  0  0  0  0  0  0
   56.5160   29.3610   44.2540 C   0  0  0  0  0  0  0  0  0  0  0  0
   59.0990   32.0590   46.1980 C   0  0  0  0  0  0  0  0  0  0  0  0
   60.3090   34.1610   49.7400 C   0  0  0  0  0  0  0  0  0  0  0  0
   61.2040   33.3280   50.6690 C   0  0  0  0  0  0  0  0  0  0  0  0
  1  2  2  0
  2  3  1  0
  3  4  1  0
  4  5  1  0
  5  6  1  0
  6  7  1  0
  7  8  1  0
  8  9  2  0
  8 10  1  0
 10 11  2  0
 11 12  1  0
 12 13  2  0
 13 14  1  0
 14 15  1  0
 15 16  1  0
 16 17  1  0
 16 18  2  0
 18 19  1  0
 19 20  2  3
 20 21  1  0
 21 22  1  0
 22 23  1  0
 23 24  2  0
 23 25  1  0
 25 26  1  0
 26 27  1  0
 19 28  1  0
 28 29  2  0
 14 30  2  0
  7 31  1  0
 31 32  1  0
 32  4  1  0
 30 10  1  0
 28 15  1  0
 26 21  2  0
M  CHG  3  22  -1  25  -1  27  -1
M  END
>  <UniqueID>  (1200) 
22

>  <SMILES>  (1200) 
C=CCN1CCN(C(=O)c2cccc(-n3c(C)cc(=Cc4[n-]c(=O)[n-]c4[O-])c3=C)c2)CC1

>  <Energy>  (1200) 
140.22320507479506

>  <Genealogy>  (1200) 
C=CCN1CCN(C(=O)c2cccc(-n3c(C)cc(=Cc4[n-]c(=O)[n-]c4[O-])c3=C)c2)CC1 (protonated)
C=CCN1CCN(C(=O)c2cccc(-n3c(C)cc(=Cc4[n-]c(=O)[n-]c4[O-])c3=C)c2)CC1 (3D coordinates assigned)
C=CCN1CCN(C(=O)c2cccc(-n3c(C)cc(=Cc4[n-]c(=O)[n-]c4[O-])c3=C)c2)CC1 (nonaromatic ring conformer: 140.22320507479506 kcal/mol)

>  <smiles>  (1200) 
C=CCN1CCN(C(=O)c2cccc(-n3c(C)cc(=Cc4[nH]c(=O)[nH]c4O)c3=C)c2)CC1

>  <score_type>  (1200) 
oracle

>  <origin>  (1200) 
adg

>  <m_score__min__energy>  (1200) 
-17.32

>  <m_primary>  (1200) 
energy

$$$$
30:0
     RDKit          3D

 29 31  0  0  0  0  0  0  0  0999 V2000
   62.8200   33.8470   47.7410 C   0  0  0  0  0  0  0  0  0  0  0  0
   61.5830   33.3800   47.0340 C   0  0  0  0  0  0  0  0  0  0  0  0
   60.7590   34.3040   46.3710 C   0  0  0  0  0  0  0  0  0  0  0  0
   59.5860   33.8770   45.7410 C   0  0  0  0  0  0  0  0  0  0  0  0
   59.2200   32.5240   45.7740 C   0  0  0  0  0  0  0  0  0  0  0  0
   57.7350   31.9870   44.9970 S   0  0  0  0  0  0  0  0  0  0  0  0
   56.6410   32.9860   45.2510 O   0  0  0  0  0  0  0  0  0  0  0  0
   57.9670   31.8790   43.5160 O   0  0  0  0  0  0  0  0  0  0  0  0
   57.2970   30.4400   45.6410 N   0  0  0  0  0  0  0  0  0  0  0  0
   56.5810   29.4530   44.8930 C   0  0  0  0  0  0  0  0  0  0  0  0
   55.3820   29.6670   44.5830 O   0  0  0  0  0  0  0  0  0  0  0  0
   57.1840   28.1980   44.5590 N   0  0  0  0  0  0  0  0  0  0  0  0
   57.9150   27.4250   45.3160 C   0  0  0  0  0  0  0  0  0  0  0  0
   59.2490   27.8030   45.5150 C   0  0  0  0  0  0  0  0  0  0  0  0
   60.1140   26.9800   46.2350 C   0  0  0  0  0  0  0  0  0  0  0  0
   59.6640   25.8140   46.7620 N   0  0  0  0  0  0  0  0  0  0  0  0
   58.3710   25.4230   46.6260 C   0  0  0  0  0  0  0  0  0  0  0  0
   57.4510   26.2240   45.9310 C   0  0  0  0  0  0  0  0  0  0  0  0
   56.0320   25.8200   45.9920 C   0  0  0  0  0  0  0  0  0  0  0  0
   55.1410   26.7080   46.0210 O   0  0  0  0  0  0  0  0  0  0  0  0
   55.6410   24.4410   45.9480 N   0  0  0  0  0  0  0  0  0  0  0  0
   55.1300   23.7540   44.7650 C   0  0  0  0  0  0  0  0  0  0  0  0
   56.1630   22.8300   44.2010 C   0  0  0  0  0  0  0  0  0  0  0  0
   57.5030   22.8180   44.5320 C   0  0  0  0  0  0  0  0  0  0  0  0
   58.0570   21.7990   43.7880 C   0  0  0  0  0  0  0  0  0  0  0  0
   57.0240   21.2560   43.0500 C   0  0  0  0  0  0  0  0  0  0  0  0
   55.9070   21.8940   43.3180 O   0  0  0  0  0  0  0  0  0  0  0  0
   60.0280   31.6060   46.4580 C   0  0  0  0  0  0  0  0  0  0  0  0
   61.2010   32.0310   47.0880 C   0  0  0  0  0  0  0  0  0  0  0  0
  1  2  1  0
  2  3  2  0
  3  4  1  0
  4  5  2  0
  5  6  1  0
  6  7  2  0
  6  8  2  0
  6  9  1  0
  9 10  1  0
 10 11  2  0
 10 12  1  0
 12 13  2  3
 13 14  1  0
 14 15  2  0
 15 16  1  0
 16 17  1  0
 17 18  2  0
 18 19  1  0
 19 20  2  0
 19 21  1  0
 21 22  1  0
 22 23  1  0
 23 24  2  0
 24 25  1  0
 25 26  2  0
 26 27  1  0
  5 28  1  0
 28 29  2  0
 29  2  1  0
 18 13  1  0
 27 23  1  0
M  CHG  3   9  -1  16  -1  21  -1
M  END
>  <UniqueID>  (1201) 
31

>  <SMILES>  (1201) 
Cc1ccc(S(=O)(=O)[N-]C(=O)N=c2cc[n-]cc2C(=O)[N-]Cc2ccco2)cc1

>  <Energy>  (1201) 
92.52418023220471

>  <Genealogy>  (1201) 
Cc1ccc(S(=O)(=O)[N-]C(=O)N=c2cc[n-]cc2C(=O)[N-]Cc2ccco2)cc1 (protonated)
Cc1ccc(S(=O)(=O)[N-]C(=O)N=c2cc[n-]cc2C(=O)[N-]Cc2ccco2)cc1 (3D coordinates assigned)
Cc1ccc(S(=O)(=O)[N-]C(=O)N=c2cc[n-]cc2C(=O)[N-]Cc2ccco2)cc1 (optimized conformer: 92.52418023220471 kcal/mol)

>  <smiles>  (1201) 
Cc1ccc(S(=O)(=O)NC(=O)N=c2cc[nH]cc2C(=O)NCc2ccco2)cc1

>  <score_type>  (1201) 
oracle

>  <origin>  (1201) 
adg

>  <m_score__min__energy>  (1201) 
-14.08

>  <m_primary>  (1201) 
energy

$$$$
36:0
     RDKit          3D

 28 31  0  0  0  0  0  0  0  0999 V2000
   56.1720   30.5140   52.0700 C   0  0  0  0  0  0  0  0  0  0  0  0
   55.1820   29.9970   52.8160 C   0  0  0  0  0  0  0  0  0  0  0  0
   53.8600   30.4580   52.8870 C   0  0  0  0  0  0  0  0  0  0  0  0
   53.3310   31.5010   52.2110 C   0  0  0  0  0  0  0  0  0  0  0  0
   52.3630   31.4050   51.0950 C   0  0  0  0  0  0  0  0  0  0  0  0
   52.3660   30.4750   50.1220 N   0  0  0  0  0  0  0  0  0  0  0  0
   51.3290   30.8350   49.3360 C   0  0  0  0  0  0  0  0  0  0  0  0
   51.0050   30.1910   48.3050 O   0  0  0  0  0  0  0  0  0  0  0  0
   50.6700   31.9400   49.7410 N   0  0  0  0  0  0  0  0  0  0  0  0
   51.3390   32.2900   50.8510 C   0  0  0  0  0  0  0  0  0  0  0  0
   51.0200   33.3980   51.6260 O   0  0  0  0  0  0  0  0  0  0  0  0
   53.2190   29.6430   53.8150 C   0  0  0  0  0  0  0  0  0  0  0  0
   54.1530   28.7250   54.2520 C   0  0  0  0  0  0  0  0  0  0  0  0
   53.8920   27.6690   55.2840 C   0  0  0  0  0  0  0  0  0  0  0  0
   55.3430   28.9400   53.6520 N   0  0  0  0  0  0  0  0  0  0  0  0
   56.5440   28.1800   53.8760 C   0  0  0  0  0  0  0  0  0  0  0  0
   56.5170   26.7810   53.8660 C   0  0  0  0  0  0  0  0  0  0  0  0
   55.3520   26.1180   53.6510 F   0  0  0  0  0  0  0  0  0  0  0  0
   57.6900   26.0610   54.0940 C   0  0  0  0  0  0  0  0  0  0  0  0
   58.8890   26.7470   54.3420 C   0  0  0  0  0  0  0  0  0  0  0  0
   60.1100   26.0200   54.5780 N   0  0  0  0  0  0  0  0  0  0  0  0
   60.6350   25.8560   55.9400 C   0  0  0  0  0  0  0  0  0  0  0  0
   62.1360   26.2110   55.9950 C   0  0  0  0  0  0  0  0  0  0  0  0
   62.8090   26.1050   54.6850 N   0  0  0  0  0  0  0  0  0  0  0  0
   62.2520   25.0240   53.8670 C   0  0  0  0  0  0  0  0  0  0  0  0
   60.8190   25.3830   53.4610 C   0  0  0  0  0  0  0  0  0  0  0  0
   58.8920   28.1140   54.3450 N   0  0  0  0  0  0  0  0  0  0  0  0
   57.7570   28.8330   54.1230 C   0  0  0  0  0  0  0  0  0  0  0  0
  1  2  2  0
  2  3  1  0
  3  4  2  0
  4  5  1  0
  5  6  1  0
  6  7  1  0
  7  8  2  0
  7  9  1  0
  9 10  1  0
 10 11  1  0
  3 12  1  0
 12 13  2  0
 13 14  1  0
 13 15  1  0
 15 16  1  0
 16 17  2  0
 17 18  1  0
 17 19  1  0
 19 20  2  0
 20 21  1  0
 21 22  1  0
 22 23  1  0
 23 24  1  0
 24 25  1  0
 25 26  1  0
 20 27  1  0
 27 28  2  0
 15  2  1  0
 28 16  1  0
 10  5  2  0
 26 21  1  0
M  CHG  4   6  -1   9  -1  11  -1  27   1
M  END
>  <UniqueID>  (1202) 
36

>  <SMILES>  (1202) 
C=c1/c(=C/c2[n-]c(=O)[n-]c2[O-])cc(C)n1-c1c[nH+]c(N2CCNCC2)cc1F

>  <Energy>  (1202) 
126.28705352260465

>  <Genealogy>  (1202) 
C=c1c(=Cc2[n-]c(=O)[n-]c2[O-])cc(C)n1-c1c[nH+]c(N2CCNCC2)cc1F (protonated)
C=c1/c(=C/c2[n-]c(=O)[n-]c2[O-])cc(C)n1-c1c[nH+]c(N2CCNCC2)cc1F (cis-trans isomerization)
C=c1/c(=C/c2[n-]c(=O)[n-]c2[O-])cc(C)n1-c1c[nH+]c(N2CCNCC2)cc1F (3D coordinates assigned)
C=c1/c(=C/c2[n-]c(=O)[n-]c2[O-])cc(C)n1-c1c[nH+]c(N2CCNCC2)cc1F (nonaromatic ring conformer: 126.28705352260465 kcal/mol)

>  <smiles>  (1202) 
C=c1c(=Cc2[nH]c(=O)[nH]c2O)cc(C)n1-c1cnc(N2CCNCC2)cc1F

>  <score_type>  (1202) 
oracle

>  <origin>  (1202) 
adg

>  <m_score__min__energy>  (1202) 
-14.23

>  <m_primary>  (1202) 
energy

$$$$
50:0
     RDKit          3D

 28 30  0  0  0  0  0  0  0  0999 V2000
   58.3290   27.8750   45.2150 C   0  0  0  0  0  0  0  0  0  0  0  0
   59.4360   28.1280   45.8530 N   0  0  0  0  0  0  0  0  0  0  0  0
   59.6340   28.2460   47.2740 C   0  0  0  0  0  0  0  0  0  0  0  0
   60.3080   27.2280   47.9750 C   0  0  0  0  0  0  0  0  0  0  0  0
   60.5860   27.3680   49.3320 C   0  0  0  0  0  0  0  0  0  0  0  0
   60.2230   28.5410   49.9840 C   0  0  0  0  0  0  0  0  0  0  0  0
   59.6030   29.5350   49.2970 N   0  0  0  0  0  0  0  0  0  0  0  0
   59.2930   29.4380   47.9750 C   0  0  0  0  0  0  0  0  0  0  0  0
   58.7010   30.4640   47.4230 N   0  0  0  0  0  0  0  0  0  0  0  0
   59.2790   31.7210   47.0500 C   0  0  0  0  0  0  0  0  0  0  0  0
   60.5600   32.0570   47.4990 C   0  0  0  0  0  0  0  0  0  0  0  0
   61.1340   33.2930   47.1440 C   0  0  0  0  0  0  0  0  0  0  0  0
   62.4220   33.6680   47.5540 O   0  0  0  0  0  0  0  0  0  0  0  0
   63.5820   32.8560   47.4050 C   0  0  0  0  0  0  0  0  0  0  0  0
   60.4030   34.1860   46.3500 C   0  0  0  0  0  0  0  0  0  0  0  0
   59.1030   33.8630   45.9170 C   0  0  0  0  0  0  0  0  0  0  0  0
   58.3350   34.7320   45.1270 O   0  0  0  0  0  0  0  0  0  0  0  0
   56.9430   34.5720   44.8750 C   0  0  0  0  0  0  0  0  0  0  0  0
   58.5450   32.6350   46.2840 C   0  0  0  0  0  0  0  0  0  0  0  0
   57.3660   26.8150   45.5970 C   0  0  0  0  0  0  0  0  0  0  0  0
   55.9910   27.0950   45.6150 C   0  0  0  0  0  0  0  0  0  0  0  0
   55.5200   28.3490   45.2470 O   0  0  0  0  0  0  0  0  0  0  0  0
   55.1060   26.1310   45.9810 N   0  0  0  0  0  0  0  0  0  0  0  0
   55.5280   24.8950   46.3480 C   0  0  0  0  0  0  0  0  0  0  0  0
   54.6890   24.0170   46.6770 O   0  0  0  0  0  0  0  0  0  0  0  0
   56.8530   24.6070   46.3680 N   0  0  0  0  0  0  0  0  0  0  0  0
   57.7790   25.5350   46.0130 C   0  0  0  0  0  0  0  0  0  0  0  0
   59.0020   25.2400   46.0810 O   0  0  0  0  0  0  0  0  0  0  0  0
  1  2  2  3
  2  3  1  0
  3  4  2  0
  4  5  1  0
  5  6  2  0
  6  7  1  0
  7  8  1  0
  8  9  2  0
  9 10  1  0
 10 11  2  0
 11 12  1  0
 12 13  1  0
 13 14  1  0
 12 15  2  0
 15 16  1  0
 16 17  1  0
 17 18  1  0
 16 19  2  0
  1 20  1  0
 20 21  2  0
 21 22  1  0
 21 23  1  0
 23 24  1  0
 24 25  2  0
 24 26  1  0
 26 27  1  0
 27 28  2  0
  8  3  1  0
 19 10  1  0
 27 20  1  0
M  CHG  4   7  -1  22  -1  23  -1  26  -1
M  END
>  <UniqueID>  (1203) 
50

>  <SMILES>  (1203) 
COc1cc(/N=c2/[n-]cccc2N=Cc2c([O-])[n-]c(=O)[n-]c2=O)cc(OC)c1

>  <Energy>  (1203) 
70.88070607986423

>  <Genealogy>  (1203) 
COc1cc(N=c2[n-]cccc2N=Cc2c([O-])[n-]c(=O)[n-]c2=O)cc(OC)c1 (protonated)
COc1cc(/N=c2/[n-]cccc2N=Cc2c([O-])[n-]c(=O)[n-]c2=O)cc(OC)c1 (cis-trans isomerization)
COc1cc(/N=c2/[n-]cccc2N=Cc2c([O-])[n-]c(=O)[n-]c2=O)cc(OC)c1 (3D coordinates assigned)
COc1cc(/N=c2/[n-]cccc2N=Cc2c([O-])[n-]c(=O)[n-]c2=O)cc(OC)c1 (optimized conformer: 70.88070607986423 kcal/mol)

>  <smiles>  (1203) 
COc1cc(N=c2[nH]cccc2N=Cc2c(O)[nH]c(=O)[nH]c2=O)cc(OC)c1

>  <score_type>  (1203) 
oracle

>  <origin>  (1203) 
adg

>  <m_score__min__energy>  (1203) 
-15.58

>  <m_primary>  (1203) 
energy

$$$$
74:0
     RDKit          3D

 34 37  0  0  0  0  0  0  0  0999 V2000
   55.0260   29.0180   44.4350 O   0  0  0  0  0  0  0  0  0  0  0  0
   56.1540   29.3560   44.8820 C   0  0  0  0  0  0  0  0  0  0  0  0
   56.5290   30.7390   44.8360 N   0  0  0  0  0  0  0  0  0  0  0  0
   57.2100   31.3980   43.7250 C   0  0  0  0  0  0  0  0  0  0  0  0
   58.1570   32.4900   44.2410 C   0  0  0  0  0  0  0  0  0  0  0  0
   57.4600   33.4370   45.2320 C   0  0  0  0  0  0  0  0  0  0  0  0
   58.1450   33.4910   46.5460 N   0  0  0  0  0  0  0  0  0  0  0  0
   59.2830   34.4480   46.5250 C   0  0  0  0  0  0  0  0  0  0  0  0
   60.2450   34.2410   47.7020 C   0  0  0  0  0  0  0  0  0  0  0  0
   60.7130   32.8530   47.7450 N   0  0  0  0  0  0  0  0  0  0  0  0
   61.8240   32.4890   48.5810 C   0  0  0  0  0  0  0  0  0  0  0  0
   63.0020   33.1070   48.4300 C   0  0  0  0  0  0  0  0  0  0  0  0
   64.1570   32.7620   49.2710 C   0  0  0  0  0  0  0  0  0  0  0  0
   65.2300   33.4110   49.1400 O   0  0  0  0  0  0  0  0  0  0  0  0
   64.0590   31.6480   50.2430 C   0  0  0  0  0  0  0  0  0  0  0  0
   65.1690   31.2850   51.0220 C   0  0  0  0  0  0  0  0  0  0  0  0
   65.0820   30.2270   51.9240 C   0  0  0  0  0  0  0  0  0  0  0  0
   66.5960   29.7500   52.9860 Br  0  0  0  0  0  0  0  0  0  0  0  0
   63.8990   29.4980   52.0320 C   0  0  0  0  0  0  0  0  0  0  0  0
   62.7860   29.8190   51.2470 C   0  0  0  0  0  0  0  0  0  0  0  0
   61.6750   28.9760   51.3440 O   0  0  0  0  0  0  0  0  0  0  0  0
   62.8380   30.9420   50.3770 C   0  0  0  0  0  0  0  0  0  0  0  0
   61.6540   31.4500   49.6240 C   0  0  0  0  0  0  0  0  0  0  0  0
   60.4880   31.0770   49.9150 O   0  0  0  0  0  0  0  0  0  0  0  0
   59.9990   31.8310   46.9800 C   0  0  0  0  0  0  0  0  0  0  0  0
   58.4960   32.1250   47.0270 C   0  0  0  0  0  0  0  0  0  0  0  0
   57.0480   28.3180   45.4320 C   0  0  0  0  0  0  0  0  0  0  0  0
   58.4360   28.5290   45.4640 C   0  0  0  0  0  0  0  0  0  0  0  0
   59.2860   27.5570   45.9990 C   0  0  0  0  0  0  0  0  0  0  0  0
   58.7560   26.3720   46.5160 C   0  0  0  0  0  0  0  0  0  0  0  0
   57.3750   26.1580   46.5060 C   0  0  0  0  0  0  0  0  0  0  0  0
   56.8550   24.9800   47.0300 O   0  0  0  0  0  0  0  0  0  0  0  0
   56.5170   27.1290   45.9690 C   0  0  0  0  0  0  0  0  0  0  0  0
   55.1440   26.9020   45.9600 O   0  0  0  0  0  0  0  0  0  0  0  0
  1  2  2  0
  2  3  1  0
  3  4  1  0
  4  5  1  0
  5  6  1  0
  6  7  1  0
  7  8  1  0
  8  9  1  0
  9 10  1  0
 10 11  1  0
 11 12  2  0
 12 13  1  0
 13 14  2  0
 13 15  1  0
 15 16  2  0
 16 17  1  0
 17 18  1  0
 17 19  2  0
 19 20  1  0
 20 21  1  0
 20 22  2  0
 22 23  1  0
 23 24  2  0
 10 25  1  0
 25 26  1  0
  2 27  1  0
 27 28  2  0
 28 29  1  0
 29 30  2  0
 30 31  1  0
 31 32  1  0
 31 33  2  0
 33 34  1  0
 26  7  1  0
 33 27  1  0
 23 11  1  0
 22 15  1  0
M  CHG  3   3  -1  32  -1  34  -1
M  END
>  <UniqueID>  (1204) 
73

>  <SMILES>  (1204) 
O=C([N-]CCCN1CCN(C2=CC(=O)c3cc(Br)cc(O)c3C2=O)CC1)c1cccc([O-])c1[O-]

>  <Energy>  (1204) 
80.58400414494056

>  <Genealogy>  (1204) 
O=C([N-]CCCN1CCN(C2=CC(=O)c3cc(Br)cc(O)c3C2=O)CC1)c1cccc([O-])c1[O-] (protonated)
O=C([N-]CCCN1CCN(C2=CC(=O)c3cc(Br)cc(O)c3C2=O)CC1)c1cccc([O-])c1[O-] (3D coordinates assigned)
O=C([N-]CCCN1CCN(C2=CC(=O)c3cc(Br)cc(O)c3C2=O)CC1)c1cccc([O-])c1[O-] (nonaromatic ring conformer: 80.58400414494056 kcal/mol)

>  <smiles>  (1204) 
O=C(NCCCN1CCN(C2=CC(=O)c3cc(Br)cc(O)c3C2=O)CC1)c1cccc(O)c1O

>  <score_type>  (1204) 
oracle

>  <origin>  (1204) 
adg

>  <m_score__min__energy>  (1204) 
-17.149999999999999

>  <m_primary>  (1204) 
energy

$$$$
88:0
     RDKit          3D

 29 31  0  0  0  0  0  0  0  0999 V2000
   55.5580   29.8200   43.1260 O   0  0  0  0  0  0  0  0  0  0  0  0
   55.7950   29.9470   44.3550 C   0  0  0  0  0  0  0  0  0  0  0  0
   56.3730   31.1660   44.8310 N   0  0  0  0  0  0  0  0  0  0  0  0
   57.4600   31.8740   44.1630 C   0  0  0  0  0  0  0  0  0  0  0  0
   58.0700   32.8570   45.1180 C   0  0  0  0  0  0  0  0  0  0  0  0
   58.6720   34.0320   44.6360 C   0  0  0  0  0  0  0  0  0  0  0  0
   59.2700   34.9320   45.5230 C   0  0  0  0  0  0  0  0  0  0  0  0
   59.2820   34.6600   46.8940 C   0  0  0  0  0  0  0  0  0  0  0  0
   58.7000   33.4860   47.3800 C   0  0  0  0  0  0  0  0  0  0  0  0
   58.7200   33.2210   48.7100 F   0  0  0  0  0  0  0  0  0  0  0  0
   58.1000   32.5830   46.4960 C   0  0  0  0  0  0  0  0  0  0  0  0
   55.5340   28.8440   45.2320 N   0  0  0  0  0  0  0  0  0  0  0  0
   56.4680   27.8000   45.5430 C   0  0  0  0  0  0  0  0  0  0  0  0
   57.8520   28.0350   45.5280 C   0  0  0  0  0  0  0  0  0  0  0  0
   58.7410   27.0160   45.8640 C   0  0  0  0  0  0  0  0  0  0  0  0
   58.2650   25.7540   46.2300 C   0  0  0  0  0  0  0  0  0  0  0  0
   59.1820   24.7660   46.5710 O   0  0  0  0  0  0  0  0  0  0  0  0
   56.8780   25.5030   46.2570 C   0  0  0  0  0  0  0  0  0  0  0  0
   56.2330   23.9230   46.7390 S   0  0  0  0  0  0  0  0  0  0  0  0
   57.3630   23.1100   47.3090 O   0  0  0  0  0  0  0  0  0  0  0  0
   55.1860   24.0720   47.8050 O   0  0  0  0  0  0  0  0  0  0  0  0
   55.5730   23.0900   45.3460 N   0  0  0  0  0  0  0  0  0  0  0  0
   56.3220   21.8590   45.0350 C   0  0  0  0  0  0  0  0  0  0  0  0
   57.6940   22.1540   44.3800 C   0  0  0  0  0  0  0  0  0  0  0  0
   57.7980   23.4630   43.8490 O   0  0  0  0  0  0  0  0  0  0  0  0
   56.6120   23.8110   43.1720 C   0  0  0  0  0  0  0  0  0  0  0  0
   55.4550   23.9850   44.1740 C   0  0  0  0  0  0  0  0  0  0  0  0
   55.9850   26.5410   45.9280 C   0  0  0  0  0  0  0  0  0  0  0  0
   54.6100   26.3260   45.9820 O   0  0  0  0  0  0  0  0  0  0  0  0
  1  2  2  0
  2  3  1  0
  3  4  1  0
  4  5  1  0
  5  6  2  0
  6  7  1  0
  7  8  2  0
  8  9  1  0
  9 10  1  0
  9 11  2  0
  2 12  1  0
 12 13  1  0
 13 14  2  0
 14 15  1  0
 15 16  2  0
 16 17  1  0
 16 18  1  0
 18 19  1  0
 19 20  2  0
 19 21  2  0
 19 22  1  0
 22 23  1  0
 23 24  1  0
 24 25  1  0
 25 26  1  0
 26 27  1  0
 18 28  2  0
 28 29  1  0
 11  5  1  0
 28 13  1  0
 27 22  1  0
M  CHG  4   3  -1  12  -1  17  -1  29  -1
M  END
>  <UniqueID>  (1205) 
87

>  <SMILES>  (1205) 
O=C([N-]Cc1cccc(F)c1)[N-]c1ccc([O-])c(S(=O)(=O)N2CCOCC2)c1[O-]

>  <Energy>  (1205) 
64.1614057383606

>  <Genealogy>  (1205) 
O=C([N-]Cc1cccc(F)c1)[N-]c1ccc([O-])c(S(=O)(=O)N2CCOCC2)c1[O-] (protonated)
O=C([N-]Cc1cccc(F)c1)[N-]c1ccc([O-])c(S(=O)(=O)N2CCOCC2)c1[O-] (3D coordinates assigned)
O=C([N-]Cc1cccc(F)c1)[N-]c1ccc([O-])c(S(=O)(=O)N2CCOCC2)c1[O-] (nonaromatic ring conformer: 64.1614057383606 kcal/mol)

>  <smiles>  (1205) 
O=C(NCc1cccc(F)c1)Nc1ccc(O)c(S(=O)(=O)N2CCOCC2)c1O

>  <score_type>  (1205) 
oracle

>  <origin>  (1205) 
adg

>  <m_score__min__energy>  (1205) 
-18.170000000000002

>  <m_primary>  (1205) 
energy

$$$$
90:0
     RDKit          3D

 25 27  0  0  0  0  0  0  0  0999 V2000
   62.8910   30.1620   51.3350 N   0  0  0  0  0  0  0  0  0  0  0  0
   62.2440   29.0220   52.4600 S   0  0  0  0  0  0  0  0  0  0  0  0
   62.8340   29.2680   53.8210 O   0  0  0  0  0  0  0  0  0  0  0  0
   62.6030   27.6310   52.0230 O   0  0  0  0  0  0  0  0  0  0  0  0
   60.4930   29.1930   52.5290 C   0  0  0  0  0  0  0  0  0  0  0  0
   59.7970   29.7750   51.4610 C   0  0  0  0  0  0  0  0  0  0  0  0
   58.4080   29.9200   51.5220 C   0  0  0  0  0  0  0  0  0  0  0  0
   57.7020   29.4910   52.6560 C   0  0  0  0  0  0  0  0  0  0  0  0
   56.2720   29.6450   52.7260 N   0  0  0  0  0  0  0  0  0  0  0  0
   55.3920   28.6900   53.1000 C   0  0  0  0  0  0  0  0  0  0  0  0
   55.7550   27.2920   53.5010 C   0  0  0  0  0  0  0  0  0  0  0  0
   54.1070   29.1920   53.0900 C   0  0  0  0  0  0  0  0  0  0  0  0
   54.1890   30.5000   52.6420 C   0  0  0  0  0  0  0  0  0  0  0  0
   53.1020   31.2670   52.4310 C   0  0  0  0  0  0  0  0  0  0  0  0
   52.3290   31.3310   51.1800 C   0  0  0  0  0  0  0  0  0  0  0  0
   52.3350   30.3830   50.2250 N   0  0  0  0  0  0  0  0  0  0  0  0
   51.3870   30.8050   49.3600 C   0  0  0  0  0  0  0  0  0  0  0  0
   51.1040   30.1790   48.3060 O   0  0  0  0  0  0  0  0  0  0  0  0
   50.7610   31.9470   49.7180 N   0  0  0  0  0  0  0  0  0  0  0  0
   51.3600   32.2570   50.8800 C   0  0  0  0  0  0  0  0  0  0  0  0
   51.0230   33.3600   51.6530 O   0  0  0  0  0  0  0  0  0  0  0  0
   55.5570   30.7700   52.4710 C   0  0  0  0  0  0  0  0  0  0  0  0
   56.1220   31.9710   52.2690 C   0  0  0  0  0  0  0  0  0  0  0  0
   58.4010   28.9160   53.7280 C   0  0  0  0  0  0  0  0  0  0  0  0
   59.7900   28.7700   53.6660 C   0  0  0  0  0  0  0  0  0  0  0  0
  1  2  1  0
  2  3  2  0
  2  4  2  0
  2  5  1  0
  5  6  2  0
  6  7  1  0
  7  8  2  0
  8  9  1  0
  9 10  1  0
 10 11  1  0
 10 12  2  0
 12 13  1  0
 13 14  2  0
 14 15  1  0
 15 16  1  0
 16 17  1  0
 17 18  2  0
 17 19  1  0
 19 20  1  0
 20 21  1  0
 13 22  1  0
 22 23  2  0
  8 24  1  0
 24 25  2  0
 25  5  1  0
 22  9  1  0
 20 15  2  0
M  CHG  4   1  -1  16  -1  19  -1  21  -1
M  END
>  <UniqueID>  (1206) 
89

>  <SMILES>  (1206) 
C=c1/c(=C\c2[n-]c(=O)[n-]c2[O-])cc(C)n1-c1ccc(S([NH-])(=O)=O)cc1

>  <Energy>  (1206) 
113.64635832691013

>  <Genealogy>  (1206) 
C=c1c(=Cc2[n-]c(=O)[n-]c2[O-])cc(C)n1-c1ccc(S([NH-])(=O)=O)cc1 (protonated)
C=c1/c(=C\c2[n-]c(=O)[n-]c2[O-])cc(C)n1-c1ccc(S([NH-])(=O)=O)cc1 (cis-trans isomerization)
C=c1/c(=C\c2[n-]c(=O)[n-]c2[O-])cc(C)n1-c1ccc(S([NH-])(=O)=O)cc1 (3D coordinates assigned)
C=c1/c(=C\c2[n-]c(=O)[n-]c2[O-])cc(C)n1-c1ccc(S([NH-])(=O)=O)cc1 (optimized conformer: 113.64635832691013 kcal/mol)

>  <smiles>  (1206) 
C=c1c(=Cc2[nH]c(=O)[nH]c2O)cc(C)n1-c1ccc(S(N)(=O)=O)cc1

>  <score_type>  (1206) 
oracle

>  <origin>  (1206) 
adg

>  <m_score__min__energy>  (1206) 
-15.67

>  <m_primary>  (1206) 
energy

$$$$
11:0
     RDKit          3D

 25 27  0  0  0  0  0  0  0  0999 V2000
   60.0180   34.6740   45.7990 N   0  0  0  0  0  0  0  0  0  0  0  0
   60.8000   34.1180   46.4480 C   0  0  0  0  0  0  0  0  0  0  0  0
   61.7760   33.4290   47.2560 C   0  0  0  0  0  0  0  0  0  0  0  0
   62.9180   34.1260   47.6790 C   0  0  0  0  0  0  0  0  0  0  0  0
   63.9090   33.4720   48.4190 C   0  0  0  0  0  0  0  0  0  0  0  0
   63.7680   32.1200   48.7420 C   0  0  0  0  0  0  0  0  0  0  0  0
   62.6340   31.4200   48.3240 C   0  0  0  0  0  0  0  0  0  0  0  0
   61.6280   32.0620   47.5810 C   0  0  0  0  0  0  0  0  0  0  0  0
   60.4940   31.2990   47.1270 N   0  0  0  0  0  0  0  0  0  0  0  0
   60.6690   30.0820   46.3250 C   0  0  0  0  0  0  0  0  0  0  0  0
   59.6900   30.0910   45.1530 C   0  0  0  0  0  0  0  0  0  0  0  0
   58.3400   30.4230   45.6280 N   0  0  0  0  0  0  0  0  0  0  0  0
   57.1790   29.8020   45.0390 C   0  0  0  0  0  0  0  0  0  0  0  0
   56.2290   30.5210   44.6070 O   0  0  0  0  0  0  0  0  0  0  0  0
   57.0210   28.3030   45.0300 C   0  0  0  0  0  0  0  0  0  0  0  0
   57.7610   27.6640   46.2090 C   0  0  0  0  0  0  0  0  0  0  0  0
   57.1950   26.3170   46.5480 C   0  0  0  0  0  0  0  0  0  0  0  0
   57.9310   25.2790   46.9830 N   0  0  0  0  0  0  0  0  0  0  0  0
   57.0190   24.2900   47.1140 C   0  0  0  0  0  0  0  0  0  0  0  0
   57.3270   23.1370   47.5140 O   0  0  0  0  0  0  0  0  0  0  0  0
   55.7550   24.6340   46.7880 N   0  0  0  0  0  0  0  0  0  0  0  0
   55.8850   25.9200   46.4280 C   0  0  0  0  0  0  0  0  0  0  0  0
   54.8210   26.7150   46.0150 O   0  0  0  0  0  0  0  0  0  0  0  0
   58.1860   31.6530   46.4130 C   0  0  0  0  0  0  0  0  0  0  0  0
   59.1500   31.6420   47.5940 C   0  0  0  0  0  0  0  0  0  0  0  0
  1  2  3  0
  2  3  1  0
  3  4  2  0
  4  5  1  0
  5  6  2  0
  6  7  1  0
  7  8  2  0
  8  9  1  0
  9 10  1  0
 10 11  1  0
 11 12  1  0
 12 13  1  0
 13 14  2  0
 13 15  1  0
 15 16  1  0
 16 17  1  0
 17 18  1  0
 18 19  1  0
 19 20  2  0
 19 21  1  0
 21 22  1  0
 22 23  1  0
 12 24  1  0
 24 25  1  0
  8  3  1  0
 25  9  1  0
 22 17  2  0
M  CHG  3  18  -1  21  -1  23  -1
M  END
>  <UniqueID>  (1207) 
11

>  <SMILES>  (1207) 
N#Cc1ccccc1N1CCN(C(=O)CCc2[n-]c(=O)[n-]c2[O-])CC1

>  <Energy>  (1207) 
74.88926099967401

>  <Genealogy>  (1207) 
N#Cc1ccccc1N1CCN(C(=O)CCc2[n-]c(=O)[n-]c2[O-])CC1 (protonated)
N#Cc1ccccc1N1CCN(C(=O)CCc2[n-]c(=O)[n-]c2[O-])CC1 (3D coordinates assigned)
N#Cc1ccccc1N1CCN(C(=O)CCc2[n-]c(=O)[n-]c2[O-])CC1 (nonaromatic ring conformer: 74.88926099967401 kcal/mol)

>  <smiles>  (1207) 
N#Cc1ccccc1N1CCN(C(=O)CCc2[nH]c(=O)[nH]c2O)CC1

>  <score_type>  (1207) 
oracle

>  <origin>  (1207) 
adg

>  <m_score__min__energy>  (1207) 
-16.420000000000002

>  <m_primary>  (1207) 
energy

$$$$
16:0
     RDKit          3D

 25 27  0  0  0  0  0  0  0  0999 V2000
   60.1320   32.9050   49.4460 C   0  0  0  0  0  0  0  0  0  0  0  0
   58.9020   33.0770   48.9370 C   0  0  0  0  0  0  0  0  0  0  0  0
   58.6000   33.3480   47.5140 C   0  0  0  0  0  0  0  0  0  0  0  0
   59.1540   34.4760   46.9010 C   0  0  0  0  0  0  0  0  0  0  0  0
   58.8580   34.7200   45.5620 C   0  0  0  0  0  0  0  0  0  0  0  0
   59.3230   35.7380   44.9860 O   0  0  0  0  0  0  0  0  0  0  0  0
   58.0630   33.8610   44.8770 N   0  0  0  0  0  0  0  0  0  0  0  0
   57.5490   32.7480   45.4690 C   0  0  0  0  0  0  0  0  0  0  0  0
   56.7880   31.9220   44.8090 N   0  0  0  0  0  0  0  0  0  0  0  0
   57.2050   30.8190   43.9840 C   0  0  0  0  0  0  0  0  0  0  0  0
   57.3120   30.9670   42.7360 O   0  0  0  0  0  0  0  0  0  0  0  0
   57.5130   29.4950   44.5930 C   0  0  0  0  0  0  0  0  0  0  0  0
   58.8570   29.0840   44.7070 C   0  0  0  0  0  0  0  0  0  0  0  0
   59.1800   27.8460   45.2690 C   0  0  0  0  0  0  0  0  0  0  0  0
   58.1710   26.9990   45.7260 C   0  0  0  0  0  0  0  0  0  0  0  0
   56.8350   27.3880   45.6220 C   0  0  0  0  0  0  0  0  0  0  0  0
   56.4970   28.6250   45.0610 C   0  0  0  0  0  0  0  0  0  0  0  0
   55.1510   28.9680   44.9790 O   0  0  0  0  0  0  0  0  0  0  0  0
   57.8310   32.4920   46.7780 N   0  0  0  0  0  0  0  0  0  0  0  0
   61.3840   32.8390   48.6570 C   0  0  0  0  0  0  0  0  0  0  0  0
   61.6590   31.6830   47.9100 C   0  0  0  0  0  0  0  0  0  0  0  0
   62.8270   31.5980   47.1450 C   0  0  0  0  0  0  0  0  0  0  0  0
   63.7190   32.6720   47.1060 C   0  0  0  0  0  0  0  0  0  0  0  0
   63.4400   33.8380   47.8240 C   0  0  0  0  0  0  0  0  0  0  0  0
   62.2720   33.9290   48.5870 C   0  0  0  0  0  0  0  0  0  0  0  0
  1  2  2  0
  2  3  1  0
  3  4  2  0
  4  5  1  0
  5  6  2  0
  5  7  1  0
  7  8  1  0
  8  9  2  0
  9 10  1  0
 10 11  2  0
 10 12  1  0
 12 13  2  0
 13 14  1  0
 14 15  2  0
 15 16  1  0
 16 17  2  0
 17 18  1  0
  8 19  1  0
  1 20  1  0
 20 21  2  0
 21 22  1  0
 22 23  2  0
 23 24  1  0
 24 25  2  0
 19  3  1  0
 25 20  1  0
 17 12  1  0
M  CHG  2   7  -1  18  -1
M  END
>  <UniqueID>  (1208) 
15

>  <SMILES>  (1208) 
O=C(/N=c1\[n-]c(=O)cc(/C=C\c2ccccc2)[nH]1)c1ccccc1[O-]

>  <Energy>  (1208) 
56.028406884628964

>  <Genealogy>  (1208) 
O=C(N=c1[n-]c(=O)cc(C=Cc2ccccc2)[nH]1)c1ccccc1[O-] (protonated)
O=C(/N=c1\[n-]c(=O)cc(/C=C\c2ccccc2)[nH]1)c1ccccc1[O-] (cis-trans isomerization)
O=C(/N=c1\[n-]c(=O)cc(/C=C\c2ccccc2)[nH]1)c1ccccc1[O-] (3D coordinates assigned)
O=C(/N=c1\[n-]c(=O)cc(/C=C\c2ccccc2)[nH]1)c1ccccc1[O-] (optimized conformer: 56.028406884628964 kcal/mol)

>  <smiles>  (1208) 
O=C(N=c1[nH]c(C=Cc2ccccc2)cc(=O)[nH]1)c1ccccc1O

>  <score_type>  (1208) 
oracle

>  <origin>  (1208) 
adg

>  <m_score__min__energy>  (1208) 
-14.33

>  <m_primary>  (1208) 
energy

$$$$
25:0
     RDKit          3D

 26 28  0  0  0  0  0  0  0  0999 V2000
   58.7960   29.4780   47.8290 O   0  0  0  0  0  0  0  0  0  0  0  0
   58.3760   29.5580   46.6440 C   0  0  0  0  0  0  0  0  0  0  0  0
   58.6310   28.4170   45.6940 C   0  0  0  0  0  0  0  0  0  0  0  0
   57.6240   27.3040   45.8940 C   0  0  0  0  0  0  0  0  0  0  0  0
   56.2560   27.5220   45.6470 C   0  0  0  0  0  0  0  0  0  0  0  0
   55.8010   28.7760   45.2480 O   0  0  0  0  0  0  0  0  0  0  0  0
   55.3680   26.5030   45.7930 N   0  0  0  0  0  0  0  0  0  0  0  0
   55.7730   25.2700   46.1860 C   0  0  0  0  0  0  0  0  0  0  0  0
   54.9330   24.3420   46.3090 O   0  0  0  0  0  0  0  0  0  0  0  0
   57.0830   25.0370   46.4490 N   0  0  0  0  0  0  0  0  0  0  0  0
   58.0130   26.0190   46.3190 C   0  0  0  0  0  0  0  0  0  0  0  0
   59.2170   25.7610   46.5840 O   0  0  0  0  0  0  0  0  0  0  0  0
   57.6100   30.7050   46.2590 N   0  0  0  0  0  0  0  0  0  0  0  0
   57.7650   31.4080   45.0210 C   0  0  0  0  0  0  0  0  0  0  0  0
   57.3920   30.7930   43.8160 C   0  0  0  0  0  0  0  0  0  0  0  0
   57.5660   31.4580   42.6010 C   0  0  0  0  0  0  0  0  0  0  0  0
   58.1210   32.7390   42.5790 C   0  0  0  0  0  0  0  0  0  0  0  0
   58.5050   33.3570   43.7720 C   0  0  0  0  0  0  0  0  0  0  0  0
   58.3280   32.7020   45.0030 C   0  0  0  0  0  0  0  0  0  0  0  0
   58.7430   33.3930   46.2800 C   0  0  0  0  0  0  0  0  0  0  0  0
   60.1920   33.1220   46.5810 C   0  0  0  0  0  0  0  0  0  0  0  0
   61.1560   34.1340   46.4260 C   0  0  0  0  0  0  0  0  0  0  0  0
   62.4980   33.8820   46.7270 C   0  0  0  0  0  0  0  0  0  0  0  0
   62.8860   32.6220   47.1890 C   0  0  0  0  0  0  0  0  0  0  0  0
   61.9350   31.6120   47.3520 C   0  0  0  0  0  0  0  0  0  0  0  0
   60.5920   31.8590   47.0510 C   0  0  0  0  0  0  0  0  0  0  0  0
  1  2  2  0
  2  3  1  0
  3  4  1  0
  4  5  2  0
  5  6  1  0
  5  7  1  0
  7  8  1  0
  8  9  2  0
  8 10  1  0
 10 11  1  0
 11 12  2  0
  2 13  1  0
 13 14  1  0
 14 15  2  0
 15 16  1  0
 16 17  2  0
 17 18  1  0
 18 19  2  0
 19 20  1  0
 20 21  1  0
 21 22  2  0
 22 23  1  0
 23 24  2  0
 24 25  1  0
 25 26  2  0
 11  4  1  0
 19 14  1  0
 26 21  1  0
M  CHG  3   7  -1  10  -1  13  -1
M  END
>  <UniqueID>  (1209) 
23

>  <SMILES>  (1209) 
O=C(Cc1c(O)[n-]c(=O)[n-]c1=O)[N-]c1ccccc1Cc1ccccc1

>  <Energy>  (1209) 
46.82372318860858

>  <Genealogy>  (1209) 
O=C(Cc1c(O)[n-]c(=O)[n-]c1=O)[N-]c1ccccc1Cc1ccccc1 (protonated)
O=C(Cc1c(O)[n-]c(=O)[n-]c1=O)[N-]c1ccccc1Cc1ccccc1 (3D coordinates assigned)
O=C(Cc1c(O)[n-]c(=O)[n-]c1=O)[N-]c1ccccc1Cc1ccccc1 (optimized conformer: 46.82372318860858 kcal/mol)

>  <smiles>  (1209) 
O=C(Cc1c(O)[nH]c(=O)[nH]c1=O)Nc1ccccc1Cc1ccccc1

>  <score_type>  (1209) 
oracle

>  <origin>  (1209) 
adg

>  <m_score__min__energy>  (1209) 
-14.470000000000001

>  <m_primary>  (1209) 
energy

$$$$
32:0
     RDKit          3D

 24 26  0  0  0  0  0  0  0  0999 V2000
   55.1720   29.4600   44.8570 N   0  0  0  0  0  0  0  0  0  0  0  0
   56.3330   29.7560   44.0810 C   0  0  0  0  0  0  0  0  0  0  0  0
   56.6210   29.0160   43.1020 O   0  0  0  0  0  0  0  0  0  0  0  0
   57.1890   30.9190   44.4170 C   0  0  0  0  0  0  0  0  0  0  0  0
   57.3840   31.9520   43.4850 C   0  0  0  0  0  0  0  0  0  0  0  0
   58.2030   33.0410   43.7950 C   0  0  0  0  0  0  0  0  0  0  0  0
   58.8280   33.1160   45.0410 C   0  0  0  0  0  0  0  0  0  0  0  0
   58.6280   32.1110   45.9960 C   0  0  0  0  0  0  0  0  0  0  0  0
   59.2980   32.2020   47.2650 N   0  0  0  0  0  0  0  0  0  0  0  0
   59.3690   31.1260   48.2150 C   0  0  0  0  0  0  0  0  0  0  0  0
   59.2880   29.8300   47.8040 N   0  0  0  0  0  0  0  0  0  0  0  0
   59.3240   28.7990   48.6880 C   0  0  0  0  0  0  0  0  0  0  0  0
   59.2780   27.5790   48.2400 N   0  0  0  0  0  0  0  0  0  0  0  0
   58.5690   27.1100   47.0800 C   0  0  0  0  0  0  0  0  0  0  0  0
   59.2360   26.5540   45.9710 C   0  0  0  0  0  0  0  0  0  0  0  0
   58.5060   26.0760   44.8780 C   0  0  0  0  0  0  0  0  0  0  0  0
   57.1090   26.1300   44.8900 C   0  0  0  0  0  0  0  0  0  0  0  0
   56.4390   26.6510   46.0020 C   0  0  0  0  0  0  0  0  0  0  0  0
   55.0510   26.6910   46.0200 O   0  0  0  0  0  0  0  0  0  0  0  0
   57.1670   27.1290   47.0960 C   0  0  0  0  0  0  0  0  0  0  0  0
   59.4510   29.0620   50.0180 N   0  0  0  0  0  0  0  0  0  0  0  0
   59.5200   30.3380   50.4780 C   0  0  0  0  0  0  0  0  0  0  0  0
   59.4740   31.4040   49.5810 C   0  0  0  0  0  0  0  0  0  0  0  0
   57.8250   31.0020   45.6710 C   0  0  0  0  0  0  0  0  0  0  0  0
  1  2  1  0
  2  3  2  0
  2  4  1  0
  4  5  2  0
  5  6  1  0
  6  7  2  0
  7  8  1  0
  8  9  1  0
  9 10  1  0
 10 11  2  0
 11 12  1  0
 12 13  2  0
 13 14  1  0
 14 15  2  0
 15 16  1  0
 16 17  2  0
 17 18  1  0
 18 19  1  0
 18 20  2  0
 12 21  1  0
 21 22  1  0
 22 23  2  0
  8 24  2  0
 24  4  1  0
 23 10  1  0
 20 14  1  0
M  CHG  3   1  -1  19  -1  21  -1
M  END
>  <UniqueID>  (1210) 
29

>  <SMILES>  (1210) 
[NH-]C(=O)c1cccc(Nc2cc[n-]/c(=N\c3cccc([O-])c3)n2)c1

>  <Energy>  (1210) 
50.248772043570206

>  <Genealogy>  (1210) 
[NH-]C(=O)c1cccc(Nc2cc[n-]c(=Nc3cccc([O-])c3)n2)c1 (protonated)
[NH-]C(=O)c1cccc(Nc2cc[n-]/c(=N\c3cccc([O-])c3)n2)c1 (cis-trans isomerization)
[NH-]C(=O)c1cccc(Nc2cc[n-]/c(=N\c3cccc([O-])c3)n2)c1 (3D coordinates assigned)
[NH-]C(=O)c1cccc(Nc2cc[n-]/c(=N\c3cccc([O-])c3)n2)c1 (optimized conformer: 50.248772043570206 kcal/mol)

>  <smiles>  (1210) 
NC(=O)c1cccc(Nc2cc[nH]c(=Nc3cccc(O)c3)n2)c1

>  <score_type>  (1210) 
oracle

>  <origin>  (1210) 
adg

>  <m_score__min__energy>  (1210) 
-15.27

>  <m_primary>  (1210) 
energy

$$$$
51:0
     RDKit          3D

 30 33  0  0  0  0  0  0  0  0999 V2000
   59.8290   27.9280   46.5690 C   0  0  0  0  0  0  0  0  0  0  0  0
   58.9180   28.6720   45.9200 C   0  0  0  0  0  0  0  0  0  0  0  0
   57.9530   28.2210   45.0060 C   0  0  0  0  0  0  0  0  0  0  0  0
   57.5460   26.9750   44.6900 C   0  0  0  0  0  0  0  0  0  0  0  0
   57.0940   25.9530   45.6460 C   0  0  0  0  0  0  0  0  0  0  0  0
   57.8220   24.8740   45.9800 N   0  0  0  0  0  0  0  0  0  0  0  0
   56.9840   24.1610   46.7630 C   0  0  0  0  0  0  0  0  0  0  0  0
   57.3160   23.0700   47.2940 O   0  0  0  0  0  0  0  0  0  0  0  0
   55.7570   24.7040   46.9240 N   0  0  0  0  0  0  0  0  0  0  0  0
   55.8370   25.8290   46.1960 C   0  0  0  0  0  0  0  0  0  0  0  0
   54.7780   26.7100   46.0190 O   0  0  0  0  0  0  0  0  0  0  0  0
   57.4160   29.3550   44.4170 C   0  0  0  0  0  0  0  0  0  0  0  0
   58.0050   30.4410   45.0310 C   0  0  0  0  0  0  0  0  0  0  0  0
   57.6960   31.8720   44.7060 C   0  0  0  0  0  0  0  0  0  0  0  0
   58.9170   30.0310   45.9400 N   0  0  0  0  0  0  0  0  0  0  0  0
   59.7420   30.8880   46.7490 C   0  0  0  0  0  0  0  0  0  0  0  0
   61.1350   30.7290   46.7520 C   0  0  0  0  0  0  0  0  0  0  0  0
   61.9380   31.5550   47.5420 C   0  0  0  0  0  0  0  0  0  0  0  0
   61.3590   32.5490   48.3500 C   0  0  0  0  0  0  0  0  0  0  0  0
   62.2070   33.4340   49.1830 C   0  0  0  0  0  0  0  0  0  0  0  0
   61.8860   34.6460   49.3190 O   0  0  0  0  0  0  0  0  0  0  0  0
   63.3960   32.9420   49.8270 N   0  0  0  0  0  0  0  0  0  0  0  0
   64.6930   33.0700   49.1500 C   0  0  0  0  0  0  0  0  0  0  0  0
   65.7810   33.3860   50.1750 C   0  0  0  0  0  0  0  0  0  0  0  0
   65.7350   32.4410   51.2860 N   0  0  0  0  0  0  0  0  0  0  0  0
   64.5040   31.8670   51.7380 C   0  0  0  0  0  0  0  0  0  0  0  0
   64.4740   31.2350   52.8270 O   0  0  0  0  0  0  0  0  0  0  0  0
   63.2590   31.9510   50.9000 C   0  0  0  0  0  0  0  0  0  0  0  0
   59.9630   32.7150   48.3340 C   0  0  0  0  0  0  0  0  0  0  0  0
   59.1610   31.8870   47.5420 C   0  0  0  0  0  0  0  0  0  0  0  0
  1  2  2  0
  2  3  1  0
  3  4  2  3
  4  5  1  0
  5  6  1  0
  6  7  1  0
  7  8  2  0
  7  9  1  0
  9 10  1  0
 10 11  1  0
  3 12  1  0
 12 13  2  0
 13 14  1  0
 13 15  1  0
 15 16  1  0
 16 17  2  0
 17 18  1  0
 18 19  2  0
 19 20  1  0
 20 21  2  0
 20 22  1  0
 22 23  1  0
 23 24  1  0
 24 25  1  0
 25 26  1  0
 26 27  2  0
 26 28  1  0
 19 29  1  0
 29 30  2  0
 15  2  1  0
 30 16  1  0
 10  5  2  0
 28 22  1  0
M  CHG  3   6  -1   9  -1  11  -1
M  END
>  <UniqueID>  (1211) 
47

>  <SMILES>  (1211) 
C=c1c(=Cc2[n-]c(=O)[n-]c2[O-])cc(C)n1-c1ccc(C(=O)N2CCNC(=O)C2)cc1

>  <Energy>  (1211) 
130.28094352104208

>  <Genealogy>  (1211) 
C=c1c(=Cc2[n-]c(=O)[n-]c2[O-])cc(C)n1-c1ccc(C(=O)N2CCNC(=O)C2)cc1 (protonated)
C=c1c(=Cc2[n-]c(=O)[n-]c2[O-])cc(C)n1-c1ccc(C(=O)N2CCNC(=O)C2)cc1 (3D coordinates assigned)
C=c1c(=Cc2[n-]c(=O)[n-]c2[O-])cc(C)n1-c1ccc(C(=O)N2CCNC(=O)C2)cc1 (nonaromatic ring conformer: 130.28094352104208 kcal/mol)

>  <smiles>  (1211) 
C=c1c(=Cc2[nH]c(=O)[nH]c2O)cc(C)n1-c1ccc(C(=O)N2CCNC(=O)C2)cc1

>  <score_type>  (1211) 
oracle

>  <origin>  (1211) 
adg

>  <m_score__min__energy>  (1211) 
-15.49

>  <m_primary>  (1211) 
energy

$$$$
55:0
     RDKit          3D

 32 35  0  0  0  0  0  0  0  0999 V2000
   65.0740   33.3390   49.1730 O   0  0  0  0  0  0  0  0  0  0  0  0
   64.0420   32.4810   48.7560 C   0  0  0  0  0  0  0  0  0  0  0  0
   63.7040   32.7830   47.2780 C   0  0  0  0  0  0  0  0  0  0  0  0
   62.2160   32.5940   46.9710 C   0  0  0  0  0  0  0  0  0  0  0  0
   61.4120   33.4600   47.8470 N   0  0  0  0  0  0  0  0  0  0  0  0
   60.2830   34.1890   47.3280 C   0  0  0  0  0  0  0  0  0  0  0  0
   60.0280   35.3390   47.7810 O   0  0  0  0  0  0  0  0  0  0  0  0
   59.4090   33.6230   46.2760 C   0  0  0  0  0  0  0  0  0  0  0  0
   58.9820   34.4140   45.1960 C   0  0  0  0  0  0  0  0  0  0  0  0
   58.1680   33.8680   44.1990 C   0  0  0  0  0  0  0  0  0  0  0  0
   57.7800   32.5290   44.2660 C   0  0  0  0  0  0  0  0  0  0  0  0
   58.2060   31.7230   45.3310 C   0  0  0  0  0  0  0  0  0  0  0  0
   57.8220   30.3380   45.3920 N   0  0  0  0  0  0  0  0  0  0  0  0
   57.0810   29.6840   44.4690 C   0  0  0  0  0  0  0  0  0  0  0  0
   56.5530   30.2900   43.2050 C   0  0  0  0  0  0  0  0  0  0  0  0
   56.8900   28.3700   44.8490 C   0  0  0  0  0  0  0  0  0  0  0  0
   57.5330   28.2100   46.0680 C   0  0  0  0  0  0  0  0  0  0  0  0
   57.5660   27.0860   46.8080 C   0  0  0  0  0  0  0  0  0  0  0  0
   57.0290   25.7870   46.3430 C   0  0  0  0  0  0  0  0  0  0  0  0
   55.6760   25.6310   45.9940 C   0  0  0  0  0  0  0  0  0  0  0  0
   54.7910   26.7000   46.0760 O   0  0  0  0  0  0  0  0  0  0  0  0
   55.2250   24.4290   45.5500 N   0  0  0  0  0  0  0  0  0  0  0  0
   56.0640   23.3700   45.4190 C   0  0  0  0  0  0  0  0  0  0  0  0
   55.4920   21.9390   44.8840 S   0  0  0  0  0  0  0  0  0  0  0  0
   57.3800   23.5040   45.7220 N   0  0  0  0  0  0  0  0  0  0  0  0
   57.8810   24.6840   46.1710 C   0  0  0  0  0  0  0  0  0  0  0  0
   59.1090   24.7720   46.4400 O   0  0  0  0  0  0  0  0  0  0  0  0
   58.1010   29.4490   46.3790 C   0  0  0  0  0  0  0  0  0  0  0  0
   58.8510   29.7330   47.4570 C   0  0  0  0  0  0  0  0  0  0  0  0
   59.0280   32.2720   46.3280 C   0  0  0  0  0  0  0  0  0  0  0  0
   61.8430   33.7020   49.2320 C   0  0  0  0  0  0  0  0  0  0  0  0
   62.8250   32.6210   49.7010 C   0  0  0  0  0  0  0  0  0  0  0  0
  1  2  1  0
  2  3  1  0
  3  4  1  0
  4  5  1  0
  5  6  1  0
  6  7  2  0
  6  8  1  0
  8  9  2  0
  9 10  1  0
 10 11  2  0
 11 12  1  0
 12 13  1  0
 13 14  1  0
 14 15  1  0
 14 16  2  0
 16 17  1  0
 17 18  2  0
 18 19  1  0
 19 20  2  0
 20 21  1  0
 20 22  1  0
 22 23  1  0
 23 24  2  0
 23 25  1  0
 25 26  1  0
 26 27  2  0
 17 28  1  0
 28 29  2  0
 12 30  2  0
  5 31  1  0
 31 32  1  0
 32  2  1  0
 30  8  1  0
 28 13  1  0
 26 19  1  0
M  CHG  3  21  -1  22  -1  25  -1
M  END
>  <UniqueID>  (1212) 
51

>  <SMILES>  (1212) 
C=c1/c(=C/c2c([O-])[n-]c(=S)[n-]c2=O)cc(C)n1-c1cccc(C(=O)N2CCC(O)CC2)c1

>  <Energy>  (1212) 
107.27987477318017

>  <Genealogy>  (1212) 
C=c1c(=Cc2c([O-])[n-]c(=S)[n-]c2=O)cc(C)n1-c1cccc(C(=O)N2CCC(O)CC2)c1 (protonated)
C=c1/c(=C/c2c([O-])[n-]c(=S)[n-]c2=O)cc(C)n1-c1cccc(C(=O)N2CCC(O)CC2)c1 (cis-trans isomerization)
C=c1/c(=C/c2c([O-])[n-]c(=S)[n-]c2=O)cc(C)n1-c1cccc(C(=O)N2CCC(O)CC2)c1 (3D coordinates assigned)
C=c1/c(=C/c2c([O-])[n-]c(=S)[n-]c2=O)cc(C)n1-c1cccc(C(=O)N2CCC(O)CC2)c1 (nonaromatic ring conformer: 107.27987477318017 kcal/mol)

>  <smiles>  (1212) 
C=c1c(=Cc2c(O)[nH]c(=S)[nH]c2=O)cc(C)n1-c1cccc(C(=O)N2CCC(O)CC2)c1

>  <score_type>  (1212) 
oracle

>  <origin>  (1212) 
adg

>  <m_score__min__energy>  (1212) 
-17.559999999999999

>  <m_primary>  (1212) 
energy

$$$$
56:0
     RDKit          3D

 29 32  0  0  0  0  0  0  0  0999 V2000
   60.1170   28.9470   44.4040 C   0  0  0  0  0  0  0  0  0  0  0  0
   59.4470   29.0670   45.5620 C   0  0  0  0  0  0  0  0  0  0  0  0
   58.4300   28.2170   46.0310 C   0  0  0  0  0  0  0  0  0  0  0  0
   57.7510   27.2250   45.4200 C   0  0  0  0  0  0  0  0  0  0  0  0
   57.1710   26.0470   46.0820 C   0  0  0  0  0  0  0  0  0  0  0  0
   57.9080   25.0790   46.6560 N   0  0  0  0  0  0  0  0  0  0  0  0
   56.9820   24.2880   47.2400 C   0  0  0  0  0  0  0  0  0  0  0  0
   57.2860   23.2440   47.8750 O   0  0  0  0  0  0  0  0  0  0  0  0
   55.7060   24.7080   47.1000 N   0  0  0  0  0  0  0  0  0  0  0  0
   55.8440   25.8310   46.3770 C   0  0  0  0  0  0  0  0  0  0  0  0
   54.7830   26.6550   46.0210 O   0  0  0  0  0  0  0  0  0  0  0  0
   58.1700   28.6030   47.3330 C   0  0  0  0  0  0  0  0  0  0  0  0
   58.9700   29.6930   47.5960 C   0  0  0  0  0  0  0  0  0  0  0  0
   58.9290   30.4800   48.8710 C   0  0  0  0  0  0  0  0  0  0  0  0
   59.7460   29.9850   46.5250 N   0  0  0  0  0  0  0  0  0  0  0  0
   60.6940   31.1100   46.4570 C   0  0  0  0  0  0  0  0  0  0  0  0
   60.0030   32.4120   46.8160 C   0  0  0  0  0  0  0  0  0  0  0  0
   60.5950   33.2310   47.7960 C   0  0  0  0  0  0  0  0  0  0  0  0
   60.0450   34.4730   48.1150 C   0  0  0  0  0  0  0  0  0  0  0  0
   58.8970   34.9170   47.4660 C   0  0  0  0  0  0  0  0  0  0  0  0
   58.2810   34.1130   46.5060 C   0  0  0  0  0  0  0  0  0  0  0  0
   58.8110   32.8530   46.1790 C   0  0  0  0  0  0  0  0  0  0  0  0
   58.0810   32.0210   45.2000 C   0  0  0  0  0  0  0  0  0  0  0  0
   57.0940   31.1800   45.6190 N   0  0  0  0  0  0  0  0  0  0  0  0
   56.4030   30.4280   44.7610 N   0  0  0  0  0  0  0  0  0  0  0  0
   56.6500   30.4700   43.4260 C   0  0  0  0  0  0  0  0  0  0  0  0
   55.9840   29.7470   42.6400 O   0  0  0  0  0  0  0  0  0  0  0  0
   57.6400   31.3210   42.9360 C   0  0  0  0  0  0  0  0  0  0  0  0
   58.3600   32.1100   43.8310 C   0  0  0  0  0  0  0  0  0  0  0  0
  1  2  2  0
  2  3  1  0
  3  4  2  0
  4  5  1  0
  5  6  1  0
  6  7  1  0
  7  8  2  0
  7  9  1  0
  9 10  1  0
 10 11  1  0
  3 12  1  0
 12 13  2  0
 13 14  1  0
 13 15  1  0
 15 16  1  0
 16 17  1  0
 17 18  2  0
 18 19  1  0
 19 20  2  0
 20 21  1  0
 21 22  2  0
 22 23  1  0
 23 24  2  0
 24 25  1  0
 25 26  1  0
 26 27  2  0
 26 28  1  0
 28 29  2  0
 15  2  1  0
 22 17  1  0
 29 23  1  0
 10  5  2  0
M  CHG  4   6  -1   9  -1  11  -1  25  -1
M  END
>  <UniqueID>  (1213) 
52

>  <SMILES>  (1213) 
C=c1/c(=C\c2[n-]c(=O)[n-]c2[O-])cc(C)n1Cc1ccccc1-c1ccc(=O)[n-]n1

>  <Energy>  (1213) 
127.19844453468062

>  <Genealogy>  (1213) 
C=c1c(=Cc2[n-]c(=O)[n-]c2[O-])cc(C)n1Cc1ccccc1-c1ccc(=O)[n-]n1 (protonated)
C=c1/c(=C\c2[n-]c(=O)[n-]c2[O-])cc(C)n1Cc1ccccc1-c1ccc(=O)[n-]n1 (cis-trans isomerization)
C=c1/c(=C\c2[n-]c(=O)[n-]c2[O-])cc(C)n1Cc1ccccc1-c1ccc(=O)[n-]n1 (3D coordinates assigned)
C=c1/c(=C\c2[n-]c(=O)[n-]c2[O-])cc(C)n1Cc1ccccc1-c1ccc(=O)[n-]n1 (optimized conformer: 127.19844453468062 kcal/mol)

>  <smiles>  (1213) 
C=c1c(=Cc2[nH]c(=O)[nH]c2O)cc(C)n1Cc1ccccc1-c1ccc(=O)[nH]n1

>  <score_type>  (1213) 
oracle

>  <origin>  (1213) 
adg

>  <m_score__min__energy>  (1213) 
-18.280000000000001

>  <m_primary>  (1213) 
energy

$$$$
0:0
     RDKit          3D

 31 33  0  0  0  0  0  0  0  0999 V2000
   55.1600   26.5930   46.2120 O   0  0  0  0  0  0  0  0  0  0  0  0
   56.1380   25.6620   46.5550 C   0  0  0  0  0  0  0  0  0  0  0  0
   55.8510   24.4430   47.0400 N   0  0  0  0  0  0  0  0  0  0  0  0
   57.0720   23.9000   47.2250 C   0  0  0  0  0  0  0  0  0  0  0  0
   57.2350   22.7360   47.6760 O   0  0  0  0  0  0  0  0  0  0  0  0
   58.1040   24.6990   46.8840 N   0  0  0  0  0  0  0  0  0  0  0  0
   57.5060   25.8300   46.4660 C   0  0  0  0  0  0  0  0  0  0  0  0
   58.2080   27.0080   45.9130 C   0  0  0  0  0  0  0  0  0  0  0  0
   58.7220   28.0160   46.6480 C   0  0  0  0  0  0  0  0  0  0  0  0
   58.4720   28.2850   47.9900 C   0  0  0  0  0  0  0  0  0  0  0  0
   59.1890   29.4210   48.3080 C   0  0  0  0  0  0  0  0  0  0  0  0
   59.1840   30.0910   49.6480 C   0  0  0  0  0  0  0  0  0  0  0  0
   59.8600   29.8720   47.2290 N   0  0  0  0  0  0  0  0  0  0  0  0
   60.7030   31.0360   47.1940 C   0  0  0  0  0  0  0  0  0  0  0  0
   62.0860   30.8850   47.3650 C   0  0  0  0  0  0  0  0  0  0  0  0
   62.9260   32.0000   47.3420 C   0  0  0  0  0  0  0  0  0  0  0  0
   62.3920   33.2730   47.1360 C   0  0  0  0  0  0  0  0  0  0  0  0
   61.0150   33.4350   46.9590 C   0  0  0  0  0  0  0  0  0  0  0  0
   60.1560   32.3250   47.0000 C   0  0  0  0  0  0  0  0  0  0  0  0
   58.7070   32.5070   46.7730 C   0  0  0  0  0  0  0  0  0  0  0  0
   57.9130   31.5880   47.1060 O   0  0  0  0  0  0  0  0  0  0  0  0
   58.1700   33.7100   46.2080 N   0  0  0  0  0  0  0  0  0  0  0  0
   57.5110   33.7990   44.9110 C   0  0  0  0  0  0  0  0  0  0  0  0
   58.5290   33.5530   43.8030 C   0  0  0  0  0  0  0  0  0  0  0  0
   57.9560   32.2240   42.6850 S   0  0  0  0  0  0  0  0  0  0  0  0
   57.6460   30.9550   43.9730 C   0  0  0  0  0  0  0  0  0  0  0  0
   56.2910   30.2570   43.7550 C   0  0  0  0  0  0  0  0  0  0  0  0
   56.3040   29.4750   42.4350 C   0  0  0  0  0  0  0  0  0  0  0  0
   55.9480   29.3170   44.9180 C   0  0  0  0  0  0  0  0  0  0  0  0
   59.5820   29.0290   46.2030 C   0  0  0  0  0  0  0  0  0  0  0  0
   60.0620   29.1860   44.9610 C   0  0  0  0  0  0  0  0  0  0  0  0
  1  2  1  0
  2  3  1  0
  3  4  1  0
  4  5  2  0
  4  6  1  0
  6  7  1  0
  7  8  1  0
  8  9  2  0
  9 10  1  0
 10 11  2  0
 11 12  1  0
 11 13  1  0
 13 14  1  0
 14 15  2  0
 15 16  1  0
 16 17  2  0
 17 18  1  0
 18 19  2  0
 19 20  1  0
 20 21  2  0
 20 22  1  0
 22 23  1  0
 23 24  1  0
 24 25  1  0
 25 26  1  0
 26 27  1  0
 27 28  1  0
 27 29  1  0
 13 30  1  0
 30 31  2  0
  7  2  2  0
 30  9  1  0
 19 14  1  0
M  CHG  3   3  -1   6  -1  22  -1
M  END
>  <UniqueID>  (1214) 
1

>  <SMILES>  (1214) 
C=c1/c(=C/c2[n-]c(=O)[n-]c2O)cc(C)n1-c1ccccc1C(=O)[N-]CCSCC(C)C

>  <Energy>  (1214) 
119.43937304924758

>  <Genealogy>  (1214) 
C=c1c(=Cc2[n-]c(=O)[n-]c2O)cc(C)n1-c1ccccc1C(=O)[N-]CCSCC(C)C (protonated)
C=c1/c(=C/c2[n-]c(=O)[n-]c2O)cc(C)n1-c1ccccc1C(=O)[N-]CCSCC(C)C (cis-trans isomerization)
C=c1/c(=C/c2[n-]c(=O)[n-]c2O)cc(C)n1-c1ccccc1C(=O)[N-]CCSCC(C)C (3D coordinates assigned)
C=c1/c(=C/c2[n-]c(=O)[n-]c2O)cc(C)n1-c1ccccc1C(=O)[N-]CCSCC(C)C (optimized conformer: 119.43937304924758 kcal/mol)

>  <smiles>  (1214) 
C=c1c(=Cc2[nH]c(=O)[nH]c2O)cc(C)n1-c1ccccc1C(=O)NCCSCC(C)C

>  <score_type>  (1214) 
oracle

>  <origin>  (1214) 
adg

>  <m_score__min__energy>  (1214) 
-14.59

>  <m_primary>  (1214) 
energy

$$$$
6:0
     RDKit          3D

 25 28  0  0  0  0  0  0  0  0999 V2000
   59.3400   28.0210   46.7590 C   0  0  0  0  0  0  0  0  0  0  0  0
   58.6660   28.6130   45.7600 C   0  0  0  0  0  0  0  0  0  0  0  0
   57.8910   27.9740   44.7820 C   0  0  0  0  0  0  0  0  0  0  0  0
   57.6850   26.6450   44.6550 C   0  0  0  0  0  0  0  0  0  0  0  0
   57.1990   25.7390   45.7210 C   0  0  0  0  0  0  0  0  0  0  0  0
   57.9030   24.7490   46.3000 N   0  0  0  0  0  0  0  0  0  0  0  0
   57.0510   24.2510   47.2210 C   0  0  0  0  0  0  0  0  0  0  0  0
   57.3530   23.2900   47.9760 O   0  0  0  0  0  0  0  0  0  0  0  0
   55.8500   24.8660   47.2710 N   0  0  0  0  0  0  0  0  0  0  0  0
   55.9630   25.8050   46.3200 C   0  0  0  0  0  0  0  0  0  0  0  0
   54.9550   26.7080   46.0050 O   0  0  0  0  0  0  0  0  0  0  0  0
   57.3560   28.9880   43.9930 C   0  0  0  0  0  0  0  0  0  0  0  0
   57.8310   30.1800   44.5010 C   0  0  0  0  0  0  0  0  0  0  0  0
   57.4850   31.5340   43.9570 C   0  0  0  0  0  0  0  0  0  0  0  0
   58.6190   29.9560   45.5740 N   0  0  0  0  0  0  0  0  0  0  0  0
   59.2850   30.9680   46.3520 C   0  0  0  0  0  0  0  0  0  0  0  0
   58.5380   31.9670   46.9960 C   0  0  0  0  0  0  0  0  0  0  0  0
   59.1760   32.9450   47.7620 C   0  0  0  0  0  0  0  0  0  0  0  0
   60.5720   32.9320   47.8940 C   0  0  0  0  0  0  0  0  0  0  0  0
   61.2410   33.8990   48.6560 C   0  0  0  0  0  0  0  0  0  0  0  0
   62.6330   33.8550   48.7650 C   0  0  0  0  0  0  0  0  0  0  0  0
   63.3420   32.8440   48.1120 C   0  0  0  0  0  0  0  0  0  0  0  0
   62.6820   31.9100   47.3750 N   0  0  0  0  0  0  0  0  0  0  0  0
   61.3270   31.9270   47.2500 C   0  0  0  0  0  0  0  0  0  0  0  0
   60.6810   30.9510   46.4850 C   0  0  0  0  0  0  0  0  0  0  0  0
  1  2  2  0
  2  3  1  0
  3  4  2  0
  4  5  1  0
  5  6  1  0
  6  7  1  0
  7  8  2  0
  7  9  1  0
  9 10  1  0
 10 11  1  0
  3 12  1  0
 12 13  2  0
 13 14  1  0
 13 15  1  0
 15 16  1  0
 16 17  2  0
 17 18  1  0
 18 19  2  0
 19 20  1  0
 20 21  2  0
 21 22  1  0
 22 23  2  0
 23 24  1  0
 24 25  2  0
 15  2  1  0
 25 16  1  0
 10  5  2  0
 24 19  1  0
M  CHG  3   6  -1   9  -1  11  -1
M  END
>  <UniqueID>  (1215) 
7

>  <SMILES>  (1215) 
C=c1/c(=C/c2[n-]c(=O)[n-]c2[O-])cc(C)n1-c1ccc2cccnc2c1

>  <Energy>  (1215) 
114.04881559673309

>  <Genealogy>  (1215) 
C=c1c(=Cc2[n-]c(=O)[n-]c2[O-])cc(C)n1-c1ccc2cccnc2c1 (protonated)
C=c1/c(=C/c2[n-]c(=O)[n-]c2[O-])cc(C)n1-c1ccc2cccnc2c1 (cis-trans isomerization)
C=c1/c(=C/c2[n-]c(=O)[n-]c2[O-])cc(C)n1-c1ccc2cccnc2c1 (3D coordinates assigned)
C=c1/c(=C/c2[n-]c(=O)[n-]c2[O-])cc(C)n1-c1ccc2cccnc2c1 (optimized conformer: 114.04881559673309 kcal/mol)

>  <smiles>  (1215) 
C=c1c(=Cc2[nH]c(=O)[nH]c2O)cc(C)n1-c1ccc2cccnc2c1

>  <score_type>  (1215) 
oracle

>  <origin>  (1215) 
adg

>  <m_score__min__energy>  (1215) 
-15.65

>  <m_primary>  (1215) 
energy

$$$$
13:0
     RDKit          3D

 28 31  0  0  0  0  0  0  0  0999 V2000
   58.8450   29.3290   48.3230 C   0  0  0  0  0  0  0  0  0  0  0  0
   58.6280   29.9470   47.1490 C   0  0  0  0  0  0  0  0  0  0  0  0
   58.5830   29.3360   45.8850 C   0  0  0  0  0  0  0  0  0  0  0  0
   58.5240   28.0370   45.5280 C   0  0  0  0  0  0  0  0  0  0  0  0
   57.3930   27.1290   45.7770 C   0  0  0  0  0  0  0  0  0  0  0  0
   57.4950   25.9160   46.3540 N   0  0  0  0  0  0  0  0  0  0  0  0
   56.2080   25.5300   46.4950 C   0  0  0  0  0  0  0  0  0  0  0  0
   55.8850   24.4210   46.9930 O   0  0  0  0  0  0  0  0  0  0  0  0
   55.2960   26.4320   46.0730 N   0  0  0  0  0  0  0  0  0  0  0  0
   56.0630   27.4420   45.6350 C   0  0  0  0  0  0  0  0  0  0  0  0
   55.5590   28.6290   45.1210 O   0  0  0  0  0  0  0  0  0  0  0  0
   58.5920   30.3620   44.9590 C   0  0  0  0  0  0  0  0  0  0  0  0
   58.5580   31.5430   45.6680 C   0  0  0  0  0  0  0  0  0  0  0  0
   58.5780   32.9030   45.0370 C   0  0  0  0  0  0  0  0  0  0  0  0
   58.5760   31.3000   47.0000 N   0  0  0  0  0  0  0  0  0  0  0  0
   58.6150   32.3360   48.0480 C   0  0  0  0  0  0  0  0  0  0  0  0
   60.0170   32.5090   48.5780 C   0  0  0  0  0  0  0  0  0  0  0  0
   60.2600   32.4960   49.9600 C   0  0  0  0  0  0  0  0  0  0  0  0
   61.5570   32.6650   50.4530 C   0  0  0  0  0  0  0  0  0  0  0  0
   62.6350   32.8560   49.5730 C   0  0  0  0  0  0  0  0  0  0  0  0
   63.9730   33.0200   50.0850 N   0  0  0  0  0  0  0  0  0  0  0  0
   65.0890   32.1390   49.7790 C   0  0  0  0  0  0  0  0  0  0  0  0
   66.3450   32.8260   50.3470 C   0  0  0  0  0  0  0  0  0  0  0  0
   65.8610   33.9620   51.2600 C   0  0  0  0  0  0  0  0  0  0  0  0
   64.4150   34.0320   50.9760 C   0  0  0  0  0  0  0  0  0  0  0  0
   63.6410   34.8610   51.5250 O   0  0  0  0  0  0  0  0  0  0  0  0
   62.3920   32.8470   48.1890 C   0  0  0  0  0  0  0  0  0  0  0  0
   61.0950   32.6780   47.6970 C   0  0  0  0  0  0  0  0  0  0  0  0
  1  2  2  0
  2  3  1  0
  3  4  2  3
  4  5  1  0
  5  6  1  0
  6  7  1  0
  7  8  2  0
  7  9  1  0
  9 10  1  0
 10 11  1  0
  3 12  1  0
 12 13  2  0
 13 14  1  0
 13 15  1  0
 15 16  1  0
 16 17  1  0
 17 18  2  0
 18 19  1  0
 19 20  2  0
 20 21  1  0
 21 22  1  0
 22 23  1  0
 23 24  1  0
 24 25  1  0
 25 26  2  0
 20 27  1  0
 27 28  2  0
 15  2  1  0
 28 17  1  0
 10  5  2  0
 25 21  1  0
M  CHG  3   6  -1   9  -1  11  -1
M  END
>  <UniqueID>  (1216) 
11

>  <SMILES>  (1216) 
C=c1c(=Cc2[n-]c(=O)[n-]c2[O-])cc(C)n1Cc1ccc(N2CCCC2=O)cc1

>  <Energy>  (1216) 
128.9222361114682

>  <Genealogy>  (1216) 
C=c1c(=Cc2[n-]c(=O)[n-]c2[O-])cc(C)n1Cc1ccc(N2CCCC2=O)cc1 (protonated)
C=c1c(=Cc2[n-]c(=O)[n-]c2[O-])cc(C)n1Cc1ccc(N2CCCC2=O)cc1 (3D coordinates assigned)
C=c1c(=Cc2[n-]c(=O)[n-]c2[O-])cc(C)n1Cc1ccc(N2CCCC2=O)cc1 (nonaromatic ring conformer: 128.9222361114682 kcal/mol)

>  <smiles>  (1216) 
C=c1c(=Cc2[nH]c(=O)[nH]c2O)cc(C)n1Cc1ccc(N2CCCC2=O)cc1

>  <score_type>  (1216) 
oracle

>  <origin>  (1216) 
adg

>  <m_score__min__energy>  (1216) 
-16.93

>  <m_primary>  (1216) 
energy

$$$$
15:0
     RDKit          3D

 27 29  0  0  0  0  0  0  0  0999 V2000
   54.8770   29.7060   44.1230 N   0  0  0  0  0  0  0  0  0  0  0  0
   56.1420   30.1790   43.6650 C   0  0  0  0  0  0  0  0  0  0  0  0
   56.4330   30.0700   42.4430 O   0  0  0  0  0  0  0  0  0  0  0  0
   57.1040   30.7930   44.6090 C   0  0  0  0  0  0  0  0  0  0  0  0
   57.4510   32.1490   44.4920 C   0  0  0  0  0  0  0  0  0  0  0  0
   58.3270   32.7360   45.4050 C   0  0  0  0  0  0  0  0  0  0  0  0
   58.8860   31.9730   46.4320 C   0  0  0  0  0  0  0  0  0  0  0  0
   58.5910   30.6050   46.5410 C   0  0  0  0  0  0  0  0  0  0  0  0
   59.2370   29.7730   47.6280 C   0  0  0  0  0  0  0  0  0  0  0  0
   60.1910   28.7630   47.1150 N   0  0  0  0  0  0  0  0  0  0  0  0
   60.4300   28.7870   45.6540 C   0  0  0  0  0  0  0  0  0  0  0  0
   59.5080   27.8230   44.8800 C   0  0  0  0  0  0  0  0  0  0  0  0
   59.2640   26.5850   45.6280 N   0  0  0  0  0  0  0  0  0  0  0  0
   58.0630   25.8150   45.3880 C   0  0  0  0  0  0  0  0  0  0  0  0
   58.1460   24.5510   44.7720 C   0  0  0  0  0  0  0  0  0  0  0  0
   56.9940   23.7760   44.5520 C   0  0  0  0  0  0  0  0  0  0  0  0
   57.0920   22.4600   43.8780 C   0  0  0  0  0  0  0  0  0  0  0  0
   55.9680   21.9080   43.1960 N   0  0  0  0  0  0  0  0  0  0  0  0
   58.1760   21.8140   43.8990 O   0  0  0  0  0  0  0  0  0  0  0  0
   55.7510   24.2680   44.9760 C   0  0  0  0  0  0  0  0  0  0  0  0
   55.6530   25.5230   45.5870 C   0  0  0  0  0  0  0  0  0  0  0  0
   54.4140   26.0120   45.9960 O   0  0  0  0  0  0  0  0  0  0  0  0
   56.8010   26.2990   45.7860 C   0  0  0  0  0  0  0  0  0  0  0  0
   56.6730   27.5570   46.3610 O   0  0  0  0  0  0  0  0  0  0  0  0
   60.1510   26.2750   46.7490 C   0  0  0  0  0  0  0  0  0  0  0  0
   60.1090   27.4280   47.7570 C   0  0  0  0  0  0  0  0  0  0  0  0
   57.6770   30.0280   45.6410 C   0  0  0  0  0  0  0  0  0  0  0  0
  1  2  1  0
  2  3  2  0
  2  4  1  0
  4  5  2  0
  5  6  1  0
  6  7  2  0
  7  8  1  0
  8  9  1  0
  9 10  1  0
 10 11  1  0
 11 12  1  0
 12 13  1  0
 13 14  1  0
 14 15  2  0
 15 16  1  0
 16 17  1  0
 17 18  1  0
 17 19  2  0
 16 20  2  0
 20 21  1  0
 21 22  1  0
 21 23  2  0
 23 24  1  0
 13 25  1  0
 25 26  1  0
  8 27  2  0
 27  4  1  0
 26 10  1  0
 23 14  1  0
M  CHG  3   1  -1  18  -1  24  -1
M  END
>  <UniqueID>  (1217) 
13

>  <SMILES>  (1217) 
[NH-]C(=O)c1cccc(CN2CCN(c3cc(C([NH-])=O)cc(O)c3[O-])CC2)c1

>  <Energy>  (1217) 
61.74522383253139

>  <Genealogy>  (1217) 
[NH-]C(=O)c1cccc(CN2CCN(c3cc(C([NH-])=O)cc(O)c3[O-])CC2)c1 (protonated)
[NH-]C(=O)c1cccc(CN2CCN(c3cc(C([NH-])=O)cc(O)c3[O-])CC2)c1 (3D coordinates assigned)
[NH-]C(=O)c1cccc(CN2CCN(c3cc(C([NH-])=O)cc(O)c3[O-])CC2)c1 (nonaromatic ring conformer: 61.74522383253139 kcal/mol)

>  <smiles>  (1217) 
NC(=O)c1cccc(CN2CCN(c3cc(C(N)=O)cc(O)c3O)CC2)c1

>  <score_type>  (1217) 
oracle

>  <origin>  (1217) 
adg

>  <m_score__min__energy>  (1217) 
-15

>  <m_primary>  (1217) 
energy

$$$$
19:0
     RDKit          3D

 32 35  0  0  0  0  0  0  0  0999 V2000
   56.5890   29.3860   44.0980 C   0  0  0  0  0  0  0  0  0  0  0  0
   57.7050   29.0860   44.7800 C   0  0  0  0  0  0  0  0  0  0  0  0
   58.1620   27.8050   45.0990 C   0  0  0  0  0  0  0  0  0  0  0  0
   57.6120   26.6260   44.7500 C   0  0  0  0  0  0  0  0  0  0  0  0
   57.2600   25.5780   45.7320 C   0  0  0  0  0  0  0  0  0  0  0  0
   55.9700   25.4800   46.2990 C   0  0  0  0  0  0  0  0  0  0  0  0
   54.9370   26.3460   45.9380 O   0  0  0  0  0  0  0  0  0  0  0  0
   55.7110   24.5050   47.2090 N   0  0  0  0  0  0  0  0  0  0  0  0
   56.6600   23.6060   47.5700 C   0  0  0  0  0  0  0  0  0  0  0  0
   56.3910   22.7150   48.4170 O   0  0  0  0  0  0  0  0  0  0  0  0
   57.8970   23.6610   47.0160 N   0  0  0  0  0  0  0  0  0  0  0  0
   58.2150   24.6180   46.1060 C   0  0  0  0  0  0  0  0  0  0  0  0
   59.3750   24.6390   45.6130 O   0  0  0  0  0  0  0  0  0  0  0  0
   59.3220   27.9760   45.8450 C   0  0  0  0  0  0  0  0  0  0  0  0
   59.5280   29.3370   45.9460 C   0  0  0  0  0  0  0  0  0  0  0  0
   60.6700   29.9720   46.6800 C   0  0  0  0  0  0  0  0  0  0  0  0
   58.5470   30.0130   45.3060 N   0  0  0  0  0  0  0  0  0  0  0  0
   58.4430   31.4430   45.2010 C   0  0  0  0  0  0  0  0  0  0  0  0
   57.8640   32.0270   44.0670 C   0  0  0  0  0  0  0  0  0  0  0  0
   57.7750   33.4160   43.9590 C   0  0  0  0  0  0  0  0  0  0  0  0
   58.2680   34.2320   44.9800 C   0  0  0  0  0  0  0  0  0  0  0  0
   58.8580   33.6650   46.1250 C   0  0  0  0  0  0  0  0  0  0  0  0
   59.3810   34.5300   47.2090 C   0  0  0  0  0  0  0  0  0  0  0  0
   59.2590   35.7820   47.1270 O   0  0  0  0  0  0  0  0  0  0  0  0
   60.0750   33.9460   48.3210 N   0  0  0  0  0  0  0  0  0  0  0  0
   61.4720   33.6270   48.3860 C   0  0  0  0  0  0  0  0  0  0  0  0
   62.2140   33.2770   47.2420 C   0  0  0  0  0  0  0  0  0  0  0  0
   63.5800   32.9970   47.3490 C   0  0  0  0  0  0  0  0  0  0  0  0
   64.2180   33.0770   48.5900 C   0  0  0  0  0  0  0  0  0  0  0  0
   63.4930   33.4470   49.7250 C   0  0  0  0  0  0  0  0  0  0  0  0
   62.1260   33.7290   49.6220 C   0  0  0  0  0  0  0  0  0  0  0  0
   58.9400   32.2640   46.2250 C   0  0  0  0  0  0  0  0  0  0  0  0
  1  2  2  0
  2  3  1  0
  3  4  2  3
  4  5  1  0
  5  6  2  0
  6  7  1  0
  6  8  1  0
  8  9  1  0
  9 10  2  0
  9 11  1  0
 11 12  1  0
 12 13  2  0
  3 14  1  0
 14 15  2  0
 15 16  1  0
 15 17  1  0
 17 18  1  0
 18 19  2  0
 19 20  1  0
 20 21  2  0
 21 22  1  0
 22 23  1  0
 23 24  2  0
 23 25  1  0
 25 26  1  0
 26 27  2  0
 27 28  1  0
 28 29  2  0
 29 30  1  0
 30 31  2  0
 22 32  2  0
 17  2  1  0
 32 18  1  0
 12  5  1  0
 31 26  1  0
M  CHG  3   8  -1  11  -1  25  -1
M  END
>  <UniqueID>  (1218) 
17

>  <SMILES>  (1218) 
C=c1c(=Cc2c(O)[n-]c(=O)[n-]c2=O)cc(C)n1-c1cccc(C(=O)[N-]c2ccccc2)c1

>  <Energy>  (1218) 
103.50013325072756

>  <Genealogy>  (1218) 
C=c1c(=Cc2c(O)[n-]c(=O)[n-]c2=O)cc(C)n1-c1cccc(C(=O)[N-]c2ccccc2)c1 (protonated)
C=c1c(=Cc2c(O)[n-]c(=O)[n-]c2=O)cc(C)n1-c1cccc(C(=O)[N-]c2ccccc2)c1 (3D coordinates assigned)
C=c1c(=Cc2c(O)[n-]c(=O)[n-]c2=O)cc(C)n1-c1cccc(C(=O)[N-]c2ccccc2)c1 (optimized conformer: 103.50013325072756 kcal/mol)

>  <smiles>  (1218) 
C=c1c(=Cc2c(O)[nH]c(=O)[nH]c2=O)cc(C)n1-c1cccc(C(=O)Nc2ccccc2)c1

>  <score_type>  (1218) 
oracle

>  <origin>  (1218) 
adg

>  <m_score__min__energy>  (1218) 
-15.6

>  <m_primary>  (1218) 
energy

$$$$
24:0
     RDKit          3D

 27 29  0  0  0  0  0  0  0  0999 V2000
   58.8970   29.6290   47.9380 C   0  0  0  0  0  0  0  0  0  0  0  0
   58.6950   30.0540   46.6790 C   0  0  0  0  0  0  0  0  0  0  0  0
   58.4810   29.2360   45.5600 C   0  0  0  0  0  0  0  0  0  0  0  0
   58.4580   27.8850   45.5350 C   0  0  0  0  0  0  0  0  0  0  0  0
   57.2880   27.0370   45.8580 C   0  0  0  0  0  0  0  0  0  0  0  0
   57.3310   25.7880   46.3570 N   0  0  0  0  0  0  0  0  0  0  0  0
   56.0310   25.4310   46.4280 C   0  0  0  0  0  0  0  0  0  0  0  0
   55.6590   24.3080   46.8590 O   0  0  0  0  0  0  0  0  0  0  0  0
   55.1620   26.3680   45.9970 N   0  0  0  0  0  0  0  0  0  0  0  0
   55.9740   27.3750   45.6360 C   0  0  0  0  0  0  0  0  0  0  0  0
   55.5210   28.5800   45.1120 O   0  0  0  0  0  0  0  0  0  0  0  0
   58.3340   30.0940   44.4790 C   0  0  0  0  0  0  0  0  0  0  0  0
   58.4490   31.3780   44.9680 C   0  0  0  0  0  0  0  0  0  0  0  0
   58.4180   32.6090   44.1110 C   0  0  0  0  0  0  0  0  0  0  0  0
   58.6680   31.3640   46.3040 N   0  0  0  0  0  0  0  0  0  0  0  0
   58.8960   32.5560   47.1390 C   0  0  0  0  0  0  0  0  0  0  0  0
   60.3590   32.7040   47.4670 C   0  0  0  0  0  0  0  0  0  0  0  0
   60.8270   33.8510   48.1230 C   0  0  0  0  0  0  0  0  0  0  0  0
   62.1820   33.9850   48.4410 C   0  0  0  0  0  0  0  0  0  0  0  0
   63.0980   32.9720   48.1000 C   0  0  0  0  0  0  0  0  0  0  0  0
   64.5000   33.0690   48.4120 N   0  0  0  0  0  0  0  0  0  0  0  0
   65.1660   32.9320   50.0100 S   0  0  0  0  0  0  0  0  0  0  0  0
   64.6590   34.0740   50.8440 O   0  0  0  0  0  0  0  0  0  0  0  0
   66.6660   33.0050   49.9520 O   0  0  0  0  0  0  0  0  0  0  0  0
   64.6450   31.4060   50.7650 C   0  0  0  0  0  0  0  0  0  0  0  0
   62.6240   31.8240   47.4450 C   0  0  0  0  0  0  0  0  0  0  0  0
   61.2700   31.6910   47.1280 C   0  0  0  0  0  0  0  0  0  0  0  0
  1  2  2  0
  2  3  1  0
  3  4  2  0
  4  5  1  0
  5  6  1  0
  6  7  1  0
  7  8  2  0
  7  9  1  0
  9 10  1  0
 10 11  1  0
  3 12  1  0
 12 13  2  0
 13 14  1  0
 13 15  1  0
 15 16  1  0
 16 17  1  0
 17 18  2  0
 18 19  1  0
 19 20  2  0
 20 21  1  0
 21 22  1  0
 22 23  2  0
 22 24  2  0
 22 25  1  0
 20 26  1  0
 26 27  2  0
 15  2  1  0
 27 17  1  0
 10  5  2  0
M  CHG  3   6  -1   9  -1  11  -1
M  END
>  <UniqueID>  (1219) 
22

>  <SMILES>  (1219) 
C=c1/c(=C/c2[n-]c(=O)[n-]c2[O-])cc(C)n1Cc1ccc(NS(C)(=O)=O)cc1

>  <Energy>  (1219) 
106.55449052865272

>  <Genealogy>  (1219) 
C=c1c(=Cc2[n-]c(=O)[n-]c2[O-])cc(C)n1Cc1ccc(NS(C)(=O)=O)cc1 (protonated)
C=c1/c(=C/c2[n-]c(=O)[n-]c2[O-])cc(C)n1Cc1ccc(NS(C)(=O)=O)cc1 (cis-trans isomerization)
C=c1/c(=C/c2[n-]c(=O)[n-]c2[O-])cc(C)n1Cc1ccc(NS(C)(=O)=O)cc1 (3D coordinates assigned)
C=c1/c(=C/c2[n-]c(=O)[n-]c2[O-])cc(C)n1Cc1ccc(NS(C)(=O)=O)cc1 (optimized conformer: 106.55449052865272 kcal/mol)

>  <smiles>  (1219) 
C=c1c(=Cc2[nH]c(=O)[nH]c2O)cc(C)n1Cc1ccc(NS(C)(=O)=O)cc1

>  <score_type>  (1219) 
oracle

>  <origin>  (1219) 
adg

>  <m_score__min__energy>  (1219) 
-16.109999999999999

>  <m_primary>  (1219) 
energy

$$$$
40:0
     RDKit          3D

 24 26  0  0  0  0  0  0  0  0999 V2000
   55.0270   26.7180   45.9930 O   0  0  0  0  0  0  0  0  0  0  0  0
   56.1120   25.9280   46.3630 C   0  0  0  0  0  0  0  0  0  0  0  0
   55.9930   24.7860   47.0600 N   0  0  0  0  0  0  0  0  0  0  0  0
   57.2720   24.3690   47.1700 C   0  0  0  0  0  0  0  0  0  0  0  0
   57.5900   23.3080   47.7690 O   0  0  0  0  0  0  0  0  0  0  0  0
   58.1860   25.1750   46.5860 N   0  0  0  0  0  0  0  0  0  0  0  0
   57.4380   26.1720   46.0800 C   0  0  0  0  0  0  0  0  0  0  0  0
   57.9960   27.3180   45.2890 C   0  0  0  0  0  0  0  0  0  0  0  0
   57.3900   28.6240   45.7280 C   0  0  0  0  0  0  0  0  0  0  0  0
   56.2800   28.9830   45.2510 O   0  0  0  0  0  0  0  0  0  0  0  0
   58.0170   29.4600   46.7130 N   0  0  0  0  0  0  0  0  0  0  0  0
   58.4150   30.6890   46.5570 C   0  0  0  0  0  0  0  0  0  0  0  0
   57.6550   31.6100   45.9260 N   0  0  0  0  0  0  0  0  0  0  0  0
   58.2870   32.8100   45.8320 C   0  0  0  0  0  0  0  0  0  0  0  0
   59.5600   32.8440   46.3910 C   0  0  0  0  0  0  0  0  0  0  0  0
   60.5040   34.0030   46.3520 C   0  0  0  0  0  0  0  0  0  0  0  0
   61.6830   33.7400   47.2470 C   0  0  0  0  0  0  0  0  0  0  0  0
   62.9590   33.5330   46.6970 C   0  0  0  0  0  0  0  0  0  0  0  0
   64.0620   33.3260   47.5320 C   0  0  0  0  0  0  0  0  0  0  0  0
   63.9010   33.3370   48.9210 C   0  0  0  0  0  0  0  0  0  0  0  0
   65.2850   33.0810   49.9670 Cl  0  0  0  0  0  0  0  0  0  0  0  0
   62.6350   33.5570   49.4760 C   0  0  0  0  0  0  0  0  0  0  0  0
   61.5310   33.7630   48.6430 C   0  0  0  0  0  0  0  0  0  0  0  0
   59.9200   31.3170   46.9990 S   0  0  0  0  0  0  0  0  0  0  0  0
  1  2  1  0
  2  3  1  0
  3  4  1  0
  4  5  2  0
  4  6  1  0
  6  7  1  0
  7  8  1  0
  8  9  1  0
  9 10  2  0
  9 11  1  0
 11 12  2  0
 12 13  1  0
 13 14  1  0
 14 15  2  0
 15 16  1  0
 16 17  1  0
 17 18  2  0
 18 19  1  0
 19 20  2  0
 20 21  1  0
 20 22  1  0
 22 23  2  0
 15 24  1  0
  7  2  2  0
 24 12  1  0
 23 17  1  0
M  CHG  3   3  -1   6  -1  13  -1
M  END
>  <UniqueID>  (1220) 
36

>  <SMILES>  (1220) 
O=C(Cc1[n-]c(=O)[n-]c1O)/N=c1/[n-]cc(Cc2ccc(Cl)cc2)s1

>  <Energy>  (1220) 
98.30227525328289

>  <Genealogy>  (1220) 
O=C(Cc1[n-]c(=O)[n-]c1O)N=c1[n-]cc(Cc2ccc(Cl)cc2)s1 (protonated)
O=C(Cc1[n-]c(=O)[n-]c1O)/N=c1/[n-]cc(Cc2ccc(Cl)cc2)s1 (cis-trans isomerization)
O=C(Cc1[n-]c(=O)[n-]c1O)/N=c1/[n-]cc(Cc2ccc(Cl)cc2)s1 (3D coordinates assigned)
O=C(Cc1[n-]c(=O)[n-]c1O)/N=c1/[n-]cc(Cc2ccc(Cl)cc2)s1 (optimized conformer: 98.30227525328289 kcal/mol)

>  <smiles>  (1220) 
O=C(Cc1[nH]c(=O)[nH]c1O)N=c1[nH]cc(Cc2ccc(Cl)cc2)s1

>  <score_type>  (1220) 
oracle

>  <origin>  (1220) 
adg

>  <m_score__min__energy>  (1220) 
-14.41

>  <m_primary>  (1220) 
energy

$$$$
41:0
     RDKit          3D

 30 32  0  0  0  0  0  0  0  0999 V2000
   56.8870   29.3650   43.1640 C   0  0  0  0  0  0  0  0  0  0  0  0
   56.0980   29.3580   44.4430 C   0  0  0  0  0  0  0  0  0  0  0  0
   55.5090   30.4100   44.8030 O   0  0  0  0  0  0  0  0  0  0  0  0
   55.9580   28.1760   45.2450 N   0  0  0  0  0  0  0  0  0  0  0  0
   57.0000   27.5600   46.0180 C   0  0  0  0  0  0  0  0  0  0  0  0
   58.0020   28.3490   46.6090 C   0  0  0  0  0  0  0  0  0  0  0  0
   59.0490   27.7560   47.3270 C   0  0  0  0  0  0  0  0  0  0  0  0
   60.1800   28.5940   47.8520 C   0  0  0  0  0  0  0  0  0  0  0  0
   60.2140   29.8580   47.1270 N   0  0  0  0  0  0  0  0  0  0  0  0
   59.9510   31.1270   47.7390 C   0  0  0  0  0  0  0  0  0  0  0  0
   60.2770   31.3180   48.9410 O   0  0  0  0  0  0  0  0  0  0  0  0
   59.2190   32.1890   46.9940 C   0  0  0  0  0  0  0  0  0  0  0  0
   58.0300   31.8310   46.3470 C   0  0  0  0  0  0  0  0  0  0  0  0
   57.3770   32.7350   45.5250 C   0  0  0  0  0  0  0  0  0  0  0  0
   57.9210   34.0010   45.3170 C   0  0  0  0  0  0  0  0  0  0  0  0
   57.3200   34.7970   44.5340 O   0  0  0  0  0  0  0  0  0  0  0  0
   59.0840   34.3770   45.9480 N   0  0  0  0  0  0  0  0  0  0  0  0
   59.6450   35.7210   45.6790 C   0  0  0  0  0  0  0  0  0  0  0  0
   59.6970   33.5230   46.8490 C   0  0  0  0  0  0  0  0  0  0  0  0
   60.8640   34.0030   47.6880 C   0  0  0  0  0  0  0  0  0  0  0  0
   59.0900   26.3640   47.4570 C   0  0  0  0  0  0  0  0  0  0  0  0
   58.0840   25.5740   46.8990 C   0  0  0  0  0  0  0  0  0  0  0  0
   57.0270   26.1590   46.1810 C   0  0  0  0  0  0  0  0  0  0  0  0
   55.9750   25.2970   45.5890 C   0  0  0  0  0  0  0  0  0  0  0  0
   56.3020   24.2920   44.6610 C   0  0  0  0  0  0  0  0  0  0  0  0
   55.2850   23.5010   44.1180 C   0  0  0  0  0  0  0  0  0  0  0  0
   55.5660   22.6030   43.2790 O   0  0  0  0  0  0  0  0  0  0  0  0
   53.9580   23.7080   44.5060 C   0  0  0  0  0  0  0  0  0  0  0  0
   53.6680   24.7120   45.4350 C   0  0  0  0  0  0  0  0  0  0  0  0
   54.6710   25.4770   45.9480 N   0  0  0  0  0  0  0  0  0  0  0  0
  1  2  1  0
  2  3  2  0
  2  4  1  0
  4  5  1  0
  5  6  2  0
  6  7  1  0
  7  8  1  0
  8  9  1  0
  9 10  1  0
 10 11  2  0
 10 12  1  0
 12 13  1  0
 13 14  2  0
 14 15  1  0
 15 16  2  0
 15 17  1  0
 17 18  1  0
 17 19  1  0
 19 20  1  0
  7 21  2  0
 21 22  1  0
 22 23  2  0
 23 24  1  0
 24 25  2  0
 25 26  1  0
 26 27  2  0
 26 28  1  0
 28 29  2  0
 29 30  1  0
 23  5  1  0
 30 24  1  0
 19 12  2  0
M  CHG  3   4  -1   9  -1  30  -1
M  END
>  <UniqueID>  (1221) 
37

>  <SMILES>  (1221) 
CC(=O)[N-]c1cc(C[N-]C(=O)c2ccc(=O)n(C)c2C)ccc1-c1cc(=O)cc[n-]1

>  <Energy>  (1221) 
71.37897730467337

>  <Genealogy>  (1221) 
CC(=O)[N-]c1cc(C[N-]C(=O)c2ccc(=O)n(C)c2C)ccc1-c1cc(=O)cc[n-]1 (protonated)
CC(=O)[N-]c1cc(C[N-]C(=O)c2ccc(=O)n(C)c2C)ccc1-c1cc(=O)cc[n-]1 (3D coordinates assigned)
CC(=O)[N-]c1cc(C[N-]C(=O)c2ccc(=O)n(C)c2C)ccc1-c1cc(=O)cc[n-]1 (optimized conformer: 71.37897730467337 kcal/mol)

>  <smiles>  (1221) 
CC(=O)Nc1cc(CNC(=O)c2ccc(=O)n(C)c2C)ccc1-c1cc(=O)cc[nH]1

>  <score_type>  (1221) 
oracle

>  <origin>  (1221) 
adg

>  <m_score__min__energy>  (1221) 
-14.300000000000001

>  <m_primary>  (1221) 
energy

$$$$
53:0
     RDKit          3D

 31 34  0  0  0  0  0  0  0  0999 V2000
   56.0750   29.2440   44.7560 O   0  0  0  0  0  0  0  0  0  0  0  0
   57.4220   29.4260   45.0650 C   0  0  0  0  0  0  0  0  0  0  0  0
   57.9090   30.7010   45.3870 C   0  0  0  0  0  0  0  0  0  0  0  0
   59.2690   30.8920   45.6880 C   0  0  0  0  0  0  0  0  0  0  0  0
   59.7660   32.2020   46.0170 N   0  0  0  0  0  0  0  0  0  0  0  0
   58.9970   33.4050   45.6720 C   0  0  0  0  0  0  0  0  0  0  0  0
   58.7630   34.2410   46.9360 C   0  0  0  0  0  0  0  0  0  0  0  0
   60.0540   34.4940   47.7880 C   0  0  0  0  0  0  0  0  0  0  0  0
   59.8110   34.0820   49.2060 N   0  0  0  0  0  0  0  0  0  0  0  0
   61.0970   33.8480   49.9000 C   0  0  0  0  0  0  0  0  0  0  0  0
   58.9960   32.8580   49.3340 C   0  0  0  0  0  0  0  0  0  0  0  0
   61.2910   33.8040   47.1330 C   0  0  0  0  0  0  0  0  0  0  0  0
   61.0090   32.3360   46.7910 C   0  0  0  0  0  0  0  0  0  0  0  0
   60.1340   29.7860   45.6740 C   0  0  0  0  0  0  0  0  0  0  0  0
   59.6510   28.5150   45.3560 C   0  0  0  0  0  0  0  0  0  0  0  0
   58.2970   28.3290   45.0490 C   0  0  0  0  0  0  0  0  0  0  0  0
   57.8090   27.0170   44.7220 N   0  0  0  0  0  0  0  0  0  0  0  0
   57.8940   26.4340   43.5080 C   0  0  0  0  0  0  0  0  0  0  0  0
   58.5440   27.0530   42.3070 C   0  0  0  0  0  0  0  0  0  0  0  0
   57.2490   25.2140   43.5170 C   0  0  0  0  0  0  0  0  0  0  0  0
   56.7720   25.0200   44.8040 C   0  0  0  0  0  0  0  0  0  0  0  0
   56.1480   23.8880   45.1860 C   0  0  0  0  0  0  0  0  0  0  0  0
   54.7010   23.7370   45.4000 C   0  0  0  0  0  0  0  0  0  0  0  0
   54.0190   22.5860   45.2470 N   0  0  0  0  0  0  0  0  0  0  0  0
   52.7320   22.9640   45.4060 C   0  0  0  0  0  0  0  0  0  0  0  0
   51.7750   22.1480   45.3480 O   0  0  0  0  0  0  0  0  0  0  0  0
   52.5500   24.2850   45.6200 N   0  0  0  0  0  0  0  0  0  0  0  0
   53.8060   24.7600   45.5970 C   0  0  0  0  0  0  0  0  0  0  0  0
   54.1250   26.1030   45.7470 O   0  0  0  0  0  0  0  0  0  0  0  0
   57.0960   26.1840   45.5220 C   0  0  0  0  0  0  0  0  0  0  0  0
   56.6830   26.5220   46.7530 C   0  0  0  0  0  0  0  0  0  0  0  0
  1  2  1  0
  2  3  2  0
  3  4  1  0
  4  5  1  0
  5  6  1  0
  6  7  1  0
  7  8  1  0
  8  9  1  0
  9 10  1  0
  9 11  1  0
  8 12  1  0
 12 13  1  0
  4 14  2  0
 14 15  1  0
 15 16  2  0
 16 17  1  0
 17 18  1  0
 18 19  1  0
 18 20  2  0
 20 21  1  0
 21 22  2  0
 22 23  1  0
 23 24  1  0
 24 25  1  0
 25 26  2  0
 25 27  1  0
 27 28  1  0
 28 29  1  0
 21 30  1  0
 30 31  2  0
 16  2  1  0
 30 17  1  0
 13  5  1  0
 28 23  2  0
M  CHG  3  24  -1  27  -1  29  -1
M  END
>  <UniqueID>  (1222) 
48

>  <SMILES>  (1222) 
C=c1/c(=C\c2[n-]c(=O)[n-]c2[O-])cc(C)n1-c1ccc(N2CCC(N(C)C)CC2)cc1O

>  <Energy>  (1222) 
148.95582990020225

>  <Genealogy>  (1222) 
C=c1c(=Cc2[n-]c(=O)[n-]c2[O-])cc(C)n1-c1ccc(N2CCC(N(C)C)CC2)cc1O (protonated)
C=c1/c(=C\c2[n-]c(=O)[n-]c2[O-])cc(C)n1-c1ccc(N2CCC(N(C)C)CC2)cc1O (cis-trans isomerization)
C=c1/c(=C\c2[n-]c(=O)[n-]c2[O-])cc(C)n1-c1ccc(N2CCC(N(C)C)CC2)cc1O (3D coordinates assigned)
C=c1/c(=C\c2[n-]c(=O)[n-]c2[O-])cc(C)n1-c1ccc(N2CCC(N(C)C)CC2)cc1O (nonaromatic ring conformer: 148.95582990020225 kcal/mol)

>  <smiles>  (1222) 
C=c1c(=Cc2[nH]c(=O)[nH]c2O)cc(C)n1-c1ccc(N2CCC(N(C)C)CC2)cc1O

>  <score_type>  (1222) 
oracle

>  <origin>  (1222) 
adg

>  <m_score__min__energy>  (1222) 
-15.529999999999999

>  <m_primary>  (1222) 
energy

$$$$
56:0
     RDKit          3D

 35 38  0  0  0  0  0  0  0  0999 V2000
   58.1430   25.6740   47.5470 C   0  0  0  0  0  0  0  0  0  0  0  0
   57.8730   25.8760   46.2480 C   0  0  0  0  0  0  0  0  0  0  0  0
   57.1370   25.0330   45.3990 C   0  0  0  0  0  0  0  0  0  0  0  0
   56.3280   23.9920   45.6750 C   0  0  0  0  0  0  0  0  0  0  0  0
   54.8710   23.9580   45.4590 C   0  0  0  0  0  0  0  0  0  0  0  0
   54.1500   22.8380   45.2670 N   0  0  0  0  0  0  0  0  0  0  0  0
   52.8750   23.2850   45.2650 C   0  0  0  0  0  0  0  0  0  0  0  0
   51.8900   22.5210   45.0940 O   0  0  0  0  0  0  0  0  0  0  0  0
   52.7390   24.6110   45.4730 N   0  0  0  0  0  0  0  0  0  0  0  0
   54.0120   25.0190   45.6080 C   0  0  0  0  0  0  0  0  0  0  0  0
   54.3790   26.3320   45.8710 O   0  0  0  0  0  0  0  0  0  0  0  0
   57.3600   25.4900   44.1110 C   0  0  0  0  0  0  0  0  0  0  0  0
   58.1390   26.6220   44.2170 C   0  0  0  0  0  0  0  0  0  0  0  0
   58.5860   27.4560   43.0540 C   0  0  0  0  0  0  0  0  0  0  0  0
   58.4520   26.8590   45.5110 N   0  0  0  0  0  0  0  0  0  0  0  0
   59.2610   27.9470   45.9980 C   0  0  0  0  0  0  0  0  0  0  0  0
   59.0260   28.4830   47.2720 C   0  0  0  0  0  0  0  0  0  0  0  0
   59.7990   29.5470   47.7440 C   0  0  0  0  0  0  0  0  0  0  0  0
   60.8110   30.0960   46.9420 C   0  0  0  0  0  0  0  0  0  0  0  0
   61.6420   31.2390   47.4580 C   0  0  0  0  0  0  0  0  0  0  0  0
   60.9430   31.9430   48.5330 N   0  0  0  0  0  0  0  0  0  0  0  0
   61.4190   33.6160   48.6000 S   0  0  0  0  0  0  0  0  0  0  0  0
   62.8070   33.7870   48.0480 O   0  0  0  0  0  0  0  0  0  0  0  0
   61.3840   34.1040   50.0220 O   0  0  0  0  0  0  0  0  0  0  0  0
   60.2810   34.5940   47.6310 C   0  0  0  0  0  0  0  0  0  0  0  0
   60.2300   34.0940   46.1820 C   0  0  0  0  0  0  0  0  0  0  0  0
   58.8340   34.0010   45.6930 N   0  0  0  0  0  0  0  0  0  0  0  0
   57.9750   33.2630   46.6540 C   0  0  0  0  0  0  0  0  0  0  0  0
   57.8380   31.7810   46.2760 C   0  0  0  0  0  0  0  0  0  0  0  0
   57.1850   31.6180   44.9570 N   0  0  0  0  0  0  0  0  0  0  0  0
   57.5560   30.3270   44.3540 C   0  0  0  0  0  0  0  0  0  0  0  0
   57.4400   32.7450   44.0250 C   0  0  0  0  0  0  0  0  0  0  0  0
   58.7770   33.4460   44.3150 C   0  0  0  0  0  0  0  0  0  0  0  0
   61.0490   29.5580   45.6670 C   0  0  0  0  0  0  0  0  0  0  0  0
   60.2790   28.4880   45.2000 C   0  0  0  0  0  0  0  0  0  0  0  0
  1  2  2  0
  2  3  1  0
  3  4  2  0
  4  5  1  0
  5  6  1  0
  6  7  1  0
  7  8  2  0
  7  9  1  0
  9 10  1  0
 10 11  1  0
  3 12  1  0
 12 13  2  0
 13 14  1  0
 13 15  1  0
 15 16  1  0
 16 17  2  0
 17 18  1  0
 18 19  2  0
 19 20  1  0
 20 21  1  0
 21 22  1  0
 22 23  2  0
 22 24  2  0
 22 25  1  0
 25 26  1  0
 26 27  1  0
 27 28  1  0
 28 29  1  0
 29 30  1  0
 30 31  1  0
 30 32  1  0
 32 33  1  0
 19 34  1  0
 34 35  2  0
 15  2  1  0
 35 16  1  0
 10  5  2  0
 33 27  1  0
M  CHG  4   6  -1   9  -1  11  -1  21  -1
M  END
>  <UniqueID>  (1223) 
51

>  <SMILES>  (1223) 
C=c1/c(=C\c2[n-]c(=O)[n-]c2[O-])cc(C)n1-c1ccc(C[N-]S(=O)(=O)CCN2CCN(C)CC2)cc1

>  <Energy>  (1223) 
145.86192201233246

>  <Genealogy>  (1223) 
C=c1c(=Cc2[n-]c(=O)[n-]c2[O-])cc(C)n1-c1ccc(C[N-]S(=O)(=O)CCN2CCN(C)CC2)cc1 (protonated)
C=c1/c(=C\c2[n-]c(=O)[n-]c2[O-])cc(C)n1-c1ccc(C[N-]S(=O)(=O)CCN2CCN(C)CC2)cc1 (cis-trans isomerization)
C=c1/c(=C\c2[n-]c(=O)[n-]c2[O-])cc(C)n1-c1ccc(C[N-]S(=O)(=O)CCN2CCN(C)CC2)cc1 (3D coordinates assigned)
C=c1/c(=C\c2[n-]c(=O)[n-]c2[O-])cc(C)n1-c1ccc(C[N-]S(=O)(=O)CCN2CCN(C)CC2)cc1 (nonaromatic ring conformer: 145.86192201233246 kcal/mol)

>  <smiles>  (1223) 
C=c1c(=Cc2[nH]c(=O)[nH]c2O)cc(C)n1-c1ccc(CNS(=O)(=O)CCN2CCN(C)CC2)cc1

>  <score_type>  (1223) 
oracle

>  <origin>  (1223) 
adg

>  <m_score__min__energy>  (1223) 
-17.710000000000001

>  <m_primary>  (1223) 
energy

$$$$
61:0
     RDKit          3D

 27 29  0  0  0  0  0  0  0  0999 V2000
   59.1310   27.6060   46.6490 O   0  0  0  0  0  0  0  0  0  0  0  0
   57.9640   27.9890   46.3680 C   0  0  0  0  0  0  0  0  0  0  0  0
   56.8680   27.1030   46.6330 N   0  0  0  0  0  0  0  0  0  0  0  0
   56.5920   25.9640   46.0580 C   0  0  0  0  0  0  0  0  0  0  0  0
   57.6360   25.1580   45.7200 N   0  0  0  0  0  0  0  0  0  0  0  0
   57.4650   23.9430   45.1350 C   0  0  0  0  0  0  0  0  0  0  0  0
   56.1820   23.4780   44.8550 C   0  0  0  0  0  0  0  0  0  0  0  0
   55.0870   24.2820   45.1580 C   0  0  0  0  0  0  0  0  0  0  0  0
   55.2750   25.5370   45.7480 C   0  0  0  0  0  0  0  0  0  0  0  0
   54.1600   26.3370   45.9660 O   0  0  0  0  0  0  0  0  0  0  0  0
   57.7410   29.3710   45.8600 C   0  0  0  0  0  0  0  0  0  0  0  0
   56.5350   29.7170   45.2350 C   0  0  0  0  0  0  0  0  0  0  0  0
   55.5260   28.7780   45.0560 O   0  0  0  0  0  0  0  0  0  0  0  0
   56.3310   30.9870   44.8170 N   0  0  0  0  0  0  0  0  0  0  0  0
   57.2670   31.9520   44.9830 C   0  0  0  0  0  0  0  0  0  0  0  0
   57.0080   33.1210   44.5870 O   0  0  0  0  0  0  0  0  0  0  0  0
   58.4710   31.6570   45.5730 N   0  0  0  0  0  0  0  0  0  0  0  0
   59.4830   32.7170   45.7840 C   0  0  0  0  0  0  0  0  0  0  0  0
   59.5030   33.1910   47.2460 C   0  0  0  0  0  0  0  0  0  0  0  0
   60.9010   33.1990   47.8160 C   0  0  0  0  0  0  0  0  0  0  0  0
   61.3080   34.1890   48.6290 C   0  0  0  0  0  0  0  0  0  0  0  0
   62.7150   34.1760   49.1590 C   0  0  0  0  0  0  0  0  0  0  0  0
   63.7120   33.8530   48.0310 C   0  0  0  0  0  0  0  0  0  0  0  0
   63.2540   32.6980   47.1000 C   0  0  0  0  0  0  0  0  0  0  0  0
   61.8820   32.1040   47.4690 C   0  0  0  0  0  0  0  0  0  0  0  0
   58.7200   30.3760   46.0010 C   0  0  0  0  0  0  0  0  0  0  0  0
   59.8390   30.0900   46.5120 O   0  0  0  0  0  0  0  0  0  0  0  0
  1  2  2  0
  2  3  1  0
  3  4  2  3
  4  5  1  0
  5  6  1  0
  6  7  2  0
  7  8  1  0
  8  9  2  0
  9 10  1  0
  2 11  1  0
 11 12  2  0
 12 13  1  0
 12 14  1  0
 14 15  1  0
 15 16  2  0
 15 17  1  0
 17 18  1  0
 18 19  1  0
 19 20  1  0
 20 21  2  0
 21 22  1  0
 22 23  1  0
 23 24  1  0
 24 25  1  0
 17 26  1  0
 26 27  2  0
  9  4  1  0
 26 11  1  0
 25 20  1  0
M  CHG  4   5  -1  10  -1  13  -1  14  -1
M  END
>  <UniqueID>  (1224) 
55

>  <SMILES>  (1224) 
O=C(N=c1[n-]cccc1[O-])c1c([O-])[n-]c(=O)n(CCC2=CCCCC2)c1=O

>  <Energy>  (1224) 
62.07631619885992

>  <Genealogy>  (1224) 
O=C(N=c1[n-]cccc1[O-])c1c([O-])[n-]c(=O)n(CCC2=CCCCC2)c1=O (protonated)
O=C(N=c1[n-]cccc1[O-])c1c([O-])[n-]c(=O)n(CCC2=CCCCC2)c1=O (3D coordinates assigned)
O=C(N=c1[n-]cccc1[O-])c1c([O-])[n-]c(=O)n(CCC2=CCCCC2)c1=O (nonaromatic ring conformer: 62.07631619885992 kcal/mol)

>  <smiles>  (1224) 
O=C(N=c1[nH]cccc1O)c1c(O)[nH]c(=O)n(CCC2=CCCCC2)c1=O

>  <score_type>  (1224) 
oracle

>  <origin>  (1224) 
adg

>  <m_score__min__energy>  (1224) 
-18.059999999999999

>  <m_primary>  (1224) 
energy

$$$$
62:0
     RDKit          3D

 26 30  0  0  0  0  0  0  0  0999 V2000
   54.7660   30.9680   51.5600 C   0  0  0  0  0  0  0  0  0  0  0  0
   55.9290   30.7750   52.1040 N   0  0  0  0  0  0  0  0  0  0  0  0
   55.7460   29.9630   53.2330 N   0  0  0  0  0  0  0  0  0  0  0  0
   56.5210   28.9400   53.6650 C   0  0  0  0  0  0  0  0  0  0  0  0
   57.8230   28.9250   53.7970 N   0  0  0  0  0  0  0  0  0  0  0  0
   58.9900   29.0460   52.9050 C   0  0  0  0  0  0  0  0  0  0  0  0
   59.5540   30.4230   52.6130 C   0  0  0  0  0  0  0  0  0  0  0  0
   58.7230   29.6850   51.5580 C   0  0  0  0  0  0  0  0  0  0  0  0
   55.7660   27.8740   54.0220 N   0  0  0  0  0  0  0  0  0  0  0  0
   54.5040   28.2970   53.7740 C   0  0  0  0  0  0  0  0  0  0  0  0
   53.3700   27.3650   53.7130 C   0  0  0  0  0  0  0  0  0  0  0  0
   53.5740   26.0470   53.2770 C   0  0  0  0  0  0  0  0  0  0  0  0
   52.4990   25.1550   53.2150 C   0  0  0  0  0  0  0  0  0  0  0  0
   51.2150   25.5780   53.5690 C   0  0  0  0  0  0  0  0  0  0  0  0
   51.0010   26.8980   53.9770 C   0  0  0  0  0  0  0  0  0  0  0  0
   52.0730   27.7930   54.0420 C   0  0  0  0  0  0  0  0  0  0  0  0
   54.4970   29.5810   53.3490 N   0  0  0  0  0  0  0  0  0  0  0  0
   53.7560   30.2440   52.3320 C   0  0  0  0  0  0  0  0  0  0  0  0
   52.4280   30.3610   52.2120 C   0  0  0  0  0  0  0  0  0  0  0  0
   51.7380   30.7990   50.9870 C   0  0  0  0  0  0  0  0  0  0  0  0
   51.6860   30.0580   49.8670 N   0  0  0  0  0  0  0  0  0  0  0  0
   51.0150   30.8450   48.9990 C   0  0  0  0  0  0  0  0  0  0  0  0
   50.7480   30.4840   47.8230 O   0  0  0  0  0  0  0  0  0  0  0  0
   50.6570   32.0510   49.4880 N   0  0  0  0  0  0  0  0  0  0  0  0
   51.1300   32.0130   50.7440 C   0  0  0  0  0  0  0  0  0  0  0  0
   51.0380   33.0780   51.6310 O   0  0  0  0  0  0  0  0  0  0  0  0
  1  2  2  0
  2  3  1  0
  3  4  1  0
  4  5  2  0
  5  6  1  0
  6  7  1  0
  7  8  1  0
  4  9  1  0
  9 10  2  0
 10 11  1  0
 11 12  2  0
 12 13  1  0
 13 14  2  0
 14 15  1  0
 15 16  2  0
 10 17  1  0
 17 18  1  0
 18 19  2  0
 19 20  1  0
 20 21  1  0
 21 22  1  0
 22 23  2  0
 22 24  1  0
 24 25  1  0
 25 26  1  0
 18  1  1  0
 25 20  2  0
 17  3  1  0
  8  6  1  0
 16 11  1  0
M  CHG  3  21  -1  24  -1  26  -1
M  END
>  <UniqueID>  (1225) 
56

>  <SMILES>  (1225) 
O=c1[n-]c([O-])c(/C=C2/C=Nn3/c(=N\C4CC4)nc(-c4ccccc4)n32)[n-]1

>  <Energy>  (1225) 
458.8462390409439

>  <Genealogy>  (1225) 
O=c1[n-]c([O-])c(C=C2C=Nn3c(=NC4CC4)nc(-c4ccccc4)n32)[n-]1 (protonated)
O=c1[n-]c([O-])c(/C=C2/C=Nn3/c(=N\C4CC4)nc(-c4ccccc4)n32)[n-]1 (cis-trans isomerization)
O=c1[n-]c([O-])c(/C=C2/C=Nn3/c(=N\C4CC4)nc(-c4ccccc4)n32)[n-]1 (3D coordinates assigned)
O=c1[n-]c([O-])c(/C=C2/C=Nn3/c(=N\C4CC4)nc(-c4ccccc4)n32)[n-]1 (nonaromatic ring conformer: 458.8462390409439 kcal/mol)

>  <smiles>  (1225) 
O=c1[nH]c(O)c(C=C2C=Nn3c(=NC4CC4)nc(-c4ccccc4)n32)[nH]1

>  <score_type>  (1225) 
oracle

>  <origin>  (1225) 
adg

>  <m_score__min__energy>  (1225) 
-15.27

>  <m_primary>  (1225) 
energy

$$$$
63:0
     RDKit          3D

 24 26  0  0  0  0  0  0  0  0999 V2000
   53.9120   30.0260   54.8600 C   0  0  0  0  0  0  0  0  0  0  0  0
   54.4520   30.2740   53.6570 C   0  0  0  0  0  0  0  0  0  0  0  0
   53.7420   30.4670   52.4670 C   0  0  0  0  0  0  0  0  0  0  0  0
   52.4060   30.4160   52.2900 C   0  0  0  0  0  0  0  0  0  0  0  0
   51.7220   30.8210   51.0490 C   0  0  0  0  0  0  0  0  0  0  0  0
   51.7020   30.0650   49.9380 N   0  0  0  0  0  0  0  0  0  0  0  0
   51.0560   30.8410   49.0400 C   0  0  0  0  0  0  0  0  0  0  0  0
   50.8270   30.4650   47.8610 O   0  0  0  0  0  0  0  0  0  0  0  0
   50.6870   32.0540   49.5020 N   0  0  0  0  0  0  0  0  0  0  0  0
   51.1250   32.0310   50.7720 C   0  0  0  0  0  0  0  0  0  0  0  0
   51.0240   33.1140   51.6370 O   0  0  0  0  0  0  0  0  0  0  0  0
   54.6800   30.8060   51.5050 C   0  0  0  0  0  0  0  0  0  0  0  0
   55.9110   30.7890   52.1280 C   0  0  0  0  0  0  0  0  0  0  0  0
   57.1880   31.2190   51.4660 C   0  0  0  0  0  0  0  0  0  0  0  0
   55.7860   30.4270   53.4290 N   0  0  0  0  0  0  0  0  0  0  0  0
   56.8900   30.3310   54.4030 C   0  0  0  0  0  0  0  0  0  0  0  0
   57.8560   29.1980   54.0860 C   0  0  0  0  0  0  0  0  0  0  0  0
   57.4050   27.8630   54.1870 C   0  0  0  0  0  0  0  0  0  0  0  0
   56.1280   27.5840   54.5560 F   0  0  0  0  0  0  0  0  0  0  0  0
   58.2580   26.7980   53.8940 C   0  0  0  0  0  0  0  0  0  0  0  0
   59.5740   27.0380   53.5130 C   0  0  0  0  0  0  0  0  0  0  0  0
   60.0520   28.3460   53.4370 C   0  0  0  0  0  0  0  0  0  0  0  0
   59.2160   29.4340   53.7410 C   0  0  0  0  0  0  0  0  0  0  0  0
   59.7970   30.8210   53.6760 C   0  0  0  0  0  0  0  0  0  0  0  0
  1  2  2  0
  2  3  1  0
  3  4  2  0
  4  5  1  0
  5  6  1  0
  6  7  1  0
  7  8  2  0
  7  9  1  0
  9 10  1  0
 10 11  1  0
  3 12  1  0
 12 13  2  0
 13 14  1  0
 13 15  1  0
 15 16  1  0
 16 17  1  0
 17 18  2  0
 18 19  1  0
 18 20  1  0
 20 21  2  0
 21 22  1  0
 22 23  2  0
 23 24  1  0
 15  2  1  0
 23 17  1  0
 10  5  2  0
M  CHG  3   6  -1   9  -1  11  -1
M  END
>  <UniqueID>  (1226) 
57

>  <SMILES>  (1226) 
C=c1/c(=C/c2[n-]c(=O)[n-]c2[O-])cc(C)n1Cc1c(C)cccc1F

>  <Energy>  (1226) 
109.0601437889244

>  <Genealogy>  (1226) 
C=c1c(=Cc2[n-]c(=O)[n-]c2[O-])cc(C)n1Cc1c(C)cccc1F (protonated)
C=c1/c(=C/c2[n-]c(=O)[n-]c2[O-])cc(C)n1Cc1c(C)cccc1F (cis-trans isomerization)
C=c1/c(=C/c2[n-]c(=O)[n-]c2[O-])cc(C)n1Cc1c(C)cccc1F (3D coordinates assigned)
C=c1/c(=C/c2[n-]c(=O)[n-]c2[O-])cc(C)n1Cc1c(C)cccc1F (optimized conformer: 109.0601437889244 kcal/mol)

>  <smiles>  (1226) 
C=c1c(=Cc2[nH]c(=O)[nH]c2O)cc(C)n1Cc1c(C)cccc1F

>  <score_type>  (1226) 
oracle

>  <origin>  (1226) 
adg

>  <m_score__min__energy>  (1226) 
-15.52

>  <m_primary>  (1226) 
energy

$$$$
68:0
     RDKit          3D

 25 27  0  0  0  0  0  0  0  0999 V2000
   58.9350   28.7330   48.0390 C   0  0  0  0  0  0  0  0  0  0  0  0
   58.8890   28.3290   46.7590 C   0  0  0  0  0  0  0  0  0  0  0  0
   58.2780   27.1690   46.2520 C   0  0  0  0  0  0  0  0  0  0  0  0
   57.7570   26.0940   46.8790 C   0  0  0  0  0  0  0  0  0  0  0  0
   56.5090   25.4040   46.4990 C   0  0  0  0  0  0  0  0  0  0  0  0
   55.4330   26.1040   45.9260 C   0  0  0  0  0  0  0  0  0  0  0  0
   55.5280   27.4670   45.6690 O   0  0  0  0  0  0  0  0  0  0  0  0
   54.2820   25.4480   45.6260 N   0  0  0  0  0  0  0  0  0  0  0  0
   54.1420   24.1230   45.8860 C   0  0  0  0  0  0  0  0  0  0  0  0
   53.0670   23.5360   45.5960 O   0  0  0  0  0  0  0  0  0  0  0  0
   55.1560   23.4320   46.4650 N   0  0  0  0  0  0  0  0  0  0  0  0
   56.3270   24.0410   46.7850 C   0  0  0  0  0  0  0  0  0  0  0  0
   57.2460   23.3710   47.3270 O   0  0  0  0  0  0  0  0  0  0  0  0
   58.3150   27.3380   44.8720 C   0  0  0  0  0  0  0  0  0  0  0  0
   57.7860   26.3980   43.8330 C   0  0  0  0  0  0  0  0  0  0  0  0
   58.9500   28.4860   44.5830 N   0  0  0  0  0  0  0  0  0  0  0  0
   59.3250   29.0760   45.7090 N   0  0  0  0  0  0  0  0  0  0  0  0
   59.9850   30.3910   45.7550 C   0  0  0  0  0  0  0  0  0  0  0  0
   58.9730   31.5130   45.7400 C   0  0  0  0  0  0  0  0  0  0  0  0
   57.8330   31.4090   44.9220 C   0  0  0  0  0  0  0  0  0  0  0  0
   56.8980   32.4450   44.8790 C   0  0  0  0  0  0  0  0  0  0  0  0
   57.0910   33.5960   45.6450 C   0  0  0  0  0  0  0  0  0  0  0  0
   58.2210   33.7150   46.4560 C   0  0  0  0  0  0  0  0  0  0  0  0
   59.1660   32.6820   46.5070 C   0  0  0  0  0  0  0  0  0  0  0  0
   60.5810   32.8890   47.5350 Cl  0  0  0  0  0  0  0  0  0  0  0  0
  1  2  2  0
  2  3  1  0
  3  4  2  0
  4  5  1  0
  5  6  2  0
  6  7  1  0
  6  8  1  0
  8  9  1  0
  9 10  2  0
  9 11  1  0
 11 12  1  0
 12 13  2  0
  3 14  1  0
 14 15  1  0
 14 16  2  0
 16 17  1  0
 17 18  1  0
 18 19  1  0
 19 20  2  0
 20 21  1  0
 21 22  2  0
 22 23  1  0
 23 24  2  0
 24 25  1  0
 17  2  1  0
 24 19  1  0
 12  5  1  0
M  CHG  4   7  -1   8  -1  11  -1  16   1
M  END
>  <UniqueID>  (1227) 
62

>  <SMILES>  (1227) 
C=c1/c(=C\c2c([O-])[n-]c(=O)[n-]c2=O)c(C)[nH+]n1Cc1ccccc1Cl

>  <Energy>  (1227) 
89.08478490022806

>  <Genealogy>  (1227) 
C=c1c(=Cc2c([O-])[n-]c(=O)[n-]c2=O)c(C)[nH+]n1Cc1ccccc1Cl (protonated)
C=c1/c(=C\c2c([O-])[n-]c(=O)[n-]c2=O)c(C)[nH+]n1Cc1ccccc1Cl (cis-trans isomerization)
C=c1/c(=C\c2c([O-])[n-]c(=O)[n-]c2=O)c(C)[nH+]n1Cc1ccccc1Cl (3D coordinates assigned)
C=c1/c(=C\c2c([O-])[n-]c(=O)[n-]c2=O)c(C)[nH+]n1Cc1ccccc1Cl (optimized conformer: 89.08478490022806 kcal/mol)

>  <smiles>  (1227) 
C=c1c(=Cc2c(O)[nH]c(=O)[nH]c2=O)c(C)nn1Cc1ccccc1Cl

>  <score_type>  (1227) 
oracle

>  <origin>  (1227) 
adg

>  <m_score__min__energy>  (1227) 
-14.369999999999999

>  <m_primary>  (1227) 
energy

$$$$
74:0
     RDKit          3D

 26 28  0  0  0  0  0  0  0  0999 V2000
   56.0680   30.8910   44.6060 O   0  0  0  0  0  0  0  0  0  0  0  0
   56.8840   30.0020   44.9730 C   0  0  0  0  0  0  0  0  0  0  0  0
   56.7050   28.5930   44.4950 C   0  0  0  0  0  0  0  0  0  0  0  0
   57.0400   27.6410   45.5990 C   0  0  0  0  0  0  0  0  0  0  0  0
   58.2880   27.4060   46.0440 N   0  0  0  0  0  0  0  0  0  0  0  0
   58.1140   26.4190   46.9540 C   0  0  0  0  0  0  0  0  0  0  0  0
   59.0710   25.9190   47.6030 O   0  0  0  0  0  0  0  0  0  0  0  0
   56.8380   26.0040   47.1020 N   0  0  0  0  0  0  0  0  0  0  0  0
   56.1720   26.7810   46.2300 C   0  0  0  0  0  0  0  0  0  0  0  0
   54.8040   26.6820   45.9980 O   0  0  0  0  0  0  0  0  0  0  0  0
   57.9970   30.3390   45.8150 N   0  0  0  0  0  0  0  0  0  0  0  0
   58.4330   31.6920   46.0350 C   0  0  0  0  0  0  0  0  0  0  0  0
   57.5860   32.7640   45.7010 C   0  0  0  0  0  0  0  0  0  0  0  0
   58.0080   34.0840   45.8690 C   0  0  0  0  0  0  0  0  0  0  0  0
   59.2810   34.3500   46.3710 C   0  0  0  0  0  0  0  0  0  0  0  0
   60.1370   33.2970   46.7040 C   0  0  0  0  0  0  0  0  0  0  0  0
   59.7290   31.9610   46.5340 C   0  0  0  0  0  0  0  0  0  0  0  0
   60.6670   30.8450   46.9430 C   0  0  0  0  0  0  0  0  0  0  0  0
   61.2270   31.0390   48.3360 C   0  0  0  0  0  0  0  0  0  0  0  0
   60.5860   30.5840   49.3270 O   0  0  0  0  0  0  0  0  0  0  0  0
   62.4570   31.7720   48.5560 N   0  0  0  0  0  0  0  0  0  0  0  0
   63.1280   31.6670   49.8620 C   0  0  0  0  0  0  0  0  0  0  0  0
   64.0300   32.8800   50.1050 C   0  0  0  0  0  0  0  0  0  0  0  0
   64.8970   33.0870   49.0060 O   0  0  0  0  0  0  0  0  0  0  0  0
   64.1360   33.4560   47.8750 C   0  0  0  0  0  0  0  0  0  0  0  0
   63.2280   32.3050   47.4230 C   0  0  0  0  0  0  0  0  0  0  0  0
  1  2  2  0
  2  3  1  0
  3  4  1  0
  4  5  1  0
  5  6  1  0
  6  7  2  0
  6  8  1  0
  8  9  1  0
  9 10  1  0
  2 11  1  0
 11 12  1  0
 12 13  2  0
 13 14  1  0
 14 15  2  0
 15 16  1  0
 16 17  2  0
 17 18  1  0
 18 19  1  0
 19 20  2  0
 19 21  1  0
 21 22  1  0
 22 23  1  0
 23 24  1  0
 24 25  1  0
 25 26  1  0
  9  4  2  0
 17 12  1  0
 26 21  1  0
M  CHG  3   5  -1   8  -1  10  -1
M  END
>  <UniqueID>  (1228) 
68

>  <SMILES>  (1228) 
O=C(Cc1[n-]c(=O)[n-]c1[O-])Nc1ccccc1CC(=O)N1CCOCC1

>  <Energy>  (1228) 
78.0034123680597

>  <Genealogy>  (1228) 
O=C(Cc1[n-]c(=O)[n-]c1[O-])Nc1ccccc1CC(=O)N1CCOCC1 (protonated)
O=C(Cc1[n-]c(=O)[n-]c1[O-])Nc1ccccc1CC(=O)N1CCOCC1 (3D coordinates assigned)
O=C(Cc1[n-]c(=O)[n-]c1[O-])Nc1ccccc1CC(=O)N1CCOCC1 (nonaromatic ring conformer: 78.0034123680597 kcal/mol)

>  <smiles>  (1228) 
O=C(Cc1[nH]c(=O)[nH]c1O)Nc1ccccc1CC(=O)N1CCOCC1

>  <score_type>  (1228) 
oracle

>  <origin>  (1228) 
adg

>  <m_score__min__energy>  (1228) 
-15.93

>  <m_primary>  (1228) 
energy

$$$$
75:0
     RDKit          3D

 34 37  0  0  0  0  0  0  0  0999 V2000
   56.5960   22.7960   45.6850 C   0  0  0  0  0  0  0  0  0  0  0  0
   57.1660   23.9120   46.2110 N   0  0  0  0  0  0  0  0  0  0  0  0
   56.4800   25.0790   46.3800 C   0  0  0  0  0  0  0  0  0  0  0  0
   57.1250   26.0860   46.9040 N   0  0  0  0  0  0  0  0  0  0  0  0
   58.2810   26.7770   46.4070 C   0  0  0  0  0  0  0  0  0  0  0  0
   59.3260   26.1220   46.1370 O   0  0  0  0  0  0  0  0  0  0  0  0
   58.2120   28.2220   46.0530 C   0  0  0  0  0  0  0  0  0  0  0  0
   57.4040   28.6080   44.9680 C   0  0  0  0  0  0  0  0  0  0  0  0
   57.3020   29.9120   44.6050 N   0  0  0  0  0  0  0  0  0  0  0  0
   57.9570   30.9050   45.2560 C   0  0  0  0  0  0  0  0  0  0  0  0
   57.8080   32.1260   44.8300 N   0  0  0  0  0  0  0  0  0  0  0  0
   57.8240   33.5750   45.7910 S   0  0  0  0  0  0  0  0  0  0  0  0
   57.7340   34.7730   44.8860 O   0  0  0  0  0  0  0  0  0  0  0  0
   56.6320   33.5690   46.7040 O   0  0  0  0  0  0  0  0  0  0  0  0
   59.2870   33.6340   46.7680 C   0  0  0  0  0  0  0  0  0  0  0  0
   60.5320   33.7750   46.1520 C   0  0  0  0  0  0  0  0  0  0  0  0
   61.7030   33.7900   46.9150 C   0  0  0  0  0  0  0  0  0  0  0  0
   61.6600   33.6590   48.3240 C   0  0  0  0  0  0  0  0  0  0  0  0
   62.8840   33.6500   49.1260 N   0  0  0  0  0  0  0  0  0  0  0  0
   64.0750   32.9420   48.6050 C   0  0  0  0  0  0  0  0  0  0  0  0
   65.3350   33.0760   49.4700 C   0  0  0  0  0  0  0  0  0  0  0  0
   65.0460   33.0990   50.9080 N   0  0  0  0  0  0  0  0  0  0  0  0
   64.4960   31.8270   51.4040 C   0  0  0  0  0  0  0  0  0  0  0  0
   64.1970   34.2510   51.2220 C   0  0  0  0  0  0  0  0  0  0  0  0
   62.8480   34.2290   50.4890 C   0  0  0  0  0  0  0  0  0  0  0  0
   60.3840   33.5400   48.9290 C   0  0  0  0  0  0  0  0  0  0  0  0
   59.2180   33.5230   48.1580 C   0  0  0  0  0  0  0  0  0  0  0  0
   58.7720   30.5770   46.3530 C   0  0  0  0  0  0  0  0  0  0  0  0
   58.9260   29.2360   46.7460 C   0  0  0  0  0  0  0  0  0  0  0  0
   59.8610   28.9290   47.8910 C   0  0  0  0  0  0  0  0  0  0  0  0
   55.1280   25.1450   45.9430 C   0  0  0  0  0  0  0  0  0  0  0  0
   54.3900   26.3260   45.9600 O   0  0  0  0  0  0  0  0  0  0  0  0
   54.5250   23.9940   45.4220 C   0  0  0  0  0  0  0  0  0  0  0  0
   55.2570   22.8130   45.2940 C   0  0  0  0  0  0  0  0  0  0  0  0
  1  2  1  0
  2  3  1  0
  3  4  2  0
  4  5  1  0
  5  6  2  0
  5  7  1  0
  7  8  2  0
  8  9  1  0
  9 10  1  0
 10 11  2  3
 11 12  1  0
 12 13  2  0
 12 14  2  0
 12 15  1  0
 15 16  2  0
 16 17  1  0
 17 18  2  0
 18 19  1  0
 19 20  1  0
 20 21  1  0
 21 22  1  0
 22 23  1  0
 22 24  1  0
 24 25  1  0
 18 26  1  0
 26 27  2  0
 10 28  1  0
 28 29  2  0
 29 30  1  0
  3 31  1  0
 31 32  1  0
 31 33  2  0
 33 34  1  0
 34  1  2  0
 29  7  1  0
 27 15  1  0
 25 19  1  0
M  CHG  3   2  -1   9  -1  32  -1
M  END
>  <UniqueID>  (1229) 
69

>  <SMILES>  (1229) 
Cc1cc(=NS(=O)(=O)c2ccc(N3CCN(C)CC3)cc2)[n-]cc1C(=O)/N=c1/[n-]cccc1[O-]

>  <Energy>  (1229) 
94.52412584180512

>  <Genealogy>  (1229) 
Cc1cc(=NS(=O)(=O)c2ccc(N3CCN(C)CC3)cc2)[n-]cc1C(=O)N=c1[n-]cccc1[O-] (protonated)
Cc1cc(=NS(=O)(=O)c2ccc(N3CCN(C)CC3)cc2)[n-]cc1C(=O)/N=c1/[n-]cccc1[O-] (cis-trans isomerization)
Cc1cc(=NS(=O)(=O)c2ccc(N3CCN(C)CC3)cc2)[n-]cc1C(=O)/N=c1/[n-]cccc1[O-] (3D coordinates assigned)
Cc1cc(=NS(=O)(=O)c2ccc(N3CCN(C)CC3)cc2)[n-]cc1C(=O)/N=c1/[n-]cccc1[O-] (nonaromatic ring conformer: 94.52412584180512 kcal/mol)

>  <smiles>  (1229) 
Cc1cc(=NS(=O)(=O)c2ccc(N3CCN(C)CC3)cc2)[nH]cc1C(=O)N=c1[nH]cccc1O

>  <score_type>  (1229) 
oracle

>  <origin>  (1229) 
adg

>  <m_score__min__energy>  (1229) 
-16.190000000000001

>  <m_primary>  (1229) 
energy

$$$$
80:0
     RDKit          3D

 26 28  0  0  0  0  0  0  0  0999 V2000
   56.8800   29.8270   44.3380 C   0  0  0  0  0  0  0  0  0  0  0  0
   57.9160   29.4170   45.0900 C   0  0  0  0  0  0  0  0  0  0  0  0
   58.2350   28.0870   45.3840 C   0  0  0  0  0  0  0  0  0  0  0  0
   57.6020   26.9750   44.9560 C   0  0  0  0  0  0  0  0  0  0  0  0
   57.1970   25.8710   45.8560 C   0  0  0  0  0  0  0  0  0  0  0  0
   55.8850   25.7650   46.3510 C   0  0  0  0  0  0  0  0  0  0  0  0
   54.9180   26.7050   46.0120 O   0  0  0  0  0  0  0  0  0  0  0  0
   55.5470   24.7250   47.1550 N   0  0  0  0  0  0  0  0  0  0  0  0
   56.4510   23.7670   47.4800 C   0  0  0  0  0  0  0  0  0  0  0  0
   56.0140   22.5290   48.4490 S   0  0  0  0  0  0  0  0  0  0  0  0
   57.7140   23.8300   46.9890 N   0  0  0  0  0  0  0  0  0  0  0  0
   58.1050   24.8510   46.1830 C   0  0  0  0  0  0  0  0  0  0  0  0
   59.2860   24.8760   45.7440 O   0  0  0  0  0  0  0  0  0  0  0  0
   59.3750   28.1210   46.1700 C   0  0  0  0  0  0  0  0  0  0  0  0
   59.7000   29.4510   46.3390 C   0  0  0  0  0  0  0  0  0  0  0  0
   60.9150   29.9320   47.0740 C   0  0  0  0  0  0  0  0  0  0  0  0
   58.8190   30.2460   45.6840 N   0  0  0  0  0  0  0  0  0  0  0  0
   58.9000   31.7140   45.5990 C   0  0  0  0  0  0  0  0  0  0  0  0
   59.2710   32.3030   46.9360 C   0  0  0  0  0  0  0  0  0  0  0  0
   58.3700   32.2490   48.0130 C   0  0  0  0  0  0  0  0  0  0  0  0
   58.7220   32.7840   49.2540 C   0  0  0  0  0  0  0  0  0  0  0  0
   59.9740   33.3790   49.4340 C   0  0  0  0  0  0  0  0  0  0  0  0
   60.3130   33.9080   50.6750 O   0  0  0  0  0  0  0  0  0  0  0  0
   60.8780   33.4420   48.3660 C   0  0  0  0  0  0  0  0  0  0  0  0
   62.4550   34.1860   48.5720 Cl  0  0  0  0  0  0  0  0  0  0  0  0
   60.5270   32.9070   47.1210 C   0  0  0  0  0  0  0  0  0  0  0  0
  1  2  2  0
  2  3  1  0
  3  4  2  0
  4  5  1  0
  5  6  2  0
  6  7  1  0
  6  8  1  0
  8  9  1  0
  9 10  2  0
  9 11  1  0
 11 12  1  0
 12 13  2  0
  3 14  1  0
 14 15  2  0
 15 16  1  0
 15 17  1  0
 17 18  1  0
 18 19  1  0
 19 20  2  0
 20 21  1  0
 21 22  2  0
 22 23  1  0
 22 24  1  0
 24 25  1  0
 24 26  2  0
 17  2  1  0
 26 19  1  0
 12  5  1  0
M  CHG  4   7  -1   8  -1  11  -1  23  -1
M  END
>  <UniqueID>  (1230) 
74

>  <SMILES>  (1230) 
C=c1/c(=C/c2c([O-])[n-]c(=S)[n-]c2=O)cc(C)n1Cc1ccc([O-])c(Cl)c1

>  <Energy>  (1230) 
79.10490695358888

>  <Genealogy>  (1230) 
C=c1c(=Cc2c([O-])[n-]c(=S)[n-]c2=O)cc(C)n1Cc1ccc([O-])c(Cl)c1 (protonated)
C=c1/c(=C/c2c([O-])[n-]c(=S)[n-]c2=O)cc(C)n1Cc1ccc([O-])c(Cl)c1 (cis-trans isomerization)
C=c1/c(=C/c2c([O-])[n-]c(=S)[n-]c2=O)cc(C)n1Cc1ccc([O-])c(Cl)c1 (3D coordinates assigned)
C=c1/c(=C/c2c([O-])[n-]c(=S)[n-]c2=O)cc(C)n1Cc1ccc([O-])c(Cl)c1 (optimized conformer: 79.10490695358888 kcal/mol)

>  <smiles>  (1230) 
C=c1c(=Cc2c(O)[nH]c(=S)[nH]c2=O)cc(C)n1Cc1ccc(O)c(Cl)c1

>  <score_type>  (1230) 
oracle

>  <origin>  (1230) 
adg

>  <m_score__min__energy>  (1230) 
-15.890000000000001

>  <m_primary>  (1230) 
energy

$$$$
82:0
     RDKit          3D

 38 42  0  0  0  0  0  0  0  0999 V2000
   59.9670   29.7000   46.7010 C   0  0  0  0  0  0  0  0  0  0  0  0
   59.1640   30.2340   45.7690 C   0  0  0  0  0  0  0  0  0  0  0  0
   58.3780   29.5580   44.8150 C   0  0  0  0  0  0  0  0  0  0  0  0
   58.2860   28.2510   44.5000 C   0  0  0  0  0  0  0  0  0  0  0  0
   57.5850   27.2310   45.2970 C   0  0  0  0  0  0  0  0  0  0  0  0
   56.2370   27.4030   45.6420 C   0  0  0  0  0  0  0  0  0  0  0  0
   55.5380   28.5310   45.2270 O   0  0  0  0  0  0  0  0  0  0  0  0
   55.6070   26.4660   46.3970 N   0  0  0  0  0  0  0  0  0  0  0  0
   56.2570   25.3490   46.8150 C   0  0  0  0  0  0  0  0  0  0  0  0
   55.6570   24.5010   47.5260 O   0  0  0  0  0  0  0  0  0  0  0  0
   57.5520   25.1430   46.4630 N   0  0  0  0  0  0  0  0  0  0  0  0
   58.2270   26.0500   45.7080 C   0  0  0  0  0  0  0  0  0  0  0  0
   59.4250   25.8240   45.3890 O   0  0  0  0  0  0  0  0  0  0  0  0
   57.6330   30.5320   44.1680 C   0  0  0  0  0  0  0  0  0  0  0  0
   58.0040   31.7470   44.7080 C   0  0  0  0  0  0  0  0  0  0  0  0
   57.4320   33.0740   44.3130 C   0  0  0  0  0  0  0  0  0  0  0  0
   58.9320   31.5660   45.6710 N   0  0  0  0  0  0  0  0  0  0  0  0
   59.5340   32.6150   46.4400 C   0  0  0  0  0  0  0  0  0  0  0  0
   60.9310   32.7410   46.4770 C   0  0  0  0  0  0  0  0  0  0  0  0
   61.5350   33.6610   47.3500 C   0  0  0  0  0  0  0  0  0  0  0  0
   63.0080   33.7730   47.4520 C   0  0  0  0  0  0  0  0  0  0  0  0
   63.5950   34.5030   46.6040 O   0  0  0  0  0  0  0  0  0  0  0  0
   63.7870   32.9920   48.4120 N   0  0  1  0  0  0  0  0  0  0  0  0
   63.8420   33.6420   49.7480 C   0  0  0  0  0  0  0  0  0  0  0  0
   62.4640   33.6620   50.4490 C   0  0  0  0  0  0  0  0  0  0  0  0
   61.8830   32.2310   50.5550 C   0  0  1  0  0  0  0  0  0  0  0  0
   60.5350   32.1550   51.1840 N   0  0  0  0  0  0  0  0  0  0  0  0
   59.9710   33.4800   51.4970 C   0  0  0  0  0  0  0  0  0  0  0  0
   58.7240   33.3150   52.3950 C   0  0  0  0  0  0  0  0  0  0  0  0
   58.2220   31.9870   52.4070 O   0  0  0  0  0  0  0  0  0  0  0  0
   58.1340   31.4930   51.0870 C   0  0  0  0  0  0  0  0  0  0  0  0
   59.5420   31.2970   50.4930 C   0  0  0  0  0  0  0  0  0  0  0  0
   61.9020   31.5340   49.1850 C   0  0  0  0  0  0  0  0  0  0  0  0
   63.3090   31.5960   48.5730 C   0  0  0  0  0  0  0  0  0  0  0  0
   60.7260   34.4980   48.1380 C   0  0  0  0  0  0  0  0  0  0  0  0
   59.3350   34.3890   48.0820 C   0  0  0  0  0  0  0  0  0  0  0  0
   58.7380   33.4480   47.2390 C   0  0  0  0  0  0  0  0  0  0  0  0
   57.3890   33.3230   47.2240 F   0  0  0  0  0  0  0  0  0  0  0  0
  1  2  2  0
  2  3  1  0
  3  4  2  3
  4  5  1  0
  5  6  2  0
  6  7  1  0
  6  8  1  0
  8  9  1  0
  9 10  2  0
  9 11  1  0
 11 12  1  0
 12 13  2  0
  3 14  1  0
 14 15  2  0
 15 16  1  0
 15 17  1  0
 17 18  1  0
 18 19  2  0
 19 20  1  0
 20 21  1  0
 21 22  2  0
 23 21  1  6
 23 24  1  0
 24 25  1  0
 25 26  1  0
 26 27  1  6
 27 28  1  0
 28 29  1  0
 29 30  1  0
 30 31  1  0
 31 32  1  0
 26 33  1  0
 33 34  1  0
 20 35  2  0
 35 36  1  0
 36 37  2  0
 37 38  1  0
 17  2  1  0
 37 18  1  0
 12  5  1  0
 34 23  1  0
 32 27  1  0
M  CHG  4   7  -1   8  -1  11  -1  23   1
M  END
>  <UniqueID>  (1231) 
76

>  <SMILES>  (1231) 
C=c1c(=Cc2c([O-])[n-]c(=O)[n-]c2=O)cc(C)n1-c1cc(C(=O)[NH+]2CCC(N3CCOCC3)CC2)ccc1F

>  <Energy>  (1231) 
144.72516224818298

>  <Genealogy>  (1231) 
C=c1c(=Cc2c([O-])[n-]c(=O)[n-]c2=O)cc(C)n1-c1cc(C(=O)[NH+]2CCC(N3CCOCC3)CC2)ccc1F (protonated)
C=c1c(=Cc2c([O-])[n-]c(=O)[n-]c2=O)cc(C)n1-c1cc(C(=O)[NH+]2CCC(N3CCOCC3)CC2)ccc1F (3D coordinates assigned)
C=c1c(=Cc2c([O-])[n-]c(=O)[n-]c2=O)cc(C)n1-c1cc(C(=O)[NH+]2CCC(N3CCOCC3)CC2)ccc1F (nonaromatic ring conformer: 144.72516224818298 kcal/mol)

>  <smiles>  (1231) 
C=c1c(=Cc2c(O)[nH]c(=O)[nH]c2=O)cc(C)n1-c1cc(C(=O)N2CCC(N3CCOCC3)CC2)ccc1F

>  <score_type>  (1231) 
oracle

>  <origin>  (1231) 
adg

>  <m_score__min__energy>  (1231) 
-16.620000000000001

>  <m_primary>  (1231) 
energy

$$$$
0:0
     RDKit          3D

 25 27  0  0  0  0  0  0  0  0999 V2000
   58.1460   30.4110   44.4690 C   0  0  0  0  0  0  0  0  0  0  0  0
   58.3640   29.9010   45.6910 C   0  0  0  0  0  0  0  0  0  0  0  0
   58.0700   28.6000   46.1110 C   0  0  0  0  0  0  0  0  0  0  0  0
   57.4570   27.6290   45.4040 C   0  0  0  0  0  0  0  0  0  0  0  0
   57.1670   26.2830   45.9470 C   0  0  0  0  0  0  0  0  0  0  0  0
   55.8520   25.8680   46.2250 C   0  0  0  0  0  0  0  0  0  0  0  0
   54.7740   26.7140   45.9950 O   0  0  0  0  0  0  0  0  0  0  0  0
   55.6280   24.6340   46.7450 N   0  0  0  0  0  0  0  0  0  0  0  0
   56.6560   23.7910   47.0210 C   0  0  0  0  0  0  0  0  0  0  0  0
   56.4230   22.6510   47.4990 O   0  0  0  0  0  0  0  0  0  0  0  0
   57.9360   24.1800   46.7880 N   0  0  0  0  0  0  0  0  0  0  0  0
   58.2130   25.4040   46.2670 C   0  0  0  0  0  0  0  0  0  0  0  0
   59.4130   25.7330   46.0680 O   0  0  0  0  0  0  0  0  0  0  0  0
   58.5030   28.5050   47.4270 C   0  0  0  0  0  0  0  0  0  0  0  0
   59.0340   29.7360   47.7570 C   0  0  0  0  0  0  0  0  0  0  0  0
   59.6220   30.0790   49.0920 C   0  0  0  0  0  0  0  0  0  0  0  0
   58.9570   30.5820   46.7040 N   0  0  0  0  0  0  0  0  0  0  0  0
   59.4050   31.9490   46.6920 C   0  0  0  0  0  0  0  0  0  0  0  0
   58.4760   32.9950   46.6010 C   0  0  0  0  0  0  0  0  0  0  0  0
   58.9110   34.3230   46.5770 C   0  0  0  0  0  0  0  0  0  0  0  0
   60.2770   34.6140   46.6420 C   0  0  0  0  0  0  0  0  0  0  0  0
   61.2120   33.5750   46.7300 C   0  0  0  0  0  0  0  0  0  0  0  0
   62.6180   33.8740   46.7940 C   0  0  0  0  0  0  0  0  0  0  0  0
   63.7490   34.1150   46.8450 N   0  0  0  0  0  0  0  0  0  0  0  0
   60.7750   32.2440   46.7530 C   0  0  0  0  0  0  0  0  0  0  0  0
  1  2  2  0
  2  3  1  0
  3  4  2  3
  4  5  1  0
  5  6  2  0
  6  7  1  0
  6  8  1  0
  8  9  1  0
  9 10  2  0
  9 11  1  0
 11 12  1  0
 12 13  2  0
  3 14  1  0
 14 15  2  0
 15 16  1  0
 15 17  1  0
 17 18  1  0
 18 19  2  0
 19 20  1  0
 20 21  2  0
 21 22  1  0
 22 23  1  0
 23 24  3  0
 22 25  2  0
 17  2  1  0
 25 18  1  0
 12  5  1  0
M  CHG  3   7  -1   8  -1  11  -1
M  END
>  <UniqueID>  (1232) 
1

>  <SMILES>  (1232) 
C=c1c(=Cc2c([O-])[n-]c(=O)[n-]c2=O)cc(C)n1-c1cccc(C#N)c1

>  <Energy>  (1232) 
82.96059631256696

>  <Genealogy>  (1232) 
C=c1c(=Cc2c([O-])[n-]c(=O)[n-]c2=O)cc(C)n1-c1cccc(C#N)c1 (protonated)
C=c1c(=Cc2c([O-])[n-]c(=O)[n-]c2=O)cc(C)n1-c1cccc(C#N)c1 (3D coordinates assigned)
C=c1c(=Cc2c([O-])[n-]c(=O)[n-]c2=O)cc(C)n1-c1cccc(C#N)c1 (optimized conformer: 82.96059631256696 kcal/mol)

>  <smiles>  (1232) 
C=c1c(=Cc2c(O)[nH]c(=O)[nH]c2=O)cc(C)n1-c1cccc(C#N)c1

>  <score_type>  (1232) 
oracle

>  <origin>  (1232) 
adg

>  <m_score__min__energy>  (1232) 
-15.619999999999999

>  <m_primary>  (1232) 
energy

$$$$
7:0
     RDKit          3D

 32 36  0  0  0  0  0  0  0  0999 V2000
   54.9340   31.2080   51.9640 C   0  0  0  0  0  0  0  0  0  0  0  0
   54.5650   30.4660   53.0200 C   0  0  0  0  0  0  0  0  0  0  0  0
   53.2700   30.3140   53.5440 C   0  0  0  0  0  0  0  0  0  0  0  0
   52.0710   30.7050   53.0720 C   0  0  0  0  0  0  0  0  0  0  0  0
   51.7640   31.0210   51.6690 C   0  0  0  0  0  0  0  0  0  0  0  0
   51.9510   30.1790   50.6350 N   0  0  0  0  0  0  0  0  0  0  0  0
   51.3860   30.8300   49.5960 C   0  0  0  0  0  0  0  0  0  0  0  0
   51.3710   30.3590   48.4290 O   0  0  0  0  0  0  0  0  0  0  0  0
   50.8270   32.0190   49.9090 N   0  0  0  0  0  0  0  0  0  0  0  0
   51.0630   32.1170   51.2270 C   0  0  0  0  0  0  0  0  0  0  0  0
   50.6420   33.1830   52.0120 O   0  0  0  0  0  0  0  0  0  0  0  0
   53.4130   29.6150   54.7330 C   0  0  0  0  0  0  0  0  0  0  0  0
   54.7530   29.3200   54.8650 C   0  0  0  0  0  0  0  0  0  0  0  0
   55.3500   28.5380   55.9960 C   0  0  0  0  0  0  0  0  0  0  0  0
   55.4510   29.8240   53.8250 N   0  0  0  0  0  0  0  0  0  0  0  0
   56.8810   29.7710   53.6840 C   0  0  0  0  0  0  0  0  0  0  0  0
   57.4600   28.9680   52.6940 C   0  0  0  0  0  0  0  0  0  0  0  0
   58.8510   28.8930   52.5730 C   0  0  0  0  0  0  0  0  0  0  0  0
   59.6800   29.6180   53.4450 C   0  0  0  0  0  0  0  0  0  0  0  0
   61.1130   29.5230   53.3330 N   0  0  0  0  0  0  0  0  0  0  0  0
   61.9870   30.0230   54.4000 C   0  0  0  0  0  0  0  0  0  0  0  0
   63.1060   30.9190   53.8240 C   0  0  0  0  0  0  0  0  0  0  0  0
   63.3310   30.7100   52.3710 N   0  0  0  0  0  0  0  0  0  0  0  0
   64.6530   31.1930   51.9970 C   0  0  0  0  0  0  0  0  0  0  0  0
   65.5010   31.3490   52.8670 O   0  0  0  0  0  0  0  0  0  0  0  0
   65.0590   31.5380   50.5730 C   0  0  0  0  0  0  0  0  0  0  0  0
   64.9510   33.0040   50.1810 C   0  0  0  0  0  0  0  0  0  0  0  0
   66.3220   32.3560   50.3410 C   0  0  0  0  0  0  0  0  0  0  0  0
   63.1800   29.2880   51.9950 C   0  0  0  0  0  0  0  0  0  0  0  0
   61.7200   28.8430   52.1790 C   0  0  0  0  0  0  0  0  0  0  0  0
   59.0940   30.4110   54.4460 C   0  0  0  0  0  0  0  0  0  0  0  0
   57.7040   30.4880   54.5620 C   0  0  0  0  0  0  0  0  0  0  0  0
  1  2  2  0
  2  3  1  0
  3  4  2  3
  4  5  1  0
  5  6  1  0
  6  7  1  0
  7  8  2  0
  7  9  1  0
  9 10  1  0
 10 11  1  0
  3 12  1  0
 12 13  2  0
 13 14  1  0
 13 15  1  0
 15 16  1  0
 16 17  2  0
 17 18  1  0
 18 19  2  0
 19 20  1  0
 20 21  1  0
 21 22  1  0
 22 23  1  0
 23 24  1  0
 24 25  2  0
 24 26  1  0
 26 27  1  0
 27 28  1  0
 23 29  1  0
 29 30  1  0
 19 31  1  0
 31 32  2  0
 15  2  1  0
 32 16  1  0
 10  5  2  0
 30 20  1  0
 28 26  1  0
M  CHG  4   6  -1   9  -1  11  -1  23   1
M  END
>  <UniqueID>  (1233) 
8

>  <SMILES>  (1233) 
C=c1c(=Cc2[n-]c(=O)[n-]c2[O-])cc(C)n1-c1ccc(N2CC[NH+](C(=O)C3CC3)CC2)cc1

>  <Energy>  (1233) 
414.1555636376154

>  <Genealogy>  (1233) 
C=c1c(=Cc2[n-]c(=O)[n-]c2[O-])cc(C)n1-c1ccc(N2CC[NH+](C(=O)C3CC3)CC2)cc1 (protonated)
C=c1c(=Cc2[n-]c(=O)[n-]c2[O-])cc(C)n1-c1ccc(N2CC[NH+](C(=O)C3CC3)CC2)cc1 (3D coordinates assigned)
C=c1c(=Cc2[n-]c(=O)[n-]c2[O-])cc(C)n1-c1ccc(N2CC[NH+](C(=O)C3CC3)CC2)cc1 (nonaromatic ring conformer: 414.1555636376154 kcal/mol)

>  <smiles>  (1233) 
C=c1c(=Cc2[nH]c(=O)[nH]c2O)cc(C)n1-c1ccc(N2CCN(C(=O)C3CC3)CC2)cc1

>  <score_type>  (1233) 
oracle

>  <origin>  (1233) 
adg

>  <m_score__min__energy>  (1233) 
-15.279999999999999

>  <m_primary>  (1233) 
energy

$$$$
8:0
     RDKit          3D

 32 35  0  0  0  0  0  0  0  0999 V2000
   55.1170   29.3780   45.0890 O   0  0  0  0  0  0  0  0  0  0  0  0
   56.3380   29.3370   44.7790 C   0  0  0  0  0  0  0  0  0  0  0  0
   57.0850   28.1170   44.8840 N   0  0  0  0  0  0  0  0  0  0  0  0
   57.7530   27.7080   45.9250 C   0  0  0  0  0  0  0  0  0  0  0  0
   58.5560   28.5060   46.6660 N   0  0  0  0  0  0  0  0  0  0  0  0
   59.0030   27.6770   47.6290 C   0  0  0  0  0  0  0  0  0  0  0  0
   59.8770   28.0670   48.6360 O   0  0  0  0  0  0  0  0  0  0  0  0
   58.4820   26.4160   47.4740 C   0  0  0  0  0  0  0  0  0  0  0  0
   57.6870   26.4370   46.3900 N   0  0  0  0  0  0  0  0  0  0  0  0
   56.9570   25.3250   45.8360 C   0  0  0  0  0  0  0  0  0  0  0  0
   57.6340   24.1450   45.4830 C   0  0  0  0  0  0  0  0  0  0  0  0
   56.9340   23.0560   44.9570 C   0  0  0  0  0  0  0  0  0  0  0  0
   55.5520   23.1310   44.7830 C   0  0  0  0  0  0  0  0  0  0  0  0
   54.8660   24.2970   45.1310 C   0  0  0  0  0  0  0  0  0  0  0  0
   55.5610   25.3970   45.6540 C   0  0  0  0  0  0  0  0  0  0  0  0
   54.8710   26.5660   45.9750 O   0  0  0  0  0  0  0  0  0  0  0  0
   56.9940   30.5010   44.2630 N   0  0  0  0  0  0  0  0  0  0  0  0
   57.7180   31.4830   45.0200 C   0  0  0  0  0  0  0  0  0  0  0  0
   57.2810   32.8130   44.9860 C   0  0  0  0  0  0  0  0  0  0  0  0
   57.9690   33.8040   45.6920 C   0  0  0  0  0  0  0  0  0  0  0  0
   59.1150   33.4780   46.4280 C   0  0  0  0  0  0  0  0  0  0  0  0
   59.9860   34.7320   47.3140 S   0  0  0  0  0  0  0  0  0  0  0  0
   59.9700   36.0040   46.5130 O   0  0  0  0  0  0  0  0  0  0  0  0
   59.2830   34.9960   48.6170 O   0  0  0  0  0  0  0  0  0  0  0  0
   61.6410   34.2740   47.6340 N   0  0  0  0  0  0  0  0  0  0  0  0
   62.2950   33.8050   46.4030 C   0  0  0  0  0  0  0  0  0  0  0  0
   63.7500   33.3860   46.7020 C   0  0  0  0  0  0  0  0  0  0  0  0
   64.0570   33.4800   48.0810 O   0  0  0  0  0  0  0  0  0  0  0  0
   63.1400   32.7060   48.8310 C   0  0  0  0  0  0  0  0  0  0  0  0
   61.6970   33.2280   48.6670 C   0  0  0  0  0  0  0  0  0  0  0  0
   59.5690   32.1530   46.4490 C   0  0  0  0  0  0  0  0  0  0  0  0
   58.8810   31.1610   45.7430 C   0  0  0  0  0  0  0  0  0  0  0  0
  1  2  2  0
  2  3  1  0
  3  4  2  3
  4  5  1  0
  5  6  1  0
  6  7  1  0
  6  8  2  0
  8  9  1  0
  9 10  1  0
 10 11  2  0
 11 12  1  0
 12 13  2  0
 13 14  1  0
 14 15  2  0
 15 16  1  0
  2 17  1  0
 17 18  1  0
 18 19  2  0
 19 20  1  0
 20 21  2  0
 21 22  1  0
 22 23  2  0
 22 24  2  0
 22 25  1  0
 25 26  1  0
 26 27  1  0
 27 28  1  0
 28 29  1  0
 29 30  1  0
 21 31  1  0
 31 32  2  0
  9  4  1  0
 15 10  1  0
 32 18  1  0
 30 25  1  0
M  CHG  3   5  -1   7  -1  17  -1
M  END
>  <UniqueID>  (1234) 
9

>  <SMILES>  (1234) 
O=C(N=c1[n-]c([O-])cn1-c1ccccc1O)[N-]c1ccc(S(=O)(=O)N2CCOCC2)cc1

>  <Energy>  (1234) 
102.78636686978103

>  <Genealogy>  (1234) 
O=C(N=c1[n-]c([O-])cn1-c1ccccc1O)[N-]c1ccc(S(=O)(=O)N2CCOCC2)cc1 (protonated)
O=C(N=c1[n-]c([O-])cn1-c1ccccc1O)[N-]c1ccc(S(=O)(=O)N2CCOCC2)cc1 (3D coordinates assigned)
O=C(N=c1[n-]c([O-])cn1-c1ccccc1O)[N-]c1ccc(S(=O)(=O)N2CCOCC2)cc1 (nonaromatic ring conformer: 102.78636686978103 kcal/mol)

>  <smiles>  (1234) 
O=C(N=c1[nH]c(O)cn1-c1ccccc1O)Nc1ccc(S(=O)(=O)N2CCOCC2)cc1

>  <score_type>  (1234) 
oracle

>  <origin>  (1234) 
adg

>  <m_score__min__energy>  (1234) 
-14.880000000000001

>  <m_primary>  (1234) 
energy

$$$$
9:0
     RDKit          3D

 29 32  0  0  0  0  0  0  0  0999 V2000
   60.3070   27.7980   46.5490 C   0  0  0  0  0  0  0  0  0  0  0  0
   59.3130   28.6660   46.3120 C   0  0  0  0  0  0  0  0  0  0  0  0
   58.1490   28.4460   45.5560 C   0  0  0  0  0  0  0  0  0  0  0  0
   57.6210   27.3120   45.0570 C   0  0  0  0  0  0  0  0  0  0  0  0
   57.1670   26.1570   45.8490 C   0  0  0  0  0  0  0  0  0  0  0  0
   57.9800   25.2400   46.4030 N   0  0  0  0  0  0  0  0  0  0  0  0
   57.1370   24.4780   47.1340 C   0  0  0  0  0  0  0  0  0  0  0  0
   57.5270   23.4850   47.8010 O   0  0  0  0  0  0  0  0  0  0  0  0
   55.8460   24.8720   47.1040 N   0  0  0  0  0  0  0  0  0  0  0  0
   55.8860   25.9450   46.2970 C   0  0  0  0  0  0  0  0  0  0  0  0
   54.7750   26.7160   45.9810 O   0  0  0  0  0  0  0  0  0  0  0  0
   57.5520   29.6860   45.3940 C   0  0  0  0  0  0  0  0  0  0  0  0
   58.3130   30.5930   46.1040 C   0  0  0  0  0  0  0  0  0  0  0  0
   58.0290   32.0600   46.2050 C   0  0  0  0  0  0  0  0  0  0  0  0
   59.3780   29.9760   46.6560 N   0  0  0  0  0  0  0  0  0  0  0  0
   60.4170   30.6230   47.4100 C   0  0  0  0  0  0  0  0  0  0  0  0
   61.3430   31.4350   46.7500 C   0  0  0  0  0  0  0  0  0  0  0  0
   62.3650   32.0660   47.4630 C   0  0  0  0  0  0  0  0  0  0  0  0
   62.4820   31.9010   48.8590 C   0  0  0  0  0  0  0  0  0  0  0  0
   63.5680   32.5480   49.6730 C   0  0  0  0  0  0  0  0  0  0  0  0
   63.2800   33.6000   50.3090 O   0  0  0  0  0  0  0  0  0  0  0  0
   64.9250   32.0390   49.7870 N   0  0  0  0  0  0  0  0  0  0  0  0
   65.1050   31.0100   50.8280 C   0  0  0  0  0  0  0  0  0  0  0  0
   66.3720   31.3480   51.6070 C   0  0  0  0  0  0  0  0  0  0  0  0
   67.0210   32.5020   50.8640 C   0  0  0  0  0  0  0  0  0  0  0  0
   65.9210   33.0980   50.0050 C   0  0  0  0  0  0  0  0  0  0  0  0
   61.5360   31.0830   49.5120 C   0  0  0  0  0  0  0  0  0  0  0  0
   60.5110   30.4520   48.7990 C   0  0  0  0  0  0  0  0  0  0  0  0
   59.3410   29.4690   49.6690 Cl  0  0  0  0  0  0  0  0  0  0  0  0
  1  2  2  0
  2  3  1  0
  3  4  2  3
  4  5  1  0
  5  6  1  0
  6  7  1  0
  7  8  2  0
  7  9  1  0
  9 10  1  0
 10 11  1  0
  3 12  1  0
 12 13  2  0
 13 14  1  0
 13 15  1  0
 15 16  1  0
 16 17  2  0
 17 18  1  0
 18 19  2  0
 19 20  1  0
 20 21  2  0
 20 22  1  0
 22 23  1  0
 23 24  1  0
 24 25  1  0
 25 26  1  0
 19 27  1  0
 27 28  2  0
 28 29  1  0
 15  2  1  0
 28 16  1  0
 10  5  2  0
 26 22  1  0
M  CHG  4   6  -1   9  -1  11  -1  22   1
M  END
>  <UniqueID>  (1235) 
10

>  <SMILES>  (1235) 
C=c1c(=Cc2[n-]c(=O)[n-]c2[O-])cc(C)n1-c1ccc(C(=O)[NH+]2CCCC2)cc1Cl

>  <Energy>  (1235) 
137.26815917941738

>  <Genealogy>  (1235) 
C=c1c(=Cc2[n-]c(=O)[n-]c2[O-])cc(C)n1-c1ccc(C(=O)[NH+]2CCCC2)cc1Cl (protonated)
C=c1c(=Cc2[n-]c(=O)[n-]c2[O-])cc(C)n1-c1ccc(C(=O)[NH+]2CCCC2)cc1Cl (3D coordinates assigned)
C=c1c(=Cc2[n-]c(=O)[n-]c2[O-])cc(C)n1-c1ccc(C(=O)[NH+]2CCCC2)cc1Cl (nonaromatic ring conformer: 137.26815917941738 kcal/mol)

>  <smiles>  (1235) 
C=c1c(=Cc2[nH]c(=O)[nH]c2O)cc(C)n1-c1ccc(C(=O)N2CCCC2)cc1Cl

>  <score_type>  (1235) 
oracle

>  <origin>  (1235) 
adg

>  <m_score__min__energy>  (1235) 
-14.58

>  <m_primary>  (1235) 
energy

$$$$
11:0
     RDKit          3D

 28 30  0  0  0  0  0  0  0  0999 V2000
   57.7190   23.2890   44.9310 O   0  0  0  0  0  0  0  0  0  0  0  0
   57.5700   24.2170   45.7710 C   0  0  0  0  0  0  0  0  0  0  0  0
   58.6630   25.2160   45.9640 C   0  0  0  0  0  0  0  0  0  0  0  0
   58.3380   26.4330   45.2320 N   0  0  0  0  0  0  0  0  0  0  0  0
   57.4340   27.4440   45.6940 C   0  0  0  0  0  0  0  0  0  0  0  0
   56.5210   27.1190   46.4980 O   0  0  0  0  0  0  0  0  0  0  0  0
   57.5570   28.8560   45.2770 C   0  0  0  0  0  0  0  0  0  0  0  0
   58.8160   29.4750   45.2530 C   0  0  0  0  0  0  0  0  0  0  0  0
   58.9430   30.8060   44.8450 C   0  0  0  0  0  0  0  0  0  0  0  0
   57.8120   31.5350   44.4500 C   0  0  0  0  0  0  0  0  0  0  0  0
   57.9460   32.9570   43.9790 C   0  0  0  0  0  0  0  0  0  0  0  0
   58.4250   33.8040   45.0680 N   0  0  0  0  0  0  0  0  0  0  0  0
   59.6060   34.6540   45.0310 C   0  0  0  0  0  0  0  0  0  0  0  0
   59.6490   35.3430   46.4170 C   0  0  0  0  0  0  0  0  0  0  0  0
   58.5060   34.8660   47.1210 O   0  0  0  0  0  0  0  0  0  0  0  0
   57.8150   33.9830   46.3270 C   0  0  0  0  0  0  0  0  0  0  0  0
   56.7540   33.4060   46.6850 O   0  0  0  0  0  0  0  0  0  0  0  0
   56.5570   30.9100   44.4480 C   0  0  0  0  0  0  0  0  0  0  0  0
   56.4260   29.5780   44.8570 C   0  0  0  0  0  0  0  0  0  0  0  0
   55.1680   28.9860   44.8540 O   0  0  0  0  0  0  0  0  0  0  0  0
   56.3200   24.3910   46.4540 N   0  0  0  0  0  0  0  0  0  0  0  0
   55.1550   23.8670   46.1870 C   0  0  0  0  0  0  0  0  0  0  0  0
   55.0500   22.5100   46.2320 N   0  0  0  0  0  0  0  0  0  0  0  0
   53.8870   21.8540   45.9840 C   0  0  0  0  0  0  0  0  0  0  0  0
   52.7360   22.5710   45.6650 C   0  0  0  0  0  0  0  0  0  0  0  0
   52.8050   23.9610   45.5790 C   0  0  0  0  0  0  0  0  0  0  0  0
   54.0120   24.6250   45.8180 C   0  0  0  0  0  0  0  0  0  0  0  0
   54.0560   26.0000   45.6280 O   0  0  0  0  0  0  0  0  0  0  0  0
  1  2  2  0
  2  3  1  0
  3  4  1  0
  4  5  1  0
  5  6  2  0
  5  7  1  0
  7  8  2  0
  8  9  1  0
  9 10  2  0
 10 11  1  0
 11 12  1  0
 12 13  1  0
 13 14  1  0
 14 15  1  0
 15 16  1  0
 16 17  2  0
 10 18  1  0
 18 19  2  0
 19 20  1  0
  2 21  1  0
 21 22  2  3
 22 23  1  0
 23 24  1  0
 24 25  2  0
 25 26  1  0
 26 27  2  0
 27 28  1  0
 19  7  1  0
 27 22  1  0
 16 12  1  0
M  CHG  4   4  -1  20  -1  23  -1  28  -1
M  END
>  <UniqueID>  (1236) 
12

>  <SMILES>  (1236) 
O=C(C[N-]C(=O)c1ccc(CN2CCOC2=O)cc1[O-])N=c1[n-]cccc1[O-]

>  <Energy>  (1236) 
71.89608069423143

>  <Genealogy>  (1236) 
O=C(C[N-]C(=O)c1ccc(CN2CCOC2=O)cc1[O-])N=c1[n-]cccc1[O-] (protonated)
O=C(C[N-]C(=O)c1ccc(CN2CCOC2=O)cc1[O-])N=c1[n-]cccc1[O-] (3D coordinates assigned)
O=C(C[N-]C(=O)c1ccc(CN2CCOC2=O)cc1[O-])N=c1[n-]cccc1[O-] (nonaromatic ring conformer: 71.89608069423143 kcal/mol)

>  <smiles>  (1236) 
O=C(CNC(=O)c1ccc(CN2CCOC2=O)cc1O)N=c1[nH]cccc1O

>  <score_type>  (1236) 
oracle

>  <origin>  (1236) 
adg

>  <m_score__min__energy>  (1236) 
-16.280000000000001

>  <m_primary>  (1236) 
energy

$$$$
21:0
     RDKit          3D

 34 37  0  0  0  0  0  0  0  0999 V2000
   58.6310   30.9390   47.0980 C   0  0  0  0  0  0  0  0  0  0  0  0
   58.6770   31.8580   46.1150 C   0  0  0  0  0  0  0  0  0  0  0  0
   58.2250   31.6900   44.7950 C   0  0  0  0  0  0  0  0  0  0  0  0
   57.8080   30.5950   44.1250 C   0  0  0  0  0  0  0  0  0  0  0  0
   57.4890   29.2820   44.7180 C   0  0  0  0  0  0  0  0  0  0  0  0
   56.1710   28.9190   45.0660 C   0  0  0  0  0  0  0  0  0  0  0  0
   55.0930   29.7780   44.8650 O   0  0  0  0  0  0  0  0  0  0  0  0
   55.9380   27.7000   45.6220 N   0  0  0  0  0  0  0  0  0  0  0  0
   56.9500   26.8310   45.8670 C   0  0  0  0  0  0  0  0  0  0  0  0
   56.6310   25.3770   46.5370 S   0  0  0  0  0  0  0  0  0  0  0  0
   58.2280   27.1700   45.5620 N   0  0  0  0  0  0  0  0  0  0  0  0
   58.5200   28.3710   45.0000 C   0  0  0  0  0  0  0  0  0  0  0  0
   59.7180   28.6530   44.7320 O   0  0  0  0  0  0  0  0  0  0  0  0
   58.2750   32.9380   44.2080 C   0  0  0  0  0  0  0  0  0  0  0  0
   58.7780   33.8070   45.1480 C   0  0  0  0  0  0  0  0  0  0  0  0
   58.9420   35.2780   44.9060 C   0  0  0  0  0  0  0  0  0  0  0  0
   59.0810   33.1500   46.2980 N   0  0  0  0  0  0  0  0  0  0  0  0
   59.5910   33.7680   47.5410 C   0  0  0  0  0  0  0  0  0  0  0  0
   60.9920   33.3030   47.9000 C   0  0  0  0  0  0  0  0  0  0  0  0
   61.9380   33.2290   46.8590 C   0  0  0  0  0  0  0  0  0  0  0  0
   63.2270   32.7560   47.0950 C   0  0  0  0  0  0  0  0  0  0  0  0
   63.5960   32.3560   48.3750 C   0  0  0  0  0  0  0  0  0  0  0  0
   62.6870   32.4520   49.4280 C   0  0  0  0  0  0  0  0  0  0  0  0
   61.3870   32.9520   49.2260 C   0  0  0  0  0  0  0  0  0  0  0  0
   60.2760   33.0980   50.6200 S   0  0  0  0  0  0  0  0  0  0  0  0
   59.4670   34.3490   50.4390 O   0  0  0  0  0  0  0  0  0  0  0  0
   61.0850   33.2240   51.8790 O   0  0  0  0  0  0  0  0  0  0  0  0
   59.1790   31.7550   50.8730 N   0  0  0  0  0  0  0  0  0  0  0  0
   59.5790   30.9110   52.0110 C   0  0  0  0  0  0  0  0  0  0  0  0
   58.6700   29.6760   52.1210 C   0  0  0  0  0  0  0  0  0  0  0  0
   57.2430   29.9530   51.8150 N   0  0  0  0  0  0  0  0  0  0  0  0
   56.3620   29.1910   52.7160 C   0  0  0  0  0  0  0  0  0  0  0  0
   56.9120   31.3850   51.8790 C   0  0  0  0  0  0  0  0  0  0  0  0
   57.7570   32.1620   50.8610 C   0  0  0  0  0  0  0  0  0  0  0  0
  1  2  2  0
  2  3  1  0
  3  4  2  3
  4  5  1  0
  5  6  2  0
  6  7  1  0
  6  8  1  0
  8  9  1  0
  9 10  2  0
  9 11  1  0
 11 12  1  0
 12 13  2  0
  3 14  1  0
 14 15  2  0
 15 16  1  0
 15 17  1  0
 17 18  1  0
 18 19  1  0
 19 20  2  0
 20 21  1  0
 21 22  2  0
 22 23  1  0
 23 24  2  0
 24 25  1  0
 25 26  2  0
 25 27  2  0
 25 28  1  0
 28 29  1  0
 29 30  1  0
 30 31  1  0
 31 32  1  0
 31 33  1  0
 33 34  1  0
 17  2  1  0
 24 19  1  0
 34 28  1  0
 12  5  1  0
M  CHG  2   8  -1  11  -1
M  END
>  <UniqueID>  (1237) 
22

>  <SMILES>  (1237) 
C=c1c(=Cc2c(O)[n-]c(=S)[n-]c2=O)cc(C)n1Cc1ccccc1S(=O)(=O)N1CCN(C)CC1

>  <Energy>  (1237) 
123.05991406737168

>  <Genealogy>  (1237) 
C=c1c(=Cc2c(O)[n-]c(=S)[n-]c2=O)cc(C)n1Cc1ccccc1S(=O)(=O)N1CCN(C)CC1 (protonated)
C=c1c(=Cc2c(O)[n-]c(=S)[n-]c2=O)cc(C)n1Cc1ccccc1S(=O)(=O)N1CCN(C)CC1 (3D coordinates assigned)
C=c1c(=Cc2c(O)[n-]c(=S)[n-]c2=O)cc(C)n1Cc1ccccc1S(=O)(=O)N1CCN(C)CC1 (nonaromatic ring conformer: 123.05991406737168 kcal/mol)

>  <smiles>  (1237) 
C=c1c(=Cc2c(O)[nH]c(=S)[nH]c2=O)cc(C)n1Cc1ccccc1S(=O)(=O)N1CCN(C)CC1

>  <score_type>  (1237) 
oracle

>  <origin>  (1237) 
adg

>  <m_score__min__energy>  (1237) 
-14.390000000000001

>  <m_primary>  (1237) 
energy

$$$$
28:0
     RDKit          3D

 26 28  0  0  0  0  0  0  0  0999 V2000
   64.0900   32.5120   46.8730 N   0  0  0  0  0  0  0  0  0  0  0  0
   62.9010   32.7060   48.1140 S   0  0  0  0  0  0  0  0  0  0  0  0
   63.3670   33.7620   49.0760 O   0  0  0  0  0  0  0  0  0  0  0  0
   62.7310   31.4110   48.8590 O   0  0  0  0  0  0  0  0  0  0  0  0
   61.3630   33.1710   47.3910 C   0  0  0  0  0  0  0  0  0  0  0  0
   60.1790   32.5700   47.8350 C   0  0  0  0  0  0  0  0  0  0  0  0
   58.9540   32.9180   47.2590 C   0  0  0  0  0  0  0  0  0  0  0  0
   58.8980   33.8750   46.2350 C   0  0  0  0  0  0  0  0  0  0  0  0
   57.5810   34.2190   45.5970 C   0  0  0  0  0  0  0  0  0  0  0  0
   56.8580   33.0030   45.2440 N   0  0  0  0  0  0  0  0  0  0  0  0
   57.4660   31.8800   44.5970 C   0  0  0  0  0  0  0  0  0  0  0  0
   58.4560   32.0420   43.8340 O   0  0  0  0  0  0  0  0  0  0  0  0
   56.9310   30.5320   44.8260 C   0  0  0  0  0  0  0  0  0  0  0  0
   57.6180   29.4670   45.3730 C   0  0  0  0  0  0  0  0  0  0  0  0
   56.6860   28.4440   45.3890 C   0  0  0  0  0  0  0  0  0  0  0  0
   56.8870   27.0620   45.8890 C   0  0  0  0  0  0  0  0  0  0  0  0
   58.1850   26.5430   46.0300 C   0  0  0  0  0  0  0  0  0  0  0  0
   58.3750   25.2410   46.4970 C   0  0  0  0  0  0  0  0  0  0  0  0
   57.2640   24.4600   46.8200 C   0  0  0  0  0  0  0  0  0  0  0  0
   57.4170   23.2830   47.2390 O   0  0  0  0  0  0  0  0  0  0  0  0
   56.0130   24.9710   46.6810 N   0  0  0  0  0  0  0  0  0  0  0  0
   55.8000   26.2370   46.2310 C   0  0  0  0  0  0  0  0  0  0  0  0
   55.5210   28.8930   44.8760 N   0  0  0  0  0  0  0  0  0  0  0  0
   55.6700   30.1640   44.5360 N   0  0  0  0  0  0  0  0  0  0  0  0
   60.0880   34.4710   45.7860 C   0  0  0  0  0  0  0  0  0  0  0  0
   61.3130   34.1220   46.3620 C   0  0  0  0  0  0  0  0  0  0  0  0
  1  2  1  0
  2  3  2  0
  2  4  2  0
  2  5  1  0
  5  6  2  0
  6  7  1  0
  7  8  2  0
  8  9  1  0
  9 10  1  0
 10 11  1  0
 11 12  2  0
 11 13  1  0
 13 14  1  0
 14 15  2  0
 15 16  1  0
 16 17  1  0
 17 18  2  0
 18 19  1  0
 19 20  2  0
 19 21  1  0
 21 22  1  0
 15 23  1  0
 23 24  1  0
  8 25  1  0
 25 26  2  0
 26  5  1  0
 24 13  2  0
 22 16  2  0
M  CHG  3  10  -1  21  -1  23  -1
M  END
>  <UniqueID>  (1238) 
28

>  <SMILES>  (1238) 
NS(=O)(=O)c1ccc(C[N-]C(=O)c2cc(-c3ccc(=O)[n-]c3)[n-]n2)cc1

>  <Energy>  (1238) 
67.66225198522218

>  <Genealogy>  (1238) 
NS(=O)(=O)c1ccc(C[N-]C(=O)c2cc(-c3ccc(=O)[n-]c3)[n-]n2)cc1 (protonated)
NS(=O)(=O)c1ccc(C[N-]C(=O)c2cc(-c3ccc(=O)[n-]c3)[n-]n2)cc1 (3D coordinates assigned)
NS(=O)(=O)c1ccc(C[N-]C(=O)c2cc(-c3ccc(=O)[n-]c3)[n-]n2)cc1 (optimized conformer: 67.66225198522218 kcal/mol)

>  <smiles>  (1238) 
NS(=O)(=O)c1ccc(CNC(=O)c2cc(-c3ccc(=O)[nH]c3)[nH]n2)cc1

>  <score_type>  (1238) 
oracle

>  <origin>  (1238) 
adg

>  <m_score__min__energy>  (1238) 
-14.27

>  <m_primary>  (1238) 
energy

$$$$
43:0
     RDKit          3D

 32 34  0  0  0  0  0  0  0  0999 V2000
   61.0910   26.7030   47.1800 C   0  0  0  0  0  0  0  0  0  0  0  0
   60.5980   27.0300   48.5290 C   0  0  0  0  0  0  0  0  0  0  0  0
   61.1160   26.4640   49.5300 O   0  0  0  0  0  0  0  0  0  0  0  0
   59.5330   27.9720   48.7040 N   0  0  0  0  0  0  0  0  0  0  0  0
   59.6410   29.3280   49.7800 S   0  0  0  0  0  0  0  0  0  0  0  0
   58.2610   29.8760   50.0220 O   0  0  0  0  0  0  0  0  0  0  0  0
   60.2590   28.8870   51.0780 O   0  0  0  0  0  0  0  0  0  0  0  0
   60.6410   30.5840   49.0570 C   0  0  0  0  0  0  0  0  0  0  0  0
   61.0380   30.4990   47.7130 C   0  0  0  0  0  0  0  0  0  0  0  0
   61.8250   31.5070   47.1480 C   0  0  0  0  0  0  0  0  0  0  0  0
   62.2150   32.6060   47.9200 C   0  0  0  0  0  0  0  0  0  0  0  0
   61.8270   32.6960   49.2610 C   0  0  0  0  0  0  0  0  0  0  0  0
   61.0410   31.6860   49.8290 C   0  0  0  0  0  0  0  0  0  0  0  0
   60.4270   27.0570   46.0740 C   0  0  0  0  0  0  0  0  0  0  0  0
   58.9590   26.9620   45.9730 C   0  0  0  0  0  0  0  0  0  0  0  0
   58.3570   25.7690   46.3990 C   0  0  0  0  0  0  0  0  0  0  0  0
   56.9680   25.6280   46.3930 C   0  0  0  0  0  0  0  0  0  0  0  0
   56.1590   26.6850   45.9780 C   0  0  0  0  0  0  0  0  0  0  0  0
   54.7750   26.5500   46.0000 O   0  0  0  0  0  0  0  0  0  0  0  0
   56.7390   27.8840   45.5590 C   0  0  0  0  0  0  0  0  0  0  0  0
   58.1400   28.0460   45.5540 C   0  0  0  0  0  0  0  0  0  0  0  0
   58.7040   29.4120   45.2270 C   0  0  0  0  0  0  0  0  0  0  0  0
   57.6430   30.4590   45.3830 C   0  0  0  0  0  0  0  0  0  0  0  0
   56.6640   30.4820   44.5870 O   0  0  0  0  0  0  0  0  0  0  0  0
   57.7700   31.4560   46.4070 N   0  0  0  0  0  0  0  0  0  0  0  0
   58.3400   32.6290   46.3240 C   0  0  0  0  0  0  0  0  0  0  0  0
   58.6570   33.0930   45.0810 N   0  0  0  0  0  0  0  0  0  0  0  0
   59.2500   34.3010   44.8780 C   0  0  0  0  0  0  0  0  0  0  0  0
   59.5660   35.1150   45.9660 C   0  0  0  0  0  0  0  0  0  0  0  0
   59.2860   34.6670   47.2580 C   0  0  0  0  0  0  0  0  0  0  0  0
   58.6810   33.4210   47.4560 C   0  0  0  0  0  0  0  0  0  0  0  0
   58.4770   32.9840   48.7640 O   0  0  0  0  0  0  0  0  0  0  0  0
  1  2  1  0
  2  3  2  0
  2  4  1  0
  4  5  1  0
  5  6  2  0
  5  7  2  0
  5  8  1  0
  8  9  2  0
  9 10  1  0
 10 11  2  0
 11 12  1  0
 12 13  2  0
  1 14  2  0
 14 15  1  0
 15 16  2  0
 16 17  1  0
 17 18  2  0
 18 19  1  0
 18 20  1  0
 20 21  2  0
 21 22  1  0
 22 23  1  0
 23 24  2  0
 23 25  1  0
 25 26  2  3
 26 27  1  0
 27 28  1  0
 28 29  2  0
 29 30  1  0
 30 31  2  0
 31 32  1  0
 13  8  1  0
 21 15  1  0
 31 26  1  0
M  CHG  4   4  -1  19  -1  27  -1  32  -1
M  END
>  <UniqueID>  (1239) 
43

>  <SMILES>  (1239) 
O=C(Cc1cc([O-])ccc1/C=C/C(=O)[N-]S(=O)(=O)c1ccccc1)N=c1[n-]cccc1[O-]

>  <Energy>  (1239) 
64.89129943717535

>  <Genealogy>  (1239) 
O=C(Cc1cc([O-])ccc1C=CC(=O)[N-]S(=O)(=O)c1ccccc1)N=c1[n-]cccc1[O-] (protonated)
O=C(Cc1cc([O-])ccc1/C=C/C(=O)[N-]S(=O)(=O)c1ccccc1)N=c1[n-]cccc1[O-] (cis-trans isomerization)
O=C(Cc1cc([O-])ccc1/C=C/C(=O)[N-]S(=O)(=O)c1ccccc1)N=c1[n-]cccc1[O-] (3D coordinates assigned)
O=C(Cc1cc([O-])ccc1/C=C/C(=O)[N-]S(=O)(=O)c1ccccc1)N=c1[n-]cccc1[O-] (optimized conformer: 64.89129943717535 kcal/mol)

>  <smiles>  (1239) 
O=C(Cc1cc(O)ccc1C=CC(=O)NS(=O)(=O)c1ccccc1)N=c1[nH]cccc1O

>  <score_type>  (1239) 
oracle

>  <origin>  (1239) 
adg

>  <m_score__min__energy>  (1239) 
-18.210000000000001

>  <m_primary>  (1239) 
energy

$$$$
62:0
     RDKit          3D

 24 26  0  0  0  0  0  0  0  0999 V2000
   59.1100   28.1610   47.3510 C   0  0  0  0  0  0  0  0  0  0  0  0
   58.5750   28.8460   46.3280 C   0  0  0  0  0  0  0  0  0  0  0  0
   57.8280   28.3260   45.2580 C   0  0  0  0  0  0  0  0  0  0  0  0
   57.6220   27.0550   44.8590 C   0  0  0  0  0  0  0  0  0  0  0  0
   57.1120   25.9630   45.7020 C   0  0  0  0  0  0  0  0  0  0  0  0
   57.8920   24.9940   46.2130 N   0  0  0  0  0  0  0  0  0  0  0  0
   57.0480   24.3010   47.0070 C   0  0  0  0  0  0  0  0  0  0  0  0
   57.4100   23.2880   47.6600 O   0  0  0  0  0  0  0  0  0  0  0  0
   55.7880   24.7860   47.0570 N   0  0  0  0  0  0  0  0  0  0  0  0
   55.8500   25.8470   46.2370 C   0  0  0  0  0  0  0  0  0  0  0  0
   54.7820   26.7060   46.0050 O   0  0  0  0  0  0  0  0  0  0  0  0
   57.2850   29.4160   44.5990 C   0  0  0  0  0  0  0  0  0  0  0  0
   57.7640   30.5450   45.2280 C   0  0  0  0  0  0  0  0  0  0  0  0
   57.4350   31.9500   44.8200 C   0  0  0  0  0  0  0  0  0  0  0  0
   58.5460   30.2030   46.2770 N   0  0  0  0  0  0  0  0  0  0  0  0
   59.1910   31.1210   47.1780 C   0  0  0  0  0  0  0  0  0  0  0  0
   58.8490   31.1300   48.5380 C   0  0  0  0  0  0  0  0  0  0  0  0
   59.4920   32.0050   49.4180 C   0  0  0  0  0  0  0  0  0  0  0  0
   60.4780   32.8750   48.9480 C   0  0  0  0  0  0  0  0  0  0  0  0
   60.8230   32.8830   47.5870 C   0  0  0  0  0  0  0  0  0  0  0  0
   61.9100   33.7960   47.0790 C   0  0  0  0  0  0  0  0  0  0  0  0
   63.2720   33.4530   47.6920 C   0  0  0  0  0  0  0  0  0  0  0  0
   64.0960   32.7070   46.7440 N   0  0  0  0  0  0  0  0  0  0  0  0
   60.1780   32.0000   46.7060 C   0  0  0  0  0  0  0  0  0  0  0  0
  1  2  2  0
  2  3  1  0
  3  4  2  0
  4  5  1  0
  5  6  1  0
  6  7  1  0
  7  8  2  0
  7  9  1  0
  9 10  1  0
 10 11  1  0
  3 12  1  0
 12 13  2  0
 13 14  1  0
 13 15  1  0
 15 16  1  0
 16 17  2  0
 17 18  1  0
 18 19  2  0
 19 20  1  0
 20 21  1  0
 21 22  1  0
 22 23  1  0
 20 24  2  0
 15  2  1  0
 24 16  1  0
 10  5  2  0
M  CHG  3   6  -1   9  -1  11  -1
M  END
>  <UniqueID>  (1240) 
58

>  <SMILES>  (1240) 
C=c1/c(=C\c2[n-]c(=O)[n-]c2[O-])cc(C)n1-c1cccc(CCN)c1

>  <Energy>  (1240) 
114.48398491920908

>  <Genealogy>  (1240) 
C=c1c(=Cc2[n-]c(=O)[n-]c2[O-])cc(C)n1-c1cccc(CCN)c1 (protonated)
C=c1/c(=C\c2[n-]c(=O)[n-]c2[O-])cc(C)n1-c1cccc(CCN)c1 (cis-trans isomerization)
C=c1/c(=C\c2[n-]c(=O)[n-]c2[O-])cc(C)n1-c1cccc(CCN)c1 (3D coordinates assigned)
C=c1/c(=C\c2[n-]c(=O)[n-]c2[O-])cc(C)n1-c1cccc(CCN)c1 (optimized conformer: 114.48398491920908 kcal/mol)

>  <smiles>  (1240) 
C=c1c(=Cc2[nH]c(=O)[nH]c2O)cc(C)n1-c1cccc(CCN)c1

>  <score_type>  (1240) 
oracle

>  <origin>  (1240) 
adg

>  <m_score__min__energy>  (1240) 
-16.109999999999999

>  <m_primary>  (1240) 
energy

$$$$
63:0
     RDKit          3D

 27 29  0  0  0  0  0  0  0  0999 V2000
   57.3580   28.4690   45.5110 C   0  0  0  0  0  0  0  0  0  0  0  0
   58.4340   29.3790   45.0620 C   0  0  0  0  0  0  0  0  0  0  0  0
   59.3140   28.9650   44.2580 O   0  0  0  0  0  0  0  0  0  0  0  0
   58.4740   30.7900   45.5150 C   0  0  0  0  0  0  0  0  0  0  0  0
   57.4040   31.6530   45.2380 C   0  0  0  0  0  0  0  0  0  0  0  0
   56.2830   31.2020   44.5500 O   0  0  0  0  0  0  0  0  0  0  0  0
   57.4470   32.9420   45.6550 N   0  0  0  0  0  0  0  0  0  0  0  0
   58.5080   33.4320   46.3400 C   0  0  0  0  0  0  0  0  0  0  0  0
   58.4990   34.6420   46.6960 O   0  0  0  0  0  0  0  0  0  0  0  0
   59.5790   32.6260   46.6250 N   0  0  0  0  0  0  0  0  0  0  0  0
   60.7080   33.1580   47.3480 C   0  0  0  0  0  0  0  0  0  0  0  0
   61.9640   33.2600   46.7260 C   0  0  0  0  0  0  0  0  0  0  0  0
   63.0570   33.7770   47.4290 C   0  0  0  0  0  0  0  0  0  0  0  0
   62.9050   34.1930   48.7540 C   0  0  0  0  0  0  0  0  0  0  0  0
   61.6590   34.0930   49.3800 C   0  0  0  0  0  0  0  0  0  0  0  0
   60.5630   33.5780   48.6810 C   0  0  0  0  0  0  0  0  0  0  0  0
   59.5780   31.3160   46.2160 C   0  0  0  0  0  0  0  0  0  0  0  0
   60.5750   30.5800   46.4570 O   0  0  0  0  0  0  0  0  0  0  0  0
   57.5680   27.5130   46.4260 C   0  0  0  0  0  0  0  0  0  0  0  0
   57.1450   26.1080   46.2310 C   0  0  0  0  0  0  0  0  0  0  0  0
   58.1380   25.1140   46.1840 C   0  0  0  0  0  0  0  0  0  0  0  0
   57.7910   23.7710   46.0030 C   0  0  0  0  0  0  0  0  0  0  0  0
   58.7810   22.7970   45.9720 O   0  0  0  0  0  0  0  0  0  0  0  0
   56.4510   23.4100   45.8530 C   0  0  0  0  0  0  0  0  0  0  0  0
   55.4560   24.3900   45.8700 C   0  0  0  0  0  0  0  0  0  0  0  0
   55.7940   25.7360   46.0450 C   0  0  0  0  0  0  0  0  0  0  0  0
   54.7850   26.6920   45.9990 O   0  0  0  0  0  0  0  0  0  0  0  0
  1  2  1  0
  2  3  2  0
  2  4  1  0
  4  5  2  0
  5  6  1  0
  5  7  1  0
  7  8  1  0
  8  9  2  0
  8 10  1  0
 10 11  1  0
 11 12  2  0
 12 13  1  0
 13 14  2  0
 14 15  1  0
 15 16  2  0
 10 17  1  0
 17 18  2  0
  1 19  2  0
 19 20  1  0
 20 21  2  0
 21 22  1  0
 22 23  1  0
 22 24  2  0
 24 25  1  0
 25 26  2  0
 26 27  1  0
 17  4  1  0
 26 20  1  0
 16 11  1  0
M  CHG  4   6  -1   7  -1  23  -1  27  -1
M  END
>  <UniqueID>  (1241) 
59

>  <SMILES>  (1241) 
O=C(/C=C/c1cc([O-])ccc1[O-])c1c([O-])[n-]c(=O)n(-c2ccccc2)c1=O

>  <Energy>  (1241) 
61.72913955115778

>  <Genealogy>  (1241) 
O=C(C=Cc1cc([O-])ccc1[O-])c1c([O-])[n-]c(=O)n(-c2ccccc2)c1=O (protonated)
O=C(/C=C/c1cc([O-])ccc1[O-])c1c([O-])[n-]c(=O)n(-c2ccccc2)c1=O (cis-trans isomerization)
O=C(/C=C/c1cc([O-])ccc1[O-])c1c([O-])[n-]c(=O)n(-c2ccccc2)c1=O (3D coordinates assigned)
O=C(/C=C/c1cc([O-])ccc1[O-])c1c([O-])[n-]c(=O)n(-c2ccccc2)c1=O (optimized conformer: 61.72913955115778 kcal/mol)

>  <smiles>  (1241) 
O=C(C=Cc1cc(O)ccc1O)c1c(O)[nH]c(=O)n(-c2ccccc2)c1=O

>  <score_type>  (1241) 
oracle

>  <origin>  (1241) 
adg

>  <m_score__min__energy>  (1241) 
-17.34

>  <m_primary>  (1241) 
energy

$$$$
70:0
     RDKit          3D

 29 32  0  0  0  0  0  0  0  0999 V2000
   59.5250   28.1630   46.8510 C   0  0  0  0  0  0  0  0  0  0  0  0
   58.7870   28.9590   46.0600 C   0  0  0  0  0  0  0  0  0  0  0  0
   57.8760   28.5640   45.0640 C   0  0  0  0  0  0  0  0  0  0  0  0
   57.3780   27.3510   44.7480 C   0  0  0  0  0  0  0  0  0  0  0  0
   57.2420   26.2100   45.6740 C   0  0  0  0  0  0  0  0  0  0  0  0
   56.0090   25.9400   46.2840 C   0  0  0  0  0  0  0  0  0  0  0  0
   54.8890   26.7070   45.9870 O   0  0  0  0  0  0  0  0  0  0  0  0
   55.9000   24.9150   47.1680 N   0  0  0  0  0  0  0  0  0  0  0  0
   56.9740   24.1490   47.4890 C   0  0  0  0  0  0  0  0  0  0  0  0
   56.8480   23.2010   48.3070 O   0  0  0  0  0  0  0  0  0  0  0  0
   58.1850   24.4070   46.9320 N   0  0  0  0  0  0  0  0  0  0  0  0
   58.3460   25.4220   46.0440 C   0  0  0  0  0  0  0  0  0  0  0  0
   59.4890   25.6470   45.5650 O   0  0  0  0  0  0  0  0  0  0  0  0
   57.5140   29.7190   44.3900 C   0  0  0  0  0  0  0  0  0  0  0  0
   58.1530   30.7670   45.0180 C   0  0  0  0  0  0  0  0  0  0  0  0
   58.0260   32.2050   44.6140 C   0  0  0  0  0  0  0  0  0  0  0  0
   58.9260   30.3100   46.0280 N   0  0  0  0  0  0  0  0  0  0  0  0
   59.7500   31.1190   46.8870 C   0  0  0  0  0  0  0  0  0  0  0  0
   59.1600   31.9800   47.8220 C   0  0  0  0  0  0  0  0  0  0  0  0
   59.9580   32.7730   48.6510 C   0  0  0  0  0  0  0  0  0  0  0  0
   61.3600   32.7090   48.5650 C   0  0  0  0  0  0  0  0  0  0  0  0
   62.1910   33.5540   49.4480 C   0  0  0  0  0  0  0  0  0  0  0  0
   61.6900   34.5870   49.9680 O   0  0  0  0  0  0  0  0  0  0  0  0
   63.5400   33.2040   49.7700 N   0  0  0  0  0  0  0  0  0  0  0  0
   64.4670   32.0670   49.6110 C   0  0  0  0  0  0  0  0  0  0  0  0
   65.5480   32.6200   50.4780 C   0  0  0  0  0  0  0  0  0  0  0  0
   64.6030   33.7660   50.6220 C   0  0  0  0  0  0  0  0  0  0  0  0
   61.9460   31.8570   47.6140 C   0  0  0  0  0  0  0  0  0  0  0  0
   61.1470   31.0660   46.7840 C   0  0  0  0  0  0  0  0  0  0  0  0
  1  2  2  0
  2  3  1  0
  3  4  2  3
  4  5  1  0
  5  6  2  0
  6  7  1  0
  6  8  1  0
  8  9  1  0
  9 10  2  0
  9 11  1  0
 11 12  1  0
 12 13  2  0
  3 14  1  0
 14 15  2  0
 15 16  1  0
 15 17  1  0
 17 18  1  0
 18 19  2  0
 19 20  1  0
 20 21  2  0
 21 22  1  0
 22 23  2  0
 22 24  1  0
 24 25  1  0
 25 26  1  0
 26 27  1  0
 21 28  1  0
 28 29  2  0
 17  2  1  0
 29 18  1  0
 12  5  1  0
 27 24  1  0
M  CHG  3   7  -1   8  -1  11  -1
M  END
>  <UniqueID>  (1242) 
66

>  <SMILES>  (1242) 
C=c1c(=Cc2c([O-])[n-]c(=O)[n-]c2=O)cc(C)n1-c1ccc(C(=O)N2CCC2)cc1

>  <Energy>  (1242) 
144.80737775380442

>  <Genealogy>  (1242) 
C=c1c(=Cc2c([O-])[n-]c(=O)[n-]c2=O)cc(C)n1-c1ccc(C(=O)N2CCC2)cc1 (protonated)
C=c1c(=Cc2c([O-])[n-]c(=O)[n-]c2=O)cc(C)n1-c1ccc(C(=O)N2CCC2)cc1 (3D coordinates assigned)
C=c1c(=Cc2c([O-])[n-]c(=O)[n-]c2=O)cc(C)n1-c1ccc(C(=O)N2CCC2)cc1 (nonaromatic ring conformer: 144.80737775380442 kcal/mol)

>  <smiles>  (1242) 
C=c1c(=Cc2c(O)[nH]c(=O)[nH]c2=O)cc(C)n1-c1ccc(C(=O)N2CCC2)cc1

>  <score_type>  (1242) 
oracle

>  <origin>  (1242) 
adg

>  <m_score__min__energy>  (1242) 
-15.98

>  <m_primary>  (1242) 
energy

$$$$
87:0
     RDKit          3D

 27 29  0  0  0  0  0  0  0  0999 V2000
   60.5170   33.8990   49.7200 C   0  0  0  0  0  0  0  0  0  0  0  0
   59.3770   33.8400   48.9870 N   0  0  0  0  0  0  0  0  0  0  0  0
   59.4170   33.7630   47.6280 C   0  0  0  0  0  0  0  0  0  0  0  0
   58.3280   33.6910   46.9210 N   0  0  0  0  0  0  0  0  0  0  0  0
   58.1580   33.0290   45.6570 C   0  0  0  0  0  0  0  0  0  0  0  0
   58.5760   33.6860   44.4920 C   0  0  0  0  0  0  0  0  0  0  0  0
   58.3940   33.0940   43.2400 C   0  0  0  0  0  0  0  0  0  0  0  0
   57.7760   31.8450   43.1390 C   0  0  0  0  0  0  0  0  0  0  0  0
   57.3240   31.1890   44.2900 C   0  0  0  0  0  0  0  0  0  0  0  0
   56.5130   29.6340   44.1410 S   0  0  0  0  0  0  0  0  0  0  0  0
   57.1150   28.8150   43.0340 O   0  0  0  0  0  0  0  0  0  0  0  0
   55.0620   29.8720   43.8300 O   0  0  0  0  0  0  0  0  0  0  0  0
   56.6370   28.7590   45.6340 N   0  0  0  0  0  0  0  0  0  0  0  0
   57.0920   27.4050   45.7680 C   0  0  0  0  0  0  0  0  0  0  0  0
   58.4600   27.0700   45.7170 C   0  0  0  0  0  0  0  0  0  0  0  0
   58.8640   25.7390   45.8530 C   0  0  0  0  0  0  0  0  0  0  0  0
   57.9140   24.7320   46.0350 C   0  0  0  0  0  0  0  0  0  0  0  0
   56.5550   25.0550   46.0790 C   0  0  0  0  0  0  0  0  0  0  0  0
   56.1440   26.3860   45.9460 C   0  0  0  0  0  0  0  0  0  0  0  0
   54.7890   26.6930   45.9950 O   0  0  0  0  0  0  0  0  0  0  0  0
   57.5060   31.7850   45.5470 C   0  0  0  0  0  0  0  0  0  0  0  0
   60.6200   33.7210   46.9960 N   0  0  0  0  0  0  0  0  0  0  0  0
   61.7920   33.7740   47.6860 C   0  0  0  0  0  0  0  0  0  0  0  0
   63.0770   33.7350   46.9560 C   0  0  0  0  0  0  0  0  0  0  0  0
   63.3090   34.5690   46.0400 O   0  0  0  0  0  0  0  0  0  0  0  0
   64.0700   32.7570   47.2740 N   0  0  0  0  0  0  0  0  0  0  0  0
   61.7560   33.8700   49.0850 C   0  0  0  0  0  0  0  0  0  0  0  0
  1  2  1  0
  2  3  1  0
  3  4  2  0
  4  5  1  0
  5  6  2  0
  6  7  1  0
  7  8  2  0
  8  9  1  0
  9 10  1  0
 10 11  2  0
 10 12  2  0
 10 13  1  0
 13 14  1  0
 14 15  2  0
 15 16  1  0
 16 17  2  0
 17 18  1  0
 18 19  2  0
 19 20  1  0
  9 21  2  0
  3 22  1  0
 22 23  2  0
 23 24  1  0
 24 25  2  0
 24 26  1  0
 23 27  1  0
 27  1  2  0
 21  5  1  0
 19 14  1  0
M  CHG  3   2  -1  13  -1  20  -1
M  END
>  <UniqueID>  (1243) 
81

>  <SMILES>  (1243) 
NC(=O)c1cc[n-]/c(=N\c2cccc(S(=O)(=O)[N-]c3ccccc3[O-])c2)n1

>  <Energy>  (1243) 
51.45296019806338

>  <Genealogy>  (1243) 
NC(=O)c1cc[n-]c(=Nc2cccc(S(=O)(=O)[N-]c3ccccc3[O-])c2)n1 (protonated)
NC(=O)c1cc[n-]/c(=N\c2cccc(S(=O)(=O)[N-]c3ccccc3[O-])c2)n1 (cis-trans isomerization)
NC(=O)c1cc[n-]/c(=N\c2cccc(S(=O)(=O)[N-]c3ccccc3[O-])c2)n1 (3D coordinates assigned)
NC(=O)c1cc[n-]/c(=N\c2cccc(S(=O)(=O)[N-]c3ccccc3[O-])c2)n1 (optimized conformer: 51.45296019806338 kcal/mol)

>  <smiles>  (1243) 
NC(=O)c1cc[nH]c(=Nc2cccc(S(=O)(=O)Nc3ccccc3O)c2)n1

>  <score_type>  (1243) 
oracle

>  <origin>  (1243) 
adg

>  <m_score__min__energy>  (1243) 
-15.960000000000001

>  <m_primary>  (1243) 
energy

$$$$
2:0
     RDKit          3D

 30 33  0  0  0  0  0  0  0  0999 V2000
   57.3800   31.9860   42.7620 C   0  0  0  0  0  0  0  0  0  0  0  0
   57.9280   31.7730   43.9600 C   0  0  0  0  0  0  0  0  0  0  0  0
   58.4090   32.7880   44.8660 C   0  0  0  0  0  0  0  0  0  0  0  0
   58.4020   34.0320   44.6650 O   0  0  0  0  0  0  0  0  0  0  0  0
   58.9040   32.1070   46.0520 C   0  0  0  0  0  0  0  0  0  0  0  0
   59.4740   32.7300   47.0930 C   0  0  0  0  0  0  0  0  0  0  0  0
   60.9320   32.7430   47.2920 C   0  0  0  0  0  0  0  0  0  0  0  0
   61.6640   33.8410   46.8140 C   0  0  0  0  0  0  0  0  0  0  0  0
   63.0540   33.8700   46.9380 C   0  0  0  0  0  0  0  0  0  0  0  0
   63.7250   32.8090   47.5460 C   0  0  0  0  0  0  0  0  0  0  0  0
   63.0070   31.7190   48.0430 C   0  0  0  0  0  0  0  0  0  0  0  0
   61.6070   31.6740   47.9280 C   0  0  0  0  0  0  0  0  0  0  0  0
   60.8860   30.5690   48.5080 N   0  0  0  0  0  0  0  0  0  0  0  0
   60.7750   29.2980   47.7830 C   0  0  0  0  0  0  0  0  0  0  0  0
   59.4800   28.5830   48.1780 C   0  0  0  0  0  0  0  0  0  0  0  0
   58.4430   29.5330   48.3230 O   0  0  0  0  0  0  0  0  0  0  0  0
   58.6320   30.3100   49.4970 C   0  0  0  0  0  0  0  0  0  0  0  0
   60.0960   30.7490   49.7300 C   0  0  0  0  0  0  0  0  0  0  0  0
   58.7590   30.6780   45.9540 N   0  0  0  0  0  0  0  0  0  0  0  0
   58.1640   30.4960   44.6500 C   0  0  0  0  0  0  0  0  0  0  0  0
   57.9290   29.2830   44.1200 C   0  0  0  0  0  0  0  0  0  0  0  0
   57.3820   28.1680   44.9160 C   0  0  0  0  0  0  0  0  0  0  0  0
   56.0200   28.1150   45.2560 C   0  0  0  0  0  0  0  0  0  0  0  0
   55.1440   29.1060   44.8320 O   0  0  0  0  0  0  0  0  0  0  0  0
   55.5470   27.0750   45.9910 N   0  0  0  0  0  0  0  0  0  0  0  0
   56.3650   26.0710   46.3940 C   0  0  0  0  0  0  0  0  0  0  0  0
   55.9040   25.1210   47.0770 O   0  0  0  0  0  0  0  0  0  0  0  0
   57.6800   26.0890   46.0580 N   0  0  0  0  0  0  0  0  0  0  0  0
   58.2040   27.1070   45.3270 C   0  0  0  0  0  0  0  0  0  0  0  0
   59.4290   27.0920   45.0310 O   0  0  0  0  0  0  0  0  0  0  0  0
  1  2  2  0
  2  3  1  0
  3  4  2  0
  3  5  1  0
  5  6  2  0
  6  7  1  0
  7  8  2  0
  8  9  1  0
  9 10  2  0
 10 11  1  0
 11 12  2  0
 12 13  1  0
 13 14  1  0
 14 15  1  0
 15 16  1  0
 16 17  1  0
 17 18  1  0
  5 19  1  0
 19 20  1  0
 20 21  2  3
 21 22  1  0
 22 23  2  0
 23 24  1  0
 23 25  1  0
 25 26  1  0
 26 27  2  0
 26 28  1  0
 28 29  1  0
 29 30  2  0
 20  2  1  0
 29 22  1  0
 12  7  1  0
 18 13  1  0
M  CHG  4  19   1  24  -1  25  -1  28  -1
M  END
>  <UniqueID>  (1244) 
2

>  <SMILES>  (1244) 
C=C1C(=O)/C(=C/c2ccccc2N2CCOCC2)[NH2+]C1=Cc1c([O-])[n-]c(=O)[n-]c1=O

>  <Energy>  (1244) 
97.0274098536032

>  <Genealogy>  (1244) 
C=C1C(=O)C(=Cc2ccccc2N2CCOCC2)[NH2+]C1=Cc1c([O-])[n-]c(=O)[n-]c1=O (protonated)
C=C1C(=O)/C(=C/c2ccccc2N2CCOCC2)[NH2+]C1=Cc1c([O-])[n-]c(=O)[n-]c1=O (cis-trans isomerization)
C=C1C(=O)/C(=C/c2ccccc2N2CCOCC2)[NH2+]C1=Cc1c([O-])[n-]c(=O)[n-]c1=O (3D coordinates assigned)
C=C1C(=O)/C(=C/c2ccccc2N2CCOCC2)[NH2+]C1=Cc1c([O-])[n-]c(=O)[n-]c1=O (nonaromatic ring conformer: 97.0274098536032 kcal/mol)

>  <smiles>  (1244) 
C=C1C(=O)C(=Cc2ccccc2N2CCOCC2)NC1=Cc1c(O)[nH]c(=O)[nH]c1=O

>  <score_type>  (1244) 
oracle

>  <origin>  (1244) 
adg

>  <m_score__min__energy>  (1244) 
-14.640000000000001

>  <m_primary>  (1244) 
energy

$$$$
7:0
     RDKit          3D

 23 24  0  0  0  0  0  0  0  0999 V2000
   63.3930   33.7530   47.0970 C   0  0  0  0  0  0  0  0  0  0  0  0
   62.2320   33.8890   48.4380 S   0  0  0  0  0  0  0  0  0  0  0  0
   62.6570   34.9700   49.3920 O   0  0  0  0  0  0  0  0  0  0  0  0
   62.1920   32.5830   49.1790 O   0  0  0  0  0  0  0  0  0  0  0  0
   60.6470   34.2310   47.8220 N   0  0  0  0  0  0  0  0  0  0  0  0
   59.8680   33.3610   46.9880 C   0  0  0  0  0  0  0  0  0  0  0  0
   60.1330   31.9840   46.8820 C   0  0  0  0  0  0  0  0  0  0  0  0
   59.3430   31.1740   46.0610 C   0  0  0  0  0  0  0  0  0  0  0  0
   58.2820   31.7280   45.3290 C   0  0  0  0  0  0  0  0  0  0  0  0
   57.4180   30.8590   44.4550 C   0  0  0  0  0  0  0  0  0  0  0  0
   56.7230   29.8580   45.2550 N   0  0  0  0  0  0  0  0  0  0  0  0
   57.3440   28.6650   45.7470 C   0  0  0  0  0  0  0  0  0  0  0  0
   57.8150   28.6210   46.9150 O   0  0  0  0  0  0  0  0  0  0  0  0
   57.4740   27.4760   44.8500 C   0  0  0  0  0  0  0  0  0  0  0  0
   57.1360   26.2290   45.6040 C   0  0  0  0  0  0  0  0  0  0  0  0
   58.2360   25.0260   46.0330 S   0  0  0  0  0  0  0  0  0  0  0  0
   57.0700   24.1410   46.8600 C   0  0  0  0  0  0  0  0  0  0  0  0
   57.2890   23.0480   47.4420 O   0  0  0  0  0  0  0  0  0  0  0  0
   55.8570   24.7330   46.8410 N   0  0  0  0  0  0  0  0  0  0  0  0
   55.8950   25.9010   46.1460 C   0  0  0  0  0  0  0  0  0  0  0  0
   54.7680   26.6980   45.9960 O   0  0  0  0  0  0  0  0  0  0  0  0
   58.0170   33.1010   45.4360 C   0  0  0  0  0  0  0  0  0  0  0  0
   58.8060   33.9100   46.2590 C   0  0  0  0  0  0  0  0  0  0  0  0
  1  2  1  0
  2  3  2  0
  2  4  2  0
  2  5  1  0
  5  6  1  0
  6  7  2  0
  7  8  1  0
  8  9  2  0
  9 10  1  0
 10 11  1  0
 11 12  1  0
 12 13  2  0
 12 14  1  0
 14 15  1  0
 15 16  1  0
 16 17  1  0
 17 18  2  0
 17 19  1  0
 19 20  1  0
 20 21  1  0
  9 22  1  0
 22 23  2  0
 23  6  1  0
 20 15  2  0
M  CHG  4   5  -1  11  -1  19  -1  21  -1
M  END
>  <UniqueID>  (1245) 
7

>  <SMILES>  (1245) 
CS(=O)(=O)[N-]c1ccc(C[N-]C(=O)Cc2sc(=O)[n-]c2[O-])cc1

>  <Energy>  (1245) 
59.40043523529119

>  <Genealogy>  (1245) 
CS(=O)(=O)[N-]c1ccc(C[N-]C(=O)Cc2sc(=O)[n-]c2[O-])cc1 (protonated)
CS(=O)(=O)[N-]c1ccc(C[N-]C(=O)Cc2sc(=O)[n-]c2[O-])cc1 (3D coordinates assigned)
CS(=O)(=O)[N-]c1ccc(C[N-]C(=O)Cc2sc(=O)[n-]c2[O-])cc1 (optimized conformer: 59.40043523529119 kcal/mol)

>  <smiles>  (1245) 
CS(=O)(=O)Nc1ccc(CNC(=O)Cc2sc(=O)[nH]c2O)cc1

>  <score_type>  (1245) 
oracle

>  <origin>  (1245) 
adg

>  <m_score__min__energy>  (1245) 
-15.81

>  <m_primary>  (1245) 
energy

$$$$
12:0
     RDKit          3D

 27 29  0  0  0  0  0  0  0  0999 V2000
   61.0990   32.6040   49.3130 O   0  0  0  0  0  0  0  0  0  0  0  0
   60.8200   32.2010   48.1530 C   0  0  0  0  0  0  0  0  0  0  0  0
   61.0600   30.8270   47.8140 N   0  0  0  0  0  0  0  0  0  0  0  0
   60.2360   30.0100   47.2180 C   0  0  0  0  0  0  0  0  0  0  0  0
   59.2520   29.2770   47.9150 C   0  0  0  0  0  0  0  0  0  0  0  0
   58.4060   28.4170   47.2130 C   0  0  0  0  0  0  0  0  0  0  0  0
   58.5270   28.2910   45.8240 C   0  0  0  0  0  0  0  0  0  0  0  0
   57.5930   27.4000   45.0540 C   0  0  0  0  0  0  0  0  0  0  0  0
   57.1890   26.2280   45.8920 C   0  0  0  0  0  0  0  0  0  0  0  0
   58.2250   25.0080   46.4180 S   0  0  0  0  0  0  0  0  0  0  0  0
   56.9750   24.1460   47.1390 C   0  0  0  0  0  0  0  0  0  0  0  0
   57.1280   23.0570   47.7520 O   0  0  0  0  0  0  0  0  0  0  0  0
   55.7750   24.7440   46.9880 N   0  0  0  0  0  0  0  0  0  0  0  0
   55.8930   25.9010   46.2870 C   0  0  0  0  0  0  0  0  0  0  0  0
   54.7880   26.6900   45.9900 O   0  0  0  0  0  0  0  0  0  0  0  0
   59.4880   29.0650   45.1600 C   0  0  0  0  0  0  0  0  0  0  0  0
   60.3070   29.8920   45.8640 N   0  0  0  0  0  0  0  0  0  0  0  0
   60.1950   33.1240   47.1890 C   0  0  0  0  0  0  0  0  0  0  0  0
   60.1670   34.3580   47.4430 O   0  0  0  0  0  0  0  0  0  0  0  0
   59.5780   32.6230   45.9950 N   0  0  0  0  0  0  0  0  0  0  0  0
   58.5630   33.3900   45.2760 C   0  0  0  0  0  0  0  0  0  0  0  0
   57.8370   32.4950   44.3050 C   0  0  0  0  0  0  0  0  0  0  0  0
   58.0020   32.6810   42.9220 C   0  0  0  0  0  0  0  0  0  0  0  0
   57.3950   31.8070   42.0160 C   0  0  0  0  0  0  0  0  0  0  0  0
   56.6240   30.7390   42.4840 C   0  0  0  0  0  0  0  0  0  0  0  0
   56.4570   30.5450   43.8570 C   0  0  0  0  0  0  0  0  0  0  0  0
   57.0620   31.4180   44.7670 C   0  0  0  0  0  0  0  0  0  0  0  0
  1  2  2  0
  2  3  1  0
  3  4  2  3
  4  5  1  0
  5  6  2  0
  6  7  1  0
  7  8  1  0
  8  9  1  0
  9 10  1  0
 10 11  1  0
 11 12  2  0
 11 13  1  0
 13 14  1  0
 14 15  1  0
  7 16  2  0
 16 17  1  0
  2 18  1  0
 18 19  2  0
 18 20  1  0
 20 21  1  0
 21 22  1  0
 22 23  2  0
 23 24  1  0
 24 25  2  0
 25 26  1  0
 26 27  2  0
 17  4  1  0
 27 22  1  0
 14  9  2  0
M  CHG  3  13  -1  15  -1  17  -1
M  END
>  <UniqueID>  (1246) 
11

>  <SMILES>  (1246) 
O=C(N=c1ccc(Cc2sc(=O)[n-]c2[O-])c[n-]1)C(=O)NCc1ccccc1

>  <Energy>  (1246) 
77.40600058123204

>  <Genealogy>  (1246) 
O=C(N=c1ccc(Cc2sc(=O)[n-]c2[O-])c[n-]1)C(=O)NCc1ccccc1 (protonated)
O=C(N=c1ccc(Cc2sc(=O)[n-]c2[O-])c[n-]1)C(=O)NCc1ccccc1 (3D coordinates assigned)
O=C(N=c1ccc(Cc2sc(=O)[n-]c2[O-])c[n-]1)C(=O)NCc1ccccc1 (optimized conformer: 77.40600058123204 kcal/mol)

>  <smiles>  (1246) 
O=C(N=c1ccc(Cc2sc(=O)[nH]c2O)c[nH]1)C(=O)NCc1ccccc1

>  <score_type>  (1246) 
oracle

>  <origin>  (1246) 
adg

>  <m_score__min__energy>  (1246) 
-16.300000000000001

>  <m_primary>  (1246) 
energy

$$$$
14:0
     RDKit          3D

 26 30  0  0  0  0  0  0  0  0999 V2000
   58.4410   27.5330   45.5880 C   0  0  0  0  0  0  0  0  0  0  0  0
   57.1840   26.8200   45.8730 C   0  0  0  0  0  0  0  0  0  0  0  0
   57.1380   25.5330   46.2590 N   0  0  0  0  0  0  0  0  0  0  0  0
   55.8160   25.2710   46.3300 C   0  0  0  0  0  0  0  0  0  0  0  0
   55.3640   24.1490   46.6750 O   0  0  0  0  0  0  0  0  0  0  0  0
   55.0160   26.3040   45.9890 N   0  0  0  0  0  0  0  0  0  0  0  0
   55.8950   27.2730   45.6910 C   0  0  0  0  0  0  0  0  0  0  0  0
   55.5250   28.5250   45.2140 O   0  0  0  0  0  0  0  0  0  0  0  0
   59.2370   28.0530   46.5340 C   0  0  0  0  0  0  0  0  0  0  0  0
   60.0530   27.4040   47.4610 C   0  0  0  0  0  0  0  0  0  0  0  0
   60.7220   28.3190   48.2030 N   0  0  0  0  0  0  0  0  0  0  0  0
   60.3560   29.5160   47.7710 N   0  0  0  0  0  0  0  0  0  0  0  0
   60.7580   30.7460   48.2000 C   0  0  0  0  0  0  0  0  0  0  0  0
   61.6090   30.9210   49.1710 N   0  0  0  0  0  0  0  0  0  0  0  0
   62.9150   31.5660   49.0770 C   0  0  0  0  0  0  0  0  0  0  0  0
   63.2880   31.9130   47.6480 C   0  0  0  0  0  0  0  0  0  0  0  0
   62.8580   33.0090   48.6090 C   0  0  0  0  0  0  0  0  0  0  0  0
   60.2330   31.8390   47.5790 N   0  0  0  0  0  0  0  0  0  0  0  0
   59.3340   31.7070   46.5560 C   0  0  0  0  0  0  0  0  0  0  0  0
   58.7820   32.9060   45.8990 C   0  0  0  0  0  0  0  0  0  0  0  0
   57.4270   33.0730   45.6240 C   0  0  0  0  0  0  0  0  0  0  0  0
   57.2250   34.5640   44.8750 S   0  0  0  0  0  0  0  0  0  0  0  0
   58.8420   35.0150   44.8890 C   0  0  0  0  0  0  0  0  0  0  0  0
   59.5700   33.9950   45.4850 C   0  0  0  0  0  0  0  0  0  0  0  0
   58.9500   30.4640   46.1450 N   0  0  0  0  0  0  0  0  0  0  0  0
   59.4770   29.3880   46.7720 C   0  0  0  0  0  0  0  0  0  0  0  0
  1  2  1  0
  2  3  1  0
  3  4  1  0
  4  5  2  0
  4  6  1  0
  6  7  1  0
  7  8  1  0
  1  9  2  3
  9 10  1  0
 10 11  2  0
 11 12  1  0
 12 13  1  0
 13 14  2  0
 14 15  1  0
 15 16  1  0
 16 17  1  0
 13 18  1  0
 18 19  2  0
 19 20  1  0
 20 21  2  0
 21 22  1  0
 22 23  1  0
 23 24  2  0
 19 25  1  0
 25 26  2  0
  7  2  2  0
 26  9  1  0
 26 12  1  0
 17 15  1  0
 24 20  1  0
M  CHG  3   3  -1   6  -1   8  -1
M  END
>  <UniqueID>  (1247) 
13

>  <SMILES>  (1247) 
O=c1[n-]c([O-])c(C=c2cnn3/c(=N\C4CC4)nc(-c4ccsc4)nc23)[n-]1

>  <Energy>  (1247) 
407.8816305945884

>  <Genealogy>  (1247) 
O=c1[n-]c([O-])c(C=c2cnn3c(=NC4CC4)nc(-c4ccsc4)nc23)[n-]1 (protonated)
O=c1[n-]c([O-])c(C=c2cnn3/c(=N\C4CC4)nc(-c4ccsc4)nc23)[n-]1 (cis-trans isomerization)
O=c1[n-]c([O-])c(C=c2cnn3/c(=N\C4CC4)nc(-c4ccsc4)nc23)[n-]1 (3D coordinates assigned)
O=c1[n-]c([O-])c(C=c2cnn3/c(=N\C4CC4)nc(-c4ccsc4)nc23)[n-]1 (nonaromatic ring conformer: 407.8816305945884 kcal/mol)

>  <smiles>  (1247) 
O=c1[nH]c(O)c(C=c2cnn3c(=NC4CC4)nc(-c4ccsc4)nc23)[nH]1

>  <score_type>  (1247) 
oracle

>  <origin>  (1247) 
adg

>  <m_score__min__energy>  (1247) 
-15.75

>  <m_primary>  (1247) 
energy

$$$$
21:0
     RDKit          3D

 25 27  0  0  0  0  0  0  0  0999 V2000
   55.7750   30.8770   44.4850 O   0  0  0  0  0  0  0  0  0  0  0  0
   56.9920   30.6480   44.7100 C   0  0  0  0  0  0  0  0  0  0  0  0
   57.9760   31.5370   44.1610 N   0  0  0  0  0  0  0  0  0  0  0  0
   57.8820   32.9950   44.1250 C   0  0  0  0  0  0  0  0  0  0  0  0
   58.4870   33.5990   45.3650 C   0  0  0  0  0  0  0  0  0  0  0  0
   59.2400   34.7820   45.2760 C   0  0  0  0  0  0  0  0  0  0  0  0
   59.8260   35.3320   46.4190 C   0  0  0  0  0  0  0  0  0  0  0  0
   59.6650   34.7080   47.6590 C   0  0  0  0  0  0  0  0  0  0  0  0
   58.9150   33.5320   47.7580 C   0  0  0  0  0  0  0  0  0  0  0  0
   58.3240   32.9800   46.6170 C   0  0  0  0  0  0  0  0  0  0  0  0
   57.3590   29.4530   45.4850 C   0  0  0  0  0  0  0  0  0  0  0  0
   56.8610   28.1890   45.1470 C   0  0  0  0  0  0  0  0  0  0  0  0
   57.2350   27.0840   45.9260 C   0  0  0  0  0  0  0  0  0  0  0  0
   56.7500   25.7180   45.6170 C   0  0  0  0  0  0  0  0  0  0  0  0
   57.6870   24.7070   45.3350 C   0  0  0  0  0  0  0  0  0  0  0  0
   57.2650   23.4100   45.0350 C   0  0  0  0  0  0  0  0  0  0  0  0
   55.9030   23.0990   45.0200 C   0  0  0  0  0  0  0  0  0  0  0  0
   55.4970   21.8020   44.7160 O   0  0  0  0  0  0  0  0  0  0  0  0
   54.9610   24.0920   45.3150 C   0  0  0  0  0  0  0  0  0  0  0  0
   55.3760   25.3930   45.6210 C   0  0  0  0  0  0  0  0  0  0  0  0
   54.4150   26.3410   45.9550 O   0  0  0  0  0  0  0  0  0  0  0  0
   58.1010   27.2660   46.9590 N   0  0  0  0  0  0  0  0  0  0  0  0
   58.5940   28.4950   47.2600 C   0  0  0  0  0  0  0  0  0  0  0  0
   59.3940   28.6320   48.2210 O   0  0  0  0  0  0  0  0  0  0  0  0
   58.2250   29.5750   46.5240 N   0  0  0  0  0  0  0  0  0  0  0  0
  1  2  2  0
  2  3  1  0
  3  4  1  0
  4  5  1  0
  5  6  2  0
  6  7  1  0
  7  8  2  0
  8  9  1  0
  9 10  2  0
  2 11  1  0
 11 12  1  0
 12 13  2  0
 13 14  1  0
 14 15  2  0
 15 16  1  0
 16 17  2  0
 17 18  1  0
 17 19  1  0
 19 20  2  0
 20 21  1  0
 13 22  1  0
 22 23  1  0
 23 24  2  0
 23 25  1  0
 10  5  1  0
 25 11  2  0
 20 14  1  0
M  CHG  3   3  -1  21  -1  22  -1
M  END
>  <UniqueID>  (1248) 
19

>  <SMILES>  (1248) 
O=C([N-]Cc1ccccc1)c1cc(-c2ccc(O)cc2[O-])[n-]c(=O)n1

>  <Energy>  (1248) 
47.927969352200535

>  <Genealogy>  (1248) 
O=C([N-]Cc1ccccc1)c1cc(-c2ccc(O)cc2[O-])[n-]c(=O)n1 (protonated)
O=C([N-]Cc1ccccc1)c1cc(-c2ccc(O)cc2[O-])[n-]c(=O)n1 (3D coordinates assigned)
O=C([N-]Cc1ccccc1)c1cc(-c2ccc(O)cc2[O-])[n-]c(=O)n1 (optimized conformer: 47.927969352200535 kcal/mol)

>  <smiles>  (1248) 
O=C(NCc1ccccc1)c1cc(-c2ccc(O)cc2O)[nH]c(=O)n1

>  <score_type>  (1248) 
oracle

>  <origin>  (1248) 
adg

>  <m_score__min__energy>  (1248) 
-14.85

>  <m_primary>  (1248) 
energy

$$$$
25:0
     RDKit          3D

 23 24  0  0  0  0  0  0  0  0999 V2000
   57.8550   34.5180   44.9210 C   0  0  0  0  0  0  0  0  0  0  0  0
   58.9050   34.7690   45.9990 C   0  0  0  0  0  0  0  0  0  0  0  0
   60.0110   33.7020   45.9980 C   0  0  0  0  0  0  0  0  0  0  0  0
   59.5310   32.4190   46.5200 N   0  0  0  0  0  0  0  0  0  0  0  0
   58.8890   31.4250   45.8710 C   0  0  0  0  0  0  0  0  0  0  0  0
   58.4770   31.4240   44.1220 S   0  0  0  0  0  0  0  0  0  0  0  0
   57.7770   29.7370   44.0990 C   0  0  0  0  0  0  0  0  0  0  0  0
   56.3710   29.7620   44.6270 C   0  0  0  0  0  0  0  0  0  0  0  0
   55.7450   30.8540   44.6420 O   0  0  0  0  0  0  0  0  0  0  0  0
   55.7610   28.6100   45.2230 N   0  0  0  0  0  0  0  0  0  0  0  0
   56.4440   27.4480   45.7110 C   0  0  0  0  0  0  0  0  0  0  0  0
   57.8470   27.3980   45.7590 C   0  0  0  0  0  0  0  0  0  0  0  0
   58.5050   26.2490   46.2420 C   0  0  0  0  0  0  0  0  0  0  0  0
   59.9010   26.1690   46.3460 O   0  0  0  0  0  0  0  0  0  0  0  0
   60.7730   27.2950   46.3340 C   0  0  0  0  0  0  0  0  0  0  0  0
   57.7440   25.1420   46.6330 C   0  0  0  0  0  0  0  0  0  0  0  0
   56.3510   25.1710   46.5430 C   0  0  0  0  0  0  0  0  0  0  0  0
   55.7010   26.3170   46.0790 C   0  0  0  0  0  0  0  0  0  0  0  0
   54.3130   26.3360   45.9970 O   0  0  0  0  0  0  0  0  0  0  0  0
   58.5340   30.4320   46.7110 N   0  0  0  0  0  0  0  0  0  0  0  0
   58.9430   30.7790   47.9230 N   0  0  0  0  0  0  0  0  0  0  0  0
   59.5330   31.9800   47.7940 C   0  0  0  0  0  0  0  0  0  0  0  0
   60.0120   32.6250   48.7640 O   0  0  0  0  0  0  0  0  0  0  0  0
  1  2  1  0
  2  3  1  0
  3  4  1  0
  4  5  1  0
  5  6  1  0
  6  7  1  0
  7  8  1  0
  8  9  2  0
  8 10  1  0
 10 11  1  0
 11 12  2  0
 12 13  1  0
 13 14  1  0
 14 15  1  0
 13 16  2  0
 16 17  1  0
 17 18  2  0
 18 19  1  0
  5 20  2  0
 20 21  1  0
 21 22  1  0
 22 23  2  0
 22  4  1  0
 18 11  1  0
M  CHG  3  10  -1  19  -1  21  -1
M  END
>  <UniqueID>  (1249) 
23

>  <SMILES>  (1249) 
CCCn1c(SCC(=O)[N-]c2cc(OC)ccc2[O-])n[n-]c1=O

>  <Energy>  (1249) 
68.71483315407396

>  <Genealogy>  (1249) 
CCCn1c(SCC(=O)[N-]c2cc(OC)ccc2[O-])n[n-]c1=O (protonated)
CCCn1c(SCC(=O)[N-]c2cc(OC)ccc2[O-])n[n-]c1=O (3D coordinates assigned)
CCCn1c(SCC(=O)[N-]c2cc(OC)ccc2[O-])n[n-]c1=O (optimized conformer: 68.71483315407396 kcal/mol)

>  <smiles>  (1249) 
CCCn1c(SCC(=O)Nc2cc(OC)ccc2O)n[nH]c1=O

>  <score_type>  (1249) 
oracle

>  <origin>  (1249) 
adg

>  <m_score__min__energy>  (1249) 
-14.16

>  <m_primary>  (1249) 
energy

$$$$
54:0
     RDKit          3D

 25 27  0  0  0  0  0  0  0  0999 V2000
   56.4860   30.6160   43.4360 C   0  0  0  0  0  0  0  0  0  0  0  0
   57.1980   31.1370   44.4470 C   0  0  0  0  0  0  0  0  0  0  0  0
   57.0530   32.4640   44.6630 N   0  0  0  0  0  0  0  0  0  0  0  0
   57.5460   33.0910   45.7530 C   0  0  0  0  0  0  0  0  0  0  0  0
   57.3860   34.3370   45.8490 O   0  0  0  0  0  0  0  0  0  0  0  0
   58.1830   32.3760   46.7390 N   0  0  0  0  0  0  0  0  0  0  0  0
   58.6540   33.0440   47.9870 C   0  0  0  0  0  0  0  0  0  0  0  0
   60.1740   33.3190   47.9560 C   0  0  0  0  0  0  0  0  0  0  0  0
   60.6200   34.1430   49.1800 C   0  0  0  0  0  0  0  0  0  0  0  0
   59.8150   33.8320   50.4610 C   0  0  0  0  0  0  0  0  0  0  0  0
   59.2000   32.4280   50.4320 C   0  0  0  0  0  0  0  0  0  0  0  0
   58.2130   32.2700   49.2590 C   0  0  0  0  0  0  0  0  0  0  0  0
   58.4080   31.0300   46.5470 C   0  0  0  0  0  0  0  0  0  0  0  0
   59.0280   30.3690   47.4290 O   0  0  0  0  0  0  0  0  0  0  0  0
   57.9890   30.3740   45.3550 C   0  0  0  0  0  0  0  0  0  0  0  0
   58.3890   29.0870   45.1440 C   0  0  0  0  0  0  0  0  0  0  0  0
   57.7410   27.8660   45.6700 C   0  0  0  0  0  0  0  0  0  0  0  0
   58.5460   26.8540   46.2140 C   0  0  0  0  0  0  0  0  0  0  0  0
   57.9700   25.6780   46.6970 C   0  0  0  0  0  0  0  0  0  0  0  0
   56.5870   25.4900   46.6260 C   0  0  0  0  0  0  0  0  0  0  0  0
   56.0240   24.3190   47.1160 O   0  0  0  0  0  0  0  0  0  0  0  0
   55.7720   26.4780   46.0570 C   0  0  0  0  0  0  0  0  0  0  0  0
   54.3950   26.2650   45.9820 O   0  0  0  0  0  0  0  0  0  0  0  0
   56.3490   27.6620   45.5640 C   0  0  0  0  0  0  0  0  0  0  0  0
   55.5440   28.6230   44.9610 O   0  0  0  0  0  0  0  0  0  0  0  0
  1  2  2  0
  2  3  1  0
  3  4  1  0
  4  5  2  0
  4  6  1  0
  6  7  1  0
  7  8  1  0
  8  9  1  0
  9 10  1  0
 10 11  1  0
 11 12  1  0
  6 13  1  0
 13 14  2  0
 13 15  1  0
 15 16  2  3
 16 17  1  0
 17 18  2  0
 18 19  1  0
 19 20  2  0
 20 21  1  0
 20 22  1  0
 22 23  1  0
 22 24  2  0
 24 25  1  0
 15  2  1  0
 24 17  1  0
 12  7  1  0
M  CHG  3   3  -1  21  -1  25  -1
M  END
>  <UniqueID>  (1250) 
47

>  <SMILES>  (1250) 
C=c1[n-]c(=O)n(C2CCCCC2)c(=O)c1=Cc1ccc([O-])c(O)c1[O-]

>  <Energy>  (1250) 
78.4854460222414

>  <Genealogy>  (1250) 
C=c1[n-]c(=O)n(C2CCCCC2)c(=O)c1=Cc1ccc([O-])c(O)c1[O-] (protonated)
C=c1[n-]c(=O)n(C2CCCCC2)c(=O)c1=Cc1ccc([O-])c(O)c1[O-] (3D coordinates assigned)
C=c1[n-]c(=O)n(C2CCCCC2)c(=O)c1=Cc1ccc([O-])c(O)c1[O-] (nonaromatic ring conformer: 78.4854460222414 kcal/mol)

>  <smiles>  (1250) 
C=c1[nH]c(=O)n(C2CCCCC2)c(=O)c1=Cc1ccc(O)c(O)c1O

>  <score_type>  (1250) 
oracle

>  <origin>  (1250) 
adg

>  <m_score__min__energy>  (1250) 
-15.35

>  <m_primary>  (1250) 
energy

$$$$
56:0
     RDKit          3D

 29 31  0  0  0  0  0  0  0  0999 V2000
   59.2760   30.6090   47.0640 C   0  0  0  0  0  0  0  0  0  0  0  0
   58.5000   31.2660   46.1850 C   0  0  0  0  0  0  0  0  0  0  0  0
   57.9780   30.7590   44.9820 C   0  0  0  0  0  0  0  0  0  0  0  0
   57.9800   29.5140   44.4620 C   0  0  0  0  0  0  0  0  0  0  0  0
   57.4130   28.3110   45.1020 C   0  0  0  0  0  0  0  0  0  0  0  0
   56.0250   28.1520   45.2560 C   0  0  0  0  0  0  0  0  0  0  0  0
   55.1470   29.1490   44.8480 O   0  0  0  0  0  0  0  0  0  0  0  0
   55.5310   27.0130   45.8040 N   0  0  0  0  0  0  0  0  0  0  0  0
   56.3570   26.0080   46.1940 C   0  0  0  0  0  0  0  0  0  0  0  0
   55.8770   24.9610   46.7020 O   0  0  0  0  0  0  0  0  0  0  0  0
   57.7000   26.1270   46.0300 N   0  0  0  0  0  0  0  0  0  0  0  0
   58.2440   27.2470   45.4880 C   0  0  0  0  0  0  0  0  0  0  0  0
   59.4930   27.3220   45.3450 O   0  0  0  0  0  0  0  0  0  0  0  0
   57.3880   31.8280   44.3340 C   0  0  0  0  0  0  0  0  0  0  0  0
   57.5130   32.9200   45.1640 C   0  0  0  0  0  0  0  0  0  0  0  0
   57.0290   34.2960   44.8190 C   0  0  0  0  0  0  0  0  0  0  0  0
   58.1830   32.5880   46.2920 N   0  0  0  0  0  0  0  0  0  0  0  0
   58.5440   33.5290   47.3660 C   0  0  0  0  0  0  0  0  0  0  0  0
   60.0290   33.5060   47.6250 C   0  0  0  0  0  0  0  0  0  0  0  0
   60.5210   33.4330   48.9390 C   0  0  0  0  0  0  0  0  0  0  0  0
   61.8970   33.4200   49.1790 C   0  0  0  0  0  0  0  0  0  0  0  0
   62.8060   33.4730   48.1150 C   0  0  0  0  0  0  0  0  0  0  0  0
   64.2090   33.4540   48.4120 N   0  0  0  0  0  0  0  0  0  0  0  0
   64.9170   33.0080   49.9310 S   0  0  0  0  0  0  0  0  0  0  0  0
   64.2590   31.4490   50.4860 C   0  0  0  0  0  0  0  0  0  0  0  0
   66.4020   32.8650   49.7470 O   0  0  0  0  0  0  0  0  0  0  0  0
   64.6600   34.0790   50.9530 O   0  0  0  0  0  0  0  0  0  0  0  0
   62.3160   33.5400   46.7980 C   0  0  0  0  0  0  0  0  0  0  0  0
   60.9390   33.5560   46.5570 C   0  0  0  0  0  0  0  0  0  0  0  0
  1  2  2  0
  2  3  1  0
  3  4  2  3
  4  5  1  0
  5  6  2  0
  6  7  1  0
  6  8  1  0
  8  9  1  0
  9 10  2  0
  9 11  1  0
 11 12  1  0
 12 13  2  0
  3 14  1  0
 14 15  2  0
 15 16  1  0
 15 17  1  0
 17 18  1  0
 18 19  1  0
 19 20  2  0
 20 21  1  0
 21 22  2  0
 22 23  1  0
 23 24  1  0
 24 25  1  0
 24 26  2  0
 24 27  2  0
 22 28  1  0
 28 29  2  0
 17  2  1  0
 29 19  1  0
 12  5  1  0
M  CHG  4   7  -1   8  -1  11  -1  23  -1
M  END
>  <UniqueID>  (1251) 
49

>  <SMILES>  (1251) 
C=c1c(=Cc2c([O-])[n-]c(=O)[n-]c2=O)cc(C)n1Cc1ccc([N-]S(C)(=O)=O)cc1

>  <Energy>  (1251) 
89.11312190619142

>  <Genealogy>  (1251) 
C=c1c(=Cc2c([O-])[n-]c(=O)[n-]c2=O)cc(C)n1Cc1ccc([N-]S(C)(=O)=O)cc1 (protonated)
C=c1c(=Cc2c([O-])[n-]c(=O)[n-]c2=O)cc(C)n1Cc1ccc([N-]S(C)(=O)=O)cc1 (3D coordinates assigned)
C=c1c(=Cc2c([O-])[n-]c(=O)[n-]c2=O)cc(C)n1Cc1ccc([N-]S(C)(=O)=O)cc1 (optimized conformer: 89.11312190619142 kcal/mol)

>  <smiles>  (1251) 
C=c1c(=Cc2c(O)[nH]c(=O)[nH]c2=O)cc(C)n1Cc1ccc(NS(C)(=O)=O)cc1

>  <score_type>  (1251) 
oracle

>  <origin>  (1251) 
adg

>  <m_score__min__energy>  (1251) 
-16.800000000000001

>  <m_primary>  (1251) 
energy

$$$$
63:0
     RDKit          3D

 24 26  0  0  0  0  0  0  0  0999 V2000
   59.7490   28.9550   47.7030 C   0  0  0  0  0  0  0  0  0  0  0  0
   59.1230   29.5600   46.6820 C   0  0  0  0  0  0  0  0  0  0  0  0
   58.6500   28.9420   45.5140 C   0  0  0  0  0  0  0  0  0  0  0  0
   58.4520   27.6430   45.2190 C   0  0  0  0  0  0  0  0  0  0  0  0
   57.2660   26.8540   45.5940 C   0  0  0  0  0  0  0  0  0  0  0  0
   57.3020   25.6200   46.1290 N   0  0  0  0  0  0  0  0  0  0  0  0
   56.0080   25.3690   46.4230 C   0  0  0  0  0  0  0  0  0  0  0  0
   55.6270   24.2850   46.9350 O   0  0  0  0  0  0  0  0  0  0  0  0
   55.1560   26.3760   46.1350 N   0  0  0  0  0  0  0  0  0  0  0  0
   55.9710   27.3120   45.6240 C   0  0  0  0  0  0  0  0  0  0  0  0
   55.5420   28.5630   45.1990 O   0  0  0  0  0  0  0  0  0  0  0  0
   58.3800   29.9620   44.6200 C   0  0  0  0  0  0  0  0  0  0  0  0
   58.6130   31.1490   45.2830 C   0  0  0  0  0  0  0  0  0  0  0  0
   58.4810   32.5040   44.6540 C   0  0  0  0  0  0  0  0  0  0  0  0
   59.0310   30.9120   46.5500 N   0  0  0  0  0  0  0  0  0  0  0  0
   59.4220   31.9380   47.5330 C   0  0  0  0  0  0  0  0  0  0  0  0
   60.8830   32.3260   47.4000 C   0  0  0  0  0  0  0  0  0  0  0  0
   61.8690   31.4030   47.8000 C   0  0  0  0  0  0  0  0  0  0  0  0
   63.2250   31.7140   47.6840 C   0  0  0  0  0  0  0  0  0  0  0  0
   63.6190   32.9420   47.1550 C   0  0  0  0  0  0  0  0  0  0  0  0
   62.6580   33.8610   46.7320 C   0  0  0  0  0  0  0  0  0  0  0  0
   61.2920   33.5630   46.8420 C   0  0  0  0  0  0  0  0  0  0  0  0
   60.3430   34.5400   46.3690 C   0  0  0  0  0  0  0  0  0  0  0  0
   59.5880   35.3280   45.9820 N   0  0  0  0  0  0  0  0  0  0  0  0
  1  2  2  0
  2  3  1  0
  3  4  2  0
  4  5  1  0
  5  6  1  0
  6  7  1  0
  7  8  2  0
  7  9  1  0
  9 10  1  0
 10 11  1  0
  3 12  1  0
 12 13  2  0
 13 14  1  0
 13 15  1  0
 15 16  1  0
 16 17  1  0
 17 18  2  0
 18 19  1  0
 19 20  2  0
 20 21  1  0
 21 22  2  0
 22 23  1  0
 23 24  3  0
 15  2  1  0
 22 17  1  0
 10  5  2  0
M  CHG  3   6  -1   9  -1  11  -1
M  END
>  <UniqueID>  (1252) 
55

>  <SMILES>  (1252) 
C=c1/c(=C\c2[n-]c(=O)[n-]c2[O-])cc(C)n1Cc1ccccc1C#N

>  <Energy>  (1252) 
108.74319881028944

>  <Genealogy>  (1252) 
C=c1c(=Cc2[n-]c(=O)[n-]c2[O-])cc(C)n1Cc1ccccc1C#N (protonated)
C=c1/c(=C\c2[n-]c(=O)[n-]c2[O-])cc(C)n1Cc1ccccc1C#N (cis-trans isomerization)
C=c1/c(=C\c2[n-]c(=O)[n-]c2[O-])cc(C)n1Cc1ccccc1C#N (3D coordinates assigned)
C=c1/c(=C\c2[n-]c(=O)[n-]c2[O-])cc(C)n1Cc1ccccc1C#N (optimized conformer: 108.74319881028944 kcal/mol)

>  <smiles>  (1252) 
C=c1c(=Cc2[nH]c(=O)[nH]c2O)cc(C)n1Cc1ccccc1C#N

>  <score_type>  (1252) 
oracle

>  <origin>  (1252) 
adg

>  <m_score__min__energy>  (1252) 
-15.529999999999999

>  <m_primary>  (1252) 
energy

$$$$
66:0
     RDKit          3D

 30 32  0  0  0  0  0  0  0  0999 V2000
   56.6140   28.1610   54.1130 O   0  0  0  0  0  0  0  0  0  0  0  0
   56.6510   29.1320   53.3120 C   0  0  0  0  0  0  0  0  0  0  0  0
   55.3980   29.5740   52.6320 C   0  0  0  0  0  0  0  0  0  0  0  0
   54.2630   28.8600   53.2060 N   0  0  0  0  0  0  0  0  0  0  0  0
   52.9450   29.4030   53.3520 C   0  0  0  0  0  0  0  0  0  0  0  0
   52.3050   29.1630   54.4090 O   0  0  0  0  0  0  0  0  0  0  0  0
   52.3280   30.2610   52.3210 C   0  0  0  0  0  0  0  0  0  0  0  0
   52.3530   29.8640   50.9750 C   0  0  0  0  0  0  0  0  0  0  0  0
   51.7840   30.6760   49.9890 C   0  0  0  0  0  0  0  0  0  0  0  0
   51.2000   31.8980   50.3370 C   0  0  0  0  0  0  0  0  0  0  0  0
   50.6370   32.7010   49.3520 O   0  0  0  0  0  0  0  0  0  0  0  0
   51.1920   32.3130   51.6740 C   0  0  0  0  0  0  0  0  0  0  0  0
   50.6280   33.5340   52.0240 O   0  0  0  0  0  0  0  0  0  0  0  0
   51.7590   31.5000   52.6620 C   0  0  0  0  0  0  0  0  0  0  0  0
   57.8950   29.7510   52.9620 N   0  0  0  0  0  0  0  0  0  0  0  0
   58.2350   30.3260   51.6910 C   0  0  0  0  0  0  0  0  0  0  0  0
   58.3090   31.7190   51.5850 C   0  0  0  0  0  0  0  0  0  0  0  0
   58.6540   32.3180   50.3700 C   0  0  0  0  0  0  0  0  0  0  0  0
   58.9420   31.5280   49.2560 C   0  0  0  0  0  0  0  0  0  0  0  0
   58.8900   30.1320   49.3520 C   0  0  0  0  0  0  0  0  0  0  0  0
   59.2760   29.1420   47.9460 S   0  0  0  0  0  0  0  0  0  0  0  0
   58.1860   28.1290   47.7290 O   0  0  0  0  0  0  0  0  0  0  0  0
   60.5700   28.4250   48.2100 O   0  0  0  0  0  0  0  0  0  0  0  0
   59.4320   30.1720   46.5370 N   0  0  0  0  0  0  0  0  0  0  0  0
   58.1170   30.4770   45.9300 C   0  0  0  0  0  0  0  0  0  0  0  0
   57.8160   29.6120   44.6930 C   0  0  0  0  0  0  0  0  0  0  0  0
   58.3870   28.3330   44.8430 O   0  0  0  0  0  0  0  0  0  0  0  0
   59.8010   28.4160   44.7810 C   0  0  0  0  0  0  0  0  0  0  0  0
   60.3870   29.6170   45.5620 C   0  0  0  0  0  0  0  0  0  0  0  0
   58.5500   29.5310   50.5730 C   0  0  0  0  0  0  0  0  0  0  0  0
  1  2  2  0
  2  3  1  0
  3  4  1  0
  4  5  1  0
  5  6  2  0
  5  7  1  0
  7  8  2  0
  8  9  1  0
  9 10  2  0
 10 11  1  0
 10 12  1  0
 12 13  1  0
 12 14  2  0
  2 15  1  0
 15 16  1  0
 16 17  2  0
 17 18  1  0
 18 19  2  0
 19 20  1  0
 20 21  1  0
 21 22  2  0
 21 23  2  0
 21 24  1  0
 24 25  1  0
 25 26  1  0
 26 27  1  0
 27 28  1  0
 28 29  1  0
 20 30  2  0
 14  7  1  0
 30 16  1  0
 29 24  1  0
M  CHG  4   4  -1  11  -1  13  -1  15  -1
M  END
>  <UniqueID>  (1253) 
58

>  <SMILES>  (1253) 
O=C(C[N-]C(=O)c1ccc([O-])c([O-])c1)[N-]c1cccc(S(=O)(=O)N2CCOCC2)c1

>  <Energy>  (1253) 
65.54968586070459

>  <Genealogy>  (1253) 
O=C(C[N-]C(=O)c1ccc([O-])c([O-])c1)[N-]c1cccc(S(=O)(=O)N2CCOCC2)c1 (protonated)
O=C(C[N-]C(=O)c1ccc([O-])c([O-])c1)[N-]c1cccc(S(=O)(=O)N2CCOCC2)c1 (3D coordinates assigned)
O=C(C[N-]C(=O)c1ccc([O-])c([O-])c1)[N-]c1cccc(S(=O)(=O)N2CCOCC2)c1 (nonaromatic ring conformer: 65.54968586070459 kcal/mol)

>  <smiles>  (1253) 
O=C(CNC(=O)c1ccc(O)c(O)c1)Nc1cccc(S(=O)(=O)N2CCOCC2)c1

>  <score_type>  (1253) 
oracle

>  <origin>  (1253) 
adg

>  <m_score__min__energy>  (1253) 
-19.370000000000001

>  <m_primary>  (1253) 
energy

$$$$
68:0
     RDKit          3D

 28 31  0  0  0  0  0  0  0  0999 V2000
   55.5980   28.7700   44.8740 O   0  0  0  0  0  0  0  0  0  0  0  0
   56.6380   29.1790   45.4540 C   0  0  0  0  0  0  0  0  0  0  0  0
   57.3820   28.2320   46.3560 C   0  0  0  0  0  0  0  0  0  0  0  0
   57.2170   26.8580   45.8860 N   0  0  0  0  0  0  0  0  0  0  0  0
   56.0550   26.1770   45.7740 C   0  0  0  0  0  0  0  0  0  0  0  0
   54.8030   26.7130   46.0530 O   0  0  0  0  0  0  0  0  0  0  0  0
   56.2970   24.8810   45.3630 C   0  0  0  0  0  0  0  0  0  0  0  0
   57.6580   24.7580   45.2320 C   0  0  0  0  0  0  0  0  0  0  0  0
   58.1980   25.9840   45.5700 C   0  0  0  0  0  0  0  0  0  0  0  0
   59.5550   26.2840   45.6000 O   0  0  0  0  0  0  0  0  0  0  0  0
   58.3520   23.4870   44.8670 C   0  0  0  0  0  0  0  0  0  0  0  0
   57.3660   22.3950   44.5060 C   0  0  0  0  0  0  0  0  0  0  0  0
   56.0250   22.5150   44.6340 C   0  0  0  0  0  0  0  0  0  0  0  0
   55.3310   23.7610   45.1480 C   0  0  0  0  0  0  0  0  0  0  0  0
   57.0650   30.5290   45.2260 N   0  0  0  0  0  0  0  0  0  0  0  0
   58.3960   30.9530   44.8010 C   0  0  0  0  0  0  0  0  0  0  0  0
   58.8070   32.2210   45.5050 C   0  0  0  0  0  0  0  0  0  0  0  0
   58.0540   33.3930   45.3530 C   0  0  0  0  0  0  0  0  0  0  0  0
   58.4450   34.5510   46.0250 C   0  0  0  0  0  0  0  0  0  0  0  0
   59.5450   34.5390   46.8220 N   0  0  0  0  0  0  0  0  0  0  0  0
   60.3010   33.4200   47.0050 C   0  0  0  0  0  0  0  0  0  0  0  0
   61.4610   33.4760   47.8660 N   0  0  0  0  0  0  0  0  0  0  0  0
   62.6970   32.7590   47.5210 C   0  0  0  0  0  0  0  0  0  0  0  0
   63.9080   33.4440   48.1610 C   0  0  0  0  0  0  0  0  0  0  0  0
   63.6990   33.6490   49.5440 O   0  0  0  0  0  0  0  0  0  0  0  0
   62.6430   34.5690   49.7300 C   0  0  0  0  0  0  0  0  0  0  0  0
   61.3170   33.9830   49.2380 C   0  0  0  0  0  0  0  0  0  0  0  0
   59.9260   32.2300   46.3500 C   0  0  0  0  0  0  0  0  0  0  0  0
  1  2  2  0
  2  3  1  0
  3  4  1  0
  4  5  1  0
  5  6  1  0
  5  7  2  0
  7  8  1  0
  8  9  2  0
  9 10  1  0
  8 11  1  0
 11 12  1  0
 12 13  2  0
 13 14  1  0
  2 15  1  0
 15 16  1  0
 16 17  1  0
 17 18  2  0
 18 19  1  0
 19 20  2  0
 20 21  1  0
 21 22  1  0
 22 23  1  0
 23 24  1  0
 24 25  1  0
 25 26  1  0
 26 27  1  0
 21 28  2  0
  9  4  1  0
 28 17  1  0
 14  7  1  0
 27 22  1  0
M  CHG  3   6  -1  10  -1  15  -1
M  END
>  <UniqueID>  (1254) 
60

>  <SMILES>  (1254) 
O=C(Cn1c([O-])c2c(c1[O-])CC=CC2)[N-]Cc1ccnc(N2CCOCC2)c1

>  <Energy>  (1254) 
86.35648374455428

>  <Genealogy>  (1254) 
O=C(Cn1c([O-])c2c(c1[O-])CC=CC2)[N-]Cc1ccnc(N2CCOCC2)c1 (protonated)
O=C(Cn1c([O-])c2c(c1[O-])CC=CC2)[N-]Cc1ccnc(N2CCOCC2)c1 (3D coordinates assigned)
O=C(Cn1c([O-])c2c(c1[O-])CC=CC2)[N-]Cc1ccnc(N2CCOCC2)c1 (nonaromatic ring conformer: 86.35648374455428 kcal/mol)

>  <smiles>  (1254) 
O=C(Cn1c(O)c2c(c1O)CC=CC2)NCc1ccnc(N2CCOCC2)c1

>  <score_type>  (1254) 
oracle

>  <origin>  (1254) 
adg

>  <m_score__min__energy>  (1254) 
-15.380000000000001

>  <m_primary>  (1254) 
energy

$$$$
72:0
     RDKit          3D

 24 26  0  0  0  0  0  0  0  0999 V2000
   55.1710   29.3220   44.8640 N   0  0  0  0  0  0  0  0  0  0  0  0
   56.3960   29.6740   44.2270 C   0  0  0  0  0  0  0  0  0  0  0  0
   56.7050   29.1090   43.1430 O   0  0  0  0  0  0  0  0  0  0  0  0
   57.3260   30.6520   44.8460 C   0  0  0  0  0  0  0  0  0  0  0  0
   56.9990   32.0220   44.8120 C   0  0  0  0  0  0  0  0  0  0  0  0
   57.8760   32.9790   45.3260 C   0  0  0  0  0  0  0  0  0  0  0  0
   59.0990   32.5880   45.8680 C   0  0  0  0  0  0  0  0  0  0  0  0
   59.4370   31.2360   45.9200 C   0  0  0  0  0  0  0  0  0  0  0  0
   58.5500   30.2610   45.4450 C   0  0  0  0  0  0  0  0  0  0  0  0
   58.9070   28.8850   45.6170 N   0  0  0  0  0  0  0  0  0  0  0  0
   58.7130   28.1270   46.8180 C   0  0  0  0  0  0  0  0  0  0  0  0
   59.6690   28.0330   47.6320 O   0  0  0  0  0  0  0  0  0  0  0  0
   57.4080   27.4460   47.1450 C   0  0  0  0  0  0  0  0  0  0  0  0
   57.1840   26.2750   46.2930 N   0  0  0  0  0  0  0  0  0  0  0  0
   55.9950   25.8540   45.8040 C   0  0  0  0  0  0  0  0  0  0  0  0
   54.7830   26.5030   46.0160 O   0  0  0  0  0  0  0  0  0  0  0  0
   56.1570   24.6950   45.0720 C   0  0  0  0  0  0  0  0  0  0  0  0
   57.4960   24.4070   45.0880 C   0  0  0  0  0  0  0  0  0  0  0  0
   58.1080   25.3990   45.8280 C   0  0  0  0  0  0  0  0  0  0  0  0
   59.4800   25.4890   46.0520 O   0  0  0  0  0  0  0  0  0  0  0  0
   58.1080   23.2450   44.3760 C   0  0  0  0  0  0  0  0  0  0  0  0
   57.0490   22.3000   43.8430 C   0  0  0  0  0  0  0  0  0  0  0  0
   55.7260   22.5810   43.8360 C   0  0  0  0  0  0  0  0  0  0  0  0
   55.1320   23.8710   44.3650 C   0  0  0  0  0  0  0  0  0  0  0  0
  1  2  1  0
  2  3  2  0
  2  4  1  0
  4  5  2  0
  5  6  1  0
  6  7  2  0
  7  8  1  0
  8  9  2  0
  9 10  1  0
 10 11  1  0
 11 12  2  0
 11 13  1  0
 13 14  1  0
 14 15  1  0
 15 16  1  0
 15 17  2  0
 17 18  1  0
 18 19  2  0
 19 20  1  0
 18 21  1  0
 21 22  1  0
 22 23  2  0
 23 24  1  0
  9  4  1  0
 19 14  1  0
 24 17  1  0
M  CHG  3   1  -1  10  -1  16  -1
M  END
>  <UniqueID>  (1255) 
64

>  <SMILES>  (1255) 
[NH-]C(=O)c1ccccc1[N-]C(=O)Cn1c([O-])c2c(c1O)CC=CC2

>  <Energy>  (1255) 
78.0648207209724

>  <Genealogy>  (1255) 
[NH-]C(=O)c1ccccc1[N-]C(=O)Cn1c([O-])c2c(c1O)CC=CC2 (protonated)
[NH-]C(=O)c1ccccc1[N-]C(=O)Cn1c([O-])c2c(c1O)CC=CC2 (3D coordinates assigned)
[NH-]C(=O)c1ccccc1[N-]C(=O)Cn1c([O-])c2c(c1O)CC=CC2 (nonaromatic ring conformer: 78.0648207209724 kcal/mol)

>  <smiles>  (1255) 
NC(=O)c1ccccc1NC(=O)Cn1c(O)c2c(c1O)CC=CC2

>  <score_type>  (1255) 
oracle

>  <origin>  (1255) 
adg

>  <m_score__min__energy>  (1255) 
-14.48

>  <m_primary>  (1255) 
energy

$$$$
78:0
     RDKit          3D

 26 28  0  0  0  0  0  0  0  0999 V2000
   58.5540   27.5620   47.4280 C   0  0  0  0  0  0  0  0  0  0  0  0
   58.3420   27.6880   46.1090 C   0  0  0  0  0  0  0  0  0  0  0  0
   57.9670   26.6880   45.1930 C   0  0  0  0  0  0  0  0  0  0  0  0
   57.5850   25.4080   45.3830 C   0  0  0  0  0  0  0  0  0  0  0  0
   56.1990   24.9090   45.3100 C   0  0  0  0  0  0  0  0  0  0  0  0
   55.1270   25.7510   45.6360 C   0  0  0  0  0  0  0  0  0  0  0  0
   55.3490   27.0790   45.9830 O   0  0  0  0  0  0  0  0  0  0  0  0
   53.8550   25.2730   45.6050 N   0  0  0  0  0  0  0  0  0  0  0  0
   53.6000   23.9810   45.2760 C   0  0  0  0  0  0  0  0  0  0  0  0
   52.0620   23.4370   45.2440 S   0  0  0  0  0  0  0  0  0  0  0  0
   54.6240   23.1380   44.9840 N   0  0  0  0  0  0  0  0  0  0  0  0
   55.9120   23.5670   45.0020 C   0  0  0  0  0  0  0  0  0  0  0  0
   56.8390   22.7530   44.7450 O   0  0  0  0  0  0  0  0  0  0  0  0
   58.0590   27.3110   43.9510 C   0  0  0  0  0  0  0  0  0  0  0  0
   57.7720   26.7020   42.6120 C   0  0  0  0  0  0  0  0  0  0  0  0
   58.4170   28.5950   44.1230 N   0  0  0  0  0  0  0  0  0  0  0  0
   58.5770   28.8310   45.4140 N   0  0  0  0  0  0  0  0  0  0  0  0
   59.0280   30.1250   45.9400 C   0  0  0  0  0  0  0  0  0  0  0  0
   58.3590   31.2660   45.2200 C   0  0  0  0  0  0  0  0  0  0  0  0
   57.5320   31.0130   44.3010 O   0  0  0  0  0  0  0  0  0  0  0  0
   58.6240   32.6380   45.5820 N   0  0  0  0  0  0  0  0  0  0  0  0
   58.2050   33.7100   44.6720 C   0  0  0  0  0  0  0  0  0  0  0  0
   59.0530   34.9630   44.9070 C   0  0  0  0  0  0  0  0  0  0  0  0
   59.0510   35.3200   46.2760 O   0  0  0  0  0  0  0  0  0  0  0  0
   59.6970   34.3130   47.0290 C   0  0  0  0  0  0  0  0  0  0  0  0
   58.9050   33.0020   46.9780 C   0  0  0  0  0  0  0  0  0  0  0  0
  1  2  2  0
  2  3  1  0
  3  4  2  0
  4  5  1  0
  5  6  2  0
  6  7  1  0
  6  8  1  0
  8  9  1  0
  9 10  2  0
  9 11  1  0
 11 12  1  0
 12 13  2  0
  3 14  1  0
 14 15  1  0
 14 16  2  0
 16 17  1  0
 17 18  1  0
 18 19  1  0
 19 20  2  0
 19 21  1  0
 21 22  1  0
 22 23  1  0
 23 24  1  0
 24 25  1  0
 25 26  1  0
 17  2  1  0
 26 21  1  0
 12  5  1  0
M  CHG  4   7  -1   8  -1  11  -1  16   1
M  END
>  <UniqueID>  (1256) 
70

>  <SMILES>  (1256) 
C=c1/c(=C\c2c([O-])[n-]c(=S)[n-]c2=O)c(C)[nH+]n1CC(=O)N1CCOCC1

>  <Energy>  (1256) 
92.61750866537508

>  <Genealogy>  (1256) 
C=c1c(=Cc2c([O-])[n-]c(=S)[n-]c2=O)c(C)[nH+]n1CC(=O)N1CCOCC1 (protonated)
C=c1/c(=C\c2c([O-])[n-]c(=S)[n-]c2=O)c(C)[nH+]n1CC(=O)N1CCOCC1 (cis-trans isomerization)
C=c1/c(=C\c2c([O-])[n-]c(=S)[n-]c2=O)c(C)[nH+]n1CC(=O)N1CCOCC1 (3D coordinates assigned)
C=c1/c(=C\c2c([O-])[n-]c(=S)[n-]c2=O)c(C)[nH+]n1CC(=O)N1CCOCC1 (nonaromatic ring conformer: 92.61750866537508 kcal/mol)

>  <smiles>  (1256) 
C=c1c(=Cc2c(O)[nH]c(=S)[nH]c2=O)c(C)nn1CC(=O)N1CCOCC1

>  <score_type>  (1256) 
oracle

>  <origin>  (1256) 
adg

>  <m_score__min__energy>  (1256) 
-14.51

>  <m_primary>  (1256) 
energy

$$$$
80:0
     RDKit          3D

 26 28  0  0  0  0  0  0  0  0999 V2000
   57.3340   30.3230   43.7980 C   0  0  0  0  0  0  0  0  0  0  0  0
   57.9610   31.3760   44.2420 N   0  0  0  0  0  0  0  0  0  0  0  0
   58.1410   31.7760   45.6100 C   0  0  0  0  0  0  0  0  0  0  0  0
   57.7840   31.0240   46.5580 O   0  0  0  0  0  0  0  0  0  0  0  0
   58.7010   33.1090   45.8870 C   0  0  0  0  0  0  0  0  0  0  0  0
   59.0990   33.4800   47.1110 C   0  0  0  0  0  0  0  0  0  0  0  0
   60.5260   33.5940   47.4920 C   0  0  0  0  0  0  0  0  0  0  0  0
   61.4980   33.4370   46.4890 C   0  0  0  0  0  0  0  0  0  0  0  0
   62.8580   33.5350   46.7970 C   0  0  0  0  0  0  0  0  0  0  0  0
   63.2610   33.8070   48.1050 C   0  0  0  0  0  0  0  0  0  0  0  0
   62.3070   33.9920   49.1070 C   0  0  0  0  0  0  0  0  0  0  0  0
   60.9430   33.9020   48.8070 C   0  0  0  0  0  0  0  0  0  0  0  0
   60.0170   34.1500   49.8150 O   0  0  0  0  0  0  0  0  0  0  0  0
   57.2420   29.0420   44.5330 C   0  0  0  0  0  0  0  0  0  0  0  0
   55.9920   28.5900   44.9860 C   0  0  0  0  0  0  0  0  0  0  0  0
   54.8490   29.3560   44.7830 O   0  0  0  0  0  0  0  0  0  0  0  0
   55.8880   27.4030   45.6370 N   0  0  0  0  0  0  0  0  0  0  0  0
   56.9650   26.6080   45.8640 C   0  0  0  0  0  0  0  0  0  0  0  0
   56.8050   25.3950   46.5440 C   0  0  0  0  0  0  0  0  0  0  0  0
   57.9080   24.5680   46.7740 C   0  0  0  0  0  0  0  0  0  0  0  0
   57.7450   23.3650   47.4510 O   0  0  0  0  0  0  0  0  0  0  0  0
   59.1750   24.9480   46.3240 C   0  0  0  0  0  0  0  0  0  0  0  0
   59.3470   26.1570   45.6420 C   0  0  0  0  0  0  0  0  0  0  0  0
   58.2440   27.0000   45.4070 C   0  0  0  0  0  0  0  0  0  0  0  0
   58.3730   28.2240   44.7230 C   0  0  0  0  0  0  0  0  0  0  0  0
   59.4960   28.5850   44.2700 O   0  0  0  0  0  0  0  0  0  0  0  0
  1  2  2  0
  2  3  1  0
  3  4  2  0
  3  5  1  0
  5  6  2  0
  6  7  1  0
  7  8  2  0
  8  9  1  0
  9 10  2  0
 10 11  1  0
 11 12  2  0
 12 13  1  0
  1 14  1  0
 14 15  2  0
 15 16  1  0
 15 17  1  0
 17 18  1  0
 18 19  2  0
 19 20  1  0
 20 21  1  0
 20 22  2  0
 22 23  1  0
 23 24  2  0
 24 25  1  0
 25 26  2  0
 12  7  1  0
 25 14  1  0
 24 18  1  0
M  CHG  4  13  -1  16  -1  17  -1  21  -1
M  END
>  <UniqueID>  (1257) 
72

>  <SMILES>  (1257) 
O=C(/C=C/c1ccccc1[O-])/N=C\c1c([O-])[n-]c2cc([O-])ccc2c1=O

>  <Energy>  (1257) 
58.79981812186359

>  <Genealogy>  (1257) 
O=C(C=Cc1ccccc1[O-])N=Cc1c([O-])[n-]c2cc([O-])ccc2c1=O (protonated)
O=C(/C=C/c1ccccc1[O-])/N=C\c1c([O-])[n-]c2cc([O-])ccc2c1=O (cis-trans isomerization)
O=C(/C=C/c1ccccc1[O-])/N=C\c1c([O-])[n-]c2cc([O-])ccc2c1=O (3D coordinates assigned)
O=C(/C=C/c1ccccc1[O-])/N=C\c1c([O-])[n-]c2cc([O-])ccc2c1=O (optimized conformer: 58.79981812186359 kcal/mol)

>  <smiles>  (1257) 
O=C(C=Cc1ccccc1O)N=Cc1c(O)[nH]c2cc(O)ccc2c1=O

>  <score_type>  (1257) 
oracle

>  <origin>  (1257) 
adg

>  <m_score__min__energy>  (1257) 
-15.9

>  <m_primary>  (1257) 
energy

$$$$
88:0
     RDKit          3D

 30 33  0  0  0  0  0  0  0  0999 V2000
   58.0310   25.3410   47.3160 C   0  0  0  0  0  0  0  0  0  0  0  0
   58.1320   26.1440   46.2460 C   0  0  0  0  0  0  0  0  0  0  0  0
   57.7280   25.8560   44.9320 C   0  0  0  0  0  0  0  0  0  0  0  0
   56.9360   24.8850   44.4330 C   0  0  0  0  0  0  0  0  0  0  0  0
   55.5590   24.5790   44.8680 C   0  0  0  0  0  0  0  0  0  0  0  0
   54.9680   23.3740   44.7680 N   0  0  0  0  0  0  0  0  0  0  0  0
   53.7980   23.5420   45.4230 C   0  0  0  0  0  0  0  0  0  0  0  0
   52.9420   22.6250   45.5310 O   0  0  0  0  0  0  0  0  0  0  0  0
   53.6260   24.7630   45.9710 N   0  0  0  0  0  0  0  0  0  0  0  0
   54.7560   25.4010   45.6210 C   0  0  0  0  0  0  0  0  0  0  0  0
   55.0470   26.7130   45.9790 O   0  0  0  0  0  0  0  0  0  0  0  0
   58.2950   26.8370   44.1320 C   0  0  0  0  0  0  0  0  0  0  0  0
   58.9360   27.7200   44.9740 C   0  0  0  0  0  0  0  0  0  0  0  0
   59.6650   28.9510   44.5220 C   0  0  0  0  0  0  0  0  0  0  0  0
   58.8360   27.3060   46.2570 N   0  0  0  0  0  0  0  0  0  0  0  0
   59.3550   27.9960   47.4080 C   0  0  0  0  0  0  0  0  0  0  0  0
   60.1690   27.3130   48.3180 C   0  0  0  0  0  0  0  0  0  0  0  0
   60.6710   27.9710   49.4380 C   0  0  0  0  0  0  0  0  0  0  0  0
   60.3650   29.3150   49.6600 C   0  0  0  0  0  0  0  0  0  0  0  0
   59.5370   30.0300   48.7670 C   0  0  0  0  0  0  0  0  0  0  0  0
   59.1630   31.4720   48.9670 C   0  0  0  0  0  0  0  0  0  0  0  0
   58.7720   31.8220   50.1180 O   0  0  0  0  0  0  0  0  0  0  0  0
   59.2480   32.4980   47.9370 N   0  0  1  0  0  0  0  0  0  0  0  0
   59.2860   33.8490   48.5410 C   0  0  0  0  0  0  0  0  0  0  0  0
   59.2660   34.9750   47.4790 C   0  0  0  0  0  0  0  0  0  0  0  0
   60.0380   34.6280   46.1820 C   0  0  2  0  0  0  0  0  0  0  0  0
   59.0830   34.3200   45.0180 C   0  0  0  0  0  0  0  0  0  0  0  0
   61.0260   33.4770   46.4200 C   0  0  0  0  0  0  0  0  0  0  0  0
   60.3070   32.2120   46.9280 C   0  0  0  0  0  0  0  0  0  0  0  0
   59.0390   29.3460   47.6350 C   0  0  0  0  0  0  0  0  0  0  0  0
  1  2  2  0
  2  3  1  0
  3  4  2  3
  4  5  1  0
  5  6  1  0
  6  7  1  0
  7  8  2  0
  7  9  1  0
  9 10  1  0
 10 11  1  0
  3 12  1  0
 12 13  2  0
 13 14  1  0
 13 15  1  0
 15 16  1  0
 16 17  2  0
 17 18  1  0
 18 19  2  0
 19 20  1  0
 20 21  1  0
 21 22  2  0
 23 21  1  1
 23 24  1  0
 24 25  1  0
 25 26  1  0
 26 27  1  6
 26 28  1  0
 28 29  1  0
 20 30  2  0
 15  2  1  0
 30 16  1  0
 10  5  2  0
 29 23  1  0
M  CHG  4   6  -1   9  -1  11  -1  23   1
M  END
>  <UniqueID>  (1258) 
79

>  <SMILES>  (1258) 
C=c1c(=Cc2[n-]c(=O)[n-]c2[O-])cc(C)n1-c1cccc(C(=O)[NH+]2CCC(C)CC2)c1

>  <Energy>  (1258) 
147.32004262554386

>  <Genealogy>  (1258) 
C=c1c(=Cc2[n-]c(=O)[n-]c2[O-])cc(C)n1-c1cccc(C(=O)[NH+]2CCC(C)CC2)c1 (protonated)
C=c1c(=Cc2[n-]c(=O)[n-]c2[O-])cc(C)n1-c1cccc(C(=O)[NH+]2CCC(C)CC2)c1 (3D coordinates assigned)
C=c1c(=Cc2[n-]c(=O)[n-]c2[O-])cc(C)n1-c1cccc(C(=O)[NH+]2CCC(C)CC2)c1 (nonaromatic ring conformer: 147.32004262554386 kcal/mol)

>  <smiles>  (1258) 
C=c1c(=Cc2[nH]c(=O)[nH]c2O)cc(C)n1-c1cccc(C(=O)N2CCC(C)CC2)c1

>  <score_type>  (1258) 
oracle

>  <origin>  (1258) 
adg

>  <m_score__min__energy>  (1258) 
-16.199999999999999

>  <m_primary>  (1258) 
energy

$$$$
2:0
     RDKit          3D

 26 28  0  0  0  0  0  0  0  0999 V2000
   55.2290   29.3790   44.9180 N   0  0  0  0  0  0  0  0  0  0  0  0
   56.5720   29.5570   44.4700 C   0  0  0  0  0  0  0  0  0  0  0  0
   56.9260   29.0310   43.3810 O   0  0  0  0  0  0  0  0  0  0  0  0
   57.5410   30.3510   45.2760 C   0  0  0  0  0  0  0  0  0  0  0  0
   58.6480   29.7320   45.9050 C   0  0  0  0  0  0  0  0  0  0  0  0
   58.8390   28.3150   45.8000 N   0  0  0  0  0  0  0  0  0  0  0  0
   59.1320   27.4340   46.8900 C   0  0  0  0  0  0  0  0  0  0  0  0
   59.2920   27.8800   48.0590 O   0  0  0  0  0  0  0  0  0  0  0  0
   59.2950   25.9720   46.6260 C   0  0  0  0  0  0  0  0  0  0  0  0
   57.9790   25.3740   46.2130 C   0  0  0  0  0  0  0  0  0  0  0  0
   57.9050   24.0270   45.8170 C   0  0  0  0  0  0  0  0  0  0  0  0
   56.6750   23.4610   45.4690 C   0  0  0  0  0  0  0  0  0  0  0  0
   55.5100   24.2310   45.5210 C   0  0  0  0  0  0  0  0  0  0  0  0
   55.5720   25.5680   45.9270 C   0  0  0  0  0  0  0  0  0  0  0  0
   54.4120   26.3300   45.9860 O   0  0  0  0  0  0  0  0  0  0  0  0
   56.8020   26.1370   46.2770 C   0  0  0  0  0  0  0  0  0  0  0  0
   59.5090   30.4580   46.6130 O   0  0  0  0  0  0  0  0  0  0  0  0
   59.3940   31.7680   46.7790 C   0  0  0  0  0  0  0  0  0  0  0  0
   60.3460   32.4540   47.5420 C   0  0  0  0  0  0  0  0  0  0  0  0
   60.2360   33.8360   47.7250 C   0  0  0  0  0  0  0  0  0  0  0  0
   61.1840   34.5130   48.4820 O   0  0  0  0  0  0  0  0  0  0  0  0
   59.1740   34.5370   47.1470 C   0  0  0  0  0  0  0  0  0  0  0  0
   58.2180   33.8600   46.3830 C   0  0  0  0  0  0  0  0  0  0  0  0
   58.3200   32.4690   46.1930 C   0  0  0  0  0  0  0  0  0  0  0  0
   57.3880   31.7460   45.4310 C   0  0  0  0  0  0  0  0  0  0  0  0
   56.4300   32.3490   44.8730 O   0  0  0  0  0  0  0  0  0  0  0  0
  1  2  1  0
  2  3  2  0
  2  4  1  0
  4  5  2  0
  5  6  1  0
  6  7  1  0
  7  8  2  0
  7  9  1  0
  9 10  1  0
 10 11  2  0
 11 12  1  0
 12 13  2  0
 13 14  1  0
 14 15  1  0
 14 16  2  0
  5 17  1  0
 17 18  1  0
 18 19  2  0
 19 20  1  0
 20 21  1  0
 20 22  2  0
 22 23  1  0
 23 24  2  0
 24 25  1  0
 25 26  2  0
 25  4  1  0
 16 10  1  0
 24 18  1  0
M  CHG  4   1  -1   6  -1  15  -1  21  -1
M  END
>  <UniqueID>  (1259) 
3

>  <SMILES>  (1259) 
[NH-]C(=O)c1c([N-]C(=O)Cc2cccc([O-])c2)oc2cc([O-])ccc2c1=O

>  <Energy>  (1259) 
46.49859843155771

>  <Genealogy>  (1259) 
[NH-]C(=O)c1c([N-]C(=O)Cc2cccc([O-])c2)oc2cc([O-])ccc2c1=O (protonated)
[NH-]C(=O)c1c([N-]C(=O)Cc2cccc([O-])c2)oc2cc([O-])ccc2c1=O (3D coordinates assigned)
[NH-]C(=O)c1c([N-]C(=O)Cc2cccc([O-])c2)oc2cc([O-])ccc2c1=O (optimized conformer: 46.49859843155771 kcal/mol)

>  <smiles>  (1259) 
NC(=O)c1c(NC(=O)Cc2cccc(O)c2)oc2cc(O)ccc2c1=O

>  <score_type>  (1259) 
oracle

>  <origin>  (1259) 
adg

>  <m_score__min__energy>  (1259) 
-16.530000000000001

>  <m_primary>  (1259) 
energy

$$$$
5:0
     RDKit          3D

 31 34  0  0  0  0  0  0  0  0999 V2000
   58.5050   32.3100   43.7230 O   0  0  0  0  0  0  0  0  0  0  0  0
   57.6210   32.4160   44.6160 C   0  0  0  0  0  0  0  0  0  0  0  0
   57.6100   33.6590   45.4670 C   0  0  0  0  0  0  0  0  0  0  0  0
   58.7480   33.6420   46.4390 C   0  0  0  0  0  0  0  0  0  0  0  0
   58.5000   33.5590   47.7750 N   0  0  0  0  0  0  0  0  0  0  0  0
   59.5080   33.5550   48.6850 C   0  0  0  0  0  0  0  0  0  0  0  0
   59.2310   33.4780   49.9120 O   0  0  0  0  0  0  0  0  0  0  0  0
   60.8400   33.6380   48.2470 C   0  0  0  0  0  0  0  0  0  0  0  0
   61.9290   33.6410   49.1380 C   0  0  0  0  0  0  0  0  0  0  0  0
   63.2350   33.7290   48.6440 C   0  0  0  0  0  0  0  0  0  0  0  0
   63.4640   33.8120   47.2670 C   0  0  0  0  0  0  0  0  0  0  0  0
   62.3870   33.8080   46.3750 C   0  0  0  0  0  0  0  0  0  0  0  0
   61.0770   33.7200   46.8580 C   0  0  0  0  0  0  0  0  0  0  0  0
   60.0290   33.7190   45.9930 N   0  0  0  0  0  0  0  0  0  0  0  0
   56.7290   31.3060   44.8250 N   0  0  0  0  0  0  0  0  0  0  0  0
   57.0240   30.0420   44.9050 C   0  0  0  0  0  0  0  0  0  0  0  0
   56.3120   29.1280   45.5950 N   0  0  0  0  0  0  0  0  0  0  0  0
   56.8360   27.8790   45.4720 C   0  0  0  0  0  0  0  0  0  0  0  0
   56.2380   26.7330   46.1820 C   0  0  0  0  0  0  0  0  0  0  0  0
   56.9360   26.1230   47.0330 O   0  0  0  0  0  0  0  0  0  0  0  0
   54.8810   26.3150   45.9850 N   0  0  0  0  0  0  0  0  0  0  0  0
   54.4580   25.0250   45.4540 C   0  0  0  0  0  0  0  0  0  0  0  0
   55.6090   24.0640   45.5150 C   0  0  0  0  0  0  0  0  0  0  0  0
   55.8850   23.3700   46.7050 C   0  0  0  0  0  0  0  0  0  0  0  0
   56.9780   22.5000   46.7760 C   0  0  0  0  0  0  0  0  0  0  0  0
   57.8130   22.3260   45.6630 C   0  0  0  0  0  0  0  0  0  0  0  0
   58.9040   21.4620   45.7230 O   0  0  0  0  0  0  0  0  0  0  0  0
   57.5500   23.0280   44.4820 C   0  0  0  0  0  0  0  0  0  0  0  0
   56.4580   23.8980   44.4080 C   0  0  0  0  0  0  0  0  0  0  0  0
   57.9910   27.8060   44.6890 C   0  0  0  0  0  0  0  0  0  0  0  0
   58.3330   29.3510   44.1180 S   0  0  0  0  0  0  0  0  0  0  0  0
  1  2  2  0
  2  3  1  0
  3  4  1  0
  4  5  2  0
  5  6  1  0
  6  7  2  0
  6  8  1  0
  8  9  2  0
  9 10  1  0
 10 11  2  0
 11 12  1  0
 12 13  2  0
 13 14  1  0
  2 15  1  0
 15 16  2  3
 16 17  1  0
 17 18  1  0
 18 19  1  0
 19 20  2  0
 19 21  1  0
 21 22  1  0
 22 23  1  0
 23 24  2  0
 24 25  1  0
 25 26  2  0
 26 27  1  0
 26 28  1  0
 28 29  2  0
 18 30  2  0
 30 31  1  0
 14  4  1  0
 31 16  1  0
 13  8  1  0
 29 23  1  0
M  CHG  3  14  -1  17  -1  21  -1
M  END
>  <UniqueID>  (1260) 
6

>  <SMILES>  (1260) 
O=C(Cc1nc(=O)c2ccccc2[n-]1)N=c1[n-]c(C(=O)[N-]Cc2ccc(O)cc2)cs1

>  <Energy>  (1260) 
87.25450981996082

>  <Genealogy>  (1260) 
O=C(Cc1nc(=O)c2ccccc2[n-]1)N=c1[n-]c(C(=O)[N-]Cc2ccc(O)cc2)cs1 (protonated)
O=C(Cc1nc(=O)c2ccccc2[n-]1)N=c1[n-]c(C(=O)[N-]Cc2ccc(O)cc2)cs1 (3D coordinates assigned)
O=C(Cc1nc(=O)c2ccccc2[n-]1)N=c1[n-]c(C(=O)[N-]Cc2ccc(O)cc2)cs1 (optimized conformer: 87.25450981996082 kcal/mol)

>  <smiles>  (1260) 
O=C(Cc1nc(=O)c2ccccc2[nH]1)N=c1[nH]c(C(=O)NCc2ccc(O)cc2)cs1

>  <score_type>  (1260) 
oracle

>  <origin>  (1260) 
adg

>  <m_score__min__energy>  (1260) 
-14.58

>  <m_primary>  (1260) 
energy

$$$$
17:0
     RDKit          3D

 33 36  0  0  0  0  0  0  0  0999 V2000
   57.7780   24.9240   47.5620 C   0  0  0  0  0  0  0  0  0  0  0  0
   57.9960   25.4530   46.3480 C   0  0  0  0  0  0  0  0  0  0  0  0
   57.3360   25.1070   45.1570 C   0  0  0  0  0  0  0  0  0  0  0  0
   56.5160   24.0780   44.8670 C   0  0  0  0  0  0  0  0  0  0  0  0
   55.0480   24.1040   44.9440 C   0  0  0  0  0  0  0  0  0  0  0  0
   54.2690   23.0440   44.6670 N   0  0  0  0  0  0  0  0  0  0  0  0
   53.0290   23.4760   44.9840 C   0  0  0  0  0  0  0  0  0  0  0  0
   52.0050   22.7570   44.8430 O   0  0  0  0  0  0  0  0  0  0  0  0
   52.9730   24.7330   45.4740 N   0  0  0  0  0  0  0  0  0  0  0  0
   54.2610   25.1120   45.4580 C   0  0  0  0  0  0  0  0  0  0  0  0
   54.7140   26.3420   45.9240 O   0  0  0  0  0  0  0  0  0  0  0  0
   57.7180   26.0430   44.2140 C   0  0  0  0  0  0  0  0  0  0  0  0
   58.6360   26.8730   44.8220 C   0  0  0  0  0  0  0  0  0  0  0  0
   59.3710   27.9730   44.1180 C   0  0  0  0  0  0  0  0  0  0  0  0
   58.8150   26.5180   46.1180 N   0  0  0  0  0  0  0  0  0  0  0  0
   59.7790   27.1400   47.0410 C   0  0  0  0  0  0  0  0  0  0  0  0
   59.6780   28.6430   46.9710 C   0  0  0  0  0  0  0  0  0  0  0  0
   58.4840   29.2910   47.3220 C   0  0  0  0  0  0  0  0  0  0  0  0
   58.3970   30.6850   47.2860 C   0  0  0  0  0  0  0  0  0  0  0  0
   59.5020   31.4540   46.8790 C   0  0  0  0  0  0  0  0  0  0  0  0
   59.4660   32.8880   46.8580 N   0  0  0  0  0  0  0  0  0  0  0  0
   58.4980   33.7070   46.1910 C   0  0  0  0  0  0  0  0  0  0  0  0
   58.7990   34.8600   45.7800 O   0  0  0  0  0  0  0  0  0  0  0  0
   57.1100   33.1880   45.9900 C   0  0  0  0  0  0  0  0  0  0  0  0
   57.0760   32.2660   44.8060 C   0  0  0  0  0  0  0  0  0  0  0  0
   56.2960   31.1510   44.8540 N   0  0  0  0  0  0  0  0  0  0  0  0
   56.1980   30.2950   43.8000 C   0  0  0  0  0  0  0  0  0  0  0  0
   56.9020   30.5550   42.6230 C   0  0  0  0  0  0  0  0  0  0  0  0
   57.6990   31.6970   42.5410 C   0  0  0  0  0  0  0  0  0  0  0  0
   57.7890   32.5640   43.6320 C   0  0  0  0  0  0  0  0  0  0  0  0
   58.5560   33.6790   43.5450 F   0  0  0  0  0  0  0  0  0  0  0  0
   60.6990   30.8070   46.5460 C   0  0  0  0  0  0  0  0  0  0  0  0
   60.7850   29.4130   46.5820 C   0  0  0  0  0  0  0  0  0  0  0  0
  1  2  2  0
  2  3  1  0
  3  4  2  3
  4  5  1  0
  5  6  1  0
  6  7  1  0
  7  8  2  0
  7  9  1  0
  9 10  1  0
 10 11  1  0
  3 12  1  0
 12 13  2  0
 13 14  1  0
 13 15  1  0
 15 16  1  0
 16 17  1  0
 17 18  2  0
 18 19  1  0
 19 20  2  0
 20 21  1  0
 21 22  1  0
 22 23  2  0
 22 24  1  0
 24 25  1  0
 25 26  2  0
 26 27  1  0
 27 28  2  0
 28 29  1  0
 29 30  2  0
 30 31  1  0
 20 32  1  0
 32 33  2  0
 15  2  1  0
 33 17  1  0
 10  5  2  0
 30 25  1  0
M  CHG  3   6  -1   9  -1  21  -1
M  END
>  <UniqueID>  (1261) 
17

>  <SMILES>  (1261) 
C=c1c(=Cc2[n-]c(=O)[n-]c2O)cc(C)n1Cc1ccc([N-]C(=O)Cc2ncccc2F)cc1

>  <Energy>  (1261) 
126.5987156192748

>  <Genealogy>  (1261) 
C=c1c(=Cc2[n-]c(=O)[n-]c2O)cc(C)n1Cc1ccc([N-]C(=O)Cc2ncccc2F)cc1 (protonated)
C=c1c(=Cc2[n-]c(=O)[n-]c2O)cc(C)n1Cc1ccc([N-]C(=O)Cc2ncccc2F)cc1 (3D coordinates assigned)
C=c1c(=Cc2[n-]c(=O)[n-]c2O)cc(C)n1Cc1ccc([N-]C(=O)Cc2ncccc2F)cc1 (optimized conformer: 126.5987156192748 kcal/mol)

>  <smiles>  (1261) 
C=c1c(=Cc2[nH]c(=O)[nH]c2O)cc(C)n1Cc1ccc(NC(=O)Cc2ncccc2F)cc1

>  <score_type>  (1261) 
oracle

>  <origin>  (1261) 
adg

>  <m_score__min__energy>  (1261) 
-14.710000000000001

>  <m_primary>  (1261) 
energy

$$$$
18:0
     RDKit          3D

 30 33  0  0  0  0  0  0  0  0999 V2000
   59.1260   28.6930   44.5450 C   0  0  0  0  0  0  0  0  0  0  0  0
   59.0230   28.6240   45.8850 C   0  0  0  0  0  0  0  0  0  0  0  0
   58.5400   27.5250   46.6140 C   0  0  0  0  0  0  0  0  0  0  0  0
   58.1330   26.3350   46.1140 C   0  0  0  0  0  0  0  0  0  0  0  0
   56.7620   25.7780   46.2040 C   0  0  0  0  0  0  0  0  0  0  0  0
   56.4410   24.4930   46.4460 N   0  0  0  0  0  0  0  0  0  0  0  0
   55.1010   24.4650   46.2870 C   0  0  0  0  0  0  0  0  0  0  0  0
   54.4310   23.4040   46.3820 O   0  0  0  0  0  0  0  0  0  0  0  0
   54.5450   25.6490   45.9540 N   0  0  0  0  0  0  0  0  0  0  0  0
   55.6090   26.4690   45.9090 C   0  0  0  0  0  0  0  0  0  0  0  0
   55.5290   27.8250   45.6140 O   0  0  0  0  0  0  0  0  0  0  0  0
   58.5890   27.8980   47.9500 C   0  0  0  0  0  0  0  0  0  0  0  0
   59.0970   29.1770   47.9900 C   0  0  0  0  0  0  0  0  0  0  0  0
   59.4130   29.9020   49.2650 C   0  0  0  0  0  0  0  0  0  0  0  0
   59.3820   29.6240   46.7400 N   0  0  0  0  0  0  0  0  0  0  0  0
   60.0980   30.8780   46.4250 C   0  0  0  0  0  0  0  0  0  0  0  0
   59.1390   32.0110   46.1110 C   0  0  0  0  0  0  0  0  0  0  0  0
   58.3200   31.9150   44.9680 C   0  0  0  0  0  0  0  0  0  0  0  0
   57.4280   32.9380   44.6410 C   0  0  0  0  0  0  0  0  0  0  0  0
   57.3770   34.0970   45.4130 C   0  0  0  0  0  0  0  0  0  0  0  0
   58.2180   34.2350   46.5190 C   0  0  0  0  0  0  0  0  0  0  0  0
   59.0970   33.2020   46.8840 C   0  0  0  0  0  0  0  0  0  0  0  0
   59.9530   33.4250   48.0700 C   0  0  0  0  0  0  0  0  0  0  0  0
   59.3990   33.8090   49.1400 O   0  0  0  0  0  0  0  0  0  0  0  0
   61.3840   33.1590   48.0100 N   0  0  0  0  0  0  0  0  0  0  0  0
   61.9960   33.6040   46.7360 C   0  0  0  0  0  0  0  0  0  0  0  0
   63.5370   33.5180   46.7920 C   0  0  0  0  0  0  0  0  0  0  0  0
   63.9720   32.7990   47.9280 O   0  0  0  0  0  0  0  0  0  0  0  0
   63.5980   33.4930   49.1060 C   0  0  0  0  0  0  0  0  0  0  0  0
   62.0810   33.7960   49.1480 C   0  0  0  0  0  0  0  0  0  0  0  0
  1  2  2  0
  2  3  1  0
  3  4  2  3
  4  5  1  0
  5  6  1  0
  6  7  1  0
  7  8  2  0
  7  9  1  0
  9 10  1  0
 10 11  1  0
  3 12  1  0
 12 13  2  0
 13 14  1  0
 13 15  1  0
 15 16  1  0
 16 17  1  0
 17 18  2  0
 18 19  1  0
 19 20  2  0
 20 21  1  0
 21 22  2  0
 22 23  1  0
 23 24  2  0
 23 25  1  0
 25 26  1  0
 26 27  1  0
 27 28  1  0
 28 29  1  0
 29 30  1  0
 15  2  1  0
 22 17  1  0
 30 25  1  0
 10  5  2  0
M  CHG  4   6  -1   9  -1  11  -1  25   1
M  END
>  <UniqueID>  (1262) 
18

>  <SMILES>  (1262) 
C=c1c(=Cc2[n-]c(=O)[n-]c2[O-])cc(C)n1Cc1ccccc1C(=O)[NH+]1CCOCC1

>  <Energy>  (1262) 
141.03089260799956

>  <Genealogy>  (1262) 
C=c1c(=Cc2[n-]c(=O)[n-]c2[O-])cc(C)n1Cc1ccccc1C(=O)[NH+]1CCOCC1 (protonated)
C=c1c(=Cc2[n-]c(=O)[n-]c2[O-])cc(C)n1Cc1ccccc1C(=O)[NH+]1CCOCC1 (3D coordinates assigned)
C=c1c(=Cc2[n-]c(=O)[n-]c2[O-])cc(C)n1Cc1ccccc1C(=O)[NH+]1CCOCC1 (nonaromatic ring conformer: 141.03089260799956 kcal/mol)

>  <smiles>  (1262) 
C=c1c(=Cc2[nH]c(=O)[nH]c2O)cc(C)n1Cc1ccccc1C(=O)N1CCOCC1

>  <score_type>  (1262) 
oracle

>  <origin>  (1262) 
adg

>  <m_score__min__energy>  (1262) 
-14.93

>  <m_primary>  (1262) 
energy

$$$$
25:0
     RDKit          3D

 37 41  0  0  0  0  0  0  0  0999 V2000
   54.9330   23.9880   44.1160 O   0  0  0  0  0  0  0  0  0  0  0  0
   56.1190   23.3890   44.5410 C   0  0  0  0  0  0  0  0  0  0  0  0
   56.6410   22.3150   43.8100 C   0  0  0  0  0  0  0  0  0  0  0  0
   57.8620   21.7490   44.1660 C   0  0  0  0  0  0  0  0  0  0  0  0
   58.5630   22.2690   45.2530 C   0  0  0  0  0  0  0  0  0  0  0  0
   58.0390   23.2990   45.9690 N   0  0  0  0  0  0  0  0  0  0  0  0
   56.8360   23.8640   45.6730 C   0  0  0  0  0  0  0  0  0  0  0  0
   56.4160   24.8300   46.4450 N   0  0  0  0  0  0  0  0  0  0  0  0
   55.9080   26.1160   46.0650 C   0  0  0  0  0  0  0  0  0  0  0  0
   54.6610   26.2780   45.9860 O   0  0  0  0  0  0  0  0  0  0  0  0
   56.8240   27.2000   45.6380 C   0  0  0  0  0  0  0  0  0  0  0  0
   56.4510   28.4700   45.2500 C   0  0  0  0  0  0  0  0  0  0  0  0
   55.1560   28.9760   45.2140 O   0  0  0  0  0  0  0  0  0  0  0  0
   57.6010   29.1540   44.9150 C   0  0  0  0  0  0  0  0  0  0  0  0
   57.6510   30.4280   44.5050 C   0  0  0  0  0  0  0  0  0  0  0  0
   58.3440   31.4800   45.2680 C   0  0  0  0  0  0  0  0  0  0  0  0
   58.0390   32.8250   45.2020 C   0  0  0  0  0  0  0  0  0  0  0  0
   58.9310   33.4660   46.0410 C   0  0  0  0  0  0  0  0  0  0  0  0
   58.9810   34.9450   46.2740 C   0  0  0  0  0  0  0  0  0  0  0  0
   59.7810   32.5700   46.5920 N   0  0  0  0  0  0  0  0  0  0  0  0
   60.8640   32.8710   47.4850 C   0  0  0  0  0  0  0  0  0  0  0  0
   60.6070   33.2170   48.8180 C   0  0  0  0  0  0  0  0  0  0  0  0
   61.6640   33.4770   49.6940 C   0  0  0  0  0  0  0  0  0  0  0  0
   62.9940   33.3860   49.2510 C   0  0  0  0  0  0  0  0  0  0  0  0
   64.0810   33.6480   50.1580 N   0  0  0  0  0  0  0  0  0  0  0  0
   65.4150   33.0910   49.9000 C   0  0  0  0  0  0  0  0  0  0  0  0
   66.1260   32.7010   51.2190 C   0  0  0  0  0  0  0  0  0  0  0  0
   65.4560   33.1490   52.3870 O   0  0  0  0  0  0  0  0  0  0  0  0
   65.0730   34.4990   52.2430 C   0  0  0  0  0  0  0  0  0  0  0  0
   63.8950   34.5880   51.2720 C   0  0  0  0  0  0  0  0  0  0  0  0
   63.2480   33.0510   47.9090 C   0  0  0  0  0  0  0  0  0  0  0  0
   62.1900   32.7910   47.0350 C   0  0  0  0  0  0  0  0  0  0  0  0
   59.4350   31.3500   46.1200 C   0  0  0  0  0  0  0  0  0  0  0  0
   60.1780   30.0830   46.4400 C   0  0  0  0  0  0  0  0  0  0  0  0
   58.6850   28.3670   45.0840 N   0  0  0  0  0  0  0  0  0  0  0  0
   58.2140   27.1790   45.5230 C   0  0  0  0  0  0  0  0  0  0  0  0
   59.0190   26.1420   45.7590 C   0  0  0  0  0  0  0  0  0  0  0  0
  1  2  1  0
  2  3  2  0
  3  4  1  0
  4  5  2  0
  5  6  1  0
  6  7  1  0
  7  8  2  0
  8  9  1  0
  9 10  2  0
  9 11  1  0
 11 12  2  0
 12 13  1  0
 12 14  1  0
 14 15  2  0
 15 16  1  0
 16 17  1  0
 17 18  2  0
 18 19  1  0
 18 20  1  0
 20 21  1  0
 21 22  2  0
 22 23  1  0
 23 24  2  0
 24 25  1  0
 25 26  1  0
 26 27  1  0
 27 28  1  0
 28 29  1  0
 29 30  1  0
 24 31  1  0
 31 32  2  0
 20 33  1  0
 33 34  1  0
 14 35  1  0
 35 36  1  0
 36 37  2  0
  7  2  1  0
 36 11  1  0
 33 16  2  0
 32 21  1  0
 30 25  1  0
M  CHG  3   6  -1  13  -1  35  -1
M  END
>  <UniqueID>  (1263) 
23

>  <SMILES>  (1263) 
C=c1[n-]/c(=C\c2cc(C)n(-c3ccc(N4CCOCC4)cc3)c2C)c([O-])c1C(=O)/N=c1/[n-]cccc1O

>  <Energy>  (1263) 
158.25296521625626

>  <Genealogy>  (1263) 
C=c1[n-]c(=Cc2cc(C)n(-c3ccc(N4CCOCC4)cc3)c2C)c([O-])c1C(=O)N=c1[n-]cccc1O (protonated)
C=c1[n-]/c(=C\c2cc(C)n(-c3ccc(N4CCOCC4)cc3)c2C)c([O-])c1C(=O)/N=c1/[n-]cccc1O (cis-trans isomerization)
C=c1[n-]/c(=C\c2cc(C)n(-c3ccc(N4CCOCC4)cc3)c2C)c([O-])c1C(=O)/N=c1/[n-]cccc1O (3D coordinates assigned)
C=c1[n-]/c(=C\c2cc(C)n(-c3ccc(N4CCOCC4)cc3)c2C)c([O-])c1C(=O)/N=c1/[n-]cccc1O (nonaromatic ring conformer: 158.25296521625626 kcal/mol)

>  <smiles>  (1263) 
C=c1[nH]c(=Cc2cc(C)n(-c3ccc(N4CCOCC4)cc3)c2C)c(O)c1C(=O)N=c1[nH]cccc1O

>  <score_type>  (1263) 
oracle

>  <origin>  (1263) 
adg

>  <m_score__min__energy>  (1263) 
-16.449999999999999

>  <m_primary>  (1263) 
energy

$$$$
31:0
     RDKit          3D

 28 30  0  0  0  0  0  0  0  0999 V2000
   59.7540   28.7630   44.6970 C   0  0  0  0  0  0  0  0  0  0  0  0
   59.5630   28.3290   45.9550 C   0  0  0  0  0  0  0  0  0  0  0  0
   58.7880   27.2260   46.3300 C   0  0  0  0  0  0  0  0  0  0  0  0
   58.1320   26.3730   45.5180 C   0  0  0  0  0  0  0  0  0  0  0  0
   57.1770   25.3500   45.9890 C   0  0  0  0  0  0  0  0  0  0  0  0
   57.4900   24.1070   46.3920 N   0  0  0  0  0  0  0  0  0  0  0  0
   56.3260   23.5890   46.8320 C   0  0  0  0  0  0  0  0  0  0  0  0
   56.2260   22.4220   47.2960 O   0  0  0  0  0  0  0  0  0  0  0  0
   55.2770   24.4370   46.7470 N   0  0  0  0  0  0  0  0  0  0  0  0
   55.8350   25.5460   46.2260 C   0  0  0  0  0  0  0  0  0  0  0  0
   55.1300   26.7170   45.9750 O   0  0  0  0  0  0  0  0  0  0  0  0
   58.8840   27.1340   47.7110 C   0  0  0  0  0  0  0  0  0  0  0  0
   59.6830   28.1780   48.1240 C   0  0  0  0  0  0  0  0  0  0  0  0
   60.1180   28.3870   49.5430 C   0  0  0  0  0  0  0  0  0  0  0  0
   60.1020   28.9110   47.0630 N   0  0  0  0  0  0  0  0  0  0  0  0
   61.0260   30.0560   47.1310 C   0  0  0  0  0  0  0  0  0  0  0  0
   60.2610   31.3540   47.0970 C   0  0  0  0  0  0  0  0  0  0  0  0
   60.5100   32.3470   48.0570 C   0  0  0  0  0  0  0  0  0  0  0  0
   59.7840   33.5480   48.0440 C   0  0  0  0  0  0  0  0  0  0  0  0
   60.0290   34.5870   49.0980 C   0  0  0  0  0  0  0  0  0  0  0  0
   58.7790   33.7370   47.0860 C   0  0  0  0  0  0  0  0  0  0  0  0
   58.5190   32.7510   46.1250 C   0  0  0  0  0  0  0  0  0  0  0  0
   57.4850   32.9510   45.1440 N   0  0  0  0  0  0  0  0  0  0  0  0
   56.9940   34.3090   44.8970 C   0  0  0  0  0  0  0  0  0  0  0  0
   57.0390   31.8680   44.3020 C   0  0  0  0  0  0  0  0  0  0  0  0
   57.5020   31.7350   42.8810 C   0  0  0  0  0  0  0  0  0  0  0  0
   56.2490   30.9980   44.7610 O   0  0  0  0  0  0  0  0  0  0  0  0
   59.2710   31.5680   46.1260 C   0  0  0  0  0  0  0  0  0  0  0  0
  1  2  2  0
  2  3  1  0
  3  4  2  3
  4  5  1  0
  5  6  1  0
  6  7  1  0
  7  8  2  0
  7  9  1  0
  9 10  1  0
 10 11  1  0
  3 12  1  0
 12 13  2  0
 13 14  1  0
 13 15  1  0
 15 16  1  0
 16 17  1  0
 17 18  2  0
 18 19  1  0
 19 20  1  0
 19 21  2  0
 21 22  1  0
 22 23  1  0
 23 24  1  0
 23 25  1  0
 25 26  1  0
 25 27  2  0
 22 28  2  0
 15  2  1  0
 28 17  1  0
 10  5  2  0
M  CHG  2   9  -1  11  -1
M  END
>  <UniqueID>  (1264) 
29

>  <SMILES>  (1264) 
C=c1c(=Cc2[nH]c(=O)[n-]c2[O-])cc(C)n1Cc1cc(C)cc(N(C)C(C)=O)c1

>  <Energy>  (1264) 
119.04589467938376

>  <Genealogy>  (1264) 
C=c1c(=Cc2[nH]c(=O)[n-]c2[O-])cc(C)n1Cc1cc(C)cc(N(C)C(C)=O)c1 (protonated)
C=c1c(=Cc2[nH]c(=O)[n-]c2[O-])cc(C)n1Cc1cc(C)cc(N(C)C(C)=O)c1 (3D coordinates assigned)
C=c1c(=Cc2[nH]c(=O)[n-]c2[O-])cc(C)n1Cc1cc(C)cc(N(C)C(C)=O)c1 (optimized conformer: 119.04589467938376 kcal/mol)

>  <smiles>  (1264) 
C=c1c(=Cc2[nH]c(=O)[nH]c2O)cc(C)n1Cc1cc(C)cc(N(C)C(C)=O)c1

>  <score_type>  (1264) 
oracle

>  <origin>  (1264) 
adg

>  <m_score__min__energy>  (1264) 
-14.17

>  <m_primary>  (1264) 
energy

$$$$
37:0
     RDKit          3D

 28 30  0  0  0  0  0  0  0  0999 V2000
   61.1270   33.7180   50.7260 C   0  0  0  0  0  0  0  0  0  0  0  0
   59.6420   33.7090   50.9160 C   0  0  0  0  0  0  0  0  0  0  0  0
   59.1380   34.4200   51.8250 O   0  0  0  0  0  0  0  0  0  0  0  0
   58.7740   32.9370   50.0760 N   0  0  0  0  0  0  0  0  0  0  0  0
   58.4610   31.5840   50.3050 N   0  0  0  0  0  0  0  0  0  0  0  0
   58.8650   30.4900   49.6260 C   0  0  0  0  0  0  0  0  0  0  0  0
   59.7570   30.4840   48.4190 C   0  0  0  0  0  0  0  0  0  0  0  0
   59.0610   31.1180   47.2440 C   0  0  0  0  0  0  0  0  0  0  0  0
   58.1730   30.4460   46.3940 C   0  0  0  0  0  0  0  0  0  0  0  0
   57.7660   29.0780   46.4980 N   0  0  0  0  0  0  0  0  0  0  0  0
   56.9780   28.3640   45.5370 C   0  0  0  0  0  0  0  0  0  0  0  0
   55.8710   28.8530   45.1860 O   0  0  0  0  0  0  0  0  0  0  0  0
   57.3760   27.0010   45.0270 C   0  0  0  0  0  0  0  0  0  0  0  0
   57.2800   25.9360   46.1290 C   0  0  0  0  0  0  0  0  0  0  0  0
   55.8630   25.4930   46.3280 C   0  0  0  0  0  0  0  0  0  0  0  0
   55.6140   24.3390   46.7720 O   0  0  0  0  0  0  0  0  0  0  0  0
   54.8140   26.3420   45.9920 O   0  0  0  0  0  0  0  0  0  0  0  0
   57.7710   31.4330   45.0950 S   0  0  0  0  0  0  0  0  0  0  0  0
   58.6600   32.7560   45.6210 C   0  0  0  0  0  0  0  0  0  0  0  0
   59.3440   32.4220   46.7870 C   0  0  0  0  0  0  0  0  0  0  0  0
   60.2230   33.4190   47.5010 C   0  0  0  0  0  0  0  0  0  0  0  0
   60.6350   34.5800   46.5790 C   0  0  0  0  0  0  0  0  0  0  0  0
   59.4290   35.1250   45.7930 C   0  0  0  0  0  0  0  0  0  0  0  0
   58.8380   34.0430   44.8750 C   0  0  0  0  0  0  0  0  0  0  0  0
   58.3790   29.3650   50.1990 N   0  0  0  0  0  0  0  0  0  0  0  0
   57.6890   29.7350   51.2720 N   0  0  0  0  0  0  0  0  0  0  0  0
   57.7630   31.0790   51.3350 C   0  0  0  0  0  0  0  0  0  0  0  0
   57.0470   31.9740   52.5010 S   0  0  0  0  0  0  0  0  0  0  0  0
  1  2  1  0
  2  3  2  0
  2  4  1  0
  4  5  1  0
  5  6  1  0
  6  7  1  0
  7  8  1  0
  8  9  2  0
  9 10  1  0
 10 11  1  0
 11 12  2  0
 11 13  1  0
 13 14  1  0
 14 15  1  0
 15 16  2  0
 15 17  1  0
  9 18  1  0
 18 19  1  0
 19 20  2  0
 20 21  1  0
 21 22  1  0
 22 23  1  0
 23 24  1  0
  6 25  2  0
 25 26  1  0
 26 27  1  0
 27 28  2  0
 27  5  1  0
 20  8  1  0
 24 19  1  0
M  CHG  4   4  -1  10  -1  17  -1  26  -1
M  END
>  <UniqueID>  (1265) 
34

>  <SMILES>  (1265) 
CC(=O)[N-]n1c(Cc2c([N-]C(=O)CCC(=O)[O-])sc3c2CCCC3)n[n-]c1=S

>  <Energy>  (1265) 
113.88391676667796

>  <Genealogy>  (1265) 
CC(=O)[N-]n1c(Cc2c([N-]C(=O)CCC(=O)[O-])sc3c2CCCC3)n[n-]c1=S (protonated)
CC(=O)[N-]n1c(Cc2c([N-]C(=O)CCC(=O)[O-])sc3c2CCCC3)n[n-]c1=S (3D coordinates assigned)
CC(=O)[N-]n1c(Cc2c([N-]C(=O)CCC(=O)[O-])sc3c2CCCC3)n[n-]c1=S (nonaromatic ring conformer: 113.88391676667796 kcal/mol)

>  <smiles>  (1265) 
CC(=O)Nn1c(Cc2c(NC(=O)CCC(=O)O)sc3c2CCCC3)n[nH]c1=S

>  <score_type>  (1265) 
oracle

>  <origin>  (1265) 
adg

>  <m_score__min__energy>  (1265) 
-14.779999999999999

>  <m_primary>  (1265) 
energy

$$$$
42:0
     RDKit          3D

 25 27  0  0  0  0  0  0  0  0999 V2000
   59.5950   29.7080   44.6870 C   0  0  0  0  0  0  0  0  0  0  0  0
   59.4550   29.2130   45.9280 C   0  0  0  0  0  0  0  0  0  0  0  0
   58.5580   28.2130   46.3360 C   0  0  0  0  0  0  0  0  0  0  0  0
   57.7840   27.3710   45.6220 C   0  0  0  0  0  0  0  0  0  0  0  0
   57.2200   26.1030   46.1130 C   0  0  0  0  0  0  0  0  0  0  0  0
   57.9450   25.0800   46.6030 N   0  0  0  0  0  0  0  0  0  0  0  0
   57.0050   24.2190   47.0510 C   0  0  0  0  0  0  0  0  0  0  0  0
   57.2950   23.1120   47.5750 O   0  0  0  0  0  0  0  0  0  0  0  0
   55.7310   24.6430   46.9040 N   0  0  0  0  0  0  0  0  0  0  0  0
   55.8880   25.8430   46.3220 C   0  0  0  0  0  0  0  0  0  0  0  0
   54.8330   26.6860   45.9940 O   0  0  0  0  0  0  0  0  0  0  0  0
   58.6210   28.1750   47.7180 C   0  0  0  0  0  0  0  0  0  0  0  0
   59.5910   29.0770   48.0980 C   0  0  0  0  0  0  0  0  0  0  0  0
   60.0260   29.3080   49.5140 C   0  0  0  0  0  0  0  0  0  0  0  0
   60.0940   29.7190   47.0190 N   0  0  0  0  0  0  0  0  0  0  0  0
   61.1660   30.7270   47.0520 C   0  0  0  0  0  0  0  0  0  0  0  0
   60.5880   32.1050   46.8530 C   0  0  0  0  0  0  0  0  0  0  0  0
   59.3230   32.2080   46.3630 N   0  0  0  0  0  0  0  0  0  0  0  0
   58.7340   33.4140   46.1640 C   0  0  0  0  0  0  0  0  0  0  0  0
   57.0710   33.4950   45.5070 S   0  0  0  0  0  0  0  0  0  0  0  0
   57.3770   32.1990   44.2680 C   0  0  0  0  0  0  0  0  0  0  0  0
   59.4040   34.5550   46.4580 N   0  0  0  0  0  0  0  0  0  0  0  0
   60.6660   34.5110   46.9570 C   0  0  0  0  0  0  0  0  0  0  0  0
   61.2950   33.2810   47.1710 C   0  0  0  0  0  0  0  0  0  0  0  0
   62.9280   33.2720   47.8290 Cl  0  0  0  0  0  0  0  0  0  0  0  0
  1  2  2  0
  2  3  1  0
  3  4  2  3
  4  5  1  0
  5  6  1  0
  6  7  1  0
  7  8  2  0
  7  9  1  0
  9 10  1  0
 10 11  1  0
  3 12  1  0
 12 13  2  0
 13 14  1  0
 13 15  1  0
 15 16  1  0
 16 17  1  0
 17 18  2  0
 18 19  1  0
 19 20  1  0
 20 21  1  0
 19 22  2  0
 22 23  1  0
 23 24  2  0
 24 25  1  0
 15  2  1  0
 24 17  1  0
 10  5  2  0
M  CHG  3   6  -1   9  -1  11  -1
M  END
>  <UniqueID>  (1266) 
39

>  <SMILES>  (1266) 
C=c1c(=Cc2[n-]c(=O)[n-]c2[O-])cc(C)n1Cc1nc(SC)ncc1Cl

>  <Energy>  (1266) 
106.11844447416054

>  <Genealogy>  (1266) 
C=c1c(=Cc2[n-]c(=O)[n-]c2[O-])cc(C)n1Cc1nc(SC)ncc1Cl (protonated)
C=c1c(=Cc2[n-]c(=O)[n-]c2[O-])cc(C)n1Cc1nc(SC)ncc1Cl (3D coordinates assigned)
C=c1c(=Cc2[n-]c(=O)[n-]c2[O-])cc(C)n1Cc1nc(SC)ncc1Cl (optimized conformer: 106.11844447416054 kcal/mol)

>  <smiles>  (1266) 
C=c1c(=Cc2[nH]c(=O)[nH]c2O)cc(C)n1Cc1nc(SC)ncc1Cl

>  <score_type>  (1266) 
oracle

>  <origin>  (1266) 
adg

>  <m_score__min__energy>  (1266) 
-15.640000000000001

>  <m_primary>  (1266) 
energy

$$$$
43:0
     RDKit          3D

 31 34  0  0  0  0  0  0  0  0999 V2000
   56.3560   29.2800   44.8460 C   0  0  0  0  0  0  0  0  0  0  0  0
   57.6430   28.9730   45.0740 C   0  0  0  0  0  0  0  0  0  0  0  0
   58.2130   27.6910   45.1690 C   0  0  0  0  0  0  0  0  0  0  0  0
   57.6940   26.4690   44.9380 C   0  0  0  0  0  0  0  0  0  0  0  0
   57.0950   25.5860   45.9470 C   0  0  0  0  0  0  0  0  0  0  0  0
   57.7710   24.6020   46.5650 N   0  0  0  0  0  0  0  0  0  0  0  0
   56.8240   23.9930   47.3120 C   0  0  0  0  0  0  0  0  0  0  0  0
   57.0770   23.0130   48.0580 O   0  0  0  0  0  0  0  0  0  0  0  0
   55.5830   24.5110   47.1850 N   0  0  0  0  0  0  0  0  0  0  0  0
   55.7650   25.5090   46.3060 C   0  0  0  0  0  0  0  0  0  0  0  0
   54.7280   26.3100   45.8330 O   0  0  0  0  0  0  0  0  0  0  0  0
   59.5310   27.8810   45.5560 C   0  0  0  0  0  0  0  0  0  0  0  0
   59.7330   29.2420   45.6370 C   0  0  0  0  0  0  0  0  0  0  0  0
   61.0310   29.8940   46.0070 C   0  0  0  0  0  0  0  0  0  0  0  0
   58.5960   29.9050   45.3340 N   0  0  0  0  0  0  0  0  0  0  0  0
   58.4330   31.3330   45.3760 C   0  0  0  0  0  0  0  0  0  0  0  0
   57.6160   31.9750   44.4360 C   0  0  0  0  0  0  0  0  0  0  0  0
   57.4620   33.3630   44.4720 C   0  0  0  0  0  0  0  0  0  0  0  0
   58.1330   34.1180   45.4380 C   0  0  0  0  0  0  0  0  0  0  0  0
   58.9760   33.4900   46.3720 C   0  0  0  0  0  0  0  0  0  0  0  0
   59.6880   34.2870   47.3950 C   0  0  0  0  0  0  0  0  0  0  0  0
   59.1230   35.2920   47.9070 O   0  0  0  0  0  0  0  0  0  0  0  0
   61.0070   33.9230   47.8280 N   0  0  0  0  0  0  0  0  0  0  0  0
   62.0880   33.8290   46.8340 C   0  0  0  0  0  0  0  0  0  0  0  0
   63.4180   33.4350   47.4880 C   0  0  0  0  0  0  0  0  0  0  0  0
   63.1990   32.2950   48.4900 C   0  0  0  0  0  0  0  0  0  0  0  0
   64.4540   31.9350   49.0420 O   0  0  0  0  0  0  0  0  0  0  0  0
   65.1320   33.0790   49.5170 C   0  0  0  0  0  0  0  0  0  0  0  0
   62.2190   32.7130   49.6190 C   0  0  0  0  0  0  0  0  0  0  0  0
   61.3220   33.9120   49.2610 C   0  0  0  0  0  0  0  0  0  0  0  0
   59.1090   32.0920   46.3410 C   0  0  0  0  0  0  0  0  0  0  0  0
  1  2  2  0
  2  3  1  0
  3  4  2  3
  4  5  1  0
  5  6  1  0
  6  7  1  0
  7  8  2  0
  7  9  1  0
  9 10  1  0
 10 11  1  0
  3 12  1  0
 12 13  2  0
 13 14  1  0
 13 15  1  0
 15 16  1  0
 16 17  2  0
 17 18  1  0
 18 19  2  0
 19 20  1  0
 20 21  1  0
 21 22  2  0
 21 23  1  0
 23 24  1  0
 24 25  1  0
 25 26  1  0
 26 27  1  0
 27 28  1  0
 26 29  1  0
 29 30  1  0
 20 31  2  0
 15  2  1  0
 31 16  1  0
 10  5  2  0
 30 23  1  0
M  CHG  2   6  -1   9  -1
M  END
>  <UniqueID>  (1267) 
40

>  <SMILES>  (1267) 
C=c1c(=Cc2[n-]c(=O)[n-]c2O)cc(C)n1-c1cccc(C(=O)N2CCC(OC)CC2)c1

>  <Energy>  (1267) 
141.26428619560807

>  <Genealogy>  (1267) 
C=c1c(=Cc2[n-]c(=O)[n-]c2O)cc(C)n1-c1cccc(C(=O)N2CCC(OC)CC2)c1 (protonated)
C=c1c(=Cc2[n-]c(=O)[n-]c2O)cc(C)n1-c1cccc(C(=O)N2CCC(OC)CC2)c1 (3D coordinates assigned)
C=c1c(=Cc2[n-]c(=O)[n-]c2O)cc(C)n1-c1cccc(C(=O)N2CCC(OC)CC2)c1 (nonaromatic ring conformer: 141.26428619560807 kcal/mol)

>  <smiles>  (1267) 
C=c1c(=Cc2[nH]c(=O)[nH]c2O)cc(C)n1-c1cccc(C(=O)N2CCC(OC)CC2)c1

>  <score_type>  (1267) 
oracle

>  <origin>  (1267) 
adg

>  <m_score__min__energy>  (1267) 
-15.19

>  <m_primary>  (1267) 
energy

$$$$
48:0
     RDKit          3D

 24 26  0  0  0  0  0  0  0  0999 V2000
   60.7460   27.0060   46.0820 C   0  0  0  0  0  0  0  0  0  0  0  0
   59.9990   28.0140   46.5530 C   0  0  0  0  0  0  0  0  0  0  0  0
   60.6170   28.8920   47.3790 N   0  0  0  0  0  0  0  0  0  0  0  0
   60.0560   30.0630   47.7530 C   0  0  0  0  0  0  0  0  0  0  0  0
   60.6940   30.8170   48.5370 O   0  0  0  0  0  0  0  0  0  0  0  0
   58.8330   30.4310   47.2620 N   0  0  0  0  0  0  0  0  0  0  0  0
   58.2680   31.7570   47.5870 C   0  0  0  0  0  0  0  0  0  0  0  0
   58.6430   32.7630   46.5300 C   0  0  0  0  0  0  0  0  0  0  0  0
   58.2110   32.5920   45.2050 C   0  0  0  0  0  0  0  0  0  0  0  0
   58.5320   33.5420   44.2300 C   0  0  0  0  0  0  0  0  0  0  0  0
   59.2830   34.6700   44.5710 C   0  0  0  0  0  0  0  0  0  0  0  0
   59.7130   34.8500   45.8890 C   0  0  0  0  0  0  0  0  0  0  0  0
   59.3940   33.9030   46.8660 C   0  0  0  0  0  0  0  0  0  0  0  0
   58.1420   29.5680   46.4460 C   0  0  0  0  0  0  0  0  0  0  0  0
   57.0070   29.9090   46.0030 O   0  0  0  0  0  0  0  0  0  0  0  0
   58.6640   28.2850   46.1300 C   0  0  0  0  0  0  0  0  0  0  0  0
   57.8680   27.3990   45.4680 C   0  0  0  0  0  0  0  0  0  0  0  0
   57.3670   26.1180   46.0030 C   0  0  0  0  0  0  0  0  0  0  0  0
   58.3140   24.8490   46.5950 S   0  0  0  0  0  0  0  0  0  0  0  0
   56.9740   23.9910   47.1360 C   0  0  0  0  0  0  0  0  0  0  0  0
   57.0300   22.8680   47.6980 O   0  0  0  0  0  0  0  0  0  0  0  0
   55.8140   24.6430   46.9120 N   0  0  0  0  0  0  0  0  0  0  0  0
   56.0350   25.8350   46.2960 C   0  0  0  0  0  0  0  0  0  0  0  0
   54.9940   26.7000   45.9870 O   0  0  0  0  0  0  0  0  0  0  0  0
  1  2  2  0
  2  3  1  0
  3  4  1  0
  4  5  2  0
  4  6  1  0
  6  7  1  0
  7  8  1  0
  8  9  2  0
  9 10  1  0
 10 11  2  0
 11 12  1  0
 12 13  2  0
  6 14  1  0
 14 15  2  0
 14 16  1  0
 16 17  2  3
 17 18  1  0
 18 19  1  0
 19 20  1  0
 20 21  2  0
 20 22  1  0
 22 23  1  0
 23 24  1  0
 16  2  1  0
 23 18  2  0
 13  8  1  0
M  CHG  3   3  -1  22  -1  24  -1
M  END
>  <UniqueID>  (1268) 
45

>  <SMILES>  (1268) 
C=c1[n-]c(=O)n(Cc2ccccc2)c(=O)c1=Cc1sc(=O)[n-]c1[O-]

>  <Energy>  (1268) 
94.05903674098707

>  <Genealogy>  (1268) 
C=c1[n-]c(=O)n(Cc2ccccc2)c(=O)c1=Cc1sc(=O)[n-]c1[O-] (protonated)
C=c1[n-]c(=O)n(Cc2ccccc2)c(=O)c1=Cc1sc(=O)[n-]c1[O-] (3D coordinates assigned)
C=c1[n-]c(=O)n(Cc2ccccc2)c(=O)c1=Cc1sc(=O)[n-]c1[O-] (optimized conformer: 94.05903674098707 kcal/mol)

>  <smiles>  (1268) 
C=c1[nH]c(=O)n(Cc2ccccc2)c(=O)c1=Cc1sc(=O)[nH]c1O

>  <score_type>  (1268) 
oracle

>  <origin>  (1268) 
adg

>  <m_score__min__energy>  (1268) 
-15.25

>  <m_primary>  (1268) 
energy

$$$$
61:0
     RDKit          3D

 34 37  0  0  0  0  0  0  0  0999 V2000
   60.2490   29.0650   46.4370 C   0  0  0  0  0  0  0  0  0  0  0  0
   59.7680   30.2500   46.0290 C   0  0  0  0  0  0  0  0  0  0  0  0
   58.6740   30.4770   45.1750 C   0  0  0  0  0  0  0  0  0  0  0  0
   57.9450   29.6280   44.4240 C   0  0  0  0  0  0  0  0  0  0  0  0
   57.3930   28.3380   44.8780 C   0  0  0  0  0  0  0  0  0  0  0  0
   56.0430   28.2110   45.2460 C   0  0  0  0  0  0  0  0  0  0  0  0
   55.1780   29.2960   45.1600 O   0  0  0  0  0  0  0  0  0  0  0  0
   55.5720   27.0190   45.6960 N   0  0  0  0  0  0  0  0  0  0  0  0
   56.3910   25.9420   45.8140 C   0  0  0  0  0  0  0  0  0  0  0  0
   55.7950   24.5230   46.3560 S   0  0  0  0  0  0  0  0  0  0  0  0
   57.7050   26.0480   45.4920 N   0  0  0  0  0  0  0  0  0  0  0  0
   58.2250   27.2180   45.0370 C   0  0  0  0  0  0  0  0  0  0  0  0
   59.4510   27.2820   44.7520 O   0  0  0  0  0  0  0  0  0  0  0  0
   58.4340   31.8410   45.2080 C   0  0  0  0  0  0  0  0  0  0  0  0
   59.4040   32.4000   46.0130 C   0  0  0  0  0  0  0  0  0  0  0  0
   59.5220   33.8650   46.3080 C   0  0  0  0  0  0  0  0  0  0  0  0
   60.2110   31.4380   46.5140 N   0  0  0  0  0  0  0  0  0  0  0  0
   61.3210   31.6550   47.4050 C   0  0  0  0  0  0  0  0  0  0  0  0
   61.4340   30.9150   48.5900 C   0  0  0  0  0  0  0  0  0  0  0  0
   62.5080   31.1320   49.4570 C   0  0  0  0  0  0  0  0  0  0  0  0
   63.4920   32.0860   49.1460 C   0  0  0  0  0  0  0  0  0  0  0  0
   64.6220   32.3230   50.0730 C   0  0  0  0  0  0  0  0  0  0  0  0
   65.0640   33.4950   50.2270 O   0  0  0  0  0  0  0  0  0  0  0  0
   65.2360   31.2390   50.7880 N   0  0  0  0  0  0  0  0  0  0  0  0
   64.3990   30.3910   51.6500 C   0  0  0  0  0  0  0  0  0  0  0  0
   65.2220   29.2660   52.2770 C   0  0  0  0  0  0  0  0  0  0  0  0
   66.1800   28.7690   51.2750 N   0  0  0  0  0  0  0  0  0  0  0  0
   66.7540   27.4600   51.6650 C   0  0  0  0  0  0  0  0  0  0  0  0
   66.7530   26.5060   50.4720 C   0  0  0  0  0  0  0  0  0  0  0  0
   67.3370   27.1150   49.3550 O   0  0  0  0  0  0  0  0  0  0  0  0
   67.2430   29.7720   51.0410 C   0  0  0  0  0  0  0  0  0  0  0  0
   66.6970   31.2150   50.9320 C   0  0  0  0  0  0  0  0  0  0  0  0
   63.3670   32.8360   47.9650 C   0  0  0  0  0  0  0  0  0  0  0  0
   62.2910   32.6200   47.0990 C   0  0  0  0  0  0  0  0  0  0  0  0
  1  2  2  0
  2  3  1  0
  3  4  2  3
  4  5  1  0
  5  6  2  0
  6  7  1  0
  6  8  1  0
  8  9  1  0
  9 10  2  0
  9 11  1  0
 11 12  1  0
 12 13  2  0
  3 14  1  0
 14 15  2  0
 15 16  1  0
 15 17  1  0
 17 18  1  0
 18 19  2  0
 19 20  1  0
 20 21  2  0
 21 22  1  0
 22 23  2  0
 22 24  1  0
 24 25  1  0
 25 26  1  0
 26 27  1  0
 27 28  1  0
 28 29  1  0
 29 30  1  0
 27 31  1  0
 31 32  1  0
 21 33  1  0
 33 34  2  0
 17  2  1  0
 34 18  1  0
 12  5  1  0
 32 24  1  0
M  CHG  3   7  -1   8  -1  11  -1
M  END
>  <UniqueID>  (1269) 
57

>  <SMILES>  (1269) 
C=c1c(=Cc2c([O-])[n-]c(=S)[n-]c2=O)cc(C)n1-c1ccc(C(=O)N2CCN(CCO)CC2)cc1

>  <Energy>  (1269) 
119.57982969045457

>  <Genealogy>  (1269) 
C=c1c(=Cc2c([O-])[n-]c(=S)[n-]c2=O)cc(C)n1-c1ccc(C(=O)N2CCN(CCO)CC2)cc1 (protonated)
C=c1c(=Cc2c([O-])[n-]c(=S)[n-]c2=O)cc(C)n1-c1ccc(C(=O)N2CCN(CCO)CC2)cc1 (3D coordinates assigned)
C=c1c(=Cc2c([O-])[n-]c(=S)[n-]c2=O)cc(C)n1-c1ccc(C(=O)N2CCN(CCO)CC2)cc1 (nonaromatic ring conformer: 119.57982969045457 kcal/mol)

>  <smiles>  (1269) 
C=c1c(=Cc2c(O)[nH]c(=S)[nH]c2=O)cc(C)n1-c1ccc(C(=O)N2CCN(CCO)CC2)cc1

>  <score_type>  (1269) 
oracle

>  <origin>  (1269) 
adg

>  <m_score__min__energy>  (1269) 
-15.800000000000001

>  <m_primary>  (1269) 
energy

$$$$
76:0
     RDKit          3D

 23 25  0  0  0  0  0  0  0  0999 V2000
   55.1760   31.3640   52.3430 C   0  0  0  0  0  0  0  0  0  0  0  0
   54.7280   30.1280   52.6130 C   0  0  0  0  0  0  0  0  0  0  0  0
   53.4160   29.6440   52.4670 C   0  0  0  0  0  0  0  0  0  0  0  0
   52.3350   30.1870   51.8770 C   0  0  0  0  0  0  0  0  0  0  0  0
   51.5960   31.3630   52.3600 C   0  0  0  0  0  0  0  0  0  0  0  0
   51.2570   31.5510   53.6470 N   0  0  0  0  0  0  0  0  0  0  0  0
   50.4950   32.6660   53.6110 C   0  0  0  0  0  0  0  0  0  0  0  0
   49.9940   33.1780   54.6440 O   0  0  0  0  0  0  0  0  0  0  0  0
   50.3040   33.1820   52.3770 N   0  0  0  0  0  0  0  0  0  0  0  0
   50.9950   32.3380   51.5960 C   0  0  0  0  0  0  0  0  0  0  0  0
   51.0500   32.4390   50.2100 O   0  0  0  0  0  0  0  0  0  0  0  0
   53.3920   28.4000   53.0780 C   0  0  0  0  0  0  0  0  0  0  0  0
   54.6770   28.1410   53.5070 C   0  0  0  0  0  0  0  0  0  0  0  0
   55.0990   26.9190   54.2640 C   0  0  0  0  0  0  0  0  0  0  0  0
   55.4910   29.1760   53.2070 N   0  0  0  0  0  0  0  0  0  0  0  0
   56.8470   29.3140   53.6620 C   0  0  0  0  0  0  0  0  0  0  0  0
   57.1050   29.1870   55.0320 C   0  0  0  0  0  0  0  0  0  0  0  0
   58.4110   29.2250   55.5110 C   0  0  0  0  0  0  0  0  0  0  0  0
   59.4600   29.3800   54.6100 C   0  0  0  0  0  0  0  0  0  0  0  0
   59.2070   29.5050   53.2800 N   0  0  0  0  0  0  0  0  0  0  0  0
   57.9400   29.4940   52.7720 C   0  0  0  0  0  0  0  0  0  0  0  0
   57.8050   29.6640   51.3820 O   0  0  0  0  0  0  0  0  0  0  0  0
   58.1610   30.8190   50.6320 C   0  0  0  0  0  0  0  0  0  0  0  0
  1  2  2  0
  2  3  1  0
  3  4  2  3
  4  5  1  0
  5  6  1  0
  6  7  1  0
  7  8  2  0
  7  9  1  0
  9 10  1  0
 10 11  1  0
  3 12  1  0
 12 13  2  0
 13 14  1  0
 13 15  1  0
 15 16  1  0
 16 17  2  0
 17 18  1  0
 18 19  2  0
 19 20  1  0
 20 21  2  0
 21 22  1  0
 22 23  1  0
 15  2  1  0
 21 16  1  0
 10  5  2  0
M  CHG  4   6  -1   9  -1  11  -1  20   1
M  END
>  <UniqueID>  (1270) 
72

>  <SMILES>  (1270) 
C=c1c(=Cc2[n-]c(=O)[n-]c2[O-])cc(C)n1-c1ccc[nH+]c1OC

>  <Energy>  (1270) 
118.3482470859376

>  <Genealogy>  (1270) 
C=c1c(=Cc2[n-]c(=O)[n-]c2[O-])cc(C)n1-c1ccc[nH+]c1OC (protonated)
C=c1c(=Cc2[n-]c(=O)[n-]c2[O-])cc(C)n1-c1ccc[nH+]c1OC (3D coordinates assigned)
C=c1c(=Cc2[n-]c(=O)[n-]c2[O-])cc(C)n1-c1ccc[nH+]c1OC (optimized conformer: 118.3482470859376 kcal/mol)

>  <smiles>  (1270) 
C=c1c(=Cc2[nH]c(=O)[nH]c2O)cc(C)n1-c1cccnc1OC

>  <score_type>  (1270) 
oracle

>  <origin>  (1270) 
adg

>  <m_score__min__energy>  (1270) 
-14.18

>  <m_primary>  (1270) 
energy

$$$$
77:0
     RDKit          3D

 27 29  0  0  0  0  0  0  0  0999 V2000
   60.2090   26.9230   47.1080 C   0  0  0  0  0  0  0  0  0  0  0  0
   59.2120   27.5950   46.5160 C   0  0  0  0  0  0  0  0  0  0  0  0
   59.4210   28.9380   45.9470 C   0  0  0  0  0  0  0  0  0  0  0  0
   60.5470   29.5020   46.0040 O   0  0  0  0  0  0  0  0  0  0  0  0
   58.3210   29.6120   45.3270 N   0  0  0  0  0  0  0  0  0  0  0  0
   57.0170   29.0090   45.2160 C   0  0  0  0  0  0  0  0  0  0  0  0
   55.9330   29.7720   44.5480 C   0  0  0  0  0  0  0  0  0  0  0  0
   54.8820   29.1760   44.1950 O   0  0  0  0  0  0  0  0  0  0  0  0
   56.0090   31.1940   44.3590 N   0  0  0  0  0  0  0  0  0  0  0  0
   57.0140   31.9580   44.6760 C   0  0  0  0  0  0  0  0  0  0  0  0
   57.9540   32.3670   43.7950 N   0  0  0  0  0  0  0  0  0  0  0  0
   58.7630   33.1480   44.5310 C   0  0  0  0  0  0  0  0  0  0  0  0
   58.2900   33.1860   45.8230 C   0  0  0  0  0  0  0  0  0  0  0  0
   58.8570   34.0010   46.9420 C   0  0  0  0  0  0  0  0  0  0  0  0
   60.1860   33.4390   47.3660 C   0  0  0  0  0  0  0  0  0  0  0  0
   60.2450   32.3430   48.2400 C   0  0  0  0  0  0  0  0  0  0  0  0
   61.4800   31.7960   48.6050 C   0  0  0  0  0  0  0  0  0  0  0  0
   62.6750   32.3360   48.0920 C   0  0  0  0  0  0  0  0  0  0  0  0
   63.9370   31.8240   48.4280 O   0  0  0  0  0  0  0  0  0  0  0  0
   64.7920   32.3820   49.4210 C   0  0  0  0  0  0  0  0  0  0  0  0
   62.6110   33.4210   47.2100 C   0  0  0  0  0  0  0  0  0  0  0  0
   61.3780   33.9670   46.8450 C   0  0  0  0  0  0  0  0  0  0  0  0
   57.1710   32.4470   45.9220 N   0  0  0  0  0  0  0  0  0  0  0  0
   56.7840   27.7830   45.7310 C   0  0  0  0  0  0  0  0  0  0  0  0
   55.5250   27.1980   45.6180 O   0  0  0  0  0  0  0  0  0  0  0  0
   57.8550   27.0210   46.4040 C   0  0  0  0  0  0  0  0  0  0  0  0
   57.5970   25.8810   46.8780 O   0  0  0  0  0  0  0  0  0  0  0  0
  1  2  2  0
  2  3  1  0
  3  4  2  0
  3  5  1  0
  5  6  1  0
  6  7  1  0
  7  8  2  0
  7  9  1  0
  9 10  2  3
 10 11  1  0
 11 12  1  0
 12 13  2  0
 13 14  1  0
 14 15  1  0
 15 16  2  0
 16 17  1  0
 17 18  2  0
 18 19  1  0
 19 20  1  0
 18 21  1  0
 21 22  2  0
 13 23  1  0
  6 24  2  0
 24 25  1  0
 24 26  1  0
 26 27  2  0
 26  2  1  0
 23 10  1  0
 22 15  1  0
M  CHG  3  11  -1  23  -1  25  -1
M  END
>  <UniqueID>  (1271) 
73

>  <SMILES>  (1271) 
C=C1C(=O)NC(C(=O)N=c2[n-]cc(Cc3ccc(OC)cc3)[n-]2)=C([O-])C1=O

>  <Energy>  (1271) 
74.40363666045755

>  <Genealogy>  (1271) 
C=C1C(=O)NC(C(=O)N=c2[n-]cc(Cc3ccc(OC)cc3)[n-]2)=C([O-])C1=O (protonated)
C=C1C(=O)NC(C(=O)N=c2[n-]cc(Cc3ccc(OC)cc3)[n-]2)=C([O-])C1=O (3D coordinates assigned)
C=C1C(=O)NC(C(=O)N=c2[n-]cc(Cc3ccc(OC)cc3)[n-]2)=C([O-])C1=O (nonaromatic ring conformer: 74.40363666045755 kcal/mol)

>  <smiles>  (1271) 
C=C1C(=O)NC(C(=O)N=c2[nH]cc(Cc3ccc(OC)cc3)[nH]2)=C(O)C1=O

>  <score_type>  (1271) 
oracle

>  <origin>  (1271) 
adg

>  <m_score__min__energy>  (1271) 
-14.949999999999999

>  <m_primary>  (1271) 
energy

$$$$
0:0
     RDKit          3D

 22 23  0  0  0  0  0  0  0  0999 V2000
   57.7200   26.5150   47.0710 C   0  0  0  0  0  0  0  0  0  0  0  0
   58.6030   26.9210   46.2030 N   0  0  0  0  0  0  0  0  0  0  0  0
   58.7420   28.2370   45.6420 C   0  0  0  0  0  0  0  0  0  0  0  0
   60.1670   28.6930   44.9480 S   0  0  0  0  0  0  0  0  0  0  0  0
   57.7660   29.2280   45.9960 N   0  0  0  0  0  0  0  0  0  0  0  0
   57.8280   30.5940   45.5510 C   0  0  0  0  0  0  0  0  0  0  0  0
   58.3980   31.5750   46.3920 C   0  0  0  0  0  0  0  0  0  0  0  0
   58.9410   31.2040   47.7440 C   0  0  0  0  0  0  0  0  0  0  0  0
   58.4640   32.9070   45.9550 C   0  0  0  0  0  0  0  0  0  0  0  0
   57.9760   33.2630   44.6980 C   0  0  0  0  0  0  0  0  0  0  0  0
   57.4030   32.2990   43.8690 C   0  0  0  0  0  0  0  0  0  0  0  0
   57.3030   30.9650   44.2920 C   0  0  0  0  0  0  0  0  0  0  0  0
   56.6640   29.9510   43.3830 C   0  0  0  0  0  0  0  0  0  0  0  0
   56.4790   25.7930   46.7140 C   0  0  0  0  0  0  0  0  0  0  0  0
   55.4680   26.4430   45.9900 C   0  0  0  0  0  0  0  0  0  0  0  0
   55.6050   27.7770   45.6250 O   0  0  0  0  0  0  0  0  0  0  0  0
   54.3380   25.7720   45.6500 N   0  0  0  0  0  0  0  0  0  0  0  0
   54.1700   24.4670   45.9870 C   0  0  0  0  0  0  0  0  0  0  0  0
   53.1110   23.8680   45.6670 O   0  0  0  0  0  0  0  0  0  0  0  0
   55.1450   23.8070   46.6620 N   0  0  0  0  0  0  0  0  0  0  0  0
   56.2960   24.4330   47.0220 C   0  0  0  0  0  0  0  0  0  0  0  0
   57.1940   23.7790   47.6150 O   0  0  0  0  0  0  0  0  0  0  0  0
  1  2  2  0
  2  3  1  0
  3  4  2  0
  3  5  1  0
  5  6  1  0
  6  7  2  0
  7  8  1  0
  7  9  1  0
  9 10  2  0
 10 11  1  0
 11 12  2  0
 12 13  1  0
  1 14  1  0
 14 15  2  0
 15 16  1  0
 15 17  1  0
 17 18  1  0
 18 19  2  0
 18 20  1  0
 20 21  1  0
 21 22  2  0
 12  6  1  0
 21 14  1  0
M  CHG  3  16  -1  17  -1  20  -1
M  END
>  <UniqueID>  (1272) 
1

>  <SMILES>  (1272) 
Cc1cccc(C)c1NC(=S)/N=C\c1c([O-])[n-]c(=O)[n-]c1=O

>  <Energy>  (1272) 
54.318104573935344

>  <Genealogy>  (1272) 
Cc1cccc(C)c1NC(=S)N=Cc1c([O-])[n-]c(=O)[n-]c1=O (protonated)
Cc1cccc(C)c1NC(=S)/N=C\c1c([O-])[n-]c(=O)[n-]c1=O (cis-trans isomerization)
Cc1cccc(C)c1NC(=S)/N=C\c1c([O-])[n-]c(=O)[n-]c1=O (3D coordinates assigned)
Cc1cccc(C)c1NC(=S)/N=C\c1c([O-])[n-]c(=O)[n-]c1=O (optimized conformer: 54.318104573935344 kcal/mol)

>  <smiles>  (1272) 
Cc1cccc(C)c1NC(=S)N=Cc1c(O)[nH]c(=O)[nH]c1=O

>  <score_type>  (1272) 
oracle

>  <origin>  (1272) 
adg

>  <m_score__min__energy>  (1272) 
-14.68

>  <m_primary>  (1272) 
energy

$$$$
10:0
     RDKit          3D

 33 36  0  0  0  0  0  0  0  0999 V2000
   67.9580   32.7920   51.9390 O   0  0  0  0  0  0  0  0  0  0  0  0
   66.5890   33.0960   51.9550 C   0  0  0  0  0  0  0  0  0  0  0  0
   65.9070   32.5950   50.7080 C   0  0  0  0  0  0  0  0  0  0  0  0
   66.3310   31.5370   50.1650 O   0  0  0  0  0  0  0  0  0  0  0  0
   64.7670   33.2780   50.1380 N   0  0  0  0  0  0  0  0  0  0  0  0
   64.3680   32.9450   48.7600 C   0  0  0  0  0  0  0  0  0  0  0  0
   63.2380   33.8490   48.2560 C   0  0  0  0  0  0  0  0  0  0  0  0
   62.1910   33.9590   49.2790 N   0  0  0  0  0  0  0  0  0  0  0  0
   60.8010   33.9820   48.9040 C   0  0  0  0  0  0  0  0  0  0  0  0
   60.0580   34.8950   49.3560 O   0  0  0  0  0  0  0  0  0  0  0  0
   60.2180   32.9420   48.0250 C   0  0  0  0  0  0  0  0  0  0  0  0
   60.7750   31.6510   47.9690 C   0  0  0  0  0  0  0  0  0  0  0  0
   60.2080   30.6700   47.1510 C   0  0  0  0  0  0  0  0  0  0  0  0
   59.0640   30.9530   46.3940 C   0  0  0  0  0  0  0  0  0  0  0  0
   58.4630   29.9370   45.5700 N   0  0  0  0  0  0  0  0  0  0  0  0
   57.8760   30.1380   44.3680 C   0  0  0  0  0  0  0  0  0  0  0  0
   57.7600   31.4630   43.6750 C   0  0  0  0  0  0  0  0  0  0  0  0
   57.3870   28.9500   43.8670 C   0  0  0  0  0  0  0  0  0  0  0  0
   57.7300   27.9600   44.7730 C   0  0  0  0  0  0  0  0  0  0  0  0
   57.4870   26.6540   44.5530 C   0  0  0  0  0  0  0  0  0  0  0  0
   56.9940   25.6940   45.5550 C   0  0  0  0  0  0  0  0  0  0  0  0
   57.6160   24.5490   45.8910 N   0  0  0  0  0  0  0  0  0  0  0  0
   56.7340   23.9460   46.7160 C   0  0  0  0  0  0  0  0  0  0  0  0
   56.9660   22.8350   47.2610 O   0  0  0  0  0  0  0  0  0  0  0  0
   55.5780   24.6190   46.9020 N   0  0  0  0  0  0  0  0  0  0  0  0
   55.7550   25.7150   46.1470 C   0  0  0  0  0  0  0  0  0  0  0  0
   54.7980   26.7100   45.9950 O   0  0  0  0  0  0  0  0  0  0  0  0
   58.3540   28.6120   45.8490 C   0  0  0  0  0  0  0  0  0  0  0  0
   58.6450   28.0890   47.0500 C   0  0  0  0  0  0  0  0  0  0  0  0
   58.4950   32.2340   46.4580 C   0  0  0  0  0  0  0  0  0  0  0  0
   59.0660   33.2190   47.2690 C   0  0  0  0  0  0  0  0  0  0  0  0
   62.5550   34.2430   50.6740 C   0  0  0  0  0  0  0  0  0  0  0  0
   64.0730   34.3590   50.8590 C   0  0  0  0  0  0  0  0  0  0  0  0
  1  2  1  0
  2  3  1  0
  3  4  2  0
  3  5  1  0
  5  6  1  0
  6  7  1  0
  7  8  1  0
  8  9  1  0
  9 10  2  0
  9 11  1  0
 11 12  2  0
 12 13  1  0
 13 14  2  0
 14 15  1  0
 15 16  1  0
 16 17  1  0
 16 18  2  0
 18 19  1  0
 19 20  2  0
 20 21  1  0
 21 22  1  0
 22 23  1  0
 23 24  2  0
 23 25  1  0
 25 26  1  0
 26 27  1  0
 19 28  1  0
 28 29  2  0
 14 30  1  0
 30 31  2  0
  8 32  1  0
 32 33  1  0
 33  5  1  0
 31 11  1  0
 28 15  1  0
 26 21  2  0
M  CHG  3  22  -1  25  -1  27  -1
M  END
>  <UniqueID>  (1273) 
9

>  <SMILES>  (1273) 
C=c1/c(=C\c2[n-]c(=O)[n-]c2[O-])cc(C)n1-c1ccc(C(=O)N2CCN(C(=O)CO)CC2)cc1

>  <Energy>  (1273) 
138.00390899977756

>  <Genealogy>  (1273) 
C=c1c(=Cc2[n-]c(=O)[n-]c2[O-])cc(C)n1-c1ccc(C(=O)N2CCN(C(=O)CO)CC2)cc1 (protonated)
C=c1/c(=C\c2[n-]c(=O)[n-]c2[O-])cc(C)n1-c1ccc(C(=O)N2CCN(C(=O)CO)CC2)cc1 (cis-trans isomerization)
C=c1/c(=C\c2[n-]c(=O)[n-]c2[O-])cc(C)n1-c1ccc(C(=O)N2CCN(C(=O)CO)CC2)cc1 (3D coordinates assigned)
C=c1/c(=C\c2[n-]c(=O)[n-]c2[O-])cc(C)n1-c1ccc(C(=O)N2CCN(C(=O)CO)CC2)cc1 (nonaromatic ring conformer: 138.00390899977756 kcal/mol)

>  <smiles>  (1273) 
C=c1c(=Cc2[nH]c(=O)[nH]c2O)cc(C)n1-c1ccc(C(=O)N2CCN(C(=O)CO)CC2)cc1

>  <score_type>  (1273) 
oracle

>  <origin>  (1273) 
adg

>  <m_score__min__energy>  (1273) 
-15.77

>  <m_primary>  (1273) 
energy

$$$$
11:0
     RDKit          3D

 31 34  0  0  0  0  0  0  0  0999 V2000
   59.0950   26.8260   47.4990 C   0  0  0  0  0  0  0  0  0  0  0  0
   58.5680   27.2220   46.3290 C   0  0  0  0  0  0  0  0  0  0  0  0
   57.7850   26.4630   45.4410 C   0  0  0  0  0  0  0  0  0  0  0  0
   57.4420   25.1600   45.4490 C   0  0  0  0  0  0  0  0  0  0  0  0
   56.0710   24.6290   45.3250 C   0  0  0  0  0  0  0  0  0  0  0  0
   54.9660   25.4480   45.5950 C   0  0  0  0  0  0  0  0  0  0  0  0
   55.1460   26.7550   46.0320 O   0  0  0  0  0  0  0  0  0  0  0  0
   53.7080   24.9630   45.4380 N   0  0  0  0  0  0  0  0  0  0  0  0
   53.4950   23.6930   45.0050 C   0  0  0  0  0  0  0  0  0  0  0  0
   52.3200   23.2650   44.8720 O   0  0  0  0  0  0  0  0  0  0  0  0
   54.5480   22.8880   44.7130 N   0  0  0  0  0  0  0  0  0  0  0  0
   55.8260   23.3270   44.8530 C   0  0  0  0  0  0  0  0  0  0  0  0
   56.7800   22.5600   44.5520 O   0  0  0  0  0  0  0  0  0  0  0  0
   57.3880   27.3310   44.4360 C   0  0  0  0  0  0  0  0  0  0  0  0
   57.9560   28.5560   44.7150 C   0  0  0  0  0  0  0  0  0  0  0  0
   57.8090   29.7800   43.8630 C   0  0  0  0  0  0  0  0  0  0  0  0
   58.6790   28.4890   45.8540 N   0  0  0  0  0  0  0  0  0  0  0  0
   59.3750   29.5920   46.4600 C   0  0  0  0  0  0  0  0  0  0  0  0
   60.7740   29.6190   46.4740 C   0  0  0  0  0  0  0  0  0  0  0  0
   61.4540   30.6960   47.0500 C   0  0  0  0  0  0  0  0  0  0  0  0
   60.7410   31.7720   47.6110 C   0  0  0  0  0  0  0  0  0  0  0  0
   61.4730   32.9050   48.2260 C   0  0  0  0  0  0  0  0  0  0  0  0
   61.2410   34.0800   47.8290 O   0  0  0  0  0  0  0  0  0  0  0  0
   62.4330   32.6870   49.2730 N   0  0  0  0  0  0  0  0  0  0  0  0
   63.3240   33.7580   49.7420 C   0  0  0  0  0  0  0  0  0  0  0  0
   64.7640   33.4670   49.3340 C   0  0  0  0  0  0  0  0  0  0  0  0
   65.3560   32.6260   50.4600 C   0  0  0  0  0  0  0  0  0  0  0  0
   64.4590   32.8280   51.6810 C   0  0  0  0  0  0  0  0  0  0  0  0
   63.3680   33.8080   51.2650 C   0  0  0  0  0  0  0  0  0  0  0  0
   59.3350   31.7360   47.6000 C   0  0  0  0  0  0  0  0  0  0  0  0
   58.6590   30.6570   47.0250 C   0  0  0  0  0  0  0  0  0  0  0  0
  1  2  2  0
  2  3  1  0
  3  4  2  3
  4  5  1  0
  5  6  2  0
  6  7  1  0
  6  8  1  0
  8  9  1  0
  9 10  2  0
  9 11  1  0
 11 12  1  0
 12 13  2  0
  3 14  1  0
 14 15  2  0
 15 16  1  0
 15 17  1  0
 17 18  1  0
 18 19  2  0
 19 20  1  0
 20 21  2  0
 21 22  1  0
 22 23  2  0
 22 24  1  0
 24 25  1  0
 25 26  1  0
 26 27  1  0
 27 28  1  0
 28 29  1  0
 21 30  1  0
 30 31  2  0
 17  2  1  0
 31 18  1  0
 12  5  1  0
 29 25  1  0
M  CHG  3   7  -1   8  -1  11  -1
M  END
>  <UniqueID>  (1274) 
10

>  <SMILES>  (1274) 
C=c1c(=Cc2c([O-])[n-]c(=O)[n-]c2=O)cc(C)n1-c1ccc(C(=O)NC2CCCC2)cc1

>  <Energy>  (1274) 
105.7915898430737

>  <Genealogy>  (1274) 
C=c1c(=Cc2c([O-])[n-]c(=O)[n-]c2=O)cc(C)n1-c1ccc(C(=O)NC2CCCC2)cc1 (protonated)
C=c1c(=Cc2c([O-])[n-]c(=O)[n-]c2=O)cc(C)n1-c1ccc(C(=O)NC2CCCC2)cc1 (3D coordinates assigned)
C=c1c(=Cc2c([O-])[n-]c(=O)[n-]c2=O)cc(C)n1-c1ccc(C(=O)NC2CCCC2)cc1 (nonaromatic ring conformer: 105.7915898430737 kcal/mol)

>  <smiles>  (1274) 
C=c1c(=Cc2c(O)[nH]c(=O)[nH]c2=O)cc(C)n1-c1ccc(C(=O)NC2CCCC2)cc1

>  <score_type>  (1274) 
oracle

>  <origin>  (1274) 
adg

>  <m_score__min__energy>  (1274) 
-15.949999999999999

>  <m_primary>  (1274) 
energy

$$$$
20:0
     RDKit          3D

 25 27  0  0  0  0  0  0  0  0999 V2000
   56.8180   30.2250   43.0520 O   0  0  0  0  0  0  0  0  0  0  0  0
   56.8320   30.0880   44.3050 C   0  0  0  0  0  0  0  0  0  0  0  0
   56.2420   28.9110   44.8740 N   0  0  0  0  0  0  0  0  0  0  0  0
   56.8450   27.9000   45.4360 C   0  0  0  0  0  0  0  0  0  0  0  0
   58.2040   27.9380   45.5150 N   0  0  0  0  0  0  0  0  0  0  0  0
   58.9350   26.9330   46.0660 C   0  0  0  0  0  0  0  0  0  0  0  0
   58.2950   25.8080   46.5830 C   0  0  0  0  0  0  0  0  0  0  0  0
   56.9040   25.7380   46.5420 C   0  0  0  0  0  0  0  0  0  0  0  0
   56.1620   26.7820   45.9830 C   0  0  0  0  0  0  0  0  0  0  0  0
   54.7750   26.6990   46.0130 O   0  0  0  0  0  0  0  0  0  0  0  0
   57.3760   31.1730   45.1620 C   0  0  0  0  0  0  0  0  0  0  0  0
   57.0170   32.5110   44.9250 C   0  0  0  0  0  0  0  0  0  0  0  0
   57.5270   33.5350   45.7290 C   0  0  0  0  0  0  0  0  0  0  0  0
   58.3980   33.2360   46.7770 C   0  0  0  0  0  0  0  0  0  0  0  0
   58.7730   31.9080   47.0270 C   0  0  0  0  0  0  0  0  0  0  0  0
   59.6860   31.5780   48.1780 C   0  0  0  0  0  0  0  0  0  0  0  0
   58.8830   31.2950   49.4230 C   0  0  0  0  0  0  0  0  0  0  0  0
   58.5260   32.3410   50.2860 C   0  0  0  0  0  0  0  0  0  0  0  0
   57.8310   32.0800   51.4230 N   0  0  0  0  0  0  0  0  0  0  0  0
   57.4770   30.8120   51.7500 C   0  0  0  0  0  0  0  0  0  0  0  0
   56.8320   30.5920   52.8080 O   0  0  0  0  0  0  0  0  0  0  0  0
   57.8190   29.7790   50.9380 N   0  0  0  0  0  0  0  0  0  0  0  0
   58.5130   29.9890   49.7890 C   0  0  0  0  0  0  0  0  0  0  0  0
   58.8180   29.0060   49.0630 O   0  0  0  0  0  0  0  0  0  0  0  0
   58.2510   30.8800   46.2260 C   0  0  0  0  0  0  0  0  0  0  0  0
  1  2  2  0
  2  3  1  0
  3  4  2  3
  4  5  1  0
  5  6  1  0
  6  7  2  0
  7  8  1  0
  8  9  2  0
  9 10  1  0
  2 11  1  0
 11 12  2  0
 12 13  1  0
 13 14  2  0
 14 15  1  0
 15 16  1  0
 16 17  1  0
 17 18  2  0
 18 19  1  0
 19 20  1  0
 20 21  2  0
 20 22  1  0
 22 23  1  0
 23 24  2  0
 15 25  2  0
  9  4  1  0
 25 11  1  0
 23 17  1  0
M  CHG  4   5  -1  10  -1  19  -1  22  -1
M  END
>  <UniqueID>  (1275) 
17

>  <SMILES>  (1275) 
O=C(N=c1[n-]cccc1[O-])c1cccc(Cc2c[n-]c(=O)[n-]c2=O)c1

>  <Energy>  (1275) 
53.26657451952067

>  <Genealogy>  (1275) 
O=C(N=c1[n-]cccc1[O-])c1cccc(Cc2c[n-]c(=O)[n-]c2=O)c1 (protonated)
O=C(N=c1[n-]cccc1[O-])c1cccc(Cc2c[n-]c(=O)[n-]c2=O)c1 (3D coordinates assigned)
O=C(N=c1[n-]cccc1[O-])c1cccc(Cc2c[n-]c(=O)[n-]c2=O)c1 (optimized conformer: 53.26657451952067 kcal/mol)

>  <smiles>  (1275) 
O=C(N=c1[nH]cccc1O)c1cccc(Cc2c[nH]c(=O)[nH]c2=O)c1

>  <score_type>  (1275) 
oracle

>  <origin>  (1275) 
adg

>  <m_score__min__energy>  (1275) 
-15.470000000000001

>  <m_primary>  (1275) 
energy

$$$$
21:0
     RDKit          3D

 36 39  0  0  0  0  0  0  0  0999 V2000
   58.4980   25.3590   47.2820 O   0  0  0  0  0  0  0  0  0  0  0  0
   57.3620   25.9360   46.7130 C   0  0  0  0  0  0  0  0  0  0  0  0
   56.2180   25.2570   46.5150 N   0  0  0  0  0  0  0  0  0  0  0  0
   55.4140   26.1820   45.9530 C   0  0  0  0  0  0  0  0  0  0  0  0
   54.2300   25.9320   45.6100 O   0  0  0  0  0  0  0  0  0  0  0  0
   55.9800   27.3970   45.7920 N   0  0  0  0  0  0  0  0  0  0  0  0
   57.2270   27.2370   46.2720 C   0  0  0  0  0  0  0  0  0  0  0  0
   58.2490   28.3050   46.3710 C   0  0  0  0  0  0  0  0  0  0  0  0
   58.7390   28.8070   47.5240 C   0  0  0  0  0  0  0  0  0  0  0  0
   59.2460   28.0930   48.6060 C   0  0  0  0  0  0  0  0  0  0  0  0
   59.6040   29.0200   49.5630 C   0  0  0  0  0  0  0  0  0  0  0  0
   60.1640   28.6740   50.9100 C   0  0  0  0  0  0  0  0  0  0  0  0
   59.3090   30.2700   49.1420 N   0  0  0  0  0  0  0  0  0  0  0  0
   59.5100   31.4820   49.8930 C   0  0  0  0  0  0  0  0  0  0  0  0
   60.6450   32.2630   49.6250 C   0  0  0  0  0  0  0  0  0  0  0  0
   60.9130   33.4090   50.3740 C   0  0  0  0  0  0  0  0  0  0  0  0
   60.0560   33.7800   51.4090 C   0  0  0  0  0  0  0  0  0  0  0  0
   58.9220   33.0140   51.6920 C   0  0  0  0  0  0  0  0  0  0  0  0
   58.6240   31.8670   50.9330 C   0  0  0  0  0  0  0  0  0  0  0  0
   57.3890   31.1040   51.2380 C   0  0  0  0  0  0  0  0  0  0  0  0
   56.2640   31.5830   50.9240 O   0  0  0  0  0  0  0  0  0  0  0  0
   57.4630   29.8210   51.8690 N   0  0  0  0  0  0  0  0  0  0  0  0
   56.7360   29.4990   53.0900 C   0  0  0  0  0  0  0  0  0  0  0  0
   55.4650   28.7120   52.7620 C   0  0  0  0  0  0  0  0  0  0  0  0
   54.2750   29.6270   52.6090 C   0  0  0  0  0  0  0  0  0  0  0  0
   53.7870   30.3440   53.7080 C   0  0  0  0  0  0  0  0  0  0  0  0
   52.6450   31.1360   53.5860 C   0  0  0  0  0  0  0  0  0  0  0  0
   51.9690   31.2290   52.3540 C   0  0  0  0  0  0  0  0  0  0  0  0
   50.8070   32.0010   52.1980 O   0  0  0  0  0  0  0  0  0  0  0  0
   50.0210   32.5000   53.2740 C   0  0  0  0  0  0  0  0  0  0  0  0
   52.4590   30.5270   51.2410 C   0  0  0  0  0  0  0  0  0  0  0  0
   51.7700   30.6420   50.0240 O   0  0  0  0  0  0  0  0  0  0  0  0
   51.8330   29.6880   48.9670 C   0  0  0  0  0  0  0  0  0  0  0  0
   53.6120   29.7280   51.3750 C   0  0  0  0  0  0  0  0  0  0  0  0
   58.7960   30.1590   47.8920 C   0  0  0  0  0  0  0  0  0  0  0  0
   58.3930   31.2070   47.1570 C   0  0  0  0  0  0  0  0  0  0  0  0
  1  2  1  0
  2  3  1  0
  3  4  1  0
  4  5  2  0
  4  6  1  0
  6  7  1  0
  7  8  1  0
  8  9  2  0
  9 10  1  0
 10 11  2  0
 11 12  1  0
 11 13  1  0
 13 14  1  0
 14 15  2  0
 15 16  1  0
 16 17  2  0
 17 18  1  0
 18 19  2  0
 19 20  1  0
 20 21  2  0
 20 22  1  0
 22 23  1  0
 23 24  1  0
 24 25  1  0
 25 26  2  0
 26 27  1  0
 27 28  2  0
 28 29  1  0
 29 30  1  0
 28 31  1  0
 31 32  1  0
 32 33  1  0
 31 34  2  0
 13 35  1  0
 35 36  2  0
  7  2  2  0
 35  9  1  0
 19 14  1  0
 34 25  1  0
M  CHG  3   3  -1   6  -1  22  -1
M  END
>  <UniqueID>  (1276) 
18

>  <SMILES>  (1276) 
C=c1/c(=C/c2[n-]c(=O)[n-]c2O)cc(C)n1-c1ccccc1C(=O)[N-]CCc1ccc(OC)c(OC)c1

>  <Energy>  (1276) 
126.31298853605237

>  <Genealogy>  (1276) 
C=c1c(=Cc2[n-]c(=O)[n-]c2O)cc(C)n1-c1ccccc1C(=O)[N-]CCc1ccc(OC)c(OC)c1 (protonated)
C=c1/c(=C/c2[n-]c(=O)[n-]c2O)cc(C)n1-c1ccccc1C(=O)[N-]CCc1ccc(OC)c(OC)c1 (cis-trans isomerization)
C=c1/c(=C/c2[n-]c(=O)[n-]c2O)cc(C)n1-c1ccccc1C(=O)[N-]CCc1ccc(OC)c(OC)c1 (3D coordinates assigned)
C=c1/c(=C/c2[n-]c(=O)[n-]c2O)cc(C)n1-c1ccccc1C(=O)[N-]CCc1ccc(OC)c(OC)c1 (optimized conformer: 126.31298853605237 kcal/mol)

>  <smiles>  (1276) 
C=c1c(=Cc2[nH]c(=O)[nH]c2O)cc(C)n1-c1ccccc1C(=O)NCCc1ccc(OC)c(OC)c1

>  <score_type>  (1276) 
oracle

>  <origin>  (1276) 
adg

>  <m_score__min__energy>  (1276) 
-14.630000000000001

>  <m_primary>  (1276) 
energy

$$$$
22:0
     RDKit          3D

 26 28  0  0  0  0  0  0  0  0999 V2000
   55.2700   26.3680   45.9570 N   0  0  0  0  0  0  0  0  0  0  0  0
   56.6470   26.5050   46.3150 C   0  0  0  0  0  0  0  0  0  0  0  0
   57.1290   25.7450   47.1970 O   0  0  0  0  0  0  0  0  0  0  0  0
   57.4990   27.5580   45.7120 C   0  0  0  0  0  0  0  0  0  0  0  0
   58.8820   27.3370   45.6000 C   0  0  0  0  0  0  0  0  0  0  0  0
   59.7140   28.3170   45.0610 C   0  0  0  0  0  0  0  0  0  0  0  0
   59.1800   29.5290   44.6280 C   0  0  0  0  0  0  0  0  0  0  0  0
   57.7980   29.7650   44.7050 C   0  0  0  0  0  0  0  0  0  0  0  0
   57.2120   30.9930   44.2500 N   0  0  0  0  0  0  0  0  0  0  0  0
   57.5240   32.5620   44.9160 S   0  0  0  0  0  0  0  0  0  0  0  0
   57.8260   33.5200   43.8000 O   0  0  0  0  0  0  0  0  0  0  0  0
   56.3000   33.0460   45.6430 O   0  0  0  0  0  0  0  0  0  0  0  0
   58.9150   32.4870   45.9960 C   0  0  0  0  0  0  0  0  0  0  0  0
   59.0120   31.4920   46.9760 C   0  0  0  0  0  0  0  0  0  0  0  0
   60.1300   31.4360   47.8130 C   0  0  0  0  0  0  0  0  0  0  0  0
   61.1550   32.3890   47.6940 C   0  0  0  0  0  0  0  0  0  0  0  0
   62.3160   32.3140   48.5430 N   0  0  0  0  0  0  0  0  0  0  0  0
   62.3840   31.6060   49.8170 C   0  0  0  0  0  0  0  0  0  0  0  0
   63.8780   31.6180   50.2220 C   0  0  0  0  0  0  0  0  0  0  0  0
   64.5760   32.4030   49.2100 N   0  0  0  0  0  0  0  0  0  0  0  0
   63.6170   32.7790   48.2460 C   0  0  0  0  0  0  0  0  0  0  0  0
   63.8920   33.5090   47.2560 O   0  0  0  0  0  0  0  0  0  0  0  0
   61.0520   33.3870   46.7100 C   0  0  0  0  0  0  0  0  0  0  0  0
   59.9410   33.4310   45.8650 C   0  0  0  0  0  0  0  0  0  0  0  0
   56.9570   28.7690   45.2310 C   0  0  0  0  0  0  0  0  0  0  0  0
   55.5820   28.9840   45.2450 O   0  0  0  0  0  0  0  0  0  0  0  0
  1  2  1  0
  2  3  2  0
  2  4  1  0
  4  5  2  0
  5  6  1  0
  6  7  2  0
  7  8  1  0
  8  9  1  0
  9 10  1  0
 10 11  2  0
 10 12  2  0
 10 13  1  0
 13 14  2  0
 14 15  1  0
 15 16  2  0
 16 17  1  0
 17 18  1  0
 18 19  1  0
 19 20  1  0
 20 21  1  0
 21 22  2  0
 16 23  1  0
 23 24  2  0
  8 25  2  0
 25 26  1  0
 25  4  1  0
 24 13  1  0
 21 17  1  0
M  CHG  3   9  -1  20  -1  26  -1
M  END
>  <UniqueID>  (1277) 
19

>  <SMILES>  (1277) 
NC(=O)c1cccc([N-]S(=O)(=O)c2ccc(N3CC[N-]C3=O)cc2)c1[O-]

>  <Energy>  (1277) 
65.59705962649413

>  <Genealogy>  (1277) 
NC(=O)c1cccc([N-]S(=O)(=O)c2ccc(N3CC[N-]C3=O)cc2)c1[O-] (protonated)
NC(=O)c1cccc([N-]S(=O)(=O)c2ccc(N3CC[N-]C3=O)cc2)c1[O-] (3D coordinates assigned)
NC(=O)c1cccc([N-]S(=O)(=O)c2ccc(N3CC[N-]C3=O)cc2)c1[O-] (nonaromatic ring conformer: 65.59705962649413 kcal/mol)

>  <smiles>  (1277) 
NC(=O)c1cccc(NS(=O)(=O)c2ccc(N3CCNC3=O)cc2)c1O

>  <score_type>  (1277) 
oracle

>  <origin>  (1277) 
adg

>  <m_score__min__energy>  (1277) 
-14.710000000000001

>  <m_primary>  (1277) 
energy

$$$$
43:0
     RDKit          3D

 25 27  0  0  0  0  0  0  0  0999 V2000
   60.6840   30.5200   46.6380 C   0  0  0  0  0  0  0  0  0  0  0  0
   59.4930   30.3100   46.0360 C   0  0  0  0  0  0  0  0  0  0  0  0
   59.1340   28.9970   45.6430 C   0  0  0  0  0  0  0  0  0  0  0  0
   59.9420   28.0420   45.8160 O   0  0  0  0  0  0  0  0  0  0  0  0
   57.8790   28.7840   45.0270 C   0  0  0  0  0  0  0  0  0  0  0  0
   57.4170   27.5800   44.6260 C   0  0  0  0  0  0  0  0  0  0  0  0
   57.3790   26.3510   45.4430 C   0  0  0  0  0  0  0  0  0  0  0  0
   58.5160   25.5320   45.5030 C   0  0  0  0  0  0  0  0  0  0  0  0
   58.4920   24.3450   46.2410 C   0  0  0  0  0  0  0  0  0  0  0  0
   57.3250   23.9590   46.9090 C   0  0  0  0  0  0  0  0  0  0  0  0
   57.3030   22.7800   47.6440 O   0  0  0  0  0  0  0  0  0  0  0  0
   56.1790   24.7570   46.8330 C   0  0  0  0  0  0  0  0  0  0  0  0
   56.1980   25.9460   46.0950 C   0  0  0  0  0  0  0  0  0  0  0  0
   55.0420   26.7150   46.0080 O   0  0  0  0  0  0  0  0  0  0  0  0
   57.0830   29.8580   44.7980 N   0  0  0  0  0  0  0  0  0  0  0  0
   57.4280   31.1140   45.1630 C   0  0  0  0  0  0  0  0  0  0  0  0
   56.6290   32.0600   44.9200 O   0  0  0  0  0  0  0  0  0  0  0  0
   58.6210   31.3510   45.7910 N   0  0  0  0  0  0  0  0  0  0  0  0
   58.9320   32.7070   46.1740 C   0  0  0  0  0  0  0  0  0  0  0  0
   59.2250   33.6630   45.1880 C   0  0  0  0  0  0  0  0  0  0  0  0
   59.5270   34.9780   45.5550 C   0  0  0  0  0  0  0  0  0  0  0  0
   59.5370   35.3450   46.9030 C   0  0  0  0  0  0  0  0  0  0  0  0
   59.2430   34.3970   47.8890 C   0  0  0  0  0  0  0  0  0  0  0  0
   58.9400   33.0800   47.5290 C   0  0  0  0  0  0  0  0  0  0  0  0
   58.6490   32.1450   48.5150 O   0  0  0  0  0  0  0  0  0  0  0  0
  1  2  2  0
  2  3  1  0
  3  4  2  0
  3  5  1  0
  5  6  2  3
  6  7  1  0
  7  8  2  0
  8  9  1  0
  9 10  2  0
 10 11  1  0
 10 12  1  0
 12 13  2  0
 13 14  1  0
  5 15  1  0
 15 16  1  0
 16 17  2  0
 16 18  1  0
 18 19  1  0
 19 20  2  0
 20 21  1  0
 21 22  2  0
 22 23  1  0
 23 24  2  0
 24 25  1  0
 18  2  1  0
 24 19  1  0
 13  7  1  0
M  CHG  4  11  -1  14  -1  15  -1  25  -1
M  END
>  <UniqueID>  (1278) 
37

>  <SMILES>  (1278) 
C=c1c(=O)c(=Cc2ccc([O-])cc2[O-])[n-]c(=O)n1-c1ccccc1[O-]

>  <Energy>  (1278) 
67.76825307416819

>  <Genealogy>  (1278) 
C=c1c(=O)c(=Cc2ccc([O-])cc2[O-])[n-]c(=O)n1-c1ccccc1[O-] (protonated)
C=c1c(=O)c(=Cc2ccc([O-])cc2[O-])[n-]c(=O)n1-c1ccccc1[O-] (3D coordinates assigned)
C=c1c(=O)c(=Cc2ccc([O-])cc2[O-])[n-]c(=O)n1-c1ccccc1[O-] (optimized conformer: 67.76825307416819 kcal/mol)

>  <smiles>  (1278) 
C=c1c(=O)c(=Cc2ccc(O)cc2O)[nH]c(=O)n1-c1ccccc1O

>  <score_type>  (1278) 
oracle

>  <origin>  (1278) 
adg

>  <m_score__min__energy>  (1278) 
-16.140000000000001

>  <m_primary>  (1278) 
energy

$$$$
58:0
     RDKit          3D

 29 32  0  0  0  0  0  0  0  0999 V2000
   55.0530   26.4320   46.1560 O   0  0  0  0  0  0  0  0  0  0  0  0
   55.9820   25.4030   46.3190 C   0  0  0  0  0  0  0  0  0  0  0  0
   55.5530   24.2160   46.8210 N   0  0  0  0  0  0  0  0  0  0  0  0
   56.4100   23.1860   47.0300 C   0  0  0  0  0  0  0  0  0  0  0  0
   55.9840   22.0980   47.4940 O   0  0  0  0  0  0  0  0  0  0  0  0
   57.7290   23.3300   46.7450 N   0  0  0  0  0  0  0  0  0  0  0  0
   58.2140   24.4920   46.2380 C   0  0  0  0  0  0  0  0  0  0  0  0
   59.4450   24.5900   45.9860 O   0  0  0  0  0  0  0  0  0  0  0  0
   57.3440   25.5650   45.9860 C   0  0  0  0  0  0  0  0  0  0  0  0
   57.8720   26.8340   45.4480 C   0  0  0  0  0  0  0  0  0  0  0  0
   58.5740   27.7510   46.1440 C   0  0  0  0  0  0  0  0  0  0  0  0
   58.3190   28.0320   47.4740 C   0  0  0  0  0  0  0  0  0  0  0  0
   59.1610   29.0610   47.8360 C   0  0  0  0  0  0  0  0  0  0  0  0
   59.2200   29.6560   49.2120 C   0  0  0  0  0  0  0  0  0  0  0  0
   59.9350   29.4330   46.7890 N   0  0  0  0  0  0  0  0  0  0  0  0
   60.9670   30.4860   46.8040 C   0  0  0  0  0  0  0  0  0  0  0  0
   60.3570   31.8640   47.0490 C   0  0  0  0  0  0  0  0  0  0  0  0
   60.9310   32.6770   48.0570 C   0  0  0  0  0  0  0  0  0  0  0  0
   62.0600   32.2600   48.7540 O   0  0  0  0  0  0  0  0  0  0  0  0
   60.3800   33.9150   48.3780 C   0  0  0  0  0  0  0  0  0  0  0  0
   59.2660   34.3900   47.6990 C   0  0  0  0  0  0  0  0  0  0  0  0
   58.7000   33.6440   46.6600 C   0  0  0  0  0  0  0  0  0  0  0  0
   57.5930   34.1610   45.9680 C   0  0  0  0  0  0  0  0  0  0  0  0
   57.0300   33.4510   44.9110 C   0  0  0  0  0  0  0  0  0  0  0  0
   57.5710   32.2270   44.5270 C   0  0  0  0  0  0  0  0  0  0  0  0
   58.6690   31.6950   45.2050 C   0  0  0  0  0  0  0  0  0  0  0  0
   59.2500   32.3790   46.3020 C   0  0  0  0  0  0  0  0  0  0  0  0
   59.6200   28.6040   45.7550 C   0  0  0  0  0  0  0  0  0  0  0  0
   60.3050   28.5720   44.6010 C   0  0  0  0  0  0  0  0  0  0  0  0
  1  2  1  0
  2  3  1  0
  3  4  1  0
  4  5  2  0
  4  6  1  0
  6  7  1  0
  7  8  2  0
  7  9  1  0
  9 10  1  0
 10 11  2  0
 11 12  1  0
 12 13  2  0
 13 14  1  0
 13 15  1  0
 15 16  1  0
 16 17  1  0
 17 18  2  0
 18 19  1  0
 18 20  1  0
 20 21  2  0
 21 22  1  0
 22 23  2  0
 23 24  1  0
 24 25  2  0
 25 26  1  0
 26 27  2  0
 15 28  1  0
 28 29  2  0
  9  2  2  0
 28 11  1  0
 27 17  1  0
 27 22  1  0
M  CHG  3   3  -1   6  -1  19  -1
M  END
>  <UniqueID>  (1279) 
52

>  <SMILES>  (1279) 
C=c1/c(=C\c2c(O)[n-]c(=O)[n-]c2=O)cc(C)n1Cc1c([O-])ccc2ccccc12

>  <Energy>  (1279) 
102.51412442327616

>  <Genealogy>  (1279) 
C=c1c(=Cc2c(O)[n-]c(=O)[n-]c2=O)cc(C)n1Cc1c([O-])ccc2ccccc12 (protonated)
C=c1/c(=C\c2c(O)[n-]c(=O)[n-]c2=O)cc(C)n1Cc1c([O-])ccc2ccccc12 (cis-trans isomerization)
C=c1/c(=C\c2c(O)[n-]c(=O)[n-]c2=O)cc(C)n1Cc1c([O-])ccc2ccccc12 (3D coordinates assigned)
C=c1/c(=C\c2c(O)[n-]c(=O)[n-]c2=O)cc(C)n1Cc1c([O-])ccc2ccccc12 (optimized conformer: 102.51412442327616 kcal/mol)

>  <smiles>  (1279) 
C=c1c(=Cc2c(O)[nH]c(=O)[nH]c2=O)cc(C)n1Cc1c(O)ccc2ccccc12

>  <score_type>  (1279) 
oracle

>  <origin>  (1279) 
adg

>  <m_score__min__energy>  (1279) 
-14.640000000000001

>  <m_primary>  (1279) 
energy

$$$$
75:0
     RDKit          3D

 24 26  0  0  0  0  0  0  0  0999 V2000
   55.4330   29.1410   44.8080 N   0  0  0  0  0  0  0  0  0  0  0  0
   56.3980   30.1900   44.7670 C   0  0  0  0  0  0  0  0  0  0  0  0
   56.1230   31.2470   44.1420 O   0  0  0  0  0  0  0  0  0  0  0  0
   57.7100   30.0180   45.4350 C   0  0  0  0  0  0  0  0  0  0  0  0
   58.5280   31.0560   45.9770 C   0  0  0  0  0  0  0  0  0  0  0  0
   58.2350   32.5480   46.0210 C   0  0  0  0  0  0  0  0  0  0  0  0
   59.0770   33.2990   47.0480 C   0  0  0  0  0  0  0  0  0  0  0  0
   59.2320   34.7030   46.4890 C   0  0  0  0  0  0  0  0  0  0  0  0
   59.1480   34.5700   44.9740 C   0  0  0  0  0  0  0  0  0  0  0  0
   58.3800   33.2820   44.6830 C   0  0  0  0  0  0  0  0  0  0  0  0
   59.7270   30.5740   46.5050 C   0  0  0  0  0  0  0  0  0  0  0  0
   59.7840   28.9090   46.3320 S   0  0  0  0  0  0  0  0  0  0  0  0
   58.2780   28.7540   45.6100 C   0  0  0  0  0  0  0  0  0  0  0  0
   57.7600   27.5450   45.0420 N   0  0  0  0  0  0  0  0  0  0  0  0
   57.7210   26.2550   45.6630 C   0  0  0  0  0  0  0  0  0  0  0  0
   58.1240   26.1500   46.8520 O   0  0  0  0  0  0  0  0  0  0  0  0
   57.3950   25.0060   44.8860 C   0  0  0  0  0  0  0  0  0  0  0  0
   55.9600   24.6100   45.0620 C   0  0  0  0  0  0  0  0  0  0  0  0
   55.3290   23.0840   44.7230 S   0  0  0  0  0  0  0  0  0  0  0  0
   53.7930   23.5090   45.2550 C   0  0  0  0  0  0  0  0  0  0  0  0
   52.8010   22.7350   45.2490 O   0  0  0  0  0  0  0  0  0  0  0  0
   53.7300   24.7820   45.7000 N   0  0  0  0  0  0  0  0  0  0  0  0
   54.9400   25.3950   45.5970 C   0  0  0  0  0  0  0  0  0  0  0  0
   55.1310   26.7110   46.0020 O   0  0  0  0  0  0  0  0  0  0  0  0
  1  2  1  0
  2  3  2  0
  2  4  1  0
  4  5  1  0
  5  6  1  0
  6  7  1  0
  7  8  1  0
  8  9  1  0
  9 10  1  0
  5 11  2  0
 11 12  1  0
 12 13  1  0
 13 14  1  0
 14 15  1  0
 15 16  2  0
 15 17  1  0
 17 18  1  0
 18 19  1  0
 19 20  1  0
 20 21  2  0
 20 22  1  0
 22 23  1  0
 23 24  1  0
 13  4  2  0
 23 18  2  0
 10  6  1  0
M  CHG  3   1  -1  14  -1  22  -1
M  END
>  <UniqueID>  (1280) 
66

>  <SMILES>  (1280) 
[NH-]C(=O)c1c(C2CCCC2)csc1[N-]C(=O)Cc1sc(=O)[n-]c1O

>  <Energy>  (1280) 
106.59828556065719

>  <Genealogy>  (1280) 
[NH-]C(=O)c1c(C2CCCC2)csc1[N-]C(=O)Cc1sc(=O)[n-]c1O (protonated)
[NH-]C(=O)c1c(C2CCCC2)csc1[N-]C(=O)Cc1sc(=O)[n-]c1O (3D coordinates assigned)
[NH-]C(=O)c1c(C2CCCC2)csc1[N-]C(=O)Cc1sc(=O)[n-]c1O (nonaromatic ring conformer: 106.59828556065719 kcal/mol)

>  <smiles>  (1280) 
NC(=O)c1c(C2CCCC2)csc1NC(=O)Cc1sc(=O)[nH]c1O

>  <score_type>  (1280) 
oracle

>  <origin>  (1280) 
adg

>  <m_score__min__energy>  (1280) 
-16.100000000000001

>  <m_primary>  (1280) 
energy

$$$$
82:0
     RDKit          3D

 32 35  0  0  0  0  0  0  0  0999 V2000
   58.5300   29.0640   47.1950 C   0  0  0  0  0  0  0  0  0  0  0  0
   58.2140   29.6140   46.0130 C   0  0  0  0  0  0  0  0  0  0  0  0
   57.5580   29.0040   44.9300 C   0  0  0  0  0  0  0  0  0  0  0  0
   57.1780   27.7260   44.7260 C   0  0  0  0  0  0  0  0  0  0  0  0
   57.2220   26.6450   45.7290 C   0  0  0  0  0  0  0  0  0  0  0  0
   56.0510   26.1870   46.3550 C   0  0  0  0  0  0  0  0  0  0  0  0
   54.8100   26.7140   46.0150 O   0  0  0  0  0  0  0  0  0  0  0  0
   56.1270   25.2210   47.3070 N   0  0  0  0  0  0  0  0  0  0  0  0
   57.3220   24.6970   47.6800 C   0  0  0  0  0  0  0  0  0  0  0  0
   57.3680   23.8000   48.5610 O   0  0  0  0  0  0  0  0  0  0  0  0
   58.4700   25.1440   47.1080 N   0  0  0  0  0  0  0  0  0  0  0  0
   58.4480   26.1080   46.1510 C   0  0  0  0  0  0  0  0  0  0  0  0
   59.5320   26.5050   45.6470 O   0  0  0  0  0  0  0  0  0  0  0  0
   57.3470   30.0020   43.9910 C   0  0  0  0  0  0  0  0  0  0  0  0
   57.9010   31.1560   44.5020 C   0  0  0  0  0  0  0  0  0  0  0  0
   57.9190   32.4810   43.8010 C   0  0  0  0  0  0  0  0  0  0  0  0
   58.4400   30.9200   45.7180 N   0  0  0  0  0  0  0  0  0  0  0  0
   59.0580   31.9090   46.5590 C   0  0  0  0  0  0  0  0  0  0  0  0
   60.4090   31.7840   46.9100 C   0  0  0  0  0  0  0  0  0  0  0  0
   61.0250   32.7410   47.7380 C   0  0  0  0  0  0  0  0  0  0  0  0
   62.4600   32.6310   48.1070 C   0  0  0  0  0  0  0  0  0  0  0  0
   63.3030   32.4140   47.1910 O   0  0  0  0  0  0  0  0  0  0  0  0
   62.8970   32.7020   49.4890 N   0  0  0  0  0  0  0  0  0  0  0  0
   62.9720   34.1120   49.9500 C   0  0  0  0  0  0  0  0  0  0  0  0
   63.8700   34.2350   51.1880 C   0  0  0  0  0  0  0  0  0  0  0  0
   65.2600   33.8310   50.9010 N   0  0  0  0  0  0  0  0  0  0  0  0
   65.3890   32.8770   49.7840 C   0  0  0  0  0  0  0  0  0  0  0  0
   64.1680   31.9490   49.6750 C   0  0  0  0  0  0  0  0  0  0  0  0
   60.2660   33.8340   48.1940 C   0  0  0  0  0  0  0  0  0  0  0  0
   58.9190   33.9560   47.8480 C   0  0  0  0  0  0  0  0  0  0  0  0
   58.3120   32.9970   47.0340 C   0  0  0  0  0  0  0  0  0  0  0  0
   57.0070   33.1360   46.6920 F   0  0  0  0  0  0  0  0  0  0  0  0
  1  2  2  0
  2  3  1  0
  3  4  2  3
  4  5  1  0
  5  6  2  0
  6  7  1  0
  6  8  1  0
  8  9  1  0
  9 10  2  0
  9 11  1  0
 11 12  1  0
 12 13  2  0
  3 14  1  0
 14 15  2  0
 15 16  1  0
 15 17  1  0
 17 18  1  0
 18 19  2  0
 19 20  1  0
 20 21  1  0
 21 22  2  0
 21 23  1  0
 23 24  1  0
 24 25  1  0
 25 26  1  0
 26 27  1  0
 27 28  1  0
 20 29  2  0
 29 30  1  0
 30 31  2  0
 31 32  1  0
 17  2  1  0
 31 18  1  0
 12  5  1  0
 28 23  1  0
M  CHG  4   7  -1   8  -1  11  -1  23   1
M  END
>  <UniqueID>  (1281) 
73

>  <SMILES>  (1281) 
C=c1c(=Cc2c([O-])[n-]c(=O)[n-]c2=O)cc(C)n1-c1cc(C(=O)[NH+]2CCNCC2)ccc1F

>  <Energy>  (1281) 
120.09688380400145

>  <Genealogy>  (1281) 
C=c1c(=Cc2c([O-])[n-]c(=O)[n-]c2=O)cc(C)n1-c1cc(C(=O)[NH+]2CCNCC2)ccc1F (protonated)
C=c1c(=Cc2c([O-])[n-]c(=O)[n-]c2=O)cc(C)n1-c1cc(C(=O)[NH+]2CCNCC2)ccc1F (3D coordinates assigned)
C=c1c(=Cc2c([O-])[n-]c(=O)[n-]c2=O)cc(C)n1-c1cc(C(=O)[NH+]2CCNCC2)ccc1F (nonaromatic ring conformer: 120.09688380400145 kcal/mol)

>  <smiles>  (1281) 
C=c1c(=Cc2c(O)[nH]c(=O)[nH]c2=O)cc(C)n1-c1cc(C(=O)N2CCNCC2)ccc1F

>  <score_type>  (1281) 
oracle

>  <origin>  (1281) 
adg

>  <m_score__min__energy>  (1281) 
-15.720000000000001

>  <m_primary>  (1281) 
energy

$$$$
88:0
     RDKit          3D

 41 45  0  0  0  0  0  0  0  0999 V2000
   51.9880   30.1670   49.6950 O   0  0  0  0  0  0  0  0  0  0  0  0
   51.7070   30.9870   50.7840 C   0  0  0  0  0  0  0  0  0  0  0  0
   50.7860   31.9650   50.7560 N   0  0  0  0  0  0  0  0  0  0  0  0
   50.8470   32.4670   52.0070 C   0  0  0  0  0  0  0  0  0  0  0  0
   50.1190   33.4200   52.3910 O   0  0  0  0  0  0  0  0  0  0  0  0
   51.7400   31.8630   52.8170 N   0  0  0  0  0  0  0  0  0  0  0  0
   52.3040   30.9330   52.0230 C   0  0  0  0  0  0  0  0  0  0  0  0
   53.2480   29.9020   52.4920 C   0  0  0  0  0  0  0  0  0  0  0  0
   54.5850   30.0450   52.5600 C   0  0  0  0  0  0  0  0  0  0  0  0
   55.2300   31.2280   52.2390 C   0  0  0  0  0  0  0  0  0  0  0  0
   56.5860   30.9760   52.3100 C   0  0  0  0  0  0  0  0  0  0  0  0
   57.6540   31.9750   51.9890 C   0  0  0  0  0  0  0  0  0  0  0  0
   56.8070   29.7020   52.7100 N   0  0  0  0  0  0  0  0  0  0  0  0
   58.0960   29.0920   52.9020 C   0  0  0  0  0  0  0  0  0  0  0  0
   59.0860   29.2240   51.9210 C   0  0  0  0  0  0  0  0  0  0  0  0
   60.3400   28.6340   52.0980 C   0  0  0  0  0  0  0  0  0  0  0  0
   60.6250   27.9060   53.2660 C   0  0  0  0  0  0  0  0  0  0  0  0
   61.9510   27.2680   53.4440 C   0  0  0  0  0  0  0  0  0  0  0  0
   62.0150   26.0770   53.8570 O   0  0  0  0  0  0  0  0  0  0  0  0
   63.1660   27.9830   53.1640 N   0  0  0  0  0  0  0  0  0  0  0  0
   64.3470   27.7320   54.0030 C   0  0  0  0  0  0  0  0  0  0  0  0
   65.2340   28.9770   54.0510 C   0  0  0  0  0  0  0  0  0  0  0  0
   65.4640   29.4640   52.6890 N   0  0  0  0  0  0  0  0  0  0  0  0
   66.7380   29.2590   52.0470 C   0  0  0  0  0  0  0  0  0  0  0  0
   67.4660   28.2920   52.4020 O   0  0  0  0  0  0  0  0  0  0  0  0
   67.1870   30.1530   50.9180 C   0  0  0  0  0  0  0  0  0  0  0  0
   67.1550   31.6500   51.2790 C   0  0  0  0  0  0  0  0  0  0  0  0
   65.7600   32.3030   51.1160 C   0  0  0  0  0  0  0  0  0  0  0  0
   65.8570   33.8260   51.3720 C   0  0  0  0  0  0  0  0  0  0  0  0
   64.4780   34.4510   51.6150 C   0  0  0  0  0  0  0  0  0  0  0  0
   63.3190   33.9370   50.3600 S   0  0  0  0  0  0  0  0  0  0  0  0
   62.2790   33.0350   50.9610 O   0  0  0  0  0  0  0  0  0  0  0  0
   62.6540   35.1400   49.7510 O   0  0  0  0  0  0  0  0  0  0  0  0
   64.2350   33.0570   49.1140 C   0  0  0  0  0  0  0  0  0  0  0  0
   65.1280   31.9640   49.7290 C   0  0  0  0  0  0  0  0  0  0  0  0
   64.2680   29.7900   51.9050 C   0  0  0  0  0  0  0  0  0  0  0  0
   63.3720   28.5520   51.8240 C   0  0  0  0  0  0  0  0  0  0  0  0
   59.6230   27.7670   54.2450 C   0  0  0  0  0  0  0  0  0  0  0  0
   58.3700   28.3590   54.0640 C   0  0  0  0  0  0  0  0  0  0  0  0
   55.5910   29.1270   52.8990 C   0  0  0  0  0  0  0  0  0  0  0  0
   55.4270   27.9310   53.4850 C   0  0  0  0  0  0  0  0  0  0  0  0
  1  2  1  0
  2  3  1  0
  3  4  1  0
  4  5  2  0
  4  6  1  0
  6  7  1  0
  7  8  1  0
  8  9  2  0
  9 10  1  0
 10 11  2  0
 11 12  1  0
 11 13  1  0
 13 14  1  0
 14 15  2  0
 15 16  1  0
 16 17  2  0
 17 18  1  0
 18 19  2  0
 18 20  1  0
 20 21  1  0
 21 22  1  0
 22 23  1  0
 23 24  1  0
 24 25  2  0
 24 26  1  0
 26 27  1  0
 27 28  1  0
 28 29  1  0
 29 30  1  0
 30 31  1  0
 31 32  2  0
 31 33  2  0
 31 34  1  0
 34 35  1  0
 23 36  1  0
 36 37  1  0
 17 38  1  0
 38 39  2  0
 13 40  1  0
 40 41  2  0
  7  2  2  0
 40  9  1  0
 39 14  1  0
 37 20  1  0
 35 28  1  0
M  CHG  2   3  -1   6  -1
M  END
>  <UniqueID>  (1282) 
79

>  <SMILES>  (1282) 
C=c1/c(=C\c2[n-]c(=O)[n-]c2O)cc(C)n1-c1ccc(C(=O)N2CCN(C(=O)CCC3CCS(=O)(=O)CC3)CC2)cc1

>  <Energy>  (1282) 
153.13755077838778

>  <Genealogy>  (1282) 
C=c1c(=Cc2[n-]c(=O)[n-]c2O)cc(C)n1-c1ccc(C(=O)N2CCN(C(=O)CCC3CCS(=O)(=O)CC3)CC2)cc1 (protonated)
C=c1/c(=C\c2[n-]c(=O)[n-]c2O)cc(C)n1-c1ccc(C(=O)N2CCN(C(=O)CCC3CCS(=O)(=O)CC3)CC2)cc1 (cis-trans isomerization)
C=c1/c(=C\c2[n-]c(=O)[n-]c2O)cc(C)n1-c1ccc(C(=O)N2CCN(C(=O)CCC3CCS(=O)(=O)CC3)CC2)cc1 (3D coordinates assigned)
C=c1/c(=C\c2[n-]c(=O)[n-]c2O)cc(C)n1-c1ccc(C(=O)N2CCN(C(=O)CCC3CCS(=O)(=O)CC3)CC2)cc1 (nonaromatic ring conformer: 153.13755077838778 kcal/mol)

>  <smiles>  (1282) 
C=c1c(=Cc2[nH]c(=O)[nH]c2O)cc(C)n1-c1ccc(C(=O)N2CCN(C(=O)CCC3CCS(=O)(=O)CC3)CC2)cc1

>  <score_type>  (1282) 
oracle

>  <origin>  (1282) 
adg

>  <m_score__min__energy>  (1282) 
-15.48

>  <m_primary>  (1282) 
energy

$$$$
1:0
     RDKit          3D

 29 31  0  0  0  0  0  0  0  0999 V2000
   54.8180   26.3220   45.9830 O   0  0  0  0  0  0  0  0  0  0  0  0
   56.0580   26.1170   45.9000 C   0  0  0  0  0  0  0  0  0  0  0  0
   57.0310   27.1760   46.3550 C   0  0  0  0  0  0  0  0  0  0  0  0
   57.3680   28.0930   45.2680 N   0  0  0  0  0  0  0  0  0  0  0  0
   56.5490   29.1890   44.8380 C   0  0  0  0  0  0  0  0  0  0  0  0
   55.2980   29.0500   44.8320 O   0  0  0  0  0  0  0  0  0  0  0  0
   57.1280   30.4820   44.4340 C   0  0  0  0  0  0  0  0  0  0  0  0
   57.0810   30.8800   43.0900 C   0  0  0  0  0  0  0  0  0  0  0  0
   57.6590   32.0900   42.6950 C   0  0  0  0  0  0  0  0  0  0  0  0
   58.3060   32.8970   43.6340 C   0  0  0  0  0  0  0  0  0  0  0  0
   58.3740   32.5020   44.9760 C   0  0  0  0  0  0  0  0  0  0  0  0
   59.2770   33.4750   46.1310 S   0  0  0  0  0  0  0  0  0  0  0  0
   59.3900   34.8800   45.6110 O   0  0  0  0  0  0  0  0  0  0  0  0
   58.5520   33.5060   47.4490 O   0  0  0  0  0  0  0  0  0  0  0  0
   60.8730   32.7950   46.3280 N   0  0  0  0  0  0  0  0  0  0  0  0
   60.9720   32.0180   47.5640 C   0  0  0  0  0  0  0  0  0  0  0  0
   62.4280   32.0790   48.0010 C   0  0  0  0  0  0  0  0  0  0  0  0
   63.0250   33.2640   47.2600 C   0  0  0  0  0  0  0  0  0  0  0  0
   61.8830   33.8460   46.4420 C   0  0  0  0  0  0  0  0  0  0  0  0
   57.7820   31.2940   45.3740 C   0  0  0  0  0  0  0  0  0  0  0  0
   56.5090   24.8780   45.3380 N   0  0  0  0  0  0  0  0  0  0  0  0
   55.6410   23.8120   44.8470 C   0  0  0  0  0  0  0  0  0  0  0  0
   54.8450   23.2020   45.9740 C   0  0  0  0  0  0  0  0  0  0  0  0
   55.4430   23.0350   47.2370 C   0  0  0  0  0  0  0  0  0  0  0  0
   54.7060   22.5210   48.3080 C   0  0  0  0  0  0  0  0  0  0  0  0
   53.3640   22.1780   48.1310 C   0  0  0  0  0  0  0  0  0  0  0  0
   52.7580   22.3370   46.8820 C   0  0  0  0  0  0  0  0  0  0  0  0
   53.4890   22.8490   45.8040 C   0  0  0  0  0  0  0  0  0  0  0  0
   52.8580   23.0030   44.5740 O   0  0  0  0  0  0  0  0  0  0  0  0
  1  2  2  0
  2  3  1  0
  3  4  1  0
  4  5  1  0
  5  6  2  0
  5  7  1  0
  7  8  2  0
  8  9  1  0
  9 10  2  0
 10 11  1  0
 11 12  1  0
 12 13  2  0
 12 14  2  0
 12 15  1  0
 15 16  1  0
 16 17  1  0
 17 18  1  0
 18 19  1  0
 11 20  2  0
  2 21  1  0
 21 22  1  0
 22 23  1  0
 23 24  2  0
 24 25  1  0
 25 26  2  0
 26 27  1  0
 27 28  2  0
 28 29  1  0
 20  7  1  0
 28 23  1  0
 19 15  1  0
M  CHG  3   4  -1  21  -1  29  -1
M  END
>  <UniqueID>  (1283) 
2

>  <SMILES>  (1283) 
O=C(C[N-]C(=O)c1cccc(S(=O)(=O)N2CCCC2)c1)[N-]Cc1ccccc1[O-]

>  <Energy>  (1283) 
50.53830512038097

>  <Genealogy>  (1283) 
O=C(C[N-]C(=O)c1cccc(S(=O)(=O)N2CCCC2)c1)[N-]Cc1ccccc1[O-] (protonated)
O=C(C[N-]C(=O)c1cccc(S(=O)(=O)N2CCCC2)c1)[N-]Cc1ccccc1[O-] (3D coordinates assigned)
O=C(C[N-]C(=O)c1cccc(S(=O)(=O)N2CCCC2)c1)[N-]Cc1ccccc1[O-] (nonaromatic ring conformer: 50.53830512038097 kcal/mol)

>  <smiles>  (1283) 
O=C(CNC(=O)c1cccc(S(=O)(=O)N2CCCC2)c1)NCc1ccccc1O

>  <score_type>  (1283) 
oracle

>  <origin>  (1283) 
adg

>  <m_score__min__energy>  (1283) 
-15.199999999999999

>  <m_primary>  (1283) 
energy

$$$$
4:0
     RDKit          3D

 34 38  0  0  0  0  0  0  0  0999 V2000
   57.8700   27.2050   43.0250 C   0  0  0  0  0  0  0  0  0  0  0  0
   58.2850   26.6400   44.1710 C   0  0  0  0  0  0  0  0  0  0  0  0
   57.7660   25.4710   44.7390 C   0  0  0  0  0  0  0  0  0  0  0  0
   56.8060   24.6710   44.2340 C   0  0  0  0  0  0  0  0  0  0  0  0
   55.4920   24.4580   44.8700 C   0  0  0  0  0  0  0  0  0  0  0  0
   54.7580   25.3500   45.6270 C   0  0  0  0  0  0  0  0  0  0  0  0
   55.1440   26.6380   45.9740 O   0  0  0  0  0  0  0  0  0  0  0  0
   53.5630   24.8190   45.9530 N   0  0  0  0  0  0  0  0  0  0  0  0
   53.6000   23.6090   45.3570 C   0  0  0  0  0  0  0  0  0  0  0  0
   52.6480   22.7880   45.4180 O   0  0  0  0  0  0  0  0  0  0  0  0
   54.7390   23.3620   44.6820 N   0  0  0  0  0  0  0  0  0  0  0  0
   58.4710   25.2600   45.9140 C   0  0  0  0  0  0  0  0  0  0  0  0
   59.3800   26.2920   46.0210 C   0  0  0  0  0  0  0  0  0  0  0  0
   60.3190   26.4670   47.1770 C   0  0  0  0  0  0  0  0  0  0  0  0
   59.2730   27.1370   44.9670 N   0  0  0  0  0  0  0  0  0  0  0  0
   60.0510   28.3740   44.7860 C   0  0  0  0  0  0  0  0  0  0  0  0
   59.8160   29.3220   45.9330 C   0  0  0  0  0  0  0  0  0  0  0  0
   58.6570   30.1100   45.9760 C   0  0  0  0  0  0  0  0  0  0  0  0
   58.4280   30.9770   47.0480 C   0  0  0  0  0  0  0  0  0  0  0  0
   59.3550   31.0710   48.1010 C   0  0  0  0  0  0  0  0  0  0  0  0
   59.1180   31.9660   49.2080 N   0  0  0  0  0  0  0  0  0  0  0  0
   59.2990   33.4170   49.0370 C   0  0  0  0  0  0  0  0  0  0  0  0
   59.8280   34.0570   50.3290 C   0  0  0  0  0  0  0  0  0  0  0  0
   59.1300   33.5490   51.5180 N   0  0  0  0  0  0  0  0  0  0  0  0
   59.5710   33.9550   52.8280 C   0  0  0  0  0  0  0  0  0  0  0  0
   58.8650   34.9410   53.5420 C   0  0  0  0  0  0  0  0  0  0  0  0
   59.2860   35.3240   54.8190 C   0  0  0  0  0  0  0  0  0  0  0  0
   60.4100   34.7280   55.3950 C   0  0  0  0  0  0  0  0  0  0  0  0
   61.1140   33.7440   54.6960 C   0  0  0  0  0  0  0  0  0  0  0  0
   60.6960   33.3550   53.4190 C   0  0  0  0  0  0  0  0  0  0  0  0
   58.0500   32.5660   51.3640 C   0  0  0  0  0  0  0  0  0  0  0  0
   58.5210   31.4370   50.4460 C   0  0  0  0  0  0  0  0  0  0  0  0
   60.5190   30.2830   48.0520 C   0  0  0  0  0  0  0  0  0  0  0  0
   60.7480   29.4190   46.9790 C   0  0  0  0  0  0  0  0  0  0  0  0
  1  2  2  0
  2  3  1  0
  3  4  2  0
  4  5  1  0
  5  6  2  0
  6  7  1  0
  6  8  1  0
  8  9  1  0
  9 10  2  0
  9 11  1  0
  3 12  1  0
 12 13  2  0
 13 14  1  0
 13 15  1  0
 15 16  1  0
 16 17  1  0
 17 18  2  0
 18 19  1  0
 19 20  2  0
 20 21  1  0
 21 22  1  0
 22 23  1  0
 23 24  1  0
 24 25  1  0
 25 26  2  0
 26 27  1  0
 27 28  2  0
 28 29  1  0
 29 30  2  0
 24 31  1  0
 31 32  1  0
 20 33  1  0
 33 34  2  0
 15  2  1  0
 34 17  1  0
 11  5  1  0
 32 21  1  0
 30 25  1  0
M  CHG  2   7  -1   8  -1
M  END
>  <UniqueID>  (1284) 
5

>  <SMILES>  (1284) 
C=c1/c(=C/c2[nH]c(=O)[n-]c2[O-])cc(C)n1Cc1ccc(N2CCN(c3ccccc3)CC2)cc1

>  <Energy>  (1284) 
140.23456593763555

>  <Genealogy>  (1284) 
C=c1c(=Cc2[nH]c(=O)[n-]c2[O-])cc(C)n1Cc1ccc(N2CCN(c3ccccc3)CC2)cc1 (protonated)
C=c1/c(=C/c2[nH]c(=O)[n-]c2[O-])cc(C)n1Cc1ccc(N2CCN(c3ccccc3)CC2)cc1 (cis-trans isomerization)
C=c1/c(=C/c2[nH]c(=O)[n-]c2[O-])cc(C)n1Cc1ccc(N2CCN(c3ccccc3)CC2)cc1 (3D coordinates assigned)
C=c1/c(=C/c2[nH]c(=O)[n-]c2[O-])cc(C)n1Cc1ccc(N2CCN(c3ccccc3)CC2)cc1 (nonaromatic ring conformer: 140.23456593763555 kcal/mol)

>  <smiles>  (1284) 
C=c1c(=Cc2[nH]c(=O)[nH]c2O)cc(C)n1Cc1ccc(N2CCN(c3ccccc3)CC2)cc1

>  <score_type>  (1284) 
oracle

>  <origin>  (1284) 
adg

>  <m_score__min__energy>  (1284) 
-14.279999999999999

>  <m_primary>  (1284) 
energy

$$$$
9:0
     RDKit          3D

 31 34  0  0  0  0  0  0  0  0999 V2000
   55.0360   26.3260   46.0530 O   0  0  0  0  0  0  0  0  0  0  0  0
   55.9340   25.3130   46.3710 C   0  0  0  0  0  0  0  0  0  0  0  0
   55.6180   24.2440   47.1220 N   0  0  0  0  0  0  0  0  0  0  0  0
   56.7560   23.5200   47.1010 C   0  0  0  0  0  0  0  0  0  0  0  0
   56.8700   22.4170   47.6970 O   0  0  0  0  0  0  0  0  0  0  0  0
   57.7620   24.0650   46.3830 N   0  0  0  0  0  0  0  0  0  0  0  0
   57.2390   25.2210   45.9390 C   0  0  0  0  0  0  0  0  0  0  0  0
   57.9540   26.1370   45.0320 C   0  0  0  0  0  0  0  0  0  0  0  0
   58.3120   27.3940   45.3580 C   0  0  0  0  0  0  0  0  0  0  0  0
   59.2430   27.7620   46.3220 C   0  0  0  0  0  0  0  0  0  0  0  0
   59.3260   29.1400   46.2870 C   0  0  0  0  0  0  0  0  0  0  0  0
   60.2380   29.9580   47.1500 C   0  0  0  0  0  0  0  0  0  0  0  0
   58.5070   29.6380   45.3350 N   0  0  0  0  0  0  0  0  0  0  0  0
   58.3400   31.0310   45.0150 C   0  0  0  0  0  0  0  0  0  0  0  0
   58.1670   31.4330   43.6840 C   0  0  0  0  0  0  0  0  0  0  0  0
   58.0260   32.7870   43.3740 C   0  0  0  0  0  0  0  0  0  0  0  0
   58.0500   33.7470   44.3890 C   0  0  0  0  0  0  0  0  0  0  0  0
   58.2040   33.3540   45.7320 C   0  0  0  0  0  0  0  0  0  0  0  0
   58.2680   34.3060   46.8030 N   0  0  0  0  0  0  0  0  0  0  0  0
   59.4210   35.0400   47.2310 C   0  0  0  0  0  0  0  0  0  0  0  0
   59.7520   36.1140   46.6610 O   0  0  0  0  0  0  0  0  0  0  0  0
   60.2150   34.5480   48.4070 C   0  0  0  0  0  0  0  0  0  0  0  0
   60.9670   33.3060   48.1260 N   0  0  0  0  0  0  0  0  0  0  0  0
   61.9590   32.9340   49.1620 C   0  0  0  0  0  0  0  0  0  0  0  0
   63.4040   33.0400   48.6550 C   0  0  0  0  0  0  0  0  0  0  0  0
   63.5190   34.1150   47.7530 O   0  0  0  0  0  0  0  0  0  0  0  0
   62.8690   33.7900   46.5390 C   0  0  0  0  0  0  0  0  0  0  0  0
   61.4560   33.1880   46.7350 C   0  0  0  0  0  0  0  0  0  0  0  0
   58.3680   31.9960   46.0330 C   0  0  0  0  0  0  0  0  0  0  0  0
   57.8810   28.5820   44.7560 C   0  0  0  0  0  0  0  0  0  0  0  0
   57.0040   28.6910   43.7450 C   0  0  0  0  0  0  0  0  0  0  0  0
  1  2  1  0
  2  3  1  0
  3  4  1  0
  4  5  2  0
  4  6  1  0
  6  7  1  0
  7  8  1  0
  8  9  2  0
  9 10  1  0
 10 11  2  0
 11 12  1  0
 11 13  1  0
 13 14  1  0
 14 15  2  0
 15 16  1  0
 16 17  2  0
 17 18  1  0
 18 19  1  0
 19 20  1  0
 20 21  2  0
 20 22  1  0
 22 23  1  0
 23 24  1  0
 24 25  1  0
 25 26  1  0
 26 27  1  0
 27 28  1  0
 18 29  2  0
 13 30  1  0
 30 31  2  0
  7  2  2  0
 30  9  1  0
 29 14  1  0
 28 23  1  0
M  CHG  3   3  -1   6  -1  19  -1
M  END
>  <UniqueID>  (1285) 
10

>  <SMILES>  (1285) 
C=c1/c(=C/c2[n-]c(=O)[n-]c2O)cc(C)n1-c1cccc([N-]C(=O)CN2CCOCC2)c1

>  <Energy>  (1285) 
142.65097311410807

>  <Genealogy>  (1285) 
C=c1c(=Cc2[n-]c(=O)[n-]c2O)cc(C)n1-c1cccc([N-]C(=O)CN2CCOCC2)c1 (protonated)
C=c1/c(=C/c2[n-]c(=O)[n-]c2O)cc(C)n1-c1cccc([N-]C(=O)CN2CCOCC2)c1 (cis-trans isomerization)
C=c1/c(=C/c2[n-]c(=O)[n-]c2O)cc(C)n1-c1cccc([N-]C(=O)CN2CCOCC2)c1 (3D coordinates assigned)
C=c1/c(=C/c2[n-]c(=O)[n-]c2O)cc(C)n1-c1cccc([N-]C(=O)CN2CCOCC2)c1 (nonaromatic ring conformer: 142.65097311410807 kcal/mol)

>  <smiles>  (1285) 
C=c1c(=Cc2[nH]c(=O)[nH]c2O)cc(C)n1-c1cccc(NC(=O)CN2CCOCC2)c1

>  <score_type>  (1285) 
oracle

>  <origin>  (1285) 
adg

>  <m_score__min__energy>  (1285) 
-14.74

>  <m_primary>  (1285) 
energy

$$$$
13:0
     RDKit          3D

 30 33  0  0  0  0  0  0  0  0999 V2000
   57.6110   28.1250   44.5540 C   0  0  0  0  0  0  0  0  0  0  0  0
   57.9970   27.2970   45.5380 C   0  0  0  0  0  0  0  0  0  0  0  0
   57.8450   25.9000   45.5800 C   0  0  0  0  0  0  0  0  0  0  0  0
   57.1330   25.0640   44.7990 C   0  0  0  0  0  0  0  0  0  0  0  0
   55.7450   24.6400   45.0370 C   0  0  0  0  0  0  0  0  0  0  0  0
   55.3140   23.3790   44.8650 N   0  0  0  0  0  0  0  0  0  0  0  0
   54.0400   23.4200   45.3160 C   0  0  0  0  0  0  0  0  0  0  0  0
   53.2850   22.4140   45.3040 O   0  0  0  0  0  0  0  0  0  0  0  0
   53.6450   24.6210   45.7910 N   0  0  0  0  0  0  0  0  0  0  0  0
   54.7410   25.3780   45.6230 C   0  0  0  0  0  0  0  0  0  0  0  0
   54.8280   26.7070   46.0200 O   0  0  0  0  0  0  0  0  0  0  0  0
   58.6040   25.4590   46.6520 C   0  0  0  0  0  0  0  0  0  0  0  0
   59.1250   26.5810   47.2620 C   0  0  0  0  0  0  0  0  0  0  0  0
   59.9990   26.5580   48.4790 C   0  0  0  0  0  0  0  0  0  0  0  0
   58.7590   27.6950   46.5900 N   0  0  0  0  0  0  0  0  0  0  0  0
   59.1440   29.0420   46.9200 C   0  0  0  0  0  0  0  0  0  0  0  0
   58.8130   29.5810   48.1710 C   0  0  0  0  0  0  0  0  0  0  0  0
   59.1750   30.8920   48.4900 C   0  0  0  0  0  0  0  0  0  0  0  0
   59.8640   31.6810   47.5590 C   0  0  0  0  0  0  0  0  0  0  0  0
   60.2890   33.3490   47.9450 S   0  0  0  0  0  0  0  0  0  0  0  0
   60.4440   33.4820   49.4350 O   0  0  0  0  0  0  0  0  0  0  0  0
   61.6190   33.6610   47.3180 O   0  0  0  0  0  0  0  0  0  0  0  0
   59.1010   34.5110   47.3800 N   0  0  0  0  0  0  0  0  0  0  0  0
   59.6350   35.3850   46.3060 C   0  0  0  0  0  0  0  0  0  0  0  0
   59.1960   34.9470   44.8990 C   0  0  0  0  0  0  0  0  0  0  0  0
   58.9850   33.5560   44.8550 O   0  0  0  0  0  0  0  0  0  0  0  0
   57.8370   33.2240   45.6100 C   0  0  0  0  0  0  0  0  0  0  0  0
   57.8200   33.8670   47.0170 C   0  0  0  0  0  0  0  0  0  0  0  0
   60.2100   31.1360   46.3140 C   0  0  0  0  0  0  0  0  0  0  0  0
   59.8500   29.8240   45.9960 C   0  0  0  0  0  0  0  0  0  0  0  0
  1  2  2  0
  2  3  1  0
  3  4  2  3
  4  5  1  0
  5  6  1  0
  6  7  1  0
  7  8  2  0
  7  9  1  0
  9 10  1  0
 10 11  1  0
  3 12  1  0
 12 13  2  0
 13 14  1  0
 13 15  1  0
 15 16  1  0
 16 17  2  0
 17 18  1  0
 18 19  2  0
 19 20  1  0
 20 21  2  0
 20 22  2  0
 20 23  1  0
 23 24  1  0
 24 25  1  0
 25 26  1  0
 26 27  1  0
 27 28  1  0
 19 29  1  0
 29 30  2  0
 15  2  1  0
 30 16  1  0
 10  5  2  0
 28 23  1  0
M  CHG  4   6  -1   9  -1  11  -1  23   1
M  END
>  <UniqueID>  (1286) 
14

>  <SMILES>  (1286) 
C=c1c(=Cc2[n-]c(=O)[n-]c2[O-])cc(C)n1-c1ccc(S(=O)(=O)[NH+]2CCOCC2)cc1

>  <Energy>  (1286) 
139.02104827761153

>  <Genealogy>  (1286) 
C=c1c(=Cc2[n-]c(=O)[n-]c2[O-])cc(C)n1-c1ccc(S(=O)(=O)[NH+]2CCOCC2)cc1 (protonated)
C=c1c(=Cc2[n-]c(=O)[n-]c2[O-])cc(C)n1-c1ccc(S(=O)(=O)[NH+]2CCOCC2)cc1 (3D coordinates assigned)
C=c1c(=Cc2[n-]c(=O)[n-]c2[O-])cc(C)n1-c1ccc(S(=O)(=O)[NH+]2CCOCC2)cc1 (nonaromatic ring conformer: 139.02104827761153 kcal/mol)

>  <smiles>  (1286) 
C=c1c(=Cc2[nH]c(=O)[nH]c2O)cc(C)n1-c1ccc(S(=O)(=O)N2CCOCC2)cc1

>  <score_type>  (1286) 
oracle

>  <origin>  (1286) 
adg

>  <m_score__min__energy>  (1286) 
-14.609999999999999

>  <m_primary>  (1286) 
energy

$$$$
14:0
     RDKit          3D

 30 33  0  0  0  0  0  0  0  0999 V2000
   54.8810   26.3240   45.9700 O   0  0  0  0  0  0  0  0  0  0  0  0
   55.8740   25.3930   46.2580 C   0  0  0  0  0  0  0  0  0  0  0  0
   55.7350   24.4110   47.1660 N   0  0  0  0  0  0  0  0  0  0  0  0
   56.9490   23.8210   47.1520 C   0  0  0  0  0  0  0  0  0  0  0  0
   57.2340   22.8390   47.8850 O   0  0  0  0  0  0  0  0  0  0  0  0
   57.8380   24.3730   46.2960 N   0  0  0  0  0  0  0  0  0  0  0  0
   57.1380   25.3600   45.7120 C   0  0  0  0  0  0  0  0  0  0  0  0
   57.7270   26.3040   44.7450 C   0  0  0  0  0  0  0  0  0  0  0  0
   58.3730   27.4340   45.0920 C   0  0  0  0  0  0  0  0  0  0  0  0
   59.4920   27.5230   45.9120 C   0  0  0  0  0  0  0  0  0  0  0  0
   59.7890   28.8660   46.0310 C   0  0  0  0  0  0  0  0  0  0  0  0
   60.9110   29.4180   46.8570 C   0  0  0  0  0  0  0  0  0  0  0  0
   58.8990   29.6100   45.3390 N   0  0  0  0  0  0  0  0  0  0  0  0
   58.8980   31.0450   45.2430 C   0  0  0  0  0  0  0  0  0  0  0  0
   58.3730   31.6760   44.1100 C   0  0  0  0  0  0  0  0  0  0  0  0
   58.3840   33.0690   44.0100 C   0  0  0  0  0  0  0  0  0  0  0  0
   58.9270   33.8550   45.0400 C   0  0  0  0  0  0  0  0  0  0  0  0
   58.9390   35.3530   44.8840 C   0  0  0  0  0  0  0  0  0  0  0  0
   59.4290   33.2200   46.2010 C   0  0  0  0  0  0  0  0  0  0  0  0
   59.9590   33.9930   47.3400 C   0  0  0  0  0  0  0  0  0  0  0  0
   59.2500   34.9110   47.8310 O   0  0  0  0  0  0  0  0  0  0  0  0
   61.2690   33.7280   47.8790 N   0  0  0  0  0  0  0  0  0  0  0  0
   62.2870   33.0390   47.0760 C   0  0  0  0  0  0  0  0  0  0  0  0
   63.6830   33.5120   47.4890 C   0  0  0  0  0  0  0  0  0  0  0  0
   63.8570   33.4050   48.8890 O   0  0  0  0  0  0  0  0  0  0  0  0
   62.9790   34.2970   49.5480 C   0  0  0  0  0  0  0  0  0  0  0  0
   61.5180   33.8960   49.3140 C   0  0  0  0  0  0  0  0  0  0  0  0
   59.4290   31.8200   46.2830 C   0  0  0  0  0  0  0  0  0  0  0  0
   58.0250   28.7470   44.7620 C   0  0  0  0  0  0  0  0  0  0  0  0
   56.9770   29.1290   44.0130 C   0  0  0  0  0  0  0  0  0  0  0  0
  1  2  1  0
  2  3  1  0
  3  4  1  0
  4  5  2  0
  4  6  1  0
  6  7  1  0
  7  8  1  0
  8  9  2  0
  9 10  1  0
 10 11  2  0
 11 12  1  0
 11 13  1  0
 13 14  1  0
 14 15  2  0
 15 16  1  0
 16 17  2  0
 17 18  1  0
 17 19  1  0
 19 20  1  0
 20 21  2  0
 20 22  1  0
 22 23  1  0
 23 24  1  0
 24 25  1  0
 25 26  1  0
 26 27  1  0
 19 28  2  0
 13 29  1  0
 29 30  2  0
  7  2  2  0
 29  9  1  0
 28 14  1  0
 27 22  1  0
M  CHG  2   3  -1   6  -1
M  END
>  <UniqueID>  (1287) 
15

>  <SMILES>  (1287) 
C=c1/c(=C/c2[n-]c(=O)[n-]c2O)cc(C)n1-c1ccc(C)c(C(=O)N2CCOCC2)c1

>  <Energy>  (1287) 
133.72953733268102

>  <Genealogy>  (1287) 
C=c1c(=Cc2[n-]c(=O)[n-]c2O)cc(C)n1-c1ccc(C)c(C(=O)N2CCOCC2)c1 (protonated)
C=c1/c(=C/c2[n-]c(=O)[n-]c2O)cc(C)n1-c1ccc(C)c(C(=O)N2CCOCC2)c1 (cis-trans isomerization)
C=c1/c(=C/c2[n-]c(=O)[n-]c2O)cc(C)n1-c1ccc(C)c(C(=O)N2CCOCC2)c1 (3D coordinates assigned)
C=c1/c(=C/c2[n-]c(=O)[n-]c2O)cc(C)n1-c1ccc(C)c(C(=O)N2CCOCC2)c1 (nonaromatic ring conformer: 133.72953733268102 kcal/mol)

>  <smiles>  (1287) 
C=c1c(=Cc2[nH]c(=O)[nH]c2O)cc(C)n1-c1ccc(C)c(C(=O)N2CCOCC2)c1

>  <score_type>  (1287) 
oracle

>  <origin>  (1287) 
adg

>  <m_score__min__energy>  (1287) 
-14.18

>  <m_primary>  (1287) 
energy

$$$$
20:0
     RDKit          3D

 27 29  0  0  0  0  0  0  0  0999 V2000
   56.6450   30.5970   54.5360 C   0  0  0  0  0  0  0  0  0  0  0  0
   56.7380   31.1880   52.8570 S   0  0  0  0  0  0  0  0  0  0  0  0
   57.1930   30.0920   51.9360 O   0  0  0  0  0  0  0  0  0  0  0  0
   55.3640   31.6320   52.4430 O   0  0  0  0  0  0  0  0  0  0  0  0
   57.8110   32.5470   52.7520 N   0  0  0  0  0  0  0  0  0  0  0  0
   58.9050   32.6920   51.8340 C   0  0  0  0  0  0  0  0  0  0  0  0
   60.0680   33.3190   52.2980 C   0  0  0  0  0  0  0  0  0  0  0  0
   61.1740   33.4770   51.4600 C   0  0  0  0  0  0  0  0  0  0  0  0
   61.1250   33.0160   50.1440 C   0  0  0  0  0  0  0  0  0  0  0  0
   59.9610   32.4090   49.6480 C   0  0  0  0  0  0  0  0  0  0  0  0
   59.9260   31.9470   48.2870 N   0  0  0  0  0  0  0  0  0  0  0  0
   59.1640   32.6960   47.2790 C   0  0  0  0  0  0  0  0  0  0  0  0
   58.4950   31.7610   46.2470 C   0  0  0  0  0  0  0  0  0  0  0  0
   59.0450   30.3890   46.2760 N   0  0  0  0  0  0  0  0  0  0  0  0
   58.5860   29.5450   45.1500 C   0  0  0  0  0  0  0  0  0  0  0  0
   58.0230   28.1990   45.5720 C   0  0  0  0  0  0  0  0  0  0  0  0
   58.8980   27.1740   45.9730 C   0  0  0  0  0  0  0  0  0  0  0  0
   58.4000   25.9280   46.3610 C   0  0  0  0  0  0  0  0  0  0  0  0
   57.0250   25.6940   46.3650 C   0  0  0  0  0  0  0  0  0  0  0  0
   56.1390   26.7060   45.9890 C   0  0  0  0  0  0  0  0  0  0  0  0
   54.7720   26.4560   46.0080 O   0  0  0  0  0  0  0  0  0  0  0  0
   56.6300   27.9640   45.5960 C   0  0  0  0  0  0  0  0  0  0  0  0
   55.7460   28.9830   45.2320 O   0  0  0  0  0  0  0  0  0  0  0  0
   60.5040   30.3860   46.4610 C   0  0  0  0  0  0  0  0  0  0  0  0
   60.8110   30.8440   47.8870 C   0  0  0  0  0  0  0  0  0  0  0  0
   58.8390   32.2690   50.4890 C   0  0  0  0  0  0  0  0  0  0  0  0
   57.6580   31.7600   49.9630 O   0  0  0  0  0  0  0  0  0  0  0  0
  1  2  1  0
  2  3  2  0
  2  4  2  0
  2  5  1  0
  5  6  1  0
  6  7  2  0
  7  8  1  0
  8  9  2  0
  9 10  1  0
 10 11  1  0
 11 12  1  0
 12 13  1  0
 13 14  1  0
 14 15  1  0
 15 16  1  0
 16 17  2  0
 17 18  1  0
 18 19  2  0
 19 20  1  0
 20 21  1  0
 20 22  2  0
 22 23  1  0
 14 24  1  0
 24 25  1  0
 10 26  2  0
 26 27  1  0
 26  6  1  0
 25 11  1  0
 22 16  1  0
M  CHG  3   5  -1  21  -1  27  -1
M  END
>  <UniqueID>  (1288) 
20

>  <SMILES>  (1288) 
CS(=O)(=O)[N-]c1cccc(N2CCN(Cc3cccc([O-])c3O)CC2)c1[O-]

>  <Energy>  (1288) 
65.8883389871811

>  <Genealogy>  (1288) 
CS(=O)(=O)[N-]c1cccc(N2CCN(Cc3cccc([O-])c3O)CC2)c1[O-] (protonated)
CS(=O)(=O)[N-]c1cccc(N2CCN(Cc3cccc([O-])c3O)CC2)c1[O-] (3D coordinates assigned)
CS(=O)(=O)[N-]c1cccc(N2CCN(Cc3cccc([O-])c3O)CC2)c1[O-] (nonaromatic ring conformer: 65.8883389871811 kcal/mol)

>  <smiles>  (1288) 
CS(=O)(=O)Nc1cccc(N2CCN(Cc3cccc(O)c3O)CC2)c1O

>  <score_type>  (1288) 
oracle

>  <origin>  (1288) 
adg

>  <m_score__min__energy>  (1288) 
-14.31

>  <m_primary>  (1288) 
energy

$$$$
23:0
     RDKit          3D

 28 30  0  0  0  0  0  0  0  0999 V2000
   60.3170   30.1950   46.0730 C   0  0  0  0  0  0  0  0  0  0  0  0
   59.3070   30.9240   45.5660 C   0  0  0  0  0  0  0  0  0  0  0  0
   58.2240   30.4450   44.8070 C   0  0  0  0  0  0  0  0  0  0  0  0
   57.9780   29.2310   44.2730 C   0  0  0  0  0  0  0  0  0  0  0  0
   57.4070   28.0730   44.9890 C   0  0  0  0  0  0  0  0  0  0  0  0
   56.0350   28.0030   45.2830 C   0  0  0  0  0  0  0  0  0  0  0  0
   55.1680   29.0100   44.8740 O   0  0  0  0  0  0  0  0  0  0  0  0
   55.5460   26.9450   45.9810 N   0  0  0  0  0  0  0  0  0  0  0  0
   56.3640   25.9550   46.4180 C   0  0  0  0  0  0  0  0  0  0  0  0
   55.8880   24.9830   47.0590 O   0  0  0  0  0  0  0  0  0  0  0  0
   57.6970   26.0140   46.1690 N   0  0  0  0  0  0  0  0  0  0  0  0
   58.2370   27.0510   45.4750 C   0  0  0  0  0  0  0  0  0  0  0  0
   59.4790   27.0780   45.2690 O   0  0  0  0  0  0  0  0  0  0  0  0
   57.3550   31.5090   44.6560 C   0  0  0  0  0  0  0  0  0  0  0  0
   57.9440   32.5980   45.2600 C   0  0  0  0  0  0  0  0  0  0  0  0
   57.3090   33.9540   45.3490 C   0  0  0  0  0  0  0  0  0  0  0  0
   59.1310   32.2530   45.8130 N   0  0  0  0  0  0  0  0  0  0  0  0
   59.9950   33.1600   46.5900 C   0  0  0  0  0  0  0  0  0  0  0  0
   59.6230   33.1330   48.0510 C   0  0  0  0  0  0  0  0  0  0  0  0
   58.8190   32.1010   48.5610 C   0  0  0  0  0  0  0  0  0  0  0  0
   58.4650   32.0830   49.9130 C   0  0  0  0  0  0  0  0  0  0  0  0
   58.9170   33.0920   50.7730 C   0  0  0  0  0  0  0  0  0  0  0  0
   58.4520   33.0800   52.4720 S   0  0  0  0  0  0  0  0  0  0  0  0
   57.0310   32.6080   52.6070 O   0  0  0  0  0  0  0  0  0  0  0  0
   59.3440   32.1440   53.2370 O   0  0  0  0  0  0  0  0  0  0  0  0
   58.5950   34.6740   53.1250 N   0  0  0  0  0  0  0  0  0  0  0  0
   59.7170   34.1250   50.2680 C   0  0  0  0  0  0  0  0  0  0  0  0
   60.0720   34.1440   48.9170 C   0  0  0  0  0  0  0  0  0  0  0  0
  1  2  2  0
  2  3  1  0
  3  4  2  0
  4  5  1  0
  5  6  2  0
  6  7  1  0
  6  8  1  0
  8  9  1  0
  9 10  2  0
  9 11  1  0
 11 12  1  0
 12 13  2  0
  3 14  1  0
 14 15  2  0
 15 16  1  0
 15 17  1  0
 17 18  1  0
 18 19  1  0
 19 20  2  0
 20 21  1  0
 21 22  2  0
 22 23  1  0
 23 24  2  0
 23 25  2  0
 23 26  1  0
 22 27  1  0
 27 28  2  0
 17  2  1  0
 28 19  1  0
 12  5  1  0
M  CHG  3   7  -1   8  -1  11  -1
M  END
>  <UniqueID>  (1289) 
23

>  <SMILES>  (1289) 
C=c1/c(=C\c2c([O-])[n-]c(=O)[n-]c2=O)cc(C)n1Cc1ccc(S(N)(=O)=O)cc1

>  <Energy>  (1289) 
86.79125901035059

>  <Genealogy>  (1289) 
C=c1c(=Cc2c([O-])[n-]c(=O)[n-]c2=O)cc(C)n1Cc1ccc(S(N)(=O)=O)cc1 (protonated)
C=c1/c(=C\c2c([O-])[n-]c(=O)[n-]c2=O)cc(C)n1Cc1ccc(S(N)(=O)=O)cc1 (cis-trans isomerization)
C=c1/c(=C\c2c([O-])[n-]c(=O)[n-]c2=O)cc(C)n1Cc1ccc(S(N)(=O)=O)cc1 (3D coordinates assigned)
C=c1/c(=C\c2c([O-])[n-]c(=O)[n-]c2=O)cc(C)n1Cc1ccc(S(N)(=O)=O)cc1 (optimized conformer: 86.79125901035059 kcal/mol)

>  <smiles>  (1289) 
C=c1c(=Cc2c(O)[nH]c(=O)[nH]c2=O)cc(C)n1Cc1ccc(S(N)(=O)=O)cc1

>  <score_type>  (1289) 
oracle

>  <origin>  (1289) 
adg

>  <m_score__min__energy>  (1289) 
-15.82

>  <m_primary>  (1289) 
energy

$$$$
26:0
     RDKit          3D

 29 31  0  0  0  0  0  0  0  0999 V2000
   57.7080   25.4620   47.5520 C   0  0  0  0  0  0  0  0  0  0  0  0
   58.0570   26.1960   46.4850 C   0  0  0  0  0  0  0  0  0  0  0  0
   57.6850   26.0090   45.1460 C   0  0  0  0  0  0  0  0  0  0  0  0
   56.9900   25.0230   44.5420 C   0  0  0  0  0  0  0  0  0  0  0  0
   55.6580   24.5410   44.9520 C   0  0  0  0  0  0  0  0  0  0  0  0
   54.7710   25.3970   45.6190 C   0  0  0  0  0  0  0  0  0  0  0  0
   55.1500   26.6940   45.9470 O   0  0  0  0  0  0  0  0  0  0  0  0
   53.5310   24.9580   45.9580 N   0  0  0  0  0  0  0  0  0  0  0  0
   53.1250   23.6990   45.6490 C   0  0  0  0  0  0  0  0  0  0  0  0
   51.6330   23.1970   46.0770 S   0  0  0  0  0  0  0  0  0  0  0  0
   53.9590   22.8600   44.9820 N   0  0  0  0  0  0  0  0  0  0  0  0
   55.2060   23.2520   44.6190 C   0  0  0  0  0  0  0  0  0  0  0  0
   55.9460   22.4520   43.9870 O   0  0  0  0  0  0  0  0  0  0  0  0
   58.2070   27.1240   44.4950 C   0  0  0  0  0  0  0  0  0  0  0  0
   58.0990   27.4460   43.0380 C   0  0  0  0  0  0  0  0  0  0  0  0
   58.8670   27.9030   45.3710 N   0  0  0  0  0  0  0  0  0  0  0  0
   58.7880   27.3380   46.5630 N   0  0  0  0  0  0  0  0  0  0  0  0
   59.3410   27.9680   47.7630 C   0  0  0  0  0  0  0  0  0  0  0  0
   59.0460   29.4380   47.7560 C   0  0  0  0  0  0  0  0  0  0  0  0
   58.5900   29.9830   48.7980 O   0  0  0  0  0  0  0  0  0  0  0  0
   59.2650   30.2130   46.5700 N   0  0  0  0  0  0  0  0  0  0  0  0
   59.3760   31.6440   46.5730 C   0  0  0  0  0  0  0  0  0  0  0  0
   58.2950   32.4180   46.1230 C   0  0  0  0  0  0  0  0  0  0  0  0
   58.3850   33.8120   46.1000 C   0  0  0  0  0  0  0  0  0  0  0  0
   59.5620   34.4460   46.5070 C   0  0  0  0  0  0  0  0  0  0  0  0
   59.6520   35.7990   46.4730 F   0  0  0  0  0  0  0  0  0  0  0  0
   60.6530   33.6850   46.9320 C   0  0  0  0  0  0  0  0  0  0  0  0
   60.5670   32.2890   46.9630 C   0  0  0  0  0  0  0  0  0  0  0  0
   61.6600   31.5700   47.3260 F   0  0  0  0  0  0  0  0  0  0  0  0
  1  2  2  0
  2  3  1  0
  3  4  2  0
  4  5  1  0
  5  6  2  0
  6  7  1  0
  6  8  1  0
  8  9  1  0
  9 10  2  0
  9 11  1  0
 11 12  1  0
 12 13  2  0
  3 14  1  0
 14 15  1  0
 14 16  2  0
 16 17  1  0
 17 18  1  0
 18 19  1  0
 19 20  2  0
 19 21  1  0
 21 22  1  0
 22 23  2  0
 23 24  1  0
 24 25  2  0
 25 26  1  0
 25 27  1  0
 27 28  2  0
 28 29  1  0
 17  2  1  0
 28 22  1  0
 12  5  1  0
M  CHG  3   7  -1   8  -1  11  -1
M  END
>  <UniqueID>  (1290) 
25

>  <SMILES>  (1290) 
C=c1/c(=C\c2c([O-])[n-]c(=S)[n-]c2=O)c(C)nn1CC(=O)Nc1ccc(F)cc1F

>  <Energy>  (1290) 
92.22533770511146

>  <Genealogy>  (1290) 
C=c1c(=Cc2c([O-])[n-]c(=S)[n-]c2=O)c(C)nn1CC(=O)Nc1ccc(F)cc1F (protonated)
C=c1/c(=C\c2c([O-])[n-]c(=S)[n-]c2=O)c(C)nn1CC(=O)Nc1ccc(F)cc1F (cis-trans isomerization)
C=c1/c(=C\c2c([O-])[n-]c(=S)[n-]c2=O)c(C)nn1CC(=O)Nc1ccc(F)cc1F (3D coordinates assigned)
C=c1/c(=C\c2c([O-])[n-]c(=S)[n-]c2=O)c(C)nn1CC(=O)Nc1ccc(F)cc1F (optimized conformer: 92.22533770511146 kcal/mol)

>  <smiles>  (1290) 
C=c1c(=Cc2c(O)[nH]c(=S)[nH]c2=O)c(C)nn1CC(=O)Nc1ccc(F)cc1F

>  <score_type>  (1290) 
oracle

>  <origin>  (1290) 
adg

>  <m_score__min__energy>  (1290) 
-15.58

>  <m_primary>  (1290) 
energy

$$$$
33:0
     RDKit          3D

 24 26  0  0  0  0  0  0  0  0999 V2000
   56.6270   29.5690   43.7090 C   0  0  0  0  0  0  0  0  0  0  0  0
   57.3450   29.5120   44.8450 C   0  0  0  0  0  0  0  0  0  0  0  0
   57.8580   28.3490   45.4300 C   0  0  0  0  0  0  0  0  0  0  0  0
   57.6900   27.0780   45.0110 C   0  0  0  0  0  0  0  0  0  0  0  0
   57.1420   25.9980   45.8520 C   0  0  0  0  0  0  0  0  0  0  0  0
   57.9000   25.0330   46.4000 N   0  0  0  0  0  0  0  0  0  0  0  0
   57.0220   24.3260   47.1430 C   0  0  0  0  0  0  0  0  0  0  0  0
   57.3590   23.3140   47.8100 O   0  0  0  0  0  0  0  0  0  0  0  0
   55.7570   24.7960   47.1240 N   0  0  0  0  0  0  0  0  0  0  0  0
   55.8500   25.8620   46.3120 C   0  0  0  0  0  0  0  0  0  0  0  0
   54.7890   26.7160   46.0410 O   0  0  0  0  0  0  0  0  0  0  0  0
   58.5340   28.7530   46.5710 C   0  0  0  0  0  0  0  0  0  0  0  0
   58.4160   30.1250   46.6360 C   0  0  0  0  0  0  0  0  0  0  0  0
   59.0430   30.9750   47.7030 C   0  0  0  0  0  0  0  0  0  0  0  0
   57.6950   30.5950   45.5910 N   0  0  0  0  0  0  0  0  0  0  0  0
   57.3620   32.0090   45.3510 C   0  0  0  0  0  0  0  0  0  0  0  0
   58.5300   32.7720   44.7050 C   0  0  0  0  0  0  0  0  0  0  0  0
   58.5750   34.2510   45.1150 C   0  0  0  0  0  0  0  0  0  0  0  0
   59.5160   34.4650   46.2370 N   0  0  0  0  0  0  0  0  0  0  0  0
   60.6500   33.5270   46.1390 C   0  0  0  0  0  0  0  0  0  0  0  0
   61.6610   33.7890   47.2770 C   0  0  0  0  0  0  0  0  0  0  0  0
   61.1360   34.6260   48.2920 O   0  0  0  0  0  0  0  0  0  0  0  0
   59.8670   34.1530   48.6910 C   0  0  0  0  0  0  0  0  0  0  0  0
   58.8450   34.3160   47.5490 C   0  0  0  0  0  0  0  0  0  0  0  0
  1  2  2  0
  2  3  1  0
  3  4  2  0
  4  5  1  0
  5  6  1  0
  6  7  1  0
  7  8  2  0
  7  9  1  0
  9 10  1  0
 10 11  1  0
  3 12  1  0
 12 13  2  0
 13 14  1  0
 13 15  1  0
 15 16  1  0
 16 17  1  0
 17 18  1  0
 18 19  1  0
 19 20  1  0
 20 21  1  0
 21 22  1  0
 22 23  1  0
 23 24  1  0
 15  2  1  0
 24 19  1  0
 10  5  2  0
M  CHG  3   6  -1   9  -1  11  -1
M  END
>  <UniqueID>  (1291) 
30

>  <SMILES>  (1291) 
C=c1/c(=C/c2[n-]c(=O)[n-]c2[O-])cc(C)n1CCCN1CCOCC1

>  <Energy>  (1291) 
117.13067628821845

>  <Genealogy>  (1291) 
C=c1c(=Cc2[n-]c(=O)[n-]c2[O-])cc(C)n1CCCN1CCOCC1 (protonated)
C=c1/c(=C/c2[n-]c(=O)[n-]c2[O-])cc(C)n1CCCN1CCOCC1 (cis-trans isomerization)
C=c1/c(=C/c2[n-]c(=O)[n-]c2[O-])cc(C)n1CCCN1CCOCC1 (3D coordinates assigned)
C=c1/c(=C/c2[n-]c(=O)[n-]c2[O-])cc(C)n1CCCN1CCOCC1 (nonaromatic ring conformer: 117.13067628821845 kcal/mol)

>  <smiles>  (1291) 
C=c1c(=Cc2[nH]c(=O)[nH]c2O)cc(C)n1CCCN1CCOCC1

>  <score_type>  (1291) 
oracle

>  <origin>  (1291) 
adg

>  <m_score__min__energy>  (1291) 
-15.23

>  <m_primary>  (1291) 
energy

$$$$
49:0
     RDKit          3D

 29 32  0  0  0  0  0  0  0  0999 V2000
   55.5400   28.8120   44.9890 N   0  0  0  0  0  0  0  0  0  0  0  0
   56.4900   29.9050   44.0450 S   0  0  0  0  0  0  0  0  0  0  0  0
   57.9520   29.6030   44.2240 O   0  0  0  0  0  0  0  0  0  0  0  0
   56.1290   29.7430   42.5950 O   0  0  0  0  0  0  0  0  0  0  0  0
   56.1630   31.5360   44.5300 N   0  0  0  0  0  0  0  0  0  0  0  0
   57.1480   32.4790   44.9740 C   0  0  0  0  0  0  0  0  0  0  0  0
   58.2490   32.8420   44.1760 C   0  0  0  0  0  0  0  0  0  0  0  0
   59.1890   33.7620   44.6490 C   0  0  0  0  0  0  0  0  0  0  0  0
   59.0470   34.3290   45.9240 C   0  0  0  0  0  0  0  0  0  0  0  0
   60.0790   35.2980   46.4380 C   0  0  0  0  0  0  0  0  0  0  0  0
   61.2360   34.5830   46.9770 N   0  0  0  0  0  0  0  0  0  0  0  0
   61.3160   34.0960   48.1790 C   0  0  0  0  0  0  0  0  0  0  0  0
   60.3170   33.3000   48.6420 N   0  0  0  0  0  0  0  0  0  0  0  0
   60.3690   32.7550   49.8860 C   0  0  0  0  0  0  0  0  0  0  0  0
   59.2680   31.9070   50.3580 C   0  0  0  0  0  0  0  0  0  0  0  0
   58.7980   30.7120   49.8310 C   0  0  0  0  0  0  0  0  0  0  0  0
   59.3250   29.9340   48.6470 C   0  0  0  0  0  0  0  0  0  0  0  0
   60.8440   30.0610   48.4870 C   0  0  0  0  0  0  0  0  0  0  0  0
   61.0950   30.1590   46.9940 C   0  0  0  0  0  0  0  0  0  0  0  0
   59.8480   30.8010   46.4150 C   0  0  0  0  0  0  0  0  0  0  0  0
   58.6990   30.3560   47.3100 C   0  0  0  0  0  0  0  0  0  0  0  0
   57.7880   30.2700   50.6050 N   0  0  0  0  0  0  0  0  0  0  0  0
   57.5970   31.1330   51.5930 N   0  0  0  0  0  0  0  0  0  0  0  0
   58.4880   32.1350   51.4690 C   0  0  0  0  0  0  0  0  0  0  0  0
   61.4520   33.0420   50.7220 C   0  0  0  0  0  0  0  0  0  0  0  0
   62.4700   33.8570   50.2320 C   0  0  0  0  0  0  0  0  0  0  0  0
   62.3870   34.3660   48.9760 N   0  0  0  0  0  0  0  0  0  0  0  0
   57.9460   33.9690   46.7170 C   0  0  0  0  0  0  0  0  0  0  0  0
   57.0050   33.0540   46.2420 C   0  0  0  0  0  0  0  0  0  0  0  0
  1  2  1  0
  2  3  2  0
  2  4  2  0
  2  5  1  0
  5  6  1  0
  6  7  2  0
  7  8  1  0
  8  9  2  0
  9 10  1  0
 10 11  1  0
 11 12  2  0
 12 13  1  0
 13 14  2  0
 14 15  1  0
 15 16  1  0
 16 17  1  0
 17 18  1  0
 18 19  1  0
 19 20  1  0
 20 21  1  0
 16 22  2  0
 22 23  1  0
 23 24  1  0
 14 25  1  0
 25 26  2  0
 26 27  1  0
  9 28  1  0
 28 29  2  0
 29  6  1  0
 27 12  1  0
 24 15  2  0
 21 17  1  0
M  CHG  4   1  -1   5  -1  23  -1  27  -1
M  END
>  <UniqueID>  (1292) 
45

>  <SMILES>  (1292) 
[NH-]S(=O)(=O)[N-]c1ccc(C/N=c2/nc(-c3c[n-]nc3C3CCCC3)cc[n-]2)cc1

>  <Energy>  (1292) 
89.39783231943484

>  <Genealogy>  (1292) 
[NH-]S(=O)(=O)[N-]c1ccc(CN=c2nc(-c3c[n-]nc3C3CCCC3)cc[n-]2)cc1 (protonated)
[NH-]S(=O)(=O)[N-]c1ccc(C/N=c2/nc(-c3c[n-]nc3C3CCCC3)cc[n-]2)cc1 (cis-trans isomerization)
[NH-]S(=O)(=O)[N-]c1ccc(C/N=c2/nc(-c3c[n-]nc3C3CCCC3)cc[n-]2)cc1 (3D coordinates assigned)
[NH-]S(=O)(=O)[N-]c1ccc(C/N=c2/nc(-c3c[n-]nc3C3CCCC3)cc[n-]2)cc1 (nonaromatic ring conformer: 89.39783231943484 kcal/mol)

>  <smiles>  (1292) 
NS(=O)(=O)Nc1ccc(CN=c2nc(-c3c[nH]nc3C3CCCC3)cc[nH]2)cc1

>  <score_type>  (1292) 
oracle

>  <origin>  (1292) 
adg

>  <m_score__min__energy>  (1292) 
-15.52

>  <m_primary>  (1292) 
energy

$$$$
62:0
     RDKit          3D

 30 33  0  0  0  0  0  0  0  0999 V2000
   59.5700   29.6590   48.1080 C   0  0  0  0  0  0  0  0  0  0  0  0
   58.8330   30.4110   47.2760 C   0  0  0  0  0  0  0  0  0  0  0  0
   58.3510   30.0630   46.0020 C   0  0  0  0  0  0  0  0  0  0  0  0
   58.3730   28.8920   45.3360 C   0  0  0  0  0  0  0  0  0  0  0  0
   57.5850   27.6930   45.6800 C   0  0  0  0  0  0  0  0  0  0  0  0
   56.1850   27.7240   45.6160 C   0  0  0  0  0  0  0  0  0  0  0  0
   55.5210   28.8650   45.1790 O   0  0  0  0  0  0  0  0  0  0  0  0
   55.4650   26.6290   45.9750 N   0  0  0  0  0  0  0  0  0  0  0  0
   56.0790   25.5000   46.4130 C   0  0  0  0  0  0  0  0  0  0  0  0
   55.3920   24.4960   46.7360 O   0  0  0  0  0  0  0  0  0  0  0  0
   57.4330   25.4540   46.5090 N   0  0  0  0  0  0  0  0  0  0  0  0
   58.1970   26.5220   46.1630 C   0  0  0  0  0  0  0  0  0  0  0  0
   59.4490   26.4530   46.2840 O   0  0  0  0  0  0  0  0  0  0  0  0
   57.7640   31.2060   45.4830 C   0  0  0  0  0  0  0  0  0  0  0  0
   57.8720   32.1860   46.4480 C   0  0  0  0  0  0  0  0  0  0  0  0
   57.3050   33.5670   46.3240 C   0  0  0  0  0  0  0  0  0  0  0  0
   58.4990   31.7000   47.5410 N   0  0  0  0  0  0  0  0  0  0  0  0
   58.8120   32.4510   48.7290 C   0  0  0  0  0  0  0  0  0  0  0  0
   58.1810   32.1070   49.9330 C   0  0  0  0  0  0  0  0  0  0  0  0
   58.4880   32.7870   51.1110 C   0  0  0  0  0  0  0  0  0  0  0  0
   59.4290   33.8150   51.0960 C   0  0  0  0  0  0  0  0  0  0  0  0
   60.0650   34.1690   49.9040 C   0  0  0  0  0  0  0  0  0  0  0  0
   59.7720   33.4920   48.7040 C   0  0  0  0  0  0  0  0  0  0  0  0
   60.4310   33.8830   47.4230 C   0  0  0  0  0  0  0  0  0  0  0  0
   60.0520   34.9510   46.8660 O   0  0  0  0  0  0  0  0  0  0  0  0
   61.5000   33.1230   46.7980 N   0  0  0  0  0  0  0  0  0  0  0  0
   61.9330   31.9180   47.5400 C   0  0  0  0  0  0  0  0  0  0  0  0
   63.4310   32.0310   47.7820 C   0  0  0  0  0  0  0  0  0  0  0  0
   63.9090   33.0890   46.8120 C   0  0  0  0  0  0  0  0  0  0  0  0
   62.6900   33.9530   46.5440 C   0  0  0  0  0  0  0  0  0  0  0  0
  1  2  2  0
  2  3  1  0
  3  4  2  3
  4  5  1  0
  5  6  2  0
  6  7  1  0
  6  8  1  0
  8  9  1  0
  9 10  2  0
  9 11  1  0
 11 12  1  0
 12 13  2  0
  3 14  1  0
 14 15  2  0
 15 16  1  0
 15 17  1  0
 17 18  1  0
 18 19  2  0
 19 20  1  0
 20 21  2  0
 21 22  1  0
 22 23  2  0
 23 24  1  0
 24 25  2  0
 24 26  1  0
 26 27  1  0
 27 28  1  0
 28 29  1  0
 29 30  1  0
 17  2  1  0
 23 18  1  0
 30 26  1  0
 12  5  1  0
M  CHG  4   7  -1   8  -1  11  -1  26   1
M  END
>  <UniqueID>  (1293) 
58

>  <SMILES>  (1293) 
C=c1c(=Cc2c([O-])[n-]c(=O)[n-]c2=O)cc(C)n1-c1ccccc1C(=O)[NH+]1CCCC1

>  <Energy>  (1293) 
114.03210516818886

>  <Genealogy>  (1293) 
C=c1c(=Cc2c([O-])[n-]c(=O)[n-]c2=O)cc(C)n1-c1ccccc1C(=O)[NH+]1CCCC1 (protonated)
C=c1c(=Cc2c([O-])[n-]c(=O)[n-]c2=O)cc(C)n1-c1ccccc1C(=O)[NH+]1CCCC1 (3D coordinates assigned)
C=c1c(=Cc2c([O-])[n-]c(=O)[n-]c2=O)cc(C)n1-c1ccccc1C(=O)[NH+]1CCCC1 (nonaromatic ring conformer: 114.03210516818886 kcal/mol)

>  <smiles>  (1293) 
C=c1c(=Cc2c(O)[nH]c(=O)[nH]c2=O)cc(C)n1-c1ccccc1C(=O)N1CCCC1

>  <score_type>  (1293) 
oracle

>  <origin>  (1293) 
adg

>  <m_score__min__energy>  (1293) 
-15.42

>  <m_primary>  (1293) 
energy

$$$$
72:0
     RDKit          3D

 30 33  0  0  0  0  0  0  0  0999 V2000
   61.2080   29.7560   46.0080 O   0  0  0  0  0  0  0  0  0  0  0  0
   60.3390   30.7290   46.5040 C   0  0  0  0  0  0  0  0  0  0  0  0
   60.8540   31.7400   47.3210 C   0  0  0  0  0  0  0  0  0  0  0  0
   60.0110   32.7240   47.8630 C   0  0  0  0  0  0  0  0  0  0  0  0
   60.5600   33.7930   48.7270 C   0  0  0  0  0  0  0  0  0  0  0  0
   60.0580   34.9490   48.6670 O   0  0  0  0  0  0  0  0  0  0  0  0
   61.6610   33.5450   49.6210 N   0  0  0  0  0  0  0  0  0  0  0  0
   62.6460   34.6150   49.8330 C   0  0  0  0  0  0  0  0  0  0  0  0
   63.7900   34.1730   50.7450 C   0  0  0  0  0  0  0  0  0  0  0  0
   64.4700   32.5900   50.1570 S   0  0  0  0  0  0  0  0  0  0  0  0
   62.9620   31.5740   50.4170 C   0  0  0  0  0  0  0  0  0  0  0  0
   61.6470   32.3670   50.5020 C   0  0  0  0  0  0  0  0  0  0  0  0
   58.6430   32.7000   47.5510 C   0  0  0  0  0  0  0  0  0  0  0  0
   58.1230   31.6960   46.7300 C   0  0  0  0  0  0  0  0  0  0  0  0
   58.9630   30.7070   46.2030 C   0  0  0  0  0  0  0  0  0  0  0  0
   58.4100   29.6920   45.3490 N   0  0  0  0  0  0  0  0  0  0  0  0
   57.7930   29.9090   44.1700 C   0  0  0  0  0  0  0  0  0  0  0  0
   57.6090   31.2550   43.5390 C   0  0  0  0  0  0  0  0  0  0  0  0
   57.3710   28.7140   43.6210 C   0  0  0  0  0  0  0  0  0  0  0  0
   57.7350   27.7100   44.5160 C   0  0  0  0  0  0  0  0  0  0  0  0
   57.5050   26.3850   44.3970 C   0  0  0  0  0  0  0  0  0  0  0  0
   57.0130   25.4940   45.4710 C   0  0  0  0  0  0  0  0  0  0  0  0
   57.6460   24.4070   45.9500 N   0  0  0  0  0  0  0  0  0  0  0  0
   56.8260   23.9690   46.9300 C   0  0  0  0  0  0  0  0  0  0  0  0
   57.0810   22.9500   47.6230 O   0  0  0  0  0  0  0  0  0  0  0  0
   55.7150   24.7130   47.1120 N   0  0  0  0  0  0  0  0  0  0  0  0
   55.8500   25.6740   46.1840 C   0  0  0  0  0  0  0  0  0  0  0  0
   54.9290   26.6960   45.9920 O   0  0  0  0  0  0  0  0  0  0  0  0
   58.3760   28.3570   45.5810 C   0  0  0  0  0  0  0  0  0  0  0  0
   58.9040   27.7800   46.6720 C   0  0  0  0  0  0  0  0  0  0  0  0
  1  2  1  0
  2  3  2  0
  3  4  1  0
  4  5  1  0
  5  6  2  0
  5  7  1  0
  7  8  1  0
  8  9  1  0
  9 10  1  0
 10 11  1  0
 11 12  1  0
  4 13  2  0
 13 14  1  0
 14 15  2  0
 15 16  1  0
 16 17  1  0
 17 18  1  0
 17 19  2  0
 19 20  1  0
 20 21  2  0
 21 22  1  0
 22 23  1  0
 23 24  1  0
 24 25  2  0
 24 26  1  0
 26 27  1  0
 27 28  1  0
 20 29  1  0
 29 30  2  0
 15  2  1  0
 29 16  1  0
 12  7  1  0
 27 22  2  0
M  CHG  3  23  -1  26  -1  28  -1
M  END
>  <UniqueID>  (1294) 
67

>  <SMILES>  (1294) 
C=c1/c(=C/c2[n-]c(=O)[n-]c2[O-])cc(C)n1-c1ccc(C(=O)N2CCSCC2)cc1O

>  <Energy>  (1294) 
126.44806432794533

>  <Genealogy>  (1294) 
C=c1c(=Cc2[n-]c(=O)[n-]c2[O-])cc(C)n1-c1ccc(C(=O)N2CCSCC2)cc1O (protonated)
C=c1/c(=C/c2[n-]c(=O)[n-]c2[O-])cc(C)n1-c1ccc(C(=O)N2CCSCC2)cc1O (cis-trans isomerization)
C=c1/c(=C/c2[n-]c(=O)[n-]c2[O-])cc(C)n1-c1ccc(C(=O)N2CCSCC2)cc1O (3D coordinates assigned)
C=c1/c(=C/c2[n-]c(=O)[n-]c2[O-])cc(C)n1-c1ccc(C(=O)N2CCSCC2)cc1O (nonaromatic ring conformer: 126.44806432794533 kcal/mol)

>  <smiles>  (1294) 
C=c1c(=Cc2[nH]c(=O)[nH]c2O)cc(C)n1-c1ccc(C(=O)N2CCSCC2)cc1O

>  <score_type>  (1294) 
oracle

>  <origin>  (1294) 
adg

>  <m_score__min__energy>  (1294) 
-15.81

>  <m_primary>  (1294) 
energy

$$$$
5:0
     RDKit          3D

 33 36  0  0  0  0  0  0  0  0999 V2000
   58.4570   33.0900   46.7230 C   0  0  0  0  0  0  0  0  0  0  0  0
   58.1120   32.5370   47.9160 N   0  0  0  0  0  0  0  0  0  0  0  0
   58.8210   32.7780   49.0570 C   0  0  0  0  0  0  0  0  0  0  0  0
   58.4540   32.2590   50.1940 N   0  0  0  0  0  0  0  0  0  0  0  0
   58.2770   30.8570   50.4540 C   0  0  0  0  0  0  0  0  0  0  0  0
   57.3680   30.4960   51.2470 O   0  0  0  0  0  0  0  0  0  0  0  0
   59.1610   29.8350   49.8500 C   0  0  0  0  0  0  0  0  0  0  0  0
   59.2010   29.6820   48.4550 C   0  0  0  0  0  0  0  0  0  0  0  0
   60.0660   28.7480   47.8650 C   0  0  0  0  0  0  0  0  0  0  0  0
   60.1790   28.6320   46.1070 S   0  0  0  0  0  0  0  0  0  0  0  0
   61.0690   29.7340   45.6040 O   0  0  0  0  0  0  0  0  0  0  0  0
   60.8360   27.3240   45.7650 O   0  0  0  0  0  0  0  0  0  0  0  0
   58.6260   28.6980   45.2920 N   0  0  0  0  0  0  0  0  0  0  0  0
   58.5490   27.8830   44.0640 C   0  0  0  0  0  0  0  0  0  0  0  0
   58.1840   26.4120   44.3200 C   0  0  0  0  0  0  0  0  0  0  0  0
   57.0980   26.2930   45.2910 N   0  0  0  0  0  0  0  0  0  0  0  0
   56.2990   25.1030   45.2690 C   0  0  0  0  0  0  0  0  0  0  0  0
   56.8980   23.8770   44.9450 C   0  0  0  0  0  0  0  0  0  0  0  0
   56.1440   22.7010   44.9530 C   0  0  0  0  0  0  0  0  0  0  0  0
   54.7890   22.7410   45.2930 C   0  0  0  0  0  0  0  0  0  0  0  0
   54.1850   23.9590   45.6240 C   0  0  0  0  0  0  0  0  0  0  0  0
   54.9350   25.1400   45.6160 C   0  0  0  0  0  0  0  0  0  0  0  0
   54.3290   26.3370   45.9770 O   0  0  0  0  0  0  0  0  0  0  0  0
   57.1610   27.0890   46.5150 C   0  0  0  0  0  0  0  0  0  0  0  0
   57.4580   28.5490   46.1790 C   0  0  0  0  0  0  0  0  0  0  0  0
   60.8350   27.9080   48.6820 C   0  0  0  0  0  0  0  0  0  0  0  0
   60.7850   28.0410   50.0710 C   0  0  0  0  0  0  0  0  0  0  0  0
   59.9610   29.0050   50.6580 C   0  0  0  0  0  0  0  0  0  0  0  0
   59.9210   29.1030   52.0100 F   0  0  0  0  0  0  0  0  0  0  0  0
   59.9360   33.6280   49.0090 C   0  0  0  0  0  0  0  0  0  0  0  0
   60.6660   33.9100   50.1580 O   0  0  0  0  0  0  0  0  0  0  0  0
   60.3120   34.1950   47.7880 C   0  0  0  0  0  0  0  0  0  0  0  0
   59.5700   33.9280   46.6370 C   0  0  0  0  0  0  0  0  0  0  0  0
  1  2  1  0
  2  3  1  0
  3  4  2  0
  4  5  1  0
  5  6  2  0
  5  7  1  0
  7  8  2  0
  8  9  1  0
  9 10  1  0
 10 11  2  0
 10 12  2  0
 10 13  1  0
 13 14  1  0
 14 15  1  0
 15 16  1  0
 16 17  1  0
 17 18  2  0
 18 19  1  0
 19 20  2  0
 20 21  1  0
 21 22  2  0
 22 23  1  0
 16 24  1  0
 24 25  1  0
  9 26  2  0
 26 27  1  0
 27 28  2  0
 28 29  1  0
  3 30  1  0
 30 31  1  0
 30 32  2  0
 32 33  1  0
 33  1  2  0
 28  7  1  0
 25 13  1  0
 22 17  1  0
M  CHG  3   2  -1  23  -1  31  -1
M  END
>  <UniqueID>  (1295) 
6

>  <SMILES>  (1295) 
O=C(/N=c1\[n-]cccc1[O-])c1cc(S(=O)(=O)N2CCN(c3ccccc3[O-])CC2)ccc1F

>  <Energy>  (1295) 
71.98286988007749

>  <Genealogy>  (1295) 
O=C(N=c1[n-]cccc1[O-])c1cc(S(=O)(=O)N2CCN(c3ccccc3[O-])CC2)ccc1F (protonated)
O=C(/N=c1\[n-]cccc1[O-])c1cc(S(=O)(=O)N2CCN(c3ccccc3[O-])CC2)ccc1F (cis-trans isomerization)
O=C(/N=c1\[n-]cccc1[O-])c1cc(S(=O)(=O)N2CCN(c3ccccc3[O-])CC2)ccc1F (3D coordinates assigned)
O=C(/N=c1\[n-]cccc1[O-])c1cc(S(=O)(=O)N2CCN(c3ccccc3[O-])CC2)ccc1F (nonaromatic ring conformer: 71.98286988007749 kcal/mol)

>  <smiles>  (1295) 
O=C(N=c1[nH]cccc1O)c1cc(S(=O)(=O)N2CCN(c3ccccc3O)CC2)ccc1F

>  <score_type>  (1295) 
oracle

>  <origin>  (1295) 
adg

>  <m_score__min__energy>  (1295) 
-15.6

>  <m_primary>  (1295) 
energy

$$$$
7:0
     RDKit          3D

 30 32  0  0  0  0  0  0  0  0999 V2000
   55.1400   29.1240   44.5010 O   0  0  0  0  0  0  0  0  0  0  0  0
   56.3000   29.5870   44.6720 C   0  0  0  0  0  0  0  0  0  0  0  0
   56.9840   30.3040   43.5530 C   0  0  0  0  0  0  0  0  0  0  0  0
   58.1040   31.0840   44.0660 N   0  0  0  0  0  0  0  0  0  0  0  0
   58.1970   32.5090   43.9470 C   0  0  0  0  0  0  0  0  0  0  0  0
   57.9580   33.0660   42.8420 O   0  0  0  0  0  0  0  0  0  0  0  0
   58.6380   33.3130   45.1080 C   0  0  0  0  0  0  0  0  0  0  0  0
   59.2760   34.5440   44.8690 C   0  0  0  0  0  0  0  0  0  0  0  0
   59.6480   35.3720   45.9310 C   0  0  0  0  0  0  0  0  0  0  0  0
   59.3880   34.9820   47.2440 C   0  0  0  0  0  0  0  0  0  0  0  0
   58.7750   33.7560   47.5010 C   0  0  0  0  0  0  0  0  0  0  0  0
   58.4130   32.9040   46.4480 C   0  0  0  0  0  0  0  0  0  0  0  0
   57.8700   31.6590   46.7740 O   0  0  0  0  0  0  0  0  0  0  0  0
   56.9640   29.4440   45.9330 N   0  0  0  0  0  0  0  0  0  0  0  0
   57.6980   28.2870   46.3520 C   0  0  0  0  0  0  0  0  0  0  0  0
   57.1730   27.0190   46.0660 C   0  0  0  0  0  0  0  0  0  0  0  0
   57.8510   25.8600   46.4640 C   0  0  0  0  0  0  0  0  0  0  0  0
   57.1920   24.2820   46.0430 S   0  0  0  0  0  0  0  0  0  0  0  0
   57.5200   23.2860   47.1210 O   0  0  0  0  0  0  0  0  0  0  0  0
   55.6970   24.4040   45.9390 O   0  0  0  0  0  0  0  0  0  0  0  0
   57.8690   23.7770   44.5090 N   0  0  0  0  0  0  0  0  0  0  0  0
   58.1700   22.3280   44.4880 C   0  0  0  0  0  0  0  0  0  0  0  0
   57.0800   21.5040   43.7800 C   0  0  0  0  0  0  0  0  0  0  0  0
   55.8160   22.1020   43.9650 O   0  0  0  0  0  0  0  0  0  0  0  0
   55.7440   23.3250   43.2530 C   0  0  0  0  0  0  0  0  0  0  0  0
   57.0210   24.1890   43.3760 C   0  0  0  0  0  0  0  0  0  0  0  0
   59.0590   25.9720   47.1660 C   0  0  0  0  0  0  0  0  0  0  0  0
   59.5720   27.2310   47.4850 C   0  0  0  0  0  0  0  0  0  0  0  0
   58.8920   28.3890   47.0940 C   0  0  0  0  0  0  0  0  0  0  0  0
   59.3930   29.6280   47.4750 O   0  0  0  0  0  0  0  0  0  0  0  0
  1  2  2  0
  2  3  1  0
  3  4  1  0
  4  5  1  0
  5  6  2  0
  5  7  1  0
  7  8  2  0
  8  9  1  0
  9 10  2  0
 10 11  1  0
 11 12  2  0
 12 13  1  0
  2 14  1  0
 14 15  1  0
 15 16  2  0
 16 17  1  0
 17 18  1  0
 18 19  2  0
 18 20  2  0
 18 21  1  0
 21 22  1  0
 22 23  1  0
 23 24  1  0
 24 25  1  0
 25 26  1  0
 17 27  2  0
 27 28  1  0
 28 29  2  0
 29 30  1  0
 12  7  1  0
 29 15  1  0
 26 21  1  0
M  CHG  3   4  -1  14  -1  30  -1
M  END
>  <UniqueID>  (1296) 
8

>  <SMILES>  (1296) 
O=C(C[N-]C(=O)c1ccccc1O)[N-]c1cc(S(=O)(=O)N2CCOCC2)ccc1[O-]

>  <Energy>  (1296) 
67.83489381930539

>  <Genealogy>  (1296) 
O=C(C[N-]C(=O)c1ccccc1O)[N-]c1cc(S(=O)(=O)N2CCOCC2)ccc1[O-] (protonated)
O=C(C[N-]C(=O)c1ccccc1O)[N-]c1cc(S(=O)(=O)N2CCOCC2)ccc1[O-] (3D coordinates assigned)
O=C(C[N-]C(=O)c1ccccc1O)[N-]c1cc(S(=O)(=O)N2CCOCC2)ccc1[O-] (nonaromatic ring conformer: 67.83489381930539 kcal/mol)

>  <smiles>  (1296) 
O=C(CNC(=O)c1ccccc1O)Nc1cc(S(=O)(=O)N2CCOCC2)ccc1O

>  <score_type>  (1296) 
oracle

>  <origin>  (1296) 
adg

>  <m_score__min__energy>  (1296) 
-14.35

>  <m_primary>  (1296) 
energy

$$$$
25:0
     RDKit          3D

 26 28  0  0  0  0  0  0  0  0999 V2000
   55.9540   29.4360   45.1500 O   0  0  0  0  0  0  0  0  0  0  0  0
   56.7710   28.4150   45.6280 C   0  0  0  0  0  0  0  0  0  0  0  0
   58.1290   28.4960   45.8730 C   0  0  0  0  0  0  0  0  0  0  0  0
   58.9860   29.6930   45.7680 C   0  0  0  0  0  0  0  0  0  0  0  0
   60.0830   29.6250   45.1530 O   0  0  0  0  0  0  0  0  0  0  0  0
   58.6300   30.9140   46.4300 N   0  0  0  0  0  0  0  0  0  0  0  0
   58.5900   32.1210   45.9340 C   0  0  0  0  0  0  0  0  0  0  0  0
   59.6780   32.9190   46.1180 N   0  0  0  0  0  0  0  0  0  0  0  0
   59.7330   34.2010   45.6710 C   0  0  0  0  0  0  0  0  0  0  0  0
   58.6480   34.7490   44.9900 C   0  0  0  0  0  0  0  0  0  0  0  0
   57.5230   33.9610   44.7570 C   0  0  0  0  0  0  0  0  0  0  0  0
   57.4860   32.6370   45.2020 C   0  0  0  0  0  0  0  0  0  0  0  0
   56.3840   31.8590   44.8680 O   0  0  0  0  0  0  0  0  0  0  0  0
   58.5100   27.2540   46.3560 C   0  0  0  0  0  0  0  0  0  0  0  0
   57.4370   26.4370   46.4250 N   0  0  0  0  0  0  0  0  0  0  0  0
   57.4140   25.1190   47.0550 C   0  0  0  0  0  0  0  0  0  0  0  0
   56.8830   24.1060   46.0760 C   0  0  0  0  0  0  0  0  0  0  0  0
   57.7680   23.3130   45.3310 C   0  0  0  0  0  0  0  0  0  0  0  0
   57.2790   22.4440   44.3540 C   0  0  0  0  0  0  0  0  0  0  0  0
   55.9060   22.3710   44.1020 C   0  0  0  0  0  0  0  0  0  0  0  0
   55.0090   23.1640   44.8250 C   0  0  0  0  0  0  0  0  0  0  0  0
   53.6420   23.0670   44.5250 O   0  0  0  0  0  0  0  0  0  0  0  0
   52.6790   24.0710   44.8310 C   0  0  0  0  0  0  0  0  0  0  0  0
   55.5040   24.0340   45.8170 C   0  0  0  0  0  0  0  0  0  0  0  0
   56.3770   27.1460   45.9860 C   0  0  0  0  0  0  0  0  0  0  0  0
   55.0740   26.6630   45.9430 O   0  0  0  0  0  0  0  0  0  0  0  0
  1  2  1  0
  2  3  1  0
  3  4  1  0
  4  5  2  0
  4  6  1  0
  6  7  2  0
  7  8  1  0
  8  9  1  0
  9 10  2  0
 10 11  1  0
 11 12  2  0
 12 13  1  0
  3 14  2  0
 14 15  1  0
 15 16  1  0
 16 17  1  0
 17 18  2  0
 18 19  1  0
 19 20  2  0
 20 21  1  0
 21 22  1  0
 22 23  1  0
 21 24  2  0
 15 25  1  0
 25 26  1  0
 25  2  2  0
 12  7  1  0
 24 17  1  0
M  CHG  3   8  -1  13  -1  26  -1
M  END
>  <UniqueID>  (1297) 
26

>  <SMILES>  (1297) 
COc1cccc(Cn2cc(C(=O)/N=c3/[n-]cccc3[O-])c(O)c2[O-])c1

>  <Energy>  (1297) 
79.54141895594736

>  <Genealogy>  (1297) 
COc1cccc(Cn2cc(C(=O)N=c3[n-]cccc3[O-])c(O)c2[O-])c1 (protonated)
COc1cccc(Cn2cc(C(=O)/N=c3/[n-]cccc3[O-])c(O)c2[O-])c1 (cis-trans isomerization)
COc1cccc(Cn2cc(C(=O)/N=c3/[n-]cccc3[O-])c(O)c2[O-])c1 (3D coordinates assigned)
COc1cccc(Cn2cc(C(=O)/N=c3/[n-]cccc3[O-])c(O)c2[O-])c1 (optimized conformer: 79.54141895594736 kcal/mol)

>  <smiles>  (1297) 
COc1cccc(Cn2cc(C(=O)N=c3[nH]cccc3O)c(O)c2O)c1

>  <score_type>  (1297) 
oracle

>  <origin>  (1297) 
adg

>  <m_score__min__energy>  (1297) 
-14.470000000000001

>  <m_primary>  (1297) 
energy

$$$$
39:0
     RDKit          3D

 28 31  0  0  0  0  0  0  0  0999 V2000
   60.3600   29.2820   44.8610 C   0  0  0  0  0  0  0  0  0  0  0  0
   59.6680   29.2660   46.0090 C   0  0  0  0  0  0  0  0  0  0  0  0
   58.8130   28.2540   46.4550 C   0  0  0  0  0  0  0  0  0  0  0  0
   58.4600   27.1350   45.7940 C   0  0  0  0  0  0  0  0  0  0  0  0
   57.1230   26.5180   45.8710 C   0  0  0  0  0  0  0  0  0  0  0  0
   56.9130   25.2680   46.3180 N   0  0  0  0  0  0  0  0  0  0  0  0
   55.5690   25.1480   46.3000 C   0  0  0  0  0  0  0  0  0  0  0  0
   54.9760   24.0920   46.6440 O   0  0  0  0  0  0  0  0  0  0  0  0
   54.9080   26.2530   45.8930 N   0  0  0  0  0  0  0  0  0  0  0  0
   55.9040   27.1160   45.6380 C   0  0  0  0  0  0  0  0  0  0  0  0
   55.6970   28.4330   45.2460 O   0  0  0  0  0  0  0  0  0  0  0  0
   58.3470   28.6580   47.7020 C   0  0  0  0  0  0  0  0  0  0  0  0
   58.9380   29.8770   47.9680 C   0  0  0  0  0  0  0  0  0  0  0  0
   58.6870   30.7080   49.1890 C   0  0  0  0  0  0  0  0  0  0  0  0
   59.7240   30.2520   46.9370 N   0  0  0  0  0  0  0  0  0  0  0  0
   60.4960   31.4610   46.8760 C   0  0  0  0  0  0  0  0  0  0  0  0
   61.6990   31.5140   47.5170 N   0  0  0  0  0  0  0  0  0  0  0  0
   62.4800   32.6260   47.4860 C   0  0  0  0  0  0  0  0  0  0  0  0
   62.0620   33.7550   46.7850 C   0  0  0  0  0  0  0  0  0  0  0  0
   60.8350   33.7360   46.1250 C   0  0  0  0  0  0  0  0  0  0  0  0
   60.0280   32.5910   46.1700 C   0  0  0  0  0  0  0  0  0  0  0  0
   58.4650   32.6020   45.3420 S   0  0  0  0  0  0  0  0  0  0  0  0
   58.1620   33.9830   44.8230 O   0  0  0  0  0  0  0  0  0  0  0  0
   57.3940   32.1910   46.3110 O   0  0  0  0  0  0  0  0  0  0  0  0
   58.5000   31.4660   44.0110 N   0  0  0  0  0  0  0  0  0  0  0  0
   57.7860   32.0020   42.8460 C   0  0  0  0  0  0  0  0  0  0  0  0
   56.6630   30.9920   42.9640 C   0  0  0  0  0  0  0  0  0  0  0  0
   57.4380   30.4610   44.1520 C   0  0  0  0  0  0  0  0  0  0  0  0
  1  2  2  0
  2  3  1  0
  3  4  2  3
  4  5  1  0
  5  6  1  0
  6  7  1  0
  7  8  2  0
  7  9  1  0
  9 10  1  0
 10 11  1  0
  3 12  1  0
 12 13  2  0
 13 14  1  0
 13 15  1  0
 15 16  1  0
 16 17  2  0
 17 18  1  0
 18 19  2  0
 19 20  1  0
 20 21  2  0
 21 22  1  0
 22 23  2  0
 22 24  2  0
 22 25  1  0
 25 26  1  0
 26 27  1  0
 27 28  1  0
 15  2  1  0
 21 16  1  0
 28 25  1  0
 10  5  2  0
M  CHG  4   6  -1   9  -1  11  -1  17   1
M  END
>  <UniqueID>  (1298) 
39

>  <SMILES>  (1298) 
C=c1c(=Cc2[n-]c(=O)[n-]c2[O-])cc(C)n1-c1[nH+]cccc1S(=O)(=O)N1CCC1

>  <Energy>  (1298) 
186.32459827154383

>  <Genealogy>  (1298) 
C=c1c(=Cc2[n-]c(=O)[n-]c2[O-])cc(C)n1-c1[nH+]cccc1S(=O)(=O)N1CCC1 (protonated)
C=c1c(=Cc2[n-]c(=O)[n-]c2[O-])cc(C)n1-c1[nH+]cccc1S(=O)(=O)N1CCC1 (3D coordinates assigned)
C=c1c(=Cc2[n-]c(=O)[n-]c2[O-])cc(C)n1-c1[nH+]cccc1S(=O)(=O)N1CCC1 (nonaromatic ring conformer: 186.32459827154383 kcal/mol)

>  <smiles>  (1298) 
C=c1c(=Cc2[nH]c(=O)[nH]c2O)cc(C)n1-c1ncccc1S(=O)(=O)N1CCC1

>  <score_type>  (1298) 
oracle

>  <origin>  (1298) 
adg

>  <m_score__min__energy>  (1298) 
-14.35

>  <m_primary>  (1298) 
energy

$$$$
47:0
     RDKit          3D

 34 37  0  0  0  0  0  0  0  0999 V2000
   59.3270   26.1460   47.1090 C   0  0  0  0  0  0  0  0  0  0  0  0
   58.5990   27.0380   46.4190 C   0  0  0  0  0  0  0  0  0  0  0  0
   57.8260   26.8010   45.2680 C   0  0  0  0  0  0  0  0  0  0  0  0
   57.4750   25.6540   44.6540 C   0  0  0  0  0  0  0  0  0  0  0  0
   56.2740   24.8490   44.9510 C   0  0  0  0  0  0  0  0  0  0  0  0
   55.1590   25.4130   45.5960 C   0  0  0  0  0  0  0  0  0  0  0  0
   55.1690   26.7430   46.0010 O   0  0  0  0  0  0  0  0  0  0  0  0
   54.0550   24.6550   45.8230 N   0  0  0  0  0  0  0  0  0  0  0  0
   53.9970   23.3600   45.4200 C   0  0  0  0  0  0  0  0  0  0  0  0
   52.9650   22.6770   45.6430 O   0  0  0  0  0  0  0  0  0  0  0  0
   55.0500   22.8040   44.7670 N   0  0  0  0  0  0  0  0  0  0  0  0
   56.1780   23.5180   44.5160 C   0  0  0  0  0  0  0  0  0  0  0  0
   57.1330   22.9730   43.8990 O   0  0  0  0  0  0  0  0  0  0  0  0
   57.4250   28.0450   44.8090 C   0  0  0  0  0  0  0  0  0  0  0  0
   57.9050   28.9770   45.7050 C   0  0  0  0  0  0  0  0  0  0  0  0
   57.6910   30.4560   45.5900 C   0  0  0  0  0  0  0  0  0  0  0  0
   58.6150   28.3690   46.6800 N   0  0  0  0  0  0  0  0  0  0  0  0
   59.2820   29.0340   47.7680 C   0  0  0  0  0  0  0  0  0  0  0  0
   58.7680   28.9440   49.0690 C   0  0  0  0  0  0  0  0  0  0  0  0
   59.4130   29.5900   50.1260 C   0  0  0  0  0  0  0  0  0  0  0  0
   60.5750   30.3310   49.8920 C   0  0  0  0  0  0  0  0  0  0  0  0
   61.1030   30.4270   48.5910 C   0  0  0  0  0  0  0  0  0  0  0  0
   62.3010   31.1620   48.3060 N   0  0  0  0  0  0  0  0  0  0  0  0
   62.3590   32.8240   47.8120 S   0  0  0  0  0  0  0  0  0  0  0  0
   62.5880   33.6890   49.0180 O   0  0  0  0  0  0  0  0  0  0  0  0
   63.4990   33.0090   46.8490 O   0  0  0  0  0  0  0  0  0  0  0  0
   60.8310   33.2810   47.0650 C   0  0  0  0  0  0  0  0  0  0  0  0
   60.8220   33.8660   45.7920 C   0  0  0  0  0  0  0  0  0  0  0  0
   59.6140   34.2440   45.2010 C   0  0  0  0  0  0  0  0  0  0  0  0
   58.4060   34.0350   45.8770 C   0  0  0  0  0  0  0  0  0  0  0  0
   56.8900   34.5060   45.1340 Cl  0  0  0  0  0  0  0  0  0  0  0  0
   58.4110   33.4440   47.1460 C   0  0  0  0  0  0  0  0  0  0  0  0
   59.6200   33.0660   47.7380 C   0  0  0  0  0  0  0  0  0  0  0  0
   60.4490   29.7800   47.5360 C   0  0  0  0  0  0  0  0  0  0  0  0
  1  2  2  0
  2  3  1  0
  3  4  2  0
  4  5  1  0
  5  6  2  0
  6  7  1  0
  6  8  1  0
  8  9  1  0
  9 10  2  0
  9 11  1  0
 11 12  1  0
 12 13  2  0
  3 14  1  0
 14 15  2  0
 15 16  1  0
 15 17  1  0
 17 18  1  0
 18 19  2  0
 19 20  1  0
 20 21  2  0
 21 22  1  0
 22 23  1  0
 23 24  1  0
 24 25  2  0
 24 26  2  0
 24 27  1  0
 27 28  2  0
 28 29  1  0
 29 30  2  0
 30 31  1  0
 30 32  1  0
 32 33  2  0
 22 34  2  0
 17  2  1  0
 34 18  1  0
 12  5  1  0
 33 27  1  0
M  CHG  4   7  -1   8  -1  11  -1  23  -1
M  END
>  <UniqueID>  (1299) 
47

>  <SMILES>  (1299) 
C=c1/c(=C\c2c([O-])[n-]c(=O)[n-]c2=O)cc(C)n1-c1cccc([N-]S(=O)(=O)c2ccc(Cl)cc2)c1

>  <Energy>  (1299) 
105.66410691103732

>  <Genealogy>  (1299) 
C=c1c(=Cc2c([O-])[n-]c(=O)[n-]c2=O)cc(C)n1-c1cccc([N-]S(=O)(=O)c2ccc(Cl)cc2)c1 (protonated)
C=c1/c(=C\c2c([O-])[n-]c(=O)[n-]c2=O)cc(C)n1-c1cccc([N-]S(=O)(=O)c2ccc(Cl)cc2)c1 (cis-trans isomerization)
C=c1/c(=C\c2c([O-])[n-]c(=O)[n-]c2=O)cc(C)n1-c1cccc([N-]S(=O)(=O)c2ccc(Cl)cc2)c1 (3D coordinates assigned)
C=c1/c(=C\c2c([O-])[n-]c(=O)[n-]c2=O)cc(C)n1-c1cccc([N-]S(=O)(=O)c2ccc(Cl)cc2)c1 (optimized conformer: 105.66410691103732 kcal/mol)

>  <smiles>  (1299) 
C=c1c(=Cc2c(O)[nH]c(=O)[nH]c2=O)cc(C)n1-c1cccc(NS(=O)(=O)c2ccc(Cl)cc2)c1

>  <score_type>  (1299) 
oracle

>  <origin>  (1299) 
adg

>  <m_score__min__energy>  (1299) 
-18.260000000000002

>  <m_primary>  (1299) 
energy

$$$$
55:0
     RDKit          3D

 34 36  0  0  0  0  0  0  0  0999 V2000
   55.2280   22.8970   48.6020 O   0  0  0  0  0  0  0  0  0  0  0  0
   55.8520   22.3820   47.6350 C   0  0  0  0  0  0  0  0  0  0  0  0
   55.1080   21.5480   46.6370 C   0  0  0  0  0  0  0  0  0  0  0  0
   55.5750   21.8680   45.2380 C   0  0  0  0  0  0  0  0  0  0  0  0
   56.4600   20.9970   44.5730 C   0  0  0  0  0  0  0  0  0  0  0  0
   56.9310   21.3130   43.2930 C   0  0  0  0  0  0  0  0  0  0  0  0
   56.5220   22.4970   42.6660 C   0  0  0  0  0  0  0  0  0  0  0  0
   55.6450   23.3680   43.3210 C   0  0  0  0  0  0  0  0  0  0  0  0
   55.1750   23.0580   44.6040 C   0  0  0  0  0  0  0  0  0  0  0  0
   57.2640   22.5920   47.4880 N   0  0  0  0  0  0  0  0  0  0  0  0
   57.8290   23.5050   46.4980 C   0  0  0  0  0  0  0  0  0  0  0  0
   58.0450   24.9010   47.0990 C   0  0  0  0  0  0  0  0  0  0  0  0
   56.7750   25.5970   47.2730 N   0  0  0  0  0  0  0  0  0  0  0  0
   56.1180   26.3480   46.2460 C   0  0  0  0  0  0  0  0  0  0  0  0
   54.9020   26.1390   45.9830 O   0  0  0  0  0  0  0  0  0  0  0  0
   56.8700   27.3900   45.5210 C   0  0  0  0  0  0  0  0  0  0  0  0
   58.0900   27.1940   45.2640 O   0  0  0  0  0  0  0  0  0  0  0  0
   56.2910   28.6590   45.1770 N   0  0  0  0  0  0  0  0  0  0  0  0
   56.9730   29.9170   45.0680 C   0  0  0  0  0  0  0  0  0  0  0  0
   56.7680   30.6920   43.9260 C   0  0  0  0  0  0  0  0  0  0  0  0
   57.3850   31.9380   43.7990 C   0  0  0  0  0  0  0  0  0  0  0  0
   58.2090   32.4320   44.8170 C   0  0  0  0  0  0  0  0  0  0  0  0
   58.9360   34.0180   44.5750 Cl  0  0  0  0  0  0  0  0  0  0  0  0
   58.4160   31.6630   45.9840 C   0  0  0  0  0  0  0  0  0  0  0  0
   59.4180   32.2130   47.3380 S   0  0  0  0  0  0  0  0  0  0  0  0
   58.8940   33.5450   47.7990 O   0  0  0  0  0  0  0  0  0  0  0  0
   59.3480   31.2610   48.4980 O   0  0  0  0  0  0  0  0  0  0  0  0
   61.0730   32.4000   46.8140 N   0  0  0  0  0  0  0  0  0  0  0  0
   61.9180   31.3700   47.4380 C   0  0  0  0  0  0  0  0  0  0  0  0
   63.4060   31.6850   47.1980 C   0  0  0  0  0  0  0  0  0  0  0  0
   63.8250   32.9960   47.5710 O   0  0  0  0  0  0  0  0  0  0  0  0
   62.7680   33.8260   48.0080 C   0  0  0  0  0  0  0  0  0  0  0  0
   61.5620   33.7780   47.0530 C   0  0  0  0  0  0  0  0  0  0  0  0
   57.7720   30.4210   46.1080 C   0  0  0  0  0  0  0  0  0  0  0  0
  1  2  2  0
  2  3  1  0
  3  4  1  0
  4  5  2  0
  5  6  1  0
  6  7  2  0
  7  8  1  0
  8  9  2  0
  2 10  1  0
 10 11  1  0
 11 12  1  0
 12 13  1  0
 13 14  1  0
 14 15  2  0
 14 16  1  0
 16 17  2  0
 16 18  1  0
 18 19  1  0
 19 20  2  0
 20 21  1  0
 21 22  2  0
 22 23  1  0
 22 24  1  0
 24 25  1  0
 25 26  2  0
 25 27  2  0
 25 28  1  0
 28 29  1  0
 29 30  1  0
 30 31  1  0
 31 32  1  0
 32 33  1  0
 24 34  2  0
  9  4  1  0
 34 19  1  0
 33 28  1  0
M  CHG  3  10  -1  13  -1  18  -1
M  END
>  <UniqueID>  (1300) 
53

>  <SMILES>  (1300) 
O=C(Cc1ccccc1)[N-]CC[N-]C(=O)C(=O)[N-]c1ccc(Cl)c(S(=O)(=O)N2CCOCC2)c1

>  <Energy>  (1300) 
65.89740708296678

>  <Genealogy>  (1300) 
O=C(Cc1ccccc1)[N-]CC[N-]C(=O)C(=O)[N-]c1ccc(Cl)c(S(=O)(=O)N2CCOCC2)c1 (protonated)
O=C(Cc1ccccc1)[N-]CC[N-]C(=O)C(=O)[N-]c1ccc(Cl)c(S(=O)(=O)N2CCOCC2)c1 (3D coordinates assigned)
O=C(Cc1ccccc1)[N-]CC[N-]C(=O)C(=O)[N-]c1ccc(Cl)c(S(=O)(=O)N2CCOCC2)c1 (nonaromatic ring conformer: 65.89740708296678 kcal/mol)

>  <smiles>  (1300) 
O=C(Cc1ccccc1)NCCNC(=O)C(=O)Nc1ccc(Cl)c(S(=O)(=O)N2CCOCC2)c1

>  <score_type>  (1300) 
oracle

>  <origin>  (1300) 
adg

>  <m_score__min__energy>  (1300) 
-14.039999999999999

>  <m_primary>  (1300) 
energy

$$$$
76:0
     RDKit          3D

 31 34  0  0  0  0  0  0  0  0999 V2000
   59.0970   32.9320   50.0200 C   0  0  0  0  0  0  0  0  0  0  0  0
   59.0290   31.5520   49.4260 C   0  0  0  0  0  0  0  0  0  0  0  0
   58.5110   30.4470   50.1200 C   0  0  0  0  0  0  0  0  0  0  0  0
   58.0320   30.4080   51.5150 C   0  0  0  0  0  0  0  0  0  0  0  0
   57.0370   29.6940   51.8160 O   0  0  0  0  0  0  0  0  0  0  0  0
   58.6540   31.2180   52.5260 N   0  0  0  0  0  0  0  0  0  0  0  0
   60.1100   31.1920   52.7140 C   0  0  0  0  0  0  0  0  0  0  0  0
   60.6330   32.5810   53.1520 C   0  0  0  0  0  0  0  0  0  0  0  0
   59.6100   33.4840   53.5460 O   0  0  0  0  0  0  0  0  0  0  0  0
   58.6680   32.8350   54.3750 C   0  0  0  0  0  0  0  0  0  0  0  0
   57.8180   31.8840   53.5290 C   0  0  0  0  0  0  0  0  0  0  0  0
   58.5310   29.1090   49.0990 S   0  0  0  0  0  0  0  0  0  0  0  0
   59.1460   29.9150   47.7600 C   0  0  0  0  0  0  0  0  0  0  0  0
   59.4780   29.3110   46.5030 N   0  0  0  0  0  0  0  0  0  0  0  0
   58.5310   28.8290   45.5430 C   0  0  0  0  0  0  0  0  0  0  0  0
   58.4830   29.3770   44.4100 O   0  0  0  0  0  0  0  0  0  0  0  0
   57.5750   27.7530   45.8640 C   0  0  0  0  0  0  0  0  0  0  0  0
   57.9080   26.5330   46.4260 C   0  0  0  0  0  0  0  0  0  0  0  0
   56.7310   25.8280   46.5450 C   0  0  0  0  0  0  0  0  0  0  0  0
   55.7520   26.6520   46.0390 C   0  0  0  0  0  0  0  0  0  0  0  0
   54.4050   26.3270   45.9700 O   0  0  0  0  0  0  0  0  0  0  0  0
   56.2500   27.8270   45.6140 N   0  0  0  0  0  0  0  0  0  0  0  0
   59.4120   31.2370   48.1000 C   0  0  0  0  0  0  0  0  0  0  0  0
   60.0080   32.1920   47.1460 C   0  0  0  0  0  0  0  0  0  0  0  0
   59.3260   32.5560   46.1500 O   0  0  0  0  0  0  0  0  0  0  0  0
   61.3540   32.6820   47.3100 N   0  0  0  0  0  0  0  0  0  0  0  0
   61.7110   34.0310   46.8560 C   0  0  0  0  0  0  0  0  0  0  0  0
   63.1550   34.0400   46.3460 C   0  0  0  0  0  0  0  0  0  0  0  0
   64.0340   33.4840   47.3070 O   0  0  0  0  0  0  0  0  0  0  0  0
   63.7320   32.1150   47.4940 C   0  0  0  0  0  0  0  0  0  0  0  0
   62.3400   31.9440   48.1080 C   0  0  0  0  0  0  0  0  0  0  0  0
  1  2  1  0
  2  3  2  0
  3  4  1  0
  4  5  2  0
  4  6  1  0
  6  7  1  0
  7  8  1  0
  8  9  1  0
  9 10  1  0
 10 11  1  0
  3 12  1  0
 12 13  1  0
 13 14  1  0
 14 15  1  0
 15 16  2  0
 15 17  1  0
 17 18  2  0
 18 19  1  0
 19 20  2  0
 20 21  1  0
 20 22  1  0
 13 23  2  0
 23 24  1  0
 24 25  2  0
 24 26  1  0
 26 27  1  0
 27 28  1  0
 28 29  1  0
 29 30  1  0
 30 31  1  0
 23  2  1  0
 31 26  1  0
 11  6  1  0
 22 17  1  0
M  CHG  3  14  -1  21  -1  22  -1
M  END
>  <UniqueID>  (1301) 
72

>  <SMILES>  (1301) 
Cc1c(C(=O)N2CCOCC2)sc([N-]C(=O)c2ccc([O-])[n-]2)c1C(=O)N1CCOCC1

>  <Energy>  (1301) 
126.81758287694703

>  <Genealogy>  (1301) 
Cc1c(C(=O)N2CCOCC2)sc([N-]C(=O)c2ccc([O-])[n-]2)c1C(=O)N1CCOCC1 (protonated)
Cc1c(C(=O)N2CCOCC2)sc([N-]C(=O)c2ccc([O-])[n-]2)c1C(=O)N1CCOCC1 (3D coordinates assigned)
Cc1c(C(=O)N2CCOCC2)sc([N-]C(=O)c2ccc([O-])[n-]2)c1C(=O)N1CCOCC1 (nonaromatic ring conformer: 126.81758287694703 kcal/mol)

>  <smiles>  (1301) 
Cc1c(C(=O)N2CCOCC2)sc(NC(=O)c2ccc(O)[nH]2)c1C(=O)N1CCOCC1

>  <score_type>  (1301) 
oracle

>  <origin>  (1301) 
adg

>  <m_score__min__energy>  (1301) 
-14.619999999999999

>  <m_primary>  (1301) 
energy

$$$$
78:0
     RDKit          3D

 24 26  0  0  0  0  0  0  0  0999 V2000
   58.5390   26.1210   47.3680 C   0  0  0  0  0  0  0  0  0  0  0  0
   58.2430   25.9680   46.0670 C   0  0  0  0  0  0  0  0  0  0  0  0
   57.2470   25.1410   45.5240 C   0  0  0  0  0  0  0  0  0  0  0  0
   56.5050   24.1640   46.0830 C   0  0  0  0  0  0  0  0  0  0  0  0
   55.0560   23.9790   45.9050 C   0  0  0  0  0  0  0  0  0  0  0  0
   54.4500   22.7890   45.7360 N   0  0  0  0  0  0  0  0  0  0  0  0
   53.1690   23.1250   45.4770 C   0  0  0  0  0  0  0  0  0  0  0  0
   52.2700   22.2680   45.2740 O   0  0  0  0  0  0  0  0  0  0  0  0
   52.9270   24.4540   45.4430 N   0  0  0  0  0  0  0  0  0  0  0  0
   54.1370   24.9780   45.7020 C   0  0  0  0  0  0  0  0  0  0  0  0
   54.3940   26.3410   45.7460 O   0  0  0  0  0  0  0  0  0  0  0  0
   57.1360   25.4930   44.1910 C   0  0  0  0  0  0  0  0  0  0  0  0
   58.0930   26.4550   43.9490 C   0  0  0  0  0  0  0  0  0  0  0  0
   58.3440   27.0850   42.6130 C   0  0  0  0  0  0  0  0  0  0  0  0
   58.7850   26.7320   45.0800 N   0  0  0  0  0  0  0  0  0  0  0  0
   59.8270   27.7600   45.2100 C   0  0  0  0  0  0  0  0  0  0  0  0
   59.2990   29.1230   44.7420 C   0  0  0  0  0  0  0  0  0  0  0  0
   58.4930   29.8360   45.8390 C   0  0  0  0  0  0  0  0  0  0  0  0
   57.1920   30.3380   45.3410 N   0  0  0  0  0  0  0  0  0  0  0  0
   57.3760   31.4060   44.3240 C   0  0  0  0  0  0  0  0  0  0  0  0
   57.2490   30.8690   42.8920 C   0  0  0  0  0  0  0  0  0  0  0  0
   55.9210   30.2800   42.6410 N   0  0  0  0  0  0  0  0  0  0  0  0
   55.2850   29.7130   43.8450 C   0  0  0  0  0  0  0  0  0  0  0  0
   56.3210   29.2300   44.8700 C   0  0  0  0  0  0  0  0  0  0  0  0
  1  2  2  0
  2  3  1  0
  3  4  2  0
  4  5  1  0
  5  6  1  0
  6  7  1  0
  7  8  2  0
  7  9  1  0
  9 10  1  0
 10 11  1  0
  3 12  1  0
 12 13  2  0
 13 14  1  0
 13 15  1  0
 15 16  1  0
 16 17  1  0
 17 18  1  0
 18 19  1  0
 19 20  1  0
 20 21  1  0
 21 22  1  0
 22 23  1  0
 23 24  1  0
 15  2  1  0
 24 19  1  0
 10  5  2  0
M  CHG  3   6  -1   9  -1  11  -1
M  END
>  <UniqueID>  (1302) 
74

>  <SMILES>  (1302) 
C=c1/c(=C\c2[n-]c(=O)[n-]c2[O-])cc(C)n1CCCN1CCNCC1

>  <Energy>  (1302) 
121.63765272898326

>  <Genealogy>  (1302) 
C=c1c(=Cc2[n-]c(=O)[n-]c2[O-])cc(C)n1CCCN1CCNCC1 (protonated)
C=c1/c(=C\c2[n-]c(=O)[n-]c2[O-])cc(C)n1CCCN1CCNCC1 (cis-trans isomerization)
C=c1/c(=C\c2[n-]c(=O)[n-]c2[O-])cc(C)n1CCCN1CCNCC1 (3D coordinates assigned)
C=c1/c(=C\c2[n-]c(=O)[n-]c2[O-])cc(C)n1CCCN1CCNCC1 (nonaromatic ring conformer: 121.63765272898326 kcal/mol)

>  <smiles>  (1302) 
C=c1c(=Cc2[nH]c(=O)[nH]c2O)cc(C)n1CCCN1CCNCC1

>  <score_type>  (1302) 
oracle

>  <origin>  (1302) 
adg

>  <m_score__min__energy>  (1302) 
-15.08

>  <m_primary>  (1302) 
energy

$$$$
83:0
     RDKit          3D

 29 32  0  0  0  0  0  0  0  0999 V2000
   56.2980   29.4280   44.7410 C   0  0  0  0  0  0  0  0  0  0  0  0
   57.5690   29.0200   44.8760 C   0  0  0  0  0  0  0  0  0  0  0  0
   58.0480   27.6990   44.8460 C   0  0  0  0  0  0  0  0  0  0  0  0
   57.4390   26.5430   44.5140 C   0  0  0  0  0  0  0  0  0  0  0  0
   56.8920   25.5590   45.4620 C   0  0  0  0  0  0  0  0  0  0  0  0
   57.5630   24.4860   45.9250 N   0  0  0  0  0  0  0  0  0  0  0  0
   56.7310   23.9800   46.8600 C   0  0  0  0  0  0  0  0  0  0  0  0
   57.0040   22.9430   47.5210 O   0  0  0  0  0  0  0  0  0  0  0  0
   55.5890   24.6780   47.0420 N   0  0  0  0  0  0  0  0  0  0  0  0
   55.7170   25.6820   46.1590 C   0  0  0  0  0  0  0  0  0  0  0  0
   54.7780   26.6940   45.9990 O   0  0  0  0  0  0  0  0  0  0  0  0
   59.3820   27.7610   45.2170 C   0  0  0  0  0  0  0  0  0  0  0  0
   59.6850   29.0930   45.4000 C   0  0  0  0  0  0  0  0  0  0  0  0
   61.0390   29.6210   45.7690 C   0  0  0  0  0  0  0  0  0  0  0  0
   58.5920   29.8580   45.1850 N   0  0  0  0  0  0  0  0  0  0  0  0
   58.5370   31.2870   45.3350 C   0  0  0  0  0  0  0  0  0  0  0  0
   57.7730   32.0590   44.4530 C   0  0  0  0  0  0  0  0  0  0  0  0
   57.7090   33.4440   44.6120 C   0  0  0  0  0  0  0  0  0  0  0  0
   58.4080   34.0630   45.6520 C   0  0  0  0  0  0  0  0  0  0  0  0
   59.1860   33.3060   46.5490 C   0  0  0  0  0  0  0  0  0  0  0  0
   59.8990   34.0130   47.6580 C   0  0  0  0  0  0  0  0  0  0  0  0
   59.3160   34.9930   48.2020 O   0  0  0  0  0  0  0  0  0  0  0  0
   61.2220   33.6480   48.1360 N   0  0  0  0  0  0  0  0  0  0  0  0
   61.7100   34.5460   49.2060 C   0  0  0  0  0  0  0  0  0  0  0  0
   63.0390   34.0250   49.7970 C   0  0  0  0  0  0  0  0  0  0  0  0
   63.8720   33.2990   48.8200 N   0  0  0  0  0  0  0  0  0  0  0  0
   63.6360   33.7560   47.4460 C   0  0  0  0  0  0  0  0  0  0  0  0
   62.1820   33.4800   47.0170 C   0  0  0  0  0  0  0  0  0  0  0  0
   59.2290   31.9070   46.3860 C   0  0  0  0  0  0  0  0  0  0  0  0
  1  2  2  0
  2  3  1  0
  3  4  2  3
  4  5  1  0
  5  6  1  0
  6  7  1  0
  7  8  2  0
  7  9  1  0
  9 10  1  0
 10 11  1  0
  3 12  1  0
 12 13  2  0
 13 14  1  0
 13 15  1  0
 15 16  1  0
 16 17  2  0
 17 18  1  0
 18 19  2  0
 19 20  1  0
 20 21  1  0
 21 22  2  0
 21 23  1  0
 23 24  1  0
 24 25  1  0
 25 26  1  0
 26 27  1  0
 27 28  1  0
 20 29  2  0
 15  2  1  0
 29 16  1  0
 10  5  2  0
 28 23  1  0
M  CHG  4   6  -1   9  -1  11  -1  23   1
M  END
>  <UniqueID>  (1303) 
78

>  <SMILES>  (1303) 
C=c1c(=Cc2[n-]c(=O)[n-]c2[O-])cc(C)n1-c1cccc(C(=O)[NH+]2CCNCC2)c1

>  <Energy>  (1303) 
144.28135932557493

>  <Genealogy>  (1303) 
C=c1c(=Cc2[n-]c(=O)[n-]c2[O-])cc(C)n1-c1cccc(C(=O)[NH+]2CCNCC2)c1 (protonated)
C=c1c(=Cc2[n-]c(=O)[n-]c2[O-])cc(C)n1-c1cccc(C(=O)[NH+]2CCNCC2)c1 (3D coordinates assigned)
C=c1c(=Cc2[n-]c(=O)[n-]c2[O-])cc(C)n1-c1cccc(C(=O)[NH+]2CCNCC2)c1 (nonaromatic ring conformer: 144.28135932557493 kcal/mol)

>  <smiles>  (1303) 
C=c1c(=Cc2[nH]c(=O)[nH]c2O)cc(C)n1-c1cccc(C(=O)N2CCNCC2)c1

>  <score_type>  (1303) 
oracle

>  <origin>  (1303) 
adg

>  <m_score__min__energy>  (1303) 
-15.43

>  <m_primary>  (1303) 
energy

$$$$
88:0
     RDKit          3D

 25 27  0  0  0  0  0  0  0  0999 V2000
   59.7440   29.2940   47.6120 C   0  0  0  0  0  0  0  0  0  0  0  0
   59.0410   30.0580   46.7630 C   0  0  0  0  0  0  0  0  0  0  0  0
   58.4130   29.6460   45.5850 C   0  0  0  0  0  0  0  0  0  0  0  0
   58.3850   28.3950   45.0770 C   0  0  0  0  0  0  0  0  0  0  0  0
   57.5430   27.3070   45.6040 C   0  0  0  0  0  0  0  0  0  0  0  0
   56.1450   27.4210   45.6120 C   0  0  0  0  0  0  0  0  0  0  0  0
   55.5270   28.5810   45.1590 O   0  0  0  0  0  0  0  0  0  0  0  0
   55.3860   26.3940   46.0700 N   0  0  0  0  0  0  0  0  0  0  0  0
   55.9560   25.2430   46.5130 C   0  0  0  0  0  0  0  0  0  0  0  0
   55.2320   24.3060   46.9360 O   0  0  0  0  0  0  0  0  0  0  0  0
   57.3060   25.1030   46.4950 N   0  0  0  0  0  0  0  0  0  0  0  0
   58.1090   26.1020   46.0460 C   0  0  0  0  0  0  0  0  0  0  0  0
   59.3580   25.9370   46.0370 O   0  0  0  0  0  0  0  0  0  0  0  0
   57.8380   30.8180   45.0820 C   0  0  0  0  0  0  0  0  0  0  0  0
   57.0290   30.9990   43.8350 C   0  0  0  0  0  0  0  0  0  0  0  0
   58.1150   31.8460   45.9060 N   0  0  0  0  0  0  0  0  0  0  0  0
   58.8340   31.3880   46.9180 N   0  0  0  0  0  0  0  0  0  0  0  0
   59.3400   32.2600   47.9800 C   0  0  0  0  0  0  0  0  0  0  0  0
   60.8100   32.5390   47.7810 C   0  0  0  0  0  0  0  0  0  0  0  0
   61.7640   31.7270   48.4190 C   0  0  0  0  0  0  0  0  0  0  0  0
   63.1300   31.9700   48.2450 C   0  0  0  0  0  0  0  0  0  0  0  0
   63.5550   33.0190   47.4270 C   0  0  0  0  0  0  0  0  0  0  0  0
   62.6160   33.8250   46.7790 C   0  0  0  0  0  0  0  0  0  0  0  0
   61.2470   33.5880   46.9490 C   0  0  0  0  0  0  0  0  0  0  0  0
   60.3580   34.3790   46.2980 F   0  0  0  0  0  0  0  0  0  0  0  0
  1  2  2  0
  2  3  1  0
  3  4  2  3
  4  5  1  0
  5  6  2  0
  6  7  1  0
  6  8  1  0
  8  9  1  0
  9 10  2  0
  9 11  1  0
 11 12  1  0
 12 13  2  0
  3 14  1  0
 14 15  1  0
 14 16  2  0
 16 17  1  0
 17 18  1  0
 18 19  1  0
 19 20  2  0
 20 21  1  0
 21 22  2  0
 22 23  1  0
 23 24  2  0
 24 25  1  0
 17  2  1  0
 24 19  1  0
 12  5  1  0
M  CHG  3   7  -1   8  -1  11  -1
M  END
>  <UniqueID>  (1304) 
83

>  <SMILES>  (1304) 
C=c1c(=Cc2c([O-])[n-]c(=O)[n-]c2=O)c(C)nn1Cc1ccccc1F

>  <Energy>  (1304) 
84.4730416322373

>  <Genealogy>  (1304) 
C=c1c(=Cc2c([O-])[n-]c(=O)[n-]c2=O)c(C)nn1Cc1ccccc1F (protonated)
C=c1c(=Cc2c([O-])[n-]c(=O)[n-]c2=O)c(C)nn1Cc1ccccc1F (3D coordinates assigned)
C=c1c(=Cc2c([O-])[n-]c(=O)[n-]c2=O)c(C)nn1Cc1ccccc1F (optimized conformer: 84.4730416322373 kcal/mol)

>  <smiles>  (1304) 
C=c1c(=Cc2c(O)[nH]c(=O)[nH]c2=O)c(C)nn1Cc1ccccc1F

>  <score_type>  (1304) 
oracle

>  <origin>  (1304) 
adg

>  <m_score__min__energy>  (1304) 
-15.85

>  <m_primary>  (1304) 
energy

$$$$
89:0
     RDKit          3D

 28 30  0  0  0  0  0  0  0  0999 V2000
   55.5590   26.7100   46.0340 N   0  0  0  0  0  0  0  0  0  0  0  0
   56.7750   27.7380   45.3660 S   0  0  0  0  0  0  0  0  0  0  0  0
   57.5090   27.0010   44.2820 O   0  0  0  0  0  0  0  0  0  0  0  0
   56.1320   28.9580   44.7690 O   0  0  0  0  0  0  0  0  0  0  0  0
   57.8970   28.2210   46.6330 C   0  0  0  0  0  0  0  0  0  0  0  0
   58.5360   27.2570   47.4240 C   0  0  0  0  0  0  0  0  0  0  0  0
   59.4180   27.6480   48.4360 C   0  0  0  0  0  0  0  0  0  0  0  0
   59.6580   29.0100   48.6780 C   0  0  0  0  0  0  0  0  0  0  0  0
   60.6310   29.4310   49.7470 C   0  0  0  0  0  0  0  0  0  0  0  0
   60.1900   28.9070   51.1140 C   0  0  0  0  0  0  0  0  0  0  0  0
   58.9530   29.5670   51.5290 N   0  0  0  0  0  0  0  0  0  0  0  0
   58.0440   29.1150   52.4080 C   0  0  0  0  0  0  0  0  0  0  0  0
   58.1750   27.9290   53.1270 O   0  0  0  0  0  0  0  0  0  0  0  0
   56.9960   30.0180   52.4660 C   0  0  0  0  0  0  0  0  0  0  0  0
   55.8070   29.9670   53.3820 C   0  0  0  0  0  0  0  0  0  0  0  0
   54.5990   29.3070   52.7030 C   0  0  0  0  0  0  0  0  0  0  0  0
   53.4620   30.2780   52.5170 C   0  0  0  0  0  0  0  0  0  0  0  0
   53.3320   30.9970   51.3160 C   0  0  0  0  0  0  0  0  0  0  0  0
   52.3100   31.9390   51.1660 C   0  0  0  0  0  0  0  0  0  0  0  0
   51.4150   32.1740   52.2140 C   0  0  0  0  0  0  0  0  0  0  0  0
   50.4040   33.1150   52.0650 O   0  0  0  0  0  0  0  0  0  0  0  0
   51.5390   31.4640   53.4120 C   0  0  0  0  0  0  0  0  0  0  0  0
   52.5590   30.5210   53.5650 C   0  0  0  0  0  0  0  0  0  0  0  0
   57.2450   31.0430   51.6230 N   0  0  0  0  0  0  0  0  0  0  0  0
   58.4340   30.7220   51.0690 C   0  0  0  0  0  0  0  0  0  0  0  0
   58.9990   31.4410   50.2010 O   0  0  0  0  0  0  0  0  0  0  0  0
   59.0220   29.9740   47.8800 C   0  0  0  0  0  0  0  0  0  0  0  0
   58.1420   29.5820   46.8680 C   0  0  0  0  0  0  0  0  0  0  0  0
  1  2  1  0
  2  3  2  0
  2  4  2  0
  2  5  1  0
  5  6  2  0
  6  7  1  0
  7  8  2  0
  8  9  1  0
  9 10  1  0
 10 11  1  0
 11 12  1  0
 12 13  1  0
 12 14  2  0
 14 15  1  0
 15 16  1  0
 16 17  1  0
 17 18  2  0
 18 19  1  0
 19 20  2  0
 20 21  1  0
 20 22  1  0
 22 23  2  0
 14 24  1  0
 24 25  1  0
 25 26  2  0
  8 27  1  0
 27 28  2  0
 28  5  1  0
 25 11  1  0
 23 17  1  0
M  CHG  3   1  -1  21  -1  24  -1
M  END
>  <UniqueID>  (1305) 
84

>  <SMILES>  (1305) 
[NH-]S(=O)(=O)c1ccc(CCn2c(O)c(CCc3ccc([O-])cc3)[n-]c2=O)cc1

>  <Energy>  (1305) 
71.63102884021575

>  <Genealogy>  (1305) 
[NH-]S(=O)(=O)c1ccc(CCn2c(O)c(CCc3ccc([O-])cc3)[n-]c2=O)cc1 (protonated)
[NH-]S(=O)(=O)c1ccc(CCn2c(O)c(CCc3ccc([O-])cc3)[n-]c2=O)cc1 (3D coordinates assigned)
[NH-]S(=O)(=O)c1ccc(CCn2c(O)c(CCc3ccc([O-])cc3)[n-]c2=O)cc1 (optimized conformer: 71.63102884021575 kcal/mol)

>  <smiles>  (1305) 
NS(=O)(=O)c1ccc(CCn2c(O)c(CCc3ccc(O)cc3)[nH]c2=O)cc1

>  <score_type>  (1305) 
oracle

>  <origin>  (1305) 
adg

>  <m_score__min__energy>  (1305) 
-15.66

>  <m_primary>  (1305) 
energy

$$$$
9:0
     RDKit          3D

 34 37  0  0  0  0  0  0  0  0999 V2000
   54.0520   31.2160   51.7420 C   0  0  0  0  0  0  0  0  0  0  0  0
   53.8070   30.1160   52.4700 C   0  0  0  0  0  0  0  0  0  0  0  0
   52.5570   29.5230   52.7180 C   0  0  0  0  0  0  0  0  0  0  0  0
   51.3060   29.9630   52.4820 C   0  0  0  0  0  0  0  0  0  0  0  0
   50.8100   31.3240   52.7290 C   0  0  0  0  0  0  0  0  0  0  0  0
   50.5260   31.8010   53.9530 N   0  0  0  0  0  0  0  0  0  0  0  0
   50.2500   33.1040   53.7270 C   0  0  0  0  0  0  0  0  0  0  0  0
   49.9200   33.8960   54.6470 O   0  0  0  0  0  0  0  0  0  0  0  0
   50.3730   33.4950   52.4400 N   0  0  0  0  0  0  0  0  0  0  0  0
   50.7440   32.3610   51.8230 C   0  0  0  0  0  0  0  0  0  0  0  0
   51.0440   32.2830   50.4690 O   0  0  0  0  0  0  0  0  0  0  0  0
   52.8200   28.2950   53.3030 C   0  0  0  0  0  0  0  0  0  0  0  0
   54.1880   28.2080   53.4560 C   0  0  0  0  0  0  0  0  0  0  0  0
   54.9020   27.0410   54.0680 C   0  0  0  0  0  0  0  0  0  0  0  0
   54.7880   29.3090   52.9520 N   0  0  0  0  0  0  0  0  0  0  0  0
   56.2070   29.5460   52.9120 C   0  0  0  0  0  0  0  0  0  0  0  0
   56.6980   30.8350   52.6630 C   0  0  0  0  0  0  0  0  0  0  0  0
   58.0760   31.0710   52.6380 C   0  0  0  0  0  0  0  0  0  0  0  0
   58.9800   30.0220   52.8690 C   0  0  0  0  0  0  0  0  0  0  0  0
   60.4380   30.2620   52.8290 C   0  0  0  0  0  0  0  0  0  0  0  0
   61.1370   29.9700   53.8380 O   0  0  0  0  0  0  0  0  0  0  0  0
   61.0740   30.8190   51.6640 N   0  0  0  0  0  0  0  0  0  0  0  0
   61.9690   31.9790   51.8220 C   0  0  0  0  0  0  0  0  0  0  0  0
   62.8760   32.1670   50.6020 C   0  0  0  0  0  0  0  0  0  0  0  0
   62.0620   32.1530   49.3700 N   0  0  0  0  0  0  0  0  0  0  0  0
   62.0470   33.2560   48.3570 C   0  0  0  0  0  0  0  0  0  0  0  0
   62.7130   34.5190   48.9460 C   0  0  0  0  0  0  0  0  0  0  0  0
   60.6160   33.6530   47.9180 C   0  0  0  0  0  0  0  0  0  0  0  0
   62.8020   32.8080   47.0840 C   0  0  0  0  0  0  0  0  0  0  0  0
   61.2320   30.9760   49.2280 C   0  0  0  0  0  0  0  0  0  0  0  0
   60.7160   30.6670   48.1210 O   0  0  0  0  0  0  0  0  0  0  0  0
   61.0200   30.0650   50.4030 C   0  0  0  0  0  0  0  0  0  0  0  0
   58.4850   28.7270   53.0970 C   0  0  0  0  0  0  0  0  0  0  0  0
   57.1070   28.4930   53.1250 C   0  0  0  0  0  0  0  0  0  0  0  0
  1  2  2  0
  2  3  1  0
  3  4  2  3
  4  5  1  0
  5  6  1  0
  6  7  1  0
  7  8  2  0
  7  9  1  0
  9 10  1  0
 10 11  1  0
  3 12  1  0
 12 13  2  0
 13 14  1  0
 13 15  1  0
 15 16  1  0
 16 17  2  0
 17 18  1  0
 18 19  2  0
 19 20  1  0
 20 21  2  0
 20 22  1  0
 22 23  1  0
 23 24  1  0
 24 25  1  0
 25 26  1  0
 26 27  1  0
 26 28  1  0
 26 29  1  0
 25 30  1  0
 30 31  2  0
 30 32  1  0
 19 33  1  0
 33 34  2  0
 15  2  1  0
 34 16  1  0
 10  5  2  0
 32 22  1  0
M  CHG  3   6  -1   9  -1  11  -1
M  END
>  <UniqueID>  (1306) 
9

>  <SMILES>  (1306) 
C=c1c(=Cc2[n-]c(=O)[n-]c2[O-])cc(C)n1-c1ccc(C(=O)N2CCN(C(C)(C)C)C(=O)C2)cc1

>  <Energy>  (1306) 
146.93188617729876

>  <Genealogy>  (1306) 
C=c1c(=Cc2[n-]c(=O)[n-]c2[O-])cc(C)n1-c1ccc(C(=O)N2CCN(C(C)(C)C)C(=O)C2)cc1 (protonated)
C=c1c(=Cc2[n-]c(=O)[n-]c2[O-])cc(C)n1-c1ccc(C(=O)N2CCN(C(C)(C)C)C(=O)C2)cc1 (3D coordinates assigned)
C=c1c(=Cc2[n-]c(=O)[n-]c2[O-])cc(C)n1-c1ccc(C(=O)N2CCN(C(C)(C)C)C(=O)C2)cc1 (nonaromatic ring conformer: 146.93188617729876 kcal/mol)

>  <smiles>  (1306) 
C=c1c(=Cc2[nH]c(=O)[nH]c2O)cc(C)n1-c1ccc(C(=O)N2CCN(C(C)(C)C)C(=O)C2)cc1

>  <score_type>  (1306) 
oracle

>  <origin>  (1306) 
adg

>  <m_score__min__energy>  (1306) 
-16.34

>  <m_primary>  (1306) 
energy

$$$$
11:0
     RDKit          3D

 20 21  0  0  0  0  0  0  0  0999 V2000
   58.1170   32.3420   43.5570 C   0  0  0  0  0  0  0  0  0  0  0  0
   57.7580   33.0650   45.1410 S   0  0  0  0  0  0  0  0  0  0  0  0
   58.4970   34.3670   45.2650 O   0  0  0  0  0  0  0  0  0  0  0  0
   56.2780   33.3010   45.2490 O   0  0  0  0  0  0  0  0  0  0  0  0
   58.2730   31.9730   46.3860 N   0  0  0  0  0  0  0  0  0  0  0  0
   58.7290   30.6280   46.1750 C   0  0  0  0  0  0  0  0  0  0  0  0
   60.0100   30.2130   46.5770 C   0  0  0  0  0  0  0  0  0  0  0  0
   60.4270   28.9030   46.3500 C   0  0  0  0  0  0  0  0  0  0  0  0
   59.5760   27.9920   45.7280 C   0  0  0  0  0  0  0  0  0  0  0  0
   58.2860   28.3780   45.3270 C   0  0  0  0  0  0  0  0  0  0  0  0
   57.4030   27.3640   44.6390 C   0  0  0  0  0  0  0  0  0  0  0  0
   57.1170   26.2020   45.5440 C   0  0  0  0  0  0  0  0  0  0  0  0
   58.2470   25.0500   46.0390 S   0  0  0  0  0  0  0  0  0  0  0  0
   57.1340   24.2570   47.0170 C   0  0  0  0  0  0  0  0  0  0  0  0
   57.3940   23.2320   47.6990 O   0  0  0  0  0  0  0  0  0  0  0  0
   55.9170   24.8410   47.0000 N   0  0  0  0  0  0  0  0  0  0  0  0
   55.9100   25.9280   46.1860 C   0  0  0  0  0  0  0  0  0  0  0  0
   54.7700   26.7040   46.0200 O   0  0  0  0  0  0  0  0  0  0  0  0
   57.8660   29.7150   45.5450 C   0  0  0  0  0  0  0  0  0  0  0  0
   56.6050   30.1660   45.1440 O   0  0  0  0  0  0  0  0  0  0  0  0
  1  2  1  0
  2  3  2  0
  2  4  2  0
  2  5  1  0
  5  6  1  0
  6  7  2  0
  7  8  1  0
  8  9  2  0
  9 10  1  0
 10 11  1  0
 11 12  1  0
 12 13  1  0
 13 14  1  0
 14 15  2  0
 14 16  1  0
 16 17  1  0
 17 18  1  0
 10 19  2  0
 19 20  1  0
 19  6  1  0
 17 12  2  0
M  CHG  3   5  -1  16  -1  18  -1
M  END
>  <UniqueID>  (1307) 
11

>  <SMILES>  (1307) 
CS(=O)(=O)[N-]c1cccc(Cc2sc(=O)[n-]c2[O-])c1O

>  <Energy>  (1307) 
60.00995981359464

>  <Genealogy>  (1307) 
CS(=O)(=O)[N-]c1cccc(Cc2sc(=O)[n-]c2[O-])c1O (protonated)
CS(=O)(=O)[N-]c1cccc(Cc2sc(=O)[n-]c2[O-])c1O (3D coordinates assigned)
CS(=O)(=O)[N-]c1cccc(Cc2sc(=O)[n-]c2[O-])c1O (optimized conformer: 60.00995981359464 kcal/mol)

>  <smiles>  (1307) 
CS(=O)(=O)Nc1cccc(Cc2sc(=O)[nH]c2O)c1O

>  <score_type>  (1307) 
oracle

>  <origin>  (1307) 
adg

>  <m_score__min__energy>  (1307) 
-14.880000000000001

>  <m_primary>  (1307) 
energy

$$$$
12:0
     RDKit          3D

 29 32  0  0  0  0  0  0  0  0999 V2000
   63.9940   35.6370   54.6440 C   0  0  0  0  0  0  0  0  0  0  0  0
   63.8980   34.9340   53.3580 N   0  0  0  0  0  0  0  0  0  0  0  0
   64.6040   35.4840   52.1940 C   0  0  0  0  0  0  0  0  0  0  0  0
   63.1170   33.7160   53.2400 C   0  0  0  0  0  0  0  0  0  0  0  0
   62.7700   33.1970   51.9750 C   0  0  0  0  0  0  0  0  0  0  0  0
   62.0170   32.0250   51.8640 C   0  0  0  0  0  0  0  0  0  0  0  0
   61.5740   31.3520   53.0090 C   0  0  0  0  0  0  0  0  0  0  0  0
   60.8080   30.0970   52.8560 C   0  0  0  0  0  0  0  0  0  0  0  0
   59.4670   30.0310   52.8160 C   0  0  0  0  0  0  0  0  0  0  0  0
   58.4920   29.7910   51.4170 S   0  0  0  0  0  0  0  0  0  0  0  0
   57.0810   29.8010   52.3250 C   0  0  0  0  0  0  0  0  0  0  0  0
   57.3160   29.9660   53.6200 N   0  0  0  0  0  0  0  0  0  0  0  0
   58.6220   30.1000   53.9400 C   0  0  0  0  0  0  0  0  0  0  0  0
   59.0200   30.2680   55.1240 O   0  0  0  0  0  0  0  0  0  0  0  0
   56.0680   29.9800   54.2660 C   0  0  0  0  0  0  0  0  0  0  0  0
   55.8730   30.2310   55.4840 O   0  0  0  0  0  0  0  0  0  0  0  0
   55.0950   29.7850   53.1860 C   0  0  0  0  0  0  0  0  0  0  0  0
   53.7580   29.7620   53.2390 C   0  0  0  0  0  0  0  0  0  0  0  0
   52.8740   30.4000   52.2430 C   0  0  0  0  0  0  0  0  0  0  0  0
   52.7760   29.9030   50.9310 C   0  0  0  0  0  0  0  0  0  0  0  0
   51.9660   30.5480   49.9920 C   0  0  0  0  0  0  0  0  0  0  0  0
   51.2660   31.7050   50.3470 C   0  0  0  0  0  0  0  0  0  0  0  0
   50.4620   32.3420   49.4080 O   0  0  0  0  0  0  0  0  0  0  0  0
   51.3820   32.2230   51.6420 C   0  0  0  0  0  0  0  0  0  0  0  0
   50.6970   33.3790   51.9970 O   0  0  0  0  0  0  0  0  0  0  0  0
   52.1930   31.5780   52.5840 C   0  0  0  0  0  0  0  0  0  0  0  0
   55.8400   29.6910   51.9570 N   0  0  0  0  0  0  0  0  0  0  0  0
   61.9400   31.8420   54.2730 C   0  0  0  0  0  0  0  0  0  0  0  0
   62.6940   33.0130   54.3870 C   0  0  0  0  0  0  0  0  0  0  0  0
  1  2  1  0
  2  3  1  0
  2  4  1  0
  4  5  2  0
  5  6  1  0
  6  7  2  0
  7  8  1  0
  8  9  2  3
  9 10  1  0
 10 11  1  0
 11 12  1  0
 12 13  1  0
 13 14  2  0
 12 15  1  0
 15 16  2  0
 15 17  1  0
 17 18  2  3
 18 19  1  0
 19 20  2  0
 20 21  1  0
 21 22  2  0
 22 23  1  0
 22 24  1  0
 24 25  1  0
 24 26  2  0
 17 27  1  0
  7 28  1  0
 28 29  2  0
 29  4  1  0
 13  9  1  0
 26 19  1  0
 27 11  2  0
M  CHG  2  23  -1  25  -1
M  END
>  <UniqueID>  (1308) 
12

>  <SMILES>  (1308) 
CN(C)c1ccc(C=c2sc3n(c2=O)C(=O)C(=Cc2ccc([O-])c([O-])c2)N=3)cc1

>  <Energy>  (1308) 
141.8867776221945

>  <Genealogy>  (1308) 
CN(C)c1ccc(C=c2sc3n(c2=O)C(=O)C(=Cc2ccc([O-])c([O-])c2)N=3)cc1 (protonated)
CN(C)c1ccc(C=c2sc3n(c2=O)C(=O)C(=Cc2ccc([O-])c([O-])c2)N=3)cc1 (3D coordinates assigned)
CN(C)c1ccc(C=c2sc3n(c2=O)C(=O)C(=Cc2ccc([O-])c([O-])c2)N=3)cc1 (nonaromatic ring conformer: 141.8867776221945 kcal/mol)

>  <smiles>  (1308) 
CN(C)c1ccc(C=c2sc3n(c2=O)C(=O)C(=Cc2ccc(O)c(O)c2)N=3)cc1

>  <score_type>  (1308) 
oracle

>  <origin>  (1308) 
adg

>  <m_score__min__energy>  (1308) 
-15.59

>  <m_primary>  (1308) 
energy

$$$$
24:0
     RDKit          3D

 34 37  0  0  0  0  0  0  0  0999 V2000
   54.0720   27.9030   53.8770 C   0  0  0  0  0  0  0  0  0  0  0  0
   54.3570   28.9850   54.9200 C   0  0  0  0  0  0  0  0  0  0  0  0
   55.0800   30.1340   54.3320 N   0  0  0  0  0  0  0  0  0  0  0  0
   56.5530   29.9700   54.4630 C   0  0  0  0  0  0  0  0  0  0  0  0
   57.2270   29.4980   53.1680 C   0  0  0  0  0  0  0  0  0  0  0  0
   56.9190   30.4280   52.0740 N   0  0  0  0  0  0  0  0  0  0  0  0
   57.8410   30.6000   50.9760 C   0  0  0  0  0  0  0  0  0  0  0  0
   58.5450   29.5000   50.4500 C   0  0  0  0  0  0  0  0  0  0  0  0
   59.4250   29.6660   49.3780 C   0  0  0  0  0  0  0  0  0  0  0  0
   59.6080   30.9270   48.8000 C   0  0  0  0  0  0  0  0  0  0  0  0
   60.5200   31.0590   47.7000 N   0  0  0  0  0  0  0  0  0  0  0  0
   60.7310   32.2420   46.9150 C   0  0  0  0  0  0  0  0  0  0  0  0
   61.9020   32.6860   46.7980 O   0  0  0  0  0  0  0  0  0  0  0  0
   59.6240   32.8870   46.1730 C   0  0  0  0  0  0  0  0  0  0  0  0
   59.6840   34.2720   45.9370 C   0  0  0  0  0  0  0  0  0  0  0  0
   58.6830   34.9110   45.2040 C   0  0  0  0  0  0  0  0  0  0  0  0
   57.6130   34.1770   44.6940 C   0  0  0  0  0  0  0  0  0  0  0  0
   57.5410   32.8000   44.9140 C   0  0  0  0  0  0  0  0  0  0  0  0
   58.5420   32.1410   45.6490 C   0  0  0  0  0  0  0  0  0  0  0  0
   58.4600   30.7190   45.8380 N   0  0  0  0  0  0  0  0  0  0  0  0
   57.3420   29.9420   45.3780 C   0  0  0  0  0  0  0  0  0  0  0  0
   56.4610   30.4820   44.6530 O   0  0  0  0  0  0  0  0  0  0  0  0
   57.2300   28.5090   45.7270 C   0  0  0  0  0  0  0  0  0  0  0  0
   58.3440   27.7810   46.1700 C   0  0  0  0  0  0  0  0  0  0  0  0
   58.1790   26.4310   46.4860 C   0  0  0  0  0  0  0  0  0  0  0  0
   59.1580   25.7510   46.8880 O   0  0  0  0  0  0  0  0  0  0  0  0
   56.9580   25.8490   46.3590 N   0  0  0  0  0  0  0  0  0  0  0  0
   55.8880   26.5640   45.9280 C   0  0  0  0  0  0  0  0  0  0  0  0
   54.7640   26.0090   45.8170 O   0  0  0  0  0  0  0  0  0  0  0  0
   56.0280   27.8790   45.6180 N   0  0  0  0  0  0  0  0  0  0  0  0
   58.9370   32.0350   49.3420 C   0  0  0  0  0  0  0  0  0  0  0  0
   58.0550   31.8710   50.4130 C   0  0  0  0  0  0  0  0  0  0  0  0
   55.6630   31.1850   52.1250 C   0  0  0  0  0  0  0  0  0  0  0  0
   54.6200   30.4200   52.9470 C   0  0  0  0  0  0  0  0  0  0  0  0
  1  2  1  0
  2  3  1  0
  3  4  1  0
  4  5  1  0
  5  6  1  0
  6  7  1  0
  7  8  2  0
  8  9  1  0
  9 10  2  0
 10 11  1  0
 11 12  1  0
 12 13  2  0
 12 14  1  0
 14 15  2  0
 15 16  1  0
 16 17  2  0
 17 18  1  0
 18 19  2  0
 19 20  1  0
 20 21  1  0
 21 22  2  0
 21 23  1  0
 23 24  2  0
 24 25  1  0
 25 26  2  0
 25 27  1  0
 27 28  1  0
 28 29  2  0
 28 30  1  0
 10 31  1  0
 31 32  2  0
  6 33  1  0
 33 34  1  0
 34  3  1  0
 32  7  1  0
 19 14  1  0
 30 23  1  0
M  CHG  3  11  -1  27  -1  30  -1
M  END
>  <UniqueID>  (1309) 
24

>  <SMILES>  (1309) 
CCN1CCN(c2ccc([N-]C(=O)c3ccccc3NC(=O)c3cc(=O)[n-]c(=O)[n-]3)cc2)CC1

>  <Energy>  (1309) 
84.65987481098628

>  <Genealogy>  (1309) 
CCN1CCN(c2ccc([N-]C(=O)c3ccccc3NC(=O)c3cc(=O)[n-]c(=O)[n-]3)cc2)CC1 (protonated)
CCN1CCN(c2ccc([N-]C(=O)c3ccccc3NC(=O)c3cc(=O)[n-]c(=O)[n-]3)cc2)CC1 (3D coordinates assigned)
CCN1CCN(c2ccc([N-]C(=O)c3ccccc3NC(=O)c3cc(=O)[n-]c(=O)[n-]3)cc2)CC1 (nonaromatic ring conformer: 84.65987481098628 kcal/mol)

>  <smiles>  (1309) 
CCN1CCN(c2ccc(NC(=O)c3ccccc3NC(=O)c3cc(=O)[nH]c(=O)[nH]3)cc2)CC1

>  <score_type>  (1309) 
oracle

>  <origin>  (1309) 
adg

>  <m_score__min__energy>  (1309) 
-14.51

>  <m_primary>  (1309) 
energy

$$$$
27:0
     RDKit          3D

 24 26  0  0  0  0  0  0  0  0999 V2000
   58.1210   26.8100   43.6340 C   0  0  0  0  0  0  0  0  0  0  0  0
   57.7720   27.9980   44.1630 C   0  0  0  0  0  0  0  0  0  0  0  0
   58.0190   28.3390   45.5360 C   0  0  0  0  0  0  0  0  0  0  0  0
   58.1680   27.4040   46.5200 C   0  0  0  0  0  0  0  0  0  0  0  0
   57.3920   26.1560   46.6550 C   0  0  0  0  0  0  0  0  0  0  0  0
   57.9020   25.0200   47.1610 N   0  0  0  0  0  0  0  0  0  0  0  0
   56.8400   24.1850   47.1930 C   0  0  0  0  0  0  0  0  0  0  0  0
   56.9230   22.9980   47.6010 O   0  0  0  0  0  0  0  0  0  0  0  0
   55.6800   24.7270   46.7650 N   0  0  0  0  0  0  0  0  0  0  0  0
   56.0420   25.9790   46.4410 C   0  0  0  0  0  0  0  0  0  0  0  0
   55.1500   26.9460   45.9920 O   0  0  0  0  0  0  0  0  0  0  0  0
   58.0500   29.7310   45.8710 C   0  0  0  0  0  0  0  0  0  0  0  0
   58.5030   30.2230   47.2460 C   0  0  0  0  0  0  0  0  0  0  0  0
   59.7100   31.1300   47.2190 C   0  0  0  0  0  0  0  0  0  0  0  0
   59.5820   32.4770   46.8440 C   0  0  0  0  0  0  0  0  0  0  0  0
   60.7080   33.3050   46.7960 C   0  0  0  0  0  0  0  0  0  0  0  0
   61.9700   32.7930   47.1190 C   0  0  0  0  0  0  0  0  0  0  0  0
   63.3810   33.8330   47.0570 Cl  0  0  0  0  0  0  0  0  0  0  0  0
   62.1040   31.4520   47.4880 C   0  0  0  0  0  0  0  0  0  0  0  0
   60.9810   30.6210   47.5360 C   0  0  0  0  0  0  0  0  0  0  0  0
   57.5290   30.6550   44.9460 C   0  0  0  0  0  0  0  0  0  0  0  0
   57.1220   30.2390   43.6860 C   0  0  0  0  0  0  0  0  0  0  0  0
   56.6420   31.0760   42.8740 O   0  0  0  0  0  0  0  0  0  0  0  0
   57.2710   28.9440   43.3140 N   0  0  0  0  0  0  0  0  0  0  0  0
  1  2  2  0
  2  3  1  0
  3  4  2  0
  4  5  1  0
  5  6  1  0
  6  7  1  0
  7  8  2  0
  7  9  1  0
  9 10  1  0
 10 11  1  0
  3 12  1  0
 12 13  1  0
 13 14  1  0
 14 15  2  0
 15 16  1  0
 16 17  2  0
 17 18  1  0
 17 19  1  0
 19 20  2  0
 12 21  2  0
 21 22  1  0
 22 23  2  0
 22 24  1  0
 24  2  1  0
 10  5  2  0
 20 14  1  0
M  CHG  3   6  -1   9  -1  11  -1
M  END
>  <UniqueID>  (1310) 
27

>  <SMILES>  (1310) 
C=c1[nH]c(=O)cc(Cc2ccc(Cl)cc2)/c1=C/c1[n-]c(=O)[n-]c1[O-]

>  <Energy>  (1310) 
96.37366191055143

>  <Genealogy>  (1310) 
C=c1[nH]c(=O)cc(Cc2ccc(Cl)cc2)c1=Cc1[n-]c(=O)[n-]c1[O-] (protonated)
C=c1[nH]c(=O)cc(Cc2ccc(Cl)cc2)/c1=C/c1[n-]c(=O)[n-]c1[O-] (cis-trans isomerization)
C=c1[nH]c(=O)cc(Cc2ccc(Cl)cc2)/c1=C/c1[n-]c(=O)[n-]c1[O-] (3D coordinates assigned)
C=c1[nH]c(=O)cc(Cc2ccc(Cl)cc2)/c1=C/c1[n-]c(=O)[n-]c1[O-] (optimized conformer: 96.37366191055143 kcal/mol)

>  <smiles>  (1310) 
C=c1[nH]c(=O)cc(Cc2ccc(Cl)cc2)c1=Cc1[nH]c(=O)[nH]c1O

>  <score_type>  (1310) 
oracle

>  <origin>  (1310) 
adg

>  <m_score__min__energy>  (1310) 
-15.890000000000001

>  <m_primary>  (1310) 
energy

$$$$
40:0
     RDKit          3D

 24 26  0  0  0  0  0  0  0  0999 V2000
   58.3520   30.7110   46.7490 O   0  0  0  0  0  0  0  0  0  0  0  0
   59.1480   31.8350   46.5350 C   0  0  0  0  0  0  0  0  0  0  0  0
   58.7300   32.9230   45.7610 C   0  0  0  0  0  0  0  0  0  0  0  0
   57.4150   33.1140   45.1300 C   0  0  0  0  0  0  0  0  0  0  0  0
   57.0980   34.2680   44.7380 O   0  0  0  0  0  0  0  0  0  0  0  0
   56.4490   32.0590   45.0080 N   0  0  0  0  0  0  0  0  0  0  0  0
   56.4060   31.0130   43.9870 C   0  0  0  0  0  0  0  0  0  0  0  0
   57.1710   29.7990   44.4150 C   0  0  0  0  0  0  0  0  0  0  0  0
   58.3530   29.6370   44.0130 O   0  0  0  0  0  0  0  0  0  0  0  0
   56.5920   28.9200   45.3910 N   0  0  0  0  0  0  0  0  0  0  0  0
   57.0190   27.7850   45.8740 C   0  0  0  0  0  0  0  0  0  0  0  0
   58.3470   27.6930   46.1650 N   0  0  0  0  0  0  0  0  0  0  0  0
   58.9080   26.5780   46.7020 C   0  0  0  0  0  0  0  0  0  0  0  0
   58.1180   25.4670   46.9800 C   0  0  0  0  0  0  0  0  0  0  0  0
   56.7520   25.5200   46.7120 C   0  0  0  0  0  0  0  0  0  0  0  0
   56.1820   26.6770   46.1720 C   0  0  0  0  0  0  0  0  0  0  0  0
   54.8050   26.7070   46.0010 O   0  0  0  0  0  0  0  0  0  0  0  0
   60.0070   34.0200   45.6130 S   0  0  0  0  0  0  0  0  0  0  0  0
   61.0640   33.1610   46.5940 C   0  0  0  0  0  0  0  0  0  0  0  0
   62.3530   33.5170   46.9790 C   0  0  0  0  0  0  0  0  0  0  0  0
   63.0530   32.6520   47.8330 C   0  0  0  0  0  0  0  0  0  0  0  0
   62.4560   31.4570   48.2770 C   0  0  0  0  0  0  0  0  0  0  0  0
   61.1540   31.1170   47.8740 C   0  0  0  0  0  0  0  0  0  0  0  0
   60.4570   31.9890   47.0270 C   0  0  0  0  0  0  0  0  0  0  0  0
  1  2  1  0
  2  3  2  0
  3  4  1  0
  4  5  2  0
  4  6  1  0
  6  7  1  0
  7  8  1  0
  8  9  2  0
  8 10  1  0
 10 11  2  0
 11 12  1  0
 12 13  1  0
 13 14  2  0
 14 15  1  0
 15 16  2  0
 16 17  1  0
  3 18  1  0
 18 19  1  0
 19 20  2  0
 20 21  1  0
 21 22  2  0
 22 23  1  0
 23 24  2  0
 24  2  1  0
 16 11  1  0
 24 19  1  0
M  CHG  3   6  -1  12  -1  17  -1
M  END
>  <UniqueID>  (1311) 
39

>  <SMILES>  (1311) 
O=C(C[N-]C(=O)c1sc2ccccc2c1O)/N=c1/[n-]cccc1[O-]

>  <Energy>  (1311) 
79.6309701151265

>  <Genealogy>  (1311) 
O=C(C[N-]C(=O)c1sc2ccccc2c1O)N=c1[n-]cccc1[O-] (protonated)
O=C(C[N-]C(=O)c1sc2ccccc2c1O)/N=c1/[n-]cccc1[O-] (cis-trans isomerization)
O=C(C[N-]C(=O)c1sc2ccccc2c1O)/N=c1/[n-]cccc1[O-] (3D coordinates assigned)
O=C(C[N-]C(=O)c1sc2ccccc2c1O)/N=c1/[n-]cccc1[O-] (optimized conformer: 79.6309701151265 kcal/mol)

>  <smiles>  (1311) 
O=C(CNC(=O)c1sc2ccccc2c1O)N=c1[nH]cccc1O

>  <score_type>  (1311) 
oracle

>  <origin>  (1311) 
adg

>  <m_score__min__energy>  (1311) 
-14.140000000000001

>  <m_primary>  (1311) 
energy

$$$$
46:0
     RDKit          3D

 30 32  0  0  0  0  0  0  0  0999 V2000
   59.1860   30.0460   44.7000 C   0  0  0  0  0  0  0  0  0  0  0  0
   58.8200   28.7350   44.8440 N   0  0  0  0  0  0  0  0  0  0  0  0
   57.5180   28.3340   44.9490 C   0  0  0  0  0  0  0  0  0  0  0  0
   57.2690   27.0500   45.0750 N   0  0  0  0  0  0  0  0  0  0  0  0
   56.6200   26.3790   46.1650 C   0  0  0  0  0  0  0  0  0  0  0  0
   55.3550   26.3160   46.2000 O   0  0  0  0  0  0  0  0  0  0  0  0
   57.4320   25.6080   47.1700 C   0  0  0  0  0  0  0  0  0  0  0  0
   58.8840   26.0930   47.1960 C   0  0  0  0  0  0  0  0  0  0  0  0
   58.9680   27.5230   47.4960 N   0  0  0  0  0  0  0  0  0  0  0  0
   59.6890   28.0340   48.6320 C   0  0  0  0  0  0  0  0  0  0  0  0
   60.3970   27.2480   49.3170 O   0  0  0  0  0  0  0  0  0  0  0  0
   59.6000   29.4640   49.0320 C   0  0  0  0  0  0  0  0  0  0  0  0
   58.7060   29.8910   50.0310 C   0  0  0  0  0  0  0  0  0  0  0  0
   58.6150   31.2530   50.3620 C   0  0  0  0  0  0  0  0  0  0  0  0
   59.4040   32.2030   49.6970 C   0  0  0  0  0  0  0  0  0  0  0  0
   60.2920   31.7980   48.6920 C   0  0  0  0  0  0  0  0  0  0  0  0
   61.2300   33.0000   47.7930 S   0  0  0  0  0  0  0  0  0  0  0  0
   62.0930   32.3000   46.7760 O   0  0  0  0  0  0  0  0  0  0  0  0
   62.1360   33.7360   48.7420 O   0  0  0  0  0  0  0  0  0  0  0  0
   60.1810   34.1530   46.9860 N   0  0  0  0  0  0  0  0  0  0  0  0
   60.0730   33.8380   45.5400 C   0  0  0  0  0  0  0  0  0  0  0  0
   58.8480   34.5050   44.8980 C   0  0  0  0  0  0  0  0  0  0  0  0
   57.5400   34.0230   45.5500 C   0  0  0  0  0  0  0  0  0  0  0  0
   57.7450   33.5140   46.9890 C   0  0  0  0  0  0  0  0  0  0  0  0
   58.8810   34.2840   47.6880 C   0  0  0  0  0  0  0  0  0  0  0  0
   60.3950   30.4290   48.3740 C   0  0  0  0  0  0  0  0  0  0  0  0
   56.5000   29.3210   44.8720 C   0  0  0  0  0  0  0  0  0  0  0  0
   55.1440   28.9860   44.8630 O   0  0  0  0  0  0  0  0  0  0  0  0
   56.8630   30.6700   44.7230 C   0  0  0  0  0  0  0  0  0  0  0  0
   58.2090   31.0370   44.6350 C   0  0  0  0  0  0  0  0  0  0  0  0
  1  2  1  0
  2  3  1  0
  3  4  2  0
  4  5  1  0
  5  6  2  0
  5  7  1  0
  7  8  1  0
  8  9  1  0
  9 10  1  0
 10 11  2  0
 10 12  1  0
 12 13  2  0
 13 14  1  0
 14 15  2  0
 15 16  1  0
 16 17  1  0
 17 18  2  0
 17 19  2  0
 17 20  1  0
 20 21  1  0
 21 22  1  0
 22 23  1  0
 23 24  1  0
 24 25  1  0
 16 26  2  0
  3 27  1  0
 27 28  1  0
 27 29  2  0
 29 30  1  0
 30  1  2  0
 26 12  1  0
 25 20  1  0
M  CHG  2   2  -1  28  -1
M  END
>  <UniqueID>  (1312) 
45

>  <SMILES>  (1312) 
O=C(CCNC(=O)c1cccc(S(=O)(=O)N2CCCCC2)c1)/N=c1/[n-]cccc1[O-]

>  <Energy>  (1312) 
67.6290186684417

>  <Genealogy>  (1312) 
O=C(CCNC(=O)c1cccc(S(=O)(=O)N2CCCCC2)c1)N=c1[n-]cccc1[O-] (protonated)
O=C(CCNC(=O)c1cccc(S(=O)(=O)N2CCCCC2)c1)/N=c1/[n-]cccc1[O-] (cis-trans isomerization)
O=C(CCNC(=O)c1cccc(S(=O)(=O)N2CCCCC2)c1)/N=c1/[n-]cccc1[O-] (3D coordinates assigned)
O=C(CCNC(=O)c1cccc(S(=O)(=O)N2CCCCC2)c1)/N=c1/[n-]cccc1[O-] (nonaromatic ring conformer: 67.6290186684417 kcal/mol)

>  <smiles>  (1312) 
O=C(CCNC(=O)c1cccc(S(=O)(=O)N2CCCCC2)c1)N=c1[nH]cccc1O

>  <score_type>  (1312) 
oracle

>  <origin>  (1312) 
adg

>  <m_score__min__energy>  (1312) 
-14.15

>  <m_primary>  (1312) 
energy

$$$$
47:0
     RDKit          3D

 23 24  0  0  0  0  0  0  0  0999 V2000
   53.5840   29.2520   54.3820 C   0  0  0  0  0  0  0  0  0  0  0  0
   54.7710   29.0340   53.5330 C   0  0  0  0  0  0  0  0  0  0  0  0
   55.0990   27.8500   53.2580 O   0  0  0  0  0  0  0  0  0  0  0  0
   55.5710   30.1310   53.0460 N   0  0  0  0  0  0  0  0  0  0  0  0
   55.0170   31.0400   52.0350 C   0  0  0  0  0  0  0  0  0  0  0  0
   56.9160   30.3680   53.5920 C   0  0  0  0  0  0  0  0  0  0  0  0
   57.7040   31.3170   52.7190 C   0  0  0  0  0  0  0  0  0  0  0  0
   58.0740   32.5790   53.2170 C   0  0  0  0  0  0  0  0  0  0  0  0
   58.8240   33.4590   52.4340 C   0  0  0  0  0  0  0  0  0  0  0  0
   59.2120   33.0920   51.1440 C   0  0  0  0  0  0  0  0  0  0  0  0
   58.8460   31.8440   50.6320 C   0  0  0  0  0  0  0  0  0  0  0  0
   59.2310   31.4880   49.3450 O   0  0  0  0  0  0  0  0  0  0  0  0
   58.0920   30.9560   51.4120 C   0  0  0  0  0  0  0  0  0  0  0  0
   57.7250   29.7260   50.8780 O   0  0  0  0  0  0  0  0  0  0  0  0
   52.3440   29.4780   53.9190 C   0  0  0  0  0  0  0  0  0  0  0  0
   52.0190   30.3110   52.7390 C   0  0  0  0  0  0  0  0  0  0  0  0
   52.1860   29.8290   51.4280 C   0  0  0  0  0  0  0  0  0  0  0  0
   51.8580   30.6350   50.3340 C   0  0  0  0  0  0  0  0  0  0  0  0
   51.3390   31.9170   50.5370 C   0  0  0  0  0  0  0  0  0  0  0  0
   51.0180   32.7140   49.4450 O   0  0  0  0  0  0  0  0  0  0  0  0
   51.1370   32.3910   51.8390 C   0  0  0  0  0  0  0  0  0  0  0  0
   50.6120   33.6610   52.0460 O   0  0  0  0  0  0  0  0  0  0  0  0
   51.4660   31.5860   52.9340 C   0  0  0  0  0  0  0  0  0  0  0  0
  1  2  1  0
  2  3  2  0
  2  4  1  0
  4  5  1  0
  4  6  1  0
  6  7  1  0
  7  8  2  0
  8  9  1  0
  9 10  2  0
 10 11  1  0
 11 12  1  0
 11 13  2  0
 13 14  1  0
  1 15  2  0
 15 16  1  0
 16 17  2  0
 17 18  1  0
 18 19  2  0
 19 20  1  0
 19 21  1  0
 21 22  1  0
 21 23  2  0
 13  7  1  0
 23 16  1  0
M  CHG  4  12  -1  14  -1  20  -1  22  -1
M  END
>  <UniqueID>  (1313) 
46

>  <SMILES>  (1313) 
CN(Cc1cccc([O-])c1[O-])C(=O)/C=C\c1ccc([O-])c([O-])c1

>  <Energy>  (1313) 
46.445256284126394

>  <Genealogy>  (1313) 
CN(Cc1cccc([O-])c1[O-])C(=O)C=Cc1ccc([O-])c([O-])c1 (protonated)
CN(Cc1cccc([O-])c1[O-])C(=O)/C=C\c1ccc([O-])c([O-])c1 (cis-trans isomerization)
CN(Cc1cccc([O-])c1[O-])C(=O)/C=C\c1ccc([O-])c([O-])c1 (3D coordinates assigned)
CN(Cc1cccc([O-])c1[O-])C(=O)/C=C\c1ccc([O-])c([O-])c1 (optimized conformer: 46.445256284126394 kcal/mol)

>  <smiles>  (1313) 
CN(Cc1cccc(O)c1O)C(=O)C=Cc1ccc(O)c(O)c1

>  <score_type>  (1313) 
oracle

>  <origin>  (1313) 
adg

>  <m_score__min__energy>  (1313) 
-16.859999999999999

>  <m_primary>  (1313) 
energy

$$$$
58:0
     RDKit          3D

 35 38  0  0  0  0  0  0  0  0999 V2000
   55.1220   26.6880   45.7800 O   0  0  0  0  0  0  0  0  0  0  0  0
   56.0260   25.7730   46.3110 C   0  0  0  0  0  0  0  0  0  0  0  0
   55.6590   24.7480   47.0990 N   0  0  0  0  0  0  0  0  0  0  0  0
   56.8260   24.1110   47.3250 C   0  0  0  0  0  0  0  0  0  0  0  0
   56.9050   23.0660   48.0290 O   0  0  0  0  0  0  0  0  0  0  0  0
   57.9040   24.6720   46.7310 N   0  0  0  0  0  0  0  0  0  0  0  0
   57.3940   25.7490   46.1110 C   0  0  0  0  0  0  0  0  0  0  0  0
   58.1930   26.6440   45.2580 C   0  0  0  0  0  0  0  0  0  0  0  0
   58.0370   27.9780   45.1540 C   0  0  0  0  0  0  0  0  0  0  0  0
   57.0000   28.5550   44.4390 C   0  0  0  0  0  0  0  0  0  0  0  0
   57.0920   29.9180   44.6310 C   0  0  0  0  0  0  0  0  0  0  0  0
   56.1330   30.9240   44.0740 C   0  0  0  0  0  0  0  0  0  0  0  0
   58.1640   30.2140   45.3960 N   0  0  0  0  0  0  0  0  0  0  0  0
   58.5280   31.5270   45.8540 C   0  0  0  0  0  0  0  0  0  0  0  0
   58.3790   32.6400   45.0180 C   0  0  0  0  0  0  0  0  0  0  0  0
   58.7170   33.9140   45.4830 C   0  0  0  0  0  0  0  0  0  0  0  0
   59.1850   34.0860   46.7900 C   0  0  0  0  0  0  0  0  0  0  0  0
   59.3170   32.9790   47.6460 C   0  0  0  0  0  0  0  0  0  0  0  0
   59.7800   33.1570   49.0420 C   0  0  0  0  0  0  0  0  0  0  0  0
   58.9300   33.2780   49.9660 O   0  0  0  0  0  0  0  0  0  0  0  0
   61.1830   33.2090   49.3600 N   0  0  0  0  0  0  0  0  0  0  0  0
   62.0790   32.1410   48.8910 C   0  0  0  0  0  0  0  0  0  0  0  0
   63.4530   32.7220   48.5590 C   0  0  0  0  0  0  0  0  0  0  0  0
   63.9140   33.5420   49.6830 N   0  0  0  0  0  0  0  0  0  0  0  0
   64.9860   33.0860   50.5260 C   0  0  0  0  0  0  0  0  0  0  0  0
   64.8020   32.9840   51.7680 O   0  0  0  0  0  0  0  0  0  0  0  0
   66.3400   32.7520   49.9430 C   0  0  0  0  0  0  0  0  0  0  0  0
   67.0980   31.7670   50.7430 N   0  0  0  0  0  0  0  0  0  0  0  0
   66.2770   30.6120   51.1460 C   0  0  0  0  0  0  0  0  0  0  0  0
   67.7600   32.3800   51.9070 C   0  0  0  0  0  0  0  0  0  0  0  0
   63.0340   34.6270   50.1290 C   0  0  0  0  0  0  0  0  0  0  0  0
   61.6480   34.0670   50.4550 C   0  0  0  0  0  0  0  0  0  0  0  0
   59.0080   31.6980   47.1590 C   0  0  0  0  0  0  0  0  0  0  0  0
   58.7720   29.0410   45.7050 C   0  0  0  0  0  0  0  0  0  0  0  0
   59.9570   28.9740   46.3320 C   0  0  0  0  0  0  0  0  0  0  0  0
  1  2  1  0
  2  3  1  0
  3  4  1  0
  4  5  2  0
  4  6  1  0
  6  7  1  0
  7  8  1  0
  8  9  2  0
  9 10  1  0
 10 11  2  0
 11 12  1  0
 11 13  1  0
 13 14  1  0
 14 15  2  0
 15 16  1  0
 16 17  2  0
 17 18  1  0
 18 19  1  0
 19 20  2  0
 19 21  1  0
 21 22  1  0
 22 23  1  0
 23 24  1  0
 24 25  1  0
 25 26  2  0
 25 27  1  0
 27 28  1  0
 28 29  1  0
 28 30  1  0
 24 31  1  0
 31 32  1  0
 18 33  2  0
 13 34  1  0
 34 35  2  0
  7  2  2  0
 34  9  1  0
 33 14  1  0
 32 21  1  0
M  CHG  2   3  -1   6  -1
M  END
>  <UniqueID>  (1314) 
56

>  <SMILES>  (1314) 
C=c1/c(=C\c2[n-]c(=O)[n-]c2O)cc(C)n1-c1cccc(C(=O)N2CCN(C(=O)CN(C)C)CC2)c1

>  <Energy>  (1314) 
148.5871670794481

>  <Genealogy>  (1314) 
C=c1c(=Cc2[n-]c(=O)[n-]c2O)cc(C)n1-c1cccc(C(=O)N2CCN(C(=O)CN(C)C)CC2)c1 (protonated)
C=c1/c(=C\c2[n-]c(=O)[n-]c2O)cc(C)n1-c1cccc(C(=O)N2CCN(C(=O)CN(C)C)CC2)c1 (cis-trans isomerization)
C=c1/c(=C\c2[n-]c(=O)[n-]c2O)cc(C)n1-c1cccc(C(=O)N2CCN(C(=O)CN(C)C)CC2)c1 (3D coordinates assigned)
C=c1/c(=C\c2[n-]c(=O)[n-]c2O)cc(C)n1-c1cccc(C(=O)N2CCN(C(=O)CN(C)C)CC2)c1 (nonaromatic ring conformer: 148.5871670794481 kcal/mol)

>  <smiles>  (1314) 
C=c1c(=Cc2[nH]c(=O)[nH]c2O)cc(C)n1-c1cccc(C(=O)N2CCN(C(=O)CN(C)C)CC2)c1

>  <score_type>  (1314) 
oracle

>  <origin>  (1314) 
adg

>  <m_score__min__energy>  (1314) 
-14.130000000000001

>  <m_primary>  (1314) 
energy

$$$$
60:0
     RDKit          3D

 29 31  0  0  0  0  0  0  0  0999 V2000
   59.0750   29.2410   48.2220 C   0  0  0  0  0  0  0  0  0  0  0  0
   58.8070   30.0470   47.1830 C   0  0  0  0  0  0  0  0  0  0  0  0
   58.4250   29.6690   45.8840 C   0  0  0  0  0  0  0  0  0  0  0  0
   58.3720   28.4590   45.2900 C   0  0  0  0  0  0  0  0  0  0  0  0
   57.5100   27.3330   45.7030 C   0  0  0  0  0  0  0  0  0  0  0  0
   56.1160   27.4450   45.6190 C   0  0  0  0  0  0  0  0  0  0  0  0
   55.5220   28.6270   45.1860 O   0  0  0  0  0  0  0  0  0  0  0  0
   55.3290   26.3970   45.9720 N   0  0  0  0  0  0  0  0  0  0  0  0
   55.8720   25.2270   46.3940 C   0  0  0  0  0  0  0  0  0  0  0  0
   55.1250   24.2710   46.7220 O   0  0  0  0  0  0  0  0  0  0  0  0
   57.2220   25.0850   46.4580 N   0  0  0  0  0  0  0  0  0  0  0  0
   58.0510   26.1040   46.1160 C   0  0  0  0  0  0  0  0  0  0  0  0
   59.3000   25.9330   46.1690 O   0  0  0  0  0  0  0  0  0  0  0  0
   58.0770   30.8390   45.2280 C   0  0  0  0  0  0  0  0  0  0  0  0
   58.3060   31.8770   46.1070 C   0  0  0  0  0  0  0  0  0  0  0  0
   58.0700   33.3240   45.7960 C   0  0  0  0  0  0  0  0  0  0  0  0
   58.7480   31.4010   47.2910 N   0  0  0  0  0  0  0  0  0  0  0  0
   59.0860   32.1960   48.4430 C   0  0  0  0  0  0  0  0  0  0  0  0
   60.0260   33.2310   48.3390 C   0  0  0  0  0  0  0  0  0  0  0  0
   60.3460   34.0030   49.4580 C   0  0  0  0  0  0  0  0  0  0  0  0
   59.7330   33.7470   50.6880 C   0  0  0  0  0  0  0  0  0  0  0  0
   58.7970   32.7040   50.8140 C   0  0  0  0  0  0  0  0  0  0  0  0
   58.1570   32.4460   52.0810 N   0  0  0  0  0  0  0  0  0  0  0  0
   58.4230   33.3160   53.2280 C   0  0  0  0  0  0  0  0  0  0  0  0
   57.0740   31.0940   52.2770 S   0  0  0  0  0  0  0  0  0  0  0  0
   56.9370   30.6760   54.0040 C   0  0  0  0  0  0  0  0  0  0  0  0
   57.6050   29.9150   51.5170 O   0  0  0  0  0  0  0  0  0  0  0  0
   55.7120   31.4370   51.7330 O   0  0  0  0  0  0  0  0  0  0  0  0
   58.4780   31.9350   49.6810 C   0  0  0  0  0  0  0  0  0  0  0  0
  1  2  2  0
  2  3  1  0
  3  4  2  3
  4  5  1  0
  5  6  2  0
  6  7  1  0
  6  8  1  0
  8  9  1  0
  9 10  2  0
  9 11  1  0
 11 12  1  0
 12 13  2  0
  3 14  1  0
 14 15  2  0
 15 16  1  0
 15 17  1  0
 17 18  1  0
 18 19  2  0
 19 20  1  0
 20 21  2  0
 21 22  1  0
 22 23  1  0
 23 24  1  0
 23 25  1  0
 25 26  1  0
 25 27  2  0
 25 28  2  0
 22 29  2  0
 17  2  1  0
 29 18  1  0
 12  5  1  0
M  CHG  3   7  -1   8  -1  11  -1
M  END
>  <UniqueID>  (1315) 
58

>  <SMILES>  (1315) 
C=c1c(=Cc2c([O-])[n-]c(=O)[n-]c2=O)cc(C)n1-c1cccc(N(C)S(C)(=O)=O)c1

>  <Energy>  (1315) 
96.82216639635045

>  <Genealogy>  (1315) 
C=c1c(=Cc2c([O-])[n-]c(=O)[n-]c2=O)cc(C)n1-c1cccc(N(C)S(C)(=O)=O)c1 (protonated)
C=c1c(=Cc2c([O-])[n-]c(=O)[n-]c2=O)cc(C)n1-c1cccc(N(C)S(C)(=O)=O)c1 (3D coordinates assigned)
C=c1c(=Cc2c([O-])[n-]c(=O)[n-]c2=O)cc(C)n1-c1cccc(N(C)S(C)(=O)=O)c1 (optimized conformer: 96.82216639635045 kcal/mol)

>  <smiles>  (1315) 
C=c1c(=Cc2c(O)[nH]c(=O)[nH]c2=O)cc(C)n1-c1cccc(N(C)S(C)(=O)=O)c1

>  <score_type>  (1315) 
oracle

>  <origin>  (1315) 
adg

>  <m_score__min__energy>  (1315) 
-16.41

>  <m_primary>  (1315) 
energy

$$$$
61:0
     RDKit          3D

 29 32  0  0  0  0  0  0  0  0999 V2000
   55.0380   28.4430   52.7460 C   0  0  0  0  0  0  0  0  0  0  0  0
   55.4250   29.7030   52.4860 C   0  0  0  0  0  0  0  0  0  0  0  0
   54.5850   30.8280   52.4090 C   0  0  0  0  0  0  0  0  0  0  0  0
   53.2430   30.9300   52.3530 C   0  0  0  0  0  0  0  0  0  0  0  0
   52.4180   30.7270   51.1510 C   0  0  0  0  0  0  0  0  0  0  0  0
   51.4610   31.5890   50.6660 C   0  0  0  0  0  0  0  0  0  0  0  0
   51.0200   32.7450   51.2950 O   0  0  0  0  0  0  0  0  0  0  0  0
   51.0030   31.1630   49.4730 N   0  0  0  0  0  0  0  0  0  0  0  0
   51.7280   30.0450   49.2550 C   0  0  0  0  0  0  0  0  0  0  0  0
   51.6070   29.3440   48.2170 O   0  0  0  0  0  0  0  0  0  0  0  0
   52.6030   29.7570   50.2380 N   0  0  0  0  0  0  0  0  0  0  0  0
   55.4170   31.9300   52.3600 C   0  0  0  0  0  0  0  0  0  0  0  0
   56.7110   31.4560   52.3410 C   0  0  0  0  0  0  0  0  0  0  0  0
   57.9200   32.3320   52.1940 C   0  0  0  0  0  0  0  0  0  0  0  0
   56.7260   30.1030   52.4010 N   0  0  0  0  0  0  0  0  0  0  0  0
   57.9420   29.2700   52.3620 C   0  0  0  0  0  0  0  0  0  0  0  0
   58.9780   29.8800   51.4530 C   0  0  0  0  0  0  0  0  0  0  0  0
   58.7110   30.0380   50.0840 C   0  0  0  0  0  0  0  0  0  0  0  0
   59.6720   30.5870   49.2320 C   0  0  0  0  0  0  0  0  0  0  0  0
   60.9190   30.9920   49.7330 C   0  0  0  0  0  0  0  0  0  0  0  0
   61.9030   31.5650   48.8520 N   0  0  0  0  0  0  0  0  0  0  0  0
   61.5940   31.7790   47.4320 C   0  0  0  0  0  0  0  0  0  0  0  0
   62.2720   33.0620   46.8940 C   0  0  0  0  0  0  0  0  0  0  0  0
   63.1800   33.6550   47.8100 O   0  0  0  0  0  0  0  0  0  0  0  0
   64.0410   32.6740   48.3430 C   0  0  0  0  0  0  0  0  0  0  0  0
   63.2670   31.8060   49.3380 C   0  0  0  0  0  0  0  0  0  0  0  0
   61.1820   30.8490   51.1050 C   0  0  0  0  0  0  0  0  0  0  0  0
   60.2230   30.2970   51.9600 C   0  0  0  0  0  0  0  0  0  0  0  0
   60.5110   30.1750   53.2780 F   0  0  0  0  0  0  0  0  0  0  0  0
  1  2  2  0
  2  3  1  0
  3  4  2  0
  4  5  1  0
  5  6  2  0
  6  7  1  0
  6  8  1  0
  8  9  1  0
  9 10  2  0
  9 11  1  0
  3 12  1  0
 12 13  2  0
 13 14  1  0
 13 15  1  0
 15 16  1  0
 16 17  1  0
 17 18  2  0
 18 19  1  0
 19 20  2  0
 20 21  1  0
 21 22  1  0
 22 23  1  0
 23 24  1  0
 24 25  1  0
 25 26  1  0
 20 27  1  0
 27 28  2  0
 28 29  1  0
 15  2  1  0
 28 17  1  0
 11  5  1  0
 26 21  1  0
M  CHG  2   7  -1   8  -1
M  END
>  <UniqueID>  (1316) 
59

>  <SMILES>  (1316) 
C=c1/c(=C\c2[nH]c(=O)[n-]c2[O-])cc(C)n1Cc1ccc(N2CCOCC2)cc1F

>  <Energy>  (1316) 
134.68479882144334

>  <Genealogy>  (1316) 
C=c1c(=Cc2[nH]c(=O)[n-]c2[O-])cc(C)n1Cc1ccc(N2CCOCC2)cc1F (protonated)
C=c1/c(=C\c2[nH]c(=O)[n-]c2[O-])cc(C)n1Cc1ccc(N2CCOCC2)cc1F (cis-trans isomerization)
C=c1/c(=C\c2[nH]c(=O)[n-]c2[O-])cc(C)n1Cc1ccc(N2CCOCC2)cc1F (3D coordinates assigned)
C=c1/c(=C\c2[nH]c(=O)[n-]c2[O-])cc(C)n1Cc1ccc(N2CCOCC2)cc1F (nonaromatic ring conformer: 134.68479882144334 kcal/mol)

>  <smiles>  (1316) 
C=c1c(=Cc2[nH]c(=O)[nH]c2O)cc(C)n1Cc1ccc(N2CCOCC2)cc1F

>  <score_type>  (1316) 
oracle

>  <origin>  (1316) 
adg

>  <m_score__min__energy>  (1316) 
-14.25

>  <m_primary>  (1316) 
energy

$$$$
63:0
     RDKit          3D

 28 30  0  0  0  0  0  0  0  0999 V2000
   59.9260   29.1510   44.7960 C   0  0  0  0  0  0  0  0  0  0  0  0
   59.3880   29.0030   46.0160 C   0  0  0  0  0  0  0  0  0  0  0  0
   58.6160   27.9220   46.4560 C   0  0  0  0  0  0  0  0  0  0  0  0
   58.1860   26.8770   45.7240 C   0  0  0  0  0  0  0  0  0  0  0  0
   57.3750   25.7700   46.2640 C   0  0  0  0  0  0  0  0  0  0  0  0
   57.9080   24.6770   46.8380 N   0  0  0  0  0  0  0  0  0  0  0  0
   56.8270   23.9840   47.2580 C   0  0  0  0  0  0  0  0  0  0  0  0
   56.9190   22.8740   47.8420 O   0  0  0  0  0  0  0  0  0  0  0  0
   55.6400   24.5790   47.0100 N   0  0  0  0  0  0  0  0  0  0  0  0
   56.0040   25.7150   46.3920 C   0  0  0  0  0  0  0  0  0  0  0  0
   55.1030   26.6980   46.0010 O   0  0  0  0  0  0  0  0  0  0  0  0
   58.3410   28.1600   47.7970 C   0  0  0  0  0  0  0  0  0  0  0  0
   58.9420   29.3600   48.1180 C   0  0  0  0  0  0  0  0  0  0  0  0
   58.9290   29.9780   49.4820 C   0  0  0  0  0  0  0  0  0  0  0  0
   59.5740   29.8740   47.0390 N   0  0  0  0  0  0  0  0  0  0  0  0
   60.3110   31.1090   47.0100 C   0  0  0  0  0  0  0  0  0  0  0  0
   59.8070   32.3900   46.8570 C   0  0  0  0  0  0  0  0  0  0  0  0
   58.3690   32.7960   46.7280 C   0  0  0  0  0  0  0  0  0  0  0  0
   58.0060   32.9800   45.3070 N   0  0  0  0  0  0  0  0  0  0  0  0
   58.7890   34.0820   44.7260 C   0  0  0  0  0  0  0  0  0  0  0  0
   58.1810   31.7330   44.5200 C   0  0  0  0  0  0  0  0  0  0  0  0
   57.3500   31.8150   43.2430 C   0  0  0  0  0  0  0  0  0  0  0  0
   58.1560   32.3180   42.1990 O   0  0  0  0  0  0  0  0  0  0  0  0
   57.3900   32.4040   41.0180 C   0  0  0  0  0  0  0  0  0  0  0  0
   60.8230   33.2720   46.9650 N   0  0  0  0  0  0  0  0  0  0  0  0
   61.9310   32.5790   47.1860 N   0  0  0  0  0  0  0  0  0  0  0  0
   63.2510   33.1800   47.3200 C   0  0  0  0  0  0  0  0  0  0  0  0
   61.6620   31.2600   47.2210 C   0  0  0  0  0  0  0  0  0  0  0  0
  1  2  2  0
  2  3  1  0
  3  4  2  0
  4  5  1  0
  5  6  1  0
  6  7  1  0
  7  8  2  0
  7  9  1  0
  9 10  1  0
 10 11  1  0
  3 12  1  0
 12 13  2  0
 13 14  1  0
 13 15  1  0
 15 16  1  0
 16 17  1  0
 17 18  1  0
 18 19  1  0
 19 20  1  0
 19 21  1  0
 21 22  1  0
 22 23  1  0
 23 24  1  0
 17 25  2  0
 25 26  1  0
 26 27  1  0
 26 28  1  0
 15  2  1  0
 28 16  2  0
 10  5  2  0
M  CHG  3   6  -1   9  -1  11  -1
M  END
>  <UniqueID>  (1317) 
61

>  <SMILES>  (1317) 
C=c1/c(=C/c2[n-]c(=O)[n-]c2[O-])cc(C)n1-c1cn(C)nc1CN(C)CCOC

>  <Energy>  (1317) 
150.9267834952987

>  <Genealogy>  (1317) 
C=c1c(=Cc2[n-]c(=O)[n-]c2[O-])cc(C)n1-c1cn(C)nc1CN(C)CCOC (protonated)
C=c1/c(=C/c2[n-]c(=O)[n-]c2[O-])cc(C)n1-c1cn(C)nc1CN(C)CCOC (cis-trans isomerization)
C=c1/c(=C/c2[n-]c(=O)[n-]c2[O-])cc(C)n1-c1cn(C)nc1CN(C)CCOC (3D coordinates assigned)
C=c1/c(=C/c2[n-]c(=O)[n-]c2[O-])cc(C)n1-c1cn(C)nc1CN(C)CCOC (optimized conformer: 150.9267834952987 kcal/mol)

>  <smiles>  (1317) 
C=c1c(=Cc2[nH]c(=O)[nH]c2O)cc(C)n1-c1cn(C)nc1CN(C)CCOC

>  <score_type>  (1317) 
oracle

>  <origin>  (1317) 
adg

>  <m_score__min__energy>  (1317) 
-15.119999999999999

>  <m_primary>  (1317) 
energy

$$$$
64:0
     RDKit          3D

 36 40  0  0  0  0  0  0  0  0999 V2000
   57.9220   28.4300   44.5910 C   0  0  0  0  0  0  0  0  0  0  0  0
   58.3240   28.5230   45.8700 C   0  0  0  0  0  0  0  0  0  0  0  0
   58.5060   27.4700   46.7850 C   0  0  0  0  0  0  0  0  0  0  0  0
   58.4440   26.1320   46.6300 C   0  0  0  0  0  0  0  0  0  0  0  0
   57.2180   25.3230   46.6120 C   0  0  0  0  0  0  0  0  0  0  0  0
   57.2020   23.9890   46.7810 N   0  0  0  0  0  0  0  0  0  0  0  0
   55.9050   23.6650   46.5830 C   0  0  0  0  0  0  0  0  0  0  0  0
   55.4790   22.4800   46.6730 O   0  0  0  0  0  0  0  0  0  0  0  0
   55.1020   24.7040   46.2700 N   0  0  0  0  0  0  0  0  0  0  0  0
   55.9520   25.7450   46.2770 C   0  0  0  0  0  0  0  0  0  0  0  0
   55.5860   27.0490   45.9690 O   0  0  0  0  0  0  0  0  0  0  0  0
   58.7970   28.0650   48.0010 C   0  0  0  0  0  0  0  0  0  0  0  0
   58.8200   29.4270   47.7910 C   0  0  0  0  0  0  0  0  0  0  0  0
   59.0980   30.4500   48.8510 C   0  0  0  0  0  0  0  0  0  0  0  0
   58.5440   29.7090   46.4970 N   0  0  0  0  0  0  0  0  0  0  0  0
   58.4070   31.0310   45.9460 C   0  0  0  0  0  0  0  0  0  0  0  0
   57.4270   31.2960   44.9800 C   0  0  0  0  0  0  0  0  0  0  0  0
   57.3060   32.5770   44.4340 C   0  0  0  0  0  0  0  0  0  0  0  0
   58.1500   33.6050   44.8620 C   0  0  0  0  0  0  0  0  0  0  0  0
   59.1170   33.3560   45.8420 C   0  0  0  0  0  0  0  0  0  0  0  0
   59.9930   34.4440   46.2990 C   0  0  0  0  0  0  0  0  0  0  0  0
   59.7120   35.6250   45.9560 O   0  0  0  0  0  0  0  0  0  0  0  0
   61.1640   34.1770   47.1010 N   0  0  0  0  0  0  0  0  0  0  0  0
   61.0740   34.2730   48.5700 C   0  0  0  0  0  0  0  0  0  0  0  0
   62.4550   34.2710   49.2380 C   0  0  0  0  0  0  0  0  0  0  0  0
   63.2690   33.1660   48.7200 N   0  0  0  0  0  0  0  0  0  0  0  0
   64.1040   32.3940   49.6030 C   0  0  0  0  0  0  0  0  0  0  0  0
   63.5530   31.3420   50.3560 C   0  0  0  0  0  0  0  0  0  0  0  0
   64.3590   30.5960   51.2180 C   0  0  0  0  0  0  0  0  0  0  0  0
   65.7210   30.8930   51.3330 C   0  0  0  0  0  0  0  0  0  0  0  0
   66.2760   31.9390   50.5890 C   0  0  0  0  0  0  0  0  0  0  0  0
   65.4720   32.6900   49.7290 C   0  0  0  0  0  0  0  0  0  0  0  0
   63.2770   32.9620   47.2970 C   0  0  0  0  0  0  0  0  0  0  0  0
   63.9710   32.0450   46.7780 O   0  0  0  0  0  0  0  0  0  0  0  0
   62.4380   33.8490   46.4280 C   0  0  0  0  0  0  0  0  0  0  0  0
   59.2440   32.0690   46.3840 C   0  0  0  0  0  0  0  0  0  0  0  0
  1  2  2  0
  2  3  1  0
  3  4  2  3
  4  5  1  0
  5  6  1  0
  6  7  1  0
  7  8  2  0
  7  9  1  0
  9 10  1  0
 10 11  1  0
  3 12  1  0
 12 13  2  0
 13 14  1  0
 13 15  1  0
 15 16  1  0
 16 17  2  0
 17 18  1  0
 18 19  2  0
 19 20  1  0
 20 21  1  0
 21 22  2  0
 21 23  1  0
 23 24  1  0
 24 25  1  0
 25 26  1  0
 26 27  1  0
 27 28  2  0
 28 29  1  0
 29 30  2  0
 30 31  1  0
 31 32  2  0
 26 33  1  0
 33 34  2  0
 33 35  1  0
 20 36  2  0
 15  2  1  0
 36 16  1  0
 10  5  2  0
 35 23  1  0
 32 27  1  0
M  CHG  2   6  -1   9  -1
M  END
>  <UniqueID>  (1318) 
62

>  <SMILES>  (1318) 
C=c1c(=Cc2[n-]c(=O)[n-]c2O)cc(C)n1-c1cccc(C(=O)N2CCN(c3ccccc3)C(=O)C2)c1

>  <Energy>  (1318) 
153.8762309275497

>  <Genealogy>  (1318) 
C=c1c(=Cc2[n-]c(=O)[n-]c2O)cc(C)n1-c1cccc(C(=O)N2CCN(c3ccccc3)C(=O)C2)c1 (protonated)
C=c1c(=Cc2[n-]c(=O)[n-]c2O)cc(C)n1-c1cccc(C(=O)N2CCN(c3ccccc3)C(=O)C2)c1 (3D coordinates assigned)
C=c1c(=Cc2[n-]c(=O)[n-]c2O)cc(C)n1-c1cccc(C(=O)N2CCN(c3ccccc3)C(=O)C2)c1 (nonaromatic ring conformer: 153.8762309275497 kcal/mol)

>  <smiles>  (1318) 
C=c1c(=Cc2[nH]c(=O)[nH]c2O)cc(C)n1-c1cccc(C(=O)N2CCN(c3ccccc3)C(=O)C2)c1

>  <score_type>  (1318) 
oracle

>  <origin>  (1318) 
adg

>  <m_score__min__energy>  (1318) 
-15.73

>  <m_primary>  (1318) 
energy

$$$$
70:0
     RDKit          3D

 29 32  0  0  0  0  0  0  0  0999 V2000
   56.4990   29.5370   44.3820 C   0  0  0  0  0  0  0  0  0  0  0  0
   57.6650   29.0750   44.8570 C   0  0  0  0  0  0  0  0  0  0  0  0
   58.0850   27.7370   44.9390 C   0  0  0  0  0  0  0  0  0  0  0  0
   57.4080   26.5860   44.7680 C   0  0  0  0  0  0  0  0  0  0  0  0
   56.9840   25.6720   45.8420 C   0  0  0  0  0  0  0  0  0  0  0  0
   57.7510   24.6980   46.3660 N   0  0  0  0  0  0  0  0  0  0  0  0
   56.9050   24.0480   47.1940 C   0  0  0  0  0  0  0  0  0  0  0  0
   57.2610   23.0640   47.8930 O   0  0  0  0  0  0  0  0  0  0  0  0
   55.6420   24.5290   47.2070 N   0  0  0  0  0  0  0  0  0  0  0  0
   55.7090   25.5460   46.3330 C   0  0  0  0  0  0  0  0  0  0  0  0
   54.6220   26.3410   45.9880 O   0  0  0  0  0  0  0  0  0  0  0  0
   59.4320   27.7740   45.2710 C   0  0  0  0  0  0  0  0  0  0  0  0
   59.7640   29.1010   45.4460 C   0  0  0  0  0  0  0  0  0  0  0  0
   61.1270   29.6070   45.8030 C   0  0  0  0  0  0  0  0  0  0  0  0
   58.6940   29.8870   45.2040 N   0  0  0  0  0  0  0  0  0  0  0  0
   58.7040   31.3230   45.2060 C   0  0  0  0  0  0  0  0  0  0  0  0
   59.1840   32.0080   46.3320 C   0  0  0  0  0  0  0  0  0  0  0  0
   59.1800   33.4110   46.3670 C   0  0  0  0  0  0  0  0  0  0  0  0
   59.7040   34.1190   47.5510 C   0  0  0  0  0  0  0  0  0  0  0  0
   58.9650   34.9570   48.1350 O   0  0  0  0  0  0  0  0  0  0  0  0
   61.0370   33.8840   48.0430 N   0  0  0  0  0  0  0  0  0  0  0  0
   62.1460   33.4600   47.2030 C   0  0  0  0  0  0  0  0  0  0  0  0
   63.3650   33.4300   48.1130 C   0  0  0  0  0  0  0  0  0  0  0  0
   62.9890   34.2450   49.3480 C   0  0  0  0  0  0  0  0  0  0  0  0
   61.4670   34.3010   49.3670 C   0  0  0  0  0  0  0  0  0  0  0  0
   58.7220   34.1240   45.2500 C   0  0  0  0  0  0  0  0  0  0  0  0
   58.2450   33.4450   44.1260 C   0  0  0  0  0  0  0  0  0  0  0  0
   58.2290   32.0480   44.0970 C   0  0  0  0  0  0  0  0  0  0  0  0
   57.7480   31.4020   42.9580 O   0  0  0  0  0  0  0  0  0  0  0  0
  1  2  2  0
  2  3  1  0
  3  4  2  3
  4  5  1  0
  5  6  1  0
  6  7  1  0
  7  8  2  0
  7  9  1  0
  9 10  1  0
 10 11  1  0
  3 12  1  0
 12 13  2  0
 13 14  1  0
 13 15  1  0
 15 16  1  0
 16 17  2  0
 17 18  1  0
 18 19  1  0
 19 20  2  0
 19 21  1  0
 21 22  1  0
 22 23  1  0
 23 24  1  0
 24 25  1  0
 18 26  2  0
 26 27  1  0
 27 28  2  0
 28 29  1  0
 15  2  1  0
 28 16  1  0
 10  5  2  0
 25 21  1  0
M  CHG  3   6  -1   9  -1  11  -1
M  END
>  <UniqueID>  (1319) 
68

>  <SMILES>  (1319) 
C=c1c(=Cc2[n-]c(=O)[n-]c2[O-])cc(C)n1-c1cc(C(=O)N2CCCC2)ccc1O

>  <Energy>  (1319) 
130.64997486896198

>  <Genealogy>  (1319) 
C=c1c(=Cc2[n-]c(=O)[n-]c2[O-])cc(C)n1-c1cc(C(=O)N2CCCC2)ccc1O (protonated)
C=c1c(=Cc2[n-]c(=O)[n-]c2[O-])cc(C)n1-c1cc(C(=O)N2CCCC2)ccc1O (3D coordinates assigned)
C=c1c(=Cc2[n-]c(=O)[n-]c2[O-])cc(C)n1-c1cc(C(=O)N2CCCC2)ccc1O (nonaromatic ring conformer: 130.64997486896198 kcal/mol)

>  <smiles>  (1319) 
C=c1c(=Cc2[nH]c(=O)[nH]c2O)cc(C)n1-c1cc(C(=O)N2CCCC2)ccc1O

>  <score_type>  (1319) 
oracle

>  <origin>  (1319) 
adg

>  <m_score__min__energy>  (1319) 
-16.52

>  <m_primary>  (1319) 
energy

$$$$
71:0
     RDKit          3D

 32 35  0  0  0  0  0  0  0  0999 V2000
   57.4080   25.9400   47.4090 C   0  0  0  0  0  0  0  0  0  0  0  0
   57.9840   26.3890   46.2820 C   0  0  0  0  0  0  0  0  0  0  0  0
   57.6910   26.0080   44.9610 C   0  0  0  0  0  0  0  0  0  0  0  0
   56.9430   24.9980   44.4770 C   0  0  0  0  0  0  0  0  0  0  0  0
   55.6390   24.5650   45.0080 C   0  0  0  0  0  0  0  0  0  0  0  0
   55.0910   23.3520   44.8030 N   0  0  0  0  0  0  0  0  0  0  0  0
   53.8610   23.4690   45.3510 C   0  0  0  0  0  0  0  0  0  0  0  0
   53.0350   22.5190   45.3730 O   0  0  0  0  0  0  0  0  0  0  0  0
   53.5840   24.6880   45.8650 N   0  0  0  0  0  0  0  0  0  0  0  0
   54.7150   25.3720   45.6250 C   0  0  0  0  0  0  0  0  0  0  0  0
   54.8940   26.7100   45.9550 O   0  0  0  0  0  0  0  0  0  0  0  0
   58.3630   26.9030   44.1420 C   0  0  0  0  0  0  0  0  0  0  0  0
   59.0750   27.7470   44.9690 C   0  0  0  0  0  0  0  0  0  0  0  0
   59.9870   28.8410   44.5050 C   0  0  0  0  0  0  0  0  0  0  0  0
   58.8580   27.4260   46.2620 N   0  0  0  0  0  0  0  0  0  0  0  0
   59.3910   28.1320   47.3950 C   0  0  0  0  0  0  0  0  0  0  0  0
   60.2080   27.4560   48.3070 C   0  0  0  0  0  0  0  0  0  0  0  0
   60.7410   28.1240   49.4110 C   0  0  0  0  0  0  0  0  0  0  0  0
   60.4540   29.4870   49.6330 C   0  0  0  0  0  0  0  0  0  0  0  0
   61.0120   30.2320   50.8010 C   0  0  0  0  0  0  0  0  0  0  0  0
   61.8850   31.1230   50.5860 O   0  0  0  0  0  0  0  0  0  0  0  0
   60.6040   29.9350   52.1690 N   0  0  0  0  0  0  0  0  0  0  0  0
   60.2180   31.1730   52.8820 C   0  0  0  0  0  0  0  0  0  0  0  0
   58.8880   31.7720   52.3670 C   0  0  0  0  0  0  0  0  0  0  0  0
   58.0430   30.7700   51.6810 N   0  0  0  0  0  0  0  0  0  0  0  0
   56.6490   31.2350   51.6080 C   0  0  0  0  0  0  0  0  0  0  0  0
   58.1190   29.4670   52.3570 C   0  0  0  0  0  0  0  0  0  0  0  0
   59.5450   28.8890   52.2350 C   0  0  0  0  0  0  0  0  0  0  0  0
   59.6320   30.1620   48.7080 C   0  0  0  0  0  0  0  0  0  0  0  0
   59.1030   29.4930   47.5950 C   0  0  0  0  0  0  0  0  0  0  0  0
   58.2600   30.2130   46.6700 C   0  0  0  0  0  0  0  0  0  0  0  0
   57.5840   30.7920   45.9300 N   0  0  0  0  0  0  0  0  0  0  0  0
  1  2  2  0
  2  3  1  0
  3  4  2  3
  4  5  1  0
  5  6  1  0
  6  7  1  0
  7  8  2  0
  7  9  1  0
  9 10  1  0
 10 11  1  0
  3 12  1  0
 12 13  2  0
 13 14  1  0
 13 15  1  0
 15 16  1  0
 16 17  2  0
 17 18  1  0
 18 19  2  0
 19 20  1  0
 20 21  2  0
 20 22  1  0
 22 23  1  0
 23 24  1  0
 24 25  1  0
 25 26  1  0
 25 27  1  0
 27 28  1  0
 19 29  1  0
 29 30  2  0
 30 31  1  0
 31 32  3  0
 15  2  1  0
 30 16  1  0
 10  5  2  0
 28 22  1  0
M  CHG  4   6  -1   9  -1  11  -1  22   1
M  END
>  <UniqueID>  (1320) 
69

>  <SMILES>  (1320) 
C=c1c(=Cc2[n-]c(=O)[n-]c2[O-])cc(C)n1-c1ccc(C(=O)[NH+]2CCN(C)CC2)cc1C#N

>  <Energy>  (1320) 
147.12609278618547

>  <Genealogy>  (1320) 
C=c1c(=Cc2[n-]c(=O)[n-]c2[O-])cc(C)n1-c1ccc(C(=O)[NH+]2CCN(C)CC2)cc1C#N (protonated)
C=c1c(=Cc2[n-]c(=O)[n-]c2[O-])cc(C)n1-c1ccc(C(=O)[NH+]2CCN(C)CC2)cc1C#N (3D coordinates assigned)
C=c1c(=Cc2[n-]c(=O)[n-]c2[O-])cc(C)n1-c1ccc(C(=O)[NH+]2CCN(C)CC2)cc1C#N (nonaromatic ring conformer: 147.12609278618547 kcal/mol)

>  <smiles>  (1320) 
C=c1c(=Cc2[nH]c(=O)[nH]c2O)cc(C)n1-c1ccc(C(=O)N2CCN(C)CC2)cc1C#N

>  <score_type>  (1320) 
oracle

>  <origin>  (1320) 
adg

>  <m_score__min__energy>  (1320) 
-14.390000000000001

>  <m_primary>  (1320) 
energy

$$$$
73:0
     RDKit          3D

 36 40  0  0  0  0  0  0  0  0999 V2000
   54.9500   26.4700   46.1500 O   0  0  0  0  0  0  0  0  0  0  0  0
   54.7780   25.1610   45.7030 C   0  0  0  0  0  0  0  0  0  0  0  0
   53.6940   24.4140   45.9680 N   0  0  0  0  0  0  0  0  0  0  0  0
   53.9880   23.2440   45.3590 C   0  0  0  0  0  0  0  0  0  0  0  0
   53.2050   22.2620   45.3710 O   0  0  0  0  0  0  0  0  0  0  0  0
   55.1850   23.2150   44.7390 N   0  0  0  0  0  0  0  0  0  0  0  0
   55.6710   24.4520   44.9380 C   0  0  0  0  0  0  0  0  0  0  0  0
   57.0180   24.9030   44.5420 C   0  0  0  0  0  0  0  0  0  0  0  0
   57.6040   26.0500   44.9370 C   0  0  0  0  0  0  0  0  0  0  0  0
   57.8160   27.1200   44.0810 C   0  0  0  0  0  0  0  0  0  0  0  0
   58.3370   28.1450   44.8460 C   0  0  0  0  0  0  0  0  0  0  0  0
   58.7420   29.4890   44.3250 C   0  0  0  0  0  0  0  0  0  0  0  0
   58.4850   27.7450   46.1250 N   0  0  0  0  0  0  0  0  0  0  0  0
   59.0690   28.5250   47.1780 C   0  0  0  0  0  0  0  0  0  0  0  0
   60.1560   28.0280   47.8970 C   0  0  0  0  0  0  0  0  0  0  0  0
   60.7560   28.8100   48.8860 C   0  0  0  0  0  0  0  0  0  0  0  0
   60.2790   30.0930   49.1690 C   0  0  0  0  0  0  0  0  0  0  0  0
   60.9290   30.8830   50.1760 N   0  0  0  0  0  0  0  0  0  0  0  0
   60.4910   30.7110   51.5680 C   0  0  0  0  0  0  0  0  0  0  0  0
   61.2560   31.6080   52.5500 C   0  0  0  0  0  0  0  0  0  0  0  0
   62.5780   31.8400   52.1320 O   0  0  0  0  0  0  0  0  0  0  0  0
   62.5540   32.5920   50.9430 C   0  0  0  0  0  0  0  0  0  0  0  0
   62.0680   31.7190   49.7880 C   0  0  0  0  0  0  0  0  0  0  0  0
   59.1610   30.5900   48.4570 C   0  0  0  0  0  0  0  0  0  0  0  0
   58.6350   31.9480   48.7000 C   0  0  0  0  0  0  0  0  0  0  0  0
   58.1180   32.2050   49.8240 O   0  0  0  0  0  0  0  0  0  0  0  0
   58.7070   32.9800   47.6910 N   0  0  0  0  0  0  0  0  0  0  0  0
   57.6850   32.9770   46.6310 C   0  0  0  0  0  0  0  0  0  0  0  0
   57.8380   34.1130   45.6610 C   0  0  0  0  0  0  0  0  0  0  0  0
   56.8890   34.4110   44.8910 O   0  0  0  0  0  0  0  0  0  0  0  0
   59.0560   34.8520   45.5970 N   0  0  0  0  0  0  0  0  0  0  0  0
   60.1980   34.4600   46.4010 C   0  0  0  0  0  0  0  0  0  0  0  0
   59.7250   34.0410   47.7870 C   0  0  0  0  0  0  0  0  0  0  0  0
   58.5690   29.7970   47.4640 C   0  0  0  0  0  0  0  0  0  0  0  0
   58.0850   26.4510   46.1930 C   0  0  0  0  0  0  0  0  0  0  0  0
   58.2950   25.6780   47.2700 C   0  0  0  0  0  0  0  0  0  0  0  0
  1  2  1  0
  2  3  1  0
  3  4  1  0
  4  5  2  0
  4  6  1  0
  6  7  1  0
  7  8  1  0
  8  9  2  0
  9 10  1  0
 10 11  2  0
 11 12  1  0
 11 13  1  0
 13 14  1  0
 14 15  2  0
 15 16  1  0
 16 17  2  0
 17 18  1  0
 18 19  1  0
 19 20  1  0
 20 21  1  0
 21 22  1  0
 22 23  1  0
 17 24  1  0
 24 25  1  0
 25 26  2  0
 25 27  1  0
 27 28  1  0
 28 29  1  0
 29 30  2  0
 29 31  1  0
 31 32  1  0
 32 33  1  0
 24 34  2  0
 13 35  1  0
 35 36  2  0
  7  2  2  0
 35  9  1  0
 34 14  1  0
 23 18  1  0
 33 27  1  0
M  CHG  3   3  -1   6  -1  31  -1
M  END
>  <UniqueID>  (1321) 
71

>  <SMILES>  (1321) 
C=c1/c(=C\c2[n-]c(=O)[n-]c2O)cc(C)n1-c1ccc(N2CCOCC2)c(C(=O)N2CC[N-]C(=O)C2)c1

>  <Energy>  (1321) 
152.9730294821469

>  <Genealogy>  (1321) 
C=c1c(=Cc2[n-]c(=O)[n-]c2O)cc(C)n1-c1ccc(N2CCOCC2)c(C(=O)N2CC[N-]C(=O)C2)c1 (protonated)
C=c1/c(=C\c2[n-]c(=O)[n-]c2O)cc(C)n1-c1ccc(N2CCOCC2)c(C(=O)N2CC[N-]C(=O)C2)c1 (cis-trans isomerization)
C=c1/c(=C\c2[n-]c(=O)[n-]c2O)cc(C)n1-c1ccc(N2CCOCC2)c(C(=O)N2CC[N-]C(=O)C2)c1 (3D coordinates assigned)
C=c1/c(=C\c2[n-]c(=O)[n-]c2O)cc(C)n1-c1ccc(N2CCOCC2)c(C(=O)N2CC[N-]C(=O)C2)c1 (nonaromatic ring conformer: 152.9730294821469 kcal/mol)

>  <smiles>  (1321) 
C=c1c(=Cc2[nH]c(=O)[nH]c2O)cc(C)n1-c1ccc(N2CCOCC2)c(C(=O)N2CCNC(=O)C2)c1

>  <score_type>  (1321) 
oracle

>  <origin>  (1321) 
adg

>  <m_score__min__energy>  (1321) 
-14.199999999999999

>  <m_primary>  (1321) 
energy

$$$$
74:0
     RDKit          3D

 27 29  0  0  0  0  0  0  0  0999 V2000
   57.9770   31.5180   45.7190 C   0  0  0  0  0  0  0  0  0  0  0  0
   58.5600   32.3420   46.6290 N   0  0  0  0  0  0  0  0  0  0  0  0
   58.9750   33.5990   46.3040 C   0  0  0  0  0  0  0  0  0  0  0  0
   59.5270   34.3760   47.1910 N   0  0  0  0  0  0  0  0  0  0  0  0
   60.0520   33.9500   48.4580 C   0  0  0  0  0  0  0  0  0  0  0  0
   59.2660   33.8560   49.4370 O   0  0  0  0  0  0  0  0  0  0  0  0
   61.4900   33.6730   48.6630 C   0  0  0  0  0  0  0  0  0  0  0  0
   62.0880   34.0670   49.8210 N   0  0  0  0  0  0  0  0  0  0  0  0
   63.3880   33.8630   50.0450 N   0  0  0  0  0  0  0  0  0  0  0  0
   64.1780   33.2580   49.1210 C   0  0  0  0  0  0  0  0  0  0  0  0
   65.4000   33.0770   49.3610 O   0  0  0  0  0  0  0  0  0  0  0  0
   63.6280   32.8480   47.9090 C   0  0  0  0  0  0  0  0  0  0  0  0
   62.2710   33.0590   47.6740 C   0  0  0  0  0  0  0  0  0  0  0  0
   58.7740   34.0770   45.0040 C   0  0  0  0  0  0  0  0  0  0  0  0
   58.1830   33.2450   44.0510 C   0  0  0  0  0  0  0  0  0  0  0  0
   57.7990   31.9440   44.3990 C   0  0  0  0  0  0  0  0  0  0  0  0
   57.1720   31.0640   43.3990 C   0  0  0  0  0  0  0  0  0  0  0  0
   56.7460   31.5670   42.3260 O   0  0  0  0  0  0  0  0  0  0  0  0
   57.0710   29.6470   43.5880 N   0  0  0  0  0  0  0  0  0  0  0  0
   56.2660   28.9780   44.6070 C   0  0  0  0  0  0  0  0  0  0  0  0
   57.0970   28.0090   45.4090 C   0  0  0  0  0  0  0  0  0  0  0  0
   58.4940   28.1590   45.4640 C   0  0  0  0  0  0  0  0  0  0  0  0
   59.2740   27.2540   46.1890 C   0  0  0  0  0  0  0  0  0  0  0  0
   58.6720   26.1850   46.8540 C   0  0  0  0  0  0  0  0  0  0  0  0
   57.2880   26.0120   46.7870 C   0  0  0  0  0  0  0  0  0  0  0  0
   56.4990   26.9110   46.0620 C   0  0  0  0  0  0  0  0  0  0  0  0
   55.1250   26.7050   45.9910 O   0  0  0  0  0  0  0  0  0  0  0  0
  1  2  1  0
  2  3  1  0
  3  4  2  0
  4  5  1  0
  5  6  2  0
  5  7  1  0
  7  8  2  0
  8  9  1  0
  9 10  1  0
 10 11  2  0
 10 12  1  0
 12 13  2  0
  3 14  1  0
 14 15  2  0
 15 16  1  0
 16 17  1  0
 17 18  2  0
 17 19  1  0
 19 20  1  0
 20 21  1  0
 21 22  2  0
 22 23  1  0
 23 24  2  0
 24 25  1  0
 25 26  2  0
 26 27  1  0
 16  1  2  0
 26 21  1  0
 13  7  1  0
M  CHG  4   2  -1   9  -1  19  -1  27  -1
M  END
>  <UniqueID>  (1322) 
72

>  <SMILES>  (1322) 
O=C([N-]Cc1ccccc1[O-])c1cc/c(=N/C(=O)c2ccc(=O)[n-]n2)[n-]c1

>  <Energy>  (1322) 
54.02960869130803

>  <Genealogy>  (1322) 
O=C([N-]Cc1ccccc1[O-])c1ccc(=NC(=O)c2ccc(=O)[n-]n2)[n-]c1 (protonated)
O=C([N-]Cc1ccccc1[O-])c1cc/c(=N/C(=O)c2ccc(=O)[n-]n2)[n-]c1 (cis-trans isomerization)
O=C([N-]Cc1ccccc1[O-])c1cc/c(=N/C(=O)c2ccc(=O)[n-]n2)[n-]c1 (3D coordinates assigned)
O=C([N-]Cc1ccccc1[O-])c1cc/c(=N/C(=O)c2ccc(=O)[n-]n2)[n-]c1 (optimized conformer: 54.02960869130803 kcal/mol)

>  <smiles>  (1322) 
O=C(NCc1ccccc1O)c1ccc(=NC(=O)c2ccc(=O)[nH]n2)[nH]c1

>  <score_type>  (1322) 
oracle

>  <origin>  (1322) 
adg

>  <m_score__min__energy>  (1322) 
-15.1

>  <m_primary>  (1322) 
energy

$$$$
76:0
     RDKit          3D

 34 37  0  0  0  0  0  0  0  0999 V2000
   60.7790   26.5340   50.1400 C   0  0  0  0  0  0  0  0  0  0  0  0
   60.6780   27.8010   49.3440 C   0  0  0  0  0  0  0  0  0  0  0  0
   60.2500   27.9210   48.0270 C   0  0  0  0  0  0  0  0  0  0  0  0
   59.7940   26.8870   47.1500 N   0  0  0  0  0  0  0  0  0  0  0  0
   58.4220   26.5170   46.9680 C   0  0  0  0  0  0  0  0  0  0  0  0
   57.8030   26.0050   47.9390 O   0  0  0  0  0  0  0  0  0  0  0  0
   57.7630   26.5800   45.6120 C   0  0  0  0  0  0  0  0  0  0  0  0
   57.8600   27.9270   45.0400 N   0  0  0  0  0  0  0  0  0  0  0  0
   56.8650   28.8070   44.8420 C   0  0  0  0  0  0  0  0  0  0  0  0
   55.5430   28.6100   45.2250 O   0  0  0  0  0  0  0  0  0  0  0  0
   57.3720   29.9210   44.2100 C   0  0  0  0  0  0  0  0  0  0  0  0
   56.5990   31.1400   43.8000 C   0  0  0  0  0  0  0  0  0  0  0  0
   57.4980   32.2130   43.2620 C   0  0  0  0  0  0  0  0  0  0  0  0
   58.0000   32.1090   42.1060 O   0  0  0  0  0  0  0  0  0  0  0  0
   57.8460   33.3190   44.1020 N   0  0  0  0  0  0  0  0  0  0  0  0
   58.6440   33.1880   45.3180 C   0  0  0  0  0  0  0  0  0  0  0  0
   57.7920   32.7440   46.5000 C   0  0  0  0  0  0  0  0  0  0  0  0
   58.4850   33.3160   47.7280 C   0  0  0  0  0  0  0  0  0  0  0  0
   59.2810   34.5320   47.2540 C   0  0  0  0  0  0  0  0  0  0  0  0
   59.2260   34.5360   45.7280 C   0  0  0  0  0  0  0  0  0  0  0  0
   58.6950   29.7530   43.9970 N   0  0  0  0  0  0  0  0  0  0  0  0
   58.9490   28.5310   44.5160 C   0  0  0  0  0  0  0  0  0  0  0  0
   60.0960   28.0090   44.5040 O   0  0  0  0  0  0  0  0  0  0  0  0
   60.5220   29.2210   47.6760 C   0  0  0  0  0  0  0  0  0  0  0  0
   60.2990   29.7430   46.5510 O   0  0  0  0  0  0  0  0  0  0  0  0
   61.0450   29.8720   48.7370 N   0  0  0  0  0  0  0  0  0  0  0  0
   61.4500   31.2510   48.7630 C   0  0  0  0  0  0  0  0  0  0  0  0
   62.3790   31.7360   47.8260 C   0  0  0  0  0  0  0  0  0  0  0  0
   62.7650   33.0800   47.8490 C   0  0  0  0  0  0  0  0  0  0  0  0
   62.2290   33.9450   48.8070 C   0  0  0  0  0  0  0  0  0  0  0  0
   61.3120   33.4660   49.7490 C   0  0  0  0  0  0  0  0  0  0  0  0
   60.9270   32.1220   49.7310 C   0  0  0  0  0  0  0  0  0  0  0  0
   61.1580   29.0070   49.7440 N   0  0  0  0  0  0  0  0  0  0  0  0
   61.7390   29.3120   51.0570 C   0  0  0  0  0  0  0  0  0  0  0  0
  1  2  1  0
  2  3  2  0
  3  4  1  0
  4  5  1  0
  5  6  2  0
  5  7  1  0
  7  8  1  0
  8  9  1  0
  9 10  1  0
  9 11  2  0
 11 12  1  0
 12 13  1  0
 13 14  2  0
 13 15  1  0
 15 16  1  0
 16 17  1  0
 17 18  1  0
 18 19  1  0
 19 20  1  0
 11 21  1  0
 21 22  1  0
 22 23  2  0
  3 24  1  0
 24 25  2  0
 24 26  1  0
 26 27  1  0
 27 28  2  0
 28 29  1  0
 29 30  2  0
 30 31  1  0
 31 32  2  0
 26 33  1  0
 33 34  1  0
 33  2  1  0
 22  8  1  0
 32 27  1  0
 20 16  1  0
M  CHG  4   4  -1  10  -1  15  -1  21  -1
M  END
>  <UniqueID>  (1323) 
74

>  <SMILES>  (1323) 
Cc1c([N-]C(=O)Cn2c([O-])c(CC(=O)[N-]C3CCCC3)[n-]c2=O)c(=O)n(-c2ccccc2)n1C

>  <Energy>  (1323) 
137.03654079405112

>  <Genealogy>  (1323) 
Cc1c([N-]C(=O)Cn2c([O-])c(CC(=O)[N-]C3CCCC3)[n-]c2=O)c(=O)n(-c2ccccc2)n1C (protonated)
Cc1c([N-]C(=O)Cn2c([O-])c(CC(=O)[N-]C3CCCC3)[n-]c2=O)c(=O)n(-c2ccccc2)n1C (3D coordinates assigned)
Cc1c([N-]C(=O)Cn2c([O-])c(CC(=O)[N-]C3CCCC3)[n-]c2=O)c(=O)n(-c2ccccc2)n1C (nonaromatic ring conformer: 137.03654079405112 kcal/mol)

>  <smiles>  (1323) 
Cc1c(NC(=O)Cn2c(O)c(CC(=O)NC3CCCC3)[nH]c2=O)c(=O)n(-c2ccccc2)n1C

>  <score_type>  (1323) 
oracle

>  <origin>  (1323) 
adg

>  <m_score__min__energy>  (1323) 
-17.510000000000002

>  <m_primary>  (1323) 
energy

$$$$
80:0
     RDKit          3D

 23 25  0  0  0  0  0  0  0  0999 V2000
   55.9210   29.9470   44.7270 C   0  0  0  0  0  0  0  0  0  0  0  0
   55.6690   28.6340   44.8670 N   0  0  0  0  0  0  0  0  0  0  0  0
   56.7430   28.1700   45.5410 C   0  0  0  0  0  0  0  0  0  0  0  0
   56.8870   26.9310   45.9100 N   0  0  0  0  0  0  0  0  0  0  0  0
   55.8680   25.9210   45.8650 C   0  0  0  0  0  0  0  0  0  0  0  0
   54.6650   26.2730   45.9970 O   0  0  0  0  0  0  0  0  0  0  0  0
   56.1960   24.4820   45.7470 C   0  0  0  0  0  0  0  0  0  0  0  0
   56.6120   23.7900   46.8440 N   0  0  0  0  0  0  0  0  0  0  0  0
   56.9030   22.4650   46.7750 C   0  0  0  0  0  0  0  0  0  0  0  0
   57.2930   21.8530   47.8020 O   0  0  0  0  0  0  0  0  0  0  0  0
   56.7720   21.8010   45.5980 N   0  0  0  0  0  0  0  0  0  0  0  0
   56.3500   22.4430   44.4780 C   0  0  0  0  0  0  0  0  0  0  0  0
   56.2330   21.8090   43.3980 O   0  0  0  0  0  0  0  0  0  0  0  0
   56.0460   23.8050   44.5290 C   0  0  0  0  0  0  0  0  0  0  0  0
   57.6510   29.1160   45.8500 N   0  0  0  0  0  0  0  0  0  0  0  0
   57.1300   30.2430   45.3280 C   0  0  0  0  0  0  0  0  0  0  0  0
   57.7880   31.5710   45.4150 C   0  0  0  0  0  0  0  0  0  0  0  0
   57.4060   32.6000   44.5370 C   0  0  0  0  0  0  0  0  0  0  0  0
   58.0140   33.8570   44.6050 C   0  0  0  0  0  0  0  0  0  0  0  0
   59.0250   34.1040   45.5440 C   0  0  0  0  0  0  0  0  0  0  0  0
   59.6490   35.4650   45.6430 C   0  0  0  0  0  0  0  0  0  0  0  0
   59.3980   33.0880   46.4360 C   0  0  0  0  0  0  0  0  0  0  0  0
   58.7900   31.8320   46.3690 C   0  0  0  0  0  0  0  0  0  0  0  0
  1  2  1  0
  2  3  1  0
  3  4  2  0
  4  5  1  0
  5  6  2  0
  5  7  1  0
  7  8  1  0
  8  9  1  0
  9 10  2  0
  9 11  1  0
 11 12  1  0
 12 13  2  0
 12 14  1  0
  3 15  1  0
 15 16  1  0
 16 17  1  0
 17 18  2  0
 18 19  1  0
 19 20  2  0
 20 21  1  0
 20 22  1  0
 22 23  2  0
 16  1  2  0
 23 17  1  0
 14  7  2  0
M  CHG  4   2  -1   8  -1  11  -1  15  -1
M  END
>  <UniqueID>  (1324) 
77

>  <SMILES>  (1324) 
Cc1ccc(-c2c[n-]/c(=N\C(=O)c3cc(=O)[n-]c(=O)[n-]3)[n-]2)cc1

>  <Energy>  (1324) 
71.0325848989172

>  <Genealogy>  (1324) 
Cc1ccc(-c2c[n-]c(=NC(=O)c3cc(=O)[n-]c(=O)[n-]3)[n-]2)cc1 (protonated)
Cc1ccc(-c2c[n-]/c(=N\C(=O)c3cc(=O)[n-]c(=O)[n-]3)[n-]2)cc1 (cis-trans isomerization)
Cc1ccc(-c2c[n-]/c(=N\C(=O)c3cc(=O)[n-]c(=O)[n-]3)[n-]2)cc1 (3D coordinates assigned)
Cc1ccc(-c2c[n-]/c(=N\C(=O)c3cc(=O)[n-]c(=O)[n-]3)[n-]2)cc1 (optimized conformer: 71.0325848989172 kcal/mol)

>  <smiles>  (1324) 
Cc1ccc(-c2c[nH]c(=NC(=O)c3cc(=O)[nH]c(=O)[nH]3)[nH]2)cc1

>  <score_type>  (1324) 
oracle

>  <origin>  (1324) 
adg

>  <m_score__min__energy>  (1324) 
-14.300000000000001

>  <m_primary>  (1324) 
energy

$$$$
86:0
     RDKit          3D

 34 37  0  0  0  0  0  0  0  0999 V2000
   57.6690   25.5900   47.5160 C   0  0  0  0  0  0  0  0  0  0  0  0
   58.0250   26.2720   46.4140 C   0  0  0  0  0  0  0  0  0  0  0  0
   57.6300   26.0150   45.0900 C   0  0  0  0  0  0  0  0  0  0  0  0
   56.9730   24.9690   44.5510 C   0  0  0  0  0  0  0  0  0  0  0  0
   55.6010   24.5500   44.8960 C   0  0  0  0  0  0  0  0  0  0  0  0
   54.7410   25.3930   45.6200 C   0  0  0  0  0  0  0  0  0  0  0  0
   55.1480   26.6670   45.9990 O   0  0  0  0  0  0  0  0  0  0  0  0
   53.5000   24.9620   45.9630 N   0  0  0  0  0  0  0  0  0  0  0  0
   53.0760   23.7150   45.6340 C   0  0  0  0  0  0  0  0  0  0  0  0
   51.9220   23.3370   45.9630 O   0  0  0  0  0  0  0  0  0  0  0  0
   53.8980   22.8730   44.9570 N   0  0  0  0  0  0  0  0  0  0  0  0
   55.1480   23.2570   44.5890 C   0  0  0  0  0  0  0  0  0  0  0  0
   55.8870   22.4470   43.9680 O   0  0  0  0  0  0  0  0  0  0  0  0
   58.0770   27.0890   44.3380 C   0  0  0  0  0  0  0  0  0  0  0  0
   58.7680   27.9190   45.1940 C   0  0  0  0  0  0  0  0  0  0  0  0
   59.4390   29.1940   44.7830 C   0  0  0  0  0  0  0  0  0  0  0  0
   58.7370   27.4280   46.4530 N   0  0  0  0  0  0  0  0  0  0  0  0
   59.3490   28.0330   47.6070 C   0  0  0  0  0  0  0  0  0  0  0  0
   60.1540   27.2690   48.4630 C   0  0  0  0  0  0  0  0  0  0  0  0
   60.7490   27.8600   49.5790 C   0  0  0  0  0  0  0  0  0  0  0  0
   60.5470   29.2170   49.8470 C   0  0  0  0  0  0  0  0  0  0  0  0
   59.7410   29.9990   49.0000 C   0  0  0  0  0  0  0  0  0  0  0  0
   59.5350   31.4400   49.2750 C   0  0  0  0  0  0  0  0  0  0  0  0
   60.3220   32.0560   50.0460 O   0  0  0  0  0  0  0  0  0  0  0  0
   58.4490   32.1400   48.6610 N   0  0  0  0  0  0  0  0  0  0  0  0
   58.6230   33.3800   47.9180 C   0  0  0  0  0  0  0  0  0  0  0  0
   58.4350   33.1130   46.4530 C   0  0  0  0  0  0  0  0  0  0  0  0
   57.7670   31.9520   46.0310 C   0  0  0  0  0  0  0  0  0  0  0  0
   57.5750   31.7090   44.6680 C   0  0  0  0  0  0  0  0  0  0  0  0
   58.0390   32.6240   43.7180 C   0  0  0  0  0  0  0  0  0  0  0  0
   57.7990   32.3130   42.0090 Cl  0  0  0  0  0  0  0  0  0  0  0  0
   58.6960   33.7860   44.1330 C   0  0  0  0  0  0  0  0  0  0  0  0
   58.8870   34.0350   45.4940 C   0  0  0  0  0  0  0  0  0  0  0  0
   59.1410   29.3920   47.8820 C   0  0  0  0  0  0  0  0  0  0  0  0
  1  2  2  0
  2  3  1  0
  3  4  2  3
  4  5  1  0
  5  6  2  0
  6  7  1  0
  6  8  1  0
  8  9  1  0
  9 10  2  0
  9 11  1  0
 11 12  1  0
 12 13  2  0
  3 14  1  0
 14 15  2  0
 15 16  1  0
 15 17  1  0
 17 18  1  0
 18 19  2  0
 19 20  1  0
 20 21  2  0
 21 22  1  0
 22 23  1  0
 23 24  2  0
 23 25  1  0
 25 26  1  0
 26 27  1  0
 27 28  2  0
 28 29  1  0
 29 30  2  0
 30 31  1  0
 30 32  1  0
 32 33  2  0
 22 34  2  0
 17  2  1  0
 34 18  1  0
 12  5  1  0
 33 27  1  0
M  CHG  4   7  -1   8  -1  11  -1  25  -1
M  END
>  <UniqueID>  (1325) 
83

>  <SMILES>  (1325) 
C=c1c(=Cc2c([O-])[n-]c(=O)[n-]c2=O)cc(C)n1-c1cccc(C(=O)[N-]Cc2ccc(Cl)cc2)c1

>  <Energy>  (1325) 
102.25370651329132

>  <Genealogy>  (1325) 
C=c1c(=Cc2c([O-])[n-]c(=O)[n-]c2=O)cc(C)n1-c1cccc(C(=O)[N-]Cc2ccc(Cl)cc2)c1 (protonated)
C=c1c(=Cc2c([O-])[n-]c(=O)[n-]c2=O)cc(C)n1-c1cccc(C(=O)[N-]Cc2ccc(Cl)cc2)c1 (3D coordinates assigned)
C=c1c(=Cc2c([O-])[n-]c(=O)[n-]c2=O)cc(C)n1-c1cccc(C(=O)[N-]Cc2ccc(Cl)cc2)c1 (optimized conformer: 102.25370651329132 kcal/mol)

>  <smiles>  (1325) 
C=c1c(=Cc2c(O)[nH]c(=O)[nH]c2=O)cc(C)n1-c1cccc(C(=O)NCc2ccc(Cl)cc2)c1

>  <score_type>  (1325) 
oracle

>  <origin>  (1325) 
adg

>  <m_score__min__energy>  (1325) 
-17.600000000000001

>  <m_primary>  (1325) 
energy

$$$$
19:0
     RDKit          3D

 29 31  0  0  0  0  0  0  0  0999 V2000
   55.1360   26.7330   46.0170 O   0  0  0  0  0  0  0  0  0  0  0  0
   55.8200   25.6800   45.9350 C   0  0  0  0  0  0  0  0  0  0  0  0
   55.3290   24.4990   46.4780 O   0  0  0  0  0  0  0  0  0  0  0  0
   57.1470   25.6960   45.2420 C   0  0  0  0  0  0  0  0  0  0  0  0
   58.2210   26.2420   46.1630 C   0  0  0  0  0  0  0  0  0  0  0  0
   59.1000   27.2900   45.7810 C   0  0  0  0  0  0  0  0  0  0  0  0
   59.0920   27.9270   44.4130 C   0  0  0  0  0  0  0  0  0  0  0  0
   58.0900   29.0540   44.3360 C   0  0  0  0  0  0  0  0  0  0  0  0
   56.7170   28.8080   44.5070 C   0  0  0  0  0  0  0  0  0  0  0  0
   55.7990   29.8610   44.4570 C   0  0  0  0  0  0  0  0  0  0  0  0
   56.2410   31.1690   44.2530 C   0  0  0  0  0  0  0  0  0  0  0  0
   57.6100   31.4370   44.1040 C   0  0  0  0  0  0  0  0  0  0  0  0
   58.0810   32.8390   43.8350 C   0  0  0  0  0  0  0  0  0  0  0  0
   58.3360   33.7120   45.3710 S   0  0  0  0  0  0  0  0  0  0  0  0
   59.1070   34.9760   45.1080 O   0  0  0  0  0  0  0  0  0  0  0  0
   57.0060   34.0780   45.9670 O   0  0  0  0  0  0  0  0  0  0  0  0
   59.2240   32.6910   46.4980 C   0  0  0  0  0  0  0  0  0  0  0  0
   58.5620   31.6840   47.2150 C   0  0  0  0  0  0  0  0  0  0  0  0
   59.2650   30.9050   48.1400 C   0  0  0  0  0  0  0  0  0  0  0  0
   60.6250   31.1340   48.3590 C   0  0  0  0  0  0  0  0  0  0  0  0
   61.2860   32.1450   47.6550 C   0  0  0  0  0  0  0  0  0  0  0  0
   60.5880   32.9240   46.7270 C   0  0  0  0  0  0  0  0  0  0  0  0
   58.5290   30.3750   44.1390 C   0  0  0  0  0  0  0  0  0  0  0  0
   60.0170   27.7470   46.6770 N   0  0  0  0  0  0  0  0  0  0  0  0
   60.1050   27.2430   47.9310 C   0  0  0  0  0  0  0  0  0  0  0  0
   60.9640   27.7010   48.7290 O   0  0  0  0  0  0  0  0  0  0  0  0
   59.2670   26.2520   48.3270 N   0  0  0  0  0  0  0  0  0  0  0  0
   58.3300   25.7490   47.4810 C   0  0  0  0  0  0  0  0  0  0  0  0
   57.5580   24.8390   47.8890 O   0  0  0  0  0  0  0  0  0  0  0  0
  1  2  2  0
  2  3  1  0
  2  4  1  0
  4  5  1  0
  5  6  2  0
  6  7  1  0
  7  8  1  0
  8  9  2  0
  9 10  1  0
 10 11  2  0
 11 12  1  0
 12 13  1  0
 13 14  1  0
 14 15  2  0
 14 16  2  0
 14 17  1  0
 17 18  2  0
 18 19  1  0
 19 20  2  0
 20 21  1  0
 21 22  2  0
 12 23  2  0
  6 24  1  0
 24 25  1  0
 25 26  2  0
 25 27  1  0
 27 28  1  0
 28 29  2  0
 28  5  1  0
 23  8  1  0
 22 17  1  0
M  CHG  2   3  -1  24  -1
M  END
>  <UniqueID>  (1326) 
20

>  <SMILES>  (1326) 
O=C([O-])Cc1c(Cc2cccc(CS(=O)(=O)c3ccccc3)c2)[n-]c(=O)[nH]c1=O

>  <Energy>  (1326) 
43.53371379123481

>  <Genealogy>  (1326) 
O=C([O-])Cc1c(Cc2cccc(CS(=O)(=O)c3ccccc3)c2)[n-]c(=O)[nH]c1=O (protonated)
O=C([O-])Cc1c(Cc2cccc(CS(=O)(=O)c3ccccc3)c2)[n-]c(=O)[nH]c1=O (3D coordinates assigned)
O=C([O-])Cc1c(Cc2cccc(CS(=O)(=O)c3ccccc3)c2)[n-]c(=O)[nH]c1=O (optimized conformer: 43.53371379123481 kcal/mol)

>  <smiles>  (1326) 
O=C(O)Cc1c(Cc2cccc(CS(=O)(=O)c3ccccc3)c2)[nH]c(=O)[nH]c1=O

>  <score_type>  (1326) 
oracle

>  <origin>  (1326) 
adg

>  <m_score__min__energy>  (1326) 
-14.32

>  <m_primary>  (1326) 
energy

$$$$
30:0
     RDKit          3D

 25 27  0  0  0  0  0  0  0  0999 V2000
   57.4750   25.5750   43.4430 C   0  0  0  0  0  0  0  0  0  0  0  0
   57.7310   25.7190   44.7540 C   0  0  0  0  0  0  0  0  0  0  0  0
   57.1070   25.0240   45.8050 C   0  0  0  0  0  0  0  0  0  0  0  0
   56.3040   23.9420   45.7990 C   0  0  0  0  0  0  0  0  0  0  0  0
   54.8620   23.9450   45.5020 C   0  0  0  0  0  0  0  0  0  0  0  0
   54.1270   22.8450   45.2540 N   0  0  0  0  0  0  0  0  0  0  0  0
   52.8650   23.3230   45.1850 C   0  0  0  0  0  0  0  0  0  0  0  0
   51.8740   22.5850   44.9460 O   0  0  0  0  0  0  0  0  0  0  0  0
   52.7490   24.6500   45.4020 N   0  0  0  0  0  0  0  0  0  0  0  0
   54.0200   25.0250   45.6160 C   0  0  0  0  0  0  0  0  0  0  0  0
   54.4030   26.3270   45.9150 O   0  0  0  0  0  0  0  0  0  0  0  0
   57.4880   25.6610   46.9700 C   0  0  0  0  0  0  0  0  0  0  0  0
   58.3790   26.6510   46.6140 C   0  0  0  0  0  0  0  0  0  0  0  0
   59.0180   27.5960   47.5880 C   0  0  0  0  0  0  0  0  0  0  0  0
   58.5350   26.6910   45.2700 N   0  0  0  0  0  0  0  0  0  0  0  0
   59.3620   27.6720   44.5440 C   0  0  0  0  0  0  0  0  0  0  0  0
   58.8830   29.0770   44.8050 C   0  0  0  0  0  0  0  0  0  0  0  0
   59.6340   29.9460   45.6130 C   0  0  0  0  0  0  0  0  0  0  0  0
   59.1870   31.2460   45.8620 C   0  0  0  0  0  0  0  0  0  0  0  0
   57.9860   31.7030   45.3070 C   0  0  0  0  0  0  0  0  0  0  0  0
   57.5640   33.0470   45.5900 N   0  0  0  0  0  0  0  0  0  0  0  0
   58.3510   33.9730   45.9710 C   0  0  0  0  0  0  0  0  0  0  0  0
   59.3470   35.1450   46.4530 S   0  0  0  0  0  0  0  0  0  0  0  0
   57.2330   30.8360   44.4910 C   0  0  0  0  0  0  0  0  0  0  0  0
   57.6800   29.5350   44.2440 C   0  0  0  0  0  0  0  0  0  0  0  0
  1  2  2  0
  2  3  1  0
  3  4  2  3
  4  5  1  0
  5  6  1  0
  6  7  1  0
  7  8  2  0
  7  9  1  0
  9 10  1  0
 10 11  1  0
  3 12  1  0
 12 13  2  0
 13 14  1  0
 13 15  1  0
 15 16  1  0
 16 17  1  0
 17 18  2  0
 18 19  1  0
 19 20  2  0
 20 21  1  0
 21 22  2  0
 22 23  2  0
 20 24  1  0
 24 25  2  0
 15  2  1  0
 25 17  1  0
 10  5  2  0
M  CHG  3   6  -1   9  -1  11  -1
M  END
>  <UniqueID>  (1327) 
30

>  <SMILES>  (1327) 
C=c1c(=Cc2[n-]c(=O)[n-]c2[O-])cc(C)n1Cc1ccc(N=C=S)cc1

>  <Energy>  (1327) 
109.58515886831042

>  <Genealogy>  (1327) 
C=c1c(=Cc2[n-]c(=O)[n-]c2[O-])cc(C)n1Cc1ccc(N=C=S)cc1 (protonated)
C=c1c(=Cc2[n-]c(=O)[n-]c2[O-])cc(C)n1Cc1ccc(N=C=S)cc1 (3D coordinates assigned)
C=c1c(=Cc2[n-]c(=O)[n-]c2[O-])cc(C)n1Cc1ccc(N=C=S)cc1 (optimized conformer: 109.58515886831042 kcal/mol)

>  <smiles>  (1327) 
C=c1c(=Cc2[nH]c(=O)[nH]c2O)cc(C)n1Cc1ccc(N=C=S)cc1

>  <score_type>  (1327) 
oracle

>  <origin>  (1327) 
adg

>  <m_score__min__energy>  (1327) 
-15.73

>  <m_primary>  (1327) 
energy

$$$$
62:0
     RDKit          3D

 29 32  0  0  0  0  0  0  0  0999 V2000
   57.7700   31.6850   46.6320 O   0  0  0  0  0  0  0  0  0  0  0  0
   57.5580   32.4580   45.6600 C   0  0  0  0  0  0  0  0  0  0  0  0
   58.3300   33.7440   45.5710 C   0  0  0  0  0  0  0  0  0  0  0  0
   59.3960   33.7720   46.6200 C   0  0  0  0  0  0  0  0  0  0  0  0
   59.0660   34.0030   47.9200 N   0  0  0  0  0  0  0  0  0  0  0  0
   60.0070   33.9960   48.9000 C   0  0  0  0  0  0  0  0  0  0  0  0
   59.6580   34.2220   50.0910 O   0  0  0  0  0  0  0  0  0  0  0  0
   61.3490   33.7340   48.5770 C   0  0  0  0  0  0  0  0  0  0  0  0
   62.3680   33.7050   49.5460 C   0  0  0  0  0  0  0  0  0  0  0  0
   63.6970   33.4370   49.1700 C   0  0  0  0  0  0  0  0  0  0  0  0
   64.7440   33.3980   50.1570 N   0  0  0  0  0  0  0  0  0  0  0  0
   65.7690   32.3530   50.1110 C   0  0  0  0  0  0  0  0  0  0  0  0
   67.0690   32.8820   50.7260 C   0  0  0  0  0  0  0  0  0  0  0  0
   66.8350   33.4190   52.0150 O   0  0  0  0  0  0  0  0  0  0  0  0
   65.9940   34.5540   51.9170 C   0  0  0  0  0  0  0  0  0  0  0  0
   64.6060   34.1590   51.4020 C   0  0  0  0  0  0  0  0  0  0  0  0
   63.9950   33.1920   47.8200 C   0  0  0  0  0  0  0  0  0  0  0  0
   62.9860   33.2180   46.8540 C   0  0  0  0  0  0  0  0  0  0  0  0
   61.6670   33.4890   47.2250 C   0  0  0  0  0  0  0  0  0  0  0  0
   60.6870   33.5110   46.2850 N   0  0  0  0  0  0  0  0  0  0  0  0
   56.6350   32.0490   44.6440 N   0  0  0  0  0  0  0  0  0  0  0  0
   56.8680   30.9660   43.6960 C   0  0  0  0  0  0  0  0  0  0  0  0
   57.4020   29.7690   44.4300 C   0  0  0  0  0  0  0  0  0  0  0  0
   58.7890   29.6130   44.5990 C   0  0  0  0  0  0  0  0  0  0  0  0
   59.2960   28.5180   45.3060 C   0  0  0  0  0  0  0  0  0  0  0  0
   58.4240   27.5780   45.8610 C   0  0  0  0  0  0  0  0  0  0  0  0
   57.0430   27.7320   45.7140 C   0  0  0  0  0  0  0  0  0  0  0  0
   56.5290   28.8250   45.0070 C   0  0  0  0  0  0  0  0  0  0  0  0
   55.1500   28.9700   44.8850 O   0  0  0  0  0  0  0  0  0  0  0  0
  1  2  2  0
  2  3  1  0
  3  4  1  0
  4  5  2  0
  5  6  1  0
  6  7  2  0
  6  8  1  0
  8  9  2  0
  9 10  1  0
 10 11  1  0
 11 12  1  0
 12 13  1  0
 13 14  1  0
 14 15  1  0
 15 16  1  0
 10 17  2  0
 17 18  1  0
 18 19  2  0
 19 20  1  0
  2 21  1  0
 21 22  1  0
 22 23  1  0
 23 24  2  0
 24 25  1  0
 25 26  2  0
 26 27  1  0
 27 28  2  0
 28 29  1  0
 20  4  1  0
 28 23  1  0
 19  8  1  0
 16 11  1  0
M  CHG  3  20  -1  21  -1  29  -1
M  END
>  <UniqueID>  (1328) 
62

>  <SMILES>  (1328) 
O=C(Cc1nc(=O)c2cc(N3CCOCC3)ccc2[n-]1)[N-]Cc1ccccc1[O-]

>  <Energy>  (1328) 
57.39601933874816

>  <Genealogy>  (1328) 
O=C(Cc1nc(=O)c2cc(N3CCOCC3)ccc2[n-]1)[N-]Cc1ccccc1[O-] (protonated)
O=C(Cc1nc(=O)c2cc(N3CCOCC3)ccc2[n-]1)[N-]Cc1ccccc1[O-] (3D coordinates assigned)
O=C(Cc1nc(=O)c2cc(N3CCOCC3)ccc2[n-]1)[N-]Cc1ccccc1[O-] (nonaromatic ring conformer: 57.39601933874816 kcal/mol)

>  <smiles>  (1328) 
O=C(Cc1nc(=O)c2cc(N3CCOCC3)ccc2[nH]1)NCc1ccccc1O

>  <score_type>  (1328) 
oracle

>  <origin>  (1328) 
adg

>  <m_score__min__energy>  (1328) 
-15.119999999999999

>  <m_primary>  (1328) 
energy

$$$$
66:0
     RDKit          3D

 27 29  0  0  0  0  0  0  0  0999 V2000
   57.8240   21.4210   45.0220 N   0  0  0  0  0  0  0  0  0  0  0  0
   56.8390   22.3110   44.4890 C   0  0  0  0  0  0  0  0  0  0  0  0
   55.9660   21.8510   43.7030 O   0  0  0  0  0  0  0  0  0  0  0  0
   56.8130   23.7490   44.8550 C   0  0  0  0  0  0  0  0  0  0  0  0
   58.0020   24.4960   44.8370 C   0  0  0  0  0  0  0  0  0  0  0  0
   57.9970   25.8490   45.1900 C   0  0  0  0  0  0  0  0  0  0  0  0
   56.8030   26.4760   45.5860 C   0  0  0  0  0  0  0  0  0  0  0  0
   56.7670   27.8540   45.9890 N   0  0  0  0  0  0  0  0  0  0  0  0
   56.6860   29.2050   44.9040 S   0  0  0  0  0  0  0  0  0  0  0  0
   55.2940   29.7730   44.9270 O   0  0  0  0  0  0  0  0  0  0  0  0
   57.0040   28.7420   43.5100 O   0  0  0  0  0  0  0  0  0  0  0  0
   57.8170   30.4470   45.4300 C   0  0  0  0  0  0  0  0  0  0  0  0
   57.6230   31.7730   45.0250 C   0  0  0  0  0  0  0  0  0  0  0  0
   58.4660   32.7840   45.4950 C   0  0  0  0  0  0  0  0  0  0  0  0
   59.5160   32.4750   46.3730 C   0  0  0  0  0  0  0  0  0  0  0  0
   60.3730   33.5810   46.9360 C   0  0  0  0  0  0  0  0  0  0  0  0
   61.5820   33.0310   47.5860 N   0  0  0  0  0  0  0  0  0  0  0  0
   61.5700   33.2660   49.0520 C   0  0  0  0  0  0  0  0  0  0  0  0
   62.6420   34.2780   49.4940 C   0  0  0  0  0  0  0  0  0  0  0  0
   63.9530   33.8810   49.1300 O   0  0  0  0  0  0  0  0  0  0  0  0
   64.0360   33.2810   47.8430 C   0  0  0  0  0  0  0  0  0  0  0  0
   62.8170   33.5270   46.9400 C   0  0  0  0  0  0  0  0  0  0  0  0
   59.7180   31.1430   46.7660 C   0  0  0  0  0  0  0  0  0  0  0  0
   58.8740   30.1340   46.2940 C   0  0  0  0  0  0  0  0  0  0  0  0
   55.6160   25.7340   45.6060 C   0  0  0  0  0  0  0  0  0  0  0  0
   54.4230   26.3330   45.9960 O   0  0  0  0  0  0  0  0  0  0  0  0
   55.6190   24.3810   45.2450 C   0  0  0  0  0  0  0  0  0  0  0  0
  1  2  1  0
  2  3  2  0
  2  4  1  0
  4  5  2  0
  5  6  1  0
  6  7  2  0
  7  8  1  0
  8  9  1  0
  9 10  2  0
  9 11  2  0
  9 12  1  0
 12 13  2  0
 13 14  1  0
 14 15  2  0
 15 16  1  0
 16 17  1  0
 17 18  1  0
 18 19  1  0
 19 20  1  0
 20 21  1  0
 21 22  1  0
 15 23  1  0
 23 24  2  0
  7 25  1  0
 25 26  1  0
 25 27  2  0
 27  4  1  0
 24 12  1  0
 22 17  1  0
M  CHG  2   8  -1  26  -1
M  END
>  <UniqueID>  (1329) 
65

>  <SMILES>  (1329) 
NC(=O)c1ccc([N-]S(=O)(=O)c2ccc(CN3CCOCC3)cc2)c([O-])c1

>  <Energy>  (1329) 
65.95981274778666

>  <Genealogy>  (1329) 
NC(=O)c1ccc([N-]S(=O)(=O)c2ccc(CN3CCOCC3)cc2)c([O-])c1 (protonated)
NC(=O)c1ccc([N-]S(=O)(=O)c2ccc(CN3CCOCC3)cc2)c([O-])c1 (3D coordinates assigned)
NC(=O)c1ccc([N-]S(=O)(=O)c2ccc(CN3CCOCC3)cc2)c([O-])c1 (nonaromatic ring conformer: 65.95981274778666 kcal/mol)

>  <smiles>  (1329) 
NC(=O)c1ccc(NS(=O)(=O)c2ccc(CN3CCOCC3)cc2)c(O)c1

>  <score_type>  (1329) 
oracle

>  <origin>  (1329) 
adg

>  <m_score__min__energy>  (1329) 
-14.75

>  <m_primary>  (1329) 
energy

$$$$
67:0
     RDKit          3D

 31 34  0  0  0  0  0  0  0  0999 V2000
   59.3390   27.7360   46.7420 C   0  0  0  0  0  0  0  0  0  0  0  0
   58.6540   28.3470   45.7620 C   0  0  0  0  0  0  0  0  0  0  0  0
   57.9250   27.7390   44.7260 C   0  0  0  0  0  0  0  0  0  0  0  0
   57.5710   26.4540   44.5270 C   0  0  0  0  0  0  0  0  0  0  0  0
   57.0300   25.5440   45.5490 C   0  0  0  0  0  0  0  0  0  0  0  0
   57.7040   24.5110   46.0880 N   0  0  0  0  0  0  0  0  0  0  0  0
   56.8750   24.0730   47.0610 C   0  0  0  0  0  0  0  0  0  0  0  0
   57.1530   23.0890   47.7940 O   0  0  0  0  0  0  0  0  0  0  0  0
   55.7340   24.7810   47.1950 N   0  0  0  0  0  0  0  0  0  0  0  0
   55.8550   25.7160   46.2400 C   0  0  0  0  0  0  0  0  0  0  0  0
   54.9150   26.7120   46.0070 O   0  0  0  0  0  0  0  0  0  0  0  0
   57.5590   28.7570   43.8610 C   0  0  0  0  0  0  0  0  0  0  0  0
   58.0150   29.9360   44.4120 C   0  0  0  0  0  0  0  0  0  0  0  0
   57.8030   31.2950   43.8190 C   0  0  0  0  0  0  0  0  0  0  0  0
   58.6680   29.6920   45.5690 N   0  0  0  0  0  0  0  0  0  0  0  0
   59.3240   30.6850   46.3760 C   0  0  0  0  0  0  0  0  0  0  0  0
   60.7230   30.7730   46.3920 C   0  0  0  0  0  0  0  0  0  0  0  0
   61.3580   31.7550   47.1580 C   0  0  0  0  0  0  0  0  0  0  0  0
   60.6030   32.6740   47.9030 C   0  0  0  0  0  0  0  0  0  0  0  0
   61.2680   33.7160   48.7190 C   0  0  0  0  0  0  0  0  0  0  0  0
   60.8080   34.8900   48.7020 O   0  0  0  0  0  0  0  0  0  0  0  0
   62.4240   33.4210   49.5280 N   0  0  0  0  0  0  0  0  0  0  0  0
   62.6730   34.2200   50.7360 C   0  0  0  0  0  0  0  0  0  0  0  0
   63.6640   33.5090   51.6660 C   0  0  0  0  0  0  0  0  0  0  0  0
   65.0010   33.1570   50.9600 C   0  0  0  0  0  0  0  0  0  0  0  0
   66.0910   34.2070   51.2460 C   0  0  0  0  0  0  0  0  0  0  0  0
   65.5700   35.2560   52.0220 O   0  0  0  0  0  0  0  0  0  0  0  0
   64.8380   32.9590   49.4310 C   0  0  0  0  0  0  0  0  0  0  0  0
   63.4390   32.4610   49.0640 C   0  0  0  0  0  0  0  0  0  0  0  0
   59.2010   32.5750   47.8940 C   0  0  0  0  0  0  0  0  0  0  0  0
   58.5670   31.5910   47.1300 C   0  0  0  0  0  0  0  0  0  0  0  0
  1  2  2  0
  2  3  1  0
  3  4  2  3
  4  5  1  0
  5  6  1  0
  6  7  1  0
  7  8  2  0
  7  9  1  0
  9 10  1  0
 10 11  1  0
  3 12  1  0
 12 13  2  0
 13 14  1  0
 13 15  1  0
 15 16  1  0
 16 17  2  0
 17 18  1  0
 18 19  2  0
 19 20  1  0
 20 21  2  0
 20 22  1  0
 22 23  1  0
 23 24  1  0
 24 25  1  0
 25 26  1  0
 26 27  1  0
 25 28  1  0
 28 29  1  0
 19 30  1  0
 30 31  2  0
 15  2  1  0
 31 16  1  0
 10  5  2  0
 29 22  1  0
M  CHG  3   6  -1   9  -1  11  -1
M  END
>  <UniqueID>  (1330) 
66

>  <SMILES>  (1330) 
C=c1c(=Cc2[n-]c(=O)[n-]c2[O-])cc(C)n1-c1ccc(C(=O)N2CCC(CO)CC2)cc1

>  <Energy>  (1330) 
137.95725154109542

>  <Genealogy>  (1330) 
C=c1c(=Cc2[n-]c(=O)[n-]c2[O-])cc(C)n1-c1ccc(C(=O)N2CCC(CO)CC2)cc1 (protonated)
C=c1c(=Cc2[n-]c(=O)[n-]c2[O-])cc(C)n1-c1ccc(C(=O)N2CCC(CO)CC2)cc1 (3D coordinates assigned)
C=c1c(=Cc2[n-]c(=O)[n-]c2[O-])cc(C)n1-c1ccc(C(=O)N2CCC(CO)CC2)cc1 (nonaromatic ring conformer: 137.95725154109542 kcal/mol)

>  <smiles>  (1330) 
C=c1c(=Cc2[nH]c(=O)[nH]c2O)cc(C)n1-c1ccc(C(=O)N2CCC(CO)CC2)cc1

>  <score_type>  (1330) 
oracle

>  <origin>  (1330) 
adg

>  <m_score__min__energy>  (1330) 
-15.5

>  <m_primary>  (1330) 
energy

$$$$
70:0
     RDKit          3D

 27 29  0  0  0  0  0  0  0  0999 V2000
   65.3230   31.6230   50.7000 C   0  0  0  0  0  0  0  0  0  0  0  0
   64.5230   32.5910   49.8800 C   0  0  0  0  0  0  0  0  0  0  0  0
   65.1440   33.3930   49.1300 O   0  0  0  0  0  0  0  0  0  0  0  0
   63.0780   32.6210   49.9210 N   0  0  0  0  0  0  0  0  0  0  0  0
   62.3050   31.6110   50.6670 C   0  0  0  0  0  0  0  0  0  0  0  0
   61.0340   31.1760   49.9060 C   0  0  0  0  0  0  0  0  0  0  0  0
   60.4320   32.2800   49.0060 C   0  0  0  0  0  0  0  0  0  0  0  0
   58.9220   32.1630   48.9550 C   0  0  0  0  0  0  0  0  0  0  0  0
   58.3590   31.1880   49.5200 O   0  0  0  0  0  0  0  0  0  0  0  0
   58.1170   33.0600   48.1760 N   0  0  0  0  0  0  0  0  0  0  0  0
   58.4950   33.6390   46.9230 C   0  0  0  0  0  0  0  0  0  0  0  0
   59.1700   34.8620   46.8480 C   0  0  0  0  0  0  0  0  0  0  0  0
   59.4150   35.2810   45.5460 C   0  0  0  0  0  0  0  0  0  0  0  0
   58.8110   34.1160   44.4940 S   0  0  0  0  0  0  0  0  0  0  0  0
   58.2370   33.0660   45.6760 C   0  0  0  0  0  0  0  0  0  0  0  0
   57.6280   31.7570   45.4060 C   0  0  0  0  0  0  0  0  0  0  0  0
   57.9970   30.6170   46.0180 N   0  0  0  0  0  0  0  0  0  0  0  0
   57.1690   29.7260   45.4360 C   0  0  0  0  0  0  0  0  0  0  0  0
   57.2160   28.2560   45.7000 C   0  0  0  0  0  0  0  0  0  0  0  0
   55.8750   27.6900   45.6190 N   0  0  0  0  0  0  0  0  0  0  0  0
   55.5550   26.3500   46.0060 C   0  0  0  0  0  0  0  0  0  0  0  0
   54.2120   25.8760   45.9440 N   0  0  0  0  0  0  0  0  0  0  0  0
   56.4710   25.5840   46.4020 O   0  0  0  0  0  0  0  0  0  0  0  0
   56.3530   30.2910   44.5260 N   0  0  0  0  0  0  0  0  0  0  0  0
   56.6650   31.5520   44.5410 O   0  0  0  0  0  0  0  0  0  0  0  0
   60.8700   33.6790   49.4640 C   0  0  0  0  0  0  0  0  0  0  0  0
   62.3930   33.7950   49.3540 C   0  0  0  0  0  0  0  0  0  0  0  0
  1  2  1  0
  2  3  2  0
  2  4  1  0
  4  5  1  0
  5  6  1  0
  6  7  1  0
  7  8  1  0
  8  9  2  0
  8 10  1  0
 10 11  1  0
 11 12  1  0
 12 13  2  0
 13 14  1  0
 14 15  1  0
 15 16  1  0
 16 17  2  0
 17 18  1  0
 18 19  1  0
 19 20  1  0
 20 21  1  0
 21 22  1  0
 21 23  2  0
 18 24  2  0
 24 25  1  0
  7 26  1  0
 26 27  1  0
 27  4  1  0
 15 11  2  0
 25 16  1  0
M  CHG  3  10  -1  20  -1  22  -1
M  END
>  <UniqueID>  (1331) 
69

>  <SMILES>  (1331) 
CC(=O)N1CCC(C(=O)[N-]c2ccsc2-c2nc(C[N-]C([NH-])=O)no2)CC1

>  <Energy>  (1331) 
105.55936282806695

>  <Genealogy>  (1331) 
CC(=O)N1CCC(C(=O)[N-]c2ccsc2-c2nc(C[N-]C([NH-])=O)no2)CC1 (protonated)
CC(=O)N1CCC(C(=O)[N-]c2ccsc2-c2nc(C[N-]C([NH-])=O)no2)CC1 (3D coordinates assigned)
CC(=O)N1CCC(C(=O)[N-]c2ccsc2-c2nc(C[N-]C([NH-])=O)no2)CC1 (nonaromatic ring conformer: 105.55936282806695 kcal/mol)

>  <smiles>  (1331) 
CC(=O)N1CCC(C(=O)Nc2ccsc2-c2nc(CNC(N)=O)no2)CC1

>  <score_type>  (1331) 
oracle

>  <origin>  (1331) 
adg

>  <m_score__min__energy>  (1331) 
-14.67

>  <m_primary>  (1331) 
energy

$$$$
80:0
     RDKit          3D

 35 39  0  0  0  0  0  0  0  0999 V2000
   54.4730   30.8580   51.2740 C   0  0  0  0  0  0  0  0  0  0  0  0
   54.2860   30.5090   52.5580 C   0  0  0  0  0  0  0  0  0  0  0  0
   53.0590   30.3460   53.2240 C   0  0  0  0  0  0  0  0  0  0  0  0
   51.8010   30.6520   52.8490 C   0  0  0  0  0  0  0  0  0  0  0  0
   51.3760   31.0350   51.4900 C   0  0  0  0  0  0  0  0  0  0  0  0
   51.4090   30.2140   50.4220 N   0  0  0  0  0  0  0  0  0  0  0  0
   51.1070   31.0330   49.3920 C   0  0  0  0  0  0  0  0  0  0  0  0
   51.0280   30.6220   48.2050 O   0  0  0  0  0  0  0  0  0  0  0  0
   50.9120   32.3270   49.7330 N   0  0  0  0  0  0  0  0  0  0  0  0
   51.1010   32.3120   51.0610 C   0  0  0  0  0  0  0  0  0  0  0  0
   51.0320   33.4450   51.8660 O   0  0  0  0  0  0  0  0  0  0  0  0
   53.3610   29.7990   54.4610 C   0  0  0  0  0  0  0  0  0  0  0  0
   54.7360   29.7070   54.5330 C   0  0  0  0  0  0  0  0  0  0  0  0
   55.5020   29.1850   55.7110 C   0  0  0  0  0  0  0  0  0  0  0  0
   55.2970   30.1380   53.3850 N   0  0  0  0  0  0  0  0  0  0  0  0
   56.7020   30.1130   53.0860 C   0  0  0  0  0  0  0  0  0  0  0  0
   57.3040   31.1980   52.4330 C   0  0  0  0  0  0  0  0  0  0  0  0
   58.6680   31.1710   52.1340 C   0  0  0  0  0  0  0  0  0  0  0  0
   59.4540   30.0570   52.4830 C   0  0  0  0  0  0  0  0  0  0  0  0
   60.9050   30.0350   52.1840 C   0  0  0  0  0  0  0  0  0  0  0  0
   61.7060   29.4500   52.9630 O   0  0  0  0  0  0  0  0  0  0  0  0
   61.4210   30.7070   51.0300 N   0  0  0  0  0  0  0  0  0  0  0  0
   61.4550   30.0110   49.7400 C   0  0  0  0  0  0  0  0  0  0  0  0
   61.0470   30.9690   48.6100 C   0  0  0  0  0  0  0  0  0  0  0  0
   61.6280   32.3130   48.7840 N   0  0  0  0  0  0  0  0  0  0  0  0
   61.2420   33.3930   47.9060 C   0  0  0  0  0  0  0  0  0  0  0  0
   61.4360   34.5890   48.2570 O   0  0  0  0  0  0  0  0  0  0  0  0
   60.6450   33.1390   46.5440 C   0  0  0  0  0  0  0  0  0  0  0  0
   59.1010   33.2640   46.4720 C   0  0  0  0  0  0  0  0  0  0  0  0
   58.5870   34.6010   46.9840 C   0  0  0  0  0  0  0  0  0  0  0  0
   58.4370   34.2500   45.5120 C   0  0  0  0  0  0  0  0  0  0  0  0
   62.5950   32.5450   49.8670 C   0  0  0  0  0  0  0  0  0  0  0  0
   62.0230   32.0340   51.1910 C   0  0  0  0  0  0  0  0  0  0  0  0
   58.8410   28.9710   53.1340 C   0  0  0  0  0  0  0  0  0  0  0  0
   57.4750   28.9980   53.4310 C   0  0  0  0  0  0  0  0  0  0  0  0
  1  2  2  0
  2  3  1  0
  3  4  2  0
  4  5  1  0
  5  6  1  0
  6  7  1  0
  7  8  2  0
  7  9  1  0
  9 10  1  0
 10 11  1  0
  3 12  1  0
 12 13  2  0
 13 14  1  0
 13 15  1  0
 15 16  1  0
 16 17  2  0
 17 18  1  0
 18 19  2  0
 19 20  1  0
 20 21  2  0
 20 22  1  0
 22 23  1  0
 23 24  1  0
 24 25  1  0
 25 26  1  0
 26 27  2  0
 26 28  1  0
 28 29  1  0
 29 30  1  0
 30 31  1  0
 25 32  1  0
 32 33  1  0
 19 34  1  0
 34 35  2  0
 15  2  1  0
 35 16  1  0
 10  5  2  0
 33 22  1  0
 31 29  1  0
M  CHG  3   6  -1   9  -1  11  -1
M  END
>  <UniqueID>  (1332) 
79

>  <SMILES>  (1332) 
C=c1/c(=C\c2[n-]c(=O)[n-]c2[O-])cc(C)n1-c1ccc(C(=O)N2CCN(C(=O)CC3CC3)CC2)cc1

>  <Energy>  (1332) 
413.35667102893444

>  <Genealogy>  (1332) 
C=c1c(=Cc2[n-]c(=O)[n-]c2[O-])cc(C)n1-c1ccc(C(=O)N2CCN(C(=O)CC3CC3)CC2)cc1 (protonated)
C=c1/c(=C\c2[n-]c(=O)[n-]c2[O-])cc(C)n1-c1ccc(C(=O)N2CCN(C(=O)CC3CC3)CC2)cc1 (cis-trans isomerization)
C=c1/c(=C\c2[n-]c(=O)[n-]c2[O-])cc(C)n1-c1ccc(C(=O)N2CCN(C(=O)CC3CC3)CC2)cc1 (3D coordinates assigned)
C=c1/c(=C\c2[n-]c(=O)[n-]c2[O-])cc(C)n1-c1ccc(C(=O)N2CCN(C(=O)CC3CC3)CC2)cc1 (nonaromatic ring conformer: 413.35667102893444 kcal/mol)

>  <smiles>  (1332) 
C=c1c(=Cc2[nH]c(=O)[nH]c2O)cc(C)n1-c1ccc(C(=O)N2CCN(C(=O)CC3CC3)CC2)cc1

>  <score_type>  (1332) 
oracle

>  <origin>  (1332) 
adg

>  <m_score__min__energy>  (1332) 
-17.489999999999998

>  <m_primary>  (1332) 
energy

$$$$
86:0
     RDKit          3D

 29 31  0  0  0  0  0  0  0  0999 V2000
   58.8080   34.3070   45.9400 C   0  0  0  0  0  0  0  0  0  0  0  0
   59.5100   34.3890   47.0740 C   0  0  0  0  0  0  0  0  0  0  0  0
   59.1080   33.6300   48.3100 C   0  0  0  0  0  0  0  0  0  0  0  0
   59.6650   34.2950   49.5730 C   0  0  0  0  0  0  0  0  0  0  0  0
   59.3670   33.4580   50.7800 C   0  0  0  0  0  0  0  0  0  0  0  0
   59.6170   32.2210   50.7490 O   0  0  0  0  0  0  0  0  0  0  0  0
   58.7190   34.0460   51.9190 N   0  0  0  0  0  0  0  0  0  0  0  0
   58.5440   33.3770   53.1790 C   0  0  0  0  0  0  0  0  0  0  0  0
   59.1990   33.8710   54.3170 C   0  0  0  0  0  0  0  0  0  0  0  0
   59.0590   33.2280   55.5480 C   0  0  0  0  0  0  0  0  0  0  0  0
   58.2780   32.0760   55.6540 C   0  0  0  0  0  0  0  0  0  0  0  0
   57.6370   31.5480   54.5220 C   0  0  0  0  0  0  0  0  0  0  0  0
   56.8160   30.2880   54.6290 C   0  0  0  0  0  0  0  0  0  0  0  0
   55.7340   30.2790   53.6290 N   0  0  0  0  0  0  0  0  0  0  0  0
   55.9170   30.1850   52.2900 C   0  0  0  0  0  0  0  0  0  0  0  0
   57.2460   30.0760   51.6050 C   0  0  0  0  0  0  0  0  0  0  0  0
   54.7110   30.2720   51.6290 C   0  0  0  0  0  0  0  0  0  0  0  0
   53.7280   30.3830   52.5950 C   0  0  0  0  0  0  0  0  0  0  0  0
   52.4150   30.4180   52.2910 C   0  0  0  0  0  0  0  0  0  0  0  0
   51.4890   31.5170   52.6030 C   0  0  0  0  0  0  0  0  0  0  0  0
   51.2200   31.9290   53.8540 N   0  0  0  0  0  0  0  0  0  0  0  0
   50.4430   33.0180   53.6630 C   0  0  0  0  0  0  0  0  0  0  0  0
   49.9670   33.6870   54.6170 O   0  0  0  0  0  0  0  0  0  0  0  0
   50.2290   33.3440   52.3700 N   0  0  0  0  0  0  0  0  0  0  0  0
   50.9100   32.3920   51.7110 C   0  0  0  0  0  0  0  0  0  0  0  0
   51.0220   32.3420   50.3270 O   0  0  0  0  0  0  0  0  0  0  0  0
   54.3940   30.4350   53.8310 C   0  0  0  0  0  0  0  0  0  0  0  0
   53.8450   30.7270   55.0220 C   0  0  0  0  0  0  0  0  0  0  0  0
   57.7770   32.2020   53.2860 C   0  0  0  0  0  0  0  0  0  0  0  0
  1  2  2  0
  2  3  1  0
  3  4  1  0
  4  5  1  0
  5  6  2  0
  5  7  1  0
  7  8  1  0
  8  9  2  0
  9 10  1  0
 10 11  2  0
 11 12  1  0
 12 13  1  0
 13 14  1  0
 14 15  1  0
 15 16  1  0
 15 17  2  0
 17 18  1  0
 18 19  2  0
 19 20  1  0
 20 21  1  0
 21 22  1  0
 22 23  2  0
 22 24  1  0
 24 25  1  0
 25 26  1  0
 18 27  1  0
 27 28  2  0
 12 29  2  0
 29  8  1  0
 27 14  1  0
 25 20  2  0
M  CHG  3  21  -1  24  -1  26  -1
M  END
>  <UniqueID>  (1333) 
85

>  <SMILES>  (1333) 
C=CCCC(=O)Nc1cccc(Cn2c(C)c/c(=C/c3[n-]c(=O)[n-]c3[O-])c2=C)c1

>  <Energy>  (1333) 
117.51317677212107

>  <Genealogy>  (1333) 
C=CCCC(=O)Nc1cccc(Cn2c(C)cc(=Cc3[n-]c(=O)[n-]c3[O-])c2=C)c1 (protonated)
C=CCCC(=O)Nc1cccc(Cn2c(C)c/c(=C/c3[n-]c(=O)[n-]c3[O-])c2=C)c1 (cis-trans isomerization)
C=CCCC(=O)Nc1cccc(Cn2c(C)c/c(=C/c3[n-]c(=O)[n-]c3[O-])c2=C)c1 (3D coordinates assigned)
C=CCCC(=O)Nc1cccc(Cn2c(C)c/c(=C/c3[n-]c(=O)[n-]c3[O-])c2=C)c1 (optimized conformer: 117.51317677212107 kcal/mol)

>  <smiles>  (1333) 
C=CCCC(=O)Nc1cccc(Cn2c(C)cc(=Cc3[nH]c(=O)[nH]c3O)c2=C)c1

>  <score_type>  (1333) 
oracle

>  <origin>  (1333) 
adg

>  <m_score__min__energy>  (1333) 
-16.719999999999999

>  <m_primary>  (1333) 
energy

$$$$
87:0
     RDKit          3D

 30 32  0  0  0  0  0  0  0  0999 V2000
   59.2500   34.7650   47.3280 C   0  0  0  0  0  0  0  0  0  0  0  0
   59.9080   33.5050   47.6730 N   0  0  0  0  0  0  0  0  0  0  0  0
   61.3380   33.4580   47.8590 C   0  0  0  0  0  0  0  0  0  0  0  0
   62.2050   33.4930   46.7520 C   0  0  0  0  0  0  0  0  0  0  0  0
   63.5900   33.4590   46.9350 C   0  0  0  0  0  0  0  0  0  0  0  0
   64.1240   33.3950   48.2240 C   0  0  0  0  0  0  0  0  0  0  0  0
   63.2750   33.3690   49.3310 C   0  0  0  0  0  0  0  0  0  0  0  0
   61.8890   33.4040   49.1520 C   0  0  0  0  0  0  0  0  0  0  0  0
   58.9380   32.0740   47.8840 S   0  0  0  0  0  0  0  0  0  0  0  0
   57.8590   32.3460   48.8940 O   0  0  0  0  0  0  0  0  0  0  0  0
   59.7930   30.9410   48.3780 O   0  0  0  0  0  0  0  0  0  0  0  0
   58.2310   31.5990   46.3420 C   0  0  0  0  0  0  0  0  0  0  0  0
   57.9680   32.5730   45.3700 C   0  0  0  0  0  0  0  0  0  0  0  0
   57.4050   32.2070   44.1450 C   0  0  0  0  0  0  0  0  0  0  0  0
   57.0860   30.8700   43.8920 C   0  0  0  0  0  0  0  0  0  0  0  0
   57.3140   29.8890   44.8670 C   0  0  0  0  0  0  0  0  0  0  0  0
   56.9840   28.5200   44.5800 N   0  0  0  0  0  0  0  0  0  0  0  0
   57.9460   27.4550   44.5450 C   0  0  0  0  0  0  0  0  0  0  0  0
   59.1240   27.6400   44.9580 O   0  0  0  0  0  0  0  0  0  0  0  0
   57.5340   26.0850   44.1000 C   0  0  0  0  0  0  0  0  0  0  0  0
   57.0720   25.2670   45.2840 C   0  0  0  0  0  0  0  0  0  0  0  0
   55.9150   25.6140   46.0050 C   0  0  0  0  0  0  0  0  0  0  0  0
   55.1430   26.7080   45.6320 O   0  0  0  0  0  0  0  0  0  0  0  0
   55.5370   24.8750   47.0800 N   0  0  0  0  0  0  0  0  0  0  0  0
   56.2630   23.8020   47.4850 C   0  0  0  0  0  0  0  0  0  0  0  0
   55.7810   22.9350   48.7810 S   0  0  0  0  0  0  0  0  0  0  0  0
   57.3890   23.4520   46.8150 N   0  0  0  0  0  0  0  0  0  0  0  0
   57.8100   24.1550   45.7320 C   0  0  0  0  0  0  0  0  0  0  0  0
   58.8650   23.8020   45.1390 O   0  0  0  0  0  0  0  0  0  0  0  0
   57.9070   30.2590   46.0870 C   0  0  0  0  0  0  0  0  0  0  0  0
  1  2  1  0
  2  3  1  0
  3  4  2  0
  4  5  1  0
  5  6  2  0
  6  7  1  0
  7  8  2  0
  2  9  1  0
  9 10  2  0
  9 11  2  0
  9 12  1  0
 12 13  2  0
 13 14  1  0
 14 15  2  0
 15 16  1  0
 16 17  1  0
 17 18  1  0
 18 19  2  0
 18 20  1  0
 20 21  1  0
 21 22  2  0
 22 23  1  0
 22 24  1  0
 24 25  1  0
 25 26  2  0
 25 27  1  0
 27 28  1  0
 28 29  2  0
 16 30  2  0
  8  3  1  0
 30 12  1  0
 28 21  1  0
M  CHG  3  23  -1  24  -1  27  -1
M  END
>  <UniqueID>  (1334) 
86

>  <SMILES>  (1334) 
CN(c1ccccc1)S(=O)(=O)c1cccc(NC(=O)Cc2c([O-])[n-]c(=S)[n-]c2=O)c1

>  <Energy>  (1334) 
56.18394692382622

>  <Genealogy>  (1334) 
CN(c1ccccc1)S(=O)(=O)c1cccc(NC(=O)Cc2c([O-])[n-]c(=S)[n-]c2=O)c1 (protonated)
CN(c1ccccc1)S(=O)(=O)c1cccc(NC(=O)Cc2c([O-])[n-]c(=S)[n-]c2=O)c1 (3D coordinates assigned)
CN(c1ccccc1)S(=O)(=O)c1cccc(NC(=O)Cc2c([O-])[n-]c(=S)[n-]c2=O)c1 (optimized conformer: 56.18394692382622 kcal/mol)

>  <smiles>  (1334) 
CN(c1ccccc1)S(=O)(=O)c1cccc(NC(=O)Cc2c(O)[nH]c(=S)[nH]c2=O)c1

>  <score_type>  (1334) 
oracle

>  <origin>  (1334) 
adg

>  <m_score__min__energy>  (1334) 
-16.870000000000001

>  <m_primary>  (1334) 
energy

$$$$
89:0
     RDKit          3D

 25 27  0  0  0  0  0  0  0  0999 V2000
   60.1120   29.9290   46.5550 C   0  0  0  0  0  0  0  0  0  0  0  0
   59.2890   30.7950   45.9420 C   0  0  0  0  0  0  0  0  0  0  0  0
   58.2770   30.4960   45.0110 C   0  0  0  0  0  0  0  0  0  0  0  0
   57.9710   29.3490   44.3730 C   0  0  0  0  0  0  0  0  0  0  0  0
   57.3980   28.1430   44.9990 C   0  0  0  0  0  0  0  0  0  0  0  0
   56.0190   28.0350   45.2460 C   0  0  0  0  0  0  0  0  0  0  0  0
   55.1470   29.0510   44.8730 O   0  0  0  0  0  0  0  0  0  0  0  0
   55.5260   26.9290   45.8630 N   0  0  0  0  0  0  0  0  0  0  0  0
   56.3480   25.9250   46.2640 C   0  0  0  0  0  0  0  0  0  0  0  0
   55.8680   24.9090   46.8300 O   0  0  0  0  0  0  0  0  0  0  0  0
   57.6870   26.0200   46.0620 N   0  0  0  0  0  0  0  0  0  0  0  0
   58.2290   27.1050   45.4490 C   0  0  0  0  0  0  0  0  0  0  0  0
   59.4770   27.1630   45.2840 O   0  0  0  0  0  0  0  0  0  0  0  0
   57.5730   31.6720   44.8140 C   0  0  0  0  0  0  0  0  0  0  0  0
   58.1980   32.6460   45.5650 C   0  0  0  0  0  0  0  0  0  0  0  0
   57.7640   34.0790   45.6300 C   0  0  0  0  0  0  0  0  0  0  0  0
   59.2360   32.1160   46.2510 N   0  0  0  0  0  0  0  0  0  0  0  0
   60.1010   32.8340   47.1500 C   0  0  0  0  0  0  0  0  0  0  0  0
   59.5960   33.3470   48.3550 C   0  0  0  0  0  0  0  0  0  0  0  0
   60.4370   34.0390   49.2310 C   0  0  0  0  0  0  0  0  0  0  0  0
   61.7870   34.2210   48.9120 C   0  0  0  0  0  0  0  0  0  0  0  0
   62.6200   34.9090   49.7870 O   0  0  0  0  0  0  0  0  0  0  0  0
   62.2960   33.7100   47.7120 C   0  0  0  0  0  0  0  0  0  0  0  0
   63.6030   33.8860   47.3970 F   0  0  0  0  0  0  0  0  0  0  0  0
   61.4560   33.0190   46.8340 C   0  0  0  0  0  0  0  0  0  0  0  0
  1  2  2  0
  2  3  1  0
  3  4  2  3
  4  5  1  0
  5  6  2  0
  6  7  1  0
  6  8  1  0
  8  9  1  0
  9 10  2  0
  9 11  1  0
 11 12  1  0
 12 13  2  0
  3 14  1  0
 14 15  2  0
 15 16  1  0
 15 17  1  0
 17 18  1  0
 18 19  2  0
 19 20  1  0
 20 21  2  0
 21 22  1  0
 21 23  1  0
 23 24  1  0
 23 25  2  0
 17  2  1  0
 25 18  1  0
 12  5  1  0
M  CHG  4   7  -1   8  -1  11  -1  22  -1
M  END
>  <UniqueID>  (1335) 
88

>  <SMILES>  (1335) 
C=c1c(=Cc2c([O-])[n-]c(=O)[n-]c2=O)cc(C)n1-c1ccc([O-])c(F)c1

>  <Energy>  (1335) 
87.10095418845444

>  <Genealogy>  (1335) 
C=c1c(=Cc2c([O-])[n-]c(=O)[n-]c2=O)cc(C)n1-c1ccc([O-])c(F)c1 (protonated)
C=c1c(=Cc2c([O-])[n-]c(=O)[n-]c2=O)cc(C)n1-c1ccc([O-])c(F)c1 (3D coordinates assigned)
C=c1c(=Cc2c([O-])[n-]c(=O)[n-]c2=O)cc(C)n1-c1ccc([O-])c(F)c1 (optimized conformer: 87.10095418845444 kcal/mol)

>  <smiles>  (1335) 
C=c1c(=Cc2c(O)[nH]c(=O)[nH]c2=O)cc(C)n1-c1ccc(O)c(F)c1

>  <score_type>  (1335) 
oracle

>  <origin>  (1335) 
adg

>  <m_score__min__energy>  (1335) 
-15.859999999999999

>  <m_primary>  (1335) 
energy

$$$$
29:0
     RDKit          3D

 36 40  0  0  0  0  0  0  0  0999 V2000
   56.9800   28.2130   44.8870 C   0  0  0  0  0  0  0  0  0  0  0  0
   57.8150   27.3650   45.5080 C   0  0  0  0  0  0  0  0  0  0  0  0
   57.7540   25.9620   45.5020 C   0  0  0  0  0  0  0  0  0  0  0  0
   57.0540   25.1100   44.7260 C   0  0  0  0  0  0  0  0  0  0  0  0
   55.6840   24.6340   44.9900 C   0  0  0  0  0  0  0  0  0  0  0  0
   55.2650   23.3640   44.8260 N   0  0  0  0  0  0  0  0  0  0  0  0
   54.0090   23.3820   45.3240 C   0  0  0  0  0  0  0  0  0  0  0  0
   53.2690   22.3640   45.3330 O   0  0  0  0  0  0  0  0  0  0  0  0
   53.6140   24.5750   45.8230 N   0  0  0  0  0  0  0  0  0  0  0  0
   54.6920   25.3500   45.6170 C   0  0  0  0  0  0  0  0  0  0  0  0
   54.7770   26.6790   46.0160 O   0  0  0  0  0  0  0  0  0  0  0  0
   58.6240   25.5310   46.4900 C   0  0  0  0  0  0  0  0  0  0  0  0
   59.2380   26.6560   47.0000 C   0  0  0  0  0  0  0  0  0  0  0  0
   60.2700   26.6430   48.0860 C   0  0  0  0  0  0  0  0  0  0  0  0
   58.7510   27.7680   46.4050 N   0  0  0  0  0  0  0  0  0  0  0  0
   59.1400   29.1190   46.7070 C   0  0  0  0  0  0  0  0  0  0  0  0
   58.1670   30.1210   46.8290 C   0  0  0  0  0  0  0  0  0  0  0  0
   58.5400   31.4380   47.1140 C   0  0  0  0  0  0  0  0  0  0  0  0
   59.8930   31.7690   47.2970 C   0  0  0  0  0  0  0  0  0  0  0  0
   60.2890   33.1610   47.6130 C   0  0  0  0  0  0  0  0  0  0  0  0
   59.8380   34.1110   46.9170 O   0  0  0  0  0  0  0  0  0  0  0  0
   61.1820   33.4460   48.7000 N   0  0  0  0  0  0  0  0  0  0  0  0
   60.8500   32.9770   50.0500 C   0  0  0  0  0  0  0  0  0  0  0  0
   62.1320   32.6400   50.8040 C   0  0  0  0  0  0  0  0  0  0  0  0
   62.9930   33.9010   50.9780 C   0  0  0  0  0  0  0  0  0  0  0  0
   64.3520   33.5360   51.4340 N   0  0  0  0  0  0  0  0  0  0  0  0
   64.7600   33.8920   52.8040 C   0  0  0  0  0  0  0  0  0  0  0  0
   65.6420   32.7980   53.4020 C   0  0  0  0  0  0  0  0  0  0  0  0
   66.9120   32.6570   52.5650 C   0  0  0  0  0  0  0  0  0  0  0  0
   66.6210   32.3350   51.0840 C   0  0  0  0  0  0  0  0  0  0  0  0
   65.2740   32.8050   50.5870 C   0  0  0  0  0  0  0  0  0  0  0  0
   64.9570   32.5140   49.4040 O   0  0  0  0  0  0  0  0  0  0  0  0
   63.0150   34.8310   49.7310 C   0  0  0  0  0  0  0  0  0  0  0  0
   62.3970   34.2370   48.4460 C   0  0  0  0  0  0  0  0  0  0  0  0
   60.8670   30.7630   47.1640 C   0  0  0  0  0  0  0  0  0  0  0  0
   60.4920   29.4480   46.8720 C   0  0  0  0  0  0  0  0  0  0  0  0
  1  2  2  0
  2  3  1  0
  3  4  2  3
  4  5  1  0
  5  6  1  0
  6  7  1  0
  7  8  2  0
  7  9  1  0
  9 10  1  0
 10 11  1  0
  3 12  1  0
 12 13  2  0
 13 14  1  0
 13 15  1  0
 15 16  1  0
 16 17  2  0
 17 18  1  0
 18 19  2  0
 19 20  1  0
 20 21  2  0
 20 22  1  0
 22 23  1  0
 23 24  1  0
 24 25  1  0
 25 26  1  0
 26 27  1  0
 27 28  1  0
 28 29  1  0
 29 30  1  0
 30 31  1  0
 31 32  2  0
 25 33  1  0
 33 34  1  0
 19 35  1  0
 35 36  2  0
 15  2  1  0
 36 16  1  0
 10  5  2  0
 34 22  1  0
 31 26  1  0
M  CHG  3   6  -1   9  -1  11  -1
M  END
>  <UniqueID>  (1336) 
28

>  <SMILES>  (1336) 
C=c1c(=Cc2[n-]c(=O)[n-]c2[O-])cc(C)n1-c1ccc(C(=O)N2CCC(N3CCCCC3=O)CC2)cc1

>  <Energy>  (1336) 
152.29513803821467

>  <Genealogy>  (1336) 
C=c1c(=Cc2[n-]c(=O)[n-]c2[O-])cc(C)n1-c1ccc(C(=O)N2CCC(N3CCCCC3=O)CC2)cc1 (protonated)
C=c1c(=Cc2[n-]c(=O)[n-]c2[O-])cc(C)n1-c1ccc(C(=O)N2CCC(N3CCCCC3=O)CC2)cc1 (3D coordinates assigned)
C=c1c(=Cc2[n-]c(=O)[n-]c2[O-])cc(C)n1-c1ccc(C(=O)N2CCC(N3CCCCC3=O)CC2)cc1 (nonaromatic ring conformer: 152.29513803821467 kcal/mol)

>  <smiles>  (1336) 
C=c1c(=Cc2[nH]c(=O)[nH]c2O)cc(C)n1-c1ccc(C(=O)N2CCC(N3CCCCC3=O)CC2)cc1

>  <score_type>  (1336) 
oracle

>  <origin>  (1336) 
adg

>  <m_score__min__energy>  (1336) 
-16.899999999999999

>  <m_primary>  (1336) 
energy

$$$$
34:0
     RDKit          3D

 24 26  0  0  0  0  0  0  0  0999 V2000
   57.7010   29.5760   43.8270 C   0  0  0  0  0  0  0  0  0  0  0  0
   58.0170   29.3450   45.1110 C   0  0  0  0  0  0  0  0  0  0  0  0
   58.0730   28.0990   45.7430 C   0  0  0  0  0  0  0  0  0  0  0  0
   57.8440   26.8910   45.1930 C   0  0  0  0  0  0  0  0  0  0  0  0
   57.3300   25.7310   45.9570 C   0  0  0  0  0  0  0  0  0  0  0  0
   55.9860   25.6920   46.3530 C   0  0  0  0  0  0  0  0  0  0  0  0
   55.1150   26.7180   46.0050 O   0  0  0  0  0  0  0  0  0  0  0  0
   55.5200   24.6390   47.0730 N   0  0  0  0  0  0  0  0  0  0  0  0
   56.3400   23.6200   47.4350 C   0  0  0  0  0  0  0  0  0  0  0  0
   55.7510   22.3670   48.2990 S   0  0  0  0  0  0  0  0  0  0  0  0
   57.6520   23.6470   47.0880 N   0  0  0  0  0  0  0  0  0  0  0  0
   58.1670   24.6770   46.3700 C   0  0  0  0  0  0  0  0  0  0  0  0
   59.3980   24.6850   46.0970 O   0  0  0  0  0  0  0  0  0  0  0  0
   58.4620   28.3440   47.0540 C   0  0  0  0  0  0  0  0  0  0  0  0
   58.6080   29.7110   47.1740 C   0  0  0  0  0  0  0  0  0  0  0  0
   59.0410   30.4150   48.4250 C   0  0  0  0  0  0  0  0  0  0  0  0
   58.3510   30.3180   45.9950 N   0  0  0  0  0  0  0  0  0  0  0  0
   58.4040   31.7330   45.7480 C   0  0  0  0  0  0  0  0  0  0  0  0
   59.5550   32.4630   46.0690 C   0  0  0  0  0  0  0  0  0  0  0  0
   59.6040   33.8340   45.8160 C   0  0  0  0  0  0  0  0  0  0  0  0
   58.4980   34.4630   45.2430 C   0  0  0  0  0  0  0  0  0  0  0  0
   57.3850   33.7430   44.9400 N   0  0  0  0  0  0  0  0  0  0  0  0
   57.3100   32.4050   45.1780 C   0  0  0  0  0  0  0  0  0  0  0  0
   56.1450   31.7170   44.8640 O   0  0  0  0  0  0  0  0  0  0  0  0
  1  2  2  0
  2  3  1  0
  3  4  2  3
  4  5  1  0
  5  6  2  0
  6  7  1  0
  6  8  1  0
  8  9  1  0
  9 10  2  0
  9 11  1  0
 11 12  1  0
 12 13  2  0
  3 14  1  0
 14 15  2  0
 15 16  1  0
 15 17  1  0
 17 18  1  0
 18 19  2  0
 19 20  1  0
 20 21  2  0
 21 22  1  0
 22 23  2  0
 23 24  1  0
 17  2  1  0
 23 18  1  0
 12  5  1  0
M  CHG  4   7  -1   8  -1  11  -1  24  -1
M  END
>  <UniqueID>  (1337) 
32

>  <SMILES>  (1337) 
C=c1c(=Cc2c([O-])[n-]c(=S)[n-]c2=O)cc(C)n1-c1cccnc1[O-]

>  <Energy>  (1337) 
82.9465892544172

>  <Genealogy>  (1337) 
C=c1c(=Cc2c([O-])[n-]c(=S)[n-]c2=O)cc(C)n1-c1cccnc1[O-] (protonated)
C=c1c(=Cc2c([O-])[n-]c(=S)[n-]c2=O)cc(C)n1-c1cccnc1[O-] (3D coordinates assigned)
C=c1c(=Cc2c([O-])[n-]c(=S)[n-]c2=O)cc(C)n1-c1cccnc1[O-] (optimized conformer: 82.9465892544172 kcal/mol)

>  <smiles>  (1337) 
C=c1c(=Cc2c(O)[nH]c(=S)[nH]c2=O)cc(C)n1-c1cccnc1O

>  <score_type>  (1337) 
oracle

>  <origin>  (1337) 
adg

>  <m_score__min__energy>  (1337) 
-16.289999999999999

>  <m_primary>  (1337) 
energy

$$$$
49:0
     RDKit          3D

 28 31  0  0  0  0  0  0  0  0999 V2000
   54.4950   28.1090   52.7530 C   0  0  0  0  0  0  0  0  0  0  0  0
   54.7810   29.4170   52.6510 C   0  0  0  0  0  0  0  0  0  0  0  0
   53.8940   30.4560   52.3280 C   0  0  0  0  0  0  0  0  0  0  0  0
   52.5500   30.4760   52.2350 C   0  0  0  0  0  0  0  0  0  0  0  0
   51.7780   30.8380   51.0370 C   0  0  0  0  0  0  0  0  0  0  0  0
   51.7440   30.0890   49.9210 N   0  0  0  0  0  0  0  0  0  0  0  0
   51.0370   30.8490   49.0560 C   0  0  0  0  0  0  0  0  0  0  0  0
   50.7720   30.4750   47.8840 O   0  0  0  0  0  0  0  0  0  0  0  0
   50.6470   32.0470   49.5420 N   0  0  0  0  0  0  0  0  0  0  0  0
   51.1360   32.0310   50.7920 C   0  0  0  0  0  0  0  0  0  0  0  0
   51.0240   33.0950   51.6780 O   0  0  0  0  0  0  0  0  0  0  0  0
   54.6760   31.5780   52.0990 C   0  0  0  0  0  0  0  0  0  0  0  0
   55.9810   31.2130   52.3560 C   0  0  0  0  0  0  0  0  0  0  0  0
   57.1600   32.1310   52.2390 C   0  0  0  0  0  0  0  0  0  0  0  0
   56.0470   29.9050   52.6920 N   0  0  0  0  0  0  0  0  0  0  0  0
   57.2520   29.1750   52.9850 C   0  0  0  0  0  0  0  0  0  0  0  0
   57.3420   28.4090   54.1550 C   0  0  0  0  0  0  0  0  0  0  0  0
   58.5080   27.6960   54.4430 C   0  0  0  0  0  0  0  0  0  0  0  0
   59.6030   27.7300   53.5610 C   0  0  0  0  0  0  0  0  0  0  0  0
   60.8380   26.9730   53.8810 C   0  0  0  0  0  0  0  0  0  0  0  0
   61.4890   27.2640   54.9220 O   0  0  0  0  0  0  0  0  0  0  0  0
   61.2970   25.9090   53.0340 N   0  0  0  0  0  0  0  0  0  0  0  0
   62.5710   25.2410   53.2790 C   0  0  0  0  0  0  0  0  0  0  0  0
   63.2030   24.6460   52.0320 C   0  0  0  0  0  0  0  0  0  0  0  0
   63.7490   25.9380   52.6200 C   0  0  0  0  0  0  0  0  0  0  0  0
   59.5100   28.5080   52.3910 C   0  0  0  0  0  0  0  0  0  0  0  0
   58.3420   29.2210   52.1050 C   0  0  0  0  0  0  0  0  0  0  0  0
   58.2700   29.9550   50.9650 F   0  0  0  0  0  0  0  0  0  0  0  0
  1  2  2  0
  2  3  1  0
  3  4  2  3
  4  5  1  0
  5  6  1  0
  6  7  1  0
  7  8  2  0
  7  9  1  0
  9 10  1  0
 10 11  1  0
  3 12  1  0
 12 13  2  0
 13 14  1  0
 13 15  1  0
 15 16  1  0
 16 17  2  0
 17 18  1  0
 18 19  2  0
 19 20  1  0
 20 21  2  0
 20 22  1  0
 22 23  1  0
 23 24  1  0
 24 25  1  0
 19 26  1  0
 26 27  2  0
 27 28  1  0
 15  2  1  0
 27 16  1  0
 10  5  2  0
 25 23  1  0
M  CHG  3   6  -1   9  -1  11  -1
M  END
>  <UniqueID>  (1338) 
47

>  <SMILES>  (1338) 
C=c1c(=Cc2[n-]c(=O)[n-]c2[O-])cc(C)n1-c1ccc(C(=O)NC2CC2)cc1F

>  <Energy>  (1338) 
388.05312329125064

>  <Genealogy>  (1338) 
C=c1c(=Cc2[n-]c(=O)[n-]c2[O-])cc(C)n1-c1ccc(C(=O)NC2CC2)cc1F (protonated)
C=c1c(=Cc2[n-]c(=O)[n-]c2[O-])cc(C)n1-c1ccc(C(=O)NC2CC2)cc1F (3D coordinates assigned)
C=c1c(=Cc2[n-]c(=O)[n-]c2[O-])cc(C)n1-c1ccc(C(=O)NC2CC2)cc1F (nonaromatic ring conformer: 388.05312329125064 kcal/mol)

>  <smiles>  (1338) 
C=c1c(=Cc2[nH]c(=O)[nH]c2O)cc(C)n1-c1ccc(C(=O)NC2CC2)cc1F

>  <score_type>  (1338) 
oracle

>  <origin>  (1338) 
adg

>  <m_score__min__energy>  (1338) 
-15.300000000000001

>  <m_primary>  (1338) 
energy

$$$$
56:0
     RDKit          3D

 31 34  0  0  0  0  0  0  0  0999 V2000
   54.4470   26.3100   45.8370 O   0  0  0  0  0  0  0  0  0  0  0  0
   54.0680   24.9960   45.5830 C   0  0  0  0  0  0  0  0  0  0  0  0
   52.8050   24.6110   45.3380 N   0  0  0  0  0  0  0  0  0  0  0  0
   52.9280   23.2740   45.1870 C   0  0  0  0  0  0  0  0  0  0  0  0
   51.9450   22.5270   44.9450 O   0  0  0  0  0  0  0  0  0  0  0  0
   54.1850   22.8010   45.3240 N   0  0  0  0  0  0  0  0  0  0  0  0
   54.9120   23.9120   45.5500 C   0  0  0  0  0  0  0  0  0  0  0  0
   56.3410   23.9220   45.8980 C   0  0  0  0  0  0  0  0  0  0  0  0
   57.1480   25.0000   45.8780 C   0  0  0  0  0  0  0  0  0  0  0  0
   57.5550   25.6460   47.0310 C   0  0  0  0  0  0  0  0  0  0  0  0
   58.4230   26.6450   46.6470 C   0  0  0  0  0  0  0  0  0  0  0  0
   59.0540   27.6190   47.5960 C   0  0  0  0  0  0  0  0  0  0  0  0
   58.5420   26.6810   45.2980 N   0  0  0  0  0  0  0  0  0  0  0  0
   59.2810   27.7150   44.5490 C   0  0  0  0  0  0  0  0  0  0  0  0
   58.4010   28.9130   44.2980 C   0  0  0  0  0  0  0  0  0  0  0  0
   57.2000   28.7820   43.5840 C   0  0  0  0  0  0  0  0  0  0  0  0
   56.4160   29.9070   43.3090 C   0  0  0  0  0  0  0  0  0  0  0  0
   56.8360   31.1730   43.7290 C   0  0  0  0  0  0  0  0  0  0  0  0
   58.0410   31.3230   44.4310 C   0  0  0  0  0  0  0  0  0  0  0  0
   58.5070   32.6630   44.8460 C   0  0  0  0  0  0  0  0  0  0  0  0
   58.8450   33.4980   43.9620 O   0  0  0  0  0  0  0  0  0  0  0  0
   58.5980   33.0260   46.2390 N   0  0  0  0  0  0  0  0  0  0  0  0
   58.3730   34.4100   46.6620 C   0  0  0  0  0  0  0  0  0  0  0  0
   59.6450   34.9810   47.3150 C   0  0  0  0  0  0  0  0  0  0  0  0
   60.4120   33.9880   48.1160 N   0  0  0  0  0  0  0  0  0  0  0  0
   61.6950   33.6430   47.4770 C   0  0  0  0  0  0  0  0  0  0  0  0
   59.6360   32.7810   48.4740 C   0  0  0  0  0  0  0  0  0  0  0  0
   59.0930   32.0600   47.2290 C   0  0  0  0  0  0  0  0  0  0  0  0
   58.7950   30.1830   44.7470 C   0  0  0  0  0  0  0  0  0  0  0  0
   57.7380   25.6950   44.8080 C   0  0  0  0  0  0  0  0  0  0  0  0
   57.4520   25.5400   43.5050 C   0  0  0  0  0  0  0  0  0  0  0  0
  1  2  1  0
  2  3  1  0
  3  4  1  0
  4  5  2  0
  4  6  1  0
  6  7  1  0
  7  8  1  0
  8  9  2  0
  9 10  1  0
 10 11  2  0
 11 12  1  0
 11 13  1  0
 13 14  1  0
 14 15  1  0
 15 16  2  0
 16 17  1  0
 17 18  2  0
 18 19  1  0
 19 20  1  0
 20 21  2  0
 20 22  1  0
 22 23  1  0
 23 24  1  0
 24 25  1  0
 25 26  1  0
 25 27  1  0
 27 28  1  0
 19 29  2  0
 13 30  1  0
 30 31  2  0
  7  2  2  0
 30  9  1  0
 29 15  1  0
 28 22  1  0
M  CHG  2   3  -1   6  -1
M  END
>  <UniqueID>  (1339) 
54

>  <SMILES>  (1339) 
C=c1/c(=C\c2[n-]c(=O)[n-]c2O)cc(C)n1Cc1cccc(C(=O)N2CCN(C)CC2)c1

>  <Energy>  (1339) 
137.35413947402438

>  <Genealogy>  (1339) 
C=c1c(=Cc2[n-]c(=O)[n-]c2O)cc(C)n1Cc1cccc(C(=O)N2CCN(C)CC2)c1 (protonated)
C=c1/c(=C\c2[n-]c(=O)[n-]c2O)cc(C)n1Cc1cccc(C(=O)N2CCN(C)CC2)c1 (cis-trans isomerization)
C=c1/c(=C\c2[n-]c(=O)[n-]c2O)cc(C)n1Cc1cccc(C(=O)N2CCN(C)CC2)c1 (3D coordinates assigned)
C=c1/c(=C\c2[n-]c(=O)[n-]c2O)cc(C)n1Cc1cccc(C(=O)N2CCN(C)CC2)c1 (nonaromatic ring conformer: 137.35413947402438 kcal/mol)

>  <smiles>  (1339) 
C=c1c(=Cc2[nH]c(=O)[nH]c2O)cc(C)n1Cc1cccc(C(=O)N2CCN(C)CC2)c1

>  <score_type>  (1339) 
oracle

>  <origin>  (1339) 
adg

>  <m_score__min__energy>  (1339) 
-14.34

>  <m_primary>  (1339) 
energy

$$$$
63:0
     RDKit          3D

 26 28  0  0  0  0  0  0  0  0999 V2000
   55.2160   26.6950   46.1000 N   0  0  0  0  0  0  0  0  0  0  0  0
   56.5750   25.6310   46.1700 S   0  0  0  0  0  0  0  0  0  0  0  0
   56.7190   24.8950   44.8680 O   0  0  0  0  0  0  0  0  0  0  0  0
   56.3330   24.6250   47.2600 O   0  0  0  0  0  0  0  0  0  0  0  0
   58.0510   26.5570   46.5070 C   0  0  0  0  0  0  0  0  0  0  0  0
   58.7520   26.2860   47.6940 C   0  0  0  0  0  0  0  0  0  0  0  0
   59.9150   26.9950   48.0240 C   0  0  0  0  0  0  0  0  0  0  0  0
   60.6440   26.7180   49.3140 C   0  0  0  0  0  0  0  0  0  0  0  0
   60.4060   27.7910   50.2800 N   0  0  0  0  0  0  0  0  0  0  0  0
   60.3070   29.1880   49.9380 C   0  0  0  0  0  0  0  0  0  0  0  0
   61.4490   29.9970   49.7740 C   0  0  0  0  0  0  0  0  0  0  0  0
   61.3140   31.3520   49.4530 C   0  0  0  0  0  0  0  0  0  0  0  0
   60.0450   31.9100   49.2870 C   0  0  0  0  0  0  0  0  0  0  0  0
   58.9070   31.1150   49.4380 C   0  0  0  0  0  0  0  0  0  0  0  0
   59.0360   29.7600   49.7600 C   0  0  0  0  0  0  0  0  0  0  0  0
   60.4000   27.9670   47.1430 C   0  0  0  0  0  0  0  0  0  0  0  0
   59.7180   28.2460   45.9600 C   0  0  0  0  0  0  0  0  0  0  0  0
   58.5420   27.5540   45.6230 C   0  0  0  0  0  0  0  0  0  0  0  0
   57.8220   27.9530   44.3540 C   0  0  0  0  0  0  0  0  0  0  0  0
   57.5020   29.4210   44.3380 C   0  0  0  0  0  0  0  0  0  0  0  0
   58.5580   30.6600   43.8910 S   0  0  0  0  0  0  0  0  0  0  0  0
   57.3750   31.8410   44.0470 C   0  0  0  0  0  0  0  0  0  0  0  0
   57.5670   33.0680   43.8410 O   0  0  0  0  0  0  0  0  0  0  0  0
   56.1790   31.3350   44.4100 N   0  0  0  0  0  0  0  0  0  0  0  0
   56.2460   29.9850   44.5620 C   0  0  0  0  0  0  0  0  0  0  0  0
   55.1330   29.2300   44.9150 O   0  0  0  0  0  0  0  0  0  0  0  0
  1  2  1  0
  2  3  2  0
  2  4  2  0
  2  5  1  0
  5  6  2  0
  6  7  1  0
  7  8  1  0
  8  9  1  0
  9 10  1  0
 10 11  2  0
 11 12  1  0
 12 13  2  0
 13 14  1  0
 14 15  2  0
  7 16  2  0
 16 17  1  0
 17 18  2  0
 18 19  1  0
 19 20  1  0
 20 21  1  0
 21 22  1  0
 22 23  2  0
 22 24  1  0
 24 25  1  0
 25 26  1  0
 18  5  1  0
 25 20  2  0
 15 10  1  0
M  CHG  2   1  -1  24  -1
M  END
>  <UniqueID>  (1340) 
61

>  <SMILES>  (1340) 
[NH-]S(=O)(=O)c1cc(CNc2ccccc2)ccc1Cc1sc(=O)[n-]c1O

>  <Energy>  (1340) 
73.66463252915477

>  <Genealogy>  (1340) 
[NH-]S(=O)(=O)c1cc(CNc2ccccc2)ccc1Cc1sc(=O)[n-]c1O (protonated)
[NH-]S(=O)(=O)c1cc(CNc2ccccc2)ccc1Cc1sc(=O)[n-]c1O (3D coordinates assigned)
[NH-]S(=O)(=O)c1cc(CNc2ccccc2)ccc1Cc1sc(=O)[n-]c1O (optimized conformer: 73.66463252915477 kcal/mol)

>  <smiles>  (1340) 
NS(=O)(=O)c1cc(CNc2ccccc2)ccc1Cc1sc(=O)[nH]c1O

>  <score_type>  (1340) 
oracle

>  <origin>  (1340) 
adg

>  <m_score__min__energy>  (1340) 
-15.76

>  <m_primary>  (1340) 
energy

$$$$
64:0
     RDKit          3D

 28 30  0  0  0  0  0  0  0  0999 V2000
   56.7580   32.5080   45.2530 O   0  0  0  0  0  0  0  0  0  0  0  0
   57.8650   31.7230   45.5700 C   0  0  0  0  0  0  0  0  0  0  0  0
   58.0380   30.4960   44.9140 C   0  0  0  0  0  0  0  0  0  0  0  0
   59.0880   29.6420   45.2670 C   0  0  0  0  0  0  0  0  0  0  0  0
   59.2430   28.3010   44.6040 C   0  0  0  0  0  0  0  0  0  0  0  0
   58.3710   27.2800   45.2830 C   0  0  0  0  0  0  0  0  0  0  0  0
   58.9460   26.1770   45.9300 C   0  0  0  0  0  0  0  0  0  0  0  0
   58.1410   25.2490   46.5970 C   0  0  0  0  0  0  0  0  0  0  0  0
   56.7450   25.4170   46.6350 C   0  0  0  0  0  0  0  0  0  0  0  0
   55.8830   24.4900   47.3110 N   0  0  0  0  0  0  0  0  0  0  0  0
   56.3840   23.0380   48.1170 S   0  0  0  0  0  0  0  0  0  0  0  0
   57.0280   22.1270   47.1110 O   0  0  0  0  0  0  0  0  0  0  0  0
   57.3890   23.3620   49.1870 O   0  0  0  0  0  0  0  0  0  0  0  0
   54.9740   22.2070   48.8170 C   0  0  0  0  0  0  0  0  0  0  0  0
   56.1720   26.5260   45.9960 C   0  0  0  0  0  0  0  0  0  0  0  0
   54.7950   26.7150   46.0230 O   0  0  0  0  0  0  0  0  0  0  0  0
   56.9790   27.4530   45.3280 C   0  0  0  0  0  0  0  0  0  0  0  0
   59.9430   30.0250   46.3050 C   0  0  0  0  0  0  0  0  0  0  0  0
   59.7770   31.2250   46.9190 N   0  0  0  0  0  0  0  0  0  0  0  0
   58.7920   32.1000   46.5760 C   0  0  0  0  0  0  0  0  0  0  0  0
   58.7390   33.2310   47.2270 N   0  0  0  0  0  0  0  0  0  0  0  0
   59.6790   34.3140   47.2410 C   0  0  0  0  0  0  0  0  0  0  0  0
   59.2980   35.4930   47.0080 O   0  0  0  0  0  0  0  0  0  0  0  0
   61.1110   34.0310   47.4080 C   0  0  0  0  0  0  0  0  0  0  0  0
   61.9100   33.8940   48.8820 S   0  0  0  0  0  0  0  0  0  0  0  0
   63.4340   33.5920   48.2380 C   0  0  0  0  0  0  0  0  0  0  0  0
   63.3310   33.5960   46.8530 C   0  0  0  0  0  0  0  0  0  0  0  0
   62.0340   33.8420   46.3860 C   0  0  0  0  0  0  0  0  0  0  0  0
  1  2  1  0
  2  3  2  0
  3  4  1  0
  4  5  1  0
  5  6  1  0
  6  7  2  0
  7  8  1  0
  8  9  2  0
  9 10  1  0
 10 11  1  0
 11 12  2  0
 11 13  2  0
 11 14  1  0
  9 15  1  0
 15 16  1  0
 15 17  2  0
  4 18  2  0
 18 19  1  0
 19 20  1  0
 20 21  2  0
 21 22  1  0
 22 23  2  0
 22 24  1  0
 24 25  1  0
 25 26  1  0
 26 27  2  0
 27 28  1  0
 20  2  1  0
 28 24  2  0
 17  6  1  0
M  CHG  3  10  -1  16  -1  19  -1
M  END
>  <UniqueID>  (1341) 
62

>  <SMILES>  (1341) 
CS(=O)(=O)[N-]c1ccc(Cc2c[n-]/c(=N/C(=O)c3cccs3)c(O)c2)cc1[O-]

>  <Energy>  (1341) 
79.71775632597912

>  <Genealogy>  (1341) 
CS(=O)(=O)[N-]c1ccc(Cc2c[n-]c(=NC(=O)c3cccs3)c(O)c2)cc1[O-] (protonated)
CS(=O)(=O)[N-]c1ccc(Cc2c[n-]/c(=N/C(=O)c3cccs3)c(O)c2)cc1[O-] (cis-trans isomerization)
CS(=O)(=O)[N-]c1ccc(Cc2c[n-]/c(=N/C(=O)c3cccs3)c(O)c2)cc1[O-] (3D coordinates assigned)
CS(=O)(=O)[N-]c1ccc(Cc2c[n-]/c(=N/C(=O)c3cccs3)c(O)c2)cc1[O-] (optimized conformer: 79.71775632597912 kcal/mol)

>  <smiles>  (1341) 
CS(=O)(=O)Nc1ccc(Cc2c[nH]c(=NC(=O)c3cccs3)c(O)c2)cc1O

>  <score_type>  (1341) 
oracle

>  <origin>  (1341) 
adg

>  <m_score__min__energy>  (1341) 
-14.73

>  <m_primary>  (1341) 
energy

$$$$
72:0
     RDKit          3D

 25 28  0  0  0  0  0  0  0  0999 V2000
   54.4350   28.2240   53.1610 C   0  0  0  0  0  0  0  0  0  0  0  0
   54.7230   29.4200   52.6240 C   0  0  0  0  0  0  0  0  0  0  0  0
   53.8120   30.4270   52.2630 C   0  0  0  0  0  0  0  0  0  0  0  0
   52.4720   30.4010   52.1330 C   0  0  0  0  0  0  0  0  0  0  0  0
   51.7200   30.7790   50.9250 C   0  0  0  0  0  0  0  0  0  0  0  0
   51.6740   30.0530   49.7920 N   0  0  0  0  0  0  0  0  0  0  0  0
   50.9960   30.8520   48.9390 C   0  0  0  0  0  0  0  0  0  0  0  0
   50.7310   30.5110   47.7570 O   0  0  0  0  0  0  0  0  0  0  0  0
   50.6340   32.0490   49.4490 N   0  0  0  0  0  0  0  0  0  0  0  0
   51.1140   31.9900   50.7030 C   0  0  0  0  0  0  0  0  0  0  0  0
   51.0030   33.0250   51.6220 O   0  0  0  0  0  0  0  0  0  0  0  0
   54.5670   31.5630   52.0190 C   0  0  0  0  0  0  0  0  0  0  0  0
   55.8910   31.2010   52.1570 C   0  0  0  0  0  0  0  0  0  0  0  0
   57.0510   32.1300   51.9560 C   0  0  0  0  0  0  0  0  0  0  0  0
   55.9890   29.9040   52.5230 N   0  0  0  0  0  0  0  0  0  0  0  0
   57.2130   29.1950   52.7920 C   0  0  0  0  0  0  0  0  0  0  0  0
   57.3120   28.3510   53.9100 C   0  0  0  0  0  0  0  0  0  0  0  0
   58.5010   27.6660   54.1750 C   0  0  0  0  0  0  0  0  0  0  0  0
   59.6020   27.8170   53.3260 C   0  0  0  0  0  0  0  0  0  0  0  0
   60.7600   27.1510   53.5820 N   0  0  0  0  0  0  0  0  0  0  0  0
   61.8490   27.2750   52.7760 C   0  0  0  0  0  0  0  0  0  0  0  0
   61.8000   28.1020   51.6510 C   0  0  0  0  0  0  0  0  0  0  0  0
   60.6250   28.8000   51.3620 C   0  0  0  0  0  0  0  0  0  0  0  0
   59.5110   28.6640   52.1990 C   0  0  0  0  0  0  0  0  0  0  0  0
   58.3160   29.3500   51.9380 C   0  0  0  0  0  0  0  0  0  0  0  0
  1  2  2  0
  2  3  1  0
  3  4  2  3
  4  5  1  0
  5  6  1  0
  6  7  1  0
  7  8  2  0
  7  9  1  0
  9 10  1  0
 10 11  1  0
  3 12  1  0
 12 13  2  0
 13 14  1  0
 13 15  1  0
 15 16  1  0
 16 17  2  0
 17 18  1  0
 18 19  2  0
 19 20  1  0
 20 21  2  0
 21 22  1  0
 22 23  2  0
 23 24  1  0
 24 25  2  0
 15  2  1  0
 25 16  1  0
 10  5  2  0
 24 19  1  0
M  CHG  3   6  -1   9  -1  11  -1
M  END
>  <UniqueID>  (1342) 
70

>  <SMILES>  (1342) 
C=c1c(=Cc2[n-]c(=O)[n-]c2[O-])cc(C)n1-c1ccc2ncccc2c1

>  <Energy>  (1342) 
120.29242096745288

>  <Genealogy>  (1342) 
C=c1c(=Cc2[n-]c(=O)[n-]c2[O-])cc(C)n1-c1ccc2ncccc2c1 (protonated)
C=c1c(=Cc2[n-]c(=O)[n-]c2[O-])cc(C)n1-c1ccc2ncccc2c1 (3D coordinates assigned)
C=c1c(=Cc2[n-]c(=O)[n-]c2[O-])cc(C)n1-c1ccc2ncccc2c1 (optimized conformer: 120.29242096745288 kcal/mol)

>  <smiles>  (1342) 
C=c1c(=Cc2[nH]c(=O)[nH]c2O)cc(C)n1-c1ccc2ncccc2c1

>  <score_type>  (1342) 
oracle

>  <origin>  (1342) 
adg

>  <m_score__min__energy>  (1342) 
-15.779999999999999

>  <m_primary>  (1342) 
energy

$$$$
75:0
     RDKit          3D

 32 35  0  0  0  0  0  0  0  0999 V2000
   59.7790   28.1460   46.6400 C   0  0  0  0  0  0  0  0  0  0  0  0
   58.8830   28.9610   46.0610 C   0  0  0  0  0  0  0  0  0  0  0  0
   57.8300   28.6030   45.2010 C   0  0  0  0  0  0  0  0  0  0  0  0
   57.3680   27.3970   44.8110 C   0  0  0  0  0  0  0  0  0  0  0  0
   57.2170   26.2140   45.6790 C   0  0  0  0  0  0  0  0  0  0  0  0
   55.9790   25.9230   46.2690 C   0  0  0  0  0  0  0  0  0  0  0  0
   54.8660   26.7130   46.0050 O   0  0  0  0  0  0  0  0  0  0  0  0
   55.8590   24.8560   47.1010 N   0  0  0  0  0  0  0  0  0  0  0  0
   56.9260   24.0680   47.3880 C   0  0  0  0  0  0  0  0  0  0  0  0
   56.7900   23.0820   48.1570 O   0  0  0  0  0  0  0  0  0  0  0  0
   58.1410   24.3430   46.8480 N   0  0  0  0  0  0  0  0  0  0  0  0
   58.3140   25.3990   46.0110 C   0  0  0  0  0  0  0  0  0  0  0  0
   59.4590   25.6380   45.5440 O   0  0  0  0  0  0  0  0  0  0  0  0
   57.2550   29.7910   44.7770 C   0  0  0  0  0  0  0  0  0  0  0  0
   57.9340   30.8120   45.4050 C   0  0  0  0  0  0  0  0  0  0  0  0
   57.6300   32.2700   45.2390 C   0  0  0  0  0  0  0  0  0  0  0  0
   58.9140   30.3130   46.1890 N   0  0  0  0  0  0  0  0  0  0  0  0
   59.8470   31.0990   46.9530 C   0  0  0  0  0  0  0  0  0  0  0  0
   59.3800   32.0320   47.8870 C   0  0  0  0  0  0  0  0  0  0  0  0
   60.2820   32.8090   48.6180 C   0  0  0  0  0  0  0  0  0  0  0  0
   61.6660   32.6730   48.4140 C   0  0  0  0  0  0  0  0  0  0  0  0
   62.6160   33.4910   49.2000 C   0  0  0  0  0  0  0  0  0  0  0  0
   62.4460   34.7400   49.2510 O   0  0  0  0  0  0  0  0  0  0  0  0
   63.7270   32.9000   49.9050 N   0  0  0  0  0  0  0  0  0  0  0  0
   63.4900   32.1000   51.1210 C   0  0  0  0  0  0  0  0  0  0  0  0
   64.4440   30.9110   51.1710 C   0  0  0  0  0  0  0  0  0  0  0  0
   65.8160   31.3900   51.0930 N   0  0  0  0  0  0  0  0  0  0  0  0
   66.1480   32.4560   50.2020 C   0  0  0  0  0  0  0  0  0  0  0  0
   67.3430   32.8430   50.1030 O   0  0  0  0  0  0  0  0  0  0  0  0
   65.0820   33.0970   49.3560 C   0  0  0  0  0  0  0  0  0  0  0  0
   62.1300   31.7240   47.4870 C   0  0  0  0  0  0  0  0  0  0  0  0
   61.2270   30.9490   46.7570 C   0  0  0  0  0  0  0  0  0  0  0  0
  1  2  2  0
  2  3  1  0
  3  4  2  3
  4  5  1  0
  5  6  2  0
  6  7  1  0
  6  8  1  0
  8  9  1  0
  9 10  2  0
  9 11  1  0
 11 12  1  0
 12 13  2  0
  3 14  1  0
 14 15  2  0
 15 16  1  0
 15 17  1  0
 17 18  1  0
 18 19  2  0
 19 20  1  0
 20 21  2  0
 21 22  1  0
 22 23  2  0
 22 24  1  0
 24 25  1  0
 25 26  1  0
 26 27  1  0
 27 28  1  0
 28 29  2  0
 28 30  1  0
 21 31  1  0
 31 32  2  0
 17  2  1  0
 32 18  1  0
 12  5  1  0
 30 24  1  0
M  CHG  3   7  -1   8  -1  11  -1
M  END
>  <UniqueID>  (1343) 
73

>  <SMILES>  (1343) 
C=c1c(=Cc2c([O-])[n-]c(=O)[n-]c2=O)cc(C)n1-c1ccc(C(=O)N2CCNC(=O)C2)cc1

>  <Energy>  (1343) 
106.9188066909918

>  <Genealogy>  (1343) 
C=c1c(=Cc2c([O-])[n-]c(=O)[n-]c2=O)cc(C)n1-c1ccc(C(=O)N2CCNC(=O)C2)cc1 (protonated)
C=c1c(=Cc2c([O-])[n-]c(=O)[n-]c2=O)cc(C)n1-c1ccc(C(=O)N2CCNC(=O)C2)cc1 (3D coordinates assigned)
C=c1c(=Cc2c([O-])[n-]c(=O)[n-]c2=O)cc(C)n1-c1ccc(C(=O)N2CCNC(=O)C2)cc1 (nonaromatic ring conformer: 106.9188066909918 kcal/mol)

>  <smiles>  (1343) 
C=c1c(=Cc2c(O)[nH]c(=O)[nH]c2=O)cc(C)n1-c1ccc(C(=O)N2CCNC(=O)C2)cc1

>  <score_type>  (1343) 
oracle

>  <origin>  (1343) 
adg

>  <m_score__min__energy>  (1343) 
-15.85

>  <m_primary>  (1343) 
energy

$$$$
77:0
     RDKit          3D

 28 30  0  0  0  0  0  0  0  0999 V2000
   63.6270   32.0890   47.6660 N   0  0  0  0  0  0  0  0  0  0  0  0
   62.9260   33.6610   47.5250 S   0  0  0  0  0  0  0  0  0  0  0  0
   62.9460   34.3450   48.8640 O   0  0  0  0  0  0  0  0  0  0  0  0
   63.7320   34.4790   46.5550 O   0  0  0  0  0  0  0  0  0  0  0  0
   61.2660   33.5160   46.9580 C   0  0  0  0  0  0  0  0  0  0  0  0
   60.6340   34.6120   46.3570 C   0  0  0  0  0  0  0  0  0  0  0  0
   59.3130   34.5070   45.9120 C   0  0  0  0  0  0  0  0  0  0  0  0
   58.6050   33.3040   46.0720 C   0  0  0  0  0  0  0  0  0  0  0  0
   57.1940   33.1800   45.5580 C   0  0  0  0  0  0  0  0  0  0  0  0
   57.0530   32.0000   44.5960 C   0  0  0  0  0  0  0  0  0  0  0  0
   57.0180   30.7440   45.3380 N   0  0  0  0  0  0  0  0  0  0  0  0
   56.5010   29.5180   44.8120 C   0  0  0  0  0  0  0  0  0  0  0  0
   55.3750   29.5310   44.2480 O   0  0  0  0  0  0  0  0  0  0  0  0
   57.2840   28.2340   44.9290 C   0  0  0  0  0  0  0  0  0  0  0  0
   57.1320   27.5580   46.2980 C   0  0  0  0  0  0  0  0  0  0  0  0
   56.8120   26.1410   46.1240 N   0  0  0  0  0  0  0  0  0  0  0  0
   55.5870   25.6050   45.9370 C   0  0  0  0  0  0  0  0  0  0  0  0
   54.4040   26.3350   45.9410 O   0  0  0  0  0  0  0  0  0  0  0  0
   55.6850   24.2440   45.7270 C   0  0  0  0  0  0  0  0  0  0  0  0
   57.0220   23.9360   45.7710 C   0  0  0  0  0  0  0  0  0  0  0  0
   57.6900   25.1210   46.0060 C   0  0  0  0  0  0  0  0  0  0  0  0
   59.0700   25.2640   46.0940 O   0  0  0  0  0  0  0  0  0  0  0  0
   57.5760   22.5680   45.5370 C   0  0  0  0  0  0  0  0  0  0  0  0
   56.4740   21.5420   45.3630 C   0  0  0  0  0  0  0  0  0  0  0  0
   55.1570   21.8440   45.3220 C   0  0  0  0  0  0  0  0  0  0  0  0
   54.6050   23.2510   45.4430 C   0  0  0  0  0  0  0  0  0  0  0  0
   59.2430   32.2070   46.6710 C   0  0  0  0  0  0  0  0  0  0  0  0
   60.5640   32.3140   47.1170 C   0  0  0  0  0  0  0  0  0  0  0  0
  1  2  1  0
  2  3  2  0
  2  4  2  0
  2  5  1  0
  5  6  2  0
  6  7  1  0
  7  8  2  0
  8  9  1  0
  9 10  1  0
 10 11  1  0
 11 12  1  0
 12 13  2  0
 12 14  1  0
 14 15  1  0
 15 16  1  0
 16 17  1  0
 17 18  1  0
 17 19  2  0
 19 20  1  0
 20 21  2  0
 21 22  1  0
 20 23  1  0
 23 24  1  0
 24 25  2  0
 25 26  1  0
  8 27  1  0
 27 28  2  0
 28  5  1  0
 21 16  1  0
 26 19  1  0
M  CHG  4   1  -1  11  -1  18  -1  22  -1
M  END
>  <UniqueID>  (1344) 
75

>  <SMILES>  (1344) 
[NH-]S(=O)(=O)c1ccc(CC[N-]C(=O)CCn2c([O-])c3c(c2[O-])CC=CC3)cc1

>  <Energy>  (1344) 
73.68879627051794

>  <Genealogy>  (1344) 
[NH-]S(=O)(=O)c1ccc(CC[N-]C(=O)CCn2c([O-])c3c(c2[O-])CC=CC3)cc1 (protonated)
[NH-]S(=O)(=O)c1ccc(CC[N-]C(=O)CCn2c([O-])c3c(c2[O-])CC=CC3)cc1 (3D coordinates assigned)
[NH-]S(=O)(=O)c1ccc(CC[N-]C(=O)CCn2c([O-])c3c(c2[O-])CC=CC3)cc1 (nonaromatic ring conformer: 73.68879627051794 kcal/mol)

>  <smiles>  (1344) 
NS(=O)(=O)c1ccc(CCNC(=O)CCn2c(O)c3c(c2O)CC=CC3)cc1

>  <score_type>  (1344) 
oracle

>  <origin>  (1344) 
adg

>  <m_score__min__energy>  (1344) 
-15.91

>  <m_primary>  (1344) 
energy

$$$$
11:0
     RDKit          3D

 29 32  0  0  0  0  0  0  0  0999 V2000
   58.9600   26.5090   46.0200 C   0  0  0  0  0  0  0  0  0  0  0  0
   58.3230   27.6410   45.6140 N   0  0  0  0  0  0  0  0  0  0  0  0
   56.9620   27.7440   45.6100 C   0  0  0  0  0  0  0  0  0  0  0  0
   56.3740   28.8320   45.2040 N   0  0  0  0  0  0  0  0  0  0  0  0
   56.8940   29.7660   44.2450 C   0  0  0  0  0  0  0  0  0  0  0  0
   56.7250   29.5270   43.0190 O   0  0  0  0  0  0  0  0  0  0  0  0
   57.5660   31.0250   44.6510 C   0  0  0  0  0  0  0  0  0  0  0  0
   58.4590   31.0460   45.7350 C   0  0  0  0  0  0  0  0  0  0  0  0
   59.0780   32.2380   46.1200 C   0  0  0  0  0  0  0  0  0  0  0  0
   58.8000   33.4350   45.4410 C   0  0  0  0  0  0  0  0  0  0  0  0
   59.4700   34.7280   45.8570 C   0  0  0  0  0  0  0  0  0  0  0  0
   60.3880   34.5870   47.0090 N   0  0  0  0  0  0  0  0  0  0  0  0
   61.5440   33.7140   46.7390 C   0  0  0  0  0  0  0  0  0  0  0  0
   62.5790   33.8350   47.8760 C   0  0  0  0  0  0  0  0  0  0  0  0
   62.0330   34.5700   49.0380 N   0  0  0  0  0  0  0  0  0  0  0  0
   62.9770   34.5080   50.1710 C   0  0  0  0  0  0  0  0  0  0  0  0
   63.6680   33.1780   50.2040 C   0  0  0  0  0  0  0  0  0  0  0  0
   64.9690   32.9200   49.8230 C   0  0  0  0  0  0  0  0  0  0  0  0
   65.2300   31.6470   50.0220 O   0  0  0  0  0  0  0  0  0  0  0  0
   64.1620   31.0630   50.5180 C   0  0  0  0  0  0  0  0  0  0  0  0
   63.1450   31.9860   50.6550 C   0  0  0  0  0  0  0  0  0  0  0  0
   60.7110   34.0220   49.4130 C   0  0  0  0  0  0  0  0  0  0  0  0
   59.7050   34.1880   48.2550 C   0  0  0  0  0  0  0  0  0  0  0  0
   57.9040   33.4160   44.3610 C   0  0  0  0  0  0  0  0  0  0  0  0
   57.2840   32.2230   43.9750 C   0  0  0  0  0  0  0  0  0  0  0  0
   56.1890   26.6470   46.0190 C   0  0  0  0  0  0  0  0  0  0  0  0
   54.7990   26.7160   46.0130 O   0  0  0  0  0  0  0  0  0  0  0  0
   56.8240   25.4750   46.4370 C   0  0  0  0  0  0  0  0  0  0  0  0
   58.2180   25.4040   46.4410 C   0  0  0  0  0  0  0  0  0  0  0  0
  1  2  1  0
  2  3  1  0
  3  4  2  0
  4  5  1  0
  5  6  2  0
  5  7  1  0
  7  8  2  0
  8  9  1  0
  9 10  2  0
 10 11  1  0
 11 12  1  0
 12 13  1  0
 13 14  1  0
 14 15  1  0
 15 16  1  0
 16 17  1  0
 17 18  2  0
 18 19  1  0
 19 20  1  0
 20 21  2  0
 15 22  1  0
 22 23  1  0
 10 24  1  0
 24 25  2  0
  3 26  1  0
 26 27  1  0
 26 28  2  0
 28 29  1  0
 29  1  2  0
 25  7  1  0
 23 12  1  0
 21 17  1  0
M  CHG  2   2  -1  27  -1
M  END
>  <UniqueID>  (1345) 
12

>  <SMILES>  (1345) 
O=C(/N=c1\[n-]cccc1[O-])c1ccc(CN2CCN(Cc3ccoc3)CC2)cc1

>  <Energy>  (1345) 
99.97870658638564

>  <Genealogy>  (1345) 
O=C(N=c1[n-]cccc1[O-])c1ccc(CN2CCN(Cc3ccoc3)CC2)cc1 (protonated)
O=C(/N=c1\[n-]cccc1[O-])c1ccc(CN2CCN(Cc3ccoc3)CC2)cc1 (cis-trans isomerization)
O=C(/N=c1\[n-]cccc1[O-])c1ccc(CN2CCN(Cc3ccoc3)CC2)cc1 (3D coordinates assigned)
O=C(/N=c1\[n-]cccc1[O-])c1ccc(CN2CCN(Cc3ccoc3)CC2)cc1 (nonaromatic ring conformer: 99.97870658638564 kcal/mol)

>  <smiles>  (1345) 
O=C(N=c1[nH]cccc1O)c1ccc(CN2CCN(Cc3ccoc3)CC2)cc1

>  <score_type>  (1345) 
oracle

>  <origin>  (1345) 
adg

>  <m_score__min__energy>  (1345) 
-14.050000000000001

>  <m_primary>  (1345) 
energy

$$$$
18:0
     RDKit          3D

 32 35  0  0  0  0  0  0  0  0999 V2000
   56.4240   29.4450   43.3140 C   0  0  0  0  0  0  0  0  0  0  0  0
   57.4570   29.1770   44.1300 C   0  0  0  0  0  0  0  0  0  0  0  0
   57.9320   27.9070   44.5010 C   0  0  0  0  0  0  0  0  0  0  0  0
   57.4130   26.6780   44.3130 C   0  0  0  0  0  0  0  0  0  0  0  0
   57.0440   25.7320   45.3760 C   0  0  0  0  0  0  0  0  0  0  0  0
   58.0610   24.5340   45.9790 S   0  0  0  0  0  0  0  0  0  0  0  0
   56.9740   24.1000   47.1840 C   0  0  0  0  0  0  0  0  0  0  0  0
   57.1690   23.1790   48.0180 O   0  0  0  0  0  0  0  0  0  0  0  0
   55.8570   24.8590   47.1750 N   0  0  0  0  0  0  0  0  0  0  0  0
   55.9040   25.7800   46.1780 C   0  0  0  0  0  0  0  0  0  0  0  0
   54.8880   26.7110   46.0000 O   0  0  0  0  0  0  0  0  0  0  0  0
   59.1290   28.1200   45.1620 C   0  0  0  0  0  0  0  0  0  0  0  0
   59.3170   29.4850   45.2240 C   0  0  0  0  0  0  0  0  0  0  0  0
   60.4810   30.1510   45.8920 C   0  0  0  0  0  0  0  0  0  0  0  0
   58.2930   30.1320   44.6190 N   0  0  0  0  0  0  0  0  0  0  0  0
   58.1930   31.5880   44.4400 C   0  0  0  0  0  0  0  0  0  0  0  0
   57.4370   32.2190   45.6130 C   0  0  0  0  0  0  0  0  0  0  0  0
   58.3740   32.5040   46.7540 C   0  0  0  0  0  0  0  0  0  0  0  0
   58.6340   31.5190   47.7200 C   0  0  0  0  0  0  0  0  0  0  0  0
   59.5290   31.7730   48.7630 C   0  0  0  0  0  0  0  0  0  0  0  0
   60.1840   33.0090   48.8460 C   0  0  0  0  0  0  0  0  0  0  0  0
   61.2940   33.3510   50.1710 S   0  0  0  0  0  0  0  0  0  0  0  0
   60.5900   34.1540   51.2300 O   0  0  0  0  0  0  0  0  0  0  0  0
   61.7220   32.0440   50.7780 O   0  0  0  0  0  0  0  0  0  0  0  0
   62.7080   34.2050   49.5870 N   0  0  0  0  0  0  0  0  0  0  0  0
   63.9490   33.7330   50.2290 C   0  0  0  0  0  0  0  0  0  0  0  0
   64.3680   32.3250   49.7540 C   0  0  0  0  0  0  0  0  0  0  0  0
   63.8400   31.9930   48.4200 N   0  0  0  0  0  0  0  0  0  0  0  0
   63.7990   33.1740   47.5570 C   0  0  0  0  0  0  0  0  0  0  0  0
   62.7870   34.1960   48.1070 C   0  0  0  0  0  0  0  0  0  0  0  0
   59.9340   33.9900   47.8770 C   0  0  0  0  0  0  0  0  0  0  0  0
   59.0400   33.7380   46.8330 C   0  0  0  0  0  0  0  0  0  0  0  0
  1  2  2  0
  2  3  1  0
  3  4  2  0
  4  5  1  0
  5  6  1  0
  6  7  1  0
  7  8  2  0
  7  9  1  0
  9 10  1  0
 10 11  1  0
  3 12  1  0
 12 13  2  0
 13 14  1  0
 13 15  1  0
 15 16  1  0
 16 17  1  0
 17 18  1  0
 18 19  2  0
 19 20  1  0
 20 21  2  0
 21 22  1  0
 22 23  2  0
 22 24  2  0
 22 25  1  0
 25 26  1  0
 26 27  1  0
 27 28  1  0
 28 29  1  0
 29 30  1  0
 21 31  1  0
 31 32  2  0
 15  2  1  0
 32 18  1  0
 10  5  2  0
 30 25  1  0
M  CHG  2   9  -1  11  -1
M  END
>  <UniqueID>  (1346) 
19

>  <SMILES>  (1346) 
C=c1/c(=C\c2sc(=O)[n-]c2[O-])cc(C)n1CCc1ccc(S(=O)(=O)N2CCNCC2)cc1

>  <Energy>  (1346) 
134.6514826891872

>  <Genealogy>  (1346) 
C=c1c(=Cc2sc(=O)[n-]c2[O-])cc(C)n1CCc1ccc(S(=O)(=O)N2CCNCC2)cc1 (protonated)
C=c1/c(=C\c2sc(=O)[n-]c2[O-])cc(C)n1CCc1ccc(S(=O)(=O)N2CCNCC2)cc1 (cis-trans isomerization)
C=c1/c(=C\c2sc(=O)[n-]c2[O-])cc(C)n1CCc1ccc(S(=O)(=O)N2CCNCC2)cc1 (3D coordinates assigned)
C=c1/c(=C\c2sc(=O)[n-]c2[O-])cc(C)n1CCc1ccc(S(=O)(=O)N2CCNCC2)cc1 (nonaromatic ring conformer: 134.6514826891872 kcal/mol)

>  <smiles>  (1346) 
C=c1c(=Cc2sc(=O)[nH]c2O)cc(C)n1CCc1ccc(S(=O)(=O)N2CCNCC2)cc1

>  <score_type>  (1346) 
oracle

>  <origin>  (1346) 
adg

>  <m_score__min__energy>  (1346) 
-16.960000000000001

>  <m_primary>  (1346) 
energy

$$$$
19:0
     RDKit          3D

 30 32  0  0  0  0  0  0  0  0999 V2000
   58.0410   31.6850   42.5970 C   0  0  0  0  0  0  0  0  0  0  0  0
   57.8240   32.9830   43.3660 C   0  0  0  0  0  0  0  0  0  0  0  0
   58.7540   33.0900   44.4430 O   0  0  0  0  0  0  0  0  0  0  0  0
   58.5270   33.8630   45.5890 C   0  0  0  0  0  0  0  0  0  0  0  0
   57.4280   34.4650   45.7370 O   0  0  0  0  0  0  0  0  0  0  0  0
   59.5430   33.9440   46.6050 N   0  0  0  0  0  0  0  0  0  0  0  0
   60.8490   33.3190   46.3780 C   0  0  0  0  0  0  0  0  0  0  0  0
   61.6420   33.1780   47.6870 C   0  0  0  0  0  0  0  0  0  0  0  0
   60.7860   32.8500   48.8460 N   0  0  0  0  0  0  0  0  0  0  0  0
   60.3880   31.1450   48.9430 S   0  0  0  0  0  0  0  0  0  0  0  0
   61.5480   30.4140   49.5610 O   0  0  0  0  0  0  0  0  0  0  0  0
   59.1990   30.9590   49.8440 O   0  0  0  0  0  0  0  0  0  0  0  0
   60.0210   30.4320   47.3690 C   0  0  0  0  0  0  0  0  0  0  0  0
   61.0510   29.9370   46.5590 C   0  0  0  0  0  0  0  0  0  0  0  0
   60.7560   29.3520   45.3250 C   0  0  0  0  0  0  0  0  0  0  0  0
   59.4330   29.2630   44.8880 C   0  0  0  0  0  0  0  0  0  0  0  0
   58.3860   29.7630   45.6820 C   0  0  0  0  0  0  0  0  0  0  0  0
   56.9780   29.6620   45.2200 C   0  0  0  0  0  0  0  0  0  0  0  0
   56.3640   30.6940   44.8390 O   0  0  0  0  0  0  0  0  0  0  0  0
   56.2690   28.4160   45.2710 N   0  0  0  0  0  0  0  0  0  0  0  0
   56.6550   27.3010   45.8300 C   0  0  0  0  0  0  0  0  0  0  0  0
   57.9740   27.1710   46.1420 N   0  0  0  0  0  0  0  0  0  0  0  0
   58.4870   26.0390   46.6910 C   0  0  0  0  0  0  0  0  0  0  0  0
   57.6550   24.9520   46.9570 C   0  0  0  0  0  0  0  0  0  0  0  0
   56.2940   25.0550   46.6780 C   0  0  0  0  0  0  0  0  0  0  0  0
   55.7740   26.2320   46.1330 C   0  0  0  0  0  0  0  0  0  0  0  0
   54.4010   26.3250   45.9470 O   0  0  0  0  0  0  0  0  0  0  0  0
   58.6940   30.3590   46.9190 C   0  0  0  0  0  0  0  0  0  0  0  0
   59.6120   33.7330   49.0470 C   0  0  0  0  0  0  0  0  0  0  0  0
   59.3210   34.6610   47.8610 C   0  0  0  0  0  0  0  0  0  0  0  0
  1  2  1  0
  2  3  1  0
  3  4  1  0
  4  5  2  0
  4  6  1  0
  6  7  1  0
  7  8  1  0
  8  9  1  0
  9 10  1  0
 10 11  2  0
 10 12  2  0
 10 13  1  0
 13 14  2  0
 14 15  1  0
 15 16  2  0
 16 17  1  0
 17 18  1  0
 18 19  2  0
 18 20  1  0
 20 21  2  3
 21 22  1  0
 22 23  1  0
 23 24  2  0
 24 25  1  0
 25 26  2  0
 26 27  1  0
 17 28  2  0
  9 29  1  0
 29 30  1  0
 30  6  1  0
 28 13  1  0
 26 21  1  0
M  CHG  2  22  -1  27  -1
M  END
>  <UniqueID>  (1347) 
20

>  <SMILES>  (1347) 
CCOC(=O)N1CCN(S(=O)(=O)c2cccc(C(=O)N=c3[n-]cccc3[O-])c2)CC1

>  <Energy>  (1347) 
64.68243614078041

>  <Genealogy>  (1347) 
CCOC(=O)N1CCN(S(=O)(=O)c2cccc(C(=O)N=c3[n-]cccc3[O-])c2)CC1 (protonated)
CCOC(=O)N1CCN(S(=O)(=O)c2cccc(C(=O)N=c3[n-]cccc3[O-])c2)CC1 (3D coordinates assigned)
CCOC(=O)N1CCN(S(=O)(=O)c2cccc(C(=O)N=c3[n-]cccc3[O-])c2)CC1 (nonaromatic ring conformer: 64.68243614078041 kcal/mol)

>  <smiles>  (1347) 
CCOC(=O)N1CCN(S(=O)(=O)c2cccc(C(=O)N=c3[nH]cccc3O)c2)CC1

>  <score_type>  (1347) 
oracle

>  <origin>  (1347) 
adg

>  <m_score__min__energy>  (1347) 
-14.82

>  <m_primary>  (1347) 
energy

$$$$
32:0
     RDKit          3D

 30 32  0  0  0  0  0  0  0  0999 V2000
   59.2540   29.0250   48.6330 C   0  0  0  0  0  0  0  0  0  0  0  0
   59.1130   30.4700   49.6640 S   0  0  0  0  0  0  0  0  0  0  0  0
   60.1720   30.4650   50.7270 O   0  0  0  0  0  0  0  0  0  0  0  0
   57.7660   30.4540   50.3260 O   0  0  0  0  0  0  0  0  0  0  0  0
   59.2480   31.9120   48.7050 N   0  0  0  0  0  0  0  0  0  0  0  0
   58.6060   32.1380   47.4390 C   0  0  0  0  0  0  0  0  0  0  0  0
   58.1310   33.4240   47.1490 C   0  0  0  0  0  0  0  0  0  0  0  0
   57.4960   33.6880   45.9340 C   0  0  0  0  0  0  0  0  0  0  0  0
   57.3260   32.6690   44.9960 C   0  0  0  0  0  0  0  0  0  0  0  0
   57.7820   31.3680   45.2700 C   0  0  0  0  0  0  0  0  0  0  0  0
   57.5940   30.2610   44.2610 C   0  0  0  0  0  0  0  0  0  0  0  0
   57.5700   28.9070   44.9380 C   0  0  0  0  0  0  0  0  0  0  0  0
   56.3330   28.2920   45.2220 C   0  0  0  0  0  0  0  0  0  0  0  0
   55.1440   28.9680   44.9640 O   0  0  0  0  0  0  0  0  0  0  0  0
   56.3130   27.0080   45.7950 C   0  0  0  0  0  0  0  0  0  0  0  0
   55.0910   26.3150   46.0840 N   0  0  0  0  0  0  0  0  0  0  0  0
   54.7380   25.0040   45.6200 C   0  0  0  0  0  0  0  0  0  0  0  0
   53.5260   24.6710   45.5420 O   0  0  0  0  0  0  0  0  0  0  0  0
   55.7850   24.0820   45.1210 C   0  0  0  0  0  0  0  0  0  0  0  0
   55.9290   23.8330   43.7420 C   0  0  0  0  0  0  0  0  0  0  0  0
   56.8790   22.9170   43.2790 C   0  0  0  0  0  0  0  0  0  0  0  0
   57.7000   22.2420   44.1880 C   0  0  0  0  0  0  0  0  0  0  0  0
   57.5810   22.4960   45.5570 C   0  0  0  0  0  0  0  0  0  0  0  0
   56.6340   23.4110   46.0250 C   0  0  0  0  0  0  0  0  0  0  0  0
   57.5190   26.4000   46.1410 C   0  0  0  0  0  0  0  0  0  0  0  0
   58.7280   27.0360   45.8550 C   0  0  0  0  0  0  0  0  0  0  0  0
   59.8140   26.4700   46.1570 O   0  0  0  0  0  0  0  0  0  0  0  0
   58.7380   28.2590   45.2490 N   0  0  0  0  0  0  0  0  0  0  0  0
   59.9520   28.8430   44.9600 O   0  0  0  0  0  0  0  0  0  0  0  0
   58.4380   31.1150   46.4870 C   0  0  0  0  0  0  0  0  0  0  0  0
  1  2  1  0
  2  3  2  0
  2  4  2  0
  2  5  1  0
  5  6  1  0
  6  7  2  0
  7  8  1  0
  8  9  2  0
  9 10  1  0
 10 11  1  0
 11 12  1  0
 12 13  2  0
 13 14  1  0
 13 15  1  0
 15 16  1  0
 16 17  1  0
 17 18  2  0
 17 19  1  0
 19 20  2  0
 20 21  1  0
 21 22  2  0
 22 23  1  0
 23 24  2  0
 15 25  2  0
 25 26  1  0
 26 27  2  0
 26 28  1  0
 28 29  1  0
 10 30  2  0
 30  6  1  0
 28 12  1  0
 24 19  1  0
M  CHG  4   5  -1  14  -1  16  -1  29  -1
M  END
>  <UniqueID>  (1348) 
33

>  <SMILES>  (1348) 
CS(=O)(=O)[N-]c1cccc(Cc2c([O-])c([N-]C(=O)c3ccccc3)cc(=O)n2[O-])c1

>  <Energy>  (1348) 
55.608387704361064

>  <Genealogy>  (1348) 
CS(=O)(=O)[N-]c1cccc(Cc2c([O-])c([N-]C(=O)c3ccccc3)cc(=O)n2[O-])c1 (protonated)
CS(=O)(=O)[N-]c1cccc(Cc2c([O-])c([N-]C(=O)c3ccccc3)cc(=O)n2[O-])c1 (3D coordinates assigned)
CS(=O)(=O)[N-]c1cccc(Cc2c([O-])c([N-]C(=O)c3ccccc3)cc(=O)n2[O-])c1 (optimized conformer: 55.608387704361064 kcal/mol)

>  <smiles>  (1348) 
CS(=O)(=O)Nc1cccc(Cc2c(O)c(NC(=O)c3ccccc3)cc(=O)n2O)c1

>  <score_type>  (1348) 
oracle

>  <origin>  (1348) 
adg

>  <m_score__min__energy>  (1348) 
-16.370000000000001

>  <m_primary>  (1348) 
energy

$$$$
34:0
     RDKit          3D

 36 40  0  0  0  0  0  0  0  0999 V2000
   57.1570   28.1210   44.6670 C   0  0  0  0  0  0  0  0  0  0  0  0
   57.8610   27.3350   45.4990 C   0  0  0  0  0  0  0  0  0  0  0  0
   57.8600   25.9360   45.5190 C   0  0  0  0  0  0  0  0  0  0  0  0
   57.1470   25.1090   44.7300 C   0  0  0  0  0  0  0  0  0  0  0  0
   55.7740   24.6630   45.0300 C   0  0  0  0  0  0  0  0  0  0  0  0
   55.3560   23.3960   44.8660 N   0  0  0  0  0  0  0  0  0  0  0  0
   54.0890   23.4190   45.3330 C   0  0  0  0  0  0  0  0  0  0  0  0
   53.3490   22.4020   45.3350 O   0  0  0  0  0  0  0  0  0  0  0  0
   53.6820   24.6150   45.8080 N   0  0  0  0  0  0  0  0  0  0  0  0
   54.7630   25.3900   45.6220 C   0  0  0  0  0  0  0  0  0  0  0  0
   54.8370   26.7160   46.0280 O   0  0  0  0  0  0  0  0  0  0  0  0
   58.6980   25.5610   46.5610 C   0  0  0  0  0  0  0  0  0  0  0  0
   59.1860   26.7280   47.1160 C   0  0  0  0  0  0  0  0  0  0  0  0
   60.1140   26.7880   48.2900 C   0  0  0  0  0  0  0  0  0  0  0  0
   58.6750   27.8030   46.4770 N   0  0  0  0  0  0  0  0  0  0  0  0
   58.9670   29.1780   46.7850 C   0  0  0  0  0  0  0  0  0  0  0  0
   59.4090   30.0450   45.7810 C   0  0  0  0  0  0  0  0  0  0  0  0
   59.6710   31.3840   46.0730 C   0  0  0  0  0  0  0  0  0  0  0  0
   59.4860   31.8800   47.3730 C   0  0  0  0  0  0  0  0  0  0  0  0
   59.7290   33.3170   47.6130 C   0  0  0  0  0  0  0  0  0  0  0  0
   58.7430   34.1070   47.6230 O   0  0  0  0  0  0  0  0  0  0  0  0
   61.0490   33.7900   47.9740 N   0  0  2  0  0  0  0  0  0  0  0  0
   62.0610   32.8380   47.4820 C   0  0  0  0  0  0  0  0  0  0  0  0
   63.4820   33.3730   47.7180 C   0  0  0  0  0  0  0  0  0  0  0  0
   63.7430   33.8420   49.1750 C   0  0  2  0  0  0  0  0  0  0  0  0
   64.3420   32.8180   50.0810 N   0  0  0  0  0  0  0  0  0  0  0  0
   63.6120   31.5330   50.1670 C   0  0  0  0  0  0  0  0  0  0  0  0
   64.2180   30.5990   51.2370 C   0  0  0  0  0  0  0  0  0  0  0  0
   65.4380   31.2130   51.9270 C   0  0  0  0  0  0  0  0  0  0  0  0
   66.4430   31.7300   50.8930 C   0  0  0  0  0  0  0  0  0  0  0  0
   65.7730   32.5760   49.7880 C   0  0  0  0  0  0  0  0  0  0  0  0
   62.5260   34.5440   49.8270 C   0  0  0  0  0  0  0  0  0  0  0  0
   61.1630   33.9550   49.4360 C   0  0  0  0  0  0  0  0  0  0  0  0
   59.0690   31.0020   48.4020 C   0  0  0  0  0  0  0  0  0  0  0  0
   58.9070   31.4680   49.8250 C   0  0  0  0  0  0  0  0  0  0  0  0
   58.7960   29.6590   48.0910 C   0  0  0  0  0  0  0  0  0  0  0  0
  1  2  2  0
  2  3  1  0
  3  4  2  0
  4  5  1  0
  5  6  1  0
  6  7  1  0
  7  8  2  0
  7  9  1  0
  9 10  1  0
 10 11  1  0
  3 12  1  0
 12 13  2  0
 13 14  1  0
 13 15  1  0
 15 16  1  0
 16 17  2  0
 17 18  1  0
 18 19  2  0
 19 20  1  0
 20 21  2  0
 22 20  1  1
 22 23  1  0
 23 24  1  0
 24 25  1  0
 25 26  1  1
 26 27  1  0
 27 28  1  0
 28 29  1  0
 29 30  1  0
 30 31  1  0
 25 32  1  0
 32 33  1  0
 19 34  1  0
 34 35  1  0
 34 36  2  0
 15  2  1  0
 36 16  1  0
 10  5  2  0
 33 22  1  0
 31 26  1  0
M  CHG  4   6  -1   9  -1  11  -1  22   1
M  END
>  <UniqueID>  (1349) 
35

>  <SMILES>  (1349) 
C=c1/c(=C/c2[n-]c(=O)[n-]c2[O-])cc(C)n1-c1ccc(C(=O)[NH+]2CCC(N3CCCCC3)CC2)c(C)c1

>  <Energy>  (1349) 
166.08666805622164

>  <Genealogy>  (1349) 
C=c1c(=Cc2[n-]c(=O)[n-]c2[O-])cc(C)n1-c1ccc(C(=O)[NH+]2CCC(N3CCCCC3)CC2)c(C)c1 (protonated)
C=c1/c(=C/c2[n-]c(=O)[n-]c2[O-])cc(C)n1-c1ccc(C(=O)[NH+]2CCC(N3CCCCC3)CC2)c(C)c1 (cis-trans isomerization)
C=c1/c(=C/c2[n-]c(=O)[n-]c2[O-])cc(C)n1-c1ccc(C(=O)[NH+]2CCC(N3CCCCC3)CC2)c(C)c1 (3D coordinates assigned)
C=c1/c(=C/c2[n-]c(=O)[n-]c2[O-])cc(C)n1-c1ccc(C(=O)[NH+]2CCC(N3CCCCC3)CC2)c(C)c1 (nonaromatic ring conformer: 166.08666805622164 kcal/mol)

>  <smiles>  (1349) 
C=c1c(=Cc2[nH]c(=O)[nH]c2O)cc(C)n1-c1ccc(C(=O)N2CCC(N3CCCCC3)CC2)c(C)c1

>  <score_type>  (1349) 
oracle

>  <origin>  (1349) 
adg

>  <m_score__min__energy>  (1349) 
-17.489999999999998

>  <m_primary>  (1349) 
energy

$$$$
66:0
     RDKit          3D

 29 32  0  0  0  0  0  0  0  0999 V2000
   59.6380   30.0640   45.0190 C   0  0  0  0  0  0  0  0  0  0  0  0
   59.3880   29.8400   46.3180 C   0  0  0  0  0  0  0  0  0  0  0  0
   58.4630   28.9310   46.8420 C   0  0  0  0  0  0  0  0  0  0  0  0
   57.6450   28.1090   46.1580 C   0  0  0  0  0  0  0  0  0  0  0  0
   57.5280   26.6590   46.4330 C   0  0  0  0  0  0  0  0  0  0  0  0
   56.2770   26.0300   46.3670 C   0  0  0  0  0  0  0  0  0  0  0  0
   55.1440   26.7530   46.0070 O   0  0  0  0  0  0  0  0  0  0  0  0
   56.1660   24.7040   46.6450 N   0  0  0  0  0  0  0  0  0  0  0  0
   57.2550   23.9720   47.0030 C   0  0  0  0  0  0  0  0  0  0  0  0
   57.1380   22.7430   47.2510 O   0  0  0  0  0  0  0  0  0  0  0  0
   58.4720   24.5650   47.1000 N   0  0  0  0  0  0  0  0  0  0  0  0
   58.6330   25.8870   46.8350 C   0  0  0  0  0  0  0  0  0  0  0  0
   59.7720   26.4080   46.9720 O   0  0  0  0  0  0  0  0  0  0  0  0
   58.5800   29.0070   48.2240 C   0  0  0  0  0  0  0  0  0  0  0  0
   59.5440   29.9600   48.4870 C   0  0  0  0  0  0  0  0  0  0  0  0
   60.0110   30.3460   49.8570 C   0  0  0  0  0  0  0  0  0  0  0  0
   60.0320   30.4680   47.3340 N   0  0  0  0  0  0  0  0  0  0  0  0
   61.0420   31.4890   47.2280 C   0  0  0  0  0  0  0  0  0  0  0  0
   62.3590   31.1900   47.6060 C   0  0  0  0  0  0  0  0  0  0  0  0
   63.3680   32.1450   47.4750 C   0  0  0  0  0  0  0  0  0  0  0  0
   63.0720   33.4080   46.9610 C   0  0  0  0  0  0  0  0  0  0  0  0
   61.7640   33.7230   46.5860 C   0  0  0  0  0  0  0  0  0  0  0  0
   60.7340   32.7760   46.7230 C   0  0  0  0  0  0  0  0  0  0  0  0
   59.3520   33.1480   46.3390 C   0  0  0  0  0  0  0  0  0  0  0  0
   58.3110   33.1130   47.2840 C   0  0  0  0  0  0  0  0  0  0  0  0
   57.0070   33.4430   46.9090 C   0  0  0  0  0  0  0  0  0  0  0  0
   56.7300   33.8220   45.5930 C   0  0  0  0  0  0  0  0  0  0  0  0
   57.7610   33.8750   44.6500 C   0  0  0  0  0  0  0  0  0  0  0  0
   59.0670   33.5440   45.0210 C   0  0  0  0  0  0  0  0  0  0  0  0
  1  2  2  0
  2  3  1  0
  3  4  2  0
  4  5  1  0
  5  6  2  0
  6  7  1  0
  6  8  1  0
  8  9  1  0
  9 10  2  0
  9 11  1  0
 11 12  1  0
 12 13  2  0
  3 14  1  0
 14 15  2  0
 15 16  1  0
 15 17  1  0
 17 18  1  0
 18 19  2  0
 19 20  1  0
 20 21  2  0
 21 22  1  0
 22 23  2  0
 23 24  1  0
 24 25  2  0
 25 26  1  0
 26 27  2  0
 27 28  1  0
 28 29  2  0
 17  2  1  0
 23 18  1  0
 29 24  1  0
 12  5  1  0
M  CHG  2   7  -1  11  -1
M  END
>  <UniqueID>  (1350) 
66

>  <SMILES>  (1350) 
C=c1/c(=C/c2c([O-])[nH]c(=O)[n-]c2=O)cc(C)n1-c1ccccc1-c1ccccc1

>  <Energy>  (1350) 
99.98786928857415

>  <Genealogy>  (1350) 
C=c1c(=Cc2c([O-])[nH]c(=O)[n-]c2=O)cc(C)n1-c1ccccc1-c1ccccc1 (protonated)
C=c1/c(=C/c2c([O-])[nH]c(=O)[n-]c2=O)cc(C)n1-c1ccccc1-c1ccccc1 (cis-trans isomerization)
C=c1/c(=C/c2c([O-])[nH]c(=O)[n-]c2=O)cc(C)n1-c1ccccc1-c1ccccc1 (3D coordinates assigned)
C=c1/c(=C/c2c([O-])[nH]c(=O)[n-]c2=O)cc(C)n1-c1ccccc1-c1ccccc1 (optimized conformer: 99.98786928857415 kcal/mol)

>  <smiles>  (1350) 
C=c1c(=Cc2c(O)[nH]c(=O)[nH]c2=O)cc(C)n1-c1ccccc1-c1ccccc1

>  <score_type>  (1350) 
oracle

>  <origin>  (1350) 
adg

>  <m_score__min__energy>  (1350) 
-14.18

>  <m_primary>  (1350) 
energy

$$$$
70:0
     RDKit          3D

 31 34  0  0  0  0  0  0  0  0999 V2000
   57.8610   27.9640   44.0030 C   0  0  0  0  0  0  0  0  0  0  0  0
   58.0710   27.6850   45.3000 C   0  0  0  0  0  0  0  0  0  0  0  0
   58.1160   26.4140   45.8940 C   0  0  0  0  0  0  0  0  0  0  0  0
   57.7430   25.2070   45.4260 C   0  0  0  0  0  0  0  0  0  0  0  0
   56.3930   24.6290   45.5390 C   0  0  0  0  0  0  0  0  0  0  0  0
   56.0910   23.3370   45.3140 N   0  0  0  0  0  0  0  0  0  0  0  0
   54.7440   23.3110   45.4080 C   0  0  0  0  0  0  0  0  0  0  0  0
   54.0760   22.2540   45.2740 O   0  0  0  0  0  0  0  0  0  0  0  0
   54.1700   24.5100   45.6510 N   0  0  0  0  0  0  0  0  0  0  0  0
   55.2280   25.3340   45.7160 C   0  0  0  0  0  0  0  0  0  0  0  0
   55.1340   26.7060   45.9320 O   0  0  0  0  0  0  0  0  0  0  0  0
   58.6320   26.6000   47.1660 C   0  0  0  0  0  0  0  0  0  0  0  0
   58.8030   27.9580   47.3340 C   0  0  0  0  0  0  0  0  0  0  0  0
   59.3180   28.6010   48.5870 C   0  0  0  0  0  0  0  0  0  0  0  0
   58.4640   28.6190   46.2040 N   0  0  0  0  0  0  0  0  0  0  0  0
   58.5410   30.0420   46.0060 C   0  0  0  0  0  0  0  0  0  0  0  0
   57.6420   30.6880   45.1450 C   0  0  0  0  0  0  0  0  0  0  0  0
   57.7180   32.0700   44.9570 C   0  0  0  0  0  0  0  0  0  0  0  0
   58.6900   32.8170   45.6280 C   0  0  0  0  0  0  0  0  0  0  0  0
   59.5950   32.1850   46.4970 C   0  0  0  0  0  0  0  0  0  0  0  0
   60.5990   32.9510   47.1840 N   0  0  0  0  0  0  0  0  0  0  0  0
   60.5100   33.1360   48.6380 C   0  0  0  0  0  0  0  0  0  0  0  0
   61.4920   34.2170   49.1210 C   0  0  0  0  0  0  0  0  0  0  0  0
   62.8760   34.0330   48.6210 N   0  0  0  0  0  0  0  0  0  0  0  0
   63.9200   33.3380   49.8400 S   0  0  0  0  0  0  0  0  0  0  0  0
   63.9100   34.2990   51.3430 C   0  0  0  0  0  0  0  0  0  0  0  0
   63.4650   31.9400   50.1550 O   0  0  0  0  0  0  0  0  0  0  0  0
   65.3250   33.2800   49.3120 O   0  0  0  0  0  0  0  0  0  0  0  0
   63.0020   33.2990   47.3420 C   0  0  0  0  0  0  0  0  0  0  0  0
   61.7640   33.4680   46.4630 C   0  0  0  0  0  0  0  0  0  0  0  0
   59.5160   30.7950   46.6780 C   0  0  0  0  0  0  0  0  0  0  0  0
  1  2  2  0
  2  3  1  0
  3  4  2  3
  4  5  1  0
  5  6  1  0
  6  7  1  0
  7  8  2  0
  7  9  1  0
  9 10  1  0
 10 11  1  0
  3 12  1  0
 12 13  2  0
 13 14  1  0
 13 15  1  0
 15 16  1  0
 16 17  2  0
 17 18  1  0
 18 19  2  0
 19 20  1  0
 20 21  1  0
 21 22  1  0
 22 23  1  0
 23 24  1  0
 24 25  1  0
 25 26  1  0
 25 27  2  0
 25 28  2  0
 24 29  1  0
 29 30  1  0
 20 31  2  0
 15  2  1  0
 31 16  1  0
 10  5  2  0
 30 21  1  0
M  CHG  2   6  -1   9  -1
M  END
>  <UniqueID>  (1351) 
70

>  <SMILES>  (1351) 
C=c1c(=Cc2[n-]c(=O)[n-]c2O)cc(C)n1-c1cccc(N2CCN(S(C)(=O)=O)CC2)c1

>  <Energy>  (1351) 
136.68590283353882

>  <Genealogy>  (1351) 
C=c1c(=Cc2[n-]c(=O)[n-]c2O)cc(C)n1-c1cccc(N2CCN(S(C)(=O)=O)CC2)c1 (protonated)
C=c1c(=Cc2[n-]c(=O)[n-]c2O)cc(C)n1-c1cccc(N2CCN(S(C)(=O)=O)CC2)c1 (3D coordinates assigned)
C=c1c(=Cc2[n-]c(=O)[n-]c2O)cc(C)n1-c1cccc(N2CCN(S(C)(=O)=O)CC2)c1 (nonaromatic ring conformer: 136.68590283353882 kcal/mol)

>  <smiles>  (1351) 
C=c1c(=Cc2[nH]c(=O)[nH]c2O)cc(C)n1-c1cccc(N2CCN(S(C)(=O)=O)CC2)c1

>  <score_type>  (1351) 
oracle

>  <origin>  (1351) 
adg

>  <m_score__min__energy>  (1351) 
-14.94

>  <m_primary>  (1351) 
energy

$$$$
77:0
     RDKit          3D

 32 35  0  0  0  0  0  0  0  0999 V2000
   51.0000   32.7150   49.3350 N   0  0  0  0  0  0  0  0  0  0  0  0
   51.3600   31.9480   50.4840 C   0  0  0  0  0  0  0  0  0  0  0  0
   51.1580   32.4130   51.6390 O   0  0  0  0  0  0  0  0  0  0  0  0
   51.9440   30.5810   50.3180 C   0  0  0  0  0  0  0  0  0  0  0  0
   53.0850   30.3860   51.2670 C   0  0  0  0  0  0  0  0  0  0  0  0
   54.1570   31.2220   51.2750 N   0  0  0  0  0  0  0  0  0  0  0  0
   55.0470   30.8770   52.2320 C   0  0  0  0  0  0  0  0  0  0  0  0
   56.1670   31.4970   52.4570 N   0  0  0  0  0  0  0  0  0  0  0  0
   57.3750   31.4030   51.6860 C   0  0  0  0  0  0  0  0  0  0  0  0
   58.3920   30.0670   51.5350 S   0  0  0  0  0  0  0  0  0  0  0  0
   59.5150   30.8110   50.5300 C   0  0  0  0  0  0  0  0  0  0  0  0
   59.0990   32.1240   50.2930 C   0  0  0  0  0  0  0  0  0  0  0  0
   59.8560   33.0930   49.4710 C   0  0  0  0  0  0  0  0  0  0  0  0
   60.2030   34.1920   49.9760 O   0  0  0  0  0  0  0  0  0  0  0  0
   60.2520   32.8010   48.1250 N   0  0  0  0  0  0  0  0  0  0  0  0
   59.3850   32.7670   46.9810 C   0  0  0  0  0  0  0  0  0  0  0  0
   59.1530   33.9110   46.1990 C   0  0  0  0  0  0  0  0  0  0  0  0
   58.3290   33.8350   45.0730 C   0  0  0  0  0  0  0  0  0  0  0  0
   57.7360   32.6210   44.7160 C   0  0  0  0  0  0  0  0  0  0  0  0
   57.9590   31.4680   45.4880 C   0  0  0  0  0  0  0  0  0  0  0  0
   57.3350   30.1820   45.1000 C   0  0  0  0  0  0  0  0  0  0  0  0
   56.1040   30.1540   44.8310 O   0  0  0  0  0  0  0  0  0  0  0  0
   58.0980   28.9600   45.0360 N   0  0  0  0  0  0  0  0  0  0  0  0
   59.1810   28.6820   45.9850 C   0  0  0  0  0  0  0  0  0  0  0  0
   59.1160   27.2130   46.4100 C   0  0  0  0  0  0  0  0  0  0  0  0
   59.1100   26.3650   45.2770 O   0  0  0  0  0  0  0  0  0  0  0  0
   57.9220   26.5660   44.5320 C   0  0  0  0  0  0  0  0  0  0  0  0
   57.8630   27.9890   43.9630 C   0  0  0  0  0  0  0  0  0  0  0  0
   58.8070   31.5480   46.6060 C   0  0  0  0  0  0  0  0  0  0  0  0
   57.9040   32.4550   50.9540 C   0  0  0  0  0  0  0  0  0  0  0  0
   54.5390   29.5370   53.1070 S   0  0  0  0  0  0  0  0  0  0  0  0
   53.1120   29.3770   52.2290 C   0  0  0  0  0  0  0  0  0  0  0  0
  1  2  1  0
  2  3  2  0
  2  4  1  0
  4  5  1  0
  5  6  1  0
  6  7  1  0
  7  8  2  0
  8  9  1  0
  9 10  1  0
 10 11  1  0
 11 12  2  0
 12 13  1  0
 13 14  2  0
 13 15  1  0
 15 16  1  0
 16 17  2  0
 17 18  1  0
 18 19  2  0
 19 20  1  0
 20 21  1  0
 21 22  2  0
 21 23  1  0
 23 24  1  0
 24 25  1  0
 25 26  1  0
 26 27  1  0
 27 28  1  0
 20 29  2  0
 12 30  1  0
  7 31  1  0
 31 32  1  0
 32  5  2  0
 30  9  2  0
 29 16  1  0
 28 23  1  0
M  CHG  3   1  -1   6  -1  15  -1
M  END
>  <UniqueID>  (1352) 
77

>  <SMILES>  (1352) 
[NH-]C(=O)Cc1cs/c(=N/c2cc(C(=O)[N-]c3cccc(C(=O)N4CCOCC4)c3)cs2)[n-]1

>  <Energy>  (1352) 
121.7123819630111

>  <Genealogy>  (1352) 
[NH-]C(=O)Cc1csc(=Nc2cc(C(=O)[N-]c3cccc(C(=O)N4CCOCC4)c3)cs2)[n-]1 (protonated)
[NH-]C(=O)Cc1cs/c(=N/c2cc(C(=O)[N-]c3cccc(C(=O)N4CCOCC4)c3)cs2)[n-]1 (cis-trans isomerization)
[NH-]C(=O)Cc1cs/c(=N/c2cc(C(=O)[N-]c3cccc(C(=O)N4CCOCC4)c3)cs2)[n-]1 (3D coordinates assigned)
[NH-]C(=O)Cc1cs/c(=N/c2cc(C(=O)[N-]c3cccc(C(=O)N4CCOCC4)c3)cs2)[n-]1 (nonaromatic ring conformer: 121.7123819630111 kcal/mol)

>  <smiles>  (1352) 
NC(=O)Cc1csc(=Nc2cc(C(=O)Nc3cccc(C(=O)N4CCOCC4)c3)cs2)[nH]1

>  <score_type>  (1352) 
oracle

>  <origin>  (1352) 
adg

>  <m_score__min__energy>  (1352) 
-14.98

>  <m_primary>  (1352) 
energy

$$$$
80:0
     RDKit          3D

 29 32  0  0  0  0  0  0  0  0999 V2000
   58.7270   28.0900   47.0230 C   0  0  0  0  0  0  0  0  0  0  0  0
   58.4140   28.5240   45.7920 C   0  0  0  0  0  0  0  0  0  0  0  0
   57.8350   27.7770   44.7540 C   0  0  0  0  0  0  0  0  0  0  0  0
   57.6570   26.4490   44.6140 C   0  0  0  0  0  0  0  0  0  0  0  0
   57.2060   25.5290   45.6720 C   0  0  0  0  0  0  0  0  0  0  0  0
   57.8740   24.4320   46.0710 N   0  0  0  0  0  0  0  0  0  0  0  0
   57.0230   23.8470   46.9410 C   0  0  0  0  0  0  0  0  0  0  0  0
   57.3020   22.7830   47.5510 O   0  0  0  0  0  0  0  0  0  0  0  0
   55.8450   24.4880   47.0980 N   0  0  0  0  0  0  0  0  0  0  0  0
   55.9720   25.5430   46.2760 C   0  0  0  0  0  0  0  0  0  0  0  0
   54.9820   26.4980   46.0760 O   0  0  0  0  0  0  0  0  0  0  0  0
   57.4480   28.6910   43.7870 C   0  0  0  0  0  0  0  0  0  0  0  0
   57.8670   29.9320   44.2190 C   0  0  0  0  0  0  0  0  0  0  0  0
   57.6630   31.2100   43.4650 C   0  0  0  0  0  0  0  0  0  0  0  0
   58.4550   29.8330   45.4340 N   0  0  0  0  0  0  0  0  0  0  0  0
   58.9690   30.9310   46.2100 C   0  0  0  0  0  0  0  0  0  0  0  0
   58.1380   32.0130   46.5300 C   0  0  0  0  0  0  0  0  0  0  0  0
   58.6340   33.0800   47.2770 C   0  0  0  0  0  0  0  0  0  0  0  0
   59.9590   33.0730   47.7140 C   0  0  0  0  0  0  0  0  0  0  0  0
   60.8070   32.0000   47.4120 C   0  0  0  0  0  0  0  0  0  0  0  0
   62.1560   32.0600   47.9000 N   0  0  0  0  0  0  0  0  0  0  0  0
   63.1730   33.4640   48.0110 S   0  0  0  0  0  0  0  0  0  0  0  0
   62.4170   34.5880   48.6600 O   0  0  0  0  0  0  0  0  0  0  0  0
   63.6220   33.8740   46.6370 O   0  0  0  0  0  0  0  0  0  0  0  0
   64.6290   33.1190   48.9950 C   0  0  0  0  0  0  0  0  0  0  0  0
   64.4920   33.4340   50.4750 C   0  0  0  0  0  0  0  0  0  0  0  0
   64.4710   31.9900   49.9980 C   0  0  0  0  0  0  0  0  0  0  0  0
   60.3060   30.9230   46.6450 C   0  0  0  0  0  0  0  0  0  0  0  0
   61.0950   29.8820   46.2850 F   0  0  0  0  0  0  0  0  0  0  0  0
  1  2  2  0
  2  3  1  0
  3  4  2  3
  4  5  1  0
  5  6  1  0
  6  7  1  0
  7  8  2  0
  7  9  1  0
  9 10  1  0
 10 11  1  0
  3 12  1  0
 12 13  2  0
 13 14  1  0
 13 15  1  0
 15 16  1  0
 16 17  2  0
 17 18  1  0
 18 19  2  0
 19 20  1  0
 20 21  1  0
 21 22  1  0
 22 23  2  0
 22 24  2  0
 22 25  1  0
 25 26  1  0
 26 27  1  0
 20 28  2  0
 28 29  1  0
 15  2  1  0
 28 16  1  0
 10  5  2  0
 27 25  1  0
M  CHG  3   6  -1   9  -1  21  -1
M  END
>  <UniqueID>  (1353) 
80

>  <SMILES>  (1353) 
C=c1c(=Cc2[n-]c(=O)[n-]c2O)cc(C)n1-c1cccc([N-]S(=O)(=O)C2CC2)c1F

>  <Energy>  (1353) 
388.4840582350524

>  <Genealogy>  (1353) 
C=c1c(=Cc2[n-]c(=O)[n-]c2O)cc(C)n1-c1cccc([N-]S(=O)(=O)C2CC2)c1F (protonated)
C=c1c(=Cc2[n-]c(=O)[n-]c2O)cc(C)n1-c1cccc([N-]S(=O)(=O)C2CC2)c1F (3D coordinates assigned)
C=c1c(=Cc2[n-]c(=O)[n-]c2O)cc(C)n1-c1cccc([N-]S(=O)(=O)C2CC2)c1F (nonaromatic ring conformer: 388.4840582350524 kcal/mol)

>  <smiles>  (1353) 
C=c1c(=Cc2[nH]c(=O)[nH]c2O)cc(C)n1-c1cccc(NS(=O)(=O)C2CC2)c1F

>  <score_type>  (1353) 
oracle

>  <origin>  (1353) 
adg

>  <m_score__min__energy>  (1353) 
-14.09

>  <m_primary>  (1353) 
energy

$$$$
81:0
     RDKit          3D

 34 37  0  0  0  0  0  0  0  0999 V2000
   61.1220   29.4900   45.8520 C   0  0  0  0  0  0  0  0  0  0  0  0
   60.3380   29.3000   46.9260 C   0  0  0  0  0  0  0  0  0  0  0  0
   59.0710   28.6900   46.9560 C   0  0  0  0  0  0  0  0  0  0  0  0
   58.3790   28.0320   46.0040 C   0  0  0  0  0  0  0  0  0  0  0  0
   57.4950   26.8730   46.2310 C   0  0  0  0  0  0  0  0  0  0  0  0
   56.1470   26.9010   45.8330 C   0  0  0  0  0  0  0  0  0  0  0  0
   55.6050   28.0430   45.2480 O   0  0  0  0  0  0  0  0  0  0  0  0
   55.3660   25.8030   46.0170 N   0  0  0  0  0  0  0  0  0  0  0  0
   55.8690   24.6690   46.5660 C   0  0  0  0  0  0  0  0  0  0  0  0
   54.9040   23.3690   46.7730 S   0  0  0  0  0  0  0  0  0  0  0  0
   57.1750   24.6110   46.9340 N   0  0  0  0  0  0  0  0  0  0  0  0
   57.9980   25.6810   46.7720 C   0  0  0  0  0  0  0  0  0  0  0  0
   59.2050   25.5920   47.1190 O   0  0  0  0  0  0  0  0  0  0  0  0
   58.5910   28.8600   48.2430 C   0  0  0  0  0  0  0  0  0  0  0  0
   59.5730   29.5150   48.9570 C   0  0  0  0  0  0  0  0  0  0  0  0
   59.4710   29.8700   50.4090 C   0  0  0  0  0  0  0  0  0  0  0  0
   60.6390   29.7770   48.1630 N   0  0  0  0  0  0  0  0  0  0  0  0
   61.8490   30.5130   48.5620 C   0  0  0  0  0  0  0  0  0  0  0  0
   62.0070   31.7870   47.7690 C   0  0  0  0  0  0  0  0  0  0  0  0
   63.2910   32.2560   47.4470 C   0  0  0  0  0  0  0  0  0  0  0  0
   63.4510   33.4590   46.7560 C   0  0  0  0  0  0  0  0  0  0  0  0
   62.3330   34.2180   46.3990 C   0  0  0  0  0  0  0  0  0  0  0  0
   61.0450   33.7840   46.7460 C   0  0  0  0  0  0  0  0  0  0  0  0
   59.8710   34.6060   46.3870 C   0  0  0  0  0  0  0  0  0  0  0  0
   59.7760   35.7710   46.8540 O   0  0  0  0  0  0  0  0  0  0  0  0
   58.8110   34.1070   45.5570 N   0  0  0  0  0  0  0  0  0  0  0  0
   57.9500   32.9610   45.8470 C   0  0  0  0  0  0  0  0  0  0  0  0
   57.5970   32.2170   44.5850 C   0  0  0  0  0  0  0  0  0  0  0  0
   56.9760   30.9580   44.6610 C   0  0  0  0  0  0  0  0  0  0  0  0
   56.6640   30.2530   43.4950 C   0  0  0  0  0  0  0  0  0  0  0  0
   56.9660   30.8010   42.2450 C   0  0  0  0  0  0  0  0  0  0  0  0
   57.5770   32.0560   42.1600 C   0  0  0  0  0  0  0  0  0  0  0  0
   57.8880   32.7650   43.3240 C   0  0  0  0  0  0  0  0  0  0  0  0
   60.8870   32.5600   47.4130 C   0  0  0  0  0  0  0  0  0  0  0  0
  1  2  2  0
  2  3  1  0
  3  4  2  3
  4  5  1  0
  5  6  2  0
  6  7  1  0
  6  8  1  0
  8  9  1  0
  9 10  2  0
  9 11  1  0
 11 12  1  0
 12 13  2  0
  3 14  1  0
 14 15  2  0
 15 16  1  0
 15 17  1  0
 17 18  1  0
 18 19  1  0
 19 20  2  0
 20 21  1  0
 21 22  2  0
 22 23  1  0
 23 24  1  0
 24 25  2  0
 24 26  1  0
 26 27  1  0
 27 28  1  0
 28 29  2  0
 29 30  1  0
 30 31  2  0
 31 32  1  0
 32 33  2  0
 23 34  2  0
 17  2  1  0
 34 19  1  0
 12  5  1  0
 33 28  1  0
M  CHG  3   8  -1  11  -1  26  -1
M  END
>  <UniqueID>  (1354) 
81

>  <SMILES>  (1354) 
C=c1c(=Cc2c(O)[n-]c(=S)[n-]c2=O)cc(C)n1Cc1cccc(C(=O)[N-]Cc2ccccc2)c1

>  <Energy>  (1354) 
101.64616411256732

>  <Genealogy>  (1354) 
C=c1c(=Cc2c(O)[n-]c(=S)[n-]c2=O)cc(C)n1Cc1cccc(C(=O)[N-]Cc2ccccc2)c1 (protonated)
C=c1c(=Cc2c(O)[n-]c(=S)[n-]c2=O)cc(C)n1Cc1cccc(C(=O)[N-]Cc2ccccc2)c1 (3D coordinates assigned)
C=c1c(=Cc2c(O)[n-]c(=S)[n-]c2=O)cc(C)n1Cc1cccc(C(=O)[N-]Cc2ccccc2)c1 (optimized conformer: 101.64616411256732 kcal/mol)

>  <smiles>  (1354) 
C=c1c(=Cc2c(O)[nH]c(=S)[nH]c2=O)cc(C)n1Cc1cccc(C(=O)NCc2ccccc2)c1

>  <score_type>  (1354) 
oracle

>  <origin>  (1354) 
adg

>  <m_score__min__energy>  (1354) 
-15.52

>  <m_primary>  (1354) 
energy

$$$$
84:0
     RDKit          3D

 32 35  0  0  0  0  0  0  0  0999 V2000
   62.6820   31.5440   48.9550 C   0  0  0  0  0  0  0  0  0  0  0  0
   61.6920   32.2110   48.0370 C   0  0  0  0  0  0  0  0  0  0  0  0
   62.1000   33.3430   47.3110 C   0  0  0  0  0  0  0  0  0  0  0  0
   61.2160   33.9980   46.4530 C   0  0  0  0  0  0  0  0  0  0  0  0
   59.9070   33.5240   46.2920 C   0  0  0  0  0  0  0  0  0  0  0  0
   58.9590   34.1960   45.4520 N   0  0  0  0  0  0  0  0  0  0  0  0
   57.7760   33.6240   44.8790 C   0  0  0  0  0  0  0  0  0  0  0  0
   56.6650   34.1630   45.1270 O   0  0  0  0  0  0  0  0  0  0  0  0
   57.8370   32.3570   44.1140 C   0  0  0  0  0  0  0  0  0  0  0  0
   56.9800   31.3340   44.2420 C   0  0  0  0  0  0  0  0  0  0  0  0
   57.3150   30.0180   44.8170 C   0  0  0  0  0  0  0  0  0  0  0  0
   58.6210   29.7000   44.9950 N   0  0  0  0  0  0  0  0  0  0  0  0
   59.0020   28.4950   45.4930 C   0  0  0  0  0  0  0  0  0  0  0  0
   60.3640   28.2320   45.6690 C   0  0  0  0  0  0  0  0  0  0  0  0
   60.7640   27.0020   46.1860 C   0  0  0  0  0  0  0  0  0  0  0  0
   59.8080   26.0490   46.5200 C   0  0  0  0  0  0  0  0  0  0  0  0
   58.4540   26.3360   46.3330 C   0  0  0  0  0  0  0  0  0  0  0  0
   58.0570   27.5470   45.8240 N   0  0  0  0  0  0  0  0  0  0  0  0
   56.7260   27.8250   45.6290 C   0  0  0  0  0  0  0  0  0  0  0  0
   55.8380   26.9710   45.9060 O   0  0  0  0  0  0  0  0  0  0  0  0
   56.3320   29.0630   45.1090 C   0  0  0  0  0  0  0  0  0  0  0  0
   54.9860   29.3260   44.8710 O   0  0  0  0  0  0  0  0  0  0  0  0
   59.4880   32.4070   47.0220 C   0  0  0  0  0  0  0  0  0  0  0  0
   60.3730   31.7220   47.8690 C   0  0  0  0  0  0  0  0  0  0  0  0
   59.7840   30.2900   48.7360 S   0  0  0  0  0  0  0  0  0  0  0  0
   60.8330   29.2160   48.6590 O   0  0  0  0  0  0  0  0  0  0  0  0
   58.5120   29.7900   48.1080 O   0  0  0  0  0  0  0  0  0  0  0  0
   59.4780   30.6770   50.4140 N   0  0  0  0  0  0  0  0  0  0  0  0
   59.4740   32.1310   50.6440 C   0  0  0  0  0  0  0  0  0  0  0  0
   58.1560   32.5040   51.3050 C   0  0  0  0  0  0  0  0  0  0  0  0
   57.5870   31.1930   51.7910 C   0  0  0  0  0  0  0  0  0  0  0  0
   58.1670   30.1710   50.8360 C   0  0  0  0  0  0  0  0  0  0  0  0
  1  2  1  0
  2  3  2  0
  3  4  1  0
  4  5  2  0
  5  6  1  0
  6  7  1  0
  7  8  2  0
  7  9  1  0
  9 10  2  3
 10 11  1  0
 11 12  1  0
 12 13  2  0
 13 14  1  0
 14 15  2  0
 15 16  1  0
 16 17  2  0
 17 18  1  0
 18 19  1  0
 19 20  2  0
 19 21  1  0
 21 22  1  0
  5 23  1  0
 23 24  2  0
 24 25  1  0
 25 26  2  0
 25 27  2  0
 25 28  1  0
 28 29  1  0
 29 30  1  0
 30 31  1  0
 31 32  1  0
 24  2  1  0
 32 28  1  0
 21 11  2  0
 18 13  1  0
M  CHG  2   6  -1  22  -1
M  END
>  <UniqueID>  (1355) 
83

>  <SMILES>  (1355) 
Cc1ccc([N-]C(=O)C=Cc2nc3ccccn3c(=O)c2[O-])cc1S(=O)(=O)N1CCCC1

>  <Energy>  (1355) 
76.60792218496476

>  <Genealogy>  (1355) 
Cc1ccc([N-]C(=O)C=Cc2nc3ccccn3c(=O)c2[O-])cc1S(=O)(=O)N1CCCC1 (protonated)
Cc1ccc([N-]C(=O)C=Cc2nc3ccccn3c(=O)c2[O-])cc1S(=O)(=O)N1CCCC1 (3D coordinates assigned)
Cc1ccc([N-]C(=O)C=Cc2nc3ccccn3c(=O)c2[O-])cc1S(=O)(=O)N1CCCC1 (nonaromatic ring conformer: 76.60792218496476 kcal/mol)

>  <smiles>  (1355) 
Cc1ccc(NC(=O)C=Cc2nc3ccccn3c(=O)c2O)cc1S(=O)(=O)N1CCCC1

>  <score_type>  (1355) 
oracle

>  <origin>  (1355) 
adg

>  <m_score__min__energy>  (1355) 
-15.83

>  <m_primary>  (1355) 
energy

$$$$
86:0
     RDKit          3D

 32 36  0  0  0  0  0  0  0  0999 V2000
   58.8260   29.0930   46.9900 C   0  0  0  0  0  0  0  0  0  0  0  0
   58.2520   29.7070   45.9410 C   0  0  0  0  0  0  0  0  0  0  0  0
   57.5460   29.1060   44.8840 C   0  0  0  0  0  0  0  0  0  0  0  0
   57.1160   27.8400   44.7120 C   0  0  0  0  0  0  0  0  0  0  0  0
   57.2080   26.7580   45.7100 C   0  0  0  0  0  0  0  0  0  0  0  0
   56.0570   26.2120   46.3040 C   0  0  0  0  0  0  0  0  0  0  0  0
   54.7960   26.7040   45.9910 O   0  0  0  0  0  0  0  0  0  0  0  0
   56.1720   25.1890   47.1900 N   0  0  0  0  0  0  0  0  0  0  0  0
   57.3860   24.6670   47.5030 C   0  0  0  0  0  0  0  0  0  0  0  0
   57.4680   23.7220   48.3290 O   0  0  0  0  0  0  0  0  0  0  0  0
   58.5100   25.1590   46.9210 N   0  0  0  0  0  0  0  0  0  0  0  0
   58.4480   26.1810   46.0290 C   0  0  0  0  0  0  0  0  0  0  0  0
   59.5100   26.6090   45.5030 O   0  0  0  0  0  0  0  0  0  0  0  0
   57.3210   30.1060   43.9520 C   0  0  0  0  0  0  0  0  0  0  0  0
   57.8300   31.2720   44.4820 C   0  0  0  0  0  0  0  0  0  0  0  0
   57.7800   32.6070   43.8030 C   0  0  0  0  0  0  0  0  0  0  0  0
   58.3960   31.0330   45.6860 N   0  0  0  0  0  0  0  0  0  0  0  0
   59.0380   32.0140   46.5220 C   0  0  0  0  0  0  0  0  0  0  0  0
   58.3920   33.2220   46.8210 C   0  0  0  0  0  0  0  0  0  0  0  0
   59.0170   34.1690   47.6360 C   0  0  0  0  0  0  0  0  0  0  0  0
   60.2890   33.9170   48.1570 C   0  0  0  0  0  0  0  0  0  0  0  0
   60.9480   32.7110   47.8680 C   0  0  0  0  0  0  0  0  0  0  0  0
   62.2610   32.4560   48.4000 N   0  0  0  0  0  0  0  0  0  0  0  0
   62.4250   31.4060   49.4200 C   0  0  0  0  0  0  0  0  0  0  0  0
   63.7200   31.5320   50.0820 N   0  0  0  0  0  0  0  0  0  0  0  0
   64.1990   30.8140   51.1140 C   0  0  0  0  0  0  0  0  0  0  0  0
   65.4680   31.2800   51.4030 C   0  0  0  0  0  0  0  0  0  0  0  0
   65.7700   32.2790   50.5490 N   0  0  0  0  0  0  0  0  0  0  0  0
   64.6920   32.3980   49.7520 C   0  0  0  0  0  0  0  0  0  0  0  0
   64.5210   33.4270   48.6840 C   0  0  0  0  0  0  0  0  0  0  0  0
   63.4480   32.9630   47.6910 C   0  0  0  0  0  0  0  0  0  0  0  0
   60.3140   31.7620   47.0490 C   0  0  0  0  0  0  0  0  0  0  0  0
  1  2  2  0
  2  3  1  0
  3  4  2  0
  4  5  1  0
  5  6  2  0
  6  7  1  0
  6  8  1  0
  8  9  1  0
  9 10  2  0
  9 11  1  0
 11 12  1  0
 12 13  2  0
  3 14  1  0
 14 15  2  0
 15 16  1  0
 15 17  1  0
 17 18  1  0
 18 19  2  0
 19 20  1  0
 20 21  2  0
 21 22  1  0
 22 23  1  0
 23 24  1  0
 24 25  1  0
 25 26  1  0
 26 27  2  0
 27 28  1  0
 28 29  2  0
 29 30  1  0
 30 31  1  0
 22 32  2  0
 17  2  1  0
 32 18  1  0
 12  5  1  0
 31 23  1  0
 29 25  1  0
M  CHG  4   7  -1   8  -1  11  -1  28   1
M  END
>  <UniqueID>  (1356) 
85

>  <SMILES>  (1356) 
C=c1/c(=C\c2c([O-])[n-]c(=O)[n-]c2=O)cc(C)n1-c1cccc(N2CCc3[nH+]ccn3C2)c1

>  <Energy>  (1356) 
141.95482977587355

>  <Genealogy>  (1356) 
C=c1c(=Cc2c([O-])[n-]c(=O)[n-]c2=O)cc(C)n1-c1cccc(N2CCc3[nH+]ccn3C2)c1 (protonated)
C=c1/c(=C\c2c([O-])[n-]c(=O)[n-]c2=O)cc(C)n1-c1cccc(N2CCc3[nH+]ccn3C2)c1 (cis-trans isomerization)
C=c1/c(=C\c2c([O-])[n-]c(=O)[n-]c2=O)cc(C)n1-c1cccc(N2CCc3[nH+]ccn3C2)c1 (3D coordinates assigned)
C=c1/c(=C\c2c([O-])[n-]c(=O)[n-]c2=O)cc(C)n1-c1cccc(N2CCc3[nH+]ccn3C2)c1 (nonaromatic ring conformer: 141.95482977587355 kcal/mol)

>  <smiles>  (1356) 
C=c1c(=Cc2c(O)[nH]c(=O)[nH]c2=O)cc(C)n1-c1cccc(N2CCc3nccn3C2)c1

>  <score_type>  (1356) 
oracle

>  <origin>  (1356) 
adg

>  <m_score__min__energy>  (1356) 
-15.640000000000001

>  <m_primary>  (1356) 
energy

$$$$
14:0
     RDKit          3D

 26 28  0  0  0  0  0  0  0  0999 V2000
   58.9160   35.3240   47.1830 O   0  0  0  0  0  0  0  0  0  0  0  0
   58.8280   34.0850   47.3880 C   0  0  0  0  0  0  0  0  0  0  0  0
   58.4840   33.1590   46.2620 C   0  0  0  0  0  0  0  0  0  0  0  0
   59.5830   31.7120   46.3280 S   0  0  0  0  0  0  0  0  0  0  0  0
   59.0630   31.2180   47.9800 C   0  0  0  0  0  0  0  0  0  0  0  0
   58.8480   29.8650   48.2600 C   0  0  0  0  0  0  0  0  0  0  0  0
   58.5620   29.4550   49.5640 C   0  0  0  0  0  0  0  0  0  0  0  0
   58.4840   30.3960   50.5990 C   0  0  0  0  0  0  0  0  0  0  0  0
   58.1430   29.8640   52.2430 S   0  0  0  0  0  0  0  0  0  0  0  0
   58.2860   31.0080   53.2090 O   0  0  0  0  0  0  0  0  0  0  0  0
   59.1150   28.7810   52.6150 O   0  0  0  0  0  0  0  0  0  0  0  0
   56.5300   29.2430   52.3410 N   0  0  0  0  0  0  0  0  0  0  0  0
   55.3770   30.0680   52.1700 C   0  0  0  0  0  0  0  0  0  0  0  0
   55.4670   31.3210   52.2720 O   0  0  0  0  0  0  0  0  0  0  0  0
   54.0490   29.4360   51.9050 C   0  0  0  0  0  0  0  0  0  0  0  0
   52.9600   30.4670   52.0010 C   0  0  0  0  0  0  0  0  0  0  0  0
   52.4480   30.8410   53.2550 C   0  0  0  0  0  0  0  0  0  0  0  0
   51.4550   31.8210   53.3470 C   0  0  0  0  0  0  0  0  0  0  0  0
   50.9740   32.4440   52.1910 C   0  0  0  0  0  0  0  0  0  0  0  0
   49.9870   33.4190   52.2890 O   0  0  0  0  0  0  0  0  0  0  0  0
   51.4890   32.0870   50.9380 C   0  0  0  0  0  0  0  0  0  0  0  0
   51.0170   32.7040   49.7860 O   0  0  0  0  0  0  0  0  0  0  0  0
   52.4820   31.1040   50.8440 C   0  0  0  0  0  0  0  0  0  0  0  0
   58.6770   31.7560   50.3160 C   0  0  0  0  0  0  0  0  0  0  0  0
   58.9440   32.1740   49.0070 C   0  0  0  0  0  0  0  0  0  0  0  0
   58.9990   33.5730   48.7150 N   0  0  0  0  0  0  0  0  0  0  0  0
  1  2  2  0
  2  3  1  0
  3  4  1  0
  4  5  1  0
  5  6  2  0
  6  7  1  0
  7  8  2  0
  8  9  1  0
  9 10  2  0
  9 11  2  0
  9 12  1  0
 12 13  1  0
 13 14  2  0
 13 15  1  0
 15 16  1  0
 16 17  2  0
 17 18  1  0
 18 19  2  0
 19 20  1  0
 19 21  1  0
 21 22  1  0
 21 23  2  0
  8 24  1  0
 24 25  2  0
 25 26  1  0
 26  2  1  0
 25  5  1  0
 23 16  1  0
M  CHG  4  12  -1  20  -1  22  -1  26  -1
M  END
>  <UniqueID>  (1357) 
12

>  <SMILES>  (1357) 
O=C1CSc2ccc(S(=O)(=O)[N-]C(=O)Cc3ccc([O-])c([O-])c3)cc2[N-]1

>  <Energy>  (1357) 
42.653385685201044

>  <Genealogy>  (1357) 
O=C1CSc2ccc(S(=O)(=O)[N-]C(=O)Cc3ccc([O-])c([O-])c3)cc2[N-]1 (protonated)
O=C1CSc2ccc(S(=O)(=O)[N-]C(=O)Cc3ccc([O-])c([O-])c3)cc2[N-]1 (3D coordinates assigned)
O=C1CSc2ccc(S(=O)(=O)[N-]C(=O)Cc3ccc([O-])c([O-])c3)cc2[N-]1 (nonaromatic ring conformer: 42.653385685201044 kcal/mol)

>  <smiles>  (1357) 
O=C1CSc2ccc(S(=O)(=O)NC(=O)Cc3ccc(O)c(O)c3)cc2N1

>  <score_type>  (1357) 
oracle

>  <origin>  (1357) 
adg

>  <m_score__min__energy>  (1357) 
-18.530000000000001

>  <m_primary>  (1357) 
energy

$$$$
16:0
     RDKit          3D

 33 36  0  0  0  0  0  0  0  0999 V2000
   57.8360   26.2290   47.6030 C   0  0  0  0  0  0  0  0  0  0  0  0
   58.0450   26.7180   46.3710 C   0  0  0  0  0  0  0  0  0  0  0  0
   57.6190   26.1650   45.1520 C   0  0  0  0  0  0  0  0  0  0  0  0
   57.0630   24.9710   44.8640 C   0  0  0  0  0  0  0  0  0  0  0  0
   55.7170   24.5270   45.2590 C   0  0  0  0  0  0  0  0  0  0  0  0
   55.2160   23.2990   45.0240 N   0  0  0  0  0  0  0  0  0  0  0  0
   53.9220   23.4150   45.3960 C   0  0  0  0  0  0  0  0  0  0  0  0
   53.1110   22.4540   45.3370 O   0  0  0  0  0  0  0  0  0  0  0  0
   53.5610   24.6460   45.8200 N   0  0  0  0  0  0  0  0  0  0  0  0
   54.7070   25.3380   45.7110 C   0  0  0  0  0  0  0  0  0  0  0  0
   54.8220   26.6890   46.0120 O   0  0  0  0  0  0  0  0  0  0  0  0
   57.8960   27.1110   44.1790 C   0  0  0  0  0  0  0  0  0  0  0  0
   58.5230   28.1640   44.8110 C   0  0  0  0  0  0  0  0  0  0  0  0
   58.9920   29.4130   44.1270 C   0  0  0  0  0  0  0  0  0  0  0  0
   58.6210   27.9260   46.1370 N   0  0  0  0  0  0  0  0  0  0  0  0
   59.1350   28.8560   47.1070 C   0  0  0  0  0  0  0  0  0  0  0  0
   58.6350   30.1650   47.1600 C   0  0  0  0  0  0  0  0  0  0  0  0
   59.0970   31.0560   48.1330 C   0  0  0  0  0  0  0  0  0  0  0  0
   60.0630   30.6490   49.0670 C   0  0  0  0  0  0  0  0  0  0  0  0
   60.5520   31.6120   50.1130 C   0  0  0  0  0  0  0  0  0  0  0  0
   60.0030   32.9460   49.8590 N   0  0  0  0  0  0  0  0  0  0  0  0
   60.9340   33.7700   48.6380 S   0  0  0  0  0  0  0  0  0  0  0  0
   61.4210   32.7650   47.6330 O   0  0  0  0  0  0  0  0  0  0  0  0
   62.1240   34.4610   49.2440 O   0  0  0  0  0  0  0  0  0  0  0  0
   59.9170   34.9660   47.7900 C   0  0  0  0  0  0  0  0  0  0  0  0
   59.1100   34.3120   46.7050 C   0  0  0  0  0  0  0  0  0  0  0  0
   57.8650   33.7360   46.9990 C   0  0  0  0  0  0  0  0  0  0  0  0
   57.1370   33.0880   45.9970 C   0  0  0  0  0  0  0  0  0  0  0  0
   57.6480   33.0090   44.6990 C   0  0  0  0  0  0  0  0  0  0  0  0
   58.8860   33.5780   44.4000 C   0  0  0  0  0  0  0  0  0  0  0  0
   59.6170   34.2270   45.3980 C   0  0  0  0  0  0  0  0  0  0  0  0
   60.5720   29.3420   49.0030 C   0  0  0  0  0  0  0  0  0  0  0  0
   60.1050   28.4490   48.0340 C   0  0  0  0  0  0  0  0  0  0  0  0
  1  2  2  0
  2  3  1  0
  3  4  2  0
  4  5  1  0
  5  6  1  0
  6  7  1  0
  7  8  2  0
  7  9  1  0
  9 10  1  0
 10 11  1  0
  3 12  1  0
 12 13  2  0
 13 14  1  0
 13 15  1  0
 15 16  1  0
 16 17  2  0
 17 18  1  0
 18 19  2  0
 19 20  1  0
 20 21  1  0
 21 22  1  0
 22 23  2  0
 22 24  2  0
 22 25  1  0
 25 26  1  0
 26 27  2  0
 27 28  1  0
 28 29  2  0
 29 30  1  0
 30 31  2  0
 19 32  1  0
 32 33  2  0
 15  2  1  0
 33 16  1  0
 10  5  2  0
 31 26  1  0
M  CHG  3   6  -1   9  -1  11  -1
M  END
>  <UniqueID>  (1358) 
14

>  <SMILES>  (1358) 
C=c1/c(=C\c2[n-]c(=O)[n-]c2[O-])cc(C)n1-c1ccc(CNS(=O)(=O)Cc2ccccc2)cc1

>  <Energy>  (1358) 
124.6317703000548

>  <Genealogy>  (1358) 
C=c1c(=Cc2[n-]c(=O)[n-]c2[O-])cc(C)n1-c1ccc(CNS(=O)(=O)Cc2ccccc2)cc1 (protonated)
C=c1/c(=C\c2[n-]c(=O)[n-]c2[O-])cc(C)n1-c1ccc(CNS(=O)(=O)Cc2ccccc2)cc1 (cis-trans isomerization)
C=c1/c(=C\c2[n-]c(=O)[n-]c2[O-])cc(C)n1-c1ccc(CNS(=O)(=O)Cc2ccccc2)cc1 (3D coordinates assigned)
C=c1/c(=C\c2[n-]c(=O)[n-]c2[O-])cc(C)n1-c1ccc(CNS(=O)(=O)Cc2ccccc2)cc1 (optimized conformer: 124.6317703000548 kcal/mol)

>  <smiles>  (1358) 
C=c1c(=Cc2[nH]c(=O)[nH]c2O)cc(C)n1-c1ccc(CNS(=O)(=O)Cc2ccccc2)cc1

>  <score_type>  (1358) 
oracle

>  <origin>  (1358) 
adg

>  <m_score__min__energy>  (1358) 
-16.530000000000001

>  <m_primary>  (1358) 
energy

$$$$
23:0
     RDKit          3D

 35 38  0  0  0  0  0  0  0  0999 V2000
   55.2150   29.3710   45.2090 O   0  0  0  0  0  0  0  0  0  0  0  0
   56.4200   29.3800   44.8360 C   0  0  0  0  0  0  0  0  0  0  0  0
   57.2220   28.2020   44.9960 N   0  0  0  0  0  0  0  0  0  0  0  0
   57.8500   27.8150   46.2550 C   0  0  0  0  0  0  0  0  0  0  0  0
   58.6750   28.9480   46.7900 C   0  0  0  0  0  0  0  0  0  0  0  0
   59.9790   29.1610   46.3320 C   0  0  0  0  0  0  0  0  0  0  0  0
   60.6920   30.2490   46.8420 C   0  0  0  0  0  0  0  0  0  0  0  0
   61.8680   30.4700   46.4540 O   0  0  0  0  0  0  0  0  0  0  0  0
   60.1170   31.0710   47.7590 N   0  0  0  0  0  0  0  0  0  0  0  0
   58.8460   30.8570   48.1900 C   0  0  0  0  0  0  0  0  0  0  0  0
   58.3260   31.6600   49.0690 N   0  0  0  0  0  0  0  0  0  0  0  0
   58.8080   31.8250   50.4410 C   0  0  0  0  0  0  0  0  0  0  0  0
   57.8740   31.1650   51.4180 C   0  0  0  0  0  0  0  0  0  0  0  0
   56.9970   31.9290   52.2050 C   0  0  0  0  0  0  0  0  0  0  0  0
   56.1290   31.2830   53.0870 C   0  0  0  0  0  0  0  0  0  0  0  0
   56.1430   29.8890   53.1800 C   0  0  0  0  0  0  0  0  0  0  0  0
   57.0290   29.1610   52.3810 C   0  0  0  0  0  0  0  0  0  0  0  0
   57.8660   29.8070   51.5260 N   0  0  0  0  0  0  0  0  0  0  0  0
   58.1360   29.8050   47.6990 N   0  0  0  0  0  0  0  0  0  0  0  0
   57.0020   30.6010   44.2320 C   0  0  0  0  0  0  0  0  0  0  0  0
   56.9590   30.7950   42.8400 C   0  0  0  0  0  0  0  0  0  0  0  0
   57.5090   31.9440   42.2690 C   0  0  0  0  0  0  0  0  0  0  0  0
   58.1100   32.9110   43.0750 C   0  0  0  0  0  0  0  0  0  0  0  0
   58.1690   32.7400   44.4680 C   0  0  0  0  0  0  0  0  0  0  0  0
   58.8030   33.7590   45.3370 C   0  0  0  0  0  0  0  0  0  0  0  0
   59.1110   34.8800   44.8500 O   0  0  0  0  0  0  0  0  0  0  0  0
   59.0370   33.5020   46.7310 N   0  0  0  0  0  0  0  0  0  0  0  0
   59.6780   34.4780   47.6150 C   0  0  0  0  0  0  0  0  0  0  0  0
   61.1220   34.1210   47.8630 C   0  0  0  0  0  0  0  0  0  0  0  0
   61.9680   33.8040   46.7860 C   0  0  0  0  0  0  0  0  0  0  0  0
   63.3070   33.4650   47.0170 C   0  0  0  0  0  0  0  0  0  0  0  0
   63.8080   33.4300   48.3240 C   0  0  0  0  0  0  0  0  0  0  0  0
   62.9690   33.7260   49.4010 C   0  0  0  0  0  0  0  0  0  0  0  0
   61.6290   34.0600   49.1770 C   0  0  0  0  0  0  0  0  0  0  0  0
   57.6030   31.5850   45.0390 C   0  0  0  0  0  0  0  0  0  0  0  0
  1  2  2  0
  2  3  1  0
  3  4  1  0
  4  5  1  0
  5  6  2  0
  6  7  1  0
  7  8  2  0
  7  9  1  0
  9 10  1  0
 10 11  2  3
 11 12  1  0
 12 13  1  0
 13 14  2  0
 14 15  1  0
 15 16  2  0
 16 17  1  0
 17 18  2  0
 10 19  1  0
  2 20  1  0
 20 21  2  0
 21 22  1  0
 22 23  2  0
 23 24  1  0
 24 25  1  0
 25 26  2  0
 25 27  1  0
 27 28  1  0
 28 29  1  0
 29 30  2  0
 30 31  1  0
 31 32  2  0
 32 33  1  0
 33 34  2  0
 24 35  2  0
 19  5  1  0
 35 20  1  0
 18 13  1  0
 34 29  1  0
M  CHG  3   3  -1   9  -1  19  -1
M  END
>  <UniqueID>  (1359) 
20

>  <SMILES>  (1359) 
O=C([N-]Cc1cc(=O)[n-]c(=NCc2ccccn2)[n-]1)c1cccc(C(=O)NCc2ccccc2)c1

>  <Energy>  (1359) 
59.68174526592678

>  <Genealogy>  (1359) 
O=C([N-]Cc1cc(=O)[n-]c(=NCc2ccccn2)[n-]1)c1cccc(C(=O)NCc2ccccc2)c1 (protonated)
O=C([N-]Cc1cc(=O)[n-]c(=NCc2ccccn2)[n-]1)c1cccc(C(=O)NCc2ccccc2)c1 (3D coordinates assigned)
O=C([N-]Cc1cc(=O)[n-]c(=NCc2ccccn2)[n-]1)c1cccc(C(=O)NCc2ccccc2)c1 (optimized conformer: 59.68174526592678 kcal/mol)

>  <smiles>  (1359) 
O=C(NCc1ccccc1)c1cccc(C(=O)NCc2cc(=O)[nH]c(=NCc3ccccn3)[nH]2)c1

>  <score_type>  (1359) 
oracle

>  <origin>  (1359) 
adg

>  <m_score__min__energy>  (1359) 
-15.630000000000001

>  <m_primary>  (1359) 
energy

$$$$
41:0
     RDKit          3D

 31 34  0  0  0  0  0  0  0  0999 V2000
   55.8860   22.1820   42.9060 O   0  0  0  0  0  0  0  0  0  0  0  0
   56.2550   21.9230   44.2250 C   0  0  0  0  0  0  0  0  0  0  0  0
   56.7220   20.6480   44.5830 C   0  0  0  0  0  0  0  0  0  0  0  0
   57.0980   20.3800   45.9000 C   0  0  0  0  0  0  0  0  0  0  0  0
   57.0140   21.3810   46.8700 C   0  0  0  0  0  0  0  0  0  0  0  0
   57.3930   21.1120   48.1790 O   0  0  0  0  0  0  0  0  0  0  0  0
   56.5500   22.6540   46.5230 C   0  0  0  0  0  0  0  0  0  0  0  0
   56.1610   22.9350   45.2020 C   0  0  0  0  0  0  0  0  0  0  0  0
   55.6990   24.3230   44.8380 C   0  0  0  0  0  0  0  0  0  0  0  0
   56.6730   25.3150   45.2950 N   0  0  0  0  0  0  0  0  0  0  0  0
   56.4310   26.5420   45.7860 C   0  0  0  0  0  0  0  0  0  0  0  0
   55.1630   27.0720   45.9990 O   0  0  0  0  0  0  0  0  0  0  0  0
   57.6290   27.1720   46.0450 C   0  0  0  0  0  0  0  0  0  0  0  0
   57.7710   28.5220   46.6350 C   0  0  0  0  0  0  0  0  0  0  0  0
   57.9130   29.6730   45.9430 C   0  0  0  0  0  0  0  0  0  0  0  0
   57.6980   29.8650   44.5840 C   0  0  0  0  0  0  0  0  0  0  0  0
   57.9360   31.1990   44.3260 C   0  0  0  0  0  0  0  0  0  0  0  0
   57.7830   31.8390   42.9780 C   0  0  0  0  0  0  0  0  0  0  0  0
   58.2960   31.8480   45.4570 N   0  0  0  0  0  0  0  0  0  0  0  0
   58.5700   33.2890   45.5660 C   0  0  0  0  0  0  0  0  0  0  0  0
   59.6870   33.5350   46.5380 C   0  0  0  0  0  0  0  0  0  0  0  0
   60.8860   32.9130   46.3570 N   0  0  0  0  0  0  0  0  0  0  0  0
   61.9240   33.0860   47.2170 C   0  0  0  0  0  0  0  0  0  0  0  0
   61.7800   33.9200   48.3280 C   0  0  0  0  0  0  0  0  0  0  0  0
   60.5640   34.5680   48.5410 C   0  0  0  0  0  0  0  0  0  0  0  0
   59.5080   34.3780   47.6460 C   0  0  0  0  0  0  0  0  0  0  0  0
   58.2720   30.9270   46.4580 C   0  0  0  0  0  0  0  0  0  0  0  0
   58.5500   31.2040   47.7430 C   0  0  0  0  0  0  0  0  0  0  0  0
   58.6430   26.3370   45.7250 N   0  0  0  0  0  0  0  0  0  0  0  0
   58.0200   25.2300   45.2690 C   0  0  0  0  0  0  0  0  0  0  0  0
   58.6440   24.2140   44.8610 O   0  0  0  0  0  0  0  0  0  0  0  0
  1  2  1  0
  2  3  2  0
  3  4  1  0
  4  5  2  0
  5  6  1  0
  5  7  1  0
  7  8  2  0
  8  9  1  0
  9 10  1  0
 10 11  1  0
 11 12  1  0
 11 13  2  0
 13 14  1  0
 14 15  2  0
 15 16  1  0
 16 17  2  0
 17 18  1  0
 17 19  1  0
 19 20  1  0
 20 21  1  0
 21 22  2  0
 22 23  1  0
 23 24  2  0
 24 25  1  0
 25 26  2  0
 19 27  1  0
 27 28  2  0
 13 29  1  0
 29 30  1  0
 30 31  2  0
  8  2  1  0
 30 10  1  0
 27 15  1  0
 26 21  1  0
M  CHG  3   6  -1  12  -1  29  -1
M  END
>  <UniqueID>  (1360) 
35

>  <SMILES>  (1360) 
C=c1/c(=C/c2[n-]c(=O)n(Cc3cc([O-])ccc3O)c2[O-])cc(C)n1Cc1ccccn1

>  <Energy>  (1360) 
118.16598463283445

>  <Genealogy>  (1360) 
C=c1c(=Cc2[n-]c(=O)n(Cc3cc([O-])ccc3O)c2[O-])cc(C)n1Cc1ccccn1 (protonated)
C=c1/c(=C/c2[n-]c(=O)n(Cc3cc([O-])ccc3O)c2[O-])cc(C)n1Cc1ccccn1 (cis-trans isomerization)
C=c1/c(=C/c2[n-]c(=O)n(Cc3cc([O-])ccc3O)c2[O-])cc(C)n1Cc1ccccn1 (3D coordinates assigned)
C=c1/c(=C/c2[n-]c(=O)n(Cc3cc([O-])ccc3O)c2[O-])cc(C)n1Cc1ccccn1 (optimized conformer: 118.16598463283445 kcal/mol)

>  <smiles>  (1360) 
C=c1c(=Cc2[nH]c(=O)n(Cc3cc(O)ccc3O)c2O)cc(C)n1Cc1ccccn1

>  <score_type>  (1360) 
oracle

>  <origin>  (1360) 
adg

>  <m_score__min__energy>  (1360) 
-16.219999999999999

>  <m_primary>  (1360) 
energy

$$$$
47:0
     RDKit          3D

 34 37  0  0  0  0  0  0  0  0999 V2000
   61.1090   29.7900   45.9900 C   0  0  0  0  0  0  0  0  0  0  0  0
   60.1930   30.6870   46.3860 C   0  0  0  0  0  0  0  0  0  0  0  0
   58.8010   30.6330   46.2000 C   0  0  0  0  0  0  0  0  0  0  0  0
   58.0350   29.7870   45.4810 C   0  0  0  0  0  0  0  0  0  0  0  0
   57.5200   28.4870   45.9490 C   0  0  0  0  0  0  0  0  0  0  0  0
   56.2280   28.0690   45.5980 C   0  0  0  0  0  0  0  0  0  0  0  0
   55.3970   28.8960   44.8480 O   0  0  0  0  0  0  0  0  0  0  0  0
   55.7770   26.8520   45.9970 N   0  0  0  0  0  0  0  0  0  0  0  0
   56.5630   26.0170   46.7230 C   0  0  0  0  0  0  0  0  0  0  0  0
   56.1210   24.8960   47.0860 O   0  0  0  0  0  0  0  0  0  0  0  0
   57.8270   26.3870   47.0520 N   0  0  0  0  0  0  0  0  0  0  0  0
   58.3260   27.5930   46.6770 C   0  0  0  0  0  0  0  0  0  0  0  0
   59.5100   27.8940   46.9830 O   0  0  0  0  0  0  0  0  0  0  0  0
   58.2710   31.6870   46.9270 C   0  0  0  0  0  0  0  0  0  0  0  0
   59.3350   32.3710   47.4760 C   0  0  0  0  0  0  0  0  0  0  0  0
   59.2120   33.5790   48.3550 C   0  0  0  0  0  0  0  0  0  0  0  0
   60.4970   31.7610   47.1570 N   0  0  0  0  0  0  0  0  0  0  0  0
   61.8070   32.1810   47.5800 C   0  0  0  0  0  0  0  0  0  0  0  0
   62.5460   33.0350   46.7470 C   0  0  0  0  0  0  0  0  0  0  0  0
   63.8000   33.5000   47.1450 C   0  0  0  0  0  0  0  0  0  0  0  0
   64.3280   33.1180   48.3790 C   0  0  0  0  0  0  0  0  0  0  0  0
   63.6060   32.2640   49.2170 C   0  0  0  0  0  0  0  0  0  0  0  0
   62.3400   31.7830   48.8300 C   0  0  0  0  0  0  0  0  0  0  0  0
   61.6170   30.8430   49.7180 C   0  0  0  0  0  0  0  0  0  0  0  0
   61.6620   31.0040   50.9680 O   0  0  0  0  0  0  0  0  0  0  0  0
   60.8610   29.7540   49.1670 N   0  0  0  0  0  0  0  0  0  0  0  0
   60.0130   28.8950   49.9910 C   0  0  0  0  0  0  0  0  0  0  0  0
   59.0030   29.7240   50.7370 C   0  0  0  0  0  0  0  0  0  0  0  0
   58.5590   29.3360   52.0120 C   0  0  0  0  0  0  0  0  0  0  0  0
   57.6390   30.1260   52.7080 C   0  0  0  0  0  0  0  0  0  0  0  0
   57.1610   31.3100   52.1400 C   0  0  0  0  0  0  0  0  0  0  0  0
   56.2710   32.0760   52.8170 F   0  0  0  0  0  0  0  0  0  0  0  0
   57.6040   31.7060   50.8740 C   0  0  0  0  0  0  0  0  0  0  0  0
   58.5220   30.9180   50.1750 C   0  0  0  0  0  0  0  0  0  0  0  0
  1  2  2  0
  2  3  1  0
  3  4  2  3
  4  5  1  0
  5  6  2  0
  6  7  1  0
  6  8  1  0
  8  9  1  0
  9 10  2  0
  9 11  1  0
 11 12  1  0
 12 13  2  0
  3 14  1  0
 14 15  2  0
 15 16  1  0
 15 17  1  0
 17 18  1  0
 18 19  2  0
 19 20  1  0
 20 21  2  0
 21 22  1  0
 22 23  2  0
 23 24  1  0
 24 25  2  0
 24 26  1  0
 26 27  1  0
 27 28  1  0
 28 29  2  0
 29 30  1  0
 30 31  2  0
 31 32  1  0
 31 33  1  0
 33 34  2  0
 17  2  1  0
 23 18  1  0
 34 28  1  0
 12  5  1  0
M  CHG  3   7  -1   8  -1  11  -1
M  END
>  <UniqueID>  (1361) 
40

>  <SMILES>  (1361) 
C=c1c(=Cc2c([O-])[n-]c(=O)[n-]c2=O)cc(C)n1-c1ccccc1C(=O)NCc1ccc(F)cc1

>  <Energy>  (1361) 
106.48406848445472

>  <Genealogy>  (1361) 
C=c1c(=Cc2c([O-])[n-]c(=O)[n-]c2=O)cc(C)n1-c1ccccc1C(=O)NCc1ccc(F)cc1 (protonated)
C=c1c(=Cc2c([O-])[n-]c(=O)[n-]c2=O)cc(C)n1-c1ccccc1C(=O)NCc1ccc(F)cc1 (3D coordinates assigned)
C=c1c(=Cc2c([O-])[n-]c(=O)[n-]c2=O)cc(C)n1-c1ccccc1C(=O)NCc1ccc(F)cc1 (optimized conformer: 106.48406848445472 kcal/mol)

>  <smiles>  (1361) 
C=c1c(=Cc2c(O)[nH]c(=O)[nH]c2=O)cc(C)n1-c1ccccc1C(=O)NCc1ccc(F)cc1

>  <score_type>  (1361) 
oracle

>  <origin>  (1361) 
adg

>  <m_score__min__energy>  (1361) 
-16.329999999999998

>  <m_primary>  (1361) 
energy

$$$$
48:0
     RDKit          3D

 30 33  0  0  0  0  0  0  0  0999 V2000
   56.3050   31.7540   52.6300 C   0  0  0  0  0  0  0  0  0  0  0  0
   55.6790   30.5940   52.8850 C   0  0  0  0  0  0  0  0  0  0  0  0
   54.3020   30.3600   52.8170 C   0  0  0  0  0  0  0  0  0  0  0  0
   53.3380   31.2470   52.5010 C   0  0  0  0  0  0  0  0  0  0  0  0
   52.5180   31.1710   51.2790 C   0  0  0  0  0  0  0  0  0  0  0  0
   52.6080   30.1650   50.3920 N   0  0  0  0  0  0  0  0  0  0  0  0
   51.6320   30.4450   49.4990 C   0  0  0  0  0  0  0  0  0  0  0  0
   51.4080   29.7240   48.4930 O   0  0  0  0  0  0  0  0  0  0  0  0
   50.9110   31.5520   49.7770 N   0  0  0  0  0  0  0  0  0  0  0  0
   51.4750   31.9940   50.9130 C   0  0  0  0  0  0  0  0  0  0  0  0
   51.0130   33.0960   51.6220 O   0  0  0  0  0  0  0  0  0  0  0  0
   54.1140   29.0320   53.1780 C   0  0  0  0  0  0  0  0  0  0  0  0
   55.3670   28.5080   53.4250 C   0  0  0  0  0  0  0  0  0  0  0  0
   55.6370   27.0880   53.8180 C   0  0  0  0  0  0  0  0  0  0  0  0
   56.3160   29.4540   53.2520 N   0  0  0  0  0  0  0  0  0  0  0  0
   57.7370   29.2270   53.2960 C   0  0  0  0  0  0  0  0  0  0  0  0
   58.3590   28.8400   54.4880 C   0  0  0  0  0  0  0  0  0  0  0  0
   59.7300   28.5870   54.5050 C   0  0  0  0  0  0  0  0  0  0  0  0
   60.4650   28.7150   53.3250 C   0  0  0  0  0  0  0  0  0  0  0  0
   59.8480   29.0850   52.1680 N   0  0  0  0  0  0  0  0  0  0  0  0
   58.5070   29.3420   52.1280 C   0  0  0  0  0  0  0  0  0  0  0  0
   57.8590   29.7140   50.9440 O   0  0  0  0  0  0  0  0  0  0  0  0
   58.2170   30.8180   50.1220 C   0  0  0  0  0  0  0  0  0  0  0  0
   59.5020   30.4730   49.3750 C   0  0  0  0  0  0  0  0  0  0  0  0
   60.6730   30.9740   50.1290 N   0  0  0  0  0  0  0  0  0  0  0  0
   60.3650   32.1270   51.0110 C   0  0  0  0  0  0  0  0  0  0  0  0
   60.8690   33.4790   50.4780 C   0  0  0  0  0  0  0  0  0  0  0  0
   60.5770   33.6250   48.6890 S   0  0  0  0  0  0  0  0  0  0  0  0
   61.6720   32.2380   48.1970 C   0  0  0  0  0  0  0  0  0  0  0  0
   61.8710   31.1680   49.2890 C   0  0  0  0  0  0  0  0  0  0  0  0
  1  2  2  0
  2  3  1  0
  3  4  2  0
  4  5  1  0
  5  6  1  0
  6  7  1  0
  7  8  2  0
  7  9  1  0
  9 10  1  0
 10 11  1  0
  3 12  1  0
 12 13  2  0
 13 14  1  0
 13 15  1  0
 15 16  1  0
 16 17  2  0
 17 18  1  0
 18 19  2  0
 19 20  1  0
 20 21  2  0
 21 22  1  0
 22 23  1  0
 23 24  1  0
 24 25  1  0
 25 26  1  0
 26 27  1  0
 27 28  1  0
 28 29  1  0
 29 30  1  0
 15  2  1  0
 21 16  1  0
 30 25  1  0
 10  5  2  0
M  CHG  4   6  -1   9  -1  11  -1  20   1
M  END
>  <UniqueID>  (1362) 
41

>  <SMILES>  (1362) 
C=c1/c(=C/c2[n-]c(=O)[n-]c2[O-])cc(C)n1-c1ccc[nH+]c1OCCN1CCSCC1

>  <Energy>  (1362) 
131.03218805660453

>  <Genealogy>  (1362) 
C=c1c(=Cc2[n-]c(=O)[n-]c2[O-])cc(C)n1-c1ccc[nH+]c1OCCN1CCSCC1 (protonated)
C=c1/c(=C/c2[n-]c(=O)[n-]c2[O-])cc(C)n1-c1ccc[nH+]c1OCCN1CCSCC1 (cis-trans isomerization)
C=c1/c(=C/c2[n-]c(=O)[n-]c2[O-])cc(C)n1-c1ccc[nH+]c1OCCN1CCSCC1 (3D coordinates assigned)
C=c1/c(=C/c2[n-]c(=O)[n-]c2[O-])cc(C)n1-c1ccc[nH+]c1OCCN1CCSCC1 (nonaromatic ring conformer: 131.03218805660453 kcal/mol)

>  <smiles>  (1362) 
C=c1c(=Cc2[nH]c(=O)[nH]c2O)cc(C)n1-c1cccnc1OCCN1CCSCC1

>  <score_type>  (1362) 
oracle

>  <origin>  (1362) 
adg

>  <m_score__min__energy>  (1362) 
-15.68

>  <m_primary>  (1362) 
energy

$$$$
52:0
     RDKit          3D

 29 32  0  0  0  0  0  0  0  0999 V2000
   59.2780   33.9010   51.1280 C   0  0  0  0  0  0  0  0  0  0  0  0
   59.5540   34.2330   49.7730 O   0  0  0  0  0  0  0  0  0  0  0  0
   60.0490   33.3040   48.8520 C   0  0  0  0  0  0  0  0  0  0  0  0
   61.2960   32.7070   48.8480 C   0  0  0  0  0  0  0  0  0  0  0  0
   61.3720   31.8490   47.8070 N   0  0  0  0  0  0  0  0  0  0  0  0
   60.1630   31.9490   47.2100 C   0  0  0  0  0  0  0  0  0  0  0  0
   59.3520   32.8380   47.8080 N   0  0  0  0  0  0  0  0  0  0  0  0
   57.9590   33.0940   47.4540 C   0  0  0  0  0  0  0  0  0  0  0  0
   57.7030   32.6810   45.9980 C   0  0  0  0  0  0  0  0  0  0  0  0
   58.3210   31.3740   45.7220 N   0  0  0  0  0  0  0  0  0  0  0  0
   57.6470   30.4450   44.8540 C   0  0  0  0  0  0  0  0  0  0  0  0
   57.0860   30.8700   43.8070 O   0  0  0  0  0  0  0  0  0  0  0  0
   57.5790   29.0030   45.1890 C   0  0  0  0  0  0  0  0  0  0  0  0
   58.7680   28.2810   45.3850 C   0  0  0  0  0  0  0  0  0  0  0  0
   58.7270   26.9300   45.7290 C   0  0  0  0  0  0  0  0  0  0  0  0
   57.5020   26.2770   45.8650 C   0  0  0  0  0  0  0  0  0  0  0  0
   56.3050   26.9670   45.6430 C   0  0  0  0  0  0  0  0  0  0  0  0
   55.0670   26.2560   45.7790 N   0  0  0  0  0  0  0  0  0  0  0  0
   54.9130   24.8300   45.7860 C   0  0  0  0  0  0  0  0  0  0  0  0
   53.9620   24.3210   45.1360 O   0  0  0  0  0  0  0  0  0  0  0  0
   55.7990   23.9540   46.5790 C   0  0  0  0  0  0  0  0  0  0  0  0
   56.4410   22.8250   46.1180 C   0  0  0  0  0  0  0  0  0  0  0  0
   57.1430   22.2770   47.1260 N   0  0  0  0  0  0  0  0  0  0  0  0
   56.8930   23.0970   48.1660 C   0  0  0  0  0  0  0  0  0  0  0  0
   57.3830   22.9120   49.3100 O   0  0  0  0  0  0  0  0  0  0  0  0
   56.0760   24.1310   47.8830 N   0  0  0  0  0  0  0  0  0  0  0  0
   56.3400   28.3450   45.3410 C   0  0  0  0  0  0  0  0  0  0  0  0
   55.1510   29.0530   45.1970 O   0  0  0  0  0  0  0  0  0  0  0  0
   59.7600   31.1950   45.9820 C   0  0  0  0  0  0  0  0  0  0  0  0
  1  2  1  0
  2  3  1  0
  3  4  2  0
  4  5  1  0
  5  6  2  0
  6  7  1  0
  7  8  1  0
  8  9  1  0
  9 10  1  0
 10 11  1  0
 11 12  2  0
 11 13  1  0
 13 14  2  0
 14 15  1  0
 15 16  2  0
 16 17  1  0
 17 18  1  0
 18 19  1  0
 19 20  2  0
 19 21  1  0
 21 22  2  0
 22 23  1  0
 23 24  1  0
 24 25  2  0
 24 26  1  0
 17 27  2  0
 27 28  1  0
 10 29  1  0
  7  3  1  0
 27 13  1  0
 29  6  1  0
 26 21  1  0
M  CHG  4  18  -1  23  -1  26  -1  28  -1
M  END
>  <UniqueID>  (1363) 
45

>  <SMILES>  (1363) 
COc1cnc2n1CCN(C(=O)c1cccc([N-]C(=O)c3c[n-]c(=O)[n-]3)c1[O-])C2

>  <Energy>  (1363) 
116.81032329821159

>  <Genealogy>  (1363) 
COc1cnc2n1CCN(C(=O)c1cccc([N-]C(=O)c3c[n-]c(=O)[n-]3)c1[O-])C2 (protonated)
COc1cnc2n1CCN(C(=O)c1cccc([N-]C(=O)c3c[n-]c(=O)[n-]3)c1[O-])C2 (3D coordinates assigned)
COc1cnc2n1CCN(C(=O)c1cccc([N-]C(=O)c3c[n-]c(=O)[n-]3)c1[O-])C2 (nonaromatic ring conformer: 116.81032329821159 kcal/mol)

>  <smiles>  (1363) 
COc1cnc2n1CCN(C(=O)c1cccc(NC(=O)c3c[nH]c(=O)[nH]3)c1O)C2

>  <score_type>  (1363) 
oracle

>  <origin>  (1363) 
adg

>  <m_score__min__energy>  (1363) 
-17.34

>  <m_primary>  (1363) 
energy

$$$$
53:0
     RDKit          3D

 29 31  0  0  0  0  0  0  0  0999 V2000
   57.0320   34.2360   44.9790 C   0  0  0  0  0  0  0  0  0  0  0  0
   57.8140   33.1530   44.2410 C   0  0  0  0  0  0  0  0  0  0  0  0
   58.0190   31.9750   45.1010 N   0  0  0  0  0  0  0  0  0  0  0  0
   58.1090   30.6470   44.4830 C   0  0  0  0  0  0  0  0  0  0  0  0
   56.8310   29.8870   44.7060 C   0  0  0  0  0  0  0  0  0  0  0  0
   55.7430   30.5180   44.7390 O   0  0  0  0  0  0  0  0  0  0  0  0
   56.8280   28.4870   45.0140 N   0  0  0  0  0  0  0  0  0  0  0  0
   57.9120   27.7490   45.5980 C   0  0  0  0  0  0  0  0  0  0  0  0
   59.2340   28.1870   45.4030 C   0  0  0  0  0  0  0  0  0  0  0  0
   60.3070   27.4530   45.9070 C   0  0  0  0  0  0  0  0  0  0  0  0
   60.0770   26.2630   46.5910 C   0  0  0  0  0  0  0  0  0  0  0  0
   58.7740   25.7980   46.7710 C   0  0  0  0  0  0  0  0  0  0  0  0
   57.6720   26.5270   46.2770 C   0  0  0  0  0  0  0  0  0  0  0  0
   56.3010   25.9920   46.5020 C   0  0  0  0  0  0  0  0  0  0  0  0
   55.1500   26.6590   45.9860 N   0  0  0  0  0  0  0  0  0  0  0  0
   56.1370   24.9380   47.1750 O   0  0  0  0  0  0  0  0  0  0  0  0
   58.2140   32.1180   46.5240 C   0  0  0  0  0  0  0  0  0  0  0  0
   57.3810   32.7710   47.2080 O   0  0  0  0  0  0  0  0  0  0  0  0
   59.3610   31.4890   47.2160 C   0  0  0  0  0  0  0  0  0  0  0  0
   59.1450   30.2820   47.8980 C   0  0  0  0  0  0  0  0  0  0  0  0
   60.2110   29.6380   48.5290 C   0  0  0  0  0  0  0  0  0  0  0  0
   60.0230   28.5460   49.1270 O   0  0  0  0  0  0  0  0  0  0  0  0
   61.4530   30.1850   48.4990 N   0  0  0  0  0  0  0  0  0  0  0  0
   61.7040   31.3640   47.8720 C   0  0  0  0  0  0  0  0  0  0  0  0
   63.0000   31.8920   47.8870 C   0  0  0  0  0  0  0  0  0  0  0  0
   63.2660   33.1170   47.2710 C   0  0  0  0  0  0  0  0  0  0  0  0
   62.2380   33.8240   46.6460 C   0  0  0  0  0  0  0  0  0  0  0  0
   60.9400   33.3070   46.6210 C   0  0  0  0  0  0  0  0  0  0  0  0
   60.6560   32.0620   47.2190 C   0  0  0  0  0  0  0  0  0  0  0  0
  1  2  1  0
  2  3  1  0
  3  4  1  0
  4  5  1  0
  5  6  2  0
  5  7  1  0
  7  8  1  0
  8  9  2  0
  9 10  1  0
 10 11  2  0
 11 12  1  0
 12 13  2  0
 13 14  1  0
 14 15  1  0
 14 16  2  0
  3 17  1  0
 17 18  2  0
 17 19  1  0
 19 20  2  0
 20 21  1  0
 21 22  2  0
 21 23  1  0
 23 24  1  0
 24 25  2  0
 25 26  1  0
 26 27  2  0
 27 28  1  0
 28 29  2  0
 13  8  1  0
 29 19  1  0
 29 24  1  0
M  CHG  3   7  -1  15  -1  23  -1
M  END
>  <UniqueID>  (1364) 
46

>  <SMILES>  (1364) 
CCN(CC(=O)[N-]c1ccccc1C([NH-])=O)C(=O)c1cc(=O)[n-]c2ccccc12

>  <Energy>  (1364) 
62.268960733607116

>  <Genealogy>  (1364) 
CCN(CC(=O)[N-]c1ccccc1C([NH-])=O)C(=O)c1cc(=O)[n-]c2ccccc12 (protonated)
CCN(CC(=O)[N-]c1ccccc1C([NH-])=O)C(=O)c1cc(=O)[n-]c2ccccc12 (3D coordinates assigned)
CCN(CC(=O)[N-]c1ccccc1C([NH-])=O)C(=O)c1cc(=O)[n-]c2ccccc12 (optimized conformer: 62.268960733607116 kcal/mol)

>  <smiles>  (1364) 
CCN(CC(=O)Nc1ccccc1C(N)=O)C(=O)c1cc(=O)[nH]c2ccccc12

>  <score_type>  (1364) 
oracle

>  <origin>  (1364) 
adg

>  <m_score__min__energy>  (1364) 
-14.84

>  <m_primary>  (1364) 
energy

$$$$
57:0
     RDKit          3D

 28 31  0  0  0  0  0  0  0  0999 V2000
   59.1130   29.7170   47.6800 C   0  0  0  0  0  0  0  0  0  0  0  0
   58.9020   29.8030   46.3580 C   0  0  0  0  0  0  0  0  0  0  0  0
   58.5060   28.7750   45.4870 C   0  0  0  0  0  0  0  0  0  0  0  0
   58.4180   27.4440   45.6730 C   0  0  0  0  0  0  0  0  0  0  0  0
   57.1810   26.7030   45.9700 C   0  0  0  0  0  0  0  0  0  0  0  0
   57.1410   25.4200   46.3760 N   0  0  0  0  0  0  0  0  0  0  0  0
   55.8210   25.1350   46.3840 C   0  0  0  0  0  0  0  0  0  0  0  0
   55.3730   24.0110   46.7280 O   0  0  0  0  0  0  0  0  0  0  0  0
   55.0210   26.1460   45.9830 N   0  0  0  0  0  0  0  0  0  0  0  0
   55.8960   27.1280   45.7120 C   0  0  0  0  0  0  0  0  0  0  0  0
   55.5190   28.3820   45.2380 O   0  0  0  0  0  0  0  0  0  0  0  0
   58.2020   29.3850   44.2800 C   0  0  0  0  0  0  0  0  0  0  0  0
   58.4870   30.7280   44.4280 C   0  0  0  0  0  0  0  0  0  0  0  0
   58.2740   31.7730   43.3770 C   0  0  0  0  0  0  0  0  0  0  0  0
   58.9150   30.9780   45.6830 N   0  0  0  0  0  0  0  0  0  0  0  0
   59.2130   32.2810   46.2130 C   0  0  0  0  0  0  0  0  0  0  0  0
   58.2870   33.3160   46.0310 C   0  0  0  0  0  0  0  0  0  0  0  0
   58.5560   34.5960   46.5130 C   0  0  0  0  0  0  0  0  0  0  0  0
   59.7600   34.8570   47.1650 C   0  0  0  0  0  0  0  0  0  0  0  0
   60.7070   33.8390   47.3500 C   0  0  0  0  0  0  0  0  0  0  0  0
   61.9550   34.1600   47.9850 N   0  0  0  0  0  0  0  0  0  0  0  0
   62.0010   34.5080   49.4100 C   0  0  0  0  0  0  0  0  0  0  0  0
   63.2050   33.9020   50.0880 C   0  0  0  0  0  0  0  0  0  0  0  0
   64.2060   33.3180   49.4070 C   0  0  0  0  0  0  0  0  0  0  0  0
   64.1440   33.0890   47.9180 C   0  0  0  0  0  0  0  0  0  0  0  0
   63.2110   34.0870   47.2350 C   0  0  0  0  0  0  0  0  0  0  0  0
   60.4250   32.5270   46.9000 C   0  0  0  0  0  0  0  0  0  0  0  0
   61.4150   31.4110   47.1200 C   0  0  0  0  0  0  0  0  0  0  0  0
  1  2  2  0
  2  3  1  0
  3  4  2  3
  4  5  1  0
  5  6  1  0
  6  7  1  0
  7  8  2  0
  7  9  1  0
  9 10  1  0
 10 11  1  0
  3 12  1  0
 12 13  2  0
 13 14  1  0
 13 15  1  0
 15 16  1  0
 16 17  2  0
 17 18  1  0
 18 19  2  0
 19 20  1  0
 20 21  1  0
 21 22  1  0
 22 23  1  0
 23 24  2  0
 24 25  1  0
 25 26  1  0
 20 27  2  0
 27 28  1  0
 15  2  1  0
 27 16  1  0
 10  5  2  0
 26 21  1  0
M  CHG  2   6  -1   9  -1
M  END
>  <UniqueID>  (1365) 
50

>  <SMILES>  (1365) 
C=c1c(=Cc2[n-]c(=O)[n-]c2O)cc(C)n1-c1cccc(N2CC=CCC2)c1C

>  <Energy>  (1365) 
133.53438299635226

>  <Genealogy>  (1365) 
C=c1c(=Cc2[n-]c(=O)[n-]c2O)cc(C)n1-c1cccc(N2CC=CCC2)c1C (protonated)
C=c1c(=Cc2[n-]c(=O)[n-]c2O)cc(C)n1-c1cccc(N2CC=CCC2)c1C (3D coordinates assigned)
C=c1c(=Cc2[n-]c(=O)[n-]c2O)cc(C)n1-c1cccc(N2CC=CCC2)c1C (nonaromatic ring conformer: 133.53438299635226 kcal/mol)

>  <smiles>  (1365) 
C=c1c(=Cc2[nH]c(=O)[nH]c2O)cc(C)n1-c1cccc(N2CC=CCC2)c1C

>  <score_type>  (1365) 
oracle

>  <origin>  (1365) 
adg

>  <m_score__min__energy>  (1365) 
-14.33

>  <m_primary>  (1365) 
energy

$$$$
58:0
     RDKit          3D

 25 27  0  0  0  0  0  0  0  0999 V2000
   56.7420   30.4590   51.9450 C   0  0  0  0  0  0  0  0  0  0  0  0
   55.5150   30.4520   51.6590 O   0  0  0  0  0  0  0  0  0  0  0  0
   57.7340   30.0880   50.9810 N   0  0  0  0  0  0  0  0  0  0  0  0
   58.4350   30.9690   50.0920 C   0  0  0  0  0  0  0  0  0  0  0  0
   58.5330   32.3510   50.3350 C   0  0  0  0  0  0  0  0  0  0  0  0
   59.2070   33.1760   49.4320 C   0  0  0  0  0  0  0  0  0  0  0  0
   59.7780   32.6370   48.2770 C   0  0  0  0  0  0  0  0  0  0  0  0
   59.6720   31.2630   48.0100 C   0  0  0  0  0  0  0  0  0  0  0  0
   60.2860   30.6790   46.7630 C   0  0  0  0  0  0  0  0  0  0  0  0
   59.3070   29.8540   46.0320 N   0  0  0  0  0  0  0  0  0  0  0  0
   58.3140   30.3390   45.2480 C   0  0  0  0  0  0  0  0  0  0  0  0
   58.0440   31.7920   44.9920 C   0  0  0  0  0  0  0  0  0  0  0  0
   57.5310   29.3130   44.7660 C   0  0  0  0  0  0  0  0  0  0  0  0
   58.0840   28.1330   45.2300 C   0  0  0  0  0  0  0  0  0  0  0  0
   57.6140   26.9220   44.8740 C   0  0  0  0  0  0  0  0  0  0  0  0
   57.0950   25.8960   45.7940 C   0  0  0  0  0  0  0  0  0  0  0  0
   57.7800   24.8090   46.1960 N   0  0  0  0  0  0  0  0  0  0  0  0
   56.8650   24.1090   46.9010 C   0  0  0  0  0  0  0  0  0  0  0  0
   57.1350   23.0150   47.4630 O   0  0  0  0  0  0  0  0  0  0  0  0
   55.6360   24.6660   46.9480 N   0  0  0  0  0  0  0  0  0  0  0  0
   55.7970   25.7890   46.2290 C   0  0  0  0  0  0  0  0  0  0  0  0
   54.7760   26.6960   45.9740 O   0  0  0  0  0  0  0  0  0  0  0  0
   59.1560   28.5000   46.0610 C   0  0  0  0  0  0  0  0  0  0  0  0
   59.8410   27.6870   46.8820 C   0  0  0  0  0  0  0  0  0  0  0  0
   58.9860   30.4400   48.9190 C   0  0  0  0  0  0  0  0  0  0  0  0
  1  2  2  0
  1  3  1  0
  3  4  1  0
  4  5  2  0
  5  6  1  0
  6  7  2  0
  7  8  1  0
  8  9  1  0
  9 10  1  0
 10 11  1  0
 11 12  1  0
 11 13  2  0
 13 14  1  0
 14 15  2  0
 15 16  1  0
 16 17  1  0
 17 18  1  0
 18 19  2  0
 18 20  1  0
 20 21  1  0
 21 22  1  0
 14 23  1  0
 23 24  2  0
  8 25  2  0
 25  4  1  0
 23 10  1  0
 21 16  2  0
M  CHG  4   3  -1  17  -1  20  -1  22  -1
M  END
>  <UniqueID>  (1366) 
51

>  <SMILES>  (1366) 
C=c1/c(=C\c2[n-]c(=O)[n-]c2[O-])cc(C)n1Cc1cccc([N-]C=O)c1

>  <Energy>  (1366) 
113.02775679840398

>  <Genealogy>  (1366) 
C=c1c(=Cc2[n-]c(=O)[n-]c2[O-])cc(C)n1Cc1cccc([N-]C=O)c1 (protonated)
C=c1/c(=C\c2[n-]c(=O)[n-]c2[O-])cc(C)n1Cc1cccc([N-]C=O)c1 (cis-trans isomerization)
C=c1/c(=C\c2[n-]c(=O)[n-]c2[O-])cc(C)n1Cc1cccc([N-]C=O)c1 (3D coordinates assigned)
C=c1/c(=C\c2[n-]c(=O)[n-]c2[O-])cc(C)n1Cc1cccc([N-]C=O)c1 (optimized conformer: 113.02775679840398 kcal/mol)

>  <smiles>  (1366) 
C=c1c(=Cc2[nH]c(=O)[nH]c2O)cc(C)n1Cc1cccc(NC=O)c1

>  <score_type>  (1366) 
oracle

>  <origin>  (1366) 
adg

>  <m_score__min__energy>  (1366) 
-16.190000000000001

>  <m_primary>  (1366) 
energy

$$$$
64:0
     RDKit          3D

 28 30  0  0  0  0  0  0  0  0999 V2000
   54.9130   26.6130   45.9980 O   0  0  0  0  0  0  0  0  0  0  0  0
   55.9140   25.7150   46.3580 C   0  0  0  0  0  0  0  0  0  0  0  0
   55.5670   24.4760   46.7980 N   0  0  0  0  0  0  0  0  0  0  0  0
   56.5090   23.5530   47.1150 C   0  0  0  0  0  0  0  0  0  0  0  0
   56.1610   22.4150   47.5220 O   0  0  0  0  0  0  0  0  0  0  0  0
   57.8250   23.8540   46.9870 N   0  0  0  0  0  0  0  0  0  0  0  0
   58.2280   25.0770   46.5570 C   0  0  0  0  0  0  0  0  0  0  0  0
   59.4610   25.3170   46.4530 O   0  0  0  0  0  0  0  0  0  0  0  0
   57.2740   26.0630   46.2450 C   0  0  0  0  0  0  0  0  0  0  0  0
   57.7170   27.3950   45.7670 C   0  0  0  0  0  0  0  0  0  0  0  0
   58.0710   28.3810   46.6030 C   0  0  0  0  0  0  0  0  0  0  0  0
   57.9780   29.8220   46.2460 C   0  0  0  0  0  0  0  0  0  0  0  0
   58.2940   30.7330   47.1910 C   0  0  0  0  0  0  0  0  0  0  0  0
   58.8650   32.0710   46.9190 C   0  0  0  0  0  0  0  0  0  0  0  0
   58.0720   33.0170   46.6670 O   0  0  0  0  0  0  0  0  0  0  0  0
   60.3190   32.3450   46.9730 C   0  0  0  0  0  0  0  0  0  0  0  0
   60.8270   33.6120   46.6350 C   0  0  0  0  0  0  0  0  0  0  0  0
   62.1990   33.8670   46.7140 C   0  0  0  0  0  0  0  0  0  0  0  0
   63.0770   32.8580   47.1170 C   0  0  0  0  0  0  0  0  0  0  0  0
   62.5840   31.5900   47.4360 C   0  0  0  0  0  0  0  0  0  0  0  0
   61.2130   31.3310   47.3590 C   0  0  0  0  0  0  0  0  0  0  0  0
   57.5060   30.2310   44.8960 C   0  0  0  0  0  0  0  0  0  0  0  0
   58.3240   31.0280   44.0780 C   0  0  0  0  0  0  0  0  0  0  0  0
   57.8990   31.3940   42.7980 C   0  0  0  0  0  0  0  0  0  0  0  0
   56.6510   30.9770   42.3290 C   0  0  0  0  0  0  0  0  0  0  0  0
   55.8240   30.1950   43.1390 C   0  0  0  0  0  0  0  0  0  0  0  0
   56.2450   29.8200   44.4200 C   0  0  0  0  0  0  0  0  0  0  0  0
   55.4140   29.0280   45.2060 O   0  0  0  0  0  0  0  0  0  0  0  0
  1  2  1  0
  2  3  1  0
  3  4  1  0
  4  5  2  0
  4  6  1  0
  6  7  1  0
  7  8  2  0
  7  9  1  0
  9 10  1  0
 10 11  2  0
 11 12  1  0
 12 13  2  3
 13 14  1  0
 14 15  2  0
 14 16  1  0
 16 17  2  0
 17 18  1  0
 18 19  2  0
 19 20  1  0
 20 21  2  0
 12 22  1  0
 22 23  2  0
 23 24  1  0
 24 25  2  0
 25 26  1  0
 26 27  2  0
 27 28  1  0
  9  2  2  0
 21 16  1  0
 27 22  1  0
M  CHG  3   3  -1   6  -1  28  -1
M  END
>  <UniqueID>  (1367) 
57

>  <SMILES>  (1367) 
O=C(C=C(/C=C/c1c(O)[n-]c(=O)[n-]c1=O)c1ccccc1[O-])c1ccccc1

>  <Energy>  (1367) 
62.79792548488908

>  <Genealogy>  (1367) 
O=C(C=C(C=Cc1c(O)[n-]c(=O)[n-]c1=O)c1ccccc1[O-])c1ccccc1 (protonated)
O=C(C=C(/C=C/c1c(O)[n-]c(=O)[n-]c1=O)c1ccccc1[O-])c1ccccc1 (cis-trans isomerization)
O=C(C=C(/C=C/c1c(O)[n-]c(=O)[n-]c1=O)c1ccccc1[O-])c1ccccc1 (3D coordinates assigned)
O=C(C=C(/C=C/c1c(O)[n-]c(=O)[n-]c1=O)c1ccccc1[O-])c1ccccc1 (optimized conformer: 62.79792548488908 kcal/mol)

>  <smiles>  (1367) 
O=C(C=C(C=Cc1c(O)[nH]c(=O)[nH]c1=O)c1ccccc1O)c1ccccc1

>  <score_type>  (1367) 
oracle

>  <origin>  (1367) 
adg

>  <m_score__min__energy>  (1367) 
-16.27

>  <m_primary>  (1367) 
energy

$$$$
66:0
     RDKit          3D

 23 25  0  0  0  0  0  0  0  0999 V2000
   57.8210   25.8940   42.9280 O   0  0  0  0  0  0  0  0  0  0  0  0
   57.7260   26.3490   44.1030 C   0  0  0  0  0  0  0  0  0  0  0  0
   57.6230   25.3710   45.2440 C   0  0  0  0  0  0  0  0  0  0  0  0
   56.2030   24.9230   45.4110 C   0  0  0  0  0  0  0  0  0  0  0  0
   55.7790   23.6620   45.2040 N   0  0  0  0  0  0  0  0  0  0  0  0
   54.4480   23.7460   45.4210 C   0  0  0  0  0  0  0  0  0  0  0  0
   53.6830   22.7520   45.3250 O   0  0  0  0  0  0  0  0  0  0  0  0
   53.9990   24.9800   45.7410 N   0  0  0  0  0  0  0  0  0  0  0  0
   55.1250   25.7140   45.7260 C   0  0  0  0  0  0  0  0  0  0  0  0
   55.1620   27.0780   45.9890 O   0  0  0  0  0  0  0  0  0  0  0  0
   57.6930   27.7760   44.3160 N   0  0  0  0  0  0  0  0  0  0  0  0
   57.2900   28.6630   43.2120 C   0  0  0  0  0  0  0  0  0  0  0  0
   56.6090   29.9170   43.7680 C   0  0  0  0  0  0  0  0  0  0  0  0
   57.5090   30.6880   44.7700 C   0  0  0  0  0  0  0  0  0  0  0  0
   58.0590   32.0190   44.1950 C   0  0  0  0  0  0  0  0  0  0  0  0
   58.4830   33.0300   45.2390 C   0  0  0  0  0  0  0  0  0  0  0  0
   58.1550   32.8430   46.5930 C   0  0  0  0  0  0  0  0  0  0  0  0
   58.5380   33.7880   47.5490 C   0  0  0  0  0  0  0  0  0  0  0  0
   59.2670   34.9150   47.1670 C   0  0  0  0  0  0  0  0  0  0  0  0
   59.6140   35.1010   45.8270 C   0  0  0  0  0  0  0  0  0  0  0  0
   59.2300   34.1610   44.8660 C   0  0  0  0  0  0  0  0  0  0  0  0
   58.6230   29.8070   45.3870 C   0  0  0  0  0  0  0  0  0  0  0  0
   58.1590   28.3600   45.5860 C   0  0  0  0  0  0  0  0  0  0  0  0
  1  2  2  0
  2  3  1  0
  3  4  1  0
  4  5  1  0
  5  6  1  0
  6  7  2  0
  6  8  1  0
  8  9  1  0
  9 10  1  0
  2 11  1  0
 11 12  1  0
 12 13  1  0
 13 14  1  0
 14 15  1  0
 15 16  1  0
 16 17  2  0
 17 18  1  0
 18 19  2  0
 19 20  1  0
 20 21  2  0
 14 22  1  0
 22 23  1  0
  9  4  2  0
 23 11  1  0
 21 16  1  0
M  CHG  3   5  -1   8  -1  10  -1
M  END
>  <UniqueID>  (1368) 
59

>  <SMILES>  (1368) 
O=C(Cc1[n-]c(=O)[n-]c1[O-])N1CCC(Cc2ccccc2)CC1

>  <Energy>  (1368) 
73.18665866688413

>  <Genealogy>  (1368) 
O=C(Cc1[n-]c(=O)[n-]c1[O-])N1CCC(Cc2ccccc2)CC1 (protonated)
O=C(Cc1[n-]c(=O)[n-]c1[O-])N1CCC(Cc2ccccc2)CC1 (3D coordinates assigned)
O=C(Cc1[n-]c(=O)[n-]c1[O-])N1CCC(Cc2ccccc2)CC1 (nonaromatic ring conformer: 73.18665866688413 kcal/mol)

>  <smiles>  (1368) 
O=C(Cc1[nH]c(=O)[nH]c1O)N1CCC(Cc2ccccc2)CC1

>  <score_type>  (1368) 
oracle

>  <origin>  (1368) 
adg

>  <m_score__min__energy>  (1368) 
-15.25

>  <m_primary>  (1368) 
energy

$$$$
71:0
     RDKit          3D

 26 28  0  0  0  0  0  0  0  0999 V2000
   58.9880   29.9390   44.6540 C   0  0  0  0  0  0  0  0  0  0  0  0
   58.8020   29.5530   45.9260 C   0  0  0  0  0  0  0  0  0  0  0  0
   58.3630   28.2970   46.3790 C   0  0  0  0  0  0  0  0  0  0  0  0
   57.8560   27.2420   45.7130 C   0  0  0  0  0  0  0  0  0  0  0  0
   57.2140   26.0670   46.3250 C   0  0  0  0  0  0  0  0  0  0  0  0
   57.8690   24.9680   46.7440 N   0  0  0  0  0  0  0  0  0  0  0  0
   56.8710   24.1240   47.0860 C   0  0  0  0  0  0  0  0  0  0  0  0
   57.0870   22.9720   47.5480 O   0  0  0  0  0  0  0  0  0  0  0  0
   55.6260   24.6050   46.8840 N   0  0  0  0  0  0  0  0  0  0  0  0
   55.8630   25.8300   46.3880 C   0  0  0  0  0  0  0  0  0  0  0  0
   54.8640   26.7110   45.9950 O   0  0  0  0  0  0  0  0  0  0  0  0
   58.5190   28.3060   47.7560 C   0  0  0  0  0  0  0  0  0  0  0  0
   58.9790   29.5600   48.0990 C   0  0  0  0  0  0  0  0  0  0  0  0
   59.2680   30.0140   49.4970 C   0  0  0  0  0  0  0  0  0  0  0  0
   59.1400   30.3200   46.9940 N   0  0  0  0  0  0  0  0  0  0  0  0
   59.6700   31.6550   46.9780 C   0  0  0  0  0  0  0  0  0  0  0  0
   58.8330   32.7410   46.6920 C   0  0  0  0  0  0  0  0  0  0  0  0
   59.3470   34.0400   46.6790 C   0  0  0  0  0  0  0  0  0  0  0  0
   60.6960   34.2630   46.9660 C   0  0  0  0  0  0  0  0  0  0  0  0
   61.5400   33.1860   47.2830 C   0  0  0  0  0  0  0  0  0  0  0  0
   62.9680   33.4280   47.5800 C   0  0  0  0  0  0  0  0  0  0  0  0
   63.7570   33.6600   46.6230 O   0  0  0  0  0  0  0  0  0  0  0  0
   63.4740   33.4130   48.9300 N   0  0  0  0  0  0  0  0  0  0  0  0
   62.6330   33.8640   50.0440 C   0  0  0  0  0  0  0  0  0  0  0  0
   64.8860   33.0960   49.1560 C   0  0  0  0  0  0  0  0  0  0  0  0
   61.0230   31.8810   47.2710 C   0  0  0  0  0  0  0  0  0  0  0  0
  1  2  2  0
  2  3  1  0
  3  4  2  0
  4  5  1  0
  5  6  1  0
  6  7  1  0
  7  8  2  0
  7  9  1  0
  9 10  1  0
 10 11  1  0
  3 12  1  0
 12 13  2  0
 13 14  1  0
 13 15  1  0
 15 16  1  0
 16 17  2  0
 17 18  1  0
 18 19  2  0
 19 20  1  0
 20 21  1  0
 21 22  2  0
 21 23  1  0
 23 24  1  0
 23 25  1  0
 20 26  2  0
 15  2  1  0
 26 16  1  0
 10  5  2  0
M  CHG  3   6  -1   9  -1  11  -1
M  END
>  <UniqueID>  (1369) 
64

>  <SMILES>  (1369) 
C=c1/c(=C\c2[n-]c(=O)[n-]c2[O-])cc(C)n1-c1cccc(C(=O)N(C)C)c1

>  <Energy>  (1369) 
122.87261982560324

>  <Genealogy>  (1369) 
C=c1c(=Cc2[n-]c(=O)[n-]c2[O-])cc(C)n1-c1cccc(C(=O)N(C)C)c1 (protonated)
C=c1/c(=C\c2[n-]c(=O)[n-]c2[O-])cc(C)n1-c1cccc(C(=O)N(C)C)c1 (cis-trans isomerization)
C=c1/c(=C\c2[n-]c(=O)[n-]c2[O-])cc(C)n1-c1cccc(C(=O)N(C)C)c1 (3D coordinates assigned)
C=c1/c(=C\c2[n-]c(=O)[n-]c2[O-])cc(C)n1-c1cccc(C(=O)N(C)C)c1 (optimized conformer: 122.87261982560324 kcal/mol)

>  <smiles>  (1369) 
C=c1c(=Cc2[nH]c(=O)[nH]c2O)cc(C)n1-c1cccc(C(=O)N(C)C)c1

>  <score_type>  (1369) 
oracle

>  <origin>  (1369) 
adg

>  <m_score__min__energy>  (1369) 
-16.050000000000001

>  <m_primary>  (1369) 
energy

$$$$
77:0
     RDKit          3D

 22 24  0  0  0  0  0  0  0  0999 V2000
   54.3450   29.1800   54.4290 C   0  0  0  0  0  0  0  0  0  0  0  0
   54.9450   29.9230   53.4860 C   0  0  0  0  0  0  0  0  0  0  0  0
   54.3250   30.7470   52.5320 C   0  0  0  0  0  0  0  0  0  0  0  0
   53.0570   31.1870   52.4370 C   0  0  0  0  0  0  0  0  0  0  0  0
   52.2790   31.2920   51.1910 C   0  0  0  0  0  0  0  0  0  0  0  0
   52.2520   30.3580   50.2230 N   0  0  0  0  0  0  0  0  0  0  0  0
   51.3130   30.8220   49.3690 C   0  0  0  0  0  0  0  0  0  0  0  0
   51.0060   30.2190   48.3090 O   0  0  0  0  0  0  0  0  0  0  0  0
   50.7220   31.9750   49.7490 N   0  0  0  0  0  0  0  0  0  0  0  0
   51.3360   32.2500   50.9110 C   0  0  0  0  0  0  0  0  0  0  0  0
   51.0350   33.3510   51.7020 O   0  0  0  0  0  0  0  0  0  0  0  0
   55.3100   31.0890   51.6180 C   0  0  0  0  0  0  0  0  0  0  0  0
   56.4900   30.5400   52.0780 C   0  0  0  0  0  0  0  0  0  0  0  0
   57.8140   30.6560   51.3860 C   0  0  0  0  0  0  0  0  0  0  0  0
   56.2720   29.8400   53.2110 N   0  0  0  0  0  0  0  0  0  0  0  0
   57.2580   29.0700   53.9210 C   0  0  0  0  0  0  0  0  0  0  0  0
   57.2990   27.6790   53.7720 C   0  0  0  0  0  0  0  0  0  0  0  0
   58.2520   26.9320   54.4620 C   0  0  0  0  0  0  0  0  0  0  0  0
   59.1600   27.5850   55.2960 C   0  0  0  0  0  0  0  0  0  0  0  0
   59.1160   28.9390   55.4300 N   0  0  0  0  0  0  0  0  0  0  0  0
   58.1940   29.6930   54.7660 C   0  0  0  0  0  0  0  0  0  0  0  0
   58.2190   31.5980   54.9760 Br  0  0  0  0  0  0  0  0  0  0  0  0
  1  2  2  0
  2  3  1  0
  3  4  2  0
  4  5  1  0
  5  6  1  0
  6  7  1  0
  7  8  2  0
  7  9  1  0
  9 10  1  0
 10 11  1  0
  3 12  1  0
 12 13  2  0
 13 14  1  0
 13 15  1  0
 15 16  1  0
 16 17  2  0
 17 18  1  0
 18 19  2  0
 19 20  1  0
 20 21  2  0
 21 22  1  0
 15  2  1  0
 21 16  1  0
 10  5  2  0
M  CHG  4   6  -1   9  -1  11  -1  20   1
M  END
>  <UniqueID>  (1370) 
70

>  <SMILES>  (1370) 
C=c1/c(=C\c2[n-]c(=O)[n-]c2[O-])cc(C)n1-c1ccc[nH+]c1Br

>  <Energy>  (1370) 
110.39842430085677

>  <Genealogy>  (1370) 
C=c1c(=Cc2[n-]c(=O)[n-]c2[O-])cc(C)n1-c1ccc[nH+]c1Br (protonated)
C=c1/c(=C\c2[n-]c(=O)[n-]c2[O-])cc(C)n1-c1ccc[nH+]c1Br (cis-trans isomerization)
C=c1/c(=C\c2[n-]c(=O)[n-]c2[O-])cc(C)n1-c1ccc[nH+]c1Br (3D coordinates assigned)
C=c1/c(=C\c2[n-]c(=O)[n-]c2[O-])cc(C)n1-c1ccc[nH+]c1Br (optimized conformer: 110.39842430085677 kcal/mol)

>  <smiles>  (1370) 
C=c1c(=Cc2[nH]c(=O)[nH]c2O)cc(C)n1-c1cccnc1Br

>  <score_type>  (1370) 
oracle

>  <origin>  (1370) 
adg

>  <m_score__min__energy>  (1370) 
-14.49

>  <m_primary>  (1370) 
energy

$$$$
84:0
     RDKit          3D

 25 26  0  0  0  0  0  0  0  0999 V2000
   58.4710   34.0970   44.8720 C   0  0  0  0  0  0  0  0  0  0  0  0
   57.3600   33.2710   45.5120 C   0  0  0  0  0  0  0  0  0  0  0  0
   57.9200   32.0900   46.1820 N   0  0  0  0  0  0  0  0  0  0  0  0
   58.4910   32.2010   47.5310 C   0  0  0  0  0  0  0  0  0  0  0  0
   59.8600   32.8760   47.5010 C   0  0  0  0  0  0  0  0  0  0  0  0
   58.0960   30.8700   45.4420 C   0  0  0  0  0  0  0  0  0  0  0  0
   59.3300   30.2030   45.4720 C   0  0  0  0  0  0  0  0  0  0  0  0
   59.4940   28.9890   44.7990 C   0  0  0  0  0  0  0  0  0  0  0  0
   58.4200   28.4170   44.1060 C   0  0  0  0  0  0  0  0  0  0  0  0
   58.5940   27.1020   43.4550 C   0  0  0  0  0  0  0  0  0  0  0  0
   57.7690   26.0550   43.6090 C   0  0  0  0  0  0  0  0  0  0  0  0
   57.2470   25.5510   44.9020 C   0  0  0  0  0  0  0  0  0  0  0  0
   57.9000   25.8110   45.9460 O   0  0  0  0  0  0  0  0  0  0  0  0
   55.9710   24.7990   45.0220 C   0  0  0  0  0  0  0  0  0  0  0  0
   54.8370   25.4000   45.5980 C   0  0  0  0  0  0  0  0  0  0  0  0
   54.8810   26.7140   46.0510 O   0  0  0  0  0  0  0  0  0  0  0  0
   53.6890   24.6900   45.7410 N   0  0  0  0  0  0  0  0  0  0  0  0
   53.6060   23.4000   45.3290 C   0  0  0  0  0  0  0  0  0  0  0  0
   52.5340   22.7590   45.4800 O   0  0  0  0  0  0  0  0  0  0  0  0
   54.6760   22.8010   44.7500 N   0  0  0  0  0  0  0  0  0  0  0  0
   55.8480   23.4670   44.5800 C   0  0  0  0  0  0  0  0  0  0  0  0
   56.8110   22.8820   44.0160 O   0  0  0  0  0  0  0  0  0  0  0  0
   57.2000   29.1090   44.0300 C   0  0  0  0  0  0  0  0  0  0  0  0
   57.0300   30.3230   44.7070 C   0  0  0  0  0  0  0  0  0  0  0  0
   55.8080   30.9890   44.6490 O   0  0  0  0  0  0  0  0  0  0  0  0
  1  2  1  0
  2  3  1  0
  3  4  1  0
  4  5  1  0
  3  6  1  0
  6  7  2  0
  7  8  1  0
  8  9  2  0
  9 10  1  0
 10 11  2  3
 11 12  1  0
 12 13  2  0
 12 14  1  0
 14 15  2  0
 15 16  1  0
 15 17  1  0
 17 18  1  0
 18 19  2  0
 18 20  1  0
 20 21  1  0
 21 22  2  0
  9 23  1  0
 23 24  2  0
 24 25  1  0
 24  6  1  0
 21 14  1  0
M  CHG  3  16  -1  17  -1  20  -1
M  END
>  <UniqueID>  (1371) 
77

>  <SMILES>  (1371) 
CCN(CC)c1ccc(C=CC(=O)c2c([O-])[n-]c(=O)[n-]c2=O)cc1O

>  <Energy>  (1371) 
52.8384851616798

>  <Genealogy>  (1371) 
CCN(CC)c1ccc(C=CC(=O)c2c([O-])[n-]c(=O)[n-]c2=O)cc1O (protonated)
CCN(CC)c1ccc(C=CC(=O)c2c([O-])[n-]c(=O)[n-]c2=O)cc1O (3D coordinates assigned)
CCN(CC)c1ccc(C=CC(=O)c2c([O-])[n-]c(=O)[n-]c2=O)cc1O (optimized conformer: 52.8384851616798 kcal/mol)

>  <smiles>  (1371) 
CCN(CC)c1ccc(C=CC(=O)c2c(O)[nH]c(=O)[nH]c2=O)cc1O

>  <score_type>  (1371) 
oracle

>  <origin>  (1371) 
adg

>  <m_score__min__energy>  (1371) 
-15.41

>  <m_primary>  (1371) 
energy

$$$$
21:0
     RDKit          3D

 31 34  0  0  0  0  0  0  0  0999 V2000
   57.7300   23.5190   47.9100 O   0  0  0  0  0  0  0  0  0  0  0  0
   57.1790   24.5730   47.1880 C   0  0  0  0  0  0  0  0  0  0  0  0
   55.8760   24.6580   46.8700 N   0  0  0  0  0  0  0  0  0  0  0  0
   55.8010   25.8530   46.2480 C   0  0  0  0  0  0  0  0  0  0  0  0
   54.7210   26.3130   45.7930 O   0  0  0  0  0  0  0  0  0  0  0  0
   56.9710   26.5210   46.1590 N   0  0  0  0  0  0  0  0  0  0  0  0
   57.8520   25.6880   46.7400 C   0  0  0  0  0  0  0  0  0  0  0  0
   59.2700   26.0300   46.9490 C   0  0  0  0  0  0  0  0  0  0  0  0
   59.6940   27.1910   47.4840 C   0  0  0  0  0  0  0  0  0  0  0  0
   60.1510   27.3810   48.7830 C   0  0  0  0  0  0  0  0  0  0  0  0
   60.5220   28.7070   48.8830 C   0  0  0  0  0  0  0  0  0  0  0  0
   61.1090   29.3370   50.1090 C   0  0  0  0  0  0  0  0  0  0  0  0
   60.3320   29.3400   47.7030 N   0  0  0  0  0  0  0  0  0  0  0  0
   60.6260   30.7220   47.4340 C   0  0  0  0  0  0  0  0  0  0  0  0
   61.9520   31.1720   47.4200 C   0  0  0  0  0  0  0  0  0  0  0  0
   62.2350   32.5130   47.1520 C   0  0  0  0  0  0  0  0  0  0  0  0
   61.1960   33.4130   46.9020 C   0  0  0  0  0  0  0  0  0  0  0  0
   59.8590   32.9800   46.9220 C   0  0  0  0  0  0  0  0  0  0  0  0
   58.7570   33.9430   46.6700 C   0  0  0  0  0  0  0  0  0  0  0  0
   58.8950   35.1490   47.0120 O   0  0  0  0  0  0  0  0  0  0  0  0
   57.5610   33.5610   45.9740 N   0  0  0  0  0  0  0  0  0  0  0  0
   57.4620   32.7250   44.9770 C   0  0  0  0  0  0  0  0  0  0  0  0
   56.8020   31.5520   45.1780 N   0  0  0  0  0  0  0  0  0  0  0  0
   56.6520   30.6190   44.1980 C   0  0  0  0  0  0  0  0  0  0  0  0
   55.9060   29.3540   44.4800 C   0  0  0  0  0  0  0  0  0  0  0  0
   57.1890   30.8550   42.9280 C   0  0  0  0  0  0  0  0  0  0  0  0
   57.8850   32.0390   42.6900 C   0  0  0  0  0  0  0  0  0  0  0  0
   58.0340   32.9790   43.7120 C   0  0  0  0  0  0  0  0  0  0  0  0
   59.5840   31.6240   47.1740 C   0  0  0  0  0  0  0  0  0  0  0  0
   59.8300   28.4250   46.8370 C   0  0  0  0  0  0  0  0  0  0  0  0
   59.5430   28.6860   45.5520 C   0  0  0  0  0  0  0  0  0  0  0  0
  1  2  1  0
  2  3  1  0
  3  4  1  0
  4  5  2  0
  4  6  1  0
  6  7  1  0
  7  8  1  0
  8  9  2  0
  9 10  1  0
 10 11  2  0
 11 12  1  0
 11 13  1  0
 13 14  1  0
 14 15  2  0
 15 16  1  0
 16 17  2  0
 17 18  1  0
 18 19  1  0
 19 20  2  0
 19 21  1  0
 21 22  2  3
 22 23  1  0
 23 24  1  0
 24 25  1  0
 24 26  2  0
 26 27  1  0
 27 28  2  0
 18 29  2  0
 13 30  1  0
 30 31  2  0
  7  2  2  0
 30  9  1  0
 29 14  1  0
 28 22  1  0
M  CHG  3   3  -1   6  -1  23  -1
M  END
>  <UniqueID>  (1372) 
22

>  <SMILES>  (1372) 
C=c1/c(=C/c2[n-]c(=O)[n-]c2O)cc(C)n1-c1cccc(C(=O)N=c2cccc(C)[n-]2)c1

>  <Energy>  (1372) 
132.57205031992126

>  <Genealogy>  (1372) 
C=c1c(=Cc2[n-]c(=O)[n-]c2O)cc(C)n1-c1cccc(C(=O)N=c2cccc(C)[n-]2)c1 (protonated)
C=c1/c(=C/c2[n-]c(=O)[n-]c2O)cc(C)n1-c1cccc(C(=O)N=c2cccc(C)[n-]2)c1 (cis-trans isomerization)
C=c1/c(=C/c2[n-]c(=O)[n-]c2O)cc(C)n1-c1cccc(C(=O)N=c2cccc(C)[n-]2)c1 (3D coordinates assigned)
C=c1/c(=C/c2[n-]c(=O)[n-]c2O)cc(C)n1-c1cccc(C(=O)N=c2cccc(C)[n-]2)c1 (optimized conformer: 132.57205031992126 kcal/mol)

>  <smiles>  (1372) 
C=c1c(=Cc2[nH]c(=O)[nH]c2O)cc(C)n1-c1cccc(C(=O)N=c2cccc(C)[nH]2)c1

>  <score_type>  (1372) 
oracle

>  <origin>  (1372) 
adg

>  <m_score__min__energy>  (1372) 
-15.33

>  <m_primary>  (1372) 
energy

$$$$
26:0
     RDKit          3D

 28 31  0  0  0  0  0  0  0  0999 V2000
   56.5920   26.2480   46.5870 C   0  0  0  0  0  0  0  0  0  0  0  0
   56.9520   25.9360   45.3360 C   0  0  0  0  0  0  0  0  0  0  0  0
   56.7850   24.6950   44.7090 C   0  0  0  0  0  0  0  0  0  0  0  0
   56.1490   23.6110   45.1980 C   0  0  0  0  0  0  0  0  0  0  0  0
   56.5540   22.9230   46.4320 C   0  0  0  0  0  0  0  0  0  0  0  0
   56.5280   23.5030   47.6460 N   0  0  0  0  0  0  0  0  0  0  0  0
   57.0130   22.5390   48.4570 C   0  0  0  0  0  0  0  0  0  0  0  0
   57.1080   22.6900   49.7030 O   0  0  0  0  0  0  0  0  0  0  0  0
   57.3710   21.3960   47.8290 N   0  0  0  0  0  0  0  0  0  0  0  0
   57.0880   21.6620   46.5430 C   0  0  0  0  0  0  0  0  0  0  0  0
   57.3440   20.7920   45.4860 O   0  0  0  0  0  0  0  0  0  0  0  0
   57.3360   24.8200   43.4430 C   0  0  0  0  0  0  0  0  0  0  0  0
   57.7980   26.1170   43.3410 C   0  0  0  0  0  0  0  0  0  0  0  0
   58.4540   26.6910   42.1230 C   0  0  0  0  0  0  0  0  0  0  0  0
   57.5820   26.7910   44.4930 N   0  0  0  0  0  0  0  0  0  0  0  0
   57.8830   28.1780   44.7210 C   0  0  0  0  0  0  0  0  0  0  0  0
   59.2140   28.6020   44.7620 C   0  0  0  0  0  0  0  0  0  0  0  0
   59.5200   29.9350   45.0550 C   0  0  0  0  0  0  0  0  0  0  0  0
   58.4930   30.8650   45.2960 C   0  0  0  0  0  0  0  0  0  0  0  0
   58.8160   32.2250   45.6490 N   0  0  0  0  0  0  0  0  0  0  0  0
   58.3910   33.3160   44.7620 C   0  0  0  0  0  0  0  0  0  0  0  0
   59.0120   34.6360   45.2120 C   0  0  0  0  0  0  0  0  0  0  0  0
   58.7870   34.7970   46.5980 O   0  0  0  0  0  0  0  0  0  0  0  0
   59.5870   33.8950   47.3520 C   0  0  0  0  0  0  0  0  0  0  0  0
   59.7950   32.4990   46.7100 C   0  0  0  0  0  0  0  0  0  0  0  0
   57.1520   30.4390   45.2230 C   0  0  0  0  0  0  0  0  0  0  0  0
   56.8490   29.1030   44.9420 C   0  0  0  0  0  0  0  0  0  0  0  0
   55.5200   28.6980   44.8940 O   0  0  0  0  0  0  0  0  0  0  0  0
  1  2  2  0
  2  3  1  0
  3  4  2  3
  4  5  1  0
  5  6  1  0
  6  7  1  0
  7  8  2  0
  7  9  1  0
  9 10  1  0
 10 11  1  0
  3 12  1  0
 12 13  2  0
 13 14  1  0
 13 15  1  0
 15 16  1  0
 16 17  2  0
 17 18  1  0
 18 19  2  0
 19 20  1  0
 20 21  1  0
 21 22  1  0
 22 23  1  0
 23 24  1  0
 24 25  1  0
 19 26  1  0
 26 27  2  0
 27 28  1  0
 15  2  1  0
 27 16  1  0
 10  5  2  0
 25 20  1  0
M  CHG  3   6  -1   9  -1  28  -1
M  END
>  <UniqueID>  (1373) 
27

>  <SMILES>  (1373) 
C=c1c(=Cc2[n-]c(=O)[n-]c2O)cc(C)n1-c1ccc(N2CCOCC2)cc1[O-]

>  <Energy>  (1373) 
131.58010486363872

>  <Genealogy>  (1373) 
C=c1c(=Cc2[n-]c(=O)[n-]c2O)cc(C)n1-c1ccc(N2CCOCC2)cc1[O-] (protonated)
C=c1c(=Cc2[n-]c(=O)[n-]c2O)cc(C)n1-c1ccc(N2CCOCC2)cc1[O-] (3D coordinates assigned)
C=c1c(=Cc2[n-]c(=O)[n-]c2O)cc(C)n1-c1ccc(N2CCOCC2)cc1[O-] (nonaromatic ring conformer: 131.58010486363872 kcal/mol)

>  <smiles>  (1373) 
C=c1c(=Cc2[nH]c(=O)[nH]c2O)cc(C)n1-c1ccc(N2CCOCC2)cc1O

>  <score_type>  (1373) 
oracle

>  <origin>  (1373) 
adg

>  <m_score__min__energy>  (1373) 
-15.58

>  <m_primary>  (1373) 
energy

$$$$
27:0
     RDKit          3D

 25 27  0  0  0  0  0  0  0  0999 V2000
   56.8540   25.6160   46.0700 C   0  0  0  0  0  0  0  0  0  0  0  0
   57.9160   26.2920   46.5290 C   0  0  0  0  0  0  0  0  0  0  0  0
   58.5010   27.4360   45.9740 C   0  0  0  0  0  0  0  0  0  0  0  0
   58.0660   28.0790   44.8680 C   0  0  0  0  0  0  0  0  0  0  0  0
   57.5520   29.4560   44.8320 C   0  0  0  0  0  0  0  0  0  0  0  0
   58.3130   30.5450   44.6250 N   0  0  0  0  0  0  0  0  0  0  0  0
   57.4060   31.5400   44.5130 C   0  0  0  0  0  0  0  0  0  0  0  0
   57.7360   32.7400   44.3280 O   0  0  0  0  0  0  0  0  0  0  0  0
   56.1170   31.1450   44.6020 N   0  0  0  0  0  0  0  0  0  0  0  0
   56.2300   29.8200   44.7860 C   0  0  0  0  0  0  0  0  0  0  0  0
   55.1460   28.9610   44.9060 O   0  0  0  0  0  0  0  0  0  0  0  0
   59.5710   27.7640   46.8260 C   0  0  0  0  0  0  0  0  0  0  0  0
   60.3940   29.0360   46.8760 C   0  0  0  0  0  0  0  0  0  0  0  0
   59.6450   30.1980   47.5460 C   0  0  0  0  0  0  0  0  0  0  0  0
   60.2500   31.5370   47.1970 C   0  0  0  0  0  0  0  0  0  0  0  0
   61.4330   31.7340   47.4450 O   0  0  0  0  0  0  0  0  0  0  0  0
   59.4400   32.5970   46.6210 N   0  0  0  0  0  0  0  0  0  0  0  0
   58.6500   33.2930   47.6720 C   0  0  0  0  0  0  0  0  0  0  0  0
   59.2290   34.6790   48.0050 C   0  0  0  0  0  0  0  0  0  0  0  0
   59.2860   35.5440   46.8800 O   0  0  0  0  0  0  0  0  0  0  0  0
   59.5880   34.8790   45.6570 C   0  0  0  0  0  0  0  0  0  0  0  0
   60.2900   33.5220   45.8370 C   0  0  0  0  0  0  0  0  0  0  0  0
   59.5880   26.7850   47.8150 C   0  0  0  0  0  0  0  0  0  0  0  0
   60.5290   26.7150   48.9780 C   0  0  0  0  0  0  0  0  0  0  0  0
   58.5870   25.9070   47.6300 N   0  0  0  0  0  0  0  0  0  0  0  0
  1  2  2  0
  2  3  1  0
  3  4  2  0
  4  5  1  0
  5  6  1  0
  6  7  1  0
  7  8  2  0
  7  9  1  0
  9 10  1  0
 10 11  1  0
  3 12  1  0
 12 13  1  0
 13 14  1  0
 14 15  1  0
 15 16  2  0
 15 17  1  0
 17 18  1  0
 18 19  1  0
 19 20  1  0
 20 21  1  0
 21 22  1  0
 12 23  2  0
 23 24  1  0
 23 25  1  0
 25  2  1  0
 10  5  2  0
 22 17  1  0
M  CHG  4   6  -1   9  -1  11  -1  17   1
M  END
>  <UniqueID>  (1374) 
28

>  <SMILES>  (1374) 
C=c1[nH]c(C)c(CCC(=O)[NH+]2CCOCC2)/c1=C\c1[n-]c(=O)[n-]c1[O-]

>  <Energy>  (1374) 
123.90534755363461

>  <Genealogy>  (1374) 
C=c1[nH]c(C)c(CCC(=O)[NH+]2CCOCC2)c1=Cc1[n-]c(=O)[n-]c1[O-] (protonated)
C=c1[nH]c(C)c(CCC(=O)[NH+]2CCOCC2)/c1=C\c1[n-]c(=O)[n-]c1[O-] (cis-trans isomerization)
C=c1[nH]c(C)c(CCC(=O)[NH+]2CCOCC2)/c1=C\c1[n-]c(=O)[n-]c1[O-] (3D coordinates assigned)
C=c1[nH]c(C)c(CCC(=O)[NH+]2CCOCC2)/c1=C\c1[n-]c(=O)[n-]c1[O-] (nonaromatic ring conformer: 123.90534755363461 kcal/mol)

>  <smiles>  (1374) 
C=c1[nH]c(C)c(CCC(=O)N2CCOCC2)c1=Cc1[nH]c(=O)[nH]c1O

>  <score_type>  (1374) 
oracle

>  <origin>  (1374) 
adg

>  <m_score__min__energy>  (1374) 
-14.58

>  <m_primary>  (1374) 
energy

$$$$
28:0
     RDKit          3D

 27 29  0  0  0  0  0  0  0  0999 V2000
   56.6210   30.4050   42.8050 C   0  0  0  0  0  0  0  0  0  0  0  0
   57.3400   31.3230   43.7550 C   0  0  0  0  0  0  0  0  0  0  0  0
   57.8690   32.5360   43.2900 C   0  0  0  0  0  0  0  0  0  0  0  0
   58.5460   33.3930   44.1610 C   0  0  0  0  0  0  0  0  0  0  0  0
   58.6920   33.0540   45.5110 C   0  0  0  0  0  0  0  0  0  0  0  0
   59.5360   34.1460   46.6130 S   0  0  0  0  0  0  0  0  0  0  0  0
   59.6210   35.5090   45.9870 O   0  0  0  0  0  0  0  0  0  0  0  0
   58.7480   34.2680   47.8880 O   0  0  0  0  0  0  0  0  0  0  0  0
   61.1470   33.5790   46.9800 N   0  0  0  0  0  0  0  0  0  0  0  0
   61.1580   32.1160   47.1230 C   0  0  0  0  0  0  0  0  0  0  0  0
   62.5840   31.6280   47.4570 C   0  0  0  0  0  0  0  0  0  0  0  0
   63.4860   32.7050   47.6430 O   0  0  0  0  0  0  0  0  0  0  0  0
   62.9890   33.5780   48.6380 C   0  0  0  0  0  0  0  0  0  0  0  0
   61.6490   34.2120   48.2100 C   0  0  0  0  0  0  0  0  0  0  0  0
   58.1640   31.8450   45.9820 C   0  0  0  0  0  0  0  0  0  0  0  0
   57.5080   30.9610   45.1070 C   0  0  0  0  0  0  0  0  0  0  0  0
   56.9610   29.7180   45.5760 N   0  0  0  0  0  0  0  0  0  0  0  0
   57.7000   28.5650   45.9960 C   0  0  0  0  0  0  0  0  0  0  0  0
   58.4420   28.6070   47.0140 O   0  0  0  0  0  0  0  0  0  0  0  0
   57.6750   27.3340   45.1500 C   0  0  0  0  0  0  0  0  0  0  0  0
   57.1810   26.1730   45.9530 C   0  0  0  0  0  0  0  0  0  0  0  0
   57.9620   25.1660   46.3850 N   0  0  0  0  0  0  0  0  0  0  0  0
   57.0870   24.3330   46.9920 C   0  0  0  0  0  0  0  0  0  0  0  0
   57.4440   23.2590   47.5400 O   0  0  0  0  0  0  0  0  0  0  0  0
   55.8000   24.7420   46.9610 N   0  0  0  0  0  0  0  0  0  0  0  0
   55.8760   25.9040   46.2940 C   0  0  0  0  0  0  0  0  0  0  0  0
   54.7770   26.6990   45.9950 O   0  0  0  0  0  0  0  0  0  0  0  0
  1  2  1  0
  2  3  2  0
  3  4  1  0
  4  5  2  0
  5  6  1  0
  6  7  2  0
  6  8  2  0
  6  9  1  0
  9 10  1  0
 10 11  1  0
 11 12  1  0
 12 13  1  0
 13 14  1  0
  5 15  1  0
 15 16  2  0
 16 17  1  0
 17 18  1  0
 18 19  2  0
 18 20  1  0
 20 21  1  0
 21 22  1  0
 22 23  1  0
 23 24  2  0
 23 25  1  0
 25 26  1  0
 26 27  1  0
 16  2  1  0
 26 21  2  0
 14  9  1  0
M  CHG  4  17  -1  22  -1  25  -1  27  -1
M  END
>  <UniqueID>  (1375) 
29

>  <SMILES>  (1375) 
Cc1ccc(S(=O)(=O)N2CCOCC2)cc1[N-]C(=O)Cc1[n-]c(=O)[n-]c1[O-]

>  <Energy>  (1375) 
81.01233651136664

>  <Genealogy>  (1375) 
Cc1ccc(S(=O)(=O)N2CCOCC2)cc1[N-]C(=O)Cc1[n-]c(=O)[n-]c1[O-] (protonated)
Cc1ccc(S(=O)(=O)N2CCOCC2)cc1[N-]C(=O)Cc1[n-]c(=O)[n-]c1[O-] (3D coordinates assigned)
Cc1ccc(S(=O)(=O)N2CCOCC2)cc1[N-]C(=O)Cc1[n-]c(=O)[n-]c1[O-] (nonaromatic ring conformer: 81.01233651136664 kcal/mol)

>  <smiles>  (1375) 
Cc1ccc(S(=O)(=O)N2CCOCC2)cc1NC(=O)Cc1[nH]c(=O)[nH]c1O

>  <score_type>  (1375) 
oracle

>  <origin>  (1375) 
adg

>  <m_score__min__energy>  (1375) 
-18.18

>  <m_primary>  (1375) 
energy

$$$$
39:0
     RDKit          3D

 25 27  0  0  0  0  0  0  0  0999 V2000
   54.8970   30.5930   51.6220 O   0  0  0  0  0  0  0  0  0  0  0  0
   55.1200   30.2520   52.8150 C   0  0  0  0  0  0  0  0  0  0  0  0
   54.2260   29.5940   53.5860 N   0  0  0  0  0  0  0  0  0  0  0  0
   52.8570   29.2190   53.2430 C   0  0  0  0  0  0  0  0  0  0  0  0
   52.3140   30.1580   52.2020 C   0  0  0  0  0  0  0  0  0  0  0  0
   52.3060   29.7830   50.8480 C   0  0  0  0  0  0  0  0  0  0  0  0
   51.7640   30.6380   49.8840 C   0  0  0  0  0  0  0  0  0  0  0  0
   51.2160   31.8670   50.2640 C   0  0  0  0  0  0  0  0  0  0  0  0
   50.6790   32.7130   49.3000 O   0  0  0  0  0  0  0  0  0  0  0  0
   51.2070   32.2420   51.6140 C   0  0  0  0  0  0  0  0  0  0  0  0
   50.6580   33.4590   51.9970 O   0  0  0  0  0  0  0  0  0  0  0  0
   51.7500   31.3870   52.5800 C   0  0  0  0  0  0  0  0  0  0  0  0
   54.8350   29.4190   54.7780 C   0  0  0  0  0  0  0  0  0  0  0  0
   56.0990   29.9640   54.6860 C   0  0  0  0  0  0  0  0  0  0  0  0
   57.0540   29.9700   55.6960 O   0  0  0  0  0  0  0  0  0  0  0  0
   56.2800   30.4940   53.4610 N   0  0  0  0  0  0  0  0  0  0  0  0
   57.4970   31.1050   52.9250 C   0  0  0  0  0  0  0  0  0  0  0  0
   57.1880   31.9460   51.6810 C   0  0  0  0  0  0  0  0  0  0  0  0
   57.9890   31.4870   50.4910 C   0  0  0  0  0  0  0  0  0  0  0  0
   58.5000   30.1800   50.4440 C   0  0  0  0  0  0  0  0  0  0  0  0
   59.2850   29.7680   49.3630 C   0  0  0  0  0  0  0  0  0  0  0  0
   59.5730   30.6600   48.3250 C   0  0  0  0  0  0  0  0  0  0  0  0
   60.3560   30.2500   47.2540 O   0  0  0  0  0  0  0  0  0  0  0  0
   59.0740   31.9650   48.3690 C   0  0  0  0  0  0  0  0  0  0  0  0
   58.2860   32.3800   49.4470 C   0  0  0  0  0  0  0  0  0  0  0  0
  1  2  2  0
  2  3  1  0
  3  4  1  0
  4  5  1  0
  5  6  2  0
  6  7  1  0
  7  8  2  0
  8  9  1  0
  8 10  1  0
 10 11  1  0
 10 12  2  0
  3 13  1  0
 13 14  2  0
 14 15  1  0
 14 16  1  0
 16 17  1  0
 17 18  1  0
 18 19  1  0
 19 20  2  0
 20 21  1  0
 21 22  2  0
 22 23  1  0
 22 24  1  0
 24 25  2  0
 16  2  1  0
 25 19  1  0
 12  5  1  0
M  CHG  4   9  -1  11  -1  15  -1  23  -1
M  END
>  <UniqueID>  (1376) 
39

>  <SMILES>  (1376) 
O=c1n(Cc2ccc([O-])c([O-])c2)cc([O-])n1CCc1ccc([O-])cc1

>  <Energy>  (1376) 
70.0933553641695

>  <Genealogy>  (1376) 
O=c1n(Cc2ccc([O-])c([O-])c2)cc([O-])n1CCc1ccc([O-])cc1 (protonated)
O=c1n(Cc2ccc([O-])c([O-])c2)cc([O-])n1CCc1ccc([O-])cc1 (3D coordinates assigned)
O=c1n(Cc2ccc([O-])c([O-])c2)cc([O-])n1CCc1ccc([O-])cc1 (optimized conformer: 70.0933553641695 kcal/mol)

>  <smiles>  (1376) 
O=c1n(Cc2ccc(O)c(O)c2)cc(O)n1CCc1ccc(O)cc1

>  <score_type>  (1376) 
oracle

>  <origin>  (1376) 
adg

>  <m_score__min__energy>  (1376) 
-17.010000000000002

>  <m_primary>  (1376) 
energy

$$$$
41:0
     RDKit          3D

 24 26  0  0  0  0  0  0  0  0999 V2000
   59.1130   30.3260   47.6710 C   0  0  0  0  0  0  0  0  0  0  0  0
   58.4970   30.7120   46.5430 C   0  0  0  0  0  0  0  0  0  0  0  0
   58.1330   29.9190   45.4440 C   0  0  0  0  0  0  0  0  0  0  0  0
   58.3970   28.6290   45.1480 C   0  0  0  0  0  0  0  0  0  0  0  0
   57.5840   27.4730   45.5720 C   0  0  0  0  0  0  0  0  0  0  0  0
   56.1820   27.5500   45.6260 C   0  0  0  0  0  0  0  0  0  0  0  0
   55.5190   28.7100   45.2420 O   0  0  0  0  0  0  0  0  0  0  0  0
   55.4620   26.4840   46.0620 N   0  0  0  0  0  0  0  0  0  0  0  0
   56.0750   25.3420   46.4660 C   0  0  0  0  0  0  0  0  0  0  0  0
   55.3880   24.3660   46.8630 O   0  0  0  0  0  0  0  0  0  0  0  0
   57.4300   25.2540   46.4490 N   0  0  0  0  0  0  0  0  0  0  0  0
   58.1950   26.2920   46.0210 C   0  0  0  0  0  0  0  0  0  0  0  0
   59.4500   26.1780   46.0250 O   0  0  0  0  0  0  0  0  0  0  0  0
   57.3970   30.7820   44.6380 C   0  0  0  0  0  0  0  0  0  0  0  0
   56.7570   30.4590   43.3240 C   0  0  0  0  0  0  0  0  0  0  0  0
   57.3560   32.0080   45.1910 N   0  0  0  0  0  0  0  0  0  0  0  0
   58.0270   31.9680   46.3310 N   0  0  0  0  0  0  0  0  0  0  0  0
   58.1160   33.1260   47.2230 C   0  0  0  0  0  0  0  0  0  0  0  0
   59.5520   33.4190   47.5660 C   0  0  0  0  0  0  0  0  0  0  0  0
   59.9430   33.6320   48.8990 C   0  0  0  0  0  0  0  0  0  0  0  0
   61.2790   33.9100   49.2060 C   0  0  0  0  0  0  0  0  0  0  0  0
   62.2320   33.9760   48.1870 C   0  0  0  0  0  0  0  0  0  0  0  0
   61.8540   33.7620   46.8600 C   0  0  0  0  0  0  0  0  0  0  0  0
   60.5200   33.4820   46.5480 C   0  0  0  0  0  0  0  0  0  0  0  0
  1  2  2  0
  2  3  1  0
  3  4  2  0
  4  5  1  0
  5  6  2  0
  6  7  1  0
  6  8  1  0
  8  9  1  0
  9 10  2  0
  9 11  1  0
 11 12  1  0
 12 13  2  0
  3 14  1  0
 14 15  1  0
 14 16  2  0
 16 17  1  0
 17 18  1  0
 18 19  1  0
 19 20  2  0
 20 21  1  0
 21 22  2  0
 22 23  1  0
 23 24  2  0
 17  2  1  0
 24 19  1  0
 12  5  1  0
M  CHG  3   7  -1   8  -1  11  -1
M  END
>  <UniqueID>  (1377) 
41

>  <SMILES>  (1377) 
C=c1/c(=C\c2c([O-])[n-]c(=O)[n-]c2=O)c(C)nn1Cc1ccccc1

>  <Energy>  (1377) 
84.87833219900531

>  <Genealogy>  (1377) 
C=c1c(=Cc2c([O-])[n-]c(=O)[n-]c2=O)c(C)nn1Cc1ccccc1 (protonated)
C=c1/c(=C\c2c([O-])[n-]c(=O)[n-]c2=O)c(C)nn1Cc1ccccc1 (cis-trans isomerization)
C=c1/c(=C\c2c([O-])[n-]c(=O)[n-]c2=O)c(C)nn1Cc1ccccc1 (3D coordinates assigned)
C=c1/c(=C\c2c([O-])[n-]c(=O)[n-]c2=O)c(C)nn1Cc1ccccc1 (optimized conformer: 84.87833219900531 kcal/mol)

>  <smiles>  (1377) 
C=c1c(=Cc2c(O)[nH]c(=O)[nH]c2=O)c(C)nn1Cc1ccccc1

>  <score_type>  (1377) 
oracle

>  <origin>  (1377) 
adg

>  <m_score__min__energy>  (1377) 
-15.970000000000001

>  <m_primary>  (1377) 
energy

$$$$
43:0
     RDKit          3D

 28 30  0  0  0  0  0  0  0  0999 V2000
   58.9760   25.6610   45.7310 C   0  0  0  0  0  0  0  0  0  0  0  0
   58.6020   26.9680   45.7890 N   0  0  0  0  0  0  0  0  0  0  0  0
   57.2940   27.3410   45.8830 C   0  0  0  0  0  0  0  0  0  0  0  0
   56.9520   28.5970   45.9370 N   0  0  0  0  0  0  0  0  0  0  0  0
   56.2880   29.3660   44.9180 C   0  0  0  0  0  0  0  0  0  0  0  0
   55.1460   29.0290   44.5000 O   0  0  0  0  0  0  0  0  0  0  0  0
   56.9510   30.5690   44.3590 C   0  0  0  0  0  0  0  0  0  0  0  0
   57.0080   30.7750   42.9680 C   0  0  0  0  0  0  0  0  0  0  0  0
   57.6240   31.9150   42.4470 C   0  0  0  0  0  0  0  0  0  0  0  0
   58.1880   32.8630   43.3040 C   0  0  0  0  0  0  0  0  0  0  0  0
   58.1420   32.6740   44.6900 C   0  0  0  0  0  0  0  0  0  0  0  0
   58.8560   33.8800   45.7570 S   0  0  0  0  0  0  0  0  0  0  0  0
   57.7660   34.6010   46.5010 O   0  0  0  0  0  0  0  0  0  0  0  0
   59.6180   34.8810   44.9340 O   0  0  0  0  0  0  0  0  0  0  0  0
   59.9400   33.1310   46.8990 N   0  0  0  0  0  0  0  0  0  0  0  0
   59.4420   32.2510   47.9300 C   0  0  0  0  0  0  0  0  0  0  0  0
   58.9050   32.7760   49.1210 C   0  0  0  0  0  0  0  0  0  0  0  0
   58.4390   31.9230   50.1280 C   0  0  0  0  0  0  0  0  0  0  0  0
   58.5060   30.5380   49.9600 C   0  0  0  0  0  0  0  0  0  0  0  0
   58.0420   29.6930   50.9600 O   0  0  0  0  0  0  0  0  0  0  0  0
   59.0400   30.0040   48.7850 C   0  0  0  0  0  0  0  0  0  0  0  0
   59.5060   30.8520   47.7760 C   0  0  0  0  0  0  0  0  0  0  0  0
   61.3790   33.3580   46.7520 C   0  0  0  0  0  0  0  0  0  0  0  0
   57.5270   31.5270   45.2130 C   0  0  0  0  0  0  0  0  0  0  0  0
   56.2970   26.3540   45.9200 C   0  0  0  0  0  0  0  0  0  0  0  0
   54.9530   26.7040   46.0110 O   0  0  0  0  0  0  0  0  0  0  0  0
   56.6610   25.0070   45.8630 C   0  0  0  0  0  0  0  0  0  0  0  0
   58.0090   24.6550   45.7670 C   0  0  0  0  0  0  0  0  0  0  0  0
  1  2  1  0
  2  3  1  0
  3  4  2  0
  4  5  1  0
  5  6  2  0
  5  7  1  0
  7  8  2  0
  8  9  1  0
  9 10  2  0
 10 11  1  0
 11 12  1  0
 12 13  2  0
 12 14  2  0
 12 15  1  0
 15 16  1  0
 16 17  2  0
 17 18  1  0
 18 19  2  0
 19 20  1  0
 19 21  1  0
 21 22  2  0
 15 23  1  0
 11 24  2  0
  3 25  1  0
 25 26  1  0
 25 27  2  0
 27 28  1  0
 28  1  2  0
 24  7  1  0
 22 16  1  0
M  CHG  3   2  -1  20  -1  26  -1
M  END
>  <UniqueID>  (1378) 
43

>  <SMILES>  (1378) 
CN(c1ccc([O-])cc1)S(=O)(=O)c1cccc(C(=O)/N=c2\[n-]cccc2[O-])c1

>  <Energy>  (1378) 
53.144325764983016

>  <Genealogy>  (1378) 
CN(c1ccc([O-])cc1)S(=O)(=O)c1cccc(C(=O)N=c2[n-]cccc2[O-])c1 (protonated)
CN(c1ccc([O-])cc1)S(=O)(=O)c1cccc(C(=O)/N=c2\[n-]cccc2[O-])c1 (cis-trans isomerization)
CN(c1ccc([O-])cc1)S(=O)(=O)c1cccc(C(=O)/N=c2\[n-]cccc2[O-])c1 (3D coordinates assigned)
CN(c1ccc([O-])cc1)S(=O)(=O)c1cccc(C(=O)/N=c2\[n-]cccc2[O-])c1 (optimized conformer: 53.144325764983016 kcal/mol)

>  <smiles>  (1378) 
CN(c1ccc(O)cc1)S(=O)(=O)c1cccc(C(=O)N=c2[nH]cccc2O)c1

>  <score_type>  (1378) 
oracle

>  <origin>  (1378) 
adg

>  <m_score__min__energy>  (1378) 
-15.51

>  <m_primary>  (1378) 
energy

$$$$
69:0
     RDKit          3D

 33 36  0  0  0  0  0  0  0  0999 V2000
   56.2650   31.5700   52.6910 C   0  0  0  0  0  0  0  0  0  0  0  0
   55.5120   30.4610   52.7490 C   0  0  0  0  0  0  0  0  0  0  0  0
   54.1110   30.3800   52.7060 C   0  0  0  0  0  0  0  0  0  0  0  0
   53.1790   31.3110   52.4180 C   0  0  0  0  0  0  0  0  0  0  0  0
   52.2600   31.2770   51.2710 C   0  0  0  0  0  0  0  0  0  0  0  0
   52.3200   30.3500   50.2980 N   0  0  0  0  0  0  0  0  0  0  0  0
   51.3980   30.7740   49.4060 C   0  0  0  0  0  0  0  0  0  0  0  0
   51.1440   30.1480   48.3450 O   0  0  0  0  0  0  0  0  0  0  0  0
   50.7780   31.9280   49.7350 N   0  0  0  0  0  0  0  0  0  0  0  0
   51.3460   32.2420   50.9100 C   0  0  0  0  0  0  0  0  0  0  0  0
   51.0550   33.3980   51.6230 O   0  0  0  0  0  0  0  0  0  0  0  0
   53.7870   29.0720   53.0280 C   0  0  0  0  0  0  0  0  0  0  0  0
   54.9760   28.3920   53.1840 C   0  0  0  0  0  0  0  0  0  0  0  0
   55.0840   26.9380   53.5340 C   0  0  0  0  0  0  0  0  0  0  0  0
   56.0220   29.2330   53.0210 N   0  0  0  0  0  0  0  0  0  0  0  0
   57.4110   28.8840   53.1540 C   0  0  0  0  0  0  0  0  0  0  0  0
   57.8670   28.2660   54.3240 C   0  0  0  0  0  0  0  0  0  0  0  0
   59.1780   27.9360   54.4630 N   0  0  0  0  0  0  0  0  0  0  0  0
   60.0840   28.1690   53.4690 C   0  0  0  0  0  0  0  0  0  0  0  0
   61.5010   27.7840   53.6580 C   0  0  0  0  0  0  0  0  0  0  0  0
   62.1220   28.2230   54.6630 O   0  0  0  0  0  0  0  0  0  0  0  0
   62.1790   26.9120   52.7320 N   0  0  0  0  0  0  0  0  0  0  0  0
   61.4780   25.8140   52.0590 C   0  0  0  0  0  0  0  0  0  0  0  0
   62.3880   24.5830   52.0130 C   0  0  0  0  0  0  0  0  0  0  0  0
   63.6450   24.9080   51.4480 O   0  0  0  0  0  0  0  0  0  0  0  0
   64.3270   25.8220   52.2880 C   0  0  0  0  0  0  0  0  0  0  0  0
   63.5770   27.1560   52.3670 C   0  0  0  0  0  0  0  0  0  0  0  0
   59.6690   28.8020   52.2880 C   0  0  0  0  0  0  0  0  0  0  0  0
   58.3230   29.1690   52.1270 C   0  0  0  0  0  0  0  0  0  0  0  0
   57.8530   29.7700   50.9490 O   0  0  0  0  0  0  0  0  0  0  0  0
   58.6410   30.4700   50.0290 C   0  0  0  0  0  0  0  0  0  0  0  0
   58.5940   31.9600   50.0170 C   0  0  0  0  0  0  0  0  0  0  0  0
   59.4640   29.8690   49.2860 O   0  0  0  0  0  0  0  0  0  0  0  0
  1  2  2  0
  2  3  1  0
  3  4  2  3
  4  5  1  0
  5  6  1  0
  6  7  1  0
  7  8  2  0
  7  9  1  0
  9 10  1  0
 10 11  1  0
  3 12  1  0
 12 13  2  0
 13 14  1  0
 13 15  1  0
 15 16  1  0
 16 17  2  0
 17 18  1  0
 18 19  2  0
 19 20  1  0
 20 21  2  0
 20 22  1  0
 22 23  1  0
 23 24  1  0
 24 25  1  0
 25 26  1  0
 26 27  1  0
 19 28  1  0
 28 29  2  0
 29 30  1  0
 30 31  1  0
 31 32  1  0
 31 33  2  0
 15  2  1  0
 29 16  1  0
 10  5  2  0
 27 22  1  0
M  CHG  4   6  -1   9  -1  11  -1  18   1
M  END
>  <UniqueID>  (1379) 
66

>  <SMILES>  (1379) 
C=c1c(=Cc2[n-]c(=O)[n-]c2[O-])cc(C)n1-c1c[nH+]c(C(=O)N2CCOCC2)cc1OC(C)=O

>  <Energy>  (1379) 
141.47865138680643

>  <Genealogy>  (1379) 
C=c1c(=Cc2[n-]c(=O)[n-]c2[O-])cc(C)n1-c1c[nH+]c(C(=O)N2CCOCC2)cc1OC(C)=O (protonated)
C=c1c(=Cc2[n-]c(=O)[n-]c2[O-])cc(C)n1-c1c[nH+]c(C(=O)N2CCOCC2)cc1OC(C)=O (3D coordinates assigned)
C=c1c(=Cc2[n-]c(=O)[n-]c2[O-])cc(C)n1-c1c[nH+]c(C(=O)N2CCOCC2)cc1OC(C)=O (nonaromatic ring conformer: 141.47865138680643 kcal/mol)

>  <smiles>  (1379) 
C=c1c(=Cc2[nH]c(=O)[nH]c2O)cc(C)n1-c1cnc(C(=O)N2CCOCC2)cc1OC(C)=O

>  <score_type>  (1379) 
oracle

>  <origin>  (1379) 
adg

>  <m_score__min__energy>  (1379) 
-15.24

>  <m_primary>  (1379) 
energy

$$$$
70:0
     RDKit          3D

 32 35  0  0  0  0  0  0  0  0999 V2000
   58.9220   27.8660   45.1240 O   0  0  0  0  0  0  0  0  0  0  0  0
   57.7530   28.0450   45.5560 C   0  0  0  0  0  0  0  0  0  0  0  0
   57.1580   27.0530   46.5220 C   0  0  0  0  0  0  0  0  0  0  0  0
   56.7720   25.7780   45.8150 C   0  0  0  0  0  0  0  0  0  0  0  0
   57.7730   24.8750   45.4170 C   0  0  0  0  0  0  0  0  0  0  0  0
   57.4320   23.6740   44.7860 C   0  0  0  0  0  0  0  0  0  0  0  0
   56.0910   23.3620   44.5520 C   0  0  0  0  0  0  0  0  0  0  0  0
   55.0880   24.2460   44.9550 C   0  0  0  0  0  0  0  0  0  0  0  0
   55.4190   25.4490   45.5900 C   0  0  0  0  0  0  0  0  0  0  0  0
   54.4010   26.3070   45.9940 O   0  0  0  0  0  0  0  0  0  0  0  0
   57.0070   29.1760   45.0890 N   0  0  0  0  0  0  0  0  0  0  0  0
   57.4060   30.4140   45.1110 C   0  0  0  0  0  0  0  0  0  0  0  0
   57.2690   31.2290   44.0420 N   0  0  0  0  0  0  0  0  0  0  0  0
   57.8150   32.4530   44.2670 C   0  0  0  0  0  0  0  0  0  0  0  0
   58.4060   32.6030   45.5160 C   0  0  0  0  0  0  0  0  0  0  0  0
   59.2520   34.0310   46.0960 S   0  0  0  0  0  0  0  0  0  0  0  0
   59.7120   34.8460   44.9170 O   0  0  0  0  0  0  0  0  0  0  0  0
   58.2950   34.8650   46.9040 O   0  0  0  0  0  0  0  0  0  0  0  0
   60.6170   33.6040   47.1010 N   0  0  0  0  0  0  0  0  0  0  0  0
   61.8690   34.0570   46.4780 C   0  0  0  0  0  0  0  0  0  0  0  0
   63.0410   33.3940   47.2000 C   0  0  0  0  0  0  0  0  0  0  0  0
   62.8130   33.3570   48.6500 N   0  0  0  0  0  0  0  0  0  0  0  0
   63.8010   32.7390   49.4920 C   0  0  0  0  0  0  0  0  0  0  0  0
   65.1530   33.0980   49.3630 C   0  0  0  0  0  0  0  0  0  0  0  0
   66.1220   32.4900   50.1670 C   0  0  0  0  0  0  0  0  0  0  0  0
   65.7490   31.5260   51.1080 C   0  0  0  0  0  0  0  0  0  0  0  0
   64.4060   31.1640   51.2420 C   0  0  0  0  0  0  0  0  0  0  0  0
   63.4300   31.7690   50.4420 C   0  0  0  0  0  0  0  0  0  0  0  0
   62.0950   31.4150   50.6050 O   0  0  0  0  0  0  0  0  0  0  0  0
   61.7760   34.2020   49.2590 C   0  0  0  0  0  0  0  0  0  0  0  0
   60.4560   34.1690   48.4570 C   0  0  0  0  0  0  0  0  0  0  0  0
   58.2380   31.1680   46.3740 S   0  0  0  0  0  0  0  0  0  0  0  0
  1  2  2  0
  2  3  1  0
  3  4  1  0
  4  5  2  0
  5  6  1  0
  6  7  2  0
  7  8  1  0
  8  9  2  0
  9 10  1  0
  2 11  1  0
 11 12  2  3
 12 13  1  0
 13 14  1  0
 14 15  2  0
 15 16  1  0
 16 17  2  0
 16 18  2  0
 16 19  1  0
 19 20  1  0
 20 21  1  0
 21 22  1  0
 22 23  1  0
 23 24  2  0
 24 25  1  0
 25 26  2  0
 26 27  1  0
 27 28  2  0
 28 29  1  0
 22 30  1  0
 30 31  1  0
 15 32  1  0
  9  4  1  0
 32 12  1  0
 31 19  1  0
 28 23  1  0
M  CHG  3  10  -1  13  -1  29  -1
M  END
>  <UniqueID>  (1380) 
67

>  <SMILES>  (1380) 
O=C(Cc1ccccc1[O-])N=c1[n-]cc(S(=O)(=O)N2CCN(c3ccccc3[O-])CC2)s1

>  <Energy>  (1380) 
100.59244730160572

>  <Genealogy>  (1380) 
O=C(Cc1ccccc1[O-])N=c1[n-]cc(S(=O)(=O)N2CCN(c3ccccc3[O-])CC2)s1 (protonated)
O=C(Cc1ccccc1[O-])N=c1[n-]cc(S(=O)(=O)N2CCN(c3ccccc3[O-])CC2)s1 (3D coordinates assigned)
O=C(Cc1ccccc1[O-])N=c1[n-]cc(S(=O)(=O)N2CCN(c3ccccc3[O-])CC2)s1 (nonaromatic ring conformer: 100.59244730160572 kcal/mol)

>  <smiles>  (1380) 
O=C(Cc1ccccc1O)N=c1[nH]cc(S(=O)(=O)N2CCN(c3ccccc3O)CC2)s1

>  <score_type>  (1380) 
oracle

>  <origin>  (1380) 
adg

>  <m_score__min__energy>  (1380) 
-16.460000000000001

>  <m_primary>  (1380) 
energy

$$$$
71:0
     RDKit          3D

 35 38  0  0  0  0  0  0  0  0999 V2000
   59.4830   27.4630   46.5230 C   0  0  0  0  0  0  0  0  0  0  0  0
   58.7550   28.2080   45.6760 C   0  0  0  0  0  0  0  0  0  0  0  0
   57.8330   27.7370   44.7350 C   0  0  0  0  0  0  0  0  0  0  0  0
   57.5080   26.4530   44.4840 C   0  0  0  0  0  0  0  0  0  0  0  0
   56.9240   25.5390   45.4820 C   0  0  0  0  0  0  0  0  0  0  0  0
   57.5780   24.4720   45.9740 N   0  0  0  0  0  0  0  0  0  0  0  0
   56.7270   23.9830   46.9020 C   0  0  0  0  0  0  0  0  0  0  0  0
   56.9860   22.9570   47.5840 O   0  0  0  0  0  0  0  0  0  0  0  0
   55.5850   24.6860   47.0520 N   0  0  0  0  0  0  0  0  0  0  0  0
   55.7300   25.6760   46.1560 C   0  0  0  0  0  0  0  0  0  0  0  0
   54.8120   26.7080   45.9990 O   0  0  0  0  0  0  0  0  0  0  0  0
   57.3640   28.8540   44.0570 C   0  0  0  0  0  0  0  0  0  0  0  0
   57.9890   29.9500   44.6180 C   0  0  0  0  0  0  0  0  0  0  0  0
   57.7910   31.3660   44.1670 C   0  0  0  0  0  0  0  0  0  0  0  0
   58.8370   29.5600   45.5950 N   0  0  0  0  0  0  0  0  0  0  0  0
   59.6630   30.4320   46.3870 C   0  0  0  0  0  0  0  0  0  0  0  0
   61.0570   30.2930   46.3670 C   0  0  0  0  0  0  0  0  0  0  0  0
   61.8610   31.1490   47.1260 C   0  0  0  0  0  0  0  0  0  0  0  0
   61.2820   32.1590   47.9120 C   0  0  0  0  0  0  0  0  0  0  0  0
   62.1090   33.0290   48.7070 N   0  0  0  0  0  0  0  0  0  0  0  0
   61.9210   33.0740   50.1670 C   0  0  0  0  0  0  0  0  0  0  0  0
   63.0770   33.8080   50.8560 C   0  0  0  0  0  0  0  0  0  0  0  0
   64.3530   33.3960   50.2530 N   0  0  0  0  0  0  0  0  0  0  0  0
   65.4590   32.9670   51.0630 C   0  0  0  0  0  0  0  0  0  0  0  0
   66.6180   33.3910   50.8070 O   0  0  0  0  0  0  0  0  0  0  0  0
   65.2770   31.9620   52.1700 C   0  0  0  0  0  0  0  0  0  0  0  0
   65.4180   30.5420   51.6740 C   0  0  0  0  0  0  0  0  0  0  0  0
   64.3990   29.9410   51.2280 O   0  0  0  0  0  0  0  0  0  0  0  0
   66.6730   29.8320   51.7680 N   0  0  0  0  0  0  0  0  0  0  0  0
   67.8440   30.4530   52.3970 C   0  0  0  0  0  0  0  0  0  0  0  0
   66.7600   28.4650   51.2440 C   0  0  0  0  0  0  0  0  0  0  0  0
   64.5250   33.4640   48.7950 C   0  0  0  0  0  0  0  0  0  0  0  0
   63.2030   33.7960   48.0920 C   0  0  0  0  0  0  0  0  0  0  0  0
   59.8830   32.2890   47.9340 C   0  0  0  0  0  0  0  0  0  0  0  0
   59.0810   31.4350   47.1730 C   0  0  0  0  0  0  0  0  0  0  0  0
  1  2  2  0
  2  3  1  0
  3  4  2  0
  4  5  1  0
  5  6  1  0
  6  7  1  0
  7  8  2  0
  7  9  1  0
  9 10  1  0
 10 11  1  0
  3 12  1  0
 12 13  2  0
 13 14  1  0
 13 15  1  0
 15 16  1  0
 16 17  2  0
 17 18  1  0
 18 19  2  0
 19 20  1  0
 20 21  1  0
 21 22  1  0
 22 23  1  0
 23 24  1  0
 24 25  2  0
 24 26  1  0
 26 27  1  0
 27 28  2  0
 27 29  1  0
 29 30  1  0
 29 31  1  0
 23 32  1  0
 32 33  1  0
 19 34  1  0
 34 35  2  0
 15  2  1  0
 35 16  1  0
 10  5  2  0
 33 20  1  0
M  CHG  3   6  -1   9  -1  11  -1
M  END
>  <UniqueID>  (1381) 
68

>  <SMILES>  (1381) 
C=c1/c(=C/c2[n-]c(=O)[n-]c2[O-])cc(C)n1-c1ccc(N2CCN(C(=O)CC(=O)N(C)C)CC2)cc1

>  <Energy>  (1381) 
140.78621261208988

>  <Genealogy>  (1381) 
C=c1c(=Cc2[n-]c(=O)[n-]c2[O-])cc(C)n1-c1ccc(N2CCN(C(=O)CC(=O)N(C)C)CC2)cc1 (protonated)
C=c1/c(=C/c2[n-]c(=O)[n-]c2[O-])cc(C)n1-c1ccc(N2CCN(C(=O)CC(=O)N(C)C)CC2)cc1 (cis-trans isomerization)
C=c1/c(=C/c2[n-]c(=O)[n-]c2[O-])cc(C)n1-c1ccc(N2CCN(C(=O)CC(=O)N(C)C)CC2)cc1 (3D coordinates assigned)
C=c1/c(=C/c2[n-]c(=O)[n-]c2[O-])cc(C)n1-c1ccc(N2CCN(C(=O)CC(=O)N(C)C)CC2)cc1 (nonaromatic ring conformer: 140.78621261208988 kcal/mol)

>  <smiles>  (1381) 
C=c1c(=Cc2[nH]c(=O)[nH]c2O)cc(C)n1-c1ccc(N2CCN(C(=O)CC(=O)N(C)C)CC2)cc1

>  <score_type>  (1381) 
oracle

>  <origin>  (1381) 
adg

>  <m_score__min__energy>  (1381) 
-16.890000000000001

>  <m_primary>  (1381) 
energy

$$$$
73:0
     RDKit          3D

 32 35  0  0  0  0  0  0  0  0999 V2000
   55.0630   25.1370   46.0940 O   0  0  0  0  0  0  0  0  0  0  0  0
   55.5820   24.0690   46.8220 C   0  0  0  0  0  0  0  0  0  0  0  0
   54.8370   23.0600   47.3010 N   0  0  0  0  0  0  0  0  0  0  0  0
   55.7600   22.2490   47.8610 C   0  0  0  0  0  0  0  0  0  0  0  0
   55.4570   21.1660   48.4250 O   0  0  0  0  0  0  0  0  0  0  0  0
   57.0330   22.6860   47.7590 N   0  0  0  0  0  0  0  0  0  0  0  0
   56.9120   23.8600   47.1170 C   0  0  0  0  0  0  0  0  0  0  0  0
   58.0660   24.6810   46.7070 C   0  0  0  0  0  0  0  0  0  0  0  0
   58.0060   25.6540   45.7770 C   0  0  0  0  0  0  0  0  0  0  0  0
   57.9740   25.4770   44.3980 C   0  0  0  0  0  0  0  0  0  0  0  0
   57.8700   26.7360   43.8410 C   0  0  0  0  0  0  0  0  0  0  0  0
   57.7730   27.0190   42.3720 C   0  0  0  0  0  0  0  0  0  0  0  0
   57.8180   27.6760   44.8090 N   0  0  0  0  0  0  0  0  0  0  0  0
   57.6940   29.0900   44.5900 C   0  0  0  0  0  0  0  0  0  0  0  0
   58.8380   29.8650   44.3670 C   0  0  0  0  0  0  0  0  0  0  0  0
   58.7340   31.2500   44.2180 C   0  0  0  0  0  0  0  0  0  0  0  0
   57.4840   31.8840   44.3190 C   0  0  0  0  0  0  0  0  0  0  0  0
   57.3770   33.3930   44.2490 C   0  0  0  0  0  0  0  0  0  0  0  0
   57.9080   34.0850   45.4480 N   0  0  0  0  0  0  0  0  0  0  0  0
   59.1730   34.8290   45.2300 C   0  0  0  0  0  0  0  0  0  0  0  0
   60.3900   34.0830   45.8010 C   0  0  0  0  0  0  0  0  0  0  0  0
   60.2720   33.7840   47.3280 C   0  0  0  0  0  0  0  0  0  0  0  0
   60.9250   32.4770   47.6500 N   0  0  0  0  0  0  0  0  0  0  0  0
   62.3670   32.4660   47.3230 C   0  0  0  0  0  0  0  0  0  0  0  0
   60.2770   31.3700   46.9110 C   0  0  0  0  0  0  0  0  0  0  0  0
   58.7750   33.8450   47.7650 C   0  0  0  0  0  0  0  0  0  0  0  0
   57.8650   33.2630   46.6800 C   0  0  0  0  0  0  0  0  0  0  0  0
   56.3320   31.0960   44.4890 C   0  0  0  0  0  0  0  0  0  0  0  0
   56.4360   29.7100   44.6380 C   0  0  0  0  0  0  0  0  0  0  0  0
   55.2880   28.9540   44.8520 O   0  0  0  0  0  0  0  0  0  0  0  0
   57.8980   27.0310   45.9990 C   0  0  0  0  0  0  0  0  0  0  0  0
   57.8620   27.6500   47.1890 C   0  0  0  0  0  0  0  0  0  0  0  0
  1  2  1  0
  2  3  1  0
  3  4  1  0
  4  5  2  0
  4  6  1  0
  6  7  1  0
  7  8  1  0
  8  9  2  0
  9 10  1  0
 10 11  2  0
 11 12  1  0
 11 13  1  0
 13 14  1  0
 14 15  2  0
 15 16  1  0
 16 17  2  0
 17 18  1  0
 18 19  1  0
 19 20  1  0
 20 21  1  0
 21 22  1  0
 22 23  1  0
 23 24  1  0
 23 25  1  0
 22 26  1  0
 26 27  1  0
 17 28  1  0
 28 29  2  0
 29 30  1  0
 13 31  1  0
 31 32  2  0
  7  2  2  0
 31  9  1  0
 29 14  1  0
 27 19  1  0
M  CHG  3   3  -1   6  -1  30  -1
M  END
>  <UniqueID>  (1382) 
70

>  <SMILES>  (1382) 
C=c1/c(=C/c2[n-]c(=O)[n-]c2O)cc(C)n1-c1ccc(CN2CCC(N(C)C)CC2)cc1[O-]

>  <Energy>  (1382) 
150.41947706762062

>  <Genealogy>  (1382) 
C=c1c(=Cc2[n-]c(=O)[n-]c2O)cc(C)n1-c1ccc(CN2CCC(N(C)C)CC2)cc1[O-] (protonated)
C=c1/c(=C/c2[n-]c(=O)[n-]c2O)cc(C)n1-c1ccc(CN2CCC(N(C)C)CC2)cc1[O-] (cis-trans isomerization)
C=c1/c(=C/c2[n-]c(=O)[n-]c2O)cc(C)n1-c1ccc(CN2CCC(N(C)C)CC2)cc1[O-] (3D coordinates assigned)
C=c1/c(=C/c2[n-]c(=O)[n-]c2O)cc(C)n1-c1ccc(CN2CCC(N(C)C)CC2)cc1[O-] (nonaromatic ring conformer: 150.41947706762062 kcal/mol)

>  <smiles>  (1382) 
C=c1c(=Cc2[nH]c(=O)[nH]c2O)cc(C)n1-c1ccc(CN2CCC(N(C)C)CC2)cc1O

>  <score_type>  (1382) 
oracle

>  <origin>  (1382) 
adg

>  <m_score__min__energy>  (1382) 
-16.210000000000001

>  <m_primary>  (1382) 
energy

$$$$
80:0
     RDKit          3D

 31 33  0  0  0  0  0  0  0  0999 V2000
   57.0160   31.2830   42.7620 C   0  0  0  0  0  0  0  0  0  0  0  0
   57.3850   31.6080   44.0120 C   0  0  0  0  0  0  0  0  0  0  0  0
   57.1040   32.8730   44.4070 N   0  0  0  0  0  0  0  0  0  0  0  0
   57.4360   33.3550   45.6240 C   0  0  0  0  0  0  0  0  0  0  0  0
   57.1590   34.5540   45.8980 O   0  0  0  0  0  0  0  0  0  0  0  0
   58.0610   32.5530   46.5350 N   0  0  0  0  0  0  0  0  0  0  0  0
   58.4370   33.0940   47.8580 C   0  0  0  0  0  0  0  0  0  0  0  0
   59.4560   34.2260   47.6960 C   0  0  0  0  0  0  0  0  0  0  0  0
   60.8450   33.7400   48.0160 C   0  0  0  0  0  0  0  0  0  0  0  0
   61.8580   33.8160   47.0510 C   0  0  0  0  0  0  0  0  0  0  0  0
   63.1550   33.3980   47.3570 C   0  0  0  0  0  0  0  0  0  0  0  0
   63.4610   32.9050   48.6390 C   0  0  0  0  0  0  0  0  0  0  0  0
   64.7520   32.4750   48.9830 O   0  0  0  0  0  0  0  0  0  0  0  0
   65.5470   33.0540   50.0120 C   0  0  0  0  0  0  0  0  0  0  0  0
   62.4550   32.8400   49.6150 C   0  0  0  0  0  0  0  0  0  0  0  0
   62.7920   32.3510   50.8880 O   0  0  0  0  0  0  0  0  0  0  0  0
   62.8900   30.9710   51.2230 C   0  0  0  0  0  0  0  0  0  0  0  0
   61.1490   33.2640   49.2990 C   0  0  0  0  0  0  0  0  0  0  0  0
   58.3810   31.2590   46.2040 C   0  0  0  0  0  0  0  0  0  0  0  0
   58.9250   30.5270   47.0770 O   0  0  0  0  0  0  0  0  0  0  0  0
   58.0740   30.7330   44.9120 C   0  0  0  0  0  0  0  0  0  0  0  0
   58.3950   29.4520   44.5580 C   0  0  0  0  0  0  0  0  0  0  0  0
   57.9720   28.2250   45.2660 C   0  0  0  0  0  0  0  0  0  0  0  0
   58.9430   27.4120   45.8670 C   0  0  0  0  0  0  0  0  0  0  0  0
   58.5650   26.2660   46.5690 C   0  0  0  0  0  0  0  0  0  0  0  0
   57.2130   25.9300   46.6940 C   0  0  0  0  0  0  0  0  0  0  0  0
   56.8560   24.7830   47.3930 O   0  0  0  0  0  0  0  0  0  0  0  0
   56.2290   26.7520   46.1200 C   0  0  0  0  0  0  0  0  0  0  0  0
   54.8750   26.4410   46.2420 O   0  0  0  0  0  0  0  0  0  0  0  0
   56.6080   27.9040   45.4160 C   0  0  0  0  0  0  0  0  0  0  0  0
   55.6290   28.7280   44.8700 O   0  0  0  0  0  0  0  0  0  0  0  0
  1  2  2  0
  2  3  1  0
  3  4  1  0
  4  5  2  0
  4  6  1  0
  6  7  1  0
  7  8  1  0
  8  9  1  0
  9 10  2  0
 10 11  1  0
 11 12  2  0
 12 13  1  0
 13 14  1  0
 12 15  1  0
 15 16  1  0
 16 17  1  0
 15 18  2  0
  6 19  1  0
 19 20  2  0
 19 21  1  0
 21 22  2  3
 22 23  1  0
 23 24  2  0
 24 25  1  0
 25 26  2  0
 26 27  1  0
 26 28  1  0
 28 29  1  0
 28 30  2  0
 30 31  1  0
 21  2  1  0
 30 23  1  0
 18  9  1  0
M  CHG  3   3  -1  27  -1  31  -1
M  END
>  <UniqueID>  (1383) 
77

>  <SMILES>  (1383) 
C=c1[n-]c(=O)n(CCc2ccc(OC)c(OC)c2)c(=O)c1=Cc1ccc([O-])c(O)c1[O-]

>  <Energy>  (1383) 
74.70919378642056

>  <Genealogy>  (1383) 
C=c1[n-]c(=O)n(CCc2ccc(OC)c(OC)c2)c(=O)c1=Cc1ccc([O-])c(O)c1[O-] (protonated)
C=c1[n-]c(=O)n(CCc2ccc(OC)c(OC)c2)c(=O)c1=Cc1ccc([O-])c(O)c1[O-] (3D coordinates assigned)
C=c1[n-]c(=O)n(CCc2ccc(OC)c(OC)c2)c(=O)c1=Cc1ccc([O-])c(O)c1[O-] (optimized conformer: 74.70919378642056 kcal/mol)

>  <smiles>  (1383) 
C=c1[nH]c(=O)n(CCc2ccc(OC)c(OC)c2)c(=O)c1=Cc1ccc(O)c(O)c1O

>  <score_type>  (1383) 
oracle

>  <origin>  (1383) 
adg

>  <m_score__min__energy>  (1383) 
-15.92

>  <m_primary>  (1383) 
energy

$$$$
81:0
     RDKit          3D

 29 31  0  0  0  0  0  0  0  0999 V2000
   64.1260   33.1510   47.3390 O   0  0  0  0  0  0  0  0  0  0  0  0
   62.8260   32.6690   47.1360 C   0  0  0  0  0  0  0  0  0  0  0  0
   62.1690   32.3280   48.4770 C   0  0  0  0  0  0  0  0  0  0  0  0
   61.5490   33.5500   49.1720 C   0  0  0  0  0  0  0  0  0  0  0  0
   60.4320   33.1620   50.0490 N   0  0  0  0  0  0  0  0  0  0  0  0
   59.1340   32.8520   49.5080 C   0  0  0  0  0  0  0  0  0  0  0  0
   58.1650   32.6640   50.2920 O   0  0  0  0  0  0  0  0  0  0  0  0
   58.9030   32.7620   48.0480 C   0  0  0  0  0  0  0  0  0  0  0  0
   59.0140   33.9070   47.2430 C   0  0  0  0  0  0  0  0  0  0  0  0
   58.7960   33.8260   45.8650 C   0  0  0  0  0  0  0  0  0  0  0  0
   58.4740   32.6000   45.2770 C   0  0  0  0  0  0  0  0  0  0  0  0
   58.3810   31.4450   46.0640 C   0  0  0  0  0  0  0  0  0  0  0  0
   58.0430   30.1840   45.4620 N   0  0  0  0  0  0  0  0  0  0  0  0
   57.2570   30.0160   44.3750 C   0  0  0  0  0  0  0  0  0  0  0  0
   56.6360   31.1290   43.5860 C   0  0  0  0  0  0  0  0  0  0  0  0
   57.1450   28.6760   44.0640 C   0  0  0  0  0  0  0  0  0  0  0  0
   57.8850   27.9790   45.0150 C   0  0  0  0  0  0  0  0  0  0  0  0
   58.0730   26.6430   45.0820 C   0  0  0  0  0  0  0  0  0  0  0  0
   57.3770   25.7240   46.0080 C   0  0  0  0  0  0  0  0  0  0  0  0
   57.9180   24.6480   46.6070 N   0  0  0  0  0  0  0  0  0  0  0  0
   56.8870   24.1180   47.2980 C   0  0  0  0  0  0  0  0  0  0  0  0
   57.0040   23.0850   48.0050 O   0  0  0  0  0  0  0  0  0  0  0  0
   55.7180   24.7840   47.1710 N   0  0  0  0  0  0  0  0  0  0  0  0
   56.0450   25.7920   46.3480 C   0  0  0  0  0  0  0  0  0  0  0  0
   55.1440   26.7600   45.9180 O   0  0  0  0  0  0  0  0  0  0  0  0
   58.4320   28.9490   45.8670 C   0  0  0  0  0  0  0  0  0  0  0  0
   59.2400   28.7270   46.9150 C   0  0  0  0  0  0  0  0  0  0  0  0
   58.6000   31.5280   47.4460 C   0  0  0  0  0  0  0  0  0  0  0  0
   60.6850   32.9050   51.4680 C   0  0  0  0  0  0  0  0  0  0  0  0
  1  2  1  0
  2  3  1  0
  3  4  1  0
  4  5  1  0
  5  6  1  0
  6  7  2  0
  6  8  1  0
  8  9  2  0
  9 10  1  0
 10 11  2  0
 11 12  1  0
 12 13  1  0
 13 14  1  0
 14 15  1  0
 14 16  2  0
 16 17  1  0
 17 18  2  0
 18 19  1  0
 19 20  1  0
 20 21  1  0
 21 22  2  0
 21 23  1  0
 23 24  1  0
 24 25  1  0
 17 26  1  0
 26 27  2  0
 12 28  2  0
  5 29  1  0
 28  8  1  0
 26 13  1  0
 24 19  2  0
M  CHG  3  20  -1  23  -1  25  -1
M  END
>  <UniqueID>  (1384) 
78

>  <SMILES>  (1384) 
C=c1/c(=C/c2[n-]c(=O)[n-]c2[O-])cc(C)n1-c1cccc(C(=O)N(C)CCCO)c1

>  <Energy>  (1384) 
118.33604872543894

>  <Genealogy>  (1384) 
C=c1c(=Cc2[n-]c(=O)[n-]c2[O-])cc(C)n1-c1cccc(C(=O)N(C)CCCO)c1 (protonated)
C=c1/c(=C/c2[n-]c(=O)[n-]c2[O-])cc(C)n1-c1cccc(C(=O)N(C)CCCO)c1 (cis-trans isomerization)
C=c1/c(=C/c2[n-]c(=O)[n-]c2[O-])cc(C)n1-c1cccc(C(=O)N(C)CCCO)c1 (3D coordinates assigned)
C=c1/c(=C/c2[n-]c(=O)[n-]c2[O-])cc(C)n1-c1cccc(C(=O)N(C)CCCO)c1 (optimized conformer: 118.33604872543894 kcal/mol)

>  <smiles>  (1384) 
C=c1c(=Cc2[nH]c(=O)[nH]c2O)cc(C)n1-c1cccc(C(=O)N(C)CCCO)c1

>  <score_type>  (1384) 
oracle

>  <origin>  (1384) 
adg

>  <m_score__min__energy>  (1384) 
-15.93

>  <m_primary>  (1384) 
energy

$$$$
2:0
     RDKit          3D

 29 32  0  0  0  0  0  0  0  0999 V2000
   57.6720   28.2910   44.3730 C   0  0  0  0  0  0  0  0  0  0  0  0
   58.0570   27.3900   45.2910 C   0  0  0  0  0  0  0  0  0  0  0  0
   57.6980   26.0310   45.3630 C   0  0  0  0  0  0  0  0  0  0  0  0
   56.9910   25.2530   44.5210 C   0  0  0  0  0  0  0  0  0  0  0  0
   55.7260   24.5650   44.8400 C   0  0  0  0  0  0  0  0  0  0  0  0
   54.6960   25.2220   45.5350 C   0  0  0  0  0  0  0  0  0  0  0  0
   54.8610   26.5300   45.9760 O   0  0  0  0  0  0  0  0  0  0  0  0
   53.5260   24.5790   45.7770 N   0  0  0  0  0  0  0  0  0  0  0  0
   53.3220   23.3080   45.3440 C   0  0  0  0  0  0  0  0  0  0  0  0
   52.2300   22.7300   45.5830 O   0  0  0  0  0  0  0  0  0  0  0  0
   54.2920   22.6620   44.6460 N   0  0  0  0  0  0  0  0  0  0  0  0
   55.4810   23.2620   44.3790 C   0  0  0  0  0  0  0  0  0  0  0  0
   56.3570   22.6370   43.7230 O   0  0  0  0  0  0  0  0  0  0  0  0
   58.2510   25.5470   46.5380 C   0  0  0  0  0  0  0  0  0  0  0  0
   58.9440   26.5890   47.1160 C   0  0  0  0  0  0  0  0  0  0  0  0
   59.7230   26.4920   48.3930 C   0  0  0  0  0  0  0  0  0  0  0  0
   58.8370   27.7020   46.3590 N   0  0  0  0  0  0  0  0  0  0  0  0
   59.4030   28.9840   46.6820 C   0  0  0  0  0  0  0  0  0  0  0  0
   58.5860   30.0080   47.1770 C   0  0  0  0  0  0  0  0  0  0  0  0
   59.1300   31.2610   47.4790 C   0  0  0  0  0  0  0  0  0  0  0  0
   60.5040   31.5100   47.2900 C   0  0  0  0  0  0  0  0  0  0  0  0
   61.0830   32.7990   47.5930 N   0  0  0  0  0  0  0  0  0  0  0  0
   61.1280   33.3330   48.9630 C   0  0  0  0  0  0  0  0  0  0  0  0
   62.0930   34.5220   49.0170 C   0  0  0  0  0  0  0  0  0  0  0  0
   63.3710   34.2140   48.2170 C   0  0  0  0  0  0  0  0  0  0  0  0
   63.0600   33.5210   46.8690 C   0  0  0  0  0  0  0  0  0  0  0  0
   61.6740   33.5260   46.6020 O   0  0  0  0  0  0  0  0  0  0  0  0
   61.3130   30.4770   46.7810 C   0  0  0  0  0  0  0  0  0  0  0  0
   60.7670   29.2270   46.4800 C   0  0  0  0  0  0  0  0  0  0  0  0
  1  2  2  0
  2  3  1  0
  3  4  2  3
  4  5  1  0
  5  6  2  0
  6  7  1  0
  6  8  1  0
  8  9  1  0
  9 10  2  0
  9 11  1  0
 11 12  1  0
 12 13  2  0
  3 14  1  0
 14 15  2  0
 15 16  1  0
 15 17  1  0
 17 18  1  0
 18 19  2  0
 19 20  1  0
 20 21  2  0
 21 22  1  0
 22 23  1  0
 23 24  1  0
 24 25  1  0
 25 26  1  0
 26 27  1  0
 21 28  1  0
 28 29  2  0
 17  2  1  0
 29 18  1  0
 12  5  1  0
 27 22  1  0
M  CHG  3   7  -1   8  -1  11  -1
M  END
>  <UniqueID>  (1385) 
2

>  <SMILES>  (1385) 
C=c1c(=Cc2c([O-])[n-]c(=O)[n-]c2=O)cc(C)n1-c1ccc(N2CCCCO2)cc1

>  <Energy>  (1385) 
105.50719770769142

>  <Genealogy>  (1385) 
C=c1c(=Cc2c([O-])[n-]c(=O)[n-]c2=O)cc(C)n1-c1ccc(N2CCCCO2)cc1 (protonated)
C=c1c(=Cc2c([O-])[n-]c(=O)[n-]c2=O)cc(C)n1-c1ccc(N2CCCCO2)cc1 (3D coordinates assigned)
C=c1c(=Cc2c([O-])[n-]c(=O)[n-]c2=O)cc(C)n1-c1ccc(N2CCCCO2)cc1 (nonaromatic ring conformer: 105.50719770769142 kcal/mol)

>  <smiles>  (1385) 
C=c1c(=Cc2c(O)[nH]c(=O)[nH]c2=O)cc(C)n1-c1ccc(N2CCCCO2)cc1

>  <score_type>  (1385) 
oracle

>  <origin>  (1385) 
adg

>  <m_score__min__energy>  (1385) 
-15.890000000000001

>  <m_primary>  (1385) 
energy

$$$$
3:0
     RDKit          3D

 33 36  0  0  0  0  0  0  0  0999 V2000
   58.9700   28.6350   47.1430 C   0  0  0  0  0  0  0  0  0  0  0  0
   58.4250   29.2720   46.0940 C   0  0  0  0  0  0  0  0  0  0  0  0
   57.6540   28.7090   45.0610 C   0  0  0  0  0  0  0  0  0  0  0  0
   57.3880   27.4240   44.7520 C   0  0  0  0  0  0  0  0  0  0  0  0
   57.2700   26.3180   45.7220 C   0  0  0  0  0  0  0  0  0  0  0  0
   56.0370   26.0040   46.3170 C   0  0  0  0  0  0  0  0  0  0  0  0
   54.8880   26.7110   45.9820 O   0  0  0  0  0  0  0  0  0  0  0  0
   55.9610   25.0040   47.2320 N   0  0  0  0  0  0  0  0  0  0  0  0
   57.0680   24.3070   47.6010 C   0  0  0  0  0  0  0  0  0  0  0  0
   56.9740   23.3830   48.4480 O   0  0  0  0  0  0  0  0  0  0  0  0
   58.2750   24.6130   47.0610 N   0  0  0  0  0  0  0  0  0  0  0  0
   58.4020   25.6040   46.1410 C   0  0  0  0  0  0  0  0  0  0  0  0
   59.5400   25.8660   45.6660 O   0  0  0  0  0  0  0  0  0  0  0  0
   57.1590   29.7720   44.3230 C   0  0  0  0  0  0  0  0  0  0  0  0
   57.6780   30.9220   44.8780 C   0  0  0  0  0  0  0  0  0  0  0  0
   57.4040   32.3070   44.3730 C   0  0  0  0  0  0  0  0  0  0  0  0
   58.4410   30.6240   45.9530 N   0  0  0  0  0  0  0  0  0  0  0  0
   59.1150   31.5780   46.7940 C   0  0  0  0  0  0  0  0  0  0  0  0
   58.3770   32.4380   47.6190 C   0  0  0  0  0  0  0  0  0  0  0  0
   59.0320   33.3660   48.4300 C   0  0  0  0  0  0  0  0  0  0  0  0
   60.4270   33.4470   48.4200 C   0  0  0  0  0  0  0  0  0  0  0  0
   61.1830   32.6010   47.5890 C   0  0  0  0  0  0  0  0  0  0  0  0
   62.6630   32.6800   47.5940 C   0  0  0  0  0  0  0  0  0  0  0  0
   63.2650   32.9980   46.5320 O   0  0  0  0  0  0  0  0  0  0  0  0
   63.4280   32.4270   48.7860 N   0  0  0  0  0  0  0  0  0  0  0  0
   63.1720   31.2400   49.6100 C   0  0  0  0  0  0  0  0  0  0  0  0
   63.2750   31.5830   51.1110 C   0  0  0  0  0  0  0  0  0  0  0  0
   64.2440   32.6670   51.4230 N   0  0  0  0  0  0  0  0  0  0  0  0
   63.5820   33.9490   51.7530 C   0  0  0  0  0  0  0  0  0  0  0  0
   62.0810   33.8480   51.5000 C   0  0  0  0  0  0  0  0  0  0  0  0
   65.2770   32.8300   50.3790 C   0  0  0  0  0  0  0  0  0  0  0  0
   64.6510   33.2000   49.0260 C   0  0  0  0  0  0  0  0  0  0  0  0
   60.5150   31.6570   46.7890 C   0  0  0  0  0  0  0  0  0  0  0  0
  1  2  2  0
  2  3  1  0
  3  4  2  3
  4  5  1  0
  5  6  2  0
  6  7  1  0
  6  8  1  0
  8  9  1  0
  9 10  2  0
  9 11  1  0
 11 12  1  0
 12 13  2  0
  3 14  1  0
 14 15  2  0
 15 16  1  0
 15 17  1  0
 17 18  1  0
 18 19  2  0
 19 20  1  0
 20 21  2  0
 21 22  1  0
 22 23  1  0
 23 24  2  0
 23 25  1  0
 25 26  1  0
 26 27  1  0
 27 28  1  0
 28 29  1  0
 29 30  1  0
 28 31  1  0
 31 32  1  0
 22 33  2  0
 17  2  1  0
 33 18  1  0
 12  5  1  0
 32 25  1  0
M  CHG  3   7  -1   8  -1  11  -1
M  END
>  <UniqueID>  (1386) 
3

>  <SMILES>  (1386) 
C=c1c(=Cc2c([O-])[n-]c(=O)[n-]c2=O)cc(C)n1-c1cccc(C(=O)N2CCN(CC)CC2)c1

>  <Energy>  (1386) 
117.62338330376221

>  <Genealogy>  (1386) 
C=c1c(=Cc2c([O-])[n-]c(=O)[n-]c2=O)cc(C)n1-c1cccc(C(=O)N2CCN(CC)CC2)c1 (protonated)
C=c1c(=Cc2c([O-])[n-]c(=O)[n-]c2=O)cc(C)n1-c1cccc(C(=O)N2CCN(CC)CC2)c1 (3D coordinates assigned)
C=c1c(=Cc2c([O-])[n-]c(=O)[n-]c2=O)cc(C)n1-c1cccc(C(=O)N2CCN(CC)CC2)c1 (nonaromatic ring conformer: 117.62338330376221 kcal/mol)

>  <smiles>  (1386) 
C=c1c(=Cc2c(O)[nH]c(=O)[nH]c2=O)cc(C)n1-c1cccc(C(=O)N2CCN(CC)CC2)c1

>  <score_type>  (1386) 
oracle

>  <origin>  (1386) 
adg

>  <m_score__min__energy>  (1386) 
-17.52

>  <m_primary>  (1386) 
energy

$$$$
10:0
     RDKit          3D

 32 35  0  0  0  0  0  0  0  0999 V2000
   59.6710   27.0980   47.3410 C   0  0  0  0  0  0  0  0  0  0  0  0
   59.0270   28.0800   46.6890 C   0  0  0  0  0  0  0  0  0  0  0  0
   58.2030   27.9490   45.5600 C   0  0  0  0  0  0  0  0  0  0  0  0
   57.6610   26.8580   44.9850 C   0  0  0  0  0  0  0  0  0  0  0  0
   57.0350   25.7330   45.7000 C   0  0  0  0  0  0  0  0  0  0  0  0
   57.6900   24.6420   46.1370 N   0  0  0  0  0  0  0  0  0  0  0  0
   56.7490   23.9750   46.8390 C   0  0  0  0  0  0  0  0  0  0  0  0
   56.9780   22.8720   47.4020 O   0  0  0  0  0  0  0  0  0  0  0  0
   55.5470   24.5880   46.9030 N   0  0  0  0  0  0  0  0  0  0  0  0
   55.7520   25.7060   46.1880 C   0  0  0  0  0  0  0  0  0  0  0  0
   54.7860   26.6840   45.9900 O   0  0  0  0  0  0  0  0  0  0  0  0
   57.9960   29.2320   45.0800 C   0  0  0  0  0  0  0  0  0  0  0  0
   58.6210   30.0930   45.9580 C   0  0  0  0  0  0  0  0  0  0  0  0
   58.6540   31.5840   45.8120 C   0  0  0  0  0  0  0  0  0  0  0  0
   59.2420   29.3980   46.9360 N   0  0  0  0  0  0  0  0  0  0  0  0
   60.0530   29.9620   47.9810 C   0  0  0  0  0  0  0  0  0  0  0  0
   61.1970   30.7050   47.6580 C   0  0  0  0  0  0  0  0  0  0  0  0
   62.0230   31.2130   48.6690 C   0  0  0  0  0  0  0  0  0  0  0  0
   63.4840   32.1150   48.2460 S   0  0  0  0  0  0  0  0  0  0  0  0
   64.0700   31.5420   46.9850 O   0  0  0  0  0  0  0  0  0  0  0  0
   64.4870   31.9200   49.3470 O   0  0  0  0  0  0  0  0  0  0  0  0
   63.2120   33.8350   48.0330 N   0  0  0  0  0  0  0  0  0  0  0  0
   62.8380   34.2160   46.6590 C   0  0  0  0  0  0  0  0  0  0  0  0
   61.4140   33.7840   46.2820 C   0  0  0  0  0  0  0  0  0  0  0  0
   60.4590   34.0510   47.3530 N   0  0  0  0  0  0  0  0  0  0  0  0
   60.8680   34.2280   48.7110 C   0  0  0  0  0  0  0  0  0  0  0  0
   60.0020   34.2890   49.6230 O   0  0  0  0  0  0  0  0  0  0  0  0
   62.3190   34.4120   49.0510 C   0  0  0  0  0  0  0  0  0  0  0  0
   61.6600   31.0290   50.0120 C   0  0  0  0  0  0  0  0  0  0  0  0
   60.5130   30.3010   50.3380 C   0  0  0  0  0  0  0  0  0  0  0  0
   59.7150   29.7590   49.3280 C   0  0  0  0  0  0  0  0  0  0  0  0
   58.6050   29.0510   49.6570 F   0  0  0  0  0  0  0  0  0  0  0  0
  1  2  2  0
  2  3  1  0
  3  4  2  3
  4  5  1  0
  5  6  1  0
  6  7  1  0
  7  8  2  0
  7  9  1  0
  9 10  1  0
 10 11  1  0
  3 12  1  0
 12 13  2  0
 13 14  1  0
 13 15  1  0
 15 16  1  0
 16 17  2  0
 17 18  1  0
 18 19  1  0
 19 20  2  0
 19 21  2  0
 19 22  1  0
 22 23  1  0
 23 24  1  0
 24 25  1  0
 25 26  1  0
 26 27  2  0
 26 28  1  0
 18 29  2  0
 29 30  1  0
 30 31  2  0
 31 32  1  0
 15  2  1  0
 31 16  1  0
 10  5  2  0
 28 22  1  0
M  CHG  3   6  -1   9  -1  11  -1
M  END
>  <UniqueID>  (1387) 
10

>  <SMILES>  (1387) 
C=c1c(=Cc2[n-]c(=O)[n-]c2[O-])cc(C)n1-c1cc(S(=O)(=O)N2CCNC(=O)C2)ccc1F

>  <Energy>  (1387) 
128.92953709145036

>  <Genealogy>  (1387) 
C=c1c(=Cc2[n-]c(=O)[n-]c2[O-])cc(C)n1-c1cc(S(=O)(=O)N2CCNC(=O)C2)ccc1F (protonated)
C=c1c(=Cc2[n-]c(=O)[n-]c2[O-])cc(C)n1-c1cc(S(=O)(=O)N2CCNC(=O)C2)ccc1F (3D coordinates assigned)
C=c1c(=Cc2[n-]c(=O)[n-]c2[O-])cc(C)n1-c1cc(S(=O)(=O)N2CCNC(=O)C2)ccc1F (nonaromatic ring conformer: 128.92953709145036 kcal/mol)

>  <smiles>  (1387) 
C=c1c(=Cc2[nH]c(=O)[nH]c2O)cc(C)n1-c1cc(S(=O)(=O)N2CCNC(=O)C2)ccc1F

>  <score_type>  (1387) 
oracle

>  <origin>  (1387) 
adg

>  <m_score__min__energy>  (1387) 
-16.949999999999999

>  <m_primary>  (1387) 
energy

$$$$
18:0
     RDKit          3D

 25 27  0  0  0  0  0  0  0  0999 V2000
   55.3350   26.6950   46.1060 N   0  0  0  0  0  0  0  0  0  0  0  0
   56.7130   27.0590   46.1300 C   0  0  0  0  0  0  0  0  0  0  0  0
   57.5870   26.1670   46.3000 O   0  0  0  0  0  0  0  0  0  0  0  0
   57.1150   28.4690   45.9200 C   0  0  0  0  0  0  0  0  0  0  0  0
   56.3130   29.2910   45.1020 C   0  0  0  0  0  0  0  0  0  0  0  0
   55.1500   28.7950   44.5180 O   0  0  0  0  0  0  0  0  0  0  0  0
   56.6960   30.6130   44.8540 C   0  0  0  0  0  0  0  0  0  0  0  0
   55.9860   31.3520   44.1230 O   0  0  0  0  0  0  0  0  0  0  0  0
   57.8390   31.1050   45.3940 N   0  0  0  0  0  0  0  0  0  0  0  0
   58.6400   30.3550   46.1920 C   0  0  0  0  0  0  0  0  0  0  0  0
   59.8000   30.9260   46.7290 C   0  0  0  0  0  0  0  0  0  0  0  0
   60.6340   30.1800   47.5730 C   0  0  0  0  0  0  0  0  0  0  0  0
   61.8510   30.7810   48.1540 C   0  0  0  0  0  0  0  0  0  0  0  0
   62.0800   30.6320   49.3840 O   0  0  0  0  0  0  0  0  0  0  0  0
   62.8040   31.4970   47.3580 N   0  0  0  0  0  0  0  0  0  0  0  0
   62.9820   32.9440   47.3740 C   0  0  0  0  0  0  0  0  0  0  0  0
   61.6390   33.6090   47.2860 C   0  0  0  0  0  0  0  0  0  0  0  0
   60.9280   33.9240   48.4570 C   0  0  0  0  0  0  0  0  0  0  0  0
   59.6620   34.5130   48.3740 C   0  0  0  0  0  0  0  0  0  0  0  0
   59.0940   34.7810   47.1260 C   0  0  0  0  0  0  0  0  0  0  0  0
   59.7890   34.4560   45.9570 C   0  0  0  0  0  0  0  0  0  0  0  0
   61.0550   33.8670   46.0350 C   0  0  0  0  0  0  0  0  0  0  0  0
   60.2720   28.8700   47.9140 C   0  0  0  0  0  0  0  0  0  0  0  0
   59.1180   28.2900   47.3810 C   0  0  0  0  0  0  0  0  0  0  0  0
   58.2950   29.0130   46.4920 C   0  0  0  0  0  0  0  0  0  0  0  0
  1  2  1  0
  2  3  2  0
  2  4  1  0
  4  5  2  0
  5  6  1  0
  5  7  1  0
  7  8  2  0
  7  9  1  0
  9 10  1  0
 10 11  2  0
 11 12  1  0
 12 13  1  0
 13 14  2  0
 13 15  1  0
 15 16  1  0
 16 17  1  0
 17 18  2  0
 18 19  1  0
 19 20  2  0
 20 21  1  0
 21 22  2  0
 12 23  2  0
 23 24  1  0
 24 25  2  0
 25  4  1  0
 25 10  1  0
 22 17  1  0
M  CHG  4   1  -1   6  -1   9  -1  15  -1
M  END
>  <UniqueID>  (1388) 
17

>  <SMILES>  (1388) 
[NH-]C(=O)c1c([O-])c(=O)[n-]c2cc(C(=O)[N-]Cc3ccccc3)ccc12

>  <Energy>  (1388) 
53.71355159080507

>  <Genealogy>  (1388) 
[NH-]C(=O)c1c([O-])c(=O)[n-]c2cc(C(=O)[N-]Cc3ccccc3)ccc12 (protonated)
[NH-]C(=O)c1c([O-])c(=O)[n-]c2cc(C(=O)[N-]Cc3ccccc3)ccc12 (3D coordinates assigned)
[NH-]C(=O)c1c([O-])c(=O)[n-]c2cc(C(=O)[N-]Cc3ccccc3)ccc12 (optimized conformer: 53.71355159080507 kcal/mol)

>  <smiles>  (1388) 
NC(=O)c1c(O)c(=O)[nH]c2cc(C(=O)NCc3ccccc3)ccc12

>  <score_type>  (1388) 
oracle

>  <origin>  (1388) 
adg

>  <m_score__min__energy>  (1388) 
-15.16

>  <m_primary>  (1388) 
energy

$$$$
27:0
     RDKit          3D

 32 35  0  0  0  0  0  0  0  0999 V2000
   58.5670   29.8550   44.6080 C   0  0  0  0  0  0  0  0  0  0  0  0
   58.6410   29.4860   45.8970 C   0  0  0  0  0  0  0  0  0  0  0  0
   58.3440   28.2210   46.4170 C   0  0  0  0  0  0  0  0  0  0  0  0
   57.9470   27.1300   45.7330 C   0  0  0  0  0  0  0  0  0  0  0  0
   57.2320   25.9910   46.3390 C   0  0  0  0  0  0  0  0  0  0  0  0
   57.8510   24.8790   46.7720 N   0  0  0  0  0  0  0  0  0  0  0  0
   56.8310   24.0840   47.1620 C   0  0  0  0  0  0  0  0  0  0  0  0
   57.0120   22.9370   47.6480 O   0  0  0  0  0  0  0  0  0  0  0  0
   55.6000   24.6100   46.9800 N   0  0  0  0  0  0  0  0  0  0  0  0
   55.8700   25.8120   46.4460 C   0  0  0  0  0  0  0  0  0  0  0  0
   54.8900   26.7020   46.0250 O   0  0  0  0  0  0  0  0  0  0  0  0
   58.6040   28.2890   47.7790 C   0  0  0  0  0  0  0  0  0  0  0  0
   59.0230   29.5780   48.0390 C   0  0  0  0  0  0  0  0  0  0  0  0
   59.4360   30.0810   49.3890 C   0  0  0  0  0  0  0  0  0  0  0  0
   59.0520   30.3040   46.8990 N   0  0  0  0  0  0  0  0  0  0  0  0
   59.4420   31.6850   46.7910 C   0  0  0  0  0  0  0  0  0  0  0  0
   58.4810   32.6690   46.5290 C   0  0  0  0  0  0  0  0  0  0  0  0
   58.8570   34.0100   46.4430 C   0  0  0  0  0  0  0  0  0  0  0  0
   60.1940   34.3780   46.6170 C   0  0  0  0  0  0  0  0  0  0  0  0
   61.1760   33.4030   46.8740 C   0  0  0  0  0  0  0  0  0  0  0  0
   62.6050   33.7660   47.0740 C   0  0  0  0  0  0  0  0  0  0  0  0
   63.3900   33.6990   46.0870 O   0  0  0  0  0  0  0  0  0  0  0  0
   63.1210   34.1680   48.3700 N   0  0  0  0  0  0  0  0  0  0  0  0
   62.0520   34.0450   49.3930 C   0  0  0  0  0  0  0  0  0  0  0  0
   62.6440   33.9050   50.8030 C   0  0  0  0  0  0  0  0  0  0  0  0
   63.4750   32.6800   50.9430 N   0  0  0  0  0  0  0  0  0  0  0  0
   62.7230   31.5920   51.6040 C   0  0  0  0  0  0  0  0  0  0  0  0
   63.5090   30.2750   51.5940 C   0  0  0  0  0  0  0  0  0  0  0  0
   64.8530   30.5090   51.9180 O   0  0  0  0  0  0  0  0  0  0  0  0
   64.0720   32.2300   49.6580 C   0  0  0  0  0  0  0  0  0  0  0  0
   64.3560   33.4110   48.7160 C   0  0  0  0  0  0  0  0  0  0  0  0
   60.7830   32.0550   46.9690 C   0  0  0  0  0  0  0  0  0  0  0  0
  1  2  2  0
  2  3  1  0
  3  4  2  3
  4  5  1  0
  5  6  1  0
  6  7  1  0
  7  8  2  0
  7  9  1  0
  9 10  1  0
 10 11  1  0
  3 12  1  0
 12 13  2  0
 13 14  1  0
 13 15  1  0
 15 16  1  0
 16 17  2  0
 17 18  1  0
 18 19  2  0
 19 20  1  0
 20 21  1  0
 21 22  2  0
 21 23  1  0
 23 24  1  0
 24 25  1  0
 25 26  1  0
 26 27  1  0
 27 28  1  0
 28 29  1  0
 26 30  1  0
 30 31  1  0
 20 32  2  0
 15  2  1  0
 32 16  1  0
 10  5  2  0
 31 23  1  0
M  CHG  4   6  -1   9  -1  11  -1  23   1
M  END
>  <UniqueID>  (1389) 
25

>  <SMILES>  (1389) 
C=c1c(=Cc2[n-]c(=O)[n-]c2[O-])cc(C)n1-c1cccc(C(=O)[NH+]2CCN(CCO)CC2)c1

>  <Energy>  (1389) 
147.28837607299954

>  <Genealogy>  (1389) 
C=c1c(=Cc2[n-]c(=O)[n-]c2[O-])cc(C)n1-c1cccc(C(=O)[NH+]2CCN(CCO)CC2)c1 (protonated)
C=c1c(=Cc2[n-]c(=O)[n-]c2[O-])cc(C)n1-c1cccc(C(=O)[NH+]2CCN(CCO)CC2)c1 (3D coordinates assigned)
C=c1c(=Cc2[n-]c(=O)[n-]c2[O-])cc(C)n1-c1cccc(C(=O)[NH+]2CCN(CCO)CC2)c1 (nonaromatic ring conformer: 147.28837607299954 kcal/mol)

>  <smiles>  (1389) 
C=c1c(=Cc2[nH]c(=O)[nH]c2O)cc(C)n1-c1cccc(C(=O)N2CCN(CCO)CC2)c1

>  <score_type>  (1389) 
oracle

>  <origin>  (1389) 
adg

>  <m_score__min__energy>  (1389) 
-14.960000000000001

>  <m_primary>  (1389) 
energy

$$$$
32:0
     RDKit          3D

 38 42  0  0  0  0  0  0  0  0999 V2000
   54.8030   30.8610   51.5710 C   0  0  0  0  0  0  0  0  0  0  0  0
   54.7160   29.8070   52.3970 C   0  0  0  0  0  0  0  0  0  0  0  0
   53.5560   29.0860   52.7100 C   0  0  0  0  0  0  0  0  0  0  0  0
   52.3210   29.2730   52.1980 C   0  0  0  0  0  0  0  0  0  0  0  0
   51.7430   30.5880   51.8500 C   0  0  0  0  0  0  0  0  0  0  0  0
   51.4270   31.5520   52.7350 N   0  0  0  0  0  0  0  0  0  0  0  0
   51.0160   32.5760   51.9590 C   0  0  0  0  0  0  0  0  0  0  0  0
   50.6270   33.6740   52.4350 O   0  0  0  0  0  0  0  0  0  0  0  0
   51.0580   32.3320   50.6340 N   0  0  0  0  0  0  0  0  0  0  0  0
   51.5270   31.0750   50.5760 C   0  0  0  0  0  0  0  0  0  0  0  0
   51.7470   30.3990   49.3790 O   0  0  0  0  0  0  0  0  0  0  0  0
   53.9400   28.1180   53.6320 C   0  0  0  0  0  0  0  0  0  0  0  0
   55.2950   28.2810   53.8390 C   0  0  0  0  0  0  0  0  0  0  0  0
   56.1240   27.4310   54.7530 C   0  0  0  0  0  0  0  0  0  0  0  0
   55.7670   29.3070   53.0970 N   0  0  0  0  0  0  0  0  0  0  0  0
   57.1330   29.7540   53.0580 C   0  0  0  0  0  0  0  0  0  0  0  0
   57.7990   30.0940   54.2430 C   0  0  0  0  0  0  0  0  0  0  0  0
   59.1170   30.5520   54.2000 C   0  0  0  0  0  0  0  0  0  0  0  0
   59.7810   30.6700   52.9760 C   0  0  0  0  0  0  0  0  0  0  0  0
   59.1330   30.3190   51.7800 C   0  0  0  0  0  0  0  0  0  0  0  0
   59.8190   30.4580   50.4730 C   0  0  0  0  0  0  0  0  0  0  0  0
   61.0250   30.1020   50.3750 O   0  0  0  0  0  0  0  0  0  0  0  0
   59.1430   30.9810   49.3140 N   0  0  0  0  0  0  0  0  0  0  0  0
   58.1960   32.0960   49.4220 C   0  0  0  0  0  0  0  0  0  0  0  0
   58.4870   33.1170   48.3130 C   0  0  0  0  0  0  0  0  0  0  0  0
   58.5060   32.5230   46.9450 N   0  0  0  0  0  0  0  0  0  0  0  0
   59.5660   33.1180   46.1000 C   0  0  0  0  0  0  0  0  0  0  0  0
   60.2100   34.3240   46.7980 C   0  0  0  0  0  0  0  0  0  0  0  0
   61.5030   33.9260   47.4570 C   0  0  0  0  0  0  0  0  0  0  0  0
   62.5850   33.4760   46.6810 C   0  0  0  0  0  0  0  0  0  0  0  0
   63.7730   33.0690   47.2960 C   0  0  0  0  0  0  0  0  0  0  0  0
   63.8870   33.1020   48.6890 C   0  0  0  0  0  0  0  0  0  0  0  0
   65.0390   32.7040   49.2840 F   0  0  0  0  0  0  0  0  0  0  0  0
   62.8120   33.5390   49.4680 C   0  0  0  0  0  0  0  0  0  0  0  0
   61.6220   33.9440   48.8560 C   0  0  0  0  0  0  0  0  0  0  0  0
   58.5540   31.0410   46.9200 C   0  0  0  0  0  0  0  0  0  0  0  0
   59.4970   30.4700   47.9870 C   0  0  0  0  0  0  0  0  0  0  0  0
   57.8020   29.8720   51.8300 C   0  0  0  0  0  0  0  0  0  0  0  0
  1  2  2  0
  2  3  1  0
  3  4  2  3
  4  5  1  0
  5  6  1  0
  6  7  1  0
  7  8  2  0
  7  9  1  0
  9 10  1  0
 10 11  1  0
  3 12  1  0
 12 13  2  0
 13 14  1  0
 13 15  1  0
 15 16  1  0
 16 17  2  0
 17 18  1  0
 18 19  2  0
 19 20  1  0
 20 21  1  0
 21 22  2  0
 21 23  1  0
 23 24  1  0
 24 25  1  0
 25 26  1  0
 26 27  1  0
 27 28  1  0
 28 29  1  0
 29 30  2  0
 30 31  1  0
 31 32  2  0
 32 33  1  0
 32 34  1  0
 34 35  2  0
 26 36  1  0
 36 37  1  0
 20 38  2  0
 15  2  1  0
 38 16  1  0
 10  5  2  0
 37 23  1  0
 35 29  1  0
M  CHG  2   6  -1   9  -1
M  END
>  <UniqueID>  (1390) 
30

>  <SMILES>  (1390) 
C=c1c(=Cc2[n-]c(=O)[n-]c2O)cc(C)n1-c1cccc(C(=O)N2CCN(CCc3ccc(F)cc3)CC2)c1

>  <Energy>  (1390) 
149.72984777864832

>  <Genealogy>  (1390) 
C=c1c(=Cc2[n-]c(=O)[n-]c2O)cc(C)n1-c1cccc(C(=O)N2CCN(CCc3ccc(F)cc3)CC2)c1 (protonated)
C=c1c(=Cc2[n-]c(=O)[n-]c2O)cc(C)n1-c1cccc(C(=O)N2CCN(CCc3ccc(F)cc3)CC2)c1 (3D coordinates assigned)
C=c1c(=Cc2[n-]c(=O)[n-]c2O)cc(C)n1-c1cccc(C(=O)N2CCN(CCc3ccc(F)cc3)CC2)c1 (nonaromatic ring conformer: 149.72984777864832 kcal/mol)

>  <smiles>  (1390) 
C=c1c(=Cc2[nH]c(=O)[nH]c2O)cc(C)n1-c1cccc(C(=O)N2CCN(CCc3ccc(F)cc3)CC2)c1

>  <score_type>  (1390) 
oracle

>  <origin>  (1390) 
adg

>  <m_score__min__energy>  (1390) 
-14.880000000000001

>  <m_primary>  (1390) 
energy

$$$$
34:0
     RDKit          3D

 29 32  0  0  0  0  0  0  0  0999 V2000
   58.5070   29.8790   47.2040 C   0  0  0  0  0  0  0  0  0  0  0  0
   58.1200   30.5130   46.0860 C   0  0  0  0  0  0  0  0  0  0  0  0
   57.2180   30.0520   45.1130 C   0  0  0  0  0  0  0  0  0  0  0  0
   56.6630   28.8390   44.9250 C   0  0  0  0  0  0  0  0  0  0  0  0
   57.0330   27.6060   45.6380 C   0  0  0  0  0  0  0  0  0  0  0  0
   58.2940   27.1680   45.8090 N   0  0  0  0  0  0  0  0  0  0  0  0
   58.1270   25.9560   46.3830 C   0  0  0  0  0  0  0  0  0  0  0  0
   59.0960   25.2260   46.7170 O   0  0  0  0  0  0  0  0  0  0  0  0
   56.8410   25.5860   46.5610 N   0  0  0  0  0  0  0  0  0  0  0  0
   56.1630   26.6340   46.0700 C   0  0  0  0  0  0  0  0  0  0  0  0
   54.7770   26.6990   46.0100 O   0  0  0  0  0  0  0  0  0  0  0  0
   56.9710   31.1260   44.2730 C   0  0  0  0  0  0  0  0  0  0  0  0
   57.7620   32.1680   44.7120 C   0  0  0  0  0  0  0  0  0  0  0  0
   57.8140   33.5290   44.0880 C   0  0  0  0  0  0  0  0  0  0  0  0
   58.4670   31.7940   45.8000 N   0  0  0  0  0  0  0  0  0  0  0  0
   59.3340   32.6520   46.5610 C   0  0  0  0  0  0  0  0  0  0  0  0
   60.7250   32.5030   46.4680 C   0  0  0  0  0  0  0  0  0  0  0  0
   61.5850   33.3310   47.2120 C   0  0  0  0  0  0  0  0  0  0  0  0
   63.0600   33.1940   47.1160 C   0  0  0  0  0  0  0  0  0  0  0  0
   63.6700   33.8180   46.2010 O   0  0  0  0  0  0  0  0  0  0  0  0
   63.7950   32.3060   48.0000 N   0  0  0  0  0  0  0  0  0  0  0  0
   64.5180   33.0770   49.0350 C   0  0  0  0  0  0  0  0  0  0  0  0
   63.9260   32.6720   50.3350 C   0  0  0  0  0  0  0  0  0  0  0  0
   63.0240   31.7300   50.1630 C   0  0  0  0  0  0  0  0  0  0  0  0
   62.9040   31.3720   48.7290 C   0  0  0  0  0  0  0  0  0  0  0  0
   61.0260   34.3240   48.0360 C   0  0  0  0  0  0  0  0  0  0  0  0
   59.6400   34.4710   48.1320 C   0  0  0  0  0  0  0  0  0  0  0  0
   58.7940   33.6360   47.3990 C   0  0  0  0  0  0  0  0  0  0  0  0
   57.4500   33.7950   47.4910 F   0  0  0  0  0  0  0  0  0  0  0  0
  1  2  2  0
  2  3  1  0
  3  4  2  3
  4  5  1  0
  5  6  1  0
  6  7  1  0
  7  8  2  0
  7  9  1  0
  9 10  1  0
 10 11  1  0
  3 12  1  0
 12 13  2  0
 13 14  1  0
 13 15  1  0
 15 16  1  0
 16 17  2  0
 17 18  1  0
 18 19  1  0
 19 20  2  0
 19 21  1  0
 21 22  1  0
 22 23  1  0
 23 24  2  0
 24 25  1  0
 18 26  2  0
 26 27  1  0
 27 28  2  0
 28 29  1  0
 15  2  1  0
 28 16  1  0
 10  5  2  0
 25 21  1  0
M  CHG  4   6  -1   9  -1  11  -1  21   1
M  END
>  <UniqueID>  (1391) 
32

>  <SMILES>  (1391) 
C=c1c(=Cc2[n-]c(=O)[n-]c2[O-])cc(C)n1-c1cc(C(=O)[NH+]2CC=CC2)ccc1F

>  <Energy>  (1391) 
137.612913271039

>  <Genealogy>  (1391) 
C=c1c(=Cc2[n-]c(=O)[n-]c2[O-])cc(C)n1-c1cc(C(=O)[NH+]2CC=CC2)ccc1F (protonated)
C=c1c(=Cc2[n-]c(=O)[n-]c2[O-])cc(C)n1-c1cc(C(=O)[NH+]2CC=CC2)ccc1F (3D coordinates assigned)
C=c1c(=Cc2[n-]c(=O)[n-]c2[O-])cc(C)n1-c1cc(C(=O)[NH+]2CC=CC2)ccc1F (nonaromatic ring conformer: 137.612913271039 kcal/mol)

>  <smiles>  (1391) 
C=c1c(=Cc2[nH]c(=O)[nH]c2O)cc(C)n1-c1cc(C(=O)N2CC=CC2)ccc1F

>  <score_type>  (1391) 
oracle

>  <origin>  (1391) 
adg

>  <m_score__min__energy>  (1391) 
-15.25

>  <m_primary>  (1391) 
energy

$$$$
51:0
     RDKit          3D

 33 36  0  0  0  0  0  0  0  0999 V2000
   55.8360   28.0690   45.2490 O   0  0  0  0  0  0  0  0  0  0  0  0
   56.6350   27.2070   46.0040 C   0  0  0  0  0  0  0  0  0  0  0  0
   56.3100   25.8880   46.0460 N   0  0  0  0  0  0  0  0  0  0  0  0
   57.0410   25.0020   46.7680 C   0  0  0  0  0  0  0  0  0  0  0  0
   56.7180   23.7850   46.7850 O   0  0  0  0  0  0  0  0  0  0  0  0
   58.1190   25.4270   47.4760 N   0  0  0  0  0  0  0  0  0  0  0  0
   58.4910   26.7330   47.4710 C   0  0  0  0  0  0  0  0  0  0  0  0
   59.4920   27.0940   48.1470 O   0  0  0  0  0  0  0  0  0  0  0  0
   57.7650   27.6660   46.7140 C   0  0  0  0  0  0  0  0  0  0  0  0
   58.1360   29.0940   46.7400 C   0  0  0  0  0  0  0  0  0  0  0  0
   59.3750   29.5560   47.0110 C   0  0  0  0  0  0  0  0  0  0  0  0
   60.5180   29.5390   46.2050 C   0  0  0  0  0  0  0  0  0  0  0  0
   60.6900   28.9610   44.8350 C   0  0  0  0  0  0  0  0  0  0  0  0
   61.5280   30.1540   46.8470 N   0  0  0  0  0  0  0  0  0  0  0  0
   61.0990   30.5420   48.0390 N   0  0  0  0  0  0  0  0  0  0  0  0
   61.9320   31.3720   48.9150 C   0  0  0  0  0  0  0  0  0  0  0  0
   62.0650   32.7420   48.3150 C   0  0  0  0  0  0  0  0  0  0  0  0
   63.1950   33.3000   48.3040 O   0  0  0  0  0  0  0  0  0  0  0  0
   60.9540   33.3710   47.6530 N   0  0  0  0  0  0  0  0  0  0  0  0
   59.6770   33.5320   48.3560 C   0  0  0  0  0  0  0  0  0  0  0  0
   58.6840   34.3360   47.5040 C   0  0  0  0  0  0  0  0  0  0  0  0
   58.6480   33.8490   46.1080 N   0  0  0  0  0  0  0  0  0  0  0  0
   57.9890   32.5270   46.0130 C   0  0  0  0  0  0  0  0  0  0  0  0
   57.6720   32.1850   44.5800 C   0  0  0  0  0  0  0  0  0  0  0  0
   58.0980   33.0270   43.5360 C   0  0  0  0  0  0  0  0  0  0  0  0
   57.8100   32.7000   42.2080 C   0  0  0  0  0  0  0  0  0  0  0  0
   57.1010   31.5310   41.9120 C   0  0  0  0  0  0  0  0  0  0  0  0
   56.6820   30.6850   42.9430 C   0  0  0  0  0  0  0  0  0  0  0  0
   56.9690   31.0080   44.2730 C   0  0  0  0  0  0  0  0  0  0  0  0
   59.9800   33.8680   45.4370 C   0  0  0  0  0  0  0  0  0  0  0  0
   61.1730   34.0810   46.3900 C   0  0  0  0  0  0  0  0  0  0  0  0
   59.7980   30.1830   48.1860 C   0  0  0  0  0  0  0  0  0  0  0  0
   59.0630   30.3880   49.2910 C   0  0  0  0  0  0  0  0  0  0  0  0
  1  2  1  0
  2  3  1  0
  3  4  1  0
  4  5  2  0
  4  6  1  0
  6  7  1  0
  7  8  2  0
  7  9  1  0
  9 10  1  0
 10 11  2  0
 11 12  1  0
 12 13  1  0
 12 14  2  0
 14 15  1  0
 15 16  1  0
 16 17  1  0
 17 18  2  0
 17 19  1  0
 19 20  1  0
 20 21  1  0
 21 22  1  0
 22 23  1  0
 23 24  1  0
 24 25  2  0
 25 26  1  0
 26 27  2  0
 27 28  1  0
 28 29  2  0
 22 30  1  0
 30 31  1  0
 15 32  1  0
 32 33  2  0
  9  2  2  0
 32 11  1  0
 31 19  1  0
 29 24  1  0
M  CHG  2   3  -1   6  -1
M  END
>  <UniqueID>  (1392) 
48

>  <SMILES>  (1392) 
C=c1/c(=C/c2c(O)[n-]c(=O)[n-]c2=O)c(C)nn1CC(=O)N1CCN(Cc2ccccc2)CC1

>  <Energy>  (1392) 
112.57372274285764

>  <Genealogy>  (1392) 
C=c1c(=Cc2c(O)[n-]c(=O)[n-]c2=O)c(C)nn1CC(=O)N1CCN(Cc2ccccc2)CC1 (protonated)
C=c1/c(=C/c2c(O)[n-]c(=O)[n-]c2=O)c(C)nn1CC(=O)N1CCN(Cc2ccccc2)CC1 (cis-trans isomerization)
C=c1/c(=C/c2c(O)[n-]c(=O)[n-]c2=O)c(C)nn1CC(=O)N1CCN(Cc2ccccc2)CC1 (3D coordinates assigned)
C=c1/c(=C/c2c(O)[n-]c(=O)[n-]c2=O)c(C)nn1CC(=O)N1CCN(Cc2ccccc2)CC1 (nonaromatic ring conformer: 112.57372274285764 kcal/mol)

>  <smiles>  (1392) 
C=c1c(=Cc2c(O)[nH]c(=O)[nH]c2=O)c(C)nn1CC(=O)N1CCN(Cc2ccccc2)CC1

>  <score_type>  (1392) 
oracle

>  <origin>  (1392) 
adg

>  <m_score__min__energy>  (1392) 
-14.43

>  <m_primary>  (1392) 
energy

$$$$
55:0
     RDKit          3D

 33 36  0  0  0  0  0  0  0  0999 V2000
   60.3130   27.7110   46.5910 C   0  0  0  0  0  0  0  0  0  0  0  0
   59.3440   28.5760   46.2530 C   0  0  0  0  0  0  0  0  0  0  0  0
   58.1880   28.3050   45.5010 C   0  0  0  0  0  0  0  0  0  0  0  0
   57.6690   27.1430   45.0590 C   0  0  0  0  0  0  0  0  0  0  0  0
   57.1510   26.0560   45.9030 C   0  0  0  0  0  0  0  0  0  0  0  0
   57.8870   24.9990   46.2900 N   0  0  0  0  0  0  0  0  0  0  0  0
   56.9930   24.2130   46.9290 C   0  0  0  0  0  0  0  0  0  0  0  0
   57.3120   23.1170   47.4590 O   0  0  0  0  0  0  0  0  0  0  0  0
   55.7300   24.6890   46.9450 N   0  0  0  0  0  0  0  0  0  0  0  0
   55.8440   25.8480   46.2770 C   0  0  0  0  0  0  0  0  0  0  0  0
   54.7720   26.6880   45.9990 O   0  0  0  0  0  0  0  0  0  0  0  0
   57.5780   29.5280   45.2770 C   0  0  0  0  0  0  0  0  0  0  0  0
   58.3340   30.4810   45.9270 C   0  0  0  0  0  0  0  0  0  0  0  0
   58.0040   31.9410   45.9810 C   0  0  0  0  0  0  0  0  0  0  0  0
   59.3970   29.9040   46.5280 N   0  0  0  0  0  0  0  0  0  0  0  0
   60.4080   30.6010   47.2790 C   0  0  0  0  0  0  0  0  0  0  0  0
   61.0620   31.7070   46.7280 C   0  0  0  0  0  0  0  0  0  0  0  0
   62.0400   32.3770   47.4630 C   0  0  0  0  0  0  0  0  0  0  0  0
   62.3660   31.9320   48.7540 C   0  0  0  0  0  0  0  0  0  0  0  0
   63.3590   32.6260   49.5350 N   0  0  0  0  0  0  0  0  0  0  0  0
   64.6310   33.0520   48.9400 C   0  0  0  0  0  0  0  0  0  0  0  0
   65.8190   32.5440   49.7840 C   0  0  0  0  0  0  0  0  0  0  0  0
   65.4390   32.2180   51.1810 N   0  0  0  0  0  0  0  0  0  0  0  0
   66.6360   32.1680   52.0480 C   0  0  0  0  0  0  0  0  0  0  0  0
   66.9080   30.7400   52.5500 C   0  0  0  0  0  0  0  0  0  0  0  0
   66.1940   29.6840   51.6950 C   0  0  0  0  0  0  0  0  0  0  0  0
   64.7520   29.5730   52.0830 C   0  0  0  0  0  0  0  0  0  0  0  0
   64.4360   29.2200   53.2520 O   0  0  0  0  0  0  0  0  0  0  0  0
   63.7570   29.8440   51.1510 O   0  0  0  0  0  0  0  0  0  0  0  0
   64.4300   33.1670   51.6930 C   0  0  0  0  0  0  0  0  0  0  0  0
   63.1090   32.9390   50.9480 C   0  0  0  0  0  0  0  0  0  0  0  0
   61.7110   30.8500   49.2730 N   0  0  0  0  0  0  0  0  0  0  0  0
   60.7610   30.1810   48.5660 C   0  0  0  0  0  0  0  0  0  0  0  0
  1  2  2  0
  2  3  1  0
  3  4  2  3
  4  5  1  0
  5  6  1  0
  6  7  1  0
  7  8  2  0
  7  9  1  0
  9 10  1  0
 10 11  1  0
  3 12  1  0
 12 13  2  0
 13 14  1  0
 13 15  1  0
 15 16  1  0
 16 17  2  0
 17 18  1  0
 18 19  2  0
 19 20  1  0
 20 21  1  0
 21 22  1  0
 22 23  1  0
 23 24  1  0
 24 25  1  0
 25 26  1  0
 26 27  1  0
 27 28  2  0
 27 29  1  0
 23 30  1  0
 30 31  1  0
 19 32  1  0
 32 33  2  0
 15  2  1  0
 33 16  1  0
 10  5  2  0
 31 20  1  0
M  CHG  5   6  -1   9  -1  11  -1  29  -1  32   1
M  END
>  <UniqueID>  (1393) 
52

>  <SMILES>  (1393) 
C=c1c(=Cc2[n-]c(=O)[n-]c2[O-])cc(C)n1-c1ccc(N2CCN(CCCC(=O)[O-])CC2)[nH+]c1

>  <Energy>  (1393) 
142.5652426488323

>  <Genealogy>  (1393) 
C=c1c(=Cc2[n-]c(=O)[n-]c2[O-])cc(C)n1-c1ccc(N2CCN(CCCC(=O)[O-])CC2)[nH+]c1 (protonated)
C=c1c(=Cc2[n-]c(=O)[n-]c2[O-])cc(C)n1-c1ccc(N2CCN(CCCC(=O)[O-])CC2)[nH+]c1 (3D coordinates assigned)
C=c1c(=Cc2[n-]c(=O)[n-]c2[O-])cc(C)n1-c1ccc(N2CCN(CCCC(=O)[O-])CC2)[nH+]c1 (nonaromatic ring conformer: 142.5652426488323 kcal/mol)

>  <smiles>  (1393) 
C=c1c(=Cc2[nH]c(=O)[nH]c2O)cc(C)n1-c1ccc(N2CCN(CCCC(=O)O)CC2)nc1

>  <score_type>  (1393) 
oracle

>  <origin>  (1393) 
adg

>  <m_score__min__energy>  (1393) 
-15.029999999999999

>  <m_primary>  (1393) 
energy

$$$$
62:0
     RDKit          3D

 28 31  0  0  0  0  0  0  0  0999 V2000
   55.0820   26.6940   45.9590 O   0  0  0  0  0  0  0  0  0  0  0  0
   56.2080   26.1200   46.5350 C   0  0  0  0  0  0  0  0  0  0  0  0
   56.1870   24.8580   47.0270 N   0  0  0  0  0  0  0  0  0  0  0  0
   57.4740   24.5280   47.2700 C   0  0  0  0  0  0  0  0  0  0  0  0
   58.2900   25.5770   46.9180 C   0  0  0  0  0  0  0  0  0  0  0  0
   59.6390   25.5870   46.8210 N   0  0  0  0  0  0  0  0  0  0  0  0
   60.2590   26.6930   46.3220 C   0  0  0  0  0  0  0  0  0  0  0  0
   59.5140   27.8430   45.9780 C   0  0  0  0  0  0  0  0  0  0  0  0
   58.1110   27.8700   46.1720 C   0  0  0  0  0  0  0  0  0  0  0  0
   57.4750   29.0020   46.0660 N   0  0  0  0  0  0  0  0  0  0  0  0
   57.6350   29.9590   45.0060 C   0  0  0  0  0  0  0  0  0  0  0  0
   58.3440   29.6650   43.9970 O   0  0  0  0  0  0  0  0  0  0  0  0
   57.0540   31.2630   45.1350 N   0  0  0  0  0  0  0  0  0  0  0  0
   57.7850   32.4570   45.4140 C   0  0  0  0  0  0  0  0  0  0  0  0
   57.4930   33.6670   44.7570 C   0  0  0  0  0  0  0  0  0  0  0  0
   58.3290   34.7800   44.9250 C   0  0  0  0  0  0  0  0  0  0  0  0
   59.4620   34.6920   45.7390 C   0  0  0  0  0  0  0  0  0  0  0  0
   59.7500   33.4840   46.4040 C   0  0  0  0  0  0  0  0  0  0  0  0
   60.9620   33.3390   47.2280 C   0  0  0  0  0  0  0  0  0  0  0  0
   62.0680   33.1410   46.6440 O   0  0  0  0  0  0  0  0  0  0  0  0
   60.8820   33.2970   48.6670 N   0  0  0  0  0  0  0  0  0  0  0  0
   59.7950   34.0360   49.3440 C   0  0  0  0  0  0  0  0  0  0  0  0
   59.7780   33.8110   50.8630 C   0  0  0  0  0  0  0  0  0  0  0  0
   61.0850   33.7360   51.3940 O   0  0  0  0  0  0  0  0  0  0  0  0
   61.7060   32.5660   50.9140 C   0  0  0  0  0  0  0  0  0  0  0  0
   61.9900   32.6710   49.4090 C   0  0  0  0  0  0  0  0  0  0  0  0
   58.9250   32.3740   46.2190 C   0  0  0  0  0  0  0  0  0  0  0  0
   57.5100   26.6320   46.5310 C   0  0  0  0  0  0  0  0  0  0  0  0
  1  2  1  0
  2  3  1  0
  3  4  1  0
  4  5  2  0
  5  6  1  0
  6  7  1  0
  7  8  2  0
  8  9  1  0
  9 10  2  0
 10 11  1  0
 11 12  2  0
 11 13  1  0
 13 14  1  0
 14 15  2  0
 15 16  1  0
 16 17  2  0
 17 18  1  0
 18 19  1  0
 19 20  2  0
 19 21  1  0
 21 22  1  0
 22 23  1  0
 23 24  1  0
 24 25  1  0
 25 26  1  0
 18 27  2  0
  9 28  1  0
 28  2  2  0
 28  5  1  0
 27 14  1  0
 26 21  1  0
M  CHG  3   3  -1   6  -1  13  -1
M  END
>  <UniqueID>  (1394) 
58

>  <SMILES>  (1394) 
O=C(/N=c1/cc[n-]c2c[n-]c(O)c12)[N-]c1cccc(C(=O)N2CCOCC2)c1

>  <Energy>  (1394) 
121.90709634798961

>  <Genealogy>  (1394) 
O=C(N=c1cc[n-]c2c[n-]c(O)c12)[N-]c1cccc(C(=O)N2CCOCC2)c1 (protonated)
O=C(/N=c1/cc[n-]c2c[n-]c(O)c12)[N-]c1cccc(C(=O)N2CCOCC2)c1 (cis-trans isomerization)
O=C(/N=c1/cc[n-]c2c[n-]c(O)c12)[N-]c1cccc(C(=O)N2CCOCC2)c1 (3D coordinates assigned)
O=C(/N=c1/cc[n-]c2c[n-]c(O)c12)[N-]c1cccc(C(=O)N2CCOCC2)c1 (nonaromatic ring conformer: 121.90709634798961 kcal/mol)

>  <smiles>  (1394) 
O=C(N=c1cc[nH]c2c[nH]c(O)c12)Nc1cccc(C(=O)N2CCOCC2)c1

>  <score_type>  (1394) 
oracle

>  <origin>  (1394) 
adg

>  <m_score__min__energy>  (1394) 
-14.619999999999999

>  <m_primary>  (1394) 
energy

$$$$
66:0
     RDKit          3D

 32 35  0  0  0  0  0  0  0  0999 V2000
   54.9450   26.7000   46.0360 O   0  0  0  0  0  0  0  0  0  0  0  0
   56.1690   26.0900   46.3140 C   0  0  0  0  0  0  0  0  0  0  0  0
   56.1850   25.0050   47.1300 N   0  0  0  0  0  0  0  0  0  0  0  0
   57.3420   24.3600   47.4230 C   0  0  0  0  0  0  0  0  0  0  0  0
   57.3270   23.3580   48.1840 O   0  0  0  0  0  0  0  0  0  0  0  0
   58.5160   24.7900   46.8930 N   0  0  0  0  0  0  0  0  0  0  0  0
   58.5590   25.8700   46.0730 C   0  0  0  0  0  0  0  0  0  0  0  0
   59.6650   26.2400   45.5960 O   0  0  0  0  0  0  0  0  0  0  0  0
   57.3800   26.5690   45.7700 C   0  0  0  0  0  0  0  0  0  0  0  0
   57.4160   27.7280   44.8610 C   0  0  0  0  0  0  0  0  0  0  0  0
   57.4860   29.0200   45.2470 C   0  0  0  0  0  0  0  0  0  0  0  0
   56.9510   30.0890   44.5350 C   0  0  0  0  0  0  0  0  0  0  0  0
   56.2200   30.0240   43.2300 C   0  0  0  0  0  0  0  0  0  0  0  0
   57.1450   31.2370   45.2080 N   0  0  0  0  0  0  0  0  0  0  0  0
   57.8040   30.9540   46.3200 N   0  0  0  0  0  0  0  0  0  0  0  0
   58.1680   31.9830   47.2980 C   0  0  0  0  0  0  0  0  0  0  0  0
   59.1550   32.9610   46.7170 C   0  0  0  0  0  0  0  0  0  0  0  0
   58.7290   34.0450   46.2300 O   0  0  0  0  0  0  0  0  0  0  0  0
   60.5690   32.6770   46.6860 N   0  0  0  0  0  0  0  0  0  0  0  0
   61.5120   33.8000   46.5770 C   0  0  0  0  0  0  0  0  0  0  0  0
   62.9730   33.3390   46.7040 C   0  0  0  0  0  0  0  0  0  0  0  0
   63.1700   32.2990   47.8290 C   0  0  0  0  0  0  0  0  0  0  0  0
   63.2030   32.9720   49.1950 C   0  0  0  0  0  0  0  0  0  0  0  0
   61.9970   33.2460   49.8670 C   0  0  0  0  0  0  0  0  0  0  0  0
   62.0090   33.8310   51.1370 C   0  0  0  0  0  0  0  0  0  0  0  0
   63.2220   34.1370   51.7570 C   0  0  0  0  0  0  0  0  0  0  0  0
   64.4260   33.8570   51.1080 C   0  0  0  0  0  0  0  0  0  0  0  0
   64.4200   33.2740   49.8380 C   0  0  0  0  0  0  0  0  0  0  0  0
   62.1520   31.1220   47.7600 C   0  0  0  0  0  0  0  0  0  0  0  0
   61.0870   31.3020   46.6700 C   0  0  0  0  0  0  0  0  0  0  0  0
   58.0440   29.6190   46.3870 C   0  0  0  0  0  0  0  0  0  0  0  0
   58.7460   29.0380   47.3730 C   0  0  0  0  0  0  0  0  0  0  0  0
  1  2  1  0
  2  3  1  0
  3  4  1  0
  4  5  2  0
  4  6  1  0
  6  7  1  0
  7  8  2  0
  7  9  1  0
  9 10  1  0
 10 11  2  0
 11 12  1  0
 12 13  1  0
 12 14  2  0
 14 15  1  0
 15 16  1  0
 16 17  1  0
 17 18  2  0
 17 19  1  0
 19 20  1  0
 20 21  1  0
 21 22  1  0
 22 23  1  0
 23 24  2  0
 24 25  1  0
 25 26  2  0
 26 27  1  0
 27 28  2  0
 22 29  1  0
 29 30  1  0
 15 31  1  0
 31 32  2  0
  9  2  2  0
 31 11  1  0
 30 19  1  0
 28 23  1  0
M  CHG  2   3  -1   6  -1
M  END
>  <UniqueID>  (1395) 
62

>  <SMILES>  (1395) 
C=c1/c(=C\c2c(O)[n-]c(=O)[n-]c2=O)c(C)nn1CC(=O)N1CCC(c2ccccc2)CC1

>  <Energy>  (1395) 
109.10799692918265

>  <Genealogy>  (1395) 
C=c1c(=Cc2c(O)[n-]c(=O)[n-]c2=O)c(C)nn1CC(=O)N1CCC(c2ccccc2)CC1 (protonated)
C=c1/c(=C\c2c(O)[n-]c(=O)[n-]c2=O)c(C)nn1CC(=O)N1CCC(c2ccccc2)CC1 (cis-trans isomerization)
C=c1/c(=C\c2c(O)[n-]c(=O)[n-]c2=O)c(C)nn1CC(=O)N1CCC(c2ccccc2)CC1 (3D coordinates assigned)
C=c1/c(=C\c2c(O)[n-]c(=O)[n-]c2=O)c(C)nn1CC(=O)N1CCC(c2ccccc2)CC1 (nonaromatic ring conformer: 109.10799692918265 kcal/mol)

>  <smiles>  (1395) 
C=c1c(=Cc2c(O)[nH]c(=O)[nH]c2=O)c(C)nn1CC(=O)N1CCC(c2ccccc2)CC1

>  <score_type>  (1395) 
oracle

>  <origin>  (1395) 
adg

>  <m_score__min__energy>  (1395) 
-14.49

>  <m_primary>  (1395) 
energy

$$$$
78:0
     RDKit          3D

 26 28  0  0  0  0  0  0  0  0999 V2000
   59.4320   29.7040   47.4540 C   0  0  0  0  0  0  0  0  0  0  0  0
   58.8410   29.8360   46.2560 C   0  0  0  0  0  0  0  0  0  0  0  0
   58.4580   28.8060   45.3800 C   0  0  0  0  0  0  0  0  0  0  0  0
   58.4040   27.4710   45.5510 C   0  0  0  0  0  0  0  0  0  0  0  0
   57.1780   26.6800   45.7470 C   0  0  0  0  0  0  0  0  0  0  0  0
   57.1460   25.4230   46.2270 N   0  0  0  0  0  0  0  0  0  0  0  0
   55.8250   25.1760   46.3640 C   0  0  0  0  0  0  0  0  0  0  0  0
   55.3800   24.0750   46.7820 O   0  0  0  0  0  0  0  0  0  0  0  0
   55.0180   26.2060   46.0310 N   0  0  0  0  0  0  0  0  0  0  0  0
   55.8920   27.1540   45.6570 C   0  0  0  0  0  0  0  0  0  0  0  0
   55.5230   28.4290   45.2460 O   0  0  0  0  0  0  0  0  0  0  0  0
   58.0760   29.4250   44.2000 C   0  0  0  0  0  0  0  0  0  0  0  0
   58.1810   30.7840   44.4080 C   0  0  0  0  0  0  0  0  0  0  0  0
   57.8360   31.8320   43.3930 C   0  0  0  0  0  0  0  0  0  0  0  0
   58.6310   31.0360   45.6560 N   0  0  0  0  0  0  0  0  0  0  0  0
   58.9220   32.3420   46.1850 C   0  0  0  0  0  0  0  0  0  0  0  0
   57.9350   33.3370   46.1840 C   0  0  0  0  0  0  0  0  0  0  0  0
   58.2210   34.6080   46.6840 C   0  0  0  0  0  0  0  0  0  0  0  0
   59.4930   34.8940   47.1860 C   0  0  0  0  0  0  0  0  0  0  0  0
   60.4910   33.9120   47.1930 C   0  0  0  0  0  0  0  0  0  0  0  0
   61.7800   34.2490   47.7250 N   0  0  0  0  0  0  0  0  0  0  0  0
   63.2560   33.3930   47.4160 S   0  0  0  0  0  0  0  0  0  0  0  0
   63.0000   31.6400   47.5930 C   0  0  0  0  0  0  0  0  0  0  0  0
   64.2860   33.8300   48.4200 O   0  0  0  0  0  0  0  0  0  0  0  0
   63.7590   33.7130   46.0370 O   0  0  0  0  0  0  0  0  0  0  0  0
   60.2020   32.6350   46.6790 C   0  0  0  0  0  0  0  0  0  0  0  0
  1  2  2  0
  2  3  1  0
  3  4  2  3
  4  5  1  0
  5  6  1  0
  6  7  1  0
  7  8  2  0
  7  9  1  0
  9 10  1  0
 10 11  1  0
  3 12  1  0
 12 13  2  0
 13 14  1  0
 13 15  1  0
 15 16  1  0
 16 17  2  0
 17 18  1  0
 18 19  2  0
 19 20  1  0
 20 21  1  0
 21 22  1  0
 22 23  1  0
 22 24  2  0
 22 25  2  0
 20 26  2  0
 15  2  1  0
 26 16  1  0
 10  5  2  0
M  CHG  4   6  -1   9  -1  11  -1  21  -1
M  END
>  <UniqueID>  (1396) 
73

>  <SMILES>  (1396) 
C=c1c(=Cc2[n-]c(=O)[n-]c2[O-])cc(C)n1-c1cccc([N-]S(C)(=O)=O)c1

>  <Energy>  (1396) 
115.63148266698376

>  <Genealogy>  (1396) 
C=c1c(=Cc2[n-]c(=O)[n-]c2[O-])cc(C)n1-c1cccc([N-]S(C)(=O)=O)c1 (protonated)
C=c1c(=Cc2[n-]c(=O)[n-]c2[O-])cc(C)n1-c1cccc([N-]S(C)(=O)=O)c1 (3D coordinates assigned)
C=c1c(=Cc2[n-]c(=O)[n-]c2[O-])cc(C)n1-c1cccc([N-]S(C)(=O)=O)c1 (optimized conformer: 115.63148266698376 kcal/mol)

>  <smiles>  (1396) 
C=c1c(=Cc2[nH]c(=O)[nH]c2O)cc(C)n1-c1cccc(NS(C)(=O)=O)c1

>  <score_type>  (1396) 
oracle

>  <origin>  (1396) 
adg

>  <m_score__min__energy>  (1396) 
-16.969999999999999

>  <m_primary>  (1396) 
energy

$$$$
14:0
     RDKit          3D

 25 27  0  0  0  0  0  0  0  0999 V2000
   57.6630   30.5990   44.0270 C   0  0  0  0  0  0  0  0  0  0  0  0
   58.0160   30.1360   45.2380 C   0  0  0  0  0  0  0  0  0  0  0  0
   57.8000   28.8480   45.7590 C   0  0  0  0  0  0  0  0  0  0  0  0
   57.3420   27.7210   45.1780 C   0  0  0  0  0  0  0  0  0  0  0  0
   57.1990   26.4100   45.8400 C   0  0  0  0  0  0  0  0  0  0  0  0
   55.9370   25.9600   46.2500 C   0  0  0  0  0  0  0  0  0  0  0  0
   54.7970   26.7140   45.9920 O   0  0  0  0  0  0  0  0  0  0  0  0
   55.8180   24.7710   46.8960 N   0  0  0  0  0  0  0  0  0  0  0  0
   56.9090   24.0110   47.1730 C   0  0  0  0  0  0  0  0  0  0  0  0
   56.7740   22.9110   47.7690 O   0  0  0  0  0  0  0  0  0  0  0  0
   58.1450   24.4390   46.8100 N   0  0  0  0  0  0  0  0  0  0  0  0
   58.3170   25.6200   46.1620 C   0  0  0  0  0  0  0  0  0  0  0  0
   59.4820   25.9970   45.8610 O   0  0  0  0  0  0  0  0  0  0  0  0
   58.1720   28.9030   47.0930 C   0  0  0  0  0  0  0  0  0  0  0  0
   58.6480   30.1750   47.3250 C   0  0  0  0  0  0  0  0  0  0  0  0
   59.1570   30.6680   48.6460 C   0  0  0  0  0  0  0  0  0  0  0  0
   58.5490   30.9250   46.2050 N   0  0  0  0  0  0  0  0  0  0  0  0
   58.9200   32.3090   46.0870 C   0  0  0  0  0  0  0  0  0  0  0  0
   57.9590   33.2510   45.6910 C   0  0  0  0  0  0  0  0  0  0  0  0
   58.3050   34.5980   45.5620 C   0  0  0  0  0  0  0  0  0  0  0  0
   59.6120   35.0120   45.8290 C   0  0  0  0  0  0  0  0  0  0  0  0
   60.5750   34.0820   46.2300 C   0  0  0  0  0  0  0  0  0  0  0  0
   60.2360   32.7200   46.3680 C   0  0  0  0  0  0  0  0  0  0  0  0
   61.1690   31.7590   46.7870 O   0  0  0  0  0  0  0  0  0  0  0  0
   62.3780   32.0540   47.4770 C   0  0  0  0  0  0  0  0  0  0  0  0
  1  2  2  0
  2  3  1  0
  3  4  2  0
  4  5  1  0
  5  6  2  0
  6  7  1  0
  6  8  1  0
  8  9  1  0
  9 10  2  0
  9 11  1  0
 11 12  1  0
 12 13  2  0
  3 14  1  0
 14 15  2  0
 15 16  1  0
 15 17  1  0
 17 18  1  0
 18 19  2  0
 19 20  1  0
 20 21  2  0
 21 22  1  0
 22 23  2  0
 23 24  1  0
 24 25  1  0
 17  2  1  0
 23 18  1  0
 12  5  1  0
M  CHG  3   7  -1   8  -1  11  -1
M  END
>  <UniqueID>  (1397) 
15

>  <SMILES>  (1397) 
C=c1/c(=C\c2c([O-])[n-]c(=O)[n-]c2=O)cc(C)n1-c1ccccc1OC

>  <Energy>  (1397) 
90.08298318915492

>  <Genealogy>  (1397) 
C=c1c(=Cc2c([O-])[n-]c(=O)[n-]c2=O)cc(C)n1-c1ccccc1OC (protonated)
C=c1/c(=C\c2c([O-])[n-]c(=O)[n-]c2=O)cc(C)n1-c1ccccc1OC (cis-trans isomerization)
C=c1/c(=C\c2c([O-])[n-]c(=O)[n-]c2=O)cc(C)n1-c1ccccc1OC (3D coordinates assigned)
C=c1/c(=C\c2c([O-])[n-]c(=O)[n-]c2=O)cc(C)n1-c1ccccc1OC (optimized conformer: 90.08298318915492 kcal/mol)

>  <smiles>  (1397) 
C=c1c(=Cc2c(O)[nH]c(=O)[nH]c2=O)cc(C)n1-c1ccccc1OC

>  <score_type>  (1397) 
oracle

>  <origin>  (1397) 
adg

>  <m_score__min__energy>  (1397) 
-15.09

>  <m_primary>  (1397) 
energy

$$$$
17:0
     RDKit          3D

 32 35  0  0  0  0  0  0  0  0999 V2000
   59.5600   29.7150   46.8770 C   0  0  0  0  0  0  0  0  0  0  0  0
   59.0090   30.6320   46.0670 C   0  0  0  0  0  0  0  0  0  0  0  0
   58.3280   30.4140   44.8570 C   0  0  0  0  0  0  0  0  0  0  0  0
   57.9260   29.2760   44.2580 C   0  0  0  0  0  0  0  0  0  0  0  0
   57.3810   28.0900   44.9450 C   0  0  0  0  0  0  0  0  0  0  0  0
   56.0150   28.0150   45.2500 C   0  0  0  0  0  0  0  0  0  0  0  0
   55.1460   29.0290   44.8620 O   0  0  0  0  0  0  0  0  0  0  0  0
   55.5270   26.9390   45.9200 N   0  0  0  0  0  0  0  0  0  0  0  0
   56.3460   25.9330   46.3200 C   0  0  0  0  0  0  0  0  0  0  0  0
   55.8720   24.9440   46.9370 O   0  0  0  0  0  0  0  0  0  0  0  0
   57.6780   25.9950   46.0610 N   0  0  0  0  0  0  0  0  0  0  0  0
   58.2140   27.0490   45.3940 C   0  0  0  0  0  0  0  0  0  0  0  0
   59.4570   27.0840   45.1870 O   0  0  0  0  0  0  0  0  0  0  0  0
   58.0890   31.6690   44.3150 C   0  0  0  0  0  0  0  0  0  0  0  0
   58.5730   32.5930   45.2170 C   0  0  0  0  0  0  0  0  0  0  0  0
   58.5130   34.0800   45.0430 C   0  0  0  0  0  0  0  0  0  0  0  0
   59.1330   31.9680   46.2720 N   0  0  0  0  0  0  0  0  0  0  0  0
   59.7500   32.6180   47.3940 C   0  0  0  0  0  0  0  0  0  0  0  0
   61.1260   32.8790   47.3620 C   0  0  0  0  0  0  0  0  0  0  0  0
   61.7650   33.4870   48.4550 C   0  0  0  0  0  0  0  0  0  0  0  0
   63.2210   33.7570   48.4210 C   0  0  0  0  0  0  0  0  0  0  0  0
   63.7480   34.1840   47.3580 O   0  0  0  0  0  0  0  0  0  0  0  0
   64.0510   33.5120   49.5700 N   0  0  0  0  0  0  0  0  0  0  0  0
   63.7010   34.0850   50.8760 C   0  0  0  0  0  0  0  0  0  0  0  0
   64.1640   33.1620   52.0280 C   0  0  0  0  0  0  0  0  0  0  0  0
   65.0220   32.1110   51.6130 O   0  0  0  0  0  0  0  0  0  0  0  0
   66.0120   32.6020   50.7360 C   0  0  0  0  0  0  0  0  0  0  0  0
   65.3770   32.9170   49.3810 C   0  0  0  0  0  0  0  0  0  0  0  0
   61.0000   33.8600   49.5720 C   0  0  0  0  0  0  0  0  0  0  0  0
   59.6260   33.6090   49.6040 C   0  0  0  0  0  0  0  0  0  0  0  0
   58.9930   32.9880   48.5220 C   0  0  0  0  0  0  0  0  0  0  0  0
   57.6190   32.7590   48.5850 O   0  0  0  0  0  0  0  0  0  0  0  0
  1  2  2  0
  2  3  1  0
  3  4  2  3
  4  5  1  0
  5  6  2  0
  6  7  1  0
  6  8  1  0
  8  9  1  0
  9 10  2  0
  9 11  1  0
 11 12  1  0
 12 13  2  0
  3 14  1  0
 14 15  2  0
 15 16  1  0
 15 17  1  0
 17 18  1  0
 18 19  2  0
 19 20  1  0
 20 21  1  0
 21 22  2  0
 21 23  1  0
 23 24  1  0
 24 25  1  0
 25 26  1  0
 26 27  1  0
 27 28  1  0
 20 29  2  0
 29 30  1  0
 30 31  2  0
 31 32  1  0
 17  2  1  0
 31 18  1  0
 12  5  1  0
 28 23  1  0
M  CHG  3   7  -1   8  -1  11  -1
M  END
>  <UniqueID>  (1398) 
18

>  <SMILES>  (1398) 
C=c1c(=Cc2c([O-])[n-]c(=O)[n-]c2=O)cc(C)n1-c1cc(C(=O)N2CCOCC2)ccc1O

>  <Energy>  (1398) 
114.27155537082018

>  <Genealogy>  (1398) 
C=c1c(=Cc2c([O-])[n-]c(=O)[n-]c2=O)cc(C)n1-c1cc(C(=O)N2CCOCC2)ccc1O (protonated)
C=c1c(=Cc2c([O-])[n-]c(=O)[n-]c2=O)cc(C)n1-c1cc(C(=O)N2CCOCC2)ccc1O (3D coordinates assigned)
C=c1c(=Cc2c([O-])[n-]c(=O)[n-]c2=O)cc(C)n1-c1cc(C(=O)N2CCOCC2)ccc1O (nonaromatic ring conformer: 114.27155537082018 kcal/mol)

>  <smiles>  (1398) 
C=c1c(=Cc2c(O)[nH]c(=O)[nH]c2=O)cc(C)n1-c1cc(C(=O)N2CCOCC2)ccc1O

>  <score_type>  (1398) 
oracle

>  <origin>  (1398) 
adg

>  <m_score__min__energy>  (1398) 
-16.710000000000001

>  <m_primary>  (1398) 
energy

$$$$
21:0
     RDKit          3D

 39 43  0  0  0  0  0  0  0  0999 V2000
   60.2040   32.2290   51.6590 C   0  0  0  0  0  0  0  0  0  0  0  0
   60.0190   31.1300   50.9110 C   0  0  0  0  0  0  0  0  0  0  0  0
   59.2860   29.9820   51.2570 C   0  0  0  0  0  0  0  0  0  0  0  0
   58.4690   29.7330   52.3000 C   0  0  0  0  0  0  0  0  0  0  0  0
   57.0280   30.0150   52.3480 C   0  0  0  0  0  0  0  0  0  0  0  0
   56.1010   29.0870   52.6450 N   0  0  0  0  0  0  0  0  0  0  0  0
   54.9350   29.7390   52.4450 C   0  0  0  0  0  0  0  0  0  0  0  0
   53.8150   29.1990   52.6420 O   0  0  0  0  0  0  0  0  0  0  0  0
   55.0620   31.0110   52.0100 N   0  0  0  0  0  0  0  0  0  0  0  0
   56.3930   31.1650   51.9370 C   0  0  0  0  0  0  0  0  0  0  0  0
   57.0170   32.3230   51.4830 O   0  0  0  0  0  0  0  0  0  0  0  0
   59.5370   29.0510   50.2660 C   0  0  0  0  0  0  0  0  0  0  0  0
   60.3390   29.6660   49.3290 C   0  0  0  0  0  0  0  0  0  0  0  0
   60.7310   29.0310   48.0270 C   0  0  0  0  0  0  0  0  0  0  0  0
   60.6520   30.9210   49.7260 N   0  0  0  0  0  0  0  0  0  0  0  0
   61.4330   31.8800   48.9830 C   0  0  0  0  0  0  0  0  0  0  0  0
   62.8310   31.8650   49.1140 C   0  0  0  0  0  0  0  0  0  0  0  0
   63.6150   32.8230   48.4710 C   0  0  0  0  0  0  0  0  0  0  0  0
   63.0110   33.8150   47.7000 C   0  0  0  0  0  0  0  0  0  0  0  0
   61.6220   33.8440   47.5580 C   0  0  0  0  0  0  0  0  0  0  0  0
   60.8220   32.8730   48.1800 C   0  0  0  0  0  0  0  0  0  0  0  0
   59.3600   32.9330   47.9990 C   0  0  0  0  0  0  0  0  0  0  0  0
   58.6130   32.6400   48.9720 O   0  0  0  0  0  0  0  0  0  0  0  0
   58.7790   33.3360   46.7460 N   0  0  0  0  0  0  0  0  0  0  0  0
   59.2290   34.5720   46.1010 C   0  0  0  0  0  0  0  0  0  0  0  0
   59.1330   34.4570   44.5710 C   0  0  0  0  0  0  0  0  0  0  0  0
   57.9060   33.7780   44.0750 N   0  0  0  0  0  0  0  0  0  0  0  0
   58.2190   32.6050   43.2310 C   0  0  0  0  0  0  0  0  0  0  0  0
   57.8210   31.3230   43.9110 C   0  0  0  0  0  0  0  0  0  0  0  0
   56.5170   30.8260   43.7700 C   0  0  0  0  0  0  0  0  0  0  0  0
   56.1420   29.6350   44.4000 C   0  0  0  0  0  0  0  0  0  0  0  0
   57.0680   28.9150   45.1730 C   0  0  0  0  0  0  0  0  0  0  0  0
   56.6680   27.6560   45.8380 C   0  0  0  0  0  0  0  0  0  0  0  0
   55.5240   27.1660   45.6440 O   0  0  0  0  0  0  0  0  0  0  0  0
   57.5480   26.9960   46.6880 O   0  0  0  0  0  0  0  0  0  0  0  0
   58.3780   29.4120   45.3030 C   0  0  0  0  0  0  0  0  0  0  0  0
   58.7510   30.6050   44.6780 C   0  0  0  0  0  0  0  0  0  0  0  0
   56.9100   33.4770   45.1290 C   0  0  0  0  0  0  0  0  0  0  0  0
   57.5230   32.7180   46.3120 C   0  0  0  0  0  0  0  0  0  0  0  0
  1  2  2  0
  2  3  1  0
  3  4  2  3
  4  5  1  0
  5  6  1  0
  6  7  1  0
  7  8  2  0
  7  9  1  0
  9 10  1  0
 10 11  1  0
  3 12  1  0
 12 13  2  0
 13 14  1  0
 13 15  1  0
 15 16  1  0
 16 17  2  0
 17 18  1  0
 18 19  2  0
 19 20  1  0
 20 21  2  0
 21 22  1  0
 22 23  2  0
 22 24  1  0
 24 25  1  0
 25 26  1  0
 26 27  1  0
 27 28  1  0
 28 29  1  0
 29 30  2  0
 30 31  1  0
 31 32  2  0
 32 33  1  0
 33 34  2  0
 33 35  1  0
 32 36  1  0
 36 37  2  0
 27 38  1  0
 38 39  1  0
 15  2  1  0
 21 16  1  0
 39 24  1  0
 10  5  2  0
 37 29  1  0
M  CHG  3   6  -1   9  -1  35  -1
M  END
>  <UniqueID>  (1399) 
21

>  <SMILES>  (1399) 
C=c1c(=Cc2[n-]c(=O)[n-]c2O)cc(C)n1-c1ccccc1C(=O)N1CCN(Cc2ccc(C(=O)[O-])cc2)CC1

>  <Energy>  (1399) 
157.34457573102748

>  <Genealogy>  (1399) 
C=c1c(=Cc2[n-]c(=O)[n-]c2O)cc(C)n1-c1ccccc1C(=O)N1CCN(Cc2ccc(C(=O)[O-])cc2)CC1 (protonated)
C=c1c(=Cc2[n-]c(=O)[n-]c2O)cc(C)n1-c1ccccc1C(=O)N1CCN(Cc2ccc(C(=O)[O-])cc2)CC1 (3D coordinates assigned)
C=c1c(=Cc2[n-]c(=O)[n-]c2O)cc(C)n1-c1ccccc1C(=O)N1CCN(Cc2ccc(C(=O)[O-])cc2)CC1 (nonaromatic ring conformer: 157.34457573102748 kcal/mol)

>  <smiles>  (1399) 
C=c1c(=Cc2[nH]c(=O)[nH]c2O)cc(C)n1-c1ccccc1C(=O)N1CCN(Cc2ccc(C(=O)O)cc2)CC1

>  <score_type>  (1399) 
oracle

>  <origin>  (1399) 
adg

>  <m_score__min__energy>  (1399) 
-15.69

>  <m_primary>  (1399) 
energy

$$$$
43:0
     RDKit          3D

 34 38  0  0  0  0  0  0  0  0999 V2000
   58.9940   28.2950   46.6900 C   0  0  0  0  0  0  0  0  0  0  0  0
   58.3800   28.7100   45.5700 C   0  0  0  0  0  0  0  0  0  0  0  0
   57.7970   27.8990   44.5910 C   0  0  0  0  0  0  0  0  0  0  0  0
   57.7550   26.5520   44.5670 C   0  0  0  0  0  0  0  0  0  0  0  0
   57.2810   25.7190   45.6880 C   0  0  0  0  0  0  0  0  0  0  0  0
   56.0360   25.7840   46.2730 C   0  0  0  0  0  0  0  0  0  0  0  0
   55.0510   26.7160   45.9780 O   0  0  0  0  0  0  0  0  0  0  0  0
   55.8880   24.8030   47.1840 N   0  0  0  0  0  0  0  0  0  0  0  0
   57.0650   24.1470   47.1090 C   0  0  0  0  0  0  0  0  0  0  0  0
   57.3240   23.1290   47.8020 O   0  0  0  0  0  0  0  0  0  0  0  0
   57.9280   24.6650   46.2130 N   0  0  0  0  0  0  0  0  0  0  0  0
   57.3200   28.7580   43.6070 C   0  0  0  0  0  0  0  0  0  0  0  0
   57.6070   30.0410   44.0290 C   0  0  0  0  0  0  0  0  0  0  0  0
   57.2950   31.2850   43.2540 C   0  0  0  0  0  0  0  0  0  0  0  0
   58.2500   30.0140   45.2170 N   0  0  0  0  0  0  0  0  0  0  0  0
   58.6870   31.1630   45.9610 C   0  0  0  0  0  0  0  0  0  0  0  0
   57.7820   32.1910   46.2610 C   0  0  0  0  0  0  0  0  0  0  0  0
   58.2000   33.3050   46.9930 C   0  0  0  0  0  0  0  0  0  0  0  0
   59.5310   33.4070   47.4280 C   0  0  0  0  0  0  0  0  0  0  0  0
   59.9660   34.5770   48.2690 C   0  0  0  0  0  0  0  0  0  0  0  0
   60.6200   34.0890   49.5330 C   0  0  0  0  0  0  0  0  0  0  0  0
   59.8510   33.8400   50.6770 C   0  0  0  0  0  0  0  0  0  0  0  0
   60.4660   33.4320   51.8620 C   0  0  0  0  0  0  0  0  0  0  0  0
   61.8540   33.2850   51.9190 C   0  0  0  0  0  0  0  0  0  0  0  0
   62.6480   33.5470   50.7880 C   0  0  0  0  0  0  0  0  0  0  0  0
   64.0860   33.4120   50.8500 N   0  0  0  0  0  0  0  0  0  0  0  0
   64.8270   33.9990   51.9790 C   0  0  0  0  0  0  0  0  0  0  0  0
   66.3190   34.2590   51.6470 C   0  0  0  0  0  0  0  0  0  0  0  0
   66.7260   33.7810   50.3790 O   0  0  0  0  0  0  0  0  0  0  0  0
   66.2620   32.4650   50.1870 C   0  0  0  0  0  0  0  0  0  0  0  0
   64.7650   32.5050   49.9110 C   0  0  0  0  0  0  0  0  0  0  0  0
   62.0170   33.9460   49.5950 C   0  0  0  0  0  0  0  0  0  0  0  0
   60.4350   32.3730   47.1310 C   0  0  0  0  0  0  0  0  0  0  0  0
   60.0160   31.2620   46.3950 C   0  0  0  0  0  0  0  0  0  0  0  0
  1  2  2  0
  2  3  1  0
  3  4  2  0
  4  5  1  0
  5  6  2  0
  6  7  1  0
  6  8  1  0
  8  9  1  0
  9 10  2  0
  9 11  1  0
  3 12  1  0
 12 13  2  0
 13 14  1  0
 13 15  1  0
 15 16  1  0
 16 17  2  0
 17 18  1  0
 18 19  2  0
 19 20  1  0
 20 21  1  0
 21 22  2  0
 22 23  1  0
 23 24  2  0
 24 25  1  0
 25 26  1  0
 26 27  1  0
 27 28  1  0
 28 29  1  0
 29 30  1  0
 30 31  1  0
 25 32  2  0
 19 33  1  0
 33 34  2  0
 15  2  1  0
 34 16  1  0
 11  5  1  0
 32 21  1  0
 31 26  1  0
M  CHG  2   7  -1   8  -1
M  END
>  <UniqueID>  (1400) 
42

>  <SMILES>  (1400) 
C=c1/c(=C/c2[nH]c(=O)[n-]c2[O-])cc(C)n1-c1ccc(Cc2cccc(N3CCOCC3)c2)cc1

>  <Energy>  (1400) 
144.49439820874395

>  <Genealogy>  (1400) 
C=c1c(=Cc2[nH]c(=O)[n-]c2[O-])cc(C)n1-c1ccc(Cc2cccc(N3CCOCC3)c2)cc1 (protonated)
C=c1/c(=C/c2[nH]c(=O)[n-]c2[O-])cc(C)n1-c1ccc(Cc2cccc(N3CCOCC3)c2)cc1 (cis-trans isomerization)
C=c1/c(=C/c2[nH]c(=O)[n-]c2[O-])cc(C)n1-c1ccc(Cc2cccc(N3CCOCC3)c2)cc1 (3D coordinates assigned)
C=c1/c(=C/c2[nH]c(=O)[n-]c2[O-])cc(C)n1-c1ccc(Cc2cccc(N3CCOCC3)c2)cc1 (nonaromatic ring conformer: 144.49439820874395 kcal/mol)

>  <smiles>  (1400) 
C=c1c(=Cc2[nH]c(=O)[nH]c2O)cc(C)n1-c1ccc(Cc2cccc(N3CCOCC3)c2)cc1

>  <score_type>  (1400) 
oracle

>  <origin>  (1400) 
adg

>  <m_score__min__energy>  (1400) 
-15.51

>  <m_primary>  (1400) 
energy

$$$$
52:0
     RDKit          3D

 32 36  0  0  0  0  0  0  0  0999 V2000
   60.3450   29.6910   44.9150 C   0  0  0  0  0  0  0  0  0  0  0  0
   59.8710   29.4290   46.1430 C   0  0  0  0  0  0  0  0  0  0  0  0
   58.9640   28.4220   46.4870 C   0  0  0  0  0  0  0  0  0  0  0  0
   58.4450   27.4800   45.6770 C   0  0  0  0  0  0  0  0  0  0  0  0
   57.1690   26.7870   45.9290 C   0  0  0  0  0  0  0  0  0  0  0  0
   57.0910   25.5030   46.3200 N   0  0  0  0  0  0  0  0  0  0  0  0
   55.7630   25.2610   46.3440 C   0  0  0  0  0  0  0  0  0  0  0  0
   55.2830   24.1480   46.6810 O   0  0  0  0  0  0  0  0  0  0  0  0
   54.9900   26.3020   45.9680 N   0  0  0  0  0  0  0  0  0  0  0  0
   55.8950   27.2570   45.6960 C   0  0  0  0  0  0  0  0  0  0  0  0
   55.5600   28.5110   45.2000 O   0  0  0  0  0  0  0  0  0  0  0  0
   58.7400   28.5500   47.8530 C   0  0  0  0  0  0  0  0  0  0  0  0
   59.5080   29.6150   48.2810 C   0  0  0  0  0  0  0  0  0  0  0  0
   59.5860   30.1030   49.6950 C   0  0  0  0  0  0  0  0  0  0  0  0
   60.1930   30.1480   47.2460 N   0  0  0  0  0  0  0  0  0  0  0  0
   61.1070   31.2560   47.3310 C   0  0  0  0  0  0  0  0  0  0  0  0
   62.4790   31.0240   47.1470 C   0  0  0  0  0  0  0  0  0  0  0  0
   63.3940   32.0730   47.2560 C   0  0  0  0  0  0  0  0  0  0  0  0
   62.9460   33.3630   47.5450 C   0  0  0  0  0  0  0  0  0  0  0  0
   61.5830   33.6090   47.7230 C   0  0  0  0  0  0  0  0  0  0  0  0
   60.6500   32.5630   47.6200 C   0  0  0  0  0  0  0  0  0  0  0  0
   59.2060   32.8570   47.7770 C   0  0  0  0  0  0  0  0  0  0  0  0
   58.6800   32.7450   48.9180 O   0  0  0  0  0  0  0  0  0  0  0  0
   58.3930   33.2550   46.6530 N   0  0  0  0  0  0  0  0  0  0  0  0
   57.3960   32.3350   46.0710 C   0  0  0  0  0  0  0  0  0  0  0  0
   57.6400   32.2200   44.6010 C   0  0  0  0  0  0  0  0  0  0  0  0
   57.1340   31.3380   43.7730 O   0  0  0  0  0  0  0  0  0  0  0  0
   57.6230   31.6200   42.5800 C   0  0  0  0  0  0  0  0  0  0  0  0
   58.4490   32.6890   42.6100 N   0  0  0  0  0  0  0  0  0  0  0  0
   58.4420   33.0740   43.8950 C   0  0  0  0  0  0  0  0  0  0  0  0
   59.2620   34.1620   44.5180 C   0  0  0  0  0  0  0  0  0  0  0  0
   58.7000   34.4960   45.9120 C   0  0  0  0  0  0  0  0  0  0  0  0
  1  2  2  0
  2  3  1  0
  3  4  2  0
  4  5  1  0
  5  6  1  0
  6  7  1  0
  7  8  2  0
  7  9  1  0
  9 10  1  0
 10 11  1  0
  3 12  1  0
 12 13  2  0
 13 14  1  0
 13 15  1  0
 15 16  1  0
 16 17  2  0
 17 18  1  0
 18 19  2  0
 19 20  1  0
 20 21  2  0
 21 22  1  0
 22 23  2  0
 22 24  1  0
 24 25  1  0
 25 26  1  0
 26 27  1  0
 27 28  1  0
 28 29  2  0
 29 30  1  0
 30 31  1  0
 31 32  1  0
 15  2  1  0
 21 16  1  0
 32 24  1  0
 10  5  2  0
 30 26  2  0
M  CHG  4   6  -1   9  -1  11  -1  29   1
M  END
>  <UniqueID>  (1401) 
51

>  <SMILES>  (1401) 
C=c1/c(=C/c2[n-]c(=O)[n-]c2[O-])cc(C)n1-c1ccccc1C(=O)N1CCc2[nH+]coc2C1

>  <Energy>  (1401) 
166.6241929145453

>  <Genealogy>  (1401) 
C=c1c(=Cc2[n-]c(=O)[n-]c2[O-])cc(C)n1-c1ccccc1C(=O)N1CCc2[nH+]coc2C1 (protonated)
C=c1/c(=C/c2[n-]c(=O)[n-]c2[O-])cc(C)n1-c1ccccc1C(=O)N1CCc2[nH+]coc2C1 (cis-trans isomerization)
C=c1/c(=C/c2[n-]c(=O)[n-]c2[O-])cc(C)n1-c1ccccc1C(=O)N1CCc2[nH+]coc2C1 (3D coordinates assigned)
C=c1/c(=C/c2[n-]c(=O)[n-]c2[O-])cc(C)n1-c1ccccc1C(=O)N1CCc2[nH+]coc2C1 (nonaromatic ring conformer: 166.6241929145453 kcal/mol)

>  <smiles>  (1401) 
C=c1c(=Cc2[nH]c(=O)[nH]c2O)cc(C)n1-c1ccccc1C(=O)N1CCc2ncoc2C1

>  <score_type>  (1401) 
oracle

>  <origin>  (1401) 
adg

>  <m_score__min__energy>  (1401) 
-15.49

>  <m_primary>  (1401) 
energy

$$$$
56:0
     RDKit          3D

 31 34  0  0  0  0  0  0  0  0999 V2000
   59.2970   28.2580   44.2370 O   0  0  0  0  0  0  0  0  0  0  0  0
   57.9910   28.1370   44.7040 C   0  0  0  0  0  0  0  0  0  0  0  0
   57.5200   27.0510   45.3380 N   0  0  0  0  0  0  0  0  0  0  0  0
   56.2530   27.4120   45.6380 C   0  0  0  0  0  0  0  0  0  0  0  0
   55.4610   26.6520   46.2550 O   0  0  0  0  0  0  0  0  0  0  0  0
   55.9060   28.6540   45.2370 N   0  0  0  0  0  0  0  0  0  0  0  0
   57.0110   29.1000   44.6150 C   0  0  0  0  0  0  0  0  0  0  0  0
   57.1590   30.4720   44.1060 C   0  0  0  0  0  0  0  0  0  0  0  0
   57.8480   31.4630   44.7060 C   0  0  0  0  0  0  0  0  0  0  0  0
   57.8940   32.7530   44.2030 C   0  0  0  0  0  0  0  0  0  0  0  0
   58.6140   33.5080   45.1050 C   0  0  0  0  0  0  0  0  0  0  0  0
   58.8930   34.9740   44.9540 C   0  0  0  0  0  0  0  0  0  0  0  0
   59.0550   32.7350   46.1210 N   0  0  0  0  0  0  0  0  0  0  0  0
   59.8640   33.1780   47.2260 C   0  0  0  0  0  0  0  0  0  0  0  0
   59.2710   33.8340   48.3120 C   0  0  0  0  0  0  0  0  0  0  0  0
   60.0550   34.2720   49.3820 C   0  0  0  0  0  0  0  0  0  0  0  0
   61.4350   34.0540   49.3750 C   0  0  0  0  0  0  0  0  0  0  0  0
   62.0450   33.3840   48.2990 C   0  0  0  0  0  0  0  0  0  0  0  0
   63.5090   33.1580   48.2810 C   0  0  0  0  0  0  0  0  0  0  0  0
   64.1650   33.4660   47.2480 O   0  0  0  0  0  0  0  0  0  0  0  0
   64.2020   32.6210   49.4220 N   0  0  0  0  0  0  0  0  0  0  0  0
   65.5650   33.0770   49.7110 C   0  0  0  0  0  0  0  0  0  0  0  0
   66.0450   32.5350   51.0660 C   0  0  0  0  0  0  0  0  0  0  0  0
   64.9490   32.4880   52.0610 N   0  0  0  0  0  0  0  0  0  0  0  0
   64.4290   33.8240   52.4380 C   0  0  0  0  0  0  0  0  0  0  0  0
   62.9040   33.8300   52.5530 C   0  0  0  0  0  0  0  0  0  0  0  0
   63.8610   31.5650   51.6420 C   0  0  0  0  0  0  0  0  0  0  0  0
   63.6980   31.4290   50.1130 C   0  0  0  0  0  0  0  0  0  0  0  0
   61.2500   32.9600   47.2210 C   0  0  0  0  0  0  0  0  0  0  0  0
   58.6190   31.4720   45.8800 C   0  0  0  0  0  0  0  0  0  0  0  0
   59.0240   30.4060   46.5900 C   0  0  0  0  0  0  0  0  0  0  0  0
  1  2  1  0
  2  3  1  0
  3  4  1  0
  4  5  2  0
  4  6  1  0
  6  7  1  0
  7  8  1  0
  8  9  2  0
  9 10  1  0
 10 11  2  0
 11 12  1  0
 11 13  1  0
 13 14  1  0
 14 15  2  0
 15 16  1  0
 16 17  2  0
 17 18  1  0
 18 19  1  0
 19 20  2  0
 19 21  1  0
 21 22  1  0
 22 23  1  0
 23 24  1  0
 24 25  1  0
 25 26  1  0
 24 27  1  0
 27 28  1  0
 18 29  2  0
 13 30  1  0
 30 31  2  0
  7  2  2  0
 30  9  1  0
 29 14  1  0
 28 21  1  0
M  CHG  2   3  -1   6  -1
M  END
>  <UniqueID>  (1402) 
55

>  <SMILES>  (1402) 
C=c1/c(=C\c2[n-]c(=O)[n-]c2O)cc(C)n1-c1cccc(C(=O)N2CCN(CC)CC2)c1

>  <Energy>  (1402) 
144.9361898678688

>  <Genealogy>  (1402) 
C=c1c(=Cc2[n-]c(=O)[n-]c2O)cc(C)n1-c1cccc(C(=O)N2CCN(CC)CC2)c1 (protonated)
C=c1/c(=C\c2[n-]c(=O)[n-]c2O)cc(C)n1-c1cccc(C(=O)N2CCN(CC)CC2)c1 (cis-trans isomerization)
C=c1/c(=C\c2[n-]c(=O)[n-]c2O)cc(C)n1-c1cccc(C(=O)N2CCN(CC)CC2)c1 (3D coordinates assigned)
C=c1/c(=C\c2[n-]c(=O)[n-]c2O)cc(C)n1-c1cccc(C(=O)N2CCN(CC)CC2)c1 (nonaromatic ring conformer: 144.9361898678688 kcal/mol)

>  <smiles>  (1402) 
C=c1c(=Cc2[nH]c(=O)[nH]c2O)cc(C)n1-c1cccc(C(=O)N2CCN(CC)CC2)c1

>  <score_type>  (1402) 
oracle

>  <origin>  (1402) 
adg

>  <m_score__min__energy>  (1402) 
-14.619999999999999

>  <m_primary>  (1402) 
energy

$$$$
60:0
     RDKit          3D

 31 33  0  0  0  0  0  0  0  0999 V2000
   61.4160   29.3890   48.7630 O   0  0  0  0  0  0  0  0  0  0  0  0
   60.2560   29.4000   49.2570 C   0  0  0  0  0  0  0  0  0  0  0  0
   59.1780   28.5440   48.6480 C   0  0  0  0  0  0  0  0  0  0  0  0
   59.6870   27.2010   48.3750 N   0  0  0  0  0  0  0  0  0  0  0  0
   59.4810   26.8260   46.6900 S   0  0  0  0  0  0  0  0  0  0  0  0
   60.8300   26.6540   46.0520 O   0  0  0  0  0  0  0  0  0  0  0  0
   58.7220   25.5370   46.5500 O   0  0  0  0  0  0  0  0  0  0  0  0
   58.6160   28.1270   45.8720 C   0  0  0  0  0  0  0  0  0  0  0  0
   59.3160   29.2170   45.3310 C   0  0  0  0  0  0  0  0  0  0  0  0
   58.6280   30.2190   44.6400 C   0  0  0  0  0  0  0  0  0  0  0  0
   57.2390   30.1410   44.4890 C   0  0  0  0  0  0  0  0  0  0  0  0
   56.5380   29.0550   45.0220 C   0  0  0  0  0  0  0  0  0  0  0  0
   55.1590   28.9720   44.8650 O   0  0  0  0  0  0  0  0  0  0  0  0
   57.2260   28.0470   45.7100 C   0  0  0  0  0  0  0  0  0  0  0  0
   59.9860   30.2770   50.3610 N   0  0  0  0  0  0  0  0  0  0  0  0
   58.7890   31.0990   50.5140 C   0  0  0  0  0  0  0  0  0  0  0  0
   58.7650   32.1980   49.4980 C   0  0  0  0  0  0  0  0  0  0  0  0
   58.9090   33.3940   49.8710 O   0  0  0  0  0  0  0  0  0  0  0  0
   58.5090   31.8850   48.1240 N   0  0  0  0  0  0  0  0  0  0  0  0
   58.4960   32.8080   47.0230 C   0  0  0  0  0  0  0  0  0  0  0  0
   57.3000   33.1090   46.3400 C   0  0  0  0  0  0  0  0  0  0  0  0
   57.3010   34.0110   45.2740 C   0  0  0  0  0  0  0  0  0  0  0  0
   58.4900   34.6270   44.8790 C   0  0  0  0  0  0  0  0  0  0  0  0
   59.6790   34.3560   45.5610 C   0  0  0  0  0  0  0  0  0  0  0  0
   59.6930   33.4620   46.6460 C   0  0  0  0  0  0  0  0  0  0  0  0
   60.9680   33.2190   47.3660 C   0  0  0  0  0  0  0  0  0  0  0  0
   61.4170   34.1320   48.3360 C   0  0  0  0  0  0  0  0  0  0  0  0
   62.6210   33.9070   49.0140 C   0  0  0  0  0  0  0  0  0  0  0  0
   63.3790   32.7660   48.7370 C   0  0  0  0  0  0  0  0  0  0  0  0
   62.9350   31.8490   47.7820 C   0  0  0  0  0  0  0  0  0  0  0  0
   61.7320   32.0680   47.1020 C   0  0  0  0  0  0  0  0  0  0  0  0
  1  2  2  0
  2  3  1  0
  3  4  1  0
  4  5  1  0
  5  6  2  0
  5  7  2  0
  5  8  1  0
  8  9  2  0
  9 10  1  0
 10 11  2  0
 11 12  1  0
 12 13  1  0
 12 14  2  0
  2 15  1  0
 15 16  1  0
 16 17  1  0
 17 18  2  0
 17 19  1  0
 19 20  1  0
 20 21  2  0
 21 22  1  0
 22 23  2  0
 23 24  1  0
 24 25  2  0
 25 26  1  0
 26 27  2  0
 27 28  1  0
 28 29  2  0
 29 30  1  0
 30 31  2  0
 14  8  1  0
 25 20  1  0
 31 26  1  0
M  CHG  4   4  -1  13  -1  15  -1  19  -1
M  END
>  <UniqueID>  (1403) 
59

>  <SMILES>  (1403) 
O=C(C[N-]S(=O)(=O)c1cccc([O-])c1)[N-]CC(=O)[N-]c1ccccc1-c1ccccc1

>  <Energy>  (1403) 
55.532717959686636

>  <Genealogy>  (1403) 
O=C(C[N-]S(=O)(=O)c1cccc([O-])c1)[N-]CC(=O)[N-]c1ccccc1-c1ccccc1 (protonated)
O=C(C[N-]S(=O)(=O)c1cccc([O-])c1)[N-]CC(=O)[N-]c1ccccc1-c1ccccc1 (3D coordinates assigned)
O=C(C[N-]S(=O)(=O)c1cccc([O-])c1)[N-]CC(=O)[N-]c1ccccc1-c1ccccc1 (optimized conformer: 55.532717959686636 kcal/mol)

>  <smiles>  (1403) 
O=C(CNS(=O)(=O)c1cccc(O)c1)NCC(=O)Nc1ccccc1-c1ccccc1

>  <score_type>  (1403) 
oracle

>  <origin>  (1403) 
adg

>  <m_score__min__energy>  (1403) 
-16.079999999999998

>  <m_primary>  (1403) 
energy

$$$$
62:0
     RDKit          3D

 34 37  0  0  0  0  0  0  0  0999 V2000
   50.1100   32.7140   52.0360 N   0  0  0  0  0  0  0  0  0  0  0  0
   51.2150   32.1200   51.3590 C   0  0  0  0  0  0  0  0  0  0  0  0
   51.4820   32.4870   50.1830 O   0  0  0  0  0  0  0  0  0  0  0  0
   52.0390   31.0820   52.0240 C   0  0  0  0  0  0  0  0  0  0  0  0
   51.4260   29.9880   52.6600 C   0  0  0  0  0  0  0  0  0  0  0  0
   52.1990   29.0090   53.2850 C   0  0  0  0  0  0  0  0  0  0  0  0
   53.5910   29.1100   53.2920 C   0  0  0  0  0  0  0  0  0  0  0  0
   54.2300   30.2000   52.6740 C   0  0  0  0  0  0  0  0  0  0  0  0
   55.7110   30.3240   52.6650 C   0  0  0  0  0  0  0  0  0  0  0  0
   56.3850   30.1760   51.4970 N   0  0  0  0  0  0  0  0  0  0  0  0
   57.7350   30.2880   51.4080 C   0  0  0  0  0  0  0  0  0  0  0  0
   58.2790   30.1340   50.2300 N   0  0  0  0  0  0  0  0  0  0  0  0
   59.0710   31.0670   49.4800 C   0  0  0  0  0  0  0  0  0  0  0  0
   60.2900   30.6520   48.9320 C   0  0  0  0  0  0  0  0  0  0  0  0
   61.0400   31.5240   48.1390 C   0  0  0  0  0  0  0  0  0  0  0  0
   60.5690   32.8210   47.8700 C   0  0  0  0  0  0  0  0  0  0  0  0
   61.3590   33.7450   46.9810 C   0  0  0  0  0  0  0  0  0  0  0  0
   62.8330   33.6730   47.2830 C   0  0  0  0  0  0  0  0  0  0  0  0
   63.6590   33.6110   46.3320 O   0  0  0  0  0  0  0  0  0  0  0  0
   63.3180   33.6910   48.6400 N   0  0  0  0  0  0  0  0  0  0  0  0
   64.5890   33.0320   48.9560 C   0  0  0  0  0  0  0  0  0  0  0  0
   64.7740   32.9000   50.4770 C   0  0  0  0  0  0  0  0  0  0  0  0
   63.5040   32.5690   51.1570 N   0  0  0  0  0  0  0  0  0  0  0  0
   63.0360   31.2130   50.8180 C   0  0  0  0  0  0  0  0  0  0  0  0
   62.4410   33.5870   50.9480 C   0  0  0  0  0  0  0  0  0  0  0  0
   62.6460   34.4590   49.6940 C   0  0  0  0  0  0  0  0  0  0  0  0
   59.3240   33.2200   48.3830 C   0  0  0  0  0  0  0  0  0  0  0  0
   58.5760   32.3460   49.1760 C   0  0  0  0  0  0  0  0  0  0  0  0
   58.4700   30.5290   52.5960 C   0  0  0  0  0  0  0  0  0  0  0  0
   59.7310   30.5330   52.5900 O   0  0  0  0  0  0  0  0  0  0  0  0
   57.7990   30.7200   53.7780 N   0  0  0  0  0  0  0  0  0  0  0  0
   58.5460   30.9810   55.0150 C   0  0  0  0  0  0  0  0  0  0  0  0
   56.4380   30.6180   53.8260 C   0  0  0  0  0  0  0  0  0  0  0  0
   53.4430   31.1760   52.0330 C   0  0  0  0  0  0  0  0  0  0  0  0
  1  2  1  0
  2  3  2  0
  2  4  1  0
  4  5  2  0
  5  6  1  0
  6  7  2  0
  7  8  1  0
  8  9  1  0
  9 10  1  0
 10 11  1  0
 11 12  2  0
 12 13  1  0
 13 14  2  0
 14 15  1  0
 15 16  2  0
 16 17  1  0
 17 18  1  0
 18 19  2  0
 18 20  1  0
 20 21  1  0
 21 22  1  0
 22 23  1  0
 23 24  1  0
 23 25  1  0
 25 26  1  0
 16 27  1  0
 27 28  2  0
 11 29  1  0
 29 30  2  0
 29 31  1  0
 31 32  1  0
 31 33  1  0
  8 34  2  0
 34  4  1  0
 33  9  2  0
 28 13  1  0
 26 20  1  0
M  CHG  2   1  -1  10  -1
M  END
>  <UniqueID>  (1404) 
61

>  <SMILES>  (1404) 
CN1CCN(C(=O)Cc2ccc(/N=c3/[n-]c(-c4cccc(C([NH-])=O)c4)cn(C)c3=O)cc2)CC1

>  <Energy>  (1404) 
92.13679336999758

>  <Genealogy>  (1404) 
CN1CCN(C(=O)Cc2ccc(N=c3[n-]c(-c4cccc(C([NH-])=O)c4)cn(C)c3=O)cc2)CC1 (protonated)
CN1CCN(C(=O)Cc2ccc(/N=c3/[n-]c(-c4cccc(C([NH-])=O)c4)cn(C)c3=O)cc2)CC1 (cis-trans isomerization)
CN1CCN(C(=O)Cc2ccc(/N=c3/[n-]c(-c4cccc(C([NH-])=O)c4)cn(C)c3=O)cc2)CC1 (3D coordinates assigned)
CN1CCN(C(=O)Cc2ccc(/N=c3/[n-]c(-c4cccc(C([NH-])=O)c4)cn(C)c3=O)cc2)CC1 (nonaromatic ring conformer: 92.13679336999758 kcal/mol)

>  <smiles>  (1404) 
CN1CCN(C(=O)Cc2ccc(N=c3[nH]c(-c4cccc(C(N)=O)c4)cn(C)c3=O)cc2)CC1

>  <score_type>  (1404) 
oracle

>  <origin>  (1404) 
adg

>  <m_score__min__energy>  (1404) 
-14.09

>  <m_primary>  (1404) 
energy

$$$$
72:0
     RDKit          3D

 33 36  0  0  0  0  0  0  0  0999 V2000
   58.7290   28.4170   46.6180 C   0  0  0  0  0  0  0  0  0  0  0  0
   58.2160   28.7350   45.4180 C   0  0  0  0  0  0  0  0  0  0  0  0
   57.7820   27.8380   44.4320 C   0  0  0  0  0  0  0  0  0  0  0  0
   57.8060   26.4900   44.4970 C   0  0  0  0  0  0  0  0  0  0  0  0
   57.2650   25.6690   45.6030 C   0  0  0  0  0  0  0  0  0  0  0  0
   57.8830   24.6290   46.1920 N   0  0  0  0  0  0  0  0  0  0  0  0
   57.0160   24.2500   47.1550 C   0  0  0  0  0  0  0  0  0  0  0  0
   57.2440   23.2850   47.9300 O   0  0  0  0  0  0  0  0  0  0  0  0
   55.8880   24.9870   47.2240 N   0  0  0  0  0  0  0  0  0  0  0  0
   56.0640   25.8830   46.2390 C   0  0  0  0  0  0  0  0  0  0  0  0
   55.1440   26.8760   45.9270 O   0  0  0  0  0  0  0  0  0  0  0  0
   57.2960   28.6220   43.3900 C   0  0  0  0  0  0  0  0  0  0  0  0
   57.4630   29.9390   43.7680 C   0  0  0  0  0  0  0  0  0  0  0  0
   57.0520   31.1200   42.9440 C   0  0  0  0  0  0  0  0  0  0  0  0
   58.0150   30.0090   45.0000 N   0  0  0  0  0  0  0  0  0  0  0  0
   58.3300   31.2210   45.7080 C   0  0  0  0  0  0  0  0  0  0  0  0
   57.3920   32.2600   45.7820 C   0  0  0  0  0  0  0  0  0  0  0  0
   57.7010   33.4400   46.4660 C   0  0  0  0  0  0  0  0  0  0  0  0
   58.9540   33.5950   47.0790 C   0  0  0  0  0  0  0  0  0  0  0  0
   59.2860   34.8520   47.8380 C   0  0  0  0  0  0  0  0  0  0  0  0
   60.3180   34.5840   48.8370 N   0  0  0  0  0  0  0  0  0  0  0  0
   60.0440   33.8500   50.0430 C   0  0  0  0  0  0  0  0  0  0  0  0
   58.9160   33.3130   50.2040 O   0  0  0  0  0  0  0  0  0  0  0  0
   61.0580   33.6740   51.1030 C   0  0  0  0  0  0  0  0  0  0  0  0
   62.2970   33.2130   50.8690 C   0  0  0  0  0  0  0  0  0  0  0  0
   62.8160   32.8950   49.5150 C   0  0  0  0  0  0  0  0  0  0  0  0
   63.5980   33.8000   48.7680 C   0  0  0  0  0  0  0  0  0  0  0  0
   64.0520   33.4540   47.4910 C   0  0  0  0  0  0  0  0  0  0  0  0
   63.7260   32.2130   46.9430 C   0  0  0  0  0  0  0  0  0  0  0  0
   62.9390   31.3150   47.6660 C   0  0  0  0  0  0  0  0  0  0  0  0
   62.4810   31.6550   48.9430 C   0  0  0  0  0  0  0  0  0  0  0  0
   59.8930   32.5540   47.0040 C   0  0  0  0  0  0  0  0  0  0  0  0
   59.5830   31.3750   46.3200 C   0  0  0  0  0  0  0  0  0  0  0  0
  1  2  2  0
  2  3  1  0
  3  4  2  0
  4  5  1  0
  5  6  1  0
  6  7  1  0
  7  8  2  0
  7  9  1  0
  9 10  1  0
 10 11  1  0
  3 12  1  0
 12 13  2  0
 13 14  1  0
 13 15  1  0
 15 16  1  0
 16 17  2  0
 17 18  1  0
 18 19  2  0
 19 20  1  0
 20 21  1  0
 21 22  1  0
 22 23  2  0
 22 24  1  0
 24 25  2  0
 25 26  1  0
 26 27  2  0
 27 28  1  0
 28 29  2  0
 29 30  1  0
 30 31  2  0
 19 32  1  0
 32 33  2  0
 15  2  1  0
 33 16  1  0
 10  5  2  0
 31 26  1  0
M  CHG  3   6  -1   9  -1  11  -1
M  END
>  <UniqueID>  (1405) 
71

>  <SMILES>  (1405) 
C=c1/c(=C/c2[n-]c(=O)[n-]c2[O-])cc(C)n1-c1ccc(CNC(=O)/C=C/c2ccccc2)cc1

>  <Energy>  (1405) 
127.52270799072753

>  <Genealogy>  (1405) 
C=c1c(=Cc2[n-]c(=O)[n-]c2[O-])cc(C)n1-c1ccc(CNC(=O)C=Cc2ccccc2)cc1 (protonated)
C=c1/c(=C/c2[n-]c(=O)[n-]c2[O-])cc(C)n1-c1ccc(CNC(=O)/C=C/c2ccccc2)cc1 (cis-trans isomerization)
C=c1/c(=C/c2[n-]c(=O)[n-]c2[O-])cc(C)n1-c1ccc(CNC(=O)/C=C/c2ccccc2)cc1 (3D coordinates assigned)
C=c1/c(=C/c2[n-]c(=O)[n-]c2[O-])cc(C)n1-c1ccc(CNC(=O)/C=C/c2ccccc2)cc1 (optimized conformer: 127.52270799072753 kcal/mol)

>  <smiles>  (1405) 
C=c1c(=Cc2[nH]c(=O)[nH]c2O)cc(C)n1-c1ccc(CNC(=O)C=Cc2ccccc2)cc1

>  <score_type>  (1405) 
oracle

>  <origin>  (1405) 
adg

>  <m_score__min__energy>  (1405) 
-17.440000000000001

>  <m_primary>  (1405) 
energy

$$$$
85:0
     RDKit          3D

 30 32  0  0  0  0  0  0  0  0999 V2000
   56.9920   33.3360   47.0400 O   0  0  0  0  0  0  0  0  0  0  0  0
   57.7160   33.5090   46.0240 C   0  0  0  0  0  0  0  0  0  0  0  0
   58.7180   34.5320   46.0260 N   0  0  0  0  0  0  0  0  0  0  0  0
   60.0720   34.3090   46.5130 C   0  0  0  0  0  0  0  0  0  0  0  0
   60.0210   33.7150   47.9190 C   0  0  0  0  0  0  0  0  0  0  0  0
   59.8820   32.2190   47.8600 C   0  0  0  0  0  0  0  0  0  0  0  0
   59.0780   31.5420   48.7950 C   0  0  0  0  0  0  0  0  0  0  0  0
   58.9250   30.1540   48.7190 C   0  0  0  0  0  0  0  0  0  0  0  0
   59.5660   29.4330   47.7070 C   0  0  0  0  0  0  0  0  0  0  0  0
   59.4180   28.0870   47.6350 F   0  0  0  0  0  0  0  0  0  0  0  0
   60.3570   30.1000   46.7660 C   0  0  0  0  0  0  0  0  0  0  0  0
   60.5100   31.4880   46.8370 C   0  0  0  0  0  0  0  0  0  0  0  0
   57.5260   32.6520   44.8390 C   0  0  0  0  0  0  0  0  0  0  0  0
   58.2520   32.8700   43.6560 C   0  0  0  0  0  0  0  0  0  0  0  0
   58.0420   32.0320   42.5590 C   0  0  0  0  0  0  0  0  0  0  0  0
   57.1210   30.9880   42.6450 C   0  0  0  0  0  0  0  0  0  0  0  0
   56.4180   30.7910   43.8410 C   0  0  0  0  0  0  0  0  0  0  0  0
   55.4020   29.6970   43.9550 C   0  0  0  0  0  0  0  0  0  0  0  0
   55.5510   29.0310   45.2440 N   0  0  0  0  0  0  0  0  0  0  0  0
   56.5750   28.0820   45.5700 C   0  0  0  0  0  0  0  0  0  0  0  0
   57.7790   28.4300   45.4550 O   0  0  0  0  0  0  0  0  0  0  0  0
   56.2720   26.7010   45.9870 C   0  0  0  0  0  0  0  0  0  0  0  0
   57.2170   25.9150   46.6580 C   0  0  0  0  0  0  0  0  0  0  0  0
   56.8750   24.6050   46.9990 C   0  0  0  0  0  0  0  0  0  0  0  0
   57.7000   23.8720   47.6060 O   0  0  0  0  0  0  0  0  0  0  0  0
   55.6530   24.1150   46.6670 N   0  0  0  0  0  0  0  0  0  0  0  0
   54.7540   24.8820   45.9960 C   0  0  0  0  0  0  0  0  0  0  0  0
   53.6290   24.4080   45.6890 O   0  0  0  0  0  0  0  0  0  0  0  0
   55.0690   26.1590   45.6560 N   0  0  0  0  0  0  0  0  0  0  0  0
   56.6310   31.6260   44.8940 N   0  0  0  0  0  0  0  0  0  0  0  0
  1  2  2  0
  2  3  1  0
  3  4  1  0
  4  5  1  0
  5  6  1  0
  6  7  2  0
  7  8  1  0
  8  9  2  0
  9 10  1  0
  9 11  1  0
 11 12  2  0
  2 13  1  0
 13 14  2  0
 14 15  1  0
 15 16  2  0
 16 17  1  0
 17 18  1  0
 18 19  1  0
 19 20  1  0
 20 21  2  0
 20 22  1  0
 22 23  2  0
 23 24  1  0
 24 25  2  0
 24 26  1  0
 26 27  1  0
 27 28  2  0
 27 29  1  0
 17 30  2  0
 12  6  1  0
 30 13  1  0
 29 22  1  0
M  CHG  4   3  -1  19  -1  26  -1  29  -1
M  END
>  <UniqueID>  (1406) 
83

>  <SMILES>  (1406) 
O=C([N-]CCc1ccc(F)cc1)c1cccc(C[N-]C(=O)c2cc(=O)[n-]c(=O)[n-]2)n1

>  <Energy>  (1406) 
45.94193382696681

>  <Genealogy>  (1406) 
O=C([N-]CCc1ccc(F)cc1)c1cccc(C[N-]C(=O)c2cc(=O)[n-]c(=O)[n-]2)n1 (protonated)
O=C([N-]CCc1ccc(F)cc1)c1cccc(C[N-]C(=O)c2cc(=O)[n-]c(=O)[n-]2)n1 (3D coordinates assigned)
O=C([N-]CCc1ccc(F)cc1)c1cccc(C[N-]C(=O)c2cc(=O)[n-]c(=O)[n-]2)n1 (optimized conformer: 45.94193382696681 kcal/mol)

>  <smiles>  (1406) 
O=C(NCCc1ccc(F)cc1)c1cccc(CNC(=O)c2cc(=O)[nH]c(=O)[nH]2)n1

>  <score_type>  (1406) 
oracle

>  <origin>  (1406) 
adg

>  <m_score__min__energy>  (1406) 
-16.510000000000002

>  <m_primary>  (1406) 
energy

$$$$
4:0
     RDKit          3D

 28 30  0  0  0  0  0  0  0  0999 V2000
   59.7430   29.5240   47.3500 C   0  0  0  0  0  0  0  0  0  0  0  0
   59.0050   30.2290   46.4760 C   0  0  0  0  0  0  0  0  0  0  0  0
   58.3810   29.7320   45.3280 C   0  0  0  0  0  0  0  0  0  0  0  0
   58.3980   28.4670   44.8670 C   0  0  0  0  0  0  0  0  0  0  0  0
   57.6080   27.3690   45.4690 C   0  0  0  0  0  0  0  0  0  0  0  0
   56.2140   27.4570   45.6160 C   0  0  0  0  0  0  0  0  0  0  0  0
   55.5230   28.5890   45.1970 O   0  0  0  0  0  0  0  0  0  0  0  0
   55.5260   26.4380   46.1930 N   0  0  0  0  0  0  0  0  0  0  0  0
   56.1660   25.3310   46.6510 C   0  0  0  0  0  0  0  0  0  0  0  0
   55.5100   24.3980   47.1800 O   0  0  0  0  0  0  0  0  0  0  0  0
   57.5160   25.2360   46.5470 N   0  0  0  0  0  0  0  0  0  0  0  0
   58.2490   26.2260   45.9760 C   0  0  0  0  0  0  0  0  0  0  0  0
   59.5010   26.1040   45.9000 O   0  0  0  0  0  0  0  0  0  0  0  0
   57.7700   30.8190   44.7140 C   0  0  0  0  0  0  0  0  0  0  0  0
   58.0250   31.9180   45.5110 C   0  0  0  0  0  0  0  0  0  0  0  0
   57.5620   33.3110   45.2110 C   0  0  0  0  0  0  0  0  0  0  0  0
   58.7800   31.5640   46.5750 N   0  0  0  0  0  0  0  0  0  0  0  0
   59.2320   32.4480   47.6150 C   0  0  0  0  0  0  0  0  0  0  0  0
   60.1280   33.4860   47.3210 C   0  0  0  0  0  0  0  0  0  0  0  0
   60.5700   34.3410   48.3340 C   0  0  0  0  0  0  0  0  0  0  0  0
   60.1190   34.1670   49.6440 C   0  0  0  0  0  0  0  0  0  0  0  0
   59.2150   33.1400   49.9480 C   0  0  0  0  0  0  0  0  0  0  0  0
   58.6700   32.9060   51.6080 S   0  0  0  0  0  0  0  0  0  0  0  0
   58.7080   34.2130   52.3500 O   0  0  0  0  0  0  0  0  0  0  0  0
   59.5950   31.9430   52.2980 O   0  0  0  0  0  0  0  0  0  0  0  0
   57.0580   32.2600   51.6300 N   0  0  0  0  0  0  0  0  0  0  0  0
   57.1010   30.8360   51.9470 C   0  0  0  0  0  0  0  0  0  0  0  0
   58.7750   32.2820   48.9310 C   0  0  0  0  0  0  0  0  0  0  0  0
  1  2  2  0
  2  3  1  0
  3  4  2  3
  4  5  1  0
  5  6  2  0
  6  7  1  0
  6  8  1  0
  8  9  1  0
  9 10  2  0
  9 11  1  0
 11 12  1  0
 12 13  2  0
  3 14  1  0
 14 15  2  0
 15 16  1  0
 15 17  1  0
 17 18  1  0
 18 19  2  0
 19 20  1  0
 20 21  2  0
 21 22  1  0
 22 23  1  0
 23 24  2  0
 23 25  2  0
 23 26  1  0
 26 27  1  0
 22 28  2  0
 17  2  1  0
 28 18  1  0
 12  5  1  0
M  CHG  4   7  -1   8  -1  11  -1  26  -1
M  END
>  <UniqueID>  (1407) 
5

>  <SMILES>  (1407) 
C=c1c(=Cc2c([O-])[n-]c(=O)[n-]c2=O)cc(C)n1-c1cccc(S(=O)(=O)[N-]C)c1

>  <Energy>  (1407) 
86.97202935270776

>  <Genealogy>  (1407) 
C=c1c(=Cc2c([O-])[n-]c(=O)[n-]c2=O)cc(C)n1-c1cccc(S(=O)(=O)[N-]C)c1 (protonated)
C=c1c(=Cc2c([O-])[n-]c(=O)[n-]c2=O)cc(C)n1-c1cccc(S(=O)(=O)[N-]C)c1 (3D coordinates assigned)
C=c1c(=Cc2c([O-])[n-]c(=O)[n-]c2=O)cc(C)n1-c1cccc(S(=O)(=O)[N-]C)c1 (optimized conformer: 86.97202935270776 kcal/mol)

>  <smiles>  (1407) 
C=c1c(=Cc2c(O)[nH]c(=O)[nH]c2=O)cc(C)n1-c1cccc(S(=O)(=O)NC)c1

>  <score_type>  (1407) 
oracle

>  <origin>  (1407) 
adg

>  <m_score__min__energy>  (1407) 
-16.75

>  <m_primary>  (1407) 
energy

$$$$
19:0
     RDKit          3D

 27 30  0  0  0  0  0  0  0  0999 V2000
   60.3910   27.7010   46.6280 C   0  0  0  0  0  0  0  0  0  0  0  0
   59.4220   28.5870   46.3510 C   0  0  0  0  0  0  0  0  0  0  0  0
   58.2560   28.3600   45.6000 C   0  0  0  0  0  0  0  0  0  0  0  0
   57.7040   27.2170   45.1470 C   0  0  0  0  0  0  0  0  0  0  0  0
   57.1820   26.1250   45.9830 C   0  0  0  0  0  0  0  0  0  0  0  0
   57.9280   25.0870   46.3990 N   0  0  0  0  0  0  0  0  0  0  0  0
   57.0300   24.2850   47.0120 C   0  0  0  0  0  0  0  0  0  0  0  0
   57.3540   23.1970   47.5560 O   0  0  0  0  0  0  0  0  0  0  0  0
   55.7560   24.7330   46.9850 N   0  0  0  0  0  0  0  0  0  0  0  0
   55.8670   25.8920   46.3160 C   0  0  0  0  0  0  0  0  0  0  0  0
   54.7860   26.7040   45.9960 O   0  0  0  0  0  0  0  0  0  0  0  0
   57.6920   29.6040   45.3740 C   0  0  0  0  0  0  0  0  0  0  0  0
   58.4730   30.5250   46.0420 C   0  0  0  0  0  0  0  0  0  0  0  0
   58.2060   31.9990   46.0750 C   0  0  0  0  0  0  0  0  0  0  0  0
   59.5220   29.9110   46.6340 N   0  0  0  0  0  0  0  0  0  0  0  0
   60.5590   30.5630   47.3910 C   0  0  0  0  0  0  0  0  0  0  0  0
   60.7250   30.2830   48.7520 C   0  0  0  0  0  0  0  0  0  0  0  0
   61.7350   30.9130   49.4840 C   0  0  0  0  0  0  0  0  0  0  0  0
   62.6030   31.8290   48.8620 C   0  0  0  0  0  0  0  0  0  0  0  0
   63.6670   32.4950   49.6510 C   0  0  0  0  0  0  0  0  0  0  0  0
   63.7420   33.7550   49.6520 O   0  0  0  0  0  0  0  0  0  0  0  0
   64.6060   31.7320   50.4230 N   0  0  0  0  0  0  0  0  0  0  0  0
   65.7250   32.3740   51.1070 C   0  0  0  0  0  0  0  0  0  0  0  0
   66.7030   33.0430   50.1560 C   0  0  0  0  0  0  0  0  0  0  0  0
   67.0700   31.7280   50.8250 C   0  0  0  0  0  0  0  0  0  0  0  0
   62.4230   32.1140   47.4960 C   0  0  0  0  0  0  0  0  0  0  0  0
   61.4110   31.4840   46.7680 C   0  0  0  0  0  0  0  0  0  0  0  0
  1  2  2  0
  2  3  1  0
  3  4  2  3
  4  5  1  0
  5  6  1  0
  6  7  1  0
  7  8  2  0
  7  9  1  0
  9 10  1  0
 10 11  1  0
  3 12  1  0
 12 13  2  0
 13 14  1  0
 13 15  1  0
 15 16  1  0
 16 17  2  0
 17 18  1  0
 18 19  2  0
 19 20  1  0
 20 21  2  0
 20 22  1  0
 22 23  1  0
 23 24  1  0
 24 25  1  0
 19 26  1  0
 26 27  2  0
 15  2  1  0
 27 16  1  0
 10  5  2  0
 25 23  1  0
M  CHG  3   6  -1   9  -1  11  -1
M  END
>  <UniqueID>  (1408) 
18

>  <SMILES>  (1408) 
C=c1c(=Cc2[n-]c(=O)[n-]c2[O-])cc(C)n1-c1ccc(C(=O)NC2CC2)cc1

>  <Energy>  (1408) 
387.75210491297395

>  <Genealogy>  (1408) 
C=c1c(=Cc2[n-]c(=O)[n-]c2[O-])cc(C)n1-c1ccc(C(=O)NC2CC2)cc1 (protonated)
C=c1c(=Cc2[n-]c(=O)[n-]c2[O-])cc(C)n1-c1ccc(C(=O)NC2CC2)cc1 (3D coordinates assigned)
C=c1c(=Cc2[n-]c(=O)[n-]c2[O-])cc(C)n1-c1ccc(C(=O)NC2CC2)cc1 (nonaromatic ring conformer: 387.75210491297395 kcal/mol)

>  <smiles>  (1408) 
C=c1c(=Cc2[nH]c(=O)[nH]c2O)cc(C)n1-c1ccc(C(=O)NC2CC2)cc1

>  <score_type>  (1408) 
oracle

>  <origin>  (1408) 
adg

>  <m_score__min__energy>  (1408) 
-15.27

>  <m_primary>  (1408) 
energy

$$$$
23:0
     RDKit          3D

 27 29  0  0  0  0  0  0  0  0999 V2000
   55.5600   23.7840   46.4700 C   0  0  0  0  0  0  0  0  0  0  0  0
   56.3050   24.7350   47.2220 O   0  0  0  0  0  0  0  0  0  0  0  0
   56.9350   25.8380   46.6350 C   0  0  0  0  0  0  0  0  0  0  0  0
   58.2900   25.9580   46.6630 N   0  0  0  0  0  0  0  0  0  0  0  0
   58.9260   27.0230   46.1110 C   0  0  0  0  0  0  0  0  0  0  0  0
   58.1930   28.0350   45.4890 C   0  0  0  0  0  0  0  0  0  0  0  0
   56.7870   27.9370   45.4220 C   0  0  0  0  0  0  0  0  0  0  0  0
   56.0330   28.8450   44.8600 N   0  0  0  0  0  0  0  0  0  0  0  0
   56.3300   29.7230   43.7620 C   0  0  0  0  0  0  0  0  0  0  0  0
   55.9690   29.4460   42.5860 O   0  0  0  0  0  0  0  0  0  0  0  0
   56.9820   31.0080   44.0360 C   0  0  0  0  0  0  0  0  0  0  0  0
   57.7800   31.7220   43.1600 C   0  0  0  0  0  0  0  0  0  0  0  0
   58.1660   32.8550   43.8430 C   0  0  0  0  0  0  0  0  0  0  0  0
   57.5810   32.7570   45.0910 C   0  0  0  0  0  0  0  0  0  0  0  0
   57.6700   33.7740   46.1810 C   0  0  0  0  0  0  0  0  0  0  0  0
   59.2690   34.5640   46.1480 S   0  0  0  0  0  0  0  0  0  0  0  0
   59.5460   35.0900   44.7670 O   0  0  0  0  0  0  0  0  0  0  0  0
   59.2750   35.7160   47.1140 O   0  0  0  0  0  0  0  0  0  0  0  0
   60.5110   33.4120   46.6100 C   0  0  0  0  0  0  0  0  0  0  0  0
   61.8440   33.8220   46.7550 C   0  0  0  0  0  0  0  0  0  0  0  0
   62.8150   32.8770   47.0920 C   0  0  0  0  0  0  0  0  0  0  0  0
   62.4500   31.5420   47.2780 C   0  0  0  0  0  0  0  0  0  0  0  0
   61.1120   31.1710   47.1210 C   0  0  0  0  0  0  0  0  0  0  0  0
   60.1820   32.1050   46.7900 N   0  0  0  0  0  0  0  0  0  0  0  0
   56.8800   31.6490   45.1780 O   0  0  0  0  0  0  0  0  0  0  0  0
   56.1620   26.8290   46.0190 C   0  0  0  0  0  0  0  0  0  0  0  0
   54.7760   26.7070   45.9980 O   0  0  0  0  0  0  0  0  0  0  0  0
  1  2  1  0
  2  3  1  0
  3  4  1  0
  4  5  1  0
  5  6  2  0
  6  7  1  0
  7  8  2  3
  8  9  1  0
  9 10  2  0
  9 11  1  0
 11 12  2  0
 12 13  1  0
 13 14  2  0
 14 15  1  0
 15 16  1  0
 16 17  2  0
 16 18  2  0
 16 19  1  0
 19 20  2  0
 20 21  1  0
 21 22  2  0
 22 23  1  0
 23 24  2  0
 14 25  1  0
  7 26  1  0
 26 27  1  0
 26  3  2  0
 25 11  1  0
 24 19  1  0
M  CHG  2   4  -1  27  -1
M  END
>  <UniqueID>  (1409) 
22

>  <SMILES>  (1409) 
COc1[n-]ccc(=NC(=O)c2ccc(CS(=O)(=O)c3ccccn3)o2)c1[O-]

>  <Energy>  (1409) 
69.96697302782252

>  <Genealogy>  (1409) 
COc1[n-]ccc(=NC(=O)c2ccc(CS(=O)(=O)c3ccccn3)o2)c1[O-] (protonated)
COc1[n-]ccc(=NC(=O)c2ccc(CS(=O)(=O)c3ccccn3)o2)c1[O-] (3D coordinates assigned)
COc1[n-]ccc(=NC(=O)c2ccc(CS(=O)(=O)c3ccccn3)o2)c1[O-] (optimized conformer: 69.96697302782252 kcal/mol)

>  <smiles>  (1409) 
COc1[nH]ccc(=NC(=O)c2ccc(CS(=O)(=O)c3ccccn3)o2)c1O

>  <score_type>  (1409) 
oracle

>  <origin>  (1409) 
adg

>  <m_score__min__energy>  (1409) 
-14.48

>  <m_primary>  (1409) 
energy

$$$$
34:0
     RDKit          3D

 30 33  0  0  0  0  0  0  0  0999 V2000
   59.0150   28.7910   47.1930 C   0  0  0  0  0  0  0  0  0  0  0  0
   58.4030   29.5450   46.2670 C   0  0  0  0  0  0  0  0  0  0  0  0
   57.5260   29.1170   45.2540 C   0  0  0  0  0  0  0  0  0  0  0  0
   57.1490   27.8820   44.8680 C   0  0  0  0  0  0  0  0  0  0  0  0
   57.1840   26.6690   45.7070 C   0  0  0  0  0  0  0  0  0  0  0  0
   56.0070   26.1350   46.2590 C   0  0  0  0  0  0  0  0  0  0  0  0
   54.7710   26.7140   45.9920 O   0  0  0  0  0  0  0  0  0  0  0  0
   56.0720   25.0440   47.0640 N   0  0  0  0  0  0  0  0  0  0  0  0
   57.2630   24.4640   47.3620 C   0  0  0  0  0  0  0  0  0  0  0  0
   57.2990   23.4510   48.1080 O   0  0  0  0  0  0  0  0  0  0  0  0
   58.4150   24.9790   46.8620 N   0  0  0  0  0  0  0  0  0  0  0  0
   58.4030   26.0680   46.0520 C   0  0  0  0  0  0  0  0  0  0  0  0
   59.4920   26.5260   45.6120 O   0  0  0  0  0  0  0  0  0  0  0  0
   57.0710   30.2650   44.6250 C   0  0  0  0  0  0  0  0  0  0  0  0
   57.6950   31.3320   45.2350 C   0  0  0  0  0  0  0  0  0  0  0  0
   57.5120   32.7660   44.8420 C   0  0  0  0  0  0  0  0  0  0  0  0
   58.5100   30.8990   46.2210 N   0  0  0  0  0  0  0  0  0  0  0  0
   59.2860   31.7440   47.0890 C   0  0  0  0  0  0  0  0  0  0  0  0
   60.4120   32.4190   46.5970 C   0  0  0  0  0  0  0  0  0  0  0  0
   61.1740   33.2270   47.4450 C   0  0  0  0  0  0  0  0  0  0  0  0
   60.8180   33.3770   48.7910 C   0  0  0  0  0  0  0  0  0  0  0  0
   61.6160   34.1850   49.6130 O   0  0  0  0  0  0  0  0  0  0  0  0
   62.9430   33.9150   49.9770 C   0  0  0  0  0  0  0  0  0  0  0  0
   63.7700   33.0730   49.2080 C   0  0  0  0  0  0  0  0  0  0  0  0
   65.0830   32.8160   49.6150 C   0  0  0  0  0  0  0  0  0  0  0  0
   65.5760   33.3840   50.7920 C   0  0  0  0  0  0  0  0  0  0  0  0
   64.7550   34.2040   51.5690 C   0  0  0  0  0  0  0  0  0  0  0  0
   63.4400   34.4630   51.1660 C   0  0  0  0  0  0  0  0  0  0  0  0
   59.7030   32.6780   49.2900 C   0  0  0  0  0  0  0  0  0  0  0  0
   58.9410   31.8710   48.4410 C   0  0  0  0  0  0  0  0  0  0  0  0
  1  2  2  0
  2  3  1  0
  3  4  2  0
  4  5  1  0
  5  6  2  0
  6  7  1  0
  6  8  1  0
  8  9  1  0
  9 10  2  0
  9 11  1  0
 11 12  1  0
 12 13  2  0
  3 14  1  0
 14 15  2  0
 15 16  1  0
 15 17  1  0
 17 18  1  0
 18 19  2  0
 19 20  1  0
 20 21  2  0
 21 22  1  0
 22 23  1  0
 23 24  2  0
 24 25  1  0
 25 26  2  0
 26 27  1  0
 27 28  2  0
 21 29  1  0
 29 30  2  0
 17  2  1  0
 30 18  1  0
 12  5  1  0
 28 23  1  0
M  CHG  3   7  -1   8  -1  11  -1
M  END
>  <UniqueID>  (1410) 
32

>  <SMILES>  (1410) 
C=c1/c(=C\c2c([O-])[n-]c(=O)[n-]c2=O)cc(C)n1-c1ccc(Oc2ccccc2)cc1

>  <Energy>  (1410) 
106.72312720011114

>  <Genealogy>  (1410) 
C=c1c(=Cc2c([O-])[n-]c(=O)[n-]c2=O)cc(C)n1-c1ccc(Oc2ccccc2)cc1 (protonated)
C=c1/c(=C\c2c([O-])[n-]c(=O)[n-]c2=O)cc(C)n1-c1ccc(Oc2ccccc2)cc1 (cis-trans isomerization)
C=c1/c(=C\c2c([O-])[n-]c(=O)[n-]c2=O)cc(C)n1-c1ccc(Oc2ccccc2)cc1 (3D coordinates assigned)
C=c1/c(=C\c2c([O-])[n-]c(=O)[n-]c2=O)cc(C)n1-c1ccc(Oc2ccccc2)cc1 (optimized conformer: 106.72312720011114 kcal/mol)

>  <smiles>  (1410) 
C=c1c(=Cc2c(O)[nH]c(=O)[nH]c2=O)cc(C)n1-c1ccc(Oc2ccccc2)cc1

>  <score_type>  (1410) 
oracle

>  <origin>  (1410) 
adg

>  <m_score__min__energy>  (1410) 
-15.98

>  <m_primary>  (1410) 
energy

$$$$
35:0
     RDKit          3D

 36 39  0  0  0  0  0  0  0  0999 V2000
   59.2350   28.0200   46.9770 C   0  0  0  0  0  0  0  0  0  0  0  0
   58.5930   28.5890   45.9450 C   0  0  0  0  0  0  0  0  0  0  0  0
   57.7950   27.9480   44.9820 C   0  0  0  0  0  0  0  0  0  0  0  0
   57.5870   26.6410   44.7280 C   0  0  0  0  0  0  0  0  0  0  0  0
   57.0290   25.6570   45.6690 C   0  0  0  0  0  0  0  0  0  0  0  0
   57.6250   24.4990   46.0130 N   0  0  0  0  0  0  0  0  0  0  0  0
   56.6900   23.8820   46.7700 C   0  0  0  0  0  0  0  0  0  0  0  0
   56.8840   22.7580   47.3030 O   0  0  0  0  0  0  0  0  0  0  0  0
   55.5310   24.5600   46.9050 N   0  0  0  0  0  0  0  0  0  0  0  0
   55.7570   25.6730   46.1880 C   0  0  0  0  0  0  0  0  0  0  0  0
   54.8190   26.6810   46.0080 O   0  0  0  0  0  0  0  0  0  0  0  0
   57.2040   28.9560   44.2370 C   0  0  0  0  0  0  0  0  0  0  0  0
   57.6890   30.1520   44.7220 C   0  0  0  0  0  0  0  0  0  0  0  0
   57.3340   31.5010   44.1750 C   0  0  0  0  0  0  0  0  0  0  0  0
   58.5420   29.9320   45.7480 N   0  0  0  0  0  0  0  0  0  0  0  0
   59.1760   30.9600   46.5320 C   0  0  0  0  0  0  0  0  0  0  0  0
   58.4350   31.6820   47.4770 C   0  0  0  0  0  0  0  0  0  0  0  0
   59.0540   32.6580   48.2620 C   0  0  0  0  0  0  0  0  0  0  0  0
   60.4280   32.9180   48.1210 C   0  0  0  0  0  0  0  0  0  0  0  0
   61.0860   33.9570   48.9450 C   0  0  0  0  0  0  0  0  0  0  0  0
   60.4190   34.9560   49.3290 O   0  0  0  0  0  0  0  0  0  0  0  0
   62.4650   33.8370   49.3370 N   0  0  0  0  0  0  0  0  0  0  0  0
   63.4950   33.5380   48.3320 C   0  0  0  0  0  0  0  0  0  0  0  0
   64.5310   32.5330   48.8710 C   0  0  0  0  0  0  0  0  0  0  0  0
   64.7310   32.6140   50.4040 C   0  0  0  0  0  0  0  0  0  0  0  0
   66.1460   32.2400   50.7710 C   0  0  0  0  0  0  0  0  0  0  0  0
   66.4580   31.0280   50.9260 O   0  0  0  0  0  0  0  0  0  0  0  0
   67.1170   33.2690   51.0080 N   0  0  0  0  0  0  0  0  0  0  0  0
   68.4760   32.9810   51.4680 C   0  0  0  0  0  0  0  0  0  0  0  0
   69.3610   34.2290   51.3780 C   0  0  0  0  0  0  0  0  0  0  0  0
   68.6600   35.2960   50.7630 O   0  0  0  0  0  0  0  0  0  0  0  0
   68.6160   36.4150   51.6210 C   0  0  0  0  0  0  0  0  0  0  0  0
   64.3460   33.9990   50.9550 C   0  0  0  0  0  0  0  0  0  0  0  0
   62.8620   34.2780   50.6830 C   0  0  0  0  0  0  0  0  0  0  0  0
   61.1660   32.1990   47.1670 C   0  0  0  0  0  0  0  0  0  0  0  0
   60.5460   31.2190   46.3850 C   0  0  0  0  0  0  0  0  0  0  0  0
  1  2  2  0
  2  3  1  0
  3  4  2  3
  4  5  1  0
  5  6  1  0
  6  7  1  0
  7  8  2  0
  7  9  1  0
  9 10  1  0
 10 11  1  0
  3 12  1  0
 12 13  2  0
 13 14  1  0
 13 15  1  0
 15 16  1  0
 16 17  2  0
 17 18  1  0
 18 19  2  0
 19 20  1  0
 20 21  2  0
 20 22  1  0
 22 23  1  0
 23 24  1  0
 24 25  1  0
 25 26  1  0
 26 27  2  0
 26 28  1  0
 28 29  1  0
 29 30  1  0
 30 31  1  0
 31 32  1  0
 25 33  1  0
 33 34  1  0
 19 35  1  0
 35 36  2  0
 15  2  1  0
 36 16  1  0
 10  5  2  0
 34 22  1  0
M  CHG  3   6  -1   9  -1  11  -1
M  END
>  <UniqueID>  (1411) 
33

>  <SMILES>  (1411) 
C=c1c(=Cc2[n-]c(=O)[n-]c2[O-])cc(C)n1-c1ccc(C(=O)N2CCC(C(=O)NCCOC)CC2)cc1

>  <Energy>  (1411) 
145.6401882730548

>  <Genealogy>  (1411) 
C=c1c(=Cc2[n-]c(=O)[n-]c2[O-])cc(C)n1-c1ccc(C(=O)N2CCC(C(=O)NCCOC)CC2)cc1 (protonated)
C=c1c(=Cc2[n-]c(=O)[n-]c2[O-])cc(C)n1-c1ccc(C(=O)N2CCC(C(=O)NCCOC)CC2)cc1 (3D coordinates assigned)
C=c1c(=Cc2[n-]c(=O)[n-]c2[O-])cc(C)n1-c1ccc(C(=O)N2CCC(C(=O)NCCOC)CC2)cc1 (nonaromatic ring conformer: 145.6401882730548 kcal/mol)

>  <smiles>  (1411) 
C=c1c(=Cc2[nH]c(=O)[nH]c2O)cc(C)n1-c1ccc(C(=O)N2CCC(C(=O)NCCOC)CC2)cc1

>  <score_type>  (1411) 
oracle

>  <origin>  (1411) 
adg

>  <m_score__min__energy>  (1411) 
-16.390000000000001

>  <m_primary>  (1411) 
energy

$$$$
47:0
     RDKit          3D

 28 30  0  0  0  0  0  0  0  0999 V2000
   58.1610   27.1070   43.5400 C   0  0  0  0  0  0  0  0  0  0  0  0
   57.5750   27.3410   44.8660 N   0  0  0  0  0  0  0  0  0  0  0  0
   57.1530   28.6530   45.2940 C   0  0  0  0  0  0  0  0  0  0  0  0
   55.9320   28.9640   45.2380 O   0  0  0  0  0  0  0  0  0  0  0  0
   58.1120   29.6560   45.8020 C   0  0  0  0  0  0  0  0  0  0  0  0
   59.3540   29.2620   46.3280 C   0  0  0  0  0  0  0  0  0  0  0  0
   60.2590   30.2240   46.7920 C   0  0  0  0  0  0  0  0  0  0  0  0
   59.9330   31.5840   46.7300 C   0  0  0  0  0  0  0  0  0  0  0  0
   58.7040   31.9850   46.1960 C   0  0  0  0  0  0  0  0  0  0  0  0
   58.3820   33.3380   46.1330 O   0  0  0  0  0  0  0  0  0  0  0  0
   57.7990   31.0270   45.7260 C   0  0  0  0  0  0  0  0  0  0  0  0
   57.4070   26.2180   45.7470 C   0  0  0  0  0  0  0  0  0  0  0  0
   56.1500   25.9130   46.2880 C   0  0  0  0  0  0  0  0  0  0  0  0
   55.0480   26.7110   45.9950 O   0  0  0  0  0  0  0  0  0  0  0  0
   56.0090   24.8370   47.1090 N   0  0  0  0  0  0  0  0  0  0  0  0
   57.0680   24.0460   47.4210 C   0  0  0  0  0  0  0  0  0  0  0  0
   56.8890   23.0240   48.2020 N   0  0  0  0  0  0  0  0  0  0  0  0
   56.6810   21.6560   47.7310 C   0  0  0  0  0  0  0  0  0  0  0  0
   55.4860   21.6030   46.7750 C   0  0  0  0  0  0  0  0  0  0  0  0
   55.8920   21.9760   45.3720 C   0  0  0  0  0  0  0  0  0  0  0  0
   55.2300   23.0160   44.6980 C   0  0  0  0  0  0  0  0  0  0  0  0
   55.5820   23.3390   43.3840 C   0  0  0  0  0  0  0  0  0  0  0  0
   56.5880   22.6220   42.7310 C   0  0  0  0  0  0  0  0  0  0  0  0
   57.2440   21.5790   43.3910 C   0  0  0  0  0  0  0  0  0  0  0  0
   56.8970   21.2540   44.7060 C   0  0  0  0  0  0  0  0  0  0  0  0
   58.2980   24.3300   46.9070 N   0  0  0  0  0  0  0  0  0  0  0  0
   58.4870   25.3910   46.0810 C   0  0  0  0  0  0  0  0  0  0  0  0
   59.6360   25.6170   45.6150 O   0  0  0  0  0  0  0  0  0  0  0  0
  1  2  1  0
  2  3  1  0
  3  4  2  0
  3  5  1  0
  5  6  2  0
  6  7  1  0
  7  8  2  0
  8  9  1  0
  9 10  1  0
  9 11  2  0
  2 12  1  0
 12 13  2  0
 13 14  1  0
 13 15  1  0
 15 16  1  0
 16 17  2  3
 17 18  1  0
 18 19  1  0
 19 20  1  0
 20 21  2  0
 21 22  1  0
 22 23  2  0
 23 24  1  0
 24 25  2  0
 16 26  1  0
 26 27  1  0
 27 28  2  0
 11  5  1  0
 27 12  1  0
 25 20  1  0
M  CHG  3  10  -1  15  -1  26  -1
M  END
>  <UniqueID>  (1412) 
44

>  <SMILES>  (1412) 
CN(C(=O)c1cccc([O-])c1)c1c(O)[n-]c(=NCCc2ccccc2)[n-]c1=O

>  <Energy>  (1412) 
57.39206287745948

>  <Genealogy>  (1412) 
CN(C(=O)c1cccc([O-])c1)c1c(O)[n-]c(=NCCc2ccccc2)[n-]c1=O (protonated)
CN(C(=O)c1cccc([O-])c1)c1c(O)[n-]c(=NCCc2ccccc2)[n-]c1=O (3D coordinates assigned)
CN(C(=O)c1cccc([O-])c1)c1c(O)[n-]c(=NCCc2ccccc2)[n-]c1=O (optimized conformer: 57.39206287745948 kcal/mol)

>  <smiles>  (1412) 
CN(C(=O)c1cccc(O)c1)c1c(O)[nH]c(=NCCc2ccccc2)[nH]c1=O

>  <score_type>  (1412) 
oracle

>  <origin>  (1412) 
adg

>  <m_score__min__energy>  (1412) 
-14.15

>  <m_primary>  (1412) 
energy

$$$$
49:0
     RDKit          3D

 24 26  0  0  0  0  0  0  0  0999 V2000
   55.0670   31.5810   52.0160 C   0  0  0  0  0  0  0  0  0  0  0  0
   54.7170   30.3610   52.4520 C   0  0  0  0  0  0  0  0  0  0  0  0
   53.4170   29.9000   52.7200 C   0  0  0  0  0  0  0  0  0  0  0  0
   52.2130   30.4210   52.4130 C   0  0  0  0  0  0  0  0  0  0  0  0
   51.7820   30.8470   51.0720 C   0  0  0  0  0  0  0  0  0  0  0  0
   51.7270   30.0460   49.9910 N   0  0  0  0  0  0  0  0  0  0  0  0
   51.1500   30.8270   49.0520 C   0  0  0  0  0  0  0  0  0  0  0  0
   50.9380   30.4290   47.8780 O   0  0  0  0  0  0  0  0  0  0  0  0
   50.8070   32.0620   49.4750 N   0  0  0  0  0  0  0  0  0  0  0  0
   51.2010   32.0530   50.7590 C   0  0  0  0  0  0  0  0  0  0  0  0
   51.0290   33.1210   51.6290 O   0  0  0  0  0  0  0  0  0  0  0  0
   53.5630   28.7010   53.3990 C   0  0  0  0  0  0  0  0  0  0  0  0
   54.9160   28.4340   53.4530 C   0  0  0  0  0  0  0  0  0  0  0  0
   55.5160   27.2160   54.0860 C   0  0  0  0  0  0  0  0  0  0  0  0
   55.6160   29.4380   52.8800 N   0  0  0  0  0  0  0  0  0  0  0  0
   57.0510   29.5170   52.7880 C   0  0  0  0  0  0  0  0  0  0  0  0
   57.6630   29.7960   51.5580 C   0  0  0  0  0  0  0  0  0  0  0  0
   59.0560   29.8680   51.4640 C   0  0  0  0  0  0  0  0  0  0  0  0
   59.8600   29.6610   52.5990 C   0  0  0  0  0  0  0  0  0  0  0  0
   61.3340   29.7360   52.5040 C   0  0  0  0  0  0  0  0  0  0  0  0
   62.0310   29.9800   53.5250 O   0  0  0  0  0  0  0  0  0  0  0  0
   61.9720   29.5410   51.2840 O   0  0  0  0  0  0  0  0  0  0  0  0
   59.2410   29.3820   53.8300 C   0  0  0  0  0  0  0  0  0  0  0  0
   57.8480   29.3110   53.9220 C   0  0  0  0  0  0  0  0  0  0  0  0
  1  2  2  0
  2  3  1  0
  3  4  2  0
  4  5  1  0
  5  6  1  0
  6  7  1  0
  7  8  2  0
  7  9  1  0
  9 10  1  0
 10 11  1  0
  3 12  1  0
 12 13  2  0
 13 14  1  0
 13 15  1  0
 15 16  1  0
 16 17  2  0
 17 18  1  0
 18 19  2  0
 19 20  1  0
 20 21  2  0
 20 22  1  0
 19 23  1  0
 23 24  2  0
 15  2  1  0
 24 16  1  0
 10  5  2  0
M  CHG  4   6  -1   9  -1  11  -1  22  -1
M  END
>  <UniqueID>  (1413) 
45

>  <SMILES>  (1413) 
C=c1/c(=C\c2[n-]c(=O)[n-]c2[O-])cc(C)n1-c1ccc(C(=O)[O-])cc1

>  <Energy>  (1413) 
112.74085720124779

>  <Genealogy>  (1413) 
C=c1c(=Cc2[n-]c(=O)[n-]c2[O-])cc(C)n1-c1ccc(C(=O)[O-])cc1 (protonated)
C=c1/c(=C\c2[n-]c(=O)[n-]c2[O-])cc(C)n1-c1ccc(C(=O)[O-])cc1 (cis-trans isomerization)
C=c1/c(=C\c2[n-]c(=O)[n-]c2[O-])cc(C)n1-c1ccc(C(=O)[O-])cc1 (3D coordinates assigned)
C=c1/c(=C\c2[n-]c(=O)[n-]c2[O-])cc(C)n1-c1ccc(C(=O)[O-])cc1 (optimized conformer: 112.74085720124779 kcal/mol)

>  <smiles>  (1413) 
C=c1c(=Cc2[nH]c(=O)[nH]c2O)cc(C)n1-c1ccc(C(=O)O)cc1

>  <score_type>  (1413) 
oracle

>  <origin>  (1413) 
adg

>  <m_score__min__energy>  (1413) 
-15.73

>  <m_primary>  (1413) 
energy

$$$$
55:0
     RDKit          3D

 28 30  0  0  0  0  0  0  0  0999 V2000
   58.2650   29.9800   44.2090 C   0  0  0  0  0  0  0  0  0  0  0  0
   58.2910   29.6970   45.5210 C   0  0  0  0  0  0  0  0  0  0  0  0
   58.2520   28.4280   46.1210 C   0  0  0  0  0  0  0  0  0  0  0  0
   58.0020   27.2100   45.6010 C   0  0  0  0  0  0  0  0  0  0  0  0
   57.3790   26.0850   46.3160 C   0  0  0  0  0  0  0  0  0  0  0  0
   58.0470   25.0240   46.8060 N   0  0  0  0  0  0  0  0  0  0  0  0
   57.0610   24.2080   47.2390 C   0  0  0  0  0  0  0  0  0  0  0  0
   57.2890   23.0990   47.7850 O   0  0  0  0  0  0  0  0  0  0  0  0
   55.8090   24.6720   47.0290 N   0  0  0  0  0  0  0  0  0  0  0  0
   56.0300   25.8540   46.4320 C   0  0  0  0  0  0  0  0  0  0  0  0
   55.0210   26.7010   45.9950 O   0  0  0  0  0  0  0  0  0  0  0  0
   58.5330   28.6260   47.4630 C   0  0  0  0  0  0  0  0  0  0  0  0
   58.6620   29.9870   47.6500 C   0  0  0  0  0  0  0  0  0  0  0  0
   59.0270   30.6440   48.9450 C   0  0  0  0  0  0  0  0  0  0  0  0
   58.5110   30.6370   46.4770 N   0  0  0  0  0  0  0  0  0  0  0  0
   58.7310   32.0430   46.2780 C   0  0  0  0  0  0  0  0  0  0  0  0
   57.6490   32.8790   45.9680 C   0  0  0  0  0  0  0  0  0  0  0  0
   57.8510   34.2480   45.7820 C   0  0  0  0  0  0  0  0  0  0  0  0
   59.1330   34.7890   45.9040 C   0  0  0  0  0  0  0  0  0  0  0  0
   60.2170   33.9650   46.2200 C   0  0  0  0  0  0  0  0  0  0  0  0
   60.0200   32.5870   46.4310 C   0  0  0  0  0  0  0  0  0  0  0  0
   61.1080   31.7060   46.7430 N   0  0  0  0  0  0  0  0  0  0  0  0
   61.9550   31.7480   47.8980 C   0  0  0  0  0  0  0  0  0  0  0  0
   61.9800   30.7770   48.7020 O   0  0  0  0  0  0  0  0  0  0  0  0
   62.9070   32.9180   48.0720 C   0  0  0  0  0  0  0  0  0  0  0  0
   63.3860   33.4520   46.7040 C   0  0  0  0  0  0  0  0  0  0  0  0
   64.1350   32.4640   48.8860 C   0  0  0  0  0  0  0  0  0  0  0  0
   62.1780   34.0430   48.8290 C   0  0  0  0  0  0  0  0  0  0  0  0
  1  2  2  0
  2  3  1  0
  3  4  2  3
  4  5  1  0
  5  6  1  0
  6  7  1  0
  7  8  2  0
  7  9  1  0
  9 10  1  0
 10 11  1  0
  3 12  1  0
 12 13  2  0
 13 14  1  0
 13 15  1  0
 15 16  1  0
 16 17  2  0
 17 18  1  0
 18 19  2  0
 19 20  1  0
 20 21  2  0
 21 22  1  0
 22 23  1  0
 23 24  2  0
 23 25  1  0
 25 26  1  0
 25 27  1  0
 25 28  1  0
 15  2  1  0
 21 16  1  0
 10  5  2  0
M  CHG  4   6  -1   9  -1  11  -1  22  -1
M  END
>  <UniqueID>  (1414) 
50

>  <SMILES>  (1414) 
C=c1c(=Cc2[n-]c(=O)[n-]c2[O-])cc(C)n1-c1ccccc1[N-]C(=O)C(C)(C)C

>  <Energy>  (1414) 
123.06297474083563

>  <Genealogy>  (1414) 
C=c1c(=Cc2[n-]c(=O)[n-]c2[O-])cc(C)n1-c1ccccc1[N-]C(=O)C(C)(C)C (protonated)
C=c1c(=Cc2[n-]c(=O)[n-]c2[O-])cc(C)n1-c1ccccc1[N-]C(=O)C(C)(C)C (3D coordinates assigned)
C=c1c(=Cc2[n-]c(=O)[n-]c2[O-])cc(C)n1-c1ccccc1[N-]C(=O)C(C)(C)C (optimized conformer: 123.06297474083563 kcal/mol)

>  <smiles>  (1414) 
C=c1c(=Cc2[nH]c(=O)[nH]c2O)cc(C)n1-c1ccccc1NC(=O)C(C)(C)C

>  <score_type>  (1414) 
oracle

>  <origin>  (1414) 
adg

>  <m_score__min__energy>  (1414) 
-17.07

>  <m_primary>  (1414) 
energy

$$$$
60:0
     RDKit          3D

 23 25  0  0  0  0  0  0  0  0999 V2000
   60.2250   28.8730   45.7150 O   0  0  0  0  0  0  0  0  0  0  0  0
   58.9950   28.8320   45.4390 C   0  0  0  0  0  0  0  0  0  0  0  0
   58.4660   27.7280   44.5770 C   0  0  0  0  0  0  0  0  0  0  0  0
   57.5250   26.8700   45.3660 C   0  0  0  0  0  0  0  0  0  0  0  0
   57.8820   25.3390   45.9720 S   0  0  0  0  0  0  0  0  0  0  0  0
   56.3250   25.1250   46.5700 C   0  0  0  0  0  0  0  0  0  0  0  0
   55.9360   24.0960   47.1800 O   0  0  0  0  0  0  0  0  0  0  0  0
   55.5220   26.1800   46.3210 N   0  0  0  0  0  0  0  0  0  0  0  0
   56.1890   27.1520   45.6460 C   0  0  0  0  0  0  0  0  0  0  0  0
   55.5680   28.3320   45.2610 O   0  0  0  0  0  0  0  0  0  0  0  0
   58.1010   29.8130   45.9790 N   0  0  0  0  0  0  0  0  0  0  0  0
   58.5460   30.7800   46.9820 C   0  0  0  0  0  0  0  0  0  0  0  0
   58.8030   32.1260   46.3480 C   0  0  0  0  0  0  0  0  0  0  0  0
   59.6260   33.0450   47.0220 C   0  0  0  0  0  0  0  0  0  0  0  0
   59.8530   34.3170   46.4940 C   0  0  0  0  0  0  0  0  0  0  0  0
   59.2630   34.6870   45.2850 C   0  0  0  0  0  0  0  0  0  0  0  0
   58.4570   33.7810   44.5940 C   0  0  0  0  0  0  0  0  0  0  0  0
   58.2360   32.4910   45.1000 C   0  0  0  0  0  0  0  0  0  0  0  0
   57.4260   31.5800   44.3430 N   0  0  0  0  0  0  0  0  0  0  0  0
   57.7030   31.0930   43.1180 C   0  0  0  0  0  0  0  0  0  0  0  0
   56.6420   30.3160   42.7090 C   0  0  0  0  0  0  0  0  0  0  0  0
   55.7330   30.3900   43.7460 C   0  0  0  0  0  0  0  0  0  0  0  0
   56.2250   31.1750   44.7260 N   0  0  0  0  0  0  0  0  0  0  0  0
  1  2  2  0
  2  3  1  0
  3  4  1  0
  4  5  1  0
  5  6  1  0
  6  7  2  0
  6  8  1  0
  8  9  1  0
  9 10  1  0
  2 11  1  0
 11 12  1  0
 12 13  1  0
 13 14  2  0
 14 15  1  0
 15 16  2  0
 16 17  1  0
 17 18  2  0
 18 19  1  0
 19 20  1  0
 20 21  2  0
 21 22  1  0
 22 23  2  0
  9  4  2  0
 18 13  1  0
 23 19  1  0
M  CHG  2   8  -1  10  -1
M  END
>  <UniqueID>  (1415) 
54

>  <SMILES>  (1415) 
O=C(Cc1sc(=O)[n-]c1[O-])NCc1ccccc1-n1cccn1

>  <Energy>  (1415) 
97.54573111119501

>  <Genealogy>  (1415) 
O=C(Cc1sc(=O)[n-]c1[O-])NCc1ccccc1-n1cccn1 (protonated)
O=C(Cc1sc(=O)[n-]c1[O-])NCc1ccccc1-n1cccn1 (3D coordinates assigned)
O=C(Cc1sc(=O)[n-]c1[O-])NCc1ccccc1-n1cccn1 (optimized conformer: 97.54573111119501 kcal/mol)

>  <smiles>  (1415) 
O=C(Cc1sc(=O)[nH]c1O)NCc1ccccc1-n1cccn1

>  <score_type>  (1415) 
oracle

>  <origin>  (1415) 
adg

>  <m_score__min__energy>  (1415) 
-14.49

>  <m_primary>  (1415) 
energy

$$$$
62:0
     RDKit          3D

 28 30  0  0  0  0  0  0  0  0999 V2000
   57.0640   28.6610   45.1200 C   0  0  0  0  0  0  0  0  0  0  0  0
   57.8570   27.8400   45.8270 C   0  0  0  0  0  0  0  0  0  0  0  0
   57.9840   26.4580   45.6560 C   0  0  0  0  0  0  0  0  0  0  0  0
   57.3940   25.6920   44.7190 C   0  0  0  0  0  0  0  0  0  0  0  0
   56.1950   24.8630   44.9810 C   0  0  0  0  0  0  0  0  0  0  0  0
   55.0580   25.3890   45.6180 C   0  0  0  0  0  0  0  0  0  0  0  0
   55.0240   26.7170   46.0310 O   0  0  0  0  0  0  0  0  0  0  0  0
   53.9700   24.6030   45.8200 N   0  0  0  0  0  0  0  0  0  0  0  0
   53.9490   23.3130   45.3990 C   0  0  0  0  0  0  0  0  0  0  0  0
   52.9300   22.6030   45.6010 O   0  0  0  0  0  0  0  0  0  0  0  0
   55.0230   22.7910   44.7550 N   0  0  0  0  0  0  0  0  0  0  0  0
   56.1360   23.5340   44.5300 C   0  0  0  0  0  0  0  0  0  0  0  0
   57.1130   23.0160   43.9250 O   0  0  0  0  0  0  0  0  0  0  0  0
   58.8760   26.0240   46.6280 C   0  0  0  0  0  0  0  0  0  0  0  0
   59.2560   27.1420   47.3430 C   0  0  0  0  0  0  0  0  0  0  0  0
   60.2140   27.1300   48.4950 C   0  0  0  0  0  0  0  0  0  0  0  0
   58.6350   28.2430   46.8630 N   0  0  0  0  0  0  0  0  0  0  0  0
   58.8000   29.5830   47.3600 C   0  0  0  0  0  0  0  0  0  0  0  0
   58.9030   29.8170   48.7390 C   0  0  0  0  0  0  0  0  0  0  0  0
   59.0360   31.1210   49.2220 C   0  0  0  0  0  0  0  0  0  0  0  0
   59.0740   32.1980   48.3330 C   0  0  0  0  0  0  0  0  0  0  0  0
   59.0010   31.9750   46.9480 C   0  0  0  0  0  0  0  0  0  0  0  0
   58.9870   33.1010   45.9910 C   0  0  0  0  0  0  0  0  0  0  0  0
   58.0560   33.3060   45.0440 C   0  0  0  0  0  0  0  0  0  0  0  0
   57.3940   32.2560   44.2460 C   0  0  0  0  0  0  0  0  0  0  0  0
   57.7570   31.9960   43.0680 O   0  0  0  0  0  0  0  0  0  0  0  0
   56.3950   31.4900   44.8310 O   0  0  0  0  0  0  0  0  0  0  0  0
   58.8370   30.6660   46.4700 C   0  0  0  0  0  0  0  0  0  0  0  0
  1  2  2  0
  2  3  1  0
  3  4  2  3
  4  5  1  0
  5  6  2  0
  6  7  1  0
  6  8  1  0
  8  9  1  0
  9 10  2  0
  9 11  1  0
 11 12  1  0
 12 13  2  0
  3 14  1  0
 14 15  2  0
 15 16  1  0
 15 17  1  0
 17 18  1  0
 18 19  2  0
 19 20  1  0
 20 21  2  0
 21 22  1  0
 22 23  1  0
 23 24  2  3
 24 25  1  0
 25 26  2  0
 25 27  1  0
 22 28  2  0
 17  2  1  0
 28 18  1  0
 12  5  1  0
M  CHG  4   7  -1   8  -1  11  -1  27  -1
M  END
>  <UniqueID>  (1416) 
56

>  <SMILES>  (1416) 
C=c1c(=Cc2c([O-])[n-]c(=O)[n-]c2=O)cc(C)n1-c1cccc(C=CC(=O)[O-])c1

>  <Energy>  (1416) 
96.08824146575795

>  <Genealogy>  (1416) 
C=c1c(=Cc2c([O-])[n-]c(=O)[n-]c2=O)cc(C)n1-c1cccc(C=CC(=O)[O-])c1 (protonated)
C=c1c(=Cc2c([O-])[n-]c(=O)[n-]c2=O)cc(C)n1-c1cccc(C=CC(=O)[O-])c1 (3D coordinates assigned)
C=c1c(=Cc2c([O-])[n-]c(=O)[n-]c2=O)cc(C)n1-c1cccc(C=CC(=O)[O-])c1 (optimized conformer: 96.08824146575795 kcal/mol)

>  <smiles>  (1416) 
C=c1c(=Cc2c(O)[nH]c(=O)[nH]c2=O)cc(C)n1-c1cccc(C=CC(=O)O)c1

>  <score_type>  (1416) 
oracle

>  <origin>  (1416) 
adg

>  <m_score__min__energy>  (1416) 
-17.09

>  <m_primary>  (1416) 
energy

$$$$
77:0
     RDKit          3D

 32 35  0  0  0  0  0  0  0  0999 V2000
   57.0150   31.2770   44.9220 C   0  0  0  0  0  0  0  0  0  0  0  0
   56.5250   30.0150   44.7980 N   0  0  0  0  0  0  0  0  0  0  0  0
   57.0520   28.9580   45.4730 C   0  0  0  0  0  0  0  0  0  0  0  0
   56.5230   27.7800   45.2890 N   0  0  0  0  0  0  0  0  0  0  0  0
   57.2080   26.5210   45.2130 C   0  0  0  0  0  0  0  0  0  0  0  0
   58.4450   26.5240   44.9790 O   0  0  0  0  0  0  0  0  0  0  0  0
   56.4790   25.2280   45.2990 C   0  0  0  0  0  0  0  0  0  0  0  0
   57.1490   24.0240   45.0110 C   0  0  0  0  0  0  0  0  0  0  0  0
   56.4790   22.8010   45.0910 C   0  0  0  0  0  0  0  0  0  0  0  0
   55.1340   22.7630   45.4650 C   0  0  0  0  0  0  0  0  0  0  0  0
   54.4570   23.9480   45.7580 C   0  0  0  0  0  0  0  0  0  0  0  0
   55.1180   25.1780   45.6760 C   0  0  0  0  0  0  0  0  0  0  0  0
   54.4110   26.3420   45.9560 O   0  0  0  0  0  0  0  0  0  0  0  0
   58.1610   29.1700   46.3160 C   0  0  0  0  0  0  0  0  0  0  0  0
   58.6780   30.4590   46.4610 C   0  0  0  0  0  0  0  0  0  0  0  0
   58.1110   31.5310   45.7590 C   0  0  0  0  0  0  0  0  0  0  0  0
   58.6470   32.9060   45.9040 C   0  0  0  0  0  0  0  0  0  0  0  0
   58.8030   33.7060   44.7590 C   0  0  0  0  0  0  0  0  0  0  0  0
   59.3020   35.0070   44.8630 C   0  0  0  0  0  0  0  0  0  0  0  0
   59.6630   35.5170   46.1090 C   0  0  0  0  0  0  0  0  0  0  0  0
   59.5240   34.7320   47.2560 C   0  0  0  0  0  0  0  0  0  0  0  0
   59.0010   33.4290   47.1700 C   0  0  0  0  0  0  0  0  0  0  0  0
   58.9190   32.5860   48.3310 N   0  0  0  0  0  0  0  0  0  0  0  0
   59.6630   32.7330   49.5470 C   0  0  0  0  0  0  0  0  0  0  0  0
   59.1730   32.3730   50.6500 O   0  0  0  0  0  0  0  0  0  0  0  0
   61.0740   33.2320   49.4900 C   0  0  0  0  0  0  0  0  0  0  0  0
   61.9760   32.1860   48.9580 N   0  0  0  0  0  0  0  0  0  0  0  0
   62.0050   32.1590   47.4810 C   0  0  0  0  0  0  0  0  0  0  0  0
   62.7890   33.3550   46.8900 C   0  0  0  0  0  0  0  0  0  0  0  0
   63.5530   34.0500   47.8590 O   0  0  0  0  0  0  0  0  0  0  0  0
   64.2880   33.1320   48.6370 C   0  0  0  0  0  0  0  0  0  0  0  0
   63.3460   32.2830   49.5150 C   0  0  0  0  0  0  0  0  0  0  0  0
  1  2  1  0
  2  3  1  0
  3  4  2  0
  4  5  1  0
  5  6  2  0
  5  7  1  0
  7  8  2  0
  8  9  1  0
  9 10  2  0
 10 11  1  0
 11 12  2  0
 12 13  1  0
  3 14  1  0
 14 15  2  0
 15 16  1  0
 16 17  1  0
 17 18  2  0
 18 19  1  0
 19 20  2  0
 20 21  1  0
 21 22  2  0
 22 23  1  0
 23 24  1  0
 24 25  2  0
 24 26  1  0
 26 27  1  0
 27 28  1  0
 28 29  1  0
 29 30  1  0
 30 31  1  0
 31 32  1  0
 16  1  2  0
 22 17  1  0
 32 27  1  0
 12  7  1  0
M  CHG  3   2  -1  13  -1  23  -1
M  END
>  <UniqueID>  (1417) 
69

>  <SMILES>  (1417) 
O=C(CN1CCOCC1)[N-]c1ccccc1-c1cc/c(=N\C(=O)c2ccccc2[O-])[n-]c1

>  <Energy>  (1417) 
90.81283675720094

>  <Genealogy>  (1417) 
O=C(CN1CCOCC1)[N-]c1ccccc1-c1ccc(=NC(=O)c2ccccc2[O-])[n-]c1 (protonated)
O=C(CN1CCOCC1)[N-]c1ccccc1-c1cc/c(=N\C(=O)c2ccccc2[O-])[n-]c1 (cis-trans isomerization)
O=C(CN1CCOCC1)[N-]c1ccccc1-c1cc/c(=N\C(=O)c2ccccc2[O-])[n-]c1 (3D coordinates assigned)
O=C(CN1CCOCC1)[N-]c1ccccc1-c1cc/c(=N\C(=O)c2ccccc2[O-])[n-]c1 (nonaromatic ring conformer: 90.81283675720094 kcal/mol)

>  <smiles>  (1417) 
O=C(CN1CCOCC1)Nc1ccccc1-c1ccc(=NC(=O)c2ccccc2O)[nH]c1

>  <score_type>  (1417) 
oracle

>  <origin>  (1417) 
adg

>  <m_score__min__energy>  (1417) 
-15.390000000000001

>  <m_primary>  (1417) 
energy

$$$$
4:0
     RDKit          3D

 31 34  0  0  0  0  0  0  0  0999 V2000
   55.5280   28.4890   45.0810 O   0  0  0  0  0  0  0  0  0  0  0  0
   55.9340   27.2770   45.6330 C   0  0  0  0  0  0  0  0  0  0  0  0
   55.0800   26.3080   45.9970 N   0  0  0  0  0  0  0  0  0  0  0  0
   55.9030   25.3250   46.4210 C   0  0  0  0  0  0  0  0  0  0  0  0
   55.4760   24.2210   46.8460 O   0  0  0  0  0  0  0  0  0  0  0  0
   57.2200   25.6160   46.3430 N   0  0  0  0  0  0  0  0  0  0  0  0
   57.2330   26.8720   45.8670 C   0  0  0  0  0  0  0  0  0  0  0  0
   58.4660   27.5920   45.5170 C   0  0  0  0  0  0  0  0  0  0  0  0
   58.6090   28.9310   45.4650 C   0  0  0  0  0  0  0  0  0  0  0  0
   58.1770   29.6870   44.3870 C   0  0  0  0  0  0  0  0  0  0  0  0
   58.4270   31.0080   44.6950 C   0  0  0  0  0  0  0  0  0  0  0  0
   58.1020   32.1690   43.8060 C   0  0  0  0  0  0  0  0  0  0  0  0
   59.0050   31.1040   45.9120 N   0  0  0  0  0  0  0  0  0  0  0  0
   59.4690   32.3220   46.5180 C   0  0  0  0  0  0  0  0  0  0  0  0
   60.8390   32.5120   46.7430 C   0  0  0  0  0  0  0  0  0  0  0  0
   61.3090   33.6910   47.3460 C   0  0  0  0  0  0  0  0  0  0  0  0
   62.7540   33.8750   47.6030 C   0  0  0  0  0  0  0  0  0  0  0  0
   63.5120   34.2150   46.6520 O   0  0  0  0  0  0  0  0  0  0  0  0
   63.3150   33.6540   48.9100 N   0  0  0  0  0  0  0  0  0  0  0  0
   64.6390   33.0240   49.0170 C   0  0  0  0  0  0  0  0  0  0  0  0
   65.0460   32.7980   50.4810 C   0  0  0  0  0  0  0  0  0  0  0  0
   63.8620   32.2970   51.3300 C   0  0  0  0  0  0  0  0  0  0  0  0
   63.5280   30.9740   50.9820 O   0  0  0  0  0  0  0  0  0  0  0  0
   62.6230   33.2290   51.2510 C   0  0  0  0  0  0  0  0  0  0  0  0
   62.6910   34.2470   50.1010 C   0  0  0  0  0  0  0  0  0  0  0  0
   60.3910   34.6990   47.6810 C   0  0  0  0  0  0  0  0  0  0  0  0
   59.0240   34.5170   47.4490 C   0  0  0  0  0  0  0  0  0  0  0  0
   58.5610   33.3300   46.8740 C   0  0  0  0  0  0  0  0  0  0  0  0
   57.2300   33.1560   46.6760 F   0  0  0  0  0  0  0  0  0  0  0  0
   59.1560   29.8410   46.3880 C   0  0  0  0  0  0  0  0  0  0  0  0
   59.8040   29.5570   47.5280 C   0  0  0  0  0  0  0  0  0  0  0  0
  1  2  1  0
  2  3  1  0
  3  4  1  0
  4  5  2  0
  4  6  1  0
  6  7  1  0
  7  8  1  0
  8  9  2  0
  9 10  1  0
 10 11  2  0
 11 12  1  0
 11 13  1  0
 13 14  1  0
 14 15  2  0
 15 16  1  0
 16 17  1  0
 17 18  2  0
 17 19  1  0
 19 20  1  0
 20 21  1  0
 21 22  1  0
 22 23  1  0
 22 24  1  0
 24 25  1  0
 16 26  2  0
 26 27  1  0
 27 28  2  0
 28 29  1  0
 13 30  1  0
 30 31  2  0
  7  2  2  0
 30  9  1  0
 28 14  1  0
 25 19  1  0
M  CHG  2   3  -1   6  -1
M  END
>  <UniqueID>  (1418) 
5

>  <SMILES>  (1418) 
C=c1/c(=C\c2[n-]c(=O)[n-]c2O)cc(C)n1-c1cc(C(=O)N2CCC(O)CC2)ccc1F

>  <Energy>  (1418) 
136.85191013478095

>  <Genealogy>  (1418) 
C=c1c(=Cc2[n-]c(=O)[n-]c2O)cc(C)n1-c1cc(C(=O)N2CCC(O)CC2)ccc1F (protonated)
C=c1/c(=C\c2[n-]c(=O)[n-]c2O)cc(C)n1-c1cc(C(=O)N2CCC(O)CC2)ccc1F (cis-trans isomerization)
C=c1/c(=C\c2[n-]c(=O)[n-]c2O)cc(C)n1-c1cc(C(=O)N2CCC(O)CC2)ccc1F (3D coordinates assigned)
C=c1/c(=C\c2[n-]c(=O)[n-]c2O)cc(C)n1-c1cc(C(=O)N2CCC(O)CC2)ccc1F (nonaromatic ring conformer: 136.85191013478095 kcal/mol)

>  <smiles>  (1418) 
C=c1c(=Cc2[nH]c(=O)[nH]c2O)cc(C)n1-c1cc(C(=O)N2CCC(O)CC2)ccc1F

>  <score_type>  (1418) 
oracle

>  <origin>  (1418) 
adg

>  <m_score__min__energy>  (1418) 
-14.43

>  <m_primary>  (1418) 
energy

$$$$
6:0
     RDKit          3D

 32 36  0  0  0  0  0  0  0  0999 V2000
   55.0280   26.7160   46.0520 O   0  0  0  0  0  0  0  0  0  0  0  0
   55.3380   25.4420   45.5880 C   0  0  0  0  0  0  0  0  0  0  0  0
   54.4960   24.3970   45.6580 N   0  0  0  0  0  0  0  0  0  0  0  0
   55.2400   23.3830   45.1690 C   0  0  0  0  0  0  0  0  0  0  0  0
   54.8020   22.2070   45.0720 O   0  0  0  0  0  0  0  0  0  0  0  0
   56.4930   23.7250   44.8010 N   0  0  0  0  0  0  0  0  0  0  0  0
   56.5420   25.0460   45.0490 C   0  0  0  0  0  0  0  0  0  0  0  0
   57.7570   25.8550   44.8640 C   0  0  0  0  0  0  0  0  0  0  0  0
   58.5360   26.2610   45.8740 C   0  0  0  0  0  0  0  0  0  0  0  0
   59.8220   25.7240   46.3560 C   0  0  0  0  0  0  0  0  0  0  0  0
   60.2200   26.4280   47.3760 N   0  0  0  0  0  0  0  0  0  0  0  0
   59.2280   27.3870   47.6260 N   0  0  0  0  0  0  0  0  0  0  0  0
   59.3630   28.6840   47.9710 C   0  0  0  0  0  0  0  0  0  0  0  0
   60.2850   29.1730   48.7480 N   0  0  0  0  0  0  0  0  0  0  0  0
   61.0520   30.3980   48.5200 C   0  0  0  0  0  0  0  0  0  0  0  0
   60.8970   30.8820   47.0740 C   0  0  0  0  0  0  0  0  0  0  0  0
   60.2290   32.2320   47.0160 C   0  0  0  0  0  0  0  0  0  0  0  0
   58.9090   32.3900   47.4710 C   0  0  0  0  0  0  0  0  0  0  0  0
   58.2790   33.6360   47.3880 C   0  0  0  0  0  0  0  0  0  0  0  0
   58.9580   34.7290   46.8430 C   0  0  0  0  0  0  0  0  0  0  0  0
   60.2680   34.5780   46.3780 C   0  0  0  0  0  0  0  0  0  0  0  0
   60.9010   33.3350   46.4590 C   0  0  0  0  0  0  0  0  0  0  0  0
   58.4370   29.4630   47.3580 N   0  0  0  0  0  0  0  0  0  0  0  0
   57.7700   28.5600   46.5930 C   0  0  0  0  0  0  0  0  0  0  0  0
   56.9060   28.8690   45.6700 N   0  0  0  0  0  0  0  0  0  0  0  0
   57.0890   29.8210   44.6100 C   0  0  0  0  0  0  0  0  0  0  0  0
   56.4980   29.5580   43.3650 C   0  0  0  0  0  0  0  0  0  0  0  0
   56.6270   30.4700   42.3130 C   0  0  0  0  0  0  0  0  0  0  0  0
   57.3330   31.6600   42.5010 C   0  0  0  0  0  0  0  0  0  0  0  0
   57.9010   31.9460   43.7450 C   0  0  0  0  0  0  0  0  0  0  0  0
   57.7740   31.0360   44.8000 C   0  0  0  0  0  0  0  0  0  0  0  0
   58.2390   27.3120   46.7770 N   0  0  0  0  0  0  0  0  0  0  0  0
  1  2  1  0
  2  3  1  0
  3  4  1  0
  4  5  2  0
  4  6  1  0
  6  7  1  0
  7  8  1  0
  8  9  2  0
  9 10  1  0
 10 11  2  0
 11 12  1  0
 12 13  1  0
 13 14  2  3
 14 15  1  0
 15 16  1  0
 16 17  1  0
 17 18  2  0
 18 19  1  0
 19 20  2  0
 20 21  1  0
 21 22  2  0
 13 23  1  0
 23 24  1  0
 24 25  2  0
 25 26  1  0
 26 27  2  0
 27 28  1  0
 28 29  2  0
 29 30  1  0
 30 31  2  0
 24 32  1  0
  7  2  2  0
 32  9  1  0
 32 12  1  0
 22 17  1  0
 31 26  1  0
M  CHG  3   3  -1   6  -1  23  -1
M  END
>  <UniqueID>  (1419) 
7

>  <SMILES>  (1419) 
O=c1[n-]c(O)c(/C=C2\C=Nn3c(=NCCc4ccccc4)[n-]/c(=N\c4ccccc4)n32)[n-]1

>  <Energy>  (1419) 
187.5049197080681

>  <Genealogy>  (1419) 
O=c1[n-]c(O)c(C=C2C=Nn3c(=NCCc4ccccc4)[n-]c(=Nc4ccccc4)n32)[n-]1 (protonated)
O=c1[n-]c(O)c(/C=C2\C=Nn3c(=NCCc4ccccc4)[n-]/c(=N\c4ccccc4)n32)[n-]1 (cis-trans isomerization)
O=c1[n-]c(O)c(/C=C2\C=Nn3c(=NCCc4ccccc4)[n-]/c(=N\c4ccccc4)n32)[n-]1 (3D coordinates assigned)
O=c1[n-]c(O)c(/C=C2\C=Nn3c(=NCCc4ccccc4)[n-]/c(=N\c4ccccc4)n32)[n-]1 (nonaromatic ring conformer: 187.5049197080681 kcal/mol)

>  <smiles>  (1419) 
O=c1[nH]c(O)c(C=C2C=Nn3c(=NCCc4ccccc4)[nH]c(=Nc4ccccc4)n32)[nH]1

>  <score_type>  (1419) 
oracle

>  <origin>  (1419) 
adg

>  <m_score__min__energy>  (1419) 
-15.34

>  <m_primary>  (1419) 
energy

$$$$
14:0
     RDKit          3D

 30 33  0  0  0  0  0  0  0  0999 V2000
   53.9370   29.0330   54.4660 C   0  0  0  0  0  0  0  0  0  0  0  0
   54.4610   29.7130   53.4340 C   0  0  0  0  0  0  0  0  0  0  0  0
   53.7440   30.3520   52.4160 C   0  0  0  0  0  0  0  0  0  0  0  0
   52.4060   30.4370   52.2880 C   0  0  0  0  0  0  0  0  0  0  0  0
   51.7210   30.8450   51.0480 C   0  0  0  0  0  0  0  0  0  0  0  0
   51.7020   30.0940   49.9340 N   0  0  0  0  0  0  0  0  0  0  0  0
   51.0520   30.8710   49.0410 C   0  0  0  0  0  0  0  0  0  0  0  0
   50.8210   30.4990   47.8600 O   0  0  0  0  0  0  0  0  0  0  0  0
   50.6780   32.0800   49.5090 N   0  0  0  0  0  0  0  0  0  0  0  0
   51.1180   32.0550   50.7770 C   0  0  0  0  0  0  0  0  0  0  0  0
   51.0140   33.1320   51.6480 O   0  0  0  0  0  0  0  0  0  0  0  0
   54.6880   30.9470   51.5930 C   0  0  0  0  0  0  0  0  0  0  0  0
   55.9260   30.6570   52.1290 C   0  0  0  0  0  0  0  0  0  0  0  0
   57.1930   31.1830   51.5780 C   0  0  0  0  0  0  0  0  0  0  0  0
   57.6340   32.2750   52.0330 O   0  0  0  0  0  0  0  0  0  0  0  0
   58.0080   30.3880   50.6800 N   0  0  1  0  0  0  0  0  0  0  0  0
   58.5390   31.2270   49.5680 C   0  0  0  0  0  0  0  0  0  0  0  0
   59.8140   30.6290   48.9580 C   0  0  0  0  0  0  0  0  0  0  0  0
   60.9510   30.5310   50.0060 C   0  0  1  0  0  0  0  0  0  0  0  0
   61.9720   31.6830   49.8820 C   0  0  0  0  0  0  0  0  0  0  0  0
   61.7480   32.4640   48.6410 N   0  0  0  0  0  0  0  0  0  0  0  0
   63.0170   32.7740   47.9410 C   0  0  0  0  0  0  0  0  0  0  0  0
   62.8100   33.7300   46.7440 C   0  0  0  0  0  0  0  0  0  0  0  0
   61.3320   33.8480   46.3590 C   0  0  0  0  0  0  0  0  0  0  0  0
   60.4830   34.2980   47.5600 C   0  0  0  0  0  0  0  0  0  0  0  0
   60.9820   33.7020   48.8890 C   0  0  0  0  0  0  0  0  0  0  0  0
   60.4020   30.3990   51.4480 C   0  0  0  0  0  0  0  0  0  0  0  0
   59.0560   29.6620   51.4510 C   0  0  0  0  0  0  0  0  0  0  0  0
   55.7940   29.8810   53.2320 N   0  0  0  0  0  0  0  0  0  0  0  0
   56.8810   29.3030   54.0290 C   0  0  0  0  0  0  0  0  0  0  0  0
  1  2  2  0
  2  3  1  0
  3  4  2  0
  4  5  1  0
  5  6  1  0
  6  7  1  0
  7  8  2  0
  7  9  1  0
  9 10  1  0
 10 11  1  0
  3 12  1  0
 12 13  2  0
 13 14  1  0
 14 15  2  0
 16 14  1  1
 16 17  1  0
 17 18  1  0
 18 19  1  0
 19 20  1  1
 20 21  1  0
 21 22  1  0
 22 23  1  0
 23 24  1  0
 24 25  1  0
 25 26  1  0
 19 27  1  0
 27 28  1  0
 13 29  1  0
 29 30  1  0
 29  2  1  0
 10  5  2  0
 28 16  1  0
 26 21  1  0
M  CHG  4   6  -1   9  -1  11  -1  16   1
M  END
>  <UniqueID>  (1420) 
15

>  <SMILES>  (1420) 
C=c1/c(=C/c2[n-]c(=O)[n-]c2[O-])cc(C(=O)[NH+]2CCC(CN3CCCCC3)CC2)n1C

>  <Energy>  (1420) 
146.3868232347546

>  <Genealogy>  (1420) 
C=c1c(=Cc2[n-]c(=O)[n-]c2[O-])cc(C(=O)[NH+]2CCC(CN3CCCCC3)CC2)n1C (protonated)
C=c1/c(=C/c2[n-]c(=O)[n-]c2[O-])cc(C(=O)[NH+]2CCC(CN3CCCCC3)CC2)n1C (cis-trans isomerization)
C=c1/c(=C/c2[n-]c(=O)[n-]c2[O-])cc(C(=O)[NH+]2CCC(CN3CCCCC3)CC2)n1C (3D coordinates assigned)
C=c1/c(=C/c2[n-]c(=O)[n-]c2[O-])cc(C(=O)[NH+]2CCC(CN3CCCCC3)CC2)n1C (nonaromatic ring conformer: 146.3868232347546 kcal/mol)

>  <smiles>  (1420) 
C=c1c(=Cc2[nH]c(=O)[nH]c2O)cc(C(=O)N2CCC(CN3CCCCC3)CC2)n1C

>  <score_type>  (1420) 
oracle

>  <origin>  (1420) 
adg

>  <m_score__min__energy>  (1420) 
-17.050000000000001

>  <m_primary>  (1420) 
energy

$$$$
31:0
     RDKit          3D

 24 26  0  0  0  0  0  0  0  0999 V2000
   57.7650   29.0100   46.8330 O   0  0  0  0  0  0  0  0  0  0  0  0
   57.2630   28.2310   45.9790 C   0  0  0  0  0  0  0  0  0  0  0  0
   56.7180   28.7450   44.7520 N   0  0  0  0  0  0  0  0  0  0  0  0
   56.8860   29.9220   44.2190 C   0  0  0  0  0  0  0  0  0  0  0  0
   56.9540   30.2490   42.8690 C   0  0  0  0  0  0  0  0  0  0  0  0
   57.1420   31.6200   42.8630 C   0  0  0  0  0  0  0  0  0  0  0  0
   57.1670   32.0610   44.1360 N   0  0  0  0  0  0  0  0  0  0  0  0
   57.4230   33.4330   44.5650 C   0  0  0  0  0  0  0  0  0  0  0  0
   58.6750   33.4830   45.3950 C   0  0  0  0  0  0  0  0  0  0  0  0
   59.2750   34.7170   45.6970 C   0  0  0  0  0  0  0  0  0  0  0  0
   60.4130   34.7660   46.5080 C   0  0  0  0  0  0  0  0  0  0  0  0
   60.9520   33.5860   47.0310 C   0  0  0  0  0  0  0  0  0  0  0  0
   62.5040   33.6570   48.1430 Br  0  0  0  0  0  0  0  0  0  0  0  0
   60.3530   32.3560   46.7440 C   0  0  0  0  0  0  0  0  0  0  0  0
   59.2140   32.3040   45.9340 C   0  0  0  0  0  0  0  0  0  0  0  0
   57.0220   31.0360   44.9580 N   0  0  0  0  0  0  0  0  0  0  0  0
   57.2130   26.7680   46.2480 C   0  0  0  0  0  0  0  0  0  0  0  0
   58.4070   26.0450   46.4250 C   0  0  0  0  0  0  0  0  0  0  0  0
   58.3740   24.6730   46.6770 C   0  0  0  0  0  0  0  0  0  0  0  0
   57.1430   24.0220   46.7530 C   0  0  0  0  0  0  0  0  0  0  0  0
   57.0940   22.7850   46.9810 O   0  0  0  0  0  0  0  0  0  0  0  0
   55.9930   24.7240   46.5830 N   0  0  0  0  0  0  0  0  0  0  0  0
   55.9920   26.0610   46.3370 C   0  0  0  0  0  0  0  0  0  0  0  0
   54.7710   26.7070   46.1730 O   0  0  0  0  0  0  0  0  0  0  0  0
  1  2  2  0
  2  3  1  0
  3  4  2  3
  4  5  1  0
  5  6  2  0
  6  7  1  0
  7  8  1  0
  8  9  1  0
  9 10  2  0
 10 11  1  0
 11 12  2  0
 12 13  1  0
 12 14  1  0
 14 15  2  0
  7 16  1  0
  2 17  1  0
 17 18  1  0
 18 19  2  0
 19 20  1  0
 20 21  2  0
 20 22  1  0
 22 23  1  0
 23 24  1  0
 16  4  1  0
 23 17  2  0
 15  9  1  0
M  CHG  2  22  -1  24  -1
M  END
>  <UniqueID>  (1421) 
31

>  <SMILES>  (1421) 
O=C(N=c1ccn(Cc2ccc(Br)cc2)[nH]1)c1ccc(=O)[n-]c1[O-]

>  <Energy>  (1421) 
74.61754729196419

>  <Genealogy>  (1421) 
O=C(N=c1ccn(Cc2ccc(Br)cc2)[nH]1)c1ccc(=O)[n-]c1[O-] (protonated)
O=C(N=c1ccn(Cc2ccc(Br)cc2)[nH]1)c1ccc(=O)[n-]c1[O-] (3D coordinates assigned)
O=C(N=c1ccn(Cc2ccc(Br)cc2)[nH]1)c1ccc(=O)[n-]c1[O-] (optimized conformer: 74.61754729196419 kcal/mol)

>  <smiles>  (1421) 
O=C(N=c1ccn(Cc2ccc(Br)cc2)[nH]1)c1ccc(=O)[nH]c1O

>  <score_type>  (1421) 
oracle

>  <origin>  (1421) 
adg

>  <m_score__min__energy>  (1421) 
-14.48

>  <m_primary>  (1421) 
energy

$$$$
32:0
     RDKit          3D

 24 26  0  0  0  0  0  0  0  0999 V2000
   60.1980   33.7550   46.6650 C   0  0  0  0  0  0  0  0  0  0  0  0
   60.6710   32.9630   47.6380 C   0  0  0  0  0  0  0  0  0  0  0  0
   61.9210   33.2800   48.2770 N   0  0  0  0  0  0  0  0  0  0  0  0
   63.1780   32.9280   47.6140 C   0  0  0  0  0  0  0  0  0  0  0  0
   64.2710   32.7250   48.6670 C   0  0  0  0  0  0  0  0  0  0  0  0
   64.3520   33.8430   49.5310 O   0  0  0  0  0  0  0  0  0  0  0  0
   63.1530   33.9620   50.2770 C   0  0  0  0  0  0  0  0  0  0  0  0
   61.9680   34.2680   49.3570 C   0  0  0  0  0  0  0  0  0  0  0  0
   59.9120   31.7650   48.0670 C   0  0  0  0  0  0  0  0  0  0  0  0
   60.4000   31.0000   48.9410 O   0  0  0  0  0  0  0  0  0  0  0  0
   58.5230   31.4900   47.5570 C   0  0  0  0  0  0  0  0  0  0  0  0
   58.2500   32.1630   46.2410 C   0  0  0  0  0  0  0  0  0  0  0  0
   57.3740   31.6130   45.4440 N   0  0  0  0  0  0  0  0  0  0  0  0
   57.6050   30.6550   44.3630 C   0  0  0  0  0  0  0  0  0  0  0  0
   57.5480   29.2340   44.8720 C   0  0  0  0  0  0  0  0  0  0  0  0
   58.7290   28.4800   44.9810 C   0  0  0  0  0  0  0  0  0  0  0  0
   58.6870   27.1620   45.4450 C   0  0  0  0  0  0  0  0  0  0  0  0
   57.4670   26.5790   45.7910 C   0  0  0  0  0  0  0  0  0  0  0  0
   56.2820   27.3100   45.6650 C   0  0  0  0  0  0  0  0  0  0  0  0
   55.0690   26.7180   46.0010 O   0  0  0  0  0  0  0  0  0  0  0  0
   56.3160   28.6310   45.2010 C   0  0  0  0  0  0  0  0  0  0  0  0
   55.1250   29.3390   45.0660 O   0  0  0  0  0  0  0  0  0  0  0  0
   58.9600   33.4320   45.9410 C   0  0  0  0  0  0  0  0  0  0  0  0
   58.5180   34.2530   45.0960 O   0  0  0  0  0  0  0  0  0  0  0  0
  1  2  2  0
  2  3  1  0
  3  4  1  0
  4  5  1  0
  5  6  1  0
  6  7  1  0
  7  8  1  0
  2  9  1  0
  9 10  2  0
  9 11  1  0
 11 12  1  0
 12 13  2  0
 13 14  1  0
 14 15  1  0
 15 16  2  0
 16 17  1  0
 17 18  2  0
 18 19  1  0
 19 20  1  0
 19 21  2  0
 21 22  1  0
 12 23  1  0
 23 24  2  0
 23  1  1  0
  8  3  1  0
 21 15  1  0
M  CHG  2  20  -1  22  -1
M  END
>  <UniqueID>  (1422) 
32

>  <SMILES>  (1422) 
O=C1C/C(=N/Cc2cccc([O-])c2[O-])C(=O)C=C1N1CCOCC1

>  <Energy>  (1422) 
50.84644483649576

>  <Genealogy>  (1422) 
O=C1C=C(N2CCOCC2)C(=O)CC1=NCc1cccc([O-])c1[O-] (protonated)
O=C1C/C(=N/Cc2cccc([O-])c2[O-])C(=O)C=C1N1CCOCC1 (cis-trans isomerization)
O=C1C/C(=N/Cc2cccc([O-])c2[O-])C(=O)C=C1N1CCOCC1 (3D coordinates assigned)
O=C1C/C(=N/Cc2cccc([O-])c2[O-])C(=O)C=C1N1CCOCC1 (nonaromatic ring conformer: 50.84644483649576 kcal/mol)

>  <smiles>  (1422) 
O=C1C=C(N2CCOCC2)C(=O)CC1=NCc1cccc(O)c1O

>  <score_type>  (1422) 
oracle

>  <origin>  (1422) 
adg

>  <m_score__min__energy>  (1422) 
-15.529999999999999

>  <m_primary>  (1422) 
energy

$$$$
45:0
     RDKit          3D

 31 34  0  0  0  0  0  0  0  0999 V2000
   60.4300   28.1020   45.2560 C   0  0  0  0  0  0  0  0  0  0  0  0
   59.2570   28.7380   45.1890 C   0  0  0  0  0  0  0  0  0  0  0  0
   59.1600   30.0750   45.3410 N   0  0  0  0  0  0  0  0  0  0  0  0
   57.8840   30.4050   45.2340 N   0  0  0  0  0  0  0  0  0  0  0  0
   57.4140   31.7580   45.3140 C   0  0  0  0  0  0  0  0  0  0  0  0
   56.2700   32.0380   44.8590 O   0  0  0  0  0  0  0  0  0  0  0  0
   58.2500   32.8400   45.8830 C   0  0  0  0  0  0  0  0  0  0  0  0
   58.5480   33.9790   45.1160 C   0  0  0  0  0  0  0  0  0  0  0  0
   59.3600   34.9890   45.6370 C   0  0  0  0  0  0  0  0  0  0  0  0
   59.9000   34.8640   46.9190 C   0  0  0  0  0  0  0  0  0  0  0  0
   59.6290   33.7270   47.6940 C   0  0  0  0  0  0  0  0  0  0  0  0
   60.2540   33.5770   49.0550 C   0  0  0  0  0  0  0  0  0  0  0  0
   61.6070   33.0310   48.9440 N   0  0  0  0  0  0  0  0  0  0  0  0
   62.6760   33.6480   49.4240 N   0  0  0  0  0  0  0  0  0  0  0  0
   63.7380   32.8510   49.1970 C   0  0  0  0  0  0  0  0  0  0  0  0
   65.1240   33.1570   49.6550 C   0  0  0  0  0  0  0  0  0  0  0  0
   63.3340   31.6840   48.5770 C   0  0  0  0  0  0  0  0  0  0  0  0
   61.9720   31.8410   48.4180 C   0  0  0  0  0  0  0  0  0  0  0  0
   61.0390   30.7930   47.8990 C   0  0  0  0  0  0  0  0  0  0  0  0
   58.8000   32.7180   47.1720 C   0  0  0  0  0  0  0  0  0  0  0  0
   57.1570   29.2970   44.9860 C   0  0  0  0  0  0  0  0  0  0  0  0
   55.9200   29.3210   44.7600 O   0  0  0  0  0  0  0  0  0  0  0  0
   57.9900   28.1800   44.9640 C   0  0  0  0  0  0  0  0  0  0  0  0
   57.7080   26.8690   44.7800 C   0  0  0  0  0  0  0  0  0  0  0  0
   57.2380   25.8890   45.7890 C   0  0  0  0  0  0  0  0  0  0  0  0
   57.9630   24.9090   46.3570 N   0  0  0  0  0  0  0  0  0  0  0  0
   57.0910   24.3100   47.1950 C   0  0  0  0  0  0  0  0  0  0  0  0
   57.4090   23.3280   47.9140 O   0  0  0  0  0  0  0  0  0  0  0  0
   55.8540   24.8460   47.2030 N   0  0  0  0  0  0  0  0  0  0  0  0
   55.9640   25.8430   46.3100 C   0  0  0  0  0  0  0  0  0  0  0  0
   54.9190   26.6980   45.9790 O   0  0  0  0  0  0  0  0  0  0  0  0
  1  2  2  0
  2  3  1  0
  3  4  1  0
  4  5  1  0
  5  6  2  0
  5  7  1  0
  7  8  2  0
  8  9  1  0
  9 10  2  0
 10 11  1  0
 11 12  1  0
 12 13  1  0
 13 14  1  0
 14 15  2  0
 15 16  1  0
 15 17  1  0
 17 18  2  0
 18 19  1  0
 11 20  2  0
  4 21  1  0
 21 22  2  0
 21 23  1  0
 23 24  2  3
 24 25  1  0
 25 26  1  0
 26 27  1  0
 27 28  2  0
 27 29  1  0
 29 30  1  0
 30 31  1  0
 23  2  1  0
 30 25  2  0
 20  7  1  0
 18 13  1  0
M  CHG  4   3  -1  26  -1  29  -1  31  -1
M  END
>  <UniqueID>  (1423) 
45

>  <SMILES>  (1423) 
C=c1[n-]n(C(=O)c2cccc(Cn3nc(C)cc3C)c2)c(=O)c1=Cc1[n-]c(=O)[n-]c1[O-]

>  <Energy>  (1423) 
151.4074213207411

>  <Genealogy>  (1423) 
C=c1[n-]n(C(=O)c2cccc(Cn3nc(C)cc3C)c2)c(=O)c1=Cc1[n-]c(=O)[n-]c1[O-] (protonated)
C=c1[n-]n(C(=O)c2cccc(Cn3nc(C)cc3C)c2)c(=O)c1=Cc1[n-]c(=O)[n-]c1[O-] (3D coordinates assigned)
C=c1[n-]n(C(=O)c2cccc(Cn3nc(C)cc3C)c2)c(=O)c1=Cc1[n-]c(=O)[n-]c1[O-] (optimized conformer: 151.4074213207411 kcal/mol)

>  <smiles>  (1423) 
C=c1[nH]n(C(=O)c2cccc(Cn3nc(C)cc3C)c2)c(=O)c1=Cc1[nH]c(=O)[nH]c1O

>  <score_type>  (1423) 
oracle

>  <origin>  (1423) 
adg

>  <m_score__min__energy>  (1423) 
-19.02

>  <m_primary>  (1423) 
energy

$$$$
48:0
     RDKit          3D

 23 25  0  0  0  0  0  0  0  0999 V2000
   60.7500   29.5100   45.5880 C   0  0  0  0  0  0  0  0  0  0  0  0
   60.5630   28.2080   45.3960 C   0  0  0  0  0  0  0  0  0  0  0  0
   59.7410   27.3970   46.3050 C   0  0  0  0  0  0  0  0  0  0  0  0
   60.2150   26.5910   47.3000 N   0  0  0  0  0  0  0  0  0  0  0  0
   59.1930   25.9610   47.8870 N   0  0  0  0  0  0  0  0  0  0  0  0
   58.1010   26.4070   47.2520 C   0  0  0  0  0  0  0  0  0  0  0  0
   56.8150   26.0290   47.3290 N   0  0  0  0  0  0  0  0  0  0  0  0
   56.2690   26.7590   46.3140 C   0  0  0  0  0  0  0  0  0  0  0  0
   54.9240   26.6830   45.9750 O   0  0  0  0  0  0  0  0  0  0  0  0
   57.2100   27.5550   45.6380 C   0  0  0  0  0  0  0  0  0  0  0  0
   57.0230   28.3350   44.3710 C   0  0  0  0  0  0  0  0  0  0  0  0
   56.3830   29.6530   44.6740 C   0  0  0  0  0  0  0  0  0  0  0  0
   55.2420   29.6900   45.2080 O   0  0  0  0  0  0  0  0  0  0  0  0
   57.0860   30.8640   44.3830 N   0  0  0  0  0  0  0  0  0  0  0  0
   56.6590   32.1650   44.8790 C   0  0  0  0  0  0  0  0  0  0  0  0
   57.7860   32.8080   45.6410 C   0  0  0  0  0  0  0  0  0  0  0  0
   58.3420   32.1550   46.7530 C   0  0  0  0  0  0  0  0  0  0  0  0
   59.3460   32.7740   47.5040 C   0  0  0  0  0  0  0  0  0  0  0  0
   59.7980   34.0490   47.1530 C   0  0  0  0  0  0  0  0  0  0  0  0
   60.7650   34.6520   47.8890 F   0  0  0  0  0  0  0  0  0  0  0  0
   59.2480   34.7070   46.0510 C   0  0  0  0  0  0  0  0  0  0  0  0
   58.2410   34.0920   45.2980 C   0  0  0  0  0  0  0  0  0  0  0  0
   58.3780   27.2620   46.2890 C   0  0  0  0  0  0  0  0  0  0  0  0
  1  2  2  0
  2  3  1  0
  3  4  2  0
  4  5  1  0
  5  6  1  0
  6  7  1  0
  7  8  1  0
  8  9  1  0
  8 10  2  0
 10 11  1  0
 11 12  1  0
 12 13  2  0
 12 14  1  0
 14 15  1  0
 15 16  1  0
 16 17  2  0
 17 18  1  0
 18 19  2  0
 19 20  1  0
 19 21  1  0
 21 22  2  0
 10 23  1  0
 23  3  1  0
 23  6  2  0
 22 16  1  0
M  CHG  4   5  -1   7  -1   9  -1  14  -1
M  END
>  <UniqueID>  (1424) 
48

>  <SMILES>  (1424) 
C=Cc1n[n-]c2[n-]c([O-])c(CC(=O)[N-]Cc3ccc(F)cc3)c12

>  <Energy>  (1424) 
114.01681324000495

>  <Genealogy>  (1424) 
C=Cc1n[n-]c2[n-]c([O-])c(CC(=O)[N-]Cc3ccc(F)cc3)c12 (protonated)
C=Cc1n[n-]c2[n-]c([O-])c(CC(=O)[N-]Cc3ccc(F)cc3)c12 (3D coordinates assigned)
C=Cc1n[n-]c2[n-]c([O-])c(CC(=O)[N-]Cc3ccc(F)cc3)c12 (optimized conformer: 114.01681324000495 kcal/mol)

>  <smiles>  (1424) 
C=Cc1n[nH]c2[nH]c(O)c(CC(=O)NCc3ccc(F)cc3)c12

>  <score_type>  (1424) 
oracle

>  <origin>  (1424) 
adg

>  <m_score__min__energy>  (1424) 
-15.710000000000001

>  <m_primary>  (1424) 
energy

$$$$
53:0
     RDKit          3D

 36 39  0  0  0  0  0  0  0  0999 V2000
   51.0260   32.3270   50.1770 N   0  0  0  0  0  0  0  0  0  0  0  0
   51.3600   31.5440   51.3200 C   0  0  0  0  0  0  0  0  0  0  0  0
   51.1730   32.0090   52.4760 O   0  0  0  0  0  0  0  0  0  0  0  0
   51.9460   30.1780   51.1500 C   0  0  0  0  0  0  0  0  0  0  0  0
   53.3460   30.1340   51.7040 C   0  0  0  0  0  0  0  0  0  0  0  0
   53.7940   29.0090   52.4130 C   0  0  0  0  0  0  0  0  0  0  0  0
   55.0890   28.9730   52.9310 C   0  0  0  0  0  0  0  0  0  0  0  0
   55.9500   30.0740   52.7740 C   0  0  0  0  0  0  0  0  0  0  0  0
   57.2510   30.0970   53.3020 O   0  0  0  0  0  0  0  0  0  0  0  0
   58.2910   30.9850   52.8910 C   0  0  0  0  0  0  0  0  0  0  0  0
   59.0310   30.4100   51.7120 C   0  0  0  0  0  0  0  0  0  0  0  0
   59.3210   29.0380   51.6770 C   0  0  0  0  0  0  0  0  0  0  0  0
   59.9800   28.4850   50.5770 C   0  0  0  0  0  0  0  0  0  0  0  0
   60.3360   29.2940   49.4940 C   0  0  0  0  0  0  0  0  0  0  0  0
   60.0300   30.6640   49.5000 C   0  0  0  0  0  0  0  0  0  0  0  0
   60.3850   31.5030   48.3350 C   0  0  0  0  0  0  0  0  0  0  0  0
   61.4100   31.2030   47.6640 O   0  0  0  0  0  0  0  0  0  0  0  0
   59.5620   32.6160   47.9230 N   0  0  0  0  0  0  0  0  0  0  0  0
   60.1110   33.6550   47.0420 C   0  0  0  0  0  0  0  0  0  0  0  0
   59.4750   33.5370   45.6550 C   0  0  0  0  0  0  0  0  0  0  0  0
   57.9260   33.3890   45.7060 C   0  0  0  0  0  0  0  0  0  0  0  0
   57.4780   32.1350   45.0000 C   0  0  0  0  0  0  0  0  0  0  0  0
   56.2510   31.9290   44.7970 O   0  0  0  0  0  0  0  0  0  0  0  0
   58.4310   31.0950   44.7410 N   0  0  0  0  0  0  0  0  0  0  0  0
   58.5250   29.9140   45.2910 C   0  0  0  0  0  0  0  0  0  0  0  0
   59.7760   29.4510   45.5730 N   0  0  0  0  0  0  0  0  0  0  0  0
   59.9970   28.2540   46.1790 C   0  0  0  0  0  0  0  0  0  0  0  0
   58.9220   27.4440   46.5340 C   0  0  0  0  0  0  0  0  0  0  0  0
   57.6260   27.8600   46.2270 C   0  0  0  0  0  0  0  0  0  0  0  0
   57.4080   29.0880   45.5860 C   0  0  0  0  0  0  0  0  0  0  0  0
   56.1110   29.4380   45.2140 O   0  0  0  0  0  0  0  0  0  0  0  0
   57.3460   33.4690   47.1400 C   0  0  0  0  0  0  0  0  0  0  0  0
   58.1060   32.5780   48.1410 C   0  0  0  0  0  0  0  0  0  0  0  0
   59.4000   31.2220   50.6260 C   0  0  0  0  0  0  0  0  0  0  0  0
   55.5030   31.1930   52.0640 C   0  0  0  0  0  0  0  0  0  0  0  0
   54.2070   31.2280   51.5370 C   0  0  0  0  0  0  0  0  0  0  0  0
  1  2  1  0
  2  3  2  0
  2  4  1  0
  4  5  1  0
  5  6  2  0
  6  7  1  0
  7  8  2  0
  8  9  1  0
  9 10  1  0
 10 11  1  0
 11 12  2  0
 12 13  1  0
 13 14  2  0
 14 15  1  0
 15 16  1  0
 16 17  2  0
 16 18  1  0
 18 19  1  0
 19 20  1  0
 20 21  1  0
 21 22  1  0
 22 23  2  0
 22 24  1  0
 24 25  2  0
 25 26  1  0
 26 27  1  0
 27 28  2  0
 28 29  1  0
 29 30  2  0
 30 31  1  0
 21 32  1  0
 32 33  1  0
 15 34  2  0
  8 35  1  0
 35 36  2  0
 36  5  1  0
 34 11  1  0
 33 18  1  0
 30 25  1  0
M  CHG  2   1  -1  26  -1
M  END
>  <UniqueID>  (1425) 
53

>  <SMILES>  (1425) 
[NH-]C(=O)Cc1ccc(OCc2cccc(C(=O)N3CCC(C(=O)/N=c4/[n-]cccc4O)CC3)c2)cc1

>  <Energy>  (1425) 
81.11601794138551

>  <Genealogy>  (1425) 
[NH-]C(=O)Cc1ccc(OCc2cccc(C(=O)N3CCC(C(=O)N=c4[n-]cccc4O)CC3)c2)cc1 (protonated)
[NH-]C(=O)Cc1ccc(OCc2cccc(C(=O)N3CCC(C(=O)/N=c4/[n-]cccc4O)CC3)c2)cc1 (cis-trans isomerization)
[NH-]C(=O)Cc1ccc(OCc2cccc(C(=O)N3CCC(C(=O)/N=c4/[n-]cccc4O)CC3)c2)cc1 (3D coordinates assigned)
[NH-]C(=O)Cc1ccc(OCc2cccc(C(=O)N3CCC(C(=O)/N=c4/[n-]cccc4O)CC3)c2)cc1 (nonaromatic ring conformer: 81.11601794138551 kcal/mol)

>  <smiles>  (1425) 
NC(=O)Cc1ccc(OCc2cccc(C(=O)N3CCC(C(=O)N=c4[nH]cccc4O)CC3)c2)cc1

>  <score_type>  (1425) 
oracle

>  <origin>  (1425) 
adg

>  <m_score__min__energy>  (1425) 
-16.870000000000001

>  <m_primary>  (1425) 
energy

$$$$
64:0
     RDKit          3D

 27 30  0  0  0  0  0  0  0  0999 V2000
   55.9710   23.1580   47.7740 C   0  0  0  0  0  0  0  0  0  0  0  0
   57.0950   23.3970   47.0960 C   0  0  0  0  0  0  0  0  0  0  0  0
   57.7380   22.4450   46.3950 N   0  0  0  0  0  0  0  0  0  0  0  0
   58.7980   23.0980   45.8770 C   0  0  0  0  0  0  0  0  0  0  0  0
   59.6480   22.5380   45.1380 O   0  0  0  0  0  0  0  0  0  0  0  0
   58.8700   24.4030   46.2060 N   0  0  0  0  0  0  0  0  0  0  0  0
   57.7870   24.5980   46.9840 C   0  0  0  0  0  0  0  0  0  0  0  0
   57.4420   25.7900   47.4980 C   0  0  0  0  0  0  0  0  0  0  0  0
   57.0860   26.9390   46.6470 C   0  0  0  0  0  0  0  0  0  0  0  0
   55.8940   27.1210   45.9590 C   0  0  0  0  0  0  0  0  0  0  0  0
   54.8210   26.2380   45.9930 O   0  0  0  0  0  0  0  0  0  0  0  0
   55.8910   28.2570   45.2220 N   0  0  0  0  0  0  0  0  0  0  0  0
   57.0980   28.8040   45.4640 C   0  0  0  0  0  0  0  0  0  0  0  0
   57.5880   29.9980   44.9350 C   0  0  0  0  0  0  0  0  0  0  0  0
   58.8710   30.4190   45.3300 C   0  0  0  0  0  0  0  0  0  0  0  0
   59.6210   29.6600   46.2570 C   0  0  0  0  0  0  0  0  0  0  0  0
   61.2290   30.2440   46.7940 S   0  0  0  0  0  0  0  0  0  0  0  0
   60.6260   30.8160   48.4200 C   0  0  0  0  0  0  0  0  0  0  0  0
   60.1690   32.2870   48.3670 C   0  0  0  0  0  0  0  0  0  0  0  0
   59.5060   32.6720   47.1010 N   0  0  0  0  0  0  0  0  0  0  0  0
   58.0740   33.0000   47.2480 C   0  0  0  0  0  0  0  0  0  0  0  0
   57.4780   33.3560   45.8840 C   0  0  0  0  0  0  0  0  0  0  0  0
   58.1610   34.5980   45.2810 C   0  0  0  0  0  0  0  0  0  0  0  0
   59.5350   34.8970   45.9080 C   0  0  0  0  0  0  0  0  0  0  0  0
   60.2950   33.6060   46.2540 C   0  0  0  0  0  0  0  0  0  0  0  0
   59.0990   28.4620   46.7790 C   0  0  0  0  0  0  0  0  0  0  0  0
   57.8440   28.0460   46.3330 C   0  0  0  0  0  0  0  0  0  0  0  0
  1  2  2  0
  2  3  1  0
  3  4  1  0
  4  5  2  0
  4  6  1  0
  6  7  1  0
  7  8  2  3
  8  9  1  0
  9 10  2  0
 10 11  1  0
 10 12  1  0
 12 13  1  0
 13 14  2  0
 14 15  1  0
 15 16  2  0
 16 17  1  0
 17 18  1  0
 18 19  1  0
 19 20  1  0
 20 21  1  0
 21 22  1  0
 22 23  1  0
 23 24  1  0
 24 25  1  0
 16 26  1  0
 26 27  2  0
  7  2  1  0
 27  9  1  0
 27 13  1  0
 25 20  1  0
M  CHG  4   3  -1   6  -1  11  -1  12  -1
M  END
>  <UniqueID>  (1426) 
63

>  <SMILES>  (1426) 
C=c1[n-]c(=O)[n-]c1=Cc1c([O-])[n-]c2ccc(SCCN3CCCCC3)cc12

>  <Energy>  (1426) 
122.33876584097483

>  <Genealogy>  (1426) 
C=c1[n-]c(=O)[n-]c1=Cc1c([O-])[n-]c2ccc(SCCN3CCCCC3)cc12 (protonated)
C=c1[n-]c(=O)[n-]c1=Cc1c([O-])[n-]c2ccc(SCCN3CCCCC3)cc12 (3D coordinates assigned)
C=c1[n-]c(=O)[n-]c1=Cc1c([O-])[n-]c2ccc(SCCN3CCCCC3)cc12 (nonaromatic ring conformer: 122.33876584097483 kcal/mol)

>  <smiles>  (1426) 
C=c1[nH]c(=O)[nH]c1=Cc1c(O)[nH]c2ccc(SCCN3CCCCC3)cc12

>  <score_type>  (1426) 
oracle

>  <origin>  (1426) 
adg

>  <m_score__min__energy>  (1426) 
-17

>  <m_primary>  (1426) 
energy

$$$$
65:0
     RDKit          3D

 32 35  0  0  0  0  0  0  0  0999 V2000
   59.6890   29.2780   44.6950 C   0  0  0  0  0  0  0  0  0  0  0  0
   59.3620   28.8560   45.9260 C   0  0  0  0  0  0  0  0  0  0  0  0
   58.5080   27.7930   46.2650 C   0  0  0  0  0  0  0  0  0  0  0  0
   57.9760   26.8120   45.5110 C   0  0  0  0  0  0  0  0  0  0  0  0
   57.2020   25.6660   46.0160 C   0  0  0  0  0  0  0  0  0  0  0  0
   57.7390   24.5140   46.4580 N   0  0  0  0  0  0  0  0  0  0  0  0
   56.6740   23.8400   46.9430 C   0  0  0  0  0  0  0  0  0  0  0  0
   56.7700   22.6880   47.4410 O   0  0  0  0  0  0  0  0  0  0  0  0
   55.5000   24.5030   46.8650 N   0  0  0  0  0  0  0  0  0  0  0  0
   55.8570   25.6630   46.2890 C   0  0  0  0  0  0  0  0  0  0  0  0
   54.9700   26.6990   46.0240 O   0  0  0  0  0  0  0  0  0  0  0  0
   58.2910   27.8910   47.6310 C   0  0  0  0  0  0  0  0  0  0  0  0
   59.0440   28.9560   48.0810 C   0  0  0  0  0  0  0  0  0  0  0  0
   59.2050   29.3360   49.5220 C   0  0  0  0  0  0  0  0  0  0  0  0
   59.7080   29.5260   47.0530 N   0  0  0  0  0  0  0  0  0  0  0  0
   60.5610   30.6780   47.1450 C   0  0  0  0  0  0  0  0  0  0  0  0
   61.9220   30.5100   47.4200 C   0  0  0  0  0  0  0  0  0  0  0  0
   62.7600   31.6200   47.5360 C   0  0  0  0  0  0  0  0  0  0  0  0
   62.2470   32.9170   47.3750 C   0  0  0  0  0  0  0  0  0  0  0  0
   63.1390   34.0910   47.5020 C   0  0  0  0  0  0  0  0  0  0  0  0
   63.3770   34.5970   48.6320 O   0  0  0  0  0  0  0  0  0  0  0  0
   63.7280   34.6530   46.3750 O   0  0  0  0  0  0  0  0  0  0  0  0
   60.8800   33.0830   47.0890 C   0  0  0  0  0  0  0  0  0  0  0  0
   60.0290   31.9660   46.9730 C   0  0  0  0  0  0  0  0  0  0  0  0
   58.6600   32.0870   46.6780 O   0  0  0  0  0  0  0  0  0  0  0  0
   58.1000   32.9110   45.6560 C   0  0  0  0  0  0  0  0  0  0  0  0
   57.5990   32.0660   44.5150 C   0  0  0  0  0  0  0  0  0  0  0  0
   56.8950   30.8810   44.7800 C   0  0  0  0  0  0  0  0  0  0  0  0
   56.4130   30.0970   43.7280 C   0  0  0  0  0  0  0  0  0  0  0  0
   56.6380   30.4870   42.4040 C   0  0  0  0  0  0  0  0  0  0  0  0
   57.3470   31.6600   42.1330 C   0  0  0  0  0  0  0  0  0  0  0  0
   57.8290   32.4480   43.1830 C   0  0  0  0  0  0  0  0  0  0  0  0
  1  2  2  0
  2  3  1  0
  3  4  2  3
  4  5  1  0
  5  6  1  0
  6  7  1  0
  7  8  2  0
  7  9  1  0
  9 10  1  0
 10 11  1  0
  3 12  1  0
 12 13  2  0
 13 14  1  0
 13 15  1  0
 15 16  1  0
 16 17  2  0
 17 18  1  0
 18 19  2  0
 19 20  1  0
 20 21  2  0
 20 22  1  0
 19 23  1  0
 23 24  2  0
 24 25  1  0
 25 26  1  0
 26 27  1  0
 27 28  2  0
 28 29  1  0
 29 30  2  0
 30 31  1  0
 31 32  2  0
 15  2  1  0
 24 16  1  0
 32 27  1  0
 10  5  2  0
M  CHG  4   6  -1   9  -1  11  -1  22  -1
M  END
>  <UniqueID>  (1427) 
64

>  <SMILES>  (1427) 
C=c1c(=Cc2[n-]c(=O)[n-]c2[O-])cc(C)n1-c1ccc(C(=O)[O-])cc1OCc1ccccc1

>  <Energy>  (1427) 
127.82875755229605

>  <Genealogy>  (1427) 
C=c1c(=Cc2[n-]c(=O)[n-]c2[O-])cc(C)n1-c1ccc(C(=O)[O-])cc1OCc1ccccc1 (protonated)
C=c1c(=Cc2[n-]c(=O)[n-]c2[O-])cc(C)n1-c1ccc(C(=O)[O-])cc1OCc1ccccc1 (3D coordinates assigned)
C=c1c(=Cc2[n-]c(=O)[n-]c2[O-])cc(C)n1-c1ccc(C(=O)[O-])cc1OCc1ccccc1 (optimized conformer: 127.82875755229605 kcal/mol)

>  <smiles>  (1427) 
C=c1c(=Cc2[nH]c(=O)[nH]c2O)cc(C)n1-c1ccc(C(=O)O)cc1OCc1ccccc1

>  <score_type>  (1427) 
oracle

>  <origin>  (1427) 
adg

>  <m_score__min__energy>  (1427) 
-17.010000000000002

>  <m_primary>  (1427) 
energy

$$$$
73:0
     RDKit          3D

 27 30  0  0  0  0  0  0  0  0999 V2000
   60.2050   29.1890   44.8540 C   0  0  0  0  0  0  0  0  0  0  0  0
   59.7870   29.0090   46.1170 C   0  0  0  0  0  0  0  0  0  0  0  0
   58.9850   27.9660   46.6070 C   0  0  0  0  0  0  0  0  0  0  0  0
   58.6100   26.8020   46.0440 C   0  0  0  0  0  0  0  0  0  0  0  0
   57.2340   26.2790   46.0060 C   0  0  0  0  0  0  0  0  0  0  0  0
   56.8730   25.0550   46.4350 N   0  0  0  0  0  0  0  0  0  0  0  0
   55.5260   25.0750   46.3390 C   0  0  0  0  0  0  0  0  0  0  0  0
   54.8100   24.0850   46.6430 O   0  0  0  0  0  0  0  0  0  0  0  0
   55.0070   26.2410   45.9010 N   0  0  0  0  0  0  0  0  0  0  0  0
   56.0980   26.9990   45.7070 C   0  0  0  0  0  0  0  0  0  0  0  0
   56.0480   28.3180   45.2650 O   0  0  0  0  0  0  0  0  0  0  0  0
   58.6130   28.3340   47.8900 C   0  0  0  0  0  0  0  0  0  0  0  0
   59.2510   29.5260   48.1650 C   0  0  0  0  0  0  0  0  0  0  0  0
   59.1230   30.2910   49.4460 C   0  0  0  0  0  0  0  0  0  0  0  0
   59.9690   29.9300   47.0960 N   0  0  0  0  0  0  0  0  0  0  0  0
   60.6860   31.1740   46.9940 C   0  0  0  0  0  0  0  0  0  0  0  0
   61.9720   31.2590   47.5510 C   0  0  0  0  0  0  0  0  0  0  0  0
   62.6800   32.4600   47.5170 C   0  0  0  0  0  0  0  0  0  0  0  0
   62.1120   33.5890   46.9300 C   0  0  0  0  0  0  0  0  0  0  0  0
   60.8350   33.5190   46.3670 C   0  0  0  0  0  0  0  0  0  0  0  0
   60.1090   32.3150   46.3810 C   0  0  0  0  0  0  0  0  0  0  0  0
   58.7740   32.2840   45.7360 C   0  0  0  0  0  0  0  0  0  0  0  0
   58.0420   33.3710   45.4140 N   0  0  0  0  0  0  0  0  0  0  0  0
   56.9170   32.9280   44.8720 N   0  0  0  0  0  0  0  0  0  0  0  0
   57.0120   31.5890   44.8920 C   0  0  0  0  0  0  0  0  0  0  0  0
   56.1170   30.8190   44.4550 O   0  0  0  0  0  0  0  0  0  0  0  0
   58.1380   31.1800   45.4180 O   0  0  0  0  0  0  0  0  0  0  0  0
  1  2  2  0
  2  3  1  0
  3  4  2  3
  4  5  1  0
  5  6  1  0
  6  7  1  0
  7  8  2  0
  7  9  1  0
  9 10  1  0
 10 11  1  0
  3 12  1  0
 12 13  2  0
 13 14  1  0
 13 15  1  0
 15 16  1  0
 16 17  2  0
 17 18  1  0
 18 19  2  0
 19 20  1  0
 20 21  2  0
 21 22  1  0
 22 23  2  0
 23 24  1  0
 24 25  1  0
 25 26  2  0
 25 27  1  0
 15  2  1  0
 21 16  1  0
 27 22  1  0
 10  5  2  0
M  CHG  3   6  -1   9  -1  24  -1
M  END
>  <UniqueID>  (1428) 
72

>  <SMILES>  (1428) 
C=c1c(=Cc2[n-]c(=O)[n-]c2O)cc(C)n1-c1ccccc1-c1n[n-]c(=O)o1

>  <Energy>  (1428) 
154.70502035865212

>  <Genealogy>  (1428) 
C=c1c(=Cc2[n-]c(=O)[n-]c2O)cc(C)n1-c1ccccc1-c1n[n-]c(=O)o1 (protonated)
C=c1c(=Cc2[n-]c(=O)[n-]c2O)cc(C)n1-c1ccccc1-c1n[n-]c(=O)o1 (3D coordinates assigned)
C=c1c(=Cc2[n-]c(=O)[n-]c2O)cc(C)n1-c1ccccc1-c1n[n-]c(=O)o1 (optimized conformer: 154.70502035865212 kcal/mol)

>  <smiles>  (1428) 
C=c1c(=Cc2[nH]c(=O)[nH]c2O)cc(C)n1-c1ccccc1-c1n[nH]c(=O)o1

>  <score_type>  (1428) 
oracle

>  <origin>  (1428) 
adg

>  <m_score__min__energy>  (1428) 
-14.76

>  <m_primary>  (1428) 
energy

$$$$
82:0
     RDKit          3D

 34 37  0  0  0  0  0  0  0  0999 V2000
   57.0120   30.1880   51.4390 O   0  0  0  0  0  0  0  0  0  0  0  0
   57.8650   29.4770   52.0380 C   0  0  0  0  0  0  0  0  0  0  0  0
   57.4450   28.6800   53.2420 C   0  0  0  0  0  0  0  0  0  0  0  0
   56.3510   29.3860   54.0010 C   0  0  0  0  0  0  0  0  0  0  0  0
   56.6020   29.9200   55.2760 C   0  0  0  0  0  0  0  0  0  0  0  0
   55.5770   30.5420   55.9940 C   0  0  0  0  0  0  0  0  0  0  0  0
   54.2930   30.6340   55.4470 C   0  0  0  0  0  0  0  0  0  0  0  0
   54.0290   30.1110   54.1680 C   0  0  0  0  0  0  0  0  0  0  0  0
   52.7090   30.1440   53.6010 N   0  0  0  0  0  0  0  0  0  0  0  0
   52.2610   29.3870   52.4690 C   0  0  0  0  0  0  0  0  0  0  0  0
   52.2910   28.1290   52.5290 O   0  0  0  0  0  0  0  0  0  0  0  0
   51.8340   30.0440   51.2190 C   0  0  0  0  0  0  0  0  0  0  0  0
   51.8610   29.4630   49.9620 C   0  0  0  0  0  0  0  0  0  0  0  0
   51.4060   30.4220   49.0820 C   0  0  0  0  0  0  0  0  0  0  0  0
   51.1370   31.5320   49.8530 C   0  0  0  0  0  0  0  0  0  0  0  0
   50.6580   32.7390   49.3570 O   0  0  0  0  0  0  0  0  0  0  0  0
   51.3970   31.3200   51.1570 N   0  0  0  0  0  0  0  0  0  0  0  0
   55.0560   29.4700   53.4600 C   0  0  0  0  0  0  0  0  0  0  0  0
   59.2320   29.4280   51.5870 N   0  0  0  0  0  0  0  0  0  0  0  0
   59.7020   29.9720   50.3390 C   0  0  0  0  0  0  0  0  0  0  0  0
   60.0650   29.0950   49.3030 C   0  0  0  0  0  0  0  0  0  0  0  0
   60.4920   29.5920   48.0680 C   0  0  0  0  0  0  0  0  0  0  0  0
   60.5530   30.9700   47.8510 C   0  0  0  0  0  0  0  0  0  0  0  0
   60.1840   31.8600   48.8700 C   0  0  0  0  0  0  0  0  0  0  0  0
   60.2470   33.6000   48.5870 S   0  0  0  0  0  0  0  0  0  0  0  0
   59.9160   34.3280   49.8620 O   0  0  0  0  0  0  0  0  0  0  0  0
   61.6440   33.9740   48.1740 O   0  0  0  0  0  0  0  0  0  0  0  0
   59.1260   34.0470   47.3240 N   0  0  0  0  0  0  0  0  0  0  0  0
   59.8450   34.2260   46.0530 C   0  0  0  0  0  0  0  0  0  0  0  0
   58.8550   34.4740   44.8960 C   0  0  0  0  0  0  0  0  0  0  0  0
   57.5180   34.5270   45.3560 O   0  0  0  0  0  0  0  0  0  0  0  0
   57.1810   33.3020   45.9770 C   0  0  0  0  0  0  0  0  0  0  0  0
   58.0950   33.0040   47.1820 C   0  0  0  0  0  0  0  0  0  0  0  0
   59.7430   31.3600   50.1040 C   0  0  0  0  0  0  0  0  0  0  0  0
  1  2  2  0
  2  3  1  0
  3  4  1  0
  4  5  2  0
  5  6  1  0
  6  7  2  0
  7  8  1  0
  8  9  1  0
  9 10  1  0
 10 11  2  0
 10 12  1  0
 12 13  2  0
 13 14  1  0
 14 15  2  0
 15 16  1  0
 15 17  1  0
  8 18  2  0
  2 19  1  0
 19 20  1  0
 20 21  2  0
 21 22  1  0
 22 23  2  0
 23 24  1  0
 24 25  1  0
 25 26  2  0
 25 27  2  0
 25 28  1  0
 28 29  1  0
 29 30  1  0
 30 31  1  0
 31 32  1  0
 32 33  1  0
 24 34  2  0
 18  4  1  0
 34 20  1  0
 17 12  1  0
 33 28  1  0
M  CHG  3   9  -1  16  -1  17  -1
M  END
>  <UniqueID>  (1429) 
81

>  <SMILES>  (1429) 
O=C(Cc1cccc([N-]C(=O)c2ccc([O-])[n-]2)c1)Nc1cccc(S(=O)(=O)N2CCOCC2)c1

>  <Energy>  (1429) 
97.80903016150037

>  <Genealogy>  (1429) 
O=C(Cc1cccc([N-]C(=O)c2ccc([O-])[n-]2)c1)Nc1cccc(S(=O)(=O)N2CCOCC2)c1 (protonated)
O=C(Cc1cccc([N-]C(=O)c2ccc([O-])[n-]2)c1)Nc1cccc(S(=O)(=O)N2CCOCC2)c1 (3D coordinates assigned)
O=C(Cc1cccc([N-]C(=O)c2ccc([O-])[n-]2)c1)Nc1cccc(S(=O)(=O)N2CCOCC2)c1 (nonaromatic ring conformer: 97.80903016150037 kcal/mol)

>  <smiles>  (1429) 
O=C(Cc1cccc(NC(=O)c2ccc(O)[nH]2)c1)Nc1cccc(S(=O)(=O)N2CCOCC2)c1

>  <score_type>  (1429) 
oracle

>  <origin>  (1429) 
adg

>  <m_score__min__energy>  (1429) 
-16.780000000000001

>  <m_primary>  (1429) 
energy

$$$$
0:0
     RDKit          3D

 33 36  0  0  0  0  0  0  0  0999 V2000
   60.2610   27.5560   46.8750 C   0  0  0  0  0  0  0  0  0  0  0  0
   59.3410   28.4250   46.4280 C   0  0  0  0  0  0  0  0  0  0  0  0
   58.2550   28.1560   45.5770 C   0  0  0  0  0  0  0  0  0  0  0  0
   57.7520   26.9910   45.1220 C   0  0  0  0  0  0  0  0  0  0  0  0
   57.3000   25.8640   45.9610 C   0  0  0  0  0  0  0  0  0  0  0  0
   55.9580   25.7460   46.3610 C   0  0  0  0  0  0  0  0  0  0  0  0
   55.0230   26.7110   46.0060 O   0  0  0  0  0  0  0  0  0  0  0  0
   55.5640   24.6750   47.0980 N   0  0  0  0  0  0  0  0  0  0  0  0
   56.4430   23.7010   47.4460 C   0  0  0  0  0  0  0  0  0  0  0  0
   55.9400   22.4270   48.3320 S   0  0  0  0  0  0  0  0  0  0  0  0
   57.7390   23.7790   47.0470 N   0  0  0  0  0  0  0  0  0  0  0  0
   58.1830   24.8300   46.3090 C   0  0  0  0  0  0  0  0  0  0  0  0
   59.3900   24.8680   45.9490 O   0  0  0  0  0  0  0  0  0  0  0  0
   57.7120   29.3850   45.2430 C   0  0  0  0  0  0  0  0  0  0  0  0
   58.4290   30.3420   45.9280 C   0  0  0  0  0  0  0  0  0  0  0  0
   58.1670   31.8160   45.8590 C   0  0  0  0  0  0  0  0  0  0  0  0
   59.4180   29.7640   46.6460 N   0  0  0  0  0  0  0  0  0  0  0  0
   60.3830   30.4590   47.4560 C   0  0  0  0  0  0  0  0  0  0  0  0
   60.5680   30.0930   48.7940 C   0  0  0  0  0  0  0  0  0  0  0  0
   61.4960   30.7710   49.5840 C   0  0  0  0  0  0  0  0  0  0  0  0
   62.2510   31.8230   49.0490 C   0  0  0  0  0  0  0  0  0  0  0  0
   63.1960   32.5030   49.8860 N   0  0  0  0  0  0  0  0  0  0  0  0
   62.7010   33.3460   50.9750 C   0  0  0  0  0  0  0  0  0  0  0  0
   63.7780   34.3640   51.3620 C   0  0  0  0  0  0  0  0  0  0  0  0
   65.0090   33.7160   51.6290 O   0  0  0  0  0  0  0  0  0  0  0  0
   65.4970   33.1030   50.4500 C   0  0  0  0  0  0  0  0  0  0  0  0
   64.5590   31.9830   49.9890 C   0  0  0  0  0  0  0  0  0  0  0  0
   62.0790   32.2010   47.6960 C   0  0  0  0  0  0  0  0  0  0  0  0
   62.8890   33.3350   47.1050 C   0  0  0  0  0  0  0  0  0  0  0  0
   63.0860   34.3160   48.0580 F   0  0  0  0  0  0  0  0  0  0  0  0
   62.2110   33.8790   46.0300 F   0  0  0  0  0  0  0  0  0  0  0  0
   64.1290   32.9050   46.6640 F   0  0  0  0  0  0  0  0  0  0  0  0
   61.1350   31.5100   46.9130 C   0  0  0  0  0  0  0  0  0  0  0  0
  1  2  2  0
  2  3  1  0
  3  4  2  3
  4  5  1  0
  5  6  2  0
  6  7  1  0
  6  8  1  0
  8  9  1  0
  9 10  2  0
  9 11  1  0
 11 12  1  0
 12 13  2  0
  3 14  1  0
 14 15  2  0
 15 16  1  0
 15 17  1  0
 17 18  1  0
 18 19  2  0
 19 20  1  0
 20 21  2  0
 21 22  1  0
 22 23  1  0
 23 24  1  0
 24 25  1  0
 25 26  1  0
 26 27  1  0
 21 28  1  0
 28 29  1  0
 29 30  1  0
 29 31  1  0
 29 32  1  0
 28 33  2  0
 17  2  1  0
 33 18  1  0
 12  5  1  0
 27 22  1  0
M  CHG  3   7  -1   8  -1  11  -1
M  END
>  <UniqueID>  (1430) 
1

>  <SMILES>  (1430) 
C=c1c(=Cc2c([O-])[n-]c(=S)[n-]c2=O)cc(C)n1-c1ccc(N2CCOCC2)c(C(F)(F)F)c1

>  <Energy>  (1430) 
110.58580141814608

>  <Genealogy>  (1430) 
C=c1c(=Cc2c([O-])[n-]c(=S)[n-]c2=O)cc(C)n1-c1ccc(N2CCOCC2)c(C(F)(F)F)c1 (protonated)
C=c1c(=Cc2c([O-])[n-]c(=S)[n-]c2=O)cc(C)n1-c1ccc(N2CCOCC2)c(C(F)(F)F)c1 (3D coordinates assigned)
C=c1c(=Cc2c([O-])[n-]c(=S)[n-]c2=O)cc(C)n1-c1ccc(N2CCOCC2)c(C(F)(F)F)c1 (nonaromatic ring conformer: 110.58580141814608 kcal/mol)

>  <smiles>  (1430) 
C=c1c(=Cc2c(O)[nH]c(=S)[nH]c2=O)cc(C)n1-c1ccc(N2CCOCC2)c(C(F)(F)F)c1

>  <score_type>  (1430) 
oracle

>  <origin>  (1430) 
adg

>  <m_score__min__energy>  (1430) 
-15.210000000000001

>  <m_primary>  (1430) 
energy

$$$$
1:0
     RDKit          3D

 25 27  0  0  0  0  0  0  0  0999 V2000
   57.3690   21.1290   43.0120 C   0  0  0  0  0  0  0  0  0  0  0  0
   56.3480   22.2090   43.2060 C   0  0  0  0  0  0  0  0  0  0  0  0
   55.5160   22.4150   42.2830 O   0  0  0  0  0  0  0  0  0  0  0  0
   56.2890   23.0380   44.4410 C   0  0  0  0  0  0  0  0  0  0  0  0
   57.4920   23.5250   44.9900 C   0  0  0  0  0  0  0  0  0  0  0  0
   57.4930   24.2850   46.1650 C   0  0  0  0  0  0  0  0  0  0  0  0
   58.7420   24.7740   46.6730 N   0  0  0  0  0  0  0  0  0  0  0  0
   59.0010   26.0930   47.1730 C   0  0  0  0  0  0  0  0  0  0  0  0
   60.1910   26.4290   47.4120 O   0  0  0  0  0  0  0  0  0  0  0  0
   57.8910   27.0650   47.4640 C   0  0  0  0  0  0  0  0  0  0  0  0
   57.7300   27.9980   46.3500 N   0  0  0  0  0  0  0  0  0  0  0  0
   56.6520   28.1130   45.5430 C   0  0  0  0  0  0  0  0  0  0  0  0
   55.5240   27.3050   45.6260 O   0  0  0  0  0  0  0  0  0  0  0  0
   56.8310   29.1480   44.6470 C   0  0  0  0  0  0  0  0  0  0  0  0
   58.0580   29.6970   44.9230 C   0  0  0  0  0  0  0  0  0  0  0  0
   58.5830   28.9780   45.9780 C   0  0  0  0  0  0  0  0  0  0  0  0
   59.8080   29.2220   46.5890 O   0  0  0  0  0  0  0  0  0  0  0  0
   58.6300   30.8780   44.2070 C   0  0  0  0  0  0  0  0  0  0  0  0
   57.7270   31.3400   43.0800 C   0  0  0  0  0  0  0  0  0  0  0  0
   56.5180   30.7990   42.8080 C   0  0  0  0  0  0  0  0  0  0  0  0
   55.9020   29.6580   43.5940 C   0  0  0  0  0  0  0  0  0  0  0  0
   56.2740   24.6120   46.7760 C   0  0  0  0  0  0  0  0  0  0  0  0
   55.0740   24.1490   46.2380 C   0  0  0  0  0  0  0  0  0  0  0  0
   55.0700   23.3690   45.0770 C   0  0  0  0  0  0  0  0  0  0  0  0
   53.8480   22.9600   44.5570 O   0  0  0  0  0  0  0  0  0  0  0  0
  1  2  1  0
  2  3  2  0
  2  4  1  0
  4  5  2  0
  5  6  1  0
  6  7  1  0
  7  8  1  0
  8  9  2  0
  8 10  1  0
 10 11  1  0
 11 12  1  0
 12 13  1  0
 12 14  2  0
 14 15  1  0
 15 16  2  0
 16 17  1  0
 15 18  1  0
 18 19  1  0
 19 20  2  0
 20 21  1  0
  6 22  2  0
 22 23  1  0
 23 24  2  0
 24 25  1  0
 24  4  1  0
 16 11  1  0
 21 14  1  0
M  CHG  4   7  -1  13  -1  17  -1  25  -1
M  END
>  <UniqueID>  (1431) 
2

>  <SMILES>  (1431) 
CC(=O)c1cc([N-]C(=O)Cn2c([O-])c3c(c2[O-])CC=CC3)ccc1[O-]

>  <Energy>  (1431) 
80.43570202828926

>  <Genealogy>  (1431) 
CC(=O)c1cc([N-]C(=O)Cn2c([O-])c3c(c2[O-])CC=CC3)ccc1[O-] (protonated)
CC(=O)c1cc([N-]C(=O)Cn2c([O-])c3c(c2[O-])CC=CC3)ccc1[O-] (3D coordinates assigned)
CC(=O)c1cc([N-]C(=O)Cn2c([O-])c3c(c2[O-])CC=CC3)ccc1[O-] (nonaromatic ring conformer: 80.43570202828926 kcal/mol)

>  <smiles>  (1431) 
CC(=O)c1cc(NC(=O)Cn2c(O)c3c(c2O)CC=CC3)ccc1O

>  <score_type>  (1431) 
oracle

>  <origin>  (1431) 
adg

>  <m_score__min__energy>  (1431) 
-14.32

>  <m_primary>  (1431) 
energy

$$$$
9:0
     RDKit          3D

 24 26  0  0  0  0  0  0  0  0999 V2000
   59.5590   28.6930   44.4160 C   0  0  0  0  0  0  0  0  0  0  0  0
   58.7820   29.8050   44.4740 N   0  0  0  0  0  0  0  0  0  0  0  0
   57.5650   29.7800   45.0800 C   0  0  0  0  0  0  0  0  0  0  0  0
   56.8250   30.8470   45.1590 N   0  0  0  0  0  0  0  0  0  0  0  0
   57.2460   32.2060   44.9600 C   0  0  0  0  0  0  0  0  0  0  0  0
   57.4690   32.6010   43.7850 O   0  0  0  0  0  0  0  0  0  0  0  0
   57.4510   33.1610   46.1130 C   0  0  0  0  0  0  0  0  0  0  0  0
   58.1410   32.4960   47.3140 C   0  0  0  0  0  0  0  0  0  0  0  0
   59.6430   32.5910   47.2150 C   0  0  0  0  0  0  0  0  0  0  0  0
   60.2490   33.7830   46.7850 C   0  0  0  0  0  0  0  0  0  0  0  0
   61.6430   33.8820   46.7200 C   0  0  0  0  0  0  0  0  0  0  0  0
   62.4400   32.7940   47.0880 C   0  0  0  0  0  0  0  0  0  0  0  0
   61.8450   31.6070   47.5240 C   0  0  0  0  0  0  0  0  0  0  0  0
   60.4530   31.5040   47.5890 C   0  0  0  0  0  0  0  0  0  0  0  0
   57.1260   28.6280   45.6540 N   0  0  0  0  0  0  0  0  0  0  0  0
   57.8660   27.4860   45.6240 C   0  0  0  0  0  0  0  0  0  0  0  0
   57.3420   26.2550   46.2580 C   0  0  0  0  0  0  0  0  0  0  0  0
   58.2740   25.0060   46.9120 S   0  0  0  0  0  0  0  0  0  0  0  0
   56.9280   24.1110   47.3660 C   0  0  0  0  0  0  0  0  0  0  0  0
   56.9790   22.9960   47.9430 O   0  0  0  0  0  0  0  0  0  0  0  0
   55.7700   24.7210   47.0410 N   0  0  0  0  0  0  0  0  0  0  0  0
   55.9970   25.9110   46.4260 C   0  0  0  0  0  0  0  0  0  0  0  0
   54.9450   26.7150   46.0020 O   0  0  0  0  0  0  0  0  0  0  0  0
   59.1160   27.5030   44.9910 C   0  0  0  0  0  0  0  0  0  0  0  0
  1  2  1  0
  2  3  1  0
  3  4  2  0
  4  5  1  0
  5  6  2  0
  5  7  1  0
  7  8  1  0
  8  9  1  0
  9 10  2  0
 10 11  1  0
 11 12  2  0
 12 13  1  0
 13 14  2  0
  3 15  1  0
 15 16  2  0
 16 17  1  0
 17 18  1  0
 18 19  1  0
 19 20  2  0
 19 21  1  0
 21 22  1  0
 22 23  1  0
 16 24  1  0
 24  1  2  0
 14  9  1  0
 22 17  2  0
M  CHG  3   2  -1  21  -1  23  -1
M  END
>  <UniqueID>  (1432) 
9

>  <SMILES>  (1432) 
O=C(CCc1ccccc1)/N=c1/nc(-c2sc(=O)[n-]c2[O-])cc[n-]1

>  <Energy>  (1432) 
73.77869256428708

>  <Genealogy>  (1432) 
O=C(CCc1ccccc1)N=c1nc(-c2sc(=O)[n-]c2[O-])cc[n-]1 (protonated)
O=C(CCc1ccccc1)/N=c1/nc(-c2sc(=O)[n-]c2[O-])cc[n-]1 (cis-trans isomerization)
O=C(CCc1ccccc1)/N=c1/nc(-c2sc(=O)[n-]c2[O-])cc[n-]1 (3D coordinates assigned)
O=C(CCc1ccccc1)/N=c1/nc(-c2sc(=O)[n-]c2[O-])cc[n-]1 (optimized conformer: 73.77869256428708 kcal/mol)

>  <smiles>  (1432) 
O=C(CCc1ccccc1)N=c1nc(-c2sc(=O)[nH]c2O)cc[nH]1

>  <score_type>  (1432) 
oracle

>  <origin>  (1432) 
adg

>  <m_score__min__energy>  (1432) 
-15.529999999999999

>  <m_primary>  (1432) 
energy

$$$$
16:0
     RDKit          3D

 36 40  0  0  0  0  0  0  0  0999 V2000
   60.3160   29.0620   47.7040 C   0  0  0  0  0  0  0  0  0  0  0  0
   59.4000   29.7060   46.9660 C   0  0  0  0  0  0  0  0  0  0  0  0
   58.6410   29.1820   45.9060 C   0  0  0  0  0  0  0  0  0  0  0  0
   58.4750   27.9140   45.4790 C   0  0  0  0  0  0  0  0  0  0  0  0
   57.3550   27.0280   45.8380 C   0  0  0  0  0  0  0  0  0  0  0  0
   56.0590   27.3130   45.6100 N   0  0  0  0  0  0  0  0  0  0  0  0
   55.4230   26.1760   45.9630 C   0  0  0  0  0  0  0  0  0  0  0  0
   54.1710   26.0550   45.9070 O   0  0  0  0  0  0  0  0  0  0  0  0
   56.2320   25.1770   46.3720 N   0  0  0  0  0  0  0  0  0  0  0  0
   57.4530   25.7270   46.2740 C   0  0  0  0  0  0  0  0  0  0  0  0
   58.6280   25.0440   46.5790 O   0  0  0  0  0  0  0  0  0  0  0  0
   57.9830   30.2580   45.3310 C   0  0  0  0  0  0  0  0  0  0  0  0
   58.3040   31.3710   46.0800 C   0  0  0  0  0  0  0  0  0  0  0  0
   57.7590   32.7470   45.8460 C   0  0  0  0  0  0  0  0  0  0  0  0
   59.1520   31.0360   47.0780 N   0  0  0  0  0  0  0  0  0  0  0  0
   59.7000   31.9490   48.0440 C   0  0  0  0  0  0  0  0  0  0  0  0
   60.6170   32.9330   47.6490 C   0  0  0  0  0  0  0  0  0  0  0  0
   61.1410   33.8220   48.5900 C   0  0  0  0  0  0  0  0  0  0  0  0
   60.7530   33.7350   49.9300 C   0  0  0  0  0  0  0  0  0  0  0  0
   59.8410   32.7500   50.3400 C   0  0  0  0  0  0  0  0  0  0  0  0
   59.4160   32.6600   51.7530 C   0  0  0  0  0  0  0  0  0  0  0  0
   60.0840   33.2710   52.6320 O   0  0  0  0  0  0  0  0  0  0  0  0
   58.2550   31.9010   52.1400 N   0  0  0  0  0  0  0  0  0  0  0  0
   58.1960   31.3280   53.4930 C   0  0  0  0  0  0  0  0  0  0  0  0
   57.3130   30.0610   53.5520 C   0  0  0  0  0  0  0  0  0  0  0  0
   56.3870   29.9290   52.4040 N   0  0  0  0  0  0  0  0  0  0  0  0
   55.2840   29.0040   52.7310 C   0  0  0  0  0  0  0  0  0  0  0  0
   53.9550   29.6960   52.5820 C   0  0  0  0  0  0  0  0  0  0  0  0
   53.3320   29.7880   51.3260 C   0  0  0  0  0  0  0  0  0  0  0  0
   52.0900   30.4170   51.2020 C   0  0  0  0  0  0  0  0  0  0  0  0
   51.4600   30.9560   52.3270 C   0  0  0  0  0  0  0  0  0  0  0  0
   52.0740   30.8670   53.5790 C   0  0  0  0  0  0  0  0  0  0  0  0
   53.3160   30.2380   53.7090 C   0  0  0  0  0  0  0  0  0  0  0  0
   55.8760   31.2450   51.9810 C   0  0  0  0  0  0  0  0  0  0  0  0
   57.0240   32.0260   51.3460 C   0  0  0  0  0  0  0  0  0  0  0  0
   59.3040   31.8700   49.3870 C   0  0  0  0  0  0  0  0  0  0  0  0
  1  2  2  0
  2  3  1  0
  3  4  2  3
  4  5  1  0
  5  6  1  0
  6  7  1  0
  7  8  2  0
  7  9  1  0
  9 10  1  0
 10 11  1  0
  3 12  1  0
 12 13  2  0
 13 14  1  0
 13 15  1  0
 15 16  1  0
 16 17  2  0
 17 18  1  0
 18 19  2  0
 19 20  1  0
 20 21  1  0
 21 22  2  0
 21 23  1  0
 23 24  1  0
 24 25  1  0
 25 26  1  0
 26 27  1  0
 27 28  1  0
 28 29  2  0
 29 30  1  0
 30 31  2  0
 31 32  1  0
 32 33  2  0
 26 34  1  0
 34 35  1  0
 20 36  2  0
 15  2  1  0
 36 16  1  0
 10  5  2  0
 35 23  1  0
 33 28  1  0
M  CHG  2   6  -1   9  -1
M  END
>  <UniqueID>  (1433) 
16

>  <SMILES>  (1433) 
C=c1c(=Cc2[n-]c(=O)[n-]c2O)cc(C)n1-c1cccc(C(=O)N2CCN(Cc3ccccc3)CC2)c1

>  <Energy>  (1433) 
152.94506745357043

>  <Genealogy>  (1433) 
C=c1c(=Cc2[n-]c(=O)[n-]c2O)cc(C)n1-c1cccc(C(=O)N2CCN(Cc3ccccc3)CC2)c1 (protonated)
C=c1c(=Cc2[n-]c(=O)[n-]c2O)cc(C)n1-c1cccc(C(=O)N2CCN(Cc3ccccc3)CC2)c1 (3D coordinates assigned)
C=c1c(=Cc2[n-]c(=O)[n-]c2O)cc(C)n1-c1cccc(C(=O)N2CCN(Cc3ccccc3)CC2)c1 (nonaromatic ring conformer: 152.94506745357043 kcal/mol)

>  <smiles>  (1433) 
C=c1c(=Cc2[nH]c(=O)[nH]c2O)cc(C)n1-c1cccc(C(=O)N2CCN(Cc3ccccc3)CC2)c1

>  <score_type>  (1433) 
oracle

>  <origin>  (1433) 
adg

>  <m_score__min__energy>  (1433) 
-14.640000000000001

>  <m_primary>  (1433) 
energy

$$$$
19:0
     RDKit          3D

 35 39  0  0  0  0  0  0  0  0999 V2000
   56.2240   31.8870   52.5080 C   0  0  0  0  0  0  0  0  0  0  0  0
   55.6510   30.7350   52.8890 C   0  0  0  0  0  0  0  0  0  0  0  0
   54.2880   30.3980   52.8190 C   0  0  0  0  0  0  0  0  0  0  0  0
   53.2020   31.1460   52.5450 C   0  0  0  0  0  0  0  0  0  0  0  0
   52.4420   31.1320   51.2860 C   0  0  0  0  0  0  0  0  0  0  0  0
   52.5230   30.1410   50.3810 N   0  0  0  0  0  0  0  0  0  0  0  0
   51.5870   30.4760   49.4650 C   0  0  0  0  0  0  0  0  0  0  0  0
   51.3710   29.7870   48.4340 O   0  0  0  0  0  0  0  0  0  0  0  0
   50.8960   31.6010   49.7460 N   0  0  0  0  0  0  0  0  0  0  0  0
   51.4390   31.9970   50.9100 C   0  0  0  0  0  0  0  0  0  0  0  0
   51.0110   33.1100   51.6220 O   0  0  0  0  0  0  0  0  0  0  0  0
   54.2100   29.0430   53.1010 C   0  0  0  0  0  0  0  0  0  0  0  0
   55.4890   28.6190   53.3930 C   0  0  0  0  0  0  0  0  0  0  0  0
   55.8590   27.2160   53.7650 C   0  0  0  0  0  0  0  0  0  0  0  0
   56.3640   29.6420   53.2660 N   0  0  0  0  0  0  0  0  0  0  0  0
   57.7870   29.5550   53.4490 C   0  0  0  0  0  0  0  0  0  0  0  0
   58.3390   29.6040   54.7370 C   0  0  0  0  0  0  0  0  0  0  0  0
   59.7230   29.5220   54.9140 C   0  0  0  0  0  0  0  0  0  0  0  0
   60.5740   29.3870   53.8030 C   0  0  0  0  0  0  0  0  0  0  0  0
   62.0420   29.3130   53.9870 C   0  0  0  0  0  0  0  0  0  0  0  0
   62.5110   28.7580   55.0190 O   0  0  0  0  0  0  0  0  0  0  0  0
   62.9410   29.8480   53.0000 N   0  0  0  0  0  0  0  0  0  0  0  0
   62.8070   31.2500   52.5840 C   0  0  0  0  0  0  0  0  0  0  0  0
   63.2250   31.4100   51.1190 C   0  0  0  0  0  0  0  0  0  0  0  0
   64.6580   30.8630   50.8760 C   0  0  0  0  0  0  0  0  0  0  0  0
   65.6780   31.6880   51.5970 N   0  0  0  0  0  0  0  0  0  0  0  0
   67.0010   31.0250   51.7250 C   0  0  0  0  0  0  0  0  0  0  0  0
   68.0240   31.9570   52.3820 C   0  0  0  0  0  0  0  0  0  0  0  0
   68.2480   33.2390   51.5670 C   0  0  0  0  0  0  0  0  0  0  0  0
   67.1660   33.4540   50.5050 C   0  0  0  0  0  0  0  0  0  0  0  0
   65.7730   33.0730   51.0350 C   0  0  0  0  0  0  0  0  0  0  0  0
   64.6450   29.3650   51.2900 C   0  0  0  0  0  0  0  0  0  0  0  0
   64.2200   29.1750   52.7530 C   0  0  0  0  0  0  0  0  0  0  0  0
   60.0180   29.3510   52.5140 C   0  0  0  0  0  0  0  0  0  0  0  0
   58.6320   29.4260   52.3390 C   0  0  0  0  0  0  0  0  0  0  0  0
  1  2  2  0
  2  3  1  0
  3  4  2  3
  4  5  1  0
  5  6  1  0
  6  7  1  0
  7  8  2  0
  7  9  1  0
  9 10  1  0
 10 11  1  0
  3 12  1  0
 12 13  2  0
 13 14  1  0
 13 15  1  0
 15 16  1  0
 16 17  2  0
 17 18  1  0
 18 19  2  0
 19 20  1  0
 20 21  2  0
 20 22  1  0
 22 23  1  0
 23 24  1  0
 24 25  1  0
 25 26  1  0
 26 27  1  0
 27 28  1  0
 28 29  1  0
 29 30  1  0
 30 31  1  0
 25 32  1  0
 32 33  1  0
 19 34  1  0
 34 35  2  0
 15  2  1  0
 35 16  1  0
 10  5  2  0
 33 22  1  0
 31 26  1  0
M  CHG  3   6  -1   9  -1  11  -1
M  END
>  <UniqueID>  (1434) 
19

>  <SMILES>  (1434) 
C=c1c(=Cc2[n-]c(=O)[n-]c2[O-])cc(C)n1-c1ccc(C(=O)N2CCC(N3CCCCC3)CC2)cc1

>  <Energy>  (1434) 
160.34830124610284

>  <Genealogy>  (1434) 
C=c1c(=Cc2[n-]c(=O)[n-]c2[O-])cc(C)n1-c1ccc(C(=O)N2CCC(N3CCCCC3)CC2)cc1 (protonated)
C=c1c(=Cc2[n-]c(=O)[n-]c2[O-])cc(C)n1-c1ccc(C(=O)N2CCC(N3CCCCC3)CC2)cc1 (3D coordinates assigned)
C=c1c(=Cc2[n-]c(=O)[n-]c2[O-])cc(C)n1-c1ccc(C(=O)N2CCC(N3CCCCC3)CC2)cc1 (nonaromatic ring conformer: 160.34830124610284 kcal/mol)

>  <smiles>  (1434) 
C=c1c(=Cc2[nH]c(=O)[nH]c2O)cc(C)n1-c1ccc(C(=O)N2CCC(N3CCCCC3)CC2)cc1

>  <score_type>  (1434) 
oracle

>  <origin>  (1434) 
adg

>  <m_score__min__energy>  (1434) 
-17.07

>  <m_primary>  (1434) 
energy

$$$$
30:0
     RDKit          3D

 28 31  0  0  0  0  0  0  0  0999 V2000
   54.3510   29.4620   51.5890 C   0  0  0  0  0  0  0  0  0  0  0  0
   54.4210   29.8910   52.8600 C   0  0  0  0  0  0  0  0  0  0  0  0
   53.3690   30.4430   53.6130 C   0  0  0  0  0  0  0  0  0  0  0  0
   52.1430   30.8660   53.2460 C   0  0  0  0  0  0  0  0  0  0  0  0
   51.6660   31.0090   51.8610 C   0  0  0  0  0  0  0  0  0  0  0  0
   51.8820   30.1260   50.8710 N   0  0  0  0  0  0  0  0  0  0  0  0
   51.4010   30.7320   49.7660 C   0  0  0  0  0  0  0  0  0  0  0  0
   51.4240   30.1980   48.6260 O   0  0  0  0  0  0  0  0  0  0  0  0
   50.9060   31.9690   49.9870 N   0  0  0  0  0  0  0  0  0  0  0  0
   51.0950   32.1340   51.3100 C   0  0  0  0  0  0  0  0  0  0  0  0
   50.7590   33.2920   51.9990 O   0  0  0  0  0  0  0  0  0  0  0  0
   53.8280   30.5320   54.9130 C   0  0  0  0  0  0  0  0  0  0  0  0
   55.1390   30.1070   54.9060 C   0  0  0  0  0  0  0  0  0  0  0  0
   56.0360   30.1270   56.1070 C   0  0  0  0  0  0  0  0  0  0  0  0
   55.5090   29.7200   53.6620 N   0  0  0  0  0  0  0  0  0  0  0  0
   56.8570   29.2610   53.2830 C   0  0  0  0  0  0  0  0  0  0  0  0
   57.4510   30.1770   52.2440 C   0  0  0  0  0  0  0  0  0  0  0  0
   58.2590   29.6650   51.2230 C   0  0  0  0  0  0  0  0  0  0  0  0
   58.8300   30.5150   50.2730 C   0  0  0  0  0  0  0  0  0  0  0  0
   58.6060   31.9110   50.3130 C   0  0  0  0  0  0  0  0  0  0  0  0
   59.2050   32.8040   49.3240 N   0  0  0  0  0  0  0  0  0  0  0  0
   58.6260   32.8730   47.9640 C   0  0  0  0  0  0  0  0  0  0  0  0
   59.3960   33.7940   47.0140 C   0  0  0  0  0  0  0  0  0  0  0  0
   59.8640   34.9390   47.6850 O   0  0  0  0  0  0  0  0  0  0  0  0
   60.8700   34.5430   48.5860 C   0  0  0  0  0  0  0  0  0  0  0  0
   60.2790   33.7310   49.7420 C   0  0  0  0  0  0  0  0  0  0  0  0
   57.7880   32.4110   51.3540 C   0  0  0  0  0  0  0  0  0  0  0  0
   57.2200   31.5550   52.3000 C   0  0  0  0  0  0  0  0  0  0  0  0
  1  2  2  0
  2  3  1  0
  3  4  2  3
  4  5  1  0
  5  6  1  0
  6  7  1  0
  7  8  2  0
  7  9  1  0
  9 10  1  0
 10 11  1  0
  3 12  1  0
 12 13  2  0
 13 14  1  0
 13 15  1  0
 15 16  1  0
 16 17  1  0
 17 18  2  0
 18 19  1  0
 19 20  2  0
 20 21  1  0
 21 22  1  0
 22 23  1  0
 23 24  1  0
 24 25  1  0
 25 26  1  0
 20 27  1  0
 27 28  2  0
 15  2  1  0
 28 17  1  0
 10  5  2  0
 26 21  1  0
M  CHG  2   9  -1  11  -1
M  END
>  <UniqueID>  (1435) 
29

>  <SMILES>  (1435) 
C=c1c(=Cc2[nH]c(=O)[n-]c2[O-])cc(C)n1Cc1ccc(N2CCOCC2)cc1

>  <Energy>  (1435) 
130.68330285390206

>  <Genealogy>  (1435) 
C=c1c(=Cc2[nH]c(=O)[n-]c2[O-])cc(C)n1Cc1ccc(N2CCOCC2)cc1 (protonated)
C=c1c(=Cc2[nH]c(=O)[n-]c2[O-])cc(C)n1Cc1ccc(N2CCOCC2)cc1 (3D coordinates assigned)
C=c1c(=Cc2[nH]c(=O)[n-]c2[O-])cc(C)n1Cc1ccc(N2CCOCC2)cc1 (nonaromatic ring conformer: 130.68330285390206 kcal/mol)

>  <smiles>  (1435) 
C=c1c(=Cc2[nH]c(=O)[nH]c2O)cc(C)n1Cc1ccc(N2CCOCC2)cc1

>  <score_type>  (1435) 
oracle

>  <origin>  (1435) 
adg

>  <m_score__min__energy>  (1435) 
-14.539999999999999

>  <m_primary>  (1435) 
energy

$$$$
45:0
     RDKit          3D

 36 40  0  0  0  0  0  0  0  0999 V2000
   59.2860   27.1860   47.3110 C   0  0  0  0  0  0  0  0  0  0  0  0
   58.8080   28.0470   46.4020 C   0  0  0  0  0  0  0  0  0  0  0  0
   58.1830   27.7370   45.1830 C   0  0  0  0  0  0  0  0  0  0  0  0
   57.7080   26.5710   44.7050 C   0  0  0  0  0  0  0  0  0  0  0  0
   57.0710   25.5110   45.5060 C   0  0  0  0  0  0  0  0  0  0  0  0
   57.6860   24.3870   45.9190 N   0  0  0  0  0  0  0  0  0  0  0  0
   56.7970   23.8390   46.7720 C   0  0  0  0  0  0  0  0  0  0  0  0
   57.0120   22.7520   47.3690 O   0  0  0  0  0  0  0  0  0  0  0  0
   55.6690   24.5580   46.9540 N   0  0  0  0  0  0  0  0  0  0  0  0
   55.8660   25.6180   46.1550 C   0  0  0  0  0  0  0  0  0  0  0  0
   54.9660   26.6710   46.0250 O   0  0  0  0  0  0  0  0  0  0  0  0
   58.0940   28.9280   44.4780 C   0  0  0  0  0  0  0  0  0  0  0  0
   58.5860   29.9190   45.3060 C   0  0  0  0  0  0  0  0  0  0  0  0
   58.6540   31.3750   44.9590 C   0  0  0  0  0  0  0  0  0  0  0  0
   59.0180   29.3860   46.4670 N   0  0  0  0  0  0  0  0  0  0  0  0
   59.6690   30.1120   47.5200 C   0  0  0  0  0  0  0  0  0  0  0  0
   60.7840   30.9130   47.2330 C   0  0  0  0  0  0  0  0  0  0  0  0
   61.4460   31.5880   48.2620 C   0  0  0  0  0  0  0  0  0  0  0  0
   60.9860   31.4890   49.5870 C   0  0  0  0  0  0  0  0  0  0  0  0
   61.6840   32.1860   50.6880 C   0  0  0  0  0  0  0  0  0  0  0  0
   61.0930   33.1400   51.2660 O   0  0  0  0  0  0  0  0  0  0  0  0
   63.0320   31.8350   51.0820 N   0  0  0  0  0  0  0  0  0  0  0  0
   63.9770   31.2800   50.1000 C   0  0  0  0  0  0  0  0  0  0  0  0
   65.4380   31.6030   50.4660 C   0  0  0  0  0  0  0  0  0  0  0  0
   65.5650   33.0690   50.9620 C   0  0  0  0  0  0  0  0  0  0  0  0
   66.9640   33.4930   51.2840 N   0  0  0  0  0  0  0  0  0  0  0  0
   67.1600   34.9590   51.3450 C   0  0  0  0  0  0  0  0  0  0  0  0
   68.6390   35.3020   51.6470 C   0  0  0  0  0  0  0  0  0  0  0  0
   69.3660   34.2220   52.2100 O   0  0  0  0  0  0  0  0  0  0  0  0
   68.5910   33.5930   53.2030 C   0  0  0  0  0  0  0  0  0  0  0  0
   67.4150   32.8470   52.5490 C   0  0  0  0  0  0  0  0  0  0  0  0
   64.6600   33.3000   52.2110 C   0  0  0  0  0  0  0  0  0  0  0  0
   63.5520   32.2510   52.3900 C   0  0  0  0  0  0  0  0  0  0  0  0
   59.8770   30.6720   49.8700 C   0  0  0  0  0  0  0  0  0  0  0  0
   59.2200   29.9910   48.8420 C   0  0  0  0  0  0  0  0  0  0  0  0
   58.1440   29.2150   49.1300 F   0  0  0  0  0  0  0  0  0  0  0  0
  1  2  2  0
  2  3  1  0
  3  4  2  3
  4  5  1  0
  5  6  1  0
  6  7  1  0
  7  8  2  0
  7  9  1  0
  9 10  1  0
 10 11  1  0
  3 12  1  0
 12 13  2  0
 13 14  1  0
 13 15  1  0
 15 16  1  0
 16 17  2  0
 17 18  1  0
 18 19  2  0
 19 20  1  0
 20 21  2  0
 20 22  1  0
 22 23  1  0
 23 24  1  0
 24 25  1  0
 25 26  1  0
 26 27  1  0
 27 28  1  0
 28 29  1  0
 29 30  1  0
 30 31  1  0
 25 32  1  0
 32 33  1  0
 19 34  1  0
 34 35  2  0
 35 36  1  0
 15  2  1  0
 35 16  1  0
 10  5  2  0
 33 22  1  0
 31 26  1  0
M  CHG  3   6  -1   9  -1  11  -1
M  END
>  <UniqueID>  (1436) 
44

>  <SMILES>  (1436) 
C=c1c(=Cc2[n-]c(=O)[n-]c2[O-])cc(C)n1-c1ccc(C(=O)N2CCC(N3CCOCC3)CC2)cc1F

>  <Energy>  (1436) 
167.2018929404184

>  <Genealogy>  (1436) 
C=c1c(=Cc2[n-]c(=O)[n-]c2[O-])cc(C)n1-c1ccc(C(=O)N2CCC(N3CCOCC3)CC2)cc1F (protonated)
C=c1c(=Cc2[n-]c(=O)[n-]c2[O-])cc(C)n1-c1ccc(C(=O)N2CCC(N3CCOCC3)CC2)cc1F (3D coordinates assigned)
C=c1c(=Cc2[n-]c(=O)[n-]c2[O-])cc(C)n1-c1ccc(C(=O)N2CCC(N3CCOCC3)CC2)cc1F (nonaromatic ring conformer: 167.2018929404184 kcal/mol)

>  <smiles>  (1436) 
C=c1c(=Cc2[nH]c(=O)[nH]c2O)cc(C)n1-c1ccc(C(=O)N2CCC(N3CCOCC3)CC2)cc1F

>  <score_type>  (1436) 
oracle

>  <origin>  (1436) 
adg

>  <m_score__min__energy>  (1436) 
-15.92

>  <m_primary>  (1436) 
energy

$$$$
62:0
     RDKit          3D

 24 26  0  0  0  0  0  0  0  0999 V2000
   60.7160   30.2730   46.5500 C   0  0  0  0  0  0  0  0  0  0  0  0
   59.5370   29.9300   45.9870 C   0  0  0  0  0  0  0  0  0  0  0  0
   59.2690   28.5700   45.7050 C   0  0  0  0  0  0  0  0  0  0  0  0
   60.1230   27.6760   45.9750 O   0  0  0  0  0  0  0  0  0  0  0  0
   58.0390   28.2210   45.1160 C   0  0  0  0  0  0  0  0  0  0  0  0
   57.7290   26.9370   44.8480 C   0  0  0  0  0  0  0  0  0  0  0  0
   57.1950   25.9830   45.8430 C   0  0  0  0  0  0  0  0  0  0  0  0
   57.9220   24.9690   46.3440 N   0  0  0  0  0  0  0  0  0  0  0  0
   57.0500   24.3220   47.1480 C   0  0  0  0  0  0  0  0  0  0  0  0
   57.3710   23.3040   47.8160 O   0  0  0  0  0  0  0  0  0  0  0  0
   55.8080   24.8460   47.1740 N   0  0  0  0  0  0  0  0  0  0  0  0
   55.9090   25.8890   46.3350 C   0  0  0  0  0  0  0  0  0  0  0  0
   54.8350   26.7010   45.9940 O   0  0  0  0  0  0  0  0  0  0  0  0
   57.1420   29.2030   44.8520 N   0  0  0  0  0  0  0  0  0  0  0  0
   57.3940   30.5060   45.1190 C   0  0  0  0  0  0  0  0  0  0  0  0
   56.5140   31.3650   44.8400 O   0  0  0  0  0  0  0  0  0  0  0  0
   58.5850   30.8820   45.6810 N   0  0  0  0  0  0  0  0  0  0  0  0
   58.8030   32.2850   45.9400 C   0  0  0  0  0  0  0  0  0  0  0  0
   58.9040   33.1830   44.8670 C   0  0  0  0  0  0  0  0  0  0  0  0
   59.1160   34.5430   45.1060 C   0  0  0  0  0  0  0  0  0  0  0  0
   59.2280   35.0150   46.4170 C   0  0  0  0  0  0  0  0  0  0  0  0
   59.1300   34.1270   47.4920 C   0  0  0  0  0  0  0  0  0  0  0  0
   58.9180   32.7620   47.2600 C   0  0  0  0  0  0  0  0  0  0  0  0
   58.7970   31.6670   48.6300 Cl  0  0  0  0  0  0  0  0  0  0  0  0
  1  2  2  0
  2  3  1  0
  3  4  2  0
  3  5  1  0
  5  6  2  0
  6  7  1  0
  7  8  1  0
  8  9  1  0
  9 10  2  0
  9 11  1  0
 11 12  1  0
 12 13  1  0
  5 14  1  0
 14 15  1  0
 15 16  2  0
 15 17  1  0
 17 18  1  0
 18 19  2  0
 19 20  1  0
 20 21  2  0
 21 22  1  0
 22 23  2  0
 23 24  1  0
 17  2  1  0
 23 18  1  0
 12  7  2  0
M  CHG  4   8  -1  11  -1  13  -1  14  -1
M  END
>  <UniqueID>  (1437) 
57

>  <SMILES>  (1437) 
C=c1c(=O)/c(=C/c2[n-]c(=O)[n-]c2[O-])[n-]c(=O)n1-c1ccccc1Cl

>  <Energy>  (1437) 
86.69779955059188

>  <Genealogy>  (1437) 
C=c1c(=O)c(=Cc2[n-]c(=O)[n-]c2[O-])[n-]c(=O)n1-c1ccccc1Cl (protonated)
C=c1c(=O)/c(=C/c2[n-]c(=O)[n-]c2[O-])[n-]c(=O)n1-c1ccccc1Cl (cis-trans isomerization)
C=c1c(=O)/c(=C/c2[n-]c(=O)[n-]c2[O-])[n-]c(=O)n1-c1ccccc1Cl (3D coordinates assigned)
C=c1c(=O)/c(=C/c2[n-]c(=O)[n-]c2[O-])[n-]c(=O)n1-c1ccccc1Cl (optimized conformer: 86.69779955059188 kcal/mol)

>  <smiles>  (1437) 
C=c1c(=O)c(=Cc2[nH]c(=O)[nH]c2O)[nH]c(=O)n1-c1ccccc1Cl

>  <score_type>  (1437) 
oracle

>  <origin>  (1437) 
adg

>  <m_score__min__energy>  (1437) 
-17.359999999999999

>  <m_primary>  (1437) 
energy

$$$$
7:0
     RDKit          3D

 29 32  0  0  0  0  0  0  0  0999 V2000
   60.6920   29.3700   45.1750 C   0  0  0  0  0  0  0  0  0  0  0  0
   59.9120   29.2880   46.2650 C   0  0  0  0  0  0  0  0  0  0  0  0
   58.9600   28.2960   46.5500 C   0  0  0  0  0  0  0  0  0  0  0  0
   58.4040   27.3590   45.7600 C   0  0  0  0  0  0  0  0  0  0  0  0
   57.1450   26.6500   46.0400 C   0  0  0  0  0  0  0  0  0  0  0  0
   57.0640   25.3690   46.4500 N   0  0  0  0  0  0  0  0  0  0  0  0
   55.7380   25.1170   46.4240 C   0  0  0  0  0  0  0  0  0  0  0  0
   55.2530   24.0050   46.7570 O   0  0  0  0  0  0  0  0  0  0  0  0
   54.9730   26.1440   45.9960 N   0  0  0  0  0  0  0  0  0  0  0  0
   55.8820   27.1010   45.7450 C   0  0  0  0  0  0  0  0  0  0  0  0
   55.5640   28.3550   45.2430 O   0  0  0  0  0  0  0  0  0  0  0  0
   58.6090   28.4650   47.8790 C   0  0  0  0  0  0  0  0  0  0  0  0
   59.2790   29.5840   48.3290 C   0  0  0  0  0  0  0  0  0  0  0  0
   59.1530   30.1590   49.7070 C   0  0  0  0  0  0  0  0  0  0  0  0
   60.0610   30.0910   47.3490 N   0  0  0  0  0  0  0  0  0  0  0  0
   60.9590   31.2090   47.4870 C   0  0  0  0  0  0  0  0  0  0  0  0
   62.3430   30.9760   47.4880 C   0  0  0  0  0  0  0  0  0  0  0  0
   63.2410   32.0420   47.5550 C   0  0  0  0  0  0  0  0  0  0  0  0
   62.7660   33.3520   47.6120 C   0  0  0  0  0  0  0  0  0  0  0  0
   61.3920   33.5990   47.6040 C   0  0  0  0  0  0  0  0  0  0  0  0
   60.4760   32.5370   47.5590 C   0  0  0  0  0  0  0  0  0  0  0  0
   59.0290   32.8490   47.6060 C   0  0  0  0  0  0  0  0  0  0  0  0
   58.5680   33.4140   48.6370 O   0  0  0  0  0  0  0  0  0  0  0  0
   58.1270   32.3800   46.5700 N   0  0  0  0  0  0  0  0  0  0  0  0
   58.8600   32.0920   45.3110 C   0  0  0  0  0  0  0  0  0  0  0  0
   57.9340   32.2410   44.0920 C   0  0  0  0  0  0  0  0  0  0  0  0
   57.4070   33.5530   43.9370 O   0  0  0  0  0  0  0  0  0  0  0  0
   57.2610   34.2610   45.1600 C   0  0  0  0  0  0  0  0  0  0  0  0
   57.0180   33.3500   46.3790 C   0  0  0  0  0  0  0  0  0  0  0  0
  1  2  2  0
  2  3  1  0
  3  4  2  0
  4  5  1  0
  5  6  1  0
  6  7  1  0
  7  8  2  0
  7  9  1  0
  9 10  1  0
 10 11  1  0
  3 12  1  0
 12 13  2  0
 13 14  1  0
 13 15  1  0
 15 16  1  0
 16 17  2  0
 17 18  1  0
 18 19  2  0
 19 20  1  0
 20 21  2  0
 21 22  1  0
 22 23  2  0
 22 24  1  0
 24 25  1  0
 25 26  1  0
 26 27  1  0
 27 28  1  0
 28 29  1  0
 15  2  1  0
 21 16  1  0
 29 24  1  0
 10  5  2  0
M  CHG  4   6  -1   9  -1  11  -1  24   1
M  END
>  <UniqueID>  (1438) 
8

>  <SMILES>  (1438) 
C=c1/c(=C\c2[n-]c(=O)[n-]c2[O-])cc(C)n1-c1ccccc1C(=O)[NH+]1CCOCC1

>  <Energy>  (1438) 
145.76480862442807

>  <Genealogy>  (1438) 
C=c1c(=Cc2[n-]c(=O)[n-]c2[O-])cc(C)n1-c1ccccc1C(=O)[NH+]1CCOCC1 (protonated)
C=c1/c(=C\c2[n-]c(=O)[n-]c2[O-])cc(C)n1-c1ccccc1C(=O)[NH+]1CCOCC1 (cis-trans isomerization)
C=c1/c(=C\c2[n-]c(=O)[n-]c2[O-])cc(C)n1-c1ccccc1C(=O)[NH+]1CCOCC1 (3D coordinates assigned)
C=c1/c(=C\c2[n-]c(=O)[n-]c2[O-])cc(C)n1-c1ccccc1C(=O)[NH+]1CCOCC1 (nonaromatic ring conformer: 145.76480862442807 kcal/mol)

>  <smiles>  (1438) 
C=c1c(=Cc2[nH]c(=O)[nH]c2O)cc(C)n1-c1ccccc1C(=O)N1CCOCC1

>  <score_type>  (1438) 
oracle

>  <origin>  (1438) 
adg

>  <m_score__min__energy>  (1438) 
-14.83

>  <m_primary>  (1438) 
energy

$$$$
19:0
     RDKit          3D

 27 30  0  0  0  0  0  0  0  0999 V2000
   54.2340   28.5650   52.8720 C   0  0  0  0  0  0  0  0  0  0  0  0
   55.0220   29.6180   52.6030 C   0  0  0  0  0  0  0  0  0  0  0  0
   54.6530   30.8170   51.9700 C   0  0  0  0  0  0  0  0  0  0  0  0
   53.5240   31.1680   51.3240 C   0  0  0  0  0  0  0  0  0  0  0  0
   52.2970   31.6810   51.9550 C   0  0  0  0  0  0  0  0  0  0  0  0
   51.8480   31.3110   53.1700 N   0  0  0  0  0  0  0  0  0  0  0  0
   50.6440   31.9170   53.2530 C   0  0  0  0  0  0  0  0  0  0  0  0
   49.9080   31.8220   54.2700 O   0  0  0  0  0  0  0  0  0  0  0  0
   50.2870   32.6220   52.1600 N   0  0  0  0  0  0  0  0  0  0  0  0
   51.3370   32.4490   51.3430 C   0  0  0  0  0  0  0  0  0  0  0  0
   51.4170   32.9770   50.0610 O   0  0  0  0  0  0  0  0  0  0  0  0
   55.7400   31.6690   52.0900 C   0  0  0  0  0  0  0  0  0  0  0  0
   56.7370   30.9590   52.7260 C   0  0  0  0  0  0  0  0  0  0  0  0
   58.1050   31.4900   53.0270 C   0  0  0  0  0  0  0  0  0  0  0  0
   56.3080   29.7140   53.0280 N   0  0  0  0  0  0  0  0  0  0  0  0
   57.0700   28.7250   53.7420 C   0  0  0  0  0  0  0  0  0  0  0  0
   56.6500   28.2850   55.0040 C   0  0  0  0  0  0  0  0  0  0  0  0
   57.4050   27.3450   55.7050 C   0  0  0  0  0  0  0  0  0  0  0  0
   58.5840   26.8370   55.1530 C   0  0  0  0  0  0  0  0  0  0  0  0
   59.0200   27.2640   53.8850 C   0  0  0  0  0  0  0  0  0  0  0  0
   60.2770   26.7470   53.2900 C   0  0  0  0  0  0  0  0  0  0  0  0
   61.1410   27.6160   52.6940 N   0  0  0  0  0  0  0  0  0  0  0  0
   62.3020   27.1880   52.1350 C   0  0  0  0  0  0  0  0  0  0  0  0
   62.6280   25.8350   52.1640 C   0  0  0  0  0  0  0  0  0  0  0  0
   61.7350   24.9510   52.7650 C   0  0  0  0  0  0  0  0  0  0  0  0
   60.5800   25.4130   53.3140 N   0  0  0  0  0  0  0  0  0  0  0  0
   58.2570   28.2220   53.1920 C   0  0  0  0  0  0  0  0  0  0  0  0
  1  2  2  0
  2  3  1  0
  3  4  2  0
  4  5  1  0
  5  6  1  0
  6  7  1  0
  7  8  2  0
  7  9  1  0
  9 10  1  0
 10 11  1  0
  3 12  1  0
 12 13  2  0
 13 14  1  0
 13 15  1  0
 15 16  1  0
 16 17  2  0
 17 18  1  0
 18 19  2  0
 19 20  1  0
 20 21  1  0
 21 22  2  0
 22 23  1  0
 23 24  2  0
 24 25  1  0
 25 26  2  0
 20 27  2  0
 15  2  1  0
 27 16  1  0
 10  5  2  0
 26 21  1  0
M  CHG  4   6  -1   9  -1  11  -1  26   1
M  END
>  <UniqueID>  (1439) 
18

>  <SMILES>  (1439) 
C=c1/c(=C\c2[n-]c(=O)[n-]c2[O-])cc(C)n1-c1cccc(-c2nccc[nH+]2)c1

>  <Energy>  (1439) 
125.63126136196311

>  <Genealogy>  (1439) 
C=c1c(=Cc2[n-]c(=O)[n-]c2[O-])cc(C)n1-c1cccc(-c2nccc[nH+]2)c1 (protonated)
C=c1/c(=C\c2[n-]c(=O)[n-]c2[O-])cc(C)n1-c1cccc(-c2nccc[nH+]2)c1 (cis-trans isomerization)
C=c1/c(=C\c2[n-]c(=O)[n-]c2[O-])cc(C)n1-c1cccc(-c2nccc[nH+]2)c1 (3D coordinates assigned)
C=c1/c(=C\c2[n-]c(=O)[n-]c2[O-])cc(C)n1-c1cccc(-c2nccc[nH+]2)c1 (optimized conformer: 125.63126136196311 kcal/mol)

>  <smiles>  (1439) 
C=c1c(=Cc2[nH]c(=O)[nH]c2O)cc(C)n1-c1cccc(-c2ncccn2)c1

>  <score_type>  (1439) 
oracle

>  <origin>  (1439) 
adg

>  <m_score__min__energy>  (1439) 
-15.24

>  <m_primary>  (1439) 
energy

$$$$
22:0
     RDKit          3D

 29 32  0  0  0  0  0  0  0  0999 V2000
   57.7380   27.6180   47.3710 C   0  0  0  0  0  0  0  0  0  0  0  0
   57.7690   26.9920   46.1840 C   0  0  0  0  0  0  0  0  0  0  0  0
   57.8530   25.6120   45.9720 C   0  0  0  0  0  0  0  0  0  0  0  0
   57.8630   24.6420   46.9070 C   0  0  0  0  0  0  0  0  0  0  0  0
   56.8190   23.6090   47.0350 C   0  0  0  0  0  0  0  0  0  0  0  0
   57.0830   22.3270   47.3420 N   0  0  0  0  0  0  0  0  0  0  0  0
   55.8730   21.7320   47.2740 C   0  0  0  0  0  0  0  0  0  0  0  0
   55.7050   20.5080   47.5150 O   0  0  0  0  0  0  0  0  0  0  0  0
   54.8590   22.5480   46.9170 N   0  0  0  0  0  0  0  0  0  0  0  0
   55.4740   23.7310   46.7580 C   0  0  0  0  0  0  0  0  0  0  0  0
   54.8270   24.8800   46.3220 O   0  0  0  0  0  0  0  0  0  0  0  0
   57.8680   25.4310   44.5940 C   0  0  0  0  0  0  0  0  0  0  0  0
   57.8010   26.6890   44.0280 C   0  0  0  0  0  0  0  0  0  0  0  0
   57.7710   26.9680   42.5570 C   0  0  0  0  0  0  0  0  0  0  0  0
   57.7480   27.6340   44.9910 N   0  0  0  0  0  0  0  0  0  0  0  0
   57.6620   29.0510   44.7690 C   0  0  0  0  0  0  0  0  0  0  0  0
   58.8330   29.8010   44.5970 C   0  0  0  0  0  0  0  0  0  0  0  0
   58.7600   31.1810   44.3850 C   0  0  0  0  0  0  0  0  0  0  0  0
   57.5140   31.8260   44.3460 C   0  0  0  0  0  0  0  0  0  0  0  0
   57.4250   33.3080   44.0900 C   0  0  0  0  0  0  0  0  0  0  0  0
   58.1090   34.0660   45.1580 N   0  0  0  0  0  0  0  0  0  0  0  0
   59.5210   34.3480   44.7910 C   0  0  0  0  0  0  0  0  0  0  0  0
   60.3680   34.8230   45.9930 C   0  0  0  0  0  0  0  0  0  0  0  0
   59.4840   35.3230   47.1370 C   0  0  0  0  0  0  0  0  0  0  0  0
   58.5110   34.2270   47.5980 C   0  0  0  0  0  0  0  0  0  0  0  0
   58.0390   33.3330   46.4360 C   0  0  0  0  0  0  0  0  0  0  0  0
   56.3420   31.0700   44.5060 C   0  0  0  0  0  0  0  0  0  0  0  0
   56.4130   29.6890   44.7180 C   0  0  0  0  0  0  0  0  0  0  0  0
   55.2430   28.9550   44.8680 O   0  0  0  0  0  0  0  0  0  0  0  0
  1  2  2  0
  2  3  1  0
  3  4  2  3
  4  5  1  0
  5  6  1  0
  6  7  1  0
  7  8  2  0
  7  9  1  0
  9 10  1  0
 10 11  1  0
  3 12  1  0
 12 13  2  0
 13 14  1  0
 13 15  1  0
 15 16  1  0
 16 17  2  0
 17 18  1  0
 18 19  2  0
 19 20  1  0
 20 21  1  0
 21 22  1  0
 22 23  1  0
 23 24  1  0
 24 25  1  0
 25 26  1  0
 19 27  1  0
 27 28  2  0
 28 29  1  0
 15  2  1  0
 28 16  1  0
 10  5  2  0
 26 21  1  0
M  CHG  4   6  -1   9  -1  11  -1  29  -1
M  END
>  <UniqueID>  (1440) 
21

>  <SMILES>  (1440) 
C=c1c(=Cc2[n-]c(=O)[n-]c2[O-])cc(C)n1-c1ccc(CN2CCCCC2)cc1[O-]

>  <Energy>  (1440) 
129.87821067743624

>  <Genealogy>  (1440) 
C=c1c(=Cc2[n-]c(=O)[n-]c2[O-])cc(C)n1-c1ccc(CN2CCCCC2)cc1[O-] (protonated)
C=c1c(=Cc2[n-]c(=O)[n-]c2[O-])cc(C)n1-c1ccc(CN2CCCCC2)cc1[O-] (3D coordinates assigned)
C=c1c(=Cc2[n-]c(=O)[n-]c2[O-])cc(C)n1-c1ccc(CN2CCCCC2)cc1[O-] (nonaromatic ring conformer: 129.87821067743624 kcal/mol)

>  <smiles>  (1440) 
C=c1c(=Cc2[nH]c(=O)[nH]c2O)cc(C)n1-c1ccc(CN2CCCCC2)cc1O

>  <score_type>  (1440) 
oracle

>  <origin>  (1440) 
adg

>  <m_score__min__energy>  (1440) 
-17.890000000000001

>  <m_primary>  (1440) 
energy

$$$$
24:0
     RDKit          3D

 26 28  0  0  0  0  0  0  0  0999 V2000
   61.8720   31.8150   48.7830 C   0  0  0  0  0  0  0  0  0  0  0  0
   60.6160   31.6480   49.5350 N   0  0  0  0  0  0  0  0  0  0  0  0
   59.9100   30.4050   49.1590 C   0  0  0  0  0  0  0  0  0  0  0  0
   59.3760   30.4640   47.7190 C   0  0  0  0  0  0  0  0  0  0  0  0
   58.8580   31.8010   47.4140 N   0  0  0  0  0  0  0  0  0  0  0  0
   58.5710   32.1650   46.0530 C   0  0  0  0  0  0  0  0  0  0  0  0
   59.1510   33.3180   45.5020 C   0  0  0  0  0  0  0  0  0  0  0  0
   58.8700   33.6900   44.1860 C   0  0  0  0  0  0  0  0  0  0  0  0
   58.0100   32.9130   43.4090 C   0  0  0  0  0  0  0  0  0  0  0  0
   57.4180   31.7700   43.9490 C   0  0  0  0  0  0  0  0  0  0  0  0
   57.6750   31.3980   45.2800 C   0  0  0  0  0  0  0  0  0  0  0  0
   57.0630   30.2350   45.8590 N   0  0  0  0  0  0  0  0  0  0  0  0
   56.3610   29.2140   45.1450 C   0  0  0  0  0  0  0  0  0  0  0  0
   55.1490   29.3960   44.8570 O   0  0  0  0  0  0  0  0  0  0  0  0
   57.0580   28.0570   44.6630 N   0  0  0  0  0  0  0  0  0  0  0  0
   58.0140   27.2610   45.3800 C   0  0  0  0  0  0  0  0  0  0  0  0
   59.3670   27.6470   45.4330 C   0  0  0  0  0  0  0  0  0  0  0  0
   60.3090   26.8500   46.0850 C   0  0  0  0  0  0  0  0  0  0  0  0
   59.9190   25.6510   46.6760 C   0  0  0  0  0  0  0  0  0  0  0  0
   58.5870   25.2390   46.6110 C   0  0  0  0  0  0  0  0  0  0  0  0
   57.6160   26.0290   45.9660 C   0  0  0  0  0  0  0  0  0  0  0  0
   56.2080   25.5450   45.9280 C   0  0  0  0  0  0  0  0  0  0  0  0
   55.1140   26.4260   46.1730 N   0  0  0  0  0  0  0  0  0  0  0  0
   55.9670   24.3300   45.6930 O   0  0  0  0  0  0  0  0  0  0  0  0
   58.5480   32.7180   48.5130 C   0  0  0  0  0  0  0  0  0  0  0  0
   59.7580   32.8600   49.4580 C   0  0  0  0  0  0  0  0  0  0  0  0
  1  2  1  0
  2  3  1  0
  3  4  1  0
  4  5  1  0
  5  6  1  0
  6  7  2  0
  7  8  1  0
  8  9  2  0
  9 10  1  0
 10 11  2  0
 11 12  1  0
 12 13  1  0
 13 14  2  0
 13 15  1  0
 15 16  1  0
 16 17  2  0
 17 18  1  0
 18 19  2  0
 19 20  1  0
 20 21  2  0
 21 22  1  0
 22 23  1  0
 22 24  2  0
  5 25  1  0
 25 26  1  0
 26  2  1  0
 11  6  1  0
 21 16  1  0
M  CHG  3  12  -1  15  -1  23  -1
M  END
>  <UniqueID>  (1441) 
23

>  <SMILES>  (1441) 
CN1CCN(c2ccccc2[N-]C(=O)[N-]c2ccccc2C([NH-])=O)CC1

>  <Energy>  (1441) 
68.608693474507

>  <Genealogy>  (1441) 
CN1CCN(c2ccccc2[N-]C(=O)[N-]c2ccccc2C([NH-])=O)CC1 (protonated)
CN1CCN(c2ccccc2[N-]C(=O)[N-]c2ccccc2C([NH-])=O)CC1 (3D coordinates assigned)
CN1CCN(c2ccccc2[N-]C(=O)[N-]c2ccccc2C([NH-])=O)CC1 (nonaromatic ring conformer: 68.608693474507 kcal/mol)

>  <smiles>  (1441) 
CN1CCN(c2ccccc2NC(=O)Nc2ccccc2C(N)=O)CC1

>  <score_type>  (1441) 
oracle

>  <origin>  (1441) 
adg

>  <m_score__min__energy>  (1441) 
-14.43

>  <m_primary>  (1441) 
energy

$$$$
28:0
     RDKit          3D

 33 36  0  0  0  0  0  0  0  0999 V2000
   58.5470   29.1190   47.2600 C   0  0  0  0  0  0  0  0  0  0  0  0
   58.2430   29.7430   46.1110 C   0  0  0  0  0  0  0  0  0  0  0  0
   57.5150   29.2280   45.0230 C   0  0  0  0  0  0  0  0  0  0  0  0
   57.0630   27.9850   44.7650 C   0  0  0  0  0  0  0  0  0  0  0  0
   57.1780   26.8190   45.6610 C   0  0  0  0  0  0  0  0  0  0  0  0
   56.0430   26.2380   46.2530 C   0  0  0  0  0  0  0  0  0  0  0  0
   54.7700   26.7130   45.9640 O   0  0  0  0  0  0  0  0  0  0  0  0
   56.1860   25.2050   47.1240 N   0  0  0  0  0  0  0  0  0  0  0  0
   57.4140   24.7310   47.4520 C   0  0  0  0  0  0  0  0  0  0  0  0
   57.5240   23.7740   48.2620 O   0  0  0  0  0  0  0  0  0  0  0  0
   58.5270   25.2930   46.9140 N   0  0  0  0  0  0  0  0  0  0  0  0
   58.4380   26.3280   46.0370 C   0  0  0  0  0  0  0  0  0  0  0  0
   59.4910   26.8330   45.5640 O   0  0  0  0  0  0  0  0  0  0  0  0
   57.3040   30.2900   44.1590 C   0  0  0  0  0  0  0  0  0  0  0  0
   57.9380   31.3850   44.7060 C   0  0  0  0  0  0  0  0  0  0  0  0
   57.9550   32.7530   44.0920 C   0  0  0  0  0  0  0  0  0  0  0  0
   58.5060   31.0580   45.8890 N   0  0  0  0  0  0  0  0  0  0  0  0
   59.2100   31.9650   46.7550 C   0  0  0  0  0  0  0  0  0  0  0  0
   58.5250   32.6390   47.7740 C   0  0  0  0  0  0  0  0  0  0  0  0
   59.2020   33.5400   48.5980 C   0  0  0  0  0  0  0  0  0  0  0  0
   60.5640   33.7810   48.4040 C   0  0  0  0  0  0  0  0  0  0  0  0
   61.2690   33.1230   47.3770 C   0  0  0  0  0  0  0  0  0  0  0  0
   62.7180   33.3640   47.1510 C   0  0  0  0  0  0  0  0  0  0  0  0
   63.0620   34.2430   46.3090 O   0  0  0  0  0  0  0  0  0  0  0  0
   63.7380   32.6130   47.8570 N   0  0  1  0  0  0  0  0  0  0  0  0
   64.4260   33.5010   48.8300 C   0  0  0  0  0  0  0  0  0  0  0  0
   65.1460   32.6940   49.9170 C   0  0  0  0  0  0  0  0  0  0  0  0
   64.1420   31.8660   50.7580 C   0  0  1  0  0  0  0  0  0  0  0  0
   63.7950   32.5860   52.0750 C   0  0  0  0  0  0  0  0  0  0  0  0
   63.0090   33.7220   51.8320 O   0  0  0  0  0  0  0  0  0  0  0  0
   62.8590   31.5290   49.9590 C   0  0  0  0  0  0  0  0  0  0  0  0
   63.1660   31.3730   48.4620 C   0  0  0  0  0  0  0  0  0  0  0  0
   60.5800   32.2020   46.5660 C   0  0  0  0  0  0  0  0  0  0  0  0
  1  2  2  0
  2  3  1  0
  3  4  2  3
  4  5  1  0
  5  6  2  0
  6  7  1  0
  6  8  1  0
  8  9  1  0
  9 10  2  0
  9 11  1  0
 11 12  1  0
 12 13  2  0
  3 14  1  0
 14 15  2  0
 15 16  1  0
 15 17  1  0
 17 18  1  0
 18 19  2  0
 19 20  1  0
 20 21  2  0
 21 22  1  0
 22 23  1  0
 23 24  2  0
 25 23  1  1
 25 26  1  0
 26 27  1  0
 27 28  1  0
 28 29  1  1
 29 30  1  0
 28 31  1  0
 31 32  1  0
 22 33  2  0
 17  2  1  0
 33 18  1  0
 12  5  1  0
 32 25  1  0
M  CHG  4   7  -1   8  -1  11  -1  25   1
M  END
>  <UniqueID>  (1442) 
27

>  <SMILES>  (1442) 
C=c1c(=Cc2c([O-])[n-]c(=O)[n-]c2=O)cc(C)n1-c1cccc(C(=O)[NH+]2CCC(CO)CC2)c1

>  <Energy>  (1442) 
120.57404519420199

>  <Genealogy>  (1442) 
C=c1c(=Cc2c([O-])[n-]c(=O)[n-]c2=O)cc(C)n1-c1cccc(C(=O)[NH+]2CCC(CO)CC2)c1 (protonated)
C=c1c(=Cc2c([O-])[n-]c(=O)[n-]c2=O)cc(C)n1-c1cccc(C(=O)[NH+]2CCC(CO)CC2)c1 (3D coordinates assigned)
C=c1c(=Cc2c([O-])[n-]c(=O)[n-]c2=O)cc(C)n1-c1cccc(C(=O)[NH+]2CCC(CO)CC2)c1 (nonaromatic ring conformer: 120.57404519420199 kcal/mol)

>  <smiles>  (1442) 
C=c1c(=Cc2c(O)[nH]c(=O)[nH]c2=O)cc(C)n1-c1cccc(C(=O)N2CCC(CO)CC2)c1

>  <score_type>  (1442) 
oracle

>  <origin>  (1442) 
adg

>  <m_score__min__energy>  (1442) 
-15.58

>  <m_primary>  (1442) 
energy

$$$$
36:0
     RDKit          3D

 24 25  0  0  0  0  0  0  0  0999 V2000
   60.2600   26.2360   46.8230 O   0  0  0  0  0  0  0  0  0  0  0  0
   58.8930   26.3690   46.5940 C   0  0  0  0  0  0  0  0  0  0  0  0
   58.0420   25.3920   47.0130 N   0  0  0  0  0  0  0  0  0  0  0  0
   56.6990   25.4730   46.8190 C   0  0  0  0  0  0  0  0  0  0  0  0
   55.9530   24.5420   47.2220 O   0  0  0  0  0  0  0  0  0  0  0  0
   56.1550   26.5910   46.1800 C   0  0  0  0  0  0  0  0  0  0  0  0
   54.7810   26.6970   45.9880 O   0  0  0  0  0  0  0  0  0  0  0  0
   57.0030   27.6080   45.7400 C   0  0  0  0  0  0  0  0  0  0  0  0
   58.3910   27.4970   45.9230 C   0  0  0  0  0  0  0  0  0  0  0  0
   59.3080   28.5790   45.5010 C   0  0  0  0  0  0  0  0  0  0  0  0
   59.1190   29.8890   45.7600 C   0  0  0  0  0  0  0  0  0  0  0  0
   58.2800   30.6860   44.8340 C   0  0  0  0  0  0  0  0  0  0  0  0
   58.6800   30.8760   43.6540 O   0  0  0  0  0  0  0  0  0  0  0  0
   57.0390   31.2770   45.2380 N   0  0  0  0  0  0  0  0  0  0  0  0
   56.7060   32.6920   45.1330 C   0  0  0  0  0  0  0  0  0  0  0  0
   57.8030   33.5060   45.7560 C   0  0  0  0  0  0  0  0  0  0  0  0
   58.5960   34.3500   44.9630 C   0  0  0  0  0  0  0  0  0  0  0  0
   59.6370   35.0810   45.5390 C   0  0  0  0  0  0  0  0  0  0  0  0
   59.9050   34.9670   46.9060 C   0  0  0  0  0  0  0  0  0  0  0  0
   59.1290   34.1110   47.7100 C   0  0  0  0  0  0  0  0  0  0  0  0
   59.3610   33.9550   49.0860 O   0  0  0  0  0  0  0  0  0  0  0  0
   60.6500   33.8020   49.6690 C   0  0  0  0  0  0  0  0  0  0  0  0
   58.0850   33.3820   47.1260 C   0  0  0  0  0  0  0  0  0  0  0  0
   59.6610   30.5430   47.0060 C   0  0  0  0  0  0  0  0  0  0  0  0
  1  2  1  0
  2  3  1  0
  3  4  1  0
  4  5  2  0
  4  6  1  0
  6  7  1  0
  6  8  2  0
  8  9  1  0
  9 10  1  0
 10 11  2  0
 11 12  1  0
 12 13  2  0
 12 14  1  0
 14 15  1  0
 15 16  1  0
 16 17  2  0
 17 18  1  0
 18 19  2  0
 19 20  1  0
 20 21  1  0
 21 22  1  0
 20 23  2  0
 11 24  1  0
  9  2  2  0
 23 16  1  0
M  CHG  3   3  -1   7  -1  14  -1
M  END
>  <UniqueID>  (1443) 
34

>  <SMILES>  (1443) 
COc1cccc(C[N-]C(=O)/C(C)=C/c2cc([O-])c(=O)[n-]c2O)c1

>  <Energy>  (1443) 
47.97871927619125

>  <Genealogy>  (1443) 
COc1cccc(C[N-]C(=O)C(C)=Cc2cc([O-])c(=O)[n-]c2O)c1 (protonated)
COc1cccc(C[N-]C(=O)/C(C)=C/c2cc([O-])c(=O)[n-]c2O)c1 (cis-trans isomerization)
COc1cccc(C[N-]C(=O)/C(C)=C/c2cc([O-])c(=O)[n-]c2O)c1 (3D coordinates assigned)
COc1cccc(C[N-]C(=O)/C(C)=C/c2cc([O-])c(=O)[n-]c2O)c1 (optimized conformer: 47.97871927619125 kcal/mol)

>  <smiles>  (1443) 
COc1cccc(CNC(=O)C(C)=Cc2cc(O)c(=O)[nH]c2O)c1

>  <score_type>  (1443) 
oracle

>  <origin>  (1443) 
adg

>  <m_score__min__energy>  (1443) 
-14.19

>  <m_primary>  (1443) 
energy

$$$$
45:0
     RDKit          3D

 31 33  0  0  0  0  0  0  0  0999 V2000
   55.1450   26.7050   45.9830 O   0  0  0  0  0  0  0  0  0  0  0  0
   56.3410   26.0510   45.6600 C   0  0  0  0  0  0  0  0  0  0  0  0
   57.4380   27.0850   45.4030 C   0  0  0  0  0  0  0  0  0  0  0  0
   57.0660   28.3810   45.9740 N   0  0  0  0  0  0  0  0  0  0  0  0
   56.5920   29.5050   45.2250 C   0  0  0  0  0  0  0  0  0  0  0  0
   55.3850   29.5300   44.8620 O   0  0  0  0  0  0  0  0  0  0  0  0
   57.4980   30.6330   44.8310 C   0  0  0  0  0  0  0  0  0  0  0  0
   58.6420   30.6350   45.6770 O   0  0  0  0  0  0  0  0  0  0  0  0
   58.9500   31.6450   46.6010 C   0  0  0  0  0  0  0  0  0  0  0  0
   59.7070   32.7790   46.2500 C   0  0  0  0  0  0  0  0  0  0  0  0
   59.9640   33.7690   47.1980 C   0  0  0  0  0  0  0  0  0  0  0  0
   59.4890   33.6400   48.5040 C   0  0  0  0  0  0  0  0  0  0  0  0
   58.7360   32.5050   48.8860 C   0  0  0  0  0  0  0  0  0  0  0  0
   58.2130   32.3150   50.2780 C   0  0  0  0  0  0  0  0  0  0  0  0
   57.2920   31.3350   50.5030 N   0  0  0  0  0  0  0  0  0  0  0  0
   56.7860   31.0770   51.7420 C   0  0  0  0  0  0  0  0  0  0  0  0
   55.9430   30.1030   51.9300 N   0  0  0  0  0  0  0  0  0  0  0  0
   54.6070   30.3110   52.4020 C   0  0  0  0  0  0  0  0  0  0  0  0
   54.1720   29.6700   53.5630 C   0  0  0  0  0  0  0  0  0  0  0  0
   52.8570   29.8400   54.0010 C   0  0  0  0  0  0  0  0  0  0  0  0
   51.9780   30.6630   53.2950 C   0  0  0  0  0  0  0  0  0  0  0  0
   52.4030   31.3050   52.1300 C   0  0  0  0  0  0  0  0  0  0  0  0
   51.4740   32.1910   51.3980 C   0  0  0  0  0  0  0  0  0  0  0  0
   51.7600   32.5330   50.2190 O   0  0  0  0  0  0  0  0  0  0  0  0
   50.2850   32.7210   51.9990 N   0  0  0  0  0  0  0  0  0  0  0  0
   50.2410   33.5730   53.1850 C   0  0  0  0  0  0  0  0  0  0  0  0
   53.7290   31.1410   51.6990 C   0  0  0  0  0  0  0  0  0  0  0  0
   57.1990   31.8180   52.8000 N   0  0  0  0  0  0  0  0  0  0  0  0
   58.1080   32.8140   52.6380 C   0  0  0  0  0  0  0  0  0  0  0  0
   58.6360   33.0900   51.3750 C   0  0  0  0  0  0  0  0  0  0  0  0
   58.4820   31.5140   47.9120 C   0  0  0  0  0  0  0  0  0  0  0  0
  1  2  1  0
  2  3  1  0
  3  4  1  0
  4  5  1  0
  5  6  2  0
  5  7  1  0
  7  8  1  0
  8  9  1  0
  9 10  2  0
 10 11  1  0
 11 12  2  0
 12 13  1  0
 13 14  1  0
 14 15  2  0
 15 16  1  0
 16 17  2  0
 17 18  1  0
 18 19  2  0
 19 20  1  0
 20 21  2  0
 21 22  1  0
 22 23  1  0
 23 24  2  0
 23 25  1  0
 25 26  1  0
 22 27  2  0
 16 28  1  0
 28 29  1  0
 29 30  2  0
 13 31  2  0
 31  9  1  0
 30 14  1  0
 27 18  1  0
M  CHG  3   4  -1  25  -1  28  -1
M  END
>  <UniqueID>  (1444) 
42

>  <SMILES>  (1444) 
C[N-]C(=O)c1cccc(/N=c2\nc(-c3cccc(OCC(=O)[N-]CCO)c3)cc[n-]2)c1

>  <Energy>  (1444) 
62.88165957185047

>  <Genealogy>  (1444) 
C[N-]C(=O)c1cccc(N=c2nc(-c3cccc(OCC(=O)[N-]CCO)c3)cc[n-]2)c1 (protonated)
C[N-]C(=O)c1cccc(/N=c2\nc(-c3cccc(OCC(=O)[N-]CCO)c3)cc[n-]2)c1 (cis-trans isomerization)
C[N-]C(=O)c1cccc(/N=c2\nc(-c3cccc(OCC(=O)[N-]CCO)c3)cc[n-]2)c1 (3D coordinates assigned)
C[N-]C(=O)c1cccc(/N=c2\nc(-c3cccc(OCC(=O)[N-]CCO)c3)cc[n-]2)c1 (optimized conformer: 62.88165957185047 kcal/mol)

>  <smiles>  (1444) 
CNC(=O)c1cccc(N=c2nc(-c3cccc(OCC(=O)NCCO)c3)cc[nH]2)c1

>  <score_type>  (1444) 
oracle

>  <origin>  (1444) 
adg

>  <m_score__min__energy>  (1444) 
-15.68

>  <m_primary>  (1444) 
energy

$$$$
47:0
     RDKit          3D

 28 30  0  0  0  0  0  0  0  0999 V2000
   57.9170   30.9730   50.9070 C   0  0  0  0  0  0  0  0  0  0  0  0
   58.7860   31.7440   51.5580 C   0  0  0  0  0  0  0  0  0  0  0  0
   58.6570   33.2160   51.6060 C   0  0  0  0  0  0  0  0  0  0  0  0
   57.8350   33.7510   52.3970 O   0  0  0  0  0  0  0  0  0  0  0  0
   59.5060   34.0610   50.8200 N   0  0  0  0  0  0  0  0  0  0  0  0
   60.0970   33.7290   49.5560 C   0  0  0  0  0  0  0  0  0  0  0  0
   61.4060   34.1450   49.2880 C   0  0  0  0  0  0  0  0  0  0  0  0
   62.0000   33.8560   48.0560 C   0  0  0  0  0  0  0  0  0  0  0  0
   61.2840   33.1610   47.0780 C   0  0  0  0  0  0  0  0  0  0  0  0
   59.9640   32.7590   47.3240 C   0  0  0  0  0  0  0  0  0  0  0  0
   59.2150   32.0710   46.3070 N   0  0  0  0  0  0  0  0  0  0  0  0
   58.3540   32.6530   45.4430 C   0  0  0  0  0  0  0  0  0  0  0  0
   58.0840   34.1240   45.3610 C   0  0  0  0  0  0  0  0  0  0  0  0
   57.7660   31.7010   44.6380 C   0  0  0  0  0  0  0  0  0  0  0  0
   58.2910   30.4740   45.0120 C   0  0  0  0  0  0  0  0  0  0  0  0
   57.9620   29.3250   44.3890 C   0  0  0  0  0  0  0  0  0  0  0  0
   57.4050   28.1230   45.0380 C   0  0  0  0  0  0  0  0  0  0  0  0
   56.0270   28.0010   45.2780 C   0  0  0  0  0  0  0  0  0  0  0  0
   55.1440   28.9960   44.8720 O   0  0  0  0  0  0  0  0  0  0  0  0
   55.5450   26.9030   45.9170 N   0  0  0  0  0  0  0  0  0  0  0  0
   56.3790   25.9210   46.3460 C   0  0  0  0  0  0  0  0  0  0  0  0
   55.9110   24.9100   46.9310 O   0  0  0  0  0  0  0  0  0  0  0  0
   57.7180   26.0300   46.1480 N   0  0  0  0  0  0  0  0  0  0  0  0
   58.2480   27.1080   45.5140 C   0  0  0  0  0  0  0  0  0  0  0  0
   59.4960   27.1800   45.3540 O   0  0  0  0  0  0  0  0  0  0  0  0
   59.1750   30.7330   46.0760 C   0  0  0  0  0  0  0  0  0  0  0  0
   59.8490   29.8370   46.8160 C   0  0  0  0  0  0  0  0  0  0  0  0
   59.3670   33.0600   48.5570 C   0  0  0  0  0  0  0  0  0  0  0  0
  1  2  2  0
  2  3  1  0
  3  4  2  0
  3  5  1  0
  5  6  1  0
  6  7  2  0
  7  8  1  0
  8  9  2  0
  9 10  1  0
 10 11  1  0
 11 12  1  0
 12 13  1  0
 12 14  2  0
 14 15  1  0
 15 16  2  0
 16 17  1  0
 17 18  2  0
 18 19  1  0
 18 20  1  0
 20 21  1  0
 21 22  2  0
 21 23  1  0
 23 24  1  0
 24 25  2  0
 15 26  1  0
 26 27  2  0
 10 28  2  0
 28  6  1  0
 26 11  1  0
 24 17  1  0
M  CHG  4   5  -1  19  -1  20  -1  23  -1
M  END
>  <UniqueID>  (1445) 
44

>  <SMILES>  (1445) 
C=CC(=O)[N-]c1cccc(-n2c(C)c/c(=C/c3c([O-])[n-]c(=O)[n-]c3=O)c2=C)c1

>  <Energy>  (1445) 
96.27633362971626

>  <Genealogy>  (1445) 
C=CC(=O)[N-]c1cccc(-n2c(C)cc(=Cc3c([O-])[n-]c(=O)[n-]c3=O)c2=C)c1 (protonated)
C=CC(=O)[N-]c1cccc(-n2c(C)c/c(=C/c3c([O-])[n-]c(=O)[n-]c3=O)c2=C)c1 (cis-trans isomerization)
C=CC(=O)[N-]c1cccc(-n2c(C)c/c(=C/c3c([O-])[n-]c(=O)[n-]c3=O)c2=C)c1 (3D coordinates assigned)
C=CC(=O)[N-]c1cccc(-n2c(C)c/c(=C/c3c([O-])[n-]c(=O)[n-]c3=O)c2=C)c1 (optimized conformer: 96.27633362971626 kcal/mol)

>  <smiles>  (1445) 
C=CC(=O)Nc1cccc(-n2c(C)cc(=Cc3c(O)[nH]c(=O)[nH]c3=O)c2=C)c1

>  <score_type>  (1445) 
oracle

>  <origin>  (1445) 
adg

>  <m_score__min__energy>  (1445) 
-16.690000000000001

>  <m_primary>  (1445) 
energy

$$$$
55:0
     RDKit          3D

 31 34  0  0  0  0  0  0  0  0999 V2000
   54.2800   28.2680   53.4720 C   0  0  0  0  0  0  0  0  0  0  0  0
   54.5540   29.4400   52.8770 C   0  0  0  0  0  0  0  0  0  0  0  0
   53.6360   30.3450   52.3180 C   0  0  0  0  0  0  0  0  0  0  0  0
   52.3170   30.2280   52.0660 C   0  0  0  0  0  0  0  0  0  0  0  0
   51.6240   30.7280   50.8670 C   0  0  0  0  0  0  0  0  0  0  0  0
   51.5630   30.0770   49.6910 N   0  0  0  0  0  0  0  0  0  0  0  0
   50.9670   30.9690   48.8710 C   0  0  0  0  0  0  0  0  0  0  0  0
   50.7150   30.7190   47.6640 O   0  0  0  0  0  0  0  0  0  0  0  0
   50.6730   32.1560   49.4440 N   0  0  0  0  0  0  0  0  0  0  0  0
   51.1090   31.9900   50.7030 C   0  0  0  0  0  0  0  0  0  0  0  0
   51.0430   32.9750   51.6810 O   0  0  0  0  0  0  0  0  0  0  0  0
   54.3580   31.4840   52.0010 C   0  0  0  0  0  0  0  0  0  0  0  0
   55.6760   31.2220   52.3160 C   0  0  0  0  0  0  0  0  0  0  0  0
   56.8110   32.1760   52.1020 C   0  0  0  0  0  0  0  0  0  0  0  0
   55.7980   29.9810   52.8350 N   0  0  0  0  0  0  0  0  0  0  0  0
   57.0210   29.4050   53.3250 C   0  0  0  0  0  0  0  0  0  0  0  0
   58.2110   29.5650   52.6040 C   0  0  0  0  0  0  0  0  0  0  0  0
   59.4040   29.0200   53.0870 C   0  0  0  0  0  0  0  0  0  0  0  0
   59.4280   28.3250   54.3020 C   0  0  0  0  0  0  0  0  0  0  0  0
   60.6480   27.7870   54.7400 O   0  0  0  0  0  0  0  0  0  0  0  0
   61.8740   27.9100   54.0750 C   0  0  0  0  0  0  0  0  0  0  0  0
   62.7380   28.7420   54.4630 O   0  0  0  0  0  0  0  0  0  0  0  0
   62.1260   27.0770   52.9380 N   0  0  0  0  0  0  0  0  0  0  0  0
   61.6900   25.7220   52.7540 C   0  0  0  0  0  0  0  0  0  0  0  0
   62.5960   24.6430   52.7220 C   0  0  0  0  0  0  0  0  0  0  0  0
   62.1290   23.3400   52.5180 C   0  0  0  0  0  0  0  0  0  0  0  0
   60.7650   23.1050   52.3300 C   0  0  0  0  0  0  0  0  0  0  0  0
   59.8650   24.1740   52.3370 C   0  0  0  0  0  0  0  0  0  0  0  0
   60.3270   25.4770   52.5400 C   0  0  0  0  0  0  0  0  0  0  0  0
   58.2280   28.1530   55.0180 C   0  0  0  0  0  0  0  0  0  0  0  0
   57.0340   28.6980   54.5350 C   0  0  0  0  0  0  0  0  0  0  0  0
  1  2  2  0
  2  3  1  0
  3  4  2  3
  4  5  1  0
  5  6  1  0
  6  7  1  0
  7  8  2  0
  7  9  1  0
  9 10  1  0
 10 11  1  0
  3 12  1  0
 12 13  2  0
 13 14  1  0
 13 15  1  0
 15 16  1  0
 16 17  2  0
 17 18  1  0
 18 19  2  0
 19 20  1  0
 20 21  1  0
 21 22  2  0
 21 23  1  0
 23 24  1  0
 24 25  2  0
 25 26  1  0
 26 27  2  0
 27 28  1  0
 28 29  2  0
 19 30  1  0
 30 31  2  0
 15  2  1  0
 31 16  1  0
 10  5  2  0
 29 24  1  0
M  CHG  4   6  -1   9  -1  11  -1  23  -1
M  END
>  <UniqueID>  (1446) 
51

>  <SMILES>  (1446) 
C=c1c(=Cc2[n-]c(=O)[n-]c2[O-])cc(C)n1-c1ccc(OC(=O)[N-]c2ccccc2)cc1

>  <Energy>  (1446) 
134.8989796474467

>  <Genealogy>  (1446) 
C=c1c(=Cc2[n-]c(=O)[n-]c2[O-])cc(C)n1-c1ccc(OC(=O)[N-]c2ccccc2)cc1 (protonated)
C=c1c(=Cc2[n-]c(=O)[n-]c2[O-])cc(C)n1-c1ccc(OC(=O)[N-]c2ccccc2)cc1 (3D coordinates assigned)
C=c1c(=Cc2[n-]c(=O)[n-]c2[O-])cc(C)n1-c1ccc(OC(=O)[N-]c2ccccc2)cc1 (optimized conformer: 134.8989796474467 kcal/mol)

>  <smiles>  (1446) 
C=c1c(=Cc2[nH]c(=O)[nH]c2O)cc(C)n1-c1ccc(OC(=O)Nc2ccccc2)cc1

>  <score_type>  (1446) 
oracle

>  <origin>  (1446) 
adg

>  <m_score__min__energy>  (1446) 
-16.690000000000001

>  <m_primary>  (1446) 
energy

$$$$
58:0
     RDKit          3D

 24 26  0  0  0  0  0  0  0  0999 V2000
   57.8010   26.0510   43.9310 C   0  0  0  0  0  0  0  0  0  0  0  0
   58.2350   26.0190   45.2010 C   0  0  0  0  0  0  0  0  0  0  0  0
   57.7220   25.2320   46.2460 C   0  0  0  0  0  0  0  0  0  0  0  0
   56.8370   24.2170   46.2410 C   0  0  0  0  0  0  0  0  0  0  0  0
   55.4510   24.2870   45.7500 C   0  0  0  0  0  0  0  0  0  0  0  0
   54.6870   23.2200   45.4550 N   0  0  0  0  0  0  0  0  0  0  0  0
   53.4790   23.7630   45.1950 C   0  0  0  0  0  0  0  0  0  0  0  0
   52.4820   23.0710   44.8590 O   0  0  0  0  0  0  0  0  0  0  0  0
   53.4180   25.1040   45.3330 N   0  0  0  0  0  0  0  0  0  0  0  0
   54.6720   25.4180   45.7000 C   0  0  0  0  0  0  0  0  0  0  0  0
   55.0940   26.7100   45.9880 O   0  0  0  0  0  0  0  0  0  0  0  0
   58.3430   25.6720   47.4020 C   0  0  0  0  0  0  0  0  0  0  0  0
   59.2440   26.6460   47.0300 C   0  0  0  0  0  0  0  0  0  0  0  0
   60.1890   27.3240   47.9760 C   0  0  0  0  0  0  0  0  0  0  0  0
   59.1840   26.8640   45.6930 N   0  0  0  0  0  0  0  0  0  0  0  0
   59.9390   27.8890   44.9520 C   0  0  0  0  0  0  0  0  0  0  0  0
   59.8270   29.2710   45.6160 C   0  0  0  0  0  0  0  0  0  0  0  0
   58.5630   29.9860   45.2230 C   0  0  0  0  0  0  0  0  0  0  0  0
   58.5380   31.3850   45.1310 C   0  0  0  0  0  0  0  0  0  0  0  0
   57.3440   32.0320   44.8010 C   0  0  0  0  0  0  0  0  0  0  0  0
   56.2150   31.3080   44.5790 N   0  0  0  0  0  0  0  0  0  0  0  0
   56.2080   29.9510   44.6670 C   0  0  0  0  0  0  0  0  0  0  0  0
   55.1410   29.3170   44.4570 O   0  0  0  0  0  0  0  0  0  0  0  0
   57.3820   29.2640   44.9900 C   0  0  0  0  0  0  0  0  0  0  0  0
  1  2  2  0
  2  3  1  0
  3  4  2  0
  4  5  1  0
  5  6  1  0
  6  7  1  0
  7  8  2  0
  7  9  1  0
  9 10  1  0
 10 11  1  0
  3 12  1  0
 12 13  2  0
 13 14  1  0
 13 15  1  0
 15 16  1  0
 16 17  1  0
 17 18  1  0
 18 19  1  0
 19 20  2  0
 20 21  1  0
 21 22  1  0
 22 23  2  0
 22 24  1  0
 15  2  1  0
 24 18  2  0
 10  5  2  0
M  CHG  4   6  -1   9  -1  11  -1  21  -1
M  END
>  <UniqueID>  (1447) 
54

>  <SMILES>  (1447) 
C=c1/c(=C\c2[n-]c(=O)[n-]c2[O-])cc(C)n1CCc1cc[n-]c(=O)c1

>  <Energy>  (1447) 
105.62116087616072

>  <Genealogy>  (1447) 
C=c1c(=Cc2[n-]c(=O)[n-]c2[O-])cc(C)n1CCc1cc[n-]c(=O)c1 (protonated)
C=c1/c(=C\c2[n-]c(=O)[n-]c2[O-])cc(C)n1CCc1cc[n-]c(=O)c1 (cis-trans isomerization)
C=c1/c(=C\c2[n-]c(=O)[n-]c2[O-])cc(C)n1CCc1cc[n-]c(=O)c1 (3D coordinates assigned)
C=c1/c(=C\c2[n-]c(=O)[n-]c2[O-])cc(C)n1CCc1cc[n-]c(=O)c1 (optimized conformer: 105.62116087616072 kcal/mol)

>  <smiles>  (1447) 
C=c1c(=Cc2[nH]c(=O)[nH]c2O)cc(C)n1CCc1cc[nH]c(=O)c1

>  <score_type>  (1447) 
oracle

>  <origin>  (1447) 
adg

>  <m_score__min__energy>  (1447) 
-16.32

>  <m_primary>  (1447) 
energy

$$$$
60:0
     RDKit          3D

 34 37  0  0  0  0  0  0  0  0999 V2000
   56.6230   29.8580   42.9700 O   0  0  0  0  0  0  0  0  0  0  0  0
   56.7230   29.9120   44.2240 C   0  0  0  0  0  0  0  0  0  0  0  0
   56.1870   28.8310   45.0040 N   0  0  0  0  0  0  0  0  0  0  0  0
   56.8570   27.8190   45.4770 C   0  0  0  0  0  0  0  0  0  0  0  0
   58.2220   27.8260   45.4980 N   0  0  0  0  0  0  0  0  0  0  0  0
   58.9410   26.7870   45.9970 C   0  0  0  0  0  0  0  0  0  0  0  0
   58.2860   25.6710   46.5200 C   0  0  0  0  0  0  0  0  0  0  0  0
   56.8910   25.6400   46.5240 C   0  0  0  0  0  0  0  0  0  0  0  0
   56.1670   26.7170   46.0040 C   0  0  0  0  0  0  0  0  0  0  0  0
   54.7770   26.6850   46.0130 O   0  0  0  0  0  0  0  0  0  0  0  0
   57.4300   31.0570   44.8440 C   0  0  0  0  0  0  0  0  0  0  0  0
   57.7700   31.0230   46.2070 C   0  0  0  0  0  0  0  0  0  0  0  0
   58.4650   32.0870   46.7880 C   0  0  0  0  0  0  0  0  0  0  0  0
   58.8160   33.2040   46.0180 C   0  0  0  0  0  0  0  0  0  0  0  0
   59.7510   34.5200   46.7280 S   0  0  0  0  0  0  0  0  0  0  0  0
   58.9530   35.1730   47.8230 O   0  0  0  0  0  0  0  0  0  0  0  0
   60.0350   35.5520   45.6720 O   0  0  0  0  0  0  0  0  0  0  0  0
   61.3000   33.9150   47.4030 C   0  0  1  0  0  0  0  0  0  0  0  0
   61.1310   32.5260   48.0500 C   0  0  0  0  0  0  0  0  0  0  0  0
   62.3440   31.5930   47.8540 C   0  0  0  0  0  0  0  0  0  0  0  0
   63.6580   32.2810   47.8300 N   0  0  2  0  0  0  0  0  0  0  0  0
   64.2780   32.5720   49.4450 S   0  0  0  0  0  0  0  0  0  0  0  0
   65.7660   32.7840   49.3700 O   0  0  0  0  0  0  0  0  0  0  0  0
   63.6660   33.8340   49.9880 O   0  0  0  0  0  0  0  0  0  0  0  0
   63.9440   31.2560   50.5730 C   0  0  0  0  0  0  0  0  0  0  0  0
   64.9960   30.5870   51.2160 C   0  0  0  0  0  0  0  0  0  0  0  0
   64.7280   29.5440   52.1070 C   0  0  0  0  0  0  0  0  0  0  0  0
   63.4080   29.1520   52.3500 C   0  0  0  0  0  0  0  0  0  0  0  0
   62.3560   29.7970   51.6930 C   0  0  0  0  0  0  0  0  0  0  0  0
   62.6220   30.8400   50.8010 C   0  0  0  0  0  0  0  0  0  0  0  0
   63.7280   33.4990   46.9730 C   0  0  0  0  0  0  0  0  0  0  0  0
   62.3910   33.8900   46.3330 C   0  0  0  0  0  0  0  0  0  0  0  0
   58.4470   33.2580   44.6690 C   0  0  0  0  0  0  0  0  0  0  0  0
   57.7550   32.1940   44.0860 C   0  0  0  0  0  0  0  0  0  0  0  0
  1  2  2  0
  2  3  1  0
  3  4  2  3
  4  5  1  0
  5  6  1  0
  6  7  2  0
  7  8  1  0
  8  9  2  0
  9 10  1  0
  2 11  1  0
 11 12  2  0
 12 13  1  0
 13 14  2  0
 14 15  1  0
 15 16  2  0
 15 17  2  0
 18 15  1  6
 18 19  1  0
 19 20  1  0
 20 21  1  0
 21 22  1  1
 22 23  2  0
 22 24  2  0
 22 25  1  0
 25 26  2  0
 26 27  1  0
 27 28  2  0
 28 29  1  0
 29 30  2  0
 21 31  1  0
 31 32  1  0
 14 33  1  0
 33 34  2  0
  9  4  1  0
 34 11  1  0
 32 18  1  0
 30 25  1  0
M  CHG  3   5  -1  10  -1  21   1
M  END
>  <UniqueID>  (1448) 
56

>  <SMILES>  (1448) 
O=C(N=c1[n-]cccc1[O-])c1ccc(S(=O)(=O)C2CC[NH+](S(=O)(=O)c3ccccc3)CC2)cc1

>  <Energy>  (1448) 
73.76301031097648

>  <Genealogy>  (1448) 
O=C(N=c1[n-]cccc1[O-])c1ccc(S(=O)(=O)C2CC[NH+](S(=O)(=O)c3ccccc3)CC2)cc1 (protonated)
O=C(N=c1[n-]cccc1[O-])c1ccc(S(=O)(=O)C2CC[NH+](S(=O)(=O)c3ccccc3)CC2)cc1 (3D coordinates assigned)
O=C(N=c1[n-]cccc1[O-])c1ccc(S(=O)(=O)C2CC[NH+](S(=O)(=O)c3ccccc3)CC2)cc1 (nonaromatic ring conformer: 73.76301031097648 kcal/mol)

>  <smiles>  (1448) 
O=C(N=c1[nH]cccc1O)c1ccc(S(=O)(=O)C2CCN(S(=O)(=O)c3ccccc3)CC2)cc1

>  <score_type>  (1448) 
oracle

>  <origin>  (1448) 
adg

>  <m_score__min__energy>  (1448) 
-15.17

>  <m_primary>  (1448) 
energy

$$$$
62:0
     RDKit          3D

 31 34  0  0  0  0  0  0  0  0999 V2000
   59.4390   25.9140   47.1160 C   0  0  0  0  0  0  0  0  0  0  0  0
   58.2070   26.5070   46.5200 C   0  0  0  0  0  0  0  0  0  0  0  0
   58.1730   27.6620   45.7620 C   0  0  0  0  0  0  0  0  0  0  0  0
   56.8450   27.8660   45.4430 C   0  0  0  0  0  0  0  0  0  0  0  0
   56.2850   28.9760   44.6440 C   0  0  0  0  0  0  0  0  0  0  0  0
   55.1150   29.3790   44.8780 O   0  0  0  0  0  0  0  0  0  0  0  0
   57.0700   29.6640   43.6600 N   0  0  0  0  0  0  0  0  0  0  0  0
   57.4540   30.9050   43.7340 C   0  0  0  0  0  0  0  0  0  0  0  0
   57.5790   31.6840   42.6390 N   0  0  0  0  0  0  0  0  0  0  0  0
   57.9800   32.9440   42.9600 C   0  0  0  0  0  0  0  0  0  0  0  0
   58.1990   33.1570   44.3170 C   0  0  0  0  0  0  0  0  0  0  0  0
   58.4980   34.4730   44.9620 C   0  0  0  0  0  0  0  0  0  0  0  0
   59.3930   34.2590   46.1520 C   0  0  0  0  0  0  0  0  0  0  0  0
   58.8950   34.4380   47.4510 C   0  0  0  0  0  0  0  0  0  0  0  0
   59.7420   34.3140   48.5530 C   0  0  0  0  0  0  0  0  0  0  0  0
   61.0940   34.0120   48.3690 C   0  0  0  0  0  0  0  0  0  0  0  0
   61.6130   33.8270   47.0750 C   0  0  0  0  0  0  0  0  0  0  0  0
   63.0540   33.5320   46.8570 C   0  0  0  0  0  0  0  0  0  0  0  0
   63.6950   34.2350   46.0260 O   0  0  0  0  0  0  0  0  0  0  0  0
   63.7430   32.5070   47.6180 N   0  0  0  0  0  0  0  0  0  0  0  0
   62.8840   31.3010   47.7690 C   0  0  0  0  0  0  0  0  0  0  0  0
   62.2940   31.1760   49.1810 C   0  0  0  0  0  0  0  0  0  0  0  0
   63.3640   31.0820   50.2000 N   0  0  0  0  0  0  0  0  0  0  0  0
   62.8230   31.3790   51.5350 C   0  0  0  0  0  0  0  0  0  0  0  0
   64.5530   31.9190   49.8980 C   0  0  0  0  0  0  0  0  0  0  0  0
   64.2350   33.0510   48.9100 C   0  0  0  0  0  0  0  0  0  0  0  0
   60.7540   33.9680   45.9700 C   0  0  0  0  0  0  0  0  0  0  0  0
   57.8630   31.7340   45.1480 S   0  0  0  0  0  0  0  0  0  0  0  0
   56.1480   26.8400   46.0520 C   0  0  0  0  0  0  0  0  0  0  0  0
   54.7710   26.6670   45.9990 O   0  0  0  0  0  0  0  0  0  0  0  0
   56.9690   26.0040   46.7140 N   0  0  0  0  0  0  0  0  0  0  0  0
  1  2  1  0
  2  3  2  0
  3  4  1  0
  4  5  1  0
  5  6  2  0
  5  7  1  0
  7  8  2  3
  8  9  1  0
  9 10  1  0
 10 11  2  0
 11 12  1  0
 12 13  1  0
 13 14  2  0
 14 15  1  0
 15 16  2  0
 16 17  1  0
 17 18  1  0
 18 19  2  0
 18 20  1  0
 20 21  1  0
 21 22  1  0
 22 23  1  0
 23 24  1  0
 23 25  1  0
 25 26  1  0
 17 27  2  0
 11 28  1  0
  4 29  2  0
 29 30  1  0
 29 31  1  0
 31  2  1  0
 28  8  1  0
 27 13  1  0
 26 20  1  0
M  CHG  4   9  -1  20   1  30  -1  31  -1
M  END
>  <UniqueID>  (1449) 
58

>  <SMILES>  (1449) 
Cc1cc(C(=O)N=c2[n-]cc(Cc3cccc(C(=O)[NH+]4CCN(C)CC4)c3)s2)c([O-])[n-]1

>  <Energy>  (1449) 
132.92792868686828

>  <Genealogy>  (1449) 
Cc1cc(C(=O)N=c2[n-]cc(Cc3cccc(C(=O)[NH+]4CCN(C)CC4)c3)s2)c([O-])[n-]1 (protonated)
Cc1cc(C(=O)N=c2[n-]cc(Cc3cccc(C(=O)[NH+]4CCN(C)CC4)c3)s2)c([O-])[n-]1 (3D coordinates assigned)
Cc1cc(C(=O)N=c2[n-]cc(Cc3cccc(C(=O)[NH+]4CCN(C)CC4)c3)s2)c([O-])[n-]1 (nonaromatic ring conformer: 132.92792868686828 kcal/mol)

>  <smiles>  (1449) 
Cc1cc(C(=O)N=c2[nH]cc(Cc3cccc(C(=O)N4CCN(C)CC4)c3)s2)c(O)[nH]1

>  <score_type>  (1449) 
oracle

>  <origin>  (1449) 
adg

>  <m_score__min__energy>  (1449) 
-16.75

>  <m_primary>  (1449) 
energy

$$$$
66:0
     RDKit          3D

 26 28  0  0  0  0  0  0  0  0999 V2000
   61.5050   33.9770   49.2340 C   0  0  0  0  0  0  0  0  0  0  0  0
   62.5180   33.3380   48.6250 C   0  0  0  0  0  0  0  0  0  0  0  0
   62.4560   32.9370   47.1760 C   0  0  0  0  0  0  0  0  0  0  0  0
   61.5210   33.8540   46.3900 C   0  0  0  0  0  0  0  0  0  0  0  0
   60.2480   33.9800   47.1050 N   0  0  0  0  0  0  0  0  0  0  0  0
   58.9960   33.9340   46.3980 C   0  0  0  0  0  0  0  0  0  0  0  0
   58.8200   34.6710   45.3910 O   0  0  0  0  0  0  0  0  0  0  0  0
   57.8810   33.0280   46.8430 C   0  0  0  0  0  0  0  0  0  0  0  0
   57.8360   31.8310   45.9950 N   0  0  0  0  0  0  0  0  0  0  0  0
   57.1720   31.8190   44.8520 N   0  0  0  0  0  0  0  0  0  0  0  0
   57.2770   30.5950   44.3040 C   0  0  0  0  0  0  0  0  0  0  0  0
   56.6420   30.2590   42.9920 C   0  0  0  0  0  0  0  0  0  0  0  0
   58.0430   29.7730   45.1410 C   0  0  0  0  0  0  0  0  0  0  0  0
   58.3830   28.4770   44.9790 C   0  0  0  0  0  0  0  0  0  0  0  0
   57.6080   27.3440   45.5170 C   0  0  0  0  0  0  0  0  0  0  0  0
   56.2110   27.4100   45.6220 C   0  0  0  0  0  0  0  0  0  0  0  0
   55.5220   28.5400   45.1960 O   0  0  0  0  0  0  0  0  0  0  0  0
   55.5200   26.3600   46.1420 N   0  0  0  0  0  0  0  0  0  0  0  0
   56.1620   25.2440   46.5780 C   0  0  0  0  0  0  0  0  0  0  0  0
   55.5020   24.2820   47.0540 O   0  0  0  0  0  0  0  0  0  0  0  0
   57.5170   25.1670   46.5060 N   0  0  0  0  0  0  0  0  0  0  0  0
   58.2520   26.1910   45.9940 C   0  0  0  0  0  0  0  0  0  0  0  0
   59.5080   26.0910   45.9490 O   0  0  0  0  0  0  0  0  0  0  0  0
   58.3960   30.6090   46.2050 C   0  0  0  0  0  0  0  0  0  0  0  0
   59.1610   30.2750   47.2590 C   0  0  0  0  0  0  0  0  0  0  0  0
   60.2700   34.4450   48.4980 C   0  0  0  0  0  0  0  0  0  0  0  0
  1  2  2  0
  2  3  1  0
  3  4  1  0
  4  5  1  0
  5  6  1  0
  6  7  2  0
  6  8  1  0
  8  9  1  0
  9 10  1  0
 10 11  2  0
 11 12  1  0
 11 13  1  0
 13 14  2  0
 14 15  1  0
 15 16  2  0
 16 17  1  0
 16 18  1  0
 18 19  1  0
 19 20  2  0
 19 21  1  0
 21 22  1  0
 22 23  2  0
 13 24  1  0
 24 25  2  0
  5 26  1  0
 26  1  1  0
 24  9  1  0
 22 15  1  0
M  CHG  3  17  -1  18  -1  21  -1
M  END
>  <UniqueID>  (1450) 
61

>  <SMILES>  (1450) 
C=c1/c(=C/c2c([O-])[n-]c(=O)[n-]c2=O)c(C)nn1CC(=O)N1CC=CCC1

>  <Energy>  (1450) 
89.54415065604101

>  <Genealogy>  (1450) 
C=c1c(=Cc2c([O-])[n-]c(=O)[n-]c2=O)c(C)nn1CC(=O)N1CC=CCC1 (protonated)
C=c1/c(=C/c2c([O-])[n-]c(=O)[n-]c2=O)c(C)nn1CC(=O)N1CC=CCC1 (cis-trans isomerization)
C=c1/c(=C/c2c([O-])[n-]c(=O)[n-]c2=O)c(C)nn1CC(=O)N1CC=CCC1 (3D coordinates assigned)
C=c1/c(=C/c2c([O-])[n-]c(=O)[n-]c2=O)c(C)nn1CC(=O)N1CC=CCC1 (nonaromatic ring conformer: 89.54415065604101 kcal/mol)

>  <smiles>  (1450) 
C=c1c(=Cc2c(O)[nH]c(=O)[nH]c2=O)c(C)nn1CC(=O)N1CC=CCC1

>  <score_type>  (1450) 
oracle

>  <origin>  (1450) 
adg

>  <m_score__min__energy>  (1450) 
-16.280000000000001

>  <m_primary>  (1450) 
energy

$$$$
72:0
     RDKit          3D

 26 28  0  0  0  0  0  0  0  0999 V2000
   55.9800   24.2870   44.5820 C   0  0  0  0  0  0  0  0  0  0  0  0
   55.1530   24.9240   45.6570 C   0  0  0  0  0  0  0  0  0  0  0  0
   54.3660   24.2050   46.3280 O   0  0  0  0  0  0  0  0  0  0  0  0
   55.2540   26.3190   45.9660 N   0  0  0  0  0  0  0  0  0  0  0  0
   56.4310   27.1270   45.8190 C   0  0  0  0  0  0  0  0  0  0  0  0
   57.6450   26.6500   46.3270 C   0  0  0  0  0  0  0  0  0  0  0  0
   58.8040   27.4230   46.2300 C   0  0  0  0  0  0  0  0  0  0  0  0
   58.7580   28.6820   45.6280 C   0  0  0  0  0  0  0  0  0  0  0  0
   57.5520   29.1750   45.1200 C   0  0  0  0  0  0  0  0  0  0  0  0
   57.5250   30.4720   44.5150 N   0  0  0  0  0  0  0  0  0  0  0  0
   57.6860   31.6970   45.2410 C   0  0  0  0  0  0  0  0  0  0  0  0
   56.7150   32.4950   45.3170 O   0  0  0  0  0  0  0  0  0  0  0  0
   58.9580   32.0080   45.9790 C   0  0  0  0  0  0  0  0  0  0  0  0
   59.2160   33.4630   45.9270 N   0  0  0  0  0  0  0  0  0  0  0  0
   58.5300   34.2090   46.9990 C   0  0  0  0  0  0  0  0  0  0  0  0
   59.0400   33.8150   48.3920 C   0  0  0  0  0  0  0  0  0  0  0  0
   60.5430   33.7420   48.4430 C   0  0  0  0  0  0  0  0  0  0  0  0
   61.1830   33.6690   49.6900 C   0  0  0  0  0  0  0  0  0  0  0  0
   62.5730   33.5490   49.7650 C   0  0  0  0  0  0  0  0  0  0  0  0
   63.3350   33.4930   48.5960 C   0  0  0  0  0  0  0  0  0  0  0  0
   64.7180   33.3790   48.6730 O   0  0  0  0  0  0  0  0  0  0  0  0
   62.7080   33.5520   47.3480 C   0  0  0  0  0  0  0  0  0  0  0  0
   61.3110   33.6590   47.2610 C   0  0  0  0  0  0  0  0  0  0  0  0
   60.6600   33.7800   45.9020 C   0  0  0  0  0  0  0  0  0  0  0  0
   56.3750   28.4150   45.2540 C   0  0  0  0  0  0  0  0  0  0  0  0
   55.1540   28.9630   44.8720 O   0  0  0  0  0  0  0  0  0  0  0  0
  1  2  1  0
  2  3  2  0
  2  4  1  0
  4  5  1  0
  5  6  2  0
  6  7  1  0
  7  8  2  0
  8  9  1  0
  9 10  1  0
 10 11  1  0
 11 12  2  0
 11 13  1  0
 13 14  1  0
 14 15  1  0
 15 16  1  0
 16 17  1  0
 17 18  2  0
 18 19  1  0
 19 20  2  0
 20 21  1  0
 20 22  1  0
 22 23  2  0
 23 24  1  0
  9 25  2  0
 25 26  1  0
 25  5  1  0
 24 14  1  0
 23 17  1  0
M  CHG  4   4  -1  10  -1  21  -1  26  -1
M  END
>  <UniqueID>  (1451) 
66

>  <SMILES>  (1451) 
CC(=O)[N-]c1cccc([N-]C(=O)CN2CCc3ccc([O-])cc3C2)c1[O-]

>  <Energy>  (1451) 
59.82864643206368

>  <Genealogy>  (1451) 
CC(=O)[N-]c1cccc([N-]C(=O)CN2CCc3ccc([O-])cc3C2)c1[O-] (protonated)
CC(=O)[N-]c1cccc([N-]C(=O)CN2CCc3ccc([O-])cc3C2)c1[O-] (3D coordinates assigned)
CC(=O)[N-]c1cccc([N-]C(=O)CN2CCc3ccc([O-])cc3C2)c1[O-] (nonaromatic ring conformer: 59.82864643206368 kcal/mol)

>  <smiles>  (1451) 
CC(=O)Nc1cccc(NC(=O)CN2CCc3ccc(O)cc3C2)c1O

>  <score_type>  (1451) 
oracle

>  <origin>  (1451) 
adg

>  <m_score__min__energy>  (1451) 
-16.32

>  <m_primary>  (1451) 
energy

$$$$
18:0
     RDKit          3D

 33 36  0  0  0  0  0  0  0  0999 V2000
   59.5130   28.2410   46.6890 C   0  0  0  0  0  0  0  0  0  0  0  0
   58.6080   28.5930   45.7630 C   0  0  0  0  0  0  0  0  0  0  0  0
   57.9800   27.7500   44.8320 C   0  0  0  0  0  0  0  0  0  0  0  0
   57.9140   26.4070   44.7610 C   0  0  0  0  0  0  0  0  0  0  0  0
   57.2440   25.5300   45.7370 C   0  0  0  0  0  0  0  0  0  0  0  0
   57.8190   24.4740   46.3420 N   0  0  0  0  0  0  0  0  0  0  0  0
   56.8850   24.0790   47.2350 C   0  0  0  0  0  0  0  0  0  0  0  0
   57.0490   23.0910   47.9960 O   0  0  0  0  0  0  0  0  0  0  0  0
   55.7650   24.8350   47.2550 N   0  0  0  0  0  0  0  0  0  0  0  0
   56.0160   25.7560   46.3110 C   0  0  0  0  0  0  0  0  0  0  0  0
   55.1430   26.7870   45.9830 O   0  0  0  0  0  0  0  0  0  0  0  0
   57.3590   28.5810   43.9140 C   0  0  0  0  0  0  0  0  0  0  0  0
   57.5510   29.8750   44.3510 C   0  0  0  0  0  0  0  0  0  0  0  0
   57.0190   31.0930   43.6570 C   0  0  0  0  0  0  0  0  0  0  0  0
   58.3070   29.8870   45.4720 N   0  0  0  0  0  0  0  0  0  0  0  0
   58.7310   31.0590   46.1910 C   0  0  0  0  0  0  0  0  0  0  0  0
   57.7850   31.9250   46.7600 C   0  0  0  0  0  0  0  0  0  0  0  0
   58.2020   33.0550   47.4700 C   0  0  0  0  0  0  0  0  0  0  0  0
   59.5700   33.3400   47.6090 C   0  0  0  0  0  0  0  0  0  0  0  0
   60.0140   34.5320   48.4090 C   0  0  0  0  0  0  0  0  0  0  0  0
   59.8370   34.2600   49.8400 N   0  0  0  0  0  0  0  0  0  0  0  0
   60.4870   32.9940   50.2070 C   0  0  0  0  0  0  0  0  0  0  0  0
   59.4660   31.9900   50.6770 C   0  0  0  0  0  0  0  0  0  0  0  0
   58.3040   32.3850   50.9730 O   0  0  0  0  0  0  0  0  0  0  0  0
   59.7760   30.5820   50.7500 N   0  0  0  0  0  0  0  0  0  0  0  0
   58.9160   29.6810   51.5250 C   0  0  0  0  0  0  0  0  0  0  0  0
   59.7600   28.5360   52.0950 C   0  0  0  0  0  0  0  0  0  0  0  0
   60.4560   27.7600   51.0390 N   0  0  0  0  0  0  0  0  0  0  0  0
   61.6840   27.1500   51.5720 C   0  0  0  0  0  0  0  0  0  0  0  0
   60.7260   28.5130   49.7880 C   0  0  0  0  0  0  0  0  0  0  0  0
   60.9200   30.0190   50.0190 C   0  0  0  0  0  0  0  0  0  0  0  0
   60.5150   32.4660   47.0510 C   0  0  0  0  0  0  0  0  0  0  0  0
   60.0980   31.3360   46.3420 C   0  0  0  0  0  0  0  0  0  0  0  0
  1  2  2  0
  2  3  1  0
  3  4  2  3
  4  5  1  0
  5  6  1  0
  6  7  1  0
  7  8  2  0
  7  9  1  0
  9 10  1  0
 10 11  1  0
  3 12  1  0
 12 13  2  0
 13 14  1  0
 13 15  1  0
 15 16  1  0
 16 17  2  0
 17 18  1  0
 18 19  2  0
 19 20  1  0
 20 21  1  0
 21 22  1  0
 22 23  1  0
 23 24  2  0
 23 25  1  0
 25 26  1  0
 26 27  1  0
 27 28  1  0
 28 29  1  0
 28 30  1  0
 30 31  1  0
 19 32  1  0
 32 33  2  0
 15  2  1  0
 33 16  1  0
 10  5  2  0
 31 25  1  0
M  CHG  3   6  -1   9  -1  11  -1
M  END
>  <UniqueID>  (1452) 
19

>  <SMILES>  (1452) 
C=c1c(=Cc2[n-]c(=O)[n-]c2[O-])cc(C)n1-c1ccc(CNCC(=O)N2CCN(C)CC2)cc1

>  <Energy>  (1452) 
142.46988868820975

>  <Genealogy>  (1452) 
C=c1c(=Cc2[n-]c(=O)[n-]c2[O-])cc(C)n1-c1ccc(CNCC(=O)N2CCN(C)CC2)cc1 (protonated)
C=c1c(=Cc2[n-]c(=O)[n-]c2[O-])cc(C)n1-c1ccc(CNCC(=O)N2CCN(C)CC2)cc1 (3D coordinates assigned)
C=c1c(=Cc2[n-]c(=O)[n-]c2[O-])cc(C)n1-c1ccc(CNCC(=O)N2CCN(C)CC2)cc1 (nonaromatic ring conformer: 142.46988868820975 kcal/mol)

>  <smiles>  (1452) 
C=c1c(=Cc2[nH]c(=O)[nH]c2O)cc(C)n1-c1ccc(CNCC(=O)N2CCN(C)CC2)cc1

>  <score_type>  (1452) 
oracle

>  <origin>  (1452) 
adg

>  <m_score__min__energy>  (1452) 
-16.059999999999999

>  <m_primary>  (1452) 
energy

$$$$
26:0
     RDKit          3D

 31 34  0  0  0  0  0  0  0  0999 V2000
   56.0060   28.5890   45.2470 N   0  0  0  0  0  0  0  0  0  0  0  0
   55.8950   29.6110   43.8570 S   0  0  0  0  0  0  0  0  0  0  0  0
   56.7940   29.0730   42.7800 O   0  0  0  0  0  0  0  0  0  0  0  0
   54.4770   29.6200   43.3560 O   0  0  0  0  0  0  0  0  0  0  0  0
   56.3850   31.2290   44.2570 N   0  0  0  0  0  0  0  0  0  0  0  0
   57.8460   31.3230   44.2140 C   0  0  0  0  0  0  0  0  0  0  0  0
   58.3880   31.6920   45.5780 C   0  0  0  0  0  0  0  0  0  0  0  0
   58.3270   33.0320   45.9940 C   0  0  0  0  0  0  0  0  0  0  0  0
   58.7790   33.4040   47.2620 C   0  0  0  0  0  0  0  0  0  0  0  0
   59.2840   32.4390   48.1360 C   0  0  0  0  0  0  0  0  0  0  0  0
   59.3370   31.1000   47.7450 C   0  0  0  0  0  0  0  0  0  0  0  0
   58.8930   30.7150   46.4710 C   0  0  0  0  0  0  0  0  0  0  0  0
   58.9340   29.2870   46.1070 C   0  0  0  0  0  0  0  0  0  0  0  0
   58.2830   28.3470   46.9160 C   0  0  0  0  0  0  0  0  0  0  0  0
   58.2240   26.9980   46.5330 C   0  0  0  0  0  0  0  0  0  0  0  0
   57.4290   26.0120   47.3470 C   0  0  0  0  0  0  0  0  0  0  0  0
   56.4270   25.3030   46.4690 C   0  0  0  0  0  0  0  0  0  0  0  0
   55.2060   25.8880   46.3280 N   0  0  0  0  0  0  0  0  0  0  0  0
   54.2220   25.3230   45.6300 N   0  0  0  0  0  0  0  0  0  0  0  0
   54.3800   24.1230   45.0210 C   0  0  0  0  0  0  0  0  0  0  0  0
   53.4170   23.6210   44.3840 O   0  0  0  0  0  0  0  0  0  0  0  0
   55.6110   23.4600   45.1140 C   0  0  0  0  0  0  0  0  0  0  0  0
   56.6560   24.0470   45.8510 C   0  0  0  0  0  0  0  0  0  0  0  0
   57.9350   23.2440   45.9810 C   0  0  0  0  0  0  0  0  0  0  0  0
   58.3650   22.6560   44.6260 C   0  0  0  0  0  0  0  0  0  0  0  0
   57.2060   22.0730   43.7790 C   0  0  0  0  0  0  0  0  0  0  0  0
   55.8420   22.1080   44.4830 C   0  0  0  0  0  0  0  0  0  0  0  0
   58.8460   26.5940   45.3400 C   0  0  0  0  0  0  0  0  0  0  0  0
   59.5290   27.5240   44.5520 C   0  0  0  0  0  0  0  0  0  0  0  0
   59.5730   28.8690   44.9300 C   0  0  0  0  0  0  0  0  0  0  0  0
   60.2140   29.7660   44.1380 F   0  0  0  0  0  0  0  0  0  0  0  0
  1  2  1  0
  2  3  2  0
  2  4  2  0
  2  5  1  0
  5  6  1  0
  6  7  1  0
  7  8  2  0
  8  9  1  0
  9 10  2  0
 10 11  1  0
 11 12  2  0
 12 13  1  0
 13 14  2  0
 14 15  1  0
 15 16  1  0
 16 17  1  0
 17 18  2  0
 18 19  1  0
 19 20  1  0
 20 21  2  0
 20 22  1  0
 22 23  2  0
 23 24  1  0
 24 25  1  0
 25 26  1  0
 26 27  1  0
 15 28  2  0
 28 29  1  0
 29 30  2  0
 30 31  1  0
 12  7  1  0
 30 13  1  0
 23 17  1  0
 27 22  1  0
M  CHG  2   1  -1  19  -1
M  END
>  <UniqueID>  (1453) 
27

>  <SMILES>  (1453) 
[NH-]S(=O)(=O)NCc1ccccc1-c1cc(Cc2n[n-]c(=O)c3c2CCCC3)ccc1F

>  <Energy>  (1453) 
64.16772108267402

>  <Genealogy>  (1453) 
[NH-]S(=O)(=O)NCc1ccccc1-c1cc(Cc2n[n-]c(=O)c3c2CCCC3)ccc1F (protonated)
[NH-]S(=O)(=O)NCc1ccccc1-c1cc(Cc2n[n-]c(=O)c3c2CCCC3)ccc1F (3D coordinates assigned)
[NH-]S(=O)(=O)NCc1ccccc1-c1cc(Cc2n[n-]c(=O)c3c2CCCC3)ccc1F (nonaromatic ring conformer: 64.16772108267402 kcal/mol)

>  <smiles>  (1453) 
NS(=O)(=O)NCc1ccccc1-c1cc(Cc2n[nH]c(=O)c3c2CCCC3)ccc1F

>  <score_type>  (1453) 
oracle

>  <origin>  (1453) 
adg

>  <m_score__min__energy>  (1453) 
-15.35

>  <m_primary>  (1453) 
energy

$$$$
33:0
     RDKit          3D

 36 39  0  0  0  0  0  0  0  0999 V2000
   60.1180   29.0510   45.8420 C   0  0  0  0  0  0  0  0  0  0  0  0
   58.8830   29.6220   46.3900 N   0  0  0  0  0  0  0  0  0  0  0  0
   57.6120   29.0720   45.9940 C   0  0  0  0  0  0  0  0  0  0  0  0
   56.8720   29.7160   45.2000 O   0  0  0  0  0  0  0  0  0  0  0  0
   57.1490   27.8430   46.5830 N   0  0  0  0  0  0  0  0  0  0  0  0
   56.7990   26.7380   45.9850 C   0  0  0  0  0  0  0  0  0  0  0  0
   57.6790   25.9950   45.1620 C   0  0  0  0  0  0  0  0  0  0  0  0
   57.2270   24.8160   44.5620 C   0  0  0  0  0  0  0  0  0  0  0  0
   55.9230   24.3760   44.7890 C   0  0  0  0  0  0  0  0  0  0  0  0
   55.0840   25.1200   45.6220 C   0  0  0  0  0  0  0  0  0  0  0  0
   55.5370   26.2660   46.1970 N   0  0  0  0  0  0  0  0  0  0  0  0
   58.9560   30.6180   47.4300 C   0  0  0  0  0  0  0  0  0  0  0  0
   58.5350   30.3220   48.7340 C   0  0  0  0  0  0  0  0  0  0  0  0
   58.5930   31.2630   49.7270 N   0  0  0  0  0  0  0  0  0  0  0  0
   58.1560   30.8860   51.0940 C   0  0  2  0  0  0  0  0  0  0  0  0
   58.9380   31.6560   52.1850 C   0  0  0  0  0  0  0  0  0  0  0  0
   59.3190   30.7600   53.3770 C   0  0  0  0  0  0  0  0  0  0  0  0
   58.2140   29.8620   53.8010 N   0  0  1  0  0  0  0  0  0  0  0  0
   57.0860   30.5980   54.4330 C   0  0  0  0  0  0  0  0  0  0  0  0
   55.8140   30.5360   53.6160 C   0  0  0  0  0  0  0  0  0  0  0  0
   55.6920   31.2890   52.4380 C   0  0  0  0  0  0  0  0  0  0  0  0
   54.5270   31.2170   51.6700 C   0  0  0  0  0  0  0  0  0  0  0  0
   53.4640   30.3980   52.0730 C   0  0  0  0  0  0  0  0  0  0  0  0
   52.2030   30.3370   51.2540 C   0  0  0  0  0  0  0  0  0  0  0  0
   51.4580   31.6280   51.3530 C   0  0  0  0  0  0  0  0  0  0  0  0
   51.0170   32.2880   50.1680 N   0  0  0  0  0  0  0  0  0  0  0  0
   51.2420   32.1490   52.4810 O   0  0  0  0  0  0  0  0  0  0  0  0
   53.5720   29.6650   53.2650 C   0  0  0  0  0  0  0  0  0  0  0  0
   54.7410   29.7300   54.0280 C   0  0  0  0  0  0  0  0  0  0  0  0
   57.7220   28.9730   52.7020 C   0  0  0  0  0  0  0  0  0  0  0  0
   58.2180   29.3610   51.2960 C   0  0  0  0  0  0  0  0  0  0  0  0
   59.0660   32.5220   49.4290 C   0  0  0  0  0  0  0  0  0  0  0  0
   59.1150   33.4230   50.3090 O   0  0  0  0  0  0  0  0  0  0  0  0
   59.4900   32.8170   48.1740 N   0  0  0  0  0  0  0  0  0  0  0  0
   59.4530   31.9010   47.1770 C   0  0  0  0  0  0  0  0  0  0  0  0
   59.8820   32.2120   46.0340 O   0  0  0  0  0  0  0  0  0  0  0  0
  1  2  1  0
  2  3  1  0
  3  4  2  0
  3  5  1  0
  5  6  2  3
  6  7  1  0
  7  8  2  0
  8  9  1  0
  9 10  2  0
 10 11  1  0
  2 12  1  0
 12 13  2  0
 13 14  1  0
 15 14  1  6
 15 16  1  0
 16 17  1  0
 17 18  1  0
 18 19  1  6
 19 20  1  0
 20 21  2  0
 21 22  1  0
 22 23  2  0
 23 24  1  0
 24 25  1  0
 25 26  1  0
 25 27  2  0
 23 28  1  0
 28 29  2  0
 18 30  1  0
 30 31  1  0
 14 32  1  0
 32 33  2  0
 32 34  1  0
 34 35  1  0
 35 36  2  0
 11  6  1  0
 35 12  1  0
 31 15  1  0
 29 20  1  0
M  CHG  4  11  -1  18   1  26  -1  34  -1
M  END
>  <UniqueID>  (1454) 
34

>  <SMILES>  (1454) 
CN(C(=O)N=c1cccc[n-]1)c1cn(C2CC[NH+](Cc3ccc(CC([NH-])=O)cc3)CC2)c(=O)[n-]c1=O

>  <Energy>  (1454) 
94.7093526303396

>  <Genealogy>  (1454) 
CN(C(=O)N=c1cccc[n-]1)c1cn(C2CC[NH+](Cc3ccc(CC([NH-])=O)cc3)CC2)c(=O)[n-]c1=O (protonated)
CN(C(=O)N=c1cccc[n-]1)c1cn(C2CC[NH+](Cc3ccc(CC([NH-])=O)cc3)CC2)c(=O)[n-]c1=O (3D coordinates assigned)
CN(C(=O)N=c1cccc[n-]1)c1cn(C2CC[NH+](Cc3ccc(CC([NH-])=O)cc3)CC2)c(=O)[n-]c1=O (nonaromatic ring conformer: 94.7093526303396 kcal/mol)

>  <smiles>  (1454) 
CN(C(=O)N=c1cccc[nH]1)c1cn(C2CCN(Cc3ccc(CC(N)=O)cc3)CC2)c(=O)[nH]c1=O

>  <score_type>  (1454) 
oracle

>  <origin>  (1454) 
adg

>  <m_score__min__energy>  (1454) 
-14.119999999999999

>  <m_primary>  (1454) 
energy

$$$$
35:0
     RDKit          3D

 26 29  0  0  0  0  0  0  0  0999 V2000
   58.9800   28.6500   47.7850 C   0  0  0  0  0  0  0  0  0  0  0  0
   58.2590   29.1490   46.7690 C   0  0  0  0  0  0  0  0  0  0  0  0
   57.8810   28.4980   45.5880 C   0  0  0  0  0  0  0  0  0  0  0  0
   57.9500   27.2000   45.2260 C   0  0  0  0  0  0  0  0  0  0  0  0
   57.3840   26.0730   45.9850 C   0  0  0  0  0  0  0  0  0  0  0  0
   58.1160   25.1240   46.5970 N   0  0  0  0  0  0  0  0  0  0  0  0
   57.1940   24.4010   47.2660 C   0  0  0  0  0  0  0  0  0  0  0  0
   57.4940   23.3960   47.9620 O   0  0  0  0  0  0  0  0  0  0  0  0
   55.9260   24.8460   47.1420 N   0  0  0  0  0  0  0  0  0  0  0  0
   56.0630   25.9120   46.3380 C   0  0  0  0  0  0  0  0  0  0  0  0
   54.9980   26.7160   45.9420 O   0  0  0  0  0  0  0  0  0  0  0  0
   57.3630   29.5170   44.7940 C   0  0  0  0  0  0  0  0  0  0  0  0
   56.8060   29.3860   43.4110 C   0  0  0  0  0  0  0  0  0  0  0  0
   57.3740   30.6790   45.4710 N   0  0  0  0  0  0  0  0  0  0  0  0
   57.9020   30.4550   46.6650 N   0  0  0  0  0  0  0  0  0  0  0  0
   58.1430   31.5360   47.6230 C   0  0  0  0  0  0  0  0  0  0  0  0
   59.5770   31.9630   47.5740 C   0  0  0  0  0  0  0  0  0  0  0  0
   60.2480   32.9850   46.4030 S   0  0  0  0  0  0  0  0  0  0  0  0
   61.7910   32.9870   47.0690 C   0  0  0  0  0  0  0  0  0  0  0  0
   62.9270   33.6520   46.6120 C   0  0  0  0  0  0  0  0  0  0  0  0
   64.1170   33.5070   47.3420 C   0  0  0  0  0  0  0  0  0  0  0  0
   64.1480   32.7100   48.5030 C   0  0  0  0  0  0  0  0  0  0  0  0
   62.9890   32.0480   48.9450 C   0  0  0  0  0  0  0  0  0  0  0  0
   61.8080   32.1980   48.2110 C   0  0  0  0  0  0  0  0  0  0  0  0
   60.5660   31.6230   48.4990 C   0  0  0  0  0  0  0  0  0  0  0  0
   60.3390   30.7970   49.5930 O   0  0  0  0  0  0  0  0  0  0  0  0
  1  2  2  0
  2  3  1  0
  3  4  2  3
  4  5  1  0
  5  6  1  0
  6  7  1  0
  7  8  2  0
  7  9  1  0
  9 10  1  0
 10 11  1  0
  3 12  1  0
 12 13  1  0
 12 14  2  0
 14 15  1  0
 15 16  1  0
 16 17  1  0
 17 18  1  0
 18 19  1  0
 19 20  2  0
 20 21  1  0
 21 22  2  0
 22 23  1  0
 23 24  2  0
 24 25  1  0
 25 26  1  0
 15  2  1  0
 25 17  2  0
 10  5  2  0
 24 19  1  0
M  CHG  3   6  -1   9  -1  26  -1
M  END
>  <UniqueID>  (1455) 
36

>  <SMILES>  (1455) 
C=c1c(=Cc2[n-]c(=O)[n-]c2O)c(C)nn1Cc1sc2ccccc2c1[O-]

>  <Energy>  (1455) 
144.49019919164007

>  <Genealogy>  (1455) 
C=c1c(=Cc2[n-]c(=O)[n-]c2O)c(C)nn1Cc1sc2ccccc2c1[O-] (protonated)
C=c1c(=Cc2[n-]c(=O)[n-]c2O)c(C)nn1Cc1sc2ccccc2c1[O-] (3D coordinates assigned)
C=c1c(=Cc2[n-]c(=O)[n-]c2O)c(C)nn1Cc1sc2ccccc2c1[O-] (optimized conformer: 144.49019919164007 kcal/mol)

>  <smiles>  (1455) 
C=c1c(=Cc2[nH]c(=O)[nH]c2O)c(C)nn1Cc1sc2ccccc2c1O

>  <score_type>  (1455) 
oracle

>  <origin>  (1455) 
adg

>  <m_score__min__energy>  (1455) 
-14.93

>  <m_primary>  (1455) 
energy

$$$$
37:0
     RDKit          3D

 24 26  0  0  0  0  0  0  0  0999 V2000
   58.1190   27.5570   47.4190 C   0  0  0  0  0  0  0  0  0  0  0  0
   58.0390   27.6480   46.0830 C   0  0  0  0  0  0  0  0  0  0  0  0
   57.8150   26.6120   45.1570 C   0  0  0  0  0  0  0  0  0  0  0  0
   57.5050   25.3100   45.3350 C   0  0  0  0  0  0  0  0  0  0  0  0
   56.1590   24.7240   45.1960 C   0  0  0  0  0  0  0  0  0  0  0  0
   55.0290   25.4370   45.6160 C   0  0  0  0  0  0  0  0  0  0  0  0
   55.1540   26.7270   46.1210 O   0  0  0  0  0  0  0  0  0  0  0  0
   53.7970   24.8730   45.5230 N   0  0  0  0  0  0  0  0  0  0  0  0
   53.6380   23.6130   45.0420 C   0  0  0  0  0  0  0  0  0  0  0  0
   52.4870   23.1110   44.9610 O   0  0  0  0  0  0  0  0  0  0  0  0
   54.7210   22.8910   44.6530 N   0  0  0  0  0  0  0  0  0  0  0  0
   55.9730   23.4110   44.7270 C   0  0  0  0  0  0  0  0  0  0  0  0
   56.9580   22.7060   44.3770 O   0  0  0  0  0  0  0  0  0  0  0  0
   57.9660   27.2250   43.9160 C   0  0  0  0  0  0  0  0  0  0  0  0
   57.8330   26.5820   42.5690 C   0  0  0  0  0  0  0  0  0  0  0  0
   58.2200   28.5330   44.0930 N   0  0  0  0  0  0  0  0  0  0  0  0
   58.2640   28.7950   45.3900 N   0  0  0  0  0  0  0  0  0  0  0  0
   58.5890   30.1220   45.9240 C   0  0  0  0  0  0  0  0  0  0  0  0
   58.2330   31.1920   44.9330 C   0  0  0  0  0  0  0  0  0  0  0  0
   58.1790   30.9890   43.6050 N   0  0  0  0  0  0  0  0  0  0  0  0
   57.7910   32.1820   43.1070 C   0  0  0  0  0  0  0  0  0  0  0  0
   57.5920   33.1260   44.0510 N   0  0  0  0  0  0  0  0  0  0  0  0
   57.8820   32.4970   45.2030 C   0  0  0  0  0  0  0  0  0  0  0  0
   57.7540   33.1360   46.5490 C   0  0  0  0  0  0  0  0  0  0  0  0
  1  2  2  0
  2  3  1  0
  3  4  2  3
  4  5  1  0
  5  6  2  0
  6  7  1  0
  6  8  1  0
  8  9  1  0
  9 10  2  0
  9 11  1  0
 11 12  1  0
 12 13  2  0
  3 14  1  0
 14 15  1  0
 14 16  2  0
 16 17  1  0
 17 18  1  0
 18 19  1  0
 19 20  1  0
 20 21  2  0
 21 22  1  0
 22 23  1  0
 23 24  1  0
 17  2  1  0
 23 19  2  0
 12  5  1  0
M  CHG  5   7  -1   8  -1  11  -1  16   1  22  -1
M  END
>  <UniqueID>  (1456) 
38

>  <SMILES>  (1456) 
C=c1c(=Cc2c([O-])[n-]c(=O)[n-]c2=O)c(C)[nH+]n1Cc1nc[n-]c1C

>  <Energy>  (1456) 
110.70500388638986

>  <Genealogy>  (1456) 
C=c1c(=Cc2c([O-])[n-]c(=O)[n-]c2=O)c(C)[nH+]n1Cc1nc[n-]c1C (protonated)
C=c1c(=Cc2c([O-])[n-]c(=O)[n-]c2=O)c(C)[nH+]n1Cc1nc[n-]c1C (3D coordinates assigned)
C=c1c(=Cc2c([O-])[n-]c(=O)[n-]c2=O)c(C)[nH+]n1Cc1nc[n-]c1C (optimized conformer: 110.70500388638986 kcal/mol)

>  <smiles>  (1456) 
C=c1c(=Cc2c(O)[nH]c(=O)[nH]c2=O)c(C)nn1Cc1nc[nH]c1C

>  <score_type>  (1456) 
oracle

>  <origin>  (1456) 
adg

>  <m_score__min__energy>  (1456) 
-14.220000000000001

>  <m_primary>  (1456) 
energy

$$$$
40:0
     RDKit          3D

 30 33  0  0  0  0  0  0  0  0999 V2000
   57.8190   32.3920   49.5340 O   0  0  0  0  0  0  0  0  0  0  0  0
   58.5720   32.1120   48.5630 C   0  0  0  0  0  0  0  0  0  0  0  0
   59.4010   30.8660   48.6190 C   0  0  0  0  0  0  0  0  0  0  0  0
   60.3740   30.7340   47.0820 S   0  0  0  0  0  0  0  0  0  0  0  0
   59.8690   29.0490   46.7280 C   0  0  0  0  0  0  0  0  0  0  0  0
   60.4200   27.9660   47.3100 N   0  0  0  0  0  0  0  0  0  0  0  0
   59.8250   26.9040   46.7840 N   0  0  0  0  0  0  0  0  0  0  0  0
   58.9310   27.3550   45.8820 C   0  0  0  0  0  0  0  0  0  0  0  0
   58.0250   26.4570   45.0920 C   0  0  0  0  0  0  0  0  0  0  0  0
   57.2570   25.5500   46.0040 C   0  0  0  0  0  0  0  0  0  0  0  0
   57.7580   24.4250   46.5450 N   0  0  0  0  0  0  0  0  0  0  0  0
   56.7080   23.9150   47.2260 C   0  0  0  0  0  0  0  0  0  0  0  0
   56.7800   22.8420   47.8790 O   0  0  0  0  0  0  0  0  0  0  0  0
   55.5730   24.6440   47.1500 N   0  0  0  0  0  0  0  0  0  0  0  0
   55.9380   25.6740   46.3690 C   0  0  0  0  0  0  0  0  0  0  0  0
   55.0820   26.6990   45.9900 O   0  0  0  0  0  0  0  0  0  0  0  0
   58.9340   28.7020   45.8250 N   0  0  0  0  0  0  0  0  0  0  0  0
   58.1580   29.5610   44.9800 C   0  0  0  0  0  0  0  0  0  0  0  0
   58.7880   30.5580   44.2210 C   0  0  0  0  0  0  0  0  0  0  0  0
   58.0340   31.3830   43.3810 C   0  0  0  0  0  0  0  0  0  0  0  0
   56.6480   31.2130   43.2920 C   0  0  0  0  0  0  0  0  0  0  0  0
   56.0170   30.2150   44.0400 C   0  0  0  0  0  0  0  0  0  0  0  0
   56.7700   29.3890   44.8820 C   0  0  0  0  0  0  0  0  0  0  0  0
   58.7130   33.0780   47.4560 C   0  0  0  0  0  0  0  0  0  0  0  0
   57.7690   33.0710   46.4150 C   0  0  0  0  0  0  0  0  0  0  0  0
   57.8650   33.9910   45.3670 C   0  0  0  0  0  0  0  0  0  0  0  0
   58.9080   34.9190   45.3440 C   0  0  0  0  0  0  0  0  0  0  0  0
   59.8610   34.9240   46.3640 C   0  0  0  0  0  0  0  0  0  0  0  0
   59.7760   34.0030   47.4140 C   0  0  0  0  0  0  0  0  0  0  0  0
   60.7600   34.0030   48.3970 O   0  0  0  0  0  0  0  0  0  0  0  0
  1  2  2  0
  2  3  1  0
  3  4  1  0
  4  5  1  0
  5  6  2  0
  6  7  1  0
  7  8  2  0
  8  9  1  0
  9 10  1  0
 10 11  1  0
 11 12  1  0
 12 13  2  0
 12 14  1  0
 14 15  1  0
 15 16  1  0
  8 17  1  0
 17 18  1  0
 18 19  2  0
 19 20  1  0
 20 21  2  0
 21 22  1  0
 22 23  2  0
  2 24  1  0
 24 25  2  0
 25 26  1  0
 26 27  2  0
 27 28  1  0
 28 29  2  0
 29 30  1  0
 17  5  1  0
 23 18  1  0
 29 24  1  0
 15 10  2  0
M  CHG  4  11  -1  14  -1  16  -1  30  -1
M  END
>  <UniqueID>  (1457) 
41

>  <SMILES>  (1457) 
O=C(CSc1nnc(Cc2[n-]c(=O)[n-]c2[O-])n1-c1ccccc1)c1ccccc1[O-]

>  <Energy>  (1457) 
114.52812871912161

>  <Genealogy>  (1457) 
O=C(CSc1nnc(Cc2[n-]c(=O)[n-]c2[O-])n1-c1ccccc1)c1ccccc1[O-] (protonated)
O=C(CSc1nnc(Cc2[n-]c(=O)[n-]c2[O-])n1-c1ccccc1)c1ccccc1[O-] (3D coordinates assigned)
O=C(CSc1nnc(Cc2[n-]c(=O)[n-]c2[O-])n1-c1ccccc1)c1ccccc1[O-] (optimized conformer: 114.52812871912161 kcal/mol)

>  <smiles>  (1457) 
O=C(CSc1nnc(Cc2[nH]c(=O)[nH]c2O)n1-c1ccccc1)c1ccccc1O

>  <score_type>  (1457) 
oracle

>  <origin>  (1457) 
adg

>  <m_score__min__energy>  (1457) 
-16.789999999999999

>  <m_primary>  (1457) 
energy

$$$$
41:0
     RDKit          3D

 23 24  0  0  0  0  0  0  0  0999 V2000
   59.7970   26.6630   46.7320 C   0  0  0  0  0  0  0  0  0  0  0  0
   58.6280   27.3190   46.5510 C   0  0  0  0  0  0  0  0  0  0  0  0
   57.4110   26.5810   46.5280 C   0  0  0  0  0  0  0  0  0  0  0  0
   57.3340   25.1510   47.0260 C   0  0  0  0  0  0  0  0  0  0  0  0
   56.2640   27.1600   45.9650 C   0  0  0  0  0  0  0  0  0  0  0  0
   55.0770   26.4370   45.8740 O   0  0  0  0  0  0  0  0  0  0  0  0
   56.2950   28.4570   45.4610 C   0  0  0  0  0  0  0  0  0  0  0  0
   55.1440   28.9650   44.8640 O   0  0  0  0  0  0  0  0  0  0  0  0
   57.4550   29.2460   45.5720 C   0  0  0  0  0  0  0  0  0  0  0  0
   57.4140   30.6660   45.0390 C   0  0  0  0  0  0  0  0  0  0  0  0
   58.6010   28.7240   46.2480 C   0  0  0  0  0  0  0  0  0  0  0  0
   59.5960   29.5810   46.6270 C   0  0  0  0  0  0  0  0  0  0  0  0
   59.4540   30.5940   47.6450 N   0  0  0  0  0  0  0  0  0  0  0  0
   58.9690   30.2330   48.8750 C   0  0  0  0  0  0  0  0  0  0  0  0
   58.5740   28.9160   49.1020 O   0  0  0  0  0  0  0  0  0  0  0  0
   58.8560   31.1910   49.9010 C   0  0  0  0  0  0  0  0  0  0  0  0
   58.3330   30.8760   51.2000 N   0  0  0  0  0  0  0  0  0  0  0  0
   57.3550   30.1200   51.3690 O   0  0  0  0  0  0  0  0  0  0  0  0
   59.2740   32.4960   49.6300 C   0  0  0  0  0  0  0  0  0  0  0  0
   59.1850   33.3910   50.5120 O   0  0  0  0  0  0  0  0  0  0  0  0
   59.7850   32.8070   48.4150 N   0  0  0  0  0  0  0  0  0  0  0  0
   59.8920   31.8770   47.4320 C   0  0  0  0  0  0  0  0  0  0  0  0
   60.4090   32.2090   46.3310 O   0  0  0  0  0  0  0  0  0  0  0  0
  1  2  2  0
  2  3  1  0
  3  4  1  0
  3  5  2  0
  5  6  1  0
  5  7  1  0
  7  8  1  0
  7  9  2  0
  9 10  1  0
  9 11  1  0
 11 12  2  3
 12 13  1  0
 13 14  1  0
 14 15  1  0
 14 16  2  0
 16 17  1  0
 17 18  2  0
 16 19  1  0
 19 20  2  0
 19 21  1  0
 21 22  1  0
 22 23  2  0
 11  2  1  0
 22 13  1  0
M  CHG  4   6  -1   8  -1  15  -1  21  -1
M  END
>  <UniqueID>  (1458) 
42

>  <SMILES>  (1458) 
C=c1c(C)c([O-])c([O-])c(C)c1=Cn1c([O-])c(N=O)c(=O)[n-]c1=O

>  <Energy>  (1458) 
70.96209413176484

>  <Genealogy>  (1458) 
C=c1c(C)c([O-])c([O-])c(C)c1=Cn1c([O-])c(N=O)c(=O)[n-]c1=O (protonated)
C=c1c(C)c([O-])c([O-])c(C)c1=Cn1c([O-])c(N=O)c(=O)[n-]c1=O (3D coordinates assigned)
C=c1c(C)c([O-])c([O-])c(C)c1=Cn1c([O-])c(N=O)c(=O)[n-]c1=O (optimized conformer: 70.96209413176484 kcal/mol)

>  <smiles>  (1458) 
C=c1c(C)c(O)c(O)c(C)c1=Cn1c(O)c(N=O)c(=O)[nH]c1=O

>  <score_type>  (1458) 
oracle

>  <origin>  (1458) 
adg

>  <m_score__min__energy>  (1458) 
-16.460000000000001

>  <m_primary>  (1458) 
energy

$$$$
42:0
     RDKit          3D

 26 28  0  0  0  0  0  0  0  0999 V2000
   58.2570   30.1870   47.4500 H   0  0  0  0  0  0  0  0  0  0  0  0
   57.8020   30.4490   46.5500 N   0  0  0  0  0  0  0  0  0  0  0  0
   58.2640   31.3730   45.7630 C   0  0  0  0  0  0  0  0  0  0  0  0
   57.9890   31.3290   44.3060 C   0  0  0  0  0  0  0  0  0  0  0  0
   57.5930   30.1750   43.7220 C   0  0  0  0  0  0  0  0  0  0  0  0
   57.5260   28.8640   44.3960 C   0  0  0  0  0  0  0  0  0  0  0  0
   58.6990   28.1110   44.5440 C   0  0  0  0  0  0  0  0  0  0  0  0
   58.6670   26.8810   45.2090 C   0  0  0  0  0  0  0  0  0  0  0  0
   57.4680   26.4060   45.7460 C   0  0  0  0  0  0  0  0  0  0  0  0
   56.2990   27.1640   45.6290 C   0  0  0  0  0  0  0  0  0  0  0  0
   55.1120   26.6910   46.1790 O   0  0  0  0  0  0  0  0  0  0  0  0
   56.3240   28.3970   44.9640 C   0  0  0  0  0  0  0  0  0  0  0  0
   55.1610   29.1560   44.8770 O   0  0  0  0  0  0  0  0  0  0  0  0
   58.1910   32.6160   43.5710 C   0  0  0  0  0  0  0  0  0  0  0  0
   58.0990   32.6780   42.3180 O   0  0  0  0  0  0  0  0  0  0  0  0
   58.5290   33.8090   44.2950 N   0  0  0  0  0  0  0  0  0  0  0  0
   58.8030   33.7840   45.5630 C   0  0  0  0  0  0  0  0  0  0  0  0
   59.3040   35.2240   46.4840 S   0  0  0  0  0  0  0  0  0  0  0  0
   59.8260   34.0680   47.7650 C   0  0  0  0  0  0  0  0  0  0  0  0
   59.5450   32.7860   47.5280 C   0  0  0  0  0  0  0  0  0  0  0  0
   60.1240   31.7090   48.3540 C   0  0  0  0  0  0  0  0  0  0  0  0
   61.2760   31.8420   48.8500 O   0  0  0  0  0  0  0  0  0  0  0  0
   59.3670   30.5650   48.6270 O   0  0  0  0  0  0  0  0  0  0  0  0
   59.9440   29.3610   49.1210 C   0  0  0  0  0  0  0  0  0  0  0  0
   59.6050   28.2120   48.1860 C   0  0  0  0  0  0  0  0  0  0  0  0
   58.8640   32.5690   46.2900 N   0  0  0  0  0  0  0  0  0  0  0  0
  1  2  1  0
  2  3  2  0
  3  4  1  0
  4  5  2  0
  5  6  1  0
  6  7  2  0
  7  8  1  0
  8  9  2  0
  9 10  1  0
 10 11  1  0
 10 12  2  0
 12 13  1  0
  4 14  1  0
 14 15  2  0
 14 16  1  0
 16 17  2  0
 17 18  1  0
 18 19  1  0
 19 20  2  0
 20 21  1  0
 21 22  2  0
 21 23  1  0
 23 24  1  0
 24 25  1  0
 20 26  1  0
 26  3  1  0
 12  6  1  0
 26 17  1  0
M  CHG  2  11  -1  13  -1
M  END
>  <UniqueID>  (1459) 
43

>  <SMILES>  (1459) 
[H]/N=C1/C(=Cc2cccc([O-])c2[O-])C(=O)N=C2SC=C(C(=O)OCC)N21

>  <Energy>  (1459) 
72.30774421948244

>  <Genealogy>  (1459) 
CCOC(=O)C1=CSC2=NC(=O)C(=Cc3cccc([O-])c3[O-])C(=N)N12 (protonated)
[H]/N=C1/C(=Cc2cccc([O-])c2[O-])C(=O)N=C2SC=C(C(=O)OCC)N21 (cis-trans isomerization)
[H]/N=C1/C(=Cc2cccc([O-])c2[O-])C(=O)N=C2SC=C(C(=O)OCC)N21 (3D coordinates assigned)
[H]/N=C1/C(=Cc2cccc([O-])c2[O-])C(=O)N=C2SC=C(C(=O)OCC)N21 (nonaromatic ring conformer: 72.30774421948244 kcal/mol)

>  <smiles>  (1459) 
CCOC(=O)C1=CSC2=NC(=O)C(=Cc3cccc(O)c3O)C(=N)N12

>  <score_type>  (1459) 
oracle

>  <origin>  (1459) 
adg

>  <m_score__min__energy>  (1459) 
-15.289999999999999

>  <m_primary>  (1459) 
energy

$$$$
43:0
     RDKit          3D

 33 36  0  0  0  0  0  0  0  0999 V2000
   50.6810   32.7600   51.9970 N   0  0  0  0  0  0  0  0  0  0  0  0
   51.0850   31.4950   53.1030 S   0  0  0  0  0  0  0  0  0  0  0  0
   50.1770   30.3210   52.8720 O   0  0  0  0  0  0  0  0  0  0  0  0
   50.8950   31.9810   54.5130 O   0  0  0  0  0  0  0  0  0  0  0  0
   52.7610   31.0140   52.8600 C   0  0  0  0  0  0  0  0  0  0  0  0
   53.3770   31.2100   51.6170 C   0  0  0  0  0  0  0  0  0  0  0  0
   54.7050   30.8180   51.4200 C   0  0  0  0  0  0  0  0  0  0  0  0
   55.4240   30.2030   52.4520 C   0  0  0  0  0  0  0  0  0  0  0  0
   56.7970   29.8450   52.2170 N   0  0  0  0  0  0  0  0  0  0  0  0
   57.5650   30.2780   51.2610 C   0  0  0  0  0  0  0  0  0  0  0  0
   57.8390   31.6030   51.1180 N   0  0  0  0  0  0  0  0  0  0  0  0
   58.6620   32.0330   50.1310 C   0  0  0  0  0  0  0  0  0  0  0  0
   58.9020   33.3050   50.0070 N   0  0  0  0  0  0  0  0  0  0  0  0
   59.8310   33.8920   49.0410 C   0  0  0  0  0  0  0  0  0  0  0  0
   59.1880   34.0140   47.6840 C   0  0  0  0  0  0  0  0  0  0  0  0
   59.8410   34.6960   46.6440 C   0  0  0  0  0  0  0  0  0  0  0  0
   59.2500   34.7820   45.3790 C   0  0  0  0  0  0  0  0  0  0  0  0
   58.0030   34.1960   45.1470 C   0  0  0  0  0  0  0  0  0  0  0  0
   57.3460   33.5200   46.1790 C   0  0  0  0  0  0  0  0  0  0  0  0
   57.9340   33.4280   47.4430 C   0  0  0  0  0  0  0  0  0  0  0  0
   59.2210   31.1300   49.2820 N   0  0  0  0  0  0  0  0  0  0  0  0
   58.9580   29.8030   49.4210 C   0  0  0  0  0  0  0  0  0  0  0  0
   59.4800   28.9310   48.6110 N   0  0  0  0  0  0  0  0  0  0  0  0
   60.0640   29.2680   47.3170 C   0  0  0  0  0  0  0  0  0  0  0  0
   58.9730   29.3980   46.2950 C   0  0  0  0  0  0  0  0  0  0  0  0
   58.8860   30.5470   45.4920 C   0  0  0  0  0  0  0  0  0  0  0  0
   57.8480   30.6800   44.5640 C   0  0  0  0  0  0  0  0  0  0  0  0
   56.8860   29.6750   44.4400 C   0  0  0  0  0  0  0  0  0  0  0  0
   56.9550   28.5360   45.2470 C   0  0  0  0  0  0  0  0  0  0  0  0
   57.9910   28.3990   46.1760 C   0  0  0  0  0  0  0  0  0  0  0  0
   58.1350   29.3830   50.4140 N   0  0  0  0  0  0  0  0  0  0  0  0
   54.8120   30.0290   53.7070 C   0  0  0  0  0  0  0  0  0  0  0  0
   53.4840   30.4210   53.9030 C   0  0  0  0  0  0  0  0  0  0  0  0
  1  2  1  0
  2  3  2  0
  2  4  2  0
  2  5  1  0
  5  6  2  0
  6  7  1  0
  7  8  2  0
  8  9  1  0
  9 10  2  3
 10 11  1  0
 11 12  1  0
 12 13  2  3
 13 14  1  0
 14 15  1  0
 15 16  2  0
 16 17  1  0
 17 18  2  0
 18 19  1  0
 19 20  2  0
 12 21  1  0
 21 22  1  0
 22 23  2  3
 23 24  1  0
 24 25  1  0
 25 26  2  0
 26 27  1  0
 27 28  2  0
 28 29  1  0
 29 30  2  0
 22 31  1  0
  8 32  1  0
 32 33  2  0
 33  5  1  0
 31 10  1  0
 20 15  1  0
 30 25  1  0
M  CHG  4   1  -1  11  -1  21  -1  31  -1
M  END
>  <UniqueID>  (1460) 
44

>  <SMILES>  (1460) 
[NH-]S(=O)(=O)c1ccc(N=c2[n-]c(=NCc3ccccc3)[n-]c(=NCc3ccccc3)[n-]2)cc1

>  <Energy>  (1460) 
59.81412440608624

>  <Genealogy>  (1460) 
[NH-]S(=O)(=O)c1ccc(N=c2[n-]c(=NCc3ccccc3)[n-]c(=NCc3ccccc3)[n-]2)cc1 (protonated)
[NH-]S(=O)(=O)c1ccc(N=c2[n-]c(=NCc3ccccc3)[n-]c(=NCc3ccccc3)[n-]2)cc1 (3D coordinates assigned)
[NH-]S(=O)(=O)c1ccc(N=c2[n-]c(=NCc3ccccc3)[n-]c(=NCc3ccccc3)[n-]2)cc1 (optimized conformer: 59.81412440608624 kcal/mol)

>  <smiles>  (1460) 
NS(=O)(=O)c1ccc(N=c2[nH]c(=NCc3ccccc3)[nH]c(=NCc3ccccc3)[nH]2)cc1

>  <score_type>  (1460) 
oracle

>  <origin>  (1460) 
adg

>  <m_score__min__energy>  (1460) 
-15.16

>  <m_primary>  (1460) 
energy

$$$$
52:0
     RDKit          3D

 31 34  0  0  0  0  0  0  0  0999 V2000
   55.1510   26.5340   46.0210 N   0  0  0  0  0  0  0  0  0  0  0  0
   56.4060   25.9250   46.3190 C   0  0  0  0  0  0  0  0  0  0  0  0
   56.4400   24.6940   46.5930 O   0  0  0  0  0  0  0  0  0  0  0  0
   57.6550   26.7230   46.3040 C   0  0  0  0  0  0  0  0  0  0  0  0
   58.2510   27.0950   45.0870 C   0  0  0  0  0  0  0  0  0  0  0  0
   59.4230   27.8540   45.0760 C   0  0  0  0  0  0  0  0  0  0  0  0
   60.0180   28.2450   46.2750 C   0  0  0  0  0  0  0  0  0  0  0  0
   59.4530   27.8690   47.5030 C   0  0  0  0  0  0  0  0  0  0  0  0
   60.0980   28.2960   48.8080 C   0  0  0  0  0  0  0  0  0  0  0  0
   59.9330   29.7320   49.1250 N   0  0  0  0  0  0  0  0  0  0  0  0
   61.0520   30.3010   49.8920 C   0  0  0  0  0  0  0  0  0  0  0  0
   60.9720   31.8430   49.8660 C   0  0  0  0  0  0  0  0  0  0  0  0
   59.5840   32.3720   49.7220 N   0  0  0  0  0  0  0  0  0  0  0  0
   59.2630   32.7660   48.3150 C   0  0  0  0  0  0  0  0  0  0  0  0
   60.1490   31.9820   47.3260 C   0  0  0  0  0  0  0  0  0  0  0  0
   59.6390   32.1790   45.8920 C   0  0  0  0  0  0  0  0  0  0  0  0
   59.2660   33.5800   45.5920 N   0  0  0  0  0  0  0  0  0  0  0  0
   57.9310   33.7870   44.9940 C   0  0  0  0  0  0  0  0  0  0  0  0
   57.4170   32.5890   44.2290 C   0  0  0  0  0  0  0  0  0  0  0  0
   57.7900   32.3900   42.8900 C   0  0  0  0  0  0  0  0  0  0  0  0
   57.3680   31.2510   42.2010 C   0  0  0  0  0  0  0  0  0  0  0  0
   56.5810   30.2900   42.8410 C   0  0  0  0  0  0  0  0  0  0  0  0
   56.2080   29.1420   42.1430 O   0  0  0  0  0  0  0  0  0  0  0  0
   56.1890   30.4880   44.1740 C   0  0  0  0  0  0  0  0  0  0  0  0
   55.3930   29.5520   44.8220 O   0  0  0  0  0  0  0  0  0  0  0  0
   56.6110   31.6290   44.8650 C   0  0  0  0  0  0  0  0  0  0  0  0
   59.7300   34.6170   46.5350 C   0  0  0  0  0  0  0  0  0  0  0  0
   59.4830   34.2760   48.0240 C   0  0  0  0  0  0  0  0  0  0  0  0
   58.6180   31.4520   50.3740 C   0  0  0  0  0  0  0  0  0  0  0  0
   58.6300   30.0430   49.7460 C   0  0  0  0  0  0  0  0  0  0  0  0
   58.2620   27.1210   47.5100 C   0  0  0  0  0  0  0  0  0  0  0  0
  1  2  1  0
  2  3  2  0
  2  4  1  0
  4  5  2  0
  5  6  1  0
  6  7  2  0
  7  8  1  0
  8  9  1  0
  9 10  1  0
 10 11  1  0
 11 12  1  0
 12 13  1  0
 13 14  1  0
 14 15  1  0
 15 16  1  0
 16 17  1  0
 17 18  1  0
 18 19  1  0
 19 20  2  0
 20 21  1  0
 21 22  2  0
 22 23  1  0
 22 24  1  0
 24 25  1  0
 24 26  2  0
 17 27  1  0
 27 28  1  0
 13 29  1  0
 29 30  1  0
  8 31  2  0
 31  4  1  0
 30 10  1  0
 28 14  1  0
 26 19  1  0
M  CHG  2   1  -1  25  -1
M  END
>  <UniqueID>  (1461) 
52

>  <SMILES>  (1461) 
[NH-]C(=O)c1cccc(CN2CCN(C3CCN(Cc4ccc(O)c([O-])c4)CC3)CC2)c1

>  <Energy>  (1461) 
94.86585394835507

>  <Genealogy>  (1461) 
[NH-]C(=O)c1cccc(CN2CCN(C3CCN(Cc4ccc(O)c([O-])c4)CC3)CC2)c1 (protonated)
[NH-]C(=O)c1cccc(CN2CCN(C3CCN(Cc4ccc(O)c([O-])c4)CC3)CC2)c1 (3D coordinates assigned)
[NH-]C(=O)c1cccc(CN2CCN(C3CCN(Cc4ccc(O)c([O-])c4)CC3)CC2)c1 (nonaromatic ring conformer: 94.86585394835507 kcal/mol)

>  <smiles>  (1461) 
NC(=O)c1cccc(CN2CCN(C3CCN(Cc4ccc(O)c(O)c4)CC3)CC2)c1

>  <score_type>  (1461) 
oracle

>  <origin>  (1461) 
adg

>  <m_score__min__energy>  (1461) 
-15.91

>  <m_primary>  (1461) 
energy

$$$$
53:0
     RDKit          3D

 28 31  0  0  0  0  0  0  0  0999 V2000
   59.4090   30.0150   44.8030 C   0  0  0  0  0  0  0  0  0  0  0  0
   59.1600   29.7470   46.0940 C   0  0  0  0  0  0  0  0  0  0  0  0
   58.3180   28.7460   46.5880 C   0  0  0  0  0  0  0  0  0  0  0  0
   57.5580   27.8910   45.8760 C   0  0  0  0  0  0  0  0  0  0  0  0
   57.3210   26.4860   46.2750 C   0  0  0  0  0  0  0  0  0  0  0  0
   56.0260   25.9420   46.3310 C   0  0  0  0  0  0  0  0  0  0  0  0
   54.9150   26.7150   46.0080 O   0  0  0  0  0  0  0  0  0  0  0  0
   55.8460   24.6550   46.7250 N   0  0  0  0  0  0  0  0  0  0  0  0
   56.9000   23.8800   47.0860 C   0  0  0  0  0  0  0  0  0  0  0  0
   56.7100   22.6890   47.4440 O   0  0  0  0  0  0  0  0  0  0  0  0
   58.1580   24.3900   47.0690 N   0  0  0  0  0  0  0  0  0  0  0  0
   58.3910   25.6700   46.6810 C   0  0  0  0  0  0  0  0  0  0  0  0
   59.5710   26.1120   46.6810 O   0  0  0  0  0  0  0  0  0  0  0  0
   58.3860   28.8260   47.9730 C   0  0  0  0  0  0  0  0  0  0  0  0
   59.2520   29.8590   48.2670 C   0  0  0  0  0  0  0  0  0  0  0  0
   59.6170   30.2910   49.6550 C   0  0  0  0  0  0  0  0  0  0  0  0
   59.7410   30.4040   47.1300 N   0  0  0  0  0  0  0  0  0  0  0  0
   60.6400   31.5250   47.0510 C   0  0  0  0  0  0  0  0  0  0  0  0
   61.9890   31.3330   47.3900 C   0  0  0  0  0  0  0  0  0  0  0  0
   62.9100   32.3710   47.2440 C   0  0  0  0  0  0  0  0  0  0  0  0
   62.4980   33.6070   46.7490 C   0  0  0  0  0  0  0  0  0  0  0  0
   61.1590   33.8150   46.4100 C   0  0  0  0  0  0  0  0  0  0  0  0
   60.2120   32.7880   46.5700 C   0  0  0  0  0  0  0  0  0  0  0  0
   58.7990   33.0690   46.2280 C   0  0  0  0  0  0  0  0  0  0  0  0
   58.3570   33.3070   44.9790 N   0  0  0  0  0  0  0  0  0  0  0  0
   57.0590   33.5440   45.1120 N   0  0  0  0  0  0  0  0  0  0  0  0
   56.7140   33.4670   46.3890 N   0  0  0  0  0  0  0  0  0  0  0  0
   57.7840   33.1740   47.1040 N   0  0  0  0  0  0  0  0  0  0  0  0
  1  2  2  0
  2  3  1  0
  3  4  2  0
  4  5  1  0
  5  6  2  0
  6  7  1  0
  6  8  1  0
  8  9  1  0
  9 10  2  0
  9 11  1  0
 11 12  1  0
 12 13  2  0
  3 14  1  0
 14 15  2  0
 15 16  1  0
 15 17  1  0
 17 18  1  0
 18 19  2  0
 19 20  1  0
 20 21  2  0
 21 22  1  0
 22 23  2  0
 23 24  1  0
 24 25  2  0
 25 26  1  0
 26 27  1  0
 27 28  2  0
 17  2  1  0
 23 18  1  0
 28 24  1  0
 12  5  1  0
M  CHG  5   7  -1   8  -1  11  -1  26  -1  28   1
M  END
>  <UniqueID>  (1462) 
53

>  <SMILES>  (1462) 
C=c1/c(=C/c2c([O-])[n-]c(=O)[n-]c2=O)cc(C)n1-c1ccccc1-c1n[n-]n[nH+]1

>  <Energy>  (1462) 
132.3728048995919

>  <Genealogy>  (1462) 
C=c1c(=Cc2c([O-])[n-]c(=O)[n-]c2=O)cc(C)n1-c1ccccc1-c1n[n-]n[nH+]1 (protonated)
C=c1/c(=C/c2c([O-])[n-]c(=O)[n-]c2=O)cc(C)n1-c1ccccc1-c1n[n-]n[nH+]1 (cis-trans isomerization)
C=c1/c(=C/c2c([O-])[n-]c(=O)[n-]c2=O)cc(C)n1-c1ccccc1-c1n[n-]n[nH+]1 (3D coordinates assigned)
C=c1/c(=C/c2c([O-])[n-]c(=O)[n-]c2=O)cc(C)n1-c1ccccc1-c1n[n-]n[nH+]1 (optimized conformer: 132.3728048995919 kcal/mol)

>  <smiles>  (1462) 
C=c1c(=Cc2c(O)[nH]c(=O)[nH]c2=O)cc(C)n1-c1ccccc1-c1nn[nH]n1

>  <score_type>  (1462) 
oracle

>  <origin>  (1462) 
adg

>  <m_score__min__energy>  (1462) 
-16.48

>  <m_primary>  (1462) 
energy

$$$$
54:0
     RDKit          3D

 33 36  0  0  0  0  0  0  0  0999 V2000
   56.6310   29.9780   44.4400 C   0  0  0  0  0  0  0  0  0  0  0  0
   57.7490   29.5180   45.0220 C   0  0  0  0  0  0  0  0  0  0  0  0
   58.1910   28.1870   45.0900 C   0  0  0  0  0  0  0  0  0  0  0  0
   57.5670   27.0310   44.7950 C   0  0  0  0  0  0  0  0  0  0  0  0
   57.1380   26.0120   45.7670 C   0  0  0  0  0  0  0  0  0  0  0  0
   57.8920   24.9730   46.1720 N   0  0  0  0  0  0  0  0  0  0  0  0
   57.0380   24.2420   46.9220 C   0  0  0  0  0  0  0  0  0  0  0  0
   57.3810   23.1780   47.4990 O   0  0  0  0  0  0  0  0  0  0  0  0
   55.7840   24.7370   46.9940 N   0  0  0  0  0  0  0  0  0  0  0  0
   55.8620   25.8490   46.2460 C   0  0  0  0  0  0  0  0  0  0  0  0
   54.7870   26.6960   46.0020 O   0  0  0  0  0  0  0  0  0  0  0  0
   59.4940   28.2350   45.5660 C   0  0  0  0  0  0  0  0  0  0  0  0
   59.7730   29.5590   45.8330 C   0  0  0  0  0  0  0  0  0  0  0  0
   61.0680   30.0690   46.3860 C   0  0  0  0  0  0  0  0  0  0  0  0
   58.7180   30.3350   45.5060 N   0  0  0  0  0  0  0  0  0  0  0  0
   58.6880   31.7680   45.5840 C   0  0  0  0  0  0  0  0  0  0  0  0
   58.4670   32.5260   44.4270 C   0  0  0  0  0  0  0  0  0  0  0  0
   58.4670   33.9200   44.4900 C   0  0  0  0  0  0  0  0  0  0  0  0
   58.7110   34.5650   45.7050 C   0  0  0  0  0  0  0  0  0  0  0  0
   58.9500   33.8190   46.8720 C   0  0  0  0  0  0  0  0  0  0  0  0
   59.2670   34.5430   48.1640 C   0  0  0  0  0  0  0  0  0  0  0  0
   60.1810   33.7560   49.0380 N   0  0  1  0  0  0  0  0  0  0  0  0
   61.5690   34.2570   48.8420 C   0  0  0  0  0  0  0  0  0  0  0  0
   62.3600   33.4620   47.8000 C   0  0  0  0  0  0  0  0  0  0  0  0
   59.7580   33.8550   50.4680 C   0  0  0  0  0  0  0  0  0  0  0  0
   59.5420   32.4790   51.1430 C   0  0  0  0  0  0  0  0  0  0  0  0
   59.8450   31.3740   50.2080 N   0  0  0  0  0  0  0  0  0  0  0  0
   58.9450   30.2380   50.3990 C   0  0  0  0  0  0  0  0  0  0  0  0
   59.6830   29.0190   49.8920 C   0  0  0  0  0  0  0  0  0  0  0  0
   61.1420   29.3290   50.1600 C   0  0  0  0  0  0  0  0  0  0  0  0
   61.2080   30.8390   50.3610 C   0  0  0  0  0  0  0  0  0  0  0  0
   58.9120   32.4120   46.8100 C   0  0  0  0  0  0  0  0  0  0  0  0
   59.1140   31.6650   47.9260 F   0  0  0  0  0  0  0  0  0  0  0  0
  1  2  2  0
  2  3  1  0
  3  4  2  3
  4  5  1  0
  5  6  1  0
  6  7  1  0
  7  8  2  0
  7  9  1  0
  9 10  1  0
 10 11  1  0
  3 12  1  0
 12 13  2  0
 13 14  1  0
 13 15  1  0
 15 16  1  0
 16 17  2  0
 17 18  1  0
 18 19  2  0
 19 20  1  0
 20 21  1  0
 22 21  1  6
 22 23  1  0
 23 24  1  0
 22 25  1  0
 25 26  1  0
 26 27  1  0
 27 28  1  0
 28 29  1  0
 29 30  1  0
 30 31  1  0
 20 32  2  0
 32 33  1  0
 15  2  1  0
 32 16  1  0
 10  5  2  0
 31 27  1  0
M  CHG  4   6  -1   9  -1  11  -1  22   1
M  END
>  <UniqueID>  (1463) 
54

>  <SMILES>  (1463) 
C=c1c(=Cc2[n-]c(=O)[n-]c2[O-])cc(C)n1-c1cccc(C[N@@H+](CC)CCN2CCCC2)c1F

>  <Energy>  (1463) 
145.61747161411884

>  <Genealogy>  (1463) 
C=c1c(=Cc2[n-]c(=O)[n-]c2[O-])cc(C)n1-c1cccc(C[NH+](CC)CCN2CCCC2)c1F (protonated)
C=c1c(=Cc2[n-]c(=O)[n-]c2[O-])cc(C)n1-c1cccc(C[N@@H+](CC)CCN2CCCC2)c1F (chirality)
C=c1c(=Cc2[n-]c(=O)[n-]c2[O-])cc(C)n1-c1cccc(C[N@@H+](CC)CCN2CCCC2)c1F (3D coordinates assigned)
C=c1c(=Cc2[n-]c(=O)[n-]c2[O-])cc(C)n1-c1cccc(C[N@@H+](CC)CCN2CCCC2)c1F (nonaromatic ring conformer: 145.61747161411884 kcal/mol)

>  <smiles>  (1463) 
C=c1c(=Cc2[nH]c(=O)[nH]c2O)cc(C)n1-c1cccc(CN(CC)CCN2CCCC2)c1F

>  <score_type>  (1463) 
oracle

>  <origin>  (1463) 
adg

>  <m_score__min__energy>  (1463) 
-15.34

>  <m_primary>  (1463) 
energy

$$$$
59:0
     RDKit          3D

 32 35  0  0  0  0  0  0  0  0999 V2000
   59.6330   34.1690   47.1400 C   0  0  0  0  0  0  0  0  0  0  0  0
   59.7200   32.8260   47.0180 C   0  0  0  0  0  0  0  0  0  0  0  0
   58.7710   32.1360   46.2250 C   0  0  0  0  0  0  0  0  0  0  0  0
   57.8620   32.7770   45.6240 O   0  0  0  0  0  0  0  0  0  0  0  0
   58.8790   30.7320   46.0920 C   0  0  0  0  0  0  0  0  0  0  0  0
   58.0250   29.9620   45.3840 C   0  0  0  0  0  0  0  0  0  0  0  0
   57.6750   28.5590   45.6800 C   0  0  0  0  0  0  0  0  0  0  0  0
   58.6780   27.6780   46.1100 C   0  0  0  0  0  0  0  0  0  0  0  0
   58.3650   26.3540   46.4290 C   0  0  0  0  0  0  0  0  0  0  0  0
   57.0440   25.9050   46.3380 C   0  0  0  0  0  0  0  0  0  0  0  0
   56.0310   26.7830   45.9360 C   0  0  0  0  0  0  0  0  0  0  0  0
   54.7190   26.3330   45.8610 O   0  0  0  0  0  0  0  0  0  0  0  0
   56.3400   28.1120   45.6160 C   0  0  0  0  0  0  0  0  0  0  0  0
   55.3220   28.9840   45.2410 O   0  0  0  0  0  0  0  0  0  0  0  0
   59.9210   30.1050   46.6920 N   0  0  0  0  0  0  0  0  0  0  0  0
   60.8310   30.7640   47.4480 C   0  0  0  0  0  0  0  0  0  0  0  0
   61.7650   30.1070   47.9850 O   0  0  0  0  0  0  0  0  0  0  0  0
   60.7300   32.1160   47.6360 N   0  0  0  0  0  0  0  0  0  0  0  0
   61.6950   32.7600   48.4990 C   0  0  0  0  0  0  0  0  0  0  0  0
   63.0380   32.8230   48.0970 C   0  0  0  0  0  0  0  0  0  0  0  0
   63.9860   33.4570   48.9010 C   0  0  0  0  0  0  0  0  0  0  0  0
   63.6030   34.0300   50.1150 C   0  0  0  0  0  0  0  0  0  0  0  0
   62.2690   33.9710   50.5290 C   0  0  0  0  0  0  0  0  0  0  0  0
   61.3010   33.3450   49.7250 C   0  0  0  0  0  0  0  0  0  0  0  0
   59.8960   33.2800   50.1910 C   0  0  0  0  0  0  0  0  0  0  0  0
   59.2770   34.3580   50.4020 O   0  0  0  0  0  0  0  0  0  0  0  0
   59.2260   32.0200   50.4120 N   0  0  0  0  0  0  0  0  0  0  0  0
   59.9760   30.7800   50.6430 C   0  0  0  0  0  0  0  0  0  0  0  0
   59.2340   29.9140   51.6650 C   0  0  0  0  0  0  0  0  0  0  0  0
   57.8870   29.7190   51.2760 O   0  0  0  0  0  0  0  0  0  0  0  0
   57.2010   30.9560   51.2950 C   0  0  0  0  0  0  0  0  0  0  0  0
   57.7730   31.9130   50.2440 C   0  0  0  0  0  0  0  0  0  0  0  0
  1  2  2  0
  2  3  1  0
  3  4  2  0
  3  5  1  0
  5  6  2  0
  6  7  1  0
  7  8  2  0
  8  9  1  0
  9 10  2  0
 10 11  1  0
 11 12  1  0
 11 13  2  0
 13 14  1  0
  5 15  1  0
 15 16  1  0
 16 17  2  0
 16 18  1  0
 18 19  1  0
 19 20  2  0
 20 21  1  0
 21 22  2  0
 22 23  1  0
 23 24  2  0
 24 25  1  0
 25 26  2  0
 25 27  1  0
 27 28  1  0
 28 29  1  0
 29 30  1  0
 30 31  1  0
 31 32  1  0
 18  2  1  0
 24 19  1  0
 32 27  1  0
 13  7  1  0
M  CHG  3  12  -1  14  -1  15  -1
M  END
>  <UniqueID>  (1464) 
59

>  <SMILES>  (1464) 
C=c1c(=O)/c(=C\c2cccc([O-])c2[O-])[n-]c(=O)n1-c1ccccc1C(=O)N1CCOCC1

>  <Energy>  (1464) 
89.77392811088674

>  <Genealogy>  (1464) 
C=c1c(=O)c(=Cc2cccc([O-])c2[O-])[n-]c(=O)n1-c1ccccc1C(=O)N1CCOCC1 (protonated)
C=c1c(=O)/c(=C\c2cccc([O-])c2[O-])[n-]c(=O)n1-c1ccccc1C(=O)N1CCOCC1 (cis-trans isomerization)
C=c1c(=O)/c(=C\c2cccc([O-])c2[O-])[n-]c(=O)n1-c1ccccc1C(=O)N1CCOCC1 (3D coordinates assigned)
C=c1c(=O)/c(=C\c2cccc([O-])c2[O-])[n-]c(=O)n1-c1ccccc1C(=O)N1CCOCC1 (nonaromatic ring conformer: 89.77392811088674 kcal/mol)

>  <smiles>  (1464) 
C=c1c(=O)c(=Cc2cccc(O)c2O)[nH]c(=O)n1-c1ccccc1C(=O)N1CCOCC1

>  <score_type>  (1464) 
oracle

>  <origin>  (1464) 
adg

>  <m_score__min__energy>  (1464) 
-16.890000000000001

>  <m_primary>  (1464) 
energy

$$$$
61:0
     RDKit          3D

 28 30  0  0  0  0  0  0  0  0999 V2000
   59.6730   29.6490   44.6440 C   0  0  0  0  0  0  0  0  0  0  0  0
   59.1700   29.4900   45.8770 C   0  0  0  0  0  0  0  0  0  0  0  0
   58.3870   28.4230   46.3270 C   0  0  0  0  0  0  0  0  0  0  0  0
   57.9170   27.3920   45.6000 C   0  0  0  0  0  0  0  0  0  0  0  0
   57.4490   26.1210   46.1960 C   0  0  0  0  0  0  0  0  0  0  0  0
   56.0750   25.8830   46.3550 C   0  0  0  0  0  0  0  0  0  0  0  0
   55.1430   26.8480   45.9890 O   0  0  0  0  0  0  0  0  0  0  0  0
   55.6460   24.7070   46.8800 N   0  0  0  0  0  0  0  0  0  0  0  0
   56.5250   23.7400   47.2460 C   0  0  0  0  0  0  0  0  0  0  0  0
   56.1040   22.6600   47.7340 O   0  0  0  0  0  0  0  0  0  0  0  0
   57.8580   23.9340   47.0780 N   0  0  0  0  0  0  0  0  0  0  0  0
   58.3380   25.0910   46.5550 C   0  0  0  0  0  0  0  0  0  0  0  0
   59.5800   25.2220   46.3820 O   0  0  0  0  0  0  0  0  0  0  0  0
   58.1540   28.6510   47.6780 C   0  0  0  0  0  0  0  0  0  0  0  0
   58.7900   29.8360   47.9940 C   0  0  0  0  0  0  0  0  0  0  0  0
   58.8530   30.4380   49.3630 C   0  0  0  0  0  0  0  0  0  0  0  0
   59.3920   30.3500   46.9000 N   0  0  0  0  0  0  0  0  0  0  0  0
   60.1790   31.5520   46.8670 C   0  0  0  0  0  0  0  0  0  0  0  0
   61.5500   31.4690   47.1490 C   0  0  0  0  0  0  0  0  0  0  0  0
   62.3480   32.6140   47.1170 C   0  0  0  0  0  0  0  0  0  0  0  0
   61.7830   33.8500   46.8010 C   0  0  0  0  0  0  0  0  0  0  0  0
   60.4180   33.9450   46.5200 C   0  0  0  0  0  0  0  0  0  0  0  0
   59.6000   32.8050   46.5580 C   0  0  0  0  0  0  0  0  0  0  0  0
   57.8760   32.9780   46.1860 S   0  0  0  0  0  0  0  0  0  0  0  0
   57.0820   33.0960   47.4580 O   0  0  0  0  0  0  0  0  0  0  0  0
   57.6670   34.2360   45.3920 O   0  0  0  0  0  0  0  0  0  0  0  0
   57.3420   31.6240   45.2290 N   0  0  0  0  0  0  0  0  0  0  0  0
   57.6170   31.8550   43.8130 C   0  0  0  0  0  0  0  0  0  0  0  0
  1  2  2  0
  2  3  1  0
  3  4  2  3
  4  5  1  0
  5  6  2  0
  6  7  1  0
  6  8  1  0
  8  9  1  0
  9 10  2  0
  9 11  1  0
 11 12  1  0
 12 13  2  0
  3 14  1  0
 14 15  2  0
 15 16  1  0
 15 17  1  0
 17 18  1  0
 18 19  2  0
 19 20  1  0
 20 21  2  0
 21 22  1  0
 22 23  2  0
 23 24  1  0
 24 25  2  0
 24 26  2  0
 24 27  1  0
 27 28  1  0
 17  2  1  0
 23 18  1  0
 12  5  1  0
M  CHG  3   7  -1   8  -1  11  -1
M  END
>  <UniqueID>  (1465) 
61

>  <SMILES>  (1465) 
C=c1c(=Cc2c([O-])[n-]c(=O)[n-]c2=O)cc(C)n1-c1ccccc1S(=O)(=O)NC

>  <Energy>  (1465) 
89.1100995607629

>  <Genealogy>  (1465) 
C=c1c(=Cc2c([O-])[n-]c(=O)[n-]c2=O)cc(C)n1-c1ccccc1S(=O)(=O)NC (protonated)
C=c1c(=Cc2c([O-])[n-]c(=O)[n-]c2=O)cc(C)n1-c1ccccc1S(=O)(=O)NC (3D coordinates assigned)
C=c1c(=Cc2c([O-])[n-]c(=O)[n-]c2=O)cc(C)n1-c1ccccc1S(=O)(=O)NC (optimized conformer: 89.1100995607629 kcal/mol)

>  <smiles>  (1465) 
C=c1c(=Cc2c(O)[nH]c(=O)[nH]c2=O)cc(C)n1-c1ccccc1S(=O)(=O)NC

>  <score_type>  (1465) 
oracle

>  <origin>  (1465) 
adg

>  <m_score__min__energy>  (1465) 
-15.640000000000001

>  <m_primary>  (1465) 
energy

$$$$
63:0
     RDKit          3D

 32 35  0  0  0  0  0  0  0  0999 V2000
   58.8960   29.7240   44.5170 C   0  0  0  0  0  0  0  0  0  0  0  0
   58.9630   29.2950   45.7860 C   0  0  0  0  0  0  0  0  0  0  0  0
   58.4700   28.0770   46.2750 C   0  0  0  0  0  0  0  0  0  0  0  0
   58.0990   26.9520   45.6330 C   0  0  0  0  0  0  0  0  0  0  0  0
   57.3670   25.8250   46.2370 C   0  0  0  0  0  0  0  0  0  0  0  0
   57.9420   24.7760   46.8540 N   0  0  0  0  0  0  0  0  0  0  0  0
   56.8920   24.1000   47.3670 C   0  0  0  0  0  0  0  0  0  0  0  0
   57.0270   23.0290   48.0160 O   0  0  0  0  0  0  0  0  0  0  0  0
   55.6880   24.6680   47.1420 N   0  0  0  0  0  0  0  0  0  0  0  0
   56.0090   25.7660   46.4370 C   0  0  0  0  0  0  0  0  0  0  0  0
   55.0800   26.7010   45.9960 O   0  0  0  0  0  0  0  0  0  0  0  0
   58.4430   28.1990   47.6500 C   0  0  0  0  0  0  0  0  0  0  0  0
   58.9840   29.4300   47.9600 C   0  0  0  0  0  0  0  0  0  0  0  0
   59.0720   29.9410   49.3440 C   0  0  0  0  0  0  0  0  0  0  0  0
   58.1350   29.7030   50.1500 O   0  0  0  0  0  0  0  0  0  0  0  0
   60.1750   30.7590   49.7530 N   0  0  0  0  0  0  0  0  0  0  0  0
   61.5700   30.4180   49.4990 C   0  0  0  0  0  0  0  0  0  0  0  0
   62.3230   31.6380   49.0480 C   0  0  0  0  0  0  0  0  0  0  0  0
   63.0890   31.5950   47.8730 C   0  0  0  0  0  0  0  0  0  0  0  0
   63.7530   32.7460   47.4420 C   0  0  0  0  0  0  0  0  0  0  0  0
   63.6480   33.9020   48.1530 N   0  0  0  0  0  0  0  0  0  0  0  0
   62.9060   33.9730   49.2910 C   0  0  0  0  0  0  0  0  0  0  0  0
   62.2270   32.8430   49.7570 C   0  0  0  0  0  0  0  0  0  0  0  0
   59.3550   30.0820   46.8270 N   0  0  0  0  0  0  0  0  0  0  0  0
   60.0810   31.3640   46.7370 C   0  0  0  0  0  0  0  0  0  0  0  0
   59.1920   32.4860   46.2320 C   0  0  0  0  0  0  0  0  0  0  0  0
   57.8400   32.2080   45.9630 C   0  0  0  0  0  0  0  0  0  0  0  0
   56.9870   33.2010   45.4800 C   0  0  0  0  0  0  0  0  0  0  0  0
   57.4680   34.4910   45.2650 C   0  0  0  0  0  0  0  0  0  0  0  0
   58.7970   34.7990   45.5560 C   0  0  0  0  0  0  0  0  0  0  0  0
   59.6660   33.8150   46.0630 C   0  0  0  0  0  0  0  0  0  0  0  0
   61.0850   34.2070   46.3820 C   0  0  0  0  0  0  0  0  0  0  0  0
  1  2  2  0
  2  3  1  0
  3  4  2  0
  4  5  1  0
  5  6  1  0
  6  7  1  0
  7  8  2  0
  7  9  1  0
  9 10  1  0
 10 11  1  0
  3 12  1  0
 12 13  2  0
 13 14  1  0
 14 15  2  0
 14 16  1  0
 16 17  1  0
 17 18  1  0
 18 19  2  0
 19 20  1  0
 20 21  2  0
 21 22  1  0
 22 23  2  0
 13 24  1  0
 24 25  1  0
 25 26  1  0
 26 27  2  0
 27 28  1  0
 28 29  2  0
 29 30  1  0
 30 31  2  0
 31 32  1  0
 24  2  1  0
 31 26  1  0
 10  5  2  0
 23 18  1  0
M  CHG  4   6  -1   9  -1  11  -1  16  -1
M  END
>  <UniqueID>  (1466) 
63

>  <SMILES>  (1466) 
C=c1/c(=C\c2[n-]c(=O)[n-]c2[O-])cc(C(=O)[N-]Cc2ccncc2)n1Cc1ccccc1C

>  <Energy>  (1466) 
128.59091908910796

>  <Genealogy>  (1466) 
C=c1c(=Cc2[n-]c(=O)[n-]c2[O-])cc(C(=O)[N-]Cc2ccncc2)n1Cc1ccccc1C (protonated)
C=c1/c(=C\c2[n-]c(=O)[n-]c2[O-])cc(C(=O)[N-]Cc2ccncc2)n1Cc1ccccc1C (cis-trans isomerization)
C=c1/c(=C\c2[n-]c(=O)[n-]c2[O-])cc(C(=O)[N-]Cc2ccncc2)n1Cc1ccccc1C (3D coordinates assigned)
C=c1/c(=C\c2[n-]c(=O)[n-]c2[O-])cc(C(=O)[N-]Cc2ccncc2)n1Cc1ccccc1C (optimized conformer: 128.59091908910796 kcal/mol)

>  <smiles>  (1466) 
C=c1c(=Cc2[nH]c(=O)[nH]c2O)cc(C(=O)NCc2ccncc2)n1Cc1ccccc1C

>  <score_type>  (1466) 
oracle

>  <origin>  (1466) 
adg

>  <m_score__min__energy>  (1466) 
-17.34

>  <m_primary>  (1466) 
energy

$$$$
68:0
     RDKit          3D

 28 31  0  0  0  0  0  0  0  0999 V2000
   57.5230   29.9750   50.8660 O   0  0  0  0  0  0  0  0  0  0  0  0
   58.1020   29.3680   51.9800 C   0  0  0  0  0  0  0  0  0  0  0  0
   59.4790   29.1010   52.0030 C   0  0  0  0  0  0  0  0  0  0  0  0
   60.0650   28.4680   53.1110 C   0  0  0  0  0  0  0  0  0  0  0  0
   61.5150   28.1800   53.1470 C   0  0  0  0  0  0  0  0  0  0  0  0
   62.2900   28.9740   53.7450 O   0  0  0  0  0  0  0  0  0  0  0  0
   62.0590   26.9950   52.5590 N   0  0  0  0  0  0  0  0  0  0  0  0
   63.3960   26.3860   52.4530 C   0  0  0  0  0  0  0  0  0  0  0  0
   62.9390   25.0930   51.8670 C   0  0  0  0  0  0  0  0  0  0  0  0
   61.5920   25.7240   51.9730 C   0  0  0  0  0  0  0  0  0  0  0  0
   59.2590   28.1310   54.2110 C   0  0  0  0  0  0  0  0  0  0  0  0
   57.8880   28.3970   54.1910 C   0  0  0  0  0  0  0  0  0  0  0  0
   57.3030   29.0170   53.0790 C   0  0  0  0  0  0  0  0  0  0  0  0
   55.8910   29.2890   53.0760 N   0  0  0  0  0  0  0  0  0  0  0  0
   54.9180   28.4140   53.4090 C   0  0  0  0  0  0  0  0  0  0  0  0
   55.1470   26.9980   53.8440 C   0  0  0  0  0  0  0  0  0  0  0  0
   53.6820   29.0200   53.3330 C   0  0  0  0  0  0  0  0  0  0  0  0
   53.8950   30.3140   52.8840 C   0  0  0  0  0  0  0  0  0  0  0  0
   52.8890   31.1730   52.6290 C   0  0  0  0  0  0  0  0  0  0  0  0
   52.0940   31.2220   51.3940 C   0  0  0  0  0  0  0  0  0  0  0  0
   52.1780   30.3030   50.4170 N   0  0  0  0  0  0  0  0  0  0  0  0
   51.3890   30.8080   49.4440 C   0  0  0  0  0  0  0  0  0  0  0  0
   51.1970   30.2140   48.3520 O   0  0  0  0  0  0  0  0  0  0  0  0
   50.8330   32.0050   49.7280 N   0  0  0  0  0  0  0  0  0  0  0  0
   51.3010   32.2620   50.9600 C   0  0  0  0  0  0  0  0  0  0  0  0
   51.0310   33.4310   51.6600 O   0  0  0  0  0  0  0  0  0  0  0  0
   55.2880   30.4660   52.7720 C   0  0  0  0  0  0  0  0  0  0  0  0
   55.9680   31.6020   52.5500 C   0  0  0  0  0  0  0  0  0  0  0  0
  1  2  1  0
  2  3  2  0
  3  4  1  0
  4  5  1  0
  5  6  2  0
  5  7  1  0
  7  8  1  0
  8  9  1  0
  9 10  1  0
  4 11  2  0
 11 12  1  0
 12 13  2  0
 13 14  1  0
 14 15  1  0
 15 16  1  0
 15 17  2  0
 17 18  1  0
 18 19  2  0
 19 20  1  0
 20 21  1  0
 21 22  1  0
 22 23  2  0
 22 24  1  0
 24 25  1  0
 25 26  1  0
 18 27  1  0
 27 28  2  0
 13  2  1  0
 27 14  1  0
 10  7  1  0
 25 20  2  0
M  CHG  3  21  -1  24  -1  26  -1
M  END
>  <UniqueID>  (1467) 
67

>  <SMILES>  (1467) 
C=c1/c(=C\c2[n-]c(=O)[n-]c2[O-])cc(C)n1-c1ccc(C(=O)N2CCC2)cc1O

>  <Energy>  (1467) 
170.16262697050195

>  <Genealogy>  (1467) 
C=c1c(=Cc2[n-]c(=O)[n-]c2[O-])cc(C)n1-c1ccc(C(=O)N2CCC2)cc1O (protonated)
C=c1/c(=C\c2[n-]c(=O)[n-]c2[O-])cc(C)n1-c1ccc(C(=O)N2CCC2)cc1O (cis-trans isomerization)
C=c1/c(=C\c2[n-]c(=O)[n-]c2[O-])cc(C)n1-c1ccc(C(=O)N2CCC2)cc1O (3D coordinates assigned)
C=c1/c(=C\c2[n-]c(=O)[n-]c2[O-])cc(C)n1-c1ccc(C(=O)N2CCC2)cc1O (nonaromatic ring conformer: 170.16262697050195 kcal/mol)

>  <smiles>  (1467) 
C=c1c(=Cc2[nH]c(=O)[nH]c2O)cc(C)n1-c1ccc(C(=O)N2CCC2)cc1O

>  <score_type>  (1467) 
oracle

>  <origin>  (1467) 
adg

>  <m_score__min__energy>  (1467) 
-15.74

>  <m_primary>  (1467) 
energy

$$$$
75:0
     RDKit          3D

 33 36  0  0  0  0  0  0  0  0999 V2000
   55.7190   31.6070   51.9730 C   0  0  0  0  0  0  0  0  0  0  0  0
   55.2130   30.5130   52.5630 C   0  0  0  0  0  0  0  0  0  0  0  0
   53.8590   30.2620   52.8150 C   0  0  0  0  0  0  0  0  0  0  0  0
   52.8210   31.0930   52.6010 C   0  0  0  0  0  0  0  0  0  0  0  0
   52.1530   31.2580   51.2970 C   0  0  0  0  0  0  0  0  0  0  0  0
   52.1540   30.3090   50.3440 N   0  0  0  0  0  0  0  0  0  0  0  0
   51.3700   30.8350   49.3770 C   0  0  0  0  0  0  0  0  0  0  0  0
   51.1370   30.2360   48.2950 O   0  0  0  0  0  0  0  0  0  0  0  0
   50.8490   32.0460   49.6650 N   0  0  0  0  0  0  0  0  0  0  0  0
   51.3430   32.2950   50.8890 C   0  0  0  0  0  0  0  0  0  0  0  0
   51.0200   33.4250   51.6310 O   0  0  0  0  0  0  0  0  0  0  0  0
   53.7970   28.9970   53.3840 C   0  0  0  0  0  0  0  0  0  0  0  0
   55.0940   28.5310   53.4580 C   0  0  0  0  0  0  0  0  0  0  0  0
   55.4820   27.2040   54.0390 C   0  0  0  0  0  0  0  0  0  0  0  0
   55.9550   29.4450   52.9560 N   0  0  0  0  0  0  0  0  0  0  0  0
   57.3870   29.3130   52.9040 C   0  0  0  0  0  0  0  0  0  0  0  0
   58.2240   29.7610   51.9010 C   0  0  0  0  0  0  0  0  0  0  0  0
   59.4690   29.3340   52.1890 N   0  0  0  0  0  0  0  0  0  0  0  0
   60.6440   29.4930   51.3380 C   0  0  0  0  0  0  0  0  0  0  0  0
   60.7740   30.9330   50.9160 C   0  0  0  0  0  0  0  0  0  0  0  0
   61.0380   31.9190   51.8770 C   0  0  0  0  0  0  0  0  0  0  0  0
   61.1080   33.2620   51.5060 C   0  0  0  0  0  0  0  0  0  0  0  0
   60.9080   33.6360   50.1750 C   0  0  0  0  0  0  0  0  0  0  0  0
   60.6360   32.6610   49.1980 C   0  0  0  0  0  0  0  0  0  0  0  0
   60.4170   32.9770   47.8450 O   0  0  0  0  0  0  0  0  0  0  0  0
   59.2080   33.4910   47.2840 C   0  0  0  0  0  0  0  0  0  0  0  0
   59.2910   35.0080   47.0960 C   0  0  0  0  0  0  0  0  0  0  0  0
   59.4420   35.3440   45.7300 O   0  0  0  0  0  0  0  0  0  0  0  0
   58.8940   34.3340   44.9110 C   0  0  0  0  0  0  0  0  0  0  0  0
   60.5590   31.3120   49.5780 C   0  0  0  0  0  0  0  0  0  0  0  0
   60.2740   30.3740   48.6390 F   0  0  0  0  0  0  0  0  0  0  0  0
   59.4450   28.6260   53.3080 N   0  0  0  0  0  0  0  0  0  0  0  0
   58.1830   28.5930   53.7750 C   0  0  0  0  0  0  0  0  0  0  0  0
  1  2  2  0
  2  3  1  0
  3  4  2  0
  4  5  1  0
  5  6  1  0
  6  7  1  0
  7  8  2  0
  7  9  1  0
  9 10  1  0
 10 11  1  0
  3 12  1  0
 12 13  2  0
 13 14  1  0
 13 15  1  0
 15 16  1  0
 16 17  2  0
 17 18  1  0
 18 19  1  0
 19 20  1  0
 20 21  2  0
 21 22  1  0
 22 23  2  0
 23 24  1  0
 24 25  1  0
 25 26  1  0
 26 27  1  0
 27 28  1  0
 28 29  1  0
 24 30  2  0
 30 31  1  0
 18 32  1  0
 32 33  2  0
 15  2  1  0
 33 16  1  0
 10  5  2  0
 30 20  1  0
M  CHG  4   6  -1   9  -1  11  -1  32   1
M  END
>  <UniqueID>  (1468) 
74

>  <SMILES>  (1468) 
C=c1/c(=C/c2[n-]c(=O)[n-]c2[O-])cc(C)n1-c1c[nH+]n(Cc2cccc(OCCOC)c2F)c1

>  <Energy>  (1468) 
160.36651722125848

>  <Genealogy>  (1468) 
C=c1c(=Cc2[n-]c(=O)[n-]c2[O-])cc(C)n1-c1c[nH+]n(Cc2cccc(OCCOC)c2F)c1 (protonated)
C=c1/c(=C/c2[n-]c(=O)[n-]c2[O-])cc(C)n1-c1c[nH+]n(Cc2cccc(OCCOC)c2F)c1 (cis-trans isomerization)
C=c1/c(=C/c2[n-]c(=O)[n-]c2[O-])cc(C)n1-c1c[nH+]n(Cc2cccc(OCCOC)c2F)c1 (3D coordinates assigned)
C=c1/c(=C/c2[n-]c(=O)[n-]c2[O-])cc(C)n1-c1c[nH+]n(Cc2cccc(OCCOC)c2F)c1 (optimized conformer: 160.36651722125848 kcal/mol)

>  <smiles>  (1468) 
C=c1c(=Cc2[nH]c(=O)[nH]c2O)cc(C)n1-c1cnn(Cc2cccc(OCCOC)c2F)c1

>  <score_type>  (1468) 
oracle

>  <origin>  (1468) 
adg

>  <m_score__min__energy>  (1468) 
-16.010000000000002

>  <m_primary>  (1468) 
energy

$$$$
79:0
     RDKit          3D

 38 42  0  0  0  0  0  0  0  0999 V2000
   59.4840   28.4600   48.3070 C   0  0  0  0  0  0  0  0  0  0  0  0
   58.6260   28.6550   47.2880 C   0  0  0  0  0  0  0  0  0  0  0  0
   57.7940   27.6990   46.6800 C   0  0  0  0  0  0  0  0  0  0  0  0
   57.5010   26.4290   47.0310 C   0  0  0  0  0  0  0  0  0  0  0  0
   56.8370   25.4220   46.1730 C   0  0  0  0  0  0  0  0  0  0  0  0
   55.5200   25.6040   45.7130 C   0  0  0  0  0  0  0  0  0  0  0  0
   54.7770   26.7130   46.1090 O   0  0  0  0  0  0  0  0  0  0  0  0
   54.9650   24.7000   44.8650 N   0  0  0  0  0  0  0  0  0  0  0  0
   55.6740   23.6300   44.4200 C   0  0  0  0  0  0  0  0  0  0  0  0
   55.1420   22.8110   43.6270 O   0  0  0  0  0  0  0  0  0  0  0  0
   56.9570   23.4500   44.8240 N   0  0  0  0  0  0  0  0  0  0  0  0
   57.5540   24.3190   45.6830 C   0  0  0  0  0  0  0  0  0  0  0  0
   58.7470   24.1200   46.0420 O   0  0  0  0  0  0  0  0  0  0  0  0
   57.2080   28.3300   45.5920 C   0  0  0  0  0  0  0  0  0  0  0  0
   57.6400   29.6400   45.6080 C   0  0  0  0  0  0  0  0  0  0  0  0
   57.1770   30.7040   44.6590 C   0  0  0  0  0  0  0  0  0  0  0  0
   58.4920   29.8430   46.6400 N   0  0  0  0  0  0  0  0  0  0  0  0
   59.0880   31.1030   46.9980 C   0  0  0  0  0  0  0  0  0  0  0  0
   59.6290   31.9410   46.0110 C   0  0  0  0  0  0  0  0  0  0  0  0
   60.2400   33.1440   46.3700 C   0  0  0  0  0  0  0  0  0  0  0  0
   60.2690   33.5450   47.7090 C   0  0  0  0  0  0  0  0  0  0  0  0
   59.7070   32.7260   48.7030 C   0  0  0  0  0  0  0  0  0  0  0  0
   59.7950   33.0930   50.1310 C   0  0  0  0  0  0  0  0  0  0  0  0
   58.9260   33.8850   50.5890 O   0  0  0  0  0  0  0  0  0  0  0  0
   60.8280   32.5860   51.0160 N   0  0  0  0  0  0  0  0  0  0  0  0
   61.7540   33.6430   51.4860 C   0  0  0  0  0  0  0  0  0  0  0  0
   62.8890   33.9870   50.4890 C   0  0  0  0  0  0  0  0  0  0  0  0
   63.1750   32.8960   49.5240 N   0  0  0  0  0  0  0  0  0  0  0  0
   64.5490   33.0070   48.9830 C   0  0  0  0  0  0  0  0  0  0  0  0
   65.5710   32.7860   50.0720 C   0  0  0  0  0  0  0  0  0  0  0  0
   66.0770   31.4990   50.2960 C   0  0  0  0  0  0  0  0  0  0  0  0
   67.0660   31.2910   51.2600 C   0  0  0  0  0  0  0  0  0  0  0  0
   67.5390   32.3670   52.0270 C   0  0  0  0  0  0  0  0  0  0  0  0
   67.0290   33.6530   51.8240 C   0  0  0  0  0  0  0  0  0  0  0  0
   66.0500   33.8650   50.8460 C   0  0  0  0  0  0  0  0  0  0  0  0
   62.9800   31.5780   50.1500 C   0  0  0  0  0  0  0  0  0  0  0  0
   61.4920   31.3730   50.4640 C   0  0  0  0  0  0  0  0  0  0  0  0
   59.1390   31.4940   48.3430 C   0  0  0  0  0  0  0  0  0  0  0  0
  1  2  2  0
  2  3  1  0
  3  4  2  0
  4  5  1  0
  5  6  2  0
  6  7  1  0
  6  8  1  0
  8  9  1  0
  9 10  2  0
  9 11  1  0
 11 12  1  0
 12 13  2  0
  3 14  1  0
 14 15  2  0
 15 16  1  0
 15 17  1  0
 17 18  1  0
 18 19  2  0
 19 20  1  0
 20 21  2  0
 21 22  1  0
 22 23  1  0
 23 24  2  0
 23 25  1  0
 25 26  1  0
 26 27  1  0
 27 28  1  0
 28 29  1  0
 29 30  1  0
 30 31  2  0
 31 32  1  0
 32 33  2  0
 33 34  1  0
 34 35  2  0
 28 36  1  0
 36 37  1  0
 22 38  2  0
 17  2  1  0
 38 18  1  0
 12  5  1  0
 37 25  1  0
 35 30  1  0
M  CHG  4   7  -1   8  -1  11  -1  25   1
M  END
>  <UniqueID>  (1469) 
78

>  <SMILES>  (1469) 
C=c1/c(=C\c2c([O-])[n-]c(=O)[n-]c2=O)cc(C)n1-c1cccc(C(=O)[NH+]2CCN(Cc3ccccc3)CC2)c1

>  <Energy>  (1469) 
138.89437706734063

>  <Genealogy>  (1469) 
C=c1c(=Cc2c([O-])[n-]c(=O)[n-]c2=O)cc(C)n1-c1cccc(C(=O)[NH+]2CCN(Cc3ccccc3)CC2)c1 (protonated)
C=c1/c(=C\c2c([O-])[n-]c(=O)[n-]c2=O)cc(C)n1-c1cccc(C(=O)[NH+]2CCN(Cc3ccccc3)CC2)c1 (cis-trans isomerization)
C=c1/c(=C\c2c([O-])[n-]c(=O)[n-]c2=O)cc(C)n1-c1cccc(C(=O)[NH+]2CCN(Cc3ccccc3)CC2)c1 (3D coordinates assigned)
C=c1/c(=C\c2c([O-])[n-]c(=O)[n-]c2=O)cc(C)n1-c1cccc(C(=O)[NH+]2CCN(Cc3ccccc3)CC2)c1 (nonaromatic ring conformer: 138.89437706734063 kcal/mol)

>  <smiles>  (1469) 
C=c1c(=Cc2c(O)[nH]c(=O)[nH]c2=O)cc(C)n1-c1cccc(C(=O)N2CCN(Cc3ccccc3)CC2)c1

>  <score_type>  (1469) 
oracle

>  <origin>  (1469) 
adg

>  <m_score__min__energy>  (1469) 
-16.420000000000002

>  <m_primary>  (1469) 
energy

$$$$
85:0
     RDKit          3D

 30 33  0  0  0  0  0  0  0  0999 V2000
   56.3180   29.1770   44.7910 C   0  0  0  0  0  0  0  0  0  0  0  0
   57.5920   28.7590   44.7530 C   0  0  0  0  0  0  0  0  0  0  0  0
   58.0510   27.4330   44.7050 C   0  0  0  0  0  0  0  0  0  0  0  0
   57.3980   26.2810   44.4580 C   0  0  0  0  0  0  0  0  0  0  0  0
   56.8540   25.3670   45.4780 C   0  0  0  0  0  0  0  0  0  0  0  0
   57.5060   24.3060   45.9860 N   0  0  0  0  0  0  0  0  0  0  0  0
   56.6800   23.8690   46.9630 C   0  0  0  0  0  0  0  0  0  0  0  0
   56.9400   22.8580   47.6650 O   0  0  0  0  0  0  0  0  0  0  0  0
   55.5580   24.6020   47.1260 N   0  0  0  0  0  0  0  0  0  0  0  0
   55.6950   25.5550   46.1900 C   0  0  0  0  0  0  0  0  0  0  0  0
   54.7760   26.5760   45.9920 O   0  0  0  0  0  0  0  0  0  0  0  0
   59.4160   27.4860   44.9440 C   0  0  0  0  0  0  0  0  0  0  0  0
   59.7530   28.8190   45.0420 C   0  0  0  0  0  0  0  0  0  0  0  0
   61.1370   29.3370   45.2890 C   0  0  0  0  0  0  0  0  0  0  0  0
   58.6480   29.5890   44.9340 N   0  0  0  0  0  0  0  0  0  0  0  0
   58.6170   31.0240   45.0170 C   0  0  0  0  0  0  0  0  0  0  0  0
   58.1240   31.7620   43.9300 C   0  0  0  0  0  0  0  0  0  0  0  0
   58.1040   33.1560   43.9750 C   0  0  0  0  0  0  0  0  0  0  0  0
   58.5930   33.8270   45.0980 C   0  0  0  0  0  0  0  0  0  0  0  0
   59.1030   33.1050   46.1870 C   0  0  0  0  0  0  0  0  0  0  0  0
   59.6470   33.8360   47.3450 C   0  0  0  0  0  0  0  0  0  0  0  0
   58.8920   34.6530   47.9410 O   0  0  0  0  0  0  0  0  0  0  0  0
   61.0090   33.6410   47.7950 N   0  0  0  0  0  0  0  0  0  0  0  0
   61.9040   32.7010   47.1050 C   0  0  0  0  0  0  0  0  0  0  0  0
   63.3680   33.1070   47.3000 C   0  0  0  0  0  0  0  0  0  0  0  0
   63.6500   33.3210   48.6670 O   0  0  0  0  0  0  0  0  0  0  0  0
   62.9240   34.4440   49.1250 C   0  0  0  0  0  0  0  0  0  0  0  0
   61.4200   34.1600   49.1070 C   0  0  0  0  0  0  0  0  0  0  0  0
   59.0890   31.6980   46.1640 C   0  0  0  0  0  0  0  0  0  0  0  0
   59.5230   30.9890   47.2880 O   0  0  0  0  0  0  0  0  0  0  0  0
  1  2  2  0
  2  3  1  0
  3  4  2  3
  4  5  1  0
  5  6  1  0
  6  7  1  0
  7  8  2  0
  7  9  1  0
  9 10  1  0
 10 11  1  0
  3 12  1  0
 12 13  2  0
 13 14  1  0
 13 15  1  0
 15 16  1  0
 16 17  2  0
 17 18  1  0
 18 19  2  0
 19 20  1  0
 20 21  1  0
 21 22  2  0
 21 23  1  0
 23 24  1  0
 24 25  1  0
 25 26  1  0
 26 27  1  0
 27 28  1  0
 20 29  2  0
 29 30  1  0
 15  2  1  0
 29 16  1  0
 10  5  2  0
 28 23  1  0
M  CHG  3   6  -1   9  -1  11  -1
M  END
>  <UniqueID>  (1470) 
84

>  <SMILES>  (1470) 
C=c1c(=Cc2[n-]c(=O)[n-]c2[O-])cc(C)n1-c1cccc(C(=O)N2CCOCC2)c1O

>  <Energy>  (1470) 
135.5752704177391

>  <Genealogy>  (1470) 
C=c1c(=Cc2[n-]c(=O)[n-]c2[O-])cc(C)n1-c1cccc(C(=O)N2CCOCC2)c1O (protonated)
C=c1c(=Cc2[n-]c(=O)[n-]c2[O-])cc(C)n1-c1cccc(C(=O)N2CCOCC2)c1O (3D coordinates assigned)
C=c1c(=Cc2[n-]c(=O)[n-]c2[O-])cc(C)n1-c1cccc(C(=O)N2CCOCC2)c1O (nonaromatic ring conformer: 135.5752704177391 kcal/mol)

>  <smiles>  (1470) 
C=c1c(=Cc2[nH]c(=O)[nH]c2O)cc(C)n1-c1cccc(C(=O)N2CCOCC2)c1O

>  <score_type>  (1470) 
oracle

>  <origin>  (1470) 
adg

>  <m_score__min__energy>  (1470) 
-16.399999999999999

>  <m_primary>  (1470) 
energy

$$$$
2:0
     RDKit          3D

 27 29  0  0  0  0  0  0  0  0999 V2000
   58.6260   29.3380   47.2010 C   0  0  0  0  0  0  0  0  0  0  0  0
   57.9530   29.8780   46.1710 C   0  0  0  0  0  0  0  0  0  0  0  0
   57.2680   29.1960   45.1510 C   0  0  0  0  0  0  0  0  0  0  0  0
   57.1550   27.8800   44.8710 C   0  0  0  0  0  0  0  0  0  0  0  0
   57.2240   26.7840   45.8540 C   0  0  0  0  0  0  0  0  0  0  0  0
   56.0500   26.2140   46.3640 C   0  0  0  0  0  0  0  0  0  0  0  0
   54.8040   26.7080   45.9930 O   0  0  0  0  0  0  0  0  0  0  0  0
   56.1230   25.1750   47.2360 N   0  0  0  0  0  0  0  0  0  0  0  0
   57.3220   24.6620   47.6140 C   0  0  0  0  0  0  0  0  0  0  0  0
   57.3660   23.7020   48.4270 O   0  0  0  0  0  0  0  0  0  0  0  0
   58.4730   25.1800   47.1140 N   0  0  0  0  0  0  0  0  0  0  0  0
   58.4520   26.2190   46.2400 C   0  0  0  0  0  0  0  0  0  0  0  0
   59.5390   26.6630   45.7800 O   0  0  0  0  0  0  0  0  0  0  0  0
   56.6970   30.2120   44.3920 C   0  0  0  0  0  0  0  0  0  0  0  0
   55.8640   30.0550   43.1580 C   0  0  0  0  0  0  0  0  0  0  0  0
   57.0430   31.4100   44.8940 N   0  0  0  0  0  0  0  0  0  0  0  0
   57.7930   31.2150   45.9660 N   0  0  0  0  0  0  0  0  0  0  0  0
   58.2720   32.3250   46.7470 C   0  0  0  0  0  0  0  0  0  0  0  0
   57.6330   32.7270   47.7550 O   0  0  0  0  0  0  0  0  0  0  0  0
   59.4300   33.0430   46.2990 N   0  0  0  0  0  0  0  0  0  0  0  0
   60.7240   33.0490   46.9210 C   0  0  0  0  0  0  0  0  0  0  0  0
   61.7790   33.8450   46.4420 C   0  0  0  0  0  0  0  0  0  0  0  0
   63.0160   33.8390   47.0910 C   0  0  0  0  0  0  0  0  0  0  0  0
   63.2180   33.0400   48.2260 C   0  0  0  0  0  0  0  0  0  0  0  0
   64.5340   33.0660   48.9460 C   0  0  0  0  0  0  0  0  0  0  0  0
   62.1520   32.2790   48.7280 C   0  0  0  0  0  0  0  0  0  0  0  0
   60.9140   32.2850   48.0790 C   0  0  0  0  0  0  0  0  0  0  0  0
  1  2  2  0
  2  3  1  0
  3  4  2  3
  4  5  1  0
  5  6  2  0
  6  7  1  0
  6  8  1  0
  8  9  1  0
  9 10  2  0
  9 11  1  0
 11 12  1  0
 12 13  2  0
  3 14  1  0
 14 15  1  0
 14 16  2  0
 16 17  1  0
 17 18  1  0
 18 19  2  0
 18 20  1  0
 20 21  1  0
 21 22  2  0
 22 23  1  0
 23 24  2  0
 24 25  1  0
 24 26  1  0
 26 27  2  0
 17  2  1  0
 27 21  1  0
 12  5  1  0
M  CHG  4   7  -1   8  -1  11  -1  20  -1
M  END
>  <UniqueID>  (1471) 
2

>  <SMILES>  (1471) 
C=c1c(=Cc2c([O-])[n-]c(=O)[n-]c2=O)c(C)nn1C(=O)[N-]c1ccc(C)cc1

>  <Energy>  (1471) 
95.79162949245587

>  <Genealogy>  (1471) 
C=c1c(=Cc2c([O-])[n-]c(=O)[n-]c2=O)c(C)nn1C(=O)[N-]c1ccc(C)cc1 (protonated)
C=c1c(=Cc2c([O-])[n-]c(=O)[n-]c2=O)c(C)nn1C(=O)[N-]c1ccc(C)cc1 (3D coordinates assigned)
C=c1c(=Cc2c([O-])[n-]c(=O)[n-]c2=O)c(C)nn1C(=O)[N-]c1ccc(C)cc1 (optimized conformer: 95.79162949245587 kcal/mol)

>  <smiles>  (1471) 
C=c1c(=Cc2c(O)[nH]c(=O)[nH]c2=O)c(C)nn1C(=O)Nc1ccc(C)cc1

>  <score_type>  (1471) 
oracle

>  <origin>  (1471) 
adg

>  <m_score__min__energy>  (1471) 
-17.300000000000001

>  <m_primary>  (1471) 
energy

$$$$
13:0
     RDKit          3D

 26 28  0  0  0  0  0  0  0  0999 V2000
   57.3940   26.2220   47.2190 C   0  0  0  0  0  0  0  0  0  0  0  0
   57.4480   25.9320   45.9100 C   0  0  0  0  0  0  0  0  0  0  0  0
   56.9280   24.8010   45.2560 C   0  0  0  0  0  0  0  0  0  0  0  0
   56.3680   23.6760   45.7410 C   0  0  0  0  0  0  0  0  0  0  0  0
   54.9280   23.3560   45.7160 C   0  0  0  0  0  0  0  0  0  0  0  0
   53.9590   24.3740   45.6240 C   0  0  0  0  0  0  0  0  0  0  0  0
   54.3110   25.7240   45.6130 O   0  0  0  0  0  0  0  0  0  0  0  0
   52.6430   24.0430   45.5560 N   0  0  0  0  0  0  0  0  0  0  0  0
   52.2380   22.7480   45.5610 C   0  0  0  0  0  0  0  0  0  0  0  0
   51.0130   22.4720   45.5010 O   0  0  0  0  0  0  0  0  0  0  0  0
   53.1560   21.7500   45.6270 N   0  0  0  0  0  0  0  0  0  0  0  0
   54.4830   22.0210   45.6960 C   0  0  0  0  0  0  0  0  0  0  0  0
   55.3080   21.0690   45.7370 O   0  0  0  0  0  0  0  0  0  0  0  0
   57.1030   25.0240   43.8980 C   0  0  0  0  0  0  0  0  0  0  0  0
   57.7520   26.2330   43.7710 C   0  0  0  0  0  0  0  0  0  0  0  0
   58.1260   26.8770   42.4710 C   0  0  0  0  0  0  0  0  0  0  0  0
   57.9710   26.7770   44.9870 N   0  0  0  0  0  0  0  0  0  0  0  0
   58.5410   28.0760   45.2230 C   0  0  0  0  0  0  0  0  0  0  0  0
   59.9220   28.1670   45.4540 C   0  0  0  0  0  0  0  0  0  0  0  0
   60.5150   29.4000   45.7250 C   0  0  0  0  0  0  0  0  0  0  0  0
   59.7350   30.5530   45.7720 C   0  0  0  0  0  0  0  0  0  0  0  0
   58.3580   30.4790   45.5440 C   0  0  0  0  0  0  0  0  0  0  0  0
   57.7390   29.2460   45.2620 C   0  0  0  0  0  0  0  0  0  0  0  0
   56.2740   29.2140   45.0050 C   0  0  0  0  0  0  0  0  0  0  0  0
   55.6920   30.2280   44.5370 O   0  0  0  0  0  0  0  0  0  0  0  0
   55.5220   28.0730   45.2540 O   0  0  0  0  0  0  0  0  0  0  0  0
  1  2  2  0
  2  3  1  0
  3  4  2  3
  4  5  1  0
  5  6  2  0
  6  7  1  0
  6  8  1  0
  8  9  1  0
  9 10  2  0
  9 11  1  0
 11 12  1  0
 12 13  2  0
  3 14  1  0
 14 15  2  0
 15 16  1  0
 15 17  1  0
 17 18  1  0
 18 19  2  0
 19 20  1  0
 20 21  2  0
 21 22  1  0
 22 23  2  0
 23 24  1  0
 24 25  2  0
 24 26  1  0
 17  2  1  0
 23 18  1  0
 12  5  1  0
M  CHG  3   8  -1  11  -1  26  -1
M  END
>  <UniqueID>  (1472) 
13

>  <SMILES>  (1472) 
C=c1c(=Cc2c(O)[n-]c(=O)[n-]c2=O)cc(C)n1-c1ccccc1C(=O)[O-]

>  <Energy>  (1472) 
93.08484446646315

>  <Genealogy>  (1472) 
C=c1c(=Cc2c(O)[n-]c(=O)[n-]c2=O)cc(C)n1-c1ccccc1C(=O)[O-] (protonated)
C=c1c(=Cc2c(O)[n-]c(=O)[n-]c2=O)cc(C)n1-c1ccccc1C(=O)[O-] (3D coordinates assigned)
C=c1c(=Cc2c(O)[n-]c(=O)[n-]c2=O)cc(C)n1-c1ccccc1C(=O)[O-] (optimized conformer: 93.08484446646315 kcal/mol)

>  <smiles>  (1472) 
C=c1c(=Cc2c(O)[nH]c(=O)[nH]c2=O)cc(C)n1-c1ccccc1C(=O)O

>  <score_type>  (1472) 
oracle

>  <origin>  (1472) 
adg

>  <m_score__min__energy>  (1472) 
-15.35

>  <m_primary>  (1472) 
energy

$$$$
16:0
     RDKit          3D

 28 30  0  0  0  0  0  0  0  0999 V2000
   57.0650   33.2620   45.6220 C   0  0  0  0  0  0  0  0  0  0  0  0
   57.7840   31.7280   45.0740 S   0  0  0  0  0  0  0  0  0  0  0  0
   58.2380   31.8410   43.6470 O   0  0  0  0  0  0  0  0  0  0  0  0
   56.7410   30.6500   45.1660 O   0  0  0  0  0  0  0  0  0  0  0  0
   59.1200   31.2990   46.0920 N   0  0  0  0  0  0  0  0  0  0  0  0
   59.0300   30.8650   47.4560 C   0  0  0  0  0  0  0  0  0  0  0  0
   58.8450   31.8300   48.4530 C   0  0  0  0  0  0  0  0  0  0  0  0
   58.7580   31.4560   49.7970 C   0  0  0  0  0  0  0  0  0  0  0  0
   58.8670   30.1070   50.1680 C   0  0  0  0  0  0  0  0  0  0  0  0
   58.7700   29.7150   51.5940 C   0  0  0  0  0  0  0  0  0  0  0  0
   59.4480   28.7380   52.0100 O   0  0  0  0  0  0  0  0  0  0  0  0
   57.9720   30.4480   52.5390 N   0  0  0  0  0  0  0  0  0  0  0  0
   56.6710   30.4880   52.5730 C   0  0  0  0  0  0  0  0  0  0  0  0
   55.9980   29.9570   53.6780 C   0  0  0  0  0  0  0  0  0  0  0  0
   54.6020   29.9880   53.7130 C   0  0  0  0  0  0  0  0  0  0  0  0
   53.8850   30.5490   52.6480 C   0  0  0  0  0  0  0  0  0  0  0  0
   52.3820   30.5580   52.6540 C   0  0  0  0  0  0  0  0  0  0  0  0
   51.8610   30.8460   51.2800 C   0  0  0  0  0  0  0  0  0  0  0  0
   51.8600   29.7550   49.9950 S   0  0  0  0  0  0  0  0  0  0  0  0
   51.0590   30.8280   48.9790 C   0  0  0  0  0  0  0  0  0  0  0  0
   50.7490   30.5770   47.7860 O   0  0  0  0  0  0  0  0  0  0  0  0
   50.7690   32.0000   49.5820 N   0  0  0  0  0  0  0  0  0  0  0  0
   51.2110   32.0080   50.8670 C   0  0  0  0  0  0  0  0  0  0  0  0
   51.0170   33.1020   51.6990 O   0  0  0  0  0  0  0  0  0  0  0  0
   54.5960   31.0500   51.5480 C   0  0  0  0  0  0  0  0  0  0  0  0
   55.9540   31.0070   51.5360 N   0  0  0  0  0  0  0  0  0  0  0  0
   59.0290   29.1350   49.1650 C   0  0  0  0  0  0  0  0  0  0  0  0
   59.1160   29.5100   47.8210 C   0  0  0  0  0  0  0  0  0  0  0  0
  1  2  1  0
  2  3  2  0
  2  4  2  0
  2  5  1  0
  5  6  1  0
  6  7  2  0
  7  8  1  0
  8  9  2  0
  9 10  1  0
 10 11  2  0
 10 12  1  0
 12 13  2  3
 13 14  1  0
 14 15  2  0
 15 16  1  0
 16 17  1  0
 17 18  1  0
 18 19  1  0
 19 20  1  0
 20 21  2  0
 20 22  1  0
 22 23  1  0
 23 24  1  0
 16 25  2  0
 25 26  1  0
  9 27  1  0
 27 28  2  0
 28  6  1  0
 26 13  1  0
 23 18  2  0
M  CHG  4   5  -1  22  -1  24  -1  26  -1
M  END
>  <UniqueID>  (1473) 
16

>  <SMILES>  (1473) 
CS(=O)(=O)[N-]c1ccc(C(=O)N=c2ccc(Cc3sc(=O)[n-]c3[O-])c[n-]2)cc1

>  <Energy>  (1473) 
79.1417681189655

>  <Genealogy>  (1473) 
CS(=O)(=O)[N-]c1ccc(C(=O)N=c2ccc(Cc3sc(=O)[n-]c3[O-])c[n-]2)cc1 (protonated)
CS(=O)(=O)[N-]c1ccc(C(=O)N=c2ccc(Cc3sc(=O)[n-]c3[O-])c[n-]2)cc1 (3D coordinates assigned)
CS(=O)(=O)[N-]c1ccc(C(=O)N=c2ccc(Cc3sc(=O)[n-]c3[O-])c[n-]2)cc1 (optimized conformer: 79.1417681189655 kcal/mol)

>  <smiles>  (1473) 
CS(=O)(=O)Nc1ccc(C(=O)N=c2ccc(Cc3sc(=O)[nH]c3O)c[nH]2)cc1

>  <score_type>  (1473) 
oracle

>  <origin>  (1473) 
adg

>  <m_score__min__energy>  (1473) 
-18.280000000000001

>  <m_primary>  (1473) 
energy

$$$$
45:0
     RDKit          3D

 31 34  0  0  0  0  0  0  0  0999 V2000
   58.9790   29.9230   44.8600 C   0  0  0  0  0  0  0  0  0  0  0  0
   58.8280   29.4490   46.1080 C   0  0  0  0  0  0  0  0  0  0  0  0
   58.3940   28.1630   46.4470 C   0  0  0  0  0  0  0  0  0  0  0  0
   58.0170   27.1760   45.6110 C   0  0  0  0  0  0  0  0  0  0  0  0
   57.3140   25.9520   46.0580 C   0  0  0  0  0  0  0  0  0  0  0  0
   55.9190   25.9240   46.2310 C   0  0  0  0  0  0  0  0  0  0  0  0
   55.1470   27.0530   45.9820 O   0  0  0  0  0  0  0  0  0  0  0  0
   55.3130   24.7880   46.6640 N   0  0  0  0  0  0  0  0  0  0  0  0
   56.0330   23.6750   46.9540 C   0  0  0  0  0  0  0  0  0  0  0  0
   55.4490   22.6330   47.3510 O   0  0  0  0  0  0  0  0  0  0  0  0
   57.3840   23.6860   46.8230 N   0  0  0  0  0  0  0  0  0  0  0  0
   58.0390   24.7960   46.3910 C   0  0  0  0  0  0  0  0  0  0  0  0
   59.2940   24.7710   46.2840 O   0  0  0  0  0  0  0  0  0  0  0  0
   58.3730   28.1080   47.8320 C   0  0  0  0  0  0  0  0  0  0  0  0
   58.8030   29.3390   48.2830 C   0  0  0  0  0  0  0  0  0  0  0  0
   58.8620   29.7260   49.7310 C   0  0  0  0  0  0  0  0  0  0  0  0
   59.0810   30.1600   47.2420 N   0  0  0  0  0  0  0  0  0  0  0  0
   59.5030   31.5660   47.3600 C   0  0  0  0  0  0  0  0  0  0  0  0
   60.8400   31.6650   48.0470 C   0  0  0  0  0  0  0  0  0  0  0  0
   60.9150   31.9320   49.4240 C   0  0  0  0  0  0  0  0  0  0  0  0
   62.1570   32.0390   50.0570 C   0  0  0  0  0  0  0  0  0  0  0  0
   63.3420   31.8750   49.3240 C   0  0  0  0  0  0  0  0  0  0  0  0
   64.6210   32.0010   49.9670 N   0  0  0  0  0  0  0  0  0  0  0  0
   65.3710   33.2500   49.7750 C   0  0  0  0  0  0  0  0  0  0  0  0
   66.8530   33.0860   50.1150 C   0  0  0  0  0  0  0  0  0  0  0  0
   67.0100   32.4780   51.5080 C   0  0  0  0  0  0  0  0  0  0  0  0
   66.4130   31.0710   51.5510 C   0  0  0  0  0  0  0  0  0  0  0  0
   65.0340   31.0300   50.9540 C   0  0  0  0  0  0  0  0  0  0  0  0
   64.2730   30.0720   51.2610 O   0  0  0  0  0  0  0  0  0  0  0  0
   63.2690   31.6110   47.9490 C   0  0  0  0  0  0  0  0  0  0  0  0
   62.0280   31.5030   47.3150 C   0  0  0  0  0  0  0  0  0  0  0  0
  1  2  2  0
  2  3  1  0
  3  4  2  3
  4  5  1  0
  5  6  2  0
  6  7  1  0
  6  8  1  0
  8  9  1  0
  9 10  2  0
  9 11  1  0
 11 12  1  0
 12 13  2  0
  3 14  1  0
 14 15  2  0
 15 16  1  0
 15 17  1  0
 17 18  1  0
 18 19  1  0
 19 20  2  0
 20 21  1  0
 21 22  2  0
 22 23  1  0
 23 24  1  0
 24 25  1  0
 25 26  1  0
 26 27  1  0
 27 28  1  0
 28 29  2  0
 22 30  1  0
 30 31  2  0
 17  2  1  0
 31 19  1  0
 12  5  1  0
 28 23  1  0
M  CHG  3   7  -1   8  -1  11  -1
M  END
>  <UniqueID>  (1474) 
41

>  <SMILES>  (1474) 
C=c1c(=Cc2c([O-])[n-]c(=O)[n-]c2=O)cc(C)n1Cc1ccc(N2CCCCC2=O)cc1

>  <Energy>  (1474) 
97.38681067485298

>  <Genealogy>  (1474) 
C=c1c(=Cc2c([O-])[n-]c(=O)[n-]c2=O)cc(C)n1Cc1ccc(N2CCCCC2=O)cc1 (protonated)
C=c1c(=Cc2c([O-])[n-]c(=O)[n-]c2=O)cc(C)n1Cc1ccc(N2CCCCC2=O)cc1 (3D coordinates assigned)
C=c1c(=Cc2c([O-])[n-]c(=O)[n-]c2=O)cc(C)n1Cc1ccc(N2CCCCC2=O)cc1 (nonaromatic ring conformer: 97.38681067485298 kcal/mol)

>  <smiles>  (1474) 
C=c1c(=Cc2c(O)[nH]c(=O)[nH]c2=O)cc(C)n1Cc1ccc(N2CCCCC2=O)cc1

>  <score_type>  (1474) 
oracle

>  <origin>  (1474) 
adg

>  <m_score__min__energy>  (1474) 
-16.370000000000001

>  <m_primary>  (1474) 
energy

$$$$
52:0
     RDKit          3D

 32 35  0  0  0  0  0  0  0  0999 V2000
   58.8600   27.7370   48.3620 C   0  0  0  0  0  0  0  0  0  0  0  0
   59.3350   28.7270   47.5910 C   0  0  0  0  0  0  0  0  0  0  0  0
   59.2270   28.8480   46.1960 C   0  0  0  0  0  0  0  0  0  0  0  0
   58.5020   28.1520   45.3000 C   0  0  0  0  0  0  0  0  0  0  0  0
   57.3850   27.2470   45.6180 C   0  0  0  0  0  0  0  0  0  0  0  0
   57.5220   26.0100   46.1320 N   0  0  0  0  0  0  0  0  0  0  0  0
   56.2480   25.6350   46.3820 C   0  0  0  0  0  0  0  0  0  0  0  0
   55.9570   24.5100   46.8630 O   0  0  0  0  0  0  0  0  0  0  0  0
   55.3150   26.5650   46.0880 N   0  0  0  0  0  0  0  0  0  0  0  0
   56.0530   27.5840   45.6190 C   0  0  0  0  0  0  0  0  0  0  0  0
   55.5210   28.7980   45.2070 O   0  0  0  0  0  0  0  0  0  0  0  0
   60.0390   29.9130   45.8360 C   0  0  0  0  0  0  0  0  0  0  0  0
   60.5570   30.4340   47.0020 C   0  0  0  0  0  0  0  0  0  0  0  0
   61.4770   31.6140   47.0830 C   0  0  0  0  0  0  0  0  0  0  0  0
   60.1290   29.7210   48.0650 N   0  0  0  0  0  0  0  0  0  0  0  0
   60.5130   29.9570   49.4320 C   0  0  0  0  0  0  0  0  0  0  0  0
   61.2400   28.9700   50.1120 C   0  0  0  0  0  0  0  0  0  0  0  0
   61.6620   29.1800   51.4250 C   0  0  0  0  0  0  0  0  0  0  0  0
   61.3600   30.3790   52.0720 C   0  0  0  0  0  0  0  0  0  0  0  0
   60.6320   31.3690   51.4090 C   0  0  0  0  0  0  0  0  0  0  0  0
   60.1950   31.1720   50.0870 C   0  0  0  0  0  0  0  0  0  0  0  0
   59.3960   32.2250   49.4170 C   0  0  0  0  0  0  0  0  0  0  0  0
   58.1530   32.0720   49.2760 O   0  0  0  0  0  0  0  0  0  0  0  0
   60.0280   33.4140   48.9230 N   0  0  0  0  0  0  0  0  0  0  0  0
   59.2500   34.4850   48.3010 C   0  0  0  0  0  0  0  0  0  0  0  0
   58.8330   34.0970   46.9090 C   0  0  0  0  0  0  0  0  0  0  0  0
   59.5900   34.5130   45.8010 C   0  0  0  0  0  0  0  0  0  0  0  0
   59.2230   34.1190   44.5100 C   0  0  0  0  0  0  0  0  0  0  0  0
   58.1070   33.2990   44.3180 C   0  0  0  0  0  0  0  0  0  0  0  0
   57.7530   32.9160   43.0670 F   0  0  0  0  0  0  0  0  0  0  0  0
   57.3580   32.8690   45.4190 C   0  0  0  0  0  0  0  0  0  0  0  0
   57.7220   33.2610   46.7100 C   0  0  0  0  0  0  0  0  0  0  0  0
  1  2  2  0
  2  3  1  0
  3  4  2  3
  4  5  1  0
  5  6  1  0
  6  7  1  0
  7  8  2  0
  7  9  1  0
  9 10  1  0
 10 11  1  0
  3 12  1  0
 12 13  2  0
 13 14  1  0
 13 15  1  0
 15 16  1  0
 16 17  2  0
 17 18  1  0
 18 19  2  0
 19 20  1  0
 20 21  2  0
 21 22  1  0
 22 23  2  0
 22 24  1  0
 24 25  1  0
 25 26  1  0
 26 27  2  0
 27 28  1  0
 28 29  2  0
 29 30  1  0
 29 31  1  0
 31 32  2  0
 15  2  1  0
 21 16  1  0
 32 26  1  0
 10  5  2  0
M  CHG  3   6  -1   9  -1  11  -1
M  END
>  <UniqueID>  (1475) 
47

>  <SMILES>  (1475) 
C=c1c(=Cc2[n-]c(=O)[n-]c2[O-])cc(C)n1-c1ccccc1C(=O)NCc1ccc(F)cc1

>  <Energy>  (1475) 
130.62773941432891

>  <Genealogy>  (1475) 
C=c1c(=Cc2[n-]c(=O)[n-]c2[O-])cc(C)n1-c1ccccc1C(=O)NCc1ccc(F)cc1 (protonated)
C=c1c(=Cc2[n-]c(=O)[n-]c2[O-])cc(C)n1-c1ccccc1C(=O)NCc1ccc(F)cc1 (3D coordinates assigned)
C=c1c(=Cc2[n-]c(=O)[n-]c2[O-])cc(C)n1-c1ccccc1C(=O)NCc1ccc(F)cc1 (optimized conformer: 130.62773941432891 kcal/mol)

>  <smiles>  (1475) 
C=c1c(=Cc2[nH]c(=O)[nH]c2O)cc(C)n1-c1ccccc1C(=O)NCc1ccc(F)cc1

>  <score_type>  (1475) 
oracle

>  <origin>  (1475) 
adg

>  <m_score__min__energy>  (1475) 
-16.129999999999999

>  <m_primary>  (1475) 
energy

$$$$
89:0
     RDKit          3D

 33 36  0  0  0  0  0  0  0  0999 V2000
   55.7420   31.7280   52.1050 C   0  0  0  0  0  0  0  0  0  0  0  0
   55.2180   30.5590   52.5030 C   0  0  0  0  0  0  0  0  0  0  0  0
   53.8650   30.2700   52.7500 C   0  0  0  0  0  0  0  0  0  0  0  0
   52.7470   30.9860   52.5220 C   0  0  0  0  0  0  0  0  0  0  0  0
   52.0970   31.1810   51.2170 C   0  0  0  0  0  0  0  0  0  0  0  0
   52.0680   30.2650   50.2310 N   0  0  0  0  0  0  0  0  0  0  0  0
   51.2610   30.8310   49.3080 C   0  0  0  0  0  0  0  0  0  0  0  0
   50.9910   30.2780   48.2130 O   0  0  0  0  0  0  0  0  0  0  0  0
   50.7520   32.0330   49.6590 N   0  0  0  0  0  0  0  0  0  0  0  0
   51.2810   32.2310   50.8760 C   0  0  0  0  0  0  0  0  0  0  0  0
   51.0210   33.3460   51.6620 O   0  0  0  0  0  0  0  0  0  0  0  0
   53.8360   28.9990   53.3030 C   0  0  0  0  0  0  0  0  0  0  0  0
   55.1370   28.5420   53.3270 C   0  0  0  0  0  0  0  0  0  0  0  0
   55.5580   27.1850   53.8080 C   0  0  0  0  0  0  0  0  0  0  0  0
   55.9740   29.4800   52.8350 N   0  0  0  0  0  0  0  0  0  0  0  0
   57.4060   29.3550   52.7680 C   0  0  0  0  0  0  0  0  0  0  0  0
   58.0830   29.7140   51.5940 C   0  0  0  0  0  0  0  0  0  0  0  0
   59.4830   29.5550   51.4800 C   0  0  0  0  0  0  0  0  0  0  0  0
   60.1820   29.8950   50.2460 N   0  0  0  0  0  0  0  0  0  0  0  0
   61.2570   30.9150   50.2980 C   0  0  0  0  0  0  0  0  0  0  0  0
   61.9340   31.2410   48.9470 C   0  0  0  0  0  0  0  0  0  0  0  0
   61.0960   30.9840   47.7640 N   0  0  0  0  0  0  0  0  0  0  0  0
   60.0320   31.9500   47.5760 C   0  0  0  0  0  0  0  0  0  0  0  0
   59.0040   31.6590   46.9020 O   0  0  0  0  0  0  0  0  0  0  0  0
   60.1790   33.2350   48.1130 O   0  0  0  0  0  0  0  0  0  0  0  0
   59.3880   34.3490   47.7050 C   0  0  0  0  0  0  0  0  0  0  0  0
   59.5920   34.6370   46.2210 C   0  0  0  0  0  0  0  0  0  0  0  0
   60.5910   29.6040   47.7880 C   0  0  0  0  0  0  0  0  0  0  0  0
   59.6610   29.3590   48.9730 C   0  0  0  0  0  0  0  0  0  0  0  0
   60.1830   29.0440   52.5970 C   0  0  0  0  0  0  0  0  0  0  0  0
   59.5060   28.6860   53.7650 C   0  0  0  0  0  0  0  0  0  0  0  0
   58.1230   28.8290   53.8500 C   0  0  0  0  0  0  0  0  0  0  0  0
   57.4780   28.4390   54.9780 F   0  0  0  0  0  0  0  0  0  0  0  0
  1  2  2  0
  2  3  1  0
  3  4  2  3
  4  5  1  0
  5  6  1  0
  6  7  1  0
  7  8  2  0
  7  9  1  0
  9 10  1  0
 10 11  1  0
  3 12  1  0
 12 13  2  0
 13 14  1  0
 13 15  1  0
 15 16  1  0
 16 17  2  0
 17 18  1  0
 18 19  1  0
 19 20  1  0
 20 21  1  0
 21 22  1  0
 22 23  1  0
 23 24  2  0
 23 25  1  0
 25 26  1  0
 26 27  1  0
 22 28  1  0
 28 29  1  0
 18 30  2  0
 30 31  1  0
 31 32  2  0
 32 33  1  0
 15  2  1  0
 32 16  1  0
 10  5  2  0
 29 19  1  0
M  CHG  4   6  -1   9  -1  11  -1  22   1
M  END
>  <UniqueID>  (1476) 
80

>  <SMILES>  (1476) 
C=c1c(=Cc2[n-]c(=O)[n-]c2[O-])cc(C)n1-c1cc(N2CC[NH+](C(=O)OCC)CC2)ccc1F

>  <Energy>  (1476) 
144.4393524359582

>  <Genealogy>  (1476) 
C=c1c(=Cc2[n-]c(=O)[n-]c2[O-])cc(C)n1-c1cc(N2CC[NH+](C(=O)OCC)CC2)ccc1F (protonated)
C=c1c(=Cc2[n-]c(=O)[n-]c2[O-])cc(C)n1-c1cc(N2CC[NH+](C(=O)OCC)CC2)ccc1F (3D coordinates assigned)
C=c1c(=Cc2[n-]c(=O)[n-]c2[O-])cc(C)n1-c1cc(N2CC[NH+](C(=O)OCC)CC2)ccc1F (nonaromatic ring conformer: 144.4393524359582 kcal/mol)

>  <smiles>  (1476) 
C=c1c(=Cc2[nH]c(=O)[nH]c2O)cc(C)n1-c1cc(N2CCN(C(=O)OCC)CC2)ccc1F

>  <score_type>  (1476) 
oracle

>  <origin>  (1476) 
adg

>  <m_score__min__energy>  (1476) 
-15.039999999999999

>  <m_primary>  (1476) 
energy

$$$$
3:0
     RDKit          3D

 30 33  0  0  0  0  0  0  0  0999 V2000
   58.3130   31.4270   46.7930 O   0  0  0  0  0  0  0  0  0  0  0  0
   58.0990   31.6360   45.4310 C   0  0  0  0  0  0  0  0  0  0  0  0
   58.3390   32.8970   44.8640 C   0  0  0  0  0  0  0  0  0  0  0  0
   58.1350   33.1020   43.4970 C   0  0  0  0  0  0  0  0  0  0  0  0
   57.6930   32.0510   42.6890 C   0  0  0  0  0  0  0  0  0  0  0  0
   57.4510   30.7940   43.2470 C   0  0  0  0  0  0  0  0  0  0  0  0
   57.6490   30.5780   44.6200 C   0  0  0  0  0  0  0  0  0  0  0  0
   57.3920   29.2780   45.1880 N   0  0  0  0  0  0  0  0  0  0  0  0
   56.1390   28.7340   45.1020 C   0  0  0  0  0  0  0  0  0  0  0  0
   55.2060   29.3520   44.5230 O   0  0  0  0  0  0  0  0  0  0  0  0
   55.8890   27.5120   45.6330 N   0  0  0  0  0  0  0  0  0  0  0  0
   56.8530   26.7960   46.2590 C   0  0  0  0  0  0  0  0  0  0  0  0
   56.5300   25.5390   46.7590 O   0  0  0  0  0  0  0  0  0  0  0  0
   58.1530   27.3180   46.3780 C   0  0  0  0  0  0  0  0  0  0  0  0
   59.2300   26.5540   47.0660 C   0  0  0  0  0  0  0  0  0  0  0  0
   59.8750   25.6720   46.4340 O   0  0  0  0  0  0  0  0  0  0  0  0
   59.5400   26.8280   48.4430 N   0  0  0  0  0  0  0  0  0  0  0  0
   60.0670   27.9200   48.9110 C   0  0  0  0  0  0  0  0  0  0  0  0
   59.8850   29.1460   48.3730 N   0  0  0  0  0  0  0  0  0  0  0  0
   60.5530   30.1110   49.0680 C   0  0  0  0  0  0  0  0  0  0  0  0
   60.5020   31.5370   48.6500 C   0  0  0  0  0  0  0  0  0  0  0  0
   61.2980   31.9800   47.5740 C   0  0  0  0  0  0  0  0  0  0  0  0
   61.2640   33.3180   47.1680 C   0  0  0  0  0  0  0  0  0  0  0  0
   60.4360   34.2290   47.8240 C   0  0  0  0  0  0  0  0  0  0  0  0
   59.6360   33.8040   48.8860 C   0  0  0  0  0  0  0  0  0  0  0  0
   59.6640   32.4690   49.2980 C   0  0  0  0  0  0  0  0  0  0  0  0
   61.2750   29.6320   50.1670 C   0  0  0  0  0  0  0  0  0  0  0  0
   61.0590   27.9660   50.2590 S   0  0  0  0  0  0  0  0  0  0  0  0
   58.3960   28.5930   45.8210 C   0  0  0  0  0  0  0  0  0  0  0  0
   59.5410   29.1170   45.9270 O   0  0  0  0  0  0  0  0  0  0  0  0
  1  2  1  0
  2  3  2  0
  3  4  1  0
  4  5  2  0
  5  6  1  0
  6  7  2  0
  7  8  1  0
  8  9  1  0
  9 10  2  0
  9 11  1  0
 11 12  1  0
 12 13  1  0
 12 14  2  0
 14 15  1  0
 15 16  2  0
 15 17  1  0
 17 18  2  0
 18 19  1  0
 19 20  1  0
 20 21  1  0
 21 22  2  0
 22 23  1  0
 23 24  2  0
 24 25  1  0
 25 26  2  0
 20 27  2  0
 27 28  1  0
 14 29  1  0
 29 30  2  0
  7  2  1  0
 29  8  1  0
 28 18  1  0
 26 21  1  0
M  CHG  3  11  -1  13  -1  19  -1
M  END
>  <UniqueID>  (1477) 
4

>  <SMILES>  (1477) 
O=C(/N=c1\[n-]c(-c2ccccc2)cs1)c1c([O-])[n-]c(=O)n(-c2ccccc2O)c1=O

>  <Energy>  (1477) 
96.24996926686188

>  <Genealogy>  (1477) 
O=C(N=c1[n-]c(-c2ccccc2)cs1)c1c([O-])[n-]c(=O)n(-c2ccccc2O)c1=O (protonated)
O=C(/N=c1\[n-]c(-c2ccccc2)cs1)c1c([O-])[n-]c(=O)n(-c2ccccc2O)c1=O (cis-trans isomerization)
O=C(/N=c1\[n-]c(-c2ccccc2)cs1)c1c([O-])[n-]c(=O)n(-c2ccccc2O)c1=O (3D coordinates assigned)
O=C(/N=c1\[n-]c(-c2ccccc2)cs1)c1c([O-])[n-]c(=O)n(-c2ccccc2O)c1=O (optimized conformer: 96.24996926686188 kcal/mol)

>  <smiles>  (1477) 
O=C(N=c1[nH]c(-c2ccccc2)cs1)c1c(O)[nH]c(=O)n(-c2ccccc2O)c1=O

>  <score_type>  (1477) 
oracle

>  <origin>  (1477) 
adg

>  <m_score__min__energy>  (1477) 
-14.32

>  <m_primary>  (1477) 
energy

$$$$
24:0
     RDKit          3D

 28 31  0  0  0  0  0  0  0  0999 V2000
   54.8250   26.2080   45.6660 O   0  0  0  0  0  0  0  0  0  0  0  0
   55.8130   25.3450   46.1340 C   0  0  0  0  0  0  0  0  0  0  0  0
   55.5800   24.3980   47.0580 N   0  0  0  0  0  0  0  0  0  0  0  0
   56.7890   23.8190   47.2030 C   0  0  0  0  0  0  0  0  0  0  0  0
   56.9950   22.8660   48.0000 O   0  0  0  0  0  0  0  0  0  0  0  0
   57.7650   24.3440   46.4330 N   0  0  0  0  0  0  0  0  0  0  0  0
   57.1360   25.3130   45.7410 C   0  0  0  0  0  0  0  0  0  0  0  0
   57.7900   26.2460   44.7990 C   0  0  0  0  0  0  0  0  0  0  0  0
   57.9440   27.5720   45.0070 C   0  0  0  0  0  0  0  0  0  0  0  0
   57.5300   28.5980   44.1680 C   0  0  0  0  0  0  0  0  0  0  0  0
   57.8750   29.7810   44.7850 C   0  0  0  0  0  0  0  0  0  0  0  0
   57.5560   31.1410   44.2380 C   0  0  0  0  0  0  0  0  0  0  0  0
   58.4740   29.5430   45.9760 N   0  0  0  0  0  0  0  0  0  0  0  0
   59.0200   30.5760   46.8750 C   0  0  0  0  0  0  0  0  0  0  0  0
   60.4310   31.0040   46.4470 C   0  0  0  0  0  0  0  0  0  0  0  0
   61.0070   32.0700   47.3520 C   0  0  0  0  0  0  0  0  0  0  0  0
   62.1130   31.7400   48.1580 C   0  0  0  0  0  0  0  0  0  0  0  0
   62.6200   32.6550   49.0820 C   0  0  0  0  0  0  0  0  0  0  0  0
   62.0250   33.9070   49.2240 C   0  0  0  0  0  0  0  0  0  0  0  0
   60.9260   34.2530   48.4370 C   0  0  0  0  0  0  0  0  0  0  0  0
   60.4130   33.3510   47.4920 C   0  0  0  0  0  0  0  0  0  0  0  0
   59.2390   33.7620   46.7050 C   0  0  0  0  0  0  0  0  0  0  0  0
   58.0560   33.3520   47.0080 N   0  0  0  0  0  0  0  0  0  0  0  0
   57.0050   33.8310   46.1300 C   0  0  0  0  0  0  0  0  0  0  0  0
   57.6790   34.3110   44.8480 C   0  0  0  0  0  0  0  0  0  0  0  0
   59.3560   34.8550   45.2990 S   0  0  0  0  0  0  0  0  0  0  0  0
   58.5190   28.1920   46.1250 C   0  0  0  0  0  0  0  0  0  0  0  0
   59.0430   27.5620   47.1900 C   0  0  0  0  0  0  0  0  0  0  0  0
  1  2  1  0
  2  3  1  0
  3  4  1  0
  4  5  2  0
  4  6  1  0
  6  7  1  0
  7  8  1  0
  8  9  2  0
  9 10  1  0
 10 11  2  0
 11 12  1  0
 11 13  1  0
 13 14  1  0
 14 15  1  0
 15 16  1  0
 16 17  2  0
 17 18  1  0
 18 19  2  0
 19 20  1  0
 20 21  2  0
 21 22  1  0
 22 23  2  0
 23 24  1  0
 24 25  1  0
 25 26  1  0
 13 27  1  0
 27 28  2  0
  7  2  2  0
 27  9  1  0
 21 16  1  0
 26 22  1  0
M  CHG  2   3  -1   6  -1
M  END
>  <UniqueID>  (1478) 
24

>  <SMILES>  (1478) 
C=c1/c(=C/c2[n-]c(=O)[n-]c2O)cc(C)n1CCc1ccccc1C1=NCCS1

>  <Energy>  (1478) 
122.32044763205371

>  <Genealogy>  (1478) 
C=c1c(=Cc2[n-]c(=O)[n-]c2O)cc(C)n1CCc1ccccc1C1=NCCS1 (protonated)
C=c1/c(=C/c2[n-]c(=O)[n-]c2O)cc(C)n1CCc1ccccc1C1=NCCS1 (cis-trans isomerization)
C=c1/c(=C/c2[n-]c(=O)[n-]c2O)cc(C)n1CCc1ccccc1C1=NCCS1 (3D coordinates assigned)
C=c1/c(=C/c2[n-]c(=O)[n-]c2O)cc(C)n1CCc1ccccc1C1=NCCS1 (nonaromatic ring conformer: 122.32044763205371 kcal/mol)

>  <smiles>  (1478) 
C=c1c(=Cc2[nH]c(=O)[nH]c2O)cc(C)n1CCc1ccccc1C1=NCCS1

>  <score_type>  (1478) 
oracle

>  <origin>  (1478) 
adg

>  <m_score__min__energy>  (1478) 
-14.380000000000001

>  <m_primary>  (1478) 
energy

$$$$
26:0
     RDKit          3D

 25 27  0  0  0  0  0  0  0  0999 V2000
   61.8870   29.2890   52.9840 C   0  0  0  0  0  0  0  0  0  0  0  0
   60.4040   29.5200   52.9320 C   0  0  0  0  0  0  0  0  0  0  0  0
   59.5270   28.5700   53.4520 C   0  0  0  0  0  0  0  0  0  0  0  0
   58.1540   28.7960   53.4260 C   0  0  0  0  0  0  0  0  0  0  0  0
   57.6050   29.9800   52.8850 C   0  0  0  0  0  0  0  0  0  0  0  0
   56.0770   30.0910   52.9370 C   0  0  0  0  0  0  0  0  0  0  0  0
   55.4930   30.8500   51.7260 C   0  0  0  0  0  0  0  0  0  0  0  0
   54.0250   30.4750   51.4690 C   0  0  0  0  0  0  0  0  0  0  0  0
   53.3280   30.2630   52.7540 N   0  0  0  0  0  0  0  0  0  0  0  0
   51.8660   30.2130   52.5490 C   0  0  0  0  0  0  0  0  0  0  0  0
   51.2510   31.5590   52.7940 C   0  0  0  0  0  0  0  0  0  0  0  0
   50.9310   32.0300   54.0120 N   0  0  0  0  0  0  0  0  0  0  0  0
   50.3730   33.2310   53.7430 C   0  0  0  0  0  0  0  0  0  0  0  0
   49.9400   33.9940   54.6450 O   0  0  0  0  0  0  0  0  0  0  0  0
   50.3110   33.5470   52.4320 N   0  0  0  0  0  0  0  0  0  0  0  0
   50.8690   32.4760   51.8450 C   0  0  0  0  0  0  0  0  0  0  0  0
   51.0170   32.3380   50.4700 O   0  0  0  0  0  0  0  0  0  0  0  0
   53.8190   29.0410   53.4490 C   0  0  0  0  0  0  0  0  0  0  0  0
   55.3280   28.7800   53.2360 C   0  0  0  0  0  0  0  0  0  0  0  0
   58.5110   30.9820   52.4000 C   0  0  0  0  0  0  0  0  0  0  0  0
   58.0440   32.5500   51.6990 S   0  0  0  0  0  0  0  0  0  0  0  0
   57.6810   32.3410   50.0220 N   0  0  0  0  0  0  0  0  0  0  0  0
   59.1920   33.5140   51.8180 O   0  0  0  0  0  0  0  0  0  0  0  0
   56.8700   33.1650   52.4030 O   0  0  0  0  0  0  0  0  0  0  0  0
   59.8950   30.7180   52.4240 C   0  0  0  0  0  0  0  0  0  0  0  0
  1  2  1  0
  2  3  2  0
  3  4  1  0
  4  5  2  0
  5  6  1  0
  6  7  1  0
  7  8  1  0
  8  9  1  0
  9 10  1  0
 10 11  1  0
 11 12  1  0
 12 13  1  0
 13 14  2  0
 13 15  1  0
 15 16  1  0
 16 17  1  0
  9 18  1  0
 18 19  1  0
  5 20  1  0
 20 21  1  0
 21 22  1  0
 21 23  2  0
 21 24  2  0
 20 25  2  0
 25  2  1  0
 19  6  1  0
 16 11  2  0
M  CHG  4  12  -1  15  -1  17  -1  22  -1
M  END
>  <UniqueID>  (1479) 
26

>  <SMILES>  (1479) 
Cc1ccc(C2CCN(Cc3[n-]c(=O)[n-]c3[O-])CC2)c(S([NH-])(=O)=O)c1

>  <Energy>  (1479) 
90.26068703874019

>  <Genealogy>  (1479) 
Cc1ccc(C2CCN(Cc3[n-]c(=O)[n-]c3[O-])CC2)c(S([NH-])(=O)=O)c1 (protonated)
Cc1ccc(C2CCN(Cc3[n-]c(=O)[n-]c3[O-])CC2)c(S([NH-])(=O)=O)c1 (3D coordinates assigned)
Cc1ccc(C2CCN(Cc3[n-]c(=O)[n-]c3[O-])CC2)c(S([NH-])(=O)=O)c1 (nonaromatic ring conformer: 90.26068703874019 kcal/mol)

>  <smiles>  (1479) 
Cc1ccc(C2CCN(Cc3[nH]c(=O)[nH]c3O)CC2)c(S(N)(=O)=O)c1

>  <score_type>  (1479) 
oracle

>  <origin>  (1479) 
adg

>  <m_score__min__energy>  (1479) 
-17.93

>  <m_primary>  (1479) 
energy

$$$$
28:0
     RDKit          3D

 38 42  0  0  0  0  0  0  0  0999 V2000
   59.9200   29.0640   46.1130 C   0  0  0  0  0  0  0  0  0  0  0  0
   58.7390   29.1080   45.4740 C   0  0  0  0  0  0  0  0  0  0  0  0
   57.8920   28.0310   45.1700 C   0  0  0  0  0  0  0  0  0  0  0  0
   58.0990   26.7000   45.2370 C   0  0  0  0  0  0  0  0  0  0  0  0
   57.4020   25.7790   46.1500 C   0  0  0  0  0  0  0  0  0  0  0  0
   57.9600   24.6780   46.6930 N   0  0  0  0  0  0  0  0  0  0  0  0
   56.9160   24.0640   47.2890 C   0  0  0  0  0  0  0  0  0  0  0  0
   57.0390   22.9840   47.9220 O   0  0  0  0  0  0  0  0  0  0  0  0
   55.7260   24.6900   47.1380 N   0  0  0  0  0  0  0  0  0  0  0  0
   56.0530   25.7620   46.3970 C   0  0  0  0  0  0  0  0  0  0  0  0
   55.1330   26.7140   45.9640 O   0  0  0  0  0  0  0  0  0  0  0  0
   56.7100   28.5890   44.7030 C   0  0  0  0  0  0  0  0  0  0  0  0
   56.8980   29.9570   44.6670 C   0  0  0  0  0  0  0  0  0  0  0  0
   55.8820   30.9520   44.1940 C   0  0  0  0  0  0  0  0  0  0  0  0
   58.1230   30.2700   45.1370 N   0  0  0  0  0  0  0  0  0  0  0  0
   58.6550   31.5980   45.2690 C   0  0  0  0  0  0  0  0  0  0  0  0
   58.3690   32.5670   44.3070 C   0  0  0  0  0  0  0  0  0  0  0  0
   58.7980   33.8850   44.4970 C   0  0  0  0  0  0  0  0  0  0  0  0
   59.5070   34.2340   45.6520 C   0  0  0  0  0  0  0  0  0  0  0  0
   59.8190   33.2590   46.6120 C   0  0  0  0  0  0  0  0  0  0  0  0
   60.5280   33.6300   47.8550 C   0  0  0  0  0  0  0  0  0  0  0  0
   60.3530   34.7710   48.3520 O   0  0  0  0  0  0  0  0  0  0  0  0
   61.4120   32.6980   48.5040 N   0  0  0  0  0  0  0  0  0  0  0  0
   61.4730   32.6340   49.9650 C   0  0  0  0  0  0  0  0  0  0  0  0
   62.8680   33.0570   50.4680 C   0  0  0  0  0  0  0  0  0  0  0  0
   63.8340   33.2240   49.3570 N   0  0  0  0  0  0  0  0  0  0  0  0
   65.1970   33.4410   49.8860 C   0  0  0  0  0  0  0  0  0  0  0  0
   65.3590   32.8200   51.2510 C   0  0  0  0  0  0  0  0  0  0  0  0
   65.2120   33.5410   52.2770 O   0  0  0  0  0  0  0  0  0  0  0  0
   65.6570   31.3700   51.4110 C   0  0  0  0  0  0  0  0  0  0  0  0
   64.6260   30.4680   51.7460 C   0  0  0  0  0  0  0  0  0  0  0  0
   64.8800   29.0970   51.8330 C   0  0  0  0  0  0  0  0  0  0  0  0
   66.1620   28.6060   51.5990 C   0  0  0  0  0  0  0  0  0  0  0  0
   67.2050   29.4890   51.3060 C   0  0  0  0  0  0  0  0  0  0  0  0
   66.9550   30.8600   51.2060 C   0  0  0  0  0  0  0  0  0  0  0  0
   63.7900   32.0380   48.4710 C   0  0  0  0  0  0  0  0  0  0  0  0
   62.4380   31.9840   47.7360 C   0  0  0  0  0  0  0  0  0  0  0  0
   59.3870   31.9400   46.4120 C   0  0  0  0  0  0  0  0  0  0  0  0
  1  2  2  0
  2  3  1  0
  3  4  2  3
  4  5  1  0
  5  6  1  0
  6  7  1  0
  7  8  2  0
  7  9  1  0
  9 10  1  0
 10 11  1  0
  3 12  1  0
 12 13  2  0
 13 14  1  0
 13 15  1  0
 15 16  1  0
 16 17  2  0
 17 18  1  0
 18 19  2  0
 19 20  1  0
 20 21  1  0
 21 22  2  0
 21 23  1  0
 23 24  1  0
 24 25  1  0
 25 26  1  0
 26 27  1  0
 27 28  1  0
 28 29  2  0
 28 30  1  0
 30 31  2  0
 31 32  1  0
 32 33  2  0
 33 34  1  0
 34 35  2  0
 26 36  1  0
 36 37  1  0
 20 38  2  0
 15  2  1  0
 38 16  1  0
 10  5  2  0
 37 23  1  0
 35 30  1  0
M  CHG  3   6  -1   9  -1  11  -1
M  END
>  <UniqueID>  (1480) 
28

>  <SMILES>  (1480) 
C=c1c(=Cc2[n-]c(=O)[n-]c2[O-])cc(C)n1-c1cccc(C(=O)N2CCN(CC(=O)c3ccccc3)CC2)c1

>  <Energy>  (1480) 
160.0426972646848

>  <Genealogy>  (1480) 
C=c1c(=Cc2[n-]c(=O)[n-]c2[O-])cc(C)n1-c1cccc(C(=O)N2CCN(CC(=O)c3ccccc3)CC2)c1 (protonated)
C=c1c(=Cc2[n-]c(=O)[n-]c2[O-])cc(C)n1-c1cccc(C(=O)N2CCN(CC(=O)c3ccccc3)CC2)c1 (3D coordinates assigned)
C=c1c(=Cc2[n-]c(=O)[n-]c2[O-])cc(C)n1-c1cccc(C(=O)N2CCN(CC(=O)c3ccccc3)CC2)c1 (nonaromatic ring conformer: 160.0426972646848 kcal/mol)

>  <smiles>  (1480) 
C=c1c(=Cc2[nH]c(=O)[nH]c2O)cc(C)n1-c1cccc(C(=O)N2CCN(CC(=O)c3ccccc3)CC2)c1

>  <score_type>  (1480) 
oracle

>  <origin>  (1480) 
adg

>  <m_score__min__energy>  (1480) 
-19.190000000000001

>  <m_primary>  (1480) 
energy

$$$$
36:0
     RDKit          3D

 25 27  0  0  0  0  0  0  0  0999 V2000
   59.7370   29.5120   47.6020 C   0  0  0  0  0  0  0  0  0  0  0  0
   58.9130   30.1690   46.7710 C   0  0  0  0  0  0  0  0  0  0  0  0
   58.2880   29.6590   45.6310 C   0  0  0  0  0  0  0  0  0  0  0  0
   58.3800   28.4010   45.1520 C   0  0  0  0  0  0  0  0  0  0  0  0
   57.5190   27.2860   45.5850 C   0  0  0  0  0  0  0  0  0  0  0  0
   56.1250   27.4300   45.6270 C   0  0  0  0  0  0  0  0  0  0  0  0
   55.5240   28.6170   45.2250 O   0  0  0  0  0  0  0  0  0  0  0  0
   55.3520   26.4020   46.0620 N   0  0  0  0  0  0  0  0  0  0  0  0
   55.9070   25.2330   46.4720 C   0  0  0  0  0  0  0  0  0  0  0  0
   55.1710   24.2930   46.8680 O   0  0  0  0  0  0  0  0  0  0  0  0
   57.2560   25.0780   46.4580 N   0  0  0  0  0  0  0  0  0  0  0  0
   58.0730   26.0770   46.0330 C   0  0  0  0  0  0  0  0  0  0  0  0
   59.3200   25.9030   46.0380 O   0  0  0  0  0  0  0  0  0  0  0  0
   57.5780   30.7520   45.1200 C   0  0  0  0  0  0  0  0  0  0  0  0
   56.7290   30.8180   43.8880 C   0  0  0  0  0  0  0  0  0  0  0  0
   57.7710   31.8230   45.9110 N   0  0  0  0  0  0  0  0  0  0  0  0
   58.5620   31.4700   46.9130 N   0  0  0  0  0  0  0  0  0  0  0  0
   59.0170   32.3980   47.9570 C   0  0  0  0  0  0  0  0  0  0  0  0
   60.4760   32.7600   47.7820 C   0  0  0  0  0  0  0  0  0  0  0  0
   61.4230   32.2060   48.6610 C   0  0  0  0  0  0  0  0  0  0  0  0
   62.7810   32.4960   48.5180 C   0  0  0  0  0  0  0  0  0  0  0  0
   63.2120   33.3360   47.4920 C   0  0  0  0  0  0  0  0  0  0  0  0
   62.2890   33.8830   46.6000 C   0  0  0  0  0  0  0  0  0  0  0  0
   60.9180   33.5950   46.7230 C   0  0  0  0  0  0  0  0  0  0  0  0
   59.9490   34.2020   45.7430 C   0  0  0  0  0  0  0  0  0  0  0  0
  1  2  2  0
  2  3  1  0
  3  4  2  3
  4  5  1  0
  5  6  2  0
  6  7  1  0
  6  8  1  0
  8  9  1  0
  9 10  2  0
  9 11  1  0
 11 12  1  0
 12 13  2  0
  3 14  1  0
 14 15  1  0
 14 16  2  0
 16 17  1  0
 17 18  1  0
 18 19  1  0
 19 20  2  0
 20 21  1  0
 21 22  2  0
 22 23  1  0
 23 24  2  0
 24 25  1  0
 17  2  1  0
 24 19  1  0
 12  5  1  0
M  CHG  3   7  -1   8  -1  11  -1
M  END
>  <UniqueID>  (1481) 
34

>  <SMILES>  (1481) 
C=c1c(=Cc2c([O-])[n-]c(=O)[n-]c2=O)c(C)nn1Cc1ccccc1C

>  <Energy>  (1481) 
88.50517965704006

>  <Genealogy>  (1481) 
C=c1c(=Cc2c([O-])[n-]c(=O)[n-]c2=O)c(C)nn1Cc1ccccc1C (protonated)
C=c1c(=Cc2c([O-])[n-]c(=O)[n-]c2=O)c(C)nn1Cc1ccccc1C (3D coordinates assigned)
C=c1c(=Cc2c([O-])[n-]c(=O)[n-]c2=O)c(C)nn1Cc1ccccc1C (optimized conformer: 88.50517965704006 kcal/mol)

>  <smiles>  (1481) 
C=c1c(=Cc2c(O)[nH]c(=O)[nH]c2=O)c(C)nn1Cc1ccccc1C

>  <score_type>  (1481) 
oracle

>  <origin>  (1481) 
adg

>  <m_score__min__energy>  (1481) 
-16.25

>  <m_primary>  (1481) 
energy

$$$$
53:0
     RDKit          3D

 31 34  0  0  0  0  0  0  0  0999 V2000
   59.9700   32.2090   53.7750 C   0  0  0  0  0  0  0  0  0  0  0  0
   59.9140   32.1970   52.4420 C   0  0  0  0  0  0  0  0  0  0  0  0
   60.8590   32.8010   51.6900 N   0  0  0  0  0  0  0  0  0  0  0  0
   60.6760   32.4320   50.4330 N   0  0  0  0  0  0  0  0  0  0  0  0
   61.4450   32.9710   49.3120 C   0  0  0  0  0  0  0  0  0  0  0  0
   60.8650   34.3130   48.8480 C   0  0  0  0  0  0  0  0  0  0  0  0
   59.9520   34.1390   47.6610 C   0  0  0  0  0  0  0  0  0  0  0  0
   60.3390   34.6020   46.3920 C   0  0  0  0  0  0  0  0  0  0  0  0
   59.4660   34.4950   45.3060 C   0  0  0  0  0  0  0  0  0  0  0  0
   58.2000   33.9290   45.4790 C   0  0  0  0  0  0  0  0  0  0  0  0
   57.8050   33.4720   46.7380 C   0  0  0  0  0  0  0  0  0  0  0  0
   58.6740   33.5790   47.8280 C   0  0  0  0  0  0  0  0  0  0  0  0
   59.6180   31.6020   50.3620 C   0  0  0  0  0  0  0  0  0  0  0  0
   59.1610   31.1460   49.2800 O   0  0  0  0  0  0  0  0  0  0  0  0
   59.0640   31.4360   51.6240 C   0  0  0  0  0  0  0  0  0  0  0  0
   57.9530   30.7220   51.9430 C   0  0  0  0  0  0  0  0  0  0  0  0
   57.8280   29.3850   52.3480 C   0  0  0  0  0  0  0  0  0  0  0  0
   58.7980   28.5510   52.7260 C   0  0  0  0  0  0  0  0  0  0  0  0
   56.5260   29.0810   52.5340 N   0  0  0  0  0  0  0  0  0  0  0  0
   55.8070   30.1650   52.2850 N   0  0  0  0  0  0  0  0  0  0  0  0
   54.3720   30.2020   52.4030 C   0  0  0  0  0  0  0  0  0  0  0  0
   53.7050   29.1880   53.1080 C   0  0  0  0  0  0  0  0  0  0  0  0
   52.3150   29.2050   53.2240 C   0  0  0  0  0  0  0  0  0  0  0  0
   51.5720   30.2270   52.6310 C   0  0  0  0  0  0  0  0  0  0  0  0
   52.2150   31.2430   51.9040 C   0  0  0  0  0  0  0  0  0  0  0  0
   51.4300   32.3190   51.2600 C   0  0  0  0  0  0  0  0  0  0  0  0
   51.1500   32.2620   50.0330 O   0  0  0  0  0  0  0  0  0  0  0  0
   50.9890   33.4100   52.0020 O   0  0  0  0  0  0  0  0  0  0  0  0
   53.6180   31.2210   51.7910 C   0  0  0  0  0  0  0  0  0  0  0  0
   56.6400   31.1760   51.9590 C   0  0  0  0  0  0  0  0  0  0  0  0
   56.2550   32.3420   51.6760 O   0  0  0  0  0  0  0  0  0  0  0  0
  1  2  2  0
  2  3  1  0
  3  4  1  0
  4  5  1  0
  5  6  1  0
  6  7  1  0
  7  8  2  0
  8  9  1  0
  9 10  2  0
 10 11  1  0
 11 12  2  0
  4 13  1  0
 13 14  2  0
 13 15  1  0
 15 16  2  3
 16 17  1  0
 17 18  2  0
 17 19  1  0
 19 20  1  0
 20 21  1  0
 21 22  2  0
 22 23  1  0
 23 24  2  0
 24 25  1  0
 25 26  1  0
 26 27  2  0
 26 28  1  0
 25 29  2  0
 20 30  1  0
 30 31  2  0
 15  2  1  0
 30 16  1  0
 12  7  1  0
 29 21  1  0
M  CHG  3   3  -1  19  -1  28  -1
M  END
>  <UniqueID>  (1482) 
49

>  <SMILES>  (1482) 
C=c1[n-]n(CCc2ccccc2)c(=O)c1=c1c(=C)[n-]n(-c2cccc(C(=O)[O-])c2)c1=O

>  <Energy>  (1482) 
140.20282574522528

>  <Genealogy>  (1482) 
C=c1[n-]n(CCc2ccccc2)c(=O)c1=c1c(=C)[n-]n(-c2cccc(C(=O)[O-])c2)c1=O (protonated)
C=c1[n-]n(CCc2ccccc2)c(=O)c1=c1c(=C)[n-]n(-c2cccc(C(=O)[O-])c2)c1=O (3D coordinates assigned)
C=c1[n-]n(CCc2ccccc2)c(=O)c1=c1c(=C)[n-]n(-c2cccc(C(=O)[O-])c2)c1=O (optimized conformer: 140.20282574522528 kcal/mol)

>  <smiles>  (1482) 
C=c1[nH]n(CCc2ccccc2)c(=O)c1=c1c(=C)[nH]n(-c2cccc(C(=O)O)c2)c1=O

>  <score_type>  (1482) 
oracle

>  <origin>  (1482) 
adg

>  <m_score__min__energy>  (1482) 
-14.109999999999999

>  <m_primary>  (1482) 
energy

$$$$
60:0
     RDKit          3D

 31 34  0  0  0  0  0  0  0  0999 V2000
   62.9440   33.7770   46.3310 C   0  0  0  0  0  0  0  0  0  0  0  0
   62.7030   33.2980   47.7040 N   0  0  0  0  0  0  0  0  0  0  0  0
   61.7320   34.1620   48.4290 C   0  0  0  0  0  0  0  0  0  0  0  0
   60.3360   33.5320   48.5890 C   0  0  0  0  0  0  0  0  0  0  0  0
   60.0270   32.6840   47.4350 N   0  0  0  0  0  0  0  0  0  0  0  0
   58.9360   33.0080   46.5470 C   0  0  0  0  0  0  0  0  0  0  0  0
   58.4710   34.1790   46.5210 O   0  0  0  0  0  0  0  0  0  0  0  0
   58.3880   32.0060   45.6150 C   0  0  0  0  0  0  0  0  0  0  0  0
   58.1970   32.3160   44.2610 C   0  0  0  0  0  0  0  0  0  0  0  0
   57.6570   31.3640   43.3920 C   0  0  0  0  0  0  0  0  0  0  0  0
   57.2780   30.1070   43.8750 C   0  0  0  0  0  0  0  0  0  0  0  0
   57.4360   29.7970   45.2330 C   0  0  0  0  0  0  0  0  0  0  0  0
   56.9640   28.5000   45.7570 C   0  0  0  0  0  0  0  0  0  0  0  0
   55.9070   27.8400   45.2490 N   0  0  0  0  0  0  0  0  0  0  0  0
   55.8860   26.6920   45.9540 C   0  0  0  0  0  0  0  0  0  0  0  0
   55.0260   25.7930   45.7610 O   0  0  0  0  0  0  0  0  0  0  0  0
   56.8590   26.5810   46.8810 N   0  0  0  0  0  0  0  0  0  0  0  0
   57.5390   27.7360   46.7630 C   0  0  0  0  0  0  0  0  0  0  0  0
   58.6640   28.1040   47.6480 C   0  0  0  0  0  0  0  0  0  0  0  0
   59.8970   27.4340   47.5620 C   0  0  0  0  0  0  0  0  0  0  0  0
   60.9450   27.7720   48.4200 C   0  0  0  0  0  0  0  0  0  0  0  0
   60.7800   28.7900   49.3620 C   0  0  0  0  0  0  0  0  0  0  0  0
   59.5670   29.4890   49.4370 C   0  0  0  0  0  0  0  0  0  0  0  0
   59.3530   30.7620   50.6320 S   0  0  0  0  0  0  0  0  0  0  0  0
   58.7700   30.0770   52.1070 N   0  0  0  0  0  0  0  0  0  0  0  0
   60.6650   31.4500   50.8850 O   0  0  0  0  0  0  0  0  0  0  0  0
   58.3670   31.7780   50.1250 O   0  0  0  0  0  0  0  0  0  0  0  0
   58.5130   29.1450   48.5770 C   0  0  0  0  0  0  0  0  0  0  0  0
   58.0310   30.7370   46.0900 C   0  0  0  0  0  0  0  0  0  0  0  0
   60.9680   31.6080   47.0940 C   0  0  0  0  0  0  0  0  0  0  0  0
   62.3450   31.8640   47.7310 C   0  0  0  0  0  0  0  0  0  0  0  0
  1  2  1  0
  2  3  1  0
  3  4  1  0
  4  5  1  0
  5  6  1  0
  6  7  2  0
  6  8  1  0
  8  9  2  0
  9 10  1  0
 10 11  2  0
 11 12  1  0
 12 13  1  0
 13 14  1  0
 14 15  1  0
 15 16  2  0
 15 17  1  0
 17 18  1  0
 18 19  1  0
 19 20  2  0
 20 21  1  0
 21 22  2  0
 22 23  1  0
 23 24  1  0
 24 25  1  0
 24 26  2  0
 24 27  2  0
 23 28  2  0
 12 29  2  0
  5 30  1  0
 30 31  1  0
 31  2  1  0
 29  8  1  0
 18 13  2  0
 28 19  1  0
M  CHG  3  14  -1  17  -1  25  -1
M  END
>  <UniqueID>  (1483) 
54

>  <SMILES>  (1483) 
CN1CCN(C(=O)c2cccc(-c3[n-]c(=O)[n-]c3-c3cccc(S([NH-])(=O)=O)c3)c2)CC1

>  <Energy>  (1483) 
101.28646397858216

>  <Genealogy>  (1483) 
CN1CCN(C(=O)c2cccc(-c3[n-]c(=O)[n-]c3-c3cccc(S([NH-])(=O)=O)c3)c2)CC1 (protonated)
CN1CCN(C(=O)c2cccc(-c3[n-]c(=O)[n-]c3-c3cccc(S([NH-])(=O)=O)c3)c2)CC1 (3D coordinates assigned)
CN1CCN(C(=O)c2cccc(-c3[n-]c(=O)[n-]c3-c3cccc(S([NH-])(=O)=O)c3)c2)CC1 (nonaromatic ring conformer: 101.28646397858216 kcal/mol)

>  <smiles>  (1483) 
CN1CCN(C(=O)c2cccc(-c3[nH]c(=O)[nH]c3-c3cccc(S(N)(=O)=O)c3)c2)CC1

>  <score_type>  (1483) 
oracle

>  <origin>  (1483) 
adg

>  <m_score__min__energy>  (1483) 
-14.029999999999999

>  <m_primary>  (1483) 
energy

$$$$
63:0
     RDKit          3D

 30 34  0  0  0  0  0  0  0  0999 V2000
   53.4820   31.5100   52.0910 C   0  0  0  0  0  0  0  0  0  0  0  0
   52.4890   31.4610   51.0030 C   0  0  0  0  0  0  0  0  0  0  0  0
   52.4590   30.4860   50.0780 N   0  0  0  0  0  0  0  0  0  0  0  0
   51.3660   30.7850   49.3420 C   0  0  0  0  0  0  0  0  0  0  0  0
   51.0060   30.0960   48.3530 O   0  0  0  0  0  0  0  0  0  0  0  0
   50.6850   31.8740   49.7560 N   0  0  0  0  0  0  0  0  0  0  0  0
   51.4000   32.2850   50.8160 C   0  0  0  0  0  0  0  0  0  0  0  0
   51.0320   33.3550   51.6210 O   0  0  0  0  0  0  0  0  0  0  0  0
   54.4850   30.6320   52.2280 C   0  0  0  0  0  0  0  0  0  0  0  0
   54.4480   29.3060   52.6610 C   0  0  0  0  0  0  0  0  0  0  0  0
   55.7040   28.7990   52.6930 N   0  0  0  0  0  0  0  0  0  0  0  0
   56.5240   29.7610   52.2990 N   0  0  0  0  0  0  0  0  0  0  0  0
   57.8820   29.7340   52.1680 C   0  0  0  0  0  0  0  0  0  0  0  0
   58.6040   28.6790   52.4200 N   0  0  0  0  0  0  0  0  0  0  0  0
   60.0600   28.6220   52.4950 C   0  0  0  0  0  0  0  0  0  0  0  0
   60.6720   27.4650   51.7270 C   0  0  0  0  0  0  0  0  0  0  0  0
   60.7190   28.8710   51.1510 C   0  0  0  0  0  0  0  0  0  0  0  0
   58.5010   30.8710   51.7450 N   0  0  0  0  0  0  0  0  0  0  0  0
   57.7840   32.0060   51.4710 C   0  0  0  0  0  0  0  0  0  0  0  0
   58.3790   33.0860   51.0610 N   0  0  0  0  0  0  0  0  0  0  0  0
   59.6910   33.1250   50.4800 C   0  0  0  0  0  0  0  0  0  0  0  0
   60.7980   33.2220   51.3290 C   0  0  0  0  0  0  0  0  0  0  0  0
   62.0890   33.2590   50.8030 C   0  0  0  0  0  0  0  0  0  0  0  0
   62.2880   33.1860   49.4250 C   0  0  0  0  0  0  0  0  0  0  0  0
   61.1930   33.0640   48.5540 C   0  0  0  0  0  0  0  0  0  0  0  0
   61.4310   32.9550   47.0720 C   0  0  0  0  0  0  0  0  0  0  0  0
   59.8850   33.0170   49.0840 C   0  0  0  0  0  0  0  0  0  0  0  0
   58.5030   32.7580   48.0140 Cl  0  0  0  0  0  0  0  0  0  0  0  0
   56.4290   32.0050   51.6050 N   0  0  0  0  0  0  0  0  0  0  0  0
   55.8260   30.8670   52.0230 C   0  0  0  0  0  0  0  0  0  0  0  0
  1  2  1  0
  2  3  1  0
  3  4  1  0
  4  5  2  0
  4  6  1  0
  6  7  1  0
  7  8  1  0
  1  9  2  3
  9 10  1  0
 10 11  2  0
 11 12  1  0
 12 13  1  0
 13 14  2  0
 14 15  1  0
 15 16  1  0
 16 17  1  0
 13 18  1  0
 18 19  1  0
 19 20  2  0
 20 21  1  0
 21 22  2  0
 22 23  1  0
 23 24  2  0
 24 25  1  0
 25 26  1  0
 25 27  2  0
 27 28  1  0
 19 29  1  0
 29 30  2  0
  7  2  2  0
 30  9  1  0
 30 12  1  0
 17 15  1  0
 27 21  1  0
M  CHG  4   3  -1   6  -1   8  -1  18  -1
M  END
>  <UniqueID>  (1484) 
57

>  <SMILES>  (1484) 
Cc1cccc(/N=c2/nc3c(=Cc4[n-]c(=O)[n-]c4[O-])cnn3/c(=N\C3CC3)[n-]2)c1Cl

>  <Energy>  (1484) 
398.7383625622773

>  <Genealogy>  (1484) 
Cc1cccc(N=c2nc3c(=Cc4[n-]c(=O)[n-]c4[O-])cnn3c(=NC3CC3)[n-]2)c1Cl (protonated)
Cc1cccc(/N=c2/nc3c(=Cc4[n-]c(=O)[n-]c4[O-])cnn3/c(=N\C3CC3)[n-]2)c1Cl (cis-trans isomerization)
Cc1cccc(/N=c2/nc3c(=Cc4[n-]c(=O)[n-]c4[O-])cnn3/c(=N\C3CC3)[n-]2)c1Cl (3D coordinates assigned)
Cc1cccc(/N=c2/nc3c(=Cc4[n-]c(=O)[n-]c4[O-])cnn3/c(=N\C3CC3)[n-]2)c1Cl (nonaromatic ring conformer: 398.7383625622773 kcal/mol)

>  <smiles>  (1484) 
Cc1cccc(N=c2nc3c(=Cc4[nH]c(=O)[nH]c4O)cnn3c(=NC3CC3)[nH]2)c1Cl

>  <score_type>  (1484) 
oracle

>  <origin>  (1484) 
adg

>  <m_score__min__energy>  (1484) 
-17.850000000000001

>  <m_primary>  (1484) 
energy

$$$$
70:0
     RDKit          3D

 31 33  0  0  0  0  0  0  0  0999 V2000
   58.6710   29.0740   48.5890 C   0  0  0  0  0  0  0  0  0  0  0  0
   60.1590   28.7340   48.3840 C   0  0  0  0  0  0  0  0  0  0  0  0
   60.5430   29.1040   46.9370 C   0  0  0  0  0  0  0  0  0  0  0  0
   60.3470   27.2280   48.6510 C   0  0  0  0  0  0  0  0  0  0  0  0
   60.9120   29.5340   49.3610 N   0  0  0  0  0  0  0  0  0  0  0  0
   61.4700   30.8600   49.3090 C   0  0  0  0  0  0  0  0  0  0  0  0
   62.5030   31.0850   49.9940 O   0  0  0  0  0  0  0  0  0  0  0  0
   60.8570   32.0060   48.5380 C   0  0  0  0  0  0  0  0  0  0  0  0
   60.6480   33.2380   49.4500 C   0  0  0  0  0  0  0  0  0  0  0  0
   60.8350   34.5760   48.7030 C   0  0  0  0  0  0  0  0  0  0  0  0
   60.3510   34.5220   47.3080 N   0  0  0  0  0  0  0  0  0  0  0  0
   58.8740   34.4620   47.2400 C   0  0  0  0  0  0  0  0  0  0  0  0
   58.4280   33.5740   46.1070 C   0  0  0  0  0  0  0  0  0  0  0  0
   58.5810   33.9980   44.7780 C   0  0  0  0  0  0  0  0  0  0  0  0
   58.2000   33.1610   43.7260 C   0  0  0  0  0  0  0  0  0  0  0  0
   57.6830   31.8900   43.9920 C   0  0  0  0  0  0  0  0  0  0  0  0
   57.5460   31.4430   45.3110 C   0  0  0  0  0  0  0  0  0  0  0  0
   57.0170   30.1300   45.5490 N   0  0  0  0  0  0  0  0  0  0  0  0
   57.6790   28.8860   45.2820 C   0  0  0  0  0  0  0  0  0  0  0  0
   58.7820   28.9090   44.6740 O   0  0  0  0  0  0  0  0  0  0  0  0
   57.1380   27.5850   45.7310 C   0  0  0  0  0  0  0  0  0  0  0  0
   57.9690   26.5800   46.2490 C   0  0  0  0  0  0  0  0  0  0  0  0
   57.3910   25.3730   46.6470 C   0  0  0  0  0  0  0  0  0  0  0  0
   58.1070   24.4560   47.1260 O   0  0  0  0  0  0  0  0  0  0  0  0
   56.0520   25.1860   46.5160 N   0  0  0  0  0  0  0  0  0  0  0  0
   55.2610   26.1600   45.9940 C   0  0  0  0  0  0  0  0  0  0  0  0
   54.0260   25.9650   45.8690 O   0  0  0  0  0  0  0  0  0  0  0  0
   55.8050   27.3430   45.6050 N   0  0  0  0  0  0  0  0  0  0  0  0
   57.8930   32.3020   46.3690 C   0  0  0  0  0  0  0  0  0  0  0  0
   61.0260   33.4750   46.4910 C   0  0  0  0  0  0  0  0  0  0  0  0
   61.7140   32.3700   47.3190 C   0  0  0  0  0  0  0  0  0  0  0  0
  1  2  1  0
  2  3  1  0
  2  4  1  0
  2  5  1  0
  5  6  1  0
  6  7  2  0
  6  8  1  0
  8  9  1  0
  9 10  1  0
 10 11  1  0
 11 12  1  0
 12 13  1  0
 13 14  2  0
 14 15  1  0
 15 16  2  0
 16 17  1  0
 17 18  1  0
 18 19  1  0
 19 20  2  0
 19 21  1  0
 21 22  2  0
 22 23  1  0
 23 24  2  0
 23 25  1  0
 25 26  1  0
 26 27  2  0
 26 28  1  0
 17 29  2  0
 11 30  1  0
 30 31  1  0
 31  8  1  0
 29 13  1  0
 28 21  1  0
M  CHG  4   5  -1  18  -1  25  -1  28  -1
M  END
>  <UniqueID>  (1485) 
63

>  <SMILES>  (1485) 
CC(C)(C)[N-]C(=O)C1CCN(Cc2cccc([N-]C(=O)c3cc(=O)[n-]c(=O)[n-]3)c2)CC1

>  <Energy>  (1485) 
69.00904464188551

>  <Genealogy>  (1485) 
CC(C)(C)[N-]C(=O)C1CCN(Cc2cccc([N-]C(=O)c3cc(=O)[n-]c(=O)[n-]3)c2)CC1 (protonated)
CC(C)(C)[N-]C(=O)C1CCN(Cc2cccc([N-]C(=O)c3cc(=O)[n-]c(=O)[n-]3)c2)CC1 (3D coordinates assigned)
CC(C)(C)[N-]C(=O)C1CCN(Cc2cccc([N-]C(=O)c3cc(=O)[n-]c(=O)[n-]3)c2)CC1 (nonaromatic ring conformer: 69.00904464188551 kcal/mol)

>  <smiles>  (1485) 
CC(C)(C)NC(=O)C1CCN(Cc2cccc(NC(=O)c3cc(=O)[nH]c(=O)[nH]3)c2)CC1

>  <score_type>  (1485) 
oracle

>  <origin>  (1485) 
adg

>  <m_score__min__energy>  (1485) 
-16.420000000000002

>  <m_primary>  (1485) 
energy

$$$$
73:0
     RDKit          3D

 26 27  0  0  0  0  0  0  0  0999 V2000
   57.0070   30.4890   43.8640 C   0  0  0  0  0  0  0  0  0  0  0  0
   57.3180   30.6270   45.2460 O   0  0  0  0  0  0  0  0  0  0  0  0
   57.7930   31.8070   45.8420 C   0  0  0  0  0  0  0  0  0  0  0  0
   57.5220   33.0760   45.2930 C   0  0  0  0  0  0  0  0  0  0  0  0
   57.9940   34.2330   45.9170 C   0  0  0  0  0  0  0  0  0  0  0  0
   58.7430   34.1410   47.0890 C   0  0  0  0  0  0  0  0  0  0  0  0
   59.0220   32.8920   47.6420 C   0  0  0  0  0  0  0  0  0  0  0  0
   58.5480   31.7180   47.0310 C   0  0  0  0  0  0  0  0  0  0  0  0
   58.8400   30.3910   47.6840 C   0  0  0  0  0  0  0  0  0  0  0  0
   60.2380   29.9740   47.4180 N   0  0  0  0  0  0  0  0  0  0  0  0
   60.9020   30.9730   46.5630 C   0  0  0  0  0  0  0  0  0  0  0  0
   60.3220   28.6270   46.8000 C   0  0  0  0  0  0  0  0  0  0  0  0
   58.9330   27.9950   46.6130 C   0  0  0  0  0  0  0  0  0  0  0  0
   58.6240   27.6360   45.1540 C   0  0  0  0  0  0  0  0  0  0  0  0
   57.3830   26.8670   45.0640 N   0  0  0  0  0  0  0  0  0  0  0  0
   57.3010   25.4640   45.3600 C   0  0  0  0  0  0  0  0  0  0  0  0
   58.3280   24.8340   45.7300 O   0  0  0  0  0  0  0  0  0  0  0  0
   56.0040   24.7520   45.2760 C   0  0  0  0  0  0  0  0  0  0  0  0
   54.7950   25.3800   45.6320 C   0  0  0  0  0  0  0  0  0  0  0  0
   54.7690   26.7160   46.0170 O   0  0  0  0  0  0  0  0  0  0  0  0
   53.6280   24.6890   45.5760 N   0  0  0  0  0  0  0  0  0  0  0  0
   53.5960   23.3950   45.1690 C   0  0  0  0  0  0  0  0  0  0  0  0
   52.5020   22.7760   45.1290 O   0  0  0  0  0  0  0  0  0  0  0  0
   54.7420   22.7700   44.8030 N   0  0  0  0  0  0  0  0  0  0  0  0
   55.9380   23.4140   44.8430 C   0  0  0  0  0  0  0  0  0  0  0  0
   56.9810   22.7920   44.5070 O   0  0  0  0  0  0  0  0  0  0  0  0
  1  2  1  0
  2  3  1  0
  3  4  2  0
  4  5  1  0
  5  6  2  0
  6  7  1  0
  7  8  2  0
  8  9  1  0
  9 10  1  0
 10 11  1  0
 10 12  1  0
 12 13  1  0
 13 14  1  0
 14 15  1  0
 15 16  1  0
 16 17  2  0
 16 18  1  0
 18 19  2  0
 19 20  1  0
 19 21  1  0
 21 22  1  0
 22 23  2  0
 22 24  1  0
 24 25  1  0
 25 26  2  0
  8  3  1  0
 25 18  1  0
M  CHG  3  20  -1  21  -1  24  -1
M  END
>  <UniqueID>  (1486) 
66

>  <SMILES>  (1486) 
COc1ccccc1CN(C)CCCNC(=O)c1c([O-])[n-]c(=O)[n-]c1=O

>  <Energy>  (1486) 
46.401299277258055

>  <Genealogy>  (1486) 
COc1ccccc1CN(C)CCCNC(=O)c1c([O-])[n-]c(=O)[n-]c1=O (protonated)
COc1ccccc1CN(C)CCCNC(=O)c1c([O-])[n-]c(=O)[n-]c1=O (3D coordinates assigned)
COc1ccccc1CN(C)CCCNC(=O)c1c([O-])[n-]c(=O)[n-]c1=O (optimized conformer: 46.401299277258055 kcal/mol)

>  <smiles>  (1486) 
COc1ccccc1CN(C)CCCNC(=O)c1c(O)[nH]c(=O)[nH]c1=O

>  <score_type>  (1486) 
oracle

>  <origin>  (1486) 
adg

>  <m_score__min__energy>  (1486) 
-15.17

>  <m_primary>  (1486) 
energy

$$$$
80:0
     RDKit          3D

 33 36  0  0  0  0  0  0  0  0999 V2000
   57.9850   29.7260   44.0970 C   0  0  0  0  0  0  0  0  0  0  0  0
   58.2210   29.2490   45.3290 C   0  0  0  0  0  0  0  0  0  0  0  0
   58.0090   27.9380   45.7900 C   0  0  0  0  0  0  0  0  0  0  0  0
   57.6990   26.8060   45.1300 C   0  0  0  0  0  0  0  0  0  0  0  0
   57.0000   25.6430   45.7020 C   0  0  0  0  0  0  0  0  0  0  0  0
   57.5960   24.4890   46.0570 N   0  0  0  0  0  0  0  0  0  0  0  0
   56.6020   23.7970   46.6530 C   0  0  0  0  0  0  0  0  0  0  0  0
   56.7660   22.6380   47.1150 O   0  0  0  0  0  0  0  0  0  0  0  0
   55.4210   24.4480   46.7250 N   0  0  0  0  0  0  0  0  0  0  0  0
   55.6960   25.6200   46.1310 C   0  0  0  0  0  0  0  0  0  0  0  0
   54.7750   26.6500   45.9890 O   0  0  0  0  0  0  0  0  0  0  0  0
   58.2090   27.9730   47.1610 C   0  0  0  0  0  0  0  0  0  0  0  0
   58.5870   29.2610   47.4790 C   0  0  0  0  0  0  0  0  0  0  0  0
   58.9270   29.7380   48.8580 C   0  0  0  0  0  0  0  0  0  0  0  0
   58.6060   30.0310   46.3710 N   0  0  0  0  0  0  0  0  0  0  0  0
   58.8780   31.4430   46.3470 C   0  0  0  0  0  0  0  0  0  0  0  0
   57.9600   32.3250   45.7680 C   0  0  0  0  0  0  0  0  0  0  0  0
   58.2260   33.6950   45.7360 C   0  0  0  0  0  0  0  0  0  0  0  0
   59.4160   34.2070   46.2800 C   0  0  0  0  0  0  0  0  0  0  0  0
   59.6720   35.6870   46.1980 C   0  0  0  0  0  0  0  0  0  0  0  0
   60.3330   33.3190   46.8980 C   0  0  0  0  0  0  0  0  0  0  0  0
   61.5850   33.7800   47.5440 C   0  0  0  0  0  0  0  0  0  0  0  0
   61.4820   34.6440   48.4600 O   0  0  0  0  0  0  0  0  0  0  0  0
   62.8890   33.2240   47.1960 N   0  0  0  0  0  0  0  0  0  0  0  0
   64.0060   33.8530   47.9370 C   0  0  0  0  0  0  0  0  0  0  0  0
   63.9760   33.5150   49.4340 C   0  0  0  0  0  0  0  0  0  0  0  0
   63.8770   32.0630   49.6400 N   0  0  0  0  0  0  0  0  0  0  0  0
   64.4320   31.4850   50.8450 C   0  0  0  0  0  0  0  0  0  0  0  0
   64.0560   30.1090   51.3090 C   0  0  0  0  0  0  0  0  0  0  0  0
   65.2680   32.1360   51.5280 O   0  0  0  0  0  0  0  0  0  0  0  0
   62.8930   31.3230   48.8360 C   0  0  0  0  0  0  0  0  0  0  0  0
   62.9530   31.7530   47.3610 C   0  0  0  0  0  0  0  0  0  0  0  0
   60.0660   31.9410   46.8940 C   0  0  0  0  0  0  0  0  0  0  0  0
  1  2  2  0
  2  3  1  0
  3  4  2  3
  4  5  1  0
  5  6  1  0
  6  7  1  0
  7  8  2  0
  7  9  1  0
  9 10  1  0
 10 11  1  0
  3 12  1  0
 12 13  2  0
 13 14  1  0
 13 15  1  0
 15 16  1  0
 16 17  2  0
 17 18  1  0
 18 19  2  0
 19 20  1  0
 19 21  1  0
 21 22  1  0
 22 23  2  0
 22 24  1  0
 24 25  1  0
 25 26  1  0
 26 27  1  0
 27 28  1  0
 28 29  1  0
 28 30  2  0
 27 31  1  0
 31 32  1  0
 21 33  2  0
 15  2  1  0
 33 16  1  0
 10  5  2  0
 32 24  1  0
M  CHG  4   6  -1   9  -1  11  -1  24   1
M  END
>  <UniqueID>  (1487) 
73

>  <SMILES>  (1487) 
C=c1c(=Cc2[n-]c(=O)[n-]c2[O-])cc(C)n1-c1ccc(C)c(C(=O)[NH+]2CCN(C(C)=O)CC2)c1

>  <Energy>  (1487) 
148.25374522282846

>  <Genealogy>  (1487) 
C=c1c(=Cc2[n-]c(=O)[n-]c2[O-])cc(C)n1-c1ccc(C)c(C(=O)[NH+]2CCN(C(C)=O)CC2)c1 (protonated)
C=c1c(=Cc2[n-]c(=O)[n-]c2[O-])cc(C)n1-c1ccc(C)c(C(=O)[NH+]2CCN(C(C)=O)CC2)c1 (3D coordinates assigned)
C=c1c(=Cc2[n-]c(=O)[n-]c2[O-])cc(C)n1-c1ccc(C)c(C(=O)[NH+]2CCN(C(C)=O)CC2)c1 (nonaromatic ring conformer: 148.25374522282846 kcal/mol)

>  <smiles>  (1487) 
C=c1c(=Cc2[nH]c(=O)[nH]c2O)cc(C)n1-c1ccc(C)c(C(=O)N2CCN(C(C)=O)CC2)c1

>  <score_type>  (1487) 
oracle

>  <origin>  (1487) 
adg

>  <m_score__min__energy>  (1487) 
-15.73

>  <m_primary>  (1487) 
energy

$$$$
81:0
     RDKit          3D

 36 39  0  0  0  0  0  0  0  0999 V2000
   65.9120   33.5790   51.2470 C   0  0  0  0  0  0  0  0  0  0  0  0
   65.2100   32.4690   50.5230 C   0  0  0  0  0  0  0  0  0  0  0  0
   65.6720   31.3000   50.6360 O   0  0  0  0  0  0  0  0  0  0  0  0
   64.0470   32.7090   49.6970 N   0  0  0  0  0  0  0  0  0  0  0  0
   63.1520   31.5830   49.3690 C   0  0  0  0  0  0  0  0  0  0  0  0
   62.5430   31.7590   47.9760 C   0  0  0  0  0  0  0  0  0  0  0  0
   61.9940   33.1110   47.8540 N   0  0  0  0  0  0  0  0  0  0  0  0
   60.5730   33.3350   47.9050 C   0  0  0  0  0  0  0  0  0  0  0  0
   60.1120   34.2170   48.6810 O   0  0  0  0  0  0  0  0  0  0  0  0
   59.6400   32.5560   47.0560 C   0  0  0  0  0  0  0  0  0  0  0  0
   59.2740   33.0220   45.7810 C   0  0  0  0  0  0  0  0  0  0  0  0
   58.3940   32.2840   44.9840 C   0  0  0  0  0  0  0  0  0  0  0  0
   57.8650   31.0710   45.4480 C   0  0  0  0  0  0  0  0  0  0  0  0
   56.9340   30.2600   44.5900 C   0  0  0  0  0  0  0  0  0  0  0  0
   57.6140   29.1310   44.0430 O   0  0  0  0  0  0  0  0  0  0  0  0
   58.8120   28.5820   44.5330 C   0  0  0  0  0  0  0  0  0  0  0  0
   59.9890   29.3480   44.6500 C   0  0  0  0  0  0  0  0  0  0  0  0
   61.1460   28.7880   45.1930 C   0  0  0  0  0  0  0  0  0  0  0  0
   61.1460   27.4620   45.6280 C   0  0  0  0  0  0  0  0  0  0  0  0
   59.9900   26.6890   45.5090 C   0  0  0  0  0  0  0  0  0  0  0  0
   58.8270   27.2300   44.9410 C   0  0  0  0  0  0  0  0  0  0  0  0
   57.6480   26.4140   44.8630 N   0  0  0  0  0  0  0  0  0  0  0  0
   56.9050   25.9930   46.0160 C   0  0  0  0  0  0  0  0  0  0  0  0
   57.0130   26.6340   47.0970 O   0  0  0  0  0  0  0  0  0  0  0  0
   55.9690   24.8480   45.9400 C   0  0  0  0  0  0  0  0  0  0  0  0
   56.4720   23.5370   45.8740 C   0  0  0  0  0  0  0  0  0  0  0  0
   55.6000   22.4510   45.8080 C   0  0  0  0  0  0  0  0  0  0  0  0
   54.2230   22.6780   45.7990 C   0  0  0  0  0  0  0  0  0  0  0  0
   53.4220   21.7090   45.7440 O   0  0  0  0  0  0  0  0  0  0  0  0
   53.7460   23.9490   45.8440 N   0  0  0  0  0  0  0  0  0  0  0  0
   54.5710   25.0290   45.9060 C   0  0  0  0  0  0  0  0  0  0  0  0
   54.0120   26.3020   45.9090 O   0  0  0  0  0  0  0  0  0  0  0  0
   58.2090   30.6160   46.7290 C   0  0  0  0  0  0  0  0  0  0  0  0
   59.0880   31.3540   47.5290 C   0  0  0  0  0  0  0  0  0  0  0  0
   62.9270   34.2130   48.0870 C   0  0  0  0  0  0  0  0  0  0  0  0
   63.5390   34.0780   49.4830 C   0  0  0  0  0  0  0  0  0  0  0  0
  1  2  1  0
  2  3  2  0
  2  4  1  0
  4  5  1  0
  5  6  1  0
  6  7  1  0
  7  8  1  0
  8  9  2  0
  8 10  1  0
 10 11  2  0
 11 12  1  0
 12 13  2  0
 13 14  1  0
 14 15  1  0
 15 16  1  0
 16 17  2  0
 17 18  1  0
 18 19  2  0
 19 20  1  0
 20 21  2  0
 21 22  1  0
 22 23  1  0
 23 24  2  0
 23 25  1  0
 25 26  1  0
 26 27  2  0
 27 28  1  0
 28 29  2  0
 28 30  1  0
 30 31  1  0
 31 32  1  0
 13 33  1  0
 33 34  2  0
  7 35  1  0
 35 36  1  0
 36  4  1  0
 34 10  1  0
 21 16  1  0
 31 25  2  0
M  CHG  2  30  -1  32  -1
M  END
>  <UniqueID>  (1488) 
74

>  <SMILES>  (1488) 
CC(=O)N1CCN(C(=O)c2ccc(COc3ccccc3NC(=O)c3ccc(=O)[n-]c3[O-])cc2)CC1

>  <Energy>  (1488) 
76.86740701291717

>  <Genealogy>  (1488) 
CC(=O)N1CCN(C(=O)c2ccc(COc3ccccc3NC(=O)c3ccc(=O)[n-]c3[O-])cc2)CC1 (protonated)
CC(=O)N1CCN(C(=O)c2ccc(COc3ccccc3NC(=O)c3ccc(=O)[n-]c3[O-])cc2)CC1 (3D coordinates assigned)
CC(=O)N1CCN(C(=O)c2ccc(COc3ccccc3NC(=O)c3ccc(=O)[n-]c3[O-])cc2)CC1 (nonaromatic ring conformer: 76.86740701291717 kcal/mol)

>  <smiles>  (1488) 
CC(=O)N1CCN(C(=O)c2ccc(COc3ccccc3NC(=O)c3ccc(=O)[nH]c3O)cc2)CC1

>  <score_type>  (1488) 
oracle

>  <origin>  (1488) 
adg

>  <m_score__min__energy>  (1488) 
-14.710000000000001

>  <m_primary>  (1488) 
energy

$$$$
85:0
     RDKit          3D

 27 29  0  0  0  0  0  0  0  0999 V2000
   57.3000   30.6130   45.6380 O   0  0  0  0  0  0  0  0  0  0  0  0
   58.2460   30.4530   46.4560 C   0  0  0  0  0  0  0  0  0  0  0  0
   58.5700   29.0800   46.9550 C   0  0  0  0  0  0  0  0  0  0  0  0
   57.8240   28.0800   46.1970 N   0  0  0  0  0  0  0  0  0  0  0  0
   58.2620   27.6190   44.9060 C   0  0  0  0  0  0  0  0  0  0  0  0
   59.2160   28.1960   44.3120 O   0  0  0  0  0  0  0  0  0  0  0  0
   57.6540   26.3910   44.3050 C   0  0  0  0  0  0  0  0  0  0  0  0
   57.1730   25.4800   45.3910 C   0  0  0  0  0  0  0  0  0  0  0  0
   57.9880   24.1110   45.9440 S   0  0  0  0  0  0  0  0  0  0  0  0
   56.8390   23.8020   47.1330 C   0  0  0  0  0  0  0  0  0  0  0  0
   56.8910   22.8260   47.9330 O   0  0  0  0  0  0  0  0  0  0  0  0
   55.8450   24.7150   47.1400 N   0  0  0  0  0  0  0  0  0  0  0  0
   56.0350   25.6550   46.1750 C   0  0  0  0  0  0  0  0  0  0  0  0
   55.1490   26.7050   45.9900 O   0  0  0  0  0  0  0  0  0  0  0  0
   58.9690   31.5760   46.9720 N   0  0  0  0  0  0  0  0  0  0  0  0
   59.0390   32.8880   46.3920 C   0  0  0  0  0  0  0  0  0  0  0  0
   58.0970   33.3110   45.4370 C   0  0  0  0  0  0  0  0  0  0  0  0
   58.2150   34.5680   44.8370 C   0  0  0  0  0  0  0  0  0  0  0  0
   59.2790   35.4060   45.1770 C   0  0  0  0  0  0  0  0  0  0  0  0
   60.2350   34.9880   46.1060 C   0  0  0  0  0  0  0  0  0  0  0  0
   60.1260   33.7300   46.7140 C   0  0  0  0  0  0  0  0  0  0  0  0
   61.1410   33.2970   47.6400 N   0  0  0  0  0  0  0  0  0  0  0  0
   61.1090   33.7640   49.0300 C   0  0  0  0  0  0  0  0  0  0  0  0
   62.4690   33.5250   49.6950 C   0  0  0  0  0  0  0  0  0  0  0  0
   63.4970   33.7780   48.7590 O   0  0  0  0  0  0  0  0  0  0  0  0
   63.5520   32.7390   47.7930 C   0  0  0  0  0  0  0  0  0  0  0  0
   62.1660   32.3240   47.2420 C   0  0  0  0  0  0  0  0  0  0  0  0
  1  2  2  0
  2  3  1  0
  3  4  1  0
  4  5  1  0
  5  6  2  0
  5  7  1  0
  7  8  1  0
  8  9  1  0
  9 10  1  0
 10 11  2  0
 10 12  1  0
 12 13  1  0
 13 14  1  0
  2 15  1  0
 15 16  1  0
 16 17  2  0
 17 18  1  0
 18 19  2  0
 19 20  1  0
 20 21  2  0
 21 22  1  0
 22 23  1  0
 23 24  1  0
 24 25  1  0
 25 26  1  0
 26 27  1  0
 13  8  2  0
 21 16  1  0
 27 22  1  0
M  CHG  3  12  -1  14  -1  15  -1
M  END
>  <UniqueID>  (1489) 
78

>  <SMILES>  (1489) 
O=C(CNC(=O)Cc1sc(=O)[n-]c1[O-])[N-]c1ccccc1N1CCOCC1

>  <Energy>  (1489) 
82.3567251644644

>  <Genealogy>  (1489) 
O=C(CNC(=O)Cc1sc(=O)[n-]c1[O-])[N-]c1ccccc1N1CCOCC1 (protonated)
O=C(CNC(=O)Cc1sc(=O)[n-]c1[O-])[N-]c1ccccc1N1CCOCC1 (3D coordinates assigned)
O=C(CNC(=O)Cc1sc(=O)[n-]c1[O-])[N-]c1ccccc1N1CCOCC1 (nonaromatic ring conformer: 82.3567251644644 kcal/mol)

>  <smiles>  (1489) 
O=C(Cc1sc(=O)[nH]c1O)NCC(=O)Nc1ccccc1N1CCOCC1

>  <score_type>  (1489) 
oracle

>  <origin>  (1489) 
adg

>  <m_score__min__energy>  (1489) 
-16.370000000000001

>  <m_primary>  (1489) 
energy

$$$$
87:0
     RDKit          3D

 33 37  0  0  0  0  0  0  0  0999 V2000
   54.7510   31.5290   51.9820 C   0  0  0  0  0  0  0  0  0  0  0  0
   54.4490   30.5990   52.9020 C   0  0  0  0  0  0  0  0  0  0  0  0
   53.1730   30.1170   53.2390 C   0  0  0  0  0  0  0  0  0  0  0  0
   51.9710   30.3100   52.6620 C   0  0  0  0  0  0  0  0  0  0  0  0
   51.7460   30.6870   51.2560 C   0  0  0  0  0  0  0  0  0  0  0  0
   51.7920   29.8430   50.2120 N   0  0  0  0  0  0  0  0  0  0  0  0
   51.3720   30.5770   49.1630 C   0  0  0  0  0  0  0  0  0  0  0  0
   51.2890   30.1190   47.9930 O   0  0  0  0  0  0  0  0  0  0  0  0
   51.0340   31.8460   49.4790 N   0  0  0  0  0  0  0  0  0  0  0  0
   51.2600   31.8930   50.8060 C   0  0  0  0  0  0  0  0  0  0  0  0
   51.0190   33.0130   51.5910 O   0  0  0  0  0  0  0  0  0  0  0  0
   53.3450   29.3100   54.3530 C   0  0  0  0  0  0  0  0  0  0  0  0
   54.6970   29.2810   54.6210 C   0  0  0  0  0  0  0  0  0  0  0  0
   55.3340   28.4920   55.7240 C   0  0  0  0  0  0  0  0  0  0  0  0
   55.3690   30.0520   53.7370 N   0  0  0  0  0  0  0  0  0  0  0  0
   56.7870   30.2860   53.7510 C   0  0  0  0  0  0  0  0  0  0  0  0
   57.4680   30.4310   54.9670 C   0  0  0  0  0  0  0  0  0  0  0  0
   58.8480   30.6390   54.9770 C   0  0  0  0  0  0  0  0  0  0  0  0
   59.5590   30.6920   53.7750 C   0  0  0  0  0  0  0  0  0  0  0  0
   58.8940   30.5300   52.5450 C   0  0  0  0  0  0  0  0  0  0  0  0
   59.6170   30.5880   51.3000 N   0  0  0  0  0  0  0  0  0  0  0  0
   59.2790   29.8190   50.0930 C   0  0  0  0  0  0  0  0  0  0  0  0
   60.2520   30.3270   49.0680 C   0  0  0  0  0  0  0  0  0  0  0  0
   60.3740   29.9430   47.7340 C   0  0  0  0  0  0  0  0  0  0  0  0
   61.3780   30.5380   46.9510 C   0  0  0  0  0  0  0  0  0  0  0  0
   62.2530   31.5060   47.5130 C   0  0  0  0  0  0  0  0  0  0  0  0
   63.2710   32.1200   46.7670 O   0  0  0  0  0  0  0  0  0  0  0  0
   63.7440   33.4440   46.9910 C   0  0  0  0  0  0  0  0  0  0  0  0
   62.1080   31.8710   48.8630 C   0  0  0  0  0  0  0  0  0  0  0  0
   61.0990   31.2650   49.6100 C   0  0  0  0  0  0  0  0  0  0  0  0
   60.7290   31.4320   50.9920 C   0  0  0  0  0  0  0  0  0  0  0  0
   61.3310   32.1610   51.8240 O   0  0  0  0  0  0  0  0  0  0  0  0
   57.5020   30.3360   52.5450 C   0  0  0  0  0  0  0  0  0  0  0  0
  1  2  2  0
  2  3  1  0
  3  4  2  3
  4  5  1  0
  5  6  1  0
  6  7  1  0
  7  8  2  0
  7  9  1  0
  9 10  1  0
 10 11  1  0
  3 12  1  0
 12 13  2  0
 13 14  1  0
 13 15  1  0
 15 16  1  0
 16 17  2  0
 17 18  1  0
 18 19  2  0
 19 20  1  0
 20 21  1  0
 21 22  1  0
 22 23  1  0
 23 24  2  0
 24 25  1  0
 25 26  2  0
 26 27  1  0
 27 28  1  0
 26 29  1  0
 29 30  2  0
 30 31  1  0
 31 32  2  0
 20 33  2  0
 15  2  1  0
 33 16  1  0
 10  5  2  0
 31 21  1  0
 30 23  1  0
M  CHG  2   9  -1  11  -1
M  END
>  <UniqueID>  (1490) 
80

>  <SMILES>  (1490) 
C=c1c(=Cc2[nH]c(=O)[n-]c2[O-])cc(C)n1-c1cccc(N2Cc3ccc(OC)cc3C2=O)c1

>  <Energy>  (1490) 
160.34293107730772

>  <Genealogy>  (1490) 
C=c1c(=Cc2[nH]c(=O)[n-]c2[O-])cc(C)n1-c1cccc(N2Cc3ccc(OC)cc3C2=O)c1 (protonated)
C=c1c(=Cc2[nH]c(=O)[n-]c2[O-])cc(C)n1-c1cccc(N2Cc3ccc(OC)cc3C2=O)c1 (3D coordinates assigned)
C=c1c(=Cc2[nH]c(=O)[n-]c2[O-])cc(C)n1-c1cccc(N2Cc3ccc(OC)cc3C2=O)c1 (nonaromatic ring conformer: 160.34293107730772 kcal/mol)

>  <smiles>  (1490) 
C=c1c(=Cc2[nH]c(=O)[nH]c2O)cc(C)n1-c1cccc(N2Cc3ccc(OC)cc3C2=O)c1

>  <score_type>  (1490) 
oracle

>  <origin>  (1490) 
adg

>  <m_score__min__energy>  (1490) 
-15.460000000000001

>  <m_primary>  (1490) 
energy

$$$$
88:0
     RDKit          3D

 29 31  0  0  0  0  0  0  0  0999 V2000
   58.8930   32.6500   49.7320 C   0  0  0  0  0  0  0  0  0  0  0  0
   58.5540   32.2000   48.4260 O   0  0  0  0  0  0  0  0  0  0  0  0
   58.7030   32.9630   47.2560 C   0  0  0  0  0  0  0  0  0  0  0  0
   59.1640   34.2940   47.2940 C   0  0  0  0  0  0  0  0  0  0  0  0
   59.3020   35.0270   46.1150 C   0  0  0  0  0  0  0  0  0  0  0  0
   58.9770   34.4520   44.8880 C   0  0  0  0  0  0  0  0  0  0  0  0
   58.5140   33.1350   44.8350 C   0  0  0  0  0  0  0  0  0  0  0  0
   58.3790   32.3790   46.0110 C   0  0  0  0  0  0  0  0  0  0  0  0
   57.8600   30.9660   45.9380 C   0  0  0  0  0  0  0  0  0  0  0  0
   56.7710   30.8800   44.9700 N   0  0  0  0  0  0  0  0  0  0  0  0
   56.1200   29.6560   44.6120 C   0  0  0  0  0  0  0  0  0  0  0  0
   54.9710   29.6770   44.0980 O   0  0  0  0  0  0  0  0  0  0  0  0
   56.7960   28.3460   44.8700 C   0  0  0  0  0  0  0  0  0  0  0  0
   55.9030   27.4640   45.6170 N   0  0  0  0  0  0  0  0  0  0  0  0
   56.2780   26.2770   46.3300 C   0  0  0  0  0  0  0  0  0  0  0  0
   55.5520   25.2560   46.2040 O   0  0  0  0  0  0  0  0  0  0  0  0
   57.5690   26.1860   47.1170 C   0  0  0  0  0  0  0  0  0  0  0  0
   58.7800   26.7790   46.3800 C   0  0  0  0  0  0  0  0  0  0  0  0
   59.5170   27.7890   47.2080 C   0  0  0  0  0  0  0  0  0  0  0  0
   59.6230   27.6180   48.5530 N   0  0  0  0  0  0  0  0  0  0  0  0
   60.2970   28.5030   49.3310 C   0  0  0  0  0  0  0  0  0  0  0  0
   60.3750   28.3010   50.5720 O   0  0  0  0  0  0  0  0  0  0  0  0
   60.9030   29.6260   48.7430 C   0  0  0  0  0  0  0  0  0  0  0  0
   61.6210   30.5780   49.4890 C   0  0  0  0  0  0  0  0  0  0  0  0
   62.1970   31.6790   48.8500 C   0  0  0  0  0  0  0  0  0  0  0  0
   62.0640   31.8390   47.4650 C   0  0  0  0  0  0  0  0  0  0  0  0
   61.3550   30.8960   46.7150 C   0  0  0  0  0  0  0  0  0  0  0  0
   60.7740   29.7910   47.3450 C   0  0  0  0  0  0  0  0  0  0  0  0
   60.0890   28.8720   46.6170 N   0  0  0  0  0  0  0  0  0  0  0  0
  1  2  1  0
  2  3  1  0
  3  4  2  0
  4  5  1  0
  5  6  2  0
  6  7  1  0
  7  8  2  0
  8  9  1  0
  9 10  1  0
 10 11  1  0
 11 12  2  0
 11 13  1  0
 13 14  1  0
 14 15  1  0
 15 16  2  0
 15 17  1  0
 17 18  1  0
 18 19  1  0
 19 20  2  0
 20 21  1  0
 21 22  2  0
 21 23  1  0
 23 24  2  0
 24 25  1  0
 25 26  2  0
 26 27  1  0
 27 28  2  0
 28 29  1  0
  8  3  1  0
 29 19  1  0
 28 23  1  0
M  CHG  3  10  -1  14  -1  29  -1
M  END
>  <UniqueID>  (1491) 
81

>  <SMILES>  (1491) 
COc1ccccc1C[N-]C(=O)C[N-]C(=O)CCc1nc(=O)c2ccccc2[n-]1

>  <Energy>  (1491) 
47.47932502825753

>  <Genealogy>  (1491) 
COc1ccccc1C[N-]C(=O)C[N-]C(=O)CCc1nc(=O)c2ccccc2[n-]1 (protonated)
COc1ccccc1C[N-]C(=O)C[N-]C(=O)CCc1nc(=O)c2ccccc2[n-]1 (3D coordinates assigned)
COc1ccccc1C[N-]C(=O)C[N-]C(=O)CCc1nc(=O)c2ccccc2[n-]1 (optimized conformer: 47.47932502825753 kcal/mol)

>  <smiles>  (1491) 
COc1ccccc1CNC(=O)CNC(=O)CCc1nc(=O)c2ccccc2[nH]1

>  <score_type>  (1491) 
oracle

>  <origin>  (1491) 
adg

>  <m_score__min__energy>  (1491) 
-14.199999999999999

>  <m_primary>  (1491) 
energy

$$$$
9:0
     RDKit          3D

 31 33  0  0  0  0  0  0  0  0999 V2000
   51.7210   20.8380   52.3170 C   0  0  0  0  0  0  0  0  0  0  0  0
   51.6150   21.1030   50.9220 O   0  0  0  0  0  0  0  0  0  0  0  0
   52.6710   21.5660   50.1230 C   0  0  0  0  0  0  0  0  0  0  0  0
   52.4700   22.0600   48.8200 C   0  0  0  0  0  0  0  0  0  0  0  0
   53.5530   22.5350   48.0730 C   0  0  0  0  0  0  0  0  0  0  0  0
   54.8460   22.5170   48.6120 C   0  0  0  0  0  0  0  0  0  0  0  0
   56.1840   23.1960   47.6920 S   0  0  0  0  0  0  0  0  0  0  0  0
   57.0300   22.0770   47.1540 O   0  0  0  0  0  0  0  0  0  0  0  0
   57.0400   24.0650   48.5720 O   0  0  0  0  0  0  0  0  0  0  0  0
   55.5520   24.1230   46.3660 N   0  0  0  0  0  0  0  0  0  0  0  0
   56.5650   25.0530   45.8700 C   0  0  0  0  0  0  0  0  0  0  0  0
   56.0780   26.4660   46.0230 C   0  0  0  0  0  0  0  0  0  0  0  0
   54.8730   26.6550   46.3480 O   0  0  0  0  0  0  0  0  0  0  0  0
   56.9690   27.6410   45.8110 C   0  0  0  0  0  0  0  0  0  0  0  0
   56.5030   28.8330   45.2210 C   0  0  0  0  0  0  0  0  0  0  0  0
   55.1570   28.9620   44.8960 O   0  0  0  0  0  0  0  0  0  0  0  0
   57.3610   29.8800   44.9910 N   0  0  0  0  0  0  0  0  0  0  0  0
   56.8540   31.1080   44.3470 C   0  0  0  0  0  0  0  0  0  0  0  0
   57.5030   32.3300   44.9430 C   0  0  0  0  0  0  0  0  0  0  0  0
   58.2540   33.1990   44.1340 C   0  0  0  0  0  0  0  0  0  0  0  0
   58.8680   34.3260   44.6890 C   0  0  0  0  0  0  0  0  0  0  0  0
   58.7390   34.5930   46.0550 C   0  0  0  0  0  0  0  0  0  0  0  0
   57.9960   33.7330   46.8670 C   0  0  0  0  0  0  0  0  0  0  0  0
   57.3810   32.6050   46.3170 C   0  0  0  0  0  0  0  0  0  0  0  0
   58.6710   29.7840   45.3840 C   0  0  0  0  0  0  0  0  0  0  0  0
   59.4750   30.7370   45.2010 O   0  0  0  0  0  0  0  0  0  0  0  0
   59.1250   28.6530   45.9780 N   0  0  0  0  0  0  0  0  0  0  0  0
   58.3180   27.5880   46.1970 C   0  0  0  0  0  0  0  0  0  0  0  0
   58.7970   26.5550   46.7350 O   0  0  0  0  0  0  0  0  0  0  0  0
   55.0490   22.0170   49.9050 C   0  0  0  0  0  0  0  0  0  0  0  0
   53.9670   21.5430   50.6530 C   0  0  0  0  0  0  0  0  0  0  0  0
  1  2  1  0
  2  3  1  0
  3  4  2  0
  4  5  1  0
  5  6  2  0
  6  7  1  0
  7  8  2  0
  7  9  2  0
  7 10  1  0
 10 11  1  0
 11 12  1  0
 12 13  2  0
 12 14  1  0
 14 15  2  0
 15 16  1  0
 15 17  1  0
 17 18  1  0
 18 19  1  0
 19 20  2  0
 20 21  1  0
 21 22  2  0
 22 23  1  0
 23 24  2  0
 17 25  1  0
 25 26  2  0
 25 27  1  0
 27 28  1  0
 28 29  2  0
  6 30  1  0
 30 31  2  0
 31  3  1  0
 28 14  1  0
 24 19  1  0
M  CHG  3  10  -1  16  -1  27  -1
M  END
>  <UniqueID>  (1492) 
7

>  <SMILES>  (1492) 
COc1ccc(S(=O)(=O)[N-]CC(=O)c2c([O-])n(Cc3ccccc3)c(=O)[n-]c2=O)cc1

>  <Energy>  (1492) 
53.06543512574123

>  <Genealogy>  (1492) 
COc1ccc(S(=O)(=O)[N-]CC(=O)c2c([O-])n(Cc3ccccc3)c(=O)[n-]c2=O)cc1 (protonated)
COc1ccc(S(=O)(=O)[N-]CC(=O)c2c([O-])n(Cc3ccccc3)c(=O)[n-]c2=O)cc1 (3D coordinates assigned)
COc1ccc(S(=O)(=O)[N-]CC(=O)c2c([O-])n(Cc3ccccc3)c(=O)[n-]c2=O)cc1 (optimized conformer: 53.06543512574123 kcal/mol)

>  <smiles>  (1492) 
COc1ccc(S(=O)(=O)NCC(=O)c2c(O)n(Cc3ccccc3)c(=O)[nH]c2=O)cc1

>  <score_type>  (1492) 
oracle

>  <origin>  (1492) 
adg

>  <m_score__min__energy>  (1492) 
-15.41

>  <m_primary>  (1492) 
energy

$$$$
14:0
     RDKit          3D

 30 32  0  0  0  0  0  0  0  0999 V2000
   55.2280   29.3330   44.8720 N   0  0  0  0  0  0  0  0  0  0  0  0
   56.4870   29.8720   44.4730 C   0  0  0  0  0  0  0  0  0  0  0  0
   56.7140   30.0560   43.2460 O   0  0  0  0  0  0  0  0  0  0  0  0
   57.5270   30.1680   45.4920 C   0  0  0  0  0  0  0  0  0  0  0  0
   58.0630   31.4660   45.5170 C   0  0  0  0  0  0  0  0  0  0  0  0
   58.9920   31.8360   46.4820 C   0  0  0  0  0  0  0  0  0  0  0  0
   59.4150   30.9170   47.4340 C   0  0  0  0  0  0  0  0  0  0  0  0
   58.9400   29.5940   47.4220 C   0  0  0  0  0  0  0  0  0  0  0  0
   59.4650   28.6390   48.4750 C   0  0  0  0  0  0  0  0  0  0  0  0
   59.7890   29.3500   49.7150 N   0  0  0  0  0  0  0  0  0  0  0  0
   59.1010   30.2840   50.3090 C   0  0  0  0  0  0  0  0  0  0  0  0
   57.8920   29.9530   50.8400 N   0  0  0  0  0  0  0  0  0  0  0  0
   57.0930   30.8510   51.4850 C   0  0  0  0  0  0  0  0  0  0  0  0
   55.7930   30.3960   52.0400 C   0  0  0  0  0  0  0  0  0  0  0  0
   55.7450   29.3000   52.9150 C   0  0  0  0  0  0  0  0  0  0  0  0
   54.5580   28.8640   53.4080 N   0  0  0  0  0  0  0  0  0  0  0  0
   53.3740   29.4610   53.0950 C   0  0  0  0  0  0  0  0  0  0  0  0
   52.2550   28.9740   53.5450 N   0  0  0  0  0  0  0  0  0  0  0  0
   51.4040   28.0530   52.8000 C   0  0  0  0  0  0  0  0  0  0  0  0
   53.3700   30.5850   52.2420 C   0  0  0  0  0  0  0  0  0  0  0  0
   52.1610   31.2530   51.8530 N   0  0  0  0  0  0  0  0  0  0  0  0
   51.6240   31.2860   50.5260 C   0  0  0  0  0  0  0  0  0  0  0  0
   51.0200   32.3080   50.1020 O   0  0  0  0  0  0  0  0  0  0  0  0
   51.7810   30.0980   49.6380 C   0  0  0  0  0  0  0  0  0  0  0  0
   54.5820   31.0210   51.6950 C   0  0  0  0  0  0  0  0  0  0  0  0
   57.5340   32.1770   51.6220 C   0  0  0  0  0  0  0  0  0  0  0  0
   58.7640   32.5510   51.0820 C   0  0  0  0  0  0  0  0  0  0  0  0
   59.5520   31.6120   50.4200 C   0  0  0  0  0  0  0  0  0  0  0  0
   57.9830   29.2030   46.4390 C   0  0  0  0  0  0  0  0  0  0  0  0
   57.4250   27.7950   46.4090 C   0  0  0  0  0  0  0  0  0  0  0  0
  1  2  1  0
  2  3  2  0
  2  4  1  0
  4  5  2  0
  5  6  1  0
  6  7  2  0
  7  8  1  0
  8  9  1  0
  9 10  1  0
 10 11  2  3
 11 12  1  0
 12 13  1  0
 13 14  1  0
 14 15  2  0
 15 16  1  0
 16 17  1  0
 17 18  2  0
 18 19  1  0
 17 20  1  0
 20 21  1  0
 21 22  1  0
 22 23  2  0
 22 24  1  0
 20 25  2  0
 13 26  2  0
 26 27  1  0
 27 28  2  0
  8 29  2  0
 29 30  1  0
 29  4  1  0
 28 11  1  0
 25 14  1  0
M  CHG  4   1  -1  12  -1  16  -1  21  -1
M  END
>  <UniqueID>  (1493) 
11

>  <SMILES>  (1493) 
C/N=c1\[n-]cc(-c2cccc(=NCc3cccc(C([NH-])=O)c3C)[n-]2)cc1[N-]C(C)=O

>  <Energy>  (1493) 
70.79276528820458

>  <Genealogy>  (1493) 
CN=c1[n-]cc(-c2cccc(=NCc3cccc(C([NH-])=O)c3C)[n-]2)cc1[N-]C(C)=O (protonated)
C/N=c1\[n-]cc(-c2cccc(=NCc3cccc(C([NH-])=O)c3C)[n-]2)cc1[N-]C(C)=O (cis-trans isomerization)
C/N=c1\[n-]cc(-c2cccc(=NCc3cccc(C([NH-])=O)c3C)[n-]2)cc1[N-]C(C)=O (3D coordinates assigned)
C/N=c1\[n-]cc(-c2cccc(=NCc3cccc(C([NH-])=O)c3C)[n-]2)cc1[N-]C(C)=O (optimized conformer: 70.79276528820458 kcal/mol)

>  <smiles>  (1493) 
CN=c1[nH]cc(-c2cccc(=NCc3cccc(C(N)=O)c3C)[nH]2)cc1NC(C)=O

>  <score_type>  (1493) 
oracle

>  <origin>  (1493) 
adg

>  <m_score__min__energy>  (1493) 
-15.300000000000001

>  <m_primary>  (1493) 
energy

$$$$
21:0
     RDKit          3D

 31 34  0  0  0  0  0  0  0  0999 V2000
   57.6950   30.1900   43.8640 C   0  0  0  0  0  0  0  0  0  0  0  0
   58.0290   29.8730   45.1260 C   0  0  0  0  0  0  0  0  0  0  0  0
   57.9120   28.6220   45.7510 C   0  0  0  0  0  0  0  0  0  0  0  0
   57.6170   27.4080   45.2480 C   0  0  0  0  0  0  0  0  0  0  0  0
   57.3220   26.1990   46.0410 C   0  0  0  0  0  0  0  0  0  0  0  0
   55.9980   25.8890   46.3980 C   0  0  0  0  0  0  0  0  0  0  0  0
   54.9420   26.7010   45.9940 O   0  0  0  0  0  0  0  0  0  0  0  0
   55.7370   24.7790   47.1360 N   0  0  0  0  0  0  0  0  0  0  0  0
   56.7430   23.9650   47.5530 C   0  0  0  0  0  0  0  0  0  0  0  0
   56.4780   22.9360   48.2270 O   0  0  0  0  0  0  0  0  0  0  0  0
   58.0350   24.2610   47.2480 N   0  0  0  0  0  0  0  0  0  0  0  0
   58.3480   25.3600   46.5150 C   0  0  0  0  0  0  0  0  0  0  0  0
   59.5560   25.6190   46.2710 O   0  0  0  0  0  0  0  0  0  0  0  0
   58.2010   28.8270   47.0890 C   0  0  0  0  0  0  0  0  0  0  0  0
   58.5250   30.1570   47.2290 C   0  0  0  0  0  0  0  0  0  0  0  0
   58.9010   30.8080   48.5290 C   0  0  0  0  0  0  0  0  0  0  0  0
   58.4570   30.7860   46.0340 N   0  0  0  0  0  0  0  0  0  0  0  0
   58.6560   32.1990   45.8250 C   0  0  0  0  0  0  0  0  0  0  0  0
   57.6030   32.9680   45.3080 C   0  0  0  0  0  0  0  0  0  0  0  0
   57.7340   34.3520   45.1760 C   0  0  0  0  0  0  0  0  0  0  0  0
   58.9100   34.9850   45.5780 C   0  0  0  0  0  0  0  0  0  0  0  0
   59.9650   34.2350   46.1020 C   0  0  0  0  0  0  0  0  0  0  0  0
   59.8570   32.8390   46.2150 C   0  0  0  0  0  0  0  0  0  0  0  0
   61.0050   32.0760   46.7490 C   0  0  0  0  0  0  0  0  0  0  0  0
   61.1430   30.8670   46.4250 O   0  0  0  0  0  0  0  0  0  0  0  0
   61.9400   32.6750   47.6630 N   0  0  0  0  0  0  0  0  0  0  0  0
   61.4790   33.6230   48.6810 C   0  0  0  0  0  0  0  0  0  0  0  0
   62.3730   33.5310   49.9220 C   0  0  0  0  0  0  0  0  0  0  0  0
   63.7390   33.6450   49.5650 O   0  0  0  0  0  0  0  0  0  0  0  0
   64.1210   32.5310   48.7800 C   0  0  0  0  0  0  0  0  0  0  0  0
   63.3790   32.5240   47.4370 C   0  0  0  0  0  0  0  0  0  0  0  0
  1  2  2  0
  2  3  1  0
  3  4  2  3
  4  5  1  0
  5  6  2  0
  6  7  1  0
  6  8  1  0
  8  9  1  0
  9 10  2  0
  9 11  1  0
 11 12  1  0
 12 13  2  0
  3 14  1  0
 14 15  2  0
 15 16  1  0
 15 17  1  0
 17 18  1  0
 18 19  2  0
 19 20  1  0
 20 21  2  0
 21 22  1  0
 22 23  2  0
 23 24  1  0
 24 25  2  0
 24 26  1  0
 26 27  1  0
 27 28  1  0
 28 29  1  0
 29 30  1  0
 30 31  1  0
 17  2  1  0
 23 18  1  0
 31 26  1  0
 12  5  1  0
M  CHG  3   7  -1   8  -1  11  -1
M  END
>  <UniqueID>  (1494) 
16

>  <SMILES>  (1494) 
C=c1c(=Cc2c([O-])[n-]c(=O)[n-]c2=O)cc(C)n1-c1ccccc1C(=O)N1CCOCC1

>  <Energy>  (1494) 
108.63505151536448

>  <Genealogy>  (1494) 
C=c1c(=Cc2c([O-])[n-]c(=O)[n-]c2=O)cc(C)n1-c1ccccc1C(=O)N1CCOCC1 (protonated)
C=c1c(=Cc2c([O-])[n-]c(=O)[n-]c2=O)cc(C)n1-c1ccccc1C(=O)N1CCOCC1 (3D coordinates assigned)
C=c1c(=Cc2c([O-])[n-]c(=O)[n-]c2=O)cc(C)n1-c1ccccc1C(=O)N1CCOCC1 (nonaromatic ring conformer: 108.63505151536448 kcal/mol)

>  <smiles>  (1494) 
C=c1c(=Cc2c(O)[nH]c(=O)[nH]c2=O)cc(C)n1-c1ccccc1C(=O)N1CCOCC1

>  <score_type>  (1494) 
oracle

>  <origin>  (1494) 
adg

>  <m_score__min__energy>  (1494) 
-16.789999999999999

>  <m_primary>  (1494) 
energy

$$$$
39:0
     RDKit          3D

 33 36  0  0  0  0  0  0  0  0999 V2000
   59.6400   29.9200   46.8730 C   0  0  0  0  0  0  0  0  0  0  0  0
   58.8830   30.7380   46.1250 C   0  0  0  0  0  0  0  0  0  0  0  0
   58.1860   30.4220   44.9450 C   0  0  0  0  0  0  0  0  0  0  0  0
   57.9650   29.2420   44.3340 C   0  0  0  0  0  0  0  0  0  0  0  0
   57.4030   28.0360   44.9730 C   0  0  0  0  0  0  0  0  0  0  0  0
   56.0320   27.9580   45.2520 C   0  0  0  0  0  0  0  0  0  0  0  0
   55.1740   28.9910   44.8880 O   0  0  0  0  0  0  0  0  0  0  0  0
   55.5290   26.8620   45.8770 N   0  0  0  0  0  0  0  0  0  0  0  0
   56.3350   25.8380   46.2540 C   0  0  0  0  0  0  0  0  0  0  0  0
   55.8460   24.8300   46.8270 O   0  0  0  0  0  0  0  0  0  0  0  0
   57.6720   25.9020   46.0190 N   0  0  0  0  0  0  0  0  0  0  0  0
   58.2230   26.9760   45.3980 C   0  0  0  0  0  0  0  0  0  0  0  0
   59.4700   27.0120   45.2150 O   0  0  0  0  0  0  0  0  0  0  0  0
   57.6920   31.6230   44.4550 C   0  0  0  0  0  0  0  0  0  0  0  0
   58.0470   32.6010   45.3590 C   0  0  0  0  0  0  0  0  0  0  0  0
   57.7160   34.0560   45.2240 C   0  0  0  0  0  0  0  0  0  0  0  0
   58.7730   32.0680   46.3640 N   0  0  0  0  0  0  0  0  0  0  0  0
   59.3280   32.7970   47.4710 C   0  0  0  0  0  0  0  0  0  0  0  0
   58.7680   32.6390   48.7460 C   0  0  0  0  0  0  0  0  0  0  0  0
   59.2800   33.3450   49.8450 C   0  0  0  0  0  0  0  0  0  0  0  0
   58.7070   33.1710   51.1550 N   0  0  0  0  0  0  0  0  0  0  0  0
   57.5770   32.2590   51.3610 C   0  0  0  0  0  0  0  0  0  0  0  0
   57.9290   31.2490   52.4560 C   0  0  0  0  0  0  0  0  0  0  0  0
   58.5130   31.9120   53.6370 N   0  0  0  0  0  0  0  0  0  0  0  0
   58.7770   31.1470   54.8340 C   0  0  0  0  0  0  0  0  0  0  0  0
   58.7380   29.6480   54.8270 C   0  0  0  0  0  0  0  0  0  0  0  0
   59.0350   31.7380   55.9180 O   0  0  0  0  0  0  0  0  0  0  0  0
   58.7030   33.3720   53.6360 C   0  0  0  0  0  0  0  0  0  0  0  0
   59.3260   33.8340   52.3110 C   0  0  0  0  0  0  0  0  0  0  0  0
   60.3710   34.2080   49.6560 C   0  0  0  0  0  0  0  0  0  0  0  0
   60.9360   34.3650   48.3880 C   0  0  0  0  0  0  0  0  0  0  0  0
   60.4260   33.6620   47.2930 C   0  0  0  0  0  0  0  0  0  0  0  0
   61.0300   33.8260   46.0460 O   0  0  0  0  0  0  0  0  0  0  0  0
  1  2  2  0
  2  3  1  0
  3  4  2  3
  4  5  1  0
  5  6  2  0
  6  7  1  0
  6  8  1  0
  8  9  1  0
  9 10  2  0
  9 11  1  0
 11 12  1  0
 12 13  2  0
  3 14  1  0
 14 15  2  0
 15 16  1  0
 15 17  1  0
 17 18  1  0
 18 19  2  0
 19 20  1  0
 20 21  1  0
 21 22  1  0
 22 23  1  0
 23 24  1  0
 24 25  1  0
 25 26  1  0
 25 27  2  0
 24 28  1  0
 28 29  1  0
 20 30  2  0
 30 31  1  0
 31 32  2  0
 32 33  1  0
 17  2  1  0
 32 18  1  0
 12  5  1  0
 29 21  1  0
M  CHG  3   7  -1   8  -1  11  -1
M  END
>  <UniqueID>  (1495) 
33

>  <SMILES>  (1495) 
C=c1c(=Cc2c([O-])[n-]c(=O)[n-]c2=O)cc(C)n1-c1cc(N2CCN(C(C)=O)CC2)ccc1O

>  <Energy>  (1495) 
110.99056816205434

>  <Genealogy>  (1495) 
C=c1c(=Cc2c([O-])[n-]c(=O)[n-]c2=O)cc(C)n1-c1cc(N2CCN(C(C)=O)CC2)ccc1O (protonated)
C=c1c(=Cc2c([O-])[n-]c(=O)[n-]c2=O)cc(C)n1-c1cc(N2CCN(C(C)=O)CC2)ccc1O (3D coordinates assigned)
C=c1c(=Cc2c([O-])[n-]c(=O)[n-]c2=O)cc(C)n1-c1cc(N2CCN(C(C)=O)CC2)ccc1O (nonaromatic ring conformer: 110.99056816205434 kcal/mol)

>  <smiles>  (1495) 
C=c1c(=Cc2c(O)[nH]c(=O)[nH]c2=O)cc(C)n1-c1cc(N2CCN(C(C)=O)CC2)ccc1O

>  <score_type>  (1495) 
oracle

>  <origin>  (1495) 
adg

>  <m_score__min__energy>  (1495) 
-17.059999999999999

>  <m_primary>  (1495) 
energy

$$$$
42:0
     RDKit          3D

 27 29  0  0  0  0  0  0  0  0999 V2000
   56.8390   30.5510   43.3330 C   0  0  0  0  0  0  0  0  0  0  0  0
   57.3150   31.0040   44.5050 C   0  0  0  0  0  0  0  0  0  0  0  0
   57.0370   32.2970   44.8030 N   0  0  0  0  0  0  0  0  0  0  0  0
   57.4880   32.9070   45.9200 C   0  0  0  0  0  0  0  0  0  0  0  0
   57.1780   34.1120   46.1210 O   0  0  0  0  0  0  0  0  0  0  0  0
   58.2640   32.2230   46.8130 N   0  0  0  0  0  0  0  0  0  0  0  0
   58.7330   32.8940   48.0430 C   0  0  0  0  0  0  0  0  0  0  0  0
   59.5230   34.1580   47.6920 C   0  0  0  0  0  0  0  0  0  0  0  0
   61.0030   33.9070   47.8020 C   0  0  0  0  0  0  0  0  0  0  0  0
   61.7770   33.7120   46.6450 C   0  0  0  0  0  0  0  0  0  0  0  0
   63.1450   33.4460   46.7510 C   0  0  0  0  0  0  0  0  0  0  0  0
   63.7480   33.3630   48.0090 C   0  0  0  0  0  0  0  0  0  0  0  0
   62.9810   33.5430   49.1650 C   0  0  0  0  0  0  0  0  0  0  0  0
   61.6130   33.8090   49.0640 C   0  0  0  0  0  0  0  0  0  0  0  0
   58.5430   30.8950   46.6020 C   0  0  0  0  0  0  0  0  0  0  0  0
   59.1640   30.2570   47.4960 O   0  0  0  0  0  0  0  0  0  0  0  0
   58.1030   30.2320   45.4150 C   0  0  0  0  0  0  0  0  0  0  0  0
   58.3820   28.9150   45.1800 C   0  0  0  0  0  0  0  0  0  0  0  0
   57.6590   27.7570   45.7520 C   0  0  0  0  0  0  0  0  0  0  0  0
   56.2660   27.6580   45.6250 C   0  0  0  0  0  0  0  0  0  0  0  0
   55.5390   28.6670   45.0050 O   0  0  0  0  0  0  0  0  0  0  0  0
   55.6160   26.5720   46.1170 N   0  0  0  0  0  0  0  0  0  0  0  0
   56.2930   25.5640   46.7230 C   0  0  0  0  0  0  0  0  0  0  0  0
   55.6680   24.5700   47.1750 O   0  0  0  0  0  0  0  0  0  0  0  0
   57.6450   25.6240   46.8360 N   0  0  0  0  0  0  0  0  0  0  0  0
   58.3410   26.6880   46.3590 C   0  0  0  0  0  0  0  0  0  0  0  0
   59.5970   26.7030   46.4630 O   0  0  0  0  0  0  0  0  0  0  0  0
  1  2  2  0
  2  3  1  0
  3  4  1  0
  4  5  2  0
  4  6  1  0
  6  7  1  0
  7  8  1  0
  8  9  1  0
  9 10  2  0
 10 11  1  0
 11 12  2  0
 12 13  1  0
 13 14  2  0
  6 15  1  0
 15 16  2  0
 15 17  1  0
 17 18  2  0
 18 19  1  0
 19 20  2  0
 20 21  1  0
 20 22  1  0
 22 23  1  0
 23 24  2  0
 23 25  1  0
 25 26  1  0
 26 27  2  0
 17  2  1  0
 26 19  1  0
 14  9  1  0
M  CHG  4   3  -1  21  -1  22  -1  25  -1
M  END
>  <UniqueID>  (1496) 
35

>  <SMILES>  (1496) 
C=c1[n-]c(=O)n(CCc2ccccc2)c(=O)/c1=C\c1c([O-])[n-]c(=O)[n-]c1=O

>  <Energy>  (1496) 
66.83805626181044

>  <Genealogy>  (1496) 
C=c1[n-]c(=O)n(CCc2ccccc2)c(=O)c1=Cc1c([O-])[n-]c(=O)[n-]c1=O (protonated)
C=c1[n-]c(=O)n(CCc2ccccc2)c(=O)/c1=C\c1c([O-])[n-]c(=O)[n-]c1=O (cis-trans isomerization)
C=c1[n-]c(=O)n(CCc2ccccc2)c(=O)/c1=C\c1c([O-])[n-]c(=O)[n-]c1=O (3D coordinates assigned)
C=c1[n-]c(=O)n(CCc2ccccc2)c(=O)/c1=C\c1c([O-])[n-]c(=O)[n-]c1=O (optimized conformer: 66.83805626181044 kcal/mol)

>  <smiles>  (1496) 
C=c1[nH]c(=O)n(CCc2ccccc2)c(=O)c1=Cc1c(O)[nH]c(=O)[nH]c1=O

>  <score_type>  (1496) 
oracle

>  <origin>  (1496) 
adg

>  <m_score__min__energy>  (1496) 
-17.57

>  <m_primary>  (1496) 
energy

$$$$
43:0
     RDKit          3D

 27 30  0  0  0  0  0  0  0  0999 V2000
   55.1790   31.2030   52.6870 C   0  0  0  0  0  0  0  0  0  0  0  0
   54.5340   30.1950   53.2950 C   0  0  0  0  0  0  0  0  0  0  0  0
   53.1660   30.1260   53.6030 C   0  0  0  0  0  0  0  0  0  0  0  0
   52.1340   30.9030   53.2210 C   0  0  0  0  0  0  0  0  0  0  0  0
   51.6490   31.0710   51.8430 C   0  0  0  0  0  0  0  0  0  0  0  0
   51.9090   30.2000   50.8530 N   0  0  0  0  0  0  0  0  0  0  0  0
   51.3930   30.8050   49.7600 C   0  0  0  0  0  0  0  0  0  0  0  0
   51.4270   30.2810   48.6170 O   0  0  0  0  0  0  0  0  0  0  0  0
   50.8500   32.0200   49.9880 N   0  0  0  0  0  0  0  0  0  0  0  0
   51.0340   32.1810   51.3080 C   0  0  0  0  0  0  0  0  0  0  0  0
   50.6730   33.3280   52.0030 O   0  0  0  0  0  0  0  0  0  0  0  0
   53.0100   29.0280   54.4330 C   0  0  0  0  0  0  0  0  0  0  0  0
   54.2480   28.4320   54.5450 C   0  0  0  0  0  0  0  0  0  0  0  0
   54.5250   27.1930   55.3420 C   0  0  0  0  0  0  0  0  0  0  0  0
   55.1740   29.1360   53.8570 N   0  0  0  0  0  0  0  0  0  0  0  0
   56.5760   28.8240   53.7730 C   0  0  0  0  0  0  0  0  0  0  0  0
   57.0040   27.4890   53.7390 C   0  0  0  0  0  0  0  0  0  0  0  0
   58.3660   27.1880   53.6460 C   0  0  0  0  0  0  0  0  0  0  0  0
   59.3180   28.2190   53.5850 C   0  0  0  0  0  0  0  0  0  0  0  0
   60.7890   27.8880   53.4740 C   0  0  0  0  0  0  0  0  0  0  0  0
   61.1920   27.6250   52.0700 N   0  0  0  0  0  0  0  0  0  0  0  0
   62.6420   27.7910   51.8640 C   0  0  0  0  0  0  0  0  0  0  0  0
   63.2980   26.4350   52.0890 C   0  0  0  0  0  0  0  0  0  0  0  0
   62.1730   25.4190   51.9970 C   0  0  0  0  0  0  0  0  0  0  0  0
   60.9190   26.2290   51.6950 C   0  0  0  0  0  0  0  0  0  0  0  0
   58.8870   29.5540   53.6240 C   0  0  0  0  0  0  0  0  0  0  0  0
   57.5250   29.8540   53.7150 C   0  0  0  0  0  0  0  0  0  0  0  0
  1  2  2  0
  2  3  1  0
  3  4  2  0
  4  5  1  0
  5  6  1  0
  6  7  1  0
  7  8  2  0
  7  9  1  0
  9 10  1  0
 10 11  1  0
  3 12  1  0
 12 13  2  0
 13 14  1  0
 13 15  1  0
 15 16  1  0
 16 17  2  0
 17 18  1  0
 18 19  2  0
 19 20  1  0
 20 21  1  0
 21 22  1  0
 22 23  1  0
 23 24  1  0
 24 25  1  0
 19 26  1  0
 26 27  2  0
 15  2  1  0
 27 16  1  0
 10  5  2  0
 25 21  1  0
M  CHG  4   6  -1   9  -1  11  -1  21   1
M  END
>  <UniqueID>  (1497) 
36

>  <SMILES>  (1497) 
C=c1/c(=C\c2[n-]c(=O)[n-]c2[O-])cc(C)n1-c1ccc(C[NH+]2CCCC2)cc1

>  <Energy>  (1497) 
131.30169463726736

>  <Genealogy>  (1497) 
C=c1c(=Cc2[n-]c(=O)[n-]c2[O-])cc(C)n1-c1ccc(C[NH+]2CCCC2)cc1 (protonated)
C=c1/c(=C\c2[n-]c(=O)[n-]c2[O-])cc(C)n1-c1ccc(C[NH+]2CCCC2)cc1 (cis-trans isomerization)
C=c1/c(=C\c2[n-]c(=O)[n-]c2[O-])cc(C)n1-c1ccc(C[NH+]2CCCC2)cc1 (3D coordinates assigned)
C=c1/c(=C\c2[n-]c(=O)[n-]c2[O-])cc(C)n1-c1ccc(C[NH+]2CCCC2)cc1 (nonaromatic ring conformer: 131.30169463726736 kcal/mol)

>  <smiles>  (1497) 
C=c1c(=Cc2[nH]c(=O)[nH]c2O)cc(C)n1-c1ccc(CN2CCCC2)cc1

>  <score_type>  (1497) 
oracle

>  <origin>  (1497) 
adg

>  <m_score__min__energy>  (1497) 
-14.5

>  <m_primary>  (1497) 
energy

$$$$
48:0
     RDKit          3D

 28 31  0  0  0  0  0  0  0  0999 V2000
   59.6190   27.6380   47.1260 C   0  0  0  0  0  0  0  0  0  0  0  0
   59.0620   28.4750   46.2370 C   0  0  0  0  0  0  0  0  0  0  0  0
   58.0900   28.1610   45.2730 C   0  0  0  0  0  0  0  0  0  0  0  0
   57.6230   26.9730   44.8430 C   0  0  0  0  0  0  0  0  0  0  0  0
   57.0860   25.9030   45.6980 C   0  0  0  0  0  0  0  0  0  0  0  0
   57.8390   24.9190   46.2190 N   0  0  0  0  0  0  0  0  0  0  0  0
   56.9780   24.2580   47.0220 C   0  0  0  0  0  0  0  0  0  0  0  0
   57.3130   23.2400   47.6840 O   0  0  0  0  0  0  0  0  0  0  0  0
   55.7330   24.7780   47.0700 N   0  0  0  0  0  0  0  0  0  0  0  0
   55.8220   25.8280   46.2380 C   0  0  0  0  0  0  0  0  0  0  0  0
   54.7790   26.7160   46.0020 O   0  0  0  0  0  0  0  0  0  0  0  0
   57.6420   29.3700   44.7670 C   0  0  0  0  0  0  0  0  0  0  0  0
   58.3920   30.3600   45.3670 C   0  0  0  0  0  0  0  0  0  0  0  0
   58.2490   31.8240   45.0820 C   0  0  0  0  0  0  0  0  0  0  0  0
   59.2530   29.8200   46.2610 N   0  0  0  0  0  0  0  0  0  0  0  0
   60.1760   30.5530   47.0870 C   0  0  0  0  0  0  0  0  0  0  0  0
   59.7370   31.1690   48.2630 C   0  0  0  0  0  0  0  0  0  0  0  0
   60.6380   31.8720   49.0610 C   0  0  0  0  0  0  0  0  0  0  0  0
   61.9900   31.9530   48.6820 C   0  0  0  0  0  0  0  0  0  0  0  0
   62.9390   32.6840   49.4910 N   0  0  0  0  0  0  0  0  0  0  0  0
   64.1830   32.0520   49.9510 C   0  0  0  0  0  0  0  0  0  0  0  0
   65.2760   33.1130   50.1420 C   0  0  0  0  0  0  0  0  0  0  0  0
   64.8680   34.2270   51.0380 N   0  0  0  0  0  0  0  0  0  0  0  0
   65.5210   34.1200   52.3520 C   0  0  0  0  0  0  0  0  0  0  0  0
   63.4050   34.3870   51.2040 C   0  0  0  0  0  0  0  0  0  0  0  0
   62.6420   34.0570   49.9170 C   0  0  0  0  0  0  0  0  0  0  0  0
   62.3950   31.3420   47.5260 N   0  0  0  0  0  0  0  0  0  0  0  0
   61.5270   30.6540   46.7360 C   0  0  0  0  0  0  0  0  0  0  0  0
  1  2  2  0
  2  3  1  0
  3  4  2  0
  4  5  1  0
  5  6  1  0
  6  7  1  0
  7  8  2  0
  7  9  1  0
  9 10  1  0
 10 11  1  0
  3 12  1  0
 12 13  2  0
 13 14  1  0
 13 15  1  0
 15 16  1  0
 16 17  2  0
 17 18  1  0
 18 19  2  0
 19 20  1  0
 20 21  1  0
 21 22  1  0
 22 23  1  0
 23 24  1  0
 23 25  1  0
 25 26  1  0
 19 27  1  0
 27 28  2  0
 15  2  1  0
 28 16  1  0
 10  5  2  0
 26 20  1  0
M  CHG  4   6  -1   9  -1  11  -1  27   1
M  END
>  <UniqueID>  (1498) 
39

>  <SMILES>  (1498) 
C=c1/c(=C\c2[n-]c(=O)[n-]c2[O-])cc(C)n1-c1ccc(N2CCN(C)CC2)[nH+]c1

>  <Energy>  (1498) 
137.73811091200827

>  <Genealogy>  (1498) 
C=c1c(=Cc2[n-]c(=O)[n-]c2[O-])cc(C)n1-c1ccc(N2CCN(C)CC2)[nH+]c1 (protonated)
C=c1/c(=C\c2[n-]c(=O)[n-]c2[O-])cc(C)n1-c1ccc(N2CCN(C)CC2)[nH+]c1 (cis-trans isomerization)
C=c1/c(=C\c2[n-]c(=O)[n-]c2[O-])cc(C)n1-c1ccc(N2CCN(C)CC2)[nH+]c1 (3D coordinates assigned)
C=c1/c(=C\c2[n-]c(=O)[n-]c2[O-])cc(C)n1-c1ccc(N2CCN(C)CC2)[nH+]c1 (nonaromatic ring conformer: 137.73811091200827 kcal/mol)

>  <smiles>  (1498) 
C=c1c(=Cc2[nH]c(=O)[nH]c2O)cc(C)n1-c1ccc(N2CCN(C)CC2)nc1

>  <score_type>  (1498) 
oracle

>  <origin>  (1498) 
adg

>  <m_score__min__energy>  (1498) 
-14.529999999999999

>  <m_primary>  (1498) 
energy

$$$$
50:0
     RDKit          3D

 34 38  0  0  0  0  0  0  0  0999 V2000
   58.4110   25.0870   45.2850 C   0  0  0  0  0  0  0  0  0  0  0  0
   57.1610   25.4820   45.5320 C   0  0  0  0  0  0  0  0  0  0  0  0
   56.0900   24.7070   45.2770 N   0  0  0  0  0  0  0  0  0  0  0  0
   55.0500   25.4700   45.6670 C   0  0  0  0  0  0  0  0  0  0  0  0
   53.8550   25.0850   45.5820 O   0  0  0  0  0  0  0  0  0  0  0  0
   55.3920   26.6810   46.1520 N   0  0  0  0  0  0  0  0  0  0  0  0
   56.7360   26.6900   46.0740 C   0  0  0  0  0  0  0  0  0  0  0  0
   57.5020   27.7360   46.4280 C   0  0  0  0  0  0  0  0  0  0  0  0
   57.3860   29.0790   45.8220 C   0  0  0  0  0  0  0  0  0  0  0  0
   56.3300   29.6270   45.0960 C   0  0  0  0  0  0  0  0  0  0  0  0
   55.1570   28.9620   44.7650 O   0  0  0  0  0  0  0  0  0  0  0  0
   56.5410   30.9270   44.7850 N   0  0  0  0  0  0  0  0  0  0  0  0
   57.7390   31.2060   45.3350 C   0  0  0  0  0  0  0  0  0  0  0  0
   58.3890   32.4380   45.3230 C   0  0  0  0  0  0  0  0  0  0  0  0
   59.6170   32.5440   46.0000 C   0  0  0  0  0  0  0  0  0  0  0  0
   60.1680   31.4250   46.6720 C   0  0  0  0  0  0  0  0  0  0  0  0
   61.6670   31.5940   47.5850 S   0  0  0  0  0  0  0  0  0  0  0  0
   62.7710   30.9090   46.8290 O   0  0  0  0  0  0  0  0  0  0  0  0
   61.5180   30.8980   48.9090 O   0  0  0  0  0  0  0  0  0  0  0  0
   62.1130   33.2700   47.8490 N   0  0  0  0  0  0  0  0  0  0  0  0
   61.6550   33.7960   49.1540 C   0  0  0  0  0  0  0  0  0  0  0  0
   62.7550   33.8140   50.2310 C   0  0  0  0  0  0  0  0  0  0  0  0
   63.7740   32.8050   49.9190 N   0  0  0  0  0  0  0  0  0  0  0  0
   64.6650   32.4800   51.0550 C   0  0  0  0  0  0  0  0  0  0  0  0
   65.9600   33.2630   51.0610 C   0  0  0  0  0  0  0  0  0  0  0  0
   67.1160   32.7280   50.4640 C   0  0  0  0  0  0  0  0  0  0  0  0
   68.3130   33.4510   50.4700 C   0  0  0  0  0  0  0  0  0  0  0  0
   68.3680   34.7080   51.0770 C   0  0  0  0  0  0  0  0  0  0  0  0
   67.2280   35.2430   51.6830 C   0  0  0  0  0  0  0  0  0  0  0  0
   66.0290   34.5230   51.6790 C   0  0  0  0  0  0  0  0  0  0  0  0
   64.4980   33.1460   48.6820 C   0  0  0  0  0  0  0  0  0  0  0  0
   63.5300   33.5500   47.5480 C   0  0  0  0  0  0  0  0  0  0  0  0
   59.4960   30.1880   46.6470 C   0  0  0  0  0  0  0  0  0  0  0  0
   58.2740   30.1190   45.9770 C   0  0  0  0  0  0  0  0  0  0  0  0
  1  2  2  0
  2  3  1  0
  3  4  1  0
  4  5  2  0
  4  6  1  0
  6  7  1  0
  7  8  2  3
  8  9  1  0
  9 10  2  0
 10 11  1  0
 10 12  1  0
 12 13  1  0
 13 14  2  0
 14 15  1  0
 15 16  2  0
 16 17  1  0
 17 18  2  0
 17 19  2  0
 17 20  1  0
 20 21  1  0
 21 22  1  0
 22 23  1  0
 23 24  1  0
 24 25  1  0
 25 26  2  0
 26 27  1  0
 27 28  2  0
 28 29  1  0
 29 30  2  0
 23 31  1  0
 31 32  1  0
 16 33  1  0
 33 34  2  0
  7  2  1  0
 34  9  1  0
 34 13  1  0
 32 20  1  0
 30 25  1  0
M  CHG  4   3  -1   6  -1  11  -1  12  -1
M  END
>  <UniqueID>  (1499) 
41

>  <SMILES>  (1499) 
C=c1[n-]c(=O)[n-]c1=Cc1c([O-])[n-]c2ccc(S(=O)(=O)N3CCN(Cc4ccccc4)CC3)cc12

>  <Energy>  (1499) 
138.16605681920083

>  <Genealogy>  (1499) 
C=c1[n-]c(=O)[n-]c1=Cc1c([O-])[n-]c2ccc(S(=O)(=O)N3CCN(Cc4ccccc4)CC3)cc12 (protonated)
C=c1[n-]c(=O)[n-]c1=Cc1c([O-])[n-]c2ccc(S(=O)(=O)N3CCN(Cc4ccccc4)CC3)cc12 (3D coordinates assigned)
C=c1[n-]c(=O)[n-]c1=Cc1c([O-])[n-]c2ccc(S(=O)(=O)N3CCN(Cc4ccccc4)CC3)cc12 (nonaromatic ring conformer: 138.16605681920083 kcal/mol)

>  <smiles>  (1499) 
C=c1[nH]c(=O)[nH]c1=Cc1c(O)[nH]c2ccc(S(=O)(=O)N3CCN(Cc4ccccc4)CC3)cc12

>  <score_type>  (1499) 
oracle

>  <origin>  (1499) 
adg

>  <m_score__min__energy>  (1499) 
-18.809999999999999

>  <m_primary>  (1499) 
energy

$$$$
54:0
     RDKit          3D

 27 29  0  0  0  0  0  0  0  0999 V2000
   55.2210   29.3620   44.8420 N   0  0  0  0  0  0  0  0  0  0  0  0
   56.4980   29.8610   44.4430 C   0  0  0  0  0  0  0  0  0  0  0  0
   56.6100   30.4220   43.3210 O   0  0  0  0  0  0  0  0  0  0  0  0
   57.6780   29.6930   45.3280 C   0  0  0  0  0  0  0  0  0  0  0  0
   58.1170   28.3910   45.6410 C   0  0  0  0  0  0  0  0  0  0  0  0
   59.2570   28.1890   46.4300 C   0  0  0  0  0  0  0  0  0  0  0  0
   59.8310   26.5620   46.7880 S   0  0  0  0  0  0  0  0  0  0  0  0
   61.1280   26.3330   46.0660 O   0  0  0  0  0  0  0  0  0  0  0  0
   60.0660   26.4000   48.2640 O   0  0  0  0  0  0  0  0  0  0  0  0
   58.6650   25.3920   46.2540 N   0  0  0  0  0  0  0  0  0  0  0  0
   57.4610   25.4800   47.0750 C   0  0  0  0  0  0  0  0  0  0  0  0
   56.3700   24.6610   46.4440 C   0  0  0  0  0  0  0  0  0  0  0  0
   56.4800   23.2600   46.4100 C   0  0  0  0  0  0  0  0  0  0  0  0
   55.4580   22.4850   45.8550 C   0  0  0  0  0  0  0  0  0  0  0  0
   54.3130   23.0990   45.3410 C   0  0  0  0  0  0  0  0  0  0  0  0
   54.1850   24.4890   45.3870 C   0  0  0  0  0  0  0  0  0  0  0  0
   55.2040   25.2720   45.9410 C   0  0  0  0  0  0  0  0  0  0  0  0
   55.0500   26.6540   45.9910 O   0  0  0  0  0  0  0  0  0  0  0  0
   59.9700   29.2900   46.9120 C   0  0  0  0  0  0  0  0  0  0  0  0
   59.5420   30.5840   46.6220 C   0  0  0  0  0  0  0  0  0  0  0  0
   58.3980   30.8010   45.8390 C   0  0  0  0  0  0  0  0  0  0  0  0
   57.9510   32.1490   45.6260 N   0  0  0  0  0  0  0  0  0  0  0  0
   57.5920   33.0000   46.7600 C   0  0  0  0  0  0  0  0  0  0  0  0
   58.4840   34.2450   46.7440 C   0  0  0  0  0  0  0  0  0  0  0  0
   58.4160   34.8960   45.4860 O   0  0  0  0  0  0  0  0  0  0  0  0
   58.9440   34.0550   44.4740 C   0  0  0  0  0  0  0  0  0  0  0  0
   58.0940   32.7900   44.3180 C   0  0  0  0  0  0  0  0  0  0  0  0
  1  2  1  0
  2  3  2  0
  2  4  1  0
  4  5  2  0
  5  6  1  0
  6  7  1  0
  7  8  2  0
  7  9  2  0
  7 10  1  0
 10 11  1  0
 11 12  1  0
 12 13  2  0
 13 14  1  0
 14 15  2  0
 15 16  1  0
 16 17  2  0
 17 18  1  0
  6 19  2  0
 19 20  1  0
 20 21  2  0
 21 22  1  0
 22 23  1  0
 23 24  1  0
 24 25  1  0
 25 26  1  0
 26 27  1  0
 21  4  1  0
 27 22  1  0
 17 12  1  0
M  CHG  3   1  -1  10  -1  18  -1
M  END
>  <UniqueID>  (1500) 
45

>  <SMILES>  (1500) 
[NH-]C(=O)c1cc(S(=O)(=O)[N-]Cc2ccccc2[O-])ccc1N1CCOCC1

>  <Energy>  (1500) 
54.732324801175544

>  <Genealogy>  (1500) 
[NH-]C(=O)c1cc(S(=O)(=O)[N-]Cc2ccccc2[O-])ccc1N1CCOCC1 (protonated)
[NH-]C(=O)c1cc(S(=O)(=O)[N-]Cc2ccccc2[O-])ccc1N1CCOCC1 (3D coordinates assigned)
[NH-]C(=O)c1cc(S(=O)(=O)[N-]Cc2ccccc2[O-])ccc1N1CCOCC1 (nonaromatic ring conformer: 54.732324801175544 kcal/mol)

>  <smiles>  (1500) 
NC(=O)c1cc(S(=O)(=O)NCc2ccccc2O)ccc1N1CCOCC1

>  <score_type>  (1500) 
oracle

>  <origin>  (1500) 
adg

>  <m_score__min__energy>  (1500) 
-16.649999999999999

>  <m_primary>  (1500) 
energy

$$$$
65:0
     RDKit          3D

 35 38  0  0  0  0  0  0  0  0999 V2000
   58.9970   34.3610   52.0350 N   0  0  0  0  0  0  0  0  0  0  0  0
   58.4100   33.0610   51.9040 C   0  0  0  0  0  0  0  0  0  0  0  0
   57.1010   32.8440   52.3630 C   0  0  0  0  0  0  0  0  0  0  0  0
   56.5030   31.5880   52.2300 C   0  0  0  0  0  0  0  0  0  0  0  0
   57.2030   30.5390   51.6310 C   0  0  0  0  0  0  0  0  0  0  0  0
   58.5070   30.7410   51.1710 C   0  0  0  0  0  0  0  0  0  0  0  0
   59.1290   31.9950   51.3180 C   0  0  0  0  0  0  0  0  0  0  0  0
   60.4690   32.2150   50.8480 N   0  0  0  0  0  0  0  0  0  0  0  0
   60.9480   33.3890   50.1750 C   0  0  0  0  0  0  0  0  0  0  0  0
   61.7270   34.1630   50.7930 O   0  0  0  0  0  0  0  0  0  0  0  0
   60.5940   33.6830   48.7630 C   0  0  0  0  0  0  0  0  0  0  0  0
   59.2550   33.8690   48.3760 C   0  0  0  0  0  0  0  0  0  0  0  0
   58.9370   34.1680   47.0490 C   0  0  0  0  0  0  0  0  0  0  0  0
   59.9500   34.2820   46.0850 C   0  0  0  0  0  0  0  0  0  0  0  0
   59.5980   34.5680   44.6530 C   0  0  0  0  0  0  0  0  0  0  0  0
   58.8990   33.4230   44.0890 N   0  0  0  0  0  0  0  0  0  0  0  0
   57.6230   32.9810   44.5670 C   0  0  0  0  0  0  0  0  0  0  0  0
   56.6980   33.8200   44.7620 O   0  0  0  0  0  0  0  0  0  0  0  0
   57.3810   31.5540   44.8430 C   0  0  0  0  0  0  0  0  0  0  0  0
   56.1680   30.9400   44.5030 C   0  0  0  0  0  0  0  0  0  0  0  0
   55.9860   29.5790   44.7560 C   0  0  0  0  0  0  0  0  0  0  0  0
   54.7820   28.9860   44.3860 O   0  0  0  0  0  0  0  0  0  0  0  0
   57.0150   28.8260   45.3630 C   0  0  0  0  0  0  0  0  0  0  0  0
   56.8780   27.3660   45.5830 C   0  0  0  0  0  0  0  0  0  0  0  0
   55.8020   26.8650   46.0000 O   0  0  0  0  0  0  0  0  0  0  0  0
   58.2110   29.4930   45.7140 C   0  0  0  0  0  0  0  0  0  0  0  0
   59.2840   28.8100   46.3790 N   0  0  0  0  0  0  0  0  0  0  0  0
   59.6040   29.1460   47.7710 C   0  0  0  0  0  0  0  0  0  0  0  0
   59.8460   27.8730   48.6240 C   0  0  0  0  0  0  0  0  0  0  0  0
   59.9300   26.6730   47.8700 O   0  0  0  0  0  0  0  0  0  0  0  0
   60.7380   26.8650   46.7280 C   0  0  0  0  0  0  0  0  0  0  0  0
   59.9660   27.7020   45.7060 C   0  0  0  0  0  0  0  0  0  0  0  0
   58.3550   30.8170   45.4370 N   0  0  0  0  0  0  0  0  0  0  0  0
   61.2830   34.0540   46.4580 C   0  0  0  0  0  0  0  0  0  0  0  0
   61.6040   33.7610   47.7880 C   0  0  0  0  0  0  0  0  0  0  0  0
  1  2  1  0
  2  3  2  0
  3  4  1  0
  4  5  2  0
  5  6  1  0
  6  7  2  0
  7  8  1  0
  8  9  1  0
  9 10  2  0
  9 11  1  0
 11 12  2  0
 12 13  1  0
 13 14  2  0
 14 15  1  0
 15 16  1  0
 16 17  1  0
 17 18  2  0
 17 19  1  0
 19 20  2  0
 20 21  1  0
 21 22  1  0
 21 23  2  0
 23 24  1  0
 24 25  2  0
 23 26  1  0
 26 27  1  0
 27 28  1  0
 28 29  1  0
 29 30  1  0
 30 31  1  0
 31 32  1  0
 26 33  2  0
 14 34  1  0
 34 35  2  0
  7  2  1  0
 35 11  1  0
 33 19  1  0
 32 27  1  0
M  CHG  3   8  -1  16  -1  22  -1
M  END
>  <UniqueID>  (1501) 
56

>  <SMILES>  (1501) 
Nc1ccccc1[N-]C(=O)c1ccc(C[N-]C(=O)c2cc([O-])c(C=O)c(N3CCOCC3)n2)cc1

>  <Energy>  (1501) 
80.28163301566013

>  <Genealogy>  (1501) 
Nc1ccccc1[N-]C(=O)c1ccc(C[N-]C(=O)c2cc([O-])c(C=O)c(N3CCOCC3)n2)cc1 (protonated)
Nc1ccccc1[N-]C(=O)c1ccc(C[N-]C(=O)c2cc([O-])c(C=O)c(N3CCOCC3)n2)cc1 (3D coordinates assigned)
Nc1ccccc1[N-]C(=O)c1ccc(C[N-]C(=O)c2cc([O-])c(C=O)c(N3CCOCC3)n2)cc1 (nonaromatic ring conformer: 80.28163301566013 kcal/mol)

>  <smiles>  (1501) 
Nc1ccccc1NC(=O)c1ccc(CNC(=O)c2cc(O)c(C=O)c(N3CCOCC3)n2)cc1

>  <score_type>  (1501) 
oracle

>  <origin>  (1501) 
adg

>  <m_score__min__energy>  (1501) 
-14.199999999999999

>  <m_primary>  (1501) 
energy

$$$$
68:0
     RDKit          3D

 27 29  0  0  0  0  0  0  0  0999 V2000
   55.8040   29.6120   44.4690 C   0  0  0  0  0  0  0  0  0  0  0  0
   57.1150   29.4190   44.6860 C   0  0  0  0  0  0  0  0  0  0  0  0
   57.8030   28.2010   44.7910 C   0  0  0  0  0  0  0  0  0  0  0  0
   57.3990   26.9290   44.5840 C   0  0  0  0  0  0  0  0  0  0  0  0
   57.1620   25.9250   45.6380 C   0  0  0  0  0  0  0  0  0  0  0  0
   55.9200   25.8330   46.2900 C   0  0  0  0  0  0  0  0  0  0  0  0
   54.8910   26.7160   45.9830 O   0  0  0  0  0  0  0  0  0  0  0  0
   55.7170   24.8710   47.2250 N   0  0  0  0  0  0  0  0  0  0  0  0
   56.6910   23.9780   47.5360 C   0  0  0  0  0  0  0  0  0  0  0  0
   56.4820   23.0970   48.4090 O   0  0  0  0  0  0  0  0  0  0  0  0
   57.8900   24.0310   46.9010 N   0  0  0  0  0  0  0  0  0  0  0  0
   58.1430   24.9740   45.9570 C   0  0  0  0  0  0  0  0  0  0  0  0
   59.2640   24.9890   45.3810 O   0  0  0  0  0  0  0  0  0  0  0  0
   59.0880   28.5740   45.1690 C   0  0  0  0  0  0  0  0  0  0  0  0
   60.2490   27.6640   45.4250 C   0  0  0  0  0  0  0  0  0  0  0  0
   59.1770   29.9130   45.2460 N   0  0  0  0  0  0  0  0  0  0  0  0
   57.9920   30.4210   44.9450 N   0  0  0  0  0  0  0  0  0  0  0  0
   57.7250   31.8610   45.0050 C   0  0  0  0  0  0  0  0  0  0  0  0
   58.3300   32.4580   46.2490 C   0  0  0  0  0  0  0  0  0  0  0  0
   58.7030   33.8110   46.2700 C   0  0  0  0  0  0  0  0  0  0  0  0
   59.2720   34.3690   47.4180 C   0  0  0  0  0  0  0  0  0  0  0  0
   59.4750   33.5870   48.5670 C   0  0  0  0  0  0  0  0  0  0  0  0
   60.0790   34.1810   49.7800 C   0  0  0  0  0  0  0  0  0  0  0  0
   61.2750   34.5750   49.7730 O   0  0  0  0  0  0  0  0  0  0  0  0
   59.3320   34.3130   50.9450 O   0  0  0  0  0  0  0  0  0  0  0  0
   59.0940   32.2330   48.5450 C   0  0  0  0  0  0  0  0  0  0  0  0
   58.5240   31.6750   47.3970 C   0  0  0  0  0  0  0  0  0  0  0  0
  1  2  2  0
  2  3  1  0
  3  4  2  0
  4  5  1  0
  5  6  2  0
  6  7  1  0
  6  8  1  0
  8  9  1  0
  9 10  2  0
  9 11  1  0
 11 12  1  0
 12 13  2  0
  3 14  1  0
 14 15  1  0
 14 16  2  0
 16 17  1  0
 17 18  1  0
 18 19  1  0
 19 20  2  0
 20 21  1  0
 21 22  2  0
 22 23  1  0
 23 24  2  0
 23 25  1  0
 22 26  1  0
 26 27  2  0
 17  2  1  0
 27 19  1  0
 12  5  1  0
M  CHG  4   7  -1   8  -1  11  -1  25  -1
M  END
>  <UniqueID>  (1502) 
59

>  <SMILES>  (1502) 
C=c1/c(=C\c2c([O-])[n-]c(=O)[n-]c2=O)c(C)nn1Cc1ccc(C(=O)[O-])cc1

>  <Energy>  (1502) 
87.5922940243466

>  <Genealogy>  (1502) 
C=c1c(=Cc2c([O-])[n-]c(=O)[n-]c2=O)c(C)nn1Cc1ccc(C(=O)[O-])cc1 (protonated)
C=c1/c(=C\c2c([O-])[n-]c(=O)[n-]c2=O)c(C)nn1Cc1ccc(C(=O)[O-])cc1 (cis-trans isomerization)
C=c1/c(=C\c2c([O-])[n-]c(=O)[n-]c2=O)c(C)nn1Cc1ccc(C(=O)[O-])cc1 (3D coordinates assigned)
C=c1/c(=C\c2c([O-])[n-]c(=O)[n-]c2=O)c(C)nn1Cc1ccc(C(=O)[O-])cc1 (optimized conformer: 87.5922940243466 kcal/mol)

>  <smiles>  (1502) 
C=c1c(=Cc2c(O)[nH]c(=O)[nH]c2=O)c(C)nn1Cc1ccc(C(=O)O)cc1

>  <score_type>  (1502) 
oracle

>  <origin>  (1502) 
adg

>  <m_score__min__energy>  (1502) 
-16.600000000000001

>  <m_primary>  (1502) 
energy

$$$$
69:0
     RDKit          3D

 33 36  0  0  0  0  0  0  0  0999 V2000
   60.9540   34.2480   48.5850 C   0  0  0  0  0  0  0  0  0  0  0  0
   61.6340   33.8540   47.4250 C   0  0  0  0  0  0  0  0  0  0  0  0
   63.1260   33.9740   47.3190 C   0  0  0  0  0  0  0  0  0  0  0  0
   63.7730   32.8190   47.9760 N   0  0  0  0  0  0  0  0  0  0  0  0
   63.3220   32.6180   49.3780 C   0  0  0  0  0  0  0  0  0  0  0  0
   62.3930   31.4000   49.5590 C   0  0  0  0  0  0  0  0  0  0  0  0
   61.4970   31.2550   48.4010 N   0  0  0  0  0  0  0  0  0  0  0  0
   60.3630   29.9580   48.6830 S   0  0  0  0  0  0  0  0  0  0  0  0
   60.8680   29.0760   49.7910 O   0  0  0  0  0  0  0  0  0  0  0  0
   60.2090   29.1460   47.4260 O   0  0  0  0  0  0  0  0  0  0  0  0
   58.8320   30.6390   49.1390 N   0  0  0  0  0  0  0  0  0  0  0  0
   58.3770   30.8080   50.4860 C   0  0  0  0  0  0  0  0  0  0  0  0
   57.6470   29.9150   50.9930 O   0  0  0  0  0  0  0  0  0  0  0  0
   58.7360   31.9870   51.2990 C   0  0  0  0  0  0  0  0  0  0  0  0
   57.7450   32.7310   51.9610 C   0  0  0  0  0  0  0  0  0  0  0  0
   58.0980   33.8350   52.7450 C   0  0  0  0  0  0  0  0  0  0  0  0
   59.4400   34.1950   52.8840 C   0  0  0  0  0  0  0  0  0  0  0  0
   60.4340   33.4490   52.2450 C   0  0  0  0  0  0  0  0  0  0  0  0
   60.0850   32.3430   51.4610 C   0  0  0  0  0  0  0  0  0  0  0  0
   62.2440   31.0150   47.1410 C   0  0  0  0  0  0  0  0  0  0  0  0
   63.6780   31.5890   47.1670 C   0  0  0  0  0  0  0  0  0  0  0  0
   60.9290   33.3680   46.3670 N   0  0  0  0  0  0  0  0  0  0  0  0
   59.5730   33.2340   46.3940 C   0  0  0  0  0  0  0  0  0  0  0  0
   58.9170   32.7870   45.3620 N   0  0  0  0  0  0  0  0  0  0  0  0
   58.0170   31.6650   45.3290 C   0  0  0  0  0  0  0  0  0  0  0  0
   58.2630   30.5810   46.1810 C   0  0  0  0  0  0  0  0  0  0  0  0
   57.4280   29.4590   46.1620 C   0  0  0  0  0  0  0  0  0  0  0  0
   56.3510   29.4050   45.2730 C   0  0  0  0  0  0  0  0  0  0  0  0
   55.5190   28.2910   45.2560 O   0  0  0  0  0  0  0  0  0  0  0  0
   56.1150   30.4670   44.3960 C   0  0  0  0  0  0  0  0  0  0  0  0
   56.9490   31.5890   44.4130 C   0  0  0  0  0  0  0  0  0  0  0  0
   58.8670   33.6270   47.5370 C   0  0  0  0  0  0  0  0  0  0  0  0
   59.5640   34.1330   48.6360 C   0  0  0  0  0  0  0  0  0  0  0  0
  1  2  2  0
  2  3  1  0
  3  4  1  0
  4  5  1  0
  5  6  1  0
  6  7  1  0
  7  8  1  0
  8  9  2  0
  8 10  2  0
  8 11  1  0
 11 12  1  0
 12 13  2  0
 12 14  1  0
 14 15  2  0
 15 16  1  0
 16 17  2  0
 17 18  1  0
 18 19  2  0
  7 20  1  0
 20 21  1  0
  2 22  1  0
 22 23  1  0
 23 24  2  0
 24 25  1  0
 25 26  2  0
 26 27  1  0
 27 28  2  0
 28 29  1  0
 28 30  1  0
 30 31  2  0
 23 32  1  0
 32 33  2  0
 33  1  1  0
 21  4  1  0
 31 25  1  0
 19 14  1  0
M  CHG  4   7   1  11  -1  22  -1  29  -1
M  END
>  <UniqueID>  (1503) 
60

>  <SMILES>  (1503) 
O=C([N-]S(=O)(=O)[NH+]1CCN(Cc2ccc/c(=N/c3ccc([O-])cc3)[n-]2)CC1)c1ccccc1

>  <Energy>  (1503) 
82.8457127437361

>  <Genealogy>  (1503) 
O=C([N-]S(=O)(=O)[NH+]1CCN(Cc2cccc(=Nc3ccc([O-])cc3)[n-]2)CC1)c1ccccc1 (protonated)
O=C([N-]S(=O)(=O)[NH+]1CCN(Cc2ccc/c(=N/c3ccc([O-])cc3)[n-]2)CC1)c1ccccc1 (cis-trans isomerization)
O=C([N-]S(=O)(=O)[NH+]1CCN(Cc2ccc/c(=N/c3ccc([O-])cc3)[n-]2)CC1)c1ccccc1 (3D coordinates assigned)
O=C([N-]S(=O)(=O)[NH+]1CCN(Cc2ccc/c(=N/c3ccc([O-])cc3)[n-]2)CC1)c1ccccc1 (nonaromatic ring conformer: 82.8457127437361 kcal/mol)

>  <smiles>  (1503) 
O=C(NS(=O)(=O)N1CCN(Cc2cccc(=Nc3ccc(O)cc3)[nH]2)CC1)c1ccccc1

>  <score_type>  (1503) 
oracle

>  <origin>  (1503) 
adg

>  <m_score__min__energy>  (1503) 
-14.779999999999999

>  <m_primary>  (1503) 
energy

$$$$
5:0
     RDKit          3D

 32 35  0  0  0  0  0  0  0  0999 V2000
   56.5450   29.3900   44.1200 C   0  0  0  0  0  0  0  0  0  0  0  0
   57.7090   29.0030   44.6660 C   0  0  0  0  0  0  0  0  0  0  0  0
   58.1980   27.6900   44.7910 C   0  0  0  0  0  0  0  0  0  0  0  0
   57.6030   26.5000   44.5750 C   0  0  0  0  0  0  0  0  0  0  0  0
   57.2220   25.5290   45.6180 C   0  0  0  0  0  0  0  0  0  0  0  0
   55.9800   25.6300   46.2590 C   0  0  0  0  0  0  0  0  0  0  0  0
   55.1110   26.6730   45.9580 O   0  0  0  0  0  0  0  0  0  0  0  0
   55.6190   24.7090   47.1900 N   0  0  0  0  0  0  0  0  0  0  0  0
   56.4380   23.6730   47.5050 C   0  0  0  0  0  0  0  0  0  0  0  0
   56.0840   22.8340   48.3740 O   0  0  0  0  0  0  0  0  0  0  0  0
   57.6340   23.5360   46.8790 N   0  0  0  0  0  0  0  0  0  0  0  0
   58.0410   24.4300   45.9400 C   0  0  0  0  0  0  0  0  0  0  0  0
   59.1480   24.2590   45.3620 O   0  0  0  0  0  0  0  0  0  0  0  0
   59.5080   27.8050   45.2250 C   0  0  0  0  0  0  0  0  0  0  0  0
   59.7550   29.1480   45.4100 C   0  0  0  0  0  0  0  0  0  0  0  0
   61.0530   29.7150   45.8990 C   0  0  0  0  0  0  0  0  0  0  0  0
   58.6680   29.8770   45.0710 N   0  0  0  0  0  0  0  0  0  0  0  0
   58.5630   31.3110   45.1350 C   0  0  0  0  0  0  0  0  0  0  0  0
   57.7090   32.0000   44.2640 C   0  0  0  0  0  0  0  0  0  0  0  0
   57.6140   33.3920   44.3290 C   0  0  0  0  0  0  0  0  0  0  0  0
   58.3650   34.1050   45.2680 C   0  0  0  0  0  0  0  0  0  0  0  0
   59.2170   33.4280   46.1570 C   0  0  0  0  0  0  0  0  0  0  0  0
   60.0130   34.1810   47.1550 C   0  0  0  0  0  0  0  0  0  0  0  0
   59.9640   35.4430   47.1630 O   0  0  0  0  0  0  0  0  0  0  0  0
   60.8520   33.5010   48.1060 N   0  0  0  0  0  0  0  0  0  0  0  0
   61.8420   32.5320   47.6270 C   0  0  0  0  0  0  0  0  0  0  0  0
   63.1690   33.2170   47.2750 C   0  0  0  0  0  0  0  0  0  0  0  0
   64.1110   33.2980   48.4910 C   0  0  0  0  0  0  0  0  0  0  0  0
   63.4420   33.6360   49.7630 N   0  0  0  0  0  0  0  0  0  0  0  0
   62.3460   34.6230   49.7050 C   0  0  0  0  0  0  0  0  0  0  0  0
   60.9550   34.0110   49.4790 C   0  0  0  0  0  0  0  0  0  0  0  0
   59.3220   32.0290   46.0710 C   0  0  0  0  0  0  0  0  0  0  0  0
  1  2  2  0
  2  3  1  0
  3  4  2  3
  4  5  1  0
  5  6  2  0
  6  7  1  0
  6  8  1  0
  8  9  1  0
  9 10  2  0
  9 11  1  0
 11 12  1  0
 12 13  2  0
  3 14  1  0
 14 15  2  0
 15 16  1  0
 15 17  1  0
 17 18  1  0
 18 19  2  0
 19 20  1  0
 20 21  2  0
 21 22  1  0
 22 23  1  0
 23 24  2  0
 23 25  1  0
 25 26  1  0
 26 27  1  0
 27 28  1  0
 28 29  1  0
 29 30  1  0
 30 31  1  0
 22 32  2  0
 17  2  1  0
 32 18  1  0
 12  5  1  0
 31 25  1  0
M  CHG  3   7  -1   8  -1  11  -1
M  END
>  <UniqueID>  (1504) 
6

>  <SMILES>  (1504) 
C=c1c(=Cc2c([O-])[n-]c(=O)[n-]c2=O)cc(C)n1-c1cccc(C(=O)N2CCCNCC2)c1

>  <Energy>  (1504) 
117.29486849671964

>  <Genealogy>  (1504) 
C=c1c(=Cc2c([O-])[n-]c(=O)[n-]c2=O)cc(C)n1-c1cccc(C(=O)N2CCCNCC2)c1 (protonated)
C=c1c(=Cc2c([O-])[n-]c(=O)[n-]c2=O)cc(C)n1-c1cccc(C(=O)N2CCCNCC2)c1 (3D coordinates assigned)
C=c1c(=Cc2c([O-])[n-]c(=O)[n-]c2=O)cc(C)n1-c1cccc(C(=O)N2CCCNCC2)c1 (nonaromatic ring conformer: 117.29486849671964 kcal/mol)

>  <smiles>  (1504) 
C=c1c(=Cc2c(O)[nH]c(=O)[nH]c2=O)cc(C)n1-c1cccc(C(=O)N2CCCNCC2)c1

>  <score_type>  (1504) 
oracle

>  <origin>  (1504) 
adg

>  <m_score__min__energy>  (1504) 
-15.5

>  <m_primary>  (1504) 
energy

$$$$
8:0
     RDKit          3D

 31 34  0  0  0  0  0  0  0  0999 V2000
   58.3620   29.7120   45.4130 C   0  0  0  0  0  0  0  0  0  0  0  0
   58.9490   28.9910   46.3820 C   0  0  0  0  0  0  0  0  0  0  0  0
   58.9030   27.6010   46.5190 C   0  0  0  0  0  0  0  0  0  0  0  0
   58.2520   26.7210   45.7340 C   0  0  0  0  0  0  0  0  0  0  0  0
   57.4470   25.6050   46.2590 C   0  0  0  0  0  0  0  0  0  0  0  0
   57.9850   24.4570   46.7080 N   0  0  0  0  0  0  0  0  0  0  0  0
   56.9120   23.7460   47.1160 C   0  0  0  0  0  0  0  0  0  0  0  0
   57.0090   22.5860   47.5970 O   0  0  0  0  0  0  0  0  0  0  0  0
   55.7270   24.3770   46.9750 N   0  0  0  0  0  0  0  0  0  0  0  0
   56.0790   25.5590   46.4440 C   0  0  0  0  0  0  0  0  0  0  0  0
   55.1680   26.5790   46.1800 O   0  0  0  0  0  0  0  0  0  0  0  0
   59.6180   27.2960   47.6690 C   0  0  0  0  0  0  0  0  0  0  0  0
   60.0730   28.4950   48.1800 C   0  0  0  0  0  0  0  0  0  0  0  0
   60.8840   28.6310   49.4320 C   0  0  0  0  0  0  0  0  0  0  0  0
   59.6820   29.5260   47.3950 N   0  0  0  0  0  0  0  0  0  0  0  0
   59.9350   30.9490   47.6630 C   0  0  0  0  0  0  0  0  0  0  0  0
   58.6150   31.7250   47.6860 C   0  0  0  0  0  0  0  0  0  0  0  0
   58.6740   32.9060   46.7460 C   0  0  0  0  0  0  0  0  0  0  0  0
   57.9220   32.8640   45.5590 C   0  0  0  0  0  0  0  0  0  0  0  0
   57.9960   33.9060   44.6330 C   0  0  0  0  0  0  0  0  0  0  0  0
   58.8340   34.9950   44.8730 C   0  0  0  0  0  0  0  0  0  0  0  0
   59.5980   35.0470   46.0400 C   0  0  0  0  0  0  0  0  0  0  0  0
   59.5240   34.0130   46.9830 C   0  0  0  0  0  0  0  0  0  0  0  0
   60.3440   34.1160   48.2040 C   0  0  0  0  0  0  0  0  0  0  0  0
   59.7710   34.4290   49.2830 O   0  0  0  0  0  0  0  0  0  0  0  0
   61.7640   33.8380   48.1880 N   0  0  0  0  0  0  0  0  0  0  0  0
   62.5920   34.2090   49.3430 C   0  0  0  0  0  0  0  0  0  0  0  0
   63.7940   33.2670   49.4540 C   0  0  0  0  0  0  0  0  0  0  0  0
   64.4920   33.1930   48.2260 O   0  0  0  0  0  0  0  0  0  0  0  0
   63.6660   32.5940   47.2470 C   0  0  0  0  0  0  0  0  0  0  0  0
   62.4520   33.4760   46.9420 C   0  0  0  0  0  0  0  0  0  0  0  0
  1  2  2  0
  2  3  1  0
  3  4  2  3
  4  5  1  0
  5  6  1  0
  6  7  1  0
  7  8  2  0
  7  9  1  0
  9 10  1  0
 10 11  1  0
  3 12  1  0
 12 13  2  0
 13 14  1  0
 13 15  1  0
 15 16  1  0
 16 17  1  0
 17 18  1  0
 18 19  2  0
 19 20  1  0
 20 21  2  0
 21 22  1  0
 22 23  2  0
 23 24  1  0
 24 25  2  0
 24 26  1  0
 26 27  1  0
 27 28  1  0
 28 29  1  0
 29 30  1  0
 30 31  1  0
 15  2  1  0
 23 18  1  0
 31 26  1  0
 10  5  2  0
M  CHG  2   6  -1   9  -1
M  END
>  <UniqueID>  (1505) 
9

>  <SMILES>  (1505) 
C=c1c(=Cc2[n-]c(=O)[n-]c2O)cc(C)n1CCc1ccccc1C(=O)N1CCOCC1

>  <Energy>  (1505) 
127.38250292027536

>  <Genealogy>  (1505) 
C=c1c(=Cc2[n-]c(=O)[n-]c2O)cc(C)n1CCc1ccccc1C(=O)N1CCOCC1 (protonated)
C=c1c(=Cc2[n-]c(=O)[n-]c2O)cc(C)n1CCc1ccccc1C(=O)N1CCOCC1 (3D coordinates assigned)
C=c1c(=Cc2[n-]c(=O)[n-]c2O)cc(C)n1CCc1ccccc1C(=O)N1CCOCC1 (nonaromatic ring conformer: 127.38250292027536 kcal/mol)

>  <smiles>  (1505) 
C=c1c(=Cc2[nH]c(=O)[nH]c2O)cc(C)n1CCc1ccccc1C(=O)N1CCOCC1

>  <score_type>  (1505) 
oracle

>  <origin>  (1505) 
adg

>  <m_score__min__energy>  (1505) 
-14.6

>  <m_primary>  (1505) 
energy

$$$$
17:0
     RDKit          3D

 32 35  0  0  0  0  0  0  0  0999 V2000
   54.7170   30.8750   51.2640 C   0  0  0  0  0  0  0  0  0  0  0  0
   54.7040   30.5430   52.5640 C   0  0  0  0  0  0  0  0  0  0  0  0
   53.5880   30.5320   53.4080 C   0  0  0  0  0  0  0  0  0  0  0  0
   52.3230   30.8700   53.0920 C   0  0  0  0  0  0  0  0  0  0  0  0
   51.8540   31.1120   51.7160 C   0  0  0  0  0  0  0  0  0  0  0  0
   52.0120   30.2260   50.7170 N   0  0  0  0  0  0  0  0  0  0  0  0
   51.3710   30.8050   49.6790 C   0  0  0  0  0  0  0  0  0  0  0  0
   51.3090   30.2750   48.5390 O   0  0  0  0  0  0  0  0  0  0  0  0
   50.7940   31.9920   49.9600 N   0  0  0  0  0  0  0  0  0  0  0  0
   51.0970   32.1680   51.2550 C   0  0  0  0  0  0  0  0  0  0  0  0
   50.6480   33.2450   52.0100 O   0  0  0  0  0  0  0  0  0  0  0  0
   54.0550   30.1670   54.6650 C   0  0  0  0  0  0  0  0  0  0  0  0
   55.4110   29.9500   54.5370 C   0  0  0  0  0  0  0  0  0  0  0  0
   56.3200   29.5630   55.6640 C   0  0  0  0  0  0  0  0  0  0  0  0
   55.8090   30.1830   53.2660 N   0  0  0  0  0  0  0  0  0  0  0  0
   57.1540   30.0600   52.7710 C   0  0  0  0  0  0  0  0  0  0  0  0
   57.8660   28.8670   52.9540 C   0  0  0  0  0  0  0  0  0  0  0  0
   59.1740   28.7510   52.4820 C   0  0  0  0  0  0  0  0  0  0  0  0
   59.7840   29.8260   51.8320 C   0  0  0  0  0  0  0  0  0  0  0  0
   59.0900   31.0370   51.6510 C   0  0  0  0  0  0  0  0  0  0  0  0
   59.7210   32.1880   50.9590 C   0  0  0  0  0  0  0  0  0  0  0  0
   60.2050   33.1320   51.6430 O   0  0  0  0  0  0  0  0  0  0  0  0
   59.8070   32.2370   49.5260 N   0  0  0  0  0  0  0  0  0  0  0  0
   60.3000   33.4310   48.8370 C   0  0  0  0  0  0  0  0  0  0  0  0
   59.1910   34.0970   48.0060 C   0  0  0  0  0  0  0  0  0  0  0  0
   59.1310   33.5580   46.6280 N   0  0  0  0  0  0  0  0  0  0  0  0
   59.4850   32.1180   46.5930 C   0  0  0  0  0  0  0  0  0  0  0  0
   58.2360   31.2230   46.5060 C   0  0  0  0  0  0  0  0  0  0  0  0
   57.4330   31.4710   45.3600 O   0  0  0  0  0  0  0  0  0  0  0  0
   57.5140   32.8080   44.8850 C   0  0  0  0  0  0  0  0  0  0  0  0
   57.8230   33.8350   45.9860 C   0  0  0  0  0  0  0  0  0  0  0  0
   57.7670   31.1390   52.1180 C   0  0  0  0  0  0  0  0  0  0  0  0
  1  2  2  0
  2  3  1  0
  3  4  2  0
  4  5  1  0
  5  6  1  0
  6  7  1  0
  7  8  2  0
  7  9  1  0
  9 10  1  0
 10 11  1  0
  3 12  1  0
 12 13  2  0
 13 14  1  0
 13 15  1  0
 15 16  1  0
 16 17  2  0
 17 18  1  0
 18 19  2  0
 19 20  1  0
 20 21  1  0
 21 22  2  0
 21 23  1  0
 23 24  1  0
 24 25  1  0
 25 26  1  0
 26 27  1  0
 27 28  1  0
 28 29  1  0
 29 30  1  0
 30 31  1  0
 20 32  2  0
 15  2  1  0
 32 16  1  0
 10  5  2  0
 31 26  1  0
M  CHG  3   6  -1   9  -1  11  -1
M  END
>  <UniqueID>  (1506) 
16

>  <SMILES>  (1506) 
C=c1/c(=C/c2[n-]c(=O)[n-]c2[O-])cc(C)n1-c1cccc(C(=O)NCCN2CCOCC2)c1

>  <Energy>  (1506) 
143.47791996915336

>  <Genealogy>  (1506) 
C=c1c(=Cc2[n-]c(=O)[n-]c2[O-])cc(C)n1-c1cccc(C(=O)NCCN2CCOCC2)c1 (protonated)
C=c1/c(=C/c2[n-]c(=O)[n-]c2[O-])cc(C)n1-c1cccc(C(=O)NCCN2CCOCC2)c1 (cis-trans isomerization)
C=c1/c(=C/c2[n-]c(=O)[n-]c2[O-])cc(C)n1-c1cccc(C(=O)NCCN2CCOCC2)c1 (3D coordinates assigned)
C=c1/c(=C/c2[n-]c(=O)[n-]c2[O-])cc(C)n1-c1cccc(C(=O)NCCN2CCOCC2)c1 (nonaromatic ring conformer: 143.47791996915336 kcal/mol)

>  <smiles>  (1506) 
C=c1c(=Cc2[nH]c(=O)[nH]c2O)cc(C)n1-c1cccc(C(=O)NCCN2CCOCC2)c1

>  <score_type>  (1506) 
oracle

>  <origin>  (1506) 
adg

>  <m_score__min__energy>  (1506) 
-17.289999999999999

>  <m_primary>  (1506) 
energy

$$$$
28:0
     RDKit          3D

 33 36  0  0  0  0  0  0  0  0999 V2000
   55.5710   31.6380   52.0080 C   0  0  0  0  0  0  0  0  0  0  0  0
   55.1950   30.4720   52.5560 C   0  0  0  0  0  0  0  0  0  0  0  0
   53.8840   30.0500   52.7960 C   0  0  0  0  0  0  0  0  0  0  0  0
   52.7520   30.7560   52.6020 C   0  0  0  0  0  0  0  0  0  0  0  0
   52.1260   30.9680   51.2850 C   0  0  0  0  0  0  0  0  0  0  0  0
   52.1360   30.0430   50.3070 N   0  0  0  0  0  0  0  0  0  0  0  0
   51.3920   30.6090   49.3310 C   0  0  0  0  0  0  0  0  0  0  0  0
   51.1750   30.0410   48.2290 O   0  0  0  0  0  0  0  0  0  0  0  0
   50.8890   31.8250   49.6350 N   0  0  0  0  0  0  0  0  0  0  0  0
   51.3510   32.0330   50.8790 C   0  0  0  0  0  0  0  0  0  0  0  0
   51.0280   33.1500   51.6400 O   0  0  0  0  0  0  0  0  0  0  0  0
   53.9770   28.7710   53.3290 C   0  0  0  0  0  0  0  0  0  0  0  0
   55.3230   28.4660   53.3940 C   0  0  0  0  0  0  0  0  0  0  0  0
   55.8820   27.1720   53.9040 C   0  0  0  0  0  0  0  0  0  0  0  0
   56.0620   29.4940   52.9240 N   0  0  0  0  0  0  0  0  0  0  0  0
   57.4980   29.5320   52.8570 C   0  0  0  0  0  0  0  0  0  0  0  0
   58.1470   29.3480   51.6270 C   0  0  0  0  0  0  0  0  0  0  0  0
   59.5530   29.3540   51.5490 C   0  0  0  0  0  0  0  0  0  0  0  0
   60.2570   29.1380   50.2580 C   0  0  0  0  0  0  0  0  0  0  0  0
   60.4460   27.9510   49.8650 O   0  0  0  0  0  0  0  0  0  0  0  0
   60.6670   30.2490   49.4180 N   0  0  0  0  0  0  0  0  0  0  0  0
   60.1680   30.0610   48.0370 C   0  0  0  0  0  0  0  0  0  0  0  0
   60.5290   31.2670   47.1620 C   0  0  0  0  0  0  0  0  0  0  0  0
   60.0570   32.5170   47.7720 N   0  0  0  0  0  0  0  0  0  0  0  0
   60.0820   33.7320   46.9890 C   0  0  0  0  0  0  0  0  0  0  0  0
   59.2740   34.9360   47.3750 C   0  0  0  0  0  0  0  0  0  0  0  0
   60.8080   33.7950   45.9600 O   0  0  0  0  0  0  0  0  0  0  0  0
   59.4570   32.4720   49.1130 C   0  0  0  0  0  0  0  0  0  0  0  0
   60.2730   31.5490   50.0390 C   0  0  0  0  0  0  0  0  0  0  0  0
   60.2970   29.5390   52.7280 C   0  0  0  0  0  0  0  0  0  0  0  0
   59.6520   29.7240   53.9540 C   0  0  0  0  0  0  0  0  0  0  0  0
   58.2580   29.7200   54.0210 C   0  0  0  0  0  0  0  0  0  0  0  0
   57.6450   29.8750   55.2220 F   0  0  0  0  0  0  0  0  0  0  0  0
  1  2  2  0
  2  3  1  0
  3  4  2  3
  4  5  1  0
  5  6  1  0
  6  7  1  0
  7  8  2  0
  7  9  1  0
  9 10  1  0
 10 11  1  0
  3 12  1  0
 12 13  2  0
 13 14  1  0
 13 15  1  0
 15 16  1  0
 16 17  2  0
 17 18  1  0
 18 19  1  0
 19 20  2  0
 19 21  1  0
 21 22  1  0
 22 23  1  0
 23 24  1  0
 24 25  1  0
 25 26  1  0
 25 27  2  0
 24 28  1  0
 28 29  1  0
 18 30  2  0
 30 31  1  0
 31 32  2  0
 32 33  1  0
 15  2  1  0
 32 16  1  0
 10  5  2  0
 29 21  1  0
M  CHG  4   6  -1   9  -1  11  -1  21   1
M  END
>  <UniqueID>  (1507) 
27

>  <SMILES>  (1507) 
C=c1c(=Cc2[n-]c(=O)[n-]c2[O-])cc(C)n1-c1cc(C(=O)[NH+]2CCN(C(C)=O)CC2)ccc1F

>  <Energy>  (1507) 
139.85137200568957

>  <Genealogy>  (1507) 
C=c1c(=Cc2[n-]c(=O)[n-]c2[O-])cc(C)n1-c1cc(C(=O)[NH+]2CCN(C(C)=O)CC2)ccc1F (protonated)
C=c1c(=Cc2[n-]c(=O)[n-]c2[O-])cc(C)n1-c1cc(C(=O)[NH+]2CCN(C(C)=O)CC2)ccc1F (3D coordinates assigned)
C=c1c(=Cc2[n-]c(=O)[n-]c2[O-])cc(C)n1-c1cc(C(=O)[NH+]2CCN(C(C)=O)CC2)ccc1F (nonaromatic ring conformer: 139.85137200568957 kcal/mol)

>  <smiles>  (1507) 
C=c1c(=Cc2[nH]c(=O)[nH]c2O)cc(C)n1-c1cc(C(=O)N2CCN(C(C)=O)CC2)ccc1F

>  <score_type>  (1507) 
oracle

>  <origin>  (1507) 
adg

>  <m_score__min__energy>  (1507) 
-16

>  <m_primary>  (1507) 
energy

$$$$
29:0
     RDKit          3D

 28 31  0  0  0  0  0  0  0  0999 V2000
   54.9640   26.4680   46.0250 O   0  0  0  0  0  0  0  0  0  0  0  0
   55.9810   25.5550   46.2840 C   0  0  0  0  0  0  0  0  0  0  0  0
   55.8310   24.4740   47.0680 N   0  0  0  0  0  0  0  0  0  0  0  0
   57.0320   23.8660   46.9680 C   0  0  0  0  0  0  0  0  0  0  0  0
   57.3010   22.7910   47.5650 O   0  0  0  0  0  0  0  0  0  0  0  0
   57.9220   24.4960   46.1700 N   0  0  0  0  0  0  0  0  0  0  0  0
   57.2530   25.5880   45.7560 C   0  0  0  0  0  0  0  0  0  0  0  0
   57.8020   26.5530   44.7870 C   0  0  0  0  0  0  0  0  0  0  0  0
   58.3390   27.7400   45.1280 C   0  0  0  0  0  0  0  0  0  0  0  0
   59.5660   27.9430   45.7470 C   0  0  0  0  0  0  0  0  0  0  0  0
   59.7310   29.3100   45.8610 C   0  0  0  0  0  0  0  0  0  0  0  0
   60.9260   29.9750   46.4710 C   0  0  0  0  0  0  0  0  0  0  0  0
   58.6610   29.9580   45.3480 N   0  0  0  0  0  0  0  0  0  0  0  0
   58.4960   31.3860   45.2910 C   0  0  0  0  0  0  0  0  0  0  0  0
   57.8880   31.9820   44.1770 C   0  0  0  0  0  0  0  0  0  0  0  0
   57.7280   33.3700   44.1220 C   0  0  0  0  0  0  0  0  0  0  0  0
   58.1790   34.1700   45.1740 C   0  0  0  0  0  0  0  0  0  0  0  0
   58.8040   33.5870   46.2880 C   0  0  0  0  0  0  0  0  0  0  0  0
   59.2540   34.4430   47.4410 C   0  0  0  0  0  0  0  0  0  0  0  0
   60.7090   34.2020   47.7290 C   0  0  0  0  0  0  0  0  0  0  0  0
   61.1890   34.2140   49.0480 C   0  0  0  0  0  0  0  0  0  0  0  0
   62.5000   33.9590   49.3020 N   0  0  0  0  0  0  0  0  0  0  0  0
   63.3800   33.6800   48.3040 C   0  0  0  0  0  0  0  0  0  0  0  0
   62.9450   33.6450   46.9780 C   0  0  0  0  0  0  0  0  0  0  0  0
   61.6030   33.9030   46.6910 C   0  0  0  0  0  0  0  0  0  0  0  0
   58.9510   32.1920   46.3440 C   0  0  0  0  0  0  0  0  0  0  0  0
   57.8040   29.0110   44.8910 C   0  0  0  0  0  0  0  0  0  0  0  0
   56.6100   29.2820   44.3410 C   0  0  0  0  0  0  0  0  0  0  0  0
  1  2  1  0
  2  3  1  0
  3  4  1  0
  4  5  2  0
  4  6  1  0
  6  7  1  0
  7  8  1  0
  8  9  2  0
  9 10  1  0
 10 11  2  0
 11 12  1  0
 11 13  1  0
 13 14  1  0
 14 15  2  0
 15 16  1  0
 16 17  2  0
 17 18  1  0
 18 19  1  0
 19 20  1  0
 20 21  2  0
 21 22  1  0
 22 23  2  0
 23 24  1  0
 24 25  2  0
 18 26  2  0
 13 27  1  0
 27 28  2  0
  7  2  2  0
 27  9  1  0
 26 14  1  0
 25 20  1  0
M  CHG  2   3  -1   6  -1
M  END
>  <UniqueID>  (1508) 
28

>  <SMILES>  (1508) 
C=c1/c(=C/c2[n-]c(=O)[n-]c2O)cc(C)n1-c1cccc(Cc2cccnc2)c1

>  <Energy>  (1508) 
119.41779197187823

>  <Genealogy>  (1508) 
C=c1c(=Cc2[n-]c(=O)[n-]c2O)cc(C)n1-c1cccc(Cc2cccnc2)c1 (protonated)
C=c1/c(=C/c2[n-]c(=O)[n-]c2O)cc(C)n1-c1cccc(Cc2cccnc2)c1 (cis-trans isomerization)
C=c1/c(=C/c2[n-]c(=O)[n-]c2O)cc(C)n1-c1cccc(Cc2cccnc2)c1 (3D coordinates assigned)
C=c1/c(=C/c2[n-]c(=O)[n-]c2O)cc(C)n1-c1cccc(Cc2cccnc2)c1 (optimized conformer: 119.41779197187823 kcal/mol)

>  <smiles>  (1508) 
C=c1c(=Cc2[nH]c(=O)[nH]c2O)cc(C)n1-c1cccc(Cc2cccnc2)c1

>  <score_type>  (1508) 
oracle

>  <origin>  (1508) 
adg

>  <m_score__min__energy>  (1508) 
-14.619999999999999

>  <m_primary>  (1508) 
energy

$$$$
39:0
     RDKit          3D

 31 33  0  0  0  0  0  0  0  0999 V2000
   60.2040   29.9550   45.9850 C   0  0  0  0  0  0  0  0  0  0  0  0
   59.2770   30.8520   45.6240 C   0  0  0  0  0  0  0  0  0  0  0  0
   58.2250   30.6470   44.7280 C   0  0  0  0  0  0  0  0  0  0  0  0
   57.8780   29.4930   44.1280 C   0  0  0  0  0  0  0  0  0  0  0  0
   57.4430   28.2900   44.8670 C   0  0  0  0  0  0  0  0  0  0  0  0
   56.1010   28.1500   45.2480 C   0  0  0  0  0  0  0  0  0  0  0  0
   55.1600   29.1100   44.8800 O   0  0  0  0  0  0  0  0  0  0  0  0
   55.7070   27.0660   45.9700 N   0  0  0  0  0  0  0  0  0  0  0  0
   56.6000   26.1080   46.3360 C   0  0  0  0  0  0  0  0  0  0  0  0
   56.2200   25.1110   47.0050 O   0  0  0  0  0  0  0  0  0  0  0  0
   57.9040   26.2280   45.9860 N   0  0  0  0  0  0  0  0  0  0  0  0
   58.3470   27.2930   45.2690 C   0  0  0  0  0  0  0  0  0  0  0  0
   59.5720   27.3840   44.9910 O   0  0  0  0  0  0  0  0  0  0  0  0
   57.5550   31.8590   44.6260 C   0  0  0  0  0  0  0  0  0  0  0  0
   58.2080   32.7400   45.4670 C   0  0  0  0  0  0  0  0  0  0  0  0
   57.7900   34.1600   45.7090 C   0  0  0  0  0  0  0  0  0  0  0  0
   59.2410   32.1270   46.0810 N   0  0  0  0  0  0  0  0  0  0  0  0
   60.1450   32.7430   47.0150 C   0  0  0  0  0  0  0  0  0  0  0  0
   61.3530   33.2660   46.5290 C   0  0  0  0  0  0  0  0  0  0  0  0
   62.2870   33.8250   47.3990 C   0  0  0  0  0  0  0  0  0  0  0  0
   62.0280   33.8640   48.7690 C   0  0  0  0  0  0  0  0  0  0  0  0
   60.8250   33.3630   49.2700 C   0  0  0  0  0  0  0  0  0  0  0  0
   59.8610   32.8030   48.4070 C   0  0  0  0  0  0  0  0  0  0  0  0
   58.5810   32.3080   48.9830 C   0  0  0  0  0  0  0  0  0  0  0  0
   57.4840   32.7700   48.5610 O   0  0  0  0  0  0  0  0  0  0  0  0
   58.5770   31.3210   49.9760 O   0  0  0  0  0  0  0  0  0  0  0  0
   57.5640   31.2440   50.9770 C   0  0  0  0  0  0  0  0  0  0  0  0
   57.3830   29.9130   51.4100 O   0  0  0  0  0  0  0  0  0  0  0  0
   58.1950   29.6460   52.5380 C   0  0  0  0  0  0  0  0  0  0  0  0
   59.5970   29.2650   52.0720 C   0  0  0  0  0  0  0  0  0  0  0  0
   59.6010   28.9410   50.7070 O   0  0  0  0  0  0  0  0  0  0  0  0
  1  2  2  0
  2  3  1  0
  3  4  2  3
  4  5  1  0
  5  6  2  0
  6  7  1  0
  6  8  1  0
  8  9  1  0
  9 10  2  0
  9 11  1  0
 11 12  1  0
 12 13  2  0
  3 14  1  0
 14 15  2  0
 15 16  1  0
 15 17  1  0
 17 18  1  0
 18 19  2  0
 19 20  1  0
 20 21  2  0
 21 22  1  0
 22 23  2  0
 23 24  1  0
 24 25  2  0
 24 26  1  0
 26 27  1  0
 27 28  1  0
 28 29  1  0
 29 30  1  0
 30 31  1  0
 17  2  1  0
 23 18  1  0
 12  5  1  0
M  CHG  2   7  -1  11  -1
M  END
>  <UniqueID>  (1509) 
38

>  <SMILES>  (1509) 
C=c1c(=Cc2c([O-])[nH]c(=O)[n-]c2=O)cc(C)n1-c1ccccc1C(=O)OCOCCO

>  <Energy>  (1509) 
94.46492874961001

>  <Genealogy>  (1509) 
C=c1c(=Cc2c([O-])[nH]c(=O)[n-]c2=O)cc(C)n1-c1ccccc1C(=O)OCOCCO (protonated)
C=c1c(=Cc2c([O-])[nH]c(=O)[n-]c2=O)cc(C)n1-c1ccccc1C(=O)OCOCCO (3D coordinates assigned)
C=c1c(=Cc2c([O-])[nH]c(=O)[n-]c2=O)cc(C)n1-c1ccccc1C(=O)OCOCCO (optimized conformer: 94.46492874961001 kcal/mol)

>  <smiles>  (1509) 
C=c1c(=Cc2c(O)[nH]c(=O)[nH]c2=O)cc(C)n1-c1ccccc1C(=O)OCOCCO

>  <score_type>  (1509) 
oracle

>  <origin>  (1509) 
adg

>  <m_score__min__energy>  (1509) 
-14.01

>  <m_primary>  (1509) 
energy

$$$$
45:0
     RDKit          3D

 35 38  0  0  0  0  0  0  0  0999 V2000
   59.8150   34.6500   46.1600 C   0  0  0  0  0  0  0  0  0  0  0  0
   60.7700   34.2730   47.0260 C   0  0  0  0  0  0  0  0  0  0  0  0
   62.4090   33.8290   46.4360 S   0  0  0  0  0  0  0  0  0  0  0  0
   62.8040   33.3370   48.1150 C   0  0  0  0  0  0  0  0  0  0  0  0
   63.8850   32.7620   48.4050 O   0  0  0  0  0  0  0  0  0  0  0  0
   61.8240   33.6140   49.1030 N   0  0  0  0  0  0  0  0  0  0  0  0
   60.6760   34.1720   48.4880 C   0  0  0  0  0  0  0  0  0  0  0  0
   59.7130   34.6000   49.1760 O   0  0  0  0  0  0  0  0  0  0  0  0
   58.7470   33.7910   45.6200 C   0  0  0  0  0  0  0  0  0  0  0  0
   58.8690   32.9680   44.6050 O   0  0  0  0  0  0  0  0  0  0  0  0
   57.7060   32.4010   44.3780 C   0  0  0  0  0  0  0  0  0  0  0  0
   57.4950   31.4150   43.3020 C   0  0  0  0  0  0  0  0  0  0  0  0
   56.4830   30.5380   43.3020 C   0  0  0  0  0  0  0  0  0  0  0  0
   56.2910   29.5520   44.3910 C   0  0  0  0  0  0  0  0  0  0  0  0
   55.1390   29.3480   44.8560 O   0  0  0  0  0  0  0  0  0  0  0  0
   57.3930   28.8250   44.9510 N   0  0  0  0  0  0  0  0  0  0  0  0
   58.5760   28.3770   44.2210 C   0  0  0  0  0  0  0  0  0  0  0  0
   59.8480   28.6810   45.0190 C   0  0  0  0  0  0  0  0  0  0  0  0
   59.5040   29.2680   46.3600 C   0  0  0  0  0  0  0  0  0  0  0  0
   59.4800   30.6600   46.5410 C   0  0  0  0  0  0  0  0  0  0  0  0
   59.1950   31.2040   47.7960 C   0  0  0  0  0  0  0  0  0  0  0  0
   58.9360   30.3620   48.8870 C   0  0  0  0  0  0  0  0  0  0  0  0
   58.5720   31.0500   50.4720 S   0  0  0  0  0  0  0  0  0  0  0  0
   57.7640   32.3050   50.2930 O   0  0  0  0  0  0  0  0  0  0  0  0
   57.7410   30.0720   51.2550 O   0  0  0  0  0  0  0  0  0  0  0  0
   60.0240   31.4210   51.3690 N   0  0  0  0  0  0  0  0  0  0  0  0
   60.0920   32.8600   51.6690 C   0  0  0  0  0  0  0  0  0  0  0  0
   61.4660   33.2260   52.2680 C   0  0  0  0  0  0  0  0  0  0  0  0
   62.2040   32.0660   52.6030 O   0  0  0  0  0  0  0  0  0  0  0  0
   62.4880   31.3230   51.4300 C   0  0  0  0  0  0  0  0  0  0  0  0
   61.2160   31.0040   50.6170 C   0  0  0  0  0  0  0  0  0  0  0  0
   58.9740   28.9720   48.7130 C   0  0  0  0  0  0  0  0  0  0  0  0
   59.2610   28.4270   47.4590 C   0  0  0  0  0  0  0  0  0  0  0  0
   56.7700   32.8800   45.2810 C   0  0  0  0  0  0  0  0  0  0  0  0
   57.4440   33.7830   46.0770 C   0  0  0  0  0  0  0  0  0  0  0  0
  1  2  2  3
  2  3  1  0
  3  4  1  0
  4  5  2  0
  4  6  1  0
  6  7  1  0
  7  8  2  0
  1  9  1  0
  9 10  1  0
 10 11  1  0
 11 12  1  0
 12 13  2  0
 13 14  1  0
 14 15  2  0
 14 16  1  0
 16 17  1  0
 17 18  1  0
 18 19  1  0
 19 20  2  0
 20 21  1  0
 21 22  2  0
 22 23  1  0
 23 24  2  0
 23 25  2  0
 23 26  1  0
 26 27  1  0
 27 28  1  0
 28 29  1  0
 29 30  1  0
 30 31  1  0
 22 32  1  0
 32 33  2  0
 11 34  2  0
 34 35  1  0
  7  2  1  0
 35  9  2  0
 33 19  1  0
 31 26  1  0
M  CHG  2   6  -1  16  -1
M  END
>  <UniqueID>  (1510) 
43

>  <SMILES>  (1510) 
O=C(/C=C/c1ccc(C=C2SC(=O)[N-]C2=O)o1)[N-]CCc1ccc(S(=O)(=O)N2CCOCC2)cc1

>  <Energy>  (1510) 
110.57793351085209

>  <Genealogy>  (1510) 
O=C(C=Cc1ccc(C=C2SC(=O)[N-]C2=O)o1)[N-]CCc1ccc(S(=O)(=O)N2CCOCC2)cc1 (protonated)
O=C(/C=C/c1ccc(C=C2SC(=O)[N-]C2=O)o1)[N-]CCc1ccc(S(=O)(=O)N2CCOCC2)cc1 (cis-trans isomerization)
O=C(/C=C/c1ccc(C=C2SC(=O)[N-]C2=O)o1)[N-]CCc1ccc(S(=O)(=O)N2CCOCC2)cc1 (3D coordinates assigned)
O=C(/C=C/c1ccc(C=C2SC(=O)[N-]C2=O)o1)[N-]CCc1ccc(S(=O)(=O)N2CCOCC2)cc1 (nonaromatic ring conformer: 110.57793351085209 kcal/mol)

>  <smiles>  (1510) 
O=C(C=Cc1ccc(C=C2SC(=O)NC2=O)o1)NCCc1ccc(S(=O)(=O)N2CCOCC2)cc1

>  <score_type>  (1510) 
oracle

>  <origin>  (1510) 
adg

>  <m_score__min__energy>  (1510) 
-14.84

>  <m_primary>  (1510) 
energy

$$$$
54:0
     RDKit          3D

 26 27  0  0  0  0  0  0  0  0999 V2000
   66.6600   31.7740   50.5490 C   0  0  0  0  0  0  0  0  0  0  0  0
   65.9650   33.0700   50.1540 C   0  0  0  0  0  0  0  0  0  0  0  0
   64.2630   33.0720   50.6960 S   0  0  0  0  0  0  0  0  0  0  0  0
   63.7970   34.4950   50.8290 O   0  0  0  0  0  0  0  0  0  0  0  0
   64.1440   32.4010   52.0350 O   0  0  0  0  0  0  0  0  0  0  0  0
   63.2530   32.2630   49.5400 N   0  0  0  0  0  0  0  0  0  0  0  0
   62.3200   32.8960   48.6540 C   0  0  0  0  0  0  0  0  0  0  0  0
   62.7180   33.1460   47.3330 C   0  0  0  0  0  0  0  0  0  0  0  0
   61.8420   33.7610   46.4340 C   0  0  0  0  0  0  0  0  0  0  0  0
   60.5630   34.1410   46.8500 C   0  0  0  0  0  0  0  0  0  0  0  0
   59.4320   34.9190   45.6910 S   0  0  0  0  0  0  0  0  0  0  0  0
   57.9810   33.9030   46.1530 C   0  0  0  0  0  0  0  0  0  0  0  0
   57.3330   33.2330   44.9430 C   0  0  0  0  0  0  0  0  0  0  0  0
   57.0330   31.8380   45.2360 N   0  0  0  0  0  0  0  0  0  0  0  0
   57.5810   30.7480   44.4870 C   0  0  0  0  0  0  0  0  0  0  0  0
   58.0870   30.9690   43.3540 O   0  0  0  0  0  0  0  0  0  0  0  0
   57.5460   29.3700   45.0450 C   0  0  0  0  0  0  0  0  0  0  0  0
   58.7510   28.7330   45.4030 C   0  0  0  0  0  0  0  0  0  0  0  0
   58.7460   27.4400   45.9320 C   0  0  0  0  0  0  0  0  0  0  0  0
   57.5400   26.7610   46.1090 C   0  0  0  0  0  0  0  0  0  0  0  0
   56.3350   27.3720   45.7610 C   0  0  0  0  0  0  0  0  0  0  0  0
   55.1390   26.6870   45.9420 O   0  0  0  0  0  0  0  0  0  0  0  0
   56.3290   28.6700   45.2300 C   0  0  0  0  0  0  0  0  0  0  0  0
   55.1090   29.2490   44.8910 O   0  0  0  0  0  0  0  0  0  0  0  0
   60.1540   33.8870   48.1640 C   0  0  0  0  0  0  0  0  0  0  0  0
   61.0290   33.2730   49.0650 C   0  0  0  0  0  0  0  0  0  0  0  0
  1  2  1  0
  2  3  1  0
  3  4  2  0
  3  5  2  0
  3  6  1  0
  6  7  1  0
  7  8  2  0
  8  9  1  0
  9 10  2  0
 10 11  1  0
 11 12  1  0
 12 13  1  0
 13 14  1  0
 14 15  1  0
 15 16  2  0
 15 17  1  0
 17 18  2  0
 18 19  1  0
 19 20  2  0
 20 21  1  0
 21 22  1  0
 21 23  2  0
 23 24  1  0
 10 25  1  0
 25 26  2  0
 26  7  1  0
 23 17  1  0
M  CHG  4   6  -1  14  -1  22  -1  24  -1
M  END
>  <UniqueID>  (1511) 
51

>  <SMILES>  (1511) 
CCS(=O)(=O)[N-]c1ccc(SCC[N-]C(=O)c2cccc([O-])c2[O-])cc1

>  <Energy>  (1511) 
33.23230177958034

>  <Genealogy>  (1511) 
CCS(=O)(=O)[N-]c1ccc(SCC[N-]C(=O)c2cccc([O-])c2[O-])cc1 (protonated)
CCS(=O)(=O)[N-]c1ccc(SCC[N-]C(=O)c2cccc([O-])c2[O-])cc1 (3D coordinates assigned)
CCS(=O)(=O)[N-]c1ccc(SCC[N-]C(=O)c2cccc([O-])c2[O-])cc1 (optimized conformer: 33.23230177958034 kcal/mol)

>  <smiles>  (1511) 
CCS(=O)(=O)Nc1ccc(SCCNC(=O)c2cccc(O)c2O)cc1

>  <score_type>  (1511) 
oracle

>  <origin>  (1511) 
adg

>  <m_score__min__energy>  (1511) 
-17.07

>  <m_primary>  (1511) 
energy

$$$$
70:0
     RDKit          3D

 34 37  0  0  0  0  0  0  0  0999 V2000
   68.4800   33.2410   51.4350 O   0  0  0  0  0  0  0  0  0  0  0  0
   67.8890   33.4990   50.1920 C   0  0  0  0  0  0  0  0  0  0  0  0
   66.4920   32.8750   50.1330 C   0  0  0  0  0  0  0  0  0  0  0  0
   65.9240   32.6250   51.4800 N   0  0  0  0  0  0  0  0  0  0  0  0
   65.0250   31.4500   51.5420 C   0  0  0  0  0  0  0  0  0  0  0  0
   63.7560   31.6560   50.6980 C   0  0  0  0  0  0  0  0  0  0  0  0
   63.3170   33.0570   50.7630 N   0  0  0  0  0  0  0  0  0  0  0  0
   62.6660   33.6730   49.6330 C   0  0  0  0  0  0  0  0  0  0  0  0
   62.9320   34.8710   49.3410 O   0  0  0  0  0  0  0  0  0  0  0  0
   61.7100   32.9240   48.7900 C   0  0  0  0  0  0  0  0  0  0  0  0
   62.1650   32.2130   47.6670 C   0  0  0  0  0  0  0  0  0  0  0  0
   61.2660   31.5070   46.8630 C   0  0  0  0  0  0  0  0  0  0  0  0
   59.8960   31.5110   47.1650 C   0  0  0  0  0  0  0  0  0  0  0  0
   58.9720   30.7880   46.3320 N   0  0  0  0  0  0  0  0  0  0  0  0
   58.2660   31.3070   45.3020 C   0  0  0  0  0  0  0  0  0  0  0  0
   58.3230   32.7360   44.8540 C   0  0  0  0  0  0  0  0  0  0  0  0
   57.4610   30.3420   44.7360 C   0  0  0  0  0  0  0  0  0  0  0  0
   57.7080   29.1610   45.4190 C   0  0  0  0  0  0  0  0  0  0  0  0
   57.1280   27.9920   45.0790 C   0  0  0  0  0  0  0  0  0  0  0  0
   57.2040   26.7390   45.8550 C   0  0  0  0  0  0  0  0  0  0  0  0
   56.0330   26.1270   46.3240 C   0  0  0  0  0  0  0  0  0  0  0  0
   54.7920   26.7160   46.1110 O   0  0  0  0  0  0  0  0  0  0  0  0
   56.1060   24.9520   47.0010 N   0  0  0  0  0  0  0  0  0  0  0  0
   57.3000   24.3420   47.2210 C   0  0  0  0  0  0  0  0  0  0  0  0
   57.3440   23.2570   47.8550 O   0  0  0  0  0  0  0  0  0  0  0  0
   58.4460   24.9010   46.7530 N   0  0  0  0  0  0  0  0  0  0  0  0
   58.4250   26.0750   46.0700 C   0  0  0  0  0  0  0  0  0  0  0  0
   59.5050   26.5530   45.6300 O   0  0  0  0  0  0  0  0  0  0  0  0
   58.6280   29.4780   46.4330 C   0  0  0  0  0  0  0  0  0  0  0  0
   59.0310   28.6890   47.4420 C   0  0  0  0  0  0  0  0  0  0  0  0
   59.4360   32.2340   48.2730 C   0  0  0  0  0  0  0  0  0  0  0  0
   60.3340   32.9400   49.0780 C   0  0  0  0  0  0  0  0  0  0  0  0
   63.7450   33.8640   51.9080 C   0  0  0  0  0  0  0  0  0  0  0  0
   65.2830   33.8430   52.0440 C   0  0  0  0  0  0  0  0  0  0  0  0
  1  2  1  0
  2  3  1  0
  3  4  1  0
  4  5  1  0
  5  6  1  0
  6  7  1  0
  7  8  1  0
  8  9  2  0
  8 10  1  0
 10 11  2  0
 11 12  1  0
 12 13  2  0
 13 14  1  0
 14 15  1  0
 15 16  1  0
 15 17  2  0
 17 18  1  0
 18 19  2  0
 19 20  1  0
 20 21  2  0
 21 22  1  0
 21 23  1  0
 23 24  1  0
 24 25  2  0
 24 26  1  0
 26 27  1  0
 27 28  2  0
 18 29  1  0
 29 30  2  0
 13 31  1  0
 31 32  2  0
  7 33  1  0
 33 34  1  0
 34  4  1  0
 32 10  1  0
 29 14  1  0
 27 20  1  0
M  CHG  3  22  -1  23  -1  26  -1
M  END
>  <UniqueID>  (1512) 
67

>  <SMILES>  (1512) 
C=c1/c(=C\c2c([O-])[n-]c(=O)[n-]c2=O)cc(C)n1-c1ccc(C(=O)N2CCN(CCO)CC2)cc1

>  <Energy>  (1512) 
123.39100099979792

>  <Genealogy>  (1512) 
C=c1c(=Cc2c([O-])[n-]c(=O)[n-]c2=O)cc(C)n1-c1ccc(C(=O)N2CCN(CCO)CC2)cc1 (protonated)
C=c1/c(=C\c2c([O-])[n-]c(=O)[n-]c2=O)cc(C)n1-c1ccc(C(=O)N2CCN(CCO)CC2)cc1 (cis-trans isomerization)
C=c1/c(=C\c2c([O-])[n-]c(=O)[n-]c2=O)cc(C)n1-c1ccc(C(=O)N2CCN(CCO)CC2)cc1 (3D coordinates assigned)
C=c1/c(=C\c2c([O-])[n-]c(=O)[n-]c2=O)cc(C)n1-c1ccc(C(=O)N2CCN(CCO)CC2)cc1 (nonaromatic ring conformer: 123.39100099979792 kcal/mol)

>  <smiles>  (1512) 
C=c1c(=Cc2c(O)[nH]c(=O)[nH]c2=O)cc(C)n1-c1ccc(C(=O)N2CCN(CCO)CC2)cc1

>  <score_type>  (1512) 
oracle

>  <origin>  (1512) 
adg

>  <m_score__min__energy>  (1512) 
-15.51

>  <m_primary>  (1512) 
energy

$$$$
79:0
     RDKit          3D

 29 31  0  0  0  0  0  0  0  0999 V2000
   57.5420   31.1600   43.5030 C   0  0  0  0  0  0  0  0  0  0  0  0
   57.8840   31.0810   44.7980 C   0  0  0  0  0  0  0  0  0  0  0  0
   58.2300   29.9370   45.5360 C   0  0  0  0  0  0  0  0  0  0  0  0
   58.4010   28.6530   45.1570 C   0  0  0  0  0  0  0  0  0  0  0  0
   57.6210   27.5050   45.6520 C   0  0  0  0  0  0  0  0  0  0  0  0
   56.2160   27.5200   45.6240 C   0  0  0  0  0  0  0  0  0  0  0  0
   55.5270   28.6380   45.1710 O   0  0  0  0  0  0  0  0  0  0  0  0
   55.5200   26.4310   46.0410 N   0  0  0  0  0  0  0  0  0  0  0  0
   56.1600   25.3140   46.4740 C   0  0  0  0  0  0  0  0  0  0  0  0
   55.4960   24.3170   46.8570 O   0  0  0  0  0  0  0  0  0  0  0  0
   57.5180   25.2690   46.4880 N   0  0  0  0  0  0  0  0  0  0  0  0
   58.2580   26.3330   46.0820 C   0  0  0  0  0  0  0  0  0  0  0  0
   59.5150   26.2560   46.1040 O   0  0  0  0  0  0  0  0  0  0  0  0
   58.4030   30.4140   46.8350 C   0  0  0  0  0  0  0  0  0  0  0  0
   58.9140   29.6540   48.0190 C   0  0  0  0  0  0  0  0  0  0  0  0
   58.2160   31.7450   46.8610 N   0  0  0  0  0  0  0  0  0  0  0  0
   57.8990   32.1450   45.6410 N   0  0  0  0  0  0  0  0  0  0  0  0
   57.5960   33.5510   45.3420 C   0  0  0  0  0  0  0  0  0  0  0  0
   58.1560   34.5050   46.4080 C   0  0  0  0  0  0  0  0  0  0  0  0
   59.6360   34.7120   46.2710 C   0  0  0  0  0  0  0  0  0  0  0  0
   60.0790   35.8500   45.9590 O   0  0  0  0  0  0  0  0  0  0  0  0
   60.5330   33.6110   46.4730 N   0  0  0  0  0  0  0  0  0  0  0  0
   61.9820   33.7440   46.3730 C   0  0  0  0  0  0  0  0  0  0  0  0
   62.6070   33.6120   47.7330 C   0  0  0  0  0  0  0  0  0  0  0  0
   63.8790   33.0290   47.8680 C   0  0  0  0  0  0  0  0  0  0  0  0
   64.4500   32.8730   49.1350 C   0  0  0  0  0  0  0  0  0  0  0  0
   63.7580   33.2980   50.2720 C   0  0  0  0  0  0  0  0  0  0  0  0
   62.5070   33.9080   50.1410 C   0  0  0  0  0  0  0  0  0  0  0  0
   61.9340   34.0700   48.8770 C   0  0  0  0  0  0  0  0  0  0  0  0
  1  2  2  0
  2  3  1  0
  3  4  2  0
  4  5  1  0
  5  6  2  0
  6  7  1  0
  6  8  1  0
  8  9  1  0
  9 10  2  0
  9 11  1  0
 11 12  1  0
 12 13  2  0
  3 14  1  0
 14 15  1  0
 14 16  2  0
 16 17  1  0
 17 18  1  0
 18 19  1  0
 19 20  1  0
 20 21  2  0
 20 22  1  0
 22 23  1  0
 23 24  1  0
 24 25  2  0
 25 26  1  0
 26 27  2  0
 27 28  1  0
 28 29  2  0
 17  2  1  0
 29 24  1  0
 12  5  1  0
M  CHG  3   7  -1   8  -1  11  -1
M  END
>  <UniqueID>  (1513) 
76

>  <SMILES>  (1513) 
C=c1/c(=C\c2c([O-])[n-]c(=O)[n-]c2=O)c(C)nn1CCC(=O)NCc1ccccc1

>  <Energy>  (1513) 
85.732488373836

>  <Genealogy>  (1513) 
C=c1c(=Cc2c([O-])[n-]c(=O)[n-]c2=O)c(C)nn1CCC(=O)NCc1ccccc1 (protonated)
C=c1/c(=C\c2c([O-])[n-]c(=O)[n-]c2=O)c(C)nn1CCC(=O)NCc1ccccc1 (cis-trans isomerization)
C=c1/c(=C\c2c([O-])[n-]c(=O)[n-]c2=O)c(C)nn1CCC(=O)NCc1ccccc1 (3D coordinates assigned)
C=c1/c(=C\c2c([O-])[n-]c(=O)[n-]c2=O)c(C)nn1CCC(=O)NCc1ccccc1 (optimized conformer: 85.732488373836 kcal/mol)

>  <smiles>  (1513) 
C=c1c(=Cc2c(O)[nH]c(=O)[nH]c2=O)c(C)nn1CCC(=O)NCc1ccccc1

>  <score_type>  (1513) 
oracle

>  <origin>  (1513) 
adg

>  <m_score__min__energy>  (1513) 
-16.68

>  <m_primary>  (1513) 
energy

$$$$
83:0
     RDKit          3D

 31 34  0  0  0  0  0  0  0  0999 V2000
   59.0150   26.3370   47.4550 C   0  0  0  0  0  0  0  0  0  0  0  0
   58.4700   26.9260   46.3780 C   0  0  0  0  0  0  0  0  0  0  0  0
   57.7260   26.2980   45.3750 C   0  0  0  0  0  0  0  0  0  0  0  0
   57.3640   25.0010   45.3140 C   0  0  0  0  0  0  0  0  0  0  0  0
   55.9560   24.5510   45.2510 C   0  0  0  0  0  0  0  0  0  0  0  0
   54.8930   25.3980   45.6100 C   0  0  0  0  0  0  0  0  0  0  0  0
   55.1330   26.6990   46.0400 O   0  0  0  0  0  0  0  0  0  0  0  0
   53.6120   24.9570   45.5170 N   0  0  0  0  0  0  0  0  0  0  0  0
   53.3320   23.7080   45.0650 C   0  0  0  0  0  0  0  0  0  0  0  0
   52.1380   23.3190   44.9920 O   0  0  0  0  0  0  0  0  0  0  0  0
   54.3390   22.8800   44.6850 N   0  0  0  0  0  0  0  0  0  0  0  0
   55.6370   23.2740   44.7610 C   0  0  0  0  0  0  0  0  0  0  0  0
   56.5460   22.4810   44.3960 O   0  0  0  0  0  0  0  0  0  0  0  0
   57.3920   27.2870   44.4580 C   0  0  0  0  0  0  0  0  0  0  0  0
   57.9370   28.4640   44.9320 C   0  0  0  0  0  0  0  0  0  0  0  0
   57.8220   29.7920   44.2480 C   0  0  0  0  0  0  0  0  0  0  0  0
   58.5990   28.2450   46.0900 N   0  0  0  0  0  0  0  0  0  0  0  0
   59.2800   29.2420   46.8700 C   0  0  0  0  0  0  0  0  0  0  0  0
   58.7330   29.6750   48.0850 C   0  0  0  0  0  0  0  0  0  0  0  0
   59.3840   30.6500   48.8430 C   0  0  0  0  0  0  0  0  0  0  0  0
   60.5920   31.2120   48.3940 C   0  0  0  0  0  0  0  0  0  0  0  0
   61.2740   32.2060   49.1830 N   0  0  0  0  0  0  0  0  0  0  0  0
   62.0620   31.8340   50.3620 C   0  0  0  0  0  0  0  0  0  0  0  0
   63.5030   32.3690   50.2400 C   0  0  0  0  0  0  0  0  0  0  0  0
   63.6150   33.6270   49.4480 N   0  0  0  0  0  0  0  0  0  0  0  0
   64.1000   33.3630   48.0790 C   0  0  0  0  0  0  0  0  0  0  0  0
   62.3590   34.4140   49.4360 C   0  0  0  0  0  0  0  0  0  0  0  0
   61.1920   33.6240   48.8170 C   0  0  0  0  0  0  0  0  0  0  0  0
   61.1430   30.7660   47.1800 C   0  0  0  0  0  0  0  0  0  0  0  0
   60.4900   29.7910   46.4210 C   0  0  0  0  0  0  0  0  0  0  0  0
   61.0440   29.3660   45.2580 F   0  0  0  0  0  0  0  0  0  0  0  0
  1  2  2  0
  2  3  1  0
  3  4  2  0
  4  5  1  0
  5  6  2  0
  6  7  1  0
  6  8  1  0
  8  9  1  0
  9 10  2  0
  9 11  1  0
 11 12  1  0
 12 13  2  0
  3 14  1  0
 14 15  2  0
 15 16  1  0
 15 17  1  0
 17 18  1  0
 18 19  2  0
 19 20  1  0
 20 21  2  0
 21 22  1  0
 22 23  1  0
 23 24  1  0
 24 25  1  0
 25 26  1  0
 25 27  1  0
 27 28  1  0
 21 29  1  0
 29 30  2  0
 30 31  1  0
 17  2  1  0
 30 18  1  0
 12  5  1  0
 28 22  1  0
M  CHG  4   7  -1   8  -1  11  -1  25   1
M  END
>  <UniqueID>  (1514) 
80

>  <SMILES>  (1514) 
C=c1/c(=C/c2c([O-])[n-]c(=O)[n-]c2=O)cc(C)n1-c1ccc(N2CC[NH+](C)CC2)cc1F

>  <Energy>  (1514) 
113.13711588365959

>  <Genealogy>  (1514) 
C=c1c(=Cc2c([O-])[n-]c(=O)[n-]c2=O)cc(C)n1-c1ccc(N2CC[NH+](C)CC2)cc1F (protonated)
C=c1/c(=C/c2c([O-])[n-]c(=O)[n-]c2=O)cc(C)n1-c1ccc(N2CC[NH+](C)CC2)cc1F (cis-trans isomerization)
C=c1/c(=C/c2c([O-])[n-]c(=O)[n-]c2=O)cc(C)n1-c1ccc(N2CC[NH+](C)CC2)cc1F (3D coordinates assigned)
C=c1/c(=C/c2c([O-])[n-]c(=O)[n-]c2=O)cc(C)n1-c1ccc(N2CC[NH+](C)CC2)cc1F (nonaromatic ring conformer: 113.13711588365959 kcal/mol)

>  <smiles>  (1514) 
C=c1c(=Cc2c(O)[nH]c(=O)[nH]c2=O)cc(C)n1-c1ccc(N2CCN(C)CC2)cc1F

>  <score_type>  (1514) 
oracle

>  <origin>  (1514) 
adg

>  <m_score__min__energy>  (1514) 
-14.539999999999999

>  <m_primary>  (1514) 
energy

$$$$
84:0
     RDKit          3D

 29 32  0  0  0  0  0  0  0  0999 V2000
   54.7330   31.2560   51.6630 C   0  0  0  0  0  0  0  0  0  0  0  0
   54.5380   30.6190   52.8290 C   0  0  0  0  0  0  0  0  0  0  0  0
   53.3220   30.4490   53.5120 C   0  0  0  0  0  0  0  0  0  0  0  0
   52.0510   30.6910   53.1310 C   0  0  0  0  0  0  0  0  0  0  0  0
   51.6000   30.9320   51.7520 C   0  0  0  0  0  0  0  0  0  0  0  0
   51.8740   30.1090   50.7260 N   0  0  0  0  0  0  0  0  0  0  0  0
   51.3890   30.7740   49.6540 C   0  0  0  0  0  0  0  0  0  0  0  0
   51.4450   30.3090   48.4860 O   0  0  0  0  0  0  0  0  0  0  0  0
   50.8520   31.9810   49.9310 N   0  0  0  0  0  0  0  0  0  0  0  0
   51.0060   32.0740   51.2610 C   0  0  0  0  0  0  0  0  0  0  0  0
   50.6380   33.1880   52.0050 O   0  0  0  0  0  0  0  0  0  0  0  0
   53.6450   29.9400   54.7590 C   0  0  0  0  0  0  0  0  0  0  0  0
   55.0110   29.7500   54.7720 C   0  0  0  0  0  0  0  0  0  0  0  0
   55.7830   29.1950   55.9300 C   0  0  0  0  0  0  0  0  0  0  0  0
   55.5540   30.1650   53.6060 N   0  0  0  0  0  0  0  0  0  0  0  0
   56.9540   30.1480   53.2770 C   0  0  0  0  0  0  0  0  0  0  0  0
   57.3970   29.4500   52.1460 C   0  0  0  0  0  0  0  0  0  0  0  0
   58.7560   29.4180   51.8250 C   0  0  0  0  0  0  0  0  0  0  0  0
   59.6890   30.0890   52.6300 C   0  0  0  0  0  0  0  0  0  0  0  0
   61.1660   30.0330   52.3060 C   0  0  0  0  0  0  0  0  0  0  0  0
   61.5880   31.1620   51.4420 N   0  0  0  0  0  0  0  0  0  0  0  0
   61.5490   32.4470   52.1930 C   0  0  0  0  0  0  0  0  0  0  0  0
   60.2860   33.2640   51.8650 C   0  0  0  0  0  0  0  0  0  0  0  0
   60.1730   33.6050   50.4910 O   0  0  0  0  0  0  0  0  0  0  0  0
   60.7500   32.6430   49.6150 C   0  0  0  0  0  0  0  0  0  0  0  0
   60.7790   31.2190   50.1960 C   0  0  0  0  0  0  0  0  0  0  0  0
   59.2440   30.7910   53.7610 C   0  0  0  0  0  0  0  0  0  0  0  0
   57.8840   30.8230   54.0820 C   0  0  0  0  0  0  0  0  0  0  0  0
   57.4690   31.5260   55.1660 F   0  0  0  0  0  0  0  0  0  0  0  0
  1  2  2  0
  2  3  1  0
  3  4  2  0
  4  5  1  0
  5  6  1  0
  6  7  1  0
  7  8  2  0
  7  9  1  0
  9 10  1  0
 10 11  1  0
  3 12  1  0
 12 13  2  0
 13 14  1  0
 13 15  1  0
 15 16  1  0
 16 17  2  0
 17 18  1  0
 18 19  2  0
 19 20  1  0
 20 21  1  0
 21 22  1  0
 22 23  1  0
 23 24  1  0
 24 25  1  0
 25 26  1  0
 19 27  1  0
 27 28  2  0
 28 29  1  0
 15  2  1  0
 28 16  1  0
 10  5  2  0
 26 21  1  0
M  CHG  4   6  -1   9  -1  11  -1  21   1
M  END
>  <UniqueID>  (1515) 
81

>  <SMILES>  (1515) 
C=c1/c(=C\c2[n-]c(=O)[n-]c2[O-])cc(C)n1-c1ccc(C[NH+]2CCOCC2)cc1F

>  <Energy>  (1515) 
143.89271510900244

>  <Genealogy>  (1515) 
C=c1c(=Cc2[n-]c(=O)[n-]c2[O-])cc(C)n1-c1ccc(C[NH+]2CCOCC2)cc1F (protonated)
C=c1/c(=C\c2[n-]c(=O)[n-]c2[O-])cc(C)n1-c1ccc(C[NH+]2CCOCC2)cc1F (cis-trans isomerization)
C=c1/c(=C\c2[n-]c(=O)[n-]c2[O-])cc(C)n1-c1ccc(C[NH+]2CCOCC2)cc1F (3D coordinates assigned)
C=c1/c(=C\c2[n-]c(=O)[n-]c2[O-])cc(C)n1-c1ccc(C[NH+]2CCOCC2)cc1F (nonaromatic ring conformer: 143.89271510900244 kcal/mol)

>  <smiles>  (1515) 
C=c1c(=Cc2[nH]c(=O)[nH]c2O)cc(C)n1-c1ccc(CN2CCOCC2)cc1F

>  <score_type>  (1515) 
oracle

>  <origin>  (1515) 
adg

>  <m_score__min__energy>  (1515) 
-14.609999999999999

>  <m_primary>  (1515) 
energy

$$$$
86:0
     RDKit          3D

 24 25  0  0  0  0  0  0  0  0999 V2000
   60.6410   34.2430   48.6030 C   0  0  0  0  0  0  0  0  0  0  0  0
   59.7760   34.6150   47.5350 O   0  0  0  0  0  0  0  0  0  0  0  0
   59.0020   33.7110   46.7910 C   0  0  0  0  0  0  0  0  0  0  0  0
   58.9760   32.3310   47.0700 C   0  0  0  0  0  0  0  0  0  0  0  0
   58.1920   31.4710   46.2950 C   0  0  0  0  0  0  0  0  0  0  0  0
   57.4450   31.9680   45.2220 C   0  0  0  0  0  0  0  0  0  0  0  0
   56.6520   31.0590   44.4450 N   0  0  0  0  0  0  0  0  0  0  0  0
   56.3650   29.6900   44.7670 C   0  0  0  0  0  0  0  0  0  0  0  0
   55.1620   29.3350   44.8750 O   0  0  0  0  0  0  0  0  0  0  0  0
   57.4460   28.6750   45.0140 C   0  0  0  0  0  0  0  0  0  0  0  0
   57.0640   27.7900   46.1060 N   0  0  0  0  0  0  0  0  0  0  0  0
   56.4080   26.5370   45.9000 C   0  0  0  0  0  0  0  0  0  0  0  0
   55.1540   26.4490   46.0050 O   0  0  0  0  0  0  0  0  0  0  0  0
   57.2070   25.3330   45.5090 C   0  0  0  0  0  0  0  0  0  0  0  0
   57.0290   24.2460   46.4690 N   0  0  0  0  0  0  0  0  0  0  0  0
   56.9500   22.8410   46.1820 C   0  0  0  0  0  0  0  0  0  0  0  0
   57.1150   22.0290   47.1300 O   0  0  0  0  0  0  0  0  0  0  0  0
   56.6400   22.3030   44.8450 C   0  0  0  0  0  0  0  0  0  0  0  0
   56.7730   21.0090   44.3890 C   0  0  0  0  0  0  0  0  0  0  0  0
   56.3010   20.9790   43.1300 N   0  0  0  0  0  0  0  0  0  0  0  0
   55.8920   22.2050   42.8400 N   0  0  0  0  0  0  0  0  0  0  0  0
   56.0750   23.0270   43.8640 N   0  0  0  0  0  0  0  0  0  0  0  0
   57.4460   33.3470   44.9620 C   0  0  0  0  0  0  0  0  0  0  0  0
   58.2280   34.2090   45.7360 C   0  0  0  0  0  0  0  0  0  0  0  0
  1  2  1  0
  2  3  1  0
  3  4  2  0
  4  5  1  0
  5  6  2  0
  6  7  1  0
  7  8  1  0
  8  9  2  0
  8 10  1  0
 10 11  1  0
 11 12  1  0
 12 13  2  0
 12 14  1  0
 14 15  1  0
 15 16  1  0
 16 17  2  0
 16 18  1  0
 18 19  2  0
 19 20  1  0
 20 21  1  0
 21 22  2  0
  6 23  1  0
 23 24  2  0
 24  3  1  0
 22 18  1  0
M  CHG  4   7  -1  11  -1  15  -1  20  -1
M  END
>  <UniqueID>  (1516) 
83

>  <SMILES>  (1516) 
COc1ccc([N-]C(=O)C[N-]C(=O)C[N-]C(=O)c2c[n-]nn2)cc1

>  <Energy>  (1516) 
72.20766421976911

>  <Genealogy>  (1516) 
COc1ccc([N-]C(=O)C[N-]C(=O)C[N-]C(=O)c2c[n-]nn2)cc1 (protonated)
COc1ccc([N-]C(=O)C[N-]C(=O)C[N-]C(=O)c2c[n-]nn2)cc1 (3D coordinates assigned)
COc1ccc([N-]C(=O)C[N-]C(=O)C[N-]C(=O)c2c[n-]nn2)cc1 (optimized conformer: 72.20766421976911 kcal/mol)

>  <smiles>  (1516) 
COc1ccc(NC(=O)CNC(=O)CNC(=O)c2c[nH]nn2)cc1

>  <score_type>  (1516) 
oracle

>  <origin>  (1516) 
adg

>  <m_score__min__energy>  (1516) 
-14.619999999999999

>  <m_primary>  (1516) 
energy

$$$$
0:0
     RDKit          3D

 31 34  0  0  0  0  0  0  0  0999 V2000
   59.1540   29.6980   48.1790 C   0  0  0  0  0  0  0  0  0  0  0  0
   58.5270   29.4600   47.0170 C   0  0  0  0  0  0  0  0  0  0  0  0
   57.9660   28.2450   46.6080 C   0  0  0  0  0  0  0  0  0  0  0  0
   57.9710   27.0760   47.2790 C   0  0  0  0  0  0  0  0  0  0  0  0
   57.1370   25.9170   46.9210 C   0  0  0  0  0  0  0  0  0  0  0  0
   57.4680   24.6480   47.2230 N   0  0  0  0  0  0  0  0  0  0  0  0
   56.4030   23.9350   46.7950 C   0  0  0  0  0  0  0  0  0  0  0  0
   56.3430   22.6820   46.8940 O   0  0  0  0  0  0  0  0  0  0  0  0
   55.4040   24.6710   46.2630 N   0  0  0  0  0  0  0  0  0  0  0  0
   55.8780   25.9240   46.3610 C   0  0  0  0  0  0  0  0  0  0  0  0
   55.1510   27.0490   45.9910 O   0  0  0  0  0  0  0  0  0  0  0  0
   57.4510   28.4630   45.3360 C   0  0  0  0  0  0  0  0  0  0  0  0
   57.6950   29.7870   45.0310 C   0  0  0  0  0  0  0  0  0  0  0  0
   57.3240   30.4470   43.7380 C   0  0  0  0  0  0  0  0  0  0  0  0
   58.3560   30.3890   46.0440 N   0  0  0  0  0  0  0  0  0  0  0  0
   58.7710   31.7640   46.0750 C   0  0  0  0  0  0  0  0  0  0  0  0
   60.0760   32.0920   46.4690 C   0  0  0  0  0  0  0  0  0  0  0  0
   60.4920   33.4340   46.5230 C   0  0  0  0  0  0  0  0  0  0  0  0
   61.8690   33.7830   46.9390 C   0  0  0  0  0  0  0  0  0  0  0  0
   62.6930   34.1820   46.0700 O   0  0  0  0  0  0  0  0  0  0  0  0
   62.2910   33.6750   48.3130 N   0  0  0  0  0  0  0  0  0  0  0  0
   63.7130   33.5650   48.6630 C   0  0  0  0  0  0  0  0  0  0  0  0
   63.9440   32.3870   49.5670 C   0  0  0  0  0  0  0  0  0  0  0  0
   65.1180   31.9710   49.7530 O   0  0  0  0  0  0  0  0  0  0  0  0
   62.8540   31.7740   50.2700 N   0  0  0  0  0  0  0  0  0  0  0  0
   61.4590   32.0520   49.9300 C   0  0  0  0  0  0  0  0  0  0  0  0
   61.3060   33.4670   49.3790 C   0  0  0  0  0  0  0  0  0  0  0  0
   59.5890   34.4430   46.1470 C   0  0  0  0  0  0  0  0  0  0  0  0
   58.2890   34.1190   45.7510 C   0  0  0  0  0  0  0  0  0  0  0  0
   57.8770   32.7840   45.7170 C   0  0  0  0  0  0  0  0  0  0  0  0
   56.6180   32.4810   45.3140 F   0  0  0  0  0  0  0  0  0  0  0  0
  1  2  2  0
  2  3  1  0
  3  4  2  0
  4  5  1  0
  5  6  1  0
  6  7  1  0
  7  8  2  0
  7  9  1  0
  9 10  1  0
 10 11  1  0
  3 12  1  0
 12 13  2  0
 13 14  1  0
 13 15  1  0
 15 16  1  0
 16 17  2  0
 17 18  1  0
 18 19  1  0
 19 20  2  0
 19 21  1  0
 21 22  1  0
 22 23  1  0
 23 24  2  0
 23 25  1  0
 25 26  1  0
 26 27  1  0
 18 28  2  0
 28 29  1  0
 29 30  2  0
 30 31  1  0
 15  2  1  0
 30 16  1  0
 10  5  2  0
 27 21  1  0
M  CHG  3   6  -1   9  -1  11  -1
M  END
>  <UniqueID>  (1517) 
1

>  <SMILES>  (1517) 
C=c1/c(=C/c2[n-]c(=O)[n-]c2[O-])cc(C)n1-c1cc(C(=O)N2CCNC(=O)C2)ccc1F

>  <Energy>  (1517) 
126.50287221491715

>  <Genealogy>  (1517) 
C=c1c(=Cc2[n-]c(=O)[n-]c2[O-])cc(C)n1-c1cc(C(=O)N2CCNC(=O)C2)ccc1F (protonated)
C=c1/c(=C/c2[n-]c(=O)[n-]c2[O-])cc(C)n1-c1cc(C(=O)N2CCNC(=O)C2)ccc1F (cis-trans isomerization)
C=c1/c(=C/c2[n-]c(=O)[n-]c2[O-])cc(C)n1-c1cc(C(=O)N2CCNC(=O)C2)ccc1F (3D coordinates assigned)
C=c1/c(=C/c2[n-]c(=O)[n-]c2[O-])cc(C)n1-c1cc(C(=O)N2CCNC(=O)C2)ccc1F (nonaromatic ring conformer: 126.50287221491715 kcal/mol)

>  <smiles>  (1517) 
C=c1c(=Cc2[nH]c(=O)[nH]c2O)cc(C)n1-c1cc(C(=O)N2CCNC(=O)C2)ccc1F

>  <score_type>  (1517) 
oracle

>  <origin>  (1517) 
adg

>  <m_score__min__energy>  (1517) 
-16.289999999999999

>  <m_primary>  (1517) 
energy

$$$$
3:0
     RDKit          3D

 23 25  0  0  0  0  0  0  0  0999 V2000
   58.9790   30.1950   47.6820 C   0  0  0  0  0  0  0  0  0  0  0  0
   58.4720   30.9140   46.6660 C   0  0  0  0  0  0  0  0  0  0  0  0
   58.1450   30.4220   45.3980 C   0  0  0  0  0  0  0  0  0  0  0  0
   58.2370   29.1490   44.9640 C   0  0  0  0  0  0  0  0  0  0  0  0
   57.3610   28.0560   45.4240 C   0  0  0  0  0  0  0  0  0  0  0  0
   57.8160   26.9760   46.0840 N   0  0  0  0  0  0  0  0  0  0  0  0
   56.6890   26.2940   46.3820 C   0  0  0  0  0  0  0  0  0  0  0  0
   56.7040   25.1980   47.0000 O   0  0  0  0  0  0  0  0  0  0  0  0
   55.5450   26.8840   45.9770 N   0  0  0  0  0  0  0  0  0  0  0  0
   55.9850   28.0050   45.3830 C   0  0  0  0  0  0  0  0  0  0  0  0
   55.1430   28.9780   44.8590 O   0  0  0  0  0  0  0  0  0  0  0  0
   57.7780   31.5210   44.6380 C   0  0  0  0  0  0  0  0  0  0  0  0
   57.8690   32.6240   45.4620 C   0  0  0  0  0  0  0  0  0  0  0  0
   57.6620   34.0350   44.9990 C   0  0  0  0  0  0  0  0  0  0  0  0
   58.2560   32.2570   46.7100 N   0  0  0  0  0  0  0  0  0  0  0  0
   58.4810   33.1670   47.8470 C   0  0  0  0  0  0  0  0  0  0  0  0
   59.6470   34.1730   47.6210 C   0  0  0  0  0  0  0  0  0  0  0  0
   61.0340   33.6540   47.7520 N   0  0  0  0  0  0  0  0  0  0  0  0
   61.7420   34.1650   48.9460 C   0  0  0  0  0  0  0  0  0  0  0  0
   62.8820   33.2210   49.3770 C   0  0  0  0  0  0  0  0  0  0  0  0
   63.6700   32.3170   47.9850 S   0  0  0  0  0  0  0  0  0  0  0  0
   63.3400   33.5850   46.7190 C   0  0  0  0  0  0  0  0  0  0  0  0
   61.8290   33.7950   46.5050 C   0  0  0  0  0  0  0  0  0  0  0  0
  1  2  2  0
  2  3  1  0
  3  4  2  0
  4  5  1  0
  5  6  1  0
  6  7  1  0
  7  8  2  0
  7  9  1  0
  9 10  1  0
 10 11  1  0
  3 12  1  0
 12 13  2  0
 13 14  1  0
 13 15  1  0
 15 16  1  0
 16 17  1  0
 17 18  1  0
 18 19  1  0
 19 20  1  0
 20 21  1  0
 21 22  1  0
 22 23  1  0
 15  2  1  0
 23 18  1  0
 10  5  2  0
M  CHG  4   6  -1   9  -1  11  -1  18   1
M  END
>  <UniqueID>  (1518) 
4

>  <SMILES>  (1518) 
C=c1/c(=C/c2[n-]c(=O)[n-]c2[O-])cc(C)n1CC[NH+]1CCSCC1

>  <Energy>  (1518) 
119.47117728895894

>  <Genealogy>  (1518) 
C=c1c(=Cc2[n-]c(=O)[n-]c2[O-])cc(C)n1CC[NH+]1CCSCC1 (protonated)
C=c1/c(=C/c2[n-]c(=O)[n-]c2[O-])cc(C)n1CC[NH+]1CCSCC1 (cis-trans isomerization)
C=c1/c(=C/c2[n-]c(=O)[n-]c2[O-])cc(C)n1CC[NH+]1CCSCC1 (3D coordinates assigned)
C=c1/c(=C/c2[n-]c(=O)[n-]c2[O-])cc(C)n1CC[NH+]1CCSCC1 (nonaromatic ring conformer: 119.47117728895894 kcal/mol)

>  <smiles>  (1518) 
C=c1c(=Cc2[nH]c(=O)[nH]c2O)cc(C)n1CCN1CCSCC1

>  <score_type>  (1518) 
oracle

>  <origin>  (1518) 
adg

>  <m_score__min__energy>  (1518) 
-14.34

>  <m_primary>  (1518) 
energy

$$$$
9:0
     RDKit          3D

 29 32  0  0  0  0  0  0  0  0999 V2000
   56.5030   29.6680   44.5470 C   0  0  0  0  0  0  0  0  0  0  0  0
   57.6950   29.2600   45.0100 C   0  0  0  0  0  0  0  0  0  0  0  0
   58.2150   27.9560   44.9840 C   0  0  0  0  0  0  0  0  0  0  0  0
   57.6440   26.7750   44.6710 C   0  0  0  0  0  0  0  0  0  0  0  0
   57.1120   25.7850   45.6200 C   0  0  0  0  0  0  0  0  0  0  0  0
   57.8590   24.8100   46.1660 N   0  0  0  0  0  0  0  0  0  0  0  0
   57.0220   24.2340   47.0560 C   0  0  0  0  0  0  0  0  0  0  0  0
   57.3600   23.2520   47.7670 O   0  0  0  0  0  0  0  0  0  0  0  0
   55.7990   24.8010   47.1330 N   0  0  0  0  0  0  0  0  0  0  0  0
   55.8770   25.7910   46.2300 C   0  0  0  0  0  0  0  0  0  0  0  0
   54.8480   26.6910   45.9850 O   0  0  0  0  0  0  0  0  0  0  0  0
   59.5480   28.0670   45.3450 C   0  0  0  0  0  0  0  0  0  0  0  0
   59.7830   29.3960   45.6250 C   0  0  0  0  0  0  0  0  0  0  0  0
   61.1270   29.9460   46.0010 C   0  0  0  0  0  0  0  0  0  0  0  0
   58.6550   30.1190   45.4430 N   0  0  0  0  0  0  0  0  0  0  0  0
   58.5180   31.5430   45.6210 C   0  0  0  0  0  0  0  0  0  0  0  0
   58.0730   32.3410   44.5530 C   0  0  0  0  0  0  0  0  0  0  0  0
   57.8210   31.7830   43.3430 F   0  0  0  0  0  0  0  0  0  0  0  0
   57.8610   33.7090   44.7380 C   0  0  0  0  0  0  0  0  0  0  0  0
   58.0750   34.2900   45.9900 C   0  0  0  0  0  0  0  0  0  0  0  0
   58.5120   33.5070   47.0610 C   0  0  0  0  0  0  0  0  0  0  0  0
   58.7500   32.1360   46.8830 C   0  0  0  0  0  0  0  0  0  0  0  0
   59.2330   31.3310   48.0190 C   0  0  0  0  0  0  0  0  0  0  0  0
   58.4980   30.4200   48.4880 O   0  0  0  0  0  0  0  0  0  0  0  0
   60.5310   31.5650   48.5820 N   0  0  0  0  0  0  0  0  0  0  0  0
   61.1230   32.8830   48.7090 C   0  0  0  0  0  0  0  0  0  0  0  0
   62.5270   32.6460   49.2440 C   0  0  0  0  0  0  0  0  0  0  0  0
   62.5100   31.2400   49.8410 C   0  0  0  0  0  0  0  0  0  0  0  0
   61.3440   30.5200   49.1760 C   0  0  0  0  0  0  0  0  0  0  0  0
  1  2  2  0
  2  3  1  0
  3  4  2  0
  4  5  1  0
  5  6  1  0
  6  7  1  0
  7  8  2  0
  7  9  1  0
  9 10  1  0
 10 11  1  0
  3 12  1  0
 12 13  2  0
 13 14  1  0
 13 15  1  0
 15 16  1  0
 16 17  2  0
 17 18  1  0
 17 19  1  0
 19 20  2  0
 20 21  1  0
 21 22  2  0
 22 23  1  0
 23 24  2  0
 23 25  1  0
 25 26  1  0
 26 27  1  0
 27 28  1  0
 28 29  1  0
 15  2  1  0
 22 16  1  0
 29 25  1  0
 10  5  2  0
M  CHG  3   6  -1   9  -1  11  -1
M  END
>  <UniqueID>  (1519) 
10

>  <SMILES>  (1519) 
C=c1/c(=C\c2[n-]c(=O)[n-]c2[O-])cc(C)n1-c1c(F)cccc1C(=O)N1CCCC1

>  <Energy>  (1519) 
129.98727658588248

>  <Genealogy>  (1519) 
C=c1c(=Cc2[n-]c(=O)[n-]c2[O-])cc(C)n1-c1c(F)cccc1C(=O)N1CCCC1 (protonated)
C=c1/c(=C\c2[n-]c(=O)[n-]c2[O-])cc(C)n1-c1c(F)cccc1C(=O)N1CCCC1 (cis-trans isomerization)
C=c1/c(=C\c2[n-]c(=O)[n-]c2[O-])cc(C)n1-c1c(F)cccc1C(=O)N1CCCC1 (3D coordinates assigned)
C=c1/c(=C\c2[n-]c(=O)[n-]c2[O-])cc(C)n1-c1c(F)cccc1C(=O)N1CCCC1 (nonaromatic ring conformer: 129.98727658588248 kcal/mol)

>  <smiles>  (1519) 
C=c1c(=Cc2[nH]c(=O)[nH]c2O)cc(C)n1-c1c(F)cccc1C(=O)N1CCCC1

>  <score_type>  (1519) 
oracle

>  <origin>  (1519) 
adg

>  <m_score__min__energy>  (1519) 
-16.420000000000002

>  <m_primary>  (1519) 
energy

$$$$
10:0
     RDKit          3D

 28 30  0  0  0  0  0  0  0  0999 V2000
   63.2110   34.1770   48.3610 O   0  0  0  0  0  0  0  0  0  0  0  0
   63.2800   33.3090   47.2620 C   0  0  0  0  0  0  0  0  0  0  0  0
   61.8990   32.9260   46.8080 C   0  0  0  0  0  0  0  0  0  0  0  0
   60.7820   33.5960   47.1500 C   0  0  0  0  0  0  0  0  0  0  0  0
   60.0900   33.2740   48.4190 C   0  0  0  0  0  0  0  0  0  0  0  0
   60.3890   34.0030   49.5300 N   0  0  0  0  0  0  0  0  0  0  0  0
   59.8040   33.7640   50.7330 C   0  0  0  0  0  0  0  0  0  0  0  0
   58.8610   32.7460   50.8620 C   0  0  0  0  0  0  0  0  0  0  0  0
   58.5160   31.9880   49.7420 C   0  0  0  0  0  0  0  0  0  0  0  0
   59.1170   32.2490   48.5050 C   0  0  0  0  0  0  0  0  0  0  0  0
   58.7130   31.4950   47.3450 N   0  0  0  0  0  0  0  0  0  0  0  0
   57.9640   31.9650   46.3230 C   0  0  0  0  0  0  0  0  0  0  0  0
   57.4780   33.3770   46.1970 C   0  0  0  0  0  0  0  0  0  0  0  0
   57.7300   30.9680   45.3990 C   0  0  0  0  0  0  0  0  0  0  0  0
   58.3560   29.8260   45.8800 C   0  0  0  0  0  0  0  0  0  0  0  0
   58.3860   28.6210   45.2770 C   0  0  0  0  0  0  0  0  0  0  0  0
   57.5470   27.4780   45.6960 C   0  0  0  0  0  0  0  0  0  0  0  0
   56.1490   27.5670   45.6210 C   0  0  0  0  0  0  0  0  0  0  0  0
   55.5370   28.7370   45.1880 O   0  0  0  0  0  0  0  0  0  0  0  0
   55.3790   26.5070   45.9830 N   0  0  0  0  0  0  0  0  0  0  0  0
   55.9410   25.3460   46.4070 C   0  0  0  0  0  0  0  0  0  0  0  0
   55.2080   24.3800   46.7420 O   0  0  0  0  0  0  0  0  0  0  0  0
   57.2920   25.2240   46.4640 N   0  0  0  0  0  0  0  0  0  0  0  0
   58.1050   26.2530   46.1100 C   0  0  0  0  0  0  0  0  0  0  0  0
   59.3540   26.0910   46.1420 O   0  0  0  0  0  0  0  0  0  0  0  0
   58.9700   30.1890   47.0820 C   0  0  0  0  0  0  0  0  0  0  0  0
   59.7200   29.3990   47.8660 C   0  0  0  0  0  0  0  0  0  0  0  0
   60.2460   34.7220   46.3050 C   0  0  0  0  0  0  0  0  0  0  0  0
  1  2  1  0
  2  3  1  0
  3  4  2  0
  4  5  1  0
  5  6  2  0
  6  7  1  0
  7  8  2  0
  8  9  1  0
  9 10  2  0
 10 11  1  0
 11 12  1  0
 12 13  1  0
 12 14  2  0
 14 15  1  0
 15 16  2  3
 16 17  1  0
 17 18  2  0
 18 19  1  0
 18 20  1  0
 20 21  1  0
 21 22  2  0
 21 23  1  0
 23 24  1  0
 24 25  2  0
 15 26  1  0
 26 27  2  0
  4 28  1  0
 10  5  1  0
 26 11  1  0
 24 17  1  0
M  CHG  3  19  -1  20  -1  23  -1
M  END
>  <UniqueID>  (1520) 
11

>  <SMILES>  (1520) 
C=c1c(=Cc2c([O-])[n-]c(=O)[n-]c2=O)cc(C)n1-c1cccnc1/C(C)=C/CO

>  <Energy>  (1520) 
94.15071626675586

>  <Genealogy>  (1520) 
C=c1c(=Cc2c([O-])[n-]c(=O)[n-]c2=O)cc(C)n1-c1cccnc1C(C)=CCO (protonated)
C=c1c(=Cc2c([O-])[n-]c(=O)[n-]c2=O)cc(C)n1-c1cccnc1/C(C)=C/CO (cis-trans isomerization)
C=c1c(=Cc2c([O-])[n-]c(=O)[n-]c2=O)cc(C)n1-c1cccnc1/C(C)=C/CO (3D coordinates assigned)
C=c1c(=Cc2c([O-])[n-]c(=O)[n-]c2=O)cc(C)n1-c1cccnc1/C(C)=C/CO (optimized conformer: 94.15071626675586 kcal/mol)

>  <smiles>  (1520) 
C=c1c(=Cc2c(O)[nH]c(=O)[nH]c2=O)cc(C)n1-c1cccnc1C(C)=CCO

>  <score_type>  (1520) 
oracle

>  <origin>  (1520) 
adg

>  <m_score__min__energy>  (1520) 
-15.93

>  <m_primary>  (1520) 
energy

$$$$
11:0
     RDKit          3D

 28 30  0  0  0  0  0  0  0  0999 V2000
   58.9840   33.7480   45.8770 C   0  0  0  0  0  0  0  0  0  0  0  0
   59.2730   32.7170   46.8150 O   0  0  0  0  0  0  0  0  0  0  0  0
   59.3890   32.8810   48.2080 C   0  0  0  0  0  0  0  0  0  0  0  0
   58.4440   32.2210   49.0060 C   0  0  0  0  0  0  0  0  0  0  0  0
   58.5000   32.3000   50.4000 C   0  0  0  0  0  0  0  0  0  0  0  0
   57.5780   31.6480   51.1530 N   0  0  0  0  0  0  0  0  0  0  0  0
   57.6060   31.7130   52.5120 C   0  0  0  0  0  0  0  0  0  0  0  0
   56.5650   31.0000   53.3160 C   0  0  0  0  0  0  0  0  0  0  0  0
   56.2870   29.6340   52.7550 C   0  0  0  0  0  0  0  0  0  0  0  0
   57.1480   28.7260   52.8980 O   0  0  0  0  0  0  0  0  0  0  0  0
   55.0730   29.3300   52.0580 N   0  0  0  0  0  0  0  0  0  0  0  0
   53.7450   29.3110   52.6600 C   0  0  0  0  0  0  0  0  0  0  0  0
   52.7960   30.0910   51.7950 C   0  0  0  0  0  0  0  0  0  0  0  0
   52.5930   29.7260   50.4550 C   0  0  0  0  0  0  0  0  0  0  0  0
   51.7370   30.4790   49.6420 C   0  0  0  0  0  0  0  0  0  0  0  0
   51.0910   31.6070   50.1560 C   0  0  0  0  0  0  0  0  0  0  0  0
   50.2450   32.3530   49.3430 O   0  0  0  0  0  0  0  0  0  0  0  0
   51.3030   31.9890   51.4880 C   0  0  0  0  0  0  0  0  0  0  0  0
   50.6730   33.1180   51.9990 O   0  0  0  0  0  0  0  0  0  0  0  0
   52.1550   31.2340   52.3050 C   0  0  0  0  0  0  0  0  0  0  0  0
   58.5820   32.4220   53.1360 N   0  0  0  0  0  0  0  0  0  0  0  0
   59.5290   33.0950   52.4310 C   0  0  0  0  0  0  0  0  0  0  0  0
   60.4100   33.7510   53.0510 O   0  0  0  0  0  0  0  0  0  0  0  0
   59.5110   33.0540   51.0230 C   0  0  0  0  0  0  0  0  0  0  0  0
   60.4530   33.7370   50.2350 C   0  0  0  0  0  0  0  0  0  0  0  0
   60.3930   33.6720   48.8260 C   0  0  0  0  0  0  0  0  0  0  0  0
   61.2970   34.3940   48.0260 O   0  0  0  0  0  0  0  0  0  0  0  0
   62.4360   33.8430   47.3710 C   0  0  0  0  0  0  0  0  0  0  0  0
  1  2  1  0
  2  3  1  0
  3  4  2  0
  4  5  1  0
  5  6  1  0
  6  7  1  0
  7  8  1  0
  8  9  1  0
  9 10  2  0
  9 11  1  0
 11 12  1  0
 12 13  1  0
 13 14  2  0
 14 15  1  0
 15 16  2  0
 16 17  1  0
 16 18  1  0
 18 19  1  0
 18 20  2  0
  7 21  2  0
 21 22  1  0
 22 23  2  0
 22 24  1  0
 24 25  1  0
 25 26  2  0
 26 27  1  0
 27 28  1  0
 26  3  1  0
 24  5  2  0
 20 13  1  0
M  CHG  4   6  -1  11  -1  17  -1  19  -1
M  END
>  <UniqueID>  (1521) 
12

>  <SMILES>  (1521) 
COc1cc2[n-]c(CC(=O)[N-]Cc3ccc([O-])c([O-])c3)nc(=O)c2cc1OC

>  <Energy>  (1521) 
48.23896698448703

>  <Genealogy>  (1521) 
COc1cc2[n-]c(CC(=O)[N-]Cc3ccc([O-])c([O-])c3)nc(=O)c2cc1OC (protonated)
COc1cc2[n-]c(CC(=O)[N-]Cc3ccc([O-])c([O-])c3)nc(=O)c2cc1OC (3D coordinates assigned)
COc1cc2[n-]c(CC(=O)[N-]Cc3ccc([O-])c([O-])c3)nc(=O)c2cc1OC (optimized conformer: 48.23896698448703 kcal/mol)

>  <smiles>  (1521) 
COc1cc2[nH]c(CC(=O)NCc3ccc(O)c(O)c3)nc(=O)c2cc1OC

>  <score_type>  (1521) 
oracle

>  <origin>  (1521) 
adg

>  <m_score__min__energy>  (1521) 
-17.809999999999999

>  <m_primary>  (1521) 
energy

$$$$
12:0
     RDKit          3D

 26 28  0  0  0  0  0  0  0  0999 V2000
   57.1370   25.5240   47.7160 O   0  0  0  0  0  0  0  0  0  0  0  0
   58.1560   26.1280   47.2850 C   0  0  0  0  0  0  0  0  0  0  0  0
   58.2440   26.5250   45.8310 C   0  0  0  0  0  0  0  0  0  0  0  0
   57.3470   27.6820   45.4950 C   0  0  0  0  0  0  0  0  0  0  0  0
   57.7960   28.8860   45.0980 N   0  0  0  0  0  0  0  0  0  0  0  0
   56.6640   29.6080   44.9510 C   0  0  0  0  0  0  0  0  0  0  0  0
   56.6710   30.8090   44.5760 O   0  0  0  0  0  0  0  0  0  0  0  0
   55.5260   28.9420   45.2410 N   0  0  0  0  0  0  0  0  0  0  0  0
   55.9730   27.7250   45.5910 C   0  0  0  0  0  0  0  0  0  0  0  0
   55.1370   26.6890   45.9980 O   0  0  0  0  0  0  0  0  0  0  0  0
   59.2390   26.3770   48.1920 N   0  0  0  0  0  0  0  0  0  0  0  0
   60.4240   27.1750   47.8910 C   0  0  0  0  0  0  0  0  0  0  0  0
   60.0480   28.6010   47.6420 C   0  0  0  0  0  0  0  0  0  0  0  0
   60.4150   29.3590   46.5350 C   0  0  0  0  0  0  0  0  0  0  0  0
   59.9360   30.6730   46.5840 C   0  0  0  0  0  0  0  0  0  0  0  0
   59.1920   30.9360   47.7250 C   0  0  0  0  0  0  0  0  0  0  0  0
   58.4900   32.4870   48.1550 S   0  0  0  0  0  0  0  0  0  0  0  0
   57.8070   32.3480   49.4880 O   0  0  0  0  0  0  0  0  0  0  0  0
   57.4460   32.8490   47.1350 O   0  0  0  0  0  0  0  0  0  0  0  0
   59.6870   33.7610   48.2520 N   0  0  0  0  0  0  0  0  0  0  0  0
   59.3000   34.9620   47.4880 C   0  0  0  0  0  0  0  0  0  0  0  0
   59.5960   34.8350   45.9750 C   0  0  0  0  0  0  0  0  0  0  0  0
   60.4280   33.7380   45.6520 O   0  0  0  0  0  0  0  0  0  0  0  0
   61.5230   33.6910   46.5360 C   0  0  0  0  0  0  0  0  0  0  0  0
   61.0530   33.2830   47.9420 C   0  0  0  0  0  0  0  0  0  0  0  0
   59.1060   29.5470   48.6680 S   0  0  0  0  0  0  0  0  0  0  0  0
  1  2  2  0
  2  3  1  0
  3  4  1  0
  4  5  1  0
  5  6  1  0
  6  7  2  0
  6  8  1  0
  8  9  1  0
  9 10  1  0
  2 11  1  0
 11 12  1  0
 12 13  1  0
 13 14  2  0
 14 15  1  0
 15 16  2  0
 16 17  1  0
 17 18  2  0
 17 19  2  0
 17 20  1  0
 20 21  1  0
 21 22  1  0
 22 23  1  0
 23 24  1  0
 24 25  1  0
 16 26  1  0
  9  4  2  0
 26 13  1  0
 25 20  1  0
M  CHG  3   5  -1   8  -1  11  -1
M  END
>  <UniqueID>  (1522) 
13

>  <SMILES>  (1522) 
O=C(Cc1[n-]c(=O)[n-]c1O)[N-]Cc1ccc(S(=O)(=O)N2CCOCC2)s1

>  <Energy>  (1522) 
102.23069158531676

>  <Genealogy>  (1522) 
O=C(Cc1[n-]c(=O)[n-]c1O)[N-]Cc1ccc(S(=O)(=O)N2CCOCC2)s1 (protonated)
O=C(Cc1[n-]c(=O)[n-]c1O)[N-]Cc1ccc(S(=O)(=O)N2CCOCC2)s1 (3D coordinates assigned)
O=C(Cc1[n-]c(=O)[n-]c1O)[N-]Cc1ccc(S(=O)(=O)N2CCOCC2)s1 (nonaromatic ring conformer: 102.23069158531676 kcal/mol)

>  <smiles>  (1522) 
O=C(Cc1[nH]c(=O)[nH]c1O)NCc1ccc(S(=O)(=O)N2CCOCC2)s1

>  <score_type>  (1522) 
oracle

>  <origin>  (1522) 
adg

>  <m_score__min__energy>  (1522) 
-14.460000000000001

>  <m_primary>  (1522) 
energy

$$$$
15:0
     RDKit          3D

 30 32  0  0  0  0  0  0  0  0999 V2000
   59.2980   26.2850   48.5590 O   0  0  0  0  0  0  0  0  0  0  0  0
   58.8290   26.4510   47.4010 C   0  0  0  0  0  0  0  0  0  0  0  0
   59.7670   26.7420   46.3010 C   0  0  0  0  0  0  0  0  0  0  0  0
   59.6550   27.7370   45.4090 C   0  0  0  0  0  0  0  0  0  0  0  0
   58.4010   28.2210   44.7930 C   0  0  0  0  0  0  0  0  0  0  0  0
   57.7560   27.4030   44.0810 O   0  0  0  0  0  0  0  0  0  0  0  0
   57.9180   29.6290   44.8990 C   0  0  0  0  0  0  0  0  0  0  0  0
   56.5600   29.9580   44.7460 C   0  0  0  0  0  0  0  0  0  0  0  0
   55.6010   28.9710   44.5320 O   0  0  0  0  0  0  0  0  0  0  0  0
   56.1640   31.2510   44.8290 N   0  0  0  0  0  0  0  0  0  0  0  0
   57.0400   32.2510   45.0870 C   0  0  0  0  0  0  0  0  0  0  0  0
   56.6070   33.4350   45.1440 O   0  0  0  0  0  0  0  0  0  0  0  0
   58.3690   31.9770   45.2880 N   0  0  0  0  0  0  0  0  0  0  0  0
   59.3090   33.0660   45.6270 C   0  0  0  0  0  0  0  0  0  0  0  0
   59.4300   33.2110   47.1220 C   0  0  0  0  0  0  0  0  0  0  0  0
   58.6630   32.4040   47.9800 C   0  0  0  0  0  0  0  0  0  0  0  0
   58.8020   32.5170   49.3670 C   0  0  0  0  0  0  0  0  0  0  0  0
   59.7100   33.4310   49.9070 C   0  0  0  0  0  0  0  0  0  0  0  0
   60.4760   34.2380   49.0610 C   0  0  0  0  0  0  0  0  0  0  0  0
   60.3400   34.1280   47.6730 C   0  0  0  0  0  0  0  0  0  0  0  0
   58.8120   30.6780   45.2090 C   0  0  0  0  0  0  0  0  0  0  0  0
   60.0330   30.4150   45.3970 O   0  0  0  0  0  0  0  0  0  0  0  0
   57.4200   26.3100   47.1600 N   0  0  0  0  0  0  0  0  0  0  0  0
   56.8020   25.2740   46.3760 C   0  0  0  0  0  0  0  0  0  0  0  0
   57.4620   24.0580   46.1060 C   0  0  0  0  0  0  0  0  0  0  0  0
   56.8410   23.0730   45.3320 C   0  0  0  0  0  0  0  0  0  0  0  0
   55.5670   23.2950   44.8040 C   0  0  0  0  0  0  0  0  0  0  0  0
   54.9190   24.5110   45.0350 C   0  0  0  0  0  0  0  0  0  0  0  0
   55.5380   25.5020   45.8060 C   0  0  0  0  0  0  0  0  0  0  0  0
   54.8920   26.7150   45.9970 O   0  0  0  0  0  0  0  0  0  0  0  0
  1  2  2  0
  2  3  1  0
  3  4  2  3
  4  5  1  0
  5  6  2  0
  5  7  1  0
  7  8  2  0
  8  9  1  0
  8 10  1  0
 10 11  1  0
 11 12  2  0
 11 13  1  0
 13 14  1  0
 14 15  1  0
 15 16  2  0
 16 17  1  0
 17 18  2  0
 18 19  1  0
 19 20  2  0
 13 21  1  0
 21 22  2  0
  2 23  1  0
 23 24  1  0
 24 25  2  0
 25 26  1  0
 26 27  2  0
 27 28  1  0
 28 29  2  0
 29 30  1  0
 21  7  1  0
 29 24  1  0
 20 15  1  0
M  CHG  3  10  -1  23  -1  30  -1
M  END
>  <UniqueID>  (1523) 
16

>  <SMILES>  (1523) 
O=C(C=CC(=O)c1c(O)[n-]c(=O)n(Cc2ccccc2)c1=O)[N-]c1ccccc1[O-]

>  <Energy>  (1523) 
65.94105867733283

>  <Genealogy>  (1523) 
O=C(C=CC(=O)c1c(O)[n-]c(=O)n(Cc2ccccc2)c1=O)[N-]c1ccccc1[O-] (protonated)
O=C(C=CC(=O)c1c(O)[n-]c(=O)n(Cc2ccccc2)c1=O)[N-]c1ccccc1[O-] (3D coordinates assigned)
O=C(C=CC(=O)c1c(O)[n-]c(=O)n(Cc2ccccc2)c1=O)[N-]c1ccccc1[O-] (optimized conformer: 65.94105867733283 kcal/mol)

>  <smiles>  (1523) 
O=C(C=CC(=O)c1c(O)[nH]c(=O)n(Cc2ccccc2)c1=O)Nc1ccccc1O

>  <score_type>  (1523) 
oracle

>  <origin>  (1523) 
adg

>  <m_score__min__energy>  (1523) 
-15.550000000000001

>  <m_primary>  (1523) 
energy

$$$$
22:0
     RDKit          3D

 30 33  0  0  0  0  0  0  0  0999 V2000
   57.7530   26.0260   43.7220 C   0  0  0  0  0  0  0  0  0  0  0  0
   57.8980   26.5700   44.9430 C   0  0  0  0  0  0  0  0  0  0  0  0
   57.5580   25.9700   46.1570 C   0  0  0  0  0  0  0  0  0  0  0  0
   57.0570   24.7330   46.3500 C   0  0  0  0  0  0  0  0  0  0  0  0
   55.7160   24.3180   45.8820 C   0  0  0  0  0  0  0  0  0  0  0  0
   54.6750   25.2500   45.7140 C   0  0  0  0  0  0  0  0  0  0  0  0
   54.8710   26.5990   45.9940 O   0  0  0  0  0  0  0  0  0  0  0  0
   53.4660   24.8380   45.2530 N   0  0  0  0  0  0  0  0  0  0  0  0
   53.2440   23.5370   44.9340 C   0  0  0  0  0  0  0  0  0  0  0  0
   52.1150   23.1790   44.5120 O   0  0  0  0  0  0  0  0  0  0  0  0
   54.2420   22.6230   45.0650 N   0  0  0  0  0  0  0  0  0  0  0  0
   55.4690   22.9840   45.5220 C   0  0  0  0  0  0  0  0  0  0  0  0
   56.3730   22.1090   45.6280 O   0  0  0  0  0  0  0  0  0  0  0  0
   57.8700   26.8900   47.1490 C   0  0  0  0  0  0  0  0  0  0  0  0
   58.3710   28.0070   46.5110 C   0  0  0  0  0  0  0  0  0  0  0  0
   58.8800   29.2280   47.2190 C   0  0  0  0  0  0  0  0  0  0  0  0
   58.3970   27.8160   45.1700 N   0  0  0  0  0  0  0  0  0  0  0  0
   58.7870   28.8140   44.1630 C   0  0  0  0  0  0  0  0  0  0  0  0
   57.9210   30.0290   44.2900 C   0  0  0  0  0  0  0  0  0  0  0  0
   56.6130   30.0090   44.6190 N   0  0  0  0  0  0  0  0  0  0  0  0
   56.2420   31.2720   44.7790 N   0  0  0  0  0  0  0  0  0  0  0  0
   57.2660   32.0820   44.5580 N   0  0  0  0  0  0  0  0  0  0  0  0
   57.2490   33.5210   44.7970 C   0  0  0  0  0  0  0  0  0  0  0  0
   58.1550   33.8540   45.9520 C   0  0  0  0  0  0  0  0  0  0  0  0
   58.0020   33.2020   47.1860 C   0  0  0  0  0  0  0  0  0  0  0  0
   58.8880   33.4640   48.2390 C   0  0  0  0  0  0  0  0  0  0  0  0
   59.9390   34.3680   48.0620 C   0  0  0  0  0  0  0  0  0  0  0  0
   60.1070   35.0080   46.8320 C   0  0  0  0  0  0  0  0  0  0  0  0
   59.2220   34.7510   45.7780 C   0  0  0  0  0  0  0  0  0  0  0  0
   58.3450   31.3390   44.2610 C   0  0  0  0  0  0  0  0  0  0  0  0
  1  2  2  0
  2  3  1  0
  3  4  2  0
  4  5  1  0
  5  6  2  0
  6  7  1  0
  6  8  1  0
  8  9  1  0
  9 10  2  0
  9 11  1  0
 11 12  1  0
 12 13  2  0
  3 14  1  0
 14 15  2  0
 15 16  1  0
 15 17  1  0
 17 18  1  0
 18 19  1  0
 19 20  1  0
 20 21  2  0
 21 22  1  0
 22 23  1  0
 23 24  1  0
 24 25  2  0
 25 26  1  0
 26 27  2  0
 27 28  1  0
 28 29  2  0
 22 30  1  0
 17  2  1  0
 30 19  2  0
 12  5  1  0
 29 24  1  0
M  CHG  3   7  -1   8  -1  11  -1
M  END
>  <UniqueID>  (1524) 
21

>  <SMILES>  (1524) 
C=c1/c(=C/c2c([O-])[n-]c(=O)[n-]c2=O)cc(C)n1Cc1cn(Cc2ccccc2)nn1

>  <Energy>  (1524) 
121.14636110982592

>  <Genealogy>  (1524) 
C=c1c(=Cc2c([O-])[n-]c(=O)[n-]c2=O)cc(C)n1Cc1cn(Cc2ccccc2)nn1 (protonated)
C=c1/c(=C/c2c([O-])[n-]c(=O)[n-]c2=O)cc(C)n1Cc1cn(Cc2ccccc2)nn1 (cis-trans isomerization)
C=c1/c(=C/c2c([O-])[n-]c(=O)[n-]c2=O)cc(C)n1Cc1cn(Cc2ccccc2)nn1 (3D coordinates assigned)
C=c1/c(=C/c2c([O-])[n-]c(=O)[n-]c2=O)cc(C)n1Cc1cn(Cc2ccccc2)nn1 (optimized conformer: 121.14636110982592 kcal/mol)

>  <smiles>  (1524) 
C=c1c(=Cc2c(O)[nH]c(=O)[nH]c2=O)cc(C)n1Cc1cn(Cc2ccccc2)nn1

>  <score_type>  (1524) 
oracle

>  <origin>  (1524) 
adg

>  <m_score__min__energy>  (1524) 
-17.629999999999999

>  <m_primary>  (1524) 
energy

$$$$
35:0
     RDKit          3D

 30 33  0  0  0  0  0  0  0  0999 V2000
   58.5900   29.0950   46.7740 C   0  0  0  0  0  0  0  0  0  0  0  0
   58.0630   29.4760   45.5990 C   0  0  0  0  0  0  0  0  0  0  0  0
   57.5960   28.6460   44.5640 C   0  0  0  0  0  0  0  0  0  0  0  0
   57.3910   27.3150   44.5190 C   0  0  0  0  0  0  0  0  0  0  0  0
   57.3710   26.4090   45.6840 C   0  0  0  0  0  0  0  0  0  0  0  0
   56.1740   26.1220   46.3630 C   0  0  0  0  0  0  0  0  0  0  0  0
   54.9770   26.7150   45.9770 O   0  0  0  0  0  0  0  0  0  0  0  0
   56.1790   25.2510   47.4060 N   0  0  0  0  0  0  0  0  0  0  0  0
   57.3240   24.6340   47.7980 C   0  0  0  0  0  0  0  0  0  0  0  0
   57.3050   23.8350   48.7690 O   0  0  0  0  0  0  0  0  0  0  0  0
   58.4860   24.8740   47.1390 N   0  0  0  0  0  0  0  0  0  0  0  0
   58.5340   25.7360   46.0910 C   0  0  0  0  0  0  0  0  0  0  0  0
   59.6290   25.9310   45.4980 O   0  0  0  0  0  0  0  0  0  0  0  0
   57.3370   29.4790   43.4880 C   0  0  0  0  0  0  0  0  0  0  0  0
   57.5910   30.7670   43.9070 C   0  0  0  0  0  0  0  0  0  0  0  0
   57.4400   31.9870   43.0480 C   0  0  0  0  0  0  0  0  0  0  0  0
   58.0310   30.7680   45.1850 N   0  0  0  0  0  0  0  0  0  0  0  0
   58.4250   31.9320   45.9330 C   0  0  0  0  0  0  0  0  0  0  0  0
   59.6820   31.9750   46.5540 C   0  0  0  0  0  0  0  0  0  0  0  0
   60.1010   33.1100   47.2880 C   0  0  0  0  0  0  0  0  0  0  0  0
   61.4120   33.1540   47.9320 N   0  0  0  0  0  0  0  0  0  0  0  0
   61.6710   34.1670   48.9780 C   0  0  0  0  0  0  0  0  0  0  0  0
   63.0560   34.0480   49.6170 C   0  0  0  0  0  0  0  0  0  0  0  0
   64.0280   33.7100   48.6570 O   0  0  0  0  0  0  0  0  0  0  0  0
   63.7940   32.3870   48.2350 C   0  0  0  0  0  0  0  0  0  0  0  0
   62.4990   32.2900   47.4230 C   0  0  0  0  0  0  0  0  0  0  0  0
   59.2060   34.2050   47.3670 C   0  0  0  0  0  0  0  0  0  0  0  0
   57.9560   34.1600   46.7490 C   0  0  0  0  0  0  0  0  0  0  0  0
   57.5640   33.0300   46.0330 C   0  0  0  0  0  0  0  0  0  0  0  0
   56.3510   33.0100   45.4240 F   0  0  0  0  0  0  0  0  0  0  0  0
  1  2  2  0
  2  3  1  0
  3  4  2  3
  4  5  1  0
  5  6  2  0
  6  7  1  0
  6  8  1  0
  8  9  1  0
  9 10  2  0
  9 11  1  0
 11 12  1  0
 12 13  2  0
  3 14  1  0
 14 15  2  0
 15 16  1  0
 15 17  1  0
 17 18  1  0
 18 19  2  0
 19 20  1  0
 20 21  1  0
 21 22  1  0
 22 23  1  0
 23 24  1  0
 24 25  1  0
 25 26  1  0
 20 27  2  0
 27 28  1  0
 28 29  2  0
 29 30  1  0
 17  2  1  0
 29 18  1  0
 12  5  1  0
 26 21  1  0
M  CHG  3   7  -1   8  -1  11  -1
M  END
>  <UniqueID>  (1525) 
34

>  <SMILES>  (1525) 
C=c1c(=Cc2c([O-])[n-]c(=O)[n-]c2=O)cc(C)n1-c1cc(N2CCOCC2)ccc1F

>  <Energy>  (1525) 
108.46432328535984

>  <Genealogy>  (1525) 
C=c1c(=Cc2c([O-])[n-]c(=O)[n-]c2=O)cc(C)n1-c1cc(N2CCOCC2)ccc1F (protonated)
C=c1c(=Cc2c([O-])[n-]c(=O)[n-]c2=O)cc(C)n1-c1cc(N2CCOCC2)ccc1F (3D coordinates assigned)
C=c1c(=Cc2c([O-])[n-]c(=O)[n-]c2=O)cc(C)n1-c1cc(N2CCOCC2)ccc1F (nonaromatic ring conformer: 108.46432328535984 kcal/mol)

>  <smiles>  (1525) 
C=c1c(=Cc2c(O)[nH]c(=O)[nH]c2=O)cc(C)n1-c1cc(N2CCOCC2)ccc1F

>  <score_type>  (1525) 
oracle

>  <origin>  (1525) 
adg

>  <m_score__min__energy>  (1525) 
-16.030000000000001

>  <m_primary>  (1525) 
energy

$$$$
37:0
     RDKit          3D

 29 32  0  0  0  0  0  0  0  0999 V2000
   59.8140   28.2420   47.0100 C   0  0  0  0  0  0  0  0  0  0  0  0
   58.9940   29.0900   46.3700 C   0  0  0  0  0  0  0  0  0  0  0  0
   58.0150   28.7660   45.4150 C   0  0  0  0  0  0  0  0  0  0  0  0
   57.5100   27.5770   45.0340 C   0  0  0  0  0  0  0  0  0  0  0  0
   57.2030   26.4520   45.9290 C   0  0  0  0  0  0  0  0  0  0  0  0
   58.3290   25.3090   46.4410 S   0  0  0  0  0  0  0  0  0  0  0  0
   57.1580   24.3770   47.2080 C   0  0  0  0  0  0  0  0  0  0  0  0
   57.3980   23.3160   47.8380 O   0  0  0  0  0  0  0  0  0  0  0  0
   55.9150   24.8840   47.0670 N   0  0  0  0  0  0  0  0  0  0  0  0
   55.9370   26.0320   46.3400 C   0  0  0  0  0  0  0  0  0  0  0  0
   54.7690   26.7120   46.0180 O   0  0  0  0  0  0  0  0  0  0  0  0
   57.5960   29.9680   44.8680 C   0  0  0  0  0  0  0  0  0  0  0  0
   58.2640   30.9700   45.5400 C   0  0  0  0  0  0  0  0  0  0  0  0
   58.1020   32.4340   45.2680 C   0  0  0  0  0  0  0  0  0  0  0  0
   59.1110   30.4400   46.4510 N   0  0  0  0  0  0  0  0  0  0  0  0
   59.9970   31.1860   47.3040 C   0  0  0  0  0  0  0  0  0  0  0  0
   61.0400   31.9410   46.7490 C   0  0  0  0  0  0  0  0  0  0  0  0
   61.9000   32.6700   47.5740 C   0  0  0  0  0  0  0  0  0  0  0  0
   61.7180   32.6670   48.9660 C   0  0  0  0  0  0  0  0  0  0  0  0
   62.6410   33.4260   49.8330 C   0  0  0  0  0  0  0  0  0  0  0  0
   62.2410   34.5040   50.3500 O   0  0  0  0  0  0  0  0  0  0  0  0
   63.9750   32.9590   50.1060 N   0  0  0  0  0  0  0  0  0  0  0  0
   64.3530   31.5560   50.1210 C   0  0  0  0  0  0  0  0  0  0  0  0
   65.8160   31.5270   50.5420 C   0  0  0  0  0  0  0  0  0  0  0  0
   66.1030   32.8910   51.1620 C   0  0  0  0  0  0  0  0  0  0  0  0
   65.0090   33.8220   50.6540 C   0  0  0  0  0  0  0  0  0  0  0  0
   60.6850   31.8960   49.5220 C   0  0  0  0  0  0  0  0  0  0  0  0
   59.8250   31.1660   48.6970 C   0  0  0  0  0  0  0  0  0  0  0  0
   58.8210   30.4410   49.2520 F   0  0  0  0  0  0  0  0  0  0  0  0
  1  2  2  0
  2  3  1  0
  3  4  2  0
  4  5  1  0
  5  6  1  0
  6  7  1  0
  7  8  2  0
  7  9  1  0
  9 10  1  0
 10 11  1  0
  3 12  1  0
 12 13  2  0
 13 14  1  0
 13 15  1  0
 15 16  1  0
 16 17  2  0
 17 18  1  0
 18 19  2  0
 19 20  1  0
 20 21  2  0
 20 22  1  0
 22 23  1  0
 23 24  1  0
 24 25  1  0
 25 26  1  0
 19 27  1  0
 27 28  2  0
 28 29  1  0
 15  2  1  0
 28 16  1  0
 10  5  2  0
 26 22  1  0
M  CHG  2   9  -1  11  -1
M  END
>  <UniqueID>  (1526) 
36

>  <SMILES>  (1526) 
C=c1/c(=C\c2sc(=O)[n-]c2[O-])cc(C)n1-c1ccc(C(=O)N2CCCC2)cc1F

>  <Energy>  (1526) 
131.96481894070502

>  <Genealogy>  (1526) 
C=c1c(=Cc2sc(=O)[n-]c2[O-])cc(C)n1-c1ccc(C(=O)N2CCCC2)cc1F (protonated)
C=c1/c(=C\c2sc(=O)[n-]c2[O-])cc(C)n1-c1ccc(C(=O)N2CCCC2)cc1F (cis-trans isomerization)
C=c1/c(=C\c2sc(=O)[n-]c2[O-])cc(C)n1-c1ccc(C(=O)N2CCCC2)cc1F (3D coordinates assigned)
C=c1/c(=C\c2sc(=O)[n-]c2[O-])cc(C)n1-c1ccc(C(=O)N2CCCC2)cc1F (nonaromatic ring conformer: 131.96481894070502 kcal/mol)

>  <smiles>  (1526) 
C=c1c(=Cc2sc(=O)[nH]c2O)cc(C)n1-c1ccc(C(=O)N2CCCC2)cc1F

>  <score_type>  (1526) 
oracle

>  <origin>  (1526) 
adg

>  <m_score__min__energy>  (1526) 
-14.539999999999999

>  <m_primary>  (1526) 
energy

$$$$
55:0
     RDKit          3D

 30 32  0  0  0  0  0  0  0  0999 V2000
   60.0110   33.8700   49.8490 C   0  0  0  0  0  0  0  0  0  0  0  0
   61.3100   33.5600   49.8620 C   0  0  0  0  0  0  0  0  0  0  0  0
   62.3540   34.5310   49.3900 C   0  0  0  0  0  0  0  0  0  0  0  0
   63.1110   33.9700   48.2760 N   0  0  0  0  0  0  0  0  0  0  0  0
   62.6500   33.9770   46.9200 C   0  0  0  0  0  0  0  0  0  0  0  0
   63.4690   34.1910   45.9830 O   0  0  0  0  0  0  0  0  0  0  0  0
   61.2200   33.7370   46.6150 C   0  0  0  0  0  0  0  0  0  0  0  0
   60.3830   34.7980   46.2290 C   0  0  0  0  0  0  0  0  0  0  0  0
   59.0340   34.5720   45.9480 C   0  0  0  0  0  0  0  0  0  0  0  0
   58.4890   33.2840   46.0540 C   0  0  0  0  0  0  0  0  0  0  0  0
   57.0340   33.0610   45.7440 C   0  0  0  0  0  0  0  0  0  0  0  0
   59.3270   32.2100   46.4200 C   0  0  0  0  0  0  0  0  0  0  0  0
   58.8100   30.8710   46.5100 N   0  0  0  0  0  0  0  0  0  0  0  0
   58.7810   30.1180   47.6290 C   0  0  0  0  0  0  0  0  0  0  0  0
   59.2790   30.5630   48.9700 C   0  0  0  0  0  0  0  0  0  0  0  0
   58.2640   28.8690   47.3530 C   0  0  0  0  0  0  0  0  0  0  0  0
   57.9290   28.8610   46.0070 C   0  0  0  0  0  0  0  0  0  0  0  0
   57.3360   27.8090   45.4110 C   0  0  0  0  0  0  0  0  0  0  0  0
   57.1840   26.4630   45.9970 C   0  0  0  0  0  0  0  0  0  0  0  0
   55.9070   25.9440   46.2530 C   0  0  0  0  0  0  0  0  0  0  0  0
   54.7710   26.7050   46.0080 O   0  0  0  0  0  0  0  0  0  0  0  0
   55.7740   24.6880   46.7550 N   0  0  0  0  0  0  0  0  0  0  0  0
   56.8610   23.9120   47.0000 C   0  0  0  0  0  0  0  0  0  0  0  0
   56.7120   22.7540   47.4680 O   0  0  0  0  0  0  0  0  0  0  0  0
   58.1060   24.3820   46.7340 N   0  0  0  0  0  0  0  0  0  0  0  0
   58.2930   25.6300   46.2320 C   0  0  0  0  0  0  0  0  0  0  0  0
   59.4610   26.0250   45.9770 O   0  0  0  0  0  0  0  0  0  0  0  0
   58.3190   30.1120   45.4970 C   0  0  0  0  0  0  0  0  0  0  0  0
   58.3390   30.5020   44.2140 C   0  0  0  0  0  0  0  0  0  0  0  0
   60.6790   32.4440   46.7060 C   0  0  0  0  0  0  0  0  0  0  0  0
  1  2  2  0
  2  3  1  0
  3  4  1  0
  4  5  1  0
  5  6  2  0
  5  7  1  0
  7  8  2  0
  8  9  1  0
  9 10  2  0
 10 11  1  0
 10 12  1  0
 12 13  1  0
 13 14  1  0
 14 15  1  0
 14 16  2  0
 16 17  1  0
 17 18  2  0
 18 19  1  0
 19 20  2  0
 20 21  1  0
 20 22  1  0
 22 23  1  0
 23 24  2  0
 23 25  1  0
 25 26  1  0
 26 27  2  0
 17 28  1  0
 28 29  2  0
 12 30  2  0
 30  7  1  0
 28 13  1  0
 26 19  1  0
M  CHG  4   4  -1  21  -1  22  -1  25  -1
M  END
>  <UniqueID>  (1527) 
52

>  <SMILES>  (1527) 
C=CC[N-]C(=O)c1ccc(C)c(-n2c(C)c/c(=C/c3c([O-])[n-]c(=O)[n-]c3=O)c2=C)c1

>  <Energy>  (1527) 
94.53670485065078

>  <Genealogy>  (1527) 
C=CC[N-]C(=O)c1ccc(C)c(-n2c(C)cc(=Cc3c([O-])[n-]c(=O)[n-]c3=O)c2=C)c1 (protonated)
C=CC[N-]C(=O)c1ccc(C)c(-n2c(C)c/c(=C/c3c([O-])[n-]c(=O)[n-]c3=O)c2=C)c1 (cis-trans isomerization)
C=CC[N-]C(=O)c1ccc(C)c(-n2c(C)c/c(=C/c3c([O-])[n-]c(=O)[n-]c3=O)c2=C)c1 (3D coordinates assigned)
C=CC[N-]C(=O)c1ccc(C)c(-n2c(C)c/c(=C/c3c([O-])[n-]c(=O)[n-]c3=O)c2=C)c1 (optimized conformer: 94.53670485065078 kcal/mol)

>  <smiles>  (1527) 
C=CCNC(=O)c1ccc(C)c(-n2c(C)cc(=Cc3c(O)[nH]c(=O)[nH]c3=O)c2=C)c1

>  <score_type>  (1527) 
oracle

>  <origin>  (1527) 
adg

>  <m_score__min__energy>  (1527) 
-16.940000000000001

>  <m_primary>  (1527) 
energy

$$$$
57:0
     RDKit          3D

 28 30  0  0  0  0  0  0  0  0999 V2000
   59.8930   29.4730   45.1540 C   0  0  0  0  0  0  0  0  0  0  0  0
   59.7900   29.1210   46.4480 C   0  0  0  0  0  0  0  0  0  0  0  0
   58.8260   28.2570   46.9910 C   0  0  0  0  0  0  0  0  0  0  0  0
   57.8460   27.6120   46.3180 C   0  0  0  0  0  0  0  0  0  0  0  0
   57.2970   26.2760   46.6470 C   0  0  0  0  0  0  0  0  0  0  0  0
   57.9820   25.2390   47.1610 N   0  0  0  0  0  0  0  0  0  0  0  0
   57.0480   24.2720   47.2900 C   0  0  0  0  0  0  0  0  0  0  0  0
   57.3130   23.1300   47.7450 O   0  0  0  0  0  0  0  0  0  0  0  0
   55.8090   24.6280   46.8910 N   0  0  0  0  0  0  0  0  0  0  0  0
   55.9840   25.8970   46.4880 C   0  0  0  0  0  0  0  0  0  0  0  0
   54.9620   26.6920   45.9850 O   0  0  0  0  0  0  0  0  0  0  0  0
   59.0820   28.2050   48.3550 C   0  0  0  0  0  0  0  0  0  0  0  0
   60.1730   29.0150   48.5880 C   0  0  0  0  0  0  0  0  0  0  0  0
   60.7510   29.2800   49.9470 C   0  0  0  0  0  0  0  0  0  0  0  0
   60.6090   29.5750   47.4360 N   0  0  0  0  0  0  0  0  0  0  0  0
   61.7260   30.5310   47.3310 C   0  0  0  0  0  0  0  0  0  0  0  0
   61.2380   31.9460   47.5250 C   0  0  0  0  0  0  0  0  0  0  0  0
   60.3920   32.5300   46.5650 C   0  0  0  0  0  0  0  0  0  0  0  0
   59.9320   33.8470   46.7200 C   0  0  0  0  0  0  0  0  0  0  0  0
   59.0160   34.4460   45.7250 C   0  0  0  0  0  0  0  0  0  0  0  0
   59.3270   35.5510   45.2010 O   0  0  0  0  0  0  0  0  0  0  0  0
   57.7840   33.8020   45.3410 N   0  0  0  0  0  0  0  0  0  0  0  0
   56.6710   34.6240   44.8630 C   0  0  0  0  0  0  0  0  0  0  0  0
   57.6950   32.3390   45.2870 C   0  0  0  0  0  0  0  0  0  0  0  0
   60.3030   34.5740   47.8610 C   0  0  0  0  0  0  0  0  0  0  0  0
   61.1480   34.0040   48.8160 C   0  0  0  0  0  0  0  0  0  0  0  0
   61.6210   32.7000   48.6500 C   0  0  0  0  0  0  0  0  0  0  0  0
   62.4350   32.1720   49.5990 F   0  0  0  0  0  0  0  0  0  0  0  0
  1  2  2  0
  2  3  1  0
  3  4  2  3
  4  5  1  0
  5  6  1  0
  6  7  1  0
  7  8  2  0
  7  9  1  0
  9 10  1  0
 10 11  1  0
  3 12  1  0
 12 13  2  0
 13 14  1  0
 13 15  1  0
 15 16  1  0
 16 17  1  0
 17 18  2  0
 18 19  1  0
 19 20  1  0
 20 21  2  0
 20 22  1  0
 22 23  1  0
 22 24  1  0
 19 25  2  0
 25 26  1  0
 26 27  2  0
 27 28  1  0
 15  2  1  0
 27 17  1  0
 10  5  2  0
M  CHG  3   6  -1   9  -1  11  -1
M  END
>  <UniqueID>  (1528) 
54

>  <SMILES>  (1528) 
C=c1c(=Cc2[n-]c(=O)[n-]c2[O-])cc(C)n1Cc1cc(C(=O)N(C)C)ccc1F

>  <Energy>  (1528) 
113.10428821006909

>  <Genealogy>  (1528) 
C=c1c(=Cc2[n-]c(=O)[n-]c2[O-])cc(C)n1Cc1cc(C(=O)N(C)C)ccc1F (protonated)
C=c1c(=Cc2[n-]c(=O)[n-]c2[O-])cc(C)n1Cc1cc(C(=O)N(C)C)ccc1F (3D coordinates assigned)
C=c1c(=Cc2[n-]c(=O)[n-]c2[O-])cc(C)n1Cc1cc(C(=O)N(C)C)ccc1F (optimized conformer: 113.10428821006909 kcal/mol)

>  <smiles>  (1528) 
C=c1c(=Cc2[nH]c(=O)[nH]c2O)cc(C)n1Cc1cc(C(=O)N(C)C)ccc1F

>  <score_type>  (1528) 
oracle

>  <origin>  (1528) 
adg

>  <m_score__min__energy>  (1528) 
-15.779999999999999

>  <m_primary>  (1528) 
energy

$$$$
69:0
     RDKit          3D

 29 31  0  0  0  0  0  0  0  0999 V2000
   55.9380   31.2570   44.4830 O   0  0  0  0  0  0  0  0  0  0  0  0
   56.9010   30.4470   44.5060 C   0  0  0  0  0  0  0  0  0  0  0  0
   56.6380   28.9840   44.2830 C   0  0  0  0  0  0  0  0  0  0  0  0
   56.4050   28.3230   45.5620 N   0  0  0  0  0  0  0  0  0  0  0  0
   57.1320   27.1750   46.0150 C   0  0  0  0  0  0  0  0  0  0  0  0
   58.1400   27.3420   46.7490 O   0  0  0  0  0  0  0  0  0  0  0  0
   56.7320   25.8030   45.6390 C   0  0  0  0  0  0  0  0  0  0  0  0
   57.7120   24.8540   45.3040 C   0  0  0  0  0  0  0  0  0  0  0  0
   57.3440   23.5530   44.9500 C   0  0  0  0  0  0  0  0  0  0  0  0
   55.9970   23.1860   44.9410 C   0  0  0  0  0  0  0  0  0  0  0  0
   55.0160   24.1150   45.2930 C   0  0  0  0  0  0  0  0  0  0  0  0
   55.3780   25.4220   45.6450 C   0  0  0  0  0  0  0  0  0  0  0  0
   54.3870   26.3350   45.9870 O   0  0  0  0  0  0  0  0  0  0  0  0
   58.2160   30.9390   44.7950 N   0  0  0  0  0  0  0  0  0  0  0  0
   58.5020   32.2170   45.3730 C   0  0  0  0  0  0  0  0  0  0  0  0
   58.3750   33.3970   44.6230 C   0  0  0  0  0  0  0  0  0  0  0  0
   58.7000   34.6290   45.1930 C   0  0  0  0  0  0  0  0  0  0  0  0
   59.1570   34.6920   46.5120 C   0  0  0  0  0  0  0  0  0  0  0  0
   59.2730   33.5200   47.2730 C   0  0  0  0  0  0  0  0  0  0  0  0
   59.9200   33.5820   48.9120 S   0  0  0  0  0  0  0  0  0  0  0  0
   59.7020   34.9550   49.4840 O   0  0  0  0  0  0  0  0  0  0  0  0
   59.1800   32.5960   49.7710 O   0  0  0  0  0  0  0  0  0  0  0  0
   61.6260   33.2030   48.9360 N   0  0  0  0  0  0  0  0  0  0  0  0
   62.2530   33.5810   47.6590 C   0  0  0  0  0  0  0  0  0  0  0  0
   63.6910   33.0370   47.5800 C   0  0  0  0  0  0  0  0  0  0  0  0
   64.2830   32.7460   48.9710 C   0  0  0  0  0  0  0  0  0  0  0  0
   63.8280   33.7900   49.9940 C   0  0  0  0  0  0  0  0  0  0  0  0
   62.2870   33.8930   50.0640 C   0  0  0  0  0  0  0  0  0  0  0  0
   58.9190   32.2880   46.7050 C   0  0  0  0  0  0  0  0  0  0  0  0
  1  2  2  0
  2  3  1  0
  3  4  1  0
  4  5  1  0
  5  6  2  0
  5  7  1  0
  7  8  2  0
  8  9  1  0
  9 10  2  0
 10 11  1  0
 11 12  2  0
 12 13  1  0
  2 14  1  0
 14 15  1  0
 15 16  2  0
 16 17  1  0
 17 18  2  0
 18 19  1  0
 19 20  1  0
 20 21  2  0
 20 22  2  0
 20 23  1  0
 23 24  1  0
 24 25  1  0
 25 26  1  0
 26 27  1  0
 27 28  1  0
 19 29  2  0
 12  7  1  0
 29 15  1  0
 28 23  1  0
M  CHG  3   4  -1  13  -1  14  -1
M  END
>  <UniqueID>  (1529) 
65

>  <SMILES>  (1529) 
O=C(C[N-]C(=O)c1ccccc1[O-])[N-]c1cccc(S(=O)(=O)N2CCCCC2)c1

>  <Energy>  (1529) 
60.84856358993177

>  <Genealogy>  (1529) 
O=C(C[N-]C(=O)c1ccccc1[O-])[N-]c1cccc(S(=O)(=O)N2CCCCC2)c1 (protonated)
O=C(C[N-]C(=O)c1ccccc1[O-])[N-]c1cccc(S(=O)(=O)N2CCCCC2)c1 (3D coordinates assigned)
O=C(C[N-]C(=O)c1ccccc1[O-])[N-]c1cccc(S(=O)(=O)N2CCCCC2)c1 (nonaromatic ring conformer: 60.84856358993177 kcal/mol)

>  <smiles>  (1529) 
O=C(CNC(=O)c1ccccc1O)Nc1cccc(S(=O)(=O)N2CCCCC2)c1

>  <score_type>  (1529) 
oracle

>  <origin>  (1529) 
adg

>  <m_score__min__energy>  (1529) 
-17.02

>  <m_primary>  (1529) 
energy

$$$$
73:0
     RDKit          3D

 29 32  0  0  0  0  0  0  0  0999 V2000
   57.6950   28.3760   44.5370 C   0  0  0  0  0  0  0  0  0  0  0  0
   58.1760   27.5480   45.4760 C   0  0  0  0  0  0  0  0  0  0  0  0
   57.9860   26.1630   45.5400 C   0  0  0  0  0  0  0  0  0  0  0  0
   57.2650   25.3980   44.6980 C   0  0  0  0  0  0  0  0  0  0  0  0
   55.9760   24.7740   45.0470 C   0  0  0  0  0  0  0  0  0  0  0  0
   55.7380   23.4560   44.9300 N   0  0  0  0  0  0  0  0  0  0  0  0
   54.4910   23.3150   45.4300 C   0  0  0  0  0  0  0  0  0  0  0  0
   53.9020   22.2050   45.4800 O   0  0  0  0  0  0  0  0  0  0  0  0
   53.9290   24.4580   45.8800 N   0  0  0  0  0  0  0  0  0  0  0  0
   54.8850   25.3710   45.6430 C   0  0  0  0  0  0  0  0  0  0  0  0
   54.7790   26.7060   46.0090 O   0  0  0  0  0  0  0  0  0  0  0  0
   58.6370   25.7340   46.6900 C   0  0  0  0  0  0  0  0  0  0  0  0
   59.2100   26.8520   47.2620 C   0  0  0  0  0  0  0  0  0  0  0  0
   59.9900   26.8490   48.5420 C   0  0  0  0  0  0  0  0  0  0  0  0
   58.9230   27.9520   46.5330 N   0  0  0  0  0  0  0  0  0  0  0  0
   59.3500   29.2930   46.8310 C   0  0  0  0  0  0  0  0  0  0  0  0
   58.5660   30.1100   47.6580 C   0  0  0  0  0  0  0  0  0  0  0  0
   58.9720   31.4140   47.9480 C   0  0  0  0  0  0  0  0  0  0  0  0
   60.1670   31.9190   47.4120 C   0  0  0  0  0  0  0  0  0  0  0  0
   60.6260   33.3160   47.7400 C   0  0  0  0  0  0  0  0  0  0  0  0
   61.4860   33.3210   48.9460 N   0  0  0  0  0  0  0  0  0  0  0  0
   61.9580   31.9620   49.3100 C   0  0  0  0  0  0  0  0  0  0  0  0
   63.3630   31.6350   48.7660 C   0  0  0  0  0  0  0  0  0  0  0  0
   63.6230   32.3930   47.5420 N   0  0  0  0  0  0  0  0  0  0  0  0
   63.6740   33.8370   47.8180 C   0  0  0  0  0  0  0  0  0  0  0  0
   62.6100   34.2780   48.8490 C   0  0  0  0  0  0  0  0  0  0  0  0
   60.9540   31.0980   46.5880 C   0  0  0  0  0  0  0  0  0  0  0  0
   60.5470   29.7930   46.2970 C   0  0  0  0  0  0  0  0  0  0  0  0
   61.3290   29.0070   45.5150 F   0  0  0  0  0  0  0  0  0  0  0  0
  1  2  2  0
  2  3  1  0
  3  4  2  0
  4  5  1  0
  5  6  1  0
  6  7  1  0
  7  8  2  0
  7  9  1  0
  9 10  1  0
 10 11  1  0
  3 12  1  0
 12 13  2  0
 13 14  1  0
 13 15  1  0
 15 16  1  0
 16 17  2  0
 17 18  1  0
 18 19  2  0
 19 20  1  0
 20 21  1  0
 21 22  1  0
 22 23  1  0
 23 24  1  0
 24 25  1  0
 25 26  1  0
 19 27  1  0
 27 28  2  0
 28 29  1  0
 15  2  1  0
 28 16  1  0
 10  5  2  0
 26 21  1  0
M  CHG  3   6  -1   9  -1  11  -1
M  END
>  <UniqueID>  (1530) 
69

>  <SMILES>  (1530) 
C=c1/c(=C/c2[n-]c(=O)[n-]c2[O-])cc(C)n1-c1ccc(CN2CCNCC2)cc1F

>  <Energy>  (1530) 
134.04271953655893

>  <Genealogy>  (1530) 
C=c1c(=Cc2[n-]c(=O)[n-]c2[O-])cc(C)n1-c1ccc(CN2CCNCC2)cc1F (protonated)
C=c1/c(=C/c2[n-]c(=O)[n-]c2[O-])cc(C)n1-c1ccc(CN2CCNCC2)cc1F (cis-trans isomerization)
C=c1/c(=C/c2[n-]c(=O)[n-]c2[O-])cc(C)n1-c1ccc(CN2CCNCC2)cc1F (3D coordinates assigned)
C=c1/c(=C/c2[n-]c(=O)[n-]c2[O-])cc(C)n1-c1ccc(CN2CCNCC2)cc1F (nonaromatic ring conformer: 134.04271953655893 kcal/mol)

>  <smiles>  (1530) 
C=c1c(=Cc2[nH]c(=O)[nH]c2O)cc(C)n1-c1ccc(CN2CCNCC2)cc1F

>  <score_type>  (1530) 
oracle

>  <origin>  (1530) 
adg

>  <m_score__min__energy>  (1530) 
-15.390000000000001

>  <m_primary>  (1530) 
energy

$$$$
77:0
     RDKit          3D

 24 25  0  0  0  0  0  0  0  0999 V2000
   60.6200   33.7120   50.1140 C   0  0  0  0  0  0  0  0  0  0  0  0
   59.8390   33.6280   48.8350 C   0  0  0  0  0  0  0  0  0  0  0  0
   60.1450   34.4780   47.7630 C   0  0  0  0  0  0  0  0  0  0  0  0
   59.4400   34.3760   46.5600 C   0  0  0  0  0  0  0  0  0  0  0  0
   58.4290   33.4180   46.4140 C   0  0  0  0  0  0  0  0  0  0  0  0
   57.5210   33.3310   44.9070 S   0  0  0  0  0  0  0  0  0  0  0  0
   56.6290   34.5370   44.8100 O   0  0  0  0  0  0  0  0  0  0  0  0
   58.4590   33.3390   43.7310 O   0  0  0  0  0  0  0  0  0  0  0  0
   56.5380   31.8960   44.8710 N   0  0  0  0  0  0  0  0  0  0  0  0
   57.3540   30.6950   44.6890 C   0  0  0  0  0  0  0  0  0  0  0  0
   56.5140   29.4490   44.7720 C   0  0  0  0  0  0  0  0  0  0  0  0
   55.2770   29.5570   44.9870 O   0  0  0  0  0  0  0  0  0  0  0  0
   57.0750   28.1390   44.6160 N   0  0  0  0  0  0  0  0  0  0  0  0
   57.9310   27.5060   45.5730 C   0  0  0  0  0  0  0  0  0  0  0  0
   59.2720   27.9080   45.6280 C   0  0  0  0  0  0  0  0  0  0  0  0
   60.1320   27.3760   46.5900 C   0  0  0  0  0  0  0  0  0  0  0  0
   59.6620   26.4290   47.4990 C   0  0  0  0  0  0  0  0  0  0  0  0
   58.3360   25.9950   47.4350 C   0  0  0  0  0  0  0  0  0  0  0  0
   57.4560   26.5100   46.4630 C   0  0  0  0  0  0  0  0  0  0  0  0
   56.0810   25.9600   46.3730 C   0  0  0  0  0  0  0  0  0  0  0  0
   55.1290   26.6890   45.9860 O   0  0  0  0  0  0  0  0  0  0  0  0
   55.8100   24.6490   46.7460 O   0  0  0  0  0  0  0  0  0  0  0  0
   58.1360   32.5530   47.4770 C   0  0  0  0  0  0  0  0  0  0  0  0
   58.8410   32.6530   48.6800 C   0  0  0  0  0  0  0  0  0  0  0  0
  1  2  1  0
  2  3  2  0
  3  4  1  0
  4  5  2  0
  5  6  1  0
  6  7  2  0
  6  8  2  0
  6  9  1  0
  9 10  1  0
 10 11  1  0
 11 12  2  0
 11 13  1  0
 13 14  1  0
 14 15  2  0
 15 16  1  0
 16 17  2  0
 17 18  1  0
 18 19  2  0
 19 20  1  0
 20 21  2  0
 20 22  1  0
  5 23  1  0
 23 24  2  0
 24  2  1  0
 19 14  1  0
M  CHG  3   9  -1  13  -1  22  -1
M  END
>  <UniqueID>  (1531) 
73

>  <SMILES>  (1531) 
Cc1ccc(S(=O)(=O)[N-]CC(=O)[N-]c2ccccc2C(=O)[O-])cc1

>  <Energy>  (1531) 
43.9428523376442

>  <Genealogy>  (1531) 
Cc1ccc(S(=O)(=O)[N-]CC(=O)[N-]c2ccccc2C(=O)[O-])cc1 (protonated)
Cc1ccc(S(=O)(=O)[N-]CC(=O)[N-]c2ccccc2C(=O)[O-])cc1 (3D coordinates assigned)
Cc1ccc(S(=O)(=O)[N-]CC(=O)[N-]c2ccccc2C(=O)[O-])cc1 (optimized conformer: 43.9428523376442 kcal/mol)

>  <smiles>  (1531) 
Cc1ccc(S(=O)(=O)NCC(=O)Nc2ccccc2C(=O)O)cc1

>  <score_type>  (1531) 
oracle

>  <origin>  (1531) 
adg

>  <m_score__min__energy>  (1531) 
-15.220000000000001

>  <m_primary>  (1531) 
energy

$$$$
82:0
     RDKit          3D

 35 39  0  0  0  0  0  0  0  0999 V2000
   54.9770   26.6770   46.0030 O   0  0  0  0  0  0  0  0  0  0  0  0
   55.9850   25.7970   46.3860 C   0  0  0  0  0  0  0  0  0  0  0  0
   55.7510   24.6590   47.0590 N   0  0  0  0  0  0  0  0  0  0  0  0
   56.9930   24.1710   47.2640 C   0  0  0  0  0  0  0  0  0  0  0  0
   57.2050   23.0930   47.8760 O   0  0  0  0  0  0  0  0  0  0  0  0
   57.9900   24.9330   46.7650 N   0  0  0  0  0  0  0  0  0  0  0  0
   57.3410   25.9590   46.1880 C   0  0  0  0  0  0  0  0  0  0  0  0
   58.0320   27.0820   45.5340 C   0  0  0  0  0  0  0  0  0  0  0  0
   58.3830   28.2130   46.1750 C   0  0  0  0  0  0  0  0  0  0  0  0
   58.8000   28.3150   47.4970 C   0  0  0  0  0  0  0  0  0  0  0  0
   59.0150   29.6570   47.7440 C   0  0  0  0  0  0  0  0  0  0  0  0
   59.3930   30.2300   49.0750 C   0  0  0  0  0  0  0  0  0  0  0  0
   58.7280   30.3880   46.6460 N   0  0  0  0  0  0  0  0  0  0  0  0
   58.8000   31.8210   46.5450 C   0  0  0  0  0  0  0  0  0  0  0  0
   57.6400   32.5410   46.2250 C   0  0  0  0  0  0  0  0  0  0  0  0
   57.6650   33.9350   46.1710 C   0  0  0  0  0  0  0  0  0  0  0  0
   58.8490   34.6230   46.4360 C   0  0  0  0  0  0  0  0  0  0  0  0
   60.0120   33.9190   46.7530 C   0  0  0  0  0  0  0  0  0  0  0  0
   60.0040   32.5150   46.8150 C   0  0  0  0  0  0  0  0  0  0  0  0
   61.2640   31.7920   47.1120 C   0  0  0  0  0  0  0  0  0  0  0  0
   61.5530   30.7610   46.4460 O   0  0  0  0  0  0  0  0  0  0  0  0
   62.1830   32.2640   48.1150 N   0  0  0  0  0  0  0  0  0  0  0  0
   63.6190   31.9730   47.9630 C   0  0  0  0  0  0  0  0  0  0  0  0
   64.4510   32.6910   49.0320 C   0  0  0  0  0  0  0  0  0  0  0  0
   63.9450   32.3760   50.4580 C   0  0  0  0  0  0  0  0  0  0  0  0
   64.5180   33.3730   51.4300 C   0  0  0  0  0  0  0  0  0  0  0  0
   63.9940   33.5240   52.5670 O   0  0  0  0  0  0  0  0  0  0  0  0
   65.6230   34.1900   51.0330 N   0  0  0  0  0  0  0  0  0  0  0  0
   66.9990   33.8620   51.3840 C   0  0  0  0  0  0  0  0  0  0  0  0
   67.3290   32.3960   51.1780 C   0  0  0  0  0  0  0  0  0  0  0  0
   67.8480   33.4390   50.1990 C   0  0  0  0  0  0  0  0  0  0  0  0
   62.3940   32.3070   50.5590 C   0  0  0  0  0  0  0  0  0  0  0  0
   61.6990   32.9190   49.3400 C   0  0  0  0  0  0  0  0  0  0  0  0
   58.3500   29.5180   45.6740 C   0  0  0  0  0  0  0  0  0  0  0  0
   58.0230   29.8850   44.4260 C   0  0  0  0  0  0  0  0  0  0  0  0
  1  2  1  0
  2  3  1  0
  3  4  1  0
  4  5  2  0
  4  6  1  0
  6  7  1  0
  7  8  1  0
  8  9  2  0
  9 10  1  0
 10 11  2  0
 11 12  1  0
 11 13  1  0
 13 14  1  0
 14 15  2  0
 15 16  1  0
 16 17  2  0
 17 18  1  0
 18 19  2  0
 19 20  1  0
 20 21  2  0
 20 22  1  0
 22 23  1  0
 23 24  1  0
 24 25  1  0
 25 26  1  0
 26 27  2  0
 26 28  1  0
 28 29  1  0
 29 30  1  0
 30 31  1  0
 25 32  1  0
 32 33  1  0
 13 34  1  0
 34 35  2  0
  7  2  2  0
 34  9  1  0
 19 14  1  0
 33 22  1  0
 31 29  1  0
M  CHG  3   3  -1   6  -1  28  -1
M  END
>  <UniqueID>  (1532) 
78

>  <SMILES>  (1532) 
C=c1/c(=C/c2[n-]c(=O)[n-]c2O)cc(C)n1-c1ccccc1C(=O)N1CCC(C(=O)[N-]C2CC2)CC1

>  <Energy>  (1532) 
404.56425581193037

>  <Genealogy>  (1532) 
C=c1c(=Cc2[n-]c(=O)[n-]c2O)cc(C)n1-c1ccccc1C(=O)N1CCC(C(=O)[N-]C2CC2)CC1 (protonated)
C=c1/c(=C/c2[n-]c(=O)[n-]c2O)cc(C)n1-c1ccccc1C(=O)N1CCC(C(=O)[N-]C2CC2)CC1 (cis-trans isomerization)
C=c1/c(=C/c2[n-]c(=O)[n-]c2O)cc(C)n1-c1ccccc1C(=O)N1CCC(C(=O)[N-]C2CC2)CC1 (3D coordinates assigned)
C=c1/c(=C/c2[n-]c(=O)[n-]c2O)cc(C)n1-c1ccccc1C(=O)N1CCC(C(=O)[N-]C2CC2)CC1 (nonaromatic ring conformer: 404.56425581193037 kcal/mol)

>  <smiles>  (1532) 
C=c1c(=Cc2[nH]c(=O)[nH]c2O)cc(C)n1-c1ccccc1C(=O)N1CCC(C(=O)NC2CC2)CC1

>  <score_type>  (1532) 
oracle

>  <origin>  (1532) 
adg

>  <m_score__min__energy>  (1532) 
-15.199999999999999

>  <m_primary>  (1532) 
energy

$$$$
83:0
     RDKit          3D

 32 35  0  0  0  0  0  0  0  0999 V2000
   54.9950   26.5280   46.1860 O   0  0  0  0  0  0  0  0  0  0  0  0
   55.9580   25.5360   46.3450 C   0  0  0  0  0  0  0  0  0  0  0  0
   55.8220   24.4860   47.1750 N   0  0  0  0  0  0  0  0  0  0  0  0
   56.9830   23.8200   46.9990 C   0  0  0  0  0  0  0  0  0  0  0  0
   57.2520   22.7530   47.6130 O   0  0  0  0  0  0  0  0  0  0  0  0
   57.8330   24.3880   46.1180 N   0  0  0  0  0  0  0  0  0  0  0  0
   57.1700   25.4820   45.6980 C   0  0  0  0  0  0  0  0  0  0  0  0
   57.6640   26.4820   44.7270 C   0  0  0  0  0  0  0  0  0  0  0  0
   58.2130   27.6760   45.0340 C   0  0  0  0  0  0  0  0  0  0  0  0
   59.5090   27.9210   45.4800 C   0  0  0  0  0  0  0  0  0  0  0  0
   59.6240   29.2870   45.6370 C   0  0  0  0  0  0  0  0  0  0  0  0
   60.8670   29.9930   46.0890 C   0  0  0  0  0  0  0  0  0  0  0  0
   58.4690   29.9000   45.3030 N   0  0  0  0  0  0  0  0  0  0  0  0
   58.2400   31.3170   45.2900 C   0  0  0  0  0  0  0  0  0  0  0  0
   57.8370   31.9590   44.1100 C   0  0  0  0  0  0  0  0  0  0  0  0
   57.6210   33.3380   44.1010 C   0  0  0  0  0  0  0  0  0  0  0  0
   57.8370   34.0880   45.2600 C   0  0  0  0  0  0  0  0  0  0  0  0
   58.2860   33.4670   46.4320 C   0  0  0  0  0  0  0  0  0  0  0  0
   58.5260   34.2690   47.5940 N   0  0  0  0  0  0  0  0  0  0  0  0
   59.5010   34.0340   48.6210 C   0  0  0  0  0  0  0  0  0  0  0  0
   60.4720   34.8300   48.7180 O   0  0  0  0  0  0  0  0  0  0  0  0
   59.5000   32.7940   49.4800 C   0  0  0  0  0  0  0  0  0  0  0  0
   60.4310   31.7090   48.9250 C   0  0  0  0  0  0  0  0  0  0  0  0
   61.8520   32.1920   48.7970 C   0  0  0  0  0  0  0  0  0  0  0  0
   62.6840   32.2700   49.9280 C   0  0  0  0  0  0  0  0  0  0  0  0
   64.0000   32.7250   49.8040 C   0  0  0  0  0  0  0  0  0  0  0  0
   64.4930   33.1110   48.5550 C   0  0  0  0  0  0  0  0  0  0  0  0
   63.6710   33.0430   47.4280 C   0  0  0  0  0  0  0  0  0  0  0  0
   62.3550   32.5860   47.5460 C   0  0  0  0  0  0  0  0  0  0  0  0
   58.4330   32.0710   46.4560 C   0  0  0  0  0  0  0  0  0  0  0  0
   57.5960   28.9290   44.9350 C   0  0  0  0  0  0  0  0  0  0  0  0
   56.3460   29.1730   44.5120 C   0  0  0  0  0  0  0  0  0  0  0  0
  1  2  1  0
  2  3  1  0
  3  4  1  0
  4  5  2  0
  4  6  1  0
  6  7  1  0
  7  8  1  0
  8  9  2  0
  9 10  1  0
 10 11  2  0
 11 12  1  0
 11 13  1  0
 13 14  1  0
 14 15  2  0
 15 16  1  0
 16 17  2  0
 17 18  1  0
 18 19  1  0
 19 20  1  0
 20 21  2  0
 20 22  1  0
 22 23  1  0
 23 24  1  0
 24 25  2  0
 25 26  1  0
 26 27  2  0
 27 28  1  0
 28 29  2  0
 18 30  2  0
 13 31  1  0
 31 32  2  0
  7  2  2  0
 31  9  1  0
 30 14  1  0
 29 24  1  0
M  CHG  3   3  -1   6  -1  19  -1
M  END
>  <UniqueID>  (1533) 
79

>  <SMILES>  (1533) 
C=c1/c(=C/c2[n-]c(=O)[n-]c2O)cc(C)n1-c1cccc([N-]C(=O)CCc2ccccc2)c1

>  <Energy>  (1533) 
122.97941299725767

>  <Genealogy>  (1533) 
C=c1c(=Cc2[n-]c(=O)[n-]c2O)cc(C)n1-c1cccc([N-]C(=O)CCc2ccccc2)c1 (protonated)
C=c1/c(=C/c2[n-]c(=O)[n-]c2O)cc(C)n1-c1cccc([N-]C(=O)CCc2ccccc2)c1 (cis-trans isomerization)
C=c1/c(=C/c2[n-]c(=O)[n-]c2O)cc(C)n1-c1cccc([N-]C(=O)CCc2ccccc2)c1 (3D coordinates assigned)
C=c1/c(=C/c2[n-]c(=O)[n-]c2O)cc(C)n1-c1cccc([N-]C(=O)CCc2ccccc2)c1 (optimized conformer: 122.97941299725767 kcal/mol)

>  <smiles>  (1533) 
C=c1c(=Cc2[nH]c(=O)[nH]c2O)cc(C)n1-c1cccc(NC(=O)CCc2ccccc2)c1

>  <score_type>  (1533) 
oracle

>  <origin>  (1533) 
adg

>  <m_score__min__energy>  (1533) 
-14.77

>  <m_primary>  (1533) 
energy

$$$$
13:0
     RDKit          3D

 32 35  0  0  0  0  0  0  0  0999 V2000
   60.1040   29.6110   46.2800 C   0  0  0  0  0  0  0  0  0  0  0  0
   59.3870   30.6460   45.8140 C   0  0  0  0  0  0  0  0  0  0  0  0
   58.3670   30.5850   44.8580 C   0  0  0  0  0  0  0  0  0  0  0  0
   57.9100   29.4920   44.2160 C   0  0  0  0  0  0  0  0  0  0  0  0
   57.3850   28.2960   44.9110 C   0  0  0  0  0  0  0  0  0  0  0  0
   56.0180   28.2020   45.2120 C   0  0  0  0  0  0  0  0  0  0  0  0
   55.1510   29.2410   44.8970 O   0  0  0  0  0  0  0  0  0  0  0  0
   55.5330   27.0930   45.8270 N   0  0  0  0  0  0  0  0  0  0  0  0
   56.3480   26.0550   46.1460 C   0  0  0  0  0  0  0  0  0  0  0  0
   55.8770   25.0390   46.7200 O   0  0  0  0  0  0  0  0  0  0  0  0
   57.6700   26.1110   45.8420 N   0  0  0  0  0  0  0  0  0  0  0  0
   58.2040   27.1960   45.2270 C   0  0  0  0  0  0  0  0  0  0  0  0
   59.4290   27.1970   44.9290 O   0  0  0  0  0  0  0  0  0  0  0  0
   57.9410   31.8910   44.6580 C   0  0  0  0  0  0  0  0  0  0  0  0
   58.6930   32.6860   45.4990 C   0  0  0  0  0  0  0  0  0  0  0  0
   58.5730   34.1770   45.5930 C   0  0  0  0  0  0  0  0  0  0  0  0
   59.5750   31.9340   46.1960 N   0  0  0  0  0  0  0  0  0  0  0  0
   60.5150   32.4260   47.1680 C   0  0  0  0  0  0  0  0  0  0  0  0
   61.8280   32.7330   46.7870 C   0  0  0  0  0  0  0  0  0  0  0  0
   62.7460   33.1960   47.7350 C   0  0  0  0  0  0  0  0  0  0  0  0
   62.3590   33.3680   49.0750 C   0  0  0  0  0  0  0  0  0  0  0  0
   63.3390   33.8440   50.0750 C   0  0  0  0  0  0  0  0  0  0  0  0
   63.0810   34.8880   50.7350 O   0  0  0  0  0  0  0  0  0  0  0  0
   64.5750   33.1430   50.3140 N   0  0  0  0  0  0  0  0  0  0  0  0
   65.7320   33.8740   50.8410 C   0  0  0  0  0  0  0  0  0  0  0  0
   67.0270   33.1210   50.5090 C   0  0  0  0  0  0  0  0  0  0  0  0
   67.0190   31.7010   50.9510 N   0  0  0  0  0  0  0  0  0  0  0  0
   67.9220   31.4890   52.0930 C   0  0  0  0  0  0  0  0  0  0  0  0
   65.6760   31.1530   51.2540 C   0  0  0  0  0  0  0  0  0  0  0  0
   64.6170   31.6740   50.2780 C   0  0  0  0  0  0  0  0  0  0  0  0
   61.0470   33.0410   49.4560 C   0  0  0  0  0  0  0  0  0  0  0  0
   60.1310   32.5770   48.5080 C   0  0  0  0  0  0  0  0  0  0  0  0
  1  2  2  0
  2  3  1  0
  3  4  2  3
  4  5  1  0
  5  6  2  0
  6  7  1  0
  6  8  1  0
  8  9  1  0
  9 10  2  0
  9 11  1  0
 11 12  1  0
 12 13  2  0
  3 14  1  0
 14 15  2  0
 15 16  1  0
 15 17  1  0
 17 18  1  0
 18 19  2  0
 19 20  1  0
 20 21  2  0
 21 22  1  0
 22 23  2  0
 22 24  1  0
 24 25  1  0
 25 26  1  0
 26 27  1  0
 27 28  1  0
 27 29  1  0
 29 30  1  0
 21 31  1  0
 31 32  2  0
 17  2  1  0
 32 18  1  0
 12  5  1  0
 30 24  1  0
M  CHG  3   7  -1   8  -1  11  -1
M  END
>  <UniqueID>  (1534) 
12

>  <SMILES>  (1534) 
C=c1c(=Cc2c([O-])[n-]c(=O)[n-]c2=O)cc(C)n1-c1ccc(C(=O)N2CCN(C)CC2)cc1

>  <Energy>  (1534) 
113.24974729373211

>  <Genealogy>  (1534) 
C=c1c(=Cc2c([O-])[n-]c(=O)[n-]c2=O)cc(C)n1-c1ccc(C(=O)N2CCN(C)CC2)cc1 (protonated)
C=c1c(=Cc2c([O-])[n-]c(=O)[n-]c2=O)cc(C)n1-c1ccc(C(=O)N2CCN(C)CC2)cc1 (3D coordinates assigned)
C=c1c(=Cc2c([O-])[n-]c(=O)[n-]c2=O)cc(C)n1-c1ccc(C(=O)N2CCN(C)CC2)cc1 (nonaromatic ring conformer: 113.24974729373211 kcal/mol)

>  <smiles>  (1534) 
C=c1c(=Cc2c(O)[nH]c(=O)[nH]c2=O)cc(C)n1-c1ccc(C(=O)N2CCN(C)CC2)cc1

>  <score_type>  (1534) 
oracle

>  <origin>  (1534) 
adg

>  <m_score__min__energy>  (1534) 
-16.489999999999998

>  <m_primary>  (1534) 
energy

$$$$
25:0
     RDKit          3D

 29 32  0  0  0  0  0  0  0  0999 V2000
   59.3670   28.1360   46.8400 C   0  0  0  0  0  0  0  0  0  0  0  0
   58.5500   28.6880   45.9280 C   0  0  0  0  0  0  0  0  0  0  0  0
   57.7830   28.0070   44.9720 C   0  0  0  0  0  0  0  0  0  0  0  0
   57.7310   26.6710   44.7800 C   0  0  0  0  0  0  0  0  0  0  0  0
   57.1480   25.6840   45.7160 C   0  0  0  0  0  0  0  0  0  0  0  0
   57.7790   24.6150   46.2330 N   0  0  0  0  0  0  0  0  0  0  0  0
   56.8530   24.0630   47.0470 C   0  0  0  0  0  0  0  0  0  0  0  0
   57.0750   23.0210   47.7170 O   0  0  0  0  0  0  0  0  0  0  0  0
   55.6730   24.7170   47.0870 N   0  0  0  0  0  0  0  0  0  0  0  0
   55.8790   25.7410   46.2440 C   0  0  0  0  0  0  0  0  0  0  0  0
   54.9240   26.7100   45.9620 O   0  0  0  0  0  0  0  0  0  0  0  0
   57.0690   28.9850   44.2870 C   0  0  0  0  0  0  0  0  0  0  0  0
   57.4320   30.2000   44.8300 C   0  0  0  0  0  0  0  0  0  0  0  0
   56.8820   31.5260   44.3980 C   0  0  0  0  0  0  0  0  0  0  0  0
   58.3250   30.0230   45.8280 N   0  0  0  0  0  0  0  0  0  0  0  0
   58.9200   31.0670   46.6190 C   0  0  0  0  0  0  0  0  0  0  0  0
   58.9150   30.9800   48.0180 C   0  0  0  0  0  0  0  0  0  0  0  0
   59.4850   31.9980   48.7870 C   0  0  0  0  0  0  0  0  0  0  0  0
   60.0550   33.1220   48.1680 C   0  0  0  0  0  0  0  0  0  0  0  0
   60.6590   34.2260   49.0040 C   0  0  0  0  0  0  0  0  0  0  0  0
   62.0560   33.9720   49.4190 N   0  0  0  0  0  0  0  0  0  0  0  0
   62.2810   32.7820   50.2580 C   0  0  0  0  0  0  0  0  0  0  0  0
   62.6890   31.5880   49.4500 C   0  0  0  0  0  0  0  0  0  0  0  0
   62.4960   30.4300   49.9070 O   0  0  0  0  0  0  0  0  0  0  0  0
   63.3700   31.7560   48.2060 N   0  0  0  0  0  0  0  0  0  0  0  0
   63.3650   33.0240   47.4840 C   0  0  0  0  0  0  0  0  0  0  0  0
   63.1040   34.2250   48.4100 C   0  0  0  0  0  0  0  0  0  0  0  0
   60.0910   33.1860   46.7650 C   0  0  0  0  0  0  0  0  0  0  0  0
   59.5200   32.1700   45.9970 C   0  0  0  0  0  0  0  0  0  0  0  0
  1  2  2  0
  2  3  1  0
  3  4  2  0
  4  5  1  0
  5  6  1  0
  6  7  1  0
  7  8  2  0
  7  9  1  0
  9 10  1  0
 10 11  1  0
  3 12  1  0
 12 13  2  0
 13 14  1  0
 13 15  1  0
 15 16  1  0
 16 17  2  0
 17 18  1  0
 18 19  2  0
 19 20  1  0
 20 21  1  0
 21 22  1  0
 22 23  1  0
 23 24  2  0
 23 25  1  0
 25 26  1  0
 26 27  1  0
 19 28  1  0
 28 29  2  0
 15  2  1  0
 29 16  1  0
 10  5  2  0
 27 21  1  0
M  CHG  3   6  -1   9  -1  11  -1
M  END
>  <UniqueID>  (1535) 
21

>  <SMILES>  (1535) 
C=c1/c(=C/c2[n-]c(=O)[n-]c2[O-])cc(C)n1-c1ccc(CN2CCNC(=O)C2)cc1

>  <Energy>  (1535) 
128.21914739455414

>  <Genealogy>  (1535) 
C=c1c(=Cc2[n-]c(=O)[n-]c2[O-])cc(C)n1-c1ccc(CN2CCNC(=O)C2)cc1 (protonated)
C=c1/c(=C/c2[n-]c(=O)[n-]c2[O-])cc(C)n1-c1ccc(CN2CCNC(=O)C2)cc1 (cis-trans isomerization)
C=c1/c(=C/c2[n-]c(=O)[n-]c2[O-])cc(C)n1-c1ccc(CN2CCNC(=O)C2)cc1 (3D coordinates assigned)
C=c1/c(=C/c2[n-]c(=O)[n-]c2[O-])cc(C)n1-c1ccc(CN2CCNC(=O)C2)cc1 (nonaromatic ring conformer: 128.21914739455414 kcal/mol)

>  <smiles>  (1535) 
C=c1c(=Cc2[nH]c(=O)[nH]c2O)cc(C)n1-c1ccc(CN2CCNC(=O)C2)cc1

>  <score_type>  (1535) 
oracle

>  <origin>  (1535) 
adg

>  <m_score__min__energy>  (1535) 
-15.81

>  <m_primary>  (1535) 
energy

$$$$
26:0
     RDKit          3D

 29 31  0  0  0  0  0  0  0  0999 V2000
   61.5380   30.8010   46.8770 C   0  0  0  0  0  0  0  0  0  0  0  0
   61.1670   29.6940   46.2350 C   0  0  0  0  0  0  0  0  0  0  0  0
   59.7510   29.3000   46.0500 C   0  0  0  0  0  0  0  0  0  0  0  0
   58.9840   30.0030   45.1190 C   0  0  0  0  0  0  0  0  0  0  0  0
   57.6480   29.6700   44.9030 C   0  0  0  0  0  0  0  0  0  0  0  0
   56.7480   30.5290   43.6430 S   0  0  0  0  0  0  0  0  0  0  0  0
   56.6990   29.7390   42.3660 O   0  0  0  0  0  0  0  0  0  0  0  0
   55.3390   30.7490   44.1150 O   0  0  0  0  0  0  0  0  0  0  0  0
   57.4950   32.0680   43.3520 N   0  0  0  0  0  0  0  0  0  0  0  0
   57.8890   32.8740   44.2910 C   0  0  0  0  0  0  0  0  0  0  0  0
   58.9400   33.7200   44.0930 N   0  0  0  0  0  0  0  0  0  0  0  0
   59.3760   34.5660   45.0640 C   0  0  0  0  0  0  0  0  0  0  0  0
   58.7460   34.5840   46.3090 C   0  0  0  0  0  0  0  0  0  0  0  0
   57.6670   33.7280   46.5390 C   0  0  0  0  0  0  0  0  0  0  0  0
   57.2310   32.8700   45.5270 C   0  0  0  0  0  0  0  0  0  0  0  0
   57.0830   28.6110   45.6310 C   0  0  0  0  0  0  0  0  0  0  0  0
   55.8710   28.3060   45.4470 O   0  0  0  0  0  0  0  0  0  0  0  0
   57.8450   27.8920   46.5200 N   0  0  0  0  0  0  0  0  0  0  0  0
   57.2630   26.7020   47.1750 C   0  0  0  0  0  0  0  0  0  0  0  0
   56.9660   25.6230   46.1630 C   0  0  0  0  0  0  0  0  0  0  0  0
   57.9460   24.7490   45.7950 N   0  0  0  0  0  0  0  0  0  0  0  0
   57.7350   23.7570   44.8900 C   0  0  0  0  0  0  0  0  0  0  0  0
   58.8500   22.8230   44.5410 C   0  0  0  0  0  0  0  0  0  0  0  0
   56.4620   23.5900   44.3300 C   0  0  0  0  0  0  0  0  0  0  0  0
   55.4350   24.4590   44.6980 C   0  0  0  0  0  0  0  0  0  0  0  0
   55.6780   25.4790   45.6200 C   0  0  0  0  0  0  0  0  0  0  0  0
   54.6470   26.3360   45.9900 O   0  0  0  0  0  0  0  0  0  0  0  0
   59.1690   28.2040   46.7170 C   0  0  0  0  0  0  0  0  0  0  0  0
   59.9560   27.4070   47.5460 O   0  0  0  0  0  0  0  0  0  0  0  0
  1  2  2  0
  2  3  1  0
  3  4  1  0
  4  5  2  0
  5  6  1  0
  6  7  2  0
  6  8  2  0
  6  9  1  0
  9 10  2  0
 10 11  1  0
 11 12  1  0
 12 13  2  0
 13 14  1  0
 14 15  2  0
  5 16  1  0
 16 17  2  0
 16 18  1  0
 18 19  1  0
 19 20  1  0
 20 21  2  0
 21 22  1  0
 22 23  1  0
 22 24  2  0
 24 25  1  0
 25 26  2  0
 26 27  1  0
 18 28  1  0
 28 29  1  0
 28  3  2  0
 15 10  1  0
 26 20  1  0
M  CHG  3  11  -1  27  -1  29  -1
M  END
>  <UniqueID>  (1536) 
22

>  <SMILES>  (1536) 
C=Cc1cc(S(=O)(=O)/N=c2/cccc[n-]2)c(=O)n(Cc2nc(C)ccc2[O-])c1[O-]

>  <Energy>  (1536) 
56.42906851131294

>  <Genealogy>  (1536) 
C=Cc1cc(S(=O)(=O)N=c2cccc[n-]2)c(=O)n(Cc2nc(C)ccc2[O-])c1[O-] (protonated)
C=Cc1cc(S(=O)(=O)/N=c2/cccc[n-]2)c(=O)n(Cc2nc(C)ccc2[O-])c1[O-] (cis-trans isomerization)
C=Cc1cc(S(=O)(=O)/N=c2/cccc[n-]2)c(=O)n(Cc2nc(C)ccc2[O-])c1[O-] (3D coordinates assigned)
C=Cc1cc(S(=O)(=O)/N=c2/cccc[n-]2)c(=O)n(Cc2nc(C)ccc2[O-])c1[O-] (optimized conformer: 56.42906851131294 kcal/mol)

>  <smiles>  (1536) 
C=Cc1cc(S(=O)(=O)N=c2cccc[nH]2)c(=O)n(Cc2nc(C)ccc2O)c1O

>  <score_type>  (1536) 
oracle

>  <origin>  (1536) 
adg

>  <m_score__min__energy>  (1536) 
-15.43

>  <m_primary>  (1536) 
energy

$$$$
33:0
     RDKit          3D

 23 24  0  0  0  0  0  0  0  0999 V2000
   59.0560   30.5580   47.8050 C   0  0  0  0  0  0  0  0  0  0  0  0
   58.6470   31.0660   46.6270 C   0  0  0  0  0  0  0  0  0  0  0  0
   58.5700   32.4680   46.5310 C   0  0  0  0  0  0  0  0  0  0  0  0
   57.9090   33.0750   45.4700 C   0  0  0  0  0  0  0  0  0  0  0  0
   57.8280   34.4620   45.4080 O   0  0  0  0  0  0  0  0  0  0  0  0
   57.3040   32.3000   44.4900 C   0  0  0  0  0  0  0  0  0  0  0  0
   57.4050   30.9010   44.5120 C   0  0  0  0  0  0  0  0  0  0  0  0
   56.7560   30.1390   43.3780 C   0  0  0  0  0  0  0  0  0  0  0  0
   58.1730   30.2570   45.5360 C   0  0  0  0  0  0  0  0  0  0  0  0
   58.4400   28.9250   45.4210 C   0  0  0  0  0  0  0  0  0  0  0  0
   57.5380   27.8220   45.8050 C   0  0  0  0  0  0  0  0  0  0  0  0
   56.2020   27.8730   45.6210 N   0  0  0  0  0  0  0  0  0  0  0  0
   55.7400   26.6650   46.0060 C   0  0  0  0  0  0  0  0  0  0  0  0
   54.3930   26.3280   45.9730 O   0  0  0  0  0  0  0  0  0  0  0  0
   56.7620   25.8260   46.4140 C   0  0  0  0  0  0  0  0  0  0  0  0
   56.6540   24.4320   46.8780 C   0  0  0  0  0  0  0  0  0  0  0  0
   56.1030   24.1920   47.9850 O   0  0  0  0  0  0  0  0  0  0  0  0
   57.1470   23.3700   46.0430 N   0  0  0  0  0  0  0  0  0  0  0  0
   57.6510   23.4340   44.8430 C   0  0  0  0  0  0  0  0  0  0  0  0
   56.9560   24.0270   43.6460 C   0  0  0  0  0  0  0  0  0  0  0  0
   55.9920   23.0280   43.0110 C   0  0  0  0  0  0  0  0  0  0  0  0
   57.9130   26.5700   46.2650 C   0  0  0  0  0  0  0  0  0  0  0  0
   59.2110   26.1320   46.4950 O   0  0  0  0  0  0  0  0  0  0  0  0
  1  2  2  0
  2  3  1  0
  3  4  2  0
  4  5  1  0
  4  6  1  0
  6  7  2  0
  7  8  1  0
  7  9  1  0
  9 10  2  3
 10 11  1  0
 11 12  1  0
 12 13  1  0
 13 14  1  0
 13 15  2  0
 15 16  1  0
 16 17  2  0
 16 18  1  0
 18 19  2  0
 19 20  1  0
 20 21  1  0
 15 22  1  0
 22 23  1  0
  9  2  1  0
 22 11  2  0
M  CHG  4   5  -1  12  -1  14  -1  23  -1
M  END
>  <UniqueID>  (1537) 
29

>  <SMILES>  (1537) 
C=c1cc([O-])cc(C)c1=Cc1[n-]c([O-])c(C(=O)/N=C\CC)c1[O-]

>  <Energy>  (1537) 
90.50390460020877

>  <Genealogy>  (1537) 
C=c1cc([O-])cc(C)c1=Cc1[n-]c([O-])c(C(=O)N=CCC)c1[O-] (protonated)
C=c1cc([O-])cc(C)c1=Cc1[n-]c([O-])c(C(=O)/N=C\CC)c1[O-] (cis-trans isomerization)
C=c1cc([O-])cc(C)c1=Cc1[n-]c([O-])c(C(=O)/N=C\CC)c1[O-] (3D coordinates assigned)
C=c1cc([O-])cc(C)c1=Cc1[n-]c([O-])c(C(=O)/N=C\CC)c1[O-] (optimized conformer: 90.50390460020877 kcal/mol)

>  <smiles>  (1537) 
C=c1cc(O)cc(C)c1=Cc1[nH]c(O)c(C(=O)N=CCC)c1O

>  <score_type>  (1537) 
oracle

>  <origin>  (1537) 
adg

>  <m_score__min__energy>  (1537) 
-14.76

>  <m_primary>  (1537) 
energy

$$$$
37:0
     RDKit          3D

 33 36  0  0  0  0  0  0  0  0999 V2000
   55.5870   29.8290   44.8370 O   0  0  0  0  0  0  0  0  0  0  0  0
   56.7120   29.2890   45.0090 C   0  0  0  0  0  0  0  0  0  0  0  0
   57.9070   29.9990   44.6530 N   0  0  0  0  0  0  0  0  0  0  0  0
   57.8810   31.2300   43.8650 C   0  0  0  0  0  0  0  0  0  0  0  0
   57.0430   32.2990   44.5730 C   0  0  0  0  0  0  0  0  0  0  0  0
   57.9290   33.2390   45.3450 C   0  0  0  0  0  0  0  0  0  0  0  0
   57.8550   33.2940   46.7470 C   0  0  0  0  0  0  0  0  0  0  0  0
   58.6590   34.1890   47.4600 C   0  0  0  0  0  0  0  0  0  0  0  0
   59.5360   35.0390   46.7790 C   0  0  0  0  0  0  0  0  0  0  0  0
   59.6020   35.0020   45.3840 C   0  0  0  0  0  0  0  0  0  0  0  0
   58.8000   34.1100   44.6660 C   0  0  0  0  0  0  0  0  0  0  0  0
   56.7710   27.9530   45.6290 C   0  0  0  0  0  0  0  0  0  0  0  0
   55.7230   27.1080   45.6320 N   0  0  0  0  0  0  0  0  0  0  0  0
   56.1950   26.0190   46.2690 C   0  0  0  0  0  0  0  0  0  0  0  0
   55.4920   24.9960   46.4770 O   0  0  0  0  0  0  0  0  0  0  0  0
   57.4810   26.1080   46.6600 N   0  0  0  0  0  0  0  0  0  0  0  0
   57.8510   27.3350   46.2460 C   0  0  0  0  0  0  0  0  0  0  0  0
   59.2480   27.8600   46.4160 C   0  0  0  0  0  0  0  0  0  0  0  0
   59.6990   27.8240   47.8560 C   0  0  0  0  0  0  0  0  0  0  0  0
   59.9950   26.7160   48.3870 O   0  0  0  0  0  0  0  0  0  0  0  0
   59.7610   29.0300   48.6470 N   0  0  0  0  0  0  0  0  0  0  0  0
   59.1070   30.2670   48.1920 C   0  0  0  0  0  0  0  0  0  0  0  0
   58.8390   31.2080   49.3750 C   0  0  0  0  0  0  0  0  0  0  0  0
   60.0520   31.4780   50.1840 N   0  0  0  0  0  0  0  0  0  0  0  0
   60.5940   32.8490   50.0450 C   0  0  0  0  0  0  0  0  0  0  0  0
   61.7190   32.9640   49.0350 C   0  0  0  0  0  0  0  0  0  0  0  0
   63.0180   33.3160   49.4440 C   0  0  0  0  0  0  0  0  0  0  0  0
   64.0510   33.4200   48.5080 C   0  0  0  0  0  0  0  0  0  0  0  0
   63.8040   33.1570   47.1580 C   0  0  0  0  0  0  0  0  0  0  0  0
   62.5240   32.7820   46.7440 C   0  0  0  0  0  0  0  0  0  0  0  0
   61.4880   32.6770   47.6770 C   0  0  0  0  0  0  0  0  0  0  0  0
   61.0890   30.4200   50.1650 C   0  0  0  0  0  0  0  0  0  0  0  0
   60.4870   29.0340   49.9230 C   0  0  0  0  0  0  0  0  0  0  0  0
  1  2  2  0
  2  3  1  0
  3  4  1  0
  4  5  1  0
  5  6  1  0
  6  7  2  0
  7  8  1  0
  8  9  2  0
  9 10  1  0
 10 11  2  0
  2 12  1  0
 12 13  1  0
 13 14  1  0
 14 15  2  0
 14 16  1  0
 16 17  1  0
 17 18  1  0
 18 19  1  0
 19 20  2  0
 19 21  1  0
 21 22  1  0
 22 23  1  0
 23 24  1  0
 24 25  1  0
 25 26  1  0
 26 27  2  0
 27 28  1  0
 28 29  2  0
 29 30  1  0
 30 31  2  0
 24 32  1  0
 32 33  1  0
 11  6  1  0
 17 12  2  0
 33 21  1  0
 31 26  1  0
M  CHG  2  13  -1  16  -1
M  END
>  <UniqueID>  (1538) 
32

>  <SMILES>  (1538) 
O=C(NCCc1ccccc1)c1[n-]c(=O)[n-]c1CC(=O)N1CCN(Cc2ccccc2)CC1

>  <Energy>  (1538) 
98.43645128657616

>  <Genealogy>  (1538) 
O=C(NCCc1ccccc1)c1[n-]c(=O)[n-]c1CC(=O)N1CCN(Cc2ccccc2)CC1 (protonated)
O=C(NCCc1ccccc1)c1[n-]c(=O)[n-]c1CC(=O)N1CCN(Cc2ccccc2)CC1 (3D coordinates assigned)
O=C(NCCc1ccccc1)c1[n-]c(=O)[n-]c1CC(=O)N1CCN(Cc2ccccc2)CC1 (nonaromatic ring conformer: 98.43645128657616 kcal/mol)

>  <smiles>  (1538) 
O=C(NCCc1ccccc1)c1[nH]c(=O)[nH]c1CC(=O)N1CCN(Cc2ccccc2)CC1

>  <score_type>  (1538) 
oracle

>  <origin>  (1538) 
adg

>  <m_score__min__energy>  (1538) 
-14.210000000000001

>  <m_primary>  (1538) 
energy

$$$$
41:0
     RDKit          3D

 23 25  0  0  0  0  0  0  0  0999 V2000
   57.3840   30.5630   43.9920 C   0  0  0  0  0  0  0  0  0  0  0  0
   57.8860   30.1390   45.1650 C   0  0  0  0  0  0  0  0  0  0  0  0
   57.7870   28.8500   45.7170 C   0  0  0  0  0  0  0  0  0  0  0  0
   57.3380   27.6920   45.1930 C   0  0  0  0  0  0  0  0  0  0  0  0
   57.1890   26.4190   45.9240 C   0  0  0  0  0  0  0  0  0  0  0  0
   55.9220   25.9310   46.2860 C   0  0  0  0  0  0  0  0  0  0  0  0
   54.7710   26.6560   45.9960 O   0  0  0  0  0  0  0  0  0  0  0  0
   55.8130   24.7350   46.9210 N   0  0  0  0  0  0  0  0  0  0  0  0
   56.9110   23.9870   47.1990 C   0  0  0  0  0  0  0  0  0  0  0  0
   56.7870   22.8850   47.7910 O   0  0  0  0  0  0  0  0  0  0  0  0
   58.1430   24.4250   46.8340 N   0  0  0  0  0  0  0  0  0  0  0  0
   58.3050   25.6150   46.1980 C   0  0  0  0  0  0  0  0  0  0  0  0
   59.4630   25.9870   45.8670 O   0  0  0  0  0  0  0  0  0  0  0  0
   58.2760   28.9450   47.0100 C   0  0  0  0  0  0  0  0  0  0  0  0
   58.7060   30.2440   47.1830 C   0  0  0  0  0  0  0  0  0  0  0  0
   59.3200   30.7760   48.4410 C   0  0  0  0  0  0  0  0  0  0  0  0
   58.4690   30.9700   46.0670 N   0  0  0  0  0  0  0  0  0  0  0  0
   58.7700   32.3670   45.8950 C   0  0  0  0  0  0  0  0  0  0  0  0
   60.0170   32.8740   46.2930 C   0  0  0  0  0  0  0  0  0  0  0  0
   60.3070   34.2330   46.1340 C   0  0  0  0  0  0  0  0  0  0  0  0
   59.3550   35.0910   45.5770 C   0  0  0  0  0  0  0  0  0  0  0  0
   58.1100   34.5920   45.1800 C   0  0  0  0  0  0  0  0  0  0  0  0
   57.8170   33.2340   45.3370 C   0  0  0  0  0  0  0  0  0  0  0  0
  1  2  2  0
  2  3  1  0
  3  4  2  0
  4  5  1  0
  5  6  2  0
  6  7  1  0
  6  8  1  0
  8  9  1  0
  9 10  2  0
  9 11  1  0
 11 12  1  0
 12 13  2  0
  3 14  1  0
 14 15  2  0
 15 16  1  0
 15 17  1  0
 17 18  1  0
 18 19  2  0
 19 20  1  0
 20 21  2  0
 21 22  1  0
 22 23  2  0
 17  2  1  0
 23 18  1  0
 12  5  1  0
M  CHG  3   7  -1   8  -1  11  -1
M  END
>  <UniqueID>  (1539) 
36

>  <SMILES>  (1539) 
C=c1/c(=C\c2c([O-])[n-]c(=O)[n-]c2=O)cc(C)n1-c1ccccc1

>  <Energy>  (1539) 
86.78649123307822

>  <Genealogy>  (1539) 
C=c1c(=Cc2c([O-])[n-]c(=O)[n-]c2=O)cc(C)n1-c1ccccc1 (protonated)
C=c1/c(=C\c2c([O-])[n-]c(=O)[n-]c2=O)cc(C)n1-c1ccccc1 (cis-trans isomerization)
C=c1/c(=C\c2c([O-])[n-]c(=O)[n-]c2=O)cc(C)n1-c1ccccc1 (3D coordinates assigned)
C=c1/c(=C\c2c([O-])[n-]c(=O)[n-]c2=O)cc(C)n1-c1ccccc1 (optimized conformer: 86.78649123307822 kcal/mol)

>  <smiles>  (1539) 
C=c1c(=Cc2c(O)[nH]c(=O)[nH]c2=O)cc(C)n1-c1ccccc1

>  <score_type>  (1539) 
oracle

>  <origin>  (1539) 
adg

>  <m_score__min__energy>  (1539) 
-15.4

>  <m_primary>  (1539) 
energy

$$$$
45:0
     RDKit          3D

 31 34  0  0  0  0  0  0  0  0999 V2000
   56.5330   21.7350   44.2160 C   0  0  0  0  0  0  0  0  0  0  0  0
   56.4210   21.6980   45.6070 C   0  0  0  0  0  0  0  0  0  0  0  0
   56.1650   22.8720   46.3220 C   0  0  0  0  0  0  0  0  0  0  0  0
   56.0360   24.1000   45.6450 C   0  0  0  0  0  0  0  0  0  0  0  0
   55.7270   25.3240   46.3340 N   0  0  0  0  0  0  0  0  0  0  0  0
   56.4050   26.4340   46.3000 C   0  0  0  0  0  0  0  0  0  0  0  0
   55.9030   27.4940   45.6180 N   0  0  0  0  0  0  0  0  0  0  0  0
   56.6000   28.6590   45.5390 C   0  0  0  0  0  0  0  0  0  0  0  0
   56.1260   29.6800   44.8890 N   0  0  0  0  0  0  0  0  0  0  0  0
   56.9090   30.5490   44.0120 C   0  0  0  0  0  0  0  0  0  0  0  0
   57.6240   31.6060   44.8110 C   0  0  0  0  0  0  0  0  0  0  0  0
   58.8390   31.3180   45.4520 C   0  0  0  0  0  0  0  0  0  0  0  0
   59.4830   32.2970   46.2140 C   0  0  0  0  0  0  0  0  0  0  0  0
   58.9220   33.5780   46.3440 C   0  0  0  0  0  0  0  0  0  0  0  0
   59.6180   34.6260   47.1700 C   0  0  0  0  0  0  0  0  0  0  0  0
   61.0680   34.5590   46.9770 N   0  0  0  0  0  0  0  0  0  0  0  0
   61.8340   33.6370   48.2390 S   0  0  0  0  0  0  0  0  0  0  0  0
   60.8040   32.9010   49.0510 O   0  0  0  0  0  0  0  0  0  0  0  0
   62.5800   34.5800   49.1390 O   0  0  0  0  0  0  0  0  0  0  0  0
   62.9900   32.4740   47.5460 C   0  0  0  0  0  0  0  0  0  0  0  0
   57.7020   33.8620   45.7100 C   0  0  0  0  0  0  0  0  0  0  0  0
   57.0590   32.8830   44.9480 C   0  0  0  0  0  0  0  0  0  0  0  0
   57.8100   28.7580   46.1440 N   0  0  0  0  0  0  0  0  0  0  0  0
   58.3270   27.6980   46.8230 C   0  0  0  0  0  0  0  0  0  0  0  0
   59.4880   27.7760   47.3980 N   0  0  0  0  0  0  0  0  0  0  0  0
   60.1490   29.0400   47.7090 C   0  0  0  0  0  0  0  0  0  0  0  0
   59.3370   29.9170   48.6440 C   0  0  0  0  0  0  0  0  0  0  0  0
   60.5580   29.1720   49.1640 C   0  0  0  0  0  0  0  0  0  0  0  0
   57.6240   26.5390   46.8940 N   0  0  0  0  0  0  0  0  0  0  0  0
   56.1190   24.1210   44.2450 C   0  0  0  0  0  0  0  0  0  0  0  0
   56.3770   22.9450   43.5350 C   0  0  0  0  0  0  0  0  0  0  0  0
  1  2  2  0
  2  3  1  0
  3  4  2  0
  4  5  1  0
  5  6  2  0
  6  7  1  0
  7  8  1  0
  8  9  2  3
  9 10  1  0
 10 11  1  0
 11 12  2  0
 12 13  1  0
 13 14  2  0
 14 15  1  0
 15 16  1  0
 16 17  1  0
 17 18  2  0
 17 19  2  0
 17 20  1  0
 14 21  1  0
 21 22  2  0
  8 23  1  0
 23 24  1  0
 24 25  2  3
 25 26  1  0
 26 27  1  0
 27 28  1  0
 24 29  1  0
  4 30  1  0
 30 31  2  0
 31  1  1  0
 29  6  1  0
 22 11  1  0
 28 26  1  0
M  CHG  4   7  -1  16  -1  23  -1  29  -1
M  END
>  <UniqueID>  (1540) 
40

>  <SMILES>  (1540) 
CS(=O)(=O)[N-]Cc1ccc(CN=c2[n-]c(=NC3CC3)[n-]/c(=N\c3ccccc3)[n-]2)cc1

>  <Energy>  (1540) 
319.3754874787413

>  <Genealogy>  (1540) 
CS(=O)(=O)[N-]Cc1ccc(CN=c2[n-]c(=Nc3ccccc3)[n-]c(=NC3CC3)[n-]2)cc1 (protonated)
CS(=O)(=O)[N-]Cc1ccc(CN=c2[n-]c(=NC3CC3)[n-]/c(=N\c3ccccc3)[n-]2)cc1 (cis-trans isomerization)
CS(=O)(=O)[N-]Cc1ccc(CN=c2[n-]c(=NC3CC3)[n-]/c(=N\c3ccccc3)[n-]2)cc1 (3D coordinates assigned)
CS(=O)(=O)[N-]Cc1ccc(CN=c2[n-]c(=NC3CC3)[n-]/c(=N\c3ccccc3)[n-]2)cc1 (nonaromatic ring conformer: 319.3754874787413 kcal/mol)

>  <smiles>  (1540) 
CS(=O)(=O)NCc1ccc(CN=c2[nH]c(=Nc3ccccc3)[nH]c(=NC3CC3)[nH]2)cc1

>  <score_type>  (1540) 
oracle

>  <origin>  (1540) 
adg

>  <m_score__min__energy>  (1540) 
-14.300000000000001

>  <m_primary>  (1540) 
energy

$$$$
47:0
     RDKit          3D

 27 29  0  0  0  0  0  0  0  0999 V2000
   56.3230   29.5920   43.5520 C   0  0  0  0  0  0  0  0  0  0  0  0
   57.3550   29.5090   44.4090 C   0  0  0  0  0  0  0  0  0  0  0  0
   57.8370   28.3400   45.0220 C   0  0  0  0  0  0  0  0  0  0  0  0
   57.5810   27.0390   44.7780 C   0  0  0  0  0  0  0  0  0  0  0  0
   57.1360   26.0450   45.7670 C   0  0  0  0  0  0  0  0  0  0  0  0
   57.8960   25.0110   46.1690 N   0  0  0  0  0  0  0  0  0  0  0  0
   57.0610   24.2950   46.9530 C   0  0  0  0  0  0  0  0  0  0  0  0
   57.4210   23.2400   47.5390 O   0  0  0  0  0  0  0  0  0  0  0  0
   55.8070   24.7880   47.0480 N   0  0  0  0  0  0  0  0  0  0  0  0
   55.8650   25.8860   46.2770 C   0  0  0  0  0  0  0  0  0  0  0  0
   54.7710   26.7020   46.0170 O   0  0  0  0  0  0  0  0  0  0  0  0
   58.7310   28.7510   45.9930 C   0  0  0  0  0  0  0  0  0  0  0  0
   58.8370   30.1200   45.8860 C   0  0  0  0  0  0  0  0  0  0  0  0
   59.7250   30.9570   46.7600 C   0  0  0  0  0  0  0  0  0  0  0  0
   58.0020   30.5910   44.9270 N   0  0  0  0  0  0  0  0  0  0  0  0
   57.8690   32.0040   44.5290 C   0  0  0  0  0  0  0  0  0  0  0  0
   57.4300   32.9030   45.6970 C   0  0  0  0  0  0  0  0  0  0  0  0
   58.1600   34.2510   45.7460 C   0  0  0  0  0  0  0  0  0  0  0  0
   59.5980   34.1030   45.5240 N   0  0  0  0  0  0  0  0  0  0  0  0
   60.5180   34.0970   46.6230 C   0  0  0  0  0  0  0  0  0  0  0  0
   60.0910   34.1810   47.8080 O   0  0  0  0  0  0  0  0  0  0  0  0
   61.9950   34.0000   46.3810 C   0  0  0  0  0  0  0  0  0  0  0  0
   62.6880   33.4860   47.6020 C   0  0  0  0  0  0  0  0  0  0  0  0
   62.9230   34.2030   48.7670 C   0  0  0  0  0  0  0  0  0  0  0  0
   63.6560   33.4820   49.7170 C   0  0  0  0  0  0  0  0  0  0  0  0
   64.0070   32.2040   49.3010 C   0  0  0  0  0  0  0  0  0  0  0  0
   63.4080   31.9730   47.7460 S   0  0  0  0  0  0  0  0  0  0  0  0
  1  2  2  0
  2  3  1  0
  3  4  2  3
  4  5  1  0
  5  6  1  0
  6  7  1  0
  7  8  2  0
  7  9  1  0
  9 10  1  0
 10 11  1  0
  3 12  1  0
 12 13  2  0
 13 14  1  0
 13 15  1  0
 15 16  1  0
 16 17  1  0
 17 18  1  0
 18 19  1  0
 19 20  1  0
 20 21  2  0
 20 22  1  0
 22 23  1  0
 23 24  2  0
 24 25  1  0
 25 26  2  0
 26 27  1  0
 15  2  1  0
 27 23  1  0
 10  5  2  0
M  CHG  3   6  -1   9  -1  11  -1
M  END
>  <UniqueID>  (1541) 
42

>  <SMILES>  (1541) 
C=c1c(=Cc2[n-]c(=O)[n-]c2[O-])cc(C)n1CCCNC(=O)Cc1cccs1

>  <Energy>  (1541) 
132.44605938741134

>  <Genealogy>  (1541) 
C=c1c(=Cc2[n-]c(=O)[n-]c2[O-])cc(C)n1CCCNC(=O)Cc1cccs1 (protonated)
C=c1c(=Cc2[n-]c(=O)[n-]c2[O-])cc(C)n1CCCNC(=O)Cc1cccs1 (3D coordinates assigned)
C=c1c(=Cc2[n-]c(=O)[n-]c2[O-])cc(C)n1CCCNC(=O)Cc1cccs1 (optimized conformer: 132.44605938741134 kcal/mol)

>  <smiles>  (1541) 
C=c1c(=Cc2[nH]c(=O)[nH]c2O)cc(C)n1CCCNC(=O)Cc1cccs1

>  <score_type>  (1541) 
oracle

>  <origin>  (1541) 
adg

>  <m_score__min__energy>  (1541) 
-16.300000000000001

>  <m_primary>  (1541) 
energy

$$$$
48:0
     RDKit          3D

 31 34  0  0  0  0  0  0  0  0999 V2000
   58.3720   29.7340   44.4310 C   0  0  0  0  0  0  0  0  0  0  0  0
   58.4350   29.4890   45.7510 C   0  0  0  0  0  0  0  0  0  0  0  0
   58.3310   28.2390   46.3780 C   0  0  0  0  0  0  0  0  0  0  0  0
   58.1620   27.0460   45.7710 C   0  0  0  0  0  0  0  0  0  0  0  0
   57.4360   25.8850   46.3340 C   0  0  0  0  0  0  0  0  0  0  0  0
   57.9930   24.7900   46.8860 N   0  0  0  0  0  0  0  0  0  0  0  0
   56.9290   24.0570   47.2800 C   0  0  0  0  0  0  0  0  0  0  0  0
   57.0460   22.9380   47.8470 O   0  0  0  0  0  0  0  0  0  0  0  0
   55.7280   24.6170   47.0220 N   0  0  0  0  0  0  0  0  0  0  0  0
   56.0660   25.7730   46.4270 C   0  0  0  0  0  0  0  0  0  0  0  0
   55.1410   26.7080   45.9770 O   0  0  0  0  0  0  0  0  0  0  0  0
   58.4720   28.4830   47.7420 C   0  0  0  0  0  0  0  0  0  0  0  0
   58.6370   29.8450   47.8900 C   0  0  0  0  0  0  0  0  0  0  0  0
   58.9300   30.5190   49.1950 C   0  0  0  0  0  0  0  0  0  0  0  0
   58.6050   30.4540   46.6850 N   0  0  0  0  0  0  0  0  0  0  0  0
   58.7740   31.8630   46.4450 C   0  0  0  0  0  0  0  0  0  0  0  0
   57.7060   32.5820   45.8890 C   0  0  0  0  0  0  0  0  0  0  0  0
   57.8270   33.9490   45.6430 C   0  0  0  0  0  0  0  0  0  0  0  0
   59.0110   34.6120   45.9680 C   0  0  0  0  0  0  0  0  0  0  0  0
   60.0830   33.9080   46.5220 C   0  0  0  0  0  0  0  0  0  0  0  0
   59.9950   32.5230   46.7450 C   0  0  0  0  0  0  0  0  0  0  0  0
   61.1680   31.7970   47.2970 C   0  0  0  0  0  0  0  0  0  0  0  0
   61.5120   30.6890   46.8020 O   0  0  0  0  0  0  0  0  0  0  0  0
   61.8950   32.3000   48.4400 N   0  0  0  0  0  0  0  0  0  0  0  0
   61.7320   31.5830   49.7140 C   0  0  0  0  0  0  0  0  0  0  0  0
   63.1010   31.2810   50.3380 C   0  0  0  0  0  0  0  0  0  0  0  0
   64.1220   31.3520   49.3630 O   0  0  0  0  0  0  0  0  0  0  0  0
   64.2940   32.6970   48.9580 C   0  0  0  0  0  0  0  0  0  0  0  0
   62.9880   33.3030   48.3370 C   0  0  0  0  0  0  0  0  0  0  0  0
   63.2650   33.7190   46.8710 C   0  0  0  0  0  0  0  0  0  0  0  0
   62.5940   34.5690   49.1300 C   0  0  0  0  0  0  0  0  0  0  0  0
  1  2  2  0
  2  3  1  0
  3  4  2  3
  4  5  1  0
  5  6  1  0
  6  7  1  0
  7  8  2  0
  7  9  1  0
  9 10  1  0
 10 11  1  0
  3 12  1  0
 12 13  2  0
 13 14  1  0
 13 15  1  0
 15 16  1  0
 16 17  2  0
 17 18  1  0
 18 19  2  0
 19 20  1  0
 20 21  2  0
 21 22  1  0
 22 23  2  0
 22 24  1  0
 24 25  1  0
 25 26  1  0
 26 27  1  0
 27 28  1  0
 28 29  1  0
 29 30  1  0
 29 31  1  0
 15  2  1  0
 21 16  1  0
 29 24  1  0
 10  5  2  0
M  CHG  3   6  -1   9  -1  11  -1
M  END
>  <UniqueID>  (1542) 
43

>  <SMILES>  (1542) 
C=c1c(=Cc2[n-]c(=O)[n-]c2[O-])cc(C)n1-c1ccccc1C(=O)N1CCOCC1(C)C

>  <Energy>  (1542) 
144.15650811953546

>  <Genealogy>  (1542) 
C=c1c(=Cc2[n-]c(=O)[n-]c2[O-])cc(C)n1-c1ccccc1C(=O)N1CCOCC1(C)C (protonated)
C=c1c(=Cc2[n-]c(=O)[n-]c2[O-])cc(C)n1-c1ccccc1C(=O)N1CCOCC1(C)C (3D coordinates assigned)
C=c1c(=Cc2[n-]c(=O)[n-]c2[O-])cc(C)n1-c1ccccc1C(=O)N1CCOCC1(C)C (nonaromatic ring conformer: 144.15650811953546 kcal/mol)

>  <smiles>  (1542) 
C=c1c(=Cc2[nH]c(=O)[nH]c2O)cc(C)n1-c1ccccc1C(=O)N1CCOCC1(C)C

>  <score_type>  (1542) 
oracle

>  <origin>  (1542) 
adg

>  <m_score__min__energy>  (1542) 
-16.440000000000001

>  <m_primary>  (1542) 
energy

$$$$
52:0
     RDKit          3D

 26 28  0  0  0  0  0  0  0  0999 V2000
   55.6260   29.7400   43.8810 C   0  0  0  0  0  0  0  0  0  0  0  0
   56.7280   29.8210   44.6420 C   0  0  0  0  0  0  0  0  0  0  0  0
   56.9850   31.0240   45.2100 N   0  0  0  0  0  0  0  0  0  0  0  0
   58.1460   31.2990   45.8430 C   0  0  0  0  0  0  0  0  0  0  0  0
   58.2970   32.4340   46.3710 O   0  0  0  0  0  0  0  0  0  0  0  0
   59.1460   30.3670   45.8880 N   0  0  0  0  0  0  0  0  0  0  0  0
   60.4010   30.6740   46.6080 C   0  0  0  0  0  0  0  0  0  0  0  0
   60.4790   29.9130   47.9410 C   0  0  0  0  0  0  0  0  0  0  0  0
   59.6990   30.6080   49.0270 C   0  0  0  0  0  0  0  0  0  0  0  0
   58.9020   29.8660   49.9130 C   0  0  0  0  0  0  0  0  0  0  0  0
   58.1240   30.5170   50.8750 C   0  0  0  0  0  0  0  0  0  0  0  0
   58.1300   31.9120   50.9540 C   0  0  0  0  0  0  0  0  0  0  0  0
   58.9160   32.6590   50.0730 C   0  0  0  0  0  0  0  0  0  0  0  0
   59.6990   32.0120   49.1130 C   0  0  0  0  0  0  0  0  0  0  0  0
   58.9410   29.1220   45.3440 C   0  0  0  0  0  0  0  0  0  0  0  0
   59.8670   28.2630   45.3920 O   0  0  0  0  0  0  0  0  0  0  0  0
   57.6850   28.7720   44.7810 C   0  0  0  0  0  0  0  0  0  0  0  0
   57.4590   27.4690   44.4520 C   0  0  0  0  0  0  0  0  0  0  0  0
   57.4680   26.3220   45.3870 C   0  0  0  0  0  0  0  0  0  0  0  0
   58.6080   25.5070   45.5070 C   0  0  0  0  0  0  0  0  0  0  0  0
   58.5960   24.3960   46.3570 C   0  0  0  0  0  0  0  0  0  0  0  0
   57.4410   24.0760   47.0750 C   0  0  0  0  0  0  0  0  0  0  0  0
   57.4310   22.9720   47.9170 O   0  0  0  0  0  0  0  0  0  0  0  0
   56.2930   24.8640   46.9400 C   0  0  0  0  0  0  0  0  0  0  0  0
   56.3000   25.9780   46.0930 C   0  0  0  0  0  0  0  0  0  0  0  0
   55.1460   26.7450   45.9650 O   0  0  0  0  0  0  0  0  0  0  0  0
  1  2  2  0
  2  3  1  0
  3  4  1  0
  4  5  2  0
  4  6  1  0
  6  7  1  0
  7  8  1  0
  8  9  1  0
  9 10  2  0
 10 11  1  0
 11 12  2  0
 12 13  1  0
 13 14  2  0
  6 15  1  0
 15 16  2  0
 15 17  1  0
 17 18  2  3
 18 19  1  0
 19 20  2  0
 20 21  1  0
 21 22  2  0
 22 23  1  0
 22 24  1  0
 24 25  2  0
 25 26  1  0
 17  2  1  0
 25 19  1  0
 14  9  1  0
M  CHG  3   3  -1  23  -1  26  -1
M  END
>  <UniqueID>  (1543) 
47

>  <SMILES>  (1543) 
C=c1[n-]c(=O)n(CCc2ccccc2)c(=O)c1=Cc1ccc([O-])cc1[O-]

>  <Energy>  (1543) 
67.14512271156237

>  <Genealogy>  (1543) 
C=c1[n-]c(=O)n(CCc2ccccc2)c(=O)c1=Cc1ccc([O-])cc1[O-] (protonated)
C=c1[n-]c(=O)n(CCc2ccccc2)c(=O)c1=Cc1ccc([O-])cc1[O-] (3D coordinates assigned)
C=c1[n-]c(=O)n(CCc2ccccc2)c(=O)c1=Cc1ccc([O-])cc1[O-] (optimized conformer: 67.14512271156237 kcal/mol)

>  <smiles>  (1543) 
C=c1[nH]c(=O)n(CCc2ccccc2)c(=O)c1=Cc1ccc(O)cc1O

>  <score_type>  (1543) 
oracle

>  <origin>  (1543) 
adg

>  <m_score__min__energy>  (1543) 
-15.4

>  <m_primary>  (1543) 
energy

$$$$
53:0
     RDKit          3D

 36 39  0  0  0  0  0  0  0  0999 V2000
   56.7350   30.1160   53.8200 C   0  0  0  0  0  0  0  0  0  0  0  0
   56.6860   30.5850   52.1060 S   0  0  0  0  0  0  0  0  0  0  0  0
   57.5860   29.6780   51.3170 O   0  0  0  0  0  0  0  0  0  0  0  0
   55.2720   30.4630   51.6140 O   0  0  0  0  0  0  0  0  0  0  0  0
   57.2240   32.2270   51.9540 N   0  0  0  0  0  0  0  0  0  0  0  0
   58.5560   32.6390   51.6190 C   0  0  0  0  0  0  0  0  0  0  0  0
   58.8940   33.0910   50.3290 C   0  0  0  0  0  0  0  0  0  0  0  0
   60.1940   33.5500   50.0440 C   0  0  0  0  0  0  0  0  0  0  0  0
   60.5170   34.0640   48.6900 C   0  0  0  0  0  0  0  0  0  0  0  0
   61.7210   34.3060   48.3900 O   0  0  0  0  0  0  0  0  0  0  0  0
   59.4480   34.2870   47.6520 C   0  0  0  0  0  0  0  0  0  0  0  0
   59.4780   33.2200   46.6280 N   0  0  0  0  0  0  0  0  0  0  0  0
   58.2350   32.4120   46.6870 C   0  0  0  0  0  0  0  0  0  0  0  0
   58.4360   31.0140   46.0810 C   0  0  0  0  0  0  0  0  0  0  0  0
   59.4770   30.2340   46.8000 N   0  0  0  0  0  0  0  0  0  0  0  0
   58.8890   29.2810   47.7630 C   0  0  0  0  0  0  0  0  0  0  0  0
   58.5280   27.9840   47.0850 C   0  0  0  0  0  0  0  0  0  0  0  0
   59.2920   26.8310   47.3220 C   0  0  0  0  0  0  0  0  0  0  0  0
   58.9280   25.6110   46.7420 C   0  0  0  0  0  0  0  0  0  0  0  0
   57.7880   25.5240   45.9170 C   0  0  0  0  0  0  0  0  0  0  0  0
   57.3520   24.2310   45.3270 C   0  0  0  0  0  0  0  0  0  0  0  0
   56.5350   24.1820   44.1820 C   0  0  0  0  0  0  0  0  0  0  0  0
   56.1820   22.9440   43.6380 C   0  0  0  0  0  0  0  0  0  0  0  0
   55.4540   22.8950   42.6100 O   0  0  0  0  0  0  0  0  0  0  0  0
   56.6460   21.7630   44.2300 C   0  0  0  0  0  0  0  0  0  0  0  0
   56.3030   20.5230   43.6910 O   0  0  0  0  0  0  0  0  0  0  0  0
   57.4630   21.8480   45.3620 C   0  0  0  0  0  0  0  0  0  0  0  0
   57.7950   23.0630   45.8750 N   0  0  0  0  0  0  0  0  0  0  0  0
   57.0490   26.6920   45.6550 C   0  0  0  0  0  0  0  0  0  0  0  0
   57.4110   27.9080   46.2390 C   0  0  0  0  0  0  0  0  0  0  0  0
   60.4800   31.0910   47.4790 C   0  0  0  0  0  0  0  0  0  0  0  0
   60.7110   32.4000   46.7130 C   0  0  0  0  0  0  0  0  0  0  0  0
   61.1630   33.5250   51.0620 C   0  0  0  0  0  0  0  0  0  0  0  0
   60.8400   33.0490   52.3340 C   0  0  0  0  0  0  0  0  0  0  0  0
   59.5440   32.6080   52.6140 C   0  0  0  0  0  0  0  0  0  0  0  0
   59.2390   32.1470   53.8890 O   0  0  0  0  0  0  0  0  0  0  0  0
  1  2  1  0
  2  3  2  0
  2  4  2  0
  2  5  1  0
  5  6  1  0
  6  7  2  0
  7  8  1  0
  8  9  1  0
  9 10  2  0
  9 11  1  0
 11 12  1  0
 12 13  1  0
 13 14  1  0
 14 15  1  0
 15 16  1  0
 16 17  1  0
 17 18  2  0
 18 19  1  0
 19 20  2  0
 20 21  1  0
 21 22  2  0
 22 23  1  0
 23 24  2  0
 23 25  1  0
 25 26  1  0
 25 27  2  0
 27 28  1  0
 20 29  1  0
 29 30  2  0
 15 31  1  0
 31 32  1  0
  8 33  2  0
 33 34  1  0
 34 35  2  0
 35 36  1  0
 35  6  1  0
 32 12  1  0
 30 17  1  0
 28 21  1  0
M  CHG  3   5  -1  28  -1  36  -1
M  END
>  <UniqueID>  (1544) 
48

>  <SMILES>  (1544) 
CS(=O)(=O)[N-]c1cc(C(=O)CN2CCN(Cc3ccc(-c4cc(=O)c(O)c[n-]4)cc3)CC2)ccc1[O-]

>  <Energy>  (1544) 
83.99622809928593

>  <Genealogy>  (1544) 
CS(=O)(=O)[N-]c1cc(C(=O)CN2CCN(Cc3ccc(-c4cc(=O)c(O)c[n-]4)cc3)CC2)ccc1[O-] (protonated)
CS(=O)(=O)[N-]c1cc(C(=O)CN2CCN(Cc3ccc(-c4cc(=O)c(O)c[n-]4)cc3)CC2)ccc1[O-] (3D coordinates assigned)
CS(=O)(=O)[N-]c1cc(C(=O)CN2CCN(Cc3ccc(-c4cc(=O)c(O)c[n-]4)cc3)CC2)ccc1[O-] (nonaromatic ring conformer: 83.99622809928593 kcal/mol)

>  <smiles>  (1544) 
CS(=O)(=O)Nc1cc(C(=O)CN2CCN(Cc3ccc(-c4cc(=O)c(O)c[nH]4)cc3)CC2)ccc1O

>  <score_type>  (1544) 
oracle

>  <origin>  (1544) 
adg

>  <m_score__min__energy>  (1544) 
-15.380000000000001

>  <m_primary>  (1544) 
energy

$$$$
56:0
     RDKit          3D

 34 38  0  0  0  0  0  0  0  0999 V2000
   57.8100   30.3770   50.1900 O   0  0  0  0  0  0  0  0  0  0  0  0
   59.0130   29.9990   50.2090 C   0  0  0  0  0  0  0  0  0  0  0  0
   59.4370   28.9650   49.2430 C   0  0  0  0  0  0  0  0  0  0  0  0
   60.4650   28.0630   49.5630 C   0  0  0  0  0  0  0  0  0  0  0  0
   60.8370   27.0700   48.6520 C   0  0  0  0  0  0  0  0  0  0  0  0
   60.1890   26.9710   47.4190 C   0  0  0  0  0  0  0  0  0  0  0  0
   59.1650   27.8690   47.0830 C   0  0  0  0  0  0  0  0  0  0  0  0
   58.4470   27.7490   45.7660 C   0  0  0  0  0  0  0  0  0  0  0  0
   57.2130   26.9150   45.9220 C   0  0  0  0  0  0  0  0  0  0  0  0
   57.2060   25.6650   46.4160 N   0  0  0  0  0  0  0  0  0  0  0  0
   55.8940   25.3400   46.4150 C   0  0  0  0  0  0  0  0  0  0  0  0
   55.4730   24.2180   46.8030 O   0  0  0  0  0  0  0  0  0  0  0  0
   55.0680   26.3100   45.9660 N   0  0  0  0  0  0  0  0  0  0  0  0
   55.9210   27.3030   45.6650 C   0  0  0  0  0  0  0  0  0  0  0  0
   55.5230   28.5380   45.1670 O   0  0  0  0  0  0  0  0  0  0  0  0
   58.7810   28.8530   48.0080 C   0  0  0  0  0  0  0  0  0  0  0  0
   59.9360   30.5970   51.1490 N   0  0  0  0  0  0  0  0  0  0  0  0
   61.3800   30.6530   50.8690 C   0  0  0  0  0  0  0  0  0  0  0  0
   61.9870   32.0290   51.2370 C   0  0  0  0  0  0  0  0  0  0  0  0
   60.9740   33.0080   51.6960 N   0  0  0  0  0  0  0  0  0  0  0  0
   60.1180   33.4990   50.6190 C   0  0  0  0  0  0  0  0  0  0  0  0
   58.9040   33.5550   50.7610 O   0  0  0  0  0  0  0  0  0  0  0  0
   60.6980   33.9120   49.2880 C   0  0  0  0  0  0  0  0  0  0  0  0
   60.4040   32.8810   48.2380 C   0  0  0  0  0  0  0  0  0  0  0  0
   61.2050   31.7920   47.9030 C   0  0  0  0  0  0  0  0  0  0  0  0
   60.6820   31.1240   46.8520 N   0  0  0  0  0  0  0  0  0  0  0  0
   59.5570   31.7790   46.5160 C   0  0  0  0  0  0  0  0  0  0  0  0
   58.6890   31.4810   45.4660 C   0  0  0  0  0  0  0  0  0  0  0  0
   57.5780   32.3210   45.2730 C   0  0  0  0  0  0  0  0  0  0  0  0
   57.3560   33.4220   46.1300 C   0  0  0  0  0  0  0  0  0  0  0  0
   58.2460   33.6950   47.1840 C   0  0  0  0  0  0  0  0  0  0  0  0
   59.3490   32.8540   47.3420 C   0  0  0  0  0  0  0  0  0  0  0  0
   60.2000   32.4290   52.8150 C   0  0  0  0  0  0  0  0  0  0  0  0
   59.4320   31.1550   52.4100 C   0  0  0  0  0  0  0  0  0  0  0  0
  1  2  2  0
  2  3  1  0
  3  4  2  0
  4  5  1  0
  5  6  2  0
  6  7  1  0
  7  8  1  0
  8  9  1  0
  9 10  1  0
 10 11  1  0
 11 12  2  0
 11 13  1  0
 13 14  1  0
 14 15  1  0
  7 16  2  0
  2 17  1  0
 17 18  1  0
 18 19  1  0
 19 20  1  0
 20 21  1  0
 21 22  2  0
 21 23  1  0
 23 24  1  0
 24 25  2  0
 25 26  1  0
 26 27  1  0
 27 28  2  0
 28 29  1  0
 29 30  2  0
 30 31  1  0
 31 32  2  0
 20 33  1  0
 33 34  1  0
 16  3  1  0
 34 17  1  0
 14  9  2  0
 32 24  1  0
 32 27  1  0
M  CHG  4  10  -1  13  -1  15  -1  20   1
M  END
>  <UniqueID>  (1545) 
51

>  <SMILES>  (1545) 
O=C(c1cccc(Cc2[n-]c(=O)[n-]c2[O-])c1)N1CC[NH+](C(=O)Cc2c[nH]c3ccccc23)CC1

>  <Energy>  (1545) 
135.18562939280295

>  <Genealogy>  (1545) 
O=C(c1cccc(Cc2[n-]c(=O)[n-]c2[O-])c1)N1CC[NH+](C(=O)Cc2c[nH]c3ccccc23)CC1 (protonated)
O=C(c1cccc(Cc2[n-]c(=O)[n-]c2[O-])c1)N1CC[NH+](C(=O)Cc2c[nH]c3ccccc23)CC1 (3D coordinates assigned)
O=C(c1cccc(Cc2[n-]c(=O)[n-]c2[O-])c1)N1CC[NH+](C(=O)Cc2c[nH]c3ccccc23)CC1 (nonaromatic ring conformer: 135.18562939280295 kcal/mol)

>  <smiles>  (1545) 
O=C(Cc1c[nH]c2ccccc12)N1CCN(C(=O)c2cccc(Cc3[nH]c(=O)[nH]c3O)c2)CC1

>  <score_type>  (1545) 
oracle

>  <origin>  (1545) 
adg

>  <m_score__min__energy>  (1545) 
-17.82

>  <m_primary>  (1545) 
energy

$$$$
61:0
     RDKit          3D

 30 32  0  0  0  0  0  0  0  0999 V2000
   54.0120   28.1550   53.5900 C   0  0  0  0  0  0  0  0  0  0  0  0
   54.3930   29.3720   53.1730 C   0  0  0  0  0  0  0  0  0  0  0  0
   53.6470   30.2760   52.4010 C   0  0  0  0  0  0  0  0  0  0  0  0
   52.3400   30.2910   52.0760 C   0  0  0  0  0  0  0  0  0  0  0  0
   51.7760   30.8120   50.8200 C   0  0  0  0  0  0  0  0  0  0  0  0
   51.6420   30.1010   49.6850 N   0  0  0  0  0  0  0  0  0  0  0  0
   50.9630   30.9360   48.8710 C   0  0  0  0  0  0  0  0  0  0  0  0
   50.6550   30.6300   47.6900 O   0  0  0  0  0  0  0  0  0  0  0  0
   50.6310   32.1230   49.4250 N   0  0  0  0  0  0  0  0  0  0  0  0
   51.1410   32.0200   50.6640 C   0  0  0  0  0  0  0  0  0  0  0  0
   51.0250   33.0090   51.6320 O   0  0  0  0  0  0  0  0  0  0  0  0
   54.5300   31.2650   52.0000 C   0  0  0  0  0  0  0  0  0  0  0  0
   55.7430   30.9840   52.5950 C   0  0  0  0  0  0  0  0  0  0  0  0
   56.9760   31.8230   52.4460 C   0  0  0  0  0  0  0  0  0  0  0  0
   55.6630   29.8350   53.3030 N   0  0  0  0  0  0  0  0  0  0  0  0
   56.7400   29.2160   54.0300 C   0  0  0  0  0  0  0  0  0  0  0  0
   56.6280   29.0170   55.4110 C   0  0  0  0  0  0  0  0  0  0  0  0
   57.6780   28.4330   56.1200 C   0  0  0  0  0  0  0  0  0  0  0  0
   58.8320   28.0490   55.4350 C   0  0  0  0  0  0  0  0  0  0  0  0
   58.9230   28.2410   54.0930 N   0  0  0  0  0  0  0  0  0  0  0  0
   57.9140   28.8090   53.3730 C   0  0  0  0  0  0  0  0  0  0  0  0
   58.0190   28.9800   51.9850 O   0  0  0  0  0  0  0  0  0  0  0  0
   59.1770   29.3570   51.2940 C   0  0  0  0  0  0  0  0  0  0  0  0
   59.1080   29.8440   50.1320 O   0  0  0  0  0  0  0  0  0  0  0  0
   60.4480   29.1690   51.9290 N   0  0  0  0  0  0  0  0  0  0  0  0
   61.7130   29.4530   51.3110 C   0  0  0  0  0  0  0  0  0  0  0  0
   61.7680   29.9050   50.1350 O   0  0  0  0  0  0  0  0  0  0  0  0
   62.8880   29.2080   52.0290 O   0  0  0  0  0  0  0  0  0  0  0  0
   63.1420   27.9920   52.7310 C   0  0  0  0  0  0  0  0  0  0  0  0
   62.4780   26.8150   52.0250 C   0  0  0  0  0  0  0  0  0  0  0  0
  1  2  2  0
  2  3  1  0
  3  4  2  3
  4  5  1  0
  5  6  1  0
  6  7  1  0
  7  8  2  0
  7  9  1  0
  9 10  1  0
 10 11  1  0
  3 12  1  0
 12 13  2  0
 13 14  1  0
 13 15  1  0
 15 16  1  0
 16 17  2  0
 17 18  1  0
 18 19  2  0
 19 20  1  0
 20 21  2  0
 21 22  1  0
 22 23  1  0
 23 24  2  0
 23 25  1  0
 25 26  1  0
 26 27  2  0
 26 28  1  0
 28 29  1  0
 29 30  1  0
 15  2  1  0
 21 16  1  0
 10  5  2  0
M  CHG  3   6  -1   9  -1  11  -1
M  END
>  <UniqueID>  (1546) 
55

>  <SMILES>  (1546) 
C=c1c(=Cc2[n-]c(=O)[n-]c2[O-])cc(C)n1-c1cccnc1OC(=O)NC(=O)OCC

>  <Energy>  (1546) 
120.17259887582726

>  <Genealogy>  (1546) 
C=c1c(=Cc2[n-]c(=O)[n-]c2[O-])cc(C)n1-c1cccnc1OC(=O)NC(=O)OCC (protonated)
C=c1c(=Cc2[n-]c(=O)[n-]c2[O-])cc(C)n1-c1cccnc1OC(=O)NC(=O)OCC (3D coordinates assigned)
C=c1c(=Cc2[n-]c(=O)[n-]c2[O-])cc(C)n1-c1cccnc1OC(=O)NC(=O)OCC (optimized conformer: 120.17259887582726 kcal/mol)

>  <smiles>  (1546) 
C=c1c(=Cc2[nH]c(=O)[nH]c2O)cc(C)n1-c1cccnc1OC(=O)NC(=O)OCC

>  <score_type>  (1546) 
oracle

>  <origin>  (1546) 
adg

>  <m_score__min__energy>  (1546) 
-15.9

>  <m_primary>  (1546) 
energy

$$$$
85:0
     RDKit          3D

 27 30  0  0  0  0  0  0  0  0999 V2000
   54.6170   31.5910   51.9880 C   0  0  0  0  0  0  0  0  0  0  0  0
   54.3440   30.4030   52.5490 C   0  0  0  0  0  0  0  0  0  0  0  0
   53.0740   29.8620   52.8040 C   0  0  0  0  0  0  0  0  0  0  0  0
   51.8520   30.2340   52.3750 C   0  0  0  0  0  0  0  0  0  0  0  0
   51.5390   30.7630   51.0380 C   0  0  0  0  0  0  0  0  0  0  0  0
   51.4580   30.0200   49.9180 N   0  0  0  0  0  0  0  0  0  0  0  0
   51.0180   30.8990   48.9930 C   0  0  0  0  0  0  0  0  0  0  0  0
   50.8270   30.5800   47.7900 O   0  0  0  0  0  0  0  0  0  0  0  0
   50.7850   32.1450   49.4590 N   0  0  0  0  0  0  0  0  0  0  0  0
   51.1070   32.0360   50.7580 C   0  0  0  0  0  0  0  0  0  0  0  0
   51.0030   33.0790   51.6710 O   0  0  0  0  0  0  0  0  0  0  0  0
   53.2780   28.7680   53.6310 C   0  0  0  0  0  0  0  0  0  0  0  0
   54.6400   28.6310   53.7840 C   0  0  0  0  0  0  0  0  0  0  0  0
   55.3010   27.5520   54.5890 C   0  0  0  0  0  0  0  0  0  0  0  0
   55.2910   29.6210   53.1300 N   0  0  0  0  0  0  0  0  0  0  0  0
   56.7170   29.8130   53.0980 C   0  0  0  0  0  0  0  0  0  0  0  0
   57.4620   29.7860   54.2800 C   0  0  0  0  0  0  0  0  0  0  0  0
   58.8440   29.9740   54.2240 C   0  0  0  0  0  0  0  0  0  0  0  0
   59.4600   30.1860   53.0300 N   0  0  0  0  0  0  0  0  0  0  0  0
   58.7630   30.2190   51.8550 C   0  0  0  0  0  0  0  0  0  0  0  0
   59.4480   30.4530   50.6050 N   0  0  0  0  0  0  0  0  0  0  0  0
   60.1320   31.7350   50.3710 C   0  0  0  0  0  0  0  0  0  0  0  0
   60.1510   32.0690   48.8770 C   0  0  0  0  0  0  0  0  0  0  0  0
   60.8040   30.9560   48.0350 C   0  0  0  0  0  0  0  0  0  0  0  0
   60.7130   29.5590   48.6780 C   0  0  0  0  0  0  0  0  0  0  0  0
   59.4740   29.4100   49.5670 C   0  0  0  0  0  0  0  0  0  0  0  0
   57.3700   30.0310   51.8790 C   0  0  0  0  0  0  0  0  0  0  0  0
  1  2  2  0
  2  3  1  0
  3  4  2  3
  4  5  1  0
  5  6  1  0
  6  7  1  0
  7  8  2  0
  7  9  1  0
  9 10  1  0
 10 11  1  0
  3 12  1  0
 12 13  2  0
 13 14  1  0
 13 15  1  0
 15 16  1  0
 16 17  2  0
 17 18  1  0
 18 19  2  0
 19 20  1  0
 20 21  1  0
 21 22  1  0
 22 23  1  0
 23 24  1  0
 24 25  1  0
 25 26  1  0
 20 27  2  0
 15  2  1  0
 27 16  1  0
 10  5  2  0
 26 21  1  0
M  CHG  4   6  -1   9  -1  11  -1  19   1
M  END
>  <UniqueID>  (1547) 
77

>  <SMILES>  (1547) 
C=c1c(=Cc2[n-]c(=O)[n-]c2[O-])cc(C)n1-c1cc[nH+]c(N2CCCCC2)c1

>  <Energy>  (1547) 
128.993076054824

>  <Genealogy>  (1547) 
C=c1c(=Cc2[n-]c(=O)[n-]c2[O-])cc(C)n1-c1cc[nH+]c(N2CCCCC2)c1 (protonated)
C=c1c(=Cc2[n-]c(=O)[n-]c2[O-])cc(C)n1-c1cc[nH+]c(N2CCCCC2)c1 (3D coordinates assigned)
C=c1c(=Cc2[n-]c(=O)[n-]c2[O-])cc(C)n1-c1cc[nH+]c(N2CCCCC2)c1 (nonaromatic ring conformer: 128.993076054824 kcal/mol)

>  <smiles>  (1547) 
C=c1c(=Cc2[nH]c(=O)[nH]c2O)cc(C)n1-c1ccnc(N2CCCCC2)c1

>  <score_type>  (1547) 
oracle

>  <origin>  (1547) 
adg

>  <m_score__min__energy>  (1547) 
-15.08

>  <m_primary>  (1547) 
energy

$$$$
20:0
     RDKit          3D

 31 34  0  0  0  0  0  0  0  0999 V2000
   58.5760   32.5520   49.9930 O   0  0  0  0  0  0  0  0  0  0  0  0
   58.9540   31.4800   49.4450 C   0  0  0  0  0  0  0  0  0  0  0  0
   59.1560   30.2370   50.2590 C   0  0  0  0  0  0  0  0  0  0  0  0
   59.0540   29.0370   49.4300 N   0  0  0  0  0  0  0  0  0  0  0  0
   60.1860   28.2030   49.1500 C   0  0  0  0  0  0  0  0  0  0  0  0
   61.2520   28.3300   49.8140 O   0  0  0  0  0  0  0  0  0  0  0  0
   60.1370   27.2370   48.0080 C   0  0  0  0  0  0  0  0  0  0  0  0
   59.6390   27.9420   46.7760 C   0  0  0  0  0  0  0  0  0  0  0  0
   60.5080   28.7450   46.0040 C   0  0  0  0  0  0  0  0  0  0  0  0
   60.0550   29.3650   44.8210 C   0  0  0  0  0  0  0  0  0  0  0  0
   58.7360   29.1820   44.3820 C   0  0  0  0  0  0  0  0  0  0  0  0
   57.8980   28.3720   45.1440 C   0  0  0  0  0  0  0  0  0  0  0  0
   56.6170   28.0650   44.8690 N   0  0  0  0  0  0  0  0  0  0  0  0
   56.2520   27.2460   45.8840 C   0  0  0  0  0  0  0  0  0  0  0  0
   54.9870   26.6920   45.9940 O   0  0  0  0  0  0  0  0  0  0  0  0
   57.2780   27.0340   46.7920 C   0  0  0  0  0  0  0  0  0  0  0  0
   58.3330   27.7680   46.2990 C   0  0  0  0  0  0  0  0  0  0  0  0
   59.2670   31.4490   48.0490 N   0  0  0  0  0  0  0  0  0  0  0  0
   58.8170   32.3910   47.0610 C   0  0  0  0  0  0  0  0  0  0  0  0
   57.8540   32.0300   46.1010 C   0  0  0  0  0  0  0  0  0  0  0  0
   57.4480   32.9480   45.1280 C   0  0  0  0  0  0  0  0  0  0  0  0
   58.0020   34.2280   45.0970 C   0  0  0  0  0  0  0  0  0  0  0  0
   58.9760   34.5900   46.0280 C   0  0  0  0  0  0  0  0  0  0  0  0
   59.4040   33.6740   47.0030 C   0  0  0  0  0  0  0  0  0  0  0  0
   60.4180   34.0890   47.9980 C   0  0  0  0  0  0  0  0  0  0  0  0
   60.0860   34.8960   48.9080 O   0  0  0  0  0  0  0  0  0  0  0  0
   61.7670   33.5910   47.9460 N   0  0  0  0  0  0  0  0  0  0  0  0
   62.8280   34.1190   48.7860 C   0  0  0  0  0  0  0  0  0  0  0  0
   64.0670   33.3100   48.4300 C   0  0  0  0  0  0  0  0  0  0  0  0
   63.5540   32.0460   47.7470 C   0  0  0  0  0  0  0  0  0  0  0  0
   62.1700   32.3970   47.2200 C   0  0  0  0  0  0  0  0  0  0  0  0
  1  2  2  0
  2  3  1  0
  3  4  1  0
  4  5  1  0
  5  6  2  0
  5  7  1  0
  7  8  1  0
  8  9  2  0
  9 10  1  0
 10 11  2  0
 11 12  1  0
 12 13  1  0
 13 14  1  0
 14 15  1  0
 14 16  2  0
 16 17  1  0
  2 18  1  0
 18 19  1  0
 19 20  2  0
 20 21  1  0
 21 22  2  0
 22 23  1  0
 23 24  2  0
 24 25  1  0
 25 26  2  0
 25 27  1  0
 27 28  1  0
 28 29  1  0
 29 30  1  0
 30 31  1  0
 17  8  1  0
 24 19  1  0
 31 27  1  0
 17 12  2  0
M  CHG  3  13  -1  15  -1  18  -1
M  END
>  <UniqueID>  (1548) 
20

>  <SMILES>  (1548) 
O=C(CNC(=O)Cc1cccc2[n-]c([O-])cc12)[N-]c1ccccc1C(=O)N1CCCC1

>  <Energy>  (1548) 
90.90885231020371

>  <Genealogy>  (1548) 
O=C(CNC(=O)Cc1cccc2[n-]c([O-])cc12)[N-]c1ccccc1C(=O)N1CCCC1 (protonated)
O=C(CNC(=O)Cc1cccc2[n-]c([O-])cc12)[N-]c1ccccc1C(=O)N1CCCC1 (3D coordinates assigned)
O=C(CNC(=O)Cc1cccc2[n-]c([O-])cc12)[N-]c1ccccc1C(=O)N1CCCC1 (nonaromatic ring conformer: 90.90885231020371 kcal/mol)

>  <smiles>  (1548) 
O=C(Cc1cccc2[nH]c(O)cc12)NCC(=O)Nc1ccccc1C(=O)N1CCCC1

>  <score_type>  (1548) 
oracle

>  <origin>  (1548) 
adg

>  <m_score__min__energy>  (1548) 
-17.48

>  <m_primary>  (1548) 
energy

$$$$
31:0
     RDKit          3D

 31 34  0  0  0  0  0  0  0  0999 V2000
   57.6670   26.9040   44.7650 C   0  0  0  0  0  0  0  0  0  0  0  0
   57.1500   25.8270   45.6320 C   0  0  0  0  0  0  0  0  0  0  0  0
   55.8960   25.7790   46.2000 C   0  0  0  0  0  0  0  0  0  0  0  0
   54.8720   26.6920   45.9820 O   0  0  0  0  0  0  0  0  0  0  0  0
   55.7870   24.7150   47.0180 N   0  0  0  0  0  0  0  0  0  0  0  0
   57.0090   24.1470   46.9340 C   0  0  0  0  0  0  0  0  0  0  0  0
   57.3280   23.1130   47.5780 O   0  0  0  0  0  0  0  0  0  0  0  0
   57.8630   24.7940   46.1150 N   0  0  0  0  0  0  0  0  0  0  0  0
   58.0520   28.1160   45.2100 C   0  0  0  0  0  0  0  0  0  0  0  0
   57.4270   29.3290   44.9510 C   0  0  0  0  0  0  0  0  0  0  0  0
   58.1330   30.2950   45.6390 C   0  0  0  0  0  0  0  0  0  0  0  0
   57.7810   31.7510   45.6600 C   0  0  0  0  0  0  0  0  0  0  0  0
   59.1530   29.7350   46.3240 N   0  0  0  0  0  0  0  0  0  0  0  0
   60.0960   30.4380   47.1530 C   0  0  0  0  0  0  0  0  0  0  0  0
   61.4200   30.6080   46.7300 C   0  0  0  0  0  0  0  0  0  0  0  0
   62.3410   31.2790   47.5390 C   0  0  0  0  0  0  0  0  0  0  0  0
   61.9520   31.7930   48.7920 C   0  0  0  0  0  0  0  0  0  0  0  0
   62.9110   32.5140   49.6690 C   0  0  0  0  0  0  0  0  0  0  0  0
   64.0990   31.9530   50.0270 N   0  0  0  0  0  0  0  0  0  0  0  0
   64.8270   32.7750   50.8140 C   0  0  0  0  0  0  0  0  0  0  0  0
   66.0000   32.4770   51.2870 N   0  0  0  0  0  0  0  0  0  0  0  0
   67.2270   32.4830   50.4920 C   0  0  0  0  0  0  0  0  0  0  0  0
   67.9110   33.8190   50.5890 C   0  0  0  0  0  0  0  0  0  0  0  0
   68.7690   34.1150   49.7710 O   0  0  0  0  0  0  0  0  0  0  0  0
   67.5650   34.7990   51.6720 C   0  0  0  0  0  0  0  0  0  0  0  0
   64.0470   34.2280   51.1040 S   0  0  0  0  0  0  0  0  0  0  0  0
   62.7040   33.8000   50.1820 C   0  0  0  0  0  0  0  0  0  0  0  0
   60.6180   31.6220   49.2070 C   0  0  0  0  0  0  0  0  0  0  0  0
   59.7000   30.9480   48.3960 C   0  0  0  0  0  0  0  0  0  0  0  0
   59.1150   28.4000   46.0740 C   0  0  0  0  0  0  0  0  0  0  0  0
   59.9670   27.5130   46.6110 C   0  0  0  0  0  0  0  0  0  0  0  0
  1  2  1  0
  2  3  2  0
  3  4  1  0
  3  5  1  0
  5  6  1  0
  6  7  2  0
  6  8  1  0
  1  9  2  3
  9 10  1  0
 10 11  2  0
 11 12  1  0
 11 13  1  0
 13 14  1  0
 14 15  2  0
 15 16  1  0
 16 17  2  0
 17 18  1  0
 18 19  1  0
 19 20  1  0
 20 21  2  0
 21 22  1  0
 22 23  1  0
 23 24  2  0
 23 25  1  0
 20 26  1  0
 26 27  1  0
 17 28  1  0
 28 29  2  0
 13 30  1  0
 30 31  2  0
  8  2  1  0
 30  9  1  0
 29 14  1  0
 27 18  2  0
M  CHG  3   4  -1   5  -1  19  -1
M  END
>  <UniqueID>  (1549) 
30

>  <SMILES>  (1549) 
C=c1c(=Cc2[nH]c(=O)[n-]c2[O-])cc(C)n1-c1ccc(-c2cs/c(=N/CC(C)=O)[n-]2)cc1

>  <Energy>  (1549) 
151.37392918770118

>  <Genealogy>  (1549) 
C=c1c(=Cc2[nH]c(=O)[n-]c2[O-])cc(C)n1-c1ccc(-c2csc(=NCC(C)=O)[n-]2)cc1 (protonated)
C=c1c(=Cc2[nH]c(=O)[n-]c2[O-])cc(C)n1-c1ccc(-c2cs/c(=N/CC(C)=O)[n-]2)cc1 (cis-trans isomerization)
C=c1c(=Cc2[nH]c(=O)[n-]c2[O-])cc(C)n1-c1ccc(-c2cs/c(=N/CC(C)=O)[n-]2)cc1 (3D coordinates assigned)
C=c1c(=Cc2[nH]c(=O)[n-]c2[O-])cc(C)n1-c1ccc(-c2cs/c(=N/CC(C)=O)[n-]2)cc1 (optimized conformer: 151.37392918770118 kcal/mol)

>  <smiles>  (1549) 
C=c1c(=Cc2[nH]c(=O)[nH]c2O)cc(C)n1-c1ccc(-c2csc(=NCC(C)=O)[nH]2)cc1

>  <score_type>  (1549) 
oracle

>  <origin>  (1549) 
adg

>  <m_score__min__energy>  (1549) 
-14.59

>  <m_primary>  (1549) 
energy

$$$$
39:0
     RDKit          3D

 27 29  0  0  0  0  0  0  0  0999 V2000
   55.5410   20.4090   45.4750 C   0  0  0  0  0  0  0  0  0  0  0  0
   55.3300   21.7070   45.7220 C   0  0  0  0  0  0  0  0  0  0  0  0
   54.1570   22.2620   45.3210 N   0  0  0  0  0  0  0  0  0  0  0  0
   53.8880   23.5730   45.5340 C   0  0  0  0  0  0  0  0  0  0  0  0
   52.7960   24.0610   45.1440 O   0  0  0  0  0  0  0  0  0  0  0  0
   54.7910   24.3580   46.1700 N   0  0  0  0  0  0  0  0  0  0  0  0
   55.9830   23.8740   46.6150 C   0  0  0  0  0  0  0  0  0  0  0  0
   56.8060   24.7420   47.2410 C   0  0  0  0  0  0  0  0  0  0  0  0
   57.3810   25.9670   46.6500 C   0  0  0  0  0  0  0  0  0  0  0  0
   58.7670   26.1810   46.7230 C   0  0  0  0  0  0  0  0  0  0  0  0
   59.3290   27.3500   46.2120 C   0  0  0  0  0  0  0  0  0  0  0  0
   58.5120   28.3320   45.6520 C   0  0  0  0  0  0  0  0  0  0  0  0
   57.1220   28.1560   45.6090 C   0  0  0  0  0  0  0  0  0  0  0  0
   56.2790   29.2380   45.0700 C   0  0  0  0  0  0  0  0  0  0  0  0
   55.1970   28.9440   44.4980 O   0  0  0  0  0  0  0  0  0  0  0  0
   56.6820   30.6130   45.1360 N   0  0  0  0  0  0  0  0  0  0  0  0
   57.8170   31.2000   44.4270 C   0  0  0  0  0  0  0  0  0  0  0  0
   58.3410   32.4110   45.1550 C   0  0  0  0  0  0  0  0  0  0  0  0
   58.5890   32.3520   46.5360 C   0  0  0  0  0  0  0  0  0  0  0  0
   59.0440   33.4830   47.2200 C   0  0  0  0  0  0  0  0  0  0  0  0
   59.2580   34.6790   46.5290 C   0  0  0  0  0  0  0  0  0  0  0  0
   59.0220   34.7440   45.1540 C   0  0  0  0  0  0  0  0  0  0  0  0
   58.5700   33.6140   44.4660 C   0  0  0  0  0  0  0  0  0  0  0  0
   56.5500   26.9640   46.0940 C   0  0  0  0  0  0  0  0  0  0  0  0
   55.1670   26.7840   45.9970 O   0  0  0  0  0  0  0  0  0  0  0  0
   56.2910   22.5090   46.3770 C   0  0  0  0  0  0  0  0  0  0  0  0
   57.4040   22.0150   46.7120 O   0  0  0  0  0  0  0  0  0  0  0  0
  1  2  2  0
  2  3  1  0
  3  4  1  0
  4  5  2  0
  4  6  1  0
  6  7  1  0
  7  8  2  3
  8  9  1  0
  9 10  2  0
 10 11  1  0
 11 12  2  0
 12 13  1  0
 13 14  1  0
 14 15  2  0
 14 16  1  0
 16 17  1  0
 17 18  1  0
 18 19  2  0
 19 20  1  0
 20 21  2  0
 21 22  1  0
 22 23  2  0
 13 24  2  0
 24 25  1  0
  7 26  1  0
 26 27  2  0
 26  2  1  0
 24  9  1  0
 23 18  1  0
M  CHG  3   3  -1   6  -1  16  -1
M  END
>  <UniqueID>  (1550) 
38

>  <SMILES>  (1550) 
C=c1[n-]c(=O)[n-]c(=Cc2cccc(C(=O)[N-]Cc3ccccc3)c2O)c1=O

>  <Energy>  (1550) 
62.18976254754767

>  <Genealogy>  (1550) 
C=c1[n-]c(=O)[n-]c(=Cc2cccc(C(=O)[N-]Cc3ccccc3)c2O)c1=O (protonated)
C=c1[n-]c(=O)[n-]c(=Cc2cccc(C(=O)[N-]Cc3ccccc3)c2O)c1=O (3D coordinates assigned)
C=c1[n-]c(=O)[n-]c(=Cc2cccc(C(=O)[N-]Cc3ccccc3)c2O)c1=O (optimized conformer: 62.18976254754767 kcal/mol)

>  <smiles>  (1550) 
C=c1[nH]c(=O)[nH]c(=Cc2cccc(C(=O)NCc3ccccc3)c2O)c1=O

>  <score_type>  (1550) 
oracle

>  <origin>  (1550) 
adg

>  <m_score__min__energy>  (1550) 
-15.1

>  <m_primary>  (1550) 
energy

$$$$
42:0
     RDKit          3D

 32 35  0  0  0  0  0  0  0  0999 V2000
   60.3510   29.3770   47.3000 C   0  0  0  0  0  0  0  0  0  0  0  0
   59.3490   30.0500   46.7120 C   0  0  0  0  0  0  0  0  0  0  0  0
   58.5240   29.6060   45.6630 C   0  0  0  0  0  0  0  0  0  0  0  0
   58.3890   28.3910   45.0970 C   0  0  0  0  0  0  0  0  0  0  0  0
   57.5140   27.3070   45.5850 C   0  0  0  0  0  0  0  0  0  0  0  0
   56.1180   27.4600   45.6270 C   0  0  0  0  0  0  0  0  0  0  0  0
   55.5210   28.6560   45.2400 O   0  0  0  0  0  0  0  0  0  0  0  0
   55.3360   26.4310   46.0420 N   0  0  0  0  0  0  0  0  0  0  0  0
   55.8790   25.2400   46.4040 C   0  0  0  0  0  0  0  0  0  0  0  0
   55.1350   24.3010   46.7880 O   0  0  0  0  0  0  0  0  0  0  0  0
   57.2230   25.0590   46.3450 N   0  0  0  0  0  0  0  0  0  0  0  0
   58.0490   26.0580   45.9370 C   0  0  0  0  0  0  0  0  0  0  0  0
   59.2910   25.8540   45.8880 O   0  0  0  0  0  0  0  0  0  0  0  0
   57.7800   30.7050   45.2630 C   0  0  0  0  0  0  0  0  0  0  0  0
   58.1220   31.7460   46.1000 C   0  0  0  0  0  0  0  0  0  0  0  0
   57.5340   33.1230   46.0290 C   0  0  0  0  0  0  0  0  0  0  0  0
   59.0730   31.3530   46.9770 N   0  0  0  0  0  0  0  0  0  0  0  0
   59.6710   32.1810   47.9910 C   0  0  0  0  0  0  0  0  0  0  0  0
   60.9020   32.8070   47.7590 C   0  0  0  0  0  0  0  0  0  0  0  0
   61.4800   33.6070   48.7470 C   0  0  0  0  0  0  0  0  0  0  0  0
   60.8290   33.7930   49.9700 C   0  0  0  0  0  0  0  0  0  0  0  0
   59.5840   33.1870   50.2110 C   0  0  0  0  0  0  0  0  0  0  0  0
   58.9000   33.3830   51.5100 C   0  0  0  0  0  0  0  0  0  0  0  0
   58.8040   34.5480   51.9840 O   0  0  0  0  0  0  0  0  0  0  0  0
   58.3360   32.2750   52.2400 N   0  0  0  0  0  0  0  0  0  0  0  0
   56.9010   32.2400   52.5420 C   0  0  0  0  0  0  0  0  0  0  0  0
   56.2590   31.1060   51.7510 C   0  0  0  0  0  0  0  0  0  0  0  0
   56.9770   29.8580   51.9850 N   0  0  0  0  0  0  0  0  0  0  0  0
   58.3860   29.8240   52.2350 C   0  0  0  0  0  0  0  0  0  0  0  0
   58.9840   28.7160   52.2610 O   0  0  0  0  0  0  0  0  0  0  0  0
   59.1440   31.0850   52.5480 C   0  0  0  0  0  0  0  0  0  0  0  0
   59.0180   32.3690   49.2180 C   0  0  0  0  0  0  0  0  0  0  0  0
  1  2  2  0
  2  3  1  0
  3  4  2  3
  4  5  1  0
  5  6  2  0
  6  7  1  0
  6  8  1  0
  8  9  1  0
  9 10  2  0
  9 11  1  0
 11 12  1  0
 12 13  2  0
  3 14  1  0
 14 15  2  0
 15 16  1  0
 15 17  1  0
 17 18  1  0
 18 19  2  0
 19 20  1  0
 20 21  2  0
 21 22  1  0
 22 23  1  0
 23 24  2  0
 23 25  1  0
 25 26  1  0
 26 27  1  0
 27 28  1  0
 28 29  1  0
 29 30  2  0
 29 31  1  0
 22 32  2  0
 17  2  1  0
 32 18  1  0
 12  5  1  0
 31 25  1  0
M  CHG  4   7  -1   8  -1  11  -1  28  -1
M  END
>  <UniqueID>  (1551) 
41

>  <SMILES>  (1551) 
C=c1c(=Cc2c([O-])[n-]c(=O)[n-]c2=O)cc(C)n1-c1cccc(C(=O)N2CC[N-]C(=O)C2)c1

>  <Energy>  (1551) 
106.30655154168818

>  <Genealogy>  (1551) 
C=c1c(=Cc2c([O-])[n-]c(=O)[n-]c2=O)cc(C)n1-c1cccc(C(=O)N2CC[N-]C(=O)C2)c1 (protonated)
C=c1c(=Cc2c([O-])[n-]c(=O)[n-]c2=O)cc(C)n1-c1cccc(C(=O)N2CC[N-]C(=O)C2)c1 (3D coordinates assigned)
C=c1c(=Cc2c([O-])[n-]c(=O)[n-]c2=O)cc(C)n1-c1cccc(C(=O)N2CC[N-]C(=O)C2)c1 (nonaromatic ring conformer: 106.30655154168818 kcal/mol)

>  <smiles>  (1551) 
C=c1c(=Cc2c(O)[nH]c(=O)[nH]c2=O)cc(C)n1-c1cccc(C(=O)N2CCNC(=O)C2)c1

>  <score_type>  (1551) 
oracle

>  <origin>  (1551) 
adg

>  <m_score__min__energy>  (1551) 
-17.530000000000001

>  <m_primary>  (1551) 
energy

$$$$
52:0
     RDKit          3D

 27 29  0  0  0  0  0  0  0  0999 V2000
   55.1790   29.3970   44.8480 O   0  0  0  0  0  0  0  0  0  0  0  0
   56.1220   30.0690   44.3520 C   0  0  0  0  0  0  0  0  0  0  0  0
   57.0280   29.4180   43.3400 C   0  0  0  0  0  0  0  0  0  0  0  0
   58.1230   28.5890   44.0170 C   0  0  0  0  0  0  0  0  0  0  0  0
   58.6660   29.2940   45.1830 N   0  0  0  0  0  0  0  0  0  0  0  0
   58.9720   28.2000   46.5000 S   0  0  0  0  0  0  0  0  0  0  0  0
   60.3790   27.6800   46.3910 O   0  0  0  0  0  0  0  0  0  0  0  0
   58.8260   28.9320   47.8060 O   0  0  0  0  0  0  0  0  0  0  0  0
   57.8610   26.8350   46.4300 C   0  0  0  0  0  0  0  0  0  0  0  0
   58.3000   25.5250   46.7530 C   0  0  0  0  0  0  0  0  0  0  0  0
   57.4080   24.4390   46.6900 C   0  0  0  0  0  0  0  0  0  0  0  0
   56.0960   24.7000   46.3050 C   0  0  0  0  0  0  0  0  0  0  0  0
   55.0900   23.8230   46.1760 N   0  0  0  0  0  0  0  0  0  0  0  0
   54.0690   24.6200   45.7760 C   0  0  0  0  0  0  0  0  0  0  0  0
   52.9190   24.1720   45.5400 O   0  0  0  0  0  0  0  0  0  0  0  0
   54.3780   25.9360   45.6500 N   0  0  0  0  0  0  0  0  0  0  0  0
   55.6730   25.9550   45.9930 C   0  0  0  0  0  0  0  0  0  0  0  0
   56.5240   27.0550   46.0430 C   0  0  0  0  0  0  0  0  0  0  0  0
   56.2930   31.4270   44.7780 N   0  0  0  0  0  0  0  0  0  0  0  0
   57.3980   32.2960   44.3880 C   0  0  0  0  0  0  0  0  0  0  0  0
   57.3260   33.6150   45.1540 C   0  0  0  0  0  0  0  0  0  0  0  0
   58.2720   33.6190   46.3280 C   0  0  0  0  0  0  0  0  0  0  0  0
   59.3030   34.5700   46.4060 C   0  0  0  0  0  0  0  0  0  0  0  0
   60.1540   34.5940   47.5150 C   0  0  0  0  0  0  0  0  0  0  0  0
   59.9780   33.6780   48.5560 C   0  0  0  0  0  0  0  0  0  0  0  0
   58.9510   32.7320   48.4880 C   0  0  0  0  0  0  0  0  0  0  0  0
   58.0980   32.7030   47.3790 C   0  0  0  0  0  0  0  0  0  0  0  0
  1  2  2  0
  2  3  1  0
  3  4  1  0
  4  5  1  0
  5  6  1  0
  6  7  2  0
  6  8  2  0
  6  9  1  0
  9 10  2  0
 10 11  1  0
 11 12  2  0
 12 13  1  0
 13 14  1  0
 14 15  2  0
 14 16  1  0
 16 17  1  0
 17 18  2  0
  2 19  1  0
 19 20  1  0
 20 21  1  0
 21 22  1  0
 22 23  2  0
 23 24  1  0
 24 25  2  0
 25 26  1  0
 26 27  2  0
 18  9  1  0
 27 22  1  0
 17 12  1  0
M  CHG  4   5  -1  13  -1  16  -1  19  -1
M  END
>  <UniqueID>  (1552) 
50

>  <SMILES>  (1552) 
O=C(CC[N-]S(=O)(=O)c1ccc2[n-]c(=O)[n-]c2c1)[N-]CCc1ccccc1

>  <Energy>  (1552) 
73.66096955136048

>  <Genealogy>  (1552) 
O=C(CC[N-]S(=O)(=O)c1ccc2[n-]c(=O)[n-]c2c1)[N-]CCc1ccccc1 (protonated)
O=C(CC[N-]S(=O)(=O)c1ccc2[n-]c(=O)[n-]c2c1)[N-]CCc1ccccc1 (3D coordinates assigned)
O=C(CC[N-]S(=O)(=O)c1ccc2[n-]c(=O)[n-]c2c1)[N-]CCc1ccccc1 (optimized conformer: 73.66096955136048 kcal/mol)

>  <smiles>  (1552) 
O=C(CCNS(=O)(=O)c1ccc2[nH]c(=O)[nH]c2c1)NCCc1ccccc1

>  <score_type>  (1552) 
oracle

>  <origin>  (1552) 
adg

>  <m_score__min__energy>  (1552) 
-15.26

>  <m_primary>  (1552) 
energy

$$$$
61:0
     RDKit          3D

 30 33  0  0  0  0  0  0  0  0999 V2000
   58.9850   29.1280   46.6910 C   0  0  0  0  0  0  0  0  0  0  0  0
   58.3300   29.1420   45.5190 C   0  0  0  0  0  0  0  0  0  0  0  0
   58.0440   28.0330   44.7090 C   0  0  0  0  0  0  0  0  0  0  0  0
   58.3280   26.7400   44.9800 C   0  0  0  0  0  0  0  0  0  0  0  0
   57.5550   25.8560   45.8800 C   0  0  0  0  0  0  0  0  0  0  0  0
   58.0210   24.7590   46.5050 N   0  0  0  0  0  0  0  0  0  0  0  0
   56.9630   24.3310   47.2270 C   0  0  0  0  0  0  0  0  0  0  0  0
   57.0100   23.3060   47.9560 O   0  0  0  0  0  0  0  0  0  0  0  0
   55.8530   25.0900   47.1100 N   0  0  0  0  0  0  0  0  0  0  0  0
   56.2460   26.0510   46.2580 C   0  0  0  0  0  0  0  0  0  0  0  0
   55.4240   27.0870   45.8350 O   0  0  0  0  0  0  0  0  0  0  0  0
   57.3990   28.5370   43.5840 C   0  0  0  0  0  0  0  0  0  0  0  0
   57.3110   29.9030   43.7530 C   0  0  0  0  0  0  0  0  0  0  0  0
   56.6900   30.8440   42.7630 C   0  0  0  0  0  0  0  0  0  0  0  0
   57.8810   30.2730   44.9200 N   0  0  0  0  0  0  0  0  0  0  0  0
   57.9680   31.6200   45.4210 C   0  0  0  0  0  0  0  0  0  0  0  0
   56.9360   32.5340   45.1670 C   0  0  0  0  0  0  0  0  0  0  0  0
   57.0360   33.8470   45.6290 C   0  0  0  0  0  0  0  0  0  0  0  0
   58.1630   34.2570   46.3440 C   0  0  0  0  0  0  0  0  0  0  0  0
   59.2070   33.3530   46.6170 C   0  0  0  0  0  0  0  0  0  0  0  0
   60.4040   33.8180   47.3690 C   0  0  0  0  0  0  0  0  0  0  0  0
   60.3900   34.9770   47.8710 O   0  0  0  0  0  0  0  0  0  0  0  0
   61.5900   32.9950   47.5130 N   0  0  0  0  0  0  0  0  0  0  0  0
   62.7470   33.7060   46.9090 C   0  0  0  0  0  0  0  0  0  0  0  0
   64.0920   33.1000   47.3320 C   0  0  0  0  0  0  0  0  0  0  0  0
   64.1910   33.0890   48.8290 C   0  0  0  0  0  0  0  0  0  0  0  0
   65.2730   32.9380   49.3730 O   0  0  0  0  0  0  0  0  0  0  0  0
   62.9480   33.2770   49.6450 C   0  0  0  0  0  0  0  0  0  0  0  0
   61.7770   32.5760   48.9380 C   0  0  0  0  0  0  0  0  0  0  0  0
   59.1000   32.0320   46.1400 C   0  0  0  0  0  0  0  0  0  0  0  0
  1  2  2  0
  2  3  1  0
  3  4  2  3
  4  5  1  0
  5  6  1  0
  6  7  1  0
  7  8  2  0
  7  9  1  0
  9 10  1  0
 10 11  1  0
  3 12  1  0
 12 13  2  0
 13 14  1  0
 13 15  1  0
 15 16  1  0
 16 17  2  0
 17 18  1  0
 18 19  2  0
 19 20  1  0
 20 21  1  0
 21 22  2  0
 21 23  1  0
 23 24  1  0
 24 25  1  0
 25 26  1  0
 26 27  2  0
 26 28  1  0
 28 29  1  0
 20 30  2  0
 15  2  1  0
 30 16  1  0
 10  5  2  0
 29 23  1  0
M  CHG  4   6  -1   9  -1  11  -1  23   1
M  END
>  <UniqueID>  (1553) 
57

>  <SMILES>  (1553) 
C=c1c(=Cc2[n-]c(=O)[n-]c2[O-])cc(C)n1-c1cccc(C(=O)[NH+]2CCC(=O)CC2)c1

>  <Energy>  (1553) 
132.20024986987713

>  <Genealogy>  (1553) 
C=c1c(=Cc2[n-]c(=O)[n-]c2[O-])cc(C)n1-c1cccc(C(=O)[NH+]2CCC(=O)CC2)c1 (protonated)
C=c1c(=Cc2[n-]c(=O)[n-]c2[O-])cc(C)n1-c1cccc(C(=O)[NH+]2CCC(=O)CC2)c1 (3D coordinates assigned)
C=c1c(=Cc2[n-]c(=O)[n-]c2[O-])cc(C)n1-c1cccc(C(=O)[NH+]2CCC(=O)CC2)c1 (nonaromatic ring conformer: 132.20024986987713 kcal/mol)

>  <smiles>  (1553) 
C=c1c(=Cc2[nH]c(=O)[nH]c2O)cc(C)n1-c1cccc(C(=O)N2CCC(=O)CC2)c1

>  <score_type>  (1553) 
oracle

>  <origin>  (1553) 
adg

>  <m_score__min__energy>  (1553) 
-16.059999999999999

>  <m_primary>  (1553) 
energy

$$$$
76:0
     RDKit          3D

 32 36  0  0  0  0  0  0  0  0999 V2000
   57.0530   25.3180   47.3650 C   0  0  0  0  0  0  0  0  0  0  0  0
   57.5420   25.7900   46.2090 C   0  0  0  0  0  0  0  0  0  0  0  0
   57.1440   25.4390   44.9070 C   0  0  0  0  0  0  0  0  0  0  0  0
   56.3400   24.4530   44.4630 C   0  0  0  0  0  0  0  0  0  0  0  0
   55.0020   24.1370   44.9850 C   0  0  0  0  0  0  0  0  0  0  0  0
   54.3570   22.9720   44.7830 N   0  0  0  0  0  0  0  0  0  0  0  0
   53.1420   23.1920   45.3310 C   0  0  0  0  0  0  0  0  0  0  0  0
   52.2400   22.3150   45.3550 O   0  0  0  0  0  0  0  0  0  0  0  0
   52.9650   24.4300   45.8420 N   0  0  0  0  0  0  0  0  0  0  0  0
   54.1470   25.0190   45.6000 C   0  0  0  0  0  0  0  0  0  0  0  0
   54.4390   26.3350   45.9330 O   0  0  0  0  0  0  0  0  0  0  0  0
   57.7770   26.3280   44.0540 C   0  0  0  0  0  0  0  0  0  0  0  0
   58.5720   27.1380   44.8390 C   0  0  0  0  0  0  0  0  0  0  0  0
   59.4500   28.2380   44.3250 C   0  0  0  0  0  0  0  0  0  0  0  0
   58.4410   26.8040   46.1410 N   0  0  0  0  0  0  0  0  0  0  0  0
   59.0610   27.4950   47.2370 C   0  0  0  0  0  0  0  0  0  0  0  0
   58.5140   28.6940   47.7110 C   0  0  0  0  0  0  0  0  0  0  0  0
   59.0900   29.3480   48.8030 C   0  0  0  0  0  0  0  0  0  0  0  0
   60.2220   28.8090   49.4370 C   0  0  0  0  0  0  0  0  0  0  0  0
   60.8050   29.4700   50.6240 C   0  0  0  0  0  0  0  0  0  0  0  0
   60.5640   29.0110   51.7730 O   0  0  0  0  0  0  0  0  0  0  0  0
   61.6290   30.6410   50.4940 N   0  0  0  0  0  0  0  0  0  0  0  0
   61.2400   31.7170   49.5670 C   0  0  0  0  0  0  0  0  0  0  0  0
   62.4510   32.4770   49.1170 C   0  0  0  0  0  0  0  0  0  0  0  0
   62.4960   33.4650   48.1550 C   0  0  0  0  0  0  0  0  0  0  0  0
   63.8240   33.8560   48.0710 C   0  0  0  0  0  0  0  0  0  0  0  0
   64.5280   33.0940   48.9870 C   0  0  0  0  0  0  0  0  0  0  0  0
   63.6790   32.2680   49.6270 N   0  0  0  0  0  0  0  0  0  0  0  0
   64.0230   31.2230   50.5870 C   0  0  0  0  0  0  0  0  0  0  0  0
   62.7800   30.8210   51.3920 C   0  0  0  0  0  0  0  0  0  0  0  0
   60.7600   27.5990   48.9660 C   0  0  0  0  0  0  0  0  0  0  0  0
   60.1870   26.9500   47.8680 C   0  0  0  0  0  0  0  0  0  0  0  0
  1  2  2  0
  2  3  1  0
  3  4  2  0
  4  5  1  0
  5  6  1  0
  6  7  1  0
  7  8  2  0
  7  9  1  0
  9 10  1  0
 10 11  1  0
  3 12  1  0
 12 13  2  0
 13 14  1  0
 13 15  1  0
 15 16  1  0
 16 17  2  0
 17 18  1  0
 18 19  2  0
 19 20  1  0
 20 21  2  0
 20 22  1  0
 22 23  1  0
 23 24  1  0
 24 25  2  0
 25 26  1  0
 26 27  2  0
 27 28  1  0
 28 29  1  0
 29 30  1  0
 19 31  1  0
 31 32  2  0
 15  2  1  0
 32 16  1  0
 10  5  2  0
 30 22  1  0
 28 24  1  0
M  CHG  3   6  -1   9  -1  11  -1
M  END
>  <UniqueID>  (1554) 
70

>  <SMILES>  (1554) 
C=c1/c(=C\c2[n-]c(=O)[n-]c2[O-])cc(C)n1-c1ccc(C(=O)N2CCn3cccc3C2)cc1

>  <Energy>  (1554) 
165.43772144750244

>  <Genealogy>  (1554) 
C=c1c(=Cc2[n-]c(=O)[n-]c2[O-])cc(C)n1-c1ccc(C(=O)N2CCn3cccc3C2)cc1 (protonated)
C=c1/c(=C\c2[n-]c(=O)[n-]c2[O-])cc(C)n1-c1ccc(C(=O)N2CCn3cccc3C2)cc1 (cis-trans isomerization)
C=c1/c(=C\c2[n-]c(=O)[n-]c2[O-])cc(C)n1-c1ccc(C(=O)N2CCn3cccc3C2)cc1 (3D coordinates assigned)
C=c1/c(=C\c2[n-]c(=O)[n-]c2[O-])cc(C)n1-c1ccc(C(=O)N2CCn3cccc3C2)cc1 (nonaromatic ring conformer: 165.43772144750244 kcal/mol)

>  <smiles>  (1554) 
C=c1c(=Cc2[nH]c(=O)[nH]c2O)cc(C)n1-c1ccc(C(=O)N2CCn3cccc3C2)cc1

>  <score_type>  (1554) 
oracle

>  <origin>  (1554) 
adg

>  <m_score__min__energy>  (1554) 
-16.050000000000001

>  <m_primary>  (1554) 
energy

$$$$
80:0
     RDKit          3D

 26 28  0  0  0  0  0  0  0  0999 V2000
   58.1230   31.4580   44.2900 C   0  0  0  0  0  0  0  0  0  0  0  0
   58.2810   31.0440   45.5590 C   0  0  0  0  0  0  0  0  0  0  0  0
   58.4560   29.7200   46.0010 C   0  0  0  0  0  0  0  0  0  0  0  0
   58.4060   28.5450   45.3400 C   0  0  0  0  0  0  0  0  0  0  0  0
   57.5510   27.3980   45.6930 C   0  0  0  0  0  0  0  0  0  0  0  0
   56.1530   27.4850   45.6050 C   0  0  0  0  0  0  0  0  0  0  0  0
   55.5420   28.6510   45.1600 O   0  0  0  0  0  0  0  0  0  0  0  0
   55.3840   26.4240   45.9630 N   0  0  0  0  0  0  0  0  0  0  0  0
   55.9460   25.2770   46.4250 C   0  0  0  0  0  0  0  0  0  0  0  0
   55.2150   24.3050   46.7480 O   0  0  0  0  0  0  0  0  0  0  0  0
   57.2950   25.1800   46.5450 N   0  0  0  0  0  0  0  0  0  0  0  0
   58.1070   26.2130   46.1990 C   0  0  0  0  0  0  0  0  0  0  0  0
   59.3540   26.0920   46.3270 O   0  0  0  0  0  0  0  0  0  0  0  0
   58.7050   29.7940   47.3590 C   0  0  0  0  0  0  0  0  0  0  0  0
   58.6300   31.1230   47.7110 C   0  0  0  0  0  0  0  0  0  0  0  0
   58.8620   31.6430   49.0980 C   0  0  0  0  0  0  0  0  0  0  0  0
   58.3800   31.8900   46.6230 N   0  0  0  0  0  0  0  0  0  0  0  0
   58.2450   33.3580   46.6360 C   0  0  0  0  0  0  0  0  0  0  0  0
   59.4850   34.0420   46.0420 C   0  0  0  0  0  0  0  0  0  0  0  0
   60.6830   33.9350   46.9530 C   0  0  0  0  0  0  0  0  0  0  0  0
   61.9160   33.5120   46.4260 C   0  0  0  0  0  0  0  0  0  0  0  0
   63.0460   33.4360   47.2440 C   0  0  0  0  0  0  0  0  0  0  0  0
   62.9570   33.7800   48.5940 C   0  0  0  0  0  0  0  0  0  0  0  0
   61.7390   34.2040   49.1290 C   0  0  0  0  0  0  0  0  0  0  0  0
   60.5990   34.2900   48.3160 C   0  0  0  0  0  0  0  0  0  0  0  0
   59.3930   34.7350   48.8540 O   0  0  0  0  0  0  0  0  0  0  0  0
  1  2  2  0
  2  3  1  0
  3  4  2  3
  4  5  1  0
  5  6  2  0
  6  7  1  0
  6  8  1  0
  8  9  1  0
  9 10  2  0
  9 11  1  0
 11 12  1  0
 12 13  2  0
  3 14  1  0
 14 15  2  0
 15 16  1  0
 15 17  1  0
 17 18  1  0
 18 19  1  0
 19 20  1  0
 20 21  2  0
 21 22  1  0
 22 23  2  0
 23 24  1  0
 24 25  2  0
 25 26  1  0
 17  2  1  0
 25 20  1  0
 12  5  1  0
M  CHG  3   7  -1   8  -1  11  -1
M  END
>  <UniqueID>  (1555) 
74

>  <SMILES>  (1555) 
C=c1c(=Cc2c([O-])[n-]c(=O)[n-]c2=O)cc(C)n1CCc1ccccc1O

>  <Energy>  (1555) 
82.7327556926275

>  <Genealogy>  (1555) 
C=c1c(=Cc2c([O-])[n-]c(=O)[n-]c2=O)cc(C)n1CCc1ccccc1O (protonated)
C=c1c(=Cc2c([O-])[n-]c(=O)[n-]c2=O)cc(C)n1CCc1ccccc1O (3D coordinates assigned)
C=c1c(=Cc2c([O-])[n-]c(=O)[n-]c2=O)cc(C)n1CCc1ccccc1O (optimized conformer: 82.7327556926275 kcal/mol)

>  <smiles>  (1555) 
C=c1c(=Cc2c(O)[nH]c(=O)[nH]c2=O)cc(C)n1CCc1ccccc1O

>  <score_type>  (1555) 
oracle

>  <origin>  (1555) 
adg

>  <m_score__min__energy>  (1555) 
-15.83

>  <m_primary>  (1555) 
energy

$$$$
87:0
     RDKit          3D

 29 32  0  0  0  0  0  0  0  0999 V2000
   55.8090   31.5920   52.2470 C   0  0  0  0  0  0  0  0  0  0  0  0
   55.2950   30.4010   52.5990 C   0  0  0  0  0  0  0  0  0  0  0  0
   53.9430   30.1100   52.8420 C   0  0  0  0  0  0  0  0  0  0  0  0
   52.8250   30.8140   52.5770 C   0  0  0  0  0  0  0  0  0  0  0  0
   52.1980   30.9560   51.2530 C   0  0  0  0  0  0  0  0  0  0  0  0
   51.3420   31.9600   50.8610 C   0  0  0  0  0  0  0  0  0  0  0  0
   51.0150   33.0840   51.6100 O   0  0  0  0  0  0  0  0  0  0  0  0
   50.8440   31.7070   49.6360 N   0  0  0  0  0  0  0  0  0  0  0  0
   51.4070   30.5200   49.3250 C   0  0  0  0  0  0  0  0  0  0  0  0
   51.1800   29.9190   48.2410 O   0  0  0  0  0  0  0  0  0  0  0  0
   52.2180   30.0280   50.2800 N   0  0  0  0  0  0  0  0  0  0  0  0
   53.9160   28.8630   53.4440 C   0  0  0  0  0  0  0  0  0  0  0  0
   55.2180   28.4080   53.4760 C   0  0  0  0  0  0  0  0  0  0  0  0
   55.6320   27.0720   54.0160 C   0  0  0  0  0  0  0  0  0  0  0  0
   56.0570   29.3360   52.9620 N   0  0  0  0  0  0  0  0  0  0  0  0
   57.4850   29.2050   52.8390 C   0  0  0  0  0  0  0  0  0  0  0  0
   58.3600   28.8130   53.8340 C   0  0  0  0  0  0  0  0  0  0  0  0
   59.6180   28.8530   53.2640 C   0  0  0  0  0  0  0  0  0  0  0  0
   59.5270   29.2400   51.9740 N   0  0  0  0  0  0  0  0  0  0  0  0
   60.6470   29.4670   51.0640 C   0  0  0  0  0  0  0  0  0  0  0  0
   60.2860   29.0030   49.6720 C   0  0  0  0  0  0  0  0  0  0  0  0
   60.6710   27.7140   49.2620 C   0  0  0  0  0  0  0  0  0  0  0  0
   60.3890   27.2660   47.9710 C   0  0  0  0  0  0  0  0  0  0  0  0
   59.7290   28.1000   47.0680 C   0  0  0  0  0  0  0  0  0  0  0  0
   59.3530   29.3890   47.4530 C   0  0  0  0  0  0  0  0  0  0  0  0
   59.6300   29.8510   48.7470 C   0  0  0  0  0  0  0  0  0  0  0  0
   59.2340   31.1940   49.0990 C   0  0  0  0  0  0  0  0  0  0  0  0
   58.9160   32.2700   49.3780 N   0  0  0  0  0  0  0  0  0  0  0  0
   58.2260   29.4590   51.7040 C   0  0  0  0  0  0  0  0  0  0  0  0
  1  2  2  0
  2  3  1  0
  3  4  2  0
  4  5  1  0
  5  6  2  0
  6  7  1  0
  6  8  1  0
  8  9  1  0
  9 10  2  0
  9 11  1  0
  3 12  1  0
 12 13  2  0
 13 14  1  0
 13 15  1  0
 15 16  1  0
 16 17  1  0
 17 18  2  0
 18 19  1  0
 19 20  1  0
 20 21  1  0
 21 22  2  0
 22 23  1  0
 23 24  2  0
 24 25  1  0
 25 26  2  0
 26 27  1  0
 27 28  3  0
 19 29  1  0
 15  2  1  0
 29 16  2  0
 11  5  1  0
 26 21  1  0
M  CHG  2   7  -1   8  -1
M  END
>  <UniqueID>  (1556) 
81

>  <SMILES>  (1556) 
C=c1/c(=C\c2[nH]c(=O)[n-]c2[O-])cc(C)n1-c1ccn(Cc2ccccc2C#N)c1

>  <Energy>  (1556) 
150.48780937318574

>  <Genealogy>  (1556) 
C=c1c(=Cc2[nH]c(=O)[n-]c2[O-])cc(C)n1-c1ccn(Cc2ccccc2C#N)c1 (protonated)
C=c1/c(=C\c2[nH]c(=O)[n-]c2[O-])cc(C)n1-c1ccn(Cc2ccccc2C#N)c1 (cis-trans isomerization)
C=c1/c(=C\c2[nH]c(=O)[n-]c2[O-])cc(C)n1-c1ccn(Cc2ccccc2C#N)c1 (3D coordinates assigned)
C=c1/c(=C\c2[nH]c(=O)[n-]c2[O-])cc(C)n1-c1ccn(Cc2ccccc2C#N)c1 (optimized conformer: 150.48780937318574 kcal/mol)

>  <smiles>  (1556) 
C=c1c(=Cc2[nH]c(=O)[nH]c2O)cc(C)n1-c1ccn(Cc2ccccc2C#N)c1

>  <score_type>  (1556) 
oracle

>  <origin>  (1556) 
adg

>  <m_score__min__energy>  (1556) 
-14.84

>  <m_primary>  (1556) 
energy

$$$$
2:0
     RDKit          3D

 29 32  0  0  0  0  0  0  0  0999 V2000
   54.9110   25.7960   45.6500 O   0  0  0  0  0  0  0  0  0  0  0  0
   56.1230   25.6010   45.9370 C   0  0  0  0  0  0  0  0  0  0  0  0
   56.7610   26.5220   46.8360 N   0  0  0  0  0  0  0  0  0  0  0  0
   57.8040   27.4580   46.5230 C   0  0  0  0  0  0  0  0  0  0  0  0
   58.1690   27.6390   45.1800 C   0  0  0  0  0  0  0  0  0  0  0  0
   59.1670   28.5500   44.8400 C   0  0  0  0  0  0  0  0  0  0  0  0
   59.8280   29.2750   45.8390 C   0  0  0  0  0  0  0  0  0  0  0  0
   59.5160   29.0720   47.1950 C   0  0  0  0  0  0  0  0  0  0  0  0
   60.3000   29.8040   48.2610 C   0  0  0  0  0  0  0  0  0  0  0  0
   60.9530   31.0560   47.7280 C   0  0  0  0  0  0  0  0  0  0  0  0
   62.3090   31.0670   47.6500 N   0  0  0  0  0  0  0  0  0  0  0  0
   62.9840   32.1190   47.1940 N   0  0  0  0  0  0  0  0  0  0  0  0
   62.3550   33.2420   46.7760 C   0  0  0  0  0  0  0  0  0  0  0  0
   63.0430   34.2180   46.3800 O   0  0  0  0  0  0  0  0  0  0  0  0
   60.9510   33.3050   46.7970 C   0  0  0  0  0  0  0  0  0  0  0  0
   60.2300   32.1880   47.2750 C   0  0  0  0  0  0  0  0  0  0  0  0
   58.7200   32.2610   47.3090 C   0  0  0  0  0  0  0  0  0  0  0  0
   58.2110   33.0120   46.0810 C   0  0  0  0  0  0  0  0  0  0  0  0
   58.7290   34.4570   46.0730 C   0  0  0  0  0  0  0  0  0  0  0  0
   60.2450   34.5920   46.3920 C   0  0  0  0  0  0  0  0  0  0  0  0
   58.5110   28.1430   47.5330 C   0  0  0  0  0  0  0  0  0  0  0  0
   56.8260   24.4330   45.3530 C   0  0  0  0  0  0  0  0  0  0  0  0
   58.1280   24.0860   45.7570 C   0  0  0  0  0  0  0  0  0  0  0  0
   58.7660   22.9850   45.1680 C   0  0  0  0  0  0  0  0  0  0  0  0
   60.0630   22.6340   45.5310 O   0  0  0  0  0  0  0  0  0  0  0  0
   58.1160   22.2500   44.2270 N   0  0  0  0  0  0  0  0  0  0  0  0
   56.8470   22.5450   43.8370 C   0  0  0  0  0  0  0  0  0  0  0  0
   56.2780   21.8350   42.9650 O   0  0  0  0  0  0  0  0  0  0  0  0
   56.1750   23.6330   44.4010 C   0  0  0  0  0  0  0  0  0  0  0  0
  1  2  2  0
  2  3  1  0
  3  4  1  0
  4  5  2  0
  5  6  1  0
  6  7  2  0
  7  8  1  0
  8  9  1  0
  9 10  1  0
 10 11  2  0
 11 12  1  0
 12 13  1  0
 13 14  2  0
 13 15  1  0
 15 16  2  0
 16 17  1  0
 17 18  1  0
 18 19  1  0
 19 20  1  0
  8 21  2  0
  2 22  1  0
 22 23  1  0
 23 24  2  0
 24 25  1  0
 24 26  1  0
 26 27  1  0
 27 28  2  0
 27 29  1  0
 21  4  1  0
 29 22  2  0
 16 10  1  0
 20 15  1  0
M  CHG  3   3  -1  12  -1  26  -1
M  END
>  <UniqueID>  (1557) 
3

>  <SMILES>  (1557) 
O=C([N-]c1cccc(Cc2n[n-]c(=O)c3c2CCCC3)c1)c1cc(O)[n-]c(=O)c1

>  <Energy>  (1557) 
60.38428414440157

>  <Genealogy>  (1557) 
O=C([N-]c1cccc(Cc2n[n-]c(=O)c3c2CCCC3)c1)c1cc(O)[n-]c(=O)c1 (protonated)
O=C([N-]c1cccc(Cc2n[n-]c(=O)c3c2CCCC3)c1)c1cc(O)[n-]c(=O)c1 (3D coordinates assigned)
O=C([N-]c1cccc(Cc2n[n-]c(=O)c3c2CCCC3)c1)c1cc(O)[n-]c(=O)c1 (nonaromatic ring conformer: 60.38428414440157 kcal/mol)

>  <smiles>  (1557) 
O=C(Nc1cccc(Cc2n[nH]c(=O)c3c2CCCC3)c1)c1cc(O)[nH]c(=O)c1

>  <score_type>  (1557) 
oracle

>  <origin>  (1557) 
adg

>  <m_score__min__energy>  (1557) 
-14.52

>  <m_primary>  (1557) 
energy

$$$$
10:0
     RDKit          3D

 26 28  0  0  0  0  0  0  0  0999 V2000
   57.1650   30.1240   44.0430 C   0  0  0  0  0  0  0  0  0  0  0  0
   56.9170   30.9130   45.2010 O   0  0  0  0  0  0  0  0  0  0  0  0
   57.5280   32.1500   45.4690 C   0  0  0  0  0  0  0  0  0  0  0  0
   57.0640   33.3480   44.8870 C   0  0  0  0  0  0  0  0  0  0  0  0
   57.7030   34.5600   45.1600 C   0  0  0  0  0  0  0  0  0  0  0  0
   58.8090   34.5940   46.0090 C   0  0  0  0  0  0  0  0  0  0  0  0
   59.2790   33.4160   46.5930 C   0  0  0  0  0  0  0  0  0  0  0  0
   58.6370   32.1910   46.3410 C   0  0  0  0  0  0  0  0  0  0  0  0
   59.1850   30.9270   46.9580 C   0  0  0  0  0  0  0  0  0  0  0  0
   60.2880   30.3300   46.0780 C   0  0  0  0  0  0  0  0  0  0  0  0
   60.7460   29.0400   46.6410 N   0  0  0  0  0  0  0  0  0  0  0  0
   60.8080   27.9500   45.6420 C   0  0  0  0  0  0  0  0  0  0  0  0
   59.4210   27.4120   45.2460 C   0  0  0  0  0  0  0  0  0  0  0  0
   58.5930   27.1620   46.4330 N   0  0  0  0  0  0  0  0  0  0  0  0
   57.6010   26.1130   46.4390 C   0  0  0  0  0  0  0  0  0  0  0  0
   57.1920   25.6530   47.5410 O   0  0  0  0  0  0  0  0  0  0  0  0
   57.0860   25.5100   45.1570 C   0  0  0  0  0  0  0  0  0  0  0  0
   55.9120   24.6100   45.4090 C   0  0  0  0  0  0  0  0  0  0  0  0
   55.9220   22.9340   45.2370 S   0  0  0  0  0  0  0  0  0  0  0  0
   54.2880   22.8050   45.6060 C   0  0  0  0  0  0  0  0  0  0  0  0
   53.6550   21.7190   45.6500 O   0  0  0  0  0  0  0  0  0  0  0  0
   53.7130   24.0020   45.8490 N   0  0  0  0  0  0  0  0  0  0  0  0
   54.6180   25.0080   45.7320 C   0  0  0  0  0  0  0  0  0  0  0  0
   54.2580   26.3380   45.9200 O   0  0  0  0  0  0  0  0  0  0  0  0
   58.5590   28.1900   47.4780 C   0  0  0  0  0  0  0  0  0  0  0  0
   59.9830   28.6260   47.8340 C   0  0  0  0  0  0  0  0  0  0  0  0
  1  2  1  0
  2  3  1  0
  3  4  2  0
  4  5  1  0
  5  6  2  0
  6  7  1  0
  7  8  2  0
  8  9  1  0
  9 10  1  0
 10 11  1  0
 11 12  1  0
 12 13  1  0
 13 14  1  0
 14 15  1  0
 15 16  2  0
 15 17  1  0
 17 18  1  0
 18 19  1  0
 19 20  1  0
 20 21  2  0
 20 22  1  0
 22 23  1  0
 23 24  1  0
 14 25  1  0
 25 26  1  0
  8  3  1  0
 26 11  1  0
 23 18  2  0
M  CHG  2  22  -1  24  -1
M  END
>  <UniqueID>  (1558) 
11

>  <SMILES>  (1558) 
COc1ccccc1CCN1CCN(C(=O)Cc2sc(=O)[n-]c2[O-])CC1

>  <Energy>  (1558) 
81.36144392948317

>  <Genealogy>  (1558) 
COc1ccccc1CCN1CCN(C(=O)Cc2sc(=O)[n-]c2[O-])CC1 (protonated)
COc1ccccc1CCN1CCN(C(=O)Cc2sc(=O)[n-]c2[O-])CC1 (3D coordinates assigned)
COc1ccccc1CCN1CCN(C(=O)Cc2sc(=O)[n-]c2[O-])CC1 (nonaromatic ring conformer: 81.36144392948317 kcal/mol)

>  <smiles>  (1558) 
COc1ccccc1CCN1CCN(C(=O)Cc2sc(=O)[nH]c2O)CC1

>  <score_type>  (1558) 
oracle

>  <origin>  (1558) 
adg

>  <m_score__min__energy>  (1558) 
-14.039999999999999

>  <m_primary>  (1558) 
energy

$$$$
23:0
     RDKit          3D

 29 32  0  0  0  0  0  0  0  0999 V2000
   58.9060   28.4520   46.5870 C   0  0  0  0  0  0  0  0  0  0  0  0
   58.2660   28.7480   45.4450 C   0  0  0  0  0  0  0  0  0  0  0  0
   57.7880   27.8520   44.4710 C   0  0  0  0  0  0  0  0  0  0  0  0
   57.7420   26.5040   44.4490 C   0  0  0  0  0  0  0  0  0  0  0  0
   57.3160   25.6400   45.5660 C   0  0  0  0  0  0  0  0  0  0  0  0
   56.0320   25.7520   46.1230 C   0  0  0  0  0  0  0  0  0  0  0  0
   55.1390   26.7140   45.6630 O   0  0  0  0  0  0  0  0  0  0  0  0
   55.6520   24.9140   47.1220 N   0  0  0  0  0  0  0  0  0  0  0  0
   56.4880   23.9500   47.5830 C   0  0  0  0  0  0  0  0  0  0  0  0
   56.1150   23.1860   48.5120 O   0  0  0  0  0  0  0  0  0  0  0  0
   57.7240   23.8040   47.0410 N   0  0  0  0  0  0  0  0  0  0  0  0
   58.1520   24.6180   46.0420 C   0  0  0  0  0  0  0  0  0  0  0  0
   59.3020   24.4500   45.5550 O   0  0  0  0  0  0  0  0  0  0  0  0
   57.3020   28.6290   43.4340 C   0  0  0  0  0  0  0  0  0  0  0  0
   57.4590   29.9460   43.8100 C   0  0  0  0  0  0  0  0  0  0  0  0
   57.0410   31.1260   42.9850 C   0  0  0  0  0  0  0  0  0  0  0  0
   58.0320   30.0210   45.0310 N   0  0  0  0  0  0  0  0  0  0  0  0
   58.3810   31.2390   45.7120 C   0  0  0  0  0  0  0  0  0  0  0  0
   57.4200   32.2410   45.8970 C   0  0  0  0  0  0  0  0  0  0  0  0
   57.7620   33.4300   46.5420 C   0  0  0  0  0  0  0  0  0  0  0  0
   59.0650   33.6290   47.0050 C   0  0  0  0  0  0  0  0  0  0  0  0
   60.0450   32.6360   46.8230 C   0  0  0  0  0  0  0  0  0  0  0  0
   61.3890   32.8330   47.3080 N   0  0  0  0  0  0  0  0  0  0  0  0
   61.8190   32.1390   48.5300 C   0  0  0  0  0  0  0  0  0  0  0  0
   63.2130   32.6030   48.9600 C   0  0  0  0  0  0  0  0  0  0  0  0
   64.1240   32.5860   47.8090 N   0  0  0  0  0  0  0  0  0  0  0  0
   63.7170   33.5080   46.7250 C   0  0  0  0  0  0  0  0  0  0  0  0
   62.2260   33.9050   46.7530 C   0  0  0  0  0  0  0  0  0  0  0  0
   59.6910   31.4420   46.1700 C   0  0  0  0  0  0  0  0  0  0  0  0
  1  2  2  0
  2  3  1  0
  3  4  2  0
  4  5  1  0
  5  6  2  0
  6  7  1  0
  6  8  1  0
  8  9  1  0
  9 10  2  0
  9 11  1  0
 11 12  1  0
 12 13  2  0
  3 14  1  0
 14 15  2  0
 15 16  1  0
 15 17  1  0
 17 18  1  0
 18 19  2  0
 19 20  1  0
 20 21  2  0
 21 22  1  0
 22 23  1  0
 23 24  1  0
 24 25  1  0
 25 26  1  0
 26 27  1  0
 27 28  1  0
 22 29  2  0
 17  2  1  0
 29 18  1  0
 12  5  1  0
 28 23  1  0
M  CHG  4   7  -1   8  -1  11  -1  26   1
M  END
>  <UniqueID>  (1559) 
23

>  <SMILES>  (1559) 
C=c1/c(=C\c2c([O-])[n-]c(=O)[n-]c2=O)cc(C)n1-c1cccc(N2CC[NH2+]CC2)c1

>  <Energy>  (1559) 
110.33549257862819

>  <Genealogy>  (1559) 
C=c1c(=Cc2c([O-])[n-]c(=O)[n-]c2=O)cc(C)n1-c1cccc(N2CC[NH2+]CC2)c1 (protonated)
C=c1/c(=C\c2c([O-])[n-]c(=O)[n-]c2=O)cc(C)n1-c1cccc(N2CC[NH2+]CC2)c1 (cis-trans isomerization)
C=c1/c(=C\c2c([O-])[n-]c(=O)[n-]c2=O)cc(C)n1-c1cccc(N2CC[NH2+]CC2)c1 (3D coordinates assigned)
C=c1/c(=C\c2c([O-])[n-]c(=O)[n-]c2=O)cc(C)n1-c1cccc(N2CC[NH2+]CC2)c1 (nonaromatic ring conformer: 110.33549257862819 kcal/mol)

>  <smiles>  (1559) 
C=c1c(=Cc2c(O)[nH]c(=O)[nH]c2=O)cc(C)n1-c1cccc(N2CCNCC2)c1

>  <score_type>  (1559) 
oracle

>  <origin>  (1559) 
adg

>  <m_score__min__energy>  (1559) 
-15.56

>  <m_primary>  (1559) 
energy

$$$$
25:0
     RDKit          3D

 32 35  0  0  0  0  0  0  0  0999 V2000
   60.7680   29.6330   45.9350 C   0  0  0  0  0  0  0  0  0  0  0  0
   59.7490   30.5090   45.9330 C   0  0  0  0  0  0  0  0  0  0  0  0
   58.5110   30.3790   45.2800 C   0  0  0  0  0  0  0  0  0  0  0  0
   57.9640   29.3530   44.5980 C   0  0  0  0  0  0  0  0  0  0  0  0
   57.4020   28.1260   45.1920 C   0  0  0  0  0  0  0  0  0  0  0  0
   56.0150   27.9790   45.3300 C   0  0  0  0  0  0  0  0  0  0  0  0
   55.1490   28.9660   44.8720 O   0  0  0  0  0  0  0  0  0  0  0  0
   55.5070   26.8610   45.9090 N   0  0  0  0  0  0  0  0  0  0  0  0
   56.3220   25.8790   46.3740 C   0  0  0  0  0  0  0  0  0  0  0  0
   55.8280   24.8500   46.9030 O   0  0  0  0  0  0  0  0  0  0  0  0
   57.6690   26.0090   46.2730 N   0  0  0  0  0  0  0  0  0  0  0  0
   58.2270   27.1090   45.7020 C   0  0  0  0  0  0  0  0  0  0  0  0
   59.4810   27.2050   45.6420 O   0  0  0  0  0  0  0  0  0  0  0  0
   57.8660   31.5970   45.4320 C   0  0  0  0  0  0  0  0  0  0  0  0
   58.6940   32.4030   46.1820 C   0  0  0  0  0  0  0  0  0  0  0  0
   58.4140   33.8440   46.4830 C   0  0  0  0  0  0  0  0  0  0  0  0
   59.8320   31.7440   46.4980 N   0  0  0  0  0  0  0  0  0  0  0  0
   60.9690   32.3090   47.1790 C   0  0  0  0  0  0  0  0  0  0  0  0
   61.7270   33.3010   46.5400 C   0  0  0  0  0  0  0  0  0  0  0  0
   62.8820   33.8070   47.1400 C   0  0  0  0  0  0  0  0  0  0  0  0
   63.2970   33.3200   48.3800 C   0  0  0  0  0  0  0  0  0  0  0  0
   62.5500   32.3340   49.0310 C   0  0  0  0  0  0  0  0  0  0  0  0
   61.3740   31.8320   48.4490 C   0  0  0  0  0  0  0  0  0  0  0  0
   60.5860   30.8200   49.1830 C   0  0  0  0  0  0  0  0  0  0  0  0
   60.9460   29.6120   49.1370 O   0  0  0  0  0  0  0  0  0  0  0  0
   59.4350   31.1950   49.9610 N   0  0  0  0  0  0  0  0  0  0  0  0
   59.0610   32.6090   50.0640 C   0  0  0  0  0  0  0  0  0  0  0  0
   58.5210   32.9060   51.4620 C   0  0  0  0  0  0  0  0  0  0  0  0
   57.5090   31.9320   51.8580 N   0  0  0  0  0  0  0  0  0  0  0  0
   57.5590   30.5730   51.4100 C   0  0  0  0  0  0  0  0  0  0  0  0
   56.8380   29.7040   51.9700 O   0  0  0  0  0  0  0  0  0  0  0  0
   58.4030   30.1860   50.2320 C   0  0  0  0  0  0  0  0  0  0  0  0
  1  2  2  0
  2  3  1  0
  3  4  2  3
  4  5  1  0
  5  6  2  0
  6  7  1  0
  6  8  1  0
  8  9  1  0
  9 10  2  0
  9 11  1  0
 11 12  1  0
 12 13  2  0
  3 14  1  0
 14 15  2  0
 15 16  1  0
 15 17  1  0
 17 18  1  0
 18 19  2  0
 19 20  1  0
 20 21  2  0
 21 22  1  0
 22 23  2  0
 23 24  1  0
 24 25  2  0
 24 26  1  0
 26 27  1  0
 27 28  1  0
 28 29  1  0
 29 30  1  0
 30 31  2  0
 30 32  1  0
 17  2  1  0
 23 18  1  0
 32 26  1  0
 12  5  1  0
M  CHG  3   7  -1   8  -1  11  -1
M  END
>  <UniqueID>  (1560) 
25

>  <SMILES>  (1560) 
C=c1c(=Cc2c([O-])[n-]c(=O)[n-]c2=O)cc(C)n1-c1ccccc1C(=O)N1CCNC(=O)C1

>  <Energy>  (1560) 
104.00813682667508

>  <Genealogy>  (1560) 
C=c1c(=Cc2c([O-])[n-]c(=O)[n-]c2=O)cc(C)n1-c1ccccc1C(=O)N1CCNC(=O)C1 (protonated)
C=c1c(=Cc2c([O-])[n-]c(=O)[n-]c2=O)cc(C)n1-c1ccccc1C(=O)N1CCNC(=O)C1 (3D coordinates assigned)
C=c1c(=Cc2c([O-])[n-]c(=O)[n-]c2=O)cc(C)n1-c1ccccc1C(=O)N1CCNC(=O)C1 (nonaromatic ring conformer: 104.00813682667508 kcal/mol)

>  <smiles>  (1560) 
C=c1c(=Cc2c(O)[nH]c(=O)[nH]c2=O)cc(C)n1-c1ccccc1C(=O)N1CCNC(=O)C1

>  <score_type>  (1560) 
oracle

>  <origin>  (1560) 
adg

>  <m_score__min__energy>  (1560) 
-16.629999999999999

>  <m_primary>  (1560) 
energy

$$$$
44:0
     RDKit          3D

 31 34  0  0  0  0  0  0  0  0999 V2000
   59.0860   28.0130   47.8480 C   0  0  0  0  0  0  0  0  0  0  0  0
   58.5850   28.7740   46.8640 C   0  0  0  0  0  0  0  0  0  0  0  0
   57.9060   28.3420   45.7150 C   0  0  0  0  0  0  0  0  0  0  0  0
   57.7610   27.1110   45.1820 C   0  0  0  0  0  0  0  0  0  0  0  0
   57.1590   25.9540   45.8610 C   0  0  0  0  0  0  0  0  0  0  0  0
   57.8740   24.9310   46.3600 N   0  0  0  0  0  0  0  0  0  0  0  0
   56.9480   24.1830   46.9980 C   0  0  0  0  0  0  0  0  0  0  0  0
   57.2340   23.1090   47.5880 O   0  0  0  0  0  0  0  0  0  0  0  0
   55.6930   24.6810   46.9620 N   0  0  0  0  0  0  0  0  0  0  0  0
   55.8460   25.8110   46.2530 C   0  0  0  0  0  0  0  0  0  0  0  0
   54.8140   26.7060   45.9960 O   0  0  0  0  0  0  0  0  0  0  0  0
   57.3780   29.5090   45.1780 C   0  0  0  0  0  0  0  0  0  0  0  0
   56.5550   29.6360   43.9340 C   0  0  0  0  0  0  0  0  0  0  0  0
   57.7700   30.5700   45.9070 N   0  0  0  0  0  0  0  0  0  0  0  0
   58.5190   30.1300   46.9080 N   0  0  0  0  0  0  0  0  0  0  0  0
   59.0710   31.0190   47.9360 C   0  0  0  0  0  0  0  0  0  0  0  0
   59.4250   32.3720   47.3570 C   0  0  0  0  0  0  0  0  0  0  0  0
   58.4010   33.3200   47.1830 C   0  0  0  0  0  0  0  0  0  0  0  0
   58.6790   34.5790   46.6490 C   0  0  0  0  0  0  0  0  0  0  0  0
   59.9790   34.9090   46.2760 C   0  0  0  0  0  0  0  0  0  0  0  0
   61.0080   33.9790   46.4290 C   0  0  0  0  0  0  0  0  0  0  0  0
   60.7520   32.7030   46.9630 C   0  0  0  0  0  0  0  0  0  0  0  0
   61.9050   31.7320   47.1070 C   0  0  0  0  0  0  0  0  0  0  0  0
   63.0010   32.3330   47.8630 N   0  0  0  0  0  0  0  0  0  0  0  0
   62.7990   32.9920   49.1220 C   0  0  0  0  0  0  0  0  0  0  0  0
   61.6270   33.2300   49.5260 O   0  0  0  0  0  0  0  0  0  0  0  0
   63.9200   33.3830   49.9320 N   0  0  0  0  0  0  0  0  0  0  0  0
   63.7770   34.1050   51.1840 C   0  0  0  0  0  0  0  0  0  0  0  0
   65.1960   34.4030   51.6490 C   0  0  0  0  0  0  0  0  0  0  0  0
   66.1010   33.4610   50.8580 C   0  0  0  0  0  0  0  0  0  0  0  0
   65.3000   33.0470   49.6300 C   0  0  0  0  0  0  0  0  0  0  0  0
  1  2  2  0
  2  3  1  0
  3  4  2  0
  4  5  1  0
  5  6  1  0
  6  7  1  0
  7  8  2  0
  7  9  1  0
  9 10  1  0
 10 11  1  0
  3 12  1  0
 12 13  1  0
 12 14  2  0
 14 15  1  0
 15 16  1  0
 16 17  1  0
 17 18  2  0
 18 19  1  0
 19 20  2  0
 20 21  1  0
 21 22  2  0
 22 23  1  0
 23 24  1  0
 24 25  1  0
 25 26  2  0
 25 27  1  0
 27 28  1  0
 28 29  1  0
 29 30  1  0
 30 31  1  0
 15  2  1  0
 22 17  1  0
 31 27  1  0
 10  5  2  0
M  CHG  3   6  -1   9  -1  11  -1
M  END
>  <UniqueID>  (1561) 
41

>  <SMILES>  (1561) 
C=c1/c(=C\c2[n-]c(=O)[n-]c2[O-])c(C)nn1Cc1ccccc1CNC(=O)N1CCCC1

>  <Energy>  (1561) 
127.11172882931166

>  <Genealogy>  (1561) 
C=c1c(=Cc2[n-]c(=O)[n-]c2[O-])c(C)nn1Cc1ccccc1CNC(=O)N1CCCC1 (protonated)
C=c1/c(=C\c2[n-]c(=O)[n-]c2[O-])c(C)nn1Cc1ccccc1CNC(=O)N1CCCC1 (cis-trans isomerization)
C=c1/c(=C\c2[n-]c(=O)[n-]c2[O-])c(C)nn1Cc1ccccc1CNC(=O)N1CCCC1 (3D coordinates assigned)
C=c1/c(=C\c2[n-]c(=O)[n-]c2[O-])c(C)nn1Cc1ccccc1CNC(=O)N1CCCC1 (nonaromatic ring conformer: 127.11172882931166 kcal/mol)

>  <smiles>  (1561) 
C=c1c(=Cc2[nH]c(=O)[nH]c2O)c(C)nn1Cc1ccccc1CNC(=O)N1CCCC1

>  <score_type>  (1561) 
oracle

>  <origin>  (1561) 
adg

>  <m_score__min__energy>  (1561) 
-16.829999999999998

>  <m_primary>  (1561) 
energy

$$$$
59:0
     RDKit          3D

 29 31  0  0  0  0  0  0  0  0999 V2000
   60.6510   30.3580   46.0470 C   0  0  0  0  0  0  0  0  0  0  0  0
   59.4830   29.9240   45.5170 C   0  0  0  0  0  0  0  0  0  0  0  0
   59.3710   28.5530   45.1710 C   0  0  0  0  0  0  0  0  0  0  0  0
   60.3290   27.7640   45.4050 O   0  0  0  0  0  0  0  0  0  0  0  0
   58.1660   28.0740   44.6090 C   0  0  0  0  0  0  0  0  0  0  0  0
   57.9780   26.7900   44.2120 C   0  0  0  0  0  0  0  0  0  0  0  0
   57.3440   25.7130   45.0010 C   0  0  0  0  0  0  0  0  0  0  0  0
   57.9040   24.4250   45.0180 C   0  0  0  0  0  0  0  0  0  0  0  0
   57.2850   23.3830   45.7190 C   0  0  0  0  0  0  0  0  0  0  0  0
   57.9020   22.1210   45.7140 O   0  0  0  0  0  0  0  0  0  0  0  0
   57.7130   21.1140   44.7210 C   0  0  0  0  0  0  0  0  0  0  0  0
   56.3200   21.1610   44.1770 C   0  0  0  0  0  0  0  0  0  0  0  0
   55.3450   20.8330   44.9030 O   0  0  0  0  0  0  0  0  0  0  0  0
   56.0940   21.5920   42.8750 O   0  0  0  0  0  0  0  0  0  0  0  0
   56.0780   23.6360   46.3980 C   0  0  0  0  0  0  0  0  0  0  0  0
   55.5020   24.9100   46.3590 C   0  0  0  0  0  0  0  0  0  0  0  0
   56.1250   25.9450   45.6570 C   0  0  0  0  0  0  0  0  0  0  0  0
   55.5310   27.2020   45.6220 O   0  0  0  0  0  0  0  0  0  0  0  0
   57.1250   28.9400   44.4870 N   0  0  0  0  0  0  0  0  0  0  0  0
   57.2260   30.2510   44.8220 C   0  0  0  0  0  0  0  0  0  0  0  0
   56.2140   30.9920   44.6640 O   0  0  0  0  0  0  0  0  0  0  0  0
   58.4010   30.7690   45.3140 N   0  0  0  0  0  0  0  0  0  0  0  0
   58.4280   32.2220   45.6230 C   0  0  0  0  0  0  0  0  0  0  0  0
   58.7610   32.4610   47.0770 C   0  0  0  0  0  0  0  0  0  0  0  0
   58.5120   31.4610   48.0350 C   0  0  0  0  0  0  0  0  0  0  0  0
   58.8330   31.6740   49.3790 C   0  0  0  0  0  0  0  0  0  0  0  0
   59.4050   32.8830   49.7810 C   0  0  0  0  0  0  0  0  0  0  0  0
   59.6570   33.8810   48.8380 C   0  0  0  0  0  0  0  0  0  0  0  0
   59.3390   33.6740   47.4920 C   0  0  0  0  0  0  0  0  0  0  0  0
  1  2  2  0
  2  3  1  0
  3  4  2  0
  3  5  1  0
  5  6  2  3
  6  7  1  0
  7  8  2  0
  8  9  1  0
  9 10  1  0
 10 11  1  0
 11 12  1  0
 12 13  2  0
 12 14  1  0
  9 15  2  0
 15 16  1  0
 16 17  2  0
 17 18  1  0
  5 19  1  0
 19 20  1  0
 20 21  2  0
 20 22  1  0
 22 23  1  0
 23 24  1  0
 24 25  2  0
 25 26  1  0
 26 27  2  0
 27 28  1  0
 28 29  2  0
 22  2  1  0
 29 24  1  0
 17  7  1  0
M  CHG  2  14  -1  18  -1
M  END
>  <UniqueID>  (1562) 
56

>  <SMILES>  (1562) 
C=c1c(=O)c(=Cc2cc(OCC(=O)[O-])ccc2[O-])[nH]c(=O)n1Cc1ccccc1

>  <Energy>  (1562) 
74.15658551444297

>  <Genealogy>  (1562) 
C=c1c(=O)c(=Cc2cc(OCC(=O)[O-])ccc2[O-])[nH]c(=O)n1Cc1ccccc1 (protonated)
C=c1c(=O)c(=Cc2cc(OCC(=O)[O-])ccc2[O-])[nH]c(=O)n1Cc1ccccc1 (3D coordinates assigned)
C=c1c(=O)c(=Cc2cc(OCC(=O)[O-])ccc2[O-])[nH]c(=O)n1Cc1ccccc1 (optimized conformer: 74.15658551444297 kcal/mol)

>  <smiles>  (1562) 
C=c1c(=O)c(=Cc2cc(OCC(=O)O)ccc2O)[nH]c(=O)n1Cc1ccccc1

>  <score_type>  (1562) 
oracle

>  <origin>  (1562) 
adg

>  <m_score__min__energy>  (1562) 
-14.35

>  <m_primary>  (1562) 
energy

$$$$
70:0
     RDKit          3D

 32 35  0  0  0  0  0  0  0  0999 V2000
   59.3590   29.4830   47.0630 C   0  0  0  0  0  0  0  0  0  0  0  0
   58.3400   29.2300   46.2270 C   0  0  0  0  0  0  0  0  0  0  0  0
   57.6460   28.0210   46.1070 C   0  0  0  0  0  0  0  0  0  0  0  0
   57.9010   26.8640   46.7490 C   0  0  0  0  0  0  0  0  0  0  0  0
   57.2030   25.5970   46.4570 C   0  0  0  0  0  0  0  0  0  0  0  0
   57.9220   24.4440   46.4520 N   0  0  0  0  0  0  0  0  0  0  0  0
   57.3300   23.2450   46.2150 C   0  0  0  0  0  0  0  0  0  0  0  0
   58.0200   22.1930   46.2030 O   0  0  0  0  0  0  0  0  0  0  0  0
   55.9920   23.1790   45.9910 N   0  0  0  0  0  0  0  0  0  0  0  0
   55.2240   24.2990   46.0110 C   0  0  0  0  0  0  0  0  0  0  0  0
   53.9840   24.2110   45.8110 O   0  0  0  0  0  0  0  0  0  0  0  0
   55.8130   25.5420   46.2590 C   0  0  0  0  0  0  0  0  0  0  0  0
   55.0280   26.6900   46.3300 O   0  0  0  0  0  0  0  0  0  0  0  0
   56.6560   28.2310   45.1570 C   0  0  0  0  0  0  0  0  0  0  0  0
   56.7820   29.5410   44.7380 C   0  0  0  0  0  0  0  0  0  0  0  0
   55.9070   30.1940   43.7100 C   0  0  0  0  0  0  0  0  0  0  0  0
   57.7980   30.1500   45.3900 N   0  0  0  0  0  0  0  0  0  0  0  0
   58.2230   31.5110   45.1990 C   0  0  0  0  0  0  0  0  0  0  0  0
   58.1050   32.1160   43.9400 C   0  0  0  0  0  0  0  0  0  0  0  0
   58.5320   33.4320   43.7510 C   0  0  0  0  0  0  0  0  0  0  0  0
   59.0740   34.1540   44.8180 C   0  0  0  0  0  0  0  0  0  0  0  0
   59.1880   33.5660   46.0880 C   0  0  0  0  0  0  0  0  0  0  0  0
   59.7770   34.3210   47.2170 C   0  0  0  0  0  0  0  0  0  0  0  0
   59.1340   35.2830   47.7190 O   0  0  0  0  0  0  0  0  0  0  0  0
   61.0650   33.9760   47.7530 N   0  0  0  0  0  0  0  0  0  0  0  0
   61.2850   34.0600   49.2020 C   0  0  0  0  0  0  0  0  0  0  0  0
   62.2290   32.9460   49.6870 C   0  0  0  0  0  0  0  0  0  0  0  0
   63.3430   32.5780   48.6740 C   0  0  0  0  0  0  0  0  0  0  0  0
   64.5620   32.3810   49.3410 O   0  0  0  0  0  0  0  0  0  0  0  0
   63.5260   33.6570   47.6020 C   0  0  0  0  0  0  0  0  0  0  0  0
   62.2130   33.8670   46.8380 C   0  0  0  0  0  0  0  0  0  0  0  0
   58.7730   32.2350   46.2670 C   0  0  0  0  0  0  0  0  0  0  0  0
  1  2  2  0
  2  3  1  0
  3  4  2  3
  4  5  1  0
  5  6  1  0
  6  7  1  0
  7  8  2  0
  7  9  1  0
  9 10  1  0
 10 11  2  0
 10 12  1  0
 12 13  1  0
  3 14  1  0
 14 15  2  0
 15 16  1  0
 15 17  1  0
 17 18  1  0
 18 19  2  0
 19 20  1  0
 20 21  2  0
 21 22  1  0
 22 23  1  0
 23 24  2  0
 23 25  1  0
 25 26  1  0
 26 27  1  0
 27 28  1  0
 28 29  1  0
 28 30  1  0
 30 31  1  0
 22 32  2  0
 17  2  1  0
 32 18  1  0
 12  5  2  0
 31 25  1  0
M  CHG  3   6  -1   9  -1  13  -1
M  END
>  <UniqueID>  (1563) 
67

>  <SMILES>  (1563) 
C=c1c(=Cc2[n-]c(=O)[n-]c(=O)c2[O-])cc(C)n1-c1cccc(C(=O)N2CCC(O)CC2)c1

>  <Energy>  (1563) 
107.1260280338784

>  <Genealogy>  (1563) 
C=c1c(=Cc2[n-]c(=O)[n-]c(=O)c2[O-])cc(C)n1-c1cccc(C(=O)N2CCC(O)CC2)c1 (protonated)
C=c1c(=Cc2[n-]c(=O)[n-]c(=O)c2[O-])cc(C)n1-c1cccc(C(=O)N2CCC(O)CC2)c1 (3D coordinates assigned)
C=c1c(=Cc2[n-]c(=O)[n-]c(=O)c2[O-])cc(C)n1-c1cccc(C(=O)N2CCC(O)CC2)c1 (nonaromatic ring conformer: 107.1260280338784 kcal/mol)

>  <smiles>  (1563) 
C=c1c(=Cc2[nH]c(=O)[nH]c(=O)c2O)cc(C)n1-c1cccc(C(=O)N2CCC(O)CC2)c1

>  <score_type>  (1563) 
oracle

>  <origin>  (1563) 
adg

>  <m_score__min__energy>  (1563) 
-17.390000000000001

>  <m_primary>  (1563) 
energy

$$$$
78:0
     RDKit          3D

 31 34  0  0  0  0  0  0  0  0999 V2000
   57.1760   28.5490   44.9190 C   0  0  0  0  0  0  0  0  0  0  0  0
   57.8770   27.6120   45.5790 C   0  0  0  0  0  0  0  0  0  0  0  0
   57.7790   26.2150   45.4530 C   0  0  0  0  0  0  0  0  0  0  0  0
   57.0850   25.4460   44.5920 C   0  0  0  0  0  0  0  0  0  0  0  0
   55.8580   24.6940   44.9140 C   0  0  0  0  0  0  0  0  0  0  0  0
   54.8110   25.3100   45.6150 C   0  0  0  0  0  0  0  0  0  0  0  0
   54.8980   26.6480   45.9820 O   0  0  0  0  0  0  0  0  0  0  0  0
   53.6980   24.6010   45.9320 N   0  0  0  0  0  0  0  0  0  0  0  0
   53.5820   23.2900   45.5950 C   0  0  0  0  0  0  0  0  0  0  0  0
   52.5400   22.6550   45.8970 O   0  0  0  0  0  0  0  0  0  0  0  0
   54.5920   22.6650   44.9380 N   0  0  0  0  0  0  0  0  0  0  0  0
   55.7270   23.3300   44.5980 C   0  0  0  0  0  0  0  0  0  0  0  0
   56.6530   22.7130   44.0050 O   0  0  0  0  0  0  0  0  0  0  0  0
   58.5900   25.6790   46.4440 C   0  0  0  0  0  0  0  0  0  0  0  0
   59.1770   26.7420   47.1000 C   0  0  0  0  0  0  0  0  0  0  0  0
   60.1100   26.6250   48.2660 C   0  0  0  0  0  0  0  0  0  0  0  0
   58.7480   27.9090   46.5760 N   0  0  0  0  0  0  0  0  0  0  0  0
   59.1240   29.2150   47.0370 C   0  0  0  0  0  0  0  0  0  0  0  0
   58.8010   29.6160   48.3380 C   0  0  0  0  0  0  0  0  0  0  0  0
   59.1450   30.8940   48.7850 C   0  0  0  0  0  0  0  0  0  0  0  0
   59.8280   31.7880   47.9400 C   0  0  0  0  0  0  0  0  0  0  0  0
   60.1840   33.1440   48.4300 C   0  0  0  0  0  0  0  0  0  0  0  0
   59.2930   33.8330   49.0030 O   0  0  0  0  0  0  0  0  0  0  0  0
   61.5110   33.6940   48.2320 N   0  0  0  0  0  0  0  0  0  0  0  0
   61.8570   33.8640   46.8150 C   0  0  0  0  0  0  0  0  0  0  0  0
   63.3750   33.8530   46.7470 C   0  0  0  0  0  0  0  0  0  0  0  0
   63.8220   33.0820   47.9820 C   0  0  0  0  0  0  0  0  0  0  0  0
   62.5520   32.8210   48.7870 C   0  0  0  0  0  0  0  0  0  0  0  0
   60.1450   31.3770   46.6310 C   0  0  0  0  0  0  0  0  0  0  0  0
   59.7940   30.1000   46.1840 C   0  0  0  0  0  0  0  0  0  0  0  0
   60.1010   29.7260   44.9160 F   0  0  0  0  0  0  0  0  0  0  0  0
  1  2  2  0
  2  3  1  0
  3  4  2  3
  4  5  1  0
  5  6  2  0
  6  7  1  0
  6  8  1  0
  8  9  1  0
  9 10  2  0
  9 11  1  0
 11 12  1  0
 12 13  2  0
  3 14  1  0
 14 15  2  0
 15 16  1  0
 15 17  1  0
 17 18  1  0
 18 19  2  0
 19 20  1  0
 20 21  2  0
 21 22  1  0
 22 23  2  0
 22 24  1  0
 24 25  1  0
 25 26  1  0
 26 27  1  0
 27 28  1  0
 21 29  1  0
 29 30  2  0
 30 31  1  0
 17  2  1  0
 30 18  1  0
 12  5  1  0
 28 24  1  0
M  CHG  4   7  -1   8  -1  11  -1  24   1
M  END
>  <UniqueID>  (1564) 
75

>  <SMILES>  (1564) 
C=c1c(=Cc2c([O-])[n-]c(=O)[n-]c2=O)cc(C)n1-c1ccc(C(=O)[NH+]2CCCC2)cc1F

>  <Energy>  (1564) 
110.89344572192928

>  <Genealogy>  (1564) 
C=c1c(=Cc2c([O-])[n-]c(=O)[n-]c2=O)cc(C)n1-c1ccc(C(=O)[NH+]2CCCC2)cc1F (protonated)
C=c1c(=Cc2c([O-])[n-]c(=O)[n-]c2=O)cc(C)n1-c1ccc(C(=O)[NH+]2CCCC2)cc1F (3D coordinates assigned)
C=c1c(=Cc2c([O-])[n-]c(=O)[n-]c2=O)cc(C)n1-c1ccc(C(=O)[NH+]2CCCC2)cc1F (nonaromatic ring conformer: 110.89344572192928 kcal/mol)

>  <smiles>  (1564) 
C=c1c(=Cc2c(O)[nH]c(=O)[nH]c2=O)cc(C)n1-c1ccc(C(=O)N2CCCC2)cc1F

>  <score_type>  (1564) 
oracle

>  <origin>  (1564) 
adg

>  <m_score__min__energy>  (1564) 
-14.81

>  <m_primary>  (1564) 
energy

$$$$
79:0
     RDKit          3D

 24 26  0  0  0  0  0  0  0  0999 V2000
   59.7160   28.9920   48.1800 C   0  0  0  0  0  0  0  0  0  0  0  0
   59.0540   29.3920   49.2420 O   0  0  0  0  0  0  0  0  0  0  0  0
   58.7210   30.6470   49.1520 N   0  0  0  0  0  0  0  0  0  0  0  0
   59.1990   31.0850   47.9740 C   0  0  0  0  0  0  0  0  0  0  0  0
   59.0120   32.3030   47.5520 N   0  0  0  0  0  0  0  0  0  0  0  0
   58.0070   32.7590   46.6310 C   0  0  0  0  0  0  0  0  0  0  0  0
   57.1470   33.5810   47.0440 O   0  0  0  0  0  0  0  0  0  0  0  0
   58.0220   32.3890   45.1940 C   0  0  0  0  0  0  0  0  0  0  0  0
   58.4900   33.3270   44.2550 C   0  0  0  0  0  0  0  0  0  0  0  0
   58.4260   33.0580   42.8870 C   0  0  0  0  0  0  0  0  0  0  0  0
   57.8750   31.8590   42.4350 C   0  0  0  0  0  0  0  0  0  0  0  0
   57.4010   30.9190   43.3530 C   0  0  0  0  0  0  0  0  0  0  0  0
   57.4900   31.1580   44.7300 C   0  0  0  0  0  0  0  0  0  0  0  0
   57.0150   30.1420   45.6230 N   0  0  0  0  0  0  0  0  0  0  0  0
   56.3730   28.9270   45.2140 C   0  0  0  0  0  0  0  0  0  0  0  0
   55.2940   28.9850   44.5650 O   0  0  0  0  0  0  0  0  0  0  0  0
   56.9640   27.6130   45.5800 C   0  0  0  0  0  0  0  0  0  0  0  0
   58.3610   27.4370   45.5250 C   0  0  0  0  0  0  0  0  0  0  0  0
   58.9400   26.2110   45.8620 C   0  0  0  0  0  0  0  0  0  0  0  0
   58.1360   25.1420   46.2570 C   0  0  0  0  0  0  0  0  0  0  0  0
   56.7510   25.2960   46.3150 C   0  0  0  0  0  0  0  0  0  0  0  0
   56.1590   26.5180   45.9790 C   0  0  0  0  0  0  0  0  0  0  0  0
   54.7740   26.6280   46.0480 O   0  0  0  0  0  0  0  0  0  0  0  0
   59.8390   30.0530   47.3090 C   0  0  0  0  0  0  0  0  0  0  0  0
  1  2  1  0
  2  3  1  0
  3  4  1  0
  4  5  2  0
  5  6  1  0
  6  7  2  0
  6  8  1  0
  8  9  2  0
  9 10  1  0
 10 11  2  0
 11 12  1  0
 12 13  2  0
 13 14  1  0
 14 15  1  0
 15 16  2  0
 15 17  1  0
 17 18  2  0
 18 19  1  0
 19 20  2  0
 20 21  1  0
 21 22  2  0
 22 23  1  0
  4 24  1  0
 24  1  2  0
 13  8  1  0
 22 17  1  0
M  CHG  3   3  -1  14  -1  23  -1
M  END
>  <UniqueID>  (1565) 
76

>  <SMILES>  (1565) 
O=C([N-]c1ccccc1C(=O)/N=c1\cco[n-]1)c1ccccc1[O-]

>  <Energy>  (1565) 
86.27574466624178

>  <Genealogy>  (1565) 
O=C([N-]c1ccccc1C(=O)N=c1cco[n-]1)c1ccccc1[O-] (protonated)
O=C([N-]c1ccccc1C(=O)/N=c1\cco[n-]1)c1ccccc1[O-] (cis-trans isomerization)
O=C([N-]c1ccccc1C(=O)/N=c1\cco[n-]1)c1ccccc1[O-] (3D coordinates assigned)
O=C([N-]c1ccccc1C(=O)/N=c1\cco[n-]1)c1ccccc1[O-] (optimized conformer: 86.27574466624178 kcal/mol)

>  <smiles>  (1565) 
O=C(Nc1ccccc1C(=O)N=c1cco[nH]1)c1ccccc1O

>  <score_type>  (1565) 
oracle

>  <origin>  (1565) 
adg

>  <m_score__min__energy>  (1565) 
-14.51

>  <m_primary>  (1565) 
energy

$$$$
7:0
     RDKit          3D

 32 35  0  0  0  0  0  0  0  0999 V2000
   60.2880   30.0250   46.1300 C   0  0  0  0  0  0  0  0  0  0  0  0
   59.4570   31.0020   45.7340 C   0  0  0  0  0  0  0  0  0  0  0  0
   58.4030   30.8830   44.8190 C   0  0  0  0  0  0  0  0  0  0  0  0
   57.9810   29.7540   44.2130 C   0  0  0  0  0  0  0  0  0  0  0  0
   57.5650   28.5190   44.9080 C   0  0  0  0  0  0  0  0  0  0  0  0
   58.5680   27.3530   45.6080 S   0  0  0  0  0  0  0  0  0  0  0  0
   57.2770   26.4980   46.2570 C   0  0  0  0  0  0  0  0  0  0  0  0
   57.3910   25.4410   46.9310 O   0  0  0  0  0  0  0  0  0  0  0  0
   56.0870   27.0740   45.9890 N   0  0  0  0  0  0  0  0  0  0  0  0
   56.2490   28.2040   45.2500 C   0  0  0  0  0  0  0  0  0  0  0  0
   55.1640   28.9840   44.8690 O   0  0  0  0  0  0  0  0  0  0  0  0
   57.8470   32.1520   44.7030 C   0  0  0  0  0  0  0  0  0  0  0  0
   58.5740   32.9820   45.5320 C   0  0  0  0  0  0  0  0  0  0  0  0
   58.3050   34.4400   45.7370 C   0  0  0  0  0  0  0  0  0  0  0  0
   59.5460   32.2860   46.1600 N   0  0  0  0  0  0  0  0  0  0  0  0
   60.4910   32.8290   47.0990 C   0  0  0  0  0  0  0  0  0  0  0  0
   61.7490   33.2430   46.6350 C   0  0  0  0  0  0  0  0  0  0  0  0
   62.7050   33.7340   47.5250 C   0  0  0  0  0  0  0  0  0  0  0  0
   62.4140   33.8150   48.8880 C   0  0  0  0  0  0  0  0  0  0  0  0
   61.1650   33.4100   49.3640 C   0  0  0  0  0  0  0  0  0  0  0  0
   60.1890   32.9160   48.4800 C   0  0  0  0  0  0  0  0  0  0  0  0
   58.8590   32.5290   49.0070 C   0  0  0  0  0  0  0  0  0  0  0  0
   57.8300   32.7080   48.2990 O   0  0  0  0  0  0  0  0  0  0  0  0
   58.7300   31.9550   50.3160 N   0  0  0  0  0  0  0  0  0  0  0  0
   57.4190   31.6530   50.8890 C   0  0  0  0  0  0  0  0  0  0  0  0
   57.5540   31.1110   52.3150 C   0  0  0  0  0  0  0  0  0  0  0  0
   57.5390   32.2300   53.2860 N   0  0  0  0  0  0  0  0  0  0  0  0
   58.4510   32.0020   54.4270 C   0  0  0  0  0  0  0  0  0  0  0  0
   59.9350   32.2140   54.0410 C   0  0  0  0  0  0  0  0  0  0  0  0
   60.0880   32.6740   52.7110 O   0  0  0  0  0  0  0  0  0  0  0  0
   59.3150   33.8380   52.5200 C   0  0  0  0  0  0  0  0  0  0  0  0
   57.8060   33.5470   52.6640 C   0  0  0  0  0  0  0  0  0  0  0  0
  1  2  2  0
  2  3  1  0
  3  4  2  0
  4  5  1  0
  5  6  1  0
  6  7  1  0
  7  8  2  0
  7  9  1  0
  9 10  1  0
 10 11  1  0
  3 12  1  0
 12 13  2  0
 13 14  1  0
 13 15  1  0
 15 16  1  0
 16 17  2  0
 17 18  1  0
 18 19  2  0
 19 20  1  0
 20 21  2  0
 21 22  1  0
 22 23  2  0
 22 24  1  0
 24 25  1  0
 25 26  1  0
 26 27  1  0
 27 28  1  0
 28 29  1  0
 29 30  1  0
 30 31  1  0
 31 32  1  0
 15  2  1  0
 21 16  1  0
 32 27  1  0
 10  5  2  0
M  CHG  2   9  -1  11  -1
M  END
>  <UniqueID>  (1566) 
7

>  <SMILES>  (1566) 
C=c1/c(=C/c2sc(=O)[n-]c2[O-])cc(C)n1-c1ccccc1C(=O)NCCN1CCOCC1

>  <Energy>  (1566) 
143.46458142133096

>  <Genealogy>  (1566) 
C=c1c(=Cc2sc(=O)[n-]c2[O-])cc(C)n1-c1ccccc1C(=O)NCCN1CCOCC1 (protonated)
C=c1/c(=C/c2sc(=O)[n-]c2[O-])cc(C)n1-c1ccccc1C(=O)NCCN1CCOCC1 (cis-trans isomerization)
C=c1/c(=C/c2sc(=O)[n-]c2[O-])cc(C)n1-c1ccccc1C(=O)NCCN1CCOCC1 (3D coordinates assigned)
C=c1/c(=C/c2sc(=O)[n-]c2[O-])cc(C)n1-c1ccccc1C(=O)NCCN1CCOCC1 (nonaromatic ring conformer: 143.46458142133096 kcal/mol)

>  <smiles>  (1566) 
C=c1c(=Cc2sc(=O)[nH]c2O)cc(C)n1-c1ccccc1C(=O)NCCN1CCOCC1

>  <score_type>  (1566) 
oracle

>  <origin>  (1566) 
adg

>  <m_score__min__energy>  (1566) 
-14.720000000000001

>  <m_primary>  (1566) 
energy

$$$$
18:0
     RDKit          3D

 29 31  0  0  0  0  0  0  0  0999 V2000
   57.8920   32.4580   50.7740 O   0  0  0  0  0  0  0  0  0  0  0  0
   58.8050   32.0350   50.0140 C   0  0  0  0  0  0  0  0  0  0  0  0
   60.2000   31.8930   50.5330 C   0  0  0  0  0  0  0  0  0  0  0  0
   61.1940   32.2520   49.4630 C   0  0  0  0  0  0  0  0  0  0  0  0
   61.5850   31.2980   48.5090 C   0  0  0  0  0  0  0  0  0  0  0  0
   62.5320   31.6220   47.5350 C   0  0  0  0  0  0  0  0  0  0  0  0
   63.1030   32.8990   47.5070 C   0  0  0  0  0  0  0  0  0  0  0  0
   64.0440   33.2120   46.5280 O   0  0  0  0  0  0  0  0  0  0  0  0
   62.7220   33.8520   48.4610 C   0  0  0  0  0  0  0  0  0  0  0  0
   61.7780   33.5290   49.4390 C   0  0  0  0  0  0  0  0  0  0  0  0
   58.5220   31.7130   48.6500 N   0  0  0  0  0  0  0  0  0  0  0  0
   58.4030   32.9050   47.4000 S   0  0  0  0  0  0  0  0  0  0  0  0
   59.3680   34.0210   47.6810 O   0  0  0  0  0  0  0  0  0  0  0  0
   57.0060   33.4580   47.3340 O   0  0  0  0  0  0  0  0  0  0  0  0
   58.7930   32.1870   45.8970 O   0  0  0  0  0  0  0  0  0  0  0  0
   58.5240   30.8530   45.5600 C   0  0  0  0  0  0  0  0  0  0  0  0
   57.3870   30.5810   44.7880 C   0  0  0  0  0  0  0  0  0  0  0  0
   57.0660   29.2680   44.4340 C   0  0  0  0  0  0  0  0  0  0  0  0
   57.8810   28.2030   44.8480 C   0  0  0  0  0  0  0  0  0  0  0  0
   57.5610   26.7960   44.4310 C   0  0  0  0  0  0  0  0  0  0  0  0
   57.2550   25.9580   45.6330 C   0  0  0  0  0  0  0  0  0  0  0  0
   58.2980   24.8240   46.3140 S   0  0  0  0  0  0  0  0  0  0  0  0
   57.1610   24.3490   47.4610 C   0  0  0  0  0  0  0  0  0  0  0  0
   57.3620   23.4680   48.3350 O   0  0  0  0  0  0  0  0  0  0  0  0
   55.9940   25.0170   47.3460 N   0  0  0  0  0  0  0  0  0  0  0  0
   56.0440   25.9090   46.3220 C   0  0  0  0  0  0  0  0  0  0  0  0
   54.9530   26.7060   45.9970 O   0  0  0  0  0  0  0  0  0  0  0  0
   59.0300   28.4730   45.6040 C   0  0  0  0  0  0  0  0  0  0  0  0
   59.3480   29.7850   45.9650 C   0  0  0  0  0  0  0  0  0  0  0  0
  1  2  2  0
  2  3  1  0
  3  4  1  0
  4  5  2  0
  5  6  1  0
  6  7  2  0
  7  8  1  0
  7  9  1  0
  9 10  2  0
  2 11  1  0
 11 12  1  0
 12 13  2  0
 12 14  2  0
 12 15  1  0
 15 16  1  0
 16 17  2  0
 17 18  1  0
 18 19  2  0
 19 20  1  0
 20 21  1  0
 21 22  1  0
 22 23  1  0
 23 24  2  0
 23 25  1  0
 25 26  1  0
 26 27  1  0
 19 28  1  0
 28 29  2  0
 10  4  1  0
 29 16  1  0
 26 21  2  0
M  CHG  3  11  -1  25  -1  27  -1
M  END
>  <UniqueID>  (1567) 
17

>  <SMILES>  (1567) 
O=C(Cc1ccc(O)cc1)[N-]S(=O)(=O)Oc1ccc(Cc2sc(=O)[n-]c2[O-])cc1

>  <Energy>  (1567) 
72.04557001109322

>  <Genealogy>  (1567) 
O=C(Cc1ccc(O)cc1)[N-]S(=O)(=O)Oc1ccc(Cc2sc(=O)[n-]c2[O-])cc1 (protonated)
O=C(Cc1ccc(O)cc1)[N-]S(=O)(=O)Oc1ccc(Cc2sc(=O)[n-]c2[O-])cc1 (3D coordinates assigned)
O=C(Cc1ccc(O)cc1)[N-]S(=O)(=O)Oc1ccc(Cc2sc(=O)[n-]c2[O-])cc1 (optimized conformer: 72.04557001109322 kcal/mol)

>  <smiles>  (1567) 
O=C(Cc1ccc(O)cc1)NS(=O)(=O)Oc1ccc(Cc2sc(=O)[nH]c2O)cc1

>  <score_type>  (1567) 
oracle

>  <origin>  (1567) 
adg

>  <m_score__min__energy>  (1567) 
-16.120000000000001

>  <m_primary>  (1567) 
energy

$$$$
20:0
     RDKit          3D

 27 30  0  0  0  0  0  0  0  0999 V2000
   54.1240   28.9510   54.0190 C   0  0  0  0  0  0  0  0  0  0  0  0
   54.7460   29.6550   53.0600 C   0  0  0  0  0  0  0  0  0  0  0  0
   54.1460   30.4680   52.0860 C   0  0  0  0  0  0  0  0  0  0  0  0
   52.8600   30.5850   51.7010 C   0  0  0  0  0  0  0  0  0  0  0  0
   51.8730   31.5100   52.2820 C   0  0  0  0  0  0  0  0  0  0  0  0
   51.5080   31.5290   53.5780 N   0  0  0  0  0  0  0  0  0  0  0  0
   50.4990   32.4270   53.6040 C   0  0  0  0  0  0  0  0  0  0  0  0
   49.8960   32.7370   54.6640 O   0  0  0  0  0  0  0  0  0  0  0  0
   50.1820   32.9580   52.4050 N   0  0  0  0  0  0  0  0  0  0  0  0
   51.0510   32.3560   51.5780 C   0  0  0  0  0  0  0  0  0  0  0  0
   51.0900   32.5710   50.2060 O   0  0  0  0  0  0  0  0  0  0  0  0
   55.1700   31.1980   51.5050 C   0  0  0  0  0  0  0  0  0  0  0  0
   56.3470   30.7570   52.0740 C   0  0  0  0  0  0  0  0  0  0  0  0
   57.7090   31.2680   51.7100 C   0  0  0  0  0  0  0  0  0  0  0  0
   56.0930   29.8230   53.0170 N   0  0  0  0  0  0  0  0  0  0  0  0
   57.0770   29.1640   53.8380 C   0  0  0  0  0  0  0  0  0  0  0  0
   57.6560   29.8290   54.9240 C   0  0  0  0  0  0  0  0  0  0  0  0
   58.6070   29.1710   55.7030 C   0  0  0  0  0  0  0  0  0  0  0  0
   58.9700   27.8920   55.4100 N   0  0  0  0  0  0  0  0  0  0  0  0
   58.4290   27.2170   54.3530 C   0  0  0  0  0  0  0  0  0  0  0  0
   58.8310   25.8620   54.0780 N   0  0  0  0  0  0  0  0  0  0  0  0
   57.8220   24.8180   53.8660 C   0  0  0  0  0  0  0  0  0  0  0  0
   58.2790   23.8080   52.7850 C   0  0  0  0  0  0  0  0  0  0  0  0
   59.6280   23.9770   52.3800 O   0  0  0  0  0  0  0  0  0  0  0  0
   60.4640   24.1120   53.5100 C   0  0  0  0  0  0  0  0  0  0  0  0
   60.2500   25.4910   54.1370 C   0  0  0  0  0  0  0  0  0  0  0  0
   57.4660   27.8500   53.5520 C   0  0  0  0  0  0  0  0  0  0  0  0
  1  2  2  0
  2  3  1  0
  3  4  2  0
  4  5  1  0
  5  6  1  0
  6  7  1  0
  7  8  2  0
  7  9  1  0
  9 10  1  0
 10 11  1  0
  3 12  1  0
 12 13  2  0
 13 14  1  0
 13 15  1  0
 15 16  1  0
 16 17  2  0
 17 18  1  0
 18 19  2  0
 19 20  1  0
 20 21  1  0
 21 22  1  0
 22 23  1  0
 23 24  1  0
 24 25  1  0
 25 26  1  0
 20 27  2  0
 15  2  1  0
 27 16  1  0
 10  5  2  0
 26 21  1  0
M  CHG  4   6  -1   9  -1  11  -1  19   1
M  END
>  <UniqueID>  (1568) 
19

>  <SMILES>  (1568) 
C=c1/c(=C\c2[n-]c(=O)[n-]c2[O-])cc(C)n1-c1cc[nH+]c(N2CCOCC2)c1

>  <Energy>  (1568) 
133.9924808764556

>  <Genealogy>  (1568) 
C=c1c(=Cc2[n-]c(=O)[n-]c2[O-])cc(C)n1-c1cc[nH+]c(N2CCOCC2)c1 (protonated)
C=c1/c(=C\c2[n-]c(=O)[n-]c2[O-])cc(C)n1-c1cc[nH+]c(N2CCOCC2)c1 (cis-trans isomerization)
C=c1/c(=C\c2[n-]c(=O)[n-]c2[O-])cc(C)n1-c1cc[nH+]c(N2CCOCC2)c1 (3D coordinates assigned)
C=c1/c(=C\c2[n-]c(=O)[n-]c2[O-])cc(C)n1-c1cc[nH+]c(N2CCOCC2)c1 (nonaromatic ring conformer: 133.9924808764556 kcal/mol)

>  <smiles>  (1568) 
C=c1c(=Cc2[nH]c(=O)[nH]c2O)cc(C)n1-c1ccnc(N2CCOCC2)c1

>  <score_type>  (1568) 
oracle

>  <origin>  (1568) 
adg

>  <m_score__min__energy>  (1568) 
-14.529999999999999

>  <m_primary>  (1568) 
energy

$$$$
23:0
     RDKit          3D

 30 33  0  0  0  0  0  0  0  0999 V2000
   54.3520   28.2610   53.2670 C   0  0  0  0  0  0  0  0  0  0  0  0
   54.6870   29.4840   52.8280 C   0  0  0  0  0  0  0  0  0  0  0  0
   53.8170   30.4470   52.3050 C   0  0  0  0  0  0  0  0  0  0  0  0
   52.4820   30.3460   52.1570 C   0  0  0  0  0  0  0  0  0  0  0  0
   51.7520   30.7720   50.9500 C   0  0  0  0  0  0  0  0  0  0  0  0
   51.7150   30.0480   49.8170 N   0  0  0  0  0  0  0  0  0  0  0  0
   51.0250   30.8360   48.9640 C   0  0  0  0  0  0  0  0  0  0  0  0
   50.7670   30.4920   47.7810 O   0  0  0  0  0  0  0  0  0  0  0  0
   50.6430   32.0270   49.4740 N   0  0  0  0  0  0  0  0  0  0  0  0
   51.1220   31.9770   50.7280 C   0  0  0  0  0  0  0  0  0  0  0  0
   51.0240   33.0310   51.6280 O   0  0  0  0  0  0  0  0  0  0  0  0
   54.5970   31.5630   52.0230 C   0  0  0  0  0  0  0  0  0  0  0  0
   55.8960   31.2320   52.3590 C   0  0  0  0  0  0  0  0  0  0  0  0
   57.0700   32.1550   52.2450 C   0  0  0  0  0  0  0  0  0  0  0  0
   55.9490   29.9760   52.8500 N   0  0  0  0  0  0  0  0  0  0  0  0
   57.1390   29.2960   53.2850 C   0  0  0  0  0  0  0  0  0  0  0  0
   57.2810   28.9370   54.6320 C   0  0  0  0  0  0  0  0  0  0  0  0
   58.4300   28.2740   55.0650 C   0  0  0  0  0  0  0  0  0  0  0  0
   59.4450   27.9700   54.1570 C   0  0  0  0  0  0  0  0  0  0  0  0
   59.3170   28.3300   52.8130 C   0  0  0  0  0  0  0  0  0  0  0  0
   58.1600   28.9980   52.3630 C   0  0  0  0  0  0  0  0  0  0  0  0
   57.9890   29.3990   51.0270 O   0  0  0  0  0  0  0  0  0  0  0  0
   59.0280   29.8150   50.1390 C   0  0  0  0  0  0  0  0  0  0  0  0
   58.7120   31.1820   49.5220 C   0  0  0  0  0  0  0  0  0  0  0  0
   59.5490   31.4190   48.3230 N   0  0  0  0  0  0  0  0  0  0  0  0
   58.8420   31.0990   47.0600 C   0  0  0  0  0  0  0  0  0  0  0  0
   58.1470   32.3310   46.4450 C   0  0  0  0  0  0  0  0  0  0  0  0
   57.8160   33.2660   47.4470 O   0  0  0  0  0  0  0  0  0  0  0  0
   58.9950   33.8360   47.9920 C   0  0  0  0  0  0  0  0  0  0  0  0
   60.0950   32.7890   48.2880 C   0  0  0  0  0  0  0  0  0  0  0  0
  1  2  2  0
  2  3  1  0
  3  4  2  0
  4  5  1  0
  5  6  1  0
  6  7  1  0
  7  8  2  0
  7  9  1  0
  9 10  1  0
 10 11  1  0
  3 12  1  0
 12 13  2  0
 13 14  1  0
 13 15  1  0
 15 16  1  0
 16 17  2  0
 17 18  1  0
 18 19  2  0
 19 20  1  0
 20 21  2  0
 21 22  1  0
 22 23  1  0
 23 24  1  0
 24 25  1  0
 25 26  1  0
 26 27  1  0
 27 28  1  0
 28 29  1  0
 29 30  1  0
 15  2  1  0
 21 16  1  0
 30 25  1  0
 10  5  2  0
M  CHG  3   6  -1   9  -1  11  -1
M  END
>  <UniqueID>  (1569) 
22

>  <SMILES>  (1569) 
C=c1/c(=C/c2[n-]c(=O)[n-]c2[O-])cc(C)n1-c1ccccc1OCCN1CCOCC1

>  <Energy>  (1569) 
136.1609244748011

>  <Genealogy>  (1569) 
C=c1c(=Cc2[n-]c(=O)[n-]c2[O-])cc(C)n1-c1ccccc1OCCN1CCOCC1 (protonated)
C=c1/c(=C/c2[n-]c(=O)[n-]c2[O-])cc(C)n1-c1ccccc1OCCN1CCOCC1 (cis-trans isomerization)
C=c1/c(=C/c2[n-]c(=O)[n-]c2[O-])cc(C)n1-c1ccccc1OCCN1CCOCC1 (3D coordinates assigned)
C=c1/c(=C/c2[n-]c(=O)[n-]c2[O-])cc(C)n1-c1ccccc1OCCN1CCOCC1 (nonaromatic ring conformer: 136.1609244748011 kcal/mol)

>  <smiles>  (1569) 
C=c1c(=Cc2[nH]c(=O)[nH]c2O)cc(C)n1-c1ccccc1OCCN1CCOCC1

>  <score_type>  (1569) 
oracle

>  <origin>  (1569) 
adg

>  <m_score__min__energy>  (1569) 
-16.620000000000001

>  <m_primary>  (1569) 
energy

$$$$
25:0
     RDKit          3D

 36 40  0  0  0  0  0  0  0  0999 V2000
   59.1430   26.9510   47.5160 C   0  0  0  0  0  0  0  0  0  0  0  0
   58.5760   27.3210   46.3550 C   0  0  0  0  0  0  0  0  0  0  0  0
   57.7920   26.5160   45.5230 C   0  0  0  0  0  0  0  0  0  0  0  0
   57.5000   25.2110   45.6850 C   0  0  0  0  0  0  0  0  0  0  0  0
   56.1490   24.6440   45.4740 C   0  0  0  0  0  0  0  0  0  0  0  0
   55.0160   25.4600   45.6160 C   0  0  0  0  0  0  0  0  0  0  0  0
   55.1440   26.7920   45.9950 O   0  0  0  0  0  0  0  0  0  0  0  0
   53.7780   24.9490   45.3910 N   0  0  0  0  0  0  0  0  0  0  0  0
   53.6110   23.6560   45.0140 C   0  0  0  0  0  0  0  0  0  0  0  0
   52.4550   23.2040   44.8150 O   0  0  0  0  0  0  0  0  0  0  0  0
   54.6930   22.8520   44.8460 N   0  0  0  0  0  0  0  0  0  0  0  0
   55.9520   23.3160   45.0550 C   0  0  0  0  0  0  0  0  0  0  0  0
   56.9330   22.5500   44.8520 O   0  0  0  0  0  0  0  0  0  0  0  0
   57.3940   27.3210   44.4630 C   0  0  0  0  0  0  0  0  0  0  0  0
   57.9430   28.5690   44.6870 C   0  0  0  0  0  0  0  0  0  0  0  0
   57.7930   29.7430   43.7700 C   0  0  0  0  0  0  0  0  0  0  0  0
   58.6570   28.5720   45.8350 N   0  0  0  0  0  0  0  0  0  0  0  0
   59.3840   29.6930   46.3690 C   0  0  0  0  0  0  0  0  0  0  0  0
   60.7810   29.7380   46.2760 C   0  0  0  0  0  0  0  0  0  0  0  0
   61.4880   30.8260   46.7950 C   0  0  0  0  0  0  0  0  0  0  0  0
   60.8070   31.8810   47.4270 C   0  0  0  0  0  0  0  0  0  0  0  0
   61.5630   33.0410   47.9540 C   0  0  0  0  0  0  0  0  0  0  0  0
   61.4430   34.1600   47.3850 O   0  0  0  0  0  0  0  0  0  0  0  0
   62.4270   32.9260   49.1010 N   0  0  0  0  0  0  0  0  0  0  0  0
   62.6140   34.0940   49.9740 C   0  0  0  0  0  0  0  0  0  0  0  0
   63.3510   33.7050   51.2580 C   0  0  0  0  0  0  0  0  0  0  0  0
   64.7290   33.0340   50.9730 C   0  0  0  0  0  0  0  0  0  0  0  0
   65.8210   34.0420   50.8530 N   0  0  0  0  0  0  0  0  0  0  0  0
   66.0930   34.7580   52.1130 C   0  0  0  0  0  0  0  0  0  0  0  0
   67.5740   35.1200   52.1330 C   0  0  0  0  0  0  0  0  0  0  0  0
   68.1950   34.3660   50.9760 C   0  0  0  0  0  0  0  0  0  0  0  0
   67.1070   33.4280   50.4950 C   0  0  0  0  0  0  0  0  0  0  0  0
   64.6720   32.1430   49.6940 C   0  0  0  0  0  0  0  0  0  0  0  0
   63.2500   31.7260   49.3120 C   0  0  0  0  0  0  0  0  0  0  0  0
   59.4050   31.8370   47.5080 C   0  0  0  0  0  0  0  0  0  0  0  0
   58.7000   30.7480   46.9890 C   0  0  0  0  0  0  0  0  0  0  0  0
  1  2  2  0
  2  3  1  0
  3  4  2  3
  4  5  1  0
  5  6  2  0
  6  7  1  0
  6  8  1  0
  8  9  1  0
  9 10  2  0
  9 11  1  0
 11 12  1  0
 12 13  2  0
  3 14  1  0
 14 15  2  0
 15 16  1  0
 15 17  1  0
 17 18  1  0
 18 19  2  0
 19 20  1  0
 20 21  2  0
 21 22  1  0
 22 23  2  0
 22 24  1  0
 24 25  1  0
 25 26  1  0
 26 27  1  0
 27 28  1  0
 28 29  1  0
 29 30  1  0
 30 31  1  0
 31 32  1  0
 27 33  1  0
 33 34  1  0
 21 35  1  0
 35 36  2  0
 17  2  1  0
 36 18  1  0
 12  5  1  0
 34 24  1  0
 32 28  1  0
M  CHG  3   7  -1   8  -1  11  -1
M  END
>  <UniqueID>  (1570) 
23

>  <SMILES>  (1570) 
C=c1c(=Cc2c([O-])[n-]c(=O)[n-]c2=O)cc(C)n1-c1ccc(C(=O)N2CCC(N3CCCC3)CC2)cc1

>  <Energy>  (1570) 
125.94111649054871

>  <Genealogy>  (1570) 
C=c1c(=Cc2c([O-])[n-]c(=O)[n-]c2=O)cc(C)n1-c1ccc(C(=O)N2CCC(N3CCCC3)CC2)cc1 (protonated)
C=c1c(=Cc2c([O-])[n-]c(=O)[n-]c2=O)cc(C)n1-c1ccc(C(=O)N2CCC(N3CCCC3)CC2)cc1 (3D coordinates assigned)
C=c1c(=Cc2c([O-])[n-]c(=O)[n-]c2=O)cc(C)n1-c1ccc(C(=O)N2CCC(N3CCCC3)CC2)cc1 (nonaromatic ring conformer: 125.94111649054871 kcal/mol)

>  <smiles>  (1570) 
C=c1c(=Cc2c(O)[nH]c(=O)[nH]c2=O)cc(C)n1-c1ccc(C(=O)N2CCC(N3CCCC3)CC2)cc1

>  <score_type>  (1570) 
oracle

>  <origin>  (1570) 
adg

>  <m_score__min__energy>  (1570) 
-17.190000000000001

>  <m_primary>  (1570) 
energy

$$$$
27:0
     RDKit          3D

 30 33  0  0  0  0  0  0  0  0999 V2000
   56.2310   31.4880   52.6870 C   0  0  0  0  0  0  0  0  0  0  0  0
   55.4720   30.3940   52.8540 C   0  0  0  0  0  0  0  0  0  0  0  0
   54.0770   30.3280   52.7640 C   0  0  0  0  0  0  0  0  0  0  0  0
   53.2340   31.3230   52.4280 C   0  0  0  0  0  0  0  0  0  0  0  0
   52.3060   31.2670   51.2850 C   0  0  0  0  0  0  0  0  0  0  0  0
   52.3720   30.3260   50.3260 N   0  0  0  0  0  0  0  0  0  0  0  0
   51.4120   30.7000   49.4530 C   0  0  0  0  0  0  0  0  0  0  0  0
   51.1550   30.0470   48.4080 O   0  0  0  0  0  0  0  0  0  0  0  0
   50.7560   31.8330   49.7800 N   0  0  0  0  0  0  0  0  0  0  0  0
   51.3420   32.1880   50.9360 C   0  0  0  0  0  0  0  0  0  0  0  0
   51.0320   33.3520   51.6270 O   0  0  0  0  0  0  0  0  0  0  0  0
   53.7310   29.0110   53.0420 C   0  0  0  0  0  0  0  0  0  0  0  0
   54.9080   28.3350   53.2870 C   0  0  0  0  0  0  0  0  0  0  0  0
   55.0040   26.8800   53.6280 C   0  0  0  0  0  0  0  0  0  0  0  0
   55.9640   29.1720   53.1780 N   0  0  0  0  0  0  0  0  0  0  0  0
   57.3440   28.8090   53.3600 C   0  0  0  0  0  0  0  0  0  0  0  0
   57.7680   28.2660   54.5760 C   0  0  0  0  0  0  0  0  0  0  0  0
   59.1010   27.9080   54.7510 C   0  0  0  0  0  0  0  0  0  0  0  0
   60.0140   28.0990   53.7040 C   0  0  0  0  0  0  0  0  0  0  0  0
   61.3930   27.7120   53.8630 N   0  0  0  0  0  0  0  0  0  0  0  0
   62.0030   26.6840   53.0150 C   0  0  0  0  0  0  0  0  0  0  0  0
   63.2520   27.2440   52.3090 C   0  0  0  0  0  0  0  0  0  0  0  0
   63.9750   28.2790   53.0950 N   0  0  0  0  0  0  0  0  0  0  0  0
   63.7270   29.6350   52.5740 C   0  0  0  0  0  0  0  0  0  0  0  0
   63.7200   28.1940   54.5500 C   0  0  0  0  0  0  0  0  0  0  0  0
   62.2260   28.3630   54.8800 C   0  0  0  0  0  0  0  0  0  0  0  0
   59.5790   28.6160   52.5170 N   0  0  0  0  0  0  0  0  0  0  0  0
   58.2720   28.9720   52.3200 C   0  0  0  0  0  0  0  0  0  0  0  0
   57.8260   29.4930   51.0960 O   0  0  0  0  0  0  0  0  0  0  0  0
   58.6020   30.3390   50.2540 C   0  0  0  0  0  0  0  0  0  0  0  0
  1  2  2  0
  2  3  1  0
  3  4  2  0
  4  5  1  0
  5  6  1  0
  6  7  1  0
  7  8  2  0
  7  9  1  0
  9 10  1  0
 10 11  1  0
  3 12  1  0
 12 13  2  0
 13 14  1  0
 13 15  1  0
 15 16  1  0
 16 17  2  0
 17 18  1  0
 18 19  2  0
 19 20  1  0
 20 21  1  0
 21 22  1  0
 22 23  1  0
 23 24  1  0
 23 25  1  0
 25 26  1  0
 19 27  1  0
 27 28  2  0
 28 29  1  0
 29 30  1  0
 15  2  1  0
 28 16  1  0
 10  5  2  0
 26 20  1  0
M  CHG  4   6  -1   9  -1  11  -1  27   1
M  END
>  <UniqueID>  (1571) 
25

>  <SMILES>  (1571) 
C=c1/c(=C/c2[n-]c(=O)[n-]c2[O-])cc(C)n1-c1ccc(N2CCN(C)CC2)[nH+]c1OC

>  <Energy>  (1571) 
137.81564037349003

>  <Genealogy>  (1571) 
C=c1c(=Cc2[n-]c(=O)[n-]c2[O-])cc(C)n1-c1ccc(N2CCN(C)CC2)[nH+]c1OC (protonated)
C=c1/c(=C/c2[n-]c(=O)[n-]c2[O-])cc(C)n1-c1ccc(N2CCN(C)CC2)[nH+]c1OC (cis-trans isomerization)
C=c1/c(=C/c2[n-]c(=O)[n-]c2[O-])cc(C)n1-c1ccc(N2CCN(C)CC2)[nH+]c1OC (3D coordinates assigned)
C=c1/c(=C/c2[n-]c(=O)[n-]c2[O-])cc(C)n1-c1ccc(N2CCN(C)CC2)[nH+]c1OC (nonaromatic ring conformer: 137.81564037349003 kcal/mol)

>  <smiles>  (1571) 
C=c1c(=Cc2[nH]c(=O)[nH]c2O)cc(C)n1-c1ccc(N2CCN(C)CC2)nc1OC

>  <score_type>  (1571) 
oracle

>  <origin>  (1571) 
adg

>  <m_score__min__energy>  (1571) 
-14.73

>  <m_primary>  (1571) 
energy

$$$$
30:0
     RDKit          3D

 25 27  0  0  0  0  0  0  0  0999 V2000
   57.9100   32.4160   42.4670 C   0  0  0  0  0  0  0  0  0  0  0  0
   57.9940   32.3430   43.8030 C   0  0  0  0  0  0  0  0  0  0  0  0
   58.1200   33.5190   44.4630 N   0  0  0  0  0  0  0  0  0  0  0  0
   58.4040   33.5930   45.7820 C   0  0  0  0  0  0  0  0  0  0  0  0
   58.4890   34.7290   46.3210 O   0  0  0  0  0  0  0  0  0  0  0  0
   58.6270   32.4520   46.5040 N   0  0  0  0  0  0  0  0  0  0  0  0
   58.9680   32.5360   47.9400 C   0  0  0  0  0  0  0  0  0  0  0  0
   60.3920   32.9990   48.1200 C   0  0  0  0  0  0  0  0  0  0  0  0
   61.3920   32.5970   47.2170 C   0  0  0  0  0  0  0  0  0  0  0  0
   62.7170   33.0030   47.4050 C   0  0  0  0  0  0  0  0  0  0  0  0
   63.0540   33.8110   48.4940 C   0  0  0  0  0  0  0  0  0  0  0  0
   62.0670   34.2130   49.3970 C   0  0  0  0  0  0  0  0  0  0  0  0
   60.7420   33.8090   49.2130 C   0  0  0  0  0  0  0  0  0  0  0  0
   58.4770   31.2270   45.9030 C   0  0  0  0  0  0  0  0  0  0  0  0
   58.6670   30.1770   46.5820 O   0  0  0  0  0  0  0  0  0  0  0  0
   58.0770   31.1230   44.5420 C   0  0  0  0  0  0  0  0  0  0  0  0
   57.7690   29.8900   44.0460 C   0  0  0  0  0  0  0  0  0  0  0  0
   57.5620   28.6530   44.8290 C   0  0  0  0  0  0  0  0  0  0  0  0
   58.6830   27.9220   45.2540 C   0  0  0  0  0  0  0  0  0  0  0  0
   58.5220   26.7630   46.0170 C   0  0  0  0  0  0  0  0  0  0  0  0
   57.2440   26.3340   46.3790 C   0  0  0  0  0  0  0  0  0  0  0  0
   56.1210   27.0710   45.9920 C   0  0  0  0  0  0  0  0  0  0  0  0
   54.8530   26.6470   46.3710 O   0  0  0  0  0  0  0  0  0  0  0  0
   56.2740   28.2360   45.2280 C   0  0  0  0  0  0  0  0  0  0  0  0
   55.1500   28.9810   44.8820 O   0  0  0  0  0  0  0  0  0  0  0  0
  1  2  2  0
  2  3  1  0
  3  4  1  0
  4  5  2  0
  4  6  1  0
  6  7  1  0
  7  8  1  0
  8  9  2  0
  9 10  1  0
 10 11  2  0
 11 12  1  0
 12 13  2  0
  6 14  1  0
 14 15  2  0
 14 16  1  0
 16 17  2  3
 17 18  1  0
 18 19  2  0
 19 20  1  0
 20 21  2  0
 21 22  1  0
 22 23  1  0
 22 24  2  0
 24 25  1  0
 16  2  1  0
 24 18  1  0
 13  8  1  0
M  CHG  3   3  -1  23  -1  25  -1
M  END
>  <UniqueID>  (1572) 
28

>  <SMILES>  (1572) 
C=c1[n-]c(=O)n(Cc2ccccc2)c(=O)c1=Cc1cccc([O-])c1[O-]

>  <Energy>  (1572) 
68.82005883286013

>  <Genealogy>  (1572) 
C=c1[n-]c(=O)n(Cc2ccccc2)c(=O)c1=Cc1cccc([O-])c1[O-] (protonated)
C=c1[n-]c(=O)n(Cc2ccccc2)c(=O)c1=Cc1cccc([O-])c1[O-] (3D coordinates assigned)
C=c1[n-]c(=O)n(Cc2ccccc2)c(=O)c1=Cc1cccc([O-])c1[O-] (optimized conformer: 68.82005883286013 kcal/mol)

>  <smiles>  (1572) 
C=c1[nH]c(=O)n(Cc2ccccc2)c(=O)c1=Cc1cccc(O)c1O

>  <score_type>  (1572) 
oracle

>  <origin>  (1572) 
adg

>  <m_score__min__energy>  (1572) 
-17.07

>  <m_primary>  (1572) 
energy

$$$$
44:0
     RDKit          3D

 25 27  0  0  0  0  0  0  0  0999 V2000
   59.7930   28.0480   46.8990 C   0  0  0  0  0  0  0  0  0  0  0  0
   59.1960   29.3510   46.4610 C   0  0  0  0  0  0  0  0  0  0  0  0
   57.9590   29.5190   45.8640 C   0  0  0  0  0  0  0  0  0  0  0  0
   57.0760   28.4740   45.4290 N   0  0  0  0  0  0  0  0  0  0  0  0
   57.4130   27.2750   45.0480 C   0  0  0  0  0  0  0  0  0  0  0  0
   57.1100   26.0460   45.8180 C   0  0  0  0  0  0  0  0  0  0  0  0
   55.7980   25.7950   46.2490 C   0  0  0  0  0  0  0  0  0  0  0  0
   54.7780   26.6990   45.9770 O   0  0  0  0  0  0  0  0  0  0  0  0
   55.5200   24.6680   46.9530 N   0  0  0  0  0  0  0  0  0  0  0  0
   56.4880   23.7620   47.2380 C   0  0  0  0  0  0  0  0  0  0  0  0
   56.1230   22.4200   48.0920 S   0  0  0  0  0  0  0  0  0  0  0  0
   57.7580   23.9640   46.8040 N   0  0  0  0  0  0  0  0  0  0  0  0
   58.0880   25.0730   46.0940 C   0  0  0  0  0  0  0  0  0  0  0  0
   59.2700   25.2060   45.6750 O   0  0  0  0  0  0  0  0  0  0  0  0
   57.8490   30.8800   45.6520 C   0  0  0  0  0  0  0  0  0  0  0  0
   56.9200   31.4640   45.0330 O   0  0  0  0  0  0  0  0  0  0  0  0
   58.9390   31.4990   46.1460 N   0  0  0  0  0  0  0  0  0  0  0  0
   59.1910   32.9150   46.1050 C   0  0  0  0  0  0  0  0  0  0  0  0
   59.5650   33.5980   47.2750 C   0  0  0  0  0  0  0  0  0  0  0  0
   59.7980   34.9760   47.2420 C   0  0  0  0  0  0  0  0  0  0  0  0
   59.6500   35.6830   46.0440 C   0  0  0  0  0  0  0  0  0  0  0  0
   59.2670   35.0120   44.8790 C   0  0  0  0  0  0  0  0  0  0  0  0
   59.0340   33.6330   44.9090 C   0  0  0  0  0  0  0  0  0  0  0  0
   59.7500   30.5740   46.6580 N   0  0  0  0  0  0  0  0  0  0  0  0
   61.0340   30.8360   47.3130 C   0  0  0  0  0  0  0  0  0  0  0  0
  1  2  1  0
  2  3  2  0
  3  4  1  0
  4  5  2  3
  5  6  1  0
  6  7  2  0
  7  8  1  0
  7  9  1  0
  9 10  1  0
 10 11  2  0
 10 12  1  0
 12 13  1  0
 13 14  2  0
  3 15  1  0
 15 16  2  0
 15 17  1  0
 17 18  1  0
 18 19  2  0
 19 20  1  0
 20 21  2  0
 21 22  1  0
 22 23  2  0
 17 24  1  0
 24 25  1  0
 24  2  1  0
 13  6  1  0
 23 18  1  0
M  CHG  3   8  -1   9  -1  12  -1
M  END
>  <UniqueID>  (1573) 
41

>  <SMILES>  (1573) 
Cc1c(N=Cc2c([O-])[n-]c(=S)[n-]c2=O)c(=O)n(-c2ccccc2)n1C

>  <Energy>  (1573) 
93.74192093910995

>  <Genealogy>  (1573) 
Cc1c(N=Cc2c([O-])[n-]c(=S)[n-]c2=O)c(=O)n(-c2ccccc2)n1C (protonated)
Cc1c(N=Cc2c([O-])[n-]c(=S)[n-]c2=O)c(=O)n(-c2ccccc2)n1C (3D coordinates assigned)
Cc1c(N=Cc2c([O-])[n-]c(=S)[n-]c2=O)c(=O)n(-c2ccccc2)n1C (optimized conformer: 93.74192093910995 kcal/mol)

>  <smiles>  (1573) 
Cc1c(N=Cc2c(O)[nH]c(=S)[nH]c2=O)c(=O)n(-c2ccccc2)n1C

>  <score_type>  (1573) 
oracle

>  <origin>  (1573) 
adg

>  <m_score__min__energy>  (1573) 
-15.15

>  <m_primary>  (1573) 
energy

$$$$
52:0
     RDKit          3D

 26 29  0  0  0  0  0  0  0  0999 V2000
   58.6110   28.5690   46.9340 C   0  0  0  0  0  0  0  0  0  0  0  0
   58.2450   28.9560   45.7020 C   0  0  0  0  0  0  0  0  0  0  0  0
   57.7080   28.1460   44.6870 C   0  0  0  0  0  0  0  0  0  0  0  0
   57.5630   26.8080   44.6010 C   0  0  0  0  0  0  0  0  0  0  0  0
   57.1530   25.9180   45.6980 C   0  0  0  0  0  0  0  0  0  0  0  0
   57.8800   24.8950   46.1800 N   0  0  0  0  0  0  0  0  0  0  0  0
   57.0590   24.2760   47.0510 C   0  0  0  0  0  0  0  0  0  0  0  0
   57.4000   23.2610   47.7130 O   0  0  0  0  0  0  0  0  0  0  0  0
   55.8300   24.8300   47.1390 N   0  0  0  0  0  0  0  0  0  0  0  0
   55.9020   25.8550   46.2690 C   0  0  0  0  0  0  0  0  0  0  0  0
   54.8420   26.7100   45.9940 O   0  0  0  0  0  0  0  0  0  0  0  0
   57.3260   29.0020   43.6690 C   0  0  0  0  0  0  0  0  0  0  0  0
   57.6840   30.2750   44.0580 C   0  0  0  0  0  0  0  0  0  0  0  0
   57.4450   31.5050   43.2360 C   0  0  0  0  0  0  0  0  0  0  0  0
   58.2560   30.2510   45.2850 N   0  0  0  0  0  0  0  0  0  0  0  0
   58.6870   31.4040   46.0340 C   0  0  0  0  0  0  0  0  0  0  0  0
   57.8870   32.4690   46.4070 C   0  0  0  0  0  0  0  0  0  0  0  0
   58.7140   33.3280   47.1020 C   0  0  0  0  0  0  0  0  0  0  0  0
   59.9590   32.7260   47.1000 C   0  0  0  0  0  0  0  0  0  0  0  0
   61.1450   33.2600   47.7040 N   0  0  0  0  0  0  0  0  0  0  0  0
   62.4880   33.1140   47.1700 C   0  0  0  0  0  0  0  0  0  0  0  0
   63.4210   33.8580   48.1450 C   0  0  0  0  0  0  0  0  0  0  0  0
   62.5590   34.3730   49.3080 C   0  0  0  0  0  0  0  0  0  0  0  0
   61.1910   33.9750   48.9240 C   0  0  0  0  0  0  0  0  0  0  0  0
   60.1690   34.2330   49.6130 O   0  0  0  0  0  0  0  0  0  0  0  0
   59.9170   31.5810   46.4590 O   0  0  0  0  0  0  0  0  0  0  0  0
  1  2  2  0
  2  3  1  0
  3  4  2  3
  4  5  1  0
  5  6  1  0
  6  7  1  0
  7  8  2  0
  7  9  1  0
  9 10  1  0
 10 11  1  0
  3 12  1  0
 12 13  2  0
 13 14  1  0
 13 15  1  0
 15 16  1  0
 16 17  2  0
 17 18  1  0
 18 19  2  0
 19 20  1  0
 20 21  1  0
 21 22  1  0
 22 23  1  0
 23 24  1  0
 24 25  2  0
 19 26  1  0
 15  2  1  0
 26 16  1  0
 10  5  2  0
 24 20  1  0
M  CHG  2   9  -1  11  -1
M  END
>  <UniqueID>  (1574) 
49

>  <SMILES>  (1574) 
C=c1c(=Cc2[nH]c(=O)[n-]c2[O-])cc(C)n1-c1ccc(N2CCCC2=O)o1

>  <Energy>  (1574) 
153.2489353796624

>  <Genealogy>  (1574) 
C=c1c(=Cc2[nH]c(=O)[n-]c2[O-])cc(C)n1-c1ccc(N2CCCC2=O)o1 (protonated)
C=c1c(=Cc2[nH]c(=O)[n-]c2[O-])cc(C)n1-c1ccc(N2CCCC2=O)o1 (3D coordinates assigned)
C=c1c(=Cc2[nH]c(=O)[n-]c2[O-])cc(C)n1-c1ccc(N2CCCC2=O)o1 (nonaromatic ring conformer: 153.2489353796624 kcal/mol)

>  <smiles>  (1574) 
C=c1c(=Cc2[nH]c(=O)[nH]c2O)cc(C)n1-c1ccc(N2CCCC2=O)o1

>  <score_type>  (1574) 
oracle

>  <origin>  (1574) 
adg

>  <m_score__min__energy>  (1574) 
-14.01

>  <m_primary>  (1574) 
energy

$$$$
74:0
     RDKit          3D

 32 35  0  0  0  0  0  0  0  0999 V2000
   57.5220   31.8460   43.0570 O   0  0  0  0  0  0  0  0  0  0  0  0
   57.0460   31.8330   44.2220 C   0  0  0  0  0  0  0  0  0  0  0  0
   57.0200   33.1280   44.9940 C   0  0  0  0  0  0  0  0  0  0  0  0
   58.2750   33.3580   45.7380 N   0  0  0  0  0  0  0  0  0  0  0  0
   58.9870   34.5520   45.2260 C   0  0  0  0  0  0  0  0  0  0  0  0
   59.7310   35.3380   46.3240 C   0  0  0  0  0  0  0  0  0  0  0  0
   60.3430   34.4520   47.3390 N   0  0  0  0  0  0  0  0  0  0  0  0
   61.6210   33.8570   46.8940 C   0  0  0  0  0  0  0  0  0  0  0  0
   62.5220   33.5620   48.0710 C   0  0  0  0  0  0  0  0  0  0  0  0
   62.3450   34.2630   49.2720 C   0  0  0  0  0  0  0  0  0  0  0  0
   63.1940   34.0310   50.3590 C   0  0  0  0  0  0  0  0  0  0  0  0
   64.2300   33.0990   50.2530 C   0  0  0  0  0  0  0  0  0  0  0  0
   64.4080   32.3870   49.0650 C   0  0  0  0  0  0  0  0  0  0  0  0
   63.5620   32.6160   47.9720 C   0  0  0  0  0  0  0  0  0  0  0  0
   63.7620   31.9160   46.8290 F   0  0  0  0  0  0  0  0  0  0  0  0
   59.4110   33.4370   47.8930 C   0  0  0  0  0  0  0  0  0  0  0  0
   58.0520   33.4160   47.1920 C   0  0  0  0  0  0  0  0  0  0  0  0
   56.5270   30.5960   44.7380 N   0  0  0  0  0  0  0  0  0  0  0  0
   57.1330   29.2970   44.6760 C   0  0  0  0  0  0  0  0  0  0  0  0
   57.4230   28.7520   43.4210 C   0  0  0  0  0  0  0  0  0  0  0  0
   57.9720   27.4740   43.3170 C   0  0  0  0  0  0  0  0  0  0  0  0
   58.2380   26.7290   44.4670 C   0  0  0  0  0  0  0  0  0  0  0  0
   57.9710   27.2710   45.7340 C   0  0  0  0  0  0  0  0  0  0  0  0
   58.2640   26.4740   46.9730 C   0  0  0  0  0  0  0  0  0  0  0  0
   57.3560   25.2870   47.0620 C   0  0  0  0  0  0  0  0  0  0  0  0
   57.6900   24.1230   47.6470 N   0  0  0  0  0  0  0  0  0  0  0  0
   56.5700   23.3810   47.5210 C   0  0  0  0  0  0  0  0  0  0  0  0
   56.4880   22.1990   47.9500 O   0  0  0  0  0  0  0  0  0  0  0  0
   55.5410   24.0040   46.9030 N   0  0  0  0  0  0  0  0  0  0  0  0
   56.0580   25.2120   46.6240 C   0  0  0  0  0  0  0  0  0  0  0  0
   55.3570   26.2280   45.9810 O   0  0  0  0  0  0  0  0  0  0  0  0
   57.4570   28.5730   45.8350 C   0  0  0  0  0  0  0  0  0  0  0  0
  1  2  2  0
  2  3  1  0
  3  4  1  0
  4  5  1  0
  5  6  1  0
  6  7  1  0
  7  8  1  0
  8  9  1  0
  9 10  2  0
 10 11  1  0
 11 12  2  0
 12 13  1  0
 13 14  2  0
 14 15  1  0
  7 16  1  0
 16 17  1  0
  2 18  1  0
 18 19  1  0
 19 20  2  0
 20 21  1  0
 21 22  2  0
 22 23  1  0
 23 24  1  0
 24 25  1  0
 25 26  1  0
 26 27  1  0
 27 28  2  0
 27 29  1  0
 29 30  1  0
 30 31  1  0
 23 32  2  0
 17  4  1  0
 32 19  1  0
 14  9  1  0
 30 25  2  0
M  CHG  3  18  -1  26  -1  29  -1
M  END
>  <UniqueID>  (1575) 
70

>  <SMILES>  (1575) 
O=C(CN1CCN(Cc2ccccc2F)CC1)[N-]c1cccc(Cc2[n-]c(=O)[n-]c2O)c1

>  <Energy>  (1575) 
100.84216584830133

>  <Genealogy>  (1575) 
O=C(CN1CCN(Cc2ccccc2F)CC1)[N-]c1cccc(Cc2[n-]c(=O)[n-]c2O)c1 (protonated)
O=C(CN1CCN(Cc2ccccc2F)CC1)[N-]c1cccc(Cc2[n-]c(=O)[n-]c2O)c1 (3D coordinates assigned)
O=C(CN1CCN(Cc2ccccc2F)CC1)[N-]c1cccc(Cc2[n-]c(=O)[n-]c2O)c1 (nonaromatic ring conformer: 100.84216584830133 kcal/mol)

>  <smiles>  (1575) 
O=C(CN1CCN(Cc2ccccc2F)CC1)Nc1cccc(Cc2[nH]c(=O)[nH]c2O)c1

>  <score_type>  (1575) 
oracle

>  <origin>  (1575) 
adg

>  <m_score__min__energy>  (1575) 
-15.82

>  <m_primary>  (1575) 
energy

$$$$
17:0
     RDKit          3D

 28 30  0  0  0  0  0  0  0  0999 V2000
   58.3410   34.5870   45.4260 C   0  0  0  0  0  0  0  0  0  0  0  0
   59.4570   34.8370   46.2260 C   0  0  0  0  0  0  0  0  0  0  0  0
   60.2170   33.7800   46.7320 C   0  0  0  0  0  0  0  0  0  0  0  0
   61.3590   34.0860   47.5450 N   0  0  0  0  0  0  0  0  0  0  0  0
   62.9130   33.3300   47.4130 S   0  0  0  0  0  0  0  0  0  0  0  0
   62.7460   31.8620   47.1340 O   0  0  0  0  0  0  0  0  0  0  0  0
   63.7040   33.9750   46.3100 O   0  0  0  0  0  0  0  0  0  0  0  0
   63.7860   33.5330   48.9480 C   0  0  0  0  0  0  0  0  0  0  0  0
   59.8450   32.4570   46.4330 C   0  0  0  0  0  0  0  0  0  0  0  0
   58.7140   32.1900   45.6370 C   0  0  0  0  0  0  0  0  0  0  0  0
   58.3420   30.7860   45.3270 C   0  0  0  0  0  0  0  0  0  0  0  0
   58.9820   29.7660   45.9630 N   0  0  0  0  0  0  0  0  0  0  0  0
   58.6850   28.4880   45.7260 N   0  0  0  0  0  0  0  0  0  0  0  0
   57.7250   28.1250   44.8360 C   0  0  0  0  0  0  0  0  0  0  0  0
   57.4910   26.8550   44.6550 N   0  0  0  0  0  0  0  0  0  0  0  0
   58.1320   25.7280   45.3360 C   0  0  0  0  0  0  0  0  0  0  0  0
   57.2980   25.2770   46.5390 C   0  0  0  0  0  0  0  0  0  0  0  0
   56.0400   24.5820   46.0810 C   0  0  0  0  0  0  0  0  0  0  0  0
   56.0250   23.1830   45.9510 C   0  0  0  0  0  0  0  0  0  0  0  0
   54.8570   22.5230   45.5560 C   0  0  0  0  0  0  0  0  0  0  0  0
   53.6930   23.2520   45.2990 C   0  0  0  0  0  0  0  0  0  0  0  0
   52.5330   22.5940   44.9070 O   0  0  0  0  0  0  0  0  0  0  0  0
   53.6950   24.6430   45.4390 C   0  0  0  0  0  0  0  0  0  0  0  0
   54.8600   25.3100   45.8340 C   0  0  0  0  0  0  0  0  0  0  0  0
   54.8340   26.6930   45.9800 O   0  0  0  0  0  0  0  0  0  0  0  0
   57.0210   29.1360   44.1580 C   0  0  0  0  0  0  0  0  0  0  0  0
   57.3320   30.4700   44.4070 C   0  0  0  0  0  0  0  0  0  0  0  0
   57.9710   33.2730   45.1300 C   0  0  0  0  0  0  0  0  0  0  0  0
  1  2  2  0
  2  3  1  0
  3  4  1  0
  4  5  1  0
  5  6  2  0
  5  7  2  0
  5  8  1  0
  3  9  2  0
  9 10  1  0
 10 11  1  0
 11 12  2  0
 12 13  1  0
 13 14  1  0
 14 15  2  0
 15 16  1  0
 16 17  1  0
 17 18  1  0
 18 19  2  0
 19 20  1  0
 20 21  2  0
 21 22  1  0
 21 23  1  0
 23 24  2  0
 24 25  1  0
 14 26  1  0
 26 27  2  0
 10 28  2  0
 28  1  1  0
 27 11  1  0
 24 18  1  0
M  CHG  4   4  -1  13  -1  22  -1  25  -1
M  END
>  <UniqueID>  (1576) 
16

>  <SMILES>  (1576) 
CS(=O)(=O)[N-]c1cccc(-c2cc/c(=N\CCc3ccc([O-])cc3[O-])[n-]n2)c1

>  <Energy>  (1576) 
50.871822717270916

>  <Genealogy>  (1576) 
CS(=O)(=O)[N-]c1cccc(-c2ccc(=NCCc3ccc([O-])cc3[O-])[n-]n2)c1 (protonated)
CS(=O)(=O)[N-]c1cccc(-c2cc/c(=N\CCc3ccc([O-])cc3[O-])[n-]n2)c1 (cis-trans isomerization)
CS(=O)(=O)[N-]c1cccc(-c2cc/c(=N\CCc3ccc([O-])cc3[O-])[n-]n2)c1 (3D coordinates assigned)
CS(=O)(=O)[N-]c1cccc(-c2cc/c(=N\CCc3ccc([O-])cc3[O-])[n-]n2)c1 (optimized conformer: 50.871822717270916 kcal/mol)

>  <smiles>  (1576) 
CS(=O)(=O)Nc1cccc(-c2ccc(=NCCc3ccc(O)cc3O)[nH]n2)c1

>  <score_type>  (1576) 
oracle

>  <origin>  (1576) 
adg

>  <m_score__min__energy>  (1576) 
-17.16

>  <m_primary>  (1576) 
energy

$$$$
27:0
     RDKit          3D

 29 31  0  0  0  0  0  0  0  0999 V2000
   59.6050   27.2060   47.2450 O   0  0  0  0  0  0  0  0  0  0  0  0
   58.4490   27.5840   46.9080 C   0  0  0  0  0  0  0  0  0  0  0  0
   57.3130   26.7220   47.1010 N   0  0  0  0  0  0  0  0  0  0  0  0
   56.9720   25.6970   46.3730 C   0  0  0  0  0  0  0  0  0  0  0  0
   57.8350   24.6630   46.1570 N   0  0  0  0  0  0  0  0  0  0  0  0
   57.4940   23.5840   45.4020 C   0  0  0  0  0  0  0  0  0  0  0  0
   56.2270   23.5100   44.8210 C   0  0  0  0  0  0  0  0  0  0  0  0
   55.3220   24.5520   45.0240 C   0  0  0  0  0  0  0  0  0  0  0  0
   55.6900   25.6520   45.8020 C   0  0  0  0  0  0  0  0  0  0  0  0
   54.7860   26.6900   46.0050 O   0  0  0  0  0  0  0  0  0  0  0  0
   58.2620   28.9270   46.3100 C   0  0  0  0  0  0  0  0  0  0  0  0
   58.5800   30.0870   47.0410 C   0  0  0  0  0  0  0  0  0  0  0  0
   58.4270   31.3510   46.4650 C   0  0  0  0  0  0  0  0  0  0  0  0
   57.9580   31.4780   45.1530 C   0  0  0  0  0  0  0  0  0  0  0  0
   57.8730   33.0720   44.4060 S   0  0  0  0  0  0  0  0  0  0  0  0
   57.4830   32.9600   42.9590 O   0  0  0  0  0  0  0  0  0  0  0  0
   56.8330   33.8820   45.1270 O   0  0  0  0  0  0  0  0  0  0  0  0
   59.4060   33.8800   44.5220 N   0  0  0  0  0  0  0  0  0  0  0  0
   59.8440   34.6680   45.6360 C   0  0  0  0  0  0  0  0  0  0  0  0
   59.6580   35.9130   45.6090 O   0  0  0  0  0  0  0  0  0  0  0  0
   60.4860   34.0680   46.8210 C   0  0  0  0  0  0  0  0  0  0  0  0
   61.7760   33.5240   46.7180 C   0  0  0  0  0  0  0  0  0  0  0  0
   62.4070   32.9920   47.8450 C   0  0  0  0  0  0  0  0  0  0  0  0
   61.7480   32.9790   49.0770 C   0  0  0  0  0  0  0  0  0  0  0  0
   60.4520   33.4940   49.1820 C   0  0  0  0  0  0  0  0  0  0  0  0
   59.6230   33.4790   50.7280 Cl  0  0  0  0  0  0  0  0  0  0  0  0
   59.8180   34.0290   48.0540 C   0  0  0  0  0  0  0  0  0  0  0  0
   57.6210   30.3290   44.4260 C   0  0  0  0  0  0  0  0  0  0  0  0
   57.7750   29.0630   44.9980 C   0  0  0  0  0  0  0  0  0  0  0  0
  1  2  2  0
  2  3  1  0
  3  4  2  3
  4  5  1  0
  5  6  1  0
  6  7  2  0
  7  8  1  0
  8  9  2  0
  9 10  1  0
  2 11  1  0
 11 12  2  0
 12 13  1  0
 13 14  2  0
 14 15  1  0
 15 16  2  0
 15 17  2  0
 15 18  1  0
 18 19  1  0
 19 20  2  0
 19 21  1  0
 21 22  2  0
 22 23  1  0
 23 24  2  0
 24 25  1  0
 25 26  1  0
 25 27  2  0
 14 28  1  0
 28 29  2  0
  9  4  1  0
 29 11  1  0
 27 21  1  0
M  CHG  3   5  -1  10  -1  18  -1
M  END
>  <UniqueID>  (1577) 
26

>  <SMILES>  (1577) 
O=C(N=c1[n-]cccc1[O-])c1ccc(S(=O)(=O)[N-]C(=O)c2cccc(Cl)c2)cc1

>  <Energy>  (1577) 
52.450431800575224

>  <Genealogy>  (1577) 
O=C(N=c1[n-]cccc1[O-])c1ccc(S(=O)(=O)[N-]C(=O)c2cccc(Cl)c2)cc1 (protonated)
O=C(N=c1[n-]cccc1[O-])c1ccc(S(=O)(=O)[N-]C(=O)c2cccc(Cl)c2)cc1 (3D coordinates assigned)
O=C(N=c1[n-]cccc1[O-])c1ccc(S(=O)(=O)[N-]C(=O)c2cccc(Cl)c2)cc1 (optimized conformer: 52.450431800575224 kcal/mol)

>  <smiles>  (1577) 
O=C(N=c1[nH]cccc1O)c1ccc(S(=O)(=O)NC(=O)c2cccc(Cl)c2)cc1

>  <score_type>  (1577) 
oracle

>  <origin>  (1577) 
adg

>  <m_score__min__energy>  (1577) 
-15.57

>  <m_primary>  (1577) 
energy

$$$$
28:0
     RDKit          3D

 29 31  0  0  0  0  0  0  0  0999 V2000
   59.2500   28.9220   48.2330 C   0  0  0  0  0  0  0  0  0  0  0  0
   58.8060   29.8580   47.3800 C   0  0  0  0  0  0  0  0  0  0  0  0
   58.3890   29.6550   46.0620 C   0  0  0  0  0  0  0  0  0  0  0  0
   58.3630   28.4910   45.3820 C   0  0  0  0  0  0  0  0  0  0  0  0
   57.5040   27.3450   45.7570 C   0  0  0  0  0  0  0  0  0  0  0  0
   56.1110   27.4430   45.6390 C   0  0  0  0  0  0  0  0  0  0  0  0
   55.5190   28.6240   45.2020 O   0  0  0  0  0  0  0  0  0  0  0  0
   55.3240   26.3840   45.9600 N   0  0  0  0  0  0  0  0  0  0  0  0
   55.8660   25.2130   46.3850 C   0  0  0  0  0  0  0  0  0  0  0  0
   55.1180   24.2460   46.6830 O   0  0  0  0  0  0  0  0  0  0  0  0
   57.2130   25.0830   46.4840 N   0  0  0  0  0  0  0  0  0  0  0  0
   58.0420   26.1130   46.1730 C   0  0  0  0  0  0  0  0  0  0  0  0
   59.2890   25.9420   46.2420 O   0  0  0  0  0  0  0  0  0  0  0  0
   58.0480   30.9050   45.5610 C   0  0  0  0  0  0  0  0  0  0  0  0
   58.2510   31.8080   46.5850 C   0  0  0  0  0  0  0  0  0  0  0  0
   58.0400   33.2870   46.4760 C   0  0  0  0  0  0  0  0  0  0  0  0
   58.7100   31.1760   47.6870 N   0  0  0  0  0  0  0  0  0  0  0  0
   59.0570   31.8080   48.9330 C   0  0  0  0  0  0  0  0  0  0  0  0
   58.1380   31.7710   49.9900 C   0  0  0  0  0  0  0  0  0  0  0  0
   58.4220   32.4090   51.1980 C   0  0  0  0  0  0  0  0  0  0  0  0
   59.6320   33.0910   51.3630 C   0  0  0  0  0  0  0  0  0  0  0  0
   59.9250   33.7440   52.6120 C   0  0  0  0  0  0  0  0  0  0  0  0
   60.1600   34.2690   53.6150 N   0  0  0  0  0  0  0  0  0  0  0  0
   60.5590   33.1290   50.3170 C   0  0  0  0  0  0  0  0  0  0  0  0
   60.2880   32.4900   49.0930 C   0  0  0  0  0  0  0  0  0  0  0  0
   61.3040   32.5150   48.0140 C   0  0  0  0  0  0  0  0  0  0  0  0
   61.6560   31.4360   47.4630 O   0  0  0  0  0  0  0  0  0  0  0  0
   61.8920   33.7530   47.5920 N   0  0  0  0  0  0  0  0  0  0  0  0
   62.9430   33.7960   46.5830 C   0  0  0  0  0  0  0  0  0  0  0  0
  1  2  2  0
  2  3  1  0
  3  4  2  0
  4  5  1  0
  5  6  2  0
  6  7  1  0
  6  8  1  0
  8  9  1  0
  9 10  2  0
  9 11  1  0
 11 12  1  0
 12 13  2  0
  3 14  1  0
 14 15  2  0
 15 16  1  0
 15 17  1  0
 17 18  1  0
 18 19  2  0
 19 20  1  0
 20 21  2  0
 21 22  1  0
 22 23  3  0
 21 24  1  0
 24 25  2  0
 25 26  1  0
 26 27  2  0
 26 28  1  0
 28 29  1  0
 17  2  1  0
 25 18  1  0
 12  5  1  0
M  CHG  3   7  -1   8  -1  11  -1
M  END
>  <UniqueID>  (1578) 
27

>  <SMILES>  (1578) 
C=c1/c(=C/c2c([O-])[n-]c(=O)[n-]c2=O)cc(C)n1-c1ccc(C#N)cc1C(=O)NC

>  <Energy>  (1578) 
90.29989445369672

>  <Genealogy>  (1578) 
C=c1c(=Cc2c([O-])[n-]c(=O)[n-]c2=O)cc(C)n1-c1ccc(C#N)cc1C(=O)NC (protonated)
C=c1/c(=C/c2c([O-])[n-]c(=O)[n-]c2=O)cc(C)n1-c1ccc(C#N)cc1C(=O)NC (cis-trans isomerization)
C=c1/c(=C/c2c([O-])[n-]c(=O)[n-]c2=O)cc(C)n1-c1ccc(C#N)cc1C(=O)NC (3D coordinates assigned)
C=c1/c(=C/c2c([O-])[n-]c(=O)[n-]c2=O)cc(C)n1-c1ccc(C#N)cc1C(=O)NC (optimized conformer: 90.29989445369672 kcal/mol)

>  <smiles>  (1578) 
C=c1c(=Cc2c(O)[nH]c(=O)[nH]c2=O)cc(C)n1-c1ccc(C#N)cc1C(=O)NC

>  <score_type>  (1578) 
oracle

>  <origin>  (1578) 
adg

>  <m_score__min__energy>  (1578) 
-15.279999999999999

>  <m_primary>  (1578) 
energy

$$$$
33:0
     RDKit          3D

 34 37  0  0  0  0  0  0  0  0999 V2000
   57.0650   34.1860   45.1420 C   0  0  0  0  0  0  0  0  0  0  0  0
   57.8030   33.6880   46.3130 N   0  0  0  0  0  0  0  0  0  0  0  0
   58.3370   32.3290   46.0500 C   0  0  0  0  0  0  0  0  0  0  0  0
   59.5200   32.0110   46.9710 C   0  0  0  0  0  0  0  0  0  0  0  0
   60.6470   32.9370   46.7180 N   0  0  0  0  0  0  0  0  0  0  0  0
   61.6790   32.9240   47.7820 C   0  0  0  0  0  0  0  0  0  0  0  0
   61.1140   32.7720   49.1810 C   0  0  0  0  0  0  0  0  0  0  0  0
   60.4270   33.8340   49.7940 C   0  0  0  0  0  0  0  0  0  0  0  0
   59.8490   33.6680   51.0550 C   0  0  0  0  0  0  0  0  0  0  0  0
   59.9610   32.4430   51.7260 C   0  0  0  0  0  0  0  0  0  0  0  0
   59.3020   32.2490   53.0320 C   0  0  0  0  0  0  0  0  0  0  0  0
   60.0050   32.5930   54.1990 C   0  0  0  0  0  0  0  0  0  0  0  0
   59.4080   32.4560   55.4530 C   0  0  0  0  0  0  0  0  0  0  0  0
   58.1030   31.9780   55.5550 C   0  0  0  0  0  0  0  0  0  0  0  0
   57.3950   31.6210   54.4060 C   0  0  0  0  0  0  0  0  0  0  0  0
   57.9860   31.7370   53.1360 C   0  0  0  0  0  0  0  0  0  0  0  0
   57.0760   31.1990   51.7120 S   0  0  0  0  0  0  0  0  0  0  0  0
   57.3620   29.7510   51.4150 O   0  0  0  0  0  0  0  0  0  0  0  0
   57.4660   32.0360   50.5240 O   0  0  0  0  0  0  0  0  0  0  0  0
   55.3750   31.3800   51.9840 N   0  0  0  0  0  0  0  0  0  0  0  0
   54.4440   30.3230   51.7400 C   0  0  0  0  0  0  0  0  0  0  0  0
   54.5860   29.2030   52.3010 O   0  0  0  0  0  0  0  0  0  0  0  0
   53.2550   30.5770   50.8740 C   0  0  0  0  0  0  0  0  0  0  0  0
   52.2650   31.4150   51.6190 C   0  0  0  0  0  0  0  0  0  0  0  0
   52.0050   31.2880   52.9320 N   0  0  0  0  0  0  0  0  0  0  0  0
   50.9990   32.1650   53.1360 C   0  0  0  0  0  0  0  0  0  0  0  0
   50.4750   32.3430   54.2660 O   0  0  0  0  0  0  0  0  0  0  0  0
   50.5930   32.8300   52.0330 N   0  0  0  0  0  0  0  0  0  0  0  0
   51.3990   32.3370   51.0800 C   0  0  0  0  0  0  0  0  0  0  0  0
   51.3430   32.7110   49.7420 O   0  0  0  0  0  0  0  0  0  0  0  0
   60.7050   31.4040   51.1520 C   0  0  0  0  0  0  0  0  0  0  0  0
   61.2800   31.5690   49.8880 C   0  0  0  0  0  0  0  0  0  0  0  0
   60.2420   34.2890   46.2650 C   0  0  0  0  0  0  0  0  0  0  0  0
   58.8330   34.6620   46.7570 C   0  0  0  0  0  0  0  0  0  0  0  0
  1  2  1  0
  2  3  1  0
  3  4  1  0
  4  5  1  0
  5  6  1  0
  6  7  1  0
  7  8  2  0
  8  9  1  0
  9 10  2  0
 10 11  1  0
 11 12  2  0
 12 13  1  0
 13 14  2  0
 14 15  1  0
 15 16  2  0
 16 17  1  0
 17 18  2  0
 17 19  2  0
 17 20  1  0
 20 21  1  0
 21 22  2  0
 21 23  1  0
 23 24  1  0
 24 25  1  0
 25 26  1  0
 26 27  2  0
 26 28  1  0
 28 29  1  0
 29 30  1  0
 10 31  1  0
 31 32  2  0
  5 33  1  0
 33 34  1  0
 34  2  1  0
 32  7  1  0
 16 11  1  0
 29 24  2  0
M  CHG  3  20  -1  25  -1  28  -1
M  END
>  <UniqueID>  (1579) 
32

>  <SMILES>  (1579) 
CN1CCN(Cc2ccc(-c3ccccc3S(=O)(=O)[N-]C(=O)Cc3[n-]c(=O)[n-]c3O)cc2)CC1

>  <Energy>  (1579) 
110.34557840058311

>  <Genealogy>  (1579) 
CN1CCN(Cc2ccc(-c3ccccc3S(=O)(=O)[N-]C(=O)Cc3[n-]c(=O)[n-]c3O)cc2)CC1 (protonated)
CN1CCN(Cc2ccc(-c3ccccc3S(=O)(=O)[N-]C(=O)Cc3[n-]c(=O)[n-]c3O)cc2)CC1 (3D coordinates assigned)
CN1CCN(Cc2ccc(-c3ccccc3S(=O)(=O)[N-]C(=O)Cc3[n-]c(=O)[n-]c3O)cc2)CC1 (nonaromatic ring conformer: 110.34557840058311 kcal/mol)

>  <smiles>  (1579) 
CN1CCN(Cc2ccc(-c3ccccc3S(=O)(=O)NC(=O)Cc3[nH]c(=O)[nH]c3O)cc2)CC1

>  <score_type>  (1579) 
oracle

>  <origin>  (1579) 
adg

>  <m_score__min__energy>  (1579) 
-15.359999999999999

>  <m_primary>  (1579) 
energy

$$$$
42:0
     RDKit          3D

 37 41  0  0  0  0  0  0  0  0999 V2000
   57.5210   24.1880   47.1450 O   0  0  0  0  0  0  0  0  0  0  0  0
   56.4210   24.8540   46.6150 C   0  0  0  0  0  0  0  0  0  0  0  0
   55.2830   24.2450   46.2420 N   0  0  0  0  0  0  0  0  0  0  0  0
   54.5480   25.2690   45.7600 C   0  0  0  0  0  0  0  0  0  0  0  0
   53.3920   25.1090   45.2840 O   0  0  0  0  0  0  0  0  0  0  0  0
   55.1550   26.4750   45.8030 N   0  0  0  0  0  0  0  0  0  0  0  0
   56.3390   26.2050   46.3840 C   0  0  0  0  0  0  0  0  0  0  0  0
   57.4370   27.1710   46.5340 C   0  0  0  0  0  0  0  0  0  0  0  0
   57.5100   28.3810   45.9470 C   0  0  0  0  0  0  0  0  0  0  0  0
   57.0230   28.6220   44.6730 C   0  0  0  0  0  0  0  0  0  0  0  0
   57.1930   29.9670   44.4230 C   0  0  0  0  0  0  0  0  0  0  0  0
   56.8500   30.6420   43.1300 C   0  0  0  0  0  0  0  0  0  0  0  0
   57.7960   30.5670   45.4730 N   0  0  0  0  0  0  0  0  0  0  0  0
   58.2310   31.9380   45.5030 C   0  0  0  0  0  0  0  0  0  0  0  0
   57.5310   32.9160   44.7830 C   0  0  0  0  0  0  0  0  0  0  0  0
   57.9810   34.2400   44.7720 C   0  0  0  0  0  0  0  0  0  0  0  0
   59.1260   34.5970   45.4910 C   0  0  0  0  0  0  0  0  0  0  0  0
   59.8190   33.6320   46.2380 C   0  0  0  0  0  0  0  0  0  0  0  0
   61.0260   33.9840   47.0080 C   0  0  0  0  0  0  0  0  0  0  0  0
   62.0970   34.1790   46.3720 O   0  0  0  0  0  0  0  0  0  0  0  0
   61.0220   34.0380   48.4570 N   0  0  0  0  0  0  0  0  0  0  0  0
   59.7600   34.0770   49.2130 C   0  0  0  0  0  0  0  0  0  0  0  0
   60.0060   33.8450   50.7040 C   0  0  0  0  0  0  0  0  0  0  0  0
   60.9500   32.7230   50.8500 N   0  0  0  0  0  0  0  0  0  0  0  0
   61.0080   32.2370   52.2410 C   0  0  0  0  0  0  0  0  0  0  0  0
   59.6530   31.7410   52.7000 C   0  0  0  0  0  0  0  0  0  0  0  0
   59.0820   32.3020   53.8560 C   0  0  0  0  0  0  0  0  0  0  0  0
   57.8330   31.8780   54.3110 C   0  0  0  0  0  0  0  0  0  0  0  0
   57.1340   30.8910   53.6160 C   0  0  0  0  0  0  0  0  0  0  0  0
   57.6820   30.3240   52.4640 C   0  0  0  0  0  0  0  0  0  0  0  0
   58.9450   30.7290   51.9990 C   0  0  0  0  0  0  0  0  0  0  0  0
   59.4850   30.1120   50.7360 C   0  0  0  0  0  0  0  0  0  0  0  0
   62.3040   33.0850   50.3640 C   0  0  0  0  0  0  0  0  0  0  0  0
   62.2910   34.0970   49.1980 C   0  0  0  0  0  0  0  0  0  0  0  0
   59.3810   32.3000   46.2200 C   0  0  0  0  0  0  0  0  0  0  0  0
   58.0260   29.6070   46.4060 C   0  0  0  0  0  0  0  0  0  0  0  0
   58.7440   29.8180   47.5190 C   0  0  0  0  0  0  0  0  0  0  0  0
  1  2  1  0
  2  3  1  0
  3  4  1  0
  4  5  2  0
  4  6  1  0
  6  7  1  0
  7  8  1  0
  8  9  2  0
  9 10  1  0
 10 11  2  0
 11 12  1  0
 11 13  1  0
 13 14  1  0
 14 15  2  0
 15 16  1  0
 16 17  2  0
 17 18  1  0
 18 19  1  0
 19 20  2  0
 19 21  1  0
 21 22  1  0
 22 23  1  0
 23 24  1  0
 24 25  1  0
 25 26  1  0
 26 27  2  0
 27 28  1  0
 28 29  2  0
 29 30  1  0
 30 31  2  0
 31 32  1  0
 24 33  1  0
 33 34  1  0
 18 35  2  0
 13 36  1  0
 36 37  2  0
  7  2  2  0
 36  9  1  0
 35 14  1  0
 34 21  1  0
 31 26  1  0
M  CHG  2   3  -1   6  -1
M  END
>  <UniqueID>  (1580) 
40

>  <SMILES>  (1580) 
C=c1/c(=C\c2[n-]c(=O)[n-]c2O)cc(C)n1-c1cccc(C(=O)N2CCN(Cc3ccccc3C)CC2)c1

>  <Energy>  (1580) 
158.5021306087496

>  <Genealogy>  (1580) 
C=c1c(=Cc2[n-]c(=O)[n-]c2O)cc(C)n1-c1cccc(C(=O)N2CCN(Cc3ccccc3C)CC2)c1 (protonated)
C=c1/c(=C\c2[n-]c(=O)[n-]c2O)cc(C)n1-c1cccc(C(=O)N2CCN(Cc3ccccc3C)CC2)c1 (cis-trans isomerization)
C=c1/c(=C\c2[n-]c(=O)[n-]c2O)cc(C)n1-c1cccc(C(=O)N2CCN(Cc3ccccc3C)CC2)c1 (3D coordinates assigned)
C=c1/c(=C\c2[n-]c(=O)[n-]c2O)cc(C)n1-c1cccc(C(=O)N2CCN(Cc3ccccc3C)CC2)c1 (nonaromatic ring conformer: 158.5021306087496 kcal/mol)

>  <smiles>  (1580) 
C=c1c(=Cc2[nH]c(=O)[nH]c2O)cc(C)n1-c1cccc(C(=O)N2CCN(Cc3ccccc3C)CC2)c1

>  <score_type>  (1580) 
oracle

>  <origin>  (1580) 
adg

>  <m_score__min__energy>  (1580) 
-14.58

>  <m_primary>  (1580) 
energy

$$$$
46:0
     RDKit          3D

 25 27  0  0  0  0  0  0  0  0999 V2000
   59.7880   29.1830   47.6680 C   0  0  0  0  0  0  0  0  0  0  0  0
   59.2110   29.9450   46.7250 C   0  0  0  0  0  0  0  0  0  0  0  0
   58.5010   29.5100   45.5920 C   0  0  0  0  0  0  0  0  0  0  0  0
   58.3630   28.2820   45.0490 C   0  0  0  0  0  0  0  0  0  0  0  0
   57.5210   27.1970   45.5920 C   0  0  0  0  0  0  0  0  0  0  0  0
   56.1260   27.3360   45.6280 C   0  0  0  0  0  0  0  0  0  0  0  0
   55.5200   28.5130   45.2030 O   0  0  0  0  0  0  0  0  0  0  0  0
   55.3550   26.3170   46.0900 N   0  0  0  0  0  0  0  0  0  0  0  0
   55.9110   25.1510   46.5070 C   0  0  0  0  0  0  0  0  0  0  0  0
   55.1760   24.2240   46.9350 O   0  0  0  0  0  0  0  0  0  0  0  0
   57.2560   24.9810   46.4560 N   0  0  0  0  0  0  0  0  0  0  0  0
   58.0710   25.9690   46.0010 C   0  0  0  0  0  0  0  0  0  0  0  0
   59.3140   25.7680   45.9450 O   0  0  0  0  0  0  0  0  0  0  0  0
   57.9250   30.6690   45.0840 C   0  0  0  0  0  0  0  0  0  0  0  0
   57.0460   30.7850   43.8760 C   0  0  0  0  0  0  0  0  0  0  0  0
   58.3100   31.7200   45.8270 N   0  0  0  0  0  0  0  0  0  0  0  0
   59.1080   31.3000   46.7990 N   0  0  0  0  0  0  0  0  0  0  0  0
   59.6550   32.1870   47.8390 C   0  0  0  0  0  0  0  0  0  0  0  0
   61.0760   32.5890   47.5260 C   0  0  0  0  0  0  0  0  0  0  0  0
   62.1390   31.7830   47.9720 C   0  0  0  0  0  0  0  0  0  0  0  0
   63.4620   32.1490   47.7110 C   0  0  0  0  0  0  0  0  0  0  0  0
   63.7390   33.3230   47.0100 C   0  0  0  0  0  0  0  0  0  0  0  0
   62.6930   34.1360   46.5670 C   0  0  0  0  0  0  0  0  0  0  0  0
   61.3630   33.7800   46.8220 C   0  0  0  0  0  0  0  0  0  0  0  0
   59.9770   34.9530   46.1990 Br  0  0  0  0  0  0  0  0  0  0  0  0
  1  2  2  0
  2  3  1  0
  3  4  2  0
  4  5  1  0
  5  6  2  0
  6  7  1  0
  6  8  1  0
  8  9  1  0
  9 10  2  0
  9 11  1  0
 11 12  1  0
 12 13  2  0
  3 14  1  0
 14 15  1  0
 14 16  2  0
 16 17  1  0
 17 18  1  0
 18 19  1  0
 19 20  2  0
 20 21  1  0
 21 22  2  0
 22 23  1  0
 23 24  2  0
 24 25  1  0
 17  2  1  0
 24 19  1  0
 12  5  1  0
M  CHG  4   7  -1   8  -1  11  -1  16   1
M  END
>  <UniqueID>  (1581) 
43

>  <SMILES>  (1581) 
C=c1/c(=C\c2c([O-])[n-]c(=O)[n-]c2=O)c(C)[nH+]n1Cc1ccccc1Br

>  <Energy>  (1581) 
89.06373873417557

>  <Genealogy>  (1581) 
C=c1c(=Cc2c([O-])[n-]c(=O)[n-]c2=O)c(C)[nH+]n1Cc1ccccc1Br (protonated)
C=c1/c(=C\c2c([O-])[n-]c(=O)[n-]c2=O)c(C)[nH+]n1Cc1ccccc1Br (cis-trans isomerization)
C=c1/c(=C\c2c([O-])[n-]c(=O)[n-]c2=O)c(C)[nH+]n1Cc1ccccc1Br (3D coordinates assigned)
C=c1/c(=C\c2c([O-])[n-]c(=O)[n-]c2=O)c(C)[nH+]n1Cc1ccccc1Br (optimized conformer: 89.06373873417557 kcal/mol)

>  <smiles>  (1581) 
C=c1c(=Cc2c(O)[nH]c(=O)[nH]c2=O)c(C)nn1Cc1ccccc1Br

>  <score_type>  (1581) 
oracle

>  <origin>  (1581) 
adg

>  <m_score__min__energy>  (1581) 
-14.76

>  <m_primary>  (1581) 
energy

$$$$
60:0
     RDKit          3D

 24 26  0  0  0  0  0  0  0  0999 V2000
   57.9380   25.1380   47.3170 O   0  0  0  0  0  0  0  0  0  0  0  0
   57.3780   25.2620   46.1940 C   0  0  0  0  0  0  0  0  0  0  0  0
   58.0310   25.9990   45.1500 N   0  0  0  0  0  0  0  0  0  0  0  0
   58.6480   27.2890   45.2690 C   0  0  0  0  0  0  0  0  0  0  0  0
   59.9930   27.4400   45.6490 C   0  0  0  0  0  0  0  0  0  0  0  0
   60.5500   28.7160   45.7670 C   0  0  0  0  0  0  0  0  0  0  0  0
   59.7690   29.8490   45.5310 C   0  0  0  0  0  0  0  0  0  0  0  0
   58.4120   29.7140   45.1960 C   0  0  0  0  0  0  0  0  0  0  0  0
   57.5800   30.9060   44.9360 C   0  0  0  0  0  0  0  0  0  0  0  0
   56.4130   30.7470   44.4850 O   0  0  0  0  0  0  0  0  0  0  0  0
   58.0650   32.2370   45.1950 N   0  0  0  0  0  0  0  0  0  0  0  0
   57.4310   33.4220   44.6420 C   0  0  0  0  0  0  0  0  0  0  0  0
   57.9670   34.5970   45.4500 C   0  0  0  0  0  0  0  0  0  0  0  0
   59.1870   34.0710   46.2010 C   0  0  0  0  0  0  0  0  0  0  0  0
   59.0450   32.5550   46.2220 C   0  0  0  0  0  0  0  0  0  0  0  0
   57.8630   28.4300   45.0570 C   0  0  0  0  0  0  0  0  0  0  0  0
   56.0730   24.6010   45.9290 C   0  0  0  0  0  0  0  0  0  0  0  0
   56.0140   23.2070   45.7520 C   0  0  0  0  0  0  0  0  0  0  0  0
   54.7960   22.5760   45.5010 C   0  0  0  0  0  0  0  0  0  0  0  0
   53.6320   23.3400   45.4250 C   0  0  0  0  0  0  0  0  0  0  0  0
   52.5250   22.7880   45.1990 O   0  0  0  0  0  0  0  0  0  0  0  0
   53.6940   24.6870   45.5930 N   0  0  0  0  0  0  0  0  0  0  0  0
   54.8660   25.3320   45.8400 C   0  0  0  0  0  0  0  0  0  0  0  0
   54.8460   26.7130   45.9990 O   0  0  0  0  0  0  0  0  0  0  0  0
  1  2  2  0
  2  3  1  0
  3  4  1  0
  4  5  2  0
  5  6  1  0
  6  7  2  0
  7  8  1  0
  8  9  1  0
  9 10  2  0
  9 11  1  0
 11 12  1  0
 12 13  1  0
 13 14  1  0
 14 15  1  0
  8 16  2  0
  2 17  1  0
 17 18  1  0
 18 19  2  0
 19 20  1  0
 20 21  2  0
 20 22  1  0
 22 23  1  0
 23 24  1  0
 16  4  1  0
 23 17  2  0
 15 11  1  0
M  CHG  3   3  -1  22  -1  24  -1
M  END
>  <UniqueID>  (1582) 
55

>  <SMILES>  (1582) 
O=C([N-]c1cccc(C(=O)N2CCCC2)c1)c1ccc(=O)[n-]c1[O-]

>  <Energy>  (1582) 
51.079620290060284

>  <Genealogy>  (1582) 
O=C([N-]c1cccc(C(=O)N2CCCC2)c1)c1ccc(=O)[n-]c1[O-] (protonated)
O=C([N-]c1cccc(C(=O)N2CCCC2)c1)c1ccc(=O)[n-]c1[O-] (3D coordinates assigned)
O=C([N-]c1cccc(C(=O)N2CCCC2)c1)c1ccc(=O)[n-]c1[O-] (nonaromatic ring conformer: 51.079620290060284 kcal/mol)

>  <smiles>  (1582) 
O=C(Nc1cccc(C(=O)N2CCCC2)c1)c1ccc(=O)[nH]c1O

>  <score_type>  (1582) 
oracle

>  <origin>  (1582) 
adg

>  <m_score__min__energy>  (1582) 
-15.859999999999999

>  <m_primary>  (1582) 
energy

$$$$
68:0
     RDKit          3D

 34 37  0  0  0  0  0  0  0  0999 V2000
   56.3080   29.4250   44.6940 C   0  0  0  0  0  0  0  0  0  0  0  0
   57.5770   29.1450   45.0360 C   0  0  0  0  0  0  0  0  0  0  0  0
   58.1590   27.8750   45.1740 C   0  0  0  0  0  0  0  0  0  0  0  0
   57.7070   26.6540   44.8260 C   0  0  0  0  0  0  0  0  0  0  0  0
   57.2510   25.6120   45.7690 C   0  0  0  0  0  0  0  0  0  0  0  0
   55.9720   25.6840   46.3380 C   0  0  0  0  0  0  0  0  0  0  0  0
   55.0990   26.7090   45.9900 O   0  0  0  0  0  0  0  0  0  0  0  0
   55.5750   24.7420   47.2330 N   0  0  0  0  0  0  0  0  0  0  0  0
   56.4020   23.7310   47.6010 C   0  0  0  0  0  0  0  0  0  0  0  0
   56.0090   22.8670   48.4270 O   0  0  0  0  0  0  0  0  0  0  0  0
   57.6560   23.6540   47.0850 N   0  0  0  0  0  0  0  0  0  0  0  0
   58.1020   24.5720   46.1890 C   0  0  0  0  0  0  0  0  0  0  0  0
   59.2790   24.4860   45.7500 O   0  0  0  0  0  0  0  0  0  0  0  0
   59.4080   28.0800   45.7390 C   0  0  0  0  0  0  0  0  0  0  0  0
   59.5740   29.4440   45.8570 C   0  0  0  0  0  0  0  0  0  0  0  0
   60.8190   30.1110   46.3580 C   0  0  0  0  0  0  0  0  0  0  0  0
   58.4660   30.0920   45.4330 N   0  0  0  0  0  0  0  0  0  0  0  0
   58.3000   31.5210   45.3740 C   0  0  0  0  0  0  0  0  0  0  0  0
   57.9400   32.1440   44.1730 C   0  0  0  0  0  0  0  0  0  0  0  0
   57.7690   33.5260   44.1290 C   0  0  0  0  0  0  0  0  0  0  0  0
   57.9560   34.2750   45.2920 C   0  0  0  0  0  0  0  0  0  0  0  0
   58.3040   33.6620   46.4560 N   0  0  0  0  0  0  0  0  0  0  0  0
   58.4770   32.3070   46.5250 C   0  0  0  0  0  0  0  0  0  0  0  0
   58.8260   31.6680   47.7220 O   0  0  0  0  0  0  0  0  0  0  0  0
   59.4860   32.2930   48.8170 C   0  0  0  0  0  0  0  0  0  0  0  0
   60.9320   32.5190   48.4490 C   0  0  0  0  0  0  0  0  0  0  0  0
   61.2240   33.4320   47.4190 C   0  0  0  0  0  0  0  0  0  0  0  0
   62.5380   33.6510   47.0100 C   0  0  0  0  0  0  0  0  0  0  0  0
   63.5820   32.9580   47.6160 C   0  0  0  0  0  0  0  0  0  0  0  0
   63.3170   32.0420   48.6330 C   0  0  0  0  0  0  0  0  0  0  0  0
   61.9970   31.8060   49.0740 C   0  0  0  0  0  0  0  0  0  0  0  0
   61.7570   30.7610   50.1630 C   0  0  0  0  0  0  0  0  0  0  0  0
   61.0950   29.5090   49.5770 C   0  0  0  0  0  0  0  0  0  0  0  0
   63.0550   30.4060   50.8990 C   0  0  0  0  0  0  0  0  0  0  0  0
  1  2  2  0
  2  3  1  0
  3  4  2  3
  4  5  1  0
  5  6  2  0
  6  7  1  0
  6  8  1  0
  8  9  1  0
  9 10  2  0
  9 11  1  0
 11 12  1  0
 12 13  2  0
  3 14  1  0
 14 15  2  0
 15 16  1  0
 15 17  1  0
 17 18  1  0
 18 19  2  0
 19 20  1  0
 20 21  2  0
 21 22  1  0
 22 23  2  0
 23 24  1  0
 24 25  1  0
 25 26  1  0
 26 27  2  0
 27 28  1  0
 28 29  2  0
 29 30  1  0
 30 31  2  0
 31 32  1  0
 32 33  1  0
 32 34  1  0
 17  2  1  0
 23 18  1  0
 31 26  1  0
 12  5  1  0
M  CHG  4   7  -1   8  -1  11  -1  22   1
M  END
>  <UniqueID>  (1583) 
62

>  <SMILES>  (1583) 
C=c1c(=Cc2c([O-])[n-]c(=O)[n-]c2=O)cc(C)n1-c1ccc[nH+]c1OCc1ccccc1C(C)C

>  <Energy>  (1583) 
104.2826242702725

>  <Genealogy>  (1583) 
C=c1c(=Cc2c([O-])[n-]c(=O)[n-]c2=O)cc(C)n1-c1ccc[nH+]c1OCc1ccccc1C(C)C (protonated)
C=c1c(=Cc2c([O-])[n-]c(=O)[n-]c2=O)cc(C)n1-c1ccc[nH+]c1OCc1ccccc1C(C)C (3D coordinates assigned)
C=c1c(=Cc2c([O-])[n-]c(=O)[n-]c2=O)cc(C)n1-c1ccc[nH+]c1OCc1ccccc1C(C)C (optimized conformer: 104.2826242702725 kcal/mol)

>  <smiles>  (1583) 
C=c1c(=Cc2c(O)[nH]c(=O)[nH]c2=O)cc(C)n1-c1cccnc1OCc1ccccc1C(C)C

>  <score_type>  (1583) 
oracle

>  <origin>  (1583) 
adg

>  <m_score__min__energy>  (1583) 
-15.41

>  <m_primary>  (1583) 
energy

$$$$
77:0
     RDKit          3D

 30 32  0  0  0  0  0  0  0  0999 V2000
   65.7290   32.7110   49.7920 C   0  0  0  0  0  0  0  0  0  0  0  0
   64.3790   33.1860   49.3400 C   0  0  0  0  0  0  0  0  0  0  0  0
   63.9150   32.8870   48.0560 C   0  0  0  0  0  0  0  0  0  0  0  0
   62.6430   33.3000   47.6530 C   0  0  0  0  0  0  0  0  0  0  0  0
   61.8290   34.0190   48.5550 C   0  0  0  0  0  0  0  0  0  0  0  0
   60.6280   34.4330   48.2570 N   0  0  0  0  0  0  0  0  0  0  0  0
   59.3850   33.7100   48.2870 C   0  0  0  0  0  0  0  0  0  0  0  0
   58.8920   33.3310   49.3840 O   0  0  0  0  0  0  0  0  0  0  0  0
   58.7240   33.3260   47.0160 C   0  0  0  0  0  0  0  0  0  0  0  0
   58.1990   34.3080   46.1580 C   0  0  0  0  0  0  0  0  0  0  0  0
   57.5750   33.9450   44.9640 C   0  0  0  0  0  0  0  0  0  0  0  0
   57.4670   32.6010   44.6060 C   0  0  0  0  0  0  0  0  0  0  0  0
   57.9890   31.5970   45.4420 C   0  0  0  0  0  0  0  0  0  0  0  0
   57.8790   30.1590   45.0810 C   0  0  0  0  0  0  0  0  0  0  0  0
   56.7570   29.5880   45.1670 O   0  0  0  0  0  0  0  0  0  0  0  0
   59.0620   29.3840   44.5570 C   0  0  0  0  0  0  0  0  0  0  0  0
   60.0950   29.1710   45.6220 C   0  0  0  0  0  0  0  0  0  0  0  0
   60.8530   30.1230   45.9480 O   0  0  0  0  0  0  0  0  0  0  0  0
   60.1680   27.8950   46.2760 N   0  0  0  0  0  0  0  0  0  0  0  0
   59.3320   26.8990   46.2040 C   0  0  0  0  0  0  0  0  0  0  0  0
   57.9790   26.9980   46.2340 N   0  0  0  0  0  0  0  0  0  0  0  0
   57.3780   25.7770   46.1670 C   0  0  0  0  0  0  0  0  0  0  0  0
   55.9130   25.6140   46.1850 C   0  0  0  0  0  0  0  0  0  0  0  0
   55.4030   24.4780   46.3750 O   0  0  0  0  0  0  0  0  0  0  0  0
   55.0840   26.7120   45.9950 O   0  0  0  0  0  0  0  0  0  0  0  0
   58.2550   24.6960   46.0900 C   0  0  0  0  0  0  0  0  0  0  0  0
   59.8260   25.2990   46.1110 S   0  0  0  0  0  0  0  0  0  0  0  0
   58.6090   31.9710   46.6490 C   0  0  0  0  0  0  0  0  0  0  0  0
   62.2970   34.2620   49.8100 N   0  0  0  0  0  0  0  0  0  0  0  0
   63.5300   33.8670   50.2200 C   0  0  0  0  0  0  0  0  0  0  0  0
  1  2  1  0
  2  3  1  0
  3  4  2  0
  4  5  1  0
  5  6  2  3
  6  7  1  0
  7  8  2  0
  7  9  1  0
  9 10  2  0
 10 11  1  0
 11 12  2  0
 12 13  1  0
 13 14  1  0
 14 15  2  0
 14 16  1  0
 16 17  1  0
 17 18  2  0
 17 19  1  0
 19 20  2  3
 20 21  1  0
 21 22  1  0
 22 23  1  0
 23 24  2  0
 23 25  1  0
 22 26  2  0
 26 27  1  0
 13 28  2  0
  5 29  1  0
 29 30  1  0
 30  2  2  0
 28  9  1  0
 27 20  1  0
M  CHG  2  25  -1  29  -1
M  END
>  <UniqueID>  (1584) 
70

>  <SMILES>  (1584) 
Cc1ccc(=NC(=O)c2cccc(C(=O)CC(=O)N=c3[nH]c(C(=O)[O-])cs3)c2)[n-]c1

>  <Energy>  (1584) 
90.45594487141335

>  <Genealogy>  (1584) 
Cc1ccc(=NC(=O)c2cccc(C(=O)CC(=O)N=c3[nH]c(C(=O)[O-])cs3)c2)[n-]c1 (protonated)
Cc1ccc(=NC(=O)c2cccc(C(=O)CC(=O)N=c3[nH]c(C(=O)[O-])cs3)c2)[n-]c1 (3D coordinates assigned)
Cc1ccc(=NC(=O)c2cccc(C(=O)CC(=O)N=c3[nH]c(C(=O)[O-])cs3)c2)[n-]c1 (optimized conformer: 90.45594487141335 kcal/mol)

>  <smiles>  (1584) 
Cc1ccc(=NC(=O)c2cccc(C(=O)CC(=O)N=c3[nH]c(C(=O)O)cs3)c2)[nH]c1

>  <score_type>  (1584) 
oracle

>  <origin>  (1584) 
adg

>  <m_score__min__energy>  (1584) 
-14.17

>  <m_primary>  (1584) 
energy

$$$$
90:0
     RDKit          3D

 28 31  0  0  0  0  0  0  0  0999 V2000
   59.3990   29.9950   46.7940 C   0  0  0  0  0  0  0  0  0  0  0  0
   58.7260   30.8530   46.0100 C   0  0  0  0  0  0  0  0  0  0  0  0
   58.0370   30.5340   44.8360 C   0  0  0  0  0  0  0  0  0  0  0  0
   57.9210   29.3230   44.2560 C   0  0  0  0  0  0  0  0  0  0  0  0
   57.3820   28.1320   44.9530 C   0  0  0  0  0  0  0  0  0  0  0  0
   56.0130   28.0550   45.2520 C   0  0  0  0  0  0  0  0  0  0  0  0
   55.1460   29.0710   44.8700 O   0  0  0  0  0  0  0  0  0  0  0  0
   55.5240   26.9740   45.9130 N   0  0  0  0  0  0  0  0  0  0  0  0
   56.3400   25.9640   46.3060 C   0  0  0  0  0  0  0  0  0  0  0  0
   55.8620   24.9700   46.9120 O   0  0  0  0  0  0  0  0  0  0  0  0
   57.6720   26.0260   46.0520 N   0  0  0  0  0  0  0  0  0  0  0  0
   58.2120   27.0860   45.3970 C   0  0  0  0  0  0  0  0  0  0  0  0
   59.4570   27.1260   45.2100 O   0  0  0  0  0  0  0  0  0  0  0  0
   57.4400   31.7090   44.4000 C   0  0  0  0  0  0  0  0  0  0  0  0
   57.7970   32.6920   45.3020 C   0  0  0  0  0  0  0  0  0  0  0  0
   57.3540   34.1210   45.2240 C   0  0  0  0  0  0  0  0  0  0  0  0
   58.5780   32.1770   46.2780 N   0  0  0  0  0  0  0  0  0  0  0  0
   59.1330   32.9200   47.3780 C   0  0  0  0  0  0  0  0  0  0  0  0
   60.1220   33.8240   47.1520 N   0  0  0  0  0  0  0  0  0  0  0  0
   60.6800   34.5230   48.1740 C   0  0  0  0  0  0  0  0  0  0  0  0
   60.2580   34.3190   49.4470 N   0  0  0  0  0  0  0  0  0  0  0  0
   59.2800   33.4170   49.7360 C   0  0  0  0  0  0  0  0  0  0  0  0
   58.8660   33.2290   51.1030 N   0  0  0  0  0  0  0  0  0  0  0  0
   57.7890   32.3300   51.4820 C   0  0  0  0  0  0  0  0  0  0  0  0
   57.7970   32.2950   53.0050 C   0  0  0  0  0  0  0  0  0  0  0  0
   58.6110   33.5070   53.4460 C   0  0  0  0  0  0  0  0  0  0  0  0
   59.4640   33.8980   52.2470 C   0  0  0  0  0  0  0  0  0  0  0  0
   58.6970   32.6870   48.6880 C   0  0  0  0  0  0  0  0  0  0  0  0
  1  2  2  0
  2  3  1  0
  3  4  2  0
  4  5  1  0
  5  6  2  0
  6  7  1  0
  6  8  1  0
  8  9  1  0
  9 10  2  0
  9 11  1  0
 11 12  1  0
 12 13  2  0
  3 14  1  0
 14 15  2  0
 15 16  1  0
 15 17  1  0
 17 18  1  0
 18 19  2  0
 19 20  1  0
 20 21  2  0
 21 22  1  0
 22 23  1  0
 23 24  1  0
 24 25  1  0
 25 26  1  0
 26 27  1  0
 22 28  2  0
 17  2  1  0
 28 18  1  0
 12  5  1  0
 27 23  1  0
M  CHG  3   7  -1   8  -1  11  -1
M  END
>  <UniqueID>  (1585) 
81

>  <SMILES>  (1585) 
C=c1/c(=C/c2c([O-])[n-]c(=O)[n-]c2=O)cc(C)n1-c1cc(N2CCCC2)ncn1

>  <Energy>  (1585) 
93.94345336757452

>  <Genealogy>  (1585) 
C=c1c(=Cc2c([O-])[n-]c(=O)[n-]c2=O)cc(C)n1-c1cc(N2CCCC2)ncn1 (protonated)
C=c1/c(=C/c2c([O-])[n-]c(=O)[n-]c2=O)cc(C)n1-c1cc(N2CCCC2)ncn1 (cis-trans isomerization)
C=c1/c(=C/c2c([O-])[n-]c(=O)[n-]c2=O)cc(C)n1-c1cc(N2CCCC2)ncn1 (3D coordinates assigned)
C=c1/c(=C/c2c([O-])[n-]c(=O)[n-]c2=O)cc(C)n1-c1cc(N2CCCC2)ncn1 (nonaromatic ring conformer: 93.94345336757452 kcal/mol)

>  <smiles>  (1585) 
C=c1c(=Cc2c(O)[nH]c(=O)[nH]c2=O)cc(C)n1-c1cc(N2CCCC2)ncn1

>  <score_type>  (1585) 
oracle

>  <origin>  (1585) 
adg

>  <m_score__min__energy>  (1585) 
-15.789999999999999

>  <m_primary>  (1585) 
energy

$$$$
9:0
     RDKit          3D

 28 31  0  0  0  0  0  0  0  0999 V2000
   59.6770   29.5160   47.5050 C   0  0  0  0  0  0  0  0  0  0  0  0
   58.9530   29.8170   46.4140 C   0  0  0  0  0  0  0  0  0  0  0  0
   58.4900   28.9160   45.4410 C   0  0  0  0  0  0  0  0  0  0  0  0
   58.4120   27.5700   45.4470 C   0  0  0  0  0  0  0  0  0  0  0  0
   57.1900   26.7830   45.6850 C   0  0  0  0  0  0  0  0  0  0  0  0
   57.1670   25.5290   46.1720 N   0  0  0  0  0  0  0  0  0  0  0  0
   55.8500   25.2860   46.3440 C   0  0  0  0  0  0  0  0  0  0  0  0
   55.4140   24.1880   46.7790 O   0  0  0  0  0  0  0  0  0  0  0  0
   55.0370   26.3160   46.0240 N   0  0  0  0  0  0  0  0  0  0  0  0
   55.9040   27.2590   45.6230 C   0  0  0  0  0  0  0  0  0  0  0  0
   55.5270   28.5310   45.2130 O   0  0  0  0  0  0  0  0  0  0  0  0
   58.0660   29.6850   44.3710 C   0  0  0  0  0  0  0  0  0  0  0  0
   58.2030   31.0050   44.7480 C   0  0  0  0  0  0  0  0  0  0  0  0
   57.8170   32.1710   43.8890 C   0  0  0  0  0  0  0  0  0  0  0  0
   58.7370   31.0890   45.9880 N   0  0  0  0  0  0  0  0  0  0  0  0
   59.0320   32.3070   46.6960 C   0  0  0  0  0  0  0  0  0  0  0  0
   58.1840   33.3810   46.8900 C   0  0  0  0  0  0  0  0  0  0  0  0
   58.8390   34.3270   47.5920 N   0  0  0  0  0  0  0  0  0  0  0  0
   60.0640   33.8790   47.8280 N   0  0  0  0  0  0  0  0  0  0  0  0
   61.0520   34.6030   48.6190 C   0  0  0  0  0  0  0  0  0  0  0  0
   62.2970   33.7770   48.7630 C   0  0  0  0  0  0  0  0  0  0  0  0
   63.2390   33.4770   47.7960 C   0  0  0  0  0  0  0  0  0  0  0  0
   63.2390   33.9270   46.3710 C   0  0  0  0  0  0  0  0  0  0  0  0
   64.1370   32.6080   48.3040 N   0  0  0  0  0  0  0  0  0  0  0  0
   63.7860   32.3720   49.5360 O   0  0  0  0  0  0  0  0  0  0  0  0
   62.6980   33.0330   49.8550 C   0  0  0  0  0  0  0  0  0  0  0  0
   62.0250   32.9540   51.1850 C   0  0  0  0  0  0  0  0  0  0  0  0
   60.2210   32.6490   47.3010 C   0  0  0  0  0  0  0  0  0  0  0  0
  1  2  2  0
  2  3  1  0
  3  4  2  0
  4  5  1  0
  5  6  1  0
  6  7  1  0
  7  8  2  0
  7  9  1  0
  9 10  1  0
 10 11  1  0
  3 12  1  0
 12 13  2  0
 13 14  1  0
 13 15  1  0
 15 16  1  0
 16 17  1  0
 17 18  2  0
 18 19  1  0
 19 20  1  0
 20 21  1  0
 21 22  1  0
 22 23  1  0
 22 24  2  0
 24 25  1  0
 25 26  1  0
 26 27  1  0
 19 28  1  0
 15  2  1  0
 28 16  2  0
 10  5  2  0
 26 21  2  0
M  CHG  3   6  -1   9  -1  11  -1
M  END
>  <UniqueID>  (1586) 
9

>  <SMILES>  (1586) 
C=c1/c(=C\c2[n-]c(=O)[n-]c2[O-])cc(C)n1-c1cnn(Cc2c(C)noc2C)c1

>  <Energy>  (1586) 
179.4266877601258

>  <Genealogy>  (1586) 
C=c1c(=Cc2[n-]c(=O)[n-]c2[O-])cc(C)n1-c1cnn(Cc2c(C)noc2C)c1 (protonated)
C=c1/c(=C\c2[n-]c(=O)[n-]c2[O-])cc(C)n1-c1cnn(Cc2c(C)noc2C)c1 (cis-trans isomerization)
C=c1/c(=C\c2[n-]c(=O)[n-]c2[O-])cc(C)n1-c1cnn(Cc2c(C)noc2C)c1 (3D coordinates assigned)
C=c1/c(=C\c2[n-]c(=O)[n-]c2[O-])cc(C)n1-c1cnn(Cc2c(C)noc2C)c1 (optimized conformer: 179.4266877601258 kcal/mol)

>  <smiles>  (1586) 
C=c1c(=Cc2[nH]c(=O)[nH]c2O)cc(C)n1-c1cnn(Cc2c(C)noc2C)c1

>  <score_type>  (1586) 
oracle

>  <origin>  (1586) 
adg

>  <m_score__min__energy>  (1586) 
-16.190000000000001

>  <m_primary>  (1586) 
energy

$$$$
11:0
     RDKit          3D

 28 31  0  0  0  0  0  0  0  0999 V2000
   59.2690   28.2900   46.5300 C   0  0  0  0  0  0  0  0  0  0  0  0
   58.4890   28.5900   45.4790 C   0  0  0  0  0  0  0  0  0  0  0  0
   57.9360   27.6940   44.5500 C   0  0  0  0  0  0  0  0  0  0  0  0
   57.8530   26.3490   44.5590 C   0  0  0  0  0  0  0  0  0  0  0  0
   57.2670   25.5370   45.6380 C   0  0  0  0  0  0  0  0  0  0  0  0
   57.9070   24.5650   46.3130 N   0  0  0  0  0  0  0  0  0  0  0  0
   57.0500   24.2100   47.2900 C   0  0  0  0  0  0  0  0  0  0  0  0
   57.3030   23.3090   48.1320 O   0  0  0  0  0  0  0  0  0  0  0  0
   55.8980   24.9160   47.2970 N   0  0  0  0  0  0  0  0  0  0  0  0
   56.0590   25.7580   46.2580 C   0  0  0  0  0  0  0  0  0  0  0  0
   55.1220   26.7160   45.8890 O   0  0  0  0  0  0  0  0  0  0  0  0
   57.4230   28.4700   43.5220 C   0  0  0  0  0  0  0  0  0  0  0  0
   57.6080   29.7870   43.8850 C   0  0  0  0  0  0  0  0  0  0  0  0
   57.1750   30.9640   43.0630 C   0  0  0  0  0  0  0  0  0  0  0  0
   58.2580   29.8620   45.0680 N   0  0  0  0  0  0  0  0  0  0  0  0
   58.6470   31.0740   45.7380 C   0  0  0  0  0  0  0  0  0  0  0  0
   59.9200   31.1720   46.3160 C   0  0  0  0  0  0  0  0  0  0  0  0
   60.3170   32.3450   46.9820 C   0  0  0  0  0  0  0  0  0  0  0  0
   61.6340   32.4420   47.5610 N   0  0  0  0  0  0  0  0  0  0  0  0
   62.0940   31.6650   48.7020 C   0  0  0  0  0  0  0  0  0  0  0  0
   63.6090   31.9190   48.8090 C   0  0  0  0  0  0  0  0  0  0  0  0
   63.9310   33.1080   47.8920 C   0  0  0  0  0  0  0  0  0  0  0  0
   62.6790   33.3020   47.1360 C   0  0  0  0  0  0  0  0  0  0  0  0
   62.5330   34.1900   46.2540 O   0  0  0  0  0  0  0  0  0  0  0  0
   59.4240   33.4310   47.0400 C   0  0  0  0  0  0  0  0  0  0  0  0
   58.1570   33.3350   46.4590 C   0  0  0  0  0  0  0  0  0  0  0  0
   57.7650   32.1620   45.8110 C   0  0  0  0  0  0  0  0  0  0  0  0
   56.5440   32.0970   45.2250 F   0  0  0  0  0  0  0  0  0  0  0  0
  1  2  2  0
  2  3  1  0
  3  4  2  3
  4  5  1  0
  5  6  1  0
  6  7  1  0
  7  8  2  0
  7  9  1  0
  9 10  1  0
 10 11  1  0
  3 12  1  0
 12 13  2  0
 13 14  1  0
 13 15  1  0
 15 16  1  0
 16 17  2  0
 17 18  1  0
 18 19  1  0
 19 20  1  0
 20 21  1  0
 21 22  1  0
 22 23  1  0
 23 24  2  0
 18 25  2  0
 25 26  1  0
 26 27  2  0
 27 28  1  0
 15  2  1  0
 27 16  1  0
 10  5  2  0
 23 19  1  0
M  CHG  2   9  -1  11  -1
M  END
>  <UniqueID>  (1587) 
11

>  <SMILES>  (1587) 
C=c1c(=Cc2[nH]c(=O)[n-]c2[O-])cc(C)n1-c1cc(N2CCCC2=O)ccc1F

>  <Energy>  (1587) 
134.8629322807628

>  <Genealogy>  (1587) 
C=c1c(=Cc2[nH]c(=O)[n-]c2[O-])cc(C)n1-c1cc(N2CCCC2=O)ccc1F (protonated)
C=c1c(=Cc2[nH]c(=O)[n-]c2[O-])cc(C)n1-c1cc(N2CCCC2=O)ccc1F (3D coordinates assigned)
C=c1c(=Cc2[nH]c(=O)[n-]c2[O-])cc(C)n1-c1cc(N2CCCC2=O)ccc1F (nonaromatic ring conformer: 134.8629322807628 kcal/mol)

>  <smiles>  (1587) 
C=c1c(=Cc2[nH]c(=O)[nH]c2O)cc(C)n1-c1cc(N2CCCC2=O)ccc1F

>  <score_type>  (1587) 
oracle

>  <origin>  (1587) 
adg

>  <m_score__min__energy>  (1587) 
-14.48

>  <m_primary>  (1587) 
energy

$$$$
27:0
     RDKit          3D

 35 39  0  0  0  0  0  0  0  0999 V2000
   59.8720   27.5600   46.2920 C   0  0  0  0  0  0  0  0  0  0  0  0
   58.9850   28.2770   45.5840 C   0  0  0  0  0  0  0  0  0  0  0  0
   58.0170   27.7820   44.6960 C   0  0  0  0  0  0  0  0  0  0  0  0
   57.5640   26.5300   44.4910 C   0  0  0  0  0  0  0  0  0  0  0  0
   57.0670   25.6180   45.5340 C   0  0  0  0  0  0  0  0  0  0  0  0
   57.7840   24.6210   46.0850 N   0  0  0  0  0  0  0  0  0  0  0  0
   56.9840   24.1730   47.0770 C   0  0  0  0  0  0  0  0  0  0  0  0
   57.3070   23.2150   47.8270 O   0  0  0  0  0  0  0  0  0  0  0  0
   55.8180   24.8400   47.2090 N   0  0  0  0  0  0  0  0  0  0  0  0
   55.8940   25.7600   46.2340 C   0  0  0  0  0  0  0  0  0  0  0  0
   54.9130   26.7130   45.9910 O   0  0  0  0  0  0  0  0  0  0  0  0
   57.5300   28.8790   44.0030 C   0  0  0  0  0  0  0  0  0  0  0  0
   58.1450   29.9930   44.5350 C   0  0  0  0  0  0  0  0  0  0  0  0
   57.8830   31.4010   44.0930 C   0  0  0  0  0  0  0  0  0  0  0  0
   59.0270   29.6310   45.4940 N   0  0  0  0  0  0  0  0  0  0  0  0
   59.8760   30.5260   46.2350 C   0  0  0  0  0  0  0  0  0  0  0  0
   59.3540   31.7060   46.7850 C   0  0  0  0  0  0  0  0  0  0  0  0
   60.1810   32.5740   47.5030 C   0  0  0  0  0  0  0  0  0  0  0  0
   61.5390   32.2700   47.6890 C   0  0  0  0  0  0  0  0  0  0  0  0
   62.4220   33.1920   48.4340 C   0  0  0  0  0  0  0  0  0  0  0  0
   63.3100   33.8290   47.8030 O   0  0  0  0  0  0  0  0  0  0  0  0
   62.3080   33.3540   49.8620 N   0  0  0  0  0  0  0  0  0  0  0  0
   61.9790   32.2020   50.7170 C   0  0  0  0  0  0  0  0  0  0  0  0
   62.5190   32.3810   52.1440 C   0  0  0  0  0  0  0  0  0  0  0  0
   63.8990   33.0710   52.1590 C   0  0  0  0  0  0  0  0  0  0  0  0
   64.9470   32.1640   51.6480 N   0  0  0  0  0  0  0  0  0  0  0  0
   66.1680   32.6230   51.0930 C   0  0  0  0  0  0  0  0  0  0  0  0
   66.4060   33.8390   50.8660 O   0  0  0  0  0  0  0  0  0  0  0  0
   67.1380   31.5450   50.8270 C   0  0  0  0  0  0  0  0  0  0  0  0
   66.3610   30.2740   51.1920 C   0  0  0  0  0  0  0  0  0  0  0  0
   65.0290   30.7160   51.8290 C   0  0  0  0  0  0  0  0  0  0  0  0
   63.8740   34.4470   51.4370 C   0  0  0  0  0  0  0  0  0  0  0  0
   62.6750   34.6280   50.4920 C   0  0  0  0  0  0  0  0  0  0  0  0
   62.0630   31.0960   47.1230 C   0  0  0  0  0  0  0  0  0  0  0  0
   61.2340   30.2280   46.4070 C   0  0  0  0  0  0  0  0  0  0  0  0
  1  2  2  0
  2  3  1  0
  3  4  2  0
  4  5  1  0
  5  6  1  0
  6  7  1  0
  7  8  2  0
  7  9  1  0
  9 10  1  0
 10 11  1  0
  3 12  1  0
 12 13  2  0
 13 14  1  0
 13 15  1  0
 15 16  1  0
 16 17  2  0
 17 18  1  0
 18 19  2  0
 19 20  1  0
 20 21  2  0
 20 22  1  0
 22 23  1  0
 23 24  1  0
 24 25  1  0
 25 26  1  0
 26 27  1  0
 27 28  2  0
 27 29  1  0
 29 30  1  0
 30 31  1  0
 25 32  1  0
 32 33  1  0
 19 34  1  0
 34 35  2  0
 15  2  1  0
 35 16  1  0
 10  5  2  0
 33 22  1  0
 31 26  1  0
M  CHG  3   6  -1   9  -1  11  -1
M  END
>  <UniqueID>  (1588) 
25

>  <SMILES>  (1588) 
C=c1/c(=C\c2[n-]c(=O)[n-]c2[O-])cc(C)n1-c1ccc(C(=O)N2CCC(N3CCCC3=O)CC2)cc1

>  <Energy>  (1588) 
154.94957648668827

>  <Genealogy>  (1588) 
C=c1c(=Cc2[n-]c(=O)[n-]c2[O-])cc(C)n1-c1ccc(C(=O)N2CCC(N3CCCC3=O)CC2)cc1 (protonated)
C=c1/c(=C\c2[n-]c(=O)[n-]c2[O-])cc(C)n1-c1ccc(C(=O)N2CCC(N3CCCC3=O)CC2)cc1 (cis-trans isomerization)
C=c1/c(=C\c2[n-]c(=O)[n-]c2[O-])cc(C)n1-c1ccc(C(=O)N2CCC(N3CCCC3=O)CC2)cc1 (3D coordinates assigned)
C=c1/c(=C\c2[n-]c(=O)[n-]c2[O-])cc(C)n1-c1ccc(C(=O)N2CCC(N3CCCC3=O)CC2)cc1 (nonaromatic ring conformer: 154.94957648668827 kcal/mol)

>  <smiles>  (1588) 
C=c1c(=Cc2[nH]c(=O)[nH]c2O)cc(C)n1-c1ccc(C(=O)N2CCC(N3CCCC3=O)CC2)cc1

>  <score_type>  (1588) 
oracle

>  <origin>  (1588) 
adg

>  <m_score__min__energy>  (1588) 
-16.02

>  <m_primary>  (1588) 
energy

$$$$
56:0
     RDKit          3D

 36 39  0  0  0  0  0  0  0  0999 V2000
   58.6230   27.8670   47.2220 C   0  0  0  0  0  0  0  0  0  0  0  0
   58.4420   28.4900   46.0470 C   0  0  0  0  0  0  0  0  0  0  0  0
   57.8310   27.9650   44.8950 C   0  0  0  0  0  0  0  0  0  0  0  0
   57.4760   26.7050   44.5790 C   0  0  0  0  0  0  0  0  0  0  0  0
   56.9740   25.6910   45.5240 C   0  0  0  0  0  0  0  0  0  0  0  0
   57.5940   24.5280   45.7980 N   0  0  0  0  0  0  0  0  0  0  0  0
   56.7030   23.8730   46.5730 C   0  0  0  0  0  0  0  0  0  0  0  0
   56.9320   22.7320   47.0510 O   0  0  0  0  0  0  0  0  0  0  0  0
   55.5420   24.5320   46.7810 N   0  0  0  0  0  0  0  0  0  0  0  0
   55.7260   25.6750   46.1000 C   0  0  0  0  0  0  0  0  0  0  0  0
   54.7720   26.6790   45.9980 O   0  0  0  0  0  0  0  0  0  0  0  0
   57.6290   29.0390   44.0420 C   0  0  0  0  0  0  0  0  0  0  0  0
   58.1760   30.1480   44.6540 C   0  0  0  0  0  0  0  0  0  0  0  0
   58.1710   31.5300   44.0770 C   0  0  0  0  0  0  0  0  0  0  0  0
   58.6710   29.8170   45.8680 N   0  0  0  0  0  0  0  0  0  0  0  0
   59.2510   30.7310   46.8170 C   0  0  0  0  0  0  0  0  0  0  0  0
   60.4920   30.4470   47.4050 C   0  0  0  0  0  0  0  0  0  0  0  0
   61.0760   31.3560   48.2930 C   0  0  0  0  0  0  0  0  0  0  0  0
   60.4260   32.5610   48.6020 C   0  0  0  0  0  0  0  0  0  0  0  0
   61.0740   33.5290   49.5100 C   0  0  0  0  0  0  0  0  0  0  0  0
   60.3460   34.1360   50.3420 O   0  0  0  0  0  0  0  0  0  0  0  0
   62.5080   33.7340   49.5150 N   0  0  0  0  0  0  0  0  0  0  0  0
   63.1290   34.6730   50.4620 C   0  0  0  0  0  0  0  0  0  0  0  0
   64.1660   33.9210   51.3000 C   0  0  0  0  0  0  0  0  0  0  0  0
   65.1340   33.2080   50.4470 N   0  0  0  0  0  0  0  0  0  0  0  0
   66.4900   32.9630   50.8900 C   0  0  0  0  0  0  0  0  0  0  0  0
   67.4380   33.2060   50.0930 O   0  0  0  0  0  0  0  0  0  0  0  0
   66.8640   32.3500   52.1900 C   0  0  0  0  0  0  0  0  0  0  0  0
   66.8030   31.0560   52.5140 C   0  0  0  0  0  0  0  0  0  0  0  0
   66.2700   30.0370   51.5430 C   0  0  0  0  0  0  0  0  0  0  0  0
   67.3140   29.4790   50.7640 O   0  0  0  0  0  0  0  0  0  0  0  0
   67.4480   28.1030   51.0430 C   0  0  0  0  0  0  0  0  0  0  0  0
   64.8750   33.1150   48.9990 C   0  0  0  0  0  0  0  0  0  0  0  0
   63.3880   32.8750   48.7020 C   0  0  0  0  0  0  0  0  0  0  0  0
   59.1610   32.8190   48.0510 C   0  0  0  0  0  0  0  0  0  0  0  0
   58.5840   31.9150   47.1560 C   0  0  0  0  0  0  0  0  0  0  0  0
  1  2  2  0
  2  3  1  0
  3  4  2  3
  4  5  1  0
  5  6  1  0
  6  7  1  0
  7  8  2  0
  7  9  1  0
  9 10  1  0
 10 11  1  0
  3 12  1  0
 12 13  2  0
 13 14  1  0
 13 15  1  0
 15 16  1  0
 16 17  2  0
 17 18  1  0
 18 19  2  0
 19 20  1  0
 20 21  2  0
 20 22  1  0
 22 23  1  0
 23 24  1  0
 24 25  1  0
 25 26  1  0
 26 27  2  0
 26 28  1  0
 28 29  2  3
 29 30  1  0
 30 31  1  0
 31 32  1  0
 25 33  1  0
 33 34  1  0
 19 35  1  0
 35 36  2  0
 15  2  1  0
 36 16  1  0
 10  5  2  0
 34 22  1  0
M  CHG  3   6  -1   9  -1  11  -1
M  END
>  <UniqueID>  (1589) 
50

>  <SMILES>  (1589) 
C=c1c(=Cc2[n-]c(=O)[n-]c2[O-])cc(C)n1-c1ccc(C(=O)N2CCN(C(=O)C=CCOC)CC2)cc1

>  <Energy>  (1589) 
155.30427683797896

>  <Genealogy>  (1589) 
C=c1c(=Cc2[n-]c(=O)[n-]c2[O-])cc(C)n1-c1ccc(C(=O)N2CCN(C(=O)C=CCOC)CC2)cc1 (protonated)
C=c1c(=Cc2[n-]c(=O)[n-]c2[O-])cc(C)n1-c1ccc(C(=O)N2CCN(C(=O)C=CCOC)CC2)cc1 (3D coordinates assigned)
C=c1c(=Cc2[n-]c(=O)[n-]c2[O-])cc(C)n1-c1ccc(C(=O)N2CCN(C(=O)C=CCOC)CC2)cc1 (nonaromatic ring conformer: 155.30427683797896 kcal/mol)

>  <smiles>  (1589) 
C=c1c(=Cc2[nH]c(=O)[nH]c2O)cc(C)n1-c1ccc(C(=O)N2CCN(C(=O)C=CCOC)CC2)cc1

>  <score_type>  (1589) 
oracle

>  <origin>  (1589) 
adg

>  <m_score__min__energy>  (1589) 
-15.66

>  <m_primary>  (1589) 
energy

$$$$
64:0
     RDKit          3D

 27 29  0  0  0  0  0  0  0  0999 V2000
   55.7070   31.8620   52.3310 C   0  0  0  0  0  0  0  0  0  0  0  0
   55.2280   30.6980   52.7960 C   0  0  0  0  0  0  0  0  0  0  0  0
   53.8870   30.3920   53.0500 C   0  0  0  0  0  0  0  0  0  0  0  0
   52.8180   31.1920   52.8640 C   0  0  0  0  0  0  0  0  0  0  0  0
   52.0360   31.2470   51.6160 C   0  0  0  0  0  0  0  0  0  0  0  0
   52.2390   30.4140   50.5810 N   0  0  0  0  0  0  0  0  0  0  0  0
   51.3810   30.8660   49.6400 C   0  0  0  0  0  0  0  0  0  0  0  0
   51.2680   30.3250   48.5100 O   0  0  0  0  0  0  0  0  0  0  0  0
   50.6640   31.9500   50.0030 N   0  0  0  0  0  0  0  0  0  0  0  0
   51.0970   32.1880   51.2510 C   0  0  0  0  0  0  0  0  0  0  0  0
   50.6780   33.2680   52.0170 O   0  0  0  0  0  0  0  0  0  0  0  0
   53.8610   29.0700   53.4750 C   0  0  0  0  0  0  0  0  0  0  0  0
   55.1700   28.6320   53.4830 C   0  0  0  0  0  0  0  0  0  0  0  0
   55.5990   27.2440   53.8530 C   0  0  0  0  0  0  0  0  0  0  0  0
   56.0000   29.6140   53.0670 N   0  0  0  0  0  0  0  0  0  0  0  0
   57.4300   29.5110   52.9470 C   0  0  0  0  0  0  0  0  0  0  0  0
   58.0250   29.3830   51.6850 C   0  0  0  0  0  0  0  0  0  0  0  0
   59.4140   29.2740   51.5680 C   0  0  0  0  0  0  0  0  0  0  0  0
   60.2240   29.2830   52.7150 C   0  0  0  0  0  0  0  0  0  0  0  0
   61.7240   29.2060   52.5900 C   0  0  0  0  0  0  0  0  0  0  0  0
   62.1430   28.4950   51.2980 C   0  0  0  0  0  0  0  0  0  0  0  0
   61.4830   27.2000   51.1690 N   0  0  0  0  0  0  0  0  0  0  0  0
   61.9100   26.0190   51.8540 C   0  0  0  0  0  0  0  0  0  0  0  0
   63.0190   25.4860   51.5820 O   0  0  0  0  0  0  0  0  0  0  0  0
   61.0090   25.3840   52.8580 C   0  0  0  0  0  0  0  0  0  0  0  0
   59.6270   29.4190   53.9780 C   0  0  0  0  0  0  0  0  0  0  0  0
   58.2380   29.5270   54.0930 C   0  0  0  0  0  0  0  0  0  0  0  0
  1  2  2  0
  2  3  1  0
  3  4  2  0
  4  5  1  0
  5  6  1  0
  6  7  1  0
  7  8  2  0
  7  9  1  0
  9 10  1  0
 10 11  1  0
  3 12  1  0
 12 13  2  0
 13 14  1  0
 13 15  1  0
 15 16  1  0
 16 17  2  0
 17 18  1  0
 18 19  2  0
 19 20  1  0
 20 21  1  0
 21 22  1  0
 22 23  1  0
 23 24  2  0
 23 25  1  0
 19 26  1  0
 26 27  2  0
 15  2  1  0
 27 16  1  0
 10  5  2  0
M  CHG  4   6  -1   9  -1  11  -1  22  -1
M  END
>  <UniqueID>  (1590) 
58

>  <SMILES>  (1590) 
C=c1/c(=C/c2[n-]c(=O)[n-]c2[O-])cc(C)n1-c1ccc(CC[N-]C(C)=O)cc1

>  <Energy>  (1590) 
111.42891186139488

>  <Genealogy>  (1590) 
C=c1c(=Cc2[n-]c(=O)[n-]c2[O-])cc(C)n1-c1ccc(CC[N-]C(C)=O)cc1 (protonated)
C=c1/c(=C/c2[n-]c(=O)[n-]c2[O-])cc(C)n1-c1ccc(CC[N-]C(C)=O)cc1 (cis-trans isomerization)
C=c1/c(=C/c2[n-]c(=O)[n-]c2[O-])cc(C)n1-c1ccc(CC[N-]C(C)=O)cc1 (3D coordinates assigned)
C=c1/c(=C/c2[n-]c(=O)[n-]c2[O-])cc(C)n1-c1ccc(CC[N-]C(C)=O)cc1 (optimized conformer: 111.42891186139488 kcal/mol)

>  <smiles>  (1590) 
C=c1c(=Cc2[nH]c(=O)[nH]c2O)cc(C)n1-c1ccc(CCNC(C)=O)cc1

>  <score_type>  (1590) 
oracle

>  <origin>  (1590) 
adg

>  <m_score__min__energy>  (1590) 
-16.109999999999999

>  <m_primary>  (1590) 
energy

$$$$
65:0
     RDKit          3D

 24 26  0  0  0  0  0  0  0  0999 V2000
   55.5080   31.5630   52.3650 C   0  0  0  0  0  0  0  0  0  0  0  0
   54.9960   30.4570   52.9320 C   0  0  0  0  0  0  0  0  0  0  0  0
   53.6880   29.9850   52.7670 C   0  0  0  0  0  0  0  0  0  0  0  0
   52.7250   30.5010   51.9770 C   0  0  0  0  0  0  0  0  0  0  0  0
   51.7850   31.5540   52.4030 C   0  0  0  0  0  0  0  0  0  0  0  0
   51.4440   31.7630   53.6870 N   0  0  0  0  0  0  0  0  0  0  0  0
   50.5170   32.7420   53.6100 C   0  0  0  0  0  0  0  0  0  0  0  0
   49.9580   33.2280   54.6280 O   0  0  0  0  0  0  0  0  0  0  0  0
   50.2260   33.1510   52.3560 N   0  0  0  0  0  0  0  0  0  0  0  0
   51.0280   32.3810   51.6030 C   0  0  0  0  0  0  0  0  0  0  0  0
   51.0290   32.4040   50.2130 O   0  0  0  0  0  0  0  0  0  0  0  0
   53.5880   28.8370   53.5380 C   0  0  0  0  0  0  0  0  0  0  0  0
   54.8150   28.6550   54.1400 C   0  0  0  0  0  0  0  0  0  0  0  0
   55.1290   27.5410   55.0940 C   0  0  0  0  0  0  0  0  0  0  0  0
   55.6770   29.6360   53.7780 N   0  0  0  0  0  0  0  0  0  0  0  0
   57.0820   29.7400   54.2090 C   0  0  0  0  0  0  0  0  0  0  0  0
   58.0400   29.1250   53.1780 C   0  0  0  0  0  0  0  0  0  0  0  0
   58.2060   30.0010   51.9230 C   0  0  0  0  0  0  0  0  0  0  0  0
   59.2810   31.0050   52.0990 N   0  0  1  0  0  0  0  0  0  0  0  0
   59.5120   31.7010   50.8680 C   0  0  0  0  0  0  0  0  0  0  0  0
   60.0230   31.1590   49.8990 O   0  0  0  0  0  0  0  0  0  0  0  0
   59.1360   33.1320   50.8620 C   0  0  0  0  0  0  0  0  0  0  0  0
   58.5040   33.3120   52.2290 C   0  0  0  0  0  0  0  0  0  0  0  0
   58.9090   32.0780   53.0440 C   0  0  0  0  0  0  0  0  0  0  0  0
  1  2  2  0
  2  3  1  0
  3  4  2  0
  4  5  1  0
  5  6  1  0
  6  7  1  0
  7  8  2  0
  7  9  1  0
  9 10  1  0
 10 11  1  0
  3 12  1  0
 12 13  2  0
 13 14  1  0
 13 15  1  0
 15 16  1  0
 16 17  1  0
 17 18  1  0
 19 18  1  6
 19 20  1  0
 20 21  2  0
 20 22  1  0
 22 23  1  0
 23 24  1  0
 15  2  1  0
 24 19  1  0
 10  5  2  0
M  CHG  4   6  -1   9  -1  11  -1  19   1
M  END
>  <UniqueID>  (1591) 
59

>  <SMILES>  (1591) 
C=c1/c(=C/c2[n-]c(=O)[n-]c2[O-])cc(C)n1CCC[N@@H+]1CCCC1=O

>  <Energy>  (1591) 
109.45851558604689

>  <Genealogy>  (1591) 
C=c1c(=Cc2[n-]c(=O)[n-]c2[O-])cc(C)n1CCC[NH+]1CCCC1=O (protonated)
C=c1c(=Cc2[n-]c(=O)[n-]c2[O-])cc(C)n1CCC[N@@H+]1CCCC1=O (chirality)
C=c1/c(=C/c2[n-]c(=O)[n-]c2[O-])cc(C)n1CCC[N@@H+]1CCCC1=O (cis-trans isomerization)
C=c1/c(=C/c2[n-]c(=O)[n-]c2[O-])cc(C)n1CCC[N@@H+]1CCCC1=O (3D coordinates assigned)
C=c1/c(=C/c2[n-]c(=O)[n-]c2[O-])cc(C)n1CCC[N@@H+]1CCCC1=O (nonaromatic ring conformer: 109.45851558604689 kcal/mol)

>  <smiles>  (1591) 
C=c1c(=Cc2[nH]c(=O)[nH]c2O)cc(C)n1CCCN1CCCC1=O

>  <score_type>  (1591) 
oracle

>  <origin>  (1591) 
adg

>  <m_score__min__energy>  (1591) 
-14.02

>  <m_primary>  (1591) 
energy

$$$$
74:0
     RDKit          3D

 30 33  0  0  0  0  0  0  0  0999 V2000
   59.5570   30.0460   45.6540 C   0  0  0  0  0  0  0  0  0  0  0  0
   59.5670   29.1010   46.6070 C   0  0  0  0  0  0  0  0  0  0  0  0
   59.1130   27.7760   46.5010 C   0  0  0  0  0  0  0  0  0  0  0  0
   58.4110   27.1550   45.5320 C   0  0  0  0  0  0  0  0  0  0  0  0
   57.0850   26.5410   45.6940 C   0  0  0  0  0  0  0  0  0  0  0  0
   56.8970   25.2820   46.1250 N   0  0  0  0  0  0  0  0  0  0  0  0
   55.5540   25.1910   46.2450 C   0  0  0  0  0  0  0  0  0  0  0  0
   54.9780   24.1360   46.6170 O   0  0  0  0  0  0  0  0  0  0  0  0
   54.8790   26.3220   45.9490 N   0  0  0  0  0  0  0  0  0  0  0  0
   55.8640   27.1730   45.6170 C   0  0  0  0  0  0  0  0  0  0  0  0
   55.6520   28.5030   45.2760 O   0  0  0  0  0  0  0  0  0  0  0  0
   59.5250   27.1310   47.6570 C   0  0  0  0  0  0  0  0  0  0  0  0
   60.1430   28.0790   48.4460 C   0  0  0  0  0  0  0  0  0  0  0  0
   60.7520   27.8120   49.7890 C   0  0  0  0  0  0  0  0  0  0  0  0
   60.1730   29.2690   47.8080 N   0  0  0  0  0  0  0  0  0  0  0  0
   60.7870   30.4700   48.3070 C   0  0  0  0  0  0  0  0  0  0  0  0
   61.9650   30.9380   47.7100 C   0  0  0  0  0  0  0  0  0  0  0  0
   62.5740   32.1080   48.1720 C   0  0  0  0  0  0  0  0  0  0  0  0
   62.0160   32.8190   49.2450 C   0  0  0  0  0  0  0  0  0  0  0  0
   62.6600   34.0980   49.7140 C   0  0  0  0  0  0  0  0  0  0  0  0
   63.7500   33.8120   50.6690 N   0  0  0  0  0  0  0  0  0  0  0  0
   65.0010   33.4550   49.9640 C   0  0  0  0  0  0  0  0  0  0  0  0
   66.2000   33.4400   50.9330 C   0  0  0  0  0  0  0  0  0  0  0  0
   65.7640   33.4420   52.2760 O   0  0  0  0  0  0  0  0  0  0  0  0
   65.1030   34.6620   52.5610 C   0  0  0  0  0  0  0  0  0  0  0  0
   63.9820   34.9740   51.5450 C   0  0  0  0  0  0  0  0  0  0  0  0
   60.8380   32.3510   49.8460 C   0  0  0  0  0  0  0  0  0  0  0  0
   60.2230   31.1790   49.3850 C   0  0  0  0  0  0  0  0  0  0  0  0
   59.0270   30.7060   50.0350 C   0  0  0  0  0  0  0  0  0  0  0  0
   58.0650   30.3280   50.5570 N   0  0  0  0  0  0  0  0  0  0  0  0
  1  2  2  0
  2  3  1  0
  3  4  2  3
  4  5  1  0
  5  6  1  0
  6  7  1  0
  7  8  2  0
  7  9  1  0
  9 10  1  0
 10 11  1  0
  3 12  1  0
 12 13  2  0
 13 14  1  0
 13 15  1  0
 15 16  1  0
 16 17  2  0
 17 18  1  0
 18 19  2  0
 19 20  1  0
 20 21  1  0
 21 22  1  0
 22 23  1  0
 23 24  1  0
 24 25  1  0
 25 26  1  0
 19 27  1  0
 27 28  2  0
 28 29  1  0
 29 30  3  0
 15  2  1  0
 28 16  1  0
 10  5  2  0
 26 21  1  0
M  CHG  3   6  -1   9  -1  11  -1
M  END
>  <UniqueID>  (1592) 
65

>  <SMILES>  (1592) 
C=c1c(=Cc2[n-]c(=O)[n-]c2[O-])cc(C)n1-c1ccc(CN2CCOCC2)cc1C#N

>  <Energy>  (1592) 
137.3396957814307

>  <Genealogy>  (1592) 
C=c1c(=Cc2[n-]c(=O)[n-]c2[O-])cc(C)n1-c1ccc(CN2CCOCC2)cc1C#N (protonated)
C=c1c(=Cc2[n-]c(=O)[n-]c2[O-])cc(C)n1-c1ccc(CN2CCOCC2)cc1C#N (3D coordinates assigned)
C=c1c(=Cc2[n-]c(=O)[n-]c2[O-])cc(C)n1-c1ccc(CN2CCOCC2)cc1C#N (nonaromatic ring conformer: 137.3396957814307 kcal/mol)

>  <smiles>  (1592) 
C=c1c(=Cc2[nH]c(=O)[nH]c2O)cc(C)n1-c1ccc(CN2CCOCC2)cc1C#N

>  <score_type>  (1592) 
oracle

>  <origin>  (1592) 
adg

>  <m_score__min__energy>  (1592) 
-15.68

>  <m_primary>  (1592) 
energy

$$$$
75:0
     RDKit          3D

 28 31  0  0  0  0  0  0  0  0999 V2000
   52.0590   22.5840   47.4830 C   0  0  0  0  0  0  0  0  0  0  0  0
   52.7510   22.7590   45.8520 S   0  0  0  0  0  0  0  0  0  0  0  0
   51.6720   22.6680   44.8100 O   0  0  0  0  0  0  0  0  0  0  0  0
   53.7370   21.6480   45.6250 O   0  0  0  0  0  0  0  0  0  0  0  0
   53.5830   24.2760   45.7160 N   0  0  0  0  0  0  0  0  0  0  0  0
   54.9940   24.4470   45.5120 C   0  0  0  0  0  0  0  0  0  0  0  0
   55.8030   23.4170   45.0010 C   0  0  0  0  0  0  0  0  0  0  0  0
   57.1710   23.6220   44.8210 C   0  0  0  0  0  0  0  0  0  0  0  0
   57.7470   24.8510   45.1440 C   0  0  0  0  0  0  0  0  0  0  0  0
   56.9550   25.8980   45.6450 C   0  0  0  0  0  0  0  0  0  0  0  0
   57.5760   27.1930   46.0020 C   0  0  0  0  0  0  0  0  0  0  0  0
   58.6030   27.3260   46.8780 N   0  0  0  0  0  0  0  0  0  0  0  0
   58.9390   28.6110   46.9730 N   0  0  0  0  0  0  0  0  0  0  0  0
   58.1160   29.2870   46.1560 C   0  0  0  0  0  0  0  0  0  0  0  0
   58.0910   30.6270   45.9660 N   0  0  0  0  0  0  0  0  0  0  0  0
   57.1490   31.1490   45.1240 C   0  0  0  0  0  0  0  0  0  0  0  0
   57.1340   32.4330   44.9110 N   0  0  0  0  0  0  0  0  0  0  0  0
   57.9560   33.4230   45.5500 C   0  0  0  0  0  0  0  0  0  0  0  0
   58.0900   33.4940   46.9510 C   0  0  0  0  0  0  0  0  0  0  0  0
   58.9300   34.4490   47.5310 C   0  0  0  0  0  0  0  0  0  0  0  0
   59.6570   35.3270   46.7230 C   0  0  0  0  0  0  0  0  0  0  0  0
   59.5540   35.2410   45.3320 C   0  0  0  0  0  0  0  0  0  0  0  0
   58.7150   34.2870   44.7490 C   0  0  0  0  0  0  0  0  0  0  0  0
   56.2570   30.3140   44.4910 N   0  0  0  0  0  0  0  0  0  0  0  0
   56.2780   28.9620   44.6850 C   0  0  0  0  0  0  0  0  0  0  0  0
   57.2490   28.4500   45.5330 C   0  0  0  0  0  0  0  0  0  0  0  0
   55.5750   25.6840   45.8350 C   0  0  0  0  0  0  0  0  0  0  0  0
   54.7700   26.7050   46.3330 O   0  0  0  0  0  0  0  0  0  0  0  0
  1  2  1  0
  2  3  2  0
  2  4  2  0
  2  5  1  0
  5  6  1  0
  6  7  2  0
  7  8  1  0
  8  9  2  0
  9 10  1  0
 10 11  1  0
 11 12  1  0
 12 13  1  0
 13 14  2  0
 14 15  1  0
 15 16  1  0
 16 17  2  3
 17 18  1  0
 18 19  2  0
 19 20  1  0
 20 21  2  0
 21 22  1  0
 22 23  2  0
 16 24  1  0
 24 25  2  0
 25 26  1  0
 10 27  2  0
 27 28  1  0
 27  6  1  0
 26 11  2  0
 26 14  1  0
 23 18  1  0
M  CHG  4   5  -1  12  -1  15  -1  28  -1
M  END
>  <UniqueID>  (1593) 
66

>  <SMILES>  (1593) 
CS(=O)(=O)[N-]c1cccc(-c2[n-]nc3[n-]c(=Nc4ccccc4)ncc23)c1[O-]

>  <Energy>  (1593) 
97.4385569631464

>  <Genealogy>  (1593) 
CS(=O)(=O)[N-]c1cccc(-c2[n-]nc3[n-]c(=Nc4ccccc4)ncc23)c1[O-] (protonated)
CS(=O)(=O)[N-]c1cccc(-c2[n-]nc3[n-]c(=Nc4ccccc4)ncc23)c1[O-] (3D coordinates assigned)
CS(=O)(=O)[N-]c1cccc(-c2[n-]nc3[n-]c(=Nc4ccccc4)ncc23)c1[O-] (optimized conformer: 97.4385569631464 kcal/mol)

>  <smiles>  (1593) 
CS(=O)(=O)Nc1cccc(-c2[nH]nc3[nH]c(=Nc4ccccc4)ncc23)c1O

>  <score_type>  (1593) 
oracle

>  <origin>  (1593) 
adg

>  <m_score__min__energy>  (1593) 
-18.129999999999999

>  <m_primary>  (1593) 
energy

$$$$
79:0
     RDKit          3D

 31 33  0  0  0  0  0  0  0  0999 V2000
   55.0550   26.6430   46.0000 O   0  0  0  0  0  0  0  0  0  0  0  0
   56.2520   26.2470   46.0200 C   0  0  0  0  0  0  0  0  0  0  0  0
   57.2990   27.0520   45.3020 C   0  0  0  0  0  0  0  0  0  0  0  0
   57.1780   28.4670   45.6400 N   0  0  0  0  0  0  0  0  0  0  0  0
   56.4180   29.4370   44.9050 C   0  0  0  0  0  0  0  0  0  0  0  0
   55.1720   29.2920   44.8200 O   0  0  0  0  0  0  0  0  0  0  0  0
   57.0390   30.6270   44.2960 C   0  0  0  0  0  0  0  0  0  0  0  0
   57.0090   30.8190   42.9070 C   0  0  0  0  0  0  0  0  0  0  0  0
   57.6000   31.9510   42.3400 C   0  0  0  0  0  0  0  0  0  0  0  0
   58.2080   32.9090   43.1550 C   0  0  0  0  0  0  0  0  0  0  0  0
   58.2200   32.7420   44.5470 C   0  0  0  0  0  0  0  0  0  0  0  0
   58.9540   33.9520   45.5930 S   0  0  0  0  0  0  0  0  0  0  0  0
   58.9420   35.2780   44.8840 O   0  0  0  0  0  0  0  0  0  0  0  0
   58.1780   34.0570   46.8760 O   0  0  0  0  0  0  0  0  0  0  0  0
   60.5850   33.4720   45.9360 N   0  0  0  0  0  0  0  0  0  0  0  0
   61.3170   33.6810   47.1530 C   0  0  0  0  0  0  0  0  0  0  0  0
   60.5810   33.9160   48.3230 C   0  0  0  0  0  0  0  0  0  0  0  0
   61.2290   34.1300   49.5430 C   0  0  0  0  0  0  0  0  0  0  0  0
   62.6220   34.1090   49.6080 C   0  0  0  0  0  0  0  0  0  0  0  0
   63.3700   33.8750   48.4530 C   0  0  0  0  0  0  0  0  0  0  0  0
   62.7290   33.6610   47.2260 C   0  0  0  0  0  0  0  0  0  0  0  0
   63.5000   33.4360   46.1350 F   0  0  0  0  0  0  0  0  0  0  0  0
   57.6290   31.6030   45.1140 C   0  0  0  0  0  0  0  0  0  0  0  0
   56.5700   25.0630   46.7650 N   0  0  0  0  0  0  0  0  0  0  0  0
   55.8300   23.8040   46.7300 C   0  0  0  0  0  0  0  0  0  0  0  0
   55.9830   23.1380   45.3890 C   0  0  0  0  0  0  0  0  0  0  0  0
   56.7080   21.9450   45.2590 C   0  0  0  0  0  0  0  0  0  0  0  0
   56.8400   21.3550   44.0000 C   0  0  0  0  0  0  0  0  0  0  0  0
   56.2720   21.9350   42.9110 N   0  0  0  0  0  0  0  0  0  0  0  0
   55.5670   23.0920   43.0050 C   0  0  0  0  0  0  0  0  0  0  0  0
   55.4130   23.7160   44.2450 C   0  0  0  0  0  0  0  0  0  0  0  0
  1  2  2  0
  2  3  1  0
  3  4  1  0
  4  5  1  0
  5  6  2  0
  5  7  1  0
  7  8  2  0
  8  9  1  0
  9 10  2  0
 10 11  1  0
 11 12  1  0
 12 13  2  0
 12 14  2  0
 12 15  1  0
 15 16  1  0
 16 17  2  0
 17 18  1  0
 18 19  2  0
 19 20  1  0
 20 21  2  0
 21 22  1  0
 11 23  2  0
  2 24  1  0
 24 25  1  0
 25 26  1  0
 26 27  2  0
 27 28  1  0
 28 29  2  0
 29 30  1  0
 30 31  2  0
 23  7  1  0
 31 26  1  0
 21 16  1  0
M  CHG  3   4  -1  15  -1  24  -1
M  END
>  <UniqueID>  (1594) 
70

>  <SMILES>  (1594) 
O=C(C[N-]C(=O)c1cccc(S(=O)(=O)[N-]c2ccccc2F)c1)[N-]Cc1ccncc1

>  <Energy>  (1594) 
59.18136078978787

>  <Genealogy>  (1594) 
O=C(C[N-]C(=O)c1cccc(S(=O)(=O)[N-]c2ccccc2F)c1)[N-]Cc1ccncc1 (protonated)
O=C(C[N-]C(=O)c1cccc(S(=O)(=O)[N-]c2ccccc2F)c1)[N-]Cc1ccncc1 (3D coordinates assigned)
O=C(C[N-]C(=O)c1cccc(S(=O)(=O)[N-]c2ccccc2F)c1)[N-]Cc1ccncc1 (optimized conformer: 59.18136078978787 kcal/mol)

>  <smiles>  (1594) 
O=C(CNC(=O)c1cccc(S(=O)(=O)Nc2ccccc2F)c1)NCc1ccncc1

>  <score_type>  (1594) 
oracle

>  <origin>  (1594) 
adg

>  <m_score__min__energy>  (1594) 
-14.539999999999999

>  <m_primary>  (1594) 
energy

$$$$
90:0
     RDKit          3D

 23 25  0  0  0  0  0  0  0  0999 V2000
   59.2090   29.8770   48.1270 C   0  0  0  0  0  0  0  0  0  0  0  0
   58.6250   30.1910   46.9600 C   0  0  0  0  0  0  0  0  0  0  0  0
   58.3810   29.3230   45.8850 C   0  0  0  0  0  0  0  0  0  0  0  0
   58.4250   27.9780   45.8070 C   0  0  0  0  0  0  0  0  0  0  0  0
   57.2640   27.0780   45.9040 C   0  0  0  0  0  0  0  0  0  0  0  0
   57.2930   25.8410   46.4360 N   0  0  0  0  0  0  0  0  0  0  0  0
   55.9950   25.4690   46.4330 C   0  0  0  0  0  0  0  0  0  0  0  0
   55.6110   24.3450   46.8480 O   0  0  0  0  0  0  0  0  0  0  0  0
   55.1400   26.4000   45.9580 N   0  0  0  0  0  0  0  0  0  0  0  0
   55.9590   27.4160   45.6420 C   0  0  0  0  0  0  0  0  0  0  0  0
   55.5210   28.6310   45.1300 O   0  0  0  0  0  0  0  0  0  0  0  0
   58.0380   30.1250   44.8110 C   0  0  0  0  0  0  0  0  0  0  0  0
   58.0060   31.4230   45.2730 C   0  0  0  0  0  0  0  0  0  0  0  0
   57.6930   32.6150   44.4180 C   0  0  0  0  0  0  0  0  0  0  0  0
   58.3420   31.4690   46.5860 N   0  0  0  0  0  0  0  0  0  0  0  0
   58.4490   32.6850   47.4100 C   0  0  0  0  0  0  0  0  0  0  0  0
   59.8940   33.0650   47.6410 C   0  0  0  0  0  0  0  0  0  0  0  0
   60.8000   33.0490   46.5650 C   0  0  0  0  0  0  0  0  0  0  0  0
   62.1380   33.4050   46.7580 C   0  0  0  0  0  0  0  0  0  0  0  0
   62.5840   33.7910   48.0230 C   0  0  0  0  0  0  0  0  0  0  0  0
   61.6910   33.8290   49.0970 C   0  0  0  0  0  0  0  0  0  0  0  0
   60.3470   33.4750   48.9130 C   0  0  0  0  0  0  0  0  0  0  0  0
   59.4650   33.5290   49.9910 O   0  0  0  0  0  0  0  0  0  0  0  0
  1  2  2  0
  2  3  1  0
  3  4  2  3
  4  5  1  0
  5  6  1  0
  6  7  1  0
  7  8  2  0
  7  9  1  0
  9 10  1  0
 10 11  1  0
  3 12  1  0
 12 13  2  0
 13 14  1  0
 13 15  1  0
 15 16  1  0
 16 17  1  0
 17 18  2  0
 18 19  1  0
 19 20  2  0
 20 21  1  0
 21 22  2  0
 22 23  1  0
 15  2  1  0
 22 17  1  0
 10  5  2  0
M  CHG  3   6  -1   9  -1  11  -1
M  END
>  <UniqueID>  (1595) 
81

>  <SMILES>  (1595) 
C=c1c(=Cc2[n-]c(=O)[n-]c2[O-])cc(C)n1Cc1ccccc1O

>  <Energy>  (1595) 
107.76092620100647

>  <Genealogy>  (1595) 
C=c1c(=Cc2[n-]c(=O)[n-]c2[O-])cc(C)n1Cc1ccccc1O (protonated)
C=c1c(=Cc2[n-]c(=O)[n-]c2[O-])cc(C)n1Cc1ccccc1O (3D coordinates assigned)
C=c1c(=Cc2[n-]c(=O)[n-]c2[O-])cc(C)n1Cc1ccccc1O (optimized conformer: 107.76092620100647 kcal/mol)

>  <smiles>  (1595) 
C=c1c(=Cc2[nH]c(=O)[nH]c2O)cc(C)n1Cc1ccccc1O

>  <score_type>  (1595) 
oracle

>  <origin>  (1595) 
adg

>  <m_score__min__energy>  (1595) 
-15.18

>  <m_primary>  (1595) 
energy

$$$$
9:0
     RDKit          3D

 30 33  0  0  0  0  0  0  0  0999 V2000
   59.3430   30.0960   44.9830 C   0  0  0  0  0  0  0  0  0  0  0  0
   59.2110   29.7890   46.2830 C   0  0  0  0  0  0  0  0  0  0  0  0
   58.3230   28.8570   46.8290 C   0  0  0  0  0  0  0  0  0  0  0  0
   57.4590   28.0640   46.1680 C   0  0  0  0  0  0  0  0  0  0  0  0
   57.2870   26.6230   46.4630 C   0  0  0  0  0  0  0  0  0  0  0  0
   56.0340   25.9950   46.3660 C   0  0  0  0  0  0  0  0  0  0  0  0
   54.9040   26.7130   45.9900 O   0  0  0  0  0  0  0  0  0  0  0  0
   55.9200   24.6670   46.6220 N   0  0  0  0  0  0  0  0  0  0  0  0
   57.0040   23.9210   46.9550 C   0  0  0  0  0  0  0  0  0  0  0  0
   56.8740   22.6920   47.1910 O   0  0  0  0  0  0  0  0  0  0  0  0
   58.2310   24.4990   47.0260 N   0  0  0  0  0  0  0  0  0  0  0  0
   58.3980   25.8240   46.7810 C   0  0  0  0  0  0  0  0  0  0  0  0
   59.5520   26.3260   46.8540 O   0  0  0  0  0  0  0  0  0  0  0  0
   58.5300   28.8800   48.2020 C   0  0  0  0  0  0  0  0  0  0  0  0
   59.5220   29.8090   48.4380 C   0  0  0  0  0  0  0  0  0  0  0  0
   60.0680   30.1270   49.7980 C   0  0  0  0  0  0  0  0  0  0  0  0
   59.9210   30.3790   47.2770 N   0  0  0  0  0  0  0  0  0  0  0  0
   60.9510   31.3750   47.1320 C   0  0  0  0  0  0  0  0  0  0  0  0
   62.2730   31.0470   47.4680 C   0  0  0  0  0  0  0  0  0  0  0  0
   63.2840   32.0060   47.3860 C   0  0  0  0  0  0  0  0  0  0  0  0
   62.9840   33.3040   46.9730 C   0  0  0  0  0  0  0  0  0  0  0  0
   61.6730   33.6470   46.6350 C   0  0  0  0  0  0  0  0  0  0  0  0
   60.6470   32.6890   46.6990 C   0  0  0  0  0  0  0  0  0  0  0  0
   59.2700   33.0840   46.3210 C   0  0  0  0  0  0  0  0  0  0  0  0
   58.9900   33.4420   44.9940 C   0  0  0  0  0  0  0  0  0  0  0  0
   57.7010   33.8380   44.6310 C   0  0  0  0  0  0  0  0  0  0  0  0
   56.6960   33.8580   45.5970 C   0  0  0  0  0  0  0  0  0  0  0  0
   56.9720   33.4850   46.8750 N   0  0  0  0  0  0  0  0  0  0  0  0
   58.2170   33.0950   47.2570 C   0  0  0  0  0  0  0  0  0  0  0  0
   58.4090   32.7280   48.4470 O   0  0  0  0  0  0  0  0  0  0  0  0
  1  2  2  0
  2  3  1  0
  3  4  2  3
  4  5  1  0
  5  6  2  0
  6  7  1  0
  6  8  1  0
  8  9  1  0
  9 10  2  0
  9 11  1  0
 11 12  1  0
 12 13  2  0
  3 14  1  0
 14 15  2  0
 15 16  1  0
 15 17  1  0
 17 18  1  0
 18 19  2  0
 19 20  1  0
 20 21  2  0
 21 22  1  0
 22 23  2  0
 23 24  1  0
 24 25  2  0
 25 26  1  0
 26 27  2  0
 27 28  1  0
 28 29  1  0
 29 30  2  0
 17  2  1  0
 23 18  1  0
 29 24  1  0
 12  5  1  0
M  CHG  4   7  -1   8  -1  11  -1  28  -1
M  END
>  <UniqueID>  (1596) 
9

>  <SMILES>  (1596) 
C=c1c(=Cc2c([O-])[n-]c(=O)[n-]c2=O)cc(C)n1-c1ccccc1-c1ccc[n-]c1=O

>  <Energy>  (1596) 
101.47332029903019

>  <Genealogy>  (1596) 
C=c1c(=Cc2c([O-])[n-]c(=O)[n-]c2=O)cc(C)n1-c1ccccc1-c1ccc[n-]c1=O (protonated)
C=c1c(=Cc2c([O-])[n-]c(=O)[n-]c2=O)cc(C)n1-c1ccccc1-c1ccc[n-]c1=O (3D coordinates assigned)
C=c1c(=Cc2c([O-])[n-]c(=O)[n-]c2=O)cc(C)n1-c1ccccc1-c1ccc[n-]c1=O (optimized conformer: 101.47332029903019 kcal/mol)

>  <smiles>  (1596) 
C=c1c(=Cc2c(O)[nH]c(=O)[nH]c2=O)cc(C)n1-c1ccccc1-c1ccc[nH]c1=O

>  <score_type>  (1596) 
oracle

>  <origin>  (1596) 
adg

>  <m_score__min__energy>  (1596) 
-16.920000000000002

>  <m_primary>  (1596) 
energy

$$$$
10:0
     RDKit          3D

 29 31  0  0  0  0  0  0  0  0999 V2000
   58.8650   28.1290   47.9900 C   0  0  0  0  0  0  0  0  0  0  0  0
   58.7650   27.8020   46.6800 C   0  0  0  0  0  0  0  0  0  0  0  0
   59.4400   28.6080   45.7140 C   0  0  0  0  0  0  0  0  0  0  0  0
   60.3580   29.7090   46.0890 C   0  0  0  0  0  0  0  0  0  0  0  0
   61.5380   29.7030   45.6530 O   0  0  0  0  0  0  0  0  0  0  0  0
   59.9350   30.7770   46.9430 N   0  0  0  0  0  0  0  0  0  0  0  0
   59.4620   32.0680   46.4560 C   0  0  0  0  0  0  0  0  0  0  0  0
   57.9380   32.0620   46.3830 C   0  0  0  0  0  0  0  0  0  0  0  0
   57.4760   31.5360   45.0540 C   0  0  0  0  0  0  0  0  0  0  0  0
   56.6510   30.4540   45.0090 N   0  0  0  0  0  0  0  0  0  0  0  0
   56.2320   29.9210   43.8290 C   0  0  0  0  0  0  0  0  0  0  0  0
   56.6550   30.4770   42.6210 C   0  0  0  0  0  0  0  0  0  0  0  0
   57.5110   31.5790   42.6390 C   0  0  0  0  0  0  0  0  0  0  0  0
   57.9310   32.1140   43.8590 C   0  0  0  0  0  0  0  0  0  0  0  0
   59.2570   28.3730   44.3480 C   0  0  0  0  0  0  0  0  0  0  0  0
   58.4250   27.3550   43.9080 C   0  0  0  0  0  0  0  0  0  0  0  0
   58.2120   27.0830   42.1880 Cl  0  0  0  0  0  0  0  0  0  0  0  0
   57.7850   26.5290   44.8270 C   0  0  0  0  0  0  0  0  0  0  0  0
   57.9460   26.7090   46.2220 C   0  0  0  0  0  0  0  0  0  0  0  0
   57.3690   25.8180   47.0770 C   0  0  0  0  0  0  0  0  0  0  0  0
   56.2650   24.8950   46.7210 C   0  0  0  0  0  0  0  0  0  0  0  0
   55.1550   25.3660   46.0030 C   0  0  0  0  0  0  0  0  0  0  0  0
   55.0550   26.7090   45.6560 O   0  0  0  0  0  0  0  0  0  0  0  0
   54.1630   24.5100   45.6490 N   0  0  0  0  0  0  0  0  0  0  0  0
   54.2290   23.1900   45.9650 C   0  0  0  0  0  0  0  0  0  0  0  0
   53.2950   22.4170   45.6300 O   0  0  0  0  0  0  0  0  0  0  0  0
   55.3040   22.7050   46.6360 N   0  0  0  0  0  0  0  0  0  0  0  0
   56.3220   23.5200   47.0120 C   0  0  0  0  0  0  0  0  0  0  0  0
   57.3170   23.0300   47.6110 O   0  0  0  0  0  0  0  0  0  0  0  0
  1  2  2  0
  2  3  1  0
  3  4  1  0
  4  5  2  0
  4  6  1  0
  6  7  1  0
  7  8  1  0
  8  9  1  0
  9 10  2  0
 10 11  1  0
 11 12  2  0
 12 13  1  0
 13 14  2  0
  3 15  2  0
 15 16  1  0
 16 17  1  0
 16 18  2  0
 18 19  1  0
 19 20  2  0
 20 21  1  0
 21 22  2  0
 22 23  1  0
 22 24  1  0
 24 25  1  0
 25 26  2  0
 25 27  1  0
 27 28  1  0
 28 29  2  0
 19  2  1  0
 28 21  1  0
 14  9  1  0
M  CHG  4   6  -1  23  -1  24  -1  27  -1
M  END
>  <UniqueID>  (1597) 
10

>  <SMILES>  (1597) 
C=c1c(C(=O)[N-]CCc2ccccn2)cc(Cl)c/c1=C\c1c([O-])[n-]c(=O)[n-]c1=O

>  <Energy>  (1597) 
70.644230246607

>  <Genealogy>  (1597) 
C=c1c(C(=O)[N-]CCc2ccccn2)cc(Cl)cc1=Cc1c([O-])[n-]c(=O)[n-]c1=O (protonated)
C=c1c(C(=O)[N-]CCc2ccccn2)cc(Cl)c/c1=C\c1c([O-])[n-]c(=O)[n-]c1=O (cis-trans isomerization)
C=c1c(C(=O)[N-]CCc2ccccn2)cc(Cl)c/c1=C\c1c([O-])[n-]c(=O)[n-]c1=O (3D coordinates assigned)
C=c1c(C(=O)[N-]CCc2ccccn2)cc(Cl)c/c1=C\c1c([O-])[n-]c(=O)[n-]c1=O (optimized conformer: 70.644230246607 kcal/mol)

>  <smiles>  (1597) 
C=c1c(C(=O)NCCc2ccccn2)cc(Cl)cc1=Cc1c(O)[nH]c(=O)[nH]c1=O

>  <score_type>  (1597) 
oracle

>  <origin>  (1597) 
adg

>  <m_score__min__energy>  (1597) 
-17.27

>  <m_primary>  (1597) 
energy

$$$$
12:0
     RDKit          3D

 24 26  0  0  0  0  0  0  0  0999 V2000
   60.6560   31.9020   46.7450 C   0  0  0  0  0  0  0  0  0  0  0  0
   60.0710   33.2090   47.0340 N   0  0  0  0  0  0  0  0  0  0  0  0
   59.2960   33.9660   46.2340 C   0  0  0  0  0  0  0  0  0  0  0  0
   58.9140   33.5920   44.5220 S   0  0  0  0  0  0  0  0  0  0  0  0
   57.3550   32.7470   44.9350 C   0  0  0  0  0  0  0  0  0  0  0  0
   57.6580   31.3850   45.4660 C   0  0  0  0  0  0  0  0  0  0  0  0
   57.8020   31.2200   46.7080 O   0  0  0  0  0  0  0  0  0  0  0  0
   57.7790   30.2750   44.5640 N   0  0  0  0  0  0  0  0  0  0  0  0
   57.9190   28.9150   45.0050 C   0  0  0  0  0  0  0  0  0  0  0  0
   59.1950   28.3400   45.0360 C   0  0  0  0  0  0  0  0  0  0  0  0
   59.3640   27.0210   45.4520 C   0  0  0  0  0  0  0  0  0  0  0  0
   58.2590   26.2580   45.8300 C   0  0  0  0  0  0  0  0  0  0  0  0
   56.9610   26.7990   45.7830 C   0  0  0  0  0  0  0  0  0  0  0  0
   55.8020   25.9560   46.1760 C   0  0  0  0  0  0  0  0  0  0  0  0
   54.6260   26.3380   45.9330 O   0  0  0  0  0  0  0  0  0  0  0  0
   55.9850   24.7330   46.8090 O   0  0  0  0  0  0  0  0  0  0  0  0
   56.7940   28.1360   45.3490 C   0  0  0  0  0  0  0  0  0  0  0  0
   55.5220   28.6850   45.2260 O   0  0  0  0  0  0  0  0  0  0  0  0
   58.8070   35.0370   46.8860 N   0  0  0  0  0  0  0  0  0  0  0  0
   59.2560   34.9650   48.1320 N   0  0  0  0  0  0  0  0  0  0  0  0
   60.0190   33.8580   48.2150 C   0  0  0  0  0  0  0  0  0  0  0  0
   60.6390   33.3660   49.4890 C   0  0  0  0  0  0  0  0  0  0  0  0
   59.9140   32.2040   50.1540 C   0  0  0  0  0  0  0  0  0  0  0  0
   59.7910   33.6040   50.7290 C   0  0  0  0  0  0  0  0  0  0  0  0
  1  2  1  0
  2  3  1  0
  3  4  1  0
  4  5  1  0
  5  6  1  0
  6  7  2  0
  6  8  1  0
  8  9  1  0
  9 10  2  0
 10 11  1  0
 11 12  2  0
 12 13  1  0
 13 14  1  0
 14 15  2  0
 14 16  1  0
 13 17  2  0
 17 18  1  0
  3 19  2  0
 19 20  1  0
 20 21  2  0
 21 22  1  0
 22 23  1  0
 23 24  1  0
 21  2  1  0
 24 22  1  0
 17  9  1  0
M  CHG  2  16  -1  18  -1
M  END
>  <UniqueID>  (1598) 
12

>  <SMILES>  (1598) 
Cn1c(SCC(=O)Nc2cccc(C(=O)[O-])c2[O-])nnc1C1CC1

>  <Energy>  (1598) 
338.651006507248

>  <Genealogy>  (1598) 
Cn1c(SCC(=O)Nc2cccc(C(=O)[O-])c2[O-])nnc1C1CC1 (protonated)
Cn1c(SCC(=O)Nc2cccc(C(=O)[O-])c2[O-])nnc1C1CC1 (3D coordinates assigned)
Cn1c(SCC(=O)Nc2cccc(C(=O)[O-])c2[O-])nnc1C1CC1 (nonaromatic ring conformer: 338.651006507248 kcal/mol)

>  <smiles>  (1598) 
Cn1c(SCC(=O)Nc2cccc(C(=O)O)c2O)nnc1C1CC1

>  <score_type>  (1598) 
oracle

>  <origin>  (1598) 
adg

>  <m_score__min__energy>  (1598) 
-14.960000000000001

>  <m_primary>  (1598) 
energy

$$$$
14:0
     RDKit          3D

 34 37  0  0  0  0  0  0  0  0999 V2000
   53.9150   25.4700   45.8500 O   0  0  0  0  0  0  0  0  0  0  0  0
   54.8340   24.4200   45.8750 C   0  0  0  0  0  0  0  0  0  0  0  0
   54.4520   23.1710   45.3780 C   0  0  0  0  0  0  0  0  0  0  0  0
   55.3570   22.1110   45.3810 C   0  0  0  0  0  0  0  0  0  0  0  0
   56.6420   22.3100   45.8850 C   0  0  0  0  0  0  0  0  0  0  0  0
   56.9990   23.5280   46.3680 N   0  0  0  0  0  0  0  0  0  0  0  0
   56.1390   24.5880   46.3790 C   0  0  0  0  0  0  0  0  0  0  0  0
   56.5030   25.7420   46.8610 N   0  0  0  0  0  0  0  0  0  0  0  0
   56.6900   26.9620   46.1240 C   0  0  0  0  0  0  0  0  0  0  0  0
   55.7030   27.5570   45.6110 O   0  0  0  0  0  0  0  0  0  0  0  0
   58.0560   27.5220   45.9730 C   0  0  0  0  0  0  0  0  0  0  0  0
   59.1630   26.6650   46.1000 C   0  0  0  0  0  0  0  0  0  0  0  0
   60.4620   27.1440   45.9170 C   0  0  0  0  0  0  0  0  0  0  0  0
   60.6720   28.4870   45.6080 C   0  0  0  0  0  0  0  0  0  0  0  0
   59.5880   29.3600   45.5090 C   0  0  0  0  0  0  0  0  0  0  0  0
   58.2740   28.8980   45.7140 C   0  0  0  0  0  0  0  0  0  0  0  0
   57.1550   29.8010   45.6590 N   0  0  0  0  0  0  0  0  0  0  0  0
   57.0470   30.9880   44.8600 C   0  0  0  0  0  0  0  0  0  0  0  0
   56.3310   30.9890   43.8210 O   0  0  0  0  0  0  0  0  0  0  0  0
   57.8280   32.1940   45.2180 C   0  0  0  0  0  0  0  0  0  0  0  0
   57.5940   33.4170   44.5650 C   0  0  0  0  0  0  0  0  0  0  0  0
   58.3200   34.5570   44.9190 C   0  0  0  0  0  0  0  0  0  0  0  0
   59.2920   34.4900   45.9170 C   0  0  0  0  0  0  0  0  0  0  0  0
   59.5450   33.2800   46.5710 C   0  0  0  0  0  0  0  0  0  0  0  0
   60.7470   33.1940   47.8560 S   0  0  0  0  0  0  0  0  0  0  0  0
   61.0190   34.5890   48.3460 O   0  0  0  0  0  0  0  0  0  0  0  0
   62.0230   32.6030   47.3220 O   0  0  0  0  0  0  0  0  0  0  0  0
   60.1660   32.2090   49.1800 N   0  0  0  0  0  0  0  0  0  0  0  0
   58.7880   32.6020   49.5290 C   0  0  0  0  0  0  0  0  0  0  0  0
   58.1460   31.5550   50.4590 C   0  0  0  0  0  0  0  0  0  0  0  0
   58.2120   30.2070   50.0040 O   0  0  0  0  0  0  0  0  0  0  0  0
   58.9390   30.0500   48.8020 C   0  0  0  0  0  0  0  0  0  0  0  0
   60.2940   30.7670   48.8610 C   0  0  0  0  0  0  0  0  0  0  0  0
   58.8070   32.1370   46.2270 C   0  0  0  0  0  0  0  0  0  0  0  0
  1  2  1  0
  2  3  2  0
  3  4  1  0
  4  5  2  0
  5  6  1  0
  6  7  1  0
  7  8  2  0
  8  9  1  0
  9 10  2  0
  9 11  1  0
 11 12  2  0
 12 13  1  0
 13 14  2  0
 14 15  1  0
 15 16  2  0
 16 17  1  0
 17 18  1  0
 18 19  2  0
 18 20  1  0
 20 21  2  0
 21 22  1  0
 22 23  2  0
 23 24  1  0
 24 25  1  0
 25 26  2  0
 25 27  2  0
 25 28  1  0
 28 29  1  0
 29 30  1  0
 30 31  1  0
 31 32  1  0
 32 33  1  0
 24 34  2  0
  7  2  1  0
 16 11  1  0
 34 20  1  0
 33 28  1  0
M  CHG  2   6  -1  17  -1
M  END
>  <UniqueID>  (1599) 
14

>  <SMILES>  (1599) 
O=C([N-]c1ccccc1C(=O)/N=c1\[n-]cccc1O)c1cccc(S(=O)(=O)N2CCOCC2)c1

>  <Energy>  (1599) 
82.39063521321722

>  <Genealogy>  (1599) 
O=C([N-]c1ccccc1C(=O)N=c1[n-]cccc1O)c1cccc(S(=O)(=O)N2CCOCC2)c1 (protonated)
O=C([N-]c1ccccc1C(=O)/N=c1\[n-]cccc1O)c1cccc(S(=O)(=O)N2CCOCC2)c1 (cis-trans isomerization)
O=C([N-]c1ccccc1C(=O)/N=c1\[n-]cccc1O)c1cccc(S(=O)(=O)N2CCOCC2)c1 (3D coordinates assigned)
O=C([N-]c1ccccc1C(=O)/N=c1\[n-]cccc1O)c1cccc(S(=O)(=O)N2CCOCC2)c1 (nonaromatic ring conformer: 82.39063521321722 kcal/mol)

>  <smiles>  (1599) 
O=C(Nc1ccccc1C(=O)N=c1[nH]cccc1O)c1cccc(S(=O)(=O)N2CCOCC2)c1

>  <score_type>  (1599) 
oracle

>  <origin>  (1599) 
adg

>  <m_score__min__energy>  (1599) 
-14.640000000000001

>  <m_primary>  (1599) 
energy

$$$$
19:0
     RDKit          3D

 25 27  0  0  0  0  0  0  0  0999 V2000
   59.1840   30.2600   47.0150 C   0  0  0  0  0  0  0  0  0  0  0  0
   58.4690   31.0510   46.1990 C   0  0  0  0  0  0  0  0  0  0  0  0
   57.9180   30.6810   44.9680 C   0  0  0  0  0  0  0  0  0  0  0  0
   57.9440   29.4650   44.3900 C   0  0  0  0  0  0  0  0  0  0  0  0
   57.3990   28.2450   45.0270 C   0  0  0  0  0  0  0  0  0  0  0  0
   56.0190   28.1280   45.2520 C   0  0  0  0  0  0  0  0  0  0  0  0
   55.1480   29.1330   44.8510 O   0  0  0  0  0  0  0  0  0  0  0  0
   55.5220   27.0180   45.8590 N   0  0  0  0  0  0  0  0  0  0  0  0
   56.3420   26.0170   46.2690 C   0  0  0  0  0  0  0  0  0  0  0  0
   55.8580   24.9970   46.8240 O   0  0  0  0  0  0  0  0  0  0  0  0
   57.6820   26.1180   46.0870 N   0  0  0  0  0  0  0  0  0  0  0  0
   58.2300   27.2070   45.4870 C   0  0  0  0  0  0  0  0  0  0  0  0
   59.4820   27.2810   45.3670 O   0  0  0  0  0  0  0  0  0  0  0  0
   57.2950   31.8130   44.4630 C   0  0  0  0  0  0  0  0  0  0  0  0
   57.4960   32.8200   45.3850 C   0  0  0  0  0  0  0  0  0  0  0  0
   56.9810   34.2200   45.2380 C   0  0  0  0  0  0  0  0  0  0  0  0
   58.1920   32.3580   46.4510 N   0  0  0  0  0  0  0  0  0  0  0  0
   58.6180   33.1550   47.6100 C   0  0  0  0  0  0  0  0  0  0  0  0
   59.5420   34.2900   47.1620 C   0  0  0  0  0  0  0  0  0  0  0  0
   60.9770   33.9550   47.4670 C   0  0  0  0  0  0  0  0  0  0  0  0
   61.9060   33.8010   46.4240 C   0  0  0  0  0  0  0  0  0  0  0  0
   63.2460   33.5230   46.7110 C   0  0  0  0  0  0  0  0  0  0  0  0
   63.6690   33.4060   48.0380 C   0  0  0  0  0  0  0  0  0  0  0  0
   62.7530   33.5710   49.0810 C   0  0  0  0  0  0  0  0  0  0  0  0
   61.4120   33.8500   48.7980 C   0  0  0  0  0  0  0  0  0  0  0  0
  1  2  2  0
  2  3  1  0
  3  4  2  3
  4  5  1  0
  5  6  2  0
  6  7  1  0
  6  8  1  0
  8  9  1  0
  9 10  2  0
  9 11  1  0
 11 12  1  0
 12 13  2  0
  3 14  1  0
 14 15  2  0
 15 16  1  0
 15 17  1  0
 17 18  1  0
 18 19  1  0
 19 20  1  0
 20 21  2  0
 21 22  1  0
 22 23  2  0
 23 24  1  0
 24 25  2  0
 17  2  1  0
 25 20  1  0
 12  5  1  0
M  CHG  3   7  -1   8  -1  11  -1
M  END
>  <UniqueID>  (1600) 
19

>  <SMILES>  (1600) 
C=c1c(=Cc2c([O-])[n-]c(=O)[n-]c2=O)cc(C)n1CCc1ccccc1

>  <Energy>  (1600) 
78.69291836879458

>  <Genealogy>  (1600) 
C=c1c(=Cc2c([O-])[n-]c(=O)[n-]c2=O)cc(C)n1CCc1ccccc1 (protonated)
C=c1c(=Cc2c([O-])[n-]c(=O)[n-]c2=O)cc(C)n1CCc1ccccc1 (3D coordinates assigned)
C=c1c(=Cc2c([O-])[n-]c(=O)[n-]c2=O)cc(C)n1CCc1ccccc1 (optimized conformer: 78.69291836879458 kcal/mol)

>  <smiles>  (1600) 
C=c1c(=Cc2c(O)[nH]c(=O)[nH]c2=O)cc(C)n1CCc1ccccc1

>  <score_type>  (1600) 
oracle

>  <origin>  (1600) 
adg

>  <m_score__min__energy>  (1600) 
-16.07

>  <m_primary>  (1600) 
energy

$$$$
23:0
     RDKit          3D

 25 27  0  0  0  0  0  0  0  0999 V2000
   57.2010   33.5810   46.2850 N   0  0  0  0  0  0  0  0  0  0  0  0
   58.7930   34.2510   46.2380 S   0  0  0  0  0  0  0  0  0  0  0  0
   59.0590   34.8060   44.8670 O   0  0  0  0  0  0  0  0  0  0  0  0
   58.9000   35.3670   47.2400 O   0  0  0  0  0  0  0  0  0  0  0  0
   59.9670   32.9970   46.6220 C   0  0  0  0  0  0  0  0  0  0  0  0
   61.2060   33.3290   47.1870 C   0  0  0  0  0  0  0  0  0  0  0  0
   62.1300   32.3250   47.4890 C   0  0  0  0  0  0  0  0  0  0  0  0
   61.8300   30.9880   47.2100 C   0  0  0  0  0  0  0  0  0  0  0  0
   60.6130   30.6470   46.6090 C   0  0  0  0  0  0  0  0  0  0  0  0
   60.3340   29.2600   46.3510 N   0  0  0  0  0  0  0  0  0  0  0  0
   59.1610   28.7280   46.1500 C   0  0  0  0  0  0  0  0  0  0  0  0
   58.1790   29.4270   45.4900 N   0  0  0  0  0  0  0  0  0  0  0  0
   56.9370   28.9150   45.2500 C   0  0  0  0  0  0  0  0  0  0  0  0
   55.8960   29.7490   44.5620 C   0  0  0  0  0  0  0  0  0  0  0  0
   56.2900   31.1090   44.5390 O   0  0  0  0  0  0  0  0  0  0  0  0
   57.2370   31.3250   43.5160 C   0  0  0  0  0  0  0  0  0  0  0  0
   56.6680   27.6290   45.7120 C   0  0  0  0  0  0  0  0  0  0  0  0
   55.5240   26.9340   45.6200 N   0  0  0  0  0  0  0  0  0  0  0  0
   55.8510   25.7710   46.2370 C   0  0  0  0  0  0  0  0  0  0  0  0
   55.0330   24.8240   46.3670 O   0  0  0  0  0  0  0  0  0  0  0  0
   57.1220   25.7040   46.7070 N   0  0  0  0  0  0  0  0  0  0  0  0
   57.6190   26.9010   46.3570 C   0  0  0  0  0  0  0  0  0  0  0  0
   58.9050   27.4030   46.5890 C   0  0  0  0  0  0  0  0  0  0  0  0
   59.9370   26.5980   47.3310 C   0  0  0  0  0  0  0  0  0  0  0  0
   59.6690   31.6570   46.3440 C   0  0  0  0  0  0  0  0  0  0  0  0
  1  2  1  0
  2  3  2  0
  2  4  2  0
  2  5  1  0
  5  6  2  0
  6  7  1  0
  7  8  2  0
  8  9  1  0
  9 10  1  0
 10 11  2  0
 11 12  1  0
 12 13  1  0
 13 14  1  0
 14 15  1  0
 15 16  1  0
 13 17  2  0
 17 18  1  0
 18 19  1  0
 19 20  2  0
 19 21  1  0
 21 22  1  0
 22 23  2  0
 23 24  1  0
  9 25  2  0
 25  5  1  0
 23 11  1  0
 22 17  1  0
M  CHG  4   1  -1  12  -1  18  -1  21  -1
M  END
>  <UniqueID>  (1601) 
23

>  <SMILES>  (1601) 
COCc1[n-]/c(=N\c2cccc(S([NH-])(=O)=O)c2)c(C)c2[n-]c(=O)[n-]c12

>  <Energy>  (1601) 
82.82785741501311

>  <Genealogy>  (1601) 
COCc1[n-]c(=Nc2cccc(S([NH-])(=O)=O)c2)c(C)c2[n-]c(=O)[n-]c12 (protonated)
COCc1[n-]/c(=N\c2cccc(S([NH-])(=O)=O)c2)c(C)c2[n-]c(=O)[n-]c12 (cis-trans isomerization)
COCc1[n-]/c(=N\c2cccc(S([NH-])(=O)=O)c2)c(C)c2[n-]c(=O)[n-]c12 (3D coordinates assigned)
COCc1[n-]/c(=N\c2cccc(S([NH-])(=O)=O)c2)c(C)c2[n-]c(=O)[n-]c12 (optimized conformer: 82.82785741501311 kcal/mol)

>  <smiles>  (1601) 
COCc1[nH]c(=Nc2cccc(S(N)(=O)=O)c2)c(C)c2[nH]c(=O)[nH]c12

>  <score_type>  (1601) 
oracle

>  <origin>  (1601) 
adg

>  <m_score__min__energy>  (1601) 
-14.75

>  <m_primary>  (1601) 
energy

$$$$
35:0
     RDKit          3D

 32 35  0  0  0  0  0  0  0  0999 V2000
   60.5470   28.6030   47.2020 C   0  0  0  0  0  0  0  0  0  0  0  0
   59.6620   29.3760   46.5500 C   0  0  0  0  0  0  0  0  0  0  0  0
   58.6750   28.9400   45.6560 C   0  0  0  0  0  0  0  0  0  0  0  0
   58.4150   27.6640   45.2970 C   0  0  0  0  0  0  0  0  0  0  0  0
   57.2180   26.8840   45.6830 C   0  0  0  0  0  0  0  0  0  0  0  0
   57.2140   25.6400   46.1940 N   0  0  0  0  0  0  0  0  0  0  0  0
   55.9060   25.3920   46.4160 C   0  0  0  0  0  0  0  0  0  0  0  0
   55.4940   24.3040   46.8960 O   0  0  0  0  0  0  0  0  0  0  0  0
   55.0750   26.4020   46.0850 N   0  0  0  0  0  0  0  0  0  0  0  0
   55.9200   27.3380   45.6270 C   0  0  0  0  0  0  0  0  0  0  0  0
   55.5140   28.5850   45.1690 O   0  0  0  0  0  0  0  0  0  0  0  0
   58.0090   30.0840   45.2320 C   0  0  0  0  0  0  0  0  0  0  0  0
   58.6000   31.1530   45.8760 C   0  0  0  0  0  0  0  0  0  0  0  0
   58.1730   32.5800   45.7150 C   0  0  0  0  0  0  0  0  0  0  0  0
   59.6190   30.7280   46.6560 N   0  0  0  0  0  0  0  0  0  0  0  0
   60.4270   31.5620   47.5100 C   0  0  0  0  0  0  0  0  0  0  0  0
   61.6310   32.0840   47.0160 C   0  0  0  0  0  0  0  0  0  0  0  0
   62.4760   32.8240   47.8450 C   0  0  0  0  0  0  0  0  0  0  0  0
   62.1450   33.0340   49.1930 C   0  0  0  0  0  0  0  0  0  0  0  0
   63.0560   33.8070   50.0630 C   0  0  0  0  0  0  0  0  0  0  0  0
   62.7050   34.9460   50.4720 O   0  0  0  0  0  0  0  0  0  0  0  0
   64.3520   33.3150   50.4160 N   0  0  0  0  0  0  0  0  0  0  0  0
   65.2680   32.2170   50.0490 C   0  0  0  0  0  0  0  0  0  0  0  0
   66.4380   32.7190   50.8260 C   0  0  0  0  0  0  0  0  0  0  0  0
   65.4980   33.8180   51.1940 C   0  0  0  0  0  0  0  0  0  0  0  0
   60.9330   32.5240   49.6850 C   0  0  0  0  0  0  0  0  0  0  0  0
   60.0670   31.8040   48.8520 C   0  0  0  0  0  0  0  0  0  0  0  0
   58.8360   31.3250   49.4000 N   0  0  0  0  0  0  0  0  0  0  0  0
   58.7100   30.6680   50.9980 S   0  0  0  0  0  0  0  0  0  0  0  0
   57.3240   30.1170   51.1870 O   0  0  0  0  0  0  0  0  0  0  0  0
   58.9590   31.7370   52.0220 O   0  0  0  0  0  0  0  0  0  0  0  0
   59.8740   29.3380   51.2070 C   0  0  0  0  0  0  0  0  0  0  0  0
  1  2  2  0
  2  3  1  0
  3  4  2  0
  4  5  1  0
  5  6  1  0
  6  7  1  0
  7  8  2  0
  7  9  1  0
  9 10  1  0
 10 11  1  0
  3 12  1  0
 12 13  2  0
 13 14  1  0
 13 15  1  0
 15 16  1  0
 16 17  2  0
 17 18  1  0
 18 19  2  0
 19 20  1  0
 20 21  2  0
 20 22  1  0
 22 23  1  0
 23 24  1  0
 24 25  1  0
 19 26  1  0
 26 27  2  0
 27 28  1  0
 28 29  1  0
 29 30  2  0
 29 31  2  0
 29 32  1  0
 15  2  1  0
 27 16  1  0
 10  5  2  0
 25 22  1  0
M  CHG  4   6  -1   9  -1  11  -1  28  -1
M  END
>  <UniqueID>  (1602) 
33

>  <SMILES>  (1602) 
C=c1/c(=C/c2[n-]c(=O)[n-]c2[O-])cc(C)n1-c1ccc(C(=O)N2CCC2)cc1[N-]S(C)(=O)=O

>  <Energy>  (1602) 
171.39306772579948

>  <Genealogy>  (1602) 
C=c1c(=Cc2[n-]c(=O)[n-]c2[O-])cc(C)n1-c1ccc(C(=O)N2CCC2)cc1[N-]S(C)(=O)=O (protonated)
C=c1/c(=C/c2[n-]c(=O)[n-]c2[O-])cc(C)n1-c1ccc(C(=O)N2CCC2)cc1[N-]S(C)(=O)=O (cis-trans isomerization)
C=c1/c(=C/c2[n-]c(=O)[n-]c2[O-])cc(C)n1-c1ccc(C(=O)N2CCC2)cc1[N-]S(C)(=O)=O (3D coordinates assigned)
C=c1/c(=C/c2[n-]c(=O)[n-]c2[O-])cc(C)n1-c1ccc(C(=O)N2CCC2)cc1[N-]S(C)(=O)=O (nonaromatic ring conformer: 171.39306772579948 kcal/mol)

>  <smiles>  (1602) 
C=c1c(=Cc2[nH]c(=O)[nH]c2O)cc(C)n1-c1ccc(C(=O)N2CCC2)cc1NS(C)(=O)=O

>  <score_type>  (1602) 
oracle

>  <origin>  (1602) 
adg

>  <m_score__min__energy>  (1602) 
-17.920000000000002

>  <m_primary>  (1602) 
energy

$$$$
46:0
     RDKit          3D

 33 36  0  0  0  0  0  0  0  0999 V2000
   60.1020   28.8270   48.7180 C   0  0  0  0  0  0  0  0  0  0  0  0
   59.4400   29.8300   48.1200 C   0  0  0  0  0  0  0  0  0  0  0  0
   58.9710   29.8410   46.7950 C   0  0  0  0  0  0  0  0  0  0  0  0
   58.8270   28.8430   45.9000 C   0  0  0  0  0  0  0  0  0  0  0  0
   57.8070   27.7700   45.9550 C   0  0  0  0  0  0  0  0  0  0  0  0
   56.4780   28.0460   45.6030 C   0  0  0  0  0  0  0  0  0  0  0  0
   56.1170   29.3070   45.1380 O   0  0  0  0  0  0  0  0  0  0  0  0
   55.5290   27.0810   45.7140 N   0  0  0  0  0  0  0  0  0  0  0  0
   55.8380   25.8420   46.1740 C   0  0  0  0  0  0  0  0  0  0  0  0
   54.9450   24.9590   46.2530 O   0  0  0  0  0  0  0  0  0  0  0  0
   57.1070   25.5590   46.5590 N   0  0  0  0  0  0  0  0  0  0  0  0
   58.0910   26.4920   46.4810 C   0  0  0  0  0  0  0  0  0  0  0  0
   59.2450   26.2050   46.8950 O   0  0  0  0  0  0  0  0  0  0  0  0
   58.5800   31.1410   46.5330 C   0  0  0  0  0  0  0  0  0  0  0  0
   58.7230   31.8460   47.7070 C   0  0  0  0  0  0  0  0  0  0  0  0
   58.4090   33.3050   47.8500 C   0  0  0  0  0  0  0  0  0  0  0  0
   59.2490   31.0590   48.6770 N   0  0  0  0  0  0  0  0  0  0  0  0
   59.4370   31.4540   50.0840 C   0  0  0  0  0  0  0  0  0  0  0  0
   58.2450   31.0310   50.9090 C   0  0  0  0  0  0  0  0  0  0  0  0
   58.1630   29.7300   51.4350 C   0  0  0  0  0  0  0  0  0  0  0  0
   57.0780   29.3550   52.2340 C   0  0  0  0  0  0  0  0  0  0  0  0
   56.0550   30.2760   52.5260 C   0  0  0  0  0  0  0  0  0  0  0  0
   54.9280   29.9030   53.4100 C   0  0  0  0  0  0  0  0  0  0  0  0
   55.1160   29.7830   54.6510 O   0  0  0  0  0  0  0  0  0  0  0  0
   53.6050   29.8010   52.8580 N   0  0  0  0  0  0  0  0  0  0  0  0
   52.7700   30.7480   52.5290 C   0  0  0  0  0  0  0  0  0  0  0  0
   51.8490   31.3160   53.4340 C   0  0  0  0  0  0  0  0  0  0  0  0
   50.9800   32.3190   52.9910 C   0  0  0  0  0  0  0  0  0  0  0  0
   51.0200   32.7380   51.7000 N   0  0  0  0  0  0  0  0  0  0  0  0
   51.8880   32.2010   50.8040 C   0  0  0  0  0  0  0  0  0  0  0  0
   52.7710   31.1950   51.2010 C   0  0  0  0  0  0  0  0  0  0  0  0
   56.1320   31.5710   51.9870 C   0  0  0  0  0  0  0  0  0  0  0  0
   57.2120   31.9410   51.1820 C   0  0  0  0  0  0  0  0  0  0  0  0
  1  2  2  0
  2  3  1  0
  3  4  2  3
  4  5  1  0
  5  6  2  0
  6  7  1  0
  6  8  1  0
  8  9  1  0
  9 10  2  0
  9 11  1  0
 11 12  1  0
 12 13  2  0
  3 14  1  0
 14 15  2  0
 15 16  1  0
 15 17  1  0
 17 18  1  0
 18 19  1  0
 19 20  2  0
 20 21  1  0
 21 22  2  0
 22 23  1  0
 23 24  2  0
 23 25  1  0
 25 26  2  3
 26 27  1  0
 27 28  2  0
 28 29  1  0
 29 30  1  0
 30 31  2  0
 22 32  1  0
 32 33  2  0
 17  2  1  0
 33 19  1  0
 12  5  1  0
 31 26  1  0
M  CHG  4   7  -1   8  -1  11  -1  29  -1
M  END
>  <UniqueID>  (1603) 
42

>  <SMILES>  (1603) 
C=c1c(=Cc2c([O-])[n-]c(=O)[n-]c2=O)cc(C)n1Cc1ccc(C(=O)N=c2cc[n-]cc2)cc1

>  <Energy>  (1603) 
108.557631623308

>  <Genealogy>  (1603) 
C=c1c(=Cc2c([O-])[n-]c(=O)[n-]c2=O)cc(C)n1Cc1ccc(C(=O)N=c2cc[n-]cc2)cc1 (protonated)
C=c1c(=Cc2c([O-])[n-]c(=O)[n-]c2=O)cc(C)n1Cc1ccc(C(=O)N=c2cc[n-]cc2)cc1 (3D coordinates assigned)
C=c1c(=Cc2c([O-])[n-]c(=O)[n-]c2=O)cc(C)n1Cc1ccc(C(=O)N=c2cc[n-]cc2)cc1 (optimized conformer: 108.557631623308 kcal/mol)

>  <smiles>  (1603) 
C=c1c(=Cc2c(O)[nH]c(=O)[nH]c2=O)cc(C)n1Cc1ccc(C(=O)N=c2cc[nH]cc2)cc1

>  <score_type>  (1603) 
oracle

>  <origin>  (1603) 
adg

>  <m_score__min__energy>  (1603) 
-19.239999999999998

>  <m_primary>  (1603) 
energy

$$$$
50:0
     RDKit          3D

 32 35  0  0  0  0  0  0  0  0999 V2000
   58.4850   27.1990   47.8680 O   0  0  0  0  0  0  0  0  0  0  0  0
   58.0670   27.0050   46.6960 C   0  0  0  0  0  0  0  0  0  0  0  0
   58.6600   27.7470   45.6190 N   0  0  0  0  0  0  0  0  0  0  0  0
   58.1860   28.9920   45.0850 C   0  0  0  0  0  0  0  0  0  0  0  0
   57.5010   28.9870   43.8640 C   0  0  0  0  0  0  0  0  0  0  0  0
   57.0310   30.1820   43.3140 C   0  0  0  0  0  0  0  0  0  0  0  0
   57.2310   31.3900   43.9860 C   0  0  0  0  0  0  0  0  0  0  0  0
   57.8850   31.4070   45.2260 C   0  0  0  0  0  0  0  0  0  0  0  0
   58.1530   32.9330   46.0770 S   0  0  0  0  0  0  0  0  0  0  0  0
   57.4550   32.8790   47.4080 O   0  0  0  0  0  0  0  0  0  0  0  0
   57.5420   34.0510   45.2760 O   0  0  0  0  0  0  0  0  0  0  0  0
   59.8460   33.2790   46.3380 N   0  0  0  0  0  0  0  0  0  0  0  0
   60.0480   34.2730   47.3890 C   0  0  0  0  0  0  0  0  0  0  0  0
   61.4400   34.0260   47.9510 C   0  0  0  0  0  0  0  0  0  0  0  0
   61.8000   32.6080   47.5310 C   0  0  0  0  0  0  0  0  0  0  0  0
   60.5880   32.0970   46.7690 C   0  0  0  0  0  0  0  0  0  0  0  0
   58.3530   30.2050   45.7750 C   0  0  0  0  0  0  0  0  0  0  0  0
   56.9560   26.0510   46.4700 C   0  0  0  0  0  0  0  0  0  0  0  0
   55.7430   26.4770   45.9140 C   0  0  0  0  0  0  0  0  0  0  0  0
   55.5240   27.8170   45.6180 O   0  0  0  0  0  0  0  0  0  0  0  0
   54.7580   25.5780   45.6710 N   0  0  0  0  0  0  0  0  0  0  0  0
   54.9120   24.2610   45.9580 C   0  0  0  0  0  0  0  0  0  0  0  0
   53.9620   23.4690   45.7160 O   0  0  0  0  0  0  0  0  0  0  0  0
   56.0810   23.8070   46.5110 N   0  0  0  0  0  0  0  0  0  0  0  0
   56.2450   22.4030   46.7970 C   0  0  0  0  0  0  0  0  0  0  0  0
   56.0680   21.9220   48.1050 C   0  0  0  0  0  0  0  0  0  0  0  0
   56.2230   20.5600   48.3810 C   0  0  0  0  0  0  0  0  0  0  0  0
   56.5550   19.6710   47.3550 C   0  0  0  0  0  0  0  0  0  0  0  0
   56.7320   20.1430   46.0500 C   0  0  0  0  0  0  0  0  0  0  0  0
   56.5770   21.5030   45.7710 C   0  0  0  0  0  0  0  0  0  0  0  0
   57.1000   24.6860   46.7760 C   0  0  0  0  0  0  0  0  0  0  0  0
   58.1880   24.2670   47.2630 O   0  0  0  0  0  0  0  0  0  0  0  0
  1  2  2  0
  2  3  1  0
  3  4  1  0
  4  5  2  0
  5  6  1  0
  6  7  2  0
  7  8  1  0
  8  9  1  0
  9 10  2  0
  9 11  2  0
  9 12  1  0
 12 13  1  0
 13 14  1  0
 14 15  1  0
 15 16  1  0
  8 17  2  0
  2 18  1  0
 18 19  2  0
 19 20  1  0
 19 21  1  0
 21 22  1  0
 22 23  2  0
 22 24  1  0
 24 25  1  0
 25 26  2  0
 26 27  1  0
 27 28  2  0
 28 29  1  0
 29 30  2  0
 24 31  1  0
 31 32  2  0
 17  4  1  0
 31 18  1  0
 16 12  1  0
 30 25  1  0
M  CHG  3   3  -1  20  -1  21  -1
M  END
>  <UniqueID>  (1604) 
45

>  <SMILES>  (1604) 
O=C([N-]c1cccc(S(=O)(=O)N2CCCC2)c1)c1c([O-])[n-]c(=O)n(-c2ccccc2)c1=O

>  <Energy>  (1604) 
73.22678730289321

>  <Genealogy>  (1604) 
O=C([N-]c1cccc(S(=O)(=O)N2CCCC2)c1)c1c([O-])[n-]c(=O)n(-c2ccccc2)c1=O (protonated)
O=C([N-]c1cccc(S(=O)(=O)N2CCCC2)c1)c1c([O-])[n-]c(=O)n(-c2ccccc2)c1=O (3D coordinates assigned)
O=C([N-]c1cccc(S(=O)(=O)N2CCCC2)c1)c1c([O-])[n-]c(=O)n(-c2ccccc2)c1=O (nonaromatic ring conformer: 73.22678730289321 kcal/mol)

>  <smiles>  (1604) 
O=C(Nc1cccc(S(=O)(=O)N2CCCC2)c1)c1c(O)[nH]c(=O)n(-c2ccccc2)c1=O

>  <score_type>  (1604) 
oracle

>  <origin>  (1604) 
adg

>  <m_score__min__energy>  (1604) 
-15.35

>  <m_primary>  (1604) 
energy

$$$$
53:0
     RDKit          3D

 28 31  0  0  0  0  0  0  0  0999 V2000
   55.5110   31.6280   52.2450 C   0  0  0  0  0  0  0  0  0  0  0  0
   55.0140   30.4660   52.6960 C   0  0  0  0  0  0  0  0  0  0  0  0
   53.6670   30.1790   52.9470 C   0  0  0  0  0  0  0  0  0  0  0  0
   52.6080   30.9820   52.7270 C   0  0  0  0  0  0  0  0  0  0  0  0
   51.9430   31.1280   51.4190 C   0  0  0  0  0  0  0  0  0  0  0  0
   52.0320   30.2130   50.4390 N   0  0  0  0  0  0  0  0  0  0  0  0
   51.3590   30.7800   49.4150 C   0  0  0  0  0  0  0  0  0  0  0  0
   51.2080   30.2100   48.3030 O   0  0  0  0  0  0  0  0  0  0  0  0
   50.8680   32.0110   49.6730 N   0  0  0  0  0  0  0  0  0  0  0  0
   51.2560   32.2240   50.9410 C   0  0  0  0  0  0  0  0  0  0  0  0
   51.0280   33.4120   51.6250 O   0  0  0  0  0  0  0  0  0  0  0  0
   53.6290   28.8730   53.4200 C   0  0  0  0  0  0  0  0  0  0  0  0
   54.9330   28.4210   53.4400 C   0  0  0  0  0  0  0  0  0  0  0  0
   55.3540   27.0500   53.8760 C   0  0  0  0  0  0  0  0  0  0  0  0
   55.7740   29.3890   53.0130 N   0  0  0  0  0  0  0  0  0  0  0  0
   57.2010   29.2650   52.8850 C   0  0  0  0  0  0  0  0  0  0  0  0
   57.8230   29.5700   51.6650 C   0  0  0  0  0  0  0  0  0  0  0  0
   59.2170   29.4470   51.5190 C   0  0  0  0  0  0  0  0  0  0  0  0
   59.8560   29.7640   50.2620 N   0  0  0  0  0  0  0  0  0  0  0  0
   60.4100   28.6980   49.4190 C   0  0  0  0  0  0  0  0  0  0  0  0
   60.4790   29.1570   47.9580 C   0  0  0  0  0  0  0  0  0  0  0  0
   61.2680   30.3900   47.7940 N   0  0  0  0  0  0  0  0  0  0  0  0
   61.1700   31.3500   48.9130 C   0  0  0  0  0  0  0  0  0  0  0  0
   59.9200   31.1510   49.7830 C   0  0  0  0  0  0  0  0  0  0  0  0
   59.9780   29.0060   52.6170 C   0  0  0  0  0  0  0  0  0  0  0  0
   59.3600   28.7040   53.8330 C   0  0  0  0  0  0  0  0  0  0  0  0
   57.9760   28.8330   53.9700 C   0  0  0  0  0  0  0  0  0  0  0  0
   57.3930   28.5570   55.1630 F   0  0  0  0  0  0  0  0  0  0  0  0
  1  2  2  0
  2  3  1  0
  3  4  2  0
  4  5  1  0
  5  6  1  0
  6  7  1  0
  7  8  2  0
  7  9  1  0
  9 10  1  0
 10 11  1  0
  3 12  1  0
 12 13  2  0
 13 14  1  0
 13 15  1  0
 15 16  1  0
 16 17  2  0
 17 18  1  0
 18 19  1  0
 19 20  1  0
 20 21  1  0
 21 22  1  0
 22 23  1  0
 23 24  1  0
 18 25  2  0
 25 26  1  0
 26 27  2  0
 27 28  1  0
 15  2  1  0
 27 16  1  0
 10  5  2  0
 24 19  1  0
M  CHG  3   6  -1   9  -1  11  -1
M  END
>  <UniqueID>  (1605) 
48

>  <SMILES>  (1605) 
C=c1/c(=C/c2[n-]c(=O)[n-]c2[O-])cc(C)n1-c1cc(N2CCNCC2)ccc1F

>  <Energy>  (1605) 
128.92858072512598

>  <Genealogy>  (1605) 
C=c1c(=Cc2[n-]c(=O)[n-]c2[O-])cc(C)n1-c1cc(N2CCNCC2)ccc1F (protonated)
C=c1/c(=C/c2[n-]c(=O)[n-]c2[O-])cc(C)n1-c1cc(N2CCNCC2)ccc1F (cis-trans isomerization)
C=c1/c(=C/c2[n-]c(=O)[n-]c2[O-])cc(C)n1-c1cc(N2CCNCC2)ccc1F (3D coordinates assigned)
C=c1/c(=C/c2[n-]c(=O)[n-]c2[O-])cc(C)n1-c1cc(N2CCNCC2)ccc1F (nonaromatic ring conformer: 128.92858072512598 kcal/mol)

>  <smiles>  (1605) 
C=c1c(=Cc2[nH]c(=O)[nH]c2O)cc(C)n1-c1cc(N2CCNCC2)ccc1F

>  <score_type>  (1605) 
oracle

>  <origin>  (1605) 
adg

>  <m_score__min__energy>  (1605) 
-16

>  <m_primary>  (1605) 
energy

$$$$
59:0
     RDKit          3D

 32 35  0  0  0  0  0  0  0  0999 V2000
   55.8210   29.6860   55.1420 O   0  0  0  0  0  0  0  0  0  0  0  0
   54.8520   29.9880   54.3940 C   0  0  0  0  0  0  0  0  0  0  0  0
   53.4760   30.0990   54.9770 C   0  0  0  0  0  0  0  0  0  0  0  0
   52.4620   30.0310   53.9270 N   0  0  0  0  0  0  0  0  0  0  0  0
   51.7900   31.1400   53.3090 C   0  0  0  0  0  0  0  0  0  0  0  0
   51.3950   32.0870   54.0400 O   0  0  0  0  0  0  0  0  0  0  0  0
   51.5870   31.2450   51.8530 C   0  0  0  0  0  0  0  0  0  0  0  0
   51.8390   30.2560   50.9150 C   0  0  0  0  0  0  0  0  0  0  0  0
   51.4810   30.7820   49.6940 C   0  0  0  0  0  0  0  0  0  0  0  0
   51.0180   32.0500   49.9570 C   0  0  0  0  0  0  0  0  0  0  0  0
   50.5500   32.9360   48.9960 O   0  0  0  0  0  0  0  0  0  0  0  0
   51.0660   32.3440   51.2700 N   0  0  0  0  0  0  0  0  0  0  0  0
   55.0570   30.2050   52.9900 N   0  0  0  0  0  0  0  0  0  0  0  0
   56.2880   30.6810   52.4170 C   0  0  0  0  0  0  0  0  0  0  0  0
   57.3130   29.7970   52.0310 C   0  0  0  0  0  0  0  0  0  0  0  0
   58.5190   30.2890   51.5260 C   0  0  0  0  0  0  0  0  0  0  0  0
   58.7220   31.6710   51.4060 C   0  0  0  0  0  0  0  0  0  0  0  0
   60.2430   32.2930   50.7610 S   0  0  0  0  0  0  0  0  0  0  0  0
   60.7190   33.4260   51.6290 O   0  0  0  0  0  0  0  0  0  0  0  0
   61.2830   31.2080   50.8040 O   0  0  0  0  0  0  0  0  0  0  0  0
   60.0590   32.8600   49.1190 N   0  0  0  0  0  0  0  0  0  0  0  0
   59.9670   34.3280   49.1010 C   0  0  0  0  0  0  0  0  0  0  0  0
   60.0530   34.8280   47.6580 C   0  0  0  0  0  0  0  0  0  0  0  0
   59.1310   34.0610   46.7450 C   0  0  0  0  0  0  0  0  0  0  0  0
   58.8540   34.5620   45.4640 C   0  0  0  0  0  0  0  0  0  0  0  0
   58.0400   33.8430   44.5850 C   0  0  0  0  0  0  0  0  0  0  0  0
   57.5010   32.6150   44.9750 C   0  0  0  0  0  0  0  0  0  0  0  0
   57.7800   32.1000   46.2440 C   0  0  0  0  0  0  0  0  0  0  0  0
   58.6110   32.8050   47.1280 C   0  0  0  0  0  0  0  0  0  0  0  0
   58.8520   32.2660   48.5180 C   0  0  0  0  0  0  0  0  0  0  0  0
   57.7110   32.5550   51.8020 C   0  0  0  0  0  0  0  0  0  0  0  0
   56.5050   32.0630   52.3100 C   0  0  0  0  0  0  0  0  0  0  0  0
  1  2  2  0
  2  3  1  0
  3  4  1  0
  4  5  1  0
  5  6  2  0
  5  7  1  0
  7  8  2  0
  8  9  1  0
  9 10  2  0
 10 11  1  0
 10 12  1  0
  2 13  1  0
 13 14  1  0
 14 15  2  0
 15 16  1  0
 16 17  2  0
 17 18  1  0
 18 19  2  0
 18 20  2  0
 18 21  1  0
 21 22  1  0
 22 23  1  0
 23 24  1  0
 24 25  2  0
 25 26  1  0
 26 27  2  0
 27 28  1  0
 28 29  2  0
 29 30  1  0
 17 31  1  0
 31 32  2  0
 12  7  1  0
 32 14  1  0
 30 21  1  0
 29 24  1  0
M  CHG  3   4  -1  11  -1  12  -1
M  END
>  <UniqueID>  (1606) 
54

>  <SMILES>  (1606) 
O=C(C[N-]C(=O)c1ccc([O-])[n-]1)Nc1ccc(S(=O)(=O)N2CCc3ccccc3C2)cc1

>  <Energy>  (1606) 
83.042828299458

>  <Genealogy>  (1606) 
O=C(C[N-]C(=O)c1ccc([O-])[n-]1)Nc1ccc(S(=O)(=O)N2CCc3ccccc3C2)cc1 (protonated)
O=C(C[N-]C(=O)c1ccc([O-])[n-]1)Nc1ccc(S(=O)(=O)N2CCc3ccccc3C2)cc1 (3D coordinates assigned)
O=C(C[N-]C(=O)c1ccc([O-])[n-]1)Nc1ccc(S(=O)(=O)N2CCc3ccccc3C2)cc1 (nonaromatic ring conformer: 83.042828299458 kcal/mol)

>  <smiles>  (1606) 
O=C(CNC(=O)c1ccc(O)[nH]1)Nc1ccc(S(=O)(=O)N2CCc3ccccc3C2)cc1

>  <score_type>  (1606) 
oracle

>  <origin>  (1606) 
adg

>  <m_score__min__energy>  (1606) 
-17.34

>  <m_primary>  (1606) 
energy

$$$$
60:0
     RDKit          3D

 31 34  0  0  0  0  0  0  0  0999 V2000
   60.1820   34.8580   47.7340 O   0  0  0  0  0  0  0  0  0  0  0  0
   60.1230   33.6250   47.4720 C   0  0  0  0  0  0  0  0  0  0  0  0
   60.9650   32.6950   48.1740 N   0  0  0  0  0  0  0  0  0  0  0  0
   62.1010   33.0780   48.9680 C   0  0  0  0  0  0  0  0  0  0  0  0
   61.9570   33.8710   50.1230 C   0  0  0  0  0  0  0  0  0  0  0  0
   63.0810   34.2490   50.8640 C   0  0  0  0  0  0  0  0  0  0  0  0
   64.3570   33.8540   50.4540 C   0  0  0  0  0  0  0  0  0  0  0  0
   64.5100   33.0880   49.2960 C   0  0  0  0  0  0  0  0  0  0  0  0
   63.3890   32.7060   48.5530 C   0  0  0  0  0  0  0  0  0  0  0  0
   59.1520   33.1410   46.4760 C   0  0  0  0  0  0  0  0  0  0  0  0
   58.4380   33.9860   45.6280 C   0  0  0  0  0  0  0  0  0  0  0  0
   57.4390   33.0330   44.6700 S   0  0  0  0  0  0  0  0  0  0  0  0
   57.9530   31.5910   45.3680 C   0  0  0  0  0  0  0  0  0  0  0  0
   57.4480   30.2220   45.0110 C   0  0  0  0  0  0  0  0  0  0  0  0
   58.4560   29.1600   45.2170 N   0  0  0  0  0  0  0  0  0  0  0  0
   58.6660   28.7690   46.6330 C   0  0  0  0  0  0  0  0  0  0  0  0
   57.9060   27.4880   47.0280 C   0  0  0  0  0  0  0  0  0  0  0  0
   58.0330   26.4430   46.0080 N   0  0  0  0  0  0  0  0  0  0  0  0
   57.3580   25.1870   46.2090 C   0  0  0  0  0  0  0  0  0  0  0  0
   57.2640   24.7150   47.3750 O   0  0  0  0  0  0  0  0  0  0  0  0
   56.7690   24.4240   45.0530 C   0  0  0  0  0  0  0  0  0  0  0  0
   55.2760   24.3300   45.1650 C   0  0  0  0  0  0  0  0  0  0  0  0
   54.5650   23.2220   44.8890 N   0  0  0  0  0  0  0  0  0  0  0  0
   53.2970   23.5890   45.1800 C   0  0  0  0  0  0  0  0  0  0  0  0
   52.3180   22.8100   45.0450 O   0  0  0  0  0  0  0  0  0  0  0  0
   53.1610   24.8550   45.6320 N   0  0  0  0  0  0  0  0  0  0  0  0
   54.4250   25.3080   45.6200 C   0  0  0  0  0  0  0  0  0  0  0  0
   54.7940   26.5840   46.0250 O   0  0  0  0  0  0  0  0  0  0  0  0
   58.8200   26.7170   44.8030 C   0  0  0  0  0  0  0  0  0  0  0  0
   58.3740   28.0600   44.2250 C   0  0  0  0  0  0  0  0  0  0  0  0
   58.8810   31.8150   46.3220 N   0  0  0  0  0  0  0  0  0  0  0  0
  1  2  2  0
  2  3  1  0
  3  4  1  0
  4  5  2  0
  5  6  1  0
  6  7  2  0
  7  8  1  0
  8  9  2  0
  2 10  1  0
 10 11  2  0
 11 12  1  0
 12 13  1  0
 13 14  1  0
 14 15  1  0
 15 16  1  0
 16 17  1  0
 17 18  1  0
 18 19  1  0
 19 20  2  0
 19 21  1  0
 21 22  1  0
 22 23  1  0
 23 24  1  0
 24 25  2  0
 24 26  1  0
 26 27  1  0
 27 28  1  0
 18 29  1  0
 29 30  1  0
 13 31  2  0
  9  4  1  0
 31 10  1  0
 30 15  1  0
 27 22  2  0
M  CHG  3  23  -1  26  -1  28  -1
M  END
>  <UniqueID>  (1607) 
55

>  <SMILES>  (1607) 
O=C(Nc1ccccc1)c1csc(CN2CCN(C(=O)Cc3[n-]c(=O)[n-]c3[O-])CC2)n1

>  <Energy>  (1607) 
123.6316764817201

>  <Genealogy>  (1607) 
O=C(Nc1ccccc1)c1csc(CN2CCN(C(=O)Cc3[n-]c(=O)[n-]c3[O-])CC2)n1 (protonated)
O=C(Nc1ccccc1)c1csc(CN2CCN(C(=O)Cc3[n-]c(=O)[n-]c3[O-])CC2)n1 (3D coordinates assigned)
O=C(Nc1ccccc1)c1csc(CN2CCN(C(=O)Cc3[n-]c(=O)[n-]c3[O-])CC2)n1 (nonaromatic ring conformer: 123.6316764817201 kcal/mol)

>  <smiles>  (1607) 
O=C(Nc1ccccc1)c1csc(CN2CCN(C(=O)Cc3[nH]c(=O)[nH]c3O)CC2)n1

>  <score_type>  (1607) 
oracle

>  <origin>  (1607) 
adg

>  <m_score__min__energy>  (1607) 
-16.09

>  <m_primary>  (1607) 
energy

$$$$
61:0
     RDKit          3D

 30 33  0  0  0  0  0  0  0  0999 V2000
   58.5910   29.5210   47.5480 C   0  0  0  0  0  0  0  0  0  0  0  0
   58.3330   30.3010   46.4870 C   0  0  0  0  0  0  0  0  0  0  0  0
   57.4050   30.0580   45.4600 C   0  0  0  0  0  0  0  0  0  0  0  0
   56.7000   28.9530   45.1490 C   0  0  0  0  0  0  0  0  0  0  0  0
   57.0340   27.5800   45.5550 C   0  0  0  0  0  0  0  0  0  0  0  0
   58.2930   27.1410   45.7300 N   0  0  0  0  0  0  0  0  0  0  0  0
   58.1250   25.8920   46.2160 C   0  0  0  0  0  0  0  0  0  0  0  0
   59.0920   25.1380   46.4950 O   0  0  0  0  0  0  0  0  0  0  0  0
   56.8380   25.5190   46.3910 N   0  0  0  0  0  0  0  0  0  0  0  0
   56.1610   26.6040   45.9830 C   0  0  0  0  0  0  0  0  0  0  0  0
   54.7760   26.7100   46.0260 O   0  0  0  0  0  0  0  0  0  0  0  0
   57.3130   31.2340   44.7340 C   0  0  0  0  0  0  0  0  0  0  0  0
   58.2210   32.1170   45.2830 C   0  0  0  0  0  0  0  0  0  0  0  0
   58.4530   33.5140   44.7950 C   0  0  0  0  0  0  0  0  0  0  0  0
   58.8410   31.5530   46.3440 N   0  0  0  0  0  0  0  0  0  0  0  0
   59.8180   32.1950   47.1820 C   0  0  0  0  0  0  0  0  0  0  0  0
   61.1380   32.3470   46.7360 C   0  0  0  0  0  0  0  0  0  0  0  0
   62.0900   32.9670   47.5490 C   0  0  0  0  0  0  0  0  0  0  0  0
   61.7380   33.4320   48.8270 C   0  0  0  0  0  0  0  0  0  0  0  0
   62.7480   34.0970   49.6800 C   0  0  0  0  0  0  0  0  0  0  0  0
   62.6830   35.3450   49.8460 O   0  0  0  0  0  0  0  0  0  0  0  0
   63.8120   33.3520   50.3040 N   0  0  0  0  0  0  0  0  0  0  0  0
   64.3290   33.7540   51.6180 C   0  0  0  0  0  0  0  0  0  0  0  0
   65.8500   34.0120   51.5550 C   0  0  0  0  0  0  0  0  0  0  0  0
   66.5200   33.3070   50.4440 N   0  0  0  0  0  0  0  0  0  0  0  0
   65.8850   32.0190   50.1450 C   0  0  0  0  0  0  0  0  0  0  0  0
   64.4860   32.2680   49.5740 C   0  0  0  0  0  0  0  0  0  0  0  0
   60.4110   33.2940   49.2650 C   0  0  0  0  0  0  0  0  0  0  0  0
   59.4580   32.6750   48.4510 C   0  0  0  0  0  0  0  0  0  0  0  0
   58.1840   32.5360   48.8990 F   0  0  0  0  0  0  0  0  0  0  0  0
  1  2  2  0
  2  3  1  0
  3  4  2  0
  4  5  1  0
  5  6  1  0
  6  7  1  0
  7  8  2  0
  7  9  1  0
  9 10  1  0
 10 11  1  0
  3 12  1  0
 12 13  2  0
 13 14  1  0
 13 15  1  0
 15 16  1  0
 16 17  2  0
 17 18  1  0
 18 19  2  0
 19 20  1  0
 20 21  2  0
 20 22  1  0
 22 23  1  0
 23 24  1  0
 24 25  1  0
 25 26  1  0
 26 27  1  0
 19 28  1  0
 28 29  2  0
 29 30  1  0
 15  2  1  0
 29 16  1  0
 10  5  2  0
 27 22  1  0
M  CHG  3   6  -1   9  -1  11  -1
M  END
>  <UniqueID>  (1608) 
56

>  <SMILES>  (1608) 
C=c1/c(=C\c2[n-]c(=O)[n-]c2[O-])cc(C)n1-c1ccc(C(=O)N2CCNCC2)cc1F

>  <Energy>  (1608) 
137.33972385888205

>  <Genealogy>  (1608) 
C=c1c(=Cc2[n-]c(=O)[n-]c2[O-])cc(C)n1-c1ccc(C(=O)N2CCNCC2)cc1F (protonated)
C=c1/c(=C\c2[n-]c(=O)[n-]c2[O-])cc(C)n1-c1ccc(C(=O)N2CCNCC2)cc1F (cis-trans isomerization)
C=c1/c(=C\c2[n-]c(=O)[n-]c2[O-])cc(C)n1-c1ccc(C(=O)N2CCNCC2)cc1F (3D coordinates assigned)
C=c1/c(=C\c2[n-]c(=O)[n-]c2[O-])cc(C)n1-c1ccc(C(=O)N2CCNCC2)cc1F (nonaromatic ring conformer: 137.33972385888205 kcal/mol)

>  <smiles>  (1608) 
C=c1c(=Cc2[nH]c(=O)[nH]c2O)cc(C)n1-c1ccc(C(=O)N2CCNCC2)cc1F

>  <score_type>  (1608) 
oracle

>  <origin>  (1608) 
adg

>  <m_score__min__energy>  (1608) 
-15.74

>  <m_primary>  (1608) 
energy

$$$$
65:0
     RDKit          3D

 31 34  0  0  0  0  0  0  0  0999 V2000
   64.0310   32.9480   46.5410 O   0  0  0  0  0  0  0  0  0  0  0  0
   63.1860   32.1230   47.2980 C   0  0  0  0  0  0  0  0  0  0  0  0
   61.8940   32.8640   47.6930 C   0  0  1  0  0  0  0  0  0  0  0  0
   62.1180   33.7640   48.9220 C   0  0  0  0  0  0  0  0  0  0  0  0
   60.8650   34.5910   49.3110 C   0  0  0  0  0  0  0  0  0  0  0  0
   59.8230   34.6580   48.2510 N   0  0  2  0  0  0  0  0  0  0  0  0
   58.9060   33.5250   48.2530 C   0  0  0  0  0  0  0  0  0  0  0  0
   58.5150   33.0040   49.3360 O   0  0  0  0  0  0  0  0  0  0  0  0
   58.3890   32.9680   46.9900 C   0  0  0  0  0  0  0  0  0  0  0  0
   57.8580   33.8060   45.9960 C   0  0  0  0  0  0  0  0  0  0  0  0
   57.4350   33.2690   44.7760 C   0  0  0  0  0  0  0  0  0  0  0  0
   57.5530   31.8980   44.5360 C   0  0  0  0  0  0  0  0  0  0  0  0
   58.0930   31.0560   45.5190 C   0  0  0  0  0  0  0  0  0  0  0  0
   58.3300   29.6710   45.2330 N   0  0  0  0  0  0  0  0  0  0  0  0
   59.5310   29.0590   45.2900 C   0  0  0  0  0  0  0  0  0  0  0  0
   60.8190   29.7400   45.6390 C   0  0  0  0  0  0  0  0  0  0  0  0
   59.3920   27.7050   45.0600 C   0  0  0  0  0  0  0  0  0  0  0  0
   58.0370   27.4740   44.8550 C   0  0  0  0  0  0  0  0  0  0  0  0
   57.4620   26.2880   44.5690 C   0  0  0  0  0  0  0  0  0  0  0  0
   56.9130   25.3760   45.5880 C   0  0  0  0  0  0  0  0  0  0  0  0
   57.5600   24.2820   46.0260 N   0  0  0  0  0  0  0  0  0  0  0  0
   56.6800   23.7200   46.8820 C   0  0  0  0  0  0  0  0  0  0  0  0
   56.9370   22.6700   47.5280 O   0  0  0  0  0  0  0  0  0  0  0  0
   55.5030   24.3710   46.9960 N   0  0  0  0  0  0  0  0  0  0  0  0
   55.6610   25.4100   46.1620 C   0  0  0  0  0  0  0  0  0  0  0  0
   54.6640   26.3410   45.8980 O   0  0  0  0  0  0  0  0  0  0  0  0
   57.4060   28.7170   44.9680 C   0  0  0  0  0  0  0  0  0  0  0  0
   56.0900   28.9620   44.8620 C   0  0  0  0  0  0  0  0  0  0  0  0
   58.4950   31.5910   46.7490 C   0  0  0  0  0  0  0  0  0  0  0  0
   60.4530   34.8610   46.9270 C   0  0  0  0  0  0  0  0  0  0  0  0
   61.3510   33.6800   46.4990 C   0  0  0  0  0  0  0  0  0  0  0  0
  1  2  1  0
  3  2  1  6
  3  4  1  0
  4  5  1  0
  5  6  1  0
  6  7  1  6
  7  8  2  0
  7  9  1  0
  9 10  2  0
 10 11  1  0
 11 12  2  0
 12 13  1  0
 13 14  1  0
 14 15  1  0
 15 16  1  0
 15 17  2  0
 17 18  1  0
 18 19  2  0
 19 20  1  0
 20 21  1  0
 21 22  1  0
 22 23  2  0
 22 24  1  0
 24 25  1  0
 25 26  1  0
 18 27  1  0
 27 28  2  0
 13 29  2  0
  6 30  1  0
 30 31  1  0
 31  3  1  0
 29  9  1  0
 27 14  1  0
 25 20  2  0
M  CHG  4   6   1  21  -1  24  -1  26  -1
M  END
>  <UniqueID>  (1609) 
60

>  <SMILES>  (1609) 
C=c1/c(=C/c2[n-]c(=O)[n-]c2[O-])cc(C)n1-c1cccc(C(=O)[NH+]2CCC(CO)CC2)c1

>  <Energy>  (1609) 
145.49568738863312

>  <Genealogy>  (1609) 
C=c1c(=Cc2[n-]c(=O)[n-]c2[O-])cc(C)n1-c1cccc(C(=O)[NH+]2CCC(CO)CC2)c1 (protonated)
C=c1/c(=C/c2[n-]c(=O)[n-]c2[O-])cc(C)n1-c1cccc(C(=O)[NH+]2CCC(CO)CC2)c1 (cis-trans isomerization)
C=c1/c(=C/c2[n-]c(=O)[n-]c2[O-])cc(C)n1-c1cccc(C(=O)[NH+]2CCC(CO)CC2)c1 (3D coordinates assigned)
C=c1/c(=C/c2[n-]c(=O)[n-]c2[O-])cc(C)n1-c1cccc(C(=O)[NH+]2CCC(CO)CC2)c1 (nonaromatic ring conformer: 145.49568738863312 kcal/mol)

>  <smiles>  (1609) 
C=c1c(=Cc2[nH]c(=O)[nH]c2O)cc(C)n1-c1cccc(C(=O)N2CCC(CO)CC2)c1

>  <score_type>  (1609) 
oracle

>  <origin>  (1609) 
adg

>  <m_score__min__energy>  (1609) 
-15.44

>  <m_primary>  (1609) 
energy

$$$$
68:0
     RDKit          3D

 33 36  0  0  0  0  0  0  0  0999 V2000
   59.1950   29.2800   45.5740 C   0  0  0  0  0  0  0  0  0  0  0  0
   59.2300   28.4970   46.6640 C   0  0  0  0  0  0  0  0  0  0  0  0
   58.8230   27.1560   46.7590 C   0  0  0  0  0  0  0  0  0  0  0  0
   58.1570   26.3690   45.8920 C   0  0  0  0  0  0  0  0  0  0  0  0
   56.7980   25.8370   46.0830 C   0  0  0  0  0  0  0  0  0  0  0  0
   56.5070   24.5440   46.3170 N   0  0  0  0  0  0  0  0  0  0  0  0
   55.1570   24.5150   46.2710 C   0  0  0  0  0  0  0  0  0  0  0  0
   54.4950   23.4620   46.4630 O   0  0  0  0  0  0  0  0  0  0  0  0
   54.5750   25.7010   45.9930 N   0  0  0  0  0  0  0  0  0  0  0  0
   55.6290   26.5220   45.8630 C   0  0  0  0  0  0  0  0  0  0  0  0
   55.5250   27.8720   45.5470 O   0  0  0  0  0  0  0  0  0  0  0  0
   59.2290   26.7170   48.0080 C   0  0  0  0  0  0  0  0  0  0  0  0
   59.8070   27.7950   48.6460 C   0  0  0  0  0  0  0  0  0  0  0  0
   60.3940   27.7580   50.0240 C   0  0  0  0  0  0  0  0  0  0  0  0
   59.7980   28.8780   47.8390 N   0  0  0  0  0  0  0  0  0  0  0  0
   60.4420   30.1310   48.1310 C   0  0  0  0  0  0  0  0  0  0  0  0
   61.5620   30.1750   48.9730 C   0  0  0  0  0  0  0  0  0  0  0  0
   62.2030   31.3920   49.2230 C   0  0  0  0  0  0  0  0  0  0  0  0
   61.7290   32.5700   48.6380 C   0  0  0  0  0  0  0  0  0  0  0  0
   60.6020   32.5410   47.8020 C   0  0  0  0  0  0  0  0  0  0  0  0
   60.0840   33.7780   47.1830 C   0  0  0  0  0  0  0  0  0  0  0  0
   60.6080   34.8890   47.4620 O   0  0  0  0  0  0  0  0  0  0  0  0
   58.9920   33.7240   46.2540 N   0  0  0  0  0  0  0  0  0  0  0  0
   57.6930   33.2070   46.6940 C   0  0  0  0  0  0  0  0  0  0  0  0
   56.6570   33.3140   45.5670 C   0  0  0  0  0  0  0  0  0  0  0  0
   57.1900   32.8020   44.2850 N   0  0  0  0  0  0  0  0  0  0  0  0
   57.2610   31.3230   44.2810 C   0  0  0  0  0  0  0  0  0  0  0  0
   56.8390   30.7650   42.9540 C   0  0  0  0  0  0  0  0  0  0  0  0
   56.1810   29.4990   42.8810 N   0  0  0  0  0  0  0  0  0  0  0  0
   57.0120   31.4380   41.9030 O   0  0  0  0  0  0  0  0  0  0  0  0
   58.4740   33.4360   43.8660 C   0  0  0  0  0  0  0  0  0  0  0  0
   59.1160   34.3430   44.9350 C   0  0  0  0  0  0  0  0  0  0  0  0
   59.9780   31.3110   47.5380 C   0  0  0  0  0  0  0  0  0  0  0  0
  1  2  2  0
  2  3  1  0
  3  4  2  3
  4  5  1  0
  5  6  1  0
  6  7  1  0
  7  8  2  0
  7  9  1  0
  9 10  1  0
 10 11  1  0
  3 12  1  0
 12 13  2  0
 13 14  1  0
 13 15  1  0
 15 16  1  0
 16 17  2  0
 17 18  1  0
 18 19  2  0
 19 20  1  0
 20 21  1  0
 21 22  2  0
 21 23  1  0
 23 24  1  0
 24 25  1  0
 25 26  1  0
 26 27  1  0
 27 28  1  0
 28 29  1  0
 28 30  2  0
 26 31  1  0
 31 32  1  0
 20 33  2  0
 15  2  1  0
 33 16  1  0
 10  5  2  0
 32 23  1  0
M  CHG  3   6  -1   9  -1  11  -1
M  END
>  <UniqueID>  (1610) 
62

>  <SMILES>  (1610) 
C=c1c(=Cc2[n-]c(=O)[n-]c2[O-])cc(C)n1-c1cccc(C(=O)N2CCN(CC(N)=O)CC2)c1

>  <Energy>  (1610) 
142.54371907536733

>  <Genealogy>  (1610) 
C=c1c(=Cc2[n-]c(=O)[n-]c2[O-])cc(C)n1-c1cccc(C(=O)N2CCN(CC(N)=O)CC2)c1 (protonated)
C=c1c(=Cc2[n-]c(=O)[n-]c2[O-])cc(C)n1-c1cccc(C(=O)N2CCN(CC(N)=O)CC2)c1 (3D coordinates assigned)
C=c1c(=Cc2[n-]c(=O)[n-]c2[O-])cc(C)n1-c1cccc(C(=O)N2CCN(CC(N)=O)CC2)c1 (nonaromatic ring conformer: 142.54371907536733 kcal/mol)

>  <smiles>  (1610) 
C=c1c(=Cc2[nH]c(=O)[nH]c2O)cc(C)n1-c1cccc(C(=O)N2CCN(CC(N)=O)CC2)c1

>  <score_type>  (1610) 
oracle

>  <origin>  (1610) 
adg

>  <m_score__min__energy>  (1610) 
-17.23

>  <m_primary>  (1610) 
energy

$$$$
69:0
     RDKit          3D

 31 34  0  0  0  0  0  0  0  0999 V2000
   59.6730   26.8530   48.1010 C   0  0  0  0  0  0  0  0  0  0  0  0
   59.6140   28.0680   47.5310 C   0  0  0  0  0  0  0  0  0  0  0  0
   59.1340   28.3610   46.2440 C   0  0  0  0  0  0  0  0  0  0  0  0
   58.4360   27.6150   45.3650 C   0  0  0  0  0  0  0  0  0  0  0  0
   57.2330   26.8270   45.6750 C   0  0  0  0  0  0  0  0  0  0  0  0
   57.2400   25.5940   46.2150 N   0  0  0  0  0  0  0  0  0  0  0  0
   55.9320   25.3460   46.4430 C   0  0  0  0  0  0  0  0  0  0  0  0
   55.5230   24.2630   46.9370 O   0  0  0  0  0  0  0  0  0  0  0  0
   55.0970   26.3540   46.1090 N   0  0  0  0  0  0  0  0  0  0  0  0
   55.9390   27.2880   45.6390 C   0  0  0  0  0  0  0  0  0  0  0  0
   55.5330   28.5380   45.1900 O   0  0  0  0  0  0  0  0  0  0  0  0
   59.4980   29.6680   45.9860 C   0  0  0  0  0  0  0  0  0  0  0  0
   60.1080   30.1540   47.1240 C   0  0  0  0  0  0  0  0  0  0  0  0
   60.6270   31.5360   47.2580 C   0  0  0  0  0  0  0  0  0  0  0  0
   61.8540   31.7240   47.4630 O   0  0  0  0  0  0  0  0  0  0  0  0
   59.7580   32.6710   47.0910 N   0  0  0  0  0  0  0  0  0  0  0  0
   58.4390   32.7150   47.7310 C   0  0  0  0  0  0  0  0  0  0  0  0
   57.3810   33.2780   46.7620 C   0  0  0  0  0  0  0  0  0  0  0  0
   57.9160   34.2550   45.7790 N   0  0  0  0  0  0  0  0  0  0  0  0
   58.0600   33.6620   44.4370 C   0  0  0  0  0  0  0  0  0  0  0  0
   59.1610   34.9110   46.2280 C   0  0  0  0  0  0  0  0  0  0  0  0
   60.2860   33.8920   46.4770 C   0  0  0  0  0  0  0  0  0  0  0  0
   60.1760   29.1850   48.0710 N   0  0  0  0  0  0  0  0  0  0  0  0
   60.7400   29.3400   49.4240 C   0  0  0  0  0  0  0  0  0  0  0  0
   60.1360   30.5130   50.1610 C   0  0  0  0  0  0  0  0  0  0  0  0
   60.9240   31.5910   50.6080 C   0  0  0  0  0  0  0  0  0  0  0  0
   60.3420   32.6470   51.3160 C   0  0  0  0  0  0  0  0  0  0  0  0
   58.9740   32.6340   51.5990 C   0  0  0  0  0  0  0  0  0  0  0  0
   58.2490   33.9610   52.4880 Cl  0  0  0  0  0  0  0  0  0  0  0  0
   58.1860   31.5600   51.1790 C   0  0  0  0  0  0  0  0  0  0  0  0
   58.7640   30.5010   50.4700 C   0  0  0  0  0  0  0  0  0  0  0  0
  1  2  2  0
  2  3  1  0
  3  4  2  3
  4  5  1  0
  5  6  1  0
  6  7  1  0
  7  8  2  0
  7  9  1  0
  9 10  1  0
 10 11  1  0
  3 12  1  0
 12 13  2  0
 13 14  1  0
 14 15  2  0
 14 16  1  0
 16 17  1  0
 17 18  1  0
 18 19  1  0
 19 20  1  0
 19 21  1  0
 21 22  1  0
 13 23  1  0
 23 24  1  0
 24 25  1  0
 25 26  2  0
 26 27  1  0
 27 28  2  0
 28 29  1  0
 28 30  1  0
 30 31  2  0
 23  2  1  0
 31 25  1  0
 10  5  2  0
 22 16  1  0
M  CHG  3   6  -1   9  -1  11  -1
M  END
>  <UniqueID>  (1611) 
63

>  <SMILES>  (1611) 
C=c1c(=Cc2[n-]c(=O)[n-]c2[O-])cc(C(=O)N2CCN(C)CC2)n1Cc1ccc(Cl)cc1

>  <Energy>  (1611) 
136.68707790629773

>  <Genealogy>  (1611) 
C=c1c(=Cc2[n-]c(=O)[n-]c2[O-])cc(C(=O)N2CCN(C)CC2)n1Cc1ccc(Cl)cc1 (protonated)
C=c1c(=Cc2[n-]c(=O)[n-]c2[O-])cc(C(=O)N2CCN(C)CC2)n1Cc1ccc(Cl)cc1 (3D coordinates assigned)
C=c1c(=Cc2[n-]c(=O)[n-]c2[O-])cc(C(=O)N2CCN(C)CC2)n1Cc1ccc(Cl)cc1 (nonaromatic ring conformer: 136.68707790629773 kcal/mol)

>  <smiles>  (1611) 
C=c1c(=Cc2[nH]c(=O)[nH]c2O)cc(C(=O)N2CCN(C)CC2)n1Cc1ccc(Cl)cc1

>  <score_type>  (1611) 
oracle

>  <origin>  (1611) 
adg

>  <m_score__min__energy>  (1611) 
-16.079999999999998

>  <m_primary>  (1611) 
energy

$$$$
82:0
     RDKit          3D

 29 32  0  0  0  0  0  0  0  0999 V2000
   54.2190   28.2850   53.4760 C   0  0  0  0  0  0  0  0  0  0  0  0
   54.5840   29.4620   52.9440 C   0  0  0  0  0  0  0  0  0  0  0  0
   53.7440   30.3800   52.3070 C   0  0  0  0  0  0  0  0  0  0  0  0
   52.4110   30.2850   52.1330 C   0  0  0  0  0  0  0  0  0  0  0  0
   51.7040   30.7590   50.9290 C   0  0  0  0  0  0  0  0  0  0  0  0
   51.6420   30.0580   49.7850 N   0  0  0  0  0  0  0  0  0  0  0  0
   50.9770   30.8820   48.9460 C   0  0  0  0  0  0  0  0  0  0  0  0
   50.7040   30.5650   47.7590 O   0  0  0  0  0  0  0  0  0  0  0  0
   50.6340   32.0740   49.4780 N   0  0  0  0  0  0  0  0  0  0  0  0
   51.1110   31.9870   50.7300 C   0  0  0  0  0  0  0  0  0  0  0  0
   51.0450   33.0240   51.6520 O   0  0  0  0  0  0  0  0  0  0  0  0
   54.5440   31.4600   51.9540 C   0  0  0  0  0  0  0  0  0  0  0  0
   55.8230   31.1570   52.3700 C   0  0  0  0  0  0  0  0  0  0  0  0
   56.9930   32.0870   52.2410 C   0  0  0  0  0  0  0  0  0  0  0  0
   55.8490   29.9510   52.9800 N   0  0  0  0  0  0  0  0  0  0  0  0
   57.0050   29.3250   53.5660 C   0  0  0  0  0  0  0  0  0  0  0  0
   56.9660   28.8850   54.8940 C   0  0  0  0  0  0  0  0  0  0  0  0
   58.0660   28.2300   55.4440 C   0  0  0  0  0  0  0  0  0  0  0  0
   59.1990   28.0140   54.6560 C   0  0  0  0  0  0  0  0  0  0  0  0
   59.2270   28.4480   53.3670 N   0  0  0  0  0  0  0  0  0  0  0  0
   58.1710   29.1030   52.8110 C   0  0  0  0  0  0  0  0  0  0  0  0
   58.2560   29.5440   51.4900 O   0  0  0  0  0  0  0  0  0  0  0  0
   59.4090   30.2200   50.9990 C   0  0  0  0  0  0  0  0  0  0  0  0
   59.1060   30.7970   49.6500 C   0  0  0  0  0  0  0  0  0  0  0  0
   58.8510   32.1700   49.5100 C   0  0  0  0  0  0  0  0  0  0  0  0
   58.6100   32.7170   48.2440 C   0  0  0  0  0  0  0  0  0  0  0  0
   58.6310   31.8970   47.1130 C   0  0  0  0  0  0  0  0  0  0  0  0
   58.8980   30.5310   47.2440 C   0  0  0  0  0  0  0  0  0  0  0  0
   59.1400   29.9820   48.5060 C   0  0  0  0  0  0  0  0  0  0  0  0
  1  2  2  0
  2  3  1  0
  3  4  2  0
  4  5  1  0
  5  6  1  0
  6  7  1  0
  7  8  2  0
  7  9  1  0
  9 10  1  0
 10 11  1  0
  3 12  1  0
 12 13  2  0
 13 14  1  0
 13 15  1  0
 15 16  1  0
 16 17  2  0
 17 18  1  0
 18 19  2  0
 19 20  1  0
 20 21  2  0
 21 22  1  0
 22 23  1  0
 23 24  1  0
 24 25  2  0
 25 26  1  0
 26 27  2  0
 27 28  1  0
 28 29  2  0
 15  2  1  0
 21 16  1  0
 29 24  1  0
 10  5  2  0
M  CHG  4   6  -1   9  -1  11  -1  20   1
M  END
>  <UniqueID>  (1612) 
74

>  <SMILES>  (1612) 
C=c1/c(=C/c2[n-]c(=O)[n-]c2[O-])cc(C)n1-c1ccc[nH+]c1OCc1ccccc1

>  <Energy>  (1612) 
125.21357823828752

>  <Genealogy>  (1612) 
C=c1c(=Cc2[n-]c(=O)[n-]c2[O-])cc(C)n1-c1ccc[nH+]c1OCc1ccccc1 (protonated)
C=c1/c(=C/c2[n-]c(=O)[n-]c2[O-])cc(C)n1-c1ccc[nH+]c1OCc1ccccc1 (cis-trans isomerization)
C=c1/c(=C/c2[n-]c(=O)[n-]c2[O-])cc(C)n1-c1ccc[nH+]c1OCc1ccccc1 (3D coordinates assigned)
C=c1/c(=C/c2[n-]c(=O)[n-]c2[O-])cc(C)n1-c1ccc[nH+]c1OCc1ccccc1 (optimized conformer: 125.21357823828752 kcal/mol)

>  <smiles>  (1612) 
C=c1c(=Cc2[nH]c(=O)[nH]c2O)cc(C)n1-c1cccnc1OCc1ccccc1

>  <score_type>  (1612) 
oracle

>  <origin>  (1612) 
adg

>  <m_score__min__energy>  (1612) 
-15.609999999999999

>  <m_primary>  (1612) 
energy

$$$$
84:0
     RDKit          3D

 28 30  0  0  0  0  0  0  0  0999 V2000
   61.0890   28.5410   50.4340 C   0  0  0  0  0  0  0  0  0  0  0  0
   60.7260   29.7510   51.0890 O   0  0  0  0  0  0  0  0  0  0  0  0
   59.4090   30.1250   51.4050 C   0  0  0  0  0  0  0  0  0  0  0  0
   58.7450   29.6020   52.5310 C   0  0  0  0  0  0  0  0  0  0  0  0
   57.4320   29.9780   52.8200 C   0  0  0  0  0  0  0  0  0  0  0  0
   56.7650   30.9000   52.0020 C   0  0  0  0  0  0  0  0  0  0  0  0
   55.4070   31.2840   52.2540 N   0  0  0  0  0  0  0  0  0  0  0  0
   54.2390   30.4870   52.0130 C   0  0  0  0  0  0  0  0  0  0  0  0
   54.1060   29.4010   52.6380 O   0  0  0  0  0  0  0  0  0  0  0  0
   53.1980   30.8890   51.0050 C   0  0  0  0  0  0  0  0  0  0  0  0
   52.0160   31.5090   51.6850 C   0  0  0  0  0  0  0  0  0  0  0  0
   51.7550   31.3930   53.0000 N   0  0  0  0  0  0  0  0  0  0  0  0
   50.6480   32.1490   53.1650 C   0  0  0  0  0  0  0  0  0  0  0  0
   50.0830   32.2910   54.2800 O   0  0  0  0  0  0  0  0  0  0  0  0
   50.1960   32.7470   52.0410 N   0  0  0  0  0  0  0  0  0  0  0  0
   51.0770   32.3350   51.1150 C   0  0  0  0  0  0  0  0  0  0  0  0
   51.0280   32.7110   49.7780 O   0  0  0  0  0  0  0  0  0  0  0  0
   57.4100   31.4040   50.8690 C   0  0  0  0  0  0  0  0  0  0  0  0
   58.7260   31.0260   50.5620 C   0  0  0  0  0  0  0  0  0  0  0  0
   59.5010   31.7050   49.1200 S   0  0  0  0  0  0  0  0  0  0  0  0
   59.4780   30.6990   48.0040 O   0  0  0  0  0  0  0  0  0  0  0  0
   60.9430   31.9920   49.4380 O   0  0  0  0  0  0  0  0  0  0  0  0
   58.7300   33.1810   48.5820 N   0  0  0  0  0  0  0  0  0  0  0  0
   59.6670   34.3170   48.4640 C   0  0  0  0  0  0  0  0  0  0  0  0
   60.3840   34.4070   47.1000 C   0  0  0  0  0  0  0  0  0  0  0  0
   59.5330   33.9250   45.9160 C   0  0  0  0  0  0  0  0  0  0  0  0
   58.0500   33.9150   46.2620 C   0  0  0  0  0  0  0  0  0  0  0  0
   57.8030   32.9680   47.4430 C   0  0  0  0  0  0  0  0  0  0  0  0
  1  2  1  0
  2  3  1  0
  3  4  2  0
  4  5  1  0
  5  6  2  0
  6  7  1  0
  7  8  1  0
  8  9  2  0
  8 10  1  0
 10 11  1  0
 11 12  1  0
 12 13  1  0
 13 14  2  0
 13 15  1  0
 15 16  1  0
 16 17  1  0
  6 18  1  0
 18 19  2  0
 19 20  1  0
 20 21  2  0
 20 22  2  0
 20 23  1  0
 23 24  1  0
 24 25  1  0
 25 26  1  0
 26 27  1  0
 27 28  1  0
 19  3  1  0
 28 23  1  0
 16 11  2  0
M  CHG  4   7  -1  12  -1  15  -1  17  -1
M  END
>  <UniqueID>  (1613) 
76

>  <SMILES>  (1613) 
COc1ccc([N-]C(=O)Cc2[n-]c(=O)[n-]c2[O-])cc1S(=O)(=O)N1CCCCC1

>  <Energy>  (1613) 
87.32905903006359

>  <Genealogy>  (1613) 
COc1ccc([N-]C(=O)Cc2[n-]c(=O)[n-]c2[O-])cc1S(=O)(=O)N1CCCCC1 (protonated)
COc1ccc([N-]C(=O)Cc2[n-]c(=O)[n-]c2[O-])cc1S(=O)(=O)N1CCCCC1 (3D coordinates assigned)
COc1ccc([N-]C(=O)Cc2[n-]c(=O)[n-]c2[O-])cc1S(=O)(=O)N1CCCCC1 (nonaromatic ring conformer: 87.32905903006359 kcal/mol)

>  <smiles>  (1613) 
COc1ccc(NC(=O)Cc2[nH]c(=O)[nH]c2O)cc1S(=O)(=O)N1CCCCC1

>  <score_type>  (1613) 
oracle

>  <origin>  (1613) 
adg

>  <m_score__min__energy>  (1613) 
-18.079999999999998

>  <m_primary>  (1613) 
energy

$$$$
3:0
     RDKit          3D

 30 33  0  0  0  0  0  0  0  0999 V2000
   57.9250   30.1600   46.3630 C   0  0  0  0  0  0  0  0  0  0  0  0
   58.5330   29.2730   47.1660 C   0  0  0  0  0  0  0  0  0  0  0  0
   58.6660   27.8890   46.9640 C   0  0  0  0  0  0  0  0  0  0  0  0
   58.0970   27.0690   46.0590 C   0  0  0  0  0  0  0  0  0  0  0  0
   57.3230   25.8570   46.3670 C   0  0  0  0  0  0  0  0  0  0  0  0
   57.8680   24.7340   46.8650 N   0  0  0  0  0  0  0  0  0  0  0  0
   56.7970   23.9480   47.1090 C   0  0  0  0  0  0  0  0  0  0  0  0
   56.9030   22.7840   47.5750 O   0  0  0  0  0  0  0  0  0  0  0  0
   55.6030   24.5120   46.8260 N   0  0  0  0  0  0  0  0  0  0  0  0
   55.9530   25.7260   46.3720 C   0  0  0  0  0  0  0  0  0  0  0  0
   55.0380   26.7010   45.9950 O   0  0  0  0  0  0  0  0  0  0  0  0
   59.5550   27.4400   47.9280 C   0  0  0  0  0  0  0  0  0  0  0  0
   59.8760   28.5270   48.7150 C   0  0  0  0  0  0  0  0  0  0  0  0
   60.8290   28.4930   49.8710 C   0  0  0  0  0  0  0  0  0  0  0  0
   59.2590   29.6350   48.2540 N   0  0  0  0  0  0  0  0  0  0  0  0
   59.4260   30.9650   48.7750 C   0  0  0  0  0  0  0  0  0  0  0  0
   58.7980   31.3280   49.9670 C   0  0  0  0  0  0  0  0  0  0  0  0
   58.9300   32.6250   50.4530 C   0  0  0  0  0  0  0  0  0  0  0  0
   59.6810   33.5550   49.7330 C   0  0  0  0  0  0  0  0  0  0  0  0
   60.2940   33.2030   48.5620 N   0  0  0  0  0  0  0  0  0  0  0  0
   61.0100   34.2430   47.8020 C   0  0  0  0  0  0  0  0  0  0  0  0
   60.0270   35.1900   47.0960 C   0  0  0  0  0  0  0  0  0  0  0  0
   59.0800   34.4390   46.1950 C   0  0  0  0  0  0  0  0  0  0  0  0
   59.4170   34.2090   44.8510 C   0  0  0  0  0  0  0  0  0  0  0  0
   58.5680   33.4590   44.0310 C   0  0  0  0  0  0  0  0  0  0  0  0
   57.3820   32.9300   44.5480 C   0  0  0  0  0  0  0  0  0  0  0  0
   57.0430   33.1500   45.8860 C   0  0  0  0  0  0  0  0  0  0  0  0
   57.8890   33.9000   46.7090 C   0  0  0  0  0  0  0  0  0  0  0  0
   60.1800   31.9220   48.0760 C   0  0  0  0  0  0  0  0  0  0  0  0
   60.7290   31.5970   46.9870 O   0  0  0  0  0  0  0  0  0  0  0  0
  1  2  2  0
  2  3  1  0
  3  4  2  3
  4  5  1  0
  5  6  1  0
  6  7  1  0
  7  8  2  0
  7  9  1  0
  9 10  1  0
 10 11  1  0
  3 12  1  0
 12 13  2  0
 13 14  1  0
 13 15  1  0
 15 16  1  0
 16 17  2  0
 17 18  1  0
 18 19  2  0
 19 20  1  0
 20 21  1  0
 21 22  1  0
 22 23  1  0
 23 24  2  0
 24 25  1  0
 25 26  2  0
 26 27  1  0
 27 28  2  0
 20 29  1  0
 29 30  2  0
 15  2  1  0
 29 16  1  0
 10  5  2  0
 28 23  1  0
M  CHG  3   6  -1   9  -1  11  -1
M  END
>  <UniqueID>  (1614) 
2

>  <SMILES>  (1614) 
C=c1c(=Cc2[n-]c(=O)[n-]c2[O-])cc(C)n1-c1cccn(CCc2ccccc2)c1=O

>  <Energy>  (1614) 
126.76252574216699

>  <Genealogy>  (1614) 
C=c1c(=Cc2[n-]c(=O)[n-]c2[O-])cc(C)n1-c1cccn(CCc2ccccc2)c1=O (protonated)
C=c1c(=Cc2[n-]c(=O)[n-]c2[O-])cc(C)n1-c1cccn(CCc2ccccc2)c1=O (3D coordinates assigned)
C=c1c(=Cc2[n-]c(=O)[n-]c2[O-])cc(C)n1-c1cccn(CCc2ccccc2)c1=O (optimized conformer: 126.76252574216699 kcal/mol)

>  <smiles>  (1614) 
C=c1c(=Cc2[nH]c(=O)[nH]c2O)cc(C)n1-c1cccn(CCc2ccccc2)c1=O

>  <score_type>  (1614) 
oracle

>  <origin>  (1614) 
adg

>  <m_score__min__energy>  (1614) 
-16.68

>  <m_primary>  (1614) 
energy

$$$$
6:0
     RDKit          3D

 27 30  0  0  0  0  0  0  0  0999 V2000
   59.4070   29.7710   47.3670 C   0  0  0  0  0  0  0  0  0  0  0  0
   58.9140   29.9790   46.1340 C   0  0  0  0  0  0  0  0  0  0  0  0
   58.4610   28.9980   45.2400 C   0  0  0  0  0  0  0  0  0  0  0  0
   58.4250   27.6650   45.4550 C   0  0  0  0  0  0  0  0  0  0  0  0
   57.2160   26.8770   45.7880 C   0  0  0  0  0  0  0  0  0  0  0  0
   57.1980   25.6150   46.2540 N   0  0  0  0  0  0  0  0  0  0  0  0
   55.8810   25.3350   46.3580 C   0  0  0  0  0  0  0  0  0  0  0  0
   55.4540   24.2260   46.7730 O   0  0  0  0  0  0  0  0  0  0  0  0
   55.0590   26.3360   45.9820 N   0  0  0  0  0  0  0  0  0  0  0  0
   55.9190   27.3010   45.6200 C   0  0  0  0  0  0  0  0  0  0  0  0
   55.5250   28.5460   45.1450 O   0  0  0  0  0  0  0  0  0  0  0  0
   58.0860   29.6770   44.0860 C   0  0  0  0  0  0  0  0  0  0  0  0
   58.3060   31.0190   44.3220 C   0  0  0  0  0  0  0  0  0  0  0  0
   58.0510   32.1110   43.3260 C   0  0  0  0  0  0  0  0  0  0  0  0
   58.8130   31.2040   45.5600 N   0  0  0  0  0  0  0  0  0  0  0  0
   59.1590   32.4730   46.1440 C   0  0  0  0  0  0  0  0  0  0  0  0
   58.3070   33.5750   45.9940 C   0  0  0  0  0  0  0  0  0  0  0  0
   58.6430   34.8050   46.5630 C   0  0  0  0  0  0  0  0  0  0  0  0
   59.8280   34.9410   47.2920 C   0  0  0  0  0  0  0  0  0  0  0  0
   60.6820   33.8380   47.4720 C   0  0  0  0  0  0  0  0  0  0  0  0
   61.9170   33.9560   48.1990 N   0  0  0  0  0  0  0  0  0  0  0  0
   63.1750   33.4460   47.7160 C   0  0  0  0  0  0  0  0  0  0  0  0
   63.3230   33.2160   46.4860 O   0  0  0  0  0  0  0  0  0  0  0  0
   64.3600   33.2040   48.6230 C   0  0  0  0  0  0  0  0  0  0  0  0
   64.2900   32.0210   49.5780 C   0  0  0  0  0  0  0  0  0  0  0  0
   64.1220   33.4410   50.1060 C   0  0  0  0  0  0  0  0  0  0  0  0
   60.3460   32.6100   46.8800 C   0  0  0  0  0  0  0  0  0  0  0  0
  1  2  2  0
  2  3  1  0
  3  4  2  0
  4  5  1  0
  5  6  1  0
  6  7  1  0
  7  8  2  0
  7  9  1  0
  9 10  1  0
 10 11  1  0
  3 12  1  0
 12 13  2  0
 13 14  1  0
 13 15  1  0
 15 16  1  0
 16 17  2  0
 17 18  1  0
 18 19  2  0
 19 20  1  0
 20 21  1  0
 21 22  1  0
 22 23  2  0
 22 24  1  0
 24 25  1  0
 25 26  1  0
 20 27  2  0
 15  2  1  0
 27 16  1  0
 10  5  2  0
 26 24  1  0
M  CHG  3   6  -1   9  -1  11  -1
M  END
>  <UniqueID>  (1615) 
5

>  <SMILES>  (1615) 
C=c1/c(=C/c2[n-]c(=O)[n-]c2[O-])cc(C)n1-c1cccc(NC(=O)C2CC2)c1

>  <Energy>  (1615) 
384.7243360953009

>  <Genealogy>  (1615) 
C=c1c(=Cc2[n-]c(=O)[n-]c2[O-])cc(C)n1-c1cccc(NC(=O)C2CC2)c1 (protonated)
C=c1/c(=C/c2[n-]c(=O)[n-]c2[O-])cc(C)n1-c1cccc(NC(=O)C2CC2)c1 (cis-trans isomerization)
C=c1/c(=C/c2[n-]c(=O)[n-]c2[O-])cc(C)n1-c1cccc(NC(=O)C2CC2)c1 (3D coordinates assigned)
C=c1/c(=C/c2[n-]c(=O)[n-]c2[O-])cc(C)n1-c1cccc(NC(=O)C2CC2)c1 (nonaromatic ring conformer: 384.7243360953009 kcal/mol)

>  <smiles>  (1615) 
C=c1c(=Cc2[nH]c(=O)[nH]c2O)cc(C)n1-c1cccc(NC(=O)C2CC2)c1

>  <score_type>  (1615) 
oracle

>  <origin>  (1615) 
adg

>  <m_score__min__energy>  (1615) 
-16.620000000000001

>  <m_primary>  (1615) 
energy

$$$$
8:0
     RDKit          3D

 30 32  0  0  0  0  0  0  0  0999 V2000
   55.5080   31.0890   44.5370 O   0  0  0  0  0  0  0  0  0  0  0  0
   56.1730   30.0360   44.3460 C   0  0  0  0  0  0  0  0  0  0  0  0
   57.2840   30.0560   43.3780 C   0  0  0  0  0  0  0  0  0  0  0  0
   58.1960   31.0340   43.3710 C   0  0  0  0  0  0  0  0  0  0  0  0
   57.8740   32.4230   42.9800 C   0  0  0  0  0  0  0  0  0  0  0  0
   57.5740   32.6930   41.7850 O   0  0  0  0  0  0  0  0  0  0  0  0
   57.8280   33.4710   43.9570 N   0  0  0  0  0  0  0  0  0  0  0  0
   58.3930   33.3940   45.2730 C   0  0  0  0  0  0  0  0  0  0  0  0
   59.2120   34.4340   45.7290 C   0  0  0  0  0  0  0  0  0  0  0  0
   59.7330   34.4030   47.0260 C   0  0  0  0  0  0  0  0  0  0  0  0
   59.4550   33.3200   47.8710 C   0  0  0  0  0  0  0  0  0  0  0  0
   60.0790   33.2980   49.5210 S   0  0  0  0  0  0  0  0  0  0  0  0
   59.6890   34.5780   50.2060 O   0  0  0  0  0  0  0  0  0  0  0  0
   59.4280   32.1660   50.2670 O   0  0  0  0  0  0  0  0  0  0  0  0
   61.8170   33.0970   49.5950 N   0  0  0  0  0  0  0  0  0  0  0  0
   62.2630   31.7340   49.2480 C   0  0  0  0  0  0  0  0  0  0  0  0
   62.5880   31.5790   47.7550 C   0  0  0  0  0  0  0  0  0  0  0  0
   63.4940   32.5740   47.3320 O   0  0  0  0  0  0  0  0  0  0  0  0
   62.8750   33.8360   47.4440 C   0  0  0  0  0  0  0  0  0  0  0  0
   62.5700   34.1680   48.9110 C   0  0  0  0  0  0  0  0  0  0  0  0
   58.6940   32.2470   47.3920 C   0  0  0  0  0  0  0  0  0  0  0  0
   58.1630   32.2830   46.1010 C   0  0  0  0  0  0  0  0  0  0  0  0
   55.7740   28.8050   44.9690 N   0  0  0  0  0  0  0  0  0  0  0  0
   56.5070   27.9050   45.5650 C   0  0  0  0  0  0  0  0  0  0  0  0
   57.8220   28.1970   45.7640 N   0  0  0  0  0  0  0  0  0  0  0  0
   58.6810   27.3390   46.3750 C   0  0  0  0  0  0  0  0  0  0  0  0
   58.2250   26.1040   46.8300 C   0  0  0  0  0  0  0  0  0  0  0  0
   56.8810   25.7740   46.6690 C   0  0  0  0  0  0  0  0  0  0  0  0
   56.0030   26.6710   46.0540 C   0  0  0  0  0  0  0  0  0  0  0  0
   54.6560   26.3370   45.9890 O   0  0  0  0  0  0  0  0  0  0  0  0
  1  2  2  0
  2  3  1  0
  3  4  2  3
  4  5  1  0
  5  6  2  0
  5  7  1  0
  7  8  1  0
  8  9  2  0
  9 10  1  0
 10 11  2  0
 11 12  1  0
 12 13  2  0
 12 14  2  0
 12 15  1  0
 15 16  1  0
 16 17  1  0
 17 18  1  0
 18 19  1  0
 19 20  1  0
 11 21  1  0
 21 22  2  0
  2 23  1  0
 23 24  2  3
 24 25  1  0
 25 26  1  0
 26 27  2  0
 27 28  1  0
 28 29  2  0
 29 30  1  0
 22  8  1  0
 29 24  1  0
 20 15  1  0
M  CHG  3   7  -1  25  -1  30  -1
M  END
>  <UniqueID>  (1616) 
7

>  <SMILES>  (1616) 
O=C(C=CC(=O)[N-]c1ccc(S(=O)(=O)N2CCOCC2)cc1)N=c1[n-]cccc1[O-]

>  <Energy>  (1616) 
68.12980837491922

>  <Genealogy>  (1616) 
O=C(C=CC(=O)[N-]c1ccc(S(=O)(=O)N2CCOCC2)cc1)N=c1[n-]cccc1[O-] (protonated)
O=C(C=CC(=O)[N-]c1ccc(S(=O)(=O)N2CCOCC2)cc1)N=c1[n-]cccc1[O-] (3D coordinates assigned)
O=C(C=CC(=O)[N-]c1ccc(S(=O)(=O)N2CCOCC2)cc1)N=c1[n-]cccc1[O-] (nonaromatic ring conformer: 68.12980837491922 kcal/mol)

>  <smiles>  (1616) 
O=C(C=CC(=O)Nc1ccc(S(=O)(=O)N2CCOCC2)cc1)N=c1[nH]cccc1O

>  <score_type>  (1616) 
oracle

>  <origin>  (1616) 
adg

>  <m_score__min__energy>  (1616) 
-15.4

>  <m_primary>  (1616) 
energy

$$$$
10:0
     RDKit          3D

 30 33  0  0  0  0  0  0  0  0999 V2000
   57.1890   26.1000   47.1620 C   0  0  0  0  0  0  0  0  0  0  0  0
   57.3820   25.9090   45.8480 C   0  0  0  0  0  0  0  0  0  0  0  0
   56.8250   24.9050   45.0350 C   0  0  0  0  0  0  0  0  0  0  0  0
   56.0940   23.8170   45.3470 C   0  0  0  0  0  0  0  0  0  0  0  0
   54.6250   23.7430   45.3510 C   0  0  0  0  0  0  0  0  0  0  0  0
   53.9400   22.5910   45.2450 N   0  0  0  0  0  0  0  0  0  0  0  0
   52.6550   22.9760   45.4010 C   0  0  0  0  0  0  0  0  0  0  0  0
   51.6950   22.1640   45.3540 O   0  0  0  0  0  0  0  0  0  0  0  0
   52.4810   24.2950   45.6250 N   0  0  0  0  0  0  0  0  0  0  0  0
   53.7380   24.7690   45.6060 C   0  0  0  0  0  0  0  0  0  0  0  0
   54.0560   26.1030   45.8420 O   0  0  0  0  0  0  0  0  0  0  0  0
   57.1690   25.2290   43.7300 C   0  0  0  0  0  0  0  0  0  0  0  0
   57.9580   26.3580   43.7910 C   0  0  0  0  0  0  0  0  0  0  0  0
   58.4920   27.0920   42.6000 C   0  0  0  0  0  0  0  0  0  0  0  0
   58.0890   26.7680   45.0710 N   0  0  0  0  0  0  0  0  0  0  0  0
   58.7390   27.9780   45.4940 C   0  0  0  0  0  0  0  0  0  0  0  0
   60.0740   27.9060   45.9140 C   0  0  0  0  0  0  0  0  0  0  0  0
   60.7550   29.0520   46.3200 C   0  0  0  0  0  0  0  0  0  0  0  0
   60.1110   30.2950   46.3130 C   0  0  0  0  0  0  0  0  0  0  0  0
   60.8220   31.4750   46.7300 N   0  0  0  0  0  0  0  0  0  0  0  0
   62.0750   31.3460   47.4810 C   0  0  0  0  0  0  0  0  0  0  0  0
   62.9660   32.5600   47.2040 C   0  0  0  0  0  0  0  0  0  0  0  0
   62.2610   33.7620   47.4500 O   0  0  0  0  0  0  0  0  0  0  0  0
   61.1940   33.8900   46.5290 C   0  0  0  0  0  0  0  0  0  0  0  0
   60.1550   32.7800   46.7360 C   0  0  0  0  0  0  0  0  0  0  0  0
   58.7760   30.3760   45.8900 C   0  0  0  0  0  0  0  0  0  0  0  0
   58.0680   29.2280   45.4830 C   0  0  0  0  0  0  0  0  0  0  0  0
   56.6440   29.3660   45.0720 C   0  0  0  0  0  0  0  0  0  0  0  0
   56.2310   30.4450   44.5670 O   0  0  0  0  0  0  0  0  0  0  0  0
   55.7360   28.3260   45.2450 O   0  0  0  0  0  0  0  0  0  0  0  0
  1  2  2  0
  2  3  1  0
  3  4  2  3
  4  5  1  0
  5  6  1  0
  6  7  1  0
  7  8  2  0
  7  9  1  0
  9 10  1  0
 10 11  1  0
  3 12  1  0
 12 13  2  0
 13 14  1  0
 13 15  1  0
 15 16  1  0
 16 17  2  0
 17 18  1  0
 18 19  2  0
 19 20  1  0
 20 21  1  0
 21 22  1  0
 22 23  1  0
 23 24  1  0
 24 25  1  0
 19 26  1  0
 26 27  2  0
 27 28  1  0
 28 29  2  0
 28 30  1  0
 15  2  1  0
 27 16  1  0
 10  5  2  0
 25 20  1  0
M  CHG  3   6  -1   9  -1  30  -1
M  END
>  <UniqueID>  (1617) 
9

>  <SMILES>  (1617) 
C=c1c(=Cc2[n-]c(=O)[n-]c2O)cc(C)n1-c1ccc(N2CCOCC2)cc1C(=O)[O-]

>  <Energy>  (1617) 
135.49665689924393

>  <Genealogy>  (1617) 
C=c1c(=Cc2[n-]c(=O)[n-]c2O)cc(C)n1-c1ccc(N2CCOCC2)cc1C(=O)[O-] (protonated)
C=c1c(=Cc2[n-]c(=O)[n-]c2O)cc(C)n1-c1ccc(N2CCOCC2)cc1C(=O)[O-] (3D coordinates assigned)
C=c1c(=Cc2[n-]c(=O)[n-]c2O)cc(C)n1-c1ccc(N2CCOCC2)cc1C(=O)[O-] (nonaromatic ring conformer: 135.49665689924393 kcal/mol)

>  <smiles>  (1617) 
C=c1c(=Cc2[nH]c(=O)[nH]c2O)cc(C)n1-c1ccc(N2CCOCC2)cc1C(=O)O

>  <score_type>  (1617) 
oracle

>  <origin>  (1617) 
adg

>  <m_score__min__energy>  (1617) 
-15.359999999999999

>  <m_primary>  (1617) 
energy

$$$$
11:0
     RDKit          3D

 40 44  0  0  0  0  0  0  0  0999 V2000
   57.5360   25.1390   47.8860 C   0  0  0  0  0  0  0  0  0  0  0  0
   57.9890   25.8480   46.8390 C   0  0  0  0  0  0  0  0  0  0  0  0
   57.5960   25.7250   45.4970 C   0  0  0  0  0  0  0  0  0  0  0  0
   56.8480   24.7930   44.8770 C   0  0  0  0  0  0  0  0  0  0  0  0
   55.4300   24.5110   45.1530 C   0  0  0  0  0  0  0  0  0  0  0  0
   54.7900   23.3810   44.7930 N   0  0  0  0  0  0  0  0  0  0  0  0
   53.5030   23.6380   45.1050 C   0  0  0  0  0  0  0  0  0  0  0  0
   52.5820   22.8010   44.9260 O   0  0  0  0  0  0  0  0  0  0  0  0
   53.2790   24.8690   45.6160 N   0  0  0  0  0  0  0  0  0  0  0  0
   54.5070   25.4110   45.6250 C   0  0  0  0  0  0  0  0  0  0  0  0
   54.7790   26.7070   46.0510 O   0  0  0  0  0  0  0  0  0  0  0  0
   58.1790   26.7870   44.8230 C   0  0  0  0  0  0  0  0  0  0  0  0
   58.9430   27.4730   45.7430 C   0  0  0  0  0  0  0  0  0  0  0  0
   59.7970   28.6630   45.4320 C   0  0  0  0  0  0  0  0  0  0  0  0
   58.8380   26.8990   46.9610 N   0  0  0  0  0  0  0  0  0  0  0  0
   59.4720   27.3690   48.1610 C   0  0  0  0  0  0  0  0  0  0  0  0
   59.1670   28.6370   48.6710 C   0  0  0  0  0  0  0  0  0  0  0  0
   59.7890   29.0980   49.8330 C   0  0  0  0  0  0  0  0  0  0  0  0
   60.7150   28.2900   50.5170 C   0  0  0  0  0  0  0  0  0  0  0  0
   61.4030   28.7420   51.7570 C   0  0  0  0  0  0  0  0  0  0  0  0
   61.2190   28.0650   52.8090 O   0  0  0  0  0  0  0  0  0  0  0  0
   62.2510   29.9230   51.8280 N   0  0  0  0  0  0  0  0  0  0  0  0
   63.5800   29.6580   51.2320 C   0  0  0  0  0  0  0  0  0  0  0  0
   64.3590   30.9510   51.0020 C   0  0  0  0  0  0  0  0  0  0  0  0
   63.6200   31.8180   50.0790 N   0  0  0  0  0  0  0  0  0  0  0  0
   64.3470   32.7000   49.1950 C   0  0  0  0  0  0  0  0  0  0  0  0
   65.5690   32.9360   49.4130 O   0  0  0  0  0  0  0  0  0  0  0  0
   63.7010   33.3460   47.9970 C   0  0  0  0  0  0  0  0  0  0  0  0
   62.5170   34.1920   48.3880 C   0  0  0  0  0  0  0  0  0  0  0  0
   62.6500   34.9980   49.3490 O   0  0  0  0  0  0  0  0  0  0  0  0
   61.2470   34.1020   47.7050 N   0  0  0  0  0  0  0  0  0  0  0  0
   60.0040   34.3210   48.4510 C   0  0  0  0  0  0  0  0  0  0  0  0
   58.9530   34.9500   47.5310 C   0  0  0  0  0  0  0  0  0  0  0  0
   58.7910   34.1780   46.3550 O   0  0  0  0  0  0  0  0  0  0  0  0
   59.9890   34.1960   45.6010 C   0  0  0  0  0  0  0  0  0  0  0  0
   61.1300   33.5150   46.3660 C   0  0  0  0  0  0  0  0  0  0  0  0
   62.1500   31.7860   50.0780 C   0  0  0  0  0  0  0  0  0  0  0  0
   61.5790   31.1790   51.3760 C   0  0  0  0  0  0  0  0  0  0  0  0
   61.0330   27.0260   49.9850 C   0  0  0  0  0  0  0  0  0  0  0  0
   60.4150   26.5700   48.8160 C   0  0  0  0  0  0  0  0  0  0  0  0
  1  2  2  0
  2  3  1  0
  3  4  2  3
  4  5  1  0
  5  6  1  0
  6  7  1  0
  7  8  2  0
  7  9  1  0
  9 10  1  0
 10 11  1  0
  3 12  1  0
 12 13  2  0
 13 14  1  0
 13 15  1  0
 15 16  1  0
 16 17  2  0
 17 18  1  0
 18 19  2  0
 19 20  1  0
 20 21  2  0
 20 22  1  0
 22 23  1  0
 23 24  1  0
 24 25  1  0
 25 26  1  0
 26 27  2  0
 26 28  1  0
 28 29  1  0
 29 30  2  0
 29 31  1  0
 31 32  1  0
 32 33  1  0
 33 34  1  0
 34 35  1  0
 35 36  1  0
 25 37  1  0
 37 38  1  0
 19 39  1  0
 39 40  2  0
 15  2  1  0
 40 16  1  0
 10  5  2  0
 38 22  1  0
 36 31  1  0
M  CHG  4   6  -1   9  -1  11  -1  22   1
M  END
>  <UniqueID>  (1618) 
10

>  <SMILES>  (1618) 
C=c1c(=Cc2[n-]c(=O)[n-]c2[O-])cc(C)n1-c1ccc(C(=O)[NH+]2CCN(C(=O)CC(=O)N3CCOCC3)CC2)cc1

>  <Energy>  (1618) 
165.56863023684022

>  <Genealogy>  (1618) 
C=c1c(=Cc2[n-]c(=O)[n-]c2[O-])cc(C)n1-c1ccc(C(=O)[NH+]2CCN(C(=O)CC(=O)N3CCOCC3)CC2)cc1 (protonated)
C=c1c(=Cc2[n-]c(=O)[n-]c2[O-])cc(C)n1-c1ccc(C(=O)[NH+]2CCN(C(=O)CC(=O)N3CCOCC3)CC2)cc1 (3D coordinates assigned)
C=c1c(=Cc2[n-]c(=O)[n-]c2[O-])cc(C)n1-c1ccc(C(=O)[NH+]2CCN(C(=O)CC(=O)N3CCOCC3)CC2)cc1 (nonaromatic ring conformer: 165.56863023684022 kcal/mol)

>  <smiles>  (1618) 
C=c1c(=Cc2[nH]c(=O)[nH]c2O)cc(C)n1-c1ccc(C(=O)N2CCN(C(=O)CC(=O)N3CCOCC3)CC2)cc1

>  <score_type>  (1618) 
oracle

>  <origin>  (1618) 
adg

>  <m_score__min__energy>  (1618) 
-17.34

>  <m_primary>  (1618) 
energy

$$$$
25:0
     RDKit          3D

 29 32  0  0  0  0  0  0  0  0999 V2000
   56.5680   31.7000   52.0000 C   0  0  0  0  0  0  0  0  0  0  0  0
   55.8190   30.6510   52.3730 C   0  0  0  0  0  0  0  0  0  0  0  0
   54.4200   30.5890   52.3870 C   0  0  0  0  0  0  0  0  0  0  0  0
   53.5570   31.5700   52.0610 C   0  0  0  0  0  0  0  0  0  0  0  0
   52.5330   31.4510   51.0080 C   0  0  0  0  0  0  0  0  0  0  0  0
   52.5120   30.4490   50.1100 N   0  0  0  0  0  0  0  0  0  0  0  0
   51.3810   30.6800   49.4080 C   0  0  0  0  0  0  0  0  0  0  0  0
   51.0170   29.9480   48.4520 O   0  0  0  0  0  0  0  0  0  0  0  0
   50.6680   31.7500   49.8180 N   0  0  0  0  0  0  0  0  0  0  0  0
   51.4020   32.2200   50.8400 C   0  0  0  0  0  0  0  0  0  0  0  0
   51.0180   33.2980   51.6280 O   0  0  0  0  0  0  0  0  0  0  0  0
   54.0920   29.3270   52.8690 C   0  0  0  0  0  0  0  0  0  0  0  0
   55.2840   28.6710   53.1050 C   0  0  0  0  0  0  0  0  0  0  0  0
   55.3980   27.2880   53.6680 C   0  0  0  0  0  0  0  0  0  0  0  0
   56.3300   29.4750   52.8130 N   0  0  0  0  0  0  0  0  0  0  0  0
   57.7180   29.1290   52.9510 C   0  0  0  0  0  0  0  0  0  0  0  0
   58.5850   29.2440   51.8540 C   0  0  0  0  0  0  0  0  0  0  0  0
   58.1200   29.6860   50.6590 F   0  0  0  0  0  0  0  0  0  0  0  0
   59.9340   28.9010   51.9870 C   0  0  0  0  0  0  0  0  0  0  0  0
   60.4330   28.4350   53.2130 C   0  0  0  0  0  0  0  0  0  0  0  0
   61.8260   28.0870   53.3430 N   0  0  0  0  0  0  0  0  0  0  0  0
   62.5140   28.2810   54.6240 C   0  0  0  0  0  0  0  0  0  0  0  0
   63.6620   27.2750   54.7470 C   0  0  0  0  0  0  0  0  0  0  0  0
   64.5060   27.3340   53.6130 O   0  0  0  0  0  0  0  0  0  0  0  0
   63.7940   26.9220   52.4620 C   0  0  0  0  0  0  0  0  0  0  0  0
   62.6550   27.8980   52.1480 C   0  0  0  0  0  0  0  0  0  0  0  0
   59.5610   28.3270   54.3110 C   0  0  0  0  0  0  0  0  0  0  0  0
   58.2130   28.6690   54.1800 C   0  0  0  0  0  0  0  0  0  0  0  0
   57.3900   28.5660   55.2530 F   0  0  0  0  0  0  0  0  0  0  0  0
  1  2  2  0
  2  3  1  0
  3  4  2  0
  4  5  1  0
  5  6  1  0
  6  7  1  0
  7  8  2  0
  7  9  1  0
  9 10  1  0
 10 11  1  0
  3 12  1  0
 12 13  2  0
 13 14  1  0
 13 15  1  0
 15 16  1  0
 16 17  2  0
 17 18  1  0
 17 19  1  0
 19 20  2  0
 20 21  1  0
 21 22  1  0
 22 23  1  0
 23 24  1  0
 24 25  1  0
 25 26  1  0
 20 27  1  0
 27 28  2  0
 28 29  1  0
 15  2  1  0
 28 16  1  0
 10  5  2  0
 26 21  1  0
M  CHG  3   6  -1   9  -1  11  -1
M  END
>  <UniqueID>  (1619) 
22

>  <SMILES>  (1619) 
C=c1/c(=C/c2[n-]c(=O)[n-]c2[O-])cc(C)n1-c1c(F)cc(N2CCOCC2)cc1F

>  <Energy>  (1619) 
126.13372016069431

>  <Genealogy>  (1619) 
C=c1c(=Cc2[n-]c(=O)[n-]c2[O-])cc(C)n1-c1c(F)cc(N2CCOCC2)cc1F (protonated)
C=c1/c(=C/c2[n-]c(=O)[n-]c2[O-])cc(C)n1-c1c(F)cc(N2CCOCC2)cc1F (cis-trans isomerization)
C=c1/c(=C/c2[n-]c(=O)[n-]c2[O-])cc(C)n1-c1c(F)cc(N2CCOCC2)cc1F (3D coordinates assigned)
C=c1/c(=C/c2[n-]c(=O)[n-]c2[O-])cc(C)n1-c1c(F)cc(N2CCOCC2)cc1F (nonaromatic ring conformer: 126.13372016069431 kcal/mol)

>  <smiles>  (1619) 
C=c1c(=Cc2[nH]c(=O)[nH]c2O)cc(C)n1-c1c(F)cc(N2CCOCC2)cc1F

>  <score_type>  (1619) 
oracle

>  <origin>  (1619) 
adg

>  <m_score__min__energy>  (1619) 
-15.18

>  <m_primary>  (1619) 
energy

$$$$
26:0
     RDKit          3D

 31 34  0  0  0  0  0  0  0  0999 V2000
   61.1180   29.7500   46.0090 O   0  0  0  0  0  0  0  0  0  0  0  0
   60.0960   29.5070   46.7010 C   0  0  0  0  0  0  0  0  0  0  0  0
   60.1010   29.9230   48.0740 N   0  0  0  0  0  0  0  0  0  0  0  0
   59.0700   29.6300   49.0620 C   0  0  0  0  0  0  0  0  0  0  0  0
   58.8680   30.8290   49.9420 C   0  0  0  0  0  0  0  0  0  0  0  0
   57.9880   30.7630   51.0380 C   0  0  0  0  0  0  0  0  0  0  0  0
   57.7860   31.8890   51.8440 C   0  0  0  0  0  0  0  0  0  0  0  0
   58.4460   33.0890   51.5570 C   0  0  0  0  0  0  0  0  0  0  0  0
   58.2440   34.2040   52.3620 O   0  0  0  0  0  0  0  0  0  0  0  0
   59.3080   33.1650   50.4590 C   0  0  0  0  0  0  0  0  0  0  0  0
   59.5150   32.0420   49.6500 C   0  0  0  0  0  0  0  0  0  0  0  0
   58.9310   28.8200   46.0870 C   0  0  0  0  0  0  0  0  0  0  0  0
   58.7110   27.5330   46.1950 O   0  0  0  0  0  0  0  0  0  0  0  0
   57.5980   27.2550   45.5570 C   0  0  0  0  0  0  0  0  0  0  0  0
   57.0280   25.8910   45.4700 C   0  0  0  0  0  0  0  0  0  0  0  0
   57.8780   24.8130   45.1640 C   0  0  0  0  0  0  0  0  0  0  0  0
   57.3730   23.5120   45.0790 C   0  0  0  0  0  0  0  0  0  0  0  0
   56.0170   23.2720   45.3010 C   0  0  0  0  0  0  0  0  0  0  0  0
   55.1600   24.3310   45.6050 C   0  0  0  0  0  0  0  0  0  0  0  0
   55.6550   25.6390   45.6910 C   0  0  0  0  0  0  0  0  0  0  0  0
   54.7720   26.6690   45.9990 O   0  0  0  0  0  0  0  0  0  0  0  0
   57.0410   28.3500   45.0020 N   0  0  0  0  0  0  0  0  0  0  0  0
   57.8830   29.3460   45.3350 C   0  0  0  0  0  0  0  0  0  0  0  0
   57.5960   31.0130   44.8230 S   0  0  0  0  0  0  0  0  0  0  0  0
   56.1240   31.1600   44.5500 O   0  0  0  0  0  0  0  0  0  0  0  0
   58.3230   31.3070   43.5430 O   0  0  0  0  0  0  0  0  0  0  0  0
   58.0500   32.1820   46.0420 N   0  0  0  0  0  0  0  0  0  0  0  0
   57.3730   33.4630   45.8640 C   0  0  0  0  0  0  0  0  0  0  0  0
   58.2370   34.4870   46.5700 C   0  0  0  0  0  0  0  0  0  0  0  0
   59.6450   33.9180   46.4990 C   0  0  0  0  0  0  0  0  0  0  0  0
   59.4810   32.4880   45.9930 C   0  0  0  0  0  0  0  0  0  0  0  0
  1  2  2  0
  2  3  1  0
  3  4  1  0
  4  5  1  0
  5  6  2  0
  6  7  1  0
  7  8  2  0
  8  9  1  0
  8 10  1  0
 10 11  2  0
  2 12  1  0
 12 13  1  0
 13 14  1  0
 14 15  1  0
 15 16  2  0
 16 17  1  0
 17 18  2  0
 18 19  1  0
 19 20  2  0
 20 21  1  0
 14 22  2  0
 22 23  1  0
 23 24  1  0
 24 25  2  0
 24 26  2  0
 24 27  1  0
 27 28  1  0
 28 29  1  0
 29 30  1  0
 30 31  1  0
 11  5  1  0
 23 12  2  0
 31 27  1  0
 20 15  1  0
M  CHG  3   3  -1   9  -1  21  -1
M  END
>  <UniqueID>  (1620) 
23

>  <SMILES>  (1620) 
O=C([N-]Cc1ccc([O-])cc1)c1oc(-c2ccccc2[O-])nc1S(=O)(=O)N1CCCC1

>  <Energy>  (1620) 
85.58024974658635

>  <Genealogy>  (1620) 
O=C([N-]Cc1ccc([O-])cc1)c1oc(-c2ccccc2[O-])nc1S(=O)(=O)N1CCCC1 (protonated)
O=C([N-]Cc1ccc([O-])cc1)c1oc(-c2ccccc2[O-])nc1S(=O)(=O)N1CCCC1 (3D coordinates assigned)
O=C([N-]Cc1ccc([O-])cc1)c1oc(-c2ccccc2[O-])nc1S(=O)(=O)N1CCCC1 (nonaromatic ring conformer: 85.58024974658635 kcal/mol)

>  <smiles>  (1620) 
O=C(NCc1ccc(O)cc1)c1oc(-c2ccccc2O)nc1S(=O)(=O)N1CCCC1

>  <score_type>  (1620) 
oracle

>  <origin>  (1620) 
adg

>  <m_score__min__energy>  (1620) 
-14.529999999999999

>  <m_primary>  (1620) 
energy

$$$$
29:0
     RDKit          3D

 28 31  0  0  0  0  0  0  0  0999 V2000
   59.4040   27.8870   47.0950 C   0  0  0  0  0  0  0  0  0  0  0  0
   58.7950   28.6400   46.1660 C   0  0  0  0  0  0  0  0  0  0  0  0
   58.0310   28.1760   45.0910 C   0  0  0  0  0  0  0  0  0  0  0  0
   57.7410   26.8950   44.7880 C   0  0  0  0  0  0  0  0  0  0  0  0
   57.2080   25.9200   45.7580 C   0  0  0  0  0  0  0  0  0  0  0  0
   55.9290   25.8420   46.2740 C   0  0  0  0  0  0  0  0  0  0  0  0
   54.8820   26.7130   45.9980 O   0  0  0  0  0  0  0  0  0  0  0  0
   55.8030   24.7550   47.0600 N   0  0  0  0  0  0  0  0  0  0  0  0
   57.0240   24.1840   46.9800 C   0  0  0  0  0  0  0  0  0  0  0  0
   57.3210   23.1190   47.5830 O   0  0  0  0  0  0  0  0  0  0  0  0
   57.8920   24.8490   46.1930 N   0  0  0  0  0  0  0  0  0  0  0  0
   57.5690   29.3040   44.4250 C   0  0  0  0  0  0  0  0  0  0  0  0
   58.0800   30.3970   45.0960 C   0  0  0  0  0  0  0  0  0  0  0  0
   57.8110   31.8230   44.7250 C   0  0  0  0  0  0  0  0  0  0  0  0
   58.8180   29.9970   46.1550 N   0  0  0  0  0  0  0  0  0  0  0  0
   59.5020   30.8640   47.0770 C   0  0  0  0  0  0  0  0  0  0  0  0
   60.7270   31.4430   46.7260 C   0  0  0  0  0  0  0  0  0  0  0  0
   61.3940   32.2790   47.6250 C   0  0  0  0  0  0  0  0  0  0  0  0
   60.8460   32.5410   48.8880 C   0  0  0  0  0  0  0  0  0  0  0  0
   61.5360   33.4480   49.7710 C   0  0  0  0  0  0  0  0  0  0  0  0
   62.0870   34.1760   50.4820 N   0  0  0  0  0  0  0  0  0  0  0  0
   59.6170   31.9560   49.2540 C   0  0  0  0  0  0  0  0  0  0  0  0
   59.0340   32.1980   50.5450 N   0  0  0  0  0  0  0  0  0  0  0  0
   58.2520   31.2060   51.2610 C   0  0  0  0  0  0  0  0  0  0  0  0
   57.5260   31.9750   52.3580 C   0  0  0  0  0  0  0  0  0  0  0  0
   58.2510   33.3130   52.4780 C   0  0  0  0  0  0  0  0  0  0  0  0
   58.9680   33.5150   51.1500 C   0  0  0  0  0  0  0  0  0  0  0  0
   58.9520   31.1220   48.3410 C   0  0  0  0  0  0  0  0  0  0  0  0
  1  2  2  0
  2  3  1  0
  3  4  2  0
  4  5  1  0
  5  6  2  0
  6  7  1  0
  6  8  1  0
  8  9  1  0
  9 10  2  0
  9 11  1  0
  3 12  1  0
 12 13  2  0
 13 14  1  0
 13 15  1  0
 15 16  1  0
 16 17  2  0
 17 18  1  0
 18 19  2  0
 19 20  1  0
 20 21  3  0
 19 22  1  0
 22 23  1  0
 23 24  1  0
 24 25  1  0
 25 26  1  0
 26 27  1  0
 22 28  2  0
 15  2  1  0
 28 16  1  0
 11  5  1  0
 27 23  1  0
M  CHG  2   7  -1   8  -1
M  END
>  <UniqueID>  (1621) 
26

>  <SMILES>  (1621) 
C=c1/c(=C/c2[nH]c(=O)[n-]c2[O-])cc(C)n1-c1ccc(C#N)c(N2CCCC2)c1

>  <Energy>  (1621) 
127.14651025604323

>  <Genealogy>  (1621) 
C=c1c(=Cc2[nH]c(=O)[n-]c2[O-])cc(C)n1-c1ccc(C#N)c(N2CCCC2)c1 (protonated)
C=c1/c(=C/c2[nH]c(=O)[n-]c2[O-])cc(C)n1-c1ccc(C#N)c(N2CCCC2)c1 (cis-trans isomerization)
C=c1/c(=C/c2[nH]c(=O)[n-]c2[O-])cc(C)n1-c1ccc(C#N)c(N2CCCC2)c1 (3D coordinates assigned)
C=c1/c(=C/c2[nH]c(=O)[n-]c2[O-])cc(C)n1-c1ccc(C#N)c(N2CCCC2)c1 (nonaromatic ring conformer: 127.14651025604323 kcal/mol)

>  <smiles>  (1621) 
C=c1c(=Cc2[nH]c(=O)[nH]c2O)cc(C)n1-c1ccc(C#N)c(N2CCCC2)c1

>  <score_type>  (1621) 
oracle

>  <origin>  (1621) 
adg

>  <m_score__min__energy>  (1621) 
-14.35

>  <m_primary>  (1621) 
energy

$$$$
35:0
     RDKit          3D

 25 27  0  0  0  0  0  0  0  0999 V2000
   57.8410   30.0400   44.1990 C   0  0  0  0  0  0  0  0  0  0  0  0
   58.2010   29.7760   45.4780 C   0  0  0  0  0  0  0  0  0  0  0  0
   58.6980   30.8400   46.2910 C   0  0  0  0  0  0  0  0  0  0  0  0
   58.6840   32.2590   45.8580 C   0  0  0  0  0  0  0  0  0  0  0  0
   59.8460   33.0380   45.9850 C   0  0  0  0  0  0  0  0  0  0  0  0
   59.8420   34.3790   45.5900 C   0  0  0  0  0  0  0  0  0  0  0  0
   58.6780   34.9530   45.0710 C   0  0  0  0  0  0  0  0  0  0  0  0
   57.5150   34.1880   44.9510 C   0  0  0  0  0  0  0  0  0  0  0  0
   57.5110   32.8460   45.3460 C   0  0  0  0  0  0  0  0  0  0  0  0
   56.3400   32.1040   45.2330 O   0  0  0  0  0  0  0  0  0  0  0  0
   59.2320   30.5690   47.5550 C   0  0  0  0  0  0  0  0  0  0  0  0
   59.2590   29.2740   48.0510 C   0  0  0  0  0  0  0  0  0  0  0  0
   59.9260   28.9630   49.6450 Cl  0  0  0  0  0  0  0  0  0  0  0  0
   58.7260   28.2280   47.3060 C   0  0  0  0  0  0  0  0  0  0  0  0
   58.1700   28.4430   46.0220 C   0  0  0  0  0  0  0  0  0  0  0  0
   57.5800   27.4010   45.3700 C   0  0  0  0  0  0  0  0  0  0  0  0
   57.2020   26.1120   45.9980 C   0  0  0  0  0  0  0  0  0  0  0  0
   55.8650   25.8120   46.3060 C   0  0  0  0  0  0  0  0  0  0  0  0
   54.8480   26.7120   46.0060 O   0  0  0  0  0  0  0  0  0  0  0  0
   55.5560   24.6370   46.9120 N   0  0  0  0  0  0  0  0  0  0  0  0
   56.5230   23.7450   47.2460 C   0  0  0  0  0  0  0  0  0  0  0  0
   56.2130   22.6610   47.8050 O   0  0  0  0  0  0  0  0  0  0  0  0
   57.8250   24.0240   46.9840 N   0  0  0  0  0  0  0  0  0  0  0  0
   58.1850   25.1850   46.3780 C   0  0  0  0  0  0  0  0  0  0  0  0
   59.4050   25.4140   46.1540 O   0  0  0  0  0  0  0  0  0  0  0  0
  1  2  2  0
  2  3  1  0
  3  4  1  0
  4  5  2  0
  5  6  1  0
  6  7  2  0
  7  8  1  0
  8  9  2  0
  9 10  1  0
  3 11  2  0
 11 12  1  0
 12 13  1  0
 12 14  2  0
 14 15  1  0
 15 16  2  0
 16 17  1  0
 17 18  2  0
 18 19  1  0
 18 20  1  0
 20 21  1  0
 21 22  2  0
 21 23  1  0
 23 24  1  0
 24 25  2  0
 15  2  1  0
 24 17  1  0
  9  4  1  0
M  CHG  4  10  -1  19  -1  20  -1  23  -1
M  END
>  <UniqueID>  (1622) 
32

>  <SMILES>  (1622) 
C=c1c(-c2ccccc2[O-])cc(Cl)c/c1=C\c1c([O-])[n-]c(=O)[n-]c1=O

>  <Energy>  (1622) 
68.69873134179674

>  <Genealogy>  (1622) 
C=c1c(-c2ccccc2[O-])cc(Cl)cc1=Cc1c([O-])[n-]c(=O)[n-]c1=O (protonated)
C=c1c(-c2ccccc2[O-])cc(Cl)c/c1=C\c1c([O-])[n-]c(=O)[n-]c1=O (cis-trans isomerization)
C=c1c(-c2ccccc2[O-])cc(Cl)c/c1=C\c1c([O-])[n-]c(=O)[n-]c1=O (3D coordinates assigned)
C=c1c(-c2ccccc2[O-])cc(Cl)c/c1=C\c1c([O-])[n-]c(=O)[n-]c1=O (optimized conformer: 68.69873134179674 kcal/mol)

>  <smiles>  (1622) 
C=c1c(-c2ccccc2O)cc(Cl)cc1=Cc1c(O)[nH]c(=O)[nH]c1=O

>  <score_type>  (1622) 
oracle

>  <origin>  (1622) 
adg

>  <m_score__min__energy>  (1622) 
-16.850000000000001

>  <m_primary>  (1622) 
energy

$$$$
42:0
     RDKit          3D

 30 33  0  0  0  0  0  0  0  0999 V2000
   57.0270   30.9230   42.7060 C   0  0  0  0  0  0  0  0  0  0  0  0
   56.5420   30.7650   43.9420 C   0  0  0  0  0  0  0  0  0  0  0  0
   56.6660   29.4460   44.6540 C   0  0  0  0  0  0  0  0  0  0  0  0
   58.0360   29.2960   45.2720 C   0  0  0  0  0  0  0  0  0  0  0  0
   58.7110   30.4500   45.7040 C   0  0  0  0  0  0  0  0  0  0  0  0
   59.9680   30.3630   46.3210 C   0  0  0  0  0  0  0  0  0  0  0  0
   60.6760   31.5830   46.7550 C   0  0  0  0  0  0  0  0  0  0  0  0
   61.8100   31.4880   47.2970 O   0  0  0  0  0  0  0  0  0  0  0  0
   60.1130   32.8790   46.5420 N   0  0  0  0  0  0  0  0  0  0  0  0
   60.4770   34.2700   46.8660 C   0  0  0  0  0  0  0  0  0  0  0  0
   59.3910   34.9100   46.0690 C   0  0  0  0  0  0  0  0  0  0  0  0
   59.0310   33.4970   45.7520 C   0  0  0  0  0  0  0  0  0  0  0  0
   60.5340   29.1010   46.5460 C   0  0  0  0  0  0  0  0  0  0  0  0
   59.8720   27.9460   46.1250 C   0  0  0  0  0  0  0  0  0  0  0  0
   58.6310   28.0300   45.4810 C   0  0  0  0  0  0  0  0  0  0  0  0
   57.9880   26.8210   45.0420 N   0  0  0  0  0  0  0  0  0  0  0  0
   57.9680   26.3630   43.7740 C   0  0  0  0  0  0  0  0  0  0  0  0
   58.5380   27.0890   42.5940 C   0  0  0  0  0  0  0  0  0  0  0  0
   57.3050   25.1550   43.7130 C   0  0  0  0  0  0  0  0  0  0  0  0
   56.8620   24.8710   44.9960 C   0  0  0  0  0  0  0  0  0  0  0  0
   56.1190   23.7850   45.2850 C   0  0  0  0  0  0  0  0  0  0  0  0
   54.6590   23.7570   45.4570 C   0  0  0  0  0  0  0  0  0  0  0  0
   53.9110   22.6580   45.2630 N   0  0  0  0  0  0  0  0  0  0  0  0
   52.6460   23.1200   45.3650 C   0  0  0  0  0  0  0  0  0  0  0  0
   51.6410   22.3690   45.2590 O   0  0  0  0  0  0  0  0  0  0  0  0
   52.5400   24.4480   45.5780 N   0  0  0  0  0  0  0  0  0  0  0  0
   53.8230   24.8400   45.6180 C   0  0  0  0  0  0  0  0  0  0  0  0
   54.2200   26.1660   45.7570 O   0  0  0  0  0  0  0  0  0  0  0  0
   57.3300   25.9170   45.8110 C   0  0  0  0  0  0  0  0  0  0  0  0
   57.2640   26.0020   47.1490 C   0  0  0  0  0  0  0  0  0  0  0  0
  1  2  2  0
  2  3  1  0
  3  4  1  0
  4  5  2  0
  5  6  1  0
  6  7  1  0
  7  8  2  0
  7  9  1  0
  9 10  1  0
 10 11  1  0
 11 12  1  0
  6 13  2  0
 13 14  1  0
 14 15  2  0
 15 16  1  0
 16 17  1  0
 17 18  1  0
 17 19  2  0
 19 20  1  0
 20 21  2  0
 21 22  1  0
 22 23  1  0
 23 24  1  0
 24 25  2  0
 24 26  1  0
 26 27  1  0
 27 28  1  0
 20 29  1  0
 29 30  2  0
 15  4  1  0
 29 16  1  0
 12  9  1  0
 27 22  2  0
M  CHG  3  23  -1  26  -1  28  -1
M  END
>  <UniqueID>  (1623) 
38

>  <SMILES>  (1623) 
C=CCc1cc(C(=O)N2CCC2)ccc1-n1c(C)c/c(=C/c2[n-]c(=O)[n-]c2[O-])c1=C

>  <Energy>  (1623) 
173.37372161381035

>  <Genealogy>  (1623) 
C=CCc1cc(C(=O)N2CCC2)ccc1-n1c(C)cc(=Cc2[n-]c(=O)[n-]c2[O-])c1=C (protonated)
C=CCc1cc(C(=O)N2CCC2)ccc1-n1c(C)c/c(=C/c2[n-]c(=O)[n-]c2[O-])c1=C (cis-trans isomerization)
C=CCc1cc(C(=O)N2CCC2)ccc1-n1c(C)c/c(=C/c2[n-]c(=O)[n-]c2[O-])c1=C (3D coordinates assigned)
C=CCc1cc(C(=O)N2CCC2)ccc1-n1c(C)c/c(=C/c2[n-]c(=O)[n-]c2[O-])c1=C (nonaromatic ring conformer: 173.37372161381035 kcal/mol)

>  <smiles>  (1623) 
C=CCc1cc(C(=O)N2CCC2)ccc1-n1c(C)cc(=Cc2[nH]c(=O)[nH]c2O)c1=C

>  <score_type>  (1623) 
oracle

>  <origin>  (1623) 
adg

>  <m_score__min__energy>  (1623) 
-15.9

>  <m_primary>  (1623) 
energy

$$$$
50:0
     RDKit          3D

 27 29  0  0  0  0  0  0  0  0999 V2000
   59.7720   30.0930   47.1380 C   0  0  0  0  0  0  0  0  0  0  0  0
   59.0690   30.1150   45.9930 C   0  0  0  0  0  0  0  0  0  0  0  0
   58.4790   29.0070   45.3750 C   0  0  0  0  0  0  0  0  0  0  0  0
   58.4480   27.7380   45.8270 C   0  0  0  0  0  0  0  0  0  0  0  0
   57.2100   26.9640   46.0320 C   0  0  0  0  0  0  0  0  0  0  0  0
   57.2010   25.6790   46.4270 N   0  0  0  0  0  0  0  0  0  0  0  0
   55.8900   25.3530   46.4030 C   0  0  0  0  0  0  0  0  0  0  0  0
   55.4700   24.2120   46.7280 O   0  0  0  0  0  0  0  0  0  0  0  0
   55.0670   26.3410   45.9930 N   0  0  0  0  0  0  0  0  0  0  0  0
   55.9180   27.3510   45.7510 C   0  0  0  0  0  0  0  0  0  0  0  0
   55.5240   28.5810   45.2370 O   0  0  0  0  0  0  0  0  0  0  0  0
   57.8580   29.4840   44.2310 C   0  0  0  0  0  0  0  0  0  0  0  0
   58.0960   30.8420   44.1860 C   0  0  0  0  0  0  0  0  0  0  0  0
   57.5610   31.7540   43.1220 C   0  0  0  0  0  0  0  0  0  0  0  0
   58.8280   31.2350   45.2570 N   0  0  0  0  0  0  0  0  0  0  0  0
   59.1840   32.6280   45.5850 C   0  0  0  0  0  0  0  0  0  0  0  0
   58.3080   33.1840   46.7170 C   0  0  0  0  0  0  0  0  0  0  0  0
   59.0430   33.2240   48.0350 C   0  0  0  0  0  0  0  0  0  0  0  0
   58.4450   32.6570   49.1740 C   0  0  0  0  0  0  0  0  0  0  0  0
   59.1250   32.6130   50.3940 C   0  0  0  0  0  0  0  0  0  0  0  0
   58.4830   32.0190   51.4910 O   0  0  0  0  0  0  0  0  0  0  0  0
   57.1170   31.6160   51.5030 C   0  0  0  0  0  0  0  0  0  0  0  0
   60.4180   33.1550   50.4800 C   0  0  0  0  0  0  0  0  0  0  0  0
   61.0200   33.7230   49.3560 C   0  0  0  0  0  0  0  0  0  0  0  0
   60.3450   33.7570   48.1210 C   0  0  0  0  0  0  0  0  0  0  0  0
   60.9370   34.2970   46.9680 O   0  0  0  0  0  0  0  0  0  0  0  0
   62.1800   33.8700   46.4220 C   0  0  0  0  0  0  0  0  0  0  0  0
  1  2  2  0
  2  3  1  0
  3  4  2  3
  4  5  1  0
  5  6  1  0
  6  7  1  0
  7  8  2  0
  7  9  1  0
  9 10  1  0
 10 11  1  0
  3 12  1  0
 12 13  2  0
 13 14  1  0
 13 15  1  0
 15 16  1  0
 16 17  1  0
 17 18  1  0
 18 19  2  0
 19 20  1  0
 20 21  1  0
 21 22  1  0
 20 23  2  0
 23 24  1  0
 24 25  2  0
 25 26  1  0
 26 27  1  0
 15  2  1  0
 25 18  1  0
 10  5  2  0
M  CHG  3   6  -1   9  -1  11  -1
M  END
>  <UniqueID>  (1624) 
45

>  <SMILES>  (1624) 
C=c1c(=Cc2[n-]c(=O)[n-]c2[O-])cc(C)n1CCc1cc(OC)ccc1OC

>  <Energy>  (1624) 
108.32619665097742

>  <Genealogy>  (1624) 
C=c1c(=Cc2[n-]c(=O)[n-]c2[O-])cc(C)n1CCc1cc(OC)ccc1OC (protonated)
C=c1c(=Cc2[n-]c(=O)[n-]c2[O-])cc(C)n1CCc1cc(OC)ccc1OC (3D coordinates assigned)
C=c1c(=Cc2[n-]c(=O)[n-]c2[O-])cc(C)n1CCc1cc(OC)ccc1OC (optimized conformer: 108.32619665097742 kcal/mol)

>  <smiles>  (1624) 
C=c1c(=Cc2[nH]c(=O)[nH]c2O)cc(C)n1CCc1cc(OC)ccc1OC

>  <score_type>  (1624) 
oracle

>  <origin>  (1624) 
adg

>  <m_score__min__energy>  (1624) 
-15.49

>  <m_primary>  (1624) 
energy

$$$$
67:0
     RDKit          3D

 26 28  0  0  0  0  0  0  0  0999 V2000
   59.5580   35.9060   46.8490 N   0  0  0  0  0  0  0  0  0  0  0  0
   59.3720   34.9760   45.7800 C   0  0  0  0  0  0  0  0  0  0  0  0
   59.3790   35.3960   44.5920 O   0  0  0  0  0  0  0  0  0  0  0  0
   59.1510   33.5380   46.0550 C   0  0  0  0  0  0  0  0  0  0  0  0
   57.9760   32.9210   45.5910 C   0  0  0  0  0  0  0  0  0  0  0  0
   57.7680   31.5540   45.7790 C   0  0  0  0  0  0  0  0  0  0  0  0
   58.7380   30.7730   46.4130 C   0  0  0  0  0  0  0  0  0  0  0  0
   58.5310   29.3720   46.6290 N   0  0  0  0  0  0  0  0  0  0  0  0
   58.3920   28.3860   45.5990 C   0  0  0  0  0  0  0  0  0  0  0  0
   59.3960   28.0970   44.8980 O   0  0  0  0  0  0  0  0  0  0  0  0
   57.0550   27.7810   45.2570 C   0  0  0  0  0  0  0  0  0  0  0  0
   56.8530   26.4480   45.9170 C   0  0  0  0  0  0  0  0  0  0  0  0
   58.0790   25.5140   46.6020 S   0  0  0  0  0  0  0  0  0  0  0  0
   57.0030   24.3380   47.1360 C   0  0  0  0  0  0  0  0  0  0  0  0
   57.3400   23.2980   47.7600 O   0  0  0  0  0  0  0  0  0  0  0  0
   55.7210   24.6310   46.8320 N   0  0  0  0  0  0  0  0  0  0  0  0
   55.6360   25.8100   46.1620 C   0  0  0  0  0  0  0  0  0  0  0  0
   54.4110   26.3360   45.7720 O   0  0  0  0  0  0  0  0  0  0  0  0
   59.8930   31.3800   46.9140 C   0  0  0  0  0  0  0  0  0  0  0  0
   60.1130   32.7550   46.7380 C   0  0  0  0  0  0  0  0  0  0  0  0
   61.2920   33.3420   47.3110 N   0  0  0  0  0  0  0  0  0  0  0  0
   62.4290   33.7030   46.4640 C   0  0  0  0  0  0  0  0  0  0  0  0
   63.7330   33.3630   47.1930 C   0  0  0  0  0  0  0  0  0  0  0  0
   63.7460   33.9240   48.4930 O   0  0  0  0  0  0  0  0  0  0  0  0
   62.7320   33.3300   49.2840 C   0  0  0  0  0  0  0  0  0  0  0  0
   61.3440   33.6750   48.7360 C   0  0  0  0  0  0  0  0  0  0  0  0
  1  2  1  0
  2  3  2  0
  2  4  1  0
  4  5  2  0
  5  6  1  0
  6  7  2  0
  7  8  1  0
  8  9  1  0
  9 10  2  0
  9 11  1  0
 11 12  1  0
 12 13  1  0
 13 14  1  0
 14 15  2  0
 14 16  1  0
 16 17  1  0
 17 18  1  0
  7 19  1  0
 19 20  2  0
 20 21  1  0
 21 22  1  0
 22 23  1  0
 23 24  1  0
 24 25  1  0
 25 26  1  0
 20  4  1  0
 26 21  1  0
 17 12  2  0
M  CHG  3   8  -1  16  -1  18  -1
M  END
>  <UniqueID>  (1625) 
62

>  <SMILES>  (1625) 
NC(=O)c1ccc([N-]C(=O)Cc2sc(=O)[n-]c2[O-])cc1N1CCOCC1

>  <Energy>  (1625) 
87.36505473863681

>  <Genealogy>  (1625) 
NC(=O)c1ccc([N-]C(=O)Cc2sc(=O)[n-]c2[O-])cc1N1CCOCC1 (protonated)
NC(=O)c1ccc([N-]C(=O)Cc2sc(=O)[n-]c2[O-])cc1N1CCOCC1 (3D coordinates assigned)
NC(=O)c1ccc([N-]C(=O)Cc2sc(=O)[n-]c2[O-])cc1N1CCOCC1 (nonaromatic ring conformer: 87.36505473863681 kcal/mol)

>  <smiles>  (1625) 
NC(=O)c1ccc(NC(=O)Cc2sc(=O)[nH]c2O)cc1N1CCOCC1

>  <score_type>  (1625) 
oracle

>  <origin>  (1625) 
adg

>  <m_score__min__energy>  (1625) 
-15.199999999999999

>  <m_primary>  (1625) 
energy

$$$$
78:0
     RDKit          3D

 24 25  0  0  0  0  0  0  0  0999 V2000
   57.6000   22.4520   44.3970 C   0  0  0  0  0  0  0  0  0  0  0  0
   56.6280   23.5800   44.7170 C   0  0  0  0  0  0  0  0  0  0  0  0
   56.4000   23.7400   46.4820 S   0  0  0  0  0  0  0  0  0  0  0  0
   57.0470   22.5690   47.1690 O   0  0  0  0  0  0  0  0  0  0  0  0
   54.9350   23.7310   46.8190 O   0  0  0  0  0  0  0  0  0  0  0  0
   57.1410   25.1990   47.0640 N   0  0  0  0  0  0  0  0  0  0  0  0
   57.4870   26.3600   46.2950 C   0  0  0  0  0  0  0  0  0  0  0  0
   58.8370   26.5470   45.9740 C   0  0  0  0  0  0  0  0  0  0  0  0
   59.2470   27.6580   45.2340 C   0  0  0  0  0  0  0  0  0  0  0  0
   58.3100   28.5980   44.8080 C   0  0  0  0  0  0  0  0  0  0  0  0
   56.9530   28.4320   45.1130 C   0  0  0  0  0  0  0  0  0  0  0  0
   55.9810   29.4420   44.6520 C   0  0  0  0  0  0  0  0  0  0  0  0
   54.8760   29.0590   44.1870 O   0  0  0  0  0  0  0  0  0  0  0  0
   56.2710   30.8460   44.6880 N   0  0  0  0  0  0  0  0  0  0  0  0
   57.4660   31.4830   44.1380 C   0  0  0  0  0  0  0  0  0  0  0  0
   58.3780   32.0080   45.2480 C   0  0  0  0  0  0  0  0  0  0  0  0
   57.7340   33.1570   45.9300 N   0  0  0  0  0  0  0  0  0  0  0  0
   58.2380   33.3600   47.3020 C   0  0  0  0  0  0  0  0  0  0  0  0
   59.6270   34.0390   47.3160 C   0  0  0  0  0  0  0  0  0  0  0  0
   60.1310   34.2420   46.0100 O   0  0  0  0  0  0  0  0  0  0  0  0
   59.2370   35.0550   45.2760 C   0  0  0  0  0  0  0  0  0  0  0  0
   57.8370   34.4110   45.1550 C   0  0  0  0  0  0  0  0  0  0  0  0
   56.5320   27.2890   45.8210 C   0  0  0  0  0  0  0  0  0  0  0  0
   55.1710   27.0640   45.9950 O   0  0  0  0  0  0  0  0  0  0  0  0
  1  2  1  0
  2  3  1  0
  3  4  2  0
  3  5  2  0
  3  6  1  0
  6  7  1  0
  7  8  2  0
  8  9  1  0
  9 10  2  0
 10 11  1  0
 11 12  1  0
 12 13  2  0
 12 14  1  0
 14 15  1  0
 15 16  1  0
 16 17  1  0
 17 18  1  0
 18 19  1  0
 19 20  1  0
 20 21  1  0
 21 22  1  0
 11 23  2  0
 23 24  1  0
 23  7  1  0
 22 17  1  0
M  CHG  3   6  -1  14  -1  24  -1
M  END
>  <UniqueID>  (1626) 
73

>  <SMILES>  (1626) 
CCS(=O)(=O)[N-]c1cccc(C(=O)[N-]CCN2CCOCC2)c1[O-]

>  <Energy>  (1626) 
59.17947177117145

>  <Genealogy>  (1626) 
CCS(=O)(=O)[N-]c1cccc(C(=O)[N-]CCN2CCOCC2)c1[O-] (protonated)
CCS(=O)(=O)[N-]c1cccc(C(=O)[N-]CCN2CCOCC2)c1[O-] (3D coordinates assigned)
CCS(=O)(=O)[N-]c1cccc(C(=O)[N-]CCN2CCOCC2)c1[O-] (nonaromatic ring conformer: 59.17947177117145 kcal/mol)

>  <smiles>  (1626) 
CCS(=O)(=O)Nc1cccc(C(=O)NCCN2CCOCC2)c1O

>  <score_type>  (1626) 
oracle

>  <origin>  (1626) 
adg

>  <m_score__min__energy>  (1626) 
-14.859999999999999

>  <m_primary>  (1626) 
energy

$$$$
85:0
     RDKit          3D

 28 31  0  0  0  0  0  0  0  0999 V2000
   58.5150   29.0440   48.5190 C   0  0  0  0  0  0  0  0  0  0  0  0
   58.7650   28.5660   47.2880 C   0  0  0  0  0  0  0  0  0  0  0  0
   58.5050   27.2670   46.8220 C   0  0  0  0  0  0  0  0  0  0  0  0
   57.7670   26.2700   47.3470 C   0  0  0  0  0  0  0  0  0  0  0  0
   56.4990   25.7660   46.7980 C   0  0  0  0  0  0  0  0  0  0  0  0
   56.1060   24.4820   46.8920 N   0  0  0  0  0  0  0  0  0  0  0  0
   54.9600   24.4540   46.1760 C   0  0  0  0  0  0  0  0  0  0  0  0
   54.2680   23.4100   46.0480 O   0  0  0  0  0  0  0  0  0  0  0  0
   54.6190   25.6300   45.6080 N   0  0  0  0  0  0  0  0  0  0  0  0
   55.6100   26.4470   45.9990 C   0  0  0  0  0  0  0  0  0  0  0  0
   55.7140   27.7770   45.6150 O   0  0  0  0  0  0  0  0  0  0  0  0
   59.2050   27.1360   45.6330 C   0  0  0  0  0  0  0  0  0  0  0  0
   59.7990   28.3540   45.3830 C   0  0  0  0  0  0  0  0  0  0  0  0
   60.7440   28.6150   44.2510 C   0  0  0  0  0  0  0  0  0  0  0  0
   59.5050   29.2350   46.3660 N   0  0  0  0  0  0  0  0  0  0  0  0
   60.0680   30.5520   46.4930 C   0  0  0  0  0  0  0  0  0  0  0  0
   61.2690   30.8530   47.0990 C   0  0  0  0  0  0  0  0  0  0  0  0
   61.4170   32.1910   47.1300 N   0  0  0  0  0  0  0  0  0  0  0  0
   60.3620   32.7400   46.5460 N   0  0  0  0  0  0  0  0  0  0  0  0
   60.1550   34.1850   46.5190 C   0  0  0  0  0  0  0  0  0  0  0  0
   59.5030   31.7700   46.1450 C   0  0  0  0  0  0  0  0  0  0  0  0
   57.9500   32.0430   45.3190 S   0  0  0  0  0  0  0  0  0  0  0  0
   57.0900   32.9390   46.1580 O   0  0  0  0  0  0  0  0  0  0  0  0
   58.2000   32.7560   44.0200 O   0  0  0  0  0  0  0  0  0  0  0  0
   57.0460   30.5800   44.9830 N   0  0  0  0  0  0  0  0  0  0  0  0
   55.8870   30.8090   44.1140 C   0  0  0  0  0  0  0  0  0  0  0  0
   56.4730   29.9950   42.9790 C   0  0  0  0  0  0  0  0  0  0  0  0
   57.6590   29.8040   43.9010 C   0  0  0  0  0  0  0  0  0  0  0  0
  1  2  2  0
  2  3  1  0
  3  4  2  3
  4  5  1  0
  5  6  1  0
  6  7  1  0
  7  8  2  0
  7  9  1  0
  9 10  1  0
 10 11  1  0
  3 12  1  0
 12 13  2  0
 13 14  1  0
 13 15  1  0
 15 16  1  0
 16 17  1  0
 17 18  2  0
 18 19  1  0
 19 20  1  0
 19 21  1  0
 21 22  1  0
 22 23  2  0
 22 24  2  0
 22 25  1  0
 25 26  1  0
 26 27  1  0
 27 28  1  0
 15  2  1  0
 21 16  2  0
 28 25  1  0
 10  5  2  0
M  CHG  3   6  -1   9  -1  11  -1
M  END
>  <UniqueID>  (1627) 
79

>  <SMILES>  (1627) 
C=c1c(=Cc2[n-]c(=O)[n-]c2[O-])cc(C)n1-c1cnn(C)c1S(=O)(=O)N1CCC1

>  <Energy>  (1627) 
223.47405143560604

>  <Genealogy>  (1627) 
C=c1c(=Cc2[n-]c(=O)[n-]c2[O-])cc(C)n1-c1cnn(C)c1S(=O)(=O)N1CCC1 (protonated)
C=c1c(=Cc2[n-]c(=O)[n-]c2[O-])cc(C)n1-c1cnn(C)c1S(=O)(=O)N1CCC1 (3D coordinates assigned)
C=c1c(=Cc2[n-]c(=O)[n-]c2[O-])cc(C)n1-c1cnn(C)c1S(=O)(=O)N1CCC1 (nonaromatic ring conformer: 223.47405143560604 kcal/mol)

>  <smiles>  (1627) 
C=c1c(=Cc2[nH]c(=O)[nH]c2O)cc(C)n1-c1cnn(C)c1S(=O)(=O)N1CCC1

>  <score_type>  (1627) 
oracle

>  <origin>  (1627) 
adg

>  <m_score__min__energy>  (1627) 
-15.66

>  <m_primary>  (1627) 
energy

$$$$
6:0
     RDKit          3D

 39 43  0  0  0  0  0  0  0  0999 V2000
   63.0770   33.3800   46.5900 C   0  0  0  0  0  0  0  0  0  0  0  0
   62.5510   33.4340   47.8220 C   0  0  0  0  0  0  0  0  0  0  0  0
   63.2400   33.5460   49.0410 C   0  0  0  0  0  0  0  0  0  0  0  0
   64.5530   33.4650   49.3220 C   0  0  0  0  0  0  0  0  0  0  0  0
   65.2040   32.3590   50.0380 C   0  0  0  0  0  0  0  0  0  0  0  0
   64.5510   31.3060   50.5680 N   0  0  0  0  0  0  0  0  0  0  0  0
   65.5160   30.6590   51.2560 C   0  0  0  0  0  0  0  0  0  0  0  0
   65.2930   29.6010   51.9030 O   0  0  0  0  0  0  0  0  0  0  0  0
   66.7320   31.2450   51.2150 N   0  0  0  0  0  0  0  0  0  0  0  0
   66.5120   32.3260   50.4510 C   0  0  0  0  0  0  0  0  0  0  0  0
   67.4830   33.2720   50.1490 O   0  0  0  0  0  0  0  0  0  0  0  0
   62.2760   33.7580   50.0140 C   0  0  0  0  0  0  0  0  0  0  0  0
   61.0510   33.7180   49.3790 C   0  0  0  0  0  0  0  0  0  0  0  0
   59.7250   33.8340   50.0660 C   0  0  0  0  0  0  0  0  0  0  0  0
   61.2160   33.5110   48.0570 N   0  0  0  0  0  0  0  0  0  0  0  0
   60.1590   33.4840   47.0860 C   0  0  0  0  0  0  0  0  0  0  0  0
   59.8330   34.6430   46.3720 C   0  0  0  0  0  0  0  0  0  0  0  0
   58.8280   34.6070   45.4010 C   0  0  0  0  0  0  0  0  0  0  0  0
   58.1610   33.4090   45.1250 C   0  0  0  0  0  0  0  0  0  0  0  0
   58.4990   32.2330   45.8170 C   0  0  0  0  0  0  0  0  0  0  0  0
   57.8220   30.9530   45.5030 C   0  0  0  0  0  0  0  0  0  0  0  0
   56.7070   30.9750   44.9150 O   0  0  0  0  0  0  0  0  0  0  0  0
   58.4170   29.6890   45.8550 N   0  0  0  0  0  0  0  0  0  0  0  0
   58.9140   29.4670   47.2140 C   0  0  0  0  0  0  0  0  0  0  0  0
   60.1300   28.5340   47.1860 C   0  0  0  0  0  0  0  0  0  0  0  0
   59.9100   27.3280   46.3610 N   0  0  0  0  0  0  0  0  0  0  0  0
   59.5000   26.0970   47.0700 C   0  0  0  0  0  0  0  0  0  0  0  0
   58.5050   25.2570   46.3050 C   0  0  0  0  0  0  0  0  0  0  0  0
   58.9320   24.1230   45.5970 C   0  0  0  0  0  0  0  0  0  0  0  0
   58.0110   23.3380   44.9020 C   0  0  0  0  0  0  0  0  0  0  0  0
   56.6550   23.6740   44.9100 C   0  0  0  0  0  0  0  0  0  0  0  0
   56.2040   24.7980   45.6250 C   0  0  0  0  0  0  0  0  0  0  0  0
   54.7690   25.1630   45.6320 C   0  0  0  0  0  0  0  0  0  0  0  0
   54.4040   26.3270   45.9490 O   0  0  0  0  0  0  0  0  0  0  0  0
   53.8020   24.2260   45.2940 O   0  0  0  0  0  0  0  0  0  0  0  0
   57.1370   25.5760   46.3310 C   0  0  0  0  0  0  0  0  0  0  0  0
   59.3210   27.5590   45.0270 C   0  0  0  0  0  0  0  0  0  0  0  0
   58.1070   28.4950   45.0670 C   0  0  0  0  0  0  0  0  0  0  0  0
   59.4880   32.2840   46.8130 C   0  0  0  0  0  0  0  0  0  0  0  0
  1  2  2  0
  2  3  1  0
  3  4  2  3
  4  5  1  0
  5  6  1  0
  6  7  1  0
  7  8  2  0
  7  9  1  0
  9 10  1  0
 10 11  1  0
  3 12  1  0
 12 13  2  0
 13 14  1  0
 13 15  1  0
 15 16  1  0
 16 17  2  0
 17 18  1  0
 18 19  2  0
 19 20  1  0
 20 21  1  0
 21 22  2  0
 21 23  1  0
 23 24  1  0
 24 25  1  0
 25 26  1  0
 26 27  1  0
 27 28  1  0
 28 29  2  0
 29 30  1  0
 30 31  2  0
 31 32  1  0
 32 33  1  0
 33 34  2  0
 33 35  1  0
 32 36  2  0
 26 37  1  0
 37 38  1  0
 20 39  2  0
 15  2  1  0
 39 16  1  0
 10  5  2  0
 38 23  1  0
 36 28  1  0
M  CHG  4   6  -1   9  -1  11  -1  35  -1
M  END
>  <UniqueID>  (1628) 
5

>  <SMILES>  (1628) 
C=c1c(=Cc2[n-]c(=O)[n-]c2[O-])cc(C)n1-c1cccc(C(=O)N2CCN(Cc3cccc(C(=O)[O-])c3)CC2)c1

>  <Energy>  (1628) 
157.98369348088315

>  <Genealogy>  (1628) 
C=c1c(=Cc2[n-]c(=O)[n-]c2[O-])cc(C)n1-c1cccc(C(=O)N2CCN(Cc3cccc(C(=O)[O-])c3)CC2)c1 (protonated)
C=c1c(=Cc2[n-]c(=O)[n-]c2[O-])cc(C)n1-c1cccc(C(=O)N2CCN(Cc3cccc(C(=O)[O-])c3)CC2)c1 (3D coordinates assigned)
C=c1c(=Cc2[n-]c(=O)[n-]c2[O-])cc(C)n1-c1cccc(C(=O)N2CCN(Cc3cccc(C(=O)[O-])c3)CC2)c1 (nonaromatic ring conformer: 157.98369348088315 kcal/mol)

>  <smiles>  (1628) 
C=c1c(=Cc2[nH]c(=O)[nH]c2O)cc(C)n1-c1cccc(C(=O)N2CCN(Cc3cccc(C(=O)O)c3)CC2)c1

>  <score_type>  (1628) 
oracle

>  <origin>  (1628) 
adg

>  <m_score__min__energy>  (1628) 
-21.190000000000001

>  <m_primary>  (1628) 
energy

$$$$
9:0
     RDKit          3D

 31 34  0  0  0  0  0  0  0  0999 V2000
   57.7310   32.0920   46.4090 O   0  0  0  0  0  0  0  0  0  0  0  0
   59.0800   31.8240   46.6480 C   0  0  0  0  0  0  0  0  0  0  0  0
   59.8600   32.7280   47.3820 C   0  0  0  0  0  0  0  0  0  0  0  0
   61.2150   32.4590   47.6380 C   0  0  0  0  0  0  0  0  0  0  0  0
   62.0190   33.3970   48.3800 N   0  0  0  0  0  0  0  0  0  0  0  0
   63.3770   33.7430   47.9500 C   0  0  0  0  0  0  0  0  0  0  0  0
   64.3810   33.4820   49.0880 C   0  0  0  0  0  0  0  0  0  0  0  0
   63.8160   33.6800   50.4500 N   0  0  0  0  0  0  0  0  0  0  0  0
   63.5480   32.3980   51.1230 C   0  0  0  0  0  0  0  0  0  0  0  0
   62.6330   34.5690   50.4690 C   0  0  0  0  0  0  0  0  0  0  0  0
   61.4910   34.0200   49.5980 C   0  0  0  0  0  0  0  0  0  0  0  0
   61.7840   31.2780   47.1350 C   0  0  0  0  0  0  0  0  0  0  0  0
   61.0090   30.3760   46.4030 C   0  0  0  0  0  0  0  0  0  0  0  0
   59.6570   30.6430   46.1550 C   0  0  0  0  0  0  0  0  0  0  0  0
   58.8670   29.7060   45.4000 N   0  0  0  0  0  0  0  0  0  0  0  0
   58.1480   29.9970   44.2950 C   0  0  0  0  0  0  0  0  0  0  0  0
   58.0550   31.3530   43.6640 C   0  0  0  0  0  0  0  0  0  0  0  0
   57.4820   28.8750   43.8470 C   0  0  0  0  0  0  0  0  0  0  0  0
   57.8310   27.8340   44.6920 C   0  0  0  0  0  0  0  0  0  0  0  0
   57.4030   26.5700   44.5060 C   0  0  0  0  0  0  0  0  0  0  0  0
   57.0780   25.6070   45.5760 C   0  0  0  0  0  0  0  0  0  0  0  0
   55.8550   25.6920   46.2560 C   0  0  0  0  0  0  0  0  0  0  0  0
   54.9560   26.7140   45.9700 O   0  0  0  0  0  0  0  0  0  0  0  0
   55.5440   24.7780   47.2110 N   0  0  0  0  0  0  0  0  0  0  0  0
   56.3930   23.7620   47.5100 C   0  0  0  0  0  0  0  0  0  0  0  0
   56.0850   22.9290   48.4010 O   0  0  0  0  0  0  0  0  0  0  0  0
   57.5710   23.6410   46.8460 N   0  0  0  0  0  0  0  0  0  0  0  0
   57.9280   24.5290   45.8840 C   0  0  0  0  0  0  0  0  0  0  0  0
   59.0190   24.3730   45.2720 O   0  0  0  0  0  0  0  0  0  0  0  0
   58.6680   28.3910   45.6760 C   0  0  0  0  0  0  0  0  0  0  0  0
   59.1170   27.8000   46.7940 C   0  0  0  0  0  0  0  0  0  0  0  0
  1  2  1  0
  2  3  2  0
  3  4  1  0
  4  5  1  0
  5  6  1  0
  6  7  1  0
  7  8  1  0
  8  9  1  0
  8 10  1  0
 10 11  1  0
  4 12  2  0
 12 13  1  0
 13 14  2  0
 14 15  1  0
 15 16  1  0
 16 17  1  0
 16 18  2  0
 18 19  1  0
 19 20  2  0
 20 21  1  0
 21 22  2  0
 22 23  1  0
 22 24  1  0
 24 25  1  0
 25 26  2  0
 25 27  1  0
 27 28  1  0
 28 29  2  0
 19 30  1  0
 30 31  2  0
 14  2  1  0
 30 15  1  0
 11  5  1  0
 28 21  1  0
M  CHG  3  23  -1  24  -1  27  -1
M  END
>  <UniqueID>  (1629) 
8

>  <SMILES>  (1629) 
C=c1/c(=C\c2c([O-])[n-]c(=O)[n-]c2=O)cc(C)n1-c1ccc(N2CCN(C)CC2)cc1O

>  <Energy>  (1629) 
116.40125995366968

>  <Genealogy>  (1629) 
C=c1c(=Cc2c([O-])[n-]c(=O)[n-]c2=O)cc(C)n1-c1ccc(N2CCN(C)CC2)cc1O (protonated)
C=c1/c(=C\c2c([O-])[n-]c(=O)[n-]c2=O)cc(C)n1-c1ccc(N2CCN(C)CC2)cc1O (cis-trans isomerization)
C=c1/c(=C\c2c([O-])[n-]c(=O)[n-]c2=O)cc(C)n1-c1ccc(N2CCN(C)CC2)cc1O (3D coordinates assigned)
C=c1/c(=C\c2c([O-])[n-]c(=O)[n-]c2=O)cc(C)n1-c1ccc(N2CCN(C)CC2)cc1O (nonaromatic ring conformer: 116.40125995366968 kcal/mol)

>  <smiles>  (1629) 
C=c1c(=Cc2c(O)[nH]c(=O)[nH]c2=O)cc(C)n1-c1ccc(N2CCN(C)CC2)cc1O

>  <score_type>  (1629) 
oracle

>  <origin>  (1629) 
adg

>  <m_score__min__energy>  (1629) 
-15.75

>  <m_primary>  (1629) 
energy

$$$$
16:0
     RDKit          3D

 31 34  0  0  0  0  0  0  0  0999 V2000
   58.5240   30.4060   47.3220 C   0  0  0  0  0  0  0  0  0  0  0  0
   58.0950   31.1180   46.2660 C   0  0  0  0  0  0  0  0  0  0  0  0
   57.9200   30.6490   44.9520 C   0  0  0  0  0  0  0  0  0  0  0  0
   57.9800   29.4050   44.4350 C   0  0  0  0  0  0  0  0  0  0  0  0
   57.4200   28.1850   45.0500 C   0  0  0  0  0  0  0  0  0  0  0  0
   56.0390   28.0760   45.2700 C   0  0  0  0  0  0  0  0  0  0  0  0
   55.1760   29.0870   44.8670 O   0  0  0  0  0  0  0  0  0  0  0  0
   55.5350   26.9690   45.8760 N   0  0  0  0  0  0  0  0  0  0  0  0
   56.3480   25.9650   46.2910 C   0  0  0  0  0  0  0  0  0  0  0  0
   55.8580   24.9470   46.8450 O   0  0  0  0  0  0  0  0  0  0  0  0
   57.6910   26.0600   46.1140 N   0  0  0  0  0  0  0  0  0  0  0  0
   58.2450   27.1460   45.5150 C   0  0  0  0  0  0  0  0  0  0  0  0
   59.4970   27.2100   45.3890 O   0  0  0  0  0  0  0  0  0  0  0  0
   57.6370   31.7580   44.1780 C   0  0  0  0  0  0  0  0  0  0  0  0
   57.5880   32.8400   45.0290 C   0  0  0  0  0  0  0  0  0  0  0  0
   57.3360   34.2500   44.5830 C   0  0  0  0  0  0  0  0  0  0  0  0
   57.8610   32.4600   46.3000 N   0  0  0  0  0  0  0  0  0  0  0  0
   57.9550   33.3750   47.4510 C   0  0  0  0  0  0  0  0  0  0  0  0
   59.3660   33.4280   47.9800 C   0  0  0  0  0  0  0  0  0  0  0  0
   59.6130   33.4980   49.3580 C   0  0  0  0  0  0  0  0  0  0  0  0
   60.8880   33.5520   49.8230 N   0  0  0  0  0  0  0  0  0  0  0  0
   61.9730   33.5380   48.9970 C   0  0  0  0  0  0  0  0  0  0  0  0
   63.3060   33.5890   49.5590 N   0  0  0  0  0  0  0  0  0  0  0  0
   63.5640   34.2740   50.8340 C   0  0  0  0  0  0  0  0  0  0  0  0
   64.3550   33.3600   51.7880 C   0  0  0  0  0  0  0  0  0  0  0  0
   65.3660   32.5040   51.1120 N   0  0  0  0  0  0  0  0  0  0  0  0
   64.9870   31.0800   51.1480 C   0  0  0  0  0  0  0  0  0  0  0  0
   65.6980   32.9490   49.7430 C   0  0  0  0  0  0  0  0  0  0  0  0
   64.4530   33.0100   48.8450 C   0  0  0  0  0  0  0  0  0  0  0  0
   61.7620   33.4650   47.6080 C   0  0  0  0  0  0  0  0  0  0  0  0
   60.4610   33.4080   47.1070 C   0  0  0  0  0  0  0  0  0  0  0  0
  1  2  2  0
  2  3  1  0
  3  4  2  0
  4  5  1  0
  5  6  2  0
  6  7  1  0
  6  8  1  0
  8  9  1  0
  9 10  2  0
  9 11  1  0
 11 12  1  0
 12 13  2  0
  3 14  1  0
 14 15  2  0
 15 16  1  0
 15 17  1  0
 17 18  1  0
 18 19  1  0
 19 20  2  0
 20 21  1  0
 21 22  2  0
 22 23  1  0
 23 24  1  0
 24 25  1  0
 25 26  1  0
 26 27  1  0
 26 28  1  0
 28 29  1  0
 22 30  1  0
 30 31  2  0
 17  2  1  0
 31 19  1  0
 12  5  1  0
 29 23  1  0
M  CHG  3   7  -1   8  -1  11  -1
M  END
>  <UniqueID>  (1630) 
15

>  <SMILES>  (1630) 
C=c1/c(=C\c2c([O-])[n-]c(=O)[n-]c2=O)cc(C)n1Cc1ccc(N2CCN(C)CC2)nc1

>  <Energy>  (1630) 
110.5665576271467

>  <Genealogy>  (1630) 
C=c1c(=Cc2c([O-])[n-]c(=O)[n-]c2=O)cc(C)n1Cc1ccc(N2CCN(C)CC2)nc1 (protonated)
C=c1/c(=C\c2c([O-])[n-]c(=O)[n-]c2=O)cc(C)n1Cc1ccc(N2CCN(C)CC2)nc1 (cis-trans isomerization)
C=c1/c(=C\c2c([O-])[n-]c(=O)[n-]c2=O)cc(C)n1Cc1ccc(N2CCN(C)CC2)nc1 (3D coordinates assigned)
C=c1/c(=C\c2c([O-])[n-]c(=O)[n-]c2=O)cc(C)n1Cc1ccc(N2CCN(C)CC2)nc1 (nonaromatic ring conformer: 110.5665576271467 kcal/mol)

>  <smiles>  (1630) 
C=c1c(=Cc2c(O)[nH]c(=O)[nH]c2=O)cc(C)n1Cc1ccc(N2CCN(C)CC2)nc1

>  <score_type>  (1630) 
oracle

>  <origin>  (1630) 
adg

>  <m_score__min__energy>  (1630) 
-16.09

>  <m_primary>  (1630) 
energy

$$$$
21:0
     RDKit          3D

 31 34  0  0  0  0  0  0  0  0999 V2000
   63.5050   33.8460   47.4250 C   0  0  0  0  0  0  0  0  0  0  0  0
   63.1840   33.3450   48.6030 C   0  0  0  0  0  0  0  0  0  0  0  0
   62.7530   34.1560   49.7620 C   0  0  0  0  0  0  0  0  0  0  0  0
   63.6160   34.6270   50.5480 O   0  0  0  0  0  0  0  0  0  0  0  0
   61.3760   34.4840   49.9730 N   0  0  0  0  0  0  0  0  0  0  0  0
   60.2900   33.5480   49.9720 C   0  0  0  0  0  0  0  0  0  0  0  0
   59.4880   33.3530   51.1110 C   0  0  0  0  0  0  0  0  0  0  0  0
   58.4240   32.4490   51.0730 C   0  0  0  0  0  0  0  0  0  0  0  0
   58.1410   31.7470   49.8990 C   0  0  0  0  0  0  0  0  0  0  0  0
   58.9220   31.9490   48.7520 C   0  0  0  0  0  0  0  0  0  0  0  0
   58.6190   31.2410   47.5370 N   0  0  0  0  0  0  0  0  0  0  0  0
   58.0820   31.7820   46.4210 C   0  0  0  0  0  0  0  0  0  0  0  0
   57.7420   33.2310   46.2460 C   0  0  0  0  0  0  0  0  0  0  0  0
   57.9260   30.8180   45.4450 C   0  0  0  0  0  0  0  0  0  0  0  0
   58.3720   29.6220   45.9920 C   0  0  0  0  0  0  0  0  0  0  0  0
   58.4190   28.4300   45.3670 C   0  0  0  0  0  0  0  0  0  0  0  0
   57.5330   27.2930   45.7090 C   0  0  0  0  0  0  0  0  0  0  0  0
   56.1330   27.3980   45.6260 C   0  0  0  0  0  0  0  0  0  0  0  0
   55.5300   28.5820   45.2160 O   0  0  0  0  0  0  0  0  0  0  0  0
   55.3540   26.3410   45.9700 N   0  0  0  0  0  0  0  0  0  0  0  0
   55.9020   25.1800   46.4120 C   0  0  0  0  0  0  0  0  0  0  0  0
   55.1590   24.2130   46.7220 O   0  0  0  0  0  0  0  0  0  0  0  0
   57.2480   25.0650   46.5280 N   0  0  0  0  0  0  0  0  0  0  0  0
   58.0730   26.0920   46.1950 C   0  0  0  0  0  0  0  0  0  0  0  0
   59.3190   25.9500   46.3190 O   0  0  0  0  0  0  0  0  0  0  0  0
   58.8030   29.9190   47.2890 C   0  0  0  0  0  0  0  0  0  0  0  0
   59.3440   29.0580   48.1660 C   0  0  0  0  0  0  0  0  0  0  0  0
   59.9880   32.8590   48.7920 C   0  0  0  0  0  0  0  0  0  0  0  0
   63.1960   31.8500   48.5450 C   0  0  0  0  0  0  0  0  0  0  0  0
   63.6030   31.5650   47.0920 C   0  0  0  0  0  0  0  0  0  0  0  0
   63.7730   32.8480   46.5100 O   0  0  0  0  0  0  0  0  0  0  0  0
  1  2  2  0
  2  3  1  0
  3  4  2  0
  3  5  1  0
  5  6  1  0
  6  7  2  0
  7  8  1  0
  8  9  2  0
  9 10  1  0
 10 11  1  0
 11 12  1  0
 12 13  1  0
 12 14  2  0
 14 15  1  0
 15 16  2  0
 16 17  1  0
 17 18  2  0
 18 19  1  0
 18 20  1  0
 20 21  1  0
 21 22  2  0
 21 23  1  0
 23 24  1  0
 24 25  2  0
 15 26  1  0
 26 27  2  0
 10 28  2  0
  2 29  1  0
 29 30  1  0
 30 31  1  0
 31  1  1  0
 28  6  1  0
 26 11  1  0
 24 17  1  0
M  CHG  4   5  -1  19  -1  20  -1  23  -1
M  END
>  <UniqueID>  (1631) 
20

>  <SMILES>  (1631) 
C=c1/c(=C/c2c([O-])[n-]c(=O)[n-]c2=O)cc(C)n1-c1cccc([N-]C(=O)C2=COCC2)c1

>  <Energy>  (1631) 
112.35216508274532

>  <Genealogy>  (1631) 
C=c1c(=Cc2c([O-])[n-]c(=O)[n-]c2=O)cc(C)n1-c1cccc([N-]C(=O)C2=COCC2)c1 (protonated)
C=c1/c(=C/c2c([O-])[n-]c(=O)[n-]c2=O)cc(C)n1-c1cccc([N-]C(=O)C2=COCC2)c1 (cis-trans isomerization)
C=c1/c(=C/c2c([O-])[n-]c(=O)[n-]c2=O)cc(C)n1-c1cccc([N-]C(=O)C2=COCC2)c1 (3D coordinates assigned)
C=c1/c(=C/c2c([O-])[n-]c(=O)[n-]c2=O)cc(C)n1-c1cccc([N-]C(=O)C2=COCC2)c1 (nonaromatic ring conformer: 112.35216508274532 kcal/mol)

>  <smiles>  (1631) 
C=c1c(=Cc2c(O)[nH]c(=O)[nH]c2=O)cc(C)n1-c1cccc(NC(=O)C2=COCC2)c1

>  <score_type>  (1631) 
oracle

>  <origin>  (1631) 
adg

>  <m_score__min__energy>  (1631) 
-17.550000000000001

>  <m_primary>  (1631) 
energy

$$$$
25:0
     RDKit          3D

 26 29  0  0  0  0  0  0  0  0999 V2000
   57.5020   28.2770   43.6210 C   0  0  0  0  0  0  0  0  0  0  0  0
   57.7550   27.9970   44.9090 C   0  0  0  0  0  0  0  0  0  0  0  0
   57.7220   26.7310   45.5040 C   0  0  0  0  0  0  0  0  0  0  0  0
   57.4990   25.5480   44.9000 C   0  0  0  0  0  0  0  0  0  0  0  0
   56.2380   24.7860   45.0360 C   0  0  0  0  0  0  0  0  0  0  0  0
   55.1060   25.3960   45.5980 C   0  0  0  0  0  0  0  0  0  0  0  0
   55.1450   26.7270   45.9990 O   0  0  0  0  0  0  0  0  0  0  0  0
   53.9560   24.6900   45.7440 N   0  0  0  0  0  0  0  0  0  0  0  0
   53.8800   23.3880   45.3680 C   0  0  0  0  0  0  0  0  0  0  0  0
   52.8020   22.7540   45.5080 O   0  0  0  0  0  0  0  0  0  0  0  0
   54.9690   22.7660   44.8460 N   0  0  0  0  0  0  0  0  0  0  0  0
   56.1430   23.4280   44.6810 C   0  0  0  0  0  0  0  0  0  0  0  0
   57.1410   22.8080   44.2270 O   0  0  0  0  0  0  0  0  0  0  0  0
   58.0060   26.9250   46.8490 C   0  0  0  0  0  0  0  0  0  0  0  0
   58.2010   28.2810   47.0220 C   0  0  0  0  0  0  0  0  0  0  0  0
   58.5310   28.9330   48.3300 C   0  0  0  0  0  0  0  0  0  0  0  0
   58.0420   28.9330   45.8480 N   0  0  0  0  0  0  0  0  0  0  0  0
   58.1820   30.3510   45.6510 C   0  0  0  0  0  0  0  0  0  0  0  0
   57.2660   31.0470   44.8190 C   0  0  0  0  0  0  0  0  0  0  0  0
   57.3840   32.4360   44.6270 C   0  0  0  0  0  0  0  0  0  0  0  0
   58.4230   33.0880   45.2830 C   0  0  0  0  0  0  0  0  0  0  0  0
   58.8150   34.4030   45.3160 C   0  0  0  0  0  0  0  0  0  0  0  0
   59.9000   34.4970   46.1210 N   0  0  0  0  0  0  0  0  0  0  0  0
   60.2030   33.2900   46.5940 N   0  0  0  0  0  0  0  0  0  0  0  0
   59.3050   32.4290   46.0860 C   0  0  0  0  0  0  0  0  0  0  0  0
   59.2210   31.0560   46.2990 C   0  0  0  0  0  0  0  0  0  0  0  0
  1  2  2  0
  2  3  1  0
  3  4  2  0
  4  5  1  0
  5  6  2  0
  6  7  1  0
  6  8  1  0
  8  9  1  0
  9 10  2  0
  9 11  1  0
 11 12  1  0
 12 13  2  0
  3 14  1  0
 14 15  2  0
 15 16  1  0
 15 17  1  0
 17 18  1  0
 18 19  1  0
 19 20  2  0
 20 21  1  0
 21 22  2  0
 22 23  1  0
 23 24  1  0
 24 25  2  0
 25 26  1  0
 17  2  1  0
 26 18  2  0
 12  5  1  0
 25 21  1  0
M  CHG  4   7  -1   8  -1  11  -1  23  -1
M  END
>  <UniqueID>  (1632) 
24

>  <SMILES>  (1632) 
C=c1/c(=C/c2c([O-])[n-]c(=O)[n-]c2=O)cc(C)n1-c1ccc2c[n-]nc2c1

>  <Energy>  (1632) 
124.56578321890444

>  <Genealogy>  (1632) 
C=c1c(=Cc2c([O-])[n-]c(=O)[n-]c2=O)cc(C)n1-c1ccc2c[n-]nc2c1 (protonated)
C=c1/c(=C/c2c([O-])[n-]c(=O)[n-]c2=O)cc(C)n1-c1ccc2c[n-]nc2c1 (cis-trans isomerization)
C=c1/c(=C/c2c([O-])[n-]c(=O)[n-]c2=O)cc(C)n1-c1ccc2c[n-]nc2c1 (3D coordinates assigned)
C=c1/c(=C/c2c([O-])[n-]c(=O)[n-]c2=O)cc(C)n1-c1ccc2c[n-]nc2c1 (optimized conformer: 124.56578321890444 kcal/mol)

>  <smiles>  (1632) 
C=c1c(=Cc2c(O)[nH]c(=O)[nH]c2=O)cc(C)n1-c1ccc2c[nH]nc2c1

>  <score_type>  (1632) 
oracle

>  <origin>  (1632) 
adg

>  <m_score__min__energy>  (1632) 
-16.199999999999999

>  <m_primary>  (1632) 
energy

$$$$
26:0
     RDKit          3D

 27 29  0  0  0  0  0  0  0  0999 V2000
   55.0050   26.6910   45.9800 O   0  0  0  0  0  0  0  0  0  0  0  0
   56.0560   25.8160   46.2320 C   0  0  0  0  0  0  0  0  0  0  0  0
   55.8650   24.5370   46.6200 N   0  0  0  0  0  0  0  0  0  0  0  0
   57.0980   24.0020   46.7310 C   0  0  0  0  0  0  0  0  0  0  0  0
   58.0520   24.9410   46.4120 C   0  0  0  0  0  0  0  0  0  0  0  0
   59.4270   24.7350   46.4140 O   0  0  0  0  0  0  0  0  0  0  0  0
   57.4050   26.1150   46.0990 C   0  0  0  0  0  0  0  0  0  0  0  0
   58.0670   27.3690   45.6780 C   0  0  0  0  0  0  0  0  0  0  0  0
   57.6730   28.5830   46.0830 C   0  0  0  0  0  0  0  0  0  0  0  0
   56.8220   29.4500   45.2510 C   0  0  0  0  0  0  0  0  0  0  0  0
   55.5790   29.2480   45.1750 O   0  0  0  0  0  0  0  0  0  0  0  0
   57.4230   30.5600   44.5720 N   0  0  0  0  0  0  0  0  0  0  0  0
   57.7320   31.8440   45.1350 C   0  0  0  0  0  0  0  0  0  0  0  0
   57.4260   33.0450   44.4680 C   0  0  0  0  0  0  0  0  0  0  0  0
   57.7700   34.2730   45.0410 C   0  0  0  0  0  0  0  0  0  0  0  0
   58.4280   34.3150   46.2730 C   0  0  0  0  0  0  0  0  0  0  0  0
   58.7530   33.1240   46.9360 C   0  0  0  0  0  0  0  0  0  0  0  0
   59.5990   33.1610   48.4800 S   0  0  0  0  0  0  0  0  0  0  0  0
   60.0110   34.5780   48.7620 O   0  0  0  0  0  0  0  0  0  0  0  0
   58.6790   32.6880   49.5720 O   0  0  0  0  0  0  0  0  0  0  0  0
   61.0100   32.1270   48.3890 N   0  0  0  0  0  0  0  0  0  0  0  0
   61.9710   32.4090   49.4780 C   0  0  0  0  0  0  0  0  0  0  0  0
   63.1500   33.2860   49.0190 C   0  0  0  0  0  0  0  0  0  0  0  0
   62.7270   34.1920   48.0250 O   0  0  0  0  0  0  0  0  0  0  0  0
   62.4170   33.4970   46.8280 C   0  0  0  0  0  0  0  0  0  0  0  0
   61.6390   32.1790   47.0580 C   0  0  0  0  0  0  0  0  0  0  0  0
   58.4130   31.8930   46.3570 C   0  0  0  0  0  0  0  0  0  0  0  0
  1  2  1  0
  2  3  1  0
  3  4  1  0
  4  5  2  0
  5  6  1  0
  5  7  1  0
  7  8  1  0
  8  9  2  0
  9 10  1  0
 10 11  2  0
 10 12  1  0
 12 13  1  0
 13 14  2  0
 14 15  1  0
 15 16  2  0
 16 17  1  0
 17 18  1  0
 18 19  2  0
 18 20  2  0
 18 21  1  0
 21 22  1  0
 22 23  1  0
 23 24  1  0
 24 25  1  0
 25 26  1  0
 17 27  2  0
  7  2  2  0
 27 13  1  0
 26 21  1  0
M  CHG  3   3  -1   6  -1  12  -1
M  END
>  <UniqueID>  (1633) 
25

>  <SMILES>  (1633) 
O=C(/C=C/c1c([O-])c[n-]c1O)[N-]c1cccc(S(=O)(=O)N2CCOCC2)c1

>  <Energy>  (1633) 
85.88671848891093

>  <Genealogy>  (1633) 
O=C(C=Cc1c([O-])c[n-]c1O)[N-]c1cccc(S(=O)(=O)N2CCOCC2)c1 (protonated)
O=C(/C=C/c1c([O-])c[n-]c1O)[N-]c1cccc(S(=O)(=O)N2CCOCC2)c1 (cis-trans isomerization)
O=C(/C=C/c1c([O-])c[n-]c1O)[N-]c1cccc(S(=O)(=O)N2CCOCC2)c1 (3D coordinates assigned)
O=C(/C=C/c1c([O-])c[n-]c1O)[N-]c1cccc(S(=O)(=O)N2CCOCC2)c1 (nonaromatic ring conformer: 85.88671848891093 kcal/mol)

>  <smiles>  (1633) 
O=C(C=Cc1c(O)c[nH]c1O)Nc1cccc(S(=O)(=O)N2CCOCC2)c1

>  <score_type>  (1633) 
oracle

>  <origin>  (1633) 
adg

>  <m_score__min__energy>  (1633) 
-14.720000000000001

>  <m_primary>  (1633) 
energy

$$$$
31:0
     RDKit          3D

 34 38  0  0  0  0  0  0  0  0999 V2000
   56.2590   29.0370   44.8400 C   0  0  0  0  0  0  0  0  0  0  0  0
   57.5340   28.6280   44.9390 C   0  0  0  0  0  0  0  0  0  0  0  0
   58.0410   27.3470   44.6680 C   0  0  0  0  0  0  0  0  0  0  0  0
   57.4110   26.1770   44.4450 C   0  0  0  0  0  0  0  0  0  0  0  0
   56.8360   25.3030   45.4790 C   0  0  0  0  0  0  0  0  0  0  0  0
   57.4790   24.2440   45.9990 N   0  0  0  0  0  0  0  0  0  0  0  0
   56.6510   23.8250   46.9800 C   0  0  0  0  0  0  0  0  0  0  0  0
   56.9040   22.8250   47.7010 O   0  0  0  0  0  0  0  0  0  0  0  0
   55.5360   24.5700   47.1390 N   0  0  0  0  0  0  0  0  0  0  0  0
   55.6760   25.5110   46.1910 C   0  0  0  0  0  0  0  0  0  0  0  0
   54.7750   26.5530   46.0000 O   0  0  0  0  0  0  0  0  0  0  0  0
   59.4210   27.4670   44.6670 C   0  0  0  0  0  0  0  0  0  0  0  0
   59.7080   28.7730   45.0030 C   0  0  0  0  0  0  0  0  0  0  0  0
   61.0900   29.3460   45.1020 C   0  0  0  0  0  0  0  0  0  0  0  0
   58.5670   29.4760   45.1740 N   0  0  0  0  0  0  0  0  0  0  0  0
   58.4890   30.8840   45.4610 C   0  0  0  0  0  0  0  0  0  0  0  0
   58.9460   31.3660   46.6940 C   0  0  0  0  0  0  0  0  0  0  0  0
   58.8660   32.7330   47.0040 C   0  0  0  0  0  0  0  0  0  0  0  0
   59.3070   33.2180   48.2870 N   0  0  0  0  0  0  0  0  0  0  0  0
   59.3150   32.3180   49.4490 C   0  0  0  0  0  0  0  0  0  0  0  0
   60.3560   32.7610   50.4950 C   0  0  0  0  0  0  0  0  0  0  0  0
   61.6280   33.3630   49.8390 C   0  0  0  0  0  0  0  0  0  0  0  0
   62.3760   32.2970   49.0690 C   0  0  0  0  0  0  0  0  0  0  0  0
   61.9520   31.7670   48.0080 O   0  0  0  0  0  0  0  0  0  0  0  0
   63.6250   31.9390   49.6290 N   0  0  0  0  0  0  0  0  0  0  0  0
   63.7780   32.7890   50.7470 C   0  0  0  0  0  0  0  0  0  0  0  0
   64.7870   32.7350   51.4980 O   0  0  0  0  0  0  0  0  0  0  0  0
   62.6620   33.7570   50.9380 C   0  0  0  0  0  0  0  0  0  0  0  0
   61.2740   34.5770   48.9200 C   0  0  0  0  0  0  0  0  0  0  0  0
   59.8100   34.5870   48.4470 C   0  0  0  0  0  0  0  0  0  0  0  0
   58.3110   33.6150   46.0630 C   0  0  0  0  0  0  0  0  0  0  0  0
   57.8540   33.1400   44.8320 C   0  0  0  0  0  0  0  0  0  0  0  0
   57.9380   31.7780   44.5250 C   0  0  0  0  0  0  0  0  0  0  0  0
   57.3100   31.2090   42.9840 Cl  0  0  0  0  0  0  0  0  0  0  0  0
  1  2  2  0
  2  3  1  0
  3  4  2  0
  4  5  1  0
  5  6  1  0
  6  7  1  0
  7  8  2  0
  7  9  1  0
  9 10  1  0
 10 11  1  0
  3 12  1  0
 12 13  2  0
 13 14  1  0
 13 15  1  0
 15 16  1  0
 16 17  2  0
 17 18  1  0
 18 19  1  0
 19 20  1  0
 20 21  1  0
 21 22  1  0
 22 23  1  0
 23 24  2  0
 23 25  1  0
 25 26  1  0
 26 27  2  0
 26 28  1  0
 22 29  1  0
 29 30  1  0
 18 31  2  0
 31 32  1  0
 32 33  2  0
 33 34  1  0
 15  2  1  0
 33 16  1  0
 10  5  2  0
 30 19  1  0
 28 22  1  0
M  CHG  4   6  -1   9  -1  11  -1  25  -1
M  END
>  <UniqueID>  (1634) 
29

>  <SMILES>  (1634) 
C=c1/c(=C\c2[n-]c(=O)[n-]c2[O-])cc(C)n1-c1cc(N2CCC3(CC2)CC(=O)[N-]C3=O)ccc1Cl

>  <Energy>  (1634) 
154.22786675216264

>  <Genealogy>  (1634) 
C=c1c(=Cc2[n-]c(=O)[n-]c2[O-])cc(C)n1-c1cc(N2CCC3(CC2)CC(=O)[N-]C3=O)ccc1Cl (protonated)
C=c1/c(=C\c2[n-]c(=O)[n-]c2[O-])cc(C)n1-c1cc(N2CCC3(CC2)CC(=O)[N-]C3=O)ccc1Cl (cis-trans isomerization)
C=c1/c(=C\c2[n-]c(=O)[n-]c2[O-])cc(C)n1-c1cc(N2CCC3(CC2)CC(=O)[N-]C3=O)ccc1Cl (3D coordinates assigned)
C=c1/c(=C\c2[n-]c(=O)[n-]c2[O-])cc(C)n1-c1cc(N2CCC3(CC2)CC(=O)[N-]C3=O)ccc1Cl (nonaromatic ring conformer: 154.22786675216264 kcal/mol)

>  <smiles>  (1634) 
C=c1c(=Cc2[nH]c(=O)[nH]c2O)cc(C)n1-c1cc(N2CCC3(CC2)CC(=O)NC3=O)ccc1Cl

>  <score_type>  (1634) 
oracle

>  <origin>  (1634) 
adg

>  <m_score__min__energy>  (1634) 
-18.73

>  <m_primary>  (1634) 
energy

$$$$
32:0
     RDKit          3D

 27 29  0  0  0  0  0  0  0  0999 V2000
   59.2890   30.4870   47.0220 C   0  0  0  0  0  0  0  0  0  0  0  0
   58.4950   31.1520   46.1680 C   0  0  0  0  0  0  0  0  0  0  0  0
   57.9500   30.6670   44.9660 C   0  0  0  0  0  0  0  0  0  0  0  0
   57.9450   29.4330   44.4220 C   0  0  0  0  0  0  0  0  0  0  0  0
   57.3940   28.2150   45.0470 C   0  0  0  0  0  0  0  0  0  0  0  0
   56.0160   28.1000   45.2760 C   0  0  0  0  0  0  0  0  0  0  0  0
   55.1440   29.1060   44.8710 O   0  0  0  0  0  0  0  0  0  0  0  0
   55.5200   26.9950   45.8920 N   0  0  0  0  0  0  0  0  0  0  0  0
   56.3410   25.9970   46.3070 C   0  0  0  0  0  0  0  0  0  0  0  0
   55.8580   24.9810   46.8710 O   0  0  0  0  0  0  0  0  0  0  0  0
   57.6810   26.0960   46.1200 N   0  0  0  0  0  0  0  0  0  0  0  0
   58.2260   27.1810   45.5110 C   0  0  0  0  0  0  0  0  0  0  0  0
   59.4760   27.2480   45.3710 O   0  0  0  0  0  0  0  0  0  0  0  0
   57.3510   31.7520   44.3490 C   0  0  0  0  0  0  0  0  0  0  0  0
   57.5040   32.8310   45.1920 C   0  0  0  0  0  0  0  0  0  0  0  0
   57.0130   34.2140   44.8880 C   0  0  0  0  0  0  0  0  0  0  0  0
   58.1890   32.4700   46.3040 N   0  0  0  0  0  0  0  0  0  0  0  0
   58.5400   33.3550   47.4270 C   0  0  0  0  0  0  0  0  0  0  0  0
   59.5140   34.4140   46.9830 C   0  0  0  0  0  0  0  0  0  0  0  0
   59.2230   35.5930   47.1140 O   0  0  0  0  0  0  0  0  0  0  0  0
   60.8360   34.0440   46.3660 C   0  0  0  0  0  0  0  0  0  0  0  0
   61.8750   33.8120   47.4330 C   0  0  0  0  0  0  0  0  0  0  0  0
   63.1350   33.2860   47.0980 C   0  0  0  0  0  0  0  0  0  0  0  0
   64.0980   33.0800   48.0910 C   0  0  0  0  0  0  0  0  0  0  0  0
   63.8100   33.3930   49.4220 C   0  0  0  0  0  0  0  0  0  0  0  0
   62.5620   33.9230   49.7620 C   0  0  0  0  0  0  0  0  0  0  0  0
   61.5980   34.1340   48.7710 C   0  0  0  0  0  0  0  0  0  0  0  0
  1  2  2  0
  2  3  1  0
  3  4  2  3
  4  5  1  0
  5  6  2  0
  6  7  1  0
  6  8  1  0
  8  9  1  0
  9 10  2  0
  9 11  1  0
 11 12  1  0
 12 13  2  0
  3 14  1  0
 14 15  2  0
 15 16  1  0
 15 17  1  0
 17 18  1  0
 18 19  1  0
 19 20  2  0
 19 21  1  0
 21 22  1  0
 22 23  2  0
 23 24  1  0
 24 25  2  0
 25 26  1  0
 26 27  2  0
 17  2  1  0
 27 22  1  0
 12  5  1  0
M  CHG  3   7  -1   8  -1  11  -1
M  END
>  <UniqueID>  (1635) 
30

>  <SMILES>  (1635) 
C=c1c(=Cc2c([O-])[n-]c(=O)[n-]c2=O)cc(C)n1CC(=O)Cc1ccccc1

>  <Energy>  (1635) 
81.87857210236615

>  <Genealogy>  (1635) 
C=c1c(=Cc2c([O-])[n-]c(=O)[n-]c2=O)cc(C)n1CC(=O)Cc1ccccc1 (protonated)
C=c1c(=Cc2c([O-])[n-]c(=O)[n-]c2=O)cc(C)n1CC(=O)Cc1ccccc1 (3D coordinates assigned)
C=c1c(=Cc2c([O-])[n-]c(=O)[n-]c2=O)cc(C)n1CC(=O)Cc1ccccc1 (optimized conformer: 81.87857210236615 kcal/mol)

>  <smiles>  (1635) 
C=c1c(=Cc2c(O)[nH]c(=O)[nH]c2=O)cc(C)n1CC(=O)Cc1ccccc1

>  <score_type>  (1635) 
oracle

>  <origin>  (1635) 
adg

>  <m_score__min__energy>  (1635) 
-16.879999999999999

>  <m_primary>  (1635) 
energy

$$$$
38:0
     RDKit          3D

 24 26  0  0  0  0  0  0  0  0999 V2000
   60.4590   30.0810   46.2430 C   0  0  0  0  0  0  0  0  0  0  0  0
   59.4580   30.9300   45.9530 C   0  0  0  0  0  0  0  0  0  0  0  0
   58.3820   30.6910   45.0780 C   0  0  0  0  0  0  0  0  0  0  0  0
   57.9790   29.5680   44.4500 C   0  0  0  0  0  0  0  0  0  0  0  0
   57.4180   28.3690   45.1020 C   0  0  0  0  0  0  0  0  0  0  0  0
   56.0300   28.2080   45.2590 C   0  0  0  0  0  0  0  0  0  0  0  0
   55.1470   29.1950   44.8380 O   0  0  0  0  0  0  0  0  0  0  0  0
   55.5400   27.0740   45.8250 N   0  0  0  0  0  0  0  0  0  0  0  0
   56.3690   26.0780   46.2280 C   0  0  0  0  0  0  0  0  0  0  0  0
   55.8940   25.0380   46.7540 O   0  0  0  0  0  0  0  0  0  0  0  0
   57.7120   26.1990   46.0610 N   0  0  0  0  0  0  0  0  0  0  0  0
   58.2510   27.3120   45.5010 C   0  0  0  0  0  0  0  0  0  0  0  0
   59.5000   27.3890   45.3540 O   0  0  0  0  0  0  0  0  0  0  0  0
   57.7000   31.8890   44.9660 C   0  0  0  0  0  0  0  0  0  0  0  0
   58.3310   32.7890   45.7960 C   0  0  0  0  0  0  0  0  0  0  0  0
   57.8620   34.1950   46.0230 C   0  0  0  0  0  0  0  0  0  0  0  0
   59.3980   32.2150   46.4010 N   0  0  0  0  0  0  0  0  0  0  0  0
   60.2640   32.8770   47.3920 C   0  0  0  0  0  0  0  0  0  0  0  0
   59.6410   32.8180   48.7630 C   0  0  0  0  0  0  0  0  0  0  0  0
   59.8460   33.8530   49.6900 C   0  0  0  0  0  0  0  0  0  0  0  0
   59.2700   33.7950   50.9200 N   0  0  0  0  0  0  0  0  0  0  0  0
   58.4850   32.7500   51.2930 C   0  0  0  0  0  0  0  0  0  0  0  0
   58.2550   31.6970   50.4070 C   0  0  0  0  0  0  0  0  0  0  0  0
   58.8360   31.7320   49.1380 C   0  0  0  0  0  0  0  0  0  0  0  0
  1  2  2  0
  2  3  1  0
  3  4  2  0
  4  5  1  0
  5  6  2  0
  6  7  1  0
  6  8  1  0
  8  9  1  0
  9 10  2  0
  9 11  1  0
 11 12  1  0
 12 13  2  0
  3 14  1  0
 14 15  2  0
 15 16  1  0
 15 17  1  0
 17 18  1  0
 18 19  1  0
 19 20  2  0
 20 21  1  0
 21 22  2  0
 22 23  1  0
 23 24  2  0
 17  2  1  0
 24 19  1  0
 12  5  1  0
M  CHG  3   7  -1   8  -1  11  -1
M  END
>  <UniqueID>  (1636) 
36

>  <SMILES>  (1636) 
C=c1/c(=C\c2c([O-])[n-]c(=O)[n-]c2=O)cc(C)n1Cc1cccnc1

>  <Energy>  (1636) 
83.29279462801404

>  <Genealogy>  (1636) 
C=c1c(=Cc2c([O-])[n-]c(=O)[n-]c2=O)cc(C)n1Cc1cccnc1 (protonated)
C=c1/c(=C\c2c([O-])[n-]c(=O)[n-]c2=O)cc(C)n1Cc1cccnc1 (cis-trans isomerization)
C=c1/c(=C\c2c([O-])[n-]c(=O)[n-]c2=O)cc(C)n1Cc1cccnc1 (3D coordinates assigned)
C=c1/c(=C\c2c([O-])[n-]c(=O)[n-]c2=O)cc(C)n1Cc1cccnc1 (optimized conformer: 83.29279462801404 kcal/mol)

>  <smiles>  (1636) 
C=c1c(=Cc2c(O)[nH]c(=O)[nH]c2=O)cc(C)n1Cc1cccnc1

>  <score_type>  (1636) 
oracle

>  <origin>  (1636) 
adg

>  <m_score__min__energy>  (1636) 
-15.26

>  <m_primary>  (1636) 
energy

$$$$
43:0
     RDKit          3D

 23 25  0  0  0  0  0  0  0  0999 V2000
   59.5010   29.4870   47.1180 C   0  0  0  0  0  0  0  0  0  0  0  0
   58.7080   29.9500   46.1400 C   0  0  0  0  0  0  0  0  0  0  0  0
   58.1740   29.2150   45.0780 C   0  0  0  0  0  0  0  0  0  0  0  0
   58.3410   27.8970   44.8400 C   0  0  0  0  0  0  0  0  0  0  0  0
   57.5190   26.8350   45.4460 C   0  0  0  0  0  0  0  0  0  0  0  0
   56.1430   27.0180   45.6410 C   0  0  0  0  0  0  0  0  0  0  0  0
   55.5200   28.1910   45.2310 O   0  0  0  0  0  0  0  0  0  0  0  0
   55.4070   26.0400   46.2320 N   0  0  0  0  0  0  0  0  0  0  0  0
   55.9860   24.8850   46.6500 C   0  0  0  0  0  0  0  0  0  0  0  0
   55.2840   23.9920   47.1920 O   0  0  0  0  0  0  0  0  0  0  0  0
   57.3210   24.6950   46.4890 N   0  0  0  0  0  0  0  0  0  0  0  0
   58.0990   25.6430   45.9050 C   0  0  0  0  0  0  0  0  0  0  0  0
   59.3350   25.4380   45.7760 O   0  0  0  0  0  0  0  0  0  0  0  0
   57.4560   30.1610   44.3400 C   0  0  0  0  0  0  0  0  0  0  0  0
   56.6820   29.9660   43.0740 C   0  0  0  0  0  0  0  0  0  0  0  0
   57.5600   31.3650   44.9320 N   0  0  0  0  0  0  0  0  0  0  0  0
   58.3040   31.2410   46.0210 N   0  0  0  0  0  0  0  0  0  0  0  0
   58.6590   32.3710   46.9020 C   0  0  0  0  0  0  0  0  0  0  0  0
   57.5300   33.4260   46.9770 C   0  0  0  0  0  0  0  0  0  0  0  0
   57.3820   34.2850   45.7010 C   0  0  0  0  0  0  0  0  0  0  0  0
   58.6880   34.4370   44.9020 C   0  0  0  0  0  0  0  0  0  0  0  0
   59.9120   34.3670   45.8130 C   0  0  0  0  0  0  0  0  0  0  0  0
   60.0230   32.9870   46.4840 C   0  0  0  0  0  0  0  0  0  0  0  0
  1  2  2  0
  2  3  1  0
  3  4  2  0
  4  5  1  0
  5  6  2  0
  6  7  1  0
  6  8  1  0
  8  9  1  0
  9 10  2  0
  9 11  1  0
 11 12  1  0
 12 13  2  0
  3 14  1  0
 14 15  1  0
 14 16  2  0
 16 17  1  0
 17 18  1  0
 18 19  1  0
 19 20  1  0
 20 21  1  0
 21 22  1  0
 22 23  1  0
 17  2  1  0
 23 18  1  0
 12  5  1  0
M  CHG  3   7  -1   8  -1  11  -1
M  END
>  <UniqueID>  (1637) 
41

>  <SMILES>  (1637) 
C=c1/c(=C/c2c([O-])[n-]c(=O)[n-]c2=O)c(C)nn1C1CCCCC1

>  <Energy>  (1637) 
90.43366223358721

>  <Genealogy>  (1637) 
C=c1c(=Cc2c([O-])[n-]c(=O)[n-]c2=O)c(C)nn1C1CCCCC1 (protonated)
C=c1/c(=C/c2c([O-])[n-]c(=O)[n-]c2=O)c(C)nn1C1CCCCC1 (cis-trans isomerization)
C=c1/c(=C/c2c([O-])[n-]c(=O)[n-]c2=O)c(C)nn1C1CCCCC1 (3D coordinates assigned)
C=c1/c(=C/c2c([O-])[n-]c(=O)[n-]c2=O)c(C)nn1C1CCCCC1 (nonaromatic ring conformer: 90.43366223358721 kcal/mol)

>  <smiles>  (1637) 
C=c1c(=Cc2c(O)[nH]c(=O)[nH]c2=O)c(C)nn1C1CCCCC1

>  <score_type>  (1637) 
oracle

>  <origin>  (1637) 
adg

>  <m_score__min__energy>  (1637) 
-16.440000000000001

>  <m_primary>  (1637) 
energy

$$$$
47:0
     RDKit          3D

 33 36  0  0  0  0  0  0  0  0999 V2000
   54.9850   26.1650   46.0080 N   0  0  0  0  0  0  0  0  0  0  0  0
   56.6920   25.8960   46.0540 S   0  0  0  0  0  0  0  0  0  0  0  0
   57.1010   25.5540   47.4580 O   0  0  0  0  0  0  0  0  0  0  0  0
   57.0250   24.7480   45.1400 O   0  0  0  0  0  0  0  0  0  0  0  0
   57.5610   27.3370   45.5330 C   0  0  0  0  0  0  0  0  0  0  0  0
   58.9620   27.3420   45.4760 C   0  0  0  0  0  0  0  0  0  0  0  0
   59.6440   28.4870   45.0500 C   0  0  0  0  0  0  0  0  0  0  0  0
   58.9310   29.6330   44.6850 C   0  0  0  0  0  0  0  0  0  0  0  0
   57.5270   29.6450   44.7530 C   0  0  0  0  0  0  0  0  0  0  0  0
   56.7680   30.8690   44.4040 C   0  0  0  0  0  0  0  0  0  0  0  0
   55.5110   30.8550   44.4900 O   0  0  0  0  0  0  0  0  0  0  0  0
   57.4170   32.0660   43.9440 N   0  0  0  0  0  0  0  0  0  0  0  0
   58.1410   32.8580   44.6790 C   0  0  0  0  0  0  0  0  0  0  0  0
   59.2760   32.4800   45.3030 N   0  0  0  0  0  0  0  0  0  0  0  0
   59.8330   33.4930   46.0200 C   0  0  0  0  0  0  0  0  0  0  0  0
   61.1120   33.2990   46.7470 C   0  0  0  0  0  0  0  0  0  0  0  0
   62.2680   34.0260   46.4130 C   0  0  0  0  0  0  0  0  0  0  0  0
   63.4600   33.8200   47.1130 C   0  0  0  0  0  0  0  0  0  0  0  0
   63.5130   32.8920   48.1560 C   0  0  0  0  0  0  0  0  0  0  0  0
   62.3680   32.1700   48.5170 C   0  0  0  0  0  0  0  0  0  0  0  0
   62.4190   31.1680   49.6040 C   0  0  0  0  0  0  0  0  0  0  0  0
   63.3600   31.2290   50.4450 O   0  0  0  0  0  0  0  0  0  0  0  0
   61.4340   30.1210   49.7100 N   0  0  0  0  0  0  0  0  0  0  0  0
   61.0290   29.6290   51.0390 C   0  0  0  0  0  0  0  0  0  0  0  0
   61.2240   28.1100   51.1280 C   0  0  0  0  0  0  0  0  0  0  0  0
   60.6280   27.4250   49.9300 C   0  0  0  0  0  0  0  0  0  0  0  0
   60.5850   26.2040   49.8880 O   0  0  0  0  0  0  0  0  0  0  0  0
   60.0580   28.2380   48.7980 C   0  0  0  0  0  0  0  0  0  0  0  0
   60.9700   29.4340   48.4890 C   0  0  0  0  0  0  0  0  0  0  0  0
   61.1770   32.3690   47.8030 C   0  0  0  0  0  0  0  0  0  0  0  0
   59.1130   34.6920   45.9720 C   0  0  0  0  0  0  0  0  0  0  0  0
   57.7560   34.4560   44.9980 S   0  0  0  0  0  0  0  0  0  0  0  0
   56.8470   28.4830   45.1590 C   0  0  0  0  0  0  0  0  0  0  0  0
  1  2  1  0
  2  3  2  0
  2  4  2  0
  2  5  1  0
  5  6  2  0
  6  7  1  0
  7  8  2  0
  8  9  1  0
  9 10  1  0
 10 11  2  0
 10 12  1  0
 12 13  2  0
 13 14  1  0
 14 15  1  0
 15 16  1  0
 16 17  2  0
 17 18  1  0
 18 19  2  0
 19 20  1  0
 20 21  1  0
 21 22  2  0
 21 23  1  0
 23 24  1  0
 24 25  1  0
 25 26  1  0
 26 27  2  0
 26 28  1  0
 28 29  1  0
 20 30  2  0
 15 31  2  0
 31 32  1  0
  9 33  2  0
 33  5  1  0
 32 13  1  0
 30 16  1  0
 29 23  1  0
M  CHG  2   1  -1  14  -1
M  END
>  <UniqueID>  (1638) 
45

>  <SMILES>  (1638) 
[NH-]S(=O)(=O)c1cccc(C(=O)/N=c2\[n-]c(-c3cccc(C(=O)N4CCC(=O)CC4)c3)cs2)c1

>  <Energy>  (1638) 
95.45186075654462

>  <Genealogy>  (1638) 
[NH-]S(=O)(=O)c1cccc(C(=O)N=c2[n-]c(-c3cccc(C(=O)N4CCC(=O)CC4)c3)cs2)c1 (protonated)
[NH-]S(=O)(=O)c1cccc(C(=O)/N=c2\[n-]c(-c3cccc(C(=O)N4CCC(=O)CC4)c3)cs2)c1 (cis-trans isomerization)
[NH-]S(=O)(=O)c1cccc(C(=O)/N=c2\[n-]c(-c3cccc(C(=O)N4CCC(=O)CC4)c3)cs2)c1 (3D coordinates assigned)
[NH-]S(=O)(=O)c1cccc(C(=O)/N=c2\[n-]c(-c3cccc(C(=O)N4CCC(=O)CC4)c3)cs2)c1 (nonaromatic ring conformer: 95.45186075654462 kcal/mol)

>  <smiles>  (1638) 
NS(=O)(=O)c1cccc(C(=O)N=c2[nH]c(-c3cccc(C(=O)N4CCC(=O)CC4)c3)cs2)c1

>  <score_type>  (1638) 
oracle

>  <origin>  (1638) 
adg

>  <m_score__min__energy>  (1638) 
-14.92

>  <m_primary>  (1638) 
energy

$$$$
65:0
     RDKit          3D

 38 42  0  0  0  0  0  0  0  0999 V2000
   57.2690   29.3220   53.3740 C   0  0  0  0  0  0  0  0  0  0  0  0
   57.1670   30.2880   52.2290 C   0  0  0  0  0  0  0  0  0  0  0  0
   56.0480   30.4120   51.6580 O   0  0  0  0  0  0  0  0  0  0  0  0
   58.3010   31.0720   51.7840 N   0  0  0  0  0  0  0  0  0  0  0  0
   58.1620   31.9220   50.5880 C   0  0  0  0  0  0  0  0  0  0  0  0
   59.0330   33.1760   50.7020 C   0  0  0  0  0  0  0  0  0  0  0  0
   60.3870   32.8110   51.1290 N   0  0  0  0  0  0  0  0  0  0  0  0
   61.5260   33.5210   50.6130 C   0  0  0  0  0  0  0  0  0  0  0  0
   62.3360   34.0620   51.4190 O   0  0  0  0  0  0  0  0  0  0  0  0
   61.7920   33.5890   49.1560 C   0  0  0  0  0  0  0  0  0  0  0  0
   62.9850   33.0690   48.6260 C   0  0  0  0  0  0  0  0  0  0  0  0
   63.2270   33.1160   47.2500 C   0  0  0  0  0  0  0  0  0  0  0  0
   62.2770   33.6700   46.3890 C   0  0  0  0  0  0  0  0  0  0  0  0
   61.0760   34.1840   46.8990 C   0  0  0  0  0  0  0  0  0  0  0  0
   60.0710   34.8160   45.9750 C   0  0  0  0  0  0  0  0  0  0  0  0
   58.8610   33.9440   45.8440 C   0  0  0  0  0  0  0  0  0  0  0  0
   57.7350   33.9700   46.6630 C   0  0  0  0  0  0  0  0  0  0  0  0
   56.7490   33.1020   46.3040 N   0  0  0  0  0  0  0  0  0  0  0  0
   57.0880   32.3740   45.2180 C   0  0  0  0  0  0  0  0  0  0  0  0
   56.2680   31.5170   44.6840 N   0  0  0  0  0  0  0  0  0  0  0  0
   56.4900   30.1140   44.4680 C   0  0  0  0  0  0  0  0  0  0  0  0
   55.6390   29.2960   44.9060 O   0  0  0  0  0  0  0  0  0  0  0  0
   57.7290   29.5980   43.7850 C   0  0  0  0  0  0  0  0  0  0  0  0
   58.2880   28.4540   44.5110 N   0  0  0  0  0  0  0  0  0  0  0  0
   58.2830   27.1510   44.1320 C   0  0  0  0  0  0  0  0  0  0  0  0
   57.7450   26.7430   43.0680 O   0  0  0  0  0  0  0  0  0  0  0  0
   58.9130   26.3180   44.9980 N   0  0  0  0  0  0  0  0  0  0  0  0
   59.3350   27.1630   45.9600 C   0  0  0  0  0  0  0  0  0  0  0  0
   60.0500   26.8450   47.1120 C   0  0  0  0  0  0  0  0  0  0  0  0
   60.3930   27.8960   47.9820 C   0  0  0  0  0  0  0  0  0  0  0  0
   60.0260   29.2280   47.6790 C   0  0  0  0  0  0  0  0  0  0  0  0
   60.4640   30.5260   48.7740 Cl  0  0  0  0  0  0  0  0  0  0  0  0
   59.3060   29.5170   46.5040 C   0  0  0  0  0  0  0  0  0  0  0  0
   58.9710   28.4480   45.6700 C   0  0  0  0  0  0  0  0  0  0  0  0
   58.6190   32.7970   44.6380 S   0  0  0  0  0  0  0  0  0  0  0  0
   60.8380   34.1380   48.2810 C   0  0  0  0  0  0  0  0  0  0  0  0
   60.5130   32.0150   52.3490 C   0  0  0  0  0  0  0  0  0  0  0  0
   59.6670   30.7470   52.2300 C   0  0  0  0  0  0  0  0  0  0  0  0
  1  2  1  0
  2  3  2  0
  2  4  1  0
  4  5  1  0
  5  6  1  0
  6  7  1  0
  7  8  1  0
  8  9  2  0
  8 10  1  0
 10 11  2  0
 11 12  1  0
 12 13  2  0
 13 14  1  0
 14 15  1  0
 15 16  1  0
 16 17  2  0
 17 18  1  0
 18 19  1  0
 19 20  2  3
 20 21  1  0
 21 22  2  0
 21 23  1  0
 23 24  1  0
 24 25  1  0
 25 26  2  0
 25 27  1  0
 27 28  1  0
 28 29  2  0
 29 30  1  0
 30 31  2  0
 31 32  1  0
 31 33  1  0
 33 34  2  0
 19 35  1  0
 14 36  2  0
  7 37  1  0
 37 38  1  0
 38  4  1  0
 36 10  1  0
 35 16  1  0
 34 24  1  0
 34 28  1  0
M  CHG  2  18  -1  27  -1
M  END
>  <UniqueID>  (1639) 
62

>  <SMILES>  (1639) 
CC(=O)N1CCN(C(=O)c2cccc(Cc3c[n-]c(=NC(=O)Cn4c(=O)[n-]c5ccc(Cl)cc54)s3)c2)CC1

>  <Energy>  (1639) 
142.22013778299274

>  <Genealogy>  (1639) 
CC(=O)N1CCN(C(=O)c2cccc(Cc3c[n-]c(=NC(=O)Cn4c(=O)[n-]c5ccc(Cl)cc54)s3)c2)CC1 (protonated)
CC(=O)N1CCN(C(=O)c2cccc(Cc3c[n-]c(=NC(=O)Cn4c(=O)[n-]c5ccc(Cl)cc54)s3)c2)CC1 (3D coordinates assigned)
CC(=O)N1CCN(C(=O)c2cccc(Cc3c[n-]c(=NC(=O)Cn4c(=O)[n-]c5ccc(Cl)cc54)s3)c2)CC1 (nonaromatic ring conformer: 142.22013778299274 kcal/mol)

>  <smiles>  (1639) 
CC(=O)N1CCN(C(=O)c2cccc(Cc3c[nH]c(=NC(=O)Cn4c(=O)[nH]c5ccc(Cl)cc54)s3)c2)CC1

>  <score_type>  (1639) 
oracle

>  <origin>  (1639) 
adg

>  <m_score__min__energy>  (1639) 
-14.48

>  <m_primary>  (1639) 
energy

$$$$
68:0
     RDKit          3D

 29 32  0  0  0  0  0  0  0  0999 V2000
   57.3630   28.2450   44.6130 C   0  0  0  0  0  0  0  0  0  0  0  0
   58.0000   27.3830   45.4190 C   0  0  0  0  0  0  0  0  0  0  0  0
   57.8870   25.9890   45.4080 C   0  0  0  0  0  0  0  0  0  0  0  0
   57.1600   25.2340   44.5630 C   0  0  0  0  0  0  0  0  0  0  0  0
   55.8370   24.6670   44.9070 C   0  0  0  0  0  0  0  0  0  0  0  0
   54.8730   25.4160   45.6050 C   0  0  0  0  0  0  0  0  0  0  0  0
   55.1340   26.7240   45.9990 O   0  0  0  0  0  0  0  0  0  0  0  0
   53.6610   24.8690   45.8840 N   0  0  0  0  0  0  0  0  0  0  0  0
   53.3520   23.6090   45.4840 C   0  0  0  0  0  0  0  0  0  0  0  0
   52.2250   23.1230   45.7570 O   0  0  0  0  0  0  0  0  0  0  0  0
   54.2560   22.8780   44.7840 N   0  0  0  0  0  0  0  0  0  0  0  0
   55.4810   23.3780   44.4820 C   0  0  0  0  0  0  0  0  0  0  0  0
   56.2930   22.6700   43.8260 O   0  0  0  0  0  0  0  0  0  0  0  0
   58.7150   25.5210   46.4210 C   0  0  0  0  0  0  0  0  0  0  0  0
   59.2860   26.6330   47.0100 C   0  0  0  0  0  0  0  0  0  0  0  0
   60.2740   26.6020   48.1350 C   0  0  0  0  0  0  0  0  0  0  0  0
   58.8560   27.7590   46.4000 N   0  0  0  0  0  0  0  0  0  0  0  0
   59.2530   29.0970   46.7430 C   0  0  0  0  0  0  0  0  0  0  0  0
   58.5310   29.7950   47.7170 C   0  0  0  0  0  0  0  0  0  0  0  0
   58.8940   31.0960   48.0660 C   0  0  0  0  0  0  0  0  0  0  0  0
   60.0030   31.7130   47.4660 C   0  0  0  0  0  0  0  0  0  0  0  0
   60.3810   33.1420   47.8280 C   0  0  0  0  0  0  0  0  0  0  0  0
   59.6620   34.2170   47.0950 N   0  0  0  0  0  0  0  0  0  0  0  0
   59.9330   34.3200   45.6530 C   0  0  0  0  0  0  0  0  0  0  0  0
   58.4840   34.0330   45.2900 C   0  0  0  0  0  0  0  0  0  0  0  0
   58.2460   33.9670   46.7890 C   0  0  0  0  0  0  0  0  0  0  0  0
   60.7000   31.0260   46.4560 C   0  0  0  0  0  0  0  0  0  0  0  0
   60.3520   29.7110   46.1090 C   0  0  0  0  0  0  0  0  0  0  0  0
   61.1230   28.9900   45.0360 C   0  0  0  0  0  0  0  0  0  0  0  0
  1  2  2  0
  2  3  1  0
  3  4  2  0
  4  5  1  0
  5  6  2  0
  6  7  1  0
  6  8  1  0
  8  9  1  0
  9 10  2  0
  9 11  1  0
 11 12  1  0
 12 13  2  0
  3 14  1  0
 14 15  2  0
 15 16  1  0
 15 17  1  0
 17 18  1  0
 18 19  2  0
 19 20  1  0
 20 21  2  0
 21 22  1  0
 22 23  1  0
 23 24  1  0
 24 25  1  0
 25 26  1  0
 21 27  1  0
 27 28  2  0
 28 29  1  0
 17  2  1  0
 28 18  1  0
 12  5  1  0
 26 23  1  0
M  CHG  4   7  -1   8  -1  11  -1  23   1
M  END
>  <UniqueID>  (1640) 
65

>  <SMILES>  (1640) 
C=c1/c(=C/c2c([O-])[n-]c(=O)[n-]c2=O)cc(C)n1-c1ccc(C[NH+]2CCC2)cc1C

>  <Energy>  (1640) 
175.82845695936794

>  <Genealogy>  (1640) 
C=c1c(=Cc2c([O-])[n-]c(=O)[n-]c2=O)cc(C)n1-c1ccc(C[NH+]2CCC2)cc1C (protonated)
C=c1/c(=C/c2c([O-])[n-]c(=O)[n-]c2=O)cc(C)n1-c1ccc(C[NH+]2CCC2)cc1C (cis-trans isomerization)
C=c1/c(=C/c2c([O-])[n-]c(=O)[n-]c2=O)cc(C)n1-c1ccc(C[NH+]2CCC2)cc1C (3D coordinates assigned)
C=c1/c(=C/c2c([O-])[n-]c(=O)[n-]c2=O)cc(C)n1-c1ccc(C[NH+]2CCC2)cc1C (nonaromatic ring conformer: 175.82845695936794 kcal/mol)

>  <smiles>  (1640) 
C=c1c(=Cc2c(O)[nH]c(=O)[nH]c2=O)cc(C)n1-c1ccc(CN2CCC2)cc1C

>  <score_type>  (1640) 
oracle

>  <origin>  (1640) 
adg

>  <m_score__min__energy>  (1640) 
-14.710000000000001

>  <m_primary>  (1640) 
energy

$$$$
78:0
     RDKit          3D

 30 32  0  0  0  0  0  0  0  0999 V2000
   55.3990   29.4290   45.1280 N   0  0  0  0  0  0  0  0  0  0  0  0
   56.2510   28.2940   45.2640 C   0  0  0  0  0  0  0  0  0  0  0  0
   55.7590   27.1820   45.5960 O   0  0  0  0  0  0  0  0  0  0  0  0
   57.6950   28.4220   44.9970 C   0  0  0  0  0  0  0  0  0  0  0  0
   58.1000   28.4430   43.8040 O   0  0  0  0  0  0  0  0  0  0  0  0
   58.6830   28.5090   46.1000 C   0  0  0  0  0  0  0  0  0  0  0  0
   59.0650   27.3650   46.8350 C   0  0  0  0  0  0  0  0  0  0  0  0
   58.4380   26.0430   46.5880 C   0  0  0  0  0  0  0  0  0  0  0  0
   58.9330   25.1070   45.7640 C   0  0  0  0  0  0  0  0  0  0  0  0
   58.1200   24.1560   44.9720 C   0  0  0  0  0  0  0  0  0  0  0  0
   58.0760   22.7910   45.3110 C   0  0  0  0  0  0  0  0  0  0  0  0
   57.3310   21.8950   44.5410 C   0  0  0  0  0  0  0  0  0  0  0  0
   56.6410   22.3460   43.4120 C   0  0  0  0  0  0  0  0  0  0  0  0
   55.9000   21.4530   42.6480 O   0  0  0  0  0  0  0  0  0  0  0  0
   56.7010   23.6940   43.0510 C   0  0  0  0  0  0  0  0  0  0  0  0
   57.4440   24.6020   43.8210 C   0  0  0  0  0  0  0  0  0  0  0  0
   57.5030   25.9460   43.4500 O   0  0  0  0  0  0  0  0  0  0  0  0
   59.9700   27.4730   47.8040 O   0  0  0  0  0  0  0  0  0  0  0  0
   60.5670   28.6150   48.1190 C   0  0  0  0  0  0  0  0  0  0  0  0
   60.2640   29.7950   47.4320 C   0  0  0  0  0  0  0  0  0  0  0  0
   60.9550   31.0590   47.7900 C   0  0  0  0  0  0  0  0  0  0  0  0
   60.3660   31.9540   48.7010 C   0  0  0  0  0  0  0  0  0  0  0  0
   61.0180   33.1410   49.0480 C   0  0  0  0  0  0  0  0  0  0  0  0
   62.2660   33.4430   48.4960 C   0  0  0  0  0  0  0  0  0  0  0  0
   62.9100   34.6240   48.8440 O   0  0  0  0  0  0  0  0  0  0  0  0
   62.8650   32.5560   47.5960 C   0  0  0  0  0  0  0  0  0  0  0  0
   64.0800   32.8420   47.0640 F   0  0  0  0  0  0  0  0  0  0  0  0
   62.2150   31.3680   47.2460 C   0  0  0  0  0  0  0  0  0  0  0  0
   59.3030   29.7360   46.4070 C   0  0  0  0  0  0  0  0  0  0  0  0
   58.9970   30.7780   45.7640 O   0  0  0  0  0  0  0  0  0  0  0  0
  1  2  1  0
  2  3  2  0
  2  4  1  0
  4  5  2  0
  4  6  1  0
  6  7  2  0
  7  8  1  0
  8  9  2  3
  9 10  1  0
 10 11  2  0
 11 12  1  0
 12 13  2  0
 13 14  1  0
 13 15  1  0
 15 16  2  0
 16 17  1  0
  7 18  1  0
 18 19  1  0
 19 20  2  0
 20 21  1  0
 21 22  2  0
 22 23  1  0
 23 24  2  0
 24 25  1  0
 24 26  1  0
 26 27  1  0
 26 28  2  0
 20 29  1  0
 29 30  2  0
 29  6  1  0
 16 10  1  0
 28 21  1  0
M  CHG  3   1  -1  14  -1  25  -1
M  END
>  <UniqueID>  (1641) 
75

>  <SMILES>  (1641) 
[NH-]C(=O)C(=O)c1c(C=Cc2ccc([O-])cc2O)occ(-c2ccc([O-])c(F)c2)c1=O

>  <Energy>  (1641) 
67.21812402070049

>  <Genealogy>  (1641) 
[NH-]C(=O)C(=O)c1c(C=Cc2ccc([O-])cc2O)occ(-c2ccc([O-])c(F)c2)c1=O (protonated)
[NH-]C(=O)C(=O)c1c(C=Cc2ccc([O-])cc2O)occ(-c2ccc([O-])c(F)c2)c1=O (3D coordinates assigned)
[NH-]C(=O)C(=O)c1c(C=Cc2ccc([O-])cc2O)occ(-c2ccc([O-])c(F)c2)c1=O (optimized conformer: 67.21812402070049 kcal/mol)

>  <smiles>  (1641) 
NC(=O)C(=O)c1c(C=Cc2ccc(O)cc2O)occ(-c2ccc(O)c(F)c2)c1=O

>  <score_type>  (1641) 
oracle

>  <origin>  (1641) 
adg

>  <m_score__min__energy>  (1641) 
-15.1

>  <m_primary>  (1641) 
energy

$$$$
81:0
     RDKit          3D

 35 39  0  0  0  0  0  0  0  0999 V2000
   59.0220   28.5260   47.1420 C   0  0  0  0  0  0  0  0  0  0  0  0
   58.4490   28.8110   45.9630 C   0  0  0  0  0  0  0  0  0  0  0  0
   57.8680   27.9060   45.0590 C   0  0  0  0  0  0  0  0  0  0  0  0
   57.9040   26.5600   45.0060 C   0  0  0  0  0  0  0  0  0  0  0  0
   57.3460   25.6430   46.0150 C   0  0  0  0  0  0  0  0  0  0  0  0
   57.9980   24.5790   46.5180 N   0  0  0  0  0  0  0  0  0  0  0  0
   57.0570   23.9490   47.2510 C   0  0  0  0  0  0  0  0  0  0  0  0
   57.2940   22.8990   47.9020 O   0  0  0  0  0  0  0  0  0  0  0  0
   55.8380   24.5280   47.2230 N   0  0  0  0  0  0  0  0  0  0  0  0
   56.0340   25.5910   46.4270 C   0  0  0  0  0  0  0  0  0  0  0  0
   55.0280   26.4960   46.0920 O   0  0  0  0  0  0  0  0  0  0  0  0
   57.2190   28.6750   44.1040 C   0  0  0  0  0  0  0  0  0  0  0  0
   57.4710   29.9950   44.4120 C   0  0  0  0  0  0  0  0  0  0  0  0
   56.9950   31.1670   43.6080 C   0  0  0  0  0  0  0  0  0  0  0  0
   58.2320   30.0780   45.5250 N   0  0  0  0  0  0  0  0  0  0  0  0
   58.6600   31.3000   46.1480 C   0  0  0  0  0  0  0  0  0  0  0  0
   57.7490   32.3430   46.3480 C   0  0  0  0  0  0  0  0  0  0  0  0
   58.1880   33.5330   46.9310 C   0  0  0  0  0  0  0  0  0  0  0  0
   59.4880   33.6670   47.3080 N   0  0  0  0  0  0  0  0  0  0  0  0
   60.3920   32.6590   47.1540 C   0  0  0  0  0  0  0  0  0  0  0  0
   61.7630   32.8670   47.5280 N   0  0  0  0  0  0  0  0  0  0  0  0
   62.2420   34.1700   47.9990 C   0  0  0  0  0  0  0  0  0  0  0  0
   62.8850   34.0470   49.3990 C   0  0  0  0  0  0  0  0  0  0  0  0
   63.2810   32.6580   49.7560 N   0  0  0  0  0  0  0  0  0  0  0  0
   62.1990   31.9520   50.4870 C   0  0  0  0  0  0  0  0  0  0  0  0
   60.9790   32.8530   50.7310 C   0  0  0  0  0  0  0  0  0  0  0  0
   59.7310   32.0160   50.8540 C   0  0  0  0  0  0  0  0  0  0  0  0
   59.6840   30.7290   50.2940 C   0  0  0  0  0  0  0  0  0  0  0  0
   58.5000   29.9860   50.3710 C   0  0  0  0  0  0  0  0  0  0  0  0
   57.4040   30.5130   50.9760 N   0  0  0  0  0  0  0  0  0  0  0  0
   57.4190   31.7620   51.5170 C   0  0  0  0  0  0  0  0  0  0  0  0
   58.5810   32.5380   51.4610 C   0  0  0  0  0  0  0  0  0  0  0  0
   63.7870   31.9250   48.5710 C   0  0  0  0  0  0  0  0  0  0  0  0
   62.6980   31.7410   47.4990 C   0  0  0  0  0  0  0  0  0  0  0  0
   59.9870   31.4540   46.5610 C   0  0  0  0  0  0  0  0  0  0  0  0
  1  2  2  0
  2  3  1  0
  3  4  2  3
  4  5  1  0
  5  6  1  0
  6  7  1  0
  7  8  2  0
  7  9  1  0
  9 10  1  0
 10 11  1  0
  3 12  1  0
 12 13  2  0
 13 14  1  0
 13 15  1  0
 15 16  1  0
 16 17  2  0
 17 18  1  0
 18 19  2  0
 19 20  1  0
 20 21  1  0
 21 22  1  0
 22 23  1  0
 23 24  1  0
 24 25  1  0
 25 26  1  0
 26 27  1  0
 27 28  2  0
 28 29  1  0
 29 30  2  0
 30 31  1  0
 31 32  2  0
 24 33  1  0
 33 34  1  0
 20 35  2  0
 15  2  1  0
 35 16  1  0
 10  5  2  0
 34 21  1  0
 32 27  1  0
M  CHG  2   6  -1   9  -1
M  END
>  <UniqueID>  (1642) 
78

>  <SMILES>  (1642) 
C=c1c(=Cc2[n-]c(=O)[n-]c2O)cc(C)n1-c1ccnc(N2CCN(CCc3ccncc3)CC2)c1

>  <Energy>  (1642) 
152.8313089254283

>  <Genealogy>  (1642) 
C=c1c(=Cc2[n-]c(=O)[n-]c2O)cc(C)n1-c1ccnc(N2CCN(CCc3ccncc3)CC2)c1 (protonated)
C=c1c(=Cc2[n-]c(=O)[n-]c2O)cc(C)n1-c1ccnc(N2CCN(CCc3ccncc3)CC2)c1 (3D coordinates assigned)
C=c1c(=Cc2[n-]c(=O)[n-]c2O)cc(C)n1-c1ccnc(N2CCN(CCc3ccncc3)CC2)c1 (nonaromatic ring conformer: 152.8313089254283 kcal/mol)

>  <smiles>  (1642) 
C=c1c(=Cc2[nH]c(=O)[nH]c2O)cc(C)n1-c1ccnc(N2CCN(CCc3ccncc3)CC2)c1

>  <score_type>  (1642) 
oracle

>  <origin>  (1642) 
adg

>  <m_score__min__energy>  (1642) 
-14.01

>  <m_primary>  (1642) 
energy

$$$$
84:0
     RDKit          3D

 29 32  0  0  0  0  0  0  0  0999 V2000
   59.6970   29.8520   46.8710 C   0  0  0  0  0  0  0  0  0  0  0  0
   59.1010   30.7300   46.0470 C   0  0  0  0  0  0  0  0  0  0  0  0
   58.2730   30.4420   44.9480 C   0  0  0  0  0  0  0  0  0  0  0  0
   57.9880   29.2770   44.3330 C   0  0  0  0  0  0  0  0  0  0  0  0
   57.4160   28.0810   44.9800 C   0  0  0  0  0  0  0  0  0  0  0  0
   56.0400   27.9860   45.2510 C   0  0  0  0  0  0  0  0  0  0  0  0
   55.1710   29.0060   44.8820 O   0  0  0  0  0  0  0  0  0  0  0  0
   55.5490   26.8900   45.8860 N   0  0  0  0  0  0  0  0  0  0  0  0
   56.3690   25.8840   46.2830 C   0  0  0  0  0  0  0  0  0  0  0  0
   55.8910   24.8770   46.8660 O   0  0  0  0  0  0  0  0  0  0  0  0
   57.7050   25.9660   46.0570 N   0  0  0  0  0  0  0  0  0  0  0  0
   58.2460   27.0410   45.4250 C   0  0  0  0  0  0  0  0  0  0  0  0
   59.4910   27.0870   45.2380 O   0  0  0  0  0  0  0  0  0  0  0  0
   57.7410   31.6540   44.5370 C   0  0  0  0  0  0  0  0  0  0  0  0
   58.2940   32.6290   45.3380 C   0  0  0  0  0  0  0  0  0  0  0  0
   57.9990   34.0930   45.2240 C   0  0  0  0  0  0  0  0  0  0  0  0
   59.1180   32.0720   46.2550 N   0  0  0  0  0  0  0  0  0  0  0  0
   59.8510   32.7860   47.2680 C   0  0  0  0  0  0  0  0  0  0  0  0
   61.1820   33.1600   47.0420 C   0  0  0  0  0  0  0  0  0  0  0  0
   61.8880   33.8690   48.0160 C   0  0  0  0  0  0  0  0  0  0  0  0
   61.2720   34.2050   49.2240 C   0  0  0  0  0  0  0  0  0  0  0  0
   59.9430   33.8180   49.4750 C   0  0  0  0  0  0  0  0  0  0  0  0
   59.2760   34.1700   50.6990 N   0  0  0  0  0  0  0  0  0  0  0  0
   58.7840   33.2150   51.6520 C   0  0  0  0  0  0  0  0  0  0  0  0
   58.7910   31.9810   51.3920 O   0  0  0  0  0  0  0  0  0  0  0  0
   58.2630   33.6840   52.9780 C   0  0  0  0  0  0  0  0  0  0  0  0
   59.2770   33.6240   54.1110 C   0  0  0  0  0  0  0  0  0  0  0  0
   58.8990   34.9630   53.5030 C   0  0  0  0  0  0  0  0  0  0  0  0
   59.2330   33.1260   48.4810 C   0  0  0  0  0  0  0  0  0  0  0  0
  1  2  2  0
  2  3  1  0
  3  4  2  0
  4  5  1  0
  5  6  2  0
  6  7  1  0
  6  8  1  0
  8  9  1  0
  9 10  2  0
  9 11  1  0
 11 12  1  0
 12 13  2  0
  3 14  1  0
 14 15  2  0
 15 16  1  0
 15 17  1  0
 17 18  1  0
 18 19  2  0
 19 20  1  0
 20 21  2  0
 21 22  1  0
 22 23  1  0
 23 24  1  0
 24 25  2  0
 24 26  1  0
 26 27  1  0
 27 28  1  0
 22 29  2  0
 17  2  1  0
 29 18  1  0
 12  5  1  0
 28 26  1  0
M  CHG  3   7  -1   8  -1  11  -1
M  END
>  <UniqueID>  (1643) 
81

>  <SMILES>  (1643) 
C=c1/c(=C\c2c([O-])[n-]c(=O)[n-]c2=O)cc(C)n1-c1cccc(NC(=O)C2CC2)c1

>  <Energy>  (1643) 
364.5597081299399

>  <Genealogy>  (1643) 
C=c1c(=Cc2c([O-])[n-]c(=O)[n-]c2=O)cc(C)n1-c1cccc(NC(=O)C2CC2)c1 (protonated)
C=c1/c(=C\c2c([O-])[n-]c(=O)[n-]c2=O)cc(C)n1-c1cccc(NC(=O)C2CC2)c1 (cis-trans isomerization)
C=c1/c(=C\c2c([O-])[n-]c(=O)[n-]c2=O)cc(C)n1-c1cccc(NC(=O)C2CC2)c1 (3D coordinates assigned)
C=c1/c(=C\c2c([O-])[n-]c(=O)[n-]c2=O)cc(C)n1-c1cccc(NC(=O)C2CC2)c1 (nonaromatic ring conformer: 364.5597081299399 kcal/mol)

>  <smiles>  (1643) 
C=c1c(=Cc2c(O)[nH]c(=O)[nH]c2=O)cc(C)n1-c1cccc(NC(=O)C2CC2)c1

>  <score_type>  (1643) 
oracle

>  <origin>  (1643) 
adg

>  <m_score__min__energy>  (1643) 
-16.350000000000001

>  <m_primary>  (1643) 
energy

$$$$
1:0
     RDKit          3D

 29 31  0  0  0  0  0  0  0  0999 V2000
   55.6200   29.5900   42.9330 O   0  0  0  0  0  0  0  0  0  0  0  0
   56.2110   29.8100   44.0250 C   0  0  0  0  0  0  0  0  0  0  0  0
   57.1450   30.9700   44.1310 C   0  0  0  0  0  0  0  0  0  0  0  0
   56.5550   31.9950   44.9850 N   0  0  0  0  0  0  0  0  0  0  0  0
   57.2660   33.1130   45.5370 C   0  0  0  0  0  0  0  0  0  0  0  0
   56.6460   34.1970   45.7190 O   0  0  0  0  0  0  0  0  0  0  0  0
   58.6830   33.0240   45.9430 C   0  0  0  0  0  0  0  0  0  0  0  0
   59.1840   31.8210   46.4670 C   0  0  0  0  0  0  0  0  0  0  0  0
   60.5260   31.7220   46.8490 C   0  0  0  0  0  0  0  0  0  0  0  0
   61.3770   32.8280   46.7290 C   0  0  0  0  0  0  0  0  0  0  0  0
   63.0640   32.6860   47.2180 S   0  0  0  0  0  0  0  0  0  0  0  0
   63.5680   31.3280   46.8110 O   0  0  0  0  0  0  0  0  0  0  0  0
   63.8940   33.7350   46.5280 O   0  0  0  0  0  0  0  0  0  0  0  0
   63.1980   32.8680   48.9480 N   0  0  0  0  0  0  0  0  0  0  0  0
   62.6380   34.1760   49.3600 C   0  0  0  0  0  0  0  0  0  0  0  0
   63.0240   34.5570   50.8080 C   0  0  0  0  0  0  0  0  0  0  0  0
   63.5220   33.3410   51.5960 C   0  0  0  0  0  0  0  0  0  0  0  0
   64.7190   32.6800   50.8920 C   0  0  0  0  0  0  0  0  0  0  0  0
   64.6070   32.7470   49.3560 C   0  0  0  0  0  0  0  0  0  0  0  0
   60.8740   34.0400   46.2360 C   0  0  0  0  0  0  0  0  0  0  0  0
   59.5320   34.1390   45.8520 C   0  0  0  0  0  0  0  0  0  0  0  0
   56.0080   28.9630   45.1680 N   0  0  0  0  0  0  0  0  0  0  0  0
   56.7590   27.9710   45.5530 C   0  0  0  0  0  0  0  0  0  0  0  0
   58.1210   28.0630   45.5330 N   0  0  0  0  0  0  0  0  0  0  0  0
   58.9210   27.0340   45.9220 C   0  0  0  0  0  0  0  0  0  0  0  0
   58.3530   25.8360   46.3590 C   0  0  0  0  0  0  0  0  0  0  0  0
   56.9610   25.7110   46.3900 C   0  0  0  0  0  0  0  0  0  0  0  0
   56.1560   26.7790   45.9860 C   0  0  0  0  0  0  0  0  0  0  0  0
   54.7690   26.6500   46.0140 O   0  0  0  0  0  0  0  0  0  0  0  0
  1  2  2  0
  2  3  1  0
  3  4  1  0
  4  5  1  0
  5  6  2  0
  5  7  1  0
  7  8  2  0
  8  9  1  0
  9 10  2  0
 10 11  1  0
 11 12  2  0
 11 13  2  0
 11 14  1  0
 14 15  1  0
 15 16  1  0
 16 17  1  0
 17 18  1  0
 18 19  1  0
 10 20  1  0
 20 21  2  0
  2 22  1  0
 22 23  2  3
 23 24  1  0
 24 25  1  0
 25 26  2  0
 26 27  1  0
 27 28  2  0
 28 29  1  0
 21  7  1  0
 28 23  1  0
 19 14  1  0
M  CHG  3   4  -1  24  -1  29  -1
M  END
>  <UniqueID>  (1644) 
2

>  <SMILES>  (1644) 
O=C(C[N-]C(=O)c1ccc(S(=O)(=O)N2CCCCC2)cc1)N=c1[n-]cccc1[O-]

>  <Energy>  (1644) 
58.54373905335736

>  <Genealogy>  (1644) 
O=C(C[N-]C(=O)c1ccc(S(=O)(=O)N2CCCCC2)cc1)N=c1[n-]cccc1[O-] (protonated)
O=C(C[N-]C(=O)c1ccc(S(=O)(=O)N2CCCCC2)cc1)N=c1[n-]cccc1[O-] (3D coordinates assigned)
O=C(C[N-]C(=O)c1ccc(S(=O)(=O)N2CCCCC2)cc1)N=c1[n-]cccc1[O-] (nonaromatic ring conformer: 58.54373905335736 kcal/mol)

>  <smiles>  (1644) 
O=C(CNC(=O)c1ccc(S(=O)(=O)N2CCCCC2)cc1)N=c1[nH]cccc1O

>  <score_type>  (1644) 
oracle

>  <origin>  (1644) 
adg

>  <m_score__min__energy>  (1644) 
-16.539999999999999

>  <m_primary>  (1644) 
energy

$$$$
13:0
     RDKit          3D

 27 29  0  0  0  0  0  0  0  0999 V2000
   54.9600   26.5740   45.9630 O   0  0  0  0  0  0  0  0  0  0  0  0
   55.9840   25.7620   46.4480 C   0  0  0  0  0  0  0  0  0  0  0  0
   55.7590   24.6170   47.1110 N   0  0  0  0  0  0  0  0  0  0  0  0
   57.0060   24.1780   47.3820 C   0  0  0  0  0  0  0  0  0  0  0  0
   57.2280   23.1090   48.0090 O   0  0  0  0  0  0  0  0  0  0  0  0
   57.9960   24.9780   46.9340 N   0  0  0  0  0  0  0  0  0  0  0  0
   57.3410   25.9850   46.3270 C   0  0  0  0  0  0  0  0  0  0  0  0
   57.9820   27.1750   45.7250 C   0  0  0  0  0  0  0  0  0  0  0  0
   58.3690   28.2740   46.4070 C   0  0  0  0  0  0  0  0  0  0  0  0
   58.4340   28.4210   47.7880 C   0  0  0  0  0  0  0  0  0  0  0  0
   58.9120   29.6930   48.0320 C   0  0  0  0  0  0  0  0  0  0  0  0
   59.1370   30.2710   49.3960 C   0  0  0  0  0  0  0  0  0  0  0  0
   59.1370   30.3440   46.8690 N   0  0  0  0  0  0  0  0  0  0  0  0
   59.6430   31.6840   46.7420 C   0  0  0  0  0  0  0  0  0  0  0  0
   58.7780   32.7390   46.4220 C   0  0  0  0  0  0  0  0  0  0  0  0
   59.2750   34.0360   46.2800 C   0  0  0  0  0  0  0  0  0  0  0  0
   60.6360   34.2900   46.4630 C   0  0  0  0  0  0  0  0  0  0  0  0
   61.5110   33.2460   46.8020 C   0  0  0  0  0  0  0  0  0  0  0  0
   62.9530   33.5000   46.9840 C   0  0  0  0  0  0  0  0  0  0  0  0
   63.4900   34.4520   46.3600 O   0  0  0  0  0  0  0  0  0  0  0  0
   63.7690   32.6880   47.8400 N   0  0  0  0  0  0  0  0  0  0  0  0
   63.7940   32.7400   49.3010 C   0  0  0  0  0  0  0  0  0  0  0  0
   63.0160   31.5580   49.8890 C   0  0  0  0  0  0  0  0  0  0  0  0
   65.2460   32.7100   49.7750 C   0  0  0  0  0  0  0  0  0  0  0  0
   61.0120   31.9400   46.9200 C   0  0  0  0  0  0  0  0  0  0  0  0
   58.8140   29.4880   45.8660 C   0  0  0  0  0  0  0  0  0  0  0  0
   58.8830   29.8040   44.5630 C   0  0  0  0  0  0  0  0  0  0  0  0
  1  2  1  0
  2  3  1  0
  3  4  1  0
  4  5  2  0
  4  6  1  0
  6  7  1  0
  7  8  1  0
  8  9  2  0
  9 10  1  0
 10 11  2  0
 11 12  1  0
 11 13  1  0
 13 14  1  0
 14 15  2  0
 15 16  1  0
 16 17  2  0
 17 18  1  0
 18 19  1  0
 19 20  2  0
 19 21  1  0
 21 22  1  0
 22 23  1  0
 22 24  1  0
 18 25  2  0
 13 26  1  0
 26 27  2  0
  7  2  2  0
 26  9  1  0
 25 14  1  0
M  CHG  3   3  -1   6  -1  21  -1
M  END
>  <UniqueID>  (1645) 
14

>  <SMILES>  (1645) 
C=c1/c(=C/c2[n-]c(=O)[n-]c2O)cc(C)n1-c1cccc(C(=O)[N-]C(C)C)c1

>  <Energy>  (1645) 
115.23714271125733

>  <Genealogy>  (1645) 
C=c1c(=Cc2[n-]c(=O)[n-]c2O)cc(C)n1-c1cccc(C(=O)[N-]C(C)C)c1 (protonated)
C=c1/c(=C/c2[n-]c(=O)[n-]c2O)cc(C)n1-c1cccc(C(=O)[N-]C(C)C)c1 (cis-trans isomerization)
C=c1/c(=C/c2[n-]c(=O)[n-]c2O)cc(C)n1-c1cccc(C(=O)[N-]C(C)C)c1 (3D coordinates assigned)
C=c1/c(=C/c2[n-]c(=O)[n-]c2O)cc(C)n1-c1cccc(C(=O)[N-]C(C)C)c1 (optimized conformer: 115.23714271125733 kcal/mol)

>  <smiles>  (1645) 
C=c1c(=Cc2[nH]c(=O)[nH]c2O)cc(C)n1-c1cccc(C(=O)NC(C)C)c1

>  <score_type>  (1645) 
oracle

>  <origin>  (1645) 
adg

>  <m_score__min__energy>  (1645) 
-14.390000000000001

>  <m_primary>  (1645) 
energy

$$$$
15:0
     RDKit          3D

 22 24  0  0  0  0  0  0  0  0999 V2000
   53.4630   28.0640   53.7380 C   0  0  0  0  0  0  0  0  0  0  0  0
   54.2010   28.9690   53.0810 C   0  0  0  0  0  0  0  0  0  0  0  0
   53.6880   30.0820   52.3740 C   0  0  0  0  0  0  0  0  0  0  0  0
   52.3910   30.4290   52.2350 C   0  0  0  0  0  0  0  0  0  0  0  0
   51.7490   30.8230   50.9610 C   0  0  0  0  0  0  0  0  0  0  0  0
   51.6730   30.0690   49.8480 N   0  0  0  0  0  0  0  0  0  0  0  0
   51.0050   30.8560   48.9790 C   0  0  0  0  0  0  0  0  0  0  0  0
   50.7340   30.4900   47.8040 O   0  0  0  0  0  0  0  0  0  0  0  0
   50.6500   32.0630   49.4640 N   0  0  0  0  0  0  0  0  0  0  0  0
   51.1280   32.0260   50.7190 C   0  0  0  0  0  0  0  0  0  0  0  0
   50.9980   33.0720   51.6250 O   0  0  0  0  0  0  0  0  0  0  0  0
   55.0110   30.9190   51.7310 S   0  0  0  0  0  0  0  0  0  0  0  0
   56.1530   29.8500   52.3470 C   0  0  0  0  0  0  0  0  0  0  0  0
   57.4460   29.9540   52.2420 N   0  0  0  0  0  0  0  0  0  0  0  0
   58.1690   31.0460   51.6510 C   0  0  0  0  0  0  0  0  0  0  0  0
   58.3180   32.2770   52.3160 C   0  0  0  0  0  0  0  0  0  0  0  0
   58.9930   33.3340   51.6990 C   0  0  0  0  0  0  0  0  0  0  0  0
   59.5030   33.1800   50.4070 C   0  0  0  0  0  0  0  0  0  0  0  0
   59.3300   31.9710   49.7270 C   0  0  0  0  0  0  0  0  0  0  0  0
   58.6550   30.9120   50.3410 C   0  0  0  0  0  0  0  0  0  0  0  0
   58.4860   29.7460   49.6680 F   0  0  0  0  0  0  0  0  0  0  0  0
   55.5630   28.8660   53.0560 N   0  0  0  0  0  0  0  0  0  0  0  0
  1  2  2  0
  2  3  1  0
  3  4  2  0
  4  5  1  0
  5  6  1  0
  6  7  1  0
  7  8  2  0
  7  9  1  0
  9 10  1  0
 10 11  1  0
  3 12  1  0
 12 13  1  0
 13 14  2  0
 14 15  1  0
 15 16  2  0
 16 17  1  0
 17 18  2  0
 18 19  1  0
 19 20  2  0
 20 21  1  0
 13 22  1  0
 22  2  1  0
 10  5  2  0
 20 15  1  0
M  CHG  3   6  -1   9  -1  11  -1
M  END
>  <UniqueID>  (1646) 
16

>  <SMILES>  (1646) 
C=c1[nH]/c(=N/c2ccccc2F)s/c1=C\c1[n-]c(=O)[n-]c1[O-]

>  <Energy>  (1646) 
104.50436381619161

>  <Genealogy>  (1646) 
C=c1[nH]c(=Nc2ccccc2F)sc1=Cc1[n-]c(=O)[n-]c1[O-] (protonated)
C=c1[nH]/c(=N/c2ccccc2F)s/c1=C\c1[n-]c(=O)[n-]c1[O-] (cis-trans isomerization)
C=c1[nH]/c(=N/c2ccccc2F)s/c1=C\c1[n-]c(=O)[n-]c1[O-] (3D coordinates assigned)
C=c1[nH]/c(=N/c2ccccc2F)s/c1=C\c1[n-]c(=O)[n-]c1[O-] (optimized conformer: 104.50436381619161 kcal/mol)

>  <smiles>  (1646) 
C=c1[nH]c(=Nc2ccccc2F)sc1=Cc1[nH]c(=O)[nH]c1O

>  <score_type>  (1646) 
oracle

>  <origin>  (1646) 
adg

>  <m_score__min__energy>  (1646) 
-16.109999999999999

>  <m_primary>  (1646) 
energy

$$$$
19:0
     RDKit          3D

 30 33  0  0  0  0  0  0  0  0999 V2000
   66.1220   33.3020   49.9860 O   0  0  0  0  0  0  0  0  0  0  0  0
   64.7570   33.0660   49.7620 C   0  0  2  0  0  0  0  0  0  0  0  0
   64.3990   33.4920   48.3370 C   0  0  0  0  0  0  0  0  0  0  0  0
   62.8890   33.3550   48.0950 C   0  0  0  0  0  0  0  0  0  0  0  0
   62.1060   34.1470   49.0760 N   0  0  1  0  0  0  0  0  0  0  0  0
   60.6690   34.0600   48.8530 C   0  0  0  0  0  0  0  0  0  0  0  0
   59.9120   34.9620   49.3070 O   0  0  0  0  0  0  0  0  0  0  0  0
   60.0450   32.9950   48.0430 C   0  0  0  0  0  0  0  0  0  0  0  0
   60.0200   33.0980   46.6460 C   0  0  0  0  0  0  0  0  0  0  0  0
   59.4220   32.0940   45.8790 C   0  0  0  0  0  0  0  0  0  0  0  0
   58.8530   30.9720   46.5030 C   0  0  0  0  0  0  0  0  0  0  0  0
   58.2220   29.9470   45.7160 N   0  0  0  0  0  0  0  0  0  0  0  0
   57.3010   30.1520   44.7470 C   0  0  0  0  0  0  0  0  0  0  0  0
   56.7820   31.4940   44.3250 C   0  0  0  0  0  0  0  0  0  0  0  0
   56.9000   28.9500   44.2010 C   0  0  0  0  0  0  0  0  0  0  0  0
   57.6110   27.9550   44.8590 C   0  0  0  0  0  0  0  0  0  0  0  0
   57.5520   26.6320   44.6130 C   0  0  0  0  0  0  0  0  0  0  0  0
   56.9550   25.6480   45.5330 C   0  0  0  0  0  0  0  0  0  0  0  0
   57.6250   24.5840   46.0100 N   0  0  0  0  0  0  0  0  0  0  0  0
   56.7510   24.0260   46.8750 C   0  0  0  0  0  0  0  0  0  0  0  0
   57.0140   22.9810   47.5260 O   0  0  0  0  0  0  0  0  0  0  0  0
   55.5770   24.6810   46.9990 N   0  0  0  0  0  0  0  0  0  0  0  0
   55.7250   25.7130   46.1520 C   0  0  0  0  0  0  0  0  0  0  0  0
   54.7780   26.7150   45.9910 O   0  0  0  0  0  0  0  0  0  0  0  0
   58.4280   28.6080   45.7900 C   0  0  0  0  0  0  0  0  0  0  0  0
   59.2580   28.0230   46.6670 C   0  0  0  0  0  0  0  0  0  0  0  0
   58.8910   30.8660   47.9010 C   0  0  0  0  0  0  0  0  0  0  0  0
   59.4880   31.8700   48.6680 C   0  0  0  0  0  0  0  0  0  0  0  0
   62.4180   33.7090   50.4570 C   0  0  0  0  0  0  0  0  0  0  0  0
   63.9140   33.8570   50.7690 C   0  0  0  0  0  0  0  0  0  0  0  0
  2  1  1  1
  2  3  1  0
  3  4  1  0
  4  5  1  0
  5  6  1  6
  6  7  2  0
  6  8  1  0
  8  9  2  0
  9 10  1  0
 10 11  2  0
 11 12  1  0
 12 13  1  0
 13 14  1  0
 13 15  2  0
 15 16  1  0
 16 17  2  0
 17 18  1  0
 18 19  1  0
 19 20  1  0
 20 21  2  0
 20 22  1  0
 22 23  1  0
 23 24  1  0
 16 25  1  0
 25 26  2  0
 11 27  1  0
 27 28  2  0
  5 29  1  0
 29 30  1  0
 30  2  1  0
 28  8  1  0
 25 12  1  0
 23 18  2  0
M  CHG  4   5   1  19  -1  22  -1  24  -1
M  END
>  <UniqueID>  (1647) 
20

>  <SMILES>  (1647) 
C=c1/c(=C/c2[n-]c(=O)[n-]c2[O-])cc(C)n1-c1ccc(C(=O)[NH+]2CCC(O)CC2)cc1

>  <Energy>  (1647) 
135.19122546990948

>  <Genealogy>  (1647) 
C=c1c(=Cc2[n-]c(=O)[n-]c2[O-])cc(C)n1-c1ccc(C(=O)[NH+]2CCC(O)CC2)cc1 (protonated)
C=c1/c(=C/c2[n-]c(=O)[n-]c2[O-])cc(C)n1-c1ccc(C(=O)[NH+]2CCC(O)CC2)cc1 (cis-trans isomerization)
C=c1/c(=C/c2[n-]c(=O)[n-]c2[O-])cc(C)n1-c1ccc(C(=O)[NH+]2CCC(O)CC2)cc1 (3D coordinates assigned)
C=c1/c(=C/c2[n-]c(=O)[n-]c2[O-])cc(C)n1-c1ccc(C(=O)[NH+]2CCC(O)CC2)cc1 (nonaromatic ring conformer: 135.19122546990948 kcal/mol)

>  <smiles>  (1647) 
C=c1c(=Cc2[nH]c(=O)[nH]c2O)cc(C)n1-c1ccc(C(=O)N2CCC(O)CC2)cc1

>  <score_type>  (1647) 
oracle

>  <origin>  (1647) 
adg

>  <m_score__min__energy>  (1647) 
-14.699999999999999

>  <m_primary>  (1647) 
energy

$$$$
20:0
     RDKit          3D

 28 31  0  0  0  0  0  0  0  0999 V2000
   58.5370   29.4610   46.9890 C   0  0  0  0  0  0  0  0  0  0  0  0
   58.0820   29.9590   45.8270 C   0  0  0  0  0  0  0  0  0  0  0  0
   57.4700   29.2530   44.7780 C   0  0  0  0  0  0  0  0  0  0  0  0
   57.0290   27.9810   44.7030 C   0  0  0  0  0  0  0  0  0  0  0  0
   57.1870   26.9540   45.7520 C   0  0  0  0  0  0  0  0  0  0  0  0
   56.0710   26.3380   46.3430 C   0  0  0  0  0  0  0  0  0  0  0  0
   54.7800   26.7070   45.9810 O   0  0  0  0  0  0  0  0  0  0  0  0
   56.2490   25.3670   47.2750 N   0  0  0  0  0  0  0  0  0  0  0  0
   57.4930   24.9620   47.6380 C   0  0  0  0  0  0  0  0  0  0  0  0
   57.6330   24.0630   48.5060 O   0  0  0  0  0  0  0  0  0  0  0  0
   58.5860   25.5230   47.0590 N   0  0  0  0  0  0  0  0  0  0  0  0
   58.4610   26.4990   46.1230 C   0  0  0  0  0  0  0  0  0  0  0  0
   59.4970   26.9920   45.6010 O   0  0  0  0  0  0  0  0  0  0  0  0
   57.3610   30.1440   43.7230 C   0  0  0  0  0  0  0  0  0  0  0  0
   57.8430   31.3560   44.1700 C   0  0  0  0  0  0  0  0  0  0  0  0
   57.8980   32.6060   43.3440 C   0  0  0  0  0  0  0  0  0  0  0  0
   58.2830   31.2470   45.4430 N   0  0  0  0  0  0  0  0  0  0  0  0
   58.8690   32.3060   46.2220 C   0  0  0  0  0  0  0  0  0  0  0  0
   58.1030   33.4250   46.5770 C   0  0  0  0  0  0  0  0  0  0  0  0
   58.6730   34.4570   47.3240 C   0  0  0  0  0  0  0  0  0  0  0  0
   60.0100   34.3820   47.7210 C   0  0  0  0  0  0  0  0  0  0  0  0
   60.7930   33.2670   47.3740 C   0  0  0  0  0  0  0  0  0  0  0  0
   62.2090   33.1850   47.7920 C   0  0  0  0  0  0  0  0  0  0  0  0
   62.6280   32.5560   48.9100 N   0  0  0  0  0  0  0  0  0  0  0  0
   63.9590   32.7490   48.8600 C   0  0  0  0  0  0  0  0  0  0  0  0
   64.3320   33.4530   47.7760 N   0  0  0  0  0  0  0  0  0  0  0  0
   63.2290   33.7290   47.1030 N   0  0  0  0  0  0  0  0  0  0  0  0
   60.2120   32.2300   46.6210 C   0  0  0  0  0  0  0  0  0  0  0  0
  1  2  2  0
  2  3  1  0
  3  4  2  3
  4  5  1  0
  5  6  2  0
  6  7  1  0
  6  8  1  0
  8  9  1  0
  9 10  2  0
  9 11  1  0
 11 12  1  0
 12 13  2  0
  3 14  1  0
 14 15  2  0
 15 16  1  0
 15 17  1  0
 17 18  1  0
 18 19  2  0
 19 20  1  0
 20 21  2  0
 21 22  1  0
 22 23  1  0
 23 24  1  0
 24 25  2  0
 25 26  1  0
 26 27  1  0
 22 28  2  0
 17  2  1  0
 28 18  1  0
 12  5  1  0
 27 23  2  0
M  CHG  4   7  -1   8  -1  11  -1  26  -1
M  END
>  <UniqueID>  (1648) 
21

>  <SMILES>  (1648) 
C=c1c(=Cc2c([O-])[n-]c(=O)[n-]c2=O)cc(C)n1-c1cccc(-c2nc[n-]n2)c1

>  <Energy>  (1648) 
125.87223656718791

>  <Genealogy>  (1648) 
C=c1c(=Cc2c([O-])[n-]c(=O)[n-]c2=O)cc(C)n1-c1cccc(-c2nc[n-]n2)c1 (protonated)
C=c1c(=Cc2c([O-])[n-]c(=O)[n-]c2=O)cc(C)n1-c1cccc(-c2nc[n-]n2)c1 (3D coordinates assigned)
C=c1c(=Cc2c([O-])[n-]c(=O)[n-]c2=O)cc(C)n1-c1cccc(-c2nc[n-]n2)c1 (optimized conformer: 125.87223656718791 kcal/mol)

>  <smiles>  (1648) 
C=c1c(=Cc2c(O)[nH]c(=O)[nH]c2=O)cc(C)n1-c1cccc(-c2nc[nH]n2)c1

>  <score_type>  (1648) 
oracle

>  <origin>  (1648) 
adg

>  <m_score__min__energy>  (1648) 
-16.579999999999998

>  <m_primary>  (1648) 
energy

$$$$
26:0
     RDKit          3D

 31 33  0  0  0  0  0  0  0  0999 V2000
   60.2660   29.8570   46.3180 C   0  0  0  0  0  0  0  0  0  0  0  0
   59.3320   30.7510   45.9490 C   0  0  0  0  0  0  0  0  0  0  0  0
   58.2400   30.4970   45.1120 C   0  0  0  0  0  0  0  0  0  0  0  0
   57.9560   29.3510   44.4600 C   0  0  0  0  0  0  0  0  0  0  0  0
   57.4110   28.1450   45.1240 C   0  0  0  0  0  0  0  0  0  0  0  0
   56.0250   28.0030   45.2890 C   0  0  0  0  0  0  0  0  0  0  0  0
   55.1540   28.9980   44.8580 O   0  0  0  0  0  0  0  0  0  0  0  0
   55.5210   26.8900   45.8820 N   0  0  0  0  0  0  0  0  0  0  0  0
   56.3380   25.8930   46.3080 C   0  0  0  0  0  0  0  0  0  0  0  0
   55.8480   24.8700   46.8550 O   0  0  0  0  0  0  0  0  0  0  0  0
   57.6810   25.9940   46.1370 N   0  0  0  0  0  0  0  0  0  0  0  0
   58.2340   27.0870   45.5540 C   0  0  0  0  0  0  0  0  0  0  0  0
   59.4810   27.1320   45.3860 O   0  0  0  0  0  0  0  0  0  0  0  0
   57.5290   31.6830   45.0260 C   0  0  0  0  0  0  0  0  0  0  0  0
   58.1980   32.6030   45.8060 C   0  0  0  0  0  0  0  0  0  0  0  0
   57.7850   34.0350   45.9690 C   0  0  0  0  0  0  0  0  0  0  0  0
   59.3070   32.0500   46.3530 N   0  0  0  0  0  0  0  0  0  0  0  0
   60.2910   32.7660   47.1820 C   0  0  0  0  0  0  0  0  0  0  0  0
   59.6850   33.2090   48.4820 C   0  0  0  0  0  0  0  0  0  0  0  0
   59.4200   34.4300   48.6540 O   0  0  0  0  0  0  0  0  0  0  0  0
   59.4220   32.2600   49.5250 N   0  0  0  0  0  0  0  0  0  0  0  0
   59.0360   32.6500   50.8520 C   0  0  0  0  0  0  0  0  0  0  0  0
   59.5180   33.8590   51.3850 C   0  0  0  0  0  0  0  0  0  0  0  0
   59.2440   34.2100   52.7070 C   0  0  0  0  0  0  0  0  0  0  0  0
   58.4980   33.3540   53.5170 C   0  0  0  0  0  0  0  0  0  0  0  0
   58.0130   32.1500   53.0030 C   0  0  0  0  0  0  0  0  0  0  0  0
   58.2620   31.7880   51.6660 C   0  0  0  0  0  0  0  0  0  0  0  0
   57.6640   30.5440   51.1300 C   0  0  0  0  0  0  0  0  0  0  0  0
   58.2810   29.8750   50.2540 O   0  0  0  0  0  0  0  0  0  0  0  0
   56.4410   30.0860   51.6290 O   0  0  0  0  0  0  0  0  0  0  0  0
   56.3330   29.3170   52.8200 C   0  0  0  0  0  0  0  0  0  0  0  0
  1  2  2  0
  2  3  1  0
  3  4  2  3
  4  5  1  0
  5  6  2  0
  6  7  1  0
  6  8  1  0
  8  9  1  0
  9 10  2  0
  9 11  1  0
 11 12  1  0
 12 13  2  0
  3 14  1  0
 14 15  2  0
 15 16  1  0
 15 17  1  0
 17 18  1  0
 18 19  1  0
 19 20  2  0
 19 21  1  0
 21 22  1  0
 22 23  2  0
 23 24  1  0
 24 25  2  0
 25 26  1  0
 26 27  2  0
 27 28  1  0
 28 29  2  0
 28 30  1  0
 30 31  1  0
 17  2  1  0
 27 22  1  0
 12  5  1  0
M  CHG  3   7  -1   8  -1  11  -1
M  END
>  <UniqueID>  (1649) 
27

>  <SMILES>  (1649) 
C=c1c(=Cc2c([O-])[n-]c(=O)[n-]c2=O)cc(C)n1CC(=O)Nc1ccccc1C(=O)OC

>  <Energy>  (1649) 
91.41545582692217

>  <Genealogy>  (1649) 
C=c1c(=Cc2c([O-])[n-]c(=O)[n-]c2=O)cc(C)n1CC(=O)Nc1ccccc1C(=O)OC (protonated)
C=c1c(=Cc2c([O-])[n-]c(=O)[n-]c2=O)cc(C)n1CC(=O)Nc1ccccc1C(=O)OC (3D coordinates assigned)
C=c1c(=Cc2c([O-])[n-]c(=O)[n-]c2=O)cc(C)n1CC(=O)Nc1ccccc1C(=O)OC (optimized conformer: 91.41545582692217 kcal/mol)

>  <smiles>  (1649) 
C=c1c(=Cc2c(O)[nH]c(=O)[nH]c2=O)cc(C)n1CC(=O)Nc1ccccc1C(=O)OC

>  <score_type>  (1649) 
oracle

>  <origin>  (1649) 
adg

>  <m_score__min__energy>  (1649) 
-15.609999999999999

>  <m_primary>  (1649) 
energy

$$$$
30:0
     RDKit          3D

 27 29  0  0  0  0  0  0  0  0999 V2000
   59.7230   26.4840   48.5400 O   0  0  0  0  0  0  0  0  0  0  0  0
   60.0910   27.4860   47.8730 C   0  0  0  0  0  0  0  0  0  0  0  0
   60.0120   27.4390   46.3710 C   0  0  0  0  0  0  0  0  0  0  0  0
   58.6550   27.8930   45.9030 C   0  0  0  0  0  0  0  0  0  0  0  0
   58.5220   29.0970   45.1920 C   0  0  0  0  0  0  0  0  0  0  0  0
   57.2680   29.5080   44.7310 C   0  0  0  0  0  0  0  0  0  0  0  0
   56.1390   28.7160   44.9680 C   0  0  0  0  0  0  0  0  0  0  0  0
   54.8950   29.1300   44.5060 O   0  0  0  0  0  0  0  0  0  0  0  0
   56.2660   27.5080   45.6640 C   0  0  0  0  0  0  0  0  0  0  0  0
   55.1490   26.7150   45.8970 O   0  0  0  0  0  0  0  0  0  0  0  0
   57.5210   27.0960   46.1270 C   0  0  0  0  0  0  0  0  0  0  0  0
   60.6350   28.6170   48.5680 N   0  0  0  0  0  0  0  0  0  0  0  0
   59.9090   29.7760   49.0000 C   0  0  0  0  0  0  0  0  0  0  0  0
   59.0200   29.7150   50.0860 C   0  0  0  0  0  0  0  0  0  0  0  0
   58.3470   30.8610   50.5090 C   0  0  0  0  0  0  0  0  0  0  0  0
   58.5690   32.0820   49.8670 C   0  0  0  0  0  0  0  0  0  0  0  0
   59.4810   32.1710   48.8060 C   0  0  0  0  0  0  0  0  0  0  0  0
   59.7480   33.7380   48.0200 S   0  0  0  0  0  0  0  0  0  0  0  0
   61.1570   33.7840   47.5000 O   0  0  0  0  0  0  0  0  0  0  0  0
   59.5960   34.8400   49.0300 O   0  0  0  0  0  0  0  0  0  0  0  0
   58.6480   34.0290   46.6930 N   0  0  0  0  0  0  0  0  0  0  0  0
   59.2930   33.8480   45.3940 C   0  0  0  0  0  0  0  0  0  0  0  0
   58.1880   33.4920   44.4090 C   0  0  0  0  0  0  0  0  0  0  0  0
   57.0090   33.0540   45.2660 C   0  0  0  0  0  0  0  0  0  0  0  0
   57.5160   33.1060   46.6970 C   0  0  0  0  0  0  0  0  0  0  0  0
   60.1530   31.0090   48.3740 C   0  0  0  0  0  0  0  0  0  0  0  0
   61.0600   31.0680   47.3200 O   0  0  0  0  0  0  0  0  0  0  0  0
  1  2  2  0
  2  3  1  0
  3  4  1  0
  4  5  2  0
  5  6  1  0
  6  7  2  0
  7  8  1  0
  7  9  1  0
  9 10  1  0
  9 11  2  0
  2 12  1  0
 12 13  1  0
 13 14  2  0
 14 15  1  0
 15 16  2  0
 16 17  1  0
 17 18  1  0
 18 19  2  0
 18 20  2  0
 18 21  1  0
 21 22  1  0
 22 23  1  0
 23 24  1  0
 24 25  1  0
 17 26  2  0
 26 27  1  0
 11  4  1  0
 26 13  1  0
 25 21  1  0
M  CHG  4   8  -1  10  -1  12  -1  27  -1
M  END
>  <UniqueID>  (1650) 
31

>  <SMILES>  (1650) 
O=C(Cc1ccc([O-])c([O-])c1)[N-]c1cccc(S(=O)(=O)N2CCCC2)c1[O-]

>  <Energy>  (1650) 
51.297735589729086

>  <Genealogy>  (1650) 
O=C(Cc1ccc([O-])c([O-])c1)[N-]c1cccc(S(=O)(=O)N2CCCC2)c1[O-] (protonated)
O=C(Cc1ccc([O-])c([O-])c1)[N-]c1cccc(S(=O)(=O)N2CCCC2)c1[O-] (3D coordinates assigned)
O=C(Cc1ccc([O-])c([O-])c1)[N-]c1cccc(S(=O)(=O)N2CCCC2)c1[O-] (nonaromatic ring conformer: 51.297735589729086 kcal/mol)

>  <smiles>  (1650) 
O=C(Cc1ccc(O)c(O)c1)Nc1cccc(S(=O)(=O)N2CCCC2)c1O

>  <score_type>  (1650) 
oracle

>  <origin>  (1650) 
adg

>  <m_score__min__energy>  (1650) 
-19.359999999999999

>  <m_primary>  (1650) 
energy

$$$$
36:0
     RDKit          3D

 25 27  0  0  0  0  0  0  0  0999 V2000
   59.1920   30.0160   44.5960 C   0  0  0  0  0  0  0  0  0  0  0  0
   58.9230   29.6710   45.8650 C   0  0  0  0  0  0  0  0  0  0  0  0
   58.3850   28.4590   46.3230 C   0  0  0  0  0  0  0  0  0  0  0  0
   57.8100   27.4400   45.6550 C   0  0  0  0  0  0  0  0  0  0  0  0
   57.2600   26.2200   46.2690 C   0  0  0  0  0  0  0  0  0  0  0  0
   57.9930   25.1620   46.6640 N   0  0  0  0  0  0  0  0  0  0  0  0
   57.0600   24.2540   47.0220 C   0  0  0  0  0  0  0  0  0  0  0  0
   57.3590   23.1150   47.4680 O   0  0  0  0  0  0  0  0  0  0  0  0
   55.7820   24.6560   46.8540 N   0  0  0  0  0  0  0  0  0  0  0  0
   55.9280   25.8960   46.3620 C   0  0  0  0  0  0  0  0  0  0  0  0
   54.8660   26.7160   46.0020 O   0  0  0  0  0  0  0  0  0  0  0  0
   58.5250   28.4690   47.7030 C   0  0  0  0  0  0  0  0  0  0  0  0
   59.0600   29.6940   48.0400 C   0  0  0  0  0  0  0  0  0  0  0  0
   59.3990   30.1320   49.4320 C   0  0  0  0  0  0  0  0  0  0  0  0
   59.2930   30.4250   46.9300 N   0  0  0  0  0  0  0  0  0  0  0  0
   59.9210   31.7170   46.9000 C   0  0  0  0  0  0  0  0  0  0  0  0
   61.3080   31.8080   47.0880 C   0  0  0  0  0  0  0  0  0  0  0  0
   61.9450   33.0490   47.0480 C   0  0  0  0  0  0  0  0  0  0  0  0
   61.2010   34.2080   46.8170 C   0  0  0  0  0  0  0  0  0  0  0  0
   59.8190   34.1300   46.6320 C   0  0  0  0  0  0  0  0  0  0  0  0
   59.1620   32.8890   46.6830 C   0  0  0  0  0  0  0  0  0  0  0  0
   57.6700   32.8290   46.4610 C   0  0  0  0  0  0  0  0  0  0  0  0
   57.3620   32.4960   45.0350 C   0  0  0  0  0  0  0  0  0  0  0  0
   57.8870   33.1580   44.1010 O   0  0  0  0  0  0  0  0  0  0  0  0
   56.5040   31.4450   44.7350 O   0  0  0  0  0  0  0  0  0  0  0  0
  1  2  2  0
  2  3  1  0
  3  4  2  3
  4  5  1  0
  5  6  1  0
  6  7  1  0
  7  8  2  0
  7  9  1  0
  9 10  1  0
 10 11  1  0
  3 12  1  0
 12 13  2  0
 13 14  1  0
 13 15  1  0
 15 16  1  0
 16 17  2  0
 17 18  1  0
 18 19  2  0
 19 20  1  0
 20 21  2  0
 21 22  1  0
 22 23  1  0
 23 24  2  0
 23 25  1  0
 15  2  1  0
 21 16  1  0
 10  5  2  0
M  CHG  4   6  -1   9  -1  11  -1  25  -1
M  END
>  <UniqueID>  (1651) 
37

>  <SMILES>  (1651) 
C=c1c(=Cc2[n-]c(=O)[n-]c2[O-])cc(C)n1-c1ccccc1CC(=O)[O-]

>  <Energy>  (1651) 
113.11034242217285

>  <Genealogy>  (1651) 
C=c1c(=Cc2[n-]c(=O)[n-]c2[O-])cc(C)n1-c1ccccc1CC(=O)[O-] (protonated)
C=c1c(=Cc2[n-]c(=O)[n-]c2[O-])cc(C)n1-c1ccccc1CC(=O)[O-] (3D coordinates assigned)
C=c1c(=Cc2[n-]c(=O)[n-]c2[O-])cc(C)n1-c1ccccc1CC(=O)[O-] (optimized conformer: 113.11034242217285 kcal/mol)

>  <smiles>  (1651) 
C=c1c(=Cc2[nH]c(=O)[nH]c2O)cc(C)n1-c1ccccc1CC(=O)O

>  <score_type>  (1651) 
oracle

>  <origin>  (1651) 
adg

>  <m_score__min__energy>  (1651) 
-16.260000000000002

>  <m_primary>  (1651) 
energy

$$$$
40:0
     RDKit          3D

 31 34  0  0  0  0  0  0  0  0999 V2000
   59.4830   27.4860   48.1560 C   0  0  0  0  0  0  0  0  0  0  0  0
   58.9690   28.6180   47.6450 C   0  0  0  0  0  0  0  0  0  0  0  0
   58.1840   28.7130   46.4950 C   0  0  0  0  0  0  0  0  0  0  0  0
   57.6920   27.7020   45.7510 C   0  0  0  0  0  0  0  0  0  0  0  0
   57.2000   26.4350   46.3180 C   0  0  0  0  0  0  0  0  0  0  0  0
   58.0110   25.4480   46.7370 N   0  0  0  0  0  0  0  0  0  0  0  0
   57.1540   24.4680   47.0930 C   0  0  0  0  0  0  0  0  0  0  0  0
   57.5410   23.3630   47.5580 O   0  0  0  0  0  0  0  0  0  0  0  0
   55.8510   24.7600   46.9020 N   0  0  0  0  0  0  0  0  0  0  0  0
   55.8960   26.0040   46.4020 C   0  0  0  0  0  0  0  0  0  0  0  0
   54.7710   26.7070   45.9830 O   0  0  0  0  0  0  0  0  0  0  0  0
   57.9470   30.0630   46.2990 C   0  0  0  0  0  0  0  0  0  0  0  0
   58.5600   30.7380   47.3390 C   0  0  0  0  0  0  0  0  0  0  0  0
   58.6550   32.2170   47.4560 C   0  0  0  0  0  0  0  0  0  0  0  0
   57.6090   32.8470   47.7720 O   0  0  0  0  0  0  0  0  0  0  0  0
   59.8880   32.9570   47.2470 N   0  0  1  0  0  0  0  0  0  0  0  0
   60.2250   33.7760   48.4380 C   0  0  0  0  0  0  0  0  0  0  0  0
   61.7140   34.1430   48.4720 C   0  0  0  0  0  0  0  0  0  0  0  0
   62.5860   32.8730   48.6040 C   0  0  2  0  0  0  0  0  0  0  0  0
   64.0340   33.1520   48.1520 C   0  0  0  0  0  0  0  0  0  0  0  0
   64.1130   33.2560   46.7560 O   0  0  0  0  0  0  0  0  0  0  0  0
   61.9780   31.6660   47.8420 C   0  0  0  0  0  0  0  0  0  0  0  0
   60.9990   32.1030   46.7400 C   0  0  0  0  0  0  0  0  0  0  0  0
   59.1770   29.8570   48.1650 N   0  0  0  0  0  0  0  0  0  0  0  0
   59.9100   30.1870   49.4010 C   0  0  0  0  0  0  0  0  0  0  0  0
   59.0450   30.9370   50.3900 C   0  0  0  0  0  0  0  0  0  0  0  0
   57.7670   30.4650   50.7460 C   0  0  0  0  0  0  0  0  0  0  0  0
   56.9790   31.1810   51.6520 C   0  0  0  0  0  0  0  0  0  0  0  0
   57.4500   32.3750   52.2020 C   0  0  0  0  0  0  0  0  0  0  0  0
   58.7100   32.8610   51.8430 C   0  0  0  0  0  0  0  0  0  0  0  0
   59.5010   32.1500   50.9340 C   0  0  0  0  0  0  0  0  0  0  0  0
  1  2  2  0
  2  3  1  0
  3  4  2  3
  4  5  1  0
  5  6  1  0
  6  7  1  0
  7  8  2  0
  7  9  1  0
  9 10  1  0
 10 11  1  0
  3 12  1  0
 12 13  2  0
 13 14  1  0
 14 15  2  0
 16 14  1  1
 16 17  1  0
 17 18  1  0
 18 19  1  0
 19 20  1  6
 20 21  1  0
 19 22  1  0
 22 23  1  0
 13 24  1  0
 24 25  1  0
 25 26  1  0
 26 27  2  0
 27 28  1  0
 28 29  2  0
 29 30  1  0
 30 31  2  0
 24  2  1  0
 31 26  1  0
 10  5  2  0
 23 16  1  0
M  CHG  4   6  -1   9  -1  11  -1  16   1
M  END
>  <UniqueID>  (1652) 
40

>  <SMILES>  (1652) 
C=c1c(=Cc2[n-]c(=O)[n-]c2[O-])cc(C(=O)[NH+]2CCC(CO)CC2)n1Cc1ccccc1

>  <Energy>  (1652) 
139.9929802715432

>  <Genealogy>  (1652) 
C=c1c(=Cc2[n-]c(=O)[n-]c2[O-])cc(C(=O)[NH+]2CCC(CO)CC2)n1Cc1ccccc1 (protonated)
C=c1c(=Cc2[n-]c(=O)[n-]c2[O-])cc(C(=O)[NH+]2CCC(CO)CC2)n1Cc1ccccc1 (3D coordinates assigned)
C=c1c(=Cc2[n-]c(=O)[n-]c2[O-])cc(C(=O)[NH+]2CCC(CO)CC2)n1Cc1ccccc1 (nonaromatic ring conformer: 139.9929802715432 kcal/mol)

>  <smiles>  (1652) 
C=c1c(=Cc2[nH]c(=O)[nH]c2O)cc(C(=O)N2CCC(CO)CC2)n1Cc1ccccc1

>  <score_type>  (1652) 
oracle

>  <origin>  (1652) 
adg

>  <m_score__min__energy>  (1652) 
-15.359999999999999

>  <m_primary>  (1652) 
energy

$$$$
49:0
     RDKit          3D

 34 37  0  0  0  0  0  0  0  0999 V2000
   58.9290   27.3920   45.4080 O   0  0  0  0  0  0  0  0  0  0  0  0
   58.3180   27.5760   46.4960 C   0  0  0  0  0  0  0  0  0  0  0  0
   58.4750   28.8020   47.2180 N   0  0  0  0  0  0  0  0  0  0  0  0
   58.5260   30.1130   46.6360 C   0  0  0  0  0  0  0  0  0  0  0  0
   57.9700   30.3120   45.3680 C   0  0  0  0  0  0  0  0  0  0  0  0
   58.0400   31.5670   44.7550 C   0  0  0  0  0  0  0  0  0  0  0  0
   58.6860   32.6250   45.3990 C   0  0  0  0  0  0  0  0  0  0  0  0
   59.2920   32.4270   46.6470 C   0  0  0  0  0  0  0  0  0  0  0  0
   60.1820   33.7410   47.4230 S   0  0  0  0  0  0  0  0  0  0  0  0
   59.2310   34.5540   48.2550 O   0  0  0  0  0  0  0  0  0  0  0  0
   60.7530   34.6380   46.3650 O   0  0  0  0  0  0  0  0  0  0  0  0
   61.4730   33.1440   48.4490 N   0  0  0  0  0  0  0  0  0  0  0  0
   62.5250   34.1550   48.6190 C   0  0  0  0  0  0  0  0  0  0  0  0
   63.6620   33.8400   47.6560 C   0  0  0  0  0  0  0  0  0  0  0  0
   63.3910   32.4390   47.1410 C   0  0  0  0  0  0  0  0  0  0  0  0
   62.1270   31.9730   47.8540 C   0  0  0  0  0  0  0  0  0  0  0  0
   59.2020   31.1730   47.2690 C   0  0  0  0  0  0  0  0  0  0  0  0
   57.4600   26.5580   47.0230 N   0  0  0  0  0  0  0  0  0  0  0  0
   56.8820   25.5090   46.2400 C   0  0  0  0  0  0  0  0  0  0  0  0
   57.6670   24.3930   45.9180 C   0  0  0  0  0  0  0  0  0  0  0  0
   57.1280   23.3420   45.1660 C   0  0  0  0  0  0  0  0  0  0  0  0
   58.1080   21.9130   44.8490 S   0  0  0  0  0  0  0  0  0  0  0  0
   59.5100   22.1210   45.3560 O   0  0  0  0  0  0  0  0  0  0  0  0
   58.1590   21.6920   43.3620 O   0  0  0  0  0  0  0  0  0  0  0  0
   57.4040   20.5140   45.6290 N   0  0  0  0  0  0  0  0  0  0  0  0
   56.2950   19.9830   44.8110 C   0  0  0  0  0  0  0  0  0  0  0  0
   55.3000   19.1920   45.6810 C   0  0  0  0  0  0  0  0  0  0  0  0
   54.6970   19.9620   46.7160 O   0  0  0  0  0  0  0  0  0  0  0  0
   55.4790   21.0730   47.1310 C   0  0  0  0  0  0  0  0  0  0  0  0
   56.9960   20.8310   47.0170 C   0  0  0  0  0  0  0  0  0  0  0  0
   55.8100   23.4270   44.6960 C   0  0  0  0  0  0  0  0  0  0  0  0
   55.0320   24.5510   44.9870 C   0  0  0  0  0  0  0  0  0  0  0  0
   55.5610   25.5930   45.7550 C   0  0  0  0  0  0  0  0  0  0  0  0
   54.7740   26.7140   46.0130 O   0  0  0  0  0  0  0  0  0  0  0  0
  1  2  2  0
  2  3  1  0
  3  4  1  0
  4  5  2  0
  5  6  1  0
  6  7  2  0
  7  8  1  0
  8  9  1  0
  9 10  2  0
  9 11  2  0
  9 12  1  0
 12 13  1  0
 13 14  1  0
 14 15  1  0
 15 16  1  0
  8 17  2  0
  2 18  1  0
 18 19  1  0
 19 20  2  0
 20 21  1  0
 21 22  1  0
 22 23  2  0
 22 24  2  0
 22 25  1  0
 25 26  1  0
 26 27  1  0
 27 28  1  0
 28 29  1  0
 29 30  1  0
 21 31  2  0
 31 32  1  0
 32 33  2  0
 33 34  1  0
 17  4  1  0
 33 19  1  0
 16 12  1  0
 30 25  1  0
M  CHG  3   3  -1  18  -1  34  -1
M  END
>  <UniqueID>  (1653) 
48

>  <SMILES>  (1653) 
O=C([N-]c1cccc(S(=O)(=O)N2CCCC2)c1)[N-]c1cc(S(=O)(=O)N2CCOCC2)ccc1[O-]

>  <Energy>  (1653) 
81.0606211522061

>  <Genealogy>  (1653) 
O=C([N-]c1cccc(S(=O)(=O)N2CCCC2)c1)[N-]c1cc(S(=O)(=O)N2CCOCC2)ccc1[O-] (protonated)
O=C([N-]c1cccc(S(=O)(=O)N2CCCC2)c1)[N-]c1cc(S(=O)(=O)N2CCOCC2)ccc1[O-] (3D coordinates assigned)
O=C([N-]c1cccc(S(=O)(=O)N2CCCC2)c1)[N-]c1cc(S(=O)(=O)N2CCOCC2)ccc1[O-] (nonaromatic ring conformer: 81.0606211522061 kcal/mol)

>  <smiles>  (1653) 
O=C(Nc1cccc(S(=O)(=O)N2CCCC2)c1)Nc1cc(S(=O)(=O)N2CCOCC2)ccc1O

>  <score_type>  (1653) 
oracle

>  <origin>  (1653) 
adg

>  <m_score__min__energy>  (1653) 
-17.609999999999999

>  <m_primary>  (1653) 
energy

$$$$
59:0
     RDKit          3D

 27 29  0  0  0  0  0  0  0  0999 V2000
   54.5150   26.2020   45.9990 N   0  0  0  0  0  0  0  0  0  0  0  0
   56.0050   25.3490   45.8050 S   0  0  0  0  0  0  0  0  0  0  0  0
   56.4170   24.7520   47.1210 O   0  0  0  0  0  0  0  0  0  0  0  0
   55.8280   24.2440   44.8030 O   0  0  0  0  0  0  0  0  0  0  0  0
   57.2480   26.4530   45.2470 C   0  0  0  0  0  0  0  0  0  0  0  0
   57.7870   26.4850   43.9690 C   0  0  0  0  0  0  0  0  0  0  0  0
   58.7800   27.4590   43.8190 C   0  0  0  0  0  0  0  0  0  0  0  0
   59.0120   28.1900   44.9820 C   0  0  0  0  0  0  0  0  0  0  0  0
   60.0260   29.2810   45.1430 C   0  0  0  0  0  0  0  0  0  0  0  0
   59.3740   30.5410   45.6440 C   0  0  0  0  0  0  0  0  0  0  0  0
   60.0880   31.4830   46.4030 C   0  0  0  0  0  0  0  0  0  0  0  0
   59.3520   32.6160   46.7060 C   0  0  0  0  0  0  0  0  0  0  0  0
   59.9610   34.0250   47.5530 S   0  0  0  0  0  0  0  0  0  0  0  0
   58.8540   35.0370   47.6470 O   0  0  0  0  0  0  0  0  0  0  0  0
   61.0940   34.6240   46.7670 O   0  0  0  0  0  0  0  0  0  0  0  0
   60.4970   33.5970   49.1650 N   0  0  0  0  0  0  0  0  0  0  0  0
   59.3760   33.5040   50.1210 C   0  0  0  0  0  0  0  0  0  0  0  0
   58.5140   32.2450   49.9080 C   0  0  0  0  0  0  0  0  0  0  0  0
   59.3480   30.9940   49.5710 C   0  0  0  0  0  0  0  0  0  0  0  0
   60.8280   31.1880   49.8950 C   0  0  0  0  0  0  0  0  0  0  0  0
   61.3940   32.4140   49.1530 C   0  0  0  0  0  0  0  0  0  0  0  0
   57.8260   32.4810   46.0250 S   0  0  0  0  0  0  0  0  0  0  0  0
   58.0660   30.9600   45.3410 C   0  0  0  0  0  0  0  0  0  0  0  0
   57.0390   30.2630   44.5460 C   0  0  0  0  0  0  0  0  0  0  0  0
   57.1440   30.1480   43.2980 O   0  0  0  0  0  0  0  0  0  0  0  0
   55.9310   29.7160   45.1830 O   0  0  0  0  0  0  0  0  0  0  0  0
   57.9980   27.6170   46.1990 S   0  0  0  0  0  0  0  0  0  0  0  0
  1  2  1  0
  2  3  2  0
  2  4  2  0
  2  5  1  0
  5  6  2  0
  6  7  1  0
  7  8  2  0
  8  9  1  0
  9 10  1  0
 10 11  1  0
 11 12  2  0
 12 13  1  0
 13 14  2  0
 13 15  2  0
 13 16  1  0
 16 17  1  0
 17 18  1  0
 18 19  1  0
 19 20  1  0
 20 21  1  0
 12 22  1  0
 22 23  1  0
 23 24  1  0
 24 25  2  0
 24 26  1  0
  8 27  1  0
 27  5  1  0
 23 10  2  0
 21 16  1  0
M  CHG  2   1  -1  26  -1
M  END
>  <UniqueID>  (1654) 
58

>  <SMILES>  (1654) 
[NH-]S(=O)(=O)c1ccc(Cc2cc(S(=O)(=O)N3CCCCC3)sc2C(=O)[O-])s1

>  <Energy>  (1654) 
101.14220222011909

>  <Genealogy>  (1654) 
[NH-]S(=O)(=O)c1ccc(Cc2cc(S(=O)(=O)N3CCCCC3)sc2C(=O)[O-])s1 (protonated)
[NH-]S(=O)(=O)c1ccc(Cc2cc(S(=O)(=O)N3CCCCC3)sc2C(=O)[O-])s1 (3D coordinates assigned)
[NH-]S(=O)(=O)c1ccc(Cc2cc(S(=O)(=O)N3CCCCC3)sc2C(=O)[O-])s1 (nonaromatic ring conformer: 101.14220222011909 kcal/mol)

>  <smiles>  (1654) 
NS(=O)(=O)c1ccc(Cc2cc(S(=O)(=O)N3CCCCC3)sc2C(=O)O)s1

>  <score_type>  (1654) 
oracle

>  <origin>  (1654) 
adg

>  <m_score__min__energy>  (1654) 
-14.01

>  <m_primary>  (1654) 
energy

$$$$
60:0
     RDKit          3D

 32 36  0  0  0  0  0  0  0  0999 V2000
   59.1830   28.2080   47.3720 C   0  0  0  0  0  0  0  0  0  0  0  0
   58.7350   28.8570   46.2850 C   0  0  0  0  0  0  0  0  0  0  0  0
   57.9210   28.3380   45.2680 C   0  0  0  0  0  0  0  0  0  0  0  0
   57.6280   27.0620   44.9410 C   0  0  0  0  0  0  0  0  0  0  0  0
   57.1540   26.0290   45.8760 C   0  0  0  0  0  0  0  0  0  0  0  0
   57.8900   24.9830   46.2940 N   0  0  0  0  0  0  0  0  0  0  0  0
   57.0050   24.2390   46.9820 C   0  0  0  0  0  0  0  0  0  0  0  0
   57.3280   23.1650   47.5490 O   0  0  0  0  0  0  0  0  0  0  0  0
   55.7470   24.7290   47.0050 N   0  0  0  0  0  0  0  0  0  0  0  0
   55.8580   25.8560   46.2910 C   0  0  0  0  0  0  0  0  0  0  0  0
   54.7920   26.7050   46.0150 O   0  0  0  0  0  0  0  0  0  0  0  0
   57.4690   29.4270   44.5390 C   0  0  0  0  0  0  0  0  0  0  0  0
   58.0880   30.5430   45.0610 C   0  0  0  0  0  0  0  0  0  0  0  0
   57.9220   31.9320   44.5230 C   0  0  0  0  0  0  0  0  0  0  0  0
   58.8560   30.2000   46.1210 N   0  0  0  0  0  0  0  0  0  0  0  0
   59.6770   31.0930   46.8940 C   0  0  0  0  0  0  0  0  0  0  0  0
   59.1010   32.1550   47.6050 C   0  0  0  0  0  0  0  0  0  0  0  0
   59.9060   33.0180   48.3570 C   0  0  0  0  0  0  0  0  0  0  0  0
   61.3010   32.8420   48.3900 C   0  0  0  0  0  0  0  0  0  0  0  0
   62.1840   33.7400   49.1780 C   0  0  0  0  0  0  0  0  0  0  0  0
   61.8580   34.9550   49.2940 O   0  0  0  0  0  0  0  0  0  0  0  0
   63.3340   33.2370   49.9040 N   0  0  0  0  0  0  0  0  0  0  0  0
   63.5750   34.0780   51.1000 C   0  0  0  0  0  0  0  0  0  0  0  0
   65.0530   34.1300   51.5230 C   0  0  0  0  0  0  0  0  0  0  0  0
   65.7800   32.8940   51.2010 N   0  0  0  0  0  0  0  0  0  0  0  0
   65.3370   31.7680   52.0370 C   0  0  0  0  0  0  0  0  0  0  0  0
   64.6870   30.6600   51.2220 C   0  0  0  0  0  0  0  0  0  0  0  0
   66.0830   30.4670   51.7820 C   0  0  0  0  0  0  0  0  0  0  0  0
   65.7290   32.5630   49.7570 C   0  0  0  0  0  0  0  0  0  0  0  0
   64.5100   33.1660   49.0200 C   0  0  0  0  0  0  0  0  0  0  0  0
   61.8690   31.7700   47.6790 C   0  0  0  0  0  0  0  0  0  0  0  0
   61.0640   30.9060   46.9370 C   0  0  0  0  0  0  0  0  0  0  0  0
  1  2  2  0
  2  3  1  0
  3  4  2  3
  4  5  1  0
  5  6  1  0
  6  7  1  0
  7  8  2  0
  7  9  1  0
  9 10  1  0
 10 11  1  0
  3 12  1  0
 12 13  2  0
 13 14  1  0
 13 15  1  0
 15 16  1  0
 16 17  2  0
 17 18  1  0
 18 19  2  0
 19 20  1  0
 20 21  2  0
 20 22  1  0
 22 23  1  0
 23 24  1  0
 24 25  1  0
 25 26  1  0
 26 27  1  0
 27 28  1  0
 25 29  1  0
 29 30  1  0
 19 31  1  0
 31 32  2  0
 15  2  1  0
 32 16  1  0
 10  5  2  0
 30 22  1  0
 28 26  1  0
M  CHG  4   6  -1   9  -1  11  -1  22   1
M  END
>  <UniqueID>  (1655) 
59

>  <SMILES>  (1655) 
C=c1c(=Cc2[n-]c(=O)[n-]c2[O-])cc(C)n1-c1ccc(C(=O)[NH+]2CCN(C3CC3)CC2)cc1

>  <Energy>  (1655) 
417.8910329738411

>  <Genealogy>  (1655) 
C=c1c(=Cc2[n-]c(=O)[n-]c2[O-])cc(C)n1-c1ccc(C(=O)[NH+]2CCN(C3CC3)CC2)cc1 (protonated)
C=c1c(=Cc2[n-]c(=O)[n-]c2[O-])cc(C)n1-c1ccc(C(=O)[NH+]2CCN(C3CC3)CC2)cc1 (3D coordinates assigned)
C=c1c(=Cc2[n-]c(=O)[n-]c2[O-])cc(C)n1-c1ccc(C(=O)[NH+]2CCN(C3CC3)CC2)cc1 (nonaromatic ring conformer: 417.8910329738411 kcal/mol)

>  <smiles>  (1655) 
C=c1c(=Cc2[nH]c(=O)[nH]c2O)cc(C)n1-c1ccc(C(=O)N2CCN(C3CC3)CC2)cc1

>  <score_type>  (1655) 
oracle

>  <origin>  (1655) 
adg

>  <m_score__min__energy>  (1655) 
-15.710000000000001

>  <m_primary>  (1655) 
energy

$$$$
73:0
     RDKit          3D

 30 33  0  0  0  0  0  0  0  0999 V2000
   56.6950   29.3490   44.1560 C   0  0  0  0  0  0  0  0  0  0  0  0
   57.8220   29.0750   44.8290 C   0  0  0  0  0  0  0  0  0  0  0  0
   58.3150   27.8040   45.1430 C   0  0  0  0  0  0  0  0  0  0  0  0
   57.7710   26.6140   44.8190 C   0  0  0  0  0  0  0  0  0  0  0  0
   57.1790   25.6840   45.7970 C   0  0  0  0  0  0  0  0  0  0  0  0
   57.8110   24.5850   46.2440 N   0  0  0  0  0  0  0  0  0  0  0  0
   56.8910   23.9940   47.0370 C   0  0  0  0  0  0  0  0  0  0  0  0
   57.1190   22.9240   47.6600 O   0  0  0  0  0  0  0  0  0  0  0  0
   55.7040   24.6350   47.1030 N   0  0  0  0  0  0  0  0  0  0  0  0
   55.8970   25.6950   46.3030 C   0  0  0  0  0  0  0  0  0  0  0  0
   54.9060   26.6240   46.0060 O   0  0  0  0  0  0  0  0  0  0  0  0
   59.5210   28.0050   45.8020 C   0  0  0  0  0  0  0  0  0  0  0  0
   59.7050   29.3700   45.8830 C   0  0  0  0  0  0  0  0  0  0  0  0
   60.9010   30.0310   46.4990 C   0  0  0  0  0  0  0  0  0  0  0  0
   58.6810   30.0210   45.2880 N   0  0  0  0  0  0  0  0  0  0  0  0
   58.5420   31.4500   45.1820 C   0  0  0  0  0  0  0  0  0  0  0  0
   57.6680   32.0040   44.2380 C   0  0  0  0  0  0  0  0  0  0  0  0
   57.5270   33.3910   44.1420 C   0  0  0  0  0  0  0  0  0  0  0  0
   58.2480   34.2300   44.9940 C   0  0  0  0  0  0  0  0  0  0  0  0
   59.1150   33.6880   45.9590 C   0  0  0  0  0  0  0  0  0  0  0  0
   59.8890   34.5720   46.8610 C   0  0  0  0  0  0  0  0  0  0  0  0
   59.6690   35.8140   46.8400 O   0  0  0  0  0  0  0  0  0  0  0  0
   60.8990   34.0470   47.7450 N   0  0  0  0  0  0  0  0  0  0  0  0
   60.6400   33.9250   49.1880 C   0  0  0  0  0  0  0  0  0  0  0  0
   61.2440   32.6580   49.7320 C   0  0  0  0  0  0  0  0  0  0  0  0
   62.3990   32.1820   49.2440 C   0  0  0  0  0  0  0  0  0  0  0  0
   63.1340   32.8930   48.1370 C   0  0  0  0  0  0  0  0  0  0  0  0
   62.1680   33.5970   47.2280 C   0  0  0  0  0  0  0  0  0  0  0  0
   62.4970   33.8320   46.0350 O   0  0  0  0  0  0  0  0  0  0  0  0
   59.2660   32.2930   46.0370 C   0  0  0  0  0  0  0  0  0  0  0  0
  1  2  2  0
  2  3  1  0
  3  4  2  3
  4  5  1  0
  5  6  1  0
  6  7  1  0
  7  8  2  0
  7  9  1  0
  9 10  1  0
 10 11  1  0
  3 12  1  0
 12 13  2  0
 13 14  1  0
 13 15  1  0
 15 16  1  0
 16 17  2  0
 17 18  1  0
 18 19  2  0
 19 20  1  0
 20 21  1  0
 21 22  2  0
 21 23  1  0
 23 24  1  0
 24 25  1  0
 25 26  2  0
 26 27  1  0
 27 28  1  0
 28 29  2  0
 20 30  2  0
 15  2  1  0
 30 16  1  0
 10  5  2  0
 28 23  1  0
M  CHG  3   6  -1   9  -1  11  -1
M  END
>  <UniqueID>  (1656) 
70

>  <SMILES>  (1656) 
C=c1c(=Cc2[n-]c(=O)[n-]c2[O-])cc(C)n1-c1cccc(C(=O)N2CC=CCC2=O)c1

>  <Energy>  (1656) 
128.149022318261

>  <Genealogy>  (1656) 
C=c1c(=Cc2[n-]c(=O)[n-]c2[O-])cc(C)n1-c1cccc(C(=O)N2CC=CCC2=O)c1 (protonated)
C=c1c(=Cc2[n-]c(=O)[n-]c2[O-])cc(C)n1-c1cccc(C(=O)N2CC=CCC2=O)c1 (3D coordinates assigned)
C=c1c(=Cc2[n-]c(=O)[n-]c2[O-])cc(C)n1-c1cccc(C(=O)N2CC=CCC2=O)c1 (nonaromatic ring conformer: 128.149022318261 kcal/mol)

>  <smiles>  (1656) 
C=c1c(=Cc2[nH]c(=O)[nH]c2O)cc(C)n1-c1cccc(C(=O)N2CC=CCC2=O)c1

>  <score_type>  (1656) 
oracle

>  <origin>  (1656) 
adg

>  <m_score__min__energy>  (1656) 
-17.219999999999999

>  <m_primary>  (1656) 
energy

$$$$
80:0
     RDKit          3D

 40 45  0  0  0  0  0  0  0  0999 V2000
   59.1060   27.1420   47.4600 C   0  0  0  0  0  0  0  0  0  0  0  0
   58.4340   27.4900   46.3540 C   0  0  0  0  0  0  0  0  0  0  0  0
   57.8310   26.6360   45.4150 C   0  0  0  0  0  0  0  0  0  0  0  0
   57.5670   25.3150   45.4610 C   0  0  0  0  0  0  0  0  0  0  0  0
   56.2290   24.7000   45.4810 C   0  0  0  0  0  0  0  0  0  0  0  0
   55.9850   23.3790   45.3970 N   0  0  0  0  0  0  0  0  0  0  0  0
   54.6540   23.2950   45.6030 C   0  0  0  0  0  0  0  0  0  0  0  0
   54.0320   22.2020   45.5850 O   0  0  0  0  0  0  0  0  0  0  0  0
   54.0420   24.4730   45.8470 N   0  0  0  0  0  0  0  0  0  0  0  0
   55.0570   25.3500   45.7830 C   0  0  0  0  0  0  0  0  0  0  0  0
   54.9180   26.7140   46.0010 O   0  0  0  0  0  0  0  0  0  0  0  0
   57.4950   27.4280   44.3280 C   0  0  0  0  0  0  0  0  0  0  0  0
   57.8310   28.7240   44.6600 C   0  0  0  0  0  0  0  0  0  0  0  0
   57.6330   29.9200   43.7800 C   0  0  0  0  0  0  0  0  0  0  0  0
   58.3890   28.7630   45.8880 N   0  0  0  0  0  0  0  0  0  0  0  0
   58.9010   29.9390   46.5290 C   0  0  0  0  0  0  0  0  0  0  0  0
   58.8580   30.0560   47.9230 C   0  0  0  0  0  0  0  0  0  0  0  0
   59.3870   31.1880   48.5480 C   0  0  0  0  0  0  0  0  0  0  0  0
   59.9750   32.2140   47.7840 C   0  0  0  0  0  0  0  0  0  0  0  0
   60.5460   33.4130   48.4390 C   0  0  0  0  0  0  0  0  0  0  0  0
   60.0570   34.5500   48.1830 O   0  0  0  0  0  0  0  0  0  0  0  0
   61.6470   33.3090   49.3600 N   0  0  0  0  0  0  0  0  0  0  0  0
   62.7880   32.4810   49.0460 C   0  0  0  0  0  0  0  0  0  0  0  0
   62.8630   31.8400   47.9640 O   0  0  0  0  0  0  0  0  0  0  0  0
   63.8770   32.4340   50.0140 C   0  0  0  0  0  0  0  0  0  0  0  0
   65.0020   31.6960   49.9080 N   0  0  0  0  0  0  0  0  0  0  0  0
   65.7020   32.0350   51.0160 C   0  0  0  0  0  0  0  0  0  0  0  0
   67.0520   31.5180   51.3050 C   0  0  0  0  0  0  0  0  0  0  0  0
   68.0340   32.2880   51.1420 O   0  0  0  0  0  0  0  0  0  0  0  0
   67.2800   30.1650   51.7440 N   0  0  0  0  0  0  0  0  0  0  0  0
   68.5330   29.7470   52.3470 C   0  0  0  0  0  0  0  0  0  0  0  0
   68.5890   28.2350   52.1890 C   0  0  0  0  0  0  0  0  0  0  0  0
   67.1670   27.7960   51.8600 C   0  0  0  0  0  0  0  0  0  0  0  0
   66.4620   29.0360   51.3320 C   0  0  0  0  0  0  0  0  0  0  0  0
   65.0070   32.9870   51.7430 C   0  0  0  0  0  0  0  0  0  0  0  0
   63.8450   33.2040   51.1070 N   0  0  0  0  0  0  0  0  0  0  0  0
   62.8250   34.2150   51.3730 C   0  0  0  0  0  0  0  0  0  0  0  0
   61.4810   33.7840   50.7500 C   0  0  0  0  0  0  0  0  0  0  0  0
   59.9980   32.0950   46.3820 C   0  0  0  0  0  0  0  0  0  0  0  0
   59.4650   30.9650   45.7610 C   0  0  0  0  0  0  0  0  0  0  0  0
  1  2  2  0
  2  3  1  0
  3  4  2  0
  4  5  1  0
  5  6  1  0
  6  7  1  0
  7  8  2  0
  7  9  1  0
  9 10  1  0
 10 11  1  0
  3 12  1  0
 12 13  2  0
 13 14  1  0
 13 15  1  0
 15 16  1  0
 16 17  2  0
 17 18  1  0
 18 19  2  0
 19 20  1  0
 20 21  2  0
 20 22  1  0
 22 23  1  0
 23 24  2  0
 23 25  1  0
 25 26  2  0
 26 27  1  0
 27 28  1  0
 28 29  2  0
 28 30  1  0
 30 31  1  0
 31 32  1  0
 32 33  1  0
 33 34  1  0
 27 35  2  0
 35 36  1  0
 36 37  1  0
 37 38  1  0
 19 39  1  0
 39 40  2  0
 15  2  1  0
 40 16  1  0
 10  5  2  0
 38 22  1  0
 36 25  1  0
 34 30  1  0
M  CHG  3   6  -1   9  -1  11  -1
M  END
>  <UniqueID>  (1657) 
77

>  <SMILES>  (1657) 
C=c1/c(=C\c2[n-]c(=O)[n-]c2[O-])cc(C)n1-c1ccc(C(=O)N2CCn3cc(C(=O)N4CCCC4)nc3C2=O)cc1

>  <Energy>  (1657) 
186.79158539047742

>  <Genealogy>  (1657) 
C=c1c(=Cc2[n-]c(=O)[n-]c2[O-])cc(C)n1-c1ccc(C(=O)N2CCn3cc(C(=O)N4CCCC4)nc3C2=O)cc1 (protonated)
C=c1/c(=C\c2[n-]c(=O)[n-]c2[O-])cc(C)n1-c1ccc(C(=O)N2CCn3cc(C(=O)N4CCCC4)nc3C2=O)cc1 (cis-trans isomerization)
C=c1/c(=C\c2[n-]c(=O)[n-]c2[O-])cc(C)n1-c1ccc(C(=O)N2CCn3cc(C(=O)N4CCCC4)nc3C2=O)cc1 (3D coordinates assigned)
C=c1/c(=C\c2[n-]c(=O)[n-]c2[O-])cc(C)n1-c1ccc(C(=O)N2CCn3cc(C(=O)N4CCCC4)nc3C2=O)cc1 (nonaromatic ring conformer: 186.79158539047742 kcal/mol)

>  <smiles>  (1657) 
C=c1c(=Cc2[nH]c(=O)[nH]c2O)cc(C)n1-c1ccc(C(=O)N2CCn3cc(C(=O)N4CCCC4)nc3C2=O)cc1

>  <score_type>  (1657) 
oracle

>  <origin>  (1657) 
adg

>  <m_score__min__energy>  (1657) 
-16.75

>  <m_primary>  (1657) 
energy

$$$$
87:0
     RDKit          3D

 28 30  0  0  0  0  0  0  0  0999 V2000
   55.4490   29.2800   45.2130 N   0  0  0  0  0  0  0  0  0  0  0  0
   56.8160   29.7840   44.2840 S   0  0  0  0  0  0  0  0  0  0  0  0
   57.8960   28.7430   44.3910 O   0  0  0  0  0  0  0  0  0  0  0  0
   56.4200   29.9260   42.8420 O   0  0  0  0  0  0  0  0  0  0  0  0
   57.3930   31.3350   44.8870 C   0  0  0  0  0  0  0  0  0  0  0  0
   57.4360   32.4360   44.0250 C   0  0  0  0  0  0  0  0  0  0  0  0
   57.8790   33.6750   44.4900 C   0  0  0  0  0  0  0  0  0  0  0  0
   58.2810   33.8230   45.8190 C   0  0  0  0  0  0  0  0  0  0  0  0
   58.2440   32.7290   46.7030 C   0  0  0  0  0  0  0  0  0  0  0  0
   58.6730   32.9050   48.1130 C   0  0  0  0  0  0  0  0  0  0  0  0
   59.5270   33.8690   48.6140 C   0  0  0  0  0  0  0  0  0  0  0  0
   59.6590   33.6950   49.9410 N   0  0  0  0  0  0  0  0  0  0  0  0
   58.8790   32.6290   50.2050 C   0  0  0  0  0  0  0  0  0  0  0  0
   58.6780   31.9530   51.8520 S   0  0  0  0  0  0  0  0  0  0  0  0
   56.9080   32.3800   51.9750 C   0  0  0  0  0  0  0  0  0  0  0  0
   56.0570   31.1420   52.0310 C   0  0  0  0  0  0  0  0  0  0  0  0
   56.5430   30.0510   51.6320 O   0  0  0  0  0  0  0  0  0  0  0  0
   54.6970   31.1670   52.4810 N   0  0  0  0  0  0  0  0  0  0  0  0
   53.5120   31.1740   51.6270 C   0  0  0  0  0  0  0  0  0  0  0  0
   52.2690   31.4510   52.4340 C   0  0  0  0  0  0  0  0  0  0  0  0
   52.1130   30.8760   53.7080 C   0  0  0  0  0  0  0  0  0  0  0  0
   50.9700   31.1370   54.4680 C   0  0  0  0  0  0  0  0  0  0  0  0
   49.9760   31.9820   53.9690 C   0  0  0  0  0  0  0  0  0  0  0  0
   50.1250   32.5700   52.7090 C   0  0  0  0  0  0  0  0  0  0  0  0
   51.2670   32.3130   51.9430 C   0  0  0  0  0  0  0  0  0  0  0  0
   51.4000   32.9190   50.6980 O   0  0  0  0  0  0  0  0  0  0  0  0
   58.2620   32.1160   49.1220 N   0  0  0  0  0  0  0  0  0  0  0  0
   57.7940   31.4820   46.2230 C   0  0  0  0  0  0  0  0  0  0  0  0
  1  2  1  0
  2  3  2  0
  2  4  2  0
  2  5  1  0
  5  6  2  0
  6  7  1  0
  7  8  2  0
  8  9  1  0
  9 10  1  0
 10 11  2  0
 11 12  1  0
 12 13  2  0
 13 14  1  0
 14 15  1  0
 15 16  1  0
 16 17  2  0
 16 18  1  0
 18 19  1  0
 19 20  1  0
 20 21  2  0
 21 22  1  0
 22 23  2  0
 23 24  1  0
 24 25  2  0
 25 26  1  0
 13 27  1  0
  9 28  2  0
 28  5  1  0
 27 10  1  0
 25 20  1  0
M  CHG  4   1  -1  18  -1  26  -1  27  -1
M  END
>  <UniqueID>  (1658) 
82

>  <SMILES>  (1658) 
[NH-]S(=O)(=O)c1cccc(-c2cnc(SCC(=O)[N-]Cc3ccccc3[O-])[n-]2)c1

>  <Energy>  (1658) 
68.00285763082748

>  <Genealogy>  (1658) 
[NH-]S(=O)(=O)c1cccc(-c2cnc(SCC(=O)[N-]Cc3ccccc3[O-])[n-]2)c1 (protonated)
[NH-]S(=O)(=O)c1cccc(-c2cnc(SCC(=O)[N-]Cc3ccccc3[O-])[n-]2)c1 (3D coordinates assigned)
[NH-]S(=O)(=O)c1cccc(-c2cnc(SCC(=O)[N-]Cc3ccccc3[O-])[n-]2)c1 (optimized conformer: 68.00285763082748 kcal/mol)

>  <smiles>  (1658) 
NS(=O)(=O)c1cccc(-c2cnc(SCC(=O)NCc3ccccc3O)[nH]2)c1

>  <score_type>  (1658) 
oracle

>  <origin>  (1658) 
adg

>  <m_score__min__energy>  (1658) 
-18.239999999999998

>  <m_primary>  (1658) 
energy

$$$$
88:0
     RDKit          3D

 29 32  0  0  0  0  0  0  0  0999 V2000
   59.9120   28.0240   46.1610 C   0  0  0  0  0  0  0  0  0  0  0  0
   58.9320   28.5860   45.4330 C   0  0  0  0  0  0  0  0  0  0  0  0
   57.8510   27.9170   44.8360 C   0  0  0  0  0  0  0  0  0  0  0  0
   57.6210   26.6040   44.6360 C   0  0  0  0  0  0  0  0  0  0  0  0
   57.0910   25.6640   45.6380 C   0  0  0  0  0  0  0  0  0  0  0  0
   57.7020   24.5270   46.0230 N   0  0  0  0  0  0  0  0  0  0  0  0
   56.7910   23.9430   46.8320 C   0  0  0  0  0  0  0  0  0  0  0  0
   57.0040   22.8470   47.4110 O   0  0  0  0  0  0  0  0  0  0  0  0
   55.6310   24.6230   46.9630 N   0  0  0  0  0  0  0  0  0  0  0  0
   55.8340   25.7000   46.1890 C   0  0  0  0  0  0  0  0  0  0  0  0
   54.8860   26.6960   45.9860 O   0  0  0  0  0  0  0  0  0  0  0  0
   56.9700   28.8980   44.4180 C   0  0  0  0  0  0  0  0  0  0  0  0
   57.5640   30.1120   44.6900 C   0  0  0  0  0  0  0  0  0  0  0  0
   56.9280   31.4400   44.4090 C   0  0  0  0  0  0  0  0  0  0  0  0
   58.7590   29.9330   45.3030 N   0  0  0  0  0  0  0  0  0  0  0  0
   59.6300   31.0160   45.7880 C   0  0  0  0  0  0  0  0  0  0  0  0
   59.4070   31.2690   47.2580 C   0  0  0  0  0  0  0  0  0  0  0  0
   58.9620   32.5240   47.7040 C   0  0  0  0  0  0  0  0  0  0  0  0
   58.7630   32.7590   49.0670 C   0  0  0  0  0  0  0  0  0  0  0  0
   59.0000   31.7410   50.0040 C   0  0  0  0  0  0  0  0  0  0  0  0
   58.8090   31.9830   51.4080 N   0  0  0  0  0  0  0  0  0  0  0  0
   59.3360   33.2360   51.9690 C   0  0  0  0  0  0  0  0  0  0  0  0
   59.4640   33.1720   53.4920 C   0  0  0  0  0  0  0  0  0  0  0  0
   58.1430   32.7210   54.1130 C   0  0  0  0  0  0  0  0  0  0  0  0
   57.7960   31.3020   53.6650 C   0  0  0  0  0  0  0  0  0  0  0  0
   57.9250   31.1370   52.1770 C   0  0  0  0  0  0  0  0  0  0  0  0
   57.3200   30.1800   51.6210 O   0  0  0  0  0  0  0  0  0  0  0  0
   59.4440   30.4880   49.5600 C   0  0  0  0  0  0  0  0  0  0  0  0
   59.6420   30.2520   48.1970 C   0  0  0  0  0  0  0  0  0  0  0  0
  1  2  2  0
  2  3  1  0
  3  4  2  3
  4  5  1  0
  5  6  1  0
  6  7  1  0
  7  8  2  0
  7  9  1  0
  9 10  1  0
 10 11  1  0
  3 12  1  0
 12 13  2  0
 13 14  1  0
 13 15  1  0
 15 16  1  0
 16 17  1  0
 17 18  2  0
 18 19  1  0
 19 20  2  0
 20 21  1  0
 21 22  1  0
 22 23  1  0
 23 24  1  0
 24 25  1  0
 25 26  1  0
 26 27  2  0
 20 28  1  0
 28 29  2  0
 15  2  1  0
 29 17  1  0
 10  5  2  0
 26 21  1  0
M  CHG  3   6  -1   9  -1  11  -1
M  END
>  <UniqueID>  (1659) 
83

>  <SMILES>  (1659) 
C=c1c(=Cc2[n-]c(=O)[n-]c2[O-])cc(C)n1Cc1ccc(N2CCCCC2=O)cc1

>  <Energy>  (1659) 
125.02839034948482

>  <Genealogy>  (1659) 
C=c1c(=Cc2[n-]c(=O)[n-]c2[O-])cc(C)n1Cc1ccc(N2CCCCC2=O)cc1 (protonated)
C=c1c(=Cc2[n-]c(=O)[n-]c2[O-])cc(C)n1Cc1ccc(N2CCCCC2=O)cc1 (3D coordinates assigned)
C=c1c(=Cc2[n-]c(=O)[n-]c2[O-])cc(C)n1Cc1ccc(N2CCCCC2=O)cc1 (nonaromatic ring conformer: 125.02839034948482 kcal/mol)

>  <smiles>  (1659) 
C=c1c(=Cc2[nH]c(=O)[nH]c2O)cc(C)n1Cc1ccc(N2CCCCC2=O)cc1

>  <score_type>  (1659) 
oracle

>  <origin>  (1659) 
adg

>  <m_score__min__energy>  (1659) 
-17.219999999999999

>  <m_primary>  (1659) 
energy

$$$$
6:0
     RDKit          3D

 29 32  0  0  0  0  0  0  0  0999 V2000
   58.0500   30.4010   44.3620 C   0  0  0  0  0  0  0  0  0  0  0  0
   58.3480   29.9180   45.5780 C   0  0  0  0  0  0  0  0  0  0  0  0
   58.0690   28.6330   46.0540 C   0  0  0  0  0  0  0  0  0  0  0  0
   57.4460   27.6350   45.3980 C   0  0  0  0  0  0  0  0  0  0  0  0
   57.2040   26.2970   45.9860 C   0  0  0  0  0  0  0  0  0  0  0  0
   55.8940   25.8730   46.2520 C   0  0  0  0  0  0  0  0  0  0  0  0
   54.8130   26.7130   46.0020 O   0  0  0  0  0  0  0  0  0  0  0  0
   55.6710   24.6380   46.7680 N   0  0  0  0  0  0  0  0  0  0  0  0
   56.7000   23.7880   47.0220 C   0  0  0  0  0  0  0  0  0  0  0  0
   56.4690   22.6490   47.5050 O   0  0  0  0  0  0  0  0  0  0  0  0
   57.9750   24.1640   46.7480 N   0  0  0  0  0  0  0  0  0  0  0  0
   58.2500   25.3880   46.2300 C   0  0  0  0  0  0  0  0  0  0  0  0
   59.4430   25.6880   45.9560 O   0  0  0  0  0  0  0  0  0  0  0  0
   58.5150   28.5960   47.3690 C   0  0  0  0  0  0  0  0  0  0  0  0
   59.0590   29.8370   47.6360 C   0  0  0  0  0  0  0  0  0  0  0  0
   59.6370   30.2440   48.9570 C   0  0  0  0  0  0  0  0  0  0  0  0
   58.9540   30.6420   46.5540 N   0  0  0  0  0  0  0  0  0  0  0  0
   59.4030   32.0050   46.4740 C   0  0  0  0  0  0  0  0  0  0  0  0
   58.5120   33.0210   46.1050 C   0  0  0  0  0  0  0  0  0  0  0  0
   58.9560   34.3420   46.0060 C   0  0  0  0  0  0  0  0  0  0  0  0
   60.2890   34.6580   46.2840 C   0  0  0  0  0  0  0  0  0  0  0  0
   61.1890   33.6520   46.6760 C   0  0  0  0  0  0  0  0  0  0  0  0
   62.5990   33.9980   46.9620 C   0  0  0  0  0  0  0  0  0  0  0  0
   63.4100   34.1040   46.0040 O   0  0  0  0  0  0  0  0  0  0  0  0
   63.0720   34.2460   48.2920 N   0  0  0  0  0  0  0  0  0  0  0  0
   63.2300   33.2190   49.3140 C   0  0  0  0  0  0  0  0  0  0  0  0
   64.6850   32.8460   49.5350 C   0  0  0  0  0  0  0  0  0  0  0  0
   63.7620   31.8990   48.7850 C   0  0  0  0  0  0  0  0  0  0  0  0
   60.7420   32.3230   46.7480 C   0  0  0  0  0  0  0  0  0  0  0  0
  1  2  2  0
  2  3  1  0
  3  4  2  0
  4  5  1  0
  5  6  2  0
  6  7  1  0
  6  8  1  0
  8  9  1  0
  9 10  2  0
  9 11  1  0
 11 12  1  0
 12 13  2  0
  3 14  1  0
 14 15  2  0
 15 16  1  0
 15 17  1  0
 17 18  1  0
 18 19  2  0
 19 20  1  0
 20 21  2  0
 21 22  1  0
 22 23  1  0
 23 24  2  0
 23 25  1  0
 25 26  1  0
 26 27  1  0
 27 28  1  0
 22 29  2  0
 17  2  1  0
 29 18  1  0
 12  5  1  0
 28 26  1  0
M  CHG  4   7  -1   8  -1  11  -1  25  -1
M  END
>  <UniqueID>  (1660) 
7

>  <SMILES>  (1660) 
C=c1/c(=C/c2c([O-])[n-]c(=O)[n-]c2=O)cc(C)n1-c1cccc(C(=O)[N-]C2CC2)c1

>  <Energy>  (1660) 
360.89070087129454

>  <Genealogy>  (1660) 
C=c1c(=Cc2c([O-])[n-]c(=O)[n-]c2=O)cc(C)n1-c1cccc(C(=O)[N-]C2CC2)c1 (protonated)
C=c1/c(=C/c2c([O-])[n-]c(=O)[n-]c2=O)cc(C)n1-c1cccc(C(=O)[N-]C2CC2)c1 (cis-trans isomerization)
C=c1/c(=C/c2c([O-])[n-]c(=O)[n-]c2=O)cc(C)n1-c1cccc(C(=O)[N-]C2CC2)c1 (3D coordinates assigned)
C=c1/c(=C/c2c([O-])[n-]c(=O)[n-]c2=O)cc(C)n1-c1cccc(C(=O)[N-]C2CC2)c1 (nonaromatic ring conformer: 360.89070087129454 kcal/mol)

>  <smiles>  (1660) 
C=c1c(=Cc2c(O)[nH]c(=O)[nH]c2=O)cc(C)n1-c1cccc(C(=O)NC2CC2)c1

>  <score_type>  (1660) 
oracle

>  <origin>  (1660) 
adg

>  <m_score__min__energy>  (1660) 
-17.260000000000002

>  <m_primary>  (1660) 
energy

$$$$
8:0
     RDKit          3D

 33 36  0  0  0  0  0  0  0  0999 V2000
   57.2810   28.2650   44.7360 C   0  0  0  0  0  0  0  0  0  0  0  0
   57.8790   27.4210   45.5920 C   0  0  0  0  0  0  0  0  0  0  0  0
   57.8470   26.0150   45.5750 C   0  0  0  0  0  0  0  0  0  0  0  0
   57.1620   25.1460   44.8050 C   0  0  0  0  0  0  0  0  0  0  0  0
   55.7920   24.6720   45.0430 C   0  0  0  0  0  0  0  0  0  0  0  0
   55.4100   23.3960   44.8730 N   0  0  0  0  0  0  0  0  0  0  0  0
   54.1320   23.3900   45.3150 C   0  0  0  0  0  0  0  0  0  0  0  0
   53.4130   22.3570   45.2970 O   0  0  0  0  0  0  0  0  0  0  0  0
   53.6890   24.5790   45.7830 N   0  0  0  0  0  0  0  0  0  0  0  0
   54.7580   25.3760   45.6190 C   0  0  0  0  0  0  0  0  0  0  0  0
   54.7940   26.7110   46.0030 O   0  0  0  0  0  0  0  0  0  0  0  0
   58.7230   25.5970   46.5640 C   0  0  0  0  0  0  0  0  0  0  0  0
   59.2330   26.7300   47.1570 C   0  0  0  0  0  0  0  0  0  0  0  0
   60.2220   26.7190   48.2850 C   0  0  0  0  0  0  0  0  0  0  0  0
   58.7050   27.8370   46.5870 N   0  0  0  0  0  0  0  0  0  0  0  0
   59.0640   29.1930   46.9080 C   0  0  0  0  0  0  0  0  0  0  0  0
   58.5070   29.7980   48.0420 C   0  0  0  0  0  0  0  0  0  0  0  0
   58.8000   31.1250   48.3550 C   0  0  0  0  0  0  0  0  0  0  0  0
   59.6400   31.8810   47.5230 C   0  0  0  0  0  0  0  0  0  0  0  0
   59.9270   33.3050   47.8170 C   0  0  0  0  0  0  0  0  0  0  0  0
   59.2790   34.1870   47.1920 O   0  0  0  0  0  0  0  0  0  0  0  0
   60.9290   33.6840   48.7970 N   0  0  1  0  0  0  0  0  0  0  0  0
   61.0920   32.6760   49.8670 C   0  0  0  0  0  0  0  0  0  0  0  0
   61.8590   31.4130   49.4320 C   0  0  0  0  0  0  0  0  0  0  0  0
   63.1420   31.6760   48.6150 C   0  0  2  0  0  0  0  0  0  0  0  0
   64.3570   31.7010   49.4850 N   0  0  0  0  0  0  0  0  0  0  0  0
   64.1810   31.1570   50.8410 C   0  0  0  0  0  0  0  0  0  0  0  0
   64.9560   33.0470   49.5550 C   0  0  0  0  0  0  0  0  0  0  0  0
   63.0030   32.8590   47.6240 C   0  0  0  0  0  0  0  0  0  0  0  0
   62.2140   34.0580   48.1750 C   0  0  0  0  0  0  0  0  0  0  0  0
   60.1960   31.2790   46.3820 C   0  0  0  0  0  0  0  0  0  0  0  0
   59.9410   29.9310   46.0820 C   0  0  0  0  0  0  0  0  0  0  0  0
   60.5740   29.3230   44.8620 C   0  0  0  0  0  0  0  0  0  0  0  0
  1  2  2  0
  2  3  1  0
  3  4  2  3
  4  5  1  0
  5  6  1  0
  6  7  1  0
  7  8  2  0
  7  9  1  0
  9 10  1  0
 10 11  1  0
  3 12  1  0
 12 13  2  0
 13 14  1  0
 13 15  1  0
 15 16  1  0
 16 17  2  0
 17 18  1  0
 18 19  2  0
 19 20  1  0
 20 21  2  0
 22 20  1  6
 22 23  1  0
 23 24  1  0
 24 25  1  0
 25 26  1  1
 26 27  1  0
 26 28  1  0
 25 29  1  0
 29 30  1  0
 19 31  1  0
 31 32  2  0
 32 33  1  0
 15  2  1  0
 32 16  1  0
 10  5  2  0
 30 22  1  0
M  CHG  4   6  -1   9  -1  11  -1  22   1
M  END
>  <UniqueID>  (1661) 
9

>  <SMILES>  (1661) 
C=c1c(=Cc2[n-]c(=O)[n-]c2[O-])cc(C)n1-c1ccc(C(=O)[NH+]2CCC(N(C)C)CC2)cc1C

>  <Energy>  (1661) 
159.97180760909148

>  <Genealogy>  (1661) 
C=c1c(=Cc2[n-]c(=O)[n-]c2[O-])cc(C)n1-c1ccc(C(=O)[NH+]2CCC(N(C)C)CC2)cc1C (protonated)
C=c1c(=Cc2[n-]c(=O)[n-]c2[O-])cc(C)n1-c1ccc(C(=O)[NH+]2CCC(N(C)C)CC2)cc1C (3D coordinates assigned)
C=c1c(=Cc2[n-]c(=O)[n-]c2[O-])cc(C)n1-c1ccc(C(=O)[NH+]2CCC(N(C)C)CC2)cc1C (nonaromatic ring conformer: 159.97180760909148 kcal/mol)

>  <smiles>  (1661) 
C=c1c(=Cc2[nH]c(=O)[nH]c2O)cc(C)n1-c1ccc(C(=O)N2CCC(N(C)C)CC2)cc1C

>  <score_type>  (1661) 
oracle

>  <origin>  (1661) 
adg

>  <m_score__min__energy>  (1661) 
-15.07

>  <m_primary>  (1661) 
energy

$$$$
12:0
     RDKit          3D

 24 26  0  0  0  0  0  0  0  0999 V2000
   60.6820   34.5440   49.9670 O   0  0  0  0  0  0  0  0  0  0  0  0
   60.1720   33.4870   49.5040 C   0  0  0  0  0  0  0  0  0  0  0  0
   60.3750   32.1930   50.2340 C   0  0  0  0  0  0  0  0  0  0  0  0
   59.1190   31.8280   50.9620 C   0  0  0  0  0  0  0  0  0  0  0  0
   58.5310   30.6200   50.8900 N   0  0  0  0  0  0  0  0  0  0  0  0
   57.4060   30.7790   51.6220 C   0  0  0  0  0  0  0  0  0  0  0  0
   56.5770   29.8490   51.8010 O   0  0  0  0  0  0  0  0  0  0  0  0
   57.2370   32.0130   52.1420 N   0  0  0  0  0  0  0  0  0  0  0  0
   58.3270   32.6670   51.7090 C   0  0  0  0  0  0  0  0  0  0  0  0
   58.5900   34.0050   51.9810 O   0  0  0  0  0  0  0  0  0  0  0  0
   59.5270   33.5100   48.2220 N   0  0  0  0  0  0  0  0  0  0  0  0
   60.1470   34.2300   47.1090 C   0  0  0  0  0  0  0  0  0  0  0  0
   59.9180   33.4490   45.8140 C   0  0  0  0  0  0  0  0  0  0  0  0
   58.4790   33.1710   45.6380 N   0  0  0  0  0  0  0  0  0  0  0  0
   58.1700   32.5880   44.3120 C   0  0  0  0  0  0  0  0  0  0  0  0
   57.8080   31.1170   44.3600 C   0  0  0  0  0  0  0  0  0  0  0  0
   58.8140   30.1370   44.3810 C   0  0  0  0  0  0  0  0  0  0  0  0
   58.4790   28.7810   44.4490 C   0  0  0  0  0  0  0  0  0  0  0  0
   57.1380   28.3920   44.4900 C   0  0  0  0  0  0  0  0  0  0  0  0
   56.1280   29.3590   44.4570 C   0  0  0  0  0  0  0  0  0  0  0  0
   54.7950   28.9710   44.4940 O   0  0  0  0  0  0  0  0  0  0  0  0
   56.4600   30.7160   44.3880 C   0  0  0  0  0  0  0  0  0  0  0  0
   57.9460   32.3590   46.7520 C   0  0  0  0  0  0  0  0  0  0  0  0
   58.1280   33.0990   48.0780 C   0  0  0  0  0  0  0  0  0  0  0  0
  1  2  2  0
  2  3  1  0
  3  4  1  0
  4  5  1  0
  5  6  1  0
  6  7  2  0
  6  8  1  0
  8  9  1  0
  9 10  1  0
  2 11  1  0
 11 12  1  0
 12 13  1  0
 13 14  1  0
 14 15  1  0
 15 16  1  0
 16 17  2  0
 17 18  1  0
 18 19  2  0
 19 20  1  0
 20 21  1  0
 20 22  2  0
 14 23  1  0
 23 24  1  0
  9  4  2  0
 24 11  1  0
 22 16  1  0
M  CHG  3   5  -1   8  -1  21  -1
M  END
>  <UniqueID>  (1662) 
13

>  <SMILES>  (1662) 
O=C(Cc1[n-]c(=O)[n-]c1O)N1CCN(Cc2cccc([O-])c2)CC1

>  <Energy>  (1662) 
72.41618990921577

>  <Genealogy>  (1662) 
O=C(Cc1[n-]c(=O)[n-]c1O)N1CCN(Cc2cccc([O-])c2)CC1 (protonated)
O=C(Cc1[n-]c(=O)[n-]c1O)N1CCN(Cc2cccc([O-])c2)CC1 (3D coordinates assigned)
O=C(Cc1[n-]c(=O)[n-]c1O)N1CCN(Cc2cccc([O-])c2)CC1 (nonaromatic ring conformer: 72.41618990921577 kcal/mol)

>  <smiles>  (1662) 
O=C(Cc1[nH]c(=O)[nH]c1O)N1CCN(Cc2cccc(O)c2)CC1

>  <score_type>  (1662) 
oracle

>  <origin>  (1662) 
adg

>  <m_score__min__energy>  (1662) 
-14.34

>  <m_primary>  (1662) 
energy

$$$$
14:0
     RDKit          3D

 27 30  0  0  0  0  0  0  0  0999 V2000
   58.3620   30.3770   44.1810 C   0  0  0  0  0  0  0  0  0  0  0  0
   58.5880   30.2060   45.4910 C   0  0  0  0  0  0  0  0  0  0  0  0
   58.4820   29.0250   46.2390 C   0  0  0  0  0  0  0  0  0  0  0  0
   58.3990   27.7470   45.8270 C   0  0  0  0  0  0  0  0  0  0  0  0
   57.1950   26.9030   45.9050 C   0  0  0  0  0  0  0  0  0  0  0  0
   57.1690   25.6460   46.3890 N   0  0  0  0  0  0  0  0  0  0  0  0
   55.8540   25.3390   46.3860 C   0  0  0  0  0  0  0  0  0  0  0  0
   55.4190   24.2200   46.7630 O   0  0  0  0  0  0  0  0  0  0  0  0
   55.0400   26.3290   45.9600 N   0  0  0  0  0  0  0  0  0  0  0  0
   55.9060   27.3150   45.6730 C   0  0  0  0  0  0  0  0  0  0  0  0
   55.5250   28.5700   45.2140 O   0  0  0  0  0  0  0  0  0  0  0  0
   58.5030   29.3330   47.5540 N   0  0  0  0  0  0  0  0  0  0  0  0
   58.6780   30.6680   47.5830 C   0  0  0  0  0  0  0  0  0  0  0  0
   58.7680   31.3210   48.6560 O   0  0  0  0  0  0  0  0  0  0  0  0
   58.7620   31.2280   46.3600 N   0  0  0  0  0  0  0  0  0  0  0  0
   58.9320   32.6270   46.0710 C   0  0  0  0  0  0  0  0  0  0  0  0
   58.0150   33.2730   45.2300 C   0  0  0  0  0  0  0  0  0  0  0  0
   58.1850   34.6200   44.8990 C   0  0  0  0  0  0  0  0  0  0  0  0
   59.2710   35.3330   45.4090 C   0  0  0  0  0  0  0  0  0  0  0  0
   60.1850   34.7040   46.2580 C   0  0  0  0  0  0  0  0  0  0  0  0
   60.0240   33.3530   46.6020 C   0  0  0  0  0  0  0  0  0  0  0  0
   60.9460   32.7460   47.5260 N   0  0  0  0  0  0  0  0  0  0  0  0
   61.1460   33.3370   48.8540 C   0  0  0  0  0  0  0  0  0  0  0  0
   62.4670   32.8500   49.4510 C   0  0  0  0  0  0  0  0  0  0  0  0
   63.4520   32.8270   48.4400 O   0  0  0  0  0  0  0  0  0  0  0  0
   63.2240   31.7450   47.5520 C   0  0  0  0  0  0  0  0  0  0  0  0
   61.7470   31.5850   47.1190 C   0  0  0  0  0  0  0  0  0  0  0  0
  1  2  2  0
  2  3  1  0
  3  4  2  3
  4  5  1  0
  5  6  1  0
  6  7  1  0
  7  8  2  0
  7  9  1  0
  9 10  1  0
 10 11  1  0
  3 12  1  0
 12 13  1  0
 13 14  2  0
 13 15  1  0
 15 16  1  0
 16 17  2  0
 17 18  1  0
 18 19  2  0
 19 20  1  0
 20 21  2  0
 21 22  1  0
 22 23  1  0
 23 24  1  0
 24 25  1  0
 25 26  1  0
 26 27  1  0
 15  2  1  0
 21 16  1  0
 27 22  1  0
 10  5  2  0
M  CHG  4   6  -1   9  -1  11  -1  12  -1
M  END
>  <UniqueID>  (1663) 
15

>  <SMILES>  (1663) 
C=c1c(=Cc2[n-]c(=O)[n-]c2[O-])[n-]c(=O)n1-c1ccccc1N1CCOCC1

>  <Energy>  (1663) 
135.42330334486167

>  <Genealogy>  (1663) 
C=c1c(=Cc2[n-]c(=O)[n-]c2[O-])[n-]c(=O)n1-c1ccccc1N1CCOCC1 (protonated)
C=c1c(=Cc2[n-]c(=O)[n-]c2[O-])[n-]c(=O)n1-c1ccccc1N1CCOCC1 (3D coordinates assigned)
C=c1c(=Cc2[n-]c(=O)[n-]c2[O-])[n-]c(=O)n1-c1ccccc1N1CCOCC1 (nonaromatic ring conformer: 135.42330334486167 kcal/mol)

>  <smiles>  (1663) 
C=c1c(=Cc2[nH]c(=O)[nH]c2O)[nH]c(=O)n1-c1ccccc1N1CCOCC1

>  <score_type>  (1663) 
oracle

>  <origin>  (1663) 
adg

>  <m_score__min__energy>  (1663) 
-16.66

>  <m_primary>  (1663) 
energy

$$$$
22:0
     RDKit          3D

 32 35  0  0  0  0  0  0  0  0999 V2000
   55.2770   26.6930   46.0260 O   0  0  0  0  0  0  0  0  0  0  0  0
   55.1290   25.3830   45.5710 C   0  0  0  0  0  0  0  0  0  0  0  0
   53.8810   24.8460   45.5240 N   0  0  0  0  0  0  0  0  0  0  0  0
   53.6730   23.5760   45.0930 C   0  0  0  0  0  0  0  0  0  0  0  0
   52.5060   23.1080   45.0580 O   0  0  0  0  0  0  0  0  0  0  0  0
   54.7230   22.8090   44.7060 N   0  0  0  0  0  0  0  0  0  0  0  0
   55.9920   23.2920   44.7320 C   0  0  0  0  0  0  0  0  0  0  0  0
   56.9440   22.5450   44.3810 O   0  0  0  0  0  0  0  0  0  0  0  0
   56.2310   24.6130   45.1530 C   0  0  0  0  0  0  0  0  0  0  0  0
   57.6050   25.1450   45.2350 C   0  0  0  0  0  0  0  0  0  0  0  0
   57.9360   26.4420   45.3980 C   0  0  0  0  0  0  0  0  0  0  0  0
   58.2050   26.9900   46.6400 C   0  0  0  0  0  0  0  0  0  0  0  0
   58.5560   28.3070   46.4310 C   0  0  0  0  0  0  0  0  0  0  0  0
   58.9480   29.2640   47.5160 C   0  0  0  0  0  0  0  0  0  0  0  0
   58.5140   28.6050   45.1120 N   0  0  0  0  0  0  0  0  0  0  0  0
   58.7700   29.9310   44.5300 C   0  0  0  0  0  0  0  0  0  0  0  0
   57.5580   30.8450   44.7350 C   0  0  0  0  0  0  0  0  0  0  0  0
   58.0000   32.2060   45.2000 C   0  0  0  0  0  0  0  0  0  0  0  0
   57.6820   33.3500   44.4530 C   0  0  0  0  0  0  0  0  0  0  0  0
   58.1220   34.6080   44.8740 C   0  0  0  0  0  0  0  0  0  0  0  0
   58.9020   34.7310   46.0270 C   0  0  0  0  0  0  0  0  0  0  0  0
   59.2600   33.5900   46.7630 C   0  0  0  0  0  0  0  0  0  0  0  0
   60.0950   33.7250   47.9750 C   0  0  0  0  0  0  0  0  0  0  0  0
   59.5650   34.1550   49.0350 O   0  0  0  0  0  0  0  0  0  0  0  0
   61.4950   33.3920   47.9680 N   0  0  0  0  0  0  0  0  0  0  0  0
   62.3330   33.4290   46.7790 C   0  0  0  0  0  0  0  0  0  0  0  0
   63.7670   33.4710   47.2900 C   0  0  0  0  0  0  0  0  0  0  0  0
   63.7020   32.9980   48.7380 C   0  0  0  0  0  0  0  0  0  0  0  0
   62.2700   33.2530   49.1880 C   0  0  0  0  0  0  0  0  0  0  0  0
   58.7910   32.3310   46.3540 C   0  0  0  0  0  0  0  0  0  0  0  0
   58.0990   27.4820   44.4650 C   0  0  0  0  0  0  0  0  0  0  0  0
   57.8080   27.4480   43.1540 C   0  0  0  0  0  0  0  0  0  0  0  0
  1  2  1  0
  2  3  1  0
  3  4  1  0
  4  5  2  0
  4  6  1  0
  6  7  1  0
  7  8  2  0
  7  9  1  0
  9 10  1  0
 10 11  2  0
 11 12  1  0
 12 13  2  0
 13 14  1  0
 13 15  1  0
 15 16  1  0
 16 17  1  0
 17 18  1  0
 18 19  2  0
 19 20  1  0
 20 21  2  0
 21 22  1  0
 22 23  1  0
 23 24  2  0
 23 25  1  0
 25 26  1  0
 26 27  1  0
 27 28  1  0
 28 29  1  0
 22 30  2  0
 15 31  1  0
 31 32  2  0
  9  2  2  0
 31 11  1  0
 30 18  1  0
 29 25  1  0
M  CHG  2   3  -1   6  -1
M  END
>  <UniqueID>  (1664) 
22

>  <SMILES>  (1664) 
C=c1/c(=C\c2c(O)[n-]c(=O)[n-]c2=O)cc(C)n1CCc1cccc(C(=O)N2CCCC2)c1

>  <Energy>  (1664) 
102.03441290097317

>  <Genealogy>  (1664) 
C=c1c(=Cc2c(O)[n-]c(=O)[n-]c2=O)cc(C)n1CCc1cccc(C(=O)N2CCCC2)c1 (protonated)
C=c1/c(=C\c2c(O)[n-]c(=O)[n-]c2=O)cc(C)n1CCc1cccc(C(=O)N2CCCC2)c1 (cis-trans isomerization)
C=c1/c(=C\c2c(O)[n-]c(=O)[n-]c2=O)cc(C)n1CCc1cccc(C(=O)N2CCCC2)c1 (3D coordinates assigned)
C=c1/c(=C\c2c(O)[n-]c(=O)[n-]c2=O)cc(C)n1CCc1cccc(C(=O)N2CCCC2)c1 (nonaromatic ring conformer: 102.03441290097317 kcal/mol)

>  <smiles>  (1664) 
C=c1c(=Cc2c(O)[nH]c(=O)[nH]c2=O)cc(C)n1CCc1cccc(C(=O)N2CCCC2)c1

>  <score_type>  (1664) 
oracle

>  <origin>  (1664) 
adg

>  <m_score__min__energy>  (1664) 
-15.279999999999999

>  <m_primary>  (1664) 
energy

$$$$
29:0
     RDKit          3D

 19 20  0  0  0  0  0  0  0  0999 V2000
   55.3990   29.0070   44.4310 O   0  0  0  0  0  0  0  0  0  0  0  0
   56.4120   29.8890   44.8080 C   0  0  0  0  0  0  0  0  0  0  0  0
   56.1300   31.2180   44.8580 N   0  0  0  0  0  0  0  0  0  0  0  0
   57.0510   32.1450   45.2280 C   0  0  0  0  0  0  0  0  0  0  0  0
   56.7310   33.3620   45.2600 O   0  0  0  0  0  0  0  0  0  0  0  0
   58.3470   31.7430   45.5690 C   0  0  0  0  0  0  0  0  0  0  0  0
   59.6770   33.0180   46.0880 Br  0  0  0  0  0  0  0  0  0  0  0  0
   58.6720   30.3870   45.5190 C   0  0  0  0  0  0  0  0  0  0  0  0
   57.7050   29.4360   45.1550 C   0  0  0  0  0  0  0  0  0  0  0  0
   58.0630   28.0020   45.0690 C   0  0  0  0  0  0  0  0  0  0  0  0
   57.6560   27.0570   45.9310 C   0  0  0  0  0  0  0  0  0  0  0  0
   57.0220   25.7730   45.5500 C   0  0  0  0  0  0  0  0  0  0  0  0
   57.8000   24.6670   45.1590 C   0  0  0  0  0  0  0  0  0  0  0  0
   57.1890   23.4570   44.8190 C   0  0  0  0  0  0  0  0  0  0  0  0
   55.8000   23.3310   44.8870 C   0  0  0  0  0  0  0  0  0  0  0  0
   55.1940   22.1270   44.5490 O   0  0  0  0  0  0  0  0  0  0  0  0
   55.0190   24.4140   45.3000 C   0  0  0  0  0  0  0  0  0  0  0  0
   55.6240   25.6300   45.6370 C   0  0  0  0  0  0  0  0  0  0  0  0
   54.8290   26.6950   46.0460 O   0  0  0  0  0  0  0  0  0  0  0  0
  1  2  1  0
  2  3  1  0
  3  4  1  0
  4  5  2  0
  4  6  1  0
  6  7  1  0
  6  8  2  0
  8  9  1  0
  9 10  1  0
 10 11  2  0
 11 12  1  0
 12 13  2  0
 13 14  1  0
 14 15  2  0
 15 16  1  0
 15 17  1  0
 17 18  2  0
 18 19  1  0
  9  2  2  0
 18 12  1  0
M  CHG  3   3  -1  16  -1  19  -1
M  END
>  <UniqueID>  (1665) 
28

>  <SMILES>  (1665) 
O=c1[n-]c(O)c(/C=C\c2ccc([O-])cc2[O-])cc1Br

>  <Energy>  (1665) 
39.50082653564562

>  <Genealogy>  (1665) 
O=c1[n-]c(O)c(C=Cc2ccc([O-])cc2[O-])cc1Br (protonated)
O=c1[n-]c(O)c(/C=C\c2ccc([O-])cc2[O-])cc1Br (cis-trans isomerization)
O=c1[n-]c(O)c(/C=C\c2ccc([O-])cc2[O-])cc1Br (3D coordinates assigned)
O=c1[n-]c(O)c(/C=C\c2ccc([O-])cc2[O-])cc1Br (optimized conformer: 39.50082653564562 kcal/mol)

>  <smiles>  (1665) 
O=c1[nH]c(O)c(C=Cc2ccc(O)cc2O)cc1Br

>  <score_type>  (1665) 
oracle

>  <origin>  (1665) 
adg

>  <m_score__min__energy>  (1665) 
-15.27

>  <m_primary>  (1665) 
energy

$$$$
42:0
     RDKit          3D

 32 35  0  0  0  0  0  0  0  0999 V2000
   56.4050   29.3880   44.8680 C   0  0  0  0  0  0  0  0  0  0  0  0
   57.7010   29.1130   45.0830 C   0  0  0  0  0  0  0  0  0  0  0  0
   58.3130   27.8590   44.9890 C   0  0  0  0  0  0  0  0  0  0  0  0
   57.7240   26.6830   44.6940 C   0  0  0  0  0  0  0  0  0  0  0  0
   57.1790   25.7580   45.7030 C   0  0  0  0  0  0  0  0  0  0  0  0
   57.9080   24.7890   46.2850 N   0  0  0  0  0  0  0  0  0  0  0  0
   57.0550   24.2530   47.1860 C   0  0  0  0  0  0  0  0  0  0  0  0
   57.3740   23.2920   47.9320 O   0  0  0  0  0  0  0  0  0  0  0  0
   55.8390   24.8370   47.2320 N   0  0  0  0  0  0  0  0  0  0  0  0
   55.9360   25.7950   46.2980 C   0  0  0  0  0  0  0  0  0  0  0  0
   54.9270   26.7120   46.0300 O   0  0  0  0  0  0  0  0  0  0  0  0
   59.6480   28.0500   45.3270 C   0  0  0  0  0  0  0  0  0  0  0  0
   59.8000   29.3970   45.5880 C   0  0  0  0  0  0  0  0  0  0  0  0
   61.0780   30.0430   46.0300 C   0  0  0  0  0  0  0  0  0  0  0  0
   58.6230   30.0420   45.4410 N   0  0  0  0  0  0  0  0  0  0  0  0
   58.4030   31.4460   45.6610 C   0  0  0  0  0  0  0  0  0  0  0  0
   57.8780   32.2240   44.6190 C   0  0  0  0  0  0  0  0  0  0  0  0
   57.6920   33.5970   44.7840 C   0  0  0  0  0  0  0  0  0  0  0  0
   58.0270   34.2060   45.9930 C   0  0  0  0  0  0  0  0  0  0  0  0
   58.5450   33.4440   47.0430 C   0  0  0  0  0  0  0  0  0  0  0  0
   58.7370   32.0580   46.8950 C   0  0  0  0  0  0  0  0  0  0  0  0
   59.2520   31.2660   48.0360 C   0  0  0  0  0  0  0  0  0  0  0  0
   58.5320   30.3680   48.5500 O   0  0  0  0  0  0  0  0  0  0  0  0
   60.5620   31.5170   48.5650 N   0  0  0  0  0  0  0  0  0  0  0  0
   61.0410   30.8310   49.7650 C   0  0  0  0  0  0  0  0  0  0  0  0
   61.8940   31.7620   50.6400 C   0  0  0  0  0  0  0  0  0  0  0  0
   62.8770   32.5290   49.8420 N   0  0  0  0  0  0  0  0  0  0  0  0
   63.2350   31.8240   48.5870 C   0  0  0  0  0  0  0  0  0  0  0  0
   63.7240   32.8120   47.5150 C   0  0  0  0  0  0  0  0  0  0  0  0
   62.7510   33.7800   47.1460 O   0  0  0  0  0  0  0  0  0  0  0  0
   61.8320   34.0890   48.1850 C   0  0  0  0  0  0  0  0  0  0  0  0
   62.4150   33.9170   49.5990 C   0  0  0  0  0  0  0  0  0  0  0  0
  1  2  2  0
  2  3  1  0
  3  4  2  3
  4  5  1  0
  5  6  1  0
  6  7  1  0
  7  8  2  0
  7  9  1  0
  9 10  1  0
 10 11  1  0
  3 12  1  0
 12 13  2  0
 13 14  1  0
 13 15  1  0
 15 16  1  0
 16 17  2  0
 17 18  1  0
 18 19  2  0
 19 20  1  0
 20 21  2  0
 21 22  1  0
 22 23  2  0
 22 24  1  0
 24 25  1  0
 25 26  1  0
 26 27  1  0
 27 28  1  0
 28 29  1  0
 29 30  1  0
 30 31  1  0
 31 32  1  0
 15  2  1  0
 21 16  1  0
 32 27  1  0
 10  5  2  0
M  CHG  3   6  -1   9  -1  11  -1
M  END
>  <UniqueID>  (1666) 
40

>  <SMILES>  (1666) 
C=c1c(=Cc2[n-]c(=O)[n-]c2[O-])cc(C)n1-c1ccccc1C(=O)NCCN1CCOCC1

>  <Energy>  (1666) 
144.2511063874455

>  <Genealogy>  (1666) 
C=c1c(=Cc2[n-]c(=O)[n-]c2[O-])cc(C)n1-c1ccccc1C(=O)NCCN1CCOCC1 (protonated)
C=c1c(=Cc2[n-]c(=O)[n-]c2[O-])cc(C)n1-c1ccccc1C(=O)NCCN1CCOCC1 (3D coordinates assigned)
C=c1c(=Cc2[n-]c(=O)[n-]c2[O-])cc(C)n1-c1ccccc1C(=O)NCCN1CCOCC1 (nonaromatic ring conformer: 144.2511063874455 kcal/mol)

>  <smiles>  (1666) 
C=c1c(=Cc2[nH]c(=O)[nH]c2O)cc(C)n1-c1ccccc1C(=O)NCCN1CCOCC1

>  <score_type>  (1666) 
oracle

>  <origin>  (1666) 
adg

>  <m_score__min__energy>  (1666) 
-16.390000000000001

>  <m_primary>  (1666) 
energy

$$$$
48:0
     RDKit          3D

 35 39  0  0  0  0  0  0  0  0999 V2000
   55.0330   26.6910   46.0370 O   0  0  0  0  0  0  0  0  0  0  0  0
   55.9710   25.6660   46.1000 C   0  0  0  0  0  0  0  0  0  0  0  0
   55.8480   24.6040   46.9140 N   0  0  0  0  0  0  0  0  0  0  0  0
   56.9840   23.9140   46.6800 C   0  0  0  0  0  0  0  0  0  0  0  0
   57.2570   22.8360   47.2690 O   0  0  0  0  0  0  0  0  0  0  0  0
   57.8140   24.4790   45.7760 N   0  0  0  0  0  0  0  0  0  0  0  0
   57.1470   25.5800   45.3840 C   0  0  0  0  0  0  0  0  0  0  0  0
   57.6910   26.6060   44.4790 C   0  0  0  0  0  0  0  0  0  0  0  0
   57.8170   27.9160   44.7670 C   0  0  0  0  0  0  0  0  0  0  0  0
   57.0520   28.8950   44.1550 C   0  0  0  0  0  0  0  0  0  0  0  0
   57.3580   30.0880   44.7760 C   0  0  0  0  0  0  0  0  0  0  0  0
   56.7210   31.4040   44.4500 C   0  0  0  0  0  0  0  0  0  0  0  0
   58.3180   29.9000   45.7080 N   0  0  0  0  0  0  0  0  0  0  0  0
   58.8660   30.9160   46.5640 C   0  0  0  0  0  0  0  0  0  0  0  0
   59.0060   30.6700   47.9360 C   0  0  0  0  0  0  0  0  0  0  0  0
   59.4870   31.6670   48.7880 C   0  0  0  0  0  0  0  0  0  0  0  0
   59.8400   32.9290   48.2800 C   0  0  0  0  0  0  0  0  0  0  0  0
   60.2910   34.0110   49.1880 C   0  0  0  0  0  0  0  0  0  0  0  0
   59.5030   34.9450   49.4960 O   0  0  0  0  0  0  0  0  0  0  0  0
   61.6050   33.9940   49.7640 N   0  0  0  0  0  0  0  0  0  0  0  0
   62.7760   34.2900   48.9330 C   0  0  0  0  0  0  0  0  0  0  0  0
   63.9650   33.4230   49.3610 C   0  0  0  0  0  0  0  0  0  0  0  0
   64.1230   33.3780   50.8260 N   0  0  0  0  0  0  0  0  0  0  0  0
   65.2820   32.7350   51.4090 C   0  0  0  0  0  0  0  0  0  0  0  0
   65.4520   32.7500   52.6600 O   0  0  0  0  0  0  0  0  0  0  0  0
   66.3430   32.0970   50.5520 C   0  0  0  0  0  0  0  0  0  0  0  0
   67.4980   31.4530   51.3050 C   0  0  0  0  0  0  0  0  0  0  0  0
   67.6990   32.7890   50.6130 C   0  0  0  0  0  0  0  0  0  0  0  0
   63.1680   34.0970   51.6840 C   0  0  0  0  0  0  0  0  0  0  0  0
   61.7320   33.8480   51.2160 C   0  0  0  0  0  0  0  0  0  0  0  0
   59.7190   33.1640   46.8990 C   0  0  0  0  0  0  0  0  0  0  0  0
   59.2380   32.1660   46.0470 C   0  0  0  0  0  0  0  0  0  0  0  0
   59.1390   32.4130   44.7170 F   0  0  0  0  0  0  0  0  0  0  0  0
   58.6350   28.5810   45.6960 C   0  0  0  0  0  0  0  0  0  0  0  0
   59.6870   28.0760   46.3590 C   0  0  0  0  0  0  0  0  0  0  0  0
  1  2  1  0
  2  3  1  0
  3  4  1  0
  4  5  2  0
  4  6  1  0
  6  7  1  0
  7  8  1  0
  8  9  2  0
  9 10  1  0
 10 11  2  0
 11 12  1  0
 11 13  1  0
 13 14  1  0
 14 15  2  0
 15 16  1  0
 16 17  2  0
 17 18  1  0
 18 19  2  0
 18 20  1  0
 20 21  1  0
 21 22  1  0
 22 23  1  0
 23 24  1  0
 24 25  2  0
 24 26  1  0
 26 27  1  0
 27 28  1  0
 23 29  1  0
 29 30  1  0
 17 31  1  0
 31 32  2  0
 32 33  1  0
 13 34  1  0
 34 35  2  0
  7  2  2  0
 34  9  1  0
 32 14  1  0
 30 20  1  0
 28 26  1  0
M  CHG  2   3  -1   6  -1
M  END
>  <UniqueID>  (1667) 
45

>  <SMILES>  (1667) 
C=c1/c(=C\c2[n-]c(=O)[n-]c2O)cc(C)n1-c1ccc(C(=O)N2CCN(C(=O)C3CC3)CC2)cc1F

>  <Energy>  (1667) 
406.7179878338971

>  <Genealogy>  (1667) 
C=c1c(=Cc2[n-]c(=O)[n-]c2O)cc(C)n1-c1ccc(C(=O)N2CCN(C(=O)C3CC3)CC2)cc1F (protonated)
C=c1/c(=C\c2[n-]c(=O)[n-]c2O)cc(C)n1-c1ccc(C(=O)N2CCN(C(=O)C3CC3)CC2)cc1F (cis-trans isomerization)
C=c1/c(=C\c2[n-]c(=O)[n-]c2O)cc(C)n1-c1ccc(C(=O)N2CCN(C(=O)C3CC3)CC2)cc1F (3D coordinates assigned)
C=c1/c(=C\c2[n-]c(=O)[n-]c2O)cc(C)n1-c1ccc(C(=O)N2CCN(C(=O)C3CC3)CC2)cc1F (nonaromatic ring conformer: 406.7179878338971 kcal/mol)

>  <smiles>  (1667) 
C=c1c(=Cc2[nH]c(=O)[nH]c2O)cc(C)n1-c1ccc(C(=O)N2CCN(C(=O)C3CC3)CC2)cc1F

>  <score_type>  (1667) 
oracle

>  <origin>  (1667) 
adg

>  <m_score__min__energy>  (1667) 
-14.199999999999999

>  <m_primary>  (1667) 
energy

$$$$
50:0
     RDKit          3D

 32 34  0  0  0  0  0  0  0  0999 V2000
   60.4150   30.7440   46.4100 C   0  0  0  0  0  0  0  0  0  0  0  0
   59.2070   31.0400   45.8760 C   0  0  0  0  0  0  0  0  0  0  0  0
   58.7880   32.4010   45.8610 C   0  0  0  0  0  0  0  0  0  0  0  0
   59.5440   33.3830   46.5950 N   0  0  0  0  0  0  0  0  0  0  0  0
   59.4860   33.6070   48.0120 C   0  0  0  0  0  0  0  0  0  0  0  0
   59.2630   34.7750   48.4280 O   0  0  0  0  0  0  0  0  0  0  0  0
   59.6540   32.5140   48.9970 C   0  0  0  0  0  0  0  0  0  0  0  0
   58.5230   31.7680   49.3700 C   0  0  0  0  0  0  0  0  0  0  0  0
   58.6410   30.6890   50.2460 C   0  0  0  0  0  0  0  0  0  0  0  0
   59.8880   30.3490   50.7690 C   0  0  0  0  0  0  0  0  0  0  0  0
   61.0150   31.1040   50.4410 C   0  0  0  0  0  0  0  0  0  0  0  0
   60.9100   32.2070   49.5730 C   0  0  0  0  0  0  0  0  0  0  0  0
   62.0400   33.0560   49.3100 N   0  0  0  0  0  0  0  0  0  0  0  0
   63.2230   32.7950   48.0700 S   0  0  0  0  0  0  0  0  0  0  0  0
   62.8870   33.8700   46.6950 C   0  0  0  0  0  0  0  0  0  0  0  0
   63.1680   31.3660   47.6070 O   0  0  0  0  0  0  0  0  0  0  0  0
   64.5960   33.1110   48.5960 O   0  0  0  0  0  0  0  0  0  0  0  0
   57.6630   32.7860   45.0970 C   0  0  0  0  0  0  0  0  0  0  0  0
   57.2840   34.2260   44.8750 C   0  0  0  0  0  0  0  0  0  0  0  0
   56.8710   31.8060   44.5020 C   0  0  0  0  0  0  0  0  0  0  0  0
   57.1910   30.4610   44.6210 C   0  0  0  0  0  0  0  0  0  0  0  0
   58.3550   30.0350   45.2990 C   0  0  0  0  0  0  0  0  0  0  0  0
   58.5930   28.7040   45.4580 C   0  0  0  0  0  0  0  0  0  0  0  0
   57.5970   27.6940   45.8760 C   0  0  0  0  0  0  0  0  0  0  0  0
   56.2710   27.7940   45.6280 N   0  0  0  0  0  0  0  0  0  0  0  0
   55.7420   26.6320   46.0570 C   0  0  0  0  0  0  0  0  0  0  0  0
   54.3860   26.3390   45.9820 O   0  0  0  0  0  0  0  0  0  0  0  0
   56.7090   25.7870   46.5550 C   0  0  0  0  0  0  0  0  0  0  0  0
   56.5040   24.4560   47.0630 C   0  0  0  0  0  0  0  0  0  0  0  0
   56.3390   23.3870   47.4730 N   0  0  0  0  0  0  0  0  0  0  0  0
   57.9050   26.4640   46.4400 C   0  0  0  0  0  0  0  0  0  0  0  0
   59.2720   25.9470   46.7750 C   0  0  0  0  0  0  0  0  0  0  0  0
  1  2  2  0
  2  3  1  0
  3  4  1  0
  4  5  1  0
  5  6  2  0
  5  7  1  0
  7  8  2  0
  8  9  1  0
  9 10  2  0
 10 11  1  0
 11 12  2  0
 12 13  1  0
 13 14  1  0
 14 15  1  0
 14 16  2  0
 14 17  2  0
  3 18  2  0
 18 19  1  0
 18 20  1  0
 20 21  2  0
 21 22  1  0
 22 23  2  3
 23 24  1  0
 24 25  1  0
 25 26  1  0
 26 27  1  0
 26 28  2  0
 28 29  1  0
 29 30  3  0
 28 31  1  0
 31 32  1  0
 22  2  1  0
 31 24  2  0
 12  7  1  0
M  CHG  4   4  -1  13  -1  25  -1  27  -1
M  END
>  <UniqueID>  (1668) 
47

>  <SMILES>  (1668) 
C=c1c([N-]C(=O)c2ccccc2[N-]S(C)(=O)=O)c(C)ccc1=Cc1[n-]c([O-])c(C#N)c1C

>  <Energy>  (1668) 
103.95105339764075

>  <Genealogy>  (1668) 
C=c1c([N-]C(=O)c2ccccc2[N-]S(C)(=O)=O)c(C)ccc1=Cc1[n-]c([O-])c(C#N)c1C (protonated)
C=c1c([N-]C(=O)c2ccccc2[N-]S(C)(=O)=O)c(C)ccc1=Cc1[n-]c([O-])c(C#N)c1C (3D coordinates assigned)
C=c1c([N-]C(=O)c2ccccc2[N-]S(C)(=O)=O)c(C)ccc1=Cc1[n-]c([O-])c(C#N)c1C (optimized conformer: 103.95105339764075 kcal/mol)

>  <smiles>  (1668) 
C=c1c(NC(=O)c2ccccc2NS(C)(=O)=O)c(C)ccc1=Cc1[nH]c(O)c(C#N)c1C

>  <score_type>  (1668) 
oracle

>  <origin>  (1668) 
adg

>  <m_score__min__energy>  (1668) 
-17.239999999999998

>  <m_primary>  (1668) 
energy

$$$$
53:0
     RDKit          3D

 32 34  0  0  0  0  0  0  0  0999 V2000
   63.0270   33.4850   51.8830 C   0  0  0  0  0  0  0  0  0  0  0  0
   64.3050   32.7730   51.9930 N   0  0  0  0  0  0  0  0  0  0  0  0
   65.4180   33.7280   51.9430 C   0  0  0  0  0  0  0  0  0  0  0  0
   64.4570   31.6390   50.6750 S   0  0  0  0  0  0  0  0  0  0  0  0
   63.7210   30.3700   51.0080 O   0  0  0  0  0  0  0  0  0  0  0  0
   65.9050   31.3040   50.4430 O   0  0  0  0  0  0  0  0  0  0  0  0
   63.7580   32.3250   49.2110 C   0  0  0  0  0  0  0  0  0  0  0  0
   64.3330   33.4510   48.6060 C   0  0  0  0  0  0  0  0  0  0  0  0
   63.7540   34.0040   47.4620 C   0  0  0  0  0  0  0  0  0  0  0  0
   62.6040   33.4350   46.9110 C   0  0  0  0  0  0  0  0  0  0  0  0
   62.0240   32.2970   47.4960 C   0  0  0  0  0  0  0  0  0  0  0  0
   60.8290   31.7400   46.9240 N   0  0  0  0  0  0  0  0  0  0  0  0
   59.7300   32.5320   46.4420 C   0  0  0  0  0  0  0  0  0  0  0  0
   59.5900   33.7190   46.8480 O   0  0  0  0  0  0  0  0  0  0  0  0
   58.7270   31.9570   45.5140 C   0  0  0  0  0  0  0  0  0  0  0  0
   58.3320   32.6710   44.3680 C   0  0  0  0  0  0  0  0  0  0  0  0
   57.3960   32.1300   43.4840 C   0  0  0  0  0  0  0  0  0  0  0  0
   56.8430   30.8730   43.7300 C   0  0  0  0  0  0  0  0  0  0  0  0
   57.2140   30.1500   44.8750 C   0  0  0  0  0  0  0  0  0  0  0  0
   56.6800   28.8450   45.1490 N   0  0  0  0  0  0  0  0  0  0  0  0
   57.2580   27.5930   44.7540 C   0  0  0  0  0  0  0  0  0  0  0  0
   57.8940   27.5380   43.6690 O   0  0  0  0  0  0  0  0  0  0  0  0
   57.1570   26.3780   45.5950 C   0  0  0  0  0  0  0  0  0  0  0  0
   58.3070   25.6170   45.8580 C   0  0  0  0  0  0  0  0  0  0  0  0
   58.2230   24.4610   46.6330 C   0  0  0  0  0  0  0  0  0  0  0  0
   56.9870   24.0770   47.1560 C   0  0  0  0  0  0  0  0  0  0  0  0
   56.8930   23.0340   47.8550 O   0  0  0  0  0  0  0  0  0  0  0  0
   55.8840   24.8320   46.9160 N   0  0  0  0  0  0  0  0  0  0  0  0
   55.9360   25.9640   46.1650 C   0  0  0  0  0  0  0  0  0  0  0  0
   54.7770   26.7130   45.9900 O   0  0  0  0  0  0  0  0  0  0  0  0
   58.1700   30.6860   45.7480 C   0  0  0  0  0  0  0  0  0  0  0  0
   62.5990   31.7590   48.6630 C   0  0  0  0  0  0  0  0  0  0  0  0
  1  2  1  0
  2  3  1  0
  2  4  1  0
  4  5  2  0
  4  6  2  0
  4  7  1  0
  7  8  2  0
  8  9  1  0
  9 10  2  0
 10 11  1  0
 11 12  1  0
 12 13  1  0
 13 14  2  0
 13 15  1  0
 15 16  2  0
 16 17  1  0
 17 18  2  0
 18 19  1  0
 19 20  1  0
 20 21  1  0
 21 22  2  0
 21 23  1  0
 23 24  1  0
 24 25  2  0
 25 26  1  0
 26 27  2  0
 26 28  1  0
 28 29  1  0
 29 30  1  0
 19 31  2  0
 11 32  2  0
 32  7  1  0
 31 15  1  0
 29 23  2  0
M  CHG  3  20  -1  28  -1  30  -1
M  END
>  <UniqueID>  (1669) 
50

>  <SMILES>  (1669) 
CN(C)S(=O)(=O)c1cccc(NC(=O)c2cccc([N-]C(=O)c3ccc(=O)[n-]c3[O-])c2)c1

>  <Energy>  (1669) 
64.2494581782091

>  <Genealogy>  (1669) 
CN(C)S(=O)(=O)c1cccc(NC(=O)c2cccc([N-]C(=O)c3ccc(=O)[n-]c3[O-])c2)c1 (protonated)
CN(C)S(=O)(=O)c1cccc(NC(=O)c2cccc([N-]C(=O)c3ccc(=O)[n-]c3[O-])c2)c1 (3D coordinates assigned)
CN(C)S(=O)(=O)c1cccc(NC(=O)c2cccc([N-]C(=O)c3ccc(=O)[n-]c3[O-])c2)c1 (optimized conformer: 64.2494581782091 kcal/mol)

>  <smiles>  (1669) 
CN(C)S(=O)(=O)c1cccc(NC(=O)c2cccc(NC(=O)c3ccc(=O)[nH]c3O)c2)c1

>  <score_type>  (1669) 
oracle

>  <origin>  (1669) 
adg

>  <m_score__min__energy>  (1669) 
-17.600000000000001

>  <m_primary>  (1669) 
energy

$$$$
55:0
     RDKit          3D

 33 37  0  0  0  0  0  0  0  0999 V2000
   57.7390   25.4000   47.3610 C   0  0  0  0  0  0  0  0  0  0  0  0
   57.9050   26.1610   46.2680 C   0  0  0  0  0  0  0  0  0  0  0  0
   57.5330   25.8510   44.9480 C   0  0  0  0  0  0  0  0  0  0  0  0
   56.8000   24.8370   44.4500 C   0  0  0  0  0  0  0  0  0  0  0  0
   55.4350   24.4810   44.8660 C   0  0  0  0  0  0  0  0  0  0  0  0
   54.5810   25.2640   45.6100 C   0  0  0  0  0  0  0  0  0  0  0  0
   54.8120   26.5790   45.9890 O   0  0  0  0  0  0  0  0  0  0  0  0
   53.4720   24.5740   45.9380 N   0  0  0  0  0  0  0  0  0  0  0  0
   53.7030   23.3590   45.3940 C   0  0  0  0  0  0  0  0  0  0  0  0
   52.8910   22.4020   45.4890 O   0  0  0  0  0  0  0  0  0  0  0  0
   54.8830   23.2610   44.7510 N   0  0  0  0  0  0  0  0  0  0  0  0
   58.0650   26.8520   44.1500 C   0  0  0  0  0  0  0  0  0  0  0  0
   58.6820   27.7510   44.9950 C   0  0  0  0  0  0  0  0  0  0  0  0
   59.3640   29.0090   44.5510 C   0  0  0  0  0  0  0  0  0  0  0  0
   58.5770   27.3420   46.2770 N   0  0  0  0  0  0  0  0  0  0  0  0
   59.1540   28.0110   47.4110 C   0  0  0  0  0  0  0  0  0  0  0  0
   60.0810   27.3480   48.2260 C   0  0  0  0  0  0  0  0  0  0  0  0
   60.6570   28.0080   49.3120 C   0  0  0  0  0  0  0  0  0  0  0  0
   60.3190   29.3350   49.5870 C   0  0  0  0  0  0  0  0  0  0  0  0
   59.4000   30.0200   48.7730 C   0  0  0  0  0  0  0  0  0  0  0  0
   59.0450   31.4350   49.0510 C   0  0  0  0  0  0  0  0  0  0  0  0
   58.1900   31.7090   49.9360 O   0  0  0  0  0  0  0  0  0  0  0  0
   59.6810   32.5120   48.3460 N   0  0  0  0  0  0  0  0  0  0  0  0
   59.0600   33.1420   47.1990 C   0  0  0  0  0  0  0  0  0  0  0  0
   57.7790   32.7780   46.7410 C   0  0  0  0  0  0  0  0  0  0  0  0
   57.2440   33.3770   45.5960 C   0  0  0  0  0  0  0  0  0  0  0  0
   57.9740   34.3450   44.9040 C   0  0  0  0  0  0  0  0  0  0  0  0
   59.2350   34.7310   45.3630 C   0  0  0  0  0  0  0  0  0  0  0  0
   59.7680   34.1490   46.5170 C   0  0  0  0  0  0  0  0  0  0  0  0
   61.0110   34.5660   46.9980 O   0  0  0  0  0  0  0  0  0  0  0  0
   61.4330   34.2520   48.3230 C   0  0  0  0  0  0  0  0  0  0  0  0
   61.0870   32.8000   48.6630 C   0  0  0  0  0  0  0  0  0  0  0  0
   58.8180   29.3440   47.6850 C   0  0  0  0  0  0  0  0  0  0  0  0
  1  2  2  0
  2  3  1  0
  3  4  2  0
  4  5  1  0
  5  6  2  0
  6  7  1  0
  6  8  1  0
  8  9  1  0
  9 10  2  0
  9 11  1  0
  3 12  1  0
 12 13  2  0
 13 14  1  0
 13 15  1  0
 15 16  1  0
 16 17  2  0
 17 18  1  0
 18 19  2  0
 19 20  1  0
 20 21  1  0
 21 22  2  0
 21 23  1  0
 23 24  1  0
 24 25  2  0
 25 26  1  0
 26 27  2  0
 27 28  1  0
 28 29  2  0
 29 30  1  0
 30 31  1  0
 31 32  1  0
 20 33  2  0
 15  2  1  0
 33 16  1  0
 11  5  1  0
 32 23  1  0
 29 24  1  0
M  CHG  2   7  -1   8  -1
M  END
>  <UniqueID>  (1670) 
52

>  <SMILES>  (1670) 
C=c1/c(=C\c2[nH]c(=O)[n-]c2[O-])cc(C)n1-c1cccc(C(=O)N2CCOc3ccccc32)c1

>  <Energy>  (1670) 
144.42092884011188

>  <Genealogy>  (1670) 
C=c1c(=Cc2[nH]c(=O)[n-]c2[O-])cc(C)n1-c1cccc(C(=O)N2CCOc3ccccc32)c1 (protonated)
C=c1/c(=C\c2[nH]c(=O)[n-]c2[O-])cc(C)n1-c1cccc(C(=O)N2CCOc3ccccc32)c1 (cis-trans isomerization)
C=c1/c(=C\c2[nH]c(=O)[n-]c2[O-])cc(C)n1-c1cccc(C(=O)N2CCOc3ccccc32)c1 (3D coordinates assigned)
C=c1/c(=C\c2[nH]c(=O)[n-]c2[O-])cc(C)n1-c1cccc(C(=O)N2CCOc3ccccc32)c1 (nonaromatic ring conformer: 144.42092884011188 kcal/mol)

>  <smiles>  (1670) 
C=c1c(=Cc2[nH]c(=O)[nH]c2O)cc(C)n1-c1cccc(C(=O)N2CCOc3ccccc32)c1

>  <score_type>  (1670) 
oracle

>  <origin>  (1670) 
adg

>  <m_score__min__energy>  (1670) 
-16.280000000000001

>  <m_primary>  (1670) 
energy

$$$$
64:0
     RDKit          3D

 25 27  0  0  0  0  0  0  0  0999 V2000
   57.4480   30.7790   44.5140 C   0  0  0  0  0  0  0  0  0  0  0  0
   57.3160   31.9020   45.1610 N   0  0  0  0  0  0  0  0  0  0  0  0
   58.3710   32.7720   45.6060 C   0  0  0  0  0  0  0  0  0  0  0  0
   58.3650   34.1460   45.3070 C   0  0  0  0  0  0  0  0  0  0  0  0
   59.3850   34.9730   45.7850 C   0  0  0  0  0  0  0  0  0  0  0  0
   60.4080   34.4400   46.5730 C   0  0  0  0  0  0  0  0  0  0  0  0
   60.4150   33.0750   46.8930 C   0  0  0  0  0  0  0  0  0  0  0  0
   61.7160   32.3990   47.8770 S   0  0  0  0  0  0  0  0  0  0  0  0
   62.4050   33.5110   48.6180 O   0  0  0  0  0  0  0  0  0  0  0  0
   62.7260   31.7430   46.9780 O   0  0  0  0  0  0  0  0  0  0  0  0
   61.1120   31.2320   49.0310 N   0  0  0  0  0  0  0  0  0  0  0  0
   60.0820   31.8200   49.9150 C   0  0  0  0  0  0  0  0  0  0  0  0
   58.6650   31.3480   49.5440 C   0  0  0  0  0  0  0  0  0  0  0  0
   58.5120   29.9360   49.6010 O   0  0  0  0  0  0  0  0  0  0  0  0
   59.6830   29.2170   49.2290 C   0  0  0  0  0  0  0  0  0  0  0  0
   60.6520   30.0120   48.3390 C   0  0  0  0  0  0  0  0  0  0  0  0
   59.3810   32.2500   46.4230 C   0  0  0  0  0  0  0  0  0  0  0  0
   57.4490   29.4510   45.1620 C   0  0  0  0  0  0  0  0  0  0  0  0
   58.6570   28.9290   45.6450 C   0  0  0  0  0  0  0  0  0  0  0  0
   58.6870   27.6780   46.2670 C   0  0  0  0  0  0  0  0  0  0  0  0
   57.5140   26.9320   46.3970 C   0  0  0  0  0  0  0  0  0  0  0  0
   56.3080   27.4270   45.8880 C   0  0  0  0  0  0  0  0  0  0  0  0
   55.1490   26.6700   46.0040 O   0  0  0  0  0  0  0  0  0  0  0  0
   56.2730   28.6770   45.2590 C   0  0  0  0  0  0  0  0  0  0  0  0
   55.0770   29.1340   44.7130 O   0  0  0  0  0  0  0  0  0  0  0  0
  1  2  2  0
  2  3  1  0
  3  4  2  0
  4  5  1  0
  5  6  2  0
  6  7  1  0
  7  8  1  0
  8  9  2  0
  8 10  2  0
  8 11  1  0
 11 12  1  0
 12 13  1  0
 13 14  1  0
 14 15  1  0
 15 16  1  0
  7 17  2  0
  1 18  1  0
 18 19  2  0
 19 20  1  0
 20 21  2  0
 21 22  1  0
 22 23  1  0
 22 24  2  0
 24 25  1  0
 17  3  1  0
 24 18  1  0
 16 11  1  0
M  CHG  2  23  -1  25  -1
M  END
>  <UniqueID>  (1671) 
61

>  <SMILES>  (1671) 
O=S(=O)(c1cccc(/N=C\c2cccc([O-])c2[O-])c1)N1CCOCC1

>  <Energy>  (1671) 
66.32745673105343

>  <Genealogy>  (1671) 
O=S(=O)(c1cccc(N=Cc2cccc([O-])c2[O-])c1)N1CCOCC1 (protonated)
O=S(=O)(c1cccc(/N=C\c2cccc([O-])c2[O-])c1)N1CCOCC1 (cis-trans isomerization)
O=S(=O)(c1cccc(/N=C\c2cccc([O-])c2[O-])c1)N1CCOCC1 (3D coordinates assigned)
O=S(=O)(c1cccc(/N=C\c2cccc([O-])c2[O-])c1)N1CCOCC1 (nonaromatic ring conformer: 66.32745673105343 kcal/mol)

>  <smiles>  (1671) 
O=S(=O)(c1cccc(N=Cc2cccc(O)c2O)c1)N1CCOCC1

>  <score_type>  (1671) 
oracle

>  <origin>  (1671) 
adg

>  <m_score__min__energy>  (1671) 
-16.859999999999999

>  <m_primary>  (1671) 
energy

$$$$
79:0
     RDKit          3D

 25 27  0  0  0  0  0  0  0  0999 V2000
   59.4670   28.1720   47.1580 C   0  0  0  0  0  0  0  0  0  0  0  0
   58.9830   28.8880   46.1310 C   0  0  0  0  0  0  0  0  0  0  0  0
   58.0420   28.4740   45.1760 C   0  0  0  0  0  0  0  0  0  0  0  0
   57.5560   27.2510   44.8850 C   0  0  0  0  0  0  0  0  0  0  0  0
   57.1780   26.2260   45.8720 C   0  0  0  0  0  0  0  0  0  0  0  0
   58.0030   25.2710   46.3420 N   0  0  0  0  0  0  0  0  0  0  0  0
   57.1900   24.4990   47.0950 C   0  0  0  0  0  0  0  0  0  0  0  0
   57.6030   23.4920   47.7240 O   0  0  0  0  0  0  0  0  0  0  0  0
   55.8950   24.8860   47.1090 N   0  0  0  0  0  0  0  0  0  0  0  0
   55.9050   25.9720   46.3190 C   0  0  0  0  0  0  0  0  0  0  0  0
   54.7710   26.7100   46.0080 O   0  0  0  0  0  0  0  0  0  0  0  0
   57.6560   29.6170   44.4910 C   0  0  0  0  0  0  0  0  0  0  0  0
   58.4160   30.6550   44.9880 C   0  0  0  0  0  0  0  0  0  0  0  0
   58.3220   32.0800   44.5340 C   0  0  0  0  0  0  0  0  0  0  0  0
   59.2230   30.2140   45.9760 N   0  0  0  0  0  0  0  0  0  0  0  0
   60.1020   31.0360   46.7650 C   0  0  0  0  0  0  0  0  0  0  0  0
   61.4770   30.7830   46.7610 C   0  0  0  0  0  0  0  0  0  0  0  0
   62.3190   31.5630   47.4850 N   0  0  0  0  0  0  0  0  0  0  0  0
   61.8820   32.6100   48.2390 C   0  0  0  0  0  0  0  0  0  0  0  0
   62.8410   33.4020   48.9810 N   0  0  0  0  0  0  0  0  0  0  0  0
   62.3650   34.5550   49.7530 C   0  0  0  0  0  0  0  0  0  0  0  0
   64.2720   33.0730   48.9730 C   0  0  0  0  0  0  0  0  0  0  0  0
   60.5020   32.8930   48.2730 C   0  0  0  0  0  0  0  0  0  0  0  0
   59.6030   32.0950   47.5470 C   0  0  0  0  0  0  0  0  0  0  0  0
   58.1310   32.4030   47.5850 C   0  0  0  0  0  0  0  0  0  0  0  0
  1  2  2  0
  2  3  1  0
  3  4  2  0
  4  5  1  0
  5  6  1  0
  6  7  1  0
  7  8  2  0
  7  9  1  0
  9 10  1  0
 10 11  1  0
  3 12  1  0
 12 13  2  0
 13 14  1  0
 13 15  1  0
 15 16  1  0
 16 17  2  0
 17 18  1  0
 18 19  2  0
 19 20  1  0
 20 21  1  0
 20 22  1  0
 19 23  1  0
 23 24  2  0
 24 25  1  0
 15  2  1  0
 24 16  1  0
 10  5  2  0
M  CHG  3   6  -1   9  -1  11  -1
M  END
>  <UniqueID>  (1672) 
74

>  <SMILES>  (1672) 
C=c1/c(=C\c2[n-]c(=O)[n-]c2[O-])cc(C)n1-c1cnc(N(C)C)cc1C

>  <Energy>  (1672) 
118.81093867670202

>  <Genealogy>  (1672) 
C=c1c(=Cc2[n-]c(=O)[n-]c2[O-])cc(C)n1-c1cnc(N(C)C)cc1C (protonated)
C=c1/c(=C\c2[n-]c(=O)[n-]c2[O-])cc(C)n1-c1cnc(N(C)C)cc1C (cis-trans isomerization)
C=c1/c(=C\c2[n-]c(=O)[n-]c2[O-])cc(C)n1-c1cnc(N(C)C)cc1C (3D coordinates assigned)
C=c1/c(=C\c2[n-]c(=O)[n-]c2[O-])cc(C)n1-c1cnc(N(C)C)cc1C (optimized conformer: 118.81093867670202 kcal/mol)

>  <smiles>  (1672) 
C=c1c(=Cc2[nH]c(=O)[nH]c2O)cc(C)n1-c1cnc(N(C)C)cc1C

>  <score_type>  (1672) 
oracle

>  <origin>  (1672) 
adg

>  <m_score__min__energy>  (1672) 
-14.9

>  <m_primary>  (1672) 
energy

$$$$
80:0
     RDKit          3D

 25 27  0  0  0  0  0  0  0  0999 V2000
   58.8190   28.7930   47.4710 C   0  0  0  0  0  0  0  0  0  0  0  0
   58.1480   29.4420   46.5060 C   0  0  0  0  0  0  0  0  0  0  0  0
   57.4470   28.8760   45.4290 C   0  0  0  0  0  0  0  0  0  0  0  0
   57.3820   27.6060   44.9780 C   0  0  0  0  0  0  0  0  0  0  0  0
   57.2750   26.4020   45.8240 C   0  0  0  0  0  0  0  0  0  0  0  0
   56.0250   25.9770   46.2940 C   0  0  0  0  0  0  0  0  0  0  0  0
   54.8770   26.7090   46.0140 O   0  0  0  0  0  0  0  0  0  0  0  0
   55.9290   24.8440   47.0380 N   0  0  0  0  0  0  0  0  0  0  0  0
   57.0270   24.0980   47.3260 C   0  0  0  0  0  0  0  0  0  0  0  0
   56.9140   23.0560   48.0200 O   0  0  0  0  0  0  0  0  0  0  0  0
   58.2460   24.4740   46.8580 N   0  0  0  0  0  0  0  0  0  0  0  0
   58.3940   25.5970   46.1100 C   0  0  0  0  0  0  0  0  0  0  0  0
   59.5360   25.9030   45.6740 O   0  0  0  0  0  0  0  0  0  0  0  0
   56.7980   29.9580   44.8440 C   0  0  0  0  0  0  0  0  0  0  0  0
   55.9170   29.9320   43.6340 C   0  0  0  0  0  0  0  0  0  0  0  0
   57.1290   31.0920   45.4820 N   0  0  0  0  0  0  0  0  0  0  0  0
   57.9410   30.7860   46.4820 N   0  0  0  0  0  0  0  0  0  0  0  0
   58.5180   31.8240   47.3420 C   0  0  0  0  0  0  0  0  0  0  0  0
   59.1480   32.8970   46.4990 C   0  0  0  0  0  0  0  0  0  0  0  0
   58.5250   33.8360   45.6970 C   0  0  0  0  0  0  0  0  0  0  0  0
   57.0580   33.9810   45.4550 C   0  0  0  0  0  0  0  0  0  0  0  0
   59.4480   34.6850   45.2030 N   0  0  0  0  0  0  0  0  0  0  0  0
   60.6040   34.3050   45.6660 O   0  0  0  0  0  0  0  0  0  0  0  0
   60.4820   33.2540   46.4450 C   0  0  0  0  0  0  0  0  0  0  0  0
   61.6210   32.5940   47.1480 C   0  0  0  0  0  0  0  0  0  0  0  0
  1  2  2  0
  2  3  1  0
  3  4  2  0
  4  5  1  0
  5  6  2  0
  6  7  1  0
  6  8  1  0
  8  9  1  0
  9 10  2  0
  9 11  1  0
 11 12  1  0
 12 13  2  0
  3 14  1  0
 14 15  1  0
 14 16  2  0
 16 17  1  0
 17 18  1  0
 18 19  1  0
 19 20  1  0
 20 21  1  0
 20 22  2  0
 22 23  1  0
 23 24  1  0
 24 25  1  0
 17  2  1  0
 24 19  2  0
 12  5  1  0
M  CHG  3   7  -1   8  -1  11  -1
M  END
>  <UniqueID>  (1673) 
75

>  <SMILES>  (1673) 
C=c1/c(=C\c2c([O-])[n-]c(=O)[n-]c2=O)c(C)nn1Cc1c(C)noc1C

>  <Energy>  (1673) 
114.94322057041684

>  <Genealogy>  (1673) 
C=c1c(=Cc2c([O-])[n-]c(=O)[n-]c2=O)c(C)nn1Cc1c(C)noc1C (protonated)
C=c1/c(=C\c2c([O-])[n-]c(=O)[n-]c2=O)c(C)nn1Cc1c(C)noc1C (cis-trans isomerization)
C=c1/c(=C\c2c([O-])[n-]c(=O)[n-]c2=O)c(C)nn1Cc1c(C)noc1C (3D coordinates assigned)
C=c1/c(=C\c2c([O-])[n-]c(=O)[n-]c2=O)c(C)nn1Cc1c(C)noc1C (optimized conformer: 114.94322057041684 kcal/mol)

>  <smiles>  (1673) 
C=c1c(=Cc2c(O)[nH]c(=O)[nH]c2=O)c(C)nn1Cc1c(C)noc1C

>  <score_type>  (1673) 
oracle

>  <origin>  (1673) 
adg

>  <m_score__min__energy>  (1673) 
-15.93

>  <m_primary>  (1673) 
energy

$$$$
81:0
     RDKit          3D

 29 32  0  0  0  0  0  0  0  0999 V2000
   59.3220   30.3090   46.3660 C   0  0  0  0  0  0  0  0  0  0  0  0
   58.7030   31.0840   45.4610 C   0  0  0  0  0  0  0  0  0  0  0  0
   58.7040   32.4880   45.4110 C   0  0  0  0  0  0  0  0  0  0  0  0
   59.1270   33.4040   46.3040 C   0  0  0  0  0  0  0  0  0  0  0  0
   60.5060   33.5530   46.7910 C   0  0  0  0  0  0  0  0  0  0  0  0
   61.5490   33.8470   45.9930 N   0  0  0  0  0  0  0  0  0  0  0  0
   62.5860   33.9630   46.8510 C   0  0  0  0  0  0  0  0  0  0  0  0
   63.7640   34.1690   46.4530 O   0  0  0  0  0  0  0  0  0  0  0  0
   62.2460   33.8160   48.1570 N   0  0  0  0  0  0  0  0  0  0  0  0
   63.1410   33.7230   49.3310 C   0  0  0  0  0  0  0  0  0  0  0  0
   63.5650   32.2890   49.6410 C   0  0  0  0  0  0  0  0  0  0  0  0
   63.8770   32.2530   51.1320 C   0  0  0  0  0  0  0  0  0  0  0  0
   63.2190   33.4830   51.7500 C   0  0  0  0  0  0  0  0  0  0  0  0
   62.4770   34.1910   50.6250 C   0  0  0  0  0  0  0  0  0  0  0  0
   60.9270   33.5350   48.1030 C   0  0  0  0  0  0  0  0  0  0  0  0
   60.1220   33.2640   49.2040 O   0  0  0  0  0  0  0  0  0  0  0  0
   58.1280   32.8330   44.2030 C   0  0  0  0  0  0  0  0  0  0  0  0
   57.7370   31.6600   43.5940 C   0  0  0  0  0  0  0  0  0  0  0  0
   57.0420   31.5890   42.2670 C   0  0  0  0  0  0  0  0  0  0  0  0
   58.0790   30.5930   44.3560 N   0  0  0  0  0  0  0  0  0  0  0  0
   57.7930   29.1820   44.0430 C   0  0  0  0  0  0  0  0  0  0  0  0
   56.6990   28.6190   44.9620 C   0  0  0  0  0  0  0  0  0  0  0  0
   57.1060   27.2960   45.5620 C   0  0  0  0  0  0  0  0  0  0  0  0
   58.4690   26.9690   45.6690 C   0  0  0  0  0  0  0  0  0  0  0  0
   58.8630   25.7690   46.2680 C   0  0  0  0  0  0  0  0  0  0  0  0
   57.9010   24.8860   46.7650 C   0  0  0  0  0  0  0  0  0  0  0  0
   56.5450   25.2030   46.6690 C   0  0  0  0  0  0  0  0  0  0  0  0
   56.1420   26.4050   46.0750 C   0  0  0  0  0  0  0  0  0  0  0  0
   54.7870   26.7090   46.0060 O   0  0  0  0  0  0  0  0  0  0  0  0
  1  2  2  0
  2  3  1  0
  3  4  2  3
  4  5  1  0
  5  6  1  0
  6  7  1  0
  7  8  2  0
  7  9  1  0
  9 10  1  0
 10 11  1  0
 11 12  1  0
 12 13  1  0
 13 14  1  0
  9 15  1  0
 15 16  1  0
  3 17  1  0
 17 18  2  0
 18 19  1  0
 18 20  1  0
 20 21  1  0
 21 22  1  0
 22 23  1  0
 23 24  2  0
 24 25  1  0
 25 26  2  0
 26 27  1  0
 27 28  2  0
 28 29  1  0
 20  2  1  0
 28 23  1  0
 15  5  2  0
 14 10  1  0
M  CHG  3   6  -1  16  -1  29  -1
M  END
>  <UniqueID>  (1674) 
76

>  <SMILES>  (1674) 
C=c1c(=Cc2[n-]c(=O)n(C3CCCC3)c2[O-])cc(C)n1CCc1ccccc1[O-]

>  <Energy>  (1674) 
127.65127930313928

>  <Genealogy>  (1674) 
C=c1c(=Cc2[n-]c(=O)n(C3CCCC3)c2[O-])cc(C)n1CCc1ccccc1[O-] (protonated)
C=c1c(=Cc2[n-]c(=O)n(C3CCCC3)c2[O-])cc(C)n1CCc1ccccc1[O-] (3D coordinates assigned)
C=c1c(=Cc2[n-]c(=O)n(C3CCCC3)c2[O-])cc(C)n1CCc1ccccc1[O-] (nonaromatic ring conformer: 127.65127930313928 kcal/mol)

>  <smiles>  (1674) 
C=c1c(=Cc2[nH]c(=O)n(C3CCCC3)c2O)cc(C)n1CCc1ccccc1O

>  <score_type>  (1674) 
oracle

>  <origin>  (1674) 
adg

>  <m_score__min__energy>  (1674) 
-14.69

>  <m_primary>  (1674) 
energy

$$$$
82:0
     RDKit          3D

 30 33  0  0  0  0  0  0  0  0999 V2000
   57.4080   28.5620   43.6910 C   0  0  0  0  0  0  0  0  0  0  0  0
   57.6750   28.1500   44.9420 C   0  0  0  0  0  0  0  0  0  0  0  0
   57.6270   26.8260   45.3920 C   0  0  0  0  0  0  0  0  0  0  0  0
   57.3510   25.7210   44.6710 C   0  0  0  0  0  0  0  0  0  0  0  0
   56.1580   24.8750   44.8980 C   0  0  0  0  0  0  0  0  0  0  0  0
   55.0490   25.3940   45.5830 C   0  0  0  0  0  0  0  0  0  0  0  0
   55.0420   26.7140   46.0230 O   0  0  0  0  0  0  0  0  0  0  0  0
   53.9650   24.6100   45.8130 N   0  0  0  0  0  0  0  0  0  0  0  0
   53.9350   23.3170   45.4020 C   0  0  0  0  0  0  0  0  0  0  0  0
   52.9170   22.6110   45.6220 O   0  0  0  0  0  0  0  0  0  0  0  0
   55.0050   22.7820   44.7620 N   0  0  0  0  0  0  0  0  0  0  0  0
   56.1150   23.5230   44.5100 C   0  0  0  0  0  0  0  0  0  0  0  0
   57.1020   22.9830   43.9440 O   0  0  0  0  0  0  0  0  0  0  0  0
   57.9560   26.8580   46.7380 C   0  0  0  0  0  0  0  0  0  0  0  0
   58.1900   28.1790   47.0570 C   0  0  0  0  0  0  0  0  0  0  0  0
   58.5310   28.6630   48.4360 C   0  0  0  0  0  0  0  0  0  0  0  0
   58.0200   28.9720   45.9710 N   0  0  0  0  0  0  0  0  0  0  0  0
   58.1400   30.4400   45.9640 C   0  0  0  0  0  0  0  0  0  0  0  0
   59.3770   30.8750   46.7080 C   0  0  0  0  0  0  0  0  0  0  0  0
   60.6270   30.3230   46.3890 C   0  0  0  0  0  0  0  0  0  0  0  0
   61.7770   30.7370   47.0680 C   0  0  0  0  0  0  0  0  0  0  0  0
   61.6970   31.7050   48.0840 C   0  0  0  0  0  0  0  0  0  0  0  0
   62.8830   32.1470   48.7770 N   0  0  0  0  0  0  0  0  0  0  0  0
   63.4090   31.5340   49.9860 C   0  0  0  0  0  0  0  0  0  0  0  0
   64.5240   32.4710   50.4890 C   0  0  0  0  0  0  0  0  0  0  0  0
   64.8220   33.4620   49.3570 C   0  0  0  0  0  0  0  0  0  0  0  0
   63.7280   33.2190   48.3960 C   0  0  0  0  0  0  0  0  0  0  0  0
   63.6030   33.8530   47.3140 O   0  0  0  0  0  0  0  0  0  0  0  0
   60.4450   32.2640   48.3920 C   0  0  0  0  0  0  0  0  0  0  0  0
   59.2960   31.8490   47.7140 C   0  0  0  0  0  0  0  0  0  0  0  0
  1  2  2  0
  2  3  1  0
  3  4  2  3
  4  5  1  0
  5  6  2  0
  6  7  1  0
  6  8  1  0
  8  9  1  0
  9 10  2  0
  9 11  1  0
 11 12  1  0
 12 13  2  0
  3 14  1  0
 14 15  2  0
 15 16  1  0
 15 17  1  0
 17 18  1  0
 18 19  1  0
 19 20  2  0
 20 21  1  0
 21 22  2  0
 22 23  1  0
 23 24  1  0
 24 25  1  0
 25 26  1  0
 26 27  1  0
 27 28  2  0
 22 29  1  0
 29 30  2  0
 17  2  1  0
 30 19  1  0
 12  5  1  0
 27 23  1  0
M  CHG  3   7  -1   8  -1  11  -1
M  END
>  <UniqueID>  (1675) 
77

>  <SMILES>  (1675) 
C=c1c(=Cc2c([O-])[n-]c(=O)[n-]c2=O)cc(C)n1Cc1ccc(N2CCCC2=O)cc1

>  <Energy>  (1675) 
101.30507115911782

>  <Genealogy>  (1675) 
C=c1c(=Cc2c([O-])[n-]c(=O)[n-]c2=O)cc(C)n1Cc1ccc(N2CCCC2=O)cc1 (protonated)
C=c1c(=Cc2c([O-])[n-]c(=O)[n-]c2=O)cc(C)n1Cc1ccc(N2CCCC2=O)cc1 (3D coordinates assigned)
C=c1c(=Cc2c([O-])[n-]c(=O)[n-]c2=O)cc(C)n1Cc1ccc(N2CCCC2=O)cc1 (nonaromatic ring conformer: 101.30507115911782 kcal/mol)

>  <smiles>  (1675) 
C=c1c(=Cc2c(O)[nH]c(=O)[nH]c2=O)cc(C)n1Cc1ccc(N2CCCC2=O)cc1

>  <score_type>  (1675) 
oracle

>  <origin>  (1675) 
adg

>  <m_score__min__energy>  (1675) 
-16.02

>  <m_primary>  (1675) 
energy

$$$$
84:0
     RDKit          3D

 31 34  0  0  0  0  0  0  0  0999 V2000
   55.9360   31.9850   52.0340 C   0  0  0  0  0  0  0  0  0  0  0  0
   55.4780   30.8690   52.6240 C   0  0  0  0  0  0  0  0  0  0  0  0
   54.1390   30.4760   52.7750 C   0  0  0  0  0  0  0  0  0  0  0  0
   52.9910   31.1550   52.5840 C   0  0  0  0  0  0  0  0  0  0  0  0
   52.1600   31.1100   51.3690 C   0  0  0  0  0  0  0  0  0  0  0  0
   52.2440   30.1630   50.4160 N   0  0  0  0  0  0  0  0  0  0  0  0
   51.4080   30.6130   49.4560 C   0  0  0  0  0  0  0  0  0  0  0  0
   51.2000   29.9800   48.3880 O   0  0  0  0  0  0  0  0  0  0  0  0
   50.8220   31.7990   49.7240 N   0  0  0  0  0  0  0  0  0  0  0  0
   51.3200   32.1060   50.9330 C   0  0  0  0  0  0  0  0  0  0  0  0
   51.0190   33.2740   51.6200 O   0  0  0  0  0  0  0  0  0  0  0  0
   54.1680   29.1600   53.2060 C   0  0  0  0  0  0  0  0  0  0  0  0
   55.4940   28.8250   53.3790 C   0  0  0  0  0  0  0  0  0  0  0  0
   55.9800   27.4860   53.8450 C   0  0  0  0  0  0  0  0  0  0  0  0
   56.2890   29.8560   53.0220 N   0  0  0  0  0  0  0  0  0  0  0  0
   57.7270   29.8520   53.0260 C   0  0  0  0  0  0  0  0  0  0  0  0
   58.4190   30.1030   54.2170 C   0  0  0  0  0  0  0  0  0  0  0  0
   59.8150   30.1190   54.2320 C   0  0  0  0  0  0  0  0  0  0  0  0
   60.5410   29.8770   53.0550 C   0  0  0  0  0  0  0  0  0  0  0  0
   62.0530   29.9100   53.0780 C   0  0  0  0  0  0  0  0  0  0  0  0
   62.6290   31.2160   52.6870 N   0  0  0  0  0  0  0  0  0  0  0  0
   62.1040   32.3930   53.4180 C   0  0  0  0  0  0  0  0  0  0  0  0
   61.3600   33.3790   52.5100 C   0  0  0  0  0  0  0  0  0  0  0  0
   60.6420   32.6330   51.4640 N   0  0  0  0  0  0  0  0  0  0  0  0
   59.6890   33.4960   50.7360 C   0  0  0  0  0  0  0  0  0  0  0  0
   58.8860   32.6910   49.7150 C   0  0  0  0  0  0  0  0  0  0  0  0
   61.6110   32.0320   50.5230 C   0  0  0  0  0  0  0  0  0  0  0  0
   62.8370   31.4140   51.2380 C   0  0  0  0  0  0  0  0  0  0  0  0
   59.8460   29.6360   51.8580 C   0  0  0  0  0  0  0  0  0  0  0  0
   58.4460   29.6260   51.8420 C   0  0  0  0  0  0  0  0  0  0  0  0
   57.7760   29.4050   50.6450 O   0  0  0  0  0  0  0  0  0  0  0  0
  1  2  2  0
  2  3  1  0
  3  4  2  0
  4  5  1  0
  5  6  1  0
  6  7  1  0
  7  8  2  0
  7  9  1  0
  9 10  1  0
 10 11  1  0
  3 12  1  0
 12 13  2  0
 13 14  1  0
 13 15  1  0
 15 16  1  0
 16 17  2  0
 17 18  1  0
 18 19  2  0
 19 20  1  0
 20 21  1  0
 21 22  1  0
 22 23  1  0
 23 24  1  0
 24 25  1  0
 25 26  1  0
 24 27  1  0
 27 28  1  0
 19 29  1  0
 29 30  2  0
 30 31  1  0
 15  2  1  0
 30 16  1  0
 10  5  2  0
 28 21  1  0
M  CHG  4   6  -1   9  -1  11  -1  31  -1
M  END
>  <UniqueID>  (1676) 
79

>  <SMILES>  (1676) 
C=c1/c(=C\c2[n-]c(=O)[n-]c2[O-])cc(C)n1-c1ccc(CN2CCN(CC)CC2)cc1[O-]

>  <Energy>  (1676) 
144.55554807304844

>  <Genealogy>  (1676) 
C=c1c(=Cc2[n-]c(=O)[n-]c2[O-])cc(C)n1-c1ccc(CN2CCN(CC)CC2)cc1[O-] (protonated)
C=c1/c(=C\c2[n-]c(=O)[n-]c2[O-])cc(C)n1-c1ccc(CN2CCN(CC)CC2)cc1[O-] (cis-trans isomerization)
C=c1/c(=C\c2[n-]c(=O)[n-]c2[O-])cc(C)n1-c1ccc(CN2CCN(CC)CC2)cc1[O-] (3D coordinates assigned)
C=c1/c(=C\c2[n-]c(=O)[n-]c2[O-])cc(C)n1-c1ccc(CN2CCN(CC)CC2)cc1[O-] (nonaromatic ring conformer: 144.55554807304844 kcal/mol)

>  <smiles>  (1676) 
C=c1c(=Cc2[nH]c(=O)[nH]c2O)cc(C)n1-c1ccc(CN2CCN(CC)CC2)cc1O

>  <score_type>  (1676) 
oracle

>  <origin>  (1676) 
adg

>  <m_score__min__energy>  (1676) 
-17.059999999999999

>  <m_primary>  (1676) 
energy

$$$$
8:0
     RDKit          3D

 33 36  0  0  0  0  0  0  0  0999 V2000
   57.7400   29.9230   44.8600 C   0  0  0  0  0  0  0  0  0  0  0  0
   58.0970   29.5000   46.0850 C   0  0  0  0  0  0  0  0  0  0  0  0
   58.2020   28.1640   46.4910 C   0  0  0  0  0  0  0  0  0  0  0  0
   58.0230   27.0610   45.7350 C   0  0  0  0  0  0  0  0  0  0  0  0
   57.3000   25.8540   46.1870 C   0  0  0  0  0  0  0  0  0  0  0  0
   57.8780   24.7210   46.6270 N   0  0  0  0  0  0  0  0  0  0  0  0
   56.8290   23.9520   46.9890 C   0  0  0  0  0  0  0  0  0  0  0  0
   56.9680   22.7910   47.4550 O   0  0  0  0  0  0  0  0  0  0  0  0
   55.6190   24.5290   46.8190 N   0  0  0  0  0  0  0  0  0  0  0  0
   55.9360   25.7360   46.3240 C   0  0  0  0  0  0  0  0  0  0  0  0
   55.0000   26.7130   46.0070 O   0  0  0  0  0  0  0  0  0  0  0  0
   58.5820   28.1940   47.8230 C   0  0  0  0  0  0  0  0  0  0  0  0
   58.6510   29.5190   48.1890 C   0  0  0  0  0  0  0  0  0  0  0  0
   59.1300   29.9850   49.5050 C   0  0  0  0  0  0  0  0  0  0  0  0
   60.3740   30.1440   49.6400 O   0  0  0  0  0  0  0  0  0  0  0  0
   58.2480   30.3320   50.6110 N   0  0  0  0  0  0  0  0  0  0  0  0
   58.7510   30.0090   51.9710 C   0  0  0  0  0  0  0  0  0  0  0  0
   59.7440   31.0470   52.5290 C   0  0  0  0  0  0  0  0  0  0  0  0
   59.2160   32.4200   52.4160 N   0  0  0  0  0  0  0  0  0  0  0  0
   60.2100   33.3840   52.9390 C   0  0  0  0  0  0  0  0  0  0  0  0
   61.3780   33.5620   51.9580 C   0  0  0  0  0  0  0  0  0  0  0  0
   62.6820   33.0260   52.5470 C   0  0  0  0  0  0  0  0  0  0  0  0
   58.8880   32.7060   51.0080 C   0  0  0  0  0  0  0  0  0  0  0  0
   57.8030   31.7390   50.5280 C   0  0  0  0  0  0  0  0  0  0  0  0
   58.4000   30.3210   47.1270 N   0  0  0  0  0  0  0  0  0  0  0  0
   58.5180   31.7890   47.1280 C   0  0  0  0  0  0  0  0  0  0  0  0
   59.9210   32.2150   47.4640 C   0  0  0  0  0  0  0  0  0  0  0  0
   60.1520   33.4220   48.1460 C   0  0  0  0  0  0  0  0  0  0  0  0
   61.4530   33.7980   48.4940 C   0  0  0  0  0  0  0  0  0  0  0  0
   62.5340   32.9790   48.1530 C   0  0  0  0  0  0  0  0  0  0  0  0
   64.1630   33.4460   48.6010 Cl  0  0  0  0  0  0  0  0  0  0  0  0
   62.3140   31.7870   47.4570 C   0  0  0  0  0  0  0  0  0  0  0  0
   61.0150   31.4060   47.1120 C   0  0  0  0  0  0  0  0  0  0  0  0
  1  2  2  0
  2  3  1  0
  3  4  2  3
  4  5  1  0
  5  6  1  0
  6  7  1  0
  7  8  2  0
  7  9  1  0
  9 10  1  0
 10 11  1  0
  3 12  1  0
 12 13  2  0
 13 14  1  0
 14 15  2  0
 14 16  1  0
 16 17  1  0
 17 18  1  0
 18 19  1  0
 19 20  1  0
 20 21  1  0
 21 22  1  0
 19 23  1  0
 23 24  1  0
 13 25  1  0
 25 26  1  0
 26 27  1  0
 27 28  2  0
 28 29  1  0
 29 30  2  0
 30 31  1  0
 30 32  1  0
 32 33  2  0
 25  2  1  0
 33 27  1  0
 10  5  2  0
 24 16  1  0
M  CHG  4   6  -1   9  -1  11  -1  16   1
M  END
>  <UniqueID>  (1677) 
9

>  <SMILES>  (1677) 
C=c1c(=Cc2[n-]c(=O)[n-]c2[O-])cc(C(=O)[NH+]2CCN(CCC)CC2)n1Cc1ccc(Cl)cc1

>  <Energy>  (1677) 
135.29648917993842

>  <Genealogy>  (1677) 
C=c1c(=Cc2[n-]c(=O)[n-]c2[O-])cc(C(=O)[NH+]2CCN(CCC)CC2)n1Cc1ccc(Cl)cc1 (protonated)
C=c1c(=Cc2[n-]c(=O)[n-]c2[O-])cc(C(=O)[NH+]2CCN(CCC)CC2)n1Cc1ccc(Cl)cc1 (3D coordinates assigned)
C=c1c(=Cc2[n-]c(=O)[n-]c2[O-])cc(C(=O)[NH+]2CCN(CCC)CC2)n1Cc1ccc(Cl)cc1 (nonaromatic ring conformer: 135.29648917993842 kcal/mol)

>  <smiles>  (1677) 
C=c1c(=Cc2[nH]c(=O)[nH]c2O)cc(C(=O)N2CCN(CCC)CC2)n1Cc1ccc(Cl)cc1

>  <score_type>  (1677) 
oracle

>  <origin>  (1677) 
adg

>  <m_score__min__energy>  (1677) 
-15.24

>  <m_primary>  (1677) 
energy

$$$$
15:0
     RDKit          3D

 35 39  0  0  0  0  0  0  0  0999 V2000
   59.8110   29.7150   45.0000 C   0  0  0  0  0  0  0  0  0  0  0  0
   59.8400   29.0500   46.1660 C   0  0  0  0  0  0  0  0  0  0  0  0
   59.4340   27.7250   46.4030 C   0  0  0  0  0  0  0  0  0  0  0  0
   58.7750   26.8480   45.6230 C   0  0  0  0  0  0  0  0  0  0  0  0
   57.3560   26.4930   45.7510 C   0  0  0  0  0  0  0  0  0  0  0  0
   56.9230   25.2500   46.0210 N   0  0  0  0  0  0  0  0  0  0  0  0
   55.5850   25.4030   46.1320 C   0  0  0  0  0  0  0  0  0  0  0  0
   54.8110   24.4400   46.3710 O   0  0  0  0  0  0  0  0  0  0  0  0
   55.1440   26.6700   45.9760 N   0  0  0  0  0  0  0  0  0  0  0  0
   56.2780   27.3530   45.7510 C   0  0  0  0  0  0  0  0  0  0  0  0
   56.3190   28.7340   45.5820 O   0  0  0  0  0  0  0  0  0  0  0  0
   59.8630   27.4140   47.6830 C   0  0  0  0  0  0  0  0  0  0  0  0
   60.4510   28.5500   48.1960 C   0  0  0  0  0  0  0  0  0  0  0  0
   61.1510   28.6240   49.5160 C   0  0  0  0  0  0  0  0  0  0  0  0
   60.4170   29.5490   47.2880 N   0  0  0  0  0  0  0  0  0  0  0  0
   61.0460   30.8340   47.4460 C   0  0  0  0  0  0  0  0  0  0  0  0
   62.4420   30.9270   47.3250 C   0  0  0  0  0  0  0  0  0  0  0  0
   63.0850   32.1540   47.4940 C   0  0  0  0  0  0  0  0  0  0  0  0
   62.3420   33.2970   47.7900 C   0  0  0  0  0  0  0  0  0  0  0  0
   60.9530   33.2180   47.9130 C   0  0  0  0  0  0  0  0  0  0  0  0
   60.2910   31.9920   47.7410 C   0  0  0  0  0  0  0  0  0  0  0  0
   58.5340   31.9200   47.9280 S   0  0  0  0  0  0  0  0  0  0  0  0
   57.9210   33.2470   47.5710 O   0  0  0  0  0  0  0  0  0  0  0  0
   57.9820   30.8920   46.9800 O   0  0  0  0  0  0  0  0  0  0  0  0
   58.1380   31.5040   49.5790 N   0  0  0  0  0  0  0  0  0  0  0  0
   58.4720   32.6270   50.4680 C   0  0  0  0  0  0  0  0  0  0  0  0
   57.9380   32.3660   51.8900 C   0  0  0  0  0  0  0  0  0  0  0  0
   57.8940   30.8550   52.2690 C   0  0  0  0  0  0  0  0  0  0  0  0
   56.5630   30.2400   51.9880 N   0  0  0  0  0  0  0  0  0  0  0  0
   55.4570   31.2120   52.0540 C   0  0  0  0  0  0  0  0  0  0  0  0
   54.2360   30.5150   52.6430 C   0  0  0  0  0  0  0  0  0  0  0  0
   54.7070   29.1400   53.0580 C   0  0  0  0  0  0  0  0  0  0  0  0
   56.2170   29.1970   52.9670 C   0  0  0  0  0  0  0  0  0  0  0  0
   59.0200   30.1280   51.5010 C   0  0  0  0  0  0  0  0  0  0  0  0
   58.8520   30.2660   49.9730 C   0  0  0  0  0  0  0  0  0  0  0  0
  1  2  2  0
  2  3  1  0
  3  4  2  3
  4  5  1  0
  5  6  1  0
  6  7  1  0
  7  8  2  0
  7  9  1  0
  9 10  1  0
 10 11  1  0
  3 12  1  0
 12 13  2  0
 13 14  1  0
 13 15  1  0
 15 16  1  0
 16 17  2  0
 17 18  1  0
 18 19  2  0
 19 20  1  0
 20 21  2  0
 21 22  1  0
 22 23  2  0
 22 24  2  0
 22 25  1  0
 25 26  1  0
 26 27  1  0
 27 28  1  0
 28 29  1  0
 29 30  1  0
 30 31  1  0
 31 32  1  0
 32 33  1  0
 28 34  1  0
 34 35  1  0
 15  2  1  0
 21 16  1  0
 35 25  1  0
 10  5  2  0
 33 29  1  0
M  CHG  2   6  -1   9  -1
M  END
>  <UniqueID>  (1678) 
15

>  <SMILES>  (1678) 
C=c1c(=Cc2[n-]c(=O)[n-]c2O)cc(C)n1-c1ccccc1S(=O)(=O)N1CCC(N2CCCC2)CC1

>  <Energy>  (1678) 
149.31037328779738

>  <Genealogy>  (1678) 
C=c1c(=Cc2[n-]c(=O)[n-]c2O)cc(C)n1-c1ccccc1S(=O)(=O)N1CCC(N2CCCC2)CC1 (protonated)
C=c1c(=Cc2[n-]c(=O)[n-]c2O)cc(C)n1-c1ccccc1S(=O)(=O)N1CCC(N2CCCC2)CC1 (3D coordinates assigned)
C=c1c(=Cc2[n-]c(=O)[n-]c2O)cc(C)n1-c1ccccc1S(=O)(=O)N1CCC(N2CCCC2)CC1 (nonaromatic ring conformer: 149.31037328779738 kcal/mol)

>  <smiles>  (1678) 
C=c1c(=Cc2[nH]c(=O)[nH]c2O)cc(C)n1-c1ccccc1S(=O)(=O)N1CCC(N2CCCC2)CC1

>  <score_type>  (1678) 
oracle

>  <origin>  (1678) 
adg

>  <m_score__min__energy>  (1678) 
-14.970000000000001

>  <m_primary>  (1678) 
energy

$$$$
19:0
     RDKit          3D

 26 29  0  0  0  0  0  0  0  0999 V2000
   60.3710   29.0890   46.8320 C   0  0  0  0  0  0  0  0  0  0  0  0
   59.1510   28.5960   46.5240 C   0  0  0  0  0  0  0  0  0  0  0  0
   58.8510   27.2440   46.8210 C   0  0  0  0  0  0  0  0  0  0  0  0
   59.6980   26.5260   47.4240 O   0  0  0  0  0  0  0  0  0  0  0  0
   57.5780   26.7310   46.4800 C   0  0  0  0  0  0  0  0  0  0  0  0
   57.1830   25.4560   46.6820 C   0  0  0  0  0  0  0  0  0  0  0  0
   56.2450   24.6850   45.8430 C   0  0  0  0  0  0  0  0  0  0  0  0
   56.5800   23.4950   45.1760 C   0  0  0  0  0  0  0  0  0  0  0  0
   55.5620   23.0070   44.3620 C   0  0  0  0  0  0  0  0  0  0  0  0
   54.2570   24.0700   44.4390 S   0  0  0  0  0  0  0  0  0  0  0  0
   54.9800   25.1440   45.5060 C   0  0  0  0  0  0  0  0  0  0  0  0
   54.3940   26.3130   45.9730 O   0  0  0  0  0  0  0  0  0  0  0  0
   56.6680   27.5780   45.9400 N   0  0  0  0  0  0  0  0  0  0  0  0
   56.9460   28.8750   45.6690 C   0  0  0  0  0  0  0  0  0  0  0  0
   56.0460   29.5960   45.1570 O   0  0  0  0  0  0  0  0  0  0  0  0
   58.1850   29.3900   45.9410 N   0  0  0  0  0  0  0  0  0  0  0  0
   58.4370   30.7700   45.6060 C   0  0  0  0  0  0  0  0  0  0  0  0
   58.2040   31.2290   44.3020 C   0  0  0  0  0  0  0  0  0  0  0  0
   58.4470   32.5650   43.9700 C   0  0  0  0  0  0  0  0  0  0  0  0
   58.9250   33.4570   44.9410 C   0  0  0  0  0  0  0  0  0  0  0  0
   59.1730   34.8000   44.6200 C   0  0  0  0  0  0  0  0  0  0  0  0
   59.6480   35.6800   45.5970 C   0  0  0  0  0  0  0  0  0  0  0  0
   59.8800   35.2270   46.8990 C   0  0  0  0  0  0  0  0  0  0  0  0
   59.6370   33.8910   47.2330 C   0  0  0  0  0  0  0  0  0  0  0  0
   59.1590   32.9980   46.2610 C   0  0  0  0  0  0  0  0  0  0  0  0
   58.9110   31.6550   46.5840 C   0  0  0  0  0  0  0  0  0  0  0  0
  1  2  2  0
  2  3  1  0
  3  4  2  0
  3  5  1  0
  5  6  2  3
  6  7  1  0
  7  8  1  0
  8  9  2  0
  9 10  1  0
 10 11  1  0
 11 12  1  0
  5 13  1  0
 13 14  1  0
 14 15  2  0
 14 16  1  0
 16 17  1  0
 17 18  2  0
 18 19  1  0
 19 20  2  0
 20 21  1  0
 21 22  2  0
 22 23  1  0
 23 24  2  0
 24 25  1  0
 25 26  2  0
 16  2  1  0
 26 17  1  0
 11  7  2  0
 25 20  1  0
M  CHG  2  12  -1  13  -1
M  END
>  <UniqueID>  (1679) 
19

>  <SMILES>  (1679) 
C=c1c(=O)c(=Cc2ccsc2[O-])[n-]c(=O)n1-c1ccc2ccccc2c1

>  <Energy>  (1679) 
100.98152978822543

>  <Genealogy>  (1679) 
C=c1c(=O)c(=Cc2ccsc2[O-])[n-]c(=O)n1-c1ccc2ccccc2c1 (protonated)
C=c1c(=O)c(=Cc2ccsc2[O-])[n-]c(=O)n1-c1ccc2ccccc2c1 (3D coordinates assigned)
C=c1c(=O)c(=Cc2ccsc2[O-])[n-]c(=O)n1-c1ccc2ccccc2c1 (optimized conformer: 100.98152978822543 kcal/mol)

>  <smiles>  (1679) 
C=c1c(=O)c(=Cc2ccsc2O)[nH]c(=O)n1-c1ccc2ccccc2c1

>  <score_type>  (1679) 
oracle

>  <origin>  (1679) 
adg

>  <m_score__min__energy>  (1679) 
-14.390000000000001

>  <m_primary>  (1679) 
energy

$$$$
21:0
     RDKit          3D

 26 28  0  0  0  0  0  0  0  0999 V2000
   60.1120   30.0400   46.5180 C   0  0  0  0  0  0  0  0  0  0  0  0
   58.9920   30.5070   45.9290 C   0  0  0  0  0  0  0  0  0  0  0  0
   58.5860   31.8360   46.2260 C   0  0  0  0  0  0  0  0  0  0  0  0
   59.1960   32.5310   47.2820 O   0  0  0  0  0  0  0  0  0  0  0  0
   59.9140   33.7490   47.0970 C   0  0  0  0  0  0  0  0  0  0  0  0
   61.3310   33.6100   47.5800 C   0  0  0  0  0  0  0  0  0  0  0  0
   62.3760   33.3800   46.6690 C   0  0  0  0  0  0  0  0  0  0  0  0
   63.6930   33.2620   47.1250 C   0  0  0  0  0  0  0  0  0  0  0  0
   63.9770   33.3920   48.4870 C   0  0  0  0  0  0  0  0  0  0  0  0
   62.9450   33.6370   49.3960 C   0  0  0  0  0  0  0  0  0  0  0  0
   61.6260   33.7440   48.9460 C   0  0  0  0  0  0  0  0  0  0  0  0
   57.6190   32.4790   45.4250 C   0  0  0  0  0  0  0  0  0  0  0  0
   57.2240   33.9110   45.6600 C   0  0  0  0  0  0  0  0  0  0  0  0
   57.0200   31.7810   44.3750 C   0  0  0  0  0  0  0  0  0  0  0  0
   57.3460   30.4520   44.1280 C   0  0  0  0  0  0  0  0  0  0  0  0
   58.2730   29.7630   44.9320 C   0  0  0  0  0  0  0  0  0  0  0  0
   58.3860   28.4250   44.7150 C   0  0  0  0  0  0  0  0  0  0  0  0
   57.6230   27.3590   45.4040 C   0  0  0  0  0  0  0  0  0  0  0  0
   56.2330   27.4560   45.5900 C   0  0  0  0  0  0  0  0  0  0  0  0
   55.5300   28.5610   45.1260 O   0  0  0  0  0  0  0  0  0  0  0  0
   55.5610   26.4530   46.2120 N   0  0  0  0  0  0  0  0  0  0  0  0
   56.2060   25.3390   46.6420 C   0  0  0  0  0  0  0  0  0  0  0  0
   55.5630   24.4250   47.2210 O   0  0  0  0  0  0  0  0  0  0  0  0
   57.5420   25.2070   46.4430 N   0  0  0  0  0  0  0  0  0  0  0  0
   58.2600   26.1830   45.8290 C   0  0  0  0  0  0  0  0  0  0  0  0
   59.4990   26.0250   45.6580 O   0  0  0  0  0  0  0  0  0  0  0  0
  1  2  2  0
  2  3  1  0
  3  4  1  0
  4  5  1  0
  5  6  1  0
  6  7  2  0
  7  8  1  0
  8  9  2  0
  9 10  1  0
 10 11  2  0
  3 12  2  0
 12 13  1  0
 12 14  1  0
 14 15  2  0
 15 16  1  0
 16 17  2  0
 17 18  1  0
 18 19  2  0
 19 20  1  0
 19 21  1  0
 21 22  1  0
 22 23  2  0
 22 24  1  0
 24 25  1  0
 25 26  2  0
 16  2  1  0
 25 18  1  0
 11  6  1  0
M  CHG  3  20  -1  21  -1  24  -1
M  END
>  <UniqueID>  (1680) 
21

>  <SMILES>  (1680) 
C=c1c(OCc2ccccc2)c(C)cc/c1=C/c1c([O-])[n-]c(=O)[n-]c1=O

>  <Energy>  (1680) 
73.25928653028767

>  <Genealogy>  (1680) 
C=c1c(OCc2ccccc2)c(C)ccc1=Cc1c([O-])[n-]c(=O)[n-]c1=O (protonated)
C=c1c(OCc2ccccc2)c(C)cc/c1=C/c1c([O-])[n-]c(=O)[n-]c1=O (cis-trans isomerization)
C=c1c(OCc2ccccc2)c(C)cc/c1=C/c1c([O-])[n-]c(=O)[n-]c1=O (3D coordinates assigned)
C=c1c(OCc2ccccc2)c(C)cc/c1=C/c1c([O-])[n-]c(=O)[n-]c1=O (optimized conformer: 73.25928653028767 kcal/mol)

>  <smiles>  (1680) 
C=c1c(OCc2ccccc2)c(C)ccc1=Cc1c(O)[nH]c(=O)[nH]c1=O

>  <score_type>  (1680) 
oracle

>  <origin>  (1680) 
adg

>  <m_score__min__energy>  (1680) 
-16.100000000000001

>  <m_primary>  (1680) 
energy

$$$$
27:0
     RDKit          3D

 30 33  0  0  0  0  0  0  0  0999 V2000
   59.6170   26.9010   48.1980 C   0  0  0  0  0  0  0  0  0  0  0  0
   59.5810   28.1270   47.6490 C   0  0  0  0  0  0  0  0  0  0  0  0
   59.1350   28.4550   46.3590 C   0  0  0  0  0  0  0  0  0  0  0  0
   58.4640   27.7300   45.4410 C   0  0  0  0  0  0  0  0  0  0  0  0
   57.2660   26.9140   45.6970 C   0  0  0  0  0  0  0  0  0  0  0  0
   57.2820   25.6750   46.2240 N   0  0  0  0  0  0  0  0  0  0  0  0
   55.9720   25.3970   46.4020 C   0  0  0  0  0  0  0  0  0  0  0  0
   55.5700   24.3000   46.8700 O   0  0  0  0  0  0  0  0  0  0  0  0
   55.1280   26.3900   46.0500 N   0  0  0  0  0  0  0  0  0  0  0  0
   55.9660   27.3480   45.6200 C   0  0  0  0  0  0  0  0  0  0  0  0
   55.5500   28.5950   45.1720 O   0  0  0  0  0  0  0  0  0  0  0  0
   59.4870   29.7750   46.1510 C   0  0  0  0  0  0  0  0  0  0  0  0
   60.0760   30.2240   47.3130 C   0  0  0  0  0  0  0  0  0  0  0  0
   60.5010   31.6280   47.5110 C   0  0  0  0  0  0  0  0  0  0  0  0
   61.6630   31.9410   47.1290 O   0  0  0  0  0  0  0  0  0  0  0  0
   59.6240   32.6170   48.1240 N   0  0  2  0  0  0  0  0  0  0  0  0
   58.1800   32.3390   47.9160 C   0  0  0  0  0  0  0  0  0  0  0  0
   57.7200   32.5910   46.4680 C   0  0  0  0  0  0  0  0  0  0  0  0
   58.0850   34.0120   46.0160 C   0  0  2  0  0  0  0  0  0  0  0  0
   57.7100   34.2270   44.5460 C   0  0  0  0  0  0  0  0  0  0  0  0
   59.5820   34.2660   46.2370 C   0  0  0  0  0  0  0  0  0  0  0  0
   59.9570   33.9980   47.7010 C   0  0  0  0  0  0  0  0  0  0  0  0
   60.1230   29.2310   48.2360 N   0  0  0  0  0  0  0  0  0  0  0  0
   60.5910   29.3570   49.6280 C   0  0  0  0  0  0  0  0  0  0  0  0
   59.7450   30.3080   50.4470 C   0  0  0  0  0  0  0  0  0  0  0  0
   58.3470   30.1690   50.5510 C   0  0  0  0  0  0  0  0  0  0  0  0
   57.5990   31.0810   51.3020 C   0  0  0  0  0  0  0  0  0  0  0  0
   58.2320   32.1500   51.9390 C   0  0  0  0  0  0  0  0  0  0  0  0
   59.6130   32.3140   51.8210 C   0  0  0  0  0  0  0  0  0  0  0  0
   60.3650   31.4040   51.0720 C   0  0  0  0  0  0  0  0  0  0  0  0
  1  2  2  0
  2  3  1  0
  3  4  2  3
  4  5  1  0
  5  6  1  0
  6  7  1  0
  7  8  2  0
  7  9  1  0
  9 10  1  0
 10 11  1  0
  3 12  1  0
 12 13  2  0
 13 14  1  0
 14 15  2  0
 16 14  1  6
 16 17  1  0
 17 18  1  0
 18 19  1  0
 19 20  1  6
 19 21  1  0
 21 22  1  0
 13 23  1  0
 23 24  1  0
 24 25  1  0
 25 26  2  0
 26 27  1  0
 27 28  2  0
 28 29  1  0
 29 30  2  0
 23  2  1  0
 30 25  1  0
 10  5  2  0
 22 16  1  0
M  CHG  4   6  -1   9  -1  11  -1  16   1
M  END
>  <UniqueID>  (1681) 
27

>  <SMILES>  (1681) 
C=c1c(=Cc2[n-]c(=O)[n-]c2[O-])cc(C(=O)[NH+]2CCC(C)CC2)n1Cc1ccccc1

>  <Energy>  (1681) 
133.17909386158237

>  <Genealogy>  (1681) 
C=c1c(=Cc2[n-]c(=O)[n-]c2[O-])cc(C(=O)[NH+]2CCC(C)CC2)n1Cc1ccccc1 (protonated)
C=c1c(=Cc2[n-]c(=O)[n-]c2[O-])cc(C(=O)[NH+]2CCC(C)CC2)n1Cc1ccccc1 (3D coordinates assigned)
C=c1c(=Cc2[n-]c(=O)[n-]c2[O-])cc(C(=O)[NH+]2CCC(C)CC2)n1Cc1ccccc1 (nonaromatic ring conformer: 133.17909386158237 kcal/mol)

>  <smiles>  (1681) 
C=c1c(=Cc2[nH]c(=O)[nH]c2O)cc(C(=O)N2CCC(C)CC2)n1Cc1ccccc1

>  <score_type>  (1681) 
oracle

>  <origin>  (1681) 
adg

>  <m_score__min__energy>  (1681) 
-15.52

>  <m_primary>  (1681) 
energy

$$$$
37:0
     RDKit          3D

 32 36  0  0  0  0  0  0  0  0999 V2000
   54.5520   31.3070   51.9000 C   0  0  0  0  0  0  0  0  0  0  0  0
   54.2210   30.1650   52.5220 C   0  0  0  0  0  0  0  0  0  0  0  0
   52.9440   29.5850   52.6040 C   0  0  0  0  0  0  0  0  0  0  0  0
   51.7320   30.0750   52.2860 C   0  0  0  0  0  0  0  0  0  0  0  0
   51.2440   31.4220   52.6220 C   0  0  0  0  0  0  0  0  0  0  0  0
   50.9060   31.8210   53.8630 N   0  0  0  0  0  0  0  0  0  0  0  0
   50.3740   33.0450   53.6630 C   0  0  0  0  0  0  0  0  0  0  0  0
   49.9470   33.7610   54.6050 O   0  0  0  0  0  0  0  0  0  0  0  0
   50.3280   33.4370   52.3720 N   0  0  0  0  0  0  0  0  0  0  0  0
   50.8670   32.3900   51.7260 C   0  0  0  0  0  0  0  0  0  0  0  0
   51.0100   32.3200   50.3460 O   0  0  0  0  0  0  0  0  0  0  0  0
   53.1290   28.3090   53.1080 C   0  0  0  0  0  0  0  0  0  0  0  0
   54.4760   28.1770   53.3780 C   0  0  0  0  0  0  0  0  0  0  0  0
   55.1120   26.9370   53.9270 C   0  0  0  0  0  0  0  0  0  0  0  0
   55.1390   29.3000   53.0260 N   0  0  0  0  0  0  0  0  0  0  0  0
   56.5660   29.4790   53.0680 C   0  0  0  0  0  0  0  0  0  0  0  0
   57.3000   29.0600   54.1810 C   0  0  0  0  0  0  0  0  0  0  0  0
   58.6860   29.2070   54.1970 C   0  0  0  0  0  0  0  0  0  0  0  0
   59.3360   29.7790   53.0920 C   0  0  0  0  0  0  0  0  0  0  0  0
   60.7700   29.9020   53.0760 N   0  0  0  0  0  0  0  0  0  0  0  0
   61.5390   29.2910   51.9800 C   0  0  0  0  0  0  0  0  0  0  0  0
   63.0260   29.6530   52.0580 C   0  0  0  0  0  0  0  0  0  0  0  0
   63.1910   31.0740   52.3960 N   0  0  0  0  0  0  0  0  0  0  0  0
   64.1390   31.9030   51.6950 C   0  0  0  0  0  0  0  0  0  0  0  0
   64.6790   32.8770   52.2880 O   0  0  0  0  0  0  0  0  0  0  0  0
   64.5120   31.6210   50.2660 C   0  0  0  0  0  0  0  0  0  0  0  0
   63.4680   32.0990   49.2530 C   0  0  0  0  0  0  0  0  0  0  0  0
   64.7790   32.8540   49.4090 C   0  0  0  0  0  0  0  0  0  0  0  0
   62.4320   31.6580   53.5150 C   0  0  0  0  0  0  0  0  0  0  0  0
   61.4660   30.6430   54.1360 C   0  0  0  0  0  0  0  0  0  0  0  0
   58.6000   30.1890   52.0170 N   0  0  0  0  0  0  0  0  0  0  0  0
   57.2460   30.0500   51.9850 C   0  0  0  0  0  0  0  0  0  0  0  0
  1  2  2  0
  2  3  1  0
  3  4  2  3
  4  5  1  0
  5  6  1  0
  6  7  1  0
  7  8  2  0
  7  9  1  0
  9 10  1  0
 10 11  1  0
  3 12  1  0
 12 13  2  0
 13 14  1  0
 13 15  1  0
 15 16  1  0
 16 17  2  0
 17 18  1  0
 18 19  2  0
 19 20  1  0
 20 21  1  0
 21 22  1  0
 22 23  1  0
 23 24  1  0
 24 25  2  0
 24 26  1  0
 26 27  1  0
 27 28  1  0
 23 29  1  0
 29 30  1  0
 19 31  1  0
 31 32  2  0
 15  2  1  0
 32 16  1  0
 10  5  2  0
 30 20  1  0
 28 26  1  0
M  CHG  4   6  -1   9  -1  11  -1  31   1
M  END
>  <UniqueID>  (1682) 
37

>  <SMILES>  (1682) 
C=c1c(=Cc2[n-]c(=O)[n-]c2[O-])cc(C)n1-c1ccc(N2CCN(C(=O)C3CC3)CC2)[nH+]c1

>  <Energy>  (1682) 
403.1568206022643

>  <Genealogy>  (1682) 
C=c1c(=Cc2[n-]c(=O)[n-]c2[O-])cc(C)n1-c1ccc(N2CCN(C(=O)C3CC3)CC2)[nH+]c1 (protonated)
C=c1c(=Cc2[n-]c(=O)[n-]c2[O-])cc(C)n1-c1ccc(N2CCN(C(=O)C3CC3)CC2)[nH+]c1 (3D coordinates assigned)
C=c1c(=Cc2[n-]c(=O)[n-]c2[O-])cc(C)n1-c1ccc(N2CCN(C(=O)C3CC3)CC2)[nH+]c1 (nonaromatic ring conformer: 403.1568206022643 kcal/mol)

>  <smiles>  (1682) 
C=c1c(=Cc2[nH]c(=O)[nH]c2O)cc(C)n1-c1ccc(N2CCN(C(=O)C3CC3)CC2)nc1

>  <score_type>  (1682) 
oracle

>  <origin>  (1682) 
adg

>  <m_score__min__energy>  (1682) 
-15.31

>  <m_primary>  (1682) 
energy

$$$$
43:0
     RDKit          3D

 35 39  0  0  0  0  0  0  0  0999 V2000
   58.4070   30.7820   46.2030 C   0  0  0  0  0  0  0  0  0  0  0  0
   59.0010   29.7950   46.8920 C   0  0  0  0  0  0  0  0  0  0  0  0
   58.5810   28.4590   46.9790 C   0  0  0  0  0  0  0  0  0  0  0  0
   57.6870   27.7650   46.2500 C   0  0  0  0  0  0  0  0  0  0  0  0
   57.2080   26.4060   46.5520 C   0  0  0  0  0  0  0  0  0  0  0  0
   57.9580   25.4310   47.0980 N   0  0  0  0  0  0  0  0  0  0  0  0
   57.0740   24.4310   47.2960 C   0  0  0  0  0  0  0  0  0  0  0  0
   57.4050   23.3200   47.7880 O   0  0  0  0  0  0  0  0  0  0  0  0
   55.8050   24.7140   46.9300 N   0  0  0  0  0  0  0  0  0  0  0  0
   55.9080   25.9750   46.4760 C   0  0  0  0  0  0  0  0  0  0  0  0
   54.8330   26.7170   46.0040 O   0  0  0  0  0  0  0  0  0  0  0  0
   59.3030   27.8930   48.0150 C   0  0  0  0  0  0  0  0  0  0  0  0
   60.1820   28.8550   48.4640 C   0  0  0  0  0  0  0  0  0  0  0  0
   61.1340   28.6500   49.6050 C   0  0  0  0  0  0  0  0  0  0  0  0
   60.0140   30.0070   47.7720 N   0  0  0  0  0  0  0  0  0  0  0  0
   60.7370   31.2360   47.9850 C   0  0  0  0  0  0  0  0  0  0  0  0
   62.0390   31.3630   47.4760 C   0  0  0  0  0  0  0  0  0  0  0  0
   62.7820   32.5210   47.7080 C   0  0  0  0  0  0  0  0  0  0  0  0
   62.2360   33.5640   48.4580 C   0  0  0  0  0  0  0  0  0  0  0  0
   60.9460   33.4510   48.9770 C   0  0  0  0  0  0  0  0  0  0  0  0
   60.1780   32.3000   48.7380 C   0  0  0  0  0  0  0  0  0  0  0  0
   58.8160   32.2200   49.3100 C   0  0  0  0  0  0  0  0  0  0  0  0
   57.8290   32.5480   48.5960 O   0  0  0  0  0  0  0  0  0  0  0  0
   58.5980   31.7660   50.6540 N   0  0  0  0  0  0  0  0  0  0  0  0
   57.5800   32.4140   51.4950 C   0  0  0  0  0  0  0  0  0  0  0  0
   56.5380   31.3910   51.9700 C   0  0  0  0  0  0  0  0  0  0  0  0
   57.1640   30.0350   52.4020 C   0  0  0  0  0  0  0  0  0  0  0  0
   56.5890   29.4860   53.6550 N   0  0  0  0  0  0  0  0  0  0  0  0
   56.0760   28.1040   53.5750 C   0  0  0  0  0  0  0  0  0  0  0  0
   54.5510   28.0680   53.5160 C   0  0  0  0  0  0  0  0  0  0  0  0
   54.0130   28.7410   54.6300 O   0  0  0  0  0  0  0  0  0  0  0  0
   54.2960   30.1180   54.5220 C   0  0  0  0  0  0  0  0  0  0  0  0
   55.8130   30.3980   54.5320 C   0  0  0  0  0  0  0  0  0  0  0  0
   58.7070   30.0750   52.4680 C   0  0  0  0  0  0  0  0  0  0  0  0
   59.2740   30.5480   51.1230 C   0  0  0  0  0  0  0  0  0  0  0  0
  1  2  2  0
  2  3  1  0
  3  4  2  3
  4  5  1  0
  5  6  1  0
  6  7  1  0
  7  8  2  0
  7  9  1  0
  9 10  1  0
 10 11  1  0
  3 12  1  0
 12 13  2  0
 13 14  1  0
 13 15  1  0
 15 16  1  0
 16 17  2  0
 17 18  1  0
 18 19  2  0
 19 20  1  0
 20 21  2  0
 21 22  1  0
 22 23  2  0
 22 24  1  0
 24 25  1  0
 25 26  1  0
 26 27  1  0
 27 28  1  0
 28 29  1  0
 29 30  1  0
 30 31  1  0
 31 32  1  0
 32 33  1  0
 27 34  1  0
 34 35  1  0
 15  2  1  0
 21 16  1  0
 35 24  1  0
 10  5  2  0
 33 28  1  0
M  CHG  3   6  -1   9  -1  11  -1
M  END
>  <UniqueID>  (1683) 
43

>  <SMILES>  (1683) 
C=c1c(=Cc2[n-]c(=O)[n-]c2[O-])cc(C)n1-c1ccccc1C(=O)N1CCC(N2CCOCC2)CC1

>  <Energy>  (1683) 
162.0381298748351

>  <Genealogy>  (1683) 
C=c1c(=Cc2[n-]c(=O)[n-]c2[O-])cc(C)n1-c1ccccc1C(=O)N1CCC(N2CCOCC2)CC1 (protonated)
C=c1c(=Cc2[n-]c(=O)[n-]c2[O-])cc(C)n1-c1ccccc1C(=O)N1CCC(N2CCOCC2)CC1 (3D coordinates assigned)
C=c1c(=Cc2[n-]c(=O)[n-]c2[O-])cc(C)n1-c1ccccc1C(=O)N1CCC(N2CCOCC2)CC1 (nonaromatic ring conformer: 162.0381298748351 kcal/mol)

>  <smiles>  (1683) 
C=c1c(=Cc2[nH]c(=O)[nH]c2O)cc(C)n1-c1ccccc1C(=O)N1CCC(N2CCOCC2)CC1

>  <score_type>  (1683) 
oracle

>  <origin>  (1683) 
adg

>  <m_score__min__energy>  (1683) 
-17.399999999999999

>  <m_primary>  (1683) 
energy

$$$$
53:0
     RDKit          3D

 28 31  0  0  0  0  0  0  0  0999 V2000
   59.0050   28.2180   47.0200 C   0  0  0  0  0  0  0  0  0  0  0  0
   58.3360   28.7050   45.9600 C   0  0  0  0  0  0  0  0  0  0  0  0
   57.7550   27.9300   44.9490 C   0  0  0  0  0  0  0  0  0  0  0  0
   57.7940   26.5880   44.8170 C   0  0  0  0  0  0  0  0  0  0  0  0
   57.1430   25.6480   45.7490 C   0  0  0  0  0  0  0  0  0  0  0  0
   57.7840   24.6130   46.3180 N   0  0  0  0  0  0  0  0  0  0  0  0
   56.8560   24.0850   47.1460 C   0  0  0  0  0  0  0  0  0  0  0  0
   57.0800   23.0730   47.8580 O   0  0  0  0  0  0  0  0  0  0  0  0
   55.6730   24.7350   47.1590 N   0  0  0  0  0  0  0  0  0  0  0  0
   55.8740   25.7290   46.2780 C   0  0  0  0  0  0  0  0  0  0  0  0
   54.9330   26.7140   46.0050 O   0  0  0  0  0  0  0  0  0  0  0  0
   57.1740   28.8180   44.0620 C   0  0  0  0  0  0  0  0  0  0  0  0
   57.4050   30.0830   44.5570 C   0  0  0  0  0  0  0  0  0  0  0  0
   56.9360   31.3390   43.8830 C   0  0  0  0  0  0  0  0  0  0  0  0
   58.1140   30.0310   45.7140 N   0  0  0  0  0  0  0  0  0  0  0  0
   58.5030   31.2100   46.5200 C   0  0  0  0  0  0  0  0  0  0  0  0
   59.5870   30.8540   47.5580 C   0  0  0  0  0  0  0  0  0  0  0  0
   60.0050   32.0810   48.4030 C   0  0  0  0  0  0  0  0  0  0  0  0
   59.6680   33.3740   47.7600 N   0  0  0  0  0  0  0  0  0  0  0  0
   60.4130   34.4760   48.4000 C   0  0  0  0  0  0  0  0  0  0  0  0
   61.8310   34.0570   48.6820 C   0  0  0  0  0  0  0  0  0  0  0  0
   62.2870   33.9100   50.0040 C   0  0  0  0  0  0  0  0  0  0  0  0
   63.6020   33.5060   50.2540 C   0  0  0  0  0  0  0  0  0  0  0  0
   64.4690   33.2450   49.1900 C   0  0  0  0  0  0  0  0  0  0  0  0
   64.0230   33.3870   47.8730 C   0  0  0  0  0  0  0  0  0  0  0  0
   62.7080   33.7910   47.6190 C   0  0  0  0  0  0  0  0  0  0  0  0
   59.9210   33.3240   46.3080 C   0  0  0  0  0  0  0  0  0  0  0  0
   58.8760   32.4240   45.6340 C   0  0  0  0  0  0  0  0  0  0  0  0
  1  2  2  0
  2  3  1  0
  3  4  2  0
  4  5  1  0
  5  6  1  0
  6  7  1  0
  7  8  2  0
  7  9  1  0
  9 10  1  0
 10 11  1  0
  3 12  1  0
 12 13  2  0
 13 14  1  0
 13 15  1  0
 15 16  1  0
 16 17  1  0
 17 18  1  0
 18 19  1  0
 19 20  1  0
 20 21  1  0
 21 22  2  0
 22 23  1  0
 23 24  2  0
 24 25  1  0
 25 26  2  0
 19 27  1  0
 27 28  1  0
 15  2  1  0
 28 16  1  0
 10  5  2  0
 26 21  1  0
M  CHG  3   6  -1   9  -1  11  -1
M  END
>  <UniqueID>  (1684) 
52

>  <SMILES>  (1684) 
C=c1/c(=C/c2[n-]c(=O)[n-]c2[O-])cc(C)n1C1CCN(Cc2ccccc2)CC1

>  <Energy>  (1684) 
128.4174099515087

>  <Genealogy>  (1684) 
C=c1c(=Cc2[n-]c(=O)[n-]c2[O-])cc(C)n1C1CCN(Cc2ccccc2)CC1 (protonated)
C=c1/c(=C/c2[n-]c(=O)[n-]c2[O-])cc(C)n1C1CCN(Cc2ccccc2)CC1 (cis-trans isomerization)
C=c1/c(=C/c2[n-]c(=O)[n-]c2[O-])cc(C)n1C1CCN(Cc2ccccc2)CC1 (3D coordinates assigned)
C=c1/c(=C/c2[n-]c(=O)[n-]c2[O-])cc(C)n1C1CCN(Cc2ccccc2)CC1 (nonaromatic ring conformer: 128.4174099515087 kcal/mol)

>  <smiles>  (1684) 
C=c1c(=Cc2[nH]c(=O)[nH]c2O)cc(C)n1C1CCN(Cc2ccccc2)CC1

>  <score_type>  (1684) 
oracle

>  <origin>  (1684) 
adg

>  <m_score__min__energy>  (1684) 
-16.370000000000001

>  <m_primary>  (1684) 
energy

$$$$
58:0
     RDKit          3D

 27 29  0  0  0  0  0  0  0  0999 V2000
   56.1380   31.8670   52.0510 C   0  0  0  0  0  0  0  0  0  0  0  0
   55.6380   30.7220   52.5430 C   0  0  0  0  0  0  0  0  0  0  0  0
   54.2820   30.4200   52.7260 C   0  0  0  0  0  0  0  0  0  0  0  0
   53.2290   31.2190   52.4470 C   0  0  0  0  0  0  0  0  0  0  0  0
   52.4030   31.1530   51.2210 C   0  0  0  0  0  0  0  0  0  0  0  0
   52.4580   30.1870   50.2850 N   0  0  0  0  0  0  0  0  0  0  0  0
   51.4850   30.5340   49.4160 C   0  0  0  0  0  0  0  0  0  0  0  0
   51.2290   29.8630   48.3820 O   0  0  0  0  0  0  0  0  0  0  0  0
   50.8040   31.6530   49.7440 N   0  0  0  0  0  0  0  0  0  0  0  0
   51.3950   32.0270   50.8900 C   0  0  0  0  0  0  0  0  0  0  0  0
   51.0160   33.1450   51.6230 O   0  0  0  0  0  0  0  0  0  0  0  0
   54.2400   29.1310   53.2390 C   0  0  0  0  0  0  0  0  0  0  0  0
   55.5480   28.7070   53.3620 C   0  0  0  0  0  0  0  0  0  0  0  0
   55.9500   27.3560   53.8730 C   0  0  0  0  0  0  0  0  0  0  0  0
   56.4030   29.6730   52.9500 N   0  0  0  0  0  0  0  0  0  0  0  0
   57.8720   29.6230   53.0450 C   0  0  0  0  0  0  0  0  0  0  0  0
   58.5150   29.3460   51.6760 C   0  0  0  0  0  0  0  0  0  0  0  0
   59.1410   30.5860   51.0920 C   0  0  0  0  0  0  0  0  0  0  0  0
   59.6520   30.5650   49.7850 C   0  0  0  0  0  0  0  0  0  0  0  0
   60.1510   31.7390   49.1940 C   0  0  0  0  0  0  0  0  0  0  0  0
   60.6290   31.7700   47.8760 O   0  0  0  0  0  0  0  0  0  0  0  0
   61.8310   32.4190   47.4710 C   0  0  0  0  0  0  0  0  0  0  0  0
   60.1650   32.9250   49.9370 C   0  0  0  0  0  0  0  0  0  0  0  0
   59.6660   32.9620   51.2440 C   0  0  0  0  0  0  0  0  0  0  0  0
   59.6960   34.1840   51.9320 O   0  0  0  0  0  0  0  0  0  0  0  0
   58.7370   34.5830   52.9060 C   0  0  0  0  0  0  0  0  0  0  0  0
   59.1460   31.7860   51.8180 C   0  0  0  0  0  0  0  0  0  0  0  0
  1  2  2  0
  2  3  1  0
  3  4  2  0
  4  5  1  0
  5  6  1  0
  6  7  1  0
  7  8  2  0
  7  9  1  0
  9 10  1  0
 10 11  1  0
  3 12  1  0
 12 13  2  0
 13 14  1  0
 13 15  1  0
 15 16  1  0
 16 17  1  0
 17 18  1  0
 18 19  2  0
 19 20  1  0
 20 21  1  0
 21 22  1  0
 20 23  2  0
 23 24  1  0
 24 25  1  0
 25 26  1  0
 24 27  2  0
 15  2  1  0
 27 18  1  0
 10  5  2  0
M  CHG  3   6  -1   9  -1  11  -1
M  END
>  <UniqueID>  (1685) 
57

>  <SMILES>  (1685) 
C=c1/c(=C/c2[n-]c(=O)[n-]c2[O-])cc(C)n1CCc1cc(OC)cc(OC)c1

>  <Energy>  (1685) 
103.68698300823539

>  <Genealogy>  (1685) 
C=c1c(=Cc2[n-]c(=O)[n-]c2[O-])cc(C)n1CCc1cc(OC)cc(OC)c1 (protonated)
C=c1/c(=C/c2[n-]c(=O)[n-]c2[O-])cc(C)n1CCc1cc(OC)cc(OC)c1 (cis-trans isomerization)
C=c1/c(=C/c2[n-]c(=O)[n-]c2[O-])cc(C)n1CCc1cc(OC)cc(OC)c1 (3D coordinates assigned)
C=c1/c(=C/c2[n-]c(=O)[n-]c2[O-])cc(C)n1CCc1cc(OC)cc(OC)c1 (optimized conformer: 103.68698300823539 kcal/mol)

>  <smiles>  (1685) 
C=c1c(=Cc2[nH]c(=O)[nH]c2O)cc(C)n1CCc1cc(OC)cc(OC)c1

>  <score_type>  (1685) 
oracle

>  <origin>  (1685) 
adg

>  <m_score__min__energy>  (1685) 
-15.369999999999999

>  <m_primary>  (1685) 
energy

$$$$
66:0
     RDKit          3D

 33 36  0  0  0  0  0  0  0  0999 V2000
   59.3970   27.7880   46.6050 C   0  0  0  0  0  0  0  0  0  0  0  0
   58.6040   28.2880   45.6450 C   0  0  0  0  0  0  0  0  0  0  0  0
   57.9030   27.5710   44.6600 C   0  0  0  0  0  0  0  0  0  0  0  0
   57.6800   26.2490   44.5170 C   0  0  0  0  0  0  0  0  0  0  0  0
   57.0550   25.3700   45.5180 C   0  0  0  0  0  0  0  0  0  0  0  0
   57.6320   24.2720   46.0430 N   0  0  0  0  0  0  0  0  0  0  0  0
   56.7650   23.8940   47.0060 C   0  0  0  0  0  0  0  0  0  0  0  0
   56.9500   22.8770   47.7220 O   0  0  0  0  0  0  0  0  0  0  0  0
   55.6890   24.6970   47.1470 N   0  0  0  0  0  0  0  0  0  0  0  0
   55.8970   25.6340   46.2070 C   0  0  0  0  0  0  0  0  0  0  0  0
   55.0510   26.7140   45.9930 O   0  0  0  0  0  0  0  0  0  0  0  0
   57.4010   28.5130   43.7780 C   0  0  0  0  0  0  0  0  0  0  0  0
   57.7520   29.7520   44.2740 C   0  0  0  0  0  0  0  0  0  0  0  0
   57.3830   31.0610   43.6450 C   0  0  0  0  0  0  0  0  0  0  0  0
   58.4660   29.6170   45.4120 N   0  0  0  0  0  0  0  0  0  0  0  0
   59.0530   30.7000   46.1540 C   0  0  0  0  0  0  0  0  0  0  0  0
   58.2420   31.7210   46.6670 C   0  0  0  0  0  0  0  0  0  0  0  0
   58.8050   32.7610   47.4100 C   0  0  0  0  0  0  0  0  0  0  0  0
   60.1870   32.7850   47.6640 C   0  0  0  0  0  0  0  0  0  0  0  0
   60.7900   33.8880   48.4430 C   0  0  0  0  0  0  0  0  0  0  0  0
   60.1580   34.9740   48.5610 O   0  0  0  0  0  0  0  0  0  0  0  0
   62.0810   33.7480   49.0670 N   0  0  0  0  0  0  0  0  0  0  0  0
   63.1780   33.1030   48.3290 C   0  0  0  0  0  0  0  0  0  0  0  0
   64.5470   33.4550   48.9210 C   0  0  0  0  0  0  0  0  0  0  0  0
   64.5370   33.2770   50.3810 N   0  0  0  0  0  0  0  0  0  0  0  0
   65.6850   32.7590   51.0870 C   0  0  0  0  0  0  0  0  0  0  0  0
   67.0230   32.6120   50.4230 C   0  0  0  0  0  0  0  0  0  0  0  0
   65.5700   32.3970   52.2890 O   0  0  0  0  0  0  0  0  0  0  0  0
   63.3690   33.7150   51.1630 C   0  0  0  0  0  0  0  0  0  0  0  0
   62.3610   34.4840   50.3050 C   0  0  0  0  0  0  0  0  0  0  0  0
   60.9980   31.7700   47.1330 C   0  0  0  0  0  0  0  0  0  0  0  0
   60.4350   30.7280   46.3890 C   0  0  0  0  0  0  0  0  0  0  0  0
   61.2340   29.7550   45.8870 F   0  0  0  0  0  0  0  0  0  0  0  0
  1  2  2  0
  2  3  1  0
  3  4  2  3
  4  5  1  0
  5  6  1  0
  6  7  1  0
  7  8  2  0
  7  9  1  0
  9 10  1  0
 10 11  1  0
  3 12  1  0
 12 13  2  0
 13 14  1  0
 13 15  1  0
 15 16  1  0
 16 17  2  0
 17 18  1  0
 18 19  2  0
 19 20  1  0
 20 21  2  0
 20 22  1  0
 22 23  1  0
 23 24  1  0
 24 25  1  0
 25 26  1  0
 26 27  1  0
 26 28  2  0
 25 29  1  0
 29 30  1  0
 19 31  1  0
 31 32  2  0
 32 33  1  0
 15  2  1  0
 32 16  1  0
 10  5  2  0
 30 22  1  0
M  CHG  3   6  -1   9  -1  11  -1
M  END
>  <UniqueID>  (1686) 
65

>  <SMILES>  (1686) 
C=c1c(=Cc2[n-]c(=O)[n-]c2[O-])cc(C)n1-c1ccc(C(=O)N2CCN(C(C)=O)CC2)cc1F

>  <Energy>  (1686) 
136.6366588440642

>  <Genealogy>  (1686) 
C=c1c(=Cc2[n-]c(=O)[n-]c2[O-])cc(C)n1-c1ccc(C(=O)N2CCN(C(C)=O)CC2)cc1F (protonated)
C=c1c(=Cc2[n-]c(=O)[n-]c2[O-])cc(C)n1-c1ccc(C(=O)N2CCN(C(C)=O)CC2)cc1F (3D coordinates assigned)
C=c1c(=Cc2[n-]c(=O)[n-]c2[O-])cc(C)n1-c1ccc(C(=O)N2CCN(C(C)=O)CC2)cc1F (nonaromatic ring conformer: 136.6366588440642 kcal/mol)

>  <smiles>  (1686) 
C=c1c(=Cc2[nH]c(=O)[nH]c2O)cc(C)n1-c1ccc(C(=O)N2CCN(C(C)=O)CC2)cc1F

>  <score_type>  (1686) 
oracle

>  <origin>  (1686) 
adg

>  <m_score__min__energy>  (1686) 
-16.129999999999999

>  <m_primary>  (1686) 
energy

$$$$
75:0
     RDKit          3D

 29 31  0  0  0  0  0  0  0  0999 V2000
   58.9930   26.8190   47.4510 C   0  0  0  0  0  0  0  0  0  0  0  0
   58.4790   26.6130   46.2260 C   0  0  0  0  0  0  0  0  0  0  0  0
   57.4200   25.7500   45.9210 C   0  0  0  0  0  0  0  0  0  0  0  0
   56.7440   24.9460   46.7660 C   0  0  0  0  0  0  0  0  0  0  0  0
   55.5080   24.2240   46.3910 C   0  0  0  0  0  0  0  0  0  0  0  0
   54.3770   24.9390   45.9700 C   0  0  0  0  0  0  0  0  0  0  0  0
   54.3920   26.3280   45.9330 O   0  0  0  0  0  0  0  0  0  0  0  0
   53.2510   24.2740   45.6020 N   0  0  0  0  0  0  0  0  0  0  0  0
   53.1990   22.9180   45.6200 C   0  0  0  0  0  0  0  0  0  0  0  0
   52.1440   22.3250   45.2800 O   0  0  0  0  0  0  0  0  0  0  0  0
   54.2890   22.2020   45.9990 N   0  0  0  0  0  0  0  0  0  0  0  0
   55.4390   22.8180   46.3730 C   0  0  0  0  0  0  0  0  0  0  0  0
   56.4400   22.1190   46.6840 O   0  0  0  0  0  0  0  0  0  0  0  0
   57.2280   25.8350   44.5510 C   0  0  0  0  0  0  0  0  0  0  0  0
   58.1510   26.7460   44.0780 C   0  0  0  0  0  0  0  0  0  0  0  0
   58.3290   27.0830   42.6280 C   0  0  0  0  0  0  0  0  0  0  0  0
   58.9170   27.2230   45.0900 N   0  0  0  0  0  0  0  0  0  0  0  0
   60.0390   28.1630   44.9350 C   0  0  0  0  0  0  0  0  0  0  0  0
   59.5800   29.5800   45.1580 C   0  0  0  0  0  0  0  0  0  0  0  0
   58.5780   30.1370   44.3480 C   0  0  0  0  0  0  0  0  0  0  0  0
   58.1420   31.4470   44.5630 C   0  0  0  0  0  0  0  0  0  0  0  0
   58.7000   32.2170   45.5910 C   0  0  0  0  0  0  0  0  0  0  0  0
   58.1700   33.8760   45.8590 S   0  0  0  0  0  0  0  0  0  0  0  0
   58.8210   34.7960   44.8630 O   0  0  0  0  0  0  0  0  0  0  0  0
   56.6810   33.9500   45.6720 O   0  0  0  0  0  0  0  0  0  0  0  0
   58.5660   34.3830   47.4730 N   0  0  0  0  0  0  0  0  0  0  0  0
   59.9950   34.6620   47.5650 C   0  0  0  0  0  0  0  0  0  0  0  0
   59.7070   31.6690   46.3960 C   0  0  0  0  0  0  0  0  0  0  0  0
   60.1450   30.3590   46.1820 C   0  0  0  0  0  0  0  0  0  0  0  0
  1  2  2  0
  2  3  1  0
  3  4  2  0
  4  5  1  0
  5  6  2  0
  6  7  1  0
  6  8  1  0
  8  9  1  0
  9 10  2  0
  9 11  1  0
 11 12  1  0
 12 13  2  0
  3 14  1  0
 14 15  2  0
 15 16  1  0
 15 17  1  0
 17 18  1  0
 18 19  1  0
 19 20  2  0
 20 21  1  0
 21 22  2  0
 22 23  1  0
 23 24  2  0
 23 25  2  0
 23 26  1  0
 26 27  1  0
 22 28  1  0
 28 29  2  0
 17  2  1  0
 29 19  1  0
 12  5  1  0
M  CHG  4   7  -1   8  -1  11  -1  26  -1
M  END
>  <UniqueID>  (1687) 
74

>  <SMILES>  (1687) 
C=c1/c(=C/c2c([O-])[n-]c(=O)[n-]c2=O)cc(C)n1Cc1ccc(S(=O)(=O)[N-]C)cc1

>  <Energy>  (1687) 
83.73199448359155

>  <Genealogy>  (1687) 
C=c1c(=Cc2c([O-])[n-]c(=O)[n-]c2=O)cc(C)n1Cc1ccc(S(=O)(=O)[N-]C)cc1 (protonated)
C=c1/c(=C/c2c([O-])[n-]c(=O)[n-]c2=O)cc(C)n1Cc1ccc(S(=O)(=O)[N-]C)cc1 (cis-trans isomerization)
C=c1/c(=C/c2c([O-])[n-]c(=O)[n-]c2=O)cc(C)n1Cc1ccc(S(=O)(=O)[N-]C)cc1 (3D coordinates assigned)
C=c1/c(=C/c2c([O-])[n-]c(=O)[n-]c2=O)cc(C)n1Cc1ccc(S(=O)(=O)[N-]C)cc1 (optimized conformer: 83.73199448359155 kcal/mol)

>  <smiles>  (1687) 
C=c1c(=Cc2c(O)[nH]c(=O)[nH]c2=O)cc(C)n1Cc1ccc(S(=O)(=O)NC)cc1

>  <score_type>  (1687) 
oracle

>  <origin>  (1687) 
adg

>  <m_score__min__energy>  (1687) 
-16.199999999999999

>  <m_primary>  (1687) 
energy

$$$$
79:0
     RDKit          3D

 31 34  0  0  0  0  0  0  0  0999 V2000
   55.1620   26.6980   45.8310 O   0  0  0  0  0  0  0  0  0  0  0  0
   56.0700   25.8100   46.3980 C   0  0  0  0  0  0  0  0  0  0  0  0
   55.7110   24.7210   47.0980 N   0  0  0  0  0  0  0  0  0  0  0  0
   56.8990   24.2210   47.4980 C   0  0  0  0  0  0  0  0  0  0  0  0
   56.9950   23.1800   48.2000 O   0  0  0  0  0  0  0  0  0  0  0  0
   57.9760   24.9270   47.0950 N   0  0  0  0  0  0  0  0  0  0  0  0
   57.4430   25.9270   46.3720 C   0  0  0  0  0  0  0  0  0  0  0  0
   58.2430   27.0150   45.7840 C   0  0  0  0  0  0  0  0  0  0  0  0
   58.6080   28.1270   46.4500 C   0  0  0  0  0  0  0  0  0  0  0  0
   58.2000   28.4970   47.7270 C   0  0  0  0  0  0  0  0  0  0  0  0
   58.7810   29.7220   47.9880 C   0  0  0  0  0  0  0  0  0  0  0  0
   58.5800   30.5190   49.2410 C   0  0  0  0  0  0  0  0  0  0  0  0
   59.5080   30.1330   46.9280 N   0  0  0  0  0  0  0  0  0  0  0  0
   60.2110   31.3830   46.8300 C   0  0  0  0  0  0  0  0  0  0  0  0
   61.5630   31.4310   47.1890 C   0  0  0  0  0  0  0  0  0  0  0  0
   62.2750   32.6250   47.0950 C   0  0  0  0  0  0  0  0  0  0  0  0
   61.6390   33.7860   46.6590 C   0  0  0  0  0  0  0  0  0  0  0  0
   60.2770   33.7720   46.3160 C   0  0  0  0  0  0  0  0  0  0  0  0
   59.6350   35.0610   45.8740 C   0  0  0  0  0  0  0  0  0  0  0  0
   59.5590   32.5480   46.3680 C   0  0  0  0  0  0  0  0  0  0  0  0
   58.1270   32.4830   45.9920 C   0  0  0  0  0  0  0  0  0  0  0  0
   57.2730   32.8880   46.8260 O   0  0  0  0  0  0  0  0  0  0  0  0
   57.6920   31.9810   44.7070 N   0  0  0  0  0  0  0  0  0  0  0  0
   58.1340   32.7090   43.5010 C   0  0  0  0  0  0  0  0  0  0  0  0
   57.6510   32.0870   42.2180 C   0  0  0  0  0  0  0  0  0  0  0  0
   57.8310   32.6910   41.1290 O   0  0  0  0  0  0  0  0  0  0  0  0
   56.9820   30.8270   42.2180 N   0  0  0  0  0  0  0  0  0  0  0  0
   56.8680   30.0440   43.4370 C   0  0  0  0  0  0  0  0  0  0  0  0
   56.6200   30.9740   44.6190 C   0  0  0  0  0  0  0  0  0  0  0  0
   59.4190   29.1670   45.9820 C   0  0  0  0  0  0  0  0  0  0  0  0
   60.0500   29.2200   44.8000 C   0  0  0  0  0  0  0  0  0  0  0  0
  1  2  1  0
  2  3  1  0
  3  4  1  0
  4  5  2  0
  4  6  1  0
  6  7  1  0
  7  8  1  0
  8  9  2  0
  9 10  1  0
 10 11  2  0
 11 12  1  0
 11 13  1  0
 13 14  1  0
 14 15  2  0
 15 16  1  0
 16 17  2  0
 17 18  1  0
 18 19  1  0
 18 20  2  0
 20 21  1  0
 21 22  2  0
 21 23  1  0
 23 24  1  0
 24 25  1  0
 25 26  2  0
 25 27  1  0
 27 28  1  0
 28 29  1  0
 13 30  1  0
 30 31  2  0
  7  2  2  0
 30  9  1  0
 20 14  1  0
 29 23  1  0
M  CHG  3   3  -1   6  -1  27  -1
M  END
>  <UniqueID>  (1688) 
78

>  <SMILES>  (1688) 
C=c1/c(=C/c2[n-]c(=O)[n-]c2O)cc(C)n1-c1cccc(C)c1C(=O)N1CC[N-]C(=O)C1

>  <Energy>  (1688) 
130.38362486616438

>  <Genealogy>  (1688) 
C=c1c(=Cc2[n-]c(=O)[n-]c2O)cc(C)n1-c1cccc(C)c1C(=O)N1CC[N-]C(=O)C1 (protonated)
C=c1/c(=C/c2[n-]c(=O)[n-]c2O)cc(C)n1-c1cccc(C)c1C(=O)N1CC[N-]C(=O)C1 (cis-trans isomerization)
C=c1/c(=C/c2[n-]c(=O)[n-]c2O)cc(C)n1-c1cccc(C)c1C(=O)N1CC[N-]C(=O)C1 (3D coordinates assigned)
C=c1/c(=C/c2[n-]c(=O)[n-]c2O)cc(C)n1-c1cccc(C)c1C(=O)N1CC[N-]C(=O)C1 (nonaromatic ring conformer: 130.38362486616438 kcal/mol)

>  <smiles>  (1688) 
C=c1c(=Cc2[nH]c(=O)[nH]c2O)cc(C)n1-c1cccc(C)c1C(=O)N1CCNC(=O)C1

>  <score_type>  (1688) 
oracle

>  <origin>  (1688) 
adg

>  <m_score__min__energy>  (1688) 
-15.09

>  <m_primary>  (1688) 
energy

$$$$
3:0
     RDKit          3D

 37 41  0  0  0  0  0  0  0  0999 V2000
   60.3640   27.6820   46.6420 C   0  0  0  0  0  0  0  0  0  0  0  0
   59.3670   28.5570   46.4350 C   0  0  0  0  0  0  0  0  0  0  0  0
   58.1950   28.3530   45.6900 C   0  0  0  0  0  0  0  0  0  0  0  0
   57.6610   27.2290   45.1740 C   0  0  0  0  0  0  0  0  0  0  0  0
   57.1600   26.0850   45.9510 C   0  0  0  0  0  0  0  0  0  0  0  0
   57.9380   25.1390   46.5090 N   0  0  0  0  0  0  0  0  0  0  0  0
   57.0620   24.3950   47.2200 C   0  0  0  0  0  0  0  0  0  0  0  0
   57.4120   23.3830   47.8810 O   0  0  0  0  0  0  0  0  0  0  0  0
   55.7820   24.8240   47.1700 N   0  0  0  0  0  0  0  0  0  0  0  0
   55.8670   25.9030   46.3740 C   0  0  0  0  0  0  0  0  0  0  0  0
   54.7820   26.7080   46.0480 O   0  0  0  0  0  0  0  0  0  0  0  0
   57.5980   29.5970   45.5620 C   0  0  0  0  0  0  0  0  0  0  0  0
   58.3650   30.4870   46.2860 C   0  0  0  0  0  0  0  0  0  0  0  0
   58.1220   31.9640   46.3550 C   0  0  0  0  0  0  0  0  0  0  0  0
   59.4330   29.8560   46.8190 N   0  0  0  0  0  0  0  0  0  0  0  0
   60.5080   30.4950   47.5260 C   0  0  0  0  0  0  0  0  0  0  0  0
   61.4770   31.1960   46.7990 C   0  0  0  0  0  0  0  0  0  0  0  0
   62.5210   31.8480   47.4570 C   0  0  0  0  0  0  0  0  0  0  0  0
   62.6050   31.8220   48.8570 C   0  0  0  0  0  0  0  0  0  0  0  0
   63.7150   32.5190   49.5400 C   0  0  0  0  0  0  0  0  0  0  0  0
   64.8200   32.6550   48.9490 O   0  0  0  0  0  0  0  0  0  0  0  0
   63.5550   33.0850   50.8440 N   0  0  0  0  0  0  0  0  0  0  0  0
   64.3980   33.8670   51.7680 C   0  0  0  0  0  0  0  0  0  0  0  0
   63.3180   34.1750   52.7500 C   0  0  0  0  0  0  0  0  0  0  0  0
   62.4800   33.3730   51.8130 C   0  0  0  0  0  0  0  0  0  0  0  0
   61.6430   31.1030   49.5840 C   0  0  0  0  0  0  0  0  0  0  0  0
   60.5980   30.4310   48.9310 C   0  0  0  0  0  0  0  0  0  0  0  0
   59.4120   29.5390   49.8990 S   0  0  0  0  0  0  0  0  0  0  0  0
   58.7680   28.4980   49.0280 O   0  0  0  0  0  0  0  0  0  0  0  0
   60.0850   28.8670   51.0630 O   0  0  0  0  0  0  0  0  0  0  0  0
   58.1930   30.6340   50.5080 N   0  0  0  0  0  0  0  0  0  0  0  0
   58.3300   31.9790   49.8960 C   0  0  0  0  0  0  0  0  0  0  0  0
   58.9130   33.0150   50.8680 C   0  0  0  0  0  0  0  0  0  0  0  0
   58.0650   33.1490   52.0740 N   0  0  0  0  0  0  0  0  0  0  0  0
   58.8130   33.8200   53.1490 C   0  0  0  0  0  0  0  0  0  0  0  0
   57.4790   31.8660   52.5390 C   0  0  0  0  0  0  0  0  0  0  0  0
   58.2240   30.6450   51.9840 C   0  0  0  0  0  0  0  0  0  0  0  0
  1  2  2  0
  2  3  1  0
  3  4  2  0
  4  5  1  0
  5  6  1  0
  6  7  1  0
  7  8  2  0
  7  9  1  0
  9 10  1  0
 10 11  1  0
  3 12  1  0
 12 13  2  0
 13 14  1  0
 13 15  1  0
 15 16  1  0
 16 17  2  0
 17 18  1  0
 18 19  2  0
 19 20  1  0
 20 21  2  0
 20 22  1  0
 22 23  1  0
 23 24  1  0
 24 25  1  0
 19 26  1  0
 26 27  2  0
 27 28  1  0
 28 29  2  0
 28 30  2  0
 28 31  1  0
 31 32  1  0
 32 33  1  0
 33 34  1  0
 34 35  1  0
 34 36  1  0
 36 37  1  0
 15  2  1  0
 27 16  1  0
 37 31  1  0
 10  5  2  0
 25 22  1  0
M  CHG  3   6  -1   9  -1  11  -1
M  END
>  <UniqueID>  (1689) 
4

>  <SMILES>  (1689) 
C=c1/c(=C\c2[n-]c(=O)[n-]c2[O-])cc(C)n1-c1ccc(C(=O)N2CCC2)cc1S(=O)(=O)N1CCN(C)CC1

>  <Energy>  (1689) 
198.36700836576415

>  <Genealogy>  (1689) 
C=c1c(=Cc2[n-]c(=O)[n-]c2[O-])cc(C)n1-c1ccc(C(=O)N2CCC2)cc1S(=O)(=O)N1CCN(C)CC1 (protonated)
C=c1/c(=C\c2[n-]c(=O)[n-]c2[O-])cc(C)n1-c1ccc(C(=O)N2CCC2)cc1S(=O)(=O)N1CCN(C)CC1 (cis-trans isomerization)
C=c1/c(=C\c2[n-]c(=O)[n-]c2[O-])cc(C)n1-c1ccc(C(=O)N2CCC2)cc1S(=O)(=O)N1CCN(C)CC1 (3D coordinates assigned)
C=c1/c(=C\c2[n-]c(=O)[n-]c2[O-])cc(C)n1-c1ccc(C(=O)N2CCC2)cc1S(=O)(=O)N1CCN(C)CC1 (nonaromatic ring conformer: 198.36700836576415 kcal/mol)

>  <smiles>  (1689) 
C=c1c(=Cc2[nH]c(=O)[nH]c2O)cc(C)n1-c1ccc(C(=O)N2CCC2)cc1S(=O)(=O)N1CCN(C)CC1

>  <score_type>  (1689) 
oracle

>  <origin>  (1689) 
adg

>  <m_score__min__energy>  (1689) 
-16.5

>  <m_primary>  (1689) 
energy

$$$$
12:0
     RDKit          3D

 30 33  0  0  0  0  0  0  0  0999 V2000
   58.6220   28.9780   47.1570 C   0  0  0  0  0  0  0  0  0  0  0  0
   58.3790   29.1260   45.8450 C   0  0  0  0  0  0  0  0  0  0  0  0
   58.0270   28.1200   44.9310 C   0  0  0  0  0  0  0  0  0  0  0  0
   58.0610   26.7790   45.0370 C   0  0  0  0  0  0  0  0  0  0  0  0
   57.4940   25.9940   46.1470 C   0  0  0  0  0  0  0  0  0  0  0  0
   58.1790   25.0990   46.8830 N   0  0  0  0  0  0  0  0  0  0  0  0
   57.2270   24.5460   47.6660 C   0  0  0  0  0  0  0  0  0  0  0  0
   57.4820   23.6580   48.5200 O   0  0  0  0  0  0  0  0  0  0  0  0
   55.9780   25.0130   47.4540 N   0  0  0  0  0  0  0  0  0  0  0  0
   56.1640   25.9200   46.4800 C   0  0  0  0  0  0  0  0  0  0  0  0
   55.1390   26.6600   45.9000 O   0  0  0  0  0  0  0  0  0  0  0  0
   57.6100   28.7710   43.7800 C   0  0  0  0  0  0  0  0  0  0  0  0
   57.7920   30.1210   43.9960 C   0  0  0  0  0  0  0  0  0  0  0  0
   57.4780   31.1930   42.9960 C   0  0  0  0  0  0  0  0  0  0  0  0
   58.2610   30.3400   45.2450 N   0  0  0  0  0  0  0  0  0  0  0  0
   58.5140   31.6280   45.8330 C   0  0  0  0  0  0  0  0  0  0  0  0
   59.7470   31.8900   46.4480 C   0  0  0  0  0  0  0  0  0  0  0  0
   60.0050   33.1440   47.0290 C   0  0  0  0  0  0  0  0  0  0  0  0
   61.2640   33.4010   47.6820 N   0  0  0  0  0  0  0  0  0  0  0  0
   62.5240   33.2000   46.9560 C   0  0  0  0  0  0  0  0  0  0  0  0
   63.7030   33.1090   47.9320 C   0  0  0  0  0  0  0  0  0  0  0  0
   63.2960   32.3300   49.1170 N   0  0  0  0  0  0  0  0  0  0  0  0
   64.4760   31.9840   49.9370 C   0  0  0  0  0  0  0  0  0  0  0  0
   65.5780   33.0330   49.7950 C   0  0  0  0  0  0  0  0  0  0  0  0
   62.2660   33.0460   49.9160 C   0  0  0  0  0  0  0  0  0  0  0  0
   61.3150   33.9060   49.0570 C   0  0  0  0  0  0  0  0  0  0  0  0
   59.0060   34.1320   46.9940 C   0  0  0  0  0  0  0  0  0  0  0  0
   57.7780   33.8740   46.3810 C   0  0  0  0  0  0  0  0  0  0  0  0
   57.5290   32.6270   45.8010 C   0  0  0  0  0  0  0  0  0  0  0  0
   56.3250   32.3850   45.2260 F   0  0  0  0  0  0  0  0  0  0  0  0
  1  2  2  0
  2  3  1  0
  3  4  2  3
  4  5  1  0
  5  6  1  0
  6  7  1  0
  7  8  2  0
  7  9  1  0
  9 10  1  0
 10 11  1  0
  3 12  1  0
 12 13  2  0
 13 14  1  0
 13 15  1  0
 15 16  1  0
 16 17  2  0
 17 18  1  0
 18 19  1  0
 19 20  1  0
 20 21  1  0
 21 22  1  0
 22 23  1  0
 23 24  1  0
 22 25  1  0
 25 26  1  0
 18 27  2  0
 27 28  1  0
 28 29  2  0
 29 30  1  0
 15  2  1  0
 29 16  1  0
 10  5  2  0
 26 19  1  0
M  CHG  2   6  -1   9  -1
M  END
>  <UniqueID>  (1690) 
13

>  <SMILES>  (1690) 
C=c1c(=Cc2[n-]c(=O)[n-]c2O)cc(C)n1-c1cc(N2CCN(CC)CC2)ccc1F

>  <Energy>  (1690) 
138.57901188669018

>  <Genealogy>  (1690) 
C=c1c(=Cc2[n-]c(=O)[n-]c2O)cc(C)n1-c1cc(N2CCN(CC)CC2)ccc1F (protonated)
C=c1c(=Cc2[n-]c(=O)[n-]c2O)cc(C)n1-c1cc(N2CCN(CC)CC2)ccc1F (3D coordinates assigned)
C=c1c(=Cc2[n-]c(=O)[n-]c2O)cc(C)n1-c1cc(N2CCN(CC)CC2)ccc1F (nonaromatic ring conformer: 138.57901188669018 kcal/mol)

>  <smiles>  (1690) 
C=c1c(=Cc2[nH]c(=O)[nH]c2O)cc(C)n1-c1cc(N2CCN(CC)CC2)ccc1F

>  <score_type>  (1690) 
oracle

>  <origin>  (1690) 
adg

>  <m_score__min__energy>  (1690) 
-14.1

>  <m_primary>  (1690) 
energy

$$$$
38:0
     RDKit          3D

 29 32  0  0  0  0  0  0  0  0999 V2000
   56.5810   29.5940   44.1750 C   0  0  0  0  0  0  0  0  0  0  0  0
   57.7240   29.1430   44.7100 C   0  0  0  0  0  0  0  0  0  0  0  0
   58.1510   27.8110   44.8100 C   0  0  0  0  0  0  0  0  0  0  0  0
   57.4940   26.6520   44.6200 C   0  0  0  0  0  0  0  0  0  0  0  0
   57.0210   25.7470   45.6800 C   0  0  0  0  0  0  0  0  0  0  0  0
   57.6820   24.6570   46.1130 N   0  0  0  0  0  0  0  0  0  0  0  0
   56.8070   24.0790   46.9640 C   0  0  0  0  0  0  0  0  0  0  0  0
   57.0700   23.0240   47.5970 O   0  0  0  0  0  0  0  0  0  0  0  0
   55.6200   24.7130   47.0740 N   0  0  0  0  0  0  0  0  0  0  0  0
   55.7680   25.7570   46.2430 C   0  0  0  0  0  0  0  0  0  0  0  0
   54.7750   26.6950   45.9980 O   0  0  0  0  0  0  0  0  0  0  0  0
   59.4800   27.8600   45.2030 C   0  0  0  0  0  0  0  0  0  0  0  0
   59.7960   29.1900   45.3840 C   0  0  0  0  0  0  0  0  0  0  0  0
   61.1180   29.7040   45.8650 C   0  0  0  0  0  0  0  0  0  0  0  0
   58.7270   29.9640   45.1030 N   0  0  0  0  0  0  0  0  0  0  0  0
   58.7000   31.3970   45.1660 C   0  0  0  0  0  0  0  0  0  0  0  0
   58.1650   32.1270   44.0980 C   0  0  0  0  0  0  0  0  0  0  0  0
   58.1490   33.5210   44.1430 C   0  0  0  0  0  0  0  0  0  0  0  0
   58.6620   34.1910   45.2570 C   0  0  0  0  0  0  0  0  0  0  0  0
   59.1890   33.4720   46.3420 C   0  0  0  0  0  0  0  0  0  0  0  0
   59.7190   34.2110   47.5100 C   0  0  0  0  0  0  0  0  0  0  0  0
   58.9190   34.8920   48.2090 O   0  0  0  0  0  0  0  0  0  0  0  0
   61.1160   34.1220   47.8830 N   0  0  2  0  0  0  0  0  0  0  0  0
   61.9790   33.8270   46.7440 C   0  0  0  0  0  0  0  0  0  0  0  0
   63.1180   32.9840   47.2940 C   0  0  0  0  0  0  0  0  0  0  0  0
   62.7580   32.6010   48.6560 N   0  0  0  0  0  0  0  0  0  0  0  0
   61.3740   33.0370   48.8340 C   0  0  0  0  0  0  0  0  0  0  0  0
   59.2180   32.0660   46.2840 C   0  0  0  0  0  0  0  0  0  0  0  0
   59.7910   31.3430   47.2810 F   0  0  0  0  0  0  0  0  0  0  0  0
  1  2  2  0
  2  3  1  0
  3  4  2  3
  4  5  1  0
  5  6  1  0
  6  7  1  0
  7  8  2  0
  7  9  1  0
  9 10  1  0
 10 11  1  0
  3 12  1  0
 12 13  2  0
 13 14  1  0
 13 15  1  0
 15 16  1  0
 16 17  2  0
 17 18  1  0
 18 19  2  0
 19 20  1  0
 20 21  1  0
 21 22  2  0
 23 21  1  6
 23 24  1  0
 24 25  1  0
 25 26  1  0
 26 27  1  0
 20 28  2  0
 28 29  1  0
 15  2  1  0
 28 16  1  0
 10  5  2  0
 27 23  1  0
M  CHG  4   6  -1   9  -1  11  -1  23   1
M  END
>  <UniqueID>  (1691) 
37

>  <SMILES>  (1691) 
C=c1c(=Cc2[n-]c(=O)[n-]c2[O-])cc(C)n1-c1cccc(C(=O)[N@@H+]2CCNC2)c1F

>  <Energy>  (1691) 
134.6743592797433

>  <Genealogy>  (1691) 
C=c1c(=Cc2[n-]c(=O)[n-]c2[O-])cc(C)n1-c1cccc(C(=O)[NH+]2CCNC2)c1F (protonated)
C=c1c(=Cc2[n-]c(=O)[n-]c2[O-])cc(C)n1-c1cccc(C(=O)[N@@H+]2CCNC2)c1F (chirality)
C=c1c(=Cc2[n-]c(=O)[n-]c2[O-])cc(C)n1-c1cccc(C(=O)[N@@H+]2CCNC2)c1F (3D coordinates assigned)
C=c1c(=Cc2[n-]c(=O)[n-]c2[O-])cc(C)n1-c1cccc(C(=O)[N@@H+]2CCNC2)c1F (nonaromatic ring conformer: 134.6743592797433 kcal/mol)

>  <smiles>  (1691) 
C=c1c(=Cc2[nH]c(=O)[nH]c2O)cc(C)n1-c1cccc(C(=O)N2CCNC2)c1F

>  <score_type>  (1691) 
oracle

>  <origin>  (1691) 
adg

>  <m_score__min__energy>  (1691) 
-15.550000000000001

>  <m_primary>  (1691) 
energy

$$$$
45:0
     RDKit          3D

 37 41  0  0  0  0  0  0  0  0999 V2000
   56.6900   26.5430   46.7230 C   0  0  0  0  0  0  0  0  0  0  0  0
   57.0800   26.2120   45.4820 C   0  0  0  0  0  0  0  0  0  0  0  0
   56.7890   25.0290   44.7830 C   0  0  0  0  0  0  0  0  0  0  0  0
   56.1940   23.8880   45.1830 C   0  0  0  0  0  0  0  0  0  0  0  0
   54.7450   23.6820   45.3200 C   0  0  0  0  0  0  0  0  0  0  0  0
   54.1620   22.4710   45.3500 N   0  0  0  0  0  0  0  0  0  0  0  0
   52.8650   22.7580   45.6020 C   0  0  0  0  0  0  0  0  0  0  0  0
   51.9800   21.8680   45.6910 O   0  0  0  0  0  0  0  0  0  0  0  0
   52.5930   24.0700   45.7650 N   0  0  0  0  0  0  0  0  0  0  0  0
   53.7960   24.6410   45.5970 C   0  0  0  0  0  0  0  0  0  0  0  0
   54.0260   26.0060   45.7150 O   0  0  0  0  0  0  0  0  0  0  0  0
   57.2650   25.2140   43.4950 C   0  0  0  0  0  0  0  0  0  0  0  0
   57.8620   26.4560   43.4610 C   0  0  0  0  0  0  0  0  0  0  0  0
   58.5370   27.0500   42.2640 C   0  0  0  0  0  0  0  0  0  0  0  0
   57.7580   27.0580   44.6650 N   0  0  0  0  0  0  0  0  0  0  0  0
   58.2120   28.3860   44.9750 C   0  0  0  0  0  0  0  0  0  0  0  0
   57.3350   29.4750   44.8680 C   0  0  0  0  0  0  0  0  0  0  0  0
   57.7690   30.7640   45.1890 C   0  0  0  0  0  0  0  0  0  0  0  0
   59.0890   30.9800   45.6250 C   0  0  0  0  0  0  0  0  0  0  0  0
   59.5360   32.3440   45.9860 C   0  0  0  0  0  0  0  0  0  0  0  0
   58.9100   33.3310   45.5180 O   0  0  0  0  0  0  0  0  0  0  0  0
   60.6570   32.5670   46.8680 N   0  0  0  0  0  0  0  0  0  0  0  0
   60.9210   31.6330   47.9760 C   0  0  0  0  0  0  0  0  0  0  0  0
   61.5790   32.3430   49.1630 C   0  0  0  0  0  0  0  0  0  0  0  0
   62.7580   33.1120   48.7290 N   0  0  0  0  0  0  0  0  0  0  0  0
   63.8680   33.3180   49.6350 C   0  0  0  0  0  0  0  0  0  0  0  0
   63.7210   34.1120   50.7910 C   0  0  0  0  0  0  0  0  0  0  0  0
   64.7950   34.2980   51.6680 C   0  0  0  0  0  0  0  0  0  0  0  0
   66.0450   33.7060   51.4000 C   0  0  0  0  0  0  0  0  0  0  0  0
   67.1540   33.8660   52.2450 O   0  0  0  0  0  0  0  0  0  0  0  0
   68.5080   33.9120   51.7960 C   0  0  0  0  0  0  0  0  0  0  0  0
   66.1970   32.9290   50.2460 C   0  0  0  0  0  0  0  0  0  0  0  0
   65.1230   32.7320   49.3730 C   0  0  0  0  0  0  0  0  0  0  0  0
   62.7750   33.7350   47.3940 C   0  0  0  0  0  0  0  0  0  0  0  0
   61.3620   33.8560   46.8120 C   0  0  0  0  0  0  0  0  0  0  0  0
   59.9770   29.8920   45.6870 C   0  0  0  0  0  0  0  0  0  0  0  0
   59.5390   28.6030   45.3690 C   0  0  0  0  0  0  0  0  0  0  0  0
  1  2  2  0
  2  3  1  0
  3  4  2  3
  4  5  1  0
  5  6  1  0
  6  7  1  0
  7  8  2  0
  7  9  1  0
  9 10  1  0
 10 11  1  0
  3 12  1  0
 12 13  2  0
 13 14  1  0
 13 15  1  0
 15 16  1  0
 16 17  2  0
 17 18  1  0
 18 19  2  0
 19 20  1  0
 20 21  2  0
 20 22  1  0
 22 23  1  0
 23 24  1  0
 24 25  1  0
 25 26  1  0
 26 27  2  0
 27 28  1  0
 28 29  2  0
 29 30  1  0
 30 31  1  0
 29 32  1  0
 32 33  2  0
 25 34  1  0
 34 35  1  0
 19 36  1  0
 36 37  2  0
 15  2  1  0
 37 16  1  0
 10  5  2  0
 35 22  1  0
 33 26  1  0
M  CHG  3   6  -1   9  -1  11  -1
M  END
>  <UniqueID>  (1692) 
43

>  <SMILES>  (1692) 
C=c1c(=Cc2[n-]c(=O)[n-]c2[O-])cc(C)n1-c1ccc(C(=O)N2CCN(c3ccc(OC)cc3)CC2)cc1

>  <Energy>  (1692) 
152.25064195136395

>  <Genealogy>  (1692) 
C=c1c(=Cc2[n-]c(=O)[n-]c2[O-])cc(C)n1-c1ccc(C(=O)N2CCN(c3ccc(OC)cc3)CC2)cc1 (protonated)
C=c1c(=Cc2[n-]c(=O)[n-]c2[O-])cc(C)n1-c1ccc(C(=O)N2CCN(c3ccc(OC)cc3)CC2)cc1 (3D coordinates assigned)
C=c1c(=Cc2[n-]c(=O)[n-]c2[O-])cc(C)n1-c1ccc(C(=O)N2CCN(c3ccc(OC)cc3)CC2)cc1 (nonaromatic ring conformer: 152.25064195136395 kcal/mol)

>  <smiles>  (1692) 
C=c1c(=Cc2[nH]c(=O)[nH]c2O)cc(C)n1-c1ccc(C(=O)N2CCN(c3ccc(OC)cc3)CC2)cc1

>  <score_type>  (1692) 
oracle

>  <origin>  (1692) 
adg

>  <m_score__min__energy>  (1692) 
-15.539999999999999

>  <m_primary>  (1692) 
energy

$$$$
46:0
     RDKit          3D

 31 34  0  0  0  0  0  0  0  0999 V2000
   59.5880   27.6010   46.4800 C   0  0  0  0  0  0  0  0  0  0  0  0
   58.8250   28.3440   45.6610 C   0  0  0  0  0  0  0  0  0  0  0  0
   57.8830   27.8670   44.7390 C   0  0  0  0  0  0  0  0  0  0  0  0
   57.5310   26.5790   44.5340 C   0  0  0  0  0  0  0  0  0  0  0  0
   57.0380   25.6440   45.5690 C   0  0  0  0  0  0  0  0  0  0  0  0
   57.7080   24.5910   46.0690 N   0  0  0  0  0  0  0  0  0  0  0  0
   56.8660   24.0890   46.9980 C   0  0  0  0  0  0  0  0  0  0  0  0
   57.1450   23.0760   47.6900 O   0  0  0  0  0  0  0  0  0  0  0  0
   55.7030   24.7620   47.1280 N   0  0  0  0  0  0  0  0  0  0  0  0
   55.8300   25.7440   46.2220 C   0  0  0  0  0  0  0  0  0  0  0  0
   54.8610   26.7120   45.9930 O   0  0  0  0  0  0  0  0  0  0  0  0
   57.3770   28.9920   44.0930 C   0  0  0  0  0  0  0  0  0  0  0  0
   58.0120   30.0870   44.6430 C   0  0  0  0  0  0  0  0  0  0  0  0
   57.7640   31.5080   44.2340 C   0  0  0  0  0  0  0  0  0  0  0  0
   58.8950   29.6970   45.5880 N   0  0  0  0  0  0  0  0  0  0  0  0
   59.7240   30.5720   46.3740 C   0  0  0  0  0  0  0  0  0  0  0  0
   61.1120   30.3790   46.4160 C   0  0  0  0  0  0  0  0  0  0  0  0
   61.9170   31.2200   47.1900 C   0  0  0  0  0  0  0  0  0  0  0  0
   61.3440   32.2730   47.9240 C   0  0  0  0  0  0  0  0  0  0  0  0
   62.1990   33.1530   48.7500 C   0  0  0  0  0  0  0  0  0  0  0  0
   61.9230   34.3820   48.8240 O   0  0  0  0  0  0  0  0  0  0  0  0
   63.3260   32.6340   49.4810 N   0  0  0  0  0  0  0  0  0  0  0  0
   64.5230   33.4620   49.6750 C   0  0  0  0  0  0  0  0  0  0  0  0
   64.7340   33.7650   51.1670 C   0  0  0  0  0  0  0  0  0  0  0  0
   64.3670   32.5800   52.0960 C   0  0  0  0  0  0  0  0  0  0  0  0
   63.1590   32.8480   52.7230 F   0  0  0  0  0  0  0  0  0  0  0  0
   65.3380   32.4480   53.0760 F   0  0  0  0  0  0  0  0  0  0  0  0
   64.2480   31.2530   51.3330 C   0  0  0  0  0  0  0  0  0  0  0  0
   63.2010   31.3630   50.2140 C   0  0  0  0  0  0  0  0  0  0  0  0
   59.9510   32.4480   47.8960 C   0  0  0  0  0  0  0  0  0  0  0  0
   59.1470   31.6060   47.1230 C   0  0  0  0  0  0  0  0  0  0  0  0
  1  2  2  0
  2  3  1  0
  3  4  2  0
  4  5  1  0
  5  6  1  0
  6  7  1  0
  7  8  2  0
  7  9  1  0
  9 10  1  0
 10 11  1  0
  3 12  1  0
 12 13  2  0
 13 14  1  0
 13 15  1  0
 15 16  1  0
 16 17  2  0
 17 18  1  0
 18 19  2  0
 19 20  1  0
 20 21  2  0
 20 22  1  0
 22 23  1  0
 23 24  1  0
 24 25  1  0
 25 26  1  0
 25 27  1  0
 25 28  1  0
 28 29  1  0
 19 30  1  0
 30 31  2  0
 15  2  1  0
 31 16  1  0
 10  5  2  0
 29 22  1  0
M  CHG  3   6  -1   9  -1  11  -1
M  END
>  <UniqueID>  (1693) 
44

>  <SMILES>  (1693) 
C=c1/c(=C/c2[n-]c(=O)[n-]c2[O-])cc(C)n1-c1ccc(C(=O)N2CCC(F)(F)CC2)cc1

>  <Energy>  (1693) 
128.80196125073735

>  <Genealogy>  (1693) 
C=c1c(=Cc2[n-]c(=O)[n-]c2[O-])cc(C)n1-c1ccc(C(=O)N2CCC(F)(F)CC2)cc1 (protonated)
C=c1/c(=C/c2[n-]c(=O)[n-]c2[O-])cc(C)n1-c1ccc(C(=O)N2CCC(F)(F)CC2)cc1 (cis-trans isomerization)
C=c1/c(=C/c2[n-]c(=O)[n-]c2[O-])cc(C)n1-c1ccc(C(=O)N2CCC(F)(F)CC2)cc1 (3D coordinates assigned)
C=c1/c(=C/c2[n-]c(=O)[n-]c2[O-])cc(C)n1-c1ccc(C(=O)N2CCC(F)(F)CC2)cc1 (nonaromatic ring conformer: 128.80196125073735 kcal/mol)

>  <smiles>  (1693) 
C=c1c(=Cc2[nH]c(=O)[nH]c2O)cc(C)n1-c1ccc(C(=O)N2CCC(F)(F)CC2)cc1

>  <score_type>  (1693) 
oracle

>  <origin>  (1693) 
adg

>  <m_score__min__energy>  (1693) 
-15.67

>  <m_primary>  (1693) 
energy

$$$$
47:0
     RDKit          3D

 30 33  0  0  0  0  0  0  0  0999 V2000
   59.1870   27.7470   47.8370 C   0  0  0  0  0  0  0  0  0  0  0  0
   58.5180   27.9330   46.6890 C   0  0  0  0  0  0  0  0  0  0  0  0
   57.8500   26.9520   45.9490 C   0  0  0  0  0  0  0  0  0  0  0  0
   57.6860   25.6550   46.2740 C   0  0  0  0  0  0  0  0  0  0  0  0
   56.4470   24.8940   46.0310 C   0  0  0  0  0  0  0  0  0  0  0  0
   56.4320   23.5770   45.7580 N   0  0  0  0  0  0  0  0  0  0  0  0
   55.1260   23.3190   45.5270 C   0  0  0  0  0  0  0  0  0  0  0  0
   54.7030   22.1690   45.2450 O   0  0  0  0  0  0  0  0  0  0  0  0
   54.3130   24.3930   45.6100 N   0  0  0  0  0  0  0  0  0  0  0  0
   55.1650   25.3850   45.9180 C   0  0  0  0  0  0  0  0  0  0  0  0
   54.7810   26.7150   46.0430 O   0  0  0  0  0  0  0  0  0  0  0  0
   57.3420   27.5900   44.8250 C   0  0  0  0  0  0  0  0  0  0  0  0
   57.7120   28.9170   44.9210 C   0  0  0  0  0  0  0  0  0  0  0  0
   57.3740   29.9740   43.9150 C   0  0  0  0  0  0  0  0  0  0  0  0
   58.4290   29.1260   46.0490 N   0  0  0  0  0  0  0  0  0  0  0  0
   58.9760   30.3850   46.4730 C   0  0  0  0  0  0  0  0  0  0  0  0
   58.1420   31.3630   47.0270 C   0  0  0  0  0  0  0  0  0  0  0  0
   58.6680   32.5860   47.4490 C   0  0  0  0  0  0  0  0  0  0  0  0
   60.0410   32.8570   47.3130 C   0  0  0  0  0  0  0  0  0  0  0  0
   60.6480   34.1380   47.7700 C   0  0  0  0  0  0  0  0  0  0  0  0
   60.1600   35.2110   47.3180 O   0  0  0  0  0  0  0  0  0  0  0  0
   61.7500   34.2220   48.7120 N   0  0  0  0  0  0  0  0  0  0  0  0
   61.4920   33.5200   49.9870 C   0  0  0  0  0  0  0  0  0  0  0  0
   62.6640   33.7430   50.9710 C   0  0  0  0  0  0  0  0  0  0  0  0
   63.8480   34.2040   50.3370 O   0  0  0  0  0  0  0  0  0  0  0  0
   64.0870   33.4650   49.1550 C   0  0  0  0  0  0  0  0  0  0  0  0
   63.0250   33.8010   48.0900 C   0  0  0  0  0  0  0  0  0  0  0  0
   60.8770   31.8630   46.7770 C   0  0  0  0  0  0  0  0  0  0  0  0
   60.3510   30.6380   46.3560 C   0  0  0  0  0  0  0  0  0  0  0  0
   61.1800   29.6920   45.8480 F   0  0  0  0  0  0  0  0  0  0  0  0
  1  2  2  0
  2  3  1  0
  3  4  2  0
  4  5  1  0
  5  6  1  0
  6  7  1  0
  7  8  2  0
  7  9  1  0
  9 10  1  0
 10 11  1  0
  3 12  1  0
 12 13  2  0
 13 14  1  0
 13 15  1  0
 15 16  1  0
 16 17  2  0
 17 18  1  0
 18 19  2  0
 19 20  1  0
 20 21  2  0
 20 22  1  0
 22 23  1  0
 23 24  1  0
 24 25  1  0
 25 26  1  0
 26 27  1  0
 19 28  1  0
 28 29  2  0
 29 30  1  0
 15  2  1  0
 29 16  1  0
 10  5  2  0
 27 22  1  0
M  CHG  4   6  -1   9  -1  11  -1  22   1
M  END
>  <UniqueID>  (1694) 
45

>  <SMILES>  (1694) 
C=c1/c(=C/c2[n-]c(=O)[n-]c2[O-])cc(C)n1-c1ccc(C(=O)[NH+]2CCOCC2)cc1F

>  <Energy>  (1694) 
142.28591415905325

>  <Genealogy>  (1694) 
C=c1c(=Cc2[n-]c(=O)[n-]c2[O-])cc(C)n1-c1ccc(C(=O)[NH+]2CCOCC2)cc1F (protonated)
C=c1/c(=C/c2[n-]c(=O)[n-]c2[O-])cc(C)n1-c1ccc(C(=O)[NH+]2CCOCC2)cc1F (cis-trans isomerization)
C=c1/c(=C/c2[n-]c(=O)[n-]c2[O-])cc(C)n1-c1ccc(C(=O)[NH+]2CCOCC2)cc1F (3D coordinates assigned)
C=c1/c(=C/c2[n-]c(=O)[n-]c2[O-])cc(C)n1-c1ccc(C(=O)[NH+]2CCOCC2)cc1F (nonaromatic ring conformer: 142.28591415905325 kcal/mol)

>  <smiles>  (1694) 
C=c1c(=Cc2[nH]c(=O)[nH]c2O)cc(C)n1-c1ccc(C(=O)N2CCOCC2)cc1F

>  <score_type>  (1694) 
oracle

>  <origin>  (1694) 
adg

>  <m_score__min__energy>  (1694) 
-14.33

>  <m_primary>  (1694) 
energy

$$$$
49:0
     RDKit          3D

 27 29  0  0  0  0  0  0  0  0999 V2000
   59.0050   33.6570   45.8670 C   0  0  0  0  0  0  0  0  0  0  0  0
   58.3180   32.5260   46.1810 N   0  0  0  0  0  0  0  0  0  0  0  0
   57.6950   31.7660   45.2370 C   0  0  0  0  0  0  0  0  0  0  0  0
   57.0190   30.7250   45.6300 N   0  0  0  0  0  0  0  0  0  0  0  0
   56.6470   29.3080   44.6870 S   0  0  0  0  0  0  0  0  0  0  0  0
   55.1520   29.1740   44.5830 O   0  0  0  0  0  0  0  0  0  0  0  0
   57.2230   29.4690   43.3100 O   0  0  0  0  0  0  0  0  0  0  0  0
   57.3490   27.8650   45.4300 C   0  0  0  0  0  0  0  0  0  0  0  0
   58.7390   27.6930   45.4250 C   0  0  0  0  0  0  0  0  0  0  0  0
   59.3030   26.5050   45.8930 C   0  0  0  0  0  0  0  0  0  0  0  0
   58.4830   25.4640   46.3350 C   0  0  0  0  0  0  0  0  0  0  0  0
   59.0570   24.3010   46.7350 F   0  0  0  0  0  0  0  0  0  0  0  0
   57.0840   25.6190   46.3500 C   0  0  0  0  0  0  0  0  0  0  0  0
   56.1880   24.4480   46.6810 C   0  0  0  0  0  0  0  0  0  0  0  0
   56.2920   23.4000   45.5960 C   0  0  0  0  0  0  0  0  0  0  0  0
   55.7390   23.6460   44.3310 C   0  0  0  0  0  0  0  0  0  0  0  0
   55.7500   22.6770   43.3800 N   0  0  0  0  0  0  0  0  0  0  0  0
   56.2930   21.4580   43.6300 C   0  0  0  0  0  0  0  0  0  0  0  0
   56.2850   20.5690   42.7380 O   0  0  0  0  0  0  0  0  0  0  0  0
   56.8440   21.1930   44.8420 N   0  0  0  0  0  0  0  0  0  0  0  0
   56.8590   22.1290   45.8250 C   0  0  0  0  0  0  0  0  0  0  0  0
   57.3810   21.8440   46.9360 O   0  0  0  0  0  0  0  0  0  0  0  0
   56.5230   26.8430   45.9300 C   0  0  0  0  0  0  0  0  0  0  0  0
   55.1460   27.0350   45.9990 O   0  0  0  0  0  0  0  0  0  0  0  0
   57.7820   32.1530   43.8820 C   0  0  0  0  0  0  0  0  0  0  0  0
   58.4690   33.3200   43.5440 C   0  0  0  0  0  0  0  0  0  0  0  0
   59.0840   34.0820   44.5390 C   0  0  0  0  0  0  0  0  0  0  0  0
  1  2  1  0
  2  3  1  0
  3  4  2  0
  4  5  1  0
  5  6  2  0
  5  7  2  0
  5  8  1  0
  8  9  2  0
  9 10  1  0
 10 11  2  0
 11 12  1  0
 11 13  1  0
 13 14  1  0
 14 15  1  0
 15 16  2  0
 16 17  1  0
 17 18  1  0
 18 19  2  0
 18 20  1  0
 20 21  1  0
 21 22  2  0
 13 23  2  0
 23 24  1  0
  3 25  1  0
 25 26  2  0
 26 27  1  0
 27  1  2  0
 23  8  1  0
 21 15  1  0
M  CHG  4   2  -1  17  -1  20  -1  24  -1
M  END
>  <UniqueID>  (1695) 
47

>  <SMILES>  (1695) 
O=c1[n-]cc(Cc2c(F)ccc(S(=O)(=O)/N=c3\cccc[n-]3)c2[O-])c(=O)[n-]1

>  <Energy>  (1695) 
47.339476876943905

>  <Genealogy>  (1695) 
O=c1[n-]cc(Cc2c(F)ccc(S(=O)(=O)N=c3cccc[n-]3)c2[O-])c(=O)[n-]1 (protonated)
O=c1[n-]cc(Cc2c(F)ccc(S(=O)(=O)/N=c3\cccc[n-]3)c2[O-])c(=O)[n-]1 (cis-trans isomerization)
O=c1[n-]cc(Cc2c(F)ccc(S(=O)(=O)/N=c3\cccc[n-]3)c2[O-])c(=O)[n-]1 (3D coordinates assigned)
O=c1[n-]cc(Cc2c(F)ccc(S(=O)(=O)/N=c3\cccc[n-]3)c2[O-])c(=O)[n-]1 (optimized conformer: 47.339476876943905 kcal/mol)

>  <smiles>  (1695) 
O=c1[nH]cc(Cc2c(F)ccc(S(=O)(=O)N=c3cccc[nH]3)c2O)c(=O)[nH]1

>  <score_type>  (1695) 
oracle

>  <origin>  (1695) 
adg

>  <m_score__min__energy>  (1695) 
-17.030000000000001

>  <m_primary>  (1695) 
energy

$$$$
51:0
     RDKit          3D

 28 31  0  0  0  0  0  0  0  0999 V2000
   60.0090   29.3220   47.6180 C   0  0  0  0  0  0  0  0  0  0  0  0
   59.3070   29.7310   46.5500 C   0  0  0  0  0  0  0  0  0  0  0  0
   58.5490   28.9370   45.6700 C   0  0  0  0  0  0  0  0  0  0  0  0
   58.4350   27.5980   45.5590 C   0  0  0  0  0  0  0  0  0  0  0  0
   57.2080   26.8190   45.7840 C   0  0  0  0  0  0  0  0  0  0  0  0
   57.1950   25.6020   46.3530 N   0  0  0  0  0  0  0  0  0  0  0  0
   55.8770   25.3320   46.4810 C   0  0  0  0  0  0  0  0  0  0  0  0
   55.4510   24.2520   46.9670 O   0  0  0  0  0  0  0  0  0  0  0  0
   55.0530   26.3150   46.0580 N   0  0  0  0  0  0  0  0  0  0  0  0
   55.9110   27.2550   45.6340 C   0  0  0  0  0  0  0  0  0  0  0  0
   55.5180   28.4960   45.1460 O   0  0  0  0  0  0  0  0  0  0  0  0
   57.8790   29.8160   44.8360 C   0  0  0  0  0  0  0  0  0  0  0  0
   58.2780   31.0880   45.1880 C   0  0  0  0  0  0  0  0  0  0  0  0
   57.8200   32.3470   44.5170 C   0  0  0  0  0  0  0  0  0  0  0  0
   59.1500   31.0370   46.2170 N   0  0  0  0  0  0  0  0  0  0  0  0
   59.7320   32.1800   46.8690 C   0  0  0  0  0  0  0  0  0  0  0  0
   58.9130   33.2310   47.2960 C   0  0  0  0  0  0  0  0  0  0  0  0
   59.4670   34.3300   47.9530 C   0  0  0  0  0  0  0  0  0  0  0  0
   60.8430   34.3880   48.1840 C   0  0  0  0  0  0  0  0  0  0  0  0
   61.6850   33.3480   47.7540 C   0  0  0  0  0  0  0  0  0  0  0  0
   63.1420   33.4390   48.0090 C   0  0  0  0  0  0  0  0  0  0  0  0
   63.9280   33.5150   47.0220 O   0  0  0  0  0  0  0  0  0  0  0  0
   63.6600   33.4670   49.3630 N   0  0  0  0  0  0  0  0  0  0  0  0
   64.9520   32.7820   49.4940 C   0  0  0  0  0  0  0  0  0  0  0  0
   64.3780   31.7220   50.4230 C   0  0  0  0  0  0  0  0  0  0  0  0
   63.0630   32.4690   50.2640 C   0  0  0  0  0  0  0  0  0  0  0  0
   61.1170   32.2300   47.1080 C   0  0  0  0  0  0  0  0  0  0  0  0
   61.8840   31.1650   46.7600 F   0  0  0  0  0  0  0  0  0  0  0  0
  1  2  2  0
  2  3  1  0
  3  4  2  3
  4  5  1  0
  5  6  1  0
  6  7  1  0
  7  8  2  0
  7  9  1  0
  9 10  1  0
 10 11  1  0
  3 12  1  0
 12 13  2  0
 13 14  1  0
 13 15  1  0
 15 16  1  0
 16 17  2  0
 17 18  1  0
 18 19  2  0
 19 20  1  0
 20 21  1  0
 21 22  2  0
 21 23  1  0
 23 24  1  0
 24 25  1  0
 25 26  1  0
 20 27  2  0
 27 28  1  0
 15  2  1  0
 27 16  1  0
 10  5  2  0
 26 23  1  0
M  CHG  4   6  -1   9  -1  11  -1  23   1
M  END
>  <UniqueID>  (1696) 
49

>  <SMILES>  (1696) 
C=c1c(=Cc2[n-]c(=O)[n-]c2[O-])cc(C)n1-c1cccc(C(=O)[NH+]2CCC2)c1F

>  <Energy>  (1696) 
202.21905468195942

>  <Genealogy>  (1696) 
C=c1c(=Cc2[n-]c(=O)[n-]c2[O-])cc(C)n1-c1cccc(C(=O)[NH+]2CCC2)c1F (protonated)
C=c1c(=Cc2[n-]c(=O)[n-]c2[O-])cc(C)n1-c1cccc(C(=O)[NH+]2CCC2)c1F (3D coordinates assigned)
C=c1c(=Cc2[n-]c(=O)[n-]c2[O-])cc(C)n1-c1cccc(C(=O)[NH+]2CCC2)c1F (nonaromatic ring conformer: 202.21905468195942 kcal/mol)

>  <smiles>  (1696) 
C=c1c(=Cc2[nH]c(=O)[nH]c2O)cc(C)n1-c1cccc(C(=O)N2CCC2)c1F

>  <score_type>  (1696) 
oracle

>  <origin>  (1696) 
adg

>  <m_score__min__energy>  (1696) 
-14.98

>  <m_primary>  (1696) 
energy

$$$$
56:0
     RDKit          3D

 31 34  0  0  0  0  0  0  0  0999 V2000
   58.4100   30.0100   44.3200 C   0  0  0  0  0  0  0  0  0  0  0  0
   58.5770   29.6730   45.6100 C   0  0  0  0  0  0  0  0  0  0  0  0
   58.3730   28.4120   46.1980 C   0  0  0  0  0  0  0  0  0  0  0  0
   58.0460   27.2170   45.6670 C   0  0  0  0  0  0  0  0  0  0  0  0
   57.3900   26.1110   46.3700 C   0  0  0  0  0  0  0  0  0  0  0  0
   58.0510   25.0620   46.8930 N   0  0  0  0  0  0  0  0  0  0  0  0
   57.0580   24.2590   47.3330 C   0  0  0  0  0  0  0  0  0  0  0  0
   57.2800   23.1620   47.9090 O   0  0  0  0  0  0  0  0  0  0  0  0
   55.8100   24.7190   47.1000 N   0  0  0  0  0  0  0  0  0  0  0  0
   56.0390   25.8860   46.4790 C   0  0  0  0  0  0  0  0  0  0  0  0
   55.0340   26.7150   46.0000 O   0  0  0  0  0  0  0  0  0  0  0  0
   58.5290   28.5950   47.5630 C   0  0  0  0  0  0  0  0  0  0  0  0
   58.8330   29.9240   47.7620 C   0  0  0  0  0  0  0  0  0  0  0  0
   59.0070   30.5440   49.1170 C   0  0  0  0  0  0  0  0  0  0  0  0
   58.8810   30.5790   46.5780 N   0  0  0  0  0  0  0  0  0  0  0  0
   59.0940   31.9940   46.4020 C   0  0  0  0  0  0  0  0  0  0  0  0
   58.0530   32.7900   45.8920 C   0  0  0  0  0  0  0  0  0  0  0  0
   56.8450   32.2390   45.6110 F   0  0  0  0  0  0  0  0  0  0  0  0
   58.2610   34.1480   45.6400 C   0  0  0  0  0  0  0  0  0  0  0  0
   59.5100   34.7230   45.8810 C   0  0  0  0  0  0  0  0  0  0  0  0
   60.5550   33.9430   46.3810 C   0  0  0  0  0  0  0  0  0  0  0  0
   60.3560   32.5820   46.6590 C   0  0  0  0  0  0  0  0  0  0  0  0
   61.4790   31.7890   47.1980 C   0  0  0  0  0  0  0  0  0  0  0  0
   61.6890   30.6300   46.7470 O   0  0  0  0  0  0  0  0  0  0  0  0
   62.3310   32.3190   48.2250 N   0  0  0  0  0  0  0  0  0  0  0  0
   61.8680   32.2860   49.6200 C   0  0  0  0  0  0  0  0  0  0  0  0
   62.4400   33.4490   50.3650 C   0  0  0  0  0  0  0  0  0  0  0  0
   61.7850   34.0180   51.2780 O   0  0  0  0  0  0  0  0  0  0  0  0
   63.7500   33.8990   50.0340 N   0  0  0  0  0  0  0  0  0  0  0  0
   64.5430   33.1240   49.0900 C   0  0  0  0  0  0  0  0  0  0  0  0
   63.6970   32.7460   47.8640 C   0  0  0  0  0  0  0  0  0  0  0  0
  1  2  2  0
  2  3  1  0
  3  4  2  0
  4  5  1  0
  5  6  1  0
  6  7  1  0
  7  8  2  0
  7  9  1  0
  9 10  1  0
 10 11  1  0
  3 12  1  0
 12 13  2  0
 13 14  1  0
 13 15  1  0
 15 16  1  0
 16 17  2  0
 17 18  1  0
 17 19  1  0
 19 20  2  0
 20 21  1  0
 21 22  2  0
 22 23  1  0
 23 24  2  0
 23 25  1  0
 25 26  1  0
 26 27  1  0
 27 28  2  0
 27 29  1  0
 29 30  1  0
 30 31  1  0
 15  2  1  0
 22 16  1  0
 31 25  1  0
 10  5  2  0
M  CHG  4   6  -1   9  -1  11  -1  29  -1
M  END
>  <UniqueID>  (1697) 
54

>  <SMILES>  (1697) 
C=c1/c(=C\c2[n-]c(=O)[n-]c2[O-])cc(C)n1-c1c(F)cccc1C(=O)N1CC[N-]C(=O)C1

>  <Energy>  (1697) 
130.63411969157738

>  <Genealogy>  (1697) 
C=c1c(=Cc2[n-]c(=O)[n-]c2[O-])cc(C)n1-c1c(F)cccc1C(=O)N1CC[N-]C(=O)C1 (protonated)
C=c1/c(=C\c2[n-]c(=O)[n-]c2[O-])cc(C)n1-c1c(F)cccc1C(=O)N1CC[N-]C(=O)C1 (cis-trans isomerization)
C=c1/c(=C\c2[n-]c(=O)[n-]c2[O-])cc(C)n1-c1c(F)cccc1C(=O)N1CC[N-]C(=O)C1 (3D coordinates assigned)
C=c1/c(=C\c2[n-]c(=O)[n-]c2[O-])cc(C)n1-c1c(F)cccc1C(=O)N1CC[N-]C(=O)C1 (nonaromatic ring conformer: 130.63411969157738 kcal/mol)

>  <smiles>  (1697) 
C=c1c(=Cc2[nH]c(=O)[nH]c2O)cc(C)n1-c1c(F)cccc1C(=O)N1CCNC(=O)C1

>  <score_type>  (1697) 
oracle

>  <origin>  (1697) 
adg

>  <m_score__min__energy>  (1697) 
-17.120000000000001

>  <m_primary>  (1697) 
energy

$$$$
74:0
     RDKit          3D

 29 32  0  0  0  0  0  0  0  0999 V2000
   58.5700   30.0550   44.3090 C   0  0  0  0  0  0  0  0  0  0  0  0
   58.5710   29.6990   45.6020 C   0  0  0  0  0  0  0  0  0  0  0  0
   58.1630   28.4700   46.1310 C   0  0  0  0  0  0  0  0  0  0  0  0
   57.7480   27.3860   45.4480 C   0  0  0  0  0  0  0  0  0  0  0  0
   57.1860   26.1780   46.0780 C   0  0  0  0  0  0  0  0  0  0  0  0
   57.9280   25.1100   46.4170 N   0  0  0  0  0  0  0  0  0  0  0  0
   57.0160   24.2240   46.8710 C   0  0  0  0  0  0  0  0  0  0  0  0
   57.3330   23.0840   47.3010 O   0  0  0  0  0  0  0  0  0  0  0  0
   55.7370   24.6510   46.8190 N   0  0  0  0  0  0  0  0  0  0  0  0
   55.8590   25.8850   46.3040 C   0  0  0  0  0  0  0  0  0  0  0  0
   54.7750   26.7020   46.0030 O   0  0  0  0  0  0  0  0  0  0  0  0
   58.3270   28.5640   47.5080 C   0  0  0  0  0  0  0  0  0  0  0  0
   58.8080   29.8340   47.7630 C   0  0  0  0  0  0  0  0  0  0  0  0
   59.1730   30.3610   49.1170 C   0  0  0  0  0  0  0  0  0  0  0  0
   58.9610   30.5170   46.6090 N   0  0  0  0  0  0  0  0  0  0  0  0
   59.4590   31.8600   46.4940 C   0  0  0  0  0  0  0  0  0  0  0  0
   60.7750   32.1380   46.8870 C   0  0  0  0  0  0  0  0  0  0  0  0
   61.2930   33.4380   46.7820 C   0  0  0  0  0  0  0  0  0  0  0  0
   62.6790   33.7160   47.2110 C   0  0  0  0  0  0  0  0  0  0  0  0
   63.4810   34.2310   46.3840 O   0  0  0  0  0  0  0  0  0  0  0  0
   63.1270   33.4300   48.5470 N   0  0  0  0  0  0  0  0  0  0  0  0
   64.5300   33.4600   48.9230 C   0  0  0  0  0  0  0  0  0  0  0  0
   64.5590   33.1960   50.4220 C   0  0  0  0  0  0  0  0  0  0  0  0
   63.1470   33.4950   50.9180 C   0  0  0  0  0  0  0  0  0  0  0  0
   62.2440   33.3530   49.7010 C   0  0  0  0  0  0  0  0  0  0  0  0
   60.4660   34.4690   46.3150 C   0  0  0  0  0  0  0  0  0  0  0  0
   59.1540   34.1990   45.9190 C   0  0  0  0  0  0  0  0  0  0  0  0
   58.6440   32.8930   45.9860 C   0  0  0  0  0  0  0  0  0  0  0  0
   57.2270   32.6210   45.5630 C   0  0  0  0  0  0  0  0  0  0  0  0
  1  2  2  0
  2  3  1  0
  3  4  2  3
  4  5  1  0
  5  6  1  0
  6  7  1  0
  7  8  2  0
  7  9  1  0
  9 10  1  0
 10 11  1  0
  3 12  1  0
 12 13  2  0
 13 14  1  0
 13 15  1  0
 15 16  1  0
 16 17  2  0
 17 18  1  0
 18 19  1  0
 19 20  2  0
 19 21  1  0
 21 22  1  0
 22 23  1  0
 23 24  1  0
 24 25  1  0
 18 26  2  0
 26 27  1  0
 27 28  2  0
 28 29  1  0
 15  2  1  0
 28 16  1  0
 10  5  2  0
 25 21  1  0
M  CHG  3   6  -1   9  -1  11  -1
M  END
>  <UniqueID>  (1698) 
72

>  <SMILES>  (1698) 
C=c1c(=Cc2[n-]c(=O)[n-]c2[O-])cc(C)n1-c1cc(C(=O)N2CCCC2)ccc1C

>  <Energy>  (1698) 
127.20863020714681

>  <Genealogy>  (1698) 
C=c1c(=Cc2[n-]c(=O)[n-]c2[O-])cc(C)n1-c1cc(C(=O)N2CCCC2)ccc1C (protonated)
C=c1c(=Cc2[n-]c(=O)[n-]c2[O-])cc(C)n1-c1cc(C(=O)N2CCCC2)ccc1C (3D coordinates assigned)
C=c1c(=Cc2[n-]c(=O)[n-]c2[O-])cc(C)n1-c1cc(C(=O)N2CCCC2)ccc1C (nonaromatic ring conformer: 127.20863020714681 kcal/mol)

>  <smiles>  (1698) 
C=c1c(=Cc2[nH]c(=O)[nH]c2O)cc(C)n1-c1cc(C(=O)N2CCCC2)ccc1C

>  <score_type>  (1698) 
oracle

>  <origin>  (1698) 
adg

>  <m_score__min__energy>  (1698) 
-16.98

>  <m_primary>  (1698) 
energy

$$$$
80:0
     RDKit          3D

 29 31  0  0  0  0  0  0  0  0999 V2000
   60.0810   27.1190   46.7170 C   0  0  0  0  0  0  0  0  0  0  0  0
   59.1570   27.9280   46.1770 C   0  0  0  0  0  0  0  0  0  0  0  0
   58.1820   27.5810   45.2280 C   0  0  0  0  0  0  0  0  0  0  0  0
   57.7610   26.3790   44.7910 C   0  0  0  0  0  0  0  0  0  0  0  0
   57.1380   25.3370   45.6240 C   0  0  0  0  0  0  0  0  0  0  0  0
   57.7710   24.2420   46.0810 N   0  0  0  0  0  0  0  0  0  0  0  0
   56.8560   23.6710   46.8950 C   0  0  0  0  0  0  0  0  0  0  0  0
   57.0720   22.5950   47.5080 O   0  0  0  0  0  0  0  0  0  0  0  0
   55.6940   24.3490   47.0060 N   0  0  0  0  0  0  0  0  0  0  0  0
   55.8950   25.4090   46.2060 C   0  0  0  0  0  0  0  0  0  0  0  0
   54.9680   26.4270   46.0160 O   0  0  0  0  0  0  0  0  0  0  0  0
   57.6500   28.7750   44.7650 C   0  0  0  0  0  0  0  0  0  0  0  0
   58.2470   29.7860   45.4880 C   0  0  0  0  0  0  0  0  0  0  0  0
   57.9520   31.2450   45.3110 C   0  0  0  0  0  0  0  0  0  0  0  0
   59.1600   29.2760   46.3460 N   0  0  0  0  0  0  0  0  0  0  0  0
   60.0030   30.0370   47.2290 C   0  0  0  0  0  0  0  0  0  0  0  0
   60.4210   29.4880   48.4490 C   0  0  0  0  0  0  0  0  0  0  0  0
   61.2260   30.2320   49.3150 C   0  0  0  0  0  0  0  0  0  0  0  0
   61.6250   31.5240   48.9640 C   0  0  0  0  0  0  0  0  0  0  0  0
   61.2350   32.0760   47.7350 C   0  0  0  0  0  0  0  0  0  0  0  0
   61.7080   33.7250   47.3010 S   0  0  0  0  0  0  0  0  0  0  0  0
   62.6500   34.2350   48.3550 O   0  0  0  0  0  0  0  0  0  0  0  0
   62.4710   33.6820   46.0050 O   0  0  0  0  0  0  0  0  0  0  0  0
   60.3580   34.8420   47.1550 N   0  0  0  0  0  0  0  0  0  0  0  0
   59.9420   35.0690   45.7510 C   0  0  0  0  0  0  0  0  0  0  0  0
   58.5650   34.4920   45.4000 C   0  0  0  0  0  0  0  0  0  0  0  0
   59.2310   34.5320   48.0550 C   0  0  0  0  0  0  0  0  0  0  0  0
   59.7190   34.2820   49.4790 C   0  0  0  0  0  0  0  0  0  0  0  0
   60.4060   31.3350   46.8800 C   0  0  0  0  0  0  0  0  0  0  0  0
  1  2  2  0
  2  3  1  0
  3  4  2  3
  4  5  1  0
  5  6  1  0
  6  7  1  0
  7  8  2  0
  7  9  1  0
  9 10  1  0
 10 11  1  0
  3 12  1  0
 12 13  2  0
 13 14  1  0
 13 15  1  0
 15 16  1  0
 16 17  2  0
 17 18  1  0
 18 19  2  0
 19 20  1  0
 20 21  1  0
 21 22  2  0
 21 23  2  0
 21 24  1  0
 24 25  1  0
 25 26  1  0
 24 27  1  0
 27 28  1  0
 20 29  2  0
 15  2  1  0
 29 16  1  0
 10  5  2  0
M  CHG  2   6  -1   9  -1
M  END
>  <UniqueID>  (1699) 
78

>  <SMILES>  (1699) 
C=c1c(=Cc2[n-]c(=O)[n-]c2O)cc(C)n1-c1cccc(S(=O)(=O)N(CC)CC)c1

>  <Energy>  (1699) 
126.85438241656142

>  <Genealogy>  (1699) 
C=c1c(=Cc2[n-]c(=O)[n-]c2O)cc(C)n1-c1cccc(S(=O)(=O)N(CC)CC)c1 (protonated)
C=c1c(=Cc2[n-]c(=O)[n-]c2O)cc(C)n1-c1cccc(S(=O)(=O)N(CC)CC)c1 (3D coordinates assigned)
C=c1c(=Cc2[n-]c(=O)[n-]c2O)cc(C)n1-c1cccc(S(=O)(=O)N(CC)CC)c1 (optimized conformer: 126.85438241656142 kcal/mol)

>  <smiles>  (1699) 
C=c1c(=Cc2[nH]c(=O)[nH]c2O)cc(C)n1-c1cccc(S(=O)(=O)N(CC)CC)c1

>  <score_type>  (1699) 
oracle

>  <origin>  (1699) 
adg

>  <m_score__min__energy>  (1699) 
-14.050000000000001

>  <m_primary>  (1699) 
energy

$$$$
82:0
     RDKit          3D

 30 32  0  0  0  0  0  0  0  0999 V2000
   59.2480   32.9890   49.3830 C   0  0  0  0  0  0  0  0  0  0  0  0
   58.1540   32.1900   48.1650 S   0  0  0  0  0  0  0  0  0  0  0  0
   58.5610   33.3540   46.8550 C   0  0  0  0  0  0  0  0  0  0  0  0
   59.6660   34.2010   47.0160 C   0  0  0  0  0  0  0  0  0  0  0  0
   60.0000   35.1230   46.0190 C   0  0  0  0  0  0  0  0  0  0  0  0
   59.2300   35.2050   44.8610 C   0  0  0  0  0  0  0  0  0  0  0  0
   58.1290   34.3620   44.6900 C   0  0  0  0  0  0  0  0  0  0  0  0
   57.7860   33.4250   45.6810 C   0  0  0  0  0  0  0  0  0  0  0  0
   56.6680   32.5370   45.5220 N   0  0  0  0  0  0  0  0  0  0  0  0
   56.6600   31.1150   44.5310 S   0  0  0  0  0  0  0  0  0  0  0  0
   55.2370   30.7660   44.1940 O   0  0  0  0  0  0  0  0  0  0  0  0
   57.4090   31.3960   43.2590 O   0  0  0  0  0  0  0  0  0  0  0  0
   57.4630   29.7960   45.3880 C   0  0  0  0  0  0  0  0  0  0  0  0
   58.7790   29.9830   45.8310 C   0  0  0  0  0  0  0  0  0  0  0  0
   59.4510   28.9660   46.5220 C   0  0  0  0  0  0  0  0  0  0  0  0
   60.8200   29.2130   47.0200 C   0  0  0  0  0  0  0  0  0  0  0  0
   61.1440   29.9800   48.0870 C   0  0  0  0  0  0  0  0  0  0  0  0
   61.9090   31.2570   47.9880 C   0  0  0  0  0  0  0  0  0  0  0  0
   62.1390   31.8010   46.8750 O   0  0  0  0  0  0  0  0  0  0  0  0
   62.3410   31.9230   49.1770 N   0  0  0  0  0  0  0  0  0  0  0  0
   61.9590   31.4570   50.4700 C   0  0  0  0  0  0  0  0  0  0  0  0
   62.3580   32.0630   51.4990 O   0  0  0  0  0  0  0  0  0  0  0  0
   61.1190   30.3130   50.5940 N   0  0  0  0  0  0  0  0  0  0  0  0
   60.6930   29.5740   49.4460 C   0  0  0  0  0  0  0  0  0  0  0  0
   59.9490   28.5720   49.6080 O   0  0  0  0  0  0  0  0  0  0  0  0
   58.7750   27.7720   46.8190 C   0  0  0  0  0  0  0  0  0  0  0  0
   57.4700   27.5670   46.3630 C   0  0  0  0  0  0  0  0  0  0  0  0
   56.6650   26.0430   46.7090 Cl  0  0  0  0  0  0  0  0  0  0  0  0
   56.8130   28.5710   45.6380 C   0  0  0  0  0  0  0  0  0  0  0  0
   55.5230   28.3470   45.1720 O   0  0  0  0  0  0  0  0  0  0  0  0
  1  2  1  0
  2  3  1  0
  3  4  2  0
  4  5  1  0
  5  6  2  0
  6  7  1  0
  7  8  2  0
  8  9  1  0
  9 10  1  0
 10 11  2  0
 10 12  2  0
 10 13  1  0
 13 14  2  0
 14 15  1  0
 15 16  1  0
 16 17  2  3
 17 18  1  0
 18 19  2  0
 18 20  1  0
 20 21  1  0
 21 22  2  0
 21 23  1  0
 23 24  1  0
 24 25  2  0
 15 26  2  0
 26 27  1  0
 27 28  1  0
 27 29  2  0
 29 30  1  0
  8  3  1  0
 29 13  1  0
 24 17  1  0
M  CHG  4   9  -1  20  -1  23  -1  30  -1
M  END
>  <UniqueID>  (1700) 
80

>  <SMILES>  (1700) 
CSc1ccccc1[N-]S(=O)(=O)c1cc(C=C2C(=O)[N-]C(=O)[N-]C2=O)cc(Cl)c1[O-]

>  <Energy>  (1700) 
51.11673317075819

>  <Genealogy>  (1700) 
CSc1ccccc1[N-]S(=O)(=O)c1cc(C=C2C(=O)[N-]C(=O)[N-]C2=O)cc(Cl)c1[O-] (protonated)
CSc1ccccc1[N-]S(=O)(=O)c1cc(C=C2C(=O)[N-]C(=O)[N-]C2=O)cc(Cl)c1[O-] (3D coordinates assigned)
CSc1ccccc1[N-]S(=O)(=O)c1cc(C=C2C(=O)[N-]C(=O)[N-]C2=O)cc(Cl)c1[O-] (nonaromatic ring conformer: 51.11673317075819 kcal/mol)

>  <smiles>  (1700) 
CSc1ccccc1NS(=O)(=O)c1cc(C=C2C(=O)NC(=O)NC2=O)cc(Cl)c1O

>  <score_type>  (1700) 
oracle

>  <origin>  (1700) 
adg

>  <m_score__min__energy>  (1700) 
-16.16

>  <m_primary>  (1700) 
energy

$$$$
83:0
     RDKit          3D

 27 30  0  0  0  0  0  0  0  0999 V2000
   58.8500   28.2820   47.0270 C   0  0  0  0  0  0  0  0  0  0  0  0
   58.5230   28.8100   45.8380 C   0  0  0  0  0  0  0  0  0  0  0  0
   57.8250   28.1880   44.7890 C   0  0  0  0  0  0  0  0  0  0  0  0
   57.4650   26.9030   44.6040 C   0  0  0  0  0  0  0  0  0  0  0  0
   57.0830   25.9560   45.6640 C   0  0  0  0  0  0  0  0  0  0  0  0
   57.8410   24.9250   46.0780 N   0  0  0  0  0  0  0  0  0  0  0  0
   57.0280   24.2640   46.9320 C   0  0  0  0  0  0  0  0  0  0  0  0
   57.3920   23.2290   47.5500 O   0  0  0  0  0  0  0  0  0  0  0  0
   55.7930   24.7930   47.0610 N   0  0  0  0  0  0  0  0  0  0  0  0
   55.8410   25.8540   46.2400 C   0  0  0  0  0  0  0  0  0  0  0  0
   54.7680   26.7070   46.0150 O   0  0  0  0  0  0  0  0  0  0  0  0
   57.5680   29.1790   43.8550 C   0  0  0  0  0  0  0  0  0  0  0  0
   58.1470   30.3370   44.3260 C   0  0  0  0  0  0  0  0  0  0  0  0
   58.2300   31.6220   43.5590 C   0  0  0  0  0  0  0  0  0  0  0  0
   58.7280   30.1140   45.5250 N   0  0  0  0  0  0  0  0  0  0  0  0
   59.4390   31.0940   46.2990 C   0  0  0  0  0  0  0  0  0  0  0  0
   60.7750   30.8280   46.6620 C   0  0  0  0  0  0  0  0  0  0  0  0
   61.4770   31.7810   47.3950 C   0  0  0  0  0  0  0  0  0  0  0  0
   60.8820   32.9670   47.7580 C   0  0  0  0  0  0  0  0  0  0  0  0
   59.5680   33.2710   47.4170 C   0  0  0  0  0  0  0  0  0  0  0  0
   58.8240   32.3230   46.6820 C   0  0  0  0  0  0  0  0  0  0  0  0
   57.4130   32.6690   46.2700 C   0  0  0  0  0  0  0  0  0  0  0  0
   57.3570   34.0380   45.6000 C   0  0  0  0  0  0  0  0  0  0  0  0
   61.8640   33.7310   48.4840 C   0  0  0  0  0  0  0  0  0  0  0  0
   61.6940   34.8780   48.9760 O   0  0  0  0  0  0  0  0  0  0  0  0
   63.0790   32.9990   48.5670 N   0  0  0  0  0  0  0  0  0  0  0  0
   62.8970   31.7190   47.8790 C   0  0  0  0  0  0  0  0  0  0  0  0
  1  2  2  0
  2  3  1  0
  3  4  2  3
  4  5  1  0
  5  6  1  0
  6  7  1  0
  7  8  2  0
  7  9  1  0
  9 10  1  0
 10 11  1  0
  3 12  1  0
 12 13  2  0
 13 14  1  0
 13 15  1  0
 15 16  1  0
 16 17  2  0
 17 18  1  0
 18 19  2  0
 19 20  1  0
 20 21  2  0
 21 22  1  0
 22 23  1  0
 19 24  1  0
 24 25  2  0
 24 26  1  0
 26 27  1  0
 15  2  1  0
 21 16  1  0
 10  5  2  0
 27 18  1  0
M  CHG  3   6  -1   9  -1  11  -1
M  END
>  <UniqueID>  (1701) 
81

>  <SMILES>  (1701) 
C=c1c(=Cc2[n-]c(=O)[n-]c2[O-])cc(C)n1-c1cc2c(cc1CC)C(=O)NC2

>  <Energy>  (1701) 
140.7621267045173

>  <Genealogy>  (1701) 
C=c1c(=Cc2[n-]c(=O)[n-]c2[O-])cc(C)n1-c1cc2c(cc1CC)C(=O)NC2 (protonated)
C=c1c(=Cc2[n-]c(=O)[n-]c2[O-])cc(C)n1-c1cc2c(cc1CC)C(=O)NC2 (3D coordinates assigned)
C=c1c(=Cc2[n-]c(=O)[n-]c2[O-])cc(C)n1-c1cc2c(cc1CC)C(=O)NC2 (nonaromatic ring conformer: 140.7621267045173 kcal/mol)

>  <smiles>  (1701) 
C=c1c(=Cc2[nH]c(=O)[nH]c2O)cc(C)n1-c1cc2c(cc1CC)C(=O)NC2

>  <score_type>  (1701) 
oracle

>  <origin>  (1701) 
adg

>  <m_score__min__energy>  (1701) 
-15.859999999999999

>  <m_primary>  (1701) 
energy

$$$$
3:0
     RDKit          3D

 25 27  0  0  0  0  0  0  0  0999 V2000
   59.0860   29.4650   48.4420 C   0  0  0  0  0  0  0  0  0  0  0  0
   58.7520   30.0120   47.2630 C   0  0  0  0  0  0  0  0  0  0  0  0
   58.3870   29.3080   46.1060 C   0  0  0  0  0  0  0  0  0  0  0  0
   58.3930   27.9660   45.9380 C   0  0  0  0  0  0  0  0  0  0  0  0
   57.2210   27.0700   46.0630 C   0  0  0  0  0  0  0  0  0  0  0  0
   57.2330   25.8080   46.5300 N   0  0  0  0  0  0  0  0  0  0  0  0
   55.9460   25.4140   46.4110 C   0  0  0  0  0  0  0  0  0  0  0  0
   55.5540   24.2690   46.7570 O   0  0  0  0  0  0  0  0  0  0  0  0
   55.1160   26.3420   45.8930 N   0  0  0  0  0  0  0  0  0  0  0  0
   55.9380   27.3810   45.6740 C   0  0  0  0  0  0  0  0  0  0  0  0
   55.5240   28.5900   45.1300 O   0  0  0  0  0  0  0  0  0  0  0  0
   58.0160   30.2670   45.1750 C   0  0  0  0  0  0  0  0  0  0  0  0
   58.1730   31.4960   45.7810 C   0  0  0  0  0  0  0  0  0  0  0  0
   57.7850   32.7980   45.1450 C   0  0  0  0  0  0  0  0  0  0  0  0
   58.6610   31.3530   47.0370 N   0  0  0  0  0  0  0  0  0  0  0  0
   58.9130   32.4560   47.9860 C   0  0  0  0  0  0  0  0  0  0  0  0
   60.4000   32.6640   48.2820 C   0  0  0  0  0  0  0  0  0  0  0  0
   60.9550   32.2500   49.5280 C   0  0  0  0  0  0  0  0  0  0  0  0
   60.1110   31.6430   50.6230 C   0  0  0  0  0  0  0  0  0  0  0  0
   62.3320   32.3940   49.7620 C   0  0  0  0  0  0  0  0  0  0  0  0
   63.1650   32.9830   48.8090 C   0  0  0  0  0  0  0  0  0  0  0  0
   64.6410   33.0850   49.0570 C   0  0  0  0  0  0  0  0  0  0  0  0
   62.6230   33.4300   47.6030 C   0  0  0  0  0  0  0  0  0  0  0  0
   61.2490   33.3130   47.3400 C   0  0  0  0  0  0  0  0  0  0  0  0
   60.7330   33.8720   46.0390 C   0  0  0  0  0  0  0  0  0  0  0  0
  1  2  2  0
  2  3  1  0
  3  4  2  0
  4  5  1  0
  5  6  1  0
  6  7  1  0
  7  8  2  0
  7  9  1  0
  9 10  1  0
 10 11  1  0
  3 12  1  0
 12 13  2  0
 13 14  1  0
 13 15  1  0
 15 16  1  0
 16 17  1  0
 17 18  2  0
 18 19  1  0
 18 20  1  0
 20 21  2  0
 21 22  1  0
 21 23  1  0
 23 24  2  0
 24 25  1  0
 15  2  1  0
 24 17  1  0
 10  5  2  0
M  CHG  3   6  -1   9  -1  11  -1
M  END
>  <UniqueID>  (1702) 
4

>  <SMILES>  (1702) 
C=c1/c(=C/c2[n-]c(=O)[n-]c2[O-])cc(C)n1Cc1c(C)cc(C)cc1C

>  <Energy>  (1702) 
113.33754866528551

>  <Genealogy>  (1702) 
C=c1c(=Cc2[n-]c(=O)[n-]c2[O-])cc(C)n1Cc1c(C)cc(C)cc1C (protonated)
C=c1/c(=C/c2[n-]c(=O)[n-]c2[O-])cc(C)n1Cc1c(C)cc(C)cc1C (cis-trans isomerization)
C=c1/c(=C/c2[n-]c(=O)[n-]c2[O-])cc(C)n1Cc1c(C)cc(C)cc1C (3D coordinates assigned)
C=c1/c(=C/c2[n-]c(=O)[n-]c2[O-])cc(C)n1Cc1c(C)cc(C)cc1C (optimized conformer: 113.33754866528551 kcal/mol)

>  <smiles>  (1702) 
C=c1c(=Cc2[nH]c(=O)[nH]c2O)cc(C)n1Cc1c(C)cc(C)cc1C

>  <score_type>  (1702) 
oracle

>  <origin>  (1702) 
adg

>  <m_score__min__energy>  (1702) 
-15.74

>  <m_primary>  (1702) 
energy

$$$$
7:0
     RDKit          3D

 26 28  0  0  0  0  0  0  0  0999 V2000
   53.5110   23.0500   44.5160 N   0  0  0  0  0  0  0  0  0  0  0  0
   54.3400   23.9720   45.7240 S   0  0  0  0  0  0  0  0  0  0  0  0
   53.8760   25.4010   45.6300 O   0  0  0  0  0  0  0  0  0  0  0  0
   54.0030   23.4340   47.0880 O   0  0  0  0  0  0  0  0  0  0  0  0
   56.0850   23.8920   45.4890 C   0  0  0  0  0  0  0  0  0  0  0  0
   56.6550   22.8070   44.8120 C   0  0  0  0  0  0  0  0  0  0  0  0
   58.0440   22.6970   44.7020 C   0  0  0  0  0  0  0  0  0  0  0  0
   58.8720   23.6620   45.2840 C   0  0  0  0  0  0  0  0  0  0  0  0
   58.3160   24.7570   45.9560 C   0  0  0  0  0  0  0  0  0  0  0  0
   59.1860   25.7180   46.5730 N   0  0  0  0  0  0  0  0  0  0  0  0
   59.5070   27.0030   46.0240 C   0  0  0  0  0  0  0  0  0  0  0  0
   60.7150   27.3410   45.9210 O   0  0  0  0  0  0  0  0  0  0  0  0
   58.4530   27.9110   45.5380 C   0  0  0  0  0  0  0  0  0  0  0  0
   57.0860   27.7070   45.6270 C   0  0  0  0  0  0  0  0  0  0  0  0
   56.5120   28.8110   45.0330 C   0  0  0  0  0  0  0  0  0  0  0  0
   55.1450   29.0120   44.8770 O   0  0  0  0  0  0  0  0  0  0  0  0
   57.4540   29.6800   44.6160 N   0  0  0  0  0  0  0  0  0  0  0  0
   57.2460   30.9380   43.9010 C   0  0  0  0  0  0  0  0  0  0  0  0
   57.7750   32.0850   44.7150 C   0  0  0  0  0  0  0  0  0  0  0  0
   58.2200   33.2570   44.0810 C   0  0  0  0  0  0  0  0  0  0  0  0
   58.7010   34.3280   44.8390 C   0  0  0  0  0  0  0  0  0  0  0  0
   58.7300   34.2410   46.2350 C   0  0  0  0  0  0  0  0  0  0  0  0
   58.2670   33.0880   46.8740 C   0  0  0  0  0  0  0  0  0  0  0  0
   57.7850   32.0140   46.1190 C   0  0  0  0  0  0  0  0  0  0  0  0
   58.6480   29.1340   44.9170 C   0  0  0  0  0  0  0  0  0  0  0  0
   56.9180   24.8670   46.0590 C   0  0  0  0  0  0  0  0  0  0  0  0
  1  2  1  0
  2  3  2  0
  2  4  2  0
  2  5  1  0
  5  6  2  0
  6  7  1  0
  7  8  2  0
  8  9  1  0
  9 10  1  0
 10 11  1  0
 11 12  2  0
 11 13  1  0
 13 14  1  0
 14 15  2  0
 15 16  1  0
 15 17  1  0
 17 18  1  0
 18 19  1  0
 19 20  2  0
 20 21  1  0
 21 22  2  0
 22 23  1  0
 23 24  2  0
 17 25  1  0
  9 26  2  0
 26  5  1  0
 25 13  2  0
 24 19  1  0
M  CHG  3   1  -1  10  -1  16  -1
M  END
>  <UniqueID>  (1703) 
7

>  <SMILES>  (1703) 
[NH-]S(=O)(=O)c1cccc([N-]C(=O)c2cc([O-])n(Cc3ccccc3)c2)c1

>  <Energy>  (1703) 
70.40123062654452

>  <Genealogy>  (1703) 
[NH-]S(=O)(=O)c1cccc([N-]C(=O)c2cc([O-])n(Cc3ccccc3)c2)c1 (protonated)
[NH-]S(=O)(=O)c1cccc([N-]C(=O)c2cc([O-])n(Cc3ccccc3)c2)c1 (3D coordinates assigned)
[NH-]S(=O)(=O)c1cccc([N-]C(=O)c2cc([O-])n(Cc3ccccc3)c2)c1 (optimized conformer: 70.40123062654452 kcal/mol)

>  <smiles>  (1703) 
NS(=O)(=O)c1cccc(NC(=O)c2cc(O)n(Cc3ccccc3)c2)c1

>  <score_type>  (1703) 
oracle

>  <origin>  (1703) 
adg

>  <m_score__min__energy>  (1703) 
-15.83

>  <m_primary>  (1703) 
energy

$$$$
17:0
     RDKit          3D

 26 28  0  0  0  0  0  0  0  0999 V2000
   57.8120   26.6240   43.1340 C   0  0  0  0  0  0  0  0  0  0  0  0
   57.9700   26.8240   44.4520 C   0  0  0  0  0  0  0  0  0  0  0  0
   57.6220   25.9300   45.4690 C   0  0  0  0  0  0  0  0  0  0  0  0
   57.0810   24.7040   45.3350 C   0  0  0  0  0  0  0  0  0  0  0  0
   55.6210   24.4550   45.3030 C   0  0  0  0  0  0  0  0  0  0  0  0
   54.6940   25.4580   45.6350 C   0  0  0  0  0  0  0  0  0  0  0  0
   55.1210   26.7270   46.0070 O   0  0  0  0  0  0  0  0  0  0  0  0
   53.3630   25.1970   45.5730 N   0  0  0  0  0  0  0  0  0  0  0  0
   52.9030   23.9830   45.1750 C   0  0  0  0  0  0  0  0  0  0  0  0
   51.6650   23.7640   45.1290 O   0  0  0  0  0  0  0  0  0  0  0  0
   53.7790   23.0070   44.8210 N   0  0  0  0  0  0  0  0  0  0  0  0
   55.1190   23.2160   44.8680 C   0  0  0  0  0  0  0  0  0  0  0  0
   55.9030   22.2890   44.5290 O   0  0  0  0  0  0  0  0  0  0  0  0
   57.9890   26.5340   46.6640 C   0  0  0  0  0  0  0  0  0  0  0  0
   58.5340   27.7590   46.3360 C   0  0  0  0  0  0  0  0  0  0  0  0
   59.0670   28.7440   47.3330 C   0  0  0  0  0  0  0  0  0  0  0  0
   58.5080   27.9480   44.9950 N   0  0  0  0  0  0  0  0  0  0  0  0
   59.0410   29.1200   44.2830 C   0  0  0  0  0  0  0  0  0  0  0  0
   57.8960   30.0300   43.8260 C   0  0  0  0  0  0  0  0  0  0  0  0
   57.0390   30.4830   45.0260 C   0  0  0  0  0  0  0  0  0  0  0  0
   57.2910   31.8710   45.4710 N   0  0  0  0  0  0  0  0  0  0  0  0
   58.1620   31.9560   46.6610 C   0  0  0  0  0  0  0  0  0  0  0  0
   58.5610   33.4170   46.9430 C   0  0  0  0  0  0  0  0  0  0  0  0
   57.6440   34.3070   46.3380 O   0  0  0  0  0  0  0  0  0  0  0  0
   57.7510   34.2300   44.9240 C   0  0  0  0  0  0  0  0  0  0  0  0
   57.7440   32.7770   44.4020 C   0  0  0  0  0  0  0  0  0  0  0  0
  1  2  2  0
  2  3  1  0
  3  4  2  3
  4  5  1  0
  5  6  2  0
  6  7  1  0
  6  8  1  0
  8  9  1  0
  9 10  2  0
  9 11  1  0
 11 12  1  0
 12 13  2  0
  3 14  1  0
 14 15  2  0
 15 16  1  0
 15 17  1  0
 17 18  1  0
 18 19  1  0
 19 20  1  0
 20 21  1  0
 21 22  1  0
 22 23  1  0
 23 24  1  0
 24 25  1  0
 25 26  1  0
 17  2  1  0
 26 21  1  0
 12  5  1  0
M  CHG  3   7  -1   8  -1  11  -1
M  END
>  <UniqueID>  (1704) 
16

>  <SMILES>  (1704) 
C=c1c(=Cc2c([O-])[n-]c(=O)[n-]c2=O)cc(C)n1CCCN1CCOCC1

>  <Energy>  (1704) 
95.2143876325956

>  <Genealogy>  (1704) 
C=c1c(=Cc2c([O-])[n-]c(=O)[n-]c2=O)cc(C)n1CCCN1CCOCC1 (protonated)
C=c1c(=Cc2c([O-])[n-]c(=O)[n-]c2=O)cc(C)n1CCCN1CCOCC1 (3D coordinates assigned)
C=c1c(=Cc2c([O-])[n-]c(=O)[n-]c2=O)cc(C)n1CCCN1CCOCC1 (nonaromatic ring conformer: 95.2143876325956 kcal/mol)

>  <smiles>  (1704) 
C=c1c(=Cc2c(O)[nH]c(=O)[nH]c2=O)cc(C)n1CCCN1CCOCC1

>  <score_type>  (1704) 
oracle

>  <origin>  (1704) 
adg

>  <m_score__min__energy>  (1704) 
-15.6

>  <m_primary>  (1704) 
energy

$$$$
23:0
     RDKit          3D

 27 30  0  0  0  0  0  0  0  0999 V2000
   53.9600   28.5560   54.0210 C   0  0  0  0  0  0  0  0  0  0  0  0
   54.4850   29.5260   53.2560 C   0  0  0  0  0  0  0  0  0  0  0  0
   53.7810   30.4170   52.4330 C   0  0  0  0  0  0  0  0  0  0  0  0
   52.4460   30.4440   52.2290 C   0  0  0  0  0  0  0  0  0  0  0  0
   51.7710   30.8250   50.9680 C   0  0  0  0  0  0  0  0  0  0  0  0
   51.7040   30.0820   49.8490 N   0  0  0  0  0  0  0  0  0  0  0  0
   51.0270   30.8680   48.9850 C   0  0  0  0  0  0  0  0  0  0  0  0
   50.7580   30.5100   47.8090 O   0  0  0  0  0  0  0  0  0  0  0  0
   50.6650   32.0710   49.4810 N   0  0  0  0  0  0  0  0  0  0  0  0
   51.1460   32.0290   50.7330 C   0  0  0  0  0  0  0  0  0  0  0  0
   51.0170   33.0690   51.6430 O   0  0  0  0  0  0  0  0  0  0  0  0
   54.7390   31.2490   51.8620 C   0  0  0  0  0  0  0  0  0  0  0  0
   55.9650   30.8360   52.3440 C   0  0  0  0  0  0  0  0  0  0  0  0
   57.2780   31.4660   51.9880 C   0  0  0  0  0  0  0  0  0  0  0  0
   55.8120   29.8020   53.1980 N   0  0  0  0  0  0  0  0  0  0  0  0
   56.8740   29.1130   53.8810 C   0  0  0  0  0  0  0  0  0  0  0  0
   57.8310   28.4010   53.1480 C   0  0  0  0  0  0  0  0  0  0  0  0
   58.8690   27.7370   53.8110 C   0  0  0  0  0  0  0  0  0  0  0  0
   59.8440   27.0180   53.1030 C   0  0  0  0  0  0  0  0  0  0  0  0
   60.8720   26.3660   53.7940 C   0  0  0  0  0  0  0  0  0  0  0  0
   62.0890   25.4670   52.9100 Cl  0  0  0  0  0  0  0  0  0  0  0  0
   60.9290   26.4310   55.1920 C   0  0  0  0  0  0  0  0  0  0  0  0
   59.9610   27.1460   55.9040 C   0  0  0  0  0  0  0  0  0  0  0  0
   58.9310   27.8000   55.2210 C   0  0  0  0  0  0  0  0  0  0  0  0
   57.9870   28.4960   55.9110 N   0  0  0  0  0  0  0  0  0  0  0  0
   56.9700   29.1450   55.2830 C   0  0  0  0  0  0  0  0  0  0  0  0
   56.1150   29.7650   55.9670 O   0  0  0  0  0  0  0  0  0  0  0  0
  1  2  2  0
  2  3  1  0
  3  4  2  3
  4  5  1  0
  5  6  1  0
  6  7  1  0
  7  8  2  0
  7  9  1  0
  9 10  1  0
 10 11  1  0
  3 12  1  0
 12 13  2  0
 13 14  1  0
 13 15  1  0
 15 16  1  0
 16 17  2  0
 17 18  1  0
 18 19  2  0
 19 20  1  0
 20 21  1  0
 20 22  2  0
 22 23  1  0
 23 24  2  0
 24 25  1  0
 25 26  1  0
 26 27  2  0
 15  2  1  0
 26 16  1  0
 10  5  2  0
 24 18  1  0
M  CHG  4   6  -1   9  -1  11  -1  25  -1
M  END
>  <UniqueID>  (1705) 
21

>  <SMILES>  (1705) 
C=c1c(=Cc2[n-]c(=O)[n-]c2[O-])cc(C)n1-c1cc2cc(Cl)ccc2[n-]c1=O

>  <Energy>  (1705) 
114.76455405211088

>  <Genealogy>  (1705) 
C=c1c(=Cc2[n-]c(=O)[n-]c2[O-])cc(C)n1-c1cc2cc(Cl)ccc2[n-]c1=O (protonated)
C=c1c(=Cc2[n-]c(=O)[n-]c2[O-])cc(C)n1-c1cc2cc(Cl)ccc2[n-]c1=O (3D coordinates assigned)
C=c1c(=Cc2[n-]c(=O)[n-]c2[O-])cc(C)n1-c1cc2cc(Cl)ccc2[n-]c1=O (optimized conformer: 114.76455405211088 kcal/mol)

>  <smiles>  (1705) 
C=c1c(=Cc2[nH]c(=O)[nH]c2O)cc(C)n1-c1cc2cc(Cl)ccc2[nH]c1=O

>  <score_type>  (1705) 
oracle

>  <origin>  (1705) 
adg

>  <m_score__min__energy>  (1705) 
-17.059999999999999

>  <m_primary>  (1705) 
energy

$$$$
24:0
     RDKit          3D

 27 29  0  0  0  0  0  0  0  0999 V2000
   58.6280   30.9280   45.5500 C   0  0  0  0  0  0  0  0  0  0  0  0
   58.9130   30.1300   46.5910 C   0  0  0  0  0  0  0  0  0  0  0  0
   58.8060   28.7360   46.6180 C   0  0  0  0  0  0  0  0  0  0  0  0
   58.3690   27.9280   45.6320 C   0  0  0  0  0  0  0  0  0  0  0  0
   57.3720   26.8530   45.8400 C   0  0  0  0  0  0  0  0  0  0  0  0
   55.9980   27.0760   45.6500 C   0  0  0  0  0  0  0  0  0  0  0  0
   55.5250   28.3230   45.2560 O   0  0  0  0  0  0  0  0  0  0  0  0
   55.1110   26.0710   45.8720 N   0  0  0  0  0  0  0  0  0  0  0  0
   55.5270   24.8500   46.2930 C   0  0  0  0  0  0  0  0  0  0  0  0
   54.4390   23.6610   46.5500 S   0  0  0  0  0  0  0  0  0  0  0  0
   56.8470   24.6190   46.5130 N   0  0  0  0  0  0  0  0  0  0  0  0
   57.7730   25.5900   46.3030 C   0  0  0  0  0  0  0  0  0  0  0  0
   58.9890   25.3410   46.5210 O   0  0  0  0  0  0  0  0  0  0  0  0
   59.2050   28.3380   47.8850 C   0  0  0  0  0  0  0  0  0  0  0  0
   59.5450   29.4850   48.5720 C   0  0  0  0  0  0  0  0  0  0  0  0
   60.0210   29.5120   49.9930 C   0  0  0  0  0  0  0  0  0  0  0  0
   59.3660   30.5780   47.7910 N   0  0  0  0  0  0  0  0  0  0  0  0
   59.6310   31.9740   48.1730 C   0  0  0  0  0  0  0  0  0  0  0  0
   61.0040   32.4250   47.7060 C   0  0  0  0  0  0  0  0  0  0  0  0
   62.1430   31.7390   48.1690 C   0  0  0  0  0  0  0  0  0  0  0  0
   63.4190   32.0860   47.7240 C   0  0  0  0  0  0  0  0  0  0  0  0
   63.5820   33.1340   46.8200 C   0  0  0  0  0  0  0  0  0  0  0  0
   62.4720   33.8540   46.3780 C   0  0  0  0  0  0  0  0  0  0  0  0
   61.1780   33.5300   46.8250 C   0  0  0  0  0  0  0  0  0  0  0  0
   60.0450   34.3790   46.3860 C   0  0  0  0  0  0  0  0  0  0  0  0
   59.6340   35.3110   47.1280 O   0  0  0  0  0  0  0  0  0  0  0  0
   59.4330   34.2090   45.0300 C   0  0  0  0  0  0  0  0  0  0  0  0
  1  2  2  0
  2  3  1  0
  3  4  2  0
  4  5  1  0
  5  6  2  0
  6  7  1  0
  6  8  1  0
  8  9  1  0
  9 10  2  0
  9 11  1  0
 11 12  1  0
 12 13  2  0
  3 14  1  0
 14 15  2  0
 15 16  1  0
 15 17  1  0
 17 18  1  0
 18 19  1  0
 19 20  2  0
 20 21  1  0
 21 22  2  0
 22 23  1  0
 23 24  2  0
 24 25  1  0
 25 26  2  0
 25 27  1  0
 17  2  1  0
 24 19  1  0
 12  5  1  0
M  CHG  3   7  -1   8  -1  11  -1
M  END
>  <UniqueID>  (1706) 
22

>  <SMILES>  (1706) 
C=c1/c(=C/c2c([O-])[n-]c(=S)[n-]c2=O)cc(C)n1Cc1ccccc1C(C)=O

>  <Energy>  (1706) 
88.70701336394164

>  <Genealogy>  (1706) 
C=c1c(=Cc2c([O-])[n-]c(=S)[n-]c2=O)cc(C)n1Cc1ccccc1C(C)=O (protonated)
C=c1/c(=C/c2c([O-])[n-]c(=S)[n-]c2=O)cc(C)n1Cc1ccccc1C(C)=O (cis-trans isomerization)
C=c1/c(=C/c2c([O-])[n-]c(=S)[n-]c2=O)cc(C)n1Cc1ccccc1C(C)=O (3D coordinates assigned)
C=c1/c(=C/c2c([O-])[n-]c(=S)[n-]c2=O)cc(C)n1Cc1ccccc1C(C)=O (optimized conformer: 88.70701336394164 kcal/mol)

>  <smiles>  (1706) 
C=c1c(=Cc2c(O)[nH]c(=S)[nH]c2=O)cc(C)n1Cc1ccccc1C(C)=O

>  <score_type>  (1706) 
oracle

>  <origin>  (1706) 
adg

>  <m_score__min__energy>  (1706) 
-15.9

>  <m_primary>  (1706) 
energy

$$$$
32:0
     RDKit          3D

 28 31  0  0  0  0  0  0  0  0999 V2000
   58.6330   29.0440   47.4070 C   0  0  0  0  0  0  0  0  0  0  0  0
   58.2700   28.9610   46.1170 C   0  0  0  0  0  0  0  0  0  0  0  0
   57.9440   27.7950   45.4060 C   0  0  0  0  0  0  0  0  0  0  0  0
   58.1190   26.4940   45.7110 C   0  0  0  0  0  0  0  0  0  0  0  0
   57.0450   25.5350   46.0180 C   0  0  0  0  0  0  0  0  0  0  0  0
   57.2060   24.2010   46.0960 N   0  0  0  0  0  0  0  0  0  0  0  0
   55.9450   23.7440   46.2560 C   0  0  0  0  0  0  0  0  0  0  0  0
   55.6790   22.5210   46.3840 O   0  0  0  0  0  0  0  0  0  0  0  0
   54.9910   24.7000   46.2550 N   0  0  0  0  0  0  0  0  0  0  0  0
   55.7050   25.8260   46.0910 C   0  0  0  0  0  0  0  0  0  0  0  0
   55.1410   27.0920   46.0010 O   0  0  0  0  0  0  0  0  0  0  0  0
   57.3750   28.2150   44.2150 C   0  0  0  0  0  0  0  0  0  0  0  0
   57.4440   29.5920   44.2020 C   0  0  0  0  0  0  0  0  0  0  0  0
   56.9600   30.4560   43.0760 C   0  0  0  0  0  0  0  0  0  0  0  0
   57.9860   30.0470   45.3540 N   0  0  0  0  0  0  0  0  0  0  0  0
   58.1840   31.4300   45.7030 C   0  0  0  0  0  0  0  0  0  0  0  0
   57.1990   32.3830   45.4130 C   0  0  0  0  0  0  0  0  0  0  0  0
   57.3960   33.7210   45.7550 C   0  0  0  0  0  0  0  0  0  0  0  0
   58.5760   34.1190   46.3890 C   0  0  0  0  0  0  0  0  0  0  0  0
   59.5780   33.1770   46.6850 C   0  0  0  0  0  0  0  0  0  0  0  0
   60.7910   33.5810   47.3570 N   0  0  0  0  0  0  0  0  0  0  0  0
   61.9800   33.9110   46.5480 C   0  0  0  0  0  0  0  0  0  0  0  0
   63.1840   32.9840   46.8190 C   0  0  0  0  0  0  0  0  0  0  0  0
   64.0360   33.4210   47.9410 N   0  0  0  0  0  0  0  0  0  0  0  0
   63.4020   33.4000   49.2700 C   0  0  0  0  0  0  0  0  0  0  0  0
   62.1340   34.2680   49.3620 C   0  0  0  0  0  0  0  0  0  0  0  0
   60.8460   33.6010   48.8290 C   0  0  0  0  0  0  0  0  0  0  0  0
   59.3700   31.8300   46.3380 C   0  0  0  0  0  0  0  0  0  0  0  0
  1  2  2  0
  2  3  1  0
  3  4  2  0
  4  5  1  0
  5  6  1  0
  6  7  1  0
  7  8  2  0
  7  9  1  0
  9 10  1  0
 10 11  1  0
  3 12  1  0
 12 13  2  0
 13 14  1  0
 13 15  1  0
 15 16  1  0
 16 17  2  0
 17 18  1  0
 18 19  2  0
 19 20  1  0
 20 21  1  0
 21 22  1  0
 22 23  1  0
 23 24  1  0
 24 25  1  0
 25 26  1  0
 26 27  1  0
 20 28  2  0
 15  2  1  0
 28 16  1  0
 10  5  2  0
 27 21  1  0
M  CHG  3   6  -1   9  -1  11  -1
M  END
>  <UniqueID>  (1707) 
30

>  <SMILES>  (1707) 
C=c1/c(=C\c2[n-]c(=O)[n-]c2[O-])cc(C)n1-c1cccc(N2CCCNCC2)c1

>  <Energy>  (1707) 
140.1914316703747

>  <Genealogy>  (1707) 
C=c1c(=Cc2[n-]c(=O)[n-]c2[O-])cc(C)n1-c1cccc(N2CCCNCC2)c1 (protonated)
C=c1/c(=C\c2[n-]c(=O)[n-]c2[O-])cc(C)n1-c1cccc(N2CCCNCC2)c1 (cis-trans isomerization)
C=c1/c(=C\c2[n-]c(=O)[n-]c2[O-])cc(C)n1-c1cccc(N2CCCNCC2)c1 (3D coordinates assigned)
C=c1/c(=C\c2[n-]c(=O)[n-]c2[O-])cc(C)n1-c1cccc(N2CCCNCC2)c1 (nonaromatic ring conformer: 140.1914316703747 kcal/mol)

>  <smiles>  (1707) 
C=c1c(=Cc2[nH]c(=O)[nH]c2O)cc(C)n1-c1cccc(N2CCCNCC2)c1

>  <score_type>  (1707) 
oracle

>  <origin>  (1707) 
adg

>  <m_score__min__energy>  (1707) 
-15.06

>  <m_primary>  (1707) 
energy

$$$$
35:0
     RDKit          3D

 32 35  0  0  0  0  0  0  0  0999 V2000
   59.6140   29.3390   44.6800 C   0  0  0  0  0  0  0  0  0  0  0  0
   59.2400   29.1500   45.9590 C   0  0  0  0  0  0  0  0  0  0  0  0
   58.4500   28.0900   46.4290 C   0  0  0  0  0  0  0  0  0  0  0  0
   57.9420   27.0690   45.7020 C   0  0  0  0  0  0  0  0  0  0  0  0
   57.2420   25.8800   46.2420 C   0  0  0  0  0  0  0  0  0  0  0  0
   57.8200   24.7460   46.6780 N   0  0  0  0  0  0  0  0  0  0  0  0
   56.7730   23.9720   47.0340 C   0  0  0  0  0  0  0  0  0  0  0  0
   56.9150   22.8100   47.4980 O   0  0  0  0  0  0  0  0  0  0  0  0
   55.5630   24.5370   46.8490 N   0  0  0  0  0  0  0  0  0  0  0  0
   55.8780   25.7410   46.3430 C   0  0  0  0  0  0  0  0  0  0  0  0
   54.9340   26.6960   45.9890 O   0  0  0  0  0  0  0  0  0  0  0  0
   58.2810   28.3150   47.7850 C   0  0  0  0  0  0  0  0  0  0  0  0
   58.9590   29.4760   48.0980 C   0  0  0  0  0  0  0  0  0  0  0  0
   58.9930   30.0460   49.4670 C   0  0  0  0  0  0  0  0  0  0  0  0
   58.1460   29.7150   50.3370 O   0  0  0  0  0  0  0  0  0  0  0  0
   60.0010   31.0000   49.8160 N   0  0  0  0  0  0  0  0  0  0  0  0
   59.6630   32.4260   49.8070 C   0  0  0  0  0  0  0  0  0  0  0  0
   60.8150   33.2810   50.3460 C   0  0  0  0  0  0  0  0  0  0  0  0
   62.0920   32.8490   49.7550 N   0  0  0  0  0  0  0  0  0  0  0  0
   63.0680   33.8310   49.3440 C   0  0  0  0  0  0  0  0  0  0  0  0
   62.9450   35.0350   49.7030 O   0  0  0  0  0  0  0  0  0  0  0  0
   64.2390   33.4540   48.4870 C   0  0  0  0  0  0  0  0  0  0  0  0
   62.4190   31.4140   49.6760 C   0  0  0  0  0  0  0  0  0  0  0  0
   61.3120   30.5390   50.2770 C   0  0  0  0  0  0  0  0  0  0  0  0
   59.5600   29.9850   46.9890 N   0  0  0  0  0  0  0  0  0  0  0  0
   60.3790   31.2090   46.9240 C   0  0  0  0  0  0  0  0  0  0  0  0
   59.5690   32.3860   46.4340 C   0  0  0  0  0  0  0  0  0  0  0  0
   58.2410   32.2130   46.0060 C   0  0  0  0  0  0  0  0  0  0  0  0
   57.5080   33.3010   45.5190 C   0  0  0  0  0  0  0  0  0  0  0  0
   58.0960   34.5670   45.4480 C   0  0  0  0  0  0  0  0  0  0  0  0
   59.4200   34.7450   45.8570 C   0  0  0  0  0  0  0  0  0  0  0  0
   60.1570   33.6600   46.3410 C   0  0  0  0  0  0  0  0  0  0  0  0
  1  2  2  0
  2  3  1  0
  3  4  2  0
  4  5  1  0
  5  6  1  0
  6  7  1  0
  7  8  2  0
  7  9  1  0
  9 10  1  0
 10 11  1  0
  3 12  1  0
 12 13  2  0
 13 14  1  0
 14 15  2  0
 14 16  1  0
 16 17  1  0
 17 18  1  0
 18 19  1  0
 19 20  1  0
 20 21  2  0
 20 22  1  0
 19 23  1  0
 23 24  1  0
 13 25  1  0
 25 26  1  0
 26 27  1  0
 27 28  2  0
 28 29  1  0
 29 30  2  0
 30 31  1  0
 31 32  2  0
 25  2  1  0
 32 27  1  0
 10  5  2  0
 24 16  1  0
M  CHG  3   6  -1   9  -1  11  -1
M  END
>  <UniqueID>  (1708) 
33

>  <SMILES>  (1708) 
C=c1/c(=C/c2[n-]c(=O)[n-]c2[O-])cc(C(=O)N2CCN(C(C)=O)CC2)n1Cc1ccccc1

>  <Energy>  (1708) 
125.5558390773622

>  <Genealogy>  (1708) 
C=c1c(=Cc2[n-]c(=O)[n-]c2[O-])cc(C(=O)N2CCN(C(C)=O)CC2)n1Cc1ccccc1 (protonated)
C=c1/c(=C/c2[n-]c(=O)[n-]c2[O-])cc(C(=O)N2CCN(C(C)=O)CC2)n1Cc1ccccc1 (cis-trans isomerization)
C=c1/c(=C/c2[n-]c(=O)[n-]c2[O-])cc(C(=O)N2CCN(C(C)=O)CC2)n1Cc1ccccc1 (3D coordinates assigned)
C=c1/c(=C/c2[n-]c(=O)[n-]c2[O-])cc(C(=O)N2CCN(C(C)=O)CC2)n1Cc1ccccc1 (nonaromatic ring conformer: 125.5558390773622 kcal/mol)

>  <smiles>  (1708) 
C=c1c(=Cc2[nH]c(=O)[nH]c2O)cc(C(=O)N2CCN(C(C)=O)CC2)n1Cc1ccccc1

>  <score_type>  (1708) 
oracle

>  <origin>  (1708) 
adg

>  <m_score__min__energy>  (1708) 
-16.27

>  <m_primary>  (1708) 
energy

$$$$
41:0
     RDKit          3D

 24 26  0  0  0  0  0  0  0  0999 V2000
   58.1390   26.7660   42.8250 C   0  0  0  0  0  0  0  0  0  0  0  0
   58.0430   26.5720   44.1490 C   0  0  0  0  0  0  0  0  0  0  0  0
   57.3990   25.5240   44.8190 C   0  0  0  0  0  0  0  0  0  0  0  0
   56.5590   24.5670   44.3710 C   0  0  0  0  0  0  0  0  0  0  0  0
   55.2300   24.2700   44.9280 C   0  0  0  0  0  0  0  0  0  0  0  0
   54.5310   23.1450   44.6870 N   0  0  0  0  0  0  0  0  0  0  0  0
   53.3400   23.3850   45.2780 C   0  0  0  0  0  0  0  0  0  0  0  0
   52.4050   22.5440   45.2840 O   0  0  0  0  0  0  0  0  0  0  0  0
   53.2290   24.6020   45.8530 N   0  0  0  0  0  0  0  0  0  0  0  0
   54.4280   25.1530   45.6080 C   0  0  0  0  0  0  0  0  0  0  0  0
   54.7800   26.4400   45.9940 O   0  0  0  0  0  0  0  0  0  0  0  0
   57.7960   25.6770   46.1430 C   0  0  0  0  0  0  0  0  0  0  0  0
   57.3850   24.8310   47.3080 C   0  0  0  0  0  0  0  0  0  0  0  0
   58.5630   26.7750   46.2690 N   0  0  0  0  0  0  0  0  0  0  0  0
   58.7080   27.3140   45.0700 N   0  0  0  0  0  0  0  0  0  0  0  0
   59.4940   28.5320   44.8480 C   0  0  0  0  0  0  0  0  0  0  0  0
   58.6000   29.7470   44.8640 C   0  0  0  0  0  0  0  0  0  0  0  0
   57.4190   29.7480   44.1020 C   0  0  0  0  0  0  0  0  0  0  0  0
   56.5790   30.8630   44.1010 C   0  0  0  0  0  0  0  0  0  0  0  0
   56.9040   31.9860   44.8650 C   0  0  0  0  0  0  0  0  0  0  0  0
   58.0700   31.9960   45.6370 C   0  0  0  0  0  0  0  0  0  0  0  0
   58.4630   33.4110   46.5970 Cl  0  0  0  0  0  0  0  0  0  0  0  0
   58.9180   30.8780   45.6420 C   0  0  0  0  0  0  0  0  0  0  0  0
   60.0410   30.8980   46.4050 F   0  0  0  0  0  0  0  0  0  0  0  0
  1  2  2  0
  2  3  1  0
  3  4  2  0
  4  5  1  0
  5  6  1  0
  6  7  1  0
  7  8  2  0
  7  9  1  0
  9 10  1  0
 10 11  1  0
  3 12  1  0
 12 13  1  0
 12 14  2  0
 14 15  1  0
 15 16  1  0
 16 17  1  0
 17 18  2  0
 18 19  1  0
 19 20  2  0
 20 21  1  0
 21 22  1  0
 21 23  2  0
 23 24  1  0
 15  2  1  0
 23 17  1  0
 10  5  2  0
M  CHG  3   6  -1   9  -1  11  -1
M  END
>  <UniqueID>  (1709) 
39

>  <SMILES>  (1709) 
C=c1/c(=C\c2[n-]c(=O)[n-]c2[O-])c(C)nn1Cc1cccc(Cl)c1F

>  <Energy>  (1709) 
109.23562069053668

>  <Genealogy>  (1709) 
C=c1c(=Cc2[n-]c(=O)[n-]c2[O-])c(C)nn1Cc1cccc(Cl)c1F (protonated)
C=c1/c(=C\c2[n-]c(=O)[n-]c2[O-])c(C)nn1Cc1cccc(Cl)c1F (cis-trans isomerization)
C=c1/c(=C\c2[n-]c(=O)[n-]c2[O-])c(C)nn1Cc1cccc(Cl)c1F (3D coordinates assigned)
C=c1/c(=C\c2[n-]c(=O)[n-]c2[O-])c(C)nn1Cc1cccc(Cl)c1F (optimized conformer: 109.23562069053668 kcal/mol)

>  <smiles>  (1709) 
C=c1c(=Cc2[nH]c(=O)[nH]c2O)c(C)nn1Cc1cccc(Cl)c1F

>  <score_type>  (1709) 
oracle

>  <origin>  (1709) 
adg

>  <m_score__min__energy>  (1709) 
-15.859999999999999

>  <m_primary>  (1709) 
energy

$$$$
43:0
     RDKit          3D

 31 34  0  0  0  0  0  0  0  0999 V2000
   56.4650   29.3500   44.5760 C   0  0  0  0  0  0  0  0  0  0  0  0
   57.7150   29.0730   44.9830 C   0  0  0  0  0  0  0  0  0  0  0  0
   58.2880   27.7990   45.1110 C   0  0  0  0  0  0  0  0  0  0  0  0
   57.7090   26.6180   44.8040 C   0  0  0  0  0  0  0  0  0  0  0  0
   57.1300   25.6600   45.7720 C   0  0  0  0  0  0  0  0  0  0  0  0
   57.7600   24.6010   46.3140 N   0  0  0  0  0  0  0  0  0  0  0  0
   56.8390   24.0760   47.1480 C   0  0  0  0  0  0  0  0  0  0  0  0
   57.0590   23.0500   47.8430 O   0  0  0  0  0  0  0  0  0  0  0  0
   55.6630   24.7350   47.1800 N   0  0  0  0  0  0  0  0  0  0  0  0
   55.8650   25.7350   46.3070 C   0  0  0  0  0  0  0  0  0  0  0  0
   54.9090   26.6970   46.0020 O   0  0  0  0  0  0  0  0  0  0  0  0
   59.5730   28.0060   45.6050 C   0  0  0  0  0  0  0  0  0  0  0  0
   59.7320   29.3700   45.7460 C   0  0  0  0  0  0  0  0  0  0  0  0
   60.9750   30.0320   46.2580 C   0  0  0  0  0  0  0  0  0  0  0  0
   58.6070   30.0180   45.3760 N   0  0  0  0  0  0  0  0  0  0  0  0
   58.4190   31.4440   45.3880 C   0  0  0  0  0  0  0  0  0  0  0  0
   57.9800   32.1070   44.2330 C   0  0  0  0  0  0  0  0  0  0  0  0
   57.8140   33.4930   44.2410 C   0  0  0  0  0  0  0  0  0  0  0  0
   58.0820   34.2270   45.4000 C   0  0  0  0  0  0  0  0  0  0  0  0
   58.5180   33.5760   46.5700 C   0  0  0  0  0  0  0  0  0  0  0  0
   58.7990   34.2980   47.7810 N   0  0  0  0  0  0  0  0  0  0  0  0
   59.7280   33.6510   49.0950 S   0  0  0  0  0  0  0  0  0  0  0  0
   59.1560   32.3220   49.5000 O   0  0  0  0  0  0  0  0  0  0  0  0
   59.6520   34.5880   50.2660 O   0  0  0  0  0  0  0  0  0  0  0  0
   61.4140   33.4900   48.6110 C   0  0  0  0  0  0  0  0  0  0  0  0
   61.7600   33.5940   47.2570 C   0  0  0  0  0  0  0  0  0  0  0  0
   63.0950   33.4630   46.8600 C   0  0  0  0  0  0  0  0  0  0  0  0
   64.0890   33.2260   47.8140 C   0  0  0  0  0  0  0  0  0  0  0  0
   63.7480   33.1170   49.1660 C   0  0  0  0  0  0  0  0  0  0  0  0
   62.4140   33.2500   49.5660 C   0  0  0  0  0  0  0  0  0  0  0  0
   58.6900   32.1830   46.5480 C   0  0  0  0  0  0  0  0  0  0  0  0
  1  2  2  0
  2  3  1  0
  3  4  2  3
  4  5  1  0
  5  6  1  0
  6  7  1  0
  7  8  2  0
  7  9  1  0
  9 10  1  0
 10 11  1  0
  3 12  1  0
 12 13  2  0
 13 14  1  0
 13 15  1  0
 15 16  1  0
 16 17  2  0
 17 18  1  0
 18 19  2  0
 19 20  1  0
 20 21  1  0
 21 22  1  0
 22 23  2  0
 22 24  2  0
 22 25  1  0
 25 26  2  0
 26 27  1  0
 27 28  2  0
 28 29  1  0
 29 30  2  0
 20 31  2  0
 15  2  1  0
 31 16  1  0
 10  5  2  0
 30 25  1  0
M  CHG  3   6  -1   9  -1  11  -1
M  END
>  <UniqueID>  (1710) 
41

>  <SMILES>  (1710) 
C=c1c(=Cc2[n-]c(=O)[n-]c2[O-])cc(C)n1-c1cccc(NS(=O)(=O)c2ccccc2)c1

>  <Energy>  (1710) 
123.33400993731668

>  <Genealogy>  (1710) 
C=c1c(=Cc2[n-]c(=O)[n-]c2[O-])cc(C)n1-c1cccc(NS(=O)(=O)c2ccccc2)c1 (protonated)
C=c1c(=Cc2[n-]c(=O)[n-]c2[O-])cc(C)n1-c1cccc(NS(=O)(=O)c2ccccc2)c1 (3D coordinates assigned)
C=c1c(=Cc2[n-]c(=O)[n-]c2[O-])cc(C)n1-c1cccc(NS(=O)(=O)c2ccccc2)c1 (optimized conformer: 123.33400993731668 kcal/mol)

>  <smiles>  (1710) 
C=c1c(=Cc2[nH]c(=O)[nH]c2O)cc(C)n1-c1cccc(NS(=O)(=O)c2ccccc2)c1

>  <score_type>  (1710) 
oracle

>  <origin>  (1710) 
adg

>  <m_score__min__energy>  (1710) 
-17.489999999999998

>  <m_primary>  (1710) 
energy

$$$$
50:0
     RDKit          3D

 30 33  0  0  0  0  0  0  0  0999 V2000
   58.9180   29.1280   46.6740 C   0  0  0  0  0  0  0  0  0  0  0  0
   58.3540   29.1200   45.4550 C   0  0  0  0  0  0  0  0  0  0  0  0
   58.0340   28.0020   44.6650 C   0  0  0  0  0  0  0  0  0  0  0  0
   58.3170   26.6940   44.8210 C   0  0  0  0  0  0  0  0  0  0  0  0
   57.6110   25.7630   45.7230 C   0  0  0  0  0  0  0  0  0  0  0  0
   56.2710   25.9740   46.1130 C   0  0  0  0  0  0  0  0  0  0  0  0
   55.5320   27.0680   45.6600 O   0  0  0  0  0  0  0  0  0  0  0  0
   55.6740   25.0920   46.9570 N   0  0  0  0  0  0  0  0  0  0  0  0
   56.3460   24.0230   47.4520 C   0  0  0  0  0  0  0  0  0  0  0  0
   55.7660   23.2210   48.2300 O   0  0  0  0  0  0  0  0  0  0  0  0
   57.6440   23.8180   47.1140 N   0  0  0  0  0  0  0  0  0  0  0  0
   58.2900   24.6630   46.2710 C   0  0  0  0  0  0  0  0  0  0  0  0
   59.4970   24.4450   45.9830 O   0  0  0  0  0  0  0  0  0  0  0  0
   57.3310   28.4880   43.5730 C   0  0  0  0  0  0  0  0  0  0  0  0
   57.2910   29.8600   43.7000 C   0  0  0  0  0  0  0  0  0  0  0  0
   56.6350   30.7860   42.7230 C   0  0  0  0  0  0  0  0  0  0  0  0
   57.9040   30.2440   44.8400 N   0  0  0  0  0  0  0  0  0  0  0  0
   58.0420   31.6010   45.2980 C   0  0  0  0  0  0  0  0  0  0  0  0
   56.9530   32.4810   45.2240 C   0  0  0  0  0  0  0  0  0  0  0  0
   57.0800   33.7930   45.6820 C   0  0  0  0  0  0  0  0  0  0  0  0
   58.2940   34.2350   46.2140 C   0  0  0  0  0  0  0  0  0  0  0  0
   59.3940   33.3700   46.2900 C   0  0  0  0  0  0  0  0  0  0  0  0
   60.6210   33.8730   46.8330 N   0  0  0  0  0  0  0  0  0  0  0  0
   61.2200   33.5660   48.4300 S   0  0  0  0  0  0  0  0  0  0  0  0
   60.7990   32.1820   48.8350 O   0  0  0  0  0  0  0  0  0  0  0  0
   60.6180   34.5540   49.3930 O   0  0  0  0  0  0  0  0  0  0  0  0
   63.0120   33.6390   48.4270 C   0  0  0  0  0  0  0  0  0  0  0  0
   63.6270   33.2750   47.0850 C   0  0  0  0  0  0  0  0  0  0  0  0
   63.7450   32.3180   48.2570 C   0  0  0  0  0  0  0  0  0  0  0  0
   59.2600   32.0470   45.8320 C   0  0  0  0  0  0  0  0  0  0  0  0
  1  2  2  0
  2  3  1  0
  3  4  2  3
  4  5  1  0
  5  6  2  0
  6  7  1  0
  6  8  1  0
  8  9  1  0
  9 10  2  0
  9 11  1  0
 11 12  1  0
 12 13  2  0
  3 14  1  0
 14 15  2  0
 15 16  1  0
 15 17  1  0
 17 18  1  0
 18 19  2  0
 19 20  1  0
 20 21  2  0
 21 22  1  0
 22 23  1  0
 23 24  1  0
 24 25  2  0
 24 26  2  0
 24 27  1  0
 27 28  1  0
 28 29  1  0
 22 30  2  0
 17  2  1  0
 30 18  1  0
 12  5  1  0
 29 27  1  0
M  CHG  3   8  -1  11  -1  23  -1
M  END
>  <UniqueID>  (1711) 
48

>  <SMILES>  (1711) 
C=c1c(=Cc2c(O)[n-]c(=O)[n-]c2=O)cc(C)n1-c1cccc([N-]S(=O)(=O)C2CC2)c1

>  <Energy>  (1711) 
362.9791451332767

>  <Genealogy>  (1711) 
C=c1c(=Cc2c(O)[n-]c(=O)[n-]c2=O)cc(C)n1-c1cccc([N-]S(=O)(=O)C2CC2)c1 (protonated)
C=c1c(=Cc2c(O)[n-]c(=O)[n-]c2=O)cc(C)n1-c1cccc([N-]S(=O)(=O)C2CC2)c1 (3D coordinates assigned)
C=c1c(=Cc2c(O)[n-]c(=O)[n-]c2=O)cc(C)n1-c1cccc([N-]S(=O)(=O)C2CC2)c1 (nonaromatic ring conformer: 362.9791451332767 kcal/mol)

>  <smiles>  (1711) 
C=c1c(=Cc2c(O)[nH]c(=O)[nH]c2=O)cc(C)n1-c1cccc(NS(=O)(=O)C2CC2)c1

>  <score_type>  (1711) 
oracle

>  <origin>  (1711) 
adg

>  <m_score__min__energy>  (1711) 
-14.43

>  <m_primary>  (1711) 
energy

$$$$
55:0
     RDKit          3D

 30 32  0  0  0  0  0  0  0  0999 V2000
   59.9270   34.6160   49.3950 O   0  0  0  0  0  0  0  0  0  0  0  0
   61.0180   34.2140   48.6230 C   0  0  0  0  0  0  0  0  0  0  0  0
   62.2450   33.9350   49.2450 C   0  0  0  0  0  0  0  0  0  0  0  0
   63.3360   33.5040   48.4880 C   0  0  0  0  0  0  0  0  0  0  0  0
   63.2090   33.3360   47.1090 C   0  0  0  0  0  0  0  0  0  0  0  0
   61.9920   33.6140   46.4800 C   0  0  0  0  0  0  0  0  0  0  0  0
   60.8940   34.0800   47.2230 C   0  0  0  0  0  0  0  0  0  0  0  0
   59.6390   34.4330   46.5150 C   0  0  0  0  0  0  0  0  0  0  0  0
   58.9130   35.3480   46.9870 O   0  0  0  0  0  0  0  0  0  0  0  0
   59.2100   33.7810   45.2550 C   0  0  0  0  0  0  0  0  0  0  0  0
   58.1150   33.0170   45.1060 C   0  0  0  0  0  0  0  0  0  0  0  0
   58.0510   31.5710   45.4010 C   0  0  0  0  0  0  0  0  0  0  0  0
   58.8760   31.0340   46.3960 C   0  0  0  0  0  0  0  0  0  0  0  0
   58.7880   29.6790   46.7320 C   0  0  0  0  0  0  0  0  0  0  0  0
   57.8920   28.8320   46.0500 C   0  0  0  0  0  0  0  0  0  0  0  0
   57.7210   27.4030   46.4030 C   0  0  0  0  0  0  0  0  0  0  0  0
   58.1990   26.3890   45.6650 C   0  0  0  0  0  0  0  0  0  0  0  0
   57.3960   25.7160   44.6230 C   0  0  0  0  0  0  0  0  0  0  0  0
   57.7240   25.8770   43.4180 O   0  0  0  0  0  0  0  0  0  0  0  0
   56.2300   24.8530   44.9390 C   0  0  0  0  0  0  0  0  0  0  0  0
   55.1140   25.3780   45.6140 C   0  0  0  0  0  0  0  0  0  0  0  0
   55.0910   26.7080   46.0200 O   0  0  0  0  0  0  0  0  0  0  0  0
   54.0490   24.5810   45.8880 N   0  0  0  0  0  0  0  0  0  0  0  0
   54.0350   23.2760   45.5150 C   0  0  0  0  0  0  0  0  0  0  0  0
   53.0380   22.5580   45.7850 O   0  0  0  0  0  0  0  0  0  0  0  0
   55.0920   22.7470   44.8500 N   0  0  0  0  0  0  0  0  0  0  0  0
   56.1810   23.5010   44.5480 C   0  0  0  0  0  0  0  0  0  0  0  0
   57.1300   22.9800   43.9040 O   0  0  0  0  0  0  0  0  0  0  0  0
   57.0930   29.3720   45.0290 C   0  0  0  0  0  0  0  0  0  0  0  0
   57.1820   30.7250   44.6950 C   0  0  0  0  0  0  0  0  0  0  0  0
  1  2  1  0
  2  3  2  0
  3  4  1  0
  4  5  2  0
  5  6  1  0
  6  7  2  0
  7  8  1  0
  8  9  2  0
  8 10  1  0
 10 11  2  0
 11 12  1  0
 12 13  2  0
 13 14  1  0
 14 15  2  0
 15 16  1  0
 16 17  2  0
 17 18  1  0
 18 19  2  0
 18 20  1  0
 20 21  2  0
 21 22  1  0
 21 23  1  0
 23 24  1  0
 24 25  2  0
 24 26  1  0
 26 27  1  0
 27 28  2  0
 15 29  1  0
 29 30  2  0
  7  2  1  0
 30 12  1  0
 27 20  1  0
M  CHG  3  22  -1  23  -1  26  -1
M  END
>  <UniqueID>  (1712) 
53

>  <SMILES>  (1712) 
O=C(/C=C\c1ccc(/C=C/C(=O)c2c([O-])[n-]c(=O)[n-]c2=O)cc1)c1ccccc1O

>  <Energy>  (1712) 
67.25496980238337

>  <Genealogy>  (1712) 
O=C(C=Cc1ccc(C=CC(=O)c2c([O-])[n-]c(=O)[n-]c2=O)cc1)c1ccccc1O (protonated)
O=C(/C=C\c1ccc(/C=C/C(=O)c2c([O-])[n-]c(=O)[n-]c2=O)cc1)c1ccccc1O (cis-trans isomerization)
O=C(/C=C\c1ccc(/C=C/C(=O)c2c([O-])[n-]c(=O)[n-]c2=O)cc1)c1ccccc1O (3D coordinates assigned)
O=C(/C=C\c1ccc(/C=C/C(=O)c2c([O-])[n-]c(=O)[n-]c2=O)cc1)c1ccccc1O (optimized conformer: 67.25496980238337 kcal/mol)

>  <smiles>  (1712) 
O=C(C=Cc1ccc(C=CC(=O)c2c(O)[nH]c(=O)[nH]c2=O)cc1)c1ccccc1O

>  <score_type>  (1712) 
oracle

>  <origin>  (1712) 
adg

>  <m_score__min__energy>  (1712) 
-16.48

>  <m_primary>  (1712) 
energy

$$$$
56:0
     RDKit          3D

 32 35  0  0  0  0  0  0  0  0999 V2000
   59.7960   29.7300   44.8960 C   0  0  0  0  0  0  0  0  0  0  0  0
   59.5020   29.4710   46.1790 C   0  0  0  0  0  0  0  0  0  0  0  0
   58.6140   28.4970   46.6470 C   0  0  0  0  0  0  0  0  0  0  0  0
   57.8770   27.6420   45.9130 C   0  0  0  0  0  0  0  0  0  0  0  0
   57.4820   26.2910   46.3770 C   0  0  0  0  0  0  0  0  0  0  0  0
   56.1290   25.9200   46.3800 C   0  0  0  0  0  0  0  0  0  0  0  0
   55.1460   26.8200   45.9850 O   0  0  0  0  0  0  0  0  0  0  0  0
   55.7680   24.6740   46.7820 N   0  0  0  0  0  0  0  0  0  0  0  0
   56.6980   23.7660   47.1720 C   0  0  0  0  0  0  0  0  0  0  0  0
   56.3400   22.6190   47.5450 O   0  0  0  0  0  0  0  0  0  0  0  0
   58.0150   24.0910   47.1520 N   0  0  0  0  0  0  0  0  0  0  0  0
   58.4290   25.3230   46.7570 C   0  0  0  0  0  0  0  0  0  0  0  0
   59.6620   25.5760   46.7190 O   0  0  0  0  0  0  0  0  0  0  0  0
   58.5860   28.6270   48.0310 C   0  0  0  0  0  0  0  0  0  0  0  0
   59.4550   29.6500   48.3490 C   0  0  0  0  0  0  0  0  0  0  0  0
   59.7010   30.1580   49.7370 C   0  0  0  0  0  0  0  0  0  0  0  0
   60.0120   30.1630   47.2290 N   0  0  0  0  0  0  0  0  0  0  0  0
   60.9110   31.2890   47.1780 C   0  0  0  0  0  0  0  0  0  0  0  0
   62.2430   31.1120   47.5800 C   0  0  0  0  0  0  0  0  0  0  0  0
   63.1230   32.1950   47.6130 C   0  0  0  0  0  0  0  0  0  0  0  0
   62.6800   33.4670   47.2520 C   0  0  0  0  0  0  0  0  0  0  0  0
   61.3570   33.6590   46.8460 C   0  0  0  0  0  0  0  0  0  0  0  0
   60.4640   32.5760   46.7860 C   0  0  0  0  0  0  0  0  0  0  0  0
   59.0810   32.8150   46.3200 C   0  0  0  0  0  0  0  0  0  0  0  0
   58.1410   32.8420   47.1610 O   0  0  0  0  0  0  0  0  0  0  0  0
   58.8040   33.0500   44.9330 N   0  0  0  0  0  0  0  0  0  0  0  0
   57.4330   33.0920   44.4280 C   0  0  0  0  0  0  0  0  0  0  0  0
   56.9780   31.7250   44.0230 C   0  0  0  0  0  0  0  0  0  0  0  0
   56.3710   30.8840   44.8250 O   0  0  0  0  0  0  0  0  0  0  0  0
   56.1270   29.7770   44.1620 C   0  0  0  0  0  0  0  0  0  0  0  0
   56.5980   29.8960   42.8700 C   0  0  0  0  0  0  0  0  0  0  0  0
   57.1500   31.1550   42.7780 C   0  0  0  0  0  0  0  0  0  0  0  0
  1  2  2  0
  2  3  1  0
  3  4  2  0
  4  5  1  0
  5  6  2  0
  6  7  1  0
  6  8  1  0
  8  9  1  0
  9 10  2  0
  9 11  1  0
 11 12  1  0
 12 13  2  0
  3 14  1  0
 14 15  2  0
 15 16  1  0
 15 17  1  0
 17 18  1  0
 18 19  2  0
 19 20  1  0
 20 21  2  0
 21 22  1  0
 22 23  2  0
 23 24  1  0
 24 25  2  0
 24 26  1  0
 26 27  1  0
 27 28  1  0
 28 29  1  0
 29 30  1  0
 30 31  2  0
 31 32  1  0
 17  2  1  0
 23 18  1  0
 32 28  2  0
 12  5  1  0
M  CHG  3   7  -1   8  -1  11  -1
M  END
>  <UniqueID>  (1713) 
54

>  <SMILES>  (1713) 
C=c1/c(=C/c2c([O-])[n-]c(=O)[n-]c2=O)cc(C)n1-c1ccccc1C(=O)NCc1ccco1

>  <Energy>  (1713) 
123.38181884930586

>  <Genealogy>  (1713) 
C=c1c(=Cc2c([O-])[n-]c(=O)[n-]c2=O)cc(C)n1-c1ccccc1C(=O)NCc1ccco1 (protonated)
C=c1/c(=C/c2c([O-])[n-]c(=O)[n-]c2=O)cc(C)n1-c1ccccc1C(=O)NCc1ccco1 (cis-trans isomerization)
C=c1/c(=C/c2c([O-])[n-]c(=O)[n-]c2=O)cc(C)n1-c1ccccc1C(=O)NCc1ccco1 (3D coordinates assigned)
C=c1/c(=C/c2c([O-])[n-]c(=O)[n-]c2=O)cc(C)n1-c1ccccc1C(=O)NCc1ccco1 (optimized conformer: 123.38181884930586 kcal/mol)

>  <smiles>  (1713) 
C=c1c(=Cc2c(O)[nH]c(=O)[nH]c2=O)cc(C)n1-c1ccccc1C(=O)NCc1ccco1

>  <score_type>  (1713) 
oracle

>  <origin>  (1713) 
adg

>  <m_score__min__energy>  (1713) 
-16.640000000000001

>  <m_primary>  (1713) 
energy

$$$$
57:0
     RDKit          3D

 32 35  0  0  0  0  0  0  0  0999 V2000
   58.1370   26.8040   42.6560 C   0  0  0  0  0  0  0  0  0  0  0  0
   58.1550   26.4680   43.9550 C   0  0  0  0  0  0  0  0  0  0  0  0
   57.4760   25.3970   44.5600 C   0  0  0  0  0  0  0  0  0  0  0  0
   56.5310   24.5640   44.0830 C   0  0  0  0  0  0  0  0  0  0  0  0
   55.3020   24.1720   44.7890 C   0  0  0  0  0  0  0  0  0  0  0  0
   54.6870   22.9830   44.6400 N   0  0  0  0  0  0  0  0  0  0  0  0
   53.5520   23.1260   45.3580 C   0  0  0  0  0  0  0  0  0  0  0  0
   52.7040   22.2050   45.4750 O   0  0  0  0  0  0  0  0  0  0  0  0
   53.3960   24.3380   45.9340 N   0  0  0  0  0  0  0  0  0  0  0  0
   54.5040   24.9940   45.5530 C   0  0  0  0  0  0  0  0  0  0  0  0
   54.7750   26.3140   45.9050 O   0  0  0  0  0  0  0  0  0  0  0  0
   57.9480   25.3240   45.8590 C   0  0  0  0  0  0  0  0  0  0  0  0
   58.8380   26.3630   46.0240 C   0  0  0  0  0  0  0  0  0  0  0  0
   59.5120   26.7010   47.3200 C   0  0  0  0  0  0  0  0  0  0  0  0
   58.9620   27.0670   44.8730 N   0  0  0  0  0  0  0  0  0  0  0  0
   59.8670   28.2070   44.6490 C   0  0  0  0  0  0  0  0  0  0  0  0
   59.5540   29.3410   45.5950 C   0  0  0  0  0  0  0  0  0  0  0  0
   58.4400   30.1660   45.3680 C   0  0  0  0  0  0  0  0  0  0  0  0
   58.1390   31.2100   46.2480 C   0  0  0  0  0  0  0  0  0  0  0  0
   58.9330   31.4280   47.3870 C   0  0  0  0  0  0  0  0  0  0  0  0
   58.6780   32.5040   48.3020 N   0  0  0  0  0  0  0  0  0  0  0  0
   59.6290   33.4590   48.7890 C   0  0  0  0  0  0  0  0  0  0  0  0
   59.3360   34.1940   49.7710 O   0  0  0  0  0  0  0  0  0  0  0  0
   60.9960   33.5240   48.2110 C   0  0  0  0  0  0  0  0  0  0  0  0
   62.0900   33.2360   49.0500 C   0  0  0  0  0  0  0  0  0  0  0  0
   63.3950   33.2540   48.5560 C   0  0  0  0  0  0  0  0  0  0  0  0
   63.6320   33.5600   47.2190 C   0  0  0  0  0  0  0  0  0  0  0  0
   62.5670   33.8660   46.3720 C   0  0  0  0  0  0  0  0  0  0  0  0
   61.2440   33.8700   46.8530 C   0  0  0  0  0  0  0  0  0  0  0  0
   60.1390   34.2510   45.9020 C   0  0  0  0  0  0  0  0  0  0  0  0
   60.0480   30.6120   47.6080 C   0  0  0  0  0  0  0  0  0  0  0  0
   60.3510   29.5710   46.7280 C   0  0  0  0  0  0  0  0  0  0  0  0
  1  2  2  0
  2  3  1  0
  3  4  2  3
  4  5  1  0
  5  6  1  0
  6  7  1  0
  7  8  2  0
  7  9  1  0
  9 10  1  0
 10 11  1  0
  3 12  1  0
 12 13  2  0
 13 14  1  0
 13 15  1  0
 15 16  1  0
 16 17  1  0
 17 18  2  0
 18 19  1  0
 19 20  2  0
 20 21  1  0
 21 22  1  0
 22 23  2  0
 22 24  1  0
 24 25  2  0
 25 26  1  0
 26 27  2  0
 27 28  1  0
 28 29  2  0
 29 30  1  0
 20 31  1  0
 31 32  2  0
 15  2  1  0
 32 17  1  0
 10  5  2  0
 29 24  1  0
M  CHG  3   6  -1   9  -1  21  -1
M  END
>  <UniqueID>  (1714) 
55

>  <SMILES>  (1714) 
C=c1c(=Cc2[n-]c(=O)[n-]c2O)cc(C)n1Cc1ccc([N-]C(=O)c2ccccc2C)cc1

>  <Energy>  (1714) 
132.7287620160956

>  <Genealogy>  (1714) 
C=c1c(=Cc2[n-]c(=O)[n-]c2O)cc(C)n1Cc1ccc([N-]C(=O)c2ccccc2C)cc1 (protonated)
C=c1c(=Cc2[n-]c(=O)[n-]c2O)cc(C)n1Cc1ccc([N-]C(=O)c2ccccc2C)cc1 (3D coordinates assigned)
C=c1c(=Cc2[n-]c(=O)[n-]c2O)cc(C)n1Cc1ccc([N-]C(=O)c2ccccc2C)cc1 (optimized conformer: 132.7287620160956 kcal/mol)

>  <smiles>  (1714) 
C=c1c(=Cc2[nH]c(=O)[nH]c2O)cc(C)n1Cc1ccc(NC(=O)c2ccccc2C)cc1

>  <score_type>  (1714) 
oracle

>  <origin>  (1714) 
adg

>  <m_score__min__energy>  (1714) 
-14.99

>  <m_primary>  (1714) 
energy

$$$$
60:0
     RDKit          3D

 35 38  0  0  0  0  0  0  0  0999 V2000
   57.8430   32.1880   50.3480 N   0  0  0  0  0  0  0  0  0  0  0  0
   58.5940   33.0460   51.2020 C   0  0  0  0  0  0  0  0  0  0  0  0
   58.0360   33.5570   52.2080 O   0  0  0  0  0  0  0  0  0  0  0  0
   60.0280   33.3000   50.9430 C   0  0  0  0  0  0  0  0  0  0  0  0
   61.0580   33.1370   51.8560 C   0  0  0  0  0  0  0  0  0  0  0  0
   60.9490   32.6960   53.2860 C   0  0  0  0  0  0  0  0  0  0  0  0
   60.5330   33.8610   54.1770 C   0  0  0  0  0  0  0  0  0  0  0  0
   62.2280   33.4690   51.2810 N   0  0  0  0  0  0  0  0  0  0  0  0
   61.8980   33.8310   50.0240 C   0  0  0  0  0  0  0  0  0  0  0  0
   62.9410   34.2540   49.0230 C   0  0  0  0  0  0  0  0  0  0  0  0
   63.3650   33.0860   48.1250 C   0  0  0  0  0  0  0  0  0  0  0  0
   63.3720   33.4630   46.6440 C   0  0  0  0  0  0  0  0  0  0  0  0
   60.5670   33.7350   49.7780 N   0  0  0  0  0  0  0  0  0  0  0  0
   59.8640   34.1940   48.5690 C   0  0  0  0  0  0  0  0  0  0  0  0
   59.4450   33.0230   47.7170 C   0  0  0  0  0  0  0  0  0  0  0  0
   60.3330   31.9590   47.4900 C   0  0  0  0  0  0  0  0  0  0  0  0
   59.9460   30.8730   46.7000 C   0  0  0  0  0  0  0  0  0  0  0  0
   58.6710   30.8410   46.1160 C   0  0  0  0  0  0  0  0  0  0  0  0
   58.2690   29.7160   45.3150 N   0  0  0  0  0  0  0  0  0  0  0  0
   57.6940   29.7850   44.0930 C   0  0  0  0  0  0  0  0  0  0  0  0
   57.3880   31.0540   43.3590 C   0  0  0  0  0  0  0  0  0  0  0  0
   57.4300   28.5170   43.6130 C   0  0  0  0  0  0  0  0  0  0  0  0
   57.8560   27.6250   44.5880 C   0  0  0  0  0  0  0  0  0  0  0  0
   57.7470   26.2820   44.5460 C   0  0  0  0  0  0  0  0  0  0  0  0
   57.2480   25.4600   45.6620 C   0  0  0  0  0  0  0  0  0  0  0  0
   57.8900   24.3720   46.1220 N   0  0  0  0  0  0  0  0  0  0  0  0
   57.0540   23.8880   47.0650 C   0  0  0  0  0  0  0  0  0  0  0  0
   57.3190   22.8600   47.7420 O   0  0  0  0  0  0  0  0  0  0  0  0
   55.9090   24.5850   47.2180 N   0  0  0  0  0  0  0  0  0  0  0  0
   56.0380   25.5700   46.3140 C   0  0  0  0  0  0  0  0  0  0  0  0
   55.0550   26.5200   46.0600 O   0  0  0  0  0  0  0  0  0  0  0  0
   58.3680   28.4010   45.6340 C   0  0  0  0  0  0  0  0  0  0  0  0
   58.9190   27.9430   46.7690 C   0  0  0  0  0  0  0  0  0  0  0  0
   57.7880   31.9080   46.3320 C   0  0  0  0  0  0  0  0  0  0  0  0
   58.1730   32.9940   47.1200 C   0  0  0  0  0  0  0  0  0  0  0  0
  1  2  1  0
  2  3  2  0
  2  4  1  0
  4  5  2  0
  5  6  1  0
  6  7  1  0
  5  8  1  0
  8  9  2  0
  9 10  1  0
 10 11  1  0
 11 12  1  0
  9 13  1  0
 13 14  1  0
 14 15  1  0
 15 16  2  0
 16 17  1  0
 17 18  2  0
 18 19  1  0
 19 20  1  0
 20 21  1  0
 20 22  2  0
 22 23  1  0
 23 24  2  0
 24 25  1  0
 25 26  1  0
 26 27  1  0
 27 28  2  0
 27 29  1  0
 29 30  1  0
 30 31  1  0
 23 32  1  0
 32 33  2  0
 18 34  1  0
 34 35  2  0
 13  4  1  0
 35 15  1  0
 32 19  1  0
 30 25  2  0
M  CHG  3   1  -1  26  -1  29  -1
M  END
>  <UniqueID>  (1715) 
58

>  <SMILES>  (1715) 
C=c1/c(=C/c2[n-]c(=O)[n-]c2O)cc(C)n1-c1ccc(Cn2c(CCC)nc(CC)c2C([NH-])=O)cc1

>  <Energy>  (1715) 
159.13487004541827

>  <Genealogy>  (1715) 
C=c1c(=Cc2[n-]c(=O)[n-]c2O)cc(C)n1-c1ccc(Cn2c(CCC)nc(CC)c2C([NH-])=O)cc1 (protonated)
C=c1/c(=C/c2[n-]c(=O)[n-]c2O)cc(C)n1-c1ccc(Cn2c(CCC)nc(CC)c2C([NH-])=O)cc1 (cis-trans isomerization)
C=c1/c(=C/c2[n-]c(=O)[n-]c2O)cc(C)n1-c1ccc(Cn2c(CCC)nc(CC)c2C([NH-])=O)cc1 (3D coordinates assigned)
C=c1/c(=C/c2[n-]c(=O)[n-]c2O)cc(C)n1-c1ccc(Cn2c(CCC)nc(CC)c2C([NH-])=O)cc1 (optimized conformer: 159.13487004541827 kcal/mol)

>  <smiles>  (1715) 
C=c1c(=Cc2[nH]c(=O)[nH]c2O)cc(C)n1-c1ccc(Cn2c(CCC)nc(CC)c2C(N)=O)cc1

>  <score_type>  (1715) 
oracle

>  <origin>  (1715) 
adg

>  <m_score__min__energy>  (1715) 
-14.73

>  <m_primary>  (1715) 
energy

$$$$
61:0
     RDKit          3D

 29 31  0  0  0  0  0  0  0  0999 V2000
   54.5630   28.2190   53.0430 C   0  0  0  0  0  0  0  0  0  0  0  0
   54.9160   29.4490   52.6340 C   0  0  0  0  0  0  0  0  0  0  0  0
   54.0490   30.4510   52.1640 C   0  0  0  0  0  0  0  0  0  0  0  0
   52.7400   30.4140   51.8430 C   0  0  0  0  0  0  0  0  0  0  0  0
   51.7090   31.3450   52.3240 C   0  0  0  0  0  0  0  0  0  0  0  0
   51.4320   31.5430   53.6240 N   0  0  0  0  0  0  0  0  0  0  0  0
   50.5350   32.5510   53.6030 C   0  0  0  0  0  0  0  0  0  0  0  0
   50.0160   33.0180   54.6500 O   0  0  0  0  0  0  0  0  0  0  0  0
   50.2450   33.0290   52.3740 N   0  0  0  0  0  0  0  0  0  0  0  0
   51.0070   32.2640   51.5760 C   0  0  0  0  0  0  0  0  0  0  0  0
   51.0820   32.4240   50.1980 O   0  0  0  0  0  0  0  0  0  0  0  0
   54.8040   31.6040   52.0680 C   0  0  0  0  0  0  0  0  0  0  0  0
   56.0960   31.2670   52.4040 C   0  0  0  0  0  0  0  0  0  0  0  0
   57.2240   32.2530   52.4780 C   0  0  0  0  0  0  0  0  0  0  0  0
   56.1760   29.9580   52.7480 N   0  0  0  0  0  0  0  0  0  0  0  0
   57.3830   29.2950   53.2730 C   0  0  0  0  0  0  0  0  0  0  0  0
   58.4390   29.2010   52.2010 C   0  0  0  0  0  0  0  0  0  0  0  0
   59.6280   28.4870   52.4290 C   0  0  0  0  0  0  0  0  0  0  0  0
   60.5650   28.3360   51.4040 C   0  0  0  0  0  0  0  0  0  0  0  0
   60.3210   28.8820   50.1420 C   0  0  0  0  0  0  0  0  0  0  0  0
   59.1390   29.5980   49.9030 C   0  0  0  0  0  0  0  0  0  0  0  0
   58.8540   30.1280   48.6060 N   0  0  0  0  0  0  0  0  0  0  0  0
   59.1390   31.7990   48.2390 S   0  0  0  0  0  0  0  0  0  0  0  0
   58.2040   32.6790   49.0200 O   0  0  0  0  0  0  0  0  0  0  0  0
   58.9040   32.0270   46.7730 O   0  0  0  0  0  0  0  0  0  0  0  0
   60.8290   32.2330   48.6460 C   0  0  0  0  0  0  0  0  0  0  0  0
   61.8260   31.8800   47.5320 C   0  0  0  0  0  0  0  0  0  0  0  0
   63.0220   32.8310   47.4780 C   0  0  0  0  0  0  0  0  0  0  0  0
   58.2190   29.7800   50.9420 C   0  0  0  0  0  0  0  0  0  0  0  0
  1  2  2  0
  2  3  1  0
  3  4  2  3
  4  5  1  0
  5  6  1  0
  6  7  1  0
  7  8  2  0
  7  9  1  0
  9 10  1  0
 10 11  1  0
  3 12  1  0
 12 13  2  0
 13 14  1  0
 13 15  1  0
 15 16  1  0
 16 17  1  0
 17 18  2  0
 18 19  1  0
 19 20  2  0
 20 21  1  0
 21 22  1  0
 22 23  1  0
 23 24  2  0
 23 25  2  0
 23 26  1  0
 26 27  1  0
 27 28  1  0
 21 29  2  0
 15  2  1  0
 29 17  1  0
 10  5  2  0
M  CHG  3   6  -1   9  -1  11  -1
M  END
>  <UniqueID>  (1716) 
59

>  <SMILES>  (1716) 
C=c1c(=Cc2[n-]c(=O)[n-]c2[O-])cc(C)n1Cc1cccc(NS(=O)(=O)CCC)c1

>  <Energy>  (1716) 
115.76364702061555

>  <Genealogy>  (1716) 
C=c1c(=Cc2[n-]c(=O)[n-]c2[O-])cc(C)n1Cc1cccc(NS(=O)(=O)CCC)c1 (protonated)
C=c1c(=Cc2[n-]c(=O)[n-]c2[O-])cc(C)n1Cc1cccc(NS(=O)(=O)CCC)c1 (3D coordinates assigned)
C=c1c(=Cc2[n-]c(=O)[n-]c2[O-])cc(C)n1Cc1cccc(NS(=O)(=O)CCC)c1 (optimized conformer: 115.76364702061555 kcal/mol)

>  <smiles>  (1716) 
C=c1c(=Cc2[nH]c(=O)[nH]c2O)cc(C)n1Cc1cccc(NS(=O)(=O)CCC)c1

>  <score_type>  (1716) 
oracle

>  <origin>  (1716) 
adg

>  <m_score__min__energy>  (1716) 
-16.510000000000002

>  <m_primary>  (1716) 
energy

$$$$
65:0
     RDKit          3D

 32 35  0  0  0  0  0  0  0  0999 V2000
   58.5590   30.0330   45.2940 C   0  0  0  0  0  0  0  0  0  0  0  0
   58.8090   29.3130   46.4010 C   0  0  0  0  0  0  0  0  0  0  0  0
   58.6790   27.9200   46.5330 C   0  0  0  0  0  0  0  0  0  0  0  0
   58.1040   27.0020   45.7300 C   0  0  0  0  0  0  0  0  0  0  0  0
   57.3290   25.8330   46.1750 C   0  0  0  0  0  0  0  0  0  0  0  0
   57.8760   24.7250   46.6980 N   0  0  0  0  0  0  0  0  0  0  0  0
   56.8270   23.9810   47.1010 C   0  0  0  0  0  0  0  0  0  0  0  0
   56.9550   22.8490   47.6360 O   0  0  0  0  0  0  0  0  0  0  0  0
   55.6270   24.5630   46.8920 N   0  0  0  0  0  0  0  0  0  0  0  0
   55.9590   25.7380   46.3240 C   0  0  0  0  0  0  0  0  0  0  0  0
   55.0330   26.7140   45.9810 O   0  0  0  0  0  0  0  0  0  0  0  0
   59.2520   27.5910   47.7460 C   0  0  0  0  0  0  0  0  0  0  0  0
   59.6460   28.7700   48.3390 C   0  0  0  0  0  0  0  0  0  0  0  0
   60.2100   28.8560   49.7250 C   0  0  0  0  0  0  0  0  0  0  0  0
   59.3660   29.8260   47.5340 N   0  0  0  0  0  0  0  0  0  0  0  0
   59.5600   31.2440   47.8900 C   0  0  0  0  0  0  0  0  0  0  0  0
   61.0320   31.5500   48.0500 C   0  0  0  0  0  0  0  0  0  0  0  0
   61.9220   31.1970   47.0200 C   0  0  0  0  0  0  0  0  0  0  0  0
   63.2790   31.5070   47.1180 C   0  0  0  0  0  0  0  0  0  0  0  0
   63.7620   32.1830   48.2370 C   0  0  0  0  0  0  0  0  0  0  0  0
   62.8930   32.5350   49.2710 C   0  0  0  0  0  0  0  0  0  0  0  0
   61.5260   32.2020   49.2020 C   0  0  0  0  0  0  0  0  0  0  0  0
   60.6320   32.5410   50.2300 O   0  0  0  0  0  0  0  0  0  0  0  0
   59.5220   33.3870   50.1180 C   0  0  0  0  0  0  0  0  0  0  0  0
   58.4080   33.0760   50.6200 O   0  0  0  0  0  0  0  0  0  0  0  0
   59.6390   34.6240   49.2880 C   0  0  0  0  0  0  0  0  0  0  0  0
   59.3210   34.3120   47.8540 C   0  0  0  0  0  0  0  0  0  0  0  0
   60.2730   34.5530   46.8470 C   0  0  0  0  0  0  0  0  0  0  0  0
   59.9620   34.2930   45.5080 C   0  0  0  0  0  0  0  0  0  0  0  0
   58.7000   33.8020   45.1640 C   0  0  0  0  0  0  0  0  0  0  0  0
   57.7440   33.5720   46.1580 C   0  0  0  0  0  0  0  0  0  0  0  0
   58.0490   33.8300   47.4980 C   0  0  0  0  0  0  0  0  0  0  0  0
  1  2  2  0
  2  3  1  0
  3  4  2  3
  4  5  1  0
  5  6  1  0
  6  7  1  0
  7  8  2  0
  7  9  1  0
  9 10  1  0
 10 11  1  0
  3 12  1  0
 12 13  2  0
 13 14  1  0
 13 15  1  0
 15 16  1  0
 16 17  1  0
 17 18  2  0
 18 19  1  0
 19 20  2  0
 20 21  1  0
 21 22  2  0
 22 23  1  0
 23 24  1  0
 24 25  2  0
 24 26  1  0
 26 27  1  0
 27 28  2  0
 28 29  1  0
 29 30  2  0
 30 31  1  0
 31 32  2  0
 15  2  1  0
 22 17  1  0
 32 27  1  0
 10  5  2  0
M  CHG  2   9  -1  11  -1
M  END
>  <UniqueID>  (1717) 
63

>  <SMILES>  (1717) 
C=c1c(=Cc2[nH]c(=O)[n-]c2[O-])cc(C)n1Cc1ccccc1OC(=O)Cc1ccccc1

>  <Energy>  (1717) 
130.4426062714868

>  <Genealogy>  (1717) 
C=c1c(=Cc2[nH]c(=O)[n-]c2[O-])cc(C)n1Cc1ccccc1OC(=O)Cc1ccccc1 (protonated)
C=c1c(=Cc2[nH]c(=O)[n-]c2[O-])cc(C)n1Cc1ccccc1OC(=O)Cc1ccccc1 (3D coordinates assigned)
C=c1c(=Cc2[nH]c(=O)[n-]c2[O-])cc(C)n1Cc1ccccc1OC(=O)Cc1ccccc1 (optimized conformer: 130.4426062714868 kcal/mol)

>  <smiles>  (1717) 
C=c1c(=Cc2[nH]c(=O)[nH]c2O)cc(C)n1Cc1ccccc1OC(=O)Cc1ccccc1

>  <score_type>  (1717) 
oracle

>  <origin>  (1717) 
adg

>  <m_score__min__energy>  (1717) 
-14.91

>  <m_primary>  (1717) 
energy

$$$$
71:0
     RDKit          3D

 34 38  0  0  0  0  0  0  0  0999 V2000
   57.4300   29.5730   43.9140 C   0  0  0  0  0  0  0  0  0  0  0  0
   57.8800   29.3640   45.1610 C   0  0  0  0  0  0  0  0  0  0  0  0
   58.0620   28.1240   45.7870 C   0  0  0  0  0  0  0  0  0  0  0  0
   57.8590   26.9050   45.2430 C   0  0  0  0  0  0  0  0  0  0  0  0
   57.1920   25.7660   45.9100 C   0  0  0  0  0  0  0  0  0  0  0  0
   57.7920   24.6430   46.3430 N   0  0  0  0  0  0  0  0  0  0  0  0
   56.7870   23.9500   46.9210 C   0  0  0  0  0  0  0  0  0  0  0  0
   56.9600   22.8210   47.4500 O   0  0  0  0  0  0  0  0  0  0  0  0
   55.5870   24.5650   46.8950 N   0  0  0  0  0  0  0  0  0  0  0  0
   55.8620   25.7140   46.2570 C   0  0  0  0  0  0  0  0  0  0  0  0
   54.9140   26.6960   45.9980 O   0  0  0  0  0  0  0  0  0  0  0  0
   58.5180   28.4050   47.0720 C   0  0  0  0  0  0  0  0  0  0  0  0
   58.5990   29.7800   47.1740 C   0  0  0  0  0  0  0  0  0  0  0  0
   59.0530   30.5190   48.3950 C   0  0  0  0  0  0  0  0  0  0  0  0
   58.2010   30.3610   46.0220 N   0  0  0  0  0  0  0  0  0  0  0  0
   58.1700   31.7750   45.7650 C   0  0  0  0  0  0  0  0  0  0  0  0
   59.2480   32.5810   46.1560 C   0  0  0  0  0  0  0  0  0  0  0  0
   59.2200   33.9680   45.9350 C   0  0  0  0  0  0  0  0  0  0  0  0
   60.3560   34.8220   46.3480 C   0  0  0  0  0  0  0  0  0  0  0  0
   60.3640   36.0370   46.0070 O   0  0  0  0  0  0  0  0  0  0  0  0
   61.4510   34.3030   47.1300 N   0  0  0  0  0  0  0  0  0  0  0  0
   61.3150   34.2800   48.5970 C   0  0  0  0  0  0  0  0  0  0  0  0
   62.4700   33.6000   49.2960 C   0  0  0  0  0  0  0  0  0  0  0  0
   62.6230   33.7560   50.6830 C   0  0  0  0  0  0  0  0  0  0  0  0
   63.6520   33.0960   51.3600 C   0  0  0  0  0  0  0  0  0  0  0  0
   64.5280   32.2630   50.6620 C   0  0  0  0  0  0  0  0  0  0  0  0
   64.3790   32.0900   49.2830 C   0  0  0  0  0  0  0  0  0  0  0  0
   63.3590   32.7620   48.5920 C   0  0  0  0  0  0  0  0  0  0  0  0
   63.1820   32.5560   47.1160 C   0  0  0  0  0  0  0  0  0  0  0  0
   62.6830   33.8450   46.4700 C   0  0  0  0  0  0  0  0  0  0  0  0
   58.1130   34.5350   45.2830 C   0  0  0  0  0  0  0  0  0  0  0  0
   57.0380   33.7330   44.8900 C   0  0  0  0  0  0  0  0  0  0  0  0
   57.0610   32.3580   45.1340 C   0  0  0  0  0  0  0  0  0  0  0  0
   56.0180   31.5880   44.7340 F   0  0  0  0  0  0  0  0  0  0  0  0
  1  2  2  0
  2  3  1  0
  3  4  2  0
  4  5  1  0
  5  6  1  0
  6  7  1  0
  7  8  2  0
  7  9  1  0
  9 10  1  0
 10 11  1  0
  3 12  1  0
 12 13  2  0
 13 14  1  0
 13 15  1  0
 15 16  1  0
 16 17  2  0
 17 18  1  0
 18 19  1  0
 19 20  2  0
 19 21  1  0
 21 22  1  0
 22 23  1  0
 23 24  2  0
 24 25  1  0
 25 26  2  0
 26 27  1  0
 27 28  2  0
 28 29  1  0
 29 30  1  0
 18 31  2  0
 31 32  1  0
 32 33  2  0
 33 34  1  0
 15  2  1  0
 33 16  1  0
 10  5  2  0
 30 21  1  0
 28 23  1  0
M  CHG  3   6  -1   9  -1  11  -1
M  END
>  <UniqueID>  (1718) 
68

>  <SMILES>  (1718) 
C=c1/c(=C/c2[n-]c(=O)[n-]c2[O-])cc(C)n1-c1cc(C(=O)N2CCc3ccccc3C2)ccc1F

>  <Energy>  (1718) 
134.99192965060914

>  <Genealogy>  (1718) 
C=c1c(=Cc2[n-]c(=O)[n-]c2[O-])cc(C)n1-c1cc(C(=O)N2CCc3ccccc3C2)ccc1F (protonated)
C=c1/c(=C/c2[n-]c(=O)[n-]c2[O-])cc(C)n1-c1cc(C(=O)N2CCc3ccccc3C2)ccc1F (cis-trans isomerization)
C=c1/c(=C/c2[n-]c(=O)[n-]c2[O-])cc(C)n1-c1cc(C(=O)N2CCc3ccccc3C2)ccc1F (3D coordinates assigned)
C=c1/c(=C/c2[n-]c(=O)[n-]c2[O-])cc(C)n1-c1cc(C(=O)N2CCc3ccccc3C2)ccc1F (nonaromatic ring conformer: 134.99192965060914 kcal/mol)

>  <smiles>  (1718) 
C=c1c(=Cc2[nH]c(=O)[nH]c2O)cc(C)n1-c1cc(C(=O)N2CCc3ccccc3C2)ccc1F

>  <score_type>  (1718) 
oracle

>  <origin>  (1718) 
adg

>  <m_score__min__energy>  (1718) 
-18.140000000000001

>  <m_primary>  (1718) 
energy

$$$$
74:0
     RDKit          3D

 32 34  0  0  0  0  0  0  0  0999 V2000
   57.4230   33.1710   47.1310 C   0  0  0  0  0  0  0  0  0  0  0  0
   58.1800   33.2960   45.8850 N   0  0  0  0  0  0  0  0  0  0  0  0
   57.7690   32.5650   44.7140 C   0  0  0  0  0  0  0  0  0  0  0  0
   57.0570   31.3580   44.8370 C   0  0  0  0  0  0  0  0  0  0  0  0
   56.6680   30.6480   43.6970 C   0  0  0  0  0  0  0  0  0  0  0  0
   56.9890   31.1300   42.4260 C   0  0  0  0  0  0  0  0  0  0  0  0
   57.7020   32.3230   42.2930 C   0  0  0  0  0  0  0  0  0  0  0  0
   58.0920   33.0370   43.4290 C   0  0  0  0  0  0  0  0  0  0  0  0
   59.5890   34.3180   45.8460 S   0  0  0  0  0  0  0  0  0  0  0  0
   60.0420   34.5040   44.4240 O   0  0  0  0  0  0  0  0  0  0  0  0
   59.2470   35.6710   46.4030 O   0  0  0  0  0  0  0  0  0  0  0  0
   60.8840   33.5990   46.8020 C   0  0  0  0  0  0  0  0  0  0  0  0
   62.2270   33.8430   46.4850 C   0  0  0  0  0  0  0  0  0  0  0  0
   63.2440   33.2300   47.2200 C   0  0  0  0  0  0  0  0  0  0  0  0
   62.9270   32.3760   48.2800 C   0  0  0  0  0  0  0  0  0  0  0  0
   61.5900   32.1490   48.6290 C   0  0  0  0  0  0  0  0  0  0  0  0
   61.2970   31.2470   49.7030 N   0  0  0  0  0  0  0  0  0  0  0  0
   60.4560   30.0920   49.6120 C   0  0  0  0  0  0  0  0  0  0  0  0
   59.3870   30.0190   50.2770 O   0  0  0  0  0  0  0  0  0  0  0  0
   60.8510   28.9620   48.7180 C   0  0  0  0  0  0  0  0  0  0  0  0
   60.5800   29.4170   46.9720 S   0  0  0  0  0  0  0  0  0  0  0  0
   59.1500   28.3580   46.7640 C   0  0  0  0  0  0  0  0  0  0  0  0
   58.0780   28.7930   46.0540 N   0  0  0  0  0  0  0  0  0  0  0  0
   56.9800   28.0120   45.8880 C   0  0  0  0  0  0  0  0  0  0  0  0
   56.0070   28.4590   45.2230 O   0  0  0  0  0  0  0  0  0  0  0  0
   56.9420   26.7200   46.4540 C   0  0  0  0  0  0  0  0  0  0  0  0
   55.7750   25.8160   46.3090 C   0  0  0  0  0  0  0  0  0  0  0  0
   55.8940   24.5710   46.4660 O   0  0  0  0  0  0  0  0  0  0  0  0
   54.5220   26.3330   45.9970 O   0  0  0  0  0  0  0  0  0  0  0  0
   58.0690   26.2990   47.1770 C   0  0  0  0  0  0  0  0  0  0  0  0
   59.1420   27.1190   47.3160 N   0  0  0  0  0  0  0  0  0  0  0  0
   60.5690   32.7540   47.8750 C   0  0  0  0  0  0  0  0  0  0  0  0
  1  2  1  0
  2  3  1  0
  3  4  2  0
  4  5  1  0
  5  6  2  0
  6  7  1  0
  7  8  2  0
  2  9  1  0
  9 10  2  0
  9 11  2  0
  9 12  1  0
 12 13  2  0
 13 14  1  0
 14 15  2  0
 15 16  1  0
 16 17  1  0
 17 18  1  0
 18 19  2  0
 18 20  1  0
 20 21  1  0
 21 22  1  0
 22 23  2  0
 23 24  1  0
 24 25  2  0
 24 26  1  0
 26 27  1  0
 27 28  2  0
 27 29  1  0
 26 30  2  0
 30 31  1  0
 16 32  2  0
  8  3  1  0
 32 12  1  0
 31 22  1  0
M  CHG  3  17  -1  29  -1  31  -1
M  END
>  <UniqueID>  (1719) 
70

>  <SMILES>  (1719) 
CN(c1ccccc1)S(=O)(=O)c1cccc([N-]C(=O)CSc2nc(=O)c(C(=O)[O-])c[n-]2)c1

>  <Energy>  (1719) 
54.618256103296495

>  <Genealogy>  (1719) 
CN(c1ccccc1)S(=O)(=O)c1cccc([N-]C(=O)CSc2nc(=O)c(C(=O)[O-])c[n-]2)c1 (protonated)
CN(c1ccccc1)S(=O)(=O)c1cccc([N-]C(=O)CSc2nc(=O)c(C(=O)[O-])c[n-]2)c1 (3D coordinates assigned)
CN(c1ccccc1)S(=O)(=O)c1cccc([N-]C(=O)CSc2nc(=O)c(C(=O)[O-])c[n-]2)c1 (optimized conformer: 54.618256103296495 kcal/mol)

>  <smiles>  (1719) 
CN(c1ccccc1)S(=O)(=O)c1cccc(NC(=O)CSc2nc(=O)c(C(=O)O)c[nH]2)c1

>  <score_type>  (1719) 
oracle

>  <origin>  (1719) 
adg

>  <m_score__min__energy>  (1719) 
-14.529999999999999

>  <m_primary>  (1719) 
energy

$$$$
75:0
     RDKit          3D

 32 35  0  0  0  0  0  0  0  0999 V2000
   58.7460   25.9290   47.1600 O   0  0  0  0  0  0  0  0  0  0  0  0
   57.5150   26.3110   46.6350 C   0  0  0  0  0  0  0  0  0  0  0  0
   56.4110   25.5460   46.6830 N   0  0  0  0  0  0  0  0  0  0  0  0
   55.4940   26.3140   46.0570 C   0  0  0  0  0  0  0  0  0  0  0  0
   54.3030   25.9470   45.8890 O   0  0  0  0  0  0  0  0  0  0  0  0
   55.9570   27.5050   45.6220 N   0  0  0  0  0  0  0  0  0  0  0  0
   57.2480   27.5010   46.0020 C   0  0  0  0  0  0  0  0  0  0  0  0
   58.2370   28.5690   45.7320 C   0  0  0  0  0  0  0  0  0  0  0  0
   57.9950   29.7180   45.0630 C   0  0  0  0  0  0  0  0  0  0  0  0
   57.7140   29.8560   43.7110 C   0  0  0  0  0  0  0  0  0  0  0  0
   57.5080   31.1990   43.4800 C   0  0  0  0  0  0  0  0  0  0  0  0
   57.1820   31.7830   42.1370 C   0  0  0  0  0  0  0  0  0  0  0  0
   57.6470   31.9090   44.6240 N   0  0  0  0  0  0  0  0  0  0  0  0
   57.4300   33.3610   44.7580 C   0  0  0  0  0  0  0  0  0  0  0  0
   58.7520   34.1400   44.6650 C   0  0  0  0  0  0  0  0  0  0  0  0
   59.4970   34.1490   45.9730 C   0  0  0  0  0  0  0  0  0  0  0  0
   60.8860   33.9500   45.9980 C   0  0  0  0  0  0  0  0  0  0  0  0
   61.5690   33.8970   47.2160 C   0  0  0  0  0  0  0  0  0  0  0  0
   60.8710   34.0340   48.4230 C   0  0  0  0  0  0  0  0  0  0  0  0
   61.7490   33.9670   49.9490 S   0  0  0  0  0  0  0  0  0  0  0  0
   62.7500   35.0870   50.0100 O   0  0  0  0  0  0  0  0  0  0  0  0
   60.7640   34.1390   51.0720 O   0  0  0  0  0  0  0  0  0  0  0  0
   62.5500   32.4150   50.0760 N   0  0  0  0  0  0  0  0  0  0  0  0
   62.2780   31.5500   48.9060 C   0  0  0  0  0  0  0  0  0  0  0  0
   63.4430   31.4980   47.9010 C   0  0  0  0  0  0  0  0  0  0  0  0
   64.1270   32.7900   47.8620 N   0  0  0  0  0  0  0  0  0  0  0  0
   64.7860   33.0840   49.1450 C   0  0  0  0  0  0  0  0  0  0  0  0
   63.9900   32.5630   50.3620 C   0  0  0  0  0  0  0  0  0  0  0  0
   59.4840   34.2390   48.4020 C   0  0  0  0  0  0  0  0  0  0  0  0
   58.8010   34.2940   47.1850 C   0  0  0  0  0  0  0  0  0  0  0  0
   57.9470   31.0110   45.6030 C   0  0  0  0  0  0  0  0  0  0  0  0
   58.1650   31.3380   46.8890 C   0  0  0  0  0  0  0  0  0  0  0  0
  1  2  1  0
  2  3  1  0
  3  4  1  0
  4  5  2  0
  4  6  1  0
  6  7  1  0
  7  8  1  0
  8  9  2  0
  9 10  1  0
 10 11  2  0
 11 12  1  0
 11 13  1  0
 13 14  1  0
 14 15  1  0
 15 16  1  0
 16 17  2  0
 17 18  1  0
 18 19  2  0
 19 20  1  0
 20 21  2  0
 20 22  2  0
 20 23  1  0
 23 24  1  0
 24 25  1  0
 25 26  1  0
 26 27  1  0
 27 28  1  0
 19 29  1  0
 29 30  2  0
 13 31  1  0
 31 32  2  0
  7  2  2  0
 31  9  1  0
 30 16  1  0
 28 23  1  0
M  CHG  2   3  -1   6  -1
M  END
>  <UniqueID>  (1720) 
71

>  <SMILES>  (1720) 
C=c1/c(=C/c2[n-]c(=O)[n-]c2O)cc(C)n1CCc1ccc(S(=O)(=O)N2CCNCC2)cc1

>  <Energy>  (1720) 
125.1302406786807

>  <Genealogy>  (1720) 
C=c1c(=Cc2[n-]c(=O)[n-]c2O)cc(C)n1CCc1ccc(S(=O)(=O)N2CCNCC2)cc1 (protonated)
C=c1/c(=C/c2[n-]c(=O)[n-]c2O)cc(C)n1CCc1ccc(S(=O)(=O)N2CCNCC2)cc1 (cis-trans isomerization)
C=c1/c(=C/c2[n-]c(=O)[n-]c2O)cc(C)n1CCc1ccc(S(=O)(=O)N2CCNCC2)cc1 (3D coordinates assigned)
C=c1/c(=C/c2[n-]c(=O)[n-]c2O)cc(C)n1CCc1ccc(S(=O)(=O)N2CCNCC2)cc1 (nonaromatic ring conformer: 125.1302406786807 kcal/mol)

>  <smiles>  (1720) 
C=c1c(=Cc2[nH]c(=O)[nH]c2O)cc(C)n1CCc1ccc(S(=O)(=O)N2CCNCC2)cc1

>  <score_type>  (1720) 
oracle

>  <origin>  (1720) 
adg

>  <m_score__min__energy>  (1720) 
-14.51

>  <m_primary>  (1720) 
energy

$$$$
76:0
     RDKit          3D

 25 26  0  0  0  0  0  0  0  0999 V2000
   58.4370   29.3750   49.2560 O   0  0  0  0  0  0  0  0  0  0  0  0
   59.5820   29.7380   48.8750 C   0  0  0  0  0  0  0  0  0  0  0  0
   60.2060   30.9680   49.4510 C   0  0  0  0  0  0  0  0  0  0  0  0
   59.2880   32.0990   49.3420 N   0  0  0  0  0  0  0  0  0  0  0  0
   59.5700   33.3330   48.6660 C   0  0  0  0  0  0  0  0  0  0  0  0
   60.1400   34.2580   49.3010 O   0  0  0  0  0  0  0  0  0  0  0  0
   59.2020   33.5480   47.2520 C   0  0  0  0  0  0  0  0  0  0  0  0
   59.6030   34.7350   46.6150 C   0  0  0  0  0  0  0  0  0  0  0  0
   59.2780   34.9650   45.2770 C   0  0  0  0  0  0  0  0  0  0  0  0
   58.5610   34.0080   44.5570 C   0  0  0  0  0  0  0  0  0  0  0  0
   58.1680   32.8190   45.1740 C   0  0  0  0  0  0  0  0  0  0  0  0
   58.4840   32.5770   46.5170 C   0  0  0  0  0  0  0  0  0  0  0  0
   58.0580   31.3770   47.0910 O   0  0  0  0  0  0  0  0  0  0  0  0
   60.2710   29.0170   47.8970 O   0  0  0  0  0  0  0  0  0  0  0  0
   60.6270   29.5750   46.6380 C   0  0  0  0  0  0  0  0  0  0  0  0
   60.0300   28.7470   45.5370 C   0  0  0  0  0  0  0  0  0  0  0  0
   60.6990   28.5870   44.4800 O   0  0  0  0  0  0  0  0  0  0  0  0
   58.6790   28.1290   45.6540 C   0  0  0  0  0  0  0  0  0  0  0  0
   58.5020   26.8510   46.2220 C   0  0  0  0  0  0  0  0  0  0  0  0
   57.2240   26.2960   46.3370 C   0  0  0  0  0  0  0  0  0  0  0  0
   56.1060   27.0040   45.8910 C   0  0  0  0  0  0  0  0  0  0  0  0
   54.8390   26.4450   46.0130 O   0  0  0  0  0  0  0  0  0  0  0  0
   56.2660   28.2720   45.3240 C   0  0  0  0  0  0  0  0  0  0  0  0
   55.1560   28.9820   44.8800 O   0  0  0  0  0  0  0  0  0  0  0  0
   57.5430   28.8300   45.2040 C   0  0  0  0  0  0  0  0  0  0  0  0
  1  2  2  0
  2  3  1  0
  3  4  1  0
  4  5  1  0
  5  6  2  0
  5  7  1  0
  7  8  2  0
  8  9  1  0
  9 10  2  0
 10 11  1  0
 11 12  2  0
 12 13  1  0
  2 14  1  0
 14 15  1  0
 15 16  1  0
 16 17  2  0
 16 18  1  0
 18 19  2  0
 19 20  1  0
 20 21  2  0
 21 22  1  0
 21 23  1  0
 23 24  1  0
 23 25  2  0
 12  7  1  0
 25 18  1  0
M  CHG  3   4  -1  22  -1  24  -1
M  END
>  <UniqueID>  (1721) 
72

>  <SMILES>  (1721) 
O=C(C[N-]C(=O)c1ccccc1O)OCC(=O)c1ccc([O-])c([O-])c1

>  <Energy>  (1721) 
39.707826511157585

>  <Genealogy>  (1721) 
O=C(C[N-]C(=O)c1ccccc1O)OCC(=O)c1ccc([O-])c([O-])c1 (protonated)
O=C(C[N-]C(=O)c1ccccc1O)OCC(=O)c1ccc([O-])c([O-])c1 (3D coordinates assigned)
O=C(C[N-]C(=O)c1ccccc1O)OCC(=O)c1ccc([O-])c([O-])c1 (optimized conformer: 39.707826511157585 kcal/mol)

>  <smiles>  (1721) 
O=C(CNC(=O)c1ccccc1O)OCC(=O)c1ccc(O)c(O)c1

>  <score_type>  (1721) 
oracle

>  <origin>  (1721) 
adg

>  <m_score__min__energy>  (1721) 
-16.010000000000002

>  <m_primary>  (1721) 
energy

$$$$
87:0
     RDKit          3D

 30 33  0  0  0  0  0  0  0  0999 V2000
   56.9040   28.2440   45.0740 C   0  0  0  0  0  0  0  0  0  0  0  0
   57.8310   27.5000   45.6980 C   0  0  0  0  0  0  0  0  0  0  0  0
   57.9160   26.0970   45.7230 C   0  0  0  0  0  0  0  0  0  0  0  0
   57.2640   25.1590   45.0110 C   0  0  0  0  0  0  0  0  0  0  0  0
   55.9240   24.6320   45.3110 C   0  0  0  0  0  0  0  0  0  0  0  0
   55.5500   23.3660   45.0580 N   0  0  0  0  0  0  0  0  0  0  0  0
   54.2340   23.3630   45.3630 C   0  0  0  0  0  0  0  0  0  0  0  0
   53.5200   22.3310   45.2690 O   0  0  0  0  0  0  0  0  0  0  0  0
   53.7410   24.5540   45.7660 N   0  0  0  0  0  0  0  0  0  0  0  0
   54.8200   25.3500   45.7120 C   0  0  0  0  0  0  0  0  0  0  0  0
   54.7890   26.7110   45.9970 O   0  0  0  0  0  0  0  0  0  0  0  0
   58.8690   25.7850   46.6800 C   0  0  0  0  0  0  0  0  0  0  0  0
   59.3770   26.9810   47.1450 C   0  0  0  0  0  0  0  0  0  0  0  0
   60.4430   27.1050   48.1910 C   0  0  0  0  0  0  0  0  0  0  0  0
   58.7500   28.0210   46.5510 N   0  0  0  0  0  0  0  0  0  0  0  0
   58.9930   29.4130   46.8230 C   0  0  0  0  0  0  0  0  0  0  0  0
   59.2800   30.2960   45.7740 C   0  0  0  0  0  0  0  0  0  0  0  0
   59.5130   31.6480   46.0340 C   0  0  0  0  0  0  0  0  0  0  0  0
   59.4540   32.1420   47.3490 C   0  0  0  0  0  0  0  0  0  0  0  0
   59.7130   33.5830   47.6070 C   0  0  0  0  0  0  0  0  0  0  0  0
   58.7320   34.3770   47.6390 O   0  0  0  0  0  0  0  0  0  0  0  0
   61.0620   34.0970   47.7630 N   0  0  0  0  0  0  0  0  0  0  0  0
   61.6740   33.5810   49.0220 C   0  0  0  0  0  0  0  0  0  0  0  0
   62.6690   32.4390   48.7760 C   0  0  0  0  0  0  0  0  0  0  0  0
   63.8150   32.8910   47.8540 C   0  0  0  0  0  0  0  0  0  0  0  0
   63.3690   33.9470   46.8240 C   0  0  0  0  0  0  0  0  0  0  0  0
   61.8670   33.8350   46.5390 C   0  0  0  0  0  0  0  0  0  0  0  0
   59.1770   31.2500   48.4000 C   0  0  0  0  0  0  0  0  0  0  0  0
   58.9440   29.8960   48.1390 C   0  0  0  0  0  0  0  0  0  0  0  0
   58.6660   29.0550   49.1670 F   0  0  0  0  0  0  0  0  0  0  0  0
  1  2  2  0
  2  3  1  0
  3  4  2  3
  4  5  1  0
  5  6  1  0
  6  7  1  0
  7  8  2  0
  7  9  1  0
  9 10  1  0
 10 11  1  0
  3 12  1  0
 12 13  2  0
 13 14  1  0
 13 15  1  0
 15 16  1  0
 16 17  2  0
 17 18  1  0
 18 19  2  0
 19 20  1  0
 20 21  2  0
 20 22  1  0
 22 23  1  0
 23 24  1  0
 24 25  1  0
 25 26  1  0
 26 27  1  0
 19 28  1  0
 28 29  2  0
 29 30  1  0
 15  2  1  0
 29 16  1  0
 10  5  2  0
 27 22  1  0
M  CHG  4   6  -1   9  -1  11  -1  22   1
M  END
>  <UniqueID>  (1722) 
81

>  <SMILES>  (1722) 
C=c1c(=Cc2[n-]c(=O)[n-]c2[O-])cc(C)n1-c1ccc(C(=O)[NH+]2CCCCC2)cc1F

>  <Energy>  (1722) 
141.8686456225905

>  <Genealogy>  (1722) 
C=c1c(=Cc2[n-]c(=O)[n-]c2[O-])cc(C)n1-c1ccc(C(=O)[NH+]2CCCCC2)cc1F (protonated)
C=c1c(=Cc2[n-]c(=O)[n-]c2[O-])cc(C)n1-c1ccc(C(=O)[NH+]2CCCCC2)cc1F (3D coordinates assigned)
C=c1c(=Cc2[n-]c(=O)[n-]c2[O-])cc(C)n1-c1ccc(C(=O)[NH+]2CCCCC2)cc1F (nonaromatic ring conformer: 141.8686456225905 kcal/mol)

>  <smiles>  (1722) 
C=c1c(=Cc2[nH]c(=O)[nH]c2O)cc(C)n1-c1ccc(C(=O)N2CCCCC2)cc1F

>  <score_type>  (1722) 
oracle

>  <origin>  (1722) 
adg

>  <m_score__min__energy>  (1722) 
-14.949999999999999

>  <m_primary>  (1722) 
energy

$$$$
2:0
     RDKit          3D

 29 31  0  0  0  0  0  0  0  0999 V2000
   57.3750   23.1630   47.6870 O   0  0  0  0  0  0  0  0  0  0  0  0
   57.4260   24.1850   46.9530 C   0  0  0  0  0  0  0  0  0  0  0  0
   56.8950   24.0860   45.5420 C   0  0  0  0  0  0  0  0  0  0  0  0
   55.4120   23.7930   45.4900 C   0  0  0  0  0  0  0  0  0  0  0  0
   54.9540   22.4770   45.3350 C   0  0  0  0  0  0  0  0  0  0  0  0
   53.6230   22.2170   45.2880 N   0  0  0  0  0  0  0  0  0  0  0  0
   52.7120   23.2160   45.4040 C   0  0  0  0  0  0  0  0  0  0  0  0
   51.4830   22.9540   45.3540 O   0  0  0  0  0  0  0  0  0  0  0  0
   53.1270   24.4960   45.5780 N   0  0  0  0  0  0  0  0  0  0  0  0
   54.4480   24.8070   45.6310 C   0  0  0  0  0  0  0  0  0  0  0  0
   54.7940   26.0060   45.8070 O   0  0  0  0  0  0  0  0  0  0  0  0
   57.9480   25.4000   47.5120 N   0  0  0  0  0  0  0  0  0  0  0  0
   58.2650   26.6050   46.8040 C   0  0  0  0  0  0  0  0  0  0  0  0
   59.6050   26.9730   46.6560 C   0  0  0  0  0  0  0  0  0  0  0  0
   59.9410   28.1570   45.9960 C   0  0  0  0  0  0  0  0  0  0  0  0
   58.9380   28.9790   45.4740 C   0  0  0  0  0  0  0  0  0  0  0  0
   57.5860   28.6090   45.5860 C   0  0  0  0  0  0  0  0  0  0  0  0
   56.5170   29.5020   45.0860 C   0  0  0  0  0  0  0  0  0  0  0  0
   55.4570   29.0150   44.6030 O   0  0  0  0  0  0  0  0  0  0  0  0
   56.6950   30.9220   45.1180 N   0  0  0  0  0  0  0  0  0  0  0  0
   57.7490   31.6160   44.3870 C   0  0  0  0  0  0  0  0  0  0  0  0
   58.3020   32.7300   45.2320 C   0  0  0  0  0  0  0  0  0  0  0  0
   58.4970   32.5350   46.6100 C   0  0  0  0  0  0  0  0  0  0  0  0
   59.0600   33.5470   47.3910 C   0  0  0  0  0  0  0  0  0  0  0  0
   59.4340   34.7590   46.8050 C   0  0  0  0  0  0  0  0  0  0  0  0
   59.2470   34.9600   45.4340 C   0  0  0  0  0  0  0  0  0  0  0  0
   59.6160   36.1350   44.8660 F   0  0  0  0  0  0  0  0  0  0  0  0
   58.6870   33.9490   44.6480 C   0  0  0  0  0  0  0  0  0  0  0  0
   57.2610   27.4000   46.2270 C   0  0  0  0  0  0  0  0  0  0  0  0
  1  2  2  0
  2  3  1  0
  3  4  1  0
  4  5  2  0
  5  6  1  0
  6  7  1  0
  7  8  2  0
  7  9  1  0
  9 10  1  0
 10 11  2  0
  2 12  1  0
 12 13  1  0
 13 14  2  0
 14 15  1  0
 15 16  2  0
 16 17  1  0
 17 18  1  0
 18 19  2  0
 18 20  1  0
 20 21  1  0
 21 22  1  0
 22 23  2  0
 23 24  1  0
 24 25  2  0
 25 26  1  0
 26 27  1  0
 26 28  2  0
 17 29  2  0
 10  4  1  0
 29 13  1  0
 28 22  1  0
M  CHG  4   6  -1   9  -1  12  -1  20  -1
M  END
>  <UniqueID>  (1723) 
3

>  <SMILES>  (1723) 
O=C(Cc1c[n-]c(=O)[n-]c1=O)[N-]c1cccc(C(=O)[N-]Cc2cccc(F)c2)c1

>  <Energy>  (1723) 
47.700254926391345

>  <Genealogy>  (1723) 
O=C(Cc1c[n-]c(=O)[n-]c1=O)[N-]c1cccc(C(=O)[N-]Cc2cccc(F)c2)c1 (protonated)
O=C(Cc1c[n-]c(=O)[n-]c1=O)[N-]c1cccc(C(=O)[N-]Cc2cccc(F)c2)c1 (3D coordinates assigned)
O=C(Cc1c[n-]c(=O)[n-]c1=O)[N-]c1cccc(C(=O)[N-]Cc2cccc(F)c2)c1 (optimized conformer: 47.700254926391345 kcal/mol)

>  <smiles>  (1723) 
O=C(Cc1c[nH]c(=O)[nH]c1=O)Nc1cccc(C(=O)NCc2cccc(F)c2)c1

>  <score_type>  (1723) 
oracle

>  <origin>  (1723) 
adg

>  <m_score__min__energy>  (1723) 
-15.81

>  <m_primary>  (1723) 
energy

$$$$
3:0
     RDKit          3D

 27 29  0  0  0  0  0  0  0  0999 V2000
   57.8120   32.8120   45.6160 C   0  0  0  0  0  0  0  0  0  0  0  0
   58.1180   31.5300   45.9110 C   0  0  0  0  0  0  0  0  0  0  0  0
   57.3960   30.4820   45.2920 C   0  0  0  0  0  0  0  0  0  0  0  0
   56.4610   30.7360   44.4780 O   0  0  0  0  0  0  0  0  0  0  0  0
   57.7340   29.1470   45.5890 C   0  0  0  0  0  0  0  0  0  0  0  0
   57.0660   28.1120   45.0370 C   0  0  0  0  0  0  0  0  0  0  0  0
   57.1810   26.7060   45.4970 C   0  0  0  0  0  0  0  0  0  0  0  0
   58.4000   26.0100   45.4030 C   0  0  0  0  0  0  0  0  0  0  0  0
   58.4860   24.6770   45.8100 C   0  0  0  0  0  0  0  0  0  0  0  0
   57.3570   24.0190   46.2990 C   0  0  0  0  0  0  0  0  0  0  0  0
   56.1310   24.6870   46.3770 C   0  0  0  0  0  0  0  0  0  0  0  0
   55.0160   24.0020   46.8590 O   0  0  0  0  0  0  0  0  0  0  0  0
   56.0390   26.0300   45.9700 C   0  0  0  0  0  0  0  0  0  0  0  0
   54.8170   26.6930   46.0460 O   0  0  0  0  0  0  0  0  0  0  0  0
   58.7360   28.9100   46.4720 N   0  0  0  0  0  0  0  0  0  0  0  0
   59.4280   29.9090   47.0690 C   0  0  0  0  0  0  0  0  0  0  0  0
   60.3480   29.6130   47.8800 O   0  0  0  0  0  0  0  0  0  0  0  0
   59.1290   31.2190   46.7990 N   0  0  0  0  0  0  0  0  0  0  0  0
   59.8890   32.2440   47.4730 C   0  0  0  0  0  0  0  0  0  0  0  0
   59.2910   33.0140   48.4790 C   0  0  0  0  0  0  0  0  0  0  0  0
   60.0260   34.0060   49.1300 C   0  0  0  0  0  0  0  0  0  0  0  0
   61.3590   34.2370   48.7810 C   0  0  0  0  0  0  0  0  0  0  0  0
   61.9730   33.4740   47.7710 C   0  0  0  0  0  0  0  0  0  0  0  0
   63.3840   33.7140   47.3950 C   0  0  0  0  0  0  0  0  0  0  0  0
   64.3080   33.5360   48.2320 O   0  0  0  0  0  0  0  0  0  0  0  0
   63.7090   34.1380   46.1110 O   0  0  0  0  0  0  0  0  0  0  0  0
   61.2260   32.4770   47.1190 C   0  0  0  0  0  0  0  0  0  0  0  0
  1  2  2  0
  2  3  1  0
  3  4  2  0
  3  5  1  0
  5  6  2  3
  6  7  1  0
  7  8  2  0
  8  9  1  0
  9 10  2  0
 10 11  1  0
 11 12  1  0
 11 13  2  0
 13 14  1  0
  5 15  1  0
 15 16  1  0
 16 17  2  0
 16 18  1  0
 18 19  1  0
 19 20  2  0
 20 21  1  0
 21 22  2  0
 22 23  1  0
 23 24  1  0
 24 25  2  0
 24 26  1  0
 23 27  2  0
 18  2  1  0
 27 19  1  0
 13  7  1  0
M  CHG  3  14  -1  15  -1  26  -1
M  END
>  <UniqueID>  (1724) 
4

>  <SMILES>  (1724) 
C=c1c(=O)c(=Cc2cccc(O)c2[O-])[n-]c(=O)n1-c1cccc(C(=O)[O-])c1

>  <Energy>  (1724) 
66.34424187001423

>  <Genealogy>  (1724) 
C=c1c(=O)c(=Cc2cccc(O)c2[O-])[n-]c(=O)n1-c1cccc(C(=O)[O-])c1 (protonated)
C=c1c(=O)c(=Cc2cccc(O)c2[O-])[n-]c(=O)n1-c1cccc(C(=O)[O-])c1 (3D coordinates assigned)
C=c1c(=O)c(=Cc2cccc(O)c2[O-])[n-]c(=O)n1-c1cccc(C(=O)[O-])c1 (optimized conformer: 66.34424187001423 kcal/mol)

>  <smiles>  (1724) 
C=c1c(=O)c(=Cc2cccc(O)c2O)[nH]c(=O)n1-c1cccc(C(=O)O)c1

>  <score_type>  (1724) 
oracle

>  <origin>  (1724) 
adg

>  <m_score__min__energy>  (1724) 
-14.460000000000001

>  <m_primary>  (1724) 
energy

$$$$
20:0
     RDKit          3D

 32 35  0  0  0  0  0  0  0  0999 V2000
   54.6360   30.8140   51.2700 C   0  0  0  0  0  0  0  0  0  0  0  0
   54.4980   30.6390   52.5910 C   0  0  0  0  0  0  0  0  0  0  0  0
   53.3060   30.4210   53.3030 C   0  0  0  0  0  0  0  0  0  0  0  0
   52.0170   30.4910   52.9180 C   0  0  0  0  0  0  0  0  0  0  0  0
   51.5360   30.8150   51.5660 C   0  0  0  0  0  0  0  0  0  0  0  0
   51.7490   30.0530   50.4760 N   0  0  0  0  0  0  0  0  0  0  0  0
   51.2960   30.8260   49.4650 C   0  0  0  0  0  0  0  0  0  0  0  0
   51.3160   30.4500   48.2630 O   0  0  0  0  0  0  0  0  0  0  0  0
   50.8350   32.0390   49.8400 N   0  0  0  0  0  0  0  0  0  0  0  0
   51.0080   32.0200   51.1710 C   0  0  0  0  0  0  0  0  0  0  0  0
   50.6990   33.0850   52.0080 O   0  0  0  0  0  0  0  0  0  0  0  0
   53.6800   30.1040   54.5990 C   0  0  0  0  0  0  0  0  0  0  0  0
   55.0540   30.1930   54.6530 C   0  0  0  0  0  0  0  0  0  0  0  0
   55.8830   29.9290   55.8730 C   0  0  0  0  0  0  0  0  0  0  0  0
   55.5510   30.5270   53.4410 N   0  0  0  0  0  0  0  0  0  0  0  0
   56.9500   30.6050   53.1180 C   0  0  0  0  0  0  0  0  0  0  0  0
   57.4050   31.5440   52.1820 C   0  0  0  0  0  0  0  0  0  0  0  0
   58.7500   31.5640   51.8060 C   0  0  0  0  0  0  0  0  0  0  0  0
   59.6510   30.6460   52.3570 C   0  0  0  0  0  0  0  0  0  0  0  0
   61.3180   30.6190   51.7910 S   0  0  0  0  0  0  0  0  0  0  0  0
   61.9860   29.3190   52.1400 O   0  0  0  0  0  0  0  0  0  0  0  0
   62.0670   31.7460   52.4450 O   0  0  0  0  0  0  0  0  0  0  0  0
   61.3500   30.8370   50.0710 N   0  0  0  0  0  0  0  0  0  0  0  0
   60.6290   31.8500   49.3490 C   0  0  0  0  0  0  0  0  0  0  0  0
   61.0610   33.1890   49.3330 C   0  0  0  0  0  0  0  0  0  0  0  0
   60.3640   34.1510   48.5980 C   0  0  0  0  0  0  0  0  0  0  0  0
   59.2250   33.7900   47.8770 C   0  0  0  0  0  0  0  0  0  0  0  0
   58.7760   32.4670   47.8970 C   0  0  0  0  0  0  0  0  0  0  0  0
   59.4660   31.4920   48.6350 C   0  0  0  0  0  0  0  0  0  0  0  0
   58.9720   30.0720   48.6430 C   0  0  0  0  0  0  0  0  0  0  0  0
   59.2010   29.7200   53.3070 C   0  0  0  0  0  0  0  0  0  0  0  0
   57.8550   29.6960   53.6820 C   0  0  0  0  0  0  0  0  0  0  0  0
  1  2  2  0
  2  3  1  0
  3  4  2  0
  4  5  1  0
  5  6  1  0
  6  7  1  0
  7  8  2  0
  7  9  1  0
  9 10  1  0
 10 11  1  0
  3 12  1  0
 12 13  2  0
 13 14  1  0
 13 15  1  0
 15 16  1  0
 16 17  2  0
 17 18  1  0
 18 19  2  0
 19 20  1  0
 20 21  2  0
 20 22  2  0
 20 23  1  0
 23 24  1  0
 24 25  2  0
 25 26  1  0
 26 27  2  0
 27 28  1  0
 28 29  2  0
 29 30  1  0
 19 31  1  0
 31 32  2  0
 15  2  1  0
 32 16  1  0
 10  5  2  0
 29 24  1  0
M  CHG  4   6  -1   9  -1  11  -1  23  -1
M  END
>  <UniqueID>  (1725) 
20

>  <SMILES>  (1725) 
C=c1/c(=C\c2[n-]c(=O)[n-]c2[O-])cc(C)n1-c1ccc(S(=O)(=O)[N-]c2ccccc2C)cc1

>  <Energy>  (1725) 
132.62522570879952

>  <Genealogy>  (1725) 
C=c1c(=Cc2[n-]c(=O)[n-]c2[O-])cc(C)n1-c1ccc(S(=O)(=O)[N-]c2ccccc2C)cc1 (protonated)
C=c1/c(=C\c2[n-]c(=O)[n-]c2[O-])cc(C)n1-c1ccc(S(=O)(=O)[N-]c2ccccc2C)cc1 (cis-trans isomerization)
C=c1/c(=C\c2[n-]c(=O)[n-]c2[O-])cc(C)n1-c1ccc(S(=O)(=O)[N-]c2ccccc2C)cc1 (3D coordinates assigned)
C=c1/c(=C\c2[n-]c(=O)[n-]c2[O-])cc(C)n1-c1ccc(S(=O)(=O)[N-]c2ccccc2C)cc1 (optimized conformer: 132.62522570879952 kcal/mol)

>  <smiles>  (1725) 
C=c1c(=Cc2[nH]c(=O)[nH]c2O)cc(C)n1-c1ccc(S(=O)(=O)Nc2ccccc2C)cc1

>  <score_type>  (1725) 
oracle

>  <origin>  (1725) 
adg

>  <m_score__min__energy>  (1725) 
-16.890000000000001

>  <m_primary>  (1725) 
energy

$$$$
28:0
     RDKit          3D

 31 34  0  0  0  0  0  0  0  0999 V2000
   60.2460   27.8670   46.6610 C   0  0  0  0  0  0  0  0  0  0  0  0
   59.2060   28.6060   46.2400 C   0  0  0  0  0  0  0  0  0  0  0  0
   58.1630   28.1920   45.3980 C   0  0  0  0  0  0  0  0  0  0  0  0
   57.7810   26.9590   45.0090 C   0  0  0  0  0  0  0  0  0  0  0  0
   57.2260   25.9180   45.8920 C   0  0  0  0  0  0  0  0  0  0  0  0
   57.9560   24.9730   46.5130 N   0  0  0  0  0  0  0  0  0  0  0  0
   57.0520   24.3520   47.3030 C   0  0  0  0  0  0  0  0  0  0  0  0
   57.3550   23.3820   48.0440 O   0  0  0  0  0  0  0  0  0  0  0  0
   55.8020   24.8620   47.2450 N   0  0  0  0  0  0  0  0  0  0  0  0
   55.9350   25.8610   46.3570 C   0  0  0  0  0  0  0  0  0  0  0  0
   54.8990   26.7100   45.9880 O   0  0  0  0  0  0  0  0  0  0  0  0
   57.4940   29.3440   45.0150 C   0  0  0  0  0  0  0  0  0  0  0  0
   58.0840   30.3930   45.6900 C   0  0  0  0  0  0  0  0  0  0  0  0
   57.6290   31.8180   45.6130 C   0  0  0  0  0  0  0  0  0  0  0  0
   59.1210   29.9480   46.4360 N   0  0  0  0  0  0  0  0  0  0  0  0
   59.9610   30.7580   47.2790 C   0  0  0  0  0  0  0  0  0  0  0  0
   61.0950   31.3910   46.7500 C   0  0  0  0  0  0  0  0  0  0  0  0
   61.9170   32.1680   47.5720 C   0  0  0  0  0  0  0  0  0  0  0  0
   61.6240   32.3010   48.9370 C   0  0  0  0  0  0  0  0  0  0  0  0
   62.4930   33.1070   49.8100 C   0  0  0  0  0  0  0  0  0  0  0  0
   62.8350   34.2520   49.4060 O   0  0  0  0  0  0  0  0  0  0  0  0
   62.9910   32.6220   51.0860 N   0  0  0  0  0  0  0  0  0  0  0  0
   63.6940   33.6830   51.8560 C   0  0  0  0  0  0  0  0  0  0  0  0
   65.2300   33.5930   51.7820 C   0  0  0  0  0  0  0  0  0  0  0  0
   65.6350   32.9560   50.5220 N   0  0  0  0  0  0  0  0  0  0  0  0
   67.0890   33.0760   50.3220 C   0  0  0  0  0  0  0  0  0  0  0  0
   65.2260   31.5410   50.5210 C   0  0  0  0  0  0  0  0  0  0  0  0
   63.7550   31.3550   50.9680 C   0  0  0  0  0  0  0  0  0  0  0  0
   60.4750   31.6940   49.4610 C   0  0  0  0  0  0  0  0  0  0  0  0
   59.6500   30.9220   48.6390 C   0  0  0  0  0  0  0  0  0  0  0  0
   58.5410   30.3440   49.1610 F   0  0  0  0  0  0  0  0  0  0  0  0
  1  2  2  0
  2  3  1  0
  3  4  2  3
  4  5  1  0
  5  6  1  0
  6  7  1  0
  7  8  2  0
  7  9  1  0
  9 10  1  0
 10 11  1  0
  3 12  1  0
 12 13  2  0
 13 14  1  0
 13 15  1  0
 15 16  1  0
 16 17  2  0
 17 18  1  0
 18 19  2  0
 19 20  1  0
 20 21  2  0
 20 22  1  0
 22 23  1  0
 23 24  1  0
 24 25  1  0
 25 26  1  0
 25 27  1  0
 27 28  1  0
 19 29  1  0
 29 30  2  0
 30 31  1  0
 15  2  1  0
 30 16  1  0
 10  5  2  0
 28 22  1  0
M  CHG  4   6  -1   9  -1  11  -1  22   1
M  END
>  <UniqueID>  (1726) 
28

>  <SMILES>  (1726) 
C=c1c(=Cc2[n-]c(=O)[n-]c2[O-])cc(C)n1-c1ccc(C(=O)[NH+]2CCN(C)CC2)cc1F

>  <Energy>  (1726) 
150.71443388365253

>  <Genealogy>  (1726) 
C=c1c(=Cc2[n-]c(=O)[n-]c2[O-])cc(C)n1-c1ccc(C(=O)[NH+]2CCN(C)CC2)cc1F (protonated)
C=c1c(=Cc2[n-]c(=O)[n-]c2[O-])cc(C)n1-c1ccc(C(=O)[NH+]2CCN(C)CC2)cc1F (3D coordinates assigned)
C=c1c(=Cc2[n-]c(=O)[n-]c2[O-])cc(C)n1-c1ccc(C(=O)[NH+]2CCN(C)CC2)cc1F (nonaromatic ring conformer: 150.71443388365253 kcal/mol)

>  <smiles>  (1726) 
C=c1c(=Cc2[nH]c(=O)[nH]c2O)cc(C)n1-c1ccc(C(=O)N2CCN(C)CC2)cc1F

>  <score_type>  (1726) 
oracle

>  <origin>  (1726) 
adg

>  <m_score__min__energy>  (1726) 
-14.26

>  <m_primary>  (1726) 
energy

$$$$
43:0
     RDKit          3D

 25 27  0  0  0  0  0  0  0  0999 V2000
   57.4010   25.3520   43.5200 C   0  0  0  0  0  0  0  0  0  0  0  0
   57.4820   25.6480   44.8300 C   0  0  0  0  0  0  0  0  0  0  0  0
   56.9880   24.8620   45.8830 C   0  0  0  0  0  0  0  0  0  0  0  0
   56.1340   23.8200   45.8840 C   0  0  0  0  0  0  0  0  0  0  0  0
   54.6830   23.9030   45.6410 C   0  0  0  0  0  0  0  0  0  0  0  0
   53.9140   22.8760   45.2330 N   0  0  0  0  0  0  0  0  0  0  0  0
   52.7120   23.4540   45.0190 C   0  0  0  0  0  0  0  0  0  0  0  0
   51.7050   22.8030   44.6350 O   0  0  0  0  0  0  0  0  0  0  0  0
   52.6750   24.7860   45.2370 N   0  0  0  0  0  0  0  0  0  0  0  0
   53.9360   25.0550   45.6160 C   0  0  0  0  0  0  0  0  0  0  0  0
   54.3950   26.3280   45.9290 O   0  0  0  0  0  0  0  0  0  0  0  0
   57.5340   25.3780   47.0430 C   0  0  0  0  0  0  0  0  0  0  0  0
   58.2690   26.4850   46.6800 C   0  0  0  0  0  0  0  0  0  0  0  0
   58.9830   27.3700   47.6570 C   0  0  0  0  0  0  0  0  0  0  0  0
   58.2130   26.6810   45.3380 N   0  0  0  0  0  0  0  0  0  0  0  0
   58.8870   27.7740   44.6130 C   0  0  0  0  0  0  0  0  0  0  0  0
   58.0570   29.0360   44.6220 C   0  0  0  0  0  0  0  0  0  0  0  0
   56.8580   29.0150   43.9800 N   0  0  0  0  0  0  0  0  0  0  0  0
   56.0640   30.1110   43.9200 C   0  0  0  0  0  0  0  0  0  0  0  0
   56.4610   31.2680   44.5000 N   0  0  0  0  0  0  0  0  0  0  0  0
   57.6460   31.3560   45.1640 C   0  0  0  0  0  0  0  0  0  0  0  0
   58.0370   32.5700   45.7420 O   0  0  0  0  0  0  0  0  0  0  0  0
   57.5610   33.8310   45.2850 C   0  0  0  0  0  0  0  0  0  0  0  0
   58.4760   30.2240   45.2670 C   0  0  0  0  0  0  0  0  0  0  0  0
   59.7970   30.3140   45.9910 C   0  0  0  0  0  0  0  0  0  0  0  0
  1  2  2  0
  2  3  1  0
  3  4  2  0
  4  5  1  0
  5  6  1  0
  6  7  1  0
  7  8  2  0
  7  9  1  0
  9 10  1  0
 10 11  1  0
  3 12  1  0
 12 13  2  0
 13 14  1  0
 13 15  1  0
 15 16  1  0
 16 17  1  0
 17 18  2  0
 18 19  1  0
 19 20  2  0
 20 21  1  0
 21 22  1  0
 22 23  1  0
 21 24  2  0
 24 25  1  0
 15  2  1  0
 24 17  1  0
 10  5  2  0
M  CHG  3   6  -1   9  -1  11  -1
M  END
>  <UniqueID>  (1727) 
42

>  <SMILES>  (1727) 
C=c1/c(=C\c2[n-]c(=O)[n-]c2[O-])cc(C)n1Cc1ncnc(OC)c1C

>  <Energy>  (1727) 
112.34681091731885

>  <Genealogy>  (1727) 
C=c1c(=Cc2[n-]c(=O)[n-]c2[O-])cc(C)n1Cc1ncnc(OC)c1C (protonated)
C=c1/c(=C\c2[n-]c(=O)[n-]c2[O-])cc(C)n1Cc1ncnc(OC)c1C (cis-trans isomerization)
C=c1/c(=C\c2[n-]c(=O)[n-]c2[O-])cc(C)n1Cc1ncnc(OC)c1C (3D coordinates assigned)
C=c1/c(=C\c2[n-]c(=O)[n-]c2[O-])cc(C)n1Cc1ncnc(OC)c1C (optimized conformer: 112.34681091731885 kcal/mol)

>  <smiles>  (1727) 
C=c1c(=Cc2[nH]c(=O)[nH]c2O)cc(C)n1Cc1ncnc(OC)c1C

>  <score_type>  (1727) 
oracle

>  <origin>  (1727) 
adg

>  <m_score__min__energy>  (1727) 
-15.24

>  <m_primary>  (1727) 
energy

$$$$
53:0
     RDKit          3D

 31 33  0  0  0  0  0  0  0  0999 V2000
   63.7350   34.0660   50.8450 C   0  0  0  0  0  0  0  0  0  0  0  0
   64.1880   33.5450   49.5440 N   0  0  0  0  0  0  0  0  0  0  0  0
   63.4790   34.1700   48.4060 C   0  0  0  0  0  0  0  0  0  0  0  0
   62.0370   33.6640   48.2580 C   0  0  0  0  0  0  0  0  0  0  0  0
   62.0210   32.1990   48.2740 N   0  0  0  0  0  0  0  0  0  0  0  0
   61.3110   31.4460   47.2720 C   0  0  0  0  0  0  0  0  0  0  0  0
   61.8380   30.4020   46.7990 O   0  0  0  0  0  0  0  0  0  0  0  0
   59.9770   31.8680   46.7850 C   0  0  0  0  0  0  0  0  0  0  0  0
   59.3570   33.0070   47.3210 C   0  0  0  0  0  0  0  0  0  0  0  0
   58.1130   33.4250   46.8430 C   0  0  0  0  0  0  0  0  0  0  0  0
   57.4720   32.7140   45.8230 C   0  0  0  0  0  0  0  0  0  0  0  0
   56.2690   33.1940   45.3210 O   0  0  0  0  0  0  0  0  0  0  0  0
   58.0700   31.5520   45.2960 C   0  0  0  0  0  0  0  0  0  0  0  0
   57.4700   30.8000   44.2340 N   0  0  0  0  0  0  0  0  0  0  0  0
   56.8730   29.5030   44.3500 C   0  0  0  0  0  0  0  0  0  0  0  0
   55.9480   29.3070   45.1830 O   0  0  0  0  0  0  0  0  0  0  0  0
   57.4010   28.3560   43.5860 C   0  0  0  0  0  0  0  0  0  0  0  0
   58.1600   27.3740   44.0980 C   0  0  0  0  0  0  0  0  0  0  0  0
   58.6580   27.3420   45.4890 C   0  0  0  0  0  0  0  0  0  0  0  0
   59.8140   28.0720   45.8200 C   0  0  0  0  0  0  0  0  0  0  0  0
   60.3120   28.0580   47.1230 C   0  0  0  0  0  0  0  0  0  0  0  0
   59.6720   27.3030   48.1070 C   0  0  0  0  0  0  0  0  0  0  0  0
   58.5340   26.5590   47.7900 C   0  0  0  0  0  0  0  0  0  0  0  0
   58.0200   26.5630   46.4830 C   0  0  0  0  0  0  0  0  0  0  0  0
   56.5560   25.6360   46.1190 S   0  0  0  0  0  0  0  0  0  0  0  0
   55.1780   26.6750   46.0010 N   0  0  0  0  0  0  0  0  0  0  0  0
   56.3150   24.6290   47.2100 O   0  0  0  0  0  0  0  0  0  0  0  0
   56.7310   24.9240   44.8070 O   0  0  0  0  0  0  0  0  0  0  0  0
   59.3340   31.1600   45.7550 C   0  0  0  0  0  0  0  0  0  0  0  0
   62.7290   31.5150   49.3570 C   0  0  0  0  0  0  0  0  0  0  0  0
   64.1540   32.0690   49.4800 C   0  0  0  0  0  0  0  0  0  0  0  0
  1  2  1  0
  2  3  1  0
  3  4  1  0
  4  5  1  0
  5  6  1  0
  6  7  2  0
  6  8  1  0
  8  9  2  0
  9 10  1  0
 10 11  2  0
 11 12  1  0
 11 13  1  0
 13 14  1  0
 14 15  1  0
 15 16  2  0
 15 17  1  0
 17 18  2  3
 18 19  1  0
 19 20  2  0
 20 21  1  0
 21 22  2  0
 22 23  1  0
 23 24  2  0
 24 25  1  0
 25 26  1  0
 25 27  2  0
 25 28  2  0
 13 29  2  0
  5 30  1  0
 30 31  1  0
 31  2  1  0
 29  8  1  0
 24 19  1  0
M  CHG  3  12  -1  14  -1  26  -1
M  END
>  <UniqueID>  (1728) 
50

>  <SMILES>  (1728) 
CN1CCN(C(=O)c2ccc([O-])c([N-]C(=O)C=Cc3ccccc3S([NH-])(=O)=O)c2)CC1

>  <Energy>  (1728) 
74.42744281014328

>  <Genealogy>  (1728) 
CN1CCN(C(=O)c2ccc([O-])c([N-]C(=O)C=Cc3ccccc3S([NH-])(=O)=O)c2)CC1 (protonated)
CN1CCN(C(=O)c2ccc([O-])c([N-]C(=O)C=Cc3ccccc3S([NH-])(=O)=O)c2)CC1 (3D coordinates assigned)
CN1CCN(C(=O)c2ccc([O-])c([N-]C(=O)C=Cc3ccccc3S([NH-])(=O)=O)c2)CC1 (nonaromatic ring conformer: 74.42744281014328 kcal/mol)

>  <smiles>  (1728) 
CN1CCN(C(=O)c2ccc(O)c(NC(=O)C=Cc3ccccc3S(N)(=O)=O)c2)CC1

>  <score_type>  (1728) 
oracle

>  <origin>  (1728) 
adg

>  <m_score__min__energy>  (1728) 
-15.300000000000001

>  <m_primary>  (1728) 
energy

$$$$
54:0
     RDKit          3D

 28 31  0  0  0  0  0  0  0  0999 V2000
   59.2040   29.6220   47.6610 C   0  0  0  0  0  0  0  0  0  0  0  0
   58.9690   29.8230   46.3560 C   0  0  0  0  0  0  0  0  0  0  0  0
   58.5140   28.8810   45.4200 C   0  0  0  0  0  0  0  0  0  0  0  0
   58.4060   27.5400   45.4970 C   0  0  0  0  0  0  0  0  0  0  0  0
   57.1870   26.7970   45.8520 C   0  0  0  0  0  0  0  0  0  0  0  0
   57.1580   25.5080   46.2390 N   0  0  0  0  0  0  0  0  0  0  0  0
   55.8370   25.2350   46.3140 C   0  0  0  0  0  0  0  0  0  0  0  0
   55.3960   24.1100   46.6650 O   0  0  0  0  0  0  0  0  0  0  0  0
   55.0260   26.2580   45.9710 N   0  0  0  0  0  0  0  0  0  0  0  0
   55.8970   27.2340   45.6680 C   0  0  0  0  0  0  0  0  0  0  0  0
   55.5220   28.4970   45.2260 O   0  0  0  0  0  0  0  0  0  0  0  0
   58.1750   29.5960   44.2830 C   0  0  0  0  0  0  0  0  0  0  0  0
   58.5010   30.9130   44.5270 C   0  0  0  0  0  0  0  0  0  0  0  0
   58.3170   32.0320   43.5450 C   0  0  0  0  0  0  0  0  0  0  0  0
   58.9780   31.0550   45.7840 N   0  0  0  0  0  0  0  0  0  0  0  0
   59.3830   32.2910   46.3960 C   0  0  0  0  0  0  0  0  0  0  0  0
   60.6150   32.3750   47.0530 C   0  0  0  0  0  0  0  0  0  0  0  0
   61.0060   33.5830   47.6530 C   0  0  0  0  0  0  0  0  0  0  0  0
   62.2690   33.6870   48.3370 N   0  0  0  0  0  0  0  0  0  0  0  0
   62.4240   34.5900   49.4810 C   0  0  0  0  0  0  0  0  0  0  0  0
   63.5190   34.0600   50.4100 C   0  0  0  0  0  0  0  0  0  0  0  0
   64.7130   33.8120   49.6910 O   0  0  0  0  0  0  0  0  0  0  0  0
   64.5020   32.7700   48.7570 C   0  0  0  0  0  0  0  0  0  0  0  0
   63.4890   33.1940   47.6900 C   0  0  0  0  0  0  0  0  0  0  0  0
   60.1760   34.6660   47.5810 N   0  0  0  0  0  0  0  0  0  0  0  0
   58.9720   34.6040   46.9510 C   0  0  0  0  0  0  0  0  0  0  0  0
   58.5510   33.4170   46.3490 C   0  0  0  0  0  0  0  0  0  0  0  0
   57.3380   33.3580   45.7460 F   0  0  0  0  0  0  0  0  0  0  0  0
  1  2  2  0
  2  3  1  0
  3  4  2  3
  4  5  1  0
  5  6  1  0
  6  7  1  0
  7  8  2  0
  7  9  1  0
  9 10  1  0
 10 11  1  0
  3 12  1  0
 12 13  2  0
 13 14  1  0
 13 15  1  0
 15 16  1  0
 16 17  2  0
 17 18  1  0
 18 19  1  0
 19 20  1  0
 20 21  1  0
 21 22  1  0
 22 23  1  0
 23 24  1  0
 18 25  2  0
 25 26  1  0
 26 27  2  0
 27 28  1  0
 15  2  1  0
 27 16  1  0
 10  5  2  0
 24 19  1  0
M  CHG  4   6  -1   9  -1  11  -1  25   1
M  END
>  <UniqueID>  (1729) 
51

>  <SMILES>  (1729) 
C=c1c(=Cc2[n-]c(=O)[n-]c2[O-])cc(C)n1-c1cc(N2CCOCC2)[nH+]cc1F

>  <Energy>  (1729) 
129.12343717660553

>  <Genealogy>  (1729) 
C=c1c(=Cc2[n-]c(=O)[n-]c2[O-])cc(C)n1-c1cc(N2CCOCC2)[nH+]cc1F (protonated)
C=c1c(=Cc2[n-]c(=O)[n-]c2[O-])cc(C)n1-c1cc(N2CCOCC2)[nH+]cc1F (3D coordinates assigned)
C=c1c(=Cc2[n-]c(=O)[n-]c2[O-])cc(C)n1-c1cc(N2CCOCC2)[nH+]cc1F (nonaromatic ring conformer: 129.12343717660553 kcal/mol)

>  <smiles>  (1729) 
C=c1c(=Cc2[nH]c(=O)[nH]c2O)cc(C)n1-c1cc(N2CCOCC2)ncc1F

>  <score_type>  (1729) 
oracle

>  <origin>  (1729) 
adg

>  <m_score__min__energy>  (1729) 
-14.550000000000001

>  <m_primary>  (1729) 
energy

$$$$
58:0
     RDKit          3D

 29 31  0  0  0  0  0  0  0  0999 V2000
   57.8880   27.2680   43.0480 C   0  0  0  0  0  0  0  0  0  0  0  0
   57.9730   27.4650   44.3750 C   0  0  0  0  0  0  0  0  0  0  0  0
   57.7300   26.5240   45.3940 C   0  0  0  0  0  0  0  0  0  0  0  0
   57.4460   25.2060   45.3430 C   0  0  0  0  0  0  0  0  0  0  0  0
   56.0930   24.6250   45.2740 C   0  0  0  0  0  0  0  0  0  0  0  0
   54.9610   25.3850   45.6080 C   0  0  0  0  0  0  0  0  0  0  0  0
   55.0910   26.7130   46.0060 O   0  0  0  0  0  0  0  0  0  0  0  0
   53.7260   24.8210   45.5490 N   0  0  0  0  0  0  0  0  0  0  0  0
   53.5620   23.5290   45.1580 C   0  0  0  0  0  0  0  0  0  0  0  0
   52.4090   23.0200   45.1270 O   0  0  0  0  0  0  0  0  0  0  0  0
   54.6400   22.7820   44.8040 N   0  0  0  0  0  0  0  0  0  0  0  0
   55.8960   23.3020   44.8430 C   0  0  0  0  0  0  0  0  0  0  0  0
   56.8750   22.5860   44.5020 O   0  0  0  0  0  0  0  0  0  0  0  0
   57.8650   27.2070   46.5910 C   0  0  0  0  0  0  0  0  0  0  0  0
   58.2150   28.5020   46.2790 C   0  0  0  0  0  0  0  0  0  0  0  0
   58.5280   29.5630   47.2910 C   0  0  0  0  0  0  0  0  0  0  0  0
   58.2680   28.6700   44.9360 N   0  0  0  0  0  0  0  0  0  0  0  0
   58.6700   29.9090   44.2530 C   0  0  0  0  0  0  0  0  0  0  0  0
   57.4590   30.7110   43.8950 C   0  0  0  0  0  0  0  0  0  0  0  0
   56.9820   30.6400   42.7300 O   0  0  0  0  0  0  0  0  0  0  0  0
   56.8500   31.5550   44.8800 N   0  0  0  0  0  0  0  0  0  0  0  0
   57.0020   33.0050   44.8910 C   0  0  0  0  0  0  0  0  0  0  0  0
   58.1020   33.3940   45.8390 C   0  0  0  0  0  0  0  0  0  0  0  0
   58.0550   33.0030   47.1880 C   0  0  0  0  0  0  0  0  0  0  0  0
   59.0580   33.4070   48.0760 C   0  0  0  0  0  0  0  0  0  0  0  0
   60.1080   34.2140   47.6270 C   0  0  0  0  0  0  0  0  0  0  0  0
   61.0750   34.6140   48.4870 F   0  0  0  0  0  0  0  0  0  0  0  0
   60.1580   34.6150   46.2870 C   0  0  0  0  0  0  0  0  0  0  0  0
   59.1530   34.2160   45.3980 C   0  0  0  0  0  0  0  0  0  0  0  0
  1  2  2  0
  2  3  1  0
  3  4  2  3
  4  5  1  0
  5  6  2  0
  6  7  1  0
  6  8  1  0
  8  9  1  0
  9 10  2  0
  9 11  1  0
 11 12  1  0
 12 13  2  0
  3 14  1  0
 14 15  2  0
 15 16  1  0
 15 17  1  0
 17 18  1  0
 18 19  1  0
 19 20  2  0
 19 21  1  0
 21 22  1  0
 22 23  1  0
 23 24  2  0
 24 25  1  0
 25 26  2  0
 26 27  1  0
 26 28  1  0
 28 29  2  0
 17  2  1  0
 29 23  1  0
 12  5  1  0
M  CHG  4   7  -1   8  -1  11  -1  21  -1
M  END
>  <UniqueID>  (1730) 
55

>  <SMILES>  (1730) 
C=c1c(=Cc2c([O-])[n-]c(=O)[n-]c2=O)cc(C)n1CC(=O)[N-]Cc1ccc(F)cc1

>  <Energy>  (1730) 
85.14543830726615

>  <Genealogy>  (1730) 
C=c1c(=Cc2c([O-])[n-]c(=O)[n-]c2=O)cc(C)n1CC(=O)[N-]Cc1ccc(F)cc1 (protonated)
C=c1c(=Cc2c([O-])[n-]c(=O)[n-]c2=O)cc(C)n1CC(=O)[N-]Cc1ccc(F)cc1 (3D coordinates assigned)
C=c1c(=Cc2c([O-])[n-]c(=O)[n-]c2=O)cc(C)n1CC(=O)[N-]Cc1ccc(F)cc1 (optimized conformer: 85.14543830726615 kcal/mol)

>  <smiles>  (1730) 
C=c1c(=Cc2c(O)[nH]c(=O)[nH]c2=O)cc(C)n1CC(=O)NCc1ccc(F)cc1

>  <score_type>  (1730) 
oracle

>  <origin>  (1730) 
adg

>  <m_score__min__energy>  (1730) 
-17.460000000000001

>  <m_primary>  (1730) 
energy

$$$$
8:0
     RDKit          3D

 25 27  0  0  0  0  0  0  0  0999 V2000
   58.9700   30.6510   47.2980 C   0  0  0  0  0  0  0  0  0  0  0  0
   58.4520   31.3890   46.3010 C   0  0  0  0  0  0  0  0  0  0  0  0
   57.9320   30.9090   45.0860 C   0  0  0  0  0  0  0  0  0  0  0  0
   57.9420   29.6780   44.5380 C   0  0  0  0  0  0  0  0  0  0  0  0
   57.4180   28.4490   45.1670 C   0  0  0  0  0  0  0  0  0  0  0  0
   56.0350   28.2390   45.2620 C   0  0  0  0  0  0  0  0  0  0  0  0
   55.1390   29.2040   44.8160 O   0  0  0  0  0  0  0  0  0  0  0  0
   55.5600   27.0870   45.8040 N   0  0  0  0  0  0  0  0  0  0  0  0
   56.4040   26.1190   46.2440 C   0  0  0  0  0  0  0  0  0  0  0  0
   55.9410   25.0630   46.7460 O   0  0  0  0  0  0  0  0  0  0  0  0
   57.7470   26.2870   46.1370 N   0  0  0  0  0  0  0  0  0  0  0  0
   58.2720   27.4200   45.6020 C   0  0  0  0  0  0  0  0  0  0  0  0
   59.5230   27.5330   45.4970 O   0  0  0  0  0  0  0  0  0  0  0  0
   57.3790   32.0010   44.4420 C   0  0  0  0  0  0  0  0  0  0  0  0
   57.6180   33.1000   45.2370 C   0  0  0  0  0  0  0  0  0  0  0  0
   57.2400   34.5030   44.8710 C   0  0  0  0  0  0  0  0  0  0  0  0
   58.2710   32.7390   46.3670 N   0  0  0  0  0  0  0  0  0  0  0  0
   58.7080   33.6730   47.4200 C   0  0  0  0  0  0  0  0  0  0  0  0
   60.2180   33.7000   47.5180 C   0  0  0  0  0  0  0  0  0  0  0  0
   60.9720   33.7910   46.3330 C   0  0  0  0  0  0  0  0  0  0  0  0
   62.3680   33.8220   46.3780 C   0  0  0  0  0  0  0  0  0  0  0  0
   63.0300   33.7540   47.6020 C   0  0  0  0  0  0  0  0  0  0  0  0
   62.3000   33.6490   48.7870 C   0  0  0  0  0  0  0  0  0  0  0  0
   60.8990   33.6160   48.7570 C   0  0  0  0  0  0  0  0  0  0  0  0
   60.0550   33.4600   50.2950 Cl  0  0  0  0  0  0  0  0  0  0  0  0
  1  2  2  0
  2  3  1  0
  3  4  2  0
  4  5  1  0
  5  6  2  0
  6  7  1  0
  6  8  1  0
  8  9  1  0
  9 10  2  0
  9 11  1  0
 11 12  1  0
 12 13  2  0
  3 14  1  0
 14 15  2  0
 15 16  1  0
 15 17  1  0
 17 18  1  0
 18 19  1  0
 19 20  2  0
 20 21  1  0
 21 22  2  0
 22 23  1  0
 23 24  2  0
 24 25  1  0
 17  2  1  0
 24 19  1  0
 12  5  1  0
M  CHG  3   7  -1   8  -1  11  -1
M  END
>  <UniqueID>  (1731) 
9

>  <SMILES>  (1731) 
C=c1/c(=C\c2c([O-])[n-]c(=O)[n-]c2=O)cc(C)n1Cc1ccccc1Cl

>  <Energy>  (1731) 
85.54818388734735

>  <Genealogy>  (1731) 
C=c1c(=Cc2c([O-])[n-]c(=O)[n-]c2=O)cc(C)n1Cc1ccccc1Cl (protonated)
C=c1/c(=C\c2c([O-])[n-]c(=O)[n-]c2=O)cc(C)n1Cc1ccccc1Cl (cis-trans isomerization)
C=c1/c(=C\c2c([O-])[n-]c(=O)[n-]c2=O)cc(C)n1Cc1ccccc1Cl (3D coordinates assigned)
C=c1/c(=C\c2c([O-])[n-]c(=O)[n-]c2=O)cc(C)n1Cc1ccccc1Cl (optimized conformer: 85.54818388734735 kcal/mol)

>  <smiles>  (1731) 
C=c1c(=Cc2c(O)[nH]c(=O)[nH]c2=O)cc(C)n1Cc1ccccc1Cl

>  <score_type>  (1731) 
oracle

>  <origin>  (1731) 
adg

>  <m_score__min__energy>  (1731) 
-16.039999999999999

>  <m_primary>  (1731) 
energy

$$$$
11:0
     RDKit          3D

 25 27  0  0  0  0  0  0  0  0999 V2000
   64.3810   33.4740   48.1490 O   0  0  0  0  0  0  0  0  0  0  0  0
   62.9980   33.4710   47.9840 C   0  0  0  0  0  0  0  0  0  0  0  0
   62.1460   33.4400   49.0950 C   0  0  0  0  0  0  0  0  0  0  0  0
   60.7590   33.4360   48.9180 C   0  0  0  0  0  0  0  0  0  0  0  0
   60.2090   33.4590   47.6240 C   0  0  0  0  0  0  0  0  0  0  0  0
   58.7140   33.4460   47.4320 C   0  0  0  0  0  0  0  0  0  0  0  0
   58.3350   32.5420   46.3320 N   0  0  0  0  0  0  0  0  0  0  0  0
   57.6430   32.9120   45.2280 C   0  0  0  0  0  0  0  0  0  0  0  0
   57.1460   34.2990   44.9430 C   0  0  0  0  0  0  0  0  0  0  0  0
   57.3940   31.8220   44.4230 C   0  0  0  0  0  0  0  0  0  0  0  0
   57.9830   30.7300   45.0300 C   0  0  0  0  0  0  0  0  0  0  0  0
   57.9800   29.5030   44.4680 C   0  0  0  0  0  0  0  0  0  0  0  0
   57.4060   28.2810   45.0650 C   0  0  0  0  0  0  0  0  0  0  0  0
   56.0210   28.1430   45.2530 C   0  0  0  0  0  0  0  0  0  0  0  0
   55.1450   29.1430   44.8450 O   0  0  0  0  0  0  0  0  0  0  0  0
   55.5250   27.0250   45.8430 N   0  0  0  0  0  0  0  0  0  0  0  0
   56.3500   26.0370   46.2750 C   0  0  0  0  0  0  0  0  0  0  0  0
   55.8680   25.0080   46.8160 O   0  0  0  0  0  0  0  0  0  0  0  0
   57.6940   26.1610   46.1310 N   0  0  0  0  0  0  0  0  0  0  0  0
   58.2390   27.2590   45.5460 C   0  0  0  0  0  0  0  0  0  0  0  0
   59.4910   27.3440   45.4340 O   0  0  0  0  0  0  0  0  0  0  0  0
   58.5300   31.1960   46.2390 C   0  0  0  0  0  0  0  0  0  0  0  0
   59.0710   30.4480   47.2160 C   0  0  0  0  0  0  0  0  0  0  0  0
   61.0700   33.4950   46.5150 C   0  0  0  0  0  0  0  0  0  0  0  0
   62.4560   33.5000   46.6960 C   0  0  0  0  0  0  0  0  0  0  0  0
  1  2  1  0
  2  3  2  0
  3  4  1  0
  4  5  2  0
  5  6  1  0
  6  7  1  0
  7  8  1  0
  8  9  1  0
  8 10  2  0
 10 11  1  0
 11 12  2  0
 12 13  1  0
 13 14  2  0
 14 15  1  0
 14 16  1  0
 16 17  1  0
 17 18  2  0
 17 19  1  0
 19 20  1  0
 20 21  2  0
 11 22  1  0
 22 23  2  0
  5 24  1  0
 24 25  2  0
 25  2  1  0
 22  7  1  0
 20 13  1  0
M  CHG  3  15  -1  16  -1  19  -1
M  END
>  <UniqueID>  (1732) 
12

>  <SMILES>  (1732) 
C=c1/c(=C\c2c([O-])[n-]c(=O)[n-]c2=O)cc(C)n1Cc1ccc(O)cc1

>  <Energy>  (1732) 
84.07093971728195

>  <Genealogy>  (1732) 
C=c1c(=Cc2c([O-])[n-]c(=O)[n-]c2=O)cc(C)n1Cc1ccc(O)cc1 (protonated)
C=c1/c(=C\c2c([O-])[n-]c(=O)[n-]c2=O)cc(C)n1Cc1ccc(O)cc1 (cis-trans isomerization)
C=c1/c(=C\c2c([O-])[n-]c(=O)[n-]c2=O)cc(C)n1Cc1ccc(O)cc1 (3D coordinates assigned)
C=c1/c(=C\c2c([O-])[n-]c(=O)[n-]c2=O)cc(C)n1Cc1ccc(O)cc1 (optimized conformer: 84.07093971728195 kcal/mol)

>  <smiles>  (1732) 
C=c1c(=Cc2c(O)[nH]c(=O)[nH]c2=O)cc(C)n1Cc1ccc(O)cc1

>  <score_type>  (1732) 
oracle

>  <origin>  (1732) 
adg

>  <m_score__min__energy>  (1732) 
-15.67

>  <m_primary>  (1732) 
energy

$$$$
27:0
     RDKit          3D

 26 28  0  0  0  0  0  0  0  0999 V2000
   58.8340   30.4610   47.1960 C   0  0  0  0  0  0  0  0  0  0  0  0
   58.3750   31.2810   46.2350 C   0  0  0  0  0  0  0  0  0  0  0  0
   58.0190   30.9190   44.9230 C   0  0  0  0  0  0  0  0  0  0  0  0
   57.8910   29.7120   44.3370 C   0  0  0  0  0  0  0  0  0  0  0  0
   57.4800   28.4660   45.0140 C   0  0  0  0  0  0  0  0  0  0  0  0
   56.1250   28.2210   45.2810 C   0  0  0  0  0  0  0  0  0  0  0  0
   55.1520   29.1250   44.8660 O   0  0  0  0  0  0  0  0  0  0  0  0
   55.7550   27.0910   45.9420 N   0  0  0  0  0  0  0  0  0  0  0  0
   56.6870   26.1950   46.3670 C   0  0  0  0  0  0  0  0  0  0  0  0
   56.3290   25.1510   46.9740 O   0  0  0  0  0  0  0  0  0  0  0  0
   58.0050   26.4250   46.1430 N   0  0  0  0  0  0  0  0  0  0  0  0
   58.4240   27.5380   45.4880 C   0  0  0  0  0  0  0  0  0  0  0  0
   59.6570   27.7290   45.3190 O   0  0  0  0  0  0  0  0  0  0  0  0
   57.7470   32.0990   44.2560 C   0  0  0  0  0  0  0  0  0  0  0  0
   57.8850   33.1190   45.1700 C   0  0  0  0  0  0  0  0  0  0  0  0
   57.6190   34.5650   44.8730 C   0  0  0  0  0  0  0  0  0  0  0  0
   58.2680   32.6330   46.3740 N   0  0  0  0  0  0  0  0  0  0  0  0
   58.4800   33.4520   47.5810 C   0  0  0  0  0  0  0  0  0  0  0  0
   59.9400   33.4390   47.9960 C   0  0  0  0  0  0  0  0  0  0  0  0
   60.9220   33.6320   47.0060 C   0  0  0  0  0  0  0  0  0  0  0  0
   62.2850   33.6170   47.3280 C   0  0  0  0  0  0  0  0  0  0  0  0
   63.3150   33.8460   46.2610 C   0  0  0  0  0  0  0  0  0  0  0  0
   62.6760   33.4580   48.6620 C   0  0  0  0  0  0  0  0  0  0  0  0
   61.7160   33.2940   49.6610 C   0  0  0  0  0  0  0  0  0  0  0  0
   60.3460   33.2910   49.3500 C   0  0  0  0  0  0  0  0  0  0  0  0
   59.3510   33.1370   50.4710 C   0  0  0  0  0  0  0  0  0  0  0  0
  1  2  2  0
  2  3  1  0
  3  4  2  3
  4  5  1  0
  5  6  2  0
  6  7  1  0
  6  8  1  0
  8  9  1  0
  9 10  2  0
  9 11  1  0
 11 12  1  0
 12 13  2  0
  3 14  1  0
 14 15  2  0
 15 16  1  0
 15 17  1  0
 17 18  1  0
 18 19  1  0
 19 20  2  0
 20 21  1  0
 21 22  1  0
 21 23  2  0
 23 24  1  0
 24 25  2  0
 25 26  1  0
 17  2  1  0
 25 19  1  0
 12  5  1  0
M  CHG  2   7  -1  11  -1
M  END
>  <UniqueID>  (1733) 
27

>  <SMILES>  (1733) 
C=c1c(=Cc2c([O-])[nH]c(=O)[n-]c2=O)cc(C)n1Cc1cc(C)ccc1C

>  <Energy>  (1733) 
90.472436953522

>  <Genealogy>  (1733) 
C=c1c(=Cc2c([O-])[nH]c(=O)[n-]c2=O)cc(C)n1Cc1cc(C)ccc1C (protonated)
C=c1c(=Cc2c([O-])[nH]c(=O)[n-]c2=O)cc(C)n1Cc1cc(C)ccc1C (3D coordinates assigned)
C=c1c(=Cc2c([O-])[nH]c(=O)[n-]c2=O)cc(C)n1Cc1cc(C)ccc1C (optimized conformer: 90.472436953522 kcal/mol)

>  <smiles>  (1733) 
C=c1c(=Cc2c(O)[nH]c(=O)[nH]c2=O)cc(C)n1Cc1cc(C)ccc1C

>  <score_type>  (1733) 
oracle

>  <origin>  (1733) 
adg

>  <m_score__min__energy>  (1733) 
-14.300000000000001

>  <m_primary>  (1733) 
energy

$$$$
28:0
     RDKit          3D

 24 26  0  0  0  0  0  0  0  0999 V2000
   59.2550   35.2340   47.4170 N   0  0  0  0  0  0  0  0  0  0  0  0
   59.7660   34.4530   45.9630 S   0  0  0  0  0  0  0  0  0  0  0  0
   59.3950   35.3030   44.7800 O   0  0  0  0  0  0  0  0  0  0  0  0
   61.2580   34.2810   45.9840 O   0  0  0  0  0  0  0  0  0  0  0  0
   58.9870   32.8800   45.8360 C   0  0  0  0  0  0  0  0  0  0  0  0
   57.8980   32.6990   44.9720 C   0  0  0  0  0  0  0  0  0  0  0  0
   57.2730   31.4530   44.8810 C   0  0  0  0  0  0  0  0  0  0  0  0
   57.7330   30.3810   45.6500 C   0  0  0  0  0  0  0  0  0  0  0  0
   58.8280   30.5480   46.5110 C   0  0  0  0  0  0  0  0  0  0  0  0
   59.3190   29.4050   47.3090 C   0  0  0  0  0  0  0  0  0  0  0  0
   59.9250   29.6670   48.5490 C   0  0  0  0  0  0  0  0  0  0  0  0
   60.3920   28.6200   49.3440 C   0  0  0  0  0  0  0  0  0  0  0  0
   60.2540   27.3000   48.9160 C   0  0  0  0  0  0  0  0  0  0  0  0
   59.6430   27.0220   47.6920 C   0  0  0  0  0  0  0  0  0  0  0  0
   59.1670   28.0630   46.8730 C   0  0  0  0  0  0  0  0  0  0  0  0
   58.4650   27.7110   45.5780 C   0  0  0  0  0  0  0  0  0  0  0  0
   57.2180   26.9190   45.8340 C   0  0  0  0  0  0  0  0  0  0  0  0
   57.2080   25.6560   46.2960 N   0  0  0  0  0  0  0  0  0  0  0  0
   55.8920   25.3530   46.3410 C   0  0  0  0  0  0  0  0  0  0  0  0
   55.4680   24.2330   46.7260 O   0  0  0  0  0  0  0  0  0  0  0  0
   55.0670   26.3430   45.9380 N   0  0  0  0  0  0  0  0  0  0  0  0
   55.9240   27.3280   45.6210 C   0  0  0  0  0  0  0  0  0  0  0  0
   55.5310   28.5720   45.1430 O   0  0  0  0  0  0  0  0  0  0  0  0
   59.4410   31.8060   46.6140 C   0  0  0  0  0  0  0  0  0  0  0  0
  1  2  1  0
  2  3  2  0
  2  4  2  0
  2  5  1  0
  5  6  2  0
  6  7  1  0
  7  8  2  0
  8  9  1  0
  9 10  1  0
 10 11  2  0
 11 12  1  0
 12 13  2  0
 13 14  1  0
 14 15  2  0
 15 16  1  0
 16 17  1  0
 17 18  1  0
 18 19  1  0
 19 20  2  0
 19 21  1  0
 21 22  1  0
 22 23  1  0
  9 24  2  0
 24  5  1  0
 15 10  1  0
 22 17  2  0
M  CHG  4   1  -1  18  -1  21  -1  23  -1
M  END
>  <UniqueID>  (1734) 
28

>  <SMILES>  (1734) 
[NH-]S(=O)(=O)c1cccc(-c2ccccc2Cc2[n-]c(=O)[n-]c2[O-])c1

>  <Energy>  (1734) 
72.23602899201383

>  <Genealogy>  (1734) 
[NH-]S(=O)(=O)c1cccc(-c2ccccc2Cc2[n-]c(=O)[n-]c2[O-])c1 (protonated)
[NH-]S(=O)(=O)c1cccc(-c2ccccc2Cc2[n-]c(=O)[n-]c2[O-])c1 (3D coordinates assigned)
[NH-]S(=O)(=O)c1cccc(-c2ccccc2Cc2[n-]c(=O)[n-]c2[O-])c1 (optimized conformer: 72.23602899201383 kcal/mol)

>  <smiles>  (1734) 
NS(=O)(=O)c1cccc(-c2ccccc2Cc2[nH]c(=O)[nH]c2O)c1

>  <score_type>  (1734) 
oracle

>  <origin>  (1734) 
adg

>  <m_score__min__energy>  (1734) 
-16.879999999999999

>  <m_primary>  (1734) 
energy

$$$$
33:0
     RDKit          3D

 33 35  0  0  0  0  0  0  0  0999 V2000
   51.0090   32.7300   51.6260 O   0  0  0  0  0  0  0  0  0  0  0  0
   51.2490   31.9740   50.6470 C   0  0  0  0  0  0  0  0  0  0  0  0
   50.6500   32.2290   49.4190 O   0  0  0  0  0  0  0  0  0  0  0  0
   52.1440   30.7860   50.8150 C   0  0  0  0  0  0  0  0  0  0  0  0
   53.5480   31.1940   51.2790 C   0  0  0  0  0  0  0  0  0  0  0  0
   54.1850   30.1610   52.1800 C   0  0  0  0  0  0  0  0  0  0  0  0
   53.9200   28.9410   51.9980 O   0  0  0  0  0  0  0  0  0  0  0  0
   54.9640   30.5270   53.3230 N   0  0  0  0  0  0  0  0  0  0  0  0
   56.2960   31.0500   53.2990 C   0  0  0  0  0  0  0  0  0  0  0  0
   57.1450   30.9170   54.4060 C   0  0  0  0  0  0  0  0  0  0  0  0
   58.4420   31.4330   54.3590 C   0  0  0  0  0  0  0  0  0  0  0  0
   58.9030   32.0880   53.2120 C   0  0  0  0  0  0  0  0  0  0  0  0
   60.5640   32.6670   53.1860 Cl  0  0  0  0  0  0  0  0  0  0  0  0
   58.0510   32.2400   52.0960 C   0  0  0  0  0  0  0  0  0  0  0  0
   58.5170   32.8900   50.9000 N   0  0  0  0  0  0  0  0  0  0  0  0
   59.3180   32.0230   49.6280 S   0  0  0  0  0  0  0  0  0  0  0  0
   60.7390   31.7350   50.0300 O   0  0  0  0  0  0  0  0  0  0  0  0
   58.6090   30.7190   49.3920 O   0  0  0  0  0  0  0  0  0  0  0  0
   59.2650   32.9740   48.1450 C   0  0  0  0  0  0  0  0  0  0  0  0
   59.5990   34.3350   48.1540 C   0  0  0  0  0  0  0  0  0  0  0  0
   59.4940   35.0890   46.9840 C   0  0  0  0  0  0  0  0  0  0  0  0
   59.0650   34.4900   45.7960 C   0  0  0  0  0  0  0  0  0  0  0  0
   58.7440   33.1230   45.7680 C   0  0  0  0  0  0  0  0  0  0  0  0
   58.2930   32.4850   44.5100 C   0  0  0  0  0  0  0  0  0  0  0  0
   58.4010   33.1150   43.4210 O   0  0  0  0  0  0  0  0  0  0  0  0
   57.7200   31.1650   44.5110 N   0  0  0  0  0  0  0  0  0  0  0  0
   56.6600   30.8360   43.5550 C   0  0  0  0  0  0  0  0  0  0  0  0
   55.8140   29.6860   44.1070 C   0  0  0  0  0  0  0  0  0  0  0  0
   56.6300   28.5870   44.4700 O   0  0  0  0  0  0  0  0  0  0  0  0
   57.4890   28.9550   45.5360 C   0  0  0  0  0  0  0  0  0  0  0  0
   58.4680   30.0480   45.0950 C   0  0  0  0  0  0  0  0  0  0  0  0
   58.8330   32.3740   46.9560 C   0  0  0  0  0  0  0  0  0  0  0  0
   56.7380   31.7420   52.1680 C   0  0  0  0  0  0  0  0  0  0  0  0
  1  2  2  0
  2  3  1  0
  2  4  1  0
  4  5  1  0
  5  6  1  0
  6  7  2  0
  6  8  1  0
  8  9  1  0
  9 10  2  0
 10 11  1  0
 11 12  2  0
 12 13  1  0
 12 14  1  0
 14 15  1  0
 15 16  1  0
 16 17  2  0
 16 18  2  0
 16 19  1  0
 19 20  2  0
 20 21  1  0
 21 22  2  0
 22 23  1  0
 23 24  1  0
 24 25  2  0
 24 26  1  0
 26 27  1  0
 27 28  1  0
 28 29  1  0
 29 30  1  0
 30 31  1  0
 23 32  2  0
 14 33  2  0
 33  9  1  0
 32 19  1  0
 31 26  1  0
M  CHG  2   3  -1   8  -1
M  END
>  <UniqueID>  (1735) 
33

>  <SMILES>  (1735) 
O=C([O-])CCC(=O)[N-]c1ccc(Cl)c(NS(=O)(=O)c2cccc(C(=O)N3CCOCC3)c2)c1

>  <Energy>  (1735) 
65.6720754240741

>  <Genealogy>  (1735) 
O=C([O-])CCC(=O)[N-]c1ccc(Cl)c(NS(=O)(=O)c2cccc(C(=O)N3CCOCC3)c2)c1 (protonated)
O=C([O-])CCC(=O)[N-]c1ccc(Cl)c(NS(=O)(=O)c2cccc(C(=O)N3CCOCC3)c2)c1 (3D coordinates assigned)
O=C([O-])CCC(=O)[N-]c1ccc(Cl)c(NS(=O)(=O)c2cccc(C(=O)N3CCOCC3)c2)c1 (nonaromatic ring conformer: 65.6720754240741 kcal/mol)

>  <smiles>  (1735) 
O=C(O)CCC(=O)Nc1ccc(Cl)c(NS(=O)(=O)c2cccc(C(=O)N3CCOCC3)c2)c1

>  <score_type>  (1735) 
oracle

>  <origin>  (1735) 
adg

>  <m_score__min__energy>  (1735) 
-14.85

>  <m_primary>  (1735) 
energy

$$$$
40:0
     RDKit          3D

 30 33  0  0  0  0  0  0  0  0999 V2000
   57.8560   30.1360   45.3370 C   0  0  0  0  0  0  0  0  0  0  0  0
   58.3830   29.4980   46.3930 C   0  0  0  0  0  0  0  0  0  0  0  0
   58.4050   28.1140   46.5980 C   0  0  0  0  0  0  0  0  0  0  0  0
   57.9440   27.1590   45.7650 C   0  0  0  0  0  0  0  0  0  0  0  0
   57.2590   25.9300   46.2110 C   0  0  0  0  0  0  0  0  0  0  0  0
   57.8580   24.8240   46.6870 N   0  0  0  0  0  0  0  0  0  0  0  0
   56.8400   24.0230   47.0640 C   0  0  0  0  0  0  0  0  0  0  0  0
   57.0150   22.8840   47.5680 O   0  0  0  0  0  0  0  0  0  0  0  0
   55.6160   24.5590   46.8710 N   0  0  0  0  0  0  0  0  0  0  0  0
   55.8990   25.7660   46.3430 C   0  0  0  0  0  0  0  0  0  0  0  0
   54.9320   26.7000   45.9940 O   0  0  0  0  0  0  0  0  0  0  0  0
   59.0540   27.9100   47.8080 C   0  0  0  0  0  0  0  0  0  0  0  0
   59.3910   29.1580   48.2920 C   0  0  0  0  0  0  0  0  0  0  0  0
   60.1350   29.3980   49.5710 C   0  0  0  0  0  0  0  0  0  0  0  0
   58.9800   30.1260   47.4390 N   0  0  0  0  0  0  0  0  0  0  0  0
   59.1860   31.5750   47.6060 C   0  0  0  0  0  0  0  0  0  0  0  0
   60.6600   31.9480   47.6060 C   0  0  0  0  0  0  0  0  0  0  0  0
   61.6250   30.9990   47.2080 C   0  0  0  0  0  0  0  0  0  0  0  0
   62.9810   31.3210   47.1910 C   0  0  0  0  0  0  0  0  0  0  0  0
   63.4050   32.5860   47.5920 C   0  0  0  0  0  0  0  0  0  0  0  0
   62.4740   33.5280   48.0280 C   0  0  0  0  0  0  0  0  0  0  0  0
   61.1010   33.2250   48.0500 C   0  0  0  0  0  0  0  0  0  0  0  0
   60.1660   34.2420   48.5940 C   0  0  0  0  0  0  0  0  0  0  0  0
   60.2480   34.5630   49.8080 O   0  0  0  0  0  0  0  0  0  0  0  0
   59.2510   34.9670   47.7550 N   0  0  0  0  0  0  0  0  0  0  0  0
   58.6410   34.5250   46.6950 C   0  0  0  0  0  0  0  0  0  0  0  0
   57.4530   33.8880   46.7670 N   0  0  0  0  0  0  0  0  0  0  0  0
   57.0240   33.4780   45.5440 C   0  0  0  0  0  0  0  0  0  0  0  0
   57.8760   33.7770   44.4860 C   0  0  0  0  0  0  0  0  0  0  0  0
   59.2140   34.5830   45.1090 S   0  0  0  0  0  0  0  0  0  0  0  0
  1  2  2  0
  2  3  1  0
  3  4  2  3
  4  5  1  0
  5  6  1  0
  6  7  1  0
  7  8  2  0
  7  9  1  0
  9 10  1  0
 10 11  1  0
  3 12  1  0
 12 13  2  0
 13 14  1  0
 13 15  1  0
 15 16  1  0
 16 17  1  0
 17 18  2  0
 18 19  1  0
 19 20  2  0
 20 21  1  0
 21 22  2  0
 22 23  1  0
 23 24  2  0
 23 25  1  0
 25 26  2  3
 26 27  1  0
 27 28  1  0
 28 29  2  0
 29 30  1  0
 15  2  1  0
 22 17  1  0
 30 26  1  0
 10  5  2  0
M  CHG  3   9  -1  11  -1  27  -1
M  END
>  <UniqueID>  (1736) 
40

>  <SMILES>  (1736) 
C=c1c(=Cc2[nH]c(=O)[n-]c2[O-])cc(C)n1Cc1ccccc1C(=O)N=c1[n-]ccs1

>  <Energy>  (1736) 
156.33287987640134

>  <Genealogy>  (1736) 
C=c1c(=Cc2[nH]c(=O)[n-]c2[O-])cc(C)n1Cc1ccccc1C(=O)N=c1[n-]ccs1 (protonated)
C=c1c(=Cc2[nH]c(=O)[n-]c2[O-])cc(C)n1Cc1ccccc1C(=O)N=c1[n-]ccs1 (3D coordinates assigned)
C=c1c(=Cc2[nH]c(=O)[n-]c2[O-])cc(C)n1Cc1ccccc1C(=O)N=c1[n-]ccs1 (optimized conformer: 156.33287987640134 kcal/mol)

>  <smiles>  (1736) 
C=c1c(=Cc2[nH]c(=O)[nH]c2O)cc(C)n1Cc1ccccc1C(=O)N=c1[nH]ccs1

>  <score_type>  (1736) 
oracle

>  <origin>  (1736) 
adg

>  <m_score__min__energy>  (1736) 
-16.469999999999999

>  <m_primary>  (1736) 
energy

$$$$
48:0
     RDKit          3D

 28 30  0  0  0  0  0  0  0  0999 V2000
   57.5140   30.4870   43.7140 C   0  0  0  0  0  0  0  0  0  0  0  0
   57.5820   31.9620   43.6650 C   0  0  0  0  0  0  0  0  0  0  0  0
   57.5910   32.5300   42.5420 O   0  0  0  0  0  0  0  0  0  0  0  0
   57.6250   32.7310   44.8740 N   0  0  0  0  0  0  0  0  0  0  0  0
   58.7630   32.9930   45.7070 C   0  0  0  0  0  0  0  0  0  0  0  0
   59.3350   31.9240   46.4070 C   0  0  0  0  0  0  0  0  0  0  0  0
   60.4330   32.1300   47.2460 C   0  0  0  0  0  0  0  0  0  0  0  0
   60.9680   33.4170   47.4100 C   0  0  0  0  0  0  0  0  0  0  0  0
   62.0960   33.6400   48.2790 N   0  0  0  0  0  0  0  0  0  0  0  0
   61.9020   34.2300   49.6070 C   0  0  0  0  0  0  0  0  0  0  0  0
   62.8760   33.6050   50.6090 C   0  0  0  0  0  0  0  0  0  0  0  0
   64.2410   33.5960   50.0590 N   0  0  0  0  0  0  0  0  0  0  0  0
   65.3900   33.8340   50.9020 C   0  0  0  0  0  0  0  0  0  0  0  0
   66.5030   33.3120   50.6150 O   0  0  0  0  0  0  0  0  0  0  0  0
   65.2980   34.6860   52.1310 C   0  0  0  0  0  0  0  0  0  0  0  0
   64.4240   32.9980   48.7280 C   0  0  0  0  0  0  0  0  0  0  0  0
   63.4560   33.6310   47.7280 C   0  0  0  0  0  0  0  0  0  0  0  0
   60.3800   34.4940   46.7290 C   0  0  0  0  0  0  0  0  0  0  0  0
   59.2810   34.2870   45.8890 C   0  0  0  0  0  0  0  0  0  0  0  0
   58.3440   29.6930   44.4080 C   0  0  0  0  0  0  0  0  0  0  0  0
   57.9290   28.5140   45.1950 C   0  0  0  0  0  0  0  0  0  0  0  0
   58.8800   27.6940   45.8290 C   0  0  0  0  0  0  0  0  0  0  0  0
   58.4690   26.5710   46.5520 C   0  0  0  0  0  0  0  0  0  0  0  0
   57.1120   26.2440   46.6300 C   0  0  0  0  0  0  0  0  0  0  0  0
   56.7110   25.1260   47.3530 O   0  0  0  0  0  0  0  0  0  0  0  0
   56.1620   27.0380   45.9770 C   0  0  0  0  0  0  0  0  0  0  0  0
   54.8120   26.7130   46.0430 O   0  0  0  0  0  0  0  0  0  0  0  0
   56.5720   28.1630   45.2510 C   0  0  0  0  0  0  0  0  0  0  0  0
  1  2  1  0
  2  3  2  0
  2  4  1  0
  4  5  1  0
  5  6  2  0
  6  7  1  0
  7  8  2  0
  8  9  1  0
  9 10  1  0
 10 11  1  0
 11 12  1  0
 12 13  1  0
 13 14  2  0
 13 15  1  0
 12 16  1  0
 16 17  1  0
  8 18  1  0
 18 19  2  0
  1 20  2  0
 20 21  1  0
 21 22  2  0
 22 23  1  0
 23 24  2  0
 24 25  1  0
 24 26  1  0
 26 27  1  0
 26 28  2  0
 19  5  1  0
 28 21  1  0
 17  9  1  0
M  CHG  3   4  -1  25  -1  27  -1
M  END
>  <UniqueID>  (1737) 
48

>  <SMILES>  (1737) 
CC(=O)N1CCN(c2ccc([N-]C(=O)/C=C\c3ccc([O-])c([O-])c3)cc2)CC1

>  <Energy>  (1737) 
63.707435856490335

>  <Genealogy>  (1737) 
CC(=O)N1CCN(c2ccc([N-]C(=O)C=Cc3ccc([O-])c([O-])c3)cc2)CC1 (protonated)
CC(=O)N1CCN(c2ccc([N-]C(=O)/C=C\c3ccc([O-])c([O-])c3)cc2)CC1 (cis-trans isomerization)
CC(=O)N1CCN(c2ccc([N-]C(=O)/C=C\c3ccc([O-])c([O-])c3)cc2)CC1 (3D coordinates assigned)
CC(=O)N1CCN(c2ccc([N-]C(=O)/C=C\c3ccc([O-])c([O-])c3)cc2)CC1 (nonaromatic ring conformer: 63.707435856490335 kcal/mol)

>  <smiles>  (1737) 
CC(=O)N1CCN(c2ccc(NC(=O)C=Cc3ccc(O)c(O)c3)cc2)CC1

>  <score_type>  (1737) 
oracle

>  <origin>  (1737) 
adg

>  <m_score__min__energy>  (1737) 
-17.390000000000001

>  <m_primary>  (1737) 
energy

$$$$
52:0
     RDKit          3D

 33 36  0  0  0  0  0  0  0  0999 V2000
   55.1240   26.5680   46.1370 O   0  0  0  0  0  0  0  0  0  0  0  0
   56.1280   25.6410   46.3900 C   0  0  0  0  0  0  0  0  0  0  0  0
   55.9030   24.3700   46.7660 N   0  0  0  0  0  0  0  0  0  0  0  0
   57.1500   23.8660   46.8620 C   0  0  0  0  0  0  0  0  0  0  0  0
   57.3740   22.6730   47.1940 O   0  0  0  0  0  0  0  0  0  0  0  0
   58.1380   24.7360   46.5650 N   0  0  0  0  0  0  0  0  0  0  0  0
   57.4780   25.8760   46.2920 C   0  0  0  0  0  0  0  0  0  0  0  0
   58.1010   27.1040   45.7670 C   0  0  0  0  0  0  0  0  0  0  0  0
   58.9100   27.9300   46.4590 C   0  0  0  0  0  0  0  0  0  0  0  0
   58.6820   28.2650   47.7830 C   0  0  0  0  0  0  0  0  0  0  0  0
   59.6180   29.2190   48.1210 C   0  0  0  0  0  0  0  0  0  0  0  0
   59.7010   29.8790   49.4640 C   0  0  0  0  0  0  0  0  0  0  0  0
   60.4450   29.4640   47.0770 N   0  0  0  0  0  0  0  0  0  0  0  0
   61.5320   30.4580   47.0490 C   0  0  0  0  0  0  0  0  0  0  0  0
   60.9920   31.8680   46.7700 C   0  0  0  0  0  0  0  0  0  0  0  0
   60.7170   32.6260   48.0470 C   0  0  0  0  0  0  0  0  0  0  0  0
   61.4050   32.2760   49.2220 C   0  0  0  0  0  0  0  0  0  0  0  0
   61.1930   32.9890   50.4050 C   0  0  0  0  0  0  0  0  0  0  0  0
   60.3040   34.0650   50.4220 C   0  0  0  0  0  0  0  0  0  0  0  0
   59.6240   34.4310   49.2590 C   0  0  0  0  0  0  0  0  0  0  0  0
   59.8160   33.7110   48.0630 C   0  0  0  0  0  0  0  0  0  0  0  0
   59.1770   34.0790   46.8690 O   0  0  0  0  0  0  0  0  0  0  0  0
   58.1330   33.3800   46.2500 C   0  0  0  0  0  0  0  0  0  0  0  0
   57.1460   33.9870   45.7510 O   0  0  0  0  0  0  0  0  0  0  0  0
   58.1370   31.8870   46.2920 C   0  0  0  0  0  0  0  0  0  0  0  0
   57.6340   31.3340   44.9880 C   0  0  0  0  0  0  0  0  0  0  0  0
   57.8590   32.0320   43.7890 C   0  0  0  0  0  0  0  0  0  0  0  0
   57.3650   31.5320   42.5800 C   0  0  0  0  0  0  0  0  0  0  0  0
   56.6340   30.3390   42.5610 C   0  0  0  0  0  0  0  0  0  0  0  0
   56.3940   29.6470   43.7520 C   0  0  0  0  0  0  0  0  0  0  0  0
   56.8880   30.1440   44.9620 C   0  0  0  0  0  0  0  0  0  0  0  0
   60.0500   28.6460   46.0640 C   0  0  0  0  0  0  0  0  0  0  0  0
   60.7610   28.4650   44.9390 C   0  0  0  0  0  0  0  0  0  0  0  0
  1  2  1  0
  2  3  1  0
  3  4  1  0
  4  5  2  0
  4  6  1  0
  6  7  1  0
  7  8  1  0
  8  9  2  0
  9 10  1  0
 10 11  2  0
 11 12  1  0
 11 13  1  0
 13 14  1  0
 14 15  1  0
 15 16  1  0
 16 17  2  0
 17 18  1  0
 18 19  2  0
 19 20  1  0
 20 21  2  0
 21 22  1  0
 22 23  1  0
 23 24  2  0
 23 25  1  0
 25 26  1  0
 26 27  2  0
 27 28  1  0
 28 29  2  0
 29 30  1  0
 30 31  2  0
 13 32  1  0
 32 33  2  0
  7  2  2  0
 32  9  1  0
 21 16  1  0
 31 26  1  0
M  CHG  2   3  -1   6  -1
M  END
>  <UniqueID>  (1738) 
52

>  <SMILES>  (1738) 
C=c1/c(=C\c2[n-]c(=O)[n-]c2O)cc(C)n1CCc1ccccc1OC(=O)Cc1ccccc1

>  <Energy>  (1738) 
125.39809832708686

>  <Genealogy>  (1738) 
C=c1c(=Cc2[n-]c(=O)[n-]c2O)cc(C)n1CCc1ccccc1OC(=O)Cc1ccccc1 (protonated)
C=c1/c(=C\c2[n-]c(=O)[n-]c2O)cc(C)n1CCc1ccccc1OC(=O)Cc1ccccc1 (cis-trans isomerization)
C=c1/c(=C\c2[n-]c(=O)[n-]c2O)cc(C)n1CCc1ccccc1OC(=O)Cc1ccccc1 (3D coordinates assigned)
C=c1/c(=C\c2[n-]c(=O)[n-]c2O)cc(C)n1CCc1ccccc1OC(=O)Cc1ccccc1 (optimized conformer: 125.39809832708686 kcal/mol)

>  <smiles>  (1738) 
C=c1c(=Cc2[nH]c(=O)[nH]c2O)cc(C)n1CCc1ccccc1OC(=O)Cc1ccccc1

>  <score_type>  (1738) 
oracle

>  <origin>  (1738) 
adg

>  <m_score__min__energy>  (1738) 
-14.369999999999999

>  <m_primary>  (1738) 
energy

$$$$
56:0
     RDKit          3D

 30 34  0  0  0  0  0  0  0  0999 V2000
   57.7190   31.8260   42.6490 C   0  0  0  0  0  0  0  0  0  0  0  0
   56.9680   31.2120   43.5670 C   0  0  0  0  0  0  0  0  0  0  0  0
   56.0580   30.0780   43.2010 C   0  0  0  0  0  0  0  0  0  0  0  0
   59.1790   29.2200   47.1720 N   0  0  0  0  0  0  0  0  0  0  0  0
   58.1180   28.6550   46.6760 C   0  0  0  0  0  0  0  0  0  0  0  0
   57.7590   27.3900   47.0230 N   0  0  0  0  0  0  0  0  0  0  0  0
   56.6500   26.8180   46.4950 C   0  0  0  0  0  0  0  0  0  0  0  0
   56.3310   25.6070   46.8380 N   0  0  0  0  0  0  0  0  0  0  0  0
   57.3060   24.5600   47.1380 C   0  0  0  0  0  0  0  0  0  0  0  0
   58.0760   24.1800   45.8700 C   0  0  0  0  0  0  0  0  0  0  0  0
   57.2780   23.3000   44.9880 N   0  0  0  0  0  0  0  0  0  0  0  0
   56.7190   24.0760   43.8660 C   0  0  0  0  0  0  0  0  0  0  0  0
   55.8380   23.1710   42.9770 C   0  0  0  0  0  0  0  0  0  0  0  0
   56.0170   21.7920   43.2550 O   0  0  0  0  0  0  0  0  0  0  0  0
   57.3950   21.4850   43.2760 C   0  0  0  0  0  0  0  0  0  0  0  0
   58.0840   22.1680   44.4730 C   0  0  0  0  0  0  0  0  0  0  0  0
   55.8910   27.5180   45.6100 N   0  0  0  0  0  0  0  0  0  0  0  0
   56.2400   28.7840   45.2570 C   0  0  0  0  0  0  0  0  0  0  0  0
   55.5240   29.4620   44.4120 N   0  0  0  0  0  0  0  0  0  0  0  0
   59.4690   30.6570   47.3090 C   0  0  2  0  0  0  0  0  0  0  0  0
   60.9400   30.8970   47.7500 C   0  0  0  0  0  0  0  0  0  0  0  0
   61.1910   32.4110   47.9360 C   0  0  1  0  0  0  0  0  0  0  0  0
   60.9180   33.1470   46.6050 C   0  0  0  0  0  0  0  0  0  0  0  0
   59.4480   32.9300   46.1810 C   0  0  2  0  0  0  0  0  0  0  0  0
   58.5100   33.4760   47.2790 C   0  0  0  0  0  0  0  0  0  0  0  0
   58.7820   32.7340   48.6050 C   0  0  2  0  0  0  0  0  0  0  0  0
   60.2490   32.9590   49.0290 C   0  0  0  0  0  0  0  0  0  0  0  0
   58.5310   31.2240   48.4080 C   0  0  0  0  0  0  0  0  0  0  0  0
   59.1850   31.4200   45.9830 C   0  0  0  0  0  0  0  0  0  0  0  0
   57.3520   29.3450   45.7930 N   0  0  0  0  0  0  0  0  0  0  0  0
  1  2  2  0
  2  3  1  0
  3  4  1  0
  4  5  2  0
  5  6  1  0
  6  7  1  0
  7  8  2  3
  8  9  1  0
  9 10  1  0
 10 11  1  0
 11 12  1  0
 12 13  1  0
 13 14  1  0
 14 15  1  0
 15 16  1  0
  7 17  1  0
 17 18  1  0
 18 19  2  0
 20 19  1  1
 20 21  1  0
 22 21  1  6
 22 23  1  0
 24 23  1  1
 24 25  1  0
 26 25  1  6
 26 27  1  0
 26 28  1  0
 24 29  1  0
 18 30  1  0
 30  5  1  0
 16 11  1  0
 28 20  1  0
 29 20  1  0
 27 22  1  0
M  CHG  3   6  -1  17  -1  30  -1
M  END
>  <UniqueID>  (1739) 
56

>  <SMILES>  (1739) 
C=CC/N=c1\[n-]c(=NCCN2CCOCC2)[n-]/c(=N\C23CC4CC(CC(C4)C2)C3)[n-]1

>  <Energy>  (1739) 
67.24991525375243

>  <Genealogy>  (1739) 
C=CCN=c1[n-]c(=NCCN2CCOCC2)[n-]c(=NC23CC4CC(CC(C4)C2)C3)[n-]1 (protonated)
C=CC/N=c1\[n-]c(=NCCN2CCOCC2)[n-]/c(=N\C23CC4CC(CC(C4)C2)C3)[n-]1 (cis-trans isomerization)
C=CC/N=c1\[n-]c(=NCCN2CCOCC2)[n-]/c(=N\C23CC4CC(CC(C4)C2)C3)[n-]1 (3D coordinates assigned)
C=CC/N=c1\[n-]c(=NCCN2CCOCC2)[n-]/c(=N\C23CC4CC(CC(C4)C2)C3)[n-]1 (nonaromatic ring conformer: 67.24991525375243 kcal/mol)

>  <smiles>  (1739) 
C=CCN=c1[nH]c(=NCCN2CCOCC2)[nH]c(=NC23CC4CC(CC(C4)C2)C3)[nH]1

>  <score_type>  (1739) 
oracle

>  <origin>  (1739) 
adg

>  <m_score__min__energy>  (1739) 
-14.199999999999999

>  <m_primary>  (1739) 
energy

$$$$
58:0
     RDKit          3D

 31 34  0  0  0  0  0  0  0  0999 V2000
   58.8500   30.2960   44.4640 C   0  0  0  0  0  0  0  0  0  0  0  0
   58.8150   29.9680   45.7670 C   0  0  0  0  0  0  0  0  0  0  0  0
   58.1810   28.8540   46.3430 C   0  0  0  0  0  0  0  0  0  0  0  0
   57.3430   27.9380   45.8170 C   0  0  0  0  0  0  0  0  0  0  0  0
   57.1790   26.5490   46.2890 C   0  0  0  0  0  0  0  0  0  0  0  0
   55.9050   25.9680   46.3480 C   0  0  0  0  0  0  0  0  0  0  0  0
   54.7740   26.7050   46.0130 O   0  0  0  0  0  0  0  0  0  0  0  0
   55.7660   24.6760   46.7430 N   0  0  0  0  0  0  0  0  0  0  0  0
   56.8480   23.9230   47.0700 C   0  0  0  0  0  0  0  0  0  0  0  0
   56.6940   22.7290   47.4380 O   0  0  0  0  0  0  0  0  0  0  0  0
   58.0950   24.4540   46.9950 N   0  0  0  0  0  0  0  0  0  0  0  0
   58.2860   25.7410   46.6060 C   0  0  0  0  0  0  0  0  0  0  0  0
   59.4590   26.1950   46.5250 O   0  0  0  0  0  0  0  0  0  0  0  0
   58.5670   28.8320   47.6720 C   0  0  0  0  0  0  0  0  0  0  0  0
   59.3700   29.9340   47.8750 C   0  0  0  0  0  0  0  0  0  0  0  0
   59.9830   30.3060   49.1920 C   0  0  0  0  0  0  0  0  0  0  0  0
   59.5070   30.6400   46.7270 N   0  0  0  0  0  0  0  0  0  0  0  0
   60.3420   31.8380   46.5580 C   0  0  0  0  0  0  0  0  0  0  0  0
   59.4750   33.0950   46.5270 C   0  0  0  0  0  0  0  0  0  0  0  0
   59.9940   34.0690   47.4830 N   0  0  0  0  0  0  0  0  0  0  0  0
   60.3710   33.8280   48.7110 C   0  0  0  0  0  0  0  0  0  0  0  0
   59.4480   33.8120   49.7790 C   0  0  0  0  0  0  0  0  0  0  0  0
   59.8890   33.5510   51.0760 C   0  0  0  0  0  0  0  0  0  0  0  0
   61.2010   33.3120   51.3190 N   0  0  0  0  0  0  0  0  0  0  0  0
   62.1270   33.3160   50.3240 C   0  0  0  0  0  0  0  0  0  0  0  0
   63.4700   33.0620   50.6280 C   0  0  0  0  0  0  0  0  0  0  0  0
   64.4320   33.0640   49.6140 C   0  0  0  0  0  0  0  0  0  0  0  0
   66.1130   32.7460   50.0000 Cl  0  0  0  0  0  0  0  0  0  0  0  0
   64.0550   33.3190   48.2910 C   0  0  0  0  0  0  0  0  0  0  0  0
   62.7170   33.5730   47.9770 C   0  0  0  0  0  0  0  0  0  0  0  0
   61.7340   33.5750   48.9880 C   0  0  0  0  0  0  0  0  0  0  0  0
  1  2  2  0
  2  3  1  0
  3  4  2  0
  4  5  1  0
  5  6  2  0
  6  7  1  0
  6  8  1  0
  8  9  1  0
  9 10  2  0
  9 11  1  0
 11 12  1  0
 12 13  2  0
  3 14  1  0
 14 15  2  0
 15 16  1  0
 15 17  1  0
 17 18  1  0
 18 19  1  0
 19 20  1  0
 20 21  2  0
 21 22  1  0
 22 23  2  0
 23 24  1  0
 24 25  1  0
 25 26  2  0
 26 27  1  0
 27 28  1  0
 27 29  2  0
 29 30  1  0
 30 31  2  0
 17  2  1  0
 31 21  1  0
 12  5  1  0
 31 25  1  0
M  CHG  4   7  -1   8  -1  11  -1  24  -1
M  END
>  <UniqueID>  (1740) 
58

>  <SMILES>  (1740) 
C=c1/c(=C\c2c([O-])[n-]c(=O)[n-]c2=O)cc(C)n1CC/N=c1\cc[n-]c2cc(Cl)ccc12

>  <Energy>  (1740) 
97.8881222390031

>  <Genealogy>  (1740) 
C=c1c(=Cc2c([O-])[n-]c(=O)[n-]c2=O)cc(C)n1CCN=c1cc[n-]c2cc(Cl)ccc12 (protonated)
C=c1/c(=C\c2c([O-])[n-]c(=O)[n-]c2=O)cc(C)n1CC/N=c1\cc[n-]c2cc(Cl)ccc12 (cis-trans isomerization)
C=c1/c(=C\c2c([O-])[n-]c(=O)[n-]c2=O)cc(C)n1CC/N=c1\cc[n-]c2cc(Cl)ccc12 (3D coordinates assigned)
C=c1/c(=C\c2c([O-])[n-]c(=O)[n-]c2=O)cc(C)n1CC/N=c1\cc[n-]c2cc(Cl)ccc12 (optimized conformer: 97.8881222390031 kcal/mol)

>  <smiles>  (1740) 
C=c1c(=Cc2c(O)[nH]c(=O)[nH]c2=O)cc(C)n1CCN=c1cc[nH]c2cc(Cl)ccc12

>  <score_type>  (1740) 
oracle

>  <origin>  (1740) 
adg

>  <m_score__min__energy>  (1740) 
-17.510000000000002

>  <m_primary>  (1740) 
energy

$$$$
69:0
     RDKit          3D

 32 34  0  0  0  0  0  0  0  0999 V2000
   55.4930   29.3000   44.9960 N   0  0  0  0  0  0  0  0  0  0  0  0
   56.1800   30.2720   44.2090 C   0  0  0  0  0  0  0  0  0  0  0  0
   55.8970   30.3810   42.9850 O   0  0  0  0  0  0  0  0  0  0  0  0
   57.1880   31.1630   44.8320 C   0  0  0  0  0  0  0  0  0  0  0  0
   57.0100   32.5580   44.7470 C   0  0  0  0  0  0  0  0  0  0  0  0
   57.9790   33.4310   45.2460 C   0  0  0  0  0  0  0  0  0  0  0  0
   59.1400   32.9300   45.8320 C   0  0  0  0  0  0  0  0  0  0  0  0
   59.3280   31.5520   45.9390 C   0  0  0  0  0  0  0  0  0  0  0  0
   58.3530   30.6600   45.4680 C   0  0  0  0  0  0  0  0  0  0  0  0
   58.5630   29.2550   45.6700 N   0  0  0  0  0  0  0  0  0  0  0  0
   59.8580   28.6490   45.5270 C   0  0  0  0  0  0  0  0  0  0  0  0
   60.8740   29.3600   45.3010 O   0  0  0  0  0  0  0  0  0  0  0  0
   60.0090   27.1570   45.6170 C   0  0  0  0  0  0  0  0  0  0  0  0
   58.6920   26.4630   45.9950 C   0  0  0  0  0  0  0  0  0  0  0  0
   58.6280   26.0970   47.4570 C   0  0  0  0  0  0  0  0  0  0  0  0
   57.7390   25.2990   47.8580 O   0  0  0  0  0  0  0  0  0  0  0  0
   59.5310   26.6570   48.4190 N   0  0  0  0  0  0  0  0  0  0  0  0
   59.7720   28.0510   48.6600 C   0  0  0  0  0  0  0  0  0  0  0  0
   58.6960   28.9440   48.6010 C   0  0  0  0  0  0  0  0  0  0  0  0
   58.8880   30.3030   48.8590 C   0  0  0  0  0  0  0  0  0  0  0  0
   60.1610   30.7840   49.1960 C   0  0  0  0  0  0  0  0  0  0  0  0
   60.4070   32.5020   49.5190 S   0  0  0  0  0  0  0  0  0  0  0  0
   59.2540   33.2780   48.9460 O   0  0  0  0  0  0  0  0  0  0  0  0
   60.4270   32.7280   51.0050 O   0  0  0  0  0  0  0  0  0  0  0  0
   61.8990   33.0890   48.8290 N   0  0  0  0  0  0  0  0  0  0  0  0
   63.0450   32.6990   49.6690 C   0  0  0  0  0  0  0  0  0  0  0  0
   64.3730   33.0610   48.9730 C   0  0  0  0  0  0  0  0  0  0  0  0
   64.1510   33.8470   47.8170 O   0  0  0  0  0  0  0  0  0  0  0  0
   63.3990   33.1080   46.8690 C   0  0  0  0  0  0  0  0  0  0  0  0
   62.0770   32.5770   47.4640 C   0  0  0  0  0  0  0  0  0  0  0  0
   61.2360   29.8890   49.2810 C   0  0  0  0  0  0  0  0  0  0  0  0
   61.0420   28.5280   49.0300 C   0  0  0  0  0  0  0  0  0  0  0  0
  1  2  1  0
  2  3  2  0
  2  4  1  0
  4  5  2  0
  5  6  1  0
  6  7  2  0
  7  8  1  0
  8  9  2  0
  9 10  1  0
 10 11  1  0
 11 12  2  0
 11 13  1  0
 13 14  1  0
 14 15  1  0
 15 16  2  0
 15 17  1  0
 17 18  1  0
 18 19  2  0
 19 20  1  0
 20 21  2  0
 21 22  1  0
 22 23  2  0
 22 24  2  0
 22 25  1  0
 25 26  1  0
 26 27  1  0
 27 28  1  0
 28 29  1  0
 29 30  1  0
 21 31  1  0
 31 32  2  0
  9  4  1  0
 32 18  1  0
 30 25  1  0
M  CHG  2   1  -1  17  -1
M  END
>  <UniqueID>  (1741) 
69

>  <SMILES>  (1741) 
[NH-]C(=O)c1ccccc1NC(=O)CCC(=O)[N-]c1ccc(S(=O)(=O)N2CCOCC2)cc1

>  <Energy>  (1741) 
73.00257394088887

>  <Genealogy>  (1741) 
[NH-]C(=O)c1ccccc1NC(=O)CCC(=O)[N-]c1ccc(S(=O)(=O)N2CCOCC2)cc1 (protonated)
[NH-]C(=O)c1ccccc1NC(=O)CCC(=O)[N-]c1ccc(S(=O)(=O)N2CCOCC2)cc1 (3D coordinates assigned)
[NH-]C(=O)c1ccccc1NC(=O)CCC(=O)[N-]c1ccc(S(=O)(=O)N2CCOCC2)cc1 (nonaromatic ring conformer: 73.00257394088887 kcal/mol)

>  <smiles>  (1741) 
NC(=O)c1ccccc1NC(=O)CCC(=O)Nc1ccc(S(=O)(=O)N2CCOCC2)cc1

>  <score_type>  (1741) 
oracle

>  <origin>  (1741) 
adg

>  <m_score__min__energy>  (1741) 
-14.609999999999999

>  <m_primary>  (1741) 
energy

$$$$
78:0
     RDKit          3D

 29 31  0  0  0  0  0  0  0  0999 V2000
   58.6970   31.2120   47.6430 C   0  0  0  0  0  0  0  0  0  0  0  0
   58.8030   32.5460   46.9370 C   0  0  0  0  0  0  0  0  0  0  0  0
   58.0630   32.7690   45.7500 C   0  0  0  0  0  0  0  0  0  0  0  0
   57.2350   31.7210   45.2180 N   0  0  0  0  0  0  0  0  0  0  0  0
   57.2870   31.1830   43.8910 C   0  0  0  0  0  0  0  0  0  0  0  0
   57.7620   31.8620   42.9420 O   0  0  0  0  0  0  0  0  0  0  0  0
   56.7240   29.8440   43.6470 C   0  0  0  0  0  0  0  0  0  0  0  0
   56.2560   29.0700   44.6360 C   0  0  0  0  0  0  0  0  0  0  0  0
   57.0990   28.0660   45.3270 C   0  0  0  0  0  0  0  0  0  0  0  0
   58.4970   28.2340   45.3790 C   0  0  0  0  0  0  0  0  0  0  0  0
   59.2980   27.3250   46.0740 C   0  0  0  0  0  0  0  0  0  0  0  0
   58.7170   26.2420   46.7330 C   0  0  0  0  0  0  0  0  0  0  0  0
   57.3330   26.0590   46.6950 C   0  0  0  0  0  0  0  0  0  0  0  0
   56.7680   24.9730   47.3530 O   0  0  0  0  0  0  0  0  0  0  0  0
   56.5160   26.9580   45.9930 C   0  0  0  0  0  0  0  0  0  0  0  0
   55.1410   26.7130   45.9610 O   0  0  0  0  0  0  0  0  0  0  0  0
   58.2010   33.9880   45.0650 C   0  0  0  0  0  0  0  0  0  0  0  0
   59.0420   34.9830   45.5540 C   0  0  0  0  0  0  0  0  0  0  0  0
   59.7760   34.7720   46.7160 C   0  0  0  0  0  0  0  0  0  0  0  0
   59.6810   33.5560   47.4110 C   0  0  0  0  0  0  0  0  0  0  0  0
   60.6910   33.3280   48.8530 S   0  0  0  0  0  0  0  0  0  0  0  0
   59.8230   32.8110   49.9660 O   0  0  0  0  0  0  0  0  0  0  0  0
   61.2750   34.6450   49.2860 O   0  0  0  0  0  0  0  0  0  0  0  0
   61.9780   32.1850   48.5280 N   0  0  0  0  0  0  0  0  0  0  0  0
   62.3770   32.1980   47.1090 C   0  0  0  0  0  0  0  0  0  0  0  0
   63.2240   33.4400   46.7440 C   0  0  0  0  0  0  0  0  0  0  0  0
   63.7840   34.0970   47.8680 O   0  0  0  0  0  0  0  0  0  0  0  0
   64.2870   33.1510   48.7840 C   0  0  0  0  0  0  0  0  0  0  0  0
   63.1290   32.3750   49.4390 C   0  0  0  0  0  0  0  0  0  0  0  0
  1  2  1  0
  2  3  2  0
  3  4  1  0
  4  5  1  0
  5  6  2  0
  5  7  1  0
  7  8  2  3
  8  9  1  0
  9 10  2  0
 10 11  1  0
 11 12  2  0
 12 13  1  0
 13 14  1  0
 13 15  2  0
 15 16  1  0
  3 17  1  0
 17 18  2  0
 18 19  1  0
 19 20  2  0
 20 21  1  0
 21 22  2  0
 21 23  2  0
 21 24  1  0
 24 25  1  0
 25 26  1  0
 26 27  1  0
 27 28  1  0
 28 29  1  0
 20  2  1  0
 29 24  1  0
 15  9  1  0
M  CHG  2   4  -1  14  -1
M  END
>  <UniqueID>  (1742) 
78

>  <SMILES>  (1742) 
Cc1c([N-]C(=O)C=Cc2cccc([O-])c2O)cccc1S(=O)(=O)N1CCOCC1

>  <Energy>  (1742) 
71.75927873809727

>  <Genealogy>  (1742) 
Cc1c([N-]C(=O)C=Cc2cccc([O-])c2O)cccc1S(=O)(=O)N1CCOCC1 (protonated)
Cc1c([N-]C(=O)C=Cc2cccc([O-])c2O)cccc1S(=O)(=O)N1CCOCC1 (3D coordinates assigned)
Cc1c([N-]C(=O)C=Cc2cccc([O-])c2O)cccc1S(=O)(=O)N1CCOCC1 (nonaromatic ring conformer: 71.75927873809727 kcal/mol)

>  <smiles>  (1742) 
Cc1c(NC(=O)C=Cc2cccc(O)c2O)cccc1S(=O)(=O)N1CCOCC1

>  <score_type>  (1742) 
oracle

>  <origin>  (1742) 
adg

>  <m_score__min__energy>  (1742) 
-15.119999999999999

>  <m_primary>  (1742) 
energy

$$$$
81:0
     RDKit          3D

 23 25  0  0  0  0  0  0  0  0999 V2000
   59.8420   30.0340   46.4560 C   0  0  0  0  0  0  0  0  0  0  0  0
   58.8590   30.4920   45.6380 C   0  0  0  0  0  0  0  0  0  0  0  0
   58.2450   29.6370   44.6550 C   0  0  0  0  0  0  0  0  0  0  0  0
   58.4570   28.2880   44.6420 C   0  0  0  0  0  0  0  0  0  0  0  0
   57.6010   27.2660   45.2760 C   0  0  0  0  0  0  0  0  0  0  0  0
   58.1370   25.8220   45.9690 S   0  0  0  0  0  0  0  0  0  0  0  0
   56.6230   25.4590   46.6030 C   0  0  0  0  0  0  0  0  0  0  0  0
   56.2860   24.1180   47.4710 S   0  0  0  0  0  0  0  0  0  0  0  0
   55.7140   26.4220   46.3410 N   0  0  0  0  0  0  0  0  0  0  0  0
   56.2630   27.4330   45.6180 C   0  0  0  0  0  0  0  0  0  0  0  0
   55.5240   28.5540   45.2570 O   0  0  0  0  0  0  0  0  0  0  0  0
   57.3410   30.2490   43.7460 C   0  0  0  0  0  0  0  0  0  0  0  0
   56.7050   29.5810   42.8890 O   0  0  0  0  0  0  0  0  0  0  0  0
   57.0890   31.5720   43.8240 N   0  0  0  0  0  0  0  0  0  0  0  0
   57.6400   32.3570   44.7710 C   0  0  0  0  0  0  0  0  0  0  0  0
   57.3360   33.5820   44.7950 O   0  0  0  0  0  0  0  0  0  0  0  0
   58.5000   31.8290   45.6930 N   0  0  0  0  0  0  0  0  0  0  0  0
   59.0170   32.7190   46.7070 C   0  0  0  0  0  0  0  0  0  0  0  0
   59.8160   33.8140   46.3420 C   0  0  0  0  0  0  0  0  0  0  0  0
   60.3160   34.6760   47.3230 C   0  0  0  0  0  0  0  0  0  0  0  0
   60.0240   34.4470   48.6710 C   0  0  0  0  0  0  0  0  0  0  0  0
   59.2310   33.3560   49.0400 C   0  0  0  0  0  0  0  0  0  0  0  0
   58.7280   32.4930   48.0620 C   0  0  0  0  0  0  0  0  0  0  0  0
  1  2  2  0
  2  3  1  0
  3  4  2  0
  4  5  1  0
  5  6  1  0
  6  7  1  0
  7  8  2  0
  7  9  1  0
  9 10  1  0
 10 11  1  0
  3 12  1  0
 12 13  2  0
 12 14  1  0
 14 15  1  0
 15 16  2  0
 15 17  1  0
 17 18  1  0
 18 19  2  0
 19 20  1  0
 20 21  2  0
 21 22  1  0
 22 23  2  0
 17  2  1  0
 23 18  1  0
 10  5  2  0
M  CHG  3   9  -1  11  -1  14  -1
M  END
>  <UniqueID>  (1743) 
81

>  <SMILES>  (1743) 
C=c1/c(=C/c2sc(=S)[n-]c2[O-])c(=O)[n-]c(=O)n1-c1ccccc1

>  <Energy>  (1743) 
101.3972774952183

>  <Genealogy>  (1743) 
C=c1c(=Cc2sc(=S)[n-]c2[O-])c(=O)[n-]c(=O)n1-c1ccccc1 (protonated)
C=c1/c(=C/c2sc(=S)[n-]c2[O-])c(=O)[n-]c(=O)n1-c1ccccc1 (cis-trans isomerization)
C=c1/c(=C/c2sc(=S)[n-]c2[O-])c(=O)[n-]c(=O)n1-c1ccccc1 (3D coordinates assigned)
C=c1/c(=C/c2sc(=S)[n-]c2[O-])c(=O)[n-]c(=O)n1-c1ccccc1 (optimized conformer: 101.3972774952183 kcal/mol)

>  <smiles>  (1743) 
C=c1c(=Cc2sc(=S)[nH]c2O)c(=O)[nH]c(=O)n1-c1ccccc1

>  <score_type>  (1743) 
oracle

>  <origin>  (1743) 
adg

>  <m_score__min__energy>  (1743) 
-14.75

>  <m_primary>  (1743) 
energy

$$$$
86:0
     RDKit          3D

 24 26  0  0  0  0  0  0  0  0999 V2000
   59.0360   28.0330   47.8210 C   0  0  0  0  0  0  0  0  0  0  0  0
   58.4610   28.8600   46.9330 C   0  0  0  0  0  0  0  0  0  0  0  0
   57.8210   28.5060   45.7440 C   0  0  0  0  0  0  0  0  0  0  0  0
   57.6930   27.2620   45.2370 C   0  0  0  0  0  0  0  0  0  0  0  0
   57.1660   26.1100   45.9820 C   0  0  0  0  0  0  0  0  0  0  0  0
   57.9400   25.1640   46.5410 N   0  0  0  0  0  0  0  0  0  0  0  0
   57.0500   24.3890   47.2010 C   0  0  0  0  0  0  0  0  0  0  0  0
   57.3940   23.3680   47.8510 O   0  0  0  0  0  0  0  0  0  0  0  0
   55.7670   24.8010   47.1180 N   0  0  0  0  0  0  0  0  0  0  0  0
   55.8610   25.9010   46.3540 C   0  0  0  0  0  0  0  0  0  0  0  0
   54.7800   26.7100   46.0250 O   0  0  0  0  0  0  0  0  0  0  0  0
   57.3960   29.7310   45.2130 C   0  0  0  0  0  0  0  0  0  0  0  0
   56.7130   29.9960   43.9070 C   0  0  0  0  0  0  0  0  0  0  0  0
   57.7480   30.7300   46.0460 N   0  0  0  0  0  0  0  0  0  0  0  0
   58.3900   30.2050   47.0760 N   0  0  0  0  0  0  0  0  0  0  0  0
   58.8870   31.0150   48.1910 C   0  0  0  0  0  0  0  0  0  0  0  0
   59.7230   32.1500   47.6710 C   0  0  0  0  0  0  0  0  0  0  0  0
   60.9540   32.1790   47.9460 O   0  0  0  0  0  0  0  0  0  0  0  0
   59.1600   33.1720   46.8310 N   0  0  0  0  0  0  0  0  0  0  0  0
   57.8510   33.7700   47.1160 C   0  0  0  0  0  0  0  0  0  0  0  0
   56.9940   33.8260   45.8360 C   0  0  0  0  0  0  0  0  0  0  0  0
   57.7820   33.9310   44.5900 N   0  0  0  0  0  0  0  0  0  0  0  0
   59.0890   34.5700   44.7980 C   0  0  0  0  0  0  0  0  0  0  0  0
   59.9600   33.7160   45.7290 C   0  0  0  0  0  0  0  0  0  0  0  0
  1  2  2  0
  2  3  1  0
  3  4  2  0
  4  5  1  0
  5  6  1  0
  6  7  1  0
  7  8  2  0
  7  9  1  0
  9 10  1  0
 10 11  1  0
  3 12  1  0
 12 13  1  0
 12 14  2  0
 14 15  1  0
 15 16  1  0
 16 17  1  0
 17 18  2  0
 17 19  1  0
 19 20  1  0
 20 21  1  0
 21 22  1  0
 22 23  1  0
 23 24  1  0
 15  2  1  0
 24 19  1  0
 10  5  2  0
M  CHG  3   6  -1   9  -1  11  -1
M  END
>  <UniqueID>  (1744) 
85

>  <SMILES>  (1744) 
C=c1/c(=C/c2[n-]c(=O)[n-]c2[O-])c(C)nn1CC(=O)N1CCNCC1

>  <Energy>  (1744) 
119.07087176669705

>  <Genealogy>  (1744) 
C=c1c(=Cc2[n-]c(=O)[n-]c2[O-])c(C)nn1CC(=O)N1CCNCC1 (protonated)
C=c1/c(=C/c2[n-]c(=O)[n-]c2[O-])c(C)nn1CC(=O)N1CCNCC1 (cis-trans isomerization)
C=c1/c(=C/c2[n-]c(=O)[n-]c2[O-])c(C)nn1CC(=O)N1CCNCC1 (3D coordinates assigned)
C=c1/c(=C/c2[n-]c(=O)[n-]c2[O-])c(C)nn1CC(=O)N1CCNCC1 (nonaromatic ring conformer: 119.07087176669705 kcal/mol)

>  <smiles>  (1744) 
C=c1c(=Cc2[nH]c(=O)[nH]c2O)c(C)nn1CC(=O)N1CCNCC1

>  <score_type>  (1744) 
oracle

>  <origin>  (1744) 
adg

>  <m_score__min__energy>  (1744) 
-15.93

>  <m_primary>  (1744) 
energy

$$$$
7:0
     RDKit          3D

 32 35  0  0  0  0  0  0  0  0999 V2000
   57.7440   26.6200   44.2480 C   0  0  0  0  0  0  0  0  0  0  0  0
   58.1300   27.2010   45.3960 C   0  0  0  0  0  0  0  0  0  0  0  0
   58.0050   26.6820   46.6970 C   0  0  0  0  0  0  0  0  0  0  0  0
   57.3780   25.5830   47.1620 C   0  0  0  0  0  0  0  0  0  0  0  0
   56.2220   24.9120   46.5380 C   0  0  0  0  0  0  0  0  0  0  0  0
   55.1540   25.6450   45.9920 C   0  0  0  0  0  0  0  0  0  0  0  0
   55.1710   27.0350   45.9960 O   0  0  0  0  0  0  0  0  0  0  0  0
   54.0920   24.9940   45.4540 N   0  0  0  0  0  0  0  0  0  0  0  0
   54.0240   23.6370   45.4580 C   0  0  0  0  0  0  0  0  0  0  0  0
   53.0330   23.0560   44.9470 O   0  0  0  0  0  0  0  0  0  0  0  0
   55.0220   22.9100   46.0210 N   0  0  0  0  0  0  0  0  0  0  0  0
   56.1080   23.5140   46.5680 C   0  0  0  0  0  0  0  0  0  0  0  0
   57.0120   22.8070   47.0920 O   0  0  0  0  0  0  0  0  0  0  0  0
   58.6780   27.5600   47.5290 C   0  0  0  0  0  0  0  0  0  0  0  0
   59.1480   28.5860   46.7380 C   0  0  0  0  0  0  0  0  0  0  0  0
   59.9180   29.7650   47.2530 C   0  0  0  0  0  0  0  0  0  0  0  0
   58.8100   28.3800   45.4440 N   0  0  0  0  0  0  0  0  0  0  0  0
   59.1960   29.2320   44.3070 C   0  0  0  0  0  0  0  0  0  0  0  0
   58.4750   30.5460   44.3580 C   0  0  0  0  0  0  0  0  0  0  0  0
   58.4600   31.2840   43.3350 O   0  0  0  0  0  0  0  0  0  0  0  0
   57.8070   30.9630   45.5570 N   0  0  0  0  0  0  0  0  0  0  0  0
   57.5960   32.3740   45.8670 C   0  0  0  0  0  0  0  0  0  0  0  0
   58.6840   32.8570   46.7860 C   0  0  0  0  0  0  0  0  0  0  0  0
   58.4090   33.1080   48.1390 C   0  0  0  0  0  0  0  0  0  0  0  0
   59.4040   33.4880   48.9840 N   0  0  0  0  0  0  0  0  0  0  0  0
   60.6890   33.6220   48.5620 C   0  0  0  0  0  0  0  0  0  0  0  0
   61.6880   34.0120   49.4610 C   0  0  0  0  0  0  0  0  0  0  0  0
   63.0150   34.1180   49.0310 C   0  0  0  0  0  0  0  0  0  0  0  0
   63.3460   33.8430   47.7000 C   0  0  0  0  0  0  0  0  0  0  0  0
   62.3530   33.4660   46.7900 C   0  0  0  0  0  0  0  0  0  0  0  0
   61.0210   33.3560   47.2150 C   0  0  0  0  0  0  0  0  0  0  0  0
   60.0040   32.9760   46.3290 C   0  0  0  0  0  0  0  0  0  0  0  0
  1  2  2  0
  2  3  1  0
  3  4  2  3
  4  5  1  0
  5  6  2  0
  6  7  1  0
  6  8  1  0
  8  9  1  0
  9 10  2  0
  9 11  1  0
 11 12  1  0
 12 13  2  0
  3 14  1  0
 14 15  2  0
 15 16  1  0
 15 17  1  0
 17 18  1  0
 18 19  1  0
 19 20  2  0
 19 21  1  0
 21 22  1  0
 22 23  1  0
 23 24  2  0
 24 25  1  0
 25 26  2  0
 26 27  1  0
 27 28  2  0
 28 29  1  0
 29 30  2  0
 30 31  1  0
 31 32  2  0
 17  2  1  0
 32 23  1  0
 12  5  1  0
 31 26  1  0
M  CHG  3   7  -1   8  -1  11  -1
M  END
>  <UniqueID>  (1745) 
8

>  <SMILES>  (1745) 
C=c1c(=Cc2c([O-])[n-]c(=O)[n-]c2=O)cc(C)n1CC(=O)NCc1cnc2ccccc2c1

>  <Energy>  (1745) 
91.08385427078456

>  <Genealogy>  (1745) 
C=c1c(=Cc2c([O-])[n-]c(=O)[n-]c2=O)cc(C)n1CC(=O)NCc1cnc2ccccc2c1 (protonated)
C=c1c(=Cc2c([O-])[n-]c(=O)[n-]c2=O)cc(C)n1CC(=O)NCc1cnc2ccccc2c1 (3D coordinates assigned)
C=c1c(=Cc2c([O-])[n-]c(=O)[n-]c2=O)cc(C)n1CC(=O)NCc1cnc2ccccc2c1 (optimized conformer: 91.08385427078456 kcal/mol)

>  <smiles>  (1745) 
C=c1c(=Cc2c(O)[nH]c(=O)[nH]c2=O)cc(C)n1CC(=O)NCc1cnc2ccccc2c1

>  <score_type>  (1745) 
oracle

>  <origin>  (1745) 
adg

>  <m_score__min__energy>  (1745) 
-16.449999999999999

>  <m_primary>  (1745) 
energy

$$$$
15:0
     RDKit          3D

 26 28  0  0  0  0  0  0  0  0999 V2000
   58.5730   30.4310   47.4550 C   0  0  0  0  0  0  0  0  0  0  0  0
   58.3120   31.2240   46.4030 C   0  0  0  0  0  0  0  0  0  0  0  0
   57.9780   30.8090   45.1010 C   0  0  0  0  0  0  0  0  0  0  0  0
   57.9840   29.5890   44.5280 C   0  0  0  0  0  0  0  0  0  0  0  0
   57.4270   28.3560   45.1180 C   0  0  0  0  0  0  0  0  0  0  0  0
   56.0400   28.1750   45.2560 C   0  0  0  0  0  0  0  0  0  0  0  0
   55.1490   29.1410   44.8020 O   0  0  0  0  0  0  0  0  0  0  0  0
   55.5600   27.0480   45.8420 N   0  0  0  0  0  0  0  0  0  0  0  0
   56.3990   26.0930   46.3190 C   0  0  0  0  0  0  0  0  0  0  0  0
   55.9310   25.0550   46.8540 O   0  0  0  0  0  0  0  0  0  0  0  0
   57.7430   26.2600   46.2230 N   0  0  0  0  0  0  0  0  0  0  0  0
   58.2740   27.3680   45.6440 C   0  0  0  0  0  0  0  0  0  0  0  0
   59.5260   27.4930   45.5790 O   0  0  0  0  0  0  0  0  0  0  0  0
   57.6410   31.9540   44.4030 C   0  0  0  0  0  0  0  0  0  0  0  0
   57.8230   33.0170   45.2610 C   0  0  0  0  0  0  0  0  0  0  0  0
   57.6420   34.4530   44.8710 C   0  0  0  0  0  0  0  0  0  0  0  0
   58.2350   32.5830   46.4760 N   0  0  0  0  0  0  0  0  0  0  0  0
   58.5790   33.4570   47.6130 C   0  0  0  0  0  0  0  0  0  0  0  0
   60.0720   33.4990   47.8120 C   0  0  0  0  0  0  0  0  0  0  0  0
   60.9400   33.2080   46.7480 C   0  0  0  0  0  0  0  0  0  0  0  0
   62.3260   33.2330   46.9370 C   0  0  0  0  0  0  0  0  0  0  0  0
   62.8640   33.5520   48.1970 C   0  0  0  0  0  0  0  0  0  0  0  0
   64.2460   33.5880   48.4380 O   0  0  0  0  0  0  0  0  0  0  0  0
   64.9160   32.7760   49.3970 C   0  0  0  0  0  0  0  0  0  0  0  0
   61.9970   33.8450   49.2550 C   0  0  0  0  0  0  0  0  0  0  0  0
   60.6130   33.8200   49.0670 C   0  0  0  0  0  0  0  0  0  0  0  0
  1  2  2  0
  2  3  1  0
  3  4  2  3
  4  5  1  0
  5  6  2  0
  6  7  1  0
  6  8  1  0
  8  9  1  0
  9 10  2  0
  9 11  1  0
 11 12  1  0
 12 13  2  0
  3 14  1  0
 14 15  2  0
 15 16  1  0
 15 17  1  0
 17 18  1  0
 18 19  1  0
 19 20  2  0
 20 21  1  0
 21 22  2  0
 22 23  1  0
 23 24  1  0
 22 25  1  0
 25 26  2  0
 17  2  1  0
 26 19  1  0
 12  5  1  0
M  CHG  3   7  -1   8  -1  11  -1
M  END
>  <UniqueID>  (1746) 
14

>  <SMILES>  (1746) 
C=c1c(=Cc2c([O-])[n-]c(=O)[n-]c2=O)cc(C)n1Cc1ccc(OC)cc1

>  <Energy>  (1746) 
86.51804068067611

>  <Genealogy>  (1746) 
C=c1c(=Cc2c([O-])[n-]c(=O)[n-]c2=O)cc(C)n1Cc1ccc(OC)cc1 (protonated)
C=c1c(=Cc2c([O-])[n-]c(=O)[n-]c2=O)cc(C)n1Cc1ccc(OC)cc1 (3D coordinates assigned)
C=c1c(=Cc2c([O-])[n-]c(=O)[n-]c2=O)cc(C)n1Cc1ccc(OC)cc1 (optimized conformer: 86.51804068067611 kcal/mol)

>  <smiles>  (1746) 
C=c1c(=Cc2c(O)[nH]c(=O)[nH]c2=O)cc(C)n1Cc1ccc(OC)cc1

>  <score_type>  (1746) 
oracle

>  <origin>  (1746) 
adg

>  <m_score__min__energy>  (1746) 
-15.550000000000001

>  <m_primary>  (1746) 
energy

$$$$
19:0
     RDKit          3D

 37 41  0  0  0  0  0  0  0  0999 V2000
   57.6260   26.2090   47.0540 C   0  0  0  0  0  0  0  0  0  0  0  0
   57.5720   25.8700   45.7570 C   0  0  0  0  0  0  0  0  0  0  0  0
   57.4440   24.5790   45.2130 C   0  0  0  0  0  0  0  0  0  0  0  0
   57.1760   23.3920   45.7930 C   0  0  0  0  0  0  0  0  0  0  0  0
   55.9980   23.0810   46.6280 C   0  0  0  0  0  0  0  0  0  0  0  0
   56.1310   22.5260   47.9130 C   0  0  0  0  0  0  0  0  0  0  0  0
   57.3850   22.2190   48.4250 O   0  0  0  0  0  0  0  0  0  0  0  0
   55.0260   22.2870   48.6660 N   0  0  0  0  0  0  0  0  0  0  0  0
   53.7850   22.5970   48.2110 C   0  0  0  0  0  0  0  0  0  0  0  0
   52.7760   22.3600   48.9230 O   0  0  0  0  0  0  0  0  0  0  0  0
   53.6340   23.1690   46.9880 N   0  0  0  0  0  0  0  0  0  0  0  0
   54.7070   23.4270   46.1970 C   0  0  0  0  0  0  0  0  0  0  0  0
   54.5300   23.9690   45.0740 O   0  0  0  0  0  0  0  0  0  0  0  0
   57.6410   24.7130   43.8480 C   0  0  0  0  0  0  0  0  0  0  0  0
   57.8170   26.0580   43.5980 C   0  0  0  0  0  0  0  0  0  0  0  0
   58.0600   26.6500   42.2430 C   0  0  0  0  0  0  0  0  0  0  0  0
   57.7750   26.7590   44.7520 N   0  0  0  0  0  0  0  0  0  0  0  0
   57.9500   28.1820   44.8690 C   0  0  0  0  0  0  0  0  0  0  0  0
   59.1670   28.7050   45.3290 C   0  0  0  0  0  0  0  0  0  0  0  0
   59.3300   30.0860   45.4770 C   0  0  0  0  0  0  0  0  0  0  0  0
   58.2820   30.9620   45.1470 C   0  0  0  0  0  0  0  0  0  0  0  0
   58.4440   32.4250   45.2890 C   0  0  0  0  0  0  0  0  0  0  0  0
   58.6520   33.1130   44.2510 O   0  0  0  0  0  0  0  0  0  0  0  0
   58.4120   33.0710   46.5820 N   0  0  0  0  0  0  0  0  0  0  0  0
   58.8740   32.3420   47.7760 C   0  0  0  0  0  0  0  0  0  0  0  0
   59.3370   33.2880   48.9010 C   0  0  0  0  0  0  0  0  0  0  0  0
   60.0820   34.5730   48.4170 C   0  0  0  0  0  0  0  0  0  0  0  0
   61.5610   34.4240   48.3230 N   0  0  0  0  0  0  0  0  0  0  0  0
   62.0860   33.8350   47.0650 C   0  0  0  0  0  0  0  0  0  0  0  0
   62.6390   32.4150   47.2610 C   0  0  0  0  0  0  0  0  0  0  0  0
   63.7680   32.3900   48.3070 C   0  0  0  0  0  0  0  0  0  0  0  0
   63.6410   33.5110   49.3560 C   0  0  0  0  0  0  0  0  0  0  0  0
   62.1760   33.9090   49.5700 C   0  0  0  0  0  0  0  0  0  0  0  0
   59.5040   35.1890   47.1100 C   0  0  0  0  0  0  0  0  0  0  0  0
   58.1990   34.5200   46.6790 C   0  0  0  0  0  0  0  0  0  0  0  0
   57.0580   30.4320   44.7050 C   0  0  0  0  0  0  0  0  0  0  0  0
   56.8950   29.0520   44.5640 C   0  0  0  0  0  0  0  0  0  0  0  0
  1  2  2  0
  2  3  1  0
  3  4  2  3
  4  5  1  0
  5  6  2  0
  6  7  1  0
  6  8  1  0
  8  9  1  0
  9 10  2  0
  9 11  1  0
 11 12  1  0
 12 13  2  0
  3 14  1  0
 14 15  2  0
 15 16  1  0
 15 17  1  0
 17 18  1  0
 18 19  2  0
 19 20  1  0
 20 21  2  0
 21 22  1  0
 22 23  2  0
 22 24  1  0
 24 25  1  0
 25 26  1  0
 26 27  1  0
 27 28  1  0
 28 29  1  0
 29 30  1  0
 30 31  1  0
 31 32  1  0
 32 33  1  0
 27 34  1  0
 34 35  1  0
 21 36  1  0
 36 37  2  0
 17  2  1  0
 37 18  1  0
 12  5  1  0
 35 24  1  0
 33 28  1  0
M  CHG  3   7  -1   8  -1  11  -1
M  END
>  <UniqueID>  (1747) 
17

>  <SMILES>  (1747) 
C=c1c(=Cc2c([O-])[n-]c(=O)[n-]c2=O)cc(C)n1-c1ccc(C(=O)N2CCC(N3CCCCC3)CC2)cc1

>  <Energy>  (1747) 
141.93426026894934

>  <Genealogy>  (1747) 
C=c1c(=Cc2c([O-])[n-]c(=O)[n-]c2=O)cc(C)n1-c1ccc(C(=O)N2CCC(N3CCCCC3)CC2)cc1 (protonated)
C=c1c(=Cc2c([O-])[n-]c(=O)[n-]c2=O)cc(C)n1-c1ccc(C(=O)N2CCC(N3CCCCC3)CC2)cc1 (3D coordinates assigned)
C=c1c(=Cc2c([O-])[n-]c(=O)[n-]c2=O)cc(C)n1-c1ccc(C(=O)N2CCC(N3CCCCC3)CC2)cc1 (nonaromatic ring conformer: 141.93426026894934 kcal/mol)

>  <smiles>  (1747) 
C=c1c(=Cc2c(O)[nH]c(=O)[nH]c2=O)cc(C)n1-c1ccc(C(=O)N2CCC(N3CCCCC3)CC2)cc1

>  <score_type>  (1747) 
oracle

>  <origin>  (1747) 
adg

>  <m_score__min__energy>  (1747) 
-16.649999999999999

>  <m_primary>  (1747) 
energy

$$$$
26:0
     RDKit          3D

 23 24  0  0  0  0  0  0  0  0999 V2000
   59.0340   30.4530   47.2320 C   0  0  0  0  0  0  0  0  0  0  0  0
   58.4870   31.1780   46.2410 C   0  0  0  0  0  0  0  0  0  0  0  0
   57.9750   30.6990   45.0220 C   0  0  0  0  0  0  0  0  0  0  0  0
   57.9990   29.4710   44.4670 C   0  0  0  0  0  0  0  0  0  0  0  0
   57.4180   28.2490   45.0530 C   0  0  0  0  0  0  0  0  0  0  0  0
   56.0320   28.1220   45.2450 C   0  0  0  0  0  0  0  0  0  0  0  0
   55.1660   29.1370   44.8540 O   0  0  0  0  0  0  0  0  0  0  0  0
   55.5280   27.0030   45.8250 N   0  0  0  0  0  0  0  0  0  0  0  0
   56.3440   26.0010   46.2420 C   0  0  0  0  0  0  0  0  0  0  0  0
   55.8550   24.9720   46.7720 O   0  0  0  0  0  0  0  0  0  0  0  0
   57.6890   26.1130   46.0910 N   0  0  0  0  0  0  0  0  0  0  0  0
   58.2420   27.2120   45.5160 C   0  0  0  0  0  0  0  0  0  0  0  0
   59.4950   27.2860   45.3990 O   0  0  0  0  0  0  0  0  0  0  0  0
   57.3920   31.7860   44.3950 C   0  0  0  0  0  0  0  0  0  0  0  0
   57.6030   32.8800   45.2050 C   0  0  0  0  0  0  0  0  0  0  0  0
   57.1220   34.2660   44.8930 C   0  0  0  0  0  0  0  0  0  0  0  0
   58.2660   32.5180   46.3290 N   0  0  0  0  0  0  0  0  0  0  0  0
   58.6710   33.4230   47.4170 C   0  0  0  0  0  0  0  0  0  0  0  0
   59.9100   34.2360   47.0290 C   0  0  0  0  0  0  0  0  0  0  0  0
   61.0720   33.8120   47.8070 N   0  0  0  0  0  0  0  0  0  0  0  0
   62.3790   33.6680   47.2350 C   0  0  0  0  0  0  0  0  0  0  0  0
   62.5500   33.7840   45.9920 O   0  0  0  0  0  0  0  0  0  0  0  0
   63.5580   33.4290   48.1210 C   0  0  0  0  0  0  0  0  0  0  0  0
  1  2  2  0
  2  3  1  0
  3  4  2  0
  4  5  1  0
  5  6  2  0
  6  7  1  0
  6  8  1  0
  8  9  1  0
  9 10  2  0
  9 11  1  0
 11 12  1  0
 12 13  2  0
  3 14  1  0
 14 15  2  0
 15 16  1  0
 15 17  1  0
 17 18  1  0
 18 19  1  0
 19 20  1  0
 20 21  1  0
 21 22  2  0
 21 23  1  0
 17  2  1  0
 12  5  1  0
M  CHG  3   7  -1   8  -1  11  -1
M  END
>  <UniqueID>  (1748) 
24

>  <SMILES>  (1748) 
C=c1/c(=C\c2c([O-])[n-]c(=O)[n-]c2=O)cc(C)n1CCNC(C)=O

>  <Energy>  (1748) 
73.68103632235861

>  <Genealogy>  (1748) 
C=c1c(=Cc2c([O-])[n-]c(=O)[n-]c2=O)cc(C)n1CCNC(C)=O (protonated)
C=c1/c(=C\c2c([O-])[n-]c(=O)[n-]c2=O)cc(C)n1CCNC(C)=O (cis-trans isomerization)
C=c1/c(=C\c2c([O-])[n-]c(=O)[n-]c2=O)cc(C)n1CCNC(C)=O (3D coordinates assigned)
C=c1/c(=C\c2c([O-])[n-]c(=O)[n-]c2=O)cc(C)n1CCNC(C)=O (optimized conformer: 73.68103632235861 kcal/mol)

>  <smiles>  (1748) 
C=c1c(=Cc2c(O)[nH]c(=O)[nH]c2=O)cc(C)n1CCNC(C)=O

>  <score_type>  (1748) 
oracle

>  <origin>  (1748) 
adg

>  <m_score__min__energy>  (1748) 
-14.67

>  <m_primary>  (1748) 
energy

$$$$
28:0
     RDKit          3D

 25 27  0  0  0  0  0  0  0  0999 V2000
   53.5950   30.2700   54.7170 O   0  0  0  0  0  0  0  0  0  0  0  0
   53.2270   30.4840   53.5690 C   0  0  0  0  0  0  0  0  0  0  0  0
   51.7910   30.8560   53.3200 C   0  0  0  0  0  0  0  0  0  0  0  0
   51.5820   31.1380   51.8650 C   0  0  0  0  0  0  0  0  0  0  0  0
   51.7690   30.2350   50.8860 N   0  0  0  0  0  0  0  0  0  0  0  0
   51.3920   30.9020   49.7740 C   0  0  0  0  0  0  0  0  0  0  0  0
   51.4280   30.3830   48.6280 O   0  0  0  0  0  0  0  0  0  0  0  0
   50.9660   32.1660   49.9850 N   0  0  0  0  0  0  0  0  0  0  0  0
   51.0870   32.2960   51.3170 C   0  0  0  0  0  0  0  0  0  0  0  0
   50.7450   33.4460   52.0150 O   0  0  0  0  0  0  0  0  0  0  0  0
   54.1520   30.3280   52.4620 N   0  0  0  0  0  0  0  0  0  0  0  0
   54.9920   31.5430   52.3230 C   0  0  0  0  0  0  0  0  0  0  0  0
   56.2900   31.2280   51.5740 C   0  0  0  0  0  0  0  0  0  0  0  0
   57.1340   30.2690   52.3300 N   0  0  0  0  0  0  0  0  0  0  0  0
   58.0700   29.5500   51.4380 C   0  0  0  0  0  0  0  0  0  0  0  0
   58.7860   30.5150   50.5160 C   0  0  0  0  0  0  0  0  0  0  0  0
   58.9350   30.1740   49.1570 C   0  0  0  0  0  0  0  0  0  0  0  0
   58.4300   29.0070   48.6800 F   0  0  0  0  0  0  0  0  0  0  0  0
   59.6090   31.0290   48.2810 C   0  0  0  0  0  0  0  0  0  0  0  0
   60.1430   32.2300   48.7470 C   0  0  0  0  0  0  0  0  0  0  0  0
   60.0090   32.5800   50.0910 C   0  0  0  0  0  0  0  0  0  0  0  0
   59.3370   31.7330   50.9820 C   0  0  0  0  0  0  0  0  0  0  0  0
   59.2140   32.2430   52.6630 Cl  0  0  0  0  0  0  0  0  0  0  0  0
   56.3480   29.3280   53.1700 C   0  0  0  0  0  0  0  0  0  0  0  0
   54.9400   29.0730   52.6030 C   0  0  0  0  0  0  0  0  0  0  0  0
  1  2  2  0
  2  3  1  0
  3  4  1  0
  4  5  1  0
  5  6  1  0
  6  7  2  0
  6  8  1  0
  8  9  1  0
  9 10  1  0
  2 11  1  0
 11 12  1  0
 12 13  1  0
 13 14  1  0
 14 15  1  0
 15 16  1  0
 16 17  2  0
 17 18  1  0
 17 19  1  0
 19 20  2  0
 20 21  1  0
 21 22  2  0
 22 23  1  0
 14 24  1  0
 24 25  1  0
  9  4  2  0
 25 11  1  0
 22 16  1  0
M  CHG  4   5  -1   8  -1  10  -1  11   1
M  END
>  <UniqueID>  (1749) 
26

>  <SMILES>  (1749) 
O=C(Cc1[n-]c(=O)[n-]c1[O-])[NH+]1CCN(Cc2c(F)cccc2Cl)CC1

>  <Energy>  (1749) 
84.7204855278722

>  <Genealogy>  (1749) 
O=C(Cc1[n-]c(=O)[n-]c1[O-])[NH+]1CCN(Cc2c(F)cccc2Cl)CC1 (protonated)
O=C(Cc1[n-]c(=O)[n-]c1[O-])[NH+]1CCN(Cc2c(F)cccc2Cl)CC1 (3D coordinates assigned)
O=C(Cc1[n-]c(=O)[n-]c1[O-])[NH+]1CCN(Cc2c(F)cccc2Cl)CC1 (nonaromatic ring conformer: 84.7204855278722 kcal/mol)

>  <smiles>  (1749) 
O=C(Cc1[nH]c(=O)[nH]c1O)N1CCN(Cc2c(F)cccc2Cl)CC1

>  <score_type>  (1749) 
oracle

>  <origin>  (1749) 
adg

>  <m_score__min__energy>  (1749) 
-14.42

>  <m_primary>  (1749) 
energy

$$$$
33:0
     RDKit          3D

 30 32  0  0  0  0  0  0  0  0999 V2000
   57.1300   31.3580   51.1280 O   0  0  0  0  0  0  0  0  0  0  0  0
   57.4910   30.2070   51.4890 C   0  0  0  0  0  0  0  0  0  0  0  0
   56.6190   29.4390   52.4440 C   0  0  0  0  0  0  0  0  0  0  0  0
   55.2230   29.5150   52.0180 N   0  0  0  0  0  0  0  0  0  0  0  0
   54.5000   30.7540   51.9460 C   0  0  0  0  0  0  0  0  0  0  0  0
   55.0120   31.8180   52.3890 O   0  0  0  0  0  0  0  0  0  0  0  0
   53.1210   30.7850   51.3620 C   0  0  0  0  0  0  0  0  0  0  0  0
   52.1210   31.2880   52.3740 C   0  0  0  0  0  0  0  0  0  0  0  0
   52.1710   30.8200   53.6990 C   0  0  0  0  0  0  0  0  0  0  0  0
   51.2640   31.2960   54.6520 C   0  0  0  0  0  0  0  0  0  0  0  0
   50.2890   32.2280   54.2890 C   0  0  0  0  0  0  0  0  0  0  0  0
   50.2190   32.6880   52.9700 C   0  0  0  0  0  0  0  0  0  0  0  0
   51.1300   32.2250   52.0120 C   0  0  0  0  0  0  0  0  0  0  0  0
   51.0470   32.7070   50.7090 O   0  0  0  0  0  0  0  0  0  0  0  0
   58.7540   29.7050   51.0310 N   0  0  0  0  0  0  0  0  0  0  0  0
   59.3680   29.9470   49.7580 C   0  0  0  0  0  0  0  0  0  0  0  0
   58.8510   29.3020   48.6280 C   0  0  0  0  0  0  0  0  0  0  0  0
   59.4300   29.5070   47.3730 C   0  0  0  0  0  0  0  0  0  0  0  0
   60.5420   30.3410   47.2410 C   0  0  0  0  0  0  0  0  0  0  0  0
   61.0920   30.9620   48.3710 C   0  0  0  0  0  0  0  0  0  0  0  0
   62.4900   32.0240   48.2090 S   0  0  0  0  0  0  0  0  0  0  0  0
   63.3550   31.5410   47.0780 O   0  0  0  0  0  0  0  0  0  0  0  0
   63.2900   31.9470   49.4790 O   0  0  0  0  0  0  0  0  0  0  0  0
   61.9830   33.6810   47.9470 N   0  0  0  0  0  0  0  0  0  0  0  0
   61.1700   34.2170   49.0540 C   0  0  0  0  0  0  0  0  0  0  0  0
   59.7020   33.7820   48.9510 C   0  0  0  0  0  0  0  0  0  0  0  0
   59.1600   34.1730   47.7080 O   0  0  0  0  0  0  0  0  0  0  0  0
   59.8320   33.4940   46.6670 C   0  0  0  0  0  0  0  0  0  0  0  0
   61.3260   33.8600   46.6380 C   0  0  0  0  0  0  0  0  0  0  0  0
   60.5090   30.7570   49.6300 C   0  0  0  0  0  0  0  0  0  0  0  0
  1  2  2  0
  2  3  1  0
  3  4  1  0
  4  5  1  0
  5  6  2  0
  5  7  1  0
  7  8  1  0
  8  9  2  0
  9 10  1  0
 10 11  2  0
 11 12  1  0
 12 13  2  0
 13 14  1  0
  2 15  1  0
 15 16  1  0
 16 17  2  0
 17 18  1  0
 18 19  2  0
 19 20  1  0
 20 21  1  0
 21 22  2  0
 21 23  2  0
 21 24  1  0
 24 25  1  0
 25 26  1  0
 26 27  1  0
 27 28  1  0
 28 29  1  0
 20 30  2  0
 13  8  1  0
 30 16  1  0
 29 24  1  0
M  CHG  2  14  -1  15  -1
M  END
>  <UniqueID>  (1750) 
31

>  <SMILES>  (1750) 
O=C(CNC(=O)Cc1ccccc1[O-])[N-]c1cccc(S(=O)(=O)N2CCOCC2)c1

>  <Energy>  (1750) 
53.51031543696923

>  <Genealogy>  (1750) 
O=C(CNC(=O)Cc1ccccc1[O-])[N-]c1cccc(S(=O)(=O)N2CCOCC2)c1 (protonated)
O=C(CNC(=O)Cc1ccccc1[O-])[N-]c1cccc(S(=O)(=O)N2CCOCC2)c1 (3D coordinates assigned)
O=C(CNC(=O)Cc1ccccc1[O-])[N-]c1cccc(S(=O)(=O)N2CCOCC2)c1 (nonaromatic ring conformer: 53.51031543696923 kcal/mol)

>  <smiles>  (1750) 
O=C(Cc1ccccc1O)NCC(=O)Nc1cccc(S(=O)(=O)N2CCOCC2)c1

>  <score_type>  (1750) 
oracle

>  <origin>  (1750) 
adg

>  <m_score__min__energy>  (1750) 
-14.779999999999999

>  <m_primary>  (1750) 
energy

$$$$
42:0
     RDKit          3D

 28 30  0  0  0  0  0  0  0  0999 V2000
   57.3900   27.0690   44.3540 O   0  0  0  0  0  0  0  0  0  0  0  0
   57.7510   28.3710   44.6910 C   0  0  0  0  0  0  0  0  0  0  0  0
   56.8540   29.3750   44.5260 N   0  0  0  0  0  0  0  0  0  0  0  0
   57.1550   30.6580   44.8460 C   0  0  0  0  0  0  0  0  0  0  0  0
   56.2860   31.5530   44.6590 O   0  0  0  0  0  0  0  0  0  0  0  0
   58.3870   30.9720   45.3560 N   0  0  0  0  0  0  0  0  0  0  0  0
   58.6980   32.3380   45.7040 C   0  0  0  0  0  0  0  0  0  0  0  0
   58.9890   32.6830   47.0350 C   0  0  0  0  0  0  0  0  0  0  0  0
   59.2960   34.0050   47.3680 C   0  0  0  0  0  0  0  0  0  0  0  0
   59.3140   34.9920   46.3790 C   0  0  0  0  0  0  0  0  0  0  0  0
   59.6160   36.2730   46.7050 F   0  0  0  0  0  0  0  0  0  0  0  0
   59.0230   34.6560   45.0540 C   0  0  0  0  0  0  0  0  0  0  0  0
   58.7160   33.3340   44.7160 C   0  0  0  0  0  0  0  0  0  0  0  0
   59.3220   29.9850   45.5400 C   0  0  0  0  0  0  0  0  0  0  0  0
   60.4530   30.2660   46.0310 O   0  0  0  0  0  0  0  0  0  0  0  0
   59.0270   28.6520   45.1990 C   0  0  0  0  0  0  0  0  0  0  0  0
   60.0330   27.5440   45.4350 C   0  0  0  0  0  0  0  0  0  0  0  0
   59.5560   26.5580   46.5090 C   0  0  0  0  0  0  0  0  0  0  0  0
   58.4140   27.1170   47.3020 C   0  0  0  0  0  0  0  0  0  0  0  0
   58.6390   27.9990   48.1750 O   0  0  0  0  0  0  0  0  0  0  0  0
   57.0800   26.6610   47.0260 N   0  0  0  0  0  0  0  0  0  0  0  0
   56.7200   25.4550   46.6910 C   0  0  0  0  0  0  0  0  0  0  0  0
   57.5000   24.3760   46.9870 N   0  0  0  0  0  0  0  0  0  0  0  0
   57.1350   23.1080   46.6560 C   0  0  0  0  0  0  0  0  0  0  0  0
   55.9280   22.8800   45.9940 C   0  0  0  0  0  0  0  0  0  0  0  0
   55.1080   23.9640   45.6770 C   0  0  0  0  0  0  0  0  0  0  0  0
   55.5000   25.2590   46.0260 C   0  0  0  0  0  0  0  0  0  0  0  0
   54.6780   26.3370   45.7140 O   0  0  0  0  0  0  0  0  0  0  0  0
  1  2  1  0
  2  3  1  0
  3  4  1  0
  4  5  2  0
  4  6  1  0
  6  7  1  0
  7  8  2  0
  8  9  1  0
  9 10  2  0
 10 11  1  0
 10 12  1  0
 12 13  2  0
  6 14  1  0
 14 15  2  0
 14 16  1  0
 16 17  1  0
 17 18  1  0
 18 19  1  0
 19 20  2  0
 19 21  1  0
 21 22  2  0
 22 23  1  0
 23 24  1  0
 24 25  2  0
 25 26  1  0
 26 27  2  0
 27 28  1  0
 16  2  2  0
 27 22  1  0
 13  7  1  0
M  CHG  3   3  -1  23  -1  28  -1
M  END
>  <UniqueID>  (1751) 
40

>  <SMILES>  (1751) 
O=C(CCc1c(O)[n-]c(=O)n(-c2ccc(F)cc2)c1=O)/N=c1\[n-]cccc1[O-]

>  <Energy>  (1751) 
54.333256429713394

>  <Genealogy>  (1751) 
O=C(CCc1c(O)[n-]c(=O)n(-c2ccc(F)cc2)c1=O)N=c1[n-]cccc1[O-] (protonated)
O=C(CCc1c(O)[n-]c(=O)n(-c2ccc(F)cc2)c1=O)/N=c1\[n-]cccc1[O-] (cis-trans isomerization)
O=C(CCc1c(O)[n-]c(=O)n(-c2ccc(F)cc2)c1=O)/N=c1\[n-]cccc1[O-] (3D coordinates assigned)
O=C(CCc1c(O)[n-]c(=O)n(-c2ccc(F)cc2)c1=O)/N=c1\[n-]cccc1[O-] (optimized conformer: 54.333256429713394 kcal/mol)

>  <smiles>  (1751) 
O=C(CCc1c(O)[nH]c(=O)n(-c2ccc(F)cc2)c1=O)N=c1[nH]cccc1O

>  <score_type>  (1751) 
oracle

>  <origin>  (1751) 
adg

>  <m_score__min__energy>  (1751) 
-14.289999999999999

>  <m_primary>  (1751) 
energy

$$$$
45:0
     RDKit          3D

 30 33  0  0  0  0  0  0  0  0999 V2000
   54.3500   28.2000   52.9870 C   0  0  0  0  0  0  0  0  0  0  0  0
   54.7660   29.4720   52.8790 C   0  0  0  0  0  0  0  0  0  0  0  0
   54.0930   30.5220   52.2330 C   0  0  0  0  0  0  0  0  0  0  0  0
   52.8340   30.6090   51.7600 C   0  0  0  0  0  0  0  0  0  0  0  0
   51.7720   31.4750   52.2990 C   0  0  0  0  0  0  0  0  0  0  0  0
   51.5260   31.6610   53.6090 N   0  0  0  0  0  0  0  0  0  0  0  0
   50.5810   32.6260   53.6140 C   0  0  0  0  0  0  0  0  0  0  0  0
   50.0720   33.0710   54.6740 O   0  0  0  0  0  0  0  0  0  0  0  0
   50.2330   33.0850   52.3920 N   0  0  0  0  0  0  0  0  0  0  0  0
   51.0090   32.3560   51.5730 C   0  0  0  0  0  0  0  0  0  0  0  0
   51.0210   32.4970   50.1910 O   0  0  0  0  0  0  0  0  0  0  0  0
   54.9900   31.5710   52.1630 C   0  0  0  0  0  0  0  0  0  0  0  0
   56.1280   31.1700   52.8280 C   0  0  0  0  0  0  0  0  0  0  0  0
   57.3090   32.0310   53.0170 C   0  0  0  0  0  0  0  0  0  0  0  0
   57.7770   32.1720   54.1790 O   0  0  0  0  0  0  0  0  0  0  0  0
   57.9650   32.6580   51.8980 N   0  0  0  0  0  0  0  0  0  0  0  0
   57.9810   31.9850   50.5900 C   0  0  0  0  0  0  0  0  0  0  0  0
   58.8670   32.7290   49.5830 C   0  0  0  0  0  0  0  0  0  0  0  0
   60.2260   33.0670   50.2080 C   0  0  0  0  0  0  0  0  0  0  0  0
   60.1090   33.8280   51.5490 C   0  0  0  0  0  0  0  0  0  0  0  0
   58.6690   33.9360   52.0710 C   0  0  0  0  0  0  0  0  0  0  0  0
   56.0030   29.8920   53.2620 N   0  0  0  0  0  0  0  0  0  0  0  0
   57.0800   29.0630   53.8360 C   0  0  0  0  0  0  0  0  0  0  0  0
   58.3870   29.3150   53.1270 C   0  0  0  0  0  0  0  0  0  0  0  0
   59.5240   29.7020   53.8560 C   0  0  0  0  0  0  0  0  0  0  0  0
   60.7380   29.9310   53.2020 C   0  0  0  0  0  0  0  0  0  0  0  0
   60.8290   29.7700   51.8170 C   0  0  0  0  0  0  0  0  0  0  0  0
   59.7060   29.3730   51.0840 C   0  0  0  0  0  0  0  0  0  0  0  0
   59.8230   29.1660   49.3460 Cl  0  0  0  0  0  0  0  0  0  0  0  0
   58.4900   29.1410   51.7360 C   0  0  0  0  0  0  0  0  0  0  0  0
  1  2  2  0
  2  3  1  0
  3  4  2  3
  4  5  1  0
  5  6  1  0
  6  7  1  0
  7  8  2  0
  7  9  1  0
  9 10  1  0
 10 11  1  0
  3 12  1  0
 12 13  2  0
 13 14  1  0
 14 15  2  0
 14 16  1  0
 16 17  1  0
 17 18  1  0
 18 19  1  0
 19 20  1  0
 20 21  1  0
 13 22  1  0
 22 23  1  0
 23 24  1  0
 24 25  2  0
 25 26  1  0
 26 27  2  0
 27 28  1  0
 28 29  1  0
 28 30  2  0
 22  2  1  0
 30 24  1  0
 10  5  2  0
 21 16  1  0
M  CHG  3   6  -1   9  -1  11  -1
M  END
>  <UniqueID>  (1752) 
42

>  <SMILES>  (1752) 
C=c1c(=Cc2[n-]c(=O)[n-]c2[O-])cc(C(=O)N2CCCCC2)n1Cc1cccc(Cl)c1

>  <Energy>  (1752) 
128.22221281309197

>  <Genealogy>  (1752) 
C=c1c(=Cc2[n-]c(=O)[n-]c2[O-])cc(C(=O)N2CCCCC2)n1Cc1cccc(Cl)c1 (protonated)
C=c1c(=Cc2[n-]c(=O)[n-]c2[O-])cc(C(=O)N2CCCCC2)n1Cc1cccc(Cl)c1 (3D coordinates assigned)
C=c1c(=Cc2[n-]c(=O)[n-]c2[O-])cc(C(=O)N2CCCCC2)n1Cc1cccc(Cl)c1 (nonaromatic ring conformer: 128.22221281309197 kcal/mol)

>  <smiles>  (1752) 
C=c1c(=Cc2[nH]c(=O)[nH]c2O)cc(C(=O)N2CCCCC2)n1Cc1cccc(Cl)c1

>  <score_type>  (1752) 
oracle

>  <origin>  (1752) 
adg

>  <m_score__min__energy>  (1752) 
-16.73

>  <m_primary>  (1752) 
energy

$$$$
55:0
     RDKit          3D

 30 33  0  0  0  0  0  0  0  0999 V2000
   55.4660   24.2350   46.8010 O   0  0  0  0  0  0  0  0  0  0  0  0
   55.8910   25.3340   46.3590 C   0  0  0  0  0  0  0  0  0  0  0  0
   55.0690   26.3550   46.0390 N   0  0  0  0  0  0  0  0  0  0  0  0
   55.9250   27.2990   45.6140 C   0  0  0  0  0  0  0  0  0  0  0  0
   55.5320   28.5480   45.1520 O   0  0  0  0  0  0  0  0  0  0  0  0
   57.2160   26.8400   45.6940 C   0  0  0  0  0  0  0  0  0  0  0  0
   58.4540   27.5560   45.2400 C   0  0  0  0  0  0  0  0  0  0  0  0
   58.6390   28.8620   45.9750 C   0  0  0  0  0  0  0  0  0  0  0  0
   58.9330   28.8660   47.3480 C   0  0  0  0  0  0  0  0  0  0  0  0
   59.1650   30.0710   48.0150 C   0  0  0  0  0  0  0  0  0  0  0  0
   59.1070   31.2820   47.3210 C   0  0  0  0  0  0  0  0  0  0  0  0
   58.8080   31.3020   45.9500 C   0  0  0  0  0  0  0  0  0  0  0  0
   58.7450   32.5610   45.2580 N   0  0  0  0  0  0  0  0  0  0  0  0
   59.0790   34.0810   46.0260 S   0  0  0  0  0  0  0  0  0  0  0  0
   59.3880   35.1030   44.9690 O   0  0  0  0  0  0  0  0  0  0  0  0
   57.8640   34.5290   46.7900 O   0  0  0  0  0  0  0  0  0  0  0  0
   60.4300   33.9200   47.1450 C   0  0  0  0  0  0  0  0  0  0  0  0
   61.6890   33.5560   46.6660 C   0  0  0  0  0  0  0  0  0  0  0  0
   62.7800   33.4730   47.5360 C   0  0  0  0  0  0  0  0  0  0  0  0
   62.6360   33.7530   48.9170 C   0  0  0  0  0  0  0  0  0  0  0  0
   63.7760   33.6780   49.8290 N   0  0  0  0  0  0  0  0  0  0  0  0
   64.9970   32.9590   49.4040 C   0  0  0  0  0  0  0  0  0  0  0  0
   66.0800   32.8970   50.4850 C   0  0  0  0  0  0  0  0  0  0  0  0
   66.1380   34.1000   51.2130 O   0  0  0  0  0  0  0  0  0  0  0  0
   64.9650   34.2090   51.9830 C   0  0  0  0  0  0  0  0  0  0  0  0
   63.7450   34.4470   51.0900 C   0  0  0  0  0  0  0  0  0  0  0  0
   61.3490   34.1220   49.3790 C   0  0  0  0  0  0  0  0  0  0  0  0
   60.2640   34.1990   48.5040 C   0  0  0  0  0  0  0  0  0  0  0  0
   58.5970   30.0840   45.2810 C   0  0  0  0  0  0  0  0  0  0  0  0
   57.2040   25.5780   46.1600 N   0  0  0  0  0  0  0  0  0  0  0  0
  1  2  2  0
  2  3  1  0
  3  4  1  0
  4  5  1  0
  4  6  2  0
  6  7  1  0
  7  8  1  0
  8  9  2  0
  9 10  1  0
 10 11  2  0
 11 12  1  0
 12 13  1  0
 13 14  1  0
 14 15  2  0
 14 16  2  0
 14 17  1  0
 17 18  2  0
 18 19  1  0
 19 20  2  0
 20 21  1  0
 21 22  1  0
 22 23  1  0
 23 24  1  0
 24 25  1  0
 25 26  1  0
 20 27  1  0
 27 28  2  0
 12 29  2  0
  6 30  1  0
 30  2  1  0
 29  8  1  0
 28 17  1  0
 26 21  1  0
M  CHG  3   3  -1   5  -1  30  -1
M  END
>  <UniqueID>  (1753) 
52

>  <SMILES>  (1753) 
O=c1[n-]c([O-])c(Cc2cccc(NS(=O)(=O)c3ccc(N4CCOCC4)cc3)c2)[n-]1

>  <Energy>  (1753) 
90.61639734502891

>  <Genealogy>  (1753) 
O=c1[n-]c([O-])c(Cc2cccc(NS(=O)(=O)c3ccc(N4CCOCC4)cc3)c2)[n-]1 (protonated)
O=c1[n-]c([O-])c(Cc2cccc(NS(=O)(=O)c3ccc(N4CCOCC4)cc3)c2)[n-]1 (3D coordinates assigned)
O=c1[n-]c([O-])c(Cc2cccc(NS(=O)(=O)c3ccc(N4CCOCC4)cc3)c2)[n-]1 (nonaromatic ring conformer: 90.61639734502891 kcal/mol)

>  <smiles>  (1753) 
O=c1[nH]c(O)c(Cc2cccc(NS(=O)(=O)c3ccc(N4CCOCC4)cc3)c2)[nH]1

>  <score_type>  (1753) 
oracle

>  <origin>  (1753) 
adg

>  <m_score__min__energy>  (1753) 
-17.170000000000002

>  <m_primary>  (1753) 
energy

$$$$
60:0
     RDKit          3D

 28 31  0  0  0  0  0  0  0  0999 V2000
   53.9830   28.3920   53.8040 C   0  0  0  0  0  0  0  0  0  0  0  0
   54.4130   29.4480   53.0960 C   0  0  0  0  0  0  0  0  0  0  0  0
   53.6450   30.2570   52.2530 C   0  0  0  0  0  0  0  0  0  0  0  0
   52.3210   30.1700   52.0230 C   0  0  0  0  0  0  0  0  0  0  0  0
   51.6550   30.7070   50.8230 C   0  0  0  0  0  0  0  0  0  0  0  0
   51.6220   30.0570   49.6460 N   0  0  0  0  0  0  0  0  0  0  0  0
   51.0010   30.9300   48.8220 C   0  0  0  0  0  0  0  0  0  0  0  0
   50.7680   30.6710   47.6130 O   0  0  0  0  0  0  0  0  0  0  0  0
   50.6610   32.1040   49.3940 N   0  0  0  0  0  0  0  0  0  0  0  0
   51.0920   31.9540   50.6570 C   0  0  0  0  0  0  0  0  0  0  0  0
   51.0140   32.9530   51.6180 O   0  0  0  0  0  0  0  0  0  0  0  0
   54.5100   31.2200   51.7420 C   0  0  0  0  0  0  0  0  0  0  0  0
   55.7570   30.9520   52.2720 C   0  0  0  0  0  0  0  0  0  0  0  0
   56.9780   31.7910   52.0570 C   0  0  0  0  0  0  0  0  0  0  0  0
   55.6980   29.8800   53.0920 N   0  0  0  0  0  0  0  0  0  0  0  0
   56.7910   29.3490   53.8560 C   0  0  0  0  0  0  0  0  0  0  0  0
   57.8190   28.6560   53.2050 C   0  0  0  0  0  0  0  0  0  0  0  0
   58.8890   28.1310   53.9520 C   0  0  0  0  0  0  0  0  0  0  0  0
   59.9680   27.4100   53.3190 N   0  0  0  0  0  0  0  0  0  0  0  0
   61.2930   28.0360   53.2210 C   0  0  0  0  0  0  0  0  0  0  0  0
   62.0630   27.4670   52.0260 C   0  0  0  0  0  0  0  0  0  0  0  0
   62.0750   26.0540   52.0650 O   0  0  0  0  0  0  0  0  0  0  0  0
   60.7600   25.5650   51.8910 C   0  0  0  0  0  0  0  0  0  0  0  0
   59.8680   25.9650   53.0700 C   0  0  0  0  0  0  0  0  0  0  0  0
   58.8970   28.3040   55.3040 N   0  0  0  0  0  0  0  0  0  0  0  0
   57.9130   28.9750   55.9580 C   0  0  0  0  0  0  0  0  0  0  0  0
   56.8400   29.5150   55.2470 C   0  0  0  0  0  0  0  0  0  0  0  0
   55.5870   30.4010   56.1050 Cl  0  0  0  0  0  0  0  0  0  0  0  0
  1  2  2  0
  2  3  1  0
  3  4  2  0
  4  5  1  0
  5  6  1  0
  6  7  1  0
  7  8  2  0
  7  9  1  0
  9 10  1  0
 10 11  1  0
  3 12  1  0
 12 13  2  0
 13 14  1  0
 13 15  1  0
 15 16  1  0
 16 17  2  0
 17 18  1  0
 18 19  1  0
 19 20  1  0
 20 21  1  0
 21 22  1  0
 22 23  1  0
 23 24  1  0
 18 25  2  0
 25 26  1  0
 26 27  2  0
 27 28  1  0
 15  2  1  0
 27 16  1  0
 10  5  2  0
 24 19  1  0
M  CHG  3   6  -1   9  -1  11  -1
M  END
>  <UniqueID>  (1754) 
57

>  <SMILES>  (1754) 
C=c1/c(=C/c2[n-]c(=O)[n-]c2[O-])cc(C)n1-c1cc(N2CCOCC2)ncc1Cl

>  <Energy>  (1754) 
124.31037235788972

>  <Genealogy>  (1754) 
C=c1c(=Cc2[n-]c(=O)[n-]c2[O-])cc(C)n1-c1cc(N2CCOCC2)ncc1Cl (protonated)
C=c1/c(=C/c2[n-]c(=O)[n-]c2[O-])cc(C)n1-c1cc(N2CCOCC2)ncc1Cl (cis-trans isomerization)
C=c1/c(=C/c2[n-]c(=O)[n-]c2[O-])cc(C)n1-c1cc(N2CCOCC2)ncc1Cl (3D coordinates assigned)
C=c1/c(=C/c2[n-]c(=O)[n-]c2[O-])cc(C)n1-c1cc(N2CCOCC2)ncc1Cl (nonaromatic ring conformer: 124.31037235788972 kcal/mol)

>  <smiles>  (1754) 
C=c1c(=Cc2[nH]c(=O)[nH]c2O)cc(C)n1-c1cc(N2CCOCC2)ncc1Cl

>  <score_type>  (1754) 
oracle

>  <origin>  (1754) 
adg

>  <m_score__min__energy>  (1754) 
-15.66

>  <m_primary>  (1754) 
energy

$$$$
64:0
     RDKit          3D

 25 27  0  0  0  0  0  0  0  0999 V2000
   55.8880   31.1840   52.0530 C   0  0  0  0  0  0  0  0  0  0  0  0
   55.2030   30.2020   52.6640 C   0  0  0  0  0  0  0  0  0  0  0  0
   53.8310   30.2240   52.9440 C   0  0  0  0  0  0  0  0  0  0  0  0
   52.9470   31.1990   52.6490 C   0  0  0  0  0  0  0  0  0  0  0  0
   52.2480   31.3180   51.3560 C   0  0  0  0  0  0  0  0  0  0  0  0
   52.2410   30.3430   50.4300 N   0  0  0  0  0  0  0  0  0  0  0  0
   51.4060   30.8160   49.4800 C   0  0  0  0  0  0  0  0  0  0  0  0
   51.1410   30.1760   48.4300 O   0  0  0  0  0  0  0  0  0  0  0  0
   50.8600   32.0200   49.7540 N   0  0  0  0  0  0  0  0  0  0  0  0
   51.3920   32.3200   50.9500 C   0  0  0  0  0  0  0  0  0  0  0  0
   51.0540   33.4540   51.6790 O   0  0  0  0  0  0  0  0  0  0  0  0
   53.5610   29.0690   53.6580 C   0  0  0  0  0  0  0  0  0  0  0  0
   54.7510   28.3870   53.7760 C   0  0  0  0  0  0  0  0  0  0  0  0
   54.9040   27.1130   54.5530 C   0  0  0  0  0  0  0  0  0  0  0  0
   55.7520   29.0460   53.1360 N   0  0  0  0  0  0  0  0  0  0  0  0
   57.1680   28.6270   53.0920 C   0  0  0  0  0  0  0  0  0  0  0  0
   58.1110   29.7650   53.4350 C   0  0  0  0  0  0  0  0  0  0  0  0
   58.0560   30.3050   54.7350 C   0  0  0  0  0  0  0  0  0  0  0  0
   58.9520   31.2940   55.1370 C   0  0  0  0  0  0  0  0  0  0  0  0
   59.9140   31.7680   54.2500 C   0  0  0  0  0  0  0  0  0  0  0  0
   59.9700   31.2690   52.9500 C   0  0  0  0  0  0  0  0  0  0  0  0
   59.0660   30.2820   52.5140 C   0  0  0  0  0  0  0  0  0  0  0  0
   59.1510   29.8440   51.1030 C   0  0  0  0  0  0  0  0  0  0  0  0
   58.1210   29.7680   50.3860 O   0  0  0  0  0  0  0  0  0  0  0  0
   60.3890   29.5790   50.5300 O   0  0  0  0  0  0  0  0  0  0  0  0
  1  2  2  0
  2  3  1  0
  3  4  2  0
  4  5  1  0
  5  6  1  0
  6  7  1  0
  7  8  2  0
  7  9  1  0
  9 10  1  0
 10 11  1  0
  3 12  1  0
 12 13  2  0
 13 14  1  0
 13 15  1  0
 15 16  1  0
 16 17  1  0
 17 18  2  0
 18 19  1  0
 19 20  2  0
 20 21  1  0
 21 22  2  0
 22 23  1  0
 23 24  2  0
 23 25  1  0
 15  2  1  0
 22 17  1  0
 10  5  2  0
M  CHG  4   6  -1   9  -1  11  -1  25  -1
M  END
>  <UniqueID>  (1755) 
60

>  <SMILES>  (1755) 
C=c1/c(=C/c2[n-]c(=O)[n-]c2[O-])cc(C)n1Cc1ccccc1C(=O)[O-]

>  <Energy>  (1755) 
112.59229835899495

>  <Genealogy>  (1755) 
C=c1c(=Cc2[n-]c(=O)[n-]c2[O-])cc(C)n1Cc1ccccc1C(=O)[O-] (protonated)
C=c1/c(=C/c2[n-]c(=O)[n-]c2[O-])cc(C)n1Cc1ccccc1C(=O)[O-] (cis-trans isomerization)
C=c1/c(=C/c2[n-]c(=O)[n-]c2[O-])cc(C)n1Cc1ccccc1C(=O)[O-] (3D coordinates assigned)
C=c1/c(=C/c2[n-]c(=O)[n-]c2[O-])cc(C)n1Cc1ccccc1C(=O)[O-] (optimized conformer: 112.59229835899495 kcal/mol)

>  <smiles>  (1755) 
C=c1c(=Cc2[nH]c(=O)[nH]c2O)cc(C)n1Cc1ccccc1C(=O)O

>  <score_type>  (1755) 
oracle

>  <origin>  (1755) 
adg

>  <m_score__min__energy>  (1755) 
-17.210000000000001

>  <m_primary>  (1755) 
energy

$$$$
68:0
     RDKit          3D

 29 32  0  0  0  0  0  0  0  0999 V2000
   55.6370   28.4940   45.0680 O   0  0  0  0  0  0  0  0  0  0  0  0
   56.0770   27.2970   45.6250 C   0  0  0  0  0  0  0  0  0  0  0  0
   55.2580   26.4090   46.2130 N   0  0  0  0  0  0  0  0  0  0  0  0
   56.1080   25.4400   46.6140 C   0  0  0  0  0  0  0  0  0  0  0  0
   55.7200   24.4100   47.2250 O   0  0  0  0  0  0  0  0  0  0  0  0
   57.4060   25.6660   46.3210 N   0  0  0  0  0  0  0  0  0  0  0  0
   57.3760   26.8420   45.6640 C   0  0  0  0  0  0  0  0  0  0  0  0
   58.5730   27.5900   45.2460 C   0  0  0  0  0  0  0  0  0  0  0  0
   58.7160   28.9280   45.2890 C   0  0  0  0  0  0  0  0  0  0  0  0
   58.1730   29.7690   44.3300 C   0  0  0  0  0  0  0  0  0  0  0  0
   58.4410   31.0610   44.7310 C   0  0  0  0  0  0  0  0  0  0  0  0
   58.0000   32.2950   44.0040 C   0  0  0  0  0  0  0  0  0  0  0  0
   59.1480   31.0580   45.8820 N   0  0  0  0  0  0  0  0  0  0  0  0
   59.6390   32.2280   46.5560 C   0  0  0  0  0  0  0  0  0  0  0  0
   61.0050   32.3430   46.8520 C   0  0  0  0  0  0  0  0  0  0  0  0
   61.4930   33.4660   47.5390 C   0  0  0  0  0  0  0  0  0  0  0  0
   62.9350   33.5840   47.8260 C   0  0  0  0  0  0  0  0  0  0  0  0
   63.6480   34.3040   47.0770 O   0  0  0  0  0  0  0  0  0  0  0  0
   63.5440   32.8880   48.9310 N   0  0  0  0  0  0  0  0  0  0  0  0
   63.0400   31.6370   49.4750 C   0  0  0  0  0  0  0  0  0  0  0  0
   64.0340   31.2260   50.5510 C   0  0  0  0  0  0  0  0  0  0  0  0
   65.2960   32.0440   50.2940 C   0  0  0  0  0  0  0  0  0  0  0  0
   64.8630   33.2250   49.4370 C   0  0  0  0  0  0  0  0  0  0  0  0
   60.6030   34.4900   47.9000 C   0  0  0  0  0  0  0  0  0  0  0  0
   59.2410   34.3760   47.6120 C   0  0  0  0  0  0  0  0  0  0  0  0
   58.7550   33.2460   46.9490 C   0  0  0  0  0  0  0  0  0  0  0  0
   57.4280   33.1380   46.6910 F   0  0  0  0  0  0  0  0  0  0  0  0
   59.3550   29.7600   46.2240 C   0  0  0  0  0  0  0  0  0  0  0  0
   60.1470   29.3860   47.2400 C   0  0  0  0  0  0  0  0  0  0  0  0
  1  2  1  0
  2  3  1  0
  3  4  1  0
  4  5  2  0
  4  6  1  0
  6  7  1  0
  7  8  1  0
  8  9  2  0
  9 10  1  0
 10 11  2  0
 11 12  1  0
 11 13  1  0
 13 14  1  0
 14 15  2  0
 15 16  1  0
 16 17  1  0
 17 18  2  0
 17 19  1  0
 19 20  1  0
 20 21  1  0
 21 22  1  0
 22 23  1  0
 16 24  2  0
 24 25  1  0
 25 26  2  0
 26 27  1  0
 13 28  1  0
 28 29  2  0
  7  2  2  0
 28  9  1  0
 26 14  1  0
 23 19  1  0
M  CHG  2   3  -1   6  -1
M  END
>  <UniqueID>  (1756) 
64

>  <SMILES>  (1756) 
C=c1/c(=C\c2[n-]c(=O)[n-]c2O)cc(C)n1-c1cc(C(=O)N2CCCC2)ccc1F

>  <Energy>  (1756) 
130.14160238018317

>  <Genealogy>  (1756) 
C=c1c(=Cc2[n-]c(=O)[n-]c2O)cc(C)n1-c1cc(C(=O)N2CCCC2)ccc1F (protonated)
C=c1/c(=C\c2[n-]c(=O)[n-]c2O)cc(C)n1-c1cc(C(=O)N2CCCC2)ccc1F (cis-trans isomerization)
C=c1/c(=C\c2[n-]c(=O)[n-]c2O)cc(C)n1-c1cc(C(=O)N2CCCC2)ccc1F (3D coordinates assigned)
C=c1/c(=C\c2[n-]c(=O)[n-]c2O)cc(C)n1-c1cc(C(=O)N2CCCC2)ccc1F (nonaromatic ring conformer: 130.14160238018317 kcal/mol)

>  <smiles>  (1756) 
C=c1c(=Cc2[nH]c(=O)[nH]c2O)cc(C)n1-c1cc(C(=O)N2CCCC2)ccc1F

>  <score_type>  (1756) 
oracle

>  <origin>  (1756) 
adg

>  <m_score__min__energy>  (1756) 
-14.199999999999999

>  <m_primary>  (1756) 
energy

$$$$
0:0
     RDKit          3D

 28 30  0  0  0  0  0  0  0  0999 V2000
   59.7380   29.3670   44.4420 C   0  0  0  0  0  0  0  0  0  0  0  0
   59.5550   28.9810   45.7150 C   0  0  0  0  0  0  0  0  0  0  0  0
   58.5860   28.0780   46.1840 C   0  0  0  0  0  0  0  0  0  0  0  0
   57.7550   27.2470   45.5230 C   0  0  0  0  0  0  0  0  0  0  0  0
   57.1610   26.0170   46.0720 C   0  0  0  0  0  0  0  0  0  0  0  0
   57.8530   24.9820   46.5780 N   0  0  0  0  0  0  0  0  0  0  0  0
   56.9130   24.1630   47.0890 C   0  0  0  0  0  0  0  0  0  0  0  0
   57.1880   23.0700   47.6510 O   0  0  0  0  0  0  0  0  0  0  0  0
   55.6500   24.6250   46.9610 N   0  0  0  0  0  0  0  0  0  0  0  0
   55.8270   25.8030   46.3290 C   0  0  0  0  0  0  0  0  0  0  0  0
   54.7880   26.6650   46.0000 O   0  0  0  0  0  0  0  0  0  0  0  0
   58.6210   28.1530   47.5640 C   0  0  0  0  0  0  0  0  0  0  0  0
   59.6400   29.0220   47.8930 C   0  0  0  0  0  0  0  0  0  0  0  0
   60.0110   29.3930   49.2970 C   0  0  0  0  0  0  0  0  0  0  0  0
   60.2090   29.5320   46.7760 N   0  0  0  0  0  0  0  0  0  0  0  0
   61.3350   30.4850   46.7550 C   0  0  0  0  0  0  0  0  0  0  0  0
   60.8700   31.9050   47.1100 C   0  0  0  0  0  0  0  0  0  0  0  0
   61.7520   32.5500   48.1520 C   0  0  0  0  0  0  0  0  0  0  0  0
   63.0000   31.9790   48.4500 C   0  0  0  0  0  0  0  0  0  0  0  0
   63.8400   32.5700   49.3940 C   0  0  0  0  0  0  0  0  0  0  0  0
   63.4510   33.7440   50.0360 C   0  0  0  0  0  0  0  0  0  0  0  0
   62.2190   34.3310   49.7430 C   0  0  0  0  0  0  0  0  0  0  0  0
   61.3520   33.7380   48.8010 C   0  0  0  0  0  0  0  0  0  0  0  0
   60.1070   34.2980   48.4630 O   0  0  0  0  0  0  0  0  0  0  0  0
   59.7510   34.9170   47.2230 C   0  0  0  0  0  0  0  0  0  0  0  0
   58.4500   34.3300   46.6400 C   0  0  0  0  0  0  0  0  0  0  0  0
   58.6130   33.9870   45.1530 C   0  0  0  0  0  0  0  0  0  0  0  0
   57.9560   33.1100   47.4250 C   0  0  0  0  0  0  0  0  0  0  0  0
  1  2  2  0
  2  3  1  0
  3  4  2  3
  4  5  1  0
  5  6  1  0
  6  7  1  0
  7  8  2  0
  7  9  1  0
  9 10  1  0
 10 11  1  0
  3 12  1  0
 12 13  2  0
 13 14  1  0
 13 15  1  0
 15 16  1  0
 16 17  1  0
 17 18  1  0
 18 19  2  0
 19 20  1  0
 20 21  2  0
 21 22  1  0
 22 23  2  0
 23 24  1  0
 24 25  1  0
 25 26  1  0
 26 27  1  0
 26 28  1  0
 15  2  1  0
 23 18  1  0
 10  5  2  0
M  CHG  2   9  -1  11  -1
M  END
>  <UniqueID>  (1757) 
1

>  <SMILES>  (1757) 
C=c1c(=Cc2[nH]c(=O)[n-]c2[O-])cc(C)n1CCc1ccccc1OCC(C)C

>  <Energy>  (1757) 
116.11415903765356

>  <Genealogy>  (1757) 
C=c1c(=Cc2[nH]c(=O)[n-]c2[O-])cc(C)n1CCc1ccccc1OCC(C)C (protonated)
C=c1c(=Cc2[nH]c(=O)[n-]c2[O-])cc(C)n1CCc1ccccc1OCC(C)C (3D coordinates assigned)
C=c1c(=Cc2[nH]c(=O)[n-]c2[O-])cc(C)n1CCc1ccccc1OCC(C)C (optimized conformer: 116.11415903765356 kcal/mol)

>  <smiles>  (1757) 
C=c1c(=Cc2[nH]c(=O)[nH]c2O)cc(C)n1CCc1ccccc1OCC(C)C

>  <score_type>  (1757) 
oracle

>  <origin>  (1757) 
adg

>  <m_score__min__energy>  (1757) 
-14.25

>  <m_primary>  (1757) 
energy

$$$$
7:0
     RDKit          3D

 32 35  0  0  0  0  0  0  0  0999 V2000
   54.5610   26.1610   45.9510 O   0  0  0  0  0  0  0  0  0  0  0  0
   55.3740   25.1240   45.5080 C   0  0  0  0  0  0  0  0  0  0  0  0
   54.9490   24.1160   44.7280 N   0  0  0  0  0  0  0  0  0  0  0  0
   56.0770   23.4040   44.5230 C   0  0  0  0  0  0  0  0  0  0  0  0
   56.1010   22.3620   43.8180 O   0  0  0  0  0  0  0  0  0  0  0  0
   57.1810   23.9050   45.1190 N   0  0  0  0  0  0  0  0  0  0  0  0
   56.7190   24.9850   45.7720 C   0  0  0  0  0  0  0  0  0  0  0  0
   57.5840   25.9410   46.4790 C   0  0  0  0  0  0  0  0  0  0  0  0
   58.1460   27.0410   45.9410 C   0  0  0  0  0  0  0  0  0  0  0  0
   59.5140   27.2440   45.9160 C   0  0  0  0  0  0  0  0  0  0  0  0
   59.7340   28.4160   45.2250 C   0  0  0  0  0  0  0  0  0  0  0  0
   61.0950   28.9510   44.8850 C   0  0  0  0  0  0  0  0  0  0  0  0
   58.5590   28.9670   44.8390 N   0  0  0  0  0  0  0  0  0  0  0  0
   58.3960   30.2400   44.1170 C   0  0  0  0  0  0  0  0  0  0  0  0
   58.3750   31.4090   45.0710 C   0  0  0  0  0  0  0  0  0  0  0  0
   57.9920   32.6850   44.6280 C   0  0  0  0  0  0  0  0  0  0  0  0
   57.9650   33.7610   45.5160 C   0  0  0  0  0  0  0  0  0  0  0  0
   58.3070   33.5740   46.8580 C   0  0  0  0  0  0  0  0  0  0  0  0
   58.6690   32.3020   47.3280 C   0  0  0  0  0  0  0  0  0  0  0  0
   59.0460   32.1140   48.7500 C   0  0  0  0  0  0  0  0  0  0  0  0
   58.1630   32.2350   49.6400 O   0  0  0  0  0  0  0  0  0  0  0  0
   60.4000   31.8640   49.1600 N   0  0  0  0  0  0  0  0  0  0  0  0
   61.4700   32.3930   48.6370 C   0  0  0  0  0  0  0  0  0  0  0  0
   61.4540   32.9170   47.3770 N   0  0  0  0  0  0  0  0  0  0  0  0
   62.5640   33.4590   46.8110 C   0  0  0  0  0  0  0  0  0  0  0  0
   63.7690   33.4850   47.5170 C   0  0  0  0  0  0  0  0  0  0  0  0
   63.8200   32.9540   48.8130 C   0  0  0  0  0  0  0  0  0  0  0  0
   65.1100   32.9290   49.5790 C   0  0  0  0  0  0  0  0  0  0  0  0
   62.6630   32.3940   49.3700 C   0  0  0  0  0  0  0  0  0  0  0  0
   58.7100   31.2240   46.4240 C   0  0  0  0  0  0  0  0  0  0  0  0
   57.5730   28.1500   45.2970 C   0  0  0  0  0  0  0  0  0  0  0  0
   56.2680   28.4550   45.2260 C   0  0  0  0  0  0  0  0  0  0  0  0
  1  2  1  0
  2  3  1  0
  3  4  1  0
  4  5  2  0
  4  6  1  0
  6  7  1  0
  7  8  1  0
  8  9  2  0
  9 10  1  0
 10 11  2  0
 11 12  1  0
 11 13  1  0
 13 14  1  0
 14 15  1  0
 15 16  2  0
 16 17  1  0
 17 18  2  0
 18 19  1  0
 19 20  1  0
 20 21  2  0
 20 22  1  0
 22 23  2  0
 23 24  1  0
 24 25  1  0
 25 26  2  0
 26 27  1  0
 27 28  1  0
 27 29  2  0
 19 30  2  0
 13 31  1  0
 31 32  2  0
  7  2  2  0
 31  9  1  0
 30 15  1  0
 29 23  1  0
M  CHG  3   3  -1   6  -1  24  -1
M  END
>  <UniqueID>  (1758) 
7

>  <SMILES>  (1758) 
C=c1/c(=C\c2[n-]c(=O)[n-]c2O)cc(C)n1Cc1cccc(C(=O)/N=c2/cc(C)cc[n-]2)c1

>  <Energy>  (1758) 
131.76412792683814

>  <Genealogy>  (1758) 
C=c1c(=Cc2[n-]c(=O)[n-]c2O)cc(C)n1Cc1cccc(C(=O)N=c2cc(C)cc[n-]2)c1 (protonated)
C=c1/c(=C\c2[n-]c(=O)[n-]c2O)cc(C)n1Cc1cccc(C(=O)/N=c2/cc(C)cc[n-]2)c1 (cis-trans isomerization)
C=c1/c(=C\c2[n-]c(=O)[n-]c2O)cc(C)n1Cc1cccc(C(=O)/N=c2/cc(C)cc[n-]2)c1 (3D coordinates assigned)
C=c1/c(=C\c2[n-]c(=O)[n-]c2O)cc(C)n1Cc1cccc(C(=O)/N=c2/cc(C)cc[n-]2)c1 (optimized conformer: 131.76412792683814 kcal/mol)

>  <smiles>  (1758) 
C=c1c(=Cc2[nH]c(=O)[nH]c2O)cc(C)n1Cc1cccc(C(=O)N=c2cc(C)cc[nH]2)c1

>  <score_type>  (1758) 
oracle

>  <origin>  (1758) 
adg

>  <m_score__min__energy>  (1758) 
-15.619999999999999

>  <m_primary>  (1758) 
energy

$$$$
14:0
     RDKit          3D

 29 31  0  0  0  0  0  0  0  0999 V2000
   54.0400   30.1910   54.8630 C   0  0  0  0  0  0  0  0  0  0  0  0
   54.5340   30.3980   53.6310 C   0  0  0  0  0  0  0  0  0  0  0  0
   53.8010   30.3880   52.4340 C   0  0  0  0  0  0  0  0  0  0  0  0
   52.4730   30.4240   52.2040 C   0  0  0  0  0  0  0  0  0  0  0  0
   51.5580   31.5150   52.5860 C   0  0  0  0  0  0  0  0  0  0  0  0
   51.3360   31.9290   53.8470 N   0  0  0  0  0  0  0  0  0  0  0  0
   50.5700   33.0290   53.6850 C   0  0  0  0  0  0  0  0  0  0  0  0
   50.1320   33.6990   54.6560 O   0  0  0  0  0  0  0  0  0  0  0  0
   50.3190   33.3610   52.4010 N   0  0  0  0  0  0  0  0  0  0  0  0
   50.9650   32.4010   51.7190 C   0  0  0  0  0  0  0  0  0  0  0  0
   51.0180   32.3420   50.3330 O   0  0  0  0  0  0  0  0  0  0  0  0
   54.7300   30.3830   51.4110 C   0  0  0  0  0  0  0  0  0  0  0  0
   55.9730   30.4860   51.9960 C   0  0  0  0  0  0  0  0  0  0  0  0
   57.2560   30.5150   51.2200 C   0  0  0  0  0  0  0  0  0  0  0  0
   55.8650   30.4910   53.3490 N   0  0  0  0  0  0  0  0  0  0  0  0
   56.9950   30.5470   54.2970 C   0  0  0  0  0  0  0  0  0  0  0  0
   57.5470   31.9740   54.4570 C   0  0  0  0  0  0  0  0  0  0  0  0
   57.8580   32.6570   53.1250 C   0  0  0  0  0  0  0  0  0  0  0  0
   59.2870   32.5890   52.8460 N   0  0  0  0  0  0  0  0  0  0  0  0
   59.7950   32.5180   51.5150 C   0  0  0  0  0  0  0  0  0  0  0  0
   60.7120   31.6950   51.2490 O   0  0  0  0  0  0  0  0  0  0  0  0
   59.2640   33.3440   50.5190 O   0  0  0  0  0  0  0  0  0  0  0  0
   60.0690   34.0430   49.5740 C   0  0  0  0  0  0  0  0  0  0  0  0
   59.4140   34.0030   48.2200 C   0  0  0  0  0  0  0  0  0  0  0  0
   59.8140   34.8890   47.2060 C   0  0  0  0  0  0  0  0  0  0  0  0
   59.2240   34.8190   45.9400 C   0  0  0  0  0  0  0  0  0  0  0  0
   58.2370   33.8660   45.6790 C   0  0  0  0  0  0  0  0  0  0  0  0
   57.8440   32.9720   46.6790 C   0  0  0  0  0  0  0  0  0  0  0  0
   58.4360   33.0350   47.9440 C   0  0  0  0  0  0  0  0  0  0  0  0
  1  2  2  0
  2  3  1  0
  3  4  2  3
  4  5  1  0
  5  6  1  0
  6  7  1  0
  7  8  2  0
  7  9  1  0
  9 10  1  0
 10 11  1  0
  3 12  1  0
 12 13  2  0
 13 14  1  0
 13 15  1  0
 15 16  1  0
 16 17  1  0
 17 18  1  0
 18 19  1  0
 19 20  1  0
 20 21  2  0
 20 22  1  0
 22 23  1  0
 23 24  1  0
 24 25  2  0
 25 26  1  0
 26 27  2  0
 27 28  1  0
 28 29  2  0
 15  2  1  0
 29 24  1  0
 10  5  2  0
M  CHG  4   6  -1   9  -1  11  -1  19  -1
M  END
>  <UniqueID>  (1759) 
12

>  <SMILES>  (1759) 
C=c1c(=Cc2[n-]c(=O)[n-]c2[O-])cc(C)n1CCC[N-]C(=O)OCc1ccccc1

>  <Energy>  (1759) 
107.65801136660231

>  <Genealogy>  (1759) 
C=c1c(=Cc2[n-]c(=O)[n-]c2[O-])cc(C)n1CCC[N-]C(=O)OCc1ccccc1 (protonated)
C=c1c(=Cc2[n-]c(=O)[n-]c2[O-])cc(C)n1CCC[N-]C(=O)OCc1ccccc1 (3D coordinates assigned)
C=c1c(=Cc2[n-]c(=O)[n-]c2[O-])cc(C)n1CCC[N-]C(=O)OCc1ccccc1 (optimized conformer: 107.65801136660231 kcal/mol)

>  <smiles>  (1759) 
C=c1c(=Cc2[nH]c(=O)[nH]c2O)cc(C)n1CCCNC(=O)OCc1ccccc1

>  <score_type>  (1759) 
oracle

>  <origin>  (1759) 
adg

>  <m_score__min__energy>  (1759) 
-17.59

>  <m_primary>  (1759) 
energy

$$$$
20:0
     RDKit          3D

 31 34  0  0  0  0  0  0  0  0999 V2000
   55.2770   30.8770   51.6110 C   0  0  0  0  0  0  0  0  0  0  0  0
   54.8440   30.1820   52.6750 C   0  0  0  0  0  0  0  0  0  0  0  0
   53.6210   30.3480   53.3460 C   0  0  0  0  0  0  0  0  0  0  0  0
   52.5130   31.0370   53.0110 C   0  0  0  0  0  0  0  0  0  0  0  0
   51.9900   31.2080   51.6450 C   0  0  0  0  0  0  0  0  0  0  0  0
   52.1510   30.3220   50.6460 N   0  0  0  0  0  0  0  0  0  0  0  0
   51.3920   30.8320   49.6520 C   0  0  0  0  0  0  0  0  0  0  0  0
   51.2950   30.2840   48.5230 O   0  0  0  0  0  0  0  0  0  0  0  0
   50.7380   31.9710   49.9660 N   0  0  0  0  0  0  0  0  0  0  0  0
   51.1170   32.1850   51.2350 C   0  0  0  0  0  0  0  0  0  0  0  0
   50.6690   33.2510   52.0070 O   0  0  0  0  0  0  0  0  0  0  0  0
   53.7180   29.6120   54.5140 C   0  0  0  0  0  0  0  0  0  0  0  0
   54.9420   28.9790   54.4880 C   0  0  0  0  0  0  0  0  0  0  0  0
   55.4370   28.0440   55.5520 C   0  0  0  0  0  0  0  0  0  0  0  0
   55.6210   29.3020   53.3630 N   0  0  0  0  0  0  0  0  0  0  0  0
   56.9890   28.8720   53.0390 C   0  0  0  0  0  0  0  0  0  0  0  0
   57.9510   29.2510   54.1680 C   0  0  0  0  0  0  0  0  0  0  0  0
   58.9990   30.2130   53.6700 C   0  0  0  0  0  0  0  0  0  0  0  0
   58.6070   31.4460   53.1220 C   0  0  0  0  0  0  0  0  0  0  0  0
   59.5680   32.3700   52.6820 C   0  0  0  0  0  0  0  0  0  0  0  0
   59.1300   33.6760   52.0730 C   0  0  0  0  0  0  0  0  0  0  0  0
   59.2130   33.6130   50.6000 N   0  0  0  0  0  0  0  0  0  0  0  0
   60.6090   33.7950   50.1540 C   0  0  0  0  0  0  0  0  0  0  0  0
   60.7570   33.4860   48.6510 C   0  0  0  0  0  0  0  0  0  0  0  0
   59.4920   33.4060   48.0240 O   0  0  0  0  0  0  0  0  0  0  0  0
   58.7710   32.3040   48.5450 C   0  0  0  0  0  0  0  0  0  0  0  0
   58.6850   32.3340   50.0860 C   0  0  0  0  0  0  0  0  0  0  0  0
   60.9300   32.0550   52.7940 C   0  0  0  0  0  0  0  0  0  0  0  0
   61.3270   30.8380   53.3520 C   0  0  0  0  0  0  0  0  0  0  0  0
   60.3710   29.9190   53.7960 C   0  0  0  0  0  0  0  0  0  0  0  0
   60.7900   28.7210   54.3620 O   0  0  0  0  0  0  0  0  0  0  0  0
  1  2  2  0
  2  3  1  0
  3  4  2  3
  4  5  1  0
  5  6  1  0
  6  7  1  0
  7  8  2  0
  7  9  1  0
  9 10  1  0
 10 11  1  0
  3 12  1  0
 12 13  2  0
 13 14  1  0
 13 15  1  0
 15 16  1  0
 16 17  1  0
 17 18  1  0
 18 19  2  0
 19 20  1  0
 20 21  1  0
 21 22  1  0
 22 23  1  0
 23 24  1  0
 24 25  1  0
 25 26  1  0
 26 27  1  0
 20 28  2  0
 28 29  1  0
 29 30  2  0
 30 31  1  0
 15  2  1  0
 30 18  1  0
 10  5  2  0
 27 22  1  0
M  CHG  4   6  -1   9  -1  11  -1  31  -1
M  END
>  <UniqueID>  (1760) 
18

>  <SMILES>  (1760) 
C=c1c(=Cc2[n-]c(=O)[n-]c2[O-])cc(C)n1CCc1cc(CN2CCOCC2)ccc1[O-]

>  <Energy>  (1760) 
132.16060518404953

>  <Genealogy>  (1760) 
C=c1c(=Cc2[n-]c(=O)[n-]c2[O-])cc(C)n1CCc1cc(CN2CCOCC2)ccc1[O-] (protonated)
C=c1c(=Cc2[n-]c(=O)[n-]c2[O-])cc(C)n1CCc1cc(CN2CCOCC2)ccc1[O-] (3D coordinates assigned)
C=c1c(=Cc2[n-]c(=O)[n-]c2[O-])cc(C)n1CCc1cc(CN2CCOCC2)ccc1[O-] (nonaromatic ring conformer: 132.16060518404953 kcal/mol)

>  <smiles>  (1760) 
C=c1c(=Cc2[nH]c(=O)[nH]c2O)cc(C)n1CCc1cc(CN2CCOCC2)ccc1O

>  <score_type>  (1760) 
oracle

>  <origin>  (1760) 
adg

>  <m_score__min__energy>  (1760) 
-17.960000000000001

>  <m_primary>  (1760) 
energy

$$$$
24:0
     RDKit          3D

 34 38  0  0  0  0  0  0  0  0999 V2000
   54.0250   28.6960   54.2710 C   0  0  0  0  0  0  0  0  0  0  0  0
   54.5500   29.3690   53.2350 C   0  0  0  0  0  0  0  0  0  0  0  0
   53.8730   30.2470   52.3730 C   0  0  0  0  0  0  0  0  0  0  0  0
   52.5600   30.4980   52.2160 C   0  0  0  0  0  0  0  0  0  0  0  0
   51.9100   30.9130   50.9640 C   0  0  0  0  0  0  0  0  0  0  0  0
   51.7920   30.1170   49.8880 N   0  0  0  0  0  0  0  0  0  0  0  0
   51.0360   30.8480   49.0390 C   0  0  0  0  0  0  0  0  0  0  0  0
   50.7160   30.4390   47.8940 O   0  0  0  0  0  0  0  0  0  0  0  0
   50.6410   32.0460   49.5200 N   0  0  0  0  0  0  0  0  0  0  0  0
   51.1900   32.0670   50.7450 C   0  0  0  0  0  0  0  0  0  0  0  0
   51.0130   33.1030   51.6530 O   0  0  0  0  0  0  0  0  0  0  0  0
   54.8490   30.8860   51.6290 C   0  0  0  0  0  0  0  0  0  0  0  0
   56.0590   30.3560   52.0180 C   0  0  0  0  0  0  0  0  0  0  0  0
   57.3670   30.8140   51.5040 C   0  0  0  0  0  0  0  0  0  0  0  0
   58.3010   29.9690   51.4390 O   0  0  0  0  0  0  0  0  0  0  0  0
   57.6140   32.1820   51.0700 N   0  0  1  0  0  0  0  0  0  0  0  0
   58.0050   33.0450   52.2050 C   0  0  0  0  0  0  0  0  0  0  0  0
   59.3610   32.6390   52.8070 C   0  0  0  0  0  0  0  0  0  0  0  0
   60.3870   32.2990   51.7560 C   0  0  0  0  0  0  0  0  0  0  0  0
   61.7180   32.0820   52.1430 C   0  0  0  0  0  0  0  0  0  0  0  0
   62.6720   31.6810   51.2040 C   0  0  0  0  0  0  0  0  0  0  0  0
   62.3030   31.4870   49.8720 C   0  0  0  0  0  0  0  0  0  0  0  0
   60.9800   31.6910   49.4750 C   0  0  0  0  0  0  0  0  0  0  0  0
   60.0110   32.0820   50.4130 C   0  0  0  0  0  0  0  0  0  0  0  0
   58.5890   32.3190   49.9640 C   0  0  0  0  0  0  0  0  0  0  0  0
   55.8830   29.4090   52.9680 N   0  0  0  0  0  0  0  0  0  0  0  0
   56.9440   28.6030   53.5950 C   0  0  0  0  0  0  0  0  0  0  0  0
   57.8930   29.4740   54.3830 C   0  0  0  0  0  0  0  0  0  0  0  0
   57.3910   30.4920   55.2130 C   0  0  0  0  0  0  0  0  0  0  0  0
   58.2640   31.3040   55.9430 C   0  0  0  0  0  0  0  0  0  0  0  0
   59.6440   31.1140   55.8440 C   0  0  0  0  0  0  0  0  0  0  0  0
   60.1540   30.1150   55.0120 C   0  0  0  0  0  0  0  0  0  0  0  0
   59.2860   29.2990   54.2790 C   0  0  0  0  0  0  0  0  0  0  0  0
   59.8070   28.3460   53.4680 F   0  0  0  0  0  0  0  0  0  0  0  0
  1  2  2  0
  2  3  1  0
  3  4  2  3
  4  5  1  0
  5  6  1  0
  6  7  1  0
  7  8  2  0
  7  9  1  0
  9 10  1  0
 10 11  1  0
  3 12  1  0
 12 13  2  0
 13 14  1  0
 14 15  2  0
 16 14  1  1
 16 17  1  0
 17 18  1  0
 18 19  1  0
 19 20  2  0
 20 21  1  0
 21 22  2  0
 22 23  1  0
 23 24  2  0
 24 25  1  0
 13 26  1  0
 26 27  1  0
 27 28  1  0
 28 29  2  0
 29 30  1  0
 30 31  2  0
 31 32  1  0
 32 33  2  0
 33 34  1  0
 26  2  1  0
 33 28  1  0
 10  5  2  0
 25 16  1  0
 24 19  1  0
M  CHG  4   6  -1   9  -1  11  -1  16   1
M  END
>  <UniqueID>  (1761) 
22

>  <SMILES>  (1761) 
C=c1c(=Cc2[n-]c(=O)[n-]c2[O-])cc(C(=O)[N@H+]2CCc3ccccc3C2)n1Cc1ccccc1F

>  <Energy>  (1761) 
144.9664289799988

>  <Genealogy>  (1761) 
C=c1c(=Cc2[n-]c(=O)[n-]c2[O-])cc(C(=O)[NH+]2CCc3ccccc3C2)n1Cc1ccccc1F (protonated)
C=c1c(=Cc2[n-]c(=O)[n-]c2[O-])cc(C(=O)[N@H+]2CCc3ccccc3C2)n1Cc1ccccc1F (chirality)
C=c1c(=Cc2[n-]c(=O)[n-]c2[O-])cc(C(=O)[N@H+]2CCc3ccccc3C2)n1Cc1ccccc1F (3D coordinates assigned)
C=c1c(=Cc2[n-]c(=O)[n-]c2[O-])cc(C(=O)[N@H+]2CCc3ccccc3C2)n1Cc1ccccc1F (nonaromatic ring conformer: 144.9664289799988 kcal/mol)

>  <smiles>  (1761) 
C=c1c(=Cc2[nH]c(=O)[nH]c2O)cc(C(=O)N2CCc3ccccc3C2)n1Cc1ccccc1F

>  <score_type>  (1761) 
oracle

>  <origin>  (1761) 
adg

>  <m_score__min__energy>  (1761) 
-15.98

>  <m_primary>  (1761) 
energy

$$$$
33:0
     RDKit          3D

 30 32  0  0  0  0  0  0  0  0999 V2000
   56.2580   30.0110   43.9450 C   0  0  0  0  0  0  0  0  0  0  0  0
   56.8320   30.4330   45.1790 O   0  0  0  0  0  0  0  0  0  0  0  0
   57.5750   31.6160   45.3500 C   0  0  0  0  0  0  0  0  0  0  0  0
   57.3990   32.7330   44.5030 C   0  0  0  0  0  0  0  0  0  0  0  0
   58.1340   33.9010   44.7100 C   0  0  0  0  0  0  0  0  0  0  0  0
   59.0530   33.9760   45.7600 C   0  0  0  0  0  0  0  0  0  0  0  0
   59.9960   35.4390   45.9940 Cl  0  0  0  0  0  0  0  0  0  0  0  0
   59.2440   32.8760   46.6020 C   0  0  0  0  0  0  0  0  0  0  0  0
   58.5230   31.6860   46.3980 C   0  0  0  0  0  0  0  0  0  0  0  0
   58.7070   30.5430   47.3660 C   0  0  0  0  0  0  0  0  0  0  0  0
   58.1610   29.3200   46.7870 N   0  0  0  0  0  0  0  0  0  0  0  0
   58.4790   28.0350   47.3330 C   0  0  0  0  0  0  0  0  0  0  0  0
   58.6430   27.8930   48.5760 O   0  0  0  0  0  0  0  0  0  0  0  0
   58.7030   26.8730   46.4150 C   0  0  0  0  0  0  0  0  0  0  0  0
   57.4460   26.1460   46.2450 N   0  0  0  0  0  0  0  0  0  0  0  0
   57.1960   24.8620   46.5460 C   0  0  0  0  0  0  0  0  0  0  0  0
   58.1550   23.9480   46.9670 O   0  0  0  0  0  0  0  0  0  0  0  0
   55.8510   24.6150   46.3850 C   0  0  0  0  0  0  0  0  0  0  0  0
   55.1560   23.3020   46.5730 C   0  0  0  0  0  0  0  0  0  0  0  0
   54.2470   23.0080   45.4190 C   0  0  0  0  0  0  0  0  0  0  0  0
   53.0830   22.5680   45.6270 O   0  0  0  0  0  0  0  0  0  0  0  0
   54.7040   23.2630   44.0840 N   0  0  0  0  0  0  0  0  0  0  0  0
   55.8970   22.6930   43.4570 C   0  0  0  0  0  0  0  0  0  0  0  0
   57.0810   23.6690   43.4650 C   0  0  0  0  0  0  0  0  0  0  0  0
   58.2260   22.9520   44.1710 C   0  0  0  0  0  0  0  0  0  0  0  0
   57.8850   21.4730   44.1090 C   0  0  0  0  0  0  0  0  0  0  0  0
   56.3670   21.4130   44.1520 C   0  0  0  0  0  0  0  0  0  0  0  0
   55.2320   25.7460   45.9820 N   0  0  0  0  0  0  0  0  0  0  0  0
   56.2360   26.6500   45.9210 C   0  0  0  0  0  0  0  0  0  0  0  0
   56.0480   27.8580   45.6120 O   0  0  0  0  0  0  0  0  0  0  0  0
  1  2  1  0
  2  3  1  0
  3  4  2  0
  4  5  1  0
  5  6  2  0
  6  7  1  0
  6  8  1  0
  8  9  2  0
  9 10  1  0
 10 11  1  0
 11 12  1  0
 12 13  2  0
 12 14  1  0
 14 15  1  0
 15 16  1  0
 16 17  1  0
 16 18  2  0
 18 19  1  0
 19 20  1  0
 20 21  2  0
 20 22  1  0
 22 23  1  0
 23 24  1  0
 24 25  1  0
 25 26  1  0
 26 27  1  0
 18 28  1  0
 28 29  1  0
 29 30  2  0
  9  3  1  0
 29 15  1  0
 27 23  1  0
M  CHG  3  17  -1  22  -1  28  -1
M  END
>  <UniqueID>  (1762) 
30

>  <SMILES>  (1762) 
COc1ccc(Cl)cc1CNC(=O)Cn1c([O-])c(CC(=O)[N-]C2CCCC2)[n-]c1=O

>  <Energy>  (1762) 
75.52929852327574

>  <Genealogy>  (1762) 
COc1ccc(Cl)cc1CNC(=O)Cn1c([O-])c(CC(=O)[N-]C2CCCC2)[n-]c1=O (protonated)
COc1ccc(Cl)cc1CNC(=O)Cn1c([O-])c(CC(=O)[N-]C2CCCC2)[n-]c1=O (3D coordinates assigned)
COc1ccc(Cl)cc1CNC(=O)Cn1c([O-])c(CC(=O)[N-]C2CCCC2)[n-]c1=O (nonaromatic ring conformer: 75.52929852327574 kcal/mol)

>  <smiles>  (1762) 
COc1ccc(Cl)cc1CNC(=O)Cn1c(O)c(CC(=O)NC2CCCC2)[nH]c1=O

>  <score_type>  (1762) 
oracle

>  <origin>  (1762) 
adg

>  <m_score__min__energy>  (1762) 
-15.119999999999999

>  <m_primary>  (1762) 
energy

$$$$
37:0
     RDKit          3D

 27 30  0  0  0  0  0  0  0  0999 V2000
   54.5210   28.2030   53.0330 C   0  0  0  0  0  0  0  0  0  0  0  0
   54.7950   29.4240   52.5480 C   0  0  0  0  0  0  0  0  0  0  0  0
   53.8720   30.4420   52.2500 C   0  0  0  0  0  0  0  0  0  0  0  0
   52.5300   30.4130   52.1420 C   0  0  0  0  0  0  0  0  0  0  0  0
   51.7580   30.7810   50.9440 C   0  0  0  0  0  0  0  0  0  0  0  0
   51.7080   30.0570   49.8100 N   0  0  0  0  0  0  0  0  0  0  0  0
   51.0090   30.8470   48.9670 C   0  0  0  0  0  0  0  0  0  0  0  0
   50.7350   30.5030   47.7880 O   0  0  0  0  0  0  0  0  0  0  0  0
   50.6360   32.0370   49.4830 N   0  0  0  0  0  0  0  0  0  0  0  0
   51.1310   31.9840   50.7300 C   0  0  0  0  0  0  0  0  0  0  0  0
   51.0160   33.0170   51.6510 O   0  0  0  0  0  0  0  0  0  0  0  0
   54.6160   31.5920   52.0460 C   0  0  0  0  0  0  0  0  0  0  0  0
   55.9450   31.2320   52.1440 C   0  0  0  0  0  0  0  0  0  0  0  0
   57.0950   32.1760   51.9660 C   0  0  0  0  0  0  0  0  0  0  0  0
   56.0550   29.9190   52.4480 N   0  0  0  0  0  0  0  0  0  0  0  0
   57.2880   29.2060   52.6620 C   0  0  0  0  0  0  0  0  0  0  0  0
   57.4370   28.3690   53.7680 C   0  0  0  0  0  0  0  0  0  0  0  0
   58.6310   27.6780   53.9660 C   0  0  0  0  0  0  0  0  0  0  0  0
   59.6980   27.8240   53.0500 C   0  0  0  0  0  0  0  0  0  0  0  0
   60.9580   27.1100   53.2390 N   0  0  0  0  0  0  0  0  0  0  0  0
   62.1440   27.8560   53.7060 C   0  0  0  0  0  0  0  0  0  0  0  0
   63.3720   26.9710   53.9380 C   0  0  0  0  0  0  0  0  0  0  0  0
   63.4650   25.9720   52.9500 O   0  0  0  0  0  0  0  0  0  0  0  0
   62.4140   25.0570   53.1450 C   0  0  0  0  0  0  0  0  0  0  0  0
   61.0600   25.6940   52.8220 C   0  0  0  0  0  0  0  0  0  0  0  0
   59.5130   28.6520   51.9690 N   0  0  0  0  0  0  0  0  0  0  0  0
   58.3510   29.3320   51.7650 C   0  0  0  0  0  0  0  0  0  0  0  0
  1  2  2  0
  2  3  1  0
  3  4  2  0
  4  5  1  0
  5  6  1  0
  6  7  1  0
  7  8  2  0
  7  9  1  0
  9 10  1  0
 10 11  1  0
  3 12  1  0
 12 13  2  0
 13 14  1  0
 13 15  1  0
 15 16  1  0
 16 17  2  0
 17 18  1  0
 18 19  2  0
 19 20  1  0
 20 21  1  0
 21 22  1  0
 22 23  1  0
 23 24  1  0
 24 25  1  0
 19 26  1  0
 26 27  2  0
 15  2  1  0
 27 16  1  0
 10  5  2  0
 25 20  1  0
M  CHG  4   6  -1   9  -1  11  -1  26   1
M  END
>  <UniqueID>  (1763) 
34

>  <SMILES>  (1763) 
C=c1/c(=C\c2[n-]c(=O)[n-]c2[O-])cc(C)n1-c1ccc(N2CCOCC2)[nH+]c1

>  <Energy>  (1763) 
131.36386471772025

>  <Genealogy>  (1763) 
C=c1c(=Cc2[n-]c(=O)[n-]c2[O-])cc(C)n1-c1ccc(N2CCOCC2)[nH+]c1 (protonated)
C=c1/c(=C\c2[n-]c(=O)[n-]c2[O-])cc(C)n1-c1ccc(N2CCOCC2)[nH+]c1 (cis-trans isomerization)
C=c1/c(=C\c2[n-]c(=O)[n-]c2[O-])cc(C)n1-c1ccc(N2CCOCC2)[nH+]c1 (3D coordinates assigned)
C=c1/c(=C\c2[n-]c(=O)[n-]c2[O-])cc(C)n1-c1ccc(N2CCOCC2)[nH+]c1 (nonaromatic ring conformer: 131.36386471772025 kcal/mol)

>  <smiles>  (1763) 
C=c1c(=Cc2[nH]c(=O)[nH]c2O)cc(C)n1-c1ccc(N2CCOCC2)nc1

>  <score_type>  (1763) 
oracle

>  <origin>  (1763) 
adg

>  <m_score__min__energy>  (1763) 
-14.460000000000001

>  <m_primary>  (1763) 
energy

$$$$
48:0
     RDKit          3D

 27 29  0  0  0  0  0  0  0  0999 V2000
   57.1880   22.1660   48.2080 N   0  0  0  0  0  0  0  0  0  0  0  0
   56.1450   23.3620   47.5230 S   0  0  0  0  0  0  0  0  0  0  0  0
   54.7200   22.9790   47.8070 O   0  0  0  0  0  0  0  0  0  0  0  0
   56.4070   24.6960   48.1620 O   0  0  0  0  0  0  0  0  0  0  0  0
   56.4090   23.4470   45.7710 C   0  0  0  0  0  0  0  0  0  0  0  0
   56.1960   22.2790   45.0180 C   0  0  0  0  0  0  0  0  0  0  0  0
   56.3780   22.2770   43.6350 C   0  0  0  0  0  0  0  0  0  0  0  0
   56.7770   23.4400   42.9820 C   0  0  0  0  0  0  0  0  0  0  0  0
   57.0030   24.6080   43.7100 C   0  0  0  0  0  0  0  0  0  0  0  0
   56.8370   24.6300   45.1070 C   0  0  0  0  0  0  0  0  0  0  0  0
   57.1490   26.1540   45.9550 S   0  0  0  0  0  0  0  0  0  0  0  0
   58.1840   25.9670   47.0260 O   0  0  0  0  0  0  0  0  0  0  0  0
   55.8670   26.6410   46.5690 O   0  0  0  0  0  0  0  0  0  0  0  0
   57.7360   27.3430   44.8360 N   0  0  0  0  0  0  0  0  0  0  0  0
   58.1730   28.6440   45.2460 C   0  0  0  0  0  0  0  0  0  0  0  0
   59.3760   28.7380   45.9490 C   0  0  0  0  0  0  0  0  0  0  0  0
   59.8870   29.9770   46.3210 C   0  0  0  0  0  0  0  0  0  0  0  0
   59.1880   31.1500   46.0190 C   0  0  0  0  0  0  0  0  0  0  0  0
   59.7100   32.3940   46.4100 C   0  0  0  0  0  0  0  0  0  0  0  0
   59.0050   33.5670   46.1480 C   0  0  0  0  0  0  0  0  0  0  0  0
   57.7690   33.5120   45.5060 C   0  0  0  0  0  0  0  0  0  0  0  0
   57.2350   32.2830   45.1080 C   0  0  0  0  0  0  0  0  0  0  0  0
   57.9410   31.0800   45.3380 C   0  0  0  0  0  0  0  0  0  0  0  0
   57.4310   29.8110   44.9450 C   0  0  0  0  0  0  0  0  0  0  0  0
   56.1210   29.6790   44.2700 C   0  0  0  0  0  0  0  0  0  0  0  0
   55.1600   29.1040   44.8450 O   0  0  0  0  0  0  0  0  0  0  0  0
   55.9330   30.2240   43.0050 O   0  0  0  0  0  0  0  0  0  0  0  0
  1  2  1  0
  2  3  2  0
  2  4  2  0
  2  5  1  0
  5  6  2  0
  6  7  1  0
  7  8  2  0
  8  9  1  0
  9 10  2  0
 10 11  1  0
 11 12  2  0
 11 13  2  0
 11 14  1  0
 14 15  1  0
 15 16  2  0
 16 17  1  0
 17 18  2  0
 18 19  1  0
 19 20  2  0
 20 21  1  0
 21 22  2  0
 22 23  1  0
 23 24  2  0
 24 25  1  0
 25 26  2  0
 25 27  1  0
 10  5  1  0
 24 15  1  0
 23 18  1  0
M  CHG  3   1  -1  14  -1  27  -1
M  END
>  <UniqueID>  (1764) 
45

>  <SMILES>  (1764) 
[NH-]S(=O)(=O)c1ccccc1S(=O)(=O)[N-]c1ccc2ccccc2c1C(=O)[O-]

>  <Energy>  (1764) 
66.4726192220059

>  <Genealogy>  (1764) 
[NH-]S(=O)(=O)c1ccccc1S(=O)(=O)[N-]c1ccc2ccccc2c1C(=O)[O-] (protonated)
[NH-]S(=O)(=O)c1ccccc1S(=O)(=O)[N-]c1ccc2ccccc2c1C(=O)[O-] (3D coordinates assigned)
[NH-]S(=O)(=O)c1ccccc1S(=O)(=O)[N-]c1ccc2ccccc2c1C(=O)[O-] (optimized conformer: 66.4726192220059 kcal/mol)

>  <smiles>  (1764) 
NS(=O)(=O)c1ccccc1S(=O)(=O)Nc1ccc2ccccc2c1C(=O)O

>  <score_type>  (1764) 
oracle

>  <origin>  (1764) 
adg

>  <m_score__min__energy>  (1764) 
-15.06

>  <m_primary>  (1764) 
energy

$$$$
57:0
     RDKit          3D

 34 37  0  0  0  0  0  0  0  0999 V2000
   55.8400   31.6620   52.0240 C   0  0  0  0  0  0  0  0  0  0  0  0
   55.3120   30.5270   52.5080 C   0  0  0  0  0  0  0  0  0  0  0  0
   53.9560   30.2710   52.7370 C   0  0  0  0  0  0  0  0  0  0  0  0
   52.9220   31.1160   52.5490 C   0  0  0  0  0  0  0  0  0  0  0  0
   52.2010   31.2600   51.2730 C   0  0  0  0  0  0  0  0  0  0  0  0
   52.1980   30.3160   50.3150 N   0  0  0  0  0  0  0  0  0  0  0  0
   51.3650   30.8210   49.3790 C   0  0  0  0  0  0  0  0  0  0  0  0
   51.1190   30.2240   48.2970 O   0  0  0  0  0  0  0  0  0  0  0  0
   50.8170   32.0150   49.6920 N   0  0  0  0  0  0  0  0  0  0  0  0
   51.3480   32.2750   50.8980 C   0  0  0  0  0  0  0  0  0  0  0  0
   51.0250   33.3960   51.6530 O   0  0  0  0  0  0  0  0  0  0  0  0
   53.8850   28.9920   53.2730 C   0  0  0  0  0  0  0  0  0  0  0  0
   55.1790   28.5160   53.3350 C   0  0  0  0  0  0  0  0  0  0  0  0
   55.5730   27.1830   53.8930 C   0  0  0  0  0  0  0  0  0  0  0  0
   56.0460   29.4470   52.8770 N   0  0  0  0  0  0  0  0  0  0  0  0
   57.4770   29.3130   52.8360 C   0  0  0  0  0  0  0  0  0  0  0  0
   58.1540   29.3760   51.6110 C   0  0  0  0  0  0  0  0  0  0  0  0
   59.5440   29.2420   51.5670 C   0  0  0  0  0  0  0  0  0  0  0  0
   60.2780   29.0610   52.7510 C   0  0  0  0  0  0  0  0  0  0  0  0
   61.7440   28.8820   52.6930 C   0  0  0  0  0  0  0  0  0  0  0  0
   62.2060   27.7350   52.4390 O   0  0  0  0  0  0  0  0  0  0  0  0
   62.6500   29.9780   52.9330 N   0  0  0  0  0  0  0  0  0  0  0  0
   62.6020   30.6900   54.2160 C   0  0  0  0  0  0  0  0  0  0  0  0
   63.4690   30.4950   51.8250 C   0  0  0  0  0  0  0  0  0  0  0  0
   62.5680   31.0020   50.6890 C   0  0  0  0  0  0  0  0  0  0  0  0
   61.3750   31.7020   51.2170 N   0  0  0  0  0  0  0  0  0  0  0  0
   60.4880   32.1050   50.1070 C   0  0  0  0  0  0  0  0  0  0  0  0
   59.1280   32.5890   50.6450 C   0  0  0  0  0  0  0  0  0  0  0  0
   59.2240   33.1300   52.0890 C   0  0  0  0  0  0  0  0  0  0  0  0
   58.0530   34.0660   52.4050 C   0  0  0  0  0  0  0  0  0  0  0  0
   60.5690   33.8370   52.3050 C   0  0  0  0  0  0  0  0  0  0  0  0
   61.7550   32.8810   52.0380 C   0  0  0  0  0  0  0  0  0  0  0  0
   59.5950   28.9890   53.9780 C   0  0  0  0  0  0  0  0  0  0  0  0
   58.2040   29.1190   54.0190 C   0  0  0  0  0  0  0  0  0  0  0  0
  1  2  2  0
  2  3  1  0
  3  4  2  0
  4  5  1  0
  5  6  1  0
  6  7  1  0
  7  8  2  0
  7  9  1  0
  9 10  1  0
 10 11  1  0
  3 12  1  0
 12 13  2  0
 13 14  1  0
 13 15  1  0
 15 16  1  0
 16 17  2  0
 17 18  1  0
 18 19  2  0
 19 20  1  0
 20 21  2  0
 20 22  1  0
 22 23  1  0
 22 24  1  0
 24 25  1  0
 25 26  1  0
 26 27  1  0
 27 28  1  0
 28 29  1  0
 29 30  1  0
 29 31  1  0
 31 32  1  0
 19 33  1  0
 33 34  2  0
 15  2  1  0
 34 16  1  0
 10  5  2  0
 32 26  1  0
M  CHG  3   6  -1   9  -1  11  -1
M  END
>  <UniqueID>  (1765) 
53

>  <SMILES>  (1765) 
C=c1/c(=C/c2[n-]c(=O)[n-]c2[O-])cc(C)n1-c1ccc(C(=O)N(C)CCN2CCC(C)CC2)cc1

>  <Energy>  (1765) 
143.52579787944774

>  <Genealogy>  (1765) 
C=c1c(=Cc2[n-]c(=O)[n-]c2[O-])cc(C)n1-c1ccc(C(=O)N(C)CCN2CCC(C)CC2)cc1 (protonated)
C=c1/c(=C/c2[n-]c(=O)[n-]c2[O-])cc(C)n1-c1ccc(C(=O)N(C)CCN2CCC(C)CC2)cc1 (cis-trans isomerization)
C=c1/c(=C/c2[n-]c(=O)[n-]c2[O-])cc(C)n1-c1ccc(C(=O)N(C)CCN2CCC(C)CC2)cc1 (3D coordinates assigned)
C=c1/c(=C/c2[n-]c(=O)[n-]c2[O-])cc(C)n1-c1ccc(C(=O)N(C)CCN2CCC(C)CC2)cc1 (nonaromatic ring conformer: 143.52579787944774 kcal/mol)

>  <smiles>  (1765) 
C=c1c(=Cc2[nH]c(=O)[nH]c2O)cc(C)n1-c1ccc(C(=O)N(C)CCN2CCC(C)CC2)cc1

>  <score_type>  (1765) 
oracle

>  <origin>  (1765) 
adg

>  <m_score__min__energy>  (1765) 
-16.579999999999998

>  <m_primary>  (1765) 
energy

$$$$
60:0
     RDKit          3D

 29 32  0  0  0  0  0  0  0  0999 V2000
   58.2780   29.2490   47.4290 C   0  0  0  0  0  0  0  0  0  0  0  0
   58.0550   30.0440   46.3700 C   0  0  0  0  0  0  0  0  0  0  0  0
   57.5070   29.6610   45.1310 C   0  0  0  0  0  0  0  0  0  0  0  0
   56.9830   28.4920   44.7090 C   0  0  0  0  0  0  0  0  0  0  0  0
   57.1540   27.1860   45.3590 C   0  0  0  0  0  0  0  0  0  0  0  0
   58.3360   26.5350   45.4320 N   0  0  0  0  0  0  0  0  0  0  0  0
   58.0220   25.3720   46.0490 C   0  0  0  0  0  0  0  0  0  0  0  0
   58.8860   24.5020   46.3470 O   0  0  0  0  0  0  0  0  0  0  0  0
   56.7060   25.2410   46.3270 N   0  0  0  0  0  0  0  0  0  0  0  0
   56.0450   24.1720   47.0770 C   0  0  0  0  0  0  0  0  0  0  0  0
   54.8500   23.5700   46.3560 C   0  0  0  0  0  0  0  0  0  0  0  0
   56.1560   22.7970   46.4340 C   0  0  0  0  0  0  0  0  0  0  0  0
   56.1600   26.3910   45.8960 C   0  0  0  0  0  0  0  0  0  0  0  0
   54.8100   26.7130   45.9920 O   0  0  0  0  0  0  0  0  0  0  0  0
   57.5450   30.7860   44.3290 C   0  0  0  0  0  0  0  0  0  0  0  0
   58.0630   31.8100   45.0920 C   0  0  0  0  0  0  0  0  0  0  0  0
   58.1290   33.2400   44.6350 C   0  0  0  0  0  0  0  0  0  0  0  0
   58.4020   31.3630   46.3270 N   0  0  0  0  0  0  0  0  0  0  0  0
   58.9690   32.1920   47.4120 C   0  0  0  0  0  0  0  0  0  0  0  0
   60.4360   32.5550   47.1750 C   0  0  0  0  0  0  0  0  0  0  0  0
   60.8150   33.8850   46.8230 C   0  0  0  0  0  0  0  0  0  0  0  0
   59.7990   34.9800   46.6110 C   0  0  0  0  0  0  0  0  0  0  0  0
   62.1770   34.2040   46.6740 C   0  0  0  0  0  0  0  0  0  0  0  0
   63.1610   33.2320   46.8370 C   0  0  0  0  0  0  0  0  0  0  0  0
   62.8030   31.9220   47.1350 C   0  0  0  0  0  0  0  0  0  0  0  0
   61.4540   31.5680   47.2860 C   0  0  0  0  0  0  0  0  0  0  0  0
   61.1550   30.1520   47.5430 C   0  0  0  0  0  0  0  0  0  0  0  0
   60.9940   29.7460   48.7230 O   0  0  0  0  0  0  0  0  0  0  0  0
   60.9930   29.2700   46.4810 O   0  0  0  0  0  0  0  0  0  0  0  0
  1  2  2  0
  2  3  1  0
  3  4  2  3
  4  5  1  0
  5  6  1  0
  6  7  1  0
  7  8  2  0
  7  9  1  0
  9 10  1  0
 10 11  1  0
 11 12  1  0
  9 13  1  0
 13 14  1  0
  3 15  1  0
 15 16  2  0
 16 17  1  0
 16 18  1  0
 18 19  1  0
 19 20  1  0
 20 21  2  0
 21 22  1  0
 21 23  1  0
 23 24  2  0
 24 25  1  0
 25 26  2  0
 26 27  1  0
 27 28  2  0
 27 29  1  0
 18  2  1  0
 26 20  1  0
 13  5  2  0
 12 10  1  0
M  CHG  3   6  -1  14  -1  29  -1
M  END
>  <UniqueID>  (1766) 
56

>  <SMILES>  (1766) 
C=c1c(=Cc2[n-]c(=O)n(C3CC3)c2[O-])cc(C)n1Cc1c(C)cccc1C(=O)[O-]

>  <Energy>  (1766) 
402.1468669180056

>  <Genealogy>  (1766) 
C=c1c(=Cc2[n-]c(=O)n(C3CC3)c2[O-])cc(C)n1Cc1c(C)cccc1C(=O)[O-] (protonated)
C=c1c(=Cc2[n-]c(=O)n(C3CC3)c2[O-])cc(C)n1Cc1c(C)cccc1C(=O)[O-] (3D coordinates assigned)
C=c1c(=Cc2[n-]c(=O)n(C3CC3)c2[O-])cc(C)n1Cc1c(C)cccc1C(=O)[O-] (nonaromatic ring conformer: 402.1468669180056 kcal/mol)

>  <smiles>  (1766) 
C=c1c(=Cc2[nH]c(=O)n(C3CC3)c2O)cc(C)n1Cc1c(C)cccc1C(=O)O

>  <score_type>  (1766) 
oracle

>  <origin>  (1766) 
adg

>  <m_score__min__energy>  (1766) 
-15.43

>  <m_primary>  (1766) 
energy

$$$$
65:0
     RDKit          3D

 38 41  0  0  0  0  0  0  0  0999 V2000
   54.9460   31.3670   52.3380 C   0  0  0  0  0  0  0  0  0  0  0  0
   55.0230   30.0790   52.7150 C   0  0  0  0  0  0  0  0  0  0  0  0
   53.9840   29.1330   52.6760 C   0  0  0  0  0  0  0  0  0  0  0  0
   52.7690   29.1790   52.0970 C   0  0  0  0  0  0  0  0  0  0  0  0
   52.2010   30.3500   51.4120 C   0  0  0  0  0  0  0  0  0  0  0  0
   51.8070   30.4190   49.7700 S   0  0  0  0  0  0  0  0  0  0  0  0
   51.0500   31.9080   49.9240 C   0  0  0  0  0  0  0  0  0  0  0  0
   50.5240   32.5390   48.9700 O   0  0  0  0  0  0  0  0  0  0  0  0
   51.0480   32.3570   51.1940 N   0  0  0  0  0  0  0  0  0  0  0  0
   51.6710   31.4820   52.0300 C   0  0  0  0  0  0  0  0  0  0  0  0
   51.7680   31.7320   53.3970 O   0  0  0  0  0  0  0  0  0  0  0  0
   54.4510   28.0110   53.3380 C   0  0  0  0  0  0  0  0  0  0  0  0
   55.7590   28.2700   53.6850 C   0  0  0  0  0  0  0  0  0  0  0  0
   56.6660   27.2840   54.3580 C   0  0  0  0  0  0  0  0  0  0  0  0
   56.1140   29.5230   53.3120 N   0  0  0  0  0  0  0  0  0  0  0  0
   57.4660   30.0910   53.4540 C   0  0  0  0  0  0  0  0  0  0  0  0
   57.8800   30.7940   52.1860 C   0  0  0  0  0  0  0  0  0  0  0  0
   58.0860   32.1870   52.1770 C   0  0  0  0  0  0  0  0  0  0  0  0
   58.5020   32.8330   51.0080 C   0  0  0  0  0  0  0  0  0  0  0  0
   58.7450   32.1020   49.8410 C   0  0  0  0  0  0  0  0  0  0  0  0
   59.1930   32.8030   48.6720 N   0  0  0  0  0  0  0  0  0  0  0  0
   58.7530   32.5890   47.3210 C   0  0  0  0  0  0  0  0  0  0  0  0
   58.4730   33.5700   46.5800 O   0  0  0  0  0  0  0  0  0  0  0  0
   58.5050   31.2130   46.8510 C   0  0  0  0  0  0  0  0  0  0  0  0
   59.2680   30.2920   47.2420 O   0  0  0  0  0  0  0  0  0  0  0  0
   57.3920   30.8670   46.0180 N   0  0  0  0  0  0  0  0  0  0  0  0
   57.2660   29.4380   45.0400 S   0  0  0  0  0  0  0  0  0  0  0  0
   55.8350   28.9930   44.9030 O   0  0  0  0  0  0  0  0  0  0  0  0
   57.8220   29.7280   43.6710 O   0  0  0  0  0  0  0  0  0  0  0  0
   58.2010   28.1470   45.8120 C   0  0  0  0  0  0  0  0  0  0  0  0
   57.5340   27.2170   46.6310 C   0  0  0  0  0  0  0  0  0  0  0  0
   58.2410   26.1830   47.2530 C   0  0  0  0  0  0  0  0  0  0  0  0
   59.6190   26.0620   47.0660 C   0  0  0  0  0  0  0  0  0  0  0  0
   60.2970   26.9690   46.2490 C   0  0  0  0  0  0  0  0  0  0  0  0
   59.6030   28.0200   45.6150 C   0  0  0  0  0  0  0  0  0  0  0  0
   60.3720   28.9700   44.7240 C   0  0  0  0  0  0  0  0  0  0  0  0
   58.4940   30.7170   49.8350 C   0  0  0  0  0  0  0  0  0  0  0  0
   58.0710   30.0700   50.9990 C   0  0  0  0  0  0  0  0  0  0  0  0
  1  2  2  0
  2  3  1  0
  3  4  2  3
  4  5  1  0
  5  6  1  0
  6  7  1  0
  7  8  2  0
  7  9  1  0
  9 10  1  0
 10 11  1  0
  3 12  1  0
 12 13  2  0
 13 14  1  0
 13 15  1  0
 15 16  1  0
 16 17  1  0
 17 18  2  0
 18 19  1  0
 19 20  2  0
 20 21  1  0
 21 22  1  0
 22 23  2  0
 22 24  1  0
 24 25  2  0
 24 26  1  0
 26 27  1  0
 27 28  2  0
 27 29  2  0
 27 30  1  0
 30 31  2  0
 31 32  1  0
 32 33  2  0
 33 34  1  0
 34 35  2  0
 35 36  1  0
 20 37  1  0
 37 38  2  0
 15  2  1  0
 38 17  1  0
 10  5  2  0
 35 30  1  0
M  CHG  3   9  -1  21  -1  26  -1
M  END
>  <UniqueID>  (1767) 
60

>  <SMILES>  (1767) 
C=c1c(=Cc2sc(=O)[n-]c2O)cc(C)n1Cc1ccc([N-]C(=O)C(=O)[N-]S(=O)(=O)c2ccccc2C)cc1

>  <Energy>  (1767) 
145.4795795470627

>  <Genealogy>  (1767) 
C=c1c(=Cc2sc(=O)[n-]c2O)cc(C)n1Cc1ccc([N-]C(=O)C(=O)[N-]S(=O)(=O)c2ccccc2C)cc1 (protonated)
C=c1c(=Cc2sc(=O)[n-]c2O)cc(C)n1Cc1ccc([N-]C(=O)C(=O)[N-]S(=O)(=O)c2ccccc2C)cc1 (3D coordinates assigned)
C=c1c(=Cc2sc(=O)[n-]c2O)cc(C)n1Cc1ccc([N-]C(=O)C(=O)[N-]S(=O)(=O)c2ccccc2C)cc1 (optimized conformer: 145.4795795470627 kcal/mol)

>  <smiles>  (1767) 
C=c1c(=Cc2sc(=O)[nH]c2O)cc(C)n1Cc1ccc(NC(=O)C(=O)NS(=O)(=O)c2ccccc2C)cc1

>  <score_type>  (1767) 
oracle

>  <origin>  (1767) 
adg

>  <m_score__min__energy>  (1767) 
-14.550000000000001

>  <m_primary>  (1767) 
energy

$$$$
69:0
     RDKit          3D

 30 33  0  0  0  0  0  0  0  0999 V2000
   60.0260   29.1770   44.9290 C   0  0  0  0  0  0  0  0  0  0  0  0
   59.5980   29.0660   46.1980 C   0  0  0  0  0  0  0  0  0  0  0  0
   58.5270   28.2790   46.6570 C   0  0  0  0  0  0  0  0  0  0  0  0
   57.5850   27.5810   45.9900 C   0  0  0  0  0  0  0  0  0  0  0  0
   57.1940   26.1830   46.2600 C   0  0  0  0  0  0  0  0  0  0  0  0
   55.8430   25.7940   46.2700 C   0  0  0  0  0  0  0  0  0  0  0  0
   54.8370   26.7100   45.9850 O   0  0  0  0  0  0  0  0  0  0  0  0
   55.5110   24.5100   46.5640 N   0  0  0  0  0  0  0  0  0  0  0  0
   56.4640   23.5930   46.8700 C   0  0  0  0  0  0  0  0  0  0  0  0
   56.1330   22.4080   47.1370 O   0  0  0  0  0  0  0  0  0  0  0  0
   57.7720   23.9530   46.8960 N   0  0  0  0  0  0  0  0  0  0  0  0
   58.1570   25.2230   46.6070 C   0  0  0  0  0  0  0  0  0  0  0  0
   59.3800   25.5240   46.6470 O   0  0  0  0  0  0  0  0  0  0  0  0
   58.5480   28.3610   48.0370 C   0  0  0  0  0  0  0  0  0  0  0  0
   59.5750   29.2140   48.3730 C   0  0  0  0  0  0  0  0  0  0  0  0
   59.8860   29.6490   49.7730 C   0  0  0  0  0  0  0  0  0  0  0  0
   60.2170   29.6480   47.2630 N   0  0  0  0  0  0  0  0  0  0  0  0
   61.3370   30.6070   47.2590 C   0  0  0  0  0  0  0  0  0  0  0  0
   60.8270   32.0220   47.3610 C   0  0  0  0  0  0  0  0  0  0  0  0
   61.0170   32.7580   48.5410 C   0  0  0  0  0  0  0  0  0  0  0  0
   60.5300   34.0630   48.6410 C   0  0  0  0  0  0  0  0  0  0  0  0
   59.8510   34.6440   47.5690 C   0  0  0  0  0  0  0  0  0  0  0  0
   59.6600   33.9290   46.3760 C   0  0  0  0  0  0  0  0  0  0  0  0
   58.9010   34.5660   45.2700 C   0  0  0  0  0  0  0  0  0  0  0  0
   59.2680   35.7130   44.8970 O   0  0  0  0  0  0  0  0  0  0  0  0
   57.7900   33.9420   44.5710 N   0  0  0  0  0  0  0  0  0  0  0  0
   57.0280   32.9990   45.3990 C   0  0  0  0  0  0  0  0  0  0  0  0
   57.3110   31.8360   44.4590 C   0  0  0  0  0  0  0  0  0  0  0  0
   58.0980   32.8480   43.6380 C   0  0  0  0  0  0  0  0  0  0  0  0
   60.1370   32.6090   46.2860 C   0  0  0  0  0  0  0  0  0  0  0  0
  1  2  2  0
  2  3  1  0
  3  4  2  0
  4  5  1  0
  5  6  2  0
  6  7  1  0
  6  8  1  0
  8  9  1  0
  9 10  2  0
  9 11  1  0
 11 12  1  0
 12 13  2  0
  3 14  1  0
 14 15  2  0
 15 16  1  0
 15 17  1  0
 17 18  1  0
 18 19  1  0
 19 20  2  0
 20 21  1  0
 21 22  2  0
 22 23  1  0
 23 24  1  0
 24 25  2  0
 24 26  1  0
 26 27  1  0
 27 28  1  0
 28 29  1  0
 23 30  2  0
 17  2  1  0
 30 19  1  0
 12  5  1  0
 29 26  1  0
M  CHG  4   7  -1   8  -1  11  -1  26   1
M  END
>  <UniqueID>  (1768) 
64

>  <SMILES>  (1768) 
C=c1/c(=C\c2c([O-])[n-]c(=O)[n-]c2=O)cc(C)n1Cc1cccc(C(=O)[NH+]2CCC2)c1

>  <Energy>  (1768) 
177.29974578654253

>  <Genealogy>  (1768) 
C=c1c(=Cc2c([O-])[n-]c(=O)[n-]c2=O)cc(C)n1Cc1cccc(C(=O)[NH+]2CCC2)c1 (protonated)
C=c1/c(=C\c2c([O-])[n-]c(=O)[n-]c2=O)cc(C)n1Cc1cccc(C(=O)[NH+]2CCC2)c1 (cis-trans isomerization)
C=c1/c(=C\c2c([O-])[n-]c(=O)[n-]c2=O)cc(C)n1Cc1cccc(C(=O)[NH+]2CCC2)c1 (3D coordinates assigned)
C=c1/c(=C\c2c([O-])[n-]c(=O)[n-]c2=O)cc(C)n1Cc1cccc(C(=O)[NH+]2CCC2)c1 (nonaromatic ring conformer: 177.29974578654253 kcal/mol)

>  <smiles>  (1768) 
C=c1c(=Cc2c(O)[nH]c(=O)[nH]c2=O)cc(C)n1Cc1cccc(C(=O)N2CCC2)c1

>  <score_type>  (1768) 
oracle

>  <origin>  (1768) 
adg

>  <m_score__min__energy>  (1768) 
-15.52

>  <m_primary>  (1768) 
energy

$$$$
70:0
     RDKit          3D

 26 28  0  0  0  0  0  0  0  0999 V2000
   58.0840   27.0650   47.5070 C   0  0  0  0  0  0  0  0  0  0  0  0
   57.9650   27.3450   46.1990 C   0  0  0  0  0  0  0  0  0  0  0  0
   57.7400   26.4320   45.1520 C   0  0  0  0  0  0  0  0  0  0  0  0
   57.4110   25.1230   45.1710 C   0  0  0  0  0  0  0  0  0  0  0  0
   56.0370   24.5870   45.2310 C   0  0  0  0  0  0  0  0  0  0  0  0
   54.9530   25.3960   45.6190 C   0  0  0  0  0  0  0  0  0  0  0  0
   55.1540   26.7200   45.9950 O   0  0  0  0  0  0  0  0  0  0  0  0
   53.6960   24.8860   45.6220 N   0  0  0  0  0  0  0  0  0  0  0  0
   53.4570   23.6060   45.2370 C   0  0  0  0  0  0  0  0  0  0  0  0
   52.2840   23.1540   45.2530 O   0  0  0  0  0  0  0  0  0  0  0  0
   54.4820   22.8150   44.8300 N   0  0  0  0  0  0  0  0  0  0  0  0
   55.7590   23.2770   44.8100 C   0  0  0  0  0  0  0  0  0  0  0  0
   56.6860   22.5180   44.4190 O   0  0  0  0  0  0  0  0  0  0  0  0
   57.9040   27.1880   43.9960 C   0  0  0  0  0  0  0  0  0  0  0  0
   57.7670   26.7150   42.5820 C   0  0  0  0  0  0  0  0  0  0  0  0
   58.1480   28.4650   44.3330 N   0  0  0  0  0  0  0  0  0  0  0  0
   58.1670   28.5760   45.6530 N   0  0  0  0  0  0  0  0  0  0  0  0
   58.4210   29.8540   46.3310 C   0  0  0  0  0  0  0  0  0  0  0  0
   57.7480   30.9850   45.5990 C   0  0  0  0  0  0  0  0  0  0  0  0
   56.9260   30.6980   44.6870 O   0  0  0  0  0  0  0  0  0  0  0  0
   58.0130   32.3700   45.9260 N   0  0  0  0  0  0  0  0  0  0  0  0
   58.6970   32.7210   47.1790 C   0  0  0  0  0  0  0  0  0  0  0  0
   58.9260   34.2320   47.2790 C   0  0  0  0  0  0  0  0  0  0  0  0
   59.4030   34.7560   45.9960 N   0  0  0  0  0  0  0  0  0  0  0  0
   58.3940   34.6250   44.9270 C   0  0  0  0  0  0  0  0  0  0  0  0
   57.4170   33.4430   45.1160 C   0  0  0  0  0  0  0  0  0  0  0  0
  1  2  2  0
  2  3  1  0
  3  4  2  3
  4  5  1  0
  5  6  2  0
  6  7  1  0
  6  8  1  0
  8  9  1  0
  9 10  2  0
  9 11  1  0
 11 12  1  0
 12 13  2  0
  3 14  1  0
 14 15  1  0
 14 16  2  0
 16 17  1  0
 17 18  1  0
 18 19  1  0
 19 20  2  0
 19 21  1  0
 21 22  1  0
 22 23  1  0
 23 24  1  0
 24 25  1  0
 25 26  1  0
 17  2  1  0
 26 21  1  0
 12  5  1  0
M  CHG  4   7  -1   8  -1  11  -1  16   1
M  END
>  <UniqueID>  (1769) 
65

>  <SMILES>  (1769) 
C=c1c(=Cc2c([O-])[n-]c(=O)[n-]c2=O)c(C)[nH+]n1CC(=O)N1CCNCC1

>  <Energy>  (1769) 
96.35382401300264

>  <Genealogy>  (1769) 
C=c1c(=Cc2c([O-])[n-]c(=O)[n-]c2=O)c(C)[nH+]n1CC(=O)N1CCNCC1 (protonated)
C=c1c(=Cc2c([O-])[n-]c(=O)[n-]c2=O)c(C)[nH+]n1CC(=O)N1CCNCC1 (3D coordinates assigned)
C=c1c(=Cc2c([O-])[n-]c(=O)[n-]c2=O)c(C)[nH+]n1CC(=O)N1CCNCC1 (nonaromatic ring conformer: 96.35382401300264 kcal/mol)

>  <smiles>  (1769) 
C=c1c(=Cc2c(O)[nH]c(=O)[nH]c2=O)c(C)nn1CC(=O)N1CCNCC1

>  <score_type>  (1769) 
oracle

>  <origin>  (1769) 
adg

>  <m_score__min__energy>  (1769) 
-14.69

>  <m_primary>  (1769) 
energy

$$$$
71:0
     RDKit          3D

 36 40  0  0  0  0  0  0  0  0999 V2000
   59.5550   27.8920   46.6880 C   0  0  0  0  0  0  0  0  0  0  0  0
   58.7070   28.6160   45.9360 C   0  0  0  0  0  0  0  0  0  0  0  0
   57.7850   28.1180   45.0030 C   0  0  0  0  0  0  0  0  0  0  0  0
   57.5560   26.8200   44.7060 C   0  0  0  0  0  0  0  0  0  0  0  0
   57.0620   25.7900   45.6470 C   0  0  0  0  0  0  0  0  0  0  0  0
   57.7460   24.7170   46.0800 N   0  0  0  0  0  0  0  0  0  0  0  0
   56.8750   24.0890   46.8960 C   0  0  0  0  0  0  0  0  0  0  0  0
   57.1580   23.0240   47.5020 O   0  0  0  0  0  0  0  0  0  0  0  0
   55.6740   24.6910   47.0090 N   0  0  0  0  0  0  0  0  0  0  0  0
   55.8070   25.7630   46.2120 C   0  0  0  0  0  0  0  0  0  0  0  0
   54.8010   26.6980   46.0020 O   0  0  0  0  0  0  0  0  0  0  0  0
   57.1600   29.2340   44.4480 C   0  0  0  0  0  0  0  0  0  0  0  0
   57.7070   30.3420   45.0620 C   0  0  0  0  0  0  0  0  0  0  0  0
   57.2830   31.7540   44.8090 C   0  0  0  0  0  0  0  0  0  0  0  0
   58.6490   29.9710   45.9590 N   0  0  0  0  0  0  0  0  0  0  0  0
   59.3660   30.8600   46.8350 C   0  0  0  0  0  0  0  0  0  0  0  0
   60.0430   31.9670   46.3110 C   0  0  0  0  0  0  0  0  0  0  0  0
   60.7440   32.8290   47.1550 C   0  0  0  0  0  0  0  0  0  0  0  0
   60.7910   32.5890   48.5340 C   0  0  0  0  0  0  0  0  0  0  0  0
   61.5700   33.5120   49.3780 C   0  0  0  0  0  0  0  0  0  0  0  0
   61.0360   34.5890   49.7570 O   0  0  0  0  0  0  0  0  0  0  0  0
   62.9180   33.2010   49.7670 N   0  0  0  0  0  0  0  0  0  0  0  0
   63.7020   34.0510   50.6440 C   0  0  0  0  0  0  0  0  0  0  0  0
   65.1100   33.4690   50.6300 C   0  0  0  0  0  0  0  0  0  0  0  0
   64.9790   32.0650   50.0410 C   0  0  0  0  0  0  0  0  0  0  0  0
   63.6550   32.0430   49.2940 C   0  0  0  0  0  0  0  0  0  0  0  0
   60.1230   31.4630   49.0740 C   0  0  0  0  0  0  0  0  0  0  0  0
   60.1260   31.1800   50.5320 C   0  0  0  0  0  0  0  0  0  0  0  0
   61.0570   30.4790   51.0150 O   0  0  0  0  0  0  0  0  0  0  0  0
   59.1080   31.7020   51.4120 N   0  0  0  0  0  0  0  0  0  0  0  0
   59.4450   31.9680   52.8160 C   0  0  0  0  0  0  0  0  0  0  0  0
   58.1920   32.3330   53.6160 C   0  0  0  0  0  0  0  0  0  0  0  0
   57.1270   31.3770   53.2950 N   0  0  0  0  0  0  0  0  0  0  0  0
   56.6770   31.4810   51.8920 C   0  0  0  0  0  0  0  0  0  0  0  0
   57.7560   32.0180   50.9260 C   0  0  0  0  0  0  0  0  0  0  0  0
   59.4060   30.6150   48.2130 C   0  0  0  0  0  0  0  0  0  0  0  0
  1  2  2  0
  2  3  1  0
  3  4  2  0
  4  5  1  0
  5  6  1  0
  6  7  1  0
  7  8  2  0
  7  9  1  0
  9 10  1  0
 10 11  1  0
  3 12  1  0
 12 13  2  0
 13 14  1  0
 13 15  1  0
 15 16  1  0
 16 17  2  0
 17 18  1  0
 18 19  2  0
 19 20  1  0
 20 21  2  0
 20 22  1  0
 22 23  1  0
 23 24  1  0
 24 25  1  0
 25 26  1  0
 19 27  1  0
 27 28  1  0
 28 29  2  0
 28 30  1  0
 30 31  1  0
 31 32  1  0
 32 33  1  0
 33 34  1  0
 34 35  1  0
 27 36  2  0
 15  2  1  0
 36 16  1  0
 10  5  2  0
 26 22  1  0
 35 30  1  0
M  CHG  3   6  -1   9  -1  11  -1
M  END
>  <UniqueID>  (1770) 
66

>  <SMILES>  (1770) 
C=c1/c(=C/c2[n-]c(=O)[n-]c2[O-])cc(C)n1-c1ccc(C(=O)N2CCCC2)c(C(=O)N2CCNCC2)c1

>  <Energy>  (1770) 
148.98333350791552

>  <Genealogy>  (1770) 
C=c1c(=Cc2[n-]c(=O)[n-]c2[O-])cc(C)n1-c1ccc(C(=O)N2CCCC2)c(C(=O)N2CCNCC2)c1 (protonated)
C=c1/c(=C/c2[n-]c(=O)[n-]c2[O-])cc(C)n1-c1ccc(C(=O)N2CCCC2)c(C(=O)N2CCNCC2)c1 (cis-trans isomerization)
C=c1/c(=C/c2[n-]c(=O)[n-]c2[O-])cc(C)n1-c1ccc(C(=O)N2CCCC2)c(C(=O)N2CCNCC2)c1 (3D coordinates assigned)
C=c1/c(=C/c2[n-]c(=O)[n-]c2[O-])cc(C)n1-c1ccc(C(=O)N2CCCC2)c(C(=O)N2CCNCC2)c1 (nonaromatic ring conformer: 148.98333350791552 kcal/mol)

>  <smiles>  (1770) 
C=c1c(=Cc2[nH]c(=O)[nH]c2O)cc(C)n1-c1ccc(C(=O)N2CCCC2)c(C(=O)N2CCNCC2)c1

>  <score_type>  (1770) 
oracle

>  <origin>  (1770) 
adg

>  <m_score__min__energy>  (1770) 
-17.02

>  <m_primary>  (1770) 
energy

$$$$
74:0
     RDKit          3D

 32 35  0  0  0  0  0  0  0  0999 V2000
   53.6500   29.9350   54.9270 C   0  0  0  0  0  0  0  0  0  0  0  0
   54.2370   30.2790   53.7700 C   0  0  0  0  0  0  0  0  0  0  0  0
   53.5870   30.4140   52.5380 C   0  0  0  0  0  0  0  0  0  0  0  0
   52.2630   30.3480   52.2980 C   0  0  0  0  0  0  0  0  0  0  0  0
   51.6320   30.7890   51.0420 C   0  0  0  0  0  0  0  0  0  0  0  0
   51.6150   30.0420   49.9220 N   0  0  0  0  0  0  0  0  0  0  0  0
   51.0250   30.8500   49.0160 C   0  0  0  0  0  0  0  0  0  0  0  0
   50.8150   30.4940   47.8270 O   0  0  0  0  0  0  0  0  0  0  0  0
   50.6880   32.0730   49.4780 N   0  0  0  0  0  0  0  0  0  0  0  0
   51.0900   32.0230   50.7580 C   0  0  0  0  0  0  0  0  0  0  0  0
   51.0060   33.1010   51.6310 O   0  0  0  0  0  0  0  0  0  0  0  0
   54.5760   30.6700   51.6040 C   0  0  0  0  0  0  0  0  0  0  0  0
   55.7760   30.6800   52.2850 C   0  0  0  0  0  0  0  0  0  0  0  0
   57.0850   30.9000   51.6270 C   0  0  0  0  0  0  0  0  0  0  0  0
   57.4590   30.1030   50.7260 O   0  0  0  0  0  0  0  0  0  0  0  0
   57.9510   31.9850   52.0230 N   0  0  0  0  0  0  0  0  0  0  0  0
   59.4080   31.8330   51.9270 C   0  0  0  0  0  0  0  0  0  0  0  0
   60.0550   33.1870   51.6200 C   0  0  0  0  0  0  0  0  0  0  0  0
   59.6200   34.1740   52.5350 O   0  0  0  0  0  0  0  0  0  0  0  0
   58.2330   34.3990   52.3690 C   0  0  0  0  0  0  0  0  0  0  0  0
   57.4300   33.1510   52.7460 C   0  0  0  0  0  0  0  0  0  0  0  0
   55.5750   30.4810   53.6140 N   0  0  0  0  0  0  0  0  0  0  0  0
   56.6250   30.3220   54.6370 C   0  0  0  0  0  0  0  0  0  0  0  0
   57.6020   29.2020   54.3200 C   0  0  0  0  0  0  0  0  0  0  0  0
   58.9630   29.5330   54.1630 C   0  0  0  0  0  0  0  0  0  0  0  0
   59.9230   28.5410   53.9570 C   0  0  0  0  0  0  0  0  0  0  0  0
   59.5480   27.2000   53.9290 C   0  0  0  0  0  0  0  0  0  0  0  0
   58.2110   26.8460   54.1060 C   0  0  0  0  0  0  0  0  0  0  0  0
   57.2290   27.8300   54.2960 C   0  0  0  0  0  0  0  0  0  0  0  0
   55.8450   27.3770   54.4890 C   0  0  0  0  0  0  0  0  0  0  0  0
   55.1080   27.1430   53.4950 O   0  0  0  0  0  0  0  0  0  0  0  0
   55.3780   27.1080   55.7690 O   0  0  0  0  0  0  0  0  0  0  0  0
  1  2  2  0
  2  3  1  0
  3  4  2  3
  4  5  1  0
  5  6  1  0
  6  7  1  0
  7  8  2  0
  7  9  1  0
  9 10  1  0
 10 11  1  0
  3 12  1  0
 12 13  2  0
 13 14  1  0
 14 15  2  0
 14 16  1  0
 16 17  1  0
 17 18  1  0
 18 19  1  0
 19 20  1  0
 20 21  1  0
 13 22  1  0
 22 23  1  0
 23 24  1  0
 24 25  2  0
 25 26  1  0
 26 27  2  0
 27 28  1  0
 28 29  2  0
 29 30  1  0
 30 31  2  0
 30 32  1  0
 22  2  1  0
 29 24  1  0
 10  5  2  0
 21 16  1  0
M  CHG  4   6  -1   9  -1  11  -1  32  -1
M  END
>  <UniqueID>  (1771) 
69

>  <SMILES>  (1771) 
C=c1c(=Cc2[n-]c(=O)[n-]c2[O-])cc(C(=O)N2CCOCC2)n1Cc1ccccc1C(=O)[O-]

>  <Energy>  (1771) 
136.28469368764846

>  <Genealogy>  (1771) 
C=c1c(=Cc2[n-]c(=O)[n-]c2[O-])cc(C(=O)N2CCOCC2)n1Cc1ccccc1C(=O)[O-] (protonated)
C=c1c(=Cc2[n-]c(=O)[n-]c2[O-])cc(C(=O)N2CCOCC2)n1Cc1ccccc1C(=O)[O-] (3D coordinates assigned)
C=c1c(=Cc2[n-]c(=O)[n-]c2[O-])cc(C(=O)N2CCOCC2)n1Cc1ccccc1C(=O)[O-] (nonaromatic ring conformer: 136.28469368764846 kcal/mol)

>  <smiles>  (1771) 
C=c1c(=Cc2[nH]c(=O)[nH]c2O)cc(C(=O)N2CCOCC2)n1Cc1ccccc1C(=O)O

>  <score_type>  (1771) 
oracle

>  <origin>  (1771) 
adg

>  <m_score__min__energy>  (1771) 
-16.73

>  <m_primary>  (1771) 
energy

$$$$
78:0
     RDKit          3D

 30 32  0  0  0  0  0  0  0  0999 V2000
   60.5390   29.2880   49.2240 C   0  0  0  0  0  0  0  0  0  0  0  0
   60.2590   28.7890   48.0010 C   0  0  0  0  0  0  0  0  0  0  0  0
   59.9120   27.4230   47.8660 C   0  0  0  0  0  0  0  0  0  0  0  0
   59.9270   26.6640   48.8760 O   0  0  0  0  0  0  0  0  0  0  0  0
   59.5840   26.9200   46.5850 C   0  0  0  0  0  0  0  0  0  0  0  0
   59.2120   25.6460   46.3340 C   0  0  0  0  0  0  0  0  0  0  0  0
   57.8870   25.2020   45.8540 C   0  0  0  0  0  0  0  0  0  0  0  0
   57.7350   23.9470   45.2430 C   0  0  0  0  0  0  0  0  0  0  0  0
   56.4700   23.5090   44.8380 C   0  0  0  0  0  0  0  0  0  0  0  0
   55.3480   24.3120   45.0590 C   0  0  0  0  0  0  0  0  0  0  0  0
   55.4870   25.5510   45.6940 C   0  0  0  0  0  0  0  0  0  0  0  0
   54.3660   26.3400   45.9220 O   0  0  0  0  0  0  0  0  0  0  0  0
   56.7520   25.9930   46.1000 C   0  0  0  0  0  0  0  0  0  0  0  0
   56.8760   27.1940   46.7220 F   0  0  0  0  0  0  0  0  0  0  0  0
   59.6720   27.7570   45.5230 N   0  0  0  0  0  0  0  0  0  0  0  0
   60.0230   29.0590   45.6450 C   0  0  0  0  0  0  0  0  0  0  0  0
   60.0810   29.7740   44.6080 O   0  0  0  0  0  0  0  0  0  0  0  0
   60.3090   29.5880   46.8750 N   0  0  0  0  0  0  0  0  0  0  0  0
   60.6720   30.9820   46.9500 C   0  0  0  0  0  0  0  0  0  0  0  0
   61.9330   31.3530   47.4330 C   0  0  0  0  0  0  0  0  0  0  0  0
   62.2960   32.7080   47.5090 C   0  0  0  0  0  0  0  0  0  0  0  0
   63.6280   33.1010   48.0230 C   0  0  0  0  0  0  0  0  0  0  0  0
   64.1300   34.2140   47.7140 O   0  0  0  0  0  0  0  0  0  0  0  0
   64.3430   32.2470   48.8550 O   0  0  0  0  0  0  0  0  0  0  0  0
   61.3780   33.6880   47.0920 C   0  0  0  0  0  0  0  0  0  0  0  0
   60.1110   33.3250   46.6020 C   0  0  0  0  0  0  0  0  0  0  0  0
   59.1530   34.3660   46.1660 C   0  0  0  0  0  0  0  0  0  0  0  0
   57.9140   34.1330   46.1530 O   0  0  0  0  0  0  0  0  0  0  0  0
   59.6060   35.6170   45.7630 O   0  0  0  0  0  0  0  0  0  0  0  0
   59.7670   31.9650   46.5350 C   0  0  0  0  0  0  0  0  0  0  0  0
  1  2  2  0
  2  3  1  0
  3  4  2  0
  3  5  1  0
  5  6  2  0
  6  7  1  0
  7  8  2  0
  8  9  1  0
  9 10  2  0
 10 11  1  0
 11 12  1  0
 11 13  2  0
 13 14  1  0
  5 15  1  0
 15 16  1  0
 16 17  2  0
 16 18  1  0
 18 19  1  0
 19 20  2  0
 20 21  1  0
 21 22  1  0
 22 23  2  0
 22 24  1  0
 21 25  2  0
 25 26  1  0
 26 27  1  0
 27 28  2  0
 27 29  1  0
 26 30  2  0
 18  2  1  0
 30 19  1  0
 13  7  1  0
M  CHG  4  12  -1  15  -1  24  -1  29  -1
M  END
>  <UniqueID>  (1772) 
73

>  <SMILES>  (1772) 
C=c1c(=O)/c(=C\c2cccc([O-])c2F)[n-]c(=O)n1-c1cc(C(=O)[O-])cc(C(=O)[O-])c1

>  <Energy>  (1772) 
72.50778954245641

>  <Genealogy>  (1772) 
C=c1c(=O)c(=Cc2cccc([O-])c2F)[n-]c(=O)n1-c1cc(C(=O)[O-])cc(C(=O)[O-])c1 (protonated)
C=c1c(=O)/c(=C\c2cccc([O-])c2F)[n-]c(=O)n1-c1cc(C(=O)[O-])cc(C(=O)[O-])c1 (cis-trans isomerization)
C=c1c(=O)/c(=C\c2cccc([O-])c2F)[n-]c(=O)n1-c1cc(C(=O)[O-])cc(C(=O)[O-])c1 (3D coordinates assigned)
C=c1c(=O)/c(=C\c2cccc([O-])c2F)[n-]c(=O)n1-c1cc(C(=O)[O-])cc(C(=O)[O-])c1 (optimized conformer: 72.50778954245641 kcal/mol)

>  <smiles>  (1772) 
C=c1c(=O)c(=Cc2cccc(O)c2F)[nH]c(=O)n1-c1cc(C(=O)O)cc(C(=O)O)c1

>  <score_type>  (1772) 
oracle

>  <origin>  (1772) 
adg

>  <m_score__min__energy>  (1772) 
-14.15

>  <m_primary>  (1772) 
energy

$$$$
79:0
     RDKit          3D

 32 35  0  0  0  0  0  0  0  0999 V2000
   57.1310   34.0430   45.5160 C   0  0  0  0  0  0  0  0  0  0  0  0
   56.8960   32.8740   44.8660 N   0  0  0  0  0  0  0  0  0  0  0  0
   57.6140   31.7420   45.1000 C   0  0  0  0  0  0  0  0  0  0  0  0
   57.2830   30.6710   44.4290 N   0  0  0  0  0  0  0  0  0  0  0  0
   56.4140   29.5900   44.8040 C   0  0  0  0  0  0  0  0  0  0  0  0
   55.2220   29.8250   45.1400 O   0  0  0  0  0  0  0  0  0  0  0  0
   56.8050   28.2380   44.5460 N   0  0  0  0  0  0  0  0  0  0  0  0
   57.1420   27.3120   45.4000 C   0  0  0  0  0  0  0  0  0  0  0  0
   58.4680   27.0350   45.5420 N   0  0  0  0  0  0  0  0  0  0  0  0
   58.9320   26.0880   46.3990 C   0  0  0  0  0  0  0  0  0  0  0  0
   58.0400   25.3500   47.1730 C   0  0  0  0  0  0  0  0  0  0  0  0
   56.6720   25.5870   47.0450 C   0  0  0  0  0  0  0  0  0  0  0  0
   56.2050   26.5530   46.1490 C   0  0  0  0  0  0  0  0  0  0  0  0
   54.8330   26.6960   45.9900 O   0  0  0  0  0  0  0  0  0  0  0  0
   58.7000   31.7950   46.0170 C   0  0  0  0  0  0  0  0  0  0  0  0
   59.5570   30.6950   46.1670 O   0  0  0  0  0  0  0  0  0  0  0  0
   59.2640   29.5180   46.9130 C   0  0  0  0  0  0  0  0  0  0  0  0
   59.9640   29.6050   48.2370 C   0  0  0  0  0  0  0  0  0  0  0  0
   60.2770   28.4430   48.9580 C   0  0  0  0  0  0  0  0  0  0  0  0
   60.9800   28.5310   50.1620 C   0  0  0  0  0  0  0  0  0  0  0  0
   61.3840   29.7770   50.6500 C   0  0  0  0  0  0  0  0  0  0  0  0
   61.0880   30.9470   49.9320 C   0  0  0  0  0  0  0  0  0  0  0  0
   61.5530   32.2910   50.4290 C   0  0  0  0  0  0  0  0  0  0  0  0
   62.8630   32.6490   49.8400 N   0  0  0  0  0  0  0  0  0  0  0  0
   62.8510   33.9720   49.1770 C   0  0  0  0  0  0  0  0  0  0  0  0
   62.0680   33.9560   47.8450 C   0  0  0  0  0  0  0  0  0  0  0  0
   62.1650   32.6760   47.1220 N   0  0  0  0  0  0  0  0  0  0  0  0
   63.3840   31.9400   47.4650 C   0  0  0  0  0  0  0  0  0  0  0  0
   63.4050   31.5800   48.9640 C   0  0  0  0  0  0  0  0  0  0  0  0
   60.3800   30.8530   48.7230 C   0  0  0  0  0  0  0  0  0  0  0  0
   58.9290   32.9950   46.7170 C   0  0  0  0  0  0  0  0  0  0  0  0
   58.1430   34.1170   46.4680 C   0  0  0  0  0  0  0  0  0  0  0  0
  1  2  1  0
  2  3  1  0
  3  4  2  3
  4  5  1  0
  5  6  2  0
  5  7  1  0
  7  8  2  0
  8  9  1  0
  9 10  1  0
 10 11  2  0
 11 12  1  0
 12 13  2  0
 13 14  1  0
  3 15  1  0
 15 16  1  0
 16 17  1  0
 17 18  1  0
 18 19  2  0
 19 20  1  0
 20 21  2  0
 21 22  1  0
 22 23  1  0
 23 24  1  0
 24 25  1  0
 25 26  1  0
 26 27  1  0
 27 28  1  0
 28 29  1  0
 22 30  2  0
 15 31  2  0
 31 32  1  0
 32  1  2  0
 13  8  1  0
 30 18  1  0
 29 24  1  0
M  CHG  3   2  -1   9  -1  14  -1
M  END
>  <UniqueID>  (1773) 
74

>  <SMILES>  (1773) 
O=C(N=c1[n-]cccc1OCc1cccc(CN2CCNCC2)c1)/N=c1/[n-]cccc1[O-]

>  <Energy>  (1773) 
88.0804860709483

>  <Genealogy>  (1773) 
O=C(N=c1[n-]cccc1[O-])N=c1[n-]cccc1OCc1cccc(CN2CCNCC2)c1 (protonated)
O=C(N=c1[n-]cccc1OCc1cccc(CN2CCNCC2)c1)/N=c1/[n-]cccc1[O-] (cis-trans isomerization)
O=C(N=c1[n-]cccc1OCc1cccc(CN2CCNCC2)c1)/N=c1/[n-]cccc1[O-] (3D coordinates assigned)
O=C(N=c1[n-]cccc1OCc1cccc(CN2CCNCC2)c1)/N=c1/[n-]cccc1[O-] (nonaromatic ring conformer: 88.0804860709483 kcal/mol)

>  <smiles>  (1773) 
O=C(N=c1[nH]cccc1O)N=c1[nH]cccc1OCc1cccc(CN2CCNCC2)c1

>  <score_type>  (1773) 
oracle

>  <origin>  (1773) 
adg

>  <m_score__min__energy>  (1773) 
-15.630000000000001

>  <m_primary>  (1773) 
energy

$$$$
84:0
     RDKit          3D

 26 29  0  0  0  0  0  0  0  0999 V2000
   58.8140   28.4160   46.8890 C   0  0  0  0  0  0  0  0  0  0  0  0
   58.2130   28.7720   45.7430 C   0  0  0  0  0  0  0  0  0  0  0  0
   57.7940   27.9220   44.7060 C   0  0  0  0  0  0  0  0  0  0  0  0
   57.7170   26.5780   44.6360 C   0  0  0  0  0  0  0  0  0  0  0  0
   57.2050   25.6900   45.6930 C   0  0  0  0  0  0  0  0  0  0  0  0
   57.9350   24.7510   46.3240 N   0  0  0  0  0  0  0  0  0  0  0  0
   57.1010   24.3070   47.2900 C   0  0  0  0  0  0  0  0  0  0  0  0
   57.4230   23.3960   48.0960 O   0  0  0  0  0  0  0  0  0  0  0  0
   55.9010   24.9240   47.3320 N   0  0  0  0  0  0  0  0  0  0  0  0
   55.9910   25.8070   46.3230 C   0  0  0  0  0  0  0  0  0  0  0  0
   54.9850   26.7040   45.9890 O   0  0  0  0  0  0  0  0  0  0  0  0
   57.4010   28.7450   43.6640 C   0  0  0  0  0  0  0  0  0  0  0  0
   57.5330   30.0440   44.1080 C   0  0  0  0  0  0  0  0  0  0  0  0
   57.1920   31.2580   43.2980 C   0  0  0  0  0  0  0  0  0  0  0  0
   58.0140   30.0630   45.3710 N   0  0  0  0  0  0  0  0  0  0  0  0
   58.3400   31.2500   46.1150 C   0  0  0  0  0  0  0  0  0  0  0  0
   59.6560   31.4120   47.1520 S   0  0  0  0  0  0  0  0  0  0  0  0
   59.3850   33.0400   47.4950 C   0  0  0  0  0  0  0  0  0  0  0  0
   60.2080   33.8640   48.3890 C   0  0  0  0  0  0  0  0  0  0  0  0
   59.7420   34.2530   49.4950 O   0  0  0  0  0  0  0  0  0  0  0  0
   61.5350   34.2240   48.0020 N   0  0  0  0  0  0  0  0  0  0  0  0
   62.2700   33.5020   46.9710 C   0  0  0  0  0  0  0  0  0  0  0  0
   63.7720   33.5570   47.1700 C   0  0  0  0  0  0  0  0  0  0  0  0
   63.0050   32.2830   47.4940 C   0  0  0  0  0  0  0  0  0  0  0  0
   58.2680   33.4730   46.7840 C   0  0  0  0  0  0  0  0  0  0  0  0
   57.6870   32.4690   46.0020 C   0  0  0  0  0  0  0  0  0  0  0  0
  1  2  2  0
  2  3  1  0
  3  4  2  0
  4  5  1  0
  5  6  1  0
  6  7  1  0
  7  8  2  0
  7  9  1  0
  9 10  1  0
 10 11  1  0
  3 12  1  0
 12 13  2  0
 13 14  1  0
 13 15  1  0
 15 16  1  0
 16 17  1  0
 17 18  1  0
 18 19  1  0
 19 20  2  0
 19 21  1  0
 21 22  1  0
 22 23  1  0
 23 24  1  0
 18 25  2  0
 25 26  1  0
 15  2  1  0
 26 16  2  0
 10  5  2  0
 24 22  1  0
M  CHG  4   6  -1   9  -1  11  -1  21  -1
M  END
>  <UniqueID>  (1774) 
79

>  <SMILES>  (1774) 
C=c1/c(=C\c2[n-]c(=O)[n-]c2[O-])cc(C)n1-c1ccc(C(=O)[N-]C2CC2)s1

>  <Energy>  (1774) 
406.5538971833405

>  <Genealogy>  (1774) 
C=c1c(=Cc2[n-]c(=O)[n-]c2[O-])cc(C)n1-c1ccc(C(=O)[N-]C2CC2)s1 (protonated)
C=c1/c(=C\c2[n-]c(=O)[n-]c2[O-])cc(C)n1-c1ccc(C(=O)[N-]C2CC2)s1 (cis-trans isomerization)
C=c1/c(=C\c2[n-]c(=O)[n-]c2[O-])cc(C)n1-c1ccc(C(=O)[N-]C2CC2)s1 (3D coordinates assigned)
C=c1/c(=C\c2[n-]c(=O)[n-]c2[O-])cc(C)n1-c1ccc(C(=O)[N-]C2CC2)s1 (nonaromatic ring conformer: 406.5538971833405 kcal/mol)

>  <smiles>  (1774) 
C=c1c(=Cc2[nH]c(=O)[nH]c2O)cc(C)n1-c1ccc(C(=O)NC2CC2)s1

>  <score_type>  (1774) 
oracle

>  <origin>  (1774) 
adg

>  <m_score__min__energy>  (1774) 
-16.210000000000001

>  <m_primary>  (1774) 
energy

$$$$
12:0
     RDKit          3D

 26 29  0  0  0  0  0  0  0  0999 V2000
   58.3380   30.1750   44.1690 C   0  0  0  0  0  0  0  0  0  0  0  0
   58.2730   29.8390   45.4670 C   0  0  0  0  0  0  0  0  0  0  0  0
   58.1000   28.5550   46.0080 C   0  0  0  0  0  0  0  0  0  0  0  0
   57.7620   27.3890   45.4260 C   0  0  0  0  0  0  0  0  0  0  0  0
   57.2380   26.2060   46.1280 C   0  0  0  0  0  0  0  0  0  0  0  0
   57.9720   25.1510   46.5220 N   0  0  0  0  0  0  0  0  0  0  0  0
   57.0680   24.2580   46.9720 C   0  0  0  0  0  0  0  0  0  0  0  0
   57.3880   23.1320   47.4360 O   0  0  0  0  0  0  0  0  0  0  0  0
   55.7870   24.6720   46.8690 N   0  0  0  0  0  0  0  0  0  0  0  0
   55.9120   25.8950   46.3190 C   0  0  0  0  0  0  0  0  0  0  0  0
   54.8340   26.7090   45.9950 O   0  0  0  0  0  0  0  0  0  0  0  0
   58.3410   28.6730   47.3690 C   0  0  0  0  0  0  0  0  0  0  0  0
   58.5750   30.0100   47.6180 C   0  0  0  0  0  0  0  0  0  0  0  0
   58.9020   30.5890   48.9600 C   0  0  0  0  0  0  0  0  0  0  0  0
   58.5210   30.7170   46.4700 N   0  0  0  0  0  0  0  0  0  0  0  0
   58.8300   32.1120   46.3410 C   0  0  0  0  0  0  0  0  0  0  0  0
   57.8180   33.0320   46.0010 C   0  0  0  0  0  0  0  0  0  0  0  0
   58.1060   34.4090   45.8890 C   0  0  0  0  0  0  0  0  0  0  0  0
   59.4090   34.8840   46.1150 C   0  0  0  0  0  0  0  0  0  0  0  0
   60.3940   33.9570   46.4440 C   0  0  0  0  0  0  0  0  0  0  0  0
   61.6930   34.2080   46.6900 N   0  0  0  0  0  0  0  0  0  0  0  0
   62.1870   32.9710   46.9450 C   0  0  0  0  0  0  0  0  0  0  0  0
   63.3990   32.7730   47.2310 O   0  0  0  0  0  0  0  0  0  0  0  0
   61.2690   31.9770   46.8630 N   0  0  0  0  0  0  0  0  0  0  0  0
   61.4920   30.5490   47.0880 C   0  0  0  0  0  0  0  0  0  0  0  0
   60.1250   32.6180   46.5520 C   0  0  0  0  0  0  0  0  0  0  0  0
  1  2  2  0
  2  3  1  0
  3  4  2  3
  4  5  1  0
  5  6  1  0
  6  7  1  0
  7  8  2  0
  7  9  1  0
  9 10  1  0
 10 11  1  0
  3 12  1  0
 12 13  2  0
 13 14  1  0
 13 15  1  0
 15 16  1  0
 16 17  2  0
 17 18  1  0
 18 19  2  0
 19 20  1  0
 20 21  1  0
 21 22  1  0
 22 23  2  0
 22 24  1  0
 24 25  1  0
 24 26  1  0
 15  2  1  0
 26 16  1  0
 10  5  2  0
 26 20  2  0
M  CHG  3   9  -1  11  -1  21  -1
M  END
>  <UniqueID>  (1775) 
11

>  <SMILES>  (1775) 
C=c1c(=Cc2[nH]c(=O)[n-]c2[O-])cc(C)n1-c1cccc2[n-]c(=O)n(C)c12

>  <Energy>  (1775) 
158.28073500926044

>  <Genealogy>  (1775) 
C=c1c(=Cc2[nH]c(=O)[n-]c2[O-])cc(C)n1-c1cccc2[n-]c(=O)n(C)c12 (protonated)
C=c1c(=Cc2[nH]c(=O)[n-]c2[O-])cc(C)n1-c1cccc2[n-]c(=O)n(C)c12 (3D coordinates assigned)
C=c1c(=Cc2[nH]c(=O)[n-]c2[O-])cc(C)n1-c1cccc2[n-]c(=O)n(C)c12 (optimized conformer: 158.28073500926044 kcal/mol)

>  <smiles>  (1775) 
C=c1c(=Cc2[nH]c(=O)[nH]c2O)cc(C)n1-c1cccc2[nH]c(=O)n(C)c12

>  <score_type>  (1775) 
oracle

>  <origin>  (1775) 
adg

>  <m_score__min__energy>  (1775) 
-15.07

>  <m_primary>  (1775) 
energy

$$$$
13:0
     RDKit          3D

 28 31  0  0  0  0  0  0  0  0999 V2000
   58.9510   29.7230   44.3950 O   0  0  0  0  0  0  0  0  0  0  0  0
   57.7320   29.1710   44.7730 C   0  0  0  0  0  0  0  0  0  0  0  0
   57.5880   27.9270   45.2600 N   0  0  0  0  0  0  0  0  0  0  0  0
   56.2660   27.8640   45.5230 C   0  0  0  0  0  0  0  0  0  0  0  0
   55.7200   26.8400   46.0070 O   0  0  0  0  0  0  0  0  0  0  0  0
   55.5750   28.9890   45.2350 N   0  0  0  0  0  0  0  0  0  0  0  0
   56.5140   29.8070   44.7320 C   0  0  0  0  0  0  0  0  0  0  0  0
   56.2700   31.2060   44.3650 C   0  0  0  0  0  0  0  0  0  0  0  0
   57.2200   32.1640   44.3170 C   0  0  0  0  0  0  0  0  0  0  0  0
   58.0520   32.5390   43.2550 C   0  0  0  0  0  0  0  0  0  0  0  0
   58.0800   32.0060   41.8560 C   0  0  0  0  0  0  0  0  0  0  0  0
   58.8490   33.5540   43.6430 N   0  0  0  0  0  0  0  0  0  0  0  0
   58.5560   33.8590   44.8960 N   0  0  0  0  0  0  0  0  0  0  0  0
   59.2830   34.8890   45.6420 C   0  0  0  0  0  0  0  0  0  0  0  0
   60.0830   34.2640   46.7550 C   0  0  0  0  0  0  0  0  0  0  0  0
   61.4070   33.8570   46.5390 C   0  0  0  0  0  0  0  0  0  0  0  0
   62.1470   33.2970   47.5800 C   0  0  0  0  0  0  0  0  0  0  0  0
   61.5730   33.1320   48.8430 C   0  0  0  0  0  0  0  0  0  0  0  0
   60.2420   33.5220   49.0800 C   0  0  0  0  0  0  0  0  0  0  0  0
   59.6510   33.3430   50.4330 C   0  0  0  0  0  0  0  0  0  0  0  0
   58.4730   32.6770   50.6080 N   0  0  0  0  0  0  0  0  0  0  0  0
   58.1060   32.6180   51.9060 C   0  0  0  0  0  0  0  0  0  0  0  0
   56.8280   32.0080   52.3720 C   0  0  0  0  0  0  0  0  0  0  0  0
   59.2010   33.4200   52.8910 S   0  0  0  0  0  0  0  0  0  0  0  0
   60.2130   33.8380   51.6140 C   0  0  0  0  0  0  0  0  0  0  0  0
   59.5040   34.0900   48.0230 C   0  0  0  0  0  0  0  0  0  0  0  0
   57.5720   33.0430   45.3450 C   0  0  0  0  0  0  0  0  0  0  0  0
   57.0560   33.0850   46.5830 C   0  0  0  0  0  0  0  0  0  0  0  0
  1  2  1  0
  2  3  1  0
  3  4  1  0
  4  5  2  0
  4  6  1  0
  6  7  1  0
  7  8  1  0
  8  9  2  0
  9 10  1  0
 10 11  1  0
 10 12  2  0
 12 13  1  0
 13 14  1  0
 14 15  1  0
 15 16  2  0
 16 17  1  0
 17 18  2  0
 18 19  1  0
 19 20  1  0
 20 21  1  0
 21 22  2  0
 22 23  1  0
 22 24  1  0
 24 25  1  0
 19 26  2  0
 13 27  1  0
 27 28  2  0
  7  2  2  0
 27  9  1  0
 26 15  1  0
 25 20  2  0
M  CHG  2   3  -1   6  -1
M  END
>  <UniqueID>  (1776) 
12

>  <SMILES>  (1776) 
C=c1/c(=C/c2[n-]c(=O)[n-]c2O)c(C)nn1Cc1cccc(-c2csc(C)n2)c1

>  <Energy>  (1776) 
149.37212829246494

>  <Genealogy>  (1776) 
C=c1c(=Cc2[n-]c(=O)[n-]c2O)c(C)nn1Cc1cccc(-c2csc(C)n2)c1 (protonated)
C=c1/c(=C/c2[n-]c(=O)[n-]c2O)c(C)nn1Cc1cccc(-c2csc(C)n2)c1 (cis-trans isomerization)
C=c1/c(=C/c2[n-]c(=O)[n-]c2O)c(C)nn1Cc1cccc(-c2csc(C)n2)c1 (3D coordinates assigned)
C=c1/c(=C/c2[n-]c(=O)[n-]c2O)c(C)nn1Cc1cccc(-c2csc(C)n2)c1 (optimized conformer: 149.37212829246494 kcal/mol)

>  <smiles>  (1776) 
C=c1c(=Cc2[nH]c(=O)[nH]c2O)c(C)nn1Cc1cccc(-c2csc(C)n2)c1

>  <score_type>  (1776) 
oracle

>  <origin>  (1776) 
adg

>  <m_score__min__energy>  (1776) 
-14.06

>  <m_primary>  (1776) 
energy

$$$$
28:0
     RDKit          3D

 33 36  0  0  0  0  0  0  0  0999 V2000
   56.7440   29.3770   43.0300 C   0  0  0  0  0  0  0  0  0  0  0  0
   57.5410   29.2630   44.1050 C   0  0  0  0  0  0  0  0  0  0  0  0
   57.9330   28.0720   44.7380 C   0  0  0  0  0  0  0  0  0  0  0  0
   57.5010   26.8040   44.5900 C   0  0  0  0  0  0  0  0  0  0  0  0
   57.0990   25.9010   45.6810 C   0  0  0  0  0  0  0  0  0  0  0  0
   57.8420   24.8780   46.1420 N   0  0  0  0  0  0  0  0  0  0  0  0
   57.0190   24.2660   47.0200 C   0  0  0  0  0  0  0  0  0  0  0  0
   57.3660   23.2540   47.6830 O   0  0  0  0  0  0  0  0  0  0  0  0
   55.7890   24.8170   47.1240 N   0  0  0  0  0  0  0  0  0  0  0  0
   55.8540   25.8410   46.2580 C   0  0  0  0  0  0  0  0  0  0  0  0
   54.7950   26.7010   45.9970 O   0  0  0  0  0  0  0  0  0  0  0  0
   58.9100   28.4230   45.6520 C   0  0  0  0  0  0  0  0  0  0  0  0
   59.0290   29.7970   45.6070 C   0  0  0  0  0  0  0  0  0  0  0  0
   59.9630   30.5830   46.4760 C   0  0  0  0  0  0  0  0  0  0  0  0
   58.2030   30.3140   44.6650 N   0  0  0  0  0  0  0  0  0  0  0  0
   58.1060   31.7330   44.2780 C   0  0  0  0  0  0  0  0  0  0  0  0
   57.5260   32.5870   45.4150 C   0  0  0  0  0  0  0  0  0  0  0  0
   57.7610   34.0120   45.1950 N   0  0  0  0  0  0  0  0  0  0  0  0
   58.9550   34.7320   45.5320 C   0  0  0  0  0  0  0  0  0  0  0  0
   59.2670   35.7440   44.8500 O   0  0  0  0  0  0  0  0  0  0  0  0
   59.8500   34.3050   46.6220 C   0  0  0  0  0  0  0  0  0  0  0  0
   61.2310   34.2060   46.3920 C   0  0  0  0  0  0  0  0  0  0  0  0
   62.0860   33.8010   47.4180 C   0  0  0  0  0  0  0  0  0  0  0  0
   61.5730   33.4980   48.6810 C   0  0  0  0  0  0  0  0  0  0  0  0
   60.1950   33.5960   48.9270 C   0  0  0  0  0  0  0  0  0  0  0  0
   59.6470   33.3020   50.2660 C   0  0  0  0  0  0  0  0  0  0  0  0
   59.4920   34.2510   51.0800 O   0  0  0  0  0  0  0  0  0  0  0  0
   59.2720   31.9670   50.6490 N   0  0  0  0  0  0  0  0  0  0  0  0
   58.9790   31.6000   52.0250 C   0  0  0  0  0  0  0  0  0  0  0  0
   58.2580   30.2600   51.9560 C   0  0  0  0  0  0  0  0  0  0  0  0
   58.4980   29.7250   50.5470 C   0  0  0  0  0  0  0  0  0  0  0  0
   58.8990   30.9260   49.7030 C   0  0  0  0  0  0  0  0  0  0  0  0
   59.3410   34.0270   47.9000 C   0  0  0  0  0  0  0  0  0  0  0  0
  1  2  2  0
  2  3  1  0
  3  4  2  3
  4  5  1  0
  5  6  1  0
  6  7  1  0
  7  8  2  0
  7  9  1  0
  9 10  1  0
 10 11  1  0
  3 12  1  0
 12 13  2  0
 13 14  1  0
 13 15  1  0
 15 16  1  0
 16 17  1  0
 17 18  1  0
 18 19  1  0
 19 20  2  0
 19 21  1  0
 21 22  2  0
 22 23  1  0
 23 24  2  0
 24 25  1  0
 25 26  1  0
 26 27  2  0
 26 28  1  0
 28 29  1  0
 29 30  1  0
 30 31  1  0
 31 32  1  0
 25 33  2  0
 15  2  1  0
 33 21  1  0
 10  5  2  0
 32 28  1  0
M  CHG  4   6  -1   9  -1  11  -1  18  -1
M  END
>  <UniqueID>  (1777) 
26

>  <SMILES>  (1777) 
C=c1c(=Cc2[n-]c(=O)[n-]c2[O-])cc(C)n1CC[N-]C(=O)c1cccc(C(=O)N2CCCC2)c1

>  <Energy>  (1777) 
133.7302686370558

>  <Genealogy>  (1777) 
C=c1c(=Cc2[n-]c(=O)[n-]c2[O-])cc(C)n1CC[N-]C(=O)c1cccc(C(=O)N2CCCC2)c1 (protonated)
C=c1c(=Cc2[n-]c(=O)[n-]c2[O-])cc(C)n1CC[N-]C(=O)c1cccc(C(=O)N2CCCC2)c1 (3D coordinates assigned)
C=c1c(=Cc2[n-]c(=O)[n-]c2[O-])cc(C)n1CC[N-]C(=O)c1cccc(C(=O)N2CCCC2)c1 (nonaromatic ring conformer: 133.7302686370558 kcal/mol)

>  <smiles>  (1777) 
C=c1c(=Cc2[nH]c(=O)[nH]c2O)cc(C)n1CCNC(=O)c1cccc(C(=O)N2CCCC2)c1

>  <score_type>  (1777) 
oracle

>  <origin>  (1777) 
adg

>  <m_score__min__energy>  (1777) 
-19.440000000000001

>  <m_primary>  (1777) 
energy

$$$$
43:0
     RDKit          3D

 25 27  0  0  0  0  0  0  0  0999 V2000
   59.6440   28.3340   47.2980 C   0  0  0  0  0  0  0  0  0  0  0  0
   58.6570   28.6340   46.4400 C   0  0  0  0  0  0  0  0  0  0  0  0
   57.5230   27.8580   46.1830 C   0  0  0  0  0  0  0  0  0  0  0  0
   57.1810   26.6890   46.7570 C   0  0  0  0  0  0  0  0  0  0  0  0
   56.7130   25.5100   45.9930 C   0  0  0  0  0  0  0  0  0  0  0  0
   55.3630   25.3560   45.6300 C   0  0  0  0  0  0  0  0  0  0  0  0
   54.4200   26.3180   45.9830 O   0  0  0  0  0  0  0  0  0  0  0  0
   54.9720   24.2700   44.9100 N   0  0  0  0  0  0  0  0  0  0  0  0
   55.8760   23.3350   44.5100 C   0  0  0  0  0  0  0  0  0  0  0  0
   55.5000   22.3360   43.8440 O   0  0  0  0  0  0  0  0  0  0  0  0
   57.1890   23.4800   44.8250 N   0  0  0  0  0  0  0  0  0  0  0  0
   57.6260   24.5430   45.5460 C   0  0  0  0  0  0  0  0  0  0  0  0
   58.8530   24.6450   45.8160 O   0  0  0  0  0  0  0  0  0  0  0  0
   56.7810   28.5530   45.2390 C   0  0  0  0  0  0  0  0  0  0  0  0
   57.4860   29.7040   44.9490 C   0  0  0  0  0  0  0  0  0  0  0  0
   57.0230   30.7600   43.9910 C   0  0  0  0  0  0  0  0  0  0  0  0
   58.6260   29.7590   45.6790 N   0  0  0  0  0  0  0  0  0  0  0  0
   59.6360   30.8290   45.6350 C   0  0  0  0  0  0  0  0  0  0  0  0
   59.4880   31.7670   46.8140 C   0  0  0  0  0  0  0  0  0  0  0  0
   59.8940   31.3320   48.0900 C   0  0  0  0  0  0  0  0  0  0  0  0
   59.7900   32.1750   49.1980 C   0  0  0  0  0  0  0  0  0  0  0  0
   59.2930   33.4690   49.0480 C   0  0  0  0  0  0  0  0  0  0  0  0
   58.9080   33.9260   47.7870 C   0  0  0  0  0  0  0  0  0  0  0  0
   59.0080   33.0910   46.6670 C   0  0  0  0  0  0  0  0  0  0  0  0
   58.4840   33.8280   44.9730 Br  0  0  0  0  0  0  0  0  0  0  0  0
  1  2  2  0
  2  3  1  0
  3  4  2  0
  4  5  1  0
  5  6  2  0
  6  7  1  0
  6  8  1  0
  8  9  1  0
  9 10  2  0
  9 11  1  0
 11 12  1  0
 12 13  2  0
  3 14  1  0
 14 15  2  0
 15 16  1  0
 15 17  1  0
 17 18  1  0
 18 19  1  0
 19 20  2  0
 20 21  1  0
 21 22  2  0
 22 23  1  0
 23 24  2  0
 24 25  1  0
 17  2  1  0
 24 19  1  0
 12  5  1  0
M  CHG  2   7  -1  11  -1
M  END
>  <UniqueID>  (1778) 
40

>  <SMILES>  (1778) 
C=c1/c(=C/c2c([O-])[nH]c(=O)[n-]c2=O)cc(C)n1Cc1ccccc1Br

>  <Energy>  (1778) 
81.24852045159807

>  <Genealogy>  (1778) 
C=c1c(=Cc2c([O-])[nH]c(=O)[n-]c2=O)cc(C)n1Cc1ccccc1Br (protonated)
C=c1/c(=C/c2c([O-])[nH]c(=O)[n-]c2=O)cc(C)n1Cc1ccccc1Br (cis-trans isomerization)
C=c1/c(=C/c2c([O-])[nH]c(=O)[n-]c2=O)cc(C)n1Cc1ccccc1Br (3D coordinates assigned)
C=c1/c(=C/c2c([O-])[nH]c(=O)[n-]c2=O)cc(C)n1Cc1ccccc1Br (optimized conformer: 81.24852045159807 kcal/mol)

>  <smiles>  (1778) 
C=c1c(=Cc2c(O)[nH]c(=O)[nH]c2=O)cc(C)n1Cc1ccccc1Br

>  <score_type>  (1778) 
oracle

>  <origin>  (1778) 
adg

>  <m_score__min__energy>  (1778) 
-14.32

>  <m_primary>  (1778) 
energy

$$$$
47:0
     RDKit          3D

 33 36  0  0  0  0  0  0  0  0999 V2000
   54.8900   31.5250   52.0050 C   0  0  0  0  0  0  0  0  0  0  0  0
   54.9770   30.3610   52.6700 C   0  0  0  0  0  0  0  0  0  0  0  0
   53.9890   29.3640   52.7350 C   0  0  0  0  0  0  0  0  0  0  0  0
   52.6880   29.3810   52.3830 C   0  0  0  0  0  0  0  0  0  0  0  0
   51.9680   30.5280   51.8040 C   0  0  0  0  0  0  0  0  0  0  0  0
   51.9060   30.8120   50.4900 N   0  0  0  0  0  0  0  0  0  0  0  0
   51.2800   32.0080   50.4580 C   0  0  0  0  0  0  0  0  0  0  0  0
   51.0180   32.6060   49.3830 O   0  0  0  0  0  0  0  0  0  0  0  0
   50.9710   32.5190   51.6680 N   0  0  0  0  0  0  0  0  0  0  0  0
   51.4270   31.5770   52.5100 C   0  0  0  0  0  0  0  0  0  0  0  0
   51.3650   31.6750   53.8950 O   0  0  0  0  0  0  0  0  0  0  0  0
   54.5940   28.2550   53.2960 C   0  0  0  0  0  0  0  0  0  0  0  0
   55.8790   28.6240   53.6300 C   0  0  0  0  0  0  0  0  0  0  0  0
   56.8830   27.6990   54.2500 C   0  0  0  0  0  0  0  0  0  0  0  0
   56.1200   29.9040   53.2570 N   0  0  0  0  0  0  0  0  0  0  0  0
   57.4090   30.6010   53.4090 C   0  0  0  0  0  0  0  0  0  0  0  0
   57.9400   31.0460   52.0700 C   0  0  0  0  0  0  0  0  0  0  0  0
   57.9840   30.1520   50.9900 C   0  0  0  0  0  0  0  0  0  0  0  0
   58.4860   30.5650   49.7520 C   0  0  0  0  0  0  0  0  0  0  0  0
   58.9730   31.8690   49.5840 C   0  0  0  0  0  0  0  0  0  0  0  0
   59.4750   32.3180   48.3200 N   0  0  0  0  0  0  0  0  0  0  0  0
   58.9240   33.3720   47.5200 C   0  0  0  0  0  0  0  0  0  0  0  0
   59.6540   34.3570   47.2280 O   0  0  0  0  0  0  0  0  0  0  0  0
   57.5480   33.2740   46.9130 C   0  0  0  0  0  0  0  0  0  0  0  0
   57.5970   32.6760   45.5340 C   0  0  0  0  0  0  0  0  0  0  0  0
   58.1500   33.3880   44.4610 C   0  0  0  0  0  0  0  0  0  0  0  0
   58.1710   32.8080   43.1910 C   0  0  0  0  0  0  0  0  0  0  0  0
   57.6420   31.5310   43.0000 C   0  0  0  0  0  0  0  0  0  0  0  0
   57.0920   30.8460   44.0910 C   0  0  0  0  0  0  0  0  0  0  0  0
   56.5330   29.4690   43.9220 C   0  0  0  0  0  0  0  0  0  0  0  0
   57.0910   31.4290   45.3210 N   0  0  0  0  0  0  0  0  0  0  0  0
   58.8950   32.7730   50.6490 C   0  0  0  0  0  0  0  0  0  0  0  0
   58.3890   32.3650   51.8870 C   0  0  0  0  0  0  0  0  0  0  0  0
  1  2  2  0
  2  3  1  0
  3  4  2  3
  4  5  1  0
  5  6  1  0
  6  7  1  0
  7  8  2  0
  7  9  1  0
  9 10  1  0
 10 11  1  0
  3 12  1  0
 12 13  2  0
 13 14  1  0
 13 15  1  0
 15 16  1  0
 16 17  1  0
 17 18  2  0
 18 19  1  0
 19 20  2  0
 20 21  1  0
 21 22  1  0
 22 23  2  0
 22 24  1  0
 24 25  1  0
 25 26  2  0
 26 27  1  0
 27 28  2  0
 28 29  1  0
 29 30  1  0
 29 31  2  0
 20 32  1  0
 32 33  2  0
 15  2  1  0
 33 17  1  0
 10  5  2  0
 31 25  1  0
M  CHG  3   6  -1   9  -1  21  -1
M  END
>  <UniqueID>  (1779) 
43

>  <SMILES>  (1779) 
C=c1c(=Cc2[n-]c(=O)[n-]c2O)cc(C)n1Cc1ccc([N-]C(=O)Cc2cccc(C)n2)cc1

>  <Energy>  (1779) 
129.11542701368262

>  <Genealogy>  (1779) 
C=c1c(=Cc2[n-]c(=O)[n-]c2O)cc(C)n1Cc1ccc([N-]C(=O)Cc2cccc(C)n2)cc1 (protonated)
C=c1c(=Cc2[n-]c(=O)[n-]c2O)cc(C)n1Cc1ccc([N-]C(=O)Cc2cccc(C)n2)cc1 (3D coordinates assigned)
C=c1c(=Cc2[n-]c(=O)[n-]c2O)cc(C)n1Cc1ccc([N-]C(=O)Cc2cccc(C)n2)cc1 (optimized conformer: 129.11542701368262 kcal/mol)

>  <smiles>  (1779) 
C=c1c(=Cc2[nH]c(=O)[nH]c2O)cc(C)n1Cc1ccc(NC(=O)Cc2cccc(C)n2)cc1

>  <score_type>  (1779) 
oracle

>  <origin>  (1779) 
adg

>  <m_score__min__energy>  (1779) 
-15.6

>  <m_primary>  (1779) 
energy

$$$$
53:0
     RDKit          3D

 30 33  0  0  0  0  0  0  0  0999 V2000
   59.3090   29.7720   44.5840 C   0  0  0  0  0  0  0  0  0  0  0  0
   59.2810   29.3750   45.8660 C   0  0  0  0  0  0  0  0  0  0  0  0
   58.5580   28.2900   46.3750 C   0  0  0  0  0  0  0  0  0  0  0  0
   57.7870   27.4260   45.6870 C   0  0  0  0  0  0  0  0  0  0  0  0
   57.1910   26.2080   46.2670 C   0  0  0  0  0  0  0  0  0  0  0  0
   57.9160   25.1440   46.6500 N   0  0  0  0  0  0  0  0  0  0  0  0
   56.9810   24.2420   47.0190 C   0  0  0  0  0  0  0  0  0  0  0  0
   57.2770   23.0990   47.4560 O   0  0  0  0  0  0  0  0  0  0  0  0
   55.7050   24.6540   46.8670 N   0  0  0  0  0  0  0  0  0  0  0  0
   55.8530   25.8960   46.3780 C   0  0  0  0  0  0  0  0  0  0  0  0
   54.7880   26.7020   45.9960 O   0  0  0  0  0  0  0  0  0  0  0  0
   58.8300   28.2460   47.7340 C   0  0  0  0  0  0  0  0  0  0  0  0
   59.6700   29.3040   48.0040 C   0  0  0  0  0  0  0  0  0  0  0  0
   60.1760   29.6230   49.3510 C   0  0  0  0  0  0  0  0  0  0  0  0
   60.9370   28.7960   49.9230 O   0  0  0  0  0  0  0  0  0  0  0  0
   59.7770   30.8260   50.0370 N   0  0  0  0  0  0  0  0  0  0  0  0
   58.5390   31.5250   49.6720 C   0  0  0  0  0  0  0  0  0  0  0  0
   57.9450   32.2070   50.9060 C   0  0  0  0  0  0  0  0  0  0  0  0
   58.9130   33.0130   51.5500 O   0  0  0  0  0  0  0  0  0  0  0  0
   59.9460   32.1970   52.0670 C   0  0  0  0  0  0  0  0  0  0  0  0
   60.7150   31.5050   50.9370 C   0  0  0  0  0  0  0  0  0  0  0  0
   59.9560   29.9930   46.8720 N   0  0  0  0  0  0  0  0  0  0  0  0
   60.9290   31.0920   46.7460 C   0  0  0  0  0  0  0  0  0  0  0  0
   60.2440   32.4270   46.8890 C   0  0  0  0  0  0  0  0  0  0  0  0
   60.7120   33.3780   47.8110 C   0  0  0  0  0  0  0  0  0  0  0  0
   60.0720   34.6150   47.9340 C   0  0  0  0  0  0  0  0  0  0  0  0
   58.9670   34.9160   47.1320 C   0  0  0  0  0  0  0  0  0  0  0  0
   58.4990   33.9780   46.2060 C   0  0  0  0  0  0  0  0  0  0  0  0
   57.4020   34.2790   45.4060 O   0  0  0  0  0  0  0  0  0  0  0  0
   59.1350   32.7380   46.0830 C   0  0  0  0  0  0  0  0  0  0  0  0
  1  2  2  0
  2  3  1  0
  3  4  2  3
  4  5  1  0
  5  6  1  0
  6  7  1  0
  7  8  2  0
  7  9  1  0
  9 10  1  0
 10 11  1  0
  3 12  1  0
 12 13  2  0
 13 14  1  0
 14 15  2  0
 14 16  1  0
 16 17  1  0
 17 18  1  0
 18 19  1  0
 19 20  1  0
 20 21  1  0
 13 22  1  0
 22 23  1  0
 23 24  1  0
 24 25  2  0
 25 26  1  0
 26 27  2  0
 27 28  1  0
 28 29  1  0
 28 30  2  0
 22  2  1  0
 30 24  1  0
 10  5  2  0
 21 16  1  0
M  CHG  4   6  -1   9  -1  11  -1  29  -1
M  END
>  <UniqueID>  (1780) 
49

>  <SMILES>  (1780) 
C=c1c(=Cc2[n-]c(=O)[n-]c2[O-])cc(C(=O)N2CCOCC2)n1Cc1cccc([O-])c1

>  <Energy>  (1780) 
123.5317485377539

>  <Genealogy>  (1780) 
C=c1c(=Cc2[n-]c(=O)[n-]c2[O-])cc(C(=O)N2CCOCC2)n1Cc1cccc([O-])c1 (protonated)
C=c1c(=Cc2[n-]c(=O)[n-]c2[O-])cc(C(=O)N2CCOCC2)n1Cc1cccc([O-])c1 (3D coordinates assigned)
C=c1c(=Cc2[n-]c(=O)[n-]c2[O-])cc(C(=O)N2CCOCC2)n1Cc1cccc([O-])c1 (nonaromatic ring conformer: 123.5317485377539 kcal/mol)

>  <smiles>  (1780) 
C=c1c(=Cc2[nH]c(=O)[nH]c2O)cc(C(=O)N2CCOCC2)n1Cc1cccc(O)c1

>  <score_type>  (1780) 
oracle

>  <origin>  (1780) 
adg

>  <m_score__min__energy>  (1780) 
-16.960000000000001

>  <m_primary>  (1780) 
energy

$$$$
68:0
     RDKit          3D

 34 37  0  0  0  0  0  0  0  0999 V2000
   55.1810   29.2020   44.7670 O   0  0  0  0  0  0  0  0  0  0  0  0
   56.2630   29.8470   44.8110 C   0  0  0  0  0  0  0  0  0  0  0  0
   57.4720   29.1970   45.2210 N   0  0  0  0  0  0  0  0  0  0  0  0
   57.5550   28.2960   46.3650 C   0  0  0  0  0  0  0  0  0  0  0  0
   58.8500   27.4800   46.3170 C   0  0  0  0  0  0  0  0  0  0  0  0
   60.0070   28.3130   46.7240 N   0  0  0  0  0  0  0  0  0  0  0  0
   60.7780   27.7250   47.8330 C   0  0  0  0  0  0  0  0  0  0  0  0
   59.9980   27.7570   49.1550 C   0  0  0  0  0  0  0  0  0  0  0  0
   59.4910   29.1060   49.4800 N   0  0  0  0  0  0  0  0  0  0  0  0
   60.2940   29.8950   50.4360 C   0  0  0  0  0  0  0  0  0  0  0  0
   59.5110   30.9750   51.1430 C   0  0  0  0  0  0  0  0  0  0  0  0
   60.1210   32.1980   51.4720 C   0  0  0  0  0  0  0  0  0  0  0  0
   59.3790   33.2200   52.0700 C   0  0  0  0  0  0  0  0  0  0  0  0
   58.0180   33.0380   52.3260 C   0  0  0  0  0  0  0  0  0  0  0  0
   57.4010   31.8260   52.0030 C   0  0  0  0  0  0  0  0  0  0  0  0
   58.1410   30.7980   51.4120 C   0  0  0  0  0  0  0  0  0  0  0  0
   58.8770   29.8540   48.3650 C   0  0  0  0  0  0  0  0  0  0  0  0
   59.6470   29.7100   47.0360 C   0  0  0  0  0  0  0  0  0  0  0  0
   56.2550   31.2410   44.4970 N   0  0  0  0  0  0  0  0  0  0  0  0
   57.2670   32.1860   44.8700 C   0  0  0  0  0  0  0  0  0  0  0  0
   57.8980   32.9300   43.8660 C   0  0  0  0  0  0  0  0  0  0  0  0
   58.9030   33.8440   44.1920 C   0  0  0  0  0  0  0  0  0  0  0  0
   59.2960   34.0090   45.5210 C   0  0  0  0  0  0  0  0  0  0  0  0
   58.6870   33.2570   46.5340 C   0  0  0  0  0  0  0  0  0  0  0  0
   59.2390   33.4210   48.1970 S   0  0  0  0  0  0  0  0  0  0  0  0
   59.3050   34.8840   48.5420 O   0  0  0  0  0  0  0  0  0  0  0  0
   58.2670   32.7540   49.1330 O   0  0  0  0  0  0  0  0  0  0  0  0
   60.8230   32.7030   48.3420 N   0  0  0  0  0  0  0  0  0  0  0  0
   61.7510   33.6530   48.9780 C   0  0  0  0  0  0  0  0  0  0  0  0
   63.2040   33.1390   48.8990 C   0  0  0  0  0  0  0  0  0  0  0  0
   63.2490   31.8000   48.4480 O   0  0  0  0  0  0  0  0  0  0  0  0
   62.7420   31.7230   47.1280 C   0  0  0  0  0  0  0  0  0  0  0  0
   61.3220   32.3150   47.0150 C   0  0  0  0  0  0  0  0  0  0  0  0
   57.6820   32.3360   46.2060 C   0  0  0  0  0  0  0  0  0  0  0  0
  1  2  2  0
  2  3  1  0
  3  4  1  0
  4  5  1  0
  5  6  1  0
  6  7  1  0
  7  8  1  0
  8  9  1  0
  9 10  1  0
 10 11  1  0
 11 12  2  0
 12 13  1  0
 13 14  2  0
 14 15  1  0
 15 16  2  0
  9 17  1  0
 17 18  1  0
  2 19  1  0
 19 20  1  0
 20 21  2  0
 21 22  1  0
 22 23  2  0
 23 24  1  0
 24 25  1  0
 25 26  2  0
 25 27  2  0
 25 28  1  0
 28 29  1  0
 29 30  1  0
 30 31  1  0
 31 32  1  0
 32 33  1  0
 24 34  2  0
 18  6  1  0
 34 20  1  0
 16 11  1  0
 33 28  1  0
M  CHG  2   3  -1  19  -1
M  END
>  <UniqueID>  (1781) 
63

>  <SMILES>  (1781) 
O=C([N-]CCN1CCN(Cc2ccccc2)CC1)[N-]c1cccc(S(=O)(=O)N2CCOCC2)c1

>  <Energy>  (1781) 
81.57959492706692

>  <Genealogy>  (1781) 
O=C([N-]CCN1CCN(Cc2ccccc2)CC1)[N-]c1cccc(S(=O)(=O)N2CCOCC2)c1 (protonated)
O=C([N-]CCN1CCN(Cc2ccccc2)CC1)[N-]c1cccc(S(=O)(=O)N2CCOCC2)c1 (3D coordinates assigned)
O=C([N-]CCN1CCN(Cc2ccccc2)CC1)[N-]c1cccc(S(=O)(=O)N2CCOCC2)c1 (nonaromatic ring conformer: 81.57959492706692 kcal/mol)

>  <smiles>  (1781) 
O=C(NCCN1CCN(Cc2ccccc2)CC1)Nc1cccc(S(=O)(=O)N2CCOCC2)c1

>  <score_type>  (1781) 
oracle

>  <origin>  (1781) 
adg

>  <m_score__min__energy>  (1781) 
-14.32

>  <m_primary>  (1781) 
energy

$$$$
82:0
     RDKit          3D

 29 31  0  0  0  0  0  0  0  0999 V2000
   59.6720   26.0610   47.0550 C   0  0  0  0  0  0  0  0  0  0  0  0
   58.2150   26.0030   46.6670 C   0  0  0  0  0  0  0  0  0  0  0  0
   57.7150   26.7870   45.6080 C   0  0  0  0  0  0  0  0  0  0  0  0
   58.7790   27.8670   44.6360 S   0  0  0  0  0  0  0  0  0  0  0  0
   57.4210   28.6410   43.6850 C   0  0  0  0  0  0  0  0  0  0  0  0
   57.1180   30.0180   44.1860 C   0  0  0  0  0  0  0  0  0  0  0  0
   55.9920   30.2580   44.6970 O   0  0  0  0  0  0  0  0  0  0  0  0
   58.1370   31.0250   44.1470 N   0  0  0  0  0  0  0  0  0  0  0  0
   58.1400   32.2470   44.8960 C   0  0  0  0  0  0  0  0  0  0  0  0
   57.4060   33.3740   44.4850 C   0  0  0  0  0  0  0  0  0  0  0  0
   57.4210   34.5400   45.2560 C   0  0  0  0  0  0  0  0  0  0  0  0
   58.1660   34.5920   46.4360 C   0  0  0  0  0  0  0  0  0  0  0  0
   58.9170   33.4810   46.8450 C   0  0  0  0  0  0  0  0  0  0  0  0
   59.8370   33.5300   48.3490 S   0  0  0  0  0  0  0  0  0  0  0  0
   59.4810   32.3340   49.1890 O   0  0  0  0  0  0  0  0  0  0  0  0
   59.4590   34.7680   49.1160 O   0  0  0  0  0  0  0  0  0  0  0  0
   61.5590   33.5350   48.0550 N   0  0  0  0  0  0  0  0  0  0  0  0
   61.8450   33.8560   46.6490 C   0  0  0  0  0  0  0  0  0  0  0  0
   63.3720   33.9010   46.4250 C   0  0  0  0  0  0  0  0  0  0  0  0
   64.0960   33.4130   47.5430 O   0  0  0  0  0  0  0  0  0  0  0  0
   63.6060   32.1400   47.9160 C   0  0  0  0  0  0  0  0  0  0  0  0
   62.1480   32.2310   48.4080 C   0  0  0  0  0  0  0  0  0  0  0  0
   58.9140   32.3190   46.0600 C   0  0  0  0  0  0  0  0  0  0  0  0
   56.3890   26.7570   45.3130 N   0  0  0  0  0  0  0  0  0  0  0  0
   55.5280   25.9740   46.0100 C   0  0  0  0  0  0  0  0  0  0  0  0
   54.3070   25.9640   45.7110 O   0  0  0  0  0  0  0  0  0  0  0  0
   55.9840   25.2080   47.0310 N   0  0  0  0  0  0  0  0  0  0  0  0
   57.2960   25.2070   47.3790 C   0  0  0  0  0  0  0  0  0  0  0  0
   57.6740   24.4910   48.3440 O   0  0  0  0  0  0  0  0  0  0  0  0
  1  2  1  0
  2  3  2  0
  3  4  1  0
  4  5  1  0
  5  6  1  0
  6  7  2  0
  6  8  1  0
  8  9  1  0
  9 10  2  0
 10 11  1  0
 11 12  2  0
 12 13  1  0
 13 14  1  0
 14 15  2  0
 14 16  2  0
 14 17  1  0
 17 18  1  0
 18 19  1  0
 19 20  1  0
 20 21  1  0
 21 22  1  0
 13 23  2  0
  3 24  1  0
 24 25  1  0
 25 26  2  0
 25 27  1  0
 27 28  1  0
 28 29  2  0
 28  2  1  0
 23  9  1  0
 22 17  1  0
M  CHG  3   8  -1  24  -1  27  -1
M  END
>  <UniqueID>  (1782) 
77

>  <SMILES>  (1782) 
Cc1c(SCC(=O)[N-]c2cccc(S(=O)(=O)N3CCOCC3)c2)[n-]c(=O)[n-]c1=O

>  <Energy>  (1782) 
55.16279040350393

>  <Genealogy>  (1782) 
Cc1c(SCC(=O)[N-]c2cccc(S(=O)(=O)N3CCOCC3)c2)[n-]c(=O)[n-]c1=O (protonated)
Cc1c(SCC(=O)[N-]c2cccc(S(=O)(=O)N3CCOCC3)c2)[n-]c(=O)[n-]c1=O (3D coordinates assigned)
Cc1c(SCC(=O)[N-]c2cccc(S(=O)(=O)N3CCOCC3)c2)[n-]c(=O)[n-]c1=O (nonaromatic ring conformer: 55.16279040350393 kcal/mol)

>  <smiles>  (1782) 
Cc1c(SCC(=O)Nc2cccc(S(=O)(=O)N3CCOCC3)c2)[nH]c(=O)[nH]c1=O

>  <score_type>  (1782) 
oracle

>  <origin>  (1782) 
adg

>  <m_score__min__energy>  (1782) 
-15.58

>  <m_primary>  (1782) 
energy

$$$$
84:0
     RDKit          3D

 31 34  0  0  0  0  0  0  0  0999 V2000
   58.8190   30.2300   47.8010 C   0  0  0  0  0  0  0  0  0  0  0  0
   58.4480   30.3740   46.5180 C   0  0  0  0  0  0  0  0  0  0  0  0
   58.3850   29.3560   45.5520 C   0  0  0  0  0  0  0  0  0  0  0  0
   58.4490   28.0150   45.6710 C   0  0  0  0  0  0  0  0  0  0  0  0
   57.2990   27.1120   45.8380 C   0  0  0  0  0  0  0  0  0  0  0  0
   57.3570   25.8910   46.4020 N   0  0  0  0  0  0  0  0  0  0  0  0
   56.0610   25.5140   46.4610 C   0  0  0  0  0  0  0  0  0  0  0  0
   55.7010   24.4000   46.9230 O   0  0  0  0  0  0  0  0  0  0  0  0
   55.1830   26.4280   45.9970 N   0  0  0  0  0  0  0  0  0  0  0  0
   55.9820   27.4370   45.6200 C   0  0  0  0  0  0  0  0  0  0  0  0
   55.5180   28.6360   45.0930 O   0  0  0  0  0  0  0  0  0  0  0  0
   58.2160   29.9870   44.3340 C   0  0  0  0  0  0  0  0  0  0  0  0
   58.0960   31.3350   44.5940 C   0  0  0  0  0  0  0  0  0  0  0  0
   57.9380   32.3830   43.5320 C   0  0  0  0  0  0  0  0  0  0  0  0
   58.2320   31.5790   45.9190 N   0  0  0  0  0  0  0  0  0  0  0  0
   58.2310   32.9170   46.5350 C   0  0  0  0  0  0  0  0  0  0  0  0
   59.4930   33.1390   47.3300 C   0  0  0  0  0  0  0  0  0  0  0  0
   60.7390   32.7650   46.8020 C   0  0  0  0  0  0  0  0  0  0  0  0
   61.9040   32.9290   47.5570 C   0  0  0  0  0  0  0  0  0  0  0  0
   61.8380   33.4650   48.8490 C   0  0  0  0  0  0  0  0  0  0  0  0
   63.3000   33.6080   49.8290 S   0  0  0  0  0  0  0  0  0  0  0  0
   63.3370   34.9700   50.4640 O   0  0  0  0  0  0  0  0  0  0  0  0
   64.5070   33.4770   48.9400 O   0  0  0  0  0  0  0  0  0  0  0  0
   63.3600   32.3850   51.0800 N   0  0  0  0  0  0  0  0  0  0  0  0
   62.0760   31.6490   51.1830 C   0  0  0  0  0  0  0  0  0  0  0  0
   62.1590   30.2530   50.5380 C   0  0  0  0  0  0  0  0  0  0  0  0
   63.1580   29.4260   51.1200 O   0  0  0  0  0  0  0  0  0  0  0  0
   64.3020   30.1410   51.5730 C   0  0  0  0  0  0  0  0  0  0  0  0
   64.5180   31.4890   50.8660 C   0  0  0  0  0  0  0  0  0  0  0  0
   60.5990   33.8670   49.3670 C   0  0  0  0  0  0  0  0  0  0  0  0
   59.4350   33.7040   48.6130 C   0  0  0  0  0  0  0  0  0  0  0  0
  1  2  2  0
  2  3  1  0
  3  4  2  3
  4  5  1  0
  5  6  1  0
  6  7  1  0
  7  8  2  0
  7  9  1  0
  9 10  1  0
 10 11  1  0
  3 12  1  0
 12 13  2  0
 13 14  1  0
 13 15  1  0
 15 16  1  0
 16 17  1  0
 17 18  2  0
 18 19  1  0
 19 20  2  0
 20 21  1  0
 21 22  2  0
 21 23  2  0
 21 24  1  0
 24 25  1  0
 25 26  1  0
 26 27  1  0
 27 28  1  0
 28 29  1  0
 20 30  1  0
 30 31  2  0
 15  2  1  0
 31 17  1  0
 10  5  2  0
 29 24  1  0
M  CHG  4   6  -1   9  -1  11  -1  24   1
M  END
>  <UniqueID>  (1783) 
79

>  <SMILES>  (1783) 
C=c1c(=Cc2[n-]c(=O)[n-]c2[O-])cc(C)n1Cc1ccc(S(=O)(=O)[NH+]2CCOCC2)cc1

>  <Energy>  (1783) 
135.5889378712489

>  <Genealogy>  (1783) 
C=c1c(=Cc2[n-]c(=O)[n-]c2[O-])cc(C)n1Cc1ccc(S(=O)(=O)[NH+]2CCOCC2)cc1 (protonated)
C=c1c(=Cc2[n-]c(=O)[n-]c2[O-])cc(C)n1Cc1ccc(S(=O)(=O)[NH+]2CCOCC2)cc1 (3D coordinates assigned)
C=c1c(=Cc2[n-]c(=O)[n-]c2[O-])cc(C)n1Cc1ccc(S(=O)(=O)[NH+]2CCOCC2)cc1 (nonaromatic ring conformer: 135.5889378712489 kcal/mol)

>  <smiles>  (1783) 
C=c1c(=Cc2[nH]c(=O)[nH]c2O)cc(C)n1Cc1ccc(S(=O)(=O)N2CCOCC2)cc1

>  <score_type>  (1783) 
oracle

>  <origin>  (1783) 
adg

>  <m_score__min__energy>  (1783) 
-16.120000000000001

>  <m_primary>  (1783) 
energy

$$$$
1:0
     RDKit          3D

 24 26  0  0  0  0  0  0  0  0999 V2000
   58.1260   34.2550   45.1170 C   0  0  0  0  0  0  0  0  0  0  0  0
   57.3940   33.2570   44.5610 N   0  0  0  0  0  0  0  0  0  0  0  0
   57.3840   31.9940   45.0610 C   0  0  0  0  0  0  0  0  0  0  0  0
   56.6420   31.1000   44.4710 N   0  0  0  0  0  0  0  0  0  0  0  0
   56.4610   29.7360   44.8760 C   0  0  0  0  0  0  0  0  0  0  0  0
   55.3130   29.3400   45.2040 O   0  0  0  0  0  0  0  0  0  0  0  0
   57.5860   28.7480   44.7730 C   0  0  0  0  0  0  0  0  0  0  0  0
   58.0730   28.1630   46.4310 S   0  0  0  0  0  0  0  0  0  0  0  0
   57.0630   26.6850   46.3770 C   0  0  0  0  0  0  0  0  0  0  0  0
   55.8180   26.6560   45.8300 N   0  0  0  0  0  0  0  0  0  0  0  0
   55.4900   25.3690   46.0330 C   0  0  0  0  0  0  0  0  0  0  0  0
   54.3240   24.7810   45.6700 N   0  0  0  0  0  0  0  0  0  0  0  0
   54.1420   23.4550   45.9470 C   0  0  0  0  0  0  0  0  0  0  0  0
   53.0660   22.8920   45.6190 O   0  0  0  0  0  0  0  0  0  0  0  0
   55.1530   22.7170   46.6010 C   0  0  0  0  0  0  0  0  0  0  0  0
   56.3410   23.3710   46.9560 C   0  0  0  0  0  0  0  0  0  0  0  0
   57.3700   22.6950   47.6000 O   0  0  0  0  0  0  0  0  0  0  0  0
   56.4530   24.6860   46.6500 N   0  0  0  0  0  0  0  0  0  0  0  0
   57.4660   25.4940   46.8840 N   0  0  0  0  0  0  0  0  0  0  0  0
   58.1430   31.7080   46.2120 C   0  0  0  0  0  0  0  0  0  0  0  0
   58.9210   32.7150   46.8070 C   0  0  0  0  0  0  0  0  0  0  0  0
   59.7280   32.3970   48.0390 C   0  0  0  0  0  0  0  0  0  0  0  0
   58.9090   34.0140   46.2550 C   0  0  0  0  0  0  0  0  0  0  0  0
   59.7210   35.1330   46.8530 C   0  0  0  0  0  0  0  0  0  0  0  0
  1  2  1  0
  2  3  1  0
  3  4  2  0
  4  5  1  0
  5  6  2  0
  5  7  1  0
  7  8  1  0
  8  9  1  0
  9 10  1  0
 10 11  2  0
 11 12  1  0
 12 13  1  0
 13 14  2  0
 13 15  1  0
 15 16  2  0
 16 17  1  0
 16 18  1  0
 18 19  1  0
  3 20  1  0
 20 21  2  0
 21 22  1  0
 21 23  1  0
 23 24  1  0
 23  1  2  0
 19  9  2  0
 18 11  1  0
M  CHG  3   2  -1  12  -1  17  -1
M  END
>  <UniqueID>  (1784) 
2

>  <SMILES>  (1784) 
Cc1c[n-]/c(=N/C(=O)CSc2nc3[n-]c(=O)cc([O-])n3n2)cc1C

>  <Energy>  (1784) 
84.33758928945714

>  <Genealogy>  (1784) 
Cc1c[n-]c(=NC(=O)CSc2nc3[n-]c(=O)cc([O-])n3n2)cc1C (protonated)
Cc1c[n-]/c(=N/C(=O)CSc2nc3[n-]c(=O)cc([O-])n3n2)cc1C (cis-trans isomerization)
Cc1c[n-]/c(=N/C(=O)CSc2nc3[n-]c(=O)cc([O-])n3n2)cc1C (3D coordinates assigned)
Cc1c[n-]/c(=N/C(=O)CSc2nc3[n-]c(=O)cc([O-])n3n2)cc1C (optimized conformer: 84.33758928945714 kcal/mol)

>  <smiles>  (1784) 
Cc1c[nH]c(=NC(=O)CSc2nc3[nH]c(=O)cc(O)n3n2)cc1C

>  <score_type>  (1784) 
oracle

>  <origin>  (1784) 
adg

>  <m_score__min__energy>  (1784) 
-15.199999999999999

>  <m_primary>  (1784) 
energy

$$$$
3:0
     RDKit          3D

 30 32  0  0  0  0  0  0  0  0999 V2000
   59.2510   27.2860   48.2530 C   0  0  0  0  0  0  0  0  0  0  0  0
   59.6650   28.3800   47.5880 C   0  0  0  0  0  0  0  0  0  0  0  0
   59.3230   28.7350   46.2730 C   0  0  0  0  0  0  0  0  0  0  0  0
   58.3830   28.2440   45.4380 C   0  0  0  0  0  0  0  0  0  0  0  0
   57.3930   27.1930   45.7690 C   0  0  0  0  0  0  0  0  0  0  0  0
   56.0110   27.4110   45.6210 C   0  0  0  0  0  0  0  0  0  0  0  0
   55.5250   28.6410   45.1980 O   0  0  0  0  0  0  0  0  0  0  0  0
   55.1340   26.4070   45.8770 N   0  0  0  0  0  0  0  0  0  0  0  0
   55.5660   25.1750   46.2470 C   0  0  0  0  0  0  0  0  0  0  0  0
   54.7340   24.2580   46.4750 O   0  0  0  0  0  0  0  0  0  0  0  0
   56.8960   24.9290   46.3590 N   0  0  0  0  0  0  0  0  0  0  0  0
   57.8150   25.9010   46.1220 C   0  0  0  0  0  0  0  0  0  0  0  0
   59.0420   25.6330   46.2240 O   0  0  0  0  0  0  0  0  0  0  0  0
   60.1460   29.7920   45.9300 C   0  0  0  0  0  0  0  0  0  0  0  0
   60.8880   30.1040   47.0490 C   0  0  0  0  0  0  0  0  0  0  0  0
   61.9260   31.1860   47.0890 C   0  0  0  0  0  0  0  0  0  0  0  0
   60.6020   29.2510   48.0630 N   0  0  0  0  0  0  0  0  0  0  0  0
   61.1890   29.2990   49.4160 C   0  0  0  0  0  0  0  0  0  0  0  0
   60.5020   30.3300   50.3270 C   0  0  0  0  0  0  0  0  0  0  0  0
   59.0840   29.9250   50.7460 C   0  0  0  0  0  0  0  0  0  0  0  0
   58.1240   30.7570   50.0920 O   0  0  0  0  0  0  0  0  0  0  0  0
   58.4880   31.8580   49.3010 C   0  0  0  0  0  0  0  0  0  0  0  0
   58.8480   32.9410   49.8430 O   0  0  0  0  0  0  0  0  0  0  0  0
   58.4850   31.7270   47.8720 N   0  0  0  0  0  0  0  0  0  0  0  0
   58.5670   32.8370   46.9600 C   0  0  0  0  0  0  0  0  0  0  0  0
   59.5520   33.8220   47.1560 C   0  0  0  0  0  0  0  0  0  0  0  0
   59.6760   34.8890   46.2610 C   0  0  0  0  0  0  0  0  0  0  0  0
   58.8300   34.9710   45.1500 C   0  0  0  0  0  0  0  0  0  0  0  0
   57.8610   33.9870   44.9340 C   0  0  0  0  0  0  0  0  0  0  0  0
   57.7300   32.9200   45.8300 C   0  0  0  0  0  0  0  0  0  0  0  0
  1  2  2  0
  2  3  1  0
  3  4  2  3
  4  5  1  0
  5  6  2  0
  6  7  1  0
  6  8  1  0
  8  9  1  0
  9 10  2  0
  9 11  1  0
 11 12  1  0
 12 13  2  0
  3 14  1  0
 14 15  2  0
 15 16  1  0
 15 17  1  0
 17 18  1  0
 18 19  1  0
 19 20  1  0
 20 21  1  0
 21 22  1  0
 22 23  2  0
 22 24  1  0
 24 25  1  0
 25 26  2  0
 26 27  1  0
 27 28  2  0
 28 29  1  0
 29 30  2  0
 17  2  1  0
 30 25  1  0
 12  5  1  0
M  CHG  3   7  -1   8  -1  11  -1
M  END
>  <UniqueID>  (1785) 
4

>  <SMILES>  (1785) 
C=c1c(=Cc2c([O-])[n-]c(=O)[n-]c2=O)cc(C)n1CCCOC(=O)Nc1ccccc1

>  <Energy>  (1785) 
94.97916382703858

>  <Genealogy>  (1785) 
C=c1c(=Cc2c([O-])[n-]c(=O)[n-]c2=O)cc(C)n1CCCOC(=O)Nc1ccccc1 (protonated)
C=c1c(=Cc2c([O-])[n-]c(=O)[n-]c2=O)cc(C)n1CCCOC(=O)Nc1ccccc1 (3D coordinates assigned)
C=c1c(=Cc2c([O-])[n-]c(=O)[n-]c2=O)cc(C)n1CCCOC(=O)Nc1ccccc1 (optimized conformer: 94.97916382703858 kcal/mol)

>  <smiles>  (1785) 
C=c1c(=Cc2c(O)[nH]c(=O)[nH]c2=O)cc(C)n1CCCOC(=O)Nc1ccccc1

>  <score_type>  (1785) 
oracle

>  <origin>  (1785) 
adg

>  <m_score__min__energy>  (1785) 
-16.129999999999999

>  <m_primary>  (1785) 
energy

$$$$
9:0
     RDKit          3D

 32 35  0  0  0  0  0  0  0  0999 V2000
   56.4860   30.7840   43.6560 C   0  0  0  0  0  0  0  0  0  0  0  0
   57.2040   31.1020   44.7470 C   0  0  0  0  0  0  0  0  0  0  0  0
   57.0190   32.3510   45.2400 N   0  0  0  0  0  0  0  0  0  0  0  0
   57.6370   32.8020   46.3520 C   0  0  0  0  0  0  0  0  0  0  0  0
   57.4000   33.9780   46.7410 O   0  0  0  0  0  0  0  0  0  0  0  0
   58.4980   31.9940   47.0390 N   0  0  0  0  0  0  0  0  0  0  0  0
   59.1980   32.5020   48.2390 C   0  0  0  0  0  0  0  0  0  0  0  0
   60.6460   32.7860   47.9290 C   0  0  0  0  0  0  0  0  0  0  0  0
   61.6560   32.3630   48.8100 C   0  0  0  0  0  0  0  0  0  0  0  0
   62.9970   32.6510   48.5360 C   0  0  0  0  0  0  0  0  0  0  0  0
   63.3390   33.3620   47.3840 C   0  0  0  0  0  0  0  0  0  0  0  0
   62.3420   33.7870   46.5030 C   0  0  0  0  0  0  0  0  0  0  0  0
   61.0000   33.5030   46.7720 C   0  0  0  0  0  0  0  0  0  0  0  0
   58.7520   30.7230   46.5840 C   0  0  0  0  0  0  0  0  0  0  0  0
   59.6060   30.0200   47.1940 O   0  0  0  0  0  0  0  0  0  0  0  0
   58.0990   30.2130   45.4200 C   0  0  0  0  0  0  0  0  0  0  0  0
   58.3430   28.9540   44.9470 C   0  0  0  0  0  0  0  0  0  0  0  0
   57.8130   27.6960   45.5120 C   0  0  0  0  0  0  0  0  0  0  0  0
   58.7020   26.6720   45.8640 C   0  0  0  0  0  0  0  0  0  0  0  0
   58.2200   25.4620   46.3710 C   0  0  0  0  0  0  0  0  0  0  0  0
   56.8360   25.2500   46.5030 C   0  0  0  0  0  0  0  0  0  0  0  0
   56.3140   24.0560   47.0230 O   0  0  0  0  0  0  0  0  0  0  0  0
   56.4620   22.7910   46.4400 C   0  0  0  0  0  0  0  0  0  0  0  0
   56.1380   22.6340   45.1270 N   0  0  0  0  0  0  0  0  0  0  0  0
   56.2610   21.4400   44.4910 C   0  0  0  0  0  0  0  0  0  0  0  0
   56.7380   20.3250   45.1820 C   0  0  0  0  0  0  0  0  0  0  0  0
   57.0990   20.4570   46.5230 C   0  0  0  0  0  0  0  0  0  0  0  0
   56.9750   21.6950   47.1590 C   0  0  0  0  0  0  0  0  0  0  0  0
   57.3850   21.8330   48.4810 O   0  0  0  0  0  0  0  0  0  0  0  0
   55.9490   26.2700   46.1420 C   0  0  0  0  0  0  0  0  0  0  0  0
   56.4270   27.4820   45.6340 C   0  0  0  0  0  0  0  0  0  0  0  0
   55.5220   28.4670   45.2520 O   0  0  0  0  0  0  0  0  0  0  0  0
  1  2  2  0
  2  3  1  0
  3  4  1  0
  4  5  2  0
  4  6  1  0
  6  7  1  0
  7  8  1  0
  8  9  2  0
  9 10  1  0
 10 11  2  0
 11 12  1  0
 12 13  2  0
  6 14  1  0
 14 15  2  0
 14 16  1  0
 16 17  2  3
 17 18  1  0
 18 19  2  0
 19 20  1  0
 20 21  2  0
 21 22  1  0
 22 23  1  0
 23 24  2  0
 24 25  1  0
 25 26  2  0
 26 27  1  0
 27 28  2  0
 28 29  1  0
 21 30  1  0
 30 31  2  0
 31 32  1  0
 16  2  1  0
 31 18  1  0
 13  8  1  0
 28 23  1  0
M  CHG  3   3  -1  29  -1  32  -1
M  END
>  <UniqueID>  (1786) 
10

>  <SMILES>  (1786) 
C=c1[n-]c(=O)n(Cc2ccccc2)c(=O)c1=Cc1ccc(Oc2ncccc2[O-])cc1[O-]

>  <Energy>  (1786) 
87.3377251316865

>  <Genealogy>  (1786) 
C=c1[n-]c(=O)n(Cc2ccccc2)c(=O)c1=Cc1ccc(Oc2ncccc2[O-])cc1[O-] (protonated)
C=c1[n-]c(=O)n(Cc2ccccc2)c(=O)c1=Cc1ccc(Oc2ncccc2[O-])cc1[O-] (3D coordinates assigned)
C=c1[n-]c(=O)n(Cc2ccccc2)c(=O)c1=Cc1ccc(Oc2ncccc2[O-])cc1[O-] (optimized conformer: 87.3377251316865 kcal/mol)

>  <smiles>  (1786) 
C=c1[nH]c(=O)n(Cc2ccccc2)c(=O)c1=Cc1ccc(Oc2ncccc2O)cc1O

>  <score_type>  (1786) 
oracle

>  <origin>  (1786) 
adg

>  <m_score__min__energy>  (1786) 
-16.300000000000001

>  <m_primary>  (1786) 
energy

$$$$
10:0
     RDKit          3D

 32 35  0  0  0  0  0  0  0  0999 V2000
   59.3580   30.0660   46.5040 C   0  0  0  0  0  0  0  0  0  0  0  0
   58.4500   29.5380   45.6690 C   0  0  0  0  0  0  0  0  0  0  0  0
   57.8670   28.2660   45.7770 C   0  0  0  0  0  0  0  0  0  0  0  0
   58.1150   27.3380   46.7280 C   0  0  0  0  0  0  0  0  0  0  0  0
   57.5050   25.9910   46.8060 C   0  0  0  0  0  0  0  0  0  0  0  0
   58.1490   24.8400   47.0880 N   0  0  0  0  0  0  0  0  0  0  0  0
   57.1830   23.9030   46.9940 C   0  0  0  0  0  0  0  0  0  0  0  0
   57.4040   22.6780   47.1930 O   0  0  0  0  0  0  0  0  0  0  0  0
   55.9640   24.3780   46.6610 N   0  0  0  0  0  0  0  0  0  0  0  0
   56.1870   25.7010   46.5420 C   0  0  0  0  0  0  0  0  0  0  0  0
   55.2080   26.6310   46.2050 O   0  0  0  0  0  0  0  0  0  0  0  0
   57.0070   28.1490   44.6950 C   0  0  0  0  0  0  0  0  0  0  0  0
   57.0970   29.3230   43.9790 C   0  0  0  0  0  0  0  0  0  0  0  0
   56.3180   29.6110   42.7300 C   0  0  0  0  0  0  0  0  0  0  0  0
   57.9770   30.1700   44.5620 N   0  0  0  0  0  0  0  0  0  0  0  0
   58.3980   31.4790   44.0310 C   0  0  0  0  0  0  0  0  0  0  0  0
   57.5140   32.6180   44.5690 C   0  0  0  0  0  0  0  0  0  0  0  0
   58.2180   33.4140   45.6350 C   0  0  0  0  0  0  0  0  0  0  0  0
   58.8790   34.6090   45.3130 C   0  0  0  0  0  0  0  0  0  0  0  0
   59.5980   35.3020   46.2900 C   0  0  0  0  0  0  0  0  0  0  0  0
   59.6780   34.7970   47.5920 C   0  0  0  0  0  0  0  0  0  0  0  0
   59.0330   33.5930   47.9310 C   0  0  0  0  0  0  0  0  0  0  0  0
   59.1830   33.0110   49.2850 C   0  0  0  0  0  0  0  0  0  0  0  0
   58.1690   32.5870   49.9010 O   0  0  0  0  0  0  0  0  0  0  0  0
   60.4880   32.8970   49.8780 N   0  0  0  0  0  0  0  0  0  0  0  0
   61.6490   32.9440   49.2850 C   0  0  0  0  0  0  0  0  0  0  0  0
   61.9310   32.2340   48.0960 C   0  0  0  0  0  0  0  0  0  0  0  0
   63.2040   32.3230   47.5280 C   0  0  0  0  0  0  0  0  0  0  0  0
   64.1870   33.1030   48.1410 C   0  0  0  0  0  0  0  0  0  0  0  0
   63.8850   33.7790   49.3250 C   0  0  0  0  0  0  0  0  0  0  0  0
   62.6420   33.6770   49.8670 N   0  0  0  0  0  0  0  0  0  0  0  0
   58.2820   32.9240   46.9490 C   0  0  0  0  0  0  0  0  0  0  0  0
  1  2  2  0
  2  3  1  0
  3  4  2  3
  4  5  1  0
  5  6  1  0
  6  7  1  0
  7  8  2  0
  7  9  1  0
  9 10  1  0
 10 11  1  0
  3 12  1  0
 12 13  2  0
 13 14  1  0
 13 15  1  0
 15 16  1  0
 16 17  1  0
 17 18  1  0
 18 19  2  0
 19 20  1  0
 20 21  2  0
 21 22  1  0
 22 23  1  0
 23 24  2  0
 23 25  1  0
 25 26  2  3
 26 27  1  0
 27 28  2  0
 28 29  1  0
 29 30  2  0
 30 31  1  0
 22 32  2  0
 15  2  1  0
 32 18  1  0
 10  5  2  0
 31 26  1  0
M  CHG  3   6  -1   9  -1  31  -1
M  END
>  <UniqueID>  (1787) 
11

>  <SMILES>  (1787) 
C=c1c(=Cc2[n-]c(=O)[n-]c2O)cc(C)n1CCc1cccc(C(=O)N=c2cccc[n-]2)c1

>  <Energy>  (1787) 
117.44499551614193

>  <Genealogy>  (1787) 
C=c1c(=Cc2[n-]c(=O)[n-]c2O)cc(C)n1CCc1cccc(C(=O)N=c2cccc[n-]2)c1 (protonated)
C=c1c(=Cc2[n-]c(=O)[n-]c2O)cc(C)n1CCc1cccc(C(=O)N=c2cccc[n-]2)c1 (3D coordinates assigned)
C=c1c(=Cc2[n-]c(=O)[n-]c2O)cc(C)n1CCc1cccc(C(=O)N=c2cccc[n-]2)c1 (optimized conformer: 117.44499551614193 kcal/mol)

>  <smiles>  (1787) 
C=c1c(=Cc2[nH]c(=O)[nH]c2O)cc(C)n1CCc1cccc(C(=O)N=c2cccc[nH]2)c1

>  <score_type>  (1787) 
oracle

>  <origin>  (1787) 
adg

>  <m_score__min__energy>  (1787) 
-15.48

>  <m_primary>  (1787) 
energy

$$$$
15:0
     RDKit          3D

 34 37  0  0  0  0  0  0  0  0999 V2000
   59.0730   27.7840   46.6460 C   0  0  0  0  0  0  0  0  0  0  0  0
   58.5110   28.3990   45.5900 C   0  0  0  0  0  0  0  0  0  0  0  0
   57.8160   27.7790   44.5440 C   0  0  0  0  0  0  0  0  0  0  0  0
   57.5580   26.4640   44.4000 C   0  0  0  0  0  0  0  0  0  0  0  0
   57.0460   25.5960   45.4760 C   0  0  0  0  0  0  0  0  0  0  0  0
   57.7640   24.6030   46.0240 N   0  0  0  0  0  0  0  0  0  0  0  0
   56.9670   24.1450   47.0130 C   0  0  0  0  0  0  0  0  0  0  0  0
   57.2970   23.1920   47.7630 O   0  0  0  0  0  0  0  0  0  0  0  0
   55.7950   24.8000   47.1480 N   0  0  0  0  0  0  0  0  0  0  0  0
   55.8650   25.7260   46.1790 C   0  0  0  0  0  0  0  0  0  0  0  0
   54.8960   26.7000   45.9820 O   0  0  0  0  0  0  0  0  0  0  0  0
   57.4720   28.7880   43.6530 C   0  0  0  0  0  0  0  0  0  0  0  0
   57.9290   29.9710   44.1970 C   0  0  0  0  0  0  0  0  0  0  0  0
   57.7500   31.3150   43.5630 C   0  0  0  0  0  0  0  0  0  0  0  0
   58.5640   29.7390   45.3690 N   0  0  0  0  0  0  0  0  0  0  0  0
   59.1130   30.7500   46.2380 C   0  0  0  0  0  0  0  0  0  0  0  0
   58.3160   31.8100   46.6890 C   0  0  0  0  0  0  0  0  0  0  0  0
   58.8370   32.7650   47.5660 C   0  0  0  0  0  0  0  0  0  0  0  0
   60.1800   32.6970   47.9990 C   0  0  0  0  0  0  0  0  0  0  0  0
   60.7940   33.6880   48.9460 C   0  0  0  0  0  0  0  0  0  0  0  0
   60.0680   34.6370   49.3510 O   0  0  0  0  0  0  0  0  0  0  0  0
   62.1640   33.6320   49.4240 N   0  0  2  0  0  0  0  0  0  0  0  0
   63.1370   33.7300   48.3050 C   0  0  0  0  0  0  0  0  0  0  0  0
   64.5080   33.1060   48.6400 C   0  0  0  0  0  0  0  0  0  0  0  0
   64.8300   33.3060   50.1300 C   0  0  2  0  0  0  0  0  0  0  0  0
   66.2400   32.8600   50.4630 C   0  0  0  0  0  0  0  0  0  0  0  0
   66.6020   31.7050   50.1170 O   0  0  0  0  0  0  0  0  0  0  0  0
   67.1620   33.6930   51.2060 N   0  0  0  0  0  0  0  0  0  0  0  0
   66.7810   35.0350   51.6640 C   0  0  0  0  0  0  0  0  0  0  0  0
   68.4900   33.1590   51.5290 C   0  0  0  0  0  0  0  0  0  0  0  0
   63.7970   32.5660   51.0060 C   0  0  0  0  0  0  0  0  0  0  0  0
   62.3930   32.5020   50.3530 C   0  0  0  0  0  0  0  0  0  0  0  0
   60.9700   31.6230   47.5360 C   0  0  0  0  0  0  0  0  0  0  0  0
   60.4420   30.6590   46.6730 C   0  0  0  0  0  0  0  0  0  0  0  0
  1  2  2  0
  2  3  1  0
  3  4  2  3
  4  5  1  0
  5  6  1  0
  6  7  1  0
  7  8  2  0
  7  9  1  0
  9 10  1  0
 10 11  1  0
  3 12  1  0
 12 13  2  0
 13 14  1  0
 13 15  1  0
 15 16  1  0
 16 17  2  0
 17 18  1  0
 18 19  2  0
 19 20  1  0
 20 21  2  0
 22 20  1  6
 22 23  1  0
 23 24  1  0
 24 25  1  0
 25 26  1  6
 26 27  2  0
 26 28  1  0
 28 29  1  0
 28 30  1  0
 25 31  1  0
 31 32  1  0
 19 33  1  0
 33 34  2  0
 15  2  1  0
 34 16  1  0
 10  5  2  0
 32 22  1  0
M  CHG  4   6  -1   9  -1  11  -1  22   1
M  END
>  <UniqueID>  (1788) 
16

>  <SMILES>  (1788) 
C=c1c(=Cc2[n-]c(=O)[n-]c2[O-])cc(C)n1-c1ccc(C(=O)[NH+]2CCC(C(=O)N(C)C)CC2)cc1

>  <Energy>  (1788) 
149.02917524734627

>  <Genealogy>  (1788) 
C=c1c(=Cc2[n-]c(=O)[n-]c2[O-])cc(C)n1-c1ccc(C(=O)[NH+]2CCC(C(=O)N(C)C)CC2)cc1 (protonated)
C=c1c(=Cc2[n-]c(=O)[n-]c2[O-])cc(C)n1-c1ccc(C(=O)[NH+]2CCC(C(=O)N(C)C)CC2)cc1 (3D coordinates assigned)
C=c1c(=Cc2[n-]c(=O)[n-]c2[O-])cc(C)n1-c1ccc(C(=O)[NH+]2CCC(C(=O)N(C)C)CC2)cc1 (nonaromatic ring conformer: 149.02917524734627 kcal/mol)

>  <smiles>  (1788) 
C=c1c(=Cc2[nH]c(=O)[nH]c2O)cc(C)n1-c1ccc(C(=O)N2CCC(C(=O)N(C)C)CC2)cc1

>  <score_type>  (1788) 
oracle

>  <origin>  (1788) 
adg

>  <m_score__min__energy>  (1788) 
-15.51

>  <m_primary>  (1788) 
energy

$$$$
16:0
     RDKit          3D

 30 33  0  0  0  0  0  0  0  0999 V2000
   58.7310   29.9580   47.5970 C   0  0  0  0  0  0  0  0  0  0  0  0
   58.4750   30.2910   46.3200 C   0  0  0  0  0  0  0  0  0  0  0  0
   58.4060   29.4010   45.2410 C   0  0  0  0  0  0  0  0  0  0  0  0
   58.5280   28.0590   45.2790 C   0  0  0  0  0  0  0  0  0  0  0  0
   57.4370   27.1390   45.6580 C   0  0  0  0  0  0  0  0  0  0  0  0
   56.0900   27.4220   45.6150 C   0  0  0  0  0  0  0  0  0  0  0  0
   55.5220   28.5900   45.1230 O   0  0  0  0  0  0  0  0  0  0  0  0
   55.3750   26.4020   46.1280 N   0  0  0  0  0  0  0  0  0  0  0  0
   56.3310   25.5200   46.4920 C   0  0  0  0  0  0  0  0  0  0  0  0
   56.0710   24.4180   47.0400 O   0  0  0  0  0  0  0  0  0  0  0  0
   57.5890   25.9330   46.2330 N   0  0  0  0  0  0  0  0  0  0  0  0
   58.1370   30.1700   44.1180 C   0  0  0  0  0  0  0  0  0  0  0  0
   58.0540   31.4790   44.5440 C   0  0  0  0  0  0  0  0  0  0  0  0
   57.8050   32.6450   43.6350 C   0  0  0  0  0  0  0  0  0  0  0  0
   58.2590   31.5630   45.8810 N   0  0  0  0  0  0  0  0  0  0  0  0
   58.2870   32.8130   46.6590 C   0  0  0  0  0  0  0  0  0  0  0  0
   59.5860   32.9400   47.4120 C   0  0  0  0  0  0  0  0  0  0  0  0
   60.8050   32.6690   46.7740 C   0  0  0  0  0  0  0  0  0  0  0  0
   62.0120   32.8010   47.4660 C   0  0  0  0  0  0  0  0  0  0  0  0
   62.0220   33.2030   48.8130 C   0  0  0  0  0  0  0  0  0  0  0  0
   63.3040   33.3460   49.5500 C   0  0  0  0  0  0  0  0  0  0  0  0
   64.4580   32.6690   49.1140 C   0  0  0  0  0  0  0  0  0  0  0  0
   65.6640   32.8050   49.8070 C   0  0  0  0  0  0  0  0  0  0  0  0
   65.7340   33.6150   50.9420 C   0  0  0  0  0  0  0  0  0  0  0  0
   64.5950   34.2940   51.3880 C   0  0  0  0  0  0  0  0  0  0  0  0
   64.6660   35.1250   52.5620 C   0  0  0  0  0  0  0  0  0  0  0  0
   64.7220   35.7930   53.5060 N   0  0  0  0  0  0  0  0  0  0  0  0
   63.3840   34.1600   50.6960 C   0  0  0  0  0  0  0  0  0  0  0  0
   60.7980   33.4690   49.4530 C   0  0  0  0  0  0  0  0  0  0  0  0
   59.5920   33.3380   48.7580 C   0  0  0  0  0  0  0  0  0  0  0  0
  1  2  2  0
  2  3  1  0
  3  4  2  0
  4  5  1  0
  5  6  2  0
  6  7  1  0
  6  8  1  0
  8  9  1  0
  9 10  2  0
  9 11  1  0
  3 12  1  0
 12 13  2  0
 13 14  1  0
 13 15  1  0
 15 16  1  0
 16 17  1  0
 17 18  2  0
 18 19  1  0
 19 20  2  0
 20 21  1  0
 21 22  2  0
 22 23  1  0
 23 24  2  0
 24 25  1  0
 25 26  1  0
 26 27  3  0
 25 28  2  0
 20 29  1  0
 29 30  2  0
 15  2  1  0
 30 17  1  0
 11  5  1  0
 28 21  1  0
M  CHG  2   7  -1   8  -1
M  END
>  <UniqueID>  (1789) 
17

>  <SMILES>  (1789) 
C=c1/c(=C/c2[nH]c(=O)[n-]c2[O-])cc(C)n1Cc1ccc(-c2cccc(C#N)c2)cc1

>  <Energy>  (1789) 
121.51902475322443

>  <Genealogy>  (1789) 
C=c1c(=Cc2[nH]c(=O)[n-]c2[O-])cc(C)n1Cc1ccc(-c2cccc(C#N)c2)cc1 (protonated)
C=c1/c(=C/c2[nH]c(=O)[n-]c2[O-])cc(C)n1Cc1ccc(-c2cccc(C#N)c2)cc1 (cis-trans isomerization)
C=c1/c(=C/c2[nH]c(=O)[n-]c2[O-])cc(C)n1Cc1ccc(-c2cccc(C#N)c2)cc1 (3D coordinates assigned)
C=c1/c(=C/c2[nH]c(=O)[n-]c2[O-])cc(C)n1Cc1ccc(-c2cccc(C#N)c2)cc1 (optimized conformer: 121.51902475322443 kcal/mol)

>  <smiles>  (1789) 
C=c1c(=Cc2[nH]c(=O)[nH]c2O)cc(C)n1Cc1ccc(-c2cccc(C#N)c2)cc1

>  <score_type>  (1789) 
oracle

>  <origin>  (1789) 
adg

>  <m_score__min__energy>  (1789) 
-15.9

>  <m_primary>  (1789) 
energy

$$$$
21:0
     RDKit          3D

 35 39  0  0  0  0  0  0  0  0999 V2000
   58.6290   28.9790   46.9410 C   0  0  0  0  0  0  0  0  0  0  0  0
   58.2630   29.3980   45.7190 C   0  0  0  0  0  0  0  0  0  0  0  0
   57.7480   28.6170   44.6710 C   0  0  0  0  0  0  0  0  0  0  0  0
   57.6610   27.2790   44.5260 C   0  0  0  0  0  0  0  0  0  0  0  0
   57.5170   26.3040   45.6250 C   0  0  0  0  0  0  0  0  0  0  0  0
   56.2550   26.0370   46.1720 C   0  0  0  0  0  0  0  0  0  0  0  0
   55.1300   26.7200   45.7240 O   0  0  0  0  0  0  0  0  0  0  0  0
   56.1250   25.1090   47.1550 N   0  0  0  0  0  0  0  0  0  0  0  0
   57.1980   24.4160   47.6130 C   0  0  0  0  0  0  0  0  0  0  0  0
   57.0550   23.5660   48.5290 O   0  0  0  0  0  0  0  0  0  0  0  0
   58.4280   24.6370   47.0800 N   0  0  0  0  0  0  0  0  0  0  0  0
   58.6110   25.5530   46.0940 C   0  0  0  0  0  0  0  0  0  0  0  0
   59.7610   25.7130   45.6060 O   0  0  0  0  0  0  0  0  0  0  0  0
   57.3230   29.5050   43.6970 C   0  0  0  0  0  0  0  0  0  0  0  0
   57.6460   30.7700   44.1410 C   0  0  0  0  0  0  0  0  0  0  0  0
   57.3960   32.0300   43.3680 C   0  0  0  0  0  0  0  0  0  0  0  0
   58.2120   30.7100   45.3660 N   0  0  0  0  0  0  0  0  0  0  0  0
   58.6970   31.8330   46.1250 C   0  0  0  0  0  0  0  0  0  0  0  0
   57.8000   32.7110   46.7480 C   0  0  0  0  0  0  0  0  0  0  0  0
   58.2780   33.8020   47.4760 C   0  0  0  0  0  0  0  0  0  0  0  0
   59.6530   34.0280   47.5820 C   0  0  0  0  0  0  0  0  0  0  0  0
   60.5660   33.1650   46.9530 C   0  0  0  0  0  0  0  0  0  0  0  0
   62.0250   33.3980   47.0720 C   0  0  0  0  0  0  0  0  0  0  0  0
   62.6890   33.7090   46.0460 O   0  0  0  0  0  0  0  0  0  0  0  0
   62.6960   33.2970   48.3420 N   0  0  0  0  0  0  0  0  0  0  0  0
   61.9190   33.3680   49.5820 C   0  0  0  0  0  0  0  0  0  0  0  0
   62.6930   34.1620   50.6340 C   0  0  0  0  0  0  0  0  0  0  0  0
   64.1240   33.7030   50.7390 C   0  0  0  0  0  0  0  0  0  0  0  0
   64.8540   34.0050   51.9010 C   0  0  0  0  0  0  0  0  0  0  0  0
   66.1990   33.6410   52.0060 C   0  0  0  0  0  0  0  0  0  0  0  0
   66.8310   32.9850   50.9490 C   0  0  0  0  0  0  0  0  0  0  0  0
   66.1220   32.6940   49.7820 C   0  0  0  0  0  0  0  0  0  0  0  0
   64.7710   33.0590   49.6580 C   0  0  0  0  0  0  0  0  0  0  0  0
   64.0330   32.6970   48.3920 C   0  0  0  0  0  0  0  0  0  0  0  0
   60.0760   32.0620   46.2340 C   0  0  0  0  0  0  0  0  0  0  0  0
  1  2  2  0
  2  3  1  0
  3  4  2  3
  4  5  1  0
  5  6  2  0
  6  7  1  0
  6  8  1  0
  8  9  1  0
  9 10  2  0
  9 11  1  0
 11 12  1  0
 12 13  2  0
  3 14  1  0
 14 15  2  0
 15 16  1  0
 15 17  1  0
 17 18  1  0
 18 19  2  0
 19 20  1  0
 20 21  2  0
 21 22  1  0
 22 23  1  0
 23 24  2  0
 23 25  1  0
 25 26  1  0
 26 27  1  0
 27 28  1  0
 28 29  2  0
 29 30  1  0
 30 31  2  0
 31 32  1  0
 32 33  2  0
 33 34  1  0
 22 35  2  0
 17  2  1  0
 35 18  1  0
 12  5  1  0
 34 25  1  0
 33 28  1  0
M  CHG  3   7  -1   8  -1  11  -1
M  END
>  <UniqueID>  (1790) 
22

>  <SMILES>  (1790) 
C=c1c(=Cc2c([O-])[n-]c(=O)[n-]c2=O)cc(C)n1-c1cccc(C(=O)N2CCc3ccccc3C2)c1

>  <Energy>  (1790) 
116.3662772874279

>  <Genealogy>  (1790) 
C=c1c(=Cc2c([O-])[n-]c(=O)[n-]c2=O)cc(C)n1-c1cccc(C(=O)N2CCc3ccccc3C2)c1 (protonated)
C=c1c(=Cc2c([O-])[n-]c(=O)[n-]c2=O)cc(C)n1-c1cccc(C(=O)N2CCc3ccccc3C2)c1 (3D coordinates assigned)
C=c1c(=Cc2c([O-])[n-]c(=O)[n-]c2=O)cc(C)n1-c1cccc(C(=O)N2CCc3ccccc3C2)c1 (nonaromatic ring conformer: 116.3662772874279 kcal/mol)

>  <smiles>  (1790) 
C=c1c(=Cc2c(O)[nH]c(=O)[nH]c2=O)cc(C)n1-c1cccc(C(=O)N2CCc3ccccc3C2)c1

>  <score_type>  (1790) 
oracle

>  <origin>  (1790) 
adg

>  <m_score__min__energy>  (1790) 
-18.309999999999999

>  <m_primary>  (1790) 
energy

$$$$
23:0
     RDKit          3D

 28 30  0  0  0  0  0  0  0  0999 V2000
   55.3900   26.6980   46.2190 O   0  0  0  0  0  0  0  0  0  0  0  0
   56.6390   26.8720   46.2190 C   0  0  0  0  0  0  0  0  0  0  0  0
   57.5090   25.7770   46.5300 N   0  0  0  0  0  0  0  0  0  0  0  0
   58.4820   25.2240   45.5950 C   0  0  0  0  0  0  0  0  0  0  0  0
   57.9050   24.0200   44.9050 C   0  0  0  0  0  0  0  0  0  0  0  0
   56.8740   24.1590   43.9610 C   0  0  0  0  0  0  0  0  0  0  0  0
   56.3260   23.0300   43.3450 C   0  0  0  0  0  0  0  0  0  0  0  0
   56.7980   21.7510   43.6700 C   0  0  0  0  0  0  0  0  0  0  0  0
   56.2600   20.6200   43.0620 O   0  0  0  0  0  0  0  0  0  0  0  0
   57.8190   21.6080   44.6150 C   0  0  0  0  0  0  0  0  0  0  0  0
   58.3690   22.7350   45.2330 C   0  0  0  0  0  0  0  0  0  0  0  0
   57.2130   28.2020   45.9020 C   0  0  0  0  0  0  0  0  0  0  0  0
   58.5420   28.4880   46.2540 C   0  0  0  0  0  0  0  0  0  0  0  0
   59.1210   29.7370   45.9680 C   0  0  0  0  0  0  0  0  0  0  0  0
   60.5380   30.0250   46.3390 C   0  0  0  0  0  0  0  0  0  0  0  0
   61.4740   29.5600   45.6340 O   0  0  0  0  0  0  0  0  0  0  0  0
   60.9060   30.8500   47.5470 C   0  0  0  0  0  0  0  0  0  0  0  0
   60.4480   32.2810   47.4080 C   0  0  0  0  0  0  0  0  0  0  0  0
   59.2770   32.7210   48.0510 C   0  0  0  0  0  0  0  0  0  0  0  0
   58.8490   34.0450   47.9120 C   0  0  0  0  0  0  0  0  0  0  0  0
   59.5770   34.9360   47.1190 C   0  0  0  0  0  0  0  0  0  0  0  0
   60.7300   34.5050   46.4590 C   0  0  0  0  0  0  0  0  0  0  0  0
   61.1630   33.1810   46.5970 C   0  0  0  0  0  0  0  0  0  0  0  0
   58.3180   30.7000   45.3180 C   0  0  0  0  0  0  0  0  0  0  0  0
   58.7700   31.8440   45.0460 O   0  0  0  0  0  0  0  0  0  0  0  0
   57.0340   30.4070   44.9880 N   0  0  0  0  0  0  0  0  0  0  0  0
   56.4650   29.2040   45.2570 C   0  0  0  0  0  0  0  0  0  0  0  0
   55.1480   28.9840   44.8750 O   0  0  0  0  0  0  0  0  0  0  0  0
  1  2  2  0
  2  3  1  0
  3  4  1  0
  4  5  1  0
  5  6  2  0
  6  7  1  0
  7  8  2  0
  8  9  1  0
  8 10  1  0
 10 11  2  0
  2 12  1  0
 12 13  1  0
 13 14  2  0
 14 15  1  0
 15 16  2  0
 15 17  1  0
 17 18  1  0
 18 19  2  0
 19 20  1  0
 20 21  2  0
 21 22  1  0
 22 23  2  0
 14 24  1  0
 24 25  2  0
 24 26  1  0
 26 27  1  0
 27 28  1  0
 11  5  1  0
 27 12  2  0
 23 18  1  0
M  CHG  3   3  -1  26  -1  28  -1
M  END
>  <UniqueID>  (1791) 
24

>  <SMILES>  (1791) 
O=C([N-]Cc1ccc(O)cc1)c1cc(C(=O)Cc2ccccc2)c(=O)[n-]c1[O-]

>  <Energy>  (1791) 
48.83479019743395

>  <Genealogy>  (1791) 
O=C([N-]Cc1ccc(O)cc1)c1cc(C(=O)Cc2ccccc2)c(=O)[n-]c1[O-] (protonated)
O=C([N-]Cc1ccc(O)cc1)c1cc(C(=O)Cc2ccccc2)c(=O)[n-]c1[O-] (3D coordinates assigned)
O=C([N-]Cc1ccc(O)cc1)c1cc(C(=O)Cc2ccccc2)c(=O)[n-]c1[O-] (optimized conformer: 48.83479019743395 kcal/mol)

>  <smiles>  (1791) 
O=C(NCc1ccc(O)cc1)c1cc(C(=O)Cc2ccccc2)c(=O)[nH]c1O

>  <score_type>  (1791) 
oracle

>  <origin>  (1791) 
adg

>  <m_score__min__energy>  (1791) 
-16.059999999999999

>  <m_primary>  (1791) 
energy

$$$$
28:0
     RDKit          3D

 24 26  0  0  0  0  0  0  0  0999 V2000
   58.1150   27.4270   43.1020 C   0  0  0  0  0  0  0  0  0  0  0  0
   58.0490   27.1970   44.4220 C   0  0  0  0  0  0  0  0  0  0  0  0
   57.5710   26.0460   45.0700 C   0  0  0  0  0  0  0  0  0  0  0  0
   56.8810   24.9860   44.6010 C   0  0  0  0  0  0  0  0  0  0  0  0
   55.5460   24.5680   45.0580 C   0  0  0  0  0  0  0  0  0  0  0  0
   54.9910   23.3660   44.8110 N   0  0  0  0  0  0  0  0  0  0  0  0
   53.7370   23.4970   45.2930 C   0  0  0  0  0  0  0  0  0  0  0  0
   52.8960   22.5610   45.2580 O   0  0  0  0  0  0  0  0  0  0  0  0
   53.4500   24.7130   45.8040 N   0  0  0  0  0  0  0  0  0  0  0  0
   54.6020   25.3820   45.6330 C   0  0  0  0  0  0  0  0  0  0  0  0
   54.7840   26.7110   45.9920 O   0  0  0  0  0  0  0  0  0  0  0  0
   57.9610   26.2160   46.3970 C   0  0  0  0  0  0  0  0  0  0  0  0
   57.7090   25.2790   47.5380 C   0  0  0  0  0  0  0  0  0  0  0  0
   58.5640   27.4100   46.5340 N   0  0  0  0  0  0  0  0  0  0  0  0
   58.6090   28.0100   45.3560 N   0  0  0  0  0  0  0  0  0  0  0  0
   59.2790   29.2970   45.1380 C   0  0  0  0  0  0  0  0  0  0  0  0
   58.9300   30.2750   46.2300 C   0  0  0  0  0  0  0  0  0  0  0  0
   58.9120   29.8700   47.4250 O   0  0  0  0  0  0  0  0  0  0  0  0
   58.5710   31.6430   45.9350 N   0  0  0  0  0  0  0  0  0  0  0  0
   58.3010   32.0710   44.5560 C   0  0  0  0  0  0  0  0  0  0  0  0
   57.3920   33.3040   44.5480 C   0  0  0  0  0  0  0  0  0  0  0  0
   57.9010   34.3110   45.4000 O   0  0  0  0  0  0  0  0  0  0  0  0
   57.8590   33.8600   46.7400 C   0  0  0  0  0  0  0  0  0  0  0  0
   58.8130   32.6810   46.9470 C   0  0  0  0  0  0  0  0  0  0  0  0
  1  2  2  0
  2  3  1  0
  3  4  2  3
  4  5  1  0
  5  6  1  0
  6  7  1  0
  7  8  2  0
  7  9  1  0
  9 10  1  0
 10 11  1  0
  3 12  1  0
 12 13  1  0
 12 14  2  0
 14 15  1  0
 15 16  1  0
 16 17  1  0
 17 18  2  0
 17 19  1  0
 19 20  1  0
 20 21  1  0
 21 22  1  0
 22 23  1  0
 23 24  1  0
 15  2  1  0
 24 19  1  0
 10  5  2  0
M  CHG  4   6  -1   9  -1  11  -1  14   1
M  END
>  <UniqueID>  (1792) 
29

>  <SMILES>  (1792) 
C=c1c(=Cc2[n-]c(=O)[n-]c2[O-])c(C)[nH+]n1CC(=O)N1CCOCC1

>  <Energy>  (1792) 
115.95917230972827

>  <Genealogy>  (1792) 
C=c1c(=Cc2[n-]c(=O)[n-]c2[O-])c(C)[nH+]n1CC(=O)N1CCOCC1 (protonated)
C=c1c(=Cc2[n-]c(=O)[n-]c2[O-])c(C)[nH+]n1CC(=O)N1CCOCC1 (3D coordinates assigned)
C=c1c(=Cc2[n-]c(=O)[n-]c2[O-])c(C)[nH+]n1CC(=O)N1CCOCC1 (nonaromatic ring conformer: 115.95917230972827 kcal/mol)

>  <smiles>  (1792) 
C=c1c(=Cc2[nH]c(=O)[nH]c2O)c(C)nn1CC(=O)N1CCOCC1

>  <score_type>  (1792) 
oracle

>  <origin>  (1792) 
adg

>  <m_score__min__energy>  (1792) 
-14.74

>  <m_primary>  (1792) 
energy

$$$$
36:0
     RDKit          3D

 31 34  0  0  0  0  0  0  0  0999 V2000
   58.5950   30.0280   47.7950 C   0  0  0  0  0  0  0  0  0  0  0  0
   58.3310   30.4870   46.5610 C   0  0  0  0  0  0  0  0  0  0  0  0
   58.1890   29.7300   45.3840 C   0  0  0  0  0  0  0  0  0  0  0  0
   58.3910   28.4200   45.1390 C   0  0  0  0  0  0  0  0  0  0  0  0
   57.5160   27.3160   45.5800 C   0  0  0  0  0  0  0  0  0  0  0  0
   56.1200   27.4670   45.6190 C   0  0  0  0  0  0  0  0  0  0  0  0
   55.5210   28.6510   45.2050 O   0  0  0  0  0  0  0  0  0  0  0  0
   55.3420   26.4480   46.0700 N   0  0  0  0  0  0  0  0  0  0  0  0
   55.8920   25.2850   46.5030 C   0  0  0  0  0  0  0  0  0  0  0  0
   55.1530   24.3540   46.9120 O   0  0  0  0  0  0  0  0  0  0  0  0
   57.2410   25.1270   46.4990 N   0  0  0  0  0  0  0  0  0  0  0  0
   58.0620   26.1150   46.0570 C   0  0  0  0  0  0  0  0  0  0  0  0
   59.3090   25.9380   46.0750 O   0  0  0  0  0  0  0  0  0  0  0  0
   57.7890   30.6170   44.4000 C   0  0  0  0  0  0  0  0  0  0  0  0
   57.7380   31.8670   44.9800 C   0  0  0  0  0  0  0  0  0  0  0  0
   57.4040   33.1270   44.2400 C   0  0  0  0  0  0  0  0  0  0  0  0
   58.0730   31.7950   46.2900 N   0  0  0  0  0  0  0  0  0  0  0  0
   58.0850   32.9200   47.2400 C   0  0  0  0  0  0  0  0  0  0  0  0
   59.4530   33.1010   47.8510 C   0  0  0  0  0  0  0  0  0  0  0  0
   60.6020   33.0220   47.0480 C   0  0  0  0  0  0  0  0  0  0  0  0
   61.8710   33.1990   47.6080 C   0  0  0  0  0  0  0  0  0  0  0  0
   62.0120   33.4760   48.9780 C   0  0  0  0  0  0  0  0  0  0  0  0
   63.3210   33.6430   49.5580 N   0  0  0  0  0  0  0  0  0  0  0  0
   63.4950   34.3390   50.8400 C   0  0  0  0  0  0  0  0  0  0  0  0
   64.2170   33.4350   51.8520 C   0  0  0  0  0  0  0  0  0  0  0  0
   65.2800   32.5170   51.2060 C   0  0  0  0  0  0  0  0  0  0  0  0
   66.3890   32.4330   52.0300 F   0  0  0  0  0  0  0  0  0  0  0  0
   65.7120   33.0090   49.8170 C   0  0  0  0  0  0  0  0  0  0  0  0
   64.4990   33.0820   48.8780 C   0  0  0  0  0  0  0  0  0  0  0  0
   60.8610   33.5630   49.7790 C   0  0  0  0  0  0  0  0  0  0  0  0
   59.5940   33.3840   49.2190 C   0  0  0  0  0  0  0  0  0  0  0  0
  1  2  2  0
  2  3  1  0
  3  4  2  0
  4  5  1  0
  5  6  2  0
  6  7  1  0
  6  8  1  0
  8  9  1  0
  9 10  2  0
  9 11  1  0
 11 12  1  0
 12 13  2  0
  3 14  1  0
 14 15  2  0
 15 16  1  0
 15 17  1  0
 17 18  1  0
 18 19  1  0
 19 20  2  0
 20 21  1  0
 21 22  2  0
 22 23  1  0
 23 24  1  0
 24 25  1  0
 25 26  1  0
 26 27  1  0
 26 28  1  0
 28 29  1  0
 22 30  1  0
 30 31  2  0
 17  2  1  0
 31 19  1  0
 12  5  1  0
 29 23  1  0
M  CHG  3   7  -1   8  -1  11  -1
M  END
>  <UniqueID>  (1793) 
37

>  <SMILES>  (1793) 
C=c1/c(=C\c2c([O-])[n-]c(=O)[n-]c2=O)cc(C)n1Cc1ccc(N2CCC(F)CC2)cc1

>  <Energy>  (1793) 
103.75478587961643

>  <Genealogy>  (1793) 
C=c1c(=Cc2c([O-])[n-]c(=O)[n-]c2=O)cc(C)n1Cc1ccc(N2CCC(F)CC2)cc1 (protonated)
C=c1/c(=C\c2c([O-])[n-]c(=O)[n-]c2=O)cc(C)n1Cc1ccc(N2CCC(F)CC2)cc1 (cis-trans isomerization)
C=c1/c(=C\c2c([O-])[n-]c(=O)[n-]c2=O)cc(C)n1Cc1ccc(N2CCC(F)CC2)cc1 (3D coordinates assigned)
C=c1/c(=C\c2c([O-])[n-]c(=O)[n-]c2=O)cc(C)n1Cc1ccc(N2CCC(F)CC2)cc1 (nonaromatic ring conformer: 103.75478587961643 kcal/mol)

>  <smiles>  (1793) 
C=c1c(=Cc2c(O)[nH]c(=O)[nH]c2=O)cc(C)n1Cc1ccc(N2CCC(F)CC2)cc1

>  <score_type>  (1793) 
oracle

>  <origin>  (1793) 
adg

>  <m_score__min__energy>  (1793) 
-16.239999999999998

>  <m_primary>  (1793) 
energy

$$$$
42:0
     RDKit          3D

 31 34  0  0  0  0  0  0  0  0999 V2000
   54.4450   29.1190   54.4560 C   0  0  0  0  0  0  0  0  0  0  0  0
   54.9870   29.7100   53.3790 C   0  0  0  0  0  0  0  0  0  0  0  0
   54.3690   30.6400   52.5290 C   0  0  0  0  0  0  0  0  0  0  0  0
   53.0810   31.0240   52.4260 C   0  0  0  0  0  0  0  0  0  0  0  0
   52.3140   31.1260   51.1750 C   0  0  0  0  0  0  0  0  0  0  0  0
   52.3210   30.1810   50.2190 N   0  0  0  0  0  0  0  0  0  0  0  0
   51.4010   30.6250   49.3350 C   0  0  0  0  0  0  0  0  0  0  0  0
   51.1280   30.0060   48.2730 O   0  0  0  0  0  0  0  0  0  0  0  0
   50.7870   31.7760   49.6830 N   0  0  0  0  0  0  0  0  0  0  0  0
   51.3650   32.0720   50.8580 C   0  0  0  0  0  0  0  0  0  0  0  0
   51.0130   33.1700   51.6350 O   0  0  0  0  0  0  0  0  0  0  0  0
   55.3670   31.1460   51.7180 C   0  0  0  0  0  0  0  0  0  0  0  0
   56.5280   30.4830   52.0480 C   0  0  0  0  0  0  0  0  0  0  0  0
   57.8290   30.7560   51.4050 C   0  0  0  0  0  0  0  0  0  0  0  0
   58.1170   30.1360   50.3430 O   0  0  0  0  0  0  0  0  0  0  0  0
   58.6780   31.8270   51.8780 N   0  0  0  0  0  0  0  0  0  0  0  0
   59.5500   32.3340   50.8000 C   0  0  0  0  0  0  0  0  0  0  0  0
   60.4520   33.4760   51.3260 C   0  0  0  0  0  0  0  0  0  0  0  0
   60.0660   33.9270   52.6120 O   0  0  0  0  0  0  0  0  0  0  0  0
   58.6800   34.2080   52.6290 C   0  0  0  0  0  0  0  0  0  0  0  0
   57.8510   32.9220   52.4300 C   0  0  0  0  0  0  0  0  0  0  0  0
   56.3000   29.5860   53.0400 N   0  0  0  0  0  0  0  0  0  0  0  0
   57.2580   28.6000   53.5690 C   0  0  0  0  0  0  0  0  0  0  0  0
   58.5310   29.2760   54.0210 C   0  0  0  0  0  0  0  0  0  0  0  0
   59.7780   28.8040   53.5790 C   0  0  0  0  0  0  0  0  0  0  0  0
   60.9580   29.4310   53.9910 C   0  0  0  0  0  0  0  0  0  0  0  0
   60.9040   30.5280   54.8540 C   0  0  0  0  0  0  0  0  0  0  0  0
   62.0490   31.1350   55.2530 F   0  0  0  0  0  0  0  0  0  0  0  0
   59.6680   30.9960   55.3120 C   0  0  0  0  0  0  0  0  0  0  0  0
   58.4850   30.3720   54.9030 C   0  0  0  0  0  0  0  0  0  0  0  0
   57.3000   30.8350   55.3730 F   0  0  0  0  0  0  0  0  0  0  0  0
  1  2  2  0
  2  3  1  0
  3  4  2  0
  4  5  1  0
  5  6  1  0
  6  7  1  0
  7  8  2  0
  7  9  1  0
  9 10  1  0
 10 11  1  0
  3 12  1  0
 12 13  2  0
 13 14  1  0
 14 15  2  0
 14 16  1  0
 16 17  1  0
 17 18  1  0
 18 19  1  0
 19 20  1  0
 20 21  1  0
 13 22  1  0
 22 23  1  0
 23 24  1  0
 24 25  2  0
 25 26  1  0
 26 27  2  0
 27 28  1  0
 27 29  1  0
 29 30  2  0
 30 31  1  0
 22  2  1  0
 30 24  1  0
 10  5  2  0
 21 16  1  0
M  CHG  4   6  -1   9  -1  11  -1  16   1
M  END
>  <UniqueID>  (1794) 
42

>  <SMILES>  (1794) 
C=c1/c(=C\c2[n-]c(=O)[n-]c2[O-])cc(C(=O)[NH+]2CCOCC2)n1Cc1ccc(F)cc1F

>  <Energy>  (1794) 
139.32019472826215

>  <Genealogy>  (1794) 
C=c1c(=Cc2[n-]c(=O)[n-]c2[O-])cc(C(=O)[NH+]2CCOCC2)n1Cc1ccc(F)cc1F (protonated)
C=c1/c(=C\c2[n-]c(=O)[n-]c2[O-])cc(C(=O)[NH+]2CCOCC2)n1Cc1ccc(F)cc1F (cis-trans isomerization)
C=c1/c(=C\c2[n-]c(=O)[n-]c2[O-])cc(C(=O)[NH+]2CCOCC2)n1Cc1ccc(F)cc1F (3D coordinates assigned)
C=c1/c(=C\c2[n-]c(=O)[n-]c2[O-])cc(C(=O)[NH+]2CCOCC2)n1Cc1ccc(F)cc1F (nonaromatic ring conformer: 139.32019472826215 kcal/mol)

>  <smiles>  (1794) 
C=c1c(=Cc2[nH]c(=O)[nH]c2O)cc(C(=O)N2CCOCC2)n1Cc1ccc(F)cc1F

>  <score_type>  (1794) 
oracle

>  <origin>  (1794) 
adg

>  <m_score__min__energy>  (1794) 
-15.619999999999999

>  <m_primary>  (1794) 
energy

$$$$
50:0
     RDKit          3D

 33 36  0  0  0  0  0  0  0  0999 V2000
   56.4420   25.1240   45.6520 C   0  0  0  0  0  0  0  0  0  0  0  0
   56.0120   26.4080   46.3550 C   0  0  0  0  0  0  0  0  0  0  0  0
   57.1430   27.3480   46.4510 N   0  0  0  0  0  0  0  0  0  0  0  0
   58.0520   27.1750   47.4570 C   0  0  0  0  0  0  0  0  0  0  0  0
   59.1470   28.0430   47.6190 C   0  0  0  0  0  0  0  0  0  0  0  0
   60.1150   27.8000   48.7270 C   0  0  0  0  0  0  0  0  0  0  0  0
   61.0750   26.9970   48.5550 O   0  0  0  0  0  0  0  0  0  0  0  0
   60.0020   28.5030   49.9700 N   0  0  0  0  0  0  0  0  0  0  0  0
   59.4610   29.8210   50.1390 C   0  0  0  0  0  0  0  0  0  0  0  0
   59.9470   30.8520   49.3260 C   0  0  0  0  0  0  0  0  0  0  0  0
   59.4460   32.1530   49.4480 C   0  0  0  0  0  0  0  0  0  0  0  0
   60.1100   33.4380   48.4420 S   0  0  0  0  0  0  0  0  0  0  0  0
   60.9500   34.3360   49.3080 O   0  0  0  0  0  0  0  0  0  0  0  0
   60.9840   32.8510   47.3680 O   0  0  0  0  0  0  0  0  0  0  0  0
   58.7920   34.3420   47.7300 N   0  0  0  0  0  0  0  0  0  0  0  0
   59.2710   35.3370   46.7510 C   0  0  0  0  0  0  0  0  0  0  0  0
   59.7150   34.7020   45.4200 C   0  0  0  0  0  0  0  0  0  0  0  0
   58.8060   33.5450   44.9670 C   0  0  0  0  0  0  0  0  0  0  0  0
   57.4750   33.5390   45.7150 C   0  0  0  0  0  0  0  0  0  0  0  0
   57.7110   33.4520   47.2330 C   0  0  0  0  0  0  0  0  0  0  0  0
   58.4410   32.4240   50.3850 C   0  0  0  0  0  0  0  0  0  0  0  0
   57.9260   31.3940   51.1770 C   0  0  0  0  0  0  0  0  0  0  0  0
   58.4170   30.0910   51.0480 C   0  0  0  0  0  0  0  0  0  0  0  0
   57.8410   29.0720   51.7990 O   0  0  0  0  0  0  0  0  0  0  0  0
   59.2840   29.1230   46.7210 C   0  0  0  0  0  0  0  0  0  0  0  0
   60.2500   29.9280   46.8280 O   0  0  0  0  0  0  0  0  0  0  0  0
   58.3360   29.3080   45.7000 C   0  0  0  0  0  0  0  0  0  0  0  0
   58.4250   30.3770   44.7900 C   0  0  0  0  0  0  0  0  0  0  0  0
   57.4600   30.5340   43.7970 C   0  0  0  0  0  0  0  0  0  0  0  0
   56.4070   29.6220   43.7150 C   0  0  0  0  0  0  0  0  0  0  0  0
   55.5280   29.7490   42.8240 O   0  0  0  0  0  0  0  0  0  0  0  0
   56.3320   28.5910   44.5970 N   0  0  0  0  0  0  0  0  0  0  0  0
   57.2570   28.4020   45.5820 C   0  0  0  0  0  0  0  0  0  0  0  0
  1  2  1  0
  2  3  1  0
  3  4  1  0
  4  5  2  0
  5  6  1  0
  6  7  2  0
  6  8  1  0
  8  9  1  0
  9 10  2  0
 10 11  1  0
 11 12  1  0
 12 13  2  0
 12 14  2  0
 12 15  1  0
 15 16  1  0
 16 17  1  0
 17 18  1  0
 18 19  1  0
 19 20  1  0
 11 21  2  0
 21 22  1  0
 22 23  2  0
 23 24  1  0
  5 25  1  0
 25 26  2  0
 25 27  1  0
 27 28  1  0
 28 29  2  0
 29 30  1  0
 30 31  2  0
 30 32  1  0
 32 33  1  0
 33  3  1  0
 23  9  1  0
 33 27  2  0
 20 15  1  0
M  CHG  3   8  -1  24  -1  32  -1
M  END
>  <UniqueID>  (1795) 
47

>  <SMILES>  (1795) 
CCn1cc(C(=O)[N-]c2cc(S(=O)(=O)N3CCCCC3)ccc2[O-])c(=O)c2ccc(=O)[n-]c21

>  <Energy>  (1795) 
77.38200270811423

>  <Genealogy>  (1795) 
CCn1cc(C(=O)[N-]c2cc(S(=O)(=O)N3CCCCC3)ccc2[O-])c(=O)c2ccc(=O)[n-]c21 (protonated)
CCn1cc(C(=O)[N-]c2cc(S(=O)(=O)N3CCCCC3)ccc2[O-])c(=O)c2ccc(=O)[n-]c21 (3D coordinates assigned)
CCn1cc(C(=O)[N-]c2cc(S(=O)(=O)N3CCCCC3)ccc2[O-])c(=O)c2ccc(=O)[n-]c21 (nonaromatic ring conformer: 77.38200270811423 kcal/mol)

>  <smiles>  (1795) 
CCn1cc(C(=O)Nc2cc(S(=O)(=O)N3CCCCC3)ccc2O)c(=O)c2ccc(=O)[nH]c21

>  <score_type>  (1795) 
oracle

>  <origin>  (1795) 
adg

>  <m_score__min__energy>  (1795) 
-14.640000000000001

>  <m_primary>  (1795) 
energy

$$$$
56:0
     RDKit          3D

 34 37  0  0  0  0  0  0  0  0999 V2000
   57.8610   26.5900   47.4420 C   0  0  0  0  0  0  0  0  0  0  0  0
   58.0380   27.1460   46.2320 C   0  0  0  0  0  0  0  0  0  0  0  0
   57.6500   26.6110   44.9930 C   0  0  0  0  0  0  0  0  0  0  0  0
   57.2440   25.3720   44.6520 C   0  0  0  0  0  0  0  0  0  0  0  0
   55.9950   24.7300   45.0930 C   0  0  0  0  0  0  0  0  0  0  0  0
   55.6630   23.4480   44.8470 N   0  0  0  0  0  0  0  0  0  0  0  0
   54.3980   23.3590   45.3150 C   0  0  0  0  0  0  0  0  0  0  0  0
   53.7370   22.2900   45.2790 O   0  0  0  0  0  0  0  0  0  0  0  0
   53.8960   24.5090   45.8150 N   0  0  0  0  0  0  0  0  0  0  0  0
   54.9160   25.3680   45.6530 C   0  0  0  0  0  0  0  0  0  0  0  0
   54.8580   26.7100   46.0050 O   0  0  0  0  0  0  0  0  0  0  0  0
   57.7760   27.6380   44.0710 C   0  0  0  0  0  0  0  0  0  0  0  0
   58.3050   28.7190   44.7470 C   0  0  0  0  0  0  0  0  0  0  0  0
   58.6350   30.0370   44.1160 C   0  0  0  0  0  0  0  0  0  0  0  0
   58.4650   28.4230   46.0570 N   0  0  0  0  0  0  0  0  0  0  0  0
   58.9720   29.3150   47.0660 C   0  0  0  0  0  0  0  0  0  0  0  0
   58.5110   30.6370   47.1400 C   0  0  0  0  0  0  0  0  0  0  0  0
   59.0150   31.5050   48.1120 C   0  0  0  0  0  0  0  0  0  0  0  0
   59.9950   31.0680   49.0180 C   0  0  0  0  0  0  0  0  0  0  0  0
   60.5230   31.9910   50.0480 C   0  0  0  0  0  0  0  0  0  0  0  0
   59.7640   32.3550   50.9870 O   0  0  0  0  0  0  0  0  0  0  0  0
   61.8740   32.4920   49.9970 N   0  0  0  0  0  0  0  0  0  0  0  0
   62.9550   31.7000   49.3880 C   0  0  0  0  0  0  0  0  0  0  0  0
   64.2660   31.7880   50.2010 C   0  0  0  0  0  0  0  0  0  0  0  0
   64.3400   32.9780   51.0780 N   0  0  0  0  0  0  0  0  0  0  0  0
   66.0020   33.3760   51.4400 S   0  0  0  0  0  0  0  0  0  0  0  0
   67.1080   32.8440   50.1450 C   0  0  0  0  0  0  0  0  0  0  0  0
   66.1260   34.8650   51.6000 O   0  0  0  0  0  0  0  0  0  0  0  0
   66.4080   32.7170   52.7290 O   0  0  0  0  0  0  0  0  0  0  0  0
   63.6480   34.1360   50.4990 C   0  0  0  0  0  0  0  0  0  0  0  0
   62.1490   33.8470   50.4950 C   0  0  0  0  0  0  0  0  0  0  0  0
   60.4420   29.7350   48.9540 C   0  0  0  0  0  0  0  0  0  0  0  0
   61.3890   29.2790   49.8130 F   0  0  0  0  0  0  0  0  0  0  0  0
   59.9370   28.8700   47.9790 C   0  0  0  0  0  0  0  0  0  0  0  0
  1  2  2  0
  2  3  1  0
  3  4  2  3
  4  5  1  0
  5  6  1  0
  6  7  1  0
  7  8  2  0
  7  9  1  0
  9 10  1  0
 10 11  1  0
  3 12  1  0
 12 13  2  0
 13 14  1  0
 13 15  1  0
 15 16  1  0
 16 17  2  0
 17 18  1  0
 18 19  2  0
 19 20  1  0
 20 21  2  0
 20 22  1  0
 22 23  1  0
 23 24  1  0
 24 25  1  0
 25 26  1  0
 26 27  1  0
 26 28  2  0
 26 29  2  0
 25 30  1  0
 30 31  1  0
 19 32  1  0
 32 33  1  0
 32 34  2  0
 15  2  1  0
 34 16  1  0
 10  5  2  0
 31 22  1  0
M  CHG  3   6  -1   9  -1  11  -1
M  END
>  <UniqueID>  (1796) 
53

>  <SMILES>  (1796) 
C=c1c(=Cc2[n-]c(=O)[n-]c2[O-])cc(C)n1-c1ccc(C(=O)N2CCN(S(C)(=O)=O)CC2)c(F)c1

>  <Energy>  (1796) 
137.62781061052084

>  <Genealogy>  (1796) 
C=c1c(=Cc2[n-]c(=O)[n-]c2[O-])cc(C)n1-c1ccc(C(=O)N2CCN(S(C)(=O)=O)CC2)c(F)c1 (protonated)
C=c1c(=Cc2[n-]c(=O)[n-]c2[O-])cc(C)n1-c1ccc(C(=O)N2CCN(S(C)(=O)=O)CC2)c(F)c1 (3D coordinates assigned)
C=c1c(=Cc2[n-]c(=O)[n-]c2[O-])cc(C)n1-c1ccc(C(=O)N2CCN(S(C)(=O)=O)CC2)c(F)c1 (nonaromatic ring conformer: 137.62781061052084 kcal/mol)

>  <smiles>  (1796) 
C=c1c(=Cc2[nH]c(=O)[nH]c2O)cc(C)n1-c1ccc(C(=O)N2CCN(S(C)(=O)=O)CC2)c(F)c1

>  <score_type>  (1796) 
oracle

>  <origin>  (1796) 
adg

>  <m_score__min__energy>  (1796) 
-15.69

>  <m_primary>  (1796) 
energy

$$$$
66:0
     RDKit          3D

 27 29  0  0  0  0  0  0  0  0999 V2000
   55.4000   26.7530   45.9520 O   0  0  0  0  0  0  0  0  0  0  0  0
   55.2750   25.4110   45.6060 C   0  0  0  0  0  0  0  0  0  0  0  0
   54.2550   24.6740   46.1220 N   0  0  0  0  0  0  0  0  0  0  0  0
   54.1020   23.3640   45.7990 C   0  0  0  0  0  0  0  0  0  0  0  0
   53.1540   22.7010   46.2920 O   0  0  0  0  0  0  0  0  0  0  0  0
   54.9680   22.7700   44.9370 N   0  0  0  0  0  0  0  0  0  0  0  0
   56.0020   23.4620   44.3930 C   0  0  0  0  0  0  0  0  0  0  0  0
   56.7720   22.8850   43.5800 O   0  0  0  0  0  0  0  0  0  0  0  0
   56.1980   24.8130   44.7360 C   0  0  0  0  0  0  0  0  0  0  0  0
   57.2810   25.6160   44.1360 C   0  0  0  0  0  0  0  0  0  0  0  0
   58.1910   26.3420   44.8150 C   0  0  0  0  0  0  0  0  0  0  0  0
   58.9600   27.3220   44.2130 C   0  0  0  0  0  0  0  0  0  0  0  0
   59.8110   27.8150   45.1790 C   0  0  0  0  0  0  0  0  0  0  0  0
   60.8350   28.8850   44.9420 C   0  0  0  0  0  0  0  0  0  0  0  0
   59.6020   27.1870   46.3590 N   0  0  0  0  0  0  0  0  0  0  0  0
   60.2860   27.5050   47.6210 C   0  0  0  0  0  0  0  0  0  0  0  0
   59.5190   28.5930   48.3830 C   0  0  0  0  0  0  0  0  0  0  0  0
   59.1230   29.7640   47.4740 C   0  0  0  0  0  0  0  0  0  0  0  0
   57.7670   29.5990   46.9470 N   0  0  0  0  0  0  0  0  0  0  0  0
   57.3950   29.8920   45.7350 C   0  0  0  0  0  0  0  0  0  0  0  0
   56.2670   29.3440   45.1950 N   0  0  0  0  0  0  0  0  0  0  0  0
   55.8650   29.6320   43.9290 C   0  0  0  0  0  0  0  0  0  0  0  0
   56.6110   30.5110   43.1410 C   0  0  0  0  0  0  0  0  0  0  0  0
   57.7650   31.0880   43.6710 C   0  0  0  0  0  0  0  0  0  0  0  0
   58.1630   30.7800   44.9740 C   0  0  0  0  0  0  0  0  0  0  0  0
   58.5820   26.3080   46.1650 C   0  0  0  0  0  0  0  0  0  0  0  0
   57.9990   25.6190   47.1600 C   0  0  0  0  0  0  0  0  0  0  0  0
  1  2  1  0
  2  3  1  0
  3  4  1  0
  4  5  2  0
  4  6  1  0
  6  7  1  0
  7  8  2  0
  7  9  1  0
  9 10  1  0
 10 11  2  3
 11 12  1  0
 12 13  2  0
 13 14  1  0
 13 15  1  0
 15 16  1  0
 16 17  1  0
 17 18  1  0
 18 19  1  0
 19 20  2  0
 20 21  1  0
 21 22  1  0
 22 23  2  0
 23 24  1  0
 24 25  2  0
 15 26  1  0
 26 27  2  0
  9  2  2  0
 26 11  1  0
 25 20  1  0
M  CHG  3   3  -1   6  -1  21  -1
M  END
>  <UniqueID>  (1797) 
63

>  <SMILES>  (1797) 
C=c1c(=Cc2c(O)[n-]c(=O)[n-]c2=O)cc(C)n1CCC/N=c1/cccc[n-]1

>  <Energy>  (1797) 
85.10242149030046

>  <Genealogy>  (1797) 
C=c1c(=Cc2c(O)[n-]c(=O)[n-]c2=O)cc(C)n1CCCN=c1cccc[n-]1 (protonated)
C=c1c(=Cc2c(O)[n-]c(=O)[n-]c2=O)cc(C)n1CCC/N=c1/cccc[n-]1 (cis-trans isomerization)
C=c1c(=Cc2c(O)[n-]c(=O)[n-]c2=O)cc(C)n1CCC/N=c1/cccc[n-]1 (3D coordinates assigned)
C=c1c(=Cc2c(O)[n-]c(=O)[n-]c2=O)cc(C)n1CCC/N=c1/cccc[n-]1 (optimized conformer: 85.10242149030046 kcal/mol)

>  <smiles>  (1797) 
C=c1c(=Cc2c(O)[nH]c(=O)[nH]c2=O)cc(C)n1CCCN=c1cccc[nH]1

>  <score_type>  (1797) 
oracle

>  <origin>  (1797) 
adg

>  <m_score__min__energy>  (1797) 
-14.1

>  <m_primary>  (1797) 
energy

$$$$
73:0
     RDKit          3D

 34 37  0  0  0  0  0  0  0  0999 V2000
   57.0860   28.2660   44.9380 C   0  0  0  0  0  0  0  0  0  0  0  0
   57.8730   27.4060   45.6040 C   0  0  0  0  0  0  0  0  0  0  0  0
   57.7800   26.0040   45.6060 C   0  0  0  0  0  0  0  0  0  0  0  0
   57.1030   25.1610   44.8030 C   0  0  0  0  0  0  0  0  0  0  0  0
   55.7310   24.6750   45.0270 C   0  0  0  0  0  0  0  0  0  0  0  0
   55.3290   23.4000   44.8540 N   0  0  0  0  0  0  0  0  0  0  0  0
   54.0580   23.4090   45.3080 C   0  0  0  0  0  0  0  0  0  0  0  0
   53.3250   22.3870   45.2910 O   0  0  0  0  0  0  0  0  0  0  0  0
   53.6370   24.5960   45.7930 N   0  0  0  0  0  0  0  0  0  0  0  0
   54.7140   25.3800   45.6190 C   0  0  0  0  0  0  0  0  0  0  0  0
   54.7700   26.7130   46.0080 O   0  0  0  0  0  0  0  0  0  0  0  0
   58.5920   25.5650   46.6390 C   0  0  0  0  0  0  0  0  0  0  0  0
   59.2070   26.6800   47.1660 C   0  0  0  0  0  0  0  0  0  0  0  0
   60.1960   26.6530   48.2950 C   0  0  0  0  0  0  0  0  0  0  0  0
   58.7760   27.7970   46.5390 N   0  0  0  0  0  0  0  0  0  0  0  0
   59.2120   29.1400   46.8160 C   0  0  0  0  0  0  0  0  0  0  0  0
   58.5460   29.9250   47.7680 C   0  0  0  0  0  0  0  0  0  0  0  0
   58.9840   31.2250   48.0420 C   0  0  0  0  0  0  0  0  0  0  0  0
   60.0990   31.7580   47.3690 C   0  0  0  0  0  0  0  0  0  0  0  0
   60.5630   33.1360   47.6540 C   0  0  0  0  0  0  0  0  0  0  0  0
   60.1220   34.1060   46.9770 O   0  0  0  0  0  0  0  0  0  0  0  0
   61.5230   33.3870   48.6870 N   0  0  0  0  0  0  0  0  0  0  0  0
   61.1120   33.3350   50.0910 C   0  0  0  0  0  0  0  0  0  0  0  0
   62.1980   32.6530   50.9300 C   0  0  0  0  0  0  0  0  0  0  0  0
   63.5480   33.1360   50.5940 N   0  0  0  0  0  0  0  0  0  0  0  0
   64.6610   32.6320   51.3710 C   0  0  0  0  0  0  0  0  0  0  0  0
   64.5140   31.5650   52.0270 O   0  0  0  0  0  0  0  0  0  0  0  0
   66.0120   33.3190   51.3990 C   0  0  0  0  0  0  0  0  0  0  0  0
   66.7680   33.0010   52.6970 C   0  0  0  0  0  0  0  0  0  0  0  0
   66.8420   32.8990   50.1810 C   0  0  0  0  0  0  0  0  0  0  0  0
   63.7180   34.1620   49.5490 C   0  0  0  0  0  0  0  0  0  0  0  0
   62.8700   33.8260   48.3150 C   0  0  0  0  0  0  0  0  0  0  0  0
   60.7560   30.9690   46.4090 C   0  0  0  0  0  0  0  0  0  0  0  0
   60.3180   29.6710   46.1380 C   0  0  0  0  0  0  0  0  0  0  0  0
  1  2  2  0
  2  3  1  0
  3  4  2  3
  4  5  1  0
  5  6  1  0
  6  7  1  0
  7  8  2  0
  7  9  1  0
  9 10  1  0
 10 11  1  0
  3 12  1  0
 12 13  2  0
 13 14  1  0
 13 15  1  0
 15 16  1  0
 16 17  2  0
 17 18  1  0
 18 19  2  0
 19 20  1  0
 20 21  2  0
 20 22  1  0
 22 23  1  0
 23 24  1  0
 24 25  1  0
 25 26  1  0
 26 27  2  0
 26 28  1  0
 28 29  1  0
 28 30  1  0
 25 31  1  0
 31 32  1  0
 19 33  1  0
 33 34  2  0
 15  2  1  0
 34 16  1  0
 10  5  2  0
 32 22  1  0
M  CHG  3   6  -1   9  -1  11  -1
M  END
>  <UniqueID>  (1798) 
69

>  <SMILES>  (1798) 
C=c1c(=Cc2[n-]c(=O)[n-]c2[O-])cc(C)n1-c1ccc(C(=O)N2CCN(C(=O)C(C)C)CC2)cc1

>  <Energy>  (1798) 
140.35227099074666

>  <Genealogy>  (1798) 
C=c1c(=Cc2[n-]c(=O)[n-]c2[O-])cc(C)n1-c1ccc(C(=O)N2CCN(C(=O)C(C)C)CC2)cc1 (protonated)
C=c1c(=Cc2[n-]c(=O)[n-]c2[O-])cc(C)n1-c1ccc(C(=O)N2CCN(C(=O)C(C)C)CC2)cc1 (3D coordinates assigned)
C=c1c(=Cc2[n-]c(=O)[n-]c2[O-])cc(C)n1-c1ccc(C(=O)N2CCN(C(=O)C(C)C)CC2)cc1 (nonaromatic ring conformer: 140.35227099074666 kcal/mol)

>  <smiles>  (1798) 
C=c1c(=Cc2[nH]c(=O)[nH]c2O)cc(C)n1-c1ccc(C(=O)N2CCN(C(=O)C(C)C)CC2)cc1

>  <score_type>  (1798) 
oracle

>  <origin>  (1798) 
adg

>  <m_score__min__energy>  (1798) 
-16.199999999999999

>  <m_primary>  (1798) 
energy

$$$$
76:0
     RDKit          3D

 33 36  0  0  0  0  0  0  0  0999 V2000
   55.1380   26.3910   45.9680 N   0  0  0  0  0  0  0  0  0  0  0  0
   56.8390   26.6530   45.8270 S   0  0  0  0  0  0  0  0  0  0  0  0
   57.5200   26.2510   47.1060 O   0  0  0  0  0  0  0  0  0  0  0  0
   57.3810   25.8120   44.7060 O   0  0  0  0  0  0  0  0  0  0  0  0
   57.1430   28.3570   45.5040 C   0  0  0  0  0  0  0  0  0  0  0  0
   57.9440   29.1040   46.3760 C   0  0  0  0  0  0  0  0  0  0  0  0
   58.1770   30.4600   46.1300 C   0  0  0  0  0  0  0  0  0  0  0  0
   57.6130   31.0840   45.0030 C   0  0  0  0  0  0  0  0  0  0  0  0
   57.8360   32.5550   44.7590 C   0  0  0  0  0  0  0  0  0  0  0  0
   57.8210   33.3000   46.0130 N   0  0  0  0  0  0  0  0  0  0  0  0
   58.9970   33.8190   46.6490 C   0  0  0  0  0  0  0  0  0  0  0  0
   59.8070   34.5230   45.9860 O   0  0  0  0  0  0  0  0  0  0  0  0
   59.2600   33.5240   48.0760 C   0  0  0  0  0  0  0  0  0  0  0  0
   60.3420   34.1290   48.7390 C   0  0  0  0  0  0  0  0  0  0  0  0
   60.5940   33.8480   50.0830 C   0  0  0  0  0  0  0  0  0  0  0  0
   59.7690   32.9670   50.7840 C   0  0  0  0  0  0  0  0  0  0  0  0
   58.6770   32.3530   50.1480 C   0  0  0  0  0  0  0  0  0  0  0  0
   57.7970   31.4350   50.9140 C   0  0  0  0  0  0  0  0  0  0  0  0
   56.6750   31.7730   51.6520 C   0  0  0  0  0  0  0  0  0  0  0  0
   56.2430   30.5730   52.1750 C   0  0  0  0  0  0  0  0  0  0  0  0
   55.0650   30.3640   53.0340 C   0  0  0  0  0  0  0  0  0  0  0  0
   55.1890   30.4850   54.2820 O   0  0  0  0  0  0  0  0  0  0  0  0
   53.7870   30.0110   52.4750 N   0  0  0  0  0  0  0  0  0  0  0  0
   53.1940   30.8280   51.4100 C   0  0  0  0  0  0  0  0  0  0  0  0
   52.0560   31.6750   51.9910 C   0  0  0  0  0  0  0  0  0  0  0  0
   51.0470   30.7950   52.7430 C   0  0  0  0  0  0  0  0  0  0  0  0
   51.7410   29.9470   53.8200 C   0  0  0  0  0  0  0  0  0  0  0  0
   52.8810   29.1240   53.2100 C   0  0  0  0  0  0  0  0  0  0  0  0
   57.0530   29.5790   51.7620 N   0  0  0  0  0  0  0  0  0  0  0  0
   57.9990   30.1040   50.9980 N   0  0  0  0  0  0  0  0  0  0  0  0
   58.4340   32.6350   48.7890 C   0  0  0  0  0  0  0  0  0  0  0  0
   56.8020   30.3340   44.1370 C   0  0  0  0  0  0  0  0  0  0  0  0
   56.5680   28.9790   44.3860 C   0  0  0  0  0  0  0  0  0  0  0  0
  1  2  1  0
  2  3  2  0
  2  4  2  0
  2  5  1  0
  5  6  2  0
  6  7  1  0
  7  8  2  0
  8  9  1  0
  9 10  1  0
 10 11  1  0
 11 12  2  0
 11 13  1  0
 13 14  2  0
 14 15  1  0
 15 16  2  0
 16 17  1  0
 17 18  1  0
 18 19  2  0
 19 20  1  0
 20 21  1  0
 21 22  2  0
 21 23  1  0
 23 24  1  0
 24 25  1  0
 25 26  1  0
 26 27  1  0
 27 28  1  0
 20 29  2  0
 29 30  1  0
 17 31  2  0
  8 32  1  0
 32 33  2  0
 33  5  1  0
 31 13  1  0
 30 18  1  0
 28 23  1  0
M  CHG  3   1  -1  10  -1  30  -1
M  END
>  <UniqueID>  (1799) 
71

>  <SMILES>  (1799) 
[NH-]S(=O)(=O)c1ccc(C[N-]C(=O)c2cccc(-c3cc(C(=O)N4CCCCC4)n[n-]3)c2)cc1

>  <Energy>  (1799) 
86.30966649492662

>  <Genealogy>  (1799) 
[NH-]S(=O)(=O)c1ccc(C[N-]C(=O)c2cccc(-c3cc(C(=O)N4CCCCC4)n[n-]3)c2)cc1 (protonated)
[NH-]S(=O)(=O)c1ccc(C[N-]C(=O)c2cccc(-c3cc(C(=O)N4CCCCC4)n[n-]3)c2)cc1 (3D coordinates assigned)
[NH-]S(=O)(=O)c1ccc(C[N-]C(=O)c2cccc(-c3cc(C(=O)N4CCCCC4)n[n-]3)c2)cc1 (nonaromatic ring conformer: 86.30966649492662 kcal/mol)

>  <smiles>  (1799) 
NS(=O)(=O)c1ccc(CNC(=O)c2cccc(-c3cc(C(=O)N4CCCCC4)n[nH]3)c2)cc1

>  <score_type>  (1799) 
oracle

>  <origin>  (1799) 
adg

>  <m_score__min__energy>  (1799) 
-14.68

>  <m_primary>  (1799) 
energy

$$$$
80:0
     RDKit          3D

 29 32  0  0  0  0  0  0  0  0999 V2000
   54.3850   28.2440   53.2550 C   0  0  0  0  0  0  0  0  0  0  0  0
   54.6860   29.4450   52.7350 C   0  0  0  0  0  0  0  0  0  0  0  0
   53.7870   30.4550   52.3620 C   0  0  0  0  0  0  0  0  0  0  0  0
   52.4480   30.4330   52.2020 C   0  0  0  0  0  0  0  0  0  0  0  0
   51.7290   30.7980   50.9710 C   0  0  0  0  0  0  0  0  0  0  0  0
   51.6980   30.0520   49.8500 N   0  0  0  0  0  0  0  0  0  0  0  0
   51.0510   30.8450   48.9670 C   0  0  0  0  0  0  0  0  0  0  0  0
   50.8080   30.4850   47.7860 O   0  0  0  0  0  0  0  0  0  0  0  0
   50.6940   32.0550   49.4470 N   0  0  0  0  0  0  0  0  0  0  0  0
   51.1440   32.0130   50.7120 C   0  0  0  0  0  0  0  0  0  0  0  0
   51.0280   33.0670   51.6100 O   0  0  0  0  0  0  0  0  0  0  0  0
   54.5490   31.5920   52.1430 C   0  0  0  0  0  0  0  0  0  0  0  0
   55.8690   31.2250   52.3060 C   0  0  0  0  0  0  0  0  0  0  0  0
   57.0360   32.1520   52.1470 C   0  0  0  0  0  0  0  0  0  0  0  0
   55.9550   29.9240   52.6620 N   0  0  0  0  0  0  0  0  0  0  0  0
   57.1720   29.2140   52.9600 C   0  0  0  0  0  0  0  0  0  0  0  0
   57.3220   28.5670   54.1880 C   0  0  0  0  0  0  0  0  0  0  0  0
   58.4650   27.8920   54.4800 N   0  0  0  0  0  0  0  0  0  0  0  0
   59.5120   27.8070   53.5960 C   0  0  0  0  0  0  0  0  0  0  0  0
   60.7240   27.0670   53.9420 N   0  0  0  0  0  0  0  0  0  0  0  0
   61.9440   27.8170   54.3080 C   0  0  0  0  0  0  0  0  0  0  0  0
   63.1140   26.9200   54.7200 C   0  0  0  0  0  0  0  0  0  0  0  0
   63.1660   25.7630   53.9230 O   0  0  0  0  0  0  0  0  0  0  0  0
   62.0620   24.9530   54.2450 C   0  0  0  0  0  0  0  0  0  0  0  0
   60.7530   25.5970   53.7800 C   0  0  0  0  0  0  0  0  0  0  0  0
   59.3870   28.4620   52.3500 C   0  0  0  0  0  0  0  0  0  0  0  0
   58.2150   29.1680   52.0300 C   0  0  0  0  0  0  0  0  0  0  0  0
   58.0540   29.8410   50.8070 O   0  0  0  0  0  0  0  0  0  0  0  0
   59.1080   30.1210   49.8920 C   0  0  0  0  0  0  0  0  0  0  0  0
  1  2  2  0
  2  3  1  0
  3  4  2  3
  4  5  1  0
  5  6  1  0
  6  7  1  0
  7  8  2  0
  7  9  1  0
  9 10  1  0
 10 11  1  0
  3 12  1  0
 12 13  2  0
 13 14  1  0
 13 15  1  0
 15 16  1  0
 16 17  2  0
 17 18  1  0
 18 19  2  0
 19 20  1  0
 20 21  1  0
 21 22  1  0
 22 23  1  0
 23 24  1  0
 24 25  1  0
 19 26  1  0
 26 27  2  0
 27 28  1  0
 28 29  1  0
 15  2  1  0
 27 16  1  0
 10  5  2  0
 25 20  1  0
M  CHG  4   6  -1   9  -1  11  -1  18   1
M  END
>  <UniqueID>  (1800) 
74

>  <SMILES>  (1800) 
C=c1c(=Cc2[n-]c(=O)[n-]c2[O-])cc(C)n1-c1c[nH+]c(N2CCOCC2)cc1OC

>  <Energy>  (1800) 
134.54633267067086

>  <Genealogy>  (1800) 
C=c1c(=Cc2[n-]c(=O)[n-]c2[O-])cc(C)n1-c1c[nH+]c(N2CCOCC2)cc1OC (protonated)
C=c1c(=Cc2[n-]c(=O)[n-]c2[O-])cc(C)n1-c1c[nH+]c(N2CCOCC2)cc1OC (3D coordinates assigned)
C=c1c(=Cc2[n-]c(=O)[n-]c2[O-])cc(C)n1-c1c[nH+]c(N2CCOCC2)cc1OC (nonaromatic ring conformer: 134.54633267067086 kcal/mol)

>  <smiles>  (1800) 
C=c1c(=Cc2[nH]c(=O)[nH]c2O)cc(C)n1-c1cnc(N2CCOCC2)cc1OC

>  <score_type>  (1800) 
oracle

>  <origin>  (1800) 
adg

>  <m_score__min__energy>  (1800) 
-14.4

>  <m_primary>  (1800) 
energy

$$$$
89:0
     RDKit          3D

 25 27  0  0  0  0  0  0  0  0999 V2000
   57.9030   27.2600   43.7710 C   0  0  0  0  0  0  0  0  0  0  0  0
   58.2190   27.4470   45.0630 C   0  0  0  0  0  0  0  0  0  0  0  0
   58.0540   26.5270   46.1120 C   0  0  0  0  0  0  0  0  0  0  0  0
   57.7490   25.2140   46.0990 C   0  0  0  0  0  0  0  0  0  0  0  0
   56.3990   24.6470   45.9570 C   0  0  0  0  0  0  0  0  0  0  0  0
   56.1620   23.3480   45.7070 N   0  0  0  0  0  0  0  0  0  0  0  0
   54.8230   23.3030   45.5310 C   0  0  0  0  0  0  0  0  0  0  0  0
   54.2080   22.2320   45.2890 O   0  0  0  0  0  0  0  0  0  0  0  0
   54.1990   24.4960   45.6240 N   0  0  0  0  0  0  0  0  0  0  0  0
   55.2120   25.3390   45.8790 C   0  0  0  0  0  0  0  0  0  0  0  0
   55.0580   26.7140   46.0080 O   0  0  0  0  0  0  0  0  0  0  0  0
   58.2770   27.2300   47.2830 C   0  0  0  0  0  0  0  0  0  0  0  0
   58.6240   28.5130   46.9200 C   0  0  0  0  0  0  0  0  0  0  0  0
   58.9610   29.6090   47.8860 C   0  0  0  0  0  0  0  0  0  0  0  0
   58.6140   28.6450   45.5730 N   0  0  0  0  0  0  0  0  0  0  0  0
   58.8800   29.8940   44.8410 C   0  0  0  0  0  0  0  0  0  0  0  0
   57.6170   30.6950   44.6600 C   0  0  0  0  0  0  0  0  0  0  0  0
   56.5020   30.1480   44.8690 O   0  0  0  0  0  0  0  0  0  0  0  0
   57.6360   32.0440   44.1750 N   0  0  0  0  0  0  0  0  0  0  0  0
   57.1480   33.2120   44.9000 C   0  0  0  0  0  0  0  0  0  0  0  0
   58.1270   33.6170   45.9590 C   0  0  0  0  0  0  0  0  0  0  0  0
   59.3510   34.7550   45.7680 S   0  0  0  0  0  0  0  0  0  0  0  0
   59.9800   34.6060   47.3210 C   0  0  0  0  0  0  0  0  0  0  0  0
   59.2390   33.6490   48.0030 C   0  0  0  0  0  0  0  0  0  0  0  0
   58.2050   33.0900   47.2410 C   0  0  0  0  0  0  0  0  0  0  0  0
  1  2  2  0
  2  3  1  0
  3  4  2  0
  4  5  1  0
  5  6  1  0
  6  7  1  0
  7  8  2  0
  7  9  1  0
  9 10  1  0
 10 11  1  0
  3 12  1  0
 12 13  2  0
 13 14  1  0
 13 15  1  0
 15 16  1  0
 16 17  1  0
 17 18  2  0
 17 19  1  0
 19 20  1  0
 20 21  1  0
 21 22  1  0
 22 23  1  0
 23 24  2  0
 24 25  1  0
 15  2  1  0
 25 21  2  0
 10  5  2  0
M  CHG  4   6  -1   9  -1  11  -1  19  -1
M  END
>  <UniqueID>  (1801) 
83

>  <SMILES>  (1801) 
C=c1/c(=C\c2[n-]c(=O)[n-]c2[O-])cc(C)n1CC(=O)[N-]Cc1cccs1

>  <Energy>  (1801) 
131.90329336716766

>  <Genealogy>  (1801) 
C=c1c(=Cc2[n-]c(=O)[n-]c2[O-])cc(C)n1CC(=O)[N-]Cc1cccs1 (protonated)
C=c1/c(=C\c2[n-]c(=O)[n-]c2[O-])cc(C)n1CC(=O)[N-]Cc1cccs1 (cis-trans isomerization)
C=c1/c(=C\c2[n-]c(=O)[n-]c2[O-])cc(C)n1CC(=O)[N-]Cc1cccs1 (3D coordinates assigned)
C=c1/c(=C\c2[n-]c(=O)[n-]c2[O-])cc(C)n1CC(=O)[N-]Cc1cccs1 (optimized conformer: 131.90329336716766 kcal/mol)

>  <smiles>  (1801) 
C=c1c(=Cc2[nH]c(=O)[nH]c2O)cc(C)n1CC(=O)NCc1cccs1

>  <score_type>  (1801) 
oracle

>  <origin>  (1801) 
adg

>  <m_score__min__energy>  (1801) 
-16.510000000000002

>  <m_primary>  (1801) 
energy

$$$$
1:0
     RDKit          3D

 26 28  0  0  0  0  0  0  0  0999 V2000
   60.4600   30.1190   46.0240 C   0  0  0  0  0  0  0  0  0  0  0  0
   59.2620   29.6570   45.6070 C   0  0  0  0  0  0  0  0  0  0  0  0
   59.0990   28.2750   45.3470 C   0  0  0  0  0  0  0  0  0  0  0  0
   60.0640   27.4730   45.5010 O   0  0  0  0  0  0  0  0  0  0  0  0
   57.8450   27.8020   44.9180 C   0  0  0  0  0  0  0  0  0  0  0  0
   57.6410   26.4980   44.6400 C   0  0  0  0  0  0  0  0  0  0  0  0
   57.2120   25.5030   45.6520 C   0  0  0  0  0  0  0  0  0  0  0  0
   55.9640   25.6390   46.2800 C   0  0  0  0  0  0  0  0  0  0  0  0
   55.1350   26.7160   45.9860 O   0  0  0  0  0  0  0  0  0  0  0  0
   55.5590   24.7200   47.1930 N   0  0  0  0  0  0  0  0  0  0  0  0
   56.3370   23.6530   47.5070 C   0  0  0  0  0  0  0  0  0  0  0  0
   55.8240   22.5660   48.6110 S   0  0  0  0  0  0  0  0  0  0  0  0
   57.5350   23.4820   46.8930 N   0  0  0  0  0  0  0  0  0  0  0  0
   57.9860   24.3710   45.9710 C   0  0  0  0  0  0  0  0  0  0  0  0
   59.0850   24.1560   45.3960 O   0  0  0  0  0  0  0  0  0  0  0  0
   56.8320   28.6910   44.7570 N   0  0  0  0  0  0  0  0  0  0  0  0
   56.9830   30.0140   45.0040 C   0  0  0  0  0  0  0  0  0  0  0  0
   55.9950   30.7800   44.8360 O   0  0  0  0  0  0  0  0  0  0  0  0
   58.1880   30.5080   45.4260 N   0  0  0  0  0  0  0  0  0  0  0  0
   58.2940   31.9250   45.6740 C   0  0  0  0  0  0  0  0  0  0  0  0
   58.4190   32.3920   46.9920 C   0  0  0  0  0  0  0  0  0  0  0  0
   58.5220   33.7620   47.2470 C   0  0  0  0  0  0  0  0  0  0  0  0
   58.5010   34.6740   46.1880 C   0  0  0  0  0  0  0  0  0  0  0  0
   58.3750   34.2170   44.8720 C   0  0  0  0  0  0  0  0  0  0  0  0
   58.2710   32.8470   44.6100 C   0  0  0  0  0  0  0  0  0  0  0  0
   58.1010   32.2560   42.7960 Br  0  0  0  0  0  0  0  0  0  0  0  0
  1  2  2  0
  2  3  1  0
  3  4  2  0
  3  5  1  0
  5  6  2  3
  6  7  1  0
  7  8  2  0
  8  9  1  0
  8 10  1  0
 10 11  1  0
 11 12  2  0
 11 13  1  0
 13 14  1  0
 14 15  2  0
  5 16  1  0
 16 17  1  0
 17 18  2  0
 17 19  1  0
 19 20  1  0
 20 21  2  0
 21 22  1  0
 22 23  2  0
 23 24  1  0
 24 25  2  0
 25 26  1  0
 19  2  1  0
 25 20  1  0
 14  7  1  0
M  CHG  4   9  -1  10  -1  13  -1  16  -1
M  END
>  <UniqueID>  (1802) 
2

>  <SMILES>  (1802) 
C=c1c(=O)c(=Cc2c([O-])[n-]c(=S)[n-]c2=O)[n-]c(=O)n1-c1ccccc1Br

>  <Energy>  (1802) 
63.1293252849561

>  <Genealogy>  (1802) 
C=c1c(=O)c(=Cc2c([O-])[n-]c(=S)[n-]c2=O)[n-]c(=O)n1-c1ccccc1Br (protonated)
C=c1c(=O)c(=Cc2c([O-])[n-]c(=S)[n-]c2=O)[n-]c(=O)n1-c1ccccc1Br (3D coordinates assigned)
C=c1c(=O)c(=Cc2c([O-])[n-]c(=S)[n-]c2=O)[n-]c(=O)n1-c1ccccc1Br (optimized conformer: 63.1293252849561 kcal/mol)

>  <smiles>  (1802) 
C=c1c(=O)c(=Cc2c(O)[nH]c(=S)[nH]c2=O)[nH]c(=O)n1-c1ccccc1Br

>  <score_type>  (1802) 
oracle

>  <origin>  (1802) 
adg

>  <m_score__min__energy>  (1802) 
-17.629999999999999

>  <m_primary>  (1802) 
energy

$$$$
5:0
     RDKit          3D

 33 36  0  0  0  0  0  0  0  0999 V2000
   59.3780   27.8960   48.2920 C   0  0  0  0  0  0  0  0  0  0  0  0
   59.2230   28.8550   47.3650 C   0  0  0  0  0  0  0  0  0  0  0  0
   58.7570   28.6590   46.0590 C   0  0  0  0  0  0  0  0  0  0  0  0
   58.4400   27.4920   45.4680 C   0  0  0  0  0  0  0  0  0  0  0  0
   57.1850   26.7610   45.7170 C   0  0  0  0  0  0  0  0  0  0  0  0
   57.1430   25.5050   46.1970 N   0  0  0  0  0  0  0  0  0  0  0  0
   55.8200   25.2720   46.3440 C   0  0  0  0  0  0  0  0  0  0  0  0
   55.3710   24.1750   46.7700 O   0  0  0  0  0  0  0  0  0  0  0  0
   55.0210   26.3080   46.0130 N   0  0  0  0  0  0  0  0  0  0  0  0
   55.9000   27.2460   45.6280 C   0  0  0  0  0  0  0  0  0  0  0  0
   55.5320   28.5320   45.2450 O   0  0  0  0  0  0  0  0  0  0  0  0
   58.7540   29.9070   45.4550 C   0  0  0  0  0  0  0  0  0  0  0  0
   59.1990   30.8070   46.4000 C   0  0  0  0  0  0  0  0  0  0  0  0
   59.4290   32.2610   46.1230 C   0  0  0  0  0  0  0  0  0  0  0  0
   59.4870   30.1750   47.5650 N   0  0  0  0  0  0  0  0  0  0  0  0
   60.0510   30.8170   48.7650 C   0  0  0  0  0  0  0  0  0  0  0  0
   59.0400   30.8450   49.8820 C   0  0  0  0  0  0  0  0  0  0  0  0
   58.9680   29.7890   50.8040 C   0  0  0  0  0  0  0  0  0  0  0  0
   58.0230   29.8100   51.8330 C   0  0  0  0  0  0  0  0  0  0  0  0
   57.1320   30.8870   51.9560 C   0  0  0  0  0  0  0  0  0  0  0  0
   56.1490   30.9290   53.0610 C   0  0  0  0  0  0  0  0  0  0  0  0
   56.5430   31.2190   54.2220 O   0  0  0  0  0  0  0  0  0  0  0  0
   54.7530   30.6610   52.8320 N   0  0  0  0  0  0  0  0  0  0  0  0
   54.0790   31.2620   51.6700 C   0  0  0  0  0  0  0  0  0  0  0  0
   52.5510   31.1410   51.7680 C   0  0  0  0  0  0  0  0  0  0  0  0
   52.0900   31.4580   53.1300 N   0  0  0  0  0  0  0  0  0  0  0  0
   50.8670   32.2030   53.3260 C   0  0  0  0  0  0  0  0  0  0  0  0
   50.1320   32.4840   52.3390 O   0  0  0  0  0  0  0  0  0  0  0  0
   50.4320   32.6440   54.6910 C   0  0  0  0  0  0  0  0  0  0  0  0
   52.8000   30.8940   54.2910 C   0  0  0  0  0  0  0  0  0  0  0  0
   53.9550   29.9870   53.8610 C   0  0  0  0  0  0  0  0  0  0  0  0
   57.2160   31.9530   51.0460 C   0  0  0  0  0  0  0  0  0  0  0  0
   58.1570   31.9280   50.0120 C   0  0  0  0  0  0  0  0  0  0  0  0
  1  2  2  0
  2  3  1  0
  3  4  2  0
  4  5  1  0
  5  6  1  0
  6  7  1  0
  7  8  2  0
  7  9  1  0
  9 10  1  0
 10 11  1  0
  3 12  1  0
 12 13  2  0
 13 14  1  0
 13 15  1  0
 15 16  1  0
 16 17  1  0
 17 18  2  0
 18 19  1  0
 19 20  2  0
 20 21  1  0
 21 22  2  0
 21 23  1  0
 23 24  1  0
 24 25  1  0
 25 26  1  0
 26 27  1  0
 27 28  2  0
 27 29  1  0
 26 30  1  0
 30 31  1  0
 20 32  1  0
 32 33  2  0
 15  2  1  0
 33 17  1  0
 10  5  2  0
 31 23  1  0
M  CHG  3   6  -1   9  -1  11  -1
M  END
>  <UniqueID>  (1803) 
6

>  <SMILES>  (1803) 
C=c1/c(=C/c2[n-]c(=O)[n-]c2[O-])cc(C)n1Cc1ccc(C(=O)N2CCN(C(C)=O)CC2)cc1

>  <Energy>  (1803) 
129.2742199083263

>  <Genealogy>  (1803) 
C=c1c(=Cc2[n-]c(=O)[n-]c2[O-])cc(C)n1Cc1ccc(C(=O)N2CCN(C(C)=O)CC2)cc1 (protonated)
C=c1/c(=C/c2[n-]c(=O)[n-]c2[O-])cc(C)n1Cc1ccc(C(=O)N2CCN(C(C)=O)CC2)cc1 (cis-trans isomerization)
C=c1/c(=C/c2[n-]c(=O)[n-]c2[O-])cc(C)n1Cc1ccc(C(=O)N2CCN(C(C)=O)CC2)cc1 (3D coordinates assigned)
C=c1/c(=C/c2[n-]c(=O)[n-]c2[O-])cc(C)n1Cc1ccc(C(=O)N2CCN(C(C)=O)CC2)cc1 (nonaromatic ring conformer: 129.2742199083263 kcal/mol)

>  <smiles>  (1803) 
C=c1c(=Cc2[nH]c(=O)[nH]c2O)cc(C)n1Cc1ccc(C(=O)N2CCN(C(C)=O)CC2)cc1

>  <score_type>  (1803) 
oracle

>  <origin>  (1803) 
adg

>  <m_score__min__energy>  (1803) 
-16.100000000000001

>  <m_primary>  (1803) 
energy

$$$$
20:0
     RDKit          3D

 35 38  0  0  0  0  0  0  0  0999 V2000
   60.1380   29.5790   46.3280 C   0  0  0  0  0  0  0  0  0  0  0  0
   59.3320   30.5450   45.8570 C   0  0  0  0  0  0  0  0  0  0  0  0
   58.3340   30.3920   44.8900 C   0  0  0  0  0  0  0  0  0  0  0  0
   57.9820   29.2620   44.2480 C   0  0  0  0  0  0  0  0  0  0  0  0
   57.3850   28.0850   44.9220 C   0  0  0  0  0  0  0  0  0  0  0  0
   56.0210   28.0410   45.2620 C   0  0  0  0  0  0  0  0  0  0  0  0
   55.1770   29.1060   44.9660 O   0  0  0  0  0  0  0  0  0  0  0  0
   55.5200   26.9580   45.9080 N   0  0  0  0  0  0  0  0  0  0  0  0
   56.3170   25.9140   46.2530 C   0  0  0  0  0  0  0  0  0  0  0  0
   55.8290   24.9200   46.8480 O   0  0  0  0  0  0  0  0  0  0  0  0
   57.6420   25.9480   45.9630 N   0  0  0  0  0  0  0  0  0  0  0  0
   58.1930   27.0070   45.3150 C   0  0  0  0  0  0  0  0  0  0  0  0
   59.4290   27.0040   45.0690 O   0  0  0  0  0  0  0  0  0  0  0  0
   57.7950   31.6550   44.6820 C   0  0  0  0  0  0  0  0  0  0  0  0
   58.4600   32.5150   45.5340 C   0  0  0  0  0  0  0  0  0  0  0  0
   58.1950   33.9870   45.6290 C   0  0  0  0  0  0  0  0  0  0  0  0
   59.3950   31.8460   46.2450 N   0  0  0  0  0  0  0  0  0  0  0  0
   60.2550   32.4120   47.2530 C   0  0  0  0  0  0  0  0  0  0  0  0
   59.7080   33.0330   48.3900 C   0  0  0  0  0  0  0  0  0  0  0  0
   60.5470   33.5910   49.3600 C   0  0  0  0  0  0  0  0  0  0  0  0
   61.9400   33.5480   49.1960 C   0  0  0  0  0  0  0  0  0  0  0  0
   62.8310   34.1620   50.1930 C   0  0  0  0  0  0  0  0  0  0  0  0
   63.0200   35.4080   50.1340 O   0  0  0  0  0  0  0  0  0  0  0  0
   63.5310   33.3690   51.1830 N   0  0  0  0  0  0  0  0  0  0  0  0
   63.3900   31.8980   51.1570 C   0  0  0  0  0  0  0  0  0  0  0  0
   64.4640   31.1190   51.9520 C   0  0  0  0  0  0  0  0  0  0  0  0
   65.6430   31.9280   52.3180 N   0  0  0  0  0  0  0  0  0  0  0  0
   66.7850   31.9820   51.3400 C   0  0  0  0  0  0  0  0  0  0  0  0
   68.0710   32.5620   51.9840 C   0  0  0  0  0  0  0  0  0  0  0  0
   67.1240   30.5370   50.9070 C   0  0  0  0  0  0  0  0  0  0  0  0
   66.4660   32.8100   50.0720 C   0  0  0  0  0  0  0  0  0  0  0  0
   65.2150   33.1510   53.0210 C   0  0  0  0  0  0  0  0  0  0  0  0
   64.4220   34.0830   52.1120 C   0  0  0  0  0  0  0  0  0  0  0  0
   62.4860   32.9300   48.0630 C   0  0  0  0  0  0  0  0  0  0  0  0
   61.6490   32.3550   47.1050 C   0  0  0  0  0  0  0  0  0  0  0  0
  1  2  2  0
  2  3  1  0
  3  4  2  3
  4  5  1  0
  5  6  2  0
  6  7  1  0
  6  8  1  0
  8  9  1  0
  9 10  2  0
  9 11  1  0
 11 12  1  0
 12 13  2  0
  3 14  1  0
 14 15  2  0
 15 16  1  0
 15 17  1  0
 17 18  1  0
 18 19  2  0
 19 20  1  0
 20 21  2  0
 21 22  1  0
 22 23  2  0
 22 24  1  0
 24 25  1  0
 25 26  1  0
 26 27  1  0
 27 28  1  0
 28 29  1  0
 28 30  1  0
 28 31  1  0
 27 32  1  0
 32 33  1  0
 21 34  1  0
 34 35  2  0
 17  2  1  0
 35 18  1  0
 12  5  1  0
 33 24  1  0
M  CHG  3   7  -1   8  -1  11  -1
M  END
>  <UniqueID>  (1804) 
21

>  <SMILES>  (1804) 
C=c1c(=Cc2c([O-])[n-]c(=O)[n-]c2=O)cc(C)n1-c1ccc(C(=O)N2CCN(C(C)(C)C)CC2)cc1

>  <Energy>  (1804) 
134.09981705962875

>  <Genealogy>  (1804) 
C=c1c(=Cc2c([O-])[n-]c(=O)[n-]c2=O)cc(C)n1-c1ccc(C(=O)N2CCN(C(C)(C)C)CC2)cc1 (protonated)
C=c1c(=Cc2c([O-])[n-]c(=O)[n-]c2=O)cc(C)n1-c1ccc(C(=O)N2CCN(C(C)(C)C)CC2)cc1 (3D coordinates assigned)
C=c1c(=Cc2c([O-])[n-]c(=O)[n-]c2=O)cc(C)n1-c1ccc(C(=O)N2CCN(C(C)(C)C)CC2)cc1 (nonaromatic ring conformer: 134.09981705962875 kcal/mol)

>  <smiles>  (1804) 
C=c1c(=Cc2c(O)[nH]c(=O)[nH]c2=O)cc(C)n1-c1ccc(C(=O)N2CCN(C(C)(C)C)CC2)cc1

>  <score_type>  (1804) 
oracle

>  <origin>  (1804) 
adg

>  <m_score__min__energy>  (1804) 
-16.530000000000001

>  <m_primary>  (1804) 
energy

$$$$
37:0
     RDKit          3D

 30 33  0  0  0  0  0  0  0  0999 V2000
   54.0330   28.2060   53.5630 C   0  0  0  0  0  0  0  0  0  0  0  0
   54.6230   29.2190   52.9020 C   0  0  0  0  0  0  0  0  0  0  0  0
   56.0320   29.2270   52.8600 C   0  0  0  0  0  0  0  0  0  0  0  0
   56.7410   30.3530   52.4220 C   0  0  0  0  0  0  0  0  0  0  0  0
   58.1820   30.3530   52.4160 N   0  0  0  0  0  0  0  0  0  0  0  0
   58.8960   30.3880   51.1340 C   0  0  0  0  0  0  0  0  0  0  0  0
   60.4150   30.3950   51.3500 C   0  0  0  0  0  0  0  0  0  0  0  0
   60.8060   31.2780   52.4640 N   0  0  0  0  0  0  0  0  0  0  0  0
   60.5250   32.9700   52.1060 S   0  0  0  0  0  0  0  0  0  0  0  0
   61.5080   33.8060   52.8770 O   0  0  0  0  0  0  0  0  0  0  0  0
   59.1360   33.3660   52.5280 O   0  0  0  0  0  0  0  0  0  0  0  0
   60.7480   33.3000   50.3890 C   0  0  0  0  0  0  0  0  0  0  0  0
   59.6440   33.5170   49.5510 C   0  0  0  0  0  0  0  0  0  0  0  0
   59.8340   33.7580   48.1870 C   0  0  0  0  0  0  0  0  0  0  0  0
   61.1280   33.7840   47.6550 C   0  0  0  0  0  0  0  0  0  0  0  0
   62.2300   33.5650   48.4850 C   0  0  0  0  0  0  0  0  0  0  0  0
   62.0410   33.3220   49.8490 C   0  0  0  0  0  0  0  0  0  0  0  0
   60.2010   30.8920   53.7620 C   0  0  0  0  0  0  0  0  0  0  0  0
   58.9230   30.0360   53.6420 C   0  0  0  0  0  0  0  0  0  0  0  0
   56.0330   31.4900   52.0260 C   0  0  0  0  0  0  0  0  0  0  0  0
   54.6400   31.4870   52.0050 C   0  0  0  0  0  0  0  0  0  0  0  0
   53.9050   30.3360   52.3580 C   0  0  0  0  0  0  0  0  0  0  0  0
   52.5660   30.3740   52.1330 C   0  0  0  0  0  0  0  0  0  0  0  0
   51.9000   30.8320   50.9000 C   0  0  0  0  0  0  0  0  0  0  0  0
   51.7690   30.0660   49.8030 N   0  0  0  0  0  0  0  0  0  0  0  0
   51.0180   30.8280   48.9770 C   0  0  0  0  0  0  0  0  0  0  0  0
   50.6880   30.4520   47.8230 O   0  0  0  0  0  0  0  0  0  0  0  0
   50.6410   32.0180   49.4900 N   0  0  0  0  0  0  0  0  0  0  0  0
   51.1950   32.0010   50.7120 C   0  0  0  0  0  0  0  0  0  0  0  0
   51.0310   33.0160   51.6470 O   0  0  0  0  0  0  0  0  0  0  0  0
  1  2  2  0
  2  3  1  0
  3  4  2  0
  4  5  1  0
  5  6  1  0
  6  7  1  0
  7  8  1  0
  8  9  1  0
  9 10  2  0
  9 11  2  0
  9 12  1  0
 12 13  2  0
 13 14  1  0
 14 15  2  0
 15 16  1  0
 16 17  2  0
  8 18  1  0
 18 19  1  0
  4 20  1  0
 20 21  2  0
 21 22  1  0
 22 23  2  0
 23 24  1  0
 24 25  1  0
 25 26  1  0
 26 27  2  0
 26 28  1  0
 28 29  1  0
 29 30  1  0
 22  2  1  0
 29 24  2  0
 19  5  1  0
 17 12  1  0
M  CHG  3  25  -1  28  -1  30  -1
M  END
>  <UniqueID>  (1805) 
38

>  <SMILES>  (1805) 
C=c1cc(N2CCN(S(=O)(=O)c3ccccc3)CC2)cc/c1=C/c1[n-]c(=O)[n-]c1[O-]

>  <Energy>  (1805) 
113.70529436864229

>  <Genealogy>  (1805) 
C=c1cc(N2CCN(S(=O)(=O)c3ccccc3)CC2)ccc1=Cc1[n-]c(=O)[n-]c1[O-] (protonated)
C=c1cc(N2CCN(S(=O)(=O)c3ccccc3)CC2)cc/c1=C/c1[n-]c(=O)[n-]c1[O-] (cis-trans isomerization)
C=c1cc(N2CCN(S(=O)(=O)c3ccccc3)CC2)cc/c1=C/c1[n-]c(=O)[n-]c1[O-] (3D coordinates assigned)
C=c1cc(N2CCN(S(=O)(=O)c3ccccc3)CC2)cc/c1=C/c1[n-]c(=O)[n-]c1[O-] (nonaromatic ring conformer: 113.70529436864229 kcal/mol)

>  <smiles>  (1805) 
C=c1cc(N2CCN(S(=O)(=O)c3ccccc3)CC2)ccc1=Cc1[nH]c(=O)[nH]c1O

>  <score_type>  (1805) 
oracle

>  <origin>  (1805) 
adg

>  <m_score__min__energy>  (1805) 
-17.379999999999999

>  <m_primary>  (1805) 
energy

$$$$
50:0
     RDKit          3D

 33 36  0  0  0  0  0  0  0  0999 V2000
   56.3600   28.4130   45.6040 O   0  0  0  0  0  0  0  0  0  0  0  0
   56.2690   27.0780   45.9930 C   0  0  0  0  0  0  0  0  0  0  0  0
   55.1670   26.3340   45.8050 N   0  0  0  0  0  0  0  0  0  0  0  0
   55.5210   25.1400   46.3220 C   0  0  0  0  0  0  0  0  0  0  0  0
   54.7430   24.1490   46.3390 O   0  0  0  0  0  0  0  0  0  0  0  0
   56.7730   25.0890   46.8240 N   0  0  0  0  0  0  0  0  0  0  0  0
   57.2540   26.3260   46.6020 C   0  0  0  0  0  0  0  0  0  0  0  0
   58.5820   26.8130   47.0380 C   0  0  0  0  0  0  0  0  0  0  0  0
   58.8960   28.1070   47.2610 C   0  0  0  0  0  0  0  0  0  0  0  0
   58.5370   28.8700   48.3650 C   0  0  0  0  0  0  0  0  0  0  0  0
   59.1050   30.1120   48.1870 C   0  0  0  0  0  0  0  0  0  0  0  0
   58.9920   31.2070   49.1630 C   0  0  0  0  0  0  0  0  0  0  0  0
   58.3570   32.2470   48.8490 O   0  0  0  0  0  0  0  0  0  0  0  0
   59.5600   31.1000   50.4720 N   0  0  0  0  0  0  0  0  0  0  0  0
   60.8600   31.6520   50.8350 C   0  0  0  0  0  0  0  0  0  0  0  0
   61.0450   33.0110   50.1660 C   0  0  0  0  0  0  0  0  0  0  0  0
   61.9940   32.9030   49.0030 C   0  0  0  0  0  0  0  0  0  0  0  0
   62.7050   31.7160   48.7740 C   0  0  0  0  0  0  0  0  0  0  0  0
   63.5530   31.6240   47.6680 C   0  0  0  0  0  0  0  0  0  0  0  0
   63.6800   32.6760   46.8170 N   0  0  0  0  0  0  0  0  0  0  0  0
   62.9940   33.8340   47.0060 C   0  0  0  0  0  0  0  0  0  0  0  0
   62.1350   33.9680   48.1000 C   0  0  0  0  0  0  0  0  0  0  0  0
   59.7950   30.1700   47.0240 N   0  0  0  0  0  0  0  0  0  0  0  0
   60.3900   31.3880   46.4470 C   0  0  0  0  0  0  0  0  0  0  0  0
   59.3100   32.3380   45.9960 C   0  0  0  0  0  0  0  0  0  0  0  0
   58.0550   31.8530   45.5930 C   0  0  0  0  0  0  0  0  0  0  0  0
   57.0440   32.7420   45.2090 C   0  0  0  0  0  0  0  0  0  0  0  0
   57.2800   34.1200   45.2270 C   0  0  0  0  0  0  0  0  0  0  0  0
   56.3000   34.9800   44.8560 F   0  0  0  0  0  0  0  0  0  0  0  0
   58.5260   34.6110   45.6270 C   0  0  0  0  0  0  0  0  0  0  0  0
   59.5370   33.7250   46.0110 C   0  0  0  0  0  0  0  0  0  0  0  0
   59.6780   28.9410   46.4490 C   0  0  0  0  0  0  0  0  0  0  0  0
   60.2410   28.5970   45.2790 C   0  0  0  0  0  0  0  0  0  0  0  0
  1  2  1  0
  2  3  1  0
  3  4  1  0
  4  5  2  0
  4  6  1  0
  6  7  1  0
  7  8  1  0
  8  9  2  0
  9 10  1  0
 10 11  2  0
 11 12  1  0
 12 13  2  0
 12 14  1  0
 14 15  1  0
 15 16  1  0
 16 17  1  0
 17 18  2  0
 18 19  1  0
 19 20  2  0
 20 21  1  0
 21 22  2  0
 11 23  1  0
 23 24  1  0
 24 25  1  0
 25 26  2  0
 26 27  1  0
 27 28  2  0
 28 29  1  0
 28 30  1  0
 30 31  2  0
 23 32  1  0
 32 33  2  0
  7  2  2  0
 32  9  1  0
 22 17  1  0
 31 25  1  0
M  CHG  3   3  -1   6  -1  14  -1
M  END
>  <UniqueID>  (1806) 
51

>  <SMILES>  (1806) 
C=c1/c(=C/c2[n-]c(=O)[n-]c2O)cc(C(=O)[N-]CCc2ccncc2)n1Cc1ccc(F)cc1

>  <Energy>  (1806) 
121.02614181762428

>  <Genealogy>  (1806) 
C=c1c(=Cc2[n-]c(=O)[n-]c2O)cc(C(=O)[N-]CCc2ccncc2)n1Cc1ccc(F)cc1 (protonated)
C=c1/c(=C/c2[n-]c(=O)[n-]c2O)cc(C(=O)[N-]CCc2ccncc2)n1Cc1ccc(F)cc1 (cis-trans isomerization)
C=c1/c(=C/c2[n-]c(=O)[n-]c2O)cc(C(=O)[N-]CCc2ccncc2)n1Cc1ccc(F)cc1 (3D coordinates assigned)
C=c1/c(=C/c2[n-]c(=O)[n-]c2O)cc(C(=O)[N-]CCc2ccncc2)n1Cc1ccc(F)cc1 (optimized conformer: 121.02614181762428 kcal/mol)

>  <smiles>  (1806) 
C=c1c(=Cc2[nH]c(=O)[nH]c2O)cc(C(=O)NCCc2ccncc2)n1Cc1ccc(F)cc1

>  <score_type>  (1806) 
oracle

>  <origin>  (1806) 
adg

>  <m_score__min__energy>  (1806) 
-14.26

>  <m_primary>  (1806) 
energy

$$$$
53:0
     RDKit          3D

 26 28  0  0  0  0  0  0  0  0999 V2000
   58.5680   31.0190   48.6890 O   0  0  0  0  0  0  0  0  0  0  0  0
   59.0130   32.1410   48.3240 C   0  0  0  0  0  0  0  0  0  0  0  0
   59.8430   32.9080   49.2070 N   0  0  0  0  0  0  0  0  0  0  0  0
   61.2770   32.9700   49.1950 C   0  0  0  0  0  0  0  0  0  0  0  0
   61.9990   33.7600   50.1090 C   0  0  0  0  0  0  0  0  0  0  0  0
   63.3960   33.8100   50.0450 C   0  0  0  0  0  0  0  0  0  0  0  0
   64.0800   33.0860   49.0640 C   0  0  0  0  0  0  0  0  0  0  0  0
   65.4330   33.1380   49.0020 F   0  0  0  0  0  0  0  0  0  0  0  0
   63.3670   32.3200   48.1380 C   0  0  0  0  0  0  0  0  0  0  0  0
   61.9700   32.2690   48.1990 C   0  0  0  0  0  0  0  0  0  0  0  0
   58.6900   32.6710   46.9770 C   0  0  0  0  0  0  0  0  0  0  0  0
   58.9650   34.0240   46.7050 C   0  0  0  0  0  0  0  0  0  0  0  0
   58.6060   34.5930   45.4810 C   0  0  0  0  0  0  0  0  0  0  0  0
   57.9700   33.8200   44.5120 C   0  0  0  0  0  0  0  0  0  0  0  0
   57.7030   32.4740   44.7560 C   0  0  0  0  0  0  0  0  0  0  0  0
   58.0640   31.8790   45.9790 C   0  0  0  0  0  0  0  0  0  0  0  0
   57.8520   30.4680   46.1780 N   0  0  0  0  0  0  0  0  0  0  0  0
   57.4170   29.5650   45.1130 C   0  0  0  0  0  0  0  0  0  0  0  0
   57.1340   28.2020   45.6700 C   0  0  0  0  0  0  0  0  0  0  0  0
   58.1240   27.4960   46.3630 C   0  0  0  0  0  0  0  0  0  0  0  0
   57.8010   26.2500   46.9020 C   0  0  0  0  0  0  0  0  0  0  0  0
   58.6660   25.5870   47.5290 O   0  0  0  0  0  0  0  0  0  0  0  0
   56.5460   25.7520   46.7500 N   0  0  0  0  0  0  0  0  0  0  0  0
   55.5930   26.4530   46.0810 C   0  0  0  0  0  0  0  0  0  0  0  0
   54.4350   25.9770   45.9540 O   0  0  0  0  0  0  0  0  0  0  0  0
   55.8890   27.6680   45.5500 N   0  0  0  0  0  0  0  0  0  0  0  0
  1  2  2  0
  2  3  1  0
  3  4  1  0
  4  5  2  0
  5  6  1  0
  6  7  2  0
  7  8  1  0
  7  9  1  0
  9 10  2  0
  2 11  1  0
 11 12  2  0
 12 13  1  0
 13 14  2  0
 14 15  1  0
 15 16  2  0
 16 17  1  0
 17 18  1  0
 18 19  1  0
 19 20  2  0
 20 21  1  0
 21 22  2  0
 21 23  1  0
 23 24  1  0
 24 25  2  0
 24 26  1  0
 10  4  1  0
 16 11  1  0
 26 19  1  0
M  CHG  3   3  -1  23  -1  26  -1
M  END
>  <UniqueID>  (1807) 
54

>  <SMILES>  (1807) 
O=C([N-]c1ccc(F)cc1)c1ccccc1NCc1cc(=O)[n-]c(=O)[n-]1

>  <Energy>  (1807) 
50.16101495162629

>  <Genealogy>  (1807) 
O=C([N-]c1ccc(F)cc1)c1ccccc1NCc1cc(=O)[n-]c(=O)[n-]1 (protonated)
O=C([N-]c1ccc(F)cc1)c1ccccc1NCc1cc(=O)[n-]c(=O)[n-]1 (3D coordinates assigned)
O=C([N-]c1ccc(F)cc1)c1ccccc1NCc1cc(=O)[n-]c(=O)[n-]1 (optimized conformer: 50.16101495162629 kcal/mol)

>  <smiles>  (1807) 
O=C(Nc1ccc(F)cc1)c1ccccc1NCc1cc(=O)[nH]c(=O)[nH]1

>  <score_type>  (1807) 
oracle

>  <origin>  (1807) 
adg

>  <m_score__min__energy>  (1807) 
-14.029999999999999

>  <m_primary>  (1807) 
energy

$$$$
58:0
     RDKit          3D

 26 29  0  0  0  0  0  0  0  0999 V2000
   54.9700   26.7120   46.0030 O   0  0  0  0  0  0  0  0  0  0  0  0
   55.9950   25.8360   46.3450 C   0  0  0  0  0  0  0  0  0  0  0  0
   55.8610   24.8260   47.2200 N   0  0  0  0  0  0  0  0  0  0  0  0
   57.0830   24.2530   47.2000 C   0  0  0  0  0  0  0  0  0  0  0  0
   57.3720   23.2460   47.8970 O   0  0  0  0  0  0  0  0  0  0  0  0
   57.9690   24.8380   46.3660 N   0  0  0  0  0  0  0  0  0  0  0  0
   57.2740   25.8660   45.8440 C   0  0  0  0  0  0  0  0  0  0  0  0
   57.7580   26.7460   44.7680 C   0  0  0  0  0  0  0  0  0  0  0  0
   57.8200   28.0900   44.8240 C   0  0  0  0  0  0  0  0  0  0  0  0
   57.3400   28.9050   43.8120 C   0  0  0  0  0  0  0  0  0  0  0  0
   57.6520   30.2030   44.1610 C   0  0  0  0  0  0  0  0  0  0  0  0
   57.3300   31.4070   43.3280 C   0  0  0  0  0  0  0  0  0  0  0  0
   58.2610   30.2330   45.3670 N   0  0  0  0  0  0  0  0  0  0  0  0
   58.6940   31.4160   46.0620 C   0  0  0  0  0  0  0  0  0  0  0  0
   57.7660   32.4100   46.4010 C   0  0  0  0  0  0  0  0  0  0  0  0
   58.1830   33.5560   47.0810 C   0  0  0  0  0  0  0  0  0  0  0  0
   59.5270   33.7190   47.4280 C   0  0  0  0  0  0  0  0  0  0  0  0
   60.4730   32.7310   47.0950 C   0  0  0  0  0  0  0  0  0  0  0  0
   61.9020   32.8870   47.4550 C   0  0  0  0  0  0  0  0  0  0  0  0
   62.7150   33.8350   46.9520 N   0  0  0  0  0  0  0  0  0  0  0  0
   63.9050   33.6540   47.5060 N   0  0  0  0  0  0  0  0  0  0  0  0
   63.8930   32.6290   48.3450 N   0  0  0  0  0  0  0  0  0  0  0  0
   62.6460   32.1260   48.3340 C   0  0  0  0  0  0  0  0  0  0  0  0
   60.0440   31.5810   46.4090 C   0  0  0  0  0  0  0  0  0  0  0  0
   58.3440   28.9480   45.8040 C   0  0  0  0  0  0  0  0  0  0  0  0
   58.7090   28.6200   47.0530 C   0  0  0  0  0  0  0  0  0  0  0  0
  1  2  1  0
  2  3  1  0
  3  4  1  0
  4  5  2  0
  4  6  1  0
  6  7  1  0
  7  8  1  0
  8  9  2  0
  9 10  1  0
 10 11  2  0
 11 12  1  0
 11 13  1  0
 13 14  1  0
 14 15  2  0
 15 16  1  0
 16 17  2  0
 17 18  1  0
 18 19  1  0
 19 20  1  0
 20 21  2  0
 21 22  1  0
 22 23  1  0
 18 24  2  0
 13 25  1  0
 25 26  2  0
  7  2  2  0
 25  9  1  0
 24 14  1  0
 23 19  2  0
M  CHG  3   3  -1   6  -1  22  -1
M  END
>  <UniqueID>  (1808) 
58

>  <SMILES>  (1808) 
C=c1/c(=C\c2[n-]c(=O)[n-]c2O)cc(C)n1-c1cccc(-c2c[n-]nn2)c1

>  <Energy>  (1808) 
152.1665610790829

>  <Genealogy>  (1808) 
C=c1c(=Cc2[n-]c(=O)[n-]c2O)cc(C)n1-c1cccc(-c2c[n-]nn2)c1 (protonated)
C=c1/c(=C\c2[n-]c(=O)[n-]c2O)cc(C)n1-c1cccc(-c2c[n-]nn2)c1 (cis-trans isomerization)
C=c1/c(=C\c2[n-]c(=O)[n-]c2O)cc(C)n1-c1cccc(-c2c[n-]nn2)c1 (3D coordinates assigned)
C=c1/c(=C\c2[n-]c(=O)[n-]c2O)cc(C)n1-c1cccc(-c2c[n-]nn2)c1 (optimized conformer: 152.1665610790829 kcal/mol)

>  <smiles>  (1808) 
C=c1c(=Cc2[nH]c(=O)[nH]c2O)cc(C)n1-c1cccc(-c2c[nH]nn2)c1

>  <score_type>  (1808) 
oracle

>  <origin>  (1808) 
adg

>  <m_score__min__energy>  (1808) 
-14.06

>  <m_primary>  (1808) 
energy

$$$$
77:0
     RDKit          3D

 36 40  0  0  0  0  0  0  0  0999 V2000
   58.5220   30.3860   47.1410 C   0  0  0  0  0  0  0  0  0  0  0  0
   58.1220   31.2250   46.1690 C   0  0  0  0  0  0  0  0  0  0  0  0
   58.0260   30.9120   44.8060 C   0  0  0  0  0  0  0  0  0  0  0  0
   58.2860   29.7200   44.2220 C   0  0  0  0  0  0  0  0  0  0  0  0
   58.0280   28.3990   44.8320 C   0  0  0  0  0  0  0  0  0  0  0  0
   58.9670   27.4850   45.1590 N   0  0  0  0  0  0  0  0  0  0  0  0
   58.2610   26.4880   45.7370 C   0  0  0  0  0  0  0  0  0  0  0  0
   58.7960   25.4320   46.1670 O   0  0  0  0  0  0  0  0  0  0  0  0
   56.9350   26.7330   45.8090 N   0  0  0  0  0  0  0  0  0  0  0  0
   55.8870   25.8660   46.3470 C   0  0  0  0  0  0  0  0  0  0  0  0
   55.8350   24.5740   45.5760 C   0  0  0  0  0  0  0  0  0  0  0  0
   55.2620   23.4310   46.1530 C   0  0  0  0  0  0  0  0  0  0  0  0
   55.2220   22.2400   45.4250 C   0  0  0  0  0  0  0  0  0  0  0  0
   55.7240   22.1940   44.1630 N   0  0  0  0  0  0  0  0  0  0  0  0
   56.2720   23.2920   43.5750 C   0  0  0  0  0  0  0  0  0  0  0  0
   56.3330   24.5030   44.2680 C   0  0  0  0  0  0  0  0  0  0  0  0
   56.7910   27.9380   45.2350 C   0  0  0  0  0  0  0  0  0  0  0  0
   55.5780   28.6030   45.0880 O   0  0  0  0  0  0  0  0  0  0  0  0
   57.5850   32.0670   44.1750 C   0  0  0  0  0  0  0  0  0  0  0  0
   57.4270   33.0240   45.1570 C   0  0  0  0  0  0  0  0  0  0  0  0
   57.0170   34.4400   44.8870 C   0  0  0  0  0  0  0  0  0  0  0  0
   57.7540   32.5200   46.3720 N   0  0  0  0  0  0  0  0  0  0  0  0
   57.7820   33.2850   47.6310 C   0  0  0  0  0  0  0  0  0  0  0  0
   59.1870   33.3720   48.1690 C   0  0  0  0  0  0  0  0  0  0  0  0
   59.4770   32.9500   49.4760 C   0  0  0  0  0  0  0  0  0  0  0  0
   60.7860   33.0000   49.9620 C   0  0  0  0  0  0  0  0  0  0  0  0
   61.8300   33.4690   49.1470 C   0  0  0  0  0  0  0  0  0  0  0  0
   63.1870   33.4930   49.6300 N   0  0  0  0  0  0  0  0  0  0  0  0
   64.1750   32.6310   49.0270 C   0  0  0  0  0  0  0  0  0  0  0  0
   63.9890   32.1720   47.8670 O   0  0  0  0  0  0  0  0  0  0  0  0
   65.4420   32.2700   49.7470 C   0  0  0  0  0  0  0  0  0  0  0  0
   65.3950   32.7080   51.2090 C   0  0  0  0  0  0  0  0  0  0  0  0
   64.9470   34.1650   51.3000 C   0  0  0  0  0  0  0  0  0  0  0  0
   63.4990   34.3250   50.8100 C   0  0  0  0  0  0  0  0  0  0  0  0
   61.5360   33.8970   47.8420 C   0  0  0  0  0  0  0  0  0  0  0  0
   60.2270   33.8520   47.3590 C   0  0  0  0  0  0  0  0  0  0  0  0
  1  2  2  0
  2  3  1  0
  3  4  2  0
  4  5  1  0
  5  6  1  0
  6  7  1  0
  7  8  2  0
  7  9  1  0
  9 10  1  0
 10 11  1  0
 11 12  2  0
 12 13  1  0
 13 14  2  0
 14 15  1  0
 15 16  2  0
  9 17  1  0
 17 18  1  0
  3 19  1  0
 19 20  2  0
 20 21  1  0
 20 22  1  0
 22 23  1  0
 23 24  1  0
 24 25  2  0
 25 26  1  0
 26 27  2  0
 27 28  1  0
 28 29  1  0
 29 30  2  0
 29 31  1  0
 31 32  1  0
 32 33  1  0
 33 34  1  0
 27 35  1  0
 35 36  2  0
 22  2  1  0
 36 24  1  0
 17  5  2  0
 34 28  1  0
 16 11  1  0
M  CHG  2   6  -1  18  -1
M  END
>  <UniqueID>  (1809) 
75

>  <SMILES>  (1809) 
C=c1/c(=C/c2[n-]c(=O)n(Cc3ccncc3)c2[O-])cc(C)n1Cc1ccc(N2CCCCC2=O)cc1

>  <Energy>  (1809) 
137.45220572547134

>  <Genealogy>  (1809) 
C=c1c(=Cc2[n-]c(=O)n(Cc3ccncc3)c2[O-])cc(C)n1Cc1ccc(N2CCCCC2=O)cc1 (protonated)
C=c1/c(=C/c2[n-]c(=O)n(Cc3ccncc3)c2[O-])cc(C)n1Cc1ccc(N2CCCCC2=O)cc1 (cis-trans isomerization)
C=c1/c(=C/c2[n-]c(=O)n(Cc3ccncc3)c2[O-])cc(C)n1Cc1ccc(N2CCCCC2=O)cc1 (3D coordinates assigned)
C=c1/c(=C/c2[n-]c(=O)n(Cc3ccncc3)c2[O-])cc(C)n1Cc1ccc(N2CCCCC2=O)cc1 (nonaromatic ring conformer: 137.45220572547134 kcal/mol)

>  <smiles>  (1809) 
C=c1c(=Cc2[nH]c(=O)n(Cc3ccncc3)c2O)cc(C)n1Cc1ccc(N2CCCCC2=O)cc1

>  <score_type>  (1809) 
oracle

>  <origin>  (1809) 
adg

>  <m_score__min__energy>  (1809) 
-14.390000000000001

>  <m_primary>  (1809) 
energy

$$$$
87:0
     RDKit          3D

 26 28  0  0  0  0  0  0  0  0999 V2000
   61.8770   33.3150   46.7640 C   0  0  0  0  0  0  0  0  0  0  0  0
   60.6390   33.3420   46.2020 N   0  0  0  0  0  0  0  0  0  0  0  0
   59.5370   33.7280   46.8970 C   0  0  0  0  0  0  0  0  0  0  0  0
   58.2930   33.7180   46.2510 O   0  0  0  0  0  0  0  0  0  0  0  0
   57.9820   32.9820   45.0970 C   0  0  0  0  0  0  0  0  0  0  0  0
   58.4980   33.4090   43.8700 C   0  0  0  0  0  0  0  0  0  0  0  0
   58.1990   32.7150   42.6970 C   0  0  0  0  0  0  0  0  0  0  0  0
   57.3730   31.5890   42.7390 C   0  0  0  0  0  0  0  0  0  0  0  0
   56.8290   31.1490   43.9600 C   0  0  0  0  0  0  0  0  0  0  0  0
   55.9470   29.9580   44.0060 C   0  0  0  0  0  0  0  0  0  0  0  0
   55.2350   29.6680   43.0050 O   0  0  0  0  0  0  0  0  0  0  0  0
   55.9140   29.1410   45.1890 N   0  0  0  0  0  0  0  0  0  0  0  0
   56.7500   28.2000   45.5220 C   0  0  0  0  0  0  0  0  0  0  0  0
   58.0980   28.4030   45.4800 N   0  0  0  0  0  0  0  0  0  0  0  0
   58.9850   27.4310   45.8240 C   0  0  0  0  0  0  0  0  0  0  0  0
   58.5260   26.1800   46.2380 C   0  0  0  0  0  0  0  0  0  0  0  0
   57.1520   25.9420   46.2940 C   0  0  0  0  0  0  0  0  0  0  0  0
   56.2550   26.9520   45.9350 C   0  0  0  0  0  0  0  0  0  0  0  0
   54.8860   26.7150   45.9910 O   0  0  0  0  0  0  0  0  0  0  0  0
   57.1340   31.8600   45.1360 C   0  0  0  0  0  0  0  0  0  0  0  0
   59.6650   34.0790   48.2500 C   0  0  0  0  0  0  0  0  0  0  0  0
   60.9260   34.0630   48.8490 C   0  0  0  0  0  0  0  0  0  0  0  0
   62.0590   33.6920   48.1050 C   0  0  0  0  0  0  0  0  0  0  0  0
   63.4120   33.6630   48.7120 C   0  0  0  0  0  0  0  0  0  0  0  0
   63.5850   34.1320   49.8700 O   0  0  0  0  0  0  0  0  0  0  0  0
   64.5310   33.0980   48.0240 N   0  0  0  0  0  0  0  0  0  0  0  0
  1  2  2  0
  2  3  1  0
  3  4  1  0
  4  5  1  0
  5  6  2  0
  6  7  1  0
  7  8  2  0
  8  9  1  0
  9 10  1  0
 10 11  2  0
 10 12  1  0
 12 13  2  0
 13 14  1  0
 14 15  1  0
 15 16  2  0
 16 17  1  0
 17 18  2  0
 18 19  1  0
  9 20  2  0
  3 21  2  0
 21 22  1  0
 22 23  2  0
 23 24  1  0
 24 25  2  0
 24 26  1  0
 23  1  1  0
 20  5  1  0
 18 13  1  0
M  CHG  2  14  -1  19  -1
M  END
>  <UniqueID>  (1810) 
83

>  <SMILES>  (1810) 
NC(=O)c1ccc(Oc2cccc(C(=O)/N=c3\[n-]cccc3[O-])c2)nc1

>  <Energy>  (1810) 
53.9465351390885

>  <Genealogy>  (1810) 
NC(=O)c1ccc(Oc2cccc(C(=O)N=c3[n-]cccc3[O-])c2)nc1 (protonated)
NC(=O)c1ccc(Oc2cccc(C(=O)/N=c3\[n-]cccc3[O-])c2)nc1 (cis-trans isomerization)
NC(=O)c1ccc(Oc2cccc(C(=O)/N=c3\[n-]cccc3[O-])c2)nc1 (3D coordinates assigned)
NC(=O)c1ccc(Oc2cccc(C(=O)/N=c3\[n-]cccc3[O-])c2)nc1 (optimized conformer: 53.9465351390885 kcal/mol)

>  <smiles>  (1810) 
NC(=O)c1ccc(Oc2cccc(C(=O)N=c3[nH]cccc3O)c2)nc1

>  <score_type>  (1810) 
oracle

>  <origin>  (1810) 
adg

>  <m_score__min__energy>  (1810) 
-14.140000000000001

>  <m_primary>  (1810) 
energy

$$$$
1:0
     RDKit          3D

 31 34  0  0  0  0  0  0  0  0999 V2000
   54.2740   28.4160   53.7490 C   0  0  0  0  0  0  0  0  0  0  0  0
   54.6910   29.4740   53.0340 C   0  0  0  0  0  0  0  0  0  0  0  0
   53.8870   30.4410   52.4090 C   0  0  0  0  0  0  0  0  0  0  0  0
   52.5600   30.4760   52.1830 C   0  0  0  0  0  0  0  0  0  0  0  0
   51.9130   30.8940   50.9300 C   0  0  0  0  0  0  0  0  0  0  0  0
   51.7770   30.0920   49.8600 N   0  0  0  0  0  0  0  0  0  0  0  0
   51.0190   30.8250   49.0150 C   0  0  0  0  0  0  0  0  0  0  0  0
   50.6830   30.4120   47.8750 O   0  0  0  0  0  0  0  0  0  0  0  0
   50.6380   32.0290   49.4930 N   0  0  0  0  0  0  0  0  0  0  0  0
   51.1990   32.0520   50.7120 C   0  0  0  0  0  0  0  0  0  0  0  0
   51.0360   33.0940   51.6170 O   0  0  0  0  0  0  0  0  0  0  0  0
   54.7420   31.4530   52.0070 C   0  0  0  0  0  0  0  0  0  0  0  0
   56.0220   31.0480   52.3250 C   0  0  0  0  0  0  0  0  0  0  0  0
   57.2590   31.8340   52.0120 C   0  0  0  0  0  0  0  0  0  0  0  0
   55.9940   29.8500   52.9540 N   0  0  0  0  0  0  0  0  0  0  0  0
   57.1350   29.1220   53.4400 C   0  0  0  0  0  0  0  0  0  0  0  0
   58.0400   28.6170   52.5580 N   0  0  0  0  0  0  0  0  0  0  0  0
   59.1300   27.9150   52.9630 C   0  0  0  0  0  0  0  0  0  0  0  0
   59.3540   27.6810   54.3300 C   0  0  0  0  0  0  0  0  0  0  0  0
   60.5440   26.9280   54.7880 C   0  0  0  0  0  0  0  0  0  0  0  0
   60.4370   26.1190   55.7510 O   0  0  0  0  0  0  0  0  0  0  0  0
   61.8250   27.1160   54.1640 N   0  0  0  0  0  0  0  0  0  0  0  0
   62.4410   25.9950   53.4470 C   0  0  0  0  0  0  0  0  0  0  0  0
   63.5060   26.4650   52.4970 C   0  0  0  0  0  0  0  0  0  0  0  0
   63.9590   25.6530   51.6460 O   0  0  0  0  0  0  0  0  0  0  0  0
   64.0540   27.7950   52.5900 N   0  0  0  0  0  0  0  0  0  0  0  0
   65.2020   28.1630   51.7590 C   0  0  0  0  0  0  0  0  0  0  0  0
   63.3780   28.8260   53.3870 C   0  0  0  0  0  0  0  0  0  0  0  0
   62.6830   28.2180   54.6010 C   0  0  0  0  0  0  0  0  0  0  0  0
   58.4360   28.2010   55.2550 C   0  0  0  0  0  0  0  0  0  0  0  0
   57.3220   28.9150   54.8130 C   0  0  0  0  0  0  0  0  0  0  0  0
  1  2  2  0
  2  3  1  0
  3  4  2  0
  4  5  1  0
  5  6  1  0
  6  7  1  0
  7  8  2  0
  7  9  1  0
  9 10  1  0
 10 11  1  0
  3 12  1  0
 12 13  2  0
 13 14  1  0
 13 15  1  0
 15 16  1  0
 16 17  2  0
 17 18  1  0
 18 19  2  0
 19 20  1  0
 20 21  2  0
 20 22  1  0
 22 23  1  0
 23 24  1  0
 24 25  2  0
 24 26  1  0
 26 27  1  0
 26 28  1  0
 28 29  1  0
 19 30  1  0
 30 31  2  0
 15  2  1  0
 31 16  1  0
 10  5  2  0
 29 22  1  0
M  CHG  3   6  -1   9  -1  11  -1
M  END
>  <UniqueID>  (1811) 
2

>  <SMILES>  (1811) 
C=c1/c(=C\c2[n-]c(=O)[n-]c2[O-])cc(C)n1-c1ccc(C(=O)N2CCN(C)C(=O)C2)cn1

>  <Energy>  (1811) 
132.73718475930636

>  <Genealogy>  (1811) 
C=c1c(=Cc2[n-]c(=O)[n-]c2[O-])cc(C)n1-c1ccc(C(=O)N2CCN(C)C(=O)C2)cn1 (protonated)
C=c1/c(=C\c2[n-]c(=O)[n-]c2[O-])cc(C)n1-c1ccc(C(=O)N2CCN(C)C(=O)C2)cn1 (cis-trans isomerization)
C=c1/c(=C\c2[n-]c(=O)[n-]c2[O-])cc(C)n1-c1ccc(C(=O)N2CCN(C)C(=O)C2)cn1 (3D coordinates assigned)
C=c1/c(=C\c2[n-]c(=O)[n-]c2[O-])cc(C)n1-c1ccc(C(=O)N2CCN(C)C(=O)C2)cn1 (nonaromatic ring conformer: 132.73718475930636 kcal/mol)

>  <smiles>  (1811) 
C=c1c(=Cc2[nH]c(=O)[nH]c2O)cc(C)n1-c1ccc(C(=O)N2CCN(C)C(=O)C2)cn1

>  <score_type>  (1811) 
oracle

>  <origin>  (1811) 
adg

>  <m_score__min__energy>  (1811) 
-16.02

>  <m_primary>  (1811) 
energy

$$$$
3:0
     RDKit          3D

 31 34  0  0  0  0  0  0  0  0999 V2000
   58.8800   29.9750   44.7220 C   0  0  0  0  0  0  0  0  0  0  0  0
   58.7190   29.6030   46.0020 C   0  0  0  0  0  0  0  0  0  0  0  0
   58.2280   28.3740   46.4620 C   0  0  0  0  0  0  0  0  0  0  0  0
   57.8390   27.3250   45.7080 C   0  0  0  0  0  0  0  0  0  0  0  0
   57.2380   26.0750   46.2220 C   0  0  0  0  0  0  0  0  0  0  0  0
   57.9140   25.0080   46.6860 N   0  0  0  0  0  0  0  0  0  0  0  0
   56.9370   24.1620   47.0800 C   0  0  0  0  0  0  0  0  0  0  0  0
   57.1790   23.0290   47.5720 O   0  0  0  0  0  0  0  0  0  0  0  0
   55.6830   24.6250   46.9040 N   0  0  0  0  0  0  0  0  0  0  0  0
   55.8910   25.8380   46.3640 C   0  0  0  0  0  0  0  0  0  0  0  0
   54.8700   26.7080   46.0070 O   0  0  0  0  0  0  0  0  0  0  0  0
   58.2490   28.4490   47.8520 C   0  0  0  0  0  0  0  0  0  0  0  0
   58.7470   29.6950   48.1760 C   0  0  0  0  0  0  0  0  0  0  0  0
   58.9220   30.2160   49.5700 C   0  0  0  0  0  0  0  0  0  0  0  0
   59.0180   30.3970   47.0560 N   0  0  0  0  0  0  0  0  0  0  0  0
   59.5380   31.7360   47.0150 C   0  0  0  0  0  0  0  0  0  0  0  0
   60.7400   32.0230   47.6760 C   0  0  0  0  0  0  0  0  0  0  0  0
   61.2780   33.3200   47.6520 C   0  0  0  0  0  0  0  0  0  0  0  0
   62.5140   33.6130   48.3340 N   0  0  0  0  0  0  0  0  0  0  0  0
   62.5590   34.5900   49.4270 C   0  0  0  0  0  0  0  0  0  0  0  0
   63.3080   34.0140   50.6480 C   0  0  0  0  0  0  0  0  0  0  0  0
   64.2240   32.8990   50.2960 N   0  0  0  0  0  0  0  0  0  0  0  0
   65.2450   32.7430   51.3140 C   0  0  0  0  0  0  0  0  0  0  0  0
   66.4180   31.8370   51.0790 C   0  0  0  0  0  0  0  0  0  0  0  0
   65.1640   33.3540   52.3710 O   0  0  0  0  0  0  0  0  0  0  0  0
   64.8470   33.0900   48.9700 C   0  0  0  0  0  0  0  0  0  0  0  0
   63.7760   33.0200   47.8690 C   0  0  0  0  0  0  0  0  0  0  0  0
   60.5860   34.3340   46.9710 C   0  0  0  0  0  0  0  0  0  0  0  0
   59.3870   34.0530   46.3130 C   0  0  0  0  0  0  0  0  0  0  0  0
   58.8530   32.7560   46.3260 C   0  0  0  0  0  0  0  0  0  0  0  0
   57.5590   32.4660   45.6190 C   0  0  0  0  0  0  0  0  0  0  0  0
  1  2  2  0
  2  3  1  0
  3  4  2  3
  4  5  1  0
  5  6  1  0
  6  7  1  0
  7  8  2  0
  7  9  1  0
  9 10  1  0
 10 11  1  0
  3 12  1  0
 12 13  2  0
 13 14  1  0
 13 15  1  0
 15 16  1  0
 16 17  2  0
 17 18  1  0
 18 19  1  0
 19 20  1  0
 20 21  1  0
 21 22  1  0
 22 23  1  0
 23 24  1  0
 23 25  2  0
 22 26  1  0
 26 27  1  0
 18 28  2  0
 28 29  1  0
 29 30  2  0
 30 31  1  0
 15  2  1  0
 30 16  1  0
 10  5  2  0
 27 19  1  0
M  CHG  4   6  -1   9  -1  11  -1  22   1
M  END
>  <UniqueID>  (1812) 
4

>  <SMILES>  (1812) 
C=c1c(=Cc2[n-]c(=O)[n-]c2[O-])cc(C)n1-c1cc(N2CC[NH+](C(C)=O)CC2)ccc1C

>  <Energy>  (1812) 
135.83822602382557

>  <Genealogy>  (1812) 
C=c1c(=Cc2[n-]c(=O)[n-]c2[O-])cc(C)n1-c1cc(N2CC[NH+](C(C)=O)CC2)ccc1C (protonated)
C=c1c(=Cc2[n-]c(=O)[n-]c2[O-])cc(C)n1-c1cc(N2CC[NH+](C(C)=O)CC2)ccc1C (3D coordinates assigned)
C=c1c(=Cc2[n-]c(=O)[n-]c2[O-])cc(C)n1-c1cc(N2CC[NH+](C(C)=O)CC2)ccc1C (nonaromatic ring conformer: 135.83822602382557 kcal/mol)

>  <smiles>  (1812) 
C=c1c(=Cc2[nH]c(=O)[nH]c2O)cc(C)n1-c1cc(N2CCN(C(C)=O)CC2)ccc1C

>  <score_type>  (1812) 
oracle

>  <origin>  (1812) 
adg

>  <m_score__min__energy>  (1812) 
-15.08

>  <m_primary>  (1812) 
energy

$$$$
4:0
     RDKit          3D

 31 34  0  0  0  0  0  0  0  0999 V2000
   59.4390   29.0930   48.7920 C   0  0  0  0  0  0  0  0  0  0  0  0
   58.8480   29.8040   47.8190 C   0  0  0  0  0  0  0  0  0  0  0  0
   58.4500   29.3420   46.5530 C   0  0  0  0  0  0  0  0  0  0  0  0
   58.3760   28.0950   46.0480 C   0  0  0  0  0  0  0  0  0  0  0  0
   57.2100   27.2030   46.1340 C   0  0  0  0  0  0  0  0  0  0  0  0
   57.2770   25.9310   46.5640 N   0  0  0  0  0  0  0  0  0  0  0  0
   56.0300   25.4610   46.3420 C   0  0  0  0  0  0  0  0  0  0  0  0
   55.6890   24.2860   46.6330 O   0  0  0  0  0  0  0  0  0  0  0  0
   55.1840   26.3430   45.7670 N   0  0  0  0  0  0  0  0  0  0  0  0
   55.9500   27.4360   45.6270 C   0  0  0  0  0  0  0  0  0  0  0  0
   55.5180   28.6100   45.0210 O   0  0  0  0  0  0  0  0  0  0  0  0
   58.1200   30.4680   45.8170 C   0  0  0  0  0  0  0  0  0  0  0  0
   58.2590   31.5520   46.6560 C   0  0  0  0  0  0  0  0  0  0  0  0
   58.0470   32.9760   46.2380 C   0  0  0  0  0  0  0  0  0  0  0  0
   58.6920   31.1520   47.8730 N   0  0  0  0  0  0  0  0  0  0  0  0
   59.0280   32.0220   48.9710 C   0  0  0  0  0  0  0  0  0  0  0  0
   58.3170   31.9000   50.1760 C   0  0  0  0  0  0  0  0  0  0  0  0
   58.5770   32.7620   51.2440 C   0  0  0  0  0  0  0  0  0  0  0  0
   57.6810   32.5960   52.7430 Cl  0  0  0  0  0  0  0  0  0  0  0  0
   59.5420   33.7620   51.1140 C   0  0  0  0  0  0  0  0  0  0  0  0
   60.2550   33.8980   49.9200 C   0  0  0  0  0  0  0  0  0  0  0  0
   60.0190   33.0260   48.8440 C   0  0  0  0  0  0  0  0  0  0  0  0
   60.8300   33.1950   47.6140 C   0  0  0  0  0  0  0  0  0  0  0  0
   60.6150   34.2210   46.9100 O   0  0  0  0  0  0  0  0  0  0  0  0
   61.8360   32.2170   47.2190 N   0  0  0  0  0  0  0  0  0  0  0  0
   62.0980   31.2180   48.2830 C   0  0  0  0  0  0  0  0  0  0  0  0
   62.7920   31.8310   49.5060 C   0  0  0  0  0  0  0  0  0  0  0  0
   64.0060   32.5930   49.0740 C   0  0  0  0  0  0  0  0  0  0  0  0
   65.0270   32.5560   49.7440 O   0  0  0  0  0  0  0  0  0  0  0  0
   63.9180   33.4940   47.8790 C   0  0  0  0  0  0  0  0  0  0  0  0
   63.1090   32.8260   46.7490 C   0  0  0  0  0  0  0  0  0  0  0  0
  1  2  2  0
  2  3  1  0
  3  4  2  0
  4  5  1  0
  5  6  1  0
  6  7  1  0
  7  8  2  0
  7  9  1  0
  9 10  1  0
 10 11  1  0
  3 12  1  0
 12 13  2  0
 13 14  1  0
 13 15  1  0
 15 16  1  0
 16 17  2  0
 17 18  1  0
 18 19  1  0
 18 20  2  0
 20 21  1  0
 21 22  2  0
 22 23  1  0
 23 24  2  0
 23 25  1  0
 25 26  1  0
 26 27  1  0
 27 28  1  0
 28 29  2  0
 28 30  1  0
 30 31  1  0
 15  2  1  0
 22 16  1  0
 31 25  1  0
 10  5  2  0
M  CHG  4   6  -1   9  -1  11  -1  25   1
M  END
>  <UniqueID>  (1813) 
5

>  <SMILES>  (1813) 
C=c1/c(=C\c2[n-]c(=O)[n-]c2[O-])cc(C)n1-c1cc(Cl)ccc1C(=O)[NH+]1CCC(=O)CC1

>  <Energy>  (1813) 
138.23799429965797

>  <Genealogy>  (1813) 
C=c1c(=Cc2[n-]c(=O)[n-]c2[O-])cc(C)n1-c1cc(Cl)ccc1C(=O)[NH+]1CCC(=O)CC1 (protonated)
C=c1/c(=C\c2[n-]c(=O)[n-]c2[O-])cc(C)n1-c1cc(Cl)ccc1C(=O)[NH+]1CCC(=O)CC1 (cis-trans isomerization)
C=c1/c(=C\c2[n-]c(=O)[n-]c2[O-])cc(C)n1-c1cc(Cl)ccc1C(=O)[NH+]1CCC(=O)CC1 (3D coordinates assigned)
C=c1/c(=C\c2[n-]c(=O)[n-]c2[O-])cc(C)n1-c1cc(Cl)ccc1C(=O)[NH+]1CCC(=O)CC1 (nonaromatic ring conformer: 138.23799429965797 kcal/mol)

>  <smiles>  (1813) 
C=c1c(=Cc2[nH]c(=O)[nH]c2O)cc(C)n1-c1cc(Cl)ccc1C(=O)N1CCC(=O)CC1

>  <score_type>  (1813) 
oracle

>  <origin>  (1813) 
adg

>  <m_score__min__energy>  (1813) 
-14.800000000000001

>  <m_primary>  (1813) 
energy

$$$$
17:0
     RDKit          3D

 32 35  0  0  0  0  0  0  0  0999 V2000
   59.7690   28.1640   46.6900 C   0  0  0  0  0  0  0  0  0  0  0  0
   58.8600   28.9640   46.1130 C   0  0  0  0  0  0  0  0  0  0  0  0
   57.8180   28.5940   45.2430 C   0  0  0  0  0  0  0  0  0  0  0  0
   57.3790   27.3820   44.8490 C   0  0  0  0  0  0  0  0  0  0  0  0
   57.2140   26.2020   45.7190 C   0  0  0  0  0  0  0  0  0  0  0  0
   55.9700   25.9200   46.3000 C   0  0  0  0  0  0  0  0  0  0  0  0
   54.8630   26.7150   46.0250 O   0  0  0  0  0  0  0  0  0  0  0  0
   55.8370   24.8560   47.1330 N   0  0  0  0  0  0  0  0  0  0  0  0
   56.8970   24.0630   47.4320 C   0  0  0  0  0  0  0  0  0  0  0  0
   56.7500   23.0800   48.2040 O   0  0  0  0  0  0  0  0  0  0  0  0
   58.1190   24.3300   46.9020 N   0  0  0  0  0  0  0  0  0  0  0  0
   58.3040   25.3830   46.0630 C   0  0  0  0  0  0  0  0  0  0  0  0
   59.4550   25.6140   45.6050 O   0  0  0  0  0  0  0  0  0  0  0  0
   57.2310   29.7750   44.8170 C   0  0  0  0  0  0  0  0  0  0  0  0
   57.8930   30.8050   45.4520 C   0  0  0  0  0  0  0  0  0  0  0  0
   57.5640   32.2590   45.2960 C   0  0  0  0  0  0  0  0  0  0  0  0
   58.8690   30.3150   46.2470 N   0  0  0  0  0  0  0  0  0  0  0  0
   59.7830   31.1070   47.0250 C   0  0  0  0  0  0  0  0  0  0  0  0
   59.2920   32.0340   47.9530 C   0  0  0  0  0  0  0  0  0  0  0  0
   60.1750   32.7990   48.7190 C   0  0  0  0  0  0  0  0  0  0  0  0
   61.5650   32.6530   48.5610 C   0  0  0  0  0  0  0  0  0  0  0  0
   62.5060   33.4550   49.3770 C   0  0  0  0  0  0  0  0  0  0  0  0
   62.3860   34.7100   49.4080 O   0  0  0  0  0  0  0  0  0  0  0  0
   63.5710   32.8300   50.1140 N   0  0  0  0  0  0  0  0  0  0  0  0
   64.8860   33.4780   50.1510 C   0  0  0  0  0  0  0  0  0  0  0  0
   65.8950   32.5890   50.8780 C   0  0  0  0  0  0  0  0  0  0  0  0
   65.6680   31.2400   50.5290 O   0  0  0  0  0  0  0  0  0  0  0  0
   64.4870   30.7640   51.1550 C   0  0  0  0  0  0  0  0  0  0  0  0
   63.2840   31.7300   51.0450 C   0  0  0  0  0  0  0  0  0  0  0  0
   62.0520   31.7100   47.6390 C   0  0  0  0  0  0  0  0  0  0  0  0
   61.1670   30.9440   46.8730 C   0  0  0  0  0  0  0  0  0  0  0  0
   61.6560   30.0560   45.9720 F   0  0  0  0  0  0  0  0  0  0  0  0
  1  2  2  0
  2  3  1  0
  3  4  2  0
  4  5  1  0
  5  6  2  0
  6  7  1  0
  6  8  1  0
  8  9  1  0
  9 10  2  0
  9 11  1  0
 11 12  1  0
 12 13  2  0
  3 14  1  0
 14 15  2  0
 15 16  1  0
 15 17  1  0
 17 18  1  0
 18 19  2  0
 19 20  1  0
 20 21  2  0
 21 22  1  0
 22 23  2  0
 22 24  1  0
 24 25  1  0
 25 26  1  0
 26 27  1  0
 27 28  1  0
 28 29  1  0
 21 30  1  0
 30 31  2  0
 31 32  1  0
 17  2  1  0
 31 18  1  0
 12  5  1  0
 29 24  1  0
M  CHG  3   7  -1   8  -1  11  -1
M  END
>  <UniqueID>  (1814) 
18

>  <SMILES>  (1814) 
C=c1/c(=C\c2c([O-])[n-]c(=O)[n-]c2=O)cc(C)n1-c1ccc(C(=O)N2CCOCC2)cc1F

>  <Energy>  (1814) 
114.15628051738827

>  <Genealogy>  (1814) 
C=c1c(=Cc2c([O-])[n-]c(=O)[n-]c2=O)cc(C)n1-c1ccc(C(=O)N2CCOCC2)cc1F (protonated)
C=c1/c(=C\c2c([O-])[n-]c(=O)[n-]c2=O)cc(C)n1-c1ccc(C(=O)N2CCOCC2)cc1F (cis-trans isomerization)
C=c1/c(=C\c2c([O-])[n-]c(=O)[n-]c2=O)cc(C)n1-c1ccc(C(=O)N2CCOCC2)cc1F (3D coordinates assigned)
C=c1/c(=C\c2c([O-])[n-]c(=O)[n-]c2=O)cc(C)n1-c1ccc(C(=O)N2CCOCC2)cc1F (nonaromatic ring conformer: 114.15628051738827 kcal/mol)

>  <smiles>  (1814) 
C=c1c(=Cc2c(O)[nH]c(=O)[nH]c2=O)cc(C)n1-c1ccc(C(=O)N2CCOCC2)cc1F

>  <score_type>  (1814) 
oracle

>  <origin>  (1814) 
adg

>  <m_score__min__energy>  (1814) 
-16.010000000000002

>  <m_primary>  (1814) 
energy

$$$$
25:0
     RDKit          3D

 30 33  0  0  0  0  0  0  0  0999 V2000
   58.2030   30.5660   44.1510 C   0  0  0  0  0  0  0  0  0  0  0  0
   58.3130   30.2390   45.4510 C   0  0  0  0  0  0  0  0  0  0  0  0
   57.9110   29.0290   46.0250 C   0  0  0  0  0  0  0  0  0  0  0  0
   57.3150   27.9860   45.4130 C   0  0  0  0  0  0  0  0  0  0  0  0
   57.2610   26.6230   45.9870 C   0  0  0  0  0  0  0  0  0  0  0  0
   56.0220   26.0190   46.2460 C   0  0  0  0  0  0  0  0  0  0  0  0
   54.8380   26.7060   45.9980 O   0  0  0  0  0  0  0  0  0  0  0  0
   55.9710   24.7580   46.7530 N   0  0  0  0  0  0  0  0  0  0  0  0
   57.1100   24.0590   47.0030 C   0  0  0  0  0  0  0  0  0  0  0  0
   57.0480   22.8940   47.4770 O   0  0  0  0  0  0  0  0  0  0  0  0
   58.3200   24.6130   46.7350 N   0  0  0  0  0  0  0  0  0  0  0  0
   58.4230   25.8680   46.2280 C   0  0  0  0  0  0  0  0  0  0  0  0
   59.5620   26.3330   45.9610 O   0  0  0  0  0  0  0  0  0  0  0  0
   58.1960   29.1230   47.3780 C   0  0  0  0  0  0  0  0  0  0  0  0
   58.7660   30.3630   47.5770 C   0  0  0  0  0  0  0  0  0  0  0  0
   59.1620   30.8980   48.9210 C   0  0  0  0  0  0  0  0  0  0  0  0
   58.8410   31.0490   46.4100 N   0  0  0  0  0  0  0  0  0  0  0  0
   59.3370   32.4280   46.2660 C   0  0  0  0  0  0  0  0  0  0  0  0
   60.5140   32.6660   47.1750 C   0  0  0  0  0  0  0  0  0  0  0  0
   61.6410   31.8340   47.1130 C   0  0  0  0  0  0  0  0  0  0  0  0
   62.7270   32.0450   47.9680 C   0  0  0  0  0  0  0  0  0  0  0  0
   62.7070   33.0970   48.9030 C   0  0  0  0  0  0  0  0  0  0  0  0
   63.8270   33.3140   49.7900 N   0  0  0  0  0  0  0  0  0  0  0  0
   63.6020   33.8000   51.1600 C   0  0  0  0  0  0  0  0  0  0  0  0
   64.8180   34.5830   51.6650 C   0  0  0  0  0  0  0  0  0  0  0  0
   66.1140   33.7530   51.6010 C   0  0  0  0  0  0  0  0  0  0  0  0
   66.1040   32.6720   50.5040 C   0  0  0  0  0  0  0  0  0  0  0  0
   65.1990   33.0480   49.3270 C   0  0  0  0  0  0  0  0  0  0  0  0
   61.5770   33.9320   48.9570 C   0  0  0  0  0  0  0  0  0  0  0  0
   60.4920   33.7190   48.1020 C   0  0  0  0  0  0  0  0  0  0  0  0
  1  2  2  0
  2  3  1  0
  3  4  2  3
  4  5  1  0
  5  6  2  0
  6  7  1  0
  6  8  1  0
  8  9  1  0
  9 10  2  0
  9 11  1  0
 11 12  1  0
 12 13  2  0
  3 14  1  0
 14 15  2  0
 15 16  1  0
 15 17  1  0
 17 18  1  0
 18 19  1  0
 19 20  2  0
 20 21  1  0
 21 22  2  0
 22 23  1  0
 23 24  1  0
 24 25  1  0
 25 26  1  0
 26 27  1  0
 27 28  1  0
 22 29  1  0
 29 30  2  0
 17  2  1  0
 30 19  1  0
 12  5  1  0
 28 23  1  0
M  CHG  2   7  -1  11  -1
M  END
>  <UniqueID>  (1815) 
25

>  <SMILES>  (1815) 
C=c1c(=Cc2c([O-])[nH]c(=O)[n-]c2=O)cc(C)n1Cc1ccc(N2CCCCC2)cc1

>  <Energy>  (1815) 
99.06992043332697

>  <Genealogy>  (1815) 
C=c1c(=Cc2c([O-])[nH]c(=O)[n-]c2=O)cc(C)n1Cc1ccc(N2CCCCC2)cc1 (protonated)
C=c1c(=Cc2c([O-])[nH]c(=O)[n-]c2=O)cc(C)n1Cc1ccc(N2CCCCC2)cc1 (3D coordinates assigned)
C=c1c(=Cc2c([O-])[nH]c(=O)[n-]c2=O)cc(C)n1Cc1ccc(N2CCCCC2)cc1 (nonaromatic ring conformer: 99.06992043332697 kcal/mol)

>  <smiles>  (1815) 
C=c1c(=Cc2c(O)[nH]c(=O)[nH]c2=O)cc(C)n1Cc1ccc(N2CCCCC2)cc1

>  <score_type>  (1815) 
oracle

>  <origin>  (1815) 
adg

>  <m_score__min__energy>  (1815) 
-14.18

>  <m_primary>  (1815) 
energy

$$$$
26:0
     RDKit          3D

 30 33  0  0  0  0  0  0  0  0999 V2000
   59.6790   29.6060   44.8530 C   0  0  0  0  0  0  0  0  0  0  0  0
   59.3520   29.3620   46.1310 C   0  0  0  0  0  0  0  0  0  0  0  0
   58.6120   28.2760   46.6100 C   0  0  0  0  0  0  0  0  0  0  0  0
   58.1210   27.2450   45.8950 C   0  0  0  0  0  0  0  0  0  0  0  0
   57.4030   26.1000   46.4850 C   0  0  0  0  0  0  0  0  0  0  0  0
   56.0420   25.8680   46.5040 C   0  0  0  0  0  0  0  0  0  0  0  0
   55.0610   26.7070   45.9900 O   0  0  0  0  0  0  0  0  0  0  0  0
   55.7760   24.6660   47.0540 N   0  0  0  0  0  0  0  0  0  0  0  0
   57.0060   24.1890   47.3380 C   0  0  0  0  0  0  0  0  0  0  0  0
   57.1970   23.0620   47.8680 O   0  0  0  0  0  0  0  0  0  0  0  0
   58.0120   25.0180   46.9950 N   0  0  0  0  0  0  0  0  0  0  0  0
   58.5360   28.4340   47.9880 C   0  0  0  0  0  0  0  0  0  0  0  0
   59.2020   29.6040   48.2900 C   0  0  0  0  0  0  0  0  0  0  0  0
   59.4070   30.1310   49.6770 C   0  0  0  0  0  0  0  0  0  0  0  0
   59.7120   30.1580   47.1680 N   0  0  0  0  0  0  0  0  0  0  0  0
   60.4600   31.3840   47.0930 C   0  0  0  0  0  0  0  0  0  0  0  0
   61.8550   31.3310   47.2300 C   0  0  0  0  0  0  0  0  0  0  0  0
   62.6190   32.4950   47.1610 C   0  0  0  0  0  0  0  0  0  0  0  0
   61.9970   33.7270   46.9620 C   0  0  0  0  0  0  0  0  0  0  0  0
   60.6090   33.7980   46.8270 C   0  0  0  0  0  0  0  0  0  0  0  0
   59.8200   32.6320   46.8790 C   0  0  0  0  0  0  0  0  0  0  0  0
   58.3420   32.7430   46.7470 C   0  0  0  0  0  0  0  0  0  0  0  0
   57.6300   32.8320   47.7820 O   0  0  0  0  0  0  0  0  0  0  0  0
   57.6970   32.8780   45.4680 N   0  0  0  0  0  0  0  0  0  0  0  0
   57.2860   31.9330   44.6690 C   0  0  0  0  0  0  0  0  0  0  0  0
   56.6740   30.8470   45.2170 N   0  0  0  0  0  0  0  0  0  0  0  0
   56.2240   29.8090   44.4620 C   0  0  0  0  0  0  0  0  0  0  0  0
   56.3870   29.8280   43.0780 C   0  0  0  0  0  0  0  0  0  0  0  0
   57.0220   30.9180   42.4820 C   0  0  0  0  0  0  0  0  0  0  0  0
   57.4800   31.9740   43.2720 C   0  0  0  0  0  0  0  0  0  0  0  0
  1  2  2  0
  2  3  1  0
  3  4  2  0
  4  5  1  0
  5  6  2  0
  6  7  1  0
  6  8  1  0
  8  9  1  0
  9 10  2  0
  9 11  1  0
  3 12  1  0
 12 13  2  0
 13 14  1  0
 13 15  1  0
 15 16  1  0
 16 17  2  0
 17 18  1  0
 18 19  2  0
 19 20  1  0
 20 21  2  0
 21 22  1  0
 22 23  2  0
 22 24  1  0
 24 25  2  3
 25 26  1  0
 26 27  1  0
 27 28  2  0
 28 29  1  0
 29 30  2  0
 15  2  1  0
 21 16  1  0
 30 25  1  0
 11  5  1  0
M  CHG  3   7  -1   8  -1  26  -1
M  END
>  <UniqueID>  (1816) 
26

>  <SMILES>  (1816) 
C=c1/c(=C/c2[nH]c(=O)[n-]c2[O-])cc(C)n1-c1ccccc1C(=O)N=c1cccc[n-]1

>  <Energy>  (1816) 
135.08181294247078

>  <Genealogy>  (1816) 
C=c1c(=Cc2[nH]c(=O)[n-]c2[O-])cc(C)n1-c1ccccc1C(=O)N=c1cccc[n-]1 (protonated)
C=c1/c(=C/c2[nH]c(=O)[n-]c2[O-])cc(C)n1-c1ccccc1C(=O)N=c1cccc[n-]1 (cis-trans isomerization)
C=c1/c(=C/c2[nH]c(=O)[n-]c2[O-])cc(C)n1-c1ccccc1C(=O)N=c1cccc[n-]1 (3D coordinates assigned)
C=c1/c(=C/c2[nH]c(=O)[n-]c2[O-])cc(C)n1-c1ccccc1C(=O)N=c1cccc[n-]1 (optimized conformer: 135.08181294247078 kcal/mol)

>  <smiles>  (1816) 
C=c1c(=Cc2[nH]c(=O)[nH]c2O)cc(C)n1-c1ccccc1C(=O)N=c1cccc[nH]1

>  <score_type>  (1816) 
oracle

>  <origin>  (1816) 
adg

>  <m_score__min__energy>  (1816) 
-16.859999999999999

>  <m_primary>  (1816) 
energy

$$$$
37:0
     RDKit          3D

 31 34  0  0  0  0  0  0  0  0999 V2000
   59.6320   26.9680   48.2300 C   0  0  0  0  0  0  0  0  0  0  0  0
   59.6840   28.1380   47.5720 C   0  0  0  0  0  0  0  0  0  0  0  0
   59.2060   28.3970   46.2770 C   0  0  0  0  0  0  0  0  0  0  0  0
   58.4440   27.6580   45.4480 C   0  0  0  0  0  0  0  0  0  0  0  0
   57.2220   26.9300   45.8210 C   0  0  0  0  0  0  0  0  0  0  0  0
   57.2170   25.6590   46.2580 N   0  0  0  0  0  0  0  0  0  0  0  0
   55.9020   25.3650   46.3490 C   0  0  0  0  0  0  0  0  0  0  0  0
   55.4840   24.2460   46.7460 O   0  0  0  0  0  0  0  0  0  0  0  0
   55.0710   26.3580   45.9670 N   0  0  0  0  0  0  0  0  0  0  0  0
   55.9210   27.3360   45.6210 C   0  0  0  0  0  0  0  0  0  0  0  0
   55.5190   28.5640   45.1090 O   0  0  0  0  0  0  0  0  0  0  0  0
   59.6580   29.6620   45.9450 C   0  0  0  0  0  0  0  0  0  0  0  0
   60.3460   30.1430   47.0390 C   0  0  0  0  0  0  0  0  0  0  0  0
   60.8910   31.5160   47.1380 C   0  0  0  0  0  0  0  0  0  0  0  0
   60.3980   32.3970   46.3830 O   0  0  0  0  0  0  0  0  0  0  0  0
   61.9250   31.8990   48.0860 N   0  0  1  0  0  0  0  0  0  0  0  0
   63.2370   32.0340   47.3870 C   0  0  0  0  0  0  0  0  0  0  0  0
   64.0910   33.2350   47.8430 C   0  0  0  0  0  0  0  0  0  0  0  0
   64.0540   33.4840   49.3650 C   0  0  2  0  0  0  0  0  0  0  0  0
   65.0880   32.6360   50.0940 C   0  0  0  0  0  0  0  0  0  0  0  0
   66.4320   33.0540   50.1320 C   0  0  0  0  0  0  0  0  0  0  0  0
   67.4010   32.2730   50.7700 C   0  0  0  0  0  0  0  0  0  0  0  0
   67.0430   31.0660   51.3730 C   0  0  0  0  0  0  0  0  0  0  0  0
   67.9850   30.3120   51.9930 F   0  0  0  0  0  0  0  0  0  0  0  0
   65.7160   30.6350   51.3370 C   0  0  0  0  0  0  0  0  0  0  0  0
   64.7430   31.4110   50.6970 C   0  0  0  0  0  0  0  0  0  0  0  0
   62.6320   33.3520   49.9670 C   0  0  0  0  0  0  0  0  0  0  0  0
   61.5640   33.0830   48.8970 C   0  0  0  0  0  0  0  0  0  0  0  0
   60.3370   29.2340   48.0410 N   0  0  0  0  0  0  0  0  0  0  0  0
   61.0260   29.3810   49.3330 C   0  0  0  0  0  0  0  0  0  0  0  0
   60.0300   29.2880   50.4840 C   0  0  0  0  0  0  0  0  0  0  0  0
  1  2  2  0
  2  3  1  0
  3  4  2  3
  4  5  1  0
  5  6  1  0
  6  7  1  0
  7  8  2  0
  7  9  1  0
  9 10  1  0
 10 11  1  0
  3 12  1  0
 12 13  2  0
 13 14  1  0
 14 15  2  0
 16 14  1  6
 16 17  1  0
 17 18  1  0
 18 19  1  0
 19 20  1  1
 20 21  2  0
 21 22  1  0
 22 23  2  0
 23 24  1  0
 23 25  1  0
 25 26  2  0
 19 27  1  0
 27 28  1  0
 13 29  1  0
 29 30  1  0
 30 31  1  0
 29  2  1  0
 10  5  2  0
 28 16  1  0
 26 20  1  0
M  CHG  4   6  -1   9  -1  11  -1  16   1
M  END
>  <UniqueID>  (1817) 
36

>  <SMILES>  (1817) 
C=c1c(=Cc2[n-]c(=O)[n-]c2[O-])cc(C(=O)[NH+]2CCC(c3ccc(F)cc3)CC2)n1CC

>  <Energy>  (1817) 
146.20441077856407

>  <Genealogy>  (1817) 
C=c1c(=Cc2[n-]c(=O)[n-]c2[O-])cc(C(=O)[NH+]2CCC(c3ccc(F)cc3)CC2)n1CC (protonated)
C=c1c(=Cc2[n-]c(=O)[n-]c2[O-])cc(C(=O)[NH+]2CCC(c3ccc(F)cc3)CC2)n1CC (3D coordinates assigned)
C=c1c(=Cc2[n-]c(=O)[n-]c2[O-])cc(C(=O)[NH+]2CCC(c3ccc(F)cc3)CC2)n1CC (nonaromatic ring conformer: 146.20441077856407 kcal/mol)

>  <smiles>  (1817) 
C=c1c(=Cc2[nH]c(=O)[nH]c2O)cc(C(=O)N2CCC(c3ccc(F)cc3)CC2)n1CC

>  <score_type>  (1817) 
oracle

>  <origin>  (1817) 
adg

>  <m_score__min__energy>  (1817) 
-17.32

>  <m_primary>  (1817) 
energy

$$$$
41:0
     RDKit          3D

 23 24  0  0  0  0  0  0  0  0999 V2000
   56.7330   31.7250   44.4980 C   0  0  0  0  0  0  0  0  0  0  0  0
   56.2550   30.4530   44.5590 N   0  0  0  0  0  0  0  0  0  0  0  0
   56.9100   29.4710   45.2420 C   0  0  0  0  0  0  0  0  0  0  0  0
   56.4360   28.2630   45.2890 N   0  0  0  0  0  0  0  0  0  0  0  0
   57.3310   26.8950   45.8750 S   0  0  0  0  0  0  0  0  0  0  0  0
   58.7170   26.9260   45.2950 O   0  0  0  0  0  0  0  0  0  0  0  0
   57.3990   26.9530   47.3760 O   0  0  0  0  0  0  0  0  0  0  0  0
   56.5370   25.3940   45.3930 C   0  0  0  0  0  0  0  0  0  0  0  0
   57.2950   24.3250   44.8990 C   0  0  0  0  0  0  0  0  0  0  0  0
   56.6700   23.1380   44.5190 C   0  0  0  0  0  0  0  0  0  0  0  0
   55.2840   23.0060   44.6260 C   0  0  0  0  0  0  0  0  0  0  0  0
   54.5010   24.0690   45.1110 C   0  0  0  0  0  0  0  0  0  0  0  0
   53.0700   23.9520   45.2360 N   0  0  0  0  0  0  0  0  0  0  0  0
   52.2710   22.7830   46.2410 S   0  0  0  0  0  0  0  0  0  0  0  0
   50.9630   23.3360   46.7340 O   0  0  0  0  0  0  0  0  0  0  0  0
   51.9990   21.5500   45.4280 O   0  0  0  0  0  0  0  0  0  0  0  0
   53.3130   22.3350   47.6140 C   0  0  0  0  0  0  0  0  0  0  0  0
   55.1400   25.2660   45.5000 C   0  0  0  0  0  0  0  0  0  0  0  0
   54.3850   26.3290   45.9880 O   0  0  0  0  0  0  0  0  0  0  0  0
   58.1080   29.7670   45.9010 C   0  0  0  0  0  0  0  0  0  0  0  0
   58.6160   31.0680   45.8510 C   0  0  0  0  0  0  0  0  0  0  0  0
   57.9270   32.0560   45.1440 C   0  0  0  0  0  0  0  0  0  0  0  0
   58.6070   33.8390   45.0650 Br  0  0  0  0  0  0  0  0  0  0  0  0
  1  2  1  0
  2  3  1  0
  3  4  2  0
  4  5  1  0
  5  6  2  0
  5  7  2  0
  5  8  1  0
  8  9  2  0
  9 10  1  0
 10 11  2  0
 11 12  1  0
 12 13  1  0
 13 14  1  0
 14 15  2  0
 14 16  2  0
 14 17  1  0
 12 18  2  0
 18 19  1  0
  3 20  1  0
 20 21  2  0
 21 22  1  0
 22 23  1  0
 22  1  2  0
 18  8  1  0
M  CHG  2   2  -1  19  -1
M  END
>  <UniqueID>  (1818) 
40

>  <SMILES>  (1818) 
CS(=O)(=O)Nc1cccc(S(=O)(=O)/N=c2/ccc(Br)c[n-]2)c1[O-]

>  <Energy>  (1818) 
38.553675462714764

>  <Genealogy>  (1818) 
CS(=O)(=O)Nc1cccc(S(=O)(=O)N=c2ccc(Br)c[n-]2)c1[O-] (protonated)
CS(=O)(=O)Nc1cccc(S(=O)(=O)/N=c2/ccc(Br)c[n-]2)c1[O-] (cis-trans isomerization)
CS(=O)(=O)Nc1cccc(S(=O)(=O)/N=c2/ccc(Br)c[n-]2)c1[O-] (3D coordinates assigned)
CS(=O)(=O)Nc1cccc(S(=O)(=O)/N=c2/ccc(Br)c[n-]2)c1[O-] (optimized conformer: 38.553675462714764 kcal/mol)

>  <smiles>  (1818) 
CS(=O)(=O)Nc1cccc(S(=O)(=O)N=c2ccc(Br)c[nH]2)c1O

>  <score_type>  (1818) 
oracle

>  <origin>  (1818) 
adg

>  <m_score__min__energy>  (1818) 
-14.02

>  <m_primary>  (1818) 
energy

$$$$
55:0
     RDKit          3D

 30 32  0  0  0  0  0  0  0  0999 V2000
   57.3940   30.3810   43.5780 C   0  0  0  0  0  0  0  0  0  0  0  0
   57.8750   30.0520   44.7890 C   0  0  0  0  0  0  0  0  0  0  0  0
   57.7500   28.8100   45.4360 C   0  0  0  0  0  0  0  0  0  0  0  0
   57.2840   27.6220   44.9990 C   0  0  0  0  0  0  0  0  0  0  0  0
   57.1820   26.3870   45.8020 C   0  0  0  0  0  0  0  0  0  0  0  0
   55.9420   25.9260   46.2780 C   0  0  0  0  0  0  0  0  0  0  0  0
   54.7770   26.6420   46.0310 O   0  0  0  0  0  0  0  0  0  0  0  0
   55.8760   24.7680   46.9810 N   0  0  0  0  0  0  0  0  0  0  0  0
   56.9880   24.0260   47.2190 C   0  0  0  0  0  0  0  0  0  0  0  0
   56.9020   22.9580   47.8780 O   0  0  0  0  0  0  0  0  0  0  0  0
   58.1910   24.4330   46.7390 N   0  0  0  0  0  0  0  0  0  0  0  0
   58.3110   25.5850   46.0310 C   0  0  0  0  0  0  0  0  0  0  0  0
   59.4410   25.9250   45.5910 O   0  0  0  0  0  0  0  0  0  0  0  0
   58.2380   28.9900   46.7170 C   0  0  0  0  0  0  0  0  0  0  0  0
   58.6870   30.2900   46.7970 C   0  0  0  0  0  0  0  0  0  0  0  0
   59.3210   30.8880   48.0180 C   0  0  0  0  0  0  0  0  0  0  0  0
   58.4820   30.9380   45.6260 N   0  0  0  0  0  0  0  0  0  0  0  0
   58.7950   32.3560   45.3730 C   0  0  0  0  0  0  0  0  0  0  0  0
   57.6270   33.2600   45.7770 C   0  0  0  0  0  0  0  0  0  0  0  0
   58.1010   34.3350   46.6580 N   0  0  0  0  0  0  0  0  0  0  0  0
   59.6200   34.9750   46.1090 S   0  0  0  0  0  0  0  0  0  0  0  0
   59.7950   34.7110   44.6380 O   0  0  0  0  0  0  0  0  0  0  0  0
   59.6450   36.4610   46.3330 O   0  0  0  0  0  0  0  0  0  0  0  0
   60.9280   34.2300   47.0210 C   0  0  0  0  0  0  0  0  0  0  0  0
   62.1040   33.8220   46.3760 C   0  0  0  0  0  0  0  0  0  0  0  0
   63.1200   33.1870   47.0980 C   0  0  0  0  0  0  0  0  0  0  0  0
   62.9790   32.9730   48.4770 C   0  0  0  0  0  0  0  0  0  0  0  0
   64.0430   32.2430   49.2400 C   0  0  0  0  0  0  0  0  0  0  0  0
   61.7980   33.3740   49.1190 C   0  0  0  0  0  0  0  0  0  0  0  0
   60.7780   33.9960   48.3950 C   0  0  0  0  0  0  0  0  0  0  0  0
  1  2  2  0
  2  3  1  0
  3  4  2  0
  4  5  1  0
  5  6  2  0
  6  7  1  0
  6  8  1  0
  8  9  1  0
  9 10  2  0
  9 11  1  0
 11 12  1  0
 12 13  2  0
  3 14  1  0
 14 15  2  0
 15 16  1  0
 15 17  1  0
 17 18  1  0
 18 19  1  0
 19 20  1  0
 20 21  1  0
 21 22  2  0
 21 23  2  0
 21 24  1  0
 24 25  2  0
 25 26  1  0
 26 27  2  0
 27 28  1  0
 27 29  1  0
 29 30  2  0
 17  2  1  0
 30 24  1  0
 12  5  1  0
M  CHG  3   7  -1   8  -1  11  -1
M  END
>  <UniqueID>  (1819) 
52

>  <SMILES>  (1819) 
C=c1/c(=C\c2c([O-])[n-]c(=O)[n-]c2=O)cc(C)n1CCNS(=O)(=O)c1ccc(C)cc1

>  <Energy>  (1819) 
83.68932363083212

>  <Genealogy>  (1819) 
C=c1c(=Cc2c([O-])[n-]c(=O)[n-]c2=O)cc(C)n1CCNS(=O)(=O)c1ccc(C)cc1 (protonated)
C=c1/c(=C\c2c([O-])[n-]c(=O)[n-]c2=O)cc(C)n1CCNS(=O)(=O)c1ccc(C)cc1 (cis-trans isomerization)
C=c1/c(=C\c2c([O-])[n-]c(=O)[n-]c2=O)cc(C)n1CCNS(=O)(=O)c1ccc(C)cc1 (3D coordinates assigned)
C=c1/c(=C\c2c([O-])[n-]c(=O)[n-]c2=O)cc(C)n1CCNS(=O)(=O)c1ccc(C)cc1 (optimized conformer: 83.68932363083212 kcal/mol)

>  <smiles>  (1819) 
C=c1c(=Cc2c(O)[nH]c(=O)[nH]c2=O)cc(C)n1CCNS(=O)(=O)c1ccc(C)cc1

>  <score_type>  (1819) 
oracle

>  <origin>  (1819) 
adg

>  <m_score__min__energy>  (1819) 
-17.260000000000002

>  <m_primary>  (1819) 
energy

$$$$
70:0
     RDKit          3D

 35 39  0  0  0  0  0  0  0  0999 V2000
   57.1020   29.9730   44.2390 C   0  0  0  0  0  0  0  0  0  0  0  0
   57.5890   29.7610   45.4720 C   0  0  0  0  0  0  0  0  0  0  0  0
   58.0370   28.5380   45.9970 C   0  0  0  0  0  0  0  0  0  0  0  0
   57.9120   27.2770   45.5370 C   0  0  0  0  0  0  0  0  0  0  0  0
   57.3250   26.1460   46.2740 C   0  0  0  0  0  0  0  0  0  0  0  0
   58.0220   25.0990   46.7560 N   0  0  0  0  0  0  0  0  0  0  0  0
   57.0600   24.2690   47.2120 C   0  0  0  0  0  0  0  0  0  0  0  0
   57.3210   23.1670   47.7610 O   0  0  0  0  0  0  0  0  0  0  0  0
   55.7970   24.7060   47.0250 N   0  0  0  0  0  0  0  0  0  0  0  0
   55.9840   25.8880   46.4160 C   0  0  0  0  0  0  0  0  0  0  0  0
   54.9480   26.7120   45.9920 O   0  0  0  0  0  0  0  0  0  0  0  0
   58.6670   28.8370   47.1900 C   0  0  0  0  0  0  0  0  0  0  0  0
   58.5120   30.1900   47.3960 C   0  0  0  0  0  0  0  0  0  0  0  0
   58.9960   30.8920   48.5990 C   0  0  0  0  0  0  0  0  0  0  0  0
   58.1860   31.6050   49.2520 O   0  0  0  0  0  0  0  0  0  0  0  0
   60.3710   30.8080   49.0160 N   0  0  0  0  0  0  0  0  0  0  0  0
   60.6920   30.9600   50.4420 C   0  0  0  0  0  0  0  0  0  0  0  0
   62.1470   30.5830   50.7370 C   0  0  0  0  0  0  0  0  0  0  0  0
   63.0620   31.2460   49.7960 N   0  0  0  0  0  0  0  0  0  0  0  0
   64.3930   31.6250   50.2130 C   0  0  0  0  0  0  0  0  0  0  0  0
   65.0070   32.7780   49.6920 C   0  0  0  0  0  0  0  0  0  0  0  0
   66.2900   33.1290   50.1130 C   0  0  0  0  0  0  0  0  0  0  0  0
   66.9550   32.3380   51.0470 C   0  0  0  0  0  0  0  0  0  0  0  0
   66.3210   31.2020   51.5530 C   0  0  0  0  0  0  0  0  0  0  0  0
   65.0680   30.8700   51.1350 N   0  0  0  0  0  0  0  0  0  0  0  0
   62.6700   31.4240   48.3880 C   0  0  0  0  0  0  0  0  0  0  0  0
   61.4410   30.5800   48.0350 C   0  0  0  0  0  0  0  0  0  0  0  0
   57.8620   30.7620   46.3530 N   0  0  0  0  0  0  0  0  0  0  0  0
   57.6970   32.2100   46.1260 C   0  0  0  0  0  0  0  0  0  0  0  0
   58.8970   32.9740   46.6260 C   0  0  0  0  0  0  0  0  0  0  0  0
   58.7740   33.8760   47.6970 C   0  0  0  0  0  0  0  0  0  0  0  0
   59.8920   34.5780   48.1590 C   0  0  0  0  0  0  0  0  0  0  0  0
   61.1390   34.3790   47.5640 C   0  0  0  0  0  0  0  0  0  0  0  0
   61.2740   33.4740   46.5080 C   0  0  0  0  0  0  0  0  0  0  0  0
   60.1580   32.7720   46.0420 C   0  0  0  0  0  0  0  0  0  0  0  0
  1  2  2  0
  2  3  1  0
  3  4  2  3
  4  5  1  0
  5  6  1  0
  6  7  1  0
  7  8  2  0
  7  9  1  0
  9 10  1  0
 10 11  1  0
  3 12  1  0
 12 13  2  0
 13 14  1  0
 14 15  2  0
 14 16  1  0
 16 17  1  0
 17 18  1  0
 18 19  1  0
 19 20  1  0
 20 21  2  0
 21 22  1  0
 22 23  2  0
 23 24  1  0
 24 25  2  0
 19 26  1  0
 26 27  1  0
 13 28  1  0
 28 29  1  0
 29 30  1  0
 30 31  2  0
 31 32  1  0
 32 33  2  0
 33 34  1  0
 34 35  2  0
 28  2  1  0
 35 30  1  0
 10  5  2  0
 27 16  1  0
 25 20  1  0
M  CHG  4   6  -1   9  -1  11  -1  25   1
M  END
>  <UniqueID>  (1820) 
67

>  <SMILES>  (1820) 
C=c1c(=Cc2[n-]c(=O)[n-]c2[O-])cc(C(=O)N2CCN(c3cccc[nH+]3)CC2)n1Cc1ccccc1

>  <Energy>  (1820) 
141.40478890521274

>  <Genealogy>  (1820) 
C=c1c(=Cc2[n-]c(=O)[n-]c2[O-])cc(C(=O)N2CCN(c3cccc[nH+]3)CC2)n1Cc1ccccc1 (protonated)
C=c1c(=Cc2[n-]c(=O)[n-]c2[O-])cc(C(=O)N2CCN(c3cccc[nH+]3)CC2)n1Cc1ccccc1 (3D coordinates assigned)
C=c1c(=Cc2[n-]c(=O)[n-]c2[O-])cc(C(=O)N2CCN(c3cccc[nH+]3)CC2)n1Cc1ccccc1 (nonaromatic ring conformer: 141.40478890521274 kcal/mol)

>  <smiles>  (1820) 
C=c1c(=Cc2[nH]c(=O)[nH]c2O)cc(C(=O)N2CCN(c3ccccn3)CC2)n1Cc1ccccc1

>  <score_type>  (1820) 
oracle

>  <origin>  (1820) 
adg

>  <m_score__min__energy>  (1820) 
-15.220000000000001

>  <m_primary>  (1820) 
energy

$$$$
71:0
     RDKit          3D

 29 31  0  0  0  0  0  0  0  0999 V2000
   60.1240   29.5800   46.7180 C   0  0  0  0  0  0  0  0  0  0  0  0
   59.4360   30.5440   46.0850 C   0  0  0  0  0  0  0  0  0  0  0  0
   58.4170   30.3780   45.1310 C   0  0  0  0  0  0  0  0  0  0  0  0
   57.9780   29.2800   44.4840 C   0  0  0  0  0  0  0  0  0  0  0  0
   57.4170   28.0740   45.1230 C   0  0  0  0  0  0  0  0  0  0  0  0
   56.0310   27.9440   45.2920 C   0  0  0  0  0  0  0  0  0  0  0  0
   55.1720   28.9680   44.9080 O   0  0  0  0  0  0  0  0  0  0  0  0
   55.5180   26.8130   45.8420 N   0  0  0  0  0  0  0  0  0  0  0  0
   56.3260   25.7900   46.2230 C   0  0  0  0  0  0  0  0  0  0  0  0
   55.8280   24.7540   46.7350 O   0  0  0  0  0  0  0  0  0  0  0  0
   57.6680   25.8810   46.0450 N   0  0  0  0  0  0  0  0  0  0  0  0
   58.2300   26.9890   45.4980 C   0  0  0  0  0  0  0  0  0  0  0  0
   59.4780   27.0300   45.3270 O   0  0  0  0  0  0  0  0  0  0  0  0
   57.8780   31.6370   44.9170 C   0  0  0  0  0  0  0  0  0  0  0  0
   58.6060   32.5210   45.6850 C   0  0  0  0  0  0  0  0  0  0  0  0
   58.3580   33.9970   45.7510 C   0  0  0  0  0  0  0  0  0  0  0  0
   59.5500   31.8610   46.3930 N   0  0  0  0  0  0  0  0  0  0  0  0
   60.4710   32.4600   47.3230 C   0  0  0  0  0  0  0  0  0  0  0  0
   61.7970   32.7070   46.9400 C   0  0  0  0  0  0  0  0  0  0  0  0
   62.6940   33.2850   47.8410 C   0  0  0  0  0  0  0  0  0  0  0  0
   62.2750   33.6340   49.1350 C   0  0  0  0  0  0  0  0  0  0  0  0
   63.2240   34.2300   50.0990 C   0  0  0  0  0  0  0  0  0  0  0  0
   63.0270   35.4130   50.4910 O   0  0  0  0  0  0  0  0  0  0  0  0
   64.3680   33.5010   50.5880 N   0  0  0  0  0  0  0  0  0  0  0  0
   64.9470   33.8710   51.8810 C   0  0  0  0  0  0  0  0  0  0  0  0
   65.0400   32.5150   49.7350 C   0  0  0  0  0  0  0  0  0  0  0  0
   60.9540   33.3630   49.5240 C   0  0  0  0  0  0  0  0  0  0  0  0
   60.0550   32.7850   48.6230 C   0  0  0  0  0  0  0  0  0  0  0  0
   58.7830   32.5290   49.0190 F   0  0  0  0  0  0  0  0  0  0  0  0
  1  2  2  0
  2  3  1  0
  3  4  2  3
  4  5  1  0
  5  6  2  0
  6  7  1  0
  6  8  1  0
  8  9  1  0
  9 10  2  0
  9 11  1  0
 11 12  1  0
 12 13  2  0
  3 14  1  0
 14 15  2  0
 15 16  1  0
 15 17  1  0
 17 18  1  0
 18 19  2  0
 19 20  1  0
 20 21  2  0
 21 22  1  0
 22 23  2  0
 22 24  1  0
 24 25  1  0
 24 26  1  0
 21 27  1  0
 27 28  2  0
 28 29  1  0
 17  2  1  0
 28 18  1  0
 12  5  1  0
M  CHG  3   7  -1   8  -1  11  -1
M  END
>  <UniqueID>  (1821) 
68

>  <SMILES>  (1821) 
C=c1c(=Cc2c([O-])[n-]c(=O)[n-]c2=O)cc(C)n1-c1ccc(C(=O)N(C)C)cc1F

>  <Energy>  (1821) 
99.71664483328139

>  <Genealogy>  (1821) 
C=c1c(=Cc2c([O-])[n-]c(=O)[n-]c2=O)cc(C)n1-c1ccc(C(=O)N(C)C)cc1F (protonated)
C=c1c(=Cc2c([O-])[n-]c(=O)[n-]c2=O)cc(C)n1-c1ccc(C(=O)N(C)C)cc1F (3D coordinates assigned)
C=c1c(=Cc2c([O-])[n-]c(=O)[n-]c2=O)cc(C)n1-c1ccc(C(=O)N(C)C)cc1F (optimized conformer: 99.71664483328139 kcal/mol)

>  <smiles>  (1821) 
C=c1c(=Cc2c(O)[nH]c(=O)[nH]c2=O)cc(C)n1-c1ccc(C(=O)N(C)C)cc1F

>  <score_type>  (1821) 
oracle

>  <origin>  (1821) 
adg

>  <m_score__min__energy>  (1821) 
-15.43

>  <m_primary>  (1821) 
energy

$$$$
73:0
     RDKit          3D

 38 42  0  0  0  0  0  0  0  0999 V2000
   59.7590   28.2560   48.5920 C   0  0  0  0  0  0  0  0  0  0  0  0
   59.2840   29.2900   47.8780 C   0  0  0  0  0  0  0  0  0  0  0  0
   58.6380   29.1970   46.6400 C   0  0  0  0  0  0  0  0  0  0  0  0
   58.4760   28.0900   45.8880 C   0  0  0  0  0  0  0  0  0  0  0  0
   57.3120   27.1900   45.9770 C   0  0  0  0  0  0  0  0  0  0  0  0
   57.3690   25.9680   46.5360 N   0  0  0  0  0  0  0  0  0  0  0  0
   56.0870   25.5460   46.4970 C   0  0  0  0  0  0  0  0  0  0  0  0
   55.7310   24.4180   46.9270 O   0  0  0  0  0  0  0  0  0  0  0  0
   55.2130   26.4320   45.9770 N   0  0  0  0  0  0  0  0  0  0  0  0
   56.0020   27.4730   45.6620 C   0  0  0  0  0  0  0  0  0  0  0  0
   55.5220   28.6700   45.1490 O   0  0  0  0  0  0  0  0  0  0  0  0
   58.2720   30.4880   46.2920 C   0  0  0  0  0  0  0  0  0  0  0  0
   58.7050   31.3130   47.3120 C   0  0  0  0  0  0  0  0  0  0  0  0
   58.5840   32.7910   47.3220 C   0  0  0  0  0  0  0  0  0  0  0  0
   57.4260   33.2890   47.3780 O   0  0  0  0  0  0  0  0  0  0  0  0
   59.7330   33.6790   47.3020 N   0  0  0  0  0  0  0  0  0  0  0  0
   60.8460   33.1840   46.4380 C   0  0  0  0  0  0  0  0  0  0  0  0
   62.0020   32.5190   47.2080 C   0  0  0  0  0  0  0  0  0  0  0  0
   62.3970   33.2880   48.3960 N   0  0  0  0  0  0  0  0  0  0  0  0
   63.5480   32.8580   49.1570 C   0  0  0  0  0  0  0  0  0  0  0  0
   64.3800   32.0720   48.6220 O   0  0  0  0  0  0  0  0  0  0  0  0
   63.7950   33.3450   50.5650 C   0  0  0  0  0  0  0  0  0  0  0  0
   62.8500   32.7200   51.5600 C   0  0  0  0  0  0  0  0  0  0  0  0
   62.0960   33.5320   52.4220 C   0  0  0  0  0  0  0  0  0  0  0  0
   61.1980   32.9560   53.3260 C   0  0  0  0  0  0  0  0  0  0  0  0
   61.0430   31.5680   53.3690 C   0  0  0  0  0  0  0  0  0  0  0  0
   61.7820   30.7540   52.5060 C   0  0  0  0  0  0  0  0  0  0  0  0
   62.6800   31.3260   51.6000 C   0  0  0  0  0  0  0  0  0  0  0  0
   61.5910   34.4570   48.7700 C   0  0  0  0  0  0  0  0  0  0  0  0
   60.1180   34.0710   48.6810 C   0  0  0  0  0  0  0  0  0  0  0  0
   59.3440   30.5920   48.2660 N   0  0  0  0  0  0  0  0  0  0  0  0
   59.9410   31.1480   49.4940 C   0  0  0  0  0  0  0  0  0  0  0  0
   58.8940   31.3260   50.5600 C   0  0  0  0  0  0  0  0  0  0  0  0
   58.1760   30.2180   51.0380 C   0  0  0  0  0  0  0  0  0  0  0  0
   57.1740   30.3870   51.9970 C   0  0  0  0  0  0  0  0  0  0  0  0
   56.8790   31.6630   52.4850 C   0  0  0  0  0  0  0  0  0  0  0  0
   57.5910   32.7710   52.0180 C   0  0  0  0  0  0  0  0  0  0  0  0
   58.5960   32.6050   51.0620 C   0  0  0  0  0  0  0  0  0  0  0  0
  1  2  2  0
  2  3  1  0
  3  4  2  3
  4  5  1  0
  5  6  1  0
  6  7  1  0
  7  8  2  0
  7  9  1  0
  9 10  1  0
 10 11  1  0
  3 12  1  0
 12 13  2  0
 13 14  1  0
 14 15  2  0
 14 16  1  0
 16 17  1  0
 17 18  1  0
 18 19  1  0
 19 20  1  0
 20 21  2  0
 20 22  1  0
 22 23  1  0
 23 24  2  0
 24 25  1  0
 25 26  2  0
 26 27  1  0
 27 28  2  0
 19 29  1  0
 29 30  1  0
 13 31  1  0
 31 32  1  0
 32 33  1  0
 33 34  2  0
 34 35  1  0
 35 36  2  0
 36 37  1  0
 37 38  2  0
 31  2  1  0
 38 33  1  0
 10  5  2  0
 30 16  1  0
 28 23  1  0
M  CHG  4   6  -1   9  -1  11  -1  16   1
M  END
>  <UniqueID>  (1822) 
70

>  <SMILES>  (1822) 
C=c1c(=Cc2[n-]c(=O)[n-]c2[O-])cc(C(=O)[NH+]2CCN(C(=O)Cc3ccccc3)CC2)n1Cc1ccccc1

>  <Energy>  (1822) 
150.34429269097012

>  <Genealogy>  (1822) 
C=c1c(=Cc2[n-]c(=O)[n-]c2[O-])cc(C(=O)[NH+]2CCN(C(=O)Cc3ccccc3)CC2)n1Cc1ccccc1 (protonated)
C=c1c(=Cc2[n-]c(=O)[n-]c2[O-])cc(C(=O)[NH+]2CCN(C(=O)Cc3ccccc3)CC2)n1Cc1ccccc1 (3D coordinates assigned)
C=c1c(=Cc2[n-]c(=O)[n-]c2[O-])cc(C(=O)[NH+]2CCN(C(=O)Cc3ccccc3)CC2)n1Cc1ccccc1 (nonaromatic ring conformer: 150.34429269097012 kcal/mol)

>  <smiles>  (1822) 
C=c1c(=Cc2[nH]c(=O)[nH]c2O)cc(C(=O)N2CCN(C(=O)Cc3ccccc3)CC2)n1Cc1ccccc1

>  <score_type>  (1822) 
oracle

>  <origin>  (1822) 
adg

>  <m_score__min__energy>  (1822) 
-16.219999999999999

>  <m_primary>  (1822) 
energy

$$$$
83:0
     RDKit          3D

 29 32  0  0  0  0  0  0  0  0999 V2000
   54.5050   28.1730   52.9260 C   0  0  0  0  0  0  0  0  0  0  0  0
   54.9700   29.4270   52.8140 C   0  0  0  0  0  0  0  0  0  0  0  0
   54.2260   30.5840   52.5380 C   0  0  0  0  0  0  0  0  0  0  0  0
   52.8960   30.7920   52.4750 C   0  0  0  0  0  0  0  0  0  0  0  0
   52.0990   30.9010   51.2440 C   0  0  0  0  0  0  0  0  0  0  0  0
   52.1920   30.0360   50.2190 N   0  0  0  0  0  0  0  0  0  0  0  0
   51.4000   30.5870   49.2730 C   0  0  0  0  0  0  0  0  0  0  0  0
   51.2150   30.0510   48.1500 O   0  0  0  0  0  0  0  0  0  0  0  0
   50.8350   31.7630   49.6200 N   0  0  0  0  0  0  0  0  0  0  0  0
   51.3000   31.9560   50.8640 C   0  0  0  0  0  0  0  0  0  0  0  0
   51.0220   33.0850   51.6260 O   0  0  0  0  0  0  0  0  0  0  0  0
   55.1470   31.5980   52.3430 C   0  0  0  0  0  0  0  0  0  0  0  0
   56.3970   31.0570   52.5630 C   0  0  0  0  0  0  0  0  0  0  0  0
   57.6450   31.8510   52.5700 C   0  0  0  0  0  0  0  0  0  0  0  0
   58.0760   32.3080   53.6630 O   0  0  0  0  0  0  0  0  0  0  0  0
   58.3230   32.1820   51.3440 N   0  0  0  0  0  0  0  0  0  0  0  0
   58.9950   33.4840   51.2290 C   0  0  0  0  0  0  0  0  0  0  0  0
   59.7490   33.6270   49.9000 C   0  0  0  0  0  0  0  0  0  0  0  0
   58.9320   33.1380   48.7780 N   0  0  0  0  0  0  0  0  0  0  0  0
   59.0230   33.7710   47.4830 C   0  0  0  0  0  0  0  0  0  0  0  0
   58.1680   33.3830   46.4360 C   0  0  0  0  0  0  0  0  0  0  0  0
   58.2610   33.9930   45.1810 C   0  0  0  0  0  0  0  0  0  0  0  0
   59.2080   34.9950   44.9580 C   0  0  0  0  0  0  0  0  0  0  0  0
   60.0650   35.3870   45.9880 C   0  0  0  0  0  0  0  0  0  0  0  0
   59.9760   34.7810   47.2450 C   0  0  0  0  0  0  0  0  0  0  0  0
   58.1620   31.8910   48.9150 C   0  0  0  0  0  0  0  0  0  0  0  0
   58.4400   31.2050   50.2530 C   0  0  0  0  0  0  0  0  0  0  0  0
   56.2950   29.7360   52.8460 N   0  0  0  0  0  0  0  0  0  0  0  0
   57.4030   28.7980   53.0590 C   0  0  0  0  0  0  0  0  0  0  0  0
  1  2  2  0
  2  3  1  0
  3  4  2  0
  4  5  1  0
  5  6  1  0
  6  7  1  0
  7  8  2  0
  7  9  1  0
  9 10  1  0
 10 11  1  0
  3 12  1  0
 12 13  2  0
 13 14  1  0
 14 15  2  0
 14 16  1  0
 16 17  1  0
 17 18  1  0
 18 19  1  0
 19 20  1  0
 20 21  2  0
 21 22  1  0
 22 23  2  0
 23 24  1  0
 24 25  2  0
 19 26  1  0
 26 27  1  0
 13 28  1  0
 28 29  1  0
 28  2  1  0
 10  5  2  0
 27 16  1  0
 25 20  1  0
M  CHG  3   6  -1   9  -1  11  -1
M  END
>  <UniqueID>  (1823) 
80

>  <SMILES>  (1823) 
C=c1/c(=C\c2[n-]c(=O)[n-]c2[O-])cc(C(=O)N2CCN(c3ccccc3)CC2)n1C

>  <Energy>  (1823) 
132.05052693042296

>  <Genealogy>  (1823) 
C=c1c(=Cc2[n-]c(=O)[n-]c2[O-])cc(C(=O)N2CCN(c3ccccc3)CC2)n1C (protonated)
C=c1/c(=C\c2[n-]c(=O)[n-]c2[O-])cc(C(=O)N2CCN(c3ccccc3)CC2)n1C (cis-trans isomerization)
C=c1/c(=C\c2[n-]c(=O)[n-]c2[O-])cc(C(=O)N2CCN(c3ccccc3)CC2)n1C (3D coordinates assigned)
C=c1/c(=C\c2[n-]c(=O)[n-]c2[O-])cc(C(=O)N2CCN(c3ccccc3)CC2)n1C (nonaromatic ring conformer: 132.05052693042296 kcal/mol)

>  <smiles>  (1823) 
C=c1c(=Cc2[nH]c(=O)[nH]c2O)cc(C(=O)N2CCN(c3ccccc3)CC2)n1C

>  <score_type>  (1823) 
oracle

>  <origin>  (1823) 
adg

>  <m_score__min__energy>  (1823) 
-17.859999999999999

>  <m_primary>  (1823) 
energy

$$$$
84:0
     RDKit          3D

 27 29  0  0  0  0  0  0  0  0999 V2000
   63.4710   31.6990   46.7600 O   0  0  0  0  0  0  0  0  0  0  0  0
   62.5650   32.4220   47.5330 C   0  0  0  0  0  0  0  0  0  0  0  0
   61.1860   32.2490   47.3520 C   0  0  0  0  0  0  0  0  0  0  0  0
   60.2680   32.9770   48.1260 C   0  0  0  0  0  0  0  0  0  0  0  0
   58.7860   32.8030   47.9180 C   0  0  0  0  0  0  0  0  0  0  0  0
   58.5150   32.1500   46.6260 N   0  0  0  0  0  0  0  0  0  0  0  0
   58.2000   32.7930   45.4750 C   0  0  0  0  0  0  0  0  0  0  0  0
   58.0560   34.2780   45.3270 C   0  0  0  0  0  0  0  0  0  0  0  0
   57.9440   31.8890   44.4660 C   0  0  0  0  0  0  0  0  0  0  0  0
   58.1190   30.6250   45.0090 C   0  0  0  0  0  0  0  0  0  0  0  0
   57.9360   29.4550   44.3660 C   0  0  0  0  0  0  0  0  0  0  0  0
   57.3940   28.2410   45.0180 C   0  0  0  0  0  0  0  0  0  0  0  0
   56.0160   28.1310   45.2580 C   0  0  0  0  0  0  0  0  0  0  0  0
   55.1440   29.1360   44.8570 O   0  0  0  0  0  0  0  0  0  0  0  0
   55.5210   27.0280   45.8790 N   0  0  0  0  0  0  0  0  0  0  0  0
   56.3410   26.0270   46.2880 C   0  0  0  0  0  0  0  0  0  0  0  0
   55.8590   25.0120   46.8550 O   0  0  0  0  0  0  0  0  0  0  0  0
   57.6800   26.1210   46.0910 N   0  0  0  0  0  0  0  0  0  0  0  0
   58.2260   27.2040   45.4790 C   0  0  0  0  0  0  0  0  0  0  0  0
   59.4770   27.2730   45.3450 O   0  0  0  0  0  0  0  0  0  0  0  0
   58.4650   30.8170   46.3520 C   0  0  0  0  0  0  0  0  0  0  0  0
   58.7120   29.8430   47.2440 C   0  0  0  0  0  0  0  0  0  0  0  0
   60.7470   33.8790   49.0880 C   0  0  0  0  0  0  0  0  0  0  0  0
   62.1210   34.0530   49.2720 C   0  0  0  0  0  0  0  0  0  0  0  0
   63.0420   33.3260   48.4940 C   0  0  0  0  0  0  0  0  0  0  0  0
   64.4290   33.4710   48.6450 O   0  0  0  0  0  0  0  0  0  0  0  0
   65.1870   32.9060   49.7110 C   0  0  0  0  0  0  0  0  0  0  0  0
  1  2  1  0
  2  3  2  0
  3  4  1  0
  4  5  1  0
  5  6  1  0
  6  7  1  0
  7  8  1  0
  7  9  2  0
  9 10  1  0
 10 11  2  0
 11 12  1  0
 12 13  2  0
 13 14  1  0
 13 15  1  0
 15 16  1  0
 16 17  2  0
 16 18  1  0
 18 19  1  0
 19 20  2  0
 10 21  1  0
 21 22  2  0
  4 23  2  0
 23 24  1  0
 24 25  2  0
 25 26  1  0
 26 27  1  0
 25  2  1  0
 21  6  1  0
 19 12  1  0
M  CHG  3  14  -1  15  -1  18  -1
M  END
>  <UniqueID>  (1824) 
81

>  <SMILES>  (1824) 
C=c1/c(=C/c2c([O-])[n-]c(=O)[n-]c2=O)cc(C)n1Cc1ccc(OC)c(O)c1

>  <Energy>  (1824) 
83.03335304564565

>  <Genealogy>  (1824) 
C=c1c(=Cc2c([O-])[n-]c(=O)[n-]c2=O)cc(C)n1Cc1ccc(OC)c(O)c1 (protonated)
C=c1/c(=C/c2c([O-])[n-]c(=O)[n-]c2=O)cc(C)n1Cc1ccc(OC)c(O)c1 (cis-trans isomerization)
C=c1/c(=C/c2c([O-])[n-]c(=O)[n-]c2=O)cc(C)n1Cc1ccc(OC)c(O)c1 (3D coordinates assigned)
C=c1/c(=C/c2c([O-])[n-]c(=O)[n-]c2=O)cc(C)n1Cc1ccc(OC)c(O)c1 (optimized conformer: 83.03335304564565 kcal/mol)

>  <smiles>  (1824) 
C=c1c(=Cc2c(O)[nH]c(=O)[nH]c2=O)cc(C)n1Cc1ccc(OC)c(O)c1

>  <score_type>  (1824) 
oracle

>  <origin>  (1824) 
adg

>  <m_score__min__energy>  (1824) 
-15.369999999999999

>  <m_primary>  (1824) 
energy

$$$$
0:0
     RDKit          3D

 28 30  0  0  0  0  0  0  0  0999 V2000
   54.0470   28.7300   54.1780 C   0  0  0  0  0  0  0  0  0  0  0  0
   54.5410   29.5530   53.2390 C   0  0  0  0  0  0  0  0  0  0  0  0
   53.7940   30.3210   52.3390 C   0  0  0  0  0  0  0  0  0  0  0  0
   52.4510   30.3970   52.2450 C   0  0  0  0  0  0  0  0  0  0  0  0
   51.7340   30.8120   51.0250 C   0  0  0  0  0  0  0  0  0  0  0  0
   51.6930   30.0680   49.9050 N   0  0  0  0  0  0  0  0  0  0  0  0
   51.0140   30.8480   49.0370 C   0  0  0  0  0  0  0  0  0  0  0  0
   50.7520   30.4830   47.8610 O   0  0  0  0  0  0  0  0  0  0  0  0
   50.6440   32.0500   49.5240 N   0  0  0  0  0  0  0  0  0  0  0  0
   51.1180   32.0190   50.7800 C   0  0  0  0  0  0  0  0  0  0  0  0
   51.0320   33.0910   51.6580 O   0  0  0  0  0  0  0  0  0  0  0  0
   54.7100   31.0450   51.5910 C   0  0  0  0  0  0  0  0  0  0  0  0
   55.9640   30.6800   52.0360 C   0  0  0  0  0  0  0  0  0  0  0  0
   57.2380   31.3010   51.5540 C   0  0  0  0  0  0  0  0  0  0  0  0
   55.8690   29.7690   53.0350 N   0  0  0  0  0  0  0  0  0  0  0  0
   56.9970   29.0920   53.6960 C   0  0  0  0  0  0  0  0  0  0  0  0
   58.0730   30.0920   54.1420 C   0  0  0  0  0  0  0  0  0  0  0  0
   59.3360   29.9640   53.3390 C   0  0  0  0  0  0  0  0  0  0  0  0
   60.1690   30.9090   53.3470 O   0  0  0  0  0  0  0  0  0  0  0  0
   59.6010   28.7720   52.5860 N   0  0  0  0  0  0  0  0  0  0  0  0
   60.7950   28.6200   51.7570 C   0  0  0  0  0  0  0  0  0  0  0  0
   60.8260   29.6770   50.6840 C   0  0  0  0  0  0  0  0  0  0  0  0
   61.9540   30.5030   50.5380 C   0  0  0  0  0  0  0  0  0  0  0  0
   61.9990   31.4600   49.5210 C   0  0  0  0  0  0  0  0  0  0  0  0
   60.9220   31.6020   48.6420 C   0  0  0  0  0  0  0  0  0  0  0  0
   59.8000   30.7810   48.7760 C   0  0  0  0  0  0  0  0  0  0  0  0
   59.7490   29.8190   49.7890 C   0  0  0  0  0  0  0  0  0  0  0  0
   58.6570   29.0190   49.8890 F   0  0  0  0  0  0  0  0  0  0  0  0
  1  2  2  0
  2  3  1  0
  3  4  2  0
  4  5  1  0
  5  6  1  0
  6  7  1  0
  7  8  2  0
  7  9  1  0
  9 10  1  0
 10 11  1  0
  3 12  1  0
 12 13  2  0
 13 14  1  0
 13 15  1  0
 15 16  1  0
 16 17  1  0
 17 18  1  0
 18 19  2  0
 18 20  1  0
 20 21  1  0
 21 22  1  0
 22 23  2  0
 23 24  1  0
 24 25  2  0
 25 26  1  0
 26 27  2  0
 27 28  1  0
 15  2  1  0
 27 22  1  0
 10  5  2  0
M  CHG  3   6  -1   9  -1  11  -1
M  END
>  <UniqueID>  (1825) 
1

>  <SMILES>  (1825) 
C=c1/c(=C/c2[n-]c(=O)[n-]c2[O-])cc(C)n1CCC(=O)NCc1ccccc1F

>  <Energy>  (1825) 
103.74664887307972

>  <Genealogy>  (1825) 
C=c1c(=Cc2[n-]c(=O)[n-]c2[O-])cc(C)n1CCC(=O)NCc1ccccc1F (protonated)
C=c1/c(=C/c2[n-]c(=O)[n-]c2[O-])cc(C)n1CCC(=O)NCc1ccccc1F (cis-trans isomerization)
C=c1/c(=C/c2[n-]c(=O)[n-]c2[O-])cc(C)n1CCC(=O)NCc1ccccc1F (3D coordinates assigned)
C=c1/c(=C/c2[n-]c(=O)[n-]c2[O-])cc(C)n1CCC(=O)NCc1ccccc1F (optimized conformer: 103.74664887307972 kcal/mol)

>  <smiles>  (1825) 
C=c1c(=Cc2[nH]c(=O)[nH]c2O)cc(C)n1CCC(=O)NCc1ccccc1F

>  <score_type>  (1825) 
oracle

>  <origin>  (1825) 
adg

>  <m_score__min__energy>  (1825) 
-15.970000000000001

>  <m_primary>  (1825) 
energy

$$$$
6:0
     RDKit          3D

 34 37  0  0  0  0  0  0  0  0999 V2000
   57.9370   28.6760   44.7140 C   0  0  0  0  0  0  0  0  0  0  0  0
   58.3280   27.7460   45.5990 C   0  0  0  0  0  0  0  0  0  0  0  0
   58.0650   26.3740   45.5340 C   0  0  0  0  0  0  0  0  0  0  0  0
   57.3800   25.7150   44.5780 C   0  0  0  0  0  0  0  0  0  0  0  0
   56.2030   24.8630   44.8580 C   0  0  0  0  0  0  0  0  0  0  0  0
   55.1140   25.3820   45.5740 C   0  0  0  0  0  0  0  0  0  0  0  0
   55.1120   26.7070   45.9970 O   0  0  0  0  0  0  0  0  0  0  0  0
   54.0450   24.5920   45.8510 N   0  0  0  0  0  0  0  0  0  0  0  0
   54.0120   23.2940   45.4580 C   0  0  0  0  0  0  0  0  0  0  0  0
   53.0080   22.5830   45.7210 O   0  0  0  0  0  0  0  0  0  0  0  0
   55.0640   22.7590   44.7880 N   0  0  0  0  0  0  0  0  0  0  0  0
   56.1580   23.5050   44.4880 C   0  0  0  0  0  0  0  0  0  0  0  0
   57.1300   22.9660   43.8960 O   0  0  0  0  0  0  0  0  0  0  0  0
   58.6960   25.8010   46.6310 C   0  0  0  0  0  0  0  0  0  0  0  0
   59.2950   26.8340   47.3240 C   0  0  0  0  0  0  0  0  0  0  0  0
   60.1060   26.6600   48.5720 C   0  0  0  0  0  0  0  0  0  0  0  0
   59.0800   28.0120   46.6970 N   0  0  0  0  0  0  0  0  0  0  0  0
   59.5570   29.2970   47.1360 C   0  0  0  0  0  0  0  0  0  0  0  0
   59.1970   29.7900   48.3970 C   0  0  0  0  0  0  0  0  0  0  0  0
   59.6710   31.0300   48.8310 C   0  0  0  0  0  0  0  0  0  0  0  0
   60.5100   31.8020   48.0070 C   0  0  0  0  0  0  0  0  0  0  0  0
   61.0170   33.1120   48.4810 C   0  0  0  0  0  0  0  0  0  0  0  0
   60.3850   34.1650   48.1920 O   0  0  0  0  0  0  0  0  0  0  0  0
   62.2230   33.1990   49.2560 N   0  0  0  0  0  0  0  0  0  0  0  0
   62.6360   34.4380   49.9150 C   0  0  0  0  0  0  0  0  0  0  0  0
   63.8630   34.2110   50.8140 C   0  0  0  0  0  0  0  0  0  0  0  0
   64.2710   32.7840   50.8430 N   0  0  0  0  0  0  0  0  0  0  0  0
   64.7510   32.3650   52.1820 C   0  0  0  0  0  0  0  0  0  0  0  0
   66.2760   32.5300   52.3480 C   0  0  0  0  0  0  0  0  0  0  0  0
   66.7750   33.5090   51.4620 O   0  0  0  0  0  0  0  0  0  0  0  0
   66.6580   33.0600   50.1230 C   0  0  0  0  0  0  0  0  0  0  0  0
   65.2740   32.4400   49.8120 C   0  0  0  0  0  0  0  0  0  0  0  0
   60.8790   31.2950   46.7470 C   0  0  0  0  0  0  0  0  0  0  0  0
   60.4030   30.0530   46.3170 C   0  0  0  0  0  0  0  0  0  0  0  0
  1  2  2  0
  2  3  1  0
  3  4  2  0
  4  5  1  0
  5  6  2  0
  6  7  1  0
  6  8  1  0
  8  9  1  0
  9 10  2  0
  9 11  1  0
 11 12  1  0
 12 13  2  0
  3 14  1  0
 14 15  2  0
 15 16  1  0
 15 17  1  0
 17 18  1  0
 18 19  2  0
 19 20  1  0
 20 21  2  0
 21 22  1  0
 22 23  2  0
 22 24  1  0
 24 25  1  0
 25 26  1  0
 26 27  1  0
 27 28  1  0
 28 29  1  0
 29 30  1  0
 30 31  1  0
 31 32  1  0
 21 33  1  0
 33 34  2  0
 17  2  1  0
 34 18  1  0
 12  5  1  0
 32 27  1  0
M  CHG  3   7  -1   8  -1  11  -1
M  END
>  <UniqueID>  (1826) 
6

>  <SMILES>  (1826) 
C=c1/c(=C/c2c([O-])[n-]c(=O)[n-]c2=O)cc(C)n1-c1ccc(C(=O)NCCN2CCOCC2)cc1

>  <Energy>  (1826) 
119.73929422844519

>  <Genealogy>  (1826) 
C=c1c(=Cc2c([O-])[n-]c(=O)[n-]c2=O)cc(C)n1-c1ccc(C(=O)NCCN2CCOCC2)cc1 (protonated)
C=c1/c(=C/c2c([O-])[n-]c(=O)[n-]c2=O)cc(C)n1-c1ccc(C(=O)NCCN2CCOCC2)cc1 (cis-trans isomerization)
C=c1/c(=C/c2c([O-])[n-]c(=O)[n-]c2=O)cc(C)n1-c1ccc(C(=O)NCCN2CCOCC2)cc1 (3D coordinates assigned)
C=c1/c(=C/c2c([O-])[n-]c(=O)[n-]c2=O)cc(C)n1-c1ccc(C(=O)NCCN2CCOCC2)cc1 (nonaromatic ring conformer: 119.73929422844519 kcal/mol)

>  <smiles>  (1826) 
C=c1c(=Cc2c(O)[nH]c(=O)[nH]c2=O)cc(C)n1-c1ccc(C(=O)NCCN2CCOCC2)cc1

>  <score_type>  (1826) 
oracle

>  <origin>  (1826) 
adg

>  <m_score__min__energy>  (1826) 
-15.76

>  <m_primary>  (1826) 
energy

$$$$
13:0
     RDKit          3D

 29 31  0  0  0  0  0  0  0  0999 V2000
   55.0710   26.1070   45.9530 O   0  0  0  0  0  0  0  0  0  0  0  0
   54.8450   24.7870   45.5720 C   0  0  0  0  0  0  0  0  0  0  0  0
   53.7250   24.1440   45.9960 N   0  0  0  0  0  0  0  0  0  0  0  0
   53.4840   22.8540   45.6490 C   0  0  0  0  0  0  0  0  0  0  0  0
   52.4400   22.2800   46.0520 O   0  0  0  0  0  0  0  0  0  0  0  0
   54.3710   22.1800   44.8720 N   0  0  0  0  0  0  0  0  0  0  0  0
   55.5040   22.7790   44.4230 C   0  0  0  0  0  0  0  0  0  0  0  0
   56.3100   22.1240   43.7080 O   0  0  0  0  0  0  0  0  0  0  0  0
   55.7640   24.1180   44.7510 C   0  0  0  0  0  0  0  0  0  0  0  0
   57.0030   24.7820   44.3080 C   0  0  0  0  0  0  0  0  0  0  0  0
   57.6220   25.7670   44.9900 C   0  0  0  0  0  0  0  0  0  0  0  0
   57.9400   25.8390   46.3510 C   0  0  0  0  0  0  0  0  0  0  0  0
   57.6670   24.8330   47.4260 C   0  0  0  0  0  0  0  0  0  0  0  0
   58.5580   27.0080   46.6100 N   0  0  0  0  0  0  0  0  0  0  0  0
   58.6410   27.6920   45.4810 N   0  0  0  0  0  0  0  0  0  0  0  0
   59.2850   29.0060   45.4020 C   0  0  0  0  0  0  0  0  0  0  0  0
   58.4090   30.0610   46.0270 C   0  0  0  0  0  0  0  0  0  0  0  0
   58.7740   30.6020   47.1040 O   0  0  0  0  0  0  0  0  0  0  0  0
   57.1430   30.4290   45.4660 N   0  0  0  0  0  0  0  0  0  0  0  0
   56.9330   31.5320   44.5380 C   0  0  0  0  0  0  0  0  0  0  0  0
   57.7110   32.7280   45.0050 C   0  0  0  0  0  0  0  0  0  0  0  0
   58.5860   33.3900   44.1280 C   0  0  0  0  0  0  0  0  0  0  0  0
   59.3360   34.4830   44.5730 C   0  0  0  0  0  0  0  0  0  0  0  0
   59.2280   34.9150   45.8980 C   0  0  0  0  0  0  0  0  0  0  0  0
   59.9570   35.9740   46.3280 F   0  0  0  0  0  0  0  0  0  0  0  0
   58.3710   34.2500   46.7820 C   0  0  0  0  0  0  0  0  0  0  0  0
   57.6190   33.1570   46.3390 C   0  0  0  0  0  0  0  0  0  0  0  0
   58.0890   26.9770   44.4710 C   0  0  0  0  0  0  0  0  0  0  0  0
   58.0320   27.3880   43.1950 C   0  0  0  0  0  0  0  0  0  0  0  0
  1  2  1  0
  2  3  1  0
  3  4  1  0
  4  5  2  0
  4  6  1  0
  6  7  1  0
  7  8  2  0
  7  9  1  0
  9 10  1  0
 10 11  2  0
 11 12  1  0
 12 13  1  0
 12 14  2  0
 14 15  1  0
 15 16  1  0
 16 17  1  0
 17 18  2  0
 17 19  1  0
 19 20  1  0
 20 21  1  0
 21 22  2  0
 22 23  1  0
 23 24  2  0
 24 25  1  0
 24 26  1  0
 26 27  2  0
 15 28  1  0
 28 29  2  0
  9  2  2  0
 28 11  1  0
 27 21  1  0
M  CHG  3   3  -1   6  -1  19  -1
M  END
>  <UniqueID>  (1827) 
12

>  <SMILES>  (1827) 
C=c1/c(=C/c2c(O)[n-]c(=O)[n-]c2=O)c(C)nn1CC(=O)[N-]Cc1ccc(F)cc1

>  <Energy>  (1827) 
87.54579449553862

>  <Genealogy>  (1827) 
C=c1c(=Cc2c(O)[n-]c(=O)[n-]c2=O)c(C)nn1CC(=O)[N-]Cc1ccc(F)cc1 (protonated)
C=c1/c(=C/c2c(O)[n-]c(=O)[n-]c2=O)c(C)nn1CC(=O)[N-]Cc1ccc(F)cc1 (cis-trans isomerization)
C=c1/c(=C/c2c(O)[n-]c(=O)[n-]c2=O)c(C)nn1CC(=O)[N-]Cc1ccc(F)cc1 (3D coordinates assigned)
C=c1/c(=C/c2c(O)[n-]c(=O)[n-]c2=O)c(C)nn1CC(=O)[N-]Cc1ccc(F)cc1 (optimized conformer: 87.54579449553862 kcal/mol)

>  <smiles>  (1827) 
C=c1c(=Cc2c(O)[nH]c(=O)[nH]c2=O)c(C)nn1CC(=O)NCc1ccc(F)cc1

>  <score_type>  (1827) 
oracle

>  <origin>  (1827) 
adg

>  <m_score__min__energy>  (1827) 
-14.289999999999999

>  <m_primary>  (1827) 
energy

$$$$
30:0
     RDKit          3D

 26 28  0  0  0  0  0  0  0  0999 V2000
   58.3590   30.2120   44.2920 C   0  0  0  0  0  0  0  0  0  0  0  0
   58.3910   29.7710   45.5590 C   0  0  0  0  0  0  0  0  0  0  0  0
   58.0740   28.4810   46.0200 C   0  0  0  0  0  0  0  0  0  0  0  0
   57.5140   27.4280   45.3920 C   0  0  0  0  0  0  0  0  0  0  0  0
   57.1780   26.1330   46.0170 C   0  0  0  0  0  0  0  0  0  0  0  0
   55.8410   25.8000   46.2780 C   0  0  0  0  0  0  0  0  0  0  0  0
   54.8200   26.7030   46.0010 O   0  0  0  0  0  0  0  0  0  0  0  0
   55.5370   24.5910   46.8150 N   0  0  0  0  0  0  0  0  0  0  0  0
   56.5070   23.6820   47.0920 C   0  0  0  0  0  0  0  0  0  0  0  0
   56.2010   22.5700   47.5940 O   0  0  0  0  0  0  0  0  0  0  0  0
   57.8060   23.9700   46.8230 N   0  0  0  0  0  0  0  0  0  0  0  0
   58.1620   25.1660   46.2860 C   0  0  0  0  0  0  0  0  0  0  0  0
   59.3750   25.3900   46.0280 O   0  0  0  0  0  0  0  0  0  0  0  0
   58.4450   28.4450   47.3550 C   0  0  0  0  0  0  0  0  0  0  0  0
   58.9110   29.7020   47.6760 C   0  0  0  0  0  0  0  0  0  0  0  0
   59.4050   30.1040   49.0330 C   0  0  0  0  0  0  0  0  0  0  0  0
   58.8810   30.5060   46.5910 N   0  0  0  0  0  0  0  0  0  0  0  0
   59.3080   31.8800   46.5520 C   0  0  0  0  0  0  0  0  0  0  0  0
   58.3880   32.8990   46.2680 C   0  0  0  0  0  0  0  0  0  0  0  0
   58.8040   34.2300   46.2250 C   0  0  0  0  0  0  0  0  0  0  0  0
   60.1420   34.5550   46.4640 C   0  0  0  0  0  0  0  0  0  0  0  0
   61.0800   33.5470   46.7500 C   0  0  0  0  0  0  0  0  0  0  0  0
   62.4980   33.8840   47.0040 C   0  0  0  0  0  0  0  0  0  0  0  0
   62.8830   34.2010   48.1610 O   0  0  0  0  0  0  0  0  0  0  0  0
   63.4260   33.8560   45.9690 O   0  0  0  0  0  0  0  0  0  0  0  0
   60.6520   32.2070   46.7900 C   0  0  0  0  0  0  0  0  0  0  0  0
  1  2  2  0
  2  3  1  0
  3  4  2  0
  4  5  1  0
  5  6  2  0
  6  7  1  0
  6  8  1  0
  8  9  1  0
  9 10  2  0
  9 11  1  0
 11 12  1  0
 12 13  2  0
  3 14  1  0
 14 15  2  0
 15 16  1  0
 15 17  1  0
 17 18  1  0
 18 19  2  0
 19 20  1  0
 20 21  2  0
 21 22  1  0
 22 23  1  0
 23 24  2  0
 23 25  1  0
 22 26  2  0
 17  2  1  0
 26 18  1  0
 12  5  1  0
M  CHG  4   7  -1   8  -1  11  -1  25  -1
M  END
>  <UniqueID>  (1828) 
29

>  <SMILES>  (1828) 
C=c1/c(=C\c2c([O-])[n-]c(=O)[n-]c2=O)cc(C)n1-c1cccc(C(=O)[O-])c1

>  <Energy>  (1828) 
89.39782844604056

>  <Genealogy>  (1828) 
C=c1c(=Cc2c([O-])[n-]c(=O)[n-]c2=O)cc(C)n1-c1cccc(C(=O)[O-])c1 (protonated)
C=c1/c(=C\c2c([O-])[n-]c(=O)[n-]c2=O)cc(C)n1-c1cccc(C(=O)[O-])c1 (cis-trans isomerization)
C=c1/c(=C\c2c([O-])[n-]c(=O)[n-]c2=O)cc(C)n1-c1cccc(C(=O)[O-])c1 (3D coordinates assigned)
C=c1/c(=C\c2c([O-])[n-]c(=O)[n-]c2=O)cc(C)n1-c1cccc(C(=O)[O-])c1 (optimized conformer: 89.39782844604056 kcal/mol)

>  <smiles>  (1828) 
C=c1c(=Cc2c(O)[nH]c(=O)[nH]c2=O)cc(C)n1-c1cccc(C(=O)O)c1

>  <score_type>  (1828) 
oracle

>  <origin>  (1828) 
adg

>  <m_score__min__energy>  (1828) 
-16.260000000000002

>  <m_primary>  (1828) 
energy

$$$$
33:0
     RDKit          3D

 42 46  0  0  0  0  0  0  0  0999 V2000
   55.1650   29.4790   44.8750 O   0  0  0  0  0  0  0  0  0  0  0  0
   56.3970   29.2220   44.9390 C   0  0  0  0  0  0  0  0  0  0  0  0
   56.8280   27.8230   45.2740 C   0  0  0  0  0  0  0  0  0  0  0  0
   57.4380   27.8050   46.6000 N   0  0  0  0  0  0  0  0  0  0  0  0
   59.1370   27.4670   46.4560 S   0  0  0  0  0  0  0  0  0  0  0  0
   59.4370   26.1430   47.1050 O   0  0  0  0  0  0  0  0  0  0  0  0
   59.5310   27.4080   45.0050 O   0  0  0  0  0  0  0  0  0  0  0  0
   60.0480   28.7490   47.2440 C   0  0  0  0  0  0  0  0  0  0  0  0
   60.4930   29.8460   46.4920 C   0  0  0  0  0  0  0  0  0  0  0  0
   61.2340   30.8640   47.1050 C   0  0  0  0  0  0  0  0  0  0  0  0
   61.5300   30.7890   48.4710 C   0  0  0  0  0  0  0  0  0  0  0  0
   61.0910   29.6940   49.2230 C   0  0  0  0  0  0  0  0  0  0  0  0
   60.3530   28.6750   48.6110 C   0  0  0  0  0  0  0  0  0  0  0  0
   57.3360   30.2670   44.6330 N   0  0  0  0  0  0  0  0  0  0  0  0
   57.4290   31.4360   45.1980 C   0  0  0  0  0  0  0  0  0  0  0  0
   57.9480   31.5260   46.4510 N   0  0  0  0  0  0  0  0  0  0  0  0
   58.0760   32.7200   47.0950 C   0  0  0  0  0  0  0  0  0  0  0  0
   58.6020   32.7410   48.4870 C   0  0  0  0  0  0  0  0  0  0  0  0
   58.4660   31.6290   49.3410 C   0  0  0  0  0  0  0  0  0  0  0  0
   59.0120   31.6490   50.6270 C   0  0  0  0  0  0  0  0  0  0  0  0
   59.7230   32.7680   51.0810 C   0  0  0  0  0  0  0  0  0  0  0  0
   60.3370   32.7680   52.4250 C   0  0  0  0  0  0  0  0  0  0  0  0
   59.6670   33.1940   53.4060 O   0  0  0  0  0  0  0  0  0  0  0  0
   61.6820   32.3000   52.6350 N   0  0  0  0  0  0  0  0  0  0  0  0
   62.5130   32.9310   53.6640 C   0  0  0  0  0  0  0  0  0  0  0  0
   63.9090   32.2900   53.7110 C   0  0  0  0  0  0  0  0  0  0  0  0
   64.4590   32.0460   52.3570 N   0  0  0  0  0  0  0  0  0  0  0  0
   64.9050   33.2840   51.6800 C   0  0  0  0  0  0  0  0  0  0  0  0
   64.2330   33.4450   50.3410 C   0  0  0  0  0  0  0  0  0  0  0  0
   64.7330   32.7630   49.2180 C   0  0  0  0  0  0  0  0  0  0  0  0
   64.1120   32.9060   47.9740 C   0  0  0  0  0  0  0  0  0  0  0  0
   62.9890   33.7260   47.8420 C   0  0  0  0  0  0  0  0  0  0  0  0
   62.4900   34.4140   48.9520 C   0  0  0  0  0  0  0  0  0  0  0  0
   63.1080   34.2750   50.1980 C   0  0  0  0  0  0  0  0  0  0  0  0
   63.5720   31.2210   51.4870 C   0  0  0  0  0  0  0  0  0  0  0  0
   62.1430   31.0500   52.0230 C   0  0  0  0  0  0  0  0  0  0  0  0
   59.8520   33.8830   50.2390 C   0  0  0  0  0  0  0  0  0  0  0  0
   59.3000   33.8690   48.9550 C   0  0  0  0  0  0  0  0  0  0  0  0
   57.6890   33.8930   46.4240 C   0  0  0  0  0  0  0  0  0  0  0  0
   57.1650   33.7870   45.1360 C   0  0  0  0  0  0  0  0  0  0  0  0
   56.8040   34.8180   44.5110 O   0  0  0  0  0  0  0  0  0  0  0  0
   57.0440   32.5690   44.5530 N   0  0  0  0  0  0  0  0  0  0  0  0
  1  2  2  0
  2  3  1  0
  3  4  1  0
  4  5  1  0
  5  6  2  0
  5  7  2  0
  5  8  1  0
  8  9  2  0
  9 10  1  0
 10 11  2  0
 11 12  1  0
 12 13  2  0
  2 14  1  0
 14 15  2  3
 15 16  1  0
 16 17  1  0
 17 18  1  0
 18 19  2  0
 19 20  1  0
 20 21  2  0
 21 22  1  0
 22 23  2  0
 22 24  1  0
 24 25  1  0
 25 26  1  0
 26 27  1  0
 27 28  1  0
 28 29  1  0
 29 30  2  0
 30 31  1  0
 31 32  2  0
 32 33  1  0
 33 34  2  0
 27 35  1  0
 35 36  1  0
 21 37  1  0
 37 38  2  0
 17 39  2  0
 39 40  1  0
 40 41  2  0
 40 42  1  0
 13  8  1  0
 42 15  1  0
 38 18  1  0
 36 24  1  0
 34 29  1  0
M  CHG  3   4  -1  16  -1  42  -1
M  END
>  <UniqueID>  (1829) 
31

>  <SMILES>  (1829) 
O=C(C[N-]S(=O)(=O)c1ccccc1)N=c1[n-]c(-c2ccc(C(=O)N3CCN(Cc4ccccc4)CC3)cc2)cc(=O)[n-]1

>  <Energy>  (1829) 
94.86002911738383

>  <Genealogy>  (1829) 
O=C(C[N-]S(=O)(=O)c1ccccc1)N=c1[n-]c(-c2ccc(C(=O)N3CCN(Cc4ccccc4)CC3)cc2)cc(=O)[n-]1 (protonated)
O=C(C[N-]S(=O)(=O)c1ccccc1)N=c1[n-]c(-c2ccc(C(=O)N3CCN(Cc4ccccc4)CC3)cc2)cc(=O)[n-]1 (3D coordinates assigned)
O=C(C[N-]S(=O)(=O)c1ccccc1)N=c1[n-]c(-c2ccc(C(=O)N3CCN(Cc4ccccc4)CC3)cc2)cc(=O)[n-]1 (nonaromatic ring conformer: 94.86002911738383 kcal/mol)

>  <smiles>  (1829) 
O=C(CNS(=O)(=O)c1ccccc1)N=c1[nH]c(-c2ccc(C(=O)N3CCN(Cc4ccccc4)CC3)cc2)cc(=O)[nH]1

>  <score_type>  (1829) 
oracle

>  <origin>  (1829) 
adg

>  <m_score__min__energy>  (1829) 
-15.75

>  <m_primary>  (1829) 
energy

$$$$
35:0
     RDKit          3D

 30 33  0  0  0  0  0  0  0  0999 V2000
   64.0890   32.9580   48.1400 O   0  0  0  0  0  0  0  0  0  0  0  0
   62.9170   32.3710   48.6470 C   0  0  1  0  0  0  0  0  0  0  0  0
   62.2850   31.4240   47.6140 C   0  0  0  0  0  0  0  0  0  0  0  0
   60.9510   30.8500   48.1370 C   0  0  0  0  0  0  0  0  0  0  0  0
   60.9320   30.6680   49.6130 N   0  0  1  0  0  0  0  0  0  0  0  0
   59.9610   29.6610   50.0020 C   0  0  0  0  0  0  0  0  0  0  0  0
   59.6120   28.7980   49.1480 O   0  0  0  0  0  0  0  0  0  0  0  0
   59.3360   29.5880   51.3550 C   0  0  0  0  0  0  0  0  0  0  0  0
   60.0990   29.5110   52.5360 C   0  0  0  0  0  0  0  0  0  0  0  0
   59.4710   29.4240   53.7810 C   0  0  0  0  0  0  0  0  0  0  0  0
   58.0790   29.4040   53.8670 C   0  0  0  0  0  0  0  0  0  0  0  0
   57.3030   29.4710   52.7030 C   0  0  0  0  0  0  0  0  0  0  0  0
   55.8680   29.4310   52.7850 N   0  0  0  0  0  0  0  0  0  0  0  0
   55.1480   28.4210   53.3220 C   0  0  0  0  0  0  0  0  0  0  0  0
   55.7260   27.1470   53.8560 C   0  0  0  0  0  0  0  0  0  0  0  0
   53.8030   28.7280   53.2980 C   0  0  0  0  0  0  0  0  0  0  0  0
   53.6830   29.9710   52.6970 C   0  0  0  0  0  0  0  0  0  0  0  0
   52.4910   30.5440   52.4460 C   0  0  0  0  0  0  0  0  0  0  0  0
   51.9620   30.8740   51.1130 C   0  0  0  0  0  0  0  0  0  0  0  0
   51.9310   30.0230   50.0700 N   0  0  0  0  0  0  0  0  0  0  0  0
   51.2380   30.7060   49.1330 C   0  0  0  0  0  0  0  0  0  0  0  0
   51.0080   30.2400   47.9870 O   0  0  0  0  0  0  0  0  0  0  0  0
   50.8020   31.9230   49.5240 N   0  0  0  0  0  0  0  0  0  0  0  0
   51.2570   32.0050   50.7840 C   0  0  0  0  0  0  0  0  0  0  0  0
   51.0260   33.0900   51.6200 O   0  0  0  0  0  0  0  0  0  0  0  0
   54.9920   30.4050   52.4280 C   0  0  0  0  0  0  0  0  0  0  0  0
   55.3750   31.6150   51.9950 C   0  0  0  0  0  0  0  0  0  0  0  0
   57.9330   29.5520   51.4540 C   0  0  0  0  0  0  0  0  0  0  0  0
   62.2710   30.4310   50.1990 C   0  0  0  0  0  0  0  0  0  0  0  0
   63.1960   31.6470   49.9840 C   0  0  0  0  0  0  0  0  0  0  0  0
  2  1  1  6
  2  3  1  0
  3  4  1  0
  4  5  1  0
  5  6  1  6
  6  7  2  0
  6  8  1  0
  8  9  2  0
  9 10  1  0
 10 11  2  0
 11 12  1  0
 12 13  1  0
 13 14  1  0
 14 15  1  0
 14 16  2  0
 16 17  1  0
 17 18  2  0
 18 19  1  0
 19 20  1  0
 20 21  1  0
 21 22  2  0
 21 23  1  0
 23 24  1  0
 24 25  1  0
 17 26  1  0
 26 27  2  0
 12 28  2  0
  5 29  1  0
 29 30  1  0
 30  2  1  0
 28  8  1  0
 26 13  1  0
 24 19  2  0
M  CHG  4   5   1  20  -1  23  -1  25  -1
M  END
>  <UniqueID>  (1830) 
33

>  <SMILES>  (1830) 
C=c1/c(=C\c2[n-]c(=O)[n-]c2[O-])cc(C)n1-c1cccc(C(=O)[NH+]2CCC(O)CC2)c1

>  <Energy>  (1830) 
145.31164429040794

>  <Genealogy>  (1830) 
C=c1c(=Cc2[n-]c(=O)[n-]c2[O-])cc(C)n1-c1cccc(C(=O)[NH+]2CCC(O)CC2)c1 (protonated)
C=c1/c(=C\c2[n-]c(=O)[n-]c2[O-])cc(C)n1-c1cccc(C(=O)[NH+]2CCC(O)CC2)c1 (cis-trans isomerization)
C=c1/c(=C\c2[n-]c(=O)[n-]c2[O-])cc(C)n1-c1cccc(C(=O)[NH+]2CCC(O)CC2)c1 (3D coordinates assigned)
C=c1/c(=C\c2[n-]c(=O)[n-]c2[O-])cc(C)n1-c1cccc(C(=O)[NH+]2CCC(O)CC2)c1 (nonaromatic ring conformer: 145.31164429040794 kcal/mol)

>  <smiles>  (1830) 
C=c1c(=Cc2[nH]c(=O)[nH]c2O)cc(C)n1-c1cccc(C(=O)N2CCC(O)CC2)c1

>  <score_type>  (1830) 
oracle

>  <origin>  (1830) 
adg

>  <m_score__min__energy>  (1830) 
-15.859999999999999

>  <m_primary>  (1830) 
energy

$$$$
47:0
     RDKit          3D

 29 31  0  0  0  0  0  0  0  0999 V2000
   60.3450   29.7160   46.2700 C   0  0  0  0  0  0  0  0  0  0  0  0
   59.4480   30.6390   45.8880 C   0  0  0  0  0  0  0  0  0  0  0  0
   58.4160   30.4940   44.9460 C   0  0  0  0  0  0  0  0  0  0  0  0
   57.9440   29.4020   44.3120 C   0  0  0  0  0  0  0  0  0  0  0  0
   57.3940   28.2000   44.9680 C   0  0  0  0  0  0  0  0  0  0  0  0
   56.0240   28.1130   45.2520 C   0  0  0  0  0  0  0  0  0  0  0  0
   55.1560   29.1320   44.8730 O   0  0  0  0  0  0  0  0  0  0  0  0
   55.5320   27.0220   45.8940 N   0  0  0  0  0  0  0  0  0  0  0  0
   56.3490   26.0110   46.2850 C   0  0  0  0  0  0  0  0  0  0  0  0
   55.8700   25.0090   46.8750 O   0  0  0  0  0  0  0  0  0  0  0  0
   57.6830   26.0850   46.0480 N   0  0  0  0  0  0  0  0  0  0  0  0
   58.2250   27.1550   45.4100 C   0  0  0  0  0  0  0  0  0  0  0  0
   59.4710   27.1990   45.2260 O   0  0  0  0  0  0  0  0  0  0  0  0
   57.8870   31.7600   44.7520 C   0  0  0  0  0  0  0  0  0  0  0  0
   58.5570   32.6100   45.6060 C   0  0  0  0  0  0  0  0  0  0  0  0
   58.3070   34.0820   45.7250 C   0  0  0  0  0  0  0  0  0  0  0  0
   59.4980   31.9320   46.2960 N   0  0  0  0  0  0  0  0  0  0  0  0
   60.4110   32.5090   47.2460 C   0  0  0  0  0  0  0  0  0  0  0  0
   61.7050   32.8500   46.8340 C   0  0  0  0  0  0  0  0  0  0  0  0
   62.6140   33.3980   47.7380 C   0  0  0  0  0  0  0  0  0  0  0  0
   62.2430   33.6230   49.0730 C   0  0  0  0  0  0  0  0  0  0  0  0
   63.2230   34.1960   50.0230 C   0  0  0  0  0  0  0  0  0  0  0  0
   63.0300   35.3510   50.4890 O   0  0  0  0  0  0  0  0  0  0  0  0
   64.3760   33.4660   50.4540 N   0  0  0  0  0  0  0  0  0  0  0  0
   65.1330   32.7200   49.6060 O   0  0  0  0  0  0  0  0  0  0  0  0
   66.4360   32.7310   50.1270 C   0  0  0  0  0  0  0  0  0  0  0  0
   60.9480   33.2700   49.4910 C   0  0  0  0  0  0  0  0  0  0  0  0
   60.0210   32.7340   48.5830 C   0  0  0  0  0  0  0  0  0  0  0  0
   58.6420   32.3640   49.0570 C   0  0  0  0  0  0  0  0  0  0  0  0
  1  2  2  0
  2  3  1  0
  3  4  2  3
  4  5  1  0
  5  6  2  0
  6  7  1  0
  6  8  1  0
  8  9  1  0
  9 10  2  0
  9 11  1  0
 11 12  1  0
 12 13  2  0
  3 14  1  0
 14 15  2  0
 15 16  1  0
 15 17  1  0
 17 18  1  0
 18 19  2  0
 19 20  1  0
 20 21  2  0
 21 22  1  0
 22 23  2  0
 22 24  1  0
 24 25  1  0
 25 26  1  0
 21 27  1  0
 27 28  2  0
 28 29  1  0
 17  2  1  0
 28 18  1  0
 12  5  1  0
M  CHG  4   7  -1   8  -1  11  -1  24  -1
M  END
>  <UniqueID>  (1831) 
43

>  <SMILES>  (1831) 
C=c1c(=Cc2c([O-])[n-]c(=O)[n-]c2=O)cc(C)n1-c1ccc(C(=O)[N-]OC)cc1C

>  <Energy>  (1831) 
97.52087798455157

>  <Genealogy>  (1831) 
C=c1c(=Cc2c([O-])[n-]c(=O)[n-]c2=O)cc(C)n1-c1ccc(C(=O)[N-]OC)cc1C (protonated)
C=c1c(=Cc2c([O-])[n-]c(=O)[n-]c2=O)cc(C)n1-c1ccc(C(=O)[N-]OC)cc1C (3D coordinates assigned)
C=c1c(=Cc2c([O-])[n-]c(=O)[n-]c2=O)cc(C)n1-c1ccc(C(=O)[N-]OC)cc1C (optimized conformer: 97.52087798455157 kcal/mol)

>  <smiles>  (1831) 
C=c1c(=Cc2c(O)[nH]c(=O)[nH]c2=O)cc(C)n1-c1ccc(C(=O)NOC)cc1C

>  <score_type>  (1831) 
oracle

>  <origin>  (1831) 
adg

>  <m_score__min__energy>  (1831) 
-16.02

>  <m_primary>  (1831) 
energy

$$$$
64:0
     RDKit          3D

 26 28  0  0  0  0  0  0  0  0999 V2000
   58.6560   29.0050   47.3090 C   0  0  0  0  0  0  0  0  0  0  0  0
   58.2740   29.6650   46.2040 C   0  0  0  0  0  0  0  0  0  0  0  0
   57.5220   29.1680   45.1250 C   0  0  0  0  0  0  0  0  0  0  0  0
   57.0800   27.9250   44.8460 C   0  0  0  0  0  0  0  0  0  0  0  0
   57.1800   26.7560   45.7410 C   0  0  0  0  0  0  0  0  0  0  0  0
   56.0230   26.1710   46.2730 C   0  0  0  0  0  0  0  0  0  0  0  0
   54.7700   26.7140   46.0090 O   0  0  0  0  0  0  0  0  0  0  0  0
   56.1210   25.0690   47.0620 N   0  0  0  0  0  0  0  0  0  0  0  0
   57.3260   24.5080   47.3340 C   0  0  0  0  0  0  0  0  0  0  0  0
   57.3940   23.4900   48.0710 O   0  0  0  0  0  0  0  0  0  0  0  0
   58.4600   25.0410   46.8090 N   0  0  0  0  0  0  0  0  0  0  0  0
   58.4140   26.1410   46.0140 C   0  0  0  0  0  0  0  0  0  0  0  0
   59.4830   26.5990   45.5280 O   0  0  0  0  0  0  0  0  0  0  0  0
   57.2890   30.2450   44.2860 C   0  0  0  0  0  0  0  0  0  0  0  0
   57.9210   31.3350   44.8460 C   0  0  0  0  0  0  0  0  0  0  0  0
   57.9460   32.7090   44.2470 C   0  0  0  0  0  0  0  0  0  0  0  0
   58.5260   30.9850   46.0010 N   0  0  0  0  0  0  0  0  0  0  0  0
   59.2420   31.8820   46.8690 C   0  0  0  0  0  0  0  0  0  0  0  0
   58.5560   32.5930   47.8590 C   0  0  0  0  0  0  0  0  0  0  0  0
   59.2510   33.4530   48.7100 C   0  0  0  0  0  0  0  0  0  0  0  0
   60.6330   33.6080   48.5780 C   0  0  0  0  0  0  0  0  0  0  0  0
   61.3490   32.8970   47.5920 C   0  0  0  0  0  0  0  0  0  0  0  0
   62.7860   33.0520   47.4550 N   0  0  0  0  0  0  0  0  0  0  0  0
   63.6990   32.4290   48.4220 C   0  0  0  0  0  0  0  0  0  0  0  0
   63.3520   33.8370   46.3510 C   0  0  0  0  0  0  0  0  0  0  0  0
   60.6310   32.0290   46.7410 C   0  0  0  0  0  0  0  0  0  0  0  0
  1  2  2  0
  2  3  1  0
  3  4  2  3
  4  5  1  0
  5  6  2  0
  6  7  1  0
  6  8  1  0
  8  9  1  0
  9 10  2  0
  9 11  1  0
 11 12  1  0
 12 13  2  0
  3 14  1  0
 14 15  2  0
 15 16  1  0
 15 17  1  0
 17 18  1  0
 18 19  2  0
 19 20  1  0
 20 21  2  0
 21 22  1  0
 22 23  1  0
 23 24  1  0
 23 25  1  0
 22 26  2  0
 17  2  1  0
 26 18  1  0
 12  5  1  0
M  CHG  3   7  -1   8  -1  11  -1
M  END
>  <UniqueID>  (1832) 
60

>  <SMILES>  (1832) 
C=c1c(=Cc2c([O-])[n-]c(=O)[n-]c2=O)cc(C)n1-c1cccc(N(C)C)c1

>  <Energy>  (1832) 
95.8992322127558

>  <Genealogy>  (1832) 
C=c1c(=Cc2c([O-])[n-]c(=O)[n-]c2=O)cc(C)n1-c1cccc(N(C)C)c1 (protonated)
C=c1c(=Cc2c([O-])[n-]c(=O)[n-]c2=O)cc(C)n1-c1cccc(N(C)C)c1 (3D coordinates assigned)
C=c1c(=Cc2c([O-])[n-]c(=O)[n-]c2=O)cc(C)n1-c1cccc(N(C)C)c1 (optimized conformer: 95.8992322127558 kcal/mol)

>  <smiles>  (1832) 
C=c1c(=Cc2c(O)[nH]c(=O)[nH]c2=O)cc(C)n1-c1cccc(N(C)C)c1

>  <score_type>  (1832) 
oracle

>  <origin>  (1832) 
adg

>  <m_score__min__energy>  (1832) 
-15.76

>  <m_primary>  (1832) 
energy

$$$$
65:0
     RDKit          3D

 33 36  0  0  0  0  0  0  0  0999 V2000
   54.1840   25.7270   45.6210 O   0  0  0  0  0  0  0  0  0  0  0  0
   53.8170   24.3840   45.6640 C   0  0  0  0  0  0  0  0  0  0  0  0
   52.5000   24.0460   45.6890 N   0  0  0  0  0  0  0  0  0  0  0  0
   52.1100   22.7470   45.7060 C   0  0  0  0  0  0  0  0  0  0  0  0
   50.8850   22.4590   45.7340 O   0  0  0  0  0  0  0  0  0  0  0  0
   53.0390   21.7570   45.6870 N   0  0  0  0  0  0  0  0  0  0  0  0
   54.3670   22.0410   45.6630 C   0  0  0  0  0  0  0  0  0  0  0  0
   55.2010   21.0980   45.6360 O   0  0  0  0  0  0  0  0  0  0  0  0
   54.7970   23.3770   45.6760 C   0  0  0  0  0  0  0  0  0  0  0  0
   56.2340   23.7060   45.6070 C   0  0  0  0  0  0  0  0  0  0  0  0
   56.7570   24.8270   45.0720 C   0  0  0  0  0  0  0  0  0  0  0  0
   57.2310   24.8840   43.7700 C   0  0  0  0  0  0  0  0  0  0  0  0
   57.6190   26.1860   43.5410 C   0  0  0  0  0  0  0  0  0  0  0  0
   58.1650   26.7020   42.2450 C   0  0  0  0  0  0  0  0  0  0  0  0
   57.4430   26.9310   44.6550 N   0  0  0  0  0  0  0  0  0  0  0  0
   57.7520   28.3280   44.7850 C   0  0  0  0  0  0  0  0  0  0  0  0
   59.0890   28.7470   44.8000 C   0  0  0  0  0  0  0  0  0  0  0  0
   59.4020   30.1020   44.9330 C   0  0  0  0  0  0  0  0  0  0  0  0
   58.3810   31.0600   45.0400 C   0  0  0  0  0  0  0  0  0  0  0  0
   58.7060   32.4950   45.1950 C   0  0  0  0  0  0  0  0  0  0  0  0
   58.8900   33.1960   44.1630 O   0  0  0  0  0  0  0  0  0  0  0  0
   58.8340   33.1000   46.4970 N   0  0  0  0  0  0  0  0  0  0  0  0
   59.5170   32.3840   47.5820 C   0  0  0  0  0  0  0  0  0  0  0  0
   60.1370   33.3750   48.5830 C   0  0  0  0  0  0  0  0  0  0  0  0
   60.7240   34.5500   47.9040 N   0  0  0  0  0  0  0  0  0  0  0  0
   61.9260   34.1910   47.1300 C   0  0  0  0  0  0  0  0  0  0  0  0
   59.7460   35.3130   47.0830 C   0  0  0  0  0  0  0  0  0  0  0  0
   58.4910   34.5090   46.6980 C   0  0  0  0  0  0  0  0  0  0  0  0
   57.0420   30.6370   45.0350 C   0  0  0  0  0  0  0  0  0  0  0  0
   56.7270   29.2800   44.8980 C   0  0  0  0  0  0  0  0  0  0  0  0
   55.3940   28.8850   44.8640 O   0  0  0  0  0  0  0  0  0  0  0  0
   56.9330   26.1140   45.6110 C   0  0  0  0  0  0  0  0  0  0  0  0
   56.7530   26.5000   46.8840 C   0  0  0  0  0  0  0  0  0  0  0  0
  1  2  1  0
  2  3  1  0
  3  4  1  0
  4  5  2  0
  4  6  1  0
  6  7  1  0
  7  8  2  0
  7  9  1  0
  9 10  1  0
 10 11  2  0
 11 12  1  0
 12 13  2  0
 13 14  1  0
 13 15  1  0
 15 16  1  0
 16 17  2  0
 17 18  1  0
 18 19  2  0
 19 20  1  0
 20 21  2  0
 20 22  1  0
 22 23  1  0
 23 24  1  0
 24 25  1  0
 25 26  1  0
 25 27  1  0
 27 28  1  0
 19 29  1  0
 29 30  2  0
 30 31  1  0
 15 32  1  0
 32 33  2  0
  9  2  2  0
 32 11  1  0
 30 16  1  0
 28 22  1  0
M  CHG  3   3  -1   6  -1  31  -1
M  END
>  <UniqueID>  (1833) 
61

>  <SMILES>  (1833) 
C=c1/c(=C\c2c(O)[n-]c(=O)[n-]c2=O)cc(C)n1-c1ccc(C(=O)N2CCN(C)CC2)cc1[O-]

>  <Energy>  (1833) 
119.937144775813

>  <Genealogy>  (1833) 
C=c1c(=Cc2c(O)[n-]c(=O)[n-]c2=O)cc(C)n1-c1ccc(C(=O)N2CCN(C)CC2)cc1[O-] (protonated)
C=c1/c(=C\c2c(O)[n-]c(=O)[n-]c2=O)cc(C)n1-c1ccc(C(=O)N2CCN(C)CC2)cc1[O-] (cis-trans isomerization)
C=c1/c(=C\c2c(O)[n-]c(=O)[n-]c2=O)cc(C)n1-c1ccc(C(=O)N2CCN(C)CC2)cc1[O-] (3D coordinates assigned)
C=c1/c(=C\c2c(O)[n-]c(=O)[n-]c2=O)cc(C)n1-c1ccc(C(=O)N2CCN(C)CC2)cc1[O-] (nonaromatic ring conformer: 119.937144775813 kcal/mol)

>  <smiles>  (1833) 
C=c1c(=Cc2c(O)[nH]c(=O)[nH]c2=O)cc(C)n1-c1ccc(C(=O)N2CCN(C)CC2)cc1O

>  <score_type>  (1833) 
oracle

>  <origin>  (1833) 
adg

>  <m_score__min__energy>  (1833) 
-15.94

>  <m_primary>  (1833) 
energy

$$$$
69:0
     RDKit          3D

 32 35  0  0  0  0  0  0  0  0999 V2000
   59.3580   29.4810   45.0230 C   0  0  0  0  0  0  0  0  0  0  0  0
   59.3850   28.9510   46.2560 C   0  0  0  0  0  0  0  0  0  0  0  0
   58.8250   27.7270   46.6510 C   0  0  0  0  0  0  0  0  0  0  0  0
   58.2000   26.8310   45.8560 C   0  0  0  0  0  0  0  0  0  0  0  0
   57.3740   25.6940   46.3190 C   0  0  0  0  0  0  0  0  0  0  0  0
   57.8340   24.5220   46.7960 N   0  0  0  0  0  0  0  0  0  0  0  0
   56.7100   23.8450   47.1120 C   0  0  0  0  0  0  0  0  0  0  0  0
   56.7320   22.6820   47.5930 O   0  0  0  0  0  0  0  0  0  0  0  0
   55.5610   24.5120   46.8760 N   0  0  0  0  0  0  0  0  0  0  0  0
   55.9990   25.6800   46.3790 C   0  0  0  0  0  0  0  0  0  0  0  0
   55.1590   26.7160   45.9890 O   0  0  0  0  0  0  0  0  0  0  0  0
   59.0580   27.6210   48.0170 C   0  0  0  0  0  0  0  0  0  0  0  0
   59.7470   28.7580   48.3940 C   0  0  0  0  0  0  0  0  0  0  0  0
   60.2030   29.0520   49.7910 C   0  0  0  0  0  0  0  0  0  0  0  0
   59.9400   29.5670   47.3300 N   0  0  0  0  0  0  0  0  0  0  0  0
   60.6300   30.8290   47.3510 C   0  0  0  0  0  0  0  0  0  0  0  0
   62.0110   30.8830   47.1120 C   0  0  0  0  0  0  0  0  0  0  0  0
   62.6840   32.1060   47.1540 C   0  0  0  0  0  0  0  0  0  0  0  0
   61.9840   33.2830   47.4310 C   0  0  0  0  0  0  0  0  0  0  0  0
   60.5990   33.2460   47.6560 C   0  0  0  0  0  0  0  0  0  0  0  0
   59.8500   34.4800   47.9640 C   0  0  0  0  0  0  0  0  0  0  0  0
   59.9300   34.9710   49.1210 O   0  0  0  0  0  0  0  0  0  0  0  0
   59.0020   35.1180   47.0000 N   0  0  0  0  0  0  0  0  0  0  0  0
   59.2100   35.0830   45.5580 C   0  0  0  0  0  0  0  0  0  0  0  0
   58.5100   33.8840   44.9850 C   0  0  0  0  0  0  0  0  0  0  0  0
   58.7790   33.4710   43.6690 C   0  0  0  0  0  0  0  0  0  0  0  0
   58.1520   32.3360   43.1470 C   0  0  0  0  0  0  0  0  0  0  0  0
   57.2630   31.5990   43.9350 C   0  0  0  0  0  0  0  0  0  0  0  0
   56.4790   30.1750   43.2770 Cl  0  0  0  0  0  0  0  0  0  0  0  0
   57.0040   31.9960   45.2510 C   0  0  0  0  0  0  0  0  0  0  0  0
   57.6300   33.1310   45.7780 C   0  0  0  0  0  0  0  0  0  0  0  0
   59.9300   32.0120   47.6330 C   0  0  0  0  0  0  0  0  0  0  0  0
  1  2  2  0
  2  3  1  0
  3  4  2  3
  4  5  1  0
  5  6  1  0
  6  7  1  0
  7  8  2  0
  7  9  1  0
  9 10  1  0
 10 11  1  0
  3 12  1  0
 12 13  2  0
 13 14  1  0
 13 15  1  0
 15 16  1  0
 16 17  2  0
 17 18  1  0
 18 19  2  0
 19 20  1  0
 20 21  1  0
 21 22  2  0
 21 23  1  0
 23 24  1  0
 24 25  1  0
 25 26  2  0
 26 27  1  0
 27 28  2  0
 28 29  1  0
 28 30  1  0
 30 31  2  0
 20 32  2  0
 15  2  1  0
 32 16  1  0
 10  5  2  0
 31 25  1  0
M  CHG  4   6  -1   9  -1  11  -1  23  -1
M  END
>  <UniqueID>  (1834) 
65

>  <SMILES>  (1834) 
C=c1c(=Cc2[n-]c(=O)[n-]c2[O-])cc(C)n1-c1cccc(C(=O)[N-]Cc2ccc(Cl)cc2)c1

>  <Energy>  (1834) 
124.84732345803948

>  <Genealogy>  (1834) 
C=c1c(=Cc2[n-]c(=O)[n-]c2[O-])cc(C)n1-c1cccc(C(=O)[N-]Cc2ccc(Cl)cc2)c1 (protonated)
C=c1c(=Cc2[n-]c(=O)[n-]c2[O-])cc(C)n1-c1cccc(C(=O)[N-]Cc2ccc(Cl)cc2)c1 (3D coordinates assigned)
C=c1c(=Cc2[n-]c(=O)[n-]c2[O-])cc(C)n1-c1cccc(C(=O)[N-]Cc2ccc(Cl)cc2)c1 (optimized conformer: 124.84732345803948 kcal/mol)

>  <smiles>  (1834) 
C=c1c(=Cc2[nH]c(=O)[nH]c2O)cc(C)n1-c1cccc(C(=O)NCc2ccc(Cl)cc2)c1

>  <score_type>  (1834) 
oracle

>  <origin>  (1834) 
adg

>  <m_score__min__energy>  (1834) 
-18.420000000000002

>  <m_primary>  (1834) 
energy

$$$$
77:0
     RDKit          3D

 29 32  0  0  0  0  0  0  0  0999 V2000
   57.3720   25.0320   44.2360 C   0  0  0  0  0  0  0  0  0  0  0  0
   57.6160   25.2410   45.5380 C   0  0  0  0  0  0  0  0  0  0  0  0
   56.8970   24.7560   46.6420 C   0  0  0  0  0  0  0  0  0  0  0  0
   55.9170   23.8360   46.7060 C   0  0  0  0  0  0  0  0  0  0  0  0
   54.6330   23.8930   45.9880 C   0  0  0  0  0  0  0  0  0  0  0  0
   53.8440   22.8370   45.7250 N   0  0  0  0  0  0  0  0  0  0  0  0
   52.7250   23.3720   45.2010 C   0  0  0  0  0  0  0  0  0  0  0  0
   51.7450   22.6780   44.8220 O   0  0  0  0  0  0  0  0  0  0  0  0
   52.7380   24.7200   45.1310 N   0  0  0  0  0  0  0  0  0  0  0  0
   53.9440   25.0330   45.6460 C   0  0  0  0  0  0  0  0  0  0  0  0
   54.3990   26.3350   45.8080 O   0  0  0  0  0  0  0  0  0  0  0  0
   57.3450   25.3670   47.7590 N   0  0  0  0  0  0  0  0  0  0  0  0
   58.3420   26.1620   47.3330 C   0  0  0  0  0  0  0  0  0  0  0  0
   59.0100   26.8930   48.1110 O   0  0  0  0  0  0  0  0  0  0  0  0
   58.5510   26.1050   46.0000 N   0  0  0  0  0  0  0  0  0  0  0  0
   59.5050   26.9210   45.2360 C   0  0  0  0  0  0  0  0  0  0  0  0
   59.2790   28.3890   45.4940 C   0  0  0  0  0  0  0  0  0  0  0  0
   60.2750   29.1590   46.1130 C   0  0  0  0  0  0  0  0  0  0  0  0
   60.0680   30.5180   46.3610 C   0  0  0  0  0  0  0  0  0  0  0  0
   58.8630   31.1340   45.9860 C   0  0  0  0  0  0  0  0  0  0  0  0
   58.6410   32.5330   46.2570 N   0  0  0  0  0  0  0  0  0  0  0  0
   59.1640   33.1300   47.4960 C   0  0  0  0  0  0  0  0  0  0  0  0
   59.1800   34.6640   47.4210 C   0  0  0  0  0  0  0  0  0  0  0  0
   59.6730   35.1230   46.0430 C   0  0  0  0  0  0  0  0  0  0  0  0
   59.7050   36.5070   46.0030 F   0  0  0  0  0  0  0  0  0  0  0  0
   58.7890   34.5870   44.8910 C   0  0  0  0  0  0  0  0  0  0  0  0
   57.9250   33.3820   45.2970 C   0  0  0  0  0  0  0  0  0  0  0  0
   57.8660   30.3630   45.3670 C   0  0  0  0  0  0  0  0  0  0  0  0
   58.0750   29.0040   45.1170 C   0  0  0  0  0  0  0  0  0  0  0  0
  1  2  2  0
  2  3  1  0
  3  4  2  3
  4  5  1  0
  5  6  1  0
  6  7  1  0
  7  8  2  0
  7  9  1  0
  9 10  1  0
 10 11  1  0
  3 12  1  0
 12 13  1  0
 13 14  2  0
 13 15  1  0
 15 16  1  0
 16 17  1  0
 17 18  2  0
 18 19  1  0
 19 20  2  0
 20 21  1  0
 21 22  1  0
 22 23  1  0
 23 24  1  0
 24 25  1  0
 24 26  1  0
 26 27  1  0
 20 28  1  0
 28 29  2  0
 15  2  1  0
 29 17  1  0
 10  5  2  0
 27 21  1  0
M  CHG  3   9  -1  11  -1  12  -1
M  END
>  <UniqueID>  (1835) 
72

>  <SMILES>  (1835) 
C=c1c(=Cc2[nH]c(=O)[n-]c2[O-])[n-]c(=O)n1Cc1ccc(N2CCC(F)CC2)cc1

>  <Energy>  (1835) 
130.37616515351917

>  <Genealogy>  (1835) 
C=c1c(=Cc2[nH]c(=O)[n-]c2[O-])[n-]c(=O)n1Cc1ccc(N2CCC(F)CC2)cc1 (protonated)
C=c1c(=Cc2[nH]c(=O)[n-]c2[O-])[n-]c(=O)n1Cc1ccc(N2CCC(F)CC2)cc1 (3D coordinates assigned)
C=c1c(=Cc2[nH]c(=O)[n-]c2[O-])[n-]c(=O)n1Cc1ccc(N2CCC(F)CC2)cc1 (nonaromatic ring conformer: 130.37616515351917 kcal/mol)

>  <smiles>  (1835) 
C=c1c(=Cc2[nH]c(=O)[nH]c2O)[nH]c(=O)n1Cc1ccc(N2CCC(F)CC2)cc1

>  <score_type>  (1835) 
oracle

>  <origin>  (1835) 
adg

>  <m_score__min__energy>  (1835) 
-15.18

>  <m_primary>  (1835) 
energy

$$$$
83:0
     RDKit          3D

 34 37  0  0  0  0  0  0  0  0999 V2000
   60.6600   27.0950   48.2620 C   0  0  0  0  0  0  0  0  0  0  0  0
   59.8710   28.1680   48.0990 C   0  0  0  0  0  0  0  0  0  0  0  0
   58.7850   28.2960   47.2170 C   0  0  0  0  0  0  0  0  0  0  0  0
   58.3370   27.4910   46.2340 C   0  0  0  0  0  0  0  0  0  0  0  0
   57.1130   26.6750   46.2790 C   0  0  0  0  0  0  0  0  0  0  0  0
   57.0710   25.3790   46.6390 N   0  0  0  0  0  0  0  0  0  0  0  0
   55.7940   25.0240   46.3770 C   0  0  0  0  0  0  0  0  0  0  0  0
   55.3510   23.8670   46.6010 O   0  0  0  0  0  0  0  0  0  0  0  0
   55.0330   26.0030   45.8420 N   0  0  0  0  0  0  0  0  0  0  0  0
   55.8880   27.0350   45.7750 C   0  0  0  0  0  0  0  0  0  0  0  0
   55.5590   28.2800   45.2530 O   0  0  0  0  0  0  0  0  0  0  0  0
   58.2040   29.5230   47.4960 C   0  0  0  0  0  0  0  0  0  0  0  0
   58.9660   30.1150   48.4790 C   0  0  0  0  0  0  0  0  0  0  0  0
   58.7600   31.5140   48.9800 C   0  0  0  0  0  0  0  0  0  0  0  0
   59.9710   29.2920   48.8570 N   0  0  0  0  0  0  0  0  0  0  0  0
   60.9420   29.5790   49.8830 C   0  0  0  0  0  0  0  0  0  0  0  0
   60.8500   28.9020   51.1100 C   0  0  0  0  0  0  0  0  0  0  0  0
   61.7490   29.1790   52.1420 C   0  0  0  0  0  0  0  0  0  0  0  0
   62.7450   30.1380   51.9630 C   0  0  0  0  0  0  0  0  0  0  0  0
   62.8520   30.8190   50.7490 C   0  0  0  0  0  0  0  0  0  0  0  0
   61.9680   30.5380   49.6930 C   0  0  0  0  0  0  0  0  0  0  0  0
   62.1170   31.2860   48.4240 C   0  0  0  0  0  0  0  0  0  0  0  0
   62.2540   30.6430   47.3490 O   0  0  0  0  0  0  0  0  0  0  0  0
   62.0850   32.7230   48.3940 N   0  0  0  0  0  0  0  0  0  0  0  0
   61.0230   33.4460   49.1090 C   0  0  0  0  0  0  0  0  0  0  0  0
   60.4790   34.6110   48.2630 C   0  0  0  0  0  0  0  0  0  0  0  0
   60.5230   34.2730   46.7580 C   0  0  0  0  0  0  0  0  0  0  0  0
   59.7410   33.0650   46.4660 N   0  0  0  0  0  0  0  0  0  0  0  0
   58.1710   33.4180   45.7940 S   0  0  0  0  0  0  0  0  0  0  0  0
   57.6990   32.1110   44.6820 C   0  0  0  0  0  0  0  0  0  0  0  0
   58.2540   34.7030   45.0200 O   0  0  0  0  0  0  0  0  0  0  0  0
   57.1250   33.5620   46.8670 O   0  0  0  0  0  0  0  0  0  0  0  0
   61.9860   34.0450   46.3030 C   0  0  0  0  0  0  0  0  0  0  0  0
   62.8860   33.4540   47.4080 C   0  0  0  0  0  0  0  0  0  0  0  0
  1  2  2  0
  2  3  1  0
  3  4  2  3
  4  5  1  0
  5  6  1  0
  6  7  1  0
  7  8  2  0
  7  9  1  0
  9 10  1  0
 10 11  1  0
  3 12  1  0
 12 13  2  0
 13 14  1  0
 13 15  1  0
 15 16  1  0
 16 17  2  0
 17 18  1  0
 18 19  2  0
 19 20  1  0
 20 21  2  0
 21 22  1  0
 22 23  2  0
 22 24  1  0
 24 25  1  0
 25 26  1  0
 26 27  1  0
 27 28  1  0
 28 29  1  0
 29 30  1  0
 29 31  2  0
 29 32  2  0
 27 33  1  0
 33 34  1  0
 15  2  1  0
 21 16  1  0
 34 24  1  0
 10  5  2  0
M  CHG  4   6  -1   9  -1  11  -1  28  -1
M  END
>  <UniqueID>  (1836) 
78

>  <SMILES>  (1836) 
C=c1c(=Cc2[n-]c(=O)[n-]c2[O-])cc(C)n1-c1ccccc1C(=O)N1CCC([N-]S(C)(=O)=O)CC1

>  <Energy>  (1836) 
139.06933366854597

>  <Genealogy>  (1836) 
C=c1c(=Cc2[n-]c(=O)[n-]c2[O-])cc(C)n1-c1ccccc1C(=O)N1CCC([N-]S(C)(=O)=O)CC1 (protonated)
C=c1c(=Cc2[n-]c(=O)[n-]c2[O-])cc(C)n1-c1ccccc1C(=O)N1CCC([N-]S(C)(=O)=O)CC1 (3D coordinates assigned)
C=c1c(=Cc2[n-]c(=O)[n-]c2[O-])cc(C)n1-c1ccccc1C(=O)N1CCC([N-]S(C)(=O)=O)CC1 (nonaromatic ring conformer: 139.06933366854597 kcal/mol)

>  <smiles>  (1836) 
C=c1c(=Cc2[nH]c(=O)[nH]c2O)cc(C)n1-c1ccccc1C(=O)N1CCC(NS(C)(=O)=O)CC1

>  <score_type>  (1836) 
oracle

>  <origin>  (1836) 
adg

>  <m_score__min__energy>  (1836) 
-17.699999999999999

>  <m_primary>  (1836) 
energy

$$$$
85:0
     RDKit          3D

 29 32  0  0  0  0  0  0  0  0999 V2000
   52.6450   27.7600   53.0340 C   0  0  0  0  0  0  0  0  0  0  0  0
   53.6130   28.6680   53.2140 C   0  0  0  0  0  0  0  0  0  0  0  0
   54.6270   28.3210   54.0540 N   0  0  0  0  0  0  0  0  0  0  0  0
   55.7690   29.0420   54.1700 C   0  0  0  0  0  0  0  0  0  0  0  0
   55.9770   30.1610   53.3600 C   0  0  0  0  0  0  0  0  0  0  0  0
   57.2400   30.9280   53.4460 C   0  0  0  0  0  0  0  0  0  0  0  0
   57.6680   31.2980   54.5730 O   0  0  0  0  0  0  0  0  0  0  0  0
   57.9810   31.2710   52.2620 N   0  0  0  0  0  0  0  0  0  0  0  0
   58.6050   32.5930   52.1600 C   0  0  0  0  0  0  0  0  0  0  0  0
   58.6280   33.0900   50.6970 C   0  0  0  0  0  0  0  0  0  0  0  0
   58.4760   32.0070   49.6860 N   0  0  0  0  0  0  0  0  0  0  0  0
   58.9430   32.4270   48.3310 C   0  0  0  0  0  0  0  0  0  0  0  0
   59.9880   33.5720   48.4020 C   0  0  0  0  0  0  0  0  0  0  0  0
   60.3870   34.0780   46.9950 C   0  0  0  0  0  0  0  0  0  0  0  0
   59.4880   33.6830   45.9730 O   0  0  0  0  0  0  0  0  0  0  0  0
   58.1600   33.9210   46.3840 C   0  0  0  0  0  0  0  0  0  0  0  0
   57.7470   32.9020   47.4580 C   0  0  0  0  0  0  0  0  0  0  0  0
   59.1660   30.7850   50.1530 C   0  0  0  0  0  0  0  0  0  0  0  0
   58.4030   30.2060   51.3450 C   0  0  0  0  0  0  0  0  0  0  0  0
   54.9380   30.5770   52.5170 C   0  0  0  0  0  0  0  0  0  0  0  0
   53.7060   29.8920   52.4790 C   0  0  0  0  0  0  0  0  0  0  0  0
   52.7020   30.4670   51.7710 C   0  0  0  0  0  0  0  0  0  0  0  0
   51.6900   31.4030   52.2980 C   0  0  0  0  0  0  0  0  0  0  0  0
   51.4240   31.5930   53.6050 N   0  0  0  0  0  0  0  0  0  0  0  0
   50.5350   32.6100   53.5970 C   0  0  0  0  0  0  0  0  0  0  0  0
   50.0290   33.0760   54.6500 O   0  0  0  0  0  0  0  0  0  0  0  0
   50.2390   33.0950   52.3720 N   0  0  0  0  0  0  0  0  0  0  0  0
   50.9880   32.3270   51.5640 C   0  0  0  0  0  0  0  0  0  0  0  0
   51.0340   32.4730   50.1830 O   0  0  0  0  0  0  0  0  0  0  0  0
  1  2  2  0
  2  3  1  0
  3  4  2  0
  4  5  1  0
  5  6  1  0
  6  7  2  0
  6  8  1  0
  8  9  1  0
  9 10  1  0
 10 11  1  0
 11 12  1  0
 12 13  1  0
 13 14  1  0
 14 15  1  0
 15 16  1  0
 16 17  1  0
 11 18  1  0
 18 19  1  0
  5 20  2  0
 20 21  1  0
 21 22  2  0
 22 23  1  0
 23 24  1  0
 24 25  1  0
 25 26  2  0
 25 27  1  0
 27 28  1  0
 28 29  1  0
 21  2  1  0
 28 23  2  0
 19  8  1  0
 17 12  1  0
M  CHG  3  24  -1  27  -1  29  -1
M  END
>  <UniqueID>  (1837) 
80

>  <SMILES>  (1837) 
C=c1ncc(C(=O)N2CCN(C3CCOCC3)CC2)c/c1=C/c1[n-]c(=O)[n-]c1[O-]

>  <Energy>  (1837) 
124.10096478701432

>  <Genealogy>  (1837) 
C=c1ncc(C(=O)N2CCN(C3CCOCC3)CC2)cc1=Cc1[n-]c(=O)[n-]c1[O-] (protonated)
C=c1ncc(C(=O)N2CCN(C3CCOCC3)CC2)c/c1=C/c1[n-]c(=O)[n-]c1[O-] (cis-trans isomerization)
C=c1ncc(C(=O)N2CCN(C3CCOCC3)CC2)c/c1=C/c1[n-]c(=O)[n-]c1[O-] (3D coordinates assigned)
C=c1ncc(C(=O)N2CCN(C3CCOCC3)CC2)c/c1=C/c1[n-]c(=O)[n-]c1[O-] (nonaromatic ring conformer: 124.10096478701432 kcal/mol)

>  <smiles>  (1837) 
C=c1ncc(C(=O)N2CCN(C3CCOCC3)CC2)cc1=Cc1[nH]c(=O)[nH]c1O

>  <score_type>  (1837) 
oracle

>  <origin>  (1837) 
adg

>  <m_score__min__energy>  (1837) 
-18.260000000000002

>  <m_primary>  (1837) 
energy

$$$$
1:0
     RDKit          3D

 36 40  0  0  0  0  0  0  0  0999 V2000
   59.3170   29.5950   44.4980 C   0  0  0  0  0  0  0  0  0  0  0  0
   59.3380   29.0830   45.7360 C   0  0  0  0  0  0  0  0  0  0  0  0
   58.6170   27.9700   46.1920 C   0  0  0  0  0  0  0  0  0  0  0  0
   57.9420   27.0250   45.5120 C   0  0  0  0  0  0  0  0  0  0  0  0
   57.2450   25.8810   46.1220 C   0  0  0  0  0  0  0  0  0  0  0  0
   57.8620   24.8120   46.6580 N   0  0  0  0  0  0  0  0  0  0  0  0
   56.8450   24.0950   47.1830 C   0  0  0  0  0  0  0  0  0  0  0  0
   57.0250   23.0000   47.7780 O   0  0  0  0  0  0  0  0  0  0  0  0
   55.6240   24.6500   47.0330 N   0  0  0  0  0  0  0  0  0  0  0  0
   55.8980   25.7840   46.3670 C   0  0  0  0  0  0  0  0  0  0  0  0
   54.9350   26.7070   45.9840 O   0  0  0  0  0  0  0  0  0  0  0  0
   58.7130   27.9820   47.5710 C   0  0  0  0  0  0  0  0  0  0  0  0
   59.5450   29.0320   47.9030 C   0  0  0  0  0  0  0  0  0  0  0  0
   59.8420   29.4660   49.2850 C   0  0  0  0  0  0  0  0  0  0  0  0
   61.0510   29.6000   49.6140 O   0  0  0  0  0  0  0  0  0  0  0  0
   58.7990   29.7580   50.2520 N   0  0  0  0  0  0  0  0  0  0  0  0
   59.1740   29.2400   51.5840 C   0  0  0  0  0  0  0  0  0  0  0  0
   58.2030   29.7100   52.6880 C   0  0  0  0  0  0  0  0  0  0  0  0
   56.9920   30.3280   52.1130 N   0  0  0  0  0  0  0  0  0  0  0  0
   56.0500   30.7180   53.1830 C   0  0  0  0  0  0  0  0  0  0  0  0
   54.6350   30.4230   52.7690 C   0  0  0  0  0  0  0  0  0  0  0  0
   53.9480   29.3420   53.3490 C   0  0  0  0  0  0  0  0  0  0  0  0
   52.6440   29.0410   52.9480 C   0  0  0  0  0  0  0  0  0  0  0  0
   52.0090   29.8280   51.9810 C   0  0  0  0  0  0  0  0  0  0  0  0
   52.6770   30.9170   51.4160 C   0  0  0  0  0  0  0  0  0  0  0  0
   53.9860   31.2170   51.8090 C   0  0  0  0  0  0  0  0  0  0  0  0
   57.3600   31.5120   51.3130 C   0  0  0  0  0  0  0  0  0  0  0  0
   58.4780   31.2000   50.2990 C   0  0  0  0  0  0  0  0  0  0  0  0
   59.9400   29.6960   46.7910 N   0  0  0  0  0  0  0  0  0  0  0  0
   60.7790   30.9100   46.7760 C   0  0  0  0  0  0  0  0  0  0  0  0
   59.9510   32.1720   46.7470 C   0  0  0  0  0  0  0  0  0  0  0  0
   60.5800   33.4220   46.6190 C   0  0  0  0  0  0  0  0  0  0  0  0
   59.8190   34.5930   46.5610 C   0  0  0  0  0  0  0  0  0  0  0  0
   58.4230   34.5260   46.6110 C   0  0  0  0  0  0  0  0  0  0  0  0
   57.7870   33.2870   46.7310 C   0  0  0  0  0  0  0  0  0  0  0  0
   58.5450   32.1140   46.7940 C   0  0  0  0  0  0  0  0  0  0  0  0
  1  2  2  0
  2  3  1  0
  3  4  2  3
  4  5  1  0
  5  6  1  0
  6  7  1  0
  7  8  2  0
  7  9  1  0
  9 10  1  0
 10 11  1  0
  3 12  1  0
 12 13  2  0
 13 14  1  0
 14 15  2  0
 14 16  1  0
 16 17  1  0
 17 18  1  0
 18 19  1  0
 19 20  1  0
 20 21  1  0
 21 22  2  0
 22 23  1  0
 23 24  2  0
 24 25  1  0
 25 26  2  0
 19 27  1  0
 27 28  1  0
 13 29  1  0
 29 30  1  0
 30 31  1  0
 31 32  2  0
 32 33  1  0
 33 34  2  0
 34 35  1  0
 35 36  2  0
 29  2  1  0
 36 31  1  0
 10  5  2  0
 28 16  1  0
 26 21  1  0
M  CHG  4   6  -1   9  -1  11  -1  16   1
M  END
>  <UniqueID>  (1838) 
2

>  <SMILES>  (1838) 
C=c1c(=Cc2[n-]c(=O)[n-]c2[O-])cc(C(=O)[NH+]2CCN(Cc3ccccc3)CC2)n1Cc1ccccc1

>  <Energy>  (1838) 
156.1750969055194

>  <Genealogy>  (1838) 
C=c1c(=Cc2[n-]c(=O)[n-]c2[O-])cc(C(=O)[NH+]2CCN(Cc3ccccc3)CC2)n1Cc1ccccc1 (protonated)
C=c1c(=Cc2[n-]c(=O)[n-]c2[O-])cc(C(=O)[NH+]2CCN(Cc3ccccc3)CC2)n1Cc1ccccc1 (3D coordinates assigned)
C=c1c(=Cc2[n-]c(=O)[n-]c2[O-])cc(C(=O)[NH+]2CCN(Cc3ccccc3)CC2)n1Cc1ccccc1 (nonaromatic ring conformer: 156.1750969055194 kcal/mol)

>  <smiles>  (1838) 
C=c1c(=Cc2[nH]c(=O)[nH]c2O)cc(C(=O)N2CCN(Cc3ccccc3)CC2)n1Cc1ccccc1

>  <score_type>  (1838) 
oracle

>  <origin>  (1838) 
adg

>  <m_score__min__energy>  (1838) 
-17.530000000000001

>  <m_primary>  (1838) 
energy

$$$$
2:0
     RDKit          3D

 24 26  0  0  0  0  0  0  0  0999 V2000
   59.9250   29.3050   44.8500 C   0  0  0  0  0  0  0  0  0  0  0  0
   59.5780   29.1050   46.1350 C   0  0  0  0  0  0  0  0  0  0  0  0
   58.6310   28.1740   46.5890 C   0  0  0  0  0  0  0  0  0  0  0  0
   57.8790   27.3440   45.8330 C   0  0  0  0  0  0  0  0  0  0  0  0
   57.2590   26.0820   46.2950 C   0  0  0  0  0  0  0  0  0  0  0  0
   57.9170   24.9740   46.6860 N   0  0  0  0  0  0  0  0  0  0  0  0
   56.9270   24.0980   46.9580 C   0  0  0  0  0  0  0  0  0  0  0  0
   57.1510   22.9280   47.3640 O   0  0  0  0  0  0  0  0  0  0  0  0
   55.6790   24.5710   46.7550 N   0  0  0  0  0  0  0  0  0  0  0  0
   55.9080   25.8240   46.3320 C   0  0  0  0  0  0  0  0  0  0  0  0
   54.9010   26.7150   45.9830 O   0  0  0  0  0  0  0  0  0  0  0  0
   58.6010   28.3000   47.9710 C   0  0  0  0  0  0  0  0  0  0  0  0
   59.5190   29.2740   48.3040 C   0  0  0  0  0  0  0  0  0  0  0  0
   59.7620   29.7470   49.7050 C   0  0  0  0  0  0  0  0  0  0  0  0
   60.1080   29.7790   47.1940 N   0  0  0  0  0  0  0  0  0  0  0  0
   61.1230   30.8490   47.1880 C   0  0  0  0  0  0  0  0  0  0  0  0
   60.4750   32.2130   47.1460 C   0  0  0  0  0  0  0  0  0  0  0  0
   59.4440   32.4710   46.2240 C   0  0  0  0  0  0  0  0  0  0  0  0
   58.8430   33.7320   46.1650 C   0  0  0  0  0  0  0  0  0  0  0  0
   57.4560   34.0700   44.8980 Br  0  0  0  0  0  0  0  0  0  0  0  0
   59.2600   34.7450   47.0320 C   0  0  0  0  0  0  0  0  0  0  0  0
   60.2740   34.4980   47.9600 C   0  0  0  0  0  0  0  0  0  0  0  0
   60.8800   33.2390   48.0240 C   0  0  0  0  0  0  0  0  0  0  0  0
   61.8790   33.0170   48.9640 O   0  0  0  0  0  0  0  0  0  0  0  0
  1  2  2  0
  2  3  1  0
  3  4  2  0
  4  5  1  0
  5  6  1  0
  6  7  1  0
  7  8  2  0
  7  9  1  0
  9 10  1  0
 10 11  1  0
  3 12  1  0
 12 13  2  0
 13 14  1  0
 13 15  1  0
 15 16  1  0
 16 17  1  0
 17 18  2  0
 18 19  1  0
 19 20  1  0
 19 21  2  0
 21 22  1  0
 22 23  2  0
 23 24  1  0
 15  2  1  0
 23 17  1  0
 10  5  2  0
M  CHG  4   6  -1   9  -1  11  -1  24  -1
M  END
>  <UniqueID>  (1839) 
3

>  <SMILES>  (1839) 
C=c1/c(=C/c2[n-]c(=O)[n-]c2[O-])cc(C)n1Cc1cc(Br)ccc1[O-]

>  <Energy>  (1839) 
101.6159637639331

>  <Genealogy>  (1839) 
C=c1c(=Cc2[n-]c(=O)[n-]c2[O-])cc(C)n1Cc1cc(Br)ccc1[O-] (protonated)
C=c1/c(=C/c2[n-]c(=O)[n-]c2[O-])cc(C)n1Cc1cc(Br)ccc1[O-] (cis-trans isomerization)
C=c1/c(=C/c2[n-]c(=O)[n-]c2[O-])cc(C)n1Cc1cc(Br)ccc1[O-] (3D coordinates assigned)
C=c1/c(=C/c2[n-]c(=O)[n-]c2[O-])cc(C)n1Cc1cc(Br)ccc1[O-] (optimized conformer: 101.6159637639331 kcal/mol)

>  <smiles>  (1839) 
C=c1c(=Cc2[nH]c(=O)[nH]c2O)cc(C)n1Cc1cc(Br)ccc1O

>  <score_type>  (1839) 
oracle

>  <origin>  (1839) 
adg

>  <m_score__min__energy>  (1839) 
-16.190000000000001

>  <m_primary>  (1839) 
energy

$$$$
4:0
     RDKit          3D

 32 35  0  0  0  0  0  0  0  0999 V2000
   59.4870   29.5740   47.9490 C   0  0  0  0  0  0  0  0  0  0  0  0
   58.8940   30.1000   46.8610 C   0  0  0  0  0  0  0  0  0  0  0  0
   58.5680   29.3300   45.7010 C   0  0  0  0  0  0  0  0  0  0  0  0
   58.4770   27.9760   45.6500 C   0  0  0  0  0  0  0  0  0  0  0  0
   57.2810   27.1670   45.9450 C   0  0  0  0  0  0  0  0  0  0  0  0
   57.3350   25.9250   46.4570 N   0  0  0  0  0  0  0  0  0  0  0  0
   56.0410   25.5350   46.4710 C   0  0  0  0  0  0  0  0  0  0  0  0
   55.6780   24.4110   46.9030 O   0  0  0  0  0  0  0  0  0  0  0  0
   55.1710   26.4410   45.9760 N   0  0  0  0  0  0  0  0  0  0  0  0
   55.9710   27.4630   45.6350 C   0  0  0  0  0  0  0  0  0  0  0  0
   55.5180   28.6260   45.0230 O   0  0  0  0  0  0  0  0  0  0  0  0
   58.2920   30.0320   44.5130 C   0  0  0  0  0  0  0  0  0  0  0  0
   58.2110   31.4290   44.4880 C   0  0  0  0  0  0  0  0  0  0  0  0
   57.8750   32.1180   43.1850 C   0  0  0  0  0  0  0  0  0  0  0  0
   56.9950   31.2310   42.3100 C   0  0  0  0  0  0  0  0  0  0  0  0
   58.4040   32.1370   45.6890 C   0  0  0  0  0  0  0  0  0  0  0  0
   58.3080   33.6180   45.7260 C   0  0  0  0  0  0  0  0  0  0  0  0
   59.0730   34.4010   46.5020 C   0  0  0  0  0  0  0  0  0  0  0  0
   60.3420   33.9640   47.1220 C   0  0  0  0  0  0  0  0  0  0  0  0
   60.3490   33.5610   48.4650 C   0  0  0  0  0  0  0  0  0  0  0  0
   61.5190   33.0630   49.0440 C   0  0  0  0  0  0  0  0  0  0  0  0
   62.7040   32.9880   48.2970 C   0  0  0  0  0  0  0  0  0  0  0  0
   63.9320   32.3570   48.8910 C   0  0  0  0  0  0  0  0  0  0  0  0
   64.4270   33.1750   50.0010 N   0  0  0  0  0  0  0  0  0  0  0  0
   65.5740   33.0320   50.7050 C   0  0  0  0  0  0  0  0  0  0  0  0
   66.6130   31.9900   50.4410 C   0  0  0  0  0  0  0  0  0  0  0  0
   65.6580   33.8990   51.7370 N   0  0  0  0  0  0  0  0  0  0  0  0
   64.5170   34.6130   51.6670 C   0  0  0  0  0  0  0  0  0  0  0  0
   63.7560   34.1670   50.6100 C   0  0  0  0  0  0  0  0  0  0  0  0
   62.7100   33.4420   46.9690 C   0  0  0  0  0  0  0  0  0  0  0  0
   61.5390   33.9330   46.3880 C   0  0  0  0  0  0  0  0  0  0  0  0
   58.7160   31.4560   46.8300 N   0  0  0  0  0  0  0  0  0  0  0  0
  1  2  2  0
  2  3  1  0
  3  4  2  0
  4  5  1  0
  5  6  1  0
  6  7  1  0
  7  8  2  0
  7  9  1  0
  9 10  1  0
 10 11  1  0
  3 12  1  0
 12 13  2  0
 13 14  1  0
 14 15  1  0
 13 16  1  0
 16 17  1  0
 17 18  2  0
 18 19  1  0
 19 20  2  0
 20 21  1  0
 21 22  2  0
 22 23  1  0
 23 24  1  0
 24 25  1  0
 25 26  1  0
 25 27  2  0
 27 28  1  0
 28 29  2  0
 22 30  1  0
 30 31  2  0
 16 32  2  0
 32  2  1  0
 10  5  2  0
 31 19  1  0
 29 24  1  0
M  CHG  4   6  -1   9  -1  11  -1  32   1
M  END
>  <UniqueID>  (1840) 
5

>  <SMILES>  (1840) 
C=c1[nH+]c(/C=C\c2ccc(Cn3ccnc3C)cc2)c(CC)c/c1=C/c1[n-]c(=O)[n-]c1[O-]

>  <Energy>  (1840) 
141.74785380926497

>  <Genealogy>  (1840) 
C=c1[nH+]c(C=Cc2ccc(Cn3ccnc3C)cc2)c(CC)cc1=Cc1[n-]c(=O)[n-]c1[O-] (protonated)
C=c1[nH+]c(/C=C\c2ccc(Cn3ccnc3C)cc2)c(CC)c/c1=C/c1[n-]c(=O)[n-]c1[O-] (cis-trans isomerization)
C=c1[nH+]c(/C=C\c2ccc(Cn3ccnc3C)cc2)c(CC)c/c1=C/c1[n-]c(=O)[n-]c1[O-] (3D coordinates assigned)
C=c1[nH+]c(/C=C\c2ccc(Cn3ccnc3C)cc2)c(CC)c/c1=C/c1[n-]c(=O)[n-]c1[O-] (optimized conformer: 141.74785380926497 kcal/mol)

>  <smiles>  (1840) 
C=c1nc(C=Cc2ccc(Cn3ccnc3C)cc2)c(CC)cc1=Cc1[nH]c(=O)[nH]c1O

>  <score_type>  (1840) 
oracle

>  <origin>  (1840) 
adg

>  <m_score__min__energy>  (1840) 
-16.82

>  <m_primary>  (1840) 
energy

$$$$
14:0
     RDKit          3D

 25 27  0  0  0  0  0  0  0  0999 V2000
   58.9130   30.2240   46.9450 C   0  0  0  0  0  0  0  0  0  0  0  0
   58.5240   31.1370   46.0390 C   0  0  0  0  0  0  0  0  0  0  0  0
   58.0720   30.8590   44.7440 C   0  0  0  0  0  0  0  0  0  0  0  0
   57.9080   29.6500   44.1720 C   0  0  0  0  0  0  0  0  0  0  0  0
   57.4730   28.4460   44.9170 C   0  0  0  0  0  0  0  0  0  0  0  0
   56.1250   28.2330   45.2520 C   0  0  0  0  0  0  0  0  0  0  0  0
   55.1500   29.1570   44.8870 O   0  0  0  0  0  0  0  0  0  0  0  0
   55.7600   27.1070   45.9210 N   0  0  0  0  0  0  0  0  0  0  0  0
   56.6820   26.1630   46.2540 C   0  0  0  0  0  0  0  0  0  0  0  0
   56.3290   25.1240   46.8710 O   0  0  0  0  0  0  0  0  0  0  0  0
   57.9850   26.3340   45.9130 N   0  0  0  0  0  0  0  0  0  0  0  0
   58.3980   27.4450   45.2510 C   0  0  0  0  0  0  0  0  0  0  0  0
   59.6160   27.5680   44.9500 O   0  0  0  0  0  0  0  0  0  0  0  0
   57.7680   32.0810   44.1660 C   0  0  0  0  0  0  0  0  0  0  0  0
   58.0540   33.0480   45.1080 C   0  0  0  0  0  0  0  0  0  0  0  0
   57.8010   34.5120   44.9100 C   0  0  0  0  0  0  0  0  0  0  0  0
   58.5130   32.4810   46.2510 N   0  0  0  0  0  0  0  0  0  0  0  0
   58.8560   33.2120   47.4820 C   0  0  0  0  0  0  0  0  0  0  0  0
   60.3410   33.4600   47.5550 C   0  0  0  0  0  0  0  0  0  0  0  0
   61.0980   33.5910   46.3780 C   0  0  0  0  0  0  0  0  0  0  0  0
   62.4780   33.8060   46.4470 C   0  0  0  0  0  0  0  0  0  0  0  0
   63.1140   33.8910   47.6880 C   0  0  0  0  0  0  0  0  0  0  0  0
   62.3690   33.7630   48.8650 C   0  0  0  0  0  0  0  0  0  0  0  0
   63.2390   33.8760   50.5610 Br  0  0  0  0  0  0  0  0  0  0  0  0
   60.9870   33.5500   48.8000 C   0  0  0  0  0  0  0  0  0  0  0  0
  1  2  2  0
  2  3  1  0
  3  4  2  3
  4  5  1  0
  5  6  2  0
  6  7  1  0
  6  8  1  0
  8  9  1  0
  9 10  2  0
  9 11  1  0
 11 12  1  0
 12 13  2  0
  3 14  1  0
 14 15  2  0
 15 16  1  0
 15 17  1  0
 17 18  1  0
 18 19  1  0
 19 20  2  0
 20 21  1  0
 21 22  2  0
 22 23  1  0
 23 24  1  0
 23 25  2  0
 17  2  1  0
 25 19  1  0
 12  5  1  0
M  CHG  2   7  -1  11  -1
M  END
>  <UniqueID>  (1841) 
15

>  <SMILES>  (1841) 
C=c1c(=Cc2c([O-])[nH]c(=O)[n-]c2=O)cc(C)n1Cc1cccc(Br)c1

>  <Energy>  (1841) 
79.31618905705479

>  <Genealogy>  (1841) 
C=c1c(=Cc2c([O-])[nH]c(=O)[n-]c2=O)cc(C)n1Cc1cccc(Br)c1 (protonated)
C=c1c(=Cc2c([O-])[nH]c(=O)[n-]c2=O)cc(C)n1Cc1cccc(Br)c1 (3D coordinates assigned)
C=c1c(=Cc2c([O-])[nH]c(=O)[n-]c2=O)cc(C)n1Cc1cccc(Br)c1 (optimized conformer: 79.31618905705479 kcal/mol)

>  <smiles>  (1841) 
C=c1c(=Cc2c(O)[nH]c(=O)[nH]c2=O)cc(C)n1Cc1cccc(Br)c1

>  <score_type>  (1841) 
oracle

>  <origin>  (1841) 
adg

>  <m_score__min__energy>  (1841) 
-14.27

>  <m_primary>  (1841) 
energy

$$$$
15:0
     RDKit          3D

 27 29  0  0  0  0  0  0  0  0999 V2000
   66.1750   32.2430   50.3740 C   0  0  0  0  0  0  0  0  0  0  0  0
   65.4250   33.2700   49.7330 O   0  0  0  0  0  0  0  0  0  0  0  0
   64.1120   33.1140   49.2620 C   0  0  0  0  0  0  0  0  0  0  0  0
   63.7880   32.2460   48.2010 C   0  0  0  0  0  0  0  0  0  0  0  0
   62.4640   32.1270   47.7680 C   0  0  0  0  0  0  0  0  0  0  0  0
   61.4490   32.8690   48.3870 C   0  0  0  0  0  0  0  0  0  0  0  0
   59.7800   32.7460   47.8410 S   0  0  0  0  0  0  0  0  0  0  0  0
   58.8730   32.8940   49.0300 O   0  0  0  0  0  0  0  0  0  0  0  0
   59.5470   31.3940   47.2220 O   0  0  0  0  0  0  0  0  0  0  0  0
   59.4670   34.0120   46.6730 N   0  0  0  0  0  0  0  0  0  0  0  0
   59.8940   33.6150   45.3060 C   0  0  0  0  0  0  0  0  0  0  0  0
   58.7270   33.2980   44.3550 C   0  0  0  0  0  0  0  0  0  0  0  0
   57.6170   32.7030   45.1030 N   0  0  0  0  0  0  0  0  0  0  0  0
   57.0140   31.4570   44.7090 C   0  0  0  0  0  0  0  0  0  0  0  0
   55.7670   31.3060   44.8310 O   0  0  0  0  0  0  0  0  0  0  0  0
   57.8440   30.3270   44.1630 C   0  0  0  0  0  0  0  0  0  0  0  0
   57.6110   29.0700   44.9430 C   0  0  0  0  0  0  0  0  0  0  0  0
   58.5900   28.3540   45.5250 N   0  0  0  0  0  0  0  0  0  0  0  0
   57.9170   27.3650   46.1540 C   0  0  0  0  0  0  0  0  0  0  0  0
   58.4980   26.4690   46.8200 O   0  0  0  0  0  0  0  0  0  0  0  0
   56.5750   27.4150   46.0160 N   0  0  0  0  0  0  0  0  0  0  0  0
   56.3990   28.5040   45.2520 C   0  0  0  0  0  0  0  0  0  0  0  0
   55.1540   28.9750   44.8510 O   0  0  0  0  0  0  0  0  0  0  0  0
   57.0700   33.4390   46.2470 C   0  0  0  0  0  0  0  0  0  0  0  0
   58.0720   34.4930   46.7450 C   0  0  0  0  0  0  0  0  0  0  0  0
   61.7710   33.7360   49.4380 C   0  0  0  0  0  0  0  0  0  0  0  0
   63.0940   33.8550   49.8720 C   0  0  0  0  0  0  0  0  0  0  0  0
  1  2  1  0
  2  3  1  0
  3  4  2  0
  4  5  1  0
  5  6  2  0
  6  7  1  0
  7  8  2  0
  7  9  2  0
  7 10  1  0
 10 11  1  0
 11 12  1  0
 12 13  1  0
 13 14  1  0
 14 15  2  0
 14 16  1  0
 16 17  1  0
 17 18  1  0
 18 19  1  0
 19 20  2  0
 19 21  1  0
 21 22  1  0
 22 23  1  0
 13 24  1  0
 24 25  1  0
  6 26  1  0
 26 27  2  0
 27  3  1  0
 25 10  1  0
 22 17  2  0
M  CHG  3  18  -1  21  -1  23  -1
M  END
>  <UniqueID>  (1842) 
16

>  <SMILES>  (1842) 
COc1ccc(S(=O)(=O)N2CCN(C(=O)Cc3[n-]c(=O)[n-]c3[O-])CC2)cc1

>  <Energy>  (1842) 
81.15174583446016

>  <Genealogy>  (1842) 
COc1ccc(S(=O)(=O)N2CCN(C(=O)Cc3[n-]c(=O)[n-]c3[O-])CC2)cc1 (protonated)
COc1ccc(S(=O)(=O)N2CCN(C(=O)Cc3[n-]c(=O)[n-]c3[O-])CC2)cc1 (3D coordinates assigned)
COc1ccc(S(=O)(=O)N2CCN(C(=O)Cc3[n-]c(=O)[n-]c3[O-])CC2)cc1 (nonaromatic ring conformer: 81.15174583446016 kcal/mol)

>  <smiles>  (1842) 
COc1ccc(S(=O)(=O)N2CCN(C(=O)Cc3[nH]c(=O)[nH]c3O)CC2)cc1

>  <score_type>  (1842) 
oracle

>  <origin>  (1842) 
adg

>  <m_score__min__energy>  (1842) 
-16.190000000000001

>  <m_primary>  (1842) 
energy

$$$$
33:0
     RDKit          3D

 30 32  0  0  0  0  0  0  0  0999 V2000
   55.6300   29.0000   45.1740 O   0  0  0  0  0  0  0  0  0  0  0  0
   56.5760   29.4780   44.4950 C   0  0  0  0  0  0  0  0  0  0  0  0
   57.6150   28.5870   43.9210 C   0  0  0  0  0  0  0  0  0  0  0  0
   58.8810   28.4800   44.3530 C   0  0  0  0  0  0  0  0  0  0  0  0
   59.3060   28.3600   45.7590 C   0  0  0  0  0  0  0  0  0  0  0  0
   59.8430   29.3530   46.3220 O   0  0  0  0  0  0  0  0  0  0  0  0
   59.0480   27.1630   46.5040 N   0  0  0  0  0  0  0  0  0  0  0  0
   57.9900   26.2450   46.2100 C   0  0  0  0  0  0  0  0  0  0  0  0
   56.6690   26.7100   46.2620 C   0  0  0  0  0  0  0  0  0  0  0  0
   55.6060   25.8580   45.9460 C   0  0  0  0  0  0  0  0  0  0  0  0
   54.3000   26.3340   45.9830 O   0  0  0  0  0  0  0  0  0  0  0  0
   55.8560   24.5320   45.5880 C   0  0  0  0  0  0  0  0  0  0  0  0
   57.1670   24.0490   45.5670 C   0  0  0  0  0  0  0  0  0  0  0  0
   58.2380   24.8880   45.8970 C   0  0  0  0  0  0  0  0  0  0  0  0
   59.5210   24.3410   45.9400 O   0  0  0  0  0  0  0  0  0  0  0  0
   56.6220   30.8960   44.2950 N   0  0  0  0  0  0  0  0  0  0  0  0
   57.4100   31.8310   45.0430 C   0  0  0  0  0  0  0  0  0  0  0  0
   57.7590   33.0530   44.4520 C   0  0  0  0  0  0  0  0  0  0  0  0
   58.5560   33.9700   45.1430 C   0  0  0  0  0  0  0  0  0  0  0  0
   59.0250   33.6670   46.4290 C   0  0  0  0  0  0  0  0  0  0  0  0
   60.0470   34.8110   47.2960 S   0  0  0  0  0  0  0  0  0  0  0  0
   59.5420   34.9520   48.7050 O   0  0  0  0  0  0  0  0  0  0  0  0
   59.9810   36.1570   46.6270 O   0  0  0  0  0  0  0  0  0  0  0  0
   61.6870   34.2160   47.3210 N   0  0  0  0  0  0  0  0  0  0  0  0
   62.2110   34.1610   48.6840 C   0  0  0  0  0  0  0  0  0  0  0  0
   63.2750   33.0750   48.6940 C   0  0  0  0  0  0  0  0  0  0  0  0
   62.9650   32.1990   47.4910 C   0  0  0  0  0  0  0  0  0  0  0  0
   61.7630   32.8450   46.8170 C   0  0  0  0  0  0  0  0  0  0  0  0
   58.7120   32.4290   47.0060 C   0  0  0  0  0  0  0  0  0  0  0  0
   57.9150   31.5130   46.3140 C   0  0  0  0  0  0  0  0  0  0  0  0
  1  2  2  0
  2  3  1  0
  3  4  2  3
  4  5  1  0
  5  6  2  0
  5  7  1  0
  7  8  1  0
  8  9  2  0
  9 10  1  0
 10 11  1  0
 10 12  2  0
 12 13  1  0
 13 14  2  0
 14 15  1  0
  2 16  1  0
 16 17  1  0
 17 18  2  0
 18 19  1  0
 19 20  2  0
 20 21  1  0
 21 22  2  0
 21 23  2  0
 21 24  1  0
 24 25  1  0
 25 26  1  0
 26 27  1  0
 27 28  1  0
 20 29  1  0
 29 30  2  0
 14  8  1  0
 30 17  1  0
 28 24  1  0
M  CHG  3   7  -1  11  -1  16  -1
M  END
>  <UniqueID>  (1843) 
34

>  <SMILES>  (1843) 
O=C(C=CC(=O)[N-]c1cc([O-])ccc1O)[N-]c1ccc(S(=O)(=O)N2CCCC2)cc1

>  <Energy>  (1843) 
68.68161310832984

>  <Genealogy>  (1843) 
O=C(C=CC(=O)[N-]c1cc([O-])ccc1O)[N-]c1ccc(S(=O)(=O)N2CCCC2)cc1 (protonated)
O=C(C=CC(=O)[N-]c1cc([O-])ccc1O)[N-]c1ccc(S(=O)(=O)N2CCCC2)cc1 (3D coordinates assigned)
O=C(C=CC(=O)[N-]c1cc([O-])ccc1O)[N-]c1ccc(S(=O)(=O)N2CCCC2)cc1 (nonaromatic ring conformer: 68.68161310832984 kcal/mol)

>  <smiles>  (1843) 
O=C(C=CC(=O)Nc1cc(O)ccc1O)Nc1ccc(S(=O)(=O)N2CCCC2)cc1

>  <score_type>  (1843) 
oracle

>  <origin>  (1843) 
adg

>  <m_score__min__energy>  (1843) 
-15.390000000000001

>  <m_primary>  (1843) 
energy

$$$$
45:0
     RDKit          3D

 28 31  0  0  0  0  0  0  0  0999 V2000
   65.1240   33.5260   50.7590 C   0  0  0  0  0  0  0  0  0  0  0  0
   65.1260   32.3370   50.1690 C   0  0  0  0  0  0  0  0  0  0  0  0
   63.8010   32.0380   49.5610 C   0  0  0  0  0  0  0  0  0  0  0  0
   63.0080   33.2220   49.8730 N   0  0  0  0  0  0  0  0  0  0  0  0
   61.5800   33.3110   49.7260 C   0  0  0  0  0  0  0  0  0  0  0  0
   60.9320   34.1220   50.4420 O   0  0  0  0  0  0  0  0  0  0  0  0
   60.8460   32.4600   48.7680 C   0  0  0  0  0  0  0  0  0  0  0  0
   59.5740   31.9570   49.0840 C   0  0  0  0  0  0  0  0  0  0  0  0
   58.8910   31.1410   48.1760 C   0  0  0  0  0  0  0  0  0  0  0  0
   59.4760   30.8090   46.9470 C   0  0  0  0  0  0  0  0  0  0  0  0
   58.7790   29.9610   46.0180 N   0  0  0  0  0  0  0  0  0  0  0  0
   58.1020   30.3760   44.9240 C   0  0  0  0  0  0  0  0  0  0  0  0
   57.9990   31.8000   44.4670 C   0  0  0  0  0  0  0  0  0  0  0  0
   57.5560   29.2980   44.2570 C   0  0  0  0  0  0  0  0  0  0  0  0
   57.8950   28.1650   44.9850 C   0  0  0  0  0  0  0  0  0  0  0  0
   57.5940   26.8910   44.6670 C   0  0  0  0  0  0  0  0  0  0  0  0
   57.0990   25.8950   45.6340 C   0  0  0  0  0  0  0  0  0  0  0  0
   57.8810   24.9480   46.1840 N   0  0  0  0  0  0  0  0  0  0  0  0
   57.0560   24.3270   47.0540 C   0  0  0  0  0  0  0  0  0  0  0  0
   57.4270   23.3560   47.7640 O   0  0  0  0  0  0  0  0  0  0  0  0
   55.8060   24.8350   47.1130 N   0  0  0  0  0  0  0  0  0  0  0  0
   55.8520   25.8340   46.2180 C   0  0  0  0  0  0  0  0  0  0  0  0
   54.7910   26.6990   45.9780 O   0  0  0  0  0  0  0  0  0  0  0  0
   58.6630   28.6100   46.0670 C   0  0  0  0  0  0  0  0  0  0  0  0
   59.2310   27.8410   47.0100 C   0  0  0  0  0  0  0  0  0  0  0  0
   60.7570   31.2900   46.6390 C   0  0  0  0  0  0  0  0  0  0  0  0
   61.4400   32.1060   47.5470 C   0  0  0  0  0  0  0  0  0  0  0  0
   63.7930   34.1800   50.6420 C   0  0  0  0  0  0  0  0  0  0  0  0
  1  2  2  0
  2  3  1  0
  3  4  1  0
  4  5  1  0
  5  6  2  0
  5  7  1  0
  7  8  2  0
  8  9  1  0
  9 10  2  0
 10 11  1  0
 11 12  1  0
 12 13  1  0
 12 14  2  0
 14 15  1  0
 15 16  2  0
 16 17  1  0
 17 18  1  0
 18 19  1  0
 19 20  2  0
 19 21  1  0
 21 22  1  0
 22 23  1  0
 15 24  1  0
 24 25  2  0
 10 26  1  0
 26 27  2  0
  4 28  1  0
 28  1  1  0
 27  7  1  0
 24 11  1  0
 22 17  2  0
M  CHG  3  18  -1  21  -1  23  -1
M  END
>  <UniqueID>  (1844) 
46

>  <SMILES>  (1844) 
C=c1/c(=C/c2[n-]c(=O)[n-]c2[O-])cc(C)n1-c1ccc(C(=O)N2CC=CC2)cc1

>  <Energy>  (1844) 
129.9754707970785

>  <Genealogy>  (1844) 
C=c1c(=Cc2[n-]c(=O)[n-]c2[O-])cc(C)n1-c1ccc(C(=O)N2CC=CC2)cc1 (protonated)
C=c1/c(=C/c2[n-]c(=O)[n-]c2[O-])cc(C)n1-c1ccc(C(=O)N2CC=CC2)cc1 (cis-trans isomerization)
C=c1/c(=C/c2[n-]c(=O)[n-]c2[O-])cc(C)n1-c1ccc(C(=O)N2CC=CC2)cc1 (3D coordinates assigned)
C=c1/c(=C/c2[n-]c(=O)[n-]c2[O-])cc(C)n1-c1ccc(C(=O)N2CC=CC2)cc1 (nonaromatic ring conformer: 129.9754707970785 kcal/mol)

>  <smiles>  (1844) 
C=c1c(=Cc2[nH]c(=O)[nH]c2O)cc(C)n1-c1ccc(C(=O)N2CC=CC2)cc1

>  <score_type>  (1844) 
oracle

>  <origin>  (1844) 
adg

>  <m_score__min__energy>  (1844) 
-15.73

>  <m_primary>  (1844) 
energy

$$$$
46:0
     RDKit          3D

 23 25  0  0  0  0  0  0  0  0999 V2000
   53.4400   28.7120   54.3880 C   0  0  0  0  0  0  0  0  0  0  0  0
   54.3410   29.3880   53.6480 C   0  0  0  0  0  0  0  0  0  0  0  0
   55.6880   28.9940   53.7610 C   0  0  0  0  0  0  0  0  0  0  0  0
   56.7010   29.6700   53.0890 C   0  0  0  0  0  0  0  0  0  0  0  0
   56.4020   30.7680   52.2780 C   0  0  0  0  0  0  0  0  0  0  0  0
   57.4580   31.4900   51.5170 C   0  0  0  0  0  0  0  0  0  0  0  0
   57.2570   32.7060   51.2430 O   0  0  0  0  0  0  0  0  0  0  0  0
   58.7070   30.8800   51.0940 N   0  0  0  0  0  0  0  0  0  0  0  0
   58.5300   29.7810   50.1230 C   0  0  0  0  0  0  0  0  0  0  0  0
   59.8920   29.1170   49.8070 C   0  0  0  0  0  0  0  0  0  0  0  0
   61.0020   29.9170   50.1880 O   0  0  0  0  0  0  0  0  0  0  0  0
   60.7990   31.2570   49.7850 C   0  0  0  0  0  0  0  0  0  0  0  0
   59.6630   31.8980   50.6050 C   0  0  0  0  0  0  0  0  0  0  0  0
   55.0650   31.1550   52.1210 C   0  0  0  0  0  0  0  0  0  0  0  0
   54.0080   30.4940   52.7950 C   0  0  0  0  0  0  0  0  0  0  0  0
   52.7210   30.8800   52.5750 C   0  0  0  0  0  0  0  0  0  0  0  0
   52.1150   31.1110   51.2490 C   0  0  0  0  0  0  0  0  0  0  0  0
   52.1260   30.1980   50.2610 N   0  0  0  0  0  0  0  0  0  0  0  0
   51.3840   30.7760   49.2910 C   0  0  0  0  0  0  0  0  0  0  0  0
   51.1730   30.2240   48.1800 O   0  0  0  0  0  0  0  0  0  0  0  0
   50.8780   31.9870   49.6100 N   0  0  0  0  0  0  0  0  0  0  0  0
   51.3390   32.1800   50.8560 C   0  0  0  0  0  0  0  0  0  0  0  0
   51.0280   33.2910   51.6290 O   0  0  0  0  0  0  0  0  0  0  0  0
  1  2  2  0
  2  3  1  0
  3  4  2  0
  4  5  1  0
  5  6  1  0
  6  7  2  0
  6  8  1  0
  8  9  1  0
  9 10  1  0
 10 11  1  0
 11 12  1  0
 12 13  1  0
  5 14  2  0
 14 15  1  0
 15 16  2  3
 16 17  1  0
 17 18  1  0
 18 19  1  0
 19 20  2  0
 19 21  1  0
 21 22  1  0
 22 23  1  0
 15  2  1  0
 22 17  2  0
 13  8  1  0
M  CHG  4   8   1  18  -1  21  -1  23  -1
M  END
>  <UniqueID>  (1845) 
47

>  <SMILES>  (1845) 
C=c1ccc(C(=O)[NH+]2CCOCC2)cc1=Cc1[n-]c(=O)[n-]c1[O-]

>  <Energy>  (1845) 
104.64736315788947

>  <Genealogy>  (1845) 
C=c1ccc(C(=O)[NH+]2CCOCC2)cc1=Cc1[n-]c(=O)[n-]c1[O-] (protonated)
C=c1ccc(C(=O)[NH+]2CCOCC2)cc1=Cc1[n-]c(=O)[n-]c1[O-] (3D coordinates assigned)
C=c1ccc(C(=O)[NH+]2CCOCC2)cc1=Cc1[n-]c(=O)[n-]c1[O-] (nonaromatic ring conformer: 104.64736315788947 kcal/mol)

>  <smiles>  (1845) 
C=c1ccc(C(=O)N2CCOCC2)cc1=Cc1[nH]c(=O)[nH]c1O

>  <score_type>  (1845) 
oracle

>  <origin>  (1845) 
adg

>  <m_score__min__energy>  (1845) 
-15.119999999999999

>  <m_primary>  (1845) 
energy

$$$$
50:0
     RDKit          3D

 23 24  0  0  0  0  0  0  0  0999 V2000
   57.9870   29.2040   44.3730 C   0  0  0  0  0  0  0  0  0  0  0  0
   57.3770   28.0560   45.0850 C   0  0  0  0  0  0  0  0  0  0  0  0
   55.9920   27.9840   45.3190 C   0  0  0  0  0  0  0  0  0  0  0  0
   55.1440   28.9980   44.8910 O   0  0  0  0  0  0  0  0  0  0  0  0
   55.4670   26.9050   45.9550 N   0  0  0  0  0  0  0  0  0  0  0  0
   56.2550   25.8750   46.3540 C   0  0  0  0  0  0  0  0  0  0  0  0
   55.7460   24.8880   46.9440 O   0  0  0  0  0  0  0  0  0  0  0  0
   57.5890   25.9040   46.1090 N   0  0  0  0  0  0  0  0  0  0  0  0
   58.1640   26.9610   45.4790 C   0  0  0  0  0  0  0  0  0  0  0  0
   59.4060   26.9540   45.2650 O   0  0  0  0  0  0  0  0  0  0  0  0
   58.4550   30.3500   44.9360 C   0  0  0  0  0  0  0  0  0  0  0  0
   57.6990   31.5170   44.7020 C   0  0  0  0  0  0  0  0  0  0  0  0
   57.9830   32.7080   45.3610 C   0  0  0  0  0  0  0  0  0  0  0  0
   56.9880   34.1250   45.0780 Cl  0  0  0  0  0  0  0  0  0  0  0  0
   59.0190   32.7630   46.2840 C   0  0  0  0  0  0  0  0  0  0  0  0
   59.8360   31.6480   46.5130 C   0  0  0  0  0  0  0  0  0  0  0  0
   60.9110   31.7920   47.5320 C   0  0  0  0  0  0  0  0  0  0  0  0
   60.8890   31.0580   48.5540 O   0  0  0  0  0  0  0  0  0  0  0  0
   61.9440   32.7820   47.4190 N   0  0  0  0  0  0  0  0  0  0  0  0
   63.1860   32.6600   47.7890 C   0  0  0  0  0  0  0  0  0  0  0  0
   63.6330   31.6210   48.6660 N   0  0  0  0  0  0  0  0  0  0  0  0
   59.6330   30.4550   45.7560 C   0  0  0  0  0  0  0  0  0  0  0  0
   60.6200   29.5340   45.7000 C   0  0  0  0  0  0  0  0  0  0  0  0
  1  2  1  0
  2  3  2  0
  3  4  1  0
  3  5  1  0
  5  6  1  0
  6  7  2  0
  6  8  1  0
  8  9  1  0
  9 10  2  0
  1 11  2  3
 11 12  1  0
 12 13  2  0
 13 14  1  0
 13 15  1  0
 15 16  2  0
 16 17  1  0
 17 18  2  0
 17 19  1  0
 19 20  2  0
 20 21  1  0
 16 22  1  0
 22 23  2  0
  9  2  1  0
 22 11  1  0
M  CHG  3   4  -1   5  -1   8  -1
M  END
>  <UniqueID>  (1846) 
51

>  <SMILES>  (1846) 
C=c1c(C(=O)/N=C\N)cc(Cl)cc1=Cc1c([O-])[n-]c(=O)[n-]c1=O

>  <Energy>  (1846) 
69.1165701556686

>  <Genealogy>  (1846) 
C=c1c(C(=O)N=CN)cc(Cl)cc1=Cc1c([O-])[n-]c(=O)[n-]c1=O (protonated)
C=c1c(C(=O)/N=C\N)cc(Cl)cc1=Cc1c([O-])[n-]c(=O)[n-]c1=O (cis-trans isomerization)
C=c1c(C(=O)/N=C\N)cc(Cl)cc1=Cc1c([O-])[n-]c(=O)[n-]c1=O (3D coordinates assigned)
C=c1c(C(=O)/N=C\N)cc(Cl)cc1=Cc1c([O-])[n-]c(=O)[n-]c1=O (optimized conformer: 69.1165701556686 kcal/mol)

>  <smiles>  (1846) 
C=c1c(C(=O)N=CN)cc(Cl)cc1=Cc1c(O)[nH]c(=O)[nH]c1=O

>  <score_type>  (1846) 
oracle

>  <origin>  (1846) 
adg

>  <m_score__min__energy>  (1846) 
-14.84

>  <m_primary>  (1846) 
energy

$$$$
52:0
     RDKit          3D

 27 29  0  0  0  0  0  0  0  0999 V2000
   56.9510   34.1960   45.0290 C   0  0  0  0  0  0  0  0  0  0  0  0
   58.1140   34.1960   45.9690 C   0  0  0  0  0  0  0  0  0  0  0  0
   58.0540   33.4760   47.1690 C   0  0  0  0  0  0  0  0  0  0  0  0
   59.1560   33.4770   48.0260 C   0  0  0  0  0  0  0  0  0  0  0  0
   60.3160   34.1800   47.6730 C   0  0  0  0  0  0  0  0  0  0  0  0
   61.5040   34.2110   48.6010 C   0  0  0  0  0  0  0  0  0  0  0  0
   61.5000   33.0270   49.5340 C   0  0  0  0  0  0  0  0  0  0  0  0
   61.6060   33.2220   50.7760 O   0  0  0  0  0  0  0  0  0  0  0  0
   61.4020   31.6780   49.0370 N   0  0  0  0  0  0  0  0  0  0  0  0
   62.0160   31.2800   47.7610 C   0  0  0  0  0  0  0  0  0  0  0  0
   61.0180   30.4780   46.9100 C   0  0  0  0  0  0  0  0  0  0  0  0
   60.1350   29.5080   47.7410 C   0  0  0  0  0  0  0  0  0  0  0  0
   60.0430   28.2110   47.0760 N   0  0  0  0  0  0  0  0  0  0  0  0
   58.8070   27.5320   46.8330 C   0  0  0  0  0  0  0  0  0  0  0  0
   58.1510   27.0420   47.7880 O   0  0  0  0  0  0  0  0  0  0  0  0
   58.2820   27.4290   45.4370 C   0  0  0  0  0  0  0  0  0  0  0  0
   57.8870   28.7910   44.9240 C   0  0  0  0  0  0  0  0  0  0  0  0
   58.8780   29.6880   44.4880 C   0  0  0  0  0  0  0  0  0  0  0  0
   58.5230   30.9440   43.9910 C   0  0  0  0  0  0  0  0  0  0  0  0
   57.1770   31.3130   43.9150 C   0  0  0  0  0  0  0  0  0  0  0  0
   56.1840   30.4250   44.3360 C   0  0  0  0  0  0  0  0  0  0  0  0
   56.5310   29.1650   44.8380 C   0  0  0  0  0  0  0  0  0  0  0  0
   55.5270   28.2930   45.2470 O   0  0  0  0  0  0  0  0  0  0  0  0
   60.6690   29.3040   49.1660 C   0  0  0  0  0  0  0  0  0  0  0  0
   60.7860   30.6520   49.8910 C   0  0  0  0  0  0  0  0  0  0  0  0
   60.3350   34.8920   46.4640 C   0  0  0  0  0  0  0  0  0  0  0  0
   59.2460   34.8810   45.6490 N   0  0  0  0  0  0  0  0  0  0  0  0
  1  2  1  0
  2  3  2  0
  3  4  1  0
  4  5  2  0
  5  6  1  0
  6  7  1  0
  7  8  2  0
  7  9  1  0
  9 10  1  0
 10 11  1  0
 11 12  1  0
 12 13  1  0
 13 14  1  0
 14 15  2  0
 14 16  1  0
 16 17  1  0
 17 18  2  0
 18 19  1  0
 19 20  2  0
 20 21  1  0
 21 22  2  0
 22 23  1  0
 12 24  1  0
 24 25  1  0
  5 26  1  0
 26 27  2  0
 27  2  1  0
 25  9  1  0
 22 17  1  0
M  CHG  2  13  -1  23  -1
M  END
>  <UniqueID>  (1847) 
52

>  <SMILES>  (1847) 
Cc1ccc(CC(=O)N2CCC([N-]C(=O)Cc3ccccc3[O-])CC2)cn1

>  <Energy>  (1847) 
50.50731085828726

>  <Genealogy>  (1847) 
Cc1ccc(CC(=O)N2CCC([N-]C(=O)Cc3ccccc3[O-])CC2)cn1 (protonated)
Cc1ccc(CC(=O)N2CCC([N-]C(=O)Cc3ccccc3[O-])CC2)cn1 (3D coordinates assigned)
Cc1ccc(CC(=O)N2CCC([N-]C(=O)Cc3ccccc3[O-])CC2)cn1 (nonaromatic ring conformer: 50.50731085828726 kcal/mol)

>  <smiles>  (1847) 
Cc1ccc(CC(=O)N2CCC(NC(=O)Cc3ccccc3O)CC2)cn1

>  <score_type>  (1847) 
oracle

>  <origin>  (1847) 
adg

>  <m_score__min__energy>  (1847) 
-14.109999999999999

>  <m_primary>  (1847) 
energy

$$$$
59:0
     RDKit          3D

 36 39  0  0  0  0  0  0  0  0999 V2000
   52.8620   27.9000   53.5090 C   0  0  0  0  0  0  0  0  0  0  0  0
   53.7620   28.8920   53.5900 C   0  0  0  0  0  0  0  0  0  0  0  0
   53.5670   30.2500   53.2860 C   0  0  0  0  0  0  0  0  0  0  0  0
   52.4450   30.9440   53.0110 C   0  0  0  0  0  0  0  0  0  0  0  0
   51.8280   31.0830   51.6830 C   0  0  0  0  0  0  0  0  0  0  0  0
   52.0610   30.2410   50.6600 N   0  0  0  0  0  0  0  0  0  0  0  0
   51.3770   30.8020   49.6380 C   0  0  0  0  0  0  0  0  0  0  0  0
   51.3370   30.2910   48.4870 O   0  0  0  0  0  0  0  0  0  0  0  0
   50.7440   31.9570   49.9420 N   0  0  0  0  0  0  0  0  0  0  0  0
   51.0490   32.1250   51.2390 C   0  0  0  0  0  0  0  0  0  0  0  0
   50.6340   33.2130   51.9950 O   0  0  0  0  0  0  0  0  0  0  0  0
   54.8210   30.8390   53.3250 C   0  0  0  0  0  0  0  0  0  0  0  0
   55.7180   29.8550   53.6840 C   0  0  0  0  0  0  0  0  0  0  0  0
   57.1740   30.0830   53.9570 C   0  0  0  0  0  0  0  0  0  0  0  0
   55.0750   28.6790   53.8590 N   0  0  0  0  0  0  0  0  0  0  0  0
   55.6850   27.4380   54.2450 C   0  0  0  0  0  0  0  0  0  0  0  0
   55.0670   26.6200   55.1990 C   0  0  0  0  0  0  0  0  0  0  0  0
   55.6460   25.4050   55.5610 C   0  0  0  0  0  0  0  0  0  0  0  0
   56.8450   24.9960   54.9710 C   0  0  0  0  0  0  0  0  0  0  0  0
   57.4860   25.8100   54.0170 C   0  0  0  0  0  0  0  0  0  0  0  0
   58.7550   25.3760   53.3860 C   0  0  0  0  0  0  0  0  0  0  0  0
   58.7390   24.4750   52.5060 O   0  0  0  0  0  0  0  0  0  0  0  0
   60.0080   25.9760   53.7470 N   0  0  0  0  0  0  0  0  0  0  0  0
   61.1320   25.1440   54.1810 C   0  0  0  0  0  0  0  0  0  0  0  0
   62.4080   25.5930   53.4680 C   0  0  0  0  0  0  0  0  0  0  0  0
   62.6120   27.0460   53.6320 N   0  0  0  0  0  0  0  0  0  0  0  0
   64.1250   27.5280   52.8890 S   0  0  0  0  0  0  0  0  0  0  0  0
   63.9200   28.6870   51.9540 O   0  0  0  0  0  0  0  0  0  0  0  0
   65.1290   27.9310   53.9360 O   0  0  0  0  0  0  0  0  0  0  0  0
   64.8080   26.1450   51.9820 C   0  0  0  0  0  0  0  0  0  0  0  0
   66.2920   26.3380   51.6650 C   0  0  0  0  0  0  0  0  0  0  0  0
   66.5410   26.0790   50.2940 O   0  0  0  0  0  0  0  0  0  0  0  0
   67.6750   26.7910   49.8530 C   0  0  0  0  0  0  0  0  0  0  0  0
   61.4890   27.7930   53.0380 C   0  0  0  0  0  0  0  0  0  0  0  0
   60.1770   27.4320   53.7360 C   0  0  0  0  0  0  0  0  0  0  0  0
   56.8890   27.0280   53.6510 C   0  0  0  0  0  0  0  0  0  0  0  0
  1  2  2  0
  2  3  1  0
  3  4  2  3
  4  5  1  0
  5  6  1  0
  6  7  1  0
  7  8  2  0
  7  9  1  0
  9 10  1  0
 10 11  1  0
  3 12  1  0
 12 13  2  0
 13 14  1  0
 13 15  1  0
 15 16  1  0
 16 17  2  0
 17 18  1  0
 18 19  2  0
 19 20  1  0
 20 21  1  0
 21 22  2  0
 21 23  1  0
 23 24  1  0
 24 25  1  0
 25 26  1  0
 26 27  1  0
 27 28  2  0
 27 29  2  0
 27 30  1  0
 30 31  1  0
 31 32  1  0
 32 33  1  0
 26 34  1  0
 34 35  1  0
 20 36  2  0
 15  2  1  0
 36 16  1  0
 10  5  2  0
 35 23  1  0
M  CHG  3   6  -1   9  -1  11  -1
M  END
>  <UniqueID>  (1848) 
59

>  <SMILES>  (1848) 
C=c1c(=Cc2[n-]c(=O)[n-]c2[O-])cc(C)n1-c1cccc(C(=O)N2CCN(S(=O)(=O)CCOC)CC2)c1

>  <Energy>  (1848) 
142.38096945071013

>  <Genealogy>  (1848) 
C=c1c(=Cc2[n-]c(=O)[n-]c2[O-])cc(C)n1-c1cccc(C(=O)N2CCN(S(=O)(=O)CCOC)CC2)c1 (protonated)
C=c1c(=Cc2[n-]c(=O)[n-]c2[O-])cc(C)n1-c1cccc(C(=O)N2CCN(S(=O)(=O)CCOC)CC2)c1 (3D coordinates assigned)
C=c1c(=Cc2[n-]c(=O)[n-]c2[O-])cc(C)n1-c1cccc(C(=O)N2CCN(S(=O)(=O)CCOC)CC2)c1 (nonaromatic ring conformer: 142.38096945071013 kcal/mol)

>  <smiles>  (1848) 
C=c1c(=Cc2[nH]c(=O)[nH]c2O)cc(C)n1-c1cccc(C(=O)N2CCN(S(=O)(=O)CCOC)CC2)c1

>  <score_type>  (1848) 
oracle

>  <origin>  (1848) 
adg

>  <m_score__min__energy>  (1848) 
-18.57

>  <m_primary>  (1848) 
energy

$$$$
71:0
     RDKit          3D

 29 32  0  0  0  0  0  0  0  0999 V2000
   57.6810   26.1930   47.3660 C   0  0  0  0  0  0  0  0  0  0  0  0
   57.5840   26.1440   46.0280 C   0  0  0  0  0  0  0  0  0  0  0  0
   57.0340   25.1080   45.2550 C   0  0  0  0  0  0  0  0  0  0  0  0
   56.3020   24.0350   45.6090 C   0  0  0  0  0  0  0  0  0  0  0  0
   54.8330   23.9530   45.5770 C   0  0  0  0  0  0  0  0  0  0  0  0
   54.1580   22.8200   45.3120 N   0  0  0  0  0  0  0  0  0  0  0  0
   52.8710   23.2300   45.2610 C   0  0  0  0  0  0  0  0  0  0  0  0
   51.9170   22.4380   45.0450 O   0  0  0  0  0  0  0  0  0  0  0  0
   52.6890   24.5560   45.4440 N   0  0  0  0  0  0  0  0  0  0  0  0
   53.9410   25.0010   45.6280 C   0  0  0  0  0  0  0  0  0  0  0  0
   54.2640   26.3400   45.8100 O   0  0  0  0  0  0  0  0  0  0  0  0
   57.3780   25.3810   43.9410 C   0  0  0  0  0  0  0  0  0  0  0  0
   58.0470   26.5880   43.9450 C   0  0  0  0  0  0  0  0  0  0  0  0
   58.5870   27.2670   42.7230 C   0  0  0  0  0  0  0  0  0  0  0  0
   58.1710   27.0530   45.2080 N   0  0  0  0  0  0  0  0  0  0  0  0
   58.8370   28.2690   45.5930 C   0  0  0  0  0  0  0  0  0  0  0  0
   60.1890   28.2480   45.9510 C   0  0  0  0  0  0  0  0  0  0  0  0
   60.8190   29.3940   46.3150 N   0  0  0  0  0  0  0  0  0  0  0  0
   60.1800   30.5950   46.3390 C   0  0  0  0  0  0  0  0  0  0  0  0
   60.8970   31.7740   46.7520 N   0  0  0  0  0  0  0  0  0  0  0  0
   62.0930   31.6820   47.6020 C   0  0  0  0  0  0  0  0  0  0  0  0
   63.1730   32.6840   47.1440 C   0  0  0  0  0  0  0  0  0  0  0  0
   62.6310   33.8220   46.3770 N   0  0  0  0  0  0  0  0  0  0  0  0
   61.2960   34.2100   46.8410 C   0  0  0  0  0  0  0  0  0  0  0  0
   60.3030   33.0940   46.5060 C   0  0  0  0  0  0  0  0  0  0  0  0
   58.8180   30.6570   46.0030 C   0  0  0  0  0  0  0  0  0  0  0  0
   58.1390   29.4870   45.6180 C   0  0  0  0  0  0  0  0  0  0  0  0
   56.7830   29.4950   45.2540 O   0  0  0  0  0  0  0  0  0  0  0  0
   56.3020   29.7550   43.9400 C   0  0  0  0  0  0  0  0  0  0  0  0
  1  2  2  0
  2  3  1  0
  3  4  2  0
  4  5  1  0
  5  6  1  0
  6  7  1  0
  7  8  2  0
  7  9  1  0
  9 10  1  0
 10 11  1  0
  3 12  1  0
 12 13  2  0
 13 14  1  0
 13 15  1  0
 15 16  1  0
 16 17  2  0
 17 18  1  0
 18 19  2  0
 19 20  1  0
 20 21  1  0
 21 22  1  0
 22 23  1  0
 23 24  1  0
 24 25  1  0
 19 26  1  0
 26 27  2  0
 27 28  1  0
 28 29  1  0
 15  2  1  0
 27 16  1  0
 10  5  2  0
 25 20  1  0
M  CHG  3   6  -1   9  -1  11  -1
M  END
>  <UniqueID>  (1849) 
70

>  <SMILES>  (1849) 
C=c1/c(=C\c2[n-]c(=O)[n-]c2[O-])cc(C)n1-c1cnc(N2CCNCC2)cc1OC

>  <Energy>  (1849) 
135.24845417947083

>  <Genealogy>  (1849) 
C=c1c(=Cc2[n-]c(=O)[n-]c2[O-])cc(C)n1-c1cnc(N2CCNCC2)cc1OC (protonated)
C=c1/c(=C\c2[n-]c(=O)[n-]c2[O-])cc(C)n1-c1cnc(N2CCNCC2)cc1OC (cis-trans isomerization)
C=c1/c(=C\c2[n-]c(=O)[n-]c2[O-])cc(C)n1-c1cnc(N2CCNCC2)cc1OC (3D coordinates assigned)
C=c1/c(=C\c2[n-]c(=O)[n-]c2[O-])cc(C)n1-c1cnc(N2CCNCC2)cc1OC (nonaromatic ring conformer: 135.24845417947083 kcal/mol)

>  <smiles>  (1849) 
C=c1c(=Cc2[nH]c(=O)[nH]c2O)cc(C)n1-c1cnc(N2CCNCC2)cc1OC

>  <score_type>  (1849) 
oracle

>  <origin>  (1849) 
adg

>  <m_score__min__energy>  (1849) 
-15.34

>  <m_primary>  (1849) 
energy

$$$$
73:0
     RDKit          3D

 29 32  0  0  0  0  0  0  0  0999 V2000
   58.9910   27.9130   52.8930 O   0  0  0  0  0  0  0  0  0  0  0  0
   58.9240   29.0770   52.4180 C   0  0  0  0  0  0  0  0  0  0  0  0
   59.7720   29.4240   51.2640 C   0  0  0  0  0  0  0  0  0  0  0  0
   59.2890   30.0500   50.1820 C   0  0  0  0  0  0  0  0  0  0  0  0
   60.0240   31.1060   49.4440 C   0  0  0  0  0  0  0  0  0  0  0  0
   59.4910   32.4110   49.2410 C   0  0  0  0  0  0  0  0  0  0  0  0
   60.2290   33.3850   48.5450 C   0  0  0  0  0  0  0  0  0  0  0  0
   61.4880   33.0360   48.0740 C   0  0  0  0  0  0  0  0  0  0  0  0
   62.0110   31.8010   48.2720 C   0  0  0  0  0  0  0  0  0  0  0  0
   61.3180   30.8070   48.9550 C   0  0  0  0  0  0  0  0  0  0  0  0
   63.2690   31.7380   47.7050 O   0  0  0  0  0  0  0  0  0  0  0  0
   63.5540   33.0130   47.1140 C   0  0  0  0  0  0  0  0  0  0  0  0
   62.3910   33.8120   47.3730 O   0  0  0  0  0  0  0  0  0  0  0  0
   58.1250   30.0780   53.0680 N   0  0  0  0  0  0  0  0  0  0  0  0
   56.8460   30.3130   52.9570 C   0  0  0  0  0  0  0  0  0  0  0  0
   56.0380   29.9050   53.9720 N   0  0  0  0  0  0  0  0  0  0  0  0
   54.7180   30.0890   53.9520 N   0  0  0  0  0  0  0  0  0  0  0  0
   54.1020   30.7110   52.9140 C   0  0  0  0  0  0  0  0  0  0  0  0
   52.6110   30.8600   52.9110 C   0  0  0  0  0  0  0  0  0  0  0  0
   52.1050   30.9320   51.5040 C   0  0  0  0  0  0  0  0  0  0  0  0
   52.2540   29.7090   50.3550 S   0  0  0  0  0  0  0  0  0  0  0  0
   51.3770   30.5690   49.2070 C   0  0  0  0  0  0  0  0  0  0  0  0
   51.1310   30.1530   48.0450 O   0  0  0  0  0  0  0  0  0  0  0  0
   50.9520   31.7660   49.6650 N   0  0  0  0  0  0  0  0  0  0  0  0
   51.3520   31.9650   50.9480 C   0  0  0  0  0  0  0  0  0  0  0  0
   51.0220   33.1200   51.6440 O   0  0  0  0  0  0  0  0  0  0  0  0
   54.8730   31.1710   51.8440 C   0  0  0  0  0  0  0  0  0  0  0  0
   56.2570   30.9980   51.8660 C   0  0  0  0  0  0  0  0  0  0  0  0
   57.0060   31.5520   50.8360 O   0  0  0  0  0  0  0  0  0  0  0  0
  1  2  2  0
  2  3  1  0
  3  4  2  3
  4  5  1  0
  5  6  2  0
  6  7  1  0
  7  8  2  0
  8  9  1  0
  9 10  2  0
  9 11  1  0
 11 12  1  0
 12 13  1  0
  2 14  1  0
 14 15  2  3
 15 16  1  0
 16 17  1  0
 17 18  2  0
 18 19  1  0
 19 20  1  0
 20 21  1  0
 21 22  1  0
 22 23  2  0
 22 24  1  0
 24 25  1  0
 25 26  1  0
 18 27  1  0
 27 28  2  0
 28 29  1  0
 10  5  1  0
 28 15  1  0
 13  8  1  0
 25 20  2  0
M  CHG  4  16  -1  24  -1  26  -1  29  -1
M  END
>  <UniqueID>  (1850) 
72

>  <SMILES>  (1850) 
O=C(C=Cc1ccc2c(c1)OCO2)N=c1[n-]nc(Cc2sc(=O)[n-]c2[O-])cc1[O-]

>  <Energy>  (1850) 
114.44220564620193

>  <Genealogy>  (1850) 
O=C(C=Cc1ccc2c(c1)OCO2)N=c1[n-]nc(Cc2sc(=O)[n-]c2[O-])cc1[O-] (protonated)
O=C(C=Cc1ccc2c(c1)OCO2)N=c1[n-]nc(Cc2sc(=O)[n-]c2[O-])cc1[O-] (3D coordinates assigned)
O=C(C=Cc1ccc2c(c1)OCO2)N=c1[n-]nc(Cc2sc(=O)[n-]c2[O-])cc1[O-] (nonaromatic ring conformer: 114.44220564620193 kcal/mol)

>  <smiles>  (1850) 
O=C(C=Cc1ccc2c(c1)OCO2)N=c1[nH]nc(Cc2sc(=O)[nH]c2O)cc1O

>  <score_type>  (1850) 
oracle

>  <origin>  (1850) 
adg

>  <m_score__min__energy>  (1850) 
-17.440000000000001

>  <m_primary>  (1850) 
energy

$$$$
79:0
     RDKit          3D

 34 38  0  0  0  0  0  0  0  0999 V2000
   59.3750   28.4190   48.8340 C   0  0  0  0  0  0  0  0  0  0  0  0
   59.0300   29.3020   47.8820 C   0  0  0  0  0  0  0  0  0  0  0  0
   58.5360   29.0240   46.6010 C   0  0  0  0  0  0  0  0  0  0  0  0
   58.3990   27.8610   45.9380 C   0  0  0  0  0  0  0  0  0  0  0  0
   57.2140   26.9990   45.9590 C   0  0  0  0  0  0  0  0  0  0  0  0
   57.2060   25.7490   46.4580 N   0  0  0  0  0  0  0  0  0  0  0  0
   55.9070   25.3880   46.3700 C   0  0  0  0  0  0  0  0  0  0  0  0
   55.4920   24.2550   46.7320 O   0  0  0  0  0  0  0  0  0  0  0  0
   55.0870   26.3370   45.8650 N   0  0  0  0  0  0  0  0  0  0  0  0
   55.9260   27.3540   45.6190 C   0  0  0  0  0  0  0  0  0  0  0  0
   55.5200   28.5850   45.1180 O   0  0  0  0  0  0  0  0  0  0  0  0
   58.1730   30.2410   46.0550 C   0  0  0  0  0  0  0  0  0  0  0  0
   58.5000   31.2220   46.9750 C   0  0  0  0  0  0  0  0  0  0  0  0
   58.3590   32.6900   46.7430 C   0  0  0  0  0  0  0  0  0  0  0  0
   57.2210   33.2290   46.8750 O   0  0  0  0  0  0  0  0  0  0  0  0
   59.5260   33.5140   46.4740 N   0  0  2  0  0  0  0  0  0  0  0  0
   60.7420   32.6590   46.5250 C   0  0  0  0  0  0  0  0  0  0  0  0
   62.0150   33.4750   46.7970 C   0  0  0  0  0  0  0  0  0  0  0  0
   61.9640   34.2040   48.1770 C   0  0  2  0  0  0  0  0  0  0  0  0
   62.7450   33.4480   49.2050 N   0  0  0  0  0  0  0  0  0  0  0  0
   63.0630   34.2460   50.4200 C   0  0  0  0  0  0  0  0  0  0  0  0
   63.8850   33.3980   51.4070 C   0  0  0  0  0  0  0  0  0  0  0  0
   65.0920   32.9610   50.8120 O   0  0  0  0  0  0  0  0  0  0  0  0
   64.7990   32.1570   49.6880 C   0  0  0  0  0  0  0  0  0  0  0  0
   64.0290   32.9630   48.6340 C   0  0  0  0  0  0  0  0  0  0  0  0
   60.4800   34.4560   48.5870 C   0  0  0  0  0  0  0  0  0  0  0  0
   59.6020   34.7110   47.3590 C   0  0  0  0  0  0  0  0  0  0  0  0
   59.0170   30.6470   48.0870 N   0  0  0  0  0  0  0  0  0  0  0  0
   59.2750   31.3150   49.3350 C   0  0  0  0  0  0  0  0  0  0  0  0
   60.5470   31.2560   49.9270 C   0  0  0  0  0  0  0  0  0  0  0  0
   60.7850   31.9090   51.1440 C   0  0  0  0  0  0  0  0  0  0  0  0
   59.7570   32.6200   51.7730 C   0  0  0  0  0  0  0  0  0  0  0  0
   58.4880   32.6770   51.1870 C   0  0  0  0  0  0  0  0  0  0  0  0
   58.2480   32.0340   49.9670 C   0  0  0  0  0  0  0  0  0  0  0  0
  1  2  2  0
  2  3  1  0
  3  4  2  3
  4  5  1  0
  5  6  1  0
  6  7  1  0
  7  8  2  0
  7  9  1  0
  9 10  1  0
 10 11  1  0
  3 12  1  0
 12 13  2  0
 13 14  1  0
 14 15  2  0
 16 14  1  1
 16 17  1  0
 17 18  1  0
 18 19  1  0
 19 20  1  1
 20 21  1  0
 21 22  1  0
 22 23  1  0
 23 24  1  0
 24 25  1  0
 19 26  1  0
 26 27  1  0
 13 28  1  0
 28 29  1  0
 29 30  2  0
 30 31  1  0
 31 32  2  0
 32 33  1  0
 33 34  2  0
 28  2  1  0
 34 29  1  0
 10  5  2  0
 27 16  1  0
 25 20  1  0
M  CHG  4   6  -1   9  -1  11  -1  16   1
M  END
>  <UniqueID>  (1851) 
78

>  <SMILES>  (1851) 
C=c1c(=Cc2[n-]c(=O)[n-]c2[O-])cc(C(=O)[NH+]2CCC(N3CCOCC3)CC2)n1-c1ccccc1

>  <Energy>  (1851) 
166.41496702983258

>  <Genealogy>  (1851) 
C=c1c(=Cc2[n-]c(=O)[n-]c2[O-])cc(C(=O)[NH+]2CCC(N3CCOCC3)CC2)n1-c1ccccc1 (protonated)
C=c1c(=Cc2[n-]c(=O)[n-]c2[O-])cc(C(=O)[NH+]2CCC(N3CCOCC3)CC2)n1-c1ccccc1 (3D coordinates assigned)
C=c1c(=Cc2[n-]c(=O)[n-]c2[O-])cc(C(=O)[NH+]2CCC(N3CCOCC3)CC2)n1-c1ccccc1 (nonaromatic ring conformer: 166.41496702983258 kcal/mol)

>  <smiles>  (1851) 
C=c1c(=Cc2[nH]c(=O)[nH]c2O)cc(C(=O)N2CCC(N3CCOCC3)CC2)n1-c1ccccc1

>  <score_type>  (1851) 
oracle

>  <origin>  (1851) 
adg

>  <m_score__min__energy>  (1851) 
-17.120000000000001

>  <m_primary>  (1851) 
energy

$$$$
81:0
     RDKit          3D

 26 28  0  0  0  0  0  0  0  0999 V2000
   59.1490   35.4320   44.8060 O   0  0  0  0  0  0  0  0  0  0  0  0
   58.9050   34.5340   45.6600 C   0  0  0  0  0  0  0  0  0  0  0  0
   57.7030   33.7510   45.5700 N   0  0  0  0  0  0  0  0  0  0  0  0
   57.6340   32.4570   45.4700 C   0  0  0  0  0  0  0  0  0  0  0  0
   56.6210   31.7880   44.8710 N   0  0  0  0  0  0  0  0  0  0  0  0
   56.7870   30.4670   44.8960 N   0  0  0  0  0  0  0  0  0  0  0  0
   57.9270   30.0890   45.5140 C   0  0  0  0  0  0  0  0  0  0  0  0
   58.4380   28.4210   45.6760 S   0  0  0  0  0  0  0  0  0  0  0  0
   59.7820   28.2610   45.0230 O   0  0  0  0  0  0  0  0  0  0  0  0
   58.5510   28.0520   47.1290 O   0  0  0  0  0  0  0  0  0  0  0  0
   57.2920   27.3740   44.9020 N   0  0  0  0  0  0  0  0  0  0  0  0
   57.0120   26.0310   45.3420 C   0  0  0  0  0  0  0  0  0  0  0  0
   57.9720   25.0060   45.2250 C   0  0  0  0  0  0  0  0  0  0  0  0
   57.6810   23.7100   45.6580 C   0  0  0  0  0  0  0  0  0  0  0  0
   56.4320   23.4190   46.2080 C   0  0  0  0  0  0  0  0  0  0  0  0
   55.4680   24.4220   46.3210 C   0  0  0  0  0  0  0  0  0  0  0  0
   55.7500   25.7220   45.8900 C   0  0  0  0  0  0  0  0  0  0  0  0
   54.7750   26.7060   46.0170 O   0  0  0  0  0  0  0  0  0  0  0  0
   58.8080   31.4140   46.0710 S   0  0  0  0  0  0  0  0  0  0  0  0
   59.8680   34.2830   46.7580 C   0  0  0  0  0  0  0  0  0  0  0  0
   59.4840   34.4610   48.1010 C   0  0  0  0  0  0  0  0  0  0  0  0
   60.3950   34.2290   49.1360 C   0  0  0  0  0  0  0  0  0  0  0  0
   61.6980   33.8180   48.8440 C   0  0  0  0  0  0  0  0  0  0  0  0
   62.0920   33.6360   47.5160 C   0  0  0  0  0  0  0  0  0  0  0  0
   63.7290   33.1210   47.1530 Cl  0  0  0  0  0  0  0  0  0  0  0  0
   61.1850   33.8670   46.4770 C   0  0  0  0  0  0  0  0  0  0  0  0
  1  2  2  0
  2  3  1  0
  3  4  2  3
  4  5  1  0
  5  6  1  0
  6  7  2  0
  7  8  1  0
  8  9  2  0
  8 10  2  0
  8 11  1  0
 11 12  1  0
 12 13  2  0
 13 14  1  0
 14 15  2  0
 15 16  1  0
 16 17  2  0
 17 18  1  0
  7 19  1  0
  2 20  1  0
 20 21  2  0
 21 22  1  0
 22 23  2  0
 23 24  1  0
 24 25  1  0
 24 26  2  0
 19  4  1  0
 26 20  1  0
 17 12  1  0
M  CHG  2   5  -1  18  -1
M  END
>  <UniqueID>  (1852) 
79

>  <SMILES>  (1852) 
O=C(N=c1[n-]nc(S(=O)(=O)Nc2ccccc2[O-])s1)c1cccc(Cl)c1

>  <Energy>  (1852) 
78.59186585336965

>  <Genealogy>  (1852) 
O=C(N=c1[n-]nc(S(=O)(=O)Nc2ccccc2[O-])s1)c1cccc(Cl)c1 (protonated)
O=C(N=c1[n-]nc(S(=O)(=O)Nc2ccccc2[O-])s1)c1cccc(Cl)c1 (3D coordinates assigned)
O=C(N=c1[n-]nc(S(=O)(=O)Nc2ccccc2[O-])s1)c1cccc(Cl)c1 (optimized conformer: 78.59186585336965 kcal/mol)

>  <smiles>  (1852) 
O=C(N=c1[nH]nc(S(=O)(=O)Nc2ccccc2O)s1)c1cccc(Cl)c1

>  <score_type>  (1852) 
oracle

>  <origin>  (1852) 
adg

>  <m_score__min__energy>  (1852) 
-14.85

>  <m_primary>  (1852) 
energy

$$$$
6:0
     RDKit          3D

 32 35  0  0  0  0  0  0  0  0999 V2000
   57.3670   29.5400   43.9200 C   0  0  0  0  0  0  0  0  0  0  0  0
   57.8690   29.3380   45.1490 C   0  0  0  0  0  0  0  0  0  0  0  0
   58.2100   28.1060   45.7290 C   0  0  0  0  0  0  0  0  0  0  0  0
   57.9300   26.8430   45.3530 C   0  0  0  0  0  0  0  0  0  0  0  0
   57.2390   25.8380   46.1770 C   0  0  0  0  0  0  0  0  0  0  0  0
   57.8160   24.7290   46.6780 N   0  0  0  0  0  0  0  0  0  0  0  0
   56.7780   24.0610   47.2280 C   0  0  0  0  0  0  0  0  0  0  0  0
   56.9190   22.9600   47.8210 O   0  0  0  0  0  0  0  0  0  0  0  0
   55.5760   24.6600   47.0830 N   0  0  0  0  0  0  0  0  0  0  0  0
   55.8860   25.7750   46.4030 C   0  0  0  0  0  0  0  0  0  0  0  0
   54.9480   26.7150   45.9920 O   0  0  0  0  0  0  0  0  0  0  0  0
   58.9380   28.4030   46.8700 C   0  0  0  0  0  0  0  0  0  0  0  0
   58.9490   29.7770   46.9910 C   0  0  0  0  0  0  0  0  0  0  0  0
   59.6160   30.5240   48.1050 C   0  0  0  0  0  0  0  0  0  0  0  0
   58.3010   30.3470   45.9510 N   0  0  0  0  0  0  0  0  0  0  0  0
   58.1480   31.7600   45.7260 C   0  0  0  0  0  0  0  0  0  0  0  0
   57.1870   32.2300   44.8200 C   0  0  0  0  0  0  0  0  0  0  0  0
   57.0450   33.6000   44.5930 C   0  0  0  0  0  0  0  0  0  0  0  0
   57.8550   34.5130   45.2740 C   0  0  0  0  0  0  0  0  0  0  0  0
   58.8100   34.0610   46.2000 C   0  0  0  0  0  0  0  0  0  0  0  0
   59.6680   35.0310   46.9190 C   0  0  0  0  0  0  0  0  0  0  0  0
   59.9130   36.1500   46.3930 O   0  0  0  0  0  0  0  0  0  0  0  0
   60.2760   34.7160   48.1790 N   0  0  0  0  0  0  0  0  0  0  0  0
   61.4740   33.9470   48.3630 C   0  0  0  0  0  0  0  0  0  0  0  0
   62.2270   33.4840   47.2670 C   0  0  0  0  0  0  0  0  0  0  0  0
   63.3770   32.7170   47.4770 C   0  0  0  0  0  0  0  0  0  0  0  0
   64.1010   32.2800   46.4180 F   0  0  0  0  0  0  0  0  0  0  0  0
   63.7790   32.3990   48.7770 C   0  0  0  0  0  0  0  0  0  0  0  0
   63.0260   32.8400   49.8680 C   0  0  0  0  0  0  0  0  0  0  0  0
   61.8720   33.6050   49.6630 C   0  0  0  0  0  0  0  0  0  0  0  0
   61.1480   34.0240   50.7310 F   0  0  0  0  0  0  0  0  0  0  0  0
   58.9590   32.6780   46.4100 C   0  0  0  0  0  0  0  0  0  0  0  0
  1  2  2  0
  2  3  1  0
  3  4  2  0
  4  5  1  0
  5  6  1  0
  6  7  1  0
  7  8  2  0
  7  9  1  0
  9 10  1  0
 10 11  1  0
  3 12  1  0
 12 13  2  0
 13 14  1  0
 13 15  1  0
 15 16  1  0
 16 17  2  0
 17 18  1  0
 18 19  2  0
 19 20  1  0
 20 21  1  0
 21 22  2  0
 21 23  1  0
 23 24  1  0
 24 25  2  0
 25 26  1  0
 26 27  1  0
 26 28  2  0
 28 29  1  0
 29 30  2  0
 30 31  1  0
 20 32  2  0
 15  2  1  0
 32 16  1  0
 10  5  2  0
 30 24  1  0
M  CHG  4   6  -1   9  -1  11  -1  23  -1
M  END
>  <UniqueID>  (1853) 
5

>  <SMILES>  (1853) 
C=c1/c(=C\c2[n-]c(=O)[n-]c2[O-])cc(C)n1-c1cccc(C(=O)[N-]c2cc(F)ccc2F)c1

>  <Energy>  (1853) 
130.08586353164512

>  <Genealogy>  (1853) 
C=c1c(=Cc2[n-]c(=O)[n-]c2[O-])cc(C)n1-c1cccc(C(=O)[N-]c2cc(F)ccc2F)c1 (protonated)
C=c1/c(=C\c2[n-]c(=O)[n-]c2[O-])cc(C)n1-c1cccc(C(=O)[N-]c2cc(F)ccc2F)c1 (cis-trans isomerization)
C=c1/c(=C\c2[n-]c(=O)[n-]c2[O-])cc(C)n1-c1cccc(C(=O)[N-]c2cc(F)ccc2F)c1 (3D coordinates assigned)
C=c1/c(=C\c2[n-]c(=O)[n-]c2[O-])cc(C)n1-c1cccc(C(=O)[N-]c2cc(F)ccc2F)c1 (optimized conformer: 130.08586353164512 kcal/mol)

>  <smiles>  (1853) 
C=c1c(=Cc2[nH]c(=O)[nH]c2O)cc(C)n1-c1cccc(C(=O)Nc2cc(F)ccc2F)c1

>  <score_type>  (1853) 
oracle

>  <origin>  (1853) 
adg

>  <m_score__min__energy>  (1853) 
-17.82

>  <m_primary>  (1853) 
energy

$$$$
27:0
     RDKit          3D

 25 28  0  0  0  0  0  0  0  0999 V2000
   55.8860   31.9180   52.3490 C   0  0  0  0  0  0  0  0  0  0  0  0
   55.3490   30.7270   52.6570 C   0  0  0  0  0  0  0  0  0  0  0  0
   53.9870   30.4290   52.8360 C   0  0  0  0  0  0  0  0  0  0  0  0
   52.8810   31.1530   52.5800 C   0  0  0  0  0  0  0  0  0  0  0  0
   52.2190   31.2750   51.2710 C   0  0  0  0  0  0  0  0  0  0  0  0
   52.2350   30.3310   50.3110 N   0  0  0  0  0  0  0  0  0  0  0  0
   51.3920   30.8220   49.3770 C   0  0  0  0  0  0  0  0  0  0  0  0
   51.1500   30.2200   48.2990 O   0  0  0  0  0  0  0  0  0  0  0  0
   50.8190   32.0040   49.6950 N   0  0  0  0  0  0  0  0  0  0  0  0
   51.3430   32.2680   50.9030 C   0  0  0  0  0  0  0  0  0  0  0  0
   51.0220   33.3900   51.6550 O   0  0  0  0  0  0  0  0  0  0  0  0
   53.9370   29.1400   53.3420 C   0  0  0  0  0  0  0  0  0  0  0  0
   55.2350   28.6810   53.4020 C   0  0  0  0  0  0  0  0  0  0  0  0
   55.6330   27.3120   53.8650 C   0  0  0  0  0  0  0  0  0  0  0  0
   56.0900   29.6330   52.9670 N   0  0  0  0  0  0  0  0  0  0  0  0
   57.5220   29.5220   52.9500 C   0  0  0  0  0  0  0  0  0  0  0  0
   58.3200   29.0360   53.9620 C   0  0  0  0  0  0  0  0  0  0  0  0
   59.6030   29.0550   53.5470 N   0  0  0  0  0  0  0  0  0  0  0  0
   59.6310   29.5260   52.3050 N   0  0  0  0  0  0  0  0  0  0  0  0
   60.8630   29.7390   51.5330 C   0  0  0  0  0  0  0  0  0  0  0  0
   62.0750   29.9660   52.4300 C   0  0  0  0  0  0  0  0  0  0  0  0
   62.6880   28.6660   51.9240 C   0  0  0  0  0  0  0  0  0  0  0  0
   61.4840   28.4420   51.0180 C   0  0  0  0  0  0  0  0  0  0  0  0
   58.3750   29.8330   51.9120 C   0  0  0  0  0  0  0  0  0  0  0  0
   57.9980   30.4360   50.5930 C   0  0  0  0  0  0  0  0  0  0  0  0
  1  2  2  0
  2  3  1  0
  3  4  2  3
  4  5  1  0
  5  6  1  0
  6  7  1  0
  7  8  2  0
  7  9  1  0
  9 10  1  0
 10 11  1  0
  3 12  1  0
 12 13  2  0
 13 14  1  0
 13 15  1  0
 15 16  1  0
 16 17  1  0
 17 18  2  0
 18 19  1  0
 19 20  1  0
 20 21  1  0
 21 22  1  0
 22 23  1  0
 19 24  1  0
 24 25  1  0
 15  2  1  0
 24 16  2  0
 10  5  2  0
 23 20  1  0
M  CHG  3   6  -1   9  -1  11  -1
M  END
>  <UniqueID>  (1854) 
26

>  <SMILES>  (1854) 
C=c1c(=Cc2[n-]c(=O)[n-]c2[O-])cc(C)n1-c1cnn(C2CCC2)c1C

>  <Energy>  (1854) 
211.36593407516688

>  <Genealogy>  (1854) 
C=c1c(=Cc2[n-]c(=O)[n-]c2[O-])cc(C)n1-c1cnn(C2CCC2)c1C (protonated)
C=c1c(=Cc2[n-]c(=O)[n-]c2[O-])cc(C)n1-c1cnn(C2CCC2)c1C (3D coordinates assigned)
C=c1c(=Cc2[n-]c(=O)[n-]c2[O-])cc(C)n1-c1cnn(C2CCC2)c1C (nonaromatic ring conformer: 211.36593407516688 kcal/mol)

>  <smiles>  (1854) 
C=c1c(=Cc2[nH]c(=O)[nH]c2O)cc(C)n1-c1cnn(C2CCC2)c1C

>  <score_type>  (1854) 
oracle

>  <origin>  (1854) 
adg

>  <m_score__min__energy>  (1854) 
-15.539999999999999

>  <m_primary>  (1854) 
energy

$$$$
33:0
     RDKit          3D

 30 33  0  0  0  0  0  0  0  0999 V2000
   54.0470   28.8780   54.2830 C   0  0  0  0  0  0  0  0  0  0  0  0
   54.4990   29.7880   53.4020 C   0  0  0  0  0  0  0  0  0  0  0  0
   53.7260   30.4280   52.4290 C   0  0  0  0  0  0  0  0  0  0  0  0
   52.3970   30.3200   52.2350 C   0  0  0  0  0  0  0  0  0  0  0  0
   51.7060   30.7610   51.0090 C   0  0  0  0  0  0  0  0  0  0  0  0
   51.6730   30.0330   49.8790 N   0  0  0  0  0  0  0  0  0  0  0  0
   51.0240   30.8380   49.0080 C   0  0  0  0  0  0  0  0  0  0  0  0
   50.7830   30.4960   47.8220 O   0  0  0  0  0  0  0  0  0  0  0  0
   50.6670   32.0410   49.5050 N   0  0  0  0  0  0  0  0  0  0  0  0
   51.1170   31.9830   50.7690 C   0  0  0  0  0  0  0  0  0  0  0  0
   51.0310   33.0420   51.6640 O   0  0  0  0  0  0  0  0  0  0  0  0
   54.5910   31.2360   51.7120 C   0  0  0  0  0  0  0  0  0  0  0  0
   55.8470   31.0600   52.2560 C   0  0  0  0  0  0  0  0  0  0  0  0
   57.0660   31.7100   51.7350 C   0  0  0  0  0  0  0  0  0  0  0  0
   57.2800   31.7550   50.4960 O   0  0  0  0  0  0  0  0  0  0  0  0
   58.0110   32.3010   52.6270 N   0  0  0  0  0  0  0  0  0  0  0  0
   58.1420   32.5910   54.0680 C   0  0  0  0  0  0  0  0  0  0  0  0
   59.4160   33.3590   53.9580 C   0  0  0  0  0  0  0  0  0  0  0  0
   60.4870   32.6970   54.5350 F   0  0  0  0  0  0  0  0  0  0  0  0
   59.2720   33.0560   52.5040 C   0  0  0  0  0  0  0  0  0  0  0  0
   55.7980   30.1870   53.2950 N   0  0  0  0  0  0  0  0  0  0  0  0
   56.9650   29.6490   54.0200 C   0  0  0  0  0  0  0  0  0  0  0  0
   57.6920   28.5810   53.1910 C   0  0  0  0  0  0  0  0  0  0  0  0
   59.0050   29.0900   52.6560 C   0  0  0  0  0  0  0  0  0  0  0  0
   60.0550   29.4040   53.5360 C   0  0  0  0  0  0  0  0  0  0  0  0
   61.2500   29.9380   53.0460 C   0  0  0  0  0  0  0  0  0  0  0  0
   61.4060   30.1640   51.6750 C   0  0  0  0  0  0  0  0  0  0  0  0
   62.5930   30.6970   51.1890 O   0  0  0  0  0  0  0  0  0  0  0  0
   60.3650   29.8560   50.7930 C   0  0  0  0  0  0  0  0  0  0  0  0
   59.1670   29.3240   51.2810 C   0  0  0  0  0  0  0  0  0  0  0  0
  1  2  2  0
  2  3  1  0
  3  4  2  0
  4  5  1  0
  5  6  1  0
  6  7  1  0
  7  8  2  0
  7  9  1  0
  9 10  1  0
 10 11  1  0
  3 12  1  0
 12 13  2  0
 13 14  1  0
 14 15  2  0
 14 16  1  0
 16 17  1  0
 17 18  1  0
 18 19  1  0
 18 20  1  0
 13 21  1  0
 21 22  1  0
 22 23  1  0
 23 24  1  0
 24 25  2  0
 25 26  1  0
 26 27  2  0
 27 28  1  0
 27 29  1  0
 29 30  2  0
 21  2  1  0
 30 24  1  0
 10  5  2  0
 20 16  1  0
M  CHG  4   6  -1   9  -1  11  -1  28  -1
M  END
>  <UniqueID>  (1855) 
31

>  <SMILES>  (1855) 
C=c1/c(=C/c2[n-]c(=O)[n-]c2[O-])cc(C(=O)N2CC(F)C2)n1CCc1ccc([O-])cc1

>  <Energy>  (1855) 
158.23781172840873

>  <Genealogy>  (1855) 
C=c1c(=Cc2[n-]c(=O)[n-]c2[O-])cc(C(=O)N2CC(F)C2)n1CCc1ccc([O-])cc1 (protonated)
C=c1/c(=C/c2[n-]c(=O)[n-]c2[O-])cc(C(=O)N2CC(F)C2)n1CCc1ccc([O-])cc1 (cis-trans isomerization)
C=c1/c(=C/c2[n-]c(=O)[n-]c2[O-])cc(C(=O)N2CC(F)C2)n1CCc1ccc([O-])cc1 (3D coordinates assigned)
C=c1/c(=C/c2[n-]c(=O)[n-]c2[O-])cc(C(=O)N2CC(F)C2)n1CCc1ccc([O-])cc1 (nonaromatic ring conformer: 158.23781172840873 kcal/mol)

>  <smiles>  (1855) 
C=c1c(=Cc2[nH]c(=O)[nH]c2O)cc(C(=O)N2CC(F)C2)n1CCc1ccc(O)cc1

>  <score_type>  (1855) 
oracle

>  <origin>  (1855) 
adg

>  <m_score__min__energy>  (1855) 
-16.420000000000002

>  <m_primary>  (1855) 
energy

$$$$
34:0
     RDKit          3D

 28 30  0  0  0  0  0  0  0  0999 V2000
   59.0950   26.3340   48.1610 O   0  0  0  0  0  0  0  0  0  0  0  0
   58.4120   26.0540   47.1390 C   0  0  0  0  0  0  0  0  0  0  0  0
   58.0410   24.6920   46.8800 N   0  0  0  0  0  0  0  0  0  0  0  0
   56.8500   24.1660   46.7830 C   0  0  0  0  0  0  0  0  0  0  0  0
   55.8960   24.8870   46.1320 N   0  0  0  0  0  0  0  0  0  0  0  0
   54.6250   24.4360   45.9600 C   0  0  0  0  0  0  0  0  0  0  0  0
   54.2530   23.1920   46.4640 C   0  0  0  0  0  0  0  0  0  0  0  0
   55.1890   22.4330   47.1620 C   0  0  0  0  0  0  0  0  0  0  0  0
   56.4890   22.9140   47.3480 C   0  0  0  0  0  0  0  0  0  0  0  0
   57.3620   22.1670   48.1290 O   0  0  0  0  0  0  0  0  0  0  0  0
   58.0960   27.1110   46.1500 C   0  0  0  0  0  0  0  0  0  0  0  0
   59.1130   27.6820   45.3640 C   0  0  0  0  0  0  0  0  0  0  0  0
   58.8140   28.6770   44.4290 C   0  0  0  0  0  0  0  0  0  0  0  0
   57.4890   29.1220   44.2610 C   0  0  0  0  0  0  0  0  0  0  0  0
   57.1410   30.1220   43.3360 O   0  0  0  0  0  0  0  0  0  0  0  0
   57.6120   31.4700   43.3660 C   0  0  0  0  0  0  0  0  0  0  0  0
   57.4470   32.0640   44.7390 C   0  0  0  0  0  0  0  0  0  0  0  0
   56.2860   32.1700   45.2180 O   0  0  0  0  0  0  0  0  0  0  0  0
   58.6110   32.5640   45.5140 C   0  0  0  0  0  0  0  0  0  0  0  0
   59.4220   31.6660   46.2360 C   0  0  0  0  0  0  0  0  0  0  0  0
   60.5230   32.1280   46.9630 C   0  0  0  0  0  0  0  0  0  0  0  0
   60.8300   33.4890   46.9770 C   0  0  0  0  0  0  0  0  0  0  0  0
   60.0380   34.3910   46.2650 C   0  0  0  0  0  0  0  0  0  0  0  0
   58.9320   33.9390   45.5370 C   0  0  0  0  0  0  0  0  0  0  0  0
   58.1520   34.8670   44.8550 O   0  0  0  0  0  0  0  0  0  0  0  0
   56.4750   28.5510   45.0390 C   0  0  0  0  0  0  0  0  0  0  0  0
   55.1600   28.9750   44.8860 O   0  0  0  0  0  0  0  0  0  0  0  0
   56.7740   27.5540   45.9750 C   0  0  0  0  0  0  0  0  0  0  0  0
  1  2  2  0
  2  3  1  0
  3  4  2  3
  4  5  1  0
  5  6  1  0
  6  7  2  0
  7  8  1  0
  8  9  2  0
  9 10  1  0
  2 11  1  0
 11 12  2  0
 12 13  1  0
 13 14  2  0
 14 15  1  0
 15 16  1  0
 16 17  1  0
 17 18  2  0
 17 19  1  0
 19 20  2  0
 20 21  1  0
 21 22  2  0
 22 23  1  0
 23 24  2  0
 24 25  1  0
 14 26  1  0
 26 27  1  0
 26 28  2  0
  9  4  1  0
 28 11  1  0
 24 19  1  0
M  CHG  4   5  -1  10  -1  25  -1  27  -1
M  END
>  <UniqueID>  (1856) 
32

>  <SMILES>  (1856) 
O=C(N=c1[n-]cccc1[O-])c1ccc(OCC(=O)c2ccccc2[O-])c([O-])c1

>  <Energy>  (1856) 
60.35256410398506

>  <Genealogy>  (1856) 
O=C(N=c1[n-]cccc1[O-])c1ccc(OCC(=O)c2ccccc2[O-])c([O-])c1 (protonated)
O=C(N=c1[n-]cccc1[O-])c1ccc(OCC(=O)c2ccccc2[O-])c([O-])c1 (3D coordinates assigned)
O=C(N=c1[n-]cccc1[O-])c1ccc(OCC(=O)c2ccccc2[O-])c([O-])c1 (optimized conformer: 60.35256410398506 kcal/mol)

>  <smiles>  (1856) 
O=C(N=c1[nH]cccc1O)c1ccc(OCC(=O)c2ccccc2O)c(O)c1

>  <score_type>  (1856) 
oracle

>  <origin>  (1856) 
adg

>  <m_score__min__energy>  (1856) 
-16.969999999999999

>  <m_primary>  (1856) 
energy

$$$$
36:0
     RDKit          3D

 29 31  0  0  0  0  0  0  0  0999 V2000
   57.1580   33.4760   45.9510 C   0  0  0  0  0  0  0  0  0  0  0  0
   57.9990   33.9070   45.0090 C   0  0  0  0  0  0  0  0  0  0  0  0
   59.0170   34.9740   45.3130 C   0  0  0  0  0  0  0  0  0  0  0  0
   60.1940   34.4150   45.9770 N   0  0  0  0  0  0  0  0  0  0  0  0
   60.3060   34.3990   47.4060 C   0  0  0  0  0  0  0  0  0  0  0  0
   59.4320   34.9660   48.1170 O   0  0  0  0  0  0  0  0  0  0  0  0
   61.4700   33.7730   48.0580 C   0  0  0  0  0  0  0  0  0  0  0  0
   62.1690   34.5200   49.0200 C   0  0  0  0  0  0  0  0  0  0  0  0
   63.2850   33.9840   49.6640 C   0  0  0  0  0  0  0  0  0  0  0  0
   63.7110   32.6920   49.3630 C   0  0  0  0  0  0  0  0  0  0  0  0
   63.0170   31.9270   48.4240 C   0  0  0  0  0  0  0  0  0  0  0  0
   61.8900   32.4490   47.7610 C   0  0  0  0  0  0  0  0  0  0  0  0
   61.1420   31.5450   46.8050 C   0  0  0  0  0  0  0  0  0  0  0  0
   59.6880   31.3410   47.2460 C   0  0  0  0  0  0  0  0  0  0  0  0
   59.3050   29.9280   47.1050 N   0  0  0  0  0  0  0  0  0  0  0  0
   59.6250   28.9310   47.9650 C   0  0  0  0  0  0  0  0  0  0  0  0
   60.3970   29.1080   49.2360 C   0  0  0  0  0  0  0  0  0  0  0  0
   59.1400   27.7230   47.5090 C   0  0  0  0  0  0  0  0  0  0  0  0
   58.5080   27.9770   46.2990 C   0  0  0  0  0  0  0  0  0  0  0  0
   57.8670   27.0780   45.5290 C   0  0  0  0  0  0  0  0  0  0  0  0
   57.1550   25.8990   46.0570 C   0  0  0  0  0  0  0  0  0  0  0  0
   57.7820   24.8070   46.5250 N   0  0  0  0  0  0  0  0  0  0  0  0
   56.7720   24.0330   46.9770 C   0  0  0  0  0  0  0  0  0  0  0  0
   56.9630   22.8980   47.4860 O   0  0  0  0  0  0  0  0  0  0  0  0
   55.5420   24.5740   46.8490 N   0  0  0  0  0  0  0  0  0  0  0  0
   55.8010   25.7610   46.2770 C   0  0  0  0  0  0  0  0  0  0  0  0
   54.8260   26.7140   46.0080 O   0  0  0  0  0  0  0  0  0  0  0  0
   58.6320   29.3530   46.0750 C   0  0  0  0  0  0  0  0  0  0  0  0
   58.1860   30.0210   44.9980 C   0  0  0  0  0  0  0  0  0  0  0  0
  1  2  2  0
  2  3  1  0
  3  4  1  0
  4  5  1  0
  5  6  2  0
  5  7  1  0
  7  8  2  0
  8  9  1  0
  9 10  2  0
 10 11  1  0
 11 12  2  0
 12 13  1  0
 13 14  1  0
 14 15  1  0
 15 16  1  0
 16 17  1  0
 16 18  2  0
 18 19  1  0
 19 20  2  3
 20 21  1  0
 21 22  1  0
 22 23  1  0
 23 24  2  0
 23 25  1  0
 25 26  1  0
 26 27  1  0
 19 28  1  0
 28 29  2  0
 12  7  1  0
 28 15  1  0
 26 21  2  0
M  CHG  3  22  -1  25  -1  27  -1
M  END
>  <UniqueID>  (1857) 
33

>  <SMILES>  (1857) 
C=CCNC(=O)c1ccccc1CCn1c(C)cc(=Cc2[n-]c(=O)[n-]c2[O-])c1=C

>  <Energy>  (1857) 
115.01756232740732

>  <Genealogy>  (1857) 
C=CCNC(=O)c1ccccc1CCn1c(C)cc(=Cc2[n-]c(=O)[n-]c2[O-])c1=C (protonated)
C=CCNC(=O)c1ccccc1CCn1c(C)cc(=Cc2[n-]c(=O)[n-]c2[O-])c1=C (3D coordinates assigned)
C=CCNC(=O)c1ccccc1CCn1c(C)cc(=Cc2[n-]c(=O)[n-]c2[O-])c1=C (optimized conformer: 115.01756232740732 kcal/mol)

>  <smiles>  (1857) 
C=CCNC(=O)c1ccccc1CCn1c(C)cc(=Cc2[nH]c(=O)[nH]c2O)c1=C

>  <score_type>  (1857) 
oracle

>  <origin>  (1857) 
adg

>  <m_score__min__energy>  (1857) 
-16.02

>  <m_primary>  (1857) 
energy

$$$$
42:0
     RDKit          3D

 26 28  0  0  0  0  0  0  0  0999 V2000
   60.0730   28.2930   45.4680 O   0  0  0  0  0  0  0  0  0  0  0  0
   58.8410   28.3050   45.2080 C   0  0  0  0  0  0  0  0  0  0  0  0
   58.2290   27.1290   44.5100 C   0  0  0  0  0  0  0  0  0  0  0  0
   57.1170   26.5650   45.3360 C   0  0  0  0  0  0  0  0  0  0  0  0
   57.1130   25.3210   45.8510 N   0  0  0  0  0  0  0  0  0  0  0  0
   55.9060   25.2370   46.4480 C   0  0  0  0  0  0  0  0  0  0  0  0
   55.5230   24.2050   47.0590 O   0  0  0  0  0  0  0  0  0  0  0  0
   55.1380   26.3430   46.3380 N   0  0  0  0  0  0  0  0  0  0  0  0
   55.9180   27.1710   45.6240 C   0  0  0  0  0  0  0  0  0  0  0  0
   55.5400   28.4510   45.2410 O   0  0  0  0  0  0  0  0  0  0  0  0
   58.0080   29.3870   45.6540 N   0  0  0  0  0  0  0  0  0  0  0  0
   58.5090   30.6230   46.1890 C   0  0  0  0  0  0  0  0  0  0  0  0
   58.4850   31.8110   45.4380 C   0  0  0  0  0  0  0  0  0  0  0  0
   58.9570   33.0060   45.9900 C   0  0  0  0  0  0  0  0  0  0  0  0
   59.4490   33.0310   47.3010 C   0  0  0  0  0  0  0  0  0  0  0  0
   60.0140   34.5490   47.9950 S   0  0  0  0  0  0  0  0  0  0  0  0
   59.3630   34.7370   49.3370 O   0  0  0  0  0  0  0  0  0  0  0  0
   59.6180   35.6960   47.1060 O   0  0  0  0  0  0  0  0  0  0  0  0
   61.7510   34.5110   48.1830 N   0  0  0  0  0  0  0  0  0  0  0  0
   62.1010   33.9830   49.5200 C   0  0  0  0  0  0  0  0  0  0  0  0
   63.5550   33.5040   49.5730 C   0  0  0  0  0  0  0  0  0  0  0  0
   63.7920   32.3470   48.5890 C   0  0  0  0  0  0  0  0  0  0  0  0
   62.8120   32.3640   47.4030 C   0  0  0  0  0  0  0  0  0  0  0  0
   62.3930   33.7990   47.0500 C   0  0  0  0  0  0  0  0  0  0  0  0
   59.4480   31.8560   48.0630 C   0  0  0  0  0  0  0  0  0  0  0  0
   58.9750   30.6620   47.5110 C   0  0  0  0  0  0  0  0  0  0  0  0
  1  2  2  0
  2  3  1  0
  3  4  1  0
  4  5  1  0
  5  6  1  0
  6  7  2  0
  6  8  1  0
  8  9  1  0
  9 10  1  0
  2 11  1  0
 11 12  1  0
 12 13  2  0
 13 14  1  0
 14 15  2  0
 15 16  1  0
 16 17  2  0
 16 18  2  0
 16 19  1  0
 19 20  1  0
 20 21  1  0
 21 22  1  0
 22 23  1  0
 23 24  1  0
 15 25  1  0
 25 26  2  0
  9  4  2  0
 26 12  1  0
 24 19  1  0
M  CHG  3   5  -1   8  -1  10  -1
M  END
>  <UniqueID>  (1858) 
38

>  <SMILES>  (1858) 
O=C(Cc1[n-]c(=O)[n-]c1[O-])Nc1ccc(S(=O)(=O)N2CCCCC2)cc1

>  <Energy>  (1858) 
79.3519128296606

>  <Genealogy>  (1858) 
O=C(Cc1[n-]c(=O)[n-]c1[O-])Nc1ccc(S(=O)(=O)N2CCCCC2)cc1 (protonated)
O=C(Cc1[n-]c(=O)[n-]c1[O-])Nc1ccc(S(=O)(=O)N2CCCCC2)cc1 (3D coordinates assigned)
O=C(Cc1[n-]c(=O)[n-]c1[O-])Nc1ccc(S(=O)(=O)N2CCCCC2)cc1 (nonaromatic ring conformer: 79.3519128296606 kcal/mol)

>  <smiles>  (1858) 
O=C(Cc1[nH]c(=O)[nH]c1O)Nc1ccc(S(=O)(=O)N2CCCCC2)cc1

>  <score_type>  (1858) 
oracle

>  <origin>  (1858) 
adg

>  <m_score__min__energy>  (1858) 
-16.899999999999999

>  <m_primary>  (1858) 
energy

$$$$
46:0
     RDKit          3D

 31 33  0  0  0  0  0  0  0  0999 V2000
   58.5120   27.9830   47.2390 C   0  0  0  0  0  0  0  0  0  0  0  0
   58.2880   28.5160   46.0280 C   0  0  0  0  0  0  0  0  0  0  0  0
   57.7890   27.8650   44.8850 C   0  0  0  0  0  0  0  0  0  0  0  0
   57.5540   26.5620   44.6390 C   0  0  0  0  0  0  0  0  0  0  0  0
   57.1500   25.5570   45.6410 C   0  0  0  0  0  0  0  0  0  0  0  0
   55.9020   25.6490   46.2720 C   0  0  0  0  0  0  0  0  0  0  0  0
   55.0480   26.7120   46.0010 O   0  0  0  0  0  0  0  0  0  0  0  0
   55.5200   24.6970   47.1630 N   0  0  0  0  0  0  0  0  0  0  0  0
   56.3230   23.6400   47.4460 C   0  0  0  0  0  0  0  0  0  0  0  0
   55.9510   22.7730   48.2780 O   0  0  0  0  0  0  0  0  0  0  0  0
   57.5260   23.5140   46.8290 N   0  0  0  0  0  0  0  0  0  0  0  0
   57.9520   24.4380   45.9310 C   0  0  0  0  0  0  0  0  0  0  0  0
   59.0650   24.2790   45.3600 O   0  0  0  0  0  0  0  0  0  0  0  0
   57.5610   28.8570   43.9440 C   0  0  0  0  0  0  0  0  0  0  0  0
   57.9730   30.0470   44.5060 C   0  0  0  0  0  0  0  0  0  0  0  0
   57.9110   31.3790   43.8230 C   0  0  0  0  0  0  0  0  0  0  0  0
   58.4080   29.8430   45.7690 N   0  0  0  0  0  0  0  0  0  0  0  0
   58.8900   30.8620   46.6610 C   0  0  0  0  0  0  0  0  0  0  0  0
   58.1920   32.0710   46.7840 C   0  0  0  0  0  0  0  0  0  0  0  0
   58.6430   33.0580   47.6650 C   0  0  0  0  0  0  0  0  0  0  0  0
   59.7840   32.8350   48.4470 C   0  0  0  0  0  0  0  0  0  0  0  0
   60.2800   33.8840   49.3470 C   0  0  0  0  0  0  0  0  0  0  0  0
   59.6840   34.9920   49.3600 O   0  0  0  0  0  0  0  0  0  0  0  0
   61.4300   33.7110   50.1890 N   0  0  0  0  0  0  0  0  0  0  0  0
   62.8300   33.4510   49.8260 C   0  0  0  0  0  0  0  0  0  0  0  0
   63.1630   31.9620   50.0170 C   0  0  0  0  0  0  0  0  0  0  0  0
   63.7090   34.2810   50.7770 C   0  0  0  0  0  0  0  0  0  0  0  0
   63.1220   33.8870   48.3770 C   0  0  0  0  0  0  0  0  0  0  0  0
   60.5090   31.6430   48.2930 C   0  0  0  0  0  0  0  0  0  0  0  0
   60.0580   30.6560   47.4130 C   0  0  0  0  0  0  0  0  0  0  0  0
   60.7690   29.5080   47.2740 F   0  0  0  0  0  0  0  0  0  0  0  0
  1  2  2  0
  2  3  1  0
  3  4  2  0
  4  5  1  0
  5  6  2  0
  6  7  1  0
  6  8  1  0
  8  9  1  0
  9 10  2  0
  9 11  1  0
 11 12  1  0
 12 13  2  0
  3 14  1  0
 14 15  2  0
 15 16  1  0
 15 17  1  0
 17 18  1  0
 18 19  2  0
 19 20  1  0
 20 21  2  0
 21 22  1  0
 22 23  2  0
 22 24  1  0
 24 25  1  0
 25 26  1  0
 25 27  1  0
 25 28  1  0
 21 29  1  0
 29 30  2  0
 30 31  1  0
 17  2  1  0
 30 18  1  0
 12  5  1  0
M  CHG  4   7  -1   8  -1  11  -1  24  -1
M  END
>  <UniqueID>  (1859) 
42

>  <SMILES>  (1859) 
C=c1/c(=C\c2c([O-])[n-]c(=O)[n-]c2=O)cc(C)n1-c1ccc(C(=O)[N-]C(C)(C)C)cc1F

>  <Energy>  (1859) 
105.3806373638699

>  <Genealogy>  (1859) 
C=c1c(=Cc2c([O-])[n-]c(=O)[n-]c2=O)cc(C)n1-c1ccc(C(=O)[N-]C(C)(C)C)cc1F (protonated)
C=c1/c(=C\c2c([O-])[n-]c(=O)[n-]c2=O)cc(C)n1-c1ccc(C(=O)[N-]C(C)(C)C)cc1F (cis-trans isomerization)
C=c1/c(=C\c2c([O-])[n-]c(=O)[n-]c2=O)cc(C)n1-c1ccc(C(=O)[N-]C(C)(C)C)cc1F (3D coordinates assigned)
C=c1/c(=C\c2c([O-])[n-]c(=O)[n-]c2=O)cc(C)n1-c1ccc(C(=O)[N-]C(C)(C)C)cc1F (optimized conformer: 105.3806373638699 kcal/mol)

>  <smiles>  (1859) 
C=c1c(=Cc2c(O)[nH]c(=O)[nH]c2=O)cc(C)n1-c1ccc(C(=O)NC(C)(C)C)cc1F

>  <score_type>  (1859) 
oracle

>  <origin>  (1859) 
adg

>  <m_score__min__energy>  (1859) 
-16.149999999999999

>  <m_primary>  (1859) 
energy

$$$$
47:0
     RDKit          3D

 35 39  0  0  0  0  0  0  0  0999 V2000
   57.6610   25.5640   47.4150 C   0  0  0  0  0  0  0  0  0  0  0  0
   57.9760   26.2610   46.3110 C   0  0  0  0  0  0  0  0  0  0  0  0
   57.6930   25.9260   44.9750 C   0  0  0  0  0  0  0  0  0  0  0  0
   56.9700   24.9190   44.4440 C   0  0  0  0  0  0  0  0  0  0  0  0
   55.6530   24.4610   44.9230 C   0  0  0  0  0  0  0  0  0  0  0  0
   54.7850   25.3290   45.6050 C   0  0  0  0  0  0  0  0  0  0  0  0
   55.1660   26.6370   45.8870 O   0  0  0  0  0  0  0  0  0  0  0  0
   53.5600   24.8940   45.9960 N   0  0  0  0  0  0  0  0  0  0  0  0
   53.1450   23.6300   45.7220 C   0  0  0  0  0  0  0  0  0  0  0  0
   52.0070   23.2470   46.0960 O   0  0  0  0  0  0  0  0  0  0  0  0
   53.9550   22.7810   45.0390 N   0  0  0  0  0  0  0  0  0  0  0  0
   55.1910   23.1690   44.6260 C   0  0  0  0  0  0  0  0  0  0  0  0
   55.9140   22.3590   43.9880 O   0  0  0  0  0  0  0  0  0  0  0  0
   58.3080   26.8920   44.1940 C   0  0  0  0  0  0  0  0  0  0  0  0
   58.9030   27.7870   45.0580 C   0  0  0  0  0  0  0  0  0  0  0  0
   59.6560   29.0110   44.6340 C   0  0  0  0  0  0  0  0  0  0  0  0
   58.6950   27.4130   46.3390 N   0  0  0  0  0  0  0  0  0  0  0  0
   59.2060   28.0960   47.4970 C   0  0  0  0  0  0  0  0  0  0  0  0
   60.1480   27.4730   48.3270 C   0  0  0  0  0  0  0  0  0  0  0  0
   60.6600   28.1470   49.4370 C   0  0  0  0  0  0  0  0  0  0  0  0
   60.2340   29.4450   49.7280 C   0  0  0  0  0  0  0  0  0  0  0  0
   59.2830   30.0810   48.9100 C   0  0  0  0  0  0  0  0  0  0  0  0
   58.8380   31.4600   49.2050 C   0  0  0  0  0  0  0  0  0  0  0  0
   58.1410   31.6780   50.2340 O   0  0  0  0  0  0  0  0  0  0  0  0
   59.2130   32.5580   48.3580 N   0  0  0  0  0  0  0  0  0  0  0  0
   59.7690   33.8190   48.8620 C   0  0  0  0  0  0  0  0  0  0  0  0
   59.6090   34.8510   47.7210 C   0  0  0  0  0  0  0  0  0  0  0  0
   58.9470   34.0710   46.6410 C   0  0  0  0  0  0  0  0  0  0  0  0
   58.5760   34.5100   45.3700 C   0  0  0  0  0  0  0  0  0  0  0  0
   57.9780   33.5920   44.4920 C   0  0  0  0  0  0  0  0  0  0  0  0
   57.7710   32.2580   44.8940 C   0  0  0  0  0  0  0  0  0  0  0  0
   57.0380   31.1130   43.7860 Cl  0  0  0  0  0  0  0  0  0  0  0  0
   58.1570   31.8400   46.1790 C   0  0  0  0  0  0  0  0  0  0  0  0
   58.7350   32.7800   47.0400 C   0  0  0  0  0  0  0  0  0  0  0  0
   58.7850   29.4020   47.7860 C   0  0  0  0  0  0  0  0  0  0  0  0
  1  2  2  0
  2  3  1  0
  3  4  2  3
  4  5  1  0
  5  6  2  0
  6  7  1  0
  6  8  1  0
  8  9  1  0
  9 10  2  0
  9 11  1  0
 11 12  1  0
 12 13  2  0
  3 14  1  0
 14 15  2  0
 15 16  1  0
 15 17  1  0
 17 18  1  0
 18 19  2  0
 19 20  1  0
 20 21  2  0
 21 22  1  0
 22 23  1  0
 23 24  2  0
 23 25  1  0
 25 26  1  0
 26 27  1  0
 27 28  1  0
 28 29  2  0
 29 30  1  0
 30 31  2  0
 31 32  1  0
 31 33  1  0
 33 34  2  0
 22 35  2  0
 17  2  1  0
 35 18  1  0
 12  5  1  0
 34 25  1  0
 34 28  1  0
M  CHG  3   7  -1   8  -1  11  -1
M  END
>  <UniqueID>  (1860) 
43

>  <SMILES>  (1860) 
C=c1c(=Cc2c([O-])[n-]c(=O)[n-]c2=O)cc(C)n1-c1cccc(C(=O)N2CCc3ccc(Cl)cc32)c1

>  <Energy>  (1860) 
128.67116145584075

>  <Genealogy>  (1860) 
C=c1c(=Cc2c([O-])[n-]c(=O)[n-]c2=O)cc(C)n1-c1cccc(C(=O)N2CCc3ccc(Cl)cc32)c1 (protonated)
C=c1c(=Cc2c([O-])[n-]c(=O)[n-]c2=O)cc(C)n1-c1cccc(C(=O)N2CCc3ccc(Cl)cc32)c1 (3D coordinates assigned)
C=c1c(=Cc2c([O-])[n-]c(=O)[n-]c2=O)cc(C)n1-c1cccc(C(=O)N2CCc3ccc(Cl)cc32)c1 (nonaromatic ring conformer: 128.67116145584075 kcal/mol)

>  <smiles>  (1860) 
C=c1c(=Cc2c(O)[nH]c(=O)[nH]c2=O)cc(C)n1-c1cccc(C(=O)N2CCc3ccc(Cl)cc32)c1

>  <score_type>  (1860) 
oracle

>  <origin>  (1860) 
adg

>  <m_score__min__energy>  (1860) 
-18.039999999999999

>  <m_primary>  (1860) 
energy

$$$$
51:0
     RDKit          3D

 34 37  0  0  0  0  0  0  0  0999 V2000
   55.9440   31.6420   52.0250 C   0  0  0  0  0  0  0  0  0  0  0  0
   55.3810   30.5480   52.5650 C   0  0  0  0  0  0  0  0  0  0  0  0
   54.0200   30.3620   52.8370 C   0  0  0  0  0  0  0  0  0  0  0  0
   53.0110   31.2290   52.6090 C   0  0  0  0  0  0  0  0  0  0  0  0
   52.1860   31.2330   51.3890 C   0  0  0  0  0  0  0  0  0  0  0  0
   52.2670   30.2830   50.4400 N   0  0  0  0  0  0  0  0  0  0  0  0
   51.4070   30.7120   49.4910 C   0  0  0  0  0  0  0  0  0  0  0  0
   51.1920   30.0690   48.4320 O   0  0  0  0  0  0  0  0  0  0  0  0
   50.8010   31.8860   49.7640 N   0  0  0  0  0  0  0  0  0  0  0  0
   51.3130   32.2100   50.9620 C   0  0  0  0  0  0  0  0  0  0  0  0
   51.0230   33.3960   51.6260 O   0  0  0  0  0  0  0  0  0  0  0  0
   53.8960   29.0680   53.3300 C   0  0  0  0  0  0  0  0  0  0  0  0
   55.1700   28.5310   53.3590 C   0  0  0  0  0  0  0  0  0  0  0  0
   55.4930   27.1380   53.8060 C   0  0  0  0  0  0  0  0  0  0  0  0
   56.0720   29.4250   52.8940 N   0  0  0  0  0  0  0  0  0  0  0  0
   57.4900   29.2070   52.7720 C   0  0  0  0  0  0  0  0  0  0  0  0
   58.2340   28.7790   53.8820 C   0  0  0  0  0  0  0  0  0  0  0  0
   59.6110   28.5710   53.7680 C   0  0  0  0  0  0  0  0  0  0  0  0
   60.2540   28.7810   52.5440 C   0  0  0  0  0  0  0  0  0  0  0  0
   59.5200   29.1910   51.4190 C   0  0  0  0  0  0  0  0  0  0  0  0
   60.2160   29.4190   50.1350 C   0  0  0  0  0  0  0  0  0  0  0  0
   60.4150   28.4220   49.3760 O   0  0  0  0  0  0  0  0  0  0  0  0
   60.6320   30.7470   49.7200 N   0  0  0  0  0  0  0  0  0  0  0  0
   60.0460   31.9390   50.3570 C   0  0  0  0  0  0  0  0  0  0  0  0
   60.3570   33.2270   49.5810 C   0  0  0  0  0  0  0  0  0  0  0  0
   60.1920   33.0120   48.1340 N   0  0  0  0  0  0  0  0  0  0  0  0
   59.6070   34.0320   47.2990 C   0  0  0  0  0  0  0  0  0  0  0  0
   59.2500   35.1360   47.8010 O   0  0  0  0  0  0  0  0  0  0  0  0
   59.4120   33.7860   45.9320 O   0  0  0  0  0  0  0  0  0  0  0  0
   58.1490   33.4240   45.3740 C   0  0  0  0  0  0  0  0  0  0  0  0
   57.0540   33.4960   46.4350 C   0  0  0  0  0  0  0  0  0  0  0  0
   60.7390   31.8000   47.5030 C   0  0  0  0  0  0  0  0  0  0  0  0
   61.4750   30.9250   48.5260 C   0  0  0  0  0  0  0  0  0  0  0  0
   58.1410   29.4250   51.5450 C   0  0  0  0  0  0  0  0  0  0  0  0
  1  2  2  0
  2  3  1  0
  3  4  2  0
  4  5  1  0
  5  6  1  0
  6  7  1  0
  7  8  2  0
  7  9  1  0
  9 10  1  0
 10 11  1  0
  3 12  1  0
 12 13  2  0
 13 14  1  0
 13 15  1  0
 15 16  1  0
 16 17  2  0
 17 18  1  0
 18 19  2  0
 19 20  1  0
 20 21  1  0
 21 22  2  0
 21 23  1  0
 23 24  1  0
 24 25  1  0
 25 26  1  0
 26 27  1  0
 27 28  2  0
 27 29  1  0
 29 30  1  0
 30 31  1  0
 26 32  1  0
 32 33  1  0
 20 34  2  0
 15  2  1  0
 34 16  1  0
 10  5  2  0
 33 23  1  0
M  CHG  3   6  -1   9  -1  11  -1
M  END
>  <UniqueID>  (1861) 
47

>  <SMILES>  (1861) 
C=c1/c(=C/c2[n-]c(=O)[n-]c2[O-])cc(C)n1-c1cccc(C(=O)N2CCN(C(=O)OCC)CC2)c1

>  <Energy>  (1861) 
133.45255630330388

>  <Genealogy>  (1861) 
C=c1c(=Cc2[n-]c(=O)[n-]c2[O-])cc(C)n1-c1cccc(C(=O)N2CCN(C(=O)OCC)CC2)c1 (protonated)
C=c1/c(=C/c2[n-]c(=O)[n-]c2[O-])cc(C)n1-c1cccc(C(=O)N2CCN(C(=O)OCC)CC2)c1 (cis-trans isomerization)
C=c1/c(=C/c2[n-]c(=O)[n-]c2[O-])cc(C)n1-c1cccc(C(=O)N2CCN(C(=O)OCC)CC2)c1 (3D coordinates assigned)
C=c1/c(=C/c2[n-]c(=O)[n-]c2[O-])cc(C)n1-c1cccc(C(=O)N2CCN(C(=O)OCC)CC2)c1 (nonaromatic ring conformer: 133.45255630330388 kcal/mol)

>  <smiles>  (1861) 
C=c1c(=Cc2[nH]c(=O)[nH]c2O)cc(C)n1-c1cccc(C(=O)N2CCN(C(=O)OCC)CC2)c1

>  <score_type>  (1861) 
oracle

>  <origin>  (1861) 
adg

>  <m_score__min__energy>  (1861) 
-17.289999999999999

>  <m_primary>  (1861) 
energy

$$$$
62:0
     RDKit          3D

 29 32  0  0  0  0  0  0  0  0999 V2000
   55.6860   31.9800   52.3150 C   0  0  0  0  0  0  0  0  0  0  0  0
   55.3230   30.7080   52.5670 C   0  0  0  0  0  0  0  0  0  0  0  0
   54.0100   30.2780   52.7990 C   0  0  0  0  0  0  0  0  0  0  0  0
   52.8240   30.8740   52.5610 C   0  0  0  0  0  0  0  0  0  0  0  0
   52.1880   31.0180   51.2400 C   0  0  0  0  0  0  0  0  0  0  0  0
   52.2150   30.0870   50.2680 N   0  0  0  0  0  0  0  0  0  0  0  0
   51.4020   30.6020   49.3210 C   0  0  0  0  0  0  0  0  0  0  0  0
   51.1790   30.0190   48.2280 O   0  0  0  0  0  0  0  0  0  0  0  0
   50.8390   31.7880   49.6400 N   0  0  0  0  0  0  0  0  0  0  0  0
   51.3370   32.0280   50.8640 C   0  0  0  0  0  0  0  0  0  0  0  0
   51.0170   33.1460   51.6230 O   0  0  0  0  0  0  0  0  0  0  0  0
   54.1120   29.0220   53.3520 C   0  0  0  0  0  0  0  0  0  0  0  0
   55.4500   28.6920   53.3730 C   0  0  0  0  0  0  0  0  0  0  0  0
   55.9150   27.3580   53.8790 C   0  0  0  0  0  0  0  0  0  0  0  0
   56.2060   29.6970   52.8370 N   0  0  0  0  0  0  0  0  0  0  0  0
   57.6840   29.7880   52.6810 C   0  0  0  0  0  0  0  0  0  0  0  0
   58.3520   30.9510   53.4580 C   0  0  0  0  0  0  0  0  0  0  0  0
   59.4050   31.6730   52.6140 C   0  0  0  0  0  0  0  0  0  0  0  0
   58.8060   32.1240   51.3460 N   0  0  0  0  0  0  0  0  0  0  0  0
   59.6180   33.1250   50.6190 C   0  0  0  0  0  0  0  0  0  0  0  0
   59.7300   32.8620   49.1270 C   0  0  0  0  0  0  0  0  0  0  0  0
   58.7340   33.3340   48.2510 C   0  0  0  0  0  0  0  0  0  0  0  0
   58.8260   33.0950   46.8780 C   0  0  0  0  0  0  0  0  0  0  0  0
   59.9180   32.3970   46.3600 C   0  0  0  0  0  0  0  0  0  0  0  0
   60.9280   31.9490   47.2130 C   0  0  0  0  0  0  0  0  0  0  0  0
   60.8440   32.1860   48.5890 C   0  0  0  0  0  0  0  0  0  0  0  0
   61.8620   31.7780   49.3870 F   0  0  0  0  0  0  0  0  0  0  0  0
   58.2640   31.0430   50.4860 C   0  0  0  0  0  0  0  0  0  0  0  0
   58.1070   29.6880   51.1980 C   0  0  0  0  0  0  0  0  0  0  0  0
  1  2  2  0
  2  3  1  0
  3  4  2  0
  4  5  1  0
  5  6  1  0
  6  7  1  0
  7  8  2  0
  7  9  1  0
  9 10  1  0
 10 11  1  0
  3 12  1  0
 12 13  2  0
 13 14  1  0
 13 15  1  0
 15 16  1  0
 16 17  1  0
 17 18  1  0
 18 19  1  0
 19 20  1  0
 20 21  1  0
 21 22  2  0
 22 23  1  0
 23 24  2  0
 24 25  1  0
 25 26  2  0
 26 27  1  0
 19 28  1  0
 28 29  1  0
 15  2  1  0
 29 16  1  0
 10  5  2  0
 26 21  1  0
M  CHG  3   6  -1   9  -1  11  -1
M  END
>  <UniqueID>  (1862) 
58

>  <SMILES>  (1862) 
C=c1/c(=C\c2[n-]c(=O)[n-]c2[O-])cc(C)n1C1CCN(Cc2ccccc2F)CC1

>  <Energy>  (1862) 
144.65794877818283

>  <Genealogy>  (1862) 
C=c1c(=Cc2[n-]c(=O)[n-]c2[O-])cc(C)n1C1CCN(Cc2ccccc2F)CC1 (protonated)
C=c1/c(=C\c2[n-]c(=O)[n-]c2[O-])cc(C)n1C1CCN(Cc2ccccc2F)CC1 (cis-trans isomerization)
C=c1/c(=C\c2[n-]c(=O)[n-]c2[O-])cc(C)n1C1CCN(Cc2ccccc2F)CC1 (3D coordinates assigned)
C=c1/c(=C\c2[n-]c(=O)[n-]c2[O-])cc(C)n1C1CCN(Cc2ccccc2F)CC1 (nonaromatic ring conformer: 144.65794877818283 kcal/mol)

>  <smiles>  (1862) 
C=c1c(=Cc2[nH]c(=O)[nH]c2O)cc(C)n1C1CCN(Cc2ccccc2F)CC1

>  <score_type>  (1862) 
oracle

>  <origin>  (1862) 
adg

>  <m_score__min__energy>  (1862) 
-16.920000000000002

>  <m_primary>  (1862) 
energy

$$$$
63:0
     RDKit          3D

 33 36  0  0  0  0  0  0  0  0999 V2000
   56.4780   29.3510   44.1650 C   0  0  0  0  0  0  0  0  0  0  0  0
   57.6420   28.9860   44.7280 C   0  0  0  0  0  0  0  0  0  0  0  0
   58.1510   27.6830   44.8670 C   0  0  0  0  0  0  0  0  0  0  0  0
   57.5840   26.4820   44.6430 C   0  0  0  0  0  0  0  0  0  0  0  0
   57.1680   25.5220   45.6830 C   0  0  0  0  0  0  0  0  0  0  0  0
   55.9170   25.6490   46.3040 C   0  0  0  0  0  0  0  0  0  0  0  0
   55.0740   26.7070   45.9850 O   0  0  0  0  0  0  0  0  0  0  0  0
   55.5250   24.7390   47.2330 N   0  0  0  0  0  0  0  0  0  0  0  0
   56.3220   23.6910   47.5670 C   0  0  0  0  0  0  0  0  0  0  0  0
   55.9400   22.8630   48.4330 O   0  0  0  0  0  0  0  0  0  0  0  0
   57.5270   23.5320   46.9620 N   0  0  0  0  0  0  0  0  0  0  0  0
   57.9640   24.4140   46.0250 C   0  0  0  0  0  0  0  0  0  0  0  0
   59.0810   24.2280   45.4730 O   0  0  0  0  0  0  0  0  0  0  0  0
   59.4510   27.8220   45.3270 C   0  0  0  0  0  0  0  0  0  0  0  0
   59.6720   29.1720   45.5030 C   0  0  0  0  0  0  0  0  0  0  0  0
   60.9500   29.7670   46.0150 C   0  0  0  0  0  0  0  0  0  0  0  0
   58.5800   29.8790   45.1400 N   0  0  0  0  0  0  0  0  0  0  0  0
   58.4560   31.3120   45.1830 C   0  0  0  0  0  0  0  0  0  0  0  0
   57.8800   32.0040   44.1080 C   0  0  0  0  0  0  0  0  0  0  0  0
   57.7550   33.3930   44.1550 C   0  0  0  0  0  0  0  0  0  0  0  0
   58.2080   34.1020   45.2720 C   0  0  0  0  0  0  0  0  0  0  0  0
   58.8020   33.4240   46.3510 C   0  0  0  0  0  0  0  0  0  0  0  0
   59.2770   34.1790   47.5350 C   0  0  0  0  0  0  0  0  0  0  0  0
   59.2810   35.4400   47.4980 O   0  0  0  0  0  0  0  0  0  0  0  0
   59.7250   33.5050   48.7270 N   0  0  0  0  0  0  0  0  0  0  0  0
   61.1530   33.3630   49.0080 C   0  0  0  0  0  0  0  0  0  0  0  0
   61.5670   31.9150   48.7560 C   0  0  0  0  0  0  0  0  0  0  0  0
   60.6700   30.9740   49.4450 N   0  0  0  0  0  0  0  0  0  0  0  0
   61.1210   29.5980   49.6650 C   0  0  0  0  0  0  0  0  0  0  0  0
   59.2980   31.3230   49.7350 C   0  0  0  0  0  0  0  0  0  0  0  0
   58.5090   30.4550   50.1960 O   0  0  0  0  0  0  0  0  0  0  0  0
   58.7990   32.7290   49.5560 C   0  0  0  0  0  0  0  0  0  0  0  0
   58.9100   32.0240   46.3020 C   0  0  0  0  0  0  0  0  0  0  0  0
  1  2  2  0
  2  3  1  0
  3  4  2  3
  4  5  1  0
  5  6  2  0
  6  7  1  0
  6  8  1  0
  8  9  1  0
  9 10  2  0
  9 11  1  0
 11 12  1  0
 12 13  2  0
  3 14  1  0
 14 15  2  0
 15 16  1  0
 15 17  1  0
 17 18  1  0
 18 19  2  0
 19 20  1  0
 20 21  2  0
 21 22  1  0
 22 23  1  0
 23 24  2  0
 23 25  1  0
 25 26  1  0
 26 27  1  0
 27 28  1  0
 28 29  1  0
 28 30  1  0
 30 31  2  0
 30 32  1  0
 22 33  2  0
 17  2  1  0
 33 18  1  0
 12  5  1  0
 32 25  1  0
M  CHG  3   7  -1   8  -1  11  -1
M  END
>  <UniqueID>  (1863) 
59

>  <SMILES>  (1863) 
C=c1c(=Cc2c([O-])[n-]c(=O)[n-]c2=O)cc(C)n1-c1cccc(C(=O)N2CCN(C)C(=O)C2)c1

>  <Energy>  (1863) 
108.80707394246654

>  <Genealogy>  (1863) 
C=c1c(=Cc2c([O-])[n-]c(=O)[n-]c2=O)cc(C)n1-c1cccc(C(=O)N2CCN(C)C(=O)C2)c1 (protonated)
C=c1c(=Cc2c([O-])[n-]c(=O)[n-]c2=O)cc(C)n1-c1cccc(C(=O)N2CCN(C)C(=O)C2)c1 (3D coordinates assigned)
C=c1c(=Cc2c([O-])[n-]c(=O)[n-]c2=O)cc(C)n1-c1cccc(C(=O)N2CCN(C)C(=O)C2)c1 (nonaromatic ring conformer: 108.80707394246654 kcal/mol)

>  <smiles>  (1863) 
C=c1c(=Cc2c(O)[nH]c(=O)[nH]c2=O)cc(C)n1-c1cccc(C(=O)N2CCN(C)C(=O)C2)c1

>  <score_type>  (1863) 
oracle

>  <origin>  (1863) 
adg

>  <m_score__min__energy>  (1863) 
-17.039999999999999

>  <m_primary>  (1863) 
energy

$$$$
73:0
     RDKit          3D

 31 34  0  0  0  0  0  0  0  0999 V2000
   55.1480   26.7590   45.7990 O   0  0  0  0  0  0  0  0  0  0  0  0
   56.0050   25.7850   46.3000 C   0  0  0  0  0  0  0  0  0  0  0  0
   55.6060   24.7680   47.0830 N   0  0  0  0  0  0  0  0  0  0  0  0
   56.7580   24.1070   47.3170 C   0  0  0  0  0  0  0  0  0  0  0  0
   56.8130   23.0690   48.0280 O   0  0  0  0  0  0  0  0  0  0  0  0
   57.8490   24.6460   46.7320 N   0  0  0  0  0  0  0  0  0  0  0  0
   57.3610   25.7140   46.0770 C   0  0  0  0  0  0  0  0  0  0  0  0
   58.1490   26.6900   45.2920 C   0  0  0  0  0  0  0  0  0  0  0  0
   57.8680   28.0040   45.1560 C   0  0  0  0  0  0  0  0  0  0  0  0
   56.7570   28.5680   44.5340 C   0  0  0  0  0  0  0  0  0  0  0  0
   56.8860   29.9370   44.6520 C   0  0  0  0  0  0  0  0  0  0  0  0
   55.8880   30.9340   44.1470 C   0  0  0  0  0  0  0  0  0  0  0  0
   58.0130   30.2490   45.3260 N   0  0  0  0  0  0  0  0  0  0  0  0
   58.4570   31.5790   45.6470 C   0  0  0  0  0  0  0  0  0  0  0  0
   58.8880   31.8800   46.9460 C   0  0  0  0  0  0  0  0  0  0  0  0
   59.3170   33.1740   47.2680 C   0  0  0  0  0  0  0  0  0  0  0  0
   59.8860   33.5570   48.8910 S   0  0  0  0  0  0  0  0  0  0  0  0
   59.1380   32.7390   49.9080 O   0  0  0  0  0  0  0  0  0  0  0  0
   59.6280   35.0140   49.1600 O   0  0  0  0  0  0  0  0  0  0  0  0
   61.5970   33.2250   49.0010 N   0  0  0  0  0  0  0  0  0  0  0  0
   62.3840   34.2010   48.2100 C   0  0  0  0  0  0  0  0  0  0  0  0
   62.8770   33.6200   46.8750 C   0  0  0  0  0  0  0  0  0  0  0  0
   63.6990   32.4100   47.0650 N   0  0  0  0  0  0  0  0  0  0  0  0
   63.3280   31.6150   48.2510 C   0  0  0  0  0  0  0  0  0  0  0  0
   61.8580   31.8170   48.6400 C   0  0  0  0  0  0  0  0  0  0  0  0
   59.3160   34.1700   46.2830 C   0  0  0  0  0  0  0  0  0  0  0  0
   58.8800   33.8760   44.9880 C   0  0  0  0  0  0  0  0  0  0  0  0
   58.4490   32.5850   44.6680 C   0  0  0  0  0  0  0  0  0  0  0  0
   58.0140   32.3160   43.4110 F   0  0  0  0  0  0  0  0  0  0  0  0
   58.6230   29.0800   45.6450 C   0  0  0  0  0  0  0  0  0  0  0  0
   59.7640   29.0010   46.3480 C   0  0  0  0  0  0  0  0  0  0  0  0
  1  2  1  0
  2  3  1  0
  3  4  1  0
  4  5  2  0
  4  6  1  0
  6  7  1  0
  7  8  1  0
  8  9  2  0
  9 10  1  0
 10 11  2  0
 11 12  1  0
 11 13  1  0
 13 14  1  0
 14 15  2  0
 15 16  1  0
 16 17  1  0
 17 18  2  0
 17 19  2  0
 17 20  1  0
 20 21  1  0
 21 22  1  0
 22 23  1  0
 23 24  1  0
 24 25  1  0
 16 26  2  0
 26 27  1  0
 27 28  2  0
 28 29  1  0
 13 30  1  0
 30 31  2  0
  7  2  2  0
 30  9  1  0
 28 14  1  0
 25 20  1  0
M  CHG  2   3  -1   6  -1
M  END
>  <UniqueID>  (1864) 
69

>  <SMILES>  (1864) 
C=c1/c(=C/c2[n-]c(=O)[n-]c2O)cc(C)n1-c1cc(S(=O)(=O)N2CCNCC2)ccc1F

>  <Energy>  (1864) 
129.9012570134916

>  <Genealogy>  (1864) 
C=c1c(=Cc2[n-]c(=O)[n-]c2O)cc(C)n1-c1cc(S(=O)(=O)N2CCNCC2)ccc1F (protonated)
C=c1/c(=C/c2[n-]c(=O)[n-]c2O)cc(C)n1-c1cc(S(=O)(=O)N2CCNCC2)ccc1F (cis-trans isomerization)
C=c1/c(=C/c2[n-]c(=O)[n-]c2O)cc(C)n1-c1cc(S(=O)(=O)N2CCNCC2)ccc1F (3D coordinates assigned)
C=c1/c(=C/c2[n-]c(=O)[n-]c2O)cc(C)n1-c1cc(S(=O)(=O)N2CCNCC2)ccc1F (nonaromatic ring conformer: 129.9012570134916 kcal/mol)

>  <smiles>  (1864) 
C=c1c(=Cc2[nH]c(=O)[nH]c2O)cc(C)n1-c1cc(S(=O)(=O)N2CCNCC2)ccc1F

>  <score_type>  (1864) 
oracle

>  <origin>  (1864) 
adg

>  <m_score__min__energy>  (1864) 
-14.56

>  <m_primary>  (1864) 
energy

$$$$
78:0
     RDKit          3D

 30 33  0  0  0  0  0  0  0  0999 V2000
   53.7540   29.9570   55.5890 C   0  0  0  0  0  0  0  0  0  0  0  0
   54.2930   30.1310   54.3720 C   0  0  0  0  0  0  0  0  0  0  0  0
   53.6370   30.6050   53.2240 C   0  0  0  0  0  0  0  0  0  0  0  0
   52.3300   30.8030   52.9670 C   0  0  0  0  0  0  0  0  0  0  0  0
   51.7370   30.9870   51.6320 C   0  0  0  0  0  0  0  0  0  0  0  0
   51.9590   30.1810   50.5760 N   0  0  0  0  0  0  0  0  0  0  0  0
   51.3350   30.8180   49.5620 C   0  0  0  0  0  0  0  0  0  0  0  0
   51.3040   30.3600   48.3910 O   0  0  0  0  0  0  0  0  0  0  0  0
   50.7570   31.9910   49.8990 N   0  0  0  0  0  0  0  0  0  0  0  0
   51.0330   32.0880   51.2090 C   0  0  0  0  0  0  0  0  0  0  0  0
   50.6560   33.1650   52.0010 O   0  0  0  0  0  0  0  0  0  0  0  0
   54.6240   30.8310   52.2830 C   0  0  0  0  0  0  0  0  0  0  0  0
   55.8180   30.4440   52.8500 C   0  0  0  0  0  0  0  0  0  0  0  0
   57.1120   30.4900   52.1420 C   0  0  0  0  0  0  0  0  0  0  0  0
   57.4330   29.5220   51.4020 O   0  0  0  0  0  0  0  0  0  0  0  0
   57.9840   31.6300   52.2500 N   0  0  0  0  0  0  0  0  0  0  0  0
   59.4240   31.4730   52.0210 C   0  0  0  0  0  0  0  0  0  0  0  0
   60.2440   32.3960   52.9500 C   0  0  0  0  0  0  0  0  0  0  0  0
   59.5380   33.6210   53.3720 N   0  0  0  0  0  0  0  0  0  0  0  0
   58.5080   34.0390   52.4140 C   0  0  0  0  0  0  0  0  0  0  0  0
   57.4050   32.9790   52.3280 C   0  0  0  0  0  0  0  0  0  0  0  0
   55.6230   30.0010   54.1160 N   0  0  0  0  0  0  0  0  0  0  0  0
   56.6310   29.3690   54.9880 C   0  0  0  0  0  0  0  0  0  0  0  0
   56.8050   27.9200   54.6200 C   0  0  0  0  0  0  0  0  0  0  0  0
   58.0750   27.4320   54.2690 C   0  0  0  0  0  0  0  0  0  0  0  0
   58.2430   26.0900   53.9180 C   0  0  0  0  0  0  0  0  0  0  0  0
   57.1460   25.2230   53.9180 C   0  0  0  0  0  0  0  0  0  0  0  0
   57.3110   23.9220   53.5760 F   0  0  0  0  0  0  0  0  0  0  0  0
   55.8800   25.6990   54.2710 C   0  0  0  0  0  0  0  0  0  0  0  0
   55.7080   27.0410   54.6230 C   0  0  0  0  0  0  0  0  0  0  0  0
  1  2  2  0
  2  3  1  0
  3  4  2  0
  4  5  1  0
  5  6  1  0
  6  7  1  0
  7  8  2  0
  7  9  1  0
  9 10  1  0
 10 11  1  0
  3 12  1  0
 12 13  2  0
 13 14  1  0
 14 15  2  0
 14 16  1  0
 16 17  1  0
 17 18  1  0
 18 19  1  0
 19 20  1  0
 20 21  1  0
 13 22  1  0
 22 23  1  0
 23 24  1  0
 24 25  2  0
 25 26  1  0
 26 27  2  0
 27 28  1  0
 27 29  1  0
 29 30  2  0
 22  2  1  0
 30 24  1  0
 10  5  2  0
 21 16  1  0
M  CHG  3   6  -1   9  -1  11  -1
M  END
>  <UniqueID>  (1865) 
74

>  <SMILES>  (1865) 
C=c1/c(=C\c2[n-]c(=O)[n-]c2[O-])cc(C(=O)N2CCNCC2)n1Cc1ccc(F)cc1

>  <Energy>  (1865) 
129.924438845549

>  <Genealogy>  (1865) 
C=c1c(=Cc2[n-]c(=O)[n-]c2[O-])cc(C(=O)N2CCNCC2)n1Cc1ccc(F)cc1 (protonated)
C=c1/c(=C\c2[n-]c(=O)[n-]c2[O-])cc(C(=O)N2CCNCC2)n1Cc1ccc(F)cc1 (cis-trans isomerization)
C=c1/c(=C\c2[n-]c(=O)[n-]c2[O-])cc(C(=O)N2CCNCC2)n1Cc1ccc(F)cc1 (3D coordinates assigned)
C=c1/c(=C\c2[n-]c(=O)[n-]c2[O-])cc(C(=O)N2CCNCC2)n1Cc1ccc(F)cc1 (nonaromatic ring conformer: 129.924438845549 kcal/mol)

>  <smiles>  (1865) 
C=c1c(=Cc2[nH]c(=O)[nH]c2O)cc(C(=O)N2CCNCC2)n1Cc1ccc(F)cc1

>  <score_type>  (1865) 
oracle

>  <origin>  (1865) 
adg

>  <m_score__min__energy>  (1865) 
-16.059999999999999

>  <m_primary>  (1865) 
energy

$$$$
87:0
     RDKit          3D

 27 29  0  0  0  0  0  0  0  0999 V2000
   55.9950   28.6130   45.2140 O   0  0  0  0  0  0  0  0  0  0  0  0
   56.9730   28.0060   45.7300 C   0  0  0  0  0  0  0  0  0  0  0  0
   58.2840   28.6900   45.8050 C   0  0  0  0  0  0  0  0  0  0  0  0
   59.3610   28.2260   45.0340 C   0  0  0  0  0  0  0  0  0  0  0  0
   60.6070   28.8530   45.1140 C   0  0  0  0  0  0  0  0  0  0  0  0
   60.7950   29.9390   45.9730 C   0  0  0  0  0  0  0  0  0  0  0  0
   59.7320   30.4020   46.7670 C   0  0  0  0  0  0  0  0  0  0  0  0
   59.8810   31.5020   47.6730 N   0  0  0  0  0  0  0  0  0  0  0  0
   60.7080   32.9840   47.3210 S   0  0  0  0  0  0  0  0  0  0  0  0
   60.7710   33.8400   48.5550 O   0  0  0  0  0  0  0  0  0  0  0  0
   62.1020   32.6830   46.8440 O   0  0  0  0  0  0  0  0  0  0  0  0
   59.8330   33.8670   46.0360 C   0  0  0  0  0  0  0  0  0  0  0  0
   58.3360   33.5280   46.0050 C   0  0  0  0  0  0  0  0  0  0  0  0
   57.9530   32.7400   44.7770 C   0  0  0  0  0  0  0  0  0  0  0  0
   58.4900   33.0780   43.5240 C   0  0  0  0  0  0  0  0  0  0  0  0
   58.1160   32.3640   42.3820 C   0  0  0  0  0  0  0  0  0  0  0  0
   57.2050   31.3100   42.4810 C   0  0  0  0  0  0  0  0  0  0  0  0
   56.6650   30.9670   43.7240 C   0  0  0  0  0  0  0  0  0  0  0  0
   57.0360   31.6790   44.8700 C   0  0  0  0  0  0  0  0  0  0  0  0
   58.4840   29.7710   46.6810 C   0  0  0  0  0  0  0  0  0  0  0  0
   56.7650   26.6320   46.2260 C   0  0  0  0  0  0  0  0  0  0  0  0
   57.7620   25.8510   46.6830 N   0  0  0  0  0  0  0  0  0  0  0  0
   57.1420   24.6900   46.9850 C   0  0  0  0  0  0  0  0  0  0  0  0
   57.7530   23.6970   47.4570 O   0  0  0  0  0  0  0  0  0  0  0  0
   55.8150   24.6750   46.7350 N   0  0  0  0  0  0  0  0  0  0  0  0
   55.5920   25.9080   46.2480 C   0  0  0  0  0  0  0  0  0  0  0  0
   54.3500   26.3410   45.8020 O   0  0  0  0  0  0  0  0  0  0  0  0
  1  2  2  0
  2  3  1  0
  3  4  2  0
  4  5  1  0
  5  6  2  0
  6  7  1  0
  7  8  1  0
  8  9  1  0
  9 10  2  0
  9 11  2  0
  9 12  1  0
 12 13  1  0
 13 14  1  0
 14 15  2  0
 15 16  1  0
 16 17  2  0
 17 18  1  0
 18 19  2  0
  7 20  2  0
  2 21  1  0
 21 22  1  0
 22 23  1  0
 23 24  2  0
 23 25  1  0
 25 26  1  0
 26 27  1  0
 20  3  1  0
 26 21  2  0
 19 14  1  0
M  CHG  4   8  -1  22  -1  25  -1  27  -1
M  END
>  <UniqueID>  (1866) 
83

>  <SMILES>  (1866) 
O=C(c1cccc([N-]S(=O)(=O)CCc2ccccc2)c1)c1[n-]c(=O)[n-]c1[O-]

>  <Energy>  (1866) 
73.78994305986862

>  <Genealogy>  (1866) 
O=C(c1cccc([N-]S(=O)(=O)CCc2ccccc2)c1)c1[n-]c(=O)[n-]c1[O-] (protonated)
O=C(c1cccc([N-]S(=O)(=O)CCc2ccccc2)c1)c1[n-]c(=O)[n-]c1[O-] (3D coordinates assigned)
O=C(c1cccc([N-]S(=O)(=O)CCc2ccccc2)c1)c1[n-]c(=O)[n-]c1[O-] (optimized conformer: 73.78994305986862 kcal/mol)

>  <smiles>  (1866) 
O=C(c1cccc(NS(=O)(=O)CCc2ccccc2)c1)c1[nH]c(=O)[nH]c1O

>  <score_type>  (1866) 
oracle

>  <origin>  (1866) 
adg

>  <m_score__min__energy>  (1866) 
-18.649999999999999

>  <m_primary>  (1866) 
energy

$$$$
89:0
     RDKit          3D

 25 27  0  0  0  0  0  0  0  0999 V2000
   53.3080   28.2850   53.4180 C   0  0  0  0  0  0  0  0  0  0  0  0
   54.2830   29.0580   52.9220 C   0  0  0  0  0  0  0  0  0  0  0  0
   55.5540   28.7520   53.3000 N   0  0  0  0  0  0  0  0  0  0  0  0
   56.6260   29.5420   53.0360 C   0  0  0  0  0  0  0  0  0  0  0  0
   57.9740   29.1200   53.5430 C   0  0  0  0  0  0  0  0  0  0  0  0
   56.4320   30.7640   52.3730 C   0  0  0  0  0  0  0  0  0  0  0  0
   57.5520   31.6810   52.0800 C   0  0  0  0  0  0  0  0  0  0  0  0
   57.8390   32.5760   52.9200 O   0  0  0  0  0  0  0  0  0  0  0  0
   58.3050   31.5760   50.8540 N   0  0  0  0  0  0  0  0  0  0  0  0
   58.5840   30.2370   50.3190 C   0  0  0  0  0  0  0  0  0  0  0  0
   59.0480   30.2840   48.8930 C   0  0  0  0  0  0  0  0  0  0  0  0
   59.1220   29.2150   48.2310 O   0  0  0  0  0  0  0  0  0  0  0  0
   59.4680   31.5150   48.2940 N   0  0  0  0  0  0  0  0  0  0  0  0
   59.1600   32.8050   48.9010 C   0  0  0  0  0  0  0  0  0  0  0  0
   59.1470   32.7020   50.4240 C   0  0  0  0  0  0  0  0  0  0  0  0
   55.1420   31.1160   51.9660 C   0  0  0  0  0  0  0  0  0  0  0  0
   54.0530   30.2390   52.1470 C   0  0  0  0  0  0  0  0  0  0  0  0
   52.8820   30.5790   51.5500 C   0  0  0  0  0  0  0  0  0  0  0  0
   51.8110   31.4080   52.1330 C   0  0  0  0  0  0  0  0  0  0  0  0
   51.5520   31.4630   53.4500 N   0  0  0  0  0  0  0  0  0  0  0  0
   50.5910   32.4080   53.5410 C   0  0  0  0  0  0  0  0  0  0  0  0
   50.0680   32.7400   54.6370 O   0  0  0  0  0  0  0  0  0  0  0  0
   50.2440   32.9790   52.3670 N   0  0  0  0  0  0  0  0  0  0  0  0
   51.0350   32.3450   51.4870 C   0  0  0  0  0  0  0  0  0  0  0  0
   51.0680   32.6410   50.1300 O   0  0  0  0  0  0  0  0  0  0  0  0
  1  2  2  0
  2  3  1  0
  3  4  2  0
  4  5  1  0
  4  6  1  0
  6  7  1  0
  7  8  2  0
  7  9  1  0
  9 10  1  0
 10 11  1  0
 11 12  2  0
 11 13  1  0
 13 14  1  0
 14 15  1  0
  6 16  2  0
 16 17  1  0
 17 18  2  0
 18 19  1  0
 19 20  1  0
 20 21  1  0
 21 22  2  0
 21 23  1  0
 23 24  1  0
 24 25  1  0
 17  2  1  0
 24 19  2  0
 15  9  1  0
M  CHG  3  20  -1  23  -1  25  -1
M  END
>  <UniqueID>  (1867) 
85

>  <SMILES>  (1867) 
C=c1nc(C)c(C(=O)N2CCNC(=O)C2)c/c1=C/c1[n-]c(=O)[n-]c1[O-]

>  <Energy>  (1867) 
96.19599413125758

>  <Genealogy>  (1867) 
C=c1nc(C)c(C(=O)N2CCNC(=O)C2)cc1=Cc1[n-]c(=O)[n-]c1[O-] (protonated)
C=c1nc(C)c(C(=O)N2CCNC(=O)C2)c/c1=C/c1[n-]c(=O)[n-]c1[O-] (cis-trans isomerization)
C=c1nc(C)c(C(=O)N2CCNC(=O)C2)c/c1=C/c1[n-]c(=O)[n-]c1[O-] (3D coordinates assigned)
C=c1nc(C)c(C(=O)N2CCNC(=O)C2)c/c1=C/c1[n-]c(=O)[n-]c1[O-] (nonaromatic ring conformer: 96.19599413125758 kcal/mol)

>  <smiles>  (1867) 
C=c1nc(C)c(C(=O)N2CCNC(=O)C2)cc1=Cc1[nH]c(=O)[nH]c1O

>  <score_type>  (1867) 
oracle

>  <origin>  (1867) 
adg

>  <m_score__min__energy>  (1867) 
-16.32

>  <m_primary>  (1867) 
energy

$$$$
7:0
     RDKit          3D

 25 26  0  0  0  0  0  0  0  0999 V2000
   57.0210   22.3670   47.5670 O   0  0  0  0  0  0  0  0  0  0  0  0
   56.1160   23.2140   47.3430 C   0  0  0  0  0  0  0  0  0  0  0  0
   56.3020   24.6240   47.8340 C   0  0  0  0  0  0  0  0  0  0  0  0
   56.9660   25.4310   46.8160 N   0  0  0  0  0  0  0  0  0  0  0  0
   56.3300   26.5110   46.1220 C   0  0  0  0  0  0  0  0  0  0  0  0
   55.0750   26.5100   45.9920 O   0  0  0  0  0  0  0  0  0  0  0  0
   57.1320   27.6230   45.5440 C   0  0  0  0  0  0  0  0  0  0  0  0
   58.5360   27.5080   45.4940 C   0  0  0  0  0  0  0  0  0  0  0  0
   59.3190   28.5350   44.9580 C   0  0  0  0  0  0  0  0  0  0  0  0
   58.7140   29.6900   44.4650 C   0  0  0  0  0  0  0  0  0  0  0  0
   57.3250   29.8210   44.5020 C   0  0  0  0  0  0  0  0  0  0  0  0
   56.5300   28.8000   45.0340 C   0  0  0  0  0  0  0  0  0  0  0  0
   55.1500   28.9680   45.0370 O   0  0  0  0  0  0  0  0  0  0  0  0
   54.9570   22.8030   46.6070 N   0  0  0  0  0  0  0  0  0  0  0  0
   53.9340   23.7060   46.0910 C   0  0  0  0  0  0  0  0  0  0  0  0
   53.6570   23.3900   44.6490 C   0  0  0  0  0  0  0  0  0  0  0  0
   52.4620   23.2560   44.2690 O   0  0  0  0  0  0  0  0  0  0  0  0
   54.7060   23.2700   43.6790 N   0  0  0  0  0  0  0  0  0  0  0  0
   56.0810   22.9440   43.9300 C   0  0  0  0  0  0  0  0  0  0  0  0
   57.0330   23.9310   44.2410 C   0  0  0  0  0  0  0  0  0  0  0  0
   58.3590   23.5720   44.5060 C   0  0  0  0  0  0  0  0  0  0  0  0
   58.7380   22.2270   44.4870 C   0  0  0  0  0  0  0  0  0  0  0  0
   60.0240   21.8810   44.7480 F   0  0  0  0  0  0  0  0  0  0  0  0
   57.7890   21.2390   44.2120 C   0  0  0  0  0  0  0  0  0  0  0  0
   56.4630   21.5960   43.9430 C   0  0  0  0  0  0  0  0  0  0  0  0
  1  2  2  0
  2  3  1  0
  3  4  1  0
  4  5  1  0
  5  6  2  0
  5  7  1  0
  7  8  2  0
  8  9  1  0
  9 10  2  0
 10 11  1  0
 11 12  2  0
 12 13  1  0
  2 14  1  0
 14 15  1  0
 15 16  1  0
 16 17  2  0
 16 18  1  0
 18 19  1  0
 19 20  2  0
 20 21  1  0
 21 22  2  0
 22 23  1  0
 22 24  1  0
 24 25  2  0
 12  7  1  0
 25 19  1  0
M  CHG  4   4  -1  13  -1  14  -1  18  -1
M  END
>  <UniqueID>  (1868) 
7

>  <SMILES>  (1868) 
O=C(C[N-]C(=O)c1ccccc1[O-])[N-]CC(=O)[N-]c1ccc(F)cc1

>  <Energy>  (1868) 
40.43147844623876

>  <Genealogy>  (1868) 
O=C(C[N-]C(=O)c1ccccc1[O-])[N-]CC(=O)[N-]c1ccc(F)cc1 (protonated)
O=C(C[N-]C(=O)c1ccccc1[O-])[N-]CC(=O)[N-]c1ccc(F)cc1 (3D coordinates assigned)
O=C(C[N-]C(=O)c1ccccc1[O-])[N-]CC(=O)[N-]c1ccc(F)cc1 (optimized conformer: 40.43147844623876 kcal/mol)

>  <smiles>  (1868) 
O=C(CNC(=O)c1ccccc1O)NCC(=O)Nc1ccc(F)cc1

>  <score_type>  (1868) 
oracle

>  <origin>  (1868) 
adg

>  <m_score__min__energy>  (1868) 
-15.470000000000001

>  <m_primary>  (1868) 
energy

$$$$
12:0
     RDKit          3D

 22 24  0  0  0  0  0  0  0  0999 V2000
   59.8050   29.1760   45.4060 C   0  0  0  0  0  0  0  0  0  0  0  0
   58.4760   29.2070   45.2280 C   0  0  0  0  0  0  0  0  0  0  0  0
   57.6120   28.1390   44.9330 C   0  0  0  0  0  0  0  0  0  0  0  0
   57.8420   26.8140   44.9060 C   0  0  0  0  0  0  0  0  0  0  0  0
   57.2800   25.8210   45.8360 C   0  0  0  0  0  0  0  0  0  0  0  0
   57.9940   24.8660   46.4610 N   0  0  0  0  0  0  0  0  0  0  0  0
   57.0980   24.3100   47.3040 C   0  0  0  0  0  0  0  0  0  0  0  0
   57.3890   23.3510   48.0660 O   0  0  0  0  0  0  0  0  0  0  0  0
   55.8700   24.8700   47.2770 N   0  0  0  0  0  0  0  0  0  0  0  0
   56.0080   25.8330   46.3530 C   0  0  0  0  0  0  0  0  0  0  0  0
   54.9940   26.7120   45.9940 O   0  0  0  0  0  0  0  0  0  0  0  0
   56.3810   28.6320   44.6730 N   0  0  0  0  0  0  0  0  0  0  0  0
   56.5010   29.9590   44.8570 C   0  0  0  0  0  0  0  0  0  0  0  0
   55.5400   30.7580   44.6980 O   0  0  0  0  0  0  0  0  0  0  0  0
   57.7440   30.3470   45.2020 N   0  0  0  0  0  0  0  0  0  0  0  0
   58.1810   31.7060   45.3830 C   0  0  0  0  0  0  0  0  0  0  0  0
   58.0860   32.6330   44.3330 C   0  0  0  0  0  0  0  0  0  0  0  0
   58.4920   33.9570   44.5240 C   0  0  0  0  0  0  0  0  0  0  0  0
   58.9860   34.3660   45.7650 C   0  0  0  0  0  0  0  0  0  0  0  0
   59.0690   33.4530   46.8210 C   0  0  0  0  0  0  0  0  0  0  0  0
   59.6820   33.9690   48.3820 Cl  0  0  0  0  0  0  0  0  0  0  0  0
   58.6640   32.1270   46.6320 C   0  0  0  0  0  0  0  0  0  0  0  0
  1  2  2  0
  2  3  1  0
  3  4  2  0
  4  5  1  0
  5  6  1  0
  6  7  1  0
  7  8  2  0
  7  9  1  0
  9 10  1  0
 10 11  1  0
  3 12  1  0
 12 13  1  0
 13 14  2  0
 13 15  1  0
 15 16  1  0
 16 17  2  0
 17 18  1  0
 18 19  2  0
 19 20  1  0
 20 21  1  0
 20 22  2  0
 15  2  1  0
 22 16  1  0
 10  5  2  0
M  CHG  4   6  -1   9  -1  11  -1  12  -1
M  END
>  <UniqueID>  (1869) 
10

>  <SMILES>  (1869) 
C=c1/c(=C\c2[n-]c(=O)[n-]c2[O-])[n-]c(=O)n1-c1cccc(Cl)c1

>  <Energy>  (1869) 
112.07434620358242

>  <Genealogy>  (1869) 
C=c1c(=Cc2[n-]c(=O)[n-]c2[O-])[n-]c(=O)n1-c1cccc(Cl)c1 (protonated)
C=c1/c(=C\c2[n-]c(=O)[n-]c2[O-])[n-]c(=O)n1-c1cccc(Cl)c1 (cis-trans isomerization)
C=c1/c(=C\c2[n-]c(=O)[n-]c2[O-])[n-]c(=O)n1-c1cccc(Cl)c1 (3D coordinates assigned)
C=c1/c(=C\c2[n-]c(=O)[n-]c2[O-])[n-]c(=O)n1-c1cccc(Cl)c1 (optimized conformer: 112.07434620358242 kcal/mol)

>  <smiles>  (1869) 
C=c1c(=Cc2[nH]c(=O)[nH]c2O)[nH]c(=O)n1-c1cccc(Cl)c1

>  <score_type>  (1869) 
oracle

>  <origin>  (1869) 
adg

>  <m_score__min__energy>  (1869) 
-17.02

>  <m_primary>  (1869) 
energy

$$$$
21:0
     RDKit          3D

 24 25  0  0  0  0  0  0  0  0999 V2000
   51.3870   32.7240   51.0730 N   0  0  0  0  0  0  0  0  0  0  0  0
   51.8750   31.4280   50.7360 C   0  0  0  0  0  0  0  0  0  0  0  0
   51.3440   30.7870   49.7910 O   0  0  0  0  0  0  0  0  0  0  0  0
   52.9910   30.8410   51.4880 C   0  0  0  0  0  0  0  0  0  0  0  0
   54.3440   31.0180   51.2190 C   0  0  0  0  0  0  0  0  0  0  0  0
   55.1740   30.3290   52.1130 C   0  0  0  0  0  0  0  0  0  0  0  0
   56.9270   30.3910   52.0170 S   0  0  0  0  0  0  0  0  0  0  0  0
   57.4690   28.9900   52.0690 O   0  0  0  0  0  0  0  0  0  0  0  0
   57.4760   31.1680   53.1820 O   0  0  0  0  0  0  0  0  0  0  0  0
   57.4110   31.1400   50.5240 N   0  0  0  0  0  0  0  0  0  0  0  0
   58.7200   30.6510   50.0850 C   0  0  0  0  0  0  0  0  0  0  0  0
   58.5460   29.5330   49.0570 C   0  0  0  0  0  0  0  0  0  0  0  0
   58.5070   30.0950   47.6720 C   0  0  0  0  0  0  0  0  0  0  0  0
   59.1180   31.1670   47.4190 O   0  0  0  0  0  0  0  0  0  0  0  0
   57.6920   29.4620   46.6770 N   0  0  0  0  0  0  0  0  0  0  0  0
   57.4050   29.9600   45.3620 C   0  0  0  0  0  0  0  0  0  0  0  0
   58.2140   30.9320   44.7430 C   0  0  0  0  0  0  0  0  0  0  0  0
   57.9160   31.3780   43.4520 C   0  0  0  0  0  0  0  0  0  0  0  0
   56.8220   30.8510   42.7630 C   0  0  0  0  0  0  0  0  0  0  0  0
   56.0270   29.8690   43.3610 C   0  0  0  0  0  0  0  0  0  0  0  0
   56.3210   29.4190   44.6520 C   0  0  0  0  0  0  0  0  0  0  0  0
   55.5270   28.4340   45.2310 O   0  0  0  0  0  0  0  0  0  0  0  0
   54.4880   29.6130   53.0860 C   0  0  0  0  0  0  0  0  0  0  0  0
   52.8400   29.8360   52.8300 S   0  0  0  0  0  0  0  0  0  0  0  0
  1  2  1  0
  2  3  2  0
  2  4  1  0
  4  5  2  0
  5  6  1  0
  6  7  1  0
  7  8  2  0
  7  9  2  0
  7 10  1  0
 10 11  1  0
 11 12  1  0
 12 13  1  0
 13 14  2  0
 13 15  1  0
 15 16  1  0
 16 17  2  0
 17 18  1  0
 18 19  2  0
 19 20  1  0
 20 21  2  0
 21 22  1  0
  6 23  2  0
 23 24  1  0
 24  4  1  0
 21 16  1  0
M  CHG  4   1  -1  10  -1  15  -1  22  -1
M  END
>  <UniqueID>  (1870) 
19

>  <SMILES>  (1870) 
[NH-]C(=O)c1cc(S(=O)(=O)[N-]CCC(=O)[N-]c2ccccc2[O-])cs1

>  <Energy>  (1870) 
59.683594317908636

>  <Genealogy>  (1870) 
[NH-]C(=O)c1cc(S(=O)(=O)[N-]CCC(=O)[N-]c2ccccc2[O-])cs1 (protonated)
[NH-]C(=O)c1cc(S(=O)(=O)[N-]CCC(=O)[N-]c2ccccc2[O-])cs1 (3D coordinates assigned)
[NH-]C(=O)c1cc(S(=O)(=O)[N-]CCC(=O)[N-]c2ccccc2[O-])cs1 (optimized conformer: 59.683594317908636 kcal/mol)

>  <smiles>  (1870) 
NC(=O)c1cc(S(=O)(=O)NCCC(=O)Nc2ccccc2O)cs1

>  <score_type>  (1870) 
oracle

>  <origin>  (1870) 
adg

>  <m_score__min__energy>  (1870) 
-15.81

>  <m_primary>  (1870) 
energy

$$$$
24:0
     RDKit          3D

 29 32  0  0  0  0  0  0  0  0999 V2000
   58.4470   28.8400   46.9700 C   0  0  0  0  0  0  0  0  0  0  0  0
   58.0890   29.0330   45.6910 C   0  0  0  0  0  0  0  0  0  0  0  0
   57.7230   28.0530   44.7520 C   0  0  0  0  0  0  0  0  0  0  0  0
   57.7890   26.7090   44.8020 C   0  0  0  0  0  0  0  0  0  0  0  0
   57.2870   25.8640   45.8960 C   0  0  0  0  0  0  0  0  0  0  0  0
   57.9720   24.8500   46.4580 N   0  0  0  0  0  0  0  0  0  0  0  0
   57.0690   24.2890   47.2920 C   0  0  0  0  0  0  0  0  0  0  0  0
   57.3430   23.3010   48.0210 O   0  0  0  0  0  0  0  0  0  0  0  0
   55.8470   24.8630   47.2740 N   0  0  0  0  0  0  0  0  0  0  0  0
   55.9990   25.8470   46.3740 C   0  0  0  0  0  0  0  0  0  0  0  0
   54.9800   26.7090   45.9920 O   0  0  0  0  0  0  0  0  0  0  0  0
   57.2590   28.7380   43.6390 C   0  0  0  0  0  0  0  0  0  0  0  0
   57.4130   30.0830   43.9030 C   0  0  0  0  0  0  0  0  0  0  0  0
   57.0360   31.1880   42.9650 C   0  0  0  0  0  0  0  0  0  0  0  0
   57.9170   30.2640   45.1420 N   0  0  0  0  0  0  0  0  0  0  0  0
   58.1420   31.5410   45.7640 C   0  0  0  0  0  0  0  0  0  0  0  0
   57.1500   32.2670   46.0490 O   0  0  0  0  0  0  0  0  0  0  0  0
   59.4740   31.9800   46.0930 N   0  0  0  0  0  0  0  0  0  0  0  0
   59.7690   33.3950   46.3420 C   0  0  0  0  0  0  0  0  0  0  0  0
   60.1900   33.5730   47.8000 C   0  0  0  0  0  0  0  0  0  0  0  0
   61.2370   32.5980   48.1420 N   0  0  0  0  0  0  0  0  0  0  0  0
   62.3070   32.9760   49.0280 C   0  0  0  0  0  0  0  0  0  0  0  0
   63.6410   32.7000   48.6810 C   0  0  0  0  0  0  0  0  0  0  0  0
   64.6840   33.0620   49.5390 C   0  0  0  0  0  0  0  0  0  0  0  0
   64.4030   33.7010   50.7500 C   0  0  0  0  0  0  0  0  0  0  0  0
   63.0810   33.9770   51.1050 C   0  0  0  0  0  0  0  0  0  0  0  0
   62.0360   33.6170   50.2490 C   0  0  0  0  0  0  0  0  0  0  0  0
   60.9890   31.1800   47.8430 C   0  0  0  0  0  0  0  0  0  0  0  0
   60.5420   31.0170   46.3870 C   0  0  0  0  0  0  0  0  0  0  0  0
  1  2  2  0
  2  3  1  0
  3  4  2  0
  4  5  1  0
  5  6  1  0
  6  7  1  0
  7  8  2  0
  7  9  1  0
  9 10  1  0
 10 11  1  0
  3 12  1  0
 12 13  2  0
 13 14  1  0
 13 15  1  0
 15 16  1  0
 16 17  2  0
 16 18  1  0
 18 19  1  0
 19 20  1  0
 20 21  1  0
 21 22  1  0
 22 23  2  0
 23 24  1  0
 24 25  2  0
 25 26  1  0
 26 27  2  0
 21 28  1  0
 28 29  1  0
 15  2  1  0
 29 18  1  0
 10  5  2  0
 27 22  1  0
M  CHG  3   6  -1   9  -1  11  -1
M  END
>  <UniqueID>  (1871) 
21

>  <SMILES>  (1871) 
C=c1/c(=C\c2[n-]c(=O)[n-]c2[O-])cc(C)n1C(=O)N1CCN(c2ccccc2)CC1

>  <Energy>  (1871) 
130.34433689395956

>  <Genealogy>  (1871) 
C=c1c(=Cc2[n-]c(=O)[n-]c2[O-])cc(C)n1C(=O)N1CCN(c2ccccc2)CC1 (protonated)
C=c1/c(=C\c2[n-]c(=O)[n-]c2[O-])cc(C)n1C(=O)N1CCN(c2ccccc2)CC1 (cis-trans isomerization)
C=c1/c(=C\c2[n-]c(=O)[n-]c2[O-])cc(C)n1C(=O)N1CCN(c2ccccc2)CC1 (3D coordinates assigned)
C=c1/c(=C\c2[n-]c(=O)[n-]c2[O-])cc(C)n1C(=O)N1CCN(c2ccccc2)CC1 (nonaromatic ring conformer: 130.34433689395956 kcal/mol)

>  <smiles>  (1871) 
C=c1c(=Cc2[nH]c(=O)[nH]c2O)cc(C)n1C(=O)N1CCN(c2ccccc2)CC1

>  <score_type>  (1871) 
oracle

>  <origin>  (1871) 
adg

>  <m_score__min__energy>  (1871) 
-16.780000000000001

>  <m_primary>  (1871) 
energy

$$$$
39:0
     RDKit          3D

 33 35  0  0  0  0  0  0  0  0999 V2000
   59.8890   29.3500   49.0980 C   0  0  0  0  0  0  0  0  0  0  0  0
   59.8300   30.2960   47.9820 N   0  0  0  0  0  0  0  0  0  0  0  0
   60.7500   30.1510   46.8490 C   0  0  0  0  0  0  0  0  0  0  0  0
   58.9450   31.4310   48.0680 C   0  0  0  0  0  0  0  0  0  0  0  0
   58.6050   31.8720   49.2000 O   0  0  0  0  0  0  0  0  0  0  0  0
   58.4270   32.1050   46.8590 C   0  0  0  0  0  0  0  0  0  0  0  0
   58.2180   33.4930   46.8640 C   0  0  0  0  0  0  0  0  0  0  0  0
   57.7340   34.1360   45.7210 C   0  0  0  0  0  0  0  0  0  0  0  0
   57.4290   33.3980   44.5750 C   0  0  0  0  0  0  0  0  0  0  0  0
   57.5870   31.9990   44.5730 C   0  0  0  0  0  0  0  0  0  0  0  0
   57.2860   31.1970   43.4220 N   0  0  0  0  0  0  0  0  0  0  0  0
   56.5630   29.9610   43.3970 C   0  0  0  0  0  0  0  0  0  0  0  0
   56.3180   29.3740   42.3080 O   0  0  0  0  0  0  0  0  0  0  0  0
   55.9980   29.4160   44.6700 C   0  0  0  0  0  0  0  0  0  0  0  0
   56.9210   28.3830   45.2370 C   0  0  0  0  0  0  0  0  0  0  0  0
   58.2690   28.4710   45.1810 N   0  0  0  0  0  0  0  0  0  0  0  0
   58.6890   27.3270   45.7630 C   0  0  0  0  0  0  0  0  0  0  0  0
   59.9080   27.0500   45.9220 O   0  0  0  0  0  0  0  0  0  0  0  0
   57.6820   26.5200   46.1630 N   0  0  0  0  0  0  0  0  0  0  0  0
   57.7820   25.2580   46.8930 C   0  0  0  0  0  0  0  0  0  0  0  0
   56.4420   24.6000   46.9510 C   0  0  0  0  0  0  0  0  0  0  0  0
   55.8730   24.4350   48.0640 O   0  0  0  0  0  0  0  0  0  0  0  0
   55.8180   24.1600   45.7380 N   0  0  0  0  0  0  0  0  0  0  0  0
   56.3570   23.1920   44.8260 C   0  0  0  0  0  0  0  0  0  0  0  0
   55.8430   23.1400   43.5230 C   0  0  0  0  0  0  0  0  0  0  0  0
   56.3310   22.2050   42.6060 C   0  0  0  0  0  0  0  0  0  0  0  0
   57.3240   21.3020   42.9920 C   0  0  0  0  0  0  0  0  0  0  0  0
   57.8190   21.3220   44.2990 C   0  0  0  0  0  0  0  0  0  0  0  0
   57.3340   22.2560   45.2210 C   0  0  0  0  0  0  0  0  0  0  0  0
   57.7750   22.2020   46.5020 F   0  0  0  0  0  0  0  0  0  0  0  0
   56.5650   27.1910   45.8390 C   0  0  0  0  0  0  0  0  0  0  0  0
   55.2740   26.7320   46.0930 O   0  0  0  0  0  0  0  0  0  0  0  0
   58.1030   31.3650   45.7110 C   0  0  0  0  0  0  0  0  0  0  0  0
  1  2  1  0
  2  3  1  0
  2  4  1  0
  4  5  2  0
  4  6  1  0
  6  7  2  0
  7  8  1  0
  8  9  2  0
  9 10  1  0
 10 11  1  0
 11 12  1  0
 12 13  2  0
 12 14  1  0
 14 15  1  0
 15 16  1  0
 16 17  1  0
 17 18  2  0
 17 19  1  0
 19 20  1  0
 20 21  1  0
 21 22  2  0
 21 23  1  0
 23 24  1  0
 24 25  2  0
 25 26  1  0
 26 27  2  0
 27 28  1  0
 28 29  2  0
 29 30  1  0
 19 31  1  0
 31 32  1  0
 10 33  2  0
 33  6  1  0
 31 15  2  0
 29 24  1  0
M  CHG  3  11  -1  16  -1  23  -1
M  END
>  <UniqueID>  (1872) 
35

>  <SMILES>  (1872) 
CN(C)C(=O)c1cccc([N-]C(=O)Cc2[n-]c(=O)n(CC(=O)[N-]c3ccccc3F)c2O)c1

>  <Energy>  (1872) 
92.630459977995

>  <Genealogy>  (1872) 
CN(C)C(=O)c1cccc([N-]C(=O)Cc2[n-]c(=O)n(CC(=O)[N-]c3ccccc3F)c2O)c1 (protonated)
CN(C)C(=O)c1cccc([N-]C(=O)Cc2[n-]c(=O)n(CC(=O)[N-]c3ccccc3F)c2O)c1 (3D coordinates assigned)
CN(C)C(=O)c1cccc([N-]C(=O)Cc2[n-]c(=O)n(CC(=O)[N-]c3ccccc3F)c2O)c1 (optimized conformer: 92.630459977995 kcal/mol)

>  <smiles>  (1872) 
CN(C)C(=O)c1cccc(NC(=O)Cc2[nH]c(=O)n(CC(=O)Nc3ccccc3F)c2O)c1

>  <score_type>  (1872) 
oracle

>  <origin>  (1872) 
adg

>  <m_score__min__energy>  (1872) 
-14.369999999999999

>  <m_primary>  (1872) 
energy

$$$$
54:0
     RDKit          3D

 31 34  0  0  0  0  0  0  0  0999 V2000
   58.6810   29.9610   44.2740 C   0  0  0  0  0  0  0  0  0  0  0  0
   58.6920   29.5090   45.5390 C   0  0  0  0  0  0  0  0  0  0  0  0
   58.2000   28.2820   46.0100 C   0  0  0  0  0  0  0  0  0  0  0  0
   57.8110   27.1750   45.3480 C   0  0  0  0  0  0  0  0  0  0  0  0
   57.2090   25.9800   45.9660 C   0  0  0  0  0  0  0  0  0  0  0  0
   57.9020   24.9310   46.4470 N   0  0  0  0  0  0  0  0  0  0  0  0
   56.9500   24.1620   47.0190 C   0  0  0  0  0  0  0  0  0  0  0  0
   57.2080   23.0580   47.5680 O   0  0  0  0  0  0  0  0  0  0  0  0
   55.6980   24.6630   46.9490 N   0  0  0  0  0  0  0  0  0  0  0  0
   55.8850   25.8220   46.2940 C   0  0  0  0  0  0  0  0  0  0  0  0
   54.8630   26.7140   45.9900 O   0  0  0  0  0  0  0  0  0  0  0  0
   58.1910   28.3730   47.3970 C   0  0  0  0  0  0  0  0  0  0  0  0
   58.7410   29.5970   47.7190 C   0  0  0  0  0  0  0  0  0  0  0  0
   58.9190   30.1210   49.1120 C   0  0  0  0  0  0  0  0  0  0  0  0
   59.0470   30.2820   46.5960 N   0  0  0  0  0  0  0  0  0  0  0  0
   59.5640   31.6190   46.5500 C   0  0  0  0  0  0  0  0  0  0  0  0
   58.7210   32.6830   46.2000 C   0  0  0  0  0  0  0  0  0  0  0  0
   59.2310   33.9810   46.1180 C   0  0  0  0  0  0  0  0  0  0  0  0
   60.5840   34.2200   46.3840 C   0  0  0  0  0  0  0  0  0  0  0  0
   61.4380   33.1610   46.7320 C   0  0  0  0  0  0  0  0  0  0  0  0
   63.1490   33.4790   47.0440 S   0  0  0  0  0  0  0  0  0  0  0  0
   63.6070   34.6100   46.1670 O   0  0  0  0  0  0  0  0  0  0  0  0
   63.9480   32.2630   46.6650 O   0  0  0  0  0  0  0  0  0  0  0  0
   63.4750   33.8750   48.7200 N   0  0  0  0  0  0  0  0  0  0  0  0
   64.2780   32.8410   49.4000 C   0  0  0  0  0  0  0  0  0  0  0  0
   63.4290   31.6610   49.9300 C   0  0  0  0  0  0  0  0  0  0  0  0
   62.0370   31.8790   49.8200 O   0  0  0  0  0  0  0  0  0  0  0  0
   61.7110   33.1400   50.3580 C   0  0  0  0  0  0  0  0  0  0  0  0
   62.2650   34.2690   49.4740 C   0  0  0  0  0  0  0  0  0  0  0  0
   60.9190   31.8570   46.8220 C   0  0  0  0  0  0  0  0  0  0  0  0
   61.7200   30.8160   47.1690 F   0  0  0  0  0  0  0  0  0  0  0  0
  1  2  2  0
  2  3  1  0
  3  4  2  3
  4  5  1  0
  5  6  1  0
  6  7  1  0
  7  8  2  0
  7  9  1  0
  9 10  1  0
 10 11  1  0
  3 12  1  0
 12 13  2  0
 13 14  1  0
 13 15  1  0
 15 16  1  0
 16 17  2  0
 17 18  1  0
 18 19  2  0
 19 20  1  0
 20 21  1  0
 21 22  2  0
 21 23  2  0
 21 24  1  0
 24 25  1  0
 25 26  1  0
 26 27  1  0
 27 28  1  0
 28 29  1  0
 20 30  2  0
 30 31  1  0
 15  2  1  0
 30 16  1  0
 10  5  2  0
 29 24  1  0
M  CHG  3   6  -1   9  -1  11  -1
M  END
>  <UniqueID>  (1873) 
49

>  <SMILES>  (1873) 
C=c1c(=Cc2[n-]c(=O)[n-]c2[O-])cc(C)n1-c1cccc(S(=O)(=O)N2CCOCC2)c1F

>  <Energy>  (1873) 
137.9832480617249

>  <Genealogy>  (1873) 
C=c1c(=Cc2[n-]c(=O)[n-]c2[O-])cc(C)n1-c1cccc(S(=O)(=O)N2CCOCC2)c1F (protonated)
C=c1c(=Cc2[n-]c(=O)[n-]c2[O-])cc(C)n1-c1cccc(S(=O)(=O)N2CCOCC2)c1F (3D coordinates assigned)
C=c1c(=Cc2[n-]c(=O)[n-]c2[O-])cc(C)n1-c1cccc(S(=O)(=O)N2CCOCC2)c1F (nonaromatic ring conformer: 137.9832480617249 kcal/mol)

>  <smiles>  (1873) 
C=c1c(=Cc2[nH]c(=O)[nH]c2O)cc(C)n1-c1cccc(S(=O)(=O)N2CCOCC2)c1F

>  <score_type>  (1873) 
oracle

>  <origin>  (1873) 
adg

>  <m_score__min__energy>  (1873) 
-16.52

>  <m_primary>  (1873) 
energy

$$$$
62:0
     RDKit          3D

 28 31  0  0  0  0  0  0  0  0999 V2000
   54.6580   30.8030   51.2610 C   0  0  0  0  0  0  0  0  0  0  0  0
   54.3560   30.2770   52.4570 C   0  0  0  0  0  0  0  0  0  0  0  0
   53.0800   30.1410   53.0300 C   0  0  0  0  0  0  0  0  0  0  0  0
   51.8510   30.3100   52.5060 C   0  0  0  0  0  0  0  0  0  0  0  0
   51.5570   30.7860   51.1440 C   0  0  0  0  0  0  0  0  0  0  0  0
   51.4850   29.9970   50.0560 N   0  0  0  0  0  0  0  0  0  0  0  0
   51.0560   30.8370   49.0900 C   0  0  0  0  0  0  0  0  0  0  0  0
   50.8760   30.4670   47.9000 O   0  0  0  0  0  0  0  0  0  0  0  0
   50.8210   32.1010   49.5020 N   0  0  0  0  0  0  0  0  0  0  0  0
   51.1300   32.0460   50.8070 C   0  0  0  0  0  0  0  0  0  0  0  0
   51.0170   33.1250   51.6740 O   0  0  0  0  0  0  0  0  0  0  0  0
   53.2850   29.7450   54.3430 C   0  0  0  0  0  0  0  0  0  0  0  0
   54.6460   29.5960   54.5080 C   0  0  0  0  0  0  0  0  0  0  0  0
   55.3120   29.1470   55.7740 C   0  0  0  0  0  0  0  0  0  0  0  0
   55.2940   29.9020   53.3640 N   0  0  0  0  0  0  0  0  0  0  0  0
   56.7220   29.9150   53.1950 C   0  0  0  0  0  0  0  0  0  0  0  0
   57.4540   28.7270   53.3130 C   0  0  0  0  0  0  0  0  0  0  0  0
   58.8400   28.7330   53.1340 C   0  0  0  0  0  0  0  0  0  0  0  0
   59.5160   29.9300   52.8420 C   0  0  0  0  0  0  0  0  0  0  0  0
   60.9450   29.9290   52.6460 N   0  0  0  0  0  0  0  0  0  0  0  0
   61.6250   29.7370   51.4170 C   0  0  0  0  0  0  0  0  0  0  0  0
   61.0400   29.6580   50.3040 O   0  0  0  0  0  0  0  0  0  0  0  0
   63.0930   29.7250   51.5630 C   0  0  0  0  0  0  0  0  0  0  0  0
   63.2970   29.8270   53.0810 C   0  0  0  0  0  0  0  0  0  0  0  0
   61.9240   30.1490   53.7010 C   0  0  0  0  0  0  0  0  0  0  0  0
   58.7730   31.1170   52.7080 C   0  0  0  0  0  0  0  0  0  0  0  0
   57.3860   31.1090   52.8860 C   0  0  0  0  0  0  0  0  0  0  0  0
   56.6880   32.2660   52.7610 F   0  0  0  0  0  0  0  0  0  0  0  0
  1  2  2  0
  2  3  1  0
  3  4  2  0
  4  5  1  0
  5  6  1  0
  6  7  1  0
  7  8  2  0
  7  9  1  0
  9 10  1  0
 10 11  1  0
  3 12  1  0
 12 13  2  0
 13 14  1  0
 13 15  1  0
 15 16  1  0
 16 17  2  0
 17 18  1  0
 18 19  2  0
 19 20  1  0
 20 21  1  0
 21 22  2  0
 21 23  1  0
 23 24  1  0
 24 25  1  0
 19 26  1  0
 26 27  2  0
 27 28  1  0
 15  2  1  0
 27 16  1  0
 10  5  2  0
 25 20  1  0
M  CHG  3   6  -1   9  -1  11  -1
M  END
>  <UniqueID>  (1874) 
57

>  <SMILES>  (1874) 
C=c1/c(=C\c2[n-]c(=O)[n-]c2[O-])cc(C)n1-c1ccc(N2CCCC2=O)cc1F

>  <Energy>  (1874) 
133.11212583202067

>  <Genealogy>  (1874) 
C=c1c(=Cc2[n-]c(=O)[n-]c2[O-])cc(C)n1-c1ccc(N2CCCC2=O)cc1F (protonated)
C=c1/c(=C\c2[n-]c(=O)[n-]c2[O-])cc(C)n1-c1ccc(N2CCCC2=O)cc1F (cis-trans isomerization)
C=c1/c(=C\c2[n-]c(=O)[n-]c2[O-])cc(C)n1-c1ccc(N2CCCC2=O)cc1F (3D coordinates assigned)
C=c1/c(=C\c2[n-]c(=O)[n-]c2[O-])cc(C)n1-c1ccc(N2CCCC2=O)cc1F (nonaromatic ring conformer: 133.11212583202067 kcal/mol)

>  <smiles>  (1874) 
C=c1c(=Cc2[nH]c(=O)[nH]c2O)cc(C)n1-c1ccc(N2CCCC2=O)cc1F

>  <score_type>  (1874) 
oracle

>  <origin>  (1874) 
adg

>  <m_score__min__energy>  (1874) 
-15.470000000000001

>  <m_primary>  (1874) 
energy

$$$$
64:0
     RDKit          3D

 29 31  0  0  0  0  0  0  0  0999 V2000
   61.2210   29.3630   45.3810 C   0  0  0  0  0  0  0  0  0  0  0  0
   60.1280   29.8180   46.0100 C   0  0  0  0  0  0  0  0  0  0  0  0
   58.8270   29.3270   45.8790 C   0  0  0  0  0  0  0  0  0  0  0  0
   58.4130   28.2990   45.1110 C   0  0  0  0  0  0  0  0  0  0  0  0
   57.5290   27.2190   45.6030 C   0  0  0  0  0  0  0  0  0  0  0  0
   56.1310   27.3680   45.6360 C   0  0  0  0  0  0  0  0  0  0  0  0
   55.5300   28.5460   45.2060 O   0  0  0  0  0  0  0  0  0  0  0  0
   55.3510   26.3450   46.0720 N   0  0  0  0  0  0  0  0  0  0  0  0
   55.8950   25.1650   46.4630 C   0  0  0  0  0  0  0  0  0  0  0  0
   55.1520   24.2340   46.8670 O   0  0  0  0  0  0  0  0  0  0  0  0
   57.2400   24.9870   46.4120 N   0  0  0  0  0  0  0  0  0  0  0  0
   58.0640   25.9790   45.9870 C   0  0  0  0  0  0  0  0  0  0  0  0
   59.3080   25.7760   45.9500 O   0  0  0  0  0  0  0  0  0  0  0  0
   58.0330   30.0800   46.7360 C   0  0  0  0  0  0  0  0  0  0  0  0
   58.8680   31.0040   47.3340 C   0  0  0  0  0  0  0  0  0  0  0  0
   58.4350   32.0150   48.3510 C   0  0  0  0  0  0  0  0  0  0  0  0
   60.1360   30.8460   46.8970 N   0  0  0  0  0  0  0  0  0  0  0  0
   61.2680   31.6360   47.3050 C   0  0  0  0  0  0  0  0  0  0  0  0
   62.3180   31.0200   48.0010 C   0  0  0  0  0  0  0  0  0  0  0  0
   63.4500   31.7510   48.3660 C   0  0  0  0  0  0  0  0  0  0  0  0
   63.5420   33.1040   48.0390 C   0  0  0  0  0  0  0  0  0  0  0  0
   62.5020   33.7320   47.3520 C   0  0  0  0  0  0  0  0  0  0  0  0
   61.3530   33.0110   46.9840 C   0  0  0  0  0  0  0  0  0  0  0  0
   60.2480   33.7030   46.2860 C   0  0  0  0  0  0  0  0  0  0  0  0
   59.9690   34.8950   46.5920 O   0  0  0  0  0  0  0  0  0  0  0  0
   59.4820   33.0230   45.2790 N   0  0  0  0  0  0  0  0  0  0  0  0
   58.2930   33.6260   44.6670 C   0  0  0  0  0  0  0  0  0  0  0  0
   57.7550   32.7240   43.5530 C   0  0  0  0  0  0  0  0  0  0  0  0
   57.2180   33.8600   45.7340 C   0  0  0  0  0  0  0  0  0  0  0  0
  1  2  2  0
  2  3  1  0
  3  4  2  3
  4  5  1  0
  5  6  2  0
  6  7  1  0
  6  8  1  0
  8  9  1  0
  9 10  2  0
  9 11  1  0
 11 12  1  0
 12 13  2  0
  3 14  1  0
 14 15  2  0
 15 16  1  0
 15 17  1  0
 17 18  1  0
 18 19  2  0
 19 20  1  0
 20 21  2  0
 21 22  1  0
 22 23  2  0
 23 24  1  0
 24 25  2  0
 24 26  1  0
 26 27  1  0
 27 28  1  0
 27 29  1  0
 17  2  1  0
 23 18  1  0
 12  5  1  0
M  CHG  3   7  -1   8  -1  11  -1
M  END
>  <UniqueID>  (1875) 
59

>  <SMILES>  (1875) 
C=c1c(=Cc2c([O-])[n-]c(=O)[n-]c2=O)cc(C)n1-c1ccccc1C(=O)NC(C)C

>  <Energy>  (1875) 
92.00906564931968

>  <Genealogy>  (1875) 
C=c1c(=Cc2c([O-])[n-]c(=O)[n-]c2=O)cc(C)n1-c1ccccc1C(=O)NC(C)C (protonated)
C=c1c(=Cc2c([O-])[n-]c(=O)[n-]c2=O)cc(C)n1-c1ccccc1C(=O)NC(C)C (3D coordinates assigned)
C=c1c(=Cc2c([O-])[n-]c(=O)[n-]c2=O)cc(C)n1-c1ccccc1C(=O)NC(C)C (optimized conformer: 92.00906564931968 kcal/mol)

>  <smiles>  (1875) 
C=c1c(=Cc2c(O)[nH]c(=O)[nH]c2=O)cc(C)n1-c1ccccc1C(=O)NC(C)C

>  <score_type>  (1875) 
oracle

>  <origin>  (1875) 
adg

>  <m_score__min__energy>  (1875) 
-15.869999999999999

>  <m_primary>  (1875) 
energy

$$$$
71:0
     RDKit          3D

 30 33  0  0  0  0  0  0  0  0999 V2000
   53.6130   28.1480   53.1130 C   0  0  0  0  0  0  0  0  0  0  0  0
   54.4330   29.1850   52.9190 C   0  0  0  0  0  0  0  0  0  0  0  0
   54.0770   30.5090   52.6520 C   0  0  0  0  0  0  0  0  0  0  0  0
   52.8330   31.0180   52.5720 C   0  0  0  0  0  0  0  0  0  0  0  0
   52.0720   31.1420   51.3160 C   0  0  0  0  0  0  0  0  0  0  0  0
   52.1470   30.2470   50.3160 N   0  0  0  0  0  0  0  0  0  0  0  0
   51.3720   30.7870   49.3510 C   0  0  0  0  0  0  0  0  0  0  0  0
   51.1800   30.2220   48.2420 O   0  0  0  0  0  0  0  0  0  0  0  0
   50.8290   31.9820   49.6620 N   0  0  0  0  0  0  0  0  0  0  0  0
   51.2900   32.2000   50.9050 C   0  0  0  0  0  0  0  0  0  0  0  0
   51.0400   33.3630   51.6230 O   0  0  0  0  0  0  0  0  0  0  0  0
   55.2710   31.2130   52.5450 C   0  0  0  0  0  0  0  0  0  0  0  0
   56.2870   30.2930   52.7290 C   0  0  0  0  0  0  0  0  0  0  0  0
   57.7280   30.6120   52.7380 C   0  0  0  0  0  0  0  0  0  0  0  0
   58.3570   30.5750   53.8290 O   0  0  0  0  0  0  0  0  0  0  0  0
   58.4250   30.9580   51.5270 N   0  0  0  0  0  0  0  0  0  0  0  0
   57.8540   31.9010   50.5620 C   0  0  0  0  0  0  0  0  0  0  0  0
   58.8200   33.0790   50.3460 C   0  0  0  0  0  0  0  0  0  0  0  0
   60.2140   32.6470   50.0930 N   0  0  0  0  0  0  0  0  0  0  0  0
   60.4290   32.1250   48.7220 C   0  0  0  0  0  0  0  0  0  0  0  0
   60.7810   33.2630   47.7560 C   0  0  0  0  0  0  0  0  0  0  0  0
   59.6330   33.5700   46.8310 C   0  0  0  0  0  0  0  0  0  0  0  0
   58.3440   33.0830   47.1110 C   0  0  0  0  0  0  0  0  0  0  0  0
   57.2730   33.4020   46.2710 C   0  0  0  0  0  0  0  0  0  0  0  0
   57.4780   34.2150   45.1520 C   0  0  0  0  0  0  0  0  0  0  0  0
   58.7540   34.7110   44.8730 C   0  0  0  0  0  0  0  0  0  0  0  0
   59.8280   34.3960   45.7100 C   0  0  0  0  0  0  0  0  0  0  0  0
   60.7060   31.7310   51.1440 C   0  0  0  0  0  0  0  0  0  0  0  0
   59.7990   30.5080   51.3020 C   0  0  0  0  0  0  0  0  0  0  0  0
   55.7760   29.0680   52.9610 N   0  0  0  0  0  0  0  0  0  0  0  0
  1  2  2  0
  2  3  1  0
  3  4  2  0
  4  5  1  0
  5  6  1  0
  6  7  1  0
  7  8  2  0
  7  9  1  0
  9 10  1  0
 10 11  1  0
  3 12  1  0
 12 13  2  0
 13 14  1  0
 14 15  2  0
 14 16  1  0
 16 17  1  0
 17 18  1  0
 18 19  1  0
 19 20  1  0
 20 21  1  0
 21 22  1  0
 22 23  2  0
 23 24  1  0
 24 25  2  0
 25 26  1  0
 26 27  2  0
 19 28  1  0
 28 29  1  0
 13 30  1  0
 30  2  1  0
 10  5  2  0
 29 16  1  0
 27 22  1  0
M  CHG  3   6  -1   9  -1  11  -1
M  END
>  <UniqueID>  (1876) 
66

>  <SMILES>  (1876) 
C=c1[nH]c(C(=O)N2CCN(CCc3ccccc3)CC2)c/c1=C\c1[n-]c(=O)[n-]c1[O-]

>  <Energy>  (1876) 
123.24203070886031

>  <Genealogy>  (1876) 
C=c1[nH]c(C(=O)N2CCN(CCc3ccccc3)CC2)cc1=Cc1[n-]c(=O)[n-]c1[O-] (protonated)
C=c1[nH]c(C(=O)N2CCN(CCc3ccccc3)CC2)c/c1=C\c1[n-]c(=O)[n-]c1[O-] (cis-trans isomerization)
C=c1[nH]c(C(=O)N2CCN(CCc3ccccc3)CC2)c/c1=C\c1[n-]c(=O)[n-]c1[O-] (3D coordinates assigned)
C=c1[nH]c(C(=O)N2CCN(CCc3ccccc3)CC2)c/c1=C\c1[n-]c(=O)[n-]c1[O-] (nonaromatic ring conformer: 123.24203070886031 kcal/mol)

>  <smiles>  (1876) 
C=c1[nH]c(C(=O)N2CCN(CCc3ccccc3)CC2)cc1=Cc1[nH]c(=O)[nH]c1O

>  <score_type>  (1876) 
oracle

>  <origin>  (1876) 
adg

>  <m_score__min__energy>  (1876) 
-18.84

>  <m_primary>  (1876) 
energy

$$$$
4:0
     RDKit          3D

 33 36  0  0  0  0  0  0  0  0999 V2000
   58.6610   28.8970   48.7050 C   0  0  0  0  0  0  0  0  0  0  0  0
   58.8390   29.6150   47.5860 C   0  0  0  0  0  0  0  0  0  0  0  0
   58.6140   29.1970   46.2670 C   0  0  0  0  0  0  0  0  0  0  0  0
   58.4450   27.9630   45.7570 C   0  0  0  0  0  0  0  0  0  0  0  0
   57.2700   27.1070   45.9930 C   0  0  0  0  0  0  0  0  0  0  0  0
   57.3260   25.8260   46.4040 N   0  0  0  0  0  0  0  0  0  0  0  0
   56.0370   25.4240   46.3470 C   0  0  0  0  0  0  0  0  0  0  0  0
   55.6740   24.2640   46.6760 O   0  0  0  0  0  0  0  0  0  0  0  0
   55.1710   26.3590   45.9020 N   0  0  0  0  0  0  0  0  0  0  0  0
   55.9700   27.4130   45.6700 C   0  0  0  0  0  0  0  0  0  0  0  0
   55.5220   28.6270   45.1670 O   0  0  0  0  0  0  0  0  0  0  0  0
   58.6330   30.3430   45.4880 C   0  0  0  0  0  0  0  0  0  0  0  0
   58.9610   31.3880   46.3270 C   0  0  0  0  0  0  0  0  0  0  0  0
   59.0490   32.8250   45.9120 C   0  0  0  0  0  0  0  0  0  0  0  0
   59.1100   30.9440   47.5920 N   0  0  0  0  0  0  0  0  0  0  0  0
   59.3700   31.7660   48.7410 C   0  0  0  0  0  0  0  0  0  0  0  0
   58.3540   31.9540   49.6840 C   0  0  0  0  0  0  0  0  0  0  0  0
   58.5770   32.7260   50.8240 C   0  0  0  0  0  0  0  0  0  0  0  0
   59.8260   33.3270   51.0420 C   0  0  0  0  0  0  0  0  0  0  0  0
   60.0620   34.1540   52.2930 C   0  0  0  0  0  0  0  0  0  0  0  0
   58.7350   34.5270   52.9650 C   0  0  0  0  0  0  0  0  0  0  0  0
   60.9900   33.4250   53.2700 C   0  0  0  0  0  0  0  0  0  0  0  0
   60.8460   33.1450   50.0900 C   0  0  0  0  0  0  0  0  0  0  0  0
   60.6310   32.3720   48.9380 C   0  0  0  0  0  0  0  0  0  0  0  0
   61.9540   32.1810   47.7710 S   0  0  0  0  0  0  0  0  0  0  0  0
   61.7390   30.9260   46.9730 O   0  0  0  0  0  0  0  0  0  0  0  0
   61.9520   33.3450   46.8170 O   0  0  0  0  0  0  0  0  0  0  0  0
   63.4980   32.1030   48.5880 N   0  0  0  0  0  0  0  0  0  0  0  0
   63.9470   33.4680   48.9400 C   0  0  0  0  0  0  0  0  0  0  0  0
   65.0140   33.4280   50.0420 C   0  0  0  0  0  0  0  0  0  0  0  0
   64.4950   32.8380   51.2910 N   0  0  0  0  0  0  0  0  0  0  0  0
   63.3590   31.9170   51.0920 C   0  0  0  0  0  0  0  0  0  0  0  0
   63.4480   31.1750   49.7480 C   0  0  0  0  0  0  0  0  0  0  0  0
  1  2  2  0
  2  3  1  0
  3  4  2  3
  4  5  1  0
  5  6  1  0
  6  7  1  0
  7  8  2  0
  7  9  1  0
  9 10  1  0
 10 11  1  0
  3 12  1  0
 12 13  2  0
 13 14  1  0
 13 15  1  0
 15 16  1  0
 16 17  2  0
 17 18  1  0
 18 19  2  0
 19 20  1  0
 20 21  1  0
 20 22  1  0
 19 23  1  0
 23 24  2  0
 24 25  1  0
 25 26  2  0
 25 27  2  0
 25 28  1  0
 28 29  1  0
 29 30  1  0
 30 31  1  0
 31 32  1  0
 32 33  1  0
 15  2  1  0
 24 16  1  0
 33 28  1  0
 10  5  2  0
M  CHG  4   6  -1   9  -1  11  -1  28   1
M  END
>  <UniqueID>  (1877) 
5

>  <SMILES>  (1877) 
C=c1c(=Cc2[n-]c(=O)[n-]c2[O-])cc(C)n1-c1ccc(C(C)C)cc1S(=O)(=O)[NH+]1CCNCC1

>  <Energy>  (1877) 
140.2942254740479

>  <Genealogy>  (1877) 
C=c1c(=Cc2[n-]c(=O)[n-]c2[O-])cc(C)n1-c1ccc(C(C)C)cc1S(=O)(=O)[NH+]1CCNCC1 (protonated)
C=c1c(=Cc2[n-]c(=O)[n-]c2[O-])cc(C)n1-c1ccc(C(C)C)cc1S(=O)(=O)[NH+]1CCNCC1 (3D coordinates assigned)
C=c1c(=Cc2[n-]c(=O)[n-]c2[O-])cc(C)n1-c1ccc(C(C)C)cc1S(=O)(=O)[NH+]1CCNCC1 (nonaromatic ring conformer: 140.2942254740479 kcal/mol)

>  <smiles>  (1877) 
C=c1c(=Cc2[nH]c(=O)[nH]c2O)cc(C)n1-c1ccc(C(C)C)cc1S(=O)(=O)N1CCNCC1

>  <score_type>  (1877) 
oracle

>  <origin>  (1877) 
adg

>  <m_score__min__energy>  (1877) 
-14.81

>  <m_primary>  (1877) 
energy

$$$$
7:0
     RDKit          3D

 28 30  0  0  0  0  0  0  0  0999 V2000
   55.6900   26.6290   45.9810 N   0  0  0  0  0  0  0  0  0  0  0  0
   57.3400   26.8640   45.5210 S   0  0  0  0  0  0  0  0  0  0  0  0
   57.3830   27.3990   44.1160 O   0  0  0  0  0  0  0  0  0  0  0  0
   58.0720   25.5510   45.5660 O   0  0  0  0  0  0  0  0  0  0  0  0
   58.1060   27.9980   46.6300 C   0  0  0  0  0  0  0  0  0  0  0  0
   58.3290   27.6520   47.9700 C   0  0  0  0  0  0  0  0  0  0  0  0
   58.9360   28.5630   48.8400 C   0  0  0  0  0  0  0  0  0  0  0  0
   59.3330   29.8270   48.3780 C   0  0  0  0  0  0  0  0  0  0  0  0
   59.9670   30.8090   49.3250 C   0  0  0  0  0  0  0  0  0  0  0  0
   59.5600   30.5240   50.6960 N   0  0  0  0  0  0  0  0  0  0  0  0
   58.4980   31.2120   51.3700 C   0  0  0  0  0  0  0  0  0  0  0  0
   58.5000   32.4720   51.4290 O   0  0  0  0  0  0  0  0  0  0  0  0
   57.3980   30.4580   51.9980 C   0  0  0  0  0  0  0  0  0  0  0  0
   57.6260   29.2330   52.6400 C   0  0  0  0  0  0  0  0  0  0  0  0
   56.5510   28.5490   53.2130 C   0  0  0  0  0  0  0  0  0  0  0  0
   56.7410   27.4440   53.7860 O   0  0  0  0  0  0  0  0  0  0  0  0
   55.2640   29.0900   53.1470 C   0  0  0  0  0  0  0  0  0  0  0  0
   55.0640   30.3260   52.5070 C   0  0  0  0  0  0  0  0  0  0  0  0
   53.7170   30.9430   52.3990 C   0  0  0  0  0  0  0  0  0  0  0  0
   52.8610   31.0360   53.5150 C   0  0  0  0  0  0  0  0  0  0  0  0
   51.5980   31.6250   53.3920 C   0  0  0  0  0  0  0  0  0  0  0  0
   51.1760   32.1310   52.1600 C   0  0  0  0  0  0  0  0  0  0  0  0
   49.9190   32.7110   52.0400 O   0  0  0  0  0  0  0  0  0  0  0  0
   52.0210   32.0560   51.0490 C   0  0  0  0  0  0  0  0  0  0  0  0
   53.2850   31.4700   51.1680 C   0  0  0  0  0  0  0  0  0  0  0  0
   56.1330   30.9620   51.9500 N   0  0  0  0  0  0  0  0  0  0  0  0
   59.1010   30.1740   47.0370 C   0  0  0  0  0  0  0  0  0  0  0  0
   58.4930   29.2630   46.1690 C   0  0  0  0  0  0  0  0  0  0  0  0
  1  2  1  0
  2  3  2  0
  2  4  2  0
  2  5  1  0
  5  6  2  0
  6  7  1  0
  7  8  2  0
  8  9  1  0
  9 10  1  0
 10 11  1  0
 11 12  2  0
 11 13  1  0
 13 14  2  0
 14 15  1  0
 15 16  2  0
 15 17  1  0
 17 18  2  0
 18 19  1  0
 19 20  2  0
 20 21  1  0
 21 22  2  0
 22 23  1  0
 22 24  1  0
 24 25  2  0
 18 26  1  0
  8 27  1  0
 27 28  2  0
 28  5  1  0
 26 13  1  0
 25 19  1  0
M  CHG  4   1  -1  10  -1  23  -1  26  -1
M  END
>  <UniqueID>  (1878) 
8

>  <SMILES>  (1878) 
[NH-]S(=O)(=O)c1ccc(C[N-]C(=O)c2cc(=O)cc(-c3ccc([O-])cc3)[n-]2)cc1

>  <Energy>  (1878) 
46.09031562241288

>  <Genealogy>  (1878) 
[NH-]S(=O)(=O)c1ccc(C[N-]C(=O)c2cc(=O)cc(-c3ccc([O-])cc3)[n-]2)cc1 (protonated)
[NH-]S(=O)(=O)c1ccc(C[N-]C(=O)c2cc(=O)cc(-c3ccc([O-])cc3)[n-]2)cc1 (3D coordinates assigned)
[NH-]S(=O)(=O)c1ccc(C[N-]C(=O)c2cc(=O)cc(-c3ccc([O-])cc3)[n-]2)cc1 (optimized conformer: 46.09031562241288 kcal/mol)

>  <smiles>  (1878) 
NS(=O)(=O)c1ccc(CNC(=O)c2cc(=O)cc(-c3ccc(O)cc3)[nH]2)cc1

>  <score_type>  (1878) 
oracle

>  <origin>  (1878) 
adg

>  <m_score__min__energy>  (1878) 
-16.82

>  <m_primary>  (1878) 
energy

$$$$
15:0
     RDKit          3D

 24 25  0  0  0  0  0  0  0  0999 V2000
   63.0520   33.8600   46.6280 C   0  0  0  0  0  0  0  0  0  0  0  0
   62.7820   33.2120   47.9900 C   0  0  0  0  0  0  0  0  0  0  0  0
   64.0810   33.0710   48.7930 C   0  0  0  0  0  0  0  0  0  0  0  0
   61.7660   34.0210   48.7500 C   0  0  0  0  0  0  0  0  0  0  0  0
   62.0160   34.3850   49.9320 O   0  0  0  0  0  0  0  0  0  0  0  0
   60.5280   34.3850   48.1220 N   0  0  0  0  0  0  0  0  0  0  0  0
   59.8200   33.6080   47.1480 C   0  0  0  0  0  0  0  0  0  0  0  0
   59.2350   32.3990   47.5470 C   0  0  0  0  0  0  0  0  0  0  0  0
   58.4990   31.6360   46.6370 C   0  0  0  0  0  0  0  0  0  0  0  0
   58.3170   32.0870   45.3230 C   0  0  0  0  0  0  0  0  0  0  0  0
   57.3120   31.1550   44.2180 S   0  0  0  0  0  0  0  0  0  0  0  0
   57.6190   31.5830   42.8110 O   0  0  0  0  0  0  0  0  0  0  0  0
   55.8550   31.4070   44.4920 O   0  0  0  0  0  0  0  0  0  0  0  0
   57.6610   29.4550   44.3830 N   0  0  0  0  0  0  0  0  0  0  0  0
   56.5950   28.7500   45.0990 C   0  0  0  0  0  0  0  0  0  0  0  0
   57.0640   27.4030   45.5950 C   0  0  0  0  0  0  0  0  0  0  0  0
   58.4370   27.1040   45.6190 C   0  0  0  0  0  0  0  0  0  0  0  0
   58.8790   25.8440   46.0340 C   0  0  0  0  0  0  0  0  0  0  0  0
   57.9560   24.8740   46.4330 C   0  0  0  0  0  0  0  0  0  0  0  0
   56.5900   25.1670   46.4300 C   0  0  0  0  0  0  0  0  0  0  0  0
   56.1380   26.4260   46.0160 C   0  0  0  0  0  0  0  0  0  0  0  0
   54.7740   26.6960   46.0160 O   0  0  0  0  0  0  0  0  0  0  0  0
   58.8930   33.3010   44.9200 C   0  0  0  0  0  0  0  0  0  0  0  0
   59.6370   34.0600   45.8290 C   0  0  0  0  0  0  0  0  0  0  0  0
  1  2  1  0
  2  3  1  0
  2  4  1  0
  4  5  2  0
  4  6  1  0
  6  7  1  0
  7  8  2  0
  8  9  1  0
  9 10  2  0
 10 11  1  0
 11 12  2  0
 11 13  2  0
 11 14  1  0
 14 15  1  0
 15 16  1  0
 16 17  2  0
 17 18  1  0
 18 19  2  0
 19 20  1  0
 20 21  2  0
 21 22  1  0
 10 23  1  0
 23 24  2  0
 24  7  1  0
 21 16  1  0
M  CHG  3   6  -1  14  -1  22  -1
M  END
>  <UniqueID>  (1879) 
15

>  <SMILES>  (1879) 
CC(C)C(=O)[N-]c1ccc(S(=O)(=O)[N-]Cc2ccccc2[O-])cc1

>  <Energy>  (1879) 
35.78494476303847

>  <Genealogy>  (1879) 
CC(C)C(=O)[N-]c1ccc(S(=O)(=O)[N-]Cc2ccccc2[O-])cc1 (protonated)
CC(C)C(=O)[N-]c1ccc(S(=O)(=O)[N-]Cc2ccccc2[O-])cc1 (3D coordinates assigned)
CC(C)C(=O)[N-]c1ccc(S(=O)(=O)[N-]Cc2ccccc2[O-])cc1 (optimized conformer: 35.78494476303847 kcal/mol)

>  <smiles>  (1879) 
CC(C)C(=O)Nc1ccc(S(=O)(=O)NCc2ccccc2O)cc1

>  <score_type>  (1879) 
oracle

>  <origin>  (1879) 
adg

>  <m_score__min__energy>  (1879) 
-14.369999999999999

>  <m_primary>  (1879) 
energy

$$$$
17:0
     RDKit          3D

 25 27  0  0  0  0  0  0  0  0999 V2000
   58.5340   34.0100   44.6970 C   0  0  0  0  0  0  0  0  0  0  0  0
   58.5550   33.6500   46.0500 C   0  0  0  0  0  0  0  0  0  0  0  0
   59.0180   34.6230   47.0860 C   0  0  0  0  0  0  0  0  0  0  0  0
   58.1480   32.4060   46.4220 N   0  0  0  0  0  0  0  0  0  0  0  0
   57.7200   31.4780   45.5190 C   0  0  0  0  0  0  0  0  0  0  0  0
   57.3530   30.2840   45.8880 N   0  0  0  0  0  0  0  0  0  0  0  0
   56.6930   29.2600   45.1200 C   0  0  0  0  0  0  0  0  0  0  0  0
   55.4630   29.3930   44.8820 O   0  0  0  0  0  0  0  0  0  0  0  0
   57.3800   28.0120   44.6460 C   0  0  0  0  0  0  0  0  0  0  0  0
   57.3890   27.0230   45.7180 N   0  0  0  0  0  0  0  0  0  0  0  0
   56.3160   26.1220   46.0130 C   0  0  0  0  0  0  0  0  0  0  0  0
   55.1400   26.5740   46.0400 O   0  0  0  0  0  0  0  0  0  0  0  0
   56.5500   24.6810   46.2520 C   0  0  0  0  0  0  0  0  0  0  0  0
   56.7650   24.2720   47.5310 N   0  0  0  0  0  0  0  0  0  0  0  0
   57.0220   23.0020   47.8390 N   0  0  0  0  0  0  0  0  0  0  0  0
   57.0870   22.0370   46.8900 C   0  0  0  0  0  0  0  0  0  0  0  0
   57.3360   20.8500   47.2340 O   0  0  0  0  0  0  0  0  0  0  0  0
   56.8730   22.3730   45.5440 C   0  0  0  0  0  0  0  0  0  0  0  0
   56.9180   21.3980   44.5300 C   0  0  0  0  0  0  0  0  0  0  0  0
   56.6740   21.7500   43.2020 C   0  0  0  0  0  0  0  0  0  0  0  0
   56.3780   23.0720   42.8710 C   0  0  0  0  0  0  0  0  0  0  0  0
   56.3360   24.0530   43.8630 C   0  0  0  0  0  0  0  0  0  0  0  0
   56.5930   23.7230   45.2110 C   0  0  0  0  0  0  0  0  0  0  0  0
   57.7010   31.8070   44.1580 C   0  0  0  0  0  0  0  0  0  0  0  0
   58.1040   33.0790   43.7500 C   0  0  0  0  0  0  0  0  0  0  0  0
  1  2  2  0
  2  3  1  0
  2  4  1  0
  4  5  1  0
  5  6  2  0
  6  7  1  0
  7  8  2  0
  7  9  1  0
  9 10  1  0
 10 11  1  0
 11 12  2  0
 11 13  1  0
 13 14  2  0
 14 15  1  0
 15 16  1  0
 16 17  2  0
 16 18  1  0
 18 19  2  0
 19 20  1  0
 20 21  2  0
 21 22  1  0
 22 23  2  0
  5 24  1  0
 24 25  2  0
 25  1  1  0
 23 13  1  0
 23 18  1  0
M  CHG  3   4  -1  10  -1  15  -1
M  END
>  <UniqueID>  (1880) 
17

>  <SMILES>  (1880) 
Cc1ccc/c(=N/C(=O)C[N-]C(=O)c2n[n-]c(=O)c3ccccc23)[n-]1

>  <Energy>  (1880) 
51.739065429538876

>  <Genealogy>  (1880) 
Cc1cccc(=NC(=O)C[N-]C(=O)c2n[n-]c(=O)c3ccccc23)[n-]1 (protonated)
Cc1ccc/c(=N/C(=O)C[N-]C(=O)c2n[n-]c(=O)c3ccccc23)[n-]1 (cis-trans isomerization)
Cc1ccc/c(=N/C(=O)C[N-]C(=O)c2n[n-]c(=O)c3ccccc23)[n-]1 (3D coordinates assigned)
Cc1ccc/c(=N/C(=O)C[N-]C(=O)c2n[n-]c(=O)c3ccccc23)[n-]1 (optimized conformer: 51.739065429538876 kcal/mol)

>  <smiles>  (1880) 
Cc1cccc(=NC(=O)CNC(=O)c2n[nH]c(=O)c3ccccc23)[nH]1

>  <score_type>  (1880) 
oracle

>  <origin>  (1880) 
adg

>  <m_score__min__energy>  (1880) 
-14.359999999999999

>  <m_primary>  (1880) 
energy

$$$$
24:0
     RDKit          3D

 25 27  0  0  0  0  0  0  0  0999 V2000
   56.3420   29.4000   43.2780 C   0  0  0  0  0  0  0  0  0  0  0  0
   56.9800   29.5540   44.4460 C   0  0  0  0  0  0  0  0  0  0  0  0
   57.0330   30.8190   44.9490 N   0  0  0  0  0  0  0  0  0  0  0  0
   57.7980   31.1730   46.0120 C   0  0  0  0  0  0  0  0  0  0  0  0
   57.7720   32.6040   46.4640 C   0  0  0  0  0  0  0  0  0  0  0  0
   58.6250   30.2090   46.6180 C   0  0  0  0  0  0  0  0  0  0  0  0
   59.5090   30.5340   47.7640 C   0  0  0  0  0  0  0  0  0  0  0  0
   59.2260   30.0750   48.9060 O   0  0  0  0  0  0  0  0  0  0  0  0
   60.6970   31.3330   47.5940 N   0  0  0  0  0  0  0  0  0  0  0  0
   60.7960   32.3150   46.5020 C   0  0  0  0  0  0  0  0  0  0  0  0
   61.5230   33.5700   46.9920 C   0  0  0  0  0  0  0  0  0  0  0  0
   62.9410   33.2510   47.5330 C   0  0  0  0  0  0  0  0  0  0  0  0
   63.3120   34.1800   48.6030 N   0  0  0  0  0  0  0  0  0  0  0  0
   63.0950   31.7910   48.0220 C   0  0  0  0  0  0  0  0  0  0  0  0
   61.7860   31.2170   48.5760 C   0  0  0  0  0  0  0  0  0  0  0  0
   58.5770   28.8920   46.1460 C   0  0  0  0  0  0  0  0  0  0  0  0
   57.7030   28.5130   45.1080 C   0  0  0  0  0  0  0  0  0  0  0  0
   57.6040   27.1870   44.8400 C   0  0  0  0  0  0  0  0  0  0  0  0
   57.1640   26.1340   45.7740 C   0  0  0  0  0  0  0  0  0  0  0  0
   58.0080   25.2690   46.3640 N   0  0  0  0  0  0  0  0  0  0  0  0
   57.2070   24.5760   47.2040 C   0  0  0  0  0  0  0  0  0  0  0  0
   57.6390   23.6490   47.9390 O   0  0  0  0  0  0  0  0  0  0  0  0
   55.9150   24.9650   47.2070 N   0  0  0  0  0  0  0  0  0  0  0  0
   55.9060   25.9610   46.3080 C   0  0  0  0  0  0  0  0  0  0  0  0
   54.7790   26.7160   46.0060 O   0  0  0  0  0  0  0  0  0  0  0  0
  1  2  2  0
  2  3  1  0
  3  4  2  0
  4  5  1  0
  4  6  1  0
  6  7  1  0
  7  8  2  0
  7  9  1  0
  9 10  1  0
 10 11  1  0
 11 12  1  0
 12 13  1  0
 12 14  1  0
 14 15  1  0
  6 16  2  0
 16 17  1  0
 17 18  2  3
 18 19  1  0
 19 20  1  0
 20 21  1  0
 21 22  2  0
 21 23  1  0
 23 24  1  0
 24 25  1  0
 17  2  1  0
 24 19  2  0
 15  9  1  0
M  CHG  3  20  -1  23  -1  25  -1
M  END
>  <UniqueID>  (1881) 
23

>  <SMILES>  (1881) 
C=c1nc(C)c(C(=O)N2CCC(N)CC2)cc1=Cc1[n-]c(=O)[n-]c1[O-]

>  <Energy>  (1881) 
100.91766025690752

>  <Genealogy>  (1881) 
C=c1nc(C)c(C(=O)N2CCC(N)CC2)cc1=Cc1[n-]c(=O)[n-]c1[O-] (protonated)
C=c1nc(C)c(C(=O)N2CCC(N)CC2)cc1=Cc1[n-]c(=O)[n-]c1[O-] (3D coordinates assigned)
C=c1nc(C)c(C(=O)N2CCC(N)CC2)cc1=Cc1[n-]c(=O)[n-]c1[O-] (nonaromatic ring conformer: 100.91766025690752 kcal/mol)

>  <smiles>  (1881) 
C=c1nc(C)c(C(=O)N2CCC(N)CC2)cc1=Cc1[nH]c(=O)[nH]c1O

>  <score_type>  (1881) 
oracle

>  <origin>  (1881) 
adg

>  <m_score__min__energy>  (1881) 
-16.73

>  <m_primary>  (1881) 
energy

$$$$
26:0
     RDKit          3D

 24 26  0  0  0  0  0  0  0  0999 V2000
   59.1090   30.5080   47.0440 C   0  0  0  0  0  0  0  0  0  0  0  0
   58.4860   31.3000   46.1550 C   0  0  0  0  0  0  0  0  0  0  0  0
   58.0620   30.9350   44.8660 C   0  0  0  0  0  0  0  0  0  0  0  0
   57.9890   29.7330   44.2640 C   0  0  0  0  0  0  0  0  0  0  0  0
   57.5490   28.4810   44.8980 C   0  0  0  0  0  0  0  0  0  0  0  0
   58.5620   27.3080   45.5690 S   0  0  0  0  0  0  0  0  0  0  0  0
   57.2720   26.4470   46.2160 C   0  0  0  0  0  0  0  0  0  0  0  0
   57.3900   25.3780   46.8680 O   0  0  0  0  0  0  0  0  0  0  0  0
   56.0810   27.0330   45.9730 N   0  0  0  0  0  0  0  0  0  0  0  0
   56.2390   28.1760   45.2540 C   0  0  0  0  0  0  0  0  0  0  0  0
   55.1560   28.9750   44.9090 O   0  0  0  0  0  0  0  0  0  0  0  0
   57.6780   32.1070   44.2400 C   0  0  0  0  0  0  0  0  0  0  0  0
   57.8100   33.1200   45.1640 C   0  0  0  0  0  0  0  0  0  0  0  0
   57.4860   34.5570   44.8860 C   0  0  0  0  0  0  0  0  0  0  0  0
   58.3000   32.6380   46.3330 N   0  0  0  0  0  0  0  0  0  0  0  0
   58.6530   33.4540   47.5090 C   0  0  0  0  0  0  0  0  0  0  0  0
   59.9000   34.3150   47.2540 C   0  0  0  0  0  0  0  0  0  0  0  0
   61.1710   33.5440   47.4570 C   0  0  0  0  0  0  0  0  0  0  0  0
   62.3030   33.8070   46.6710 C   0  0  0  0  0  0  0  0  0  0  0  0
   63.4530   33.0370   46.8480 C   0  0  0  0  0  0  0  0  0  0  0  0
   63.4680   32.0170   47.8010 C   0  0  0  0  0  0  0  0  0  0  0  0
   62.3210   31.7810   48.5660 C   0  0  0  0  0  0  0  0  0  0  0  0
   62.3150   30.8650   49.4280 O   0  0  0  0  0  0  0  0  0  0  0  0
   61.2100   32.5390   48.3770 N   0  0  0  0  0  0  0  0  0  0  0  0
  1  2  2  0
  2  3  1  0
  3  4  2  3
  4  5  1  0
  5  6  1  0
  6  7  1  0
  7  8  2  0
  7  9  1  0
  9 10  1  0
 10 11  1  0
  3 12  1  0
 12 13  2  0
 13 14  1  0
 13 15  1  0
 15 16  1  0
 16 17  1  0
 17 18  1  0
 18 19  2  0
 19 20  1  0
 20 21  2  0
 21 22  1  0
 22 23  2  0
 22 24  1  0
 15  2  1  0
 24 18  1  0
 10  5  2  0
M  CHG  3   9  -1  11  -1  24  -1
M  END
>  <UniqueID>  (1882) 
25

>  <SMILES>  (1882) 
C=c1c(=Cc2sc(=O)[n-]c2[O-])cc(C)n1CCc1cccc(=O)[n-]1

>  <Energy>  (1882) 
108.08714785973554

>  <Genealogy>  (1882) 
C=c1c(=Cc2sc(=O)[n-]c2[O-])cc(C)n1CCc1cccc(=O)[n-]1 (protonated)
C=c1c(=Cc2sc(=O)[n-]c2[O-])cc(C)n1CCc1cccc(=O)[n-]1 (3D coordinates assigned)
C=c1c(=Cc2sc(=O)[n-]c2[O-])cc(C)n1CCc1cccc(=O)[n-]1 (optimized conformer: 108.08714785973554 kcal/mol)

>  <smiles>  (1882) 
C=c1c(=Cc2sc(=O)[nH]c2O)cc(C)n1CCc1cccc(=O)[nH]1

>  <score_type>  (1882) 
oracle

>  <origin>  (1882) 
adg

>  <m_score__min__energy>  (1882) 
-14.73

>  <m_primary>  (1882) 
energy

$$$$
32:0
     RDKit          3D

 32 35  0  0  0  0  0  0  0  0999 V2000
   59.1210   28.8080   48.9300 C   0  0  0  0  0  0  0  0  0  0  0  0
   58.7080   29.8120   48.1390 C   0  0  0  0  0  0  0  0  0  0  0  0
   58.3740   29.7480   46.7730 C   0  0  0  0  0  0  0  0  0  0  0  0
   58.3050   28.7110   45.9160 C   0  0  0  0  0  0  0  0  0  0  0  0
   57.5120   27.4880   46.1160 C   0  0  0  0  0  0  0  0  0  0  0  0
   56.1490   27.4590   45.7920 C   0  0  0  0  0  0  0  0  0  0  0  0
   55.5260   28.5750   45.2470 O   0  0  0  0  0  0  0  0  0  0  0  0
   55.4270   26.3270   46.0050 N   0  0  0  0  0  0  0  0  0  0  0  0
   56.0030   25.2200   46.5410 C   0  0  0  0  0  0  0  0  0  0  0  0
   55.3170   24.1830   46.7270 O   0  0  0  0  0  0  0  0  0  0  0  0
   57.3190   25.2330   46.8800 N   0  0  0  0  0  0  0  0  0  0  0  0
   58.0810   26.3390   46.6860 C   0  0  0  0  0  0  0  0  0  0  0  0
   59.2950   26.3220   47.0230 O   0  0  0  0  0  0  0  0  0  0  0  0
   58.1050   31.0490   46.3810 C   0  0  0  0  0  0  0  0  0  0  0  0
   58.2580   31.8460   47.4930 C   0  0  0  0  0  0  0  0  0  0  0  0
   58.1170   33.3400   47.4870 C   0  0  0  0  0  0  0  0  0  0  0  0
   58.6050   31.1000   48.5650 N   0  0  0  0  0  0  0  0  0  0  0  0
   58.8620   31.6100   49.8900 C   0  0  0  0  0  0  0  0  0  0  0  0
   57.7750   31.9400   50.7150 C   0  0  0  0  0  0  0  0  0  0  0  0
   57.9840   32.4730   51.9870 C   0  0  0  0  0  0  0  0  0  0  0  0
   59.2810   32.6920   52.4480 C   0  0  0  0  0  0  0  0  0  0  0  0
   60.3740   32.3730   51.6410 C   0  0  0  0  0  0  0  0  0  0  0  0
   60.1830   31.8150   50.3650 C   0  0  0  0  0  0  0  0  0  0  0  0
   61.3730   31.5030   49.5440 C   0  0  0  0  0  0  0  0  0  0  0  0
   61.8260   30.3260   49.5540 O   0  0  0  0  0  0  0  0  0  0  0  0
   62.0210   32.5020   48.7360 N   0  0  0  0  0  0  0  0  0  0  0  0
   61.2280   33.5190   48.0270 C   0  0  0  0  0  0  0  0  0  0  0  0
   61.7160   33.6720   46.5830 C   0  0  0  0  0  0  0  0  0  0  0  0
   63.2110   33.8350   46.5370 C   0  0  0  0  0  0  0  0  0  0  0  0
   63.7560   34.1540   45.4910 O   0  0  0  0  0  0  0  0  0  0  0  0
   64.0300   33.6310   47.7810 C   0  0  0  0  0  0  0  0  0  0  0  0
   63.4840   32.4390   48.5760 C   0  0  0  0  0  0  0  0  0  0  0  0
  1  2  2  0
  2  3  1  0
  3  4  2  3
  4  5  1  0
  5  6  2  0
  6  7  1  0
  6  8  1  0
  8  9  1  0
  9 10  2  0
  9 11  1  0
 11 12  1  0
 12 13  2  0
  3 14  1  0
 14 15  2  0
 15 16  1  0
 15 17  1  0
 17 18  1  0
 18 19  2  0
 19 20  1  0
 20 21  2  0
 21 22  1  0
 22 23  2  0
 23 24  1  0
 24 25  2  0
 24 26  1  0
 26 27  1  0
 27 28  1  0
 28 29  1  0
 29 30  2  0
 29 31  1  0
 31 32  1  0
 17  2  1  0
 23 18  1  0
 32 26  1  0
 12  5  1  0
M  CHG  3   7  -1   8  -1  11  -1
M  END
>  <UniqueID>  (1883) 
31

>  <SMILES>  (1883) 
C=c1c(=Cc2c([O-])[n-]c(=O)[n-]c2=O)cc(C)n1-c1ccccc1C(=O)N1CCC(=O)CC1

>  <Energy>  (1883) 
105.92179490149812

>  <Genealogy>  (1883) 
C=c1c(=Cc2c([O-])[n-]c(=O)[n-]c2=O)cc(C)n1-c1ccccc1C(=O)N1CCC(=O)CC1 (protonated)
C=c1c(=Cc2c([O-])[n-]c(=O)[n-]c2=O)cc(C)n1-c1ccccc1C(=O)N1CCC(=O)CC1 (3D coordinates assigned)
C=c1c(=Cc2c([O-])[n-]c(=O)[n-]c2=O)cc(C)n1-c1ccccc1C(=O)N1CCC(=O)CC1 (nonaromatic ring conformer: 105.92179490149812 kcal/mol)

>  <smiles>  (1883) 
C=c1c(=Cc2c(O)[nH]c(=O)[nH]c2=O)cc(C)n1-c1ccccc1C(=O)N1CCC(=O)CC1

>  <score_type>  (1883) 
oracle

>  <origin>  (1883) 
adg

>  <m_score__min__energy>  (1883) 
-17.23

>  <m_primary>  (1883) 
energy

$$$$
40:0
     RDKit          3D

 23 25  0  0  0  0  0  0  0  0999 V2000
   60.6740   30.3330   46.3480 C   0  0  0  0  0  0  0  0  0  0  0  0
   59.4980   29.8930   45.8500 C   0  0  0  0  0  0  0  0  0  0  0  0
   59.3130   28.5080   45.6210 C   0  0  0  0  0  0  0  0  0  0  0  0
   60.2700   27.7030   45.8050 O   0  0  0  0  0  0  0  0  0  0  0  0
   58.0630   28.0510   45.1420 C   0  0  0  0  0  0  0  0  0  0  0  0
   57.7550   26.7560   44.9150 C   0  0  0  0  0  0  0  0  0  0  0  0
   57.1670   25.8150   45.8850 C   0  0  0  0  0  0  0  0  0  0  0  0
   57.8070   24.7260   46.3440 N   0  0  0  0  0  0  0  0  0  0  0  0
   56.8680   24.1030   47.0890 C   0  0  0  0  0  0  0  0  0  0  0  0
   57.0950   23.0320   47.7090 O   0  0  0  0  0  0  0  0  0  0  0  0
   55.6620   24.7120   47.1080 N   0  0  0  0  0  0  0  0  0  0  0  0
   55.8640   25.7860   46.3280 C   0  0  0  0  0  0  0  0  0  0  0  0
   54.8700   26.7010   46.0040 O   0  0  0  0  0  0  0  0  0  0  0  0
   57.1090   28.9710   44.8570 N   0  0  0  0  0  0  0  0  0  0  0  0
   57.2890   30.2980   45.0540 C   0  0  0  0  0  0  0  0  0  0  0  0
   56.3500   31.0890   44.7660 O   0  0  0  0  0  0  0  0  0  0  0  0
   58.4720   30.7690   45.5590 N   0  0  0  0  0  0  0  0  0  0  0  0
   58.6080   32.1910   45.7570 C   0  0  0  0  0  0  0  0  0  0  0  0
   58.6180   33.0580   44.6550 C   0  0  0  0  0  0  0  0  0  0  0  0
   58.7530   34.4360   44.8480 C   0  0  0  0  0  0  0  0  0  0  0  0
   58.8800   34.9530   46.1410 C   0  0  0  0  0  0  0  0  0  0  0  0
   58.8740   34.0920   47.2420 C   0  0  0  0  0  0  0  0  0  0  0  0
   58.7400   32.7130   47.0520 C   0  0  0  0  0  0  0  0  0  0  0  0
  1  2  2  0
  2  3  1  0
  3  4  2  0
  3  5  1  0
  5  6  2  0
  6  7  1  0
  7  8  1  0
  8  9  1  0
  9 10  2  0
  9 11  1  0
 11 12  1  0
 12 13  1  0
  5 14  1  0
 14 15  1  0
 15 16  2  0
 15 17  1  0
 17 18  1  0
 18 19  2  0
 19 20  1  0
 20 21  2  0
 21 22  1  0
 22 23  2  0
 17  2  1  0
 23 18  1  0
 12  7  2  0
M  CHG  4   8  -1  11  -1  13  -1  14  -1
M  END
>  <UniqueID>  (1884) 
39

>  <SMILES>  (1884) 
C=c1c(=O)/c(=C\c2[n-]c(=O)[n-]c2[O-])[n-]c(=O)n1-c1ccccc1

>  <Energy>  (1884) 
91.78071453305492

>  <Genealogy>  (1884) 
C=c1c(=O)c(=Cc2[n-]c(=O)[n-]c2[O-])[n-]c(=O)n1-c1ccccc1 (protonated)
C=c1c(=O)/c(=C\c2[n-]c(=O)[n-]c2[O-])[n-]c(=O)n1-c1ccccc1 (cis-trans isomerization)
C=c1c(=O)/c(=C\c2[n-]c(=O)[n-]c2[O-])[n-]c(=O)n1-c1ccccc1 (3D coordinates assigned)
C=c1c(=O)/c(=C\c2[n-]c(=O)[n-]c2[O-])[n-]c(=O)n1-c1ccccc1 (optimized conformer: 91.78071453305492 kcal/mol)

>  <smiles>  (1884) 
C=c1c(=O)c(=Cc2[nH]c(=O)[nH]c2O)[nH]c(=O)n1-c1ccccc1

>  <score_type>  (1884) 
oracle

>  <origin>  (1884) 
adg

>  <m_score__min__energy>  (1884) 
-16.780000000000001

>  <m_primary>  (1884) 
energy

$$$$
41:0
     RDKit          3D

 34 38  0  0  0  0  0  0  0  0999 V2000
   54.9460   26.6500   46.0000 O   0  0  0  0  0  0  0  0  0  0  0  0
   55.9240   25.7000   46.2730 C   0  0  0  0  0  0  0  0  0  0  0  0
   55.6760   24.5420   46.9050 N   0  0  0  0  0  0  0  0  0  0  0  0
   56.8960   23.9600   46.9460 C   0  0  0  0  0  0  0  0  0  0  0  0
   57.0920   22.8350   47.4730 O   0  0  0  0  0  0  0  0  0  0  0  0
   57.8890   24.6830   46.3870 N   0  0  0  0  0  0  0  0  0  0  0  0
   57.2580   25.7820   45.9380 C   0  0  0  0  0  0  0  0  0  0  0  0
   57.9320   26.9410   45.3310 C   0  0  0  0  0  0  0  0  0  0  0  0
   58.2580   28.0780   45.9750 C   0  0  0  0  0  0  0  0  0  0  0  0
   58.0130   29.3310   45.4430 C   0  0  0  0  0  0  0  0  0  0  0  0
   58.3910   30.2480   46.3990 C   0  0  0  0  0  0  0  0  0  0  0  0
   58.3210   31.7100   46.2260 C   0  0  0  0  0  0  0  0  0  0  0  0
   57.3130   32.1920   45.6430 O   0  0  0  0  0  0  0  0  0  0  0  0
   59.3580   32.5810   46.7380 N   0  0  0  0  0  0  0  0  0  0  0  0
   60.7770   32.2030   46.6240 C   0  0  0  0  0  0  0  0  0  0  0  0
   61.6640   32.9070   47.6260 C   0  0  0  0  0  0  0  0  0  0  0  0
   63.0460   32.6490   47.6070 C   0  0  0  0  0  0  0  0  0  0  0  0
   63.8940   33.2660   48.5270 C   0  0  0  0  0  0  0  0  0  0  0  0
   63.3720   34.1470   49.4760 C   0  0  0  0  0  0  0  0  0  0  0  0
   62.0000   34.4120   49.5090 C   0  0  0  0  0  0  0  0  0  0  0  0
   61.1390   33.8050   48.5790 C   0  0  0  0  0  0  0  0  0  0  0  0
   59.6600   34.0550   48.6620 C   0  0  0  0  0  0  0  0  0  0  0  0
   59.0140   33.8960   47.2920 C   0  0  0  0  0  0  0  0  0  0  0  0
   58.8900   29.6270   47.4930 N   0  0  0  0  0  0  0  0  0  0  0  0
   59.4930   30.3110   48.6510 C   0  0  0  0  0  0  0  0  0  0  0  0
   58.5460   30.3010   49.8570 C   0  0  0  0  0  0  0  0  0  0  0  0
   58.5670   31.6070   50.5500 N   0  0  0  0  0  0  0  0  0  0  0  0
   57.4310   31.7310   51.4880 C   0  0  0  0  0  0  0  0  0  0  0  0
   57.5900   32.9770   52.3830 C   0  0  0  0  0  0  0  0  0  0  0  0
   58.5810   33.8450   51.8710 O   0  0  0  0  0  0  0  0  0  0  0  0
   59.8480   33.2140   51.9200 C   0  0  0  0  0  0  0  0  0  0  0  0
   59.8330   31.8090   51.2800 C   0  0  0  0  0  0  0  0  0  0  0  0
   58.8550   28.2900   47.2290 C   0  0  0  0  0  0  0  0  0  0  0  0
   59.4450   27.3620   47.9980 C   0  0  0  0  0  0  0  0  0  0  0  0
  1  2  1  0
  2  3  1  0
  3  4  1  0
  4  5  2  0
  4  6  1  0
  6  7  1  0
  7  8  1  0
  8  9  2  0
  9 10  1  0
 10 11  2  0
 11 12  1  0
 12 13  2  0
 12 14  1  0
 14 15  1  0
 15 16  1  0
 16 17  2  0
 17 18  1  0
 18 19  2  0
 19 20  1  0
 20 21  2  0
 21 22  1  0
 22 23  1  0
 11 24  1  0
 24 25  1  0
 25 26  1  0
 26 27  1  0
 27 28  1  0
 28 29  1  0
 29 30  1  0
 30 31  1  0
 31 32  1  0
 24 33  1  0
 33 34  2  0
  7  2  2  0
 33  9  1  0
 23 14  1  0
 32 27  1  0
 21 16  1  0
M  CHG  2   3  -1   6  -1
M  END
>  <UniqueID>  (1885) 
40

>  <SMILES>  (1885) 
C=c1/c(=C\c2[n-]c(=O)[n-]c2O)cc(C(=O)N2CCc3ccccc3C2)n1CCN1CCOCC1

>  <Energy>  (1885) 
148.12008000718893

>  <Genealogy>  (1885) 
C=c1c(=Cc2[n-]c(=O)[n-]c2O)cc(C(=O)N2CCc3ccccc3C2)n1CCN1CCOCC1 (protonated)
C=c1/c(=C\c2[n-]c(=O)[n-]c2O)cc(C(=O)N2CCc3ccccc3C2)n1CCN1CCOCC1 (cis-trans isomerization)
C=c1/c(=C\c2[n-]c(=O)[n-]c2O)cc(C(=O)N2CCc3ccccc3C2)n1CCN1CCOCC1 (3D coordinates assigned)
C=c1/c(=C\c2[n-]c(=O)[n-]c2O)cc(C(=O)N2CCc3ccccc3C2)n1CCN1CCOCC1 (nonaromatic ring conformer: 148.12008000718893 kcal/mol)

>  <smiles>  (1885) 
C=c1c(=Cc2[nH]c(=O)[nH]c2O)cc(C(=O)N2CCc3ccccc3C2)n1CCN1CCOCC1

>  <score_type>  (1885) 
oracle

>  <origin>  (1885) 
adg

>  <m_score__min__energy>  (1885) 
-14.02

>  <m_primary>  (1885) 
energy

$$$$
43:0
     RDKit          3D

 26 28  0  0  0  0  0  0  0  0999 V2000
   57.7520   21.2120   43.9450 C   0  0  0  0  0  0  0  0  0  0  0  0
   56.3070   21.3930   43.7210 N   0  0  0  0  0  0  0  0  0  0  0  0
   55.9790   22.7830   43.3100 C   0  0  0  0  0  0  0  0  0  0  0  0
   55.2950   23.6210   44.4080 C   0  0  0  0  0  0  0  0  0  0  0  0
   55.7700   23.2200   45.7370 N   0  0  0  0  0  0  0  0  0  0  0  0
   56.0780   24.2010   46.7450 C   0  0  0  0  0  0  0  0  0  0  0  0
   55.7320   23.9900   47.9400 O   0  0  0  0  0  0  0  0  0  0  0  0
   56.8290   25.4350   46.4150 C   0  0  0  0  0  0  0  0  0  0  0  0
   58.2340   25.4350   46.4760 C   0  0  0  0  0  0  0  0  0  0  0  0
   58.9590   26.5880   46.1710 C   0  0  0  0  0  0  0  0  0  0  0  0
   58.2920   27.7680   45.8000 C   0  0  0  0  0  0  0  0  0  0  0  0
   58.9990   28.9670   45.4540 N   0  0  0  0  0  0  0  0  0  0  0  0
   60.5510   29.4250   46.0790 S   0  0  0  0  0  0  0  0  0  0  0  0
   61.6110   29.0860   45.0690 O   0  0  0  0  0  0  0  0  0  0  0  0
   60.8160   28.6670   47.3480 O   0  0  0  0  0  0  0  0  0  0  0  0
   60.5690   31.1430   46.4270 C   0  0  0  0  0  0  0  0  0  0  0  0
   61.5640   31.8130   47.1260 C   0  0  0  0  0  0  0  0  0  0  0  0
   61.2910   33.1760   47.2890 C   0  0  0  0  0  0  0  0  0  0  0  0
   60.0870   33.5640   46.7180 C   0  0  0  0  0  0  0  0  0  0  0  0
   59.3610   35.3260   46.7390 Br  0  0  0  0  0  0  0  0  0  0  0  0
   59.3510   32.2260   46.0140 S   0  0  0  0  0  0  0  0  0  0  0  0
   56.8940   27.7790   45.7610 C   0  0  0  0  0  0  0  0  0  0  0  0
   56.1620   26.6250   46.0640 C   0  0  0  0  0  0  0  0  0  0  0  0
   54.7730   26.6690   45.9940 O   0  0  0  0  0  0  0  0  0  0  0  0
   55.7060   21.8040   46.1110 C   0  0  0  0  0  0  0  0  0  0  0  0
   55.5090   20.9160   44.8710 C   0  0  0  0  0  0  0  0  0  0  0  0
  1  2  1  0
  2  3  1  0
  3  4  1  0
  4  5  1  0
  5  6  1  0
  6  7  2  0
  6  8  1  0
  8  9  2  0
  9 10  1  0
 10 11  2  0
 11 12  1  0
 12 13  1  0
 13 14  2  0
 13 15  2  0
 13 16  1  0
 16 17  2  0
 17 18  1  0
 18 19  2  0
 19 20  1  0
 19 21  1  0
 11 22  1  0
 22 23  2  0
 23 24  1  0
  5 25  1  0
 25 26  1  0
 26  2  1  0
 23  8  1  0
 21 16  1  0
M  CHG  2  12  -1  24  -1
M  END
>  <UniqueID>  (1886) 
42

>  <SMILES>  (1886) 
CN1CCN(C(=O)c2ccc([N-]S(=O)(=O)c3ccc(Br)s3)cc2[O-])CC1

>  <Energy>  (1886) 
85.06277865157098

>  <Genealogy>  (1886) 
CN1CCN(C(=O)c2ccc([N-]S(=O)(=O)c3ccc(Br)s3)cc2[O-])CC1 (protonated)
CN1CCN(C(=O)c2ccc([N-]S(=O)(=O)c3ccc(Br)s3)cc2[O-])CC1 (3D coordinates assigned)
CN1CCN(C(=O)c2ccc([N-]S(=O)(=O)c3ccc(Br)s3)cc2[O-])CC1 (nonaromatic ring conformer: 85.06277865157098 kcal/mol)

>  <smiles>  (1886) 
CN1CCN(C(=O)c2ccc(NS(=O)(=O)c3ccc(Br)s3)cc2O)CC1

>  <score_type>  (1886) 
oracle

>  <origin>  (1886) 
adg

>  <m_score__min__energy>  (1886) 
-14.65

>  <m_primary>  (1886) 
energy

$$$$
49:0
     RDKit          3D

 31 34  0  0  0  0  0  0  0  0999 V2000
   57.6490   31.1490   45.1330 C   0  0  0  0  0  0  0  0  0  0  0  0
   58.2050   30.6820   46.2640 C   0  0  0  0  0  0  0  0  0  0  0  0
   58.6620   29.3740   46.4920 C   0  0  0  0  0  0  0  0  0  0  0  0
   58.4960   28.2400   45.7820 C   0  0  0  0  0  0  0  0  0  0  0  0
   57.3800   27.2930   45.9250 C   0  0  0  0  0  0  0  0  0  0  0  0
   57.4880   26.1030   46.5400 N   0  0  0  0  0  0  0  0  0  0  0  0
   56.2200   25.6380   46.5440 C   0  0  0  0  0  0  0  0  0  0  0  0
   55.9100   24.5190   47.0300 O   0  0  0  0  0  0  0  0  0  0  0  0
   55.3070   26.4710   45.9980 N   0  0  0  0  0  0  0  0  0  0  0  0
   56.0550   27.5200   45.6230 C   0  0  0  0  0  0  0  0  0  0  0  0
   55.5340   28.6720   45.0460 O   0  0  0  0  0  0  0  0  0  0  0  0
   59.3850   29.4170   47.6700 C   0  0  0  0  0  0  0  0  0  0  0  0
   59.2910   30.7050   48.1510 C   0  0  0  0  0  0  0  0  0  0  0  0
   59.9350   31.1730   49.3950 C   0  0  0  0  0  0  0  0  0  0  0  0
   61.1600   30.9380   49.5690 O   0  0  0  0  0  0  0  0  0  0  0  0
   59.1960   31.9040   50.3970 N   0  0  0  0  0  0  0  0  0  0  0  0
   57.7280   31.9020   50.4070 C   0  0  0  0  0  0  0  0  0  0  0  0
   57.2140   32.0440   51.8440 C   0  0  0  0  0  0  0  0  0  0  0  0
   57.8100   33.1570   52.4810 O   0  0  0  0  0  0  0  0  0  0  0  0
   59.1990   32.9330   52.6280 C   0  0  0  0  0  0  0  0  0  0  0  0
   59.8880   32.8670   51.2610 C   0  0  0  0  0  0  0  0  0  0  0  0
   58.5530   31.4740   47.3140 N   0  0  0  0  0  0  0  0  0  0  0  0
   58.3810   32.9310   47.4260 C   0  0  0  0  0  0  0  0  0  0  0  0
   59.4430   33.6560   46.5940 C   0  0  0  0  0  0  0  0  0  0  0  0
   60.7720   33.6380   47.2970 C   0  0  0  0  0  0  0  0  0  0  0  0
   61.8420   32.8940   46.7710 C   0  0  0  0  0  0  0  0  0  0  0  0
   63.0670   32.8530   47.4430 C   0  0  0  0  0  0  0  0  0  0  0  0
   63.2300   33.5410   48.6480 C   0  0  0  0  0  0  0  0  0  0  0  0
   64.4480   33.4990   49.3150 O   0  0  0  0  0  0  0  0  0  0  0  0
   62.1640   34.2710   49.1850 C   0  0  0  0  0  0  0  0  0  0  0  0
   60.9380   34.3170   48.5160 C   0  0  0  0  0  0  0  0  0  0  0  0
  1  2  2  0
  2  3  1  0
  3  4  2  0
  4  5  1  0
  5  6  1  0
  6  7  1  0
  7  8  2  0
  7  9  1  0
  9 10  1  0
 10 11  1  0
  3 12  1  0
 12 13  2  0
 13 14  1  0
 14 15  2  0
 14 16  1  0
 16 17  1  0
 17 18  1  0
 18 19  1  0
 19 20  1  0
 20 21  1  0
 13 22  1  0
 22 23  1  0
 23 24  1  0
 24 25  1  0
 25 26  2  0
 26 27  1  0
 27 28  2  0
 28 29  1  0
 28 30  1  0
 30 31  2  0
 22  2  1  0
 31 25  1  0
 10  5  2  0
 21 16  1  0
M  CHG  4   6  -1   9  -1  11  -1  29  -1
M  END
>  <UniqueID>  (1887) 
47

>  <SMILES>  (1887) 
C=c1/c(=C\c2[n-]c(=O)[n-]c2[O-])cc(C(=O)N2CCOCC2)n1CCc1ccc([O-])cc1

>  <Energy>  (1887) 
128.18566215058738

>  <Genealogy>  (1887) 
C=c1c(=Cc2[n-]c(=O)[n-]c2[O-])cc(C(=O)N2CCOCC2)n1CCc1ccc([O-])cc1 (protonated)
C=c1/c(=C\c2[n-]c(=O)[n-]c2[O-])cc(C(=O)N2CCOCC2)n1CCc1ccc([O-])cc1 (cis-trans isomerization)
C=c1/c(=C\c2[n-]c(=O)[n-]c2[O-])cc(C(=O)N2CCOCC2)n1CCc1ccc([O-])cc1 (3D coordinates assigned)
C=c1/c(=C\c2[n-]c(=O)[n-]c2[O-])cc(C(=O)N2CCOCC2)n1CCc1ccc([O-])cc1 (nonaromatic ring conformer: 128.18566215058738 kcal/mol)

>  <smiles>  (1887) 
C=c1c(=Cc2[nH]c(=O)[nH]c2O)cc(C(=O)N2CCOCC2)n1CCc1ccc(O)cc1

>  <score_type>  (1887) 
oracle

>  <origin>  (1887) 
adg

>  <m_score__min__energy>  (1887) 
-17.120000000000001

>  <m_primary>  (1887) 
energy

$$$$
50:0
     RDKit          3D

 28 30  0  0  0  0  0  0  0  0999 V2000
   53.9160   28.9280   54.0920 C   0  0  0  0  0  0  0  0  0  0  0  0
   54.7130   29.7460   53.3950 C   0  0  0  0  0  0  0  0  0  0  0  0
   56.3850   29.5560   53.3780 S   0  0  0  0  0  0  0  0  0  0  0  0
   56.6580   30.9760   52.5210 C   0  0  0  0  0  0  0  0  0  0  0  0
   57.9480   31.5020   52.1480 N   0  0  0  0  0  0  0  0  0  0  0  0
   58.2920   32.8700   52.5450 C   0  0  0  0  0  0  0  0  0  0  0  0
   58.8860   30.7340   51.3190 C   0  0  0  0  0  0  0  0  0  0  0  0
   58.6560   31.0330   49.8610 C   0  0  0  0  0  0  0  0  0  0  0  0
   58.8350   30.0320   48.8950 C   0  0  0  0  0  0  0  0  0  0  0  0
   58.6620   30.3200   47.5380 C   0  0  0  0  0  0  0  0  0  0  0  0
   58.3170   31.6200   47.1220 C   0  0  0  0  0  0  0  0  0  0  0  0
   58.1430   31.9230   45.7250 N   0  0  0  0  0  0  0  0  0  0  0  0
   58.8960   32.7360   45.1530 O   0  0  0  0  0  0  0  0  0  0  0  0
   57.1320   31.3270   44.9980 O   0  0  0  0  0  0  0  0  0  0  0  0
   58.1440   32.6220   48.0930 C   0  0  0  0  0  0  0  0  0  0  0  0
   58.3160   32.3310   49.4500 C   0  0  0  0  0  0  0  0  0  0  0  0
   55.4960   31.6010   52.2330 N   0  0  0  0  0  0  0  0  0  0  0  0
   54.3980   30.9310   52.6850 C   0  0  0  0  0  0  0  0  0  0  0  0
   53.1780   31.4340   52.4130 C   0  0  0  0  0  0  0  0  0  0  0  0
   52.4190   31.2590   51.1590 C   0  0  0  0  0  0  0  0  0  0  0  0
   51.3640   32.1210   50.8200 C   0  0  0  0  0  0  0  0  0  0  0  0
   51.0300   33.1930   51.6390 O   0  0  0  0  0  0  0  0  0  0  0  0
   50.6550   31.9070   49.6800 N   0  0  0  0  0  0  0  0  0  0  0  0
   50.9370   30.8580   48.8660 C   0  0  0  0  0  0  0  0  0  0  0  0
   50.2690   30.6810   47.8140 O   0  0  0  0  0  0  0  0  0  0  0  0
   51.9350   29.9960   49.1870 N   0  0  0  0  0  0  0  0  0  0  0  0
   52.6720   30.1670   50.3150 C   0  0  0  0  0  0  0  0  0  0  0  0
   53.5860   29.3420   50.5880 O   0  0  0  0  0  0  0  0  0  0  0  0
  1  2  2  0
  2  3  1  0
  3  4  1  0
  4  5  1  0
  5  6  1  0
  5  7  1  0
  7  8  1  0
  8  9  2  0
  9 10  1  0
 10 11  2  0
 11 12  1  0
 12 13  2  0
 12 14  1  0
 11 15  1  0
 15 16  2  0
  4 17  2  0
 17 18  1  0
 18 19  2  0
 19 20  1  0
 20 21  2  0
 21 22  1  0
 21 23  1  0
 23 24  1  0
 24 25  2  0
 24 26  1  0
 26 27  1  0
 27 28  2  0
 18  2  1  0
 27 20  1  0
 16  8  1  0
M  CHG  5  12   1  14  -1  22  -1  23  -1  26  -1
M  END
>  <UniqueID>  (1888) 
48

>  <SMILES>  (1888) 
C=c1sc(N(C)Cc2ccc([N+](=O)[O-])cc2)n/c1=C/c1c([O-])[n-]c(=O)[n-]c1=O

>  <Energy>  (1888) 
88.03770018170205

>  <Genealogy>  (1888) 
C=c1sc(N(C)Cc2ccc([N+](=O)[O-])cc2)nc1=Cc1c([O-])[n-]c(=O)[n-]c1=O (protonated)
C=c1sc(N(C)Cc2ccc([N+](=O)[O-])cc2)n/c1=C/c1c([O-])[n-]c(=O)[n-]c1=O (cis-trans isomerization)
C=c1sc(N(C)Cc2ccc([N+](=O)[O-])cc2)n/c1=C/c1c([O-])[n-]c(=O)[n-]c1=O (3D coordinates assigned)
C=c1sc(N(C)Cc2ccc([N+](=O)[O-])cc2)n/c1=C/c1c([O-])[n-]c(=O)[n-]c1=O (optimized conformer: 88.03770018170205 kcal/mol)

>  <smiles>  (1888) 
C=c1sc(N(C)Cc2ccc([N+](=O)[O-])cc2)nc1=Cc1c(O)[nH]c(=O)[nH]c1=O

>  <score_type>  (1888) 
oracle

>  <origin>  (1888) 
adg

>  <m_score__min__energy>  (1888) 
-16.079999999999998

>  <m_primary>  (1888) 
energy

$$$$
60:0
     RDKit          3D

 27 30  0  0  0  0  0  0  0  0999 V2000
   53.8120   28.1160   53.6970 C   0  0  0  0  0  0  0  0  0  0  0  0
   54.3770   29.0210   52.8930 C   0  0  0  0  0  0  0  0  0  0  0  0
   55.7250   28.9820   52.6900 N   0  0  0  0  0  0  0  0  0  0  0  0
   56.1760   30.0550   52.0110 C   0  0  0  0  0  0  0  0  0  0  0  0
   57.4280   30.1910   51.6860 N   0  0  0  0  0  0  0  0  0  0  0  0
   58.1420   31.4290   51.5490 C   0  0  0  0  0  0  0  0  0  0  0  0
   57.8250   32.5360   52.3580 C   0  0  0  0  0  0  0  0  0  0  0  0
   58.5280   33.7350   52.2220 C   0  0  0  0  0  0  0  0  0  0  0  0
   59.5620   33.8380   51.2900 C   0  0  0  0  0  0  0  0  0  0  0  0
   59.9050   32.7370   50.5030 C   0  0  0  0  0  0  0  0  0  0  0  0
   59.2130   31.5240   50.6360 C   0  0  0  0  0  0  0  0  0  0  0  0
   59.5940   30.4050   49.8180 N   0  0  0  0  0  0  0  0  0  0  0  0
   60.6980   29.5360   50.2300 C   0  0  0  0  0  0  0  0  0  0  0  0
   60.4110   28.1000   49.7800 C   0  0  0  0  0  0  0  0  0  0  0  0
   60.1000   28.0560   48.4000 O   0  0  0  0  0  0  0  0  0  0  0  0
   58.8940   28.7560   48.1550 C   0  0  0  0  0  0  0  0  0  0  0  0
   59.0600   30.2470   48.4630 C   0  0  0  0  0  0  0  0  0  0  0  0
   54.9230   31.1030   51.6090 S   0  0  0  0  0  0  0  0  0  0  0  0
   53.7310   30.1380   52.3080 C   0  0  0  0  0  0  0  0  0  0  0  0
   52.4260   30.4600   52.2270 C   0  0  0  0  0  0  0  0  0  0  0  0
   51.7020   30.8220   50.9980 C   0  0  0  0  0  0  0  0  0  0  0  0
   51.6620   30.0710   49.8820 N   0  0  0  0  0  0  0  0  0  0  0  0
   51.0180   30.8630   48.9960 C   0  0  0  0  0  0  0  0  0  0  0  0
   50.7670   30.4980   47.8180 O   0  0  0  0  0  0  0  0  0  0  0  0
   50.6740   32.0790   49.4700 N   0  0  0  0  0  0  0  0  0  0  0  0
   51.1280   32.0420   50.7330 C   0  0  0  0  0  0  0  0  0  0  0  0
   51.0240   33.1020   51.6240 O   0  0  0  0  0  0  0  0  0  0  0  0
  1  2  2  0
  2  3  1  0
  3  4  1  0
  4  5  2  0
  5  6  1  0
  6  7  2  0
  7  8  1  0
  8  9  2  0
  9 10  1  0
 10 11  2  0
 11 12  1  0
 12 13  1  0
 13 14  1  0
 14 15  1  0
 15 16  1  0
 16 17  1  0
  4 18  1  0
 18 19  1  0
 19 20  2  0
 20 21  1  0
 21 22  1  0
 22 23  1  0
 23 24  2  0
 23 25  1  0
 25 26  1  0
 26 27  1  0
 19  2  1  0
 26 21  2  0
 11  6  1  0
 17 12  1  0
M  CHG  4   3  -1  22  -1  25  -1  27  -1
M  END
>  <UniqueID>  (1889) 
57

>  <SMILES>  (1889) 
C=c1[n-]/c(=N/c2ccccc2N2CCOCC2)s/c1=C/c1[n-]c(=O)[n-]c1[O-]

>  <Energy>  (1889) 
131.17906992036177

>  <Genealogy>  (1889) 
C=c1[n-]c(=Nc2ccccc2N2CCOCC2)sc1=Cc1[n-]c(=O)[n-]c1[O-] (protonated)
C=c1[n-]/c(=N/c2ccccc2N2CCOCC2)s/c1=C/c1[n-]c(=O)[n-]c1[O-] (cis-trans isomerization)
C=c1[n-]/c(=N/c2ccccc2N2CCOCC2)s/c1=C/c1[n-]c(=O)[n-]c1[O-] (3D coordinates assigned)
C=c1[n-]/c(=N/c2ccccc2N2CCOCC2)s/c1=C/c1[n-]c(=O)[n-]c1[O-] (nonaromatic ring conformer: 131.17906992036177 kcal/mol)

>  <smiles>  (1889) 
C=c1[nH]c(=Nc2ccccc2N2CCOCC2)sc1=Cc1[nH]c(=O)[nH]c1O

>  <score_type>  (1889) 
oracle

>  <origin>  (1889) 
adg

>  <m_score__min__energy>  (1889) 
-18.120000000000001

>  <m_primary>  (1889) 
energy

$$$$
61:0
     RDKit          3D

 28 30  0  0  0  0  0  0  0  0999 V2000
   55.5170   29.7040   42.9240 O   0  0  0  0  0  0  0  0  0  0  0  0
   56.1920   29.9710   43.9530 C   0  0  0  0  0  0  0  0  0  0  0  0
   57.0450   31.2060   43.9760 C   0  0  0  0  0  0  0  0  0  0  0  0
   56.7840   31.9740   45.1880 N   0  0  0  0  0  0  0  0  0  0  0  0
   57.4870   33.1750   45.5320 C   0  0  0  0  0  0  0  0  0  0  0  0
   57.2200   34.2510   44.9310 O   0  0  0  0  0  0  0  0  0  0  0  0
   58.5180   33.1550   46.5950 C   0  0  0  0  0  0  0  0  0  0  0  0
   58.9190   34.3460   47.2290 C   0  0  0  0  0  0  0  0  0  0  0  0
   59.8950   34.3240   48.2290 C   0  0  0  0  0  0  0  0  0  0  0  0
   60.4820   33.1130   48.6170 C   0  0  0  0  0  0  0  0  0  0  0  0
   61.7060   33.0670   49.8830 S   0  0  0  0  0  0  0  0  0  0  0  0
   61.4350   34.1900   50.8460 O   0  0  0  0  0  0  0  0  0  0  0  0
   61.6340   31.7600   50.6230 O   0  0  0  0  0  0  0  0  0  0  0  0
   63.2940   33.2650   49.1740 N   0  0  0  0  0  0  0  0  0  0  0  0
   63.2390   34.1920   48.0380 C   0  0  0  0  0  0  0  0  0  0  0  0
   63.0560   33.3770   46.7670 C   0  0  0  0  0  0  0  0  0  0  0  0
   63.3910   31.9470   47.1470 C   0  0  0  0  0  0  0  0  0  0  0  0
   63.7710   31.9930   48.6200 C   0  0  0  0  0  0  0  0  0  0  0  0
   60.0890   31.9240   47.9900 C   0  0  0  0  0  0  0  0  0  0  0  0
   59.1150   31.9430   46.9890 C   0  0  0  0  0  0  0  0  0  0  0  0
   56.0130   29.1810   45.1330 N   0  0  0  0  0  0  0  0  0  0  0  0
   56.7300   28.1700   45.5410 C   0  0  0  0  0  0  0  0  0  0  0  0
   58.0820   28.3340   45.5960 N   0  0  0  0  0  0  0  0  0  0  0  0
   58.9240   27.3460   45.9950 C   0  0  0  0  0  0  0  0  0  0  0  0
   58.4160   26.1040   46.3720 C   0  0  0  0  0  0  0  0  0  0  0  0
   57.0370   25.9000   46.3520 C   0  0  0  0  0  0  0  0  0  0  0  0
   56.1790   26.9290   45.9540 C   0  0  0  0  0  0  0  0  0  0  0  0
   54.8070   26.7100   46.0200 O   0  0  0  0  0  0  0  0  0  0  0  0
  1  2  2  0
  2  3  1  0
  3  4  1  0
  4  5  1  0
  5  6  2  0
  5  7  1  0
  7  8  2  0
  8  9  1  0
  9 10  2  0
 10 11  1  0
 11 12  2  0
 11 13  2  0
 11 14  1  0
 14 15  1  0
 15 16  1  0
 16 17  1  0
 17 18  1  0
 10 19  1  0
 19 20  2  0
  2 21  1  0
 21 22  2  3
 22 23  1  0
 23 24  1  0
 24 25  2  0
 25 26  1  0
 26 27  2  0
 27 28  1  0
 20  7  1  0
 27 22  1  0
 18 14  1  0
M  CHG  3   4  -1  23  -1  28  -1
M  END
>  <UniqueID>  (1890) 
58

>  <SMILES>  (1890) 
O=C(C[N-]C(=O)c1ccc(S(=O)(=O)N2CCCC2)cc1)N=c1[n-]cccc1[O-]

>  <Energy>  (1890) 
59.04666652153962

>  <Genealogy>  (1890) 
O=C(C[N-]C(=O)c1ccc(S(=O)(=O)N2CCCC2)cc1)N=c1[n-]cccc1[O-] (protonated)
O=C(C[N-]C(=O)c1ccc(S(=O)(=O)N2CCCC2)cc1)N=c1[n-]cccc1[O-] (3D coordinates assigned)
O=C(C[N-]C(=O)c1ccc(S(=O)(=O)N2CCCC2)cc1)N=c1[n-]cccc1[O-] (nonaromatic ring conformer: 59.04666652153962 kcal/mol)

>  <smiles>  (1890) 
O=C(CNC(=O)c1ccc(S(=O)(=O)N2CCCC2)cc1)N=c1[nH]cccc1O

>  <score_type>  (1890) 
oracle

>  <origin>  (1890) 
adg

>  <m_score__min__energy>  (1890) 
-15.880000000000001

>  <m_primary>  (1890) 
energy

$$$$
66:0
     RDKit          3D

 34 37  0  0  0  0  0  0  0  0999 V2000
   54.8100   22.8430   48.3220 C   0  0  0  0  0  0  0  0  0  0  0  0
   54.3010   22.6620   47.0040 O   0  0  0  0  0  0  0  0  0  0  0  0
   55.0720   22.7580   45.8330 C   0  0  0  0  0  0  0  0  0  0  0  0
   55.8490   21.6780   45.3640 C   0  0  0  0  0  0  0  0  0  0  0  0
   56.6170   21.8100   44.2060 C   0  0  0  0  0  0  0  0  0  0  0  0
   56.6220   23.0150   43.5030 C   0  0  0  0  0  0  0  0  0  0  0  0
   55.8580   24.0920   43.9540 C   0  0  0  0  0  0  0  0  0  0  0  0
   55.0680   23.9690   45.1100 C   0  0  0  0  0  0  0  0  0  0  0  0
   54.2740   25.1500   45.6000 C   0  0  0  0  0  0  0  0  0  0  0  0
   55.1850   26.2380   45.9330 N   0  0  0  0  0  0  0  0  0  0  0  0
   56.4530   26.0900   46.5840 C   0  0  0  0  0  0  0  0  0  0  0  0
   56.5160   25.3580   47.6070 O   0  0  0  0  0  0  0  0  0  0  0  0
   57.6830   26.7400   46.0790 C   0  0  0  0  0  0  0  0  0  0  0  0
   58.9110   26.2080   46.2030 N   0  0  0  0  0  0  0  0  0  0  0  0
   59.7380   27.1540   45.7160 C   0  0  0  0  0  0  0  0  0  0  0  0
   59.1000   28.2640   45.2930 N   0  0  0  0  0  0  0  0  0  0  0  0
   57.8000   28.0060   45.5260 C   0  0  0  0  0  0  0  0  0  0  0  0
   56.7190   28.9390   45.1510 C   0  0  0  0  0  0  0  0  0  0  0  0
   55.5180   28.5700   45.2310 O   0  0  0  0  0  0  0  0  0  0  0  0
   57.0090   30.2280   44.5960 N   0  0  0  0  0  0  0  0  0  0  0  0
   57.7160   31.2820   45.2640 C   0  0  0  0  0  0  0  0  0  0  0  0
   58.2650   31.0400   46.5290 C   0  0  0  0  0  0  0  0  0  0  0  0
   58.9600   32.0490   47.2020 C   0  0  0  0  0  0  0  0  0  0  0  0
   59.1250   33.3100   46.6110 C   0  0  0  0  0  0  0  0  0  0  0  0
   59.9830   34.5930   47.4710 S   0  0  0  0  0  0  0  0  0  0  0  0
   59.8520   35.8750   46.6950 O   0  0  0  0  0  0  0  0  0  0  0  0
   59.3410   34.7960   48.8150 O   0  0  0  0  0  0  0  0  0  0  0  0
   61.6790   34.2380   47.6980 N   0  0  0  0  0  0  0  0  0  0  0  0
   61.8890   33.1240   48.6200 C   0  0  0  0  0  0  0  0  0  0  0  0
   63.2340   32.5110   48.2560 C   0  0  0  0  0  0  0  0  0  0  0  0
   63.5280   32.9950   46.8440 C   0  0  0  0  0  0  0  0  0  0  0  0
   62.3280   33.8410   46.4510 C   0  0  0  0  0  0  0  0  0  0  0  0
   58.6150   33.5400   45.3270 C   0  0  0  0  0  0  0  0  0  0  0  0
   57.9160   32.5330   44.6550 C   0  0  0  0  0  0  0  0  0  0  0  0
  1  2  1  0
  2  3  1  0
  3  4  2  0
  4  5  1  0
  5  6  2  0
  6  7  1  0
  7  8  2  0
  8  9  1  0
  9 10  1  0
 10 11  1  0
 11 12  2  0
 11 13  1  0
 13 14  1  0
 14 15  1  0
 15 16  2  0
 16 17  1  0
 17 18  1  0
 18 19  2  0
 18 20  1  0
 20 21  1  0
 21 22  2  0
 22 23  1  0
 23 24  2  0
 24 25  1  0
 25 26  2  0
 25 27  2  0
 25 28  1  0
 28 29  1  0
 29 30  1  0
 30 31  1  0
 31 32  1  0
 24 33  1  0
 33 34  2  0
  8  3  1  0
 17 13  2  0
 34 21  1  0
 32 28  1  0
M  CHG  3  10  -1  14  -1  20  -1
M  END
>  <UniqueID>  (1891) 
63

>  <SMILES>  (1891) 
COc1ccccc1C[N-]C(=O)c1[n-]cnc1C(=O)[N-]c1ccc(S(=O)(=O)N2CCCC2)cc1

>  <Energy>  (1891) 
94.66286310184518

>  <Genealogy>  (1891) 
COc1ccccc1C[N-]C(=O)c1[n-]cnc1C(=O)[N-]c1ccc(S(=O)(=O)N2CCCC2)cc1 (protonated)
COc1ccccc1C[N-]C(=O)c1[n-]cnc1C(=O)[N-]c1ccc(S(=O)(=O)N2CCCC2)cc1 (3D coordinates assigned)
COc1ccccc1C[N-]C(=O)c1[n-]cnc1C(=O)[N-]c1ccc(S(=O)(=O)N2CCCC2)cc1 (nonaromatic ring conformer: 94.66286310184518 kcal/mol)

>  <smiles>  (1891) 
COc1ccccc1CNC(=O)c1[nH]cnc1C(=O)Nc1ccc(S(=O)(=O)N2CCCC2)cc1

>  <score_type>  (1891) 
oracle

>  <origin>  (1891) 
adg

>  <m_score__min__energy>  (1891) 
-14.130000000000001

>  <m_primary>  (1891) 
energy

$$$$
71:0
     RDKit          3D

 27 29  0  0  0  0  0  0  0  0999 V2000
   58.2000   24.1060   45.4280 C   0  0  0  0  0  0  0  0  0  0  0  0
   58.6210   25.3270   45.5540 N   0  0  0  0  0  0  0  0  0  0  0  0
   57.9970   26.3190   46.3810 C   0  0  0  0  0  0  0  0  0  0  0  0
   57.9230   26.1420   47.6290 O   0  0  0  0  0  0  0  0  0  0  0  0
   57.4290   27.5510   45.7690 C   0  0  0  0  0  0  0  0  0  0  0  0
   56.0420   27.7030   45.6100 C   0  0  0  0  0  0  0  0  0  0  0  0
   55.1580   26.7100   46.0170 O   0  0  0  0  0  0  0  0  0  0  0  0
   55.5450   28.8220   45.0360 N   0  0  0  0  0  0  0  0  0  0  0  0
   56.3500   29.8200   44.5980 C   0  0  0  0  0  0  0  0  0  0  0  0
   55.8240   30.8340   44.0660 O   0  0  0  0  0  0  0  0  0  0  0  0
   57.7110   29.7230   44.7380 N   0  0  0  0  0  0  0  0  0  0  0  0
   58.5930   30.7950   44.2310 C   0  0  0  0  0  0  0  0  0  0  0  0
   58.4980   32.0140   45.1130 C   0  0  0  0  0  0  0  0  0  0  0  0
   58.4780   31.8820   46.5120 C   0  0  0  0  0  0  0  0  0  0  0  0
   58.4240   33.0170   47.3270 C   0  0  0  0  0  0  0  0  0  0  0  0
   58.3920   34.2900   46.7530 C   0  0  0  0  0  0  0  0  0  0  0  0
   58.4160   34.4310   45.3630 C   0  0  0  0  0  0  0  0  0  0  0  0
   58.4700   33.2980   44.5450 C   0  0  0  0  0  0  0  0  0  0  0  0
   58.2570   28.6030   45.3200 C   0  0  0  0  0  0  0  0  0  0  0  0
   59.5080   28.5210   45.4700 O   0  0  0  0  0  0  0  0  0  0  0  0
   56.7640   23.8170   45.2440 C   0  0  0  0  0  0  0  0  0  0  0  0
   55.8880   23.7190   46.3420 C   0  0  0  0  0  0  0  0  0  0  0  0
   54.5320   23.4450   46.1410 C   0  0  0  0  0  0  0  0  0  0  0  0
   54.0360   23.2660   44.8460 C   0  0  0  0  0  0  0  0  0  0  0  0
   52.6890   22.9940   44.6490 O   0  0  0  0  0  0  0  0  0  0  0  0
   54.8990   23.3620   43.7500 C   0  0  0  0  0  0  0  0  0  0  0  0
   56.2560   23.6360   43.9470 C   0  0  0  0  0  0  0  0  0  0  0  0
  1  2  2  0
  2  3  1  0
  3  4  2  0
  3  5  1  0
  5  6  2  0
  6  7  1  0
  6  8  1  0
  8  9  1  0
  9 10  2  0
  9 11  1  0
 11 12  1  0
 12 13  1  0
 13 14  2  0
 14 15  1  0
 15 16  2  0
 16 17  1  0
 17 18  2  0
 11 19  1  0
 19 20  2  0
  1 21  1  0
 21 22  2  0
 22 23  1  0
 23 24  2  0
 24 25  1  0
 24 26  1  0
 26 27  2  0
 19  5  1  0
 27 21  1  0
 18 13  1  0
M  CHG  3   7  -1   8  -1  25  -1
M  END
>  <UniqueID>  (1892) 
67

>  <SMILES>  (1892) 
O=C(/N=C/c1ccc([O-])cc1)c1c([O-])[n-]c(=O)n(Cc2ccccc2)c1=O

>  <Energy>  (1892) 
50.40421705997416

>  <Genealogy>  (1892) 
O=C(N=Cc1ccc([O-])cc1)c1c([O-])[n-]c(=O)n(Cc2ccccc2)c1=O (protonated)
O=C(/N=C/c1ccc([O-])cc1)c1c([O-])[n-]c(=O)n(Cc2ccccc2)c1=O (cis-trans isomerization)
O=C(/N=C/c1ccc([O-])cc1)c1c([O-])[n-]c(=O)n(Cc2ccccc2)c1=O (3D coordinates assigned)
O=C(/N=C/c1ccc([O-])cc1)c1c([O-])[n-]c(=O)n(Cc2ccccc2)c1=O (optimized conformer: 50.40421705997416 kcal/mol)

>  <smiles>  (1892) 
O=C(N=Cc1ccc(O)cc1)c1c(O)[nH]c(=O)n(Cc2ccccc2)c1=O

>  <score_type>  (1892) 
oracle

>  <origin>  (1892) 
adg

>  <m_score__min__energy>  (1892) 
-14.960000000000001

>  <m_primary>  (1892) 
energy

$$$$
72:0
     RDKit          3D

 39 43  0  0  0  0  0  0  0  0999 V2000
   54.6930   26.1230   45.9780 O   0  0  0  0  0  0  0  0  0  0  0  0
   54.4130   24.8100   45.6120 C   0  0  0  0  0  0  0  0  0  0  0  0
   53.3070   24.1570   46.0000 N   0  0  0  0  0  0  0  0  0  0  0  0
   53.4830   22.9270   45.4730 C   0  0  0  0  0  0  0  0  0  0  0  0
   52.6470   22.0000   45.6250 O   0  0  0  0  0  0  0  0  0  0  0  0
   54.6310   22.7660   44.7810 N   0  0  0  0  0  0  0  0  0  0  0  0
   55.2080   23.9770   44.8490 C   0  0  0  0  0  0  0  0  0  0  0  0
   56.5430   24.2710   44.3090 C   0  0  0  0  0  0  0  0  0  0  0  0
   57.3760   25.2350   44.7470 C   0  0  0  0  0  0  0  0  0  0  0  0
   57.7640   25.3320   46.0680 C   0  0  0  0  0  0  0  0  0  0  0  0
   58.5150   26.4840   46.1930 C   0  0  0  0  0  0  0  0  0  0  0  0
   59.0280   26.9710   47.4960 C   0  0  0  0  0  0  0  0  0  0  0  0
   59.8430   26.2840   48.1680 O   0  0  0  0  0  0  0  0  0  0  0  0
   58.5570   28.2240   48.0060 N   0  0  0  0  0  0  0  0  0  0  0  0
   59.2160   29.4930   47.8850 C   0  0  0  0  0  0  0  0  0  0  0  0
   60.5440   29.5210   47.4420 C   0  0  0  0  0  0  0  0  0  0  0  0
   61.2320   30.7330   47.3390 C   0  0  0  0  0  0  0  0  0  0  0  0
   60.6010   31.9320   47.6990 C   0  0  0  0  0  0  0  0  0  0  0  0
   61.4450   33.4730   47.5580 S   0  0  0  0  0  0  0  0  0  0  0  0
   62.0740   33.5550   46.1950 O   0  0  0  0  0  0  0  0  0  0  0  0
   60.4710   34.6110   47.7060 O   0  0  0  0  0  0  0  0  0  0  0  0
   62.6830   33.5900   48.7860 N   0  0  0  0  0  0  0  0  0  0  0  0
   63.9720   33.1150   48.2460 C   0  0  0  0  0  0  0  0  0  0  0  0
   64.9280   32.7240   49.3860 C   0  0  0  0  0  0  0  0  0  0  0  0
   64.4330   31.6990   50.2420 O   0  0  0  0  0  0  0  0  0  0  0  0
   63.0220   31.5460   50.1940 C   0  0  0  0  0  0  0  0  0  0  0  0
   62.2760   32.8810   50.0220 C   0  0  0  0  0  0  0  0  0  0  0  0
   59.2790   31.9070   48.1600 C   0  0  0  0  0  0  0  0  0  0  0  0
   58.5900   30.6940   48.2610 C   0  0  0  0  0  0  0  0  0  0  0  0
   58.6530   27.0870   44.9820 N   0  0  0  0  0  0  0  0  0  0  0  0
   59.3920   28.3360   44.7120 C   0  0  0  0  0  0  0  0  0  0  0  0
   58.4530   29.5130   44.6030 C   0  0  0  0  0  0  0  0  0  0  0  0
   57.1010   29.3080   44.2700 C   0  0  0  0  0  0  0  0  0  0  0  0
   56.2180   30.3900   44.2020 C   0  0  0  0  0  0  0  0  0  0  0  0
   56.6700   31.6820   44.4760 C   0  0  0  0  0  0  0  0  0  0  0  0
   58.0070   31.8960   44.8240 C   0  0  0  0  0  0  0  0  0  0  0  0
   58.8940   30.8180   44.8950 C   0  0  0  0  0  0  0  0  0  0  0  0
   57.9710   26.3200   44.0820 C   0  0  0  0  0  0  0  0  0  0  0  0
   57.9600   26.5420   42.7560 C   0  0  0  0  0  0  0  0  0  0  0  0
  1  2  1  0
  2  3  1  0
  3  4  1  0
  4  5  2  0
  4  6  1  0
  6  7  1  0
  7  8  1  0
  8  9  2  0
  9 10  1  0
 10 11  2  0
 11 12  1  0
 12 13  2  0
 12 14  1  0
 14 15  1  0
 15 16  2  0
 16 17  1  0
 17 18  2  0
 18 19  1  0
 19 20  2  0
 19 21  2  0
 19 22  1  0
 22 23  1  0
 23 24  1  0
 24 25  1  0
 25 26  1  0
 26 27  1  0
 18 28  1  0
 28 29  2  0
 11 30  1  0
 30 31  1  0
 31 32  1  0
 32 33  2  0
 33 34  1  0
 34 35  2  0
 35 36  1  0
 36 37  2  0
 30 38  1  0
 38 39  2  0
  7  2  2  0
 38  9  1  0
 29 15  1  0
 37 32  1  0
 27 22  1  0
M  CHG  3   3  -1   6  -1  14  -1
M  END
>  <UniqueID>  (1893) 
68

>  <SMILES>  (1893) 
C=c1/c(=C\c2[n-]c(=O)[n-]c2O)cc(C(=O)[N-]c2ccc(S(=O)(=O)N3CCOCC3)cc2)n1Cc1ccccc1

>  <Energy>  (1893) 
156.2347588101696

>  <Genealogy>  (1893) 
C=c1c(=Cc2[n-]c(=O)[n-]c2O)cc(C(=O)[N-]c2ccc(S(=O)(=O)N3CCOCC3)cc2)n1Cc1ccccc1 (protonated)
C=c1/c(=C\c2[n-]c(=O)[n-]c2O)cc(C(=O)[N-]c2ccc(S(=O)(=O)N3CCOCC3)cc2)n1Cc1ccccc1 (cis-trans isomerization)
C=c1/c(=C\c2[n-]c(=O)[n-]c2O)cc(C(=O)[N-]c2ccc(S(=O)(=O)N3CCOCC3)cc2)n1Cc1ccccc1 (3D coordinates assigned)
C=c1/c(=C\c2[n-]c(=O)[n-]c2O)cc(C(=O)[N-]c2ccc(S(=O)(=O)N3CCOCC3)cc2)n1Cc1ccccc1 (nonaromatic ring conformer: 156.2347588101696 kcal/mol)

>  <smiles>  (1893) 
C=c1c(=Cc2[nH]c(=O)[nH]c2O)cc(C(=O)Nc2ccc(S(=O)(=O)N3CCOCC3)cc2)n1Cc1ccccc1

>  <score_type>  (1893) 
oracle

>  <origin>  (1893) 
adg

>  <m_score__min__energy>  (1893) 
-16.449999999999999

>  <m_primary>  (1893) 
energy

$$$$
73:0
     RDKit          3D

 36 40  0  0  0  0  0  0  0  0999 V2000
   55.1780   26.7420   45.7880 O   0  0  0  0  0  0  0  0  0  0  0  0
   56.0450   25.8110   46.3510 C   0  0  0  0  0  0  0  0  0  0  0  0
   55.6420   24.7040   47.0000 N   0  0  0  0  0  0  0  0  0  0  0  0
   56.8120   24.1110   47.3230 C   0  0  0  0  0  0  0  0  0  0  0  0
   56.8670   23.0220   47.9520 O   0  0  0  0  0  0  0  0  0  0  0  0
   57.9170   24.7710   46.9150 N   0  0  0  0  0  0  0  0  0  0  0  0
   57.4190   25.8680   46.3190 C   0  0  0  0  0  0  0  0  0  0  0  0
   58.2460   26.8610   45.6180 C   0  0  0  0  0  0  0  0  0  0  0  0
   57.9360   28.1600   45.4450 C   0  0  0  0  0  0  0  0  0  0  0  0
   56.8140   28.5720   44.7450 C   0  0  0  0  0  0  0  0  0  0  0  0
   56.7820   29.9490   44.8150 C   0  0  0  0  0  0  0  0  0  0  0  0
   55.7120   30.8080   44.2150 C   0  0  0  0  0  0  0  0  0  0  0  0
   57.8400   30.4100   45.5160 N   0  0  0  0  0  0  0  0  0  0  0  0
   58.1600   31.7970   45.7160 C   0  0  0  0  0  0  0  0  0  0  0  0
   57.6190   32.7730   44.8650 C   0  0  0  0  0  0  0  0  0  0  0  0
   57.9000   34.1230   45.0810 C   0  0  0  0  0  0  0  0  0  0  0  0
   58.7120   34.5090   46.1490 C   0  0  0  0  0  0  0  0  0  0  0  0
   59.2490   33.5450   47.0230 C   0  0  0  0  0  0  0  0  0  0  0  0
   60.1200   33.9530   48.1500 C   0  0  0  0  0  0  0  0  0  0  0  0
   60.8040   35.0090   48.0680 O   0  0  0  0  0  0  0  0  0  0  0  0
   60.1670   33.1790   49.3570 N   0  0  0  0  0  0  0  0  0  0  0  0
   59.6890   33.7580   50.6170 C   0  0  0  0  0  0  0  0  0  0  0  0
   58.6810   32.8020   51.2690 C   0  0  0  0  0  0  0  0  0  0  0  0
   59.0930   31.3930   51.1190 N   0  0  0  0  0  0  0  0  0  0  0  0
   58.0910   30.3560   51.0960 C   0  0  0  0  0  0  0  0  0  0  0  0
   58.1800   29.4220   50.2530 O   0  0  0  0  0  0  0  0  0  0  0  0
   56.9370   30.3760   52.0150 C   0  0  0  0  0  0  0  0  0  0  0  0
   55.6880   30.8680   51.6480 C   0  0  0  0  0  0  0  0  0  0  0  0
   54.6460   30.6770   52.9510 S   0  0  0  0  0  0  0  0  0  0  0  0
   55.7550   29.9580   53.9870 C   0  0  0  0  0  0  0  0  0  0  0  0
   56.9660   29.8500   53.3180 C   0  0  0  0  0  0  0  0  0  0  0  0
   60.4560   31.0980   50.6570 C   0  0  0  0  0  0  0  0  0  0  0  0
   60.7100   31.8140   49.3280 C   0  0  0  0  0  0  0  0  0  0  0  0
   58.9680   32.1860   46.7940 C   0  0  0  0  0  0  0  0  0  0  0  0
   58.5790   29.3310   45.8830 C   0  0  0  0  0  0  0  0  0  0  0  0
   59.7740   29.4300   46.4860 C   0  0  0  0  0  0  0  0  0  0  0  0
  1  2  1  0
  2  3  1  0
  3  4  1  0
  4  5  2  0
  4  6  1  0
  6  7  1  0
  7  8  1  0
  8  9  2  0
  9 10  1  0
 10 11  2  0
 11 12  1  0
 11 13  1  0
 13 14  1  0
 14 15  2  0
 15 16  1  0
 16 17  2  0
 17 18  1  0
 18 19  1  0
 19 20  2  0
 19 21  1  0
 21 22  1  0
 22 23  1  0
 23 24  1  0
 24 25  1  0
 25 26  2  0
 25 27  1  0
 27 28  2  0
 28 29  1  0
 29 30  1  0
 30 31  2  0
 24 32  1  0
 32 33  1  0
 18 34  2  0
 13 35  1  0
 35 36  2  0
  7  2  2  0
 35  9  1  0
 34 14  1  0
 33 21  1  0
 31 27  1  0
M  CHG  2   3  -1   6  -1
M  END
>  <UniqueID>  (1894) 
69

>  <SMILES>  (1894) 
C=c1/c(=C\c2[n-]c(=O)[n-]c2O)cc(C)n1-c1cccc(C(=O)N2CCN(C(=O)c3ccsc3)CC2)c1

>  <Energy>  (1894) 
175.6628108387091

>  <Genealogy>  (1894) 
C=c1c(=Cc2[n-]c(=O)[n-]c2O)cc(C)n1-c1cccc(C(=O)N2CCN(C(=O)c3ccsc3)CC2)c1 (protonated)
C=c1/c(=C\c2[n-]c(=O)[n-]c2O)cc(C)n1-c1cccc(C(=O)N2CCN(C(=O)c3ccsc3)CC2)c1 (cis-trans isomerization)
C=c1/c(=C\c2[n-]c(=O)[n-]c2O)cc(C)n1-c1cccc(C(=O)N2CCN(C(=O)c3ccsc3)CC2)c1 (3D coordinates assigned)
C=c1/c(=C\c2[n-]c(=O)[n-]c2O)cc(C)n1-c1cccc(C(=O)N2CCN(C(=O)c3ccsc3)CC2)c1 (nonaromatic ring conformer: 175.6628108387091 kcal/mol)

>  <smiles>  (1894) 
C=c1c(=Cc2[nH]c(=O)[nH]c2O)cc(C)n1-c1cccc(C(=O)N2CCN(C(=O)c3ccsc3)CC2)c1

>  <score_type>  (1894) 
oracle

>  <origin>  (1894) 
adg

>  <m_score__min__energy>  (1894) 
-14.94

>  <m_primary>  (1894) 
energy

$$$$
74:0
     RDKit          3D

 31 34  0  0  0  0  0  0  0  0999 V2000
   60.4820   30.1160   45.6240 C   0  0  0  0  0  0  0  0  0  0  0  0
   59.8380   29.6600   46.7110 C   0  0  0  0  0  0  0  0  0  0  0  0
   58.8250   28.6900   46.7490 C   0  0  0  0  0  0  0  0  0  0  0  0
   58.4090   27.8140   45.8150 C   0  0  0  0  0  0  0  0  0  0  0  0
   57.2090   26.9660   45.9180 C   0  0  0  0  0  0  0  0  0  0  0  0
   57.1880   25.7320   46.4550 N   0  0  0  0  0  0  0  0  0  0  0  0
   55.8740   25.4160   46.4560 C   0  0  0  0  0  0  0  0  0  0  0  0
   55.4440   24.3110   46.8790 O   0  0  0  0  0  0  0  0  0  0  0  0
   55.0590   26.3810   45.9810 N   0  0  0  0  0  0  0  0  0  0  0  0
   55.9200   27.3590   45.6580 C   0  0  0  0  0  0  0  0  0  0  0  0
   55.5340   28.5900   45.1420 O   0  0  0  0  0  0  0  0  0  0  0  0
   58.2800   28.7480   48.0230 C   0  0  0  0  0  0  0  0  0  0  0  0
   59.0200   29.6740   48.7310 C   0  0  0  0  0  0  0  0  0  0  0  0
   58.7830   30.0400   50.1630 C   0  0  0  0  0  0  0  0  0  0  0  0
   59.9680   30.2230   47.9400 N   0  0  0  0  0  0  0  0  0  0  0  0
   60.9010   31.2460   48.3330 C   0  0  0  0  0  0  0  0  0  0  0  0
   62.2600   30.9220   48.4630 C   0  0  0  0  0  0  0  0  0  0  0  0
   63.1790   31.8850   48.8820 C   0  0  0  0  0  0  0  0  0  0  0  0
   62.7510   33.1800   49.1750 C   0  0  0  0  0  0  0  0  0  0  0  0
   61.4020   33.5170   49.0460 C   0  0  0  0  0  0  0  0  0  0  0  0
   60.4640   32.5580   48.6260 C   0  0  0  0  0  0  0  0  0  0  0  0
   59.0460   32.9560   48.4590 C   0  0  0  0  0  0  0  0  0  0  0  0
   58.2270   32.7120   49.3860 O   0  0  0  0  0  0  0  0  0  0  0  0
   58.5780   33.5730   47.2440 N   0  0  0  0  0  0  0  0  0  0  0  0
   59.3990   34.5680   46.5370 C   0  0  0  0  0  0  0  0  0  0  0  0
   59.3930   34.3250   45.0140 C   0  0  0  0  0  0  0  0  0  0  0  0
   58.1520   33.5380   44.5080 C   0  0  0  0  0  0  0  0  0  0  0  0
   58.4380   32.0870   44.5000 N   0  0  0  0  0  0  0  0  0  0  0  0
   57.2380   31.2880   44.2310 C   0  0  0  0  0  0  0  0  0  0  0  0
   56.9380   33.8680   45.4030 C   0  0  0  0  0  0  0  0  0  0  0  0
   57.1790   33.3800   46.8400 C   0  0  0  0  0  0  0  0  0  0  0  0
  1  2  2  0
  2  3  1  0
  3  4  2  3
  4  5  1  0
  5  6  1  0
  6  7  1  0
  7  8  2  0
  7  9  1  0
  9 10  1  0
 10 11  1  0
  3 12  1  0
 12 13  2  0
 13 14  1  0
 13 15  1  0
 15 16  1  0
 16 17  2  0
 17 18  1  0
 18 19  2  0
 19 20  1  0
 20 21  2  0
 21 22  1  0
 22 23  2  0
 22 24  1  0
 24 25  1  0
 25 26  1  0
 26 27  1  0
 27 28  1  0
 28 29  1  0
 27 30  1  0
 30 31  1  0
 15  2  1  0
 21 16  1  0
 31 24  1  0
 10  5  2  0
M  CHG  3   6  -1   9  -1  11  -1
M  END
>  <UniqueID>  (1895) 
70

>  <SMILES>  (1895) 
C=c1c(=Cc2[n-]c(=O)[n-]c2[O-])cc(C)n1-c1ccccc1C(=O)N1CCC(NC)CC1

>  <Energy>  (1895) 
139.87337342072024

>  <Genealogy>  (1895) 
C=c1c(=Cc2[n-]c(=O)[n-]c2[O-])cc(C)n1-c1ccccc1C(=O)N1CCC(NC)CC1 (protonated)
C=c1c(=Cc2[n-]c(=O)[n-]c2[O-])cc(C)n1-c1ccccc1C(=O)N1CCC(NC)CC1 (3D coordinates assigned)
C=c1c(=Cc2[n-]c(=O)[n-]c2[O-])cc(C)n1-c1ccccc1C(=O)N1CCC(NC)CC1 (nonaromatic ring conformer: 139.87337342072024 kcal/mol)

>  <smiles>  (1895) 
C=c1c(=Cc2[nH]c(=O)[nH]c2O)cc(C)n1-c1ccccc1C(=O)N1CCC(NC)CC1

>  <score_type>  (1895) 
oracle

>  <origin>  (1895) 
adg

>  <m_score__min__energy>  (1895) 
-16.399999999999999

>  <m_primary>  (1895) 
energy

$$$$
1:0
     RDKit          3D

 23 25  0  0  0  0  0  0  0  0999 V2000
   55.4740   29.4970   43.7260 C   0  0  0  0  0  0  0  0  0  0  0  0
   56.4620   29.6100   44.6170 C   0  0  0  0  0  0  0  0  0  0  0  0
   56.7400   30.7830   45.2210 N   0  0  0  0  0  0  0  0  0  0  0  0
   57.6960   30.5880   46.1160 N   0  0  0  0  0  0  0  0  0  0  0  0
   58.0380   29.2890   46.0970 C   0  0  0  0  0  0  0  0  0  0  0  0
   59.3430   28.6070   47.1230 S   0  0  0  0  0  0  0  0  0  0  0  0
   59.9500   30.2320   47.5780 C   0  0  0  0  0  0  0  0  0  0  0  0
   59.4100   30.8970   48.6870 C   0  0  0  0  0  0  0  0  0  0  0  0
   59.8750   32.1690   49.0350 C   0  0  0  0  0  0  0  0  0  0  0  0
   60.8800   32.7780   48.2780 C   0  0  0  0  0  0  0  0  0  0  0  0
   61.4250   32.1140   47.1740 C   0  0  0  0  0  0  0  0  0  0  0  0
   60.9630   30.8420   46.8260 C   0  0  0  0  0  0  0  0  0  0  0  0
   57.2920   28.6150   45.1430 C   0  0  0  0  0  0  0  0  0  0  0  0
   57.4100   27.3040   44.8500 C   0  0  0  0  0  0  0  0  0  0  0  0
   57.2070   26.2000   45.8050 C   0  0  0  0  0  0  0  0  0  0  0  0
   55.9360   25.9240   46.3350 C   0  0  0  0  0  0  0  0  0  0  0  0
   54.8400   26.7110   45.9980 O   0  0  0  0  0  0  0  0  0  0  0  0
   55.7680   24.8750   47.1800 N   0  0  0  0  0  0  0  0  0  0  0  0
   56.8100   24.0710   47.5150 C   0  0  0  0  0  0  0  0  0  0  0  0
   56.5780   22.8190   48.5350 S   0  0  0  0  0  0  0  0  0  0  0  0
   58.0420   24.3010   46.9920 N   0  0  0  0  0  0  0  0  0  0  0  0
   58.2610   25.3380   46.1420 C   0  0  0  0  0  0  0  0  0  0  0  0
   59.4160   25.5190   45.6710 O   0  0  0  0  0  0  0  0  0  0  0  0
  1  2  2  0
  2  3  1  0
  3  4  1  0
  4  5  2  0
  5  6  1  0
  6  7  1  0
  7  8  2  0
  8  9  1  0
  9 10  2  0
 10 11  1  0
 11 12  2  0
  5 13  1  0
 13 14  2  0
 14 15  1  0
 15 16  2  0
 16 17  1  0
 16 18  1  0
 18 19  1  0
 19 20  2  0
 19 21  1  0
 21 22  1  0
 22 23  2  0
 13  2  1  0
 22 15  1  0
 12  7  1  0
M  CHG  4   3  -1  17  -1  18  -1  21  -1
M  END
>  <UniqueID>  (1896) 
2

>  <SMILES>  (1896) 
C=c1[n-]nc(Sc2ccccc2)/c1=C/c1c([O-])[n-]c(=S)[n-]c1=O

>  <Energy>  (1896) 
74.27010773029554

>  <Genealogy>  (1896) 
C=c1[n-]nc(Sc2ccccc2)c1=Cc1c([O-])[n-]c(=S)[n-]c1=O (protonated)
C=c1[n-]nc(Sc2ccccc2)/c1=C/c1c([O-])[n-]c(=S)[n-]c1=O (cis-trans isomerization)
C=c1[n-]nc(Sc2ccccc2)/c1=C/c1c([O-])[n-]c(=S)[n-]c1=O (3D coordinates assigned)
C=c1[n-]nc(Sc2ccccc2)/c1=C/c1c([O-])[n-]c(=S)[n-]c1=O (optimized conformer: 74.27010773029554 kcal/mol)

>  <smiles>  (1896) 
C=c1[nH]nc(Sc2ccccc2)c1=Cc1c(O)[nH]c(=S)[nH]c1=O

>  <score_type>  (1896) 
oracle

>  <origin>  (1896) 
adg

>  <m_score__min__energy>  (1896) 
-15.83

>  <m_primary>  (1896) 
energy

$$$$
4:0
     RDKit          3D

 36 39  0  0  0  0  0  0  0  0999 V2000
   55.1680   26.6640   46.0100 N   0  0  0  0  0  0  0  0  0  0  0  0
   56.5570   26.9050   46.2440 C   0  0  0  0  0  0  0  0  0  0  0  0
   57.2420   26.0280   46.8360 O   0  0  0  0  0  0  0  0  0  0  0  0
   57.1880   28.1620   45.7740 C   0  0  0  0  0  0  0  0  0  0  0  0
   56.6800   28.7890   44.6210 C   0  0  0  0  0  0  0  0  0  0  0  0
   57.3060   29.9150   44.0870 C   0  0  0  0  0  0  0  0  0  0  0  0
   58.4480   30.4300   44.6940 C   0  0  0  0  0  0  0  0  0  0  0  0
   58.9540   29.8350   45.8490 C   0  0  0  0  0  0  0  0  0  0  0  0
   58.3230   28.7220   46.4150 C   0  0  0  0  0  0  0  0  0  0  0  0
   58.8470   28.1880   47.6390 N   0  0  0  0  0  0  0  0  0  0  0  0
   60.1900   28.4520   48.0910 C   0  0  0  0  0  0  0  0  0  0  0  0
   60.9550   29.1920   47.4150 O   0  0  0  0  0  0  0  0  0  0  0  0
   60.6640   27.8910   49.3990 C   0  0  0  0  0  0  0  0  0  0  0  0
   61.5410   29.1490   50.3930 S   0  0  0  0  0  0  0  0  0  0  0  0
   60.2650   30.4070   50.2290 C   0  0  0  0  0  0  0  0  0  0  0  0
   59.0470   30.1690   50.7780 N   0  0  0  0  0  0  0  0  0  0  0  0
   58.0540   31.0910   50.7150 C   0  0  0  0  0  0  0  0  0  0  0  0
   56.9290   30.8390   51.2170 O   0  0  0  0  0  0  0  0  0  0  0  0
   58.2730   32.2840   50.1090 N   0  0  0  0  0  0  0  0  0  0  0  0
   59.4770   32.5920   49.5570 C   0  0  0  0  0  0  0  0  0  0  0  0
   59.6300   33.9250   48.8730 C   0  0  0  0  0  0  0  0  0  0  0  0
   59.0450   33.8730   47.4890 C   0  0  0  0  0  0  0  0  0  0  0  0
   59.6690   34.5570   46.4320 C   0  0  0  0  0  0  0  0  0  0  0  0
   59.1090   34.5390   45.1520 C   0  0  0  0  0  0  0  0  0  0  0  0
   57.9220   33.8410   44.9180 C   0  0  0  0  0  0  0  0  0  0  0  0
   57.2990   33.1530   45.9620 C   0  0  0  0  0  0  0  0  0  0  0  0
   57.8580   33.1660   47.2430 C   0  0  0  0  0  0  0  0  0  0  0  0
   60.5170   31.6370   49.5930 C   0  0  0  0  0  0  0  0  0  0  0  0
   61.8340   31.9100   48.9830 C   0  0  0  0  0  0  0  0  0  0  0  0
   61.9380   31.8370   47.7270 O   0  0  0  0  0  0  0  0  0  0  0  0
   62.9830   32.2610   49.7850 N   0  0  0  0  0  0  0  0  0  0  0  0
   64.2620   32.5450   49.1190 C   0  0  0  0  0  0  0  0  0  0  0  0
   65.1620   33.3970   50.0160 C   0  0  0  0  0  0  0  0  0  0  0  0
   65.2770   32.8160   51.3010 O   0  0  0  0  0  0  0  0  0  0  0  0
   64.0140   32.8540   51.9480 C   0  0  0  0  0  0  0  0  0  0  0  0
   63.0040   31.9590   51.2260 C   0  0  0  0  0  0  0  0  0  0  0  0
  1  2  1  0
  2  3  2  0
  2  4  1  0
  4  5  2  0
  5  6  1  0
  6  7  2  0
  7  8  1  0
  8  9  2  0
  9 10  1  0
 10 11  1  0
 11 12  2  0
 11 13  1  0
 13 14  1  0
 14 15  1  0
 15 16  1  0
 16 17  1  0
 17 18  2  0
 17 19  1  0
 19 20  2  0
 20 21  1  0
 21 22  1  0
 22 23  2  0
 23 24  1  0
 24 25  2  0
 25 26  1  0
 26 27  2  0
 20 28  1  0
 28 29  1  0
 29 30  2  0
 29 31  1  0
 31 32  1  0
 32 33  1  0
 33 34  1  0
 34 35  1  0
 35 36  1  0
  9  4  1  0
 28 15  2  0
 36 31  1  0
 27 22  1  0
M  CHG  2   1  -1  16  -1
M  END
>  <UniqueID>  (1897) 
5

>  <SMILES>  (1897) 
[NH-]C(=O)c1ccccc1NC(=O)CSc1[n-]c(=O)nc(Cc2ccccc2)c1C(=O)N1CCOCC1

>  <Energy>  (1897) 
74.52437478178919

>  <Genealogy>  (1897) 
[NH-]C(=O)c1ccccc1NC(=O)CSc1[n-]c(=O)nc(Cc2ccccc2)c1C(=O)N1CCOCC1 (protonated)
[NH-]C(=O)c1ccccc1NC(=O)CSc1[n-]c(=O)nc(Cc2ccccc2)c1C(=O)N1CCOCC1 (3D coordinates assigned)
[NH-]C(=O)c1ccccc1NC(=O)CSc1[n-]c(=O)nc(Cc2ccccc2)c1C(=O)N1CCOCC1 (nonaromatic ring conformer: 74.52437478178919 kcal/mol)

>  <smiles>  (1897) 
NC(=O)c1ccccc1NC(=O)CSc1[nH]c(=O)nc(Cc2ccccc2)c1C(=O)N1CCOCC1

>  <score_type>  (1897) 
oracle

>  <origin>  (1897) 
adg

>  <m_score__min__energy>  (1897) 
-14.5

>  <m_primary>  (1897) 
energy

$$$$
14:0
     RDKit          3D

 36 39  0  0  0  0  0  0  0  0999 V2000
   59.2350   27.7470   47.1590 C   0  0  0  0  0  0  0  0  0  0  0  0
   58.7160   28.4440   46.1380 C   0  0  0  0  0  0  0  0  0  0  0  0
   57.9160   27.9570   45.0900 C   0  0  0  0  0  0  0  0  0  0  0  0
   57.6190   26.6970   44.7160 C   0  0  0  0  0  0  0  0  0  0  0  0
   57.0040   25.6660   45.5680 C   0  0  0  0  0  0  0  0  0  0  0  0
   57.6710   24.5970   46.0380 N   0  0  0  0  0  0  0  0  0  0  0  0
   56.7820   24.0150   46.8720 C   0  0  0  0  0  0  0  0  0  0  0  0
   57.0390   22.9570   47.5030 O   0  0  0  0  0  0  0  0  0  0  0  0
   55.6040   24.6630   46.9890 N   0  0  0  0  0  0  0  0  0  0  0  0
   55.7650   25.7130   46.1700 C   0  0  0  0  0  0  0  0  0  0  0  0
   54.8130   26.7100   46.0000 O   0  0  0  0  0  0  0  0  0  0  0  0
   57.4350   29.0700   44.4200 C   0  0  0  0  0  0  0  0  0  0  0  0
   57.9980   30.1760   45.0220 C   0  0  0  0  0  0  0  0  0  0  0  0
   57.7650   31.5950   44.6000 C   0  0  0  0  0  0  0  0  0  0  0  0
   58.7730   29.7980   46.0620 N   0  0  0  0  0  0  0  0  0  0  0  0
   59.4880   30.6870   46.9360 C   0  0  0  0  0  0  0  0  0  0  0  0
   60.3930   31.6110   46.4020 C   0  0  0  0  0  0  0  0  0  0  0  0
   61.0770   32.4940   47.2430 C   0  0  0  0  0  0  0  0  0  0  0  0
   60.8730   32.4520   48.6340 C   0  0  0  0  0  0  0  0  0  0  0  0
   61.5840   33.4010   49.5200 C   0  0  0  0  0  0  0  0  0  0  0  0
   61.2570   34.6210   49.5090 O   0  0  0  0  0  0  0  0  0  0  0  0
   62.6250   32.9550   50.4080 N   0  0  0  0  0  0  0  0  0  0  0  0
   63.7450   32.1640   49.8940 C   0  0  0  0  0  0  0  0  0  0  0  0
   64.9670   33.0680   49.7240 C   0  0  0  0  0  0  0  0  0  0  0  0
   65.2110   33.8610   50.9470 N   0  0  0  0  0  0  0  0  0  0  0  0
   66.5500   34.2630   51.3340 C   0  0  0  0  0  0  0  0  0  0  0  0
   66.7040   35.1700   52.1980 O   0  0  0  0  0  0  0  0  0  0  0  0
   67.7960   33.6500   50.7410 C   0  0  0  0  0  0  0  0  0  0  0  0
   68.2060   32.3440   51.4580 C   0  0  0  0  0  0  0  0  0  0  0  0
   67.1830   31.2400   51.1660 C   0  0  0  0  0  0  0  0  0  0  0  0
   68.3390   32.5500   52.9750 C   0  0  0  0  0  0  0  0  0  0  0  0
   64.0630   34.5710   51.5410 C   0  0  0  0  0  0  0  0  0  0  0  0
   62.8570   33.6390   51.6800 C   0  0  0  0  0  0  0  0  0  0  0  0
   59.9670   31.5180   49.1650 C   0  0  0  0  0  0  0  0  0  0  0  0
   59.2790   30.6400   48.3220 C   0  0  0  0  0  0  0  0  0  0  0  0
   58.4180   29.7370   48.8560 F   0  0  0  0  0  0  0  0  0  0  0  0
  1  2  2  0
  2  3  1  0
  3  4  2  3
  4  5  1  0
  5  6  1  0
  6  7  1  0
  7  8  2  0
  7  9  1  0
  9 10  1  0
 10 11  1  0
  3 12  1  0
 12 13  2  0
 13 14  1  0
 13 15  1  0
 15 16  1  0
 16 17  2  0
 17 18  1  0
 18 19  2  0
 19 20  1  0
 20 21  2  0
 20 22  1  0
 22 23  1  0
 23 24  1  0
 24 25  1  0
 25 26  1  0
 26 27  2  0
 26 28  1  0
 28 29  1  0
 29 30  1  0
 29 31  1  0
 25 32  1  0
 32 33  1  0
 19 34  1  0
 34 35  2  0
 35 36  1  0
 15  2  1  0
 35 16  1  0
 10  5  2  0
 33 22  1  0
M  CHG  3   6  -1   9  -1  11  -1
M  END
>  <UniqueID>  (1898) 
15

>  <SMILES>  (1898) 
C=c1c(=Cc2[n-]c(=O)[n-]c2[O-])cc(C)n1-c1ccc(C(=O)N2CCN(C(=O)CC(C)C)CC2)cc1F

>  <Energy>  (1898) 
142.03529877440232

>  <Genealogy>  (1898) 
C=c1c(=Cc2[n-]c(=O)[n-]c2[O-])cc(C)n1-c1ccc(C(=O)N2CCN(C(=O)CC(C)C)CC2)cc1F (protonated)
C=c1c(=Cc2[n-]c(=O)[n-]c2[O-])cc(C)n1-c1ccc(C(=O)N2CCN(C(=O)CC(C)C)CC2)cc1F (3D coordinates assigned)
C=c1c(=Cc2[n-]c(=O)[n-]c2[O-])cc(C)n1-c1ccc(C(=O)N2CCN(C(=O)CC(C)C)CC2)cc1F (nonaromatic ring conformer: 142.03529877440232 kcal/mol)

>  <smiles>  (1898) 
C=c1c(=Cc2[nH]c(=O)[nH]c2O)cc(C)n1-c1ccc(C(=O)N2CCN(C(=O)CC(C)C)CC2)cc1F

>  <score_type>  (1898) 
oracle

>  <origin>  (1898) 
adg

>  <m_score__min__energy>  (1898) 
-15.859999999999999

>  <m_primary>  (1898) 
energy

$$$$
23:0
     RDKit          3D

 29 31  0  0  0  0  0  0  0  0999 V2000
   55.5510   30.7440   44.4940 O   0  0  0  0  0  0  0  0  0  0  0  0
   56.3670   29.7920   44.6130 C   0  0  0  0  0  0  0  0  0  0  0  0
   57.7840   30.0110   44.1690 C   0  0  0  0  0  0  0  0  0  0  0  0
   58.2690   31.2350   44.7150 O   0  0  0  0  0  0  0  0  0  0  0  0
   58.5770   31.4330   46.0680 C   0  0  0  0  0  0  0  0  0  0  0  0
   58.8160   32.7390   46.5100 C   0  0  0  0  0  0  0  0  0  0  0  0
   59.1310   32.9900   47.8490 C   0  0  0  0  0  0  0  0  0  0  0  0
   59.2140   31.9310   48.7620 C   0  0  0  0  0  0  0  0  0  0  0  0
   59.5820   32.2310   50.4590 S   0  0  0  0  0  0  0  0  0  0  0  0
   60.6320   31.2700   50.9450 O   0  0  0  0  0  0  0  0  0  0  0  0
   58.3350   32.0270   51.2720 O   0  0  0  0  0  0  0  0  0  0  0  0
   60.1400   33.8620   50.6680 N   0  0  0  0  0  0  0  0  0  0  0  0
   61.5930   33.8740   50.8050 C   0  0  0  0  0  0  0  0  0  0  0  0
   62.2140   33.4580   49.5030 C   0  0  0  0  0  0  0  0  0  0  0  0
   61.9820   34.2080   48.3370 C   0  0  0  0  0  0  0  0  0  0  0  0
   62.5880   33.8410   47.1320 C   0  0  0  0  0  0  0  0  0  0  0  0
   63.4390   32.7330   47.0850 C   0  0  0  0  0  0  0  0  0  0  0  0
   63.6880   31.9920   48.2430 C   0  0  0  0  0  0  0  0  0  0  0  0
   63.0830   32.3560   49.4510 C   0  0  0  0  0  0  0  0  0  0  0  0
   58.9700   30.6220   48.3270 C   0  0  0  0  0  0  0  0  0  0  0  0
   58.6560   30.3710   46.9890 C   0  0  0  0  0  0  0  0  0  0  0  0
   55.8850   28.5470   45.1540 N   0  0  0  0  0  0  0  0  0  0  0  0
   56.5540   27.5430   45.6520 C   0  0  0  0  0  0  0  0  0  0  0  0
   57.9120   27.5710   45.7560 N   0  0  0  0  0  0  0  0  0  0  0  0
   58.6220   26.5300   46.2670 C   0  0  0  0  0  0  0  0  0  0  0  0
   57.9590   25.3840   46.7070 C   0  0  0  0  0  0  0  0  0  0  0  0
   56.5680   25.3230   46.6160 C   0  0  0  0  0  0  0  0  0  0  0  0
   55.8570   26.4040   46.0860 C   0  0  0  0  0  0  0  0  0  0  0  0
   54.4700   26.3410   45.9930 O   0  0  0  0  0  0  0  0  0  0  0  0
  1  2  2  0
  2  3  1  0
  3  4  1  0
  4  5  1  0
  5  6  2  0
  6  7  1  0
  7  8  2  0
  8  9  1  0
  9 10  2  0
  9 11  2  0
  9 12  1  0
 12 13  1  0
 13 14  1  0
 14 15  2  0
 15 16  1  0
 16 17  2  0
 17 18  1  0
 18 19  2  0
  8 20  1  0
 20 21  2  0
  2 22  1  0
 22 23  2  3
 23 24  1  0
 24 25  1  0
 25 26  2  0
 26 27  1  0
 27 28  2  0
 28 29  1  0
 21  5  1  0
 28 23  1  0
 19 14  1  0
M  CHG  3  12  -1  24  -1  29  -1
M  END
>  <UniqueID>  (1899) 
23

>  <SMILES>  (1899) 
O=C(COc1ccc(S(=O)(=O)[N-]Cc2ccccc2)cc1)N=c1[n-]cccc1[O-]

>  <Energy>  (1899) 
49.28780877501555

>  <Genealogy>  (1899) 
O=C(COc1ccc(S(=O)(=O)[N-]Cc2ccccc2)cc1)N=c1[n-]cccc1[O-] (protonated)
O=C(COc1ccc(S(=O)(=O)[N-]Cc2ccccc2)cc1)N=c1[n-]cccc1[O-] (3D coordinates assigned)
O=C(COc1ccc(S(=O)(=O)[N-]Cc2ccccc2)cc1)N=c1[n-]cccc1[O-] (optimized conformer: 49.28780877501555 kcal/mol)

>  <smiles>  (1899) 
O=C(COc1ccc(S(=O)(=O)NCc2ccccc2)cc1)N=c1[nH]cccc1O

>  <score_type>  (1899) 
oracle

>  <origin>  (1899) 
adg

>  <m_score__min__energy>  (1899) 
-14.56

>  <m_primary>  (1899) 
energy

$$$$
24:0
     RDKit          3D

 32 35  0  0  0  0  0  0  0  0999 V2000
   63.7630   31.7430   48.7420 O   0  0  0  0  0  0  0  0  0  0  0  0
   62.4900   32.3090   48.5170 C   0  0  1  0  0  0  0  0  0  0  0  0
   62.4720   32.9460   47.1140 C   0  0  0  0  0  0  0  0  0  0  0  0
   61.3960   31.2210   48.6160 C   0  0  0  0  0  0  0  0  0  0  0  0
   61.4300   30.5250   49.9900 C   0  0  0  0  0  0  0  0  0  0  0  0
   61.7760   31.4500   51.1010 N   0  0  2  0  0  0  0  0  0  0  0  0
   61.2230   30.9950   52.3650 C   0  0  0  0  0  0  0  0  0  0  0  0
   62.0270   30.7120   53.2970 O   0  0  0  0  0  0  0  0  0  0  0  0
   59.7560   30.8260   52.6380 C   0  0  0  0  0  0  0  0  0  0  0  0
   59.0080   31.9520   53.0310 C   0  0  0  0  0  0  0  0  0  0  0  0
   57.6480   31.8450   53.3330 C   0  0  0  0  0  0  0  0  0  0  0  0
   57.0000   30.6080   53.2450 C   0  0  0  0  0  0  0  0  0  0  0  0
   55.6100   30.4930   53.6030 N   0  0  0  0  0  0  0  0  0  0  0  0
   55.1370   30.1070   54.8100 C   0  0  0  0  0  0  0  0  0  0  0  0
   55.9850   29.7320   55.9890 C   0  0  0  0  0  0  0  0  0  0  0  0
   53.7570   30.1400   54.8200 C   0  0  0  0  0  0  0  0  0  0  0  0
   53.3610   30.5880   53.5690 C   0  0  0  0  0  0  0  0  0  0  0  0
   52.0950   30.8200   53.1740 C   0  0  0  0  0  0  0  0  0  0  0  0
   51.7170   31.0690   51.7720 C   0  0  0  0  0  0  0  0  0  0  0  0
   51.8990   30.1780   50.7790 N   0  0  0  0  0  0  0  0  0  0  0  0
   51.3780   30.8060   49.7010 C   0  0  0  0  0  0  0  0  0  0  0  0
   51.3760   30.2910   48.5530 O   0  0  0  0  0  0  0  0  0  0  0  0
   50.8570   32.0280   49.9520 N   0  0  0  0  0  0  0  0  0  0  0  0
   51.0730   32.1760   51.2680 C   0  0  0  0  0  0  0  0  0  0  0  0
   50.6540   33.2820   52.0000 O   0  0  0  0  0  0  0  0  0  0  0  0
   54.5340   30.8010   52.8360 C   0  0  0  0  0  0  0  0  0  0  0  0
   54.6130   31.2110   51.5620 C   0  0  0  0  0  0  0  0  0  0  0  0
   57.7260   29.4800   52.8450 C   0  0  0  0  0  0  0  0  0  0  0  0
   57.1110   28.2750   52.7180 F   0  0  0  0  0  0  0  0  0  0  0  0
   59.0900   29.5840   52.5580 C   0  0  0  0  0  0  0  0  0  0  0  0
   61.4750   32.8770   50.8370 C   0  0  0  0  0  0  0  0  0  0  0  0
   62.2380   33.4030   49.5920 C   0  0  0  0  0  0  0  0  0  0  0  0
  2  1  1  0
  2  3  1  6
  2  4  1  0
  4  5  1  0
  5  6  1  0
  6  7  1  1
  7  8  2  0
  7  9  1  0
  9 10  2  0
 10 11  1  0
 11 12  2  0
 12 13  1  0
 13 14  1  0
 14 15  1  0
 14 16  2  0
 16 17  1  0
 17 18  2  0
 18 19  1  0
 19 20  1  0
 20 21  1  0
 21 22  2  0
 21 23  1  0
 23 24  1  0
 24 25  1  0
 17 26  1  0
 26 27  2  0
 12 28  1  0
 28 29  1  0
 28 30  2  0
  6 31  1  0
 31 32  1  0
 32  2  1  0
 30  9  1  0
 26 13  1  0
 24 19  2  0
M  CHG  4   6   1  20  -1  23  -1  25  -1
M  END
>  <UniqueID>  (1900) 
24

>  <SMILES>  (1900) 
C=c1/c(=C/c2[n-]c(=O)[n-]c2[O-])cc(C)n1-c1ccc(C(=O)[NH+]2CCC(C)(O)CC2)cc1F

>  <Energy>  (1900) 
145.60895459543298

>  <Genealogy>  (1900) 
C=c1c(=Cc2[n-]c(=O)[n-]c2[O-])cc(C)n1-c1ccc(C(=O)[NH+]2CCC(C)(O)CC2)cc1F (protonated)
C=c1/c(=C/c2[n-]c(=O)[n-]c2[O-])cc(C)n1-c1ccc(C(=O)[NH+]2CCC(C)(O)CC2)cc1F (cis-trans isomerization)
C=c1/c(=C/c2[n-]c(=O)[n-]c2[O-])cc(C)n1-c1ccc(C(=O)[NH+]2CCC(C)(O)CC2)cc1F (3D coordinates assigned)
C=c1/c(=C/c2[n-]c(=O)[n-]c2[O-])cc(C)n1-c1ccc(C(=O)[NH+]2CCC(C)(O)CC2)cc1F (nonaromatic ring conformer: 145.60895459543298 kcal/mol)

>  <smiles>  (1900) 
C=c1c(=Cc2[nH]c(=O)[nH]c2O)cc(C)n1-c1ccc(C(=O)N2CCC(C)(O)CC2)cc1F

>  <score_type>  (1900) 
oracle

>  <origin>  (1900) 
adg

>  <m_score__min__energy>  (1900) 
-15.210000000000001

>  <m_primary>  (1900) 
energy

$$$$
27:0
     RDKit          3D

 39 43  0  0  0  0  0  0  0  0999 V2000
   56.5480   25.3570   47.5110 O   0  0  0  0  0  0  0  0  0  0  0  0
   56.2570   25.9640   46.4430 C   0  0  0  0  0  0  0  0  0  0  0  0
   57.3380   26.5880   45.6150 C   0  0  0  0  0  0  0  0  0  0  0  0
   57.1420   28.0740   45.5410 C   0  0  0  0  0  0  0  0  0  0  0  0
   56.3530   28.6590   44.6200 N   0  0  0  0  0  0  0  0  0  0  0  0
   56.4970   29.9760   44.8720 C   0  0  0  0  0  0  0  0  0  0  0  0
   55.8990   30.8630   44.2090 O   0  0  0  0  0  0  0  0  0  0  0  0
   57.3360   30.2670   45.8860 N   0  0  0  0  0  0  0  0  0  0  0  0
   57.7520   29.0580   46.3090 C   0  0  0  0  0  0  0  0  0  0  0  0
   58.7270   28.8810   47.4030 C   0  0  0  0  0  0  0  0  0  0  0  0
   59.1840   27.7360   47.6640 O   0  0  0  0  0  0  0  0  0  0  0  0
   59.1510   30.0060   48.1830 N   0  0  0  0  0  0  0  0  0  0  0  0
   60.1290   29.8650   49.2190 C   0  0  0  0  0  0  0  0  0  0  0  0
   59.8860   28.9640   50.2650 C   0  0  0  0  0  0  0  0  0  0  0  0
   60.8710   28.7110   51.2320 C   0  0  0  0  0  0  0  0  0  0  0  0
   60.6110   27.7500   52.3210 C   0  0  0  0  0  0  0  0  0  0  0  0
   59.5930   27.9070   53.0470 O   0  0  0  0  0  0  0  0  0  0  0  0
   61.4880   26.6340   52.5570 N   0  0  0  0  0  0  0  0  0  0  0  0
   61.4900   25.8860   53.8040 C   0  0  0  0  0  0  0  0  0  0  0  0
   62.5060   24.7690   53.6060 C   0  0  0  0  0  0  0  0  0  0  0  0
   62.6990   24.6470   52.0950 C   0  0  0  0  0  0  0  0  0  0  0  0
   62.2700   25.9900   51.5140 C   0  0  0  0  0  0  0  0  0  0  0  0
   62.0890   29.4040   51.1720 C   0  0  0  0  0  0  0  0  0  0  0  0
   62.3210   30.3340   50.1560 C   0  0  0  0  0  0  0  0  0  0  0  0
   61.3500   30.5720   49.1700 C   0  0  0  0  0  0  0  0  0  0  0  0
   61.5780   31.5990   48.1870 N   0  0  0  0  0  0  0  0  0  0  0  0
   60.5440   32.6300   48.0120 C   0  0  0  0  0  0  0  0  0  0  0  0
   61.0740   33.8350   47.2350 C   0  0  0  0  0  0  0  0  0  0  0  0
   62.4150   34.0820   47.5930 O   0  0  0  0  0  0  0  0  0  0  0  0
   63.2360   33.0880   47.0140 C   0  0  0  0  0  0  0  0  0  0  0  0
   62.8810   31.6640   47.5020 C   0  0  0  0  0  0  0  0  0  0  0  0
   54.9010   26.0190   45.9920 N   0  0  0  0  0  0  0  0  0  0  0  0
   54.1400   24.8390   45.6060 C   0  0  0  0  0  0  0  0  0  0  0  0
   55.0720   23.7730   45.0990 C   0  0  0  0  0  0  0  0  0  0  0  0
   55.4660   22.7260   45.9500 C   0  0  0  0  0  0  0  0  0  0  0  0
   56.3080   21.7120   45.4780 C   0  0  0  0  0  0  0  0  0  0  0  0
   56.7610   21.7360   44.1550 C   0  0  0  0  0  0  0  0  0  0  0  0
   56.3640   22.7680   43.3000 C   0  0  0  0  0  0  0  0  0  0  0  0
   55.5210   23.7830   43.7660 C   0  0  0  0  0  0  0  0  0  0  0  0
  1  2  2  0
  2  3  1  0
  3  4  1  0
  4  5  1  0
  5  6  1  0
  6  7  2  0
  6  8  1  0
  8  9  1  0
  9 10  1  0
 10 11  2  0
 10 12  1  0
 12 13  1  0
 13 14  2  0
 14 15  1  0
 15 16  1  0
 16 17  2  0
 16 18  1  0
 18 19  1  0
 19 20  1  0
 20 21  1  0
 21 22  1  0
 15 23  2  0
 23 24  1  0
 24 25  2  0
 25 26  1  0
 26 27  1  0
 27 28  1  0
 28 29  1  0
 29 30  1  0
 30 31  1  0
  2 32  1  0
 32 33  1  0
 33 34  1  0
 34 35  2  0
 35 36  1  0
 36 37  2  0
 37 38  1  0
 38 39  2  0
  9  4  2  0
 25 13  1  0
 31 26  1  0
 39 34  1  0
 22 18  1  0
M  CHG  3   5  -1   8  -1  32  -1
M  END
>  <UniqueID>  (1901) 
27

>  <SMILES>  (1901) 
O=C(Cc1[n-]c(=O)[n-]c1C(=O)Nc1cc(C(=O)N2CCCC2)ccc1N1CCOCC1)[N-]Cc1ccccc1

>  <Energy>  (1901) 
115.92969639378289

>  <Genealogy>  (1901) 
O=C(Cc1[n-]c(=O)[n-]c1C(=O)Nc1cc(C(=O)N2CCCC2)ccc1N1CCOCC1)[N-]Cc1ccccc1 (protonated)
O=C(Cc1[n-]c(=O)[n-]c1C(=O)Nc1cc(C(=O)N2CCCC2)ccc1N1CCOCC1)[N-]Cc1ccccc1 (3D coordinates assigned)
O=C(Cc1[n-]c(=O)[n-]c1C(=O)Nc1cc(C(=O)N2CCCC2)ccc1N1CCOCC1)[N-]Cc1ccccc1 (nonaromatic ring conformer: 115.92969639378289 kcal/mol)

>  <smiles>  (1901) 
O=C(Cc1[nH]c(=O)[nH]c1C(=O)Nc1cc(C(=O)N2CCCC2)ccc1N1CCOCC1)NCc1ccccc1

>  <score_type>  (1901) 
oracle

>  <origin>  (1901) 
adg

>  <m_score__min__energy>  (1901) 
-14.84

>  <m_primary>  (1901) 
energy

$$$$
29:0
     RDKit          3D

 30 33  0  0  0  0  0  0  0  0999 V2000
   60.1070   29.5980   44.9990 C   0  0  0  0  0  0  0  0  0  0  0  0
   59.7350   29.3550   46.2650 C   0  0  0  0  0  0  0  0  0  0  0  0
   59.0090   28.2500   46.7300 C   0  0  0  0  0  0  0  0  0  0  0  0
   58.5530   27.2150   45.9900 C   0  0  0  0  0  0  0  0  0  0  0  0
   57.2470   26.5390   46.1640 C   0  0  0  0  0  0  0  0  0  0  0  0
   56.0990   26.8670   45.5450 N   0  0  0  0  0  0  0  0  0  0  0  0
   55.2220   25.9440   45.9960 C   0  0  0  0  0  0  0  0  0  0  0  0
   54.0150   25.9240   45.6390 O   0  0  0  0  0  0  0  0  0  0  0  0
   55.7400   25.0450   46.8580 N   0  0  0  0  0  0  0  0  0  0  0  0
   57.0230   25.4330   46.9500 C   0  0  0  0  0  0  0  0  0  0  0  0
   57.9740   24.7890   47.7360 O   0  0  0  0  0  0  0  0  0  0  0  0
   58.8770   28.4280   48.1030 C   0  0  0  0  0  0  0  0  0  0  0  0
   59.5040   29.6170   48.4140 C   0  0  0  0  0  0  0  0  0  0  0  0
   59.6440   30.1650   49.8020 C   0  0  0  0  0  0  0  0  0  0  0  0
   60.0370   30.1710   47.3040 N   0  0  0  0  0  0  0  0  0  0  0  0
   60.7710   31.4070   47.2450 C   0  0  0  0  0  0  0  0  0  0  0  0
   62.1720   31.3690   47.1880 C   0  0  0  0  0  0  0  0  0  0  0  0
   62.9070   32.5560   47.1460 C   0  0  0  0  0  0  0  0  0  0  0  0
   62.2490   33.7870   47.1750 C   0  0  0  0  0  0  0  0  0  0  0  0
   60.8550   33.8350   47.2370 C   0  0  0  0  0  0  0  0  0  0  0  0
   60.1020   32.6510   47.2480 C   0  0  0  0  0  0  0  0  0  0  0  0
   58.6300   32.7190   47.3270 C   0  0  0  0  0  0  0  0  0  0  0  0
   58.0540   32.2990   48.3630 O   0  0  0  0  0  0  0  0  0  0  0  0
   57.8320   33.2150   46.2440 N   0  0  0  0  0  0  0  0  0  0  0  0
   58.1850   33.1440   44.8290 C   0  0  0  0  0  0  0  0  0  0  0  0
   57.5820   31.9340   44.1900 C   0  0  0  0  0  0  0  0  0  0  0  0
   57.0530   30.8410   44.8650 C   0  0  0  0  0  0  0  0  0  0  0  0
   56.5040   29.8790   44.0090 C   0  0  0  0  0  0  0  0  0  0  0  0
   56.5840   30.2180   42.6640 C   0  0  0  0  0  0  0  0  0  0  0  0
   57.3360   31.7180   42.5400 S   0  0  0  0  0  0  0  0  0  0  0  0
  1  2  2  0
  2  3  1  0
  3  4  2  3
  4  5  1  0
  5  6  1  0
  6  7  1  0
  7  8  2  0
  7  9  1  0
  9 10  1  0
 10 11  1  0
  3 12  1  0
 12 13  2  0
 13 14  1  0
 13 15  1  0
 15 16  1  0
 16 17  2  0
 17 18  1  0
 18 19  2  0
 19 20  1  0
 20 21  2  0
 21 22  1  0
 22 23  2  0
 22 24  1  0
 24 25  1  0
 25 26  1  0
 26 27  2  0
 27 28  1  0
 28 29  2  0
 29 30  1  0
 15  2  1  0
 21 16  1  0
 30 26  1  0
 10  5  2  0
M  CHG  3   6  -1   9  -1  24  -1
M  END
>  <UniqueID>  (1902) 
29

>  <SMILES>  (1902) 
C=c1c(=Cc2[n-]c(=O)[n-]c2O)cc(C)n1-c1ccccc1C(=O)[N-]Cc1cccs1

>  <Energy>  (1902) 
147.71924138245382

>  <Genealogy>  (1902) 
C=c1c(=Cc2[n-]c(=O)[n-]c2O)cc(C)n1-c1ccccc1C(=O)[N-]Cc1cccs1 (protonated)
C=c1c(=Cc2[n-]c(=O)[n-]c2O)cc(C)n1-c1ccccc1C(=O)[N-]Cc1cccs1 (3D coordinates assigned)
C=c1c(=Cc2[n-]c(=O)[n-]c2O)cc(C)n1-c1ccccc1C(=O)[N-]Cc1cccs1 (optimized conformer: 147.71924138245382 kcal/mol)

>  <smiles>  (1902) 
C=c1c(=Cc2[nH]c(=O)[nH]c2O)cc(C)n1-c1ccccc1C(=O)NCc1cccs1

>  <score_type>  (1902) 
oracle

>  <origin>  (1902) 
adg

>  <m_score__min__energy>  (1902) 
-14.65

>  <m_primary>  (1902) 
energy

$$$$
34:0
     RDKit          3D

 28 30  0  0  0  0  0  0  0  0999 V2000
   59.2640   30.3990   47.6400 C   0  0  0  0  0  0  0  0  0  0  0  0
   58.4800   31.3020   46.7240 C   0  0  0  0  0  0  0  0  0  0  0  0
   58.1100   32.5810   47.1780 C   0  0  0  0  0  0  0  0  0  0  0  0
   57.3860   33.4450   46.3540 C   0  0  0  0  0  0  0  0  0  0  0  0
   57.0150   33.0410   45.0720 C   0  0  0  0  0  0  0  0  0  0  0  0
   57.3610   31.7710   44.6110 C   0  0  0  0  0  0  0  0  0  0  0  0
   58.0930   30.8880   45.4240 C   0  0  0  0  0  0  0  0  0  0  0  0
   58.4060   29.5360   44.9120 C   0  0  0  0  0  0  0  0  0  0  0  0
   59.3730   29.3890   44.1160 O   0  0  0  0  0  0  0  0  0  0  0  0
   57.6330   28.3480   45.3280 C   0  0  0  0  0  0  0  0  0  0  0  0
   58.1650   27.1460   45.7760 C   0  0  0  0  0  0  0  0  0  0  0  0
   57.1690   26.2740   46.0420 N   0  0  0  0  0  0  0  0  0  0  0  0
   57.3290   24.9250   46.5870 C   0  0  0  0  0  0  0  0  0  0  0  0
   58.3060   24.1220   45.7690 C   0  0  0  0  0  0  0  0  0  0  0  0
   59.5430   24.2510   45.9690 O   0  0  0  0  0  0  0  0  0  0  0  0
   57.8650   23.1640   44.7970 N   0  0  0  0  0  0  0  0  0  0  0  0
   56.7310   23.3320   43.8930 C   0  0  0  0  0  0  0  0  0  0  0  0
   55.4430   22.9480   44.5720 C   0  0  0  0  0  0  0  0  0  0  0  0
   55.3770   21.7870   45.3540 C   0  0  0  0  0  0  0  0  0  0  0  0
   54.1770   21.4440   45.9800 C   0  0  0  0  0  0  0  0  0  0  0  0
   53.0790   22.2320   45.8260 N   0  0  0  0  0  0  0  0  0  0  0  0
   53.1100   23.3610   45.0690 C   0  0  0  0  0  0  0  0  0  0  0  0
   52.0730   24.0630   44.9490 O   0  0  0  0  0  0  0  0  0  0  0  0
   54.2920   23.7390   44.4230 C   0  0  0  0  0  0  0  0  0  0  0  0
   56.0100   26.9050   45.7740 C   0  0  0  0  0  0  0  0  0  0  0  0
   54.7500   26.3370   45.9350 O   0  0  0  0  0  0  0  0  0  0  0  0
   56.2580   28.1790   45.3220 C   0  0  0  0  0  0  0  0  0  0  0  0
   55.3010   29.1000   44.9170 O   0  0  0  0  0  0  0  0  0  0  0  0
  1  2  1  0
  2  3  2  0
  3  4  1  0
  4  5  2  0
  5  6  1  0
  6  7  2  0
  7  8  1  0
  8  9  2  0
  8 10  1  0
 10 11  2  0
 11 12  1  0
 12 13  1  0
 13 14  1  0
 14 15  2  0
 14 16  1  0
 16 17  1  0
 17 18  1  0
 18 19  1  0
 19 20  2  0
 20 21  1  0
 21 22  1  0
 22 23  2  0
 22 24  1  0
 12 25  1  0
 25 26  1  0
 25 27  2  0
 27 28  1  0
  7  2  1  0
 27 10  1  0
 24 18  2  0
M  CHG  4  16  -1  21  -1  26  -1  28  -1
M  END
>  <UniqueID>  (1903) 
33

>  <SMILES>  (1903) 
Cc1ccccc1C(=O)c1cn(CC(=O)[N-]Cc2cc[n-]c(=O)c2)c([O-])c1[O-]

>  <Energy>  (1903) 
79.49121216116866

>  <Genealogy>  (1903) 
Cc1ccccc1C(=O)c1cn(CC(=O)[N-]Cc2cc[n-]c(=O)c2)c([O-])c1[O-] (protonated)
Cc1ccccc1C(=O)c1cn(CC(=O)[N-]Cc2cc[n-]c(=O)c2)c([O-])c1[O-] (3D coordinates assigned)
Cc1ccccc1C(=O)c1cn(CC(=O)[N-]Cc2cc[n-]c(=O)c2)c([O-])c1[O-] (optimized conformer: 79.49121216116866 kcal/mol)

>  <smiles>  (1903) 
Cc1ccccc1C(=O)c1cn(CC(=O)NCc2cc[nH]c(=O)c2)c(O)c1O

>  <score_type>  (1903) 
oracle

>  <origin>  (1903) 
adg

>  <m_score__min__energy>  (1903) 
-17.059999999999999

>  <m_primary>  (1903) 
energy

$$$$
45:0
     RDKit          3D

 33 36  0  0  0  0  0  0  0  0999 V2000
   58.9240   29.9490   44.4640 C   0  0  0  0  0  0  0  0  0  0  0  0
   58.7850   29.6300   45.7610 C   0  0  0  0  0  0  0  0  0  0  0  0
   58.2360   28.4510   46.2830 C   0  0  0  0  0  0  0  0  0  0  0  0
   57.7290   27.4160   45.5800 C   0  0  0  0  0  0  0  0  0  0  0  0
   57.1960   26.1620   46.1570 C   0  0  0  0  0  0  0  0  0  0  0  0
   57.9250   25.1020   46.5510 N   0  0  0  0  0  0  0  0  0  0  0  0
   56.9940   24.2080   46.9470 C   0  0  0  0  0  0  0  0  0  0  0  0
   57.2940   23.0690   47.3930 O   0  0  0  0  0  0  0  0  0  0  0  0
   55.7170   24.6260   46.8240 N   0  0  0  0  0  0  0  0  0  0  0  0
   55.8630   25.8620   46.3180 C   0  0  0  0  0  0  0  0  0  0  0  0
   54.7980   26.6990   46.0100 O   0  0  0  0  0  0  0  0  0  0  0  0
   58.3040   28.5760   47.6690 C   0  0  0  0  0  0  0  0  0  0  0  0
   58.8840   29.8020   47.9300 C   0  0  0  0  0  0  0  0  0  0  0  0
   59.1640   30.3490   49.2970 C   0  0  0  0  0  0  0  0  0  0  0  0
   59.1790   30.4360   46.7770 N   0  0  0  0  0  0  0  0  0  0  0  0
   59.8050   31.7240   46.6720 C   0  0  0  0  0  0  0  0  0  0  0  0
   61.1350   31.8820   47.0810 C   0  0  0  0  0  0  0  0  0  0  0  0
   61.7860   33.1270   46.9660 C   0  0  0  0  0  0  0  0  0  0  0  0
   63.2110   33.2560   47.4040 C   0  0  0  0  0  0  0  0  0  0  0  0
   64.1170   33.1010   46.5360 O   0  0  0  0  0  0  0  0  0  0  0  0
   63.5700   33.5920   48.7750 N   0  0  0  0  0  0  0  0  0  0  0  0
   63.7040   32.3840   49.6150 C   0  0  0  0  0  0  0  0  0  0  0  0
   62.3490   31.7360   49.9130 C   0  0  0  0  0  0  0  0  0  0  0  0
   61.4410   32.7210   50.5080 N   0  0  0  0  0  0  0  0  0  0  0  0
   60.4620   32.2850   51.4820 C   0  0  0  0  0  0  0  0  0  0  0  0
   59.2350   33.0940   51.7870 C   0  0  0  0  0  0  0  0  0  0  0  0
   60.6380   31.2070   52.1130 O   0  0  0  0  0  0  0  0  0  0  0  0
   61.3000   34.0160   49.8290 C   0  0  0  0  0  0  0  0  0  0  0  0
   62.6690   34.5870   49.4070 C   0  0  0  0  0  0  0  0  0  0  0  0
   61.0610   34.2140   46.4340 C   0  0  0  0  0  0  0  0  0  0  0  0
   59.7320   34.0580   46.0330 C   0  0  0  0  0  0  0  0  0  0  0  0
   59.1000   32.8180   46.1500 C   0  0  0  0  0  0  0  0  0  0  0  0
   57.4290   32.6520   45.6280 Cl  0  0  0  0  0  0  0  0  0  0  0  0
  1  2  2  0
  2  3  1  0
  3  4  2  3
  4  5  1  0
  5  6  1  0
  6  7  1  0
  7  8  2  0
  7  9  1  0
  9 10  1  0
 10 11  1  0
  3 12  1  0
 12 13  2  0
 13 14  1  0
 13 15  1  0
 15 16  1  0
 16 17  2  0
 17 18  1  0
 18 19  1  0
 19 20  2  0
 19 21  1  0
 21 22  1  0
 22 23  1  0
 23 24  1  0
 24 25  1  0
 25 26  1  0
 25 27  2  0
 24 28  1  0
 28 29  1  0
 18 30  2  0
 30 31  1  0
 31 32  2  0
 32 33  1  0
 15  2  1  0
 32 16  1  0
 10  5  2  0
 29 21  1  0
M  CHG  4   6  -1   9  -1  11  -1  21   1
M  END
>  <UniqueID>  (1904) 
44

>  <SMILES>  (1904) 
C=c1c(=Cc2[n-]c(=O)[n-]c2[O-])cc(C)n1-c1cc(C(=O)[NH+]2CCN(C(C)=O)CC2)ccc1Cl

>  <Energy>  (1904) 
135.98226365921394

>  <Genealogy>  (1904) 
C=c1c(=Cc2[n-]c(=O)[n-]c2[O-])cc(C)n1-c1cc(C(=O)[NH+]2CCN(C(C)=O)CC2)ccc1Cl (protonated)
C=c1c(=Cc2[n-]c(=O)[n-]c2[O-])cc(C)n1-c1cc(C(=O)[NH+]2CCN(C(C)=O)CC2)ccc1Cl (3D coordinates assigned)
C=c1c(=Cc2[n-]c(=O)[n-]c2[O-])cc(C)n1-c1cc(C(=O)[NH+]2CCN(C(C)=O)CC2)ccc1Cl (nonaromatic ring conformer: 135.98226365921394 kcal/mol)

>  <smiles>  (1904) 
C=c1c(=Cc2[nH]c(=O)[nH]c2O)cc(C)n1-c1cc(C(=O)N2CCN(C(C)=O)CC2)ccc1Cl

>  <score_type>  (1904) 
oracle

>  <origin>  (1904) 
adg

>  <m_score__min__energy>  (1904) 
-15.82

>  <m_primary>  (1904) 
energy

$$$$
47:0
     RDKit          3D

 33 35  0  0  0  0  0  0  0  0999 V2000
   57.3860   28.5090   43.9100 C   0  0  0  0  0  0  0  0  0  0  0  0
   57.8590   27.8840   45.0010 C   0  0  0  0  0  0  0  0  0  0  0  0
   57.7140   26.5260   45.3290 C   0  0  0  0  0  0  0  0  0  0  0  0
   57.2520   25.4850   44.6080 C   0  0  0  0  0  0  0  0  0  0  0  0
   55.9720   24.7840   44.8360 C   0  0  0  0  0  0  0  0  0  0  0  0
   54.9400   25.4090   45.5500 C   0  0  0  0  0  0  0  0  0  0  0  0
   55.0830   26.7160   46.0040 O   0  0  0  0  0  0  0  0  0  0  0  0
   53.7830   24.7390   45.7940 N   0  0  0  0  0  0  0  0  0  0  0  0
   53.6090   23.4600   45.3720 C   0  0  0  0  0  0  0  0  0  0  0  0
   52.5270   22.8630   45.6070 O   0  0  0  0  0  0  0  0  0  0  0  0
   54.6030   22.8240   44.7020 N   0  0  0  0  0  0  0  0  0  0  0  0
   55.7790   23.4490   44.4330 C   0  0  0  0  0  0  0  0  0  0  0  0
   56.6900   22.8200   43.8300 O   0  0  0  0  0  0  0  0  0  0  0  0
   58.1820   26.3890   46.6250 C   0  0  0  0  0  0  0  0  0  0  0  0
   58.6450   27.6260   47.0180 C   0  0  0  0  0  0  0  0  0  0  0  0
   59.2710   27.9150   48.3500 C   0  0  0  0  0  0  0  0  0  0  0  0
   58.4490   28.5370   46.0370 N   0  0  0  0  0  0  0  0  0  0  0  0
   58.7840   29.9350   46.1080 C   0  0  0  0  0  0  0  0  0  0  0  0
   60.0400   30.3410   46.5840 C   0  0  0  0  0  0  0  0  0  0  0  0
   60.3540   31.7000   46.6720 C   0  0  0  0  0  0  0  0  0  0  0  0
   59.4130   32.6720   46.2980 C   0  0  0  0  0  0  0  0  0  0  0  0
   59.7620   34.1040   46.3730 C   0  0  0  0  0  0  0  0  0  0  0  0
   59.5190   34.8440   45.3830 O   0  0  0  0  0  0  0  0  0  0  0  0
   60.3520   34.6890   47.5400 N   0  0  0  0  0  0  0  0  0  0  0  0
   60.2270   34.1840   48.9070 C   0  0  0  0  0  0  0  0  0  0  0  0
   61.3490   33.1890   49.2230 C   0  0  0  0  0  0  0  0  0  0  0  0
   62.6600   33.7410   48.8110 N   0  0  0  0  0  0  0  0  0  0  0  0
   63.2060   33.0150   47.6400 C   0  0  0  0  0  0  0  0  0  0  0  0
   63.2790   33.8940   46.3920 C   0  0  0  0  0  0  0  0  0  0  0  0
   63.6020   33.8640   49.9500 C   0  0  0  0  0  0  0  0  0  0  0  0
   64.8970   33.0600   49.7790 C   0  0  0  0  0  0  0  0  0  0  0  0
   58.1690   32.2640   45.7930 C   0  0  0  0  0  0  0  0  0  0  0  0
   57.8560   30.9050   45.7010 C   0  0  0  0  0  0  0  0  0  0  0  0
  1  2  2  0
  2  3  1  0
  3  4  2  0
  4  5  1  0
  5  6  2  0
  6  7  1  0
  6  8  1  0
  8  9  1  0
  9 10  2  0
  9 11  1  0
 11 12  1  0
 12 13  2  0
  3 14  1  0
 14 15  2  0
 15 16  1  0
 15 17  1  0
 17 18  1  0
 18 19  2  0
 19 20  1  0
 20 21  2  0
 21 22  1  0
 22 23  2  0
 22 24  1  0
 24 25  1  0
 25 26  1  0
 26 27  1  0
 27 28  1  0
 28 29  1  0
 27 30  1  0
 30 31  1  0
 21 32  1  0
 32 33  2  0
 17  2  1  0
 33 18  1  0
 12  5  1  0
M  CHG  4   7  -1   8  -1  11  -1  24  -1
M  END
>  <UniqueID>  (1905) 
46

>  <SMILES>  (1905) 
C=c1/c(=C\c2c([O-])[n-]c(=O)[n-]c2=O)cc(C)n1-c1ccc(C(=O)[N-]CCN(CC)CC)cc1

>  <Energy>  (1905) 
110.30129445692872

>  <Genealogy>  (1905) 
C=c1c(=Cc2c([O-])[n-]c(=O)[n-]c2=O)cc(C)n1-c1ccc(C(=O)[N-]CCN(CC)CC)cc1 (protonated)
C=c1/c(=C\c2c([O-])[n-]c(=O)[n-]c2=O)cc(C)n1-c1ccc(C(=O)[N-]CCN(CC)CC)cc1 (cis-trans isomerization)
C=c1/c(=C\c2c([O-])[n-]c(=O)[n-]c2=O)cc(C)n1-c1ccc(C(=O)[N-]CCN(CC)CC)cc1 (3D coordinates assigned)
C=c1/c(=C\c2c([O-])[n-]c(=O)[n-]c2=O)cc(C)n1-c1ccc(C(=O)[N-]CCN(CC)CC)cc1 (optimized conformer: 110.30129445692872 kcal/mol)

>  <smiles>  (1905) 
C=c1c(=Cc2c(O)[nH]c(=O)[nH]c2=O)cc(C)n1-c1ccc(C(=O)NCCN(CC)CC)cc1

>  <score_type>  (1905) 
oracle

>  <origin>  (1905) 
adg

>  <m_score__min__energy>  (1905) 
-16.530000000000001

>  <m_primary>  (1905) 
energy

$$$$
67:0
     RDKit          3D

 29 31  0  0  0  0  0  0  0  0999 V2000
   55.1690   23.6120   46.1360 C   0  0  0  0  0  0  0  0  0  0  0  0
   56.2600   24.6340   46.1620 C   0  0  0  0  0  0  0  0  0  0  0  0
   57.6210   24.4060   46.2650 C   0  0  0  0  0  0  0  0  0  0  0  0
   58.2270   23.1550   46.3450 O   0  0  0  0  0  0  0  0  0  0  0  0
   58.3200   25.5600   46.2800 N   0  0  0  0  0  0  0  0  0  0  0  0
   57.3970   26.5410   46.1910 C   0  0  0  0  0  0  0  0  0  0  0  0
   57.7320   27.9700   46.1780 C   0  0  0  0  0  0  0  0  0  0  0  0
   58.8100   28.3620   46.7060 O   0  0  0  0  0  0  0  0  0  0  0  0
   56.8600   28.8870   45.5840 O   0  0  0  0  0  0  0  0  0  0  0  0
   56.6960   28.9910   44.1740 C   0  0  0  0  0  0  0  0  0  0  0  0
   56.7880   30.4300   43.7590 C   0  0  0  0  0  0  0  0  0  0  0  0
   57.0480   30.7060   42.5570 O   0  0  0  0  0  0  0  0  0  0  0  0
   56.5540   31.5030   44.6800 N   0  0  0  0  0  0  0  0  0  0  0  0
   57.4920   32.0230   45.6340 C   0  0  0  0  0  0  0  0  0  0  0  0
   57.4290   33.3560   46.0750 C   0  0  0  0  0  0  0  0  0  0  0  0
   58.3500   33.8290   47.0140 C   0  0  0  0  0  0  0  0  0  0  0  0
   59.3350   32.9760   47.5310 C   0  0  0  0  0  0  0  0  0  0  0  0
   60.5230   33.5860   48.6840 S   0  0  0  0  0  0  0  0  0  0  0  0
   59.9040   34.6900   49.4940 O   0  0  0  0  0  0  0  0  0  0  0  0
   60.9080   32.4800   49.6270 O   0  0  0  0  0  0  0  0  0  0  0  0
   61.9610   34.1890   47.8840 N   0  0  0  0  0  0  0  0  0  0  0  0
   63.1200   34.1560   48.7840 C   0  0  0  0  0  0  0  0  0  0  0  0
   63.9230   32.9000   48.4830 C   0  0  0  0  0  0  0  0  0  0  0  0
   63.4120   32.3890   47.1520 C   0  0  0  0  0  0  0  0  0  0  0  0
   62.3140   33.3570   46.7300 C   0  0  0  0  0  0  0  0  0  0  0  0
   59.3710   31.6360   47.1210 C   0  0  0  0  0  0  0  0  0  0  0  0
   58.4480   31.1620   46.1840 C   0  0  0  0  0  0  0  0  0  0  0  0
   56.1260   26.0020   46.1200 C   0  0  0  0  0  0  0  0  0  0  0  0
   54.9310   26.7060   46.0270 O   0  0  0  0  0  0  0  0  0  0  0  0
  1  2  1  0
  2  3  2  0
  3  4  1  0
  3  5  1  0
  5  6  1  0
  6  7  1  0
  7  8  2  0
  7  9  1  0
  9 10  1  0
 10 11  1  0
 11 12  2  0
 11 13  1  0
 13 14  1  0
 14 15  2  0
 15 16  1  0
 16 17  2  0
 17 18  1  0
 18 19  2  0
 18 20  2  0
 18 21  1  0
 21 22  1  0
 22 23  1  0
 23 24  1  0
 24 25  1  0
 17 26  1  0
 26 27  2  0
  6 28  2  0
 28 29  1  0
 28  2  1  0
 27 14  1  0
 25 21  1  0
M  CHG  3   5  -1  13  -1  29  -1
M  END
>  <UniqueID>  (1906) 
64

>  <SMILES>  (1906) 
Cc1c(O)[n-]c(C(=O)OCC(=O)[N-]c2ccc(S(=O)(=O)N3CCCC3)cc2)c1[O-]

>  <Energy>  (1906) 
75.14211098293458

>  <Genealogy>  (1906) 
Cc1c(O)[n-]c(C(=O)OCC(=O)[N-]c2ccc(S(=O)(=O)N3CCCC3)cc2)c1[O-] (protonated)
Cc1c(O)[n-]c(C(=O)OCC(=O)[N-]c2ccc(S(=O)(=O)N3CCCC3)cc2)c1[O-] (3D coordinates assigned)
Cc1c(O)[n-]c(C(=O)OCC(=O)[N-]c2ccc(S(=O)(=O)N3CCCC3)cc2)c1[O-] (nonaromatic ring conformer: 75.14211098293458 kcal/mol)

>  <smiles>  (1906) 
Cc1c(O)[nH]c(C(=O)OCC(=O)Nc2ccc(S(=O)(=O)N3CCCC3)cc2)c1O

>  <score_type>  (1906) 
oracle

>  <origin>  (1906) 
adg

>  <m_score__min__energy>  (1906) 
-15.140000000000001

>  <m_primary>  (1906) 
energy

$$$$
73:0
     RDKit          3D

 26 29  0  0  0  0  0  0  0  0999 V2000
   60.1680   29.2220   44.9000 C   0  0  0  0  0  0  0  0  0  0  0  0
   59.5230   29.1400   46.0720 C   0  0  0  0  0  0  0  0  0  0  0  0
   58.7010   28.0930   46.5240 C   0  0  0  0  0  0  0  0  0  0  0  0
   58.1840   27.0320   45.8750 C   0  0  0  0  0  0  0  0  0  0  0  0
   57.4210   25.9370   46.4960 C   0  0  0  0  0  0  0  0  0  0  0  0
   57.9650   24.8130   46.9990 N   0  0  0  0  0  0  0  0  0  0  0  0
   56.8890   24.0620   47.3170 C   0  0  0  0  0  0  0  0  0  0  0  0
   56.9880   22.9210   47.8390 O   0  0  0  0  0  0  0  0  0  0  0  0
   55.6970   24.6230   47.0190 N   0  0  0  0  0  0  0  0  0  0  0  0
   56.0550   25.8040   46.4870 C   0  0  0  0  0  0  0  0  0  0  0  0
   55.1500   26.7360   45.9970 O   0  0  0  0  0  0  0  0  0  0  0  0
   58.4590   28.3430   47.8660 C   0  0  0  0  0  0  0  0  0  0  0  0
   59.0630   29.5460   48.1660 C   0  0  0  0  0  0  0  0  0  0  0  0
   59.0620   30.1960   49.5160 C   0  0  0  0  0  0  0  0  0  0  0  0
   59.7150   30.0230   47.0840 N   0  0  0  0  0  0  0  0  0  0  0  0
   60.4770   31.2410   47.0370 C   0  0  0  0  0  0  0  0  0  0  0  0
   61.7890   31.2270   47.5350 C   0  0  0  0  0  0  0  0  0  0  0  0
   62.5840   32.3700   47.4690 C   0  0  0  0  0  0  0  0  0  0  0  0
   62.0780   33.5400   46.9050 C   0  0  0  0  0  0  0  0  0  0  0  0
   60.7730   33.5720   46.4110 C   0  0  0  0  0  0  0  0  0  0  0  0
   59.9500   32.4320   46.4760 C   0  0  0  0  0  0  0  0  0  0  0  0
   58.5560   32.5250   45.9720 C   0  0  0  0  0  0  0  0  0  0  0  0
   57.8260   33.6570   45.9710 N   0  0  0  0  0  0  0  0  0  0  0  0
   56.6540   33.3070   45.4680 N   0  0  0  0  0  0  0  0  0  0  0  0
   56.6610   32.0170   45.1770 N   0  0  0  0  0  0  0  0  0  0  0  0
   57.8370   31.4970   45.4850 N   0  0  0  0  0  0  0  0  0  0  0  0
  1  2  2  0
  2  3  1  0
  3  4  2  0
  4  5  1  0
  5  6  1  0
  6  7  1  0
  7  8  2  0
  7  9  1  0
  9 10  1  0
 10 11  1  0
  3 12  1  0
 12 13  2  0
 13 14  1  0
 13 15  1  0
 15 16  1  0
 16 17  2  0
 17 18  1  0
 18 19  2  0
 19 20  1  0
 20 21  2  0
 21 22  1  0
 22 23  1  0
 23 24  2  0
 24 25  1  0
 25 26  1  0
 15  2  1  0
 21 16  1  0
 26 22  2  0
 10  5  2  0
M  CHG  4   6  -1   9  -1  11  -1  25  -1
M  END
>  <UniqueID>  (1907) 
70

>  <SMILES>  (1907) 
C=c1/c(=C\c2[n-]c(=O)[n-]c2[O-])cc(C)n1-c1ccccc1-c1nn[n-]n1

>  <Energy>  (1907) 
156.57071237572623

>  <Genealogy>  (1907) 
C=c1c(=Cc2[n-]c(=O)[n-]c2[O-])cc(C)n1-c1ccccc1-c1nn[n-]n1 (protonated)
C=c1/c(=C\c2[n-]c(=O)[n-]c2[O-])cc(C)n1-c1ccccc1-c1nn[n-]n1 (cis-trans isomerization)
C=c1/c(=C\c2[n-]c(=O)[n-]c2[O-])cc(C)n1-c1ccccc1-c1nn[n-]n1 (3D coordinates assigned)
C=c1/c(=C\c2[n-]c(=O)[n-]c2[O-])cc(C)n1-c1ccccc1-c1nn[n-]n1 (optimized conformer: 156.57071237572623 kcal/mol)

>  <smiles>  (1907) 
C=c1c(=Cc2[nH]c(=O)[nH]c2O)cc(C)n1-c1ccccc1-c1nn[nH]n1

>  <score_type>  (1907) 
oracle

>  <origin>  (1907) 
adg

>  <m_score__min__energy>  (1907) 
-17.120000000000001

>  <m_primary>  (1907) 
energy

$$$$
75:0
     RDKit          3D

 31 34  0  0  0  0  0  0  0  0999 V2000
   57.4560   28.2350   44.4620 C   0  0  0  0  0  0  0  0  0  0  0  0
   57.9210   27.4040   45.4080 C   0  0  0  0  0  0  0  0  0  0  0  0
   57.8280   26.0020   45.4310 C   0  0  0  0  0  0  0  0  0  0  0  0
   57.1370   25.1460   44.6510 C   0  0  0  0  0  0  0  0  0  0  0  0
   55.8370   24.5330   44.9890 C   0  0  0  0  0  0  0  0  0  0  0  0
   54.8410   25.2920   45.6170 C   0  0  0  0  0  0  0  0  0  0  0  0
   55.0790   26.6130   45.9780 O   0  0  0  0  0  0  0  0  0  0  0  0
   53.6320   24.7340   45.8870 N   0  0  0  0  0  0  0  0  0  0  0  0
   53.3600   23.4500   45.5420 C   0  0  0  0  0  0  0  0  0  0  0  0
   52.2350   22.9520   45.8060 O   0  0  0  0  0  0  0  0  0  0  0  0
   54.2990   22.7020   44.9080 N   0  0  0  0  0  0  0  0  0  0  0  0
   55.5230   23.2130   44.6150 C   0  0  0  0  0  0  0  0  0  0  0  0
   56.3630   22.4990   44.0050 O   0  0  0  0  0  0  0  0  0  0  0  0
   58.6190   25.5770   46.4850 C   0  0  0  0  0  0  0  0  0  0  0  0
   59.1120   26.7100   47.0980 C   0  0  0  0  0  0  0  0  0  0  0  0
   60.0100   26.7050   48.2990 C   0  0  0  0  0  0  0  0  0  0  0  0
   58.6930   27.8170   46.4470 N   0  0  0  0  0  0  0  0  0  0  0  0
   59.0280   29.1730   46.7960 C   0  0  0  0  0  0  0  0  0  0  0  0
   59.8330   29.9440   45.9480 C   0  0  0  0  0  0  0  0  0  0  0  0
   60.1660   31.2580   46.2910 C   0  0  0  0  0  0  0  0  0  0  0  0
   59.7020   31.8200   47.4950 C   0  0  0  0  0  0  0  0  0  0  0  0
   60.0340   33.2180   47.8770 C   0  0  0  0  0  0  0  0  0  0  0  0
   61.1500   33.4400   48.4230 O   0  0  0  0  0  0  0  0  0  0  0  0
   59.0930   34.3070   47.6720 N   0  0  1  0  0  0  0  0  0  0  0  0
   59.6520   35.3460   46.7800 C   0  0  0  0  0  0  0  0  0  0  0  0
   59.6020   34.9580   45.3250 C   0  0  0  0  0  0  0  0  0  0  0  0
   58.6840   34.1080   44.8520 C   0  0  0  0  0  0  0  0  0  0  0  0
   57.7540   33.3410   45.7520 C   0  0  0  0  0  0  0  0  0  0  0  0
   57.7640   33.8440   47.2090 C   0  0  0  0  0  0  0  0  0  0  0  0
   58.8830   31.0440   48.3350 C   0  0  0  0  0  0  0  0  0  0  0  0
   58.5540   29.7310   47.9910 C   0  0  0  0  0  0  0  0  0  0  0  0
  1  2  2  0
  2  3  1  0
  3  4  2  3
  4  5  1  0
  5  6  2  0
  6  7  1  0
  6  8  1  0
  8  9  1  0
  9 10  2  0
  9 11  1  0
 11 12  1  0
 12 13  2  0
  3 14  1  0
 14 15  2  0
 15 16  1  0
 15 17  1  0
 17 18  1  0
 18 19  2  0
 19 20  1  0
 20 21  2  0
 21 22  1  0
 22 23  2  0
 24 22  1  6
 24 25  1  0
 25 26  1  0
 26 27  2  0
 27 28  1  0
 28 29  1  0
 21 30  1  0
 30 31  2  0
 17  2  1  0
 31 18  1  0
 12  5  1  0
 29 24  1  0
M  CHG  4   7  -1   8  -1  11  -1  24   1
M  END
>  <UniqueID>  (1908) 
72

>  <SMILES>  (1908) 
C=c1c(=Cc2c([O-])[n-]c(=O)[n-]c2=O)cc(C)n1-c1ccc(C(=O)[N@H+]2CC=CCC2)cc1

>  <Energy>  (1908) 
113.86053219099904

>  <Genealogy>  (1908) 
C=c1c(=Cc2c([O-])[n-]c(=O)[n-]c2=O)cc(C)n1-c1ccc(C(=O)[NH+]2CC=CCC2)cc1 (protonated)
C=c1c(=Cc2c([O-])[n-]c(=O)[n-]c2=O)cc(C)n1-c1ccc(C(=O)[N@H+]2CC=CCC2)cc1 (chirality)
C=c1c(=Cc2c([O-])[n-]c(=O)[n-]c2=O)cc(C)n1-c1ccc(C(=O)[N@H+]2CC=CCC2)cc1 (3D coordinates assigned)
C=c1c(=Cc2c([O-])[n-]c(=O)[n-]c2=O)cc(C)n1-c1ccc(C(=O)[N@H+]2CC=CCC2)cc1 (nonaromatic ring conformer: 113.86053219099904 kcal/mol)

>  <smiles>  (1908) 
C=c1c(=Cc2c(O)[nH]c(=O)[nH]c2=O)cc(C)n1-c1ccc(C(=O)N2CC=CCC2)cc1

>  <score_type>  (1908) 
oracle

>  <origin>  (1908) 
adg

>  <m_score__min__energy>  (1908) 
-14.949999999999999

>  <m_primary>  (1908) 
energy

$$$$
81:0
     RDKit          3D

 29 31  0  0  0  0  0  0  0  0999 V2000
   62.9600   32.5120   47.4850 C   0  0  0  0  0  0  0  0  0  0  0  0
   61.7430   32.0620   47.1730 C   0  0  0  0  0  0  0  0  0  0  0  0
   60.9930   31.0550   47.9650 C   0  0  0  0  0  0  0  0  0  0  0  0
   60.1850   31.5010   49.0230 C   0  0  0  0  0  0  0  0  0  0  0  0
   59.4420   30.5940   49.7820 C   0  0  0  0  0  0  0  0  0  0  0  0
   59.4970   29.2290   49.4970 C   0  0  0  0  0  0  0  0  0  0  0  0
   60.3010   28.7560   48.4480 C   0  0  0  0  0  0  0  0  0  0  0  0
   60.3630   27.3050   48.1490 C   0  0  0  0  0  0  0  0  0  0  0  0
   61.0500   26.5470   48.8830 O   0  0  0  0  0  0  0  0  0  0  0  0
   59.6120   26.7270   47.0680 N   0  0  0  0  0  0  0  0  0  0  0  0
   58.5500   27.2550   46.5300 C   0  0  0  0  0  0  0  0  0  0  0  0
   57.3460   26.5440   46.5360 C   0  0  0  0  0  0  0  0  0  0  0  0
   56.2030   27.1230   45.9800 C   0  0  0  0  0  0  0  0  0  0  0  0
   54.9980   26.4300   45.9980 O   0  0  0  0  0  0  0  0  0  0  0  0
   56.2750   28.3970   45.4060 C   0  0  0  0  0  0  0  0  0  0  0  0
   55.1410   28.9700   44.8360 O   0  0  0  0  0  0  0  0  0  0  0  0
   57.5040   29.0750   45.3990 C   0  0  0  0  0  0  0  0  0  0  0  0
   57.6400   30.4010   44.7800 C   0  0  0  0  0  0  0  0  0  0  0  0
   58.1320   30.4920   43.6250 O   0  0  0  0  0  0  0  0  0  0  0  0
   57.2420   31.5920   45.4660 N   0  0  0  0  0  0  0  0  0  0  0  0
   57.9700   32.1480   46.6010 C   0  0  0  0  0  0  0  0  0  0  0  0
   57.7780   33.6780   46.6550 C   0  0  0  0  0  0  0  0  0  0  0  0
   58.9140   34.3750   47.4420 C   0  0  0  0  0  0  0  0  0  0  0  0
   60.0390   34.8750   46.5150 C   0  0  0  0  0  0  0  0  0  0  0  0
   60.1500   34.0510   45.3730 O   0  0  0  0  0  0  0  0  0  0  0  0
   59.0410   34.2480   44.5080 C   0  0  0  0  0  0  0  0  0  0  0  0
   57.6760   34.2740   45.2390 C   0  0  0  0  0  0  0  0  0  0  0  0
   58.5990   28.4880   45.9490 N   0  0  0  0  0  0  0  0  0  0  0  0
   61.0310   29.6770   47.6740 C   0  0  0  0  0  0  0  0  0  0  0  0
  1  2  2  0
  2  3  1  0
  3  4  2  0
  4  5  1  0
  5  6  2  0
  6  7  1  0
  7  8  1  0
  8  9  2  0
  8 10  1  0
 10 11  2  3
 11 12  1  0
 12 13  2  0
 13 14  1  0
 13 15  1  0
 15 16  1  0
 15 17  2  0
 17 18  1  0
 18 19  2  0
 18 20  1  0
 20 21  1  0
 21 22  1  0
 22 23  1  0
 23 24  1  0
 24 25  1  0
 25 26  1  0
 26 27  1  0
 17 28  1  0
  7 29  2  0
 29  3  1  0
 28 11  1  0
 27 22  1  0
M  CHG  4  14  -1  16  -1  20  -1  28  -1
M  END
>  <UniqueID>  (1909) 
78

>  <SMILES>  (1909) 
C=Cc1cccc(C(=O)N=c2cc([O-])c([O-])c(C(=O)[N-]CC3CCOCC3)[n-]2)c1

>  <Energy>  (1909) 
67.40914721528894

>  <Genealogy>  (1909) 
C=Cc1cccc(C(=O)N=c2cc([O-])c([O-])c(C(=O)[N-]CC3CCOCC3)[n-]2)c1 (protonated)
C=Cc1cccc(C(=O)N=c2cc([O-])c([O-])c(C(=O)[N-]CC3CCOCC3)[n-]2)c1 (3D coordinates assigned)
C=Cc1cccc(C(=O)N=c2cc([O-])c([O-])c(C(=O)[N-]CC3CCOCC3)[n-]2)c1 (nonaromatic ring conformer: 67.40914721528894 kcal/mol)

>  <smiles>  (1909) 
C=Cc1cccc(C(=O)N=c2cc(O)c(O)c(C(=O)NCC3CCOCC3)[nH]2)c1

>  <score_type>  (1909) 
oracle

>  <origin>  (1909) 
adg

>  <m_score__min__energy>  (1909) 
-18.75

>  <m_primary>  (1909) 
energy

$$$$
88:0
     RDKit          3D

 35 37  0  0  0  0  0  0  0  0999 V2000
   60.7610   29.4410   45.3130 C   0  0  0  0  0  0  0  0  0  0  0  0
   60.7650   29.2750   46.8070 C   0  0  0  0  0  0  0  0  0  0  0  0
   60.3190   28.1620   47.5080 C   0  0  0  0  0  0  0  0  0  0  0  0
   59.8080   26.8910   46.9580 C   0  0  0  0  0  0  0  0  0  0  0  0
   60.6090   25.9290   46.7960 O   0  0  0  0  0  0  0  0  0  0  0  0
   58.3750   26.7170   46.6170 C   0  0  0  0  0  0  0  0  0  0  0  0
   57.6810   25.5500   46.9940 C   0  0  0  0  0  0  0  0  0  0  0  0
   56.3300   25.3950   46.6780 C   0  0  0  0  0  0  0  0  0  0  0  0
   55.6480   26.4030   45.9910 C   0  0  0  0  0  0  0  0  0  0  0  0
   54.3140   26.2110   45.6500 O   0  0  0  0  0  0  0  0  0  0  0  0
   56.3180   27.5880   45.6380 C   0  0  0  0  0  0  0  0  0  0  0  0
   55.6360   28.6450   44.9560 N   0  0  0  0  0  0  0  0  0  0  0  0
   56.5040   29.8970   44.1310 S   0  0  0  0  0  0  0  0  0  0  0  0
   56.3580   29.6540   42.3730 C   0  0  0  0  0  0  0  0  0  0  0  0
   57.9530   29.8770   44.5340 O   0  0  0  0  0  0  0  0  0  0  0  0
   55.9080   31.2280   44.4940 O   0  0  0  0  0  0  0  0  0  0  0  0
   57.6790   27.7310   45.9330 C   0  0  0  0  0  0  0  0  0  0  0  0
   60.4240   28.4640   48.8520 C   0  0  0  0  0  0  0  0  0  0  0  0
   60.9210   29.7500   48.9240 C   0  0  0  0  0  0  0  0  0  0  0  0
   61.1610   30.4930   50.1760 C   0  0  0  0  0  0  0  0  0  0  0  0
   62.3210   30.4980   50.6630 O   0  0  0  0  0  0  0  0  0  0  0  0
   60.1090   31.2250   50.8330 N   0  0  0  0  0  0  0  0  0  0  0  0
   60.3460   32.0380   52.0130 C   0  0  0  0  0  0  0  0  0  0  0  0
   59.1090   32.9140   52.1720 C   0  0  0  0  0  0  0  0  0  0  0  0
   58.0420   32.3210   51.2550 C   0  0  0  0  0  0  0  0  0  0  0  0
   58.7740   31.4030   50.2860 C   0  0  0  0  0  0  0  0  0  0  0  0
   61.1430   30.2400   47.6810 N   0  0  0  0  0  0  0  0  0  0  0  0
   61.5060   31.6240   47.3510 C   0  0  0  0  0  0  0  0  0  0  0  0
   60.2850   32.4850   47.3870 C   0  0  0  0  0  0  0  0  0  0  0  0
   60.1190   33.2980   48.3370 O   0  0  0  0  0  0  0  0  0  0  0  0
   59.2850   32.3230   46.3740 N   0  0  0  0  0  0  0  0  0  0  0  0
   58.5290   33.3820   45.6970 C   0  0  0  0  0  0  0  0  0  0  0  0
   57.1100   33.4820   46.2870 C   0  0  0  0  0  0  0  0  0  0  0  0
   58.4280   33.0040   44.2120 C   0  0  0  0  0  0  0  0  0  0  0  0
   59.2600   34.7300   45.8270 C   0  0  0  0  0  0  0  0  0  0  0  0
  1  2  1  0
  2  3  2  0
  3  4  1  0
  4  5  2  0
  4  6  1  0
  6  7  2  0
  7  8  1  0
  8  9  2  0
  9 10  1  0
  9 11  1  0
 11 12  1  0
 12 13  1  0
 13 14  1  0
 13 15  2  0
 13 16  2  0
 11 17  2  0
  3 18  1  0
 18 19  2  0
 19 20  1  0
 20 21  2  0
 20 22  1  0
 22 23  1  0
 23 24  1  0
 24 25  1  0
 25 26  1  0
 19 27  1  0
 27 28  1  0
 28 29  1  0
 29 30  2  0
 29 31  1  0
 31 32  1  0
 32 33  1  0
 32 34  1  0
 32 35  1  0
 27  2  1  0
 17  6  1  0
 26 22  1  0
M  CHG  3  10  -1  12  -1  31  -1
M  END
>  <UniqueID>  (1910) 
85

>  <SMILES>  (1910) 
Cc1c(C(=O)c2ccc([O-])c([N-]S(C)(=O)=O)c2)cc(C(=O)N2CCCC2)n1CC(=O)[N-]C(C)(C)C

>  <Energy>  (1910) 
95.88068011908166

>  <Genealogy>  (1910) 
Cc1c(C(=O)c2ccc([O-])c([N-]S(C)(=O)=O)c2)cc(C(=O)N2CCCC2)n1CC(=O)[N-]C(C)(C)C (protonated)
Cc1c(C(=O)c2ccc([O-])c([N-]S(C)(=O)=O)c2)cc(C(=O)N2CCCC2)n1CC(=O)[N-]C(C)(C)C (3D coordinates assigned)
Cc1c(C(=O)c2ccc([O-])c([N-]S(C)(=O)=O)c2)cc(C(=O)N2CCCC2)n1CC(=O)[N-]C(C)(C)C (nonaromatic ring conformer: 95.88068011908166 kcal/mol)

>  <smiles>  (1910) 
Cc1c(C(=O)c2ccc(O)c(NS(C)(=O)=O)c2)cc(C(=O)N2CCCC2)n1CC(=O)NC(C)(C)C

>  <score_type>  (1910) 
oracle

>  <origin>  (1910) 
adg

>  <m_score__min__energy>  (1910) 
-15.66

>  <m_primary>  (1910) 
energy

$$$$
2:0
     RDKit          3D

 29 32  0  0  0  0  0  0  0  0999 V2000
   57.3810   23.1270   47.9260 N   0  0  0  0  0  0  0  0  0  0  0  0
   57.2600   24.2700   47.3330 C   0  0  0  0  0  0  0  0  0  0  0  0
   56.0340   24.7180   46.9480 N   0  0  0  0  0  0  0  0  0  0  0  0
   55.8830   25.9150   46.3250 C   0  0  0  0  0  0  0  0  0  0  0  0
   54.7290   26.2960   45.9870 O   0  0  0  0  0  0  0  0  0  0  0  0
   57.0120   26.7100   46.0660 C   0  0  0  0  0  0  0  0  0  0  0  0
   56.9390   27.9570   45.4230 C   0  0  0  0  0  0  0  0  0  0  0  0
   58.1050   28.7120   45.2230 C   0  0  0  0  0  0  0  0  0  0  0  0
   58.0430   30.0500   44.5900 C   0  0  0  0  0  0  0  0  0  0  0  0
   57.4000   30.2290   43.3550 C   0  0  0  0  0  0  0  0  0  0  0  0
   57.3440   31.4950   42.7710 C   0  0  0  0  0  0  0  0  0  0  0  0
   57.9020   32.5970   43.4260 C   0  0  0  0  0  0  0  0  0  0  0  0
   58.5220   32.4440   44.6700 C   0  0  0  0  0  0  0  0  0  0  0  0
   59.0070   33.6170   45.3420 N   0  0  0  0  0  0  0  0  0  0  0  0
   58.7110   34.0640   46.9960 S   0  0  0  0  0  0  0  0  0  0  0  0
   58.9900   35.5280   47.2010 O   0  0  0  0  0  0  0  0  0  0  0  0
   57.2590   33.8210   47.2930 O   0  0  0  0  0  0  0  0  0  0  0  0
   59.6790   33.0740   48.1300 C   0  0  0  0  0  0  0  0  0  0  0  0
   61.1200   32.9870   47.7120 C   0  0  0  0  0  0  0  0  0  0  0  0
   61.6430   33.9110   46.7890 C   0  0  0  0  0  0  0  0  0  0  0  0
   62.9900   33.8550   46.4240 C   0  0  0  0  0  0  0  0  0  0  0  0
   63.8220   32.8670   46.9610 C   0  0  0  0  0  0  0  0  0  0  0  0
   63.3090   31.9390   47.8720 C   0  0  0  0  0  0  0  0  0  0  0  0
   61.9640   32.0000   48.2510 C   0  0  0  0  0  0  0  0  0  0  0  0
   58.6130   31.1610   45.2350 C   0  0  0  0  0  0  0  0  0  0  0  0
   59.3340   28.1870   45.6640 C   0  0  0  0  0  0  0  0  0  0  0  0
   59.3860   26.9720   46.2710 N   0  0  0  0  0  0  0  0  0  0  0  0
   58.2690   26.2300   46.4820 C   0  0  0  0  0  0  0  0  0  0  0  0
   58.3650   25.0250   47.1000 N   0  0  0  0  0  0  0  0  0  0  0  0
  1  2  2  0
  2  3  1  0
  3  4  1  0
  4  5  2  0
  4  6  1  0
  6  7  2  0
  7  8  1  0
  8  9  1  0
  9 10  2  0
 10 11  1  0
 11 12  2  0
 12 13  1  0
 13 14  1  0
 14 15  1  0
 15 16  2  0
 15 17  2  0
 15 18  1  0
 18 19  1  0
 19 20  2  0
 20 21  1  0
 21 22  2  0
 22 23  1  0
 23 24  2  0
 13 25  2  0
  8 26  2  0
 26 27  1  0
 27 28  2  0
 28 29  1  0
 29  2  1  0
 28  6  1  0
 25  9  1  0
 24 19  1  0
M  CHG  3   3  -1  14  -1  29  -1
M  END
>  <UniqueID>  (1911) 
3

>  <SMILES>  (1911) 
N=c1[n-]c(=O)c2cc(-c3cccc([N-]S(=O)(=O)Cc4ccccc4)c3)cnc2[n-]1

>  <Energy>  (1911) 
53.29641572683192

>  <Genealogy>  (1911) 
N=c1[n-]c(=O)c2cc(-c3cccc([N-]S(=O)(=O)Cc4ccccc4)c3)cnc2[n-]1 (protonated)
N=c1[n-]c(=O)c2cc(-c3cccc([N-]S(=O)(=O)Cc4ccccc4)c3)cnc2[n-]1 (3D coordinates assigned)
N=c1[n-]c(=O)c2cc(-c3cccc([N-]S(=O)(=O)Cc4ccccc4)c3)cnc2[n-]1 (optimized conformer: 53.29641572683192 kcal/mol)

>  <smiles>  (1911) 
N=c1[nH]c(=O)c2cc(-c3cccc(NS(=O)(=O)Cc4ccccc4)c3)cnc2[nH]1

>  <score_type>  (1911) 
oracle

>  <origin>  (1911) 
adg

>  <m_score__min__energy>  (1911) 
-14.07

>  <m_primary>  (1911) 
energy

$$$$
3:0
     RDKit          3D

 38 42  0  0  0  0  0  0  0  0999 V2000
   59.4670   26.9920   48.2400 C   0  0  0  0  0  0  0  0  0  0  0  0
   59.2000   28.1040   47.5360 C   0  0  0  0  0  0  0  0  0  0  0  0
   58.5270   28.1600   46.3140 C   0  0  0  0  0  0  0  0  0  0  0  0
   57.9830   27.1320   45.6310 C   0  0  0  0  0  0  0  0  0  0  0  0
   57.2790   25.9990   46.2600 C   0  0  0  0  0  0  0  0  0  0  0  0
   57.9070   24.8880   46.6850 N   0  0  0  0  0  0  0  0  0  0  0  0
   56.8990   24.1000   47.1150 C   0  0  0  0  0  0  0  0  0  0  0  0
   57.0920   22.9550   47.5990 O   0  0  0  0  0  0  0  0  0  0  0  0
   55.6650   24.6290   46.9680 N   0  0  0  0  0  0  0  0  0  0  0  0
   55.9210   25.8250   46.4150 C   0  0  0  0  0  0  0  0  0  0  0  0
   54.9280   26.7100   46.0100 O   0  0  0  0  0  0  0  0  0  0  0  0
   58.4920   29.4970   45.9500 C   0  0  0  0  0  0  0  0  0  0  0  0
   59.1660   30.2010   46.9310 C   0  0  0  0  0  0  0  0  0  0  0  0
   59.4320   31.6640   46.8780 C   0  0  0  0  0  0  0  0  0  0  0  0
   60.3200   32.0950   46.0930 O   0  0  0  0  0  0  0  0  0  0  0  0
   58.6400   32.5970   47.6620 N   0  0  0  0  0  0  0  0  0  0  0  0
   59.4770   33.6460   48.3060 C   0  0  0  0  0  0  0  0  0  0  0  0
   59.5400   34.9620   47.5050 C   0  0  0  0  0  0  0  0  0  0  0  0
   59.3890   34.6880   46.0680 N   0  0  0  0  0  0  0  0  0  0  0  0
   59.6480   35.9010   45.2780 C   0  0  0  0  0  0  0  0  0  0  0  0
   58.0450   34.1530   45.7690 C   0  0  0  0  0  0  0  0  0  0  0  0
   57.5420   33.1730   46.8560 C   0  0  0  0  0  0  0  0  0  0  0  0
   59.5780   29.3570   47.9110 N   0  0  0  0  0  0  0  0  0  0  0  0
   60.2790   29.7300   49.1490 C   0  0  0  0  0  0  0  0  0  0  0  0
   59.3050   30.4250   50.1250 C   0  0  0  0  0  0  0  0  0  0  0  0
   59.9560   31.0140   51.3160 N   0  0  0  0  0  0  0  0  0  0  0  0
   59.6980   32.4590   51.5140 C   0  0  0  0  0  0  0  0  0  0  0  0
   60.9350   33.3090   51.1830 C   0  0  0  0  0  0  0  0  0  0  0  0
   62.1130   32.9370   52.0090 N   0  0  0  0  0  0  0  0  0  0  0  0
   63.3800   33.2650   51.3200 C   0  0  0  0  0  0  0  0  0  0  0  0
   63.2540   33.0630   49.8310 C   0  0  0  0  0  0  0  0  0  0  0  0
   63.0200   34.1630   48.9900 C   0  0  0  0  0  0  0  0  0  0  0  0
   62.8790   33.9800   47.6110 C   0  0  0  0  0  0  0  0  0  0  0  0
   62.9700   32.6970   47.0630 C   0  0  0  0  0  0  0  0  0  0  0  0
   63.1970   31.5970   47.8930 C   0  0  0  0  0  0  0  0  0  0  0  0
   63.3360   31.7760   49.2730 C   0  0  0  0  0  0  0  0  0  0  0  0
   62.0970   31.5230   52.4630 C   0  0  0  0  0  0  0  0  0  0  0  0
   61.3700   30.6080   51.4730 C   0  0  0  0  0  0  0  0  0  0  0  0
  1  2  2  0
  2  3  1  0
  3  4  2  0
  4  5  1  0
  5  6  1  0
  6  7  1  0
  7  8  2  0
  7  9  1  0
  9 10  1  0
 10 11  1  0
  3 12  1  0
 12 13  2  0
 13 14  1  0
 14 15  2  0
 14 16  1  0
 16 17  1  0
 17 18  1  0
 18 19  1  0
 19 20  1  0
 19 21  1  0
 21 22  1  0
 13 23  1  0
 23 24  1  0
 24 25  1  0
 25 26  1  0
 26 27  1  0
 27 28  1  0
 28 29  1  0
 29 30  1  0
 30 31  1  0
 31 32  2  0
 32 33  1  0
 33 34  2  0
 34 35  1  0
 35 36  2  0
 29 37  1  0
 37 38  1  0
 23  2  1  0
 38 26  1  0
 10  5  2  0
 22 16  1  0
 36 31  1  0
M  CHG  4   6  -1   9  -1  11  -1  16   1
M  END
>  <UniqueID>  (1912) 
4

>  <SMILES>  (1912) 
C=c1/c(=C/c2[n-]c(=O)[n-]c2[O-])cc(C(=O)[NH+]2CCN(C)CC2)n1CCN1CCN(Cc2ccccc2)CC1

>  <Energy>  (1912) 
170.538079804613

>  <Genealogy>  (1912) 
C=c1c(=Cc2[n-]c(=O)[n-]c2[O-])cc(C(=O)[NH+]2CCN(C)CC2)n1CCN1CCN(Cc2ccccc2)CC1 (protonated)
C=c1/c(=C/c2[n-]c(=O)[n-]c2[O-])cc(C(=O)[NH+]2CCN(C)CC2)n1CCN1CCN(Cc2ccccc2)CC1 (cis-trans isomerization)
C=c1/c(=C/c2[n-]c(=O)[n-]c2[O-])cc(C(=O)[NH+]2CCN(C)CC2)n1CCN1CCN(Cc2ccccc2)CC1 (3D coordinates assigned)
C=c1/c(=C/c2[n-]c(=O)[n-]c2[O-])cc(C(=O)[NH+]2CCN(C)CC2)n1CCN1CCN(Cc2ccccc2)CC1 (nonaromatic ring conformer: 170.538079804613 kcal/mol)

>  <smiles>  (1912) 
C=c1c(=Cc2[nH]c(=O)[nH]c2O)cc(C(=O)N2CCN(C)CC2)n1CCN1CCN(Cc2ccccc2)CC1

>  <score_type>  (1912) 
oracle

>  <origin>  (1912) 
adg

>  <m_score__min__energy>  (1912) 
-16.199999999999999

>  <m_primary>  (1912) 
energy

$$$$
7:0
     RDKit          3D

 27 29  0  0  0  0  0  0  0  0999 V2000
   55.0180   26.3710   46.0120 O   0  0  0  0  0  0  0  0  0  0  0  0
   55.5980   25.2530   46.0300 C   0  0  0  0  0  0  0  0  0  0  0  0
   56.9900   25.1300   45.4660 C   0  0  0  0  0  0  0  0  0  0  0  0
   57.3900   26.3620   44.7850 N   0  0  0  0  0  0  0  0  0  0  0  0
   57.5380   27.5830   45.3210 C   0  0  0  0  0  0  0  0  0  0  0  0
   57.2650   27.8950   46.6510 O   0  0  0  0  0  0  0  0  0  0  0  0
   57.9980   28.4450   44.3430 C   0  0  0  0  0  0  0  0  0  0  0  0
   58.2630   29.9120   44.4870 C   0  0  0  0  0  0  0  0  0  0  0  0
   56.9820   30.6480   44.7120 C   0  0  0  0  0  0  0  0  0  0  0  0
   55.8820   30.0720   44.4910 O   0  0  0  0  0  0  0  0  0  0  0  0
   57.0120   31.9900   45.2070 N   0  0  0  0  0  0  0  0  0  0  0  0
   58.2460   32.6940   45.5490 C   0  0  0  0  0  0  0  0  0  0  0  0
   58.1670   33.3230   46.9330 C   0  0  0  0  0  0  0  0  0  0  0  0
   59.0610   34.5560   46.8770 C   0  0  0  0  0  0  0  0  0  0  0  0
   59.2780   34.8810   45.3990 C   0  0  0  0  0  0  0  0  0  0  0  0
   58.4810   33.8580   44.6010 C   0  0  0  0  0  0  0  0  0  0  0  0
   58.1420   27.7690   43.1820 N   0  0  0  0  0  0  0  0  0  0  0  0
   57.7720   26.5080   43.4980 C   0  0  0  0  0  0  0  0  0  0  0  0
   57.7900   25.5620   42.6670 O   0  0  0  0  0  0  0  0  0  0  0  0
   54.8790   24.1170   46.5290 N   0  0  0  0  0  0  0  0  0  0  0  0
   54.3510   23.0220   45.7190 C   0  0  0  0  0  0  0  0  0  0  0  0
   55.4110   22.4800   44.7990 C   0  0  0  0  0  0  0  0  0  0  0  0
   56.3070   21.5010   45.2590 C   0  0  0  0  0  0  0  0  0  0  0  0
   57.2930   20.9920   44.4080 C   0  0  0  0  0  0  0  0  0  0  0  0
   57.3930   21.4570   43.0940 C   0  0  0  0  0  0  0  0  0  0  0  0
   56.5060   22.4330   42.6290 C   0  0  0  0  0  0  0  0  0  0  0  0
   55.5200   22.9460   43.4760 C   0  0  0  0  0  0  0  0  0  0  0  0
  1  2  2  0
  2  3  1  0
  3  4  1  0
  4  5  1  0
  5  6  1  0
  5  7  2  0
  7  8  1  0
  8  9  1  0
  9 10  2  0
  9 11  1  0
 11 12  1  0
 12 13  1  0
 13 14  1  0
 14 15  1  0
 15 16  1  0
  7 17  1  0
 17 18  1  0
 18 19  2  0
  2 20  1  0
 20 21  1  0
 21 22  1  0
 22 23  2  0
 23 24  1  0
 24 25  2  0
 25 26  1  0
 26 27  2  0
 18  4  1  0
 27 22  1  0
 16 12  1  0
M  CHG  3  11  -1  17  -1  20  -1
M  END
>  <UniqueID>  (1913) 
8

>  <SMILES>  (1913) 
O=C(Cn1c(O)c(CC(=O)[N-]C2CCCC2)[n-]c1=O)[N-]Cc1ccccc1

>  <Energy>  (1913) 
72.91154076536488

>  <Genealogy>  (1913) 
O=C(Cn1c(O)c(CC(=O)[N-]C2CCCC2)[n-]c1=O)[N-]Cc1ccccc1 (protonated)
O=C(Cn1c(O)c(CC(=O)[N-]C2CCCC2)[n-]c1=O)[N-]Cc1ccccc1 (3D coordinates assigned)
O=C(Cn1c(O)c(CC(=O)[N-]C2CCCC2)[n-]c1=O)[N-]Cc1ccccc1 (nonaromatic ring conformer: 72.91154076536488 kcal/mol)

>  <smiles>  (1913) 
O=C(Cn1c(O)c(CC(=O)NC2CCCC2)[nH]c1=O)NCc1ccccc1

>  <score_type>  (1913) 
oracle

>  <origin>  (1913) 
adg

>  <m_score__min__energy>  (1913) 
-14.15

>  <m_primary>  (1913) 
energy

$$$$
12:0
     RDKit          3D

 25 26  0  0  0  0  0  0  0  0999 V2000
   59.6420   29.4660   47.6990 C   0  0  0  0  0  0  0  0  0  0  0  0
   58.9380   30.1970   46.8210 C   0  0  0  0  0  0  0  0  0  0  0  0
   58.3490   29.7260   45.6420 C   0  0  0  0  0  0  0  0  0  0  0  0
   58.4140   28.4810   45.1330 C   0  0  0  0  0  0  0  0  0  0  0  0
   57.5530   27.3660   45.5930 C   0  0  0  0  0  0  0  0  0  0  0  0
   56.1530   27.4800   45.6230 C   0  0  0  0  0  0  0  0  0  0  0  0
   55.5240   28.6520   45.2180 O   0  0  0  0  0  0  0  0  0  0  0  0
   55.3990   26.4440   46.0740 N   0  0  0  0  0  0  0  0  0  0  0  0
   55.9750   25.2970   46.5150 C   0  0  0  0  0  0  0  0  0  0  0  0
   55.2550   24.3500   46.9240 O   0  0  0  0  0  0  0  0  0  0  0  0
   57.3260   25.1740   46.5230 N   0  0  0  0  0  0  0  0  0  0  0  0
   58.1260   26.1800   46.0810 C   0  0  0  0  0  0  0  0  0  0  0  0
   59.3760   26.0320   46.1060 O   0  0  0  0  0  0  0  0  0  0  0  0
   57.7050   30.8120   45.0670 C   0  0  0  0  0  0  0  0  0  0  0  0
   57.9130   31.8860   45.9080 C   0  0  0  0  0  0  0  0  0  0  0  0
   57.3940   33.2700   45.6590 C   0  0  0  0  0  0  0  0  0  0  0  0
   58.6760   31.5230   46.9660 N   0  0  0  0  0  0  0  0  0  0  0  0
   59.0740   32.3970   48.0790 C   0  0  0  0  0  0  0  0  0  0  0  0
   59.8240   33.6220   47.5490 C   0  0  0  0  0  0  0  0  0  0  0  0
   61.2320   33.5780   47.9350 N   0  0  0  0  0  0  0  0  0  0  0  0
   62.2300   32.6780   47.4330 C   0  0  0  0  0  0  0  0  0  0  0  0
   61.8780   31.5210   47.0840 O   0  0  0  0  0  0  0  0  0  0  0  0
   63.6830   33.0450   47.3410 C   0  0  0  0  0  0  0  0  0  0  0  0
   64.0600   33.7180   48.5230 O   0  0  0  0  0  0  0  0  0  0  0  0
   64.5230   32.7810   49.4690 C   0  0  0  0  0  0  0  0  0  0  0  0
  1  2  2  0
  2  3  1  0
  3  4  2  3
  4  5  1  0
  5  6  2  0
  6  7  1  0
  6  8  1  0
  8  9  1  0
  9 10  2  0
  9 11  1  0
 11 12  1  0
 12 13  2  0
  3 14  1  0
 14 15  2  0
 15 16  1  0
 15 17  1  0
 17 18  1  0
 18 19  1  0
 19 20  1  0
 20 21  1  0
 21 22  2  0
 21 23  1  0
 23 24  1  0
 24 25  1  0
 17  2  1  0
 12  5  1  0
M  CHG  4   7  -1   8  -1  11  -1  20  -1
M  END
>  <UniqueID>  (1914) 
13

>  <SMILES>  (1914) 
C=c1c(=Cc2c([O-])[n-]c(=O)[n-]c2=O)cc(C)n1CC[N-]C(=O)COC

>  <Energy>  (1914) 
75.2422888202395

>  <Genealogy>  (1914) 
C=c1c(=Cc2c([O-])[n-]c(=O)[n-]c2=O)cc(C)n1CC[N-]C(=O)COC (protonated)
C=c1c(=Cc2c([O-])[n-]c(=O)[n-]c2=O)cc(C)n1CC[N-]C(=O)COC (3D coordinates assigned)
C=c1c(=Cc2c([O-])[n-]c(=O)[n-]c2=O)cc(C)n1CC[N-]C(=O)COC (optimized conformer: 75.2422888202395 kcal/mol)

>  <smiles>  (1914) 
C=c1c(=Cc2c(O)[nH]c(=O)[nH]c2=O)cc(C)n1CCNC(=O)COC

>  <score_type>  (1914) 
oracle

>  <origin>  (1914) 
adg

>  <m_score__min__energy>  (1914) 
-15.130000000000001

>  <m_primary>  (1914) 
energy

$$$$
18:0
     RDKit          3D

 30 33  0  0  0  0  0  0  0  0999 V2000
   56.0590   31.9190   52.2680 C   0  0  0  0  0  0  0  0  0  0  0  0
   55.4850   30.7330   52.5210 C   0  0  0  0  0  0  0  0  0  0  0  0
   54.1160   30.4660   52.6860 C   0  0  0  0  0  0  0  0  0  0  0  0
   53.0300   31.2310   52.4590 C   0  0  0  0  0  0  0  0  0  0  0  0
   52.2850   31.3190   51.1900 C   0  0  0  0  0  0  0  0  0  0  0  0
   52.2790   30.3680   50.2350 N   0  0  0  0  0  0  0  0  0  0  0  0
   51.3510   30.8120   49.3590 C   0  0  0  0  0  0  0  0  0  0  0  0
   51.0660   30.1920   48.3010 O   0  0  0  0  0  0  0  0  0  0  0  0
   50.7470   31.9690   49.7100 N   0  0  0  0  0  0  0  0  0  0  0  0
   51.3400   32.2660   50.8780 C   0  0  0  0  0  0  0  0  0  0  0  0
   51.0200   33.3800   51.6490 O   0  0  0  0  0  0  0  0  0  0  0  0
   54.0270   29.1620   53.1520 C   0  0  0  0  0  0  0  0  0  0  0  0
   55.3110   28.6590   53.1800 C   0  0  0  0  0  0  0  0  0  0  0  0
   55.6820   27.3050   53.7070 C   0  0  0  0  0  0  0  0  0  0  0  0
   56.1950   29.6080   52.8000 N   0  0  0  0  0  0  0  0  0  0  0  0
   57.6260   29.4640   52.8090 C   0  0  0  0  0  0  0  0  0  0  0  0
   58.2810   29.0350   53.9700 C   0  0  0  0  0  0  0  0  0  0  0  0
   59.6660   28.8620   53.9720 C   0  0  0  0  0  0  0  0  0  0  0  0
   60.4040   29.1130   52.8120 C   0  0  0  0  0  0  0  0  0  0  0  0
   59.7620   29.5470   51.6430 C   0  0  0  0  0  0  0  0  0  0  0  0
   60.7080   29.8200   50.1740 S   0  0  0  0  0  0  0  0  0  0  0  0
   62.1470   30.0540   50.5520 O   0  0  0  0  0  0  0  0  0  0  0  0
   60.6580   28.5690   49.3430 O   0  0  0  0  0  0  0  0  0  0  0  0
   60.0890   31.1450   49.2050 N   0  0  0  0  0  0  0  0  0  0  0  0
   59.7400   32.3260   49.9920 C   0  0  0  0  0  0  0  0  0  0  0  0
   59.7410   33.4930   49.0170 C   0  0  0  0  0  0  0  0  0  0  0  0
   60.6250   33.0410   47.8630 C   0  0  0  0  0  0  0  0  0  0  0  0
   61.0540   31.6260   48.2180 C   0  0  0  0  0  0  0  0  0  0  0  0
   58.3670   29.7220   51.6440 C   0  0  0  0  0  0  0  0  0  0  0  0
   57.7220   30.1210   50.5180 F   0  0  0  0  0  0  0  0  0  0  0  0
  1  2  2  0
  2  3  1  0
  3  4  2  0
  4  5  1  0
  5  6  1  0
  6  7  1  0
  7  8  2  0
  7  9  1  0
  9 10  1  0
 10 11  1  0
  3 12  1  0
 12 13  2  0
 13 14  1  0
 13 15  1  0
 15 16  1  0
 16 17  2  0
 17 18  1  0
 18 19  2  0
 19 20  1  0
 20 21  1  0
 21 22  2  0
 21 23  2  0
 21 24  1  0
 24 25  1  0
 25 26  1  0
 26 27  1  0
 27 28  1  0
 20 29  2  0
 29 30  1  0
 15  2  1  0
 29 16  1  0
 10  5  2  0
 28 24  1  0
M  CHG  3   6  -1   9  -1  11  -1
M  END
>  <UniqueID>  (1915) 
18

>  <SMILES>  (1915) 
C=c1/c(=C\c2[n-]c(=O)[n-]c2[O-])cc(C)n1-c1cccc(S(=O)(=O)N2CCCC2)c1F

>  <Energy>  (1915) 
130.87522201278992

>  <Genealogy>  (1915) 
C=c1c(=Cc2[n-]c(=O)[n-]c2[O-])cc(C)n1-c1cccc(S(=O)(=O)N2CCCC2)c1F (protonated)
C=c1/c(=C\c2[n-]c(=O)[n-]c2[O-])cc(C)n1-c1cccc(S(=O)(=O)N2CCCC2)c1F (cis-trans isomerization)
C=c1/c(=C\c2[n-]c(=O)[n-]c2[O-])cc(C)n1-c1cccc(S(=O)(=O)N2CCCC2)c1F (3D coordinates assigned)
C=c1/c(=C\c2[n-]c(=O)[n-]c2[O-])cc(C)n1-c1cccc(S(=O)(=O)N2CCCC2)c1F (nonaromatic ring conformer: 130.87522201278992 kcal/mol)

>  <smiles>  (1915) 
C=c1c(=Cc2[nH]c(=O)[nH]c2O)cc(C)n1-c1cccc(S(=O)(=O)N2CCCC2)c1F

>  <score_type>  (1915) 
oracle

>  <origin>  (1915) 
adg

>  <m_score__min__energy>  (1915) 
-16.82

>  <m_primary>  (1915) 
energy

$$$$
27:0
     RDKit          3D

 36 40  0  0  0  0  0  0  0  0999 V2000
   58.4920   30.0440   44.1420 C   0  0  0  0  0  0  0  0  0  0  0  0
   58.4600   29.8210   45.4660 C   0  0  0  0  0  0  0  0  0  0  0  0
   58.1180   28.6170   46.0900 C   0  0  0  0  0  0  0  0  0  0  0  0
   57.7970   27.4490   45.4970 C   0  0  0  0  0  0  0  0  0  0  0  0
   57.2390   26.2870   46.2120 C   0  0  0  0  0  0  0  0  0  0  0  0
   57.9940   25.2830   46.6870 N   0  0  0  0  0  0  0  0  0  0  0  0
   57.0850   24.4110   47.1770 C   0  0  0  0  0  0  0  0  0  0  0  0
   57.4140   23.3290   47.7290 O   0  0  0  0  0  0  0  0  0  0  0  0
   55.7990   24.7860   47.0190 N   0  0  0  0  0  0  0  0  0  0  0  0
   55.9110   25.9690   46.3960 C   0  0  0  0  0  0  0  0  0  0  0  0
   54.8220   26.7150   45.9620 O   0  0  0  0  0  0  0  0  0  0  0  0
   58.2330   28.8390   47.4540 C   0  0  0  0  0  0  0  0  0  0  0  0
   58.6080   30.1570   47.6080 C   0  0  0  0  0  0  0  0  0  0  0  0
   58.8420   30.7920   48.9180 C   0  0  0  0  0  0  0  0  0  0  0  0
   58.3030   31.9070   49.1560 O   0  0  0  0  0  0  0  0  0  0  0  0
   59.7100   30.1890   49.8950 N   0  0  0  0  0  0  0  0  0  0  0  0
   60.8150   29.3200   49.4640 C   0  0  0  0  0  0  0  0  0  0  0  0
   61.7430   28.9970   50.6400 C   0  0  0  0  0  0  0  0  0  0  0  0
   62.0150   30.2090   51.4210 N   0  0  0  0  0  0  0  0  0  0  0  0
   60.8010   30.7730   52.0480 C   0  0  0  0  0  0  0  0  0  0  0  0
   59.4860   30.4060   51.3300 C   0  0  0  0  0  0  0  0  0  0  0  0
   58.7580   30.7600   46.4030 N   0  0  0  0  0  0  0  0  0  0  0  0
   59.3060   32.1060   46.1640 C   0  0  0  0  0  0  0  0  0  0  0  0
   60.4610   32.3810   47.0900 C   0  0  0  0  0  0  0  0  0  0  0  0
   61.5520   31.4980   47.1390 C   0  0  0  0  0  0  0  0  0  0  0  0
   62.6300   31.7520   47.9920 C   0  0  0  0  0  0  0  0  0  0  0  0
   62.6300   32.8860   48.8210 C   0  0  0  0  0  0  0  0  0  0  0  0
   63.7800   33.1590   49.7170 C   0  0  0  0  0  0  0  0  0  0  0  0
   65.0710   32.7330   49.3520 C   0  0  0  0  0  0  0  0  0  0  0  0
   66.1640   32.9900   50.1850 C   0  0  0  0  0  0  0  0  0  0  0  0
   65.9800   33.6710   51.3910 C   0  0  0  0  0  0  0  0  0  0  0  0
   64.7030   34.0910   51.7680 C   0  0  0  0  0  0  0  0  0  0  0  0
   63.6050   33.8390   50.9390 C   0  0  0  0  0  0  0  0  0  0  0  0
   62.3700   34.2280   51.3490 F   0  0  0  0  0  0  0  0  0  0  0  0
   61.5350   33.7650   48.7760 C   0  0  0  0  0  0  0  0  0  0  0  0
   60.4590   33.5130   47.9220 C   0  0  0  0  0  0  0  0  0  0  0  0
  1  2  2  0
  2  3  1  0
  3  4  2  0
  4  5  1  0
  5  6  1  0
  6  7  1  0
  7  8  2  0
  7  9  1  0
  9 10  1  0
 10 11  1  0
  3 12  1  0
 12 13  2  0
 13 14  1  0
 14 15  2  0
 14 16  1  0
 16 17  1  0
 17 18  1  0
 18 19  1  0
 19 20  1  0
 20 21  1  0
 13 22  1  0
 22 23  1  0
 23 24  1  0
 24 25  2  0
 25 26  1  0
 26 27  2  0
 27 28  1  0
 28 29  2  0
 29 30  1  0
 30 31  2  0
 31 32  1  0
 32 33  2  0
 33 34  1  0
 27 35  1  0
 35 36  2  0
 22  2  1  0
 36 24  1  0
 10  5  2  0
 21 16  1  0
 33 28  1  0
M  CHG  3   6  -1   9  -1  11  -1
M  END
>  <UniqueID>  (1916) 
27

>  <SMILES>  (1916) 
C=c1/c(=C/c2[n-]c(=O)[n-]c2[O-])cc(C(=O)N2CCNCC2)n1Cc1ccc(-c2ccccc2F)cc1

>  <Energy>  (1916) 
145.33721045563874

>  <Genealogy>  (1916) 
C=c1c(=Cc2[n-]c(=O)[n-]c2[O-])cc(C(=O)N2CCNCC2)n1Cc1ccc(-c2ccccc2F)cc1 (protonated)
C=c1/c(=C/c2[n-]c(=O)[n-]c2[O-])cc(C(=O)N2CCNCC2)n1Cc1ccc(-c2ccccc2F)cc1 (cis-trans isomerization)
C=c1/c(=C/c2[n-]c(=O)[n-]c2[O-])cc(C(=O)N2CCNCC2)n1Cc1ccc(-c2ccccc2F)cc1 (3D coordinates assigned)
C=c1/c(=C/c2[n-]c(=O)[n-]c2[O-])cc(C(=O)N2CCNCC2)n1Cc1ccc(-c2ccccc2F)cc1 (nonaromatic ring conformer: 145.33721045563874 kcal/mol)

>  <smiles>  (1916) 
C=c1c(=Cc2[nH]c(=O)[nH]c2O)cc(C(=O)N2CCNCC2)n1Cc1ccc(-c2ccccc2F)cc1

>  <score_type>  (1916) 
oracle

>  <origin>  (1916) 
adg

>  <m_score__min__energy>  (1916) 
-16.02

>  <m_primary>  (1916) 
energy

$$$$
29:0
     RDKit          3D

 27 29  0  0  0  0  0  0  0  0999 V2000
   59.6630   29.2520   47.4390 C   0  0  0  0  0  0  0  0  0  0  0  0
   58.9770   29.9940   46.5560 C   0  0  0  0  0  0  0  0  0  0  0  0
   58.3660   29.5530   45.3810 C   0  0  0  0  0  0  0  0  0  0  0  0
   58.3460   28.2920   44.9030 C   0  0  0  0  0  0  0  0  0  0  0  0
   57.5050   27.2130   45.4490 C   0  0  0  0  0  0  0  0  0  0  0  0
   56.1270   27.3990   45.6260 C   0  0  0  0  0  0  0  0  0  0  0  0
   55.5200   28.5940   45.2540 O   0  0  0  0  0  0  0  0  0  0  0  0
   55.3730   26.4050   46.1610 N   0  0  0  0  0  0  0  0  0  0  0  0
   55.9330   25.2280   46.5430 C   0  0  0  0  0  0  0  0  0  0  0  0
   55.2150   24.3200   47.0330 O   0  0  0  0  0  0  0  0  0  0  0  0
   57.2700   25.0330   46.3980 N   0  0  0  0  0  0  0  0  0  0  0  0
   58.0660   25.9960   45.8680 C   0  0  0  0  0  0  0  0  0  0  0  0
   59.3030   25.7860   45.7530 O   0  0  0  0  0  0  0  0  0  0  0  0
   57.8010   30.7150   44.8400 C   0  0  0  0  0  0  0  0  0  0  0  0
   57.0180   30.8660   43.5720 C   0  0  0  0  0  0  0  0  0  0  0  0
   58.0660   31.7630   45.6440 N   0  0  0  0  0  0  0  0  0  0  0  0
   58.7700   31.3280   46.6750 N   0  0  0  0  0  0  0  0  0  0  0  0
   59.2510   32.2190   47.7350 C   0  0  0  0  0  0  0  0  0  0  0  0
   60.6890   32.6320   47.4840 C   0  0  0  0  0  0  0  0  0  0  0  0
   61.7210   31.8410   48.0250 C   0  0  0  0  0  0  0  0  0  0  0  0
   63.0570   32.2180   47.8870 C   0  0  0  0  0  0  0  0  0  0  0  0
   63.3870   33.3830   47.2010 C   0  0  0  0  0  0  0  0  0  0  0  0
   62.3840   34.1650   46.6260 C   0  0  0  0  0  0  0  0  0  0  0  0
   61.0330   33.7890   46.7330 C   0  0  0  0  0  0  0  0  0  0  0  0
   60.0260   34.6180   46.0370 C   0  0  0  0  0  0  0  0  0  0  0  0
   59.8930   35.8310   46.3510 O   0  0  0  0  0  0  0  0  0  0  0  0
   59.2450   34.0790   44.9700 N   0  0  0  0  0  0  0  0  0  0  0  0
  1  2  2  0
  2  3  1  0
  3  4  2  0
  4  5  1  0
  5  6  2  0
  6  7  1  0
  6  8  1  0
  8  9  1  0
  9 10  2  0
  9 11  1  0
 11 12  1  0
 12 13  2  0
  3 14  1  0
 14 15  1  0
 14 16  2  0
 16 17  1  0
 17 18  1  0
 18 19  1  0
 19 20  2  0
 20 21  1  0
 21 22  2  0
 22 23  1  0
 23 24  2  0
 24 25  1  0
 25 26  2  0
 25 27  1  0
 17  2  1  0
 24 19  1  0
 12  5  1  0
M  CHG  3   7  -1   8  -1  11  -1
M  END
>  <UniqueID>  (1917) 
29

>  <SMILES>  (1917) 
C=c1/c(=C/c2c([O-])[n-]c(=O)[n-]c2=O)c(C)nn1Cc1ccccc1C(N)=O

>  <Energy>  (1917) 
93.96637896910896

>  <Genealogy>  (1917) 
C=c1c(=Cc2c([O-])[n-]c(=O)[n-]c2=O)c(C)nn1Cc1ccccc1C(N)=O (protonated)
C=c1/c(=C/c2c([O-])[n-]c(=O)[n-]c2=O)c(C)nn1Cc1ccccc1C(N)=O (cis-trans isomerization)
C=c1/c(=C/c2c([O-])[n-]c(=O)[n-]c2=O)c(C)nn1Cc1ccccc1C(N)=O (3D coordinates assigned)
C=c1/c(=C/c2c([O-])[n-]c(=O)[n-]c2=O)c(C)nn1Cc1ccccc1C(N)=O (optimized conformer: 93.96637896910896 kcal/mol)

>  <smiles>  (1917) 
C=c1c(=Cc2c(O)[nH]c(=O)[nH]c2=O)c(C)nn1Cc1ccccc1C(N)=O

>  <score_type>  (1917) 
oracle

>  <origin>  (1917) 
adg

>  <m_score__min__energy>  (1917) 
-16.109999999999999

>  <m_primary>  (1917) 
energy

$$$$
36:0
     RDKit          3D

 34 37  0  0  0  0  0  0  0  0999 V2000
   53.8330   28.9600   54.5450 C   0  0  0  0  0  0  0  0  0  0  0  0
   54.3890   29.6990   53.5700 C   0  0  0  0  0  0  0  0  0  0  0  0
   53.7140   30.2750   52.4830 C   0  0  0  0  0  0  0  0  0  0  0  0
   52.3990   30.4620   52.2580 C   0  0  0  0  0  0  0  0  0  0  0  0
   51.8080   30.8790   50.9760 C   0  0  0  0  0  0  0  0  0  0  0  0
   51.7100   30.0960   49.8860 N   0  0  0  0  0  0  0  0  0  0  0  0
   51.0140   30.8600   49.0160 C   0  0  0  0  0  0  0  0  0  0  0  0
   50.7280   30.4740   47.8530 O   0  0  0  0  0  0  0  0  0  0  0  0
   50.6420   32.0670   49.4930 N   0  0  0  0  0  0  0  0  0  0  0  0
   51.1450   32.0580   50.7380 C   0  0  0  0  0  0  0  0  0  0  0  0
   51.0030   33.1070   51.6380 O   0  0  0  0  0  0  0  0  0  0  0  0
   54.6910   30.6950   51.6000 C   0  0  0  0  0  0  0  0  0  0  0  0
   55.9080   30.4340   52.1940 C   0  0  0  0  0  0  0  0  0  0  0  0
   57.2010   30.7430   51.5530 C   0  0  0  0  0  0  0  0  0  0  0  0
   57.9750   29.7860   51.2650 O   0  0  0  0  0  0  0  0  0  0  0  0
   57.6560   32.1120   51.4140 N   0  0  0  0  0  0  0  0  0  0  0  0
   58.9090   32.1900   50.6090 C   0  0  0  0  0  0  0  0  0  0  0  0
   60.1010   32.7530   51.3970 C   0  0  0  0  0  0  0  0  0  0  0  0
   59.7730   34.0590   51.9860 N   0  0  0  0  0  0  0  0  0  0  0  0
   58.4650   34.0930   52.6770 C   0  0  0  0  0  0  0  0  0  0  0  0
   57.7780   32.7210   52.7580 C   0  0  0  0  0  0  0  0  0  0  0  0
   55.7330   29.8480   53.4060 N   0  0  0  0  0  0  0  0  0  0  0  0
   56.7800   29.6360   54.4230 C   0  0  0  0  0  0  0  0  0  0  0  0
   57.5750   28.3920   54.1100 C   0  0  0  0  0  0  0  0  0  0  0  0
   56.9880   27.1250   54.2470 C   0  0  0  0  0  0  0  0  0  0  0  0
   57.7200   25.9740   53.9500 C   0  0  0  0  0  0  0  0  0  0  0  0
   59.0360   26.0750   53.4970 C   0  0  0  0  0  0  0  0  0  0  0  0
   59.6340   27.3300   53.3320 C   0  0  0  0  0  0  0  0  0  0  0  0
   60.9540   27.3780   52.8520 O   0  0  0  0  0  0  0  0  0  0  0  0
   61.3520   27.9320   51.5990 C   0  0  0  0  0  0  0  0  0  0  0  0
   61.1000   27.0320   50.5790 F   0  0  0  0  0  0  0  0  0  0  0  0
   62.7090   28.1930   51.6360 F   0  0  0  0  0  0  0  0  0  0  0  0
   60.6790   29.1170   51.3600 F   0  0  0  0  0  0  0  0  0  0  0  0
   58.8990   28.4880   53.6510 C   0  0  0  0  0  0  0  0  0  0  0  0
  1  2  2  0
  2  3  1  0
  3  4  2  3
  4  5  1  0
  5  6  1  0
  6  7  1  0
  7  8  2  0
  7  9  1  0
  9 10  1  0
 10 11  1  0
  3 12  1  0
 12 13  2  0
 13 14  1  0
 14 15  2  0
 14 16  1  0
 16 17  1  0
 17 18  1  0
 18 19  1  0
 19 20  1  0
 20 21  1  0
 13 22  1  0
 22 23  1  0
 23 24  1  0
 24 25  2  0
 25 26  1  0
 26 27  2  0
 27 28  1  0
 28 29  1  0
 29 30  1  0
 30 31  1  0
 30 32  1  0
 30 33  1  0
 28 34  2  0
 22  2  1  0
 34 24  1  0
 10  5  2  0
 21 16  1  0
M  CHG  4   6  -1   9  -1  11  -1  16   1
M  END
>  <UniqueID>  (1918) 
36

>  <SMILES>  (1918) 
C=c1c(=Cc2[n-]c(=O)[n-]c2[O-])cc(C(=O)[NH+]2CCNCC2)n1Cc1cccc(OC(F)(F)F)c1

>  <Energy>  (1918) 
144.08009915021597

>  <Genealogy>  (1918) 
C=c1c(=Cc2[n-]c(=O)[n-]c2[O-])cc(C(=O)[NH+]2CCNCC2)n1Cc1cccc(OC(F)(F)F)c1 (protonated)
C=c1c(=Cc2[n-]c(=O)[n-]c2[O-])cc(C(=O)[NH+]2CCNCC2)n1Cc1cccc(OC(F)(F)F)c1 (3D coordinates assigned)
C=c1c(=Cc2[n-]c(=O)[n-]c2[O-])cc(C(=O)[NH+]2CCNCC2)n1Cc1cccc(OC(F)(F)F)c1 (nonaromatic ring conformer: 144.08009915021597 kcal/mol)

>  <smiles>  (1918) 
C=c1c(=Cc2[nH]c(=O)[nH]c2O)cc(C(=O)N2CCNCC2)n1Cc1cccc(OC(F)(F)F)c1

>  <score_type>  (1918) 
oracle

>  <origin>  (1918) 
adg

>  <m_score__min__energy>  (1918) 
-15.1

>  <m_primary>  (1918) 
energy

$$$$
39:0
     RDKit          3D

 31 34  0  0  0  0  0  0  0  0999 V2000
   65.8550   29.5090   52.1050 C   0  0  0  0  0  0  0  0  0  0  0  0
   65.8630   30.5860   51.2920 C   0  0  0  0  0  0  0  0  0  0  0  0
   67.1300   31.1510   50.6820 C   0  0  0  0  0  0  0  0  0  0  0  0
   67.0860   32.6870   50.6360 C   0  0  0  0  0  0  0  0  0  0  0  0
   65.6940   33.2760   50.3000 C   0  0  0  0  0  0  0  0  0  0  0  0
   64.7330   32.2470   49.8530 N   0  0  2  0  0  0  0  0  0  0  0  0
   63.4660   32.8700   49.5210 C   0  0  0  0  0  0  0  0  0  0  0  0
   63.2620   34.0780   49.8310 O   0  0  0  0  0  0  0  0  0  0  0  0
   62.3980   32.1300   48.7990 C   0  0  0  0  0  0  0  0  0  0  0  0
   62.0970   32.4650   47.4660 C   0  0  0  0  0  0  0  0  0  0  0  0
   61.0940   31.7850   46.7710 C   0  0  0  0  0  0  0  0  0  0  0  0
   60.3780   30.7540   47.3930 C   0  0  0  0  0  0  0  0  0  0  0  0
   59.3460   30.0530   46.6770 N   0  0  0  0  0  0  0  0  0  0  0  0
   58.2120   30.6020   46.1880 C   0  0  0  0  0  0  0  0  0  0  0  0
   57.8180   32.0410   46.3440 C   0  0  0  0  0  0  0  0  0  0  0  0
   57.4420   29.6420   45.5640 C   0  0  0  0  0  0  0  0  0  0  0  0
   58.1420   28.4470   45.6560 C   0  0  0  0  0  0  0  0  0  0  0  0
   57.7320   27.2450   45.2080 C   0  0  0  0  0  0  0  0  0  0  0  0
   57.1990   26.1780   46.0740 C   0  0  0  0  0  0  0  0  0  0  0  0
   57.9570   25.1920   46.5830 N   0  0  0  0  0  0  0  0  0  0  0  0
   57.0650   24.4110   47.2290 C   0  0  0  0  0  0  0  0  0  0  0  0
   57.4020   23.3720   47.8540 O   0  0  0  0  0  0  0  0  0  0  0  0
   55.7830   24.8230   47.1410 N   0  0  0  0  0  0  0  0  0  0  0  0
   55.8810   25.9360   46.3970 C   0  0  0  0  0  0  0  0  0  0  0  0
   54.7850   26.6840   45.9840 O   0  0  0  0  0  0  0  0  0  0  0  0
   59.3160   28.7340   46.3620 C   0  0  0  0  0  0  0  0  0  0  0  0
   60.2720   27.8570   46.7100 C   0  0  0  0  0  0  0  0  0  0  0  0
   60.6850   30.4010   48.7140 C   0  0  0  0  0  0  0  0  0  0  0  0
   61.6880   31.0790   49.4120 C   0  0  0  0  0  0  0  0  0  0  0  0
   64.5440   31.2150   50.8960 C   0  0  0  0  0  0  0  0  0  0  0  0
   65.9790   28.0940   51.6190 C   0  0  0  0  0  0  0  0  0  0  0  0
  1  2  2  3
  2  3  1  0
  3  4  1  0
  4  5  1  0
  5  6  1  0
  6  7  1  1
  7  8  2  0
  7  9  1  0
  9 10  2  0
 10 11  1  0
 11 12  2  0
 12 13  1  0
 13 14  1  0
 14 15  1  0
 14 16  2  0
 16 17  1  0
 17 18  2  0
 18 19  1  0
 19 20  1  0
 20 21  1  0
 21 22  2  0
 21 23  1  0
 23 24  1  0
 24 25  1  0
 17 26  1  0
 26 27  2  0
 12 28  1  0
 28 29  2  0
  6 30  1  0
  1 31  1  0
 30  2  1  0
 29  9  1  0
 26 13  1  0
 24 19  2  0
M  CHG  4   6   1  20  -1  23  -1  25  -1
M  END
>  <UniqueID>  (1919) 
39

>  <SMILES>  (1919) 
C=c1/c(=C/c2[n-]c(=O)[n-]c2[O-])cc(C)n1-c1ccc(C(=O)[N@H+]2CCCC(=CC)C2)cc1

>  <Energy>  (1919) 
136.60658649534903

>  <Genealogy>  (1919) 
C=c1c(=Cc2[n-]c(=O)[n-]c2[O-])cc(C)n1-c1ccc(C(=O)[NH+]2CCCC(=CC)C2)cc1 (protonated)
C=c1c(=Cc2[n-]c(=O)[n-]c2[O-])cc(C)n1-c1ccc(C(=O)[N@H+]2CCCC(=CC)C2)cc1 (chirality)
C=c1/c(=C/c2[n-]c(=O)[n-]c2[O-])cc(C)n1-c1ccc(C(=O)[N@H+]2CCCC(=CC)C2)cc1 (cis-trans isomerization)
C=c1/c(=C/c2[n-]c(=O)[n-]c2[O-])cc(C)n1-c1ccc(C(=O)[N@H+]2CCCC(=CC)C2)cc1 (3D coordinates assigned)
C=c1/c(=C/c2[n-]c(=O)[n-]c2[O-])cc(C)n1-c1ccc(C(=O)[N@H+]2CCCC(=CC)C2)cc1 (nonaromatic ring conformer: 136.60658649534903 kcal/mol)

>  <smiles>  (1919) 
C=c1c(=Cc2[nH]c(=O)[nH]c2O)cc(C)n1-c1ccc(C(=O)N2CCCC(=CC)C2)cc1

>  <score_type>  (1919) 
oracle

>  <origin>  (1919) 
adg

>  <m_score__min__energy>  (1919) 
-15.44

>  <m_primary>  (1919) 
energy

$$$$
45:0
     RDKit          3D

 34 37  0  0  0  0  0  0  0  0999 V2000
   54.7510   30.8120   51.2570 C   0  0  0  0  0  0  0  0  0  0  0  0
   54.6590   30.5270   52.5650 C   0  0  0  0  0  0  0  0  0  0  0  0
   53.5040   30.5540   53.3630 C   0  0  0  0  0  0  0  0  0  0  0  0
   52.2040   30.6950   53.0360 C   0  0  0  0  0  0  0  0  0  0  0  0
   51.6710   30.9420   51.6860 C   0  0  0  0  0  0  0  0  0  0  0  0
   51.9270   30.1410   50.6350 N   0  0  0  0  0  0  0  0  0  0  0  0
   51.3740   30.8010   49.5950 C   0  0  0  0  0  0  0  0  0  0  0  0
   51.3940   30.3510   48.4200 O   0  0  0  0  0  0  0  0  0  0  0  0
   50.8090   31.9870   49.9130 N   0  0  0  0  0  0  0  0  0  0  0  0
   51.0190   32.0680   51.2360 C   0  0  0  0  0  0  0  0  0  0  0  0
   50.6540   33.1620   52.0110 O   0  0  0  0  0  0  0  0  0  0  0  0
   53.9370   30.4200   54.6730 C   0  0  0  0  0  0  0  0  0  0  0  0
   55.3060   30.2550   54.6280 C   0  0  0  0  0  0  0  0  0  0  0  0
   56.1980   30.1420   55.8260 C   0  0  0  0  0  0  0  0  0  0  0  0
   55.7410   30.3060   53.3530 N   0  0  0  0  0  0  0  0  0  0  0  0
   57.1220   30.3730   52.9580 C   0  0  0  0  0  0  0  0  0  0  0  0
   57.6750   29.3620   52.1600 C   0  0  0  0  0  0  0  0  0  0  0  0
   59.0270   29.4100   51.8040 C   0  0  0  0  0  0  0  0  0  0  0  0
   59.8320   30.4820   52.2180 C   0  0  0  0  0  0  0  0  0  0  0  0
   61.2750   30.4730   51.9150 C   0  0  0  0  0  0  0  0  0  0  0  0
   61.9450   29.4820   52.3190 O   0  0  0  0  0  0  0  0  0  0  0  0
   61.9350   31.4840   51.1070 N   0  0  0  0  0  0  0  0  0  0  0  0
   61.4110   32.8640   51.2640 C   0  0  0  0  0  0  0  0  0  0  0  0
   60.1800   33.1530   50.3900 C   0  0  0  0  0  0  0  0  0  0  0  0
   60.4740   32.8300   48.9880 N   0  0  0  0  0  0  0  0  0  0  0  0
   59.0910   33.2070   47.9890 S   0  0  0  0  0  0  0  0  0  0  0  0
   59.2530   32.4230   46.3970 C   0  0  0  0  0  0  0  0  0  0  0  0
   58.9630   34.6970   47.7980 O   0  0  0  0  0  0  0  0  0  0  0  0
   57.8410   32.6880   48.6450 O   0  0  0  0  0  0  0  0  0  0  0  0
   60.7850   31.4010   48.8720 C   0  0  0  0  0  0  0  0  0  0  0  0
   62.0410   31.0700   49.6900 C   0  0  0  0  0  0  0  0  0  0  0  0
   59.2780   31.4870   53.0270 C   0  0  0  0  0  0  0  0  0  0  0  0
   57.9280   31.4350   53.3930 C   0  0  0  0  0  0  0  0  0  0  0  0
   57.4030   32.4150   54.1720 F   0  0  0  0  0  0  0  0  0  0  0  0
  1  2  2  0
  2  3  1  0
  3  4  2  3
  4  5  1  0
  5  6  1  0
  6  7  1  0
  7  8  2  0
  7  9  1  0
  9 10  1  0
 10 11  1  0
  3 12  1  0
 12 13  2  0
 13 14  1  0
 13 15  1  0
 15 16  1  0
 16 17  2  0
 17 18  1  0
 18 19  2  0
 19 20  1  0
 20 21  2  0
 20 22  1  0
 22 23  1  0
 23 24  1  0
 24 25  1  0
 25 26  1  0
 26 27  1  0
 26 28  2  0
 26 29  2  0
 25 30  1  0
 30 31  1  0
 19 32  1  0
 32 33  2  0
 33 34  1  0
 15  2  1  0
 33 16  1  0
 10  5  2  0
 31 22  1  0
M  CHG  4   6  -1   9  -1  11  -1  22   1
M  END
>  <UniqueID>  (1920) 
45

>  <SMILES>  (1920) 
C=c1c(=Cc2[n-]c(=O)[n-]c2[O-])cc(C)n1-c1ccc(C(=O)[NH+]2CCN(S(C)(=O)=O)CC2)cc1F

>  <Energy>  (1920) 
144.6505052577221

>  <Genealogy>  (1920) 
C=c1c(=Cc2[n-]c(=O)[n-]c2[O-])cc(C)n1-c1ccc(C(=O)[NH+]2CCN(S(C)(=O)=O)CC2)cc1F (protonated)
C=c1c(=Cc2[n-]c(=O)[n-]c2[O-])cc(C)n1-c1ccc(C(=O)[NH+]2CCN(S(C)(=O)=O)CC2)cc1F (3D coordinates assigned)
C=c1c(=Cc2[n-]c(=O)[n-]c2[O-])cc(C)n1-c1ccc(C(=O)[NH+]2CCN(S(C)(=O)=O)CC2)cc1F (nonaromatic ring conformer: 144.6505052577221 kcal/mol)

>  <smiles>  (1920) 
C=c1c(=Cc2[nH]c(=O)[nH]c2O)cc(C)n1-c1ccc(C(=O)N2CCN(S(C)(=O)=O)CC2)cc1F

>  <score_type>  (1920) 
oracle

>  <origin>  (1920) 
adg

>  <m_score__min__energy>  (1920) 
-15.289999999999999

>  <m_primary>  (1920) 
energy

$$$$
46:0
     RDKit          3D

 30 33  0  0  0  0  0  0  0  0999 V2000
   60.3200   29.4740   45.0350 C   0  0  0  0  0  0  0  0  0  0  0  0
   59.7340   29.3500   46.2350 C   0  0  0  0  0  0  0  0  0  0  0  0
   58.8490   28.3400   46.6280 C   0  0  0  0  0  0  0  0  0  0  0  0
   58.4460   27.2800   45.9000 C   0  0  0  0  0  0  0  0  0  0  0  0
   57.1380   26.6200   46.0600 C   0  0  0  0  0  0  0  0  0  0  0  0
   57.0010   25.3360   46.4300 N   0  0  0  0  0  0  0  0  0  0  0  0
   55.6670   25.1320   46.3690 C   0  0  0  0  0  0  0  0  0  0  0  0
   55.1350   24.0290   46.6620 O   0  0  0  0  0  0  0  0  0  0  0  0
   54.9490   26.1980   45.9580 N   0  0  0  0  0  0  0  0  0  0  0  0
   55.8950   27.1290   45.7550 C   0  0  0  0  0  0  0  0  0  0  0  0
   55.6280   28.3980   45.2550 O   0  0  0  0  0  0  0  0  0  0  0  0
   58.5180   28.6040   47.9510 C   0  0  0  0  0  0  0  0  0  0  0  0
   59.1880   29.7560   48.3040 C   0  0  0  0  0  0  0  0  0  0  0  0
   59.1320   30.3860   49.6630 C   0  0  0  0  0  0  0  0  0  0  0  0
   59.9420   30.2010   47.2720 N   0  0  0  0  0  0  0  0  0  0  0  0
   60.8050   31.3530   47.2930 C   0  0  0  0  0  0  0  0  0  0  0  0
   62.1960   31.1710   47.2440 C   0  0  0  0  0  0  0  0  0  0  0  0
   63.0500   32.2740   47.1710 C   0  0  0  0  0  0  0  0  0  0  0  0
   62.5220   33.5660   47.1290 C   0  0  0  0  0  0  0  0  0  0  0  0
   61.1400   33.7590   47.1770 C   0  0  0  0  0  0  0  0  0  0  0  0
   60.2730   32.6640   47.2810 C   0  0  0  0  0  0  0  0  0  0  0  0
   58.8950   32.9050   47.3410 O   0  0  0  0  0  0  0  0  0  0  0  0
   58.1460   33.3930   46.2630 C   0  0  0  0  0  0  0  0  0  0  0  0
   57.6860   34.5670   46.2960 O   0  0  0  0  0  0  0  0  0  0  0  0
   57.9090   32.5370   45.0820 C   0  0  0  0  0  0  0  0  0  0  0  0
   57.4210   31.2280   45.2320 C   0  0  0  0  0  0  0  0  0  0  0  0
   57.2260   30.4300   44.1030 C   0  0  0  0  0  0  0  0  0  0  0  0
   57.5090   30.9150   42.8630 N   0  0  0  0  0  0  0  0  0  0  0  0
   57.9840   32.1780   42.6890 C   0  0  0  0  0  0  0  0  0  0  0  0
   58.1930   33.0090   43.7910 C   0  0  0  0  0  0  0  0  0  0  0  0
  1  2  2  0
  2  3  1  0
  3  4  2  3
  4  5  1  0
  5  6  1  0
  6  7  1  0
  7  8  2  0
  7  9  1  0
  9 10  1  0
 10 11  1  0
  3 12  1  0
 12 13  2  0
 13 14  1  0
 13 15  1  0
 15 16  1  0
 16 17  2  0
 17 18  1  0
 18 19  2  0
 19 20  1  0
 20 21  2  0
 21 22  1  0
 22 23  1  0
 23 24  2  0
 23 25  1  0
 25 26  2  0
 26 27  1  0
 27 28  2  0
 28 29  1  0
 29 30  2  0
 15  2  1  0
 21 16  1  0
 30 25  1  0
 10  5  2  0
M  CHG  4   6  -1   9  -1  11  -1  28   1
M  END
>  <UniqueID>  (1921) 
46

>  <SMILES>  (1921) 
C=c1c(=Cc2[n-]c(=O)[n-]c2[O-])cc(C)n1-c1ccccc1OC(=O)c1cc[nH+]cc1

>  <Energy>  (1921) 
126.2040565373409

>  <Genealogy>  (1921) 
C=c1c(=Cc2[n-]c(=O)[n-]c2[O-])cc(C)n1-c1ccccc1OC(=O)c1cc[nH+]cc1 (protonated)
C=c1c(=Cc2[n-]c(=O)[n-]c2[O-])cc(C)n1-c1ccccc1OC(=O)c1cc[nH+]cc1 (3D coordinates assigned)
C=c1c(=Cc2[n-]c(=O)[n-]c2[O-])cc(C)n1-c1ccccc1OC(=O)c1cc[nH+]cc1 (optimized conformer: 126.2040565373409 kcal/mol)

>  <smiles>  (1921) 
C=c1c(=Cc2[nH]c(=O)[nH]c2O)cc(C)n1-c1ccccc1OC(=O)c1ccncc1

>  <score_type>  (1921) 
oracle

>  <origin>  (1921) 
adg

>  <m_score__min__energy>  (1921) 
-15.6

>  <m_primary>  (1921) 
energy

$$$$
50:0
     RDKit          3D

 30 33  0  0  0  0  0  0  0  0999 V2000
   65.4290   32.6370   50.9690 C   0  0  0  0  0  0  0  0  0  0  0  0
   64.1970   32.9300   50.1660 C   0  0  0  0  0  0  0  0  0  0  0  0
   64.2810   33.0360   48.7590 C   0  0  0  0  0  0  0  0  0  0  0  0
   63.1300   33.2820   47.9940 C   0  0  0  0  0  0  0  0  0  0  0  0
   61.9050   33.4060   48.6540 C   0  0  0  0  0  0  0  0  0  0  0  0
   61.8170   33.2990   50.0150 C   0  0  0  0  0  0  0  0  0  0  0  0
   62.9450   33.0540   50.7990 C   0  0  0  0  0  0  0  0  0  0  0  0
   60.4120   33.4950   50.4690 C   0  0  0  0  0  0  0  0  0  0  0  0
   59.6450   33.7750   49.1550 C   0  0  0  0  0  0  0  0  0  0  0  0
   60.6340   33.6720   48.0850 N   0  0  0  0  0  0  0  0  0  0  0  0
   60.2760   33.9830   46.4140 S   0  0  0  0  0  0  0  0  0  0  0  0
   59.7630   35.3850   46.2410 O   0  0  0  0  0  0  0  0  0  0  0  0
   61.5470   33.8410   45.6250 O   0  0  0  0  0  0  0  0  0  0  0  0
   59.0850   32.8270   45.8240 C   0  0  0  0  0  0  0  0  0  0  0  0
   58.7120   31.7300   46.6120 C   0  0  0  0  0  0  0  0  0  0  0  0
   57.7740   30.8080   46.1400 C   0  0  0  0  0  0  0  0  0  0  0  0
   57.2040   30.9620   44.8650 C   0  0  0  0  0  0  0  0  0  0  0  0
   56.2210   29.9790   44.3470 C   0  0  0  0  0  0  0  0  0  0  0  0
   55.8440   30.0580   43.1480 O   0  0  0  0  0  0  0  0  0  0  0  0
   55.6440   28.9650   45.1810 N   0  0  0  0  0  0  0  0  0  0  0  0
   56.2840   27.7580   45.6170 C   0  0  0  0  0  0  0  0  0  0  0  0
   57.6790   27.6210   45.6200 C   0  0  0  0  0  0  0  0  0  0  0  0
   58.2320   26.4150   46.0520 C   0  0  0  0  0  0  0  0  0  0  0  0
   59.4840   26.2700   46.0820 O   0  0  0  0  0  0  0  0  0  0  0  0
   57.4200   25.3940   46.4410 N   0  0  0  0  0  0  0  0  0  0  0  0
   56.0670   25.5350   46.4070 C   0  0  0  0  0  0  0  0  0  0  0  0
   55.3230   24.5810   46.7590 O   0  0  0  0  0  0  0  0  0  0  0  0
   55.5130   26.7050   45.9940 N   0  0  0  0  0  0  0  0  0  0  0  0
   57.5600   32.0780   44.0890 C   0  0  0  0  0  0  0  0  0  0  0  0
   58.4950   33.0020   44.5660 C   0  0  0  0  0  0  0  0  0  0  0  0
  1  2  1  0
  2  3  2  0
  3  4  1  0
  4  5  2  0
  5  6  1  0
  6  7  2  0
  6  8  1  0
  8  9  1  0
  9 10  1  0
 10 11  1  0
 11 12  2  0
 11 13  2  0
 11 14  1  0
 14 15  2  0
 15 16  1  0
 16 17  2  0
 17 18  1  0
 18 19  2  0
 18 20  1  0
 20 21  1  0
 21 22  2  0
 22 23  1  0
 23 24  2  0
 23 25  1  0
 25 26  1  0
 26 27  2  0
 26 28  1  0
 17 29  1  0
 29 30  2  0
  7  2  1  0
 30 14  1  0
 10  5  1  0
 28 21  1  0
M  CHG  2  20  -1  28  -1
M  END
>  <UniqueID>  (1922) 
50

>  <SMILES>  (1922) 
Cc1ccc2c(c1)CCN2S(=O)(=O)c1ccc(C(=O)[N-]c2cc(=O)[nH]c(=O)[n-]2)cc1

>  <Energy>  (1922) 
73.51437193982095

>  <Genealogy>  (1922) 
Cc1ccc2c(c1)CCN2S(=O)(=O)c1ccc(C(=O)[N-]c2cc(=O)[nH]c(=O)[n-]2)cc1 (protonated)
Cc1ccc2c(c1)CCN2S(=O)(=O)c1ccc(C(=O)[N-]c2cc(=O)[nH]c(=O)[n-]2)cc1 (3D coordinates assigned)
Cc1ccc2c(c1)CCN2S(=O)(=O)c1ccc(C(=O)[N-]c2cc(=O)[nH]c(=O)[n-]2)cc1 (nonaromatic ring conformer: 73.51437193982095 kcal/mol)

>  <smiles>  (1922) 
Cc1ccc2c(c1)CCN2S(=O)(=O)c1ccc(C(=O)Nc2cc(=O)[nH]c(=O)[nH]2)cc1

>  <score_type>  (1922) 
oracle

>  <origin>  (1922) 
adg

>  <m_score__min__energy>  (1922) 
-14.32

>  <m_primary>  (1922) 
energy

$$$$
53:0
     RDKit          3D

 31 34  0  0  0  0  0  0  0  0999 V2000
   60.0620   29.4800   47.8820 C   0  0  0  0  0  0  0  0  0  0  0  0
   59.2940   30.1230   46.9880 C   0  0  0  0  0  0  0  0  0  0  0  0
   58.7570   29.6040   45.7990 C   0  0  0  0  0  0  0  0  0  0  0  0
   58.6660   28.3380   45.3500 C   0  0  0  0  0  0  0  0  0  0  0  0
   57.5400   27.4210   45.5960 C   0  0  0  0  0  0  0  0  0  0  0  0
   57.6640   26.1550   46.0370 N   0  0  0  0  0  0  0  0  0  0  0  0
   56.3850   25.7710   46.2440 C   0  0  0  0  0  0  0  0  0  0  0  0
   56.0810   24.6200   46.6530 O   0  0  0  0  0  0  0  0  0  0  0  0
   55.4600   26.7210   45.9890 N   0  0  0  0  0  0  0  0  0  0  0  0
   56.2100   27.7640   45.5950 C   0  0  0  0  0  0  0  0  0  0  0  0
   55.6920   29.0070   45.2470 O   0  0  0  0  0  0  0  0  0  0  0  0
   58.2710   30.6900   45.0870 C   0  0  0  0  0  0  0  0  0  0  0  0
   58.4560   31.8040   45.8810 C   0  0  0  0  0  0  0  0  0  0  0  0
   58.0800   33.2030   45.4990 C   0  0  0  0  0  0  0  0  0  0  0  0
   59.0660   31.4590   47.0340 N   0  0  0  0  0  0  0  0  0  0  0  0
   59.4920   32.3750   48.0580 C   0  0  0  0  0  0  0  0  0  0  0  0
   58.9120   32.2960   49.3300 C   0  0  0  0  0  0  0  0  0  0  0  0
   59.2800   33.1940   50.3430 C   0  0  0  0  0  0  0  0  0  0  0  0
   58.6560   33.1120   51.6850 C   0  0  0  0  0  0  0  0  0  0  0  0
   58.8060   34.0700   52.4950 O   0  0  0  0  0  0  0  0  0  0  0  0
   57.9000   31.9550   52.0900 N   0  0  0  0  0  0  0  0  0  0  0  0
   56.4630   32.0870   52.3690 C   0  0  0  0  0  0  0  0  0  0  0  0
   55.7320   30.8450   51.8680 C   0  0  0  0  0  0  0  0  0  0  0  0
   56.3470   29.6450   52.4200 N   0  0  0  0  0  0  0  0  0  0  0  0
   57.7540   29.5580   52.6560 C   0  0  0  0  0  0  0  0  0  0  0  0
   58.2600   28.4500   52.9750 O   0  0  0  0  0  0  0  0  0  0  0  0
   58.6280   30.7820   52.5940 C   0  0  0  0  0  0  0  0  0  0  0  0
   60.2630   34.1600   50.0760 C   0  0  0  0  0  0  0  0  0  0  0  0
   60.8520   34.2390   48.8120 C   0  0  0  0  0  0  0  0  0  0  0  0
   60.4800   33.3460   47.7950 C   0  0  0  0  0  0  0  0  0  0  0  0
   61.1140   33.4520   46.4350 C   0  0  0  0  0  0  0  0  0  0  0  0
  1  2  2  0
  2  3  1  0
  3  4  2  3
  4  5  1  0
  5  6  1  0
  6  7  1  0
  7  8  2  0
  7  9  1  0
  9 10  1  0
 10 11  1  0
  3 12  1  0
 12 13  2  0
 13 14  1  0
 13 15  1  0
 15 16  1  0
 16 17  2  0
 17 18  1  0
 18 19  1  0
 19 20  2  0
 19 21  1  0
 21 22  1  0
 22 23  1  0
 23 24  1  0
 24 25  1  0
 25 26  2  0
 25 27  1  0
 18 28  2  0
 28 29  1  0
 29 30  2  0
 30 31  1  0
 15  2  1  0
 30 16  1  0
 10  5  2  0
 27 21  1  0
M  CHG  3   6  -1   9  -1  24  -1
M  END
>  <UniqueID>  (1923) 
53

>  <SMILES>  (1923) 
C=c1c(=Cc2[n-]c(=O)[n-]c2O)cc(C)n1-c1cc(C(=O)N2CC[N-]C(=O)C2)ccc1C

>  <Energy>  (1923) 
130.84904800889973

>  <Genealogy>  (1923) 
C=c1c(=Cc2[n-]c(=O)[n-]c2O)cc(C)n1-c1cc(C(=O)N2CC[N-]C(=O)C2)ccc1C (protonated)
C=c1c(=Cc2[n-]c(=O)[n-]c2O)cc(C)n1-c1cc(C(=O)N2CC[N-]C(=O)C2)ccc1C (3D coordinates assigned)
C=c1c(=Cc2[n-]c(=O)[n-]c2O)cc(C)n1-c1cc(C(=O)N2CC[N-]C(=O)C2)ccc1C (nonaromatic ring conformer: 130.84904800889973 kcal/mol)

>  <smiles>  (1923) 
C=c1c(=Cc2[nH]c(=O)[nH]c2O)cc(C)n1-c1cc(C(=O)N2CCNC(=O)C2)ccc1C

>  <score_type>  (1923) 
oracle

>  <origin>  (1923) 
adg

>  <m_score__min__energy>  (1923) 
-15.15

>  <m_primary>  (1923) 
energy

$$$$
55:0
     RDKit          3D

 33 36  0  0  0  0  0  0  0  0999 V2000
   55.8890   32.2220   52.3640 C   0  0  0  0  0  0  0  0  0  0  0  0
   55.4940   30.9560   52.5840 C   0  0  0  0  0  0  0  0  0  0  0  0
   54.1770   30.5210   52.8060 C   0  0  0  0  0  0  0  0  0  0  0  0
   52.9970   31.1600   52.6770 C   0  0  0  0  0  0  0  0  0  0  0  0
   52.1540   31.1730   51.4730 C   0  0  0  0  0  0  0  0  0  0  0  0
   52.2360   30.2500   50.4980 N   0  0  0  0  0  0  0  0  0  0  0  0
   51.3940   30.7200   49.5520 C   0  0  0  0  0  0  0  0  0  0  0  0
   51.1820   30.1110   48.4710 O   0  0  0  0  0  0  0  0  0  0  0  0
   50.8050   31.8980   49.8490 N   0  0  0  0  0  0  0  0  0  0  0  0
   51.3100   32.1800   51.0610 C   0  0  0  0  0  0  0  0  0  0  0  0
   51.0260   33.3460   51.7610 O   0  0  0  0  0  0  0  0  0  0  0  0
   54.2670   29.2020   53.2090 C   0  0  0  0  0  0  0  0  0  0  0  0
   55.5980   28.8530   53.1470 C   0  0  0  0  0  0  0  0  0  0  0  0
   56.1320   27.5050   53.5320 C   0  0  0  0  0  0  0  0  0  0  0  0
   56.3520   29.9120   52.7660 N   0  0  0  0  0  0  0  0  0  0  0  0
   57.8210   29.9090   52.6580 C   0  0  0  0  0  0  0  0  0  0  0  0
   58.2590   30.3250   51.2760 C   0  0  0  0  0  0  0  0  0  0  0  0
   58.6380   29.3610   50.3290 C   0  0  0  0  0  0  0  0  0  0  0  0
   59.0210   29.7480   49.0430 C   0  0  0  0  0  0  0  0  0  0  0  0
   59.0480   31.1000   48.6850 C   0  0  0  0  0  0  0  0  0  0  0  0
   59.4070   31.4500   47.3400 N   0  0  0  0  0  0  0  0  0  0  0  0
   58.5650   32.1060   46.3840 C   0  0  0  0  0  0  0  0  0  0  0  0
   58.0100   31.4530   45.4600 O   0  0  0  0  0  0  0  0  0  0  0  0
   58.2900   33.5700   46.5210 C   0  0  0  0  0  0  0  0  0  0  0  0
   59.5750   34.5660   45.6840 S   0  0  0  0  0  0  0  0  0  0  0  0
   60.8710   34.1930   46.8700 C   0  0  0  0  0  0  0  0  0  0  0  0
   60.6290   34.3150   48.2410 C   0  0  0  0  0  0  0  0  0  0  0  0
   61.6540   34.0240   49.1450 C   0  0  0  0  0  0  0  0  0  0  0  0
   62.8700   33.6210   48.6900 N   0  0  0  0  0  0  0  0  0  0  0  0
   63.1250   33.4870   47.3610 C   0  0  0  0  0  0  0  0  0  0  0  0
   62.1260   33.7660   46.4250 C   0  0  0  0  0  0  0  0  0  0  0  0
   58.6560   32.0670   49.6280 C   0  0  0  0  0  0  0  0  0  0  0  0
   58.2730   31.6820   50.9150 C   0  0  0  0  0  0  0  0  0  0  0  0
  1  2  2  0
  2  3  1  0
  3  4  2  0
  4  5  1  0
  5  6  1  0
  6  7  1  0
  7  8  2  0
  7  9  1  0
  9 10  1  0
 10 11  1  0
  3 12  1  0
 12 13  2  0
 13 14  1  0
 13 15  1  0
 15 16  1  0
 16 17  1  0
 17 18  2  0
 18 19  1  0
 19 20  2  0
 20 21  1  0
 21 22  1  0
 22 23  2  0
 22 24  1  0
 24 25  1  0
 25 26  1  0
 26 27  2  0
 27 28  1  0
 28 29  2  0
 29 30  1  0
 30 31  2  0
 20 32  1  0
 32 33  2  0
 15  2  1  0
 33 17  1  0
 10  5  2  0
 31 26  1  0
M  CHG  4   6  -1   9  -1  11  -1  21  -1
M  END
>  <UniqueID>  (1924) 
55

>  <SMILES>  (1924) 
C=c1/c(=C\c2[n-]c(=O)[n-]c2[O-])cc(C)n1Cc1ccc([N-]C(=O)CSc2ccncc2)cc1

>  <Energy>  (1924) 
124.00761549031083

>  <Genealogy>  (1924) 
C=c1c(=Cc2[n-]c(=O)[n-]c2[O-])cc(C)n1Cc1ccc([N-]C(=O)CSc2ccncc2)cc1 (protonated)
C=c1/c(=C\c2[n-]c(=O)[n-]c2[O-])cc(C)n1Cc1ccc([N-]C(=O)CSc2ccncc2)cc1 (cis-trans isomerization)
C=c1/c(=C\c2[n-]c(=O)[n-]c2[O-])cc(C)n1Cc1ccc([N-]C(=O)CSc2ccncc2)cc1 (3D coordinates assigned)
C=c1/c(=C\c2[n-]c(=O)[n-]c2[O-])cc(C)n1Cc1ccc([N-]C(=O)CSc2ccncc2)cc1 (optimized conformer: 124.00761549031083 kcal/mol)

>  <smiles>  (1924) 
C=c1c(=Cc2[nH]c(=O)[nH]c2O)cc(C)n1Cc1ccc(NC(=O)CSc2ccncc2)cc1

>  <score_type>  (1924) 
oracle

>  <origin>  (1924) 
adg

>  <m_score__min__energy>  (1924) 
-18.460000000000001

>  <m_primary>  (1924) 
energy

$$$$
60:0
     RDKit          3D

 28 30  0  0  0  0  0  0  0  0999 V2000
   59.6760   26.9530   48.1010 C   0  0  0  0  0  0  0  0  0  0  0  0
   59.4840   28.0160   47.3040 C   0  0  0  0  0  0  0  0  0  0  0  0
   58.5830   28.1120   46.2300 C   0  0  0  0  0  0  0  0  0  0  0  0
   57.8140   27.1850   45.6280 C   0  0  0  0  0  0  0  0  0  0  0  0
   57.1680   26.0380   46.2870 C   0  0  0  0  0  0  0  0  0  0  0  0
   57.8160   24.9390   46.7160 N   0  0  0  0  0  0  0  0  0  0  0  0
   56.8140   24.1190   47.1030 C   0  0  0  0  0  0  0  0  0  0  0  0
   57.0210   22.9770   47.5870 O   0  0  0  0  0  0  0  0  0  0  0  0
   55.5710   24.6160   46.9190 N   0  0  0  0  0  0  0  0  0  0  0  0
   55.8160   25.8250   46.3880 C   0  0  0  0  0  0  0  0  0  0  0  0
   54.8220   26.7130   45.9970 O   0  0  0  0  0  0  0  0  0  0  0  0
   58.6280   29.4270   45.8060 C   0  0  0  0  0  0  0  0  0  0  0  0
   59.5680   30.0700   46.5810 C   0  0  0  0  0  0  0  0  0  0  0  0
   60.0120   31.4840   46.3580 C   0  0  0  0  0  0  0  0  0  0  0  0
   60.0870   29.2210   47.5010 N   0  0  0  0  0  0  0  0  0  0  0  0
   61.0770   29.5720   48.5340 C   0  0  0  0  0  0  0  0  0  0  0  0
   60.4380   30.2250   49.7780 C   0  0  0  0  0  0  0  0  0  0  0  0
   61.1980   31.4510   50.3140 C   0  0  0  0  0  0  0  0  0  0  0  0
   61.0580   32.6550   49.4240 C   0  0  0  0  0  0  0  0  0  0  0  0
   62.0040   32.9730   48.6510 O   0  0  0  0  0  0  0  0  0  0  0  0
   59.8380   33.4110   49.4150 N   0  0  0  0  0  0  0  0  0  0  0  0
   59.6810   34.6330   48.6310 C   0  0  0  0  0  0  0  0  0  0  0  0
   59.0010   34.3320   47.3240 C   0  0  0  0  0  0  0  0  0  0  0  0
   57.8160   33.5760   47.2910 C   0  0  0  0  0  0  0  0  0  0  0  0
   57.1800   33.3190   46.0730 C   0  0  0  0  0  0  0  0  0  0  0  0
   57.7180   33.8150   44.8810 C   0  0  0  0  0  0  0  0  0  0  0  0
   58.8940   34.5690   44.9080 C   0  0  0  0  0  0  0  0  0  0  0  0
   59.5340   34.8290   46.1240 C   0  0  0  0  0  0  0  0  0  0  0  0
  1  2  2  0
  2  3  1  0
  3  4  2  3
  4  5  1  0
  5  6  1  0
  6  7  1  0
  7  8  2  0
  7  9  1  0
  9 10  1  0
 10 11  1  0
  3 12  1  0
 12 13  2  0
 13 14  1  0
 13 15  1  0
 15 16  1  0
 16 17  1  0
 17 18  1  0
 18 19  1  0
 19 20  2  0
 19 21  1  0
 21 22  1  0
 22 23  1  0
 23 24  2  0
 24 25  1  0
 25 26  2  0
 26 27  1  0
 27 28  2  0
 15  2  1  0
 28 23  1  0
 10  5  2  0
M  CHG  3   6  -1   9  -1  11  -1
M  END
>  <UniqueID>  (1925) 
59

>  <SMILES>  (1925) 
C=c1c(=Cc2[n-]c(=O)[n-]c2[O-])cc(C)n1CCCC(=O)NCc1ccccc1

>  <Energy>  (1925) 
111.10970162077157

>  <Genealogy>  (1925) 
C=c1c(=Cc2[n-]c(=O)[n-]c2[O-])cc(C)n1CCCC(=O)NCc1ccccc1 (protonated)
C=c1c(=Cc2[n-]c(=O)[n-]c2[O-])cc(C)n1CCCC(=O)NCc1ccccc1 (3D coordinates assigned)
C=c1c(=Cc2[n-]c(=O)[n-]c2[O-])cc(C)n1CCCC(=O)NCc1ccccc1 (optimized conformer: 111.10970162077157 kcal/mol)

>  <smiles>  (1925) 
C=c1c(=Cc2[nH]c(=O)[nH]c2O)cc(C)n1CCCC(=O)NCc1ccccc1

>  <score_type>  (1925) 
oracle

>  <origin>  (1925) 
adg

>  <m_score__min__energy>  (1925) 
-16.760000000000002

>  <m_primary>  (1925) 
energy

$$$$
82:0
     RDKit          3D

 32 36  0  0  0  0  0  0  0  0999 V2000
   56.5950   29.3950   44.2010 C   0  0  0  0  0  0  0  0  0  0  0  0
   57.7600   29.1020   44.8010 C   0  0  0  0  0  0  0  0  0  0  0  0
   58.2680   27.8220   45.0460 C   0  0  0  0  0  0  0  0  0  0  0  0
   57.7030   26.6430   44.7190 C   0  0  0  0  0  0  0  0  0  0  0  0
   57.1090   25.7130   45.6980 C   0  0  0  0  0  0  0  0  0  0  0  0
   55.8400   25.7470   46.2430 C   0  0  0  0  0  0  0  0  0  0  0  0
   54.8690   26.7110   45.9950 O   0  0  0  0  0  0  0  0  0  0  0  0
   55.6350   24.6720   47.0280 N   0  0  0  0  0  0  0  0  0  0  0  0
   56.7970   23.9950   46.9180 C   0  0  0  0  0  0  0  0  0  0  0  0
   57.0120   22.9050   47.5100 O   0  0  0  0  0  0  0  0  0  0  0  0
   57.7030   24.5830   46.1130 N   0  0  0  0  0  0  0  0  0  0  0  0
   59.5120   28.0020   45.6360 C   0  0  0  0  0  0  0  0  0  0  0  0
   59.7030   29.3640   45.7490 C   0  0  0  0  0  0  0  0  0  0  0  0
   60.9440   30.0010   46.2970 C   0  0  0  0  0  0  0  0  0  0  0  0
   58.6450   30.0350   45.2370 N   0  0  0  0  0  0  0  0  0  0  0  0
   58.5020   31.4650   45.1810 C   0  0  0  0  0  0  0  0  0  0  0  0
   57.9050   32.0700   44.0670 C   0  0  0  0  0  0  0  0  0  0  0  0
   57.7700   33.4580   44.0090 C   0  0  0  0  0  0  0  0  0  0  0  0
   58.2220   34.2510   45.0670 C   0  0  0  0  0  0  0  0  0  0  0  0
   58.8030   33.6590   46.2020 C   0  0  0  0  0  0  0  0  0  0  0  0
   59.2840   34.5010   47.3170 C   0  0  0  0  0  0  0  0  0  0  0  0
   58.9320   35.7100   47.3780 O   0  0  0  0  0  0  0  0  0  0  0  0
   60.1220   33.9540   48.3490 N   0  0  0  0  0  0  0  0  0  0  0  0
   61.5100   33.6820   48.2260 C   0  0  0  0  0  0  0  0  0  0  0  0
   62.2400   33.5210   47.0420 C   0  0  0  0  0  0  0  0  0  0  0  0
   63.6100   33.2260   47.1370 C   0  0  0  0  0  0  0  0  0  0  0  0
   64.2190   33.0860   48.4000 C   0  0  0  0  0  0  0  0  0  0  0  0
   63.4590   33.2350   49.5710 C   0  0  0  0  0  0  0  0  0  0  0  0
   62.1000   33.5320   49.4500 C   0  0  0  0  0  0  0  0  0  0  0  0
   61.1030   33.7130   50.5390 C   0  0  0  0  0  0  0  0  0  0  0  0
   59.7890   34.0080   49.7760 C   0  0  0  0  0  0  0  0  0  0  0  0
   58.9500   32.2620   46.2440 C   0  0  0  0  0  0  0  0  0  0  0  0
  1  2  2  0
  2  3  1  0
  3  4  2  0
  4  5  1  0
  5  6  2  0
  6  7  1  0
  6  8  1  0
  8  9  1  0
  9 10  2  0
  9 11  1  0
  3 12  1  0
 12 13  2  0
 13 14  1  0
 13 15  1  0
 15 16  1  0
 16 17  2  0
 17 18  1  0
 18 19  2  0
 19 20  1  0
 20 21  1  0
 21 22  2  0
 21 23  1  0
 23 24  1  0
 24 25  2  0
 25 26  1  0
 26 27  2  0
 27 28  1  0
 28 29  2  0
 29 30  1  0
 30 31  1  0
 20 32  2  0
 15  2  1  0
 32 16  1  0
 11  5  1  0
 31 23  1  0
 29 24  1  0
M  CHG  2   7  -1   8  -1
M  END
>  <UniqueID>  (1926) 
80

>  <SMILES>  (1926) 
C=c1/c(=C/c2[nH]c(=O)[n-]c2[O-])cc(C)n1-c1cccc(C(=O)N2CCc3ccccc32)c1

>  <Energy>  (1926) 
149.80770332553882

>  <Genealogy>  (1926) 
C=c1c(=Cc2[nH]c(=O)[n-]c2[O-])cc(C)n1-c1cccc(C(=O)N2CCc3ccccc32)c1 (protonated)
C=c1/c(=C/c2[nH]c(=O)[n-]c2[O-])cc(C)n1-c1cccc(C(=O)N2CCc3ccccc32)c1 (cis-trans isomerization)
C=c1/c(=C/c2[nH]c(=O)[n-]c2[O-])cc(C)n1-c1cccc(C(=O)N2CCc3ccccc32)c1 (3D coordinates assigned)
C=c1/c(=C/c2[nH]c(=O)[n-]c2[O-])cc(C)n1-c1cccc(C(=O)N2CCc3ccccc32)c1 (nonaromatic ring conformer: 149.80770332553882 kcal/mol)

>  <smiles>  (1926) 
C=c1c(=Cc2[nH]c(=O)[nH]c2O)cc(C)n1-c1cccc(C(=O)N2CCc3ccccc32)c1

>  <score_type>  (1926) 
oracle

>  <origin>  (1926) 
adg

>  <m_score__min__energy>  (1926) 
-16.629999999999999

>  <m_primary>  (1926) 
energy

$$$$
84:0
     RDKit          3D

 25 27  0  0  0  0  0  0  0  0999 V2000
   57.3360   29.9350   43.7060 O   0  0  0  0  0  0  0  0  0  0  0  0
   58.0730   29.3450   44.5420 C   0  0  0  0  0  0  0  0  0  0  0  0
   58.3440   27.8800   44.3780 C   0  0  0  0  0  0  0  0  0  0  0  0
   57.4290   27.0850   45.2570 C   0  0  0  0  0  0  0  0  0  0  0  0
   57.7770   25.5640   45.8940 S   0  0  0  0  0  0  0  0  0  0  0  0
   56.2660   25.4320   46.6190 C   0  0  0  0  0  0  0  0  0  0  0  0
   55.8920   24.4450   47.3020 O   0  0  0  0  0  0  0  0  0  0  0  0
   55.4830   26.5070   46.3900 N   0  0  0  0  0  0  0  0  0  0  0  0
   56.1300   27.4250   45.6240 C   0  0  0  0  0  0  0  0  0  0  0  0
   55.5220   28.6170   45.2450 O   0  0  0  0  0  0  0  0  0  0  0  0
   58.6080   30.0530   45.6700 N   0  0  0  0  0  0  0  0  0  0  0  0
   58.4160   31.4630   45.8670 C   0  0  0  0  0  0  0  0  0  0  0  0
   57.3700   32.1000   45.1840 C   0  0  0  0  0  0  0  0  0  0  0  0
   57.1490   33.4690   45.3430 C   0  0  0  0  0  0  0  0  0  0  0  0
   57.9580   34.2120   46.2040 C   0  0  0  0  0  0  0  0  0  0  0  0
   58.9850   33.5870   46.9130 C   0  0  0  0  0  0  0  0  0  0  0  0
   59.2300   32.2110   46.7530 C   0  0  0  0  0  0  0  0  0  0  0  0
   60.2610   31.5620   47.5950 C   0  0  0  0  0  0  0  0  0  0  0  0
   59.9980   30.4480   48.1250 O   0  0  0  0  0  0  0  0  0  0  0  0
   61.5480   32.1760   47.8250 N   0  0  0  0  0  0  0  0  0  0  0  0
   62.3750   31.7230   48.9530 C   0  0  0  0  0  0  0  0  0  0  0  0
   63.2760   32.8630   49.4400 C   0  0  0  0  0  0  0  0  0  0  0  0
   64.1560   33.4480   48.3160 C   0  0  0  0  0  0  0  0  0  0  0  0
   63.6380   33.1360   46.9030 C   0  0  0  0  0  0  0  0  0  0  0  0
   62.1070   33.1300   46.8490 C   0  0  0  0  0  0  0  0  0  0  0  0
  1  2  2  0
  2  3  1  0
  3  4  1  0
  4  5  1  0
  5  6  1  0
  6  7  2  0
  6  8  1  0
  8  9  1  0
  9 10  1  0
  2 11  1  0
 11 12  1  0
 12 13  2  0
 13 14  1  0
 14 15  2  0
 15 16  1  0
 16 17  2  0
 17 18  1  0
 18 19  2  0
 18 20  1  0
 20 21  1  0
 21 22  1  0
 22 23  1  0
 23 24  1  0
 24 25  1  0
  9  4  2  0
 17 12  1  0
 25 20  1  0
M  CHG  2   8  -1  10  -1
M  END
>  <UniqueID>  (1927) 
82

>  <SMILES>  (1927) 
O=C(Cc1sc(=O)[n-]c1[O-])Nc1ccccc1C(=O)N1CCCCC1

>  <Energy>  (1927) 
82.8819862292696

>  <Genealogy>  (1927) 
O=C(Cc1sc(=O)[n-]c1[O-])Nc1ccccc1C(=O)N1CCCCC1 (protonated)
O=C(Cc1sc(=O)[n-]c1[O-])Nc1ccccc1C(=O)N1CCCCC1 (3D coordinates assigned)
O=C(Cc1sc(=O)[n-]c1[O-])Nc1ccccc1C(=O)N1CCCCC1 (nonaromatic ring conformer: 82.8819862292696 kcal/mol)

>  <smiles>  (1927) 
O=C(Cc1sc(=O)[nH]c1O)Nc1ccccc1C(=O)N1CCCCC1

>  <score_type>  (1927) 
oracle

>  <origin>  (1927) 
adg

>  <m_score__min__energy>  (1927) 
-14.470000000000001

>  <m_primary>  (1927) 
energy

$$$$
87:0
     RDKit          3D

 25 27  0  0  0  0  0  0  0  0999 V2000
   59.2600   23.3820   45.5740 C   0  0  0  0  0  0  0  0  0  0  0  0
   58.0760   22.7620   45.5420 C   0  0  0  0  0  0  0  0  0  0  0  0
   56.8690   23.2100   46.0870 C   0  0  0  0  0  0  0  0  0  0  0  0
   56.6640   24.3360   46.7960 C   0  0  0  0  0  0  0  0  0  0  0  0
   57.0710   25.6780   46.3440 C   0  0  0  0  0  0  0  0  0  0  0  0
   58.3570   26.0100   46.1170 N   0  0  0  0  0  0  0  0  0  0  0  0
   58.3400   27.2780   45.6500 C   0  0  0  0  0  0  0  0  0  0  0  0
   59.5890   28.0130   45.2820 C   0  0  0  0  0  0  0  0  0  0  0  0
   57.0370   27.7580   45.5540 C   0  0  0  0  0  0  0  0  0  0  0  0
   56.5730   29.0750   45.0690 C   0  0  0  0  0  0  0  0  0  0  0  0
   55.3440   29.3500   45.1020 O   0  0  0  0  0  0  0  0  0  0  0  0
   57.5190   30.0510   44.6170 N   0  0  0  0  0  0  0  0  0  0  0  0
   57.6860   31.3830   45.1260 C   0  0  0  0  0  0  0  0  0  0  0  0
   57.4420   32.5210   44.3360 C   0  0  0  0  0  0  0  0  0  0  0  0
   57.6420   33.8000   44.8640 C   0  0  0  0  0  0  0  0  0  0  0  0
   58.0970   33.9530   46.1760 C   0  0  0  0  0  0  0  0  0  0  0  0
   58.3620   32.8270   46.9600 C   0  0  0  0  0  0  0  0  0  0  0  0
   58.8170   32.9750   48.2280 F   0  0  0  0  0  0  0  0  0  0  0  0
   58.1640   31.5470   46.4330 C   0  0  0  0  0  0  0  0  0  0  0  0
   56.2390   26.7200   45.9840 C   0  0  0  0  0  0  0  0  0  0  0  0
   54.8490   26.7040   45.9990 O   0  0  0  0  0  0  0  0  0  0  0  0
   55.9290   22.2290   45.7960 C   0  0  0  0  0  0  0  0  0  0  0  0
   56.5990   21.2440   45.0940 C   0  0  0  0  0  0  0  0  0  0  0  0
   55.9830   19.9990   44.5430 C   0  0  0  0  0  0  0  0  0  0  0  0
   57.8940   21.5710   44.9350 N   0  0  0  0  0  0  0  0  0  0  0  0
  1  2  2  0
  2  3  1  0
  3  4  2  0
  4  5  1  0
  5  6  1  0
  6  7  1  0
  7  8  1  0
  7  9  2  0
  9 10  1  0
 10 11  2  0
 10 12  1  0
 12 13  1  0
 13 14  2  0
 14 15  1  0
 15 16  2  0
 16 17  1  0
 17 18  1  0
 17 19  2  0
  9 20  1  0
 20 21  1  0
  3 22  1  0
 22 23  2  0
 23 24  1  0
 23 25  1  0
 25  2  1  0
 20  5  2  0
 19 13  1  0
M  CHG  3   6  -1  12  -1  21  -1
M  END
>  <UniqueID>  (1928) 
85

>  <SMILES>  (1928) 
C=c1[nH]c(C)c/c1=C\c1[n-]c(C)c(C(=O)[N-]c2cccc(F)c2)c1[O-]

>  <Energy>  (1928) 
104.34165155248773

>  <Genealogy>  (1928) 
C=c1[nH]c(C)cc1=Cc1[n-]c(C)c(C(=O)[N-]c2cccc(F)c2)c1[O-] (protonated)
C=c1[nH]c(C)c/c1=C\c1[n-]c(C)c(C(=O)[N-]c2cccc(F)c2)c1[O-] (cis-trans isomerization)
C=c1[nH]c(C)c/c1=C\c1[n-]c(C)c(C(=O)[N-]c2cccc(F)c2)c1[O-] (3D coordinates assigned)
C=c1[nH]c(C)c/c1=C\c1[n-]c(C)c(C(=O)[N-]c2cccc(F)c2)c1[O-] (optimized conformer: 104.34165155248773 kcal/mol)

>  <smiles>  (1928) 
C=c1[nH]c(C)cc1=Cc1[nH]c(C)c(C(=O)Nc2cccc(F)c2)c1O

>  <score_type>  (1928) 
oracle

>  <origin>  (1928) 
adg

>  <m_score__min__energy>  (1928) 
-14.609999999999999

>  <m_primary>  (1928) 
energy

$$$$
93:0
     RDKit          3D

 27 29  0  0  0  0  0  0  0  0999 V2000
   54.7030   26.3310   45.9960 N   0  0  0  0  0  0  0  0  0  0  0  0
   55.9800   25.1690   46.0560 S   0  0  0  0  0  0  0  0  0  0  0  0
   55.9840   24.3660   44.7850 O   0  0  0  0  0  0  0  0  0  0  0  0
   55.7590   24.2360   47.2140 O   0  0  0  0  0  0  0  0  0  0  0  0
   57.5210   25.9970   46.2460 C   0  0  0  0  0  0  0  0  0  0  0  0
   58.7250   25.2910   46.1210 C   0  0  0  0  0  0  0  0  0  0  0  0
   59.9460   25.9560   46.2530 C   0  0  0  0  0  0  0  0  0  0  0  0
   59.9730   27.3290   46.5080 C   0  0  0  0  0  0  0  0  0  0  0  0
   58.7750   28.0510   46.6370 C   0  0  0  0  0  0  0  0  0  0  0  0
   58.8060   29.5120   46.8930 C   0  0  0  0  0  0  0  0  0  0  0  0
   58.7670   30.4040   45.8230 C   0  0  0  0  0  0  0  0  0  0  0  0
   58.7730   31.7380   46.0470 N   0  0  0  0  0  0  0  0  0  0  0  0
   58.8210   32.2960   47.2850 C   0  0  0  0  0  0  0  0  0  0  0  0
   58.7940   33.6050   47.3200 N   0  0  0  0  0  0  0  0  0  0  0  0
   59.7800   34.6480   47.6060 C   0  0  0  0  0  0  0  0  0  0  0  0
   61.1760   34.0870   47.7620 C   0  0  0  0  0  0  0  0  0  0  0  0
   61.7780   33.9190   49.0260 C   0  0  0  0  0  0  0  0  0  0  0  0
   61.0890   34.2310   50.1930 O   0  0  0  0  0  0  0  0  0  0  0  0
   63.0540   33.4570   49.1180 N   0  0  0  0  0  0  0  0  0  0  0  0
   63.7940   33.1670   48.0160 C   0  0  0  0  0  0  0  0  0  0  0  0
   63.2570   33.3580   46.7450 C   0  0  0  0  0  0  0  0  0  0  0  0
   61.9520   33.8330   46.6190 C   0  0  0  0  0  0  0  0  0  0  0  0
   58.8960   31.4290   48.4230 C   0  0  0  0  0  0  0  0  0  0  0  0
   59.0520   31.9180   49.8430 C   0  0  0  0  0  0  0  0  0  0  0  0
   58.8880   30.0290   48.1970 C   0  0  0  0  0  0  0  0  0  0  0  0
   58.9910   29.1430   49.2680 O   0  0  0  0  0  0  0  0  0  0  0  0
   57.5500   27.3770   46.4930 C   0  0  0  0  0  0  0  0  0  0  0  0
  1  2  1  0
  2  3  2  0
  2  4  2  0
  2  5  1  0
  5  6  2  0
  6  7  1  0
  7  8  2  0
  8  9  1  0
  9 10  1  0
 10 11  2  0
 11 12  1  0
 12 13  1  0
 13 14  2  0
 14 15  1  0
 15 16  1  0
 16 17  2  0
 17 18  1  0
 17 19  1  0
 19 20  2  0
 20 21  1  0
 21 22  2  0
 13 23  1  0
 23 24  1  0
 23 25  2  0
 25 26  1  0
  9 27  2  0
 27  5  1  0
 25 10  1  0
 22 16  1  0
M  CHG  4   1  -1  12  -1  18  -1  26  -1
M  END
>  <UniqueID>  (1929) 
90

>  <SMILES>  (1929) 
Cc1c([O-])c(-c2cccc(S([NH-])(=O)=O)c2)c[n-]/c1=N/Cc1cccnc1[O-]

>  <Energy>  (1929) 
67.45136553007063

>  <Genealogy>  (1929) 
Cc1c([O-])c(-c2cccc(S([NH-])(=O)=O)c2)c[n-]c1=NCc1cccnc1[O-] (protonated)
Cc1c([O-])c(-c2cccc(S([NH-])(=O)=O)c2)c[n-]/c1=N/Cc1cccnc1[O-] (cis-trans isomerization)
Cc1c([O-])c(-c2cccc(S([NH-])(=O)=O)c2)c[n-]/c1=N/Cc1cccnc1[O-] (3D coordinates assigned)
Cc1c([O-])c(-c2cccc(S([NH-])(=O)=O)c2)c[n-]/c1=N/Cc1cccnc1[O-] (optimized conformer: 67.45136553007063 kcal/mol)

>  <smiles>  (1929) 
Cc1c(O)c(-c2cccc(S(N)(=O)=O)c2)c[nH]c1=NCc1cccnc1O

>  <score_type>  (1929) 
oracle

>  <origin>  (1929) 
adg

>  <m_score__min__energy>  (1929) 
-16.039999999999999

>  <m_primary>  (1929) 
energy

$$$$
6:0
     RDKit          3D

 23 25  0  0  0  0  0  0  0  0999 V2000
   58.0520   32.2220   50.2800 C   0  0  0  0  0  0  0  0  0  0  0  0
   57.6330   30.9330   51.4330 S   0  0  0  0  0  0  0  0  0  0  0  0
   58.3080   31.2220   52.7430 O   0  0  0  0  0  0  0  0  0  0  0  0
   58.1060   29.5990   50.9280 O   0  0  0  0  0  0  0  0  0  0  0  0
   55.9180   30.8980   51.6870 N   0  0  0  0  0  0  0  0  0  0  0  0
   55.1960   29.9150   52.4450 C   0  0  0  0  0  0  0  0  0  0  0  0
   55.7700   29.2730   53.5590 C   0  0  0  0  0  0  0  0  0  0  0  0
   55.0400   28.3260   54.2840 C   0  0  0  0  0  0  0  0  0  0  0  0
   55.6010   27.7070   55.3580 N   0  0  0  0  0  0  0  0  0  0  0  0
   54.9200   26.7820   56.0860 C   0  0  0  0  0  0  0  0  0  0  0  0
   53.6100   26.4430   55.7410 C   0  0  0  0  0  0  0  0  0  0  0  0
   53.0060   27.0610   54.6440 C   0  0  0  0  0  0  0  0  0  0  0  0
   53.7180   28.0120   53.9030 C   0  0  0  0  0  0  0  0  0  0  0  0
   53.1440   28.6510   52.7970 C   0  0  0  0  0  0  0  0  0  0  0  0
   53.8790   29.5940   52.0660 C   0  0  0  0  0  0  0  0  0  0  0  0
   53.1160   30.3720   50.6380 S   0  0  0  0  0  0  0  0  0  0  0  0
   51.9760   31.3170   51.6470 C   0  0  0  0  0  0  0  0  0  0  0  0
   51.7920   31.1440   53.3110 S   0  0  0  0  0  0  0  0  0  0  0  0
   50.6070   32.3380   53.3760 C   0  0  0  0  0  0  0  0  0  0  0  0
   50.0250   32.6990   54.4310 O   0  0  0  0  0  0  0  0  0  0  0  0
   50.3420   32.8780   52.1680 N   0  0  0  0  0  0  0  0  0  0  0  0
   51.1080   32.3080   51.2030 C   0  0  0  0  0  0  0  0  0  0  0  0
   51.0260   32.7030   49.8740 O   0  0  0  0  0  0  0  0  0  0  0  0
  1  2  1  0
  2  3  2  0
  2  4  2  0
  2  5  1  0
  5  6  1  0
  6  7  2  0
  7  8  1  0
  8  9  2  0
  9 10  1  0
 10 11  2  0
 11 12  1  0
 12 13  2  0
 13 14  1  0
 14 15  2  0
 15 16  1  0
 16 17  1  0
 17 18  1  0
 18 19  1  0
 19 20  2  0
 19 21  1  0
 21 22  1  0
 22 23  1  0
 15  6  1  0
 22 17  2  0
 13  8  1  0
M  CHG  3   5  -1  21  -1  23  -1
M  END
>  <UniqueID>  (1930) 
7

>  <SMILES>  (1930) 
CS(=O)(=O)[N-]c1cc2ncccc2cc1Sc1sc(=O)[n-]c1[O-]

>  <Energy>  (1930) 
62.942237179349256

>  <Genealogy>  (1930) 
CS(=O)(=O)[N-]c1cc2ncccc2cc1Sc1sc(=O)[n-]c1[O-] (protonated)
CS(=O)(=O)[N-]c1cc2ncccc2cc1Sc1sc(=O)[n-]c1[O-] (3D coordinates assigned)
CS(=O)(=O)[N-]c1cc2ncccc2cc1Sc1sc(=O)[n-]c1[O-] (optimized conformer: 62.942237179349256 kcal/mol)

>  <smiles>  (1930) 
CS(=O)(=O)Nc1cc2ncccc2cc1Sc1sc(=O)[nH]c1O

>  <score_type>  (1930) 
oracle

>  <origin>  (1930) 
adg

>  <m_score__min__energy>  (1930) 
-15.050000000000001

>  <m_primary>  (1930) 
energy

$$$$
25:0
     RDKit          3D

 28 30  0  0  0  0  0  0  0  0999 V2000
   63.7160   33.7740   47.5940 C   0  0  0  0  0  0  0  0  0  0  0  0
   63.8870   33.1900   48.9930 C   0  0  0  0  0  0  0  0  0  0  0  0
   63.3400   31.8730   49.0620 O   0  0  0  0  0  0  0  0  0  0  0  0
   62.1380   31.4540   48.4650 C   0  0  0  0  0  0  0  0  0  0  0  0
   62.1910   30.9530   47.1590 C   0  0  0  0  0  0  0  0  0  0  0  0
   61.0280   30.5230   46.5140 C   0  0  0  0  0  0  0  0  0  0  0  0
   59.7900   30.5910   47.1690 C   0  0  0  0  0  0  0  0  0  0  0  0
   58.5890   30.1440   46.5050 N   0  0  0  0  0  0  0  0  0  0  0  0
   57.7930   31.0470   45.8540 C   0  0  0  0  0  0  0  0  0  0  0  0
   58.1020   32.2680   45.8130 O   0  0  0  0  0  0  0  0  0  0  0  0
   56.6630   30.6350   45.2290 N   0  0  0  0  0  0  0  0  0  0  0  0
   56.2870   29.3340   45.2230 C   0  0  0  0  0  0  0  0  0  0  0  0
   55.1250   28.9780   44.5470 O   0  0  0  0  0  0  0  0  0  0  0  0
   57.0740   28.3690   45.8760 C   0  0  0  0  0  0  0  0  0  0  0  0
   56.6790   26.9340   45.8790 C   0  0  0  0  0  0  0  0  0  0  0  0
   55.5390   26.5940   46.2960 O   0  0  0  0  0  0  0  0  0  0  0  0
   57.5710   25.9410   45.3540 N   0  0  0  0  0  0  0  0  0  0  0  0
   57.4070   24.5170   45.4290 C   0  0  0  0  0  0  0  0  0  0  0  0
   57.2450   23.7950   44.2380 C   0  0  0  0  0  0  0  0  0  0  0  0
   57.1020   22.4050   44.2650 C   0  0  0  0  0  0  0  0  0  0  0  0
   57.1380   21.7220   45.4840 C   0  0  0  0  0  0  0  0  0  0  0  0
   57.3270   22.4280   46.6750 C   0  0  0  0  0  0  0  0  0  0  0  0
   57.3820   21.7460   47.8840 O   0  0  0  0  0  0  0  0  0  0  0  0
   57.4670   23.8210   46.6510 C   0  0  0  0  0  0  0  0  0  0  0  0
   58.2430   28.8160   46.5300 C   0  0  0  0  0  0  0  0  0  0  0  0
   58.9610   27.9940   47.1670 O   0  0  0  0  0  0  0  0  0  0  0  0
   59.7310   31.0950   48.4770 C   0  0  0  0  0  0  0  0  0  0  0  0
   60.8940   31.5250   49.1220 C   0  0  0  0  0  0  0  0  0  0  0  0
  1  2  1  0
  2  3  1  0
  3  4  1  0
  4  5  2  0
  5  6  1  0
  6  7  2  0
  7  8  1  0
  8  9  1  0
  9 10  2  0
  9 11  1  0
 11 12  1  0
 12 13  1  0
 12 14  2  0
 14 15  1  0
 15 16  2  0
 15 17  1  0
 17 18  1  0
 18 19  2  0
 19 20  1  0
 20 21  2  0
 21 22  1  0
 22 23  1  0
 22 24  2  0
 14 25  1  0
 25 26  2  0
  7 27  1  0
 27 28  2  0
 28  4  1  0
 25  8  1  0
 24 18  1  0
M  CHG  4  11  -1  13  -1  17  -1  23  -1
M  END
>  <UniqueID>  (1931) 
24

>  <SMILES>  (1931) 
CCOc1ccc(-n2c(=O)[n-]c([O-])c(C(=O)[N-]c3cccc([O-])c3)c2=O)cc1

>  <Energy>  (1931) 
61.16936205328815

>  <Genealogy>  (1931) 
CCOc1ccc(-n2c(=O)[n-]c([O-])c(C(=O)[N-]c3cccc([O-])c3)c2=O)cc1 (protonated)
CCOc1ccc(-n2c(=O)[n-]c([O-])c(C(=O)[N-]c3cccc([O-])c3)c2=O)cc1 (3D coordinates assigned)
CCOc1ccc(-n2c(=O)[n-]c([O-])c(C(=O)[N-]c3cccc([O-])c3)c2=O)cc1 (optimized conformer: 61.16936205328815 kcal/mol)

>  <smiles>  (1931) 
CCOc1ccc(-n2c(=O)[nH]c(O)c(C(=O)Nc3cccc(O)c3)c2=O)cc1

>  <score_type>  (1931) 
oracle

>  <origin>  (1931) 
adg

>  <m_score__min__energy>  (1931) 
-15.93

>  <m_primary>  (1931) 
energy

$$$$
27:0
     RDKit          3D

 34 37  0  0  0  0  0  0  0  0999 V2000
   59.0510   30.1100   47.8790 O   0  0  0  0  0  0  0  0  0  0  0  0
   58.5140   29.2450   47.1370 C   0  0  0  0  0  0  0  0  0  0  0  0
   58.3730   29.5160   45.6730 C   0  0  0  0  0  0  0  0  0  0  0  0
   58.3070   30.9580   45.4380 N   0  0  0  0  0  0  0  0  0  0  0  0
   59.2060   31.9010   45.7780 C   0  0  0  0  0  0  0  0  0  0  0  0
   60.4430   31.6650   46.3760 O   0  0  0  0  0  0  0  0  0  0  0  0
   58.7020   33.1380   45.4420 C   0  0  0  0  0  0  0  0  0  0  0  0
   59.4040   34.4560   45.5840 C   0  0  0  0  0  0  0  0  0  0  0  0
   59.7760   34.7440   47.0440 C   0  0  0  0  0  0  0  0  0  0  0  0
   61.1260   34.1730   47.3990 C   0  0  0  0  0  0  0  0  0  0  0  0
   62.0980   33.9760   46.4040 C   0  0  0  0  0  0  0  0  0  0  0  0
   63.3630   33.4850   46.7420 C   0  0  0  0  0  0  0  0  0  0  0  0
   63.6680   33.1960   48.0750 C   0  0  0  0  0  0  0  0  0  0  0  0
   62.7090   33.3960   49.0720 C   0  0  0  0  0  0  0  0  0  0  0  0
   61.4420   33.8860   48.7360 C   0  0  0  0  0  0  0  0  0  0  0  0
   57.4790   32.9930   44.8880 N   0  0  0  0  0  0  0  0  0  0  0  0
   57.2750   31.6570   44.9170 C   0  0  0  0  0  0  0  0  0  0  0  0
   56.2150   31.1210   44.4980 O   0  0  0  0  0  0  0  0  0  0  0  0
   58.1410   27.9610   47.6540 N   0  0  0  0  0  0  0  0  0  0  0  0
   58.4560   26.6870   47.0760 C   0  0  0  0  0  0  0  0  0  0  0  0
   59.7140   26.4150   46.5080 C   0  0  0  0  0  0  0  0  0  0  0  0
   59.9840   25.1550   45.9690 C   0  0  0  0  0  0  0  0  0  0  0  0
   59.0090   24.1560   45.9970 C   0  0  0  0  0  0  0  0  0  0  0  0
   57.7580   24.4080   46.5780 C   0  0  0  0  0  0  0  0  0  0  0  0
   56.5370   23.1390   46.6410 S   0  0  0  0  0  0  0  0  0  0  0  0
   57.0040   22.0580   47.5770 O   0  0  0  0  0  0  0  0  0  0  0  0
   55.2500   23.7070   47.1760 O   0  0  0  0  0  0  0  0  0  0  0  0
   56.2880   22.4680   45.0480 N   0  0  0  0  0  0  0  0  0  0  0  0
   57.3480   21.4880   44.7420 C   0  0  0  0  0  0  0  0  0  0  0  0
   57.3690   21.1440   43.2400 C   0  0  0  0  0  0  0  0  0  0  0  0
   56.1680   21.5460   42.6130 O   0  0  0  0  0  0  0  0  0  0  0  0
   56.0630   22.9610   42.6390 C   0  0  0  0  0  0  0  0  0  0  0  0
   56.2870   23.5470   44.0490 C   0  0  0  0  0  0  0  0  0  0  0  0
   57.4930   25.6700   47.1290 C   0  0  0  0  0  0  0  0  0  0  0  0
  1  2  2  0
  2  3  1  0
  3  4  1  0
  4  5  1  0
  5  6  1  0
  5  7  2  0
  7  8  1  0
  8  9  1  0
  9 10  1  0
 10 11  2  0
 11 12  1  0
 12 13  2  0
 13 14  1  0
 14 15  2  0
  7 16  1  0
 16 17  1  0
 17 18  2  0
  2 19  1  0
 19 20  1  0
 20 21  2  0
 21 22  1  0
 22 23  2  0
 23 24  1  0
 24 25  1  0
 25 26  2  0
 25 27  2  0
 25 28  1  0
 28 29  1  0
 29 30  1  0
 30 31  1  0
 31 32  1  0
 32 33  1  0
 24 34  2  0
 17  4  1  0
 34 20  1  0
 15 10  1  0
 33 28  1  0
M  CHG  2  16  -1  19  -1
M  END
>  <UniqueID>  (1932) 
26

>  <SMILES>  (1932) 
O=C(Cn1c(O)c(CCc2ccccc2)[n-]c1=O)[N-]c1cccc(S(=O)(=O)N2CCOCC2)c1

>  <Energy>  (1932) 
97.3548701015984

>  <Genealogy>  (1932) 
O=C(Cn1c(O)c(CCc2ccccc2)[n-]c1=O)[N-]c1cccc(S(=O)(=O)N2CCOCC2)c1 (protonated)
O=C(Cn1c(O)c(CCc2ccccc2)[n-]c1=O)[N-]c1cccc(S(=O)(=O)N2CCOCC2)c1 (3D coordinates assigned)
O=C(Cn1c(O)c(CCc2ccccc2)[n-]c1=O)[N-]c1cccc(S(=O)(=O)N2CCOCC2)c1 (nonaromatic ring conformer: 97.3548701015984 kcal/mol)

>  <smiles>  (1932) 
O=C(Cn1c(O)c(CCc2ccccc2)[nH]c1=O)Nc1cccc(S(=O)(=O)N2CCOCC2)c1

>  <score_type>  (1932) 
oracle

>  <origin>  (1932) 
adg

>  <m_score__min__energy>  (1932) 
-14.119999999999999

>  <m_primary>  (1932) 
energy

$$$$
36:0
     RDKit          3D

 30 33  0  0  0  0  0  0  0  0999 V2000
   59.3650   28.7790   48.5850 C   0  0  0  0  0  0  0  0  0  0  0  0
   58.8590   29.6280   47.6780 C   0  0  0  0  0  0  0  0  0  0  0  0
   58.4820   29.3470   46.3530 C   0  0  0  0  0  0  0  0  0  0  0  0
   58.3880   28.1810   45.6860 C   0  0  0  0  0  0  0  0  0  0  0  0
   57.3900   27.1250   45.9370 C   0  0  0  0  0  0  0  0  0  0  0  0
   56.0230   27.3450   45.6970 C   0  0  0  0  0  0  0  0  0  0  0  0
   55.5700   28.5810   45.2490 O   0  0  0  0  0  0  0  0  0  0  0  0
   55.1300   26.3410   45.8980 N   0  0  0  0  0  0  0  0  0  0  0  0
   55.5370   25.1140   46.3120 C   0  0  0  0  0  0  0  0  0  0  0  0
   54.6920   24.2000   46.4940 O   0  0  0  0  0  0  0  0  0  0  0  0
   56.8570   24.8710   46.5250 N   0  0  0  0  0  0  0  0  0  0  0  0
   57.7880   25.8410   46.3400 C   0  0  0  0  0  0  0  0  0  0  0  0
   59.0040   25.5790   46.5400 O   0  0  0  0  0  0  0  0  0  0  0  0
   58.1670   30.5670   45.7720 C   0  0  0  0  0  0  0  0  0  0  0  0
   58.3220   31.5290   46.7490 C   0  0  0  0  0  0  0  0  0  0  0  0
   57.9600   32.9740   46.5880 C   0  0  0  0  0  0  0  0  0  0  0  0
   58.7370   30.9620   47.9010 N   0  0  0  0  0  0  0  0  0  0  0  0
   58.9720   31.6550   49.1390 C   0  0  0  0  0  0  0  0  0  0  0  0
   57.9270   31.7640   50.0670 C   0  0  0  0  0  0  0  0  0  0  0  0
   58.1130   32.4610   51.2630 C   0  0  0  0  0  0  0  0  0  0  0  0
   59.3450   33.0560   51.5390 C   0  0  0  0  0  0  0  0  0  0  0  0
   60.3950   32.9510   50.6240 C   0  0  0  0  0  0  0  0  0  0  0  0
   60.2240   32.2500   49.4180 C   0  0  0  0  0  0  0  0  0  0  0  0
   61.3330   32.1190   48.5070 N   0  0  0  0  0  0  0  0  0  0  0  0
   61.3000   32.7870   47.2000 C   0  0  0  0  0  0  0  0  0  0  0  0
   62.3790   33.8820   47.1170 C   0  0  0  0  0  0  0  0  0  0  0  0
   63.6360   33.5750   47.9680 C   0  0  0  0  0  0  0  0  0  0  0  0
   63.5430   34.2500   49.1980 O   0  0  0  0  0  0  0  0  0  0  0  0
   63.8000   32.0630   48.2080 C   0  0  0  0  0  0  0  0  0  0  0  0
   62.5850   31.4930   48.9590 C   0  0  0  0  0  0  0  0  0  0  0  0
  1  2  2  0
  2  3  1  0
  3  4  2  3
  4  5  1  0
  5  6  2  0
  6  7  1  0
  6  8  1  0
  8  9  1  0
  9 10  2  0
  9 11  1  0
 11 12  1  0
 12 13  2  0
  3 14  1  0
 14 15  2  0
 15 16  1  0
 15 17  1  0
 17 18  1  0
 18 19  2  0
 19 20  1  0
 20 21  2  0
 21 22  1  0
 22 23  2  0
 23 24  1  0
 24 25  1  0
 25 26  1  0
 26 27  1  0
 27 28  1  0
 27 29  1  0
 29 30  1  0
 17  2  1  0
 23 18  1  0
 30 24  1  0
 12  5  1  0
M  CHG  3   7  -1   8  -1  11  -1
M  END
>  <UniqueID>  (1933) 
34

>  <SMILES>  (1933) 
C=c1c(=Cc2c([O-])[n-]c(=O)[n-]c2=O)cc(C)n1-c1ccccc1N1CCC(O)CC1

>  <Energy>  (1933) 
109.20066923846645

>  <Genealogy>  (1933) 
C=c1c(=Cc2c([O-])[n-]c(=O)[n-]c2=O)cc(C)n1-c1ccccc1N1CCC(O)CC1 (protonated)
C=c1c(=Cc2c([O-])[n-]c(=O)[n-]c2=O)cc(C)n1-c1ccccc1N1CCC(O)CC1 (3D coordinates assigned)
C=c1c(=Cc2c([O-])[n-]c(=O)[n-]c2=O)cc(C)n1-c1ccccc1N1CCC(O)CC1 (nonaromatic ring conformer: 109.20066923846645 kcal/mol)

>  <smiles>  (1933) 
C=c1c(=Cc2c(O)[nH]c(=O)[nH]c2=O)cc(C)n1-c1ccccc1N1CCC(O)CC1

>  <score_type>  (1933) 
oracle

>  <origin>  (1933) 
adg

>  <m_score__min__energy>  (1933) 
-16.219999999999999

>  <m_primary>  (1933) 
energy

$$$$
57:0
     RDKit          3D

 36 39  0  0  0  0  0  0  0  0999 V2000
   54.3590   28.3560   52.7370 C   0  0  0  0  0  0  0  0  0  0  0  0
   55.0480   29.4950   52.5530 C   0  0  0  0  0  0  0  0  0  0  0  0
   54.5940   30.6620   51.9150 C   0  0  0  0  0  0  0  0  0  0  0  0
   53.4650   30.9200   51.2260 C   0  0  0  0  0  0  0  0  0  0  0  0
   52.2200   31.4650   51.7840 C   0  0  0  0  0  0  0  0  0  0  0  0
   51.8440   31.2920   53.0630 N   0  0  0  0  0  0  0  0  0  0  0  0
   50.7230   32.0380   53.1630 C   0  0  0  0  0  0  0  0  0  0  0  0
   50.0580   32.1220   54.2280 O   0  0  0  0  0  0  0  0  0  0  0  0
   50.3780   32.6990   52.0360 N   0  0  0  0  0  0  0  0  0  0  0  0
   51.3440   32.3400   51.1740 C   0  0  0  0  0  0  0  0  0  0  0  0
   51.4250   32.8250   49.8710 O   0  0  0  0  0  0  0  0  0  0  0  0
   55.5920   31.6030   52.0750 C   0  0  0  0  0  0  0  0  0  0  0  0
   56.6250   30.9860   52.7480 C   0  0  0  0  0  0  0  0  0  0  0  0
   57.9080   31.6500   53.0490 C   0  0  0  0  0  0  0  0  0  0  0  0
   58.0380   32.2980   54.1210 O   0  0  0  0  0  0  0  0  0  0  0  0
   58.9770   31.6440   52.0870 N   0  0  0  0  0  0  0  0  0  0  0  0
   59.7560   32.8710   51.8740 C   0  0  0  0  0  0  0  0  0  0  0  0
   60.7210   32.7290   50.6910 C   0  0  0  0  0  0  0  0  0  0  0  0
   60.0590   32.0200   49.5880 N   0  0  0  0  0  0  0  0  0  0  0  0
   60.2690   32.4550   48.2340 C   0  0  0  0  0  0  0  0  0  0  0  0
   61.4280   32.7860   47.8650 O   0  0  0  0  0  0  0  0  0  0  0  0
   59.1460   32.5310   47.2720 C   0  0  0  0  0  0  0  0  0  0  0  0
   58.3720   33.6980   47.1820 C   0  0  0  0  0  0  0  0  0  0  0  0
   57.3180   33.7750   46.2690 C   0  0  0  0  0  0  0  0  0  0  0  0
   57.0180   32.6870   45.4480 C   0  0  0  0  0  0  0  0  0  0  0  0
   57.7570   31.4970   45.5450 C   0  0  0  0  0  0  0  0  0  0  0  0
   57.4400   30.3460   44.6230 C   0  0  0  0  0  0  0  0  0  0  0  0
   56.1760   29.8560   44.9000 F   0  0  0  0  0  0  0  0  0  0  0  0
   57.4740   30.7890   43.3150 F   0  0  0  0  0  0  0  0  0  0  0  0
   58.3490   29.3130   44.7690 F   0  0  0  0  0  0  0  0  0  0  0  0
   58.8250   31.4280   46.4600 C   0  0  0  0  0  0  0  0  0  0  0  0
   59.3720   30.7420   49.8390 C   0  0  0  0  0  0  0  0  0  0  0  0
   59.3070   30.4250   51.3360 C   0  0  0  0  0  0  0  0  0  0  0  0
   56.2980   29.7060   53.0500 N   0  0  0  0  0  0  0  0  0  0  0  0
   57.1940   28.7050   53.6530 C   0  0  0  0  0  0  0  0  0  0  0  0
   57.3000   28.9280   55.1580 C   0  0  0  0  0  0  0  0  0  0  0  0
  1  2  2  0
  2  3  1  0
  3  4  2  3
  4  5  1  0
  5  6  1  0
  6  7  1  0
  7  8  2  0
  7  9  1  0
  9 10  1  0
 10 11  1  0
  3 12  1  0
 12 13  2  0
 13 14  1  0
 14 15  2  0
 14 16  1  0
 16 17  1  0
 17 18  1  0
 18 19  1  0
 19 20  1  0
 20 21  2  0
 20 22  1  0
 22 23  2  0
 23 24  1  0
 24 25  2  0
 25 26  1  0
 26 27  1  0
 27 28  1  0
 27 29  1  0
 27 30  1  0
 26 31  2  0
 19 32  1  0
 32 33  1  0
 13 34  1  0
 34 35  1  0
 35 36  1  0
 34  2  1  0
 10  5  2  0
 33 16  1  0
 31 22  1  0
M  CHG  2   6  -1   9  -1
M  END
>  <UniqueID>  (1934) 
54

>  <SMILES>  (1934) 
C=c1c(=Cc2[n-]c(=O)[n-]c2O)cc(C(=O)N2CCN(C(=O)c3cccc(C(F)(F)F)c3)CC2)n1CC

>  <Energy>  (1934) 
138.591240886723

>  <Genealogy>  (1934) 
C=c1c(=Cc2[n-]c(=O)[n-]c2O)cc(C(=O)N2CCN(C(=O)c3cccc(C(F)(F)F)c3)CC2)n1CC (protonated)
C=c1c(=Cc2[n-]c(=O)[n-]c2O)cc(C(=O)N2CCN(C(=O)c3cccc(C(F)(F)F)c3)CC2)n1CC (3D coordinates assigned)
C=c1c(=Cc2[n-]c(=O)[n-]c2O)cc(C(=O)N2CCN(C(=O)c3cccc(C(F)(F)F)c3)CC2)n1CC (nonaromatic ring conformer: 138.591240886723 kcal/mol)

>  <smiles>  (1934) 
C=c1c(=Cc2[nH]c(=O)[nH]c2O)cc(C(=O)N2CCN(C(=O)c3cccc(C(F)(F)F)c3)CC2)n1CC

>  <score_type>  (1934) 
oracle

>  <origin>  (1934) 
adg

>  <m_score__min__energy>  (1934) 
-14.17

>  <m_primary>  (1934) 
energy

$$$$
59:0
     RDKit          3D

 28 31  0  0  0  0  0  0  0  0999 V2000
   58.6080   30.5840   44.4930 C   0  0  0  0  0  0  0  0  0  0  0  0
   58.4040   29.2810   44.8200 N   0  0  0  0  0  0  0  0  0  0  0  0
   57.1590   28.7220   44.8350 C   0  0  0  0  0  0  0  0  0  0  0  0
   56.9900   27.4680   45.1440 N   0  0  0  0  0  0  0  0  0  0  0  0
   57.2210   26.8830   46.4370 C   0  0  0  0  0  0  0  0  0  0  0  0
   56.3740   26.0710   46.8930 O   0  0  0  0  0  0  0  0  0  0  0  0
   58.3940   27.2520   47.2650 C   0  0  0  0  0  0  0  0  0  0  0  0
   59.4570   26.3520   47.4340 C   0  0  0  0  0  0  0  0  0  0  0  0
   60.5770   26.7180   48.1860 C   0  0  0  0  0  0  0  0  0  0  0  0
   60.6480   27.9830   48.7730 C   0  0  0  0  0  0  0  0  0  0  0  0
   59.5920   28.8960   48.6180 C   0  0  0  0  0  0  0  0  0  0  0  0
   59.6640   30.2650   49.2520 C   0  0  0  0  0  0  0  0  0  0  0  0
   60.4740   31.2230   48.4090 C   0  0  0  0  0  0  0  0  0  0  0  0
   61.8290   31.1230   48.4600 N   0  0  0  0  0  0  0  0  0  0  0  0
   62.6290   31.9500   47.7880 N   0  0  0  0  0  0  0  0  0  0  0  0
   62.1360   32.9490   47.0160 C   0  0  0  0  0  0  0  0  0  0  0  0
   62.9370   33.7080   46.4060 O   0  0  0  0  0  0  0  0  0  0  0  0
   60.7480   33.1230   46.9120 C   0  0  0  0  0  0  0  0  0  0  0  0
   60.1970   34.1530   46.1270 C   0  0  0  0  0  0  0  0  0  0  0  0
   58.8130   34.3170   46.0510 C   0  0  0  0  0  0  0  0  0  0  0  0
   57.9660   33.4570   46.7480 C   0  0  0  0  0  0  0  0  0  0  0  0
   58.4960   32.4270   47.5280 C   0  0  0  0  0  0  0  0  0  0  0  0
   59.8910   32.2450   47.6230 C   0  0  0  0  0  0  0  0  0  0  0  0
   58.4530   28.5080   47.8940 C   0  0  0  0  0  0  0  0  0  0  0  0
   56.0500   29.5090   44.4870 C   0  0  0  0  0  0  0  0  0  0  0  0
   54.7690   28.9670   44.4780 O   0  0  0  0  0  0  0  0  0  0  0  0
   56.2390   30.8530   44.1550 C   0  0  0  0  0  0  0  0  0  0  0  0
   57.5240   31.3970   44.1580 C   0  0  0  0  0  0  0  0  0  0  0  0
  1  2  1  0
  2  3  1  0
  3  4  2  0
  4  5  1  0
  5  6  2  0
  5  7  1  0
  7  8  2  0
  8  9  1  0
  9 10  2  0
 10 11  1  0
 11 12  1  0
 12 13  1  0
 13 14  2  0
 14 15  1  0
 15 16  1  0
 16 17  2  0
 16 18  1  0
 18 19  2  0
 19 20  1  0
 20 21  2  0
 21 22  1  0
 22 23  2  0
 11 24  2  0
  3 25  1  0
 25 26  1  0
 25 27  2  0
 27 28  1  0
 28  1  2  0
 24  7  1  0
 23 13  1  0
 23 18  1  0
M  CHG  3   2  -1  15  -1  26  -1
M  END
>  <UniqueID>  (1935) 
56

>  <SMILES>  (1935) 
O=C(/N=c1\[n-]cccc1[O-])c1cccc(Cc2n[n-]c(=O)c3ccccc23)c1

>  <Energy>  (1935) 
57.79209136138573

>  <Genealogy>  (1935) 
O=C(N=c1[n-]cccc1[O-])c1cccc(Cc2n[n-]c(=O)c3ccccc23)c1 (protonated)
O=C(/N=c1\[n-]cccc1[O-])c1cccc(Cc2n[n-]c(=O)c3ccccc23)c1 (cis-trans isomerization)
O=C(/N=c1\[n-]cccc1[O-])c1cccc(Cc2n[n-]c(=O)c3ccccc23)c1 (3D coordinates assigned)
O=C(/N=c1\[n-]cccc1[O-])c1cccc(Cc2n[n-]c(=O)c3ccccc23)c1 (optimized conformer: 57.79209136138573 kcal/mol)

>  <smiles>  (1935) 
O=C(N=c1[nH]cccc1O)c1cccc(Cc2n[nH]c(=O)c3ccccc23)c1

>  <score_type>  (1935) 
oracle

>  <origin>  (1935) 
adg

>  <m_score__min__energy>  (1935) 
-15.77

>  <m_primary>  (1935) 
energy

$$$$
67:0
     RDKit          3D

 29 32  0  0  0  0  0  0  0  0999 V2000
   58.1940   29.6820   44.1320 C   0  0  0  0  0  0  0  0  0  0  0  0
   58.2980   29.4170   45.4440 C   0  0  0  0  0  0  0  0  0  0  0  0
   58.1960   28.1600   46.0500 C   0  0  0  0  0  0  0  0  0  0  0  0
   57.9090   26.9870   45.4530 C   0  0  0  0  0  0  0  0  0  0  0  0
   57.1970   25.8790   46.1120 C   0  0  0  0  0  0  0  0  0  0  0  0
   57.8230   24.8300   46.6730 N   0  0  0  0  0  0  0  0  0  0  0  0
   56.8160   24.1190   47.2230 C   0  0  0  0  0  0  0  0  0  0  0  0
   57.0060   23.0380   47.8390 O   0  0  0  0  0  0  0  0  0  0  0  0
   55.5890   24.6620   47.0700 N   0  0  0  0  0  0  0  0  0  0  0  0
   55.8480   25.7820   46.3760 C   0  0  0  0  0  0  0  0  0  0  0  0
   54.8770   26.7160   46.0360 O   0  0  0  0  0  0  0  0  0  0  0  0
   58.3970   28.3660   47.4100 C   0  0  0  0  0  0  0  0  0  0  0  0
   58.6110   29.7200   47.5760 C   0  0  0  0  0  0  0  0  0  0  0  0
   58.8700   30.3890   48.8910 C   0  0  0  0  0  0  0  0  0  0  0  0
   58.5570   30.3560   46.3860 N   0  0  0  0  0  0  0  0  0  0  0  0
   58.7370   31.7670   46.1820 C   0  0  0  0  0  0  0  0  0  0  0  0
   59.9080   32.4850   46.5490 C   0  0  0  0  0  0  0  0  0  0  0  0
   61.1210   31.8510   47.1010 C   0  0  0  0  0  0  0  0  0  0  0  0
   61.4340   30.6850   46.7370 O   0  0  0  0  0  0  0  0  0  0  0  0
   61.9730   32.5620   48.0160 N   0  0  0  0  0  0  0  0  0  0  0  0
   63.4050   32.2580   48.0470 C   0  0  0  0  0  0  0  0  0  0  0  0
   64.1770   33.4560   48.6100 C   0  0  0  0  0  0  0  0  0  0  0  0
   63.6360   33.8640   49.8540 O   0  0  0  0  0  0  0  0  0  0  0  0
   62.3150   34.3390   49.6690 C   0  0  0  0  0  0  0  0  0  0  0  0
   61.3940   33.2100   49.1970 C   0  0  0  0  0  0  0  0  0  0  0  0
   59.8670   33.8260   46.3160 N   0  0  0  0  0  0  0  0  0  0  0  0
   58.3690   34.1240   45.6550 S   0  0  0  0  0  0  0  0  0  0  0  0
   57.7530   32.5810   45.6480 C   0  0  0  0  0  0  0  0  0  0  0  0
   56.4910   32.1970   45.2130 O   0  0  0  0  0  0  0  0  0  0  0  0
  1  2  2  0
  2  3  1  0
  3  4  2  0
  4  5  1  0
  5  6  1  0
  6  7  1  0
  7  8  2  0
  7  9  1  0
  9 10  1  0
 10 11  1  0
  3 12  1  0
 12 13  2  0
 13 14  1  0
 13 15  1  0
 15 16  1  0
 16 17  1  0
 17 18  1  0
 18 19  2  0
 18 20  1  0
 20 21  1  0
 21 22  1  0
 22 23  1  0
 23 24  1  0
 24 25  1  0
 17 26  2  0
 26 27  1  0
 27 28  1  0
 28 29  1  0
 15  2  1  0
 28 16  2  0
 10  5  2  0
 25 20  1  0
M  CHG  4   6  -1   9  -1  11  -1  29  -1
M  END
>  <UniqueID>  (1936) 
63

>  <SMILES>  (1936) 
C=c1/c(=C/c2[n-]c(=O)[n-]c2[O-])cc(C)n1-c1c(C(=O)N2CCOCC2)nsc1[O-]

>  <Energy>  (1936) 
156.13989776002194

>  <Genealogy>  (1936) 
C=c1c(=Cc2[n-]c(=O)[n-]c2[O-])cc(C)n1-c1c(C(=O)N2CCOCC2)nsc1[O-] (protonated)
C=c1/c(=C/c2[n-]c(=O)[n-]c2[O-])cc(C)n1-c1c(C(=O)N2CCOCC2)nsc1[O-] (cis-trans isomerization)
C=c1/c(=C/c2[n-]c(=O)[n-]c2[O-])cc(C)n1-c1c(C(=O)N2CCOCC2)nsc1[O-] (3D coordinates assigned)
C=c1/c(=C/c2[n-]c(=O)[n-]c2[O-])cc(C)n1-c1c(C(=O)N2CCOCC2)nsc1[O-] (nonaromatic ring conformer: 156.13989776002194 kcal/mol)

>  <smiles>  (1936) 
C=c1c(=Cc2[nH]c(=O)[nH]c2O)cc(C)n1-c1c(C(=O)N2CCOCC2)nsc1O

>  <score_type>  (1936) 
oracle

>  <origin>  (1936) 
adg

>  <m_score__min__energy>  (1936) 
-17.050000000000001

>  <m_primary>  (1936) 
energy

$$$$
72:0
     RDKit          3D

 30 32  0  0  0  0  0  0  0  0999 V2000
   54.8040   26.3410   45.9240 N   0  0  0  0  0  0  0  0  0  0  0  0
   55.5810   25.1810   46.2140 C   0  0  0  0  0  0  0  0  0  0  0  0
   55.9030   24.9340   47.4080 O   0  0  0  0  0  0  0  0  0  0  0  0
   56.0760   24.3140   45.1210 C   0  0  0  0  0  0  0  0  0  0  0  0
   55.1780   23.9810   44.0920 C   0  0  0  0  0  0  0  0  0  0  0  0
   55.5460   23.0920   43.0830 C   0  0  0  0  0  0  0  0  0  0  0  0
   56.8110   22.5090   43.0950 C   0  0  0  0  0  0  0  0  0  0  0  0
   57.7260   22.8420   44.0950 C   0  0  0  0  0  0  0  0  0  0  0  0
   57.3960   23.7800   45.0940 C   0  0  0  0  0  0  0  0  0  0  0  0
   58.4600   24.1880   46.1010 C   0  0  0  0  0  0  0  0  0  0  0  0
   59.1850   25.4910   45.7050 C   0  0  0  0  0  0  0  0  0  0  0  0
   58.9990   26.5290   46.7210 N   0  0  0  0  0  0  0  0  0  0  0  0
   58.4610   27.6920   46.4810 C   0  0  0  0  0  0  0  0  0  0  0  0
   59.0410   28.8270   46.9480 N   0  0  0  0  0  0  0  0  0  0  0  0
   58.4840   30.0390   46.7170 C   0  0  0  0  0  0  0  0  0  0  0  0
   59.0520   31.1340   47.1340 N   0  0  0  0  0  0  0  0  0  0  0  0
   59.0000   32.4250   46.4990 C   0  0  0  0  0  0  0  0  0  0  0  0
   60.1390   33.2440   46.3640 C   0  0  0  0  0  0  0  0  0  0  0  0
   60.0400   34.4930   45.7420 C   0  0  0  0  0  0  0  0  0  0  0  0
   58.8040   34.9440   45.2710 C   0  0  0  0  0  0  0  0  0  0  0  0
   57.6640   34.1540   45.4350 C   0  0  0  0  0  0  0  0  0  0  0  0
   57.7590   32.9040   46.0550 C   0  0  0  0  0  0  0  0  0  0  0  0
   57.3390   30.1160   45.9940 N   0  0  0  0  0  0  0  0  0  0  0  0
   56.7440   28.9940   45.5120 C   0  0  0  0  0  0  0  0  0  0  0  0
   55.6440   29.1220   44.8240 N   0  0  0  0  0  0  0  0  0  0  0  0
   55.3930   30.0490   43.7190 C   0  0  0  0  0  0  0  0  0  0  0  0
   56.6220   30.1470   42.8070 C   0  0  0  0  0  0  0  0  0  0  0  0
   57.4170   31.4250   43.0920 C   0  0  0  0  0  0  0  0  0  0  0  0
   57.7170   32.1870   41.8050 C   0  0  0  0  0  0  0  0  0  0  0  0
   57.3090   27.7720   45.7620 N   0  0  0  0  0  0  0  0  0  0  0  0
  1  2  1  0
  2  3  2  0
  2  4  1  0
  4  5  2  0
  5  6  1  0
  6  7  2  0
  7  8  1  0
  8  9  2  0
  9 10  1  0
 10 11  1  0
 11 12  1  0
 12 13  2  3
 13 14  1  0
 14 15  1  0
 15 16  2  0
 16 17  1  0
 17 18  2  0
 18 19  1  0
 19 20  2  0
 20 21  1  0
 21 22  2  0
 15 23  1  0
 23 24  1  0
 24 25  2  0
 25 26  1  0
 26 27  1  0
 27 28  1  0
 28 29  1  0
 24 30  1  0
  9  4  1  0
 30 13  1  0
 22 17  1  0
M  CHG  3   1  -1  14  -1  23  -1
M  END
>  <UniqueID>  (1937) 
68

>  <SMILES>  (1937) 
CCCC/N=c1/[n-]/c(=N/c2ccccc2)[n-]c(=NCCc2ccccc2C([NH-])=O)[nH]1

>  <Energy>  (1937) 
59.60756207596361

>  <Genealogy>  (1937) 
CCCCN=c1[n-]c(=Nc2ccccc2)[n-]c(=NCCc2ccccc2C([NH-])=O)[nH]1 (protonated)
CCCC/N=c1/[n-]/c(=N/c2ccccc2)[n-]c(=NCCc2ccccc2C([NH-])=O)[nH]1 (cis-trans isomerization)
CCCC/N=c1/[n-]/c(=N/c2ccccc2)[n-]c(=NCCc2ccccc2C([NH-])=O)[nH]1 (3D coordinates assigned)
CCCC/N=c1/[n-]/c(=N/c2ccccc2)[n-]c(=NCCc2ccccc2C([NH-])=O)[nH]1 (optimized conformer: 59.60756207596361 kcal/mol)

>  <smiles>  (1937) 
CCCCN=c1[nH]c(=NCCc2ccccc2C(N)=O)[nH]c(=Nc2ccccc2)[nH]1

>  <score_type>  (1937) 
oracle

>  <origin>  (1937) 
adg

>  <m_score__min__energy>  (1937) 
-14.789999999999999

>  <m_primary>  (1937) 
energy

$$$$
79:0
     RDKit          3D

 33 36  0  0  0  0  0  0  0  0999 V2000
   55.5700   28.6120   45.1140 O   0  0  0  0  0  0  0  0  0  0  0  0
   56.2850   27.5200   45.6100 C   0  0  0  0  0  0  0  0  0  0  0  0
   55.5950   26.4860   46.1620 N   0  0  0  0  0  0  0  0  0  0  0  0
   56.2320   25.3880   46.6420 C   0  0  0  0  0  0  0  0  0  0  0  0
   55.5650   24.4460   47.1490 O   0  0  0  0  0  0  0  0  0  0  0  0
   57.5860   25.3010   46.5730 N   0  0  0  0  0  0  0  0  0  0  0  0
   58.3270   26.3040   46.0350 C   0  0  0  0  0  0  0  0  0  0  0  0
   59.5840   26.1890   45.9860 O   0  0  0  0  0  0  0  0  0  0  0  0
   57.6950   27.4610   45.5500 C   0  0  0  0  0  0  0  0  0  0  0  0
   58.4960   28.5400   44.9400 C   0  0  0  0  0  0  0  0  0  0  0  0
   58.8510   29.6900   45.5430 C   0  0  0  0  0  0  0  0  0  0  0  0
   58.3800   30.9270   45.1260 C   0  0  0  0  0  0  0  0  0  0  0  0
   58.8960   31.8650   45.9940 C   0  0  0  0  0  0  0  0  0  0  0  0
   58.6350   33.3370   45.9220 C   0  0  0  0  0  0  0  0  0  0  0  0
   59.6790   31.2670   46.9190 N   0  0  0  0  0  0  0  0  0  0  0  0
   60.3830   31.9430   47.9750 C   0  0  0  0  0  0  0  0  0  0  0  0
   61.7750   32.0850   47.8900 C   0  0  0  0  0  0  0  0  0  0  0  0
   62.4940   32.7160   48.9160 C   0  0  0  0  0  0  0  0  0  0  0  0
   63.9640   32.8640   48.8100 C   0  0  0  0  0  0  0  0  0  0  0  0
   64.4610   33.2750   47.7260 O   0  0  0  0  0  0  0  0  0  0  0  0
   64.8360   32.5730   49.9180 N   0  0  0  0  0  0  0  0  0  0  0  0
   64.5630   31.4570   50.8300 C   0  0  0  0  0  0  0  0  0  0  0  0
   65.8530   30.6650   51.1070 C   0  0  0  0  0  0  0  0  0  0  0  0
   67.0620   31.5160   51.3060 N   0  0  0  0  0  0  0  0  0  0  0  0
   67.8280   31.0820   52.4880 C   0  0  0  0  0  0  0  0  0  0  0  0
   66.7740   32.9610   51.3910 C   0  0  0  0  0  0  0  0  0  0  0  0
   66.0130   33.4170   50.1440 C   0  0  0  0  0  0  0  0  0  0  0  0
   61.7990   33.2300   50.0220 C   0  0  0  0  0  0  0  0  0  0  0  0
   60.4120   33.0960   50.1120 C   0  0  0  0  0  0  0  0  0  0  0  0
   59.6900   32.4650   49.0880 C   0  0  0  0  0  0  0  0  0  0  0  0
   58.1980   32.3170   49.2110 C   0  0  0  0  0  0  0  0  0  0  0  0
   59.6860   29.9380   46.6480 C   0  0  0  0  0  0  0  0  0  0  0  0
   60.4550   29.0620   47.3150 C   0  0  0  0  0  0  0  0  0  0  0  0
  1  2  1  0
  2  3  1  0
  3  4  1  0
  4  5  2  0
  4  6  1  0
  6  7  1  0
  7  8  2  0
  7  9  1  0
  9 10  1  0
 10 11  2  0
 11 12  1  0
 12 13  2  0
 13 14  1  0
 13 15  1  0
 15 16  1  0
 16 17  2  0
 17 18  1  0
 18 19  1  0
 19 20  2  0
 19 21  1  0
 21 22  1  0
 22 23  1  0
 23 24  1  0
 24 25  1  0
 24 26  1  0
 26 27  1  0
 18 28  2  0
 28 29  1  0
 29 30  2  0
 30 31  1  0
 15 32  1  0
 32 33  2  0
  9  2  2  0
 32 11  1  0
 30 16  1  0
 27 21  1  0
M  CHG  2   3  -1   6  -1
M  END
>  <UniqueID>  (1938) 
75

>  <SMILES>  (1938) 
C=c1/c(=C\c2c(O)[n-]c(=O)[n-]c2=O)cc(C)n1-c1cc(C(=O)N2CCN(C)CC2)ccc1C

>  <Energy>  (1938) 
120.00835763934113

>  <Genealogy>  (1938) 
C=c1c(=Cc2c(O)[n-]c(=O)[n-]c2=O)cc(C)n1-c1cc(C(=O)N2CCN(C)CC2)ccc1C (protonated)
C=c1/c(=C\c2c(O)[n-]c(=O)[n-]c2=O)cc(C)n1-c1cc(C(=O)N2CCN(C)CC2)ccc1C (cis-trans isomerization)
C=c1/c(=C\c2c(O)[n-]c(=O)[n-]c2=O)cc(C)n1-c1cc(C(=O)N2CCN(C)CC2)ccc1C (3D coordinates assigned)
C=c1/c(=C\c2c(O)[n-]c(=O)[n-]c2=O)cc(C)n1-c1cc(C(=O)N2CCN(C)CC2)ccc1C (nonaromatic ring conformer: 120.00835763934113 kcal/mol)

>  <smiles>  (1938) 
C=c1c(=Cc2c(O)[nH]c(=O)[nH]c2=O)cc(C)n1-c1cc(C(=O)N2CCN(C)CC2)ccc1C

>  <score_type>  (1938) 
oracle

>  <origin>  (1938) 
adg

>  <m_score__min__energy>  (1938) 
-14.970000000000001

>  <m_primary>  (1938) 
energy

$$$$
81:0
     RDKit          3D

 37 40  0  0  0  0  0  0  0  0999 V2000
   63.6020   32.5440   47.6380 C   0  0  0  0  0  0  0  0  0  0  0  0
   62.8340   33.5580   46.8410 C   0  0  0  0  0  0  0  0  0  0  0  0
   63.4490   34.2180   45.9590 O   0  0  0  0  0  0  0  0  0  0  0  0
   61.3800   33.7940   47.0570 C   0  0  0  0  0  0  0  0  0  0  0  0
   60.8990   34.0910   48.3480 C   0  0  0  0  0  0  0  0  0  0  0  0
   59.5340   34.2940   48.5670 C   0  0  0  0  0  0  0  0  0  0  0  0
   58.6320   34.2110   47.5070 C   0  0  0  0  0  0  0  0  0  0  0  0
   59.0880   33.9450   46.2120 C   0  0  0  0  0  0  0  0  0  0  0  0
   58.1310   33.8500   45.1470 N   0  0  0  0  0  0  0  0  0  0  0  0
   57.9960   32.7470   44.2440 C   0  0  0  0  0  0  0  0  0  0  0  0
   58.5120   32.7960   43.0940 O   0  0  0  0  0  0  0  0  0  0  0  0
   57.2330   31.6050   44.6410 N   0  0  0  0  0  0  0  0  0  0  0  0
   57.0670   30.4510   43.7570 C   0  0  0  0  0  0  0  0  0  0  0  0
   55.9510   29.5630   44.2370 C   0  0  0  0  0  0  0  0  0  0  0  0
   54.7930   29.7270   43.7720 O   0  0  0  0  0  0  0  0  0  0  0  0
   56.1570   28.5760   45.2560 N   0  0  0  0  0  0  0  0  0  0  0  0
   57.4090   28.2470   45.8730 C   0  0  0  0  0  0  0  0  0  0  0  0
   58.2330   29.2490   46.4100 C   0  0  0  0  0  0  0  0  0  0  0  0
   59.4460   28.9210   47.0290 C   0  0  0  0  0  0  0  0  0  0  0  0
   60.4310   30.1820   47.7750 S   0  0  0  0  0  0  0  0  0  0  0  0
   61.5280   30.5800   46.8270 O   0  0  0  0  0  0  0  0  0  0  0  0
   59.5760   31.3930   48.0320 O   0  0  0  0  0  0  0  0  0  0  0  0
   61.1260   29.6420   49.2880 N   0  0  0  0  0  0  0  0  0  0  0  0
   61.8830   30.7210   49.9610 C   0  0  0  0  0  0  0  0  0  0  0  0
   61.1170   31.3030   51.1630 C   0  0  0  0  0  0  0  0  0  0  0  0
   60.7880   30.3330   52.1460 O   0  0  0  0  0  0  0  0  0  0  0  0
   60.5410   29.0350   51.6160 C   0  0  0  0  0  0  0  0  0  0  0  0
   60.0900   29.0400   50.1470 C   0  0  0  0  0  0  0  0  0  0  0  0
   59.8600   27.5830   47.0690 C   0  0  0  0  0  0  0  0  0  0  0  0
   59.0580   26.5830   46.5180 C   0  0  0  0  0  0  0  0  0  0  0  0
   57.8340   26.9060   45.9140 C   0  0  0  0  0  0  0  0  0  0  0  0
   57.0040   25.8600   45.3910 N   0  0  0  0  0  0  0  0  0  0  0  0
   57.4110   24.9810   44.3100 C   0  0  0  0  0  0  0  0  0  0  0  0
   56.2020   24.0960   44.0390 C   0  0  0  0  0  0  0  0  0  0  0  0
   55.3140   24.2080   45.2800 C   0  0  0  0  0  0  0  0  0  0  0  0
   55.7270   25.4980   45.9760 C   0  0  0  0  0  0  0  0  0  0  0  0
   60.4600   33.7190   45.9930 C   0  0  0  0  0  0  0  0  0  0  0  0
  1  2  1  0
  2  3  2  0
  2  4  1  0
  4  5  2  0
  5  6  1  0
  6  7  2  0
  7  8  1  0
  8  9  1  0
  9 10  1  0
 10 11  2  0
 10 12  1  0
 12 13  1  0
 13 14  1  0
 14 15  2  0
 14 16  1  0
 16 17  1  0
 17 18  2  0
 18 19  1  0
 19 20  1  0
 20 21  2  0
 20 22  2  0
 20 23  1  0
 23 24  1  0
 24 25  1  0
 25 26  1  0
 26 27  1  0
 27 28  1  0
 19 29  2  0
 29 30  1  0
 30 31  2  0
 31 32  1  0
 32 33  1  0
 33 34  1  0
 34 35  1  0
 35 36  1  0
  8 37  2  0
 37  4  1  0
 31 17  1  0
 36 32  1  0
 28 23  1  0
M  CHG  2   9  -1  16  -1
M  END
>  <UniqueID>  (1939) 
77

>  <SMILES>  (1939) 
CC(=O)c1cccc([N-]C(=O)NCC(=O)[N-]c2cc(S(=O)(=O)N3CCOCC3)ccc2N2CCCC2)c1

>  <Energy>  (1939) 
88.99393852098848

>  <Genealogy>  (1939) 
CC(=O)c1cccc([N-]C(=O)NCC(=O)[N-]c2cc(S(=O)(=O)N3CCOCC3)ccc2N2CCCC2)c1 (protonated)
CC(=O)c1cccc([N-]C(=O)NCC(=O)[N-]c2cc(S(=O)(=O)N3CCOCC3)ccc2N2CCCC2)c1 (3D coordinates assigned)
CC(=O)c1cccc([N-]C(=O)NCC(=O)[N-]c2cc(S(=O)(=O)N3CCOCC3)ccc2N2CCCC2)c1 (nonaromatic ring conformer: 88.99393852098848 kcal/mol)

>  <smiles>  (1939) 
CC(=O)c1cccc(NC(=O)NCC(=O)Nc2cc(S(=O)(=O)N3CCOCC3)ccc2N2CCCC2)c1

>  <score_type>  (1939) 
oracle

>  <origin>  (1939) 
adg

>  <m_score__min__energy>  (1939) 
-14.33

>  <m_primary>  (1939) 
energy

$$$$
82:0
     RDKit          3D

 27 29  0  0  0  0  0  0  0  0999 V2000
   59.1220   28.5990   44.6520 O   0  0  0  0  0  0  0  0  0  0  0  0
   58.3650   28.6060   45.6590 C   0  0  0  0  0  0  0  0  0  0  0  0
   58.3220   29.7860   46.4750 N   0  0  0  0  0  0  0  0  0  0  0  0
   58.4420   31.1380   46.0110 C   0  0  0  0  0  0  0  0  0  0  0  0
   59.0120   32.0900   46.8670 C   0  0  0  0  0  0  0  0  0  0  0  0
   59.1600   33.4200   46.4570 C   0  0  0  0  0  0  0  0  0  0  0  0
   59.8750   34.5990   47.5540 S   0  0  0  0  0  0  0  0  0  0  0  0
   59.6300   35.9780   47.0050 O   0  0  0  0  0  0  0  0  0  0  0  0
   59.2290   34.4990   48.9080 O   0  0  0  0  0  0  0  0  0  0  0  0
   61.5940   34.3180   47.6910 N   0  0  0  0  0  0  0  0  0  0  0  0
   62.0790   33.5740   46.5060 C   0  0  0  0  0  0  0  0  0  0  0  0
   63.4350   32.9140   46.7720 C   0  0  0  0  0  0  0  0  0  0  0  0
   63.3320   31.8780   47.9050 C   0  0  0  0  0  0  0  0  0  0  0  0
   62.1820   32.1780   48.8820 C   0  0  0  0  0  0  0  0  0  0  0  0
   61.9290   33.6880   48.9930 C   0  0  0  0  0  0  0  0  0  0  0  0
   58.7080   33.8090   45.1900 C   0  0  0  0  0  0  0  0  0  0  0  0
   58.1100   32.8740   44.3420 C   0  0  0  0  0  0  0  0  0  0  0  0
   57.9590   31.5420   44.7490 C   0  0  0  0  0  0  0  0  0  0  0  0
   57.3090   30.6330   43.9160 O   0  0  0  0  0  0  0  0  0  0  0  0
   57.4990   27.4320   45.9300 C   0  0  0  0  0  0  0  0  0  0  0  0
   58.0460   26.2540   46.4660 C   0  0  0  0  0  0  0  0  0  0  0  0
   57.2290   25.1530   46.7240 C   0  0  0  0  0  0  0  0  0  0  0  0
   55.8620   25.2380   46.4540 C   0  0  0  0  0  0  0  0  0  0  0  0
   55.1100   24.2540   46.6820 O   0  0  0  0  0  0  0  0  0  0  0  0
   55.3400   26.3840   45.9430 N   0  0  0  0  0  0  0  0  0  0  0  0
   56.1130   27.4720   45.6790 C   0  0  0  0  0  0  0  0  0  0  0  0
   55.5170   28.6080   45.1450 O   0  0  0  0  0  0  0  0  0  0  0  0
  1  2  2  0
  2  3  1  0
  3  4  1  0
  4  5  2  0
  5  6  1  0
  6  7  1  0
  7  8  2  0
  7  9  2  0
  7 10  1  0
 10 11  1  0
 11 12  1  0
 12 13  1  0
 13 14  1  0
 14 15  1  0
  6 16  2  0
 16 17  1  0
 17 18  2  0
 18 19  1  0
  2 20  1  0
 20 21  1  0
 21 22  2  0
 22 23  1  0
 23 24  2  0
 23 25  1  0
 25 26  1  0
 26 27  1  0
 18  4  1  0
 26 20  2  0
 15 10  1  0
M  CHG  3   3  -1  25  -1  27  -1
M  END
>  <UniqueID>  (1940) 
78

>  <SMILES>  (1940) 
O=C([N-]c1cc(S(=O)(=O)N2CCCCC2)ccc1O)c1ccc(=O)[n-]c1[O-]

>  <Energy>  (1940) 
59.628404291687765

>  <Genealogy>  (1940) 
O=C([N-]c1cc(S(=O)(=O)N2CCCCC2)ccc1O)c1ccc(=O)[n-]c1[O-] (protonated)
O=C([N-]c1cc(S(=O)(=O)N2CCCCC2)ccc1O)c1ccc(=O)[n-]c1[O-] (3D coordinates assigned)
O=C([N-]c1cc(S(=O)(=O)N2CCCCC2)ccc1O)c1ccc(=O)[n-]c1[O-] (nonaromatic ring conformer: 59.628404291687765 kcal/mol)

>  <smiles>  (1940) 
O=C(Nc1cc(S(=O)(=O)N2CCCCC2)ccc1O)c1ccc(=O)[nH]c1O

>  <score_type>  (1940) 
oracle

>  <origin>  (1940) 
adg

>  <m_score__min__energy>  (1940) 
-16.170000000000002

>  <m_primary>  (1940) 
energy

$$$$
83:0
     RDKit          3D

 29 32  0  0  0  0  0  0  0  0999 V2000
   55.0000   26.7070   46.0080 O   0  0  0  0  0  0  0  0  0  0  0  0
   56.0090   25.7830   46.2580 C   0  0  0  0  0  0  0  0  0  0  0  0
   55.8290   24.6670   46.9850 N   0  0  0  0  0  0  0  0  0  0  0  0
   57.0310   24.0580   46.9000 C   0  0  0  0  0  0  0  0  0  0  0  0
   57.2740   22.9570   47.4570 O   0  0  0  0  0  0  0  0  0  0  0  0
   57.9500   24.7210   46.1660 N   0  0  0  0  0  0  0  0  0  0  0  0
   57.3010   25.8320   45.7730 C   0  0  0  0  0  0  0  0  0  0  0  0
   57.9110   26.8440   44.8880 C   0  0  0  0  0  0  0  0  0  0  0  0
   57.5710   28.1460   44.8900 C   0  0  0  0  0  0  0  0  0  0  0  0
   56.3020   28.5880   44.7490 N   0  0  0  0  0  0  0  0  0  0  0  0
   56.4060   29.9270   44.8510 C   0  0  0  0  0  0  0  0  0  0  0  0
   55.4120   30.6960   44.7500 O   0  0  0  0  0  0  0  0  0  0  0  0
   57.6670   30.3620   45.0510 N   0  0  0  0  0  0  0  0  0  0  0  0
   58.0880   31.7330   45.1720 C   0  0  0  0  0  0  0  0  0  0  0  0
   58.4380   32.4710   44.0320 C   0  0  0  0  0  0  0  0  0  0  0  0
   58.8300   33.8060   44.1520 C   0  0  0  0  0  0  0  0  0  0  0  0
   58.8660   34.4180   45.4090 C   0  0  0  0  0  0  0  0  0  0  0  0
   58.5060   33.6920   46.5600 C   0  0  0  0  0  0  0  0  0  0  0  0
   58.5210   34.2590   47.8420 O   0  0  0  0  0  0  0  0  0  0  0  0
   59.6430   34.2350   48.7210 C   0  0  0  0  0  0  0  0  0  0  0  0
   60.6970   33.3340   48.1500 C   0  0  0  0  0  0  0  0  0  0  0  0
   60.6490   31.9500   48.3830 C   0  0  0  0  0  0  0  0  0  0  0  0
   61.6520   31.1150   47.8810 C   0  0  0  0  0  0  0  0  0  0  0  0
   62.7160   31.6580   47.1540 C   0  0  0  0  0  0  0  0  0  0  0  0
   62.7800   33.0360   46.9330 C   0  0  0  0  0  0  0  0  0  0  0  0
   61.7780   33.8740   47.4340 C   0  0  0  0  0  0  0  0  0  0  0  0
   58.1150   32.3540   46.4300 C   0  0  0  0  0  0  0  0  0  0  0  0
   58.4190   29.2370   45.0870 C   0  0  0  0  0  0  0  0  0  0  0  0
   59.7400   29.2070   45.3180 C   0  0  0  0  0  0  0  0  0  0  0  0
  1  2  1  0
  2  3  1  0
  3  4  1  0
  4  5  2  0
  4  6  1  0
  6  7  1  0
  7  8  1  0
  8  9  2  0
  9 10  1  0
 10 11  1  0
 11 12  2  0
 11 13  1  0
 13 14  1  0
 14 15  2  0
 15 16  1  0
 16 17  2  0
 17 18  1  0
 18 19  1  0
 19 20  1  0
 20 21  1  0
 21 22  2  0
 22 23  1  0
 23 24  2  0
 24 25  1  0
 25 26  2  0
 18 27  2  0
 13 28  1  0
 28 29  2  0
  7  2  2  0
 28  9  1  0
 27 14  1  0
 26 21  1  0
M  CHG  3   3  -1   6  -1  10  -1
M  END
>  <UniqueID>  (1941) 
79

>  <SMILES>  (1941) 
C=c1/c(=C/c2[n-]c(=O)[n-]c2O)[n-]c(=O)n1-c1cccc(OCc2ccccc2)c1

>  <Energy>  (1941) 
121.36533270427789

>  <Genealogy>  (1941) 
C=c1c(=Cc2[n-]c(=O)[n-]c2O)[n-]c(=O)n1-c1cccc(OCc2ccccc2)c1 (protonated)
C=c1/c(=C/c2[n-]c(=O)[n-]c2O)[n-]c(=O)n1-c1cccc(OCc2ccccc2)c1 (cis-trans isomerization)
C=c1/c(=C/c2[n-]c(=O)[n-]c2O)[n-]c(=O)n1-c1cccc(OCc2ccccc2)c1 (3D coordinates assigned)
C=c1/c(=C/c2[n-]c(=O)[n-]c2O)[n-]c(=O)n1-c1cccc(OCc2ccccc2)c1 (optimized conformer: 121.36533270427789 kcal/mol)

>  <smiles>  (1941) 
C=c1c(=Cc2[nH]c(=O)[nH]c2O)[nH]c(=O)n1-c1cccc(OCc2ccccc2)c1

>  <score_type>  (1941) 
oracle

>  <origin>  (1941) 
adg

>  <m_score__min__energy>  (1941) 
-15.84

>  <m_primary>  (1941) 
energy

$$$$
84:0
     RDKit          3D

 30 33  0  0  0  0  0  0  0  0999 V2000
   59.6460   29.7250   44.8430 C   0  0  0  0  0  0  0  0  0  0  0  0
   59.4890   29.3720   46.1300 C   0  0  0  0  0  0  0  0  0  0  0  0
   58.7080   28.3140   46.6180 C   0  0  0  0  0  0  0  0  0  0  0  0
   57.7830   27.5440   46.0140 C   0  0  0  0  0  0  0  0  0  0  0  0
   57.2140   26.2990   46.5580 C   0  0  0  0  0  0  0  0  0  0  0  0
   57.9390   25.2720   47.0400 N   0  0  0  0  0  0  0  0  0  0  0  0
   57.0090   24.3230   47.2830 C   0  0  0  0  0  0  0  0  0  0  0  0
   57.2990   23.1970   47.7640 O   0  0  0  0  0  0  0  0  0  0  0  0
   55.7450   24.6710   46.9600 N   0  0  0  0  0  0  0  0  0  0  0  0
   55.8970   25.9200   46.4880 C   0  0  0  0  0  0  0  0  0  0  0  0
   54.8510   26.6940   46.0000 O   0  0  0  0  0  0  0  0  0  0  0  0
   59.0320   28.1810   47.9550 C   0  0  0  0  0  0  0  0  0  0  0  0
   59.9230   29.1900   48.2620 C   0  0  0  0  0  0  0  0  0  0  0  0
   60.4490   29.4420   49.6280 C   0  0  0  0  0  0  0  0  0  0  0  0
   61.6970   29.4700   49.8080 O   0  0  0  0  0  0  0  0  0  0  0  0
   59.5460   29.7320   50.7270 N   0  0  0  0  0  0  0  0  0  0  0  0
   60.2130   30.4340   51.8520 C   0  0  0  0  0  0  0  0  0  0  0  0
   60.4990   31.9230   51.5820 C   0  0  0  0  0  0  0  0  0  0  0  0
   59.3140   32.5920   50.9580 C   0  0  0  0  0  0  0  0  0  0  0  0
   59.0250   33.7400   51.2620 O   0  0  0  0  0  0  0  0  0  0  0  0
   58.5560   31.8860   49.8780 C   0  0  0  0  0  0  0  0  0  0  0  0
   58.3170   30.4220   50.2700 C   0  0  0  0  0  0  0  0  0  0  0  0
   60.2050   29.9200   47.1510 N   0  0  0  0  0  0  0  0  0  0  0  0
   61.1810   31.0170   47.0410 C   0  0  0  0  0  0  0  0  0  0  0  0
   60.5060   32.3570   47.1890 C   0  0  0  0  0  0  0  0  0  0  0  0
   59.3570   32.6580   46.4360 C   0  0  0  0  0  0  0  0  0  0  0  0
   58.7400   33.9060   46.5590 C   0  0  0  0  0  0  0  0  0  0  0  0
   59.2660   34.8670   47.4250 C   0  0  0  0  0  0  0  0  0  0  0  0
   60.4150   34.5820   48.1680 C   0  0  0  0  0  0  0  0  0  0  0  0
   61.0360   33.3360   48.0490 C   0  0  0  0  0  0  0  0  0  0  0  0
  1  2  2  0
  2  3  1  0
  3  4  2  0
  4  5  1  0
  5  6  1  0
  6  7  1  0
  7  8  2  0
  7  9  1  0
  9 10  1  0
 10 11  1  0
  3 12  1  0
 12 13  2  0
 13 14  1  0
 14 15  2  0
 14 16  1  0
 16 17  1  0
 17 18  1  0
 18 19  1  0
 19 20  2  0
 19 21  1  0
 21 22  1  0
 13 23  1  0
 23 24  1  0
 24 25  1  0
 25 26  2  0
 26 27  1  0
 27 28  2  0
 28 29  1  0
 29 30  2  0
 23  2  1  0
 30 25  1  0
 10  5  2  0
 22 16  1  0
M  CHG  4   6  -1   9  -1  11  -1  16   1
M  END
>  <UniqueID>  (1942) 
80

>  <SMILES>  (1942) 
C=c1/c(=C\c2[n-]c(=O)[n-]c2[O-])cc(C(=O)[NH+]2CCC(=O)CC2)n1Cc1ccccc1

>  <Energy>  (1942) 
130.8306551067263

>  <Genealogy>  (1942) 
C=c1c(=Cc2[n-]c(=O)[n-]c2[O-])cc(C(=O)[NH+]2CCC(=O)CC2)n1Cc1ccccc1 (protonated)
C=c1/c(=C\c2[n-]c(=O)[n-]c2[O-])cc(C(=O)[NH+]2CCC(=O)CC2)n1Cc1ccccc1 (cis-trans isomerization)
C=c1/c(=C\c2[n-]c(=O)[n-]c2[O-])cc(C(=O)[NH+]2CCC(=O)CC2)n1Cc1ccccc1 (3D coordinates assigned)
C=c1/c(=C\c2[n-]c(=O)[n-]c2[O-])cc(C(=O)[NH+]2CCC(=O)CC2)n1Cc1ccccc1 (nonaromatic ring conformer: 130.8306551067263 kcal/mol)

>  <smiles>  (1942) 
C=c1c(=Cc2[nH]c(=O)[nH]c2O)cc(C(=O)N2CCC(=O)CC2)n1Cc1ccccc1

>  <score_type>  (1942) 
oracle

>  <origin>  (1942) 
adg

>  <m_score__min__energy>  (1942) 
-14.630000000000001

>  <m_primary>  (1942) 
energy

$$$$
91:0
     RDKit          3D

 39 43  0  0  0  0  0  0  0  0999 V2000
   61.9340   29.3240   50.5410 O   0  0  0  0  0  0  0  0  0  0  0  0
   60.7840   29.1880   50.0470 C   0  0  0  0  0  0  0  0  0  0  0  0
   59.8010   30.2220   50.1920 N   0  0  0  0  0  0  0  0  0  0  0  0
   59.7270   31.4410   49.4370 C   0  0  0  0  0  0  0  0  0  0  0  0
   59.7910   32.6590   50.1220 C   0  0  0  0  0  0  0  0  0  0  0  0
   59.7230   33.8670   49.4230 C   0  0  0  0  0  0  0  0  0  0  0  0
   59.5650   33.8670   48.0350 C   0  0  0  0  0  0  0  0  0  0  0  0
   59.4480   32.6550   47.3360 C   0  0  0  0  0  0  0  0  0  0  0  0
   59.2480   32.6500   45.8390 C   0  0  0  0  0  0  0  0  0  0  0  0
   58.1890   31.6560   45.4320 C   0  0  0  0  0  0  0  0  0  0  0  0
   56.9410   32.1300   45.1620 N   0  0  0  0  0  0  0  0  0  0  0  0
   55.9430   31.3310   44.7880 N   0  0  0  0  0  0  0  0  0  0  0  0
   56.1170   29.9930   44.6510 C   0  0  0  0  0  0  0  0  0  0  0  0
   55.1410   29.2730   44.3110 O   0  0  0  0  0  0  0  0  0  0  0  0
   57.3810   29.4340   44.8910 C   0  0  0  0  0  0  0  0  0  0  0  0
   58.4370   30.2720   45.2840 C   0  0  0  0  0  0  0  0  0  0  0  0
   59.7690   29.6200   45.5790 C   0  0  0  0  0  0  0  0  0  0  0  0
   60.1270   28.6060   44.4800 C   0  0  0  0  0  0  0  0  0  0  0  0
   58.9660   27.6550   44.0880 C   0  0  0  0  0  0  0  0  0  0  0  0
   57.6340   27.9470   44.7990 C   0  0  0  0  0  0  0  0  0  0  0  0
   59.5400   31.4430   48.0420 C   0  0  0  0  0  0  0  0  0  0  0  0
   60.4170   27.9310   49.3770 C   0  0  0  0  0  0  0  0  0  0  0  0
   61.1130   26.9000   49.5820 O   0  0  0  0  0  0  0  0  0  0  0  0
   59.2610   27.8690   48.5250 N   0  0  0  0  0  0  0  0  0  0  0  0
   59.0090   26.8110   47.5840 C   0  0  0  0  0  0  0  0  0  0  0  0
   60.0870   26.2330   46.8950 C   0  0  0  0  0  0  0  0  0  0  0  0
   59.8740   25.1800   46.0010 C   0  0  0  0  0  0  0  0  0  0  0  0
   58.5830   24.6850   45.7960 C   0  0  0  0  0  0  0  0  0  0  0  0
   57.4990   25.2390   46.4890 C   0  0  0  0  0  0  0  0  0  0  0  0
   55.8820   24.5690   46.2760 S   0  0  0  0  0  0  0  0  0  0  0  0
   55.4190   23.9470   47.5650 O   0  0  0  0  0  0  0  0  0  0  0  0
   54.9370   25.6820   45.9170 O   0  0  0  0  0  0  0  0  0  0  0  0
   55.9040   23.3780   45.0000 N   0  0  0  0  0  0  0  0  0  0  0  0
   56.3240   24.0050   43.7340 C   0  0  0  0  0  0  0  0  0  0  0  0
   56.6350   22.9370   42.6660 C   0  0  0  0  0  0  0  0  0  0  0  0
   56.1560   21.6670   43.0650 O   0  0  0  0  0  0  0  0  0  0  0  0
   56.8520   21.2350   44.2220 C   0  0  0  0  0  0  0  0  0  0  0  0
   56.8180   22.2830   45.3540 C   0  0  0  0  0  0  0  0  0  0  0  0
   57.7150   26.2920   47.3900 C   0  0  0  0  0  0  0  0  0  0  0  0
  1  2  2  0
  2  3  1  0
  3  4  1  0
  4  5  2  0
  5  6  1  0
  6  7  2  0
  7  8  1  0
  8  9  1  0
  9 10  1  0
 10 11  2  0
 11 12  1  0
 12 13  1  0
 13 14  2  0
 13 15  1  0
 15 16  2  0
 16 17  1  0
 17 18  1  0
 18 19  1  0
 19 20  1  0
  8 21  2  0
  2 22  1  0
 22 23  2  0
 22 24  1  0
 24 25  1  0
 25 26  2  0
 26 27  1  0
 27 28  2  0
 28 29  1  0
 29 30  1  0
 30 31  2  0
 30 32  2  0
 30 33  1  0
 33 34  1  0
 34 35  1  0
 35 36  1  0
 36 37  1  0
 37 38  1  0
 29 39  2  0
 21  4  1  0
 39 25  1  0
 16 10  1  0
 38 33  1  0
 20 15  1  0
M  CHG  2   3  -1  12  -1
M  END
>  <UniqueID>  (1943) 
87

>  <SMILES>  (1943) 
O=C([N-]c1cccc(Cc2n[n-]c(=O)c3c2CCCC3)c1)C(=O)Nc1cccc(S(=O)(=O)N2CCOCC2)c1

>  <Energy>  (1943) 
90.85267930032863

>  <Genealogy>  (1943) 
O=C([N-]c1cccc(Cc2n[n-]c(=O)c3c2CCCC3)c1)C(=O)Nc1cccc(S(=O)(=O)N2CCOCC2)c1 (protonated)
O=C([N-]c1cccc(Cc2n[n-]c(=O)c3c2CCCC3)c1)C(=O)Nc1cccc(S(=O)(=O)N2CCOCC2)c1 (3D coordinates assigned)
O=C([N-]c1cccc(Cc2n[n-]c(=O)c3c2CCCC3)c1)C(=O)Nc1cccc(S(=O)(=O)N2CCOCC2)c1 (nonaromatic ring conformer: 90.85267930032863 kcal/mol)

>  <smiles>  (1943) 
O=C(Nc1cccc(Cc2n[nH]c(=O)c3c2CCCC3)c1)C(=O)Nc1cccc(S(=O)(=O)N2CCOCC2)c1

>  <score_type>  (1943) 
oracle

>  <origin>  (1943) 
adg

>  <m_score__min__energy>  (1943) 
-15.65

>  <m_primary>  (1943) 
energy

$$$$
12:0
     RDKit          3D

 36 40  0  0  0  0  0  0  0  0999 V2000
   58.9100   27.7760   46.8030 C   0  0  0  0  0  0  0  0  0  0  0  0
   58.3910   28.3560   45.7090 C   0  0  0  0  0  0  0  0  0  0  0  0
   57.7540   27.7060   44.6470 C   0  0  0  0  0  0  0  0  0  0  0  0
   57.5620   26.3810   44.4990 C   0  0  0  0  0  0  0  0  0  0  0  0
   56.9760   25.5100   45.5340 C   0  0  0  0  0  0  0  0  0  0  0  0
   57.6260   24.4620   46.0700 N   0  0  0  0  0  0  0  0  0  0  0  0
   56.7730   24.0150   47.0190 C   0  0  0  0  0  0  0  0  0  0  0  0
   57.0290   23.0190   47.7440 O   0  0  0  0  0  0  0  0  0  0  0  0
   55.6330   24.7280   47.1370 N   0  0  0  0  0  0  0  0  0  0  0  0
   55.7810   25.6790   46.2020 C   0  0  0  0  0  0  0  0  0  0  0  0
   54.8660   26.7040   45.9980 O   0  0  0  0  0  0  0  0  0  0  0  0
   57.4070   28.6970   43.7370 C   0  0  0  0  0  0  0  0  0  0  0  0
   57.8190   29.8960   44.2810 C   0  0  0  0  0  0  0  0  0  0  0  0
   57.6480   31.2320   43.6270 C   0  0  0  0  0  0  0  0  0  0  0  0
   58.4240   29.6910   45.4720 N   0  0  0  0  0  0  0  0  0  0  0  0
   58.9620   30.7130   46.3290 C   0  0  0  0  0  0  0  0  0  0  0  0
   58.1210   31.7130   46.8370 C   0  0  0  0  0  0  0  0  0  0  0  0
   58.6380   32.7130   47.6660 C   0  0  0  0  0  0  0  0  0  0  0  0
   60.0050   32.7340   47.9860 C   0  0  0  0  0  0  0  0  0  0  0  0
   60.5440   33.7890   48.8750 C   0  0  0  0  0  0  0  0  0  0  0  0
   59.7560   34.6480   49.3570 O   0  0  0  0  0  0  0  0  0  0  0  0
   61.9400   33.8360   49.2250 N   0  0  0  0  0  0  0  0  0  0  0  0
   62.9770   33.7040   48.1910 C   0  0  0  0  0  0  0  0  0  0  0  0
   64.1340   32.8380   48.7080 C   0  0  0  0  0  0  0  0  0  0  0  0
   64.4740   33.1600   50.1030 N   0  0  0  0  0  0  0  0  0  0  0  0
   65.4590   32.3590   50.7800 C   0  0  0  0  0  0  0  0  0  0  0  0
   66.4260   31.8820   50.1240 O   0  0  0  0  0  0  0  0  0  0  0  0
   65.3650   32.0940   52.2600 C   0  0  0  0  0  0  0  0  0  0  0  0
   64.4000   30.9370   52.5600 C   0  0  0  0  0  0  0  0  0  0  0  0
   64.5590   29.7070   51.6770 C   0  0  0  0  0  0  0  0  0  0  0  0
   63.3780   30.6440   51.4730 C   0  0  0  0  0  0  0  0  0  0  0  0
   63.8360   34.3120   50.7550 C   0  0  0  0  0  0  0  0  0  0  0  0
   62.3160   34.2180   50.5950 C   0  0  0  0  0  0  0  0  0  0  0  0
   60.8420   31.7220   47.4870 C   0  0  0  0  0  0  0  0  0  0  0  0
   60.3250   30.7190   46.6610 C   0  0  0  0  0  0  0  0  0  0  0  0
   61.1450   29.7380   46.2070 F   0  0  0  0  0  0  0  0  0  0  0  0
  1  2  2  0
  2  3  1  0
  3  4  2  0
  4  5  1  0
  5  6  1  0
  6  7  1  0
  7  8  2  0
  7  9  1  0
  9 10  1  0
 10 11  1  0
  3 12  1  0
 12 13  2  0
 13 14  1  0
 13 15  1  0
 15 16  1  0
 16 17  2  0
 17 18  1  0
 18 19  2  0
 19 20  1  0
 20 21  2  0
 20 22  1  0
 22 23  1  0
 23 24  1  0
 24 25  1  0
 25 26  1  0
 26 27  2  0
 26 28  1  0
 28 29  1  0
 29 30  1  0
 30 31  1  0
 25 32  1  0
 32 33  1  0
 19 34  1  0
 34 35  2  0
 35 36  1  0
 15  2  1  0
 35 16  1  0
 10  5  2  0
 33 22  1  0
 31 29  1  0
M  CHG  3   6  -1   9  -1  11  -1
M  END
>  <UniqueID>  (1944) 
13

>  <SMILES>  (1944) 
C=c1/c(=C/c2[n-]c(=O)[n-]c2[O-])cc(C)n1-c1ccc(C(=O)N2CCN(C(=O)CC3CC3)CC2)cc1F

>  <Energy>  (1944) 
405.6778002154145

>  <Genealogy>  (1944) 
C=c1c(=Cc2[n-]c(=O)[n-]c2[O-])cc(C)n1-c1ccc(C(=O)N2CCN(C(=O)CC3CC3)CC2)cc1F (protonated)
C=c1/c(=C/c2[n-]c(=O)[n-]c2[O-])cc(C)n1-c1ccc(C(=O)N2CCN(C(=O)CC3CC3)CC2)cc1F (cis-trans isomerization)
C=c1/c(=C/c2[n-]c(=O)[n-]c2[O-])cc(C)n1-c1ccc(C(=O)N2CCN(C(=O)CC3CC3)CC2)cc1F (3D coordinates assigned)
C=c1/c(=C/c2[n-]c(=O)[n-]c2[O-])cc(C)n1-c1ccc(C(=O)N2CCN(C(=O)CC3CC3)CC2)cc1F (nonaromatic ring conformer: 405.6778002154145 kcal/mol)

>  <smiles>  (1944) 
C=c1c(=Cc2[nH]c(=O)[nH]c2O)cc(C)n1-c1ccc(C(=O)N2CCN(C(=O)CC3CC3)CC2)cc1F

>  <score_type>  (1944) 
oracle

>  <origin>  (1944) 
adg

>  <m_score__min__energy>  (1944) 
-17.559999999999999

>  <m_primary>  (1944) 
energy

$$$$
21:0
     RDKit          3D

 42 46  0  0  0  0  0  0  0  0999 V2000
   60.3680   29.7570   46.4110 C   0  0  0  0  0  0  0  0  0  0  0  0
   59.7010   30.9220   46.3790 C   0  0  0  0  0  0  0  0  0  0  0  0
   58.5400   31.2200   45.6450 C   0  0  0  0  0  0  0  0  0  0  0  0
   57.7070   30.4250   44.9450 C   0  0  0  0  0  0  0  0  0  0  0  0
   57.2080   29.1140   45.3780 C   0  0  0  0  0  0  0  0  0  0  0  0
   58.0020   28.1290   45.8340 N   0  0  0  0  0  0  0  0  0  0  0  0
   57.1510   27.0930   45.9950 C   0  0  0  0  0  0  0  0  0  0  0  0
   57.5240   25.9710   46.4290 O   0  0  0  0  0  0  0  0  0  0  0  0
   55.8730   27.3480   45.6440 N   0  0  0  0  0  0  0  0  0  0  0  0
   55.9280   28.6270   45.2430 C   0  0  0  0  0  0  0  0  0  0  0  0
   54.8380   29.3270   44.7420 O   0  0  0  0  0  0  0  0  0  0  0  0
   58.3550   32.5890   45.7500 C   0  0  0  0  0  0  0  0  0  0  0  0
   59.3500   33.0650   46.5770 C   0  0  0  0  0  0  0  0  0  0  0  0
   59.5200   34.5020   46.9680 C   0  0  0  0  0  0  0  0  0  0  0  0
   60.1660   32.0580   46.9610 N   0  0  0  0  0  0  0  0  0  0  0  0
   61.3370   32.1970   47.7830 C   0  0  0  0  0  0  0  0  0  0  0  0
   61.2300   32.6940   49.0890 C   0  0  0  0  0  0  0  0  0  0  0  0
   62.3710   32.8420   49.8820 C   0  0  0  0  0  0  0  0  0  0  0  0
   63.6380   32.5030   49.3800 C   0  0  0  0  0  0  0  0  0  0  0  0
   64.8360   32.6770   50.2360 C   0  0  0  0  0  0  0  0  0  0  0  0
   65.5260   33.7280   50.0980 O   0  0  0  0  0  0  0  0  0  0  0  0
   65.2770   31.6370   51.1530 N   0  0  0  0  0  0  0  0  0  0  0  0
   64.2300   30.5920   51.3490 C   0  0  0  0  0  0  0  0  0  0  0  0
   63.5290   30.6570   52.7180 C   0  0  0  0  0  0  0  0  0  0  0  0
   63.4120   32.0480   53.1670 N   0  0  0  0  0  0  0  0  0  0  0  0
   62.1720   32.5860   53.6610 C   0  0  0  0  0  0  0  0  0  0  0  0
   62.1930   33.4120   54.6140 O   0  0  0  0  0  0  0  0  0  0  0  0
   60.8500   32.1640   53.0740 C   0  0  0  0  0  0  0  0  0  0  0  0
   60.1450   31.1100   53.9430 C   0  0  0  0  0  0  0  0  0  0  0  0
   59.7850   29.8380   53.1570 C   0  0  0  0  0  0  0  0  0  0  0  0
   59.7840   30.0550   51.6370 C   0  0  0  0  0  0  0  0  0  0  0  0
   58.3910   30.1780   51.1470 N   0  0  0  0  0  0  0  0  0  0  0  0
   57.4170   30.4200   52.2410 C   0  0  0  0  0  0  0  0  0  0  0  0
   57.1280   31.9190   52.4760 C   0  0  0  0  0  0  0  0  0  0  0  0
   58.2790   32.7290   52.0510 N   0  0  0  0  0  0  0  0  0  0  0  0
   58.0960   34.1330   52.4420 C   0  0  0  0  0  0  0  0  0  0  0  0
   58.4870   32.6220   50.5910 C   0  0  0  0  0  0  0  0  0  0  0  0
   58.2580   31.1840   50.0740 C   0  0  0  0  0  0  0  0  0  0  0  0
   64.6280   32.8640   53.2420 C   0  0  0  0  0  0  0  0  0  0  0  0
   65.7650   32.2360   52.4170 C   0  0  0  0  0  0  0  0  0  0  0  0
   63.7380   31.9810   48.0770 C   0  0  0  0  0  0  0  0  0  0  0  0
   62.5950   31.8350   47.2840 C   0  0  0  0  0  0  0  0  0  0  0  0
  1  2  2  0
  2  3  1  0
  3  4  2  0
  4  5  1  0
  5  6  1  0
  6  7  1  0
  7  8  2  0
  7  9  1  0
  9 10  1  0
 10 11  1  0
  3 12  1  0
 12 13  2  0
 13 14  1  0
 13 15  1  0
 15 16  1  0
 16 17  2  0
 17 18  1  0
 18 19  2  0
 19 20  1  0
 20 21  2  0
 20 22  1  0
 22 23  1  0
 23 24  1  0
 24 25  1  0
 25 26  1  0
 26 27  2  0
 26 28  1  0
 28 29  1  0
 29 30  1  0
 30 31  1  0
 31 32  1  0
 32 33  1  0
 33 34  1  0
 34 35  1  0
 35 36  1  0
 35 37  1  0
 37 38  1  0
 25 39  1  0
 39 40  1  0
 19 41  1  0
 41 42  2  0
 15  2  1  0
 42 16  1  0
 10  5  2  0
 40 22  1  0
 38 32  1  0
M  CHG  4   6  -1   9  -1  11  -1  22   1
M  END
>  <UniqueID>  (1945) 
21

>  <SMILES>  (1945) 
C=c1/c(=C\c2[n-]c(=O)[n-]c2[O-])cc(C)n1-c1ccc(C(=O)[NH+]2CCN(C(=O)CCCCN3CCN(C)CC3)CC2)cc1

>  <Energy>  (1945) 
181.86914439135933

>  <Genealogy>  (1945) 
C=c1c(=Cc2[n-]c(=O)[n-]c2[O-])cc(C)n1-c1ccc(C(=O)[NH+]2CCN(C(=O)CCCCN3CCN(C)CC3)CC2)cc1 (protonated)
C=c1/c(=C\c2[n-]c(=O)[n-]c2[O-])cc(C)n1-c1ccc(C(=O)[NH+]2CCN(C(=O)CCCCN3CCN(C)CC3)CC2)cc1 (cis-trans isomerization)
C=c1/c(=C\c2[n-]c(=O)[n-]c2[O-])cc(C)n1-c1ccc(C(=O)[NH+]2CCN(C(=O)CCCCN3CCN(C)CC3)CC2)cc1 (3D coordinates assigned)
C=c1/c(=C\c2[n-]c(=O)[n-]c2[O-])cc(C)n1-c1ccc(C(=O)[NH+]2CCN(C(=O)CCCCN3CCN(C)CC3)CC2)cc1 (nonaromatic ring conformer: 181.86914439135933 kcal/mol)

>  <smiles>  (1945) 
C=c1c(=Cc2[nH]c(=O)[nH]c2O)cc(C)n1-c1ccc(C(=O)N2CCN(C(=O)CCCCN3CCN(C)CC3)CC2)cc1

>  <score_type>  (1945) 
oracle

>  <origin>  (1945) 
adg

>  <m_score__min__energy>  (1945) 
-16.48

>  <m_primary>  (1945) 
energy

$$$$
25:0
     RDKit          3D

 35 38  0  0  0  0  0  0  0  0999 V2000
   57.6130   25.8900   47.1230 C   0  0  0  0  0  0  0  0  0  0  0  0
   58.8220   25.8770   46.5290 C   0  0  0  0  0  0  0  0  0  0  0  0
   59.2980   24.6260   45.9880 C   0  0  0  0  0  0  0  0  0  0  0  0
   59.6810   23.6240   45.5550 N   0  0  0  0  0  0  0  0  0  0  0  0
   59.7340   27.0500   46.5000 C   0  0  0  0  0  0  0  0  0  0  0  0
   60.9760   26.8720   46.3670 O   0  0  0  0  0  0  0  0  0  0  0  0
   59.2380   28.3960   46.5040 N   0  0  0  0  0  0  0  0  0  0  0  0
   58.5490   29.0630   45.4370 C   0  0  0  0  0  0  0  0  0  0  0  0
   57.6220   28.3920   44.6210 C   0  0  0  0  0  0  0  0  0  0  0  0
   56.9410   29.0830   43.6150 C   0  0  0  0  0  0  0  0  0  0  0  0
   57.1760   30.4460   43.4170 C   0  0  0  0  0  0  0  0  0  0  0  0
   58.1020   31.1290   44.2220 C   0  0  0  0  0  0  0  0  0  0  0  0
   58.3480   32.5730   44.0330 C   0  0  0  0  0  0  0  0  0  0  0  0
   58.1270   33.0840   42.9020 O   0  0  0  0  0  0  0  0  0  0  0  0
   58.8080   33.4110   45.1100 N   0  0  0  0  0  0  0  0  0  0  0  0
   59.2460   34.7800   44.8980 C   0  0  0  0  0  0  0  0  0  0  0  0
   59.5550   35.3320   46.2820 C   0  0  0  0  0  0  0  0  0  0  0  0
   58.8440   34.4070   47.2640 C   0  0  0  0  0  0  0  0  0  0  0  0
   58.6360   33.0950   46.5210 C   0  0  0  0  0  0  0  0  0  0  0  0
   58.7630   30.4340   45.2480 C   0  0  0  0  0  0  0  0  0  0  0  0
   56.4430   25.0990   46.6760 C   0  0  0  0  0  0  0  0  0  0  0  0
   55.4080   25.7250   45.9760 C   0  0  0  0  0  0  0  0  0  0  0  0
   55.4770   27.0800   45.6700 O   0  0  0  0  0  0  0  0  0  0  0  0
   54.3290   25.0080   45.5800 N   0  0  0  0  0  0  0  0  0  0  0  0
   54.2160   23.6840   45.8540 C   0  0  0  0  0  0  0  0  0  0  0  0
   53.2010   23.0590   45.4420 O   0  0  0  0  0  0  0  0  0  0  0  0
   55.1960   23.0390   46.5620 N   0  0  0  0  0  0  0  0  0  0  0  0
   55.0670   21.6330   46.8610 C   0  0  0  0  0  0  0  0  0  0  0  0
   54.0600   21.1810   47.7290 C   0  0  0  0  0  0  0  0  0  0  0  0
   53.9420   19.8190   48.0200 C   0  0  0  0  0  0  0  0  0  0  0  0
   54.8250   18.9000   47.4460 C   0  0  0  0  0  0  0  0  0  0  0  0
   55.8290   19.3420   46.5800 C   0  0  0  0  0  0  0  0  0  0  0  0
   55.9520   20.7050   46.2870 C   0  0  0  0  0  0  0  0  0  0  0  0
   56.2980   23.7340   46.9910 C   0  0  0  0  0  0  0  0  0  0  0  0
   57.1750   23.1580   47.6940 O   0  0  0  0  0  0  0  0  0  0  0  0
  1  2  2  0
  2  3  1  0
  3  4  3  0
  2  5  1  0
  5  6  2  0
  5  7  1  0
  7  8  1  0
  8  9  2  0
  9 10  1  0
 10 11  2  0
 11 12  1  0
 12 13  1  0
 13 14  2  0
 13 15  1  0
 15 16  1  0
 16 17  1  0
 17 18  1  0
 18 19  1  0
 12 20  2  0
  1 21  1  0
 21 22  2  0
 22 23  1  0
 22 24  1  0
 24 25  1  0
 25 26  2  0
 25 27  1  0
 27 28  1  0
 28 29  2  0
 29 30  1  0
 30 31  2  0
 31 32  1  0
 32 33  2  0
 27 34  1  0
 34 35  2  0
 20  8  1  0
 34 21  1  0
 19 15  1  0
 33 28  1  0
M  CHG  3   7  -1  23  -1  24  -1
M  END
>  <UniqueID>  (1946) 
25

>  <SMILES>  (1946) 
N#C/C(=C/c1c([O-])[n-]c(=O)n(-c2ccccc2)c1=O)C(=O)[N-]c1cccc(C(=O)N2CCCC2)c1

>  <Energy>  (1946) 
85.65856743879024

>  <Genealogy>  (1946) 
N#CC(=Cc1c([O-])[n-]c(=O)n(-c2ccccc2)c1=O)C(=O)[N-]c1cccc(C(=O)N2CCCC2)c1 (protonated)
N#C/C(=C/c1c([O-])[n-]c(=O)n(-c2ccccc2)c1=O)C(=O)[N-]c1cccc(C(=O)N2CCCC2)c1 (cis-trans isomerization)
N#C/C(=C/c1c([O-])[n-]c(=O)n(-c2ccccc2)c1=O)C(=O)[N-]c1cccc(C(=O)N2CCCC2)c1 (3D coordinates assigned)
N#C/C(=C/c1c([O-])[n-]c(=O)n(-c2ccccc2)c1=O)C(=O)[N-]c1cccc(C(=O)N2CCCC2)c1 (nonaromatic ring conformer: 85.65856743879024 kcal/mol)

>  <smiles>  (1946) 
N#CC(=Cc1c(O)[nH]c(=O)n(-c2ccccc2)c1=O)C(=O)Nc1cccc(C(=O)N2CCCC2)c1

>  <score_type>  (1946) 
oracle

>  <origin>  (1946) 
adg

>  <m_score__min__energy>  (1946) 
-15.220000000000001

>  <m_primary>  (1946) 
energy

$$$$
30:0
     RDKit          3D

 30 33  0  0  0  0  0  0  0  0999 V2000
   58.2330   30.0920   43.8890 C   0  0  0  0  0  0  0  0  0  0  0  0
   58.2210   29.7740   45.1930 C   0  0  0  0  0  0  0  0  0  0  0  0
   58.0500   28.5010   45.7620 C   0  0  0  0  0  0  0  0  0  0  0  0
   57.7050   27.3210   45.2100 C   0  0  0  0  0  0  0  0  0  0  0  0
   57.1880   26.1520   45.9360 C   0  0  0  0  0  0  0  0  0  0  0  0
   57.9750   25.2230   46.5040 N   0  0  0  0  0  0  0  0  0  0  0  0
   57.1010   24.4380   47.1720 C   0  0  0  0  0  0  0  0  0  0  0  0
   57.4640   23.4300   47.8310 O   0  0  0  0  0  0  0  0  0  0  0  0
   55.8120   24.8270   47.0900 N   0  0  0  0  0  0  0  0  0  0  0  0
   55.8850   25.9230   46.3180 C   0  0  0  0  0  0  0  0  0  0  0  0
   54.7890   26.7130   45.9950 O   0  0  0  0  0  0  0  0  0  0  0  0
   58.2940   28.6480   47.1190 C   0  0  0  0  0  0  0  0  0  0  0  0
   58.5510   29.9850   47.3380 C   0  0  0  0  0  0  0  0  0  0  0  0
   58.8090   30.5990   48.6790 C   0  0  0  0  0  0  0  0  0  0  0  0
   58.4910   30.6700   46.1750 N   0  0  0  0  0  0  0  0  0  0  0  0
   58.7540   32.0770   46.0230 C   0  0  0  0  0  0  0  0  0  0  0  0
   57.7410   32.9200   45.5340 C   0  0  0  0  0  0  0  0  0  0  0  0
   56.4880   32.4030   45.2230 O   0  0  0  0  0  0  0  0  0  0  0  0
   57.9870   34.2830   45.3520 C   0  0  0  0  0  0  0  0  0  0  0  0
   59.2410   34.8140   45.6510 C   0  0  0  0  0  0  0  0  0  0  0  0
   60.2560   33.9850   46.1330 C   0  0  0  0  0  0  0  0  0  0  0  0
   60.0290   32.6110   46.3150 C   0  0  0  0  0  0  0  0  0  0  0  0
   61.1160   31.7570   46.8470 C   0  0  0  0  0  0  0  0  0  0  0  0
   61.2590   30.5920   46.3840 O   0  0  0  0  0  0  0  0  0  0  0  0
   61.9970   32.2150   47.8950 N   0  0  0  0  0  0  0  0  0  0  0  0
   62.6590   31.2170   48.7490 C   0  0  0  0  0  0  0  0  0  0  0  0
   63.4380   31.8810   49.8900 C   0  0  0  0  0  0  0  0  0  0  0  0
   64.3990   32.9520   49.3540 C   0  0  0  0  0  0  0  0  0  0  0  0
   63.7610   33.8880   48.3040 C   0  0  0  0  0  0  0  0  0  0  0  0
   62.2590   33.6480   48.1040 C   0  0  0  0  0  0  0  0  0  0  0  0
  1  2  2  0
  2  3  1  0
  3  4  2  3
  4  5  1  0
  5  6  1  0
  6  7  1  0
  7  8  2  0
  7  9  1  0
  9 10  1  0
 10 11  1  0
  3 12  1  0
 12 13  2  0
 13 14  1  0
 13 15  1  0
 15 16  1  0
 16 17  2  0
 17 18  1  0
 17 19  1  0
 19 20  2  0
 20 21  1  0
 21 22  2  0
 22 23  1  0
 23 24  2  0
 23 25  1  0
 25 26  1  0
 26 27  1  0
 27 28  1  0
 28 29  1  0
 29 30  1  0
 15  2  1  0
 22 16  1  0
 30 25  1  0
 10  5  2  0
M  CHG  4   6  -1   9  -1  11  -1  18  -1
M  END
>  <UniqueID>  (1947) 
30

>  <SMILES>  (1947) 
C=c1c(=Cc2[n-]c(=O)[n-]c2[O-])cc(C)n1-c1c([O-])cccc1C(=O)N1CCCCC1

>  <Energy>  (1947) 
134.3073268481723

>  <Genealogy>  (1947) 
C=c1c(=Cc2[n-]c(=O)[n-]c2[O-])cc(C)n1-c1c([O-])cccc1C(=O)N1CCCCC1 (protonated)
C=c1c(=Cc2[n-]c(=O)[n-]c2[O-])cc(C)n1-c1c([O-])cccc1C(=O)N1CCCCC1 (3D coordinates assigned)
C=c1c(=Cc2[n-]c(=O)[n-]c2[O-])cc(C)n1-c1c([O-])cccc1C(=O)N1CCCCC1 (nonaromatic ring conformer: 134.3073268481723 kcal/mol)

>  <smiles>  (1947) 
C=c1c(=Cc2[nH]c(=O)[nH]c2O)cc(C)n1-c1c(O)cccc1C(=O)N1CCCCC1

>  <score_type>  (1947) 
oracle

>  <origin>  (1947) 
adg

>  <m_score__min__energy>  (1947) 
-17.890000000000001

>  <m_primary>  (1947) 
energy

$$$$
31:0
     RDKit          3D

 25 26  0  0  0  0  0  0  0  0999 V2000
   60.2760   34.3060   49.3590 C   0  0  0  0  0  0  0  0  0  0  0  0
   59.9430   33.3610   50.2780 N   0  0  0  0  0  0  0  0  0  0  0  0
   59.0060   32.4050   50.0360 C   0  0  0  0  0  0  0  0  0  0  0  0
   58.7590   31.5370   50.9780 N   0  0  0  0  0  0  0  0  0  0  0  0
   58.1550   30.2370   50.8810 C   0  0  0  0  0  0  0  0  0  0  0  0
   57.2210   29.8940   51.6540 O   0  0  0  0  0  0  0  0  0  0  0  0
   58.5720   29.3610   49.8300 N   0  0  0  0  0  0  0  0  0  0  0  0
   59.9680   29.0510   49.5410 C   0  0  0  0  0  0  0  0  0  0  0  0
   60.4570   29.8480   48.3370 C   0  0  0  0  0  0  0  0  0  0  0  0
   58.3270   32.4140   48.7980 C   0  0  0  0  0  0  0  0  0  0  0  0
   58.6530   33.3800   47.8330 C   0  0  0  0  0  0  0  0  0  0  0  0
   57.9730   33.3780   46.4870 C   0  0  0  0  0  0  0  0  0  0  0  0
   58.9070   32.8760   45.3770 C   0  0  0  0  0  0  0  0  0  0  0  0
   58.1500   32.1270   44.2730 C   0  0  0  0  0  0  0  0  0  0  0  0
   58.5510   30.7590   44.2370 O   0  0  0  0  0  0  0  0  0  0  0  0
   57.7300   29.7230   44.6970 C   0  0  0  0  0  0  0  0  0  0  0  0
   58.2700   28.5220   45.1930 C   0  0  0  0  0  0  0  0  0  0  0  0
   60.0060   28.2900   45.3390 Cl  0  0  0  0  0  0  0  0  0  0  0  0
   57.4140   27.5090   45.6320 C   0  0  0  0  0  0  0  0  0  0  0  0
   56.0330   27.7070   45.5840 C   0  0  0  0  0  0  0  0  0  0  0  0
   55.1700   26.7080   46.0160 O   0  0  0  0  0  0  0  0  0  0  0  0
   55.5300   28.8810   45.1200 N   0  0  0  0  0  0  0  0  0  0  0  0
   56.3370   29.8840   44.6850 C   0  0  0  0  0  0  0  0  0  0  0  0
   55.8260   30.9560   44.2640 O   0  0  0  0  0  0  0  0  0  0  0  0
   59.6470   34.3250   48.1170 C   0  0  0  0  0  0  0  0  0  0  0  0
  1  2  1  0
  2  3  1  0
  3  4  2  0
  4  5  1  0
  5  6  2  0
  5  7  1  0
  7  8  1  0
  8  9  1  0
  3 10  1  0
 10 11  2  0
 11 12  1  0
 12 13  1  0
 13 14  1  0
 14 15  1  0
 15 16  1  0
 16 17  2  0
 17 18  1  0
 17 19  1  0
 19 20  2  0
 20 21  1  0
 20 22  1  0
 22 23  1  0
 23 24  2  0
 11 25  1  0
 25  1  2  0
 23 16  1  0
M  CHG  4   2  -1   7  -1  21  -1  22  -1
M  END
>  <UniqueID>  (1948) 
31

>  <SMILES>  (1948) 
CC[N-]C(=O)/N=c1\cc(CCCOc2c(Cl)cc([O-])[n-]c2=O)cc[n-]1

>  <Energy>  (1948) 
46.779669303765566

>  <Genealogy>  (1948) 
CC[N-]C(=O)N=c1cc(CCCOc2c(Cl)cc([O-])[n-]c2=O)cc[n-]1 (protonated)
CC[N-]C(=O)/N=c1\cc(CCCOc2c(Cl)cc([O-])[n-]c2=O)cc[n-]1 (cis-trans isomerization)
CC[N-]C(=O)/N=c1\cc(CCCOc2c(Cl)cc([O-])[n-]c2=O)cc[n-]1 (3D coordinates assigned)
CC[N-]C(=O)/N=c1\cc(CCCOc2c(Cl)cc([O-])[n-]c2=O)cc[n-]1 (optimized conformer: 46.779669303765566 kcal/mol)

>  <smiles>  (1948) 
CCNC(=O)N=c1cc(CCCOc2c(Cl)cc(O)[nH]c2=O)cc[nH]1

>  <score_type>  (1948) 
oracle

>  <origin>  (1948) 
adg

>  <m_score__min__energy>  (1948) 
-14.390000000000001

>  <m_primary>  (1948) 
energy

$$$$
34:0
     RDKit          3D

 31 34  0  0  0  0  0  0  0  0999 V2000
   59.5390   29.8440   47.3820 C   0  0  0  0  0  0  0  0  0  0  0  0
   59.1380   30.7110   46.4400 C   0  0  0  0  0  0  0  0  0  0  0  0
   58.4690   30.4150   45.2410 C   0  0  0  0  0  0  0  0  0  0  0  0
   58.2240   29.2380   44.6310 C   0  0  0  0  0  0  0  0  0  0  0  0
   57.4230   28.1360   45.1830 C   0  0  0  0  0  0  0  0  0  0  0  0
   57.9530   27.0870   45.8350 N   0  0  0  0  0  0  0  0  0  0  0  0
   56.8690   26.4110   46.2740 C   0  0  0  0  0  0  0  0  0  0  0  0
   56.9580   25.3390   46.9280 O   0  0  0  0  0  0  0  0  0  0  0  0
   55.6830   26.9800   45.9690 N   0  0  0  0  0  0  0  0  0  0  0  0
   56.0510   28.0800   45.2930 C   0  0  0  0  0  0  0  0  0  0  0  0
   55.1540   29.0250   44.8120 O   0  0  0  0  0  0  0  0  0  0  0  0
   58.0640   31.6310   44.7140 C   0  0  0  0  0  0  0  0  0  0  0  0
   58.5480   32.6130   45.5520 C   0  0  0  0  0  0  0  0  0  0  0  0
   58.3650   34.0850   45.3390 C   0  0  0  0  0  0  0  0  0  0  0  0
   59.1970   32.0580   46.5980 N   0  0  0  0  0  0  0  0  0  0  0  0
   59.8020   32.7770   47.6870 C   0  0  0  0  0  0  0  0  0  0  0  0
   60.9960   33.4780   47.4790 C   0  0  0  0  0  0  0  0  0  0  0  0
   61.5870   34.1830   48.5270 C   0  0  0  0  0  0  0  0  0  0  0  0
   60.9950   34.1890   49.7920 C   0  0  0  0  0  0  0  0  0  0  0  0
   59.8050   33.4770   50.0240 C   0  0  0  0  0  0  0  0  0  0  0  0
   59.1780   33.4950   51.3670 C   0  0  0  0  0  0  0  0  0  0  0  0
   58.9930   34.6000   51.9440 O   0  0  0  0  0  0  0  0  0  0  0  0
   58.7830   32.2760   52.0280 N   0  0  0  0  0  0  0  0  0  0  0  0
   57.5230   32.2070   52.7730 C   0  0  0  0  0  0  0  0  0  0  0  0
   56.5820   31.2320   52.0710 C   0  0  0  0  0  0  0  0  0  0  0  0
   57.2520   29.9580   51.8180 N   0  0  0  0  0  0  0  0  0  0  0  0
   58.6650   29.8750   51.5830 C   0  0  0  0  0  0  0  0  0  0  0  0
   59.1680   28.7930   51.1790 O   0  0  0  0  0  0  0  0  0  0  0  0
   59.5650   31.0430   51.8740 C   0  0  0  0  0  0  0  0  0  0  0  0
   59.2060   32.7750   48.9600 C   0  0  0  0  0  0  0  0  0  0  0  0
   58.0770   32.0500   49.1650 F   0  0  0  0  0  0  0  0  0  0  0  0
  1  2  2  0
  2  3  1  0
  3  4  2  3
  4  5  1  0
  5  6  1  0
  6  7  1  0
  7  8  2  0
  7  9  1  0
  9 10  1  0
 10 11  1  0
  3 12  1  0
 12 13  2  0
 13 14  1  0
 13 15  1  0
 15 16  1  0
 16 17  2  0
 17 18  1  0
 18 19  2  0
 19 20  1  0
 20 21  1  0
 21 22  2  0
 21 23  1  0
 23 24  1  0
 24 25  1  0
 25 26  1  0
 26 27  1  0
 27 28  2  0
 27 29  1  0
 20 30  2  0
 30 31  1  0
 15  2  1  0
 30 16  1  0
 10  5  2  0
 29 23  1  0
M  CHG  3   6  -1   9  -1  11  -1
M  END
>  <UniqueID>  (1949) 
34

>  <SMILES>  (1949) 
C=c1c(=Cc2[n-]c(=O)[n-]c2[O-])cc(C)n1-c1cccc(C(=O)N2CCNC(=O)C2)c1F

>  <Energy>  (1949) 
132.2527283238155

>  <Genealogy>  (1949) 
C=c1c(=Cc2[n-]c(=O)[n-]c2[O-])cc(C)n1-c1cccc(C(=O)N2CCNC(=O)C2)c1F (protonated)
C=c1c(=Cc2[n-]c(=O)[n-]c2[O-])cc(C)n1-c1cccc(C(=O)N2CCNC(=O)C2)c1F (3D coordinates assigned)
C=c1c(=Cc2[n-]c(=O)[n-]c2[O-])cc(C)n1-c1cccc(C(=O)N2CCNC(=O)C2)c1F (nonaromatic ring conformer: 132.2527283238155 kcal/mol)

>  <smiles>  (1949) 
C=c1c(=Cc2[nH]c(=O)[nH]c2O)cc(C)n1-c1cccc(C(=O)N2CCNC(=O)C2)c1F

>  <score_type>  (1949) 
oracle

>  <origin>  (1949) 
adg

>  <m_score__min__energy>  (1949) 
-16.609999999999999

>  <m_primary>  (1949) 
energy

$$$$
37:0
     RDKit          3D

 31 34  0  0  0  0  0  0  0  0999 V2000
   54.6890   30.8670   51.4550 C   0  0  0  0  0  0  0  0  0  0  0  0
   54.5460   30.5450   52.7500 C   0  0  0  0  0  0  0  0  0  0  0  0
   53.3710   30.6000   53.5180 C   0  0  0  0  0  0  0  0  0  0  0  0
   52.0880   30.7760   53.1480 C   0  0  0  0  0  0  0  0  0  0  0  0
   51.6280   30.9980   51.7650 C   0  0  0  0  0  0  0  0  0  0  0  0
   51.8910   30.1630   50.7450 N   0  0  0  0  0  0  0  0  0  0  0  0
   51.3870   30.8140   49.6760 C   0  0  0  0  0  0  0  0  0  0  0  0
   51.4180   30.3280   48.5140 O   0  0  0  0  0  0  0  0  0  0  0  0
   50.8500   32.0230   49.9450 N   0  0  0  0  0  0  0  0  0  0  0  0
   51.0230   32.1310   51.2700 C   0  0  0  0  0  0  0  0  0  0  0  0
   50.6500   33.2440   52.0040 O   0  0  0  0  0  0  0  0  0  0  0  0
   53.7560   30.3860   54.8340 C   0  0  0  0  0  0  0  0  0  0  0  0
   55.1130   30.1340   54.8150 C   0  0  0  0  0  0  0  0  0  0  0  0
   55.9430   29.8090   56.0150 C   0  0  0  0  0  0  0  0  0  0  0  0
   55.5890   30.2270   53.5550 N   0  0  0  0  0  0  0  0  0  0  0  0
   56.9550   30.0380   53.1570 C   0  0  0  0  0  0  0  0  0  0  0  0
   57.6500   31.0830   52.5340 C   0  0  0  0  0  0  0  0  0  0  0  0
   58.9570   30.8850   52.0430 C   0  0  0  0  0  0  0  0  0  0  0  0
   59.6510   31.9430   51.3330 N   0  0  0  0  0  0  0  0  0  0  0  0
   61.0520   32.2280   51.6760 C   0  0  0  0  0  0  0  0  0  0  0  0
   61.5770   33.4630   50.9470 C   0  0  0  0  0  0  0  0  0  0  0  0
   61.1870   33.4490   49.5280 N   0  0  0  0  0  0  0  0  0  0  0  0
   61.8330   32.3550   48.8110 C   0  0  0  0  0  0  0  0  0  0  0  0
   61.0930   31.1590   48.2590 C   0  0  0  0  0  0  0  0  0  0  0  0
   63.0450   32.3770   48.6720 O   0  0  0  0  0  0  0  0  0  0  0  0
   59.7150   33.5220   49.3530 C   0  0  0  0  0  0  0  0  0  0  0  0
   58.8880   32.9030   50.5130 C   0  0  0  0  0  0  0  0  0  0  0  0
   59.5520   29.6150   52.2170 C   0  0  0  0  0  0  0  0  0  0  0  0
   58.8650   28.5820   52.8620 C   0  0  0  0  0  0  0  0  0  0  0  0
   57.5680   28.7900   53.3260 C   0  0  0  0  0  0  0  0  0  0  0  0
   56.8960   27.7730   53.9240 F   0  0  0  0  0  0  0  0  0  0  0  0
  1  2  2  0
  2  3  1  0
  3  4  2  3
  4  5  1  0
  5  6  1  0
  6  7  1  0
  7  8  2  0
  7  9  1  0
  9 10  1  0
 10 11  1  0
  3 12  1  0
 12 13  2  0
 13 14  1  0
 13 15  1  0
 15 16  1  0
 16 17  2  0
 17 18  1  0
 18 19  1  0
 19 20  1  0
 20 21  1  0
 21 22  1  0
 22 23  1  0
 23 24  1  0
 23 25  2  0
 22 26  1  0
 26 27  1  0
 18 28  2  0
 28 29  1  0
 29 30  2  0
 30 31  1  0
 15  2  1  0
 30 16  1  0
 10  5  2  0
 27 19  1  0
M  CHG  4   6  -1   9  -1  11  -1  22   1
M  END
>  <UniqueID>  (1950) 
36

>  <SMILES>  (1950) 
C=c1c(=Cc2[n-]c(=O)[n-]c2[O-])cc(C)n1-c1cc(N2CC[NH+](C(C)=O)CC2)ccc1F

>  <Energy>  (1950) 
147.25340864434145

>  <Genealogy>  (1950) 
C=c1c(=Cc2[n-]c(=O)[n-]c2[O-])cc(C)n1-c1cc(N2CC[NH+](C(C)=O)CC2)ccc1F (protonated)
C=c1c(=Cc2[n-]c(=O)[n-]c2[O-])cc(C)n1-c1cc(N2CC[NH+](C(C)=O)CC2)ccc1F (3D coordinates assigned)
C=c1c(=Cc2[n-]c(=O)[n-]c2[O-])cc(C)n1-c1cc(N2CC[NH+](C(C)=O)CC2)ccc1F (nonaromatic ring conformer: 147.25340864434145 kcal/mol)

>  <smiles>  (1950) 
C=c1c(=Cc2[nH]c(=O)[nH]c2O)cc(C)n1-c1cc(N2CCN(C(C)=O)CC2)ccc1F

>  <score_type>  (1950) 
oracle

>  <origin>  (1950) 
adg

>  <m_score__min__energy>  (1950) 
-15.32

>  <m_primary>  (1950) 
energy

$$$$
39:0
     RDKit          3D

 23 24  0  0  0  0  0  0  0  0999 V2000
   57.5450   32.6930   43.1980 O   0  0  0  0  0  0  0  0  0  0  0  0
   57.5600   32.4350   44.4300 C   0  0  0  0  0  0  0  0  0  0  0  0
   57.0130   31.1830   44.8670 N   0  0  0  0  0  0  0  0  0  0  0  0
   57.6970   29.8940   44.8650 C   0  0  0  0  0  0  0  0  0  0  0  0
   56.7130   28.7910   45.1360 C   0  0  0  0  0  0  0  0  0  0  0  0
   55.4920   29.0220   44.9190 O   0  0  0  0  0  0  0  0  0  0  0  0
   57.1140   27.4540   45.6590 C   0  0  0  0  0  0  0  0  0  0  0  0
   58.4870   27.1610   45.7820 C   0  0  0  0  0  0  0  0  0  0  0  0
   58.9140   25.9180   46.2560 C   0  0  0  0  0  0  0  0  0  0  0  0
   57.9790   24.9500   46.6190 C   0  0  0  0  0  0  0  0  0  0  0  0
   56.6150   25.2250   46.5180 C   0  0  0  0  0  0  0  0  0  0  0  0
   56.1750   26.4690   46.0490 C   0  0  0  0  0  0  0  0  0  0  0  0
   54.8070   26.7090   46.0020 O   0  0  0  0  0  0  0  0  0  0  0  0
   58.1340   33.4360   45.3550 C   0  0  0  0  0  0  0  0  0  0  0  0
   58.8150   34.4040   44.9210 O   0  0  0  0  0  0  0  0  0  0  0  0
   57.9040   33.3010   46.7610 N   0  0  0  0  0  0  0  0  0  0  0  0
   58.8520   33.7370   47.7800 C   0  0  0  0  0  0  0  0  0  0  0  0
   60.1920   33.0890   47.5590 C   0  0  0  0  0  0  0  0  0  0  0  0
   61.3410   33.8710   47.3650 C   0  0  0  0  0  0  0  0  0  0  0  0
   62.5680   33.2440   47.1380 C   0  0  0  0  0  0  0  0  0  0  0  0
   62.6450   31.8860   47.1020 N   0  0  0  0  0  0  0  0  0  0  0  0
   61.5470   31.1060   47.2820 C   0  0  0  0  0  0  0  0  0  0  0  0
   60.3000   31.6930   47.5110 C   0  0  0  0  0  0  0  0  0  0  0  0
  1  2  2  0
  2  3  1  0
  3  4  1  0
  4  5  1  0
  5  6  2  0
  5  7  1  0
  7  8  2  0
  8  9  1  0
  9 10  2  0
 10 11  1  0
 11 12  2  0
 12 13  1  0
  2 14  1  0
 14 15  2  0
 14 16  1  0
 16 17  1  0
 17 18  1  0
 18 19  2  0
 19 20  1  0
 20 21  2  0
 21 22  1  0
 22 23  2  0
 12  7  1  0
 23 18  1  0
M  CHG  3   3  -1  13  -1  16  -1
M  END
>  <UniqueID>  (1951) 
38

>  <SMILES>  (1951) 
O=C([N-]CC(=O)c1ccccc1[O-])C(=O)[N-]Cc1ccncc1

>  <Energy>  (1951) 
37.51731939178779

>  <Genealogy>  (1951) 
O=C([N-]CC(=O)c1ccccc1[O-])C(=O)[N-]Cc1ccncc1 (protonated)
O=C([N-]CC(=O)c1ccccc1[O-])C(=O)[N-]Cc1ccncc1 (3D coordinates assigned)
O=C([N-]CC(=O)c1ccccc1[O-])C(=O)[N-]Cc1ccncc1 (optimized conformer: 37.51731939178779 kcal/mol)

>  <smiles>  (1951) 
O=C(NCC(=O)c1ccccc1O)C(=O)NCc1ccncc1

>  <score_type>  (1951) 
oracle

>  <origin>  (1951) 
adg

>  <m_score__min__energy>  (1951) 
-14.08

>  <m_primary>  (1951) 
energy

$$$$
57:0
     RDKit          3D

 33 36  0  0  0  0  0  0  0  0999 V2000
   58.1330   24.9430   48.1430 O   0  0  0  0  0  0  0  0  0  0  0  0
   57.2810   25.6500   47.3010 C   0  0  0  0  0  0  0  0  0  0  0  0
   56.0140   25.2860   47.0370 N   0  0  0  0  0  0  0  0  0  0  0  0
   55.6070   26.2410   46.1730 C   0  0  0  0  0  0  0  0  0  0  0  0
   54.4520   26.2540   45.6720 O   0  0  0  0  0  0  0  0  0  0  0  0
   56.5390   27.1740   45.8780 N   0  0  0  0  0  0  0  0  0  0  0  0
   57.5960   26.8020   46.6250 C   0  0  0  0  0  0  0  0  0  0  0  0
   58.9270   27.4270   46.5590 C   0  0  0  0  0  0  0  0  0  0  0  0
   59.3310   28.4750   47.3030 C   0  0  0  0  0  0  0  0  0  0  0  0
   58.8910   28.6900   48.5990 C   0  0  0  0  0  0  0  0  0  0  0  0
   59.5910   29.7770   49.0830 C   0  0  0  0  0  0  0  0  0  0  0  0
   59.4460   30.3420   50.4640 C   0  0  0  0  0  0  0  0  0  0  0  0
   60.4120   30.2690   48.1290 N   0  0  0  0  0  0  0  0  0  0  0  0
   61.2530   31.4300   48.2620 C   0  0  0  0  0  0  0  0  0  0  0  0
   62.6450   31.2600   48.2970 C   0  0  0  0  0  0  0  0  0  0  0  0
   63.4900   32.3520   48.4990 C   0  0  0  0  0  0  0  0  0  0  0  0
   62.9520   33.6260   48.6760 C   0  0  0  0  0  0  0  0  0  0  0  0
   61.5690   33.8140   48.6410 C   0  0  0  0  0  0  0  0  0  0  0  0
   60.7020   32.7280   48.4200 C   0  0  0  0  0  0  0  0  0  0  0  0
   59.2420   32.9750   48.3400 C   0  0  0  0  0  0  0  0  0  0  0  0
   58.4940   32.6580   49.3040 O   0  0  0  0  0  0  0  0  0  0  0  0
   58.6880   33.5620   47.1500 N   0  0  0  0  0  0  0  0  0  0  0  0
   58.2270   32.9160   46.1200 C   0  0  0  0  0  0  0  0  0  0  0  0
   58.0040   33.4660   44.9050 N   0  0  0  0  0  0  0  0  0  0  0  0
   57.5340   32.5910   44.0180 N   0  0  0  0  0  0  0  0  0  0  0  0
   57.3880   31.3370   44.5130 C   0  0  0  0  0  0  0  0  0  0  0  0
   56.8340   30.1680   43.7210 C   0  0  0  0  0  0  0  0  0  0  0  0
   57.8240   28.9910   43.7960 C   0  0  0  0  0  0  0  0  0  0  0  0
   56.6410   30.5880   42.2500 C   0  0  0  0  0  0  0  0  0  0  0  0
   55.4730   29.7190   44.2940 C   0  0  0  0  0  0  0  0  0  0  0  0
   57.8420   31.2810   46.1440 S   0  0  0  0  0  0  0  0  0  0  0  0
   60.2360   29.5080   47.0180 C   0  0  0  0  0  0  0  0  0  0  0  0
   60.7450   29.8300   45.8180 C   0  0  0  0  0  0  0  0  0  0  0  0
  1  2  1  0
  2  3  1  0
  3  4  1  0
  4  5  2  0
  4  6  1  0
  6  7  1  0
  7  8  1  0
  8  9  2  0
  9 10  1  0
 10 11  2  0
 11 12  1  0
 11 13  1  0
 13 14  1  0
 14 15  2  0
 15 16  1  0
 16 17  2  0
 17 18  1  0
 18 19  2  0
 19 20  1  0
 20 21  2  0
 20 22  1  0
 22 23  2  3
 23 24  1  0
 24 25  1  0
 25 26  2  0
 26 27  1  0
 27 28  1  0
 27 29  1  0
 27 30  1  0
 26 31  1  0
 13 32  1  0
 32 33  2  0
  7  2  2  0
 32  9  1  0
 19 14  1  0
 31 23  1  0
M  CHG  3   3  -1   6  -1  24  -1
M  END
>  <UniqueID>  (1952) 
55

>  <SMILES>  (1952) 
C=c1/c(=C\c2[n-]c(=O)[n-]c2O)cc(C)n1-c1ccccc1C(=O)N=c1[n-]nc(C(C)(C)C)s1

>  <Energy>  (1952) 
166.09126805463987

>  <Genealogy>  (1952) 
C=c1c(=Cc2[n-]c(=O)[n-]c2O)cc(C)n1-c1ccccc1C(=O)N=c1[n-]nc(C(C)(C)C)s1 (protonated)
C=c1/c(=C\c2[n-]c(=O)[n-]c2O)cc(C)n1-c1ccccc1C(=O)N=c1[n-]nc(C(C)(C)C)s1 (cis-trans isomerization)
C=c1/c(=C\c2[n-]c(=O)[n-]c2O)cc(C)n1-c1ccccc1C(=O)N=c1[n-]nc(C(C)(C)C)s1 (3D coordinates assigned)
C=c1/c(=C\c2[n-]c(=O)[n-]c2O)cc(C)n1-c1ccccc1C(=O)N=c1[n-]nc(C(C)(C)C)s1 (optimized conformer: 166.09126805463987 kcal/mol)

>  <smiles>  (1952) 
C=c1c(=Cc2[nH]c(=O)[nH]c2O)cc(C)n1-c1ccccc1C(=O)N=c1[nH]nc(C(C)(C)C)s1

>  <score_type>  (1952) 
oracle

>  <origin>  (1952) 
adg

>  <m_score__min__energy>  (1952) 
-15.43

>  <m_primary>  (1952) 
energy

$$$$
60:0
     RDKit          3D

 29 32  0  0  0  0  0  0  0  0999 V2000
   55.1320   26.7410   45.9950 O   0  0  0  0  0  0  0  0  0  0  0  0
   56.2340   25.9130   46.2000 C   0  0  0  0  0  0  0  0  0  0  0  0
   56.1900   24.5780   46.0610 N   0  0  0  0  0  0  0  0  0  0  0  0
   57.4700   24.2100   46.2970 C   0  0  0  0  0  0  0  0  0  0  0  0
   57.8490   23.0110   46.2520 O   0  0  0  0  0  0  0  0  0  0  0  0
   58.3140   25.2300   46.5720 N   0  0  0  0  0  0  0  0  0  0  0  0
   57.5150   26.3100   46.5360 C   0  0  0  0  0  0  0  0  0  0  0  0
   58.0150   27.6860   46.6610 C   0  0  0  0  0  0  0  0  0  0  0  0
   57.9880   28.6280   45.7000 C   0  0  0  0  0  0  0  0  0  0  0  0
   57.8520   29.9790   45.9750 C   0  0  0  0  0  0  0  0  0  0  0  0
   57.9130   30.6420   44.7650 C   0  0  0  0  0  0  0  0  0  0  0  0
   57.8470   32.1030   44.5780 C   0  0  0  0  0  0  0  0  0  0  0  0
   57.3570   32.5660   43.5150 O   0  0  0  0  0  0  0  0  0  0  0  0
   58.3460   33.0030   45.5810 N   0  0  0  0  0  0  0  0  0  0  0  0
   57.8800   32.8970   46.9680 C   0  0  0  0  0  0  0  0  0  0  0  0
   59.0540   33.0450   47.9420 C   0  0  0  0  0  0  0  0  0  0  0  0
   60.0500   34.1780   47.5630 C   0  0  0  0  0  0  0  0  0  0  0  0
   61.4500   33.6190   47.3700 C   0  0  0  0  0  0  0  0  0  0  0  0
   61.7710   33.0980   46.2680 O   0  0  0  0  0  0  0  0  0  0  0  0
   62.4010   33.6060   48.4520 N   0  0  0  0  0  0  0  0  0  0  0  0
   63.7010   32.9660   48.3470 C   0  0  0  0  0  0  0  0  0  0  0  0
   64.4320   33.3050   49.6400 C   0  0  0  0  0  0  0  0  0  0  0  0
   63.3570   33.7700   50.6170 C   0  0  0  0  0  0  0  0  0  0  0  0
   62.1760   34.2020   49.7590 C   0  0  0  0  0  0  0  0  0  0  0  0
   59.5760   35.0280   46.3590 C   0  0  0  0  0  0  0  0  0  0  0  0
   59.1230   34.1750   45.1590 C   0  0  0  0  0  0  0  0  0  0  0  0
   58.0840   29.7630   43.7600 N   0  0  0  0  0  0  0  0  0  0  0  0
   58.0960   28.5290   44.3040 C   0  0  0  0  0  0  0  0  0  0  0  0
   58.1130   27.4260   43.5480 C   0  0  0  0  0  0  0  0  0  0  0  0
  1  2  1  0
  2  3  1  0
  3  4  1  0
  4  5  2  0
  4  6  1  0
  6  7  1  0
  7  8  1  0
  8  9  2  0
  9 10  1  0
 10 11  2  0
 11 12  1  0
 12 13  2  0
 12 14  1  0
 14 15  1  0
 15 16  1  0
 16 17  1  0
 17 18  1  0
 18 19  2  0
 18 20  1  0
 20 21  1  0
 21 22  1  0
 22 23  1  0
 23 24  1  0
 17 25  1  0
 25 26  1  0
 11 27  1  0
 27 28  1  0
 28 29  2  0
  7  2  2  0
 28  9  1  0
 26 14  1  0
 24 20  1  0
M  CHG  2   3  -1   6  -1
M  END
>  <UniqueID>  (1953) 
57

>  <SMILES>  (1953) 
C=c1[nH]c(C(=O)N2CCC(C(=O)N3CCCC3)CC2)c/c1=C/c1[n-]c(=O)[n-]c1O

>  <Energy>  (1953) 
126.87092569520514

>  <Genealogy>  (1953) 
C=c1[nH]c(C(=O)N2CCC(C(=O)N3CCCC3)CC2)cc1=Cc1[n-]c(=O)[n-]c1O (protonated)
C=c1[nH]c(C(=O)N2CCC(C(=O)N3CCCC3)CC2)c/c1=C/c1[n-]c(=O)[n-]c1O (cis-trans isomerization)
C=c1[nH]c(C(=O)N2CCC(C(=O)N3CCCC3)CC2)c/c1=C/c1[n-]c(=O)[n-]c1O (3D coordinates assigned)
C=c1[nH]c(C(=O)N2CCC(C(=O)N3CCCC3)CC2)c/c1=C/c1[n-]c(=O)[n-]c1O (nonaromatic ring conformer: 126.87092569520514 kcal/mol)

>  <smiles>  (1953) 
C=c1[nH]c(C(=O)N2CCC(C(=O)N3CCCC3)CC2)cc1=Cc1[nH]c(=O)[nH]c1O

>  <score_type>  (1953) 
oracle

>  <origin>  (1953) 
adg

>  <m_score__min__energy>  (1953) 
-14.609999999999999

>  <m_primary>  (1953) 
energy

$$$$
63:0
     RDKit          3D

 24 26  0  0  0  0  0  0  0  0999 V2000
   55.0820   26.7320   45.9870 O   0  0  0  0  0  0  0  0  0  0  0  0
   56.1840   25.9580   46.3520 C   0  0  0  0  0  0  0  0  0  0  0  0
   55.9780   24.6500   46.6580 N   0  0  0  0  0  0  0  0  0  0  0  0
   56.9980   23.8420   47.0400 C   0  0  0  0  0  0  0  0  0  0  0  0
   56.7750   22.6370   47.3220 O   0  0  0  0  0  0  0  0  0  0  0  0
   58.2600   24.3330   47.1170 N   0  0  0  0  0  0  0  0  0  0  0  0
   58.5300   25.6290   46.8180 C   0  0  0  0  0  0  0  0  0  0  0  0
   59.7230   26.0320   46.8680 O   0  0  0  0  0  0  0  0  0  0  0  0
   57.4870   26.4970   46.4320 C   0  0  0  0  0  0  0  0  0  0  0  0
   57.7470   27.9090   46.0640 C   0  0  0  0  0  0  0  0  0  0  0  0
   57.4660   28.3940   44.8490 C   0  0  0  0  0  0  0  0  0  0  0  0
   56.4840   29.4700   44.6340 C   0  0  0  0  0  0  0  0  0  0  0  0
   55.2720   29.2480   44.8930 O   0  0  0  0  0  0  0  0  0  0  0  0
   56.8930   30.7340   44.0920 N   0  0  0  0  0  0  0  0  0  0  0  0
   57.4680   31.8320   44.8160 C   0  0  0  0  0  0  0  0  0  0  0  0
   57.7190   33.0380   44.1240 C   0  0  0  0  0  0  0  0  0  0  0  0
   58.3020   34.1370   44.7790 C   0  0  0  0  0  0  0  0  0  0  0  0
   58.6400   34.0030   46.1250 C   0  0  0  0  0  0  0  0  0  0  0  0
   58.4160   32.8250   46.7930 C   0  0  0  0  0  0  0  0  0  0  0  0
   57.8420   31.7170   46.1740 C   0  0  0  0  0  0  0  0  0  0  0  0
   58.9010   33.0130   48.1350 C   0  0  0  0  0  0  0  0  0  0  0  0
   58.8790   32.1580   49.0580 O   0  0  0  0  0  0  0  0  0  0  0  0
   59.4080   34.2990   48.2700 O   0  0  0  0  0  0  0  0  0  0  0  0
   59.2840   35.0100   47.0330 C   0  0  0  0  0  0  0  0  0  0  0  0
  1  2  1  0
  2  3  1  0
  3  4  1  0
  4  5  2  0
  4  6  1  0
  6  7  1  0
  7  8  2  0
  7  9  1  0
  9 10  1  0
 10 11  2  0
 11 12  1  0
 12 13  2  0
 12 14  1  0
 14 15  1  0
 15 16  2  0
 16 17  1  0
 17 18  2  0
 18 19  1  0
 19 20  2  0
 19 21  1  0
 21 22  2  0
 21 23  1  0
 23 24  1  0
  9  2  2  0
 20 15  1  0
 24 18  1  0
M  CHG  3   3  -1   6  -1  14  -1
M  END
>  <UniqueID>  (1954) 
60

>  <SMILES>  (1954) 
O=C(/C=C/c1c(O)[n-]c(=O)[n-]c1=O)[N-]c1ccc2c(c1)C(=O)OC2

>  <Energy>  (1954) 
68.36033484502777

>  <Genealogy>  (1954) 
O=C(C=Cc1c(O)[n-]c(=O)[n-]c1=O)[N-]c1ccc2c(c1)C(=O)OC2 (protonated)
O=C(/C=C/c1c(O)[n-]c(=O)[n-]c1=O)[N-]c1ccc2c(c1)C(=O)OC2 (cis-trans isomerization)
O=C(/C=C/c1c(O)[n-]c(=O)[n-]c1=O)[N-]c1ccc2c(c1)C(=O)OC2 (3D coordinates assigned)
O=C(/C=C/c1c(O)[n-]c(=O)[n-]c1=O)[N-]c1ccc2c(c1)C(=O)OC2 (nonaromatic ring conformer: 68.36033484502777 kcal/mol)

>  <smiles>  (1954) 
O=C(C=Cc1c(O)[nH]c(=O)[nH]c1=O)Nc1ccc2c(c1)C(=O)OC2

>  <score_type>  (1954) 
oracle

>  <origin>  (1954) 
adg

>  <m_score__min__energy>  (1954) 
-14.279999999999999

>  <m_primary>  (1954) 
energy

$$$$
78:0
     RDKit          3D

 36 39  0  0  0  0  0  0  0  0999 V2000
   57.3920   26.7080   47.4890 C   0  0  0  0  0  0  0  0  0  0  0  0
   57.9580   27.0260   46.3150 C   0  0  0  0  0  0  0  0  0  0  0  0
   57.9770   26.2550   45.1410 C   0  0  0  0  0  0  0  0  0  0  0  0
   57.3010   25.1390   44.8080 C   0  0  0  0  0  0  0  0  0  0  0  0
   55.9070   24.8410   45.1720 C   0  0  0  0  0  0  0  0  0  0  0  0
   55.3140   23.6570   44.9360 N   0  0  0  0  0  0  0  0  0  0  0  0
   54.0350   23.8690   45.3170 C   0  0  0  0  0  0  0  0  0  0  0  0
   53.1540   22.9710   45.2590 O   0  0  0  0  0  0  0  0  0  0  0  0
   53.7700   25.1200   45.7520 N   0  0  0  0  0  0  0  0  0  0  0  0
   54.9620   25.7260   45.6400 C   0  0  0  0  0  0  0  0  0  0  0  0
   55.1750   27.0670   45.9370 O   0  0  0  0  0  0  0  0  0  0  0  0
   58.8780   26.8720   44.2870 C   0  0  0  0  0  0  0  0  0  0  0  0
   59.3160   28.0150   44.9250 C   0  0  0  0  0  0  0  0  0  0  0  0
   60.3160   28.9800   44.3690 C   0  0  0  0  0  0  0  0  0  0  0  0
   58.7510   28.1140   46.1460 N   0  0  0  0  0  0  0  0  0  0  0  0
   59.0450   29.1310   47.1190 C   0  0  0  0  0  0  0  0  0  0  0  0
   59.7400   28.7760   48.2820 C   0  0  0  0  0  0  0  0  0  0  0  0
   60.0100   29.7290   49.2630 C   0  0  0  0  0  0  0  0  0  0  0  0
   59.5910   31.0590   49.1000 C   0  0  0  0  0  0  0  0  0  0  0  0
   59.8470   32.0620   50.1610 C   0  0  0  0  0  0  0  0  0  0  0  0
   60.2850   31.6860   51.2820 O   0  0  0  0  0  0  0  0  0  0  0  0
   59.6340   33.4590   49.8930 N   0  0  0  0  0  0  0  0  0  0  0  0
   60.4290   34.2820   49.2690 C   0  0  0  0  0  0  0  0  0  0  0  0
   61.0090   34.0230   47.9030 C   0  0  0  0  0  0  0  0  0  0  0  0
   62.4790   34.2010   47.9220 N   0  0  0  0  0  0  0  0  0  0  0  0
   63.0670   33.8050   49.2170 C   0  0  0  0  0  0  0  0  0  0  0  0
   63.0580   32.2700   49.4080 C   0  0  0  0  0  0  0  0  0  0  0  0
   62.8540   31.5560   48.2020 O   0  0  0  0  0  0  0  0  0  0  0  0
   63.6520   32.1020   47.1740 C   0  0  0  0  0  0  0  0  0  0  0  0
   63.1510   33.5110   46.7940 C   0  0  0  0  0  0  0  0  0  0  0  0
   58.9020   31.4170   47.9260 C   0  0  0  0  0  0  0  0  0  0  0  0
   58.6320   30.4670   46.9270 C   0  0  0  0  0  0  0  0  0  0  0  0
   57.7380   30.9490   45.4760 S   0  0  0  0  0  0  0  0  0  0  0  0
   57.0720   32.5930   45.6220 C   0  0  0  0  0  0  0  0  0  0  0  0
   58.6510   30.9340   44.2830 O   0  0  0  0  0  0  0  0  0  0  0  0
   56.6080   29.9870   45.2490 O   0  0  0  0  0  0  0  0  0  0  0  0
  1  2  2  0
  2  3  1  0
  3  4  2  3
  4  5  1  0
  5  6  1  0
  6  7  1  0
  7  8  2  0
  7  9  1  0
  9 10  1  0
 10 11  1  0
  3 12  1  0
 12 13  2  0
 13 14  1  0
 13 15  1  0
 15 16  1  0
 16 17  2  0
 17 18  1  0
 18 19  2  0
 19 20  1  0
 20 21  2  0
 20 22  1  0
 22 23  2  3
 23 24  1  0
 24 25  1  0
 25 26  1  0
 26 27  1  0
 27 28  1  0
 28 29  1  0
 29 30  1  0
 19 31  1  0
 31 32  2  0
 32 33  1  0
 33 34  1  0
 33 35  2  0
 33 36  2  0
 15  2  1  0
 32 16  1  0
 10  5  2  0
 30 25  1  0
M  CHG  3   6  -1   9  -1  11  -1
M  END
>  <UniqueID>  (1955) 
75

>  <SMILES>  (1955) 
C=c1c(=Cc2[n-]c(=O)[n-]c2[O-])cc(C)n1-c1ccc(C(=O)N=CCN2CCOCC2)cc1S(C)(=O)=O

>  <Energy>  (1955) 
151.83966391369805

>  <Genealogy>  (1955) 
C=c1c(=Cc2[n-]c(=O)[n-]c2[O-])cc(C)n1-c1ccc(C(=O)N=CCN2CCOCC2)cc1S(C)(=O)=O (protonated)
C=c1c(=Cc2[n-]c(=O)[n-]c2[O-])cc(C)n1-c1ccc(C(=O)N=CCN2CCOCC2)cc1S(C)(=O)=O (3D coordinates assigned)
C=c1c(=Cc2[n-]c(=O)[n-]c2[O-])cc(C)n1-c1ccc(C(=O)N=CCN2CCOCC2)cc1S(C)(=O)=O (nonaromatic ring conformer: 151.83966391369805 kcal/mol)

>  <smiles>  (1955) 
C=c1c(=Cc2[nH]c(=O)[nH]c2O)cc(C)n1-c1ccc(C(=O)N=CCN2CCOCC2)cc1S(C)(=O)=O

>  <score_type>  (1955) 
oracle

>  <origin>  (1955) 
adg

>  <m_score__min__energy>  (1955) 
-17.120000000000001

>  <m_primary>  (1955) 
energy

$$$$
79:0
     RDKit          3D

 30 33  0  0  0  0  0  0  0  0999 V2000
   58.8290   28.0030   47.1930 C   0  0  0  0  0  0  0  0  0  0  0  0
   58.3320   28.5480   46.0720 C   0  0  0  0  0  0  0  0  0  0  0  0
   57.5990   27.8950   45.0680 C   0  0  0  0  0  0  0  0  0  0  0  0
   57.3980   26.5840   44.8300 C   0  0  0  0  0  0  0  0  0  0  0  0
   56.9100   25.6030   45.8120 C   0  0  0  0  0  0  0  0  0  0  0  0
   57.6280   24.5650   46.2820 N   0  0  0  0  0  0  0  0  0  0  0  0
   56.7350   23.8830   47.0310 C   0  0  0  0  0  0  0  0  0  0  0  0
   57.0390   22.8360   47.6610 O   0  0  0  0  0  0  0  0  0  0  0  0
   55.4890   24.4040   47.0440 N   0  0  0  0  0  0  0  0  0  0  0  0
   55.6160   25.4840   46.2550 C   0  0  0  0  0  0  0  0  0  0  0  0
   54.5670   26.3400   45.9440 O   0  0  0  0  0  0  0  0  0  0  0  0
   57.0700   28.8910   44.2640 C   0  0  0  0  0  0  0  0  0  0  0  0
   57.5530   30.0910   44.7440 C   0  0  0  0  0  0  0  0  0  0  0  0
   57.2440   31.4320   44.1490 C   0  0  0  0  0  0  0  0  0  0  0  0
   58.3170   29.8860   45.8410 N   0  0  0  0  0  0  0  0  0  0  0  0
   58.9580   30.9110   46.6230 C   0  0  0  0  0  0  0  0  0  0  0  0
   58.9130   30.8680   48.0230 C   0  0  0  0  0  0  0  0  0  0  0  0
   59.5170   31.8770   48.7780 C   0  0  0  0  0  0  0  0  0  0  0  0
   60.1660   32.9500   48.1430 C   0  0  0  0  0  0  0  0  0  0  0  0
   60.7890   34.0260   48.9390 C   0  0  0  0  0  0  0  0  0  0  0  0
   60.0720   34.9540   49.4060 O   0  0  0  0  0  0  0  0  0  0  0  0
   62.2020   34.0360   49.1930 N   0  0  0  0  0  0  0  0  0  0  0  0
   62.7600   34.4940   50.4510 C   0  0  0  0  0  0  0  0  0  0  0  0
   64.0510   33.9460   50.5990 O   0  0  0  0  0  0  0  0  0  0  0  0
   64.4310   33.4250   49.3430 C   0  0  0  0  0  0  0  0  0  0  0  0
   63.1660   33.2010   48.5100 C   0  0  0  0  0  0  0  0  0  0  0  0
   62.7290   31.7220   48.5620 C   0  0  0  0  0  0  0  0  0  0  0  0
   63.3700   33.6500   47.0530 C   0  0  0  0  0  0  0  0  0  0  0  0
   60.2280   32.9770   46.7400 C   0  0  0  0  0  0  0  0  0  0  0  0
   59.6230   31.9670   45.9860 C   0  0  0  0  0  0  0  0  0  0  0  0
  1  2  2  0
  2  3  1  0
  3  4  2  3
  4  5  1  0
  5  6  1  0
  6  7  1  0
  7  8  2  0
  7  9  1  0
  9 10  1  0
 10 11  1  0
  3 12  1  0
 12 13  2  0
 13 14  1  0
 13 15  1  0
 15 16  1  0
 16 17  2  0
 17 18  1  0
 18 19  2  0
 19 20  1  0
 20 21  2  0
 20 22  1  0
 22 23  1  0
 23 24  1  0
 24 25  1  0
 25 26  1  0
 26 27  1  0
 26 28  1  0
 19 29  1  0
 29 30  2  0
 15  2  1  0
 30 16  1  0
 10  5  2  0
 26 22  1  0
M  CHG  3   6  -1   9  -1  11  -1
M  END
>  <UniqueID>  (1956) 
76

>  <SMILES>  (1956) 
C=c1c(=Cc2[n-]c(=O)[n-]c2[O-])cc(C)n1-c1ccc(C(=O)N2COCC2(C)C)cc1

>  <Energy>  (1956) 
134.98782528771844

>  <Genealogy>  (1956) 
C=c1c(=Cc2[n-]c(=O)[n-]c2[O-])cc(C)n1-c1ccc(C(=O)N2COCC2(C)C)cc1 (protonated)
C=c1c(=Cc2[n-]c(=O)[n-]c2[O-])cc(C)n1-c1ccc(C(=O)N2COCC2(C)C)cc1 (3D coordinates assigned)
C=c1c(=Cc2[n-]c(=O)[n-]c2[O-])cc(C)n1-c1ccc(C(=O)N2COCC2(C)C)cc1 (nonaromatic ring conformer: 134.98782528771844 kcal/mol)

>  <smiles>  (1956) 
C=c1c(=Cc2[nH]c(=O)[nH]c2O)cc(C)n1-c1ccc(C(=O)N2COCC2(C)C)cc1

>  <score_type>  (1956) 
oracle

>  <origin>  (1956) 
adg

>  <m_score__min__energy>  (1956) 
-15.710000000000001

>  <m_primary>  (1956) 
energy

$$$$
86:0
     RDKit          3D

 39 43  0  0  0  0  0  0  0  0999 V2000
   69.0650   33.9580   50.7350 C   0  0  0  0  0  0  0  0  0  0  0  0
   67.6070   33.8220   50.6090 N   0  0  0  0  0  0  0  0  0  0  0  0
   67.2160   32.4020   50.6810 C   0  0  0  0  0  0  0  0  0  0  0  0
   65.7020   32.2470   50.4330 C   0  0  0  0  0  0  0  0  0  0  0  0
   65.0000   33.5450   50.5160 N   0  0  0  0  0  0  0  0  0  0  0  0
   63.5350   33.3470   50.4880 C   0  0  0  0  0  0  0  0  0  0  0  0
   63.0200   33.4970   49.0820 C   0  0  0  0  0  0  0  0  0  0  0  0
   63.9170   33.4620   48.0030 C   0  0  0  0  0  0  0  0  0  0  0  0
   63.4510   33.6170   46.6950 C   0  0  0  0  0  0  0  0  0  0  0  0
   62.0920   33.8250   46.4550 C   0  0  0  0  0  0  0  0  0  0  0  0
   61.1850   33.8940   47.5290 C   0  0  0  0  0  0  0  0  0  0  0  0
   59.7780   34.0860   47.3130 N   0  0  0  0  0  0  0  0  0  0  0  0
   59.0210   33.3810   46.5240 C   0  0  0  0  0  0  0  0  0  0  0  0
   59.3490   32.0880   46.2730 N   0  0  0  0  0  0  0  0  0  0  0  0
   58.5700   31.2940   45.4880 C   0  0  0  0  0  0  0  0  0  0  0  0
   57.3920   31.8190   44.9300 C   0  0  0  0  0  0  0  0  0  0  0  0
   57.0780   33.1580   45.1870 C   0  0  0  0  0  0  0  0  0  0  0  0
   57.8880   33.9040   45.9800 N   0  0  0  0  0  0  0  0  0  0  0  0
   56.5360   30.9960   44.0040 C   0  0  0  0  0  0  0  0  0  0  0  0
   56.7240   29.4970   44.2510 C   0  0  0  0  0  0  0  0  0  0  0  0
   58.2120   29.1330   44.2370 C   0  0  0  0  0  0  0  0  0  0  0  0
   58.9470   29.9250   45.2300 N   0  0  0  0  0  0  0  0  0  0  0  0
   60.2070   29.4240   45.6990 C   0  0  0  0  0  0  0  0  0  0  0  0
   61.0010   30.1970   46.2930 O   0  0  0  0  0  0  0  0  0  0  0  0
   60.5840   28.0590   45.4940 N   0  0  0  0  0  0  0  0  0  0  0  0
   60.3890   27.0050   46.4830 C   0  0  0  0  0  0  0  0  0  0  0  0
   59.0440   26.3740   46.2720 C   0  0  0  0  0  0  0  0  0  0  0  0
   58.2850   25.9540   47.3760 C   0  0  0  0  0  0  0  0  0  0  0  0
   57.0550   25.3190   47.1850 C   0  0  0  0  0  0  0  0  0  0  0  0
   56.5710   25.0900   45.8890 C   0  0  0  0  0  0  0  0  0  0  0  0
   55.0220   24.2840   45.6610 S   0  0  0  0  0  0  0  0  0  0  0  0
   53.7500   25.4520   45.6960 N   0  0  0  0  0  0  0  0  0  0  0  0
   54.8140   23.2780   46.7600 O   0  0  0  0  0  0  0  0  0  0  0  0
   55.0010   23.5670   44.3410 O   0  0  0  0  0  0  0  0  0  0  0  0
   57.3260   25.5130   44.7850 C   0  0  0  0  0  0  0  0  0  0  0  0
   58.5580   26.1450   44.9760 C   0  0  0  0  0  0  0  0  0  0  0  0
   61.6520   33.7030   48.8370 C   0  0  0  0  0  0  0  0  0  0  0  0
   65.4190   34.2740   51.7280 C   0  0  0  0  0  0  0  0  0  0  0  0
   66.9250   34.5980   51.6660 C   0  0  0  0  0  0  0  0  0  0  0  0
  1  2  1  0
  2  3  1  0
  3  4  1  0
  4  5  1  0
  5  6  1  0
  6  7  1  0
  7  8  2  0
  8  9  1  0
  9 10  2  0
 10 11  1  0
 11 12  1  0
 12 13  2  3
 13 14  1  0
 14 15  2  0
 15 16  1  0
 16 17  2  0
 17 18  1  0
 16 19  1  0
 19 20  1  0
 20 21  1  0
 21 22  1  0
 22 23  1  0
 23 24  2  0
 23 25  1  0
 25 26  1  0
 26 27  1  0
 27 28  2  0
 28 29  1  0
 29 30  2  0
 30 31  1  0
 31 32  1  0
 31 33  2  0
 31 34  2  0
 30 35  1  0
 35 36  2  0
 11 37  2  0
  5 38  1  0
 38 39  1  0
 39  2  1  0
 37  7  1  0
 18 13  1  0
 36 27  1  0
 22 15  1  0
M  CHG  3  18  -1  25  -1  32  -1
M  END
>  <UniqueID>  (1957) 
83

>  <SMILES>  (1957) 
CN1CCN(Cc2cccc(N=c3nc4c(c[n-]3)CCCN4C(=O)[N-]Cc3ccc(S([NH-])(=O)=O)cc3)c2)CC1

>  <Energy>  (1957) 
90.71017723893827

>  <Genealogy>  (1957) 
CN1CCN(Cc2cccc(N=c3nc4c(c[n-]3)CCCN4C(=O)[N-]Cc3ccc(S([NH-])(=O)=O)cc3)c2)CC1 (protonated)
CN1CCN(Cc2cccc(N=c3nc4c(c[n-]3)CCCN4C(=O)[N-]Cc3ccc(S([NH-])(=O)=O)cc3)c2)CC1 (3D coordinates assigned)
CN1CCN(Cc2cccc(N=c3nc4c(c[n-]3)CCCN4C(=O)[N-]Cc3ccc(S([NH-])(=O)=O)cc3)c2)CC1 (nonaromatic ring conformer: 90.71017723893827 kcal/mol)

>  <smiles>  (1957) 
CN1CCN(Cc2cccc(N=c3nc4c(c[nH]3)CCCN4C(=O)NCc3ccc(S(N)(=O)=O)cc3)c2)CC1

>  <score_type>  (1957) 
oracle

>  <origin>  (1957) 
adg

>  <m_score__min__energy>  (1957) 
-14.77

>  <m_primary>  (1957) 
energy

$$$$
22:0
     RDKit          3D

 29 31  0  0  0  0  0  0  0  0999 V2000
   59.4230   30.1340   49.1240 C   0  0  0  0  0  0  0  0  0  0  0  0
   60.0800   31.3980   48.7430 C   0  0  0  0  0  0  0  0  0  0  0  0
   61.3380   31.4410   48.7000 O   0  0  0  0  0  0  0  0  0  0  0  0
   59.3340   32.5580   48.3600 N   0  0  0  0  0  0  0  0  0  0  0  0
   58.8170   32.8070   47.0450 C   0  0  0  0  0  0  0  0  0  0  0  0
   59.0000   34.0710   46.4740 C   0  0  0  0  0  0  0  0  0  0  0  0
   58.4450   34.3670   45.2270 C   0  0  0  0  0  0  0  0  0  0  0  0
   57.6840   33.4100   44.5530 C   0  0  0  0  0  0  0  0  0  0  0  0
   57.4890   32.1410   45.1100 C   0  0  0  0  0  0  0  0  0  0  0  0
   56.6210   31.2180   44.4360 N   0  0  0  0  0  0  0  0  0  0  0  0
   56.3680   29.8670   44.8400 C   0  0  0  0  0  0  0  0  0  0  0  0
   55.1770   29.4600   44.8800 O   0  0  0  0  0  0  0  0  0  0  0  0
   57.4710   28.9300   45.1490 C   0  0  0  0  0  0  0  0  0  0  0  0
   58.7980   29.2620   44.8340 C   0  0  0  0  0  0  0  0  0  0  0  0
   59.8300   28.3560   45.0830 C   0  0  0  0  0  0  0  0  0  0  0  0
   59.5510   27.1150   45.6600 C   0  0  0  0  0  0  0  0  0  0  0  0
   58.2310   26.7670   45.9810 C   0  0  0  0  0  0  0  0  0  0  0  0
   57.9350   25.4540   46.6510 C   0  0  0  0  0  0  0  0  0  0  0  0
   56.6750   24.8690   46.0960 C   0  0  0  0  0  0  0  0  0  0  0  0
   56.6630   23.8090   45.2610 N   0  0  0  0  0  0  0  0  0  0  0  0
   55.3610   23.6440   44.9710 C   0  0  0  0  0  0  0  0  0  0  0  0
   54.6270   24.6060   45.6220 C   0  0  0  0  0  0  0  0  0  0  0  0
   55.4540   25.3910   46.3330 N   0  0  0  0  0  0  0  0  0  0  0  0
   57.1950   27.6780   45.7230 C   0  0  0  0  0  0  0  0  0  0  0  0
   58.0600   31.8390   46.3590 C   0  0  0  0  0  0  0  0  0  0  0  0
   58.9870   29.8910   50.3660 C   0  0  0  0  0  0  0  0  0  0  0  0
   57.7870   30.5440   50.9200 C   0  0  0  0  0  0  0  0  0  0  0  0
   57.0240   29.9260   51.7090 O   0  0  0  0  0  0  0  0  0  0  0  0
   57.4750   31.8860   50.5520 N   0  0  0  0  0  0  0  0  0  0  0  0
  1  2  1  0
  2  3  2  0
  2  4  1  0
  4  5  1  0
  5  6  2  0
  6  7  1  0
  7  8  2  0
  8  9  1  0
  9 10  1  0
 10 11  1  0
 11 12  2  0
 11 13  1  0
 13 14  2  0
 14 15  1  0
 15 16  2  0
 16 17  1  0
 17 18  1  0
 18 19  1  0
 19 20  2  0
 20 21  1  0
 21 22  2  0
 22 23  1  0
 17 24  2  0
  9 25  2  0
  1 26  2  0
 26 27  1  0
 27 28  2  0
 27 29  1  0
 25  5  1  0
 24 13  1  0
 23 19  1  0
M  CHG  3   4  -1  10  -1  23  -1
M  END
>  <UniqueID>  (1958) 
23

>  <SMILES>  (1958) 
NC(=O)/C=C/C(=O)[N-]c1cccc([N-]C(=O)c2cccc(Cc3ncc[n-]3)c2)c1

>  <Energy>  (1958) 
78.4567915679851

>  <Genealogy>  (1958) 
NC(=O)C=CC(=O)[N-]c1cccc([N-]C(=O)c2cccc(Cc3ncc[n-]3)c2)c1 (protonated)
NC(=O)/C=C/C(=O)[N-]c1cccc([N-]C(=O)c2cccc(Cc3ncc[n-]3)c2)c1 (cis-trans isomerization)
NC(=O)/C=C/C(=O)[N-]c1cccc([N-]C(=O)c2cccc(Cc3ncc[n-]3)c2)c1 (3D coordinates assigned)
NC(=O)/C=C/C(=O)[N-]c1cccc([N-]C(=O)c2cccc(Cc3ncc[n-]3)c2)c1 (optimized conformer: 78.4567915679851 kcal/mol)

>  <smiles>  (1958) 
NC(=O)C=CC(=O)Nc1cccc(NC(=O)c2cccc(Cc3ncc[nH]3)c2)c1

>  <score_type>  (1958) 
oracle

>  <origin>  (1958) 
adg

>  <m_score__min__energy>  (1958) 
-14.15

>  <m_primary>  (1958) 
energy

$$$$
30:0
     RDKit          3D

 26 28  0  0  0  0  0  0  0  0999 V2000
   56.7310   23.6910   42.8160 C   0  0  0  0  0  0  0  0  0  0  0  0
   57.0610   24.7160   43.6250 C   0  0  0  0  0  0  0  0  0  0  0  0
   57.7650   25.7550   43.0780 N   0  0  0  0  0  0  0  0  0  0  0  0
   58.1940   26.7830   43.8060 N   0  0  0  0  0  0  0  0  0  0  0  0
   57.9570   26.8690   45.1350 C   0  0  0  0  0  0  0  0  0  0  0  0
   58.4370   28.0490   45.8820 C   0  0  0  0  0  0  0  0  0  0  0  0
   58.7320   27.9210   47.1000 O   0  0  0  0  0  0  0  0  0  0  0  0
   58.5480   29.3430   45.2580 N   0  0  0  0  0  0  0  0  0  0  0  0
   59.6920   30.2120   45.5720 C   0  0  0  0  0  0  0  0  0  0  0  0
   59.2270   31.6080   46.0430 C   0  0  0  0  0  0  0  0  0  0  0  0
   57.8180   31.8690   45.6860 N   0  0  0  0  0  0  0  0  0  0  0  0
   57.3080   33.2190   46.0210 C   0  0  0  0  0  0  0  0  0  0  0  0
   57.9590   34.4030   45.2720 C   0  0  0  0  0  0  0  0  0  0  0  0
   59.2720   34.8840   45.8820 C   0  0  0  0  0  0  0  0  0  0  0  0
   57.4660   31.3710   44.3470 C   0  0  0  0  0  0  0  0  0  0  0  0
   57.4680   29.8410   44.3900 C   0  0  0  0  0  0  0  0  0  0  0  0
   57.2040   25.8730   45.7540 C   0  0  0  0  0  0  0  0  0  0  0  0
   56.7470   24.7560   45.0230 C   0  0  0  0  0  0  0  0  0  0  0  0
   55.9920   23.8020   45.6340 C   0  0  0  0  0  0  0  0  0  0  0  0
   54.5150   23.7180   45.5990 C   0  0  0  0  0  0  0  0  0  0  0  0
   53.8030   22.5900   45.4110 N   0  0  0  0  0  0  0  0  0  0  0  0
   52.5290   23.0290   45.3450 C   0  0  0  0  0  0  0  0  0  0  0  0
   51.5520   22.2510   45.1840 O   0  0  0  0  0  0  0  0  0  0  0  0
   52.3830   24.3660   45.4550 N   0  0  0  0  0  0  0  0  0  0  0  0
   53.6500   24.7870   45.6030 C   0  0  0  0  0  0  0  0  0  0  0  0
   54.0090   26.1230   45.7360 O   0  0  0  0  0  0  0  0  0  0  0  0
  1  2  2  0
  2  3  1  0
  3  4  2  0
  4  5  1  0
  5  6  1  0
  6  7  2  0
  6  8  1  0
  8  9  1  0
  9 10  1  0
 10 11  1  0
 11 12  1  0
 12 13  1  0
 13 14  1  0
 11 15  1  0
 15 16  1  0
  5 17  2  0
 17 18  1  0
 18 19  2  3
 19 20  1  0
 20 21  1  0
 21 22  1  0
 22 23  2  0
 22 24  1  0
 24 25  1  0
 25 26  1  0
 18  2  1  0
 25 20  2  0
 16  8  1  0
M  CHG  4   3   1  21  -1  24  -1  26  -1
M  END
>  <UniqueID>  (1959) 
30

>  <SMILES>  (1959) 
C=c1[nH+]nc(C(=O)N2CCN(CCC)CC2)cc1=Cc1[n-]c(=O)[n-]c1[O-]

>  <Energy>  (1959) 
105.46069734119587

>  <Genealogy>  (1959) 
C=c1[nH+]nc(C(=O)N2CCN(CCC)CC2)cc1=Cc1[n-]c(=O)[n-]c1[O-] (protonated)
C=c1[nH+]nc(C(=O)N2CCN(CCC)CC2)cc1=Cc1[n-]c(=O)[n-]c1[O-] (3D coordinates assigned)
C=c1[nH+]nc(C(=O)N2CCN(CCC)CC2)cc1=Cc1[n-]c(=O)[n-]c1[O-] (nonaromatic ring conformer: 105.46069734119587 kcal/mol)

>  <smiles>  (1959) 
C=c1nnc(C(=O)N2CCN(CCC)CC2)cc1=Cc1[nH]c(=O)[nH]c1O

>  <score_type>  (1959) 
oracle

>  <origin>  (1959) 
adg

>  <m_score__min__energy>  (1959) 
-16.039999999999999

>  <m_primary>  (1959) 
energy

$$$$
31:0
     RDKit          3D

 32 34  0  0  0  0  0  0  0  0999 V2000
   59.6980   34.9890   44.0040 H   0  0  0  0  0  0  0  0  0  0  0  0
   59.2380   35.2850   44.8940 N   0  0  0  0  0  0  0  0  0  0  0  0
   59.0990   34.4850   45.9030 C   0  0  0  0  0  0  0  0  0  0  0  0
   59.9770   34.5570   46.9370 N   0  0  0  0  0  0  0  0  0  0  0  0
   59.8880   33.7370   48.0180 C   0  0  0  0  0  0  0  0  0  0  0  0
   58.8620   32.7800   48.1020 C   0  0  0  0  0  0  0  0  0  0  0  0
   58.7260   31.8930   49.2850 C   0  0  0  0  0  0  0  0  0  0  0  0
   57.7890   32.0910   50.1050 O   0  0  0  0  0  0  0  0  0  0  0  0
   59.6690   30.7810   49.5380 C   0  0  0  0  0  0  0  0  0  0  0  0
   60.8690   31.0190   50.2280 C   0  0  0  0  0  0  0  0  0  0  0  0
   61.1900   32.2710   50.6460 F   0  0  0  0  0  0  0  0  0  0  0  0
   61.7560   29.9720   50.4720 C   0  0  0  0  0  0  0  0  0  0  0  0
   61.4560   28.6800   50.0360 C   0  0  0  0  0  0  0  0  0  0  0  0
   60.2660   28.4170   49.3500 C   0  0  0  0  0  0  0  0  0  0  0  0
   60.0230   27.0670   48.9230 N   0  0  0  0  0  0  0  0  0  0  0  0
   59.2720   26.5690   47.4410 S   0  0  0  0  0  0  0  0  0  0  0  0
   57.9380   25.9460   47.7450 O   0  0  0  0  0  0  0  0  0  0  0  0
   60.1450   25.5470   46.7710 O   0  0  0  0  0  0  0  0  0  0  0  0
   59.0960   27.9480   46.3590 C   0  0  0  0  0  0  0  0  0  0  0  0
   60.2350   28.5630   45.8330 C   0  0  0  0  0  0  0  0  0  0  0  0
   60.1080   29.6540   44.9740 C   0  0  0  0  0  0  0  0  0  0  0  0
   58.8430   30.1390   44.6300 C   0  0  0  0  0  0  0  0  0  0  0  0
   58.7660   31.2100   43.7990 F   0  0  0  0  0  0  0  0  0  0  0  0
   57.6820   29.5330   45.1550 C   0  0  0  0  0  0  0  0  0  0  0  0
   56.3260   30.0380   44.8240 C   0  0  0  0  0  0  0  0  0  0  0  0
   56.1640   31.2450   44.5000 O   0  0  0  0  0  0  0  0  0  0  0  0
   55.1890   29.1770   44.8680 N   0  0  0  0  0  0  0  0  0  0  0  0
   57.8260   28.4320   46.0210 C   0  0  0  0  0  0  0  0  0  0  0  0
   59.3570   29.4720   49.1190 C   0  0  0  0  0  0  0  0  0  0  0  0
   58.1470   29.2390   48.5570 F   0  0  0  0  0  0  0  0  0  0  0  0
   57.9360   32.7050   47.0490 C   0  0  0  0  0  0  0  0  0  0  0  0
   58.0560   33.5510   45.9440 C   0  0  0  0  0  0  0  0  0  0  0  0
  1  2  1  0
  2  3  2  0
  3  4  1  0
  4  5  1  0
  5  6  2  0
  6  7  1  0
  7  8  2  0
  7  9  1  0
  9 10  2  0
 10 11  1  0
 10 12  1  0
 12 13  2  0
 13 14  1  0
 14 15  1  0
 15 16  1  0
 16 17  2  0
 16 18  2  0
 16 19  1  0
 19 20  2  0
 20 21  1  0
 21 22  2  0
 22 23  1  0
 22 24  1  0
 24 25  1  0
 25 26  2  0
 25 27  1  0
 24 28  2  0
 14 29  2  0
 29 30  1  0
  6 31  1  0
 31 32  2  0
 32  3  1  0
 29  9  1  0
 28 19  1  0
M  CHG  3   4  -1  15  -1  27  -1
M  END
>  <UniqueID>  (1960) 
31

>  <SMILES>  (1960) 
[H]/N=c1\ccc(C(=O)c2c(F)ccc([N-]S(=O)(=O)c3ccc(F)c(C([NH-])=O)c3)c2F)c[n-]1

>  <Energy>  (1960) 
56.510967695899105

>  <Genealogy>  (1960) 
N=c1ccc(C(=O)c2c(F)ccc([N-]S(=O)(=O)c3ccc(F)c(C([NH-])=O)c3)c2F)c[n-]1 (protonated)
[H]/N=c1\ccc(C(=O)c2c(F)ccc([N-]S(=O)(=O)c3ccc(F)c(C([NH-])=O)c3)c2F)c[n-]1 (cis-trans isomerization)
[H]/N=c1\ccc(C(=O)c2c(F)ccc([N-]S(=O)(=O)c3ccc(F)c(C([NH-])=O)c3)c2F)c[n-]1 (3D coordinates assigned)
[H]/N=c1\ccc(C(=O)c2c(F)ccc([N-]S(=O)(=O)c3ccc(F)c(C([NH-])=O)c3)c2F)c[n-]1 (optimized conformer: 56.510967695899105 kcal/mol)

>  <smiles>  (1960) 
N=c1ccc(C(=O)c2c(F)ccc(NS(=O)(=O)c3ccc(F)c(C(N)=O)c3)c2F)c[nH]1

>  <score_type>  (1960) 
oracle

>  <origin>  (1960) 
adg

>  <m_score__min__energy>  (1960) 
-14.609999999999999

>  <m_primary>  (1960) 
energy

$$$$
49:0
     RDKit          3D

 27 30  0  0  0  0  0  0  0  0999 V2000
   59.6260   30.0250   45.0200 C   0  0  0  0  0  0  0  0  0  0  0  0
   59.2610   29.6850   46.2660 C   0  0  0  0  0  0  0  0  0  0  0  0
   58.4350   28.6160   46.6480 C   0  0  0  0  0  0  0  0  0  0  0  0
   57.6470   27.8040   45.9160 C   0  0  0  0  0  0  0  0  0  0  0  0
   57.2050   26.4590   46.3120 C   0  0  0  0  0  0  0  0  0  0  0  0
   58.0240   25.5320   46.8390 N   0  0  0  0  0  0  0  0  0  0  0  0
   57.1860   24.5230   47.1620 C   0  0  0  0  0  0  0  0  0  0  0  0
   57.5880   23.4460   47.6770 O   0  0  0  0  0  0  0  0  0  0  0  0
   55.8830   24.7610   46.9010 N   0  0  0  0  0  0  0  0  0  0  0  0
   55.9090   25.9970   46.3770 C   0  0  0  0  0  0  0  0  0  0  0  0
   54.7710   26.6980   45.9950 O   0  0  0  0  0  0  0  0  0  0  0  0
   58.5470   28.5140   48.0250 C   0  0  0  0  0  0  0  0  0  0  0  0
   59.3610   29.5490   48.4380 C   0  0  0  0  0  0  0  0  0  0  0  0
   59.7400   29.8270   49.8610 C   0  0  0  0  0  0  0  0  0  0  0  0
   59.7890   30.2610   47.3750 N   0  0  0  0  0  0  0  0  0  0  0  0
   60.6690   31.3990   47.4290 C   0  0  0  0  0  0  0  0  0  0  0  0
   62.0550   31.2000   47.3680 C   0  0  0  0  0  0  0  0  0  0  0  0
   62.9260   32.2900   47.4130 C   0  0  0  0  0  0  0  0  0  0  0  0
   62.4200   33.5850   47.5290 C   0  0  0  0  0  0  0  0  0  0  0  0
   61.0400   33.7960   47.5970 C   0  0  0  0  0  0  0  0  0  0  0  0
   60.1490   32.7100   47.5350 C   0  0  0  0  0  0  0  0  0  0  0  0
   58.6860   32.9270   47.6560 C   0  0  0  0  0  0  0  0  0  0  0  0
   58.1330   32.5990   48.7420 O   0  0  0  0  0  0  0  0  0  0  0  0
   57.8540   33.4760   46.6000 N   0  0  0  0  0  0  0  0  0  0  0  0
   57.7500   32.7170   45.3440 C   0  0  0  0  0  0  0  0  0  0  0  0
   58.4100   33.8240   44.5390 C   0  0  0  0  0  0  0  0  0  0  0  0
   58.5000   34.5690   45.8630 C   0  0  0  0  0  0  0  0  0  0  0  0
  1  2  2  0
  2  3  1  0
  3  4  2  0
  4  5  1  0
  5  6  1  0
  6  7  1  0
  7  8  2  0
  7  9  1  0
  9 10  1  0
 10 11  1  0
  3 12  1  0
 12 13  2  0
 13 14  1  0
 13 15  1  0
 15 16  1  0
 16 17  2  0
 17 18  1  0
 18 19  2  0
 19 20  1  0
 20 21  2  0
 21 22  1  0
 22 23  2  0
 22 24  1  0
 24 25  1  0
 25 26  1  0
 26 27  1  0
 15  2  1  0
 21 16  1  0
 27 24  1  0
 10  5  2  0
M  CHG  4   6  -1   9  -1  11  -1  24   1
M  END
>  <UniqueID>  (1961) 
48

>  <SMILES>  (1961) 
C=c1/c(=C\c2[n-]c(=O)[n-]c2[O-])cc(C)n1-c1ccccc1C(=O)[NH+]1CCC1

>  <Energy>  (1961) 
204.91619067521057

>  <Genealogy>  (1961) 
C=c1c(=Cc2[n-]c(=O)[n-]c2[O-])cc(C)n1-c1ccccc1C(=O)[NH+]1CCC1 (protonated)
C=c1/c(=C\c2[n-]c(=O)[n-]c2[O-])cc(C)n1-c1ccccc1C(=O)[NH+]1CCC1 (cis-trans isomerization)
C=c1/c(=C\c2[n-]c(=O)[n-]c2[O-])cc(C)n1-c1ccccc1C(=O)[NH+]1CCC1 (3D coordinates assigned)
C=c1/c(=C\c2[n-]c(=O)[n-]c2[O-])cc(C)n1-c1ccccc1C(=O)[NH+]1CCC1 (nonaromatic ring conformer: 204.91619067521057 kcal/mol)

>  <smiles>  (1961) 
C=c1c(=Cc2[nH]c(=O)[nH]c2O)cc(C)n1-c1ccccc1C(=O)N1CCC1

>  <score_type>  (1961) 
oracle

>  <origin>  (1961) 
adg

>  <m_score__min__energy>  (1961) 
-14.52

>  <m_primary>  (1961) 
energy

$$$$
50:0
     RDKit          3D

 31 34  0  0  0  0  0  0  0  0999 V2000
   53.7650   29.4330   54.7460 C   0  0  0  0  0  0  0  0  0  0  0  0
   54.3860   29.8990   53.6490 C   0  0  0  0  0  0  0  0  0  0  0  0
   53.7640   30.3670   52.4830 C   0  0  0  0  0  0  0  0  0  0  0  0
   52.4350   30.4720   52.2600 C   0  0  0  0  0  0  0  0  0  0  0  0
   51.7970   30.8520   50.9780 C   0  0  0  0  0  0  0  0  0  0  0  0
   51.7150   30.0870   49.8750 N   0  0  0  0  0  0  0  0  0  0  0  0
   51.0200   30.8530   49.0080 C   0  0  0  0  0  0  0  0  0  0  0  0
   50.7410   30.4740   47.8400 O   0  0  0  0  0  0  0  0  0  0  0  0
   50.6500   32.0580   49.4880 N   0  0  0  0  0  0  0  0  0  0  0  0
   51.1460   32.0390   50.7360 C   0  0  0  0  0  0  0  0  0  0  0  0
   51.0050   33.0880   51.6360 O   0  0  0  0  0  0  0  0  0  0  0  0
   54.7930   30.6940   51.6070 C   0  0  0  0  0  0  0  0  0  0  0  0
   55.9800   30.4140   52.2560 C   0  0  0  0  0  0  0  0  0  0  0  0
   57.3130   30.5510   51.6320 C   0  0  0  0  0  0  0  0  0  0  0  0
   58.1580   29.6220   51.7490 O   0  0  0  0  0  0  0  0  0  0  0  0
   57.6380   31.7230   50.8690 N   0  0  0  0  0  0  0  0  0  0  0  0
   58.9030   31.8460   50.1390 C   0  0  0  0  0  0  0  0  0  0  0  0
   59.2140   30.5560   49.3760 C   0  0  0  0  0  0  0  0  0  0  0  0
   60.4720   30.7470   48.5170 C   0  0  0  0  0  0  0  0  0  0  0  0
   61.5680   31.4520   49.2250 N   0  0  0  0  0  0  0  0  0  0  0  0
   62.1790   32.5880   48.4990 C   0  0  0  0  0  0  0  0  0  0  0  0
   61.1790   33.4270   47.7360 C   0  0  0  0  0  0  0  0  0  0  0  0
   61.1900   33.4550   46.3300 C   0  0  0  0  0  0  0  0  0  0  0  0
   60.2480   34.2170   45.6320 C   0  0  0  0  0  0  0  0  0  0  0  0
   59.3010   34.9700   46.3290 C   0  0  0  0  0  0  0  0  0  0  0  0
   59.3010   34.9710   47.7250 C   0  0  0  0  0  0  0  0  0  0  0  0
   60.2380   34.2100   48.4280 C   0  0  0  0  0  0  0  0  0  0  0  0
   61.4210   31.6190   50.6870 C   0  0  0  0  0  0  0  0  0  0  0  0
   60.0490   32.1920   51.1100 C   0  0  0  0  0  0  0  0  0  0  0  0
   55.7360   29.9540   53.5080 N   0  0  0  0  0  0  0  0  0  0  0  0
   56.7420   29.5780   54.5080 C   0  0  0  0  0  0  0  0  0  0  0  0
  1  2  2  0
  2  3  1  0
  3  4  2  0
  4  5  1  0
  5  6  1  0
  6  7  1  0
  7  8  2  0
  7  9  1  0
  9 10  1  0
 10 11  1  0
  3 12  1  0
 12 13  2  0
 13 14  1  0
 14 15  2  0
 14 16  1  0
 16 17  1  0
 17 18  1  0
 18 19  1  0
 19 20  1  0
 20 21  1  0
 21 22  1  0
 22 23  2  0
 23 24  1  0
 24 25  2  0
 25 26  1  0
 26 27  2  0
 20 28  1  0
 28 29  1  0
 13 30  1  0
 30 31  1  0
 30  2  1  0
 10  5  2  0
 29 17  1  0
 27 22  1  0
M  CHG  3   6  -1   9  -1  11  -1
M  END
>  <UniqueID>  (1962) 
49

>  <SMILES>  (1962) 
C=c1/c(=C/c2[n-]c(=O)[n-]c2[O-])cc(C(=O)NC2CCN(Cc3ccccc3)CC2)n1C

>  <Energy>  (1962) 
133.99002185544478

>  <Genealogy>  (1962) 
C=c1c(=Cc2[n-]c(=O)[n-]c2[O-])cc(C(=O)NC2CCN(Cc3ccccc3)CC2)n1C (protonated)
C=c1/c(=C/c2[n-]c(=O)[n-]c2[O-])cc(C(=O)NC2CCN(Cc3ccccc3)CC2)n1C (cis-trans isomerization)
C=c1/c(=C/c2[n-]c(=O)[n-]c2[O-])cc(C(=O)NC2CCN(Cc3ccccc3)CC2)n1C (3D coordinates assigned)
C=c1/c(=C/c2[n-]c(=O)[n-]c2[O-])cc(C(=O)NC2CCN(Cc3ccccc3)CC2)n1C (nonaromatic ring conformer: 133.99002185544478 kcal/mol)

>  <smiles>  (1962) 
C=c1c(=Cc2[nH]c(=O)[nH]c2O)cc(C(=O)NC2CCN(Cc3ccccc3)CC2)n1C

>  <score_type>  (1962) 
oracle

>  <origin>  (1962) 
adg

>  <m_score__min__energy>  (1962) 
-18.899999999999999

>  <m_primary>  (1962) 
energy

$$$$
53:0
     RDKit          3D

 37 40  0  0  0  0  0  0  0  0999 V2000
   54.9470   26.4270   45.9950 O   0  0  0  0  0  0  0  0  0  0  0  0
   55.9270   25.4800   46.2750 C   0  0  0  0  0  0  0  0  0  0  0  0
   55.7610   24.4610   47.1340 N   0  0  0  0  0  0  0  0  0  0  0  0
   56.9490   23.8250   47.0710 C   0  0  0  0  0  0  0  0  0  0  0  0
   57.2010   22.7860   47.7370 O   0  0  0  0  0  0  0  0  0  0  0  0
   57.8440   24.3860   46.2330 N   0  0  0  0  0  0  0  0  0  0  0  0
   57.1900   25.4490   45.7340 C   0  0  0  0  0  0  0  0  0  0  0  0
   57.7170   26.3980   44.7290 C   0  0  0  0  0  0  0  0  0  0  0  0
   58.2880   27.5920   45.0000 C   0  0  0  0  0  0  0  0  0  0  0  0
   59.6200   27.8350   45.3240 C   0  0  0  0  0  0  0  0  0  0  0  0
   59.7370   29.1940   45.5380 C   0  0  0  0  0  0  0  0  0  0  0  0
   60.9910   29.8890   45.9690 C   0  0  0  0  0  0  0  0  0  0  0  0
   58.5450   29.7990   45.3680 N   0  0  0  0  0  0  0  0  0  0  0  0
   58.2840   31.2000   45.5420 C   0  0  0  0  0  0  0  0  0  0  0  0
   57.8230   31.9450   44.4480 C   0  0  0  0  0  0  0  0  0  0  0  0
   57.6400   33.3250   44.5650 C   0  0  0  0  0  0  0  0  0  0  0  0
   57.9120   33.9700   45.7740 C   0  0  0  0  0  0  0  0  0  0  0  0
   58.3510   33.2340   46.8710 C   0  0  0  0  0  0  0  0  0  0  0  0
   58.5450   31.8440   46.7730 C   0  0  0  0  0  0  0  0  0  0  0  0
   58.9750   31.0850   47.9690 C   0  0  0  0  0  0  0  0  0  0  0  0
   58.2770   30.1120   48.3680 O   0  0  0  0  0  0  0  0  0  0  0  0
   60.1280   31.4850   48.7320 N   0  0  0  0  0  0  0  0  0  0  0  0
   60.9920   30.4530   49.3140 C   0  0  0  0  0  0  0  0  0  0  0  0
   60.5610   32.8880   48.7430 C   0  0  0  0  0  0  0  0  0  0  0  0
   61.3340   33.2050   47.4580 C   0  0  0  0  0  0  0  0  0  0  0  0
   62.7590   33.3830   47.7580 N   0  0  0  0  0  0  0  0  0  0  0  0
   63.1740   33.6730   49.1050 C   0  0  0  0  0  0  0  0  0  0  0  0
   62.6890   34.6740   49.6960 O   0  0  0  0  0  0  0  0  0  0  0  0
   64.1450   32.8090   49.8130 C   0  0  0  0  0  0  0  0  0  0  0  0
   63.7100   31.6920   50.5530 C   0  0  0  0  0  0  0  0  0  0  0  0
   64.6370   30.8700   51.2000 C   0  0  0  0  0  0  0  0  0  0  0  0
   66.0040   31.1510   51.1120 C   0  0  0  0  0  0  0  0  0  0  0  0
   66.4460   32.2550   50.3750 C   0  0  0  0  0  0  0  0  0  0  0  0
   65.5220   33.0770   49.7240 C   0  0  0  0  0  0  0  0  0  0  0  0
   63.7710   33.1070   46.7400 C   0  0  0  0  0  0  0  0  0  0  0  0
   57.6470   28.8370   45.0460 C   0  0  0  0  0  0  0  0  0  0  0  0
   56.3440   29.0780   44.8310 C   0  0  0  0  0  0  0  0  0  0  0  0
  1  2  1  0
  2  3  1  0
  3  4  1  0
  4  5  2  0
  4  6  1  0
  6  7  1  0
  7  8  1  0
  8  9  2  0
  9 10  1  0
 10 11  2  0
 11 12  1  0
 11 13  1  0
 13 14  1  0
 14 15  2  0
 15 16  1  0
 16 17  2  0
 17 18  1  0
 18 19  2  0
 19 20  1  0
 20 21  2  0
 20 22  1  0
 22 23  1  0
 22 24  1  0
 24 25  1  0
 25 26  1  0
 26 27  1  0
 27 28  2  0
 27 29  1  0
 29 30  2  0
 30 31  1  0
 31 32  2  0
 32 33  1  0
 33 34  2  0
 26 35  1  0
 13 36  1  0
 36 37  2  0
  7  2  2  0
 36  9  1  0
 19 14  1  0
 34 29  1  0
M  CHG  2   3  -1   6  -1
M  END
>  <UniqueID>  (1963) 
52

>  <SMILES>  (1963) 
C=c1/c(=C/c2[n-]c(=O)[n-]c2O)cc(C)n1-c1ccccc1C(=O)N(C)CCN(C)C(=O)c1ccccc1

>  <Energy>  (1963) 
139.90547569101827

>  <Genealogy>  (1963) 
C=c1c(=Cc2[n-]c(=O)[n-]c2O)cc(C)n1-c1ccccc1C(=O)N(C)CCN(C)C(=O)c1ccccc1 (protonated)
C=c1/c(=C/c2[n-]c(=O)[n-]c2O)cc(C)n1-c1ccccc1C(=O)N(C)CCN(C)C(=O)c1ccccc1 (cis-trans isomerization)
C=c1/c(=C/c2[n-]c(=O)[n-]c2O)cc(C)n1-c1ccccc1C(=O)N(C)CCN(C)C(=O)c1ccccc1 (3D coordinates assigned)
C=c1/c(=C/c2[n-]c(=O)[n-]c2O)cc(C)n1-c1ccccc1C(=O)N(C)CCN(C)C(=O)c1ccccc1 (optimized conformer: 139.90547569101827 kcal/mol)

>  <smiles>  (1963) 
C=c1c(=Cc2[nH]c(=O)[nH]c2O)cc(C)n1-c1ccccc1C(=O)N(C)CCN(C)C(=O)c1ccccc1

>  <score_type>  (1963) 
oracle

>  <origin>  (1963) 
adg

>  <m_score__min__energy>  (1963) 
-14.25

>  <m_primary>  (1963) 
energy

$$$$
55:0
     RDKit          3D

 30 33  0  0  0  0  0  0  0  0999 V2000
   59.3220   34.9190   44.9680 C   0  0  0  0  0  0  0  0  0  0  0  0
   57.7890   34.0220   45.0800 S   0  0  0  0  0  0  0  0  0  0  0  0
   57.5020   33.6490   46.5070 O   0  0  0  0  0  0  0  0  0  0  0  0
   56.6790   34.9010   44.5770 O   0  0  0  0  0  0  0  0  0  0  0  0
   57.8580   32.5950   44.0960 N   0  0  0  0  0  0  0  0  0  0  0  0
   57.3360   31.3070   44.4460 C   0  0  0  0  0  0  0  0  0  0  0  0
   56.2540   30.7240   43.7660 C   0  0  0  0  0  0  0  0  0  0  0  0
   55.7750   29.4700   44.1490 C   0  0  0  0  0  0  0  0  0  0  0  0
   56.3700   28.7790   45.2080 C   0  0  0  0  0  0  0  0  0  0  0  0
   55.8430   27.5510   45.5940 O   0  0  0  0  0  0  0  0  0  0  0  0
   57.4710   29.3380   45.8850 C   0  0  0  0  0  0  0  0  0  0  0  0
   58.1340   28.6260   47.0030 C   0  0  0  0  0  0  0  0  0  0  0  0
   58.1370   29.1540   48.1480 O   0  0  0  0  0  0  0  0  0  0  0  0
   58.7830   27.3540   46.8050 N   0  0  0  0  0  0  0  0  0  0  0  0
   59.2680   26.9630   45.4860 C   0  0  0  0  0  0  0  0  0  0  0  0
   58.2870   25.9710   44.8650 C   0  0  0  0  0  0  0  0  0  0  0  0
   57.8370   24.8930   45.8420 C   0  0  0  0  0  0  0  0  0  0  0  0
   58.0180   25.0630   47.2390 C   0  0  0  0  0  0  0  0  0  0  0  0
   57.6090   24.0330   48.1040 C   0  0  0  0  0  0  0  0  0  0  0  0
   57.7950   24.1310   49.3460 O   0  0  0  0  0  0  0  0  0  0  0  0
   57.0200   22.9440   47.6290 O   0  0  0  0  0  0  0  0  0  0  0  0
   56.7800   22.7580   46.3380 C   0  0  0  0  0  0  0  0  0  0  0  0
   56.1330   21.5870   45.9280 C   0  0  0  0  0  0  0  0  0  0  0  0
   55.8510   21.3740   44.5780 C   0  0  0  0  0  0  0  0  0  0  0  0
   56.2080   22.3340   43.6300 C   0  0  0  0  0  0  0  0  0  0  0  0
   55.9130   22.1220   42.2880 O   0  0  0  0  0  0  0  0  0  0  0  0
   56.8590   23.5070   44.0240 C   0  0  0  0  0  0  0  0  0  0  0  0
   57.1670   23.7310   45.3850 C   0  0  0  0  0  0  0  0  0  0  0  0
   58.6950   26.2920   47.8100 C   0  0  0  0  0  0  0  0  0  0  0  0
   57.9340   30.6100   45.5040 C   0  0  0  0  0  0  0  0  0  0  0  0
  1  2  1  0
  2  3  2  0
  2  4  2  0
  2  5  1  0
  5  6  1  0
  6  7  2  0
  7  8  1  0
  8  9  2  0
  9 10  1  0
  9 11  1  0
 11 12  1  0
 12 13  2  0
 12 14  1  0
 14 15  1  0
 15 16  1  0
 16 17  1  0
 17 18  2  0
 18 19  1  0
 19 20  2  0
 19 21  1  0
 21 22  1  0
 22 23  2  0
 23 24  1  0
 24 25  2  0
 25 26  1  0
 25 27  1  0
 27 28  2  0
 18 29  1  0
 11 30  2  0
 30  6  1  0
 29 14  1  0
 28 17  1  0
 28 22  1  0
M  CHG  3   5  -1  10  -1  26  -1
M  END
>  <UniqueID>  (1964) 
54

>  <SMILES>  (1964) 
CS(=O)(=O)[N-]c1ccc([O-])c(C(=O)N2CCc3c(c(=O)oc4ccc([O-])cc34)C2)c1

>  <Energy>  (1964) 
64.58855793046381

>  <Genealogy>  (1964) 
CS(=O)(=O)[N-]c1ccc([O-])c(C(=O)N2CCc3c(c(=O)oc4ccc([O-])cc34)C2)c1 (protonated)
CS(=O)(=O)[N-]c1ccc([O-])c(C(=O)N2CCc3c(c(=O)oc4ccc([O-])cc34)C2)c1 (3D coordinates assigned)
CS(=O)(=O)[N-]c1ccc([O-])c(C(=O)N2CCc3c(c(=O)oc4ccc([O-])cc34)C2)c1 (nonaromatic ring conformer: 64.58855793046381 kcal/mol)

>  <smiles>  (1964) 
CS(=O)(=O)Nc1ccc(O)c(C(=O)N2CCc3c(c(=O)oc4ccc(O)cc34)C2)c1

>  <score_type>  (1964) 
oracle

>  <origin>  (1964) 
adg

>  <m_score__min__energy>  (1964) 
-14.640000000000001

>  <m_primary>  (1964) 
energy

$$$$
6:0
     RDKit          3D

 33 36  0  0  0  0  0  0  0  0999 V2000
   56.3760   29.4480   44.3230 C   0  0  0  0  0  0  0  0  0  0  0  0
   57.6350   29.0550   44.5830 C   0  0  0  0  0  0  0  0  0  0  0  0
   58.0920   27.7380   44.7530 C   0  0  0  0  0  0  0  0  0  0  0  0
   57.4950   26.5580   44.4920 C   0  0  0  0  0  0  0  0  0  0  0  0
   56.9850   25.6150   45.5030 C   0  0  0  0  0  0  0  0  0  0  0  0
   57.6910   24.5920   46.0180 N   0  0  0  0  0  0  0  0  0  0  0  0
   56.8860   24.1130   46.9900 C   0  0  0  0  0  0  0  0  0  0  0  0
   57.1970   23.1240   47.7030 O   0  0  0  0  0  0  0  0  0  0  0  0
   55.7240   24.7830   47.1450 N   0  0  0  0  0  0  0  0  0  0  0  0
   55.8100   25.7390   46.2050 C   0  0  0  0  0  0  0  0  0  0  0  0
   54.8370   26.7090   45.9980 O   0  0  0  0  0  0  0  0  0  0  0  0
   59.3710   27.8380   45.2820 C   0  0  0  0  0  0  0  0  0  0  0  0
   59.6730   29.1840   45.3440 C   0  0  0  0  0  0  0  0  0  0  0  0
   60.9320   29.7520   45.9260 C   0  0  0  0  0  0  0  0  0  0  0  0
   58.6270   29.9200   44.9090 N   0  0  0  0  0  0  0  0  0  0  0  0
   58.5210   31.3500   45.0040 C   0  0  0  0  0  0  0  0  0  0  0  0
   57.9230   32.0920   43.9790 C   0  0  0  0  0  0  0  0  0  0  0  0
   57.7910   33.4780   44.1090 C   0  0  0  0  0  0  0  0  0  0  0  0
   58.2320   34.1240   45.2700 C   0  0  0  0  0  0  0  0  0  0  0  0
   58.8040   33.3810   46.3170 C   0  0  0  0  0  0  0  0  0  0  0  0
   59.1990   34.0280   47.5870 C   0  0  0  0  0  0  0  0  0  0  0  0
   59.2800   35.2860   47.6610 O   0  0  0  0  0  0  0  0  0  0  0  0
   59.5100   33.2280   48.7390 N   0  0  0  0  0  0  0  0  0  0  0  0
   60.9220   33.1860   49.1560 C   0  0  0  0  0  0  0  0  0  0  0  0
   61.1890   32.3000   50.3800 C   0  0  0  0  0  0  0  0  0  0  0  0
   60.3080   31.0450   50.4070 C   0  0  0  0  0  0  0  0  0  0  0  0
   60.5900   30.0690   49.2230 C   0  0  0  0  0  0  0  0  0  0  0  0
   59.7080   28.8800   49.2630 N   0  0  0  0  0  0  0  0  0  0  0  0
   60.4770   27.6780   48.9010 C   0  0  0  0  0  0  0  0  0  0  0  0
   58.5700   29.0240   48.3380 C   0  0  0  0  0  0  0  0  0  0  0  0
   58.8460   31.5040   50.4720 C   0  0  0  0  0  0  0  0  0  0  0  0
   58.4350   32.3680   49.2710 C   0  0  0  0  0  0  0  0  0  0  0  0
   58.9740   31.9960   46.1600 C   0  0  0  0  0  0  0  0  0  0  0  0
  1  2  2  0
  2  3  1  0
  3  4  2  3
  4  5  1  0
  5  6  1  0
  6  7  1  0
  7  8  2  0
  7  9  1  0
  9 10  1  0
 10 11  1  0
  3 12  1  0
 12 13  2  0
 13 14  1  0
 13 15  1  0
 15 16  1  0
 16 17  2  0
 17 18  1  0
 18 19  2  0
 19 20  1  0
 20 21  1  0
 21 22  2  0
 21 23  1  0
 23 24  1  0
 24 25  1  0
 25 26  1  0
 26 27  1  0
 27 28  1  0
 28 29  1  0
 28 30  1  0
 26 31  1  0
 31 32  1  0
 20 33  2  0
 15  2  1  0
 33 16  1  0
 10  5  2  0
 32 23  1  0
M  CHG  3   6  -1   9  -1  11  -1
M  END
>  <UniqueID>  (1965) 
5

>  <SMILES>  (1965) 
C=c1c(=Cc2[n-]c(=O)[n-]c2[O-])cc(C)n1-c1cccc(C(=O)N2CCC(CN(C)C)CC2)c1

>  <Energy>  (1965) 
146.7273311341004

>  <Genealogy>  (1965) 
C=c1c(=Cc2[n-]c(=O)[n-]c2[O-])cc(C)n1-c1cccc(C(=O)N2CCC(CN(C)C)CC2)c1 (protonated)
C=c1c(=Cc2[n-]c(=O)[n-]c2[O-])cc(C)n1-c1cccc(C(=O)N2CCC(CN(C)C)CC2)c1 (3D coordinates assigned)
C=c1c(=Cc2[n-]c(=O)[n-]c2[O-])cc(C)n1-c1cccc(C(=O)N2CCC(CN(C)C)CC2)c1 (nonaromatic ring conformer: 146.7273311341004 kcal/mol)

>  <smiles>  (1965) 
C=c1c(=Cc2[nH]c(=O)[nH]c2O)cc(C)n1-c1cccc(C(=O)N2CCC(CN(C)C)CC2)c1

>  <score_type>  (1965) 
oracle

>  <origin>  (1965) 
adg

>  <m_score__min__energy>  (1965) 
-17.109999999999999

>  <m_primary>  (1965) 
energy

$$$$
17:0
     RDKit          3D

 29 31  0  0  0  0  0  0  0  0999 V2000
   59.9960   34.9180   46.3900 C   0  0  0  0  0  0  0  0  0  0  0  0
   59.4490   34.9490   47.8130 C   0  0  0  0  0  0  0  0  0  0  0  0
   60.0070   33.8940   48.5970 O   0  0  0  0  0  0  0  0  0  0  0  0
   61.3560   33.4950   48.6060 C   0  0  0  0  0  0  0  0  0  0  0  0
   62.3380   34.2360   49.3040 C   0  0  0  0  0  0  0  0  0  0  0  0
   63.6800   33.8560   49.2620 C   0  0  0  0  0  0  0  0  0  0  0  0
   64.0670   32.7370   48.5300 C   0  0  0  0  0  0  0  0  0  0  0  0
   63.1120   31.9810   47.8500 C   0  0  0  0  0  0  0  0  0  0  0  0
   61.7490   32.3350   47.8890 C   0  0  0  0  0  0  0  0  0  0  0  0
   60.7610   31.4820   47.1700 C   0  0  0  0  0  0  0  0  0  0  0  0
   61.0630   30.2870   46.8970 O   0  0  0  0  0  0  0  0  0  0  0  0
   59.4400   31.9670   46.8700 N   0  0  0  0  0  0  0  0  0  0  0  0
   58.5930   31.4770   45.8110 C   0  0  0  0  0  0  0  0  0  0  0  0
   58.1760   32.2980   44.7460 C   0  0  0  0  0  0  0  0  0  0  0  0
   57.3240   31.7950   43.7580 C   0  0  0  0  0  0  0  0  0  0  0  0
   56.8580   30.4820   43.8350 C   0  0  0  0  0  0  0  0  0  0  0  0
   57.2450   29.6540   44.8930 C   0  0  0  0  0  0  0  0  0  0  0  0
   56.6870   28.3330   44.9830 N   0  0  0  0  0  0  0  0  0  0  0  0
   57.3880   27.1070   44.7470 C   0  0  0  0  0  0  0  0  0  0  0  0
   58.1950   27.0480   43.7800 O   0  0  0  0  0  0  0  0  0  0  0  0
   57.2160   25.9310   45.6340 C   0  0  0  0  0  0  0  0  0  0  0  0
   58.3030   25.0880   45.9090 C   0  0  0  0  0  0  0  0  0  0  0  0
   58.1430   24.0050   46.7100 N   0  0  0  0  0  0  0  0  0  0  0  0
   56.9350   23.7080   47.2490 C   0  0  0  0  0  0  0  0  0  0  0  0
   56.8080   22.7010   47.9910 O   0  0  0  0  0  0  0  0  0  0  0  0
   55.8640   24.5090   47.0050 N   0  0  0  0  0  0  0  0  0  0  0  0
   55.9750   25.6040   46.2090 C   0  0  0  0  0  0  0  0  0  0  0  0
   54.9630   26.3320   46.0200 O   0  0  0  0  0  0  0  0  0  0  0  0
   58.1040   30.1610   45.8850 C   0  0  0  0  0  0  0  0  0  0  0  0
  1  2  1  0
  2  3  1  0
  3  4  1  0
  4  5  2  0
  5  6  1  0
  6  7  2  0
  7  8  1  0
  8  9  2  0
  9 10  1  0
 10 11  2  0
 10 12  1  0
 12 13  1  0
 13 14  2  0
 14 15  1  0
 15 16  2  0
 16 17  1  0
 17 18  1  0
 18 19  1  0
 19 20  2  0
 19 21  1  0
 21 22  2  0
 22 23  1  0
 23 24  1  0
 24 25  2  0
 24 26  1  0
 26 27  1  0
 27 28  2  0
 17 29  2  0
  9  4  1  0
 29 13  1  0
 27 21  1  0
M  CHG  3  18  -1  23  -1  26  -1
M  END
>  <UniqueID>  (1966) 
16

>  <SMILES>  (1966) 
CCOc1ccccc1C(=O)Nc1cccc([N-]C(=O)c2c[n-]c(=O)[n-]c2=O)c1

>  <Energy>  (1966) 
62.241539368406784

>  <Genealogy>  (1966) 
CCOc1ccccc1C(=O)Nc1cccc([N-]C(=O)c2c[n-]c(=O)[n-]c2=O)c1 (protonated)
CCOc1ccccc1C(=O)Nc1cccc([N-]C(=O)c2c[n-]c(=O)[n-]c2=O)c1 (3D coordinates assigned)
CCOc1ccccc1C(=O)Nc1cccc([N-]C(=O)c2c[n-]c(=O)[n-]c2=O)c1 (optimized conformer: 62.241539368406784 kcal/mol)

>  <smiles>  (1966) 
CCOc1ccccc1C(=O)Nc1cccc(NC(=O)c2c[nH]c(=O)[nH]c2=O)c1

>  <score_type>  (1966) 
oracle

>  <origin>  (1966) 
adg

>  <m_score__min__energy>  (1966) 
-14.029999999999999

>  <m_primary>  (1966) 
energy

$$$$
20:0
     RDKit          3D

 32 35  0  0  0  0  0  0  0  0999 V2000
   56.5790   29.4790   43.9450 C   0  0  0  0  0  0  0  0  0  0  0  0
   57.6730   29.1190   44.6340 C   0  0  0  0  0  0  0  0  0  0  0  0
   58.1300   27.8130   44.8850 C   0  0  0  0  0  0  0  0  0  0  0  0
   57.5460   26.6160   44.6830 C   0  0  0  0  0  0  0  0  0  0  0  0
   57.0410   25.7180   45.7340 C   0  0  0  0  0  0  0  0  0  0  0  0
   57.6850   24.6240   46.1840 N   0  0  0  0  0  0  0  0  0  0  0  0
   56.7870   24.0550   47.0170 C   0  0  0  0  0  0  0  0  0  0  0  0
   57.0300   22.9980   47.6550 O   0  0  0  0  0  0  0  0  0  0  0  0
   55.6030   24.6990   47.1010 N   0  0  0  0  0  0  0  0  0  0  0  0
   55.7780   25.7420   46.2720 C   0  0  0  0  0  0  0  0  0  0  0  0
   54.7990   26.6910   46.0060 O   0  0  0  0  0  0  0  0  0  0  0  0
   59.3850   27.9460   45.4560 C   0  0  0  0  0  0  0  0  0  0  0  0
   59.6260   29.2970   45.5880 C   0  0  0  0  0  0  0  0  0  0  0  0
   60.8610   29.8920   46.1930 C   0  0  0  0  0  0  0  0  0  0  0  0
   58.5850   30.0090   45.1020 N   0  0  0  0  0  0  0  0  0  0  0  0
   58.5250   31.4440   45.0290 C   0  0  0  0  0  0  0  0  0  0  0  0
   58.1380   32.0750   43.8390 C   0  0  0  0  0  0  0  0  0  0  0  0
   58.0960   33.4680   43.7660 C   0  0  0  0  0  0  0  0  0  0  0  0
   58.4450   34.2410   44.8760 C   0  0  0  0  0  0  0  0  0  0  0  0
   58.8450   33.6240   46.0760 C   0  0  0  0  0  0  0  0  0  0  0  0
   59.2200   34.4420   47.2550 C   0  0  0  0  0  0  0  0  0  0  0  0
   59.5700   35.6440   47.1040 O   0  0  0  0  0  0  0  0  0  0  0  0
   59.1870   33.8720   48.5660 N   0  0  0  0  0  0  0  0  0  0  0  0
   59.9470   32.6840   48.9330 C   0  0  0  0  0  0  0  0  0  0  0  0
   61.4050   32.9260   48.6700 C   0  0  0  0  0  0  0  0  0  0  0  0
   61.9220   32.7890   47.3720 C   0  0  0  0  0  0  0  0  0  0  0  0
   63.2740   33.0480   47.1230 C   0  0  0  0  0  0  0  0  0  0  0  0
   64.1130   33.4560   48.1630 C   0  0  0  0  0  0  0  0  0  0  0  0
   63.6010   33.6110   49.4540 C   0  0  0  0  0  0  0  0  0  0  0  0
   64.4150   34.0140   50.4610 F   0  0  0  0  0  0  0  0  0  0  0  0
   62.2500   33.3520   49.7080 C   0  0  0  0  0  0  0  0  0  0  0  0
   58.8830   32.2200   46.1400 C   0  0  0  0  0  0  0  0  0  0  0  0
  1  2  2  0
  2  3  1  0
  3  4  2  3
  4  5  1  0
  5  6  1  0
  6  7  1  0
  7  8  2  0
  7  9  1  0
  9 10  1  0
 10 11  1  0
  3 12  1  0
 12 13  2  0
 13 14  1  0
 13 15  1  0
 15 16  1  0
 16 17  2  0
 17 18  1  0
 18 19  2  0
 19 20  1  0
 20 21  1  0
 21 22  2  0
 21 23  1  0
 23 24  1  0
 24 25  1  0
 25 26  2  0
 26 27  1  0
 27 28  2  0
 28 29  1  0
 29 30  1  0
 29 31  2  0
 20 32  2  0
 15  2  1  0
 32 16  1  0
 10  5  2  0
 31 25  1  0
M  CHG  4   6  -1   9  -1  11  -1  23  -1
M  END
>  <UniqueID>  (1967) 
19

>  <SMILES>  (1967) 
C=c1c(=Cc2[n-]c(=O)[n-]c2[O-])cc(C)n1-c1cccc(C(=O)[N-]Cc2cccc(F)c2)c1

>  <Energy>  (1967) 
126.52452766777061

>  <Genealogy>  (1967) 
C=c1c(=Cc2[n-]c(=O)[n-]c2[O-])cc(C)n1-c1cccc(C(=O)[N-]Cc2cccc(F)c2)c1 (protonated)
C=c1c(=Cc2[n-]c(=O)[n-]c2[O-])cc(C)n1-c1cccc(C(=O)[N-]Cc2cccc(F)c2)c1 (3D coordinates assigned)
C=c1c(=Cc2[n-]c(=O)[n-]c2[O-])cc(C)n1-c1cccc(C(=O)[N-]Cc2cccc(F)c2)c1 (optimized conformer: 126.52452766777061 kcal/mol)

>  <smiles>  (1967) 
C=c1c(=Cc2[nH]c(=O)[nH]c2O)cc(C)n1-c1cccc(C(=O)NCc2cccc(F)c2)c1

>  <score_type>  (1967) 
oracle

>  <origin>  (1967) 
adg

>  <m_score__min__energy>  (1967) 
-17.960000000000001

>  <m_primary>  (1967) 
energy

$$$$
21:0
     RDKit          3D

 29 32  0  0  0  0  0  0  0  0999 V2000
   56.5630   27.7950   52.8940 O   0  0  0  0  0  0  0  0  0  0  0  0
   56.4610   28.9460   53.4020 C   0  0  0  0  0  0  0  0  0  0  0  0
   57.6720   29.5670   54.0560 C   0  0  0  0  0  0  0  0  0  0  0  0
   58.1290   30.7930   53.3100 C   0  0  0  0  0  0  0  0  0  0  0  0
   58.8730   31.7810   53.9690 C   0  0  0  0  0  0  0  0  0  0  0  0
   59.2620   32.9390   53.2930 C   0  0  0  0  0  0  0  0  0  0  0  0
   58.9070   33.1300   51.9510 C   0  0  0  0  0  0  0  0  0  0  0  0
   59.2930   34.2960   51.2900 O   0  0  0  0  0  0  0  0  0  0  0  0
   58.1550   32.1450   51.2790 C   0  0  0  0  0  0  0  0  0  0  0  0
   57.7170   32.3290   49.8440 C   0  0  0  0  0  0  0  0  0  0  0  0
   58.8860   32.4840   48.9520 N   0  0  0  0  0  0  0  0  0  0  0  0
   58.9560   31.3910   47.9540 C   0  0  0  0  0  0  0  0  0  0  0  0
   59.7900   31.8130   46.7340 C   0  0  0  0  0  0  0  0  0  0  0  0
   59.2660   32.9390   46.0410 O   0  0  0  0  0  0  0  0  0  0  0  0
   58.4690   33.7890   46.8520 C   0  0  0  0  0  0  0  0  0  0  0  0
   58.9180   33.8280   48.3240 C   0  0  0  0  0  0  0  0  0  0  0  0
   57.7640   30.9860   51.9690 C   0  0  0  0  0  0  0  0  0  0  0  0
   55.1820   29.6160   53.3880 N   0  0  0  0  0  0  0  0  0  0  0  0
   54.6480   30.2250   54.6190 C   0  0  0  0  0  0  0  0  0  0  0  0
   53.1210   30.2640   54.6110 C   0  0  0  0  0  0  0  0  0  0  0  0
   52.6310   30.9180   53.3550 C   0  0  0  0  0  0  0  0  0  0  0  0
   51.4960   31.7440   53.3710 C   0  0  0  0  0  0  0  0  0  0  0  0
   51.0270   32.3190   52.1860 C   0  0  0  0  0  0  0  0  0  0  0  0
   49.9090   33.1420   52.2120 O   0  0  0  0  0  0  0  0  0  0  0  0
   51.6830   32.0590   50.9760 C   0  0  0  0  0  0  0  0  0  0  0  0
   51.2170   32.6230   49.7950 O   0  0  0  0  0  0  0  0  0  0  0  0
   52.8040   31.2240   50.9530 C   0  0  0  0  0  0  0  0  0  0  0  0
   53.2900   30.6560   52.1420 C   0  0  0  0  0  0  0  0  0  0  0  0
   54.4670   29.7110   52.1010 C   0  0  0  0  0  0  0  0  0  0  0  0
  1  2  2  0
  2  3  1  0
  3  4  1  0
  4  5  2  0
  5  6  1  0
  6  7  2  0
  7  8  1  0
  7  9  1  0
  9 10  1  0
 10 11  1  0
 11 12  1  0
 12 13  1  0
 13 14  1  0
 14 15  1  0
 15 16  1  0
  9 17  2  0
  2 18  1  0
 18 19  1  0
 19 20  1  0
 20 21  1  0
 21 22  2  0
 22 23  1  0
 23 24  1  0
 23 25  2  0
 25 26  1  0
 25 27  1  0
 27 28  2  0
 28 29  1  0
 17  4  1  0
 29 18  1  0
 16 11  1  0
 28 21  1  0
M  CHG  2  24  -1  26  -1
M  END
>  <UniqueID>  (1968) 
20

>  <SMILES>  (1968) 
O=C(Cc1ccc(O)c(CN2CCOCC2)c1)N1CCc2cc([O-])c([O-])cc2C1

>  <Energy>  (1968) 
72.82713332620123

>  <Genealogy>  (1968) 
O=C(Cc1ccc(O)c(CN2CCOCC2)c1)N1CCc2cc([O-])c([O-])cc2C1 (protonated)
O=C(Cc1ccc(O)c(CN2CCOCC2)c1)N1CCc2cc([O-])c([O-])cc2C1 (3D coordinates assigned)
O=C(Cc1ccc(O)c(CN2CCOCC2)c1)N1CCc2cc([O-])c([O-])cc2C1 (nonaromatic ring conformer: 72.82713332620123 kcal/mol)

>  <smiles>  (1968) 
O=C(Cc1ccc(O)c(CN2CCOCC2)c1)N1CCc2cc(O)c(O)cc2C1

>  <score_type>  (1968) 
oracle

>  <origin>  (1968) 
adg

>  <m_score__min__energy>  (1968) 
-15.17

>  <m_primary>  (1968) 
energy

$$$$
23:0
     RDKit          3D

 28 31  0  0  0  0  0  0  0  0999 V2000
   57.9470   29.3050   44.1110 C   0  0  0  0  0  0  0  0  0  0  0  0
   58.0860   28.8960   45.3820 C   0  0  0  0  0  0  0  0  0  0  0  0
   57.9190   27.5930   45.8600 C   0  0  0  0  0  0  0  0  0  0  0  0
   57.5560   26.5050   45.1550 C   0  0  0  0  0  0  0  0  0  0  0  0
   56.8170   25.3630   45.7220 C   0  0  0  0  0  0  0  0  0  0  0  0
   57.4090   24.2210   46.1130 N   0  0  0  0  0  0  0  0  0  0  0  0
   56.3930   23.5020   46.6370 C   0  0  0  0  0  0  0  0  0  0  0  0
   56.5520   22.3460   47.1070 O   0  0  0  0  0  0  0  0  0  0  0  0
   55.1950   24.1250   46.6290 N   0  0  0  0  0  0  0  0  0  0  0  0
   55.4810   25.3060   46.0580 C   0  0  0  0  0  0  0  0  0  0  0  0
   54.5510   26.3250   45.8940 O   0  0  0  0  0  0  0  0  0  0  0  0
   58.1430   27.6500   47.2310 C   0  0  0  0  0  0  0  0  0  0  0  0
   58.4530   28.9620   47.5270 C   0  0  0  0  0  0  0  0  0  0  0  0
   58.7420   29.4800   48.9030 C   0  0  0  0  0  0  0  0  0  0  0  0
   58.4080   29.7210   46.4090 N   0  0  0  0  0  0  0  0  0  0  0  0
   58.6760   31.1310   46.3390 C   0  0  0  0  0  0  0  0  0  0  0  0
   59.8360   31.6490   46.9310 C   0  0  0  0  0  0  0  0  0  0  0  0
   60.1290   33.0340   46.8860 C   0  0  0  0  0  0  0  0  0  0  0  0
   61.3400   33.5720   47.5000 N   0  0  0  0  0  0  0  0  0  0  0  0
   61.3030   34.0100   48.9130 C   0  0  0  0  0  0  0  0  0  0  0  0
   62.6190   34.6230   49.4000 C   0  0  0  0  0  0  0  0  0  0  0  0
   63.7260   33.9430   48.8600 O   0  0  0  0  0  0  0  0  0  0  0  0
   63.7770   34.2070   47.4780 C   0  0  0  0  0  0  0  0  0  0  0  0
   62.6120   33.5340   46.7480 C   0  0  0  0  0  0  0  0  0  0  0  0
   59.2000   33.8780   46.2310 C   0  0  0  0  0  0  0  0  0  0  0  0
   58.0450   33.3580   45.6400 C   0  0  0  0  0  0  0  0  0  0  0  0
   57.7830   31.9900   45.6870 C   0  0  0  0  0  0  0  0  0  0  0  0
   56.6390   31.4890   45.0780 O   0  0  0  0  0  0  0  0  0  0  0  0
  1  2  2  0
  2  3  1  0
  3  4  2  3
  4  5  1  0
  5  6  1  0
  6  7  1  0
  7  8  2  0
  7  9  1  0
  9 10  1  0
 10 11  1  0
  3 12  1  0
 12 13  2  0
 13 14  1  0
 13 15  1  0
 15 16  1  0
 16 17  2  0
 17 18  1  0
 18 19  1  0
 19 20  1  0
 20 21  1  0
 21 22  1  0
 22 23  1  0
 23 24  1  0
 18 25  2  0
 25 26  1  0
 26 27  2  0
 27 28  1  0
 15  2  1  0
 27 16  1  0
 10  5  2  0
 24 19  1  0
M  CHG  4   6  -1   9  -1  11  -1  28  -1
M  END
>  <UniqueID>  (1969) 
22

>  <SMILES>  (1969) 
C=c1c(=Cc2[n-]c(=O)[n-]c2[O-])cc(C)n1-c1cc(N2CCOCC2)ccc1[O-]

>  <Energy>  (1969) 
128.5546102670638

>  <Genealogy>  (1969) 
C=c1c(=Cc2[n-]c(=O)[n-]c2[O-])cc(C)n1-c1cc(N2CCOCC2)ccc1[O-] (protonated)
C=c1c(=Cc2[n-]c(=O)[n-]c2[O-])cc(C)n1-c1cc(N2CCOCC2)ccc1[O-] (3D coordinates assigned)
C=c1c(=Cc2[n-]c(=O)[n-]c2[O-])cc(C)n1-c1cc(N2CCOCC2)ccc1[O-] (nonaromatic ring conformer: 128.5546102670638 kcal/mol)

>  <smiles>  (1969) 
C=c1c(=Cc2[nH]c(=O)[nH]c2O)cc(C)n1-c1cc(N2CCOCC2)ccc1O

>  <score_type>  (1969) 
oracle

>  <origin>  (1969) 
adg

>  <m_score__min__energy>  (1969) 
-16.949999999999999

>  <m_primary>  (1969) 
energy

$$$$
36:0
     RDKit          3D

 30 33  0  0  0  0  0  0  0  0999 V2000
   58.6800   30.2610   44.8580 C   0  0  0  0  0  0  0  0  0  0  0  0
   58.7400   29.7420   46.0940 C   0  0  0  0  0  0  0  0  0  0  0  0
   58.2890   28.4780   46.4880 C   0  0  0  0  0  0  0  0  0  0  0  0
   57.7700   27.5150   45.7010 C   0  0  0  0  0  0  0  0  0  0  0  0
   57.2040   26.2520   46.2090 C   0  0  0  0  0  0  0  0  0  0  0  0
   57.9550   25.1840   46.5280 N   0  0  0  0  0  0  0  0  0  0  0  0
   57.0410   24.2440   46.8550 C   0  0  0  0  0  0  0  0  0  0  0  0
   57.3630   23.0870   47.2300 O   0  0  0  0  0  0  0  0  0  0  0  0
   55.7550   24.6390   46.7390 N   0  0  0  0  0  0  0  0  0  0  0  0
   55.8740   25.9080   46.3170 C   0  0  0  0  0  0  0  0  0  0  0  0
   54.7900   26.7140   45.9930 O   0  0  0  0  0  0  0  0  0  0  0  0
   58.5320   28.3860   47.8530 C   0  0  0  0  0  0  0  0  0  0  0  0
   59.1120   29.5800   48.2330 C   0  0  0  0  0  0  0  0  0  0  0  0
   59.5430   29.9130   49.6290 C   0  0  0  0  0  0  0  0  0  0  0  0
   59.2280   30.4060   47.1700 N   0  0  0  0  0  0  0  0  0  0  0  0
   59.7980   31.7270   47.1920 C   0  0  0  0  0  0  0  0  0  0  0  0
   58.9650   32.8440   47.3160 C   0  0  0  0  0  0  0  0  0  0  0  0
   59.5100   34.1280   47.3250 C   0  0  0  0  0  0  0  0  0  0  0  0
   60.8900   34.3070   47.2140 C   0  0  0  0  0  0  0  0  0  0  0  0
   61.7460   33.1960   47.0960 C   0  0  0  0  0  0  0  0  0  0  0  0
   63.2130   33.3880   46.9680 C   0  0  0  0  0  0  0  0  0  0  0  0
   63.6770   33.8590   45.8910 O   0  0  0  0  0  0  0  0  0  0  0  0
   64.0940   33.1120   48.0870 N   0  0  1  0  0  0  0  0  0  0  0  0
   63.7700   33.8380   49.3240 C   0  0  0  0  0  0  0  0  0  0  0  0
   63.4070   32.5580   50.0660 C   0  0  1  0  0  0  0  0  0  0  0  0
   62.0240   32.4610   50.3370 O   0  0  0  0  0  0  0  0  0  0  0  0
   61.5160   33.7470   50.6070 C   0  0  0  0  0  0  0  0  0  0  0  0
   63.7650   31.8510   48.7660 C   0  0  0  0  0  0  0  0  0  0  0  0
   61.1880   31.9010   47.0810 C   0  0  0  0  0  0  0  0  0  0  0  0
   61.9880   30.8070   47.0030 F   0  0  0  0  0  0  0  0  0  0  0  0
  1  2  2  0
  2  3  1  0
  3  4  2  0
  4  5  1  0
  5  6  1  0
  6  7  1  0
  7  8  2  0
  7  9  1  0
  9 10  1  0
 10 11  1  0
  3 12  1  0
 12 13  2  0
 13 14  1  0
 13 15  1  0
 15 16  1  0
 16 17  2  0
 17 18  1  0
 18 19  2  0
 19 20  1  0
 20 21  1  0
 21 22  2  0
 23 21  1  6
 23 24  1  0
 24 25  1  0
 25 26  1  6
 26 27  1  0
 25 28  1  0
 20 29  2  0
 29 30  1  0
 15  2  1  0
 29 16  1  0
 10  5  2  0
 28 23  1  0
M  CHG  4   6  -1   9  -1  11  -1  23   1
M  END
>  <UniqueID>  (1970) 
35

>  <SMILES>  (1970) 
C=c1/c(=C/c2[n-]c(=O)[n-]c2[O-])cc(C)n1-c1cccc(C(=O)[NH+]2CC(OC)C2)c1F

>  <Energy>  (1970) 
202.43961311556532

>  <Genealogy>  (1970) 
C=c1c(=Cc2[n-]c(=O)[n-]c2[O-])cc(C)n1-c1cccc(C(=O)[NH+]2CC(OC)C2)c1F (protonated)
C=c1/c(=C/c2[n-]c(=O)[n-]c2[O-])cc(C)n1-c1cccc(C(=O)[NH+]2CC(OC)C2)c1F (cis-trans isomerization)
C=c1/c(=C/c2[n-]c(=O)[n-]c2[O-])cc(C)n1-c1cccc(C(=O)[NH+]2CC(OC)C2)c1F (3D coordinates assigned)
C=c1/c(=C/c2[n-]c(=O)[n-]c2[O-])cc(C)n1-c1cccc(C(=O)[NH+]2CC(OC)C2)c1F (nonaromatic ring conformer: 202.43961311556532 kcal/mol)

>  <smiles>  (1970) 
C=c1c(=Cc2[nH]c(=O)[nH]c2O)cc(C)n1-c1cccc(C(=O)N2CC(OC)C2)c1F

>  <score_type>  (1970) 
oracle

>  <origin>  (1970) 
adg

>  <m_score__min__energy>  (1970) 
-14.83

>  <m_primary>  (1970) 
energy

$$$$
43:0
     RDKit          3D

 28 30  0  0  0  0  0  0  0  0999 V2000
   58.3770   27.0750   43.2390 C   0  0  0  0  0  0  0  0  0  0  0  0
   58.4030   26.6920   44.5270 C   0  0  0  0  0  0  0  0  0  0  0  0
   57.6590   25.6520   45.0930 C   0  0  0  0  0  0  0  0  0  0  0  0
   56.8050   24.8200   44.4640 C   0  0  0  0  0  0  0  0  0  0  0  0
   55.4600   24.4840   44.9670 C   0  0  0  0  0  0  0  0  0  0  0  0
   54.8560   23.3070   44.7260 N   0  0  0  0  0  0  0  0  0  0  0  0
   53.6360   23.4620   45.2840 C   0  0  0  0  0  0  0  0  0  0  0  0
   52.7670   22.5500   45.2760 O   0  0  0  0  0  0  0  0  0  0  0  0
   53.4150   24.6710   45.8400 N   0  0  0  0  0  0  0  0  0  0  0  0
   54.5740   25.3130   45.6200 C   0  0  0  0  0  0  0  0  0  0  0  0
   54.7950   26.6390   45.9680 O   0  0  0  0  0  0  0  0  0  0  0  0
   58.0210   25.5980   46.4310 C   0  0  0  0  0  0  0  0  0  0  0  0
   58.9530   26.5970   46.6300 C   0  0  0  0  0  0  0  0  0  0  0  0
   59.6240   26.8810   47.9400 C   0  0  0  0  0  0  0  0  0  0  0  0
   59.1760   27.2750   45.4800 N   0  0  0  0  0  0  0  0  0  0  0  0
   60.1360   28.3750   45.3050 C   0  0  0  0  0  0  0  0  0  0  0  0
   59.4240   29.7270   45.4360 C   0  0  0  0  0  0  0  0  0  0  0  0
   58.7970   30.1710   44.1130 C   0  0  0  0  0  0  0  0  0  0  0  0
   58.2850   31.5300   44.2260 N   0  0  0  0  0  0  0  0  0  0  0  0
   57.0280   31.8230   44.8350 C   0  0  0  0  0  0  0  0  0  0  0  0
   56.0160   31.1460   44.5130 O   0  0  0  0  0  0  0  0  0  0  0  0
   56.9220   32.8920   45.7380 O   0  0  0  0  0  0  0  0  0  0  0  0
   57.9870   33.4580   46.4550 C   0  0  0  0  0  0  0  0  0  0  0  0
   58.2660   32.9620   47.7350 C   0  0  0  0  0  0  0  0  0  0  0  0
   59.3100   33.5010   48.4920 C   0  0  0  0  0  0  0  0  0  0  0  0
   60.0770   34.5510   47.9790 C   0  0  0  0  0  0  0  0  0  0  0  0
   59.7940   35.0680   46.7120 C   0  0  0  0  0  0  0  0  0  0  0  0
   58.7500   34.5290   45.9520 C   0  0  0  0  0  0  0  0  0  0  0  0
  1  2  2  0
  2  3  1  0
  3  4  2  0
  4  5  1  0
  5  6  1  0
  6  7  1  0
  7  8  2  0
  7  9  1  0
  9 10  1  0
 10 11  1  0
  3 12  1  0
 12 13  2  0
 13 14  1  0
 13 15  1  0
 15 16  1  0
 16 17  1  0
 17 18  1  0
 18 19  1  0
 19 20  1  0
 20 21  2  0
 20 22  1  0
 22 23  1  0
 23 24  2  0
 24 25  1  0
 25 26  2  0
 26 27  1  0
 27 28  2  0
 15  2  1  0
 28 23  1  0
 10  5  2  0
M  CHG  4   6  -1   9  -1  11  -1  19  -1
M  END
>  <UniqueID>  (1971) 
41

>  <SMILES>  (1971) 
C=c1/c(=C/c2[n-]c(=O)[n-]c2[O-])cc(C)n1CCC[N-]C(=O)Oc1ccccc1

>  <Energy>  (1971) 
109.88675181195798

>  <Genealogy>  (1971) 
C=c1c(=Cc2[n-]c(=O)[n-]c2[O-])cc(C)n1CCC[N-]C(=O)Oc1ccccc1 (protonated)
C=c1/c(=C/c2[n-]c(=O)[n-]c2[O-])cc(C)n1CCC[N-]C(=O)Oc1ccccc1 (cis-trans isomerization)
C=c1/c(=C/c2[n-]c(=O)[n-]c2[O-])cc(C)n1CCC[N-]C(=O)Oc1ccccc1 (3D coordinates assigned)
C=c1/c(=C/c2[n-]c(=O)[n-]c2[O-])cc(C)n1CCC[N-]C(=O)Oc1ccccc1 (optimized conformer: 109.88675181195798 kcal/mol)

>  <smiles>  (1971) 
C=c1c(=Cc2[nH]c(=O)[nH]c2O)cc(C)n1CCCNC(=O)Oc1ccccc1

>  <score_type>  (1971) 
oracle

>  <origin>  (1971) 
adg

>  <m_score__min__energy>  (1971) 
-17.02

>  <m_primary>  (1971) 
energy

$$$$
47:0
     RDKit          3D

 31 34  0  0  0  0  0  0  0  0999 V2000
   57.8400   28.0480   43.5270 C   0  0  0  0  0  0  0  0  0  0  0  0
   57.9190   27.8850   44.8590 C   0  0  0  0  0  0  0  0  0  0  0  0
   57.9120   26.6750   45.5740 C   0  0  0  0  0  0  0  0  0  0  0  0
   57.6770   25.4100   45.1720 C   0  0  0  0  0  0  0  0  0  0  0  0
   56.3750   24.7170   45.2330 C   0  0  0  0  0  0  0  0  0  0  0  0
   55.2050   25.4020   45.6100 C   0  0  0  0  0  0  0  0  0  0  0  0
   55.2310   26.7430   45.9970 O   0  0  0  0  0  0  0  0  0  0  0  0
   54.0150   24.7480   45.6120 N   0  0  0  0  0  0  0  0  0  0  0  0
   53.9250   23.4440   45.2450 C   0  0  0  0  0  0  0  0  0  0  0  0
   52.8100   22.8620   45.2600 O   0  0  0  0  0  0  0  0  0  0  0  0
   55.0360   22.7680   44.8580 N   0  0  0  0  0  0  0  0  0  0  0  0
   56.2520   23.3730   44.8340 C   0  0  0  0  0  0  0  0  0  0  0  0
   57.2590   22.7200   44.4510 O   0  0  0  0  0  0  0  0  0  0  0  0
   58.2000   27.0000   46.8890 C   0  0  0  0  0  0  0  0  0  0  0  0
   58.3140   28.3720   46.9480 C   0  0  0  0  0  0  0  0  0  0  0  0
   58.6090   29.1480   48.1960 C   0  0  0  0  0  0  0  0  0  0  0  0
   58.1470   28.9120   45.7200 N   0  0  0  0  0  0  0  0  0  0  0  0
   58.2150   30.3140   45.4040 C   0  0  0  0  0  0  0  0  0  0  0  0
   57.4020   30.8540   44.3980 C   0  0  0  0  0  0  0  0  0  0  0  0
   57.4720   32.2140   44.0940 C   0  0  0  0  0  0  0  0  0  0  0  0
   58.3600   33.0440   44.7850 C   0  0  0  0  0  0  0  0  0  0  0  0
   59.1950   32.5150   45.7830 C   0  0  0  0  0  0  0  0  0  0  0  0
   60.1290   33.3880   46.5290 C   0  0  0  0  0  0  0  0  0  0  0  0
   59.7800   34.5710   46.7950 O   0  0  0  0  0  0  0  0  0  0  0  0
   61.4250   32.9240   46.9540 N   0  0  0  0  0  0  0  0  0  0  0  0
   61.6220   31.5350   47.3990 C   0  0  0  0  0  0  0  0  0  0  0  0
   62.4700   31.5140   48.6740 C   0  0  0  0  0  0  0  0  0  0  0  0
   63.8160   32.2520   48.5090 C   0  0  0  0  0  0  0  0  0  0  0  0
   63.8710   33.1780   47.2810 C   0  0  0  0  0  0  0  0  0  0  0  0
   62.5330   33.8870   47.0420 C   0  0  0  0  0  0  0  0  0  0  0  0
   59.1060   31.1480   46.0960 C   0  0  0  0  0  0  0  0  0  0  0  0
  1  2  2  0
  2  3  1  0
  3  4  2  3
  4  5  1  0
  5  6  2  0
  6  7  1  0
  6  8  1  0
  8  9  1  0
  9 10  2  0
  9 11  1  0
 11 12  1  0
 12 13  2  0
  3 14  1  0
 14 15  2  0
 15 16  1  0
 15 17  1  0
 17 18  1  0
 18 19  2  0
 19 20  1  0
 20 21  2  0
 21 22  1  0
 22 23  1  0
 23 24  2  0
 23 25  1  0
 25 26  1  0
 26 27  1  0
 27 28  1  0
 28 29  1  0
 29 30  1  0
 22 31  2  0
 17  2  1  0
 31 18  1  0
 12  5  1  0
 30 25  1  0
M  CHG  2   8  -1  11  -1
M  END
>  <UniqueID>  (1972) 
45

>  <SMILES>  (1972) 
C=c1c(=Cc2c(O)[n-]c(=O)[n-]c2=O)cc(C)n1-c1cccc(C(=O)N2CCCCC2)c1

>  <Energy>  (1972) 
110.63696126053163

>  <Genealogy>  (1972) 
C=c1c(=Cc2c(O)[n-]c(=O)[n-]c2=O)cc(C)n1-c1cccc(C(=O)N2CCCCC2)c1 (protonated)
C=c1c(=Cc2c(O)[n-]c(=O)[n-]c2=O)cc(C)n1-c1cccc(C(=O)N2CCCCC2)c1 (3D coordinates assigned)
C=c1c(=Cc2c(O)[n-]c(=O)[n-]c2=O)cc(C)n1-c1cccc(C(=O)N2CCCCC2)c1 (nonaromatic ring conformer: 110.63696126053163 kcal/mol)

>  <smiles>  (1972) 
C=c1c(=Cc2c(O)[nH]c(=O)[nH]c2=O)cc(C)n1-c1cccc(C(=O)N2CCCCC2)c1

>  <score_type>  (1972) 
oracle

>  <origin>  (1972) 
adg

>  <m_score__min__energy>  (1972) 
-14.92

>  <m_primary>  (1972) 
energy

$$$$
51:0
     RDKit          3D

 36 39  0  0  0  0  0  0  0  0999 V2000
   56.5850   29.8690   44.0280 C   0  0  0  0  0  0  0  0  0  0  0  0
   57.3090   29.5540   45.1150 C   0  0  0  0  0  0  0  0  0  0  0  0
   57.6460   28.2620   45.5360 C   0  0  0  0  0  0  0  0  0  0  0  0
   57.2610   27.0970   44.9810 C   0  0  0  0  0  0  0  0  0  0  0  0
   56.8200   25.9190   45.7520 C   0  0  0  0  0  0  0  0  0  0  0  0
   57.6720   25.0290   46.2890 N   0  0  0  0  0  0  0  0  0  0  0  0
   56.8620   24.1900   46.9710 C   0  0  0  0  0  0  0  0  0  0  0  0
   57.2980   23.1980   47.6100 O   0  0  0  0  0  0  0  0  0  0  0  0
   55.5510   24.5040   46.9230 N   0  0  0  0  0  0  0  0  0  0  0  0
   55.5400   25.6090   46.1580 C   0  0  0  0  0  0  0  0  0  0  0  0
   54.3920   26.3410   45.8830 O   0  0  0  0  0  0  0  0  0  0  0  0
   58.4170   28.4140   46.6790 C   0  0  0  0  0  0  0  0  0  0  0  0
   58.5330   29.7730   46.9020 C   0  0  0  0  0  0  0  0  0  0  0  0
   59.2810   30.3820   48.0490 C   0  0  0  0  0  0  0  0  0  0  0  0
   57.8490   30.4680   45.9640 N   0  0  0  0  0  0  0  0  0  0  0  0
   57.7710   31.9330   45.8650 C   0  0  0  0  0  0  0  0  0  0  0  0
   59.0720   32.4940   45.2760 C   0  0  0  0  0  0  0  0  0  0  0  0
   60.0680   32.9020   46.3670 C   0  0  0  0  0  0  0  0  0  0  0  0
   59.6460   34.1390   47.0300 N   0  0  0  0  0  0  0  0  0  0  0  0
   59.7280   33.9940   48.7630 S   0  0  0  0  0  0  0  0  0  0  0  0
   58.8210   32.8810   49.2050 O   0  0  0  0  0  0  0  0  0  0  0  0
   59.2710   35.2680   49.4170 O   0  0  0  0  0  0  0  0  0  0  0  0
   61.3770   33.6170   49.2540 C   0  0  0  0  0  0  0  0  0  0  0  0
   61.6930   33.4230   50.6060 C   0  0  0  0  0  0  0  0  0  0  0  0
   63.0060   33.1300   50.9870 C   0  0  0  0  0  0  0  0  0  0  0  0
   64.0190   33.0160   50.0200 C   0  0  0  0  0  0  0  0  0  0  0  0
   65.4100   32.7090   50.4270 C   0  0  0  0  0  0  0  0  0  0  0  0
   66.3360   33.5120   50.1260 O   0  0  0  0  0  0  0  0  0  0  0  0
   65.7270   31.5000   51.1380 N   0  0  0  0  0  0  0  0  0  0  0  0
   65.0400   31.1960   52.3970 C   0  0  0  0  0  0  0  0  0  0  0  0
   65.0650   29.6850   52.6430 C   0  0  0  0  0  0  0  0  0  0  0  0
   66.3860   29.1850   52.5640 O   0  0  0  0  0  0  0  0  0  0  0  0
   66.8830   29.3440   51.2480 C   0  0  0  0  0  0  0  0  0  0  0  0
   67.0030   30.8290   50.8870 C   0  0  0  0  0  0  0  0  0  0  0  0
   63.7000   33.2310   48.6680 C   0  0  0  0  0  0  0  0  0  0  0  0
   62.3880   33.5270   48.2890 C   0  0  0  0  0  0  0  0  0  0  0  0
  1  2  2  0
  2  3  1  0
  3  4  2  3
  4  5  1  0
  5  6  1  0
  6  7  1  0
  7  8  2  0
  7  9  1  0
  9 10  1  0
 10 11  1  0
  3 12  1  0
 12 13  2  0
 13 14  1  0
 13 15  1  0
 15 16  1  0
 16 17  1  0
 17 18  1  0
 18 19  1  0
 19 20  1  0
 20 21  2  0
 20 22  2  0
 20 23  1  0
 23 24  2  0
 24 25  1  0
 25 26  2  0
 26 27  1  0
 27 28  2  0
 27 29  1  0
 29 30  1  0
 30 31  1  0
 31 32  1  0
 32 33  1  0
 33 34  1  0
 26 35  1  0
 35 36  2  0
 15  2  1  0
 36 23  1  0
 10  5  2  0
 34 29  1  0
M  CHG  4   6  -1   9  -1  11  -1  19  -1
M  END
>  <UniqueID>  (1973) 
49

>  <SMILES>  (1973) 
C=c1c(=Cc2[n-]c(=O)[n-]c2[O-])cc(C)n1CCC[N-]S(=O)(=O)c1ccc(C(=O)N2CCOCC2)cc1

>  <Energy>  (1973) 
129.6265130256204

>  <Genealogy>  (1973) 
C=c1c(=Cc2[n-]c(=O)[n-]c2[O-])cc(C)n1CCC[N-]S(=O)(=O)c1ccc(C(=O)N2CCOCC2)cc1 (protonated)
C=c1c(=Cc2[n-]c(=O)[n-]c2[O-])cc(C)n1CCC[N-]S(=O)(=O)c1ccc(C(=O)N2CCOCC2)cc1 (3D coordinates assigned)
C=c1c(=Cc2[n-]c(=O)[n-]c2[O-])cc(C)n1CCC[N-]S(=O)(=O)c1ccc(C(=O)N2CCOCC2)cc1 (nonaromatic ring conformer: 129.6265130256204 kcal/mol)

>  <smiles>  (1973) 
C=c1c(=Cc2[nH]c(=O)[nH]c2O)cc(C)n1CCCNS(=O)(=O)c1ccc(C(=O)N2CCOCC2)cc1

>  <score_type>  (1973) 
oracle

>  <origin>  (1973) 
adg

>  <m_score__min__energy>  (1973) 
-17.66

>  <m_primary>  (1973) 
energy

$$$$
52:0
     RDKit          3D

 30 33  0  0  0  0  0  0  0  0999 V2000
   57.0720   28.5330   44.7630 C   0  0  0  0  0  0  0  0  0  0  0  0
   57.7670   27.6710   45.5230 C   0  0  0  0  0  0  0  0  0  0  0  0
   57.7250   26.2760   45.4420 C   0  0  0  0  0  0  0  0  0  0  0  0
   57.0390   25.5260   44.5560 C   0  0  0  0  0  0  0  0  0  0  0  0
   55.8210   24.7620   44.9060 C   0  0  0  0  0  0  0  0  0  0  0  0
   54.7530   25.3540   45.6050 C   0  0  0  0  0  0  0  0  0  0  0  0
   54.8080   26.6870   45.9940 O   0  0  0  0  0  0  0  0  0  0  0  0
   53.6420   24.6250   45.8870 N   0  0  0  0  0  0  0  0  0  0  0  0
   53.5320   23.3320   45.4910 C   0  0  0  0  0  0  0  0  0  0  0  0
   52.4940   22.6770   45.7680 O   0  0  0  0  0  0  0  0  0  0  0  0
   54.5370   22.7470   44.7920 N   0  0  0  0  0  0  0  0  0  0  0  0
   55.6700   23.4310   44.4850 C   0  0  0  0  0  0  0  0  0  0  0  0
   56.5810   22.8560   43.8310 O   0  0  0  0  0  0  0  0  0  0  0  0
   58.5640   25.8000   46.4420 C   0  0  0  0  0  0  0  0  0  0  0  0
   59.0820   26.9080   47.0820 C   0  0  0  0  0  0  0  0  0  0  0  0
   60.0390   26.8550   48.2330 C   0  0  0  0  0  0  0  0  0  0  0  0
   58.5950   28.0430   46.5310 N   0  0  0  0  0  0  0  0  0  0  0  0
   58.9250   29.3830   46.9390 C   0  0  0  0  0  0  0  0  0  0  0  0
   59.2970   30.3400   45.9840 C   0  0  0  0  0  0  0  0  0  0  0  0
   59.6110   31.6430   46.3770 C   0  0  0  0  0  0  0  0  0  0  0  0
   59.5440   32.0100   47.7310 C   0  0  0  0  0  0  0  0  0  0  0  0
   59.9210   33.4010   48.1600 C   0  0  0  0  0  0  0  0  0  0  0  0
   61.4150   33.5180   48.2890 C   0  0  0  0  0  0  0  0  0  0  0  0
   62.0060   33.7090   49.5470 C   0  0  0  0  0  0  0  0  0  0  0  0
   63.3920   33.8530   49.6420 C   0  0  0  0  0  0  0  0  0  0  0  0
   64.1600   33.8170   48.5210 N   0  0  0  0  0  0  0  0  0  0  0  0
   63.6140   33.6440   47.2880 C   0  0  0  0  0  0  0  0  0  0  0  0
   62.2320   33.4960   47.1480 C   0  0  0  0  0  0  0  0  0  0  0  0
   59.1790   31.0490   48.6870 C   0  0  0  0  0  0  0  0  0  0  0  0
   58.8660   29.7450   48.2930 C   0  0  0  0  0  0  0  0  0  0  0  0
  1  2  2  0
  2  3  1  0
  3  4  2  0
  4  5  1  0
  5  6  2  0
  6  7  1  0
  6  8  1  0
  8  9  1  0
  9 10  2  0
  9 11  1  0
 11 12  1  0
 12 13  2  0
  3 14  1  0
 14 15  2  0
 15 16  1  0
 15 17  1  0
 17 18  1  0
 18 19  2  0
 19 20  1  0
 20 21  2  0
 21 22  1  0
 22 23  1  0
 23 24  2  0
 24 25  1  0
 25 26  2  0
 26 27  1  0
 27 28  2  0
 21 29  1  0
 29 30  2  0
 17  2  1  0
 30 18  1  0
 12  5  1  0
 28 23  1  0
M  CHG  3   7  -1   8  -1  11  -1
M  END
>  <UniqueID>  (1974) 
50

>  <SMILES>  (1974) 
C=c1/c(=C/c2c([O-])[n-]c(=O)[n-]c2=O)cc(C)n1-c1ccc(Cc2ccncc2)cc1

>  <Energy>  (1974) 
96.05734587535544

>  <Genealogy>  (1974) 
C=c1c(=Cc2c([O-])[n-]c(=O)[n-]c2=O)cc(C)n1-c1ccc(Cc2ccncc2)cc1 (protonated)
C=c1/c(=C/c2c([O-])[n-]c(=O)[n-]c2=O)cc(C)n1-c1ccc(Cc2ccncc2)cc1 (cis-trans isomerization)
C=c1/c(=C/c2c([O-])[n-]c(=O)[n-]c2=O)cc(C)n1-c1ccc(Cc2ccncc2)cc1 (3D coordinates assigned)
C=c1/c(=C/c2c([O-])[n-]c(=O)[n-]c2=O)cc(C)n1-c1ccc(Cc2ccncc2)cc1 (optimized conformer: 96.05734587535544 kcal/mol)

>  <smiles>  (1974) 
C=c1c(=Cc2c(O)[nH]c(=O)[nH]c2=O)cc(C)n1-c1ccc(Cc2ccncc2)cc1

>  <score_type>  (1974) 
oracle

>  <origin>  (1974) 
adg

>  <m_score__min__energy>  (1974) 
-16.050000000000001

>  <m_primary>  (1974) 
energy

$$$$
56:0
     RDKit          3D

 29 32  0  0  0  0  0  0  0  0999 V2000
   59.0110   29.9250   44.5180 C   0  0  0  0  0  0  0  0  0  0  0  0
   58.9130   29.5840   45.8120 C   0  0  0  0  0  0  0  0  0  0  0  0
   58.3390   28.4140   46.3230 C   0  0  0  0  0  0  0  0  0  0  0  0
   57.7950   27.4000   45.6230 C   0  0  0  0  0  0  0  0  0  0  0  0
   57.2170   26.1900   46.2370 C   0  0  0  0  0  0  0  0  0  0  0  0
   57.9550   25.1410   46.6380 N   0  0  0  0  0  0  0  0  0  0  0  0
   57.0310   24.2460   47.0490 C   0  0  0  0  0  0  0  0  0  0  0  0
   57.3410   23.1180   47.5150 O   0  0  0  0  0  0  0  0  0  0  0  0
   55.7500   24.6490   46.9130 N   0  0  0  0  0  0  0  0  0  0  0  0
   55.8820   25.8770   46.3860 C   0  0  0  0  0  0  0  0  0  0  0  0
   54.8070   26.6690   46.0050 O   0  0  0  0  0  0  0  0  0  0  0  0
   58.5000   28.4710   47.7010 C   0  0  0  0  0  0  0  0  0  0  0  0
   59.1360   29.6640   47.9770 C   0  0  0  0  0  0  0  0  0  0  0  0
   59.5420   30.1180   49.3470 C   0  0  0  0  0  0  0  0  0  0  0  0
   59.3910   30.3380   46.8340 N   0  0  0  0  0  0  0  0  0  0  0  0
   60.0560   31.6100   46.7400 C   0  0  0  0  0  0  0  0  0  0  0  0
   61.3430   31.7680   47.2740 C   0  0  0  0  0  0  0  0  0  0  0  0
   62.0070   33.0030   47.1930 C   0  0  0  0  0  0  0  0  0  0  0  0
   63.3660   33.1530   47.7670 C   0  0  0  0  0  0  0  0  0  0  0  0
   64.3680   33.1470   47.0000 O   0  0  0  0  0  0  0  0  0  0  0  0
   63.5600   33.3190   49.1800 N   0  0  0  0  0  0  0  0  0  0  0  0
   64.8980   33.3490   49.7630 C   0  0  0  0  0  0  0  0  0  0  0  0
   64.9440   32.9150   51.2180 C   0  0  0  0  0  0  0  0  0  0  0  0
   65.4230   31.9710   50.1270 C   0  0  0  0  0  0  0  0  0  0  0  0
   61.3520   34.0900   46.5850 C   0  0  0  0  0  0  0  0  0  0  0  0
   60.0670   33.9380   46.0560 C   0  0  0  0  0  0  0  0  0  0  0  0
   59.2660   35.3110   45.3110 Cl  0  0  0  0  0  0  0  0  0  0  0  0
   59.4170   32.7010   46.1320 C   0  0  0  0  0  0  0  0  0  0  0  0
   58.1630   32.5600   45.6340 F   0  0  0  0  0  0  0  0  0  0  0  0
  1  2  2  0
  2  3  1  0
  3  4  2  0
  4  5  1  0
  5  6  1  0
  6  7  1  0
  7  8  2  0
  7  9  1  0
  9 10  1  0
 10 11  1  0
  3 12  1  0
 12 13  2  0
 13 14  1  0
 13 15  1  0
 15 16  1  0
 16 17  2  0
 17 18  1  0
 18 19  1  0
 19 20  2  0
 19 21  1  0
 21 22  1  0
 22 23  1  0
 23 24  1  0
 18 25  2  0
 25 26  1  0
 26 27  1  0
 26 28  2  0
 28 29  1  0
 15  2  1  0
 28 16  1  0
 10  5  2  0
 24 22  1  0
M  CHG  3   6  -1   9  -1  11  -1
M  END
>  <UniqueID>  (1975) 
54

>  <SMILES>  (1975) 
C=c1/c(=C/c2[n-]c(=O)[n-]c2[O-])cc(C)n1-c1cc(C(=O)NC2CC2)cc(Cl)c1F

>  <Energy>  (1975) 
383.44775577717627

>  <Genealogy>  (1975) 
C=c1c(=Cc2[n-]c(=O)[n-]c2[O-])cc(C)n1-c1cc(C(=O)NC2CC2)cc(Cl)c1F (protonated)
C=c1/c(=C/c2[n-]c(=O)[n-]c2[O-])cc(C)n1-c1cc(C(=O)NC2CC2)cc(Cl)c1F (cis-trans isomerization)
C=c1/c(=C/c2[n-]c(=O)[n-]c2[O-])cc(C)n1-c1cc(C(=O)NC2CC2)cc(Cl)c1F (3D coordinates assigned)
C=c1/c(=C/c2[n-]c(=O)[n-]c2[O-])cc(C)n1-c1cc(C(=O)NC2CC2)cc(Cl)c1F (nonaromatic ring conformer: 383.44775577717627 kcal/mol)

>  <smiles>  (1975) 
C=c1c(=Cc2[nH]c(=O)[nH]c2O)cc(C)n1-c1cc(C(=O)NC2CC2)cc(Cl)c1F

>  <score_type>  (1975) 
oracle

>  <origin>  (1975) 
adg

>  <m_score__min__energy>  (1975) 
-15.869999999999999

>  <m_primary>  (1975) 
energy

$$$$
60:0
     RDKit          3D

 31 34  0  0  0  0  0  0  0  0999 V2000
   56.0450   31.6500   52.6360 C   0  0  0  0  0  0  0  0  0  0  0  0
   55.3600   30.5070   52.7840 C   0  0  0  0  0  0  0  0  0  0  0  0
   53.9650   30.3520   52.8400 C   0  0  0  0  0  0  0  0  0  0  0  0
   52.9690   31.2090   52.5420 C   0  0  0  0  0  0  0  0  0  0  0  0
   52.2600   31.2820   51.2530 C   0  0  0  0  0  0  0  0  0  0  0  0
   52.2620   30.3130   50.3200 N   0  0  0  0  0  0  0  0  0  0  0  0
   51.3770   30.7610   49.4030 C   0  0  0  0  0  0  0  0  0  0  0  0
   51.1110   30.1240   48.3510 O   0  0  0  0  0  0  0  0  0  0  0  0
   50.7910   31.9380   49.7090 N   0  0  0  0  0  0  0  0  0  0  0  0
   51.3510   32.2460   50.8900 C   0  0  0  0  0  0  0  0  0  0  0  0
   51.0330   33.3820   51.6240 O   0  0  0  0  0  0  0  0  0  0  0  0
   53.7360   29.0460   53.2460 C   0  0  0  0  0  0  0  0  0  0  0  0
   54.9690   28.4360   53.3420 C   0  0  0  0  0  0  0  0  0  0  0  0
   55.1880   26.9910   53.6690 C   0  0  0  0  0  0  0  0  0  0  0  0
   55.9520   29.3190   53.0650 N   0  0  0  0  0  0  0  0  0  0  0  0
   57.3620   29.0350   53.0800 C   0  0  0  0  0  0  0  0  0  0  0  0
   57.9240   28.3390   54.1600 C   0  0  0  0  0  0  0  0  0  0  0  0
   59.2880   28.0400   54.1690 C   0  0  0  0  0  0  0  0  0  0  0  0
   60.0960   28.4290   53.0980 C   0  0  0  0  0  0  0  0  0  0  0  0
   59.5420   29.1150   52.0140 C   0  0  0  0  0  0  0  0  0  0  0  0
   58.1680   29.4220   51.9970 C   0  0  0  0  0  0  0  0  0  0  0  0
   57.5660   30.0930   50.9240 O   0  0  0  0  0  0  0  0  0  0  0  0
   58.1450   31.1930   50.2290 C   0  0  0  0  0  0  0  0  0  0  0  0
   59.0880   30.6740   49.1430 C   0  0  0  0  0  0  0  0  0  0  0  0
   58.6820   31.1560   47.8230 N   0  0  0  0  0  0  0  0  0  0  0  0
   58.5060   30.3170   46.6410 C   0  0  0  0  0  0  0  0  0  0  0  0
   58.1710   31.2880   45.4790 C   0  0  0  0  0  0  0  0  0  0  0  0
   58.2070   32.6250   46.0610 N   0  0  0  0  0  0  0  0  0  0  0  0
   58.0260   33.8750   45.3370 C   0  0  0  0  0  0  0  0  0  0  0  0
   58.4950   32.5020   47.4360 C   0  0  0  0  0  0  0  0  0  0  0  0
   58.5700   33.4800   48.2270 O   0  0  0  0  0  0  0  0  0  0  0  0
  1  2  2  0
  2  3  1  0
  3  4  2  3
  4  5  1  0
  5  6  1  0
  6  7  1  0
  7  8  2  0
  7  9  1  0
  9 10  1  0
 10 11  1  0
  3 12  1  0
 12 13  2  0
 13 14  1  0
 13 15  1  0
 15 16  1  0
 16 17  2  0
 17 18  1  0
 18 19  2  0
 19 20  1  0
 20 21  2  0
 21 22  1  0
 22 23  1  0
 23 24  1  0
 24 25  1  0
 25 26  1  0
 26 27  1  0
 27 28  1  0
 28 29  1  0
 28 30  1  0
 30 31  2  0
 15  2  1  0
 21 16  1  0
 30 25  1  0
 10  5  2  0
M  CHG  3   6  -1   9  -1  11  -1
M  END
>  <UniqueID>  (1976) 
57

>  <SMILES>  (1976) 
C=c1c(=Cc2[n-]c(=O)[n-]c2[O-])cc(C)n1-c1ccccc1OCCN1CCN(C)C1=O

>  <Energy>  (1976) 
132.57850785097406

>  <Genealogy>  (1976) 
C=c1c(=Cc2[n-]c(=O)[n-]c2[O-])cc(C)n1-c1ccccc1OCCN1CCN(C)C1=O (protonated)
C=c1c(=Cc2[n-]c(=O)[n-]c2[O-])cc(C)n1-c1ccccc1OCCN1CCN(C)C1=O (3D coordinates assigned)
C=c1c(=Cc2[n-]c(=O)[n-]c2[O-])cc(C)n1-c1ccccc1OCCN1CCN(C)C1=O (nonaromatic ring conformer: 132.57850785097406 kcal/mol)

>  <smiles>  (1976) 
C=c1c(=Cc2[nH]c(=O)[nH]c2O)cc(C)n1-c1ccccc1OCCN1CCN(C)C1=O

>  <score_type>  (1976) 
oracle

>  <origin>  (1976) 
adg

>  <m_score__min__energy>  (1976) 
-16.649999999999999

>  <m_primary>  (1976) 
energy

$$$$
63:0
     RDKit          3D

 28 30  0  0  0  0  0  0  0  0999 V2000
   53.5120   24.3160   45.4370 N   0  0  0  0  0  0  0  0  0  0  0  0
   54.7870   23.6790   45.5380 C   0  0  0  0  0  0  0  0  0  0  0  0
   55.0840   22.7580   44.7320 O   0  0  0  0  0  0  0  0  0  0  0  0
   55.7610   24.1110   46.4940 N   0  0  0  0  0  0  0  0  0  0  0  0
   56.6730   25.2070   46.3360 C   0  0  0  0  0  0  0  0  0  0  0  0
   58.0640   25.0110   46.3550 C   0  0  0  0  0  0  0  0  0  0  0  0
   58.9310   26.0900   46.1600 C   0  0  0  0  0  0  0  0  0  0  0  0
   58.4200   27.3710   45.9090 C   0  0  0  0  0  0  0  0  0  0  0  0
   59.5160   28.7230   45.6130 S   0  0  0  0  0  0  0  0  0  0  0  0
   58.7640   29.8240   44.9180 O   0  0  0  0  0  0  0  0  0  0  0  0
   60.6230   28.2700   44.7020 O   0  0  0  0  0  0  0  0  0  0  0  0
   60.2030   29.3420   47.0990 N   0  0  0  0  0  0  0  0  0  0  0  0
   61.2540   30.3520   46.8510 C   0  0  0  0  0  0  0  0  0  0  0  0
   60.7370   31.8060   46.8910 C   0  0  0  0  0  0  0  0  0  0  0  0
   59.8380   32.1050   48.0370 N   0  0  0  0  0  0  0  0  0  0  0  0
   60.2860   33.2710   48.8270 C   0  0  0  0  0  0  0  0  0  0  0  0
   59.6530   34.5720   48.3080 C   0  0  0  0  0  0  0  0  0  0  0  0
   58.9900   34.3700   46.9700 C   0  0  0  0  0  0  0  0  0  0  0  0
   57.7290   33.7600   46.8910 C   0  0  0  0  0  0  0  0  0  0  0  0
   57.1390   33.5580   45.6410 C   0  0  0  0  0  0  0  0  0  0  0  0
   57.7870   33.9480   44.5100 N   0  0  0  0  0  0  0  0  0  0  0  0
   59.0110   34.5360   44.5570 C   0  0  0  0  0  0  0  0  0  0  0  0
   59.6390   34.7530   45.7860 C   0  0  0  0  0  0  0  0  0  0  0  0
   59.5860   30.9440   48.9060 C   0  0  0  0  0  0  0  0  0  0  0  0
   59.1510   29.7570   48.0490 C   0  0  0  0  0  0  0  0  0  0  0  0
   57.0320   27.5640   45.8740 C   0  0  0  0  0  0  0  0  0  0  0  0
   56.1640   26.4880   46.0790 C   0  0  0  0  0  0  0  0  0  0  0  0
   54.7890   26.6980   46.0310 O   0  0  0  0  0  0  0  0  0  0  0  0
  1  2  1  0
  2  3  2  0
  2  4  1  0
  4  5  1  0
  5  6  2  0
  6  7  1  0
  7  8  2  0
  8  9  1  0
  9 10  2  0
  9 11  2  0
  9 12  1  0
 12 13  1  0
 13 14  1  0
 14 15  1  0
 15 16  1  0
 16 17  1  0
 17 18  1  0
 18 19  2  0
 19 20  1  0
 20 21  2  0
 21 22  1  0
 22 23  2  0
 15 24  1  0
 24 25  1  0
  8 26  1  0
 26 27  2  0
 27 28  1  0
 27  5  1  0
 25 12  1  0
 23 18  1  0
M  CHG  2   4  -1  28  -1
M  END
>  <UniqueID>  (1977) 
60

>  <SMILES>  (1977) 
NC(=O)[N-]c1ccc(S(=O)(=O)N2CCN(CCc3ccncc3)CC2)cc1[O-]

>  <Energy>  (1977) 
61.50019711649124

>  <Genealogy>  (1977) 
NC(=O)[N-]c1ccc(S(=O)(=O)N2CCN(CCc3ccncc3)CC2)cc1[O-] (protonated)
NC(=O)[N-]c1ccc(S(=O)(=O)N2CCN(CCc3ccncc3)CC2)cc1[O-] (3D coordinates assigned)
NC(=O)[N-]c1ccc(S(=O)(=O)N2CCN(CCc3ccncc3)CC2)cc1[O-] (nonaromatic ring conformer: 61.50019711649124 kcal/mol)

>  <smiles>  (1977) 
NC(=O)Nc1ccc(S(=O)(=O)N2CCN(CCc3ccncc3)CC2)cc1O

>  <score_type>  (1977) 
oracle

>  <origin>  (1977) 
adg

>  <m_score__min__energy>  (1977) 
-14.08

>  <m_primary>  (1977) 
energy

$$$$
75:0
     RDKit          3D

 28 30  0  0  0  0  0  0  0  0999 V2000
   58.6060   30.5470   47.8520 C   0  0  0  0  0  0  0  0  0  0  0  0
   58.2910   30.5670   46.5470 C   0  0  0  0  0  0  0  0  0  0  0  0
   58.3170   29.4760   45.6620 C   0  0  0  0  0  0  0  0  0  0  0  0
   58.4340   28.1540   45.8900 C   0  0  0  0  0  0  0  0  0  0  0  0
   57.3180   27.1980   45.9710 C   0  0  0  0  0  0  0  0  0  0  0  0
   57.3960   25.9730   46.5240 N   0  0  0  0  0  0  0  0  0  0  0  0
   56.1180   25.5360   46.4940 C   0  0  0  0  0  0  0  0  0  0  0  0
   55.7800   24.4010   46.9190 O   0  0  0  0  0  0  0  0  0  0  0  0
   55.2300   26.4160   45.9840 N   0  0  0  0  0  0  0  0  0  0  0  0
   56.0040   27.4670   45.6710 C   0  0  0  0  0  0  0  0  0  0  0  0
   55.5200   28.6490   45.1280 O   0  0  0  0  0  0  0  0  0  0  0  0
   58.1680   30.0050   44.3930 C   0  0  0  0  0  0  0  0  0  0  0  0
   57.9840   31.3630   44.5430 C   0  0  0  0  0  0  0  0  0  0  0  0
   57.7640   32.3170   43.4070 C   0  0  0  0  0  0  0  0  0  0  0  0
   58.0440   31.7100   45.8500 N   0  0  0  0  0  0  0  0  0  0  0  0
   57.9820   33.0810   46.3760 C   0  0  0  0  0  0  0  0  0  0  0  0
   59.3590   33.5870   46.6710 C   0  0  0  0  0  0  0  0  0  0  0  0
   59.5790   34.8280   46.6940 O   0  0  0  0  0  0  0  0  0  0  0  0
   60.4190   32.6520   46.9040 N   0  0  0  0  0  0  0  0  0  0  0  0
   61.6810   32.9290   47.5300 C   0  0  0  0  0  0  0  0  0  0  0  0
   62.8400   33.1620   46.7670 C   0  0  0  0  0  0  0  0  0  0  0  0
   64.0610   33.4180   47.3960 C   0  0  0  0  0  0  0  0  0  0  0  0
   64.1370   33.4520   48.7890 C   0  0  0  0  0  0  0  0  0  0  0  0
   62.9900   33.2490   49.5570 C   0  0  0  0  0  0  0  0  0  0  0  0
   61.7540   33.0030   48.9380 C   0  0  0  0  0  0  0  0  0  0  0  0
   60.5810   32.8120   49.7480 N   0  0  0  0  0  0  0  0  0  0  0  0
   59.6060   33.8920   49.9110 C   0  0  0  0  0  0  0  0  0  0  0  0
   60.3100   31.4940   50.3210 C   0  0  0  0  0  0  0  0  0  0  0  0
  1  2  2  0
  2  3  1  0
  3  4  2  0
  4  5  1  0
  5  6  1  0
  6  7  1  0
  7  8  2  0
  7  9  1  0
  9 10  1  0
 10 11  1  0
  3 12  1  0
 12 13  2  0
 13 14  1  0
 13 15  1  0
 15 16  1  0
 16 17  1  0
 17 18  2  0
 17 19  1  0
 19 20  1  0
 20 21  2  0
 21 22  1  0
 22 23  2  0
 23 24  1  0
 24 25  2  0
 25 26  1  0
 26 27  1  0
 26 28  1  0
 15  2  1  0
 25 20  1  0
 10  5  2  0
M  CHG  4   6  -1   9  -1  11  -1  19  -1
M  END
>  <UniqueID>  (1978) 
72

>  <SMILES>  (1978) 
C=c1/c(=C\c2[n-]c(=O)[n-]c2[O-])cc(C)n1CC(=O)[N-]c1ccccc1N(C)C

>  <Energy>  (1978) 
121.91890300994267

>  <Genealogy>  (1978) 
C=c1c(=Cc2[n-]c(=O)[n-]c2[O-])cc(C)n1CC(=O)[N-]c1ccccc1N(C)C (protonated)
C=c1/c(=C\c2[n-]c(=O)[n-]c2[O-])cc(C)n1CC(=O)[N-]c1ccccc1N(C)C (cis-trans isomerization)
C=c1/c(=C\c2[n-]c(=O)[n-]c2[O-])cc(C)n1CC(=O)[N-]c1ccccc1N(C)C (3D coordinates assigned)
C=c1/c(=C\c2[n-]c(=O)[n-]c2[O-])cc(C)n1CC(=O)[N-]c1ccccc1N(C)C (optimized conformer: 121.91890300994267 kcal/mol)

>  <smiles>  (1978) 
C=c1c(=Cc2[nH]c(=O)[nH]c2O)cc(C)n1CC(=O)Nc1ccccc1N(C)C

>  <score_type>  (1978) 
oracle

>  <origin>  (1978) 
adg

>  <m_score__min__energy>  (1978) 
-16.82

>  <m_primary>  (1978) 
energy

$$$$
86:0
     RDKit          3D

 32 35  0  0  0  0  0  0  0  0999 V2000
   58.8980   29.3690   47.8610 C   0  0  0  0  0  0  0  0  0  0  0  0
   58.2600   29.2140   46.6900 C   0  0  0  0  0  0  0  0  0  0  0  0
   57.7470   28.0210   46.1510 C   0  0  0  0  0  0  0  0  0  0  0  0
   57.5810   26.8020   46.7030 C   0  0  0  0  0  0  0  0  0  0  0  0
   56.9660   25.6370   46.0340 C   0  0  0  0  0  0  0  0  0  0  0  0
   55.6010   25.6230   45.7020 C   0  0  0  0  0  0  0  0  0  0  0  0
   54.7840   26.7110   45.9980 O   0  0  0  0  0  0  0  0  0  0  0  0
   55.0670   24.5400   45.0790 N   0  0  0  0  0  0  0  0  0  0  0  0
   55.8370   23.4730   44.7460 C   0  0  0  0  0  0  0  0  0  0  0  0
   55.3200   22.4750   44.1800 O   0  0  0  0  0  0  0  0  0  0  0  0
   57.1670   23.4830   45.0150 N   0  0  0  0  0  0  0  0  0  0  0  0
   57.7480   24.5410   45.6380 C   0  0  0  0  0  0  0  0  0  0  0  0
   58.9870   24.5250   45.8560 O   0  0  0  0  0  0  0  0  0  0  0  0
   57.3780   28.3110   44.8480 C   0  0  0  0  0  0  0  0  0  0  0  0
   57.6080   29.6570   44.6570 C   0  0  0  0  0  0  0  0  0  0  0  0
   57.3300   30.3930   43.3810 C   0  0  0  0  0  0  0  0  0  0  0  0
   58.1410   30.2060   45.7700 N   0  0  0  0  0  0  0  0  0  0  0  0
   58.5140   31.5870   45.9320 C   0  0  0  0  0  0  0  0  0  0  0  0
   57.7170   32.6020   45.3960 C   0  0  0  0  0  0  0  0  0  0  0  0
   58.0940   33.9390   45.5310 C   0  0  0  0  0  0  0  0  0  0  0  0
   59.2740   34.2840   46.2090 C   0  0  0  0  0  0  0  0  0  0  0  0
   59.6460   35.7390   46.3340 C   0  0  0  0  0  0  0  0  0  0  0  0
   60.0910   33.2590   46.7460 C   0  0  0  0  0  0  0  0  0  0  0  0
   61.3650   33.5620   47.4390 C   0  0  0  0  0  0  0  0  0  0  0  0
   61.4170   34.5630   48.2070 O   0  0  0  0  0  0  0  0  0  0  0  0
   62.5310   32.7150   47.2550 N   0  0  0  0  0  0  0  0  0  0  0  0
   62.3720   31.4090   47.9460 C   0  0  0  0  0  0  0  0  0  0  0  0
   63.0900   31.3640   49.3090 C   0  0  0  0  0  0  0  0  0  0  0  0
   63.0800   32.6390   49.9100 O   0  0  0  0  0  0  0  0  0  0  0  0
   63.9290   33.5200   49.1930 C   0  0  0  0  0  0  0  0  0  0  0  0
   63.7720   33.4170   47.6540 C   0  0  0  0  0  0  0  0  0  0  0  0
   59.6930   31.9190   46.6110 C   0  0  0  0  0  0  0  0  0  0  0  0
  1  2  2  0
  2  3  1  0
  3  4  2  0
  4  5  1  0
  5  6  2  0
  6  7  1  0
  6  8  1  0
  8  9  1  0
  9 10  2  0
  9 11  1  0
 11 12  1  0
 12 13  2  0
  3 14  1  0
 14 15  2  0
 15 16  1  0
 15 17  1  0
 17 18  1  0
 18 19  2  0
 19 20  1  0
 20 21  2  0
 21 22  1  0
 21 23  1  0
 23 24  1  0
 24 25  2  0
 24 26  1  0
 26 27  1  0
 27 28  1  0
 28 29  1  0
 29 30  1  0
 30 31  1  0
 23 32  2  0
 17  2  1  0
 32 18  1  0
 12  5  1  0
 31 26  1  0
M  CHG  4   7  -1   8  -1  11  -1  26   1
M  END
>  <UniqueID>  (1979) 
83

>  <SMILES>  (1979) 
C=c1/c(=C\c2c([O-])[n-]c(=O)[n-]c2=O)cc(C)n1-c1ccc(C)c(C(=O)[NH+]2CCOCC2)c1

>  <Energy>  (1979) 
125.30548730445801

>  <Genealogy>  (1979) 
C=c1c(=Cc2c([O-])[n-]c(=O)[n-]c2=O)cc(C)n1-c1ccc(C)c(C(=O)[NH+]2CCOCC2)c1 (protonated)
C=c1/c(=C\c2c([O-])[n-]c(=O)[n-]c2=O)cc(C)n1-c1ccc(C)c(C(=O)[NH+]2CCOCC2)c1 (cis-trans isomerization)
C=c1/c(=C\c2c([O-])[n-]c(=O)[n-]c2=O)cc(C)n1-c1ccc(C)c(C(=O)[NH+]2CCOCC2)c1 (3D coordinates assigned)
C=c1/c(=C\c2c([O-])[n-]c(=O)[n-]c2=O)cc(C)n1-c1ccc(C)c(C(=O)[NH+]2CCOCC2)c1 (nonaromatic ring conformer: 125.30548730445801 kcal/mol)

>  <smiles>  (1979) 
C=c1c(=Cc2c(O)[nH]c(=O)[nH]c2=O)cc(C)n1-c1ccc(C)c(C(=O)N2CCOCC2)c1

>  <score_type>  (1979) 
oracle

>  <origin>  (1979) 
adg

>  <m_score__min__energy>  (1979) 
-15.75

>  <m_primary>  (1979) 
energy

$$$$
90:0
     RDKit          3D

 30 33  0  0  0  0  0  0  0  0999 V2000
   59.7450   32.3470   47.3100 C   0  0  0  0  0  0  0  0  0  0  0  0
   59.9250   33.4650   46.5680 C   0  0  0  0  0  0  0  0  0  0  0  0
   58.7680   34.0330   45.7790 C   0  0  0  0  0  0  0  0  0  0  0  0
   58.2070   32.9980   44.8410 C   0  0  0  0  0  0  0  0  0  0  0  0
   57.3940   31.9630   45.3340 C   0  0  0  0  0  0  0  0  0  0  0  0
   56.8430   31.0220   44.4590 C   0  0  0  0  0  0  0  0  0  0  0  0
   57.0930   31.1110   43.0870 C   0  0  0  0  0  0  0  0  0  0  0  0
   56.5560   30.1980   42.2400 F   0  0  0  0  0  0  0  0  0  0  0  0
   57.8930   32.1420   42.5870 C   0  0  0  0  0  0  0  0  0  0  0  0
   58.4460   33.0850   43.4590 C   0  0  0  0  0  0  0  0  0  0  0  0
   61.2970   34.0820   46.3900 C   0  0  0  0  0  0  0  0  0  0  0  0
   62.3140   33.5750   47.4140 C   0  0  0  0  0  0  0  0  0  0  0  0
   62.1420   32.0690   47.6130 C   0  0  0  0  0  0  0  0  0  0  0  0
   60.7910   31.7810   48.1400 N   0  0  2  0  0  0  0  0  0  0  0  0
   60.5720   30.3560   48.2730 C   0  0  0  0  0  0  0  0  0  0  0  0
   61.0750   29.7220   49.2440 O   0  0  0  0  0  0  0  0  0  0  0  0
   59.8310   29.5950   47.2420 C   0  0  0  0  0  0  0  0  0  0  0  0
   58.5320   29.1410   47.3750 C   0  0  0  0  0  0  0  0  0  0  0  0
   58.2290   28.4450   46.2160 C   0  0  0  0  0  0  0  0  0  0  0  0
   57.0510   27.8210   46.0230 C   0  0  0  0  0  0  0  0  0  0  0  0
   56.7130   26.4660   46.4820 C   0  0  0  0  0  0  0  0  0  0  0  0
   57.6110   25.6120   47.0040 N   0  0  0  0  0  0  0  0  0  0  0  0
   56.9050   24.4700   47.1540 C   0  0  0  0  0  0  0  0  0  0  0  0
   57.4060   23.4230   47.6390 O   0  0  0  0  0  0  0  0  0  0  0  0
   55.6240   24.5350   46.7310 N   0  0  0  0  0  0  0  0  0  0  0  0
   55.5230   25.8000   46.2950 C   0  0  0  0  0  0  0  0  0  0  0  0
   54.3750   26.3260   45.7130 O   0  0  0  0  0  0  0  0  0  0  0  0
   59.3630   28.5510   45.3960 C   0  0  0  0  0  0  0  0  0  0  0  0
   59.5000   28.1750   44.1200 C   0  0  0  0  0  0  0  0  0  0  0  0
   60.3320   29.2270   46.0460 N   0  0  0  0  0  0  0  0  0  0  0  0
  1  2  2  0
  2  3  1  0
  3  4  1  0
  4  5  2  0
  5  6  1  0
  6  7  2  0
  7  8  1  0
  7  9  1  0
  9 10  2  0
  2 11  1  0
 11 12  1  0
 12 13  1  0
 13 14  1  0
 14 15  1  6
 15 16  2  0
 15 17  1  0
 17 18  2  0
 18 19  1  0
 19 20  2  0
 20 21  1  0
 21 22  1  0
 22 23  1  0
 23 24  2  0
 23 25  1  0
 25 26  1  0
 26 27  1  0
 19 28  1  0
 28 29  2  0
 28 30  1  0
 14  1  1  0
 30 17  1  0
 10  4  1  0
 26 21  2  0
M  CHG  4  14   1  22  -1  25  -1  27  -1
M  END
>  <UniqueID>  (1980) 
86

>  <SMILES>  (1980) 
C=c1[nH]c(C(=O)[N@@H+]2C=C(Cc3ccc(F)cc3)CCC2)c/c1=C/c1[n-]c(=O)[n-]c1[O-]

>  <Energy>  (1980) 
122.84118896984643

>  <Genealogy>  (1980) 
C=c1[nH]c(C(=O)[NH+]2C=C(Cc3ccc(F)cc3)CCC2)cc1=Cc1[n-]c(=O)[n-]c1[O-] (protonated)
C=c1[nH]c(C(=O)[N@@H+]2C=C(Cc3ccc(F)cc3)CCC2)cc1=Cc1[n-]c(=O)[n-]c1[O-] (chirality)
C=c1[nH]c(C(=O)[N@@H+]2C=C(Cc3ccc(F)cc3)CCC2)c/c1=C/c1[n-]c(=O)[n-]c1[O-] (cis-trans isomerization)
C=c1[nH]c(C(=O)[N@@H+]2C=C(Cc3ccc(F)cc3)CCC2)c/c1=C/c1[n-]c(=O)[n-]c1[O-] (3D coordinates assigned)
C=c1[nH]c(C(=O)[N@@H+]2C=C(Cc3ccc(F)cc3)CCC2)c/c1=C/c1[n-]c(=O)[n-]c1[O-] (nonaromatic ring conformer: 122.84118896984643 kcal/mol)

>  <smiles>  (1980) 
C=c1[nH]c(C(=O)N2C=C(Cc3ccc(F)cc3)CCC2)cc1=Cc1[nH]c(=O)[nH]c1O

>  <score_type>  (1980) 
oracle

>  <origin>  (1980) 
adg

>  <m_score__min__energy>  (1980) 
-18.23

>  <m_primary>  (1980) 
energy

$$$$
92:0
     RDKit          3D

 29 31  0  0  0  0  0  0  0  0999 V2000
   54.9700   26.6920   45.9990 O   0  0  0  0  0  0  0  0  0  0  0  0
   55.9830   25.7990   46.3350 C   0  0  0  0  0  0  0  0  0  0  0  0
   55.8420   24.8330   47.2580 N   0  0  0  0  0  0  0  0  0  0  0  0
   57.0580   24.2460   47.2630 C   0  0  0  0  0  0  0  0  0  0  0  0
   57.3400   23.2780   48.0160 O   0  0  0  0  0  0  0  0  0  0  0  0
   57.9500   24.7850   46.4070 N   0  0  0  0  0  0  0  0  0  0  0  0
   57.2500   25.7610   45.7970 C   0  0  0  0  0  0  0  0  0  0  0  0
   57.8280   26.7420   44.8620 C   0  0  0  0  0  0  0  0  0  0  0  0
   57.5670   28.0610   44.8460 C   0  0  0  0  0  0  0  0  0  0  0  0
   56.2950   28.5130   44.7730 N   0  0  0  0  0  0  0  0  0  0  0  0
   56.4070   29.8500   44.8640 C   0  0  0  0  0  0  0  0  0  0  0  0
   55.4080   30.6190   44.8560 O   0  0  0  0  0  0  0  0  0  0  0  0
   57.6800   30.2830   44.9680 N   0  0  0  0  0  0  0  0  0  0  0  0
   58.1160   31.6800   45.1020 C   0  0  0  0  0  0  0  0  0  0  0  0
   58.3770   32.0370   46.5700 C   0  0  0  0  0  0  0  0  0  0  0  0
   59.8450   32.2850   46.8290 C   0  0  0  0  0  0  0  0  0  0  0  0
   60.3930   33.5380   46.5040 C   0  0  0  0  0  0  0  0  0  0  0  0
   61.7390   33.8070   46.7500 C   0  0  0  0  0  0  0  0  0  0  0  0
   62.5510   32.8330   47.3270 C   0  0  0  0  0  0  0  0  0  0  0  0
   62.0200   31.5880   47.6700 C   0  0  0  0  0  0  0  0  0  0  0  0
   60.6590   31.2990   47.4310 C   0  0  0  0  0  0  0  0  0  0  0  0
   60.0720   30.0700   47.7860 O   0  0  0  0  0  0  0  0  0  0  0  0
   60.6920   28.9940   48.4940 C   0  0  0  0  0  0  0  0  0  0  0  0
   59.9300   27.6860   48.2810 C   0  0  0  0  0  0  0  0  0  0  0  0
   60.0110   26.9190   49.4290 F   0  0  0  0  0  0  0  0  0  0  0  0
   58.5990   27.9620   48.0220 F   0  0  0  0  0  0  0  0  0  0  0  0
   60.6020   26.7480   46.9240 Cl  0  0  0  0  0  0  0  0  0  0  0  0
   58.4350   29.1600   44.9320 C   0  0  0  0  0  0  0  0  0  0  0  0
   59.7750   29.1640   44.8540 C   0  0  0  0  0  0  0  0  0  0  0  0
  1  2  1  0
  2  3  1  0
  3  4  1  0
  4  5  2  0
  4  6  1  0
  6  7  1  0
  7  8  1  0
  8  9  2  0
  9 10  1  0
 10 11  1  0
 11 12  2  0
 11 13  1  0
 13 14  1  0
 14 15  1  0
 15 16  1  0
 16 17  2  0
 17 18  1  0
 18 19  2  0
 19 20  1  0
 20 21  2  0
 21 22  1  0
 22 23  1  0
 23 24  1  0
 24 25  1  0
 24 26  1  0
 24 27  1  0
 13 28  1  0
 28 29  2  0
  7  2  2  0
 28  9  1  0
 21 16  1  0
M  CHG  3   3  -1   6  -1  10  -1
M  END
>  <UniqueID>  (1981) 
88

>  <SMILES>  (1981) 
C=c1/c(=C\c2[n-]c(=O)[n-]c2O)[n-]c(=O)n1CCc1ccccc1OCC(F)(F)Cl

>  <Energy>  (1981) 
112.78078407251225

>  <Genealogy>  (1981) 
C=c1c(=Cc2[n-]c(=O)[n-]c2O)[n-]c(=O)n1CCc1ccccc1OCC(F)(F)Cl (protonated)
C=c1/c(=C\c2[n-]c(=O)[n-]c2O)[n-]c(=O)n1CCc1ccccc1OCC(F)(F)Cl (cis-trans isomerization)
C=c1/c(=C\c2[n-]c(=O)[n-]c2O)[n-]c(=O)n1CCc1ccccc1OCC(F)(F)Cl (3D coordinates assigned)
C=c1/c(=C\c2[n-]c(=O)[n-]c2O)[n-]c(=O)n1CCc1ccccc1OCC(F)(F)Cl (optimized conformer: 112.78078407251225 kcal/mol)

>  <smiles>  (1981) 
C=c1c(=Cc2[nH]c(=O)[nH]c2O)[nH]c(=O)n1CCc1ccccc1OCC(F)(F)Cl

>  <score_type>  (1981) 
oracle

>  <origin>  (1981) 
adg

>  <m_score__min__energy>  (1981) 
-14.529999999999999

>  <m_primary>  (1981) 
energy

$$$$
8:0
     RDKit          3D

 25 27  0  0  0  0  0  0  0  0999 V2000
   52.1550   28.8300   54.3750 C   0  0  0  0  0  0  0  0  0  0  0  0
   53.3260   28.9730   53.7260 C   0  0  0  0  0  0  0  0  0  0  0  0
   53.7050   30.1770   53.0570 C   0  0  0  0  0  0  0  0  0  0  0  0
   52.8390   31.1620   52.6860 C   0  0  0  0  0  0  0  0  0  0  0  0
   52.1800   31.2930   51.3710 C   0  0  0  0  0  0  0  0  0  0  0  0
   52.1880   30.3230   50.4410 N   0  0  0  0  0  0  0  0  0  0  0  0
   51.3960   30.8180   49.4660 C   0  0  0  0  0  0  0  0  0  0  0  0
   51.1640   30.1920   48.3980 O   0  0  0  0  0  0  0  0  0  0  0  0
   50.8610   32.0290   49.7280 N   0  0  0  0  0  0  0  0  0  0  0  0
   51.3550   32.3110   50.9440 C   0  0  0  0  0  0  0  0  0  0  0  0
   51.0330   33.4590   51.6590 O   0  0  0  0  0  0  0  0  0  0  0  0
   55.0810   30.3310   52.7470 C   0  0  0  0  0  0  0  0  0  0  0  0
   55.5000   31.4270   52.2750 O   0  0  0  0  0  0  0  0  0  0  0  0
   55.9620   29.2940   52.9210 N   0  0  0  0  0  0  0  0  0  0  0  0
   57.3900   29.4680   52.5800 C   0  0  0  0  0  0  0  0  0  0  0  0
   58.0840   30.3380   53.6310 C   0  0  0  0  0  0  0  0  0  0  0  0
   58.4270   31.6880   53.0620 C   0  0  0  0  0  0  0  0  0  0  0  0
   58.5250   32.8080   53.9040 C   0  0  0  0  0  0  0  0  0  0  0  0
   58.8110   34.0680   53.3700 C   0  0  0  0  0  0  0  0  0  0  0  0
   58.9910   34.2200   51.9920 C   0  0  0  0  0  0  0  0  0  0  0  0
   58.8820   33.1120   51.1460 C   0  0  0  0  0  0  0  0  0  0  0  0
   58.5960   31.8510   51.6770 C   0  0  0  0  0  0  0  0  0  0  0  0
   55.5250   28.1080   53.4440 C   0  0  0  0  0  0  0  0  0  0  0  0
   56.3230   27.1430   53.6010 O   0  0  0  0  0  0  0  0  0  0  0  0
   54.2330   27.9610   53.8310 N   0  0  0  0  0  0  0  0  0  0  0  0
  1  2  2  0
  2  3  1  0
  3  4  2  0
  4  5  1  0
  5  6  1  0
  6  7  1  0
  7  8  2  0
  7  9  1  0
  9 10  1  0
 10 11  1  0
  3 12  1  0
 12 13  2  0
 12 14  1  0
 14 15  1  0
 15 16  1  0
 16 17  1  0
 17 18  2  0
 18 19  1  0
 19 20  2  0
 20 21  1  0
 21 22  2  0
 14 23  1  0
 23 24  2  0
 23 25  1  0
 25  2  1  0
 10  5  2  0
 22 17  1  0
M  CHG  3   6  -1   9  -1  11  -1
M  END
>  <UniqueID>  (1982) 
8

>  <SMILES>  (1982) 
C=c1[nH]c(=O)n(CCc2ccccc2)c(=O)/c1=C/c1[n-]c(=O)[n-]c1[O-]

>  <Energy>  (1982) 
95.15767127338674

>  <Genealogy>  (1982) 
C=c1[nH]c(=O)n(CCc2ccccc2)c(=O)c1=Cc1[n-]c(=O)[n-]c1[O-] (protonated)
C=c1[nH]c(=O)n(CCc2ccccc2)c(=O)/c1=C/c1[n-]c(=O)[n-]c1[O-] (cis-trans isomerization)
C=c1[nH]c(=O)n(CCc2ccccc2)c(=O)/c1=C/c1[n-]c(=O)[n-]c1[O-] (3D coordinates assigned)
C=c1[nH]c(=O)n(CCc2ccccc2)c(=O)/c1=C/c1[n-]c(=O)[n-]c1[O-] (optimized conformer: 95.15767127338674 kcal/mol)

>  <smiles>  (1982) 
C=c1[nH]c(=O)n(CCc2ccccc2)c(=O)c1=Cc1[nH]c(=O)[nH]c1O

>  <score_type>  (1982) 
oracle

>  <origin>  (1982) 
adg

>  <m_score__min__energy>  (1982) 
-16.100000000000001

>  <m_primary>  (1982) 
energy

$$$$
11:0
     RDKit          3D

 34 36  0  0  0  0  0  0  0  0999 V2000
   57.4090   32.1570   44.4300 C   0  0  0  0  0  0  0  0  0  0  0  0
   58.3270   31.2060   45.1920 C   0  0  0  0  0  0  0  0  0  0  0  0
   59.1710   31.9920   46.2040 C   0  0  0  0  0  0  0  0  0  0  0  0
   57.5010   30.2110   45.8780 N   0  0  0  0  0  0  0  0  0  0  0  0
   56.7860   29.0680   44.7770 S   0  0  0  0  0  0  0  0  0  0  0  0
   57.3920   29.2630   43.4160 O   0  0  0  0  0  0  0  0  0  0  0  0
   55.3080   29.3160   44.6710 O   0  0  0  0  0  0  0  0  0  0  0  0
   57.0850   27.4080   45.2830 C   0  0  0  0  0  0  0  0  0  0  0  0
   56.6410   26.9720   46.5380 C   0  0  0  0  0  0  0  0  0  0  0  0
   56.8850   25.6590   46.9580 C   0  0  0  0  0  0  0  0  0  0  0  0
   57.5830   24.7620   46.1280 C   0  0  0  0  0  0  0  0  0  0  0  0
   57.8820   23.3880   46.5880 C   0  0  0  0  0  0  0  0  0  0  0  0
   58.6020   22.6290   45.8840 O   0  0  0  0  0  0  0  0  0  0  0  0
   57.3600   22.9150   47.8350 N   0  0  0  0  0  0  0  0  0  0  0  0
   56.6550   21.6460   47.9910 C   0  0  0  0  0  0  0  0  0  0  0  0
   55.2190   21.7890   47.5510 C   0  0  0  0  0  0  0  0  0  0  0  0
   54.3580   22.1920   48.3750 O   0  0  0  0  0  0  0  0  0  0  0  0
   54.8070   21.5120   46.2050 N   0  0  0  0  0  0  0  0  0  0  0  0
   55.4330   21.9920   45.0010 C   0  0  0  0  0  0  0  0  0  0  0  0
   56.3660   21.1920   44.3150 C   0  0  0  0  0  0  0  0  0  0  0  0
   56.9540   21.6400   43.1280 C   0  0  0  0  0  0  0  0  0  0  0  0
   56.6180   22.8950   42.6220 C   0  0  0  0  0  0  0  0  0  0  0  0
   55.6740   23.6930   43.2800 C   0  0  0  0  0  0  0  0  0  0  0  0
   55.0610   23.2490   44.4630 C   0  0  0  0  0  0  0  0  0  0  0  0
   54.0060   24.0920   45.0850 C   0  0  0  0  0  0  0  0  0  0  0  0
   54.3240   25.0140   45.8830 O   0  0  0  0  0  0  0  0  0  0  0  0
   52.6170   23.8270   44.8420 N   0  0  0  0  0  0  0  0  0  0  0  0
   52.1230   23.8700   43.4540 C   0  0  0  0  0  0  0  0  0  0  0  0
   50.5950   23.7460   43.3870 C   0  0  0  0  0  0  0  0  0  0  0  0
   50.1230   22.8000   44.3210 O   0  0  0  0  0  0  0  0  0  0  0  0
   50.3020   23.3190   45.6210 C   0  0  0  0  0  0  0  0  0  0  0  0
   51.7900   23.3940   45.9770 C   0  0  0  0  0  0  0  0  0  0  0  0
   58.0060   25.1990   44.8590 C   0  0  0  0  0  0  0  0  0  0  0  0
   57.7550   26.5100   44.4380 C   0  0  0  0  0  0  0  0  0  0  0  0
  1  2  1  0
  2  3  1  0
  2  4  1  0
  4  5  1  0
  5  6  2  0
  5  7  2  0
  5  8  1  0
  8  9  2  0
  9 10  1  0
 10 11  2  0
 11 12  1  0
 12 13  2  0
 12 14  1  0
 14 15  1  0
 15 16  1  0
 16 17  2  0
 16 18  1  0
 18 19  1  0
 19 20  2  0
 20 21  1  0
 21 22  2  0
 22 23  1  0
 23 24  2  0
 24 25  1  0
 25 26  2  0
 25 27  1  0
 27 28  1  0
 28 29  1  0
 29 30  1  0
 30 31  1  0
 31 32  1  0
 11 33  1  0
 33 34  2  0
 34  8  1  0
 24 19  1  0
 32 27  1  0
M  CHG  3   4  -1  14  -1  18  -1
M  END
>  <UniqueID>  (1983) 
11

>  <SMILES>  (1983) 
CC(C)[N-]S(=O)(=O)c1ccc(C(=O)[N-]CC(=O)[N-]c2ccccc2C(=O)N2CCOCC2)cc1

>  <Energy>  (1983) 
70.77055470890734

>  <Genealogy>  (1983) 
CC(C)[N-]S(=O)(=O)c1ccc(C(=O)[N-]CC(=O)[N-]c2ccccc2C(=O)N2CCOCC2)cc1 (protonated)
CC(C)[N-]S(=O)(=O)c1ccc(C(=O)[N-]CC(=O)[N-]c2ccccc2C(=O)N2CCOCC2)cc1 (3D coordinates assigned)
CC(C)[N-]S(=O)(=O)c1ccc(C(=O)[N-]CC(=O)[N-]c2ccccc2C(=O)N2CCOCC2)cc1 (nonaromatic ring conformer: 70.77055470890734 kcal/mol)

>  <smiles>  (1983) 
CC(C)NS(=O)(=O)c1ccc(C(=O)NCC(=O)Nc2ccccc2C(=O)N2CCOCC2)cc1

>  <score_type>  (1983) 
oracle

>  <origin>  (1983) 
adg

>  <m_score__min__energy>  (1983) 
-14.890000000000001

>  <m_primary>  (1983) 
energy

$$$$
17:0
     RDKit          3D

 26 28  0  0  0  0  0  0  0  0999 V2000
   58.8980   30.3960   47.4340 C   0  0  0  0  0  0  0  0  0  0  0  0
   58.4210   31.1430   46.4230 C   0  0  0  0  0  0  0  0  0  0  0  0
   57.9430   30.6810   45.1840 C   0  0  0  0  0  0  0  0  0  0  0  0
   57.9690   29.4550   44.6220 C   0  0  0  0  0  0  0  0  0  0  0  0
   57.4230   28.2210   45.2200 C   0  0  0  0  0  0  0  0  0  0  0  0
   56.0370   28.0200   45.3380 C   0  0  0  0  0  0  0  0  0  0  0  0
   55.1380   28.9660   44.8580 O   0  0  0  0  0  0  0  0  0  0  0  0
   55.5650   26.8930   45.9310 N   0  0  0  0  0  0  0  0  0  0  0  0
   56.4110   25.9580   46.4330 C   0  0  0  0  0  0  0  0  0  0  0  0
   55.9510   24.9200   46.9750 O   0  0  0  0  0  0  0  0  0  0  0  0
   57.7540   26.1450   46.3560 N   0  0  0  0  0  0  0  0  0  0  0  0
   58.2760   27.2540   45.7720 C   0  0  0  0  0  0  0  0  0  0  0  0
   59.5270   27.3980   45.7250 O   0  0  0  0  0  0  0  0  0  0  0  0
   57.3880   31.7770   44.5500 C   0  0  0  0  0  0  0  0  0  0  0  0
   57.5880   32.8630   45.3750 C   0  0  0  0  0  0  0  0  0  0  0  0
   57.1170   34.2530   45.0700 C   0  0  0  0  0  0  0  0  0  0  0  0
   58.2280   32.4880   46.5070 N   0  0  0  0  0  0  0  0  0  0  0  0
   58.5380   33.3710   47.6430 C   0  0  0  0  0  0  0  0  0  0  0  0
   59.8890   33.9950   47.4640 C   0  0  0  0  0  0  0  0  0  0  0  0
   60.0360   34.9270   46.6280 O   0  0  0  0  0  0  0  0  0  0  0  0
   61.0120   33.5210   48.2220 N   0  0  0  0  0  0  0  0  0  0  0  0
   62.3640   34.0610   48.0270 C   0  0  0  0  0  0  0  0  0  0  0  0
   62.9840   33.5280   46.7390 C   0  0  0  0  0  0  0  0  0  0  0  0
   63.6640   32.2180   47.1150 C   0  0  0  0  0  0  0  0  0  0  0  0
   63.8800   32.2520   48.6270 C   0  0  0  0  0  0  0  0  0  0  0  0
   63.2970   33.5690   49.1270 C   0  0  0  0  0  0  0  0  0  0  0  0
  1  2  2  0
  2  3  1  0
  3  4  2  0
  4  5  1  0
  5  6  2  0
  6  7  1  0
  6  8  1  0
  8  9  1  0
  9 10  2  0
  9 11  1  0
 11 12  1  0
 12 13  2  0
  3 14  1  0
 14 15  2  0
 15 16  1  0
 15 17  1  0
 17 18  1  0
 18 19  1  0
 19 20  2  0
 19 21  1  0
 21 22  1  0
 22 23  1  0
 23 24  1  0
 24 25  1  0
 25 26  1  0
 17  2  1  0
 26 22  1  0
 12  5  1  0
M  CHG  3   7  -1   8  -1  11  -1
M  END
>  <UniqueID>  (1984) 
16

>  <SMILES>  (1984) 
C=c1/c(=C\c2c([O-])[n-]c(=O)[n-]c2=O)cc(C)n1CC(=O)NC1CCCC1

>  <Energy>  (1984) 
85.89935146241139

>  <Genealogy>  (1984) 
C=c1c(=Cc2c([O-])[n-]c(=O)[n-]c2=O)cc(C)n1CC(=O)NC1CCCC1 (protonated)
C=c1/c(=C\c2c([O-])[n-]c(=O)[n-]c2=O)cc(C)n1CC(=O)NC1CCCC1 (cis-trans isomerization)
C=c1/c(=C\c2c([O-])[n-]c(=O)[n-]c2=O)cc(C)n1CC(=O)NC1CCCC1 (3D coordinates assigned)
C=c1/c(=C\c2c([O-])[n-]c(=O)[n-]c2=O)cc(C)n1CC(=O)NC1CCCC1 (nonaromatic ring conformer: 85.89935146241139 kcal/mol)

>  <smiles>  (1984) 
C=c1c(=Cc2c(O)[nH]c(=O)[nH]c2=O)cc(C)n1CC(=O)NC1CCCC1

>  <score_type>  (1984) 
oracle

>  <origin>  (1984) 
adg

>  <m_score__min__energy>  (1984) 
-16.57

>  <m_primary>  (1984) 
energy

$$$$
19:0
     RDKit          3D

 36 40  0  0  0  0  0  0  0  0999 V2000
   51.0370   33.0900   51.6260 O   0  0  0  0  0  0  0  0  0  0  0  0
   51.4350   31.9580   50.9200 C   0  0  0  0  0  0  0  0  0  0  0  0
   50.8830   31.5570   49.7620 N   0  0  0  0  0  0  0  0  0  0  0  0
   51.5990   30.4490   49.4610 C   0  0  0  0  0  0  0  0  0  0  0  0
   51.3840   29.7640   48.4260 O   0  0  0  0  0  0  0  0  0  0  0  0
   52.5630   30.1340   50.3530 N   0  0  0  0  0  0  0  0  0  0  0  0
   52.4400   31.0970   51.2860 C   0  0  0  0  0  0  0  0  0  0  0  0
   53.3140   31.2270   52.4550 C   0  0  0  0  0  0  0  0  0  0  0  0
   54.4150   30.4870   52.6910 C   0  0  0  0  0  0  0  0  0  0  0  0
   54.3530   29.2130   53.2340 C   0  0  0  0  0  0  0  0  0  0  0  0
   55.6480   28.7500   53.3240 C   0  0  0  0  0  0  0  0  0  0  0  0
   56.0440   27.4040   53.8500 C   0  0  0  0  0  0  0  0  0  0  0  0
   56.5120   29.6820   52.8680 N   0  0  0  0  0  0  0  0  0  0  0  0
   57.9440   29.5570   52.8630 C   0  0  0  0  0  0  0  0  0  0  0  0
   58.6530   29.5690   54.0700 C   0  0  0  0  0  0  0  0  0  0  0  0
   60.0450   29.4280   54.0690 C   0  0  0  0  0  0  0  0  0  0  0  0
   60.7420   29.2740   52.8590 C   0  0  0  0  0  0  0  0  0  0  0  0
   62.2110   29.1160   52.8500 C   0  0  0  0  0  0  0  0  0  0  0  0
   62.8430   29.3610   51.7870 O   0  0  0  0  0  0  0  0  0  0  0  0
   62.9260   28.6660   54.0190 N   0  0  0  0  0  0  0  0  0  0  0  0
   62.3530   27.6080   54.8640 C   0  0  0  0  0  0  0  0  0  0  0  0
   63.4470   26.8640   55.6480 C   0  0  0  0  0  0  0  0  0  0  0  0
   64.6590   26.4930   54.7390 C   0  0  0  0  0  0  0  0  0  0  0  0
   64.3550   25.4240   53.7380 N   0  0  0  0  0  0  0  0  0  0  0  0
   64.0580   25.9500   52.3770 C   0  0  0  0  0  0  0  0  0  0  0  0
   63.4130   24.8890   51.4770 C   0  0  0  0  0  0  0  0  0  0  0  0
   62.0540   24.4400   52.0330 C   0  0  0  0  0  0  0  0  0  0  0  0
   61.9420   24.6600   53.5480 C   0  0  0  0  0  0  0  0  0  0  0  0
   63.3040   24.4810   54.2340 C   0  0  0  0  0  0  0  0  0  0  0  0
   65.2090   27.7770   54.0210 C   0  0  0  0  0  0  0  0  0  0  0  0
   64.3360   29.0260   54.2030 C   0  0  0  0  0  0  0  0  0  0  0  0
   60.0300   29.3010   51.6490 C   0  0  0  0  0  0  0  0  0  0  0  0
   58.6400   29.4370   51.6490 C   0  0  0  0  0  0  0  0  0  0  0  0
   57.9670   29.4580   50.4710 F   0  0  0  0  0  0  0  0  0  0  0  0
   55.7800   30.7580   52.4800 C   0  0  0  0  0  0  0  0  0  0  0  0
   56.3340   31.8860   52.0040 C   0  0  0  0  0  0  0  0  0  0  0  0
  1  2  1  0
  2  3  1  0
  3  4  1  0
  4  5  2  0
  4  6  1  0
  6  7  1  0
  7  8  1  0
  8  9  2  0
  9 10  1  0
 10 11  2  0
 11 12  1  0
 11 13  1  0
 13 14  1  0
 14 15  2  0
 15 16  1  0
 16 17  2  0
 17 18  1  0
 18 19  2  0
 18 20  1  0
 20 21  1  0
 21 22  1  0
 22 23  1  0
 23 24  1  0
 24 25  1  0
 25 26  1  0
 26 27  1  0
 27 28  1  0
 28 29  1  0
 23 30  1  0
 30 31  1  0
 17 32  1  0
 32 33  2  0
 33 34  1  0
 13 35  1  0
 35 36  2  0
  7  2  2  0
 35  9  1  0
 33 14  1  0
 31 20  1  0
 29 24  1  0
M  CHG  2   3  -1   6  -1
M  END
>  <UniqueID>  (1985) 
18

>  <SMILES>  (1985) 
C=c1/c(=C\c2[n-]c(=O)[n-]c2O)cc(C)n1-c1ccc(C(=O)N2CCC(N3CCCCC3)CC2)cc1F

>  <Energy>  (1985) 
168.44847827266804

>  <Genealogy>  (1985) 
C=c1c(=Cc2[n-]c(=O)[n-]c2O)cc(C)n1-c1ccc(C(=O)N2CCC(N3CCCCC3)CC2)cc1F (protonated)
C=c1/c(=C\c2[n-]c(=O)[n-]c2O)cc(C)n1-c1ccc(C(=O)N2CCC(N3CCCCC3)CC2)cc1F (cis-trans isomerization)
C=c1/c(=C\c2[n-]c(=O)[n-]c2O)cc(C)n1-c1ccc(C(=O)N2CCC(N3CCCCC3)CC2)cc1F (3D coordinates assigned)
C=c1/c(=C\c2[n-]c(=O)[n-]c2O)cc(C)n1-c1ccc(C(=O)N2CCC(N3CCCCC3)CC2)cc1F (nonaromatic ring conformer: 168.44847827266804 kcal/mol)

>  <smiles>  (1985) 
C=c1c(=Cc2[nH]c(=O)[nH]c2O)cc(C)n1-c1ccc(C(=O)N2CCC(N3CCCCC3)CC2)cc1F

>  <score_type>  (1985) 
oracle

>  <origin>  (1985) 
adg

>  <m_score__min__energy>  (1985) 
-14.08

>  <m_primary>  (1985) 
energy

$$$$
25:0
     RDKit          3D

 37 41  0  0  0  0  0  0  0  0999 V2000
   62.1000   34.5870   48.6360 O   0  0  0  0  0  0  0  0  0  0  0  0
   61.1850   33.5780   49.0050 C   0  0  1  0  0  0  0  0  0  0  0  0
   59.7540   34.1880   48.9110 C   0  0  0  0  0  0  0  0  0  0  0  0
   59.1890   34.1960   47.5080 C   0  0  0  0  0  0  0  0  0  0  0  0
   59.7640   35.0060   46.5120 C   0  0  0  0  0  0  0  0  0  0  0  0
   59.2480   34.9990   45.2130 C   0  0  0  0  0  0  0  0  0  0  0  0
   58.1540   34.1890   44.8970 C   0  0  0  0  0  0  0  0  0  0  0  0
   57.5710   33.3870   45.8820 C   0  0  0  0  0  0  0  0  0  0  0  0
   58.0830   33.3910   47.1830 C   0  0  0  0  0  0  0  0  0  0  0  0
   61.3180   32.3820   48.0050 C   0  0  0  0  0  0  0  0  0  0  0  0
   61.3380   31.0030   48.6930 C   0  0  0  0  0  0  0  0  0  0  0  0
   60.3450   30.9450   49.7850 N   0  0  1  0  0  0  0  0  0  0  0  0
   60.2330   29.5910   50.2960 C   0  0  0  0  0  0  0  0  0  0  0  0
   60.7830   28.6410   49.6690 O   0  0  0  0  0  0  0  0  0  0  0  0
   59.5220   29.2890   51.5670 C   0  0  0  0  0  0  0  0  0  0  0  0
   60.2030   28.7870   52.6940 C   0  0  0  0  0  0  0  0  0  0  0  0
   59.5090   28.5020   53.8730 C   0  0  0  0  0  0  0  0  0  0  0  0
   58.1310   28.7090   53.9450 C   0  0  0  0  0  0  0  0  0  0  0  0
   57.4350   29.2030   52.8350 C   0  0  0  0  0  0  0  0  0  0  0  0
   56.0120   29.4060   52.9040 N   0  0  0  0  0  0  0  0  0  0  0  0
   55.1110   28.5110   53.3640 C   0  0  0  0  0  0  0  0  0  0  0  0
   55.4490   27.1550   53.9040 C   0  0  0  0  0  0  0  0  0  0  0  0
   53.8340   29.0290   53.2870 C   0  0  0  0  0  0  0  0  0  0  0  0
   53.9490   30.3040   52.7390 C   0  0  0  0  0  0  0  0  0  0  0  0
   52.9510   31.1770   52.4800 C   0  0  0  0  0  0  0  0  0  0  0  0
   52.1620   31.2520   51.2280 C   0  0  0  0  0  0  0  0  0  0  0  0
   52.1650   30.3480   50.2330 N   0  0  0  0  0  0  0  0  0  0  0  0
   51.2970   30.8610   49.3340 C   0  0  0  0  0  0  0  0  0  0  0  0
   51.0290   30.2890   48.2470 O   0  0  0  0  0  0  0  0  0  0  0  0
   50.7390   32.0350   49.6950 N   0  0  0  0  0  0  0  0  0  0  0  0
   51.2970   32.2680   50.8930 C   0  0  0  0  0  0  0  0  0  0  0  0
   51.0210   33.3890   51.6670 O   0  0  0  0  0  0  0  0  0  0  0  0
   55.3180   30.5050   52.5160 C   0  0  0  0  0  0  0  0  0  0  0  0
   55.8940   31.6150   52.0270 C   0  0  0  0  0  0  0  0  0  0  0  0
   58.1300   29.4840   51.6490 C   0  0  0  0  0  0  0  0  0  0  0  0
   60.6690   31.8830   50.8940 C   0  0  0  0  0  0  0  0  0  0  0  0
   61.5010   33.1080   50.4520 C   0  0  0  0  0  0  0  0  0  0  0  0
  2  1  1  6
  2  3  1  0
  3  4  1  0
  4  5  2  0
  5  6  1  0
  6  7  2  0
  7  8  1  0
  8  9  2  0
  2 10  1  0
 10 11  1  0
 11 12  1  0
 12 13  1  1
 13 14  2  0
 13 15  1  0
 15 16  2  0
 16 17  1  0
 17 18  2  0
 18 19  1  0
 19 20  1  0
 20 21  1  0
 21 22  1  0
 21 23  2  0
 23 24  1  0
 24 25  2  0
 25 26  1  0
 26 27  1  0
 27 28  1  0
 28 29  2  0
 28 30  1  0
 30 31  1  0
 31 32  1  0
 24 33  1  0
 33 34  2  0
 19 35  2  0
 12 36  1  0
 36 37  1  0
 37  2  1  0
  9  4  1  0
 35 15  1  0
 33 20  1  0
 31 26  2  0
M  CHG  4  12   1  27  -1  30  -1  32  -1
M  END
>  <UniqueID>  (1986) 
23

>  <SMILES>  (1986) 
C=c1/c(=C/c2[n-]c(=O)[n-]c2[O-])cc(C)n1-c1cccc(C(=O)[NH+]2CCC(O)(Cc3ccccc3)CC2)c1

>  <Energy>  (1986) 
152.92602999265205

>  <Genealogy>  (1986) 
C=c1c(=Cc2[n-]c(=O)[n-]c2[O-])cc(C)n1-c1cccc(C(=O)[NH+]2CCC(O)(Cc3ccccc3)CC2)c1 (protonated)
C=c1/c(=C/c2[n-]c(=O)[n-]c2[O-])cc(C)n1-c1cccc(C(=O)[NH+]2CCC(O)(Cc3ccccc3)CC2)c1 (cis-trans isomerization)
C=c1/c(=C/c2[n-]c(=O)[n-]c2[O-])cc(C)n1-c1cccc(C(=O)[NH+]2CCC(O)(Cc3ccccc3)CC2)c1 (3D coordinates assigned)
C=c1/c(=C/c2[n-]c(=O)[n-]c2[O-])cc(C)n1-c1cccc(C(=O)[NH+]2CCC(O)(Cc3ccccc3)CC2)c1 (nonaromatic ring conformer: 152.92602999265205 kcal/mol)

>  <smiles>  (1986) 
C=c1c(=Cc2[nH]c(=O)[nH]c2O)cc(C)n1-c1cccc(C(=O)N2CCC(O)(Cc3ccccc3)CC2)c1

>  <score_type>  (1986) 
oracle

>  <origin>  (1986) 
adg

>  <m_score__min__energy>  (1986) 
-17.93

>  <m_primary>  (1986) 
energy

$$$$
26:0
     RDKit          3D

 29 32  0  0  0  0  0  0  0  0999 V2000
   55.7070   31.6570   52.0970 C   0  0  0  0  0  0  0  0  0  0  0  0
   55.1870   30.4920   52.5120 C   0  0  0  0  0  0  0  0  0  0  0  0
   53.8330   30.2140   52.7700 C   0  0  0  0  0  0  0  0  0  0  0  0
   52.7180   30.9300   52.5290 C   0  0  0  0  0  0  0  0  0  0  0  0
   52.0980   31.1370   51.2120 C   0  0  0  0  0  0  0  0  0  0  0  0
   52.0710   30.2230   50.2240 N   0  0  0  0  0  0  0  0  0  0  0  0
   51.2850   30.7960   49.2880 C   0  0  0  0  0  0  0  0  0  0  0  0
   51.0270   30.2440   48.1870 O   0  0  0  0  0  0  0  0  0  0  0  0
   50.7850   32.0030   49.6300 N   0  0  0  0  0  0  0  0  0  0  0  0
   51.2980   32.1950   50.8570 C   0  0  0  0  0  0  0  0  0  0  0  0
   51.0350   33.3130   51.6380 O   0  0  0  0  0  0  0  0  0  0  0  0
   53.8000   28.9520   53.3410 C   0  0  0  0  0  0  0  0  0  0  0  0
   55.0970   28.4850   53.3600 C   0  0  0  0  0  0  0  0  0  0  0  0
   55.5070   27.1420   53.8860 C   0  0  0  0  0  0  0  0  0  0  0  0
   55.9400   29.4110   52.8500 N   0  0  0  0  0  0  0  0  0  0  0  0
   57.3720   29.2870   52.7870 C   0  0  0  0  0  0  0  0  0  0  0  0
   58.2340   29.1200   53.8510 C   0  0  0  0  0  0  0  0  0  0  0  0
   59.4920   29.1580   53.3760 N   0  0  0  0  0  0  0  0  0  0  0  0
   59.4530   29.3430   52.0620 N   0  0  0  0  0  0  0  0  0  0  0  0
   60.6230   29.5360   51.1910 C   0  0  0  0  0  0  0  0  0  0  0  0
   61.2400   30.9500   51.3710 C   0  0  0  0  0  0  0  0  0  0  0  0
   61.2430   31.7940   50.0880 C   0  0  0  0  0  0  0  0  0  0  0  0
   59.9640   31.6680   49.3700 N   0  0  0  0  0  0  0  0  0  0  0  0
   59.2940   32.8140   48.7980 C   0  0  0  0  0  0  0  0  0  0  0  0
   59.9290   34.1720   48.7610 C   0  0  0  0  0  0  0  0  0  0  0  0
   58.1340   32.6830   48.3190 O   0  0  0  0  0  0  0  0  0  0  0  0
   59.4140   30.3290   49.0960 C   0  0  0  0  0  0  0  0  0  0  0  0
   60.2590   29.2180   49.7300 C   0  0  0  0  0  0  0  0  0  0  0  0
   58.1670   29.4440   51.6690 C   0  0  0  0  0  0  0  0  0  0  0  0
  1  2  2  0
  2  3  1  0
  3  4  2  3
  4  5  1  0
  5  6  1  0
  6  7  1  0
  7  8  2  0
  7  9  1  0
  9 10  1  0
 10 11  1  0
  3 12  1  0
 12 13  2  0
 13 14  1  0
 13 15  1  0
 15 16  1  0
 16 17  1  0
 17 18  2  0
 18 19  1  0
 19 20  1  0
 20 21  1  0
 21 22  1  0
 22 23  1  0
 23 24  1  0
 24 25  1  0
 24 26  2  0
 23 27  1  0
 27 28  1  0
 19 29  1  0
 15  2  1  0
 29 16  2  0
 10  5  2  0
 28 20  1  0
M  CHG  4   6  -1   9  -1  11  -1  18   1
M  END
>  <UniqueID>  (1987) 
24

>  <SMILES>  (1987) 
C=c1c(=Cc2[n-]c(=O)[n-]c2[O-])cc(C)n1-c1c[nH+]n(C2CCN(C(C)=O)CC2)c1

>  <Energy>  (1987) 
161.84021797920278

>  <Genealogy>  (1987) 
C=c1c(=Cc2[n-]c(=O)[n-]c2[O-])cc(C)n1-c1c[nH+]n(C2CCN(C(C)=O)CC2)c1 (protonated)
C=c1c(=Cc2[n-]c(=O)[n-]c2[O-])cc(C)n1-c1c[nH+]n(C2CCN(C(C)=O)CC2)c1 (3D coordinates assigned)
C=c1c(=Cc2[n-]c(=O)[n-]c2[O-])cc(C)n1-c1c[nH+]n(C2CCN(C(C)=O)CC2)c1 (nonaromatic ring conformer: 161.84021797920278 kcal/mol)

>  <smiles>  (1987) 
C=c1c(=Cc2[nH]c(=O)[nH]c2O)cc(C)n1-c1cnn(C2CCN(C(C)=O)CC2)c1

>  <score_type>  (1987) 
oracle

>  <origin>  (1987) 
adg

>  <m_score__min__energy>  (1987) 
-15.69

>  <m_primary>  (1987) 
energy

$$$$
27:0
     RDKit          3D

 31 34  0  0  0  0  0  0  0  0999 V2000
   59.7740   28.2100   44.1550 C   0  0  0  0  0  0  0  0  0  0  0  0
   58.9160   27.7940   45.0890 C   0  0  0  0  0  0  0  0  0  0  0  0
   58.7160   26.4900   45.3680 N   0  0  0  0  0  0  0  0  0  0  0  0
   57.8600   26.4420   46.4120 C   0  0  0  0  0  0  0  0  0  0  0  0
   57.3970   25.3200   46.9820 C   0  0  0  0  0  0  0  0  0  0  0  0
   56.1620   24.6300   46.5460 C   0  0  0  0  0  0  0  0  0  0  0  0
   55.0760   25.3370   46.0010 C   0  0  0  0  0  0  0  0  0  0  0  0
   55.1250   26.7200   45.8580 O   0  0  0  0  0  0  0  0  0  0  0  0
   53.9690   24.6660   45.5890 N   0  0  0  0  0  0  0  0  0  0  0  0
   53.8960   23.3150   45.6750 C   0  0  0  0  0  0  0  0  0  0  0  0
   52.8590   22.7150   45.2910 O   0  0  0  0  0  0  0  0  0  0  0  0
   54.9430   22.6070   46.1700 N   0  0  0  0  0  0  0  0  0  0  0  0
   56.0730   23.2300   46.5980 C   0  0  0  0  0  0  0  0  0  0  0  0
   57.0270   22.5410   47.0460 O   0  0  0  0  0  0  0  0  0  0  0  0
   57.4990   27.7210   46.7980 C   0  0  0  0  0  0  0  0  0  0  0  0
   58.1620   28.5880   45.9490 C   0  0  0  0  0  0  0  0  0  0  0  0
   58.0280   30.0610   45.9980 C   0  0  0  0  0  0  0  0  0  0  0  0
   57.0740   30.5950   45.3670 O   0  0  0  0  0  0  0  0  0  0  0  0
   59.0440   30.8950   46.6100 N   0  0  0  0  0  0  0  0  0  0  0  0
   58.8920   30.9000   48.0880 C   0  0  0  0  0  0  0  0  0  0  0  0
   59.5400   32.1460   48.7040 C   0  0  0  0  0  0  0  0  0  0  0  0
   58.8690   33.3900   48.2480 N   0  0  0  0  0  0  0  0  0  0  0  0
   59.7710   34.5580   48.3480 C   0  0  0  0  0  0  0  0  0  0  0  0
   61.2130   34.1370   48.2190 C   0  0  0  0  0  0  0  0  0  0  0  0
   61.7420   33.8260   46.9560 C   0  0  0  0  0  0  0  0  0  0  0  0
   63.0860   33.4590   46.8280 C   0  0  0  0  0  0  0  0  0  0  0  0
   63.9080   33.4060   47.9570 C   0  0  0  0  0  0  0  0  0  0  0  0
   63.3900   33.7210   49.2160 C   0  0  0  0  0  0  0  0  0  0  0  0
   62.0460   34.0880   49.3480 C   0  0  0  0  0  0  0  0  0  0  0  0
   58.2760   33.2730   46.8910 C   0  0  0  0  0  0  0  0  0  0  0  0
   59.0250   32.2570   46.0110 C   0  0  0  0  0  0  0  0  0  0  0  0
  1  2  2  0
  2  3  1  0
  3  4  1  0
  4  5  2  3
  5  6  1  0
  6  7  2  0
  7  8  1  0
  7  9  1  0
  9 10  1  0
 10 11  2  0
 10 12  1  0
 12 13  1  0
 13 14  2  0
  4 15  1  0
 15 16  2  0
 16 17  1  0
 17 18  2  0
 17 19  1  0
 19 20  1  0
 20 21  1  0
 21 22  1  0
 22 23  1  0
 23 24  1  0
 24 25  2  0
 25 26  1  0
 26 27  2  0
 27 28  1  0
 28 29  2  0
 22 30  1  0
 30 31  1  0
 16  2  1  0
 31 19  1  0
 13  6  1  0
 29 24  1  0
M  CHG  4   8  -1   9  -1  12  -1  19   1
M  END
>  <UniqueID>  (1988) 
25

>  <SMILES>  (1988) 
C=c1[nH]c(=Cc2c([O-])[n-]c(=O)[n-]c2=O)cc1C(=O)[NH+]1CCN(Cc2ccccc2)CC1

>  <Energy>  (1988) 
110.9848653793164

>  <Genealogy>  (1988) 
C=c1[nH]c(=Cc2c([O-])[n-]c(=O)[n-]c2=O)cc1C(=O)[NH+]1CCN(Cc2ccccc2)CC1 (protonated)
C=c1[nH]c(=Cc2c([O-])[n-]c(=O)[n-]c2=O)cc1C(=O)[NH+]1CCN(Cc2ccccc2)CC1 (3D coordinates assigned)
C=c1[nH]c(=Cc2c([O-])[n-]c(=O)[n-]c2=O)cc1C(=O)[NH+]1CCN(Cc2ccccc2)CC1 (nonaromatic ring conformer: 110.9848653793164 kcal/mol)

>  <smiles>  (1988) 
C=c1[nH]c(=Cc2c(O)[nH]c(=O)[nH]c2=O)cc1C(=O)N1CCN(Cc2ccccc2)CC1

>  <score_type>  (1988) 
oracle

>  <origin>  (1988) 
adg

>  <m_score__min__energy>  (1988) 
-15.34

>  <m_primary>  (1988) 
energy

$$$$
32:0
     RDKit          3D

 30 33  0  0  0  0  0  0  0  0999 V2000
   57.8100   27.1460   43.1940 C   0  0  0  0  0  0  0  0  0  0  0  0
   57.9500   27.1280   44.5310 C   0  0  0  0  0  0  0  0  0  0  0  0
   57.5950   26.0760   45.3850 C   0  0  0  0  0  0  0  0  0  0  0  0
   57.0440   24.8960   45.0320 C   0  0  0  0  0  0  0  0  0  0  0  0
   55.6160   24.5420   45.1740 C   0  0  0  0  0  0  0  0  0  0  0  0
   55.0830   23.3220   44.9720 N   0  0  0  0  0  0  0  0  0  0  0  0
   53.7870   23.4830   45.3100 C   0  0  0  0  0  0  0  0  0  0  0  0
   52.9480   22.5460   45.2470 O   0  0  0  0  0  0  0  0  0  0  0  0
   53.4600   24.7240   45.7290 N   0  0  0  0  0  0  0  0  0  0  0  0
   54.6290   25.3780   45.6430 C   0  0  0  0  0  0  0  0  0  0  0  0
   54.7940   26.7110   45.9950 O   0  0  0  0  0  0  0  0  0  0  0  0
   57.9260   26.4940   46.6680 C   0  0  0  0  0  0  0  0  0  0  0  0
   58.4390   27.7690   46.5520 C   0  0  0  0  0  0  0  0  0  0  0  0
   58.9960   28.5560   47.7010 C   0  0  0  0  0  0  0  0  0  0  0  0
   58.4520   28.1620   45.2560 N   0  0  0  0  0  0  0  0  0  0  0  0
   58.9010   29.4690   44.7520 C   0  0  0  0  0  0  0  0  0  0  0  0
   57.7200   30.4110   44.4650 C   0  0  0  0  0  0  0  0  0  0  0  0
   57.4680   31.3140   45.5950 N   0  0  0  0  0  0  0  0  0  0  0  0
   57.8560   32.5330   45.8770 C   0  0  0  0  0  0  0  0  0  0  0  0
   57.6580   33.4800   44.8610 C   0  0  0  0  0  0  0  0  0  0  0  0
   58.3580   34.6830   44.8740 C   0  0  0  0  0  0  0  0  0  0  0  0
   59.2040   34.9660   45.8940 N   0  0  0  0  0  0  0  0  0  0  0  0
   59.3370   34.1420   46.9640 C   0  0  0  0  0  0  0  0  0  0  0  0
   60.1690   34.5270   48.0210 C   0  0  0  0  0  0  0  0  0  0  0  0
   60.2010   33.7890   49.2050 C   0  0  0  0  0  0  0  0  0  0  0  0
   61.0690   34.2020   50.2260 O   0  0  0  0  0  0  0  0  0  0  0  0
   62.4880   34.2250   50.1130 C   0  0  0  0  0  0  0  0  0  0  0  0
   59.3470   32.6830   49.3420 C   0  0  0  0  0  0  0  0  0  0  0  0
   58.5320   32.2800   48.2790 C   0  0  0  0  0  0  0  0  0  0  0  0
   58.5960   32.9320   47.0310 C   0  0  0  0  0  0  0  0  0  0  0  0
  1  2  2  0
  2  3  1  0
  3  4  2  0
  4  5  1  0
  5  6  1  0
  6  7  1  0
  7  8  2  0
  7  9  1  0
  9 10  1  0
 10 11  1  0
  3 12  1  0
 12 13  2  0
 13 14  1  0
 13 15  1  0
 15 16  1  0
 16 17  1  0
 17 18  1  0
 18 19  2  3
 19 20  1  0
 20 21  2  0
 21 22  1  0
 22 23  1  0
 23 24  2  0
 24 25  1  0
 25 26  1  0
 26 27  1  0
 25 28  2  0
 28 29  1  0
 29 30  2  0
 15  2  1  0
 30 19  1  0
 10  5  2  0
 30 23  1  0
M  CHG  4   6  -1   9  -1  11  -1  22  -1
M  END
>  <UniqueID>  (1989) 
28

>  <SMILES>  (1989) 
C=c1/c(=C/c2[n-]c(=O)[n-]c2[O-])cc(C)n1CCN=c1cc[n-]c2cc(OC)ccc12

>  <Energy>  (1989) 
130.33535912057775

>  <Genealogy>  (1989) 
C=c1c(=Cc2[n-]c(=O)[n-]c2[O-])cc(C)n1CCN=c1cc[n-]c2cc(OC)ccc12 (protonated)
C=c1/c(=C/c2[n-]c(=O)[n-]c2[O-])cc(C)n1CCN=c1cc[n-]c2cc(OC)ccc12 (cis-trans isomerization)
C=c1/c(=C/c2[n-]c(=O)[n-]c2[O-])cc(C)n1CCN=c1cc[n-]c2cc(OC)ccc12 (3D coordinates assigned)
C=c1/c(=C/c2[n-]c(=O)[n-]c2[O-])cc(C)n1CCN=c1cc[n-]c2cc(OC)ccc12 (optimized conformer: 130.33535912057775 kcal/mol)

>  <smiles>  (1989) 
C=c1c(=Cc2[nH]c(=O)[nH]c2O)cc(C)n1CCN=c1cc[nH]c2cc(OC)ccc12

>  <score_type>  (1989) 
oracle

>  <origin>  (1989) 
adg

>  <m_score__min__energy>  (1989) 
-17.329999999999998

>  <m_primary>  (1989) 
energy

$$$$
36:0
     RDKit          3D

 32 35  0  0  0  0  0  0  0  0999 V2000
   56.2460   32.1620   52.2830 C   0  0  0  0  0  0  0  0  0  0  0  0
   55.8250   30.9020   52.4670 C   0  0  0  0  0  0  0  0  0  0  0  0
   54.5050   30.4280   52.5180 C   0  0  0  0  0  0  0  0  0  0  0  0
   53.3460   31.0430   52.2170 C   0  0  0  0  0  0  0  0  0  0  0  0
   52.5940   30.8980   50.9600 C   0  0  0  0  0  0  0  0  0  0  0  0
   52.7390   29.8770   50.0940 N   0  0  0  0  0  0  0  0  0  0  0  0
   51.7580   30.0940   49.1910 C   0  0  0  0  0  0  0  0  0  0  0  0
   51.5750   29.3470   48.1960 O   0  0  0  0  0  0  0  0  0  0  0  0
   50.9810   31.1690   49.4450 N   0  0  0  0  0  0  0  0  0  0  0  0
   51.5150   31.6560   50.5760 C   0  0  0  0  0  0  0  0  0  0  0  0
   51.0240   32.7690   51.2470 O   0  0  0  0  0  0  0  0  0  0  0  0
   54.5170   29.1380   52.9190 N   0  0  0  0  0  0  0  0  0  0  0  0
   55.8230   28.8400   53.0560 C   0  0  0  0  0  0  0  0  0  0  0  0
   56.2270   27.6970   53.4020 O   0  0  0  0  0  0  0  0  0  0  0  0
   56.6460   29.8740   52.7910 N   0  0  0  0  0  0  0  0  0  0  0  0
   58.1120   29.8520   52.8480 C   0  0  0  0  0  0  0  0  0  0  0  0
   58.6960   29.7880   51.4340 C   0  0  0  0  0  0  0  0  0  0  0  0
   59.2540   31.1270   51.0280 C   0  0  0  0  0  0  0  0  0  0  0  0
   60.0240   31.8670   51.9380 C   0  0  0  0  0  0  0  0  0  0  0  0
   60.5180   33.1210   51.5840 C   0  0  0  0  0  0  0  0  0  0  0  0
   60.2400   33.6580   50.3250 C   0  0  0  0  0  0  0  0  0  0  0  0
   59.4530   32.9440   49.4020 C   0  0  0  0  0  0  0  0  0  0  0  0
   59.1570   33.5100   48.0590 C   0  0  0  0  0  0  0  0  0  0  0  0
   59.5890   34.6630   47.7740 O   0  0  0  0  0  0  0  0  0  0  0  0
   58.3640   32.7810   47.0870 N   0  0  0  0  0  0  0  0  0  0  0  0
   59.1990   31.8050   46.3610 C   0  0  0  0  0  0  0  0  0  0  0  0
   58.3530   31.0370   45.3160 C   0  0  0  0  0  0  0  0  0  0  0  0
   57.0600   31.5920   45.1500 O   0  0  0  0  0  0  0  0  0  0  0  0
   57.1630   32.9800   44.9070 C   0  0  0  0  0  0  0  0  0  0  0  0
   57.7210   33.7190   46.1410 C   0  0  0  0  0  0  0  0  0  0  0  0
   58.9610   31.6720   49.7640 C   0  0  0  0  0  0  0  0  0  0  0  0
   58.1740   30.9760   48.9020 F   0  0  0  0  0  0  0  0  0  0  0  0
  1  2  2  0
  2  3  1  0
  3  4  2  3
  4  5  1  0
  5  6  1  0
  6  7  1  0
  7  8  2  0
  7  9  1  0
  9 10  1  0
 10 11  1  0
  3 12  1  0
 12 13  1  0
 13 14  2  0
 13 15  1  0
 15 16  1  0
 16 17  1  0
 17 18  1  0
 18 19  2  0
 19 20  1  0
 20 21  2  0
 21 22  1  0
 22 23  1  0
 23 24  2  0
 23 25  1  0
 25 26  1  0
 26 27  1  0
 27 28  1  0
 28 29  1  0
 29 30  1  0
 22 31  2  0
 31 32  1  0
 15  2  1  0
 31 18  1  0
 10  5  2  0
 30 25  1  0
M  CHG  5   6  -1   9  -1  11  -1  12  -1  25   1
M  END
>  <UniqueID>  (1990) 
32

>  <SMILES>  (1990) 
C=c1c(=Cc2[n-]c(=O)[n-]c2[O-])[n-]c(=O)n1CCc1cccc(C(=O)[NH+]2CCOCC2)c1F

>  <Energy>  (1990) 
140.08255613423256

>  <Genealogy>  (1990) 
C=c1c(=Cc2[n-]c(=O)[n-]c2[O-])[n-]c(=O)n1CCc1cccc(C(=O)[NH+]2CCOCC2)c1F (protonated)
C=c1c(=Cc2[n-]c(=O)[n-]c2[O-])[n-]c(=O)n1CCc1cccc(C(=O)[NH+]2CCOCC2)c1F (3D coordinates assigned)
C=c1c(=Cc2[n-]c(=O)[n-]c2[O-])[n-]c(=O)n1CCc1cccc(C(=O)[NH+]2CCOCC2)c1F (nonaromatic ring conformer: 140.08255613423256 kcal/mol)

>  <smiles>  (1990) 
C=c1c(=Cc2[nH]c(=O)[nH]c2O)[nH]c(=O)n1CCc1cccc(C(=O)N2CCOCC2)c1F

>  <score_type>  (1990) 
oracle

>  <origin>  (1990) 
adg

>  <m_score__min__energy>  (1990) 
-17.629999999999999

>  <m_primary>  (1990) 
energy

$$$$
43:0
     RDKit          3D

 32 35  0  0  0  0  0  0  0  0999 V2000
   59.3020   24.7760   45.9930 C   0  0  0  0  0  0  0  0  0  0  0  0
   58.0120   25.0410   45.7330 C   0  0  0  0  0  0  0  0  0  0  0  0
   57.0140   24.1160   45.3790 C   0  0  0  0  0  0  0  0  0  0  0  0
   57.1010   22.8320   44.9820 C   0  0  0  0  0  0  0  0  0  0  0  0
   56.9850   21.6570   45.8630 C   0  0  0  0  0  0  0  0  0  0  0  0
   57.4470   21.6050   47.1260 N   0  0  0  0  0  0  0  0  0  0  0  0
   57.2460   20.3170   47.4790 C   0  0  0  0  0  0  0  0  0  0  0  0
   57.5440   19.8720   48.6180 O   0  0  0  0  0  0  0  0  0  0  0  0
   56.7100   19.5420   46.5130 N   0  0  0  0  0  0  0  0  0  0  0  0
   56.5630   20.3990   45.4910 C   0  0  0  0  0  0  0  0  0  0  0  0
   56.0520   20.0320   44.2490 O   0  0  0  0  0  0  0  0  0  0  0  0
   55.8040   24.7840   45.4920 C   0  0  0  0  0  0  0  0  0  0  0  0
   56.1090   26.0800   45.8340 C   0  0  0  0  0  0  0  0  0  0  0  0
   55.1720   27.0940   45.9990 O   0  0  0  0  0  0  0  0  0  0  0  0
   57.4390   26.2510   45.9690 N   0  0  0  0  0  0  0  0  0  0  0  0
   58.0860   27.4860   46.3260 C   0  0  0  0  0  0  0  0  0  0  0  0
   58.2910   28.4840   45.3620 C   0  0  0  0  0  0  0  0  0  0  0  0
   58.9300   29.6780   45.7060 C   0  0  0  0  0  0  0  0  0  0  0  0
   59.3920   29.8840   47.0150 C   0  0  0  0  0  0  0  0  0  0  0  0
   60.0470   31.1580   47.3770 C   0  0  0  0  0  0  0  0  0  0  0  0
   60.7990   31.7120   46.5300 O   0  0  0  0  0  0  0  0  0  0  0  0
   59.8490   31.7720   48.6680 N   0  0  0  0  0  0  0  0  0  0  0  0
   60.4020   31.1380   49.8720 C   0  0  0  0  0  0  0  0  0  0  0  0
   59.2360   33.1030   48.7600 C   0  0  0  0  0  0  0  0  0  0  0  0
   58.8320   33.6050   47.3960 C   0  0  0  0  0  0  0  0  0  0  0  0
   59.6540   34.5040   46.6950 C   0  0  0  0  0  0  0  0  0  0  0  0
   59.2670   34.9790   45.4380 C   0  0  0  0  0  0  0  0  0  0  0  0
   58.0600   34.5620   44.8720 C   0  0  0  0  0  0  0  0  0  0  0  0
   57.2380   33.6680   45.5620 C   0  0  0  0  0  0  0  0  0  0  0  0
   57.6200   33.1900   46.8190 C   0  0  0  0  0  0  0  0  0  0  0  0
   59.1750   28.8900   47.9830 C   0  0  0  0  0  0  0  0  0  0  0  0
   58.5360   27.6970   47.6390 C   0  0  0  0  0  0  0  0  0  0  0  0
  1  2  2  0
  2  3  1  0
  3  4  2  3
  4  5  1  0
  5  6  1  0
  6  7  1  0
  7  8  2  0
  7  9  1  0
  9 10  1  0
 10 11  1  0
  3 12  1  0
 12 13  2  0
 13 14  1  0
 13 15  1  0
 15 16  1  0
 16 17  2  0
 17 18  1  0
 18 19  2  0
 19 20  1  0
 20 21  2  0
 20 22  1  0
 22 23  1  0
 22 24  1  0
 24 25  1  0
 25 26  2  0
 26 27  1  0
 27 28  2  0
 28 29  1  0
 29 30  2  0
 19 31  1  0
 31 32  2  0
 15  2  1  0
 32 16  1  0
 10  5  2  0
 30 25  1  0
M  CHG  3   6  -1   9  -1  14  -1
M  END
>  <UniqueID>  (1991) 
39

>  <SMILES>  (1991) 
C=c1c(=Cc2[n-]c(=O)[n-]c2O)cc([O-])n1-c1ccc(C(=O)N(C)Cc2ccccc2)cc1

>  <Energy>  (1991) 
134.60087745189028

>  <Genealogy>  (1991) 
C=c1c(=Cc2[n-]c(=O)[n-]c2O)cc([O-])n1-c1ccc(C(=O)N(C)Cc2ccccc2)cc1 (protonated)
C=c1c(=Cc2[n-]c(=O)[n-]c2O)cc([O-])n1-c1ccc(C(=O)N(C)Cc2ccccc2)cc1 (3D coordinates assigned)
C=c1c(=Cc2[n-]c(=O)[n-]c2O)cc([O-])n1-c1ccc(C(=O)N(C)Cc2ccccc2)cc1 (optimized conformer: 134.60087745189028 kcal/mol)

>  <smiles>  (1991) 
C=c1c(=Cc2[nH]c(=O)[nH]c2O)cc(O)n1-c1ccc(C(=O)N(C)Cc2ccccc2)cc1

>  <score_type>  (1991) 
oracle

>  <origin>  (1991) 
adg

>  <m_score__min__energy>  (1991) 
-15.32

>  <m_primary>  (1991) 
energy

$$$$
46:0
     RDKit          3D

 37 41  0  0  0  0  0  0  0  0999 V2000
   59.3620   29.6030   48.0300 C   0  0  0  0  0  0  0  0  0  0  0  0
   58.7200   30.4360   47.1950 C   0  0  0  0  0  0  0  0  0  0  0  0
   58.3110   30.1420   45.8950 C   0  0  0  0  0  0  0  0  0  0  0  0
   58.4050   28.9650   45.2490 C   0  0  0  0  0  0  0  0  0  0  0  0
   57.6400   27.7740   45.6670 C   0  0  0  0  0  0  0  0  0  0  0  0
   56.2390   27.7670   45.6170 C   0  0  0  0  0  0  0  0  0  0  0  0
   55.5390   28.8860   45.1830 O   0  0  0  0  0  0  0  0  0  0  0  0
   55.5530   26.6510   45.9740 N   0  0  0  0  0  0  0  0  0  0  0  0
   56.2010   25.5320   46.3900 C   0  0  0  0  0  0  0  0  0  0  0  0
   55.5460   24.4980   46.6900 O   0  0  0  0  0  0  0  0  0  0  0  0
   57.5570   25.5190   46.4630 N   0  0  0  0  0  0  0  0  0  0  0  0
   58.2890   26.6110   46.1140 C   0  0  0  0  0  0  0  0  0  0  0  0
   59.5460   26.5640   46.2010 O   0  0  0  0  0  0  0  0  0  0  0  0
   57.7930   31.3170   45.3720 C   0  0  0  0  0  0  0  0  0  0  0  0
   57.8780   32.2680   46.3670 C   0  0  0  0  0  0  0  0  0  0  0  0
   57.6940   33.7340   46.1190 C   0  0  0  0  0  0  0  0  0  0  0  0
   58.4270   31.7310   47.4860 N   0  0  0  0  0  0  0  0  0  0  0  0
   58.8450   32.4770   48.6470 C   0  0  0  0  0  0  0  0  0  0  0  0
   58.2060   32.2240   49.8760 C   0  0  0  0  0  0  0  0  0  0  0  0
   58.6540   32.8300   51.0500 C   0  0  0  0  0  0  0  0  0  0  0  0
   59.7690   33.6640   51.0180 C   0  0  0  0  0  0  0  0  0  0  0  0
   60.4140   33.9260   49.8090 C   0  0  0  0  0  0  0  0  0  0  0  0
   59.9370   33.3800   48.6060 C   0  0  0  0  0  0  0  0  0  0  0  0
   60.6550   33.7350   47.3560 C   0  0  0  0  0  0  0  0  0  0  0  0
   60.3060   34.8070   46.7870 O   0  0  0  0  0  0  0  0  0  0  0  0
   61.6920   32.9140   46.7360 N   0  0  1  0  0  0  0  0  0  0  0  0
   63.0070   33.5660   46.5310 C   0  0  0  0  0  0  0  0  0  0  0  0
   63.7820   33.8020   47.8380 C   0  0  0  0  0  0  0  0  0  0  0  0
   63.9340   32.4890   48.6330 C   0  0  1  0  0  0  0  0  0  0  0  0
   64.6220   32.6510   49.9420 N   0  0  0  0  0  0  0  0  0  0  0  0
   66.0940   32.7000   49.7980 C   0  0  0  0  0  0  0  0  0  0  0  0
   66.7670   33.3780   51.0080 C   0  0  0  0  0  0  0  0  0  0  0  0
   66.0670   33.0720   52.1960 O   0  0  0  0  0  0  0  0  0  0  0  0
   64.7690   33.6540   52.1920 C   0  0  0  0  0  0  0  0  0  0  0  0
   64.1210   33.7460   50.7930 C   0  0  0  0  0  0  0  0  0  0  0  0
   62.5650   31.8150   48.8120 C   0  0  0  0  0  0  0  0  0  0  0  0
   61.8700   31.6290   47.4520 C   0  0  0  0  0  0  0  0  0  0  0  0
  1  2  2  0
  2  3  1  0
  3  4  2  0
  4  5  1  0
  5  6  2  0
  6  7  1  0
  6  8  1  0
  8  9  1  0
  9 10  2  0
  9 11  1  0
 11 12  1  0
 12 13  2  0
  3 14  1  0
 14 15  2  0
 15 16  1  0
 15 17  1  0
 17 18  1  0
 18 19  2  0
 19 20  1  0
 20 21  2  0
 21 22  1  0
 22 23  2  0
 23 24  1  0
 24 25  2  0
 26 24  1  1
 26 27  1  0
 27 28  1  0
 28 29  1  0
 29 30  1  1
 30 31  1  0
 31 32  1  0
 32 33  1  0
 33 34  1  0
 34 35  1  0
 29 36  1  0
 36 37  1  0
 17  2  1  0
 23 18  1  0
 37 26  1  0
 12  5  1  0
 35 30  1  0
M  CHG  4   7  -1   8  -1  11  -1  26   1
M  END
>  <UniqueID>  (1992) 
41

>  <SMILES>  (1992) 
C=c1/c(=C/c2c([O-])[n-]c(=O)[n-]c2=O)cc(C)n1-c1ccccc1C(=O)[NH+]1CCC(N2CCOCC2)CC1

>  <Energy>  (1992) 
145.54765698958437

>  <Genealogy>  (1992) 
C=c1c(=Cc2c([O-])[n-]c(=O)[n-]c2=O)cc(C)n1-c1ccccc1C(=O)[NH+]1CCC(N2CCOCC2)CC1 (protonated)
C=c1/c(=C/c2c([O-])[n-]c(=O)[n-]c2=O)cc(C)n1-c1ccccc1C(=O)[NH+]1CCC(N2CCOCC2)CC1 (cis-trans isomerization)
C=c1/c(=C/c2c([O-])[n-]c(=O)[n-]c2=O)cc(C)n1-c1ccccc1C(=O)[NH+]1CCC(N2CCOCC2)CC1 (3D coordinates assigned)
C=c1/c(=C/c2c([O-])[n-]c(=O)[n-]c2=O)cc(C)n1-c1ccccc1C(=O)[NH+]1CCC(N2CCOCC2)CC1 (nonaromatic ring conformer: 145.54765698958437 kcal/mol)

>  <smiles>  (1992) 
C=c1c(=Cc2c(O)[nH]c(=O)[nH]c2=O)cc(C)n1-c1ccccc1C(=O)N1CCC(N2CCOCC2)CC1

>  <score_type>  (1992) 
oracle

>  <origin>  (1992) 
adg

>  <m_score__min__energy>  (1992) 
-16.370000000000001

>  <m_primary>  (1992) 
energy

$$$$
54:0
     RDKit          3D

 33 36  0  0  0  0  0  0  0  0999 V2000
   59.6500   29.3180   45.0200 C   0  0  0  0  0  0  0  0  0  0  0  0
   59.6080   28.9560   46.3120 C   0  0  0  0  0  0  0  0  0  0  0  0
   59.2870   27.6900   46.8270 C   0  0  0  0  0  0  0  0  0  0  0  0
   58.7480   26.6060   46.2380 C   0  0  0  0  0  0  0  0  0  0  0  0
   57.3250   26.2330   46.2750 C   0  0  0  0  0  0  0  0  0  0  0  0
   56.8720   24.9810   46.4780 N   0  0  0  0  0  0  0  0  0  0  0  0
   55.5400   25.0970   46.2900 C   0  0  0  0  0  0  0  0  0  0  0  0
   54.7520   24.1230   46.4090 O   0  0  0  0  0  0  0  0  0  0  0  0
   55.1190   26.3350   45.9570 N   0  0  0  0  0  0  0  0  0  0  0  0
   56.2620   27.0420   45.9380 C   0  0  0  0  0  0  0  0  0  0  0  0
   56.3220   28.3950   45.6190 O   0  0  0  0  0  0  0  0  0  0  0  0
   59.6200   27.7260   48.1710 C   0  0  0  0  0  0  0  0  0  0  0  0
   60.0560   29.0060   48.4460 C   0  0  0  0  0  0  0  0  0  0  0  0
   60.4750   29.4670   49.7850 C   0  0  0  0  0  0  0  0  0  0  0  0
   61.6480   29.8870   49.9780 O   0  0  0  0  0  0  0  0  0  0  0  0
   59.5520   29.4450   50.8370 O   0  0  0  0  0  0  0  0  0  0  0  0
   58.3220   30.1660   50.8130 C   0  0  0  0  0  0  0  0  0  0  0  0
   58.5430   31.5900   51.2440 C   0  0  0  0  0  0  0  0  0  0  0  0
   59.3670   32.4340   50.4790 C   0  0  0  0  0  0  0  0  0  0  0  0
   59.5530   33.7670   50.8570 C   0  0  0  0  0  0  0  0  0  0  0  0
   58.9150   34.2680   51.9960 C   0  0  0  0  0  0  0  0  0  0  0  0
   58.0900   33.4370   52.7580 C   0  0  0  0  0  0  0  0  0  0  0  0
   57.9020   32.1030   52.3850 C   0  0  0  0  0  0  0  0  0  0  0  0
   60.0350   29.7570   47.3210 N   0  0  0  0  0  0  0  0  0  0  0  0
   60.5390   31.0990   47.1890 C   0  0  0  0  0  0  0  0  0  0  0  0
   61.9240   31.3080   47.2860 C   0  0  0  0  0  0  0  0  0  0  0  0
   62.4610   32.5840   47.1250 C   0  0  0  0  0  0  0  0  0  0  0  0
   61.6220   33.6660   46.8610 C   0  0  0  0  0  0  0  0  0  0  0  0
   60.2410   33.4740   46.7640 C   0  0  0  0  0  0  0  0  0  0  0  0
   59.6770   32.1960   46.9320 C   0  0  0  0  0  0  0  0  0  0  0  0
   58.2010   32.0470   46.8490 C   0  0  0  0  0  0  0  0  0  0  0  0
   57.4320   32.7980   47.5060 O   0  0  0  0  0  0  0  0  0  0  0  0
   57.6410   31.0830   46.0180 O   0  0  0  0  0  0  0  0  0  0  0  0
  1  2  2  0
  2  3  1  0
  3  4  2  3
  4  5  1  0
  5  6  1  0
  6  7  1  0
  7  8  2  0
  7  9  1  0
  9 10  1  0
 10 11  1  0
  3 12  1  0
 12 13  2  0
 13 14  1  0
 14 15  2  0
 14 16  1  0
 16 17  1  0
 17 18  1  0
 18 19  2  0
 19 20  1  0
 20 21  2  0
 21 22  1  0
 22 23  2  0
 13 24  1  0
 24 25  1  0
 25 26  2  0
 26 27  1  0
 27 28  2  0
 28 29  1  0
 29 30  2  0
 30 31  1  0
 31 32  2  0
 31 33  1  0
 24  2  1  0
 30 25  1  0
 10  5  2  0
 23 18  1  0
M  CHG  3   6  -1   9  -1  33  -1
M  END
>  <UniqueID>  (1993) 
49

>  <SMILES>  (1993) 
C=c1c(=Cc2[n-]c(=O)[n-]c2O)cc(C(=O)OCc2ccccc2)n1-c1ccccc1C(=O)[O-]

>  <Energy>  (1993) 
129.91464591888823

>  <Genealogy>  (1993) 
C=c1c(=Cc2[n-]c(=O)[n-]c2O)cc(C(=O)OCc2ccccc2)n1-c1ccccc1C(=O)[O-] (protonated)
C=c1c(=Cc2[n-]c(=O)[n-]c2O)cc(C(=O)OCc2ccccc2)n1-c1ccccc1C(=O)[O-] (3D coordinates assigned)
C=c1c(=Cc2[n-]c(=O)[n-]c2O)cc(C(=O)OCc2ccccc2)n1-c1ccccc1C(=O)[O-] (optimized conformer: 129.91464591888823 kcal/mol)

>  <smiles>  (1993) 
C=c1c(=Cc2[nH]c(=O)[nH]c2O)cc(C(=O)OCc2ccccc2)n1-c1ccccc1C(=O)O

>  <score_type>  (1993) 
oracle

>  <origin>  (1993) 
adg

>  <m_score__min__energy>  (1993) 
-14.470000000000001

>  <m_primary>  (1993) 
energy

$$$$
55:0
     RDKit          3D

 33 37  0  0  0  0  0  0  0  0999 V2000
   58.9610   27.7030   47.1550 C   0  0  0  0  0  0  0  0  0  0  0  0
   58.6300   28.1660   45.9390 C   0  0  0  0  0  0  0  0  0  0  0  0
   58.0140   27.4500   44.8990 C   0  0  0  0  0  0  0  0  0  0  0  0
   57.7870   26.1310   44.7480 C   0  0  0  0  0  0  0  0  0  0  0  0
   57.1610   25.2490   45.7440 C   0  0  0  0  0  0  0  0  0  0  0  0
   57.8160   24.2590   46.3750 N   0  0  0  0  0  0  0  0  0  0  0  0
   56.9110   23.8060   47.2700 C   0  0  0  0  0  0  0  0  0  0  0  0
   57.1510   22.8500   48.0530 O   0  0  0  0  0  0  0  0  0  0  0  0
   55.7330   24.4670   47.2700 N   0  0  0  0  0  0  0  0  0  0  0  0
   55.9130   25.3880   46.3080 C   0  0  0  0  0  0  0  0  0  0  0  0
   54.9680   26.3510   45.9690 O   0  0  0  0  0  0  0  0  0  0  0  0
   57.6480   28.3880   43.9480 C   0  0  0  0  0  0  0  0  0  0  0  0
   58.1060   29.6100   44.3920 C   0  0  0  0  0  0  0  0  0  0  0  0
   57.9400   30.9020   43.6490 C   0  0  0  0  0  0  0  0  0  0  0  0
   58.7020   29.4790   45.5990 N   0  0  0  0  0  0  0  0  0  0  0  0
   59.2750   30.5470   46.3750 C   0  0  0  0  0  0  0  0  0  0  0  0
   58.5330   31.7080   46.6300 C   0  0  0  0  0  0  0  0  0  0  0  0
   59.0860   32.7460   47.3840 C   0  0  0  0  0  0  0  0  0  0  0  0
   60.3930   32.6430   47.8890 C   0  0  0  0  0  0  0  0  0  0  0  0
   60.9800   33.7400   48.6950 C   0  0  0  0  0  0  0  0  0  0  0  0
   60.5520   34.9180   48.5500 O   0  0  0  0  0  0  0  0  0  0  0  0
   62.0430   33.4860   49.6280 N   0  0  0  0  0  0  0  0  0  0  0  0
   61.7580   33.4600   51.0630 C   0  0  0  0  0  0  0  0  0  0  0  0
   62.8790   34.1740   51.8140 C   0  0  0  0  0  0  0  0  0  0  0  0
   64.2430   33.7130   51.3630 C   0  0  0  0  0  0  0  0  0  0  0  0
   65.3510   33.9410   52.1950 C   0  0  0  0  0  0  0  0  0  0  0  0
   66.6340   33.5800   51.7790 C   0  0  0  0  0  0  0  0  0  0  0  0
   66.8260   33.0000   50.5240 C   0  0  0  0  0  0  0  0  0  0  0  0
   65.7360   32.7810   49.6790 C   0  0  0  0  0  0  0  0  0  0  0  0
   64.4410   33.1460   50.0810 C   0  0  0  0  0  0  0  0  0  0  0  0
   63.2820   32.8550   49.1590 C   0  0  0  0  0  0  0  0  0  0  0  0
   61.1290   31.4700   47.6430 C   0  0  0  0  0  0  0  0  0  0  0  0
   60.5750   30.4330   46.8880 C   0  0  0  0  0  0  0  0  0  0  0  0
  1  2  2  0
  2  3  1  0
  3  4  2  3
  4  5  1  0
  5  6  1  0
  6  7  1  0
  7  8  2  0
  7  9  1  0
  9 10  1  0
 10 11  1  0
  3 12  1  0
 12 13  2  0
 13 14  1  0
 13 15  1  0
 15 16  1  0
 16 17  2  0
 17 18  1  0
 18 19  2  0
 19 20  1  0
 20 21  2  0
 20 22  1  0
 22 23  1  0
 23 24  1  0
 24 25  1  0
 25 26  2  0
 26 27  1  0
 27 28  2  0
 28 29  1  0
 29 30  2  0
 30 31  1  0
 19 32  1  0
 32 33  2  0
 15  2  1  0
 33 16  1  0
 10  5  2  0
 31 22  1  0
 30 25  1  0
M  CHG  2   6  -1   9  -1
M  END
>  <UniqueID>  (1994) 
50

>  <SMILES>  (1994) 
C=c1c(=Cc2[n-]c(=O)[n-]c2O)cc(C)n1-c1ccc(C(=O)N2CCc3ccccc3C2)cc1

>  <Energy>  (1994) 
141.6587184337939

>  <Genealogy>  (1994) 
C=c1c(=Cc2[n-]c(=O)[n-]c2O)cc(C)n1-c1ccc(C(=O)N2CCc3ccccc3C2)cc1 (protonated)
C=c1c(=Cc2[n-]c(=O)[n-]c2O)cc(C)n1-c1ccc(C(=O)N2CCc3ccccc3C2)cc1 (3D coordinates assigned)
C=c1c(=Cc2[n-]c(=O)[n-]c2O)cc(C)n1-c1ccc(C(=O)N2CCc3ccccc3C2)cc1 (nonaromatic ring conformer: 141.6587184337939 kcal/mol)

>  <smiles>  (1994) 
C=c1c(=Cc2[nH]c(=O)[nH]c2O)cc(C)n1-c1ccc(C(=O)N2CCc3ccccc3C2)cc1

>  <score_type>  (1994) 
oracle

>  <origin>  (1994) 
adg

>  <m_score__min__energy>  (1994) 
-14.6

>  <m_primary>  (1994) 
energy

$$$$
56:0
     RDKit          3D

 32 35  0  0  0  0  0  0  0  0999 V2000
   54.5920   28.3450   52.8290 C   0  0  0  0  0  0  0  0  0  0  0  0
   55.0760   29.5790   52.6220 C   0  0  0  0  0  0  0  0  0  0  0  0
   54.3680   30.7070   52.1790 C   0  0  0  0  0  0  0  0  0  0  0  0
   53.1370   30.8230   51.6460 C   0  0  0  0  0  0  0  0  0  0  0  0
   52.0310   31.6130   52.2140 C   0  0  0  0  0  0  0  0  0  0  0  0
   51.6860   31.6260   53.5150 N   0  0  0  0  0  0  0  0  0  0  0  0
   50.5550   32.3650   53.5300 C   0  0  0  0  0  0  0  0  0  0  0  0
   49.9270   32.6210   54.5900 O   0  0  0  0  0  0  0  0  0  0  0  0
   50.1430   32.7970   52.3180 N   0  0  0  0  0  0  0  0  0  0  0  0
   51.0810   32.3000   51.4960 C   0  0  0  0  0  0  0  0  0  0  0  0
   51.0660   32.4630   50.1170 O   0  0  0  0  0  0  0  0  0  0  0  0
   55.2080   31.7930   52.3730 C   0  0  0  0  0  0  0  0  0  0  0  0
   56.4050   31.2940   52.8410 C   0  0  0  0  0  0  0  0  0  0  0  0
   57.5970   32.1250   53.2000 C   0  0  0  0  0  0  0  0  0  0  0  0
   56.3300   29.9520   52.9840 N   0  0  0  0  0  0  0  0  0  0  0  0
   57.3520   29.1140   53.5520 C   0  0  0  0  0  0  0  0  0  0  0  0
   57.1690   28.6150   54.8490 C   0  0  0  0  0  0  0  0  0  0  0  0
   58.0940   27.7360   55.4090 C   0  0  0  0  0  0  0  0  0  0  0  0
   59.2100   27.3280   54.6710 C   0  0  0  0  0  0  0  0  0  0  0  0
   60.1880   26.3890   55.2520 C   0  0  0  0  0  0  0  0  0  0  0  0
   61.1070   26.8650   55.9740 O   0  0  0  0  0  0  0  0  0  0  0  0
   60.1230   24.9540   55.0280 N   0  0  0  0  0  0  0  0  0  0  0  0
   58.8840   24.5460   54.3170 C   0  0  0  0  0  0  0  0  0  0  0  0
   59.1050   24.2970   52.8140 C   0  0  0  0  0  0  0  0  0  0  0  0
   60.1730   25.0770   52.3300 O   0  0  0  0  0  0  0  0  0  0  0  0
   61.3920   24.6010   52.8650 C   0  0  0  0  0  0  0  0  0  0  0  0
   61.3550   24.4200   54.4030 C   0  0  0  0  0  0  0  0  0  0  0  0
   59.4240   27.8520   53.3900 C   0  0  0  0  0  0  0  0  0  0  0  0
   58.5040   28.7470   52.8120 C   0  0  0  0  0  0  0  0  0  0  0  0
   58.7770   29.2860   51.4560 C   0  0  0  0  0  0  0  0  0  0  0  0
   57.8380   29.7560   50.7580 O   0  0  0  0  0  0  0  0  0  0  0  0
   60.0570   29.2560   50.9160 O   0  0  0  0  0  0  0  0  0  0  0  0
  1  2  2  0
  2  3  1  0
  3  4  2  3
  4  5  1  0
  5  6  1  0
  6  7  1  0
  7  8  2  0
  7  9  1  0
  9 10  1  0
 10 11  1  0
  3 12  1  0
 12 13  2  0
 13 14  1  0
 13 15  1  0
 15 16  1  0
 16 17  2  0
 17 18  1  0
 18 19  2  0
 19 20  1  0
 20 21  2  0
 20 22  1  0
 22 23  1  0
 23 24  1  0
 24 25  1  0
 25 26  1  0
 26 27  1  0
 19 28  1  0
 28 29  2  0
 29 30  1  0
 30 31  2  0
 30 32  1  0
 15  2  1  0
 29 16  1  0
 10  5  2  0
 27 22  1  0
M  CHG  5   6  -1   9  -1  11  -1  22   1  32  -1
M  END
>  <UniqueID>  (1995) 
51

>  <SMILES>  (1995) 
C=c1c(=Cc2[n-]c(=O)[n-]c2[O-])cc(C)n1-c1ccc(C(=O)[NH+]2CCOCC2)cc1C(=O)[O-]

>  <Energy>  (1995) 
153.30277347784352

>  <Genealogy>  (1995) 
C=c1c(=Cc2[n-]c(=O)[n-]c2[O-])cc(C)n1-c1ccc(C(=O)[NH+]2CCOCC2)cc1C(=O)[O-] (protonated)
C=c1c(=Cc2[n-]c(=O)[n-]c2[O-])cc(C)n1-c1ccc(C(=O)[NH+]2CCOCC2)cc1C(=O)[O-] (3D coordinates assigned)
C=c1c(=Cc2[n-]c(=O)[n-]c2[O-])cc(C)n1-c1ccc(C(=O)[NH+]2CCOCC2)cc1C(=O)[O-] (nonaromatic ring conformer: 153.30277347784352 kcal/mol)

>  <smiles>  (1995) 
C=c1c(=Cc2[nH]c(=O)[nH]c2O)cc(C)n1-c1ccc(C(=O)N2CCOCC2)cc1C(=O)O

>  <score_type>  (1995) 
oracle

>  <origin>  (1995) 
adg

>  <m_score__min__energy>  (1995) 
-16.260000000000002

>  <m_primary>  (1995) 
energy

$$$$
64:0
     RDKit          3D

 27 29  0  0  0  0  0  0  0  0999 V2000
   59.6110   28.1220   48.2310 C   0  0  0  0  0  0  0  0  0  0  0  0
   58.9080   29.2350   48.4620 C   0  0  0  0  0  0  0  0  0  0  0  0
   59.3750   30.5680   47.9620 C   0  0  0  0  0  0  0  0  0  0  0  0
   58.2860   31.2530   47.3490 O   0  0  0  0  0  0  0  0  0  0  0  0
   58.3780   32.0090   46.1700 C   0  0  0  0  0  0  0  0  0  0  0  0
   58.8320   33.3440   46.1720 C   0  0  0  0  0  0  0  0  0  0  0  0
   58.8970   34.0790   44.9720 C   0  0  0  0  0  0  0  0  0  0  0  0
   59.3400   35.4090   44.9260 O   0  0  0  0  0  0  0  0  0  0  0  0
   59.9890   36.0800   46.0010 C   0  0  0  0  0  0  0  0  0  0  0  0
   58.5090   33.4690   43.7750 C   0  0  0  0  0  0  0  0  0  0  0  0
   58.0620   32.1470   43.7650 C   0  0  0  0  0  0  0  0  0  0  0  0
   57.9930   31.4120   44.9570 C   0  0  0  0  0  0  0  0  0  0  0  0
   57.5430   30.0460   44.9290 N   0  0  0  0  0  0  0  0  0  0  0  0
   56.2640   29.6240   44.8720 C   0  0  0  0  0  0  0  0  0  0  0  0
   55.2750   30.4020   44.8300 O   0  0  0  0  0  0  0  0  0  0  0  0
   56.1350   28.2820   44.8810 N   0  0  0  0  0  0  0  0  0  0  0  0
   57.4060   27.8270   44.9500 C   0  0  0  0  0  0  0  0  0  0  0  0
   57.7320   26.5220   44.9780 C   0  0  0  0  0  0  0  0  0  0  0  0
   57.1540   25.5550   45.9340 C   0  0  0  0  0  0  0  0  0  0  0  0
   57.8260   24.5570   46.5380 N   0  0  0  0  0  0  0  0  0  0  0  0
   56.8840   23.9630   47.3030 C   0  0  0  0  0  0  0  0  0  0  0  0
   57.1320   22.9680   48.0330 O   0  0  0  0  0  0  0  0  0  0  0  0
   55.6570   24.5190   47.2240 N   0  0  0  0  0  0  0  0  0  0  0  0
   55.8460   25.5230   46.3530 C   0  0  0  0  0  0  0  0  0  0  0  0
   54.8410   26.3960   45.9520 O   0  0  0  0  0  0  0  0  0  0  0  0
   58.2830   28.9140   44.9780 C   0  0  0  0  0  0  0  0  0  0  0  0
   59.6230   28.8810   45.0110 C   0  0  0  0  0  0  0  0  0  0  0  0
  1  2  2  0
  2  3  1  0
  3  4  1  0
  4  5  1  0
  5  6  2  0
  6  7  1  0
  7  8  1  0
  8  9  1  0
  7 10  2  0
 10 11  1  0
 11 12  2  0
 12 13  1  0
 13 14  1  0
 14 15  2  0
 14 16  1  0
 16 17  1  0
 17 18  2  3
 18 19  1  0
 19 20  1  0
 20 21  1  0
 21 22  2  0
 21 23  1  0
 23 24  1  0
 24 25  1  0
 17 26  1  0
 26 27  2  0
 12  5  1  0
 26 13  1  0
 24 19  2  0
M  CHG  4  16  -1  20  -1  23  -1  25  -1
M  END
>  <UniqueID>  (1996) 
58

>  <SMILES>  (1996) 
C=CCOc1cc(OC)ccc1-n1c(=O)[n-]c(=Cc2[n-]c(=O)[n-]c2[O-])c1=C

>  <Energy>  (1996) 
109.86148932111185

>  <Genealogy>  (1996) 
C=CCOc1cc(OC)ccc1-n1c(=O)[n-]c(=Cc2[n-]c(=O)[n-]c2[O-])c1=C (protonated)
C=CCOc1cc(OC)ccc1-n1c(=O)[n-]c(=Cc2[n-]c(=O)[n-]c2[O-])c1=C (3D coordinates assigned)
C=CCOc1cc(OC)ccc1-n1c(=O)[n-]c(=Cc2[n-]c(=O)[n-]c2[O-])c1=C (optimized conformer: 109.86148932111185 kcal/mol)

>  <smiles>  (1996) 
C=CCOc1cc(OC)ccc1-n1c(=O)[nH]c(=Cc2[nH]c(=O)[nH]c2O)c1=C

>  <score_type>  (1996) 
oracle

>  <origin>  (1996) 
adg

>  <m_score__min__energy>  (1996) 
-16.050000000000001

>  <m_primary>  (1996) 
energy

$$$$
73:0
     RDKit          3D

 34 37  0  0  0  0  0  0  0  0999 V2000
   57.8790   25.6050   44.0920 C   0  0  0  0  0  0  0  0  0  0  0  0
   58.1210   25.5350   45.4110 C   0  0  0  0  0  0  0  0  0  0  0  0
   57.4050   24.7690   46.3460 C   0  0  0  0  0  0  0  0  0  0  0  0
   56.5120   23.7750   46.1770 C   0  0  0  0  0  0  0  0  0  0  0  0
   55.1270   23.9420   45.7050 C   0  0  0  0  0  0  0  0  0  0  0  0
   54.3000   22.9250   45.3970 N   0  0  0  0  0  0  0  0  0  0  0  0
   53.1230   23.5410   45.1600 C   0  0  0  0  0  0  0  0  0  0  0  0
   52.0860   22.9130   44.8210 O   0  0  0  0  0  0  0  0  0  0  0  0
   53.1420   24.8800   45.3220 N   0  0  0  0  0  0  0  0  0  0  0  0
   54.4130   25.1190   45.6810 C   0  0  0  0  0  0  0  0  0  0  0  0
   54.9000   26.3890   45.9770 O   0  0  0  0  0  0  0  0  0  0  0  0
   57.8320   25.1830   47.5930 C   0  0  0  0  0  0  0  0  0  0  0  0
   58.8270   26.1140   47.3890 C   0  0  0  0  0  0  0  0  0  0  0  0
   59.6520   26.7040   48.4940 C   0  0  0  0  0  0  0  0  0  0  0  0
   59.0190   26.3250   46.0640 N   0  0  0  0  0  0  0  0  0  0  0  0
   60.1020   27.1340   45.4750 C   0  0  0  0  0  0  0  0  0  0  0  0
   59.6640   28.5700   45.3740 C   0  0  0  0  0  0  0  0  0  0  0  0
   60.1530   29.5210   46.2840 C   0  0  0  0  0  0  0  0  0  0  0  0
   59.6170   30.8090   46.3130 C   0  0  0  0  0  0  0  0  0  0  0  0
   58.5850   31.1630   45.4370 C   0  0  0  0  0  0  0  0  0  0  0  0
   57.7560   32.6980   45.6540 S   0  0  0  0  0  0  0  0  0  0  0  0
   58.4300   33.7430   44.8110 O   0  0  0  0  0  0  0  0  0  0  0  0
   56.3210   32.5850   45.2180 O   0  0  0  0  0  0  0  0  0  0  0  0
   57.8380   33.1740   47.3270 N   0  0  0  0  0  0  0  0  0  0  0  0
   58.8070   34.2560   47.5340 C   0  0  0  0  0  0  0  0  0  0  0  0
   59.7960   33.9220   48.6600 C   0  0  0  0  0  0  0  0  0  0  0  0
   61.1770   33.6280   48.1350 C   0  0  0  0  0  0  0  0  0  0  0  0
   61.5460   34.0230   46.8370 C   0  0  0  0  0  0  0  0  0  0  0  0
   62.8340   33.7600   46.3600 C   0  0  0  0  0  0  0  0  0  0  0  0
   63.7600   33.1010   47.1720 C   0  0  0  0  0  0  0  0  0  0  0  0
   63.4030   32.7070   48.4640 C   0  0  0  0  0  0  0  0  0  0  0  0
   62.1170   32.9700   48.9470 C   0  0  0  0  0  0  0  0  0  0  0  0
   58.1340   30.2380   44.4880 C   0  0  0  0  0  0  0  0  0  0  0  0
   58.6720   28.9480   44.4540 C   0  0  0  0  0  0  0  0  0  0  0  0
  1  2  2  0
  2  3  1  0
  3  4  2  3
  4  5  1  0
  5  6  1  0
  6  7  1  0
  7  8  2  0
  7  9  1  0
  9 10  1  0
 10 11  1  0
  3 12  1  0
 12 13  2  0
 13 14  1  0
 13 15  1  0
 15 16  1  0
 16 17  1  0
 17 18  2  0
 18 19  1  0
 19 20  2  0
 20 21  1  0
 21 22  2  0
 21 23  2  0
 21 24  1  0
 24 25  1  0
 25 26  1  0
 26 27  1  0
 27 28  2  0
 28 29  1  0
 29 30  2  0
 30 31  1  0
 31 32  2  0
 20 33  1  0
 33 34  2  0
 15  2  1  0
 34 17  1  0
 10  5  2  0
 32 27  1  0
M  CHG  3   6  -1   9  -1  24  -1
M  END
>  <UniqueID>  (1997) 
66

>  <SMILES>  (1997) 
C=c1c(=Cc2[n-]c(=O)[n-]c2O)cc(C)n1Cc1ccc(S(=O)(=O)[N-]CCc2ccccc2)cc1

>  <Energy>  (1997) 
122.99625179452241

>  <Genealogy>  (1997) 
C=c1c(=Cc2[n-]c(=O)[n-]c2O)cc(C)n1Cc1ccc(S(=O)(=O)[N-]CCc2ccccc2)cc1 (protonated)
C=c1c(=Cc2[n-]c(=O)[n-]c2O)cc(C)n1Cc1ccc(S(=O)(=O)[N-]CCc2ccccc2)cc1 (3D coordinates assigned)
C=c1c(=Cc2[n-]c(=O)[n-]c2O)cc(C)n1Cc1ccc(S(=O)(=O)[N-]CCc2ccccc2)cc1 (optimized conformer: 122.99625179452241 kcal/mol)

>  <smiles>  (1997) 
C=c1c(=Cc2[nH]c(=O)[nH]c2O)cc(C)n1Cc1ccc(S(=O)(=O)NCCc2ccccc2)cc1

>  <score_type>  (1997) 
oracle

>  <origin>  (1997) 
adg

>  <m_score__min__energy>  (1997) 
-15.25

>  <m_primary>  (1997) 
energy

$$$$
74:0
     RDKit          3D

 32 35  0  0  0  0  0  0  0  0999 V2000
   58.1020   28.2300   44.1110 C   0  0  0  0  0  0  0  0  0  0  0  0
   58.1400   28.1670   45.4520 C   0  0  0  0  0  0  0  0  0  0  0  0
   58.1480   27.0070   46.2450 C   0  0  0  0  0  0  0  0  0  0  0  0
   57.9130   25.7200   45.9270 C   0  0  0  0  0  0  0  0  0  0  0  0
   56.5880   25.0910   45.8220 C   0  0  0  0  0  0  0  0  0  0  0  0
   56.3970   23.7600   45.8230 N   0  0  0  0  0  0  0  0  0  0  0  0
   55.0520   23.6370   45.8580 C   0  0  0  0  0  0  0  0  0  0  0  0
   54.4740   22.5200   45.8520 O   0  0  0  0  0  0  0  0  0  0  0  0
   54.3760   24.8040   45.9090 N   0  0  0  0  0  0  0  0  0  0  0  0
   55.3630   25.7150   45.9030 C   0  0  0  0  0  0  0  0  0  0  0  0
   55.1480   27.0840   45.9980 O   0  0  0  0  0  0  0  0  0  0  0  0
   58.4490   27.4210   47.5330 C   0  0  0  0  0  0  0  0  0  0  0  0
   58.5320   28.7980   47.5020 C   0  0  0  0  0  0  0  0  0  0  0  0
   58.8250   29.6600   48.6910 C   0  0  0  0  0  0  0  0  0  0  0  0
   58.3450   29.2520   46.2420 N   0  0  0  0  0  0  0  0  0  0  0  0
   58.3880   30.6310   45.8310 C   0  0  0  0  0  0  0  0  0  0  0  0
   59.4840   31.4310   46.1870 C   0  0  0  0  0  0  0  0  0  0  0  0
   59.5420   32.7750   45.8110 C   0  0  0  0  0  0  0  0  0  0  0  0
   60.6610   33.5270   46.2070 O   0  0  0  0  0  0  0  0  0  0  0  0
   60.6610   34.5440   47.2090 C   0  0  0  0  0  0  0  0  0  0  0  0
   61.0670   33.9620   48.5670 C   0  0  0  0  0  0  0  0  0  0  0  0
   62.5370   34.0370   48.7350 N   0  0  0  0  0  0  0  0  0  0  0  0
   63.0280   33.1390   49.8020 C   0  0  0  0  0  0  0  0  0  0  0  0
   63.0770   31.6600   49.3490 C   0  0  0  0  0  0  0  0  0  0  0  0
   62.6600   31.4940   48.0080 O   0  0  0  0  0  0  0  0  0  0  0  0
   63.4510   32.3000   47.1620 C   0  0  0  0  0  0  0  0  0  0  0  0
   63.2740   33.8020   47.4750 C   0  0  0  0  0  0  0  0  0  0  0  0
   58.4890   33.3190   45.0510 C   0  0  0  0  0  0  0  0  0  0  0  0
   57.3940   32.5300   44.6940 C   0  0  0  0  0  0  0  0  0  0  0  0
   57.3300   31.1810   45.0860 C   0  0  0  0  0  0  0  0  0  0  0  0
   56.2350   30.3610   44.7640 O   0  0  0  0  0  0  0  0  0  0  0  0
   55.8000   30.0800   43.4380 C   0  0  0  0  0  0  0  0  0  0  0  0
  1  2  2  0
  2  3  1  0
  3  4  2  0
  4  5  1  0
  5  6  1  0
  6  7  1  0
  7  8  2  0
  7  9  1  0
  9 10  1  0
 10 11  1  0
  3 12  1  0
 12 13  2  0
 13 14  1  0
 13 15  1  0
 15 16  1  0
 16 17  2  0
 17 18  1  0
 18 19  1  0
 19 20  1  0
 20 21  1  0
 21 22  1  0
 22 23  1  0
 23 24  1  0
 24 25  1  0
 25 26  1  0
 26 27  1  0
 18 28  2  0
 28 29  1  0
 29 30  2  0
 30 31  1  0
 31 32  1  0
 15  2  1  0
 30 16  1  0
 10  5  2  0
 27 22  1  0
M  CHG  3   6  -1   9  -1  11  -1
M  END
>  <UniqueID>  (1998) 
67

>  <SMILES>  (1998) 
C=c1/c(=C\c2[n-]c(=O)[n-]c2[O-])cc(C)n1-c1cc(OCCN2CCOCC2)ccc1OC

>  <Energy>  (1998) 
145.96648718234812

>  <Genealogy>  (1998) 
C=c1c(=Cc2[n-]c(=O)[n-]c2[O-])cc(C)n1-c1cc(OCCN2CCOCC2)ccc1OC (protonated)
C=c1/c(=C\c2[n-]c(=O)[n-]c2[O-])cc(C)n1-c1cc(OCCN2CCOCC2)ccc1OC (cis-trans isomerization)
C=c1/c(=C\c2[n-]c(=O)[n-]c2[O-])cc(C)n1-c1cc(OCCN2CCOCC2)ccc1OC (3D coordinates assigned)
C=c1/c(=C\c2[n-]c(=O)[n-]c2[O-])cc(C)n1-c1cc(OCCN2CCOCC2)ccc1OC (nonaromatic ring conformer: 145.96648718234812 kcal/mol)

>  <smiles>  (1998) 
C=c1c(=Cc2[nH]c(=O)[nH]c2O)cc(C)n1-c1cc(OCCN2CCOCC2)ccc1OC

>  <score_type>  (1998) 
oracle

>  <origin>  (1998) 
adg

>  <m_score__min__energy>  (1998) 
-16.289999999999999

>  <m_primary>  (1998) 
energy

$$$$
75:0
     RDKit          3D

 30 33  0  0  0  0  0  0  0  0999 V2000
   60.2670   29.6750   46.5320 C   0  0  0  0  0  0  0  0  0  0  0  0
   59.4790   30.6620   46.0770 C   0  0  0  0  0  0  0  0  0  0  0  0
   58.4750   30.5750   45.0950 C   0  0  0  0  0  0  0  0  0  0  0  0
   57.9660   29.5140   44.4370 C   0  0  0  0  0  0  0  0  0  0  0  0
   57.4080   28.3010   45.0650 C   0  0  0  0  0  0  0  0  0  0  0  0
   56.0240   28.1510   45.2480 C   0  0  0  0  0  0  0  0  0  0  0  0
   55.1440   29.1600   44.8720 O   0  0  0  0  0  0  0  0  0  0  0  0
   55.5330   27.0090   45.7950 N   0  0  0  0  0  0  0  0  0  0  0  0
   56.3610   25.9940   46.1570 C   0  0  0  0  0  0  0  0  0  0  0  0
   55.8840   24.9470   46.6660 O   0  0  0  0  0  0  0  0  0  0  0  0
   57.7010   26.1070   45.9670 N   0  0  0  0  0  0  0  0  0  0  0  0
   58.2390   27.2290   45.4230 C   0  0  0  0  0  0  0  0  0  0  0  0
   59.4860   27.2970   45.2540 O   0  0  0  0  0  0  0  0  0  0  0  0
   58.0190   31.8680   44.8890 C   0  0  0  0  0  0  0  0  0  0  0  0
   58.7130   32.6810   45.7610 C   0  0  0  0  0  0  0  0  0  0  0  0
   58.5380   34.1650   45.8700 C   0  0  0  0  0  0  0  0  0  0  0  0
   59.5920   31.9530   46.4830 N   0  0  0  0  0  0  0  0  0  0  0  0
   60.5160   32.4850   47.4490 C   0  0  0  0  0  0  0  0  0  0  0  0
   60.1150   32.6680   48.7780 C   0  0  0  0  0  0  0  0  0  0  0  0
   61.0100   33.1830   49.7210 C   0  0  0  0  0  0  0  0  0  0  0  0
   62.3200   33.5320   49.3440 C   0  0  0  0  0  0  0  0  0  0  0  0
   63.2860   34.0710   50.3360 C   0  0  0  0  0  0  0  0  0  0  0  0
   63.2810   35.3110   50.5780 O   0  0  0  0  0  0  0  0  0  0  0  0
   64.2650   33.2030   50.9640 N   0  0  2  0  0  0  0  0  0  0  0  0
   65.6260   33.7560   51.0710 C   0  0  0  0  0  0  0  0  0  0  0  0
   66.1990   32.7140   50.1230 C   0  0  1  0  0  0  0  0  0  0  0  0
   67.0680   31.8320   50.7790 O   0  0  0  0  0  0  0  0  0  0  0  0
   64.7760   32.1770   50.0450 C   0  0  0  0  0  0  0  0  0  0  0  0
   62.7150   33.3420   48.0070 C   0  0  0  0  0  0  0  0  0  0  0  0
   61.8190   32.8270   47.0680 C   0  0  0  0  0  0  0  0  0  0  0  0
  1  2  2  0
  2  3  1  0
  3  4  2  3
  4  5  1  0
  5  6  2  0
  6  7  1  0
  6  8  1  0
  8  9  1  0
  9 10  2  0
  9 11  1  0
 11 12  1  0
 12 13  2  0
  3 14  1  0
 14 15  2  0
 15 16  1  0
 15 17  1  0
 17 18  1  0
 18 19  2  0
 19 20  1  0
 20 21  2  0
 21 22  1  0
 22 23  2  0
 24 22  1  6
 24 25  1  0
 25 26  1  0
 26 27  1  1
 26 28  1  0
 21 29  1  0
 29 30  2  0
 17  2  1  0
 30 18  1  0
 12  5  1  0
 28 24  1  0
M  CHG  4   7  -1   8  -1  11  -1  24   1
M  END
>  <UniqueID>  (1999) 
68

>  <SMILES>  (1999) 
C=c1c(=Cc2c([O-])[n-]c(=O)[n-]c2=O)cc(C)n1-c1ccc(C(=O)[NH+]2CC(O)C2)cc1

>  <Energy>  (1999) 
178.32336290347445

>  <Genealogy>  (1999) 
C=c1c(=Cc2c([O-])[n-]c(=O)[n-]c2=O)cc(C)n1-c1ccc(C(=O)[NH+]2CC(O)C2)cc1 (protonated)
C=c1c(=Cc2c([O-])[n-]c(=O)[n-]c2=O)cc(C)n1-c1ccc(C(=O)[NH+]2CC(O)C2)cc1 (3D coordinates assigned)
C=c1c(=Cc2c([O-])[n-]c(=O)[n-]c2=O)cc(C)n1-c1ccc(C(=O)[NH+]2CC(O)C2)cc1 (nonaromatic ring conformer: 178.32336290347445 kcal/mol)

>  <smiles>  (1999) 
C=c1c(=Cc2c(O)[nH]c(=O)[nH]c2=O)cc(C)n1-c1ccc(C(=O)N2CC(O)C2)cc1

>  <score_type>  (1999) 
oracle

>  <origin>  (1999) 
adg

>  <m_score__min__energy>  (1999) 
-14.48

>  <m_primary>  (1999) 
energy

$$$$
77:0
     RDKit          3D

 28 31  0  0  0  0  0  0  0  0999 V2000
   55.7900   28.2900   45.2460 O   0  0  0  0  0  0  0  0  0  0  0  0
   56.0920   27.0760   45.8560 C   0  0  0  0  0  0  0  0  0  0  0  0
   55.1720   26.1360   46.1280 N   0  0  0  0  0  0  0  0  0  0  0  0
   55.9070   25.1500   46.6840 C   0  0  0  0  0  0  0  0  0  0  0  0
   55.4010   24.0680   47.0800 O   0  0  0  0  0  0  0  0  0  0  0  0
   57.2290   25.4100   46.7730 N   0  0  0  0  0  0  0  0  0  0  0  0
   57.3370   26.6520   46.2650 C   0  0  0  0  0  0  0  0  0  0  0  0
   58.6140   27.3450   46.0220 C   0  0  0  0  0  0  0  0  0  0  0  0
   58.8610   28.6420   46.2900 C   0  0  0  0  0  0  0  0  0  0  0  0
   59.5590   29.0550   47.4130 C   0  0  0  0  0  0  0  0  0  0  0  0
   59.5390   30.4320   47.4100 C   0  0  0  0  0  0  0  0  0  0  0  0
   60.1060   31.2660   48.4880 C   0  0  0  0  0  0  0  0  0  0  0  0
   59.3470   31.6170   49.4300 O   0  0  0  0  0  0  0  0  0  0  0  0
   61.5370   31.7660   48.4820 C   0  0  0  0  0  0  0  0  0  0  0  0
   62.2620   31.4000   47.1770 C   0  0  0  0  0  0  0  0  0  0  0  0
   63.7590   31.7810   47.2390 C   0  0  0  0  0  0  0  0  0  0  0  0
   64.0600   32.7340   48.3230 N   0  0  0  0  0  0  0  0  0  0  0  0
   63.0700   33.8170   48.3660 C   0  0  0  0  0  0  0  0  0  0  0  0
   61.6840   33.2810   48.7720 C   0  0  0  0  0  0  0  0  0  0  0  0
   58.8970   30.8940   46.3140 N   0  0  0  0  0  0  0  0  0  0  0  0
   58.7710   32.2750   45.9340 C   0  0  0  0  0  0  0  0  0  0  0  0
   57.5290   32.7830   45.5220 C   0  0  0  0  0  0  0  0  0  0  0  0
   57.4030   34.1300   45.1690 C   0  0  0  0  0  0  0  0  0  0  0  0
   58.5150   34.9750   45.2240 C   0  0  0  0  0  0  0  0  0  0  0  0
   59.7560   34.4730   45.6290 C   0  0  0  0  0  0  0  0  0  0  0  0
   59.8850   33.1280   45.9840 C   0  0  0  0  0  0  0  0  0  0  0  0
   58.5060   29.8100   45.5960 C   0  0  0  0  0  0  0  0  0  0  0  0
   58.0180   29.8910   44.3490 C   0  0  0  0  0  0  0  0  0  0  0  0
  1  2  1  0
  2  3  1  0
  3  4  1  0
  4  5  2  0
  4  6  1  0
  6  7  1  0
  7  8  1  0
  8  9  2  0
  9 10  1  0
 10 11  2  0
 11 12  1  0
 12 13  2  0
 12 14  1  0
 14 15  1  0
 15 16  1  0
 16 17  1  0
 17 18  1  0
 18 19  1  0
 11 20  1  0
 20 21  1  0
 21 22  2  0
 22 23  1  0
 23 24  2  0
 24 25  1  0
 25 26  2  0
 20 27  1  0
 27 28  2  0
  7  2  2  0
 27  9  1  0
 19 14  1  0
 26 21  1  0
M  CHG  2   3  -1   6  -1
M  END
>  <UniqueID>  (2000) 
70

>  <SMILES>  (2000) 
C=c1/c(=C\c2[n-]c(=O)[n-]c2O)cc(C(=O)C2CCNCC2)n1-c1ccccc1

>  <Energy>  (2000) 
135.94760111282352

>  <Genealogy>  (2000) 
C=c1c(=Cc2[n-]c(=O)[n-]c2O)cc(C(=O)C2CCNCC2)n1-c1ccccc1 (protonated)
C=c1/c(=C\c2[n-]c(=O)[n-]c2O)cc(C(=O)C2CCNCC2)n1-c1ccccc1 (cis-trans isomerization)
C=c1/c(=C\c2[n-]c(=O)[n-]c2O)cc(C(=O)C2CCNCC2)n1-c1ccccc1 (3D coordinates assigned)
C=c1/c(=C\c2[n-]c(=O)[n-]c2O)cc(C(=O)C2CCNCC2)n1-c1ccccc1 (nonaromatic ring conformer: 135.94760111282352 kcal/mol)

>  <smiles>  (2000) 
C=c1c(=Cc2[nH]c(=O)[nH]c2O)cc(C(=O)C2CCNCC2)n1-c1ccccc1

>  <score_type>  (2000) 
oracle

>  <origin>  (2000) 
adg

>  <m_score__min__energy>  (2000) 
-14.02

>  <m_primary>  (2000) 
energy

$$$$
82:0
     RDKit          3D

 38 42  0  0  0  0  0  0  0  0999 V2000
   56.4470   29.3000   45.1540 O   0  0  0  0  0  0  0  0  0  0  0  0
   56.5880   27.9970   45.6210 C   0  0  0  0  0  0  0  0  0  0  0  0
   55.5510   27.1610   45.7830 N   0  0  0  0  0  0  0  0  0  0  0  0
   56.1470   26.0080   46.1490 C   0  0  0  0  0  0  0  0  0  0  0  0
   55.5000   24.9570   46.3930 O   0  0  0  0  0  0  0  0  0  0  0  0
   57.4930   26.0680   46.2270 N   0  0  0  0  0  0  0  0  0  0  0  0
   57.7700   27.3440   45.9180 C   0  0  0  0  0  0  0  0  0  0  0  0
   59.1440   27.8660   45.8200 C   0  0  0  0  0  0  0  0  0  0  0  0
   59.5490   29.0240   46.3780 C   0  0  0  0  0  0  0  0  0  0  0  0
   60.1600   30.0850   45.7210 C   0  0  0  0  0  0  0  0  0  0  0  0
   60.3770   31.0660   46.6690 C   0  0  0  0  0  0  0  0  0  0  0  0
   61.0520   32.3770   46.4010 C   0  0  0  0  0  0  0  0  0  0  0  0
   59.9380   30.6550   47.8790 N   0  0  0  0  0  0  0  0  0  0  0  0
   59.9970   31.4170   49.0980 C   0  0  0  0  0  0  0  0  0  0  0  0
   61.0590   31.1860   49.9860 C   0  0  0  0  0  0  0  0  0  0  0  0
   61.1910   31.9360   51.1670 C   0  0  0  0  0  0  0  0  0  0  0  0
   62.3180   31.6860   52.0950 C   0  0  0  0  0  0  0  0  0  0  0  0
   62.4120   30.5770   52.6880 O   0  0  0  0  0  0  0  0  0  0  0  0
   63.2980   32.7040   52.3270 N   0  0  0  0  0  0  0  0  0  0  0  0
   63.6620   33.9660   51.1960 S   0  0  0  0  0  0  0  0  0  0  0  0
   62.3720   34.5640   50.7100 O   0  0  0  0  0  0  0  0  0  0  0  0
   64.4680   35.0450   51.8650 O   0  0  0  0  0  0  0  0  0  0  0  0
   64.5540   33.2790   49.8010 C   0  0  0  0  0  0  0  0  0  0  0  0
   64.3910   31.7690   49.6640 C   0  0  0  0  0  0  0  0  0  0  0  0
   63.6900   31.9680   48.3290 C   0  0  0  0  0  0  0  0  0  0  0  0
   63.8440   33.4760   48.4660 C   0  0  0  0  0  0  0  0  0  0  0  0
   60.2480   32.9380   51.4430 C   0  0  0  0  0  0  0  0  0  0  0  0
   59.1870   33.1750   50.5640 C   0  0  0  0  0  0  0  0  0  0  0  0
   59.0330   32.4090   49.3960 C   0  0  0  0  0  0  0  0  0  0  0  0
   57.8800   32.7130   48.4620 C   0  0  0  0  0  0  0  0  0  0  0  0
   58.3240   33.5390   47.2810 C   0  0  0  0  0  0  0  0  0  0  0  0
   57.8420   33.2540   45.9910 C   0  0  0  0  0  0  0  0  0  0  0  0
   58.2660   34.0170   44.8990 C   0  0  0  0  0  0  0  0  0  0  0  0
   59.1740   35.0620   45.0830 C   0  0  0  0  0  0  0  0  0  0  0  0
   59.6610   35.3490   46.3620 C   0  0  0  0  0  0  0  0  0  0  0  0
   59.2380   34.5920   47.4590 C   0  0  0  0  0  0  0  0  0  0  0  0
   59.4070   29.4180   47.7110 C   0  0  0  0  0  0  0  0  0  0  0  0
   58.8360   28.7110   48.6980 C   0  0  0  0  0  0  0  0  0  0  0  0
  1  2  1  0
  2  3  1  0
  3  4  1  0
  4  5  2  0
  4  6  1  0
  6  7  1  0
  7  8  1  0
  8  9  2  0
  9 10  1  0
 10 11  2  0
 11 12  1  0
 11 13  1  0
 13 14  1  0
 14 15  2  0
 15 16  1  0
 16 17  1  0
 17 18  2  0
 17 19  1  0
 19 20  1  0
 20 21  2  0
 20 22  2  0
 20 23  1  0
 23 24  1  0
 24 25  1  0
 25 26  1  0
 16 27  2  0
 27 28  1  0
 28 29  2  0
 29 30  1  0
 30 31  1  0
 31 32  2  0
 32 33  1  0
 33 34  2  0
 34 35  1  0
 35 36  2  0
 13 37  1  0
 37 38  2  0
  7  2  2  0
 37  9  1  0
 29 14  1  0
 36 31  1  0
 26 23  1  0
M  CHG  3   3  -1   6  -1  19  -1
M  END
>  <UniqueID>  (2001) 
75

>  <SMILES>  (2001) 
C=c1/c(=C/c2[n-]c(=O)[n-]c2O)cc(C)n1-c1cc(C(=O)[N-]S(=O)(=O)C2CCC2)ccc1Cc1ccccc1

>  <Energy>  (2001) 
197.24083151599808

>  <Genealogy>  (2001) 
C=c1c(=Cc2[n-]c(=O)[n-]c2O)cc(C)n1-c1cc(C(=O)[N-]S(=O)(=O)C2CCC2)ccc1Cc1ccccc1 (protonated)
C=c1/c(=C/c2[n-]c(=O)[n-]c2O)cc(C)n1-c1cc(C(=O)[N-]S(=O)(=O)C2CCC2)ccc1Cc1ccccc1 (cis-trans isomerization)
C=c1/c(=C/c2[n-]c(=O)[n-]c2O)cc(C)n1-c1cc(C(=O)[N-]S(=O)(=O)C2CCC2)ccc1Cc1ccccc1 (3D coordinates assigned)
C=c1/c(=C/c2[n-]c(=O)[n-]c2O)cc(C)n1-c1cc(C(=O)[N-]S(=O)(=O)C2CCC2)ccc1Cc1ccccc1 (nonaromatic ring conformer: 197.24083151599808 kcal/mol)

>  <smiles>  (2001) 
C=c1c(=Cc2[nH]c(=O)[nH]c2O)cc(C)n1-c1cc(C(=O)NS(=O)(=O)C2CCC2)ccc1Cc1ccccc1

>  <score_type>  (2001) 
oracle

>  <origin>  (2001) 
adg

>  <m_score__min__energy>  (2001) 
-16.32

>  <m_primary>  (2001) 
energy

$$$$
0:0
     RDKit          3D

 35 38  0  0  0  0  0  0  0  0999 V2000
   59.1940   28.1010   47.1940 C   0  0  0  0  0  0  0  0  0  0  0  0
   58.5960   28.7910   46.2100 C   0  0  0  0  0  0  0  0  0  0  0  0
   57.7400   28.2850   45.2170 C   0  0  0  0  0  0  0  0  0  0  0  0
   57.4420   27.0180   44.8640 C   0  0  0  0  0  0  0  0  0  0  0  0
   57.2610   25.8870   45.7980 C   0  0  0  0  0  0  0  0  0  0  0  0
   55.9940   25.5880   46.3340 C   0  0  0  0  0  0  0  0  0  0  0  0
   54.8690   26.3650   46.0440 O   0  0  0  0  0  0  0  0  0  0  0  0
   55.8520   24.5220   47.1650 N   0  0  0  0  0  0  0  0  0  0  0  0
   56.9050   23.7250   47.4800 C   0  0  0  0  0  0  0  0  0  0  0  0
   56.7450   22.7490   48.2580 O   0  0  0  0  0  0  0  0  0  0  0  0
   58.1300   23.9760   46.9550 N   0  0  0  0  0  0  0  0  0  0  0  0
   58.3300   25.0250   46.1170 C   0  0  0  0  0  0  0  0  0  0  0  0
   59.4770   25.2150   45.6300 O   0  0  0  0  0  0  0  0  0  0  0  0
   57.2080   29.3870   44.5680 C   0  0  0  0  0  0  0  0  0  0  0  0
   57.7920   30.5050   45.1270 C   0  0  0  0  0  0  0  0  0  0  0  0
   57.5040   31.9140   44.7000 C   0  0  0  0  0  0  0  0  0  0  0  0
   58.6350   30.1460   46.1210 N   0  0  0  0  0  0  0  0  0  0  0  0
   59.4400   31.0470   46.9060 C   0  0  0  0  0  0  0  0  0  0  0  0
   58.8370   32.0110   47.7300 C   0  0  0  0  0  0  0  0  0  0  0  0
   59.6270   32.8940   48.4770 C   0  0  0  0  0  0  0  0  0  0  0  0
   61.0280   32.8300   48.4030 C   0  0  0  0  0  0  0  0  0  0  0  0
   61.8570   33.7400   49.2230 C   0  0  0  0  0  0  0  0  0  0  0  0
   62.7880   34.3850   48.6720 O   0  0  0  0  0  0  0  0  0  0  0  0
   61.6210   33.9320   50.6220 N   0  0  0  0  0  0  0  0  0  0  0  0
   61.4360   32.8530   51.5880 C   0  0  0  0  0  0  0  0  0  0  0  0
   59.9690   32.6870   51.8680 C   0  0  0  0  0  0  0  0  0  0  0  0
   59.1940   33.7870   52.2790 C   0  0  0  0  0  0  0  0  0  0  0  0
   57.8170   33.6410   52.4820 C   0  0  0  0  0  0  0  0  0  0  0  0
   57.2010   32.4020   52.2680 C   0  0  0  0  0  0  0  0  0  0  0  0
   57.9660   31.2930   51.8460 C   0  0  0  0  0  0  0  0  0  0  0  0
   57.3960   30.0300   51.6120 O   0  0  0  0  0  0  0  0  0  0  0  0
   56.8200   29.2060   52.6230 C   0  0  0  0  0  0  0  0  0  0  0  0
   59.3450   31.4460   51.6450 C   0  0  0  0  0  0  0  0  0  0  0  0
   61.6280   31.8460   47.6000 C   0  0  0  0  0  0  0  0  0  0  0  0
   60.8410   30.9710   46.8470 C   0  0  0  0  0  0  0  0  0  0  0  0
  1  2  2  0
  2  3  1  0
  3  4  2  3
  4  5  1  0
  5  6  2  0
  6  7  1  0
  6  8  1  0
  8  9  1  0
  9 10  2  0
  9 11  1  0
 11 12  1  0
 12 13  2  0
  3 14  1  0
 14 15  2  0
 15 16  1  0
 15 17  1  0
 17 18  1  0
 18 19  2  0
 19 20  1  0
 20 21  2  0
 21 22  1  0
 22 23  2  0
 22 24  1  0
 24 25  1  0
 25 26  1  0
 26 27  2  0
 27 28  1  0
 28 29  2  0
 29 30  1  0
 30 31  1  0
 31 32  1  0
 30 33  2  0
 21 34  1  0
 34 35  2  0
 17  2  1  0
 35 18  1  0
 12  5  1  0
 33 26  1  0
M  CHG  3   8  -1  11  -1  24  -1
M  END
>  <UniqueID>  (2002) 
1

>  <SMILES>  (2002) 
C=c1c(=Cc2c(O)[n-]c(=O)[n-]c2=O)cc(C)n1-c1ccc(C(=O)[N-]Cc2cccc(OC)c2)cc1

>  <Energy>  (2002) 
113.43401434851263

>  <Genealogy>  (2002) 
C=c1c(=Cc2c(O)[n-]c(=O)[n-]c2=O)cc(C)n1-c1ccc(C(=O)[N-]Cc2cccc(OC)c2)cc1 (protonated)
C=c1c(=Cc2c(O)[n-]c(=O)[n-]c2=O)cc(C)n1-c1ccc(C(=O)[N-]Cc2cccc(OC)c2)cc1 (3D coordinates assigned)
C=c1c(=Cc2c(O)[n-]c(=O)[n-]c2=O)cc(C)n1-c1ccc(C(=O)[N-]Cc2cccc(OC)c2)cc1 (optimized conformer: 113.43401434851263 kcal/mol)

>  <smiles>  (2002) 
C=c1c(=Cc2c(O)[nH]c(=O)[nH]c2=O)cc(C)n1-c1ccc(C(=O)NCc2cccc(OC)c2)cc1

>  <score_type>  (2002) 
oracle

>  <origin>  (2002) 
adg

>  <m_score__min__energy>  (2002) 
-15.68

>  <m_primary>  (2002) 
energy

$$$$
2:0
     RDKit          3D

 24 26  0  0  0  0  0  0  0  0999 V2000
   58.1010   27.1790   43.7440 C   0  0  0  0  0  0  0  0  0  0  0  0
   57.9360   28.3360   44.3970 C   0  0  0  0  0  0  0  0  0  0  0  0
   57.9830   28.5640   45.7800 C   0  0  0  0  0  0  0  0  0  0  0  0
   57.8420   31.9300   44.3630 C   0  0  0  0  0  0  0  0  0  0  0  0
   57.3330   26.4100   46.8880 C   0  0  0  0  0  0  0  0  0  0  0  0
   56.0600   26.1440   46.4410 C   0  0  0  0  0  0  0  0  0  0  0  0
   55.1490   27.0860   45.9810 O   0  0  0  0  0  0  0  0  0  0  0  0
   55.8060   24.8220   46.4890 N   0  0  0  0  0  0  0  0  0  0  0  0
   56.9690   24.3110   46.9500 C   0  0  0  0  0  0  0  0  0  0  0  0
   57.1550   23.0770   47.1180 O   0  0  0  0  0  0  0  0  0  0  0  0
   57.9190   25.2370   47.1900 N   0  0  0  0  0  0  0  0  0  0  0  0
   57.9750   29.9410   45.9370 C   0  0  0  0  0  0  0  0  0  0  0  0
   57.8600   30.4880   44.6760 C   0  0  0  0  0  0  0  0  0  0  0  0
   58.0230   27.7090   46.8180 C   0  0  0  0  0  0  0  0  0  0  0  0
   57.3690   32.3090   43.2130 N   0  0  0  0  0  0  0  0  0  0  0  0
   57.7170   31.6990   42.0280 O   0  0  0  0  0  0  0  0  0  0  0  0
   57.4630   32.3390   40.7910 C   0  0  0  0  0  0  0  0  0  0  0  0
   58.3510   32.9140   45.3490 C   0  0  0  0  0  0  0  0  0  0  0  0
   58.0410   32.7900   46.7150 C   0  0  0  0  0  0  0  0  0  0  0  0
   58.5450   33.7130   47.6380 C   0  0  0  0  0  0  0  0  0  0  0  0
   59.3510   34.7680   47.2060 C   0  0  0  0  0  0  0  0  0  0  0  0
   59.6490   34.9100   45.8480 C   0  0  0  0  0  0  0  0  0  0  0  0
   59.1520   33.9890   44.9220 C   0  0  0  0  0  0  0  0  0  0  0  0
   57.8380   29.5120   43.7460 N   0  0  0  0  0  0  0  0  0  0  0  0
  1  2  2  0
  2  3  1  0
  3  4  2  0
  4  5  1  0
  5  6  2  0
  6  7  1  0
  6  8  1  0
  8  9  1  0
  9 10  2  0
  9 11  1  0
  3 12  1  0
 12 13  2  0
 13 14  1  0
 14 15  2  0
 15 16  1  0
 16 17  1  0
 14 18  1  0
 18 19  2  0
 19 20  1  0
 20 21  2  0
 21 22  1  0
 22 23  2  0
 13 24  1  0
 24  2  1  0
 11  5  1  0
 23 18  1  0
M  CHG  2   7  -1   8  -1
M  END
>  <UniqueID>  (2003) 
3

>  <SMILES>  (2003) 
C=c1[nH]c(/C(=N/OC)c2ccccc2)c/c1=C/c1[nH]c(=O)[n-]c1[O-]

>  <Energy>  (2003) 
111.74552750095351

>  <Genealogy>  (2003) 
C=c1[nH]c(C(=NOC)c2ccccc2)cc1=Cc1[nH]c(=O)[n-]c1[O-] (protonated)
C=c1[nH]c(/C(=N/OC)c2ccccc2)c/c1=C/c1[nH]c(=O)[n-]c1[O-] (cis-trans isomerization)
C=c1[nH]c(/C(=N/OC)c2ccccc2)c/c1=C/c1[nH]c(=O)[n-]c1[O-] (3D coordinates assigned)
C=c1[nH]c(/C(=N/OC)c2ccccc2)c/c1=C/c1[nH]c(=O)[n-]c1[O-] (optimized conformer: 111.74552750095351 kcal/mol)

>  <smiles>  (2003) 
C=c1[nH]c(C(=NOC)c2ccccc2)cc1=Cc1[nH]c(=O)[nH]c1O

>  <score_type>  (2003) 
oracle

>  <origin>  (2003) 
adg

>  <m_score__min__energy>  (2003) 
-14.18

>  <m_primary>  (2003) 
energy

$$$$
11:0
     RDKit          3D

 27 29  0  0  0  0  0  0  0  0999 V2000
   54.3720   28.2880   53.3440 C   0  0  0  0  0  0  0  0  0  0  0  0
   54.7130   29.5150   52.9110 C   0  0  0  0  0  0  0  0  0  0  0  0
   53.8340   30.4520   52.3550 C   0  0  0  0  0  0  0  0  0  0  0  0
   52.5240   30.2890   52.0860 C   0  0  0  0  0  0  0  0  0  0  0  0
   51.8640   30.7850   50.8650 C   0  0  0  0  0  0  0  0  0  0  0  0
   51.7330   30.0500   49.7480 N   0  0  0  0  0  0  0  0  0  0  0  0
   51.0060   30.8450   48.9310 C   0  0  0  0  0  0  0  0  0  0  0  0
   50.6840   30.5050   47.7640 O   0  0  0  0  0  0  0  0  0  0  0  0
   50.6460   32.0300   49.4690 N   0  0  0  0  0  0  0  0  0  0  0  0
   51.1840   31.9730   50.6970 C   0  0  0  0  0  0  0  0  0  0  0  0
   51.0160   32.9630   51.6570 O   0  0  0  0  0  0  0  0  0  0  0  0
   54.5920   31.5780   52.0740 C   0  0  0  0  0  0  0  0  0  0  0  0
   55.8800   31.3000   52.4750 C   0  0  0  0  0  0  0  0  0  0  0  0
   57.0260   32.2560   52.3220 C   0  0  0  0  0  0  0  0  0  0  0  0
   55.9710   30.0380   52.9630 N   0  0  0  0  0  0  0  0  0  0  0  0
   57.2040   29.4190   53.4870 C   0  0  0  0  0  0  0  0  0  0  0  0
   58.3300   29.4990   52.4900 C   0  0  0  0  0  0  0  0  0  0  0  0
   59.5030   29.6820   52.9070 O   0  0  0  0  0  0  0  0  0  0  0  0
   58.1170   29.3540   51.0800 N   0  0  0  0  0  0  0  0  0  0  0  0
   58.1460   30.4450   50.1170 C   0  0  0  0  0  0  0  0  0  0  0  0
   59.5540   30.9450   49.9740 C   0  0  0  0  0  0  0  0  0  0  0  0
   59.8260   32.3220   50.0270 C   0  0  0  0  0  0  0  0  0  0  0  0
   61.1420   32.7840   49.9270 C   0  0  0  0  0  0  0  0  0  0  0  0
   62.1960   31.8740   49.7870 C   0  0  0  0  0  0  0  0  0  0  0  0
   63.8460   32.4560   49.6650 Cl  0  0  0  0  0  0  0  0  0  0  0  0
   61.9330   30.5010   49.7500 C   0  0  0  0  0  0  0  0  0  0  0  0
   60.6170   30.0360   49.8500 C   0  0  0  0  0  0  0  0  0  0  0  0
  1  2  2  0
  2  3  1  0
  3  4  2  0
  4  5  1  0
  5  6  1  0
  6  7  1  0
  7  8  2  0
  7  9  1  0
  9 10  1  0
 10 11  1  0
  3 12  1  0
 12 13  2  0
 13 14  1  0
 13 15  1  0
 15 16  1  0
 16 17  1  0
 17 18  2  0
 17 19  1  0
 19 20  1  0
 20 21  1  0
 21 22  2  0
 22 23  1  0
 23 24  2  0
 24 25  1  0
 24 26  1  0
 26 27  2  0
 15  2  1  0
 27 21  1  0
 10  5  2  0
M  CHG  4   6  -1   9  -1  11  -1  19  -1
M  END
>  <UniqueID>  (2004) 
12

>  <SMILES>  (2004) 
C=c1/c(=C/c2[n-]c(=O)[n-]c2[O-])cc(C)n1CC(=O)[N-]Cc1ccc(Cl)cc1

>  <Energy>  (2004) 
106.62932409088847

>  <Genealogy>  (2004) 
C=c1c(=Cc2[n-]c(=O)[n-]c2[O-])cc(C)n1CC(=O)[N-]Cc1ccc(Cl)cc1 (protonated)
C=c1/c(=C/c2[n-]c(=O)[n-]c2[O-])cc(C)n1CC(=O)[N-]Cc1ccc(Cl)cc1 (cis-trans isomerization)
C=c1/c(=C/c2[n-]c(=O)[n-]c2[O-])cc(C)n1CC(=O)[N-]Cc1ccc(Cl)cc1 (3D coordinates assigned)
C=c1/c(=C/c2[n-]c(=O)[n-]c2[O-])cc(C)n1CC(=O)[N-]Cc1ccc(Cl)cc1 (optimized conformer: 106.62932409088847 kcal/mol)

>  <smiles>  (2004) 
C=c1c(=Cc2[nH]c(=O)[nH]c2O)cc(C)n1CC(=O)NCc1ccc(Cl)cc1

>  <score_type>  (2004) 
oracle

>  <origin>  (2004) 
adg

>  <m_score__min__energy>  (2004) 
-17.390000000000001

>  <m_primary>  (2004) 
energy

$$$$
20:0
     RDKit          3D

 28 31  0  0  0  0  0  0  0  0999 V2000
   59.2560   29.9750   46.9140 C   0  0  0  0  0  0  0  0  0  0  0  0
   58.6160   30.8340   46.1050 C   0  0  0  0  0  0  0  0  0  0  0  0
   57.9990   30.5230   44.8890 C   0  0  0  0  0  0  0  0  0  0  0  0
   57.9240   29.3170   44.2930 C   0  0  0  0  0  0  0  0  0  0  0  0
   57.3830   28.1100   44.9580 C   0  0  0  0  0  0  0  0  0  0  0  0
   56.0150   28.0250   45.2520 C   0  0  0  0  0  0  0  0  0  0  0  0
   55.1470   29.0510   44.8920 O   0  0  0  0  0  0  0  0  0  0  0  0
   55.5220   26.9280   45.8840 N   0  0  0  0  0  0  0  0  0  0  0  0
   56.3370   25.9080   46.2540 C   0  0  0  0  0  0  0  0  0  0  0  0
   55.8580   24.9000   46.8340 O   0  0  0  0  0  0  0  0  0  0  0  0
   57.6700   25.9780   46.0060 N   0  0  0  0  0  0  0  0  0  0  0  0
   58.2110   27.0530   45.3780 C   0  0  0  0  0  0  0  0  0  0  0  0
   59.4580   27.0980   45.1970 O   0  0  0  0  0  0  0  0  0  0  0  0
   57.4250   31.7010   44.4290 C   0  0  0  0  0  0  0  0  0  0  0  0
   57.7260   32.6760   45.3580 C   0  0  0  0  0  0  0  0  0  0  0  0
   57.2900   34.1070   45.2560 C   0  0  0  0  0  0  0  0  0  0  0  0
   58.4440   32.1540   46.3780 N   0  0  0  0  0  0  0  0  0  0  0  0
   58.9400   32.8810   47.5150 C   0  0  0  0  0  0  0  0  0  0  0  0
   59.7910   33.9760   47.4000 C   0  0  0  0  0  0  0  0  0  0  0  0
   60.1490   34.5120   48.9500 S   0  0  0  0  0  0  0  0  0  0  0  0
   59.2380   33.3630   49.7810 C   0  0  0  0  0  0  0  0  0  0  0  0
   59.1300   33.2830   51.2520 C   0  0  0  0  0  0  0  0  0  0  0  0
   58.9890   34.4350   51.9670 N   0  0  0  0  0  0  0  0  0  0  0  0
   58.8830   34.4400   53.3230 C   0  0  0  0  0  0  0  0  0  0  0  0
   58.9190   33.2370   54.0290 C   0  0  0  0  0  0  0  0  0  0  0  0
   59.0620   32.0390   53.3290 C   0  0  0  0  0  0  0  0  0  0  0  0
   59.1690   32.0540   51.9370 C   0  0  0  0  0  0  0  0  0  0  0  0
   58.6330   32.5320   48.8390 C   0  0  0  0  0  0  0  0  0  0  0  0
  1  2  2  0
  2  3  1  0
  3  4  2  0
  4  5  1  0
  5  6  2  0
  6  7  1  0
  6  8  1  0
  8  9  1  0
  9 10  2  0
  9 11  1  0
 11 12  1  0
 12 13  2  0
  3 14  1  0
 14 15  2  0
 15 16  1  0
 15 17  1  0
 17 18  1  0
 18 19  2  0
 19 20  1  0
 20 21  1  0
 21 22  1  0
 22 23  2  0
 23 24  1  0
 24 25  2  0
 25 26  1  0
 26 27  2  0
 21 28  2  0
 17  2  1  0
 28 18  1  0
 12  5  1  0
 27 22  1  0
M  CHG  3   7  -1   8  -1  11  -1
M  END
>  <UniqueID>  (2005) 
20

>  <SMILES>  (2005) 
C=c1/c(=C/c2c([O-])[n-]c(=O)[n-]c2=O)cc(C)n1-c1csc(-c2ccccn2)c1

>  <Energy>  (2005) 
117.98628610225454

>  <Genealogy>  (2005) 
C=c1c(=Cc2c([O-])[n-]c(=O)[n-]c2=O)cc(C)n1-c1csc(-c2ccccn2)c1 (protonated)
C=c1/c(=C/c2c([O-])[n-]c(=O)[n-]c2=O)cc(C)n1-c1csc(-c2ccccn2)c1 (cis-trans isomerization)
C=c1/c(=C/c2c([O-])[n-]c(=O)[n-]c2=O)cc(C)n1-c1csc(-c2ccccn2)c1 (3D coordinates assigned)
C=c1/c(=C/c2c([O-])[n-]c(=O)[n-]c2=O)cc(C)n1-c1csc(-c2ccccn2)c1 (optimized conformer: 117.98628610225454 kcal/mol)

>  <smiles>  (2005) 
C=c1c(=Cc2c(O)[nH]c(=O)[nH]c2=O)cc(C)n1-c1csc(-c2ccccn2)c1

>  <score_type>  (2005) 
oracle

>  <origin>  (2005) 
adg

>  <m_score__min__energy>  (2005) 
-16.23

>  <m_primary>  (2005) 
energy

$$$$
33:0
     RDKit          3D

 35 39  0  0  0  0  0  0  0  0999 V2000
   57.8130   25.5700   47.4580 C   0  0  0  0  0  0  0  0  0  0  0  0
   58.0490   26.3670   46.4030 C   0  0  0  0  0  0  0  0  0  0  0  0
   57.7620   26.1090   45.0500 C   0  0  0  0  0  0  0  0  0  0  0  0
   57.1080   25.0900   44.4590 C   0  0  0  0  0  0  0  0  0  0  0  0
   55.8010   24.5480   44.8780 C   0  0  0  0  0  0  0  0  0  0  0  0
   54.8540   25.3590   45.5250 C   0  0  0  0  0  0  0  0  0  0  0  0
   55.1430   26.6880   45.8190 O   0  0  0  0  0  0  0  0  0  0  0  0
   53.6410   24.8450   45.8680 N   0  0  0  0  0  0  0  0  0  0  0  0
   53.3210   23.5560   45.5720 C   0  0  0  0  0  0  0  0  0  0  0  0
   52.1950   23.0940   45.8940 O   0  0  0  0  0  0  0  0  0  0  0  0
   54.2120   22.7650   44.9220 N   0  0  0  0  0  0  0  0  0  0  0  0
   55.4370   23.2320   44.5630 C   0  0  0  0  0  0  0  0  0  0  0  0
   56.2360   22.4710   43.9560 O   0  0  0  0  0  0  0  0  0  0  0  0
   58.2830   27.1750   44.3340 C   0  0  0  0  0  0  0  0  0  0  0  0
   58.8280   28.0480   45.2510 C   0  0  0  0  0  0  0  0  0  0  0  0
   59.4810   29.3510   44.9050 C   0  0  0  0  0  0  0  0  0  0  0  0
   58.6800   27.5660   46.5040 N   0  0  0  0  0  0  0  0  0  0  0  0
   59.1680   28.2000   47.6990 C   0  0  0  0  0  0  0  0  0  0  0  0
   59.9890   27.4950   48.5880 C   0  0  0  0  0  0  0  0  0  0  0  0
   60.4770   28.1180   49.7370 C   0  0  0  0  0  0  0  0  0  0  0  0
   60.1500   29.4490   50.0070 C   0  0  0  0  0  0  0  0  0  0  0  0
   59.3230   30.1710   49.1280 C   0  0  0  0  0  0  0  0  0  0  0  0
   58.9800   31.5850   49.4050 C   0  0  0  0  0  0  0  0  0  0  0  0
   58.3330   31.8830   50.4460 O   0  0  0  0  0  0  0  0  0  0  0  0
   59.4100   32.6320   48.5210 N   0  0  0  0  0  0  0  0  0  0  0  0
   60.7630   32.8950   48.1680 C   0  0  0  0  0  0  0  0  0  0  0  0
   61.9150   32.7060   48.9550 C   0  0  0  0  0  0  0  0  0  0  0  0
   61.8480   32.1290   50.6140 Cl  0  0  0  0  0  0  0  0  0  0  0  0
   63.1590   33.0670   48.4080 C   0  0  0  0  0  0  0  0  0  0  0  0
   63.2370   33.6240   47.1190 C   0  0  0  0  0  0  0  0  0  0  0  0
   62.0720   33.8420   46.3730 C   0  0  0  0  0  0  0  0  0  0  0  0
   60.8460   33.4740   46.9280 C   0  0  0  0  0  0  0  0  0  0  0  0
   59.4940   33.6600   46.3400 C   0  0  0  0  0  0  0  0  0  0  0  0
   58.5500   33.1110   47.4340 C   0  0  0  0  0  0  0  0  0  0  0  0
   58.8430   29.5380   47.9680 C   0  0  0  0  0  0  0  0  0  0  0  0
  1  2  2  0
  2  3  1  0
  3  4  2  0
  4  5  1  0
  5  6  2  0
  6  7  1  0
  6  8  1  0
  8  9  1  0
  9 10  2  0
  9 11  1  0
 11 12  1  0
 12 13  2  0
  3 14  1  0
 14 15  2  0
 15 16  1  0
 15 17  1  0
 17 18  1  0
 18 19  2  0
 19 20  1  0
 20 21  2  0
 21 22  1  0
 22 23  1  0
 23 24  2  0
 23 25  1  0
 25 26  1  0
 26 27  2  0
 27 28  1  0
 27 29  1  0
 29 30  2  0
 30 31  1  0
 31 32  2  0
 32 33  1  0
 33 34  1  0
 22 35  2  0
 17  2  1  0
 35 18  1  0
 12  5  1  0
 34 25  1  0
 32 26  1  0
M  CHG  2   7  -1  11  -1
M  END
>  <UniqueID>  (2006) 
32

>  <SMILES>  (2006) 
C=c1/c(=C\c2c([O-])[nH]c(=O)[n-]c2=O)cc(C)n1-c1cccc(C(=O)N2CCc3cccc(Cl)c32)c1

>  <Energy>  (2006) 
131.69423315068462

>  <Genealogy>  (2006) 
C=c1c(=Cc2c([O-])[nH]c(=O)[n-]c2=O)cc(C)n1-c1cccc(C(=O)N2CCc3cccc(Cl)c32)c1 (protonated)
C=c1/c(=C\c2c([O-])[nH]c(=O)[n-]c2=O)cc(C)n1-c1cccc(C(=O)N2CCc3cccc(Cl)c32)c1 (cis-trans isomerization)
C=c1/c(=C\c2c([O-])[nH]c(=O)[n-]c2=O)cc(C)n1-c1cccc(C(=O)N2CCc3cccc(Cl)c32)c1 (3D coordinates assigned)
C=c1/c(=C\c2c([O-])[nH]c(=O)[n-]c2=O)cc(C)n1-c1cccc(C(=O)N2CCc3cccc(Cl)c32)c1 (nonaromatic ring conformer: 131.69423315068462 kcal/mol)

>  <smiles>  (2006) 
C=c1c(=Cc2c(O)[nH]c(=O)[nH]c2=O)cc(C)n1-c1cccc(C(=O)N2CCc3cccc(Cl)c32)c1

>  <score_type>  (2006) 
oracle

>  <origin>  (2006) 
adg

>  <m_score__min__energy>  (2006) 
-16.25

>  <m_primary>  (2006) 
energy

$$$$
35:0
     RDKit          3D

 32 36  0  0  0  0  0  0  0  0999 V2000
   58.3450   29.9250   44.5090 C   0  0  0  0  0  0  0  0  0  0  0  0
   58.4600   29.6780   45.8250 C   0  0  0  0  0  0  0  0  0  0  0  0
   58.3270   28.4340   46.4490 C   0  0  0  0  0  0  0  0  0  0  0  0
   58.1330   27.2410   45.8550 C   0  0  0  0  0  0  0  0  0  0  0  0
   57.4240   26.1120   46.4850 C   0  0  0  0  0  0  0  0  0  0  0  0
   58.0530   25.0450   47.0080 N   0  0  0  0  0  0  0  0  0  0  0  0
   57.0400   24.2310   47.3740 C   0  0  0  0  0  0  0  0  0  0  0  0
   57.2320   23.1150   47.9210 O   0  0  0  0  0  0  0  0  0  0  0  0
   55.8050   24.7000   47.0910 N   0  0  0  0  0  0  0  0  0  0  0  0
   56.0650   25.8870   46.5170 C   0  0  0  0  0  0  0  0  0  0  0  0
   55.0820   26.7170   45.9930 O   0  0  0  0  0  0  0  0  0  0  0  0
   58.5060   28.6590   47.8070 C   0  0  0  0  0  0  0  0  0  0  0  0
   58.7250   30.0120   47.9600 C   0  0  0  0  0  0  0  0  0  0  0  0
   58.9470   30.6860   49.2800 C   0  0  0  0  0  0  0  0  0  0  0  0
   58.7310   30.6280   46.7540 N   0  0  0  0  0  0  0  0  0  0  0  0
   58.9350   32.0350   46.5180 C   0  0  0  0  0  0  0  0  0  0  0  0
   57.8390   32.8260   46.1350 C   0  0  0  0  0  0  0  0  0  0  0  0
   57.9900   34.2000   45.9420 C   0  0  0  0  0  0  0  0  0  0  0  0
   59.2330   34.8020   46.1400 C   0  0  0  0  0  0  0  0  0  0  0  0
   60.3290   34.0310   46.5280 C   0  0  0  0  0  0  0  0  0  0  0  0
   60.2000   32.6430   46.7090 C   0  0  0  0  0  0  0  0  0  0  0  0
   61.3860   31.8710   47.1450 C   0  0  0  0  0  0  0  0  0  0  0  0
   61.5700   30.7260   46.6490 O   0  0  0  0  0  0  0  0  0  0  0  0
   62.3190   32.3870   48.1170 N   0  0  0  0  0  0  0  0  0  0  0  0
   63.7240   31.9610   48.0420 C   0  0  0  0  0  0  0  0  0  0  0  0
   64.4380   32.1500   49.3810 C   0  0  0  0  0  0  0  0  0  0  0  0
   64.2460   33.5270   49.8640 N   0  0  0  0  0  0  0  0  0  0  0  0
   65.0650   33.9690   51.0240 C   0  0  0  0  0  0  0  0  0  0  0  0
   65.7820   32.8420   51.7650 C   0  0  0  0  0  0  0  0  0  0  0  0
   66.5930   33.8470   50.9660 C   0  0  0  0  0  0  0  0  0  0  0  0
   62.8330   33.9690   49.9770 C   0  0  0  0  0  0  0  0  0  0  0  0
   61.8100   32.9980   49.3520 C   0  0  0  0  0  0  0  0  0  0  0  0
  1  2  2  0
  2  3  1  0
  3  4  2  0
  4  5  1  0
  5  6  1  0
  6  7  1  0
  7  8  2  0
  7  9  1  0
  9 10  1  0
 10 11  1  0
  3 12  1  0
 12 13  2  0
 13 14  1  0
 13 15  1  0
 15 16  1  0
 16 17  2  0
 17 18  1  0
 18 19  2  0
 19 20  1  0
 20 21  2  0
 21 22  1  0
 22 23  2  0
 22 24  1  0
 24 25  1  0
 25 26  1  0
 26 27  1  0
 27 28  1  0
 28 29  1  0
 29 30  1  0
 27 31  1  0
 31 32  1  0
 15  2  1  0
 21 16  1  0
 32 24  1  0
 10  5  2  0
 30 28  1  0
M  CHG  3   6  -1   9  -1  11  -1
M  END
>  <UniqueID>  (2007) 
34

>  <SMILES>  (2007) 
C=c1/c(=C/c2[n-]c(=O)[n-]c2[O-])cc(C)n1-c1ccccc1C(=O)N1CCN(C2CC2)CC1

>  <Energy>  (2007) 
415.3274482640702

>  <Genealogy>  (2007) 
C=c1c(=Cc2[n-]c(=O)[n-]c2[O-])cc(C)n1-c1ccccc1C(=O)N1CCN(C2CC2)CC1 (protonated)
C=c1/c(=C/c2[n-]c(=O)[n-]c2[O-])cc(C)n1-c1ccccc1C(=O)N1CCN(C2CC2)CC1 (cis-trans isomerization)
C=c1/c(=C/c2[n-]c(=O)[n-]c2[O-])cc(C)n1-c1ccccc1C(=O)N1CCN(C2CC2)CC1 (3D coordinates assigned)
C=c1/c(=C/c2[n-]c(=O)[n-]c2[O-])cc(C)n1-c1ccccc1C(=O)N1CCN(C2CC2)CC1 (nonaromatic ring conformer: 415.3274482640702 kcal/mol)

>  <smiles>  (2007) 
C=c1c(=Cc2[nH]c(=O)[nH]c2O)cc(C)n1-c1ccccc1C(=O)N1CCN(C2CC2)CC1

>  <score_type>  (2007) 
oracle

>  <origin>  (2007) 
adg

>  <m_score__min__energy>  (2007) 
-16.800000000000001

>  <m_primary>  (2007) 
energy

$$$$
43:0
     RDKit          3D

 30 32  0  0  0  0  0  0  0  0999 V2000
   60.7380   29.7060   45.2140 C   0  0  0  0  0  0  0  0  0  0  0  0
   59.8610   29.6430   46.2280 C   0  0  0  0  0  0  0  0  0  0  0  0
   58.7530   28.7960   46.3210 C   0  0  0  0  0  0  0  0  0  0  0  0
   58.3540   27.8700   45.4260 C   0  0  0  0  0  0  0  0  0  0  0  0
   57.3760   26.8040   45.7370 C   0  0  0  0  0  0  0  0  0  0  0  0
   56.0000   27.0670   45.6520 C   0  0  0  0  0  0  0  0  0  0  0  0
   55.5420   28.3140   45.2430 O   0  0  0  0  0  0  0  0  0  0  0  0
   55.1030   26.0960   45.9620 N   0  0  0  0  0  0  0  0  0  0  0  0
   55.5110   24.8670   46.3680 C   0  0  0  0  0  0  0  0  0  0  0  0
   54.6620   23.9820   46.6430 O   0  0  0  0  0  0  0  0  0  0  0  0
   56.8360   24.5950   46.4840 N   0  0  0  0  0  0  0  0  0  0  0  0
   57.7730   25.5320   46.1890 C   0  0  0  0  0  0  0  0  0  0  0  0
   58.9930   25.2540   46.3430 O   0  0  0  0  0  0  0  0  0  0  0  0
   58.1610   29.0580   47.5490 C   0  0  0  0  0  0  0  0  0  0  0  0
   58.9100   30.0540   48.1440 C   0  0  0  0  0  0  0  0  0  0  0  0
   58.6470   30.6270   49.5030 C   0  0  0  0  0  0  0  0  0  0  0  0
   59.9400   30.4090   47.3460 N   0  0  0  0  0  0  0  0  0  0  0  0
   60.9370   31.3990   47.6540 C   0  0  0  0  0  0  0  0  0  0  0  0
   62.0620   31.0210   48.4010 C   0  0  0  0  0  0  0  0  0  0  0  0
   63.0690   31.9460   48.6820 C   0  0  0  0  0  0  0  0  0  0  0  0
   62.9620   33.2570   48.2180 C   0  0  0  0  0  0  0  0  0  0  0  0
   61.8450   33.6500   47.4770 C   0  0  0  0  0  0  0  0  0  0  0  0
   60.8190   32.7310   47.1880 C   0  0  0  0  0  0  0  0  0  0  0  0
   59.6260   33.1830   46.4330 C   0  0  0  0  0  0  0  0  0  0  0  0
   59.7750   33.7880   45.3360 O   0  0  0  0  0  0  0  0  0  0  0  0
   58.3060   32.9410   46.9390 N   0  0  0  0  0  0  0  0  0  0  0  0
   57.1180   33.3260   46.1760 C   0  0  0  0  0  0  0  0  0  0  0  0
   57.0820   32.6150   44.8200 C   0  0  0  0  0  0  0  0  0  0  0  0
   56.9790   31.2160   45.0040 O   0  0  0  0  0  0  0  0  0  0  0  0
   56.9490   30.5570   43.7570 C   0  0  0  0  0  0  0  0  0  0  0  0
  1  2  2  0
  2  3  1  0
  3  4  2  0
  4  5  1  0
  5  6  2  0
  6  7  1  0
  6  8  1  0
  8  9  1  0
  9 10  2  0
  9 11  1  0
 11 12  1  0
 12 13  2  0
  3 14  1  0
 14 15  2  0
 15 16  1  0
 15 17  1  0
 17 18  1  0
 18 19  2  0
 19 20  1  0
 20 21  2  0
 21 22  1  0
 22 23  2  0
 23 24  1  0
 24 25  2  0
 24 26  1  0
 26 27  1  0
 27 28  1  0
 28 29  1  0
 29 30  1  0
 17  2  1  0
 23 18  1  0
 12  5  1  0
M  CHG  3   7  -1   8  -1  11  -1
M  END
>  <UniqueID>  (2008) 
41

>  <SMILES>  (2008) 
C=c1/c(=C/c2c([O-])[n-]c(=O)[n-]c2=O)cc(C)n1-c1ccccc1C(=O)NCCOC

>  <Energy>  (2008) 
97.49405960174187

>  <Genealogy>  (2008) 
C=c1c(=Cc2c([O-])[n-]c(=O)[n-]c2=O)cc(C)n1-c1ccccc1C(=O)NCCOC (protonated)
C=c1/c(=C/c2c([O-])[n-]c(=O)[n-]c2=O)cc(C)n1-c1ccccc1C(=O)NCCOC (cis-trans isomerization)
C=c1/c(=C/c2c([O-])[n-]c(=O)[n-]c2=O)cc(C)n1-c1ccccc1C(=O)NCCOC (3D coordinates assigned)
C=c1/c(=C/c2c([O-])[n-]c(=O)[n-]c2=O)cc(C)n1-c1ccccc1C(=O)NCCOC (optimized conformer: 97.49405960174187 kcal/mol)

>  <smiles>  (2008) 
C=c1c(=Cc2c(O)[nH]c(=O)[nH]c2=O)cc(C)n1-c1ccccc1C(=O)NCCOC

>  <score_type>  (2008) 
oracle

>  <origin>  (2008) 
adg

>  <m_score__min__energy>  (2008) 
-15.33

>  <m_primary>  (2008) 
energy

$$$$
49:0
     RDKit          3D

 27 30  0  0  0  0  0  0  0  0999 V2000
   59.6440   28.6750   46.7740 C   0  0  0  0  0  0  0  0  0  0  0  0
   58.6290   28.8980   45.9240 C   0  0  0  0  0  0  0  0  0  0  0  0
   57.9300   27.9250   45.2000 C   0  0  0  0  0  0  0  0  0  0  0  0
   58.1360   26.5920   45.2080 C   0  0  0  0  0  0  0  0  0  0  0  0
   57.3550   25.6420   46.0200 C   0  0  0  0  0  0  0  0  0  0  0  0
   57.9030   24.5950   46.6600 N   0  0  0  0  0  0  0  0  0  0  0  0
   56.8630   24.0600   47.3360 C   0  0  0  0  0  0  0  0  0  0  0  0
   56.9780   23.0350   48.0570 O   0  0  0  0  0  0  0  0  0  0  0  0
   55.6930   24.7170   47.1870 N   0  0  0  0  0  0  0  0  0  0  0  0
   56.0210   25.7230   46.3620 C   0  0  0  0  0  0  0  0  0  0  0  0
   55.1340   26.7190   45.9720 O   0  0  0  0  0  0  0  0  0  0  0  0
   57.0160   28.6090   44.4110 C   0  0  0  0  0  0  0  0  0  0  0  0
   57.1730   29.9510   44.6930 C   0  0  0  0  0  0  0  0  0  0  0  0
   56.3780   31.0470   44.0510 C   0  0  0  0  0  0  0  0  0  0  0  0
   58.1530   30.1300   45.6090 N   0  0  0  0  0  0  0  0  0  0  0  0
   58.5730   31.3950   46.1540 C   0  0  0  0  0  0  0  0  0  0  0  0
   57.7640   32.4430   46.5440 C   0  0  0  0  0  0  0  0  0  0  0  0
   58.5420   33.4280   47.0340 N   0  0  0  0  0  0  0  0  0  0  0  0
   59.8030   33.0230   46.9700 N   0  0  0  0  0  0  0  0  0  0  0  0
   60.9360   33.8420   47.4140 C   0  0  0  0  0  0  0  0  0  0  0  0
   60.9930   33.9300   48.9600 C   0  0  0  0  0  0  0  0  0  0  0  0
   62.1230   33.0710   49.5400 C   0  0  0  0  0  0  0  0  0  0  0  0
   63.4480   33.4830   49.0190 N   0  0  0  0  0  0  0  0  0  0  0  0
   64.4490   32.4440   49.3040 C   0  0  0  0  0  0  0  0  0  0  0  0
   63.4570   33.8630   47.5800 C   0  0  0  0  0  0  0  0  0  0  0  0
   62.2510   33.3150   46.8060 C   0  0  0  0  0  0  0  0  0  0  0  0
   59.8610   31.7830   46.4400 C   0  0  0  0  0  0  0  0  0  0  0  0
  1  2  2  0
  2  3  1  0
  3  4  2  0
  4  5  1  0
  5  6  1  0
  6  7  1  0
  7  8  2  0
  7  9  1  0
  9 10  1  0
 10 11  1  0
  3 12  1  0
 12 13  2  0
 13 14  1  0
 13 15  1  0
 15 16  1  0
 16 17  1  0
 17 18  2  0
 18 19  1  0
 19 20  1  0
 20 21  1  0
 21 22  1  0
 22 23  1  0
 23 24  1  0
 23 25  1  0
 25 26  1  0
 19 27  1  0
 15  2  1  0
 27 16  2  0
 10  5  2  0
 26 20  1  0
M  CHG  3   6  -1   9  -1  11  -1
M  END
>  <UniqueID>  (2009) 
47

>  <SMILES>  (2009) 
C=c1/c(=C/c2[n-]c(=O)[n-]c2[O-])cc(C)n1-c1cnn(C2CCN(C)CC2)c1

>  <Energy>  (2009) 
159.18884300520904

>  <Genealogy>  (2009) 
C=c1c(=Cc2[n-]c(=O)[n-]c2[O-])cc(C)n1-c1cnn(C2CCN(C)CC2)c1 (protonated)
C=c1/c(=C/c2[n-]c(=O)[n-]c2[O-])cc(C)n1-c1cnn(C2CCN(C)CC2)c1 (cis-trans isomerization)
C=c1/c(=C/c2[n-]c(=O)[n-]c2[O-])cc(C)n1-c1cnn(C2CCN(C)CC2)c1 (3D coordinates assigned)
C=c1/c(=C/c2[n-]c(=O)[n-]c2[O-])cc(C)n1-c1cnn(C2CCN(C)CC2)c1 (nonaromatic ring conformer: 159.18884300520904 kcal/mol)

>  <smiles>  (2009) 
C=c1c(=Cc2[nH]c(=O)[nH]c2O)cc(C)n1-c1cnn(C2CCN(C)CC2)c1

>  <score_type>  (2009) 
oracle

>  <origin>  (2009) 
adg

>  <m_score__min__energy>  (2009) 
-16.100000000000001

>  <m_primary>  (2009) 
energy

$$$$
67:0
     RDKit          3D

 36 40  0  0  0  0  0  0  0  0999 V2000
   59.8510   28.7870   44.8740 C   0  0  0  0  0  0  0  0  0  0  0  0
   58.5520   29.0780   44.7130 C   0  0  0  0  0  0  0  0  0  0  0  0
   57.4690   28.1870   44.6460 C   0  0  0  0  0  0  0  0  0  0  0  0
   57.4540   26.8440   44.5540 C   0  0  0  0  0  0  0  0  0  0  0  0
   57.0450   25.9180   45.6190 C   0  0  0  0  0  0  0  0  0  0  0  0
   57.9120   25.2140   46.3700 N   0  0  0  0  0  0  0  0  0  0  0  0
   57.1130   24.5950   47.2670 C   0  0  0  0  0  0  0  0  0  0  0  0
   57.5610   23.8160   48.1490 O   0  0  0  0  0  0  0  0  0  0  0  0
   55.7970   24.8810   47.1500 N   0  0  0  0  0  0  0  0  0  0  0  0
   55.7730   25.7300   46.1110 C   0  0  0  0  0  0  0  0  0  0  0  0
   54.6170   26.3400   45.6370 O   0  0  0  0  0  0  0  0  0  0  0  0
   56.3190   28.8930   44.6700 N   0  0  0  0  0  0  0  0  0  0  0  0
   56.7150   30.1780   44.7030 C   0  0  0  0  0  0  0  0  0  0  0  0
   55.8980   31.1370   44.7270 O   0  0  0  0  0  0  0  0  0  0  0  0
   58.0540   30.3370   44.7170 N   0  0  0  0  0  0  0  0  0  0  0  0
   58.7740   31.6100   44.8620 C   0  0  0  0  0  0  0  0  0  0  0  0
   59.1240   31.8630   46.3060 C   0  0  0  0  0  0  0  0  0  0  0  0
   60.3630   31.4620   46.8240 C   0  0  0  0  0  0  0  0  0  0  0  0
   60.6670   31.6680   48.1730 C   0  0  0  0  0  0  0  0  0  0  0  0
   59.7440   32.2940   49.0310 C   0  0  0  0  0  0  0  0  0  0  0  0
   60.1000   32.4630   50.4710 C   0  0  0  0  0  0  0  0  0  0  0  0
   61.1700   33.0740   50.7440 O   0  0  0  0  0  0  0  0  0  0  0  0
   59.2860   31.9710   51.5700 N   0  0  2  0  0  0  0  0  0  0  0  0
   59.1500   30.4900   51.5210 C   0  0  0  0  0  0  0  0  0  0  0  0
   57.8200   29.9800   52.1100 C   0  0  0  0  0  0  0  0  0  0  0  0
   57.4150   30.8140   53.3440 C   0  0  2  0  0  0  0  0  0  0  0  0
   56.1820   30.3320   54.0240 N   0  0  0  0  0  0  0  0  0  0  0  0
   54.8800   30.5480   53.3490 C   0  0  0  0  0  0  0  0  0  0  0  0
   54.4330   29.3420   52.5040 C   0  0  0  0  0  0  0  0  0  0  0  0
   54.5010   28.0440   53.3080 C   0  0  0  0  0  0  0  0  0  0  0  0
   55.8960   27.8490   53.9030 C   0  0  0  0  0  0  0  0  0  0  0  0
   56.2870   29.0560   54.7630 C   0  0  0  0  0  0  0  0  0  0  0  0
   57.2650   32.3140   52.9860 C   0  0  0  0  0  0  0  0  0  0  0  0
   58.0000   32.6960   51.6870 C   0  0  0  0  0  0  0  0  0  0  0  0
   58.5030   32.6990   48.5030 C   0  0  0  0  0  0  0  0  0  0  0  0
   58.1990   32.4870   47.1540 C   0  0  0  0  0  0  0  0  0  0  0  0
  1  2  2  0
  2  3  1  0
  3  4  2  3
  4  5  1  0
  5  6  1  0
  6  7  1  0
  7  8  2  0
  7  9  1  0
  9 10  1  0
 10 11  1  0
  3 12  1  0
 12 13  1  0
 13 14  2  0
 13 15  1  0
 15 16  1  0
 16 17  1  0
 17 18  2  0
 18 19  1  0
 19 20  2  0
 20 21  1  0
 21 22  2  0
 23 21  1  6
 23 24  1  0
 24 25  1  0
 25 26  1  0
 26 27  1  6
 27 28  1  0
 28 29  1  0
 29 30  1  0
 30 31  1  0
 31 32  1  0
 26 33  1  0
 33 34  1  0
 20 35  1  0
 35 36  2  0
 15  2  1  0
 36 17  1  0
 10  5  2  0
 34 23  1  0
 32 27  1  0
M  CHG  5   6  -1   9  -1  11  -1  12  -1  23   1
M  END
>  <UniqueID>  (2010) 
63

>  <SMILES>  (2010) 
C=c1c(=Cc2[n-]c(=O)[n-]c2[O-])[n-]c(=O)n1Cc1ccc(C(=O)[NH+]2CCC(N3CCCCC3)CC2)cc1

>  <Energy>  (2010) 
165.6318734931002

>  <Genealogy>  (2010) 
C=c1c(=Cc2[n-]c(=O)[n-]c2[O-])[n-]c(=O)n1Cc1ccc(C(=O)[NH+]2CCC(N3CCCCC3)CC2)cc1 (protonated)
C=c1c(=Cc2[n-]c(=O)[n-]c2[O-])[n-]c(=O)n1Cc1ccc(C(=O)[NH+]2CCC(N3CCCCC3)CC2)cc1 (3D coordinates assigned)
C=c1c(=Cc2[n-]c(=O)[n-]c2[O-])[n-]c(=O)n1Cc1ccc(C(=O)[NH+]2CCC(N3CCCCC3)CC2)cc1 (nonaromatic ring conformer: 165.6318734931002 kcal/mol)

>  <smiles>  (2010) 
C=c1c(=Cc2[nH]c(=O)[nH]c2O)[nH]c(=O)n1Cc1ccc(C(=O)N2CCC(N3CCCCC3)CC2)cc1

>  <score_type>  (2010) 
oracle

>  <origin>  (2010) 
adg

>  <m_score__min__energy>  (2010) 
-18.41

>  <m_primary>  (2010) 
energy

$$$$
1:0
     RDKit          3D

 30 33  0  0  0  0  0  0  0  0999 V2000
   58.7260   29.8580   44.2900 C   0  0  0  0  0  0  0  0  0  0  0  0
   58.5670   29.8150   45.6220 C   0  0  0  0  0  0  0  0  0  0  0  0
   58.4890   28.6740   46.4380 C   0  0  0  0  0  0  0  0  0  0  0  0
   58.3670   27.3690   46.1280 C   0  0  0  0  0  0  0  0  0  0  0  0
   57.1070   26.6140   46.0530 C   0  0  0  0  0  0  0  0  0  0  0  0
   56.9690   25.3570   46.5090 N   0  0  0  0  0  0  0  0  0  0  0  0
   55.6470   25.1170   46.3680 C   0  0  0  0  0  0  0  0  0  0  0  0
   55.1210   24.0160   46.6790 O   0  0  0  0  0  0  0  0  0  0  0  0
   54.9310   26.1510   45.8800 N   0  0  0  0  0  0  0  0  0  0  0  0
   55.8670   27.0980   45.7000 C   0  0  0  0  0  0  0  0  0  0  0  0
   55.5870   28.3800   45.2480 O   0  0  0  0  0  0  0  0  0  0  0  0
   58.5270   29.1310   47.7470 C   0  0  0  0  0  0  0  0  0  0  0  0
   58.5690   30.5090   47.6890 C   0  0  0  0  0  0  0  0  0  0  0  0
   58.5300   31.4220   48.8750 C   0  0  0  0  0  0  0  0  0  0  0  0
   58.5710   30.9210   46.4040 N   0  0  0  0  0  0  0  0  0  0  0  0
   58.5900   32.2930   45.9690 C   0  0  0  0  0  0  0  0  0  0  0  0
   57.4930   32.7800   45.2460 C   0  0  0  0  0  0  0  0  0  0  0  0
   57.4580   34.1080   44.8210 C   0  0  0  0  0  0  0  0  0  0  0  0
   58.5190   34.9620   45.1160 C   0  0  0  0  0  0  0  0  0  0  0  0
   59.6210   34.4910   45.8330 C   0  0  0  0  0  0  0  0  0  0  0  0
   59.6810   33.1530   46.2690 C   0  0  0  0  0  0  0  0  0  0  0  0
   60.8780   32.6770   47.0170 C   0  0  0  0  0  0  0  0  0  0  0  0
   61.6160   33.4580   47.8350 N   0  0  0  0  0  0  0  0  0  0  0  0
   62.6600   32.7960   48.4000 C   0  0  0  0  0  0  0  0  0  0  0  0
   63.5950   33.4850   49.2990 C   0  0  0  0  0  0  0  0  0  0  0  0
   63.1730   34.3500   50.1140 O   0  0  0  0  0  0  0  0  0  0  0  0
   64.9530   33.1580   49.2450 O   0  0  0  0  0  0  0  0  0  0  0  0
   65.5710   32.2800   50.1770 C   0  0  0  0  0  0  0  0  0  0  0  0
   62.7710   31.4560   48.0410 C   0  0  0  0  0  0  0  0  0  0  0  0
   61.5120   31.1140   46.9800 S   0  0  0  0  0  0  0  0  0  0  0  0
  1  2  2  0
  2  3  1  0
  3  4  2  3
  4  5  1  0
  5  6  1  0
  6  7  1  0
  7  8  2  0
  7  9  1  0
  9 10  1  0
 10 11  1  0
  3 12  1  0
 12 13  2  0
 13 14  1  0
 13 15  1  0
 15 16  1  0
 16 17  2  0
 17 18  1  0
 18 19  2  0
 19 20  1  0
 20 21  2  0
 21 22  1  0
 22 23  2  0
 23 24  1  0
 24 25  1  0
 25 26  2  0
 25 27  1  0
 27 28  1  0
 24 29  2  0
 29 30  1  0
 15  2  1  0
 21 16  1  0
 30 22  1  0
 10  5  2  0
M  CHG  3   6  -1   9  -1  11  -1
M  END
>  <UniqueID>  (2011) 
2

>  <SMILES>  (2011) 
C=c1c(=Cc2[n-]c(=O)[n-]c2[O-])cc(C)n1-c1ccccc1-c1nc(C(=O)OC)cs1

>  <Energy>  (2011) 
150.83249932860005

>  <Genealogy>  (2011) 
C=c1c(=Cc2[n-]c(=O)[n-]c2[O-])cc(C)n1-c1ccccc1-c1nc(C(=O)OC)cs1 (protonated)
C=c1c(=Cc2[n-]c(=O)[n-]c2[O-])cc(C)n1-c1ccccc1-c1nc(C(=O)OC)cs1 (3D coordinates assigned)
C=c1c(=Cc2[n-]c(=O)[n-]c2[O-])cc(C)n1-c1ccccc1-c1nc(C(=O)OC)cs1 (optimized conformer: 150.83249932860005 kcal/mol)

>  <smiles>  (2011) 
C=c1c(=Cc2[nH]c(=O)[nH]c2O)cc(C)n1-c1ccccc1-c1nc(C(=O)OC)cs1

>  <score_type>  (2011) 
oracle

>  <origin>  (2011) 
adg

>  <m_score__min__energy>  (2011) 
-16.739999999999998

>  <m_primary>  (2011) 
energy

$$$$
3:0
     RDKit          3D

 29 32  0  0  0  0  0  0  0  0999 V2000
   57.5700   30.0480   44.0310 C   0  0  0  0  0  0  0  0  0  0  0  0
   58.1530   29.6030   45.1500 C   0  0  0  0  0  0  0  0  0  0  0  0
   58.2230   28.2840   45.6010 C   0  0  0  0  0  0  0  0  0  0  0  0
   57.6780   27.1950   45.0280 C   0  0  0  0  0  0  0  0  0  0  0  0
   57.1430   26.0470   45.7830 C   0  0  0  0  0  0  0  0  0  0  0  0
   57.9140   25.0550   46.2610 N   0  0  0  0  0  0  0  0  0  0  0  0
   57.0420   24.2790   46.9410 C   0  0  0  0  0  0  0  0  0  0  0  0
   57.3910   23.2240   47.5310 O   0  0  0  0  0  0  0  0  0  0  0  0
   55.7680   24.7280   46.9470 N   0  0  0  0  0  0  0  0  0  0  0  0
   55.8500   25.8550   46.2200 C   0  0  0  0  0  0  0  0  0  0  0  0
   54.7750   26.7090   46.0060 O   0  0  0  0  0  0  0  0  0  0  0  0
   58.9240   28.3250   46.7990 C   0  0  0  0  0  0  0  0  0  0  0  0
   59.2730   29.6480   47.0060 C   0  0  0  0  0  0  0  0  0  0  0  0
   60.0270   30.1890   48.1570 C   0  0  0  0  0  0  0  0  0  0  0  0
   59.5750   29.9740   49.3140 O   0  0  0  0  0  0  0  0  0  0  0  0
   61.2270   30.9790   47.9940 N   0  0  0  0  0  0  0  0  0  0  0  0
   62.0930   31.2390   49.1470 C   0  0  0  0  0  0  0  0  0  0  0  0
   61.8510   32.6660   49.6440 C   0  0  0  0  0  0  0  0  0  0  0  0
   61.8150   33.7150   48.4940 C   0  0  0  0  0  0  0  0  0  0  0  0
   60.5370   34.5980   48.5060 C   0  0  0  0  0  0  0  0  0  0  0  0
   59.5540   34.3230   47.3910 C   0  0  0  0  0  0  0  0  0  0  0  0
   58.4460   33.4830   47.5970 C   0  0  0  0  0  0  0  0  0  0  0  0
   57.5520   33.2230   46.5550 C   0  0  0  0  0  0  0  0  0  0  0  0
   57.7470   33.8090   45.3010 C   0  0  0  0  0  0  0  0  0  0  0  0
   58.8280   34.6690   45.0940 C   0  0  0  0  0  0  0  0  0  0  0  0
   59.7200   34.9370   46.1360 C   0  0  0  0  0  0  0  0  0  0  0  0
   62.1560   33.1250   47.1000 C   0  0  0  0  0  0  0  0  0  0  0  0
   61.4420   31.7920   46.7860 C   0  0  0  0  0  0  0  0  0  0  0  0
   58.7890   30.4190   46.0130 N   0  0  0  0  0  0  0  0  0  0  0  0
  1  2  2  0
  2  3  1  0
  3  4  2  0
  4  5  1  0
  5  6  1  0
  6  7  1  0
  7  8  2  0
  7  9  1  0
  9 10  1  0
 10 11  1  0
  3 12  1  0
 12 13  2  0
 13 14  1  0
 14 15  2  0
 14 16  1  0
 16 17  1  0
 17 18  1  0
 18 19  1  0
 19 20  1  0
 20 21  1  0
 21 22  2  0
 22 23  1  0
 23 24  2  0
 24 25  1  0
 25 26  2  0
 19 27  1  0
 27 28  1  0
 13 29  1  0
 29  2  1  0
 10  5  2  0
 28 16  1  0
 26 21  1  0
M  CHG  3   6  -1   9  -1  11  -1
M  END
>  <UniqueID>  (2012) 
4

>  <SMILES>  (2012) 
C=c1[nH]c(C(=O)N2CCC(Cc3ccccc3)CC2)c/c1=C\c1[n-]c(=O)[n-]c1[O-]

>  <Energy>  (2012) 
121.49138854928728

>  <Genealogy>  (2012) 
C=c1[nH]c(C(=O)N2CCC(Cc3ccccc3)CC2)cc1=Cc1[n-]c(=O)[n-]c1[O-] (protonated)
C=c1[nH]c(C(=O)N2CCC(Cc3ccccc3)CC2)c/c1=C\c1[n-]c(=O)[n-]c1[O-] (cis-trans isomerization)
C=c1[nH]c(C(=O)N2CCC(Cc3ccccc3)CC2)c/c1=C\c1[n-]c(=O)[n-]c1[O-] (3D coordinates assigned)
C=c1[nH]c(C(=O)N2CCC(Cc3ccccc3)CC2)c/c1=C\c1[n-]c(=O)[n-]c1[O-] (nonaromatic ring conformer: 121.49138854928728 kcal/mol)

>  <smiles>  (2012) 
C=c1[nH]c(C(=O)N2CCC(Cc3ccccc3)CC2)cc1=Cc1[nH]c(=O)[nH]c1O

>  <score_type>  (2012) 
oracle

>  <origin>  (2012) 
adg

>  <m_score__min__energy>  (2012) 
-18.140000000000001

>  <m_primary>  (2012) 
energy

$$$$
4:0
     RDKit          3D

 35 38  0  0  0  0  0  0  0  0999 V2000
   57.0140   28.2750   44.6570 C   0  0  0  0  0  0  0  0  0  0  0  0
   57.7710   27.4230   45.3660 C   0  0  0  0  0  0  0  0  0  0  0  0
   57.8120   26.0230   45.2500 C   0  0  0  0  0  0  0  0  0  0  0  0
   57.0170   25.1640   44.5830 C   0  0  0  0  0  0  0  0  0  0  0  0
   55.7360   24.6240   45.0670 C   0  0  0  0  0  0  0  0  0  0  0  0
   55.2890   23.3770   44.8220 N   0  0  0  0  0  0  0  0  0  0  0  0
   54.0270   23.3970   45.3040 C   0  0  0  0  0  0  0  0  0  0  0  0
   53.2740   22.3900   45.2750 O   0  0  0  0  0  0  0  0  0  0  0  0
   53.6310   24.5860   45.8060 N   0  0  0  0  0  0  0  0  0  0  0  0
   54.7200   25.3530   45.6350 C   0  0  0  0  0  0  0  0  0  0  0  0
   54.7800   26.6980   45.9830 O   0  0  0  0  0  0  0  0  0  0  0  0
   58.8840   25.6030   46.0220 C   0  0  0  0  0  0  0  0  0  0  0  0
   59.4070   26.7270   46.6280 C   0  0  0  0  0  0  0  0  0  0  0  0
   60.5890   26.7340   47.5480 C   0  0  0  0  0  0  0  0  0  0  0  0
   58.7300   27.8290   46.2380 N   0  0  0  0  0  0  0  0  0  0  0  0
   59.0570   29.1770   46.6100 C   0  0  0  0  0  0  0  0  0  0  0  0
   59.3130   29.4930   47.9500 C   0  0  0  0  0  0  0  0  0  0  0  0
   59.6490   30.8000   48.3140 C   0  0  0  0  0  0  0  0  0  0  0  0
   59.7230   31.8130   47.3410 C   0  0  0  0  0  0  0  0  0  0  0  0
   60.0960   33.1940   47.7320 C   0  0  0  0  0  0  0  0  0  0  0  0
   59.2580   34.1250   47.5810 O   0  0  0  0  0  0  0  0  0  0  0  0
   61.3840   33.4940   48.3030 N   0  0  0  0  0  0  0  0  0  0  0  0
   62.5940   33.4670   47.4780 C   0  0  0  0  0  0  0  0  0  0  0  0
   61.4870   33.8970   49.7110 C   0  0  0  0  0  0  0  0  0  0  0  0
   61.5310   32.6690   50.6320 C   0  0  0  0  0  0  0  0  0  0  0  0
   60.4130   32.6940   51.6000 N   0  0  0  0  0  0  0  0  0  0  0  0
   59.1900   33.3370   51.0390 C   0  0  0  0  0  0  0  0  0  0  0  0
   58.1070   32.3480   50.5910 C   0  0  0  0  0  0  0  0  0  0  0  0
   57.5440   31.4300   52.0060 S   0  0  0  0  0  0  0  0  0  0  0  0
   57.0580   30.0720   51.5840 O   0  0  0  0  0  0  0  0  0  0  0  0
   56.4420   32.1710   52.7110 O   0  0  0  0  0  0  0  0  0  0  0  0
   58.9570   31.2800   53.0750 C   0  0  0  0  0  0  0  0  0  0  0  0
   60.2230   31.3580   52.2200 C   0  0  0  0  0  0  0  0  0  0  0  0
   59.4770   31.4860   45.9950 C   0  0  0  0  0  0  0  0  0  0  0  0
   59.1490   30.1770   45.6340 C   0  0  0  0  0  0  0  0  0  0  0  0
  1  2  2  0
  2  3  1  0
  3  4  2  3
  4  5  1  0
  5  6  1  0
  6  7  1  0
  7  8  2  0
  7  9  1  0
  9 10  1  0
 10 11  1  0
  3 12  1  0
 12 13  2  0
 13 14  1  0
 13 15  1  0
 15 16  1  0
 16 17  2  0
 17 18  1  0
 18 19  2  0
 19 20  1  0
 20 21  2  0
 20 22  1  0
 22 23  1  0
 22 24  1  0
 24 25  1  0
 25 26  1  0
 26 27  1  0
 27 28  1  0
 28 29  1  0
 29 30  2  0
 29 31  2  0
 29 32  1  0
 32 33  1  0
 19 34  1  0
 34 35  2  0
 15  2  1  0
 35 16  1  0
 10  5  2  0
 33 26  1  0
M  CHG  3   6  -1   9  -1  11  -1
M  END
>  <UniqueID>  (2013) 
5

>  <SMILES>  (2013) 
C=c1c(=Cc2[n-]c(=O)[n-]c2[O-])cc(C)n1-c1ccc(C(=O)N(C)CCN2CCS(=O)(=O)CC2)cc1

>  <Energy>  (2013) 
141.43606159322735

>  <Genealogy>  (2013) 
C=c1c(=Cc2[n-]c(=O)[n-]c2[O-])cc(C)n1-c1ccc(C(=O)N(C)CCN2CCS(=O)(=O)CC2)cc1 (protonated)
C=c1c(=Cc2[n-]c(=O)[n-]c2[O-])cc(C)n1-c1ccc(C(=O)N(C)CCN2CCS(=O)(=O)CC2)cc1 (3D coordinates assigned)
C=c1c(=Cc2[n-]c(=O)[n-]c2[O-])cc(C)n1-c1ccc(C(=O)N(C)CCN2CCS(=O)(=O)CC2)cc1 (nonaromatic ring conformer: 141.43606159322735 kcal/mol)

>  <smiles>  (2013) 
C=c1c(=Cc2[nH]c(=O)[nH]c2O)cc(C)n1-c1ccc(C(=O)N(C)CCN2CCS(=O)(=O)CC2)cc1

>  <score_type>  (2013) 
oracle

>  <origin>  (2013) 
adg

>  <m_score__min__energy>  (2013) 
-16.989999999999998

>  <m_primary>  (2013) 
energy

$$$$
6:0
     RDKit          3D

 32 35  0  0  0  0  0  0  0  0999 V2000
   57.0740   22.8940   44.6050 O   0  0  0  0  0  0  0  0  0  0  0  0
   57.1400   24.0760   45.0310 C   0  0  0  0  0  0  0  0  0  0  0  0
   56.0020   24.7680   45.2870 N   0  0  0  0  0  0  0  0  0  0  0  0
   56.0460   26.0460   45.7450 C   0  0  0  0  0  0  0  0  0  0  0  0
   54.8570   26.7150   46.0120 O   0  0  0  0  0  0  0  0  0  0  0  0
   57.2860   26.6770   45.9570 C   0  0  0  0  0  0  0  0  0  0  0  0
   57.3520   28.1140   46.4370 C   0  0  0  0  0  0  0  0  0  0  0  0
   57.4160   29.1670   45.3380 C   0  0  0  0  0  0  0  0  0  0  0  0
   56.7250   28.9750   44.1210 C   0  0  0  0  0  0  0  0  0  0  0  0
   56.7600   29.9370   43.1130 C   0  0  0  0  0  0  0  0  0  0  0  0
   57.4540   31.1310   43.3050 C   0  0  0  0  0  0  0  0  0  0  0  0
   57.4890   32.1020   42.3060 O   0  0  0  0  0  0  0  0  0  0  0  0
   58.1070   31.3640   44.5130 C   0  0  0  0  0  0  0  0  0  0  0  0
   58.1020   30.4030   45.5420 C   0  0  0  0  0  0  0  0  0  0  0  0
   58.7660   30.7760   46.8570 C   0  0  0  0  0  0  0  0  0  0  0  0
   58.5810   32.2590   47.2360 C   0  0  0  0  0  0  0  0  0  0  0  0
   59.6170   33.2060   46.6040 C   0  0  0  0  0  0  0  0  0  0  0  0
   60.8860   33.2560   47.3610 N   0  0  0  0  0  0  0  0  0  0  0  0
   61.9700   33.7970   46.5150 C   0  0  0  0  0  0  0  0  0  0  0  0
   63.3200   33.5060   47.1800 C   0  0  0  0  0  0  0  0  0  0  0  0
   63.1880   33.5250   48.6400 N   0  0  0  0  0  0  0  0  0  0  0  0
   64.1260   32.7880   49.4460 C   0  0  0  0  0  0  0  0  0  0  0  0
   63.7120   31.6960   50.2280 C   0  0  0  0  0  0  0  0  0  0  0  0
   64.6590   30.9840   50.9670 C   0  0  0  0  0  0  0  0  0  0  0  0
   66.0030   31.3550   50.9160 C   0  0  0  0  0  0  0  0  0  0  0  0
   66.3840   32.4310   50.1150 C   0  0  0  0  0  0  0  0  0  0  0  0
   65.4490   33.1130   49.4020 N   0  0  0  0  0  0  0  0  0  0  0  0
   62.1430   34.3720   49.2310 C   0  0  0  0  0  0  0  0  0  0  0  0
   60.7670   34.0400   48.6150 C   0  0  0  0  0  0  0  0  0  0  0  0
   58.4510   25.9310   45.6890 C   0  0  0  0  0  0  0  0  0  0  0  0
   59.5930   26.4290   45.8690 O   0  0  0  0  0  0  0  0  0  0  0  0
   58.3490   24.6550   45.2350 N   0  0  0  0  0  0  0  0  0  0  0  0
  1  2  2  0
  2  3  1  0
  3  4  1  0
  4  5  1  0
  4  6  2  0
  6  7  1  0
  7  8  1  0
  8  9  2  0
  9 10  1  0
 10 11  2  0
 11 12  1  0
 11 13  1  0
 13 14  2  0
 14 15  1  0
 15 16  1  0
 16 17  1  0
 17 18  1  0
 18 19  1  0
 19 20  1  0
 20 21  1  0
 21 22  1  0
 22 23  2  0
 23 24  1  0
 24 25  2  0
 25 26  1  0
 26 27  2  0
 21 28  1  0
 28 29  1  0
  6 30  1  0
 30 31  2  0
 30 32  1  0
 32  2  1  0
 14  8  1  0
 29 18  1  0
 27 22  1  0
M  CHG  3   3  -1   5  -1  32  -1
M  END
>  <UniqueID>  (2014) 
6

>  <SMILES>  (2014) 
O=c1[n-]c([O-])c(Cc2ccc(O)cc2CCCN2CCN(c3ccccn3)CC2)c(=O)[n-]1

>  <Energy>  (2014) 
71.65666726574287

>  <Genealogy>  (2014) 
O=c1[n-]c([O-])c(Cc2ccc(O)cc2CCCN2CCN(c3ccccn3)CC2)c(=O)[n-]1 (protonated)
O=c1[n-]c([O-])c(Cc2ccc(O)cc2CCCN2CCN(c3ccccn3)CC2)c(=O)[n-]1 (3D coordinates assigned)
O=c1[n-]c([O-])c(Cc2ccc(O)cc2CCCN2CCN(c3ccccn3)CC2)c(=O)[n-]1 (nonaromatic ring conformer: 71.65666726574287 kcal/mol)

>  <smiles>  (2014) 
O=c1[nH]c(O)c(Cc2ccc(O)cc2CCCN2CCN(c3ccccn3)CC2)c(=O)[nH]1

>  <score_type>  (2014) 
oracle

>  <origin>  (2014) 
adg

>  <m_score__min__energy>  (2014) 
-16.170000000000002

>  <m_primary>  (2014) 
energy

$$$$
13:0
     RDKit          3D

 35 38  0  0  0  0  0  0  0  0999 V2000
   65.7800   33.3720   51.0030 C   0  0  0  0  0  0  0  0  0  0  0  0
   64.4430   33.7730   50.5590 N   0  0  0  0  0  0  0  0  0  0  0  0
   63.6000   34.5890   51.4460 C   0  0  0  0  0  0  0  0  0  0  0  0
   64.0190   33.4530   49.2160 C   0  0  0  0  0  0  0  0  0  0  0  0
   64.8750   33.0980   48.3590 O   0  0  0  0  0  0  0  0  0  0  0  0
   62.6080   33.5830   48.7910 C   0  0  0  0  0  0  0  0  0  0  0  0
   62.2760   33.8200   47.4490 C   0  0  0  0  0  0  0  0  0  0  0  0
   60.9380   33.8570   47.0500 C   0  0  0  0  0  0  0  0  0  0  0  0
   59.9130   33.6710   47.9910 C   0  0  0  0  0  0  0  0  0  0  0  0
   58.4800   33.5760   47.5340 C   0  0  0  0  0  0  0  0  0  0  0  0
   58.3140   32.4270   46.6200 N   0  0  0  0  0  0  0  0  0  0  0  0
   57.3970   32.4960   45.5990 C   0  0  0  0  0  0  0  0  0  0  0  0
   56.7430   33.5530   45.3920 O   0  0  0  0  0  0  0  0  0  0  0  0
   57.1740   31.4260   44.7970 N   0  0  0  0  0  0  0  0  0  0  0  0
   57.8510   30.2660   44.9600 C   0  0  0  0  0  0  0  0  0  0  0  0
   57.5950   29.1820   44.1130 C   0  0  0  0  0  0  0  0  0  0  0  0
   58.3310   27.9920   44.2390 C   0  0  0  0  0  0  0  0  0  0  0  0
   58.0920   26.8740   43.3100 C   0  0  0  0  0  0  0  0  0  0  0  0
   58.2160   27.0530   42.0710 O   0  0  0  0  0  0  0  0  0  0  0  0
   57.6870   25.5990   43.8170 N   0  0  0  0  0  0  0  0  0  0  0  0
   57.3230   25.3780   45.2100 C   0  0  0  0  0  0  0  0  0  0  0  0
   56.0120   24.6460   45.2730 C   0  0  0  0  0  0  0  0  0  0  0  0
   55.9660   23.2910   44.8990 C   0  0  0  0  0  0  0  0  0  0  0  0
   54.7520   22.5970   44.9010 C   0  0  0  0  0  0  0  0  0  0  0  0
   53.5730   23.2510   45.2680 C   0  0  0  0  0  0  0  0  0  0  0  0
   53.6040   24.5990   45.6300 C   0  0  0  0  0  0  0  0  0  0  0  0
   54.8160   25.3010   45.6320 C   0  0  0  0  0  0  0  0  0  0  0  0
   54.8180   26.6440   45.9910 O   0  0  0  0  0  0  0  0  0  0  0  0
   59.3170   27.8960   45.2330 C   0  0  0  0  0  0  0  0  0  0  0  0
   59.5520   28.9660   46.1040 C   0  0  0  0  0  0  0  0  0  0  0  0
   58.8210   30.1630   45.9710 C   0  0  0  0  0  0  0  0  0  0  0  0
   59.0300   31.2680   46.8130 C   0  0  0  0  0  0  0  0  0  0  0  0
   59.8800   31.1920   47.7470 O   0  0  0  0  0  0  0  0  0  0  0  0
   60.2460   33.4800   49.3410 C   0  0  0  0  0  0  0  0  0  0  0  0
   61.5840   33.4480   49.7400 C   0  0  0  0  0  0  0  0  0  0  0  0
  1  2  1  0
  2  3  1  0
  2  4  1  0
  4  5  2  0
  4  6  1  0
  6  7  2  0
  7  8  1  0
  8  9  2  0
  9 10  1  0
 10 11  1  0
 11 12  1  0
 12 13  2  0
 12 14  1  0
 14 15  1  0
 15 16  2  0
 16 17  1  0
 17 18  1  0
 18 19  2  0
 18 20  1  0
 20 21  1  0
 21 22  1  0
 22 23  2  0
 23 24  1  0
 24 25  2  0
 25 26  1  0
 26 27  2  0
 27 28  1  0
 17 29  2  0
 29 30  1  0
 30 31  2  0
 31 32  1  0
 32 33  2  0
  9 34  1  0
 34 35  2  0
 35  6  1  0
 32 11  1  0
 31 15  1  0
 27 22  1  0
M  CHG  3  14  -1  20  -1  28  -1
M  END
>  <UniqueID>  (2015) 
13

>  <SMILES>  (2015) 
CN(C)C(=O)c1ccc(Cn2c(=O)[n-]c3cc(C(=O)[N-]Cc4ccccc4[O-])ccc3c2=O)cc1

>  <Energy>  (2015) 
73.39893789262749

>  <Genealogy>  (2015) 
CN(C)C(=O)c1ccc(Cn2c(=O)[n-]c3cc(C(=O)[N-]Cc4ccccc4[O-])ccc3c2=O)cc1 (protonated)
CN(C)C(=O)c1ccc(Cn2c(=O)[n-]c3cc(C(=O)[N-]Cc4ccccc4[O-])ccc3c2=O)cc1 (3D coordinates assigned)
CN(C)C(=O)c1ccc(Cn2c(=O)[n-]c3cc(C(=O)[N-]Cc4ccccc4[O-])ccc3c2=O)cc1 (optimized conformer: 73.39893789262749 kcal/mol)

>  <smiles>  (2015) 
CN(C)C(=O)c1ccc(Cn2c(=O)[nH]c3cc(C(=O)NCc4ccccc4O)ccc3c2=O)cc1

>  <score_type>  (2015) 
oracle

>  <origin>  (2015) 
adg

>  <m_score__min__energy>  (2015) 
-16.390000000000001

>  <m_primary>  (2015) 
energy

$$$$
16:0
     RDKit          3D

 26 28  0  0  0  0  0  0  0  0999 V2000
   58.9820   33.8300   44.3240 N   0  0  0  0  0  0  0  0  0  0  0  0
   57.8550   33.3490   45.5410 S   0  0  0  0  0  0  0  0  0  0  0  0
   56.6870   34.2960   45.5450 O   0  0  0  0  0  0  0  0  0  0  0  0
   57.3510   31.9660   45.2370 O   0  0  0  0  0  0  0  0  0  0  0  0
   58.6450   33.3630   47.1140 C   0  0  0  0  0  0  0  0  0  0  0  0
   59.8720   34.0180   47.2780 C   0  0  0  0  0  0  0  0  0  0  0  0
   60.5040   34.0190   48.5220 C   0  0  0  0  0  0  0  0  0  0  0  0
   59.9190   33.3630   49.6080 C   0  0  0  0  0  0  0  0  0  0  0  0
   58.6910   32.6910   49.4610 C   0  0  0  0  0  0  0  0  0  0  0  0
   58.0880   31.9960   50.6250 C   0  0  0  0  0  0  0  0  0  0  0  0
   58.0090   32.4540   51.9270 C   0  0  0  0  0  0  0  0  0  0  0  0
   57.3910   31.5310   52.6840 N   0  0  0  0  0  0  0  0  0  0  0  0
   57.1130   30.5370   51.8190 C   0  0  0  0  0  0  0  0  0  0  0  0
   56.5070   29.4490   52.1910 N   0  0  0  0  0  0  0  0  0  0  0  0
   55.7480   29.2710   53.3970 C   0  0  0  0  0  0  0  0  0  0  0  0
   56.2140   29.6100   54.5190 O   0  0  0  0  0  0  0  0  0  0  0  0
   54.3610   28.7190   53.3130 C   0  0  0  0  0  0  0  0  0  0  0  0
   53.4050   29.7940   52.8740 C   0  0  0  0  0  0  0  0  0  0  0  0
   53.4220   30.2600   51.5480 C   0  0  0  0  0  0  0  0  0  0  0  0
   52.5100   31.2340   51.1320 C   0  0  0  0  0  0  0  0  0  0  0  0
   51.5670   31.7420   52.0320 C   0  0  0  0  0  0  0  0  0  0  0  0
   50.6620   32.7100   51.6170 O   0  0  0  0  0  0  0  0  0  0  0  0
   51.5360   31.2740   53.3500 C   0  0  0  0  0  0  0  0  0  0  0  0
   52.4470   30.3000   53.7690 C   0  0  0  0  0  0  0  0  0  0  0  0
   57.5210   30.7770   50.5540 N   0  0  0  0  0  0  0  0  0  0  0  0
   58.0610   32.6970   48.2010 C   0  0  0  0  0  0  0  0  0  0  0  0
  1  2  1  0
  2  3  2  0
  2  4  2  0
  2  5  1  0
  5  6  2  0
  6  7  1  0
  7  8  2  0
  8  9  1  0
  9 10  1  0
 10 11  2  0
 11 12  1  0
 12 13  1  0
 13 14  2  3
 14 15  1  0
 15 16  2  0
 15 17  1  0
 17 18  1  0
 18 19  2  0
 19 20  1  0
 20 21  2  0
 21 22  1  0
 21 23  1  0
 23 24  2  0
 13 25  1  0
  9 26  2  0
 26  5  1  0
 25 10  1  0
 24 18  1  0
M  CHG  4   1  -1  12  -1  22  -1  25  -1
M  END
>  <UniqueID>  (2016) 
16

>  <SMILES>  (2016) 
[NH-]S(=O)(=O)c1cccc(-c2c[n-]c(=NC(=O)Cc3ccc([O-])cc3)[n-]2)c1

>  <Energy>  (2016) 
69.64536204635579

>  <Genealogy>  (2016) 
[NH-]S(=O)(=O)c1cccc(-c2c[n-]c(=NC(=O)Cc3ccc([O-])cc3)[n-]2)c1 (protonated)
[NH-]S(=O)(=O)c1cccc(-c2c[n-]c(=NC(=O)Cc3ccc([O-])cc3)[n-]2)c1 (3D coordinates assigned)
[NH-]S(=O)(=O)c1cccc(-c2c[n-]c(=NC(=O)Cc3ccc([O-])cc3)[n-]2)c1 (optimized conformer: 69.64536204635579 kcal/mol)

>  <smiles>  (2016) 
NS(=O)(=O)c1cccc(-c2c[nH]c(=NC(=O)Cc3ccc(O)cc3)[nH]2)c1

>  <score_type>  (2016) 
oracle

>  <origin>  (2016) 
adg

>  <m_score__min__energy>  (2016) 
-16.27

>  <m_primary>  (2016) 
energy

$$$$
18:0
     RDKit          3D

 35 38  0  0  0  0  0  0  0  0999 V2000
   60.0170   35.7790   46.0730 O   0  0  0  0  0  0  0  0  0  0  0  0
   59.7650   34.5780   45.7870 C   0  0  0  0  0  0  0  0  0  0  0  0
   59.6940   34.2130   44.4430 O   0  0  0  0  0  0  0  0  0  0  0  0
   59.5230   33.5670   46.8490 C   0  0  0  0  0  0  0  0  0  0  0  0
   60.2720   33.6410   48.0390 C   0  0  0  0  0  0  0  0  0  0  0  0
   60.0790   32.7190   49.0670 C   0  0  0  0  0  0  0  0  0  0  0  0
   59.1410   31.6900   48.9230 C   0  0  0  0  0  0  0  0  0  0  0  0
   58.9360   30.4760   50.1900 S   0  0  0  0  0  0  0  0  0  0  0  0
   59.9710   30.7000   51.2600 O   0  0  0  0  0  0  0  0  0  0  0  0
   59.1640   29.1100   49.6020 O   0  0  0  0  0  0  0  0  0  0  0  0
   57.3480   30.5490   50.9160 N   0  0  0  0  0  0  0  0  0  0  0  0
   57.2460   29.5970   52.0280 C   0  0  0  0  0  0  0  0  0  0  0  0
   55.7700   29.4330   52.3810 C   0  0  0  0  0  0  0  0  0  0  0  0
   55.0690   30.7290   52.3570 N   0  0  0  0  0  0  0  0  0  0  0  0
   53.6530   30.7670   52.6360 C   0  0  0  0  0  0  0  0  0  0  0  0
   53.0790   29.8780   53.5640 C   0  0  0  0  0  0  0  0  0  0  0  0
   51.7080   29.9250   53.8380 C   0  0  0  0  0  0  0  0  0  0  0  0
   50.8940   30.8560   53.1860 C   0  0  0  0  0  0  0  0  0  0  0  0
   51.4520   31.7480   52.2630 C   0  0  0  0  0  0  0  0  0  0  0  0
   50.6470   32.6800   51.6190 O   0  0  0  0  0  0  0  0  0  0  0  0
   52.8240   31.7020   51.9850 C   0  0  0  0  0  0  0  0  0  0  0  0
   55.8330   31.9890   52.3250 C   0  0  0  0  0  0  0  0  0  0  0  0
   57.0470   31.9220   51.3690 C   0  0  0  0  0  0  0  0  0  0  0  0
   58.3880   31.6030   47.7480 C   0  0  0  0  0  0  0  0  0  0  0  0
   58.5480   32.5430   46.7180 C   0  0  0  0  0  0  0  0  0  0  0  0
   57.7360   32.4500   45.5390 N   0  0  0  0  0  0  0  0  0  0  0  0
   57.4320   30.9570   44.7090 S   0  0  0  0  0  0  0  0  0  0  0  0
   55.9650   30.6260   44.8340 O   0  0  0  0  0  0  0  0  0  0  0  0
   57.7610   31.1300   43.2500 O   0  0  0  0  0  0  0  0  0  0  0  0
   58.4130   29.6470   45.3700 C   0  0  0  0  0  0  0  0  0  0  0  0
   59.8050   29.6270   45.1760 C   0  0  0  0  0  0  0  0  0  0  0  0
   60.5660   28.5490   45.6450 C   0  0  0  0  0  0  0  0  0  0  0  0
   59.9420   27.4900   46.3160 C   0  0  0  0  0  0  0  0  0  0  0  0
   58.5580   27.5150   46.5360 C   0  0  0  0  0  0  0  0  0  0  0  0
   57.7940   28.5910   46.0620 C   0  0  0  0  0  0  0  0  0  0  0  0
  1  2  2  0
  2  3  1  0
  2  4  1  0
  4  5  2  0
  5  6  1  0
  6  7  2  0
  7  8  1  0
  8  9  2  0
  8 10  2  0
  8 11  1  0
 11 12  1  0
 12 13  1  0
 13 14  1  0
 14 15  1  0
 15 16  2  0
 16 17  1  0
 17 18  2  0
 18 19  1  0
 19 20  1  0
 19 21  2  0
 14 22  1  0
 22 23  1  0
  7 24  1  0
 24 25  2  0
 25 26  1  0
 26 27  1  0
 27 28  2  0
 27 29  2  0
 27 30  1  0
 30 31  2  0
 31 32  1  0
 32 33  2  0
 33 34  1  0
 34 35  2  0
 25  4  1  0
 35 30  1  0
 23 11  1  0
 21 15  1  0
M  CHG  3   3  -1  20  -1  26  -1
M  END
>  <UniqueID>  (2017) 
18

>  <SMILES>  (2017) 
O=C([O-])c1ccc(S(=O)(=O)N2CCN(c3cccc([O-])c3)CC2)cc1[N-]S(=O)(=O)c1ccccc1

>  <Energy>  (2017) 
74.12148681982885

>  <Genealogy>  (2017) 
O=C([O-])c1ccc(S(=O)(=O)N2CCN(c3cccc([O-])c3)CC2)cc1[N-]S(=O)(=O)c1ccccc1 (protonated)
O=C([O-])c1ccc(S(=O)(=O)N2CCN(c3cccc([O-])c3)CC2)cc1[N-]S(=O)(=O)c1ccccc1 (3D coordinates assigned)
O=C([O-])c1ccc(S(=O)(=O)N2CCN(c3cccc([O-])c3)CC2)cc1[N-]S(=O)(=O)c1ccccc1 (nonaromatic ring conformer: 74.12148681982885 kcal/mol)

>  <smiles>  (2017) 
O=C(O)c1ccc(S(=O)(=O)N2CCN(c3cccc(O)c3)CC2)cc1NS(=O)(=O)c1ccccc1

>  <score_type>  (2017) 
oracle

>  <origin>  (2017) 
adg

>  <m_score__min__energy>  (2017) 
-15.84

>  <m_primary>  (2017) 
energy

$$$$
24:0
     RDKit          3D

 34 37  0  0  0  0  0  0  0  0999 V2000
   59.5590   27.7300   47.5840 C   0  0  0  0  0  0  0  0  0  0  0  0
   59.0090   28.5490   46.6720 C   0  0  0  0  0  0  0  0  0  0  0  0
   58.1190   28.1950   45.6450 C   0  0  0  0  0  0  0  0  0  0  0  0
   57.7500   26.9900   45.1710 C   0  0  0  0  0  0  0  0  0  0  0  0
   57.1460   25.9090   45.9630 C   0  0  0  0  0  0  0  0  0  0  0  0
   57.7920   24.7940   46.3550 N   0  0  0  0  0  0  0  0  0  0  0  0
   56.8170   24.0530   46.9220 C   0  0  0  0  0  0  0  0  0  0  0  0
   57.0330   22.9220   47.4290 O   0  0  0  0  0  0  0  0  0  0  0  0
   55.5880   24.6150   46.8940 N   0  0  0  0  0  0  0  0  0  0  0  0
   55.8140   25.7820   46.2710 C   0  0  0  0  0  0  0  0  0  0  0  0
   54.8220   26.7150   45.9910 O   0  0  0  0  0  0  0  0  0  0  0  0
   57.6270   29.3850   45.1340 C   0  0  0  0  0  0  0  0  0  0  0  0
   58.2710   30.4060   45.8000 C   0  0  0  0  0  0  0  0  0  0  0  0
   58.0430   31.8650   45.5410 C   0  0  0  0  0  0  0  0  0  0  0  0
   59.1090   29.9030   46.7330 N   0  0  0  0  0  0  0  0  0  0  0  0
   59.9010   30.6730   47.6560 C   0  0  0  0  0  0  0  0  0  0  0  0
   59.3430   31.1320   48.8570 C   0  0  0  0  0  0  0  0  0  0  0  0
   60.1150   31.8720   49.7560 C   0  0  0  0  0  0  0  0  0  0  0  0
   61.4620   32.1530   49.4740 C   0  0  0  0  0  0  0  0  0  0  0  0
   62.2720   32.9410   50.4320 C   0  0  0  0  0  0  0  0  0  0  0  0
   61.6810   33.6910   51.2550 O   0  0  0  0  0  0  0  0  0  0  0  0
   63.7120   32.8750   50.4470 N   0  0  0  0  0  0  0  0  0  0  0  0
   64.4710   34.0680   50.8440 C   0  0  0  0  0  0  0  0  0  0  0  0
   65.9840   33.8480   50.7270 C   0  0  0  0  0  0  0  0  0  0  0  0
   66.3710   32.5740   51.3530 N   0  0  0  0  0  0  0  0  0  0  0  0
   67.6150   32.4300   52.0750 C   0  0  0  0  0  0  0  0  0  0  0  0
   67.8240   31.3800   52.7440 O   0  0  0  0  0  0  0  0  0  0  0  0
   68.6670   33.5110   52.0660 C   0  0  0  0  0  0  0  0  0  0  0  0
   69.3280   33.5620   50.8140 O   0  0  0  0  0  0  0  0  0  0  0  0
   69.2830   34.8710   50.2880 C   0  0  0  0  0  0  0  0  0  0  0  0
   65.5320   31.3790   51.1570 C   0  0  0  0  0  0  0  0  0  0  0  0
   64.4170   31.6250   50.1360 C   0  0  0  0  0  0  0  0  0  0  0  0
   62.0120   31.7120   48.2570 C   0  0  0  0  0  0  0  0  0  0  0  0
   61.2380   30.9740   47.3590 C   0  0  0  0  0  0  0  0  0  0  0  0
  1  2  2  0
  2  3  1  0
  3  4  2  0
  4  5  1  0
  5  6  1  0
  6  7  1  0
  7  8  2  0
  7  9  1  0
  9 10  1  0
 10 11  1  0
  3 12  1  0
 12 13  2  0
 13 14  1  0
 13 15  1  0
 15 16  1  0
 16 17  2  0
 17 18  1  0
 18 19  2  0
 19 20  1  0
 20 21  2  0
 20 22  1  0
 22 23  1  0
 23 24  1  0
 24 25  1  0
 25 26  1  0
 26 27  2  0
 26 28  1  0
 28 29  1  0
 29 30  1  0
 25 31  1  0
 31 32  1  0
 19 33  1  0
 33 34  2  0
 15  2  1  0
 34 16  1  0
 10  5  2  0
 32 22  1  0
M  CHG  3   6  -1   9  -1  11  -1
M  END
>  <UniqueID>  (2018) 
24

>  <SMILES>  (2018) 
C=c1/c(=C\c2[n-]c(=O)[n-]c2[O-])cc(C)n1-c1ccc(C(=O)N2CCN(C(=O)COC)CC2)cc1

>  <Energy>  (2018) 
142.93535730684195

>  <Genealogy>  (2018) 
C=c1c(=Cc2[n-]c(=O)[n-]c2[O-])cc(C)n1-c1ccc(C(=O)N2CCN(C(=O)COC)CC2)cc1 (protonated)
C=c1/c(=C\c2[n-]c(=O)[n-]c2[O-])cc(C)n1-c1ccc(C(=O)N2CCN(C(=O)COC)CC2)cc1 (cis-trans isomerization)
C=c1/c(=C\c2[n-]c(=O)[n-]c2[O-])cc(C)n1-c1ccc(C(=O)N2CCN(C(=O)COC)CC2)cc1 (3D coordinates assigned)
C=c1/c(=C\c2[n-]c(=O)[n-]c2[O-])cc(C)n1-c1ccc(C(=O)N2CCN(C(=O)COC)CC2)cc1 (nonaromatic ring conformer: 142.93535730684195 kcal/mol)

>  <smiles>  (2018) 
C=c1c(=Cc2[nH]c(=O)[nH]c2O)cc(C)n1-c1ccc(C(=O)N2CCN(C(=O)COC)CC2)cc1

>  <score_type>  (2018) 
oracle

>  <origin>  (2018) 
adg

>  <m_score__min__energy>  (2018) 
-15.9

>  <m_primary>  (2018) 
energy

$$$$
27:0
     RDKit          3D

 32 35  0  0  0  0  0  0  0  0999 V2000
   55.1150   26.5220   46.1250 O   0  0  0  0  0  0  0  0  0  0  0  0
   56.0660   25.5550   46.4230 C   0  0  0  0  0  0  0  0  0  0  0  0
   55.8310   24.4890   47.2030 N   0  0  0  0  0  0  0  0  0  0  0  0
   57.0060   23.8250   47.1620 C   0  0  0  0  0  0  0  0  0  0  0  0
   57.1960   22.7400   47.7760 O   0  0  0  0  0  0  0  0  0  0  0  0
   57.9610   24.4080   46.4060 N   0  0  0  0  0  0  0  0  0  0  0  0
   57.3630   25.5290   45.9620 C   0  0  0  0  0  0  0  0  0  0  0  0
   57.9790   26.4490   44.9940 C   0  0  0  0  0  0  0  0  0  0  0  0
   58.4260   27.6910   45.2660 C   0  0  0  0  0  0  0  0  0  0  0  0
   59.7360   27.9560   45.6360 C   0  0  0  0  0  0  0  0  0  0  0  0
   59.8590   29.3260   45.7320 C   0  0  0  0  0  0  0  0  0  0  0  0
   61.1410   30.0380   46.0340 C   0  0  0  0  0  0  0  0  0  0  0  0
   58.6700   29.9200   45.4800 N   0  0  0  0  0  0  0  0  0  0  0  0
   58.4150   31.3360   45.4540 C   0  0  0  0  0  0  0  0  0  0  0  0
   57.8240   31.8950   44.3130 C   0  0  0  0  0  0  0  0  0  0  0  0
   57.5680   33.2650   44.2490 C   0  0  0  0  0  0  0  0  0  0  0  0
   57.8940   34.0870   45.3270 C   0  0  0  0  0  0  0  0  0  0  0  0
   58.4800   33.5420   46.4700 C   0  0  0  0  0  0  0  0  0  0  0  0
   58.7570   32.1670   46.5450 C   0  0  0  0  0  0  0  0  0  0  0  0
   59.3540   31.6100   47.7800 C   0  0  0  0  0  0  0  0  0  0  0  0
   58.7880   30.6330   48.3450 O   0  0  0  0  0  0  0  0  0  0  0  0
   60.5420   32.1750   48.3700 N   0  0  0  0  0  0  0  0  0  0  0  0
   61.5340   32.8800   47.5480 C   0  0  0  0  0  0  0  0  0  0  0  0
   62.9530   32.5760   48.0360 C   0  0  0  0  0  0  0  0  0  0  0  0
   63.0850   32.7990   49.4830 N   0  0  0  0  0  0  0  0  0  0  0  0
   64.4030   32.9970   50.0400 C   0  0  0  0  0  0  0  0  0  0  0  0
   65.4180   32.6430   49.3840 O   0  0  0  0  0  0  0  0  0  0  0  0
   64.6000   33.5970   51.3990 C   0  0  0  0  0  0  0  0  0  0  0  0
   61.8860   32.9200   50.3240 C   0  0  0  0  0  0  0  0  0  0  0  0
   60.7640   32.0080   49.8130 C   0  0  0  0  0  0  0  0  0  0  0  0
   57.7740   28.9340   45.2230 C   0  0  0  0  0  0  0  0  0  0  0  0
   56.4550   29.1560   45.1020 C   0  0  0  0  0  0  0  0  0  0  0  0
  1  2  1  0
  2  3  1  0
  3  4  1  0
  4  5  2  0
  4  6  1  0
  6  7  1  0
  7  8  1  0
  8  9  2  0
  9 10  1  0
 10 11  2  0
 11 12  1  0
 11 13  1  0
 13 14  1  0
 14 15  2  0
 15 16  1  0
 16 17  2  0
 17 18  1  0
 18 19  2  0
 19 20  1  0
 20 21  2  0
 20 22  1  0
 22 23  1  0
 23 24  1  0
 24 25  1  0
 25 26  1  0
 26 27  2  0
 26 28  1  0
 25 29  1  0
 29 30  1  0
 13 31  1  0
 31 32  2  0
  7  2  2  0
 31  9  1  0
 19 14  1  0
 30 22  1  0
M  CHG  2   3  -1   6  -1
M  END
>  <UniqueID>  (2019) 
27

>  <SMILES>  (2019) 
C=c1/c(=C\c2[n-]c(=O)[n-]c2O)cc(C)n1-c1ccccc1C(=O)N1CCN(C(C)=O)CC1

>  <Energy>  (2019) 
137.20593912330236

>  <Genealogy>  (2019) 
C=c1c(=Cc2[n-]c(=O)[n-]c2O)cc(C)n1-c1ccccc1C(=O)N1CCN(C(C)=O)CC1 (protonated)
C=c1/c(=C\c2[n-]c(=O)[n-]c2O)cc(C)n1-c1ccccc1C(=O)N1CCN(C(C)=O)CC1 (cis-trans isomerization)
C=c1/c(=C\c2[n-]c(=O)[n-]c2O)cc(C)n1-c1ccccc1C(=O)N1CCN(C(C)=O)CC1 (3D coordinates assigned)
C=c1/c(=C\c2[n-]c(=O)[n-]c2O)cc(C)n1-c1ccccc1C(=O)N1CCN(C(C)=O)CC1 (nonaromatic ring conformer: 137.20593912330236 kcal/mol)

>  <smiles>  (2019) 
C=c1c(=Cc2[nH]c(=O)[nH]c2O)cc(C)n1-c1ccccc1C(=O)N1CCN(C(C)=O)CC1

>  <score_type>  (2019) 
oracle

>  <origin>  (2019) 
adg

>  <m_score__min__energy>  (2019) 
-14.300000000000001

>  <m_primary>  (2019) 
energy

$$$$
29:0
     RDKit          3D

 27 29  0  0  0  0  0  0  0  0999 V2000
   54.7460   29.6250   43.0460 O   0  0  0  0  0  0  0  0  0  0  0  0
   55.5900   29.8000   43.9650 C   0  0  0  0  0  0  0  0  0  0  0  0
   55.5170   28.9660   45.1320 N   0  0  0  0  0  0  0  0  0  0  0  0
   56.5150   28.0290   45.5720 C   0  0  0  0  0  0  0  0  0  0  0  0
   57.8820   28.3530   45.5570 C   0  0  0  0  0  0  0  0  0  0  0  0
   58.8320   27.4540   46.0540 C   0  0  0  0  0  0  0  0  0  0  0  0
   60.5240   27.9320   46.1550 S   0  0  0  0  0  0  0  0  0  0  0  0
   61.3780   26.6940   46.1270 O   0  0  0  0  0  0  0  0  0  0  0  0
   60.8670   28.7850   44.9640 O   0  0  0  0  0  0  0  0  0  0  0  0
   60.7700   28.8100   47.6580 N   0  0  0  0  0  0  0  0  0  0  0  0
   61.4120   30.1180   47.4430 C   0  0  0  0  0  0  0  0  0  0  0  0
   60.4470   31.1330   46.7890 C   0  0  0  0  0  0  0  0  0  0  0  0
   59.0980   30.7010   46.8010 O   0  0  0  0  0  0  0  0  0  0  0  0
   58.7510   30.2410   48.0900 C   0  0  0  0  0  0  0  0  0  0  0  0
   59.5200   28.9480   48.4350 C   0  0  0  0  0  0  0  0  0  0  0  0
   58.4220   26.1890   46.4950 C   0  0  0  0  0  0  0  0  0  0  0  0
   57.0700   25.8370   46.4580 C   0  0  0  0  0  0  0  0  0  0  0  0
   56.1160   26.7540   46.0030 C   0  0  0  0  0  0  0  0  0  0  0  0
   54.7720   26.3980   45.9900 O   0  0  0  0  0  0  0  0  0  0  0  0
   56.5980   30.8770   43.8240 C   0  0  0  0  0  0  0  0  0  0  0  0
   57.0540   31.5670   44.9580 C   0  0  0  0  0  0  0  0  0  0  0  0
   57.9700   32.6160   44.8090 C   0  0  0  0  0  0  0  0  0  0  0  0
   58.4210   33.3280   45.9170 O   0  0  0  0  0  0  0  0  0  0  0  0
   58.4220   32.9510   43.5710 N   0  0  0  0  0  0  0  0  0  0  0  0
   58.0120   32.2900   42.4570 C   0  0  0  0  0  0  0  0  0  0  0  0
   58.4560   32.6300   41.3290 O   0  0  0  0  0  0  0  0  0  0  0  0
   57.1000   31.2360   42.5630 C   0  0  0  0  0  0  0  0  0  0  0  0
  1  2  2  0
  2  3  1  0
  3  4  1  0
  4  5  2  0
  5  6  1  0
  6  7  1  0
  7  8  2  0
  7  9  2  0
  7 10  1  0
 10 11  1  0
 11 12  1  0
 12 13  1  0
 13 14  1  0
 14 15  1  0
  6 16  2  0
 16 17  1  0
 17 18  2  0
 18 19  1  0
  2 20  1  0
 20 21  1  0
 21 22  2  0
 22 23  1  0
 22 24  1  0
 24 25  1  0
 25 26  2  0
 25 27  1  0
 18  4  1  0
 27 20  2  0
 15 10  1  0
M  CHG  3   3  -1  19  -1  24  -1
M  END
>  <UniqueID>  (2020) 
29

>  <SMILES>  (2020) 
O=C([N-]c1cc(S(=O)(=O)N2CCOCC2)ccc1[O-])c1cc(O)[n-]c(=O)c1

>  <Energy>  (2020) 
60.422667088147435

>  <Genealogy>  (2020) 
O=C([N-]c1cc(S(=O)(=O)N2CCOCC2)ccc1[O-])c1cc(O)[n-]c(=O)c1 (protonated)
O=C([N-]c1cc(S(=O)(=O)N2CCOCC2)ccc1[O-])c1cc(O)[n-]c(=O)c1 (3D coordinates assigned)
O=C([N-]c1cc(S(=O)(=O)N2CCOCC2)ccc1[O-])c1cc(O)[n-]c(=O)c1 (nonaromatic ring conformer: 60.422667088147435 kcal/mol)

>  <smiles>  (2020) 
O=C(Nc1cc(S(=O)(=O)N2CCOCC2)ccc1O)c1cc(O)[nH]c(=O)c1

>  <score_type>  (2020) 
oracle

>  <origin>  (2020) 
adg

>  <m_score__min__energy>  (2020) 
-14.27

>  <m_primary>  (2020) 
energy

$$$$
32:0
     RDKit          3D

 31 34  0  0  0  0  0  0  0  0999 V2000
   54.4010   28.1500   52.8660 C   0  0  0  0  0  0  0  0  0  0  0  0
   54.6160   29.4590   52.6520 C   0  0  0  0  0  0  0  0  0  0  0  0
   53.6810   30.3830   52.1670 C   0  0  0  0  0  0  0  0  0  0  0  0
   52.3760   30.1630   51.9040 C   0  0  0  0  0  0  0  0  0  0  0  0
   51.6620   30.7300   50.7450 C   0  0  0  0  0  0  0  0  0  0  0  0
   51.5890   30.1130   49.5520 N   0  0  0  0  0  0  0  0  0  0  0  0
   50.9180   30.9990   48.7830 C   0  0  0  0  0  0  0  0  0  0  0  0
   50.6350   30.7720   47.5780 O   0  0  0  0  0  0  0  0  0  0  0  0
   50.5800   32.1500   49.4040 N   0  0  0  0  0  0  0  0  0  0  0  0
   51.0680   31.9700   50.6420 C   0  0  0  0  0  0  0  0  0  0  0  0
   51.0100   32.9370   51.6370 O   0  0  0  0  0  0  0  0  0  0  0  0
   54.3480   31.5970   52.0630 C   0  0  0  0  0  0  0  0  0  0  0  0
   55.6470   31.3710   52.4740 C   0  0  0  0  0  0  0  0  0  0  0  0
   56.7220   32.4180   52.5110 C   0  0  0  0  0  0  0  0  0  0  0  0
   55.8110   30.0800   52.8510 N   0  0  0  0  0  0  0  0  0  0  0  0
   57.0640   29.4810   53.3410 C   0  0  0  0  0  0  0  0  0  0  0  0
   58.2560   30.3470   53.0170 C   0  0  0  0  0  0  0  0  0  0  0  0
   58.9350   30.8420   53.9570 O   0  0  0  0  0  0  0  0  0  0  0  0
   58.6330   30.6030   51.6450 N   0  0  0  0  0  0  0  0  0  0  0  0
   59.5550   31.7020   51.3210 C   0  0  0  0  0  0  0  0  0  0  0  0
   59.0690   32.4320   50.0660 C   0  0  0  0  0  0  0  0  0  0  0  0
   58.8370   31.4820   48.8530 C   0  0  0  0  0  0  0  0  0  0  0  0
   59.8390   31.7900   47.7170 C   0  0  0  0  0  0  0  0  0  0  0  0
   59.2970   32.8010   46.7380 C   0  0  0  0  0  0  0  0  0  0  0  0
   58.2350   32.4560   45.8840 C   0  0  0  0  0  0  0  0  0  0  0  0
   57.7580   33.3770   44.9480 C   0  0  0  0  0  0  0  0  0  0  0  0
   58.3380   34.6450   44.8560 C   0  0  0  0  0  0  0  0  0  0  0  0
   59.3960   34.9960   45.6990 C   0  0  0  0  0  0  0  0  0  0  0  0
   59.8750   34.0780   46.6390 C   0  0  0  0  0  0  0  0  0  0  0  0
   58.8870   29.9860   49.2480 C   0  0  0  0  0  0  0  0  0  0  0  0
   58.1560   29.7180   50.5690 C   0  0  0  0  0  0  0  0  0  0  0  0
  1  2  2  0
  2  3  1  0
  3  4  2  3
  4  5  1  0
  5  6  1  0
  6  7  1  0
  7  8  2  0
  7  9  1  0
  9 10  1  0
 10 11  1  0
  3 12  1  0
 12 13  2  0
 13 14  1  0
 13 15  1  0
 15 16  1  0
 16 17  1  0
 17 18  2  0
 17 19  1  0
 19 20  1  0
 20 21  1  0
 21 22  1  0
 22 23  1  0
 23 24  1  0
 24 25  2  0
 25 26  1  0
 26 27  2  0
 27 28  1  0
 28 29  2  0
 22 30  1  0
 30 31  1  0
 15  2  1  0
 31 19  1  0
 10  5  2  0
 29 24  1  0
M  CHG  3   6  -1   9  -1  11  -1
M  END
>  <UniqueID>  (2021) 
32

>  <SMILES>  (2021) 
C=c1c(=Cc2[n-]c(=O)[n-]c2[O-])cc(C)n1CC(=O)N1CCC(Cc2ccccc2)CC1

>  <Energy>  (2021) 
124.41459669026382

>  <Genealogy>  (2021) 
C=c1c(=Cc2[n-]c(=O)[n-]c2[O-])cc(C)n1CC(=O)N1CCC(Cc2ccccc2)CC1 (protonated)
C=c1c(=Cc2[n-]c(=O)[n-]c2[O-])cc(C)n1CC(=O)N1CCC(Cc2ccccc2)CC1 (3D coordinates assigned)
C=c1c(=Cc2[n-]c(=O)[n-]c2[O-])cc(C)n1CC(=O)N1CCC(Cc2ccccc2)CC1 (nonaromatic ring conformer: 124.41459669026382 kcal/mol)

>  <smiles>  (2021) 
C=c1c(=Cc2[nH]c(=O)[nH]c2O)cc(C)n1CC(=O)N1CCC(Cc2ccccc2)CC1

>  <score_type>  (2021) 
oracle

>  <origin>  (2021) 
adg

>  <m_score__min__energy>  (2021) 
-18.48

>  <m_primary>  (2021) 
energy

$$$$
34:0
     RDKit          3D

 25 28  0  0  0  0  0  0  0  0999 V2000
   59.1950   28.2110   46.6940 C   0  0  0  0  0  0  0  0  0  0  0  0
   58.4470   28.6480   45.6680 C   0  0  0  0  0  0  0  0  0  0  0  0
   57.8600   27.8660   44.6590 C   0  0  0  0  0  0  0  0  0  0  0  0
   57.6830   26.5350   44.5620 C   0  0  0  0  0  0  0  0  0  0  0  0
   57.1780   25.6580   45.6310 C   0  0  0  0  0  0  0  0  0  0  0  0
   57.8980   24.7000   46.2440 N   0  0  0  0  0  0  0  0  0  0  0  0
   57.0770   24.2700   47.2250 C   0  0  0  0  0  0  0  0  0  0  0  0
   57.3940   23.3490   48.0210 O   0  0  0  0  0  0  0  0  0  0  0  0
   55.8900   24.9130   47.2930 N   0  0  0  0  0  0  0  0  0  0  0  0
   55.9780   25.7960   46.2860 C   0  0  0  0  0  0  0  0  0  0  0  0
   54.9850   26.7160   45.9760 O   0  0  0  0  0  0  0  0  0  0  0  0
   57.4290   28.7530   43.6850 C   0  0  0  0  0  0  0  0  0  0  0  0
   57.6890   30.0220   44.1560 C   0  0  0  0  0  0  0  0  0  0  0  0
   57.3570   31.2860   43.4200 C   0  0  0  0  0  0  0  0  0  0  0  0
   58.3060   29.9610   45.3580 N   0  0  0  0  0  0  0  0  0  0  0  0
   58.7570   31.0900   46.1290 C   0  0  0  0  0  0  0  0  0  0  0  0
   57.8710   32.1590   46.4180 C   0  0  0  0  0  0  0  0  0  0  0  0
   58.3030   33.2620   47.1770 C   0  0  0  0  0  0  0  0  0  0  0  0
   59.6210   33.2620   47.6250 C   0  0  0  0  0  0  0  0  0  0  0  0
   60.2370   34.1980   48.3600 N   0  0  0  0  0  0  0  0  0  0  0  0
   61.4890   33.6870   48.4950 C   0  0  0  0  0  0  0  0  0  0  0  0
   62.5520   34.3610   49.2960 C   0  0  0  0  0  0  0  0  0  0  0  0
   61.6760   32.4790   47.8990 N   0  0  0  0  0  0  0  0  0  0  0  0
   60.4760   32.2410   47.3500 C   0  0  0  0  0  0  0  0  0  0  0  0
   60.0860   31.1310   46.6050 C   0  0  0  0  0  0  0  0  0  0  0  0
  1  2  2  0
  2  3  1  0
  3  4  2  0
  4  5  1  0
  5  6  1  0
  6  7  1  0
  7  8  2  0
  7  9  1  0
  9 10  1  0
 10 11  1  0
  3 12  1  0
 12 13  2  0
 13 14  1  0
 13 15  1  0
 15 16  1  0
 16 17  2  0
 17 18  1  0
 18 19  2  0
 19 20  1  0
 20 21  1  0
 21 22  1  0
 21 23  2  0
 23 24  1  0
 24 25  2  0
 15  2  1  0
 25 16  1  0
 10  5  2  0
 24 19  1  0
M  CHG  4   6  -1   9  -1  11  -1  20  -1
M  END
>  <UniqueID>  (2022) 
33

>  <SMILES>  (2022) 
C=c1/c(=C\c2[n-]c(=O)[n-]c2[O-])cc(C)n1-c1ccc2[n-]c(C)nc2c1

>  <Energy>  (2022) 
149.86511694743297

>  <Genealogy>  (2022) 
C=c1c(=Cc2[n-]c(=O)[n-]c2[O-])cc(C)n1-c1ccc2[n-]c(C)nc2c1 (protonated)
C=c1/c(=C\c2[n-]c(=O)[n-]c2[O-])cc(C)n1-c1ccc2[n-]c(C)nc2c1 (cis-trans isomerization)
C=c1/c(=C\c2[n-]c(=O)[n-]c2[O-])cc(C)n1-c1ccc2[n-]c(C)nc2c1 (3D coordinates assigned)
C=c1/c(=C\c2[n-]c(=O)[n-]c2[O-])cc(C)n1-c1ccc2[n-]c(C)nc2c1 (optimized conformer: 149.86511694743297 kcal/mol)

>  <smiles>  (2022) 
C=c1c(=Cc2[nH]c(=O)[nH]c2O)cc(C)n1-c1ccc2[nH]c(C)nc2c1

>  <score_type>  (2022) 
oracle

>  <origin>  (2022) 
adg

>  <m_score__min__energy>  (2022) 
-16.239999999999998

>  <m_primary>  (2022) 
energy

$$$$
36:0
     RDKit          3D

 27 29  0  0  0  0  0  0  0  0999 V2000
   58.8830   26.3730   46.5710 C   0  0  0  0  0  0  0  0  0  0  0  0
   58.3480   27.4840   45.9990 N   0  0  0  0  0  0  0  0  0  0  0  0
   57.0050   27.6270   45.8110 C   0  0  0  0  0  0  0  0  0  0  0  0
   56.5140   28.6870   45.2360 N   0  0  0  0  0  0  0  0  0  0  0  0
   57.0300   29.3640   44.0810 C   0  0  0  0  0  0  0  0  0  0  0  0
   56.2640   29.5450   43.0970 O   0  0  0  0  0  0  0  0  0  0  0  0
   58.3820   30.0340   44.0790 C   0  0  0  0  0  0  0  0  0  0  0  0
   58.2820   31.3920   44.6080 N   0  0  0  0  0  0  0  0  0  0  0  0
   57.0250   32.0350   44.8580 C   0  0  0  0  0  0  0  0  0  0  0  0
   55.9470   31.4870   44.5010 O   0  0  0  0  0  0  0  0  0  0  0  0
   56.9820   33.3340   45.6010 C   0  0  0  0  0  0  0  0  0  0  0  0
   58.2720   33.5350   46.3470 C   0  0  0  0  0  0  0  0  0  0  0  0
   58.5230   32.8200   47.5290 C   0  0  0  0  0  0  0  0  0  0  0  0
   59.7420   32.9670   48.1970 C   0  0  0  0  0  0  0  0  0  0  0  0
   60.7320   33.8260   47.6920 C   0  0  0  0  0  0  0  0  0  0  0  0
   61.9970   33.9620   48.3690 N   0  0  0  0  0  0  0  0  0  0  0  0
   63.2630   33.8140   47.6390 C   0  0  0  0  0  0  0  0  0  0  0  0
   64.1230   32.7100   48.2710 C   0  0  0  0  0  0  0  0  0  0  0  0
   64.0150   32.6550   49.8120 C   0  0  0  0  0  0  0  0  0  0  0  0
   63.4200   33.9370   50.4090 C   0  0  0  0  0  0  0  0  0  0  0  0
   62.0270   34.2030   49.8210 C   0  0  0  0  0  0  0  0  0  0  0  0
   60.4840   34.5260   46.4990 C   0  0  0  0  0  0  0  0  0  0  0  0
   59.2660   34.3790   45.8310 C   0  0  0  0  0  0  0  0  0  0  0  0
   56.1430   26.5910   46.2000 C   0  0  0  0  0  0  0  0  0  0  0  0
   54.7690   26.6960   46.0060 O   0  0  0  0  0  0  0  0  0  0  0  0
   56.6750   25.4400   46.7900 C   0  0  0  0  0  0  0  0  0  0  0  0
   58.0520   25.3290   46.9800 C   0  0  0  0  0  0  0  0  0  0  0  0
  1  2  1  0
  2  3  1  0
  3  4  2  0
  4  5  1  0
  5  6  2  0
  5  7  1  0
  7  8  1  0
  8  9  1  0
  9 10  2  0
  9 11  1  0
 11 12  1  0
 12 13  2  0
 13 14  1  0
 14 15  2  0
 15 16  1  0
 16 17  1  0
 17 18  1  0
 18 19  1  0
 19 20  1  0
 20 21  1  0
 15 22  1  0
 22 23  2  0
  3 24  1  0
 24 25  1  0
 24 26  2  0
 26 27  1  0
 27  1  2  0
 23 12  1  0
 21 16  1  0
M  CHG  2   2  -1  25  -1
M  END
>  <UniqueID>  (2023) 
35

>  <SMILES>  (2023) 
O=C(CNC(=O)Cc1ccc(N2CCCCC2)cc1)/N=c1\[n-]cccc1[O-]

>  <Energy>  (2023) 
57.879154869051334

>  <Genealogy>  (2023) 
O=C(CNC(=O)Cc1ccc(N2CCCCC2)cc1)N=c1[n-]cccc1[O-] (protonated)
O=C(CNC(=O)Cc1ccc(N2CCCCC2)cc1)/N=c1\[n-]cccc1[O-] (cis-trans isomerization)
O=C(CNC(=O)Cc1ccc(N2CCCCC2)cc1)/N=c1\[n-]cccc1[O-] (3D coordinates assigned)
O=C(CNC(=O)Cc1ccc(N2CCCCC2)cc1)/N=c1\[n-]cccc1[O-] (nonaromatic ring conformer: 57.879154869051334 kcal/mol)

>  <smiles>  (2023) 
O=C(CNC(=O)Cc1ccc(N2CCCCC2)cc1)N=c1[nH]cccc1O

>  <score_type>  (2023) 
oracle

>  <origin>  (2023) 
adg

>  <m_score__min__energy>  (2023) 
-14.550000000000001

>  <m_primary>  (2023) 
energy

$$$$
39:0
     RDKit          3D

 27 29  0  0  0  0  0  0  0  0999 V2000
   55.6890   28.9860   45.2460 O   0  0  0  0  0  0  0  0  0  0  0  0
   56.2290   27.7580   45.6180 C   0  0  0  0  0  0  0  0  0  0  0  0
   55.4910   26.6650   45.8740 N   0  0  0  0  0  0  0  0  0  0  0  0
   56.4200   25.7610   46.2490 C   0  0  0  0  0  0  0  0  0  0  0  0
   56.1270   24.5840   46.5830 O   0  0  0  0  0  0  0  0  0  0  0  0
   57.6910   26.2200   46.2450 N   0  0  0  0  0  0  0  0  0  0  0  0
   57.5640   27.4890   45.8200 C   0  0  0  0  0  0  0  0  0  0  0  0
   58.7000   28.4210   45.7150 C   0  0  0  0  0  0  0  0  0  0  0  0
   58.6890   29.6790   46.1980 C   0  0  0  0  0  0  0  0  0  0  0  0
   59.1040   30.0750   47.4590 C   0  0  0  0  0  0  0  0  0  0  0  0
   58.8080   31.4180   47.5730 C   0  0  0  0  0  0  0  0  0  0  0  0
   58.9860   32.2040   48.8380 C   0  0  0  0  0  0  0  0  0  0  0  0
   58.2090   31.8740   46.4460 N   0  0  0  0  0  0  0  0  0  0  0  0
   57.5720   33.1960   46.2890 C   0  0  0  0  0  0  0  0  0  0  0  0
   58.4720   34.3310   46.8100 C   0  0  0  0  0  0  0  0  0  0  0  0
   59.5920   34.6490   45.8650 C   0  0  0  0  0  0  0  0  0  0  0  0
   59.4700   35.5920   45.0380 O   0  0  0  0  0  0  0  0  0  0  0  0
   60.7970   33.8750   45.9360 N   0  0  0  0  0  0  0  0  0  0  0  0
   61.7480   33.8120   47.0110 C   0  0  0  0  0  0  0  0  0  0  0  0
   61.4190   34.1580   48.3360 C   0  0  0  0  0  0  0  0  0  0  0  0
   62.3530   33.9780   49.3620 C   0  0  0  0  0  0  0  0  0  0  0  0
   63.6150   33.4500   49.0790 C   0  0  0  0  0  0  0  0  0  0  0  0
   64.8770   33.1790   50.4870 Br  0  0  0  0  0  0  0  0  0  0  0  0
   63.9470   33.1030   47.7670 C   0  0  0  0  0  0  0  0  0  0  0  0
   63.0160   33.2820   46.7390 C   0  0  0  0  0  0  0  0  0  0  0  0
   58.1470   30.8160   45.5880 C   0  0  0  0  0  0  0  0  0  0  0  0
   57.6150   30.8640   44.3540 C   0  0  0  0  0  0  0  0  0  0  0  0
  1  2  1  0
  2  3  1  0
  3  4  1  0
  4  5  2  0
  4  6  1  0
  6  7  1  0
  7  8  1  0
  8  9  2  0
  9 10  1  0
 10 11  2  0
 11 12  1  0
 11 13  1  0
 13 14  1  0
 14 15  1  0
 15 16  1  0
 16 17  2  0
 16 18  1  0
 18 19  1  0
 19 20  2  0
 20 21  1  0
 21 22  2  0
 22 23  1  0
 22 24  1  0
 24 25  2  0
 13 26  1  0
 26 27  2  0
  7  2  2  0
 26  9  1  0
 25 19  1  0
M  CHG  3   3  -1   6  -1  18  -1
M  END
>  <UniqueID>  (2024) 
38

>  <SMILES>  (2024) 
C=c1/c(=C/c2[n-]c(=O)[n-]c2O)cc(C)n1CCC(=O)[N-]c1ccc(Br)cc1

>  <Energy>  (2024) 
106.26735872586522

>  <Genealogy>  (2024) 
C=c1c(=Cc2[n-]c(=O)[n-]c2O)cc(C)n1CCC(=O)[N-]c1ccc(Br)cc1 (protonated)
C=c1/c(=C/c2[n-]c(=O)[n-]c2O)cc(C)n1CCC(=O)[N-]c1ccc(Br)cc1 (cis-trans isomerization)
C=c1/c(=C/c2[n-]c(=O)[n-]c2O)cc(C)n1CCC(=O)[N-]c1ccc(Br)cc1 (3D coordinates assigned)
C=c1/c(=C/c2[n-]c(=O)[n-]c2O)cc(C)n1CCC(=O)[N-]c1ccc(Br)cc1 (optimized conformer: 106.26735872586522 kcal/mol)

>  <smiles>  (2024) 
C=c1c(=Cc2[nH]c(=O)[nH]c2O)cc(C)n1CCC(=O)Nc1ccc(Br)cc1

>  <score_type>  (2024) 
oracle

>  <origin>  (2024) 
adg

>  <m_score__min__energy>  (2024) 
-15.19

>  <m_primary>  (2024) 
energy

$$$$
58:0
     RDKit          3D

 31 33  0  0  0  0  0  0  0  0999 V2000
   57.2060   29.3750   46.3050 O   0  0  0  0  0  0  0  0  0  0  0  0
   56.8870   28.6560   45.3210 C   0  0  0  0  0  0  0  0  0  0  0  0
   57.7240   27.4480   44.9680 C   0  0  0  0  0  0  0  0  0  0  0  0
   57.6540   26.3260   46.0180 C   0  0  0  0  0  0  0  0  0  0  0  0
   56.7200   25.2160   45.5980 C   0  0  0  0  0  0  0  0  0  0  0  0
   57.2420   23.9690   45.2070 C   0  0  0  0  0  0  0  0  0  0  0  0
   56.3860   22.9340   44.8180 C   0  0  0  0  0  0  0  0  0  0  0  0
   55.0040   23.1350   44.8100 C   0  0  0  0  0  0  0  0  0  0  0  0
   54.4740   24.3690   45.1960 C   0  0  0  0  0  0  0  0  0  0  0  0
   55.3230   25.4040   45.6010 C   0  0  0  0  0  0  0  0  0  0  0  0
   54.7720   26.6170   45.9980 O   0  0  0  0  0  0  0  0  0  0  0  0
   55.7910   29.0740   44.4990 N   0  0  0  0  0  0  0  0  0  0  0  0
   55.5040   30.4560   44.1400 C   0  0  0  0  0  0  0  0  0  0  0  0
   56.7860   31.2360   44.1330 C   0  0  0  0  0  0  0  0  0  0  0  0
   57.6260   31.0180   43.2210 O   0  0  0  0  0  0  0  0  0  0  0  0
   57.1400   32.1220   45.2010 N   0  0  0  0  0  0  0  0  0  0  0  0
   58.4690   32.3840   45.6690 C   0  0  0  0  0  0  0  0  0  0  0  0
   58.9610   33.6930   45.6260 C   0  0  0  0  0  0  0  0  0  0  0  0
   60.2450   33.9810   46.0940 C   0  0  0  0  0  0  0  0  0  0  0  0
   61.0460   32.9630   46.6290 C   0  0  0  0  0  0  0  0  0  0  0  0
   62.6860   33.3170   47.1810 S   0  0  0  0  0  0  0  0  0  0  0  0
   63.4610   32.0330   47.2990 O   0  0  0  0  0  0  0  0  0  0  0  0
   63.3740   34.1850   46.1630 O   0  0  0  0  0  0  0  0  0  0  0  0
   62.6780   34.1350   48.7270 N   0  0  0  0  0  0  0  0  0  0  0  0
   63.6770   33.5340   49.6330 C   0  0  0  0  0  0  0  0  0  0  0  0
   63.3400   33.8480   51.0990 C   0  0  0  0  0  0  0  0  0  0  0  0
   62.0730   33.3550   51.5180 O   0  0  0  0  0  0  0  0  0  0  0  0
   61.1480   33.1690   50.4560 C   0  0  0  0  0  0  0  0  0  0  0  0
   61.3210   34.1840   49.3120 C   0  0  0  0  0  0  0  0  0  0  0  0
   60.5380   31.6590   46.7170 C   0  0  0  0  0  0  0  0  0  0  0  0
   59.2540   31.3710   46.2450 C   0  0  0  0  0  0  0  0  0  0  0  0
  1  2  2  0
  2  3  1  0
  3  4  1  0
  4  5  1  0
  5  6  2  0
  6  7  1  0
  7  8  2  0
  8  9  1  0
  9 10  2  0
 10 11  1  0
  2 12  1  0
 12 13  1  0
 13 14  1  0
 14 15  2  0
 14 16  1  0
 16 17  1  0
 17 18  2  0
 18 19  1  0
 19 20  2  0
 20 21  1  0
 21 22  2  0
 21 23  2  0
 21 24  1  0
 24 25  1  0
 25 26  1  0
 26 27  1  0
 27 28  1  0
 28 29  1  0
 20 30  1  0
 30 31  2  0
 10  5  1  0
 31 17  1  0
 29 24  1  0
M  CHG  3  11  -1  12  -1  16  -1
M  END
>  <UniqueID>  (2025) 
54

>  <SMILES>  (2025) 
O=C(CCc1ccccc1[O-])[N-]CC(=O)[N-]c1ccc(S(=O)(=O)N2CCOCC2)cc1

>  <Energy>  (2025) 
65.31213560671677

>  <Genealogy>  (2025) 
O=C(CCc1ccccc1[O-])[N-]CC(=O)[N-]c1ccc(S(=O)(=O)N2CCOCC2)cc1 (protonated)
O=C(CCc1ccccc1[O-])[N-]CC(=O)[N-]c1ccc(S(=O)(=O)N2CCOCC2)cc1 (3D coordinates assigned)
O=C(CCc1ccccc1[O-])[N-]CC(=O)[N-]c1ccc(S(=O)(=O)N2CCOCC2)cc1 (nonaromatic ring conformer: 65.31213560671677 kcal/mol)

>  <smiles>  (2025) 
O=C(CCc1ccccc1O)NCC(=O)Nc1ccc(S(=O)(=O)N2CCOCC2)cc1

>  <score_type>  (2025) 
oracle

>  <origin>  (2025) 
adg

>  <m_score__min__energy>  (2025) 
-15.199999999999999

>  <m_primary>  (2025) 
energy

$$$$
62:0
     RDKit          3D

 25 27  0  0  0  0  0  0  0  0999 V2000
   58.0570   30.4420   44.6740 C   0  0  0  0  0  0  0  0  0  0  0  0
   58.4700   29.8070   45.7810 C   0  0  0  0  0  0  0  0  0  0  0  0
   58.2220   28.4720   46.1420 C   0  0  0  0  0  0  0  0  0  0  0  0
   57.6820   27.4520   45.4470 C   0  0  0  0  0  0  0  0  0  0  0  0
   57.1790   26.1950   46.0220 C   0  0  0  0  0  0  0  0  0  0  0  0
   57.9440   25.2170   46.5350 N   0  0  0  0  0  0  0  0  0  0  0  0
   57.0660   24.3500   47.0790 C   0  0  0  0  0  0  0  0  0  0  0  0
   57.4190   23.2880   47.6570 O   0  0  0  0  0  0  0  0  0  0  0  0
   55.7750   24.7280   46.9640 N   0  0  0  0  0  0  0  0  0  0  0  0
   55.8650   25.9010   46.3080 C   0  0  0  0  0  0  0  0  0  0  0  0
   54.7690   26.6910   45.9860 O   0  0  0  0  0  0  0  0  0  0  0  0
   58.6740   28.3320   47.4450 C   0  0  0  0  0  0  0  0  0  0  0  0
   59.2240   29.5440   47.8100 C   0  0  0  0  0  0  0  0  0  0  0  0
   59.8640   29.8310   49.1340 C   0  0  0  0  0  0  0  0  0  0  0  0
   59.1140   30.4320   46.8000 N   0  0  0  0  0  0  0  0  0  0  0  0
   59.5300   31.8080   46.8540 C   0  0  0  0  0  0  0  0  0  0  0  0
   58.5720   32.8280   46.8220 C   0  0  0  0  0  0  0  0  0  0  0  0
   58.9690   34.1640   46.8890 C   0  0  0  0  0  0  0  0  0  0  0  0
   60.3230   34.4890   46.9900 C   0  0  0  0  0  0  0  0  0  0  0  0
   61.3020   33.4790   47.0260 C   0  0  0  0  0  0  0  0  0  0  0  0
   62.7340   33.8500   47.1340 C   0  0  0  0  0  0  0  0  0  0  0  0
   63.4640   33.9140   46.1110 O   0  0  0  0  0  0  0  0  0  0  0  0
   63.2940   34.1340   48.3750 O   0  0  0  0  0  0  0  0  0  0  0  0
   60.8920   32.1300   46.9560 C   0  0  0  0  0  0  0  0  0  0  0  0
   61.8050   31.1240   46.9750 F   0  0  0  0  0  0  0  0  0  0  0  0
  1  2  2  0
  2  3  1  0
  3  4  2  3
  4  5  1  0
  5  6  1  0
  6  7  1  0
  7  8  2  0
  7  9  1  0
  9 10  1  0
 10 11  1  0
  3 12  1  0
 12 13  2  0
 13 14  1  0
 13 15  1  0
 15 16  1  0
 16 17  2  0
 17 18  1  0
 18 19  2  0
 19 20  1  0
 20 21  1  0
 21 22  2  0
 21 23  1  0
 20 24  2  0
 24 25  1  0
 15  2  1  0
 24 16  1  0
 10  5  2  0
M  CHG  3   9  -1  11  -1  23  -1
M  END
>  <UniqueID>  (2026) 
57

>  <SMILES>  (2026) 
C=c1c(=Cc2[nH]c(=O)[n-]c2[O-])cc(C)n1-c1cccc(C(=O)[O-])c1F

>  <Energy>  (2026) 
116.9637627390612

>  <Genealogy>  (2026) 
C=c1c(=Cc2[nH]c(=O)[n-]c2[O-])cc(C)n1-c1cccc(C(=O)[O-])c1F (protonated)
C=c1c(=Cc2[nH]c(=O)[n-]c2[O-])cc(C)n1-c1cccc(C(=O)[O-])c1F (3D coordinates assigned)
C=c1c(=Cc2[nH]c(=O)[n-]c2[O-])cc(C)n1-c1cccc(C(=O)[O-])c1F (optimized conformer: 116.9637627390612 kcal/mol)

>  <smiles>  (2026) 
C=c1c(=Cc2[nH]c(=O)[nH]c2O)cc(C)n1-c1cccc(C(=O)O)c1F

>  <score_type>  (2026) 
oracle

>  <origin>  (2026) 
adg

>  <m_score__min__energy>  (2026) 
-14.16

>  <m_primary>  (2026) 
energy

$$$$
68:0
     RDKit          3D

 32 35  0  0  0  0  0  0  0  0999 V2000
   56.4250   29.4540   44.4170 C   0  0  0  0  0  0  0  0  0  0  0  0
   57.6600   29.1080   44.8110 C   0  0  0  0  0  0  0  0  0  0  0  0
   58.1560   27.8090   45.0190 C   0  0  0  0  0  0  0  0  0  0  0  0
   57.6270   26.6030   44.7360 C   0  0  0  0  0  0  0  0  0  0  0  0
   57.2010   25.5970   45.7280 C   0  0  0  0  0  0  0  0  0  0  0  0
   55.9430   25.6960   46.3390 C   0  0  0  0  0  0  0  0  0  0  0  0
   55.0610   26.7100   45.9820 O   0  0  0  0  0  0  0  0  0  0  0  0
   55.5730   24.7910   47.2830 N   0  0  0  0  0  0  0  0  0  0  0  0
   56.4100   23.7930   47.6610 C   0  0  0  0  0  0  0  0  0  0  0  0
   56.0440   22.9630   48.5330 O   0  0  0  0  0  0  0  0  0  0  0  0
   57.6440   23.6910   47.1050 N   0  0  0  0  0  0  0  0  0  0  0  0
   58.0620   24.5720   46.1590 C   0  0  0  0  0  0  0  0  0  0  0  0
   59.2230   24.4610   45.6810 O   0  0  0  0  0  0  0  0  0  0  0  0
   59.4010   27.9600   45.6090 C   0  0  0  0  0  0  0  0  0  0  0  0
   59.6480   29.3140   45.6850 C   0  0  0  0  0  0  0  0  0  0  0  0
   60.8990   29.9200   46.2470 C   0  0  0  0  0  0  0  0  0  0  0  0
   58.5950   30.0120   45.2040 N   0  0  0  0  0  0  0  0  0  0  0  0
   58.4970   31.4470   45.1440 C   0  0  0  0  0  0  0  0  0  0  0  0
   57.8920   32.0680   44.0430 C   0  0  0  0  0  0  0  0  0  0  0  0
   57.7880   33.4600   43.9930 C   0  0  0  0  0  0  0  0  0  0  0  0
   58.2930   34.2410   45.0370 C   0  0  0  0  0  0  0  0  0  0  0  0
   58.9160   33.6330   46.1410 C   0  0  0  0  0  0  0  0  0  0  0  0
   59.4370   34.4510   47.2590 C   0  0  0  0  0  0  0  0  0  0  0  0
   58.8920   35.5570   47.5200 O   0  0  0  0  0  0  0  0  0  0  0  0
   60.5660   34.0250   48.0390 N   0  0  0  0  0  0  0  0  0  0  0  0
   60.4940   33.5660   49.4240 C   0  0  0  0  0  0  0  0  0  0  0  0
   61.9180   33.0690   49.7840 C   0  0  0  0  0  0  0  0  0  0  0  0
   62.6910   33.1770   48.5540 N   0  0  0  0  0  0  0  0  0  0  0  0
   64.0860   32.7900   48.3870 C   0  0  0  0  0  0  0  0  0  0  0  0
   61.8620   33.7270   47.5550 C   0  0  0  0  0  0  0  0  0  0  0  0
   62.2220   33.8750   46.3560 O   0  0  0  0  0  0  0  0  0  0  0  0
   59.0000   32.2310   46.1930 C   0  0  0  0  0  0  0  0  0  0  0  0
  1  2  2  0
  2  3  1  0
  3  4  2  3
  4  5  1  0
  5  6  2  0
  6  7  1  0
  6  8  1  0
  8  9  1  0
  9 10  2  0
  9 11  1  0
 11 12  1  0
 12 13  2  0
  3 14  1  0
 14 15  2  0
 15 16  1  0
 15 17  1  0
 17 18  1  0
 18 19  2  0
 19 20  1  0
 20 21  2  0
 21 22  1  0
 22 23  1  0
 23 24  2  0
 23 25  1  0
 25 26  1  0
 26 27  1  0
 27 28  1  0
 28 29  1  0
 28 30  1  0
 30 31  2  0
 22 32  2  0
 17  2  1  0
 32 18  1  0
 12  5  1  0
 30 25  1  0
M  CHG  3   7  -1   8  -1  11  -1
M  END
>  <UniqueID>  (2027) 
63

>  <SMILES>  (2027) 
C=c1c(=Cc2c([O-])[n-]c(=O)[n-]c2=O)cc(C)n1-c1cccc(C(=O)N2CCN(C)C2=O)c1

>  <Energy>  (2027) 
118.63598714257257

>  <Genealogy>  (2027) 
C=c1c(=Cc2c([O-])[n-]c(=O)[n-]c2=O)cc(C)n1-c1cccc(C(=O)N2CCN(C)C2=O)c1 (protonated)
C=c1c(=Cc2c([O-])[n-]c(=O)[n-]c2=O)cc(C)n1-c1cccc(C(=O)N2CCN(C)C2=O)c1 (3D coordinates assigned)
C=c1c(=Cc2c([O-])[n-]c(=O)[n-]c2=O)cc(C)n1-c1cccc(C(=O)N2CCN(C)C2=O)c1 (nonaromatic ring conformer: 118.63598714257257 kcal/mol)

>  <smiles>  (2027) 
C=c1c(=Cc2c(O)[nH]c(=O)[nH]c2=O)cc(C)n1-c1cccc(C(=O)N2CCN(C)C2=O)c1

>  <score_type>  (2027) 
oracle

>  <origin>  (2027) 
adg

>  <m_score__min__energy>  (2027) 
-16.829999999999998

>  <m_primary>  (2027) 
energy

$$$$
70:0
     RDKit          3D

 30 33  0  0  0  0  0  0  0  0999 V2000
   54.5860   28.8510   54.5290 C   0  0  0  0  0  0  0  0  0  0  0  0
   54.9560   29.8370   53.6950 C   0  0  0  0  0  0  0  0  0  0  0  0
   54.1270   30.5140   52.7850 C   0  0  0  0  0  0  0  0  0  0  0  0
   52.7880   30.5250   52.6420 C   0  0  0  0  0  0  0  0  0  0  0  0
   52.0590   30.8450   51.4060 C   0  0  0  0  0  0  0  0  0  0  0  0
   52.1110   30.0860   50.3010 N   0  0  0  0  0  0  0  0  0  0  0  0
   51.3840   30.7840   49.4040 C   0  0  0  0  0  0  0  0  0  0  0  0
   51.1950   30.3890   48.2260 O   0  0  0  0  0  0  0  0  0  0  0  0
   50.8860   31.9520   49.8660 N   0  0  0  0  0  0  0  0  0  0  0  0
   51.3350   31.9880   51.1300 C   0  0  0  0  0  0  0  0  0  0  0  0
   51.1090   33.0610   51.9910 O   0  0  0  0  0  0  0  0  0  0  0  0
   54.9690   31.2480   51.9710 C   0  0  0  0  0  0  0  0  0  0  0  0
   56.2600   31.0470   52.4230 C   0  0  0  0  0  0  0  0  0  0  0  0
   57.4620   31.6330   51.7730 C   0  0  0  0  0  0  0  0  0  0  0  0
   57.8070   32.8210   52.0080 O   0  0  0  0  0  0  0  0  0  0  0  0
   58.2630   30.8530   50.8740 N   0  0  0  0  0  0  0  0  0  0  0  0
   58.4620   31.3320   49.5030 C   0  0  0  0  0  0  0  0  0  0  0  0
   59.6440   30.6200   48.8320 C   0  0  0  0  0  0  0  0  0  0  0  0
   60.8570   30.5210   49.7880 C   0  0  0  0  0  0  0  0  0  0  0  0
   61.4990   31.8990   50.0820 C   0  0  0  0  0  0  0  0  0  0  0  0
   62.0160   32.5780   48.8390 C   0  0  0  0  0  0  0  0  0  0  0  0
   63.3700   32.4660   48.4790 C   0  0  0  0  0  0  0  0  0  0  0  0
   63.8420   33.0730   47.3120 C   0  0  0  0  0  0  0  0  0  0  0  0
   62.9690   33.7930   46.4930 C   0  0  0  0  0  0  0  0  0  0  0  0
   61.6220   33.9120   46.8430 C   0  0  0  0  0  0  0  0  0  0  0  0
   61.1440   33.3140   48.0160 C   0  0  0  0  0  0  0  0  0  0  0  0
   60.4850   29.7980   51.1160 C   0  0  0  0  0  0  0  0  0  0  0  0
   58.9720   29.6630   51.3510 C   0  0  0  0  0  0  0  0  0  0  0  0
   56.2470   30.2260   53.5070 N   0  0  0  0  0  0  0  0  0  0  0  0
   57.4200   29.7810   54.2760 C   0  0  0  0  0  0  0  0  0  0  0  0
  1  2  2  0
  2  3  1  0
  3  4  2  3
  4  5  1  0
  5  6  1  0
  6  7  1  0
  7  8  2  0
  7  9  1  0
  9 10  1  0
 10 11  1  0
  3 12  1  0
 12 13  2  0
 13 14  1  0
 14 15  2  0
 14 16  1  0
 16 17  1  0
 17 18  1  0
 18 19  1  0
 19 20  1  0
 20 21  1  0
 21 22  2  0
 22 23  1  0
 23 24  2  0
 24 25  1  0
 25 26  2  0
 19 27  1  0
 27 28  1  0
 13 29  1  0
 29 30  1  0
 29  2  1  0
 10  5  2  0
 28 16  1  0
 26 21  1  0
M  CHG  2   6  -1   9  -1
M  END
>  <UniqueID>  (2028) 
65

>  <SMILES>  (2028) 
C=c1c(=Cc2[n-]c(=O)[n-]c2O)cc(C(=O)N2CCC(Cc3ccccc3)CC2)n1C

>  <Energy>  (2028) 
136.0885083303118

>  <Genealogy>  (2028) 
C=c1c(=Cc2[n-]c(=O)[n-]c2O)cc(C(=O)N2CCC(Cc3ccccc3)CC2)n1C (protonated)
C=c1c(=Cc2[n-]c(=O)[n-]c2O)cc(C(=O)N2CCC(Cc3ccccc3)CC2)n1C (3D coordinates assigned)
C=c1c(=Cc2[n-]c(=O)[n-]c2O)cc(C(=O)N2CCC(Cc3ccccc3)CC2)n1C (nonaromatic ring conformer: 136.0885083303118 kcal/mol)

>  <smiles>  (2028) 
C=c1c(=Cc2[nH]c(=O)[nH]c2O)cc(C(=O)N2CCC(Cc3ccccc3)CC2)n1C

>  <score_type>  (2028) 
oracle

>  <origin>  (2028) 
adg

>  <m_score__min__energy>  (2028) 
-14.130000000000001

>  <m_primary>  (2028) 
energy

$$$$
74:0
     RDKit          3D

 33 36  0  0  0  0  0  0  0  0999 V2000
   58.2860   30.9850   46.5290 C   0  0  0  0  0  0  0  0  0  0  0  0
   58.9600   30.0390   47.2020 C   0  0  0  0  0  0  0  0  0  0  0  0
   59.0670   28.6890   46.8600 C   0  0  0  0  0  0  0  0  0  0  0  0
   58.5390   28.0700   45.7870 C   0  0  0  0  0  0  0  0  0  0  0  0
   57.4790   27.0430   45.8890 C   0  0  0  0  0  0  0  0  0  0  0  0
   56.1240   27.3310   45.6160 C   0  0  0  0  0  0  0  0  0  0  0  0
   55.7060   28.5940   45.1960 O   0  0  0  0  0  0  0  0  0  0  0  0
   55.1930   26.3500   45.7440 N   0  0  0  0  0  0  0  0  0  0  0  0
   55.5390   25.0890   46.1090 C   0  0  0  0  0  0  0  0  0  0  0  0
   54.6540   24.2020   46.2200 O   0  0  0  0  0  0  0  0  0  0  0  0
   56.8390   24.7830   46.3460 N   0  0  0  0  0  0  0  0  0  0  0  0
   57.8120   25.7240   46.2410 C   0  0  0  0  0  0  0  0  0  0  0  0
   59.0080   25.4040   46.4710 O   0  0  0  0  0  0  0  0  0  0  0  0
   59.8570   28.0970   47.8380 C   0  0  0  0  0  0  0  0  0  0  0  0
   60.1870   29.0950   48.7340 C   0  0  0  0  0  0  0  0  0  0  0  0
   61.0520   28.9110   49.9430 C   0  0  0  0  0  0  0  0  0  0  0  0
   59.6540   30.2730   48.3410 N   0  0  0  0  0  0  0  0  0  0  0  0
   59.7890   31.5260   49.0290 C   0  0  0  0  0  0  0  0  0  0  0  0
   59.0320   31.7640   50.1830 C   0  0  0  0  0  0  0  0  0  0  0  0
   59.1410   32.9830   50.8630 C   0  0  0  0  0  0  0  0  0  0  0  0
   58.1470   33.2730   52.2880 S   0  0  0  0  0  0  0  0  0  0  0  0
   56.7640   32.7230   52.0720 O   0  0  0  0  0  0  0  0  0  0  0  0
   58.0410   34.7590   52.4940 O   0  0  0  0  0  0  0  0  0  0  0  0
   58.8790   32.5420   53.7000 N   0  0  0  0  0  0  0  0  0  0  0  0
   59.9340   33.3920   54.2810 C   0  0  0  0  0  0  0  0  0  0  0  0
   61.2400   33.3620   53.4590 C   0  0  0  0  0  0  0  0  0  0  0  0
   61.5470   32.0440   52.8730 N   0  0  0  0  0  0  0  0  0  0  0  0
   60.8360   30.9500   53.5400 C   0  0  0  0  0  0  0  0  0  0  0  0
   59.3120   31.1480   53.4410 C   0  0  0  0  0  0  0  0  0  0  0  0
   60.0140   33.9690   50.3830 C   0  0  0  0  0  0  0  0  0  0  0  0
   60.7720   33.7350   49.2330 C   0  0  0  0  0  0  0  0  0  0  0  0
   60.6630   32.5180   48.5510 C   0  0  0  0  0  0  0  0  0  0  0  0
   61.6030   32.2680   47.0870 Cl  0  0  0  0  0  0  0  0  0  0  0  0
  1  2  2  0
  2  3  1  0
  3  4  2  3
  4  5  1  0
  5  6  2  0
  6  7  1  0
  6  8  1  0
  8  9  1  0
  9 10  2  0
  9 11  1  0
 11 12  1  0
 12 13  2  0
  3 14  1  0
 14 15  2  0
 15 16  1  0
 15 17  1  0
 17 18  1  0
 18 19  2  0
 19 20  1  0
 20 21  1  0
 21 22  2  0
 21 23  2  0
 21 24  1  0
 24 25  1  0
 25 26  1  0
 26 27  1  0
 27 28  1  0
 28 29  1  0
 20 30  2  0
 30 31  1  0
 31 32  2  0
 32 33  1  0
 17  2  1  0
 32 18  1  0
 12  5  1  0
 29 24  1  0
M  CHG  2   8  -1  11  -1
M  END
>  <UniqueID>  (2029) 
68

>  <SMILES>  (2029) 
C=c1c(=Cc2c(O)[n-]c(=O)[n-]c2=O)cc(C)n1-c1cc(S(=O)(=O)N2CCNCC2)ccc1Cl

>  <Energy>  (2029) 
111.66735122016702

>  <Genealogy>  (2029) 
C=c1c(=Cc2c(O)[n-]c(=O)[n-]c2=O)cc(C)n1-c1cc(S(=O)(=O)N2CCNCC2)ccc1Cl (protonated)
C=c1c(=Cc2c(O)[n-]c(=O)[n-]c2=O)cc(C)n1-c1cc(S(=O)(=O)N2CCNCC2)ccc1Cl (3D coordinates assigned)
C=c1c(=Cc2c(O)[n-]c(=O)[n-]c2=O)cc(C)n1-c1cc(S(=O)(=O)N2CCNCC2)ccc1Cl (nonaromatic ring conformer: 111.66735122016702 kcal/mol)

>  <smiles>  (2029) 
C=c1c(=Cc2c(O)[nH]c(=O)[nH]c2=O)cc(C)n1-c1cc(S(=O)(=O)N2CCNCC2)ccc1Cl

>  <score_type>  (2029) 
oracle

>  <origin>  (2029) 
adg

>  <m_score__min__energy>  (2029) 
-14.67

>  <m_primary>  (2029) 
energy

$$$$
82:0
     RDKit          3D

 29 31  0  0  0  0  0  0  0  0999 V2000
   55.5350   29.0800   44.8790 O   0  0  0  0  0  0  0  0  0  0  0  0
   56.7370   29.0230   45.2510 C   0  0  0  0  0  0  0  0  0  0  0  0
   57.5730   27.8430   44.8190 C   0  0  0  0  0  0  0  0  0  0  0  0
   57.5570   26.7200   45.8630 C   0  0  0  0  0  0  0  0  0  0  0  0
   56.3570   25.8230   45.7130 C   0  0  0  0  0  0  0  0  0  0  0  0
   55.1190   26.3060   45.9990 N   0  0  0  0  0  0  0  0  0  0  0  0
   54.0310   25.5460   45.8650 N   0  0  0  0  0  0  0  0  0  0  0  0
   54.1270   24.2640   45.4320 C   0  0  0  0  0  0  0  0  0  0  0  0
   53.0930   23.5600   45.3070 O   0  0  0  0  0  0  0  0  0  0  0  0
   55.3440   23.7460   45.1320 N   0  0  0  0  0  0  0  0  0  0  0  0
   56.4660   24.4980   45.2620 C   0  0  0  0  0  0  0  0  0  0  0  0
   57.5870   23.9990   44.9770 O   0  0  0  0  0  0  0  0  0  0  0  0
   57.2920   30.1440   45.9540 N   0  0  0  0  0  0  0  0  0  0  0  0
   57.7280   31.3820   45.3810 C   0  0  0  0  0  0  0  0  0  0  0  0
   57.6170   31.5640   43.9990 C   0  0  0  0  0  0  0  0  0  0  0  0
   58.0400   32.7580   43.4100 C   0  0  0  0  0  0  0  0  0  0  0  0
   58.5540   33.7870   44.2010 C   0  0  0  0  0  0  0  0  0  0  0  0
   58.6290   33.6410   45.5990 C   0  0  0  0  0  0  0  0  0  0  0  0
   59.1630   34.7360   46.4420 C   0  0  0  0  0  0  0  0  0  0  0  0
   59.6960   35.7450   45.9050 O   0  0  0  0  0  0  0  0  0  0  0  0
   59.0720   34.6570   47.8690 N   0  0  0  0  0  0  0  0  0  0  0  0
   59.6440   33.5730   48.6590 C   0  0  0  0  0  0  0  0  0  0  0  0
   61.1350   33.5200   48.4630 C   0  0  0  0  0  0  0  0  0  0  0  0
   61.6690   32.9860   47.2790 C   0  0  0  0  0  0  0  0  0  0  0  0
   63.0540   32.9100   47.1020 C   0  0  0  0  0  0  0  0  0  0  0  0
   63.9150   33.3630   48.1070 C   0  0  0  0  0  0  0  0  0  0  0  0
   63.3910   33.8900   49.2910 C   0  0  0  0  0  0  0  0  0  0  0  0
   62.0060   33.9690   49.4710 C   0  0  0  0  0  0  0  0  0  0  0  0
   58.1940   32.4370   46.1820 C   0  0  0  0  0  0  0  0  0  0  0  0
  1  2  2  0
  2  3  1  0
  3  4  1  0
  4  5  1  0
  5  6  2  0
  6  7  1  0
  7  8  1  0
  8  9  2  0
  8 10  1  0
 10 11  1  0
 11 12  2  0
  2 13  1  0
 13 14  1  0
 14 15  2  0
 15 16  1  0
 16 17  2  0
 17 18  1  0
 18 19  1  0
 19 20  2  0
 19 21  1  0
 21 22  1  0
 22 23  1  0
 23 24  2  0
 24 25  1  0
 25 26  2  0
 26 27  1  0
 27 28  2  0
 18 29  2  0
 11  5  1  0
 29 14  1  0
 28 23  1  0
M  CHG  4   7  -1  10  -1  13  -1  21  -1
M  END
>  <UniqueID>  (2030) 
74

>  <SMILES>  (2030) 
O=C(CCc1n[n-]c(=O)[n-]c1=O)[N-]c1cccc(C(=O)[N-]Cc2ccccc2)c1

>  <Energy>  (2030) 
47.458554164044564

>  <Genealogy>  (2030) 
O=C(CCc1n[n-]c(=O)[n-]c1=O)[N-]c1cccc(C(=O)[N-]Cc2ccccc2)c1 (protonated)
O=C(CCc1n[n-]c(=O)[n-]c1=O)[N-]c1cccc(C(=O)[N-]Cc2ccccc2)c1 (3D coordinates assigned)
O=C(CCc1n[n-]c(=O)[n-]c1=O)[N-]c1cccc(C(=O)[N-]Cc2ccccc2)c1 (optimized conformer: 47.458554164044564 kcal/mol)

>  <smiles>  (2030) 
O=C(CCc1n[nH]c(=O)[nH]c1=O)Nc1cccc(C(=O)NCc2ccccc2)c1

>  <score_type>  (2030) 
oracle

>  <origin>  (2030) 
adg

>  <m_score__min__energy>  (2030) 
-16.09

>  <m_primary>  (2030) 
energy

$$$$
0:0
     RDKit          3D

 30 33  0  0  0  0  0  0  0  0999 V2000
   59.5630   28.0270   46.9700 C   0  0  0  0  0  0  0  0  0  0  0  0
   58.8600   28.5620   45.9610 C   0  0  0  0  0  0  0  0  0  0  0  0
   58.1660   27.8780   44.9480 C   0  0  0  0  0  0  0  0  0  0  0  0
   57.8780   26.5700   44.8010 C   0  0  0  0  0  0  0  0  0  0  0  0
   57.3040   25.6990   45.8370 C   0  0  0  0  0  0  0  0  0  0  0  0
   57.9900   24.7580   46.5130 N   0  0  0  0  0  0  0  0  0  0  0  0
   57.0980   24.3220   47.4290 C   0  0  0  0  0  0  0  0  0  0  0  0
   57.3670   23.4130   48.2560 O   0  0  0  0  0  0  0  0  0  0  0  0
   55.8990   24.9430   47.3940 N   0  0  0  0  0  0  0  0  0  0  0  0
   56.0530   25.8220   46.3900 C   0  0  0  0  0  0  0  0  0  0  0  0
   55.0710   26.7200   45.9920 O   0  0  0  0  0  0  0  0  0  0  0  0
   57.7680   28.8390   44.0330 C   0  0  0  0  0  0  0  0  0  0  0  0
   58.1750   30.0600   44.5320 C   0  0  0  0  0  0  0  0  0  0  0  0
   57.9450   31.3790   43.8590 C   0  0  0  0  0  0  0  0  0  0  0  0
   58.8230   29.8960   45.7050 N   0  0  0  0  0  0  0  0  0  0  0  0
   59.4730   30.9430   46.4460 C   0  0  0  0  0  0  0  0  0  0  0  0
   60.8490   30.8650   46.7070 C   0  0  0  0  0  0  0  0  0  0  0  0
   61.4990   31.8840   47.4220 C   0  0  0  0  0  0  0  0  0  0  0  0
   62.9450   31.7870   47.7190 C   0  0  0  0  0  0  0  0  0  0  0  0
   63.7590   31.5530   46.7860 O   0  0  0  0  0  0  0  0  0  0  0  0
   63.4450   31.9590   49.0540 N   0  0  0  0  0  0  0  0  0  0  0  0
   64.3660   33.0570   49.3470 C   0  0  0  0  0  0  0  0  0  0  0  0
   65.3160   32.6480   50.4770 C   0  0  0  0  0  0  0  0  0  0  0  0
   64.5940   32.1460   51.5870 O   0  0  0  0  0  0  0  0  0  0  0  0
   63.9320   30.9480   51.2270 C   0  0  0  0  0  0  0  0  0  0  0  0
   62.8550   31.2200   50.1730 C   0  0  0  0  0  0  0  0  0  0  0  0
   60.7500   32.9770   47.8880 C   0  0  0  0  0  0  0  0  0  0  0  0
   59.3800   33.0590   47.6240 C   0  0  0  0  0  0  0  0  0  0  0  0
   58.7410   32.0470   46.9040 C   0  0  0  0  0  0  0  0  0  0  0  0
   57.4070   32.1290   46.6700 F   0  0  0  0  0  0  0  0  0  0  0  0
  1  2  2  0
  2  3  1  0
  3  4  2  3
  4  5  1  0
  5  6  1  0
  6  7  1  0
  7  8  2  0
  7  9  1  0
  9 10  1  0
 10 11  1  0
  3 12  1  0
 12 13  2  0
 13 14  1  0
 13 15  1  0
 15 16  1  0
 16 17  2  0
 17 18  1  0
 18 19  1  0
 19 20  2  0
 19 21  1  0
 21 22  1  0
 22 23  1  0
 23 24  1  0
 24 25  1  0
 25 26  1  0
 18 27  2  0
 27 28  1  0
 28 29  2  0
 29 30  1  0
 15  2  1  0
 29 16  1  0
 10  5  2  0
 26 21  1  0
M  CHG  3   6  -1   9  -1  11  -1
M  END
>  <UniqueID>  (2031) 
1

>  <SMILES>  (2031) 
C=c1c(=Cc2[n-]c(=O)[n-]c2[O-])cc(C)n1-c1cc(C(=O)N2CCOCC2)ccc1F

>  <Energy>  (2031) 
133.46472191813942

>  <Genealogy>  (2031) 
C=c1c(=Cc2[n-]c(=O)[n-]c2[O-])cc(C)n1-c1cc(C(=O)N2CCOCC2)ccc1F (protonated)
C=c1c(=Cc2[n-]c(=O)[n-]c2[O-])cc(C)n1-c1cc(C(=O)N2CCOCC2)ccc1F (3D coordinates assigned)
C=c1c(=Cc2[n-]c(=O)[n-]c2[O-])cc(C)n1-c1cc(C(=O)N2CCOCC2)ccc1F (nonaromatic ring conformer: 133.46472191813942 kcal/mol)

>  <smiles>  (2031) 
C=c1c(=Cc2[nH]c(=O)[nH]c2O)cc(C)n1-c1cc(C(=O)N2CCOCC2)ccc1F

>  <score_type>  (2031) 
oracle

>  <origin>  (2031) 
adg

>  <m_score__min__energy>  (2031) 
-16.609999999999999

>  <m_primary>  (2031) 
energy

$$$$
11:0
     RDKit          3D

 26 28  0  0  0  0  0  0  0  0999 V2000
   53.8660   28.3370   52.9320 C   0  0  0  0  0  0  0  0  0  0  0  0
   54.7070   29.3350   52.6430 C   0  0  0  0  0  0  0  0  0  0  0  0
   56.0440   29.0940   52.5550 N   0  0  0  0  0  0  0  0  0  0  0  0
   56.7460   30.2040   52.2480 C   0  0  0  0  0  0  0  0  0  0  0  0
   58.5200   30.2130   52.0010 S   0  0  0  0  0  0  0  0  0  0  0  0
   58.6730   32.0350   52.0250 C   0  0  0  0  0  0  0  0  0  0  0  0
   59.0020   32.5700   50.6570 C   0  0  0  0  0  0  0  0  0  0  0  0
   59.8130   33.7080   50.5150 C   0  0  0  0  0  0  0  0  0  0  0  0
   60.0640   34.2410   49.2470 C   0  0  0  0  0  0  0  0  0  0  0  0
   59.5160   33.6390   48.1080 C   0  0  0  0  0  0  0  0  0  0  0  0
   59.8060   34.3360   46.5170 S   0  0  0  0  0  0  0  0  0  0  0  0
   61.3960   33.9200   45.9880 N   0  0  0  0  0  0  0  0  0  0  0  0
   58.7950   33.8050   45.5390 O   0  0  0  0  0  0  0  0  0  0  0  0
   59.6750   35.8320   46.5820 O   0  0  0  0  0  0  0  0  0  0  0  0
   58.7070   32.5030   48.2460 C   0  0  0  0  0  0  0  0  0  0  0  0
   58.4520   31.9710   49.5130 C   0  0  0  0  0  0  0  0  0  0  0  0
   55.7510   31.5390   52.0720 S   0  0  0  0  0  0  0  0  0  0  0  0
   54.3350   30.6760   52.4090 C   0  0  0  0  0  0  0  0  0  0  0  0
   53.0880   31.1830   52.3830 C   0  0  0  0  0  0  0  0  0  0  0  0
   52.2750   31.3080   51.1610 C   0  0  0  0  0  0  0  0  0  0  0  0
   52.2470   30.3700   50.1970 N   0  0  0  0  0  0  0  0  0  0  0  0
   51.3320   30.8440   49.3240 C   0  0  0  0  0  0  0  0  0  0  0  0
   51.0310   30.2390   48.2630 O   0  0  0  0  0  0  0  0  0  0  0  0
   50.7580   32.0120   49.6830 N   0  0  0  0  0  0  0  0  0  0  0  0
   51.3550   32.2880   50.8540 C   0  0  0  0  0  0  0  0  0  0  0  0
   51.0260   33.3830   51.6420 O   0  0  0  0  0  0  0  0  0  0  0  0
  1  2  2  0
  2  3  1  0
  3  4  2  0
  4  5  1  0
  5  6  1  0
  6  7  1  0
  7  8  2  0
  8  9  1  0
  9 10  2  0
 10 11  1  0
 11 12  1  0
 11 13  2  0
 11 14  2  0
 10 15  1  0
 15 16  2  0
  4 17  1  0
 17 18  1  0
 18 19  2  3
 19 20  1  0
 20 21  1  0
 21 22  1  0
 22 23  2  0
 22 24  1  0
 24 25  1  0
 25 26  1  0
 18  2  1  0
 25 20  2  0
 16  7  1  0
M  CHG  4  12  -1  21  -1  24  -1  26  -1
M  END
>  <UniqueID>  (2032) 
12

>  <SMILES>  (2032) 
C=c1nc(SCc2ccc(S([NH-])(=O)=O)cc2)sc1=Cc1[n-]c(=O)[n-]c1[O-]

>  <Energy>  (2032) 
100.37003851766353

>  <Genealogy>  (2032) 
C=c1nc(SCc2ccc(S([NH-])(=O)=O)cc2)sc1=Cc1[n-]c(=O)[n-]c1[O-] (protonated)
C=c1nc(SCc2ccc(S([NH-])(=O)=O)cc2)sc1=Cc1[n-]c(=O)[n-]c1[O-] (3D coordinates assigned)
C=c1nc(SCc2ccc(S([NH-])(=O)=O)cc2)sc1=Cc1[n-]c(=O)[n-]c1[O-] (optimized conformer: 100.37003851766353 kcal/mol)

>  <smiles>  (2032) 
C=c1nc(SCc2ccc(S(N)(=O)=O)cc2)sc1=Cc1[nH]c(=O)[nH]c1O

>  <score_type>  (2032) 
oracle

>  <origin>  (2032) 
adg

>  <m_score__min__energy>  (2032) 
-18.489999999999998

>  <m_primary>  (2032) 
energy

$$$$
22:0
     RDKit          3D

 30 33  0  0  0  0  0  0  0  0999 V2000
   56.6470   23.2710   48.4340 C   0  0  0  0  0  0  0  0  0  0  0  0
   57.0360   24.1980   47.5510 C   0  0  0  0  0  0  0  0  0  0  0  0
   56.6720   24.2940   46.2060 C   0  0  0  0  0  0  0  0  0  0  0  0
   55.8370   23.4770   45.5330 C   0  0  0  0  0  0  0  0  0  0  0  0
   54.4060   23.7480   45.2800 C   0  0  0  0  0  0  0  0  0  0  0  0
   53.4840   22.8300   44.9360 N   0  0  0  0  0  0  0  0  0  0  0  0
   52.3310   23.5340   44.9170 C   0  0  0  0  0  0  0  0  0  0  0  0
   51.2240   23.0130   44.6250 O   0  0  0  0  0  0  0  0  0  0  0  0
   52.4590   24.8380   45.2410 N   0  0  0  0  0  0  0  0  0  0  0  0
   53.7760   24.9530   45.4740 C   0  0  0  0  0  0  0  0  0  0  0  0
   54.3880   26.1390   45.8610 O   0  0  0  0  0  0  0  0  0  0  0  0
   57.3310   25.4160   45.7140 C   0  0  0  0  0  0  0  0  0  0  0  0
   58.0580   25.9470   46.7690 C   0  0  0  0  0  0  0  0  0  0  0  0
   58.9590   27.1250   46.7480 C   0  0  0  0  0  0  0  0  0  0  0  0
   59.3560   27.5710   47.8590 O   0  0  0  0  0  0  0  0  0  0  0  0
   59.3490   27.8200   45.5330 N   0  0  0  0  0  0  0  0  0  0  0  0
   58.1760   28.2600   44.7270 C   0  0  0  0  0  0  0  0  0  0  0  0
   58.3680   29.6430   44.1010 C   0  0  0  0  0  0  0  0  0  0  0  0
   58.7470   30.5980   45.1420 N   0  0  0  0  0  0  0  0  0  0  0  0
   57.9310   31.7590   45.4050 C   0  0  0  0  0  0  0  0  0  0  0  0
   56.6940   31.7190   45.1680 O   0  0  0  0  0  0  0  0  0  0  0  0
   58.5090   32.9970   45.9700 C   0  0  0  0  0  0  0  0  0  0  0  0
   58.6710   33.1430   47.3580 C   0  0  0  0  0  0  0  0  0  0  0  0
   59.2290   34.3130   47.8830 C   0  0  0  0  0  0  0  0  0  0  0  0
   59.6390   35.3400   47.0260 C   0  0  0  0  0  0  0  0  0  0  0  0
   59.4990   35.1940   45.6440 C   0  0  0  0  0  0  0  0  0  0  0  0
   58.9430   34.0240   45.1160 C   0  0  0  0  0  0  0  0  0  0  0  0
   59.8560   30.2610   46.0440 C   0  0  0  0  0  0  0  0  0  0  0  0
   60.4000   28.8460   45.7830 C   0  0  0  0  0  0  0  0  0  0  0  0
   57.8860   25.1920   47.8720 N   0  0  0  0  0  0  0  0  0  0  0  0
  1  2  2  0
  2  3  1  0
  3  4  2  0
  4  5  1  0
  5  6  1  0
  6  7  1  0
  7  8  2  0
  7  9  1  0
  9 10  1  0
 10 11  1  0
  3 12  1  0
 12 13  2  0
 13 14  1  0
 14 15  2  0
 14 16  1  0
 16 17  1  0
 17 18  1  0
 18 19  1  0
 19 20  1  0
 20 21  2  0
 20 22  1  0
 22 23  2  0
 23 24  1  0
 24 25  2  0
 25 26  1  0
 26 27  2  0
 19 28  1  0
 28 29  1  0
 13 30  1  0
 30  2  1  0
 10  5  2  0
 29 16  1  0
 27 22  1  0
M  CHG  4   6  -1   9  -1  11  -1  16   1
M  END
>  <UniqueID>  (2033) 
21

>  <SMILES>  (2033) 
C=c1[nH]c(C(=O)[NH+]2CCN(C(=O)c3ccccc3)CC2)c/c1=C\c1[n-]c(=O)[n-]c1[O-]

>  <Energy>  (2033) 
131.32904889723716

>  <Genealogy>  (2033) 
C=c1[nH]c(C(=O)[NH+]2CCN(C(=O)c3ccccc3)CC2)cc1=Cc1[n-]c(=O)[n-]c1[O-] (protonated)
C=c1[nH]c(C(=O)[NH+]2CCN(C(=O)c3ccccc3)CC2)c/c1=C\c1[n-]c(=O)[n-]c1[O-] (cis-trans isomerization)
C=c1[nH]c(C(=O)[NH+]2CCN(C(=O)c3ccccc3)CC2)c/c1=C\c1[n-]c(=O)[n-]c1[O-] (3D coordinates assigned)
C=c1[nH]c(C(=O)[NH+]2CCN(C(=O)c3ccccc3)CC2)c/c1=C\c1[n-]c(=O)[n-]c1[O-] (nonaromatic ring conformer: 131.32904889723716 kcal/mol)

>  <smiles>  (2033) 
C=c1[nH]c(C(=O)N2CCN(C(=O)c3ccccc3)CC2)cc1=Cc1[nH]c(=O)[nH]c1O

>  <score_type>  (2033) 
oracle

>  <origin>  (2033) 
adg

>  <m_score__min__energy>  (2033) 
-16.940000000000001

>  <m_primary>  (2033) 
energy

$$$$
23:0
     RDKit          3D

 29 31  0  0  0  0  0  0  0  0999 V2000
   53.8220   29.3740   54.6840 C   0  0  0  0  0  0  0  0  0  0  0  0
   54.4000   29.9210   53.6000 C   0  0  0  0  0  0  0  0  0  0  0  0
   53.7310   30.4300   52.4800 C   0  0  0  0  0  0  0  0  0  0  0  0
   52.3940   30.4680   52.2780 C   0  0  0  0  0  0  0  0  0  0  0  0
   51.7250   30.8330   51.0100 C   0  0  0  0  0  0  0  0  0  0  0  0
   51.6570   30.0660   49.9060 N   0  0  0  0  0  0  0  0  0  0  0  0
   51.0080   30.8500   49.0180 C   0  0  0  0  0  0  0  0  0  0  0  0
   50.7480   30.4730   47.8470 O   0  0  0  0  0  0  0  0  0  0  0  0
   50.6650   32.0710   49.4830 N   0  0  0  0  0  0  0  0  0  0  0  0
   51.1290   32.0440   50.7420 C   0  0  0  0  0  0  0  0  0  0  0  0
   51.0220   33.1110   51.6250 O   0  0  0  0  0  0  0  0  0  0  0  0
   54.7200   30.8580   51.6060 C   0  0  0  0  0  0  0  0  0  0  0  0
   55.9360   30.6000   52.2090 C   0  0  0  0  0  0  0  0  0  0  0  0
   57.2360   30.8640   51.5510 C   0  0  0  0  0  0  0  0  0  0  0  0
   57.7170   32.0270   51.5300 O   0  0  0  0  0  0  0  0  0  0  0  0
   57.9570   29.7630   50.9740 N   0  0  0  0  0  0  0  0  0  0  0  0
   59.1140   29.7920   50.3800 C   0  0  0  0  0  0  0  0  0  0  0  0
   60.2520   29.4330   51.0120 N   0  0  0  0  0  0  0  0  0  0  0  0
   61.3360   29.5320   50.1960 C   0  0  0  0  0  0  0  0  0  0  0  0
   61.0680   29.9710   48.9050 C   0  0  0  0  0  0  0  0  0  0  0  0
   59.4130   30.2450   48.7820 S   0  0  0  0  0  0  0  0  0  0  0  0
   55.7450   30.0470   53.4380 N   0  0  0  0  0  0  0  0  0  0  0  0
   56.7830   29.6590   54.4070 C   0  0  0  0  0  0  0  0  0  0  0  0
   57.4860   28.4040   53.9500 C   0  0  0  0  0  0  0  0  0  0  0  0
   56.8790   27.3420   53.9960 O   0  0  0  0  0  0  0  0  0  0  0  0
   58.8550   28.4490   53.4700 N   0  0  1  0  0  0  0  0  0  0  0  0
   59.6080   29.5410   54.1070 C   0  0  0  0  0  0  0  0  0  0  0  0
   59.5260   27.1310   53.5870 C   0  0  0  0  0  0  0  0  0  0  0  0
   60.5540   26.8280   52.4870 C   0  0  0  0  0  0  0  0  0  0  0  0
  1  2  2  0
  2  3  1  0
  3  4  2  3
  4  5  1  0
  5  6  1  0
  6  7  1  0
  7  8  2  0
  7  9  1  0
  9 10  1  0
 10 11  1  0
  3 12  1  0
 12 13  2  0
 13 14  1  0
 14 15  2  0
 14 16  1  0
 16 17  2  3
 17 18  1  0
 18 19  1  0
 19 20  2  0
 20 21  1  0
 13 22  1  0
 22 23  1  0
 23 24  1  0
 24 25  2  0
 24 26  1  0
 26 27  1  1
 26 28  1  0
 28 29  1  0
 22  2  1  0
 10  5  2  0
 21 17  1  0
M  CHG  5   6  -1   9  -1  11  -1  18  -1  26   1
M  END
>  <UniqueID>  (2034) 
22

>  <SMILES>  (2034) 
C=c1c(=Cc2[n-]c(=O)[n-]c2[O-])cc(C(=O)N=c2[n-]ccs2)n1CC(=O)[N@@H+](C)CC

>  <Energy>  (2034) 
147.58769360858437

>  <Genealogy>  (2034) 
C=c1c(=Cc2[n-]c(=O)[n-]c2[O-])cc(C(=O)N=c2[n-]ccs2)n1CC(=O)[NH+](C)CC (protonated)
C=c1c(=Cc2[n-]c(=O)[n-]c2[O-])cc(C(=O)N=c2[n-]ccs2)n1CC(=O)[N@@H+](C)CC (chirality)
C=c1c(=Cc2[n-]c(=O)[n-]c2[O-])cc(C(=O)N=c2[n-]ccs2)n1CC(=O)[N@@H+](C)CC (3D coordinates assigned)
C=c1c(=Cc2[n-]c(=O)[n-]c2[O-])cc(C(=O)N=c2[n-]ccs2)n1CC(=O)[N@@H+](C)CC (optimized conformer: 147.58769360858437 kcal/mol)

>  <smiles>  (2034) 
C=c1c(=Cc2[nH]c(=O)[nH]c2O)cc(C(=O)N=c2[nH]ccs2)n1CC(=O)N(C)CC

>  <score_type>  (2034) 
oracle

>  <origin>  (2034) 
adg

>  <m_score__min__energy>  (2034) 
-15.09

>  <m_primary>  (2034) 
energy

$$$$
35:0
     RDKit          3D

 38 41  0  0  0  0  0  0  0  0999 V2000
   58.6230   32.1660   48.3300 O   0  0  0  0  0  0  0  0  0  0  0  0
   59.4900   33.2170   47.9610 C   0  0  0  0  0  0  0  0  0  0  0  0
   60.3940   32.6740   46.8150 C   0  0  0  0  0  0  0  0  0  0  0  0
   61.7340   32.1640   47.2930 C   0  0  0  0  0  0  0  0  0  0  0  0
   62.7910   32.6260   46.7880 O   0  0  0  0  0  0  0  0  0  0  0  0
   61.8220   31.1710   48.3280 N   0  0  0  0  0  0  0  0  0  0  0  0
   60.9910   29.9580   48.2990 C   0  0  0  0  0  0  0  0  0  0  0  0
   60.2320   29.8250   49.6240 C   0  0  0  0  0  0  0  0  0  0  0  0
   61.0730   30.2180   50.7740 N   0  0  0  0  0  0  0  0  0  0  0  0
   60.4640   30.7060   51.9910 C   0  0  0  0  0  0  0  0  0  0  0  0
   61.1470   31.3850   52.8100 O   0  0  0  0  0  0  0  0  0  0  0  0
   59.0400   30.4660   52.3030 C   0  0  0  0  0  0  0  0  0  0  0  0
   58.5550   29.1630   52.5000 C   0  0  0  0  0  0  0  0  0  0  0  0
   57.2020   28.9490   52.7760 C   0  0  0  0  0  0  0  0  0  0  0  0
   56.3220   30.0360   52.8820 C   0  0  0  0  0  0  0  0  0  0  0  0
   54.9280   29.8140   53.1650 N   0  0  0  0  0  0  0  0  0  0  0  0
   54.4350   28.9210   54.0530 C   0  0  0  0  0  0  0  0  0  0  0  0
   55.2630   28.0350   54.9330 C   0  0  0  0  0  0  0  0  0  0  0  0
   53.0550   28.9520   54.0490 C   0  0  0  0  0  0  0  0  0  0  0  0
   52.6790   29.9390   53.1520 C   0  0  0  0  0  0  0  0  0  0  0  0
   51.3930   30.2900   52.9520 C   0  0  0  0  0  0  0  0  0  0  0  0
   50.8590   31.6570   53.0310 C   0  0  0  0  0  0  0  0  0  0  0  0
   50.6130   32.2940   54.1880 N   0  0  0  0  0  0  0  0  0  0  0  0
   50.2700   33.5390   53.7900 C   0  0  0  0  0  0  0  0  0  0  0  0
   49.9470   34.4440   54.6030 O   0  0  0  0  0  0  0  0  0  0  0  0
   50.3110   33.7420   52.4550 N   0  0  0  0  0  0  0  0  0  0  0  0
   50.7000   32.5450   51.9890 C   0  0  0  0  0  0  0  0  0  0  0  0
   50.9360   32.2780   50.6450 O   0  0  0  0  0  0  0  0  0  0  0  0
   53.8650   30.4290   52.5830 C   0  0  0  0  0  0  0  0  0  0  0  0
   53.9770   31.2510   51.5270 C   0  0  0  0  0  0  0  0  0  0  0  0
   56.8110   31.3400   52.7160 C   0  0  0  0  0  0  0  0  0  0  0  0
   58.1630   31.5540   52.4310 C   0  0  0  0  0  0  0  0  0  0  0  0
   62.5230   30.3590   50.5590 C   0  0  0  0  0  0  0  0  0  0  0  0
   62.7760   31.3660   49.4300 C   0  0  0  0  0  0  0  0  0  0  0  0
   58.6030   34.4160   47.4820 C   0  0  0  0  0  0  0  0  0  0  0  0
   58.4740   34.6040   45.9680 C   0  0  0  0  0  0  0  0  0  0  0  0
   60.3340   33.5940   49.2300 C   0  0  0  0  0  0  0  0  0  0  0  0
   61.5060   34.5640   49.0180 C   0  0  0  0  0  0  0  0  0  0  0  0
  1  2  1  0
  2  3  1  0
  3  4  1  0
  4  5  2  0
  4  6  1  0
  6  7  1  0
  7  8  1  0
  8  9  1  0
  9 10  1  0
 10 11  2  0
 10 12  1  0
 12 13  2  0
 13 14  1  0
 14 15  2  0
 15 16  1  0
 16 17  1  0
 17 18  1  0
 17 19  2  0
 19 20  1  0
 20 21  2  0
 21 22  1  0
 22 23  1  0
 23 24  1  0
 24 25  2  0
 24 26  1  0
 26 27  1  0
 27 28  1  0
 20 29  1  0
 29 30  2  0
 15 31  1  0
 31 32  2  0
  9 33  1  0
 33 34  1  0
  2 35  1  0
 35 36  1  0
  2 37  1  0
 37 38  1  0
 34  6  1  0
 32 12  1  0
 29 16  1  0
 27 22  2  0
M  CHG  3  23  -1  26  -1  28  -1
M  END
>  <UniqueID>  (2035) 
34

>  <SMILES>  (2035) 
C=c1/c(=C\c2[n-]c(=O)[n-]c2[O-])cc(C)n1-c1ccc(C(=O)N2CCN(C(=O)CC(O)(CC)CC)CC2)cc1

>  <Energy>  (2035) 
157.68067751510515

>  <Genealogy>  (2035) 
C=c1c(=Cc2[n-]c(=O)[n-]c2[O-])cc(C)n1-c1ccc(C(=O)N2CCN(C(=O)CC(O)(CC)CC)CC2)cc1 (protonated)
C=c1/c(=C\c2[n-]c(=O)[n-]c2[O-])cc(C)n1-c1ccc(C(=O)N2CCN(C(=O)CC(O)(CC)CC)CC2)cc1 (cis-trans isomerization)
C=c1/c(=C\c2[n-]c(=O)[n-]c2[O-])cc(C)n1-c1ccc(C(=O)N2CCN(C(=O)CC(O)(CC)CC)CC2)cc1 (3D coordinates assigned)
C=c1/c(=C\c2[n-]c(=O)[n-]c2[O-])cc(C)n1-c1ccc(C(=O)N2CCN(C(=O)CC(O)(CC)CC)CC2)cc1 (nonaromatic ring conformer: 157.68067751510515 kcal/mol)

>  <smiles>  (2035) 
C=c1c(=Cc2[nH]c(=O)[nH]c2O)cc(C)n1-c1ccc(C(=O)N2CCN(C(=O)CC(O)(CC)CC)CC2)cc1

>  <score_type>  (2035) 
oracle

>  <origin>  (2035) 
adg

>  <m_score__min__energy>  (2035) 
-17.41

>  <m_primary>  (2035) 
energy

$$$$
47:0
     RDKit          3D

 30 32  0  0  0  0  0  0  0  0999 V2000
   56.2690   29.4540   44.4790 C   0  0  0  0  0  0  0  0  0  0  0  0
   57.5240   29.0720   44.7610 C   0  0  0  0  0  0  0  0  0  0  0  0
   58.0050   27.7570   44.8730 C   0  0  0  0  0  0  0  0  0  0  0  0
   57.4490   26.5800   44.5300 C   0  0  0  0  0  0  0  0  0  0  0  0
   56.9080   25.5820   45.4670 C   0  0  0  0  0  0  0  0  0  0  0  0
   57.5850   24.5130   45.9240 N   0  0  0  0  0  0  0  0  0  0  0  0
   56.7510   23.9850   46.8460 C   0  0  0  0  0  0  0  0  0  0  0  0
   57.0290   22.9450   47.4960 O   0  0  0  0  0  0  0  0  0  0  0  0
   55.5980   24.6680   47.0240 N   0  0  0  0  0  0  0  0  0  0  0  0
   55.7230   25.6830   46.1530 C   0  0  0  0  0  0  0  0  0  0  0  0
   54.7730   26.6850   45.9950 O   0  0  0  0  0  0  0  0  0  0  0  0
   59.2710   27.8540   45.4300 C   0  0  0  0  0  0  0  0  0  0  0  0
   59.5470   29.1990   45.5640 C   0  0  0  0  0  0  0  0  0  0  0  0
   60.8210   29.7550   46.1250 C   0  0  0  0  0  0  0  0  0  0  0  0
   58.4910   29.9380   45.1600 N   0  0  0  0  0  0  0  0  0  0  0  0
   58.4020   31.3720   45.2100 C   0  0  0  0  0  0  0  0  0  0  0  0
   58.1960   32.1050   44.0320 C   0  0  0  0  0  0  0  0  0  0  0  0
   58.0850   31.4670   42.8390 F   0  0  0  0  0  0  0  0  0  0  0  0
   58.1050   33.4980   44.0800 C   0  0  0  0  0  0  0  0  0  0  0  0
   58.2330   34.1670   45.2980 C   0  0  0  0  0  0  0  0  0  0  0  0
   58.4610   33.4510   46.4810 C   0  0  0  0  0  0  0  0  0  0  0  0
   58.5950   34.1640   47.7180 N   0  0  0  0  0  0  0  0  0  0  0  0
   59.4060   33.4910   49.0970 S   0  0  0  0  0  0  0  0  0  0  0  0
   58.5570   32.4220   49.7280 O   0  0  0  0  0  0  0  0  0  0  0  0
   59.6580   34.5770   50.1030 O   0  0  0  0  0  0  0  0  0  0  0  0
   60.9670   32.7690   48.5990 C   0  0  0  0  0  0  0  0  0  0  0  0
   61.9130   33.7810   47.9360 C   0  0  0  0  0  0  0  0  0  0  0  0
   63.0120   33.1190   47.1060 C   0  0  0  0  0  0  0  0  0  0  0  0
   58.5210   32.0450   46.4370 C   0  0  0  0  0  0  0  0  0  0  0  0
   58.6350   31.3260   47.5830 F   0  0  0  0  0  0  0  0  0  0  0  0
  1  2  2  0
  2  3  1  0
  3  4  2  0
  4  5  1  0
  5  6  1  0
  6  7  1  0
  7  8  2  0
  7  9  1  0
  9 10  1  0
 10 11  1  0
  3 12  1  0
 12 13  2  0
 13 14  1  0
 13 15  1  0
 15 16  1  0
 16 17  2  0
 17 18  1  0
 17 19  1  0
 19 20  2  0
 20 21  1  0
 21 22  1  0
 22 23  1  0
 23 24  2  0
 23 25  2  0
 23 26  1  0
 26 27  1  0
 27 28  1  0
 21 29  2  0
 29 30  1  0
 15  2  1  0
 29 16  1  0
 10  5  2  0
M  CHG  3   6  -1   9  -1  11  -1
M  END
>  <UniqueID>  (2036) 
45

>  <SMILES>  (2036) 
C=c1/c(=C\c2[n-]c(=O)[n-]c2[O-])cc(C)n1-c1c(F)ccc(NS(=O)(=O)CCC)c1F

>  <Energy>  (2036) 
121.08019634950088

>  <Genealogy>  (2036) 
C=c1c(=Cc2[n-]c(=O)[n-]c2[O-])cc(C)n1-c1c(F)ccc(NS(=O)(=O)CCC)c1F (protonated)
C=c1/c(=C\c2[n-]c(=O)[n-]c2[O-])cc(C)n1-c1c(F)ccc(NS(=O)(=O)CCC)c1F (cis-trans isomerization)
C=c1/c(=C\c2[n-]c(=O)[n-]c2[O-])cc(C)n1-c1c(F)ccc(NS(=O)(=O)CCC)c1F (3D coordinates assigned)
C=c1/c(=C\c2[n-]c(=O)[n-]c2[O-])cc(C)n1-c1c(F)ccc(NS(=O)(=O)CCC)c1F (optimized conformer: 121.08019634950088 kcal/mol)

>  <smiles>  (2036) 
C=c1c(=Cc2[nH]c(=O)[nH]c2O)cc(C)n1-c1c(F)ccc(NS(=O)(=O)CCC)c1F

>  <score_type>  (2036) 
oracle

>  <origin>  (2036) 
adg

>  <m_score__min__energy>  (2036) 
-15.789999999999999

>  <m_primary>  (2036) 
energy

$$$$
70:0
     RDKit          3D

 33 36  0  0  0  0  0  0  0  0999 V2000
   54.8230   28.4270   52.7510 C   0  0  0  0  0  0  0  0  0  0  0  0
   55.2240   29.7080   52.7510 C   0  0  0  0  0  0  0  0  0  0  0  0
   54.4400   30.8450   52.4970 C   0  0  0  0  0  0  0  0  0  0  0  0
   53.1040   30.9950   52.4030 C   0  0  0  0  0  0  0  0  0  0  0  0
   52.3350   31.0590   51.1500 C   0  0  0  0  0  0  0  0  0  0  0  0
   52.3410   30.1090   50.1970 N   0  0  0  0  0  0  0  0  0  0  0  0
   51.3960   30.5330   49.3290 C   0  0  0  0  0  0  0  0  0  0  0  0
   51.1130   29.9050   48.2760 O   0  0  0  0  0  0  0  0  0  0  0  0
   50.7700   31.6750   49.6860 N   0  0  0  0  0  0  0  0  0  0  0  0
   51.3680   31.9860   50.8470 C   0  0  0  0  0  0  0  0  0  0  0  0
   51.0300   33.0910   51.6190 O   0  0  0  0  0  0  0  0  0  0  0  0
   55.3250   31.9030   52.3570 C   0  0  0  0  0  0  0  0  0  0  0  0
   56.5870   31.4030   52.6040 C   0  0  0  0  0  0  0  0  0  0  0  0
   57.8480   32.2130   52.5590 C   0  0  0  0  0  0  0  0  0  0  0  0
   56.5280   30.0740   52.8340 N   0  0  0  0  0  0  0  0  0  0  0  0
   57.6560   29.2110   53.0640 C   0  0  0  0  0  0  0  0  0  0  0  0
   57.6660   28.3930   54.2030 C   0  0  0  0  0  0  0  0  0  0  0  0
   58.7670   27.5830   54.4820 C   0  0  0  0  0  0  0  0  0  0  0  0
   59.8680   27.5810   53.6240 C   0  0  0  0  0  0  0  0  0  0  0  0
   59.8680   28.3860   52.4810 C   0  0  0  0  0  0  0  0  0  0  0  0
   58.7650   29.2060   52.1870 C   0  0  0  0  0  0  0  0  0  0  0  0
   58.7630   30.0170   50.9500 C   0  0  0  0  0  0  0  0  0  0  0  0
   57.8430   29.8470   50.1040 O   0  0  0  0  0  0  0  0  0  0  0  0
   59.8060   30.9760   50.7000 N   0  0  0  0  0  0  0  0  0  0  0  0
   59.7500   31.9680   49.6610 C   0  0  0  0  0  0  0  0  0  0  0  0
   60.4880   33.1600   49.7450 C   0  0  0  0  0  0  0  0  0  0  0  0
   60.4370   34.0940   48.7100 C   0  0  0  0  0  0  0  0  0  0  0  0
   59.6640   33.8440   47.5740 C   0  0  0  0  0  0  0  0  0  0  0  0
   58.9340   32.6470   47.4550 C   0  0  0  0  0  0  0  0  0  0  0  0
   58.1220   32.3900   46.2340 C   0  0  0  0  0  0  0  0  0  0  0  0
   57.6620   31.2340   46.0200 O   0  0  0  0  0  0  0  0  0  0  0  0
   57.8270   33.4690   45.2370 C   0  0  0  0  0  0  0  0  0  0  0  0
   58.9930   31.7110   48.5070 C   0  0  0  0  0  0  0  0  0  0  0  0
  1  2  2  0
  2  3  1  0
  3  4  2  0
  4  5  1  0
  5  6  1  0
  6  7  1  0
  7  8  2  0
  7  9  1  0
  9 10  1  0
 10 11  1  0
  3 12  1  0
 12 13  2  0
 13 14  1  0
 13 15  1  0
 15 16  1  0
 16 17  2  0
 17 18  1  0
 18 19  2  0
 19 20  1  0
 20 21  2  0
 21 22  1  0
 22 23  2  0
 22 24  1  0
 24 25  1  0
 25 26  2  0
 26 27  1  0
 27 28  2  0
 28 29  1  0
 29 30  1  0
 30 31  2  0
 30 32  1  0
 29 33  2  0
 15  2  1  0
 21 16  1  0
 33 25  1  0
 10  5  2  0
M  CHG  3   6  -1   9  -1  11  -1
M  END
>  <UniqueID>  (2037) 
67

>  <SMILES>  (2037) 
C=c1/c(=C\c2[n-]c(=O)[n-]c2[O-])cc(C)n1-c1ccccc1C(=O)Nc1cccc(C(C)=O)c1

>  <Energy>  (2037) 
138.4163779610064

>  <Genealogy>  (2037) 
C=c1c(=Cc2[n-]c(=O)[n-]c2[O-])cc(C)n1-c1ccccc1C(=O)Nc1cccc(C(C)=O)c1 (protonated)
C=c1/c(=C\c2[n-]c(=O)[n-]c2[O-])cc(C)n1-c1ccccc1C(=O)Nc1cccc(C(C)=O)c1 (cis-trans isomerization)
C=c1/c(=C\c2[n-]c(=O)[n-]c2[O-])cc(C)n1-c1ccccc1C(=O)Nc1cccc(C(C)=O)c1 (3D coordinates assigned)
C=c1/c(=C\c2[n-]c(=O)[n-]c2[O-])cc(C)n1-c1ccccc1C(=O)Nc1cccc(C(C)=O)c1 (optimized conformer: 138.4163779610064 kcal/mol)

>  <smiles>  (2037) 
C=c1c(=Cc2[nH]c(=O)[nH]c2O)cc(C)n1-c1ccccc1C(=O)Nc1cccc(C(C)=O)c1

>  <score_type>  (2037) 
oracle

>  <origin>  (2037) 
adg

>  <m_score__min__energy>  (2037) 
-17.68

>  <m_primary>  (2037) 
energy

$$$$
72:0
     RDKit          3D

 23 25  0  0  0  0  0  0  0  0999 V2000
   58.1490   30.0940   47.0820 C   0  0  0  0  0  0  0  0  0  0  0  0
   57.7780   29.5570   45.9120 C   0  0  0  0  0  0  0  0  0  0  0  0
   57.8580   28.2110   45.5390 C   0  0  0  0  0  0  0  0  0  0  0  0
   58.2880   27.1810   46.2940 C   0  0  0  0  0  0  0  0  0  0  0  0
   57.4560   26.0200   46.6540 C   0  0  0  0  0  0  0  0  0  0  0  0
   57.9670   24.8530   47.0870 N   0  0  0  0  0  0  0  0  0  0  0  0
   56.8810   24.0610   47.2130 C   0  0  0  0  0  0  0  0  0  0  0  0
   56.9530   22.8720   47.6160 O   0  0  0  0  0  0  0  0  0  0  0  0
   55.7130   24.6420   46.8640 N   0  0  0  0  0  0  0  0  0  0  0  0
   56.0940   25.8760   46.5000 C   0  0  0  0  0  0  0  0  0  0  0  0
   55.2210   26.8320   45.9930 O   0  0  0  0  0  0  0  0  0  0  0  0
   57.3390   28.1320   44.2510 C   0  0  0  0  0  0  0  0  0  0  0  0
   56.9700   29.4140   43.8910 C   0  0  0  0  0  0  0  0  0  0  0  0
   56.2720   29.7680   42.6120 C   0  0  0  0  0  0  0  0  0  0  0  0
   57.2690   30.2760   44.8880 N   0  0  0  0  0  0  0  0  0  0  0  0
   56.9750   31.6510   44.9320 N   0  0  0  0  0  0  0  0  0  0  0  0
   57.8610   32.6600   44.4340 C   0  0  0  0  0  0  0  0  0  0  0  0
   58.1390   32.7100   43.2070 O   0  0  0  0  0  0  0  0  0  0  0  0
   58.4810   33.6130   45.3620 C   0  0  0  0  0  0  0  0  0  0  0  0
   58.3040   33.6010   47.0350 S   0  0  0  0  0  0  0  0  0  0  0  0
   59.2790   34.9380   47.3330 C   0  0  0  0  0  0  0  0  0  0  0  0
   59.7570   35.4100   46.1180 C   0  0  0  0  0  0  0  0  0  0  0  0
   59.3130   34.6710   45.0140 C   0  0  0  0  0  0  0  0  0  0  0  0
  1  2  2  0
  2  3  1  0
  3  4  2  0
  4  5  1  0
  5  6  1  0
  6  7  1  0
  7  8  2  0
  7  9  1  0
  9 10  1  0
 10 11  1  0
  3 12  1  0
 12 13  2  0
 13 14  1  0
 13 15  1  0
 15 16  1  0
 16 17  1  0
 17 18  2  0
 17 19  1  0
 19 20  1  0
 20 21  1  0
 21 22  2  0
 22 23  1  0
 15  2  1  0
 23 19  2  0
 10  5  2  0
M  CHG  4   6  -1   9  -1  11  -1  16  -1
M  END
>  <UniqueID>  (2038) 
69

>  <SMILES>  (2038) 
C=c1/c(=C/c2[n-]c(=O)[n-]c2[O-])cc(C)n1[N-]C(=O)c1cccs1

>  <Energy>  (2038) 
130.31582935067874

>  <Genealogy>  (2038) 
C=c1c(=Cc2[n-]c(=O)[n-]c2[O-])cc(C)n1[N-]C(=O)c1cccs1 (protonated)
C=c1/c(=C/c2[n-]c(=O)[n-]c2[O-])cc(C)n1[N-]C(=O)c1cccs1 (cis-trans isomerization)
C=c1/c(=C/c2[n-]c(=O)[n-]c2[O-])cc(C)n1[N-]C(=O)c1cccs1 (3D coordinates assigned)
C=c1/c(=C/c2[n-]c(=O)[n-]c2[O-])cc(C)n1[N-]C(=O)c1cccs1 (optimized conformer: 130.31582935067874 kcal/mol)

>  <smiles>  (2038) 
C=c1c(=Cc2[nH]c(=O)[nH]c2O)cc(C)n1NC(=O)c1cccs1

>  <score_type>  (2038) 
oracle

>  <origin>  (2038) 
adg

>  <m_score__min__energy>  (2038) 
-16.399999999999999

>  <m_primary>  (2038) 
energy

$$$$
73:0
     RDKit          3D

 33 36  0  0  0  0  0  0  0  0999 V2000
   58.9260   29.3910   48.7410 C   0  0  0  0  0  0  0  0  0  0  0  0
   58.8410   30.0400   47.5700 C   0  0  0  0  0  0  0  0  0  0  0  0
   58.5220   29.4920   46.3160 C   0  0  0  0  0  0  0  0  0  0  0  0
   58.4640   28.2140   45.8900 C   0  0  0  0  0  0  0  0  0  0  0  0
   57.3550   27.2690   46.1260 C   0  0  0  0  0  0  0  0  0  0  0  0
   57.5040   26.0010   46.5580 N   0  0  0  0  0  0  0  0  0  0  0  0
   56.2610   25.4850   46.4430 C   0  0  0  0  0  0  0  0  0  0  0  0
   55.9840   24.3040   46.7780 O   0  0  0  0  0  0  0  0  0  0  0  0
   55.3410   26.3310   45.9340 N   0  0  0  0  0  0  0  0  0  0  0  0
   56.0540   27.4490   45.7270 C   0  0  0  0  0  0  0  0  0  0  0  0
   55.5290   28.6100   45.1730 O   0  0  0  0  0  0  0  0  0  0  0  0
   58.3250   30.5680   45.4650 C   0  0  0  0  0  0  0  0  0  0  0  0
   58.6020   31.7090   46.1890 C   0  0  0  0  0  0  0  0  0  0  0  0
   58.6640   33.0920   45.6110 C   0  0  0  0  0  0  0  0  0  0  0  0
   58.9240   31.3900   47.4590 N   0  0  0  0  0  0  0  0  0  0  0  0
   59.3400   32.3180   48.4740 C   0  0  0  0  0  0  0  0  0  0  0  0
   58.6510   32.3760   49.6930 C   0  0  0  0  0  0  0  0  0  0  0  0
   59.0430   33.2930   50.6730 C   0  0  0  0  0  0  0  0  0  0  0  0
   60.1250   34.1510   50.4400 C   0  0  0  0  0  0  0  0  0  0  0  0
   60.8120   34.0980   49.2230 C   0  0  0  0  0  0  0  0  0  0  0  0
   60.4170   33.1880   48.2280 C   0  0  0  0  0  0  0  0  0  0  0  0
   61.1180   33.0710   46.9820 N   0  0  0  0  0  0  0  0  0  0  0  0
   62.5290   32.9540   46.7760 C   0  0  0  0  0  0  0  0  0  0  0  0
   63.1510   33.7770   46.0500 O   0  0  0  0  0  0  0  0  0  0  0  0
   63.2540   31.7830   47.3640 C   0  0  0  0  0  0  0  0  0  0  0  0
   63.4710   32.0070   48.8380 C   0  0  0  0  0  0  0  0  0  0  0  0
   64.3030   33.0490   49.2820 C   0  0  0  0  0  0  0  0  0  0  0  0
   64.4350   33.3130   50.6490 C   0  0  0  0  0  0  0  0  0  0  0  0
   63.7340   32.5510   51.5940 C   0  0  0  0  0  0  0  0  0  0  0  0
   63.8810   32.8680   52.9540 O   0  0  0  0  0  0  0  0  0  0  0  0
   62.8230   33.3490   53.7820 C   0  0  0  0  0  0  0  0  0  0  0  0
   62.9050   31.5040   51.1490 C   0  0  0  0  0  0  0  0  0  0  0  0
   62.7690   31.2410   49.7810 C   0  0  0  0  0  0  0  0  0  0  0  0
  1  2  2  0
  2  3  1  0
  3  4  2  3
  4  5  1  0
  5  6  1  0
  6  7  1  0
  7  8  2  0
  7  9  1  0
  9 10  1  0
 10 11  1  0
  3 12  1  0
 12 13  2  0
 13 14  1  0
 13 15  1  0
 15 16  1  0
 16 17  2  0
 17 18  1  0
 18 19  2  0
 19 20  1  0
 20 21  2  0
 21 22  1  0
 22 23  1  0
 23 24  2  0
 23 25  1  0
 25 26  1  0
 26 27  2  0
 27 28  1  0
 28 29  2  0
 29 30  1  0
 30 31  1  0
 29 32  1  0
 32 33  2  0
 15  2  1  0
 21 16  1  0
 33 26  1  0
 10  5  2  0
M  CHG  4   6  -1   9  -1  11  -1  22  -1
M  END
>  <UniqueID>  (2039) 
70

>  <SMILES>  (2039) 
C=c1c(=Cc2[n-]c(=O)[n-]c2[O-])cc(C)n1-c1ccccc1[N-]C(=O)Cc1ccc(OC)cc1

>  <Energy>  (2039) 
129.09665902735

>  <Genealogy>  (2039) 
C=c1c(=Cc2[n-]c(=O)[n-]c2[O-])cc(C)n1-c1ccccc1[N-]C(=O)Cc1ccc(OC)cc1 (protonated)
C=c1c(=Cc2[n-]c(=O)[n-]c2[O-])cc(C)n1-c1ccccc1[N-]C(=O)Cc1ccc(OC)cc1 (3D coordinates assigned)
C=c1c(=Cc2[n-]c(=O)[n-]c2[O-])cc(C)n1-c1ccccc1[N-]C(=O)Cc1ccc(OC)cc1 (optimized conformer: 129.09665902735 kcal/mol)

>  <smiles>  (2039) 
C=c1c(=Cc2[nH]c(=O)[nH]c2O)cc(C)n1-c1ccccc1NC(=O)Cc1ccc(OC)cc1

>  <score_type>  (2039) 
oracle

>  <origin>  (2039) 
adg

>  <m_score__min__energy>  (2039) 
-17.870000000000001

>  <m_primary>  (2039) 
energy

$$$$
76:0
     RDKit          3D

 30 33  0  0  0  0  0  0  0  0999 V2000
   60.0340   28.4180   46.1340 C   0  0  0  0  0  0  0  0  0  0  0  0
   58.9290   28.8420   45.5000 C   0  0  0  0  0  0  0  0  0  0  0  0
   57.9630   28.0330   44.8930 C   0  0  0  0  0  0  0  0  0  0  0  0
   57.9330   26.6860   44.8510 C   0  0  0  0  0  0  0  0  0  0  0  0
   57.3590   25.8410   45.9140 C   0  0  0  0  0  0  0  0  0  0  0  0
   58.0220   24.8190   46.4820 N   0  0  0  0  0  0  0  0  0  0  0  0
   57.1120   24.2810   47.3220 C   0  0  0  0  0  0  0  0  0  0  0  0
   57.3690   23.2920   48.0560 O   0  0  0  0  0  0  0  0  0  0  0  0
   55.9020   24.8800   47.3050 N   0  0  0  0  0  0  0  0  0  0  0  0
   56.0700   25.8570   46.4000 C   0  0  0  0  0  0  0  0  0  0  0  0
   55.0520   26.7130   45.9950 O   0  0  0  0  0  0  0  0  0  0  0  0
   56.9950   28.8910   44.3910 C   0  0  0  0  0  0  0  0  0  0  0  0
   57.4030   30.1730   44.7000 C   0  0  0  0  0  0  0  0  0  0  0  0
   56.6370   31.4140   44.3510 C   0  0  0  0  0  0  0  0  0  0  0  0
   58.5870   30.1500   45.3570 N   0  0  0  0  0  0  0  0  0  0  0  0
   59.3000   31.3240   45.8790 C   0  0  0  0  0  0  0  0  0  0  0  0
   59.2710   31.3250   47.4090 C   0  0  0  0  0  0  0  0  0  0  0  0
   60.5430   31.9080   47.9620 C   0  0  0  0  0  0  0  0  0  0  0  0
   60.5150   32.6910   49.1260 C   0  0  0  0  0  0  0  0  0  0  0  0
   61.7000   33.2060   49.6590 C   0  0  0  0  0  0  0  0  0  0  0  0
   62.9320   32.9380   49.0400 C   0  0  0  0  0  0  0  0  0  0  0  0
   64.2110   33.5040   49.6160 C   0  0  0  0  0  0  0  0  0  0  0  0
   65.2740   32.4750   49.7330 N   0  0  0  0  0  0  0  0  0  0  0  0
   66.5280   33.1010   50.2170 C   0  0  0  0  0  0  0  0  0  0  0  0
   67.4620   32.0510   50.8420 C   0  0  0  0  0  0  0  0  0  0  0  0
   66.9040   31.3730   51.9610 O   0  0  0  0  0  0  0  0  0  0  0  0
   65.4840   31.3850   51.9870 C   0  0  0  0  0  0  0  0  0  0  0  0
   64.8520   31.3290   50.5850 C   0  0  0  0  0  0  0  0  0  0  0  0
   62.9600   32.1380   47.8860 C   0  0  0  0  0  0  0  0  0  0  0  0
   61.7750   31.6240   47.3540 C   0  0  0  0  0  0  0  0  0  0  0  0
  1  2  2  0
  2  3  1  0
  3  4  2  0
  4  5  1  0
  5  6  1  0
  6  7  1  0
  7  8  2  0
  7  9  1  0
  9 10  1  0
 10 11  1  0
  3 12  1  0
 12 13  2  0
 13 14  1  0
 13 15  1  0
 15 16  1  0
 16 17  1  0
 17 18  1  0
 18 19  2  0
 19 20  1  0
 20 21  2  0
 21 22  1  0
 22 23  1  0
 23 24  1  0
 24 25  1  0
 25 26  1  0
 26 27  1  0
 27 28  1  0
 21 29  1  0
 29 30  2  0
 15  2  1  0
 30 18  1  0
 10  5  2  0
 28 23  1  0
M  CHG  4   6  -1   9  -1  11  -1  23   1
M  END
>  <UniqueID>  (2040) 
73

>  <SMILES>  (2040) 
C=c1/c(=C/c2[n-]c(=O)[n-]c2[O-])cc(C)n1CCc1ccc(C[NH+]2CCOCC2)cc1

>  <Energy>  (2040) 
135.23394936194893

>  <Genealogy>  (2040) 
C=c1c(=Cc2[n-]c(=O)[n-]c2[O-])cc(C)n1CCc1ccc(C[NH+]2CCOCC2)cc1 (protonated)
C=c1/c(=C/c2[n-]c(=O)[n-]c2[O-])cc(C)n1CCc1ccc(C[NH+]2CCOCC2)cc1 (cis-trans isomerization)
C=c1/c(=C/c2[n-]c(=O)[n-]c2[O-])cc(C)n1CCc1ccc(C[NH+]2CCOCC2)cc1 (3D coordinates assigned)
C=c1/c(=C/c2[n-]c(=O)[n-]c2[O-])cc(C)n1CCc1ccc(C[NH+]2CCOCC2)cc1 (nonaromatic ring conformer: 135.23394936194893 kcal/mol)

>  <smiles>  (2040) 
C=c1c(=Cc2[nH]c(=O)[nH]c2O)cc(C)n1CCc1ccc(CN2CCOCC2)cc1

>  <score_type>  (2040) 
oracle

>  <origin>  (2040) 
adg

>  <m_score__min__energy>  (2040) 
-15.699999999999999

>  <m_primary>  (2040) 
energy

$$$$
77:0
     RDKit          3D

 31 33  0  0  0  0  0  0  0  0999 V2000
   54.8940   26.5670   45.9450 O   0  0  0  0  0  0  0  0  0  0  0  0
   56.0700   25.8990   46.2790 C   0  0  0  0  0  0  0  0  0  0  0  0
   56.0250   24.8450   47.1370 N   0  0  0  0  0  0  0  0  0  0  0  0
   57.1480   24.1590   47.4650 C   0  0  0  0  0  0  0  0  0  0  0  0
   57.0810   23.1890   48.2630 O   0  0  0  0  0  0  0  0  0  0  0  0
   58.3440   24.5150   46.9270 N   0  0  0  0  0  0  0  0  0  0  0  0
   58.4440   25.5610   46.0680 C   0  0  0  0  0  0  0  0  0  0  0  0
   59.5680   25.8590   45.5830 O   0  0  0  0  0  0  0  0  0  0  0  0
   57.3010   26.3040   45.7340 C   0  0  0  0  0  0  0  0  0  0  0  0
   57.3800   27.4140   44.7640 C   0  0  0  0  0  0  0  0  0  0  0  0
   57.4470   28.7250   45.0770 C   0  0  0  0  0  0  0  0  0  0  0  0
   56.8440   29.7450   44.3490 C   0  0  0  0  0  0  0  0  0  0  0  0
   56.0320   29.6010   43.1000 C   0  0  0  0  0  0  0  0  0  0  0  0
   57.0520   30.9280   44.9550 N   0  0  0  0  0  0  0  0  0  0  0  0
   57.7800   30.7130   46.0390 N   0  0  0  0  0  0  0  0  0  0  0  0
   58.2440   31.8100   46.8920 C   0  0  0  0  0  0  0  0  0  0  0  0
   59.2030   32.7160   46.1180 C   0  0  0  0  0  0  0  0  0  0  0  0
   58.8060   34.1600   46.2640 C   0  0  0  0  0  0  0  0  0  0  0  0
   57.9430   34.6360   45.4820 O   0  0  0  0  0  0  0  0  0  0  0  0
   59.3490   35.0000   47.2890 N   0  0  0  0  0  0  0  0  0  0  0  0
   59.7820   34.5350   48.6020 C   0  0  0  0  0  0  0  0  0  0  0  0
   61.2140   34.0940   48.5250 C   0  0  0  0  0  0  0  0  0  0  0  0
   61.9570   33.8830   49.6990 C   0  0  0  0  0  0  0  0  0  0  0  0
   63.3000   33.5000   49.6220 C   0  0  0  0  0  0  0  0  0  0  0  0
   64.0110   33.2900   50.7580 F   0  0  0  0  0  0  0  0  0  0  0  0
   63.9130   33.3370   48.3760 C   0  0  0  0  0  0  0  0  0  0  0  0
   63.1840   33.5610   47.2040 C   0  0  0  0  0  0  0  0  0  0  0  0
   63.7810   33.4110   45.9960 F   0  0  0  0  0  0  0  0  0  0  0  0
   61.8400   33.9410   47.2770 C   0  0  0  0  0  0  0  0  0  0  0  0
   58.0740   29.3920   46.1400 C   0  0  0  0  0  0  0  0  0  0  0  0
   58.9140   28.8790   47.0530 C   0  0  0  0  0  0  0  0  0  0  0  0
  1  2  1  0
  2  3  1  0
  3  4  1  0
  4  5  2  0
  4  6  1  0
  6  7  1  0
  7  8  2  0
  7  9  1  0
  9 10  1  0
 10 11  2  0
 11 12  1  0
 12 13  1  0
 12 14  2  0
 14 15  1  0
 15 16  1  0
 16 17  1  0
 17 18  1  0
 18 19  2  0
 18 20  1  0
 20 21  1  0
 21 22  1  0
 22 23  2  0
 23 24  1  0
 24 25  1  0
 24 26  2  0
 26 27  1  0
 27 28  1  0
 27 29  2  0
 15 30  1  0
 30 31  2  0
  9  2  2  0
 30 11  1  0
 29 22  1  0
M  CHG  3   3  -1   6  -1  20  -1
M  END
>  <UniqueID>  (2041) 
74

>  <SMILES>  (2041) 
C=c1/c(=C\c2c(O)[n-]c(=O)[n-]c2=O)c(C)nn1CCC(=O)[N-]Cc1cc(F)cc(F)c1

>  <Energy>  (2041) 
88.42971904237919

>  <Genealogy>  (2041) 
C=c1c(=Cc2c(O)[n-]c(=O)[n-]c2=O)c(C)nn1CCC(=O)[N-]Cc1cc(F)cc(F)c1 (protonated)
C=c1/c(=C\c2c(O)[n-]c(=O)[n-]c2=O)c(C)nn1CCC(=O)[N-]Cc1cc(F)cc(F)c1 (cis-trans isomerization)
C=c1/c(=C\c2c(O)[n-]c(=O)[n-]c2=O)c(C)nn1CCC(=O)[N-]Cc1cc(F)cc(F)c1 (3D coordinates assigned)
C=c1/c(=C\c2c(O)[n-]c(=O)[n-]c2=O)c(C)nn1CCC(=O)[N-]Cc1cc(F)cc(F)c1 (optimized conformer: 88.42971904237919 kcal/mol)

>  <smiles>  (2041) 
C=c1c(=Cc2c(O)[nH]c(=O)[nH]c2=O)c(C)nn1CCC(=O)NCc1cc(F)cc(F)c1

>  <score_type>  (2041) 
oracle

>  <origin>  (2041) 
adg

>  <m_score__min__energy>  (2041) 
-14.34

>  <m_primary>  (2041) 
energy

$$$$
80:0
     RDKit          3D

 29 31  0  0  0  0  0  0  0  0999 V2000
   57.8350   27.6130   43.2970 C   0  0  0  0  0  0  0  0  0  0  0  0
   58.2590   28.0010   44.6910 C   0  0  0  0  0  0  0  0  0  0  0  0
   59.3390   27.3180   45.2740 C   0  0  0  0  0  0  0  0  0  0  0  0
   59.7980   27.6560   46.5450 C   0  0  0  0  0  0  0  0  0  0  0  0
   59.1860   28.6880   47.2720 C   0  0  0  0  0  0  0  0  0  0  0  0
   59.6840   29.0540   48.6190 C   0  0  0  0  0  0  0  0  0  0  0  0
   60.4020   28.2470   49.2710 O   0  0  0  0  0  0  0  0  0  0  0  0
   59.3470   30.3220   49.1900 N   0  0  0  0  0  0  0  0  0  0  0  0
   60.0870   30.9170   50.2950 C   0  0  0  0  0  0  0  0  0  0  0  0
   60.3210   32.4090   50.0410 C   0  0  0  0  0  0  0  0  0  0  0  0
   61.3890   32.6410   48.9910 C   0  0  0  0  0  0  0  0  0  0  0  0
   62.5250   31.8080   49.0110 C   0  0  0  0  0  0  0  0  0  0  0  0
   63.5260   31.9400   48.0490 C   0  0  0  0  0  0  0  0  0  0  0  0
   63.4140   32.9050   47.0530 C   0  0  0  0  0  0  0  0  0  0  0  0
   62.3030   33.7490   47.0190 C   0  0  0  0  0  0  0  0  0  0  0  0
   61.2790   33.6350   47.9790 C   0  0  0  0  0  0  0  0  0  0  0  0
   60.1140   34.6020   47.9000 C   0  0  0  0  0  0  0  0  0  0  0  0
   59.1120   34.1580   46.9240 N   0  0  0  0  0  0  0  0  0  0  0  0
   58.8930   34.6990   45.7060 C   0  0  0  0  0  0  0  0  0  0  0  0
   59.6410   35.7410   45.1700 O   0  0  0  0  0  0  0  0  0  0  0  0
   57.8280   34.0960   45.0720 C   0  0  0  0  0  0  0  0  0  0  0  0
   57.3480   33.1460   45.9520 C   0  0  0  0  0  0  0  0  0  0  0  0
   58.1460   33.2200   47.0760 C   0  0  0  0  0  0  0  0  0  0  0  0
   57.9540   32.4310   48.2110 O   0  0  0  0  0  0  0  0  0  0  0  0
   58.0960   29.3670   46.7020 C   0  0  0  0  0  0  0  0  0  0  0  0
   57.6100   29.0320   45.4230 C   0  0  0  0  0  0  0  0  0  0  0  0
   56.4340   29.7770   44.8970 C   0  0  0  0  0  0  0  0  0  0  0  0
   55.1480   29.1610   44.8730 N   0  0  0  0  0  0  0  0  0  0  0  0
   56.5590   30.9450   44.4420 O   0  0  0  0  0  0  0  0  0  0  0  0
  1  2  1  0
  2  3  2  0
  3  4  1  0
  4  5  2  0
  5  6  1  0
  6  7  2  0
  6  8  1  0
  8  9  1  0
  9 10  1  0
 10 11  1  0
 11 12  2  0
 12 13  1  0
 13 14  2  0
 14 15  1  0
 15 16  2  0
 16 17  1  0
 17 18  1  0
 18 19  1  0
 19 20  1  0
 19 21  2  0
 21 22  1  0
 22 23  2  0
 23 24  1  0
  5 25  1  0
 25 26  2  0
 26 27  1  0
 27 28  1  0
 27 29  2  0
 26  2  1  0
 16 11  1  0
 23 18  1  0
M  CHG  3   8  -1  20  -1  28  -1
M  END
>  <UniqueID>  (2042) 
77

>  <SMILES>  (2042) 
Cc1ccc(C(=O)[N-]CCc2ccccc2Cn2c([O-])ccc2O)cc1C([NH-])=O

>  <Energy>  (2042) 
80.62231726984395

>  <Genealogy>  (2042) 
Cc1ccc(C(=O)[N-]CCc2ccccc2Cn2c([O-])ccc2O)cc1C([NH-])=O (protonated)
Cc1ccc(C(=O)[N-]CCc2ccccc2Cn2c([O-])ccc2O)cc1C([NH-])=O (3D coordinates assigned)
Cc1ccc(C(=O)[N-]CCc2ccccc2Cn2c([O-])ccc2O)cc1C([NH-])=O (optimized conformer: 80.62231726984395 kcal/mol)

>  <smiles>  (2042) 
Cc1ccc(C(=O)NCCc2ccccc2Cn2c(O)ccc2O)cc1C(N)=O

>  <score_type>  (2042) 
oracle

>  <origin>  (2042) 
adg

>  <m_score__min__energy>  (2042) 
-15.57

>  <m_primary>  (2042) 
energy

$$$$
90:0
     RDKit          3D

 29 31  0  0  0  0  0  0  0  0999 V2000
   59.0290   28.0190   48.6760 C   0  0  0  0  0  0  0  0  0  0  0  0
   58.8770   28.1290   47.3470 C   0  0  0  0  0  0  0  0  0  0  0  0
   58.3520   27.1580   46.4870 C   0  0  0  0  0  0  0  0  0  0  0  0
   57.8400   25.9590   46.8270 C   0  0  0  0  0  0  0  0  0  0  0  0
   56.4630   25.5320   46.5170 C   0  0  0  0  0  0  0  0  0  0  0  0
   56.0420   24.2610   46.6310 N   0  0  0  0  0  0  0  0  0  0  0  0
   54.7730   24.3090   46.1720 C   0  0  0  0  0  0  0  0  0  0  0  0
   54.0280   23.2950   46.1320 O   0  0  0  0  0  0  0  0  0  0  0  0
   54.3680   25.5260   45.7490 N   0  0  0  0  0  0  0  0  0  0  0  0
   55.4520   26.2870   45.9620 C   0  0  0  0  0  0  0  0  0  0  0  0
   55.5280   27.6290   45.6110 O   0  0  0  0  0  0  0  0  0  0  0  0
   58.4120   27.6970   45.2080 C   0  0  0  0  0  0  0  0  0  0  0  0
   58.9630   28.9560   45.3350 C   0  0  0  0  0  0  0  0  0  0  0  0
   59.2040   29.9010   44.1960 C   0  0  0  0  0  0  0  0  0  0  0  0
   59.2570   29.2150   46.6290 N   0  0  0  0  0  0  0  0  0  0  0  0
   59.8260   30.4350   47.1340 C   0  0  0  0  0  0  0  0  0  0  0  0
   59.2660   31.6680   46.7760 C   0  0  0  0  0  0  0  0  0  0  0  0
   59.8130   32.8770   47.2460 C   0  0  0  0  0  0  0  0  0  0  0  0
   59.1860   34.1570   46.8250 C   0  0  0  0  0  0  0  0  0  0  0  0
   58.9030   35.0450   47.6740 O   0  0  0  0  0  0  0  0  0  0  0  0
   58.9240   34.3980   45.4390 N   0  0  0  0  0  0  0  0  0  0  0  0
   57.5950   34.2880   44.8550 C   0  0  0  0  0  0  0  0  0  0  0  0
   57.1590   32.8920   44.9040 C   0  0  0  0  0  0  0  0  0  0  0  0
   56.8140   31.7890   44.9420 N   0  0  0  0  0  0  0  0  0  0  0  0
   60.9440   32.8240   48.1020 C   0  0  0  0  0  0  0  0  0  0  0  0
   61.6750   34.2620   48.8110 Cl  0  0  0  0  0  0  0  0  0  0  0  0
   61.4960   31.5870   48.4540 C   0  0  0  0  0  0  0  0  0  0  0  0
   60.9450   30.3990   47.9740 C   0  0  0  0  0  0  0  0  0  0  0  0
   61.4840   29.2110   48.3470 F   0  0  0  0  0  0  0  0  0  0  0  0
  1  2  2  0
  2  3  1  0
  3  4  2  3
  4  5  1  0
  5  6  1  0
  6  7  1  0
  7  8  2  0
  7  9  1  0
  9 10  1  0
 10 11  1  0
  3 12  1  0
 12 13  2  0
 13 14  1  0
 13 15  1  0
 15 16  1  0
 16 17  2  0
 17 18  1  0
 18 19  1  0
 19 20  2  0
 19 21  1  0
 21 22  1  0
 22 23  1  0
 23 24  3  0
 18 25  2  0
 25 26  1  0
 25 27  1  0
 27 28  2  0
 28 29  1  0
 15  2  1  0
 28 16  1  0
 10  5  2  0
M  CHG  4   6  -1   9  -1  11  -1  21  -1
M  END
>  <UniqueID>  (2043) 
86

>  <SMILES>  (2043) 
C=c1c(=Cc2[n-]c(=O)[n-]c2[O-])cc(C)n1-c1cc(C(=O)[N-]CC#N)c(Cl)cc1F

>  <Energy>  (2043) 
114.04550278631882

>  <Genealogy>  (2043) 
C=c1c(=Cc2[n-]c(=O)[n-]c2[O-])cc(C)n1-c1cc(C(=O)[N-]CC#N)c(Cl)cc1F (protonated)
C=c1c(=Cc2[n-]c(=O)[n-]c2[O-])cc(C)n1-c1cc(C(=O)[N-]CC#N)c(Cl)cc1F (3D coordinates assigned)
C=c1c(=Cc2[n-]c(=O)[n-]c2[O-])cc(C)n1-c1cc(C(=O)[N-]CC#N)c(Cl)cc1F (optimized conformer: 114.04550278631882 kcal/mol)

>  <smiles>  (2043) 
C=c1c(=Cc2[nH]c(=O)[nH]c2O)cc(C)n1-c1cc(C(=O)NCC#N)c(Cl)cc1F

>  <score_type>  (2043) 
oracle

>  <origin>  (2043) 
adg

>  <m_score__min__energy>  (2043) 
-16.030000000000001

>  <m_primary>  (2043) 
energy

$$$$
9:0
     RDKit          3D

 25 27  0  0  0  0  0  0  0  0999 V2000
   58.6700   27.9990   47.9790 C   0  0  0  0  0  0  0  0  0  0  0  0
   58.4050   28.9570   47.0660 C   0  0  0  0  0  0  0  0  0  0  0  0
   57.7940   28.6810   45.8060 C   0  0  0  0  0  0  0  0  0  0  0  0
   57.7040   27.4670   45.2160 C   0  0  0  0  0  0  0  0  0  0  0  0
   57.2170   26.2210   45.8380 C   0  0  0  0  0  0  0  0  0  0  0  0
   58.0200   25.2400   46.2810 N   0  0  0  0  0  0  0  0  0  0  0  0
   57.1880   24.3580   46.8700 C   0  0  0  0  0  0  0  0  0  0  0  0
   57.5880   23.2880   47.3980 O   0  0  0  0  0  0  0  0  0  0  0  0
   55.8910   24.7280   46.8560 N   0  0  0  0  0  0  0  0  0  0  0  0
   55.9240   25.9110   46.2130 C   0  0  0  0  0  0  0  0  0  0  0  0
   54.8020   26.7050   46.0070 O   0  0  0  0  0  0  0  0  0  0  0  0
   57.2680   29.7200   45.1090 N   0  0  0  0  0  0  0  0  0  0  0  0
   57.4000   31.0090   45.4950 C   0  0  0  0  0  0  0  0  0  0  0  0
   56.8800   31.9100   44.7840 O   0  0  0  0  0  0  0  0  0  0  0  0
   58.1090   31.3230   46.6230 N   0  0  0  0  0  0  0  0  0  0  0  0
   58.2820   32.7350   47.0260 C   0  0  0  0  0  0  0  0  0  0  0  0
   59.7220   33.0160   47.3700 C   0  0  0  0  0  0  0  0  0  0  0  0
   60.0800   33.4140   48.6700 C   0  0  0  0  0  0  0  0  0  0  0  0
   61.4130   33.7010   48.9790 C   0  0  0  0  0  0  0  0  0  0  0  0
   62.3990   33.5970   47.9940 C   0  0  0  0  0  0  0  0  0  0  0  0
   63.6910   33.8770   48.2960 F   0  0  0  0  0  0  0  0  0  0  0  0
   62.0520   33.2040   46.6980 C   0  0  0  0  0  0  0  0  0  0  0  0
   60.7200   32.9160   46.3860 C   0  0  0  0  0  0  0  0  0  0  0  0
   58.6070   30.3170   47.4110 C   0  0  0  0  0  0  0  0  0  0  0  0
   59.2320   30.6060   48.4720 O   0  0  0  0  0  0  0  0  0  0  0  0
  1  2  2  0
  2  3  1  0
  3  4  2  3
  4  5  1  0
  5  6  1  0
  6  7  1  0
  7  8  2  0
  7  9  1  0
  9 10  1  0
 10 11  1  0
  3 12  1  0
 12 13  1  0
 13 14  2  0
 13 15  1  0
 15 16  1  0
 16 17  1  0
 17 18  2  0
 18 19  1  0
 19 20  2  0
 20 21  1  0
 20 22  1  0
 22 23  2  0
 15 24  1  0
 24 25  2  0
 24  2  1  0
 10  5  2  0
 23 17  1  0
M  CHG  3   9  -1  11  -1  12  -1
M  END
>  <UniqueID>  (2044) 
9

>  <SMILES>  (2044) 
C=c1c(=Cc2[nH]c(=O)[n-]c2[O-])[n-]c(=O)n(Cc2ccc(F)cc2)c1=O

>  <Energy>  (2044) 
94.6756833837613

>  <Genealogy>  (2044) 
C=c1c(=Cc2[nH]c(=O)[n-]c2[O-])[n-]c(=O)n(Cc2ccc(F)cc2)c1=O (protonated)
C=c1c(=Cc2[nH]c(=O)[n-]c2[O-])[n-]c(=O)n(Cc2ccc(F)cc2)c1=O (3D coordinates assigned)
C=c1c(=Cc2[nH]c(=O)[n-]c2[O-])[n-]c(=O)n(Cc2ccc(F)cc2)c1=O (optimized conformer: 94.6756833837613 kcal/mol)

>  <smiles>  (2044) 
C=c1c(=Cc2[nH]c(=O)[nH]c2O)[nH]c(=O)n(Cc2ccc(F)cc2)c1=O

>  <score_type>  (2044) 
oracle

>  <origin>  (2044) 
adg

>  <m_score__min__energy>  (2044) 
-15.460000000000001

>  <m_primary>  (2044) 
energy

$$$$
11:0
     RDKit          3D

 28 31  0  0  0  0  0  0  0  0999 V2000
   61.9570   30.8300   47.3520 O   0  0  0  0  0  0  0  0  0  0  0  0
   61.0260   31.8400   47.0940 C   0  0  0  0  0  0  0  0  0  0  0  0
   61.4500   33.1860   47.0560 C   0  0  0  0  0  0  0  0  0  0  0  0
   62.8590   33.5430   47.3300 C   0  0  0  0  0  0  0  0  0  0  0  0
   63.4550   34.3580   46.5770 O   0  0  0  0  0  0  0  0  0  0  0  0
   63.5540   32.9990   48.4540 N   0  0  0  0  0  0  0  0  0  0  0  0
   63.2600   32.2060   49.6630 C   0  0  0  0  0  0  0  0  0  0  0  0
   64.6170   32.3320   50.2700 C   0  0  0  0  0  0  0  0  0  0  0  0
   64.8990   33.1290   49.0400 C   0  0  0  0  0  0  0  0  0  0  0  0
   60.5140   34.1940   46.7730 C   0  0  0  0  0  0  0  0  0  0  0  0
   59.1810   33.8730   46.5170 C   0  0  0  0  0  0  0  0  0  0  0  0
   58.7610   32.5440   46.5510 C   0  0  0  0  0  0  0  0  0  0  0  0
   59.6730   31.5240   46.8460 C   0  0  0  0  0  0  0  0  0  0  0  0
   59.2120   30.1640   46.8980 N   0  0  0  0  0  0  0  0  0  0  0  0
   59.2490   29.3610   47.9820 C   0  0  0  0  0  0  0  0  0  0  0  0
   59.8390   29.7430   49.3060 C   0  0  0  0  0  0  0  0  0  0  0  0
   58.7340   28.1170   47.6770 C   0  0  0  0  0  0  0  0  0  0  0  0
   58.3380   28.1660   46.3460 C   0  0  0  0  0  0  0  0  0  0  0  0
   57.8130   27.1540   45.6290 C   0  0  0  0  0  0  0  0  0  0  0  0
   57.1350   25.9880   46.2250 C   0  0  0  0  0  0  0  0  0  0  0  0
   57.7850   24.8740   46.6080 N   0  0  0  0  0  0  0  0  0  0  0  0
   56.7900   24.0520   47.0050 C   0  0  0  0  0  0  0  0  0  0  0  0
   57.0060   22.8950   47.4520 O   0  0  0  0  0  0  0  0  0  0  0  0
   55.5470   24.5620   46.8770 N   0  0  0  0  0  0  0  0  0  0  0  0
   55.7810   25.7830   46.3700 C   0  0  0  0  0  0  0  0  0  0  0  0
   54.7740   26.6680   46.0050 O   0  0  0  0  0  0  0  0  0  0  0  0
   58.6550   29.4510   45.8900 C   0  0  0  0  0  0  0  0  0  0  0  0
   58.4570   29.9330   44.6530 C   0  0  0  0  0  0  0  0  0  0  0  0
  1  2  1  0
  2  3  2  0
  3  4  1  0
  4  5  2  0
  4  6  1  0
  6  7  1  0
  7  8  1  0
  8  9  1  0
  3 10  1  0
 10 11  2  0
 11 12  1  0
 12 13  2  0
 13 14  1  0
 14 15  1  0
 15 16  1  0
 15 17  2  0
 17 18  1  0
 18 19  2  0
 19 20  1  0
 20 21  1  0
 21 22  1  0
 22 23  2  0
 22 24  1  0
 24 25  1  0
 25 26  1  0
 18 27  1  0
 27 28  2  0
 13  2  1  0
 27 14  1  0
  9  6  1  0
 25 20  2  0
M  CHG  3  21  -1  24  -1  26  -1
M  END
>  <UniqueID>  (2045) 
11

>  <SMILES>  (2045) 
C=c1/c(=C/c2[n-]c(=O)[n-]c2[O-])cc(C)n1-c1cccc(C(=O)N2CCC2)c1O

>  <Energy>  (2045) 
166.9505919486722

>  <Genealogy>  (2045) 
C=c1c(=Cc2[n-]c(=O)[n-]c2[O-])cc(C)n1-c1cccc(C(=O)N2CCC2)c1O (protonated)
C=c1/c(=C/c2[n-]c(=O)[n-]c2[O-])cc(C)n1-c1cccc(C(=O)N2CCC2)c1O (cis-trans isomerization)
C=c1/c(=C/c2[n-]c(=O)[n-]c2[O-])cc(C)n1-c1cccc(C(=O)N2CCC2)c1O (3D coordinates assigned)
C=c1/c(=C/c2[n-]c(=O)[n-]c2[O-])cc(C)n1-c1cccc(C(=O)N2CCC2)c1O (nonaromatic ring conformer: 166.9505919486722 kcal/mol)

>  <smiles>  (2045) 
C=c1c(=Cc2[nH]c(=O)[nH]c2O)cc(C)n1-c1cccc(C(=O)N2CCC2)c1O

>  <score_type>  (2045) 
oracle

>  <origin>  (2045) 
adg

>  <m_score__min__energy>  (2045) 
-15.98

>  <m_primary>  (2045) 
energy

$$$$
27:0
     RDKit          3D

 40 44  0  0  0  0  0  0  0  0999 V2000
   59.6280   26.2700   47.0180 C   0  0  0  0  0  0  0  0  0  0  0  0
   58.3910   25.7920   46.3690 C   0  0  0  0  0  0  0  0  0  0  0  0
   58.3800   24.5890   45.6410 C   0  0  0  0  0  0  0  0  0  0  0  0
   57.1890   24.1210   45.0780 C   0  0  0  0  0  0  0  0  0  0  0  0
   56.0000   24.8330   45.2570 C   0  0  0  0  0  0  0  0  0  0  0  0
   55.9990   26.0120   46.0080 C   0  0  0  0  0  0  0  0  0  0  0  0
   54.8140   26.7130   46.1990 O   0  0  0  0  0  0  0  0  0  0  0  0
   57.1890   26.4860   46.5710 C   0  0  0  0  0  0  0  0  0  0  0  0
   59.7870   27.4400   47.7090 C   0  0  0  0  0  0  0  0  0  0  0  0
   60.2160   27.4300   49.0650 C   0  0  0  0  0  0  0  0  0  0  0  0
   60.4950   26.3570   49.6660 O   0  0  0  0  0  0  0  0  0  0  0  0
   60.3840   28.5950   49.7360 N   0  0  0  0  0  0  0  0  0  0  0  0
   60.2160   29.8070   49.1470 C   0  0  0  0  0  0  0  0  0  0  0  0
   60.4350   30.9160   49.9000 C   0  0  0  0  0  0  0  0  0  0  0  0
   61.7530   31.4700   50.2670 C   0  0  0  0  0  0  0  0  0  0  0  0
   62.4560   30.9170   51.3500 C   0  0  0  0  0  0  0  0  0  0  0  0
   63.6630   31.4800   51.7680 C   0  0  0  0  0  0  0  0  0  0  0  0
   64.1690   32.6100   51.1230 C   0  0  0  0  0  0  0  0  0  0  0  0
   63.4700   33.1780   50.0540 C   0  0  0  0  0  0  0  0  0  0  0  0
   62.2610   32.6160   49.6160 C   0  0  0  0  0  0  0  0  0  0  0  0
   61.5700   33.2040   48.5000 N   0  0  0  0  0  0  0  0  0  0  0  0
   60.4490   34.1270   48.7290 C   0  0  0  0  0  0  0  0  0  0  0  0
   59.3390   33.8530   47.7120 C   0  0  0  0  0  0  0  0  0  0  0  0
   59.8430   33.9210   46.2430 C   0  0  0  0  0  0  0  0  0  0  0  0
   59.3460   35.1660   45.5590 C   0  0  0  0  0  0  0  0  0  0  0  0
   58.3870   35.1010   44.7450 O   0  0  0  0  0  0  0  0  0  0  0  0
   59.9600   36.3900   45.7960 O   0  0  0  0  0  0  0  0  0  0  0  0
   61.3810   33.8380   46.1170 C   0  0  0  0  0  0  0  0  0  0  0  0
   61.9820   32.8610   47.1330 C   0  0  0  0  0  0  0  0  0  0  0  0
   59.8000   29.8420   47.7950 C   0  0  0  0  0  0  0  0  0  0  0  0
   59.6010   30.9520   47.2270 O   0  0  0  0  0  0  0  0  0  0  0  0
   59.5870   28.6720   47.0950 N   0  0  0  0  0  0  0  0  0  0  0  0
   59.1250   28.8080   45.6860 C   0  0  0  0  0  0  0  0  0  0  0  0
   57.7130   29.4160   45.6050 C   0  0  0  0  0  0  0  0  0  0  0  0
   57.5570   30.3580   44.4420 C   0  0  0  0  0  0  0  0  0  0  0  0
   58.2330   31.5910   44.4310 C   0  0  0  0  0  0  0  0  0  0  0  0
   58.1240   32.4440   43.3300 C   0  0  0  0  0  0  0  0  0  0  0  0
   57.3410   32.0750   42.2320 C   0  0  0  0  0  0  0  0  0  0  0  0
   56.6670   30.8510   42.2350 C   0  0  0  0  0  0  0  0  0  0  0  0
   56.7730   29.9940   43.3340 C   0  0  0  0  0  0  0  0  0  0  0  0
  1  2  1  0
  2  3  2  0
  3  4  1  0
  4  5  2  0
  5  6  1  0
  6  7  1  0
  6  8  2  0
  1  9  2  3
  9 10  1  0
 10 11  2  0
 10 12  1  0
 12 13  1  0
 13 14  2  0
 14 15  1  0
 15 16  2  0
 16 17  1  0
 17 18  2  0
 18 19  1  0
 19 20  2  0
 20 21  1  0
 21 22  1  0
 22 23  1  0
 23 24  1  0
 24 25  1  0
 25 26  2  0
 25 27  1  0
 24 28  1  0
 28 29  1  0
 13 30  1  0
 30 31  2  0
 30 32  1  0
 32 33  1  0
 33 34  1  0
 34 35  1  0
 35 36  2  0
 36 37  1  0
 37 38  2  0
 38 39  1  0
 39 40  2  0
  8  2  1  0
 32  9  1  0
 40 35  1  0
 20 15  1  0
 29 21  1  0
M  CHG  2   7  -1  27  -1
M  END
>  <UniqueID>  (2046) 
25

>  <SMILES>  (2046) 
O=C([O-])C1CCN(c2ccccc2/C=c2/[nH]c(=O)c(=Cc3cccc([O-])c3)n(CCc3ccccc3)c2=O)CC1

>  <Energy>  (2046) 
114.93138322325548

>  <Genealogy>  (2046) 
O=C([O-])C1CCN(c2ccccc2C=c2[nH]c(=O)c(=Cc3cccc([O-])c3)n(CCc3ccccc3)c2=O)CC1 (protonated)
O=C([O-])C1CCN(c2ccccc2/C=c2/[nH]c(=O)c(=Cc3cccc([O-])c3)n(CCc3ccccc3)c2=O)CC1 (cis-trans isomerization)
O=C([O-])C1CCN(c2ccccc2/C=c2/[nH]c(=O)c(=Cc3cccc([O-])c3)n(CCc3ccccc3)c2=O)CC1 (3D coordinates assigned)
O=C([O-])C1CCN(c2ccccc2/C=c2/[nH]c(=O)c(=Cc3cccc([O-])c3)n(CCc3ccccc3)c2=O)CC1 (nonaromatic ring conformer: 114.93138322325548 kcal/mol)

>  <smiles>  (2046) 
O=C(O)C1CCN(c2ccccc2C=c2[nH]c(=O)c(=Cc3cccc(O)c3)n(CCc3ccccc3)c2=O)CC1

>  <score_type>  (2046) 
oracle

>  <origin>  (2046) 
adg

>  <m_score__min__energy>  (2046) 
-16.079999999999998

>  <m_primary>  (2046) 
energy

$$$$
29:0
     RDKit          3D

 31 34  0  0  0  0  0  0  0  0999 V2000
   53.1820   29.5460   55.6490 C   0  0  0  0  0  0  0  0  0  0  0  0
   53.9130   29.8170   54.5560 C   0  0  0  0  0  0  0  0  0  0  0  0
   53.4280   30.1270   53.2750 C   0  0  0  0  0  0  0  0  0  0  0  0
   52.1910   30.4440   52.8500 C   0  0  0  0  0  0  0  0  0  0  0  0
   51.8410   30.8830   51.4890 C   0  0  0  0  0  0  0  0  0  0  0  0
   51.8720   30.0880   50.4020 N   0  0  0  0  0  0  0  0  0  0  0  0
   51.3490   30.8670   49.4310 C   0  0  0  0  0  0  0  0  0  0  0  0
   51.2220   30.4740   48.2420 O   0  0  0  0  0  0  0  0  0  0  0  0
   50.9630   32.0950   49.8360 N   0  0  0  0  0  0  0  0  0  0  0  0
   51.2690   32.0870   51.1440 C   0  0  0  0  0  0  0  0  0  0  0  0
   51.0270   33.1610   51.9950 O   0  0  0  0  0  0  0  0  0  0  0  0
   54.5160   30.0540   52.4230 C   0  0  0  0  0  0  0  0  0  0  0  0
   55.6220   29.7810   53.2020 C   0  0  0  0  0  0  0  0  0  0  0  0
   56.9830   29.5630   52.6660 C   0  0  0  0  0  0  0  0  0  0  0  0
   57.6820   28.6270   53.1380 O   0  0  0  0  0  0  0  0  0  0  0  0
   57.5120   30.3900   51.6100 N   0  0  0  0  0  0  0  0  0  0  0  0
   58.5630   29.8800   50.7190 C   0  0  0  0  0  0  0  0  0  0  0  0
   59.8440   30.7220   50.8430 C   0  0  0  0  0  0  0  0  0  0  0  0
   59.5660   32.2180   51.1520 C   0  0  0  0  0  0  0  0  0  0  0  0
   60.6580   33.1630   50.5940 C   0  0  0  0  0  0  0  0  0  0  0  0
   60.5320   33.4640   49.1170 C   0  0  0  0  0  0  0  0  0  0  0  0
   61.2360   32.6950   48.1740 C   0  0  0  0  0  0  0  0  0  0  0  0
   61.1200   32.9730   46.8080 C   0  0  0  0  0  0  0  0  0  0  0  0
   60.2930   34.0120   46.3720 C   0  0  0  0  0  0  0  0  0  0  0  0
   60.1800   34.2790   45.0470 F   0  0  0  0  0  0  0  0  0  0  0  0
   59.5760   34.7700   47.3020 C   0  0  0  0  0  0  0  0  0  0  0  0
   59.6900   34.4960   48.6680 C   0  0  0  0  0  0  0  0  0  0  0  0
   58.1420   32.6320   50.7310 C   0  0  0  0  0  0  0  0  0  0  0  0
   57.1040   31.8020   51.5020 C   0  0  0  0  0  0  0  0  0  0  0  0
   55.2630   29.6600   54.5030 N   0  0  0  0  0  0  0  0  0  0  0  0
   56.1580   29.3350   55.6190 C   0  0  0  0  0  0  0  0  0  0  0  0
  1  2  2  0
  2  3  1  0
  3  4  2  3
  4  5  1  0
  5  6  1  0
  6  7  1  0
  7  8  2  0
  7  9  1  0
  9 10  1  0
 10 11  1  0
  3 12  1  0
 12 13  2  0
 13 14  1  0
 14 15  2  0
 14 16  1  0
 16 17  1  0
 17 18  1  0
 18 19  1  0
 19 20  1  0
 20 21  1  0
 21 22  2  0
 22 23  1  0
 23 24  2  0
 24 25  1  0
 24 26  1  0
 26 27  2  0
 19 28  1  0
 28 29  1  0
 13 30  1  0
 30 31  1  0
 30  2  1  0
 10  5  2  0
 29 16  1  0
 27 21  1  0
M  CHG  2   6  -1   9  -1
M  END
>  <UniqueID>  (2047) 
27

>  <SMILES>  (2047) 
C=c1c(=Cc2[n-]c(=O)[n-]c2O)cc(C(=O)N2CCC(Cc3ccc(F)cc3)CC2)n1C

>  <Energy>  (2047) 
133.2458922441177

>  <Genealogy>  (2047) 
C=c1c(=Cc2[n-]c(=O)[n-]c2O)cc(C(=O)N2CCC(Cc3ccc(F)cc3)CC2)n1C (protonated)
C=c1c(=Cc2[n-]c(=O)[n-]c2O)cc(C(=O)N2CCC(Cc3ccc(F)cc3)CC2)n1C (3D coordinates assigned)
C=c1c(=Cc2[n-]c(=O)[n-]c2O)cc(C(=O)N2CCC(Cc3ccc(F)cc3)CC2)n1C (nonaromatic ring conformer: 133.2458922441177 kcal/mol)

>  <smiles>  (2047) 
C=c1c(=Cc2[nH]c(=O)[nH]c2O)cc(C(=O)N2CCC(Cc3ccc(F)cc3)CC2)n1C

>  <score_type>  (2047) 
oracle

>  <origin>  (2047) 
adg

>  <m_score__min__energy>  (2047) 
-14.039999999999999

>  <m_primary>  (2047) 
energy

$$$$
31:0
     RDKit          3D

 32 35  0  0  0  0  0  0  0  0999 V2000
   56.6600   32.3330   52.0090 C   0  0  0  0  0  0  0  0  0  0  0  0
   56.1320   31.1280   52.2820 C   0  0  0  0  0  0  0  0  0  0  0  0
   54.7630   30.8160   52.3450 C   0  0  0  0  0  0  0  0  0  0  0  0
   53.6750   31.5210   51.9760 C   0  0  0  0  0  0  0  0  0  0  0  0
   52.6780   31.1030   50.9790 C   0  0  0  0  0  0  0  0  0  0  0  0
   52.8640   30.0820   50.1250 N   0  0  0  0  0  0  0  0  0  0  0  0
   51.7730   30.1380   49.3300 C   0  0  0  0  0  0  0  0  0  0  0  0
   51.5710   29.3160   48.3970 O   0  0  0  0  0  0  0  0  0  0  0  0
   50.9200   31.1470   49.6050 N   0  0  0  0  0  0  0  0  0  0  0  0
   51.5150   31.7590   50.6410 C   0  0  0  0  0  0  0  0  0  0  0  0
   51.0200   32.9070   51.2490 O   0  0  0  0  0  0  0  0  0  0  0  0
   54.6800   29.5380   52.8640 C   0  0  0  0  0  0  0  0  0  0  0  0
   55.9700   29.0910   53.0430 C   0  0  0  0  0  0  0  0  0  0  0  0
   56.3210   27.7080   53.5020 C   0  0  0  0  0  0  0  0  0  0  0  0
   56.8620   30.0450   52.6770 N   0  0  0  0  0  0  0  0  0  0  0  0
   58.3270   29.8840   52.7020 C   0  0  0  0  0  0  0  0  0  0  0  0
   58.9200   30.1970   51.3510 C   0  0  0  0  0  0  0  0  0  0  0  0
   58.5690   29.4270   50.2300 C   0  0  0  0  0  0  0  0  0  0  0  0
   59.0950   29.7270   48.9710 C   0  0  0  0  0  0  0  0  0  0  0  0
   59.9850   30.7960   48.8150 C   0  0  0  0  0  0  0  0  0  0  0  0
   60.6050   31.1910   47.2140 S   0  0  0  0  0  0  0  0  0  0  0  0
   60.4240   30.0010   46.3150 O   0  0  0  0  0  0  0  0  0  0  0  0
   62.0730   31.5090   47.2990 O   0  0  0  0  0  0  0  0  0  0  0  0
   59.7310   32.5570   46.5680 N   0  0  0  0  0  0  0  0  0  0  0  0
   58.2760   32.3020   46.6120 C   0  0  0  0  0  0  0  0  0  0  0  0
   57.4700   33.5980   46.3910 C   0  0  0  0  0  0  0  0  0  0  0  0
   58.2830   34.6130   45.8400 O   0  0  0  0  0  0  0  0  0  0  0  0
   59.2790   34.9900   46.7760 C   0  0  0  0  0  0  0  0  0  0  0  0
   60.0720   33.7780   47.3170 C   0  0  0  0  0  0  0  0  0  0  0  0
   60.3440   31.5650   49.9300 C   0  0  0  0  0  0  0  0  0  0  0  0
   59.8200   31.2670   51.1920 C   0  0  0  0  0  0  0  0  0  0  0  0
   60.1920   32.0240   52.2540 F   0  0  0  0  0  0  0  0  0  0  0  0
  1  2  2  0
  2  3  1  0
  3  4  2  0
  4  5  1  0
  5  6  1  0
  6  7  1  0
  7  8  2  0
  7  9  1  0
  9 10  1  0
 10 11  1  0
  3 12  1  0
 12 13  2  0
 13 14  1  0
 13 15  1  0
 15 16  1  0
 16 17  1  0
 17 18  2  0
 18 19  1  0
 19 20  2  0
 20 21  1  0
 21 22  2  0
 21 23  2  0
 21 24  1  0
 24 25  1  0
 25 26  1  0
 26 27  1  0
 27 28  1  0
 28 29  1  0
 20 30  1  0
 30 31  2  0
 31 32  1  0
 15  2  1  0
 31 17  1  0
 10  5  2  0
 29 24  1  0
M  CHG  4   6  -1   9  -1  11  -1  24   1
M  END
>  <UniqueID>  (2048) 
29

>  <SMILES>  (2048) 
C=c1/c(=C\c2[n-]c(=O)[n-]c2[O-])cc(C)n1Cc1ccc(S(=O)(=O)[NH+]2CCOCC2)cc1F

>  <Energy>  (2048) 
133.39757872793155

>  <Genealogy>  (2048) 
C=c1c(=Cc2[n-]c(=O)[n-]c2[O-])cc(C)n1Cc1ccc(S(=O)(=O)[NH+]2CCOCC2)cc1F (protonated)
C=c1/c(=C\c2[n-]c(=O)[n-]c2[O-])cc(C)n1Cc1ccc(S(=O)(=O)[NH+]2CCOCC2)cc1F (cis-trans isomerization)
C=c1/c(=C\c2[n-]c(=O)[n-]c2[O-])cc(C)n1Cc1ccc(S(=O)(=O)[NH+]2CCOCC2)cc1F (3D coordinates assigned)
C=c1/c(=C\c2[n-]c(=O)[n-]c2[O-])cc(C)n1Cc1ccc(S(=O)(=O)[NH+]2CCOCC2)cc1F (nonaromatic ring conformer: 133.39757872793155 kcal/mol)

>  <smiles>  (2048) 
C=c1c(=Cc2[nH]c(=O)[nH]c2O)cc(C)n1Cc1ccc(S(=O)(=O)N2CCOCC2)cc1F

>  <score_type>  (2048) 
oracle

>  <origin>  (2048) 
adg

>  <m_score__min__energy>  (2048) 
-16.41

>  <m_primary>  (2048) 
energy

$$$$
37:0
     RDKit          3D

 29 32  0  0  0  0  0  0  0  0999 V2000
   59.5500   28.0600   47.2320 C   0  0  0  0  0  0  0  0  0  0  0  0
   59.0010   28.7900   46.2470 C   0  0  0  0  0  0  0  0  0  0  0  0
   58.0610   28.3650   45.2940 C   0  0  0  0  0  0  0  0  0  0  0  0
   57.6130   27.1330   44.9810 C   0  0  0  0  0  0  0  0  0  0  0  0
   57.1620   26.1140   45.9430 C   0  0  0  0  0  0  0  0  0  0  0  0
   57.9290   25.1130   46.4170 N   0  0  0  0  0  0  0  0  0  0  0  0
   57.0540   24.3520   47.1130 C   0  0  0  0  0  0  0  0  0  0  0  0
   57.4010   23.3070   47.7200 O   0  0  0  0  0  0  0  0  0  0  0  0
   55.7760   24.7900   47.0880 N   0  0  0  0  0  0  0  0  0  0  0  0
   55.8630   25.8980   46.3340 C   0  0  0  0  0  0  0  0  0  0  0  0
   54.7700   26.6850   45.9950 O   0  0  0  0  0  0  0  0  0  0  0  0
   57.6580   29.5030   44.6120 C   0  0  0  0  0  0  0  0  0  0  0  0
   58.4030   30.5540   45.1090 C   0  0  0  0  0  0  0  0  0  0  0  0
   58.3900   31.9500   44.5630 C   0  0  0  0  0  0  0  0  0  0  0  0
   59.2050   30.1250   46.1080 N   0  0  0  0  0  0  0  0  0  0  0  0
   60.1600   30.9330   46.8180 C   0  0  0  0  0  0  0  0  0  0  0  0
   61.5130   30.5770   46.7670 C   0  0  0  0  0  0  0  0  0  0  0  0
   62.4700   31.3250   47.4560 C   0  0  0  0  0  0  0  0  0  0  0  0
   62.0910   32.4460   48.2100 C   0  0  0  0  0  0  0  0  0  0  0  0
   63.1190   33.2230   48.9430 C   0  0  0  0  0  0  0  0  0  0  0  0
   62.8120   34.3590   49.4050 O   0  0  0  0  0  0  0  0  0  0  0  0
   64.4470   32.6830   49.1620 N   0  0  0  0  0  0  0  0  0  0  0  0
   65.2870   33.4890   50.0630 C   0  0  0  0  0  0  0  0  0  0  0  0
   65.3350   32.3900   51.1160 C   0  0  0  0  0  0  0  0  0  0  0  0
   64.4670   31.5950   50.1500 C   0  0  0  0  0  0  0  0  0  0  0  0
   60.7360   32.8190   48.2460 C   0  0  0  0  0  0  0  0  0  0  0  0
   59.7600   32.0620   47.5730 C   0  0  0  0  0  0  0  0  0  0  0  0
   58.3180   32.5130   47.6410 C   0  0  0  0  0  0  0  0  0  0  0  0
   58.1540   33.9160   47.0730 C   0  0  0  0  0  0  0  0  0  0  0  0
  1  2  2  0
  2  3  1  0
  3  4  2  3
  4  5  1  0
  5  6  1  0
  6  7  1  0
  7  8  2  0
  7  9  1  0
  9 10  1  0
 10 11  1  0
  3 12  1  0
 12 13  2  0
 13 14  1  0
 13 15  1  0
 15 16  1  0
 16 17  2  0
 17 18  1  0
 18 19  2  0
 19 20  1  0
 20 21  2  0
 20 22  1  0
 22 23  1  0
 23 24  1  0
 24 25  1  0
 19 26  1  0
 26 27  2  0
 27 28  1  0
 28 29  1  0
 15  2  1  0
 27 16  1  0
 10  5  2  0
 25 22  1  0
M  CHG  4   6  -1   9  -1  11  -1  22   1
M  END
>  <UniqueID>  (2049) 
35

>  <SMILES>  (2049) 
C=c1c(=Cc2[n-]c(=O)[n-]c2[O-])cc(C)n1-c1ccc(C(=O)[NH+]2CCC2)cc1CC

>  <Energy>  (2049) 
203.00463596516326

>  <Genealogy>  (2049) 
C=c1c(=Cc2[n-]c(=O)[n-]c2[O-])cc(C)n1-c1ccc(C(=O)[NH+]2CCC2)cc1CC (protonated)
C=c1c(=Cc2[n-]c(=O)[n-]c2[O-])cc(C)n1-c1ccc(C(=O)[NH+]2CCC2)cc1CC (3D coordinates assigned)
C=c1c(=Cc2[n-]c(=O)[n-]c2[O-])cc(C)n1-c1ccc(C(=O)[NH+]2CCC2)cc1CC (nonaromatic ring conformer: 203.00463596516326 kcal/mol)

>  <smiles>  (2049) 
C=c1c(=Cc2[nH]c(=O)[nH]c2O)cc(C)n1-c1ccc(C(=O)N2CCC2)cc1CC

>  <score_type>  (2049) 
oracle

>  <origin>  (2049) 
adg

>  <m_score__min__energy>  (2049) 
-15.01

>  <m_primary>  (2049) 
energy

$$$$
47:0
     RDKit          3D

 32 35  0  0  0  0  0  0  0  0999 V2000
   56.8280   32.1350   45.1040 O   0  0  0  0  0  0  0  0  0  0  0  0
   58.0170   32.5440   45.7090 C   0  0  0  0  0  0  0  0  0  0  0  0
   58.3840   33.8930   45.6420 C   0  0  0  0  0  0  0  0  0  0  0  0
   57.5930   34.7790   44.9860 F   0  0  0  0  0  0  0  0  0  0  0  0
   59.5580   34.3380   46.2550 C   0  0  0  0  0  0  0  0  0  0  0  0
   60.3880   33.4360   46.9410 C   0  0  0  0  0  0  0  0  0  0  0  0
   61.5910   33.8960   47.5850 N   0  0  0  0  0  0  0  0  0  0  0  0
   62.8800   33.8400   46.8890 C   0  0  0  0  0  0  0  0  0  0  0  0
   63.8850   33.0680   47.7460 C   0  0  0  0  0  0  0  0  0  0  0  0
   63.8830   33.5380   49.1420 N   0  0  0  0  0  0  0  0  0  0  0  0
   64.8940   33.0280   50.0400 C   0  0  0  0  0  0  0  0  0  0  0  0
   65.5510   31.9990   49.7220 O   0  0  0  0  0  0  0  0  0  0  0  0
   65.1850   33.6820   51.3580 C   0  0  0  0  0  0  0  0  0  0  0  0
   62.9420   34.5930   49.5590 C   0  0  0  0  0  0  0  0  0  0  0  0
   61.5400   34.3300   48.9890 C   0  0  0  0  0  0  0  0  0  0  0  0
   60.0190   32.0840   47.0100 C   0  0  0  0  0  0  0  0  0  0  0  0
   58.8460   31.6310   46.3930 C   0  0  0  0  0  0  0  0  0  0  0  0
   58.4990   30.2390   46.4770 N   0  0  0  0  0  0  0  0  0  0  0  0
   58.5340   29.4890   47.5980 C   0  0  0  0  0  0  0  0  0  0  0  0
   58.9370   29.9930   48.9500 C   0  0  0  0  0  0  0  0  0  0  0  0
   58.1870   28.1850   47.3110 C   0  0  0  0  0  0  0  0  0  0  0  0
   57.8760   28.1400   45.9610 C   0  0  0  0  0  0  0  0  0  0  0  0
   57.4160   27.0270   45.3570 C   0  0  0  0  0  0  0  0  0  0  0  0
   56.8900   25.8360   46.0420 C   0  0  0  0  0  0  0  0  0  0  0  0
   57.6350   24.7860   46.4350 N   0  0  0  0  0  0  0  0  0  0  0  0
   56.7150   23.8980   46.8700 C   0  0  0  0  0  0  0  0  0  0  0  0
   57.0290   22.7710   47.3380 O   0  0  0  0  0  0  0  0  0  0  0  0
   55.4330   24.3040   46.7520 N   0  0  0  0  0  0  0  0  0  0  0  0
   55.5630   25.5270   46.2130 C   0  0  0  0  0  0  0  0  0  0  0  0
   54.4890   26.3390   45.8730 O   0  0  0  0  0  0  0  0  0  0  0  0
   58.1240   29.4280   45.4580 C   0  0  0  0  0  0  0  0  0  0  0  0
   58.1520   29.8100   44.1720 C   0  0  0  0  0  0  0  0  0  0  0  0
  1  2  1  0
  2  3  2  0
  3  4  1  0
  3  5  1  0
  5  6  2  0
  6  7  1  0
  7  8  1  0
  8  9  1  0
  9 10  1  0
 10 11  1  0
 11 12  2  0
 11 13  1  0
 10 14  1  0
 14 15  1  0
  6 16  1  0
 16 17  2  0
 17 18  1  0
 18 19  1  0
 19 20  1  0
 19 21  2  0
 21 22  1  0
 22 23  2  0
 23 24  1  0
 24 25  1  0
 25 26  1  0
 26 27  2  0
 26 28  1  0
 28 29  1  0
 29 30  1  0
 22 31  1  0
 31 32  2  0
 17  2  1  0
 31 18  1  0
 15  7  1  0
 29 24  2  0
M  CHG  3  25  -1  28  -1  30  -1
M  END
>  <UniqueID>  (2050) 
45

>  <SMILES>  (2050) 
C=c1/c(=C\c2[n-]c(=O)[n-]c2[O-])cc(C)n1-c1cc(N2CCN(C(C)=O)CC2)cc(F)c1O

>  <Energy>  (2050) 
134.96934345295693

>  <Genealogy>  (2050) 
C=c1c(=Cc2[n-]c(=O)[n-]c2[O-])cc(C)n1-c1cc(N2CCN(C(C)=O)CC2)cc(F)c1O (protonated)
C=c1/c(=C\c2[n-]c(=O)[n-]c2[O-])cc(C)n1-c1cc(N2CCN(C(C)=O)CC2)cc(F)c1O (cis-trans isomerization)
C=c1/c(=C\c2[n-]c(=O)[n-]c2[O-])cc(C)n1-c1cc(N2CCN(C(C)=O)CC2)cc(F)c1O (3D coordinates assigned)
C=c1/c(=C\c2[n-]c(=O)[n-]c2[O-])cc(C)n1-c1cc(N2CCN(C(C)=O)CC2)cc(F)c1O (nonaromatic ring conformer: 134.96934345295693 kcal/mol)

>  <smiles>  (2050) 
C=c1c(=Cc2[nH]c(=O)[nH]c2O)cc(C)n1-c1cc(N2CCN(C(C)=O)CC2)cc(F)c1O

>  <score_type>  (2050) 
oracle

>  <origin>  (2050) 
adg

>  <m_score__min__energy>  (2050) 
-16.579999999999998

>  <m_primary>  (2050) 
energy

$$$$
51:0
     RDKit          3D

 31 33  0  0  0  0  0  0  0  0999 V2000
   59.7360   27.5450   48.3880 C   0  0  0  0  0  0  0  0  0  0  0  0
   58.6880   27.0080   47.4560 C   0  0  0  0  0  0  0  0  0  0  0  0
   58.5420   25.6250   47.2810 C   0  0  0  0  0  0  0  0  0  0  0  0
   57.5540   25.1230   46.4270 C   0  0  0  0  0  0  0  0  0  0  0  0
   56.6950   25.9990   45.7580 C   0  0  0  0  0  0  0  0  0  0  0  0
   56.7970   27.3830   45.9580 C   0  0  0  0  0  0  0  0  0  0  0  0
   55.8950   28.2460   45.2520 N   0  0  0  0  0  0  0  0  0  0  0  0
   56.2210   29.4920   44.6200 C   0  0  0  0  0  0  0  0  0  0  0  0
   55.5130   30.5190   44.8090 O   0  0  0  0  0  0  0  0  0  0  0  0
   57.3590   29.5470   43.6530 C   0  0  0  0  0  0  0  0  0  0  0  0
   58.6640   29.3990   44.3810 C   0  0  0  0  0  0  0  0  0  0  0  0
   59.4790   28.2770   44.1860 C   0  0  0  0  0  0  0  0  0  0  0  0
   60.6490   28.1790   44.8690 N   0  0  0  0  0  0  0  0  0  0  0  0
   61.0410   29.1350   45.7520 C   0  0  0  0  0  0  0  0  0  0  0  0
   60.2120   30.2540   45.9780 C   0  0  0  0  0  0  0  0  0  0  0  0
   60.5050   31.2150   46.8120 N   0  0  0  0  0  0  0  0  0  0  0  0
   61.6550   31.3740   47.6610 C   0  0  0  0  0  0  0  0  0  0  0  0
   62.8270   31.2690   47.2100 O   0  0  0  0  0  0  0  0  0  0  0  0
   61.4550   31.5780   49.1300 C   0  0  0  0  0  0  0  0  0  0  0  0
   60.1870   32.2640   49.3850 N   0  0  0  0  0  0  0  0  0  0  0  0
   60.1760   33.8600   48.6900 S   0  0  0  0  0  0  0  0  0  0  0  0
   59.6180   34.8440   49.6860 O   0  0  0  0  0  0  0  0  0  0  0  0
   61.5860   34.2590   48.3610 O   0  0  0  0  0  0  0  0  0  0  0  0
   59.2210   33.8720   47.2100 C   0  0  0  0  0  0  0  0  0  0  0  0
   58.0330   33.1270   47.1470 C   0  0  0  0  0  0  0  0  0  0  0  0
   57.2680   33.1270   45.9750 C   0  0  0  0  0  0  0  0  0  0  0  0
   57.6880   33.8640   44.8610 C   0  0  0  0  0  0  0  0  0  0  0  0
   58.8710   34.6070   44.9200 C   0  0  0  0  0  0  0  0  0  0  0  0
   59.6380   34.6130   46.0910 C   0  0  0  0  0  0  0  0  0  0  0  0
   59.0520   30.3510   45.2710 N   0  0  0  0  0  0  0  0  0  0  0  0
   57.8080   27.8850   46.8010 C   0  0  0  0  0  0  0  0  0  0  0  0
  1  2  1  0
  2  3  2  0
  3  4  1  0
  4  5  2  0
  5  6  1  0
  6  7  1  0
  7  8  1  0
  8  9  2  0
  8 10  1  0
 10 11  1  0
 11 12  2  0
 12 13  1  0
 13 14  2  0
 14 15  1  0
 15 16  2  3
 16 17  1  0
 17 18  2  0
 17 19  1  0
 19 20  1  0
 20 21  1  0
 21 22  2  0
 21 23  2  0
 21 24  1  0
 24 25  2  0
 25 26  1  0
 26 27  2  0
 27 28  1  0
 28 29  2  0
 15 30  1  0
  6 31  2  0
 31  2  1  0
 30 11  1  0
 29 24  1  0
M  CHG  3   7  -1  20  -1  30  -1
M  END
>  <UniqueID>  (2051) 
49

>  <SMILES>  (2051) 
Cc1cccc([N-]C(=O)Cc2cncc(=NC(=O)C[N-]S(=O)(=O)c3ccccc3)[n-]2)c1

>  <Energy>  (2051) 
59.391399255731514

>  <Genealogy>  (2051) 
Cc1cccc([N-]C(=O)Cc2cncc(=NC(=O)C[N-]S(=O)(=O)c3ccccc3)[n-]2)c1 (protonated)
Cc1cccc([N-]C(=O)Cc2cncc(=NC(=O)C[N-]S(=O)(=O)c3ccccc3)[n-]2)c1 (3D coordinates assigned)
Cc1cccc([N-]C(=O)Cc2cncc(=NC(=O)C[N-]S(=O)(=O)c3ccccc3)[n-]2)c1 (optimized conformer: 59.391399255731514 kcal/mol)

>  <smiles>  (2051) 
Cc1cccc(NC(=O)Cc2cncc(=NC(=O)CNS(=O)(=O)c3ccccc3)[nH]2)c1

>  <score_type>  (2051) 
oracle

>  <origin>  (2051) 
adg

>  <m_score__min__energy>  (2051) 
-14.19

>  <m_primary>  (2051) 
energy

$$$$
56:0
     RDKit          3D

 29 32  0  0  0  0  0  0  0  0999 V2000
   59.4980   29.1450   47.0700 C   0  0  0  0  0  0  0  0  0  0  0  0
   58.8000   29.2460   45.9290 C   0  0  0  0  0  0  0  0  0  0  0  0
   58.3900   28.1910   45.1070 C   0  0  0  0  0  0  0  0  0  0  0  0
   58.5860   26.8740   45.3120 C   0  0  0  0  0  0  0  0  0  0  0  0
   57.6840   26.0200   46.1060 C   0  0  0  0  0  0  0  0  0  0  0  0
   58.0920   24.9050   46.7380 N   0  0  0  0  0  0  0  0  0  0  0  0
   56.9500   24.4020   47.2540 C   0  0  0  0  0  0  0  0  0  0  0  0
   56.9230   23.3470   47.9400 O   0  0  0  0  0  0  0  0  0  0  0  0
   55.8370   25.1120   46.9700 N   0  0  0  0  0  0  0  0  0  0  0  0
   56.3160   26.1260   46.2310 C   0  0  0  0  0  0  0  0  0  0  0  0
   55.5120   27.0980   45.6480 O   0  0  0  0  0  0  0  0  0  0  0  0
   57.6780   28.7660   44.0620 C   0  0  0  0  0  0  0  0  0  0  0  0
   57.6990   30.1300   44.2710 C   0  0  0  0  0  0  0  0  0  0  0  0
   57.0200   31.1360   43.3930 C   0  0  0  0  0  0  0  0  0  0  0  0
   58.3700   30.4220   45.4070 N   0  0  0  0  0  0  0  0  0  0  0  0
   58.5860   31.7390   45.9410 C   0  0  0  0  0  0  0  0  0  0  0  0
   57.5190   32.6440   46.0260 C   0  0  0  0  0  0  0  0  0  0  0  0
   57.7160   33.9130   46.5720 C   0  0  0  0  0  0  0  0  0  0  0  0
   58.9790   34.2890   47.0340 C   0  0  0  0  0  0  0  0  0  0  0  0
   60.0620   33.3990   46.9440 C   0  0  0  0  0  0  0  0  0  0  0  0
   61.3580   33.7880   47.4290 N   0  0  0  0  0  0  0  0  0  0  0  0
   61.5280   34.1810   48.8320 C   0  0  0  0  0  0  0  0  0  0  0  0
   63.0130   34.1520   49.2270 C   0  0  0  0  0  0  0  0  0  0  0  0
   63.7270   33.0190   48.5990 N   0  0  0  0  0  0  0  0  0  0  0  0
   63.2650   31.7210   49.1210 C   0  0  0  0  0  0  0  0  0  0  0  0
   63.6990   33.0610   47.1140 C   0  0  0  0  0  0  0  0  0  0  0  0
   62.5110   33.8520   46.5290 C   0  0  0  0  0  0  0  0  0  0  0  0
   59.8570   32.1180   46.4000 C   0  0  0  0  0  0  0  0  0  0  0  0
   60.8870   31.2350   46.3300 F   0  0  0  0  0  0  0  0  0  0  0  0
  1  2  2  0
  2  3  1  0
  3  4  2  3
  4  5  1  0
  5  6  1  0
  6  7  1  0
  7  8  2  0
  7  9  1  0
  9 10  1  0
 10 11  1  0
  3 12  1  0
 12 13  2  0
 13 14  1  0
 13 15  1  0
 15 16  1  0
 16 17  2  0
 17 18  1  0
 18 19  2  0
 19 20  1  0
 20 21  1  0
 21 22  1  0
 22 23  1  0
 23 24  1  0
 24 25  1  0
 24 26  1  0
 26 27  1  0
 20 28  2  0
 28 29  1  0
 15  2  1  0
 28 16  1  0
 10  5  2  0
 27 21  1  0
M  CHG  3   6  -1   9  -1  11  -1
M  END
>  <UniqueID>  (2052) 
54

>  <SMILES>  (2052) 
C=c1c(=Cc2[n-]c(=O)[n-]c2[O-])cc(C)n1-c1cccc(N2CCN(C)CC2)c1F

>  <Energy>  (2052) 
136.03770127273563

>  <Genealogy>  (2052) 
C=c1c(=Cc2[n-]c(=O)[n-]c2[O-])cc(C)n1-c1cccc(N2CCN(C)CC2)c1F (protonated)
C=c1c(=Cc2[n-]c(=O)[n-]c2[O-])cc(C)n1-c1cccc(N2CCN(C)CC2)c1F (3D coordinates assigned)
C=c1c(=Cc2[n-]c(=O)[n-]c2[O-])cc(C)n1-c1cccc(N2CCN(C)CC2)c1F (nonaromatic ring conformer: 136.03770127273563 kcal/mol)

>  <smiles>  (2052) 
C=c1c(=Cc2[nH]c(=O)[nH]c2O)cc(C)n1-c1cccc(N2CCN(C)CC2)c1F

>  <score_type>  (2052) 
oracle

>  <origin>  (2052) 
adg

>  <m_score__min__energy>  (2052) 
-15.890000000000001

>  <m_primary>  (2052) 
energy

$$$$
69:0
     RDKit          3D

 29 31  0  0  0  0  0  0  0  0999 V2000
   56.8930   28.2680   53.1920 C   0  0  0  0  0  0  0  0  0  0  0  0
   56.3240   29.4200   52.7730 C   0  0  0  0  0  0  0  0  0  0  0  0
   54.9110   29.5250   52.7800 C   0  0  0  0  0  0  0  0  0  0  0  0
   54.1940   28.5460   53.1380 O   0  0  0  0  0  0  0  0  0  0  0  0
   54.3080   30.7350   52.3970 C   0  0  0  0  0  0  0  0  0  0  0  0
   52.9680   30.8760   52.3630 C   0  0  0  0  0  0  0  0  0  0  0  0
   52.1850   31.0590   51.1250 C   0  0  0  0  0  0  0  0  0  0  0  0
   52.1290   29.9290   49.8770 S   0  0  0  0  0  0  0  0  0  0  0  0
   51.0220   30.8300   48.9920 C   0  0  0  0  0  0  0  0  0  0  0  0
   50.5640   30.4890   47.8710 O   0  0  0  0  0  0  0  0  0  0  0  0
   50.6590   31.9680   49.6190 N   0  0  0  0  0  0  0  0  0  0  0  0
   51.2950   32.0920   50.8140 C   0  0  0  0  0  0  0  0  0  0  0  0
   51.0280   33.1560   51.6660 O   0  0  0  0  0  0  0  0  0  0  0  0
   55.1040   31.7660   52.0260 N   0  0  0  0  0  0  0  0  0  0  0  0
   56.4540   31.6740   52.0070 C   0  0  0  0  0  0  0  0  0  0  0  0
   57.1180   32.6920   51.6700 O   0  0  0  0  0  0  0  0  0  0  0  0
   57.0840   30.5000   52.3500 N   0  0  0  0  0  0  0  0  0  0  0  0
   58.5640   30.4460   52.2840 C   0  0  0  0  0  0  0  0  0  0  0  0
   59.0410   30.7820   50.9000 C   0  0  0  0  0  0  0  0  0  0  0  0
   59.3180   29.8470   50.1000 O   0  0  0  0  0  0  0  0  0  0  0  0
   59.2230   32.1490   50.5060 N   0  0  0  0  0  0  0  0  0  0  0  0
   59.6460   32.5200   49.1840 C   0  0  0  0  0  0  0  0  0  0  0  0
   58.6690   32.6640   48.1910 C   0  0  0  0  0  0  0  0  0  0  0  0
   59.0240   33.0610   46.9050 C   0  0  0  0  0  0  0  0  0  0  0  0
   60.3570   33.3140   46.5910 C   0  0  0  0  0  0  0  0  0  0  0  0
   61.3620   33.1600   47.5610 C   0  0  0  0  0  0  0  0  0  0  0  0
   62.7930   33.4330   47.1720 C   0  0  0  0  0  0  0  0  0  0  0  0
   61.0150   32.7170   48.8640 C   0  0  0  0  0  0  0  0  0  0  0  0
   62.0900   32.4750   49.9010 C   0  0  0  0  0  0  0  0  0  0  0  0
  1  2  2  0
  2  3  1  0
  3  4  2  0
  3  5  1  0
  5  6  2  3
  6  7  1  0
  7  8  1  0
  8  9  1  0
  9 10  2  0
  9 11  1  0
 11 12  1  0
 12 13  1  0
  5 14  1  0
 14 15  1  0
 15 16  2  0
 15 17  1  0
 17 18  1  0
 18 19  1  0
 19 20  2  0
 19 21  1  0
 21 22  1  0
 22 23  2  0
 23 24  1  0
 24 25  2  0
 25 26  1  0
 26 27  1  0
 26 28  2  0
 28 29  1  0
 17  2  1  0
 28 22  1  0
 12  7  2  0
M  CHG  3  11  -1  13  -1  14  -1
M  END
>  <UniqueID>  (2053) 
66

>  <SMILES>  (2053) 
C=c1c(=O)c(=Cc2sc(=O)[n-]c2[O-])[n-]c(=O)n1CC(=O)Nc1cccc(C)c1C

>  <Energy>  (2053) 
101.43942753550716

>  <Genealogy>  (2053) 
C=c1c(=O)c(=Cc2sc(=O)[n-]c2[O-])[n-]c(=O)n1CC(=O)Nc1cccc(C)c1C (protonated)
C=c1c(=O)c(=Cc2sc(=O)[n-]c2[O-])[n-]c(=O)n1CC(=O)Nc1cccc(C)c1C (3D coordinates assigned)
C=c1c(=O)c(=Cc2sc(=O)[n-]c2[O-])[n-]c(=O)n1CC(=O)Nc1cccc(C)c1C (optimized conformer: 101.43942753550716 kcal/mol)

>  <smiles>  (2053) 
C=c1c(=O)c(=Cc2sc(=O)[nH]c2O)[nH]c(=O)n1CC(=O)Nc1cccc(C)c1C

>  <score_type>  (2053) 
oracle

>  <origin>  (2053) 
adg

>  <m_score__min__energy>  (2053) 
-16.52

>  <m_primary>  (2053) 
energy

$$$$
79:0
     RDKit          3D

 31 34  0  0  0  0  0  0  0  0999 V2000
   59.5610   27.8680   46.9790 C   0  0  0  0  0  0  0  0  0  0  0  0
   58.8070   28.6250   46.1640 C   0  0  0  0  0  0  0  0  0  0  0  0
   57.9900   28.1740   45.1130 C   0  0  0  0  0  0  0  0  0  0  0  0
   57.6080   26.9330   44.7550 C   0  0  0  0  0  0  0  0  0  0  0  0
   57.1220   25.8850   45.6680 C   0  0  0  0  0  0  0  0  0  0  0  0
   57.8900   24.9170   46.2010 N   0  0  0  0  0  0  0  0  0  0  0  0
   57.0560   24.3000   47.0670 C   0  0  0  0  0  0  0  0  0  0  0  0
   57.4100   23.3120   47.7610 O   0  0  0  0  0  0  0  0  0  0  0  0
   55.8180   24.8330   47.1380 N   0  0  0  0  0  0  0  0  0  0  0  0
   55.8830   25.8440   46.2570 C   0  0  0  0  0  0  0  0  0  0  0  0
   54.8310   26.7150   46.0010 O   0  0  0  0  0  0  0  0  0  0  0  0
   57.5650   29.3070   44.4420 C   0  0  0  0  0  0  0  0  0  0  0  0
   58.0730   30.3930   45.1220 C   0  0  0  0  0  0  0  0  0  0  0  0
   57.8410   31.8200   44.7230 C   0  0  0  0  0  0  0  0  0  0  0  0
   58.8140   29.9840   46.1780 N   0  0  0  0  0  0  0  0  0  0  0  0
   59.5560   30.8420   47.0660 C   0  0  0  0  0  0  0  0  0  0  0  0
   59.0050   31.5750   48.0050 O   0  0  0  0  0  0  0  0  0  0  0  0
   59.9570   32.2340   48.6230 C   0  0  0  0  0  0  0  0  0  0  0  0
   59.7200   33.1740   49.7330 C   0  0  0  0  0  0  0  0  0  0  0  0
   59.3420   34.3480   49.4650 O   0  0  0  0  0  0  0  0  0  0  0  0
   59.8650   32.7320   51.1090 N   0  0  0  0  0  0  0  0  0  0  0  0
   58.8340   33.2780   52.0230 C   0  0  0  0  0  0  0  0  0  0  0  0
   57.4570   32.5970   51.8890 C   0  0  0  0  0  0  0  0  0  0  0  0
   57.5800   31.1350   51.8210 N   0  0  0  0  0  0  0  0  0  0  0  0
   56.5110   30.2790   52.2890 C   0  0  0  0  0  0  0  0  0  0  0  0
   56.6530   29.0250   52.2670 O   0  0  0  0  0  0  0  0  0  0  0  0
   55.2290   30.8370   52.8310 C   0  0  0  0  0  0  0  0  0  0  0  0
   58.6120   30.5810   50.9370 C   0  0  0  0  0  0  0  0  0  0  0  0
   59.9570   31.2620   51.1990 C   0  0  0  0  0  0  0  0  0  0  0  0
   61.1860   31.9200   48.0700 C   0  0  0  0  0  0  0  0  0  0  0  0
   60.9270   31.0180   47.0600 C   0  0  0  0  0  0  0  0  0  0  0  0
  1  2  2  0
  2  3  1  0
  3  4  2  0
  4  5  1  0
  5  6  1  0
  6  7  1  0
  7  8  2  0
  7  9  1  0
  9 10  1  0
 10 11  1  0
  3 12  1  0
 12 13  2  0
 13 14  1  0
 13 15  1  0
 15 16  1  0
 16 17  1  0
 17 18  1  0
 18 19  1  0
 19 20  2  0
 19 21  1  0
 21 22  1  0
 22 23  1  0
 23 24  1  0
 24 25  1  0
 25 26  2  0
 25 27  1  0
 24 28  1  0
 28 29  1  0
 18 30  2  0
 30 31  1  0
 15  2  1  0
 31 16  2  0
 10  5  2  0
 29 21  1  0
M  CHG  4   6  -1   9  -1  11  -1  21   1
M  END
>  <UniqueID>  (2054) 
76

>  <SMILES>  (2054) 
C=c1/c(=C\c2[n-]c(=O)[n-]c2[O-])cc(C)n1-c1ccc(C(=O)[NH+]2CCN(C(C)=O)CC2)o1

>  <Energy>  (2054) 
159.90433651824046

>  <Genealogy>  (2054) 
C=c1c(=Cc2[n-]c(=O)[n-]c2[O-])cc(C)n1-c1ccc(C(=O)[NH+]2CCN(C(C)=O)CC2)o1 (protonated)
C=c1/c(=C\c2[n-]c(=O)[n-]c2[O-])cc(C)n1-c1ccc(C(=O)[NH+]2CCN(C(C)=O)CC2)o1 (cis-trans isomerization)
C=c1/c(=C\c2[n-]c(=O)[n-]c2[O-])cc(C)n1-c1ccc(C(=O)[NH+]2CCN(C(C)=O)CC2)o1 (3D coordinates assigned)
C=c1/c(=C\c2[n-]c(=O)[n-]c2[O-])cc(C)n1-c1ccc(C(=O)[NH+]2CCN(C(C)=O)CC2)o1 (nonaromatic ring conformer: 159.90433651824046 kcal/mol)

>  <smiles>  (2054) 
C=c1c(=Cc2[nH]c(=O)[nH]c2O)cc(C)n1-c1ccc(C(=O)N2CCN(C(C)=O)CC2)o1

>  <score_type>  (2054) 
oracle

>  <origin>  (2054) 
adg

>  <m_score__min__energy>  (2054) 
-16.010000000000002

>  <m_primary>  (2054) 
energy

$$$$
80:0
     RDKit          3D

 30 33  0  0  0  0  0  0  0  0999 V2000
   58.7450   30.3670   44.4500 C   0  0  0  0  0  0  0  0  0  0  0  0
   58.8260   30.0300   45.7460 C   0  0  0  0  0  0  0  0  0  0  0  0
   58.5840   28.7690   46.3160 C   0  0  0  0  0  0  0  0  0  0  0  0
   58.4020   27.5600   45.7480 C   0  0  0  0  0  0  0  0  0  0  0  0
   57.1920   26.7310   45.8680 C   0  0  0  0  0  0  0  0  0  0  0  0
   57.1670   25.4780   46.3610 N   0  0  0  0  0  0  0  0  0  0  0  0
   55.8490   25.1870   46.4030 C   0  0  0  0  0  0  0  0  0  0  0  0
   55.4130   24.0750   46.8000 O   0  0  0  0  0  0  0  0  0  0  0  0
   55.0340   26.1850   46.0000 N   0  0  0  0  0  0  0  0  0  0  0  0
   55.9010   27.1590   45.6790 C   0  0  0  0  0  0  0  0  0  0  0  0
   55.5200   28.4160   45.2260 O   0  0  0  0  0  0  0  0  0  0  0  0
   58.5790   28.9590   47.6890 C   0  0  0  0  0  0  0  0  0  0  0  0
   58.8820   30.2860   47.9110 C   0  0  0  0  0  0  0  0  0  0  0  0
   58.9470   30.9390   49.2580 C   0  0  0  0  0  0  0  0  0  0  0  0
   59.0290   30.9350   46.7360 N   0  0  0  0  0  0  0  0  0  0  0  0
   59.2680   32.3470   46.5910 C   0  0  0  0  0  0  0  0  0  0  0  0
   58.2330   33.1710   46.1210 C   0  0  0  0  0  0  0  0  0  0  0  0
   57.0300   32.6350   45.7930 F   0  0  0  0  0  0  0  0  0  0  0  0
   58.4270   34.5480   46.0030 C   0  0  0  0  0  0  0  0  0  0  0  0
   59.6530   35.1150   46.3530 C   0  0  0  0  0  0  0  0  0  0  0  0
   60.6910   34.3060   46.8190 C   0  0  0  0  0  0  0  0  0  0  0  0
   60.5130   32.9180   46.9450 C   0  0  0  0  0  0  0  0  0  0  0  0
   61.6410   32.0830   47.4210 C   0  0  0  0  0  0  0  0  0  0  0  0
   62.0020   31.0880   46.7350 O   0  0  0  0  0  0  0  0  0  0  0  0
   62.3610   32.4130   48.6240 N   0  0  0  0  0  0  0  0  0  0  0  0
   63.7740   32.0380   48.7380 C   0  0  0  0  0  0  0  0  0  0  0  0
   64.3860   32.6030   50.0260 C   0  0  0  0  0  0  0  0  0  0  0  0
   63.9090   33.9720   50.2610 N   0  0  0  0  0  0  0  0  0  0  0  0
   62.4540   34.0270   50.5060 C   0  0  0  0  0  0  0  0  0  0  0  0
   61.6570   32.9000   49.8180 C   0  0  0  0  0  0  0  0  0  0  0  0
  1  2  2  0
  2  3  1  0
  3  4  2  0
  4  5  1  0
  5  6  1  0
  6  7  1  0
  7  8  2  0
  7  9  1  0
  9 10  1  0
 10 11  1  0
  3 12  1  0
 12 13  2  0
 13 14  1  0
 13 15  1  0
 15 16  1  0
 16 17  2  0
 17 18  1  0
 17 19  1  0
 19 20  2  0
 20 21  1  0
 21 22  2  0
 22 23  1  0
 23 24  2  0
 23 25  1  0
 25 26  1  0
 26 27  1  0
 27 28  1  0
 28 29  1  0
 29 30  1  0
 15  2  1  0
 22 16  1  0
 30 25  1  0
 10  5  2  0
M  CHG  3   6  -1   9  -1  11  -1
M  END
>  <UniqueID>  (2055) 
77

>  <SMILES>  (2055) 
C=c1/c(=C\c2[n-]c(=O)[n-]c2[O-])cc(C)n1-c1c(F)cccc1C(=O)N1CCNCC1

>  <Energy>  (2055) 
136.09474456539553

>  <Genealogy>  (2055) 
C=c1c(=Cc2[n-]c(=O)[n-]c2[O-])cc(C)n1-c1c(F)cccc1C(=O)N1CCNCC1 (protonated)
C=c1/c(=C\c2[n-]c(=O)[n-]c2[O-])cc(C)n1-c1c(F)cccc1C(=O)N1CCNCC1 (cis-trans isomerization)
C=c1/c(=C\c2[n-]c(=O)[n-]c2[O-])cc(C)n1-c1c(F)cccc1C(=O)N1CCNCC1 (3D coordinates assigned)
C=c1/c(=C\c2[n-]c(=O)[n-]c2[O-])cc(C)n1-c1c(F)cccc1C(=O)N1CCNCC1 (nonaromatic ring conformer: 136.09474456539553 kcal/mol)

>  <smiles>  (2055) 
C=c1c(=Cc2[nH]c(=O)[nH]c2O)cc(C)n1-c1c(F)cccc1C(=O)N1CCNCC1

>  <score_type>  (2055) 
oracle

>  <origin>  (2055) 
adg

>  <m_score__min__energy>  (2055) 
-16.32

>  <m_primary>  (2055) 
energy

$$$$
87:0
     RDKit          3D

 39 43  0  0  0  0  0  0  0  0999 V2000
   58.5320   28.6260   45.2650 C   0  0  0  0  0  0  0  0  0  0  0  0
   58.9420   28.7320   46.5370 C   0  0  0  0  0  0  0  0  0  0  0  0
   59.0680   27.6840   47.4530 C   0  0  0  0  0  0  0  0  0  0  0  0
   58.8810   26.3650   47.2520 C   0  0  0  0  0  0  0  0  0  0  0  0
   57.6030   25.8420   46.7490 C   0  0  0  0  0  0  0  0  0  0  0  0
   56.6910   26.5940   46.1130 N   0  0  0  0  0  0  0  0  0  0  0  0
   55.5770   25.8310   46.1530 C   0  0  0  0  0  0  0  0  0  0  0  0
   54.4840   26.2080   45.6510 O   0  0  0  0  0  0  0  0  0  0  0  0
   55.7160   24.6520   46.8040 N   0  0  0  0  0  0  0  0  0  0  0  0
   57.0060   24.6770   47.1730 C   0  0  0  0  0  0  0  0  0  0  0  0
   57.6120   23.6990   47.9540 O   0  0  0  0  0  0  0  0  0  0  0  0
   59.5040   28.2660   48.6420 C   0  0  0  0  0  0  0  0  0  0  0  0
   59.6990   29.6170   48.3930 C   0  0  0  0  0  0  0  0  0  0  0  0
   60.3400   30.5700   49.3350 C   0  0  0  0  0  0  0  0  0  0  0  0
   59.6350   31.1790   50.1800 O   0  0  0  0  0  0  0  0  0  0  0  0
   61.7640   30.8220   49.3060 N   0  0  0  0  0  0  0  0  0  0  0  0
   62.3950   31.3160   48.0720 C   0  0  0  0  0  0  0  0  0  0  0  0
   63.5680   32.2910   48.3010 C   0  0  0  0  0  0  0  0  0  0  0  0
   63.9760   32.5190   49.7850 C   0  0  0  0  0  0  0  0  0  0  0  0
   65.4140   33.0660   49.8460 C   0  0  0  0  0  0  0  0  0  0  0  0
   63.0680   33.5100   50.5120 C   0  0  0  0  0  0  0  0  0  0  0  0
   63.5590   34.2610   51.3970 O   0  0  0  0  0  0  0  0  0  0  0  0
   61.6770   33.6610   50.1860 N   0  0  0  0  0  0  0  0  0  0  0  0
   60.6860   33.8350   51.2300 C   0  0  0  0  0  0  0  0  0  0  0  0
   59.3660   34.1040   50.5170 C   0  0  0  0  0  0  0  0  0  0  0  0
   59.6790   34.2110   49.0210 C   0  0  0  0  0  0  0  0  0  0  0  0
   61.1910   34.0910   48.8790 C   0  0  0  0  0  0  0  0  0  0  0  0
   63.9510   31.1350   50.4840 C   0  0  0  0  0  0  0  0  0  0  0  0
   62.5340   30.5370   50.5200 C   0  0  0  0  0  0  0  0  0  0  0  0
   59.3090   29.9000   47.1210 N   0  0  0  0  0  0  0  0  0  0  0  0
   59.3250   31.1860   46.4860 C   0  0  0  0  0  0  0  0  0  0  0  0
   60.4190   31.6730   46.1020 O   0  0  0  0  0  0  0  0  0  0  0  0
   58.0230   31.8600   46.1400 C   0  0  0  0  0  0  0  0  0  0  0  0
   57.7450   31.8040   44.6590 C   0  0  0  0  0  0  0  0  0  0  0  0
   56.8780   30.8250   44.1410 C   0  0  0  0  0  0  0  0  0  0  0  0
   56.6300   30.7670   42.7650 C   0  0  0  0  0  0  0  0  0  0  0  0
   57.2410   31.6860   41.9040 C   0  0  0  0  0  0  0  0  0  0  0  0
   58.1030   32.6640   42.4120 C   0  0  0  0  0  0  0  0  0  0  0  0
   58.3570   32.7200   43.7850 C   0  0  0  0  0  0  0  0  0  0  0  0
  1  2  2  0
  2  3  1  0
  3  4  2  3
  4  5  1  0
  5  6  1  0
  6  7  1  0
  7  8  2  0
  7  9  1  0
  9 10  1  0
 10 11  1  0
  3 12  1  0
 12 13  2  0
 13 14  1  0
 14 15  2  0
 14 16  1  0
 16 17  1  0
 17 18  1  0
 18 19  1  0
 19 20  1  0
 19 21  1  0
 21 22  2  0
 21 23  1  0
 23 24  1  0
 24 25  1  0
 25 26  1  0
 26 27  1  0
 19 28  1  0
 28 29  1  0
 13 30  1  0
 30 31  1  0
 31 32  2  0
 31 33  1  0
 33 34  1  0
 34 35  2  0
 35 36  1  0
 36 37  2  0
 37 38  1  0
 38 39  2  0
 30  2  1  0
 39 34  1  0
 10  5  2  0
 29 16  1  0
 27 23  1  0
M  CHG  2   6  -1   9  -1
M  END
>  <UniqueID>  (2056) 
84

>  <SMILES>  (2056) 
C=c1c(=Cc2[n-]c(=O)[n-]c2O)cc(C(=O)N2CCC(C)(C(=O)N3CCCC3)CC2)n1C(=O)Cc1ccccc1

>  <Energy>  (2056) 
166.46070825824413

>  <Genealogy>  (2056) 
C=c1c(=Cc2[n-]c(=O)[n-]c2O)cc(C(=O)N2CCC(C)(C(=O)N3CCCC3)CC2)n1C(=O)Cc1ccccc1 (protonated)
C=c1c(=Cc2[n-]c(=O)[n-]c2O)cc(C(=O)N2CCC(C)(C(=O)N3CCCC3)CC2)n1C(=O)Cc1ccccc1 (3D coordinates assigned)
C=c1c(=Cc2[n-]c(=O)[n-]c2O)cc(C(=O)N2CCC(C)(C(=O)N3CCCC3)CC2)n1C(=O)Cc1ccccc1 (nonaromatic ring conformer: 166.46070825824413 kcal/mol)

>  <smiles>  (2056) 
C=c1c(=Cc2[nH]c(=O)[nH]c2O)cc(C(=O)N2CCC(C)(C(=O)N3CCCC3)CC2)n1C(=O)Cc1ccccc1

>  <score_type>  (2056) 
oracle

>  <origin>  (2056) 
adg

>  <m_score__min__energy>  (2056) 
-14.199999999999999

>  <m_primary>  (2056) 
energy

$$$$
8:0
     RDKit          3D

 27 30  0  0  0  0  0  0  0  0999 V2000
   59.8450   28.6500   45.1130 C   0  0  0  0  0  0  0  0  0  0  0  0
   58.5620   29.0150   44.9630 C   0  0  0  0  0  0  0  0  0  0  0  0
   57.4700   28.1820   44.7110 C   0  0  0  0  0  0  0  0  0  0  0  0
   57.4840   26.8440   44.5720 C   0  0  0  0  0  0  0  0  0  0  0  0
   57.0960   25.9060   45.6450 C   0  0  0  0  0  0  0  0  0  0  0  0
   57.8850   24.9510   46.1730 N   0  0  0  0  0  0  0  0  0  0  0  0
   57.0950   24.3680   47.1010 C   0  0  0  0  0  0  0  0  0  0  0  0
   57.4850   23.4130   47.8200 O   0  0  0  0  0  0  0  0  0  0  0  0
   55.8530   24.8900   47.1960 N   0  0  0  0  0  0  0  0  0  0  0  0
   55.8710   25.8610   46.2680 C   0  0  0  0  0  0  0  0  0  0  0  0
   54.7900   26.6900   45.9980 O   0  0  0  0  0  0  0  0  0  0  0  0
   56.3500   28.9340   44.6210 N   0  0  0  0  0  0  0  0  0  0  0  0
   56.7820   30.1940   44.8170 C   0  0  0  0  0  0  0  0  0  0  0  0
   56.0070   31.1880   44.7970 O   0  0  0  0  0  0  0  0  0  0  0  0
   58.1110   30.2880   45.0330 N   0  0  0  0  0  0  0  0  0  0  0  0
   58.8790   31.5250   45.2240 C   0  0  0  0  0  0  0  0  0  0  0  0
   58.9240   31.8960   46.6840 C   0  0  0  0  0  0  0  0  0  0  0  0
   59.1100   33.2290   47.0790 C   0  0  0  0  0  0  0  0  0  0  0  0
   59.1390   33.5680   48.4340 C   0  0  0  0  0  0  0  0  0  0  0  0
   58.9850   32.5800   49.4270 C   0  0  0  0  0  0  0  0  0  0  0  0
   59.0130   32.9310   50.8310 N   0  0  0  0  0  0  0  0  0  0  0  0
   59.9840   33.8390   51.4230 C   0  0  0  0  0  0  0  0  0  0  0  0
   59.7460   33.7800   52.9250 C   0  0  0  0  0  0  0  0  0  0  0  0
   58.3580   33.1780   53.1030 C   0  0  0  0  0  0  0  0  0  0  0  0
   58.0700   32.4190   51.8150 C   0  0  0  0  0  0  0  0  0  0  0  0
   58.8050   31.2430   49.0210 C   0  0  0  0  0  0  0  0  0  0  0  0
   58.7760   30.9070   47.6650 C   0  0  0  0  0  0  0  0  0  0  0  0
  1  2  2  0
  2  3  1  0
  3  4  2  0
  4  5  1  0
  5  6  1  0
  6  7  1  0
  7  8  2  0
  7  9  1  0
  9 10  1  0
 10 11  1  0
  3 12  1  0
 12 13  1  0
 13 14  2  0
 13 15  1  0
 15 16  1  0
 16 17  1  0
 17 18  2  0
 18 19  1  0
 19 20  2  0
 20 21  1  0
 21 22  1  0
 22 23  1  0
 23 24  1  0
 24 25  1  0
 20 26  1  0
 26 27  2  0
 15  2  1  0
 27 17  1  0
 10  5  2  0
 25 21  1  0
M  CHG  4   6  -1   9  -1  11  -1  12  -1
M  END
>  <UniqueID>  (2057) 
8

>  <SMILES>  (2057) 
C=c1/c(=C/c2[n-]c(=O)[n-]c2[O-])[n-]c(=O)n1Cc1ccc(N2CCCC2)cc1

>  <Energy>  (2057) 
111.80194632892461

>  <Genealogy>  (2057) 
C=c1c(=Cc2[n-]c(=O)[n-]c2[O-])[n-]c(=O)n1Cc1ccc(N2CCCC2)cc1 (protonated)
C=c1/c(=C/c2[n-]c(=O)[n-]c2[O-])[n-]c(=O)n1Cc1ccc(N2CCCC2)cc1 (cis-trans isomerization)
C=c1/c(=C/c2[n-]c(=O)[n-]c2[O-])[n-]c(=O)n1Cc1ccc(N2CCCC2)cc1 (3D coordinates assigned)
C=c1/c(=C/c2[n-]c(=O)[n-]c2[O-])[n-]c(=O)n1Cc1ccc(N2CCCC2)cc1 (nonaromatic ring conformer: 111.80194632892461 kcal/mol)

>  <smiles>  (2057) 
C=c1c(=Cc2[nH]c(=O)[nH]c2O)[nH]c(=O)n1Cc1ccc(N2CCCC2)cc1

>  <score_type>  (2057) 
oracle

>  <origin>  (2057) 
adg

>  <m_score__min__energy>  (2057) 
-17.469999999999999

>  <m_primary>  (2057) 
energy

$$$$
13:0
     RDKit          3D

 30 33  0  0  0  0  0  0  0  0999 V2000
   60.3370   27.3930   48.1270 C   0  0  0  0  0  0  0  0  0  0  0  0
   59.7970   28.5170   47.6270 C   0  0  0  0  0  0  0  0  0  0  0  0
   58.8640   28.5960   46.5760 C   0  0  0  0  0  0  0  0  0  0  0  0
   58.4310   27.6660   45.7010 C   0  0  0  0  0  0  0  0  0  0  0  0
   57.1990   26.8710   45.8250 C   0  0  0  0  0  0  0  0  0  0  0  0
   57.1670   25.6290   46.3360 N   0  0  0  0  0  0  0  0  0  0  0  0
   55.8470   25.3420   46.3740 C   0  0  0  0  0  0  0  0  0  0  0  0
   55.4060   24.2360   46.7840 O   0  0  0  0  0  0  0  0  0  0  0  0
   55.0370   26.3340   45.9490 N   0  0  0  0  0  0  0  0  0  0  0  0
   55.9070   27.3030   45.6200 C   0  0  0  0  0  0  0  0  0  0  0  0
   55.5270   28.5600   45.1700 O   0  0  0  0  0  0  0  0  0  0  0  0
   58.4010   29.8980   46.5660 C   0  0  0  0  0  0  0  0  0  0  0  0
   59.1020   30.5800   47.5360 C   0  0  0  0  0  0  0  0  0  0  0  0
   58.8820   32.0000   47.8650 C   0  0  0  0  0  0  0  0  0  0  0  0
   58.6860   32.3270   49.0670 O   0  0  0  0  0  0  0  0  0  0  0  0
   58.9060   33.0110   46.8390 N   0  0  0  0  0  0  0  0  0  0  0  0
   59.0890   34.4150   47.2190 C   0  0  0  0  0  0  0  0  0  0  0  0
   59.6350   35.2100   46.0290 C   0  0  0  0  0  0  0  0  0  0  0  0
   58.8280   35.0160   44.8840 O   0  0  0  0  0  0  0  0  0  0  0  0
   58.9070   33.6650   44.4710 C   0  0  0  0  0  0  0  0  0  0  0  0
   58.3030   32.7370   45.5280 C   0  0  0  0  0  0  0  0  0  0  0  0
   59.9640   29.7530   48.1770 N   0  0  0  0  0  0  0  0  0  0  0  0
   60.7550   30.1260   49.3630 C   0  0  0  0  0  0  0  0  0  0  0  0
   61.7730   31.1800   49.0080 C   0  0  0  0  0  0  0  0  0  0  0  0
   62.1530   32.1470   49.9540 C   0  0  0  0  0  0  0  0  0  0  0  0
   63.0680   33.1470   49.6130 C   0  0  0  0  0  0  0  0  0  0  0  0
   63.6150   33.1890   48.3280 C   0  0  0  0  0  0  0  0  0  0  0  0
   64.5000   34.1620   47.9970 F   0  0  0  0  0  0  0  0  0  0  0  0
   63.2470   32.2280   47.3820 C   0  0  0  0  0  0  0  0  0  0  0  0
   62.3300   31.2270   47.7180 C   0  0  0  0  0  0  0  0  0  0  0  0
  1  2  2  0
  2  3  1  0
  3  4  2  3
  4  5  1  0
  5  6  1  0
  6  7  1  0
  7  8  2  0
  7  9  1  0
  9 10  1  0
 10 11  1  0
  3 12  1  0
 12 13  2  0
 13 14  1  0
 14 15  2  0
 14 16  1  0
 16 17  1  0
 17 18  1  0
 18 19  1  0
 19 20  1  0
 20 21  1  0
 13 22  1  0
 22 23  1  0
 23 24  1  0
 24 25  2  0
 25 26  1  0
 26 27  2  0
 27 28  1  0
 27 29  1  0
 29 30  2  0
 22  2  1  0
 30 24  1  0
 10  5  2  0
 21 16  1  0
M  CHG  3   6  -1   9  -1  11  -1
M  END
>  <UniqueID>  (2058) 
13

>  <SMILES>  (2058) 
C=c1c(=Cc2[n-]c(=O)[n-]c2[O-])cc(C(=O)N2CCOCC2)n1Cc1ccc(F)cc1

>  <Energy>  (2058) 
127.03138823671057

>  <Genealogy>  (2058) 
C=c1c(=Cc2[n-]c(=O)[n-]c2[O-])cc(C(=O)N2CCOCC2)n1Cc1ccc(F)cc1 (protonated)
C=c1c(=Cc2[n-]c(=O)[n-]c2[O-])cc(C(=O)N2CCOCC2)n1Cc1ccc(F)cc1 (3D coordinates assigned)
C=c1c(=Cc2[n-]c(=O)[n-]c2[O-])cc(C(=O)N2CCOCC2)n1Cc1ccc(F)cc1 (nonaromatic ring conformer: 127.03138823671057 kcal/mol)

>  <smiles>  (2058) 
C=c1c(=Cc2[nH]c(=O)[nH]c2O)cc(C(=O)N2CCOCC2)n1Cc1ccc(F)cc1

>  <score_type>  (2058) 
oracle

>  <origin>  (2058) 
adg

>  <m_score__min__energy>  (2058) 
-16.449999999999999

>  <m_primary>  (2058) 
energy

$$$$
30:0
     RDKit          3D

 27 29  0  0  0  0  0  0  0  0999 V2000
   54.2560   29.4880   53.3140 O   0  0  0  0  0  0  0  0  0  0  0  0
   53.8800   30.5080   52.6770 C   0  0  0  0  0  0  0  0  0  0  0  0
   52.4460   30.9280   52.7430 C   0  0  0  0  0  0  0  0  0  0  0  0
   51.9180   31.1670   51.3630 C   0  0  0  0  0  0  0  0  0  0  0  0
   51.9370   30.2510   50.3790 N   0  0  0  0  0  0  0  0  0  0  0  0
   51.3070   30.8770   49.3610 C   0  0  0  0  0  0  0  0  0  0  0  0
   51.1260   30.3360   48.2400 O   0  0  0  0  0  0  0  0  0  0  0  0
   50.8800   32.1280   49.6410 N   0  0  0  0  0  0  0  0  0  0  0  0
   51.2700   32.2920   50.9150 C   0  0  0  0  0  0  0  0  0  0  0  0
   51.0320   33.4440   51.6550 O   0  0  0  0  0  0  0  0  0  0  0  0
   54.7930   31.2140   51.8210 N   0  0  0  0  0  0  0  0  0  0  0  0
   56.2130   30.9850   51.7920 C   0  0  0  0  0  0  0  0  0  0  0  0
   56.7810   29.8380   52.3700 C   0  0  0  0  0  0  0  0  0  0  0  0
   58.1660   29.6530   52.3500 C   0  0  0  0  0  0  0  0  0  0  0  0
   58.9980   30.6120   51.7660 C   0  0  0  0  0  0  0  0  0  0  0  0
   60.3390   30.4070   51.7630 F   0  0  0  0  0  0  0  0  0  0  0  0
   58.4450   31.7760   51.2050 C   0  0  0  0  0  0  0  0  0  0  0  0
   59.4780   33.0160   50.4840 S   0  0  0  0  0  0  0  0  0  0  0  0
   60.8760   32.4800   50.3550 O   0  0  0  0  0  0  0  0  0  0  0  0
   59.5260   34.2160   51.3890 O   0  0  0  0  0  0  0  0  0  0  0  0
   58.9010   33.5030   48.9080 N   0  0  0  0  0  0  0  0  0  0  0  0
   58.6130   32.3220   48.0790 C   0  0  0  0  0  0  0  0  0  0  0  0
   57.8800   32.7370   46.7870 C   0  0  0  0  0  0  0  0  0  0  0  0
   58.1330   34.2080   46.4160 C   0  0  0  0  0  0  0  0  0  0  0  0
   59.5650   34.6250   46.7600 C   0  0  0  0  0  0  0  0  0  0  0  0
   59.8900   34.3820   48.2520 C   0  0  0  0  0  0  0  0  0  0  0  0
   57.0530   31.9560   51.2270 C   0  0  0  0  0  0  0  0  0  0  0  0
  1  2  2  0
  2  3  1  0
  3  4  1  0
  4  5  1  0
  5  6  1  0
  6  7  2  0
  6  8  1  0
  8  9  1  0
  9 10  1  0
  2 11  1  0
 11 12  1  0
 12 13  2  0
 13 14  1  0
 14 15  2  0
 15 16  1  0
 15 17  1  0
 17 18  1  0
 18 19  2  0
 18 20  2  0
 18 21  1  0
 21 22  1  0
 22 23  1  0
 23 24  1  0
 24 25  1  0
 25 26  1  0
 17 27  2  0
  9  4  2  0
 27 12  1  0
 26 21  1  0
M  CHG  3   5  -1   8  -1  10  -1
M  END
>  <UniqueID>  (2059) 
29

>  <SMILES>  (2059) 
O=C(Cc1[n-]c(=O)[n-]c1[O-])Nc1ccc(F)c(S(=O)(=O)N2CCCCC2)c1

>  <Energy>  (2059) 
77.41214535518108

>  <Genealogy>  (2059) 
O=C(Cc1[n-]c(=O)[n-]c1[O-])Nc1ccc(F)c(S(=O)(=O)N2CCCCC2)c1 (protonated)
O=C(Cc1[n-]c(=O)[n-]c1[O-])Nc1ccc(F)c(S(=O)(=O)N2CCCCC2)c1 (3D coordinates assigned)
O=C(Cc1[n-]c(=O)[n-]c1[O-])Nc1ccc(F)c(S(=O)(=O)N2CCCCC2)c1 (nonaromatic ring conformer: 77.41214535518108 kcal/mol)

>  <smiles>  (2059) 
O=C(Cc1[nH]c(=O)[nH]c1O)Nc1ccc(F)c(S(=O)(=O)N2CCCCC2)c1

>  <score_type>  (2059) 
oracle

>  <origin>  (2059) 
adg

>  <m_score__min__energy>  (2059) 
-17.789999999999999

>  <m_primary>  (2059) 
energy

$$$$
31:0
     RDKit          3D

 24 26  0  0  0  0  0  0  0  0999 V2000
   58.3550   32.6730   43.9420 O   0  0  0  0  0  0  0  0  0  0  0  0
   57.5410   32.2670   44.8160 C   0  0  0  0  0  0  0  0  0  0  0  0
   57.1190   33.1860   45.9160 C   0  0  0  0  0  0  0  0  0  0  0  0
   58.2750   33.4300   46.8490 C   0  0  0  0  0  0  0  0  0  0  0  0
   58.3570   32.7250   48.0630 C   0  0  0  0  0  0  0  0  0  0  0  0
   59.4050   32.9750   48.9540 C   0  0  0  0  0  0  0  0  0  0  0  0
   60.3730   33.9340   48.6470 C   0  0  0  0  0  0  0  0  0  0  0  0
   60.2910   34.6500   47.4500 C   0  0  0  0  0  0  0  0  0  0  0  0
   59.2450   34.4060   46.5530 C   0  0  0  0  0  0  0  0  0  0  0  0
   59.1760   35.1240   45.4030 F   0  0  0  0  0  0  0  0  0  0  0  0
   57.0170   30.9350   44.7680 N   0  0  0  0  0  0  0  0  0  0  0  0
   57.7560   29.7260   44.9930 C   0  0  0  0  0  0  0  0  0  0  0  0
   59.0930   29.6710   44.5870 C   0  0  0  0  0  0  0  0  0  0  0  0
   59.8410   28.5090   44.7790 C   0  0  0  0  0  0  0  0  0  0  0  0
   59.2520   27.3830   45.3580 C   0  0  0  0  0  0  0  0  0  0  0  0
   57.8980   27.4000   45.7340 C   0  0  0  0  0  0  0  0  0  0  0  0
   57.2900   26.1860   46.3270 C   0  0  0  0  0  0  0  0  0  0  0  0
   58.0050   25.2170   46.9300 N   0  0  0  0  0  0  0  0  0  0  0  0
   57.0740   24.3150   47.3060 C   0  0  0  0  0  0  0  0  0  0  0  0
   57.3640   23.2530   47.9140 O   0  0  0  0  0  0  0  0  0  0  0  0
   55.8080   24.6400   46.9720 N   0  0  0  0  0  0  0  0  0  0  0  0
   55.9560   25.8210   46.3500 C   0  0  0  0  0  0  0  0  0  0  0  0
   54.8980   26.5300   45.7900 O   0  0  0  0  0  0  0  0  0  0  0  0
   57.1560   28.5830   45.5510 C   0  0  0  0  0  0  0  0  0  0  0  0
  1  2  2  0
  2  3  1  0
  3  4  1  0
  4  5  2  0
  5  6  1  0
  6  7  2  0
  7  8  1  0
  8  9  2  0
  9 10  1  0
  2 11  1  0
 11 12  1  0
 12 13  2  0
 13 14  1  0
 14 15  2  0
 15 16  1  0
 16 17  1  0
 17 18  1  0
 18 19  1  0
 19 20  2  0
 19 21  1  0
 21 22  1  0
 22 23  1  0
 16 24  2  0
  9  4  1  0
 24 12  1  0
 22 17  2  0
M  CHG  3  11  -1  18  -1  21  -1
M  END
>  <UniqueID>  (2060) 
30

>  <SMILES>  (2060) 
O=C(Cc1ccccc1F)[N-]c1cccc(-c2[n-]c(=O)[n-]c2O)c1

>  <Energy>  (2060) 
71.27932764316415

>  <Genealogy>  (2060) 
O=C(Cc1ccccc1F)[N-]c1cccc(-c2[n-]c(=O)[n-]c2O)c1 (protonated)
O=C(Cc1ccccc1F)[N-]c1cccc(-c2[n-]c(=O)[n-]c2O)c1 (3D coordinates assigned)
O=C(Cc1ccccc1F)[N-]c1cccc(-c2[n-]c(=O)[n-]c2O)c1 (optimized conformer: 71.27932764316415 kcal/mol)

>  <smiles>  (2060) 
O=C(Cc1ccccc1F)Nc1cccc(-c2[nH]c(=O)[nH]c2O)c1

>  <score_type>  (2060) 
oracle

>  <origin>  (2060) 
adg

>  <m_score__min__energy>  (2060) 
-14.49

>  <m_primary>  (2060) 
energy

$$$$
53:0
     RDKit          3D

 33 35  0  0  0  0  0  0  0  0999 V2000
   63.5030   33.3010   50.2260 C   0  0  0  0  0  0  0  0  0  0  0  0
   62.7590   32.4200   50.8320 N   0  0  0  0  0  0  0  0  0  0  0  0
   61.3290   32.3320   50.7770 C   0  0  0  0  0  0  0  0  0  0  0  0
   60.6800   32.3320   51.8560 O   0  0  0  0  0  0  0  0  0  0  0  0
   60.6100   32.1430   49.5000 C   0  0  0  0  0  0  0  0  0  0  0  0
   60.1710   30.9410   48.9550 C   0  0  0  0  0  0  0  0  0  0  0  0
   60.2100   29.5820   49.5880 C   0  0  0  0  0  0  0  0  0  0  0  0
   59.5360   31.2650   47.7650 C   0  0  0  0  0  0  0  0  0  0  0  0
   58.8670   30.3160   46.8610 C   0  0  0  0  0  0  0  0  0  0  0  0
   57.6960   30.5930   46.3740 N   0  0  0  0  0  0  0  0  0  0  0  0
   57.4690   30.9080   45.0170 N   0  0  0  0  0  0  0  0  0  0  0  0
   58.0620   31.9970   44.4270 C   0  0  0  0  0  0  0  0  0  0  0  0
   58.9290   32.8160   45.1420 O   0  0  0  0  0  0  0  0  0  0  0  0
   57.8300   32.2810   43.0820 C   0  0  0  0  0  0  0  0  0  0  0  0
   57.0260   31.4160   42.3470 C   0  0  0  0  0  0  0  0  0  0  0  0
   56.8070   31.6350   41.1260 O   0  0  0  0  0  0  0  0  0  0  0  0
   56.4880   30.3260   42.9460 N   0  0  0  0  0  0  0  0  0  0  0  0
   56.6960   30.0620   44.2670 C   0  0  0  0  0  0  0  0  0  0  0  0
   56.1870   28.9930   44.8130 N   0  0  0  0  0  0  0  0  0  0  0  0
   56.9210   27.8300   45.2260 C   0  0  0  0  0  0  0  0  0  0  0  0
   58.3180   27.8430   45.1230 C   0  0  0  0  0  0  0  0  0  0  0  0
   59.0680   26.7330   45.5250 C   0  0  0  0  0  0  0  0  0  0  0  0
   58.4260   25.6090   46.0500 C   0  0  0  0  0  0  0  0  0  0  0  0
   57.0340   25.6000   46.1920 C   0  0  0  0  0  0  0  0  0  0  0  0
   56.2790   26.7120   45.7990 C   0  0  0  0  0  0  0  0  0  0  0  0
   54.9040   26.7080   46.0050 O   0  0  0  0  0  0  0  0  0  0  0  0
   59.5870   32.5950   47.5540 N   0  0  0  0  0  0  0  0  0  0  0  0
   60.2480   33.1340   48.5960 C   0  0  0  0  0  0  0  0  0  0  0  0
   60.4830   34.6060   48.7450 C   0  0  0  0  0  0  0  0  0  0  0  0
   64.1980   33.0370   48.9150 C   0  0  0  0  0  0  0  0  0  0  0  0
   63.2050   32.8970   47.8290 N   0  0  0  0  0  0  0  0  0  0  0  0
   63.4010   33.9390   46.8040 C   0  0  0  0  0  0  0  0  0  0  0  0
   63.3110   31.5700   47.2070 C   0  0  0  0  0  0  0  0  0  0  0  0
  1  2  2  3
  2  3  1  0
  3  4  2  0
  3  5  1  0
  5  6  1  0
  6  7  1  0
  6  8  2  0
  8  9  1  0
  9 10  2  0
 10 11  1  0
 11 12  1  0
 12 13  1  0
 12 14  2  0
 14 15  1  0
 15 16  2  0
 15 17  1  0
 17 18  1  0
 18 19  2  3
 19 20  1  0
 20 21  2  0
 21 22  1  0
 22 23  2  0
 23 24  1  0
 24 25  2  0
 25 26  1  0
  8 27  1  0
 27 28  1  0
 28 29  1  0
  1 30  1  0
 30 31  1  0
 31 32  1  0
 31 33  1  0
 28  5  2  0
 18 11  1  0
 25 20  1  0
M  CHG  3  13  -1  17  -1  26  -1
M  END
>  <UniqueID>  (2061) 
50

>  <SMILES>  (2061) 
Cc1[nH]c(/C=N/n2c([O-])cc(=O)[n-]c2=Nc2ccccc2[O-])c(C)c1C(=O)N=CCN(C)C

>  <Energy>  (2061) 
104.42604022045964

>  <Genealogy>  (2061) 
Cc1[nH]c(C=Nn2c([O-])cc(=O)[n-]c2=Nc2ccccc2[O-])c(C)c1C(=O)N=CCN(C)C (protonated)
Cc1[nH]c(/C=N/n2c([O-])cc(=O)[n-]c2=Nc2ccccc2[O-])c(C)c1C(=O)N=CCN(C)C (cis-trans isomerization)
Cc1[nH]c(/C=N/n2c([O-])cc(=O)[n-]c2=Nc2ccccc2[O-])c(C)c1C(=O)N=CCN(C)C (3D coordinates assigned)
Cc1[nH]c(/C=N/n2c([O-])cc(=O)[n-]c2=Nc2ccccc2[O-])c(C)c1C(=O)N=CCN(C)C (optimized conformer: 104.42604022045964 kcal/mol)

>  <smiles>  (2061) 
Cc1[nH]c(C=Nn2c(O)cc(=O)[nH]c2=Nc2ccccc2O)c(C)c1C(=O)N=CCN(C)C

>  <score_type>  (2061) 
oracle

>  <origin>  (2061) 
adg

>  <m_score__min__energy>  (2061) 
-14.710000000000001

>  <m_primary>  (2061) 
energy

$$$$
58:0
     RDKit          3D

 33 36  0  0  0  0  0  0  0  0999 V2000
   58.3230   33.8900   45.9330 C   0  0  0  0  0  0  0  0  0  0  0  0
   59.4470   34.5720   46.1660 C   0  0  0  0  0  0  0  0  0  0  0  0
   60.6500   33.9300   46.8050 C   0  0  0  0  0  0  0  0  0  0  0  0
   60.9230   34.5200   48.1350 N   0  0  0  0  0  0  0  0  0  0  0  0
   59.8900   34.1360   49.1340 C   0  0  0  0  0  0  0  0  0  0  0  0
   60.3170   32.9890   50.0720 C   0  0  0  0  0  0  0  0  0  0  0  0
   61.3100   32.1320   49.4160 N   0  0  0  0  0  0  0  0  0  0  0  0
   61.1090   30.7120   49.2900 C   0  0  0  0  0  0  0  0  0  0  0  0
   61.4690   29.8450   50.3360 C   0  0  0  0  0  0  0  0  0  0  0  0
   61.2590   28.4690   50.2190 C   0  0  0  0  0  0  0  0  0  0  0  0
   60.6800   27.9420   49.0610 C   0  0  0  0  0  0  0  0  0  0  0  0
   60.4980   26.6030   48.9530 F   0  0  0  0  0  0  0  0  0  0  0  0
   60.3010   28.7970   48.0140 C   0  0  0  0  0  0  0  0  0  0  0  0
   59.7110   28.2630   46.8170 N   0  0  0  0  0  0  0  0  0  0  0  0
   60.1510   28.4780   45.5570 C   0  0  0  0  0  0  0  0  0  0  0  0
   61.3320   29.3280   45.1960 C   0  0  0  0  0  0  0  0  0  0  0  0
   59.3470   27.8220   44.6460 C   0  0  0  0  0  0  0  0  0  0  0  0
   58.3680   27.1660   45.3820 C   0  0  0  0  0  0  0  0  0  0  0  0
   57.3930   26.3800   44.8860 C   0  0  0  0  0  0  0  0  0  0  0  0
   56.8190   25.2290   45.6190 C   0  0  0  0  0  0  0  0  0  0  0  0
   55.4680   25.2400   45.9960 C   0  0  0  0  0  0  0  0  0  0  0  0
   54.6640   26.3400   45.7190 O   0  0  0  0  0  0  0  0  0  0  0  0
   54.9360   24.1730   46.6470 N   0  0  0  0  0  0  0  0  0  0  0  0
   55.6870   23.0790   46.9320 C   0  0  0  0  0  0  0  0  0  0  0  0
   55.1740   22.1060   47.5410 O   0  0  0  0  0  0  0  0  0  0  0  0
   56.9910   23.0320   46.5550 N   0  0  0  0  0  0  0  0  0  0  0  0
   57.5700   24.0720   45.8990 C   0  0  0  0  0  0  0  0  0  0  0  0
   58.7720   23.9780   45.5340 O   0  0  0  0  0  0  0  0  0  0  0  0
   58.6220   27.4590   46.7250 C   0  0  0  0  0  0  0  0  0  0  0  0
   57.8940   27.0580   47.7800 C   0  0  0  0  0  0  0  0  0  0  0  0
   60.5180   30.1780   48.1330 C   0  0  0  0  0  0  0  0  0  0  0  0
   62.5300   32.7560   48.8940 C   0  0  0  0  0  0  0  0  0  0  0  0
   62.2980   34.2520   48.6220 C   0  0  0  0  0  0  0  0  0  0  0  0
  1  2  2  0
  2  3  1  0
  3  4  1  0
  4  5  1  0
  5  6  1  0
  6  7  1  0
  7  8  1  0
  8  9  2  0
  9 10  1  0
 10 11  2  0
 11 12  1  0
 11 13  1  0
 13 14  1  0
 14 15  1  0
 15 16  1  0
 15 17  2  0
 17 18  1  0
 18 19  2  3
 19 20  1  0
 20 21  2  0
 21 22  1  0
 21 23  1  0
 23 24  1  0
 24 25  2  0
 24 26  1  0
 26 27  1  0
 27 28  2  0
 18 29  1  0
 29 30  2  0
 13 31  2  0
  7 32  1  0
 32 33  1  0
 33  4  1  0
 31  8  1  0
 29 14  1  0
 27 20  1  0
M  CHG  3  22  -1  23  -1  26  -1
M  END
>  <UniqueID>  (2062) 
55

>  <SMILES>  (2062) 
C=CCN1CCN(c2ccc(F)c(-n3c(C)cc(=Cc4c([O-])[n-]c(=O)[n-]c4=O)c3=C)c2)CC1

>  <Energy>  (2062) 
115.25379186309074

>  <Genealogy>  (2062) 
C=CCN1CCN(c2ccc(F)c(-n3c(C)cc(=Cc4c([O-])[n-]c(=O)[n-]c4=O)c3=C)c2)CC1 (protonated)
C=CCN1CCN(c2ccc(F)c(-n3c(C)cc(=Cc4c([O-])[n-]c(=O)[n-]c4=O)c3=C)c2)CC1 (3D coordinates assigned)
C=CCN1CCN(c2ccc(F)c(-n3c(C)cc(=Cc4c([O-])[n-]c(=O)[n-]c4=O)c3=C)c2)CC1 (nonaromatic ring conformer: 115.25379186309074 kcal/mol)

>  <smiles>  (2062) 
C=CCN1CCN(c2ccc(F)c(-n3c(C)cc(=Cc4c(O)[nH]c(=O)[nH]c4=O)c3=C)c2)CC1

>  <score_type>  (2062) 
oracle

>  <origin>  (2062) 
adg

>  <m_score__min__energy>  (2062) 
-16.300000000000001

>  <m_primary>  (2062) 
energy

$$$$
64:0
     RDKit          3D

 35 39  0  0  0  0  0  0  0  0999 V2000
   60.1720   28.5790   44.9220 C   0  0  0  0  0  0  0  0  0  0  0  0
   59.8770   28.8540   46.1970 C   0  0  0  0  0  0  0  0  0  0  0  0
   60.7780   29.4140   47.0290 N   0  0  0  0  0  0  0  0  0  0  0  0
   60.2450   29.3920   48.2650 C   0  0  0  0  0  0  0  0  0  0  0  0
   60.9550   29.8800   49.4920 C   0  0  0  0  0  0  0  0  0  0  0  0
   59.9720   30.4420   50.4830 C   0  0  0  0  0  0  0  0  0  0  0  0
   59.1810   29.6580   51.2370 C   0  0  0  0  0  0  0  0  0  0  0  0
   58.3560   30.3440   52.1290 O   0  0  0  0  0  0  0  0  0  0  0  0
   58.6400   31.9980   51.9660 S   0  0  0  0  0  0  0  0  0  0  0  0
   57.4230   32.7240   51.4670 O   0  0  0  0  0  0  0  0  0  0  0  0
   59.1840   32.6020   53.2300 O   0  0  0  0  0  0  0  0  0  0  0  0
   59.8450   31.8480   50.7540 N   0  0  0  0  0  0  0  0  0  0  0  0
   60.2340   32.9410   49.8640 C   0  0  0  0  0  0  0  0  0  0  0  0
   59.6790   32.7040   48.4870 C   0  0  0  0  0  0  0  0  0  0  0  0
   58.2960   32.5710   48.3030 C   0  0  0  0  0  0  0  0  0  0  0  0
   57.7730   32.3130   47.0340 C   0  0  0  0  0  0  0  0  0  0  0  0
   58.6270   32.1750   45.9250 C   0  0  0  0  0  0  0  0  0  0  0  0
   58.0730   31.8980   44.5750 C   0  0  0  0  0  0  0  0  0  0  0  0
   58.3830   32.7380   43.4870 C   0  0  0  0  0  0  0  0  0  0  0  0
   57.8600   32.4750   42.2170 C   0  0  0  0  0  0  0  0  0  0  0  0
   57.0250   31.3730   42.0180 C   0  0  0  0  0  0  0  0  0  0  0  0
   56.7090   30.5330   43.0880 C   0  0  0  0  0  0  0  0  0  0  0  0
   57.2290   30.7920   44.3610 C   0  0  0  0  0  0  0  0  0  0  0  0
   60.0160   32.2980   46.1160 C   0  0  0  0  0  0  0  0  0  0  0  0
   60.5370   32.5560   47.3870 C   0  0  0  0  0  0  0  0  0  0  0  0
   58.9810   28.8360   48.2360 C   0  0  0  0  0  0  0  0  0  0  0  0
   58.7200   28.5110   46.9150 C   0  0  0  0  0  0  0  0  0  0  0  0
   57.5530   27.9720   46.5110 C   0  0  0  0  0  0  0  0  0  0  0  0
   57.1620   26.5640   46.6670 C   0  0  0  0  0  0  0  0  0  0  0  0
   57.9600   25.6250   47.2040 N   0  0  0  0  0  0  0  0  0  0  0  0
   57.1620   24.5360   47.2680 C   0  0  0  0  0  0  0  0  0  0  0  0
   57.5620   23.4280   47.7070 O   0  0  0  0  0  0  0  0  0  0  0  0
   55.8980   24.7320   46.8330 N   0  0  0  0  0  0  0  0  0  0  0  0
   55.9090   26.0250   46.4710 C   0  0  0  0  0  0  0  0  0  0  0  0
   54.7940   26.7040   45.9960 O   0  0  0  0  0  0  0  0  0  0  0  0
  1  2  2  0
  2  3  1  0
  3  4  1  0
  4  5  1  0
  5  6  1  0
  6  7  2  0
  7  8  1  0
  8  9  1  0
  9 10  2  0
  9 11  2  0
  9 12  1  0
 12 13  1  0
 13 14  1  0
 14 15  2  0
 15 16  1  0
 16 17  2  0
 17 18  1  0
 18 19  2  0
 19 20  1  0
 20 21  2  0
 21 22  1  0
 22 23  2  0
 17 24  1  0
 24 25  2  0
  4 26  2  0
 26 27  1  0
 27 28  2  3
 28 29  1  0
 29 30  1  0
 30 31  1  0
 31 32  2  0
 31 33  1  0
 33 34  1  0
 34 35  1  0
 27  2  1  0
 34 29  2  0
 12  6  1  0
 25 14  1  0
 23 18  1  0
M  CHG  3  30  -1  33  -1  35  -1
M  END
>  <UniqueID>  (2063) 
61

>  <SMILES>  (2063) 
C=c1[nH]c(CC2=COS(=O)(=O)N2Cc2ccc(-c3ccccc3)cc2)cc1=Cc1[n-]c(=O)[n-]c1[O-]

>  <Energy>  (2063) 
148.87911107671238

>  <Genealogy>  (2063) 
C=c1[nH]c(CC2=COS(=O)(=O)N2Cc2ccc(-c3ccccc3)cc2)cc1=Cc1[n-]c(=O)[n-]c1[O-] (protonated)
C=c1[nH]c(CC2=COS(=O)(=O)N2Cc2ccc(-c3ccccc3)cc2)cc1=Cc1[n-]c(=O)[n-]c1[O-] (3D coordinates assigned)
C=c1[nH]c(CC2=COS(=O)(=O)N2Cc2ccc(-c3ccccc3)cc2)cc1=Cc1[n-]c(=O)[n-]c1[O-] (nonaromatic ring conformer: 148.87911107671238 kcal/mol)

>  <smiles>  (2063) 
C=c1[nH]c(CC2=COS(=O)(=O)N2Cc2ccc(-c3ccccc3)cc2)cc1=Cc1[nH]c(=O)[nH]c1O

>  <score_type>  (2063) 
oracle

>  <origin>  (2063) 
adg

>  <m_score__min__energy>  (2063) 
-19.07

>  <m_primary>  (2063) 
energy

$$$$
71:0
     RDKit          3D

 30 32  0  0  0  0  0  0  0  0999 V2000
   56.2950   32.2970   52.1060 C   0  0  0  0  0  0  0  0  0  0  0  0
   55.7810   31.1010   52.4240 C   0  0  0  0  0  0  0  0  0  0  0  0
   54.5520   30.5690   52.0010 C   0  0  0  0  0  0  0  0  0  0  0  0
   53.5110   31.1350   51.3640 C   0  0  0  0  0  0  0  0  0  0  0  0
   52.2940   31.6670   52.0000 C   0  0  0  0  0  0  0  0  0  0  0  0
   51.8510   31.3190   53.2220 N   0  0  0  0  0  0  0  0  0  0  0  0
   50.6460   31.9250   53.3010 C   0  0  0  0  0  0  0  0  0  0  0  0
   49.9120   31.8490   54.3210 O   0  0  0  0  0  0  0  0  0  0  0  0
   50.2810   32.6090   52.1940 N   0  0  0  0  0  0  0  0  0  0  0  0
   51.3300   32.4230   51.3770 C   0  0  0  0  0  0  0  0  0  0  0  0
   51.3970   32.9220   50.0830 O   0  0  0  0  0  0  0  0  0  0  0  0
   54.5420   29.2460   52.4090 C   0  0  0  0  0  0  0  0  0  0  0  0
   55.7040   29.0390   53.1230 C   0  0  0  0  0  0  0  0  0  0  0  0
   56.0950   27.7220   53.7250 C   0  0  0  0  0  0  0  0  0  0  0  0
   56.4570   30.1590   53.1300 N   0  0  0  0  0  0  0  0  0  0  0  0
   57.7350   30.2970   53.7750 C   0  0  0  0  0  0  0  0  0  0  0  0
   57.7700   30.5670   55.0090 O   0  0  0  0  0  0  0  0  0  0  0  0
   58.9560   29.9930   53.0560 N   0  0  0  0  0  0  0  0  0  0  0  0
   59.9300   31.1150   53.1900 C   0  0  0  0  0  0  0  0  0  0  0  0
   60.6360   31.4790   51.8790 C   0  0  0  0  0  0  0  0  0  0  0  0
   59.6370   31.6930   50.8380 N   0  0  0  0  0  0  0  0  0  0  0  0
   59.6020   32.9170   50.1010 C   0  0  0  0  0  0  0  0  0  0  0  0
   59.2780   33.9850   50.6910 O   0  0  0  0  0  0  0  0  0  0  0  0
   59.9000   32.9300   48.6960 N   0  0  0  0  0  0  0  0  0  0  0  0
   59.2950   33.9480   47.8310 C   0  0  0  0  0  0  0  0  0  0  0  0
   58.0500   33.3890   47.1480 C   0  0  0  0  0  0  0  0  0  0  0  0
   60.8720   31.9780   48.1370 C   0  0  0  0  0  0  0  0  0  0  0  0
   62.1350   32.7130   47.6890 C   0  0  0  0  0  0  0  0  0  0  0  0
   58.5280   30.7500   50.6830 C   0  0  0  0  0  0  0  0  0  0  0  0
   58.6690   29.5700   51.6580 C   0  0  0  0  0  0  0  0  0  0  0  0
  1  2  2  0
  2  3  1  0
  3  4  2  3
  4  5  1  0
  5  6  1  0
  6  7  1  0
  7  8  2  0
  7  9  1  0
  9 10  1  0
 10 11  1  0
  3 12  1  0
 12 13  2  0
 13 14  1  0
 13 15  1  0
 15 16  1  0
 16 17  2  0
 16 18  1  0
 18 19  1  0
 19 20  1  0
 20 21  1  0
 21 22  1  0
 22 23  2  0
 22 24  1  0
 24 25  1  0
 25 26  1  0
 24 27  1  0
 27 28  1  0
 21 29  1  0
 29 30  1  0
 15  2  1  0
 30 18  1  0
 10  5  2  0
M  CHG  4   6  -1   9  -1  11  -1  18   1
M  END
>  <UniqueID>  (2064) 
68

>  <SMILES>  (2064) 
C=c1c(=Cc2[n-]c(=O)[n-]c2[O-])cc(C)n1C(=O)[NH+]1CCN(C(=O)N(CC)CC)CC1

>  <Energy>  (2064) 
139.77739344251424

>  <Genealogy>  (2064) 
C=c1c(=Cc2[n-]c(=O)[n-]c2[O-])cc(C)n1C(=O)[NH+]1CCN(C(=O)N(CC)CC)CC1 (protonated)
C=c1c(=Cc2[n-]c(=O)[n-]c2[O-])cc(C)n1C(=O)[NH+]1CCN(C(=O)N(CC)CC)CC1 (3D coordinates assigned)
C=c1c(=Cc2[n-]c(=O)[n-]c2[O-])cc(C)n1C(=O)[NH+]1CCN(C(=O)N(CC)CC)CC1 (nonaromatic ring conformer: 139.77739344251424 kcal/mol)

>  <smiles>  (2064) 
C=c1c(=Cc2[nH]c(=O)[nH]c2O)cc(C)n1C(=O)N1CCN(C(=O)N(CC)CC)CC1

>  <score_type>  (2064) 
oracle

>  <origin>  (2064) 
adg

>  <m_score__min__energy>  (2064) 
-14.67

>  <m_primary>  (2064) 
energy

$$$$
77:0
     RDKit          3D

 24 26  0  0  0  0  0  0  0  0999 V2000
   59.5950   33.4060   49.0830 C   0  0  0  0  0  0  0  0  0  0  0  0
   59.0060   33.6080   47.8880 C   0  0  0  0  0  0  0  0  0  0  0  0
   58.1740   32.5000   47.3040 C   0  0  0  0  0  0  0  0  0  0  0  0
   59.2160   34.8730   47.0910 C   0  0  0  0  0  0  0  0  0  0  0  0
   59.3770   32.2170   49.9310 C   0  0  0  0  0  0  0  0  0  0  0  0
   60.3880   31.2520   50.0270 C   0  0  0  0  0  0  0  0  0  0  0  0
   60.1950   30.1070   50.8030 C   0  0  0  0  0  0  0  0  0  0  0  0
   58.9860   29.9070   51.4730 C   0  0  0  0  0  0  0  0  0  0  0  0
   57.9470   30.8480   51.3640 C   0  0  0  0  0  0  0  0  0  0  0  0
   56.6540   30.6310   52.0610 C   0  0  0  0  0  0  0  0  0  0  0  0
   56.4550   29.7960   53.1480 C   0  0  0  0  0  0  0  0  0  0  0  0
   55.1120   29.8760   53.4600 C   0  0  0  0  0  0  0  0  0  0  0  0
   54.5210   29.2080   54.4550 C   0  0  0  0  0  0  0  0  0  0  0  0
   54.5390   30.7720   52.5580 C   0  0  0  0  0  0  0  0  0  0  0  0
   53.2380   31.1180   52.4950 C   0  0  0  0  0  0  0  0  0  0  0  0
   52.4450   31.1120   51.2520 C   0  0  0  0  0  0  0  0  0  0  0  0
   51.4450   31.9890   50.8790 C   0  0  0  0  0  0  0  0  0  0  0  0
   51.0190   33.0970   51.6000 O   0  0  0  0  0  0  0  0  0  0  0  0
   50.8850   31.5970   49.7180 N   0  0  0  0  0  0  0  0  0  0  0  0
   51.5580   30.4630   49.4280 C   0  0  0  0  0  0  0  0  0  0  0  0
   51.3240   29.7720   48.4020 O   0  0  0  0  0  0  0  0  0  0  0  0
   52.4940   30.1310   50.3390 N   0  0  0  0  0  0  0  0  0  0  0  0
   55.4900   31.2170   51.7060 N   0  0  0  0  0  0  0  0  0  0  0  0
   58.1500   31.9980   50.5780 C   0  0  0  0  0  0  0  0  0  0  0  0
  1  2  2  3
  2  3  1  0
  2  4  1  0
  1  5  1  0
  5  6  2  0
  6  7  1  0
  7  8  2  0
  8  9  1  0
  9 10  1  0
 10 11  2  0
 11 12  1  0
 12 13  2  0
 12 14  1  0
 14 15  2  0
 15 16  1  0
 16 17  2  0
 17 18  1  0
 17 19  1  0
 19 20  1  0
 20 21  2  0
 20 22  1  0
 14 23  1  0
  9 24  2  0
 24  5  1  0
 23 10  1  0
 22 16  1  0
M  CHG  2  18  -1  19  -1
M  END
>  <UniqueID>  (2065) 
73

>  <SMILES>  (2065) 
C=c1cc(-c2cccc(C=C(C)C)c2)[nH]/c1=C\c1[nH]c(=O)[n-]c1[O-]

>  <Energy>  (2065) 
113.1860622660111

>  <Genealogy>  (2065) 
C=c1cc(-c2cccc(C=C(C)C)c2)[nH]c1=Cc1[nH]c(=O)[n-]c1[O-] (protonated)
C=c1cc(-c2cccc(C=C(C)C)c2)[nH]/c1=C\c1[nH]c(=O)[n-]c1[O-] (cis-trans isomerization)
C=c1cc(-c2cccc(C=C(C)C)c2)[nH]/c1=C\c1[nH]c(=O)[n-]c1[O-] (3D coordinates assigned)
C=c1cc(-c2cccc(C=C(C)C)c2)[nH]/c1=C\c1[nH]c(=O)[n-]c1[O-] (optimized conformer: 113.1860622660111 kcal/mol)

>  <smiles>  (2065) 
C=c1cc(-c2cccc(C=C(C)C)c2)[nH]c1=Cc1[nH]c(=O)[nH]c1O

>  <score_type>  (2065) 
oracle

>  <origin>  (2065) 
adg

>  <m_score__min__energy>  (2065) 
-15.35

>  <m_primary>  (2065) 
energy

$$$$
82:0
     RDKit          3D

 25 27  0  0  0  0  0  0  0  0999 V2000
   56.2540   30.3810   42.8820 O   0  0  0  0  0  0  0  0  0  0  0  0
   56.5700   30.2130   44.0920 C   0  0  0  0  0  0  0  0  0  0  0  0
   56.1220   29.0400   44.7890 N   0  0  0  0  0  0  0  0  0  0  0  0
   56.8280   28.0850   45.3320 C   0  0  0  0  0  0  0  0  0  0  0  0
   58.1840   28.1750   45.2410 N   0  0  0  0  0  0  0  0  0  0  0  0
   59.0180   27.2460   45.7770 C   0  0  0  0  0  0  0  0  0  0  0  0
   58.4950   26.1440   46.4490 C   0  0  0  0  0  0  0  0  0  0  0  0
   57.1120   25.9970   46.5410 C   0  0  0  0  0  0  0  0  0  0  0  0
   56.2630   26.9490   45.9700 C   0  0  0  0  0  0  0  0  0  0  0  0
   54.8940   26.7160   46.0060 O   0  0  0  0  0  0  0  0  0  0  0  0
   57.2980   31.2790   44.8220 C   0  0  0  0  0  0  0  0  0  0  0  0
   57.4470   32.5540   44.2570 C   0  0  0  0  0  0  0  0  0  0  0  0
   58.1290   33.5570   44.9470 C   0  0  0  0  0  0  0  0  0  0  0  0
   58.6760   33.3100   46.2100 C   0  0  0  0  0  0  0  0  0  0  0  0
   59.6010   34.7670   47.0510 Br  0  0  0  0  0  0  0  0  0  0  0  0
   58.5380   32.0290   46.7960 C   0  0  0  0  0  0  0  0  0  0  0  0
   59.1970   31.6260   48.3970 S   0  0  0  0  0  0  0  0  0  0  0  0
   58.6700   32.5750   49.4350 O   0  0  0  0  0  0  0  0  0  0  0  0
   58.7250   30.2480   48.7750 O   0  0  0  0  0  0  0  0  0  0  0  0
   60.9440   31.6450   48.4410 N   0  0  0  0  0  0  0  0  0  0  0  0
   61.4730   32.7810   49.1890 C   0  0  0  0  0  0  0  0  0  0  0  0
   62.8880   32.9950   48.6800 C   0  0  0  0  0  0  0  0  0  0  0  0
   62.8980   32.3960   47.2800 C   0  0  0  0  0  0  0  0  0  0  0  0
   61.5250   31.7590   47.1030 C   0  0  0  0  0  0  0  0  0  0  0  0
   57.8440   31.0300   46.0930 C   0  0  0  0  0  0  0  0  0  0  0  0
  1  2  2  0
  2  3  1  0
  3  4  2  3
  4  5  1  0
  5  6  1  0
  6  7  2  0
  7  8  1  0
  8  9  2  0
  9 10  1  0
  2 11  1  0
 11 12  2  0
 12 13  1  0
 13 14  2  0
 14 15  1  0
 14 16  1  0
 16 17  1  0
 17 18  2  0
 17 19  2  0
 17 20  1  0
 20 21  1  0
 21 22  1  0
 22 23  1  0
 23 24  1  0
 16 25  2  0
  9  4  1  0
 25 11  1  0
 24 20  1  0
M  CHG  2   5  -1  10  -1
M  END
>  <UniqueID>  (2066) 
78

>  <SMILES>  (2066) 
O=C(N=c1[n-]cccc1[O-])c1ccc(Br)c(S(=O)(=O)N2CCCC2)c1

>  <Energy>  (2066) 
58.43132810464843

>  <Genealogy>  (2066) 
O=C(N=c1[n-]cccc1[O-])c1ccc(Br)c(S(=O)(=O)N2CCCC2)c1 (protonated)
O=C(N=c1[n-]cccc1[O-])c1ccc(Br)c(S(=O)(=O)N2CCCC2)c1 (3D coordinates assigned)
O=C(N=c1[n-]cccc1[O-])c1ccc(Br)c(S(=O)(=O)N2CCCC2)c1 (nonaromatic ring conformer: 58.43132810464843 kcal/mol)

>  <smiles>  (2066) 
O=C(N=c1[nH]cccc1O)c1ccc(Br)c(S(=O)(=O)N2CCCC2)c1

>  <score_type>  (2066) 
oracle

>  <origin>  (2066) 
adg

>  <m_score__min__energy>  (2066) 
-14.529999999999999

>  <m_primary>  (2066) 
energy

$$$$
84:0
     RDKit          3D

 32 35  0  0  0  0  0  0  0  0999 V2000
   56.4470   29.4640   44.3330 C   0  0  0  0  0  0  0  0  0  0  0  0
   57.6410   29.0110   44.7430 C   0  0  0  0  0  0  0  0  0  0  0  0
   58.0980   27.6830   44.7190 C   0  0  0  0  0  0  0  0  0  0  0  0
   57.4380   26.5250   44.5190 C   0  0  0  0  0  0  0  0  0  0  0  0
   56.9450   25.6290   45.5780 C   0  0  0  0  0  0  0  0  0  0  0  0
   57.5600   24.5000   45.9780 N   0  0  0  0  0  0  0  0  0  0  0  0
   56.6870   23.9640   46.8570 C   0  0  0  0  0  0  0  0  0  0  0  0
   56.9180   22.8910   47.4710 O   0  0  0  0  0  0  0  0  0  0  0  0
   55.5440   24.6660   47.0200 N   0  0  0  0  0  0  0  0  0  0  0  0
   55.7190   25.7070   46.1920 C   0  0  0  0  0  0  0  0  0  0  0  0
   54.7760   26.7080   45.9990 O   0  0  0  0  0  0  0  0  0  0  0  0
   59.4570   27.7360   44.9840 C   0  0  0  0  0  0  0  0  0  0  0  0
   59.7640   29.0560   45.2380 C   0  0  0  0  0  0  0  0  0  0  0  0
   61.1270   29.5560   45.6110 C   0  0  0  0  0  0  0  0  0  0  0  0
   58.6670   29.8300   45.0890 N   0  0  0  0  0  0  0  0  0  0  0  0
   58.6130   31.2590   45.2590 C   0  0  0  0  0  0  0  0  0  0  0  0
   59.1640   31.8440   46.4080 C   0  0  0  0  0  0  0  0  0  0  0  0
   59.1000   33.2330   46.6030 C   0  0  0  0  0  0  0  0  0  0  0  0
   59.6780   33.8350   47.8250 C   0  0  0  0  0  0  0  0  0  0  0  0
   59.3710   35.0200   48.1240 O   0  0  0  0  0  0  0  0  0  0  0  0
   60.6050   33.1080   48.6570 N   0  0  0  0  0  0  0  0  0  0  0  0
   60.7350   33.4400   50.0830 C   0  0  0  0  0  0  0  0  0  0  0  0
   62.1180   34.0480   50.3770 C   0  0  0  0  0  0  0  0  0  0  0  0
   63.2340   33.5010   49.4470 C   0  0  0  0  0  0  0  0  0  0  0  0
   64.6070   33.5010   50.1420 C   0  0  0  0  0  0  0  0  0  0  0  0
   65.5450   32.7420   49.4240 O   0  0  0  0  0  0  0  0  0  0  0  0
   62.8750   32.1120   48.8860 C   0  0  0  0  0  0  0  0  0  0  0  0
   61.5890   32.1970   48.0480 C   0  0  0  0  0  0  0  0  0  0  0  0
   58.5090   34.0370   45.6150 C   0  0  0  0  0  0  0  0  0  0  0  0
   57.9570   33.4560   44.4700 C   0  0  0  0  0  0  0  0  0  0  0  0
   58.0000   32.0710   44.2930 C   0  0  0  0  0  0  0  0  0  0  0  0
   57.4270   31.5200   43.1940 F   0  0  0  0  0  0  0  0  0  0  0  0
  1  2  2  0
  2  3  1  0
  3  4  2  3
  4  5  1  0
  5  6  1  0
  6  7  1  0
  7  8  2  0
  7  9  1  0
  9 10  1  0
 10 11  1  0
  3 12  1  0
 12 13  2  0
 13 14  1  0
 13 15  1  0
 15 16  1  0
 16 17  2  0
 17 18  1  0
 18 19  1  0
 19 20  2  0
 19 21  1  0
 21 22  1  0
 22 23  1  0
 23 24  1  0
 24 25  1  0
 25 26  1  0
 24 27  1  0
 27 28  1  0
 18 29  2  0
 29 30  1  0
 30 31  2  0
 31 32  1  0
 15  2  1  0
 31 16  1  0
 10  5  2  0
 28 21  1  0
M  CHG  3   6  -1   9  -1  11  -1
M  END
>  <UniqueID>  (2067) 
80

>  <SMILES>  (2067) 
C=c1c(=Cc2[n-]c(=O)[n-]c2[O-])cc(C)n1-c1cc(C(=O)N2CCC(CO)CC2)ccc1F

>  <Energy>  (2067) 
138.6155452253384

>  <Genealogy>  (2067) 
C=c1c(=Cc2[n-]c(=O)[n-]c2[O-])cc(C)n1-c1cc(C(=O)N2CCC(CO)CC2)ccc1F (protonated)
C=c1c(=Cc2[n-]c(=O)[n-]c2[O-])cc(C)n1-c1cc(C(=O)N2CCC(CO)CC2)ccc1F (3D coordinates assigned)
C=c1c(=Cc2[n-]c(=O)[n-]c2[O-])cc(C)n1-c1cc(C(=O)N2CCC(CO)CC2)ccc1F (nonaromatic ring conformer: 138.6155452253384 kcal/mol)

>  <smiles>  (2067) 
C=c1c(=Cc2[nH]c(=O)[nH]c2O)cc(C)n1-c1cc(C(=O)N2CCC(CO)CC2)ccc1F

>  <score_type>  (2067) 
oracle

>  <origin>  (2067) 
adg

>  <m_score__min__energy>  (2067) 
-17.18

>  <m_primary>  (2067) 
energy

$$$$
4:0
     RDKit          3D

 28 30  0  0  0  0  0  0  0  0999 V2000
   55.1340   23.1030   48.1750 C   0  0  0  0  0  0  0  0  0  0  0  0
   55.1320   23.9210   47.0090 O   0  0  0  0  0  0  0  0  0  0  0  0
   56.1230   24.8680   46.7030 C   0  0  0  0  0  0  0  0  0  0  0  0
   57.4890   24.6300   46.9450 C   0  0  0  0  0  0  0  0  0  0  0  0
   58.4380   25.6080   46.6410 C   0  0  0  0  0  0  0  0  0  0  0  0
   58.0390   26.8240   46.0820 C   0  0  0  0  0  0  0  0  0  0  0  0
   56.6830   27.0650   45.8040 C   0  0  0  0  0  0  0  0  0  0  0  0
   56.2360   28.3140   45.2530 N   0  0  0  0  0  0  0  0  0  0  0  0
   57.0600   29.4290   44.8960 C   0  0  0  0  0  0  0  0  0  0  0  0
   58.1750   29.2150   44.3510 O   0  0  0  0  0  0  0  0  0  0  0  0
   56.6540   30.7680   45.2020 N   0  0  0  0  0  0  0  0  0  0  0  0
   57.2840   31.9550   44.6330 C   0  0  0  0  0  0  0  0  0  0  0  0
   58.4480   32.3850   45.4840 C   0  0  0  0  0  0  0  0  0  0  0  0
   59.2860   31.4310   46.0800 C   0  0  0  0  0  0  0  0  0  0  0  0
   60.3410   31.8360   46.9000 C   0  0  0  0  0  0  0  0  0  0  0  0
   60.5780   33.2000   47.1390 C   0  0  0  0  0  0  0  0  0  0  0  0
   61.6520   33.6080   48.0070 N   0  0  0  0  0  0  0  0  0  0  0  0
   61.4700   34.2880   49.2920 C   0  0  0  0  0  0  0  0  0  0  0  0
   62.8190   34.1570   50.0430 C   0  0  0  0  0  0  0  0  0  0  0  0
   63.7030   33.4320   49.1390 N   0  0  0  0  0  0  0  0  0  0  0  0
   65.0850   33.0610   49.4150 C   0  0  0  0  0  0  0  0  0  0  0  0
   62.9820   33.1240   47.9680 C   0  0  0  0  0  0  0  0  0  0  0  0
   63.4780   32.5080   46.9860 O   0  0  0  0  0  0  0  0  0  0  0  0
   59.7360   34.1560   46.5390 C   0  0  0  0  0  0  0  0  0  0  0  0
   59.9540   35.5150   46.7320 O   0  0  0  0  0  0  0  0  0  0  0  0
   58.6760   33.7460   45.7240 C   0  0  0  0  0  0  0  0  0  0  0  0
   55.7290   26.0900   46.1380 C   0  0  0  0  0  0  0  0  0  0  0  0
   54.3790   26.3340   45.9030 O   0  0  0  0  0  0  0  0  0  0  0  0
  1  2  1  0
  2  3  1  0
  3  4  2  0
  4  5  1  0
  5  6  2  0
  6  7  1  0
  7  8  1  0
  8  9  1  0
  9 10  2  0
  9 11  1  0
 11 12  1  0
 12 13  1  0
 13 14  2  0
 14 15  1  0
 15 16  2  0
 16 17  1  0
 17 18  1  0
 18 19  1  0
 19 20  1  0
 20 21  1  0
 20 22  1  0
 22 23  2  0
 16 24  1  0
 24 25  1  0
 24 26  2  0
  7 27  2  0
 27 28  1  0
 27  3  1  0
 26 13  1  0
 22 17  1  0
M  CHG  4   8  -1  11  -1  25  -1  28  -1
M  END
>  <UniqueID>  (2068) 
4

>  <SMILES>  (2068) 
COc1cccc([N-]C(=O)[N-]Cc2ccc(N3CCN(C)C3=O)c([O-])c2)c1[O-]

>  <Energy>  (2068) 
65.21850162012093

>  <Genealogy>  (2068) 
COc1cccc([N-]C(=O)[N-]Cc2ccc(N3CCN(C)C3=O)c([O-])c2)c1[O-] (protonated)
COc1cccc([N-]C(=O)[N-]Cc2ccc(N3CCN(C)C3=O)c([O-])c2)c1[O-] (3D coordinates assigned)
COc1cccc([N-]C(=O)[N-]Cc2ccc(N3CCN(C)C3=O)c([O-])c2)c1[O-] (nonaromatic ring conformer: 65.21850162012093 kcal/mol)

>  <smiles>  (2068) 
COc1cccc(NC(=O)NCc2ccc(N3CCN(C)C3=O)c(O)c2)c1O

>  <score_type>  (2068) 
oracle

>  <origin>  (2068) 
adg

>  <m_score__min__energy>  (2068) 
-16.780000000000001

>  <m_primary>  (2068) 
energy

$$$$
9:0
     RDKit          3D

 30 33  0  0  0  0  0  0  0  0999 V2000
   59.5650   29.5720   44.7800 C   0  0  0  0  0  0  0  0  0  0  0  0
   59.4760   29.1890   46.0640 C   0  0  0  0  0  0  0  0  0  0  0  0
   58.6880   28.1430   46.5650 C   0  0  0  0  0  0  0  0  0  0  0  0
   57.8880   27.3190   45.8570 C   0  0  0  0  0  0  0  0  0  0  0  0
   57.2500   26.0910   46.3820 C   0  0  0  0  0  0  0  0  0  0  0  0
   57.8920   25.0540   46.9500 N   0  0  0  0  0  0  0  0  0  0  0  0
   56.8890   24.2290   47.3240 C   0  0  0  0  0  0  0  0  0  0  0  0
   57.0970   23.1270   47.8950 O   0  0  0  0  0  0  0  0  0  0  0  0
   55.6500   24.6800   47.0400 N   0  0  0  0  0  0  0  0  0  0  0  0
   55.8960   25.8620   46.4510 C   0  0  0  0  0  0  0  0  0  0  0  0
   54.9020   26.7140   45.9870 O   0  0  0  0  0  0  0  0  0  0  0  0
   58.9240   28.1050   47.9340 C   0  0  0  0  0  0  0  0  0  0  0  0
   59.8290   29.1080   48.2070 C   0  0  0  0  0  0  0  0  0  0  0  0
   60.3620   29.3990   49.5530 C   0  0  0  0  0  0  0  0  0  0  0  0
   61.5510   29.0510   49.7900 O   0  0  0  0  0  0  0  0  0  0  0  0
   59.6130   30.1180   50.5760 N   0  0  0  0  0  0  0  0  0  0  0  0
   58.5370   30.9240   49.9300 C   0  0  0  0  0  0  0  0  0  0  0  0
   58.1660   32.1680   50.7470 C   0  0  0  0  0  0  0  0  0  0  0  0
   59.3240   33.0820   50.8650 N   0  0  0  0  0  0  0  0  0  0  0  0
   59.1070   34.0430   51.9570 C   0  0  0  0  0  0  0  0  0  0  0  0
   60.6220   32.3760   51.0120 C   0  0  0  0  0  0  0  0  0  0  0  0
   60.4470   30.9310   51.5090 C   0  0  0  0  0  0  0  0  0  0  0  0
   60.1550   29.7810   47.0810 N   0  0  0  0  0  0  0  0  0  0  0  0
   61.0690   30.9310   46.9930 C   0  0  0  0  0  0  0  0  0  0  0  0
   60.3080   32.2330   47.0450 C   0  0  0  0  0  0  0  0  0  0  0  0
   60.9170   33.3900   47.5590 C   0  0  0  0  0  0  0  0  0  0  0  0
   60.2040   34.5920   47.6290 C   0  0  0  0  0  0  0  0  0  0  0  0
   58.8760   34.6440   47.1950 C   0  0  0  0  0  0  0  0  0  0  0  0
   58.2590   33.4960   46.6920 C   0  0  0  0  0  0  0  0  0  0  0  0
   58.9700   32.2930   46.6200 C   0  0  0  0  0  0  0  0  0  0  0  0
  1  2  2  0
  2  3  1  0
  3  4  2  0
  4  5  1  0
  5  6  1  0
  6  7  1  0
  7  8  2  0
  7  9  1  0
  9 10  1  0
 10 11  1  0
  3 12  1  0
 12 13  2  0
 13 14  1  0
 14 15  2  0
 14 16  1  0
 16 17  1  0
 17 18  1  0
 18 19  1  0
 19 20  1  0
 19 21  1  0
 21 22  1  0
 13 23  1  0
 23 24  1  0
 24 25  1  0
 25 26  2  0
 26 27  1  0
 27 28  2  0
 28 29  1  0
 29 30  2  0
 23  2  1  0
 30 25  1  0
 10  5  2  0
 22 16  1  0
M  CHG  4   6  -1   9  -1  11  -1  16   1
M  END
>  <UniqueID>  (2069) 
8

>  <SMILES>  (2069) 
C=c1/c(=C/c2[n-]c(=O)[n-]c2[O-])cc(C(=O)[NH+]2CCN(C)CC2)n1Cc1ccccc1

>  <Energy>  (2069) 
143.04401390137974

>  <Genealogy>  (2069) 
C=c1c(=Cc2[n-]c(=O)[n-]c2[O-])cc(C(=O)[NH+]2CCN(C)CC2)n1Cc1ccccc1 (protonated)
C=c1/c(=C/c2[n-]c(=O)[n-]c2[O-])cc(C(=O)[NH+]2CCN(C)CC2)n1Cc1ccccc1 (cis-trans isomerization)
C=c1/c(=C/c2[n-]c(=O)[n-]c2[O-])cc(C(=O)[NH+]2CCN(C)CC2)n1Cc1ccccc1 (3D coordinates assigned)
C=c1/c(=C/c2[n-]c(=O)[n-]c2[O-])cc(C(=O)[NH+]2CCN(C)CC2)n1Cc1ccccc1 (nonaromatic ring conformer: 143.04401390137974 kcal/mol)

>  <smiles>  (2069) 
C=c1c(=Cc2[nH]c(=O)[nH]c2O)cc(C(=O)N2CCN(C)CC2)n1Cc1ccccc1

>  <score_type>  (2069) 
oracle

>  <origin>  (2069) 
adg

>  <m_score__min__energy>  (2069) 
-15.369999999999999

>  <m_primary>  (2069) 
energy

$$$$
16:0
     RDKit          3D

 27 30  0  0  0  0  0  0  0  0999 V2000
   55.3690   31.0700   52.0420 C   0  0  0  0  0  0  0  0  0  0  0  0
   54.7770   30.0920   52.7470 C   0  0  0  0  0  0  0  0  0  0  0  0
   53.4530   30.0750   53.2200 C   0  0  0  0  0  0  0  0  0  0  0  0
   52.4090   30.8850   52.9570 C   0  0  0  0  0  0  0  0  0  0  0  0
   51.7680   31.0650   51.6450 C   0  0  0  0  0  0  0  0  0  0  0  0
   51.9810   30.2540   50.5960 N   0  0  0  0  0  0  0  0  0  0  0  0
   51.3080   30.8580   49.5920 C   0  0  0  0  0  0  0  0  0  0  0  0
   51.2550   30.3820   48.4290 O   0  0  0  0  0  0  0  0  0  0  0  0
   50.7040   32.0170   49.9300 N   0  0  0  0  0  0  0  0  0  0  0  0
   51.0180   32.1430   51.2290 C   0  0  0  0  0  0  0  0  0  0  0  0
   50.6510   33.2320   52.0100 O   0  0  0  0  0  0  0  0  0  0  0  0
   53.3610   28.9920   54.0740 C   0  0  0  0  0  0  0  0  0  0  0  0
   54.5850   28.3590   54.0540 C   0  0  0  0  0  0  0  0  0  0  0  0
   54.9070   27.1110   54.8180 C   0  0  0  0  0  0  0  0  0  0  0  0
   55.4410   29.0090   53.2320 N   0  0  0  0  0  0  0  0  0  0  0  0
   56.8530   28.6550   53.0190 C   0  0  0  0  0  0  0  0  0  0  0  0
   57.7530   29.8650   53.2820 C   0  0  0  0  0  0  0  0  0  0  0  0
   58.2540   30.4340   51.9950 C   0  0  0  0  0  0  0  0  0  0  0  0
   58.2600   29.7500   50.8310 N   0  0  0  0  0  0  0  0  0  0  0  0
   58.8290   30.4650   49.8220 C   0  0  0  0  0  0  0  0  0  0  0  0
   58.9420   29.9240   48.4590 C   0  0  0  0  0  0  0  0  0  0  0  0
   59.1340   30.8250   47.0490 S   0  0  0  0  0  0  0  0  0  0  0  0
   59.1760   29.5160   45.9940 C   0  0  0  0  0  0  0  0  0  0  0  0
   59.0400   28.3530   46.7390 C   0  0  0  0  0  0  0  0  0  0  0  0
   58.9100   28.5770   48.1160 C   0  0  0  0  0  0  0  0  0  0  0  0
   59.2950   31.7290   50.1890 C   0  0  0  0  0  0  0  0  0  0  0  0
   58.9810   31.9390   51.8270 S   0  0  0  0  0  0  0  0  0  0  0  0
  1  2  2  0
  2  3  1  0
  3  4  2  0
  4  5  1  0
  5  6  1  0
  6  7  1  0
  7  8  2  0
  7  9  1  0
  9 10  1  0
 10 11  1  0
  3 12  1  0
 12 13  2  0
 13 14  1  0
 13 15  1  0
 15 16  1  0
 16 17  1  0
 17 18  1  0
 18 19  2  0
 19 20  1  0
 20 21  1  0
 21 22  1  0
 22 23  1  0
 23 24  2  0
 24 25  1  0
 20 26  2  0
 26 27  1  0
 15  2  1  0
 27 18  1  0
 10  5  2  0
 25 21  2  0
M  CHG  3   6  -1   9  -1  11  -1
M  END
>  <UniqueID>  (2070) 
14

>  <SMILES>  (2070) 
C=c1/c(=C\c2[n-]c(=O)[n-]c2[O-])cc(C)n1CCc1nc(-c2cccs2)cs1

>  <Energy>  (2070) 
166.32529358805644

>  <Genealogy>  (2070) 
C=c1c(=Cc2[n-]c(=O)[n-]c2[O-])cc(C)n1CCc1nc(-c2cccs2)cs1 (protonated)
C=c1/c(=C\c2[n-]c(=O)[n-]c2[O-])cc(C)n1CCc1nc(-c2cccs2)cs1 (cis-trans isomerization)
C=c1/c(=C\c2[n-]c(=O)[n-]c2[O-])cc(C)n1CCc1nc(-c2cccs2)cs1 (3D coordinates assigned)
C=c1/c(=C\c2[n-]c(=O)[n-]c2[O-])cc(C)n1CCc1nc(-c2cccs2)cs1 (optimized conformer: 166.32529358805644 kcal/mol)

>  <smiles>  (2070) 
C=c1c(=Cc2[nH]c(=O)[nH]c2O)cc(C)n1CCc1nc(-c2cccs2)cs1

>  <score_type>  (2070) 
oracle

>  <origin>  (2070) 
adg

>  <m_score__min__energy>  (2070) 
-17.039999999999999

>  <m_primary>  (2070) 
energy

$$$$
20:0
     RDKit          3D

 26 28  0  0  0  0  0  0  0  0999 V2000
   55.7980   30.2970   44.7700 O   0  0  0  0  0  0  0  0  0  0  0  0
   57.0400   30.1180   44.9000 C   0  0  0  0  0  0  0  0  0  0  0  0
   57.5670   28.8300   45.3940 C   0  0  0  0  0  0  0  0  0  0  0  0
   57.2640   27.6200   44.8980 C   0  0  0  0  0  0  0  0  0  0  0  0
   57.1790   26.3740   45.6910 C   0  0  0  0  0  0  0  0  0  0  0  0
   55.9580   25.9210   46.2190 C   0  0  0  0  0  0  0  0  0  0  0  0
   54.7820   26.6330   45.9950 O   0  0  0  0  0  0  0  0  0  0  0  0
   55.9200   24.7860   46.9690 N   0  0  0  0  0  0  0  0  0  0  0  0
   57.0560   24.0890   47.2380 C   0  0  0  0  0  0  0  0  0  0  0  0
   57.0050   23.0400   47.9340 O   0  0  0  0  0  0  0  0  0  0  0  0
   58.2500   24.5250   46.7620 N   0  0  0  0  0  0  0  0  0  0  0  0
   58.3390   25.6490   46.0060 C   0  0  0  0  0  0  0  0  0  0  0  0
   59.4660   26.0250   45.5860 O   0  0  0  0  0  0  0  0  0  0  0  0
   57.9770   31.1370   44.5200 N   0  0  0  0  0  0  0  0  0  0  0  0
   58.3700   32.1590   45.2240 C   0  0  0  0  0  0  0  0  0  0  0  0
   57.8530   33.3930   45.0380 N   0  0  0  0  0  0  0  0  0  0  0  0
   58.4140   34.3100   45.8700 C   0  0  0  0  0  0  0  0  0  0  0  0
   59.3790   33.8000   46.7320 C   0  0  0  0  0  0  0  0  0  0  0  0
   60.2070   34.5960   47.6900 C   0  0  0  0  0  0  0  0  0  0  0  0
   61.5420   33.9340   47.8920 C   0  0  0  0  0  0  0  0  0  0  0  0
   62.4340   33.7930   46.8150 C   0  0  0  0  0  0  0  0  0  0  0  0
   63.6900   33.2110   47.0120 C   0  0  0  0  0  0  0  0  0  0  0  0
   64.0670   32.7750   48.2850 C   0  0  0  0  0  0  0  0  0  0  0  0
   63.1910   32.9230   49.3630 C   0  0  0  0  0  0  0  0  0  0  0  0
   61.9340   33.5050   49.1710 C   0  0  0  0  0  0  0  0  0  0  0  0
   59.5570   32.1550   46.4280 S   0  0  0  0  0  0  0  0  0  0  0  0
  1  2  2  0
  2  3  1  0
  3  4  2  3
  4  5  1  0
  5  6  2  0
  6  7  1  0
  6  8  1  0
  8  9  1  0
  9 10  2  0
  9 11  1  0
 11 12  1  0
 12 13  2  0
  2 14  1  0
 14 15  2  3
 15 16  1  0
 16 17  1  0
 17 18  2  0
 18 19  1  0
 19 20  1  0
 20 21  2  0
 21 22  1  0
 22 23  2  0
 23 24  1  0
 24 25  2  0
 18 26  1  0
 12  5  1  0
 26 15  1  0
 25 20  1  0
M  CHG  3   7  -1  11  -1  16  -1
M  END
>  <UniqueID>  (2071) 
18

>  <SMILES>  (2071) 
O=C(C=Cc1c([O-])[nH]c(=O)[n-]c1=O)N=c1[n-]cc(Cc2ccccc2)s1

>  <Energy>  (2071) 
81.34760908140254

>  <Genealogy>  (2071) 
O=C(C=Cc1c([O-])[nH]c(=O)[n-]c1=O)N=c1[n-]cc(Cc2ccccc2)s1 (protonated)
O=C(C=Cc1c([O-])[nH]c(=O)[n-]c1=O)N=c1[n-]cc(Cc2ccccc2)s1 (3D coordinates assigned)
O=C(C=Cc1c([O-])[nH]c(=O)[n-]c1=O)N=c1[n-]cc(Cc2ccccc2)s1 (optimized conformer: 81.34760908140254 kcal/mol)

>  <smiles>  (2071) 
O=C(C=Cc1c(O)[nH]c(=O)[nH]c1=O)N=c1[nH]cc(Cc2ccccc2)s1

>  <score_type>  (2071) 
oracle

>  <origin>  (2071) 
adg

>  <m_score__min__energy>  (2071) 
-15.960000000000001

>  <m_primary>  (2071) 
energy

$$$$
32:0
     RDKit          3D

 29 32  0  0  0  0  0  0  0  0999 V2000
   55.6190   28.9770   45.2480 O   0  0  0  0  0  0  0  0  0  0  0  0
   56.1050   27.7140   45.5780 C   0  0  0  0  0  0  0  0  0  0  0  0
   55.3290   26.7260   46.0520 N   0  0  0  0  0  0  0  0  0  0  0  0
   56.2140   25.7310   46.2760 C   0  0  0  0  0  0  0  0  0  0  0  0
   55.8740   24.6100   46.7370 O   0  0  0  0  0  0  0  0  0  0  0  0
   57.4960   26.0340   45.9770 N   0  0  0  0  0  0  0  0  0  0  0  0
   57.4170   27.2910   45.5060 C   0  0  0  0  0  0  0  0  0  0  0  0
   58.5930   28.0900   45.1360 C   0  0  0  0  0  0  0  0  0  0  0  0
   58.8750   29.3290   45.5830 C   0  0  0  0  0  0  0  0  0  0  0  0
   58.4030   30.4750   44.9630 C   0  0  0  0  0  0  0  0  0  0  0  0
   58.9390   31.5480   45.6410 C   0  0  0  0  0  0  0  0  0  0  0  0
   58.6840   32.9860   45.3010 C   0  0  0  0  0  0  0  0  0  0  0  0
   59.6930   31.1210   46.6770 N   0  0  0  0  0  0  0  0  0  0  0  0
   60.3620   31.9660   47.6310 C   0  0  0  0  0  0  0  0  0  0  0  0
   61.7480   32.1490   47.5500 C   0  0  0  0  0  0  0  0  0  0  0  0
   62.4210   32.9540   48.4810 C   0  0  0  0  0  0  0  0  0  0  0  0
   63.8830   33.0800   48.3640 C   0  0  0  0  0  0  0  0  0  0  0  0
   64.3930   33.4520   47.2740 O   0  0  0  0  0  0  0  0  0  0  0  0
   64.7320   32.7340   49.4590 N   0  0  0  0  0  0  0  0  0  0  0  0
   66.1760   32.7450   49.7480 C   0  0  0  0  0  0  0  0  0  0  0  0
   66.0740   32.0880   51.0860 C   0  0  0  0  0  0  0  0  0  0  0  0
   64.6140   32.0830   50.7760 C   0  0  0  0  0  0  0  0  0  0  0  0
   61.6830   33.6220   49.4890 C   0  0  0  0  0  0  0  0  0  0  0  0
   62.3270   34.5530   50.4830 C   0  0  0  0  0  0  0  0  0  0  0  0
   60.2960   33.4180   49.5720 C   0  0  0  0  0  0  0  0  0  0  0  0
   59.6390   32.5960   48.6540 C   0  0  0  0  0  0  0  0  0  0  0  0
   58.2660   32.4050   48.7630 O   0  0  0  0  0  0  0  0  0  0  0  0
   59.6450   29.7640   46.6760 C   0  0  0  0  0  0  0  0  0  0  0  0
   60.1550   29.0120   47.6640 C   0  0  0  0  0  0  0  0  0  0  0  0
  1  2  1  0
  2  3  1  0
  3  4  1  0
  4  5  2  0
  4  6  1  0
  6  7  1  0
  7  8  1  0
  8  9  2  0
  9 10  1  0
 10 11  2  0
 11 12  1  0
 11 13  1  0
 13 14  1  0
 14 15  2  0
 15 16  1  0
 16 17  1  0
 17 18  2  0
 17 19  1  0
 19 20  1  0
 20 21  1  0
 21 22  1  0
 16 23  2  0
 23 24  1  0
 23 25  1  0
 25 26  2  0
 26 27  1  0
 13 28  1  0
 28 29  2  0
  7  2  2  0
 28  9  1  0
 26 14  1  0
 22 19  1  0
M  CHG  3   3  -1   6  -1  27  -1
M  END
>  <UniqueID>  (2072) 
29

>  <SMILES>  (2072) 
C=c1/c(=C\c2[n-]c(=O)[n-]c2O)cc(C)n1-c1cc(C(=O)N2CCC2)c(C)cc1[O-]

>  <Energy>  (2072) 
175.668561158371

>  <Genealogy>  (2072) 
C=c1c(=Cc2[n-]c(=O)[n-]c2O)cc(C)n1-c1cc(C(=O)N2CCC2)c(C)cc1[O-] (protonated)
C=c1/c(=C\c2[n-]c(=O)[n-]c2O)cc(C)n1-c1cc(C(=O)N2CCC2)c(C)cc1[O-] (cis-trans isomerization)
C=c1/c(=C\c2[n-]c(=O)[n-]c2O)cc(C)n1-c1cc(C(=O)N2CCC2)c(C)cc1[O-] (3D coordinates assigned)
C=c1/c(=C\c2[n-]c(=O)[n-]c2O)cc(C)n1-c1cc(C(=O)N2CCC2)c(C)cc1[O-] (nonaromatic ring conformer: 175.668561158371 kcal/mol)

>  <smiles>  (2072) 
C=c1c(=Cc2[nH]c(=O)[nH]c2O)cc(C)n1-c1cc(C(=O)N2CCC2)c(C)cc1O

>  <score_type>  (2072) 
oracle

>  <origin>  (2072) 
adg

>  <m_score__min__energy>  (2072) 
-15.17

>  <m_primary>  (2072) 
energy

$$$$
39:0
     RDKit          3D

 32 35  0  0  0  0  0  0  0  0999 V2000
   58.6630   29.4610   47.8390 C   0  0  0  0  0  0  0  0  0  0  0  0
   58.1040   29.3020   46.6280 C   0  0  0  0  0  0  0  0  0  0  0  0
   57.6910   28.0980   46.0320 C   0  0  0  0  0  0  0  0  0  0  0  0
   57.5770   26.8520   46.5340 C   0  0  0  0  0  0  0  0  0  0  0  0
   56.9710   25.6990   45.8440 C   0  0  0  0  0  0  0  0  0  0  0  0
   55.5850   25.6530   45.6280 C   0  0  0  0  0  0  0  0  0  0  0  0
   54.7740   26.7130   46.0140 O   0  0  0  0  0  0  0  0  0  0  0  0
   55.0280   24.5690   45.0280 N   0  0  0  0  0  0  0  0  0  0  0  0
   55.7880   23.5120   44.6450 C   0  0  0  0  0  0  0  0  0  0  0  0
   55.2490   22.5200   44.0880 O   0  0  0  0  0  0  0  0  0  0  0  0
   57.1270   23.5200   44.8670 N   0  0  0  0  0  0  0  0  0  0  0  0
   57.7330   24.5790   45.4640 C   0  0  0  0  0  0  0  0  0  0  0  0
   58.9740   24.5430   45.6760 O   0  0  0  0  0  0  0  0  0  0  0  0
   57.3720   28.4060   44.7190 C   0  0  0  0  0  0  0  0  0  0  0  0
   57.5390   29.7660   44.5740 C   0  0  0  0  0  0  0  0  0  0  0  0
   57.2900   30.5230   43.3030 C   0  0  0  0  0  0  0  0  0  0  0  0
   57.9840   30.3130   45.7280 N   0  0  0  0  0  0  0  0  0  0  0  0
   58.2880   31.7030   45.9350 C   0  0  0  0  0  0  0  0  0  0  0  0
   57.3570   32.6890   45.5810 C   0  0  0  0  0  0  0  0  0  0  0  0
   57.6600   34.0390   45.7670 C   0  0  0  0  0  0  0  0  0  0  0  0
   58.8910   34.4150   46.3080 C   0  0  0  0  0  0  0  0  0  0  0  0
   59.8350   33.4390   46.6740 C   0  0  0  0  0  0  0  0  0  0  0  0
   61.1140   33.8270   47.2130 N   0  0  0  0  0  0  0  0  0  0  0  0
   62.3160   33.8400   46.3700 C   0  0  0  0  0  0  0  0  0  0  0  0
   63.4670   33.0700   47.0490 C   0  0  0  0  0  0  0  0  0  0  0  0
   63.3330   33.0210   48.5260 N   0  0  0  0  0  0  0  0  0  0  0  0
   64.6080   32.6960   49.1990 C   0  0  0  0  0  0  0  0  0  0  0  0
   64.8190   33.4750   50.4340 C   0  0  0  0  0  0  0  0  0  0  0  0
   64.9840   34.0850   51.4030 N   0  0  0  0  0  0  0  0  0  0  0  0
   62.6810   34.2210   49.0820 C   0  0  0  0  0  0  0  0  0  0  0  0
   61.2230   34.2580   48.6130 C   0  0  0  0  0  0  0  0  0  0  0  0
   59.5250   32.0830   46.4790 C   0  0  0  0  0  0  0  0  0  0  0  0
  1  2  2  0
  2  3  1  0
  3  4  2  3
  4  5  1  0
  5  6  2  0
  6  7  1  0
  6  8  1  0
  8  9  1  0
  9 10  2  0
  9 11  1  0
 11 12  1  0
 12 13  2  0
  3 14  1  0
 14 15  2  0
 15 16  1  0
 15 17  1  0
 17 18  1  0
 18 19  2  0
 19 20  1  0
 20 21  2  0
 21 22  1  0
 22 23  1  0
 23 24  1  0
 24 25  1  0
 25 26  1  0
 26 27  1  0
 27 28  1  0
 28 29  3  0
 26 30  1  0
 30 31  1  0
 22 32  2  0
 17  2  1  0
 32 18  1  0
 12  5  1  0
 31 23  1  0
M  CHG  3   7  -1   8  -1  11  -1
M  END
>  <UniqueID>  (2073) 
36

>  <SMILES>  (2073) 
C=c1c(=Cc2c([O-])[n-]c(=O)[n-]c2=O)cc(C)n1-c1cccc(N2CCN(CC#N)CC2)c1

>  <Energy>  (2073) 
116.16096787983668

>  <Genealogy>  (2073) 
C=c1c(=Cc2c([O-])[n-]c(=O)[n-]c2=O)cc(C)n1-c1cccc(N2CCN(CC#N)CC2)c1 (protonated)
C=c1c(=Cc2c([O-])[n-]c(=O)[n-]c2=O)cc(C)n1-c1cccc(N2CCN(CC#N)CC2)c1 (3D coordinates assigned)
C=c1c(=Cc2c([O-])[n-]c(=O)[n-]c2=O)cc(C)n1-c1cccc(N2CCN(CC#N)CC2)c1 (nonaromatic ring conformer: 116.16096787983668 kcal/mol)

>  <smiles>  (2073) 
C=c1c(=Cc2c(O)[nH]c(=O)[nH]c2=O)cc(C)n1-c1cccc(N2CCN(CC#N)CC2)c1

>  <score_type>  (2073) 
oracle

>  <origin>  (2073) 
adg

>  <m_score__min__energy>  (2073) 
-16.77

>  <m_primary>  (2073) 
energy

$$$$
57:0
     RDKit          3D

 24 26  0  0  0  0  0  0  0  0999 V2000
   57.9880   30.7260   44.4250 C   0  0  0  0  0  0  0  0  0  0  0  0
   58.2370   30.2490   45.6550 C   0  0  0  0  0  0  0  0  0  0  0  0
   57.9440   28.9660   46.1270 C   0  0  0  0  0  0  0  0  0  0  0  0
   57.3240   27.9710   45.4630 C   0  0  0  0  0  0  0  0  0  0  0  0
   57.2020   26.5920   45.9870 C   0  0  0  0  0  0  0  0  0  0  0  0
   55.9480   26.0080   46.2400 C   0  0  0  0  0  0  0  0  0  0  0  0
   54.7730   26.7120   46.0000 O   0  0  0  0  0  0  0  0  0  0  0  0
   55.8770   24.7480   46.7420 N   0  0  0  0  0  0  0  0  0  0  0  0
   57.0000   24.0410   47.0260 C   0  0  0  0  0  0  0  0  0  0  0  0
   56.9100   22.8750   47.4870 O   0  0  0  0  0  0  0  0  0  0  0  0
   58.2230   24.5950   46.8180 N   0  0  0  0  0  0  0  0  0  0  0  0
   58.3480   25.8500   46.3150 C   0  0  0  0  0  0  0  0  0  0  0  0
   59.4990   26.3340   46.1390 O   0  0  0  0  0  0  0  0  0  0  0  0
   58.3880   28.9230   47.4430 C   0  0  0  0  0  0  0  0  0  0  0  0
   58.9260   30.1640   47.7190 C   0  0  0  0  0  0  0  0  0  0  0  0
   59.5340   30.5650   49.0280 C   0  0  0  0  0  0  0  0  0  0  0  0
   58.8440   30.9630   46.6330 N   0  0  0  0  0  0  0  0  0  0  0  0
   59.2950   32.3240   46.5590 C   0  0  0  0  0  0  0  0  0  0  0  0
   60.6680   32.5990   46.6420 C   0  0  0  0  0  0  0  0  0  0  0  0
   61.1310   33.9140   46.5560 C   0  0  0  0  0  0  0  0  0  0  0  0
   60.2260   34.9640   46.3870 C   0  0  0  0  0  0  0  0  0  0  0  0
   58.8560   34.7020   46.3060 C   0  0  0  0  0  0  0  0  0  0  0  0
   58.3780   33.3850   46.3950 C   0  0  0  0  0  0  0  0  0  0  0  0
   56.9680   33.1400   46.3340 N   0  0  0  0  0  0  0  0  0  0  0  0
  1  2  2  0
  2  3  1  0
  3  4  2  3
  4  5  1  0
  5  6  2  0
  6  7  1  0
  6  8  1  0
  8  9  1  0
  9 10  2  0
  9 11  1  0
 11 12  1  0
 12 13  2  0
  3 14  1  0
 14 15  2  0
 15 16  1  0
 15 17  1  0
 17 18  1  0
 18 19  2  0
 19 20  1  0
 20 21  2  0
 21 22  1  0
 22 23  2  0
 23 24  1  0
 17  2  1  0
 23 18  1  0
 12  5  1  0
M  CHG  3   7  -1   8  -1  11  -1
M  END
>  <UniqueID>  (2074) 
52

>  <SMILES>  (2074) 
C=c1c(=Cc2c([O-])[n-]c(=O)[n-]c2=O)cc(C)n1-c1ccccc1N

>  <Energy>  (2074) 
84.50972626749972

>  <Genealogy>  (2074) 
C=c1c(=Cc2c([O-])[n-]c(=O)[n-]c2=O)cc(C)n1-c1ccccc1N (protonated)
C=c1c(=Cc2c([O-])[n-]c(=O)[n-]c2=O)cc(C)n1-c1ccccc1N (3D coordinates assigned)
C=c1c(=Cc2c([O-])[n-]c(=O)[n-]c2=O)cc(C)n1-c1ccccc1N (optimized conformer: 84.50972626749972 kcal/mol)

>  <smiles>  (2074) 
C=c1c(=Cc2c(O)[nH]c(=O)[nH]c2=O)cc(C)n1-c1ccccc1N

>  <score_type>  (2074) 
oracle

>  <origin>  (2074) 
adg

>  <m_score__min__energy>  (2074) 
-15.050000000000001

>  <m_primary>  (2074) 
energy

$$$$
84:0
     RDKit          3D

 36 39  0  0  0  0  0  0  0  0999 V2000
   58.1200   27.5280   45.1130 O   0  0  0  0  0  0  0  0  0  0  0  0
   58.2280   26.4370   45.7360 C   0  0  0  0  0  0  0  0  0  0  0  0
   59.4690   26.0930   46.3720 N   0  0  0  0  0  0  0  0  0  0  0  0
   60.6390   26.9680   46.3290 C   0  0  0  0  0  0  0  0  0  0  0  0
   60.2740   28.3620   46.7640 C   0  0  0  0  0  0  0  0  0  0  0  0
   59.4630   28.5590   47.8910 C   0  0  0  0  0  0  0  0  0  0  0  0
   59.1020   29.8510   48.2860 C   0  0  0  0  0  0  0  0  0  0  0  0
   59.5690   30.9650   47.5730 C   0  0  0  0  0  0  0  0  0  0  0  0
   59.2160   32.3620   48.0160 C   0  0  0  0  0  0  0  0  0  0  0  0
   57.9780   32.8100   47.3760 N   0  0  0  0  0  0  0  0  0  0  0  0
   58.2710   33.3690   45.7550 S   0  0  0  0  0  0  0  0  0  0  0  0
   57.5140   34.6480   45.5340 O   0  0  0  0  0  0  0  0  0  0  0  0
   59.7380   33.6500   45.5800 O   0  0  0  0  0  0  0  0  0  0  0  0
   57.7320   32.1800   44.5700 C   0  0  0  0  0  0  0  0  0  0  0  0
   57.7550   32.4980   43.2050 C   0  0  0  0  0  0  0  0  0  0  0  0
   57.2880   31.5780   42.2610 C   0  0  0  0  0  0  0  0  0  0  0  0
   56.7970   30.3370   42.6750 C   0  0  0  0  0  0  0  0  0  0  0  0
   56.7760   30.0130   44.0360 C   0  0  0  0  0  0  0  0  0  0  0  0
   57.2420   30.9310   44.9820 C   0  0  0  0  0  0  0  0  0  0  0  0
   60.3750   30.7690   46.4370 C   0  0  0  0  0  0  0  0  0  0  0  0
   60.7280   29.4770   46.0370 C   0  0  0  0  0  0  0  0  0  0  0  0
   57.0560   25.5370   45.8380 C   0  0  0  0  0  0  0  0  0  0  0  0
   55.7550   26.0570   45.7820 C   0  0  0  0  0  0  0  0  0  0  0  0
   55.5380   27.4240   45.6320 O   0  0  0  0  0  0  0  0  0  0  0  0
   54.6900   25.2280   45.8970 N   0  0  0  0  0  0  0  0  0  0  0  0
   54.8440   23.8920   46.0620 C   0  0  0  0  0  0  0  0  0  0  0  0
   53.8150   23.1730   46.1910 O   0  0  0  0  0  0  0  0  0  0  0  0
   56.0980   23.3390   46.1000 N   0  0  0  0  0  0  0  0  0  0  0  0
   56.2540   21.9100   46.2460 C   0  0  0  0  0  0  0  0  0  0  0  0
   56.1220   21.0620   45.1340 C   0  0  0  0  0  0  0  0  0  0  0  0
   56.2700   19.6790   45.2800 C   0  0  0  0  0  0  0  0  0  0  0  0
   56.5540   19.1340   46.5350 C   0  0  0  0  0  0  0  0  0  0  0  0
   56.6890   19.9700   47.6460 C   0  0  0  0  0  0  0  0  0  0  0  0
   56.5370   21.3540   47.5050 C   0  0  0  0  0  0  0  0  0  0  0  0
   57.2040   24.1440   45.9820 C   0  0  0  0  0  0  0  0  0  0  0  0
   58.3590   23.6340   45.9670 O   0  0  0  0  0  0  0  0  0  0  0  0
  1  2  2  0
  2  3  1  0
  3  4  1  0
  4  5  1  0
  5  6  2  0
  6  7  1  0
  7  8  2  0
  8  9  1  0
  9 10  1  0
 10 11  1  0
 11 12  2  0
 11 13  2  0
 11 14  1  0
 14 15  2  0
 15 16  1  0
 16 17  2  0
 17 18  1  0
 18 19  2  0
  8 20  1  0
 20 21  2  0
  2 22  1  0
 22 23  2  0
 23 24  1  0
 23 25  1  0
 25 26  1  0
 26 27  2  0
 26 28  1  0
 28 29  1  0
 29 30  2  0
 30 31  1  0
 31 32  2  0
 32 33  1  0
 33 34  2  0
 28 35  1  0
 35 36  2  0
 21  5  1  0
 35 22  1  0
 19 14  1  0
 34 29  1  0
M  CHG  3  10  -1  24  -1  25  -1
M  END
>  <UniqueID>  (2075) 
78

>  <SMILES>  (2075) 
O=C(NCc1ccc(C[N-]S(=O)(=O)c2ccccc2)cc1)c1c([O-])[n-]c(=O)n(-c2ccccc2)c1=O

>  <Energy>  (2075) 
70.24043260519987

>  <Genealogy>  (2075) 
O=C(NCc1ccc(C[N-]S(=O)(=O)c2ccccc2)cc1)c1c([O-])[n-]c(=O)n(-c2ccccc2)c1=O (protonated)
O=C(NCc1ccc(C[N-]S(=O)(=O)c2ccccc2)cc1)c1c([O-])[n-]c(=O)n(-c2ccccc2)c1=O (3D coordinates assigned)
O=C(NCc1ccc(C[N-]S(=O)(=O)c2ccccc2)cc1)c1c([O-])[n-]c(=O)n(-c2ccccc2)c1=O (optimized conformer: 70.24043260519987 kcal/mol)

>  <smiles>  (2075) 
O=C(NCc1ccc(CNS(=O)(=O)c2ccccc2)cc1)c1c(O)[nH]c(=O)n(-c2ccccc2)c1=O

>  <score_type>  (2075) 
oracle

>  <origin>  (2075) 
adg

>  <m_score__min__energy>  (2075) 
-14.539999999999999

>  <m_primary>  (2075) 
energy

$$$$
85:0
     RDKit          3D

 36 39  0  0  0  0  0  0  0  0999 V2000
   54.6120   31.1650   51.2830 C   0  0  0  0  0  0  0  0  0  0  0  0
   54.5010   30.1550   52.1740 C   0  0  0  0  0  0  0  0  0  0  0  0
   55.6750   29.4990   52.6110 C   0  0  0  0  0  0  0  0  0  0  0  0
   57.0240   30.0240   52.3710 C   0  0  0  0  0  0  0  0  0  0  0  0
   57.8890   29.2900   51.8230 O   0  0  0  0  0  0  0  0  0  0  0  0
   57.3620   31.3420   52.8160 N   0  0  0  0  0  0  0  0  0  0  0  0
   58.7240   31.7490   53.1390 C   0  0  0  0  0  0  0  0  0  0  0  0
   59.4420   32.1260   51.8810 C   0  0  0  0  0  0  0  0  0  0  0  0
   59.7970   31.2420   50.8680 C   0  0  0  0  0  0  0  0  0  0  0  0
   60.2080   31.8830   49.6930 C   0  0  0  0  0  0  0  0  0  0  0  0
   60.1660   33.2700   49.7820 C   0  0  0  0  0  0  0  0  0  0  0  0
   60.3490   34.2270   48.6450 C   0  0  0  0  0  0  0  0  0  0  0  0
   59.5630   33.7780   47.4800 N   0  0  0  0  0  0  0  0  0  0  0  0
   59.5260   34.7990   46.4200 C   0  0  0  0  0  0  0  0  0  0  0  0
   58.9780   34.1740   45.1290 C   0  0  0  0  0  0  0  0  0  0  0  0
   57.9710   33.1170   45.3800 N   0  0  0  0  0  0  0  0  0  0  0  0
   58.3740   31.7520   44.9760 C   0  0  0  0  0  0  0  0  0  0  0  0
   57.6050   31.2080   43.7680 C   0  0  0  0  0  0  0  0  0  0  0  0
   57.2550   33.2110   46.6700 C   0  0  0  0  0  0  0  0  0  0  0  0
   58.1900   33.4210   47.8830 C   0  0  0  0  0  0  0  0  0  0  0  0
   59.6120   33.6990   51.3110 S   0  0  0  0  0  0  0  0  0  0  0  0
   55.5890   28.2960   53.2190 N   0  0  0  0  0  0  0  0  0  0  0  0
   54.4180   27.6670   53.4660 C   0  0  0  0  0  0  0  0  0  0  0  0
   54.4930   26.3140   54.1180 C   0  0  0  0  0  0  0  0  0  0  0  0
   53.1930   28.3090   53.1570 C   0  0  0  0  0  0  0  0  0  0  0  0
   51.8800   27.6000   53.4910 C   0  0  0  0  0  0  0  0  0  0  0  0
   51.3470   28.0550   54.8480 C   0  0  0  0  0  0  0  0  0  0  0  0
   53.2280   29.6180   52.5660 C   0  0  0  0  0  0  0  0  0  0  0  0
   52.0660   30.3160   52.4090 C   0  0  0  0  0  0  0  0  0  0  0  0
   51.5140   30.7660   51.1130 C   0  0  0  0  0  0  0  0  0  0  0  0
   51.4920   30.0300   49.9860 N   0  0  0  0  0  0  0  0  0  0  0  0
   51.0130   30.8880   49.0610 C   0  0  0  0  0  0  0  0  0  0  0  0
   50.8330   30.5590   47.8590 O   0  0  0  0  0  0  0  0  0  0  0  0
   50.7470   32.1290   49.5220 N   0  0  0  0  0  0  0  0  0  0  0  0
   51.0820   32.0370   50.8180 C   0  0  0  0  0  0  0  0  0  0  0  0
   50.9910   33.0920   51.7160 O   0  0  0  0  0  0  0  0  0  0  0  0
  1  2  2  0
  2  3  1  0
  3  4  1  0
  4  5  2  0
  4  6  1  0
  6  7  1  0
  7  8  1  0
  8  9  2  0
  9 10  1  0
 10 11  2  0
 11 12  1  0
 12 13  1  0
 13 14  1  0
 14 15  1  0
 15 16  1  0
 16 17  1  0
 17 18  1  0
 16 19  1  0
 19 20  1  0
 11 21  1  0
  3 22  2  0
 22 23  1  0
 23 24  1  0
 23 25  2  0
 25 26  1  0
 26 27  1  0
 25 28  1  0
 28 29  2  3
 29 30  1  0
 30 31  1  0
 31 32  1  0
 32 33  2  0
 32 34  1  0
 34 35  1  0
 35 36  1  0
 28  2  1  0
 35 30  2  0
 21  8  1  0
 20 13  1  0
M  CHG  4   6  -1  31  -1  34  -1  36  -1
M  END
>  <UniqueID>  (2076) 
79

>  <SMILES>  (2076) 
C=c1c(C(=O)[N-]Cc2ccc(CN3CCN(CC)CC3)s2)nc(C)c(CC)c1=Cc1[n-]c(=O)[n-]c1[O-]

>  <Energy>  (2076) 
166.80232328630527

>  <Genealogy>  (2076) 
C=c1c(C(=O)[N-]Cc2ccc(CN3CCN(CC)CC3)s2)nc(C)c(CC)c1=Cc1[n-]c(=O)[n-]c1[O-] (protonated)
C=c1c(C(=O)[N-]Cc2ccc(CN3CCN(CC)CC3)s2)nc(C)c(CC)c1=Cc1[n-]c(=O)[n-]c1[O-] (3D coordinates assigned)
C=c1c(C(=O)[N-]Cc2ccc(CN3CCN(CC)CC3)s2)nc(C)c(CC)c1=Cc1[n-]c(=O)[n-]c1[O-] (nonaromatic ring conformer: 166.80232328630527 kcal/mol)

>  <smiles>  (2076) 
C=c1c(C(=O)NCc2ccc(CN3CCN(CC)CC3)s2)nc(C)c(CC)c1=Cc1[nH]c(=O)[nH]c1O

>  <score_type>  (2076) 
oracle

>  <origin>  (2076) 
adg

>  <m_score__min__energy>  (2076) 
-19.010000000000002

>  <m_primary>  (2076) 
energy

$$$$
1:0
     RDKit          3D

 28 30  0  0  0  0  0  0  0  0999 V2000
   58.5490   28.2560   48.5260 C   0  0  0  0  0  0  0  0  0  0  0  0
   59.3640   28.8700   47.6550 C   0  0  0  0  0  0  0  0  0  0  0  0
   59.2610   28.8570   46.2530 C   0  0  0  0  0  0  0  0  0  0  0  0
   58.5070   28.1040   45.4290 C   0  0  0  0  0  0  0  0  0  0  0  0
   57.3690   27.2650   45.8380 C   0  0  0  0  0  0  0  0  0  0  0  0
   57.4760   26.0160   46.3280 N   0  0  0  0  0  0  0  0  0  0  0  0
   56.1910   25.6090   46.4260 C   0  0  0  0  0  0  0  0  0  0  0  0
   55.8710   24.4740   46.8660 O   0  0  0  0  0  0  0  0  0  0  0  0
   55.2780   26.5090   46.0030 N   0  0  0  0  0  0  0  0  0  0  0  0
   56.0420   27.5450   45.6210 C   0  0  0  0  0  0  0  0  0  0  0  0
   55.5370   28.7200   45.0800 O   0  0  0  0  0  0  0  0  0  0  0  0
   60.1550   29.8060   45.7910 C   0  0  0  0  0  0  0  0  0  0  0  0
   60.8150   30.3070   46.8930 C   0  0  0  0  0  0  0  0  0  0  0  0
   61.8870   31.3550   46.8320 C   0  0  0  0  0  0  0  0  0  0  0  0
   60.3420   29.7410   48.0280 N   0  0  0  0  0  0  0  0  0  0  0  0
   60.8100   30.0250   49.3960 C   0  0  0  0  0  0  0  0  0  0  0  0
   59.6750   30.5750   50.2660 C   0  0  0  0  0  0  0  0  0  0  0  0
   59.1430   31.8650   49.7160 C   0  0  0  0  0  0  0  0  0  0  0  0
   57.9100   32.1140   49.8020 O   0  0  0  0  0  0  0  0  0  0  0  0
   60.0400   32.8240   49.1420 N   0  0  0  0  0  0  0  0  0  0  0  0
   59.5830   34.1050   48.6090 C   0  0  0  0  0  0  0  0  0  0  0  0
   59.0400   33.9280   47.2160 C   0  0  0  0  0  0  0  0  0  0  0  0
   59.5940   34.6360   46.1360 C   0  0  0  0  0  0  0  0  0  0  0  0
   59.0720   34.4760   44.8490 C   0  0  0  0  0  0  0  0  0  0  0  0
   57.9940   33.6120   44.6310 C   0  0  0  0  0  0  0  0  0  0  0  0
   57.4880   33.4610   43.3820 F   0  0  0  0  0  0  0  0  0  0  0  0
   57.4370   32.9070   45.7010 C   0  0  0  0  0  0  0  0  0  0  0  0
   57.9570   33.0630   46.9900 C   0  0  0  0  0  0  0  0  0  0  0  0
  1  2  2  0
  2  3  1  0
  3  4  2  0
  4  5  1  0
  5  6  1  0
  6  7  1  0
  7  8  2  0
  7  9  1  0
  9 10  1  0
 10 11  1  0
  3 12  1  0
 12 13  2  0
 13 14  1  0
 13 15  1  0
 15 16  1  0
 16 17  1  0
 17 18  1  0
 18 19  2  0
 18 20  1  0
 20 21  1  0
 21 22  1  0
 22 23  2  0
 23 24  1  0
 24 25  2  0
 25 26  1  0
 25 27  1  0
 27 28  2  0
 15  2  1  0
 28 22  1  0
 10  5  2  0
M  CHG  3   6  -1   9  -1  11  -1
M  END
>  <UniqueID>  (2077) 
2

>  <SMILES>  (2077) 
C=c1/c(=C\c2[n-]c(=O)[n-]c2[O-])cc(C)n1CCC(=O)NCc1ccc(F)cc1

>  <Energy>  (2077) 
109.48870409403511

>  <Genealogy>  (2077) 
C=c1c(=Cc2[n-]c(=O)[n-]c2[O-])cc(C)n1CCC(=O)NCc1ccc(F)cc1 (protonated)
C=c1/c(=C\c2[n-]c(=O)[n-]c2[O-])cc(C)n1CCC(=O)NCc1ccc(F)cc1 (cis-trans isomerization)
C=c1/c(=C\c2[n-]c(=O)[n-]c2[O-])cc(C)n1CCC(=O)NCc1ccc(F)cc1 (3D coordinates assigned)
C=c1/c(=C\c2[n-]c(=O)[n-]c2[O-])cc(C)n1CCC(=O)NCc1ccc(F)cc1 (optimized conformer: 109.48870409403511 kcal/mol)

>  <smiles>  (2077) 
C=c1c(=Cc2[nH]c(=O)[nH]c2O)cc(C)n1CCC(=O)NCc1ccc(F)cc1

>  <score_type>  (2077) 
oracle

>  <origin>  (2077) 
adg

>  <m_score__min__energy>  (2077) 
-16.32

>  <m_primary>  (2077) 
energy

$$$$
2:0
     RDKit          3D

 24 27  0  0  0  0  0  0  0  0999 V2000
   55.8250   31.6530   52.2350 C   0  0  0  0  0  0  0  0  0  0  0  0
   55.2300   30.5040   52.5950 C   0  0  0  0  0  0  0  0  0  0  0  0
   53.8640   30.3030   52.8550 C   0  0  0  0  0  0  0  0  0  0  0  0
   52.7960   31.0920   52.6290 C   0  0  0  0  0  0  0  0  0  0  0  0
   52.0400   31.1730   51.3700 C   0  0  0  0  0  0  0  0  0  0  0  0
   52.1330   30.2580   50.3880 N   0  0  0  0  0  0  0  0  0  0  0  0
   51.3850   30.7890   49.3970 C   0  0  0  0  0  0  0  0  0  0  0  0
   51.2110   30.2080   48.2940 O   0  0  0  0  0  0  0  0  0  0  0  0
   50.8480   31.9960   49.6740 N   0  0  0  0  0  0  0  0  0  0  0  0
   51.2850   32.2320   50.9210 C   0  0  0  0  0  0  0  0  0  0  0  0
   51.0210   33.4020   51.6220 O   0  0  0  0  0  0  0  0  0  0  0  0
   53.7600   29.0460   53.4280 C   0  0  0  0  0  0  0  0  0  0  0  0
   55.0270   28.5010   53.4310 C   0  0  0  0  0  0  0  0  0  0  0  0
   55.3610   27.1340   53.9480 C   0  0  0  0  0  0  0  0  0  0  0  0
   55.9200   29.3810   52.9270 N   0  0  0  0  0  0  0  0  0  0  0  0
   57.3360   29.1590   52.8010 C   0  0  0  0  0  0  0  0  0  0  0  0
   58.0100   29.5690   51.6430 C   0  0  0  0  0  0  0  0  0  0  0  0
   59.3950   29.3440   51.5170 C   0  0  0  0  0  0  0  0  0  0  0  0
   60.2130   29.7590   50.3060 C   0  0  0  0  0  0  0  0  0  0  0  0
   59.4690   29.9250   48.9890 C   0  0  0  0  0  0  0  0  0  0  0  0
   60.3910   28.7300   49.1970 C   0  0  0  0  0  0  0  0  0  0  0  0
   60.0630   28.7000   52.5680 C   0  0  0  0  0  0  0  0  0  0  0  0
   59.3580   28.3020   53.7050 C   0  0  0  0  0  0  0  0  0  0  0  0
   58.0230   28.5360   53.8000 N   0  0  0  0  0  0  0  0  0  0  0  0
  1  2  2  0
  2  3  1  0
  3  4  2  0
  4  5  1  0
  5  6  1  0
  6  7  1  0
  7  8  2  0
  7  9  1  0
  9 10  1  0
 10 11  1  0
  3 12  1  0
 12 13  2  0
 13 14  1  0
 13 15  1  0
 15 16  1  0
 16 17  2  0
 17 18  1  0
 18 19  1  0
 19 20  1  0
 20 21  1  0
 18 22  2  0
 22 23  1  0
 23 24  2  0
 15  2  1  0
 24 16  1  0
 10  5  2  0
 21 19  1  0
M  CHG  4   6  -1   9  -1  11  -1  24   1
M  END
>  <UniqueID>  (2078) 
3

>  <SMILES>  (2078) 
C=c1/c(=C\c2[n-]c(=O)[n-]c2[O-])cc(C)n1-c1cc(C2CC2)cc[nH+]1

>  <Energy>  (2078) 
385.7945519098059

>  <Genealogy>  (2078) 
C=c1c(=Cc2[n-]c(=O)[n-]c2[O-])cc(C)n1-c1cc(C2CC2)cc[nH+]1 (protonated)
C=c1/c(=C\c2[n-]c(=O)[n-]c2[O-])cc(C)n1-c1cc(C2CC2)cc[nH+]1 (cis-trans isomerization)
C=c1/c(=C\c2[n-]c(=O)[n-]c2[O-])cc(C)n1-c1cc(C2CC2)cc[nH+]1 (3D coordinates assigned)
C=c1/c(=C\c2[n-]c(=O)[n-]c2[O-])cc(C)n1-c1cc(C2CC2)cc[nH+]1 (nonaromatic ring conformer: 385.7945519098059 kcal/mol)

>  <smiles>  (2078) 
C=c1c(=Cc2[nH]c(=O)[nH]c2O)cc(C)n1-c1cc(C2CC2)ccn1

>  <score_type>  (2078) 
oracle

>  <origin>  (2078) 
adg

>  <m_score__min__energy>  (2078) 
-14.44

>  <m_primary>  (2078) 
energy

$$$$
4:0
     RDKit          3D

 27 29  0  0  0  0  0  0  0  0999 V2000
   51.0100   31.7870   49.6350 C   0  0  0  0  0  0  0  0  0  0  0  0
   51.4100   32.7000   50.6950 N   0  0  0  0  0  0  0  0  0  0  0  0
   50.8180   32.6780   51.9950 C   0  0  0  0  0  0  0  0  0  0  0  0
   50.2670   33.7130   52.4620 O   0  0  0  0  0  0  0  0  0  0  0  0
   50.8600   31.4720   52.7620 N   0  0  0  0  0  0  0  0  0  0  0  0
   51.8440   31.2180   53.8090 C   0  0  0  0  0  0  0  0  0  0  0  0
   53.0200   30.4850   53.2460 C   0  0  0  0  0  0  0  0  0  0  0  0
   53.0210   29.1800   52.7940 C   0  0  0  0  0  0  0  0  0  0  0  0
   54.3030   28.9390   52.3510 C   0  0  0  0  0  0  0  0  0  0  0  0
   55.0010   30.1140   52.5620 C   0  0  0  0  0  0  0  0  0  0  0  0
   56.4140   30.3470   52.2480 C   0  0  0  0  0  0  0  0  0  0  0  0
   57.1410   29.3740   51.9140 O   0  0  0  0  0  0  0  0  0  0  0  0
   56.9640   31.6650   52.3740 N   0  0  0  0  0  0  0  0  0  0  0  0
   57.9350   32.2740   51.5080 C   0  0  0  0  0  0  0  0  0  0  0  0
   57.9940   31.9730   50.1340 C   0  0  0  0  0  0  0  0  0  0  0  0
   58.9410   32.6000   49.3070 C   0  0  0  0  0  0  0  0  0  0  0  0
   58.9830   32.3020   47.8310 C   0  0  0  0  0  0  0  0  0  0  0  0
   58.5670   33.4880   47.0570 N   0  0  0  0  0  0  0  0  0  0  0  0
   59.7200   34.2030   46.5070 C   0  0  0  0  0  0  0  0  0  0  0  0
   59.2290   34.9440   45.2730 C   0  0  0  0  0  0  0  0  0  0  0  0
   57.9360   34.2500   44.8740 C   0  0  0  0  0  0  0  0  0  0  0  0
   57.7400   33.1410   45.8950 C   0  0  0  0  0  0  0  0  0  0  0  0
   59.8100   33.5540   49.8550 C   0  0  0  0  0  0  0  0  0  0  0  0
   59.7390   33.8730   51.2130 C   0  0  0  0  0  0  0  0  0  0  0  0
   58.8030   33.2400   52.0360 C   0  0  0  0  0  0  0  0  0  0  0  0
   58.7400   33.5750   53.3840 O   0  0  0  0  0  0  0  0  0  0  0  0
   54.2100   31.0180   53.0960 O   0  0  0  0  0  0  0  0  0  0  0  0
  1  2  1  0
  2  3  1  0
  3  4  2  0
  3  5  1  0
  5  6  1  0
  6  7  1  0
  7  8  2  0
  8  9  1  0
  9 10  2  0
 10 11  1  0
 11 12  2  0
 11 13  1  0
 13 14  1  0
 14 15  2  0
 15 16  1  0
 16 17  1  0
 17 18  1  0
 18 19  1  0
 19 20  1  0
 20 21  1  0
 21 22  1  0
 16 23  2  0
 23 24  1  0
 24 25  2  0
 25 26  1  0
 10 27  1  0
 27  7  1  0
 25 14  1  0
 22 18  1  0
M  CHG  4   2  -1   5  -1  13  -1  26  -1
M  END
>  <UniqueID>  (2079) 
5

>  <SMILES>  (2079) 
C[N-]C(=O)[N-]Cc1ccc(C(=O)[N-]c2cc(CN3CCCC3)ccc2[O-])o1

>  <Energy>  (2079) 
71.96919646938304

>  <Genealogy>  (2079) 
C[N-]C(=O)[N-]Cc1ccc(C(=O)[N-]c2cc(CN3CCCC3)ccc2[O-])o1 (protonated)
C[N-]C(=O)[N-]Cc1ccc(C(=O)[N-]c2cc(CN3CCCC3)ccc2[O-])o1 (3D coordinates assigned)
C[N-]C(=O)[N-]Cc1ccc(C(=O)[N-]c2cc(CN3CCCC3)ccc2[O-])o1 (nonaromatic ring conformer: 71.96919646938304 kcal/mol)

>  <smiles>  (2079) 
CNC(=O)NCc1ccc(C(=O)Nc2cc(CN3CCCC3)ccc2O)o1

>  <score_type>  (2079) 
oracle

>  <origin>  (2079) 
adg

>  <m_score__min__energy>  (2079) 
-15.26

>  <m_primary>  (2079) 
energy

$$$$
6:0
     RDKit          3D

 39 43  0  0  0  0  0  0  0  0999 V2000
   53.3610   25.1340   45.9990 H   0  0  0  0  0  0  0  0  0  0  0  0
   54.3060   24.6890   46.0370 N   0  0  0  0  0  0  0  0  0  0  0  0
   55.3780   25.3800   45.8300 C   0  0  0  0  0  0  0  0  0  0  0  0
   56.5510   24.8220   45.4660 N   0  0  0  0  0  0  0  0  0  0  0  0
   57.3820   25.8740   45.3640 C   0  0  0  0  0  0  0  0  0  0  0  0
   56.6900   27.0330   45.6690 C   0  0  0  0  0  0  0  0  0  0  0  0
   57.2130   28.4240   45.6840 C   0  0  0  0  0  0  0  0  0  0  0  0
   58.1290   28.8090   46.5940 C   0  0  0  0  0  0  0  0  0  0  0  0
   58.6990   30.2020   46.6550 C   0  0  0  0  0  0  0  0  0  0  0  0
   57.9810   31.1320   45.7780 N   0  0  0  0  0  0  0  0  0  0  0  0
   58.1470   32.5460   45.9690 C   0  0  0  0  0  0  0  0  0  0  0  0
   57.3410   33.3420   45.4130 O   0  0  0  0  0  0  0  0  0  0  0  0
   59.2410   33.0800   46.8160 C   0  0  0  0  0  0  0  0  0  0  0  0
   58.9490   33.7700   48.0060 C   0  0  0  0  0  0  0  0  0  0  0  0
   59.9780   34.2600   48.8130 C   0  0  0  0  0  0  0  0  0  0  0  0
   61.3200   34.0740   48.4450 C   0  0  0  0  0  0  0  0  0  0  0  0
   62.4340   34.6040   49.3030 C   0  0  0  0  0  0  0  0  0  0  0  0
   63.6710   33.8710   49.0430 N   0  0  0  0  0  0  0  0  0  0  0  0
   64.2540   32.8820   49.9010 C   0  0  0  0  0  0  0  0  0  0  0  0
   65.4790   32.6170   49.7750 O   0  0  0  0  0  0  0  0  0  0  0  0
   63.4400   32.1250   50.9140 C   0  0  0  0  0  0  0  0  0  0  0  0
   62.9190   30.8770   50.3240 N   0  0  0  0  0  0  0  0  0  0  0  0
   62.4790   29.9000   51.3560 C   0  0  0  0  0  0  0  0  0  0  0  0
   60.9560   29.7030   51.3810 C   0  0  0  0  0  0  0  0  0  0  0  0
   60.4500   29.2460   50.0630 N   0  0  0  0  0  0  0  0  0  0  0  0
   58.9830   29.3950   49.9710 C   0  0  0  0  0  0  0  0  0  0  0  0
   58.4930   30.5020   50.8700 C   0  0  0  0  0  0  0  0  0  0  0  0
   57.6630   30.2180   51.9670 C   0  0  0  0  0  0  0  0  0  0  0  0
   57.2050   31.2550   52.7890 C   0  0  0  0  0  0  0  0  0  0  0  0
   57.5710   32.5760   52.5200 C   0  0  0  0  0  0  0  0  0  0  0  0
   58.3930   32.8660   51.4280 C   0  0  0  0  0  0  0  0  0  0  0  0
   58.8540   31.8340   50.6050 C   0  0  0  0  0  0  0  0  0  0  0  0
   61.1360   29.8900   48.9120 C   0  0  0  0  0  0  0  0  0  0  0  0
   61.8850   31.1700   49.3080 C   0  0  0  0  0  0  0  0  0  0  0  0
   61.6150   33.3700   47.2680 C   0  0  0  0  0  0  0  0  0  0  0  0
   60.5870   32.8740   46.4630 C   0  0  0  0  0  0  0  0  0  0  0  0
   57.4970   30.6310   44.4950 C   0  0  0  0  0  0  0  0  0  0  0  0
   56.5900   29.4270   44.7390 C   0  0  0  0  0  0  0  0  0  0  0  0
   55.4130   26.7200   45.9630 N   0  0  0  0  0  0  0  0  0  0  0  0
  1  2  1  0
  2  3  2  0
  3  4  1  0
  4  5  1  0
  5  6  2  0
  6  7  1  0
  7  8  2  0
  8  9  1  0
  9 10  1  0
 10 11  1  0
 11 12  2  0
 11 13  1  0
 13 14  2  0
 14 15  1  0
 15 16  2  0
 16 17  1  0
 17 18  1  0
 18 19  1  0
 19 20  2  0
 19 21  1  0
 21 22  1  0
 22 23  1  0
 23 24  1  0
 24 25  1  0
 25 26  1  0
 26 27  1  0
 27 28  2  0
 28 29  1  0
 29 30  2  0
 30 31  1  0
 31 32  2  0
 25 33  1  0
 33 34  1  0
 16 35  1  0
 35 36  2  0
 10 37  1  0
 37 38  1  0
  6 39  1  0
 39  3  1  0
 38  7  1  0
 36 13  1  0
 34 22  1  0
 32 27  1  0
M  CHG  3   4  -1  18  -1  39  -1
M  END
>  <UniqueID>  (2080) 
7

>  <SMILES>  (2080) 
[H]/N=c1\[n-]cc(C2=CCN(C(=O)c3ccc(C[N-]C(=O)CN4CCN(Cc5ccccc5)CC4)cc3)CC2)[n-]1

>  <Energy>  (2080) 
119.11420764204406

>  <Genealogy>  (2080) 
N=c1[n-]cc(C2=CCN(C(=O)c3ccc(C[N-]C(=O)CN4CCN(Cc5ccccc5)CC4)cc3)CC2)[n-]1 (protonated)
[H]/N=c1\[n-]cc(C2=CCN(C(=O)c3ccc(C[N-]C(=O)CN4CCN(Cc5ccccc5)CC4)cc3)CC2)[n-]1 (cis-trans isomerization)
[H]/N=c1\[n-]cc(C2=CCN(C(=O)c3ccc(C[N-]C(=O)CN4CCN(Cc5ccccc5)CC4)cc3)CC2)[n-]1 (3D coordinates assigned)
[H]/N=c1\[n-]cc(C2=CCN(C(=O)c3ccc(C[N-]C(=O)CN4CCN(Cc5ccccc5)CC4)cc3)CC2)[n-]1 (nonaromatic ring conformer: 119.11420764204406 kcal/mol)

>  <smiles>  (2080) 
N=c1[nH]cc(C2=CCN(C(=O)c3ccc(CNC(=O)CN4CCN(Cc5ccccc5)CC4)cc3)CC2)[nH]1

>  <score_type>  (2080) 
oracle

>  <origin>  (2080) 
adg

>  <m_score__min__energy>  (2080) 
-14.73

>  <m_primary>  (2080) 
energy

$$$$
7:0
     RDKit          3D

 29 32  0  0  0  0  0  0  0  0999 V2000
   55.9530   31.9720   52.0260 C   0  0  0  0  0  0  0  0  0  0  0  0
   55.4360   30.7810   52.3590 C   0  0  0  0  0  0  0  0  0  0  0  0
   54.0920   30.4840   52.6370 C   0  0  0  0  0  0  0  0  0  0  0  0
   52.9680   31.2030   52.4460 C   0  0  0  0  0  0  0  0  0  0  0  0
   52.2340   31.3260   51.1740 C   0  0  0  0  0  0  0  0  0  0  0  0
   52.2130   30.3880   50.2060 N   0  0  0  0  0  0  0  0  0  0  0  0
   51.3100   30.8730   49.3230 C   0  0  0  0  0  0  0  0  0  0  0  0
   51.0200   30.2750   48.2550 O   0  0  0  0  0  0  0  0  0  0  0  0
   50.7360   32.0420   49.6810 N   0  0  0  0  0  0  0  0  0  0  0  0
   51.3220   32.3060   50.8600 C   0  0  0  0  0  0  0  0  0  0  0  0
   51.0210   33.4160   51.6390 O   0  0  0  0  0  0  0  0  0  0  0  0
   54.0800   29.2040   53.1690 C   0  0  0  0  0  0  0  0  0  0  0  0
   55.3800   28.7430   53.1300 C   0  0  0  0  0  0  0  0  0  0  0  0
   55.8290   27.3950   53.6010 C   0  0  0  0  0  0  0  0  0  0  0  0
   56.2000   29.6970   52.6390 N   0  0  0  0  0  0  0  0  0  0  0  0
   57.6280   29.5870   52.5070 C   0  0  0  0  0  0  0  0  0  0  0  0
   58.2200   29.7770   51.2540 C   0  0  0  0  0  0  0  0  0  0  0  0
   59.6130   29.6690   51.1170 C   0  0  0  0  0  0  0  0  0  0  0  0
   60.2490   29.8420   49.8350 N   0  0  0  0  0  0  0  0  0  0  0  0
   60.0220   28.8450   48.7840 C   0  0  0  0  0  0  0  0  0  0  0  0
   60.2640   29.4730   47.4070 C   0  0  0  0  0  0  0  0  0  0  0  0
   61.5320   30.1010   47.3550 O   0  0  0  0  0  0  0  0  0  0  0  0
   61.5630   31.1910   48.2580 C   0  0  0  0  0  0  0  0  0  0  0  0
   61.4320   30.7020   49.7050 C   0  0  0  0  0  0  0  0  0  0  0  0
   60.3670   29.3630   52.2100 N   0  0  0  0  0  0  0  0  0  0  0  0
   59.8190   29.1780   53.4410 C   0  0  0  0  0  0  0  0  0  0  0  0
   58.4360   29.2910   53.6190 C   0  0  0  0  0  0  0  0  0  0  0  0
   57.8660   29.1120   54.9310 C   0  0  0  0  0  0  0  0  0  0  0  0
   57.4070   28.9660   55.9840 N   0  0  0  0  0  0  0  0  0  0  0  0
  1  2  2  0
  2  3  1  0
  3  4  2  3
  4  5  1  0
  5  6  1  0
  6  7  1  0
  7  8  2  0
  7  9  1  0
  9 10  1  0
 10 11  1  0
  3 12  1  0
 12 13  2  0
 13 14  1  0
 13 15  1  0
 15 16  1  0
 16 17  2  0
 17 18  1  0
 18 19  1  0
 19 20  1  0
 20 21  1  0
 21 22  1  0
 22 23  1  0
 23 24  1  0
 18 25  2  0
 25 26  1  0
 26 27  2  0
 27 28  1  0
 28 29  3  0
 15  2  1  0
 27 16  1  0
 10  5  2  0
 24 19  1  0
M  CHG  3   6  -1   9  -1  11  -1
M  END
>  <UniqueID>  (2081) 
8

>  <SMILES>  (2081) 
C=c1c(=Cc2[n-]c(=O)[n-]c2[O-])cc(C)n1-c1cc(N2CCOCC2)ncc1C#N

>  <Energy>  (2081) 
128.73965491333178

>  <Genealogy>  (2081) 
C=c1c(=Cc2[n-]c(=O)[n-]c2[O-])cc(C)n1-c1cc(N2CCOCC2)ncc1C#N (protonated)
C=c1c(=Cc2[n-]c(=O)[n-]c2[O-])cc(C)n1-c1cc(N2CCOCC2)ncc1C#N (3D coordinates assigned)
C=c1c(=Cc2[n-]c(=O)[n-]c2[O-])cc(C)n1-c1cc(N2CCOCC2)ncc1C#N (nonaromatic ring conformer: 128.73965491333178 kcal/mol)

>  <smiles>  (2081) 
C=c1c(=Cc2[nH]c(=O)[nH]c2O)cc(C)n1-c1cc(N2CCOCC2)ncc1C#N

>  <score_type>  (2081) 
oracle

>  <origin>  (2081) 
adg

>  <m_score__min__energy>  (2081) 
-15.25

>  <m_primary>  (2081) 
energy

$$$$
12:0
     RDKit          3D

 34 38  0  0  0  0  0  0  0  0999 V2000
   59.6380   29.7240   44.6070 C   0  0  0  0  0  0  0  0  0  0  0  0
   59.5980   29.2500   45.8640 C   0  0  0  0  0  0  0  0  0  0  0  0
   58.6340   28.3700   46.3850 C   0  0  0  0  0  0  0  0  0  0  0  0
   57.7010   27.6140   45.7730 C   0  0  0  0  0  0  0  0  0  0  0  0
   57.2020   26.3120   46.2490 C   0  0  0  0  0  0  0  0  0  0  0  0
   57.9650   25.3550   46.8100 N   0  0  0  0  0  0  0  0  0  0  0  0
   57.0640   24.4320   47.2100 C   0  0  0  0  0  0  0  0  0  0  0  0
   57.3980   23.3600   47.7760 O   0  0  0  0  0  0  0  0  0  0  0  0
   55.7760   24.7560   46.9660 N   0  0  0  0  0  0  0  0  0  0  0  0
   55.8820   25.9540   46.3710 C   0  0  0  0  0  0  0  0  0  0  0  0
   54.7930   26.7100   45.9530 O   0  0  0  0  0  0  0  0  0  0  0  0
   58.8120   28.3660   47.7540 C   0  0  0  0  0  0  0  0  0  0  0  0
   59.8950   29.1750   48.0170 C   0  0  0  0  0  0  0  0  0  0  0  0
   60.3890   29.4460   49.3790 C   0  0  0  0  0  0  0  0  0  0  0  0
   61.2410   28.6540   49.8690 O   0  0  0  0  0  0  0  0  0  0  0  0
   59.8840   30.5490   50.1680 N   0  0  0  0  0  0  0  0  0  0  0  0
   60.4790   30.8200   51.4900 C   0  0  0  0  0  0  0  0  0  0  0  0
   60.4820   32.3220   51.8000 C   0  0  0  0  0  0  0  0  0  0  0  0
   59.1470   32.9240   51.4770 C   0  0  0  0  0  0  0  0  0  0  0  0
   58.6230   33.7170   52.2440 O   0  0  0  0  0  0  0  0  0  0  0  0
   58.5130   32.6100   50.1560 C   0  0  0  0  0  0  0  0  0  0  0  0
   58.5420   31.1010   49.9050 C   0  0  0  0  0  0  0  0  0  0  0  0
   60.3950   29.7020   46.8730 N   0  0  0  0  0  0  0  0  0  0  0  0
   61.6520   30.4660   46.7620 C   0  0  0  0  0  0  0  0  0  0  0  0
   61.4840   31.8470   47.3760 C   0  0  0  0  0  0  0  0  0  0  0  0
   62.3950   32.2090   48.3860 C   0  0  0  0  0  0  0  0  0  0  0  0
   62.2710   33.4130   49.0750 C   0  0  0  0  0  0  0  0  0  0  0  0
   61.2340   34.2890   48.7750 C   0  0  0  0  0  0  0  0  0  0  0  0
   60.3170   33.9760   47.7640 C   0  0  0  0  0  0  0  0  0  0  0  0
   59.2820   34.8790   47.4670 C   0  0  0  0  0  0  0  0  0  0  0  0
   58.3710   34.5960   46.4530 C   0  0  0  0  0  0  0  0  0  0  0  0
   58.4870   33.4180   45.7200 C   0  0  0  0  0  0  0  0  0  0  0  0
   59.5090   32.5090   46.0010 C   0  0  0  0  0  0  0  0  0  0  0  0
   60.4360   32.7550   47.0390 C   0  0  0  0  0  0  0  0  0  0  0  0
  1  2  2  0
  2  3  1  0
  3  4  2  3
  4  5  1  0
  5  6  1  0
  6  7  1  0
  7  8  2  0
  7  9  1  0
  9 10  1  0
 10 11  1  0
  3 12  1  0
 12 13  2  0
 13 14  1  0
 14 15  2  0
 14 16  1  0
 16 17  1  0
 17 18  1  0
 18 19  1  0
 19 20  2  0
 19 21  1  0
 21 22  1  0
 13 23  1  0
 23 24  1  0
 24 25  1  0
 25 26  2  0
 26 27  1  0
 27 28  2  0
 28 29  1  0
 29 30  2  0
 30 31  1  0
 31 32  2  0
 32 33  1  0
 33 34  2  0
 23  2  1  0
 34 25  1  0
 10  5  2  0
 22 16  1  0
 34 29  1  0
M  CHG  3   6  -1   9  -1  11  -1
M  END
>  <UniqueID>  (2082) 
13

>  <SMILES>  (2082) 
C=c1c(=Cc2[n-]c(=O)[n-]c2[O-])cc(C(=O)N2CCC(=O)CC2)n1Cc1cccc2ccccc12

>  <Energy>  (2082) 
141.4945173146248

>  <Genealogy>  (2082) 
C=c1c(=Cc2[n-]c(=O)[n-]c2[O-])cc(C(=O)N2CCC(=O)CC2)n1Cc1cccc2ccccc12 (protonated)
C=c1c(=Cc2[n-]c(=O)[n-]c2[O-])cc(C(=O)N2CCC(=O)CC2)n1Cc1cccc2ccccc12 (3D coordinates assigned)
C=c1c(=Cc2[n-]c(=O)[n-]c2[O-])cc(C(=O)N2CCC(=O)CC2)n1Cc1cccc2ccccc12 (nonaromatic ring conformer: 141.4945173146248 kcal/mol)

>  <smiles>  (2082) 
C=c1c(=Cc2[nH]c(=O)[nH]c2O)cc(C(=O)N2CCC(=O)CC2)n1Cc1cccc2ccccc12

>  <score_type>  (2082) 
oracle

>  <origin>  (2082) 
adg

>  <m_score__min__energy>  (2082) 
-16.620000000000001

>  <m_primary>  (2082) 
energy

$$$$
14:0
     RDKit          3D

 32 35  0  0  0  0  0  0  0  0999 V2000
   53.7980   29.0450   54.5640 C   0  0  0  0  0  0  0  0  0  0  0  0
   54.3330   29.9110   53.6870 C   0  0  0  0  0  0  0  0  0  0  0  0
   53.6420   30.5450   52.6470 C   0  0  0  0  0  0  0  0  0  0  0  0
   52.3540   30.3670   52.2900 C   0  0  0  0  0  0  0  0  0  0  0  0
   51.7780   30.8360   51.0170 C   0  0  0  0  0  0  0  0  0  0  0  0
   51.6540   30.0550   49.9290 N   0  0  0  0  0  0  0  0  0  0  0  0
   51.0110   30.8460   49.0450 C   0  0  0  0  0  0  0  0  0  0  0  0
   50.7220   30.4660   47.8800 O   0  0  0  0  0  0  0  0  0  0  0  0
   50.6940   32.0740   49.5080 N   0  0  0  0  0  0  0  0  0  0  0  0
   51.1740   32.0490   50.7610 C   0  0  0  0  0  0  0  0  0  0  0  0
   51.0190   33.0950   51.6640 O   0  0  0  0  0  0  0  0  0  0  0  0
   54.5590   31.3630   52.0080 C   0  0  0  0  0  0  0  0  0  0  0  0
   55.7580   31.2010   52.6660 C   0  0  0  0  0  0  0  0  0  0  0  0
   56.9990   31.8870   52.2660 C   0  0  0  0  0  0  0  0  0  0  0  0
   57.5120   32.7200   53.0640 O   0  0  0  0  0  0  0  0  0  0  0  0
   57.5180   31.7470   50.9230 N   0  0  0  0  0  0  0  0  0  0  0  0
   57.9490   30.3490   50.6400 C   0  0  0  0  0  0  0  0  0  0  0  0
   59.4760   30.1890   50.6590 C   0  0  0  0  0  0  0  0  0  0  0  0
   60.1170   31.0630   49.6500 N   0  0  0  0  0  0  0  0  0  0  0  0
   61.5510   31.2120   49.9430 C   0  0  0  0  0  0  0  0  0  0  0  0
   59.4550   32.3830   49.4960 C   0  0  0  0  0  0  0  0  0  0  0  0
   58.5890   32.7500   50.7100 C   0  0  0  0  0  0  0  0  0  0  0  0
   55.6320   30.3260   53.6940 N   0  0  0  0  0  0  0  0  0  0  0  0
   56.6960   29.9870   54.6590 C   0  0  0  0  0  0  0  0  0  0  0  0
   57.3380   28.6600   54.3290 C   0  0  0  0  0  0  0  0  0  0  0  0
   56.6330   27.4670   54.5700 C   0  0  0  0  0  0  0  0  0  0  0  0
   57.2150   26.2290   54.2820 C   0  0  0  0  0  0  0  0  0  0  0  0
   58.5120   26.1680   53.7680 C   0  0  0  0  0  0  0  0  0  0  0  0
   59.0760   24.9650   53.4930 F   0  0  0  0  0  0  0  0  0  0  0  0
   59.2340   27.3440   53.5540 C   0  0  0  0  0  0  0  0  0  0  0  0
   58.6580   28.5870   53.8390 C   0  0  0  0  0  0  0  0  0  0  0  0
   59.3930   29.7090   53.6480 F   0  0  0  0  0  0  0  0  0  0  0  0
  1  2  2  0
  2  3  1  0
  3  4  2  3
  4  5  1  0
  5  6  1  0
  6  7  1  0
  7  8  2  0
  7  9  1  0
  9 10  1  0
 10 11  1  0
  3 12  1  0
 12 13  2  0
 13 14  1  0
 14 15  2  0
 14 16  1  0
 16 17  1  0
 17 18  1  0
 18 19  1  0
 19 20  1  0
 19 21  1  0
 21 22  1  0
 13 23  1  0
 23 24  1  0
 24 25  1  0
 25 26  2  0
 26 27  1  0
 27 28  2  0
 28 29  1  0
 28 30  1  0
 30 31  2  0
 31 32  1  0
 23  2  1  0
 31 25  1  0
 10  5  2  0
 22 16  1  0
M  CHG  4   6  -1   9  -1  11  -1  16   1
M  END
>  <UniqueID>  (2083) 
15

>  <SMILES>  (2083) 
C=c1c(=Cc2[n-]c(=O)[n-]c2[O-])cc(C(=O)[NH+]2CCN(C)CC2)n1Cc1ccc(F)cc1F

>  <Energy>  (2083) 
142.43877730759016

>  <Genealogy>  (2083) 
C=c1c(=Cc2[n-]c(=O)[n-]c2[O-])cc(C(=O)[NH+]2CCN(C)CC2)n1Cc1ccc(F)cc1F (protonated)
C=c1c(=Cc2[n-]c(=O)[n-]c2[O-])cc(C(=O)[NH+]2CCN(C)CC2)n1Cc1ccc(F)cc1F (3D coordinates assigned)
C=c1c(=Cc2[n-]c(=O)[n-]c2[O-])cc(C(=O)[NH+]2CCN(C)CC2)n1Cc1ccc(F)cc1F (nonaromatic ring conformer: 142.43877730759016 kcal/mol)

>  <smiles>  (2083) 
C=c1c(=Cc2[nH]c(=O)[nH]c2O)cc(C(=O)N2CCN(C)CC2)n1Cc1ccc(F)cc1F

>  <score_type>  (2083) 
oracle

>  <origin>  (2083) 
adg

>  <m_score__min__energy>  (2083) 
-15.369999999999999

>  <m_primary>  (2083) 
energy

$$$$
17:0
     RDKit          3D

 34 37  0  0  0  0  0  0  0  0999 V2000
   58.5640   28.9280   47.4600 C   0  0  0  0  0  0  0  0  0  0  0  0
   58.2880   29.6380   46.3560 C   0  0  0  0  0  0  0  0  0  0  0  0
   57.3200   29.3550   45.3780 C   0  0  0  0  0  0  0  0  0  0  0  0
   56.5670   28.2580   45.1700 C   0  0  0  0  0  0  0  0  0  0  0  0
   56.7110   26.9740   45.8730 C   0  0  0  0  0  0  0  0  0  0  0  0
   57.8870   26.3830   46.1580 N   0  0  0  0  0  0  0  0  0  0  0  0
   57.5180   25.1860   46.6630 C   0  0  0  0  0  0  0  0  0  0  0  0
   58.3530   24.3360   47.0660 O   0  0  0  0  0  0  0  0  0  0  0  0
   56.1860   24.9660   46.6900 N   0  0  0  0  0  0  0  0  0  0  0  0
   55.6920   26.1030   46.1720 C   0  0  0  0  0  0  0  0  0  0  0  0
   54.3370   26.3360   45.9720 O   0  0  0  0  0  0  0  0  0  0  0  0
   57.2520   30.4770   44.5640 C   0  0  0  0  0  0  0  0  0  0  0  0
   58.2110   31.3580   45.0170 C   0  0  0  0  0  0  0  0  0  0  0  0
   58.4690   32.7170   44.4430 C   0  0  0  0  0  0  0  0  0  0  0  0
   58.8360   30.8530   46.1020 N   0  0  0  0  0  0  0  0  0  0  0  0
   59.8310   31.5360   46.8810 C   0  0  0  0  0  0  0  0  0  0  0  0
   59.4960   32.6740   47.6440 C   0  0  0  0  0  0  0  0  0  0  0  0
   58.0810   33.1820   47.6930 C   0  0  0  0  0  0  0  0  0  0  0  0
   60.4880   33.3040   48.4130 C   0  0  0  0  0  0  0  0  0  0  0  0
   61.8130   32.8380   48.4000 C   0  0  0  0  0  0  0  0  0  0  0  0
   62.8570   33.5020   49.2130 C   0  0  0  0  0  0  0  0  0  0  0  0
   62.7670   34.7410   49.4320 O   0  0  0  0  0  0  0  0  0  0  0  0
   63.9780   32.7730   49.7470 N   0  0  0  0  0  0  0  0  0  0  0  0
   63.8170   31.3990   50.2480 C   0  0  0  0  0  0  0  0  0  0  0  0
   64.4780   31.2430   51.6260 C   0  0  0  0  0  0  0  0  0  0  0  0
   65.8950   31.8990   51.7150 C   0  0  0  0  0  0  0  0  0  0  0  0
   66.9380   31.0260   52.3170 N   0  0  0  0  0  0  0  0  0  0  0  0
   68.2430   31.6800   52.5320 C   0  0  0  0  0  0  0  0  0  0  0  0
   67.0950   29.7580   51.5830 C   0  0  0  0  0  0  0  0  0  0  0  0
   66.3640   32.4920   50.3690 C   0  0  0  0  0  0  0  0  0  0  0  0
   65.2920   33.4290   49.8000 C   0  0  0  0  0  0  0  0  0  0  0  0
   62.1320   31.7040   47.6370 C   0  0  0  0  0  0  0  0  0  0  0  0
   61.1490   31.0610   46.8810 C   0  0  0  0  0  0  0  0  0  0  0  0
   61.4780   29.9670   46.1490 F   0  0  0  0  0  0  0  0  0  0  0  0
  1  2  2  0
  2  3  1  0
  3  4  2  3
  4  5  1  0
  5  6  1  0
  6  7  1  0
  7  8  2  0
  7  9  1  0
  9 10  1  0
 10 11  1  0
  3 12  1  0
 12 13  2  0
 13 14  1  0
 13 15  1  0
 15 16  1  0
 16 17  2  0
 17 18  1  0
 17 19  1  0
 19 20  2  0
 20 21  1  0
 21 22  2  0
 21 23  1  0
 23 24  1  0
 24 25  1  0
 25 26  1  0
 26 27  1  0
 27 28  1  0
 27 29  1  0
 26 30  1  0
 30 31  1  0
 20 32  1  0
 32 33  2  0
 33 34  1  0
 15  2  1  0
 33 16  1  0
 10  5  2  0
 31 23  1  0
M  CHG  3   6  -1   9  -1  11  -1
M  END
>  <UniqueID>  (2084) 
17

>  <SMILES>  (2084) 
C=c1c(=Cc2[n-]c(=O)[n-]c2[O-])cc(C)n1-c1c(C)cc(C(=O)N2CCC(N(C)C)CC2)cc1F

>  <Energy>  (2084) 
151.02073457183235

>  <Genealogy>  (2084) 
C=c1c(=Cc2[n-]c(=O)[n-]c2[O-])cc(C)n1-c1c(C)cc(C(=O)N2CCC(N(C)C)CC2)cc1F (protonated)
C=c1c(=Cc2[n-]c(=O)[n-]c2[O-])cc(C)n1-c1c(C)cc(C(=O)N2CCC(N(C)C)CC2)cc1F (3D coordinates assigned)
C=c1c(=Cc2[n-]c(=O)[n-]c2[O-])cc(C)n1-c1c(C)cc(C(=O)N2CCC(N(C)C)CC2)cc1F (nonaromatic ring conformer: 151.02073457183235 kcal/mol)

>  <smiles>  (2084) 
C=c1c(=Cc2[nH]c(=O)[nH]c2O)cc(C)n1-c1c(C)cc(C(=O)N2CCC(N(C)C)CC2)cc1F

>  <score_type>  (2084) 
oracle

>  <origin>  (2084) 
adg

>  <m_score__min__energy>  (2084) 
-16.57

>  <m_primary>  (2084) 
energy

$$$$
33:0
     RDKit          3D

 30 32  0  0  0  0  0  0  0  0999 V2000
   56.0090   21.7140   42.4010 N   0  0  0  0  0  0  0  0  0  0  0  0
   56.2130   22.3370   43.6680 C   0  0  0  0  0  0  0  0  0  0  0  0
   57.1620   21.9550   44.4020 O   0  0  0  0  0  0  0  0  0  0  0  0
   55.3290   23.4170   44.1370 C   0  0  0  0  0  0  0  0  0  0  0  0
   55.4190   23.9340   45.3690 C   0  0  0  0  0  0  0  0  0  0  0  0
   56.4330   24.9440   45.7460 C   0  0  0  0  0  0  0  0  0  0  0  0
   57.7850   24.5710   45.7230 C   0  0  0  0  0  0  0  0  0  0  0  0
   58.7850   25.4950   46.0350 C   0  0  0  0  0  0  0  0  0  0  0  0
   58.4550   26.8200   46.3600 C   0  0  0  0  0  0  0  0  0  0  0  0
   59.5220   27.7910   46.7080 C   0  0  0  0  0  0  0  0  0  0  0  0
   60.0320   27.7650   47.8600 O   0  0  0  0  0  0  0  0  0  0  0  0
   59.9450   28.8140   45.7940 N   0  0  0  0  0  0  0  0  0  0  0  0
   59.4160   29.9970   45.6880 C   0  0  0  0  0  0  0  0  0  0  0  0
   59.9440   31.0680   46.3460 N   0  0  0  0  0  0  0  0  0  0  0  0
   59.3840   32.3050   46.2450 C   0  0  0  0  0  0  0  0  0  0  0  0
   59.9250   33.3980   46.9320 O   0  0  0  0  0  0  0  0  0  0  0  0
   59.9670   33.5060   48.3560 C   0  0  0  0  0  0  0  0  0  0  0  0
   61.1000   34.4590   48.7460 C   0  0  0  0  0  0  0  0  0  0  0  0
   62.4760   33.8670   48.3830 C   0  0  0  0  0  0  0  0  0  0  0  0
   62.6220   32.4230   48.7090 N   0  0  0  0  0  0  0  0  0  0  0  0
   62.7980   31.5950   47.5020 C   0  0  0  0  0  0  0  0  0  0  0  0
   61.5600   31.8940   49.5890 C   0  0  0  0  0  0  0  0  0  0  0  0
   60.1510   32.1180   49.0100 C   0  0  0  0  0  0  0  0  0  0  0  0
   58.2470   32.4840   45.4530 C   0  0  0  0  0  0  0  0  0  0  0  0
   57.4280   34.2020   45.2660 Br  0  0  0  0  0  0  0  0  0  0  0  0
   57.7100   31.3750   44.7990 C   0  0  0  0  0  0  0  0  0  0  0  0
   58.2980   30.1580   44.9320 N   0  0  0  0  0  0  0  0  0  0  0  0
   57.1020   27.1970   46.3840 C   0  0  0  0  0  0  0  0  0  0  0  0
   56.0970   26.2780   46.0640 C   0  0  0  0  0  0  0  0  0  0  0  0
   54.7780   26.7160   46.0280 O   0  0  0  0  0  0  0  0  0  0  0  0
  1  2  1  0
  2  3  2  0
  2  4  1  0
  4  5  2  0
  5  6  1  0
  6  7  2  0
  7  8  1  0
  8  9  2  0
  9 10  1  0
 10 11  2  0
 10 12  1  0
 12 13  2  3
 13 14  1  0
 14 15  2  0
 15 16  1  0
 16 17  1  0
 17 18  1  0
 18 19  1  0
 19 20  1  0
 20 21  1  0
 20 22  1  0
 22 23  1  0
 15 24  1  0
 24 25  1  0
 24 26  2  0
 26 27  1  0
  9 28  1  0
 28 29  2  0
 29 30  1  0
 29  6  1  0
 27 13  1  0
 23 17  1  0
M  CHG  3   1  -1  27  -1  30  -1
M  END
>  <UniqueID>  (2085) 
32

>  <SMILES>  (2085) 
CN1CCC(Oc2nc(=NC(=O)c3ccc(/C=C/C([NH-])=O)c([O-])c3)[n-]cc2Br)CC1

>  <Energy>  (2085) 
65.1608609020138

>  <Genealogy>  (2085) 
CN1CCC(Oc2nc(=NC(=O)c3ccc(C=CC([NH-])=O)c([O-])c3)[n-]cc2Br)CC1 (protonated)
CN1CCC(Oc2nc(=NC(=O)c3ccc(/C=C/C([NH-])=O)c([O-])c3)[n-]cc2Br)CC1 (cis-trans isomerization)
CN1CCC(Oc2nc(=NC(=O)c3ccc(/C=C/C([NH-])=O)c([O-])c3)[n-]cc2Br)CC1 (3D coordinates assigned)
CN1CCC(Oc2nc(=NC(=O)c3ccc(/C=C/C([NH-])=O)c([O-])c3)[n-]cc2Br)CC1 (nonaromatic ring conformer: 65.1608609020138 kcal/mol)

>  <smiles>  (2085) 
CN1CCC(Oc2nc(=NC(=O)c3ccc(C=CC(N)=O)c(O)c3)[nH]cc2Br)CC1

>  <score_type>  (2085) 
oracle

>  <origin>  (2085) 
adg

>  <m_score__min__energy>  (2085) 
-16.140000000000001

>  <m_primary>  (2085) 
energy

$$$$
42:0
     RDKit          3D

 31 34  0  0  0  0  0  0  0  0999 V2000
   54.6110   31.0830   51.2900 C   0  0  0  0  0  0  0  0  0  0  0  0
   54.4570   30.5110   52.4950 C   0  0  0  0  0  0  0  0  0  0  0  0
   53.2520   30.1240   53.1060 C   0  0  0  0  0  0  0  0  0  0  0  0
   51.9700   30.3650   52.7710 C   0  0  0  0  0  0  0  0  0  0  0  0
   51.4930   30.7590   51.4350 C   0  0  0  0  0  0  0  0  0  0  0  0
   51.6340   30.0170   50.3210 N   0  0  0  0  0  0  0  0  0  0  0  0
   51.1870   30.8350   49.3430 C   0  0  0  0  0  0  0  0  0  0  0  0
   51.1450   30.4880   48.1350 O   0  0  0  0  0  0  0  0  0  0  0  0
   50.8010   32.0600   49.7620 N   0  0  0  0  0  0  0  0  0  0  0  0
   51.0160   31.9990   51.0850 C   0  0  0  0  0  0  0  0  0  0  0  0
   50.7870   33.0560   51.9570 O   0  0  0  0  0  0  0  0  0  0  0  0
   53.6060   29.4060   54.2390 C   0  0  0  0  0  0  0  0  0  0  0  0
   54.9830   29.4280   54.3120 C   0  0  0  0  0  0  0  0  0  0  0  0
   55.7950   28.8010   55.4050 C   0  0  0  0  0  0  0  0  0  0  0  0
   55.4990   30.1060   53.2640 N   0  0  0  0  0  0  0  0  0  0  0  0
   56.9010   30.2790   52.9970 C   0  0  0  0  0  0  0  0  0  0  0  0
   57.5120   29.5430   51.9740 C   0  0  0  0  0  0  0  0  0  0  0  0
   58.8720   29.7130   51.7000 C   0  0  0  0  0  0  0  0  0  0  0  0
   59.6410   30.6180   52.4510 C   0  0  0  0  0  0  0  0  0  0  0  0
   61.0800   30.7990   52.1500 C   0  0  0  0  0  0  0  0  0  0  0  0
   61.9340   30.3860   52.9830 O   0  0  0  0  0  0  0  0  0  0  0  0
   61.5260   31.4270   50.9330 N   0  0  0  0  0  0  0  0  0  0  0  0
   60.7770   32.5480   50.3430 C   0  0  0  0  0  0  0  0  0  0  0  0
   61.7500   33.6380   49.8890 C   0  0  0  0  0  0  0  0  0  0  0  0
   62.8060   33.1120   48.8840 C   0  0  0  0  0  0  0  0  0  0  0  0
   64.0440   33.7280   49.1270 O   0  0  0  0  0  0  0  0  0  0  0  0
   62.9840   31.5800   48.9350 C   0  0  0  0  0  0  0  0  0  0  0  0
   62.8150   31.0220   50.3530 C   0  0  0  0  0  0  0  0  0  0  0  0
   59.0170   31.3730   53.4580 C   0  0  0  0  0  0  0  0  0  0  0  0
   57.6560   31.2040   53.7310 C   0  0  0  0  0  0  0  0  0  0  0  0
   57.0690   31.9530   54.6980 F   0  0  0  0  0  0  0  0  0  0  0  0
  1  2  2  0
  2  3  1  0
  3  4  2  3
  4  5  1  0
  5  6  1  0
  6  7  1  0
  7  8  2  0
  7  9  1  0
  9 10  1  0
 10 11  1  0
  3 12  1  0
 12 13  2  0
 13 14  1  0
 13 15  1  0
 15 16  1  0
 16 17  2  0
 17 18  1  0
 18 19  2  0
 19 20  1  0
 20 21  2  0
 20 22  1  0
 22 23  1  0
 23 24  1  0
 24 25  1  0
 25 26  1  0
 25 27  1  0
 27 28  1  0
 19 29  1  0
 29 30  2  0
 30 31  1  0
 15  2  1  0
 30 16  1  0
 10  5  2  0
 28 22  1  0
M  CHG  3   6  -1   9  -1  11  -1
M  END
>  <UniqueID>  (2086) 
40

>  <SMILES>  (2086) 
C=c1c(=Cc2[n-]c(=O)[n-]c2[O-])cc(C)n1-c1ccc(C(=O)N2CCC(O)CC2)cc1F

>  <Energy>  (2086) 
135.65946700300148

>  <Genealogy>  (2086) 
C=c1c(=Cc2[n-]c(=O)[n-]c2[O-])cc(C)n1-c1ccc(C(=O)N2CCC(O)CC2)cc1F (protonated)
C=c1c(=Cc2[n-]c(=O)[n-]c2[O-])cc(C)n1-c1ccc(C(=O)N2CCC(O)CC2)cc1F (3D coordinates assigned)
C=c1c(=Cc2[n-]c(=O)[n-]c2[O-])cc(C)n1-c1ccc(C(=O)N2CCC(O)CC2)cc1F (nonaromatic ring conformer: 135.65946700300148 kcal/mol)

>  <smiles>  (2086) 
C=c1c(=Cc2[nH]c(=O)[nH]c2O)cc(C)n1-c1ccc(C(=O)N2CCC(O)CC2)cc1F

>  <score_type>  (2086) 
oracle

>  <origin>  (2086) 
adg

>  <m_score__min__energy>  (2086) 
-15.609999999999999

>  <m_primary>  (2086) 
energy

$$$$
45:0
     RDKit          3D

 25 27  0  0  0  0  0  0  0  0999 V2000
   56.2810   29.7550   44.8150 C   0  0  0  0  0  0  0  0  0  0  0  0
   57.5320   29.4110   45.1550 C   0  0  0  0  0  0  0  0  0  0  0  0
   58.0760   28.1230   45.1440 C   0  0  0  0  0  0  0  0  0  0  0  0
   57.4530   26.9740   44.8160 C   0  0  0  0  0  0  0  0  0  0  0  0
   57.1480   25.9030   45.7910 C   0  0  0  0  0  0  0  0  0  0  0  0
   55.8590   25.7920   46.3330 C   0  0  0  0  0  0  0  0  0  0  0  0
   54.8660   26.7020   45.9900 O   0  0  0  0  0  0  0  0  0  0  0  0
   55.5740   24.7950   47.2090 N   0  0  0  0  0  0  0  0  0  0  0  0
   56.5150   23.8840   47.5650 C   0  0  0  0  0  0  0  0  0  0  0  0
   56.2290   22.9710   48.3820 O   0  0  0  0  0  0  0  0  0  0  0  0
   57.7630   23.9520   47.0340 N   0  0  0  0  0  0  0  0  0  0  0  0
   58.0980   24.9290   46.1530 C   0  0  0  0  0  0  0  0  0  0  0  0
   59.2550   24.9390   45.6550 O   0  0  0  0  0  0  0  0  0  0  0  0
   59.3880   28.2470   45.5870 C   0  0  0  0  0  0  0  0  0  0  0  0
   59.5940   29.5910   45.8330 C   0  0  0  0  0  0  0  0  0  0  0  0
   60.8650   30.1800   46.3650 C   0  0  0  0  0  0  0  0  0  0  0  0
   58.4710   30.2930   45.5750 N   0  0  0  0  0  0  0  0  0  0  0  0
   58.3150   31.7130   45.7430 C   0  0  0  0  0  0  0  0  0  0  0  0
   58.3620   32.2720   47.0290 C   0  0  0  0  0  0  0  0  0  0  0  0
   58.5460   31.4780   48.1130 F   0  0  0  0  0  0  0  0  0  0  0  0
   58.2140   33.6520   47.2000 C   0  0  0  0  0  0  0  0  0  0  0  0
   58.0180   34.4780   46.0900 C   0  0  0  0  0  0  0  0  0  0  0  0
   57.9720   33.9270   44.8060 C   0  0  0  0  0  0  0  0  0  0  0  0
   58.1210   32.5460   44.6260 C   0  0  0  0  0  0  0  0  0  0  0  0
   58.0790   31.8850   42.9990 Cl  0  0  0  0  0  0  0  0  0  0  0  0
  1  2  2  0
  2  3  1  0
  3  4  2  0
  4  5  1  0
  5  6  2  0
  6  7  1  0
  6  8  1  0
  8  9  1  0
  9 10  2  0
  9 11  1  0
 11 12  1  0
 12 13  2  0
  3 14  1  0
 14 15  2  0
 15 16  1  0
 15 17  1  0
 17 18  1  0
 18 19  2  0
 19 20  1  0
 19 21  1  0
 21 22  2  0
 22 23  1  0
 23 24  2  0
 24 25  1  0
 17  2  1  0
 24 18  1  0
 12  5  1  0
M  CHG  3   7  -1   8  -1  11  -1
M  END
>  <UniqueID>  (2087) 
43

>  <SMILES>  (2087) 
C=c1/c(=C/c2c([O-])[n-]c(=O)[n-]c2=O)cc(C)n1-c1c(F)cccc1Cl

>  <Energy>  (2087) 
83.39223052408448

>  <Genealogy>  (2087) 
C=c1c(=Cc2c([O-])[n-]c(=O)[n-]c2=O)cc(C)n1-c1c(F)cccc1Cl (protonated)
C=c1/c(=C/c2c([O-])[n-]c(=O)[n-]c2=O)cc(C)n1-c1c(F)cccc1Cl (cis-trans isomerization)
C=c1/c(=C/c2c([O-])[n-]c(=O)[n-]c2=O)cc(C)n1-c1c(F)cccc1Cl (3D coordinates assigned)
C=c1/c(=C/c2c([O-])[n-]c(=O)[n-]c2=O)cc(C)n1-c1c(F)cccc1Cl (optimized conformer: 83.39223052408448 kcal/mol)

>  <smiles>  (2087) 
C=c1c(=Cc2c(O)[nH]c(=O)[nH]c2=O)cc(C)n1-c1c(F)cccc1Cl

>  <score_type>  (2087) 
oracle

>  <origin>  (2087) 
adg

>  <m_score__min__energy>  (2087) 
-15.49

>  <m_primary>  (2087) 
energy

$$$$
51:0
     RDKit          3D

 36 39  0  0  0  0  0  0  0  0999 V2000
   59.8320   29.9120   46.8380 C   0  0  0  0  0  0  0  0  0  0  0  0
   59.0830   30.8310   46.2050 C   0  0  0  0  0  0  0  0  0  0  0  0
   58.2780   30.6400   45.0690 C   0  0  0  0  0  0  0  0  0  0  0  0
   57.9420   29.5200   44.3980 C   0  0  0  0  0  0  0  0  0  0  0  0
   57.3970   28.2860   44.9980 C   0  0  0  0  0  0  0  0  0  0  0  0
   56.0230   28.1690   45.2500 C   0  0  0  0  0  0  0  0  0  0  0  0
   55.1450   29.1780   44.8680 O   0  0  0  0  0  0  0  0  0  0  0  0
   55.5380   27.0620   45.8650 N   0  0  0  0  0  0  0  0  0  0  0  0
   56.3670   26.0620   46.2660 C   0  0  0  0  0  0  0  0  0  0  0  0
   55.9000   25.0530   46.8510 O   0  0  0  0  0  0  0  0  0  0  0  0
   57.7050   26.1580   46.0490 N   0  0  0  0  0  0  0  0  0  0  0  0
   58.2360   27.2430   45.4290 C   0  0  0  0  0  0  0  0  0  0  0  0
   59.4820   27.3040   45.2540 O   0  0  0  0  0  0  0  0  0  0  0  0
   57.7950   31.8920   44.7210 C   0  0  0  0  0  0  0  0  0  0  0  0
   58.2800   32.7840   45.6530 C   0  0  0  0  0  0  0  0  0  0  0  0
   57.9320   34.2420   45.6990 C   0  0  0  0  0  0  0  0  0  0  0  0
   59.0510   32.1420   46.5580 N   0  0  0  0  0  0  0  0  0  0  0  0
   59.7300   32.7610   47.6640 C   0  0  0  0  0  0  0  0  0  0  0  0
   59.1160   32.8080   48.9240 C   0  0  0  0  0  0  0  0  0  0  0  0
   59.7900   33.3730   50.0140 C   0  0  0  0  0  0  0  0  0  0  0  0
   59.1770   33.3440   51.3490 C   0  0  0  0  0  0  0  0  0  0  0  0
   59.2390   34.3740   52.0750 O   0  0  0  0  0  0  0  0  0  0  0  0
   58.5080   32.1520   51.8230 N   0  0  0  0  0  0  0  0  0  0  0  0
   59.3270   30.9450   51.5510 C   0  0  0  0  0  0  0  0  0  0  0  0
   58.4840   29.6770   51.2910 C   0  0  0  0  0  0  0  0  0  0  0  0
   57.1950   29.6530   52.0280 N   0  0  0  0  0  0  0  0  0  0  0  0
   57.1400   28.9410   53.3490 C   0  0  0  0  0  0  0  0  0  0  0  0
   58.2960   27.9290   53.5020 C   0  0  0  0  0  0  0  0  0  0  0  0
   57.2110   29.9720   54.5080 C   0  0  0  0  0  0  0  0  0  0  0  0
   55.7950   28.1880   53.5190 C   0  0  0  0  0  0  0  0  0  0  0  0
   56.3920   30.9010   51.8970 C   0  0  0  0  0  0  0  0  0  0  0  0
   57.1630   32.0540   51.2320 C   0  0  0  0  0  0  0  0  0  0  0  0
   61.0770   33.9030   49.8410 C   0  0  0  0  0  0  0  0  0  0  0  0
   61.6800   33.8800   48.5800 C   0  0  0  0  0  0  0  0  0  0  0  0
   61.0060   33.3220   47.4890 C   0  0  0  0  0  0  0  0  0  0  0  0
   61.5970   33.3150   46.2670 F   0  0  0  0  0  0  0  0  0  0  0  0
  1  2  2  0
  2  3  1  0
  3  4  2  3
  4  5  1  0
  5  6  2  0
  6  7  1  0
  6  8  1  0
  8  9  1  0
  9 10  2  0
  9 11  1  0
 11 12  1  0
 12 13  2  0
  3 14  1  0
 14 15  2  0
 15 16  1  0
 15 17  1  0
 17 18  1  0
 18 19  2  0
 19 20  1  0
 20 21  1  0
 21 22  2  0
 21 23  1  0
 23 24  1  0
 24 25  1  0
 25 26  1  0
 26 27  1  0
 27 28  1  0
 27 29  1  0
 27 30  1  0
 26 31  1  0
 31 32  1  0
 20 33  2  0
 33 34  1  0
 34 35  2  0
 35 36  1  0
 17  2  1  0
 35 18  1  0
 12  5  1  0
 32 23  1  0
M  CHG  4   7  -1   8  -1  11  -1  23   1
M  END
>  <UniqueID>  (2088) 
46

>  <SMILES>  (2088) 
C=c1c(=Cc2c([O-])[n-]c(=O)[n-]c2=O)cc(C)n1-c1cc(C(=O)[NH+]2CCN(C(C)(C)C)CC2)ccc1F

>  <Energy>  (2088) 
146.1430140052196

>  <Genealogy>  (2088) 
C=c1c(=Cc2c([O-])[n-]c(=O)[n-]c2=O)cc(C)n1-c1cc(C(=O)[NH+]2CCN(C(C)(C)C)CC2)ccc1F (protonated)
C=c1c(=Cc2c([O-])[n-]c(=O)[n-]c2=O)cc(C)n1-c1cc(C(=O)[NH+]2CCN(C(C)(C)C)CC2)ccc1F (3D coordinates assigned)
C=c1c(=Cc2c([O-])[n-]c(=O)[n-]c2=O)cc(C)n1-c1cc(C(=O)[NH+]2CCN(C(C)(C)C)CC2)ccc1F (nonaromatic ring conformer: 146.1430140052196 kcal/mol)

>  <smiles>  (2088) 
C=c1c(=Cc2c(O)[nH]c(=O)[nH]c2=O)cc(C)n1-c1cc(C(=O)N2CCN(C(C)(C)C)CC2)ccc1F

>  <score_type>  (2088) 
oracle

>  <origin>  (2088) 
adg

>  <m_score__min__energy>  (2088) 
-16.420000000000002

>  <m_primary>  (2088) 
energy

$$$$
53:0
     RDKit          3D

 29 31  0  0  0  0  0  0  0  0999 V2000
   59.7490   26.2350   47.0860 O   0  0  0  0  0  0  0  0  0  0  0  0
   59.7510   27.6270   47.1180 C   0  0  0  0  0  0  0  0  0  0  0  0
   59.0950   28.3190   48.1460 C   0  0  0  0  0  0  0  0  0  0  0  0
   59.1030   29.7170   48.1690 C   0  0  0  0  0  0  0  0  0  0  0  0
   59.7760   30.4380   47.1690 C   0  0  0  0  0  0  0  0  0  0  0  0
   59.7650   31.9430   47.1740 C   0  0  0  0  0  0  0  0  0  0  0  0
   58.3810   32.4450   46.8750 C   0  0  0  0  0  0  0  0  0  0  0  0
   57.9770   33.5000   47.4300 O   0  0  0  0  0  0  0  0  0  0  0  0
   57.4620   31.6870   46.0790 N   0  0  0  0  0  0  0  0  0  0  0  0
   57.4250   31.6560   44.6440 C   0  0  0  0  0  0  0  0  0  0  0  0
   57.8390   32.7750   43.8990 C   0  0  0  0  0  0  0  0  0  0  0  0
   57.8280   32.7410   42.5040 C   0  0  0  0  0  0  0  0  0  0  0  0
   57.4000   31.5940   41.8370 C   0  0  0  0  0  0  0  0  0  0  0  0
   56.9620   30.4840   42.5630 C   0  0  0  0  0  0  0  0  0  0  0  0
   56.9450   30.5110   43.9680 C   0  0  0  0  0  0  0  0  0  0  0  0
   56.4730   29.3140   44.6990 C   0  0  0  0  0  0  0  0  0  0  0  0
   55.3200   29.3270   45.2140 O   0  0  0  0  0  0  0  0  0  0  0  0
   57.3270   28.1290   44.8910 C   0  0  0  0  0  0  0  0  0  0  0  0
   58.3420   27.9610   44.1600 O   0  0  0  0  0  0  0  0  0  0  0  0
   57.0120   27.2010   45.9440 N   0  0  0  0  0  0  0  0  0  0  0  0
   56.7860   25.9250   45.8210 C   0  0  0  0  0  0  0  0  0  0  0  0
   57.8110   25.0330   45.6890 N   0  0  0  0  0  0  0  0  0  0  0  0
   57.5930   23.6960   45.5650 C   0  0  0  0  0  0  0  0  0  0  0  0
   56.2900   23.1980   45.5710 C   0  0  0  0  0  0  0  0  0  0  0  0
   55.2200   24.0840   45.7090 C   0  0  0  0  0  0  0  0  0  0  0  0
   55.4620   25.4550   45.8280 C   0  0  0  0  0  0  0  0  0  0  0  0
   54.3940   26.3380   45.9510 O   0  0  0  0  0  0  0  0  0  0  0  0
   60.4230   29.7410   46.1350 C   0  0  0  0  0  0  0  0  0  0  0  0
   60.4110   28.3420   46.1120 C   0  0  0  0  0  0  0  0  0  0  0  0
  1  2  1  0
  2  3  2  0
  3  4  1  0
  4  5  2  0
  5  6  1  0
  6  7  1  0
  7  8  2  0
  7  9  1  0
  9 10  1  0
 10 11  2  0
 11 12  1  0
 12 13  2  0
 13 14  1  0
 14 15  2  0
 15 16  1  0
 16 17  2  0
 16 18  1  0
 18 19  2  0
 18 20  1  0
 20 21  2  0
 21 22  1  0
 22 23  1  0
 23 24  2  0
 24 25  1  0
 25 26  2  0
 26 27  1  0
  5 28  1  0
 28 29  2  0
 29  2  1  0
 15 10  1  0
 26 21  1  0
M  CHG  3   9  -1  22  -1  27  -1
M  END
>  <UniqueID>  (2089) 
48

>  <SMILES>  (2089) 
O=C(Cc1ccc(O)cc1)[N-]c1ccccc1C(=O)C(=O)/N=c1\[n-]cccc1[O-]

>  <Energy>  (2089) 
58.58392719236301

>  <Genealogy>  (2089) 
O=C(Cc1ccc(O)cc1)[N-]c1ccccc1C(=O)C(=O)N=c1[n-]cccc1[O-] (protonated)
O=C(Cc1ccc(O)cc1)[N-]c1ccccc1C(=O)C(=O)/N=c1\[n-]cccc1[O-] (cis-trans isomerization)
O=C(Cc1ccc(O)cc1)[N-]c1ccccc1C(=O)C(=O)/N=c1\[n-]cccc1[O-] (3D coordinates assigned)
O=C(Cc1ccc(O)cc1)[N-]c1ccccc1C(=O)C(=O)/N=c1\[n-]cccc1[O-] (optimized conformer: 58.58392719236301 kcal/mol)

>  <smiles>  (2089) 
O=C(Cc1ccc(O)cc1)Nc1ccccc1C(=O)C(=O)N=c1[nH]cccc1O

>  <score_type>  (2089) 
oracle

>  <origin>  (2089) 
adg

>  <m_score__min__energy>  (2089) 
-15.470000000000001

>  <m_primary>  (2089) 
energy

$$$$
57:0
     RDKit          3D

 32 35  0  0  0  0  0  0  0  0999 V2000
   55.2450   26.5160   46.2590 O   0  0  0  0  0  0  0  0  0  0  0  0
   55.1630   25.2830   45.6090 C   0  0  0  0  0  0  0  0  0  0  0  0
   54.0680   24.5070   45.8230 N   0  0  0  0  0  0  0  0  0  0  0  0
   53.9270   23.3010   45.2180 C   0  0  0  0  0  0  0  0  0  0  0  0
   52.9000   22.6070   45.4320 O   0  0  0  0  0  0  0  0  0  0  0  0
   54.8930   22.8410   44.3850 N   0  0  0  0  0  0  0  0  0  0  0  0
   56.0110   23.5700   44.1360 C   0  0  0  0  0  0  0  0  0  0  0  0
   56.9000   23.0960   43.3790 O   0  0  0  0  0  0  0  0  0  0  0  0
   56.1730   24.8350   44.7340 C   0  0  0  0  0  0  0  0  0  0  0  0
   57.3950   25.6400   44.5090 C   0  0  0  0  0  0  0  0  0  0  0  0
   58.0760   26.2400   45.5050 C   0  0  0  0  0  0  0  0  0  0  0  0
   58.6410   25.6080   46.6050 C   0  0  0  0  0  0  0  0  0  0  0  0
   59.2610   26.5920   47.3500 C   0  0  0  0  0  0  0  0  0  0  0  0
   60.0140   26.3480   48.6210 C   0  0  0  0  0  0  0  0  0  0  0  0
   59.1190   27.7970   46.7520 N   0  0  0  0  0  0  0  0  0  0  0  0
   59.6350   29.0450   47.2460 C   0  0  0  0  0  0  0  0  0  0  0  0
   60.7930   29.6010   46.6860 C   0  0  0  0  0  0  0  0  0  0  0  0
   61.3020   30.8080   47.1740 C   0  0  0  0  0  0  0  0  0  0  0  0
   60.6670   31.4680   48.2400 C   0  0  0  0  0  0  0  0  0  0  0  0
   61.2040   32.7500   48.7450 C   0  0  0  0  0  0  0  0  0  0  0  0
   60.9310   33.8160   48.1280 O   0  0  0  0  0  0  0  0  0  0  0  0
   62.0470   32.8030   49.9130 N   0  0  0  0  0  0  0  0  0  0  0  0
   62.0150   33.9780   50.7930 C   0  0  0  0  0  0  0  0  0  0  0  0
   63.3660   34.7120   50.7720 C   0  0  0  0  0  0  0  0  0  0  0  0
   64.5820   33.7580   50.6090 C   0  0  0  0  0  0  0  0  0  0  0  0
   65.7890   34.2590   51.4100 C   0  0  0  0  0  0  0  0  0  0  0  0
   64.2320   32.3100   50.9970 C   0  0  0  0  0  0  0  0  0  0  0  0
   63.0920   31.7840   50.1100 C   0  0  0  0  0  0  0  0  0  0  0  0
   59.4970   30.9160   48.7870 C   0  0  0  0  0  0  0  0  0  0  0  0
   58.9890   29.7100   48.2980 C   0  0  0  0  0  0  0  0  0  0  0  0
   58.3960   27.5950   45.6210 C   0  0  0  0  0  0  0  0  0  0  0  0
   58.0780   28.5660   44.7490 C   0  0  0  0  0  0  0  0  0  0  0  0
  1  2  1  0
  2  3  1  0
  3  4  1  0
  4  5  2  0
  4  6  1  0
  6  7  1  0
  7  8  2  0
  7  9  1  0
  9 10  1  0
 10 11  2  0
 11 12  1  0
 12 13  2  0
 13 14  1  0
 13 15  1  0
 15 16  1  0
 16 17  2  0
 17 18  1  0
 18 19  2  0
 19 20  1  0
 20 21  2  0
 20 22  1  0
 22 23  1  0
 23 24  1  0
 24 25  1  0
 25 26  1  0
 25 27  1  0
 27 28  1  0
 19 29  1  0
 29 30  2  0
 15 31  1  0
 31 32  2  0
  9  2  2  0
 31 11  1  0
 30 16  1  0
 28 22  1  0
M  CHG  2   3  -1   6  -1
M  END
>  <UniqueID>  (2090) 
52

>  <SMILES>  (2090) 
C=c1/c(=C/c2c(O)[n-]c(=O)[n-]c2=O)cc(C)n1-c1ccc(C(=O)N2CCC(C)CC2)cc1

>  <Energy>  (2090) 
109.87883162693143

>  <Genealogy>  (2090) 
C=c1c(=Cc2c(O)[n-]c(=O)[n-]c2=O)cc(C)n1-c1ccc(C(=O)N2CCC(C)CC2)cc1 (protonated)
C=c1/c(=C/c2c(O)[n-]c(=O)[n-]c2=O)cc(C)n1-c1ccc(C(=O)N2CCC(C)CC2)cc1 (cis-trans isomerization)
C=c1/c(=C/c2c(O)[n-]c(=O)[n-]c2=O)cc(C)n1-c1ccc(C(=O)N2CCC(C)CC2)cc1 (3D coordinates assigned)
C=c1/c(=C/c2c(O)[n-]c(=O)[n-]c2=O)cc(C)n1-c1ccc(C(=O)N2CCC(C)CC2)cc1 (nonaromatic ring conformer: 109.87883162693143 kcal/mol)

>  <smiles>  (2090) 
C=c1c(=Cc2c(O)[nH]c(=O)[nH]c2=O)cc(C)n1-c1ccc(C(=O)N2CCC(C)CC2)cc1

>  <score_type>  (2090) 
oracle

>  <origin>  (2090) 
adg

>  <m_score__min__energy>  (2090) 
-14.039999999999999

>  <m_primary>  (2090) 
energy

$$$$
73:0
     RDKit          3D

 31 34  0  0  0  0  0  0  0  0999 V2000
   60.6170   27.4390   47.9450 C   0  0  0  0  0  0  0  0  0  0  0  0
   59.8700   28.4980   47.5910 C   0  0  0  0  0  0  0  0  0  0  0  0
   58.8200   28.5030   46.6570 C   0  0  0  0  0  0  0  0  0  0  0  0
   58.4160   27.5700   45.7720 C   0  0  0  0  0  0  0  0  0  0  0  0
   57.1890   26.7660   45.8710 C   0  0  0  0  0  0  0  0  0  0  0  0
   57.1550   25.5190   46.3740 N   0  0  0  0  0  0  0  0  0  0  0  0
   55.8370   25.2260   46.3910 C   0  0  0  0  0  0  0  0  0  0  0  0
   55.3950   24.1170   46.7900 O   0  0  0  0  0  0  0  0  0  0  0  0
   55.0270   26.2170   45.9590 N   0  0  0  0  0  0  0  0  0  0  0  0
   55.8990   27.1910   45.6480 C   0  0  0  0  0  0  0  0  0  0  0  0
   55.5190   28.4490   45.1970 O   0  0  0  0  0  0  0  0  0  0  0  0
   58.2150   29.7390   46.7610 C   0  0  0  0  0  0  0  0  0  0  0  0
   58.9350   30.4680   47.6850 C   0  0  0  0  0  0  0  0  0  0  0  0
   58.6350   31.8750   48.0330 C   0  0  0  0  0  0  0  0  0  0  0  0
   58.4720   32.1950   49.2410 O   0  0  0  0  0  0  0  0  0  0  0  0
   58.5900   32.8960   47.0180 N   0  0  0  0  0  0  0  0  0  0  0  0
   59.0490   34.2500   47.3490 C   0  0  0  0  0  0  0  0  0  0  0  0
   59.3890   35.0370   46.1150 C   0  0  0  0  0  0  0  0  0  0  0  0
   59.9900   36.1380   46.2300 O   0  0  0  0  0  0  0  0  0  0  0  0
   58.9870   34.5820   44.8170 N   0  0  0  0  0  0  0  0  0  0  0  0
   58.5020   33.2230   44.5960 C   0  0  0  0  0  0  0  0  0  0  0  0
   57.7560   32.7120   45.8250 C   0  0  0  0  0  0  0  0  0  0  0  0
   59.9470   29.7200   48.1930 N   0  0  0  0  0  0  0  0  0  0  0  0
   60.8860   30.1520   49.2440 C   0  0  0  0  0  0  0  0  0  0  0  0
   61.7300   31.3170   48.7860 C   0  0  0  0  0  0  0  0  0  0  0  0
   62.3920   31.2610   47.5470 C   0  0  0  0  0  0  0  0  0  0  0  0
   63.1550   32.3460   47.1030 C   0  0  0  0  0  0  0  0  0  0  0  0
   63.2510   33.5020   47.8820 C   0  0  0  0  0  0  0  0  0  0  0  0
   63.9890   34.5530   47.4490 F   0  0  0  0  0  0  0  0  0  0  0  0
   62.5800   33.5760   49.1050 C   0  0  0  0  0  0  0  0  0  0  0  0
   61.8170   32.4930   49.5540 C   0  0  0  0  0  0  0  0  0  0  0  0
  1  2  2  0
  2  3  1  0
  3  4  2  0
  4  5  1  0
  5  6  1  0
  6  7  1  0
  7  8  2  0
  7  9  1  0
  9 10  1  0
 10 11  1  0
  3 12  1  0
 12 13  2  0
 13 14  1  0
 14 15  2  0
 14 16  1  0
 16 17  1  0
 17 18  1  0
 18 19  2  0
 18 20  1  0
 20 21  1  0
 21 22  1  0
 13 23  1  0
 23 24  1  0
 24 25  1  0
 25 26  2  0
 26 27  1  0
 27 28  2  0
 28 29  1  0
 28 30  1  0
 30 31  2  0
 23  2  1  0
 31 25  1  0
 10  5  2  0
 22 16  1  0
M  CHG  3   6  -1   9  -1  11  -1
M  END
>  <UniqueID>  (2091) 
65

>  <SMILES>  (2091) 
C=c1/c(=C\c2[n-]c(=O)[n-]c2[O-])cc(C(=O)N2CCNC(=O)C2)n1Cc1ccc(F)cc1

>  <Energy>  (2091) 
126.05068717068211

>  <Genealogy>  (2091) 
C=c1c(=Cc2[n-]c(=O)[n-]c2[O-])cc(C(=O)N2CCNC(=O)C2)n1Cc1ccc(F)cc1 (protonated)
C=c1/c(=C\c2[n-]c(=O)[n-]c2[O-])cc(C(=O)N2CCNC(=O)C2)n1Cc1ccc(F)cc1 (cis-trans isomerization)
C=c1/c(=C\c2[n-]c(=O)[n-]c2[O-])cc(C(=O)N2CCNC(=O)C2)n1Cc1ccc(F)cc1 (3D coordinates assigned)
C=c1/c(=C\c2[n-]c(=O)[n-]c2[O-])cc(C(=O)N2CCNC(=O)C2)n1Cc1ccc(F)cc1 (nonaromatic ring conformer: 126.05068717068211 kcal/mol)

>  <smiles>  (2091) 
C=c1c(=Cc2[nH]c(=O)[nH]c2O)cc(C(=O)N2CCNC(=O)C2)n1Cc1ccc(F)cc1

>  <score_type>  (2091) 
oracle

>  <origin>  (2091) 
adg

>  <m_score__min__energy>  (2091) 
-16.530000000000001

>  <m_primary>  (2091) 
energy

$$$$
82:0
     RDKit          3D

 29 32  0  0  0  0  0  0  0  0999 V2000
   57.2550   23.3230   45.8080 C   0  0  0  0  0  0  0  0  0  0  0  0
   57.6260   24.6280   45.8920 N   0  0  0  0  0  0  0  0  0  0  0  0
   56.7140   25.6400   45.9440 C   0  0  0  0  0  0  0  0  0  0  0  0
   57.0850   26.8860   46.0430 N   0  0  0  0  0  0  0  0  0  0  0  0
   58.3090   27.4890   45.5850 C   0  0  0  0  0  0  0  0  0  0  0  0
   59.3980   27.0220   46.0140 O   0  0  0  0  0  0  0  0  0  0  0  0
   58.3270   28.6540   44.6240 C   0  0  0  0  0  0  0  0  0  0  0  0
   58.4750   29.9760   45.3410 C   0  0  0  0  0  0  0  0  0  0  0  0
   59.6250   30.2320   46.0990 C   0  0  0  0  0  0  0  0  0  0  0  0
   59.7850   31.4580   46.7420 C   0  0  0  0  0  0  0  0  0  0  0  0
   58.7880   32.4360   46.6270 C   0  0  0  0  0  0  0  0  0  0  0  0
   58.9460   33.7400   47.3060 C   0  0  0  0  0  0  0  0  0  0  0  0
   58.1630   34.6870   47.0220 O   0  0  0  0  0  0  0  0  0  0  0  0
   60.0010   33.9500   48.2590 N   0  0  0  0  0  0  0  0  0  0  0  0
   61.3880   33.7800   48.0050 C   0  0  0  0  0  0  0  0  0  0  0  0
   62.0260   33.7650   46.7590 C   0  0  0  0  0  0  0  0  0  0  0  0
   63.4220   33.6120   46.7250 C   0  0  0  0  0  0  0  0  0  0  0  0
   64.1500   33.4880   47.9240 C   0  0  0  0  0  0  0  0  0  0  0  0
   63.4880   33.5240   49.1610 C   0  0  0  0  0  0  0  0  0  0  0  0
   62.1000   33.6750   49.1680 C   0  0  0  0  0  0  0  0  0  0  0  0
   61.1960   33.7610   50.3460 C   0  0  0  0  0  0  0  0  0  0  0  0
   59.7950   33.9360   49.7110 C   0  0  0  0  0  0  0  0  0  0  0  0
   57.6860   32.1860   45.8580 N   0  0  0  0  0  0  0  0  0  0  0  0
   57.5100   30.9940   45.2190 C   0  0  0  0  0  0  0  0  0  0  0  0
   56.4810   30.8170   44.5120 O   0  0  0  0  0  0  0  0  0  0  0  0
   55.3440   25.3310   45.9250 C   0  0  0  0  0  0  0  0  0  0  0  0
   54.3870   26.3380   45.9890 O   0  0  0  0  0  0  0  0  0  0  0  0
   54.9430   23.9950   45.8380 C   0  0  0  0  0  0  0  0  0  0  0  0
   55.9020   22.9830   45.7790 C   0  0  0  0  0  0  0  0  0  0  0  0
  1  2  1  0
  2  3  1  0
  3  4  2  0
  4  5  1  0
  5  6  2  0
  5  7  1  0
  7  8  1  0
  8  9  2  0
  9 10  1  0
 10 11  2  0
 11 12  1  0
 12 13  2  0
 12 14  1  0
 14 15  1  0
 15 16  2  0
 16 17  1  0
 17 18  2  0
 18 19  1  0
 19 20  2  0
 20 21  1  0
 21 22  1  0
 11 23  1  0
 23 24  1  0
 24 25  2  0
  3 26  1  0
 26 27  1  0
 26 28  2  0
 28 29  1  0
 29  1  2  0
 24  8  1  0
 22 14  1  0
 20 15  1  0
M  CHG  2   2  -1  27  -1
M  END
>  <UniqueID>  (2092) 
73

>  <SMILES>  (2092) 
O=C(Cc1ccc(C(=O)N2CCc3ccccc32)[nH]c1=O)/N=c1\[n-]cccc1[O-]

>  <Energy>  (2092) 
76.67951581623997

>  <Genealogy>  (2092) 
O=C(Cc1ccc(C(=O)N2CCc3ccccc32)[nH]c1=O)N=c1[n-]cccc1[O-] (protonated)
O=C(Cc1ccc(C(=O)N2CCc3ccccc32)[nH]c1=O)/N=c1\[n-]cccc1[O-] (cis-trans isomerization)
O=C(Cc1ccc(C(=O)N2CCc3ccccc32)[nH]c1=O)/N=c1\[n-]cccc1[O-] (3D coordinates assigned)
O=C(Cc1ccc(C(=O)N2CCc3ccccc32)[nH]c1=O)/N=c1\[n-]cccc1[O-] (nonaromatic ring conformer: 76.67951581623997 kcal/mol)

>  <smiles>  (2092) 
O=C(Cc1ccc(C(=O)N2CCc3ccccc32)[nH]c1=O)N=c1[nH]cccc1O

>  <score_type>  (2092) 
oracle

>  <origin>  (2092) 
adg

>  <m_score__min__energy>  (2092) 
-15.34

>  <m_primary>  (2092) 
energy

$$$$
86:0
     RDKit          3D

 28 31  0  0  0  0  0  0  0  0999 V2000
   58.7530   28.5260   47.1040 C   0  0  0  0  0  0  0  0  0  0  0  0
   58.3550   28.8440   45.8630 C   0  0  0  0  0  0  0  0  0  0  0  0
   57.8450   27.9750   44.8830 C   0  0  0  0  0  0  0  0  0  0  0  0
   57.7820   26.6310   44.8370 C   0  0  0  0  0  0  0  0  0  0  0  0
   57.2280   25.7610   45.8860 C   0  0  0  0  0  0  0  0  0  0  0  0
   57.8600   24.6940   46.4120 N   0  0  0  0  0  0  0  0  0  0  0  0
   56.9220   24.1370   47.2080 C   0  0  0  0  0  0  0  0  0  0  0  0
   57.1440   23.1080   47.8970 O   0  0  0  0  0  0  0  0  0  0  0  0
   55.7270   24.7640   47.2000 N   0  0  0  0  0  0  0  0  0  0  0  0
   55.9340   25.7800   46.3470 C   0  0  0  0  0  0  0  0  0  0  0  0
   54.9580   26.7020   45.9900 O   0  0  0  0  0  0  0  0  0  0  0  0
   57.3940   28.7800   43.8490 C   0  0  0  0  0  0  0  0  0  0  0  0
   57.6890   30.0820   44.1950 C   0  0  0  0  0  0  0  0  0  0  0  0
   57.4070   31.2800   43.3410 C   0  0  0  0  0  0  0  0  0  0  0  0
   58.2820   30.1230   45.4090 N   0  0  0  0  0  0  0  0  0  0  0  0
   58.6730   31.3200   46.1010 C   0  0  0  0  0  0  0  0  0  0  0  0
   57.7420   32.3450   46.3200 C   0  0  0  0  0  0  0  0  0  0  0  0
   58.1310   33.5170   46.9730 C   0  0  0  0  0  0  0  0  0  0  0  0
   59.4500   33.6770   47.4030 C   0  0  0  0  0  0  0  0  0  0  0  0
   60.3990   32.6620   47.1850 C   0  0  0  0  0  0  0  0  0  0  0  0
   61.8030   32.8310   47.6390 C   0  0  0  0  0  0  0  0  0  0  0  0
   62.6580   33.7530   47.0160 C   0  0  0  0  0  0  0  0  0  0  0  0
   63.9380   33.8890   47.4490 N   0  0  0  0  0  0  0  0  0  0  0  0
   64.4120   33.1650   48.4650 N   0  0  0  0  0  0  0  0  0  0  0  0
   63.6340   32.2580   49.1100 C   0  0  0  0  0  0  0  0  0  0  0  0
   64.1070   31.5920   50.0670 O   0  0  0  0  0  0  0  0  0  0  0  0
   62.3120   32.0740   48.7050 C   0  0  0  0  0  0  0  0  0  0  0  0
   59.9990   31.4830   46.5290 C   0  0  0  0  0  0  0  0  0  0  0  0
  1  2  2  0
  2  3  1  0
  3  4  2  3
  4  5  1  0
  5  6  1  0
  6  7  1  0
  7  8  2  0
  7  9  1  0
  9 10  1  0
 10 11  1  0
  3 12  1  0
 12 13  2  0
 13 14  1  0
 13 15  1  0
 15 16  1  0
 16 17  2  0
 17 18  1  0
 18 19  2  0
 19 20  1  0
 20 21  1  0
 21 22  1  0
 22 23  2  0
 23 24  1  0
 24 25  1  0
 25 26  2  0
 25 27  1  0
 20 28  2  0
 15  2  1  0
 28 16  1  0
 10  5  2  0
 27 21  2  0
M  CHG  4   6  -1   9  -1  11  -1  24  -1
M  END
>  <UniqueID>  (2093) 
77

>  <SMILES>  (2093) 
C=c1c(=Cc2[n-]c(=O)[n-]c2[O-])cc(C)n1-c1cccc(-c2cn[n-]c(=O)c2)c1

>  <Energy>  (2093) 
127.3823744495145

>  <Genealogy>  (2093) 
C=c1c(=Cc2[n-]c(=O)[n-]c2[O-])cc(C)n1-c1cccc(-c2cn[n-]c(=O)c2)c1 (protonated)
C=c1c(=Cc2[n-]c(=O)[n-]c2[O-])cc(C)n1-c1cccc(-c2cn[n-]c(=O)c2)c1 (3D coordinates assigned)
C=c1c(=Cc2[n-]c(=O)[n-]c2[O-])cc(C)n1-c1cccc(-c2cn[n-]c(=O)c2)c1 (optimized conformer: 127.3823744495145 kcal/mol)

>  <smiles>  (2093) 
C=c1c(=Cc2[nH]c(=O)[nH]c2O)cc(C)n1-c1cccc(-c2cn[nH]c(=O)c2)c1

>  <score_type>  (2093) 
oracle

>  <origin>  (2093) 
adg

>  <m_score__min__energy>  (2093) 
-17.379999999999999

>  <m_primary>  (2093) 
energy

$$$$
1:0
     RDKit          3D

 37 41  0  0  0  0  0  0  0  0999 V2000
   57.5730   29.3640   44.0280 C   0  0  0  0  0  0  0  0  0  0  0  0
   58.0690   29.2390   45.2710 C   0  0  0  0  0  0  0  0  0  0  0  0
   58.2990   28.0410   45.9620 C   0  0  0  0  0  0  0  0  0  0  0  0
   58.0680   26.7890   45.5100 C   0  0  0  0  0  0  0  0  0  0  0  0
   57.3090   25.7410   46.2310 C   0  0  0  0  0  0  0  0  0  0  0  0
   57.8240   24.6140   46.7570 N   0  0  0  0  0  0  0  0  0  0  0  0
   56.7430   23.9740   47.2530 C   0  0  0  0  0  0  0  0  0  0  0  0
   56.8220   22.8630   47.8390 O   0  0  0  0  0  0  0  0  0  0  0  0
   55.5690   24.6160   47.0690 N   0  0  0  0  0  0  0  0  0  0  0  0
   55.9450   25.7290   46.4160 C   0  0  0  0  0  0  0  0  0  0  0  0
   55.0580   26.7140   45.9970 O   0  0  0  0  0  0  0  0  0  0  0  0
   58.7780   28.4070   47.2160 C   0  0  0  0  0  0  0  0  0  0  0  0
   58.8330   29.7860   47.2350 C   0  0  0  0  0  0  0  0  0  0  0  0
   59.2790   30.6050   48.4080 C   0  0  0  0  0  0  0  0  0  0  0  0
   58.4000   30.2930   46.0600 N   0  0  0  0  0  0  0  0  0  0  0  0
   58.3130   31.6920   45.7320 C   0  0  0  0  0  0  0  0  0  0  0  0
   57.4400   32.1280   44.7260 C   0  0  0  0  0  0  0  0  0  0  0  0
   57.3780   33.4820   44.3900 C   0  0  0  0  0  0  0  0  0  0  0  0
   58.1790   34.4100   45.0600 C   0  0  0  0  0  0  0  0  0  0  0  0
   59.0460   33.9890   46.0840 C   0  0  0  0  0  0  0  0  0  0  0  0
   59.9130   34.9600   46.7880 C   0  0  0  0  0  0  0  0  0  0  0  0
   59.6410   36.1910   46.7100 O   0  0  0  0  0  0  0  0  0  0  0  0
   61.0660   34.5320   47.5400 N   0  0  0  0  0  0  0  0  0  0  0  0
   62.1710   33.8440   46.8520 C   0  0  0  0  0  0  0  0  0  0  0  0
   62.4620   32.5590   47.5600 C   0  0  0  0  0  0  0  0  0  0  0  0
   62.7760   31.5240   46.9080 O   0  0  0  0  0  0  0  0  0  0  0  0
   62.3730   32.5370   48.9940 N   0  0  0  0  0  0  0  0  0  0  0  0
   62.4170   31.2780   49.7470 C   0  0  0  0  0  0  0  0  0  0  0  0
   63.7550   31.1180   50.4090 C   0  0  0  0  0  0  0  0  0  0  0  0
   63.9340   30.1250   51.3250 N   0  0  0  0  0  0  0  0  0  0  0  0
   65.1240   29.9400   51.9600 C   0  0  0  0  0  0  0  0  0  0  0  0
   66.2050   30.7810   51.6840 C   0  0  0  0  0  0  0  0  0  0  0  0
   66.0470   31.8120   50.7560 C   0  0  0  0  0  0  0  0  0  0  0  0
   64.8170   31.9880   50.1140 C   0  0  0  0  0  0  0  0  0  0  0  0
   62.1800   33.8240   49.6720 C   0  0  0  0  0  0  0  0  0  0  0  0
   61.0220   34.5990   49.0180 C   0  0  0  0  0  0  0  0  0  0  0  0
   59.1180   32.6230   46.4030 C   0  0  0  0  0  0  0  0  0  0  0  0
  1  2  2  0
  2  3  1  0
  3  4  2  0
  4  5  1  0
  5  6  1  0
  6  7  1  0
  7  8  2  0
  7  9  1  0
  9 10  1  0
 10 11  1  0
  3 12  1  0
 12 13  2  0
 13 14  1  0
 13 15  1  0
 15 16  1  0
 16 17  2  0
 17 18  1  0
 18 19  2  0
 19 20  1  0
 20 21  1  0
 21 22  2  0
 21 23  1  0
 23 24  1  0
 24 25  1  0
 25 26  2  0
 25 27  1  0
 27 28  1  0
 28 29  1  0
 29 30  2  0
 30 31  1  0
 31 32  2  0
 32 33  1  0
 33 34  2  0
 27 35  1  0
 35 36  1  0
 20 37  2  0
 15  2  1  0
 37 16  1  0
 10  5  2  0
 36 23  1  0
 34 29  1  0
M  CHG  3   6  -1   9  -1  11  -1
M  END
>  <UniqueID>  (2094) 
2

>  <SMILES>  (2094) 
C=c1/c(=C/c2[n-]c(=O)[n-]c2[O-])cc(C)n1-c1cccc(C(=O)N2CCN(Cc3ccccn3)C(=O)C2)c1

>  <Energy>  (2094) 
139.64531413698967

>  <Genealogy>  (2094) 
C=c1c(=Cc2[n-]c(=O)[n-]c2[O-])cc(C)n1-c1cccc(C(=O)N2CCN(Cc3ccccn3)C(=O)C2)c1 (protonated)
C=c1/c(=C/c2[n-]c(=O)[n-]c2[O-])cc(C)n1-c1cccc(C(=O)N2CCN(Cc3ccccn3)C(=O)C2)c1 (cis-trans isomerization)
C=c1/c(=C/c2[n-]c(=O)[n-]c2[O-])cc(C)n1-c1cccc(C(=O)N2CCN(Cc3ccccn3)C(=O)C2)c1 (3D coordinates assigned)
C=c1/c(=C/c2[n-]c(=O)[n-]c2[O-])cc(C)n1-c1cccc(C(=O)N2CCN(Cc3ccccn3)C(=O)C2)c1 (nonaromatic ring conformer: 139.64531413698967 kcal/mol)

>  <smiles>  (2094) 
C=c1c(=Cc2[nH]c(=O)[nH]c2O)cc(C)n1-c1cccc(C(=O)N2CCN(Cc3ccccn3)C(=O)C2)c1

>  <score_type>  (2094) 
oracle

>  <origin>  (2094) 
adg

>  <m_score__min__energy>  (2094) 
-19.420000000000002

>  <m_primary>  (2094) 
energy

$$$$
17:0
     RDKit          3D

 38 41  0  0  0  0  0  0  0  0999 V2000
   55.2120   31.6410   52.0240 C   0  0  0  0  0  0  0  0  0  0  0  0
   54.9310   30.4600   52.5950 C   0  0  0  0  0  0  0  0  0  0  0  0
   53.6600   29.9840   52.9360 C   0  0  0  0  0  0  0  0  0  0  0  0
   52.4780   30.5990   52.7340 C   0  0  0  0  0  0  0  0  0  0  0  0
   51.8770   30.8080   51.4050 C   0  0  0  0  0  0  0  0  0  0  0  0
   52.0100   29.9370   50.3870 N   0  0  0  0  0  0  0  0  0  0  0  0
   51.3960   30.5630   49.3570 C   0  0  0  0  0  0  0  0  0  0  0  0
   51.3090   30.0530   48.2100 O   0  0  0  0  0  0  0  0  0  0  0  0
   50.9030   31.7860   49.6500 N   0  0  0  0  0  0  0  0  0  0  0  0
   51.2260   31.9330   50.9450 C   0  0  0  0  0  0  0  0  0  0  0  0
   50.9770   33.0910   51.6730 O   0  0  0  0  0  0  0  0  0  0  0  0
   53.8490   28.7130   53.4660 C   0  0  0  0  0  0  0  0  0  0  0  0
   55.2090   28.4740   53.4440 C   0  0  0  0  0  0  0  0  0  0  0  0
   55.8550   27.1960   53.8760 C   0  0  0  0  0  0  0  0  0  0  0  0
   55.8650   29.5310   52.9150 N   0  0  0  0  0  0  0  0  0  0  0  0
   57.2860   29.6230   52.7090 C   0  0  0  0  0  0  0  0  0  0  0  0
   57.8060   29.6630   51.4080 C   0  0  0  0  0  0  0  0  0  0  0  0
   59.1910   29.8000   51.1890 C   0  0  0  0  0  0  0  0  0  0  0  0
   59.7150   29.8360   49.7960 C   0  0  0  0  0  0  0  0  0  0  0  0
   59.8910   28.7390   49.1920 O   0  0  0  0  0  0  0  0  0  0  0  0
   60.0270   31.0890   49.1260 N   0  0  0  0  0  0  0  0  0  0  0  0
   61.0630   30.8920   48.0910 C   0  0  0  0  0  0  0  0  0  0  0  0
   60.5480   30.0820   46.8820 C   0  0  0  0  0  0  0  0  0  0  0  0
   59.0850   30.2330   46.6660 N   0  0  0  0  0  0  0  0  0  0  0  0
   58.5880   29.7950   45.3200 C   0  0  0  0  0  0  0  0  0  0  0  0
   58.1850   31.0080   44.4340 C   0  0  0  0  0  0  0  0  0  0  0  0
   59.6730   28.9760   44.5790 C   0  0  0  0  0  0  0  0  0  0  0  0
   57.4010   28.8570   45.5290 C   0  0  0  0  0  0  0  0  0  0  0  0
   56.2400   29.2700   45.2580 O   0  0  0  0  0  0  0  0  0  0  0  0
   57.5650   27.5060   46.0000 N   0  0  0  0  0  0  0  0  0  0  0  0
   57.8930   27.2450   47.4040 C   0  0  0  0  0  0  0  0  0  0  0  0
   57.0250   26.4050   45.2070 C   0  0  0  0  0  0  0  0  0  0  0  0
   58.6270   31.5770   47.0690 C   0  0  0  0  0  0  0  0  0  0  0  0
   58.8120   31.7630   48.5880 C   0  0  0  0  0  0  0  0  0  0  0  0
   60.0450   29.8880   52.3040 C   0  0  0  0  0  0  0  0  0  0  0  0
   59.5280   29.8280   53.6000 C   0  0  0  0  0  0  0  0  0  0  0  0
   58.1540   29.6930   53.8050 C   0  0  0  0  0  0  0  0  0  0  0  0
   57.6670   29.6310   55.0690 F   0  0  0  0  0  0  0  0  0  0  0  0
  1  2  2  0
  2  3  1  0
  3  4  2  3
  4  5  1  0
  5  6  1  0
  6  7  1  0
  7  8  2  0
  7  9  1  0
  9 10  1  0
 10 11  1  0
  3 12  1  0
 12 13  2  0
 13 14  1  0
 13 15  1  0
 15 16  1  0
 16 17  2  0
 17 18  1  0
 18 19  1  0
 19 20  2  0
 19 21  1  0
 21 22  1  0
 22 23  1  0
 23 24  1  0
 24 25  1  0
 25 26  1  0
 25 27  1  0
 25 28  1  0
 28 29  2  0
 28 30  1  0
 30 31  1  0
 30 32  1  0
 24 33  1  0
 33 34  1  0
 18 35  2  0
 35 36  1  0
 36 37  2  0
 37 38  1  0
 15  2  1  0
 37 16  1  0
 10  5  2  0
 34 21  1  0
M  CHG  4   6  -1   9  -1  11  -1  21   1
M  END
>  <UniqueID>  (2095) 
16

>  <SMILES>  (2095) 
C=c1c(=Cc2[n-]c(=O)[n-]c2[O-])cc(C)n1-c1cc(C(=O)[NH+]2CCN(C(C)(C)C(=O)N(C)C)CC2)ccc1F

>  <Energy>  (2095) 
169.3399254357228

>  <Genealogy>  (2095) 
C=c1c(=Cc2[n-]c(=O)[n-]c2[O-])cc(C)n1-c1cc(C(=O)[NH+]2CCN(C(C)(C)C(=O)N(C)C)CC2)ccc1F (protonated)
C=c1c(=Cc2[n-]c(=O)[n-]c2[O-])cc(C)n1-c1cc(C(=O)[NH+]2CCN(C(C)(C)C(=O)N(C)C)CC2)ccc1F (3D coordinates assigned)
C=c1c(=Cc2[n-]c(=O)[n-]c2[O-])cc(C)n1-c1cc(C(=O)[NH+]2CCN(C(C)(C)C(=O)N(C)C)CC2)ccc1F (nonaromatic ring conformer: 169.3399254357228 kcal/mol)

>  <smiles>  (2095) 
C=c1c(=Cc2[nH]c(=O)[nH]c2O)cc(C)n1-c1cc(C(=O)N2CCN(C(C)(C)C(=O)N(C)C)CC2)ccc1F

>  <score_type>  (2095) 
oracle

>  <origin>  (2095) 
adg

>  <m_score__min__energy>  (2095) 
-16.98

>  <m_primary>  (2095) 
energy

$$$$
18:0
     RDKit          3D

 30 33  0  0  0  0  0  0  0  0999 V2000
   57.4550   29.9990   43.7240 C   0  0  0  0  0  0  0  0  0  0  0  0
   57.9350   30.2690   44.9450 C   0  0  0  0  0  0  0  0  0  0  0  0
   58.4400   29.3400   45.8620 C   0  0  0  0  0  0  0  0  0  0  0  0
   58.5000   28.0010   45.7200 C   0  0  0  0  0  0  0  0  0  0  0  0
   57.3370   27.1050   45.8650 C   0  0  0  0  0  0  0  0  0  0  0  0
   57.4090   25.8860   46.4300 N   0  0  0  0  0  0  0  0  0  0  0  0
   56.1200   25.4860   46.4780 C   0  0  0  0  0  0  0  0  0  0  0  0
   55.7740   24.3690   46.9420 O   0  0  0  0  0  0  0  0  0  0  0  0
   55.2310   26.3830   46.0030 N   0  0  0  0  0  0  0  0  0  0  0  0
   56.0140   27.4060   45.6290 C   0  0  0  0  0  0  0  0  0  0  0  0
   55.5200   28.6060   45.1320 O   0  0  0  0  0  0  0  0  0  0  0  0
   58.8330   30.0660   46.9750 C   0  0  0  0  0  0  0  0  0  0  0  0
   58.5480   31.3890   46.7070 C   0  0  0  0  0  0  0  0  0  0  0  0
   58.7980   32.4800   47.6760 C   0  0  0  0  0  0  0  0  0  0  0  0
   58.3070   32.3420   48.8310 O   0  0  0  0  0  0  0  0  0  0  0  0
   59.5940   33.6610   47.3550 N   0  0  0  0  0  0  0  0  0  0  0  0
   59.8610   34.5370   48.5230 C   0  0  0  0  0  0  0  0  0  0  0  0
   60.8120   33.8840   49.5380 C   0  0  0  0  0  0  0  0  0  0  0  0
   62.0190   33.4050   48.8610 N   0  0  0  0  0  0  0  0  0  0  0  0
   63.2830   33.3950   49.5490 C   0  0  0  0  0  0  0  0  0  0  0  0
   64.3690   32.6630   49.0400 C   0  0  0  0  0  0  0  0  0  0  0  0
   65.5870   32.6420   49.7240 C   0  0  0  0  0  0  0  0  0  0  0  0
   65.7330   33.3540   50.9180 C   0  0  0  0  0  0  0  0  0  0  0  0
   66.9160   33.3370   51.5790 F   0  0  0  0  0  0  0  0  0  0  0  0
   64.6590   34.0860   51.4290 C   0  0  0  0  0  0  0  0  0  0  0  0
   63.4380   34.1060   50.7510 C   0  0  0  0  0  0  0  0  0  0  0  0
   61.8440   32.6020   47.6470 C   0  0  0  0  0  0  0  0  0  0  0  0
   60.8740   33.3110   46.6910 C   0  0  0  0  0  0  0  0  0  0  0  0
   58.0250   31.5210   45.4650 N   0  0  0  0  0  0  0  0  0  0  0  0
   57.7110   32.7700   44.7620 C   0  0  0  0  0  0  0  0  0  0  0  0
  1  2  2  0
  2  3  1  0
  3  4  2  3
  4  5  1  0
  5  6  1  0
  6  7  1  0
  7  8  2  0
  7  9  1  0
  9 10  1  0
 10 11  1  0
  3 12  1  0
 12 13  2  0
 13 14  1  0
 14 15  2  0
 14 16  1  0
 16 17  1  0
 17 18  1  0
 18 19  1  0
 19 20  1  0
 20 21  2  0
 21 22  1  0
 22 23  2  0
 23 24  1  0
 23 25  1  0
 25 26  2  0
 19 27  1  0
 27 28  1  0
 13 29  1  0
 29 30  1  0
 29  2  1  0
 10  5  2  0
 28 16  1  0
 26 20  1  0
M  CHG  4   6  -1   9  -1  11  -1  16   1
M  END
>  <UniqueID>  (2096) 
17

>  <SMILES>  (2096) 
C=c1c(=Cc2[n-]c(=O)[n-]c2[O-])cc(C(=O)[NH+]2CCN(c3ccc(F)cc3)CC2)n1C

>  <Energy>  (2096) 
135.80156297159638

>  <Genealogy>  (2096) 
C=c1c(=Cc2[n-]c(=O)[n-]c2[O-])cc(C(=O)[NH+]2CCN(c3ccc(F)cc3)CC2)n1C (protonated)
C=c1c(=Cc2[n-]c(=O)[n-]c2[O-])cc(C(=O)[NH+]2CCN(c3ccc(F)cc3)CC2)n1C (3D coordinates assigned)
C=c1c(=Cc2[n-]c(=O)[n-]c2[O-])cc(C(=O)[NH+]2CCN(c3ccc(F)cc3)CC2)n1C (nonaromatic ring conformer: 135.80156297159638 kcal/mol)

>  <smiles>  (2096) 
C=c1c(=Cc2[nH]c(=O)[nH]c2O)cc(C(=O)N2CCN(c3ccc(F)cc3)CC2)n1C

>  <score_type>  (2096) 
oracle

>  <origin>  (2096) 
adg

>  <m_score__min__energy>  (2096) 
-16.809999999999999

>  <m_primary>  (2096) 
energy

$$$$
19:0
     RDKit          3D

 34 37  0  0  0  0  0  0  0  0999 V2000
   56.6710   29.3710   43.8660 C   0  0  0  0  0  0  0  0  0  0  0  0
   57.7320   29.0330   44.6170 C   0  0  0  0  0  0  0  0  0  0  0  0
   58.1950   27.7380   44.9050 C   0  0  0  0  0  0  0  0  0  0  0  0
   57.6340   26.5300   44.6920 C   0  0  0  0  0  0  0  0  0  0  0  0
   57.2230   25.5840   45.7480 C   0  0  0  0  0  0  0  0  0  0  0  0
   55.9620   25.6990   46.3490 C   0  0  0  0  0  0  0  0  0  0  0  0
   55.0910   26.7160   45.9760 O   0  0  0  0  0  0  0  0  0  0  0  0
   55.5850   24.8140   47.3080 N   0  0  0  0  0  0  0  0  0  0  0  0
   56.4040   23.7970   47.6860 C   0  0  0  0  0  0  0  0  0  0  0  0
   56.0340   22.9890   48.5770 O   0  0  0  0  0  0  0  0  0  0  0  0
   57.6190   23.6490   47.0990 N   0  0  0  0  0  0  0  0  0  0  0  0
   58.0420   24.5080   46.1370 C   0  0  0  0  0  0  0  0  0  0  0  0
   59.1660   24.3240   45.5940 O   0  0  0  0  0  0  0  0  0  0  0  0
   59.4200   27.8960   45.5360 C   0  0  0  0  0  0  0  0  0  0  0  0
   59.6290   29.2530   45.6730 C   0  0  0  0  0  0  0  0  0  0  0  0
   60.8040   29.8700   46.3670 C   0  0  0  0  0  0  0  0  0  0  0  0
   58.6100   29.9430   45.1160 N   0  0  0  0  0  0  0  0  0  0  0  0
   58.4420   31.3720   45.1480 C   0  0  0  0  0  0  0  0  0  0  0  0
   57.8030   32.0410   44.0950 C   0  0  0  0  0  0  0  0  0  0  0  0
   57.6540   33.4300   44.1370 C   0  0  0  0  0  0  0  0  0  0  0  0
   58.1320   34.1560   45.2340 C   0  0  0  0  0  0  0  0  0  0  0  0
   58.7610   33.4950   46.3010 C   0  0  0  0  0  0  0  0  0  0  0  0
   59.2730   34.2550   47.4630 C   0  0  0  0  0  0  0  0  0  0  0  0
   59.1190   35.5070   47.5020 O   0  0  0  0  0  0  0  0  0  0  0  0
   59.9710   33.5940   48.5330 N   0  0  0  0  0  0  0  0  0  0  0  0
   61.1680   34.2110   49.1100 C   0  0  0  0  0  0  0  0  0  0  0  0
   62.2090   33.1300   49.4220 C   0  0  0  0  0  0  0  0  0  0  0  0
   61.6160   31.9790   50.1240 N   0  0  0  0  0  0  0  0  0  0  0  0
   62.5000   30.9420   50.6120 C   0  0  0  0  0  0  0  0  0  0  0  0
   62.0260   29.8670   51.5470 C   0  0  0  0  0  0  0  0  0  0  0  0
   63.7060   30.9200   50.2410 O   0  0  0  0  0  0  0  0  0  0  0  0
   60.1690   31.9670   50.4070 C   0  0  0  0  0  0  0  0  0  0  0  0
   59.3750   32.4070   49.1680 C   0  0  0  0  0  0  0  0  0  0  0  0
   58.9330   32.1030   46.2380 C   0  0  0  0  0  0  0  0  0  0  0  0
  1  2  2  0
  2  3  1  0
  3  4  2  3
  4  5  1  0
  5  6  2  0
  6  7  1  0
  6  8  1  0
  8  9  1  0
  9 10  2  0
  9 11  1  0
 11 12  1  0
 12 13  2  0
  3 14  1  0
 14 15  2  0
 15 16  1  0
 15 17  1  0
 17 18  1  0
 18 19  2  0
 19 20  1  0
 20 21  2  0
 21 22  1  0
 22 23  1  0
 23 24  2  0
 23 25  1  0
 25 26  1  0
 26 27  1  0
 27 28  1  0
 28 29  1  0
 29 30  1  0
 29 31  2  0
 28 32  1  0
 32 33  1  0
 22 34  2  0
 17  2  1  0
 34 18  1  0
 12  5  1  0
 33 25  1  0
M  CHG  3   7  -1   8  -1  11  -1
M  END
>  <UniqueID>  (2097) 
18

>  <SMILES>  (2097) 
C=c1c(=Cc2c([O-])[n-]c(=O)[n-]c2=O)cc(C)n1-c1cccc(C(=O)N2CCN(C(C)=O)CC2)c1

>  <Energy>  (2097) 
111.12643716347495

>  <Genealogy>  (2097) 
C=c1c(=Cc2c([O-])[n-]c(=O)[n-]c2=O)cc(C)n1-c1cccc(C(=O)N2CCN(C(C)=O)CC2)c1 (protonated)
C=c1c(=Cc2c([O-])[n-]c(=O)[n-]c2=O)cc(C)n1-c1cccc(C(=O)N2CCN(C(C)=O)CC2)c1 (3D coordinates assigned)
C=c1c(=Cc2c([O-])[n-]c(=O)[n-]c2=O)cc(C)n1-c1cccc(C(=O)N2CCN(C(C)=O)CC2)c1 (nonaromatic ring conformer: 111.12643716347495 kcal/mol)

>  <smiles>  (2097) 
C=c1c(=Cc2c(O)[nH]c(=O)[nH]c2=O)cc(C)n1-c1cccc(C(=O)N2CCN(C(C)=O)CC2)c1

>  <score_type>  (2097) 
oracle

>  <origin>  (2097) 
adg

>  <m_score__min__energy>  (2097) 
-17.16

>  <m_primary>  (2097) 
energy

$$$$
35:0
     RDKit          3D

 32 35  0  0  0  0  0  0  0  0999 V2000
   56.5960   28.9980   44.1110 C   0  0  0  0  0  0  0  0  0  0  0  0
   57.7520   28.5930   44.6600 C   0  0  0  0  0  0  0  0  0  0  0  0
   58.2160   27.2730   44.7730 C   0  0  0  0  0  0  0  0  0  0  0  0
   57.5990   26.0950   44.5500 C   0  0  0  0  0  0  0  0  0  0  0  0
   57.0600   25.2020   45.5860 C   0  0  0  0  0  0  0  0  0  0  0  0
   57.7730   24.2200   46.1670 N   0  0  0  0  0  0  0  0  0  0  0  0
   56.9510   23.7710   47.1390 C   0  0  0  0  0  0  0  0  0  0  0  0
   57.2650   22.8250   47.9080 O   0  0  0  0  0  0  0  0  0  0  0  0
   55.7740   24.4250   47.2360 N   0  0  0  0  0  0  0  0  0  0  0  0
   55.8640   25.3410   46.2580 C   0  0  0  0  0  0  0  0  0  0  0  0
   54.8890   26.2990   45.9960 O   0  0  0  0  0  0  0  0  0  0  0  0
   59.5170   27.3560   45.2380 C   0  0  0  0  0  0  0  0  0  0  0  0
   59.7750   28.6920   45.4650 C   0  0  0  0  0  0  0  0  0  0  0  0
   61.0440   29.2200   46.0630 C   0  0  0  0  0  0  0  0  0  0  0  0
   58.7120   29.4490   45.1060 N   0  0  0  0  0  0  0  0  0  0  0  0
   58.5920   30.9020   45.3030 C   0  0  0  0  0  0  0  0  0  0  0  0
   58.5070   31.5970   43.9420 C   0  0  0  0  0  0  0  0  0  0  0  0
   57.4420   32.7090   43.9280 C   0  0  0  0  0  0  0  0  0  0  0  0
   57.8620   33.9330   44.6440 N   0  0  0  0  0  0  0  0  0  0  0  0
   57.2100   34.1670   45.9500 C   0  0  0  0  0  0  0  0  0  0  0  0
   57.9380   33.4800   47.1190 C   0  0  0  0  0  0  0  0  0  0  0  0
   59.3870   33.4410   46.9050 N   0  0  0  0  0  0  0  0  0  0  0  0
   60.1890   32.4770   47.6130 C   0  0  0  0  0  0  0  0  0  0  0  0
   59.7360   31.3140   47.7950 O   0  0  0  0  0  0  0  0  0  0  0  0
   61.5270   32.8190   48.1450 C   0  0  0  0  0  0  0  0  0  0  0  0
   61.6750   33.3010   49.4560 C   0  0  0  0  0  0  0  0  0  0  0  0
   62.9460   33.6000   49.9570 C   0  0  0  0  0  0  0  0  0  0  0  0
   64.0760   33.4130   49.1590 C   0  0  0  0  0  0  0  0  0  0  0  0
   63.9400   32.9230   47.8600 C   0  0  0  0  0  0  0  0  0  0  0  0
   62.6730   32.6200   47.3540 C   0  0  0  0  0  0  0  0  0  0  0  0
   59.9830   34.3750   45.9470 C   0  0  0  0  0  0  0  0  0  0  0  0
   59.3140   34.2280   44.5730 C   0  0  0  0  0  0  0  0  0  0  0  0
  1  2  2  0
  2  3  1  0
  3  4  2  3
  4  5  1  0
  5  6  1  0
  6  7  1  0
  7  8  2  0
  7  9  1  0
  9 10  1  0
 10 11  1  0
  3 12  1  0
 12 13  2  0
 13 14  1  0
 13 15  1  0
 15 16  1  0
 16 17  1  0
 17 18  1  0
 18 19  1  0
 19 20  1  0
 20 21  1  0
 21 22  1  0
 22 23  1  0
 23 24  2  0
 23 25  1  0
 25 26  2  0
 26 27  1  0
 27 28  2  0
 28 29  1  0
 29 30  2  0
 22 31  1  0
 31 32  1  0
 15  2  1  0
 32 19  1  0
 10  5  2  0
 30 25  1  0
M  CHG  2   6  -1   9  -1
M  END
>  <UniqueID>  (2098) 
32

>  <SMILES>  (2098) 
C=c1c(=Cc2[n-]c(=O)[n-]c2O)cc(C)n1CCCN1CCN(C(=O)c2ccccc2)CC1

>  <Energy>  (2098) 
142.83819879860891

>  <Genealogy>  (2098) 
C=c1c(=Cc2[n-]c(=O)[n-]c2O)cc(C)n1CCCN1CCN(C(=O)c2ccccc2)CC1 (protonated)
C=c1c(=Cc2[n-]c(=O)[n-]c2O)cc(C)n1CCCN1CCN(C(=O)c2ccccc2)CC1 (3D coordinates assigned)
C=c1c(=Cc2[n-]c(=O)[n-]c2O)cc(C)n1CCCN1CCN(C(=O)c2ccccc2)CC1 (nonaromatic ring conformer: 142.83819879860891 kcal/mol)

>  <smiles>  (2098) 
C=c1c(=Cc2[nH]c(=O)[nH]c2O)cc(C)n1CCCN1CCN(C(=O)c2ccccc2)CC1

>  <score_type>  (2098) 
oracle

>  <origin>  (2098) 
adg

>  <m_score__min__energy>  (2098) 
-14.039999999999999

>  <m_primary>  (2098) 
energy

$$$$
41:0
     RDKit          3D

 33 36  0  0  0  0  0  0  0  0999 V2000
   58.9720   26.6120   47.5250 C   0  0  0  0  0  0  0  0  0  0  0  0
   58.4310   27.1880   46.4400 C   0  0  0  0  0  0  0  0  0  0  0  0
   57.7440   26.5380   45.4100 C   0  0  0  0  0  0  0  0  0  0  0  0
   57.4950   25.2180   45.2960 C   0  0  0  0  0  0  0  0  0  0  0  0
   56.1310   24.6460   45.2390 C   0  0  0  0  0  0  0  0  0  0  0  0
   55.0010   25.3920   45.6200 C   0  0  0  0  0  0  0  0  0  0  0  0
   55.1300   26.7040   46.0630 O   0  0  0  0  0  0  0  0  0  0  0  0
   53.7690   24.8260   45.5740 N   0  0  0  0  0  0  0  0  0  0  0  0
   53.6030   23.5360   45.1840 C   0  0  0  0  0  0  0  0  0  0  0  0
   52.4500   23.0330   45.1460 O   0  0  0  0  0  0  0  0  0  0  0  0
   54.6810   22.7860   44.8400 N   0  0  0  0  0  0  0  0  0  0  0  0
   55.9350   23.3060   44.8660 C   0  0  0  0  0  0  0  0  0  0  0  0
   56.9140   22.5800   44.5440 O   0  0  0  0  0  0  0  0  0  0  0  0
   57.4050   27.5170   44.4860 C   0  0  0  0  0  0  0  0  0  0  0  0
   57.8720   28.7140   44.9890 C   0  0  0  0  0  0  0  0  0  0  0  0
   57.7360   30.0370   44.2990 C   0  0  0  0  0  0  0  0  0  0  0  0
   58.5010   28.5160   46.1700 N   0  0  0  0  0  0  0  0  0  0  0  0
   59.1100   29.5390   46.9780 C   0  0  0  0  0  0  0  0  0  0  0  0
   58.7730   29.6620   48.3330 C   0  0  0  0  0  0  0  0  0  0  0  0
   59.3730   30.6480   49.1220 C   0  0  0  0  0  0  0  0  0  0  0  0
   60.3130   31.5300   48.5630 C   0  0  0  0  0  0  0  0  0  0  0  0
   60.9580   32.5710   49.3930 C   0  0  0  0  0  0  0  0  0  0  0  0
   60.2960   33.1070   50.3250 O   0  0  0  0  0  0  0  0  0  0  0  0
   62.3250   32.9700   49.1730 N   0  0  0  0  0  0  0  0  0  0  0  0
   63.3450   31.9610   48.8430 C   0  0  0  0  0  0  0  0  0  0  0  0
   64.7300   32.3660   49.3800 C   0  0  0  0  0  0  0  0  0  0  0  0
   64.6430   33.0480   50.7730 C   0  0  0  0  0  0  0  0  0  0  0  0
   64.1150   32.0380   51.8190 C   0  0  0  0  0  0  0  0  0  0  0  0
   66.0630   33.4770   51.1980 C   0  0  0  0  0  0  0  0  0  0  0  0
   63.7090   34.3040   50.7250 C   0  0  0  0  0  0  0  0  0  0  0  0
   62.7620   34.3280   49.5130 C   0  0  0  0  0  0  0  0  0  0  0  0
   60.6630   31.3900   47.2100 C   0  0  0  0  0  0  0  0  0  0  0  0
   60.0620   30.4040   46.4220 C   0  0  0  0  0  0  0  0  0  0  0  0
  1  2  2  0
  2  3  1  0
  3  4  2  0
  4  5  1  0
  5  6  2  0
  6  7  1  0
  6  8  1  0
  8  9  1  0
  9 10  2  0
  9 11  1  0
 11 12  1  0
 12 13  2  0
  3 14  1  0
 14 15  2  0
 15 16  1  0
 15 17  1  0
 17 18  1  0
 18 19  2  0
 19 20  1  0
 20 21  2  0
 21 22  1  0
 22 23  2  0
 22 24  1  0
 24 25  1  0
 25 26  1  0
 26 27  1  0
 27 28  1  0
 27 29  1  0
 27 30  1  0
 30 31  1  0
 21 32  1  0
 32 33  2  0
 17  2  1  0
 33 18  1  0
 12  5  1  0
 31 24  1  0
M  CHG  3   7  -1   8  -1  11  -1
M  END
>  <UniqueID>  (2099) 
38

>  <SMILES>  (2099) 
C=c1/c(=C/c2c([O-])[n-]c(=O)[n-]c2=O)cc(C)n1-c1ccc(C(=O)N2CCC(C)(C)CC2)cc1

>  <Energy>  (2099) 
113.00027303710945

>  <Genealogy>  (2099) 
C=c1c(=Cc2c([O-])[n-]c(=O)[n-]c2=O)cc(C)n1-c1ccc(C(=O)N2CCC(C)(C)CC2)cc1 (protonated)
C=c1/c(=C/c2c([O-])[n-]c(=O)[n-]c2=O)cc(C)n1-c1ccc(C(=O)N2CCC(C)(C)CC2)cc1 (cis-trans isomerization)
C=c1/c(=C/c2c([O-])[n-]c(=O)[n-]c2=O)cc(C)n1-c1ccc(C(=O)N2CCC(C)(C)CC2)cc1 (3D coordinates assigned)
C=c1/c(=C/c2c([O-])[n-]c(=O)[n-]c2=O)cc(C)n1-c1ccc(C(=O)N2CCC(C)(C)CC2)cc1 (nonaromatic ring conformer: 113.00027303710945 kcal/mol)

>  <smiles>  (2099) 
C=c1c(=Cc2c(O)[nH]c(=O)[nH]c2=O)cc(C)n1-c1ccc(C(=O)N2CCC(C)(C)CC2)cc1

>  <score_type>  (2099) 
oracle

>  <origin>  (2099) 
adg

>  <m_score__min__energy>  (2099) 
-16.109999999999999

>  <m_primary>  (2099) 
energy

$$$$
49:0
     RDKit          3D

 37 41  0  0  0  0  0  0  0  0999 V2000
   54.5530   29.9610   51.7350 C   0  0  0  0  0  0  0  0  0  0  0  0
   53.8860   29.3050   52.7040 C   0  0  0  0  0  0  0  0  0  0  0  0
   54.5560   28.5020   53.6690 C   0  0  0  0  0  0  0  0  0  0  0  0
   56.0200   28.3800   53.8020 C   0  0  0  0  0  0  0  0  0  0  0  0
   56.6930   27.6720   54.7800 C   0  0  0  0  0  0  0  0  0  0  0  0
   58.0350   27.8700   54.5290 C   0  0  0  0  0  0  0  0  0  0  0  0
   58.0910   28.7110   53.4350 C   0  0  0  0  0  0  0  0  0  0  0  0
   59.3230   29.1960   52.7960 C   0  0  0  0  0  0  0  0  0  0  0  0
   59.4380   29.5860   51.5040 C   0  0  0  0  0  0  0  0  0  0  0  0
   59.9990   28.6380   50.5120 C   0  0  0  0  0  0  0  0  0  0  0  0
   60.3750   27.4850   50.8550 O   0  0  0  0  0  0  0  0  0  0  0  0
   60.1070   29.0110   49.1430 N   0  0  0  0  0  0  0  0  0  0  0  0
   59.7310   30.3070   48.6860 C   0  0  0  0  0  0  0  0  0  0  0  0
   59.8340   30.5740   47.4590 O   0  0  0  0  0  0  0  0  0  0  0  0
   59.2570   31.3010   49.6160 N   0  0  0  0  0  0  0  0  0  0  0  0
   59.0020   32.6750   49.1440 C   0  0  0  0  0  0  0  0  0  0  0  0
   57.9360   32.7060   48.0440 C   0  0  0  0  0  0  0  0  0  0  0  0
   58.3980   33.4690   46.8300 C   0  0  0  0  0  0  0  0  0  0  0  0
   59.2950   34.5430   46.9620 C   0  0  0  0  0  0  0  0  0  0  0  0
   59.6780   35.2810   45.8390 C   0  0  0  0  0  0  0  0  0  0  0  0
   59.1780   34.9470   44.5760 C   0  0  0  0  0  0  0  0  0  0  0  0
   58.3220   33.8540   44.4280 C   0  0  0  0  0  0  0  0  0  0  0  0
   57.9320   33.1150   45.5510 C   0  0  0  0  0  0  0  0  0  0  0  0
   59.1030   30.9610   51.0130 C   0  0  0  0  0  0  0  0  0  0  0  0
   58.7400   31.8550   51.8240 O   0  0  0  0  0  0  0  0  0  0  0  0
   56.8790   28.9850   53.0170 O   0  0  0  0  0  0  0  0  0  0  0  0
   53.7150   27.9420   54.6220 C   0  0  0  0  0  0  0  0  0  0  0  0
   52.1580   28.4650   54.3150 S   0  0  0  0  0  0  0  0  0  0  0  0
   52.4900   29.3720   52.9360 C   0  0  0  0  0  0  0  0  0  0  0  0
   51.5010   29.9990   52.2700 C   0  0  0  0  0  0  0  0  0  0  0  0
   50.9280   31.3090   52.6020 C   0  0  0  0  0  0  0  0  0  0  0  0
   50.6460   31.7230   53.8520 N   0  0  0  0  0  0  0  0  0  0  0  0
   50.2530   33.0030   53.6700 C   0  0  0  0  0  0  0  0  0  0  0  0
   49.8950   33.7430   54.6230 O   0  0  0  0  0  0  0  0  0  0  0  0
   50.2880   33.4310   52.3890 N   0  0  0  0  0  0  0  0  0  0  0  0
   50.7300   32.3490   51.7280 C   0  0  0  0  0  0  0  0  0  0  0  0
   50.9440   32.3100   50.3570 O   0  0  0  0  0  0  0  0  0  0  0  0
  1  2  2  0
  2  3  1  0
  3  4  1  0
  4  5  2  0
  5  6  1  0
  6  7  2  0
  7  8  1  0
  8  9  2  3
  9 10  1  0
 10 11  2  0
 10 12  1  0
 12 13  1  0
 13 14  2  0
 13 15  1  0
 15 16  1  0
 16 17  1  0
 17 18  1  0
 18 19  2  0
 19 20  1  0
 20 21  2  0
 21 22  1  0
 22 23  2  0
 15 24  1  0
 24 25  2  0
  7 26  1  0
  3 27  2  0
 27 28  1  0
 28 29  1  0
 29 30  2  3
 30 31  1  0
 31 32  1  0
 32 33  1  0
 33 34  2  0
 33 35  1  0
 35 36  1  0
 36 37  1  0
 29  2  1  0
 36 31  2  0
 26  4  1  0
 24  9  1  0
 23 18  1  0
M  CHG  4  12  -1  32  -1  35  -1  37  -1
M  END
>  <UniqueID>  (2100) 
46

>  <SMILES>  (2100) 
C=c1c(-c2ccc(C=C3C(=O)[N-]C(=O)N(CCc4ccccc4)C3=O)o2)csc1=Cc1[n-]c(=O)[n-]c1[O-]

>  <Energy>  (2100) 
160.935499166694

>  <Genealogy>  (2100) 
C=c1c(-c2ccc(C=C3C(=O)[N-]C(=O)N(CCc4ccccc4)C3=O)o2)csc1=Cc1[n-]c(=O)[n-]c1[O-] (protonated)
C=c1c(-c2ccc(C=C3C(=O)[N-]C(=O)N(CCc4ccccc4)C3=O)o2)csc1=Cc1[n-]c(=O)[n-]c1[O-] (3D coordinates assigned)
C=c1c(-c2ccc(C=C3C(=O)[N-]C(=O)N(CCc4ccccc4)C3=O)o2)csc1=Cc1[n-]c(=O)[n-]c1[O-] (nonaromatic ring conformer: 160.935499166694 kcal/mol)

>  <smiles>  (2100) 
C=c1c(-c2ccc(C=C3C(=O)NC(=O)N(CCc4ccccc4)C3=O)o2)csc1=Cc1[nH]c(=O)[nH]c1O

>  <score_type>  (2100) 
oracle

>  <origin>  (2100) 
adg

>  <m_score__min__energy>  (2100) 
-20.16

>  <m_primary>  (2100) 
energy

$$$$
54:0
     RDKit          3D

 31 34  0  0  0  0  0  0  0  0999 V2000
   59.8770   29.2730   47.6360 C   0  0  0  0  0  0  0  0  0  0  0  0
   59.2810   29.9140   46.6180 C   0  0  0  0  0  0  0  0  0  0  0  0
   58.7550   29.3480   45.4450 C   0  0  0  0  0  0  0  0  0  0  0  0
   58.5380   28.0630   45.1010 C   0  0  0  0  0  0  0  0  0  0  0  0
   57.4740   27.1990   45.6400 C   0  0  0  0  0  0  0  0  0  0  0  0
   57.6850   26.0760   46.3530 N   0  0  0  0  0  0  0  0  0  0  0  0
   56.4430   25.7180   46.7430 C   0  0  0  0  0  0  0  0  0  0  0  0
   56.2200   24.6880   47.4300 O   0  0  0  0  0  0  0  0  0  0  0  0
   55.4610   26.5560   46.3500 N   0  0  0  0  0  0  0  0  0  0  0  0
   56.1340   27.4950   45.6660 C   0  0  0  0  0  0  0  0  0  0  0  0
   55.5350   28.6040   45.0810 O   0  0  0  0  0  0  0  0  0  0  0  0
   58.4340   30.4080   44.6140 C   0  0  0  0  0  0  0  0  0  0  0  0
   58.7090   31.5640   45.3140 C   0  0  0  0  0  0  0  0  0  0  0  0
   58.4890   32.9540   44.7980 C   0  0  0  0  0  0  0  0  0  0  0  0
   59.2130   31.2670   46.5300 N   0  0  0  0  0  0  0  0  0  0  0  0
   59.6610   32.2280   47.5000 C   0  0  0  0  0  0  0  0  0  0  0  0
   58.8150   33.2740   47.8880 C   0  0  0  0  0  0  0  0  0  0  0  0
   59.2490   34.2230   48.8130 C   0  0  0  0  0  0  0  0  0  0  0  0
   60.5320   34.1340   49.3580 C   0  0  0  0  0  0  0  0  0  0  0  0
   61.3980   33.0920   48.9820 C   0  0  0  0  0  0  0  0  0  0  0  0
   62.7200   33.0080   49.5520 N   0  0  0  0  0  0  0  0  0  0  0  0
   63.8960   32.9970   48.6670 C   0  0  0  0  0  0  0  0  0  0  0  0
   65.1110   32.3940   49.3780 C   0  0  0  0  0  0  0  0  0  0  0  0
   65.4420   33.1540   50.6860 C   0  0  0  0  0  0  0  0  0  0  0  0
   66.3590   32.3450   51.5350 N   0  0  0  0  0  0  0  0  0  0  0  0
   66.1680   30.9000   51.3290 C   0  0  0  0  0  0  0  0  0  0  0  0
   67.7880   32.6970   51.4170 C   0  0  0  0  0  0  0  0  0  0  0  0
   64.1750   33.6820   51.4260 C   0  0  0  0  0  0  0  0  0  0  0  0
   62.8960   32.9470   51.0120 C   0  0  0  0  0  0  0  0  0  0  0  0
   60.9560   32.1420   48.0390 C   0  0  0  0  0  0  0  0  0  0  0  0
   61.7880   31.1600   47.6090 F   0  0  0  0  0  0  0  0  0  0  0  0
  1  2  2  0
  2  3  1  0
  3  4  2  0
  4  5  1  0
  5  6  1  0
  6  7  1  0
  7  8  2  0
  7  9  1  0
  9 10  1  0
 10 11  1  0
  3 12  1  0
 12 13  2  0
 13 14  1  0
 13 15  1  0
 15 16  1  0
 16 17  2  0
 17 18  1  0
 18 19  2  0
 19 20  1  0
 20 21  1  0
 21 22  1  0
 22 23  1  0
 23 24  1  0
 24 25  1  0
 25 26  1  0
 25 27  1  0
 24 28  1  0
 28 29  1  0
 20 30  2  0
 30 31  1  0
 15  2  1  0
 30 16  1  0
 10  5  2  0
 29 21  1  0
M  CHG  3   6  -1   9  -1  11  -1
M  END
>  <UniqueID>  (2101) 
50

>  <SMILES>  (2101) 
C=c1/c(=C\c2[n-]c(=O)[n-]c2[O-])cc(C)n1-c1cccc(N2CCC(N(C)C)CC2)c1F

>  <Energy>  (2101) 
146.02339885470468

>  <Genealogy>  (2101) 
C=c1c(=Cc2[n-]c(=O)[n-]c2[O-])cc(C)n1-c1cccc(N2CCC(N(C)C)CC2)c1F (protonated)
C=c1/c(=C\c2[n-]c(=O)[n-]c2[O-])cc(C)n1-c1cccc(N2CCC(N(C)C)CC2)c1F (cis-trans isomerization)
C=c1/c(=C\c2[n-]c(=O)[n-]c2[O-])cc(C)n1-c1cccc(N2CCC(N(C)C)CC2)c1F (3D coordinates assigned)
C=c1/c(=C\c2[n-]c(=O)[n-]c2[O-])cc(C)n1-c1cccc(N2CCC(N(C)C)CC2)c1F (nonaromatic ring conformer: 146.02339885470468 kcal/mol)

>  <smiles>  (2101) 
C=c1c(=Cc2[nH]c(=O)[nH]c2O)cc(C)n1-c1cccc(N2CCC(N(C)C)CC2)c1F

>  <score_type>  (2101) 
oracle

>  <origin>  (2101) 
adg

>  <m_score__min__energy>  (2101) 
-16.66

>  <m_primary>  (2101) 
energy

$$$$
55:0
     RDKit          3D

 33 36  0  0  0  0  0  0  0  0999 V2000
   56.9330   23.7200   43.0840 C   0  0  0  0  0  0  0  0  0  0  0  0
   56.1740   22.4380   42.9330 C   0  0  0  0  0  0  0  0  0  0  0  0
   55.5250   22.2340   41.8720 O   0  0  0  0  0  0  0  0  0  0  0  0
   56.1280   21.4530   43.9740 N   0  0  0  0  0  0  0  0  0  0  0  0
   55.7540   21.6720   45.3410 C   0  0  0  0  0  0  0  0  0  0  0  0
   55.0100   20.7230   46.0610 C   0  0  0  0  0  0  0  0  0  0  0  0
   54.6330   20.9790   47.3820 C   0  0  0  0  0  0  0  0  0  0  0  0
   54.9810   22.1870   47.9890 C   0  0  0  0  0  0  0  0  0  0  0  0
   55.7090   23.1520   47.2750 C   0  0  0  0  0  0  0  0  0  0  0  0
   56.0400   24.4740   47.9120 C   0  0  0  0  0  0  0  0  0  0  0  0
   56.8520   25.3080   46.9720 C   0  0  0  0  0  0  0  0  0  0  0  0
   58.1950   25.2240   46.8570 N   0  0  0  0  0  0  0  0  0  0  0  0
   58.4990   26.1820   45.9550 C   0  0  0  0  0  0  0  0  0  0  0  0
   59.6770   26.4090   45.5740 O   0  0  0  0  0  0  0  0  0  0  0  0
   57.4250   26.8710   45.5110 N   0  0  0  0  0  0  0  0  0  0  0  0
   57.3810   27.9250   44.4980 C   0  0  0  0  0  0  0  0  0  0  0  0
   57.3570   29.2800   45.1600 C   0  0  0  0  0  0  0  0  0  0  0  0
   56.2490   29.8820   45.2130 O   0  0  0  0  0  0  0  0  0  0  0  0
   58.5440   29.9040   45.7170 N   0  0  0  0  0  0  0  0  0  0  0  0
   58.4590   31.2480   46.3120 C   0  0  0  0  0  0  0  0  0  0  0  0
   59.2640   31.2980   47.6110 C   0  0  0  0  0  0  0  0  0  0  0  0
   60.6310   30.7880   47.4220 N   0  0  0  0  0  0  0  0  0  0  0  0
   61.6440   31.0830   48.4120 C   0  0  0  0  0  0  0  0  0  0  0  0
   61.5680   30.5330   49.7080 C   0  0  0  0  0  0  0  0  0  0  0  0
   62.5520   30.8180   50.6590 C   0  0  0  0  0  0  0  0  0  0  0  0
   63.6250   31.6470   50.3310 C   0  0  0  0  0  0  0  0  0  0  0  0
   63.7170   32.1960   49.0500 C   0  0  0  0  0  0  0  0  0  0  0  0
   62.7350   31.9170   48.0940 C   0  0  0  0  0  0  0  0  0  0  0  0
   60.9920   30.1220   46.1620 C   0  0  0  0  0  0  0  0  0  0  0  0
   59.8500   29.2260   45.6660 C   0  0  0  0  0  0  0  0  0  0  0  0
   56.3860   26.3150   46.1570 C   0  0  0  0  0  0  0  0  0  0  0  0
   55.0610   26.7100   46.0120 O   0  0  0  0  0  0  0  0  0  0  0  0
   56.0750   22.8950   45.9430 C   0  0  0  0  0  0  0  0  0  0  0  0
  1  2  1  0
  2  3  2  0
  2  4  1  0
  4  5  1  0
  5  6  2  0
  6  7  1  0
  7  8  2  0
  8  9  1  0
  9 10  1  0
 10 11  1  0
 11 12  1  0
 12 13  1  0
 13 14  2  0
 13 15  1  0
 15 16  1  0
 16 17  1  0
 17 18  2  0
 17 19  1  0
 19 20  1  0
 20 21  1  0
 21 22  1  0
 22 23  1  0
 23 24  2  0
 24 25  1  0
 25 26  2  0
 26 27  1  0
 27 28  2  0
 22 29  1  0
 29 30  1  0
 15 31  1  0
 31 32  1  0
  9 33  2  0
 33  5  1  0
 31 11  2  0
 30 19  1  0
 28 23  1  0
M  CHG  3   4  -1  12  -1  32  -1
M  END
>  <UniqueID>  (2102) 
51

>  <SMILES>  (2102) 
CC(=O)[N-]c1cccc(Cc2[n-]c(=O)n(CC(=O)N3CCN(c4ccccc4)CC3)c2[O-])c1

>  <Energy>  (2102) 
97.95600582834817

>  <Genealogy>  (2102) 
CC(=O)[N-]c1cccc(Cc2[n-]c(=O)n(CC(=O)N3CCN(c4ccccc4)CC3)c2[O-])c1 (protonated)
CC(=O)[N-]c1cccc(Cc2[n-]c(=O)n(CC(=O)N3CCN(c4ccccc4)CC3)c2[O-])c1 (3D coordinates assigned)
CC(=O)[N-]c1cccc(Cc2[n-]c(=O)n(CC(=O)N3CCN(c4ccccc4)CC3)c2[O-])c1 (nonaromatic ring conformer: 97.95600582834817 kcal/mol)

>  <smiles>  (2102) 
CC(=O)Nc1cccc(Cc2[nH]c(=O)n(CC(=O)N3CCN(c4ccccc4)CC3)c2O)c1

>  <score_type>  (2102) 
oracle

>  <origin>  (2102) 
adg

>  <m_score__min__energy>  (2102) 
-14.369999999999999

>  <m_primary>  (2102) 
energy

$$$$
86:0
     RDKit          3D

 29 31  0  0  0  0  0  0  0  0999 V2000
   58.8820   29.7350   47.8620 C   0  0  0  0  0  0  0  0  0  0  0  0
   58.5300   29.8600   46.5740 C   0  0  0  0  0  0  0  0  0  0  0  0
   58.4290   28.8440   45.6130 C   0  0  0  0  0  0  0  0  0  0  0  0
   58.4540   27.5030   45.7350 C   0  0  0  0  0  0  0  0  0  0  0  0
   57.2780   26.6360   45.9120 C   0  0  0  0  0  0  0  0  0  0  0  0
   57.3070   25.4050   46.4560 N   0  0  0  0  0  0  0  0  0  0  0  0
   56.0020   25.0700   46.5380 C   0  0  0  0  0  0  0  0  0  0  0  0
   55.6140   23.9610   46.9910 O   0  0  0  0  0  0  0  0  0  0  0  0
   55.1430   26.0200   46.1100 N   0  0  0  0  0  0  0  0  0  0  0  0
   55.9680   27.0100   45.7310 C   0  0  0  0  0  0  0  0  0  0  0  0
   55.5330   28.2320   45.2360 O   0  0  0  0  0  0  0  0  0  0  0  0
   58.2730   29.4840   44.3950 C   0  0  0  0  0  0  0  0  0  0  0  0
   58.2150   30.8410   44.6500 C   0  0  0  0  0  0  0  0  0  0  0  0
   58.1160   31.8770   43.5710 C   0  0  0  0  0  0  0  0  0  0  0  0
   58.3600   31.0640   45.9820 N   0  0  0  0  0  0  0  0  0  0  0  0
   58.4310   32.2690   46.6710 O   0  0  0  0  0  0  0  0  0  0  0  0
   57.5060   33.3400   46.5250 C   0  0  0  0  0  0  0  0  0  0  0  0
   58.1140   34.4130   45.6710 C   0  0  0  0  0  0  0  0  0  0  0  0
   57.4290   34.9220   44.7460 O   0  0  0  0  0  0  0  0  0  0  0  0
   59.4450   34.9000   45.8960 N   0  0  0  0  0  0  0  0  0  0  0  0
   60.4150   34.3500   46.7970 C   0  0  0  0  0  0  0  0  0  0  0  0
   60.2170   34.3530   48.1870 C   0  0  0  0  0  0  0  0  0  0  0  0
   61.1720   33.7880   49.0370 C   0  0  0  0  0  0  0  0  0  0  0  0
   62.3350   33.1910   48.5160 C   0  0  0  0  0  0  0  0  0  0  0  0
   63.3430   32.5970   49.4340 C   0  0  0  0  0  0  0  0  0  0  0  0
   63.4050   31.3440   49.5670 O   0  0  0  0  0  0  0  0  0  0  0  0
   64.3010   33.4450   50.2160 C   0  0  0  0  0  0  0  0  0  0  0  0
   62.5110   33.1660   47.1180 C   0  0  0  0  0  0  0  0  0  0  0  0
   61.5530   33.7320   46.2700 C   0  0  0  0  0  0  0  0  0  0  0  0
  1  2  2  0
  2  3  1  0
  3  4  2  0
  4  5  1  0
  5  6  1  0
  6  7  1  0
  7  8  2  0
  7  9  1  0
  9 10  1  0
 10 11  1  0
  3 12  1  0
 12 13  2  0
 13 14  1  0
 13 15  1  0
 15 16  1  0
 16 17  1  0
 17 18  1  0
 18 19  2  0
 18 20  1  0
 20 21  1  0
 21 22  2  0
 22 23  1  0
 23 24  2  0
 24 25  1  0
 25 26  2  0
 25 27  1  0
 24 28  1  0
 28 29  2  0
 15  2  1  0
 29 21  1  0
 10  5  2  0
M  CHG  4   6  -1   9  -1  11  -1  20  -1
M  END
>  <UniqueID>  (2103) 
81

>  <SMILES>  (2103) 
C=c1/c(=C\c2[n-]c(=O)[n-]c2[O-])cc(C)n1OCC(=O)[N-]c1ccc(C(C)=O)cc1

>  <Energy>  (2103) 
121.96507351875417

>  <Genealogy>  (2103) 
C=c1c(=Cc2[n-]c(=O)[n-]c2[O-])cc(C)n1OCC(=O)[N-]c1ccc(C(C)=O)cc1 (protonated)
C=c1/c(=C\c2[n-]c(=O)[n-]c2[O-])cc(C)n1OCC(=O)[N-]c1ccc(C(C)=O)cc1 (cis-trans isomerization)
C=c1/c(=C\c2[n-]c(=O)[n-]c2[O-])cc(C)n1OCC(=O)[N-]c1ccc(C(C)=O)cc1 (3D coordinates assigned)
C=c1/c(=C\c2[n-]c(=O)[n-]c2[O-])cc(C)n1OCC(=O)[N-]c1ccc(C(C)=O)cc1 (optimized conformer: 121.96507351875417 kcal/mol)

>  <smiles>  (2103) 
C=c1c(=Cc2[nH]c(=O)[nH]c2O)cc(C)n1OCC(=O)Nc1ccc(C(C)=O)cc1

>  <score_type>  (2103) 
oracle

>  <origin>  (2103) 
adg

>  <m_score__min__energy>  (2103) 
-17.91

>  <m_primary>  (2103) 
energy

$$$$
87:0
     RDKit          3D

 30 33  0  0  0  0  0  0  0  0999 V2000
   53.9640   29.5130   54.6660 C   0  0  0  0  0  0  0  0  0  0  0  0
   54.4870   30.0200   53.5390 C   0  0  0  0  0  0  0  0  0  0  0  0
   53.7470   30.5010   52.4500 C   0  0  0  0  0  0  0  0  0  0  0  0
   52.4070   30.4320   52.2820 C   0  0  0  0  0  0  0  0  0  0  0  0
   51.6890   30.7810   51.0340 C   0  0  0  0  0  0  0  0  0  0  0  0
   51.6430   30.0250   49.9280 N   0  0  0  0  0  0  0  0  0  0  0  0
   51.0410   30.8250   49.0180 C   0  0  0  0  0  0  0  0  0  0  0  0
   50.8260   30.4580   47.8330 O   0  0  0  0  0  0  0  0  0  0  0  0
   50.7000   32.0520   49.4760 N   0  0  0  0  0  0  0  0  0  0  0  0
   51.1330   32.0060   50.7450 C   0  0  0  0  0  0  0  0  0  0  0  0
   51.0230   33.0730   51.6260 O   0  0  0  0  0  0  0  0  0  0  0  0
   54.6640   31.0970   51.5950 C   0  0  0  0  0  0  0  0  0  0  0  0
   55.9060   30.9500   52.1610 C   0  0  0  0  0  0  0  0  0  0  0  0
   57.1670   31.5290   51.5860 C   0  0  0  0  0  0  0  0  0  0  0  0
   55.8140   30.2650   53.3330 N   0  0  0  0  0  0  0  0  0  0  0  0
   56.8820   30.0760   54.2520 N   0  0  0  0  0  0  0  0  0  0  0  0
   57.5050   28.7790   54.0790 C   0  0  0  0  0  0  0  0  0  0  0  0
   56.8130   27.6160   54.4790 C   0  0  0  0  0  0  0  0  0  0  0  0
   57.4200   26.3580   54.4070 C   0  0  0  0  0  0  0  0  0  0  0  0
   58.7170   26.2390   53.9070 C   0  0  0  0  0  0  0  0  0  0  0  0
   59.4030   27.3650   53.4590 C   0  0  0  0  0  0  0  0  0  0  0  0
   58.7970   28.6360   53.4920 C   0  0  0  0  0  0  0  0  0  0  0  0
   59.5710   29.8050   53.0100 C   0  0  0  0  0  0  0  0  0  0  0  0
   59.7810   30.7550   53.8150 O   0  0  0  0  0  0  0  0  0  0  0  0
   60.0710   29.8940   51.6500 N   0  0  0  0  0  0  0  0  0  0  0  0
   60.3990   31.2380   51.1200 C   0  0  0  0  0  0  0  0  0  0  0  0
   61.2370   31.1660   49.8360 C   0  0  0  0  0  0  0  0  0  0  0  0
   60.7090   30.1960   48.9540 O   0  0  0  0  0  0  0  0  0  0  0  0
   60.9020   28.9100   49.5130 C   0  0  0  0  0  0  0  0  0  0  0  0
   60.0220   28.7180   50.7560 C   0  0  0  0  0  0  0  0  0  0  0  0
  1  2  2  0
  2  3  1  0
  3  4  2  3
  4  5  1  0
  5  6  1  0
  6  7  1  0
  7  8  2  0
  7  9  1  0
  9 10  1  0
 10 11  1  0
  3 12  1  0
 12 13  2  0
 13 14  1  0
 13 15  1  0
 15 16  1  0
 16 17  1  0
 17 18  2  0
 18 19  1  0
 19 20  2  0
 20 21  1  0
 21 22  2  0
 22 23  1  0
 23 24  2  0
 23 25  1  0
 25 26  1  0
 26 27  1  0
 27 28  1  0
 28 29  1  0
 29 30  1  0
 15  2  1  0
 22 17  1  0
 30 25  1  0
 10  5  2  0
M  CHG  4   6  -1   9  -1  11  -1  16   1
M  END
>  <UniqueID>  (2104) 
82

>  <SMILES>  (2104) 
C=c1c(=Cc2[n-]c(=O)[n-]c2[O-])cc(C)n1[NH2+]c1ccccc1C(=O)N1CCOCC1

>  <Energy>  (2104) 
136.9666108250101

>  <Genealogy>  (2104) 
C=c1c(=Cc2[n-]c(=O)[n-]c2[O-])cc(C)n1[NH2+]c1ccccc1C(=O)N1CCOCC1 (protonated)
C=c1c(=Cc2[n-]c(=O)[n-]c2[O-])cc(C)n1[NH2+]c1ccccc1C(=O)N1CCOCC1 (3D coordinates assigned)
C=c1c(=Cc2[n-]c(=O)[n-]c2[O-])cc(C)n1[NH2+]c1ccccc1C(=O)N1CCOCC1 (nonaromatic ring conformer: 136.9666108250101 kcal/mol)

>  <smiles>  (2104) 
C=c1c(=Cc2[nH]c(=O)[nH]c2O)cc(C)n1Nc1ccccc1C(=O)N1CCOCC1

>  <score_type>  (2104) 
oracle

>  <origin>  (2104) 
adg

>  <m_score__min__energy>  (2104) 
-15.390000000000001

>  <m_primary>  (2104) 
energy

$$$$
0:0
     RDKit          3D

 21 22  0  0  0  0  0  0  0  0999 V2000
   61.2510   31.8050   50.3780 C   0  0  0  0  0  0  0  0  0  0  0  0
   59.5310   32.0790   50.7480 S   0  0  0  0  0  0  0  0  0  0  0  0
   58.7460   31.9740   49.4710 O   0  0  0  0  0  0  0  0  0  0  0  0
   59.3290   33.4520   51.3250 O   0  0  0  0  0  0  0  0  0  0  0  0
   58.9570   30.8740   51.8580 N   0  0  0  0  0  0  0  0  0  0  0  0
   57.5710   30.6570   52.1850 C   0  0  0  0  0  0  0  0  0  0  0  0
   56.5440   31.4600   51.6590 C   0  0  0  0  0  0  0  0  0  0  0  0
   55.2090   31.2170   52.0000 C   0  0  0  0  0  0  0  0  0  0  0  0
   54.8690   30.1640   52.8660 C   0  0  0  0  0  0  0  0  0  0  0  0
   53.4440   29.9230   53.2190 C   0  0  0  0  0  0  0  0  0  0  0  0
   53.0840   28.7620   53.5620 O   0  0  0  0  0  0  0  0  0  0  0  0
   52.4140   31.0220   53.1300 C   0  0  0  0  0  0  0  0  0  0  0  0
   51.8850   31.1890   51.7360 C   0  0  0  0  0  0  0  0  0  0  0  0
   52.0770   30.3040   50.7430 N   0  0  0  0  0  0  0  0  0  0  0  0
   51.3800   30.8360   49.7140 C   0  0  0  0  0  0  0  0  0  0  0  0
   51.3220   30.2900   48.5820 O   0  0  0  0  0  0  0  0  0  0  0  0
   50.7510   31.9970   49.9960 N   0  0  0  0  0  0  0  0  0  0  0  0
   51.0750   32.2020   51.2820 C   0  0  0  0  0  0  0  0  0  0  0  0
   50.6370   33.2900   52.0270 O   0  0  0  0  0  0  0  0  0  0  0  0
   55.8990   29.3630   53.3910 C   0  0  0  0  0  0  0  0  0  0  0  0
   57.2330   29.6070   53.0500 C   0  0  0  0  0  0  0  0  0  0  0  0
  1  2  1  0
  2  3  2  0
  2  4  2  0
  2  5  1  0
  5  6  1  0
  6  7  2  0
  7  8  1  0
  8  9  2  0
  9 10  1  0
 10 11  2  0
 10 12  1  0
 12 13  1  0
 13 14  1  0
 14 15  1  0
 15 16  2  0
 15 17  1  0
 17 18  1  0
 18 19  1  0
  9 20  1  0
 20 21  2  0
 21  6  1  0
 18 13  2  0
M  CHG  3  14  -1  17  -1  19  -1
M  END
>  <UniqueID>  (2105) 
1

>  <SMILES>  (2105) 
CS(=O)(=O)Nc1ccc(C(=O)Cc2[n-]c(=O)[n-]c2[O-])cc1

>  <Energy>  (2105) 
61.079064027985495

>  <Genealogy>  (2105) 
CS(=O)(=O)Nc1ccc(C(=O)Cc2[n-]c(=O)[n-]c2[O-])cc1 (protonated)
CS(=O)(=O)Nc1ccc(C(=O)Cc2[n-]c(=O)[n-]c2[O-])cc1 (3D coordinates assigned)
CS(=O)(=O)Nc1ccc(C(=O)Cc2[n-]c(=O)[n-]c2[O-])cc1 (optimized conformer: 61.079064027985495 kcal/mol)

>  <smiles>  (2105) 
CS(=O)(=O)Nc1ccc(C(=O)Cc2[nH]c(=O)[nH]c2O)cc1

>  <score_type>  (2105) 
oracle

>  <origin>  (2105) 
adg

>  <m_score__min__energy>  (2105) 
-15.08

>  <m_primary>  (2105) 
energy

$$$$
49:0
     RDKit          3D

 28 31  0  0  0  0  0  0  0  0999 V2000
   56.9650   29.6480   43.1180 C   0  0  0  0  0  0  0  0  0  0  0  0
   57.4570   30.3600   44.1490 C   0  0  0  0  0  0  0  0  0  0  0  0
   57.2340   31.7500   44.1370 C   0  0  0  0  0  0  0  0  0  0  0  0
   57.9180   32.6090   45.0070 C   0  0  0  0  0  0  0  0  0  0  0  0
   57.6710   34.0940   44.9190 C   0  0  0  0  0  0  0  0  0  0  0  0
   58.8480   32.0710   45.9190 C   0  0  0  0  0  0  0  0  0  0  0  0
   59.6100   32.9320   46.8520 C   0  0  0  0  0  0  0  0  0  0  0  0
   58.9880   33.7360   47.5970 O   0  0  0  0  0  0  0  0  0  0  0  0
   61.0440   32.8500   46.9270 N   0  0  0  0  0  0  0  0  0  0  0  0
   61.7860   32.0350   47.8110 C   0  0  0  0  0  0  0  0  0  0  0  0
   61.3190   31.3790   48.8950 N   0  0  0  0  0  0  0  0  0  0  0  0
   62.4220   31.2660   49.6790 C   0  0  0  0  0  0  0  0  0  0  0  0
   63.4840   31.9200   49.0770 C   0  0  0  0  0  0  0  0  0  0  0  0
   64.7330   32.2730   49.6960 C   0  0  0  0  0  0  0  0  0  0  0  0
   65.7390   32.5560   50.1930 N   0  0  0  0  0  0  0  0  0  0  0  0
   63.0580   32.3640   47.8890 N   0  0  0  0  0  0  0  0  0  0  0  0
   63.3500   33.5420   47.0930 C   0  0  0  0  0  0  0  0  0  0  0  0
   61.9930   33.8390   46.3910 C   0  0  0  0  0  0  0  0  0  0  0  0
   59.0280   30.6840   45.9830 C   0  0  0  0  0  0  0  0  0  0  0  0
   58.2910   29.7990   45.1690 C   0  0  0  0  0  0  0  0  0  0  0  0
   58.4180   28.4740   45.4390 C   0  0  0  0  0  0  0  0  0  0  0  0
   57.3180   27.5240   45.6890 C   0  0  0  0  0  0  0  0  0  0  0  0
   57.5070   26.2850   46.1760 N   0  0  0  0  0  0  0  0  0  0  0  0
   56.2500   25.8190   46.3430 C   0  0  0  0  0  0  0  0  0  0  0  0
   56.0090   24.6630   46.7780 O   0  0  0  0  0  0  0  0  0  0  0  0
   55.2740   26.6930   46.0200 N   0  0  0  0  0  0  0  0  0  0  0  0
   55.9640   27.7720   45.6200 C   0  0  0  0  0  0  0  0  0  0  0  0
   55.3710   28.9670   45.2330 O   0  0  0  0  0  0  0  0  0  0  0  0
  1  2  2  0
  2  3  1  0
  3  4  2  0
  4  5  1  0
  4  6  1  0
  6  7  1  0
  7  8  2  0
  7  9  1  0
  9 10  1  0
 10 11  2  0
 11 12  1  0
 12 13  2  0
 13 14  1  0
 14 15  3  0
 13 16  1  0
 16 17  1  0
 17 18  1  0
  6 19  2  0
 19 20  1  0
 20 21  2  0
 21 22  1  0
 22 23  1  0
 23 24  1  0
 24 25  2  0
 24 26  1  0
 26 27  1  0
 27 28  1  0
 20  2  1  0
 27 22  2  0
 18  9  1  0
 16 10  1  0
M  CHG  3  23  -1  26  -1  28  -1
M  END
>  <UniqueID>  (2106) 
48

>  <SMILES>  (2106) 
C=c1cc(C)c(C(=O)N2CCn3c(C#N)cnc32)c/c1=C/c1[n-]c(=O)[n-]c1[O-]

>  <Energy>  (2106) 
161.48853773023652

>  <Genealogy>  (2106) 
C=c1cc(C)c(C(=O)N2CCn3c(C#N)cnc32)cc1=Cc1[n-]c(=O)[n-]c1[O-] (protonated)
C=c1cc(C)c(C(=O)N2CCn3c(C#N)cnc32)c/c1=C/c1[n-]c(=O)[n-]c1[O-] (cis-trans isomerization)
C=c1cc(C)c(C(=O)N2CCn3c(C#N)cnc32)c/c1=C/c1[n-]c(=O)[n-]c1[O-] (3D coordinates assigned)
C=c1cc(C)c(C(=O)N2CCn3c(C#N)cnc32)c/c1=C/c1[n-]c(=O)[n-]c1[O-] (nonaromatic ring conformer: 161.48853773023652 kcal/mol)

>  <smiles>  (2106) 
C=c1cc(C)c(C(=O)N2CCn3c(C#N)cnc32)cc1=Cc1[nH]c(=O)[nH]c1O

>  <score_type>  (2106) 
oracle

>  <origin>  (2106) 
adg

>  <m_score__min__energy>  (2106) 
-16.68

>  <m_primary>  (2106) 
energy

$$$$
55:0
     RDKit          3D

 34 38  0  0  0  0  0  0  0  0999 V2000
   58.4350   27.4490   43.5660 C   0  0  0  0  0  0  0  0  0  0  0  0
   58.5750   26.9880   44.8200 C   0  0  0  0  0  0  0  0  0  0  0  0
   58.0000   25.8150   45.3340 C   0  0  0  0  0  0  0  0  0  0  0  0
   57.2100   24.9410   44.6700 C   0  0  0  0  0  0  0  0  0  0  0  0
   55.8200   24.5770   45.0320 C   0  0  0  0  0  0  0  0  0  0  0  0
   55.2300   23.3870   44.8200 N   0  0  0  0  0  0  0  0  0  0  0  0
   53.9800   23.5610   45.2990 C   0  0  0  0  0  0  0  0  0  0  0  0
   53.1130   22.6500   45.2790 O   0  0  0  0  0  0  0  0  0  0  0  0
   53.7330   24.7900   45.8000 N   0  0  0  0  0  0  0  0  0  0  0  0
   54.9060   25.4190   45.6210 C   0  0  0  0  0  0  0  0  0  0  0  0
   55.1350   26.7390   45.9890 O   0  0  0  0  0  0  0  0  0  0  0  0
   58.4060   25.7410   46.6600 C   0  0  0  0  0  0  0  0  0  0  0  0
   59.1860   26.8500   46.9010 C   0  0  0  0  0  0  0  0  0  0  0  0
   59.7960   27.1480   48.2090 C   0  0  0  0  0  0  0  0  0  0  0  0
   60.3310   26.2100   48.8590 O   0  0  0  0  0  0  0  0  0  0  0  0
   59.7480   28.4740   48.7660 N   0  0  0  0  0  0  0  0  0  0  0  0
   60.7290   28.8870   49.7690 C   0  0  0  0  0  0  0  0  0  0  0  0
   61.0430   30.3740   49.5890 C   0  0  0  0  0  0  0  0  0  0  0  0
   59.8260   31.2310   49.6310 N   0  0  0  0  0  0  0  0  0  0  0  0
   59.8750   32.5120   48.8750 C   0  0  0  0  0  0  0  0  0  0  0  0
   61.2750   33.0190   48.5210 C   0  0  0  0  0  0  0  0  0  0  0  0
   61.0250   34.2710   49.3560 C   0  0  0  0  0  0  0  0  0  0  0  0
   59.6260   33.7730   49.7050 C   0  0  0  0  0  0  0  0  0  0  0  0
   58.5330   30.5240   49.4630 C   0  0  0  0  0  0  0  0  0  0  0  0
   58.6080   29.3530   48.4710 C   0  0  0  0  0  0  0  0  0  0  0  0
   59.3040   27.6110   45.7870 N   0  0  0  0  0  0  0  0  0  0  0  0
   60.2270   28.7490   45.6260 C   0  0  0  0  0  0  0  0  0  0  0  0
   59.4580   30.0430   45.5560 C   0  0  0  0  0  0  0  0  0  0  0  0
   60.0310   31.2320   46.0390 C   0  0  0  0  0  0  0  0  0  0  0  0
   59.3360   32.4410   45.9430 C   0  0  0  0  0  0  0  0  0  0  0  0
   58.0660   32.4740   45.3590 C   0  0  0  0  0  0  0  0  0  0  0  0
   57.1180   34.1280   45.2260 Br  0  0  0  0  0  0  0  0  0  0  0  0
   57.4890   31.2970   44.8740 C   0  0  0  0  0  0  0  0  0  0  0  0
   58.1810   30.0860   44.9710 C   0  0  0  0  0  0  0  0  0  0  0  0
  1  2  2  0
  2  3  1  0
  3  4  2  0
  4  5  1  0
  5  6  1  0
  6  7  1  0
  7  8  2  0
  7  9  1  0
  9 10  1  0
 10 11  1  0
  3 12  1  0
 12 13  2  0
 13 14  1  0
 14 15  2  0
 14 16  1  0
 16 17  1  0
 17 18  1  0
 18 19  1  0
 19 20  1  0
 20 21  1  0
 21 22  1  0
 22 23  1  0
 19 24  1  0
 24 25  1  0
 13 26  1  0
 26 27  1  0
 27 28  1  0
 28 29  2  0
 29 30  1  0
 30 31  2  0
 31 32  1  0
 31 33  1  0
 33 34  2  0
 26  2  1  0
 34 28  1  0
 10  5  2  0
 25 16  1  0
 23 20  1  0
M  CHG  3   6  -1   9  -1  11  -1
M  END
>  <UniqueID>  (2107) 
54

>  <SMILES>  (2107) 
C=c1/c(=C/c2[n-]c(=O)[n-]c2[O-])cc(C(=O)N2CCN(C3CCC3)CC2)n1Cc1ccc(Br)cc1

>  <Energy>  (2107) 
202.94862768231576

>  <Genealogy>  (2107) 
C=c1c(=Cc2[n-]c(=O)[n-]c2[O-])cc(C(=O)N2CCN(C3CCC3)CC2)n1Cc1ccc(Br)cc1 (protonated)
C=c1/c(=C/c2[n-]c(=O)[n-]c2[O-])cc(C(=O)N2CCN(C3CCC3)CC2)n1Cc1ccc(Br)cc1 (cis-trans isomerization)
C=c1/c(=C/c2[n-]c(=O)[n-]c2[O-])cc(C(=O)N2CCN(C3CCC3)CC2)n1Cc1ccc(Br)cc1 (3D coordinates assigned)
C=c1/c(=C/c2[n-]c(=O)[n-]c2[O-])cc(C(=O)N2CCN(C3CCC3)CC2)n1Cc1ccc(Br)cc1 (nonaromatic ring conformer: 202.94862768231576 kcal/mol)

>  <smiles>  (2107) 
C=c1c(=Cc2[nH]c(=O)[nH]c2O)cc(C(=O)N2CCN(C3CCC3)CC2)n1Cc1ccc(Br)cc1

>  <score_type>  (2107) 
oracle

>  <origin>  (2107) 
adg

>  <m_score__min__energy>  (2107) 
-17.23

>  <m_primary>  (2107) 
energy

$$$$
58:0
     RDKit          3D

 28 31  0  0  0  0  0  0  0  0999 V2000
   58.8770   30.1170   44.2490 C   0  0  0  0  0  0  0  0  0  0  0  0
   58.7070   29.9940   45.5750 C   0  0  0  0  0  0  0  0  0  0  0  0
   58.5870   28.8050   46.3120 C   0  0  0  0  0  0  0  0  0  0  0  0
   58.3920   27.5350   45.9100 C   0  0  0  0  0  0  0  0  0  0  0  0
   57.1730   26.7430   46.1390 C   0  0  0  0  0  0  0  0  0  0  0  0
   57.1570   25.4660   46.5670 N   0  0  0  0  0  0  0  0  0  0  0  0
   55.8510   25.1290   46.4890 C   0  0  0  0  0  0  0  0  0  0  0  0
   55.4230   23.9940   46.8250 O   0  0  0  0  0  0  0  0  0  0  0  0
   55.0420   26.0990   46.0110 N   0  0  0  0  0  0  0  0  0  0  0  0
   55.8980   27.1080   45.7820 C   0  0  0  0  0  0  0  0  0  0  0  0
   55.5220   28.3350   45.2520 O   0  0  0  0  0  0  0  0  0  0  0  0
   58.6840   29.1650   47.6470 C   0  0  0  0  0  0  0  0  0  0  0  0
   58.7790   30.5410   47.6840 C   0  0  0  0  0  0  0  0  0  0  0  0
   58.9060   31.3580   48.9320 C   0  0  0  0  0  0  0  0  0  0  0  0
   58.7860   31.0440   46.4310 N   0  0  0  0  0  0  0  0  0  0  0  0
   58.9610   32.4300   46.0880 C   0  0  0  0  0  0  0  0  0  0  0  0
   57.8960   33.1180   45.4830 C   0  0  0  0  0  0  0  0  0  0  0  0
   56.7340   32.4720   45.2090 F   0  0  0  0  0  0  0  0  0  0  0  0
   58.0120   34.4750   45.1780 C   0  0  0  0  0  0  0  0  0  0  0  0
   59.1900   35.1580   45.4770 C   0  0  0  0  0  0  0  0  0  0  0  0
   60.2580   34.4880   46.0770 C   0  0  0  0  0  0  0  0  0  0  0  0
   60.1660   33.1180   46.3850 C   0  0  0  0  0  0  0  0  0  0  0  0
   61.3360   32.4400   46.9990 C   0  0  0  0  0  0  0  0  0  0  0  0
   62.2760   33.0890   47.7250 N   0  0  0  0  0  0  0  0  0  0  0  0
   63.1060   32.0770   48.0320 C   0  0  0  0  0  0  0  0  0  0  0  0
   64.1500   32.2170   48.7200 O   0  0  0  0  0  0  0  0  0  0  0  0
   62.7080   30.9370   47.5340 O   0  0  0  0  0  0  0  0  0  0  0  0
   61.6040   31.1220   46.8790 N   0  0  0  0  0  0  0  0  0  0  0  0
  1  2  2  0
  2  3  1  0
  3  4  2  0
  4  5  1  0
  5  6  1  0
  6  7  1  0
  7  8  2  0
  7  9  1  0
  9 10  1  0
 10 11  1  0
  3 12  1  0
 12 13  2  0
 13 14  1  0
 13 15  1  0
 15 16  1  0
 16 17  2  0
 17 18  1  0
 17 19  1  0
 19 20  2  0
 20 21  1  0
 21 22  2  0
 22 23  1  0
 23 24  2  0
 24 25  1  0
 25 26  2  0
 25 27  1  0
 27 28  1  0
 15  2  1  0
 22 16  1  0
 28 23  1  0
 10  5  2  0
M  CHG  4   6  -1   9  -1  11  -1  28  -1
M  END
>  <UniqueID>  (2108) 
57

>  <SMILES>  (2108) 
C=c1/c(=C\c2[n-]c(=O)[n-]c2[O-])cc(C)n1-c1c(F)cccc1-c1nc(=O)o[n-]1

>  <Energy>  (2108) 
153.5914053785725

>  <Genealogy>  (2108) 
C=c1c(=Cc2[n-]c(=O)[n-]c2[O-])cc(C)n1-c1c(F)cccc1-c1nc(=O)o[n-]1 (protonated)
C=c1/c(=C\c2[n-]c(=O)[n-]c2[O-])cc(C)n1-c1c(F)cccc1-c1nc(=O)o[n-]1 (cis-trans isomerization)
C=c1/c(=C\c2[n-]c(=O)[n-]c2[O-])cc(C)n1-c1c(F)cccc1-c1nc(=O)o[n-]1 (3D coordinates assigned)
C=c1/c(=C\c2[n-]c(=O)[n-]c2[O-])cc(C)n1-c1c(F)cccc1-c1nc(=O)o[n-]1 (optimized conformer: 153.5914053785725 kcal/mol)

>  <smiles>  (2108) 
C=c1c(=Cc2[nH]c(=O)[nH]c2O)cc(C)n1-c1c(F)cccc1-c1nc(=O)o[nH]1

>  <score_type>  (2108) 
oracle

>  <origin>  (2108) 
adg

>  <m_score__min__energy>  (2108) 
-16.41

>  <m_primary>  (2108) 
energy

$$$$
87:0
     RDKit          3D

 34 37  0  0  0  0  0  0  0  0999 V2000
   62.3680   31.6980   51.4670 O   0  0  0  0  0  0  0  0  0  0  0  0
   62.0220   32.6180   50.6800 C   0  0  0  0  0  0  0  0  0  0  0  0
   61.0780   33.5950   51.1360 N   0  0  0  0  0  0  0  0  0  0  0  0
   59.8340   33.9340   50.4530 C   0  0  0  0  0  0  0  0  0  0  0  0
   60.1350   34.6020   49.1110 C   0  0  0  0  0  0  0  0  0  0  0  0
   59.5760   33.8030   47.9630 C   0  0  0  0  0  0  0  0  0  0  0  0
   59.1770   32.4690   48.1510 C   0  0  0  0  0  0  0  0  0  0  0  0
   58.6270   31.7420   47.0920 C   0  0  0  0  0  0  0  0  0  0  0  0
   58.4580   32.3410   45.8370 C   0  0  0  0  0  0  0  0  0  0  0  0
   57.7750   31.4040   44.5100 S   0  0  0  0  0  0  0  0  0  0  0  0
   58.3360   31.8770   43.1980 O   0  0  0  0  0  0  0  0  0  0  0  0
   56.2850   31.6050   44.4970 O   0  0  0  0  0  0  0  0  0  0  0  0
   58.1450   29.7130   44.7400 N   0  0  0  0  0  0  0  0  0  0  0  0
   57.3500   29.1350   45.8500 C   0  0  0  0  0  0  0  0  0  0  0  0
   58.1650   28.9900   47.1460 C   0  0  0  0  0  0  0  0  0  0  0  0
   59.3750   28.1490   46.9610 N   0  0  0  0  0  0  0  0  0  0  0  0
   59.1410   26.7560   47.3970 C   0  0  0  0  0  0  0  0  0  0  0  0
   58.0680   26.1040   46.5630 C   0  0  0  0  0  0  0  0  0  0  0  0
   58.4080   25.1000   45.6400 C   0  0  0  0  0  0  0  0  0  0  0  0
   57.4200   24.5070   44.8490 C   0  0  0  0  0  0  0  0  0  0  0  0
   56.0880   24.9150   44.9690 C   0  0  0  0  0  0  0  0  0  0  0  0
   55.7420   25.9200   45.8760 C   0  0  0  0  0  0  0  0  0  0  0  0
   54.4180   26.3290   45.9900 O   0  0  0  0  0  0  0  0  0  0  0  0
   56.7290   26.5150   46.6720 C   0  0  0  0  0  0  0  0  0  0  0  0
   59.9200   28.2000   45.5790 C   0  0  0  0  0  0  0  0  0  0  0  0
   59.6030   29.5350   44.8970 C   0  0  0  0  0  0  0  0  0  0  0  0
   58.8480   33.6740   45.6470 C   0  0  0  0  0  0  0  0  0  0  0  0
   59.3990   34.4020   46.7050 C   0  0  0  0  0  0  0  0  0  0  0  0
   62.5740   32.6370   49.3120 C   0  0  0  0  0  0  0  0  0  0  0  0
   62.4130   31.5390   48.4540 C   0  0  0  0  0  0  0  0  0  0  0  0
   62.9320   31.5960   47.1590 C   0  0  0  0  0  0  0  0  0  0  0  0
   63.5740   32.7150   46.7300 N   0  0  0  0  0  0  0  0  0  0  0  0
   63.7260   33.8020   47.5330 C   0  0  0  0  0  0  0  0  0  0  0  0
   63.2210   33.7860   48.8360 C   0  0  0  0  0  0  0  0  0  0  0  0
  1  2  2  0
  2  3  1  0
  3  4  1  0
  4  5  1  0
  5  6  1  0
  6  7  2  0
  7  8  1  0
  8  9  2  0
  9 10  1  0
 10 11  2  0
 10 12  2  0
 10 13  1  0
 13 14  1  0
 14 15  1  0
 15 16  1  0
 16 17  1  0
 17 18  1  0
 18 19  2  0
 19 20  1  0
 20 21  2  0
 21 22  1  0
 22 23  1  0
 22 24  2  0
 16 25  1  0
 25 26  1  0
  9 27  1  0
 27 28  2  0
  2 29  1  0
 29 30  2  0
 30 31  1  0
 31 32  2  0
 32 33  1  0
 33 34  2  0
 28  6  1  0
 34 29  1  0
 26 13  1  0
 24 18  1  0
M  CHG  2   3  -1  23  -1
M  END
>  <UniqueID>  (2109) 
82

>  <SMILES>  (2109) 
O=C([N-]CCc1ccc(S(=O)(=O)N2CCN(Cc3cccc([O-])c3)CC2)cc1)c1ccncc1

>  <Energy>  (2109) 
76.83189340587927

>  <Genealogy>  (2109) 
O=C([N-]CCc1ccc(S(=O)(=O)N2CCN(Cc3cccc([O-])c3)CC2)cc1)c1ccncc1 (protonated)
O=C([N-]CCc1ccc(S(=O)(=O)N2CCN(Cc3cccc([O-])c3)CC2)cc1)c1ccncc1 (3D coordinates assigned)
O=C([N-]CCc1ccc(S(=O)(=O)N2CCN(Cc3cccc([O-])c3)CC2)cc1)c1ccncc1 (nonaromatic ring conformer: 76.83189340587927 kcal/mol)

>  <smiles>  (2109) 
O=C(NCCc1ccc(S(=O)(=O)N2CCN(Cc3cccc(O)c3)CC2)cc1)c1ccncc1

>  <score_type>  (2109) 
oracle

>  <origin>  (2109) 
adg

>  <m_score__min__energy>  (2109) 
-14.44

>  <m_primary>  (2109) 
energy

$$$$
4:0
     RDKit          3D

 30 33  0  0  0  0  0  0  0  0999 V2000
   55.0880   26.3490   46.1250 O   0  0  0  0  0  0  0  0  0  0  0  0
   55.9450   25.3580   46.5920 C   0  0  0  0  0  0  0  0  0  0  0  0
   55.6270   24.0530   46.6320 N   0  0  0  0  0  0  0  0  0  0  0  0
   56.7160   23.5000   47.2070 C   0  0  0  0  0  0  0  0  0  0  0  0
   56.8110   22.2660   47.4320 O   0  0  0  0  0  0  0  0  0  0  0  0
   57.6920   24.3760   47.5320 N   0  0  0  0  0  0  0  0  0  0  0  0
   57.2050   25.5570   47.1130 C   0  0  0  0  0  0  0  0  0  0  0  0
   57.8940   26.8400   47.3340 C   0  0  0  0  0  0  0  0  0  0  0  0
   58.1950   27.7240   46.3570 C   0  0  0  0  0  0  0  0  0  0  0  0
   57.2580   28.6180   45.7920 C   0  0  0  0  0  0  0  0  0  0  0  0
   57.7720   29.3970   44.7600 C   0  0  0  0  0  0  0  0  0  0  0  0
   57.0190   30.3630   43.9390 C   0  0  0  0  0  0  0  0  0  0  0  0
   56.6490   30.0310   42.7810 O   0  0  0  0  0  0  0  0  0  0  0  0
   56.6420   31.6510   44.4450 N   0  0  0  0  0  0  0  0  0  0  0  0
   57.4030   32.4270   45.1610 C   0  0  0  0  0  0  0  0  0  0  0  0
   57.7890   32.0650   46.4180 N   0  0  0  0  0  0  0  0  0  0  0  0
   58.6020   32.8480   47.1760 C   0  0  0  0  0  0  0  0  0  0  0  0
   59.0630   34.0750   46.6780 C   0  0  0  0  0  0  0  0  0  0  0  0
   59.9810   34.9380   47.4990 C   0  0  0  0  0  0  0  0  0  0  0  0
   61.2730   34.2150   47.7650 C   0  0  0  0  0  0  0  0  0  0  0  0
   62.1080   33.8400   46.6980 C   0  0  0  0  0  0  0  0  0  0  0  0
   63.3260   33.2010   46.9490 C   0  0  0  0  0  0  0  0  0  0  0  0
   63.7220   32.9370   48.2630 C   0  0  0  0  0  0  0  0  0  0  0  0
   62.9030   33.3180   49.3290 C   0  0  0  0  0  0  0  0  0  0  0  0
   61.6840   33.9590   49.0840 C   0  0  0  0  0  0  0  0  0  0  0  0
   58.6970   34.4540   45.3790 C   0  0  0  0  0  0  0  0  0  0  0  0
   57.8660   33.6300   44.6170 C   0  0  0  0  0  0  0  0  0  0  0  0
   59.3790   28.9790   44.5190 S   0  0  0  0  0  0  0  0  0  0  0  0
   59.4560   27.8180   45.7330 C   0  0  0  0  0  0  0  0  0  0  0  0
   60.5690   27.1330   46.0120 C   0  0  0  0  0  0  0  0  0  0  0  0
  1  2  1  0
  2  3  1  0
  3  4  1  0
  4  5  2  0
  4  6  1  0
  6  7  1  0
  7  8  1  0
  8  9  2  0
  9 10  1  0
 10 11  2  0
 11 12  1  0
 12 13  2  0
 12 14  1  0
 14 15  2  3
 15 16  1  0
 16 17  1  0
 17 18  2  0
 18 19  1  0
 19 20  1  0
 20 21  2  0
 21 22  1  0
 22 23  2  0
 23 24  1  0
 24 25  2  0
 18 26  1  0
 26 27  2  0
 11 28  1  0
 28 29  1  0
 29 30  2  0
  7  2  2  0
 29  9  1  0
 27 15  1  0
 25 20  1  0
M  CHG  3   3  -1   6  -1  16  -1
M  END
>  <UniqueID>  (2110) 
5

>  <SMILES>  (2110) 
C=c1sc(C(=O)N=c2ccc(Cc3ccccc3)c[n-]2)c/c1=C\c1[n-]c(=O)[n-]c1O

>  <Energy>  (2110) 
117.71467638379752

>  <Genealogy>  (2110) 
C=c1sc(C(=O)N=c2ccc(Cc3ccccc3)c[n-]2)cc1=Cc1[n-]c(=O)[n-]c1O (protonated)
C=c1sc(C(=O)N=c2ccc(Cc3ccccc3)c[n-]2)c/c1=C\c1[n-]c(=O)[n-]c1O (cis-trans isomerization)
C=c1sc(C(=O)N=c2ccc(Cc3ccccc3)c[n-]2)c/c1=C\c1[n-]c(=O)[n-]c1O (3D coordinates assigned)
C=c1sc(C(=O)N=c2ccc(Cc3ccccc3)c[n-]2)c/c1=C\c1[n-]c(=O)[n-]c1O (optimized conformer: 117.71467638379752 kcal/mol)

>  <smiles>  (2110) 
C=c1sc(C(=O)N=c2ccc(Cc3ccccc3)c[nH]2)cc1=Cc1[nH]c(=O)[nH]c1O

>  <score_type>  (2110) 
oracle

>  <origin>  (2110) 
adg

>  <m_score__min__energy>  (2110) 
-16.100000000000001

>  <m_primary>  (2110) 
energy

$$$$
9:0
     RDKit          3D

 27 30  0  0  0  0  0  0  0  0999 V2000
   55.2960   26.5580   45.9970 N   0  0  0  0  0  0  0  0  0  0  0  0
   56.6760   26.8610   46.1890 C   0  0  0  0  0  0  0  0  0  0  0  0
   57.4510   25.9400   46.5670 O   0  0  0  0  0  0  0  0  0  0  0  0
   57.2070   28.2310   45.9510 C   0  0  0  0  0  0  0  0  0  0  0  0
   58.4970   28.5600   46.4110 C   0  0  0  0  0  0  0  0  0  0  0  0
   59.0280   29.8340   46.2040 C   0  0  0  0  0  0  0  0  0  0  0  0
   58.2890   30.8130   45.5250 C   0  0  0  0  0  0  0  0  0  0  0  0
   58.8450   32.1690   45.3120 C   0  0  0  0  0  0  0  0  0  0  0  0
   58.6500   32.7530   44.2100 O   0  0  0  0  0  0  0  0  0  0  0  0
   59.5870   32.8440   46.3450 N   0  0  0  0  0  0  0  0  0  0  0  0
   60.8990   33.4420   46.0280 C   0  0  0  0  0  0  0  0  0  0  0  0
   61.8820   33.2710   47.1990 C   0  0  0  0  0  0  0  0  0  0  0  0
   61.1990   33.5990   48.4940 C   0  0  0  0  0  0  0  0  0  0  0  0
   59.8430   33.5090   48.6690 C   0  0  0  0  0  0  0  0  0  0  0  0
   59.5330   33.5980   49.9740 N   0  0  0  0  0  0  0  0  0  0  0  0
   60.6670   33.7130   50.6520 N   0  0  0  0  0  0  0  0  0  0  0  0
   61.6990   33.7130   49.7820 C   0  0  0  0  0  0  0  0  0  0  0  0
   63.1080   33.7260   50.2120 C   0  0  0  0  0  0  0  0  0  0  0  0
   64.0850   32.9620   49.5540 C   0  0  0  0  0  0  0  0  0  0  0  0
   65.4110   33.0240   49.9900 C   0  0  0  0  0  0  0  0  0  0  0  0
   65.7530   33.8510   51.0600 C   0  0  0  0  0  0  0  0  0  0  0  0
   64.7620   34.6170   51.6750 C   0  0  0  0  0  0  0  0  0  0  0  0
   63.4760   34.5420   51.2380 N   0  0  0  0  0  0  0  0  0  0  0  0
   58.8720   33.2880   47.5530 C   0  0  0  0  0  0  0  0  0  0  0  0
   56.9970   30.4990   45.0750 C   0  0  0  0  0  0  0  0  0  0  0  0
   56.4570   29.2240   45.2790 C   0  0  0  0  0  0  0  0  0  0  0  0
   55.1760   28.9650   44.8050 O   0  0  0  0  0  0  0  0  0  0  0  0
  1  2  1  0
  2  3  2  0
  2  4  1  0
  4  5  2  0
  5  6  1  0
  6  7  2  0
  7  8  1  0
  8  9  2  0
  8 10  1  0
 10 11  1  0
 11 12  1  0
 12 13  1  0
 13 14  1  0
 14 15  2  0
 15 16  1  0
 16 17  1  0
 17 18  1  0
 18 19  2  0
 19 20  1  0
 20 21  2  0
 21 22  1  0
 22 23  2  0
 14 24  1  0
  7 25  1  0
 25 26  2  0
 26 27  1  0
 26  4  1  0
 24 10  1  0
 17 13  2  0
 23 18  1  0
M  CHG  3   1  -1  16  -1  27  -1
M  END
>  <UniqueID>  (2111) 
10

>  <SMILES>  (2111) 
[NH-]C(=O)c1ccc(C(=O)N2CCc3c(n[n-]c3-c3ccccn3)C2)cc1[O-]

>  <Energy>  (2111) 
89.90430535699389

>  <Genealogy>  (2111) 
[NH-]C(=O)c1ccc(C(=O)N2CCc3c(n[n-]c3-c3ccccn3)C2)cc1[O-] (protonated)
[NH-]C(=O)c1ccc(C(=O)N2CCc3c(n[n-]c3-c3ccccn3)C2)cc1[O-] (3D coordinates assigned)
[NH-]C(=O)c1ccc(C(=O)N2CCc3c(n[n-]c3-c3ccccn3)C2)cc1[O-] (nonaromatic ring conformer: 89.90430535699389 kcal/mol)

>  <smiles>  (2111) 
NC(=O)c1ccc(C(=O)N2CCc3c(n[nH]c3-c3ccccn3)C2)cc1O

>  <score_type>  (2111) 
oracle

>  <origin>  (2111) 
adg

>  <m_score__min__energy>  (2111) 
-15.17

>  <m_primary>  (2111) 
energy

$$$$
37:0
     RDKit          3D

 32 34  0  0  0  0  0  0  0  0999 V2000
   58.3310   33.4180   44.1620 C   0  0  0  0  0  0  0  0  0  0  0  0
   58.8320   33.4310   45.5500 C   0  0  0  0  0  0  0  0  0  0  0  0
   58.0840   33.0270   46.4770 O   0  0  0  0  0  0  0  0  0  0  0  0
   60.1350   33.8140   45.8490 O   0  0  0  0  0  0  0  0  0  0  0  0
   57.9060   32.3330   43.4970 C   0  0  0  0  0  0  0  0  0  0  0  0
   57.4350   31.0800   44.1220 C   0  0  0  0  0  0  0  0  0  0  0  0
   58.2860   30.3010   44.9210 C   0  0  0  0  0  0  0  0  0  0  0  0
   57.8350   29.0980   45.4700 C   0  0  0  0  0  0  0  0  0  0  0  0
   56.5260   28.6450   45.2120 C   0  0  0  0  0  0  0  0  0  0  0  0
   56.0200   27.4520   45.7540 O   0  0  0  0  0  0  0  0  0  0  0  0
   56.6210   26.1640   45.6160 C   0  0  0  0  0  0  0  0  0  0  0  0
   58.0280   26.1690   46.1550 C   0  0  0  0  0  0  0  0  0  0  0  0
   58.9920   25.2930   45.6350 C   0  0  0  0  0  0  0  0  0  0  0  0
   60.2960   25.3070   46.1360 C   0  0  0  0  0  0  0  0  0  0  0  0
   60.6440   26.1820   47.1680 C   0  0  0  0  0  0  0  0  0  0  0  0
   59.6830   27.0420   47.7220 C   0  0  0  0  0  0  0  0  0  0  0  0
   60.0440   27.9800   48.8080 C   0  0  0  0  0  0  0  0  0  0  0  0
   60.3910   27.5130   49.9270 O   0  0  0  0  0  0  0  0  0  0  0  0
   60.0130   29.4060   48.6140 N   0  0  0  0  0  0  0  0  0  0  0  0
   60.4300   29.9910   47.3320 C   0  0  0  0  0  0  0  0  0  0  0  0
   61.0030   31.3960   47.5510 C   0  0  0  0  0  0  0  0  0  0  0  0
   60.0300   32.2870   48.2260 N   0  0  0  0  0  0  0  0  0  0  0  0
   60.8660   33.6990   48.8320 S   0  0  0  0  0  0  0  0  0  0  0  0
   61.0090   33.6040   50.3260 O   0  0  0  0  0  0  0  0  0  0  0  0
   60.0910   34.9420   48.4900 O   0  0  0  0  0  0  0  0  0  0  0  0
   62.4950   33.8040   48.1170 C   0  0  0  0  0  0  0  0  0  0  0  0
   59.2370   31.6330   49.3060 C   0  0  0  0  0  0  0  0  0  0  0  0
   59.8200   30.2900   49.7680 C   0  0  0  0  0  0  0  0  0  0  0  0
   58.3770   27.0360   47.2040 C   0  0  0  0  0  0  0  0  0  0  0  0
   55.6920   29.4070   44.3810 C   0  0  0  0  0  0  0  0  0  0  0  0
   54.4030   28.9690   44.1010 O   0  0  0  0  0  0  0  0  0  0  0  0
   56.1470   30.6100   43.8320 C   0  0  0  0  0  0  0  0  0  0  0  0
  1  2  1  0
  2  3  2  0
  2  4  1  0
  1  5  2  0
  5  6  1  0
  6  7  2  0
  7  8  1  0
  8  9  2  0
  9 10  1  0
 10 11  1  0
 11 12  1  0
 12 13  2  0
 13 14  1  0
 14 15  2  0
 15 16  1  0
 16 17  1  0
 17 18  2  0
 17 19  1  0
 19 20  1  0
 20 21  1  0
 21 22  1  0
 22 23  1  0
 23 24  2  0
 23 25  2  0
 23 26  1  0
 22 27  1  0
 27 28  1  0
 16 29  2  0
  9 30  1  0
 30 31  1  0
 30 32  2  0
 32  6  1  0
 29 12  1  0
 28 19  1  0
M  CHG  3   4  -1  22   1  31  -1
M  END
>  <UniqueID>  (2112) 
33

>  <SMILES>  (2112) 
CS(=O)(=O)[NH+]1CCN(C(=O)c2cccc(COc3ccc(/C=C\C(=O)[O-])cc3[O-])c2)CC1

>  <Energy>  (2112) 
68.90196319380419

>  <Genealogy>  (2112) 
CS(=O)(=O)[NH+]1CCN(C(=O)c2cccc(COc3ccc(C=CC(=O)[O-])cc3[O-])c2)CC1 (protonated)
CS(=O)(=O)[NH+]1CCN(C(=O)c2cccc(COc3ccc(/C=C\C(=O)[O-])cc3[O-])c2)CC1 (cis-trans isomerization)
CS(=O)(=O)[NH+]1CCN(C(=O)c2cccc(COc3ccc(/C=C\C(=O)[O-])cc3[O-])c2)CC1 (3D coordinates assigned)
CS(=O)(=O)[NH+]1CCN(C(=O)c2cccc(COc3ccc(/C=C\C(=O)[O-])cc3[O-])c2)CC1 (nonaromatic ring conformer: 68.90196319380419 kcal/mol)

>  <smiles>  (2112) 
CS(=O)(=O)N1CCN(C(=O)c2cccc(COc3ccc(C=CC(=O)O)cc3O)c2)CC1

>  <score_type>  (2112) 
oracle

>  <origin>  (2112) 
adg

>  <m_score__min__energy>  (2112) 
-14.380000000000001

>  <m_primary>  (2112) 
energy

$$$$
48:0
     RDKit          3D

 31 33  0  0  0  0  0  0  0  0999 V2000
   57.4010   21.4220   43.4120 C   0  0  0  0  0  0  0  0  0  0  0  0
   56.0960   21.8520   43.7850 O   0  0  0  0  0  0  0  0  0  0  0  0
   55.8120   23.0790   44.4040 C   0  0  0  0  0  0  0  0  0  0  0  0
   54.5180   23.2930   44.8910 C   0  0  0  0  0  0  0  0  0  0  0  0
   54.1820   24.5020   45.5020 C   0  0  0  0  0  0  0  0  0  0  0  0
   55.1400   25.5090   45.6430 C   0  0  0  0  0  0  0  0  0  0  0  0
   54.7860   26.7080   46.2540 O   0  0  0  0  0  0  0  0  0  0  0  0
   56.4520   25.3070   45.1810 C   0  0  0  0  0  0  0  0  0  0  0  0
   57.4220   26.3620   45.3080 N   0  0  0  0  0  0  0  0  0  0  0  0
   58.8040   26.1400   45.6370 C   0  0  0  0  0  0  0  0  0  0  0  0
   59.2420   24.9710   45.8070 O   0  0  0  0  0  0  0  0  0  0  0  0
   59.7160   27.2390   45.7470 N   0  0  0  0  0  0  0  0  0  0  0  0
   59.3610   28.5920   46.0630 C   0  0  0  0  0  0  0  0  0  0  0  0
   58.6300   29.3340   45.1300 C   0  0  0  0  0  0  0  0  0  0  0  0
   58.2800   30.6630   45.3900 C   0  0  0  0  0  0  0  0  0  0  0  0
   57.3560   31.5360   44.1710 Cl  0  0  0  0  0  0  0  0  0  0  0  0
   58.6750   31.2720   46.6000 C   0  0  0  0  0  0  0  0  0  0  0  0
   58.3380   32.7110   46.9040 C   0  0  0  0  0  0  0  0  0  0  0  0
   59.4730   33.6150   46.4960 C   0  0  0  0  0  0  0  0  0  0  0  0
   59.3700   34.2580   45.4150 O   0  0  0  0  0  0  0  0  0  0  0  0
   60.6600   33.7690   47.3040 N   0  0  0  0  0  0  0  0  0  0  0  0
   61.9260   33.2150   46.7860 C   0  0  0  0  0  0  0  0  0  0  0  0
   63.1420   33.8460   47.4680 C   0  0  0  0  0  0  0  0  0  0  0  0
   62.9980   33.7440   48.9100 N   0  0  0  0  0  0  0  0  0  0  0  0
   61.7410   34.0410   49.5090 C   0  0  0  0  0  0  0  0  0  0  0  0
   61.6310   34.0450   50.7630 O   0  0  0  0  0  0  0  0  0  0  0  0
   60.5640   34.3840   48.6430 C   0  0  0  0  0  0  0  0  0  0  0  0
   59.4490   30.5380   47.5140 C   0  0  0  0  0  0  0  0  0  0  0  0
   59.7950   29.2100   47.2490 C   0  0  0  0  0  0  0  0  0  0  0  0
   60.5910   28.5490   48.1270 F   0  0  0  0  0  0  0  0  0  0  0  0
   56.7770   24.0950   44.5460 C   0  0  0  0  0  0  0  0  0  0  0  0
  1  2  1  0
  2  3  1  0
  3  4  2  0
  4  5  1  0
  5  6  2  0
  6  7  1  0
  6  8  1  0
  8  9  1  0
  9 10  1  0
 10 11  2  0
 10 12  1  0
 12 13  1  0
 13 14  2  0
 14 15  1  0
 15 16  1  0
 15 17  2  0
 17 18  1  0
 18 19  1  0
 19 20  2  0
 19 21  1  0
 21 22  1  0
 22 23  1  0
 23 24  1  0
 24 25  1  0
 25 26  2  0
 25 27  1  0
 17 28  1  0
 28 29  2  0
 29 30  1  0
  8 31  2  0
 31  3  1  0
 29 13  1  0
 27 21  1  0
M  CHG  3   7  -1  12  -1  24  -1
M  END
>  <UniqueID>  (2113) 
44

>  <SMILES>  (2113) 
COc1ccc([O-])c(NC(=O)[N-]c2cc(Cl)c(CC(=O)N3CC[N-]C(=O)C3)cc2F)c1

>  <Energy>  (2113) 
59.39684054803425

>  <Genealogy>  (2113) 
COc1ccc([O-])c(NC(=O)[N-]c2cc(Cl)c(CC(=O)N3CC[N-]C(=O)C3)cc2F)c1 (protonated)
COc1ccc([O-])c(NC(=O)[N-]c2cc(Cl)c(CC(=O)N3CC[N-]C(=O)C3)cc2F)c1 (3D coordinates assigned)
COc1ccc([O-])c(NC(=O)[N-]c2cc(Cl)c(CC(=O)N3CC[N-]C(=O)C3)cc2F)c1 (nonaromatic ring conformer: 59.39684054803425 kcal/mol)

>  <smiles>  (2113) 
COc1ccc(O)c(NC(=O)Nc2cc(Cl)c(CC(=O)N3CCNC(=O)C3)cc2F)c1

>  <score_type>  (2113) 
oracle

>  <origin>  (2113) 
adg

>  <m_score__min__energy>  (2113) 
-14.640000000000001

>  <m_primary>  (2113) 
energy

$$$$
54:0
     RDKit          3D

 28 30  0  0  0  0  0  0  0  0999 V2000
   55.8190   26.3810   46.3460 O   0  0  0  0  0  0  0  0  0  0  0  0
   56.9680   26.8930   46.2740 C   0  0  0  0  0  0  0  0  0  0  0  0
   57.5250   27.2410   44.9200 C   0  0  0  0  0  0  0  0  0  0  0  0
   57.3460   28.7060   44.6230 C   0  0  0  0  0  0  0  0  0  0  0  0
   58.4230   29.4740   44.1520 C   0  0  0  0  0  0  0  0  0  0  0  0
   58.2480   30.8320   43.8790 C   0  0  0  0  0  0  0  0  0  0  0  0
   56.9930   31.4120   44.0750 C   0  0  0  0  0  0  0  0  0  0  0  0
   55.9570   30.6560   44.5270 N   0  0  0  0  0  0  0  0  0  0  0  0
   56.1030   29.3310   44.7990 C   0  0  0  0  0  0  0  0  0  0  0  0
   57.7120   27.0830   47.4860 N   0  0  0  0  0  0  0  0  0  0  0  0
   59.0190   27.7260   47.5980 C   0  0  0  0  0  0  0  0  0  0  0  0
   58.8810   29.1440   48.0860 C   0  0  0  0  0  0  0  0  0  0  0  0
   58.9930   30.2190   47.1890 C   0  0  0  0  0  0  0  0  0  0  0  0
   58.8510   31.5320   47.6420 C   0  0  0  0  0  0  0  0  0  0  0  0
   58.6110   31.7860   48.9940 C   0  0  0  0  0  0  0  0  0  0  0  0
   58.5310   30.7260   49.9100 C   0  0  0  0  0  0  0  0  0  0  0  0
   58.2330   30.9870   51.3610 C   0  0  0  0  0  0  0  0  0  0  0  0
   56.9110   31.5950   51.5120 N   0  0  0  0  0  0  0  0  0  0  0  0
   55.7770   30.8340   51.9370 C   0  0  0  0  0  0  0  0  0  0  0  0
   55.9100   29.6200   52.2550 O   0  0  0  0  0  0  0  0  0  0  0  0
   54.4920   31.4590   51.9910 N   0  0  0  0  0  0  0  0  0  0  0  0
   53.3650   31.0550   51.1600 C   0  0  0  0  0  0  0  0  0  0  0  0
   52.0820   31.5420   51.7560 C   0  0  0  0  0  0  0  0  0  0  0  0
   51.5170   31.1080   52.9340 C   0  0  0  0  0  0  0  0  0  0  0  0
   50.3740   31.8670   53.0530 C   0  0  0  0  0  0  0  0  0  0  0  0
   50.2780   32.7050   52.0030 N   0  0  0  0  0  0  0  0  0  0  0  0
   51.3220   32.5100   51.2130 N   0  0  0  0  0  0  0  0  0  0  0  0
   58.6690   29.4060   49.4500 C   0  0  0  0  0  0  0  0  0  0  0  0
  1  2  2  0
  2  3  1  0
  3  4  1  0
  4  5  2  0
  5  6  1  0
  6  7  2  0
  7  8  1  0
  8  9  2  0
  2 10  1  0
 10 11  1  0
 11 12  1  0
 12 13  2  0
 13 14  1  0
 14 15  2  0
 15 16  1  0
 16 17  1  0
 17 18  1  0
 18 19  1  0
 19 20  2  0
 19 21  1  0
 21 22  1  0
 22 23  1  0
 23 24  1  0
 24 25  2  0
 25 26  1  0
 26 27  1  0
 16 28  2  0
  9  4  1  0
 28 12  1  0
 27 23  2  0
M  CHG  3  10  -1  21  -1  26  -1
M  END
>  <UniqueID>  (2114) 
49

>  <SMILES>  (2114) 
O=C(Cc1cccnc1)[N-]Cc1cccc(CNC(=O)[N-]Cc2cc[n-]n2)c1

>  <Energy>  (2114) 
70.1975219621583

>  <Genealogy>  (2114) 
O=C(Cc1cccnc1)[N-]Cc1cccc(CNC(=O)[N-]Cc2cc[n-]n2)c1 (protonated)
O=C(Cc1cccnc1)[N-]Cc1cccc(CNC(=O)[N-]Cc2cc[n-]n2)c1 (3D coordinates assigned)
O=C(Cc1cccnc1)[N-]Cc1cccc(CNC(=O)[N-]Cc2cc[n-]n2)c1 (optimized conformer: 70.1975219621583 kcal/mol)

>  <smiles>  (2114) 
O=C(Cc1cccnc1)NCc1cccc(CNC(=O)NCc2cc[nH]n2)c1

>  <score_type>  (2114) 
oracle

>  <origin>  (2114) 
adg

>  <m_score__min__energy>  (2114) 
-14.56

>  <m_primary>  (2114) 
energy

$$$$
55:0
     RDKit          3D

 34 37  0  0  0  0  0  0  0  0999 V2000
   59.6320   27.8540   48.7410 C   0  0  0  0  0  0  0  0  0  0  0  0
   59.4260   28.8630   47.8810 C   0  0  0  0  0  0  0  0  0  0  0  0
   58.7420   28.7900   46.6590 C   0  0  0  0  0  0  0  0  0  0  0  0
   58.3810   27.7290   45.9080 C   0  0  0  0  0  0  0  0  0  0  0  0
   57.1630   26.9220   46.0910 C   0  0  0  0  0  0  0  0  0  0  0  0
   57.1430   25.6260   46.4550 N   0  0  0  0  0  0  0  0  0  0  0  0
   55.8440   25.2840   46.3300 C   0  0  0  0  0  0  0  0  0  0  0  0
   55.4190   24.1300   46.5970 O   0  0  0  0  0  0  0  0  0  0  0  0
   55.0400   26.2710   45.8790 N   0  0  0  0  0  0  0  0  0  0  0  0
   55.8940   27.2940   45.7190 C   0  0  0  0  0  0  0  0  0  0  0  0
   55.5230   28.5390   45.2260 O   0  0  0  0  0  0  0  0  0  0  0  0
   58.5090   30.0940   46.2670 C   0  0  0  0  0  0  0  0  0  0  0  0
   59.1310   30.9070   47.1890 C   0  0  0  0  0  0  0  0  0  0  0  0
   59.1450   32.3800   47.0840 C   0  0  0  0  0  0  0  0  0  0  0  0
   58.1180   33.0020   46.7060 O   0  0  0  0  0  0  0  0  0  0  0  0
   60.3110   33.1160   47.4720 N   0  0  0  0  0  0  0  0  0  0  0  0
   60.2780   33.8990   48.7120 C   0  0  0  0  0  0  0  0  0  0  0  0
   61.6270   34.5850   48.9780 C   0  0  0  0  0  0  0  0  0  0  0  0
   62.8350   33.6210   48.8420 C   0  0  0  0  0  0  0  0  0  0  0  0
   63.1250   32.9440   50.1710 C   0  0  0  0  0  0  0  0  0  0  0  0
   62.1940   32.8600   51.0190 O   0  0  0  0  0  0  0  0  0  0  0  0
   64.4400   32.4480   50.5150 N   0  0  0  0  0  0  0  0  0  0  0  0
   65.6110   32.7360   49.6800 C   0  0  0  0  0  0  0  0  0  0  0  0
   64.6040   31.6860   51.7560 C   0  0  0  0  0  0  0  0  0  0  0  0
   62.6770   32.5760   47.7000 C   0  0  0  0  0  0  0  0  0  0  0  0
   61.5620   32.9500   46.7270 C   0  0  0  0  0  0  0  0  0  0  0  0
   59.7000   30.1640   48.1710 N   0  0  0  0  0  0  0  0  0  0  0  0
   60.3150   30.6740   49.4100 C   0  0  0  0  0  0  0  0  0  0  0  0
   59.2960   31.0150   50.4760 C   0  0  0  0  0  0  0  0  0  0  0  0
   58.2390   30.1480   50.8200 C   0  0  0  0  0  0  0  0  0  0  0  0
   57.2980   30.5270   51.7810 C   0  0  0  0  0  0  0  0  0  0  0  0
   57.3920   31.7730   52.4030 C   0  0  0  0  0  0  0  0  0  0  0  0
   58.4280   32.6450   52.0630 C   0  0  0  0  0  0  0  0  0  0  0  0
   59.3740   32.2710   51.1040 C   0  0  0  0  0  0  0  0  0  0  0  0
  1  2  2  0
  2  3  1  0
  3  4  2  3
  4  5  1  0
  5  6  1  0
  6  7  1  0
  7  8  2  0
  7  9  1  0
  9 10  1  0
 10 11  1  0
  3 12  1  0
 12 13  2  0
 13 14  1  0
 14 15  2  0
 14 16  1  0
 16 17  1  0
 17 18  1  0
 18 19  1  0
 19 20  1  0
 20 21  2  0
 20 22  1  0
 22 23  1  0
 22 24  1  0
 19 25  1  0
 25 26  1  0
 13 27  1  0
 27 28  1  0
 28 29  1  0
 29 30  2  0
 30 31  1  0
 31 32  2  0
 32 33  1  0
 33 34  2  0
 27  2  1  0
 34 29  1  0
 10  5  2  0
 26 16  1  0
M  CHG  3   6  -1   9  -1  11  -1
M  END
>  <UniqueID>  (2115) 
50

>  <SMILES>  (2115) 
C=c1c(=Cc2[n-]c(=O)[n-]c2[O-])cc(C(=O)N2CCC(C(=O)N(C)C)CC2)n1Cc1ccccc1

>  <Energy>  (2115) 
142.14800417284175

>  <Genealogy>  (2115) 
C=c1c(=Cc2[n-]c(=O)[n-]c2[O-])cc(C(=O)N2CCC(C(=O)N(C)C)CC2)n1Cc1ccccc1 (protonated)
C=c1c(=Cc2[n-]c(=O)[n-]c2[O-])cc(C(=O)N2CCC(C(=O)N(C)C)CC2)n1Cc1ccccc1 (3D coordinates assigned)
C=c1c(=Cc2[n-]c(=O)[n-]c2[O-])cc(C(=O)N2CCC(C(=O)N(C)C)CC2)n1Cc1ccccc1 (nonaromatic ring conformer: 142.14800417284175 kcal/mol)

>  <smiles>  (2115) 
C=c1c(=Cc2[nH]c(=O)[nH]c2O)cc(C(=O)N2CCC(C(=O)N(C)C)CC2)n1Cc1ccccc1

>  <score_type>  (2115) 
oracle

>  <origin>  (2115) 
adg

>  <m_score__min__energy>  (2115) 
-16.390000000000001

>  <m_primary>  (2115) 
energy

$$$$
58:0
     RDKit          3D

 30 33  0  0  0  0  0  0  0  0999 V2000
   58.1640   30.8130   44.9660 C   0  0  0  0  0  0  0  0  0  0  0  0
   58.3380   30.5040   46.2620 C   0  0  0  0  0  0  0  0  0  0  0  0
   58.3910   29.2150   46.8090 C   0  0  0  0  0  0  0  0  0  0  0  0
   58.3370   28.0460   46.1340 C   0  0  0  0  0  0  0  0  0  0  0  0
   57.1920   27.1090   46.1220 C   0  0  0  0  0  0  0  0  0  0  0  0
   57.1960   25.8490   46.5920 N   0  0  0  0  0  0  0  0  0  0  0  0
   55.9270   25.4320   46.3940 C   0  0  0  0  0  0  0  0  0  0  0  0
   55.5350   24.2790   46.7090 O   0  0  0  0  0  0  0  0  0  0  0  0
   55.1110   26.3500   45.8340 N   0  0  0  0  0  0  0  0  0  0  0  0
   55.9260   27.4040   45.6720 C   0  0  0  0  0  0  0  0  0  0  0  0
   55.5200   28.6160   45.1240 O   0  0  0  0  0  0  0  0  0  0  0  0
   58.5490   29.3870   48.1790 C   0  0  0  0  0  0  0  0  0  0  0  0
   58.6090   30.7470   48.4080 C   0  0  0  0  0  0  0  0  0  0  0  0
   58.7880   31.3790   49.7300 C   0  0  0  0  0  0  0  0  0  0  0  0
   57.8810   32.1440   50.1570 O   0  0  0  0  0  0  0  0  0  0  0  0
   60.0030   31.2130   50.4920 N   0  0  0  0  0  0  0  0  0  0  0  0
   60.8120   29.9920   50.3820 C   0  0  0  0  0  0  0  0  0  0  0  0
   62.1720   30.1450   51.0830 C   0  0  0  0  0  0  0  0  0  0  0  0
   62.8010   31.4590   50.8130 N   0  0  0  0  0  0  0  0  0  0  0  0
   63.7320   31.4980   49.6600 C   0  0  0  0  0  0  0  0  0  0  0  0
   63.2160   32.3020   48.4830 C   0  0  0  0  0  0  0  0  0  0  0  0
   63.8950   33.4510   48.0390 C   0  0  0  0  0  0  0  0  0  0  0  0
   63.3820   34.2100   46.9810 C   0  0  0  0  0  0  0  0  0  0  0  0
   62.1940   33.8290   46.3570 C   0  0  0  0  0  0  0  0  0  0  0  0
   61.5240   32.6760   46.7720 C   0  0  0  0  0  0  0  0  0  0  0  0
   62.0380   31.9080   47.8220 C   0  0  0  0  0  0  0  0  0  0  0  0
   61.9250   32.6490   50.9490 C   0  0  0  0  0  0  0  0  0  0  0  0
   60.4880   32.2990   51.3480 C   0  0  0  0  0  0  0  0  0  0  0  0
   58.4810   31.4270   47.2450 N   0  0  0  0  0  0  0  0  0  0  0  0
   58.4910   32.8860   47.0860 C   0  0  0  0  0  0  0  0  0  0  0  0
  1  2  2  0
  2  3  1  0
  3  4  2  0
  4  5  1  0
  5  6  1  0
  6  7  1  0
  7  8  2  0
  7  9  1  0
  9 10  1  0
 10 11  1  0
  3 12  1  0
 12 13  2  0
 13 14  1  0
 14 15  2  0
 14 16  1  0
 16 17  1  0
 17 18  1  0
 18 19  1  0
 19 20  1  0
 20 21  1  0
 21 22  2  0
 22 23  1  0
 23 24  2  0
 24 25  1  0
 25 26  2  0
 19 27  1  0
 27 28  1  0
 13 29  1  0
 29 30  1  0
 29  2  1  0
 10  5  2  0
 28 16  1  0
 26 21  1  0
M  CHG  3   6  -1   9  -1  11  -1
M  END
>  <UniqueID>  (2116) 
53

>  <SMILES>  (2116) 
C=c1/c(=C/c2[n-]c(=O)[n-]c2[O-])cc(C(=O)N2CCN(Cc3ccccc3)CC2)n1C

>  <Energy>  (2116) 
132.63472741818026

>  <Genealogy>  (2116) 
C=c1c(=Cc2[n-]c(=O)[n-]c2[O-])cc(C(=O)N2CCN(Cc3ccccc3)CC2)n1C (protonated)
C=c1/c(=C/c2[n-]c(=O)[n-]c2[O-])cc(C(=O)N2CCN(Cc3ccccc3)CC2)n1C (cis-trans isomerization)
C=c1/c(=C/c2[n-]c(=O)[n-]c2[O-])cc(C(=O)N2CCN(Cc3ccccc3)CC2)n1C (3D coordinates assigned)
C=c1/c(=C/c2[n-]c(=O)[n-]c2[O-])cc(C(=O)N2CCN(Cc3ccccc3)CC2)n1C (nonaromatic ring conformer: 132.63472741818026 kcal/mol)

>  <smiles>  (2116) 
C=c1c(=Cc2[nH]c(=O)[nH]c2O)cc(C(=O)N2CCN(Cc3ccccc3)CC2)n1C

>  <score_type>  (2116) 
oracle

>  <origin>  (2116) 
adg

>  <m_score__min__energy>  (2116) 
-18.120000000000001

>  <m_primary>  (2116) 
energy

$$$$
63:0
     RDKit          3D

 32 35  0  0  0  0  0  0  0  0999 V2000
   53.6530   29.3550   54.9180 C   0  0  0  0  0  0  0  0  0  0  0  0
   54.3130   29.9090   53.8890 C   0  0  0  0  0  0  0  0  0  0  0  0
   53.7310   30.5950   52.8140 C   0  0  0  0  0  0  0  0  0  0  0  0
   52.4170   30.8350   52.6150 C   0  0  0  0  0  0  0  0  0  0  0  0
   51.7930   31.0620   51.2960 C   0  0  0  0  0  0  0  0  0  0  0  0
   51.7840   30.1890   50.2740 N   0  0  0  0  0  0  0  0  0  0  0  0
   51.1490   30.8630   49.2910 C   0  0  0  0  0  0  0  0  0  0  0  0
   50.9320   30.3630   48.1590 O   0  0  0  0  0  0  0  0  0  0  0  0
   50.7630   32.1140   49.6190 N   0  0  0  0  0  0  0  0  0  0  0  0
   51.1870   32.2270   50.8860 C   0  0  0  0  0  0  0  0  0  0  0  0
   51.0240   33.3730   51.6530 O   0  0  0  0  0  0  0  0  0  0  0  0
   54.7720   30.9210   51.9580 C   0  0  0  0  0  0  0  0  0  0  0  0
   55.9250   30.4220   52.5240 C   0  0  0  0  0  0  0  0  0  0  0  0
   57.2440   30.4930   51.8670 C   0  0  0  0  0  0  0  0  0  0  0  0
   57.8330   29.4180   51.5840 O   0  0  0  0  0  0  0  0  0  0  0  0
   57.8890   31.7560   51.5990 N   0  0  0  0  0  0  0  0  0  0  0  0
   58.7100   31.9180   50.3940 C   0  0  0  0  0  0  0  0  0  0  0  0
   59.8490   32.9080   50.6650 C   0  0  0  0  0  0  0  0  0  0  0  0
   59.3510   34.1090   51.2240 O   0  0  0  0  0  0  0  0  0  0  0  0
   58.8030   33.8480   52.5020 C   0  0  0  0  0  0  0  0  0  0  0  0
   57.5670   32.9520   52.3870 C   0  0  0  0  0  0  0  0  0  0  0  0
   55.6630   29.8440   53.7230 N   0  0  0  0  0  0  0  0  0  0  0  0
   56.6550   29.2790   54.6580 C   0  0  0  0  0  0  0  0  0  0  0  0
   56.9230   27.8040   54.3930 C   0  0  0  0  0  0  0  0  0  0  0  0
   55.8380   26.9160   54.4650 C   0  0  0  0  0  0  0  0  0  0  0  0
   56.0520   25.5630   54.2580 C   0  0  0  0  0  0  0  0  0  0  0  0
   55.0160   24.6910   54.3430 F   0  0  0  0  0  0  0  0  0  0  0  0
   57.2980   25.1110   53.9770 N   0  0  0  0  0  0  0  0  0  0  0  0
   58.3500   25.9670   53.8730 C   0  0  0  0  0  0  0  0  0  0  0  0
   59.4920   25.4960   53.6100 O   0  0  0  0  0  0  0  0  0  0  0  0
   58.1690   27.3200   54.0460 N   0  0  0  0  0  0  0  0  0  0  0  0
   59.3190   28.2300   53.8930 C   0  0  0  0  0  0  0  0  0  0  0  0
  1  2  2  0
  2  3  1  0
  3  4  2  0
  4  5  1  0
  5  6  1  0
  6  7  1  0
  7  8  2  0
  7  9  1  0
  9 10  1  0
 10 11  1  0
  3 12  1  0
 12 13  2  0
 13 14  1  0
 14 15  2  0
 14 16  1  0
 16 17  1  0
 17 18  1  0
 18 19  1  0
 19 20  1  0
 20 21  1  0
 13 22  1  0
 22 23  1  0
 23 24  1  0
 24 25  2  0
 25 26  1  0
 26 27  1  0
 26 28  2  0
 28 29  1  0
 29 30  2  0
 29 31  1  0
 31 32  1  0
 22  2  1  0
 31 24  1  0
 10  5  2  0
 21 16  1  0
M  CHG  4   6  -1   9  -1  11  -1  28   1
M  END
>  <UniqueID>  (2117) 
58

>  <SMILES>  (2117) 
C=c1/c(=C/c2[n-]c(=O)[n-]c2[O-])cc(C(=O)N2CCOCC2)n1Cc1cc(F)[nH+]c(=O)n1C

>  <Energy>  (2117) 
130.06630869957885

>  <Genealogy>  (2117) 
C=c1c(=Cc2[n-]c(=O)[n-]c2[O-])cc(C(=O)N2CCOCC2)n1Cc1cc(F)[nH+]c(=O)n1C (protonated)
C=c1/c(=C/c2[n-]c(=O)[n-]c2[O-])cc(C(=O)N2CCOCC2)n1Cc1cc(F)[nH+]c(=O)n1C (cis-trans isomerization)
C=c1/c(=C/c2[n-]c(=O)[n-]c2[O-])cc(C(=O)N2CCOCC2)n1Cc1cc(F)[nH+]c(=O)n1C (3D coordinates assigned)
C=c1/c(=C/c2[n-]c(=O)[n-]c2[O-])cc(C(=O)N2CCOCC2)n1Cc1cc(F)[nH+]c(=O)n1C (nonaromatic ring conformer: 130.06630869957885 kcal/mol)

>  <smiles>  (2117) 
C=c1c(=Cc2[nH]c(=O)[nH]c2O)cc(C(=O)N2CCOCC2)n1Cc1cc(F)nc(=O)n1C

>  <score_type>  (2117) 
oracle

>  <origin>  (2117) 
adg

>  <m_score__min__energy>  (2117) 
-15.9

>  <m_primary>  (2117) 
energy

$$$$
64:0
     RDKit          3D

 36 40  0  0  0  0  0  0  0  0999 V2000
   61.2280   30.4270   46.4040 C   0  0  0  0  0  0  0  0  0  0  0  0
   60.3560   30.1350   47.3810 C   0  0  0  0  0  0  0  0  0  0  0  0
   59.2710   29.2430   47.3140 C   0  0  0  0  0  0  0  0  0  0  0  0
   58.7410   28.5600   46.2820 C   0  0  0  0  0  0  0  0  0  0  0  0
   57.5730   27.6690   46.3470 C   0  0  0  0  0  0  0  0  0  0  0  0
   57.5530   26.4900   46.9970 N   0  0  0  0  0  0  0  0  0  0  0  0
   56.3500   25.9730   46.6650 C   0  0  0  0  0  0  0  0  0  0  0  0
   55.9490   24.8620   47.0990 O   0  0  0  0  0  0  0  0  0  0  0  0
   55.6190   26.7330   45.8240 N   0  0  0  0  0  0  0  0  0  0  0  0
   56.4120   27.7980   45.6200 C   0  0  0  0  0  0  0  0  0  0  0  0
   56.0730   28.8590   44.7840 O   0  0  0  0  0  0  0  0  0  0  0  0
   58.7440   29.1810   48.5930 C   0  0  0  0  0  0  0  0  0  0  0  0
   59.4690   30.0550   49.3720 C   0  0  0  0  0  0  0  0  0  0  0  0
   59.1300   30.3770   50.7980 C   0  0  0  0  0  0  0  0  0  0  0  0
   60.4580   30.6260   48.6450 N   0  0  0  0  0  0  0  0  0  0  0  0
   61.4080   31.5960   49.1320 C   0  0  0  0  0  0  0  0  0  0  0  0
   62.7310   31.1880   49.3600 C   0  0  0  0  0  0  0  0  0  0  0  0
   63.6830   32.0790   49.8830 C   0  0  0  0  0  0  0  0  0  0  0  0
   65.0750   31.6340   50.1140 C   0  0  0  0  0  0  0  0  0  0  0  0
   66.0440   32.3030   49.6680 O   0  0  0  0  0  0  0  0  0  0  0  0
   65.3330   30.4670   50.8270 O   0  0  0  0  0  0  0  0  0  0  0  0
   63.2910   33.3910   50.1880 C   0  0  0  0  0  0  0  0  0  0  0  0
   61.9770   33.8090   49.9680 C   0  0  0  0  0  0  0  0  0  0  0  0
   61.0290   32.9290   49.4240 C   0  0  0  0  0  0  0  0  0  0  0  0
   59.6510   33.4200   49.2040 C   0  0  0  0  0  0  0  0  0  0  0  0
   58.9010   33.6150   50.1980 O   0  0  0  0  0  0  0  0  0  0  0  0
   59.1550   33.6850   47.8820 N   0  0  0  0  0  0  0  0  0  0  0  0
   59.8110   34.7310   47.0730 C   0  0  0  0  0  0  0  0  0  0  0  0
   59.1160   34.9720   45.7220 C   0  0  0  0  0  0  0  0  0  0  0  0
   58.6160   33.6840   45.1280 C   0  0  0  0  0  0  0  0  0  0  0  0
   58.7020   33.4360   43.7500 C   0  0  0  0  0  0  0  0  0  0  0  0
   58.1670   32.2600   43.2160 C   0  0  0  0  0  0  0  0  0  0  0  0
   57.5240   31.3400   44.0500 C   0  0  0  0  0  0  0  0  0  0  0  0
   57.4220   31.5890   45.4220 C   0  0  0  0  0  0  0  0  0  0  0  0
   57.9830   32.7540   45.9660 C   0  0  0  0  0  0  0  0  0  0  0  0
   57.9100   33.0410   47.4380 C   0  0  0  0  0  0  0  0  0  0  0  0
  1  2  2  0
  2  3  1  0
  3  4  2  3
  4  5  1  0
  5  6  1  0
  6  7  1  0
  7  8  2  0
  7  9  1  0
  9 10  1  0
 10 11  1  0
  3 12  1  0
 12 13  2  0
 13 14  1  0
 13 15  1  0
 15 16  1  0
 16 17  2  0
 17 18  1  0
 18 19  1  0
 19 20  2  0
 19 21  1  0
 18 22  2  0
 22 23  1  0
 23 24  2  0
 24 25  1  0
 25 26  2  0
 25 27  1  0
 27 28  1  0
 28 29  1  0
 29 30  1  0
 30 31  2  0
 31 32  1  0
 32 33  2  0
 33 34  1  0
 34 35  2  0
 35 36  1  0
 15  2  1  0
 24 16  1  0
 36 27  1  0
 10  5  2  0
 35 30  1  0
M  CHG  3   6  -1   9  -1  21  -1
M  END
>  <UniqueID>  (2118) 
59

>  <SMILES>  (2118) 
C=c1c(=Cc2[n-]c(=O)[n-]c2O)cc(C)n1-c1cc(C(=O)[O-])ccc1C(=O)N1CCc2ccccc2C1

>  <Energy>  (2118) 
140.70900200282549

>  <Genealogy>  (2118) 
C=c1c(=Cc2[n-]c(=O)[n-]c2O)cc(C)n1-c1cc(C(=O)[O-])ccc1C(=O)N1CCc2ccccc2C1 (protonated)
C=c1c(=Cc2[n-]c(=O)[n-]c2O)cc(C)n1-c1cc(C(=O)[O-])ccc1C(=O)N1CCc2ccccc2C1 (3D coordinates assigned)
C=c1c(=Cc2[n-]c(=O)[n-]c2O)cc(C)n1-c1cc(C(=O)[O-])ccc1C(=O)N1CCc2ccccc2C1 (nonaromatic ring conformer: 140.70900200282549 kcal/mol)

>  <smiles>  (2118) 
C=c1c(=Cc2[nH]c(=O)[nH]c2O)cc(C)n1-c1cc(C(=O)O)ccc1C(=O)N1CCc2ccccc2C1

>  <score_type>  (2118) 
oracle

>  <origin>  (2118) 
adg

>  <m_score__min__energy>  (2118) 
-14.789999999999999

>  <m_primary>  (2118) 
energy

$$$$
67:0
     RDKit          3D

 33 36  0  0  0  0  0  0  0  0999 V2000
   61.9710   31.1150   47.0900 C   0  0  0  0  0  0  0  0  0  0  0  0
   62.7240   32.2630   47.5850 N   0  0  0  0  0  0  0  0  0  0  0  0
   63.1270   33.3380   46.8850 C   0  0  0  0  0  0  0  0  0  0  0  0
   63.7540   34.2260   47.6810 N   0  0  0  0  0  0  0  0  0  0  0  0
   63.7470   33.7260   48.9090 N   0  0  0  0  0  0  0  0  0  0  0  0
   63.1060   32.5420   48.8470 C   0  0  0  0  0  0  0  0  0  0  0  0
   62.9280   31.6340   50.0280 C   0  0  0  0  0  0  0  0  0  0  0  0
   61.4750   31.6480   50.4930 C   0  0  0  0  0  0  0  0  0  0  0  0
   60.9840   30.2800   50.6200 N   0  0  0  0  0  0  0  0  0  0  0  0
   60.3570   29.5340   49.5670 C   0  0  0  0  0  0  0  0  0  0  0  0
   60.6790   28.3260   49.4080 O   0  0  0  0  0  0  0  0  0  0  0  0
   59.3300   30.1380   48.6530 C   0  0  0  0  0  0  0  0  0  0  0  0
   58.5980   31.1810   49.3640 N   0  0  0  0  0  0  0  0  0  0  0  0
   58.7780   32.5820   49.1290 C   0  0  0  0  0  0  0  0  0  0  0  0
   58.9160   33.3530   50.1160 O   0  0  0  0  0  0  0  0  0  0  0  0
   58.8500   33.1330   47.7600 C   0  0  0  0  0  0  0  0  0  0  0  0
   59.4520   34.3810   47.5310 C   0  0  0  0  0  0  0  0  0  0  0  0
   59.5190   34.9050   46.2390 C   0  0  0  0  0  0  0  0  0  0  0  0
   58.9620   34.2020   45.1670 C   0  0  0  0  0  0  0  0  0  0  0  0
   58.3170   32.9730   45.3840 C   0  0  0  0  0  0  0  0  0  0  0  0
   57.7180   32.2110   44.2260 C   0  0  0  0  0  0  0  0  0  0  0  0
   57.2770   30.8310   44.6430 C   0  0  0  0  0  0  0  0  0  0  0  0
   55.9600   30.5140   44.5100 N   0  0  0  0  0  0  0  0  0  0  0  0
   55.4850   29.3130   44.8370 N   0  0  0  0  0  0  0  0  0  0  0  0
   56.2910   28.3340   45.3160 C   0  0  0  0  0  0  0  0  0  0  0  0
   55.7950   27.2170   45.6230 O   0  0  0  0  0  0  0  0  0  0  0  0
   57.6630   28.5810   45.4620 C   0  0  0  0  0  0  0  0  0  0  0  0
   58.1700   29.8460   45.1240 C   0  0  0  0  0  0  0  0  0  0  0  0
   59.6430   30.0930   45.3620 C   0  0  0  0  0  0  0  0  0  0  0  0
   60.4870   28.9130   44.8490 C   0  0  0  0  0  0  0  0  0  0  0  0
   59.9140   27.5140   45.1950 C   0  0  0  0  0  0  0  0  0  0  0  0
   58.6150   27.5480   46.0150 C   0  0  0  0  0  0  0  0  0  0  0  0
   58.2750   32.4380   46.6840 C   0  0  0  0  0  0  0  0  0  0  0  0
  1  2  1  0
  2  3  1  0
  3  4  2  0
  4  5  1  0
  5  6  2  0
  6  7  1  0
  7  8  1  0
  8  9  1  0
  9 10  1  0
 10 11  2  0
 10 12  1  0
 12 13  1  0
 13 14  1  0
 14 15  2  0
 14 16  1  0
 16 17  2  0
 17 18  1  0
 18 19  2  0
 19 20  1  0
 20 21  1  0
 21 22  1  0
 22 23  2  0
 23 24  1  0
 24 25  1  0
 25 26  2  0
 25 27  1  0
 27 28  2  0
 28 29  1  0
 29 30  1  0
 30 31  1  0
 31 32  1  0
 20 33  2  0
  6  2  1  0
 33 16  1  0
 28 22  1  0
 32 27  1  0
M  CHG  3   9  -1  13  -1  24  -1
M  END
>  <UniqueID>  (2119) 
61

>  <SMILES>  (2119) 
Cn1cnnc1CC[N-]C(=O)C[N-]C(=O)c1cccc(Cc2n[n-]c(=O)c3c2CCCC3)c1

>  <Energy>  (2119) 
99.90596500290691

>  <Genealogy>  (2119) 
Cn1cnnc1CC[N-]C(=O)C[N-]C(=O)c1cccc(Cc2n[n-]c(=O)c3c2CCCC3)c1 (protonated)
Cn1cnnc1CC[N-]C(=O)C[N-]C(=O)c1cccc(Cc2n[n-]c(=O)c3c2CCCC3)c1 (3D coordinates assigned)
Cn1cnnc1CC[N-]C(=O)C[N-]C(=O)c1cccc(Cc2n[n-]c(=O)c3c2CCCC3)c1 (nonaromatic ring conformer: 99.90596500290691 kcal/mol)

>  <smiles>  (2119) 
Cn1cnnc1CCNC(=O)CNC(=O)c1cccc(Cc2n[nH]c(=O)c3c2CCCC3)c1

>  <score_type>  (2119) 
oracle

>  <origin>  (2119) 
adg

>  <m_score__min__energy>  (2119) 
-15.49

>  <m_primary>  (2119) 
energy

$$$$
69:0
     RDKit          3D

 24 26  0  0  0  0  0  0  0  0999 V2000
   57.8650   31.8520   43.1710 O   0  0  0  0  0  0  0  0  0  0  0  0
   57.2360   31.8390   44.2620 C   0  0  0  0  0  0  0  0  0  0  0  0
   57.0050   33.1240   44.9580 C   0  0  0  0  0  0  0  0  0  0  0  0
   57.5660   33.5000   46.1200 C   0  0  0  0  0  0  0  0  0  0  0  0
   58.9920   33.3320   46.4640 C   0  0  0  0  0  0  0  0  0  0  0  0
   59.9040   34.3870   46.2900 C   0  0  0  0  0  0  0  0  0  0  0  0
   61.2470   34.2190   46.6410 C   0  0  0  0  0  0  0  0  0  0  0  0
   61.6920   32.9930   47.1460 C   0  0  0  0  0  0  0  0  0  0  0  0
   63.5200   32.7730   47.6480 Br  0  0  0  0  0  0  0  0  0  0  0  0
   60.7940   31.9280   47.2830 C   0  0  0  0  0  0  0  0  0  0  0  0
   59.4500   32.0930   46.9340 C   0  0  0  0  0  0  0  0  0  0  0  0
   56.8000   30.6020   44.8470 N   0  0  0  0  0  0  0  0  0  0  0  0
   57.5160   29.5640   45.1650 C   0  0  0  0  0  0  0  0  0  0  0  0
   56.9780   28.4990   45.7920 N   0  0  0  0  0  0  0  0  0  0  0  0
   57.8990   27.5230   46.0210 C   0  0  0  0  0  0  0  0  0  0  0  0
   57.5320   26.2030   46.6350 C   0  0  0  0  0  0  0  0  0  0  0  0
   56.1420   25.7950   46.2550 C   0  0  0  0  0  0  0  0  0  0  0  0
   55.1480   26.6700   46.0090 N   0  0  0  0  0  0  0  0  0  0  0  0
   54.1000   25.9580   45.6360 N   0  0  0  0  0  0  0  0  0  0  0  0
   54.4960   24.6740   45.6570 C   0  0  0  0  0  0  0  0  0  0  0  0
   53.7420   23.7140   45.3500 O   0  0  0  0  0  0  0  0  0  0  0  0
   55.7770   24.5150   46.0350 N   0  0  0  0  0  0  0  0  0  0  0  0
   59.1800   27.8020   45.5480 C   0  0  0  0  0  0  0  0  0  0  0  0
   59.1550   29.3300   44.8430 S   0  0  0  0  0  0  0  0  0  0  0  0
  1  2  2  0
  2  3  1  0
  3  4  2  3
  4  5  1  0
  5  6  2  0
  6  7  1  0
  7  8  2  0
  8  9  1  0
  8 10  1  0
 10 11  2  0
  2 12  1  0
 12 13  2  3
 13 14  1  0
 14 15  1  0
 15 16  1  0
 16 17  1  0
 17 18  2  0
 18 19  1  0
 19 20  1  0
 20 21  2  0
 20 22  1  0
 15 23  2  0
 23 24  1  0
 11  5  1  0
 24 13  1  0
 22 17  1  0
M  CHG  3  14  -1  19  -1  22  -1
M  END
>  <UniqueID>  (2120) 
63

>  <SMILES>  (2120) 
O=C(C=Cc1ccc(Br)cc1)N=c1[n-]c(Cc2n[n-]c(=O)[n-]2)cs1

>  <Energy>  (2120) 
106.00724931949762

>  <Genealogy>  (2120) 
O=C(C=Cc1ccc(Br)cc1)N=c1[n-]c(Cc2n[n-]c(=O)[n-]2)cs1 (protonated)
O=C(C=Cc1ccc(Br)cc1)N=c1[n-]c(Cc2n[n-]c(=O)[n-]2)cs1 (3D coordinates assigned)
O=C(C=Cc1ccc(Br)cc1)N=c1[n-]c(Cc2n[n-]c(=O)[n-]2)cs1 (optimized conformer: 106.00724931949762 kcal/mol)

>  <smiles>  (2120) 
O=C(C=Cc1ccc(Br)cc1)N=c1[nH]c(Cc2n[nH]c(=O)[nH]2)cs1

>  <score_type>  (2120) 
oracle

>  <origin>  (2120) 
adg

>  <m_score__min__energy>  (2120) 
-14.85

>  <m_primary>  (2120) 
energy

$$$$
70:0
     RDKit          3D

 34 38  0  0  0  0  0  0  0  0999 V2000
   56.2970   29.1920   44.9670 C   0  0  0  0  0  0  0  0  0  0  0  0
   57.6000   28.8790   45.0310 C   0  0  0  0  0  0  0  0  0  0  0  0
   58.1660   27.5960   44.9930 C   0  0  0  0  0  0  0  0  0  0  0  0
   57.6330   26.4090   44.6480 C   0  0  0  0  0  0  0  0  0  0  0  0
   57.1290   25.3970   45.5900 C   0  0  0  0  0  0  0  0  0  0  0  0
   57.8660   24.3930   46.1040 N   0  0  0  0  0  0  0  0  0  0  0  0
   57.0320   23.8220   47.0000 C   0  0  0  0  0  0  0  0  0  0  0  0
   57.3600   22.8200   47.6870 O   0  0  0  0  0  0  0  0  0  0  0  0
   55.8240   24.4150   47.1100 N   0  0  0  0  0  0  0  0  0  0  0  0
   55.9090   25.4200   46.2210 C   0  0  0  0  0  0  0  0  0  0  0  0
   54.8940   26.3420   45.9890 O   0  0  0  0  0  0  0  0  0  0  0  0
   59.4910   27.7460   45.3720 C   0  0  0  0  0  0  0  0  0  0  0  0
   59.7080   29.0980   45.5410 C   0  0  0  0  0  0  0  0  0  0  0  0
   61.0170   29.7150   45.9300 C   0  0  0  0  0  0  0  0  0  0  0  0
   58.5660   29.7860   45.3260 N   0  0  0  0  0  0  0  0  0  0  0  0
   58.4140   31.2130   45.4280 C   0  0  0  0  0  0  0  0  0  0  0  0
   58.0800   31.9500   44.2830 C   0  0  0  0  0  0  0  0  0  0  0  0
   57.9670   33.3400   44.3450 C   0  0  0  0  0  0  0  0  0  0  0  0
   58.1860   34.0060   45.5500 C   0  0  0  0  0  0  0  0  0  0  0  0
   58.5140   33.2840   46.7010 C   0  0  0  0  0  0  0  0  0  0  0  0
   58.6340   31.8850   46.6560 C   0  0  0  0  0  0  0  0  0  0  0  0
   58.9370   31.1400   47.9040 C   0  0  0  0  0  0  0  0  0  0  0  0
   58.5570   29.9430   48.0180 O   0  0  0  0  0  0  0  0  0  0  0  0
   59.6550   31.7600   48.9900 N   0  0  0  0  0  0  0  0  0  0  0  0
   59.0670   31.7770   50.3390 C   0  0  0  0  0  0  0  0  0  0  0  0
   59.2820   33.1060   51.0030 C   0  0  0  0  0  0  0  0  0  0  0  0
   58.4960   33.4990   51.9030 O   0  0  0  0  0  0  0  0  0  0  0  0
   60.4250   33.8930   50.6670 N   0  0  0  0  0  0  0  0  0  0  0  0
   61.2830   33.5050   49.5930 C   0  0  0  0  0  0  0  0  0  0  0  0
   62.4800   34.1940   49.3710 C   0  0  0  0  0  0  0  0  0  0  0  0
   63.3260   33.8090   48.3280 C   0  0  0  0  0  0  0  0  0  0  0  0
   62.9780   32.7340   47.5060 C   0  0  0  0  0  0  0  0  0  0  0  0
   61.7790   32.0470   47.7180 C   0  0  0  0  0  0  0  0  0  0  0  0
   60.9120   32.4360   48.7570 C   0  0  0  0  0  0  0  0  0  0  0  0
  1  2  2  0
  2  3  1  0
  3  4  2  3
  4  5  1  0
  5  6  1  0
  6  7  1  0
  7  8  2  0
  7  9  1  0
  9 10  1  0
 10 11  1  0
  3 12  1  0
 12 13  2  0
 13 14  1  0
 13 15  1  0
 15 16  1  0
 16 17  2  0
 17 18  1  0
 18 19  2  0
 19 20  1  0
 20 21  2  0
 21 22  1  0
 22 23  2  0
 22 24  1  0
 24 25  1  0
 25 26  1  0
 26 27  2  0
 26 28  1  0
 28 29  1  0
 29 30  2  0
 30 31  1  0
 31 32  2  0
 32 33  1  0
 33 34  2  0
 15  2  1  0
 21 16  1  0
 34 24  1  0
 10  5  2  0
 34 29  1  0
M  CHG  3   6  -1   9  -1  28  -1
M  END
>  <UniqueID>  (2121) 
64

>  <SMILES>  (2121) 
C=c1c(=Cc2[n-]c(=O)[n-]c2O)cc(C)n1-c1ccccc1C(=O)N1CC(=O)[N-]c2ccccc21

>  <Energy>  (2121) 
141.21749376077204

>  <Genealogy>  (2121) 
C=c1c(=Cc2[n-]c(=O)[n-]c2O)cc(C)n1-c1ccccc1C(=O)N1CC(=O)[N-]c2ccccc21 (protonated)
C=c1c(=Cc2[n-]c(=O)[n-]c2O)cc(C)n1-c1ccccc1C(=O)N1CC(=O)[N-]c2ccccc21 (3D coordinates assigned)
C=c1c(=Cc2[n-]c(=O)[n-]c2O)cc(C)n1-c1ccccc1C(=O)N1CC(=O)[N-]c2ccccc21 (nonaromatic ring conformer: 141.21749376077204 kcal/mol)

>  <smiles>  (2121) 
C=c1c(=Cc2[nH]c(=O)[nH]c2O)cc(C)n1-c1ccccc1C(=O)N1CC(=O)Nc2ccccc21

>  <score_type>  (2121) 
oracle

>  <origin>  (2121) 
adg

>  <m_score__min__energy>  (2121) 
-15.710000000000001

>  <m_primary>  (2121) 
energy

$$$$
73:0
     RDKit          3D

 29 31  0  0  0  0  0  0  0  0999 V2000
   59.6230   27.5560   47.3760 C   0  0  0  0  0  0  0  0  0  0  0  0
   58.9940   28.3530   46.4960 C   0  0  0  0  0  0  0  0  0  0  0  0
   58.2400   27.9390   45.3840 C   0  0  0  0  0  0  0  0  0  0  0  0
   57.8080   26.7190   45.0080 C   0  0  0  0  0  0  0  0  0  0  0  0
   57.1530   25.7310   45.8780 C   0  0  0  0  0  0  0  0  0  0  0  0
   57.7330   24.5830   46.2670 N   0  0  0  0  0  0  0  0  0  0  0  0
   56.7440   23.9430   46.9300 C   0  0  0  0  0  0  0  0  0  0  0  0
   56.9070   22.8180   47.4680 O   0  0  0  0  0  0  0  0  0  0  0  0
   55.5640   24.5990   46.9590 N   0  0  0  0  0  0  0  0  0  0  0  0
   55.8350   25.7220   46.2760 C   0  0  0  0  0  0  0  0  0  0  0  0
   54.8920   26.7040   46.0000 O   0  0  0  0  0  0  0  0  0  0  0  0
   57.9650   29.0820   44.6570 C   0  0  0  0  0  0  0  0  0  0  0  0
   58.4870   30.1440   45.3630 C   0  0  0  0  0  0  0  0  0  0  0  0
   58.4000   31.5730   44.9120 C   0  0  0  0  0  0  0  0  0  0  0  0
   59.1150   29.7100   46.4810 N   0  0  0  0  0  0  0  0  0  0  0  0
   59.8660   30.5610   47.4220 C   0  0  0  0  0  0  0  0  0  0  0  0
   60.9130   31.4290   46.7020 C   0  0  0  0  0  0  0  0  0  0  0  0
   61.6000   32.4050   47.6320 C   0  0  0  0  0  0  0  0  0  0  0  0
   62.9800   32.2450   47.8600 C   0  0  0  0  0  0  0  0  0  0  0  0
   63.6620   33.0900   48.7350 C   0  0  0  0  0  0  0  0  0  0  0  0
   62.9810   34.1120   49.3920 C   0  0  0  0  0  0  0  0  0  0  0  0
   61.6140   34.2910   49.1800 C   0  0  0  0  0  0  0  0  0  0  0  0
   60.9020   33.4380   48.3170 C   0  0  0  0  0  0  0  0  0  0  0  0
   59.4290   33.7030   48.1120 C   0  0  0  0  0  0  0  0  0  0  0  0
   59.2410   35.0430   47.5500 N   0  0  0  0  0  0  0  0  0  0  0  0
   59.2920   34.9730   45.8130 S   0  0  0  0  0  0  0  0  0  0  0  0
   57.6900   34.5560   45.1580 C   0  0  0  0  0  0  0  0  0  0  0  0
   59.6930   36.3220   45.2840 O   0  0  0  0  0  0  0  0  0  0  0  0
   60.3000   33.9530   45.3650 O   0  0  0  0  0  0  0  0  0  0  0  0
  1  2  2  0
  2  3  1  0
  3  4  2  3
  4  5  1  0
  5  6  1  0
  6  7  1  0
  7  8  2  0
  7  9  1  0
  9 10  1  0
 10 11  1  0
  3 12  1  0
 12 13  2  0
 13 14  1  0
 13 15  1  0
 15 16  1  0
 16 17  1  0
 17 18  1  0
 18 19  2  0
 19 20  1  0
 20 21  2  0
 21 22  1  0
 22 23  2  0
 23 24  1  0
 24 25  1  0
 25 26  1  0
 26 27  1  0
 26 28  2  0
 26 29  2  0
 15  2  1  0
 23 18  1  0
 10  5  2  0
M  CHG  3   6  -1   9  -1  11  -1
M  END
>  <UniqueID>  (2122) 
67

>  <SMILES>  (2122) 
C=c1c(=Cc2[n-]c(=O)[n-]c2[O-])cc(C)n1CCc1ccccc1CNS(C)(=O)=O

>  <Energy>  (2122) 
111.9832790445242

>  <Genealogy>  (2122) 
C=c1c(=Cc2[n-]c(=O)[n-]c2[O-])cc(C)n1CCc1ccccc1CNS(C)(=O)=O (protonated)
C=c1c(=Cc2[n-]c(=O)[n-]c2[O-])cc(C)n1CCc1ccccc1CNS(C)(=O)=O (3D coordinates assigned)
C=c1c(=Cc2[n-]c(=O)[n-]c2[O-])cc(C)n1CCc1ccccc1CNS(C)(=O)=O (optimized conformer: 111.9832790445242 kcal/mol)

>  <smiles>  (2122) 
C=c1c(=Cc2[nH]c(=O)[nH]c2O)cc(C)n1CCc1ccccc1CNS(C)(=O)=O

>  <score_type>  (2122) 
oracle

>  <origin>  (2122) 
adg

>  <m_score__min__energy>  (2122) 
-16.309999999999999

>  <m_primary>  (2122) 
energy

$$$$
77:0
     RDKit          3D

 27 29  0  0  0  0  0  0  0  0999 V2000
   54.9570   26.7040   45.9920 O   0  0  0  0  0  0  0  0  0  0  0  0
   55.9290   25.7400   46.2430 C   0  0  0  0  0  0  0  0  0  0  0  0
   55.7530   24.6950   47.0680 N   0  0  0  0  0  0  0  0  0  0  0  0
   56.9580   24.0850   47.0330 C   0  0  0  0  0  0  0  0  0  0  0  0
   57.2100   23.0440   47.6940 O   0  0  0  0  0  0  0  0  0  0  0  0
   57.8750   24.6850   46.2430 N   0  0  0  0  0  0  0  0  0  0  0  0
   57.2030   25.7250   45.7200 C   0  0  0  0  0  0  0  0  0  0  0  0
   57.8260   26.7570   44.8760 C   0  0  0  0  0  0  0  0  0  0  0  0
   57.5780   28.0770   44.9420 C   0  0  0  0  0  0  0  0  0  0  0  0
   56.3240   28.5570   44.7840 N   0  0  0  0  0  0  0  0  0  0  0  0
   56.4670   29.8940   44.8320 C   0  0  0  0  0  0  0  0  0  0  0  0
   55.4960   30.6900   44.7220 O   0  0  0  0  0  0  0  0  0  0  0  0
   57.7390   30.2940   45.0210 N   0  0  0  0  0  0  0  0  0  0  0  0
   58.1780   31.6500   45.2020 C   0  0  0  0  0  0  0  0  0  0  0  0
   58.0070   32.5670   44.1530 C   0  0  0  0  0  0  0  0  0  0  0  0
   58.5150   33.8640   44.2540 C   0  0  0  0  0  0  0  0  0  0  0  0
   59.2170   34.2500   45.3960 C   0  0  0  0  0  0  0  0  0  0  0  0
   59.3970   33.3460   46.4450 C   0  0  0  0  0  0  0  0  0  0  0  0
   58.8640   32.0520   46.3740 C   0  0  0  0  0  0  0  0  0  0  0  0
   59.0390   31.2140   47.4860 O   0  0  0  0  0  0  0  0  0  0  0  0
   60.1720   31.2300   48.3590 C   0  0  0  0  0  0  0  0  0  0  0  0
   61.4910   31.1920   47.5760 C   0  0  0  0  0  0  0  0  0  0  0  0
   62.4690   32.1430   48.1470 N   0  0  0  0  0  0  0  0  0  0  0  0
   61.7890   33.2530   48.8350 C   0  0  0  0  0  0  0  0  0  0  0  0
   63.3410   32.6780   47.0900 C   0  0  0  0  0  0  0  0  0  0  0  0
   58.4560   29.1540   45.1390 C   0  0  0  0  0  0  0  0  0  0  0  0
   59.7500   29.1190   45.4910 C   0  0  0  0  0  0  0  0  0  0  0  0
  1  2  1  0
  2  3  1  0
  3  4  1  0
  4  5  2  0
  4  6  1  0
  6  7  1  0
  7  8  1  0
  8  9  2  0
  9 10  1  0
 10 11  1  0
 11 12  2  0
 11 13  1  0
 13 14  1  0
 14 15  2  0
 15 16  1  0
 16 17  2  0
 17 18  1  0
 18 19  2  0
 19 20  1  0
 20 21  1  0
 21 22  1  0
 22 23  1  0
 23 24  1  0
 23 25  1  0
 13 26  1  0
 26 27  2  0
  7  2  2  0
 26  9  1  0
 19 14  1  0
M  CHG  3   3  -1   6  -1  10  -1
M  END
>  <UniqueID>  (2123) 
71

>  <SMILES>  (2123) 
C=c1/c(=C\c2[n-]c(=O)[n-]c2O)[n-]c(=O)n1-c1ccccc1OCCN(C)C

>  <Energy>  (2123) 
129.0305697116885

>  <Genealogy>  (2123) 
C=c1c(=Cc2[n-]c(=O)[n-]c2O)[n-]c(=O)n1-c1ccccc1OCCN(C)C (protonated)
C=c1/c(=C\c2[n-]c(=O)[n-]c2O)[n-]c(=O)n1-c1ccccc1OCCN(C)C (cis-trans isomerization)
C=c1/c(=C\c2[n-]c(=O)[n-]c2O)[n-]c(=O)n1-c1ccccc1OCCN(C)C (3D coordinates assigned)
C=c1/c(=C\c2[n-]c(=O)[n-]c2O)[n-]c(=O)n1-c1ccccc1OCCN(C)C (optimized conformer: 129.0305697116885 kcal/mol)

>  <smiles>  (2123) 
C=c1c(=Cc2[nH]c(=O)[nH]c2O)[nH]c(=O)n1-c1ccccc1OCCN(C)C

>  <score_type>  (2123) 
oracle

>  <origin>  (2123) 
adg

>  <m_score__min__energy>  (2123) 
-14.25

>  <m_primary>  (2123) 
energy

$$$$
80:0
     RDKit          3D

 31 34  0  0  0  0  0  0  0  0999 V2000
   52.3040   28.1920   53.7970 C   0  0  0  0  0  0  0  0  0  0  0  0
   53.5270   28.7050   53.6080 C   0  0  0  0  0  0  0  0  0  0  0  0
   54.5770   27.9620   54.0560 N   0  0  0  0  0  0  0  0  0  0  0  0
   55.8670   28.2490   53.7520 C   0  0  0  0  0  0  0  0  0  0  0  0
   56.1660   29.3060   52.8900 C   0  0  0  0  0  0  0  0  0  0  0  0
   57.5700   29.6030   52.5250 C   0  0  0  0  0  0  0  0  0  0  0  0
   58.4310   28.6820   52.6020 O   0  0  0  0  0  0  0  0  0  0  0  0
   57.9800   30.9160   52.0970 N   0  0  0  0  0  0  0  0  0  0  0  0
   57.1030   31.7390   51.2490 C   0  0  0  0  0  0  0  0  0  0  0  0
   57.9020   32.3440   50.0870 C   0  0  0  0  0  0  0  0  0  0  0  0
   59.1960   32.8730   50.5380 N   0  0  0  0  0  0  0  0  0  0  0  0
   60.0290   33.5480   49.5870 C   0  0  0  0  0  0  0  0  0  0  0  0
   59.6490   34.6450   49.0960 O   0  0  0  0  0  0  0  0  0  0  0  0
   61.2150   32.9210   49.0830 N   0  0  0  0  0  0  0  0  0  0  0  0
   62.3100   32.5910   49.9970 C   0  0  0  0  0  0  0  0  0  0  0  0
   63.6090   32.3810   49.2120 C   0  0  0  0  0  0  0  0  0  0  0  0
   63.4110   31.4730   48.1460 O   0  0  0  0  0  0  0  0  0  0  0  0
   62.5200   32.0370   47.2020 C   0  0  0  0  0  0  0  0  0  0  0  0
   61.1250   32.2050   47.8080 C   0  0  0  0  0  0  0  0  0  0  0  0
   59.5610   32.8210   51.9560 C   0  0  0  0  0  0  0  0  0  0  0  0
   59.3050   31.4120   52.4960 C   0  0  0  0  0  0  0  0  0  0  0  0
   55.1180   30.1220   52.4440 C   0  0  0  0  0  0  0  0  0  0  0  0
   53.7870   29.8920   52.8530 C   0  0  0  0  0  0  0  0  0  0  0  0
   52.8690   30.8380   52.5290 C   0  0  0  0  0  0  0  0  0  0  0  0
   52.2040   30.9910   51.2210 C   0  0  0  0  0  0  0  0  0  0  0  0
   52.2270   30.0760   50.2340 N   0  0  0  0  0  0  0  0  0  0  0  0
   51.3910   30.5950   49.3090 C   0  0  0  0  0  0  0  0  0  0  0  0
   51.1570   30.0240   48.2120 O   0  0  0  0  0  0  0  0  0  0  0  0
   50.8200   31.7670   49.6540 N   0  0  0  0  0  0  0  0  0  0  0  0
   51.3360   31.9960   50.8730 C   0  0  0  0  0  0  0  0  0  0  0  0
   51.0170   33.1020   51.6510 O   0  0  0  0  0  0  0  0  0  0  0  0
  1  2  2  0
  2  3  1  0
  3  4  2  0
  4  5  1  0
  5  6  1  0
  6  7  2  0
  6  8  1  0
  8  9  1  0
  9 10  1  0
 10 11  1  0
 11 12  1  0
 12 13  2  0
 12 14  1  0
 14 15  1  0
 15 16  1  0
 16 17  1  0
 17 18  1  0
 18 19  1  0
 11 20  1  0
 20 21  1  0
  5 22  2  0
 22 23  1  0
 23 24  2  0
 24 25  1  0
 25 26  1  0
 26 27  1  0
 27 28  2  0
 27 29  1  0
 29 30  1  0
 30 31  1  0
 23  2  1  0
 30 25  2  0
 21  8  1  0
 19 14  1  0
M  CHG  3  26  -1  29  -1  31  -1
M  END
>  <UniqueID>  (2124) 
74

>  <SMILES>  (2124) 
C=c1ncc(C(=O)N2CCN(C(=O)N3CCOCC3)CC2)c/c1=C/c1[n-]c(=O)[n-]c1[O-]

>  <Energy>  (2124) 
119.503882620165

>  <Genealogy>  (2124) 
C=c1ncc(C(=O)N2CCN(C(=O)N3CCOCC3)CC2)cc1=Cc1[n-]c(=O)[n-]c1[O-] (protonated)
C=c1ncc(C(=O)N2CCN(C(=O)N3CCOCC3)CC2)c/c1=C/c1[n-]c(=O)[n-]c1[O-] (cis-trans isomerization)
C=c1ncc(C(=O)N2CCN(C(=O)N3CCOCC3)CC2)c/c1=C/c1[n-]c(=O)[n-]c1[O-] (3D coordinates assigned)
C=c1ncc(C(=O)N2CCN(C(=O)N3CCOCC3)CC2)c/c1=C/c1[n-]c(=O)[n-]c1[O-] (nonaromatic ring conformer: 119.503882620165 kcal/mol)

>  <smiles>  (2124) 
C=c1ncc(C(=O)N2CCN(C(=O)N3CCOCC3)CC2)cc1=Cc1[nH]c(=O)[nH]c1O

>  <score_type>  (2124) 
oracle

>  <origin>  (2124) 
adg

>  <m_score__min__energy>  (2124) 
-17.879999999999999

>  <m_primary>  (2124) 
energy

$$$$
83:0
     RDKit          3D

 25 27  0  0  0  0  0  0  0  0999 V2000
   58.0970   27.2200   43.6930 C   0  0  0  0  0  0  0  0  0  0  0  0
   58.3640   28.1800   44.6010 C   0  0  0  0  0  0  0  0  0  0  0  0
   58.4660   27.9300   46.0110 C   0  0  0  0  0  0  0  0  0  0  0  0
   58.2070   26.7130   46.5630 C   0  0  0  0  0  0  0  0  0  0  0  0
   56.9100   25.9980   46.4990 C   0  0  0  0  0  0  0  0  0  0  0  0
   56.7330   24.6900   46.7650 N   0  0  0  0  0  0  0  0  0  0  0  0
   55.4380   24.4760   46.4450 C   0  0  0  0  0  0  0  0  0  0  0  0
   54.8840   23.3490   46.5650 O   0  0  0  0  0  0  0  0  0  0  0  0
   54.7840   25.5590   45.9730 N   0  0  0  0  0  0  0  0  0  0  0  0
   55.7330   26.5080   46.0060 C   0  0  0  0  0  0  0  0  0  0  0  0
   55.5240   27.8220   45.6000 O   0  0  0  0  0  0  0  0  0  0  0  0
   58.7950   29.0270   46.8420 C   0  0  0  0  0  0  0  0  0  0  0  0
   59.0030   30.3060   46.3200 C   0  0  0  0  0  0  0  0  0  0  0  0
   59.3480   31.4440   47.2060 C   0  0  0  0  0  0  0  0  0  0  0  0
   58.4480   31.9980   47.8990 O   0  0  0  0  0  0  0  0  0  0  0  0
   60.6890   31.9450   47.2740 N   0  0  0  0  0  0  0  0  0  0  0  0
   60.9540   33.3580   46.9690 C   0  0  0  0  0  0  0  0  0  0  0  0
   62.1150   33.8740   47.8230 C   0  0  0  0  0  0  0  0  0  0  0  0
   63.4030   33.0350   47.6310 C   0  0  0  0  0  0  0  0  0  0  0  0
   64.2160   33.0740   48.8590 C   0  0  0  0  0  0  0  0  0  0  0  0
   64.8610   33.1060   49.8190 N   0  0  0  0  0  0  0  0  0  0  0  0
   63.1270   31.5720   47.2150 C   0  0  0  0  0  0  0  0  0  0  0  0
   61.7750   31.0650   47.7280 C   0  0  0  0  0  0  0  0  0  0  0  0
   58.8990   30.4870   44.9420 C   0  0  0  0  0  0  0  0  0  0  0  0
   58.5820   29.4470   44.1300 N   0  0  0  0  0  0  0  0  0  0  0  0
  1  2  2  0
  2  3  1  0
  3  4  2  0
  4  5  1  0
  5  6  1  0
  6  7  1  0
  7  8  2  0
  7  9  1  0
  9 10  1  0
 10 11  1  0
  3 12  1  0
 12 13  2  0
 13 14  1  0
 14 15  2  0
 14 16  1  0
 16 17  1  0
 17 18  1  0
 18 19  1  0
 19 20  1  0
 20 21  3  0
 19 22  1  0
 22 23  1  0
 13 24  1  0
 24 25  2  0
 25  2  1  0
 10  5  2  0
 23 16  1  0
M  CHG  4   6  -1   9  -1  11  -1  25   1
M  END
>  <UniqueID>  (2125) 
77

>  <SMILES>  (2125) 
C=c1[nH+]cc(C(=O)N2CCC(C#N)CC2)c/c1=C\c1[n-]c(=O)[n-]c1[O-]

>  <Energy>  (2125) 
92.91497153167323

>  <Genealogy>  (2125) 
C=c1[nH+]cc(C(=O)N2CCC(C#N)CC2)cc1=Cc1[n-]c(=O)[n-]c1[O-] (protonated)
C=c1[nH+]cc(C(=O)N2CCC(C#N)CC2)c/c1=C\c1[n-]c(=O)[n-]c1[O-] (cis-trans isomerization)
C=c1[nH+]cc(C(=O)N2CCC(C#N)CC2)c/c1=C\c1[n-]c(=O)[n-]c1[O-] (3D coordinates assigned)
C=c1[nH+]cc(C(=O)N2CCC(C#N)CC2)c/c1=C\c1[n-]c(=O)[n-]c1[O-] (nonaromatic ring conformer: 92.91497153167323 kcal/mol)

>  <smiles>  (2125) 
C=c1ncc(C(=O)N2CCC(C#N)CC2)cc1=Cc1[nH]c(=O)[nH]c1O

>  <score_type>  (2125) 
oracle

>  <origin>  (2125) 
adg

>  <m_score__min__energy>  (2125) 
-15.289999999999999

>  <m_primary>  (2125) 
energy

$$$$
88:0
     RDKit          3D

 31 34  0  0  0  0  0  0  0  0999 V2000
   55.0950   31.5940   52.3280 C   0  0  0  0  0  0  0  0  0  0  0  0
   55.2320   30.2880   52.6030 C   0  0  0  0  0  0  0  0  0  0  0  0
   54.2250   29.3090   52.6070 C   0  0  0  0  0  0  0  0  0  0  0  0
   52.9570   29.3470   52.1570 C   0  0  0  0  0  0  0  0  0  0  0  0
   52.2350   30.5570   51.7330 C   0  0  0  0  0  0  0  0  0  0  0  0
   51.8740   31.5390   52.5770 N   0  0  0  0  0  0  0  0  0  0  0  0
   51.1440   32.3670   51.7980 C   0  0  0  0  0  0  0  0  0  0  0  0
   50.6350   33.4330   52.2330 O   0  0  0  0  0  0  0  0  0  0  0  0
   50.9940   31.9590   50.5200 N   0  0  0  0  0  0  0  0  0  0  0  0
   51.6770   30.8020   50.4990 C   0  0  0  0  0  0  0  0  0  0  0  0
   51.7700   29.9750   49.3840 O   0  0  0  0  0  0  0  0  0  0  0  0
   54.7850   28.1780   53.1810 C   0  0  0  0  0  0  0  0  0  0  0  0
   56.1100   28.4730   53.4330 C   0  0  0  0  0  0  0  0  0  0  0  0
   57.0970   27.5280   54.0480 C   0  0  0  0  0  0  0  0  0  0  0  0
   56.3820   29.7470   53.0780 N   0  0  0  0  0  0  0  0  0  0  0  0
   57.6520   30.4050   53.2310 C   0  0  0  0  0  0  0  0  0  0  0  0
   58.1300   30.6740   54.5210 C   0  0  0  0  0  0  0  0  0  0  0  0
   59.3460   31.3320   54.7000 C   0  0  0  0  0  0  0  0  0  0  0  0
   60.0900   31.7380   53.5940 C   0  0  0  0  0  0  0  0  0  0  0  0
   59.6300   31.4820   52.2960 C   0  0  0  0  0  0  0  0  0  0  0  0
   60.4060   31.9350   51.1770 N   0  0  0  0  0  0  0  0  0  0  0  0
   61.4910   31.1010   50.6640 C   0  0  0  0  0  0  0  0  0  0  0  0
   61.5130   31.1170   49.1260 C   0  0  0  0  0  0  0  0  0  0  0  0
   61.0380   32.4520   48.4720 C   0  0  0  0  0  0  0  0  0  0  0  0
   61.8140   32.7140   47.2220 N   0  0  0  0  0  0  0  0  0  0  0  0
   63.2240   33.0640   47.4900 C   0  0  0  0  0  0  0  0  0  0  0  0
   61.2030   33.8180   46.4520 C   0  0  0  0  0  0  0  0  0  0  0  0
   61.1420   33.6100   49.5010 C   0  0  0  0  0  0  0  0  0  0  0  0
   60.2650   33.3220   50.7280 C   0  0  0  0  0  0  0  0  0  0  0  0
   58.4150   30.7840   52.1020 C   0  0  0  0  0  0  0  0  0  0  0  0
   57.9230   30.4680   50.7110 C   0  0  0  0  0  0  0  0  0  0  0  0
  1  2  2  0
  2  3  1  0
  3  4  2  3
  4  5  1  0
  5  6  1  0
  6  7  1  0
  7  8  2  0
  7  9  1  0
  9 10  1  0
 10 11  1  0
  3 12  1  0
 12 13  2  0
 13 14  1  0
 13 15  1  0
 15 16  1  0
 16 17  2  0
 17 18  1  0
 18 19  2  0
 19 20  1  0
 20 21  1  0
 21 22  1  0
 22 23  1  0
 23 24  1  0
 24 25  1  0
 25 26  1  0
 25 27  1  0
 24 28  1  0
 28 29  1  0
 20 30  2  0
 30 31  1  0
 15  2  1  0
 30 16  1  0
 10  5  2  0
 29 21  1  0
M  CHG  2   6  -1   9  -1
M  END
>  <UniqueID>  (2126) 
82

>  <SMILES>  (2126) 
C=c1c(=Cc2[n-]c(=O)[n-]c2O)cc(C)n1-c1cccc(N2CCC(N(C)C)CC2)c1C

>  <Energy>  (2126) 
149.7507502196954

>  <Genealogy>  (2126) 
C=c1c(=Cc2[n-]c(=O)[n-]c2O)cc(C)n1-c1cccc(N2CCC(N(C)C)CC2)c1C (protonated)
C=c1c(=Cc2[n-]c(=O)[n-]c2O)cc(C)n1-c1cccc(N2CCC(N(C)C)CC2)c1C (3D coordinates assigned)
C=c1c(=Cc2[n-]c(=O)[n-]c2O)cc(C)n1-c1cccc(N2CCC(N(C)C)CC2)c1C (nonaromatic ring conformer: 149.7507502196954 kcal/mol)

>  <smiles>  (2126) 
C=c1c(=Cc2[nH]c(=O)[nH]c2O)cc(C)n1-c1cccc(N2CCC(N(C)C)CC2)c1C

>  <score_type>  (2126) 
oracle

>  <origin>  (2126) 
adg

>  <m_score__min__energy>  (2126) 
-14.08

>  <m_primary>  (2126) 
energy

$$$$
12:0
     RDKit          3D

 28 30  0  0  0  0  0  0  0  0999 V2000
   53.6990   29.5490   54.9010 C   0  0  0  0  0  0  0  0  0  0  0  0
   54.2370   29.8610   53.7110 C   0  0  0  0  0  0  0  0  0  0  0  0
   53.5280   30.3390   52.5960 C   0  0  0  0  0  0  0  0  0  0  0  0
   52.2050   30.4040   52.3430 C   0  0  0  0  0  0  0  0  0  0  0  0
   51.5890   30.7930   51.0630 C   0  0  0  0  0  0  0  0  0  0  0  0
   51.5670   30.0270   49.9560 N   0  0  0  0  0  0  0  0  0  0  0  0
   51.0290   30.8450   49.0260 C   0  0  0  0  0  0  0  0  0  0  0  0
   50.8250   30.4800   47.8380 O   0  0  0  0  0  0  0  0  0  0  0  0
   50.7330   32.0890   49.4630 N   0  0  0  0  0  0  0  0  0  0  0  0
   51.1080   32.0400   50.7510 C   0  0  0  0  0  0  0  0  0  0  0  0
   51.0180   33.1190   51.6230 O   0  0  0  0  0  0  0  0  0  0  0  0
   54.4740   30.7810   51.6950 C   0  0  0  0  0  0  0  0  0  0  0  0
   55.7060   30.4730   52.2250 C   0  0  0  0  0  0  0  0  0  0  0  0
   56.9750   30.8330   51.5520 C   0  0  0  0  0  0  0  0  0  0  0  0
   57.7500   29.8850   51.2480 O   0  0  0  0  0  0  0  0  0  0  0  0
   57.3150   32.1990   51.1640 N   0  0  0  0  0  0  0  0  0  0  0  0
   57.8600   33.0310   52.2640 C   0  0  0  0  0  0  0  0  0  0  0  0
   59.2680   32.5960   52.6990 C   0  0  0  0  0  0  0  0  0  0  0  0
   60.1580   32.4480   51.5390 N   0  0  0  0  0  0  0  0  0  0  0  0
   61.5800   32.6490   51.7130 C   0  0  0  0  0  0  0  0  0  0  0  0
   62.5850   32.0620   50.7670 C   0  0  0  0  0  0  0  0  0  0  0  0
   62.0020   33.3530   52.6710 O   0  0  0  0  0  0  0  0  0  0  0  0
   59.6380   31.7290   50.3680 C   0  0  0  0  0  0  0  0  0  0  0  0
   58.2380   32.2380   50.0070 C   0  0  0  0  0  0  0  0  0  0  0  0
   55.5800   29.9190   53.4610 N   0  0  0  0  0  0  0  0  0  0  0  0
   56.7150   29.6120   54.3630 C   0  0  0  0  0  0  0  0  0  0  0  0
   57.4800   30.8750   54.7940 C   0  0  0  0  0  0  0  0  0  0  0  0
   57.6340   28.5370   53.7700 C   0  0  0  0  0  0  0  0  0  0  0  0
  1  2  2  0
  2  3  1  0
  3  4  2  3
  4  5  1  0
  5  6  1  0
  6  7  1  0
  7  8  2  0
  7  9  1  0
  9 10  1  0
 10 11  1  0
  3 12  1  0
 12 13  2  0
 13 14  1  0
 14 15  2  0
 14 16  1  0
 16 17  1  0
 17 18  1  0
 18 19  1  0
 19 20  1  0
 20 21  1  0
 20 22  2  0
 19 23  1  0
 23 24  1  0
 13 25  1  0
 25 26  1  0
 26 27  1  0
 26 28  1  0
 25  2  1  0
 10  5  2  0
 24 16  1  0
M  CHG  4   6  -1   9  -1  11  -1  16   1
M  END
>  <UniqueID>  (2127) 
11

>  <SMILES>  (2127) 
C=c1c(=Cc2[n-]c(=O)[n-]c2[O-])cc(C(=O)[NH+]2CCN(C(C)=O)CC2)n1C(C)C

>  <Energy>  (2127) 
135.4733017280205

>  <Genealogy>  (2127) 
C=c1c(=Cc2[n-]c(=O)[n-]c2[O-])cc(C(=O)[NH+]2CCN(C(C)=O)CC2)n1C(C)C (protonated)
C=c1c(=Cc2[n-]c(=O)[n-]c2[O-])cc(C(=O)[NH+]2CCN(C(C)=O)CC2)n1C(C)C (3D coordinates assigned)
C=c1c(=Cc2[n-]c(=O)[n-]c2[O-])cc(C(=O)[NH+]2CCN(C(C)=O)CC2)n1C(C)C (nonaromatic ring conformer: 135.4733017280205 kcal/mol)

>  <smiles>  (2127) 
C=c1c(=Cc2[nH]c(=O)[nH]c2O)cc(C(=O)N2CCN(C(C)=O)CC2)n1C(C)C

>  <score_type>  (2127) 
oracle

>  <origin>  (2127) 
adg

>  <m_score__min__energy>  (2127) 
-15.43

>  <m_primary>  (2127) 
energy

$$$$
32:0
     RDKit          3D

 32 35  0  0  0  0  0  0  0  0999 V2000
   55.2790   30.7950   54.6070 O   0  0  0  0  0  0  0  0  0  0  0  0
   55.4260   30.3110   53.4520 C   0  0  0  0  0  0  0  0  0  0  0  0
   54.5240   29.3010   52.9840 N   0  0  0  0  0  0  0  0  0  0  0  0
   53.0800   29.3500   53.1850 C   0  0  0  0  0  0  0  0  0  0  0  0
   52.4400   30.2420   52.1580 C   0  0  0  0  0  0  0  0  0  0  0  0
   52.4050   29.8660   50.8050 C   0  0  0  0  0  0  0  0  0  0  0  0
   51.7890   30.6930   49.8600 C   0  0  0  0  0  0  0  0  0  0  0  0
   51.2020   31.8980   50.2580 C   0  0  0  0  0  0  0  0  0  0  0  0
   50.5930   32.7140   49.3120 O   0  0  0  0  0  0  0  0  0  0  0  0
   51.2280   32.2770   51.6050 C   0  0  0  0  0  0  0  0  0  0  0  0
   50.6420   33.4720   52.0060 O   0  0  0  0  0  0  0  0  0  0  0  0
   51.8430   31.4510   52.5520 C   0  0  0  0  0  0  0  0  0  0  0  0
   56.5320   30.7820   52.5850 C   0  0  0  0  0  0  0  0  0  0  0  0
   56.7600   32.1570   52.3980 C   0  0  0  0  0  0  0  0  0  0  0  0
   57.8030   32.6030   51.5820 C   0  0  0  0  0  0  0  0  0  0  0  0
   58.6420   31.6770   50.9370 C   0  0  0  0  0  0  0  0  0  0  0  0
   59.7020   32.0750   50.1040 C   0  0  0  0  0  0  0  0  0  0  0  0
   59.9190   33.3060   49.9190 O   0  0  0  0  0  0  0  0  0  0  0  0
   60.4900   31.1310   49.4880 N   0  0  0  0  0  0  0  0  0  0  0  0
   61.5710   31.5420   48.5670 C   0  0  0  0  0  0  0  0  0  0  0  0
   61.1300   31.4230   47.1000 C   0  0  0  0  0  0  0  0  0  0  0  0
   60.0430   32.4110   46.7640 C   0  0  0  0  0  0  0  0  0  0  0  0
   60.3450   33.7760   46.6190 C   0  0  0  0  0  0  0  0  0  0  0  0
   59.3450   34.6820   46.2530 C   0  0  0  0  0  0  0  0  0  0  0  0
   58.0410   34.2330   46.0280 C   0  0  0  0  0  0  0  0  0  0  0  0
   57.7350   32.8760   46.1650 C   0  0  0  0  0  0  0  0  0  0  0  0
   58.7310   31.9660   46.5290 C   0  0  0  0  0  0  0  0  0  0  0  0
   60.2380   29.7970   49.6920 C   0  0  0  0  0  0  0  0  0  0  0  0
   60.9440   28.9140   49.1330 O   0  0  0  0  0  0  0  0  0  0  0  0
   59.2190   29.4040   50.4970 N   0  0  0  0  0  0  0  0  0  0  0  0
   58.4190   30.3030   51.1200 C   0  0  0  0  0  0  0  0  0  0  0  0
   57.3740   29.8590   51.9370 C   0  0  0  0  0  0  0  0  0  0  0  0
  1  2  2  0
  2  3  1  0
  3  4  1  0
  4  5  1  0
  5  6  2  0
  6  7  1  0
  7  8  2  0
  8  9  1  0
  8 10  1  0
 10 11  1  0
 10 12  2  0
  2 13  1  0
 13 14  2  0
 14 15  1  0
 15 16  2  0
 16 17  1  0
 17 18  2  0
 17 19  1  0
 19 20  1  0
 20 21  1  0
 21 22  1  0
 22 23  2  0
 23 24  1  0
 24 25  2  0
 25 26  1  0
 26 27  2  0
 19 28  1  0
 28 29  2  0
 28 30  1  0
 30 31  1  0
 31 32  2  0
 12  5  1  0
 32 13  1  0
 31 16  1  0
 27 22  1  0
M  CHG  4   3  -1   9  -1  11  -1  30  -1
M  END
>  <UniqueID>  (2128) 
30

>  <SMILES>  (2128) 
O=C([N-]Cc1ccc([O-])c([O-])c1)c1ccc2c(=O)n(CCc3ccccc3)c(=O)[n-]c2c1

>  <Energy>  (2128) 
57.018280297335096

>  <Genealogy>  (2128) 
O=C([N-]Cc1ccc([O-])c([O-])c1)c1ccc2c(=O)n(CCc3ccccc3)c(=O)[n-]c2c1 (protonated)
O=C([N-]Cc1ccc([O-])c([O-])c1)c1ccc2c(=O)n(CCc3ccccc3)c(=O)[n-]c2c1 (3D coordinates assigned)
O=C([N-]Cc1ccc([O-])c([O-])c1)c1ccc2c(=O)n(CCc3ccccc3)c(=O)[n-]c2c1 (optimized conformer: 57.018280297335096 kcal/mol)

>  <smiles>  (2128) 
O=C(NCc1ccc(O)c(O)c1)c1ccc2c(=O)n(CCc3ccccc3)c(=O)[nH]c2c1

>  <score_type>  (2128) 
oracle

>  <origin>  (2128) 
adg

>  <m_score__min__energy>  (2128) 
-20.23

>  <m_primary>  (2128) 
energy

$$$$
33:0
     RDKit          3D

 31 34  0  0  0  0  0  0  0  0999 V2000
   54.9390   31.4480   52.3560 C   0  0  0  0  0  0  0  0  0  0  0  0
   54.9000   30.2190   52.8950 C   0  0  0  0  0  0  0  0  0  0  0  0
   53.9430   29.2160   52.6570 C   0  0  0  0  0  0  0  0  0  0  0  0
   52.7790   29.2420   51.9780 C   0  0  0  0  0  0  0  0  0  0  0  0
   52.0190   30.4480   51.6200 C   0  0  0  0  0  0  0  0  0  0  0  0
   51.7620   31.4460   52.4830 N   0  0  0  0  0  0  0  0  0  0  0  0
   51.1440   32.3690   51.7160 C   0  0  0  0  0  0  0  0  0  0  0  0
   50.7280   33.4640   52.1780 O   0  0  0  0  0  0  0  0  0  0  0  0
   51.0170   32.0340   50.4150 N   0  0  0  0  0  0  0  0  0  0  0  0
   51.5870   30.8200   50.3630 C   0  0  0  0  0  0  0  0  0  0  0  0
   51.7250   30.0880   49.1860 O   0  0  0  0  0  0  0  0  0  0  0  0
   54.4020   28.0830   53.3050 C   0  0  0  0  0  0  0  0  0  0  0  0
   55.5740   28.4300   53.9430 C   0  0  0  0  0  0  0  0  0  0  0  0
   56.3590   27.5060   54.8260 C   0  0  0  0  0  0  0  0  0  0  0  0
   55.8770   29.7270   53.7050 N   0  0  0  0  0  0  0  0  0  0  0  0
   57.0790   30.4350   54.1790 C   0  0  0  0  0  0  0  0  0  0  0  0
   57.8640   31.0060   53.0250 C   0  0  0  0  0  0  0  0  0  0  0  0
   58.3070   30.1710   51.9870 C   0  0  0  0  0  0  0  0  0  0  0  0
   59.0310   30.6970   50.9140 C   0  0  0  0  0  0  0  0  0  0  0  0
   59.3150   32.0720   50.8480 C   0  0  0  0  0  0  0  0  0  0  0  0
   60.0670   32.6140   49.7400 N   0  0  0  0  0  0  0  0  0  0  0  0
   61.4460   33.0900   49.9430 C   0  0  0  0  0  0  0  0  0  0  0  0
   61.7820   34.2080   48.9490 C   0  0  0  0  0  0  0  0  0  0  0  0
   61.5700   33.7760   47.4750 C   0  0  0  0  0  0  0  0  0  0  0  0
   62.8740   33.4080   46.8190 C   0  0  0  0  0  0  0  0  0  0  0  0
   63.5000   32.1650   47.1250 N   0  0  0  0  0  0  0  0  0  0  0  0
   63.4320   34.2050   46.0170 O   0  0  0  0  0  0  0  0  0  0  0  0
   60.5540   32.6210   47.3170 C   0  0  0  0  0  0  0  0  0  0  0  0
   59.4680   32.6680   48.3970 C   0  0  0  0  0  0  0  0  0  0  0  0
   58.8560   32.9090   51.8810 C   0  0  0  0  0  0  0  0  0  0  0  0
   58.1350   32.3830   52.9560 C   0  0  0  0  0  0  0  0  0  0  0  0
  1  2  2  0
  2  3  1  0
  3  4  2  3
  4  5  1  0
  5  6  1  0
  6  7  1  0
  7  8  2  0
  7  9  1  0
  9 10  1  0
 10 11  1  0
  3 12  1  0
 12 13  2  0
 13 14  1  0
 13 15  1  0
 15 16  1  0
 16 17  1  0
 17 18  2  0
 18 19  1  0
 19 20  2  0
 20 21  1  0
 21 22  1  0
 22 23  1  0
 23 24  1  0
 24 25  1  0
 25 26  1  0
 25 27  2  0
 24 28  1  0
 28 29  1  0
 20 30  1  0
 30 31  2  0
 15  2  1  0
 31 17  1  0
 10  5  2  0
 29 21  1  0
M  CHG  3   6  -1   9  -1  26  -1
M  END
>  <UniqueID>  (2129) 
31

>  <SMILES>  (2129) 
C=c1c(=Cc2[n-]c(=O)[n-]c2O)cc(C)n1Cc1ccc(N2CCC(C([NH-])=O)CC2)cc1

>  <Energy>  (2129) 
130.57787945201508

>  <Genealogy>  (2129) 
C=c1c(=Cc2[n-]c(=O)[n-]c2O)cc(C)n1Cc1ccc(N2CCC(C([NH-])=O)CC2)cc1 (protonated)
C=c1c(=Cc2[n-]c(=O)[n-]c2O)cc(C)n1Cc1ccc(N2CCC(C([NH-])=O)CC2)cc1 (3D coordinates assigned)
C=c1c(=Cc2[n-]c(=O)[n-]c2O)cc(C)n1Cc1ccc(N2CCC(C([NH-])=O)CC2)cc1 (nonaromatic ring conformer: 130.57787945201508 kcal/mol)

>  <smiles>  (2129) 
C=c1c(=Cc2[nH]c(=O)[nH]c2O)cc(C)n1Cc1ccc(N2CCC(C(N)=O)CC2)cc1

>  <score_type>  (2129) 
oracle

>  <origin>  (2129) 
adg

>  <m_score__min__energy>  (2129) 
-14.08

>  <m_primary>  (2129) 
energy

$$$$
37:0
     RDKit          3D

 24 26  0  0  0  0  0  0  0  0999 V2000
   59.6470   34.2260   49.5130 O   0  0  0  0  0  0  0  0  0  0  0  0
   59.6790   33.3620   48.5950 C   0  0  0  0  0  0  0  0  0  0  0  0
   60.4150   32.1500   48.8200 N   0  0  0  0  0  0  0  0  0  0  0  0
   60.4680   31.1280   48.0170 C   0  0  0  0  0  0  0  0  0  0  0  0
   61.1380   31.1700   46.8450 N   0  0  0  0  0  0  0  0  0  0  0  0
   61.0480   29.9920   46.1700 C   0  0  0  0  0  0  0  0  0  0  0  0
   60.3120   29.0110   46.8200 C   0  0  0  0  0  0  0  0  0  0  0  0
   59.9290   27.3880   46.1750 S   0  0  0  0  0  0  0  0  0  0  0  0
   58.2430   27.8630   45.7890 C   0  0  0  0  0  0  0  0  0  0  0  0
   57.1970   26.9550   45.9770 C   0  0  0  0  0  0  0  0  0  0  0  0
   55.8930   27.3360   45.6460 C   0  0  0  0  0  0  0  0  0  0  0  0
   54.8420   26.4470   45.8230 O   0  0  0  0  0  0  0  0  0  0  0  0
   55.6540   28.5780   45.1460 N   0  0  0  0  0  0  0  0  0  0  0  0
   56.6550   29.4780   44.9550 C   0  0  0  0  0  0  0  0  0  0  0  0
   56.3940   30.6170   44.4860 O   0  0  0  0  0  0  0  0  0  0  0  0
   57.9720   29.1380   45.2800 C   0  0  0  0  0  0  0  0  0  0  0  0
   59.7590   29.6150   48.2850 S   0  0  0  0  0  0  0  0  0  0  0  0
   59.0030   33.6500   47.3080 C   0  0  0  0  0  0  0  0  0  0  0  0
   57.6650   33.2570   47.1260 C   0  0  0  0  0  0  0  0  0  0  0  0
   57.0160   33.4920   45.9120 C   0  0  0  0  0  0  0  0  0  0  0  0
   57.6890   34.1320   44.8690 C   0  0  0  0  0  0  0  0  0  0  0  0
   59.0110   34.5480   45.0430 C   0  0  0  0  0  0  0  0  0  0  0  0
   59.6670   34.3210   46.2580 C   0  0  0  0  0  0  0  0  0  0  0  0
   60.9710   34.7800   46.4150 O   0  0  0  0  0  0  0  0  0  0  0  0
  1  2  2  0
  2  3  1  0
  3  4  2  3
  4  5  1  0
  5  6  1  0
  6  7  2  0
  7  8  1  0
  8  9  1  0
  9 10  1  0
 10 11  2  0
 11 12  1  0
 11 13  1  0
 13 14  1  0
 14 15  2  0
 14 16  1  0
  7 17  1  0
  2 18  1  0
 18 19  2  0
 19 20  1  0
 20 21  2  0
 21 22  1  0
 22 23  2  0
 23 24  1  0
 17  4  1  0
 23 18  1  0
 16  9  2  0
M  CHG  4   5  -1  12  -1  13  -1  24  -1
M  END
>  <UniqueID>  (2130) 
35

>  <SMILES>  (2130) 
O=C(N=c1[n-]cc(Sc2cc([O-])[n-]c(=O)c2)s1)c1ccccc1[O-]

>  <Energy>  (2130) 
70.6020093473766

>  <Genealogy>  (2130) 
O=C(N=c1[n-]cc(Sc2cc([O-])[n-]c(=O)c2)s1)c1ccccc1[O-] (protonated)
O=C(N=c1[n-]cc(Sc2cc([O-])[n-]c(=O)c2)s1)c1ccccc1[O-] (3D coordinates assigned)
O=C(N=c1[n-]cc(Sc2cc([O-])[n-]c(=O)c2)s1)c1ccccc1[O-] (optimized conformer: 70.6020093473766 kcal/mol)

>  <smiles>  (2130) 
O=C(N=c1[nH]cc(Sc2cc(O)[nH]c(=O)c2)s1)c1ccccc1O

>  <score_type>  (2130) 
oracle

>  <origin>  (2130) 
adg

>  <m_score__min__energy>  (2130) 
-17.16

>  <m_primary>  (2130) 
energy

$$$$
67:0
     RDKit          3D

 27 30  0  0  0  0  0  0  0  0999 V2000
   59.5420   29.3960   47.4100 C   0  0  0  0  0  0  0  0  0  0  0  0
   59.0570   29.7480   46.2090 C   0  0  0  0  0  0  0  0  0  0  0  0
   58.5780   28.8870   45.2160 C   0  0  0  0  0  0  0  0  0  0  0  0
   58.4550   27.5480   45.2890 C   0  0  0  0  0  0  0  0  0  0  0  0
   57.2240   26.8540   45.7100 C   0  0  0  0  0  0  0  0  0  0  0  0
   57.2080   25.5860   46.1550 N   0  0  0  0  0  0  0  0  0  0  0  0
   55.8940   25.3340   46.3410 C   0  0  0  0  0  0  0  0  0  0  0  0
   55.4700   24.2310   46.7730 O   0  0  0  0  0  0  0  0  0  0  0  0
   55.0710   26.3540   46.0170 N   0  0  0  0  0  0  0  0  0  0  0  0
   55.9260   27.3050   45.6070 C   0  0  0  0  0  0  0  0  0  0  0  0
   55.5220   28.5360   45.1070 O   0  0  0  0  0  0  0  0  0  0  0  0
   58.1950   29.6950   44.1510 C   0  0  0  0  0  0  0  0  0  0  0  0
   58.4640   30.9970   44.5260 C   0  0  0  0  0  0  0  0  0  0  0  0
   58.1700   32.2100   43.6980 C   0  0  0  0  0  0  0  0  0  0  0  0
   58.9800   31.0290   45.7730 N   0  0  0  0  0  0  0  0  0  0  0  0
   59.3600   32.2140   46.4900 C   0  0  0  0  0  0  0  0  0  0  0  0
   60.6570   32.3120   47.0130 C   0  0  0  0  0  0  0  0  0  0  0  0
   61.0570   33.4530   47.7260 C   0  0  0  0  0  0  0  0  0  0  0  0
   62.4250   33.5490   48.2770 C   0  0  0  0  0  0  0  0  0  0  0  0
   62.7240   34.0240   49.5000 N   0  0  0  0  0  0  0  0  0  0  0  0
   64.0410   33.9330   49.5860 N   0  0  0  0  0  0  0  0  0  0  0  0
   64.5280   33.4250   48.4650 N   0  0  0  0  0  0  0  0  0  0  0  0
   63.5410   33.1730   47.6220 N   0  0  0  0  0  0  0  0  0  0  0  0
   60.1420   34.5000   47.9110 C   0  0  0  0  0  0  0  0  0  0  0  0
   58.8490   34.4110   47.3870 C   0  0  0  0  0  0  0  0  0  0  0  0
   58.4500   33.2790   46.6630 C   0  0  0  0  0  0  0  0  0  0  0  0
   57.0540   33.1960   46.1110 C   0  0  0  0  0  0  0  0  0  0  0  0
  1  2  2  0
  2  3  1  0
  3  4  2  0
  4  5  1  0
  5  6  1  0
  6  7  1  0
  7  8  2  0
  7  9  1  0
  9 10  1  0
 10 11  1  0
  3 12  1  0
 12 13  2  0
 13 14  1  0
 13 15  1  0
 15 16  1  0
 16 17  2  0
 17 18  1  0
 18 19  1  0
 19 20  1  0
 20 21  2  0
 21 22  1  0
 22 23  1  0
 18 24  2  0
 24 25  1  0
 25 26  2  0
 26 27  1  0
 15  2  1  0
 26 16  1  0
 10  5  2  0
 23 19  2  0
M  CHG  4   6  -1   9  -1  11  -1  22  -1
M  END
>  <UniqueID>  (2131) 
63

>  <SMILES>  (2131) 
C=c1/c(=C/c2[n-]c(=O)[n-]c2[O-])cc(C)n1-c1cc(-c2nn[n-]n2)ccc1C

>  <Energy>  (2131) 
153.35928086262385

>  <Genealogy>  (2131) 
C=c1c(=Cc2[n-]c(=O)[n-]c2[O-])cc(C)n1-c1cc(-c2nn[n-]n2)ccc1C (protonated)
C=c1/c(=C/c2[n-]c(=O)[n-]c2[O-])cc(C)n1-c1cc(-c2nn[n-]n2)ccc1C (cis-trans isomerization)
C=c1/c(=C/c2[n-]c(=O)[n-]c2[O-])cc(C)n1-c1cc(-c2nn[n-]n2)ccc1C (3D coordinates assigned)
C=c1/c(=C/c2[n-]c(=O)[n-]c2[O-])cc(C)n1-c1cc(-c2nn[n-]n2)ccc1C (optimized conformer: 153.35928086262385 kcal/mol)

>  <smiles>  (2131) 
C=c1c(=Cc2[nH]c(=O)[nH]c2O)cc(C)n1-c1cc(-c2nn[nH]n2)ccc1C

>  <score_type>  (2131) 
oracle

>  <origin>  (2131) 
adg

>  <m_score__min__energy>  (2131) 
-17.039999999999999

>  <m_primary>  (2131) 
energy

$$$$
69:0
     RDKit          3D

 23 24  0  0  0  0  0  0  0  0999 V2000
   59.3240   32.9590   45.9960 C   0  0  0  0  0  0  0  0  0  0  0  0
   58.2280   32.7430   44.9510 C   0  0  0  0  0  0  0  0  0  0  0  0
   57.0380   33.6670   45.2190 C   0  0  0  0  0  0  0  0  0  0  0  0
   57.6870   31.0320   44.9160 S   0  0  0  0  0  0  0  0  0  0  0  0
   56.2520   30.9970   44.4740 O   0  0  0  0  0  0  0  0  0  0  0  0
   58.4960   30.2400   43.9260 O   0  0  0  0  0  0  0  0  0  0  0  0
   57.7820   30.3150   46.4960 N   0  0  0  0  0  0  0  0  0  0  0  0
   58.4470   29.0990   46.8690 C   0  0  0  0  0  0  0  0  0  0  0  0
   59.3530   29.0280   47.9410 C   0  0  0  0  0  0  0  0  0  0  0  0
   59.9690   27.8180   48.2600 C   0  0  0  0  0  0  0  0  0  0  0  0
   59.6940   26.6680   47.5170 C   0  0  0  0  0  0  0  0  0  0  0  0
   58.7940   26.7150   46.4350 C   0  0  0  0  0  0  0  0  0  0  0  0
   58.4860   25.5060   45.6190 C   0  0  0  0  0  0  0  0  0  0  0  0
   59.0620   24.4170   45.8880 O   0  0  0  0  0  0  0  0  0  0  0  0
   57.4800   25.5130   44.4990 C   0  0  0  0  0  0  0  0  0  0  0  0
   56.2110   24.8350   44.9200 C   0  0  0  0  0  0  0  0  0  0  0  0
   55.8270   23.2190   44.6360 S   0  0  0  0  0  0  0  0  0  0  0  0
   54.3340   23.3550   45.3960 C   0  0  0  0  0  0  0  0  0  0  0  0
   53.5120   22.4100   45.5170 O   0  0  0  0  0  0  0  0  0  0  0  0
   54.1020   24.5970   45.8700 N   0  0  0  0  0  0  0  0  0  0  0  0
   55.1480   25.4210   45.6060 C   0  0  0  0  0  0  0  0  0  0  0  0
   55.1450   26.7530   45.9990 O   0  0  0  0  0  0  0  0  0  0  0  0
   58.1760   27.9420   46.1260 C   0  0  0  0  0  0  0  0  0  0  0  0
  1  2  1  0
  2  3  1  0
  2  4  1  0
  4  5  2  0
  4  6  2  0
  4  7  1  0
  7  8  1  0
  8  9  2  0
  9 10  1  0
 10 11  2  0
 11 12  1  0
 12 13  1  0
 13 14  2  0
 13 15  1  0
 15 16  1  0
 16 17  1  0
 17 18  1  0
 18 19  2  0
 18 20  1  0
 20 21  1  0
 21 22  1  0
 12 23  2  0
 23  8  1  0
 21 16  2  0
M  CHG  3   7  -1  20  -1  22  -1
M  END
>  <UniqueID>  (2132) 
65

>  <SMILES>  (2132) 
CC(C)S(=O)(=O)[N-]c1cccc(C(=O)Cc2sc(=O)[n-]c2[O-])c1

>  <Energy>  (2132) 
62.92153507024258

>  <Genealogy>  (2132) 
CC(C)S(=O)(=O)[N-]c1cccc(C(=O)Cc2sc(=O)[n-]c2[O-])c1 (protonated)
CC(C)S(=O)(=O)[N-]c1cccc(C(=O)Cc2sc(=O)[n-]c2[O-])c1 (3D coordinates assigned)
CC(C)S(=O)(=O)[N-]c1cccc(C(=O)Cc2sc(=O)[n-]c2[O-])c1 (optimized conformer: 62.92153507024258 kcal/mol)

>  <smiles>  (2132) 
CC(C)S(=O)(=O)Nc1cccc(C(=O)Cc2sc(=O)[nH]c2O)c1

>  <score_type>  (2132) 
oracle

>  <origin>  (2132) 
adg

>  <m_score__min__energy>  (2132) 
-15.16

>  <m_primary>  (2132) 
energy

$$$$
85:0
     RDKit          3D

 28 30  0  0  0  0  0  0  0  0999 V2000
   59.9240   25.1550   46.0620 C   0  0  0  0  0  0  0  0  0  0  0  0
   59.2690   26.2990   46.2670 C   0  0  0  0  0  0  0  0  0  0  0  0
   59.6920   27.2290   47.1490 N   0  0  0  0  0  0  0  0  0  0  0  0
   58.8410   28.2420   47.1200 N   0  0  0  0  0  0  0  0  0  0  0  0
   58.9790   29.4050   47.9520 C   0  0  0  0  0  0  0  0  0  0  0  0
   59.1470   29.2550   49.1920 O   0  0  0  0  0  0  0  0  0  0  0  0
   59.0020   30.7650   47.3760 C   0  0  0  0  0  0  0  0  0  0  0  0
   60.0660   31.6640   47.3850 C   0  0  0  0  0  0  0  0  0  0  0  0
   61.4050   31.4690   48.0350 C   0  0  0  0  0  0  0  0  0  0  0  0
   59.6410   32.7790   46.6590 C   0  0  0  0  0  0  0  0  0  0  0  0
   60.4010   34.0130   46.3410 C   0  0  0  0  0  0  0  0  0  0  0  0
   61.6220   33.9260   46.0410 O   0  0  0  0  0  0  0  0  0  0  0  0
   59.7660   35.3670   46.3640 C   0  0  0  0  0  0  0  0  0  0  0  0
   58.3430   32.4960   46.2490 C   0  0  0  0  0  0  0  0  0  0  0  0
   57.4600   33.3760   45.4200 C   0  0  0  0  0  0  0  0  0  0  0  0
   57.9680   31.2790   46.6850 N   0  0  0  0  0  0  0  0  0  0  0  0
   57.8570   27.9660   46.2370 C   0  0  0  0  0  0  0  0  0  0  0  0
   56.8910   28.7360   45.9900 O   0  0  0  0  0  0  0  0  0  0  0  0
   58.0840   26.7230   45.6590 C   0  0  0  0  0  0  0  0  0  0  0  0
   57.3670   26.0810   44.7160 C   0  0  0  0  0  0  0  0  0  0  0  0
   56.3600   25.0390   45.0050 C   0  0  0  0  0  0  0  0  0  0  0  0
   56.5670   23.7130   44.5870 C   0  0  0  0  0  0  0  0  0  0  0  0
   55.5910   22.7400   44.8210 C   0  0  0  0  0  0  0  0  0  0  0  0
   54.3930   23.0860   45.4520 C   0  0  0  0  0  0  0  0  0  0  0  0
   53.4240   22.1180   45.6830 O   0  0  0  0  0  0  0  0  0  0  0  0
   54.1690   24.4080   45.8470 C   0  0  0  0  0  0  0  0  0  0  0  0
   55.1430   25.3870   45.6180 C   0  0  0  0  0  0  0  0  0  0  0  0
   54.8980   26.6990   46.0090 O   0  0  0  0  0  0  0  0  0  0  0  0
  1  2  2  0
  2  3  1  0
  3  4  1  0
  4  5  1  0
  5  6  2  0
  5  7  1  0
  7  8  2  0
  8  9  1  0
  8 10  1  0
 10 11  1  0
 11 12  2  0
 11 13  1  0
 10 14  2  0
 14 15  1  0
 14 16  1  0
  4 17  1  0
 17 18  2  0
 17 19  1  0
 19 20  2  0
 20 21  1  0
 21 22  2  0
 22 23  1  0
 23 24  2  0
 24 25  1  0
 24 26  1  0
 26 27  2  0
 27 28  1  0
 19  2  1  0
 27 21  1  0
 16  7  1  0
M  CHG  3   3  -1  25  -1  28  -1
M  END
>  <UniqueID>  (2133) 
80

>  <SMILES>  (2133) 
C=c1[n-]n(C(=O)c2[nH]c(C)c(C(C)=O)c2C)c(=O)/c1=C\c1ccc([O-])cc1[O-]

>  <Energy>  (2133) 
121.38739277396957

>  <Genealogy>  (2133) 
C=c1[n-]n(C(=O)c2[nH]c(C)c(C(C)=O)c2C)c(=O)c1=Cc1ccc([O-])cc1[O-] (protonated)
C=c1[n-]n(C(=O)c2[nH]c(C)c(C(C)=O)c2C)c(=O)/c1=C\c1ccc([O-])cc1[O-] (cis-trans isomerization)
C=c1[n-]n(C(=O)c2[nH]c(C)c(C(C)=O)c2C)c(=O)/c1=C\c1ccc([O-])cc1[O-] (3D coordinates assigned)
C=c1[n-]n(C(=O)c2[nH]c(C)c(C(C)=O)c2C)c(=O)/c1=C\c1ccc([O-])cc1[O-] (optimized conformer: 121.38739277396957 kcal/mol)

>  <smiles>  (2133) 
C=c1[nH]n(C(=O)c2[nH]c(C)c(C(C)=O)c2C)c(=O)c1=Cc1ccc(O)cc1O

>  <score_type>  (2133) 
oracle

>  <origin>  (2133) 
adg

>  <m_score__min__energy>  (2133) 
-15.199999999999999

>  <m_primary>  (2133) 
energy

$$$$
15:0
     RDKit          3D

 24 25  0  0  0  0  0  0  0  0999 V2000
   62.5030   33.4690   46.7920 C   0  0  0  0  0  0  0  0  0  0  0  0
   61.1970   33.4200   47.5180 C   0  0  0  0  0  0  0  0  0  0  0  0
   61.1980   33.4670   48.7770 O   0  0  0  0  0  0  0  0  0  0  0  0
   59.9230   33.3440   46.7720 C   0  0  0  0  0  0  0  0  0  0  0  0
   59.0000   31.9440   46.5880 S   0  0  0  0  0  0  0  0  0  0  0  0
   57.8080   32.7150   45.6800 C   0  0  0  0  0  0  0  0  0  0  0  0
   56.7520   32.1630   45.1570 N   0  0  0  0  0  0  0  0  0  0  0  0
   56.7020   31.2410   44.0580 C   0  0  0  0  0  0  0  0  0  0  0  0
   57.4120   31.4690   43.0430 O   0  0  0  0  0  0  0  0  0  0  0  0
   55.7620   30.0730   44.0320 C   0  0  0  0  0  0  0  0  0  0  0  0
   55.9870   29.2350   45.2020 N   0  0  0  0  0  0  0  0  0  0  0  0
   57.0520   28.2840   45.2750 C   0  0  0  0  0  0  0  0  0  0  0  0
   57.9450   28.2550   44.3850 O   0  0  0  0  0  0  0  0  0  0  0  0
   57.0880   27.2980   46.3980 C   0  0  0  0  0  0  0  0  0  0  0  0
   56.7870   25.9120   45.8880 C   0  0  0  0  0  0  0  0  0  0  0  0
   57.8400   25.0220   45.6230 C   0  0  0  0  0  0  0  0  0  0  0  0
   57.5740   23.7350   45.1450 C   0  0  0  0  0  0  0  0  0  0  0  0
   56.2550   23.3230   44.9420 C   0  0  0  0  0  0  0  0  0  0  0  0
   55.1990   24.1920   45.2280 C   0  0  0  0  0  0  0  0  0  0  0  0
   55.4570   25.4820   45.7030 C   0  0  0  0  0  0  0  0  0  0  0  0
   54.3910   26.3290   45.9860 O   0  0  0  0  0  0  0  0  0  0  0  0
   58.1000   34.0170   45.4860 N   0  0  0  0  0  0  0  0  0  0  0  0
   59.2650   34.3810   46.0910 C   0  0  0  0  0  0  0  0  0  0  0  0
   59.7660   35.7880   46.0020 C   0  0  0  0  0  0  0  0  0  0  0  0
  1  2  1  0
  2  3  2  0
  2  4  1  0
  4  5  1  0
  5  6  1  0
  6  7  2  3
  7  8  1  0
  8  9  2  0
  8 10  1  0
 10 11  1  0
 11 12  1  0
 12 13  2  0
 12 14  1  0
 14 15  1  0
 15 16  2  0
 16 17  1  0
 17 18  2  0
 18 19  1  0
 19 20  2  0
 20 21  1  0
  6 22  1  0
 22 23  1  0
 23 24  1  0
 23  4  2  0
 20 15  1  0
M  CHG  3  11  -1  21  -1  22  -1
M  END
>  <UniqueID>  (2134) 
14

>  <SMILES>  (2134) 
CC(=O)c1sc(=NC(=O)C[N-]C(=O)Cc2ccccc2[O-])[n-]c1C

>  <Energy>  (2134) 
65.76282973765736

>  <Genealogy>  (2134) 
CC(=O)c1sc(=NC(=O)C[N-]C(=O)Cc2ccccc2[O-])[n-]c1C (protonated)
CC(=O)c1sc(=NC(=O)C[N-]C(=O)Cc2ccccc2[O-])[n-]c1C (3D coordinates assigned)
CC(=O)c1sc(=NC(=O)C[N-]C(=O)Cc2ccccc2[O-])[n-]c1C (optimized conformer: 65.76282973765736 kcal/mol)

>  <smiles>  (2134) 
CC(=O)c1sc(=NC(=O)CNC(=O)Cc2ccccc2O)[nH]c1C

>  <score_type>  (2134) 
oracle

>  <origin>  (2134) 
adg

>  <m_score__min__energy>  (2134) 
-14.26

>  <m_primary>  (2134) 
energy

$$$$
28:0
     RDKit          3D

 25 27  0  0  0  0  0  0  0  0999 V2000
   55.1660   29.1470   44.5500 N   0  0  0  0  0  0  0  0  0  0  0  0
   56.2950   29.9920   44.7830 C   0  0  0  0  0  0  0  0  0  0  0  0
   56.2180   31.2150   44.4940 O   0  0  0  0  0  0  0  0  0  0  0  0
   57.5330   29.4570   45.3930 C   0  0  0  0  0  0  0  0  0  0  0  0
   58.5990   30.2440   45.8960 C   0  0  0  0  0  0  0  0  0  0  0  0
   58.5850   31.7180   46.0270 C   0  0  0  0  0  0  0  0  0  0  0  0
   58.5100   32.3130   47.2990 C   0  0  0  0  0  0  0  0  0  0  0  0
   58.4830   33.7050   47.4260 C   0  0  0  0  0  0  0  0  0  0  0  0
   58.5190   34.5130   46.2870 C   0  0  0  0  0  0  0  0  0  0  0  0
   58.5780   33.9320   45.0180 C   0  0  0  0  0  0  0  0  0  0  0  0
   58.6050   32.5400   44.8860 C   0  0  0  0  0  0  0  0  0  0  0  0
   59.6750   29.4840   46.3560 C   0  0  0  0  0  0  0  0  0  0  0  0
   59.3050   27.8550   46.1780 S   0  0  0  0  0  0  0  0  0  0  0  0
   57.7930   28.0910   45.4810 C   0  0  0  0  0  0  0  0  0  0  0  0
   56.8690   27.0590   45.1100 N   0  0  0  0  0  0  0  0  0  0  0  0
   56.1450   26.1970   45.9980 C   0  0  0  0  0  0  0  0  0  0  0  0
   54.9110   26.3950   46.1560 O   0  0  0  0  0  0  0  0  0  0  0  0
   56.8180   25.0700   46.7340 C   0  0  0  0  0  0  0  0  0  0  0  0
   56.6980   23.7790   45.9830 C   0  0  0  0  0  0  0  0  0  0  0  0
   56.2900   23.6340   44.3540 S   0  0  0  0  0  0  0  0  0  0  0  0
   56.4710   21.9620   44.3740 C   0  0  0  0  0  0  0  0  0  0  0  0
   56.2840   21.2180   43.3780 O   0  0  0  0  0  0  0  0  0  0  0  0
   56.8450   21.4930   45.5830 N   0  0  0  0  0  0  0  0  0  0  0  0
   56.9770   22.5070   46.4790 C   0  0  0  0  0  0  0  0  0  0  0  0
   57.3690   22.2750   47.7910 O   0  0  0  0  0  0  0  0  0  0  0  0
  1  2  1  0
  2  3  2  0
  2  4  1  0
  4  5  1  0
  5  6  1  0
  6  7  2  0
  7  8  1  0
  8  9  2  0
  9 10  1  0
 10 11  2  0
  5 12  2  0
 12 13  1  0
 13 14  1  0
 14 15  1  0
 15 16  1  0
 16 17  2  0
 16 18  1  0
 18 19  1  0
 19 20  1  0
 20 21  1  0
 21 22  2  0
 21 23  1  0
 23 24  1  0
 24 25  1  0
 14  4  2  0
 24 19  2  0
 11  6  1  0
M  CHG  3  15  -1  23  -1  25  -1
M  END
>  <UniqueID>  (2135) 
27

>  <SMILES>  (2135) 
NC(=O)c1c(-c2ccccc2)csc1[N-]C(=O)Cc1sc(=O)[n-]c1[O-]

>  <Energy>  (2135) 
105.36201247334124

>  <Genealogy>  (2135) 
NC(=O)c1c(-c2ccccc2)csc1[N-]C(=O)Cc1sc(=O)[n-]c1[O-] (protonated)
NC(=O)c1c(-c2ccccc2)csc1[N-]C(=O)Cc1sc(=O)[n-]c1[O-] (3D coordinates assigned)
NC(=O)c1c(-c2ccccc2)csc1[N-]C(=O)Cc1sc(=O)[n-]c1[O-] (optimized conformer: 105.36201247334124 kcal/mol)

>  <smiles>  (2135) 
NC(=O)c1c(-c2ccccc2)csc1NC(=O)Cc1sc(=O)[nH]c1O

>  <score_type>  (2135) 
oracle

>  <origin>  (2135) 
adg

>  <m_score__min__energy>  (2135) 
-15.48

>  <m_primary>  (2135) 
energy

$$$$
33:0
     RDKit          3D

 30 33  0  0  0  0  0  0  0  0999 V2000
   58.1100   26.7490   42.6320 C   0  0  0  0  0  0  0  0  0  0  0  0
   57.9620   27.6180   43.6370 C   0  0  0  0  0  0  0  0  0  0  0  0
   57.7030   28.9230   43.4160 N   0  0  0  0  0  0  0  0  0  0  0  0
   57.4230   29.4830   44.6070 C   0  0  0  0  0  0  0  0  0  0  0  0
   57.0690   30.9050   44.7840 C   0  0  0  0  0  0  0  0  0  0  0  0
   55.9030   31.2890   44.4990 O   0  0  0  0  0  0  0  0  0  0  0  0
   58.0260   31.8570   45.2760 N   0  0  0  0  0  0  0  0  0  0  0  0
   58.6880   31.6420   46.5690 C   0  0  0  0  0  0  0  0  0  0  0  0
   60.1150   32.1890   46.4990 C   0  0  0  0  0  0  0  0  0  0  0  0
   60.1430   33.7020   46.1460 C   0  0  0  0  0  0  0  0  0  0  0  0
   60.5410   34.5980   47.3500 C   0  0  0  0  0  0  0  0  0  0  0  0
   61.7930   34.1510   48.0780 C   0  0  0  0  0  0  0  0  0  0  0  0
   61.8720   34.2290   49.4800 C   0  0  0  0  0  0  0  0  0  0  0  0
   63.0400   33.8430   50.1470 C   0  0  0  0  0  0  0  0  0  0  0  0
   64.1330   33.3570   49.4240 C   0  0  0  0  0  0  0  0  0  0  0  0
   65.2670   32.9890   50.0710 F   0  0  0  0  0  0  0  0  0  0  0  0
   64.0530   33.2440   48.0330 C   0  0  0  0  0  0  0  0  0  0  0  0
   62.8870   33.6310   47.3630 C   0  0  0  0  0  0  0  0  0  0  0  0
   58.8430   34.1920   45.4540 C   0  0  0  0  0  0  0  0  0  0  0  0
   58.2270   33.1190   44.5460 C   0  0  0  0  0  0  0  0  0  0  0  0
   57.5290   28.5440   45.6160 C   0  0  0  0  0  0  0  0  0  0  0  0
   57.9010   27.3520   45.0130 C   0  0  0  0  0  0  0  0  0  0  0  0
   58.1430   26.2250   45.7100 C   0  0  0  0  0  0  0  0  0  0  0  0
   57.1260   25.2560   46.1490 C   0  0  0  0  0  0  0  0  0  0  0  0
   57.3930   24.0240   46.6190 N   0  0  0  0  0  0  0  0  0  0  0  0
   56.1840   23.5740   47.0180 C   0  0  0  0  0  0  0  0  0  0  0  0
   56.0180   22.4310   47.5120 O   0  0  0  0  0  0  0  0  0  0  0  0
   55.1700   24.4510   46.8580 N   0  0  0  0  0  0  0  0  0  0  0  0
   55.7890   25.5170   46.3230 C   0  0  0  0  0  0  0  0  0  0  0  0
   55.1420   26.7020   45.9980 O   0  0  0  0  0  0  0  0  0  0  0  0
  1  2  2  0
  2  3  1  0
  3  4  1  0
  4  5  1  0
  5  6  2  0
  5  7  1  0
  7  8  1  0
  8  9  1  0
  9 10  1  0
 10 11  1  0
 11 12  1  0
 12 13  2  0
 13 14  1  0
 14 15  2  0
 15 16  1  0
 15 17  1  0
 17 18  2  0
 10 19  1  0
 19 20  1  0
  4 21  2  0
 21 22  1  0
 22 23  2  3
 23 24  1  0
 24 25  1  0
 25 26  1  0
 26 27  2  0
 26 28  1  0
 28 29  1  0
 29 30  1  0
 22  2  1  0
 29 24  2  0
 20  7  1  0
 18 12  1  0
M  CHG  3  25  -1  28  -1  30  -1
M  END
>  <UniqueID>  (2136) 
32

>  <SMILES>  (2136) 
C=c1[nH]c(C(=O)N2CCC(Cc3ccc(F)cc3)CC2)cc1=Cc1[n-]c(=O)[n-]c1[O-]

>  <Energy>  (2136) 
126.14288630931868

>  <Genealogy>  (2136) 
C=c1[nH]c(C(=O)N2CCC(Cc3ccc(F)cc3)CC2)cc1=Cc1[n-]c(=O)[n-]c1[O-] (protonated)
C=c1[nH]c(C(=O)N2CCC(Cc3ccc(F)cc3)CC2)cc1=Cc1[n-]c(=O)[n-]c1[O-] (3D coordinates assigned)
C=c1[nH]c(C(=O)N2CCC(Cc3ccc(F)cc3)CC2)cc1=Cc1[n-]c(=O)[n-]c1[O-] (nonaromatic ring conformer: 126.14288630931868 kcal/mol)

>  <smiles>  (2136) 
C=c1[nH]c(C(=O)N2CCC(Cc3ccc(F)cc3)CC2)cc1=Cc1[nH]c(=O)[nH]c1O

>  <score_type>  (2136) 
oracle

>  <origin>  (2136) 
adg

>  <m_score__min__energy>  (2136) 
-18.27

>  <m_primary>  (2136) 
energy

$$$$
46:0
     RDKit          3D

 27 30  0  0  0  0  0  0  0  0999 V2000
   59.6470   29.6460   45.0660 C   0  0  0  0  0  0  0  0  0  0  0  0
   59.4440   29.2690   46.3380 C   0  0  0  0  0  0  0  0  0  0  0  0
   58.7380   28.1380   46.7740 C   0  0  0  0  0  0  0  0  0  0  0  0
   58.1360   27.2130   45.9970 C   0  0  0  0  0  0  0  0  0  0  0  0
   57.4300   26.0050   46.4800 C   0  0  0  0  0  0  0  0  0  0  0  0
   58.0030   24.9220   47.0350 N   0  0  0  0  0  0  0  0  0  0  0  0
   56.9550   24.1280   47.3400 C   0  0  0  0  0  0  0  0  0  0  0  0
   57.0920   23.0010   47.8820 O   0  0  0  0  0  0  0  0  0  0  0  0
   55.7470   24.6400   47.0220 N   0  0  0  0  0  0  0  0  0  0  0  0
   56.0650   25.8270   46.4830 C   0  0  0  0  0  0  0  0  0  0  0  0
   55.1260   26.7330   46.0050 O   0  0  0  0  0  0  0  0  0  0  0  0
   58.8120   28.1540   48.1640 C   0  0  0  0  0  0  0  0  0  0  0  0
   59.5300   29.2790   48.5130 C   0  0  0  0  0  0  0  0  0  0  0  0
   59.8810   29.6600   49.9200 C   0  0  0  0  0  0  0  0  0  0  0  0
   59.9260   29.9460   47.4080 N   0  0  0  0  0  0  0  0  0  0  0  0
   60.6950   31.1630   47.3890 C   0  0  0  0  0  0  0  0  0  0  0  0
   62.0940   31.0860   47.4390 C   0  0  0  0  0  0  0  0  0  0  0  0
   62.8670   32.2490   47.3890 C   0  0  0  0  0  0  0  0  0  0  0  0
   62.2460   33.4950   47.2930 C   0  0  0  0  0  0  0  0  0  0  0  0
   60.8530   33.5830   47.2470 C   0  0  0  0  0  0  0  0  0  0  0  0
   60.0630   32.4220   47.2850 C   0  0  0  0  0  0  0  0  0  0  0  0
   58.5890   32.5370   47.2730 C   0  0  0  0  0  0  0  0  0  0  0  0
   58.0000   33.0340   48.2700 O   0  0  0  0  0  0  0  0  0  0  0  0
   57.8020   32.0840   46.1650 N   0  0  0  0  0  0  0  0  0  0  0  0
   57.5870   32.8610   44.9510 C   0  0  0  0  0  0  0  0  0  0  0  0
   58.4590   34.0990   44.8510 C   0  0  0  0  0  0  0  0  0  0  0  0
   56.9940   34.2280   45.2380 C   0  0  0  0  0  0  0  0  0  0  0  0
  1  2  2  0
  2  3  1  0
  3  4  2  0
  4  5  1  0
  5  6  1  0
  6  7  1  0
  7  8  2  0
  7  9  1  0
  9 10  1  0
 10 11  1  0
  3 12  1  0
 12 13  2  0
 13 14  1  0
 13 15  1  0
 15 16  1  0
 16 17  2  0
 17 18  1  0
 18 19  2  0
 19 20  1  0
 20 21  2  0
 21 22  1  0
 22 23  2  0
 22 24  1  0
 24 25  1  0
 25 26  1  0
 26 27  1  0
 15  2  1  0
 21 16  1  0
 27 25  1  0
 10  5  2  0
M  CHG  4   6  -1   9  -1  11  -1  24  -1
M  END
>  <UniqueID>  (2137) 
45

>  <SMILES>  (2137) 
C=c1/c(=C/c2[n-]c(=O)[n-]c2[O-])cc(C)n1-c1ccccc1C(=O)[N-]C1CC1

>  <Energy>  (2137) 
382.3823973774836

>  <Genealogy>  (2137) 
C=c1c(=Cc2[n-]c(=O)[n-]c2[O-])cc(C)n1-c1ccccc1C(=O)[N-]C1CC1 (protonated)
C=c1/c(=C/c2[n-]c(=O)[n-]c2[O-])cc(C)n1-c1ccccc1C(=O)[N-]C1CC1 (cis-trans isomerization)
C=c1/c(=C/c2[n-]c(=O)[n-]c2[O-])cc(C)n1-c1ccccc1C(=O)[N-]C1CC1 (3D coordinates assigned)
C=c1/c(=C/c2[n-]c(=O)[n-]c2[O-])cc(C)n1-c1ccccc1C(=O)[N-]C1CC1 (nonaromatic ring conformer: 382.3823973774836 kcal/mol)

>  <smiles>  (2137) 
C=c1c(=Cc2[nH]c(=O)[nH]c2O)cc(C)n1-c1ccccc1C(=O)NC1CC1

>  <score_type>  (2137) 
oracle

>  <origin>  (2137) 
adg

>  <m_score__min__energy>  (2137) 
-16.66

>  <m_primary>  (2137) 
energy

$$$$
55:0
     RDKit          3D

 34 38  0  0  0  0  0  0  0  0999 V2000
   56.4480   31.8230   52.0810 C   0  0  0  0  0  0  0  0  0  0  0  0
   55.7430   30.7130   52.3460 C   0  0  0  0  0  0  0  0  0  0  0  0
   54.3550   30.5960   52.4390 C   0  0  0  0  0  0  0  0  0  0  0  0
   53.4440   31.5540   52.1940 C   0  0  0  0  0  0  0  0  0  0  0  0
   52.4150   31.4640   51.1380 C   0  0  0  0  0  0  0  0  0  0  0  0
   52.4440   30.5300   50.1710 N   0  0  0  0  0  0  0  0  0  0  0  0
   51.3790   30.8370   49.4010 C   0  0  0  0  0  0  0  0  0  0  0  0
   51.0640   30.1680   48.3810 O   0  0  0  0  0  0  0  0  0  0  0  0
   50.6840   31.9210   49.8030 N   0  0  0  0  0  0  0  0  0  0  0  0
   51.3550   32.3150   50.8960 C   0  0  0  0  0  0  0  0  0  0  0  0
   51.0300   33.4540   51.6210 O   0  0  0  0  0  0  0  0  0  0  0  0
   54.0370   29.3280   52.7800 N   0  0  0  0  0  0  0  0  0  0  0  0
   55.2270   28.7080   52.8940 C   0  0  0  0  0  0  0  0  0  0  0  0
   55.3320   27.4890   53.1960 O   0  0  0  0  0  0  0  0  0  0  0  0
   56.2830   29.5060   52.6360 N   0  0  0  0  0  0  0  0  0  0  0  0
   57.6690   29.1180   52.6500 C   0  0  0  0  0  0  0  0  0  0  0  0
   58.1450   28.2420   53.6360 C   0  0  0  0  0  0  0  0  0  0  0  0
   59.4860   27.8510   53.6420 C   0  0  0  0  0  0  0  0  0  0  0  0
   60.3620   28.3310   52.6650 C   0  0  0  0  0  0  0  0  0  0  0  0
   59.9040   29.2130   51.6730 C   0  0  0  0  0  0  0  0  0  0  0  0
   60.8210   29.7090   50.6260 C   0  0  0  0  0  0  0  0  0  0  0  0
   62.0650   29.6950   50.8400 O   0  0  0  0  0  0  0  0  0  0  0  0
   60.3250   30.1990   49.3660 N   0  0  0  0  0  0  0  0  0  0  0  0
   61.0710   31.2470   48.6600 C   0  0  0  0  0  0  0  0  0  0  0  0
   60.1170   32.1210   47.8360 C   0  0  0  0  0  0  0  0  0  0  0  0
   59.1550   31.3150   47.0650 N   0  0  0  0  0  0  0  0  0  0  0  0
   58.2190   31.9630   46.1720 C   0  0  0  0  0  0  0  0  0  0  0  0
   57.3580   31.2800   45.5530 O   0  0  0  0  0  0  0  0  0  0  0  0
   58.2130   33.4600   46.0060 C   0  0  0  0  0  0  0  0  0  0  0  0
   58.4120   33.9310   44.5740 C   0  0  0  0  0  0  0  0  0  0  0  0
   57.0430   34.0340   45.2180 C   0  0  0  0  0  0  0  0  0  0  0  0
   59.1760   29.8500   47.1920 C   0  0  0  0  0  0  0  0  0  0  0  0
   59.2660   29.4520   48.6670 C   0  0  0  0  0  0  0  0  0  0  0  0
   58.5500   29.5880   51.6610 C   0  0  0  0  0  0  0  0  0  0  0  0
  1  2  2  0
  2  3  1  0
  3  4  2  0
  4  5  1  0
  5  6  1  0
  6  7  1  0
  7  8  2  0
  7  9  1  0
  9 10  1  0
 10 11  1  0
  3 12  1  0
 12 13  1  0
 13 14  2  0
 13 15  1  0
 15 16  1  0
 16 17  2  0
 17 18  1  0
 18 19  2  0
 19 20  1  0
 20 21  1  0
 21 22  2  0
 21 23  1  0
 23 24  1  0
 24 25  1  0
 25 26  1  0
 26 27  1  0
 27 28  2  0
 27 29  1  0
 29 30  1  0
 30 31  1  0
 26 32  1  0
 32 33  1  0
 20 34  2  0
 15  2  1  0
 34 16  1  0
 10  5  2  0
 33 23  1  0
 31 29  1  0
M  CHG  4   6  -1   9  -1  11  -1  12  -1
M  END
>  <UniqueID>  (2138) 
54

>  <SMILES>  (2138) 
C=c1/c(=C/c2[n-]c(=O)[n-]c2[O-])[n-]c(=O)n1-c1cccc(C(=O)N2CCN(C(=O)C3CC3)CC2)c1

>  <Energy>  (2138) 
401.2482049847653

>  <Genealogy>  (2138) 
C=c1c(=Cc2[n-]c(=O)[n-]c2[O-])[n-]c(=O)n1-c1cccc(C(=O)N2CCN(C(=O)C3CC3)CC2)c1 (protonated)
C=c1/c(=C/c2[n-]c(=O)[n-]c2[O-])[n-]c(=O)n1-c1cccc(C(=O)N2CCN(C(=O)C3CC3)CC2)c1 (cis-trans isomerization)
C=c1/c(=C/c2[n-]c(=O)[n-]c2[O-])[n-]c(=O)n1-c1cccc(C(=O)N2CCN(C(=O)C3CC3)CC2)c1 (3D coordinates assigned)
C=c1/c(=C/c2[n-]c(=O)[n-]c2[O-])[n-]c(=O)n1-c1cccc(C(=O)N2CCN(C(=O)C3CC3)CC2)c1 (nonaromatic ring conformer: 401.2482049847653 kcal/mol)

>  <smiles>  (2138) 
C=c1c(=Cc2[nH]c(=O)[nH]c2O)[nH]c(=O)n1-c1cccc(C(=O)N2CCN(C(=O)C3CC3)CC2)c1

>  <score_type>  (2138) 
oracle

>  <origin>  (2138) 
adg

>  <m_score__min__energy>  (2138) 
-19.300000000000001

>  <m_primary>  (2138) 
energy

$$$$
60:0
     RDKit          3D

 25 26  0  0  0  0  0  0  0  0999 V2000
   54.9300   21.9040   48.0480 C   0  0  0  0  0  0  0  0  0  0  0  0
   55.9000   22.9600   47.6270 C   0  0  0  0  0  0  0  0  0  0  0  0
   56.9980   23.0710   48.2370 O   0  0  0  0  0  0  0  0  0  0  0  0
   55.6140   23.7790   46.4840 N   0  0  0  0  0  0  0  0  0  0  0  0
   56.4410   24.8830   46.0780 C   0  0  0  0  0  0  0  0  0  0  0  0
   55.8690   26.1430   45.8490 C   0  0  0  0  0  0  0  0  0  0  0  0
   54.5000   26.3310   45.9860 O   0  0  0  0  0  0  0  0  0  0  0  0
   56.6540   27.1870   45.4790 N   0  0  0  0  0  0  0  0  0  0  0  0
   57.9960   27.0390   45.3320 C   0  0  0  0  0  0  0  0  0  0  0  0
   59.0000   28.4330   44.8290 S   0  0  0  0  0  0  0  0  0  0  0  0
   57.5810   29.4680   44.3330 C   0  0  0  0  0  0  0  0  0  0  0  0
   57.3910   30.5960   45.2940 C   0  0  0  0  0  0  0  0  0  0  0  0
   57.8500   30.5060   46.4650 O   0  0  0  0  0  0  0  0  0  0  0  0
   56.7180   31.7840   44.8680 N   0  0  0  0  0  0  0  0  0  0  0  0
   57.4050   33.0320   44.5550 C   0  0  0  0  0  0  0  0  0  0  0  0
   58.3690   33.3880   45.6550 C   0  0  0  0  0  0  0  0  0  0  0  0
   57.9870   33.2820   47.0020 C   0  0  0  0  0  0  0  0  0  0  0  0
   58.8810   33.6340   48.0180 C   0  0  0  0  0  0  0  0  0  0  0  0
   60.1610   34.1130   47.7000 C   0  0  0  0  0  0  0  0  0  0  0  0
   61.1320   34.4540   48.7910 C   0  0  0  0  0  0  0  0  0  0  0  0
   60.5470   34.2060   46.3540 C   0  0  0  0  0  0  0  0  0  0  0  0
   59.6540   33.8540   45.3390 C   0  0  0  0  0  0  0  0  0  0  0  0
   58.5770   25.8370   45.5770 N   0  0  0  0  0  0  0  0  0  0  0  0
   57.8360   24.7610   45.9530 C   0  0  0  0  0  0  0  0  0  0  0  0
   58.4160   23.6740   46.2090 O   0  0  0  0  0  0  0  0  0  0  0  0
  1  2  1  0
  2  3  2  0
  2  4  1  0
  4  5  1  0
  5  6  2  0
  6  7  1  0
  6  8  1  0
  8  9  1  0
  9 10  1  0
 10 11  1  0
 11 12  1  0
 12 13  2  0
 12 14  1  0
 14 15  1  0
 15 16  1  0
 16 17  2  0
 17 18  1  0
 18 19  2  0
 19 20  1  0
 19 21  1  0
 21 22  2  0
  9 23  2  0
 23 24  1  0
 24 25  2  0
 24  5  1  0
 22 16  1  0
M  CHG  3   7  -1   8  -1  14  -1
M  END
>  <UniqueID>  (2139) 
59

>  <SMILES>  (2139) 
CC(=O)Nc1c([O-])[n-]c(SCC(=O)[N-]Cc2ccc(C)cc2)nc1=O

>  <Energy>  (2139) 
36.71529575240135

>  <Genealogy>  (2139) 
CC(=O)Nc1c([O-])[n-]c(SCC(=O)[N-]Cc2ccc(C)cc2)nc1=O (protonated)
CC(=O)Nc1c([O-])[n-]c(SCC(=O)[N-]Cc2ccc(C)cc2)nc1=O (3D coordinates assigned)
CC(=O)Nc1c([O-])[n-]c(SCC(=O)[N-]Cc2ccc(C)cc2)nc1=O (optimized conformer: 36.71529575240135 kcal/mol)

>  <smiles>  (2139) 
CC(=O)Nc1c(O)[nH]c(SCC(=O)NCc2ccc(C)cc2)nc1=O

>  <score_type>  (2139) 
oracle

>  <origin>  (2139) 
adg

>  <m_score__min__energy>  (2139) 
-15.48

>  <m_primary>  (2139) 
energy

$$$$
64:0
     RDKit          3D

 24 25  0  0  0  0  0  0  0  0999 V2000
   54.8930   29.3390   44.1830 O   0  0  0  0  0  0  0  0  0  0  0  0
   56.0250   29.7160   44.5850 C   0  0  0  0  0  0  0  0  0  0  0  0
   57.0970   28.7170   44.7500 C   0  0  0  0  0  0  0  0  0  0  0  0
   57.5150   28.2220   45.9250 C   0  0  0  0  0  0  0  0  0  0  0  0
   57.4420   26.7960   46.3250 C   0  0  0  0  0  0  0  0  0  0  0  0
   58.5830   26.0990   46.7510 C   0  0  0  0  0  0  0  0  0  0  0  0
   58.4820   24.8060   47.1510 N   0  0  0  0  0  0  0  0  0  0  0  0
   57.2830   24.1710   47.1660 C   0  0  0  0  0  0  0  0  0  0  0  0
   57.2110   22.9710   47.5350 O   0  0  0  0  0  0  0  0  0  0  0  0
   56.1580   24.8320   46.7880 N   0  0  0  0  0  0  0  0  0  0  0  0
   56.2090   26.1270   46.3780 C   0  0  0  0  0  0  0  0  0  0  0  0
   55.1450   26.7100   46.0400 O   0  0  0  0  0  0  0  0  0  0  0  0
   56.2770   31.1050   44.8190 N   0  0  0  0  0  0  0  0  0  0  0  0
   57.8320   31.8260   44.5900 S   0  0  0  0  0  0  0  0  0  0  0  0
   58.7950   31.2110   45.5650 O   0  0  0  0  0  0  0  0  0  0  0  0
   58.3110   31.5600   43.1900 O   0  0  0  0  0  0  0  0  0  0  0  0
   57.7080   33.5850   44.8950 C   0  0  0  0  0  0  0  0  0  0  0  0
   59.0770   34.2760   44.9110 C   0  0  0  0  0  0  0  0  0  0  0  0
   59.7520   34.1700   46.2550 C   0  0  0  0  0  0  0  0  0  0  0  0
   59.0190   34.3850   47.4340 C   0  0  0  0  0  0  0  0  0  0  0  0
   59.6390   34.2710   48.6810 C   0  0  0  0  0  0  0  0  0  0  0  0
   60.9950   33.9410   48.7610 C   0  0  0  0  0  0  0  0  0  0  0  0
   61.7310   33.7210   47.5940 C   0  0  0  0  0  0  0  0  0  0  0  0
   61.1150   33.8350   46.3440 C   0  0  0  0  0  0  0  0  0  0  0  0
  1  2  2  0
  2  3  1  0
  3  4  2  3
  4  5  1  0
  5  6  2  0
  6  7  1  0
  7  8  1  0
  8  9  2  0
  8 10  1  0
 10 11  1  0
 11 12  2  0
  2 13  1  0
 13 14  1  0
 14 15  2  0
 14 16  2  0
 14 17  1  0
 17 18  1  0
 18 19  1  0
 19 20  2  0
 20 21  1  0
 21 22  2  0
 22 23  1  0
 23 24  2  0
 11  5  1  0
 24 19  1  0
M  CHG  3   7  -1  10  -1  13  -1
M  END
>  <UniqueID>  (2140) 
63

>  <SMILES>  (2140) 
O=C(C=Cc1c[n-]c(=O)[n-]c1=O)[N-]S(=O)(=O)CCc1ccccc1

>  <Energy>  (2140) 
40.65382784228879

>  <Genealogy>  (2140) 
O=C(C=Cc1c[n-]c(=O)[n-]c1=O)[N-]S(=O)(=O)CCc1ccccc1 (protonated)
O=C(C=Cc1c[n-]c(=O)[n-]c1=O)[N-]S(=O)(=O)CCc1ccccc1 (3D coordinates assigned)
O=C(C=Cc1c[n-]c(=O)[n-]c1=O)[N-]S(=O)(=O)CCc1ccccc1 (optimized conformer: 40.65382784228879 kcal/mol)

>  <smiles>  (2140) 
O=C(C=Cc1c[nH]c(=O)[nH]c1=O)NS(=O)(=O)CCc1ccccc1

>  <score_type>  (2140) 
oracle

>  <origin>  (2140) 
adg

>  <m_score__min__energy>  (2140) 
-14.07

>  <m_primary>  (2140) 
energy

$$$$
81:0
     RDKit          3D

 36 39  0  0  0  0  0  0  0  0999 V2000
   57.9020   27.2200   42.8700 C   0  0  0  0  0  0  0  0  0  0  0  0
   58.0600   27.0700   44.1940 C   0  0  0  0  0  0  0  0  0  0  0  0
   57.6690   25.9730   44.9660 C   0  0  0  0  0  0  0  0  0  0  0  0
   57.0430   24.8580   44.5310 C   0  0  0  0  0  0  0  0  0  0  0  0
   55.6520   24.5060   44.8660 C   0  0  0  0  0  0  0  0  0  0  0  0
   54.8410   25.3950   45.5860 C   0  0  0  0  0  0  0  0  0  0  0  0
   55.3270   26.6430   45.9680 O   0  0  0  0  0  0  0  0  0  0  0  0
   53.5700   25.0370   45.9120 N   0  0  0  0  0  0  0  0  0  0  0  0
   53.0730   23.8240   45.5600 C   0  0  0  0  0  0  0  0  0  0  0  0
   51.5420   23.4230   45.9630 S   0  0  0  0  0  0  0  0  0  0  0  0
   53.8480   22.9400   44.8810 N   0  0  0  0  0  0  0  0  0  0  0  0
   55.1240   23.2490   44.5330 C   0  0  0  0  0  0  0  0  0  0  0  0
   55.8200   22.4040   43.9080 O   0  0  0  0  0  0  0  0  0  0  0  0
   58.0710   26.3130   46.2630 C   0  0  0  0  0  0  0  0  0  0  0  0
   57.9070   25.5260   47.5250 C   0  0  0  0  0  0  0  0  0  0  0  0
   58.6590   27.5240   46.2490 N   0  0  0  0  0  0  0  0  0  0  0  0
   58.6540   27.9790   45.0070 N   0  0  0  0  0  0  0  0  0  0  0  0
   59.2050   29.2890   44.6500 C   0  0  0  0  0  0  0  0  0  0  0  0
   58.1100   30.3200   44.5560 C   0  0  0  0  0  0  0  0  0  0  0  0
   57.1250   30.0820   43.8080 O   0  0  0  0  0  0  0  0  0  0  0  0
   58.1630   31.5640   45.2900 N   0  0  0  0  0  0  0  0  0  0  0  0
   57.3140   32.6890   44.8640 C   0  0  0  0  0  0  0  0  0  0  0  0
   58.0190   34.0170   45.1500 C   0  0  0  0  0  0  0  0  0  0  0  0
   58.3560   34.1850   46.6510 C   0  0  0  0  0  0  0  0  0  0  0  0
   59.5790   35.0700   46.8000 C   0  0  0  0  0  0  0  0  0  0  0  0
   59.7370   36.0540   46.0280 O   0  0  0  0  0  0  0  0  0  0  0  0
   60.4750   34.9270   47.9100 N   0  0  0  0  0  0  0  0  0  0  0  0
   61.5690   34.0040   47.9920 C   0  0  0  0  0  0  0  0  0  0  0  0
   62.4390   33.8360   46.9030 C   0  0  0  0  0  0  0  0  0  0  0  0
   63.5250   32.9610   46.9950 C   0  0  0  0  0  0  0  0  0  0  0  0
   63.7590   32.2610   48.1790 C   0  0  0  0  0  0  0  0  0  0  0  0
   62.9150   32.4390   49.2780 C   0  0  0  0  0  0  0  0  0  0  0  0
   61.8230   33.3200   49.1990 C   0  0  0  0  0  0  0  0  0  0  0  0
   60.9100   33.4970   50.3820 C   0  0  0  0  0  0  0  0  0  0  0  0
   58.5150   32.8320   47.3920 C   0  0  0  0  0  0  0  0  0  0  0  0
   59.0240   31.7120   46.4750 C   0  0  0  0  0  0  0  0  0  0  0  0
  1  2  2  0
  2  3  1  0
  3  4  2  3
  4  5  1  0
  5  6  2  0
  6  7  1  0
  6  8  1  0
  8  9  1  0
  9 10  2  0
  9 11  1  0
 11 12  1  0
 12 13  2  0
  3 14  1  0
 14 15  1  0
 14 16  2  0
 16 17  1  0
 17 18  1  0
 18 19  1  0
 19 20  2  0
 19 21  1  0
 21 22  1  0
 22 23  1  0
 23 24  1  0
 24 25  1  0
 25 26  2  0
 25 27  1  0
 27 28  1  0
 28 29  2  0
 29 30  1  0
 30 31  2  0
 31 32  1  0
 32 33  2  0
 33 34  1  0
 24 35  1  0
 35 36  1  0
 17  2  1  0
 36 21  1  0
 12  5  1  0
 33 28  1  0
M  CHG  3   8  -1  11  -1  27  -1
M  END
>  <UniqueID>  (2141) 
78

>  <SMILES>  (2141) 
C=c1c(=Cc2c(O)[n-]c(=S)[n-]c2=O)c(C)nn1CC(=O)N1CCC(C(=O)[N-]c2ccccc2C)CC1

>  <Energy>  (2141) 
116.30135421106148

>  <Genealogy>  (2141) 
C=c1c(=Cc2c(O)[n-]c(=S)[n-]c2=O)c(C)nn1CC(=O)N1CCC(C(=O)[N-]c2ccccc2C)CC1 (protonated)
C=c1c(=Cc2c(O)[n-]c(=S)[n-]c2=O)c(C)nn1CC(=O)N1CCC(C(=O)[N-]c2ccccc2C)CC1 (3D coordinates assigned)
C=c1c(=Cc2c(O)[n-]c(=S)[n-]c2=O)c(C)nn1CC(=O)N1CCC(C(=O)[N-]c2ccccc2C)CC1 (nonaromatic ring conformer: 116.30135421106148 kcal/mol)

>  <smiles>  (2141) 
C=c1c(=Cc2c(O)[nH]c(=S)[nH]c2=O)c(C)nn1CC(=O)N1CCC(C(=O)Nc2ccccc2C)CC1

>  <score_type>  (2141) 
oracle

>  <origin>  (2141) 
adg

>  <m_score__min__energy>  (2141) 
-16.309999999999999

>  <m_primary>  (2141) 
energy

$$$$
10:0
     RDKit          3D

 31 34  0  0  0  0  0  0  0  0999 V2000
   55.1530   26.5840   46.1340 O   0  0  0  0  0  0  0  0  0  0  0  0
   56.1350   25.6330   46.3960 C   0  0  0  0  0  0  0  0  0  0  0  0
   55.9410   24.5740   47.1990 N   0  0  0  0  0  0  0  0  0  0  0  0
   57.1170   23.9160   47.1160 C   0  0  0  0  0  0  0  0  0  0  0  0
   57.3380   22.8420   47.7340 O   0  0  0  0  0  0  0  0  0  0  0  0
   58.0340   24.4930   46.3100 N   0  0  0  0  0  0  0  0  0  0  0  0
   57.4130   25.6020   45.8760 C   0  0  0  0  0  0  0  0  0  0  0  0
   57.9930   26.5200   44.8850 C   0  0  0  0  0  0  0  0  0  0  0  0
   57.9310   27.8670   44.9230 C   0  0  0  0  0  0  0  0  0  0  0  0
   57.6860   28.6290   43.7970 C   0  0  0  0  0  0  0  0  0  0  0  0
   57.6070   29.9410   44.2090 C   0  0  0  0  0  0  0  0  0  0  0  0
   57.3800   31.0970   43.2810 C   0  0  0  0  0  0  0  0  0  0  0  0
   57.8340   30.0380   45.5410 N   0  0  0  0  0  0  0  0  0  0  0  0
   57.8860   31.3000   46.3010 C   0  0  0  0  0  0  0  0  0  0  0  0
   59.3060   31.6440   46.6740 C   0  0  0  0  0  0  0  0  0  0  0  0
   59.6230   32.9230   47.1570 C   0  0  0  0  0  0  0  0  0  0  0  0
   60.9400   33.2460   47.4950 C   0  0  0  0  0  0  0  0  0  0  0  0
   61.9610   32.2890   47.3700 C   0  0  0  0  0  0  0  0  0  0  0  0
   63.3570   32.6270   47.7210 C   0  0  0  0  0  0  0  0  0  0  0  0
   64.1340   33.0420   46.8190 O   0  0  0  0  0  0  0  0  0  0  0  0
   63.8510   32.4850   49.0670 N   0  0  0  0  0  0  0  0  0  0  0  0
   63.4810   31.3020   49.8610 C   0  0  0  0  0  0  0  0  0  0  0  0
   64.5560   30.9830   50.9060 C   0  0  0  0  0  0  0  0  0  0  0  0
   64.8360   32.1960   51.8220 C   0  0  0  0  0  0  0  0  0  0  0  0
   66.1610   31.9980   52.5690 C   0  0  0  0  0  0  0  0  0  0  0  0
   64.8160   33.5510   51.0630 C   0  0  0  0  0  0  0  0  0  0  0  0
   64.9100   33.3850   49.5420 C   0  0  0  0  0  0  0  0  0  0  0  0
   61.6460   31.0160   46.8720 C   0  0  0  0  0  0  0  0  0  0  0  0
   60.3280   30.6940   46.5320 C   0  0  0  0  0  0  0  0  0  0  0  0
   58.0620   28.7720   45.9920 C   0  0  0  0  0  0  0  0  0  0  0  0
   58.4550   28.4810   47.2440 C   0  0  0  0  0  0  0  0  0  0  0  0
  1  2  1  0
  2  3  1  0
  3  4  1  0
  4  5  2  0
  4  6  1  0
  6  7  1  0
  7  8  1  0
  8  9  2  0
  9 10  1  0
 10 11  2  0
 11 12  1  0
 11 13  1  0
 13 14  1  0
 14 15  1  0
 15 16  2  0
 16 17  1  0
 17 18  2  0
 18 19  1  0
 19 20  2  0
 19 21  1  0
 21 22  1  0
 22 23  1  0
 23 24  1  0
 24 25  1  0
 24 26  1  0
 26 27  1  0
 18 28  1  0
 28 29  2  0
 13 30  1  0
 30 31  2  0
  7  2  2  0
 30  9  1  0
 29 15  1  0
 27 21  1  0
M  CHG  2   3  -1   6  -1
M  END
>  <UniqueID>  (2142) 
11

>  <SMILES>  (2142) 
C=c1/c(=C\c2[n-]c(=O)[n-]c2O)cc(C)n1Cc1ccc(C(=O)N2CCC(C)CC2)cc1

>  <Energy>  (2142) 
133.21345397439782

>  <Genealogy>  (2142) 
C=c1c(=Cc2[n-]c(=O)[n-]c2O)cc(C)n1Cc1ccc(C(=O)N2CCC(C)CC2)cc1 (protonated)
C=c1/c(=C\c2[n-]c(=O)[n-]c2O)cc(C)n1Cc1ccc(C(=O)N2CCC(C)CC2)cc1 (cis-trans isomerization)
C=c1/c(=C\c2[n-]c(=O)[n-]c2O)cc(C)n1Cc1ccc(C(=O)N2CCC(C)CC2)cc1 (3D coordinates assigned)
C=c1/c(=C\c2[n-]c(=O)[n-]c2O)cc(C)n1Cc1ccc(C(=O)N2CCC(C)CC2)cc1 (nonaromatic ring conformer: 133.21345397439782 kcal/mol)

>  <smiles>  (2142) 
C=c1c(=Cc2[nH]c(=O)[nH]c2O)cc(C)n1Cc1ccc(C(=O)N2CCC(C)CC2)cc1

>  <score_type>  (2142) 
oracle

>  <origin>  (2142) 
adg

>  <m_score__min__energy>  (2142) 
-14.550000000000001

>  <m_primary>  (2142) 
energy

$$$$
17:0
     RDKit          3D

 31 33  0  0  0  0  0  0  0  0999 V2000
   56.8300   22.5900   49.0550 C   0  0  0  0  0  0  0  0  0  0  0  0
   56.8950   23.0060   47.6600 N   0  0  0  0  0  0  0  0  0  0  0  0
   56.1850   24.1230   47.1090 C   0  0  0  0  0  0  0  0  0  0  0  0
   54.9390   24.0350   46.9580 O   0  0  0  0  0  0  0  0  0  0  0  0
   56.8660   25.3820   46.7410 C   0  0  0  0  0  0  0  0  0  0  0  0
   58.2530   25.5080   46.9170 C   0  0  0  0  0  0  0  0  0  0  0  0
   58.9050   26.6890   46.5570 C   0  0  0  0  0  0  0  0  0  0  0  0
   58.1840   27.7490   46.0070 C   0  0  0  0  0  0  0  0  0  0  0  0
   56.7970   27.6350   45.8060 C   0  0  0  0  0  0  0  0  0  0  0  0
   56.0240   28.7020   45.2380 N   0  0  0  0  0  0  0  0  0  0  0  0
   56.6040   29.8540   44.0800 S   0  0  0  0  0  0  0  0  0  0  0  0
   55.4480   30.4720   43.3440 O   0  0  0  0  0  0  0  0  0  0  0  0
   57.5140   29.1640   43.1030 O   0  0  0  0  0  0  0  0  0  0  0  0
   57.4800   31.1190   44.9330 C   0  0  0  0  0  0  0  0  0  0  0  0
   56.9880   32.4290   44.9180 C   0  0  0  0  0  0  0  0  0  0  0  0
   57.6730   33.4430   45.5880 C   0  0  0  0  0  0  0  0  0  0  0  0
   58.8560   33.1650   46.2810 C   0  0  0  0  0  0  0  0  0  0  0  0
   59.7390   34.6190   47.1680 Br  0  0  0  0  0  0  0  0  0  0  0  0
   59.3600   31.8470   46.3050 C   0  0  0  0  0  0  0  0  0  0  0  0
   60.8580   31.4560   47.1600 S   0  0  0  0  0  0  0  0  0  0  0  0
   61.3600   30.1290   46.6640 O   0  0  0  0  0  0  0  0  0  0  0  0
   61.9010   32.5000   46.8720 O   0  0  0  0  0  0  0  0  0  0  0  0
   60.5330   31.3820   48.8800 N   0  0  0  0  0  0  0  0  0  0  0  0
   59.1370   30.9990   49.1540 C   0  0  0  0  0  0  0  0  0  0  0  0
   58.8800   29.4940   48.9040 C   0  0  0  0  0  0  0  0  0  0  0  0
   60.0640   28.7150   48.8610 O   0  0  0  0  0  0  0  0  0  0  0  0
   60.9480   29.1140   49.8820 C   0  0  0  0  0  0  0  0  0  0  0  0
   61.5040   30.5190   49.5880 C   0  0  0  0  0  0  0  0  0  0  0  0
   58.6650   30.8330   45.6250 C   0  0  0  0  0  0  0  0  0  0  0  0
   56.1440   26.4470   46.1710 C   0  0  0  0  0  0  0  0  0  0  0  0
   54.7690   26.3350   45.9790 O   0  0  0  0  0  0  0  0  0  0  0  0
  1  2  1  0
  2  3  1  0
  3  4  2  0
  3  5  1  0
  5  6  2  0
  6  7  1  0
  7  8  2  0
  8  9  1  0
  9 10  1  0
 10 11  1  0
 11 12  2  0
 11 13  2  0
 11 14  1  0
 14 15  2  0
 15 16  1  0
 16 17  2  0
 17 18  1  0
 17 19  1  0
 19 20  1  0
 20 21  2  0
 20 22  2  0
 20 23  1  0
 23 24  1  0
 24 25  1  0
 25 26  1  0
 26 27  1  0
 27 28  1  0
 19 29  2  0
  9 30  2  0
 30 31  1  0
 30  5  1  0
 29 14  1  0
 28 23  1  0
M  CHG  3   2  -1  10  -1  31  -1
M  END
>  <UniqueID>  (2143) 
18

>  <SMILES>  (2143) 
C[N-]C(=O)c1cccc([N-]S(=O)(=O)c2ccc(Br)c(S(=O)(=O)N3CCOCC3)c2)c1[O-]

>  <Energy>  (2143) 
70.49341816820562

>  <Genealogy>  (2143) 
C[N-]C(=O)c1cccc([N-]S(=O)(=O)c2ccc(Br)c(S(=O)(=O)N3CCOCC3)c2)c1[O-] (protonated)
C[N-]C(=O)c1cccc([N-]S(=O)(=O)c2ccc(Br)c(S(=O)(=O)N3CCOCC3)c2)c1[O-] (3D coordinates assigned)
C[N-]C(=O)c1cccc([N-]S(=O)(=O)c2ccc(Br)c(S(=O)(=O)N3CCOCC3)c2)c1[O-] (nonaromatic ring conformer: 70.49341816820562 kcal/mol)

>  <smiles>  (2143) 
CNC(=O)c1cccc(NS(=O)(=O)c2ccc(Br)c(S(=O)(=O)N3CCOCC3)c2)c1O

>  <score_type>  (2143) 
oracle

>  <origin>  (2143) 
adg

>  <m_score__min__energy>  (2143) 
-17.16

>  <m_primary>  (2143) 
energy

$$$$
27:0
     RDKit          3D

 27 29  0  0  0  0  0  0  0  0999 V2000
   58.6540   28.4250   47.8000 O   0  0  0  0  0  0  0  0  0  0  0  0
   58.0730   27.8990   46.8140 C   0  0  0  0  0  0  0  0  0  0  0  0
   58.3790   28.3860   45.4270 C   0  0  0  0  0  0  0  0  0  0  0  0
   57.9510   29.7890   45.2780 N   0  0  0  0  0  0  0  0  0  0  0  0
   58.8220   30.8070   45.5720 C   0  0  0  0  0  0  0  0  0  0  0  0
   60.1200   30.5180   45.9880 O   0  0  0  0  0  0  0  0  0  0  0  0
   58.4170   32.1500   45.4570 C   0  0  0  0  0  0  0  0  0  0  0  0
   59.3580   33.2810   45.8130 C   0  0  0  0  0  0  0  0  0  0  0  0
   59.5310   33.3750   47.3070 C   0  0  0  0  0  0  0  0  0  0  0  0
   58.6860   32.6510   48.1650 C   0  0  0  0  0  0  0  0  0  0  0  0
   58.8670   32.7140   49.5510 C   0  0  0  0  0  0  0  0  0  0  0  0
   59.8930   33.4940   50.0880 C   0  0  0  0  0  0  0  0  0  0  0  0
   60.7400   34.2140   49.2420 C   0  0  0  0  0  0  0  0  0  0  0  0
   60.5630   34.1550   47.8570 C   0  0  0  0  0  0  0  0  0  0  0  0
   57.0960   32.4040   45.0570 C   0  0  0  0  0  0  0  0  0  0  0  0
   56.6720   33.5840   44.9380 O   0  0  0  0  0  0  0  0  0  0  0  0
   56.2600   31.3720   44.7930 N   0  0  0  0  0  0  0  0  0  0  0  0
   56.6650   30.0820   44.9030 C   0  0  0  0  0  0  0  0  0  0  0  0
   55.8370   29.1630   44.6580 O   0  0  0  0  0  0  0  0  0  0  0  0
   57.0140   26.9620   47.0420 N   0  0  0  0  0  0  0  0  0  0  0  0
   56.7750   25.8520   46.3980 C   0  0  0  0  0  0  0  0  0  0  0  0
   57.8210   25.0080   46.1800 N   0  0  0  0  0  0  0  0  0  0  0  0
   57.6840   23.8230   45.5300 C   0  0  0  0  0  0  0  0  0  0  0  0
   56.4350   23.4300   45.0540 C   0  0  0  0  0  0  0  0  0  0  0  0
   55.3420   24.2730   45.2360 C   0  0  0  0  0  0  0  0  0  0  0  0
   55.4960   25.4970   45.8950 C   0  0  0  0  0  0  0  0  0  0  0  0
   54.3960   26.3390   45.9960 O   0  0  0  0  0  0  0  0  0  0  0  0
  1  2  2  0
  2  3  1  0
  3  4  1  0
  4  5  1  0
  5  6  1  0
  5  7  2  0
  7  8  1  0
  8  9  1  0
  9 10  2  0
 10 11  1  0
 11 12  2  0
 12 13  1  0
 13 14  2  0
  7 15  1  0
 15 16  2  0
 15 17  1  0
 17 18  1  0
 18 19  2  0
  2 20  1  0
 20 21  2  3
 21 22  1  0
 22 23  1  0
 23 24  2  0
 24 25  1  0
 25 26  2  0
 26 27  1  0
 18  4  1  0
 26 21  1  0
 14  9  1  0
M  CHG  4   6  -1  17  -1  22  -1  27  -1
M  END
>  <UniqueID>  (2144) 
26

>  <SMILES>  (2144) 
O=C(Cn1c([O-])c(Cc2ccccc2)c(=O)[n-]c1=O)N=c1[n-]cccc1[O-]

>  <Energy>  (2144) 
58.97317691397178

>  <Genealogy>  (2144) 
O=C(Cn1c([O-])c(Cc2ccccc2)c(=O)[n-]c1=O)N=c1[n-]cccc1[O-] (protonated)
O=C(Cn1c([O-])c(Cc2ccccc2)c(=O)[n-]c1=O)N=c1[n-]cccc1[O-] (3D coordinates assigned)
O=C(Cn1c([O-])c(Cc2ccccc2)c(=O)[n-]c1=O)N=c1[n-]cccc1[O-] (optimized conformer: 58.97317691397178 kcal/mol)

>  <smiles>  (2144) 
O=C(Cn1c(O)c(Cc2ccccc2)c(=O)[nH]c1=O)N=c1[nH]cccc1O

>  <score_type>  (2144) 
oracle

>  <origin>  (2144) 
adg

>  <m_score__min__energy>  (2144) 
-16.5

>  <m_primary>  (2144) 
energy

$$$$
31:0
     RDKit          3D

 23 24  0  0  0  0  0  0  0  0999 V2000
   61.1520   34.1390   46.3710 C   0  0  0  0  0  0  0  0  0  0  0  0
   59.9540   34.9270   45.9670 C   0  0  0  0  0  0  0  0  0  0  0  0
   59.6060   35.9240   46.6540 O   0  0  0  0  0  0  0  0  0  0  0  0
   59.1710   34.4810   44.8930 O   0  0  0  0  0  0  0  0  0  0  0  0
   58.5620   33.2200   44.8020 C   0  0  0  0  0  0  0  0  0  0  0  0
   57.9900   32.7480   43.6100 C   0  0  0  0  0  0  0  0  0  0  0  0
   57.3990   31.4830   43.5640 C   0  0  0  0  0  0  0  0  0  0  0  0
   57.3700   30.6620   44.7040 C   0  0  0  0  0  0  0  0  0  0  0  0
   56.7030   29.3390   44.6150 C   0  0  0  0  0  0  0  0  0  0  0  0
   55.4560   29.2720   44.7870 O   0  0  0  0  0  0  0  0  0  0  0  0
   57.4610   28.0600   44.3650 C   0  0  0  0  0  0  0  0  0  0  0  0
   57.9290   27.4340   45.6490 C   0  0  0  0  0  0  0  0  0  0  0  0
   58.8020   28.0290   46.3360 O   0  0  0  0  0  0  0  0  0  0  0  0
   57.3760   26.1480   46.1220 C   0  0  0  0  0  0  0  0  0  0  0  0
   58.2800   24.7930   46.5700 S   0  0  0  0  0  0  0  0  0  0  0  0
   56.9130   23.8860   46.9290 C   0  0  0  0  0  0  0  0  0  0  0  0
   56.9370   22.6990   47.3430 O   0  0  0  0  0  0  0  0  0  0  0  0
   55.7680   24.5710   46.7230 N   0  0  0  0  0  0  0  0  0  0  0  0
   56.0240   25.8280   46.2750 C   0  0  0  0  0  0  0  0  0  0  0  0
   54.9960   26.7180   45.9910 O   0  0  0  0  0  0  0  0  0  0  0  0
   57.9820   31.1190   45.8910 C   0  0  0  0  0  0  0  0  0  0  0  0
   58.0330   30.3090   47.0240 O   0  0  0  0  0  0  0  0  0  0  0  0
   58.5690   32.3930   45.9280 C   0  0  0  0  0  0  0  0  0  0  0  0
  1  2  1  0
  2  3  2  0
  2  4  1  0
  4  5  1  0
  5  6  2  0
  6  7  1  0
  7  8  2  0
  8  9  1  0
  9 10  2  0
  9 11  1  0
 11 12  1  0
 12 13  2  0
 12 14  1  0
 14 15  1  0
 15 16  1  0
 16 17  2  0
 16 18  1  0
 18 19  1  0
 19 20  1  0
  8 21  1  0
 21 22  1  0
 21 23  2  0
 23  5  1  0
 19 14  2  0
M  CHG  2  18  -1  20  -1
M  END
>  <UniqueID>  (2145) 
30

>  <SMILES>  (2145) 
CC(=O)Oc1ccc(C(=O)CC(=O)c2sc(=O)[n-]c2[O-])c(O)c1

>  <Energy>  (2145) 
69.18748421777781

>  <Genealogy>  (2145) 
CC(=O)Oc1ccc(C(=O)CC(=O)c2sc(=O)[n-]c2[O-])c(O)c1 (protonated)
CC(=O)Oc1ccc(C(=O)CC(=O)c2sc(=O)[n-]c2[O-])c(O)c1 (3D coordinates assigned)
CC(=O)Oc1ccc(C(=O)CC(=O)c2sc(=O)[n-]c2[O-])c(O)c1 (optimized conformer: 69.18748421777781 kcal/mol)

>  <smiles>  (2145) 
CC(=O)Oc1ccc(C(=O)CC(=O)c2sc(=O)[nH]c2O)c(O)c1

>  <score_type>  (2145) 
oracle

>  <origin>  (2145) 
adg

>  <m_score__min__energy>  (2145) 
-14.050000000000001

>  <m_primary>  (2145) 
energy

$$$$
35:0
     RDKit          3D

 25 27  0  0  0  0  0  0  0  0999 V2000
   60.5790   26.7700   46.0550 C   0  0  0  0  0  0  0  0  0  0  0  0
   59.9510   27.9170   46.3650 C   0  0  0  0  0  0  0  0  0  0  0  0
   60.6460   28.7880   47.1360 N   0  0  0  0  0  0  0  0  0  0  0  0
   60.1370   29.9670   47.5570 C   0  0  0  0  0  0  0  0  0  0  0  0
   60.8450   30.7030   48.2940 O   0  0  0  0  0  0  0  0  0  0  0  0
   58.8800   30.3490   47.1790 N   0  0  0  0  0  0  0  0  0  0  0  0
   58.3110   31.6240   47.6640 C   0  0  0  0  0  0  0  0  0  0  0  0
   58.6300   32.7370   46.7000 C   0  0  0  0  0  0  0  0  0  0  0  0
   57.9020   32.8680   45.5050 C   0  0  0  0  0  0  0  0  0  0  0  0
   58.2240   33.8740   44.5900 C   0  0  0  0  0  0  0  0  0  0  0  0
   59.2780   34.7530   44.8570 C   0  0  0  0  0  0  0  0  0  0  0  0
   60.0110   34.6270   46.0400 C   0  0  0  0  0  0  0  0  0  0  0  0
   59.6910   33.6220   46.9580 C   0  0  0  0  0  0  0  0  0  0  0  0
   58.1310   29.5260   46.3740 C   0  0  0  0  0  0  0  0  0  0  0  0
   57.0180   29.9440   45.9480 O   0  0  0  0  0  0  0  0  0  0  0  0
   58.6150   28.2440   45.9750 C   0  0  0  0  0  0  0  0  0  0  0  0
   57.8540   27.3870   45.2330 C   0  0  0  0  0  0  0  0  0  0  0  0
   57.4150   26.0350   45.6470 C   0  0  0  0  0  0  0  0  0  0  0  0
   58.3200   24.9570   45.6200 C   0  0  0  0  0  0  0  0  0  0  0  0
   57.8960   23.6720   45.9700 C   0  0  0  0  0  0  0  0  0  0  0  0
   58.7990   22.6150   45.9600 O   0  0  0  0  0  0  0  0  0  0  0  0
   56.5620   23.4480   46.3260 C   0  0  0  0  0  0  0  0  0  0  0  0
   55.6510   24.5070   46.3260 C   0  0  0  0  0  0  0  0  0  0  0  0
   56.0700   25.7970   45.9810 C   0  0  0  0  0  0  0  0  0  0  0  0
   55.1480   26.8390   45.9800 O   0  0  0  0  0  0  0  0  0  0  0  0
  1  2  2  0
  2  3  1  0
  3  4  1  0
  4  5  2  0
  4  6  1  0
  6  7  1  0
  7  8  1  0
  8  9  2  0
  9 10  1  0
 10 11  2  0
 11 12  1  0
 12 13  2  0
  6 14  1  0
 14 15  2  0
 14 16  1  0
 16 17  2  3
 17 18  1  0
 18 19  2  0
 19 20  1  0
 20 21  1  0
 20 22  2  0
 22 23  1  0
 23 24  2  0
 24 25  1  0
 16  2  1  0
 24 18  1  0
 13  8  1  0
M  CHG  3   3  -1  21  -1  25  -1
M  END
>  <UniqueID>  (2146) 
33

>  <SMILES>  (2146) 
C=c1[n-]c(=O)n(Cc2ccccc2)c(=O)c1=Cc1cc([O-])ccc1[O-]

>  <Energy>  (2146) 
65.87369111201755

>  <Genealogy>  (2146) 
C=c1[n-]c(=O)n(Cc2ccccc2)c(=O)c1=Cc1cc([O-])ccc1[O-] (protonated)
C=c1[n-]c(=O)n(Cc2ccccc2)c(=O)c1=Cc1cc([O-])ccc1[O-] (3D coordinates assigned)
C=c1[n-]c(=O)n(Cc2ccccc2)c(=O)c1=Cc1cc([O-])ccc1[O-] (optimized conformer: 65.87369111201755 kcal/mol)

>  <smiles>  (2146) 
C=c1[nH]c(=O)n(Cc2ccccc2)c(=O)c1=Cc1cc(O)ccc1O

>  <score_type>  (2146) 
oracle

>  <origin>  (2146) 
adg

>  <m_score__min__energy>  (2146) 
-14.359999999999999

>  <m_primary>  (2146) 
energy

$$$$
57:0
     RDKit          3D

 35 39  0  0  0  0  0  0  0  0999 V2000
   59.4030   29.4320   44.7380 C   0  0  0  0  0  0  0  0  0  0  0  0
   59.3690   28.9670   45.9970 C   0  0  0  0  0  0  0  0  0  0  0  0
   58.7580   27.7780   46.4340 C   0  0  0  0  0  0  0  0  0  0  0  0
   57.9350   26.9200   45.7970 C   0  0  0  0  0  0  0  0  0  0  0  0
   57.2930   25.7440   46.4020 C   0  0  0  0  0  0  0  0  0  0  0  0
   57.9550   24.6790   46.8910 N   0  0  0  0  0  0  0  0  0  0  0  0
   56.9640   23.8230   47.2200 C   0  0  0  0  0  0  0  0  0  0  0  0
   57.1860   22.6930   47.7280 O   0  0  0  0  0  0  0  0  0  0  0  0
   55.7160   24.2670   46.9510 N   0  0  0  0  0  0  0  0  0  0  0  0
   55.9450   25.4800   46.4200 C   0  0  0  0  0  0  0  0  0  0  0  0
   54.9440   26.3320   45.9620 O   0  0  0  0  0  0  0  0  0  0  0  0
   59.1500   27.5990   47.7490 C   0  0  0  0  0  0  0  0  0  0  0  0
   59.9190   28.6890   48.0840 C   0  0  0  0  0  0  0  0  0  0  0  0
   60.5270   28.8950   49.4110 C   0  0  0  0  0  0  0  0  0  0  0  0
   61.1860   27.9410   49.9030 O   0  0  0  0  0  0  0  0  0  0  0  0
   60.3940   30.1550   50.1280 N   0  0  0  0  0  0  0  0  0  0  0  0
   61.5190   30.8880   50.4140 C   0  0  0  0  0  0  0  0  0  0  0  0
   61.4460   32.0840   51.1260 C   0  0  0  0  0  0  0  0  0  0  0  0
   60.2080   32.5560   51.5590 C   0  0  0  0  0  0  0  0  0  0  0  0
   60.1160   33.7520   52.2890 C   0  0  0  0  0  0  0  0  0  0  0  0
   58.8710   34.2140   52.7250 C   0  0  0  0  0  0  0  0  0  0  0  0
   57.7130   33.4890   52.4340 C   0  0  0  0  0  0  0  0  0  0  0  0
   57.7940   32.2990   51.7080 C   0  0  0  0  0  0  0  0  0  0  0  0
   59.0420   31.8170   51.2620 C   0  0  0  0  0  0  0  0  0  0  0  0
   59.1580   30.6140   50.5340 C   0  0  0  0  0  0  0  0  0  0  0  0
   58.1100   29.9680   50.2490 O   0  0  0  0  0  0  0  0  0  0  0  0
   60.0540   29.5290   47.0310 N   0  0  0  0  0  0  0  0  0  0  0  0
   60.9180   30.7220   47.0080 C   0  0  0  0  0  0  0  0  0  0  0  0
   60.2200   31.9140   47.6750 C   0  0  0  0  0  0  0  0  0  0  0  0
   59.4850   32.7100   46.6690 N   0  0  0  0  0  0  0  0  0  0  0  0
   60.1250   34.0270   46.4510 C   0  0  0  0  0  0  0  0  0  0  0  0
   59.2580   34.9680   45.5830 C   0  0  0  0  0  0  0  0  0  0  0  0
   58.1500   34.2030   44.8530 C   0  0  0  0  0  0  0  0  0  0  0  0
   57.2630   33.4380   45.8480 C   0  0  0  0  0  0  0  0  0  0  0  0
   58.0660   32.8730   47.0370 C   0  0  0  0  0  0  0  0  0  0  0  0
  1  2  2  0
  2  3  1  0
  3  4  2  3
  4  5  1  0
  5  6  1  0
  6  7  1  0
  7  8  2  0
  7  9  1  0
  9 10  1  0
 10 11  1  0
  3 12  1  0
 12 13  2  0
 13 14  1  0
 14 15  2  0
 14 16  1  0
 16 17  1  0
 17 18  2  0
 18 19  1  0
 19 20  2  0
 20 21  1  0
 21 22  2  0
 22 23  1  0
 23 24  2  0
 24 25  1  0
 25 26  2  0
 13 27  1  0
 27 28  1  0
 28 29  1  0
 29 30  1  0
 30 31  1  0
 31 32  1  0
 32 33  1  0
 33 34  1  0
 34 35  1  0
 27  2  1  0
 35 30  1  0
 10  5  2  0
 25 16  1  0
 24 19  1  0
M  CHG  2   6  -1   9  -1
M  END
>  <UniqueID>  (2147) 
54

>  <SMILES>  (2147) 
C=c1c(=Cc2[n-]c(=O)[n-]c2O)cc(C(=O)n2ccc3ccccc3c2=O)n1CCN1CCCCC1

>  <Energy>  (2147) 
154.04557961518134

>  <Genealogy>  (2147) 
C=c1c(=Cc2[n-]c(=O)[n-]c2O)cc(C(=O)n2ccc3ccccc3c2=O)n1CCN1CCCCC1 (protonated)
C=c1c(=Cc2[n-]c(=O)[n-]c2O)cc(C(=O)n2ccc3ccccc3c2=O)n1CCN1CCCCC1 (3D coordinates assigned)
C=c1c(=Cc2[n-]c(=O)[n-]c2O)cc(C(=O)n2ccc3ccccc3c2=O)n1CCN1CCCCC1 (nonaromatic ring conformer: 154.04557961518134 kcal/mol)

>  <smiles>  (2147) 
C=c1c(=Cc2[nH]c(=O)[nH]c2O)cc(C(=O)n2ccc3ccccc3c2=O)n1CCN1CCCCC1

>  <score_type>  (2147) 
oracle

>  <origin>  (2147) 
adg

>  <m_score__min__energy>  (2147) 
-14.23

>  <m_primary>  (2147) 
energy

$$$$
76:0
     RDKit          3D

 33 36  0  0  0  0  0  0  0  0999 V2000
   55.4240   29.3630   44.9230 O   0  0  0  0  0  0  0  0  0  0  0  0
   56.1310   28.2110   45.2580 C   0  0  0  0  0  0  0  0  0  0  0  0
   55.5600   27.1330   45.8190 N   0  0  0  0  0  0  0  0  0  0  0  0
   56.6090   26.3030   46.0090 C   0  0  0  0  0  0  0  0  0  0  0  0
   56.4860   25.1660   46.5320 O   0  0  0  0  0  0  0  0  0  0  0  0
   57.8010   26.7940   45.6060 N   0  0  0  0  0  0  0  0  0  0  0  0
   57.4870   27.9990   45.1010 C   0  0  0  0  0  0  0  0  0  0  0  0
   58.4880   28.9620   44.6240 C   0  0  0  0  0  0  0  0  0  0  0  0
   58.5150   30.2800   44.9090 C   0  0  0  0  0  0  0  0  0  0  0  0
   59.0270   30.7730   46.0950 C   0  0  0  0  0  0  0  0  0  0  0  0
   58.8140   32.1360   46.0940 C   0  0  0  0  0  0  0  0  0  0  0  0
   59.1130   33.0240   47.2400 C   0  0  0  0  0  0  0  0  0  0  0  0
   58.5330   34.1410   47.3120 O   0  0  0  0  0  0  0  0  0  0  0  0
   60.0070   32.6180   48.2960 N   0  0  0  0  0  0  0  0  0  0  0  0
   59.8320   33.2020   49.6340 C   0  0  0  0  0  0  0  0  0  0  0  0
   60.7840   32.5680   50.6510 C   0  0  0  0  0  0  0  0  0  0  0  0
   62.1450   32.5500   50.1020 N   0  0  0  0  0  0  0  0  0  0  0  0
   63.2090   33.2310   50.7930 C   0  0  0  0  0  0  0  0  0  0  0  0
   62.9750   34.3340   51.3590 O   0  0  0  0  0  0  0  0  0  0  0  0
   64.5800   32.6760   50.8330 C   0  0  0  0  0  0  0  0  0  0  0  0
   64.7810   31.3070   51.0850 C   0  0  0  0  0  0  0  0  0  0  0  0
   66.0740   30.7790   51.1210 C   0  0  0  0  0  0  0  0  0  0  0  0
   67.1770   31.6050   50.8940 C   0  0  0  0  0  0  0  0  0  0  0  0
   66.9890   32.9660   50.6210 C   0  0  0  0  0  0  0  0  0  0  0  0
   68.1260   33.8140   50.3760 C   0  0  0  0  0  0  0  0  0  0  0  0
   69.0390   34.4970   50.1780 N   0  0  0  0  0  0  0  0  0  0  0  0
   65.6930   33.4980   50.5840 C   0  0  0  0  0  0  0  0  0  0  0  0
   62.3730   32.0540   48.7360 C   0  0  0  0  0  0  0  0  0  0  0  0
   61.0670   31.6230   48.0570 C   0  0  0  0  0  0  0  0  0  0  0  0
   58.2280   32.5190   44.9330 N   0  0  0  0  0  0  0  0  0  0  0  0
   57.9010   33.8930   44.5330 C   0  0  0  0  0  0  0  0  0  0  0  0
   58.0510   31.3940   44.1900 C   0  0  0  0  0  0  0  0  0  0  0  0
   57.5800   31.4090   42.9320 C   0  0  0  0  0  0  0  0  0  0  0  0
  1  2  1  0
  2  3  1  0
  3  4  1  0
  4  5  2  0
  4  6  1  0
  6  7  1  0
  7  8  1  0
  8  9  2  0
  9 10  1  0
 10 11  2  0
 11 12  1  0
 12 13  2  0
 12 14  1  0
 14 15  1  0
 15 16  1  0
 16 17  1  0
 17 18  1  0
 18 19  2  0
 18 20  1  0
 20 21  2  0
 21 22  1  0
 22 23  2  0
 23 24  1  0
 24 25  1  0
 25 26  3  0
 24 27  2  0
 17 28  1  0
 28 29  1  0
 11 30  1  0
 30 31  1  0
 30 32  1  0
 32 33  2  0
  7  2  2  0
 32  9  1  0
 29 14  1  0
 27 20  1  0
M  CHG  2   3  -1   6  -1
M  END
>  <UniqueID>  (2148) 
71

>  <SMILES>  (2148) 
C=c1/c(=C\c2[n-]c(=O)[n-]c2O)cc(C(=O)N2CCN(C(=O)c3cccc(C#N)c3)CC2)n1C

>  <Energy>  (2148) 
136.26763404748237

>  <Genealogy>  (2148) 
C=c1c(=Cc2[n-]c(=O)[n-]c2O)cc(C(=O)N2CCN(C(=O)c3cccc(C#N)c3)CC2)n1C (protonated)
C=c1/c(=C\c2[n-]c(=O)[n-]c2O)cc(C(=O)N2CCN(C(=O)c3cccc(C#N)c3)CC2)n1C (cis-trans isomerization)
C=c1/c(=C\c2[n-]c(=O)[n-]c2O)cc(C(=O)N2CCN(C(=O)c3cccc(C#N)c3)CC2)n1C (3D coordinates assigned)
C=c1/c(=C\c2[n-]c(=O)[n-]c2O)cc(C(=O)N2CCN(C(=O)c3cccc(C#N)c3)CC2)n1C (nonaromatic ring conformer: 136.26763404748237 kcal/mol)

>  <smiles>  (2148) 
C=c1c(=Cc2[nH]c(=O)[nH]c2O)cc(C(=O)N2CCN(C(=O)c3cccc(C#N)c3)CC2)n1C

>  <score_type>  (2148) 
oracle

>  <origin>  (2148) 
adg

>  <m_score__min__energy>  (2148) 
-14.1

>  <m_primary>  (2148) 
energy

$$$$
5:0
     RDKit          3D

 33 35  0  0  0  0  0  0  0  0999 V2000
   58.5430   30.7290   54.5920 C   0  0  0  0  0  0  0  0  0  0  0  0
   59.1230   29.5530   53.8110 C   0  0  0  0  0  0  0  0  0  0  0  0
   59.2100   29.8770   52.3700 N   0  0  0  0  0  0  0  0  0  0  0  0
   60.4240   30.1660   51.7820 C   0  0  0  0  0  0  0  0  0  0  0  0
   61.6250   30.1120   52.5020 O   0  0  0  0  0  0  0  0  0  0  0  0
   60.4910   30.5070   50.4180 C   0  0  0  0  0  0  0  0  0  0  0  0
   61.8170   30.7890   49.7510 C   0  0  0  0  0  0  0  0  0  0  0  0
   62.4720   31.9630   50.4080 C   0  0  0  0  0  0  0  0  0  0  0  0
   63.1440   31.7940   51.4610 O   0  0  0  0  0  0  0  0  0  0  0  0
   62.3230   33.2660   49.8310 N   0  0  0  0  0  0  0  0  0  0  0  0
   61.4460   33.6250   48.7540 C   0  0  0  0  0  0  0  0  0  0  0  0
   60.1070   33.9890   48.9740 C   0  0  0  0  0  0  0  0  0  0  0  0
   59.2700   34.2930   47.8960 C   0  0  0  0  0  0  0  0  0  0  0  0
   59.7520   34.2310   46.5740 C   0  0  0  0  0  0  0  0  0  0  0  0
   58.8790   34.5560   45.4150 C   0  0  0  0  0  0  0  0  0  0  0  0
   57.5320   33.9190   45.2340 C   0  0  0  0  0  0  0  0  0  0  0  0
   59.2650   35.3960   44.5560 O   0  0  0  0  0  0  0  0  0  0  0  0
   61.0900   33.8460   46.3630 C   0  0  0  0  0  0  0  0  0  0  0  0
   61.9220   33.5370   47.4430 C   0  0  0  0  0  0  0  0  0  0  0  0
   59.3070   30.4830   49.6730 C   0  0  0  0  0  0  0  0  0  0  0  0
   59.3110   30.7470   48.4410 O   0  0  0  0  0  0  0  0  0  0  0  0
   58.1440   30.1510   50.2730 N   0  0  0  0  0  0  0  0  0  0  0  0
   58.0730   29.8390   51.5930 C   0  0  0  0  0  0  0  0  0  0  0  0
   56.9300   29.4820   52.1110 N   0  0  0  0  0  0  0  0  0  0  0  0
   55.7620   30.3480   52.2810 C   0  0  0  0  0  0  0  0  0  0  0  0
   54.4580   29.5490   52.1510 C   0  0  0  0  0  0  0  0  0  0  0  0
   53.2470   30.4440   52.1020 C   0  0  0  0  0  0  0  0  0  0  0  0
   52.5170   30.7110   53.2730 C   0  0  0  0  0  0  0  0  0  0  0  0
   51.4310   31.5900   53.2400 C   0  0  0  0  0  0  0  0  0  0  0  0
   51.0640   32.2090   52.0420 C   0  0  0  0  0  0  0  0  0  0  0  0
   49.9860   33.0840   52.0130 O   0  0  0  0  0  0  0  0  0  0  0  0
   51.7850   31.9470   50.8710 C   0  0  0  0  0  0  0  0  0  0  0  0
   52.8730   31.0690   50.9000 C   0  0  0  0  0  0  0  0  0  0  0  0
  1  2  1  0
  2  3  1  0
  3  4  1  0
  4  5  1  0
  4  6  2  0
  6  7  1  0
  7  8  1  0
  8  9  2  0
  8 10  1  0
 10 11  1  0
 11 12  2  0
 12 13  1  0
 13 14  2  0
 14 15  1  0
 15 16  1  0
 15 17  2  0
 14 18  1  0
 18 19  2  0
  6 20  1  0
 20 21  2  0
 20 22  1  0
 22 23  1  0
 23 24  2  3
 24 25  1  0
 25 26  1  0
 26 27  1  0
 27 28  2  0
 28 29  1  0
 29 30  2  0
 30 31  1  0
 30 32  1  0
 32 33  2  0
 23  3  1  0
 33 27  1  0
 19 11  1  0
M  CHG  3  10  -1  22  -1  31  -1
M  END
>  <UniqueID>  (2149) 
6

>  <SMILES>  (2149) 
CCn1c(O)c(CC(=O)[N-]c2ccc(C(C)=O)cc2)c(=O)[n-]c1=NCCc1ccc([O-])cc1

>  <Energy>  (2149) 
58.99547236252908

>  <Genealogy>  (2149) 
CCn1c(O)c(CC(=O)[N-]c2ccc(C(C)=O)cc2)c(=O)[n-]c1=NCCc1ccc([O-])cc1 (protonated)
CCn1c(O)c(CC(=O)[N-]c2ccc(C(C)=O)cc2)c(=O)[n-]c1=NCCc1ccc([O-])cc1 (3D coordinates assigned)
CCn1c(O)c(CC(=O)[N-]c2ccc(C(C)=O)cc2)c(=O)[n-]c1=NCCc1ccc([O-])cc1 (optimized conformer: 58.99547236252908 kcal/mol)

>  <smiles>  (2149) 
CCn1c(O)c(CC(=O)Nc2ccc(C(C)=O)cc2)c(=O)[nH]c1=NCCc1ccc(O)cc1

>  <score_type>  (2149) 
oracle

>  <origin>  (2149) 
adg

>  <m_score__min__energy>  (2149) 
-15.09

>  <m_primary>  (2149) 
energy

$$$$
6:0
     RDKit          3D

 31 33  0  0  0  0  0  0  0  0999 V2000
   57.4000   25.7870   47.8800 O   0  0  0  0  0  0  0  0  0  0  0  0
   58.4700   26.1970   47.3560 C   0  0  0  0  0  0  0  0  0  0  0  0
   58.5860   26.3040   45.8550 C   0  0  0  0  0  0  0  0  0  0  0  0
   58.0420   27.6090   45.3210 C   0  0  0  0  0  0  0  0  0  0  0  0
   58.9270   28.5830   44.8300 C   0  0  0  0  0  0  0  0  0  0  0  0
   58.4420   29.8020   44.3500 C   0  0  0  0  0  0  0  0  0  0  0  0
   57.0710   30.0630   44.3630 C   0  0  0  0  0  0  0  0  0  0  0  0
   56.1780   29.1100   44.8630 C   0  0  0  0  0  0  0  0  0  0  0  0
   54.8170   29.3910   44.8760 O   0  0  0  0  0  0  0  0  0  0  0  0
   56.6590   27.8820   45.3510 C   0  0  0  0  0  0  0  0  0  0  0  0
   55.7770   26.9330   45.8700 O   0  0  0  0  0  0  0  0  0  0  0  0
   59.5550   26.5630   48.2200 N   0  0  0  0  0  0  0  0  0  0  0  0
   60.4530   27.7010   48.0470 C   0  0  0  0  0  0  0  0  0  0  0  0
   59.7760   28.9480   48.5370 C   0  0  0  0  0  0  0  0  0  0  0  0
   58.5180   28.9920   48.5560 O   0  0  0  0  0  0  0  0  0  0  0  0
   60.5130   30.0310   49.1200 N   0  0  0  0  0  0  0  0  0  0  0  0
   60.9920   31.1880   48.4230 C   0  0  0  0  0  0  0  0  0  0  0  0
   62.2630   31.1820   47.8260 C   0  0  0  0  0  0  0  0  0  0  0  0
   62.7190   32.2980   47.1240 C   0  0  0  0  0  0  0  0  0  0  0  0
   61.9070   33.4240   46.9960 C   0  0  0  0  0  0  0  0  0  0  0  0
   60.6250   33.4370   47.5560 C   0  0  0  0  0  0  0  0  0  0  0  0
   59.6670   34.9090   47.4100 Cl  0  0  0  0  0  0  0  0  0  0  0  0
   60.1490   32.3080   48.2560 C   0  0  0  0  0  0  0  0  0  0  0  0
   58.7970   32.3060   48.8540 C   0  0  0  0  0  0  0  0  0  0  0  0
   57.7960   32.3180   48.0870 O   0  0  0  0  0  0  0  0  0  0  0  0
   58.6070   32.3170   50.2830 N   0  0  0  0  0  0  0  0  0  0  0  0
   59.6750   32.7740   51.1800 C   0  0  0  0  0  0  0  0  0  0  0  0
   59.0660   33.3920   52.4420 C   0  0  0  0  0  0  0  0  0  0  0  0
   58.1320   32.5080   53.0320 O   0  0  0  0  0  0  0  0  0  0  0  0
   57.0280   32.3320   52.1640 C   0  0  0  0  0  0  0  0  0  0  0  0
   57.4550   31.6270   50.8740 C   0  0  0  0  0  0  0  0  0  0  0  0
  1  2  2  0
  2  3  1  0
  3  4  1  0
  4  5  2  0
  5  6  1  0
  6  7  2  0
  7  8  1  0
  8  9  1  0
  8 10  2  0
 10 11  1  0
  2 12  1  0
 12 13  1  0
 13 14  1  0
 14 15  2  0
 14 16  1  0
 16 17  1  0
 17 18  2  0
 18 19  1  0
 19 20  2  0
 20 21  1  0
 21 22  1  0
 21 23  2  0
 23 24  1  0
 24 25  2  0
 24 26  1  0
 26 27  1  0
 27 28  1  0
 28 29  1  0
 29 30  1  0
 30 31  1  0
 10  4  1  0
 23 17  1  0
 31 26  1  0
M  CHG  3   9  -1  12  -1  16  -1
M  END
>  <UniqueID>  (2150) 
7

>  <SMILES>  (2150) 
O=C(Cc1cccc([O-])c1O)[N-]CC(=O)[N-]c1cccc(Cl)c1C(=O)N1CCOCC1

>  <Energy>  (2150) 
64.02317680127918

>  <Genealogy>  (2150) 
O=C(Cc1cccc([O-])c1O)[N-]CC(=O)[N-]c1cccc(Cl)c1C(=O)N1CCOCC1 (protonated)
O=C(Cc1cccc([O-])c1O)[N-]CC(=O)[N-]c1cccc(Cl)c1C(=O)N1CCOCC1 (3D coordinates assigned)
O=C(Cc1cccc([O-])c1O)[N-]CC(=O)[N-]c1cccc(Cl)c1C(=O)N1CCOCC1 (nonaromatic ring conformer: 64.02317680127918 kcal/mol)

>  <smiles>  (2150) 
O=C(Cc1cccc(O)c1O)NCC(=O)Nc1cccc(Cl)c1C(=O)N1CCOCC1

>  <score_type>  (2150) 
oracle

>  <origin>  (2150) 
adg

>  <m_score__min__energy>  (2150) 
-15.32

>  <m_primary>  (2150) 
energy

$$$$
13:0
     RDKit          3D

 29 31  0  0  0  0  0  0  0  0999 V2000
   59.5930   27.7520   47.0260 C   0  0  0  0  0  0  0  0  0  0  0  0
   58.9200   28.4230   46.0760 C   0  0  0  0  0  0  0  0  0  0  0  0
   58.1050   27.8550   45.0850 C   0  0  0  0  0  0  0  0  0  0  0  0
   57.8490   26.5410   44.9030 C   0  0  0  0  0  0  0  0  0  0  0  0
   57.2240   25.6310   45.8920 C   0  0  0  0  0  0  0  0  0  0  0  0
   57.7940   24.5410   46.4400 N   0  0  0  0  0  0  0  0  0  0  0  0
   56.8150   24.0230   47.2080 C   0  0  0  0  0  0  0  0  0  0  0  0
   56.9710   22.9740   47.8880 O   0  0  0  0  0  0  0  0  0  0  0  0
   55.6540   24.7120   47.1880 N   0  0  0  0  0  0  0  0  0  0  0  0
   55.9310   25.7240   46.3500 C   0  0  0  0  0  0  0  0  0  0  0  0
   55.0140   26.7070   45.9990 O   0  0  0  0  0  0  0  0  0  0  0  0
   57.5980   28.9190   44.3520 C   0  0  0  0  0  0  0  0  0  0  0  0
   58.1010   30.0720   44.9160 C   0  0  0  0  0  0  0  0  0  0  0  0
   57.7610   31.4280   44.4430 C   0  0  0  0  0  0  0  0  0  0  0  0
   58.3560   31.9140   43.4440 O   0  0  0  0  0  0  0  0  0  0  0  0
   56.7150   32.1840   45.0650 N   0  0  0  0  0  0  0  0  0  0  0  0
   56.8330   33.6080   45.3820 C   0  0  0  0  0  0  0  0  0  0  0  0
   58.0890   33.9020   46.1530 C   0  0  0  0  0  0  0  0  0  0  0  0
   58.1240   33.6720   47.4970 N   0  0  0  0  0  0  0  0  0  0  0  0
   59.2440   33.9030   48.2360 C   0  0  0  0  0  0  0  0  0  0  0  0
   60.4050   34.3780   47.6180 C   0  0  0  0  0  0  0  0  0  0  0  0
   60.3970   34.6220   46.2420 C   0  0  0  0  0  0  0  0  0  0  0  0
   59.2350   34.3890   45.5010 C   0  0  0  0  0  0  0  0  0  0  0  0
   58.9110   29.7800   45.9610 N   0  0  0  0  0  0  0  0  0  0  0  0
   59.6160   30.7620   46.8020 C   0  0  0  0  0  0  0  0  0  0  0  0
   61.1390   30.5970   46.6880 C   0  0  0  0  0  0  0  0  0  0  0  0
   61.7990   30.8450   47.9890 N   0  0  0  0  0  0  0  0  0  0  0  0
   60.8030   31.0990   49.0450 C   0  0  0  0  0  0  0  0  0  0  0  0
   62.7170   31.9930   47.8930 C   0  0  0  0  0  0  0  0  0  0  0  0
  1  2  2  0
  2  3  1  0
  3  4  2  0
  4  5  1  0
  5  6  1  0
  6  7  1  0
  7  8  2  0
  7  9  1  0
  9 10  1  0
 10 11  1  0
  3 12  1  0
 12 13  2  0
 13 14  1  0
 14 15  2  0
 14 16  1  0
 16 17  1  0
 17 18  1  0
 18 19  2  0
 19 20  1  0
 20 21  2  0
 21 22  1  0
 22 23  2  0
 13 24  1  0
 24 25  1  0
 25 26  1  0
 26 27  1  0
 27 28  1  0
 27 29  1  0
 24  2  1  0
 10  5  2  0
 23 18  1  0
M  CHG  4   6  -1   9  -1  11  -1  16  -1
M  END
>  <UniqueID>  (2151) 
14

>  <SMILES>  (2151) 
C=c1/c(=C/c2[n-]c(=O)[n-]c2[O-])cc(C(=O)[N-]Cc2ccccn2)n1CCN(C)C

>  <Energy>  (2151) 
116.9670155118467

>  <Genealogy>  (2151) 
C=c1c(=Cc2[n-]c(=O)[n-]c2[O-])cc(C(=O)[N-]Cc2ccccn2)n1CCN(C)C (protonated)
C=c1/c(=C/c2[n-]c(=O)[n-]c2[O-])cc(C(=O)[N-]Cc2ccccn2)n1CCN(C)C (cis-trans isomerization)
C=c1/c(=C/c2[n-]c(=O)[n-]c2[O-])cc(C(=O)[N-]Cc2ccccn2)n1CCN(C)C (3D coordinates assigned)
C=c1/c(=C/c2[n-]c(=O)[n-]c2[O-])cc(C(=O)[N-]Cc2ccccn2)n1CCN(C)C (optimized conformer: 116.9670155118467 kcal/mol)

>  <smiles>  (2151) 
C=c1c(=Cc2[nH]c(=O)[nH]c2O)cc(C(=O)NCc2ccccn2)n1CCN(C)C

>  <score_type>  (2151) 
oracle

>  <origin>  (2151) 
adg

>  <m_score__min__energy>  (2151) 
-16.629999999999999

>  <m_primary>  (2151) 
energy

$$$$
14:0
     RDKit          3D

 40 44  0  0  0  0  0  0  0  0999 V2000
   60.1160   27.0850   46.0760 C   0  0  0  0  0  0  0  0  0  0  0  0
   59.2790   27.8700   45.3780 C   0  0  0  0  0  0  0  0  0  0  0  0
   58.1460   27.4360   44.6810 C   0  0  0  0  0  0  0  0  0  0  0  0
   57.7090   26.1720   44.5250 C   0  0  0  0  0  0  0  0  0  0  0  0
   57.0930   25.3880   45.6110 C   0  0  0  0  0  0  0  0  0  0  0  0
   57.6910   24.3430   46.2130 N   0  0  0  0  0  0  0  0  0  0  0  0
   56.8140   23.9950   47.1790 C   0  0  0  0  0  0  0  0  0  0  0  0
   57.0110   23.0250   47.9620 O   0  0  0  0  0  0  0  0  0  0  0  0
   55.7110   24.7730   47.2520 N   0  0  0  0  0  0  0  0  0  0  0  0
   55.9080   25.6570   46.2600 C   0  0  0  0  0  0  0  0  0  0  0  0
   55.0460   26.7140   45.9860 O   0  0  0  0  0  0  0  0  0  0  0  0
   57.5730   28.5670   44.1240 C   0  0  0  0  0  0  0  0  0  0  0  0
   58.3510   29.6350   44.5120 C   0  0  0  0  0  0  0  0  0  0  0  0
   58.0790   31.0250   44.1090 C   0  0  0  0  0  0  0  0  0  0  0  0
   57.7460   31.2520   42.9120 O   0  0  0  0  0  0  0  0  0  0  0  0
   58.1540   32.1120   45.0550 N   0  0  0  0  0  0  0  0  0  0  0  0
   58.1020   33.4920   44.5550 C   0  0  0  0  0  0  0  0  0  0  0  0
   58.6390   34.4740   45.6060 C   0  0  0  0  0  0  0  0  0  0  0  0
   58.0380   34.2510   46.8670 O   0  0  0  0  0  0  0  0  0  0  0  0
   58.3930   32.9700   47.3440 C   0  0  0  0  0  0  0  0  0  0  0  0
   57.7850   31.8820   46.4570 C   0  0  0  0  0  0  0  0  0  0  0  0
   59.3960   29.2230   45.2720 N   0  0  0  0  0  0  0  0  0  0  0  0
   60.5280   30.0630   45.6980 C   0  0  0  0  0  0  0  0  0  0  0  0
   60.4350   30.3560   47.1740 C   0  0  0  0  0  0  0  0  0  0  0  0
   59.5600   29.6210   47.9860 C   0  0  0  0  0  0  0  0  0  0  0  0
   59.4250   29.9340   49.3400 C   0  0  0  0  0  0  0  0  0  0  0  0
   60.1600   30.9830   49.8950 C   0  0  0  0  0  0  0  0  0  0  0  0
   61.0520   31.7250   49.1010 C   0  0  0  0  0  0  0  0  0  0  0  0
   61.8230   32.8570   49.6770 C   0  0  0  0  0  0  0  0  0  0  0  0
   61.4760   34.0410   49.4160 O   0  0  0  0  0  0  0  0  0  0  0  0
   62.9600   32.6300   50.5290 N   0  0  0  0  0  0  0  0  0  0  0  0
   63.1830   33.4690   51.7050 C   0  0  0  0  0  0  0  0  0  0  0  0
   64.3560   34.4150   51.4420 C   0  0  0  0  0  0  0  0  0  0  0  0
   65.5150   33.6720   50.9170 N   0  0  0  0  0  0  0  0  0  0  0  0
   66.8490   34.1320   51.2370 C   0  0  0  0  0  0  0  0  0  0  0  0
   67.0070   35.2010   51.8910 O   0  0  0  0  0  0  0  0  0  0  0  0
   68.0720   33.3760   50.8100 C   0  0  0  0  0  0  0  0  0  0  0  0
   65.2870   32.7540   49.7850 C   0  0  0  0  0  0  0  0  0  0  0  0
   64.0950   31.8340   50.0600 C   0  0  0  0  0  0  0  0  0  0  0  0
   61.1790   31.4040   47.7380 C   0  0  0  0  0  0  0  0  0  0  0  0
  1  2  2  0
  2  3  1  0
  3  4  2  0
  4  5  1  0
  5  6  1  0
  6  7  1  0
  7  8  2  0
  7  9  1  0
  9 10  1  0
 10 11  1  0
  3 12  1  0
 12 13  2  0
 13 14  1  0
 14 15  2  0
 14 16  1  0
 16 17  1  0
 17 18  1  0
 18 19  1  0
 19 20  1  0
 20 21  1  0
 13 22  1  0
 22 23  1  0
 23 24  1  0
 24 25  2  0
 25 26  1  0
 26 27  2  0
 27 28  1  0
 28 29  1  0
 29 30  2  0
 29 31  1  0
 31 32  1  0
 32 33  1  0
 33 34  1  0
 34 35  1  0
 35 36  2  0
 35 37  1  0
 34 38  1  0
 38 39  1  0
 28 40  2  0
 22  2  1  0
 40 24  1  0
 10  5  2  0
 21 16  1  0
 39 31  1  0
M  CHG  3   6  -1   9  -1  11  -1
M  END
>  <UniqueID>  (2152) 
15

>  <SMILES>  (2152) 
C=c1/c(=C/c2[n-]c(=O)[n-]c2[O-])cc(C(=O)N2CCOCC2)n1Cc1cccc(C(=O)N2CCN(C(C)=O)CC2)c1

>  <Energy>  (2152) 
148.83900142276156

>  <Genealogy>  (2152) 
C=c1c(=Cc2[n-]c(=O)[n-]c2[O-])cc(C(=O)N2CCOCC2)n1Cc1cccc(C(=O)N2CCN(C(C)=O)CC2)c1 (protonated)
C=c1/c(=C/c2[n-]c(=O)[n-]c2[O-])cc(C(=O)N2CCOCC2)n1Cc1cccc(C(=O)N2CCN(C(C)=O)CC2)c1 (cis-trans isomerization)
C=c1/c(=C/c2[n-]c(=O)[n-]c2[O-])cc(C(=O)N2CCOCC2)n1Cc1cccc(C(=O)N2CCN(C(C)=O)CC2)c1 (3D coordinates assigned)
C=c1/c(=C/c2[n-]c(=O)[n-]c2[O-])cc(C(=O)N2CCOCC2)n1Cc1cccc(C(=O)N2CCN(C(C)=O)CC2)c1 (nonaromatic ring conformer: 148.83900142276156 kcal/mol)

>  <smiles>  (2152) 
C=c1c(=Cc2[nH]c(=O)[nH]c2O)cc(C(=O)N2CCOCC2)n1Cc1cccc(C(=O)N2CCN(C(C)=O)CC2)c1

>  <score_type>  (2152) 
oracle

>  <origin>  (2152) 
adg

>  <m_score__min__energy>  (2152) 
-17.449999999999999

>  <m_primary>  (2152) 
energy

$$$$
20:0
     RDKit          3D

 36 40  0  0  0  0  0  0  0  0999 V2000
   60.1950   29.5530   45.8940 C   0  0  0  0  0  0  0  0  0  0  0  0
   58.9250   29.1280   45.7030 C   0  0  0  0  0  0  0  0  0  0  0  0
   58.6280   27.7460   45.8170 C   0  0  0  0  0  0  0  0  0  0  0  0
   59.5610   26.9230   46.0400 O   0  0  0  0  0  0  0  0  0  0  0  0
   57.2960   27.3050   45.6180 C   0  0  0  0  0  0  0  0  0  0  0  0
   56.8880   26.0140   45.7120 C   0  0  0  0  0  0  0  0  0  0  0  0
   55.5170   25.7640   46.0410 N   0  0  0  0  0  0  0  0  0  0  0  0
   54.8690   24.1700   46.0280 S   0  0  0  0  0  0  0  0  0  0  0  0
   53.5700   24.1650   45.2720 O   0  0  0  0  0  0  0  0  0  0  0  0
   54.6530   23.6960   47.4360 O   0  0  0  0  0  0  0  0  0  0  0  0
   56.0370   23.1520   45.2230 C   0  0  0  0  0  0  0  0  0  0  0  0
   55.6650   21.8780   44.7720 C   0  0  0  0  0  0  0  0  0  0  0  0
   56.6110   21.0430   44.1750 C   0  0  0  0  0  0  0  0  0  0  0  0
   57.9320   21.4720   44.0360 C   0  0  0  0  0  0  0  0  0  0  0  0
   58.3090   22.7400   44.4910 C   0  0  0  0  0  0  0  0  0  0  0  0
   57.3640   23.5980   45.0740 C   0  0  0  0  0  0  0  0  0  0  0  0
   57.7830   24.8950   45.5340 N   0  0  0  0  0  0  0  0  0  0  0  0
   56.3690   28.2310   45.2630 N   0  0  0  0  0  0  0  0  0  0  0  0
   56.6490   29.5480   45.1400 C   0  0  0  0  0  0  0  0  0  0  0  0
   55.7200   30.3400   44.8190 O   0  0  0  0  0  0  0  0  0  0  0  0
   57.9160   30.0110   45.3690 N   0  0  0  0  0  0  0  0  0  0  0  0
   58.1600   31.4260   45.2200 C   0  0  0  0  0  0  0  0  0  0  0  0
   57.6690   32.1120   44.0990 C   0  0  0  0  0  0  0  0  0  0  0  0
   57.9300   33.4750   43.9460 C   0  0  0  0  0  0  0  0  0  0  0  0
   58.6800   34.1620   44.9040 C   0  0  0  0  0  0  0  0  0  0  0  0
   59.1860   33.4860   46.0310 C   0  0  0  0  0  0  0  0  0  0  0  0
   60.0090   34.1990   47.0380 C   0  0  0  0  0  0  0  0  0  0  0  0
   59.6220   35.3030   47.5080 O   0  0  0  0  0  0  0  0  0  0  0  0
   61.2440   33.6440   47.5060 N   0  0  0  0  0  0  0  0  0  0  0  0
   61.2330   32.7990   48.7080 C   0  0  0  0  0  0  0  0  0  0  0  0
   62.5380   32.9480   49.4980 C   0  0  0  0  0  0  0  0  0  0  0  0
   63.7370   32.8230   48.5990 C   0  0  0  0  0  0  0  0  0  0  0  0
   64.8460   32.6610   49.0880 O   0  0  0  0  0  0  0  0  0  0  0  0
   63.5760   32.8760   47.1040 C   0  0  0  0  0  0  0  0  0  0  0  0
   62.4640   33.8620   46.7170 C   0  0  0  0  0  0  0  0  0  0  0  0
   58.9170   32.1120   46.1780 C   0  0  0  0  0  0  0  0  0  0  0  0
  1  2  2  0
  2  3  1  0
  3  4  2  0
  3  5  1  0
  5  6  2  3
  6  7  1  0
  7  8  1  0
  8  9  2  0
  8 10  2  0
  8 11  1  0
 11 12  2  0
 12 13  1  0
 13 14  2  0
 14 15  1  0
 15 16  2  0
 16 17  1  0
  5 18  1  0
 18 19  1  0
 19 20  2  0
 19 21  1  0
 21 22  1  0
 22 23  2  0
 23 24  1  0
 24 25  2  0
 25 26  1  0
 26 27  1  0
 27 28  2  0
 27 29  1  0
 29 30  1  0
 30 31  1  0
 31 32  1  0
 32 33  2  0
 32 34  1  0
 34 35  1  0
 26 36  2  0
 21  2  1  0
 36 22  1  0
 17  6  1  0
 35 29  1  0
 16 11  1  0
M  CHG  2   7  -1  18  -1
M  END
>  <UniqueID>  (2153) 
21

>  <SMILES>  (2153) 
C=c1c(=O)c(=C2[N-]S(=O)(=O)c3ccccc3N2)[n-]c(=O)n1-c1cccc(C(=O)N2CCC(=O)CC2)c1

>  <Energy>  (2153) 
98.33256510828633

>  <Genealogy>  (2153) 
C=c1c(=O)c(=C2[N-]S(=O)(=O)c3ccccc3N2)[n-]c(=O)n1-c1cccc(C(=O)N2CCC(=O)CC2)c1 (protonated)
C=c1c(=O)c(=C2[N-]S(=O)(=O)c3ccccc3N2)[n-]c(=O)n1-c1cccc(C(=O)N2CCC(=O)CC2)c1 (3D coordinates assigned)
C=c1c(=O)c(=C2[N-]S(=O)(=O)c3ccccc3N2)[n-]c(=O)n1-c1cccc(C(=O)N2CCC(=O)CC2)c1 (nonaromatic ring conformer: 98.33256510828633 kcal/mol)

>  <smiles>  (2153) 
C=c1c(=O)c(=C2Nc3ccccc3S(=O)(=O)N2)[nH]c(=O)n1-c1cccc(C(=O)N2CCC(=O)CC2)c1

>  <score_type>  (2153) 
oracle

>  <origin>  (2153) 
adg

>  <m_score__min__energy>  (2153) 
-15.289999999999999

>  <m_primary>  (2153) 
energy

$$$$
34:0
     RDKit          3D

 32 35  0  0  0  0  0  0  0  0999 V2000
   55.7500   31.6950   52.3740 C   0  0  0  0  0  0  0  0  0  0  0  0
   55.3000   30.4810   52.7360 C   0  0  0  0  0  0  0  0  0  0  0  0
   53.9540   30.0950   52.8150 C   0  0  0  0  0  0  0  0  0  0  0  0
   52.8710   30.8670   52.5700 C   0  0  0  0  0  0  0  0  0  0  0  0
   52.1310   30.9300   51.2900 C   0  0  0  0  0  0  0  0  0  0  0  0
   52.1980   30.0290   50.2940 N   0  0  0  0  0  0  0  0  0  0  0  0
   51.3970   30.5510   49.3390 C   0  0  0  0  0  0  0  0  0  0  0  0
   51.1980   29.9810   48.2350 O   0  0  0  0  0  0  0  0  0  0  0  0
   50.8340   31.7340   49.6600 N   0  0  0  0  0  0  0  0  0  0  0  0
   51.3110   31.9620   50.8940 C   0  0  0  0  0  0  0  0  0  0  0  0
   51.0070   33.0930   51.6420 O   0  0  0  0  0  0  0  0  0  0  0  0
   53.9570   28.7710   53.2320 C   0  0  0  0  0  0  0  0  0  0  0  0
   55.2770   28.4010   53.3790 C   0  0  0  0  0  0  0  0  0  0  0  0
   55.7190   27.0620   53.8900 C   0  0  0  0  0  0  0  0  0  0  0  0
   56.1000   29.4360   53.0830 N   0  0  0  0  0  0  0  0  0  0  0  0
   57.5680   29.4150   53.2080 C   0  0  0  0  0  0  0  0  0  0  0  0
   58.2060   30.2110   52.0980 C   0  0  0  0  0  0  0  0  0  0  0  0
   58.1670   29.7430   50.7760 C   0  0  0  0  0  0  0  0  0  0  0  0
   58.7320   30.4940   49.7430 C   0  0  0  0  0  0  0  0  0  0  0  0
   59.3500   31.7260   50.0120 C   0  0  0  0  0  0  0  0  0  0  0  0
   59.9110   32.5130   48.9430 N   0  0  0  0  0  0  0  0  0  0  0  0
   59.6640   33.9630   48.8970 C   0  0  0  0  0  0  0  0  0  0  0  0
   59.9620   34.5420   47.5040 C   0  0  0  0  0  0  0  0  0  0  0  0
   59.4370   33.5840   46.4110 C   0  0  0  0  0  0  0  0  0  0  0  0
   59.4580   34.2060   44.9870 C   0  0  0  0  0  0  0  0  0  0  0  0
   58.1810   34.0870   44.2420 N   0  0  0  0  0  0  0  0  0  0  0  0
   58.1330   32.7900   43.5460 C   0  0  0  0  0  0  0  0  0  0  0  0
   57.0090   34.2150   45.1270 C   0  0  0  0  0  0  0  0  0  0  0  0
   60.0840   32.1720   46.4980 C   0  0  0  0  0  0  0  0  0  0  0  0
   60.6980   31.8800   47.8770 C   0  0  0  0  0  0  0  0  0  0  0  0
   59.3860   32.1950   51.3360 C   0  0  0  0  0  0  0  0  0  0  0  0
   58.8230   31.4420   52.3700 C   0  0  0  0  0  0  0  0  0  0  0  0
  1  2  2  0
  2  3  1  0
  3  4  2  0
  4  5  1  0
  5  6  1  0
  6  7  1  0
  7  8  2  0
  7  9  1  0
  9 10  1  0
 10 11  1  0
  3 12  1  0
 12 13  2  0
 13 14  1  0
 13 15  1  0
 15 16  1  0
 16 17  1  0
 17 18  2  0
 18 19  1  0
 19 20  2  0
 20 21  1  0
 21 22  1  0
 22 23  1  0
 23 24  1  0
 24 25  1  0
 25 26  1  0
 26 27  1  0
 26 28  1  0
 24 29  1  0
 29 30  1  0
 20 31  1  0
 31 32  2  0
 15  2  1  0
 32 17  1  0
 10  5  2  0
 30 21  1  0
M  CHG  3   6  -1   9  -1  11  -1
M  END
>  <UniqueID>  (2154) 
35

>  <SMILES>  (2154) 
C=c1/c(=C/c2[n-]c(=O)[n-]c2[O-])cc(C)n1Cc1ccc(N2CCC(CN(C)C)CC2)cc1

>  <Energy>  (2154) 
137.1947370922166

>  <Genealogy>  (2154) 
C=c1c(=Cc2[n-]c(=O)[n-]c2[O-])cc(C)n1Cc1ccc(N2CCC(CN(C)C)CC2)cc1 (protonated)
C=c1/c(=C/c2[n-]c(=O)[n-]c2[O-])cc(C)n1Cc1ccc(N2CCC(CN(C)C)CC2)cc1 (cis-trans isomerization)
C=c1/c(=C/c2[n-]c(=O)[n-]c2[O-])cc(C)n1Cc1ccc(N2CCC(CN(C)C)CC2)cc1 (3D coordinates assigned)
C=c1/c(=C/c2[n-]c(=O)[n-]c2[O-])cc(C)n1Cc1ccc(N2CCC(CN(C)C)CC2)cc1 (nonaromatic ring conformer: 137.1947370922166 kcal/mol)

>  <smiles>  (2154) 
C=c1c(=Cc2[nH]c(=O)[nH]c2O)cc(C)n1Cc1ccc(N2CCC(CN(C)C)CC2)cc1

>  <score_type>  (2154) 
oracle

>  <origin>  (2154) 
adg

>  <m_score__min__energy>  (2154) 
-18.149999999999999

>  <m_primary>  (2154) 
energy

$$$$
41:0
     RDKit          3D

 34 37  0  0  0  0  0  0  0  0999 V2000
   55.3520   27.9320   53.5440 C   0  0  0  0  0  0  0  0  0  0  0  0
   55.5510   29.1950   53.1290 C   0  0  0  0  0  0  0  0  0  0  0  0
   54.6690   29.9780   52.3650 C   0  0  0  0  0  0  0  0  0  0  0  0
   53.3840   29.7780   52.0080 C   0  0  0  0  0  0  0  0  0  0  0  0
   52.4080   30.8300   51.6860 C   0  0  0  0  0  0  0  0  0  0  0  0
   52.0340   31.7830   52.5560 N   0  0  0  0  0  0  0  0  0  0  0  0
   51.0720   32.4570   51.8890 C   0  0  0  0  0  0  0  0  0  0  0  0
   50.4760   33.4500   52.3800 O   0  0  0  0  0  0  0  0  0  0  0  0
   50.7920   31.9750   50.6600 N   0  0  0  0  0  0  0  0  0  0  0  0
   51.6330   30.9340   50.5480 C   0  0  0  0  0  0  0  0  0  0  0  0
   51.6670   30.0950   49.4370 O   0  0  0  0  0  0  0  0  0  0  0  0
   55.3750   31.1100   52.0000 C   0  0  0  0  0  0  0  0  0  0  0  0
   56.6100   31.0210   52.6000 C   0  0  0  0  0  0  0  0  0  0  0  0
   57.6580   32.0510   52.4740 C   0  0  0  0  0  0  0  0  0  0  0  0
   57.8260   32.8580   53.4290 O   0  0  0  0  0  0  0  0  0  0  0  0
   58.4980   32.1370   51.3070 N   0  0  0  0  0  0  0  0  0  0  0  0
   58.8810   30.9250   50.5620 C   0  0  0  0  0  0  0  0  0  0  0  0
   58.8780   31.1930   49.0490 C   0  0  0  0  0  0  0  0  0  0  0  0
   59.4220   32.5220   48.7270 N   0  0  0  0  0  0  0  0  0  0  0  0
   59.2410   33.0670   47.4050 C   0  0  0  0  0  0  0  0  0  0  0  0
   59.6190   34.3900   47.1240 C   0  0  0  0  0  0  0  0  0  0  0  0
   59.4180   34.9270   45.8510 C   0  0  0  0  0  0  0  0  0  0  0  0
   58.8400   34.1520   44.8440 C   0  0  0  0  0  0  0  0  0  0  0  0
   58.4710   32.8200   45.0970 C   0  0  0  0  0  0  0  0  0  0  0  0
   57.7980   32.0000   44.0250 C   0  0  0  0  0  0  0  0  0  0  0  0
   57.7010   32.7230   42.8490 F   0  0  0  0  0  0  0  0  0  0  0  0
   58.5180   30.8470   43.7640 F   0  0  0  0  0  0  0  0  0  0  0  0
   56.5270   31.6520   44.4470 F   0  0  0  0  0  0  0  0  0  0  0  0
   58.6510   32.2940   46.3900 C   0  0  0  0  0  0  0  0  0  0  0  0
   60.0710   33.3070   49.7830 C   0  0  0  0  0  0  0  0  0  0  0  0
   59.1270   33.4270   50.9810 C   0  0  0  0  0  0  0  0  0  0  0  0
   56.7260   29.8630   53.2940 N   0  0  0  0  0  0  0  0  0  0  0  0
   57.9670   29.3450   53.8920 C   0  0  0  0  0  0  0  0  0  0  0  0
   58.2340   30.0160   55.2340 C   0  0  0  0  0  0  0  0  0  0  0  0
  1  2  2  0
  2  3  1  0
  3  4  2  3
  4  5  1  0
  5  6  1  0
  6  7  1  0
  7  8  2  0
  7  9  1  0
  9 10  1  0
 10 11  1  0
  3 12  1  0
 12 13  2  0
 13 14  1  0
 14 15  2  0
 14 16  1  0
 16 17  1  0
 17 18  1  0
 18 19  1  0
 19 20  1  0
 20 21  2  0
 21 22  1  0
 22 23  2  0
 23 24  1  0
 24 25  1  0
 25 26  1  0
 25 27  1  0
 25 28  1  0
 24 29  2  0
 19 30  1  0
 30 31  1  0
 13 32  1  0
 32 33  1  0
 33 34  1  0
 32  2  1  0
 10  5  2  0
 31 16  1  0
 29 20  1  0
M  CHG  2   6  -1   9  -1
M  END
>  <UniqueID>  (2155) 
42

>  <SMILES>  (2155) 
C=c1c(=Cc2[n-]c(=O)[n-]c2O)cc(C(=O)N2CCN(c3cccc(C(F)(F)F)c3)CC2)n1CC

>  <Energy>  (2155) 
136.5994401419719

>  <Genealogy>  (2155) 
C=c1c(=Cc2[n-]c(=O)[n-]c2O)cc(C(=O)N2CCN(c3cccc(C(F)(F)F)c3)CC2)n1CC (protonated)
C=c1c(=Cc2[n-]c(=O)[n-]c2O)cc(C(=O)N2CCN(c3cccc(C(F)(F)F)c3)CC2)n1CC (3D coordinates assigned)
C=c1c(=Cc2[n-]c(=O)[n-]c2O)cc(C(=O)N2CCN(c3cccc(C(F)(F)F)c3)CC2)n1CC (nonaromatic ring conformer: 136.5994401419719 kcal/mol)

>  <smiles>  (2155) 
C=c1c(=Cc2[nH]c(=O)[nH]c2O)cc(C(=O)N2CCN(c3cccc(C(F)(F)F)c3)CC2)n1CC

>  <score_type>  (2155) 
oracle

>  <origin>  (2155) 
adg

>  <m_score__min__energy>  (2155) 
-14.109999999999999

>  <m_primary>  (2155) 
energy

$$$$
48:0
     RDKit          3D

 32 35  0  0  0  0  0  0  0  0999 V2000
   57.4840   25.6490   43.8590 C   0  0  0  0  0  0  0  0  0  0  0  0
   57.5070   25.7620   45.1950 C   0  0  0  0  0  0  0  0  0  0  0  0
   56.9720   24.8810   46.1470 C   0  0  0  0  0  0  0  0  0  0  0  0
   56.1450   23.8290   45.9920 C   0  0  0  0  0  0  0  0  0  0  0  0
   54.7040   23.9010   45.7050 C   0  0  0  0  0  0  0  0  0  0  0  0
   53.9500   22.8620   45.3000 N   0  0  0  0  0  0  0  0  0  0  0  0
   52.7550   23.4320   45.0300 C   0  0  0  0  0  0  0  0  0  0  0  0
   51.7620   22.7680   44.6310 O   0  0  0  0  0  0  0  0  0  0  0  0
   52.7120   24.7700   45.2080 N   0  0  0  0  0  0  0  0  0  0  0  0
   53.9580   25.0510   45.6210 C   0  0  0  0  0  0  0  0  0  0  0  0
   54.4050   26.3340   45.9110 O   0  0  0  0  0  0  0  0  0  0  0  0
   57.4030   25.2470   47.3730 N   0  0  0  0  0  0  0  0  0  0  0  0
   58.1380   26.3530   47.1560 C   0  0  0  0  0  0  0  0  0  0  0  0
   58.7060   26.9840   48.0860 O   0  0  0  0  0  0  0  0  0  0  0  0
   58.2150   26.7080   45.8570 N   0  0  0  0  0  0  0  0  0  0  0  0
   59.0070   27.8160   45.3040 C   0  0  0  0  0  0  0  0  0  0  0  0
   58.1330   29.0160   45.0270 C   0  0  0  0  0  0  0  0  0  0  0  0
   56.7810   28.8350   44.6970 C   0  0  0  0  0  0  0  0  0  0  0  0
   55.9780   29.9460   44.4370 C   0  0  0  0  0  0  0  0  0  0  0  0
   56.5050   31.1960   44.4920 N   0  0  0  0  0  0  0  0  0  0  0  0
   57.8160   31.4090   44.7960 C   0  0  0  0  0  0  0  0  0  0  0  0
   58.3370   32.7050   44.8410 O   0  0  0  0  0  0  0  0  0  0  0  0
   58.0150   33.6340   45.8710 C   0  0  0  0  0  0  0  0  0  0  0  0
   58.7310   33.2510   47.1290 C   0  0  0  0  0  0  0  0  0  0  0  0
   58.0590   32.8480   48.1170 O   0  0  0  0  0  0  0  0  0  0  0  0
   60.1650   33.3180   47.2220 N   0  0  0  0  0  0  0  0  0  0  0  0
   60.8990   32.9060   48.4060 C   0  0  0  0  0  0  0  0  0  0  0  0
   62.3720   32.9710   48.0190 C   0  0  0  0  0  0  0  0  0  0  0  0
   62.4350   33.8230   46.7550 C   0  0  0  0  0  0  0  0  0  0  0  0
   61.0340   33.7910   46.1570 C   0  0  0  0  0  0  0  0  0  0  0  0
   58.6550   30.3220   45.0640 C   0  0  0  0  0  0  0  0  0  0  0  0
   59.9630   30.5450   45.3510 F   0  0  0  0  0  0  0  0  0  0  0  0
  1  2  2  0
  2  3  1  0
  3  4  2  3
  4  5  1  0
  5  6  1  0
  6  7  1  0
  7  8  2  0
  7  9  1  0
  9 10  1  0
 10 11  1  0
  3 12  1  0
 12 13  1  0
 13 14  2  0
 13 15  1  0
 15 16  1  0
 16 17  1  0
 17 18  2  0
 18 19  1  0
 19 20  2  0
 20 21  1  0
 21 22  1  0
 22 23  1  0
 23 24  1  0
 24 25  2  0
 24 26  1  0
 26 27  1  0
 27 28  1  0
 28 29  1  0
 29 30  1  0
 21 31  2  0
 31 32  1  0
 15  2  1  0
 31 17  1  0
 10  5  2  0
 30 26  1  0
M  CHG  4   6  -1   9  -1  11  -1  12  -1
M  END
>  <UniqueID>  (2156) 
49

>  <SMILES>  (2156) 
C=c1c(=Cc2[n-]c(=O)[n-]c2[O-])[n-]c(=O)n1Cc1ccnc(OCC(=O)N2CCCC2)c1F

>  <Energy>  (2156) 
121.81720182203968

>  <Genealogy>  (2156) 
C=c1c(=Cc2[n-]c(=O)[n-]c2[O-])[n-]c(=O)n1Cc1ccnc(OCC(=O)N2CCCC2)c1F (protonated)
C=c1c(=Cc2[n-]c(=O)[n-]c2[O-])[n-]c(=O)n1Cc1ccnc(OCC(=O)N2CCCC2)c1F (3D coordinates assigned)
C=c1c(=Cc2[n-]c(=O)[n-]c2[O-])[n-]c(=O)n1Cc1ccnc(OCC(=O)N2CCCC2)c1F (nonaromatic ring conformer: 121.81720182203968 kcal/mol)

>  <smiles>  (2156) 
C=c1c(=Cc2[nH]c(=O)[nH]c2O)[nH]c(=O)n1Cc1ccnc(OCC(=O)N2CCCC2)c1F

>  <score_type>  (2156) 
oracle

>  <origin>  (2156) 
adg

>  <m_score__min__energy>  (2156) 
-18.010000000000002

>  <m_primary>  (2156) 
energy

$$$$
51:0
     RDKit          3D

 37 41  0  0  0  0  0  0  0  0999 V2000
   58.5540   30.0820   48.3790 C   0  0  0  0  0  0  0  0  0  0  0  0
   58.4920   30.4850   47.1000 C   0  0  0  0  0  0  0  0  0  0  0  0
   58.3780   29.6570   45.9690 C   0  0  0  0  0  0  0  0  0  0  0  0
   58.4910   28.3210   45.8320 C   0  0  0  0  0  0  0  0  0  0  0  0
   57.4310   27.3340   46.0960 C   0  0  0  0  0  0  0  0  0  0  0  0
   57.6430   26.0870   46.5580 N   0  0  0  0  0  0  0  0  0  0  0  0
   56.4180   25.5200   46.4920 C   0  0  0  0  0  0  0  0  0  0  0  0
   56.1990   24.3350   46.8580 O   0  0  0  0  0  0  0  0  0  0  0  0
   55.4490   26.3190   45.9960 N   0  0  0  0  0  0  0  0  0  0  0  0
   56.1110   27.4580   45.7380 C   0  0  0  0  0  0  0  0  0  0  0  0
   55.5230   28.5850   45.1770 O   0  0  0  0  0  0  0  0  0  0  0  0
   58.1130   30.4920   44.9010 C   0  0  0  0  0  0  0  0  0  0  0  0
   58.1500   31.7840   45.3820 C   0  0  0  0  0  0  0  0  0  0  0  0
   57.8870   32.9960   44.5410 C   0  0  0  0  0  0  0  0  0  0  0  0
   58.3810   31.7900   46.7170 N   0  0  0  0  0  0  0  0  0  0  0  0
   58.4160   32.9950   47.5650 C   0  0  0  0  0  0  0  0  0  0  0  0
   59.7600   33.1450   48.2320 C   0  0  0  0  0  0  0  0  0  0  0  0
   59.8550   33.2160   49.6310 C   0  0  0  0  0  0  0  0  0  0  0  0
   61.1020   33.3320   50.2520 C   0  0  0  0  0  0  0  0  0  0  0  0
   62.2760   33.3930   49.4830 C   0  0  0  0  0  0  0  0  0  0  0  0
   63.6040   33.4860   50.1310 C   0  0  0  0  0  0  0  0  0  0  0  0
   64.0020   34.6070   50.5500 O   0  0  0  0  0  0  0  0  0  0  0  0
   64.4560   32.3330   50.2880 N   0  0  0  0  0  0  0  0  0  0  0  0
   63.8920   31.0020   50.5560 C   0  0  0  0  0  0  0  0  0  0  0  0
   64.6940   30.2480   51.6420 C   0  0  0  0  0  0  0  0  0  0  0  0
   66.0790   30.7550   51.8200 N   0  0  0  0  0  0  0  0  0  0  0  0
   66.9510   29.7340   52.4370 C   0  0  0  0  0  0  0  0  0  0  0  0
   66.9470   28.4670   51.6210 C   0  0  0  0  0  0  0  0  0  0  0  0
   67.8380   28.3210   50.5440 C   0  0  0  0  0  0  0  0  0  0  0  0
   67.8520   27.1400   49.7980 C   0  0  0  0  0  0  0  0  0  0  0  0
   66.9810   26.0960   50.1220 C   0  0  0  0  0  0  0  0  0  0  0  0
   66.0890   26.2340   51.1890 C   0  0  0  0  0  0  0  0  0  0  0  0
   66.0710   27.4140   51.9400 C   0  0  0  0  0  0  0  0  0  0  0  0
   66.6490   31.2260   50.5470 C   0  0  0  0  0  0  0  0  0  0  0  0
   65.9050   32.4900   50.1180 C   0  0  0  0  0  0  0  0  0  0  0  0
   62.1810   33.3130   48.0840 C   0  0  0  0  0  0  0  0  0  0  0  0
   60.9330   33.1950   47.4640 C   0  0  0  0  0  0  0  0  0  0  0  0
  1  2  2  0
  2  3  1  0
  3  4  2  3
  4  5  1  0
  5  6  1  0
  6  7  1  0
  7  8  2  0
  7  9  1  0
  9 10  1  0
 10 11  1  0
  3 12  1  0
 12 13  2  0
 13 14  1  0
 13 15  1  0
 15 16  1  0
 16 17  1  0
 17 18  2  0
 18 19  1  0
 19 20  2  0
 20 21  1  0
 21 22  2  0
 21 23  1  0
 23 24  1  0
 24 25  1  0
 25 26  1  0
 26 27  1  0
 27 28  1  0
 28 29  2  0
 29 30  1  0
 30 31  2  0
 31 32  1  0
 32 33  2  0
 26 34  1  0
 34 35  1  0
 20 36  1  0
 36 37  2  0
 15  2  1  0
 37 17  1  0
 10  5  2  0
 35 23  1  0
 33 28  1  0
M  CHG  3   6  -1   9  -1  11  -1
M  END
>  <UniqueID>  (2157) 
52

>  <SMILES>  (2157) 
C=c1c(=Cc2[n-]c(=O)[n-]c2[O-])cc(C)n1Cc1ccc(C(=O)N2CCN(Cc3ccccc3)CC2)cc1

>  <Energy>  (2157) 
149.12528376635362

>  <Genealogy>  (2157) 
C=c1c(=Cc2[n-]c(=O)[n-]c2[O-])cc(C)n1Cc1ccc(C(=O)N2CCN(Cc3ccccc3)CC2)cc1 (protonated)
C=c1c(=Cc2[n-]c(=O)[n-]c2[O-])cc(C)n1Cc1ccc(C(=O)N2CCN(Cc3ccccc3)CC2)cc1 (3D coordinates assigned)
C=c1c(=Cc2[n-]c(=O)[n-]c2[O-])cc(C)n1Cc1ccc(C(=O)N2CCN(Cc3ccccc3)CC2)cc1 (nonaromatic ring conformer: 149.12528376635362 kcal/mol)

>  <smiles>  (2157) 
C=c1c(=Cc2[nH]c(=O)[nH]c2O)cc(C)n1Cc1ccc(C(=O)N2CCN(Cc3ccccc3)CC2)cc1

>  <score_type>  (2157) 
oracle

>  <origin>  (2157) 
adg

>  <m_score__min__energy>  (2157) 
-17.379999999999999

>  <m_primary>  (2157) 
energy

$$$$
56:0
     RDKit          3D

 31 34  0  0  0  0  0  0  0  0999 V2000
   57.9870   30.7570   45.3850 C   0  0  0  0  0  0  0  0  0  0  0  0
   58.6690   30.1050   46.3430 C   0  0  0  0  0  0  0  0  0  0  0  0
   58.7620   28.7130   46.5000 C   0  0  0  0  0  0  0  0  0  0  0  0
   58.4080   27.7020   45.6830 C   0  0  0  0  0  0  0  0  0  0  0  0
   57.1970   26.8760   45.8180 C   0  0  0  0  0  0  0  0  0  0  0  0
   57.1760   25.6200   46.3030 N   0  0  0  0  0  0  0  0  0  0  0  0
   55.8570   25.3370   46.3780 C   0  0  0  0  0  0  0  0  0  0  0  0
   55.4230   24.2270   46.7830 O   0  0  0  0  0  0  0  0  0  0  0  0
   55.0380   26.3430   45.9970 N   0  0  0  0  0  0  0  0  0  0  0  0
   55.9040   27.3130   45.6600 C   0  0  0  0  0  0  0  0  0  0  0  0
   55.5200   28.5760   45.2290 O   0  0  0  0  0  0  0  0  0  0  0  0
   59.3490   28.5010   47.7340 C   0  0  0  0  0  0  0  0  0  0  0  0
   59.6560   29.7410   48.2540 C   0  0  0  0  0  0  0  0  0  0  0  0
   60.3280   29.9420   49.5570 C   0  0  0  0  0  0  0  0  0  0  0  0
   61.4710   29.4470   49.7490 O   0  0  0  0  0  0  0  0  0  0  0  0
   59.7200   30.7410   50.5890 N   0  0  0  0  0  0  0  0  0  0  0  0
   58.2960   30.6090   50.9100 C   0  0  0  0  0  0  0  0  0  0  0  0
   57.7270   31.9960   51.2210 C   0  0  0  0  0  0  0  0  0  0  0  0
   58.4590   32.6920   52.3110 N   0  0  0  0  0  0  0  0  0  0  0  0
   58.5410   34.1400   52.0570 C   0  0  0  0  0  0  0  0  0  0  0  0
   59.7880   32.1240   52.6450 C   0  0  0  0  0  0  0  0  0  0  0  0
   60.5560   31.6220   51.4110 C   0  0  0  0  0  0  0  0  0  0  0  0
   59.2490   30.7220   47.4110 N   0  0  0  0  0  0  0  0  0  0  0  0
   59.4270   32.1690   47.6260 C   0  0  0  0  0  0  0  0  0  0  0  0
   60.8760   32.5340   47.8640 C   0  0  0  0  0  0  0  0  0  0  0  0
   61.9240   31.8410   47.2250 C   0  0  0  0  0  0  0  0  0  0  0  0
   63.2550   32.1790   47.4850 C   0  0  0  0  0  0  0  0  0  0  0  0
   63.5570   33.1970   48.3930 C   0  0  0  0  0  0  0  0  0  0  0  0
   64.8490   33.5230   48.6420 F   0  0  0  0  0  0  0  0  0  0  0  0
   62.5260   33.8710   49.0510 C   0  0  0  0  0  0  0  0  0  0  0  0
   61.1930   33.5380   48.7950 C   0  0  0  0  0  0  0  0  0  0  0  0
  1  2  2  0
  2  3  1  0
  3  4  2  0
  4  5  1  0
  5  6  1  0
  6  7  1  0
  7  8  2  0
  7  9  1  0
  9 10  1  0
 10 11  1  0
  3 12  1  0
 12 13  2  0
 13 14  1  0
 14 15  2  0
 14 16  1  0
 16 17  1  0
 17 18  1  0
 18 19  1  0
 19 20  1  0
 19 21  1  0
 21 22  1  0
 13 23  1  0
 23 24  1  0
 24 25  1  0
 25 26  2  0
 26 27  1  0
 27 28  2  0
 28 29  1  0
 28 30  1  0
 30 31  2  0
 23  2  1  0
 31 25  1  0
 10  5  2  0
 22 16  1  0
M  CHG  3   6  -1   9  -1  11  -1
M  END
>  <UniqueID>  (2158) 
57

>  <SMILES>  (2158) 
C=c1/c(=C\c2[n-]c(=O)[n-]c2[O-])cc(C(=O)N2CCN(C)CC2)n1Cc1ccc(F)cc1

>  <Energy>  (2158) 
137.4229820317474

>  <Genealogy>  (2158) 
C=c1c(=Cc2[n-]c(=O)[n-]c2[O-])cc(C(=O)N2CCN(C)CC2)n1Cc1ccc(F)cc1 (protonated)
C=c1/c(=C\c2[n-]c(=O)[n-]c2[O-])cc(C(=O)N2CCN(C)CC2)n1Cc1ccc(F)cc1 (cis-trans isomerization)
C=c1/c(=C\c2[n-]c(=O)[n-]c2[O-])cc(C(=O)N2CCN(C)CC2)n1Cc1ccc(F)cc1 (3D coordinates assigned)
C=c1/c(=C\c2[n-]c(=O)[n-]c2[O-])cc(C(=O)N2CCN(C)CC2)n1Cc1ccc(F)cc1 (nonaromatic ring conformer: 137.4229820317474 kcal/mol)

>  <smiles>  (2158) 
C=c1c(=Cc2[nH]c(=O)[nH]c2O)cc(C(=O)N2CCN(C)CC2)n1Cc1ccc(F)cc1

>  <score_type>  (2158) 
oracle

>  <origin>  (2158) 
adg

>  <m_score__min__energy>  (2158) 
-16.289999999999999

>  <m_primary>  (2158) 
energy

$$$$
65:0
     RDKit          3D

 33 36  0  0  0  0  0  0  0  0999 V2000
   54.7340   22.1750   45.4750 C   0  0  0  0  0  0  0  0  0  0  0  0
   55.9020   22.8700   45.4150 N   0  0  0  0  0  0  0  0  0  0  0  0
   55.9380   24.2320   45.4700 C   0  0  0  0  0  0  0  0  0  0  0  0
   57.0690   24.8780   45.4000 N   0  0  0  0  0  0  0  0  0  0  0  0
   57.5190   25.9060   46.3000 C   0  0  0  0  0  0  0  0  0  0  0  0
   57.2820   25.7740   47.5290 O   0  0  0  0  0  0  0  0  0  0  0  0
   58.1810   27.1440   45.8140 C   0  0  0  0  0  0  0  0  0  0  0  0
   57.4100   28.2780   45.5130 C   0  0  0  0  0  0  0  0  0  0  0  0
   58.0020   29.4220   44.9680 C   0  0  0  0  0  0  0  0  0  0  0  0
   56.9730   30.7470   44.4420 S   0  0  0  0  0  0  0  0  0  0  0  0
   57.4570   31.2330   43.1050 O   0  0  0  0  0  0  0  0  0  0  0  0
   55.5580   30.2570   44.3050 O   0  0  0  0  0  0  0  0  0  0  0  0
   57.0880   32.0010   45.6660 N   0  0  0  0  0  0  0  0  0  0  0  0
   58.1120   31.7430   46.6860 C   0  0  0  0  0  0  0  0  0  0  0  0
   59.5310   32.0600   46.1880 C   0  0  0  0  0  0  0  0  0  0  0  0
   59.6330   33.3920   45.5670 N   0  0  0  0  0  0  0  0  0  0  0  0
   60.1210   34.4930   46.4240 C   0  0  0  0  0  0  0  0  0  0  0  0
   61.2920   34.1160   47.2980 C   0  0  0  0  0  0  0  0  0  0  0  0
   61.1810   34.1730   48.6980 C   0  0  0  0  0  0  0  0  0  0  0  0
   62.2740   33.8440   49.5070 C   0  0  0  0  0  0  0  0  0  0  0  0
   63.4870   33.4690   48.9260 C   0  0  0  0  0  0  0  0  0  0  0  0
   63.6130   33.4250   47.5340 C   0  0  0  0  0  0  0  0  0  0  0  0
   62.5240   33.7580   46.7230 C   0  0  0  0  0  0  0  0  0  0  0  0
   58.5660   33.7220   44.6040 C   0  0  0  0  0  0  0  0  0  0  0  0
   57.1620   33.3640   45.1220 C   0  0  0  0  0  0  0  0  0  0  0  0
   59.3910   29.4700   44.7970 C   0  0  0  0  0  0  0  0  0  0  0  0
   60.1750   28.3680   45.1450 C   0  0  0  0  0  0  0  0  0  0  0  0
   59.5780   27.2040   45.6430 C   0  0  0  0  0  0  0  0  0  0  0  0
   60.3620   26.1340   45.9290 F   0  0  0  0  0  0  0  0  0  0  0  0
   54.7390   24.9480   45.6170 C   0  0  0  0  0  0  0  0  0  0  0  0
   54.7420   26.3360   45.6860 O   0  0  0  0  0  0  0  0  0  0  0  0
   53.5290   24.2500   45.6820 C   0  0  0  0  0  0  0  0  0  0  0  0
   53.5240   22.8560   45.6090 C   0  0  0  0  0  0  0  0  0  0  0  0
  1  2  1  0
  2  3  1  0
  3  4  2  0
  4  5  1  0
  5  6  2  0
  5  7  1  0
  7  8  2  0
  8  9  1  0
  9 10  1  0
 10 11  2  0
 10 12  2  0
 10 13  1  0
 13 14  1  0
 14 15  1  0
 15 16  1  0
 16 17  1  0
 17 18  1  0
 18 19  2  0
 19 20  1  0
 20 21  2  0
 21 22  1  0
 22 23  2  0
 16 24  1  0
 24 25  1  0
  9 26  2  0
 26 27  1  0
 27 28  2  0
 28 29  1  0
  3 30  1  0
 30 31  1  0
 30 32  2  0
 32 33  1  0
 33  1  2  0
 28  7  1  0
 25 13  1  0
 23 18  1  0
M  CHG  2   2  -1  31  -1
M  END
>  <UniqueID>  (2159) 
64

>  <SMILES>  (2159) 
O=C(/N=c1\[n-]cccc1[O-])c1cc(S(=O)(=O)N2CCN(Cc3ccccc3)CC2)ccc1F

>  <Energy>  (2159) 
77.3312738510525

>  <Genealogy>  (2159) 
O=C(N=c1[n-]cccc1[O-])c1cc(S(=O)(=O)N2CCN(Cc3ccccc3)CC2)ccc1F (protonated)
O=C(/N=c1\[n-]cccc1[O-])c1cc(S(=O)(=O)N2CCN(Cc3ccccc3)CC2)ccc1F (cis-trans isomerization)
O=C(/N=c1\[n-]cccc1[O-])c1cc(S(=O)(=O)N2CCN(Cc3ccccc3)CC2)ccc1F (3D coordinates assigned)
O=C(/N=c1\[n-]cccc1[O-])c1cc(S(=O)(=O)N2CCN(Cc3ccccc3)CC2)ccc1F (nonaromatic ring conformer: 77.3312738510525 kcal/mol)

>  <smiles>  (2159) 
O=C(N=c1[nH]cccc1O)c1cc(S(=O)(=O)N2CCN(Cc3ccccc3)CC2)ccc1F

>  <score_type>  (2159) 
oracle

>  <origin>  (2159) 
adg

>  <m_score__min__energy>  (2159) 
-16.100000000000001

>  <m_primary>  (2159) 
energy

$$$$
82:0
     RDKit          3D

 32 35  0  0  0  0  0  0  0  0999 V2000
   60.5170   28.4510   45.0570 O   0  0  0  0  0  0  0  0  0  0  0  0
   59.3910   28.5420   45.6110 C   0  0  0  0  0  0  0  0  0  0  0  0
   59.2000   27.9140   46.9680 C   0  0  0  0  0  0  0  0  0  0  0  0
   57.7540   27.4530   47.1820 C   0  0  0  0  0  0  0  0  0  0  0  0
   57.4420   26.2800   46.3620 N   0  0  0  0  0  0  0  0  0  0  0  0
   56.2380   25.9540   45.8440 C   0  0  0  0  0  0  0  0  0  0  0  0
   55.0860   26.7160   45.9970 O   0  0  0  0  0  0  0  0  0  0  0  0
   56.3170   24.7550   45.1650 C   0  0  0  0  0  0  0  0  0  0  0  0
   57.6180   24.3310   45.2710 C   0  0  0  0  0  0  0  0  0  0  0  0
   58.2840   25.2840   46.0140 C   0  0  0  0  0  0  0  0  0  0  0  0
   59.6270   25.2290   46.3760 O   0  0  0  0  0  0  0  0  0  0  0  0
   58.1340   23.0540   44.6880 C   0  0  0  0  0  0  0  0  0  0  0  0
   57.0200   22.2300   44.0740 C   0  0  0  0  0  0  0  0  0  0  0  0
   55.7370   22.6420   43.9800 C   0  0  0  0  0  0  0  0  0  0  0  0
   55.2350   23.9810   44.4870 C   0  0  0  0  0  0  0  0  0  0  0  0
   58.3840   29.3550   44.9910 N   0  0  0  0  0  0  0  0  0  0  0  0
   58.1840   30.7620   45.1740 C   0  0  0  0  0  0  0  0  0  0  0  0
   59.1820   31.5700   45.7450 C   0  0  0  0  0  0  0  0  0  0  0  0
   58.9580   32.9410   45.9460 C   0  0  0  0  0  0  0  0  0  0  0  0
   60.2030   33.9430   46.7010 S   0  0  0  0  0  0  0  0  0  0  0  0
   59.8330   34.2010   48.1370 O   0  0  0  0  0  0  0  0  0  0  0  0
   60.2700   35.2680   45.9930 O   0  0  0  0  0  0  0  0  0  0  0  0
   61.7720   33.1710   46.6370 N   0  0  0  0  0  0  0  0  0  0  0  0
   61.8370   32.0470   47.5990 C   0  0  0  0  0  0  0  0  0  0  0  0
   63.2840   31.6350   47.8820 C   0  0  0  0  0  0  0  0  0  0  0  0
   64.0660   32.7890   48.5350 C   0  0  0  0  0  0  0  0  0  0  0  0
   63.5120   34.1730   48.1560 C   0  0  0  0  0  0  0  0  0  0  0  0
   62.8750   34.1580   46.7580 C   0  0  0  0  0  0  0  0  0  0  0  0
   57.7290   33.5030   45.5780 C   0  0  0  0  0  0  0  0  0  0  0  0
   56.7160   32.6940   45.0570 C   0  0  0  0  0  0  0  0  0  0  0  0
   56.9340   31.3250   44.8750 C   0  0  0  0  0  0  0  0  0  0  0  0
   55.9030   30.5250   44.3950 O   0  0  0  0  0  0  0  0  0  0  0  0
  1  2  2  0
  2  3  1  0
  3  4  1  0
  4  5  1  0
  5  6  1  0
  6  7  1  0
  6  8  2  0
  8  9  1  0
  9 10  2  0
 10 11  1  0
  9 12  1  0
 12 13  1  0
 13 14  2  0
 14 15  1  0
  2 16  1  0
 16 17  1  0
 17 18  2  0
 18 19  1  0
 19 20  1  0
 20 21  2  0
 20 22  2  0
 20 23  1  0
 23 24  1  0
 24 25  1  0
 25 26  1  0
 26 27  1  0
 27 28  1  0
 19 29  2  0
 29 30  1  0
 30 31  2  0
 31 32  1  0
 10  5  1  0
 31 17  1  0
 15  8  1  0
 28 23  1  0
M  CHG  4   7  -1  11  -1  16  -1  32  -1
M  END
>  <UniqueID>  (2160) 
80

>  <SMILES>  (2160) 
O=C(CCn1c([O-])c2c(c1[O-])CC=CC2)[N-]c1cc(S(=O)(=O)N2CCCCC2)ccc1[O-]

>  <Energy>  (2160) 
92.24972392029208

>  <Genealogy>  (2160) 
O=C(CCn1c([O-])c2c(c1[O-])CC=CC2)[N-]c1cc(S(=O)(=O)N2CCCCC2)ccc1[O-] (protonated)
O=C(CCn1c([O-])c2c(c1[O-])CC=CC2)[N-]c1cc(S(=O)(=O)N2CCCCC2)ccc1[O-] (3D coordinates assigned)
O=C(CCn1c([O-])c2c(c1[O-])CC=CC2)[N-]c1cc(S(=O)(=O)N2CCCCC2)ccc1[O-] (nonaromatic ring conformer: 92.24972392029208 kcal/mol)

>  <smiles>  (2160) 
O=C(CCn1c(O)c2c(c1O)CC=CC2)Nc1cc(S(=O)(=O)N2CCCCC2)ccc1O

>  <score_type>  (2160) 
oracle

>  <origin>  (2160) 
adg

>  <m_score__min__energy>  (2160) 
-17.289999999999999

>  <m_primary>  (2160) 
energy

$$$$
89:0
     RDKit          3D

 31 34  0  0  0  0  0  0  0  0999 V2000
   60.5520   27.3610   46.9020 C   0  0  0  0  0  0  0  0  0  0  0  0
   59.6410   28.3300   47.0900 C   0  0  0  0  0  0  0  0  0  0  0  0
   58.3940   28.4300   46.4530 C   0  0  0  0  0  0  0  0  0  0  0  0
   57.6960   27.5350   45.7270 C   0  0  0  0  0  0  0  0  0  0  0  0
   57.1800   26.2470   46.2210 C   0  0  0  0  0  0  0  0  0  0  0  0
   57.9380   25.2670   46.7470 N   0  0  0  0  0  0  0  0  0  0  0  0
   57.0280   24.3640   47.1740 C   0  0  0  0  0  0  0  0  0  0  0  0
   57.3540   23.2790   47.7210 O   0  0  0  0  0  0  0  0  0  0  0  0
   55.7400   24.7220   46.9780 N   0  0  0  0  0  0  0  0  0  0  0  0
   55.8560   25.9220   46.3880 C   0  0  0  0  0  0  0  0  0  0  0  0
   54.7730   26.7070   46.0130 O   0  0  0  0  0  0  0  0  0  0  0  0
   57.9190   29.6980   46.7270 C   0  0  0  0  0  0  0  0  0  0  0  0
   58.8390   30.2980   47.5580 C   0  0  0  0  0  0  0  0  0  0  0  0
   58.6840   31.6640   48.0910 C   0  0  0  0  0  0  0  0  0  0  0  0
   58.5820   31.8210   49.3380 O   0  0  0  0  0  0  0  0  0  0  0  0
   58.5990   32.8020   47.2150 N   0  0  0  0  0  0  0  0  0  0  0  0
   59.0040   34.1300   47.6940 C   0  0  0  0  0  0  0  0  0  0  0  0
   59.7910   34.8810   46.6070 C   0  0  0  0  0  0  0  0  0  0  0  0
   59.2420   34.6670   45.1800 C   0  0  0  0  0  0  0  0  0  0  0  0
   57.8610   34.0030   45.1660 C   0  0  0  0  0  0  0  0  0  0  0  0
   57.9080   32.6690   45.9210 C   0  0  0  0  0  0  0  0  0  0  0  0
   59.8810   29.4650   47.8050 N   0  0  0  0  0  0  0  0  0  0  0  0
   60.9370   29.6880   48.8120 C   0  0  0  0  0  0  0  0  0  0  0  0
   61.7110   30.9420   48.4910 C   0  0  0  0  0  0  0  0  0  0  0  0
   61.7260   31.4360   47.1740 C   0  0  0  0  0  0  0  0  0  0  0  0
   62.4050   32.6180   46.8670 C   0  0  0  0  0  0  0  0  0  0  0  0
   63.0730   33.3220   47.8720 C   0  0  0  0  0  0  0  0  0  0  0  0
   63.7300   34.4690   47.5720 F   0  0  0  0  0  0  0  0  0  0  0  0
   63.0660   32.8420   49.1820 C   0  0  0  0  0  0  0  0  0  0  0  0
   62.3910   31.6580   49.4960 C   0  0  0  0  0  0  0  0  0  0  0  0
   62.4140   31.2090   50.7750 F   0  0  0  0  0  0  0  0  0  0  0  0
  1  2  2  0
  2  3  1  0
  3  4  2  3
  4  5  1  0
  5  6  1  0
  6  7  1  0
  7  8  2  0
  7  9  1  0
  9 10  1  0
 10 11  1  0
  3 12  1  0
 12 13  2  0
 13 14  1  0
 14 15  2  0
 14 16  1  0
 16 17  1  0
 17 18  1  0
 18 19  1  0
 19 20  1  0
 20 21  1  0
 13 22  1  0
 22 23  1  0
 23 24  1  0
 24 25  2  0
 25 26  1  0
 26 27  2  0
 27 28  1  0
 27 29  1  0
 29 30  2  0
 30 31  1  0
 22  2  1  0
 30 24  1  0
 10  5  2  0
 21 16  1  0
M  CHG  3   6  -1   9  -1  11  -1
M  END
>  <UniqueID>  (2161) 
86

>  <SMILES>  (2161) 
C=c1c(=Cc2[n-]c(=O)[n-]c2[O-])cc(C(=O)N2CCCCC2)n1Cc1ccc(F)cc1F

>  <Energy>  (2161) 
128.8483261610255

>  <Genealogy>  (2161) 
C=c1c(=Cc2[n-]c(=O)[n-]c2[O-])cc(C(=O)N2CCCCC2)n1Cc1ccc(F)cc1F (protonated)
C=c1c(=Cc2[n-]c(=O)[n-]c2[O-])cc(C(=O)N2CCCCC2)n1Cc1ccc(F)cc1F (3D coordinates assigned)
C=c1c(=Cc2[n-]c(=O)[n-]c2[O-])cc(C(=O)N2CCCCC2)n1Cc1ccc(F)cc1F (nonaromatic ring conformer: 128.8483261610255 kcal/mol)

>  <smiles>  (2161) 
C=c1c(=Cc2[nH]c(=O)[nH]c2O)cc(C(=O)N2CCCCC2)n1Cc1ccc(F)cc1F

>  <score_type>  (2161) 
oracle

>  <origin>  (2161) 
adg

>  <m_score__min__energy>  (2161) 
-16.32

>  <m_primary>  (2161) 
energy

$$$$
5:0
     RDKit          3D

 38 42  0  0  0  0  0  0  0  0999 V2000
   57.6180   26.2220   43.2190 C   0  0  0  0  0  0  0  0  0  0  0  0
   58.0350   25.9610   44.4680 C   0  0  0  0  0  0  0  0  0  0  0  0
   57.5310   24.9710   45.3280 C   0  0  0  0  0  0  0  0  0  0  0  0
   56.6810   23.9480   45.1060 C   0  0  0  0  0  0  0  0  0  0  0  0
   55.2280   23.9650   45.3350 C   0  0  0  0  0  0  0  0  0  0  0  0
   54.4280   22.9110   45.0960 N   0  0  0  0  0  0  0  0  0  0  0  0
   53.1880   23.4060   45.3020 C   0  0  0  0  0  0  0  0  0  0  0  0
   52.1510   22.7030   45.1840 O   0  0  0  0  0  0  0  0  0  0  0  0
   53.1450   24.7160   45.6250 N   0  0  0  0  0  0  0  0  0  0  0  0
   54.4430   25.0620   45.6250 C   0  0  0  0  0  0  0  0  0  0  0  0
   54.9020   26.3530   45.8560 O   0  0  0  0  0  0  0  0  0  0  0  0
   58.1060   25.2030   46.5630 C   0  0  0  0  0  0  0  0  0  0  0  0
   58.9840   26.2550   46.4100 C   0  0  0  0  0  0  0  0  0  0  0  0
   59.8560   26.7390   47.4980 C   0  0  0  0  0  0  0  0  0  0  0  0
   61.0940   26.5120   47.4710 O   0  0  0  0  0  0  0  0  0  0  0  0
   59.2730   27.4030   48.6230 N   0  0  0  0  0  0  0  0  0  0  0  0
   59.9310   28.4680   49.3760 C   0  0  0  0  0  0  0  0  0  0  0  0
   59.8060   29.7900   48.6690 C   0  0  0  0  0  0  0  0  0  0  0  0
   60.6020   30.0770   47.5490 C   0  0  0  0  0  0  0  0  0  0  0  0
   60.4840   31.3050   46.8940 C   0  0  0  0  0  0  0  0  0  0  0  0
   59.5660   32.2690   47.3450 C   0  0  0  0  0  0  0  0  0  0  0  0
   59.4430   33.5350   46.6710 N   0  0  0  0  0  0  0  0  0  0  0  0
   59.0000   33.7020   45.2950 C   0  0  0  0  0  0  0  0  0  0  0  0
   59.2250   35.1870   44.9480 C   0  0  0  0  0  0  0  0  0  0  0  0
   59.6490   35.9010   46.2390 C   0  0  0  0  0  0  0  0  0  0  0  0
   59.7810   34.8000   47.2130 C   0  0  0  0  0  0  0  0  0  0  0  0
   60.1000   34.9750   48.4200 O   0  0  0  0  0  0  0  0  0  0  0  0
   58.7560   31.9730   48.4530 C   0  0  0  0  0  0  0  0  0  0  0  0
   58.8830   30.7480   49.1160 C   0  0  0  0  0  0  0  0  0  0  0  0
   58.9460   26.7250   45.1350 N   0  0  0  0  0  0  0  0  0  0  0  0
   59.5710   27.9700   44.6480 C   0  0  0  0  0  0  0  0  0  0  0  0
   58.6850   29.1920   44.9360 C   0  0  0  0  0  0  0  0  0  0  0  0
   58.2030   29.8050   43.6780 N   0  0  0  0  0  0  0  0  0  0  0  0
   56.9950   29.1380   43.1420 C   0  0  0  0  0  0  0  0  0  0  0  0
   55.6900   29.8140   43.6110 C   0  0  0  0  0  0  0  0  0  0  0  0
   55.8860   30.4690   44.8450 O   0  0  0  0  0  0  0  0  0  0  0  0
   56.7510   31.5800   44.6740 C   0  0  0  0  0  0  0  0  0  0  0  0
   57.9910   31.2590   43.8060 C   0  0  0  0  0  0  0  0  0  0  0  0
  1  2  2  0
  2  3  1  0
  3  4  2  3
  4  5  1  0
  5  6  1  0
  6  7  1  0
  7  8  2  0
  7  9  1  0
  9 10  1  0
 10 11  1  0
  3 12  1  0
 12 13  2  0
 13 14  1  0
 14 15  2  0
 14 16  1  0
 16 17  1  0
 17 18  1  0
 18 19  2  0
 19 20  1  0
 20 21  2  0
 21 22  1  0
 22 23  1  0
 23 24  1  0
 24 25  1  0
 25 26  1  0
 26 27  2  0
 21 28  1  0
 28 29  2  0
 13 30  1  0
 30 31  1  0
 31 32  1  0
 32 33  1  0
 33 34  1  0
 34 35  1  0
 35 36  1  0
 36 37  1  0
 37 38  1  0
 30  2  1  0
 38 33  1  0
 10  5  2  0
 29 18  1  0
 26 22  1  0
M  CHG  3   6  -1   9  -1  16  -1
M  END
>  <UniqueID>  (2162) 
6

>  <SMILES>  (2162) 
C=c1c(=Cc2[n-]c(=O)[n-]c2O)cc(C(=O)[N-]Cc2ccc(N3CCCC3=O)cc2)n1CCN1CCOCC1

>  <Energy>  (2162) 
159.25309752284616

>  <Genealogy>  (2162) 
C=c1c(=Cc2[n-]c(=O)[n-]c2O)cc(C(=O)[N-]Cc2ccc(N3CCCC3=O)cc2)n1CCN1CCOCC1 (protonated)
C=c1c(=Cc2[n-]c(=O)[n-]c2O)cc(C(=O)[N-]Cc2ccc(N3CCCC3=O)cc2)n1CCN1CCOCC1 (3D coordinates assigned)
C=c1c(=Cc2[n-]c(=O)[n-]c2O)cc(C(=O)[N-]Cc2ccc(N3CCCC3=O)cc2)n1CCN1CCOCC1 (nonaromatic ring conformer: 159.25309752284616 kcal/mol)

>  <smiles>  (2162) 
C=c1c(=Cc2[nH]c(=O)[nH]c2O)cc(C(=O)NCc2ccc(N3CCCC3=O)cc2)n1CCN1CCOCC1

>  <score_type>  (2162) 
oracle

>  <origin>  (2162) 
adg

>  <m_score__min__energy>  (2162) 
-15.380000000000001

>  <m_primary>  (2162) 
energy

$$$$
16:0
     RDKit          3D

 24 26  0  0  0  0  0  0  0  0999 V2000
   53.8030   28.8760   54.4420 C   0  0  0  0  0  0  0  0  0  0  0  0
   54.5240   29.4610   53.4740 C   0  0  0  0  0  0  0  0  0  0  0  0
   54.1560   30.5730   52.6970 C   0  0  0  0  0  0  0  0  0  0  0  0
   52.9730   31.2010   52.5540 C   0  0  0  0  0  0  0  0  0  0  0  0
   52.1380   31.1910   51.3410 C   0  0  0  0  0  0  0  0  0  0  0  0
   52.2100   30.2650   50.3680 N   0  0  0  0  0  0  0  0  0  0  0  0
   51.3770   30.7450   49.4190 C   0  0  0  0  0  0  0  0  0  0  0  0
   51.1600   30.1390   48.3380 O   0  0  0  0  0  0  0  0  0  0  0  0
   50.8040   31.9320   49.7160 N   0  0  0  0  0  0  0  0  0  0  0  0
   51.3090   32.2050   50.9290 C   0  0  0  0  0  0  0  0  0  0  0  0
   51.0210   33.3620   51.6420 O   0  0  0  0  0  0  0  0  0  0  0  0
   55.2950   30.9560   52.0100 C   0  0  0  0  0  0  0  0  0  0  0  0
   56.2860   30.0580   52.3410 C   0  0  0  0  0  0  0  0  0  0  0  0
   57.6570   30.1070   51.8010 C   0  0  0  0  0  0  0  0  0  0  0  0
   57.8630   29.6860   50.6300 O   0  0  0  0  0  0  0  0  0  0  0  0
   58.7410   30.6720   52.5610 N   0  0  0  0  0  0  0  0  0  0  0  0
   58.4840   31.7750   53.4980 C   0  0  0  0  0  0  0  0  0  0  0  0
   59.7900   32.4600   53.9030 C   0  0  0  0  0  0  0  0  0  0  0  0
   60.6410   32.6000   52.7110 N   0  0  0  0  0  0  0  0  0  0  0  0
   61.7690   33.5030   52.9840 C   0  0  0  0  0  0  0  0  0  0  0  0
   61.1330   31.2850   52.2350 C   0  0  0  0  0  0  0  0  0  0  0  0
   60.1040   30.1470   52.4150 C   0  0  0  0  0  0  0  0  0  0  0  0
   55.8140   29.1320   53.2080 N   0  0  0  0  0  0  0  0  0  0  0  0
   56.5490   27.9820   53.7480 C   0  0  0  0  0  0  0  0  0  0  0  0
  1  2  2  0
  2  3  1  0
  3  4  2  3
  4  5  1  0
  5  6  1  0
  6  7  1  0
  7  8  2  0
  7  9  1  0
  9 10  1  0
 10 11  1  0
  3 12  1  0
 12 13  2  0
 13 14  1  0
 14 15  2  0
 14 16  1  0
 16 17  1  0
 17 18  1  0
 18 19  1  0
 19 20  1  0
 19 21  1  0
 21 22  1  0
 13 23  1  0
 23 24  1  0
 23  2  1  0
 10  5  2  0
 22 16  1  0
M  CHG  3   6  -1   9  -1  11  -1
M  END
>  <UniqueID>  (2163) 
15

>  <SMILES>  (2163) 
C=c1c(=Cc2[n-]c(=O)[n-]c2[O-])cc(C(=O)N2CCN(C)CC2)n1C

>  <Energy>  (2163) 
123.1947936915342

>  <Genealogy>  (2163) 
C=c1c(=Cc2[n-]c(=O)[n-]c2[O-])cc(C(=O)N2CCN(C)CC2)n1C (protonated)
C=c1c(=Cc2[n-]c(=O)[n-]c2[O-])cc(C(=O)N2CCN(C)CC2)n1C (3D coordinates assigned)
C=c1c(=Cc2[n-]c(=O)[n-]c2[O-])cc(C(=O)N2CCN(C)CC2)n1C (nonaromatic ring conformer: 123.1947936915342 kcal/mol)

>  <smiles>  (2163) 
C=c1c(=Cc2[nH]c(=O)[nH]c2O)cc(C(=O)N2CCN(C)CC2)n1C

>  <score_type>  (2163) 
oracle

>  <origin>  (2163) 
adg

>  <m_score__min__energy>  (2163) 
-16.059999999999999

>  <m_primary>  (2163) 
energy

$$$$
24:0
     RDKit          3D

 36 39  0  0  0  0  0  0  0  0999 V2000
   51.3970   33.0830   49.7730 O   0  0  0  0  0  0  0  0  0  0  0  0
   51.4060   32.1660   50.6360 C   0  0  0  0  0  0  0  0  0  0  0  0
   50.7820   32.3680   51.8620 O   0  0  0  0  0  0  0  0  0  0  0  0
   52.0440   30.8490   50.3300 C   0  0  0  0  0  0  0  0  0  0  0  0
   53.0480   30.5040   51.3830 C   0  0  0  0  0  0  0  0  0  0  0  0
   52.9400   29.3790   52.2000 C   0  0  0  0  0  0  0  0  0  0  0  0
   54.2810   29.3430   53.2130 S   0  0  0  0  0  0  0  0  0  0  0  0
   54.9430   30.7520   52.5620 C   0  0  0  0  0  0  0  0  0  0  0  0
   56.0510   31.3300   52.9240 N   0  0  0  0  0  0  0  0  0  0  0  0
   56.8760   32.2200   52.1490 C   0  0  0  0  0  0  0  0  0  0  0  0
   56.8660   33.4620   52.3700 O   0  0  0  0  0  0  0  0  0  0  0  0
   57.7530   31.6700   51.0870 C   0  0  0  0  0  0  0  0  0  0  0  0
   57.9030   30.2830   50.9330 C   0  0  0  0  0  0  0  0  0  0  0  0
   58.7250   29.7680   49.9330 C   0  0  0  0  0  0  0  0  0  0  0  0
   59.4180   30.6160   49.0630 C   0  0  0  0  0  0  0  0  0  0  0  0
   60.1860   30.0140   48.0640 O   0  0  0  0  0  0  0  0  0  0  0  0
   59.3000   32.0220   49.2190 C   0  0  0  0  0  0  0  0  0  0  0  0
   60.1740   33.2050   48.2240 S   0  0  0  0  0  0  0  0  0  0  0  0
   60.7540   34.2440   49.1440 O   0  0  0  0  0  0  0  0  0  0  0  0
   61.3210   32.5700   47.4870 O   0  0  0  0  0  0  0  0  0  0  0  0
   59.0840   33.9970   47.1060 N   0  0  0  0  0  0  0  0  0  0  0  0
   57.7040   33.4700   47.2120 C   0  0  0  0  0  0  0  0  0  0  0  0
   57.4110   32.4090   46.1430 C   0  0  0  0  0  0  0  0  0  0  0  0
   57.5310   32.9700   44.7740 N   0  0  0  0  0  0  0  0  0  0  0  0
   57.7810   31.9080   43.7760 C   0  0  0  0  0  0  0  0  0  0  0  0
   57.9100   30.5590   44.4420 C   0  0  0  0  0  0  0  0  0  0  0  0
   59.1790   30.0990   44.8350 C   0  0  0  0  0  0  0  0  0  0  0  0
   59.3220   28.8380   45.4230 C   0  0  0  0  0  0  0  0  0  0  0  0
   58.2040   28.0260   45.6190 C   0  0  0  0  0  0  0  0  0  0  0  0
   56.9380   28.4720   45.2270 C   0  0  0  0  0  0  0  0  0  0  0  0
   56.7870   29.7330   44.6390 C   0  0  0  0  0  0  0  0  0  0  0  0
   55.5490   30.1400   44.2610 F   0  0  0  0  0  0  0  0  0  0  0  0
   58.5370   34.0590   44.6720 C   0  0  0  0  0  0  0  0  0  0  0  0
   59.6390   33.9350   45.7350 C   0  0  0  0  0  0  0  0  0  0  0  0
   58.4550   32.5270   50.2230 C   0  0  0  0  0  0  0  0  0  0  0  0
   54.1630   31.2580   51.5830 N   0  0  0  0  0  0  0  0  0  0  0  0
  1  2  2  0
  2  3  1  0
  2  4  1  0
  4  5  1  0
  5  6  2  0
  6  7  1  0
  7  8  1  0
  8  9  2  3
  9 10  1  0
 10 11  2  0
 10 12  1  0
 12 13  2  0
 13 14  1  0
 14 15  2  0
 15 16  1  0
 15 17  1  0
 17 18  1  0
 18 19  2  0
 18 20  2  0
 18 21  1  0
 21 22  1  0
 22 23  1  0
 23 24  1  0
 24 25  1  0
 25 26  1  0
 26 27  2  0
 27 28  1  0
 28 29  2  0
 29 30  1  0
 30 31  2  0
 31 32  1  0
 24 33  1  0
 33 34  1  0
 17 35  2  0
  8 36  1  0
 36  5  1  0
 35 12  1  0
 34 21  1  0
 31 26  1  0
M  CHG  2   3  -1  36  -1
M  END
>  <UniqueID>  (2164) 
23

>  <SMILES>  (2164) 
O=C([O-])Cc1csc(=NC(=O)c2ccc(O)c(S(=O)(=O)N3CCN(Cc4ccccc4F)CC3)c2)[n-]1

>  <Energy>  (2164) 
108.9517205503579

>  <Genealogy>  (2164) 
O=C([O-])Cc1csc(=NC(=O)c2ccc(O)c(S(=O)(=O)N3CCN(Cc4ccccc4F)CC3)c2)[n-]1 (protonated)
O=C([O-])Cc1csc(=NC(=O)c2ccc(O)c(S(=O)(=O)N3CCN(Cc4ccccc4F)CC3)c2)[n-]1 (3D coordinates assigned)
O=C([O-])Cc1csc(=NC(=O)c2ccc(O)c(S(=O)(=O)N3CCN(Cc4ccccc4F)CC3)c2)[n-]1 (nonaromatic ring conformer: 108.9517205503579 kcal/mol)

>  <smiles>  (2164) 
O=C(O)Cc1csc(=NC(=O)c2ccc(O)c(S(=O)(=O)N3CCN(Cc4ccccc4F)CC3)c2)[nH]1

>  <score_type>  (2164) 
oracle

>  <origin>  (2164) 
adg

>  <m_score__min__energy>  (2164) 
-15.140000000000001

>  <m_primary>  (2164) 
energy

$$$$
25:0
     RDKit          3D

 31 33  0  0  0  0  0  0  0  0999 V2000
   60.0840   29.3650   45.0620 C   0  0  0  0  0  0  0  0  0  0  0  0
   59.6860   29.1600   46.3310 C   0  0  0  0  0  0  0  0  0  0  0  0
   58.6790   28.2750   46.7460 C   0  0  0  0  0  0  0  0  0  0  0  0
   57.7480   27.5960   46.0460 C   0  0  0  0  0  0  0  0  0  0  0  0
   57.1980   26.2770   46.3940 C   0  0  0  0  0  0  0  0  0  0  0  0
   57.9330   25.2830   46.9220 N   0  0  0  0  0  0  0  0  0  0  0  0
   57.0170   24.3300   47.2000 C   0  0  0  0  0  0  0  0  0  0  0  0
   57.3290   23.2180   47.7010 O   0  0  0  0  0  0  0  0  0  0  0  0
   55.7420   24.6660   46.9100 N   0  0  0  0  0  0  0  0  0  0  0  0
   55.8710   25.9080   46.4160 C   0  0  0  0  0  0  0  0  0  0  0  0
   54.7960   26.6960   46.0230 O   0  0  0  0  0  0  0  0  0  0  0  0
   58.7850   28.1900   48.1190 C   0  0  0  0  0  0  0  0  0  0  0  0
   59.7770   29.0640   48.5120 C   0  0  0  0  0  0  0  0  0  0  0  0
   60.1850   29.2270   49.9300 C   0  0  0  0  0  0  0  0  0  0  0  0
   60.3810   28.1930   50.6290 O   0  0  0  0  0  0  0  0  0  0  0  0
   60.2920   30.5230   50.5330 N   0  0  0  0  0  0  0  0  0  0  0  0
   59.3410   31.2420   51.0620 C   0  0  0  0  0  0  0  0  0  0  0  0
   58.1230   30.6870   51.5160 C   0  0  0  0  0  0  0  0  0  0  0  0
   57.1660   31.5200   52.0980 C   0  0  0  0  0  0  0  0  0  0  0  0
   57.4180   32.8850   52.2340 C   0  0  0  0  0  0  0  0  0  0  0  0
   58.6360   33.4010   51.7900 C   0  0  0  0  0  0  0  0  0  0  0  0
   59.5580   32.5770   51.2270 N   0  0  0  0  0  0  0  0  0  0  0  0
   60.3240   29.6740   47.4230 N   0  0  0  0  0  0  0  0  0  0  0  0
   61.4070   30.6750   47.4250 C   0  0  0  0  0  0  0  0  0  0  0  0
   60.8790   32.0860   47.2870 C   0  0  0  0  0  0  0  0  0  0  0  0
   61.3510   32.7960   46.4070 O   0  0  0  0  0  0  0  0  0  0  0  0
   59.9130   32.6350   48.2270 N   0  0  0  0  0  0  0  0  0  0  0  0
   60.1360   34.0810   48.4680 C   0  0  0  0  0  0  0  0  0  0  0  0
   59.3160   34.9560   47.5110 C   0  0  0  0  0  0  0  0  0  0  0  0
   58.5180   32.3350   47.8140 C   0  0  0  0  0  0  0  0  0  0  0  0
   58.3050   32.1820   46.2980 C   0  0  0  0  0  0  0  0  0  0  0  0
  1  2  2  0
  2  3  1  0
  3  4  2  3
  4  5  1  0
  5  6  1  0
  6  7  1  0
  7  8  2  0
  7  9  1  0
  9 10  1  0
 10 11  1  0
  3 12  1  0
 12 13  2  0
 13 14  1  0
 14 15  2  0
 14 16  1  0
 16 17  2  3
 17 18  1  0
 18 19  2  0
 19 20  1  0
 20 21  2  0
 21 22  1  0
 13 23  1  0
 23 24  1  0
 24 25  1  0
 25 26  2  0
 25 27  1  0
 27 28  1  0
 28 29  1  0
 27 30  1  0
 30 31  1  0
 23  2  1  0
 10  5  2  0
 22 17  1  0
M  CHG  5   6  -1   9  -1  11  -1  22  -1  27   1
M  END
>  <UniqueID>  (2165) 
24

>  <SMILES>  (2165) 
C=c1c(=Cc2[n-]c(=O)[n-]c2[O-])cc(C(=O)N=c2cccc[n-]2)n1CC(=O)[NH+](CC)CC

>  <Energy>  (2165) 
133.14369360794157

>  <Genealogy>  (2165) 
C=c1c(=Cc2[n-]c(=O)[n-]c2[O-])cc(C(=O)N=c2cccc[n-]2)n1CC(=O)[NH+](CC)CC (protonated)
C=c1c(=Cc2[n-]c(=O)[n-]c2[O-])cc(C(=O)N=c2cccc[n-]2)n1CC(=O)[NH+](CC)CC (3D coordinates assigned)
C=c1c(=Cc2[n-]c(=O)[n-]c2[O-])cc(C(=O)N=c2cccc[n-]2)n1CC(=O)[NH+](CC)CC (optimized conformer: 133.14369360794157 kcal/mol)

>  <smiles>  (2165) 
C=c1c(=Cc2[nH]c(=O)[nH]c2O)cc(C(=O)N=c2cccc[nH]2)n1CC(=O)N(CC)CC

>  <score_type>  (2165) 
oracle

>  <origin>  (2165) 
adg

>  <m_score__min__energy>  (2165) 
-15.279999999999999

>  <m_primary>  (2165) 
energy

$$$$
34:0
     RDKit          3D

 32 35  0  0  0  0  0  0  0  0999 V2000
   60.3740   29.4460   45.1300 C   0  0  0  0  0  0  0  0  0  0  0  0
   60.0080   28.9280   46.3150 C   0  0  0  0  0  0  0  0  0  0  0  0
   59.1410   27.8470   46.5020 C   0  0  0  0  0  0  0  0  0  0  0  0
   58.4870   27.1470   45.5540 C   0  0  0  0  0  0  0  0  0  0  0  0
   57.1510   26.5530   45.7430 C   0  0  0  0  0  0  0  0  0  0  0  0
   56.9580   25.3020   46.1940 N   0  0  0  0  0  0  0  0  0  0  0  0
   55.6140   25.2090   46.2950 C   0  0  0  0  0  0  0  0  0  0  0  0
   55.0340   24.1600   46.6800 O   0  0  0  0  0  0  0  0  0  0  0  0
   54.9410   26.3300   45.9610 N   0  0  0  0  0  0  0  0  0  0  0  0
   55.9270   27.1780   45.6260 C   0  0  0  0  0  0  0  0  0  0  0  0
   55.7130   28.5030   45.2700 O   0  0  0  0  0  0  0  0  0  0  0  0
   59.0310   27.6690   47.8710 C   0  0  0  0  0  0  0  0  0  0  0  0
   59.8340   28.6220   48.4670 C   0  0  0  0  0  0  0  0  0  0  0  0
   59.9730   28.7880   49.9320 C   0  0  0  0  0  0  0  0  0  0  0  0
   60.5120   27.8710   50.6080 O   0  0  0  0  0  0  0  0  0  0  0  0
   59.5410   29.9930   50.5960 N   0  0  0  0  0  0  0  0  0  0  0  0
   58.4110   30.7810   50.0760 C   0  0  0  0  0  0  0  0  0  0  0  0
   57.5510   31.2940   51.2340 C   0  0  0  0  0  0  0  0  0  0  0  0
   58.3640   32.1190   52.2510 C   0  0  0  0  0  0  0  0  0  0  0  0
   59.8770   31.8430   52.2100 C   0  0  0  0  0  0  0  0  0  0  0  0
   60.1860   30.3830   51.8590 C   0  0  0  0  0  0  0  0  0  0  0  0
   60.4310   29.3930   47.5240 N   0  0  0  0  0  0  0  0  0  0  0  0
   61.3830   30.4870   47.7840 C   0  0  0  0  0  0  0  0  0  0  0  0
   60.6900   31.8270   47.8740 C   0  0  0  0  0  0  0  0  0  0  0  0
   60.9030   32.6430   48.9940 C   0  0  0  0  0  0  0  0  0  0  0  0
   60.2980   33.8960   49.0800 C   0  0  0  0  0  0  0  0  0  0  0  0
   59.4820   34.3570   48.0450 C   0  0  0  0  0  0  0  0  0  0  0  0
   59.2640   33.5700   46.8970 C   0  0  0  0  0  0  0  0  0  0  0  0
   58.4200   34.0490   45.8150 N   0  0  0  0  0  0  0  0  0  0  0  0
   57.0470   33.5520   45.6620 C   0  0  0  0  0  0  0  0  0  0  0  0
   58.9260   35.0410   44.8590 C   0  0  0  0  0  0  0  0  0  0  0  0
   59.8860   32.3050   46.8230 C   0  0  0  0  0  0  0  0  0  0  0  0
  1  2  2  0
  2  3  1  0
  3  4  2  0
  4  5  1  0
  5  6  1  0
  6  7  1  0
  7  8  2  0
  7  9  1  0
  9 10  1  0
 10 11  1  0
  3 12  1  0
 12 13  2  0
 13 14  1  0
 14 15  2  0
 14 16  1  0
 16 17  1  0
 17 18  1  0
 18 19  1  0
 19 20  1  0
 20 21  1  0
 13 22  1  0
 22 23  1  0
 23 24  1  0
 24 25  2  0
 25 26  1  0
 26 27  2  0
 27 28  1  0
 28 29  1  0
 29 30  1  0
 29 31  1  0
 28 32  2  0
 22  2  1  0
 32 24  1  0
 10  5  2  0
 21 16  1  0
M  CHG  3   6  -1   9  -1  11  -1
M  END
>  <UniqueID>  (2166) 
32

>  <SMILES>  (2166) 
C=c1/c(=C/c2[n-]c(=O)[n-]c2[O-])cc(C(=O)N2CCCCC2)n1Cc1cccc(N(C)C)c1

>  <Energy>  (2166) 
132.49287177583858

>  <Genealogy>  (2166) 
C=c1c(=Cc2[n-]c(=O)[n-]c2[O-])cc(C(=O)N2CCCCC2)n1Cc1cccc(N(C)C)c1 (protonated)
C=c1/c(=C/c2[n-]c(=O)[n-]c2[O-])cc(C(=O)N2CCCCC2)n1Cc1cccc(N(C)C)c1 (cis-trans isomerization)
C=c1/c(=C/c2[n-]c(=O)[n-]c2[O-])cc(C(=O)N2CCCCC2)n1Cc1cccc(N(C)C)c1 (3D coordinates assigned)
C=c1/c(=C/c2[n-]c(=O)[n-]c2[O-])cc(C(=O)N2CCCCC2)n1Cc1cccc(N(C)C)c1 (nonaromatic ring conformer: 132.49287177583858 kcal/mol)

>  <smiles>  (2166) 
C=c1c(=Cc2[nH]c(=O)[nH]c2O)cc(C(=O)N2CCCCC2)n1Cc1cccc(N(C)C)c1

>  <score_type>  (2166) 
oracle

>  <origin>  (2166) 
adg

>  <m_score__min__energy>  (2166) 
-16.68

>  <m_primary>  (2166) 
energy

$$$$
37:0
     RDKit          3D

 26 28  0  0  0  0  0  0  0  0999 V2000
   57.4940   30.4440   43.8450 C   0  0  0  0  0  0  0  0  0  0  0  0
   57.6710   31.8940   43.6080 C   0  0  0  0  0  0  0  0  0  0  0  0
   57.4540   32.3350   42.4480 O   0  0  0  0  0  0  0  0  0  0  0  0
   58.0480   32.8460   44.6820 C   0  0  0  0  0  0  0  0  0  0  0  0
   58.9770   33.8690   44.4210 C   0  0  0  0  0  0  0  0  0  0  0  0
   59.3650   34.7490   45.4350 C   0  0  0  0  0  0  0  0  0  0  0  0
   58.8200   34.6250   46.7160 C   0  0  0  0  0  0  0  0  0  0  0  0
   57.8800   33.6260   46.9810 C   0  0  0  0  0  0  0  0  0  0  0  0
   57.4900   32.7440   45.9700 C   0  0  0  0  0  0  0  0  0  0  0  0
   57.8960   29.7800   44.9410 C   0  0  0  0  0  0  0  0  0  0  0  0
   57.3290   28.5030   45.4120 C   0  0  0  0  0  0  0  0  0  0  0  0
   56.0130   28.2180   45.3340 N   0  0  0  0  0  0  0  0  0  0  0  0
   55.8820   26.9840   45.8640 C   0  0  0  0  0  0  0  0  0  0  0  0
   54.6570   26.3400   45.9810 O   0  0  0  0  0  0  0  0  0  0  0  0
   57.0990   26.4630   46.2650 C   0  0  0  0  0  0  0  0  0  0  0  0
   57.3550   25.1610   46.9040 C   0  0  0  0  0  0  0  0  0  0  0  0
   57.0560   24.9960   48.1180 O   0  0  0  0  0  0  0  0  0  0  0  0
   58.0130   24.1220   46.1610 N   0  0  0  0  0  0  0  0  0  0  0  0
   57.5600   23.4150   45.1620 C   0  0  0  0  0  0  0  0  0  0  0  0
   57.7010   22.0610   45.2190 N   0  0  0  0  0  0  0  0  0  0  0  0
   57.2710   21.2410   44.2240 C   0  0  0  0  0  0  0  0  0  0  0  0
   56.6650   21.7770   43.0890 C   0  0  0  0  0  0  0  0  0  0  0  0
   56.5190   23.1600   42.9850 C   0  0  0  0  0  0  0  0  0  0  0  0
   56.9680   23.9890   44.0160 C   0  0  0  0  0  0  0  0  0  0  0  0
   58.0230   27.4360   45.9540 C   0  0  0  0  0  0  0  0  0  0  0  0
   59.3990   27.3480   46.1290 O   0  0  0  0  0  0  0  0  0  0  0  0
  1  2  1  0
  2  3  2  0
  2  4  1  0
  4  5  2  0
  5  6  1  0
  6  7  2  0
  7  8  1  0
  8  9  2  0
  1 10  2  3
 10 11  1  0
 11 12  1  0
 12 13  1  0
 13 14  1  0
 13 15  2  0
 15 16  1  0
 16 17  2  0
 16 18  1  0
 18 19  2  0
 19 20  1  0
 20 21  1  0
 21 22  2  0
 22 23  1  0
 23 24  2  0
 15 25  1  0
 25 26  1  0
  9  4  1  0
 25 11  2  0
 24 19  1  0
M  CHG  4  12  -1  14  -1  20  -1  26  -1
M  END
>  <UniqueID>  (2167) 
34

>  <SMILES>  (2167) 
O=C(C=Cc1[n-]c([O-])c(C(=O)/N=c2\cccc[n-]2)c1[O-])c1ccccc1

>  <Energy>  (2167) 
85.75249112568743

>  <Genealogy>  (2167) 
O=C(C=Cc1[n-]c([O-])c(C(=O)N=c2cccc[n-]2)c1[O-])c1ccccc1 (protonated)
O=C(C=Cc1[n-]c([O-])c(C(=O)/N=c2\cccc[n-]2)c1[O-])c1ccccc1 (cis-trans isomerization)
O=C(C=Cc1[n-]c([O-])c(C(=O)/N=c2\cccc[n-]2)c1[O-])c1ccccc1 (3D coordinates assigned)
O=C(C=Cc1[n-]c([O-])c(C(=O)/N=c2\cccc[n-]2)c1[O-])c1ccccc1 (optimized conformer: 85.75249112568743 kcal/mol)

>  <smiles>  (2167) 
O=C(C=Cc1[nH]c(O)c(C(=O)N=c2cccc[nH]2)c1O)c1ccccc1

>  <score_type>  (2167) 
oracle

>  <origin>  (2167) 
adg

>  <m_score__min__energy>  (2167) 
-16.989999999999998

>  <m_primary>  (2167) 
energy

$$$$
45:0
     RDKit          3D

 23 25  0  0  0  0  0  0  0  0999 V2000
   54.2330   28.0530   53.1960 C   0  0  0  0  0  0  0  0  0  0  0  0
   54.5800   29.3020   52.8670 C   0  0  0  0  0  0  0  0  0  0  0  0
   53.7620   30.3260   52.3710 C   0  0  0  0  0  0  0  0  0  0  0  0
   52.4230   30.4080   52.2430 C   0  0  0  0  0  0  0  0  0  0  0  0
   51.7020   30.8060   51.0250 C   0  0  0  0  0  0  0  0  0  0  0  0
   51.6750   30.0670   49.9030 N   0  0  0  0  0  0  0  0  0  0  0  0
   51.0270   30.8610   49.0220 C   0  0  0  0  0  0  0  0  0  0  0  0
   50.7870   30.5060   47.8390 O   0  0  0  0  0  0  0  0  0  0  0  0
   50.6690   32.0700   49.5050 N   0  0  0  0  0  0  0  0  0  0  0  0
   51.1170   32.0260   50.7700 C   0  0  0  0  0  0  0  0  0  0  0  0
   51.0190   33.0870   51.6610 O   0  0  0  0  0  0  0  0  0  0  0  0
   54.6180   31.3480   51.9990 C   0  0  0  0  0  0  0  0  0  0  0  0
   55.9000   30.9450   52.3270 C   0  0  0  0  0  0  0  0  0  0  0  0
   57.1170   31.7730   52.0880 C   0  0  0  0  0  0  0  0  0  0  0  0
   57.2140   32.8660   52.7110 O   0  0  0  0  0  0  0  0  0  0  0  0
   58.1930   31.3870   51.1940 N   0  0  0  0  0  0  0  0  0  0  0  0
   58.2140   32.2230   49.9670 C   0  0  0  0  0  0  0  0  0  0  0  0
   58.9300   31.5240   48.7990 C   0  0  0  0  0  0  0  0  0  0  0  0
   59.9920   30.6500   49.3230 N   0  0  0  0  0  0  0  0  0  0  0  0
   60.8410   30.1570   48.2280 C   0  0  0  0  0  0  0  0  0  0  0  0
   59.4170   29.5160   50.0810 C   0  0  0  0  0  0  0  0  0  0  0  0
   58.1870   29.9330   50.9200 C   0  0  0  0  0  0  0  0  0  0  0  0
   55.8690   29.7030   52.8550 N   0  0  0  0  0  0  0  0  0  0  0  0
  1  2  2  0
  2  3  1  0
  3  4  2  0
  4  5  1  0
  5  6  1  0
  6  7  1  0
  7  8  2  0
  7  9  1  0
  9 10  1  0
 10 11  1  0
  3 12  1  0
 12 13  2  0
 13 14  1  0
 14 15  2  0
 14 16  1  0
 16 17  1  0
 17 18  1  0
 18 19  1  0
 19 20  1  0
 19 21  1  0
 21 22  1  0
 13 23  1  0
 23  2  1  0
 10  5  2  0
 22 16  1  0
M  CHG  4   6  -1   9  -1  11  -1  16   1
M  END
>  <UniqueID>  (2168) 
42

>  <SMILES>  (2168) 
C=c1[nH]c(C(=O)[NH+]2CCN(C)CC2)c/c1=C/c1[n-]c(=O)[n-]c1[O-]

>  <Energy>  (2168) 
122.4418579308686

>  <Genealogy>  (2168) 
C=c1[nH]c(C(=O)[NH+]2CCN(C)CC2)cc1=Cc1[n-]c(=O)[n-]c1[O-] (protonated)
C=c1[nH]c(C(=O)[NH+]2CCN(C)CC2)c/c1=C/c1[n-]c(=O)[n-]c1[O-] (cis-trans isomerization)
C=c1[nH]c(C(=O)[NH+]2CCN(C)CC2)c/c1=C/c1[n-]c(=O)[n-]c1[O-] (3D coordinates assigned)
C=c1[nH]c(C(=O)[NH+]2CCN(C)CC2)c/c1=C/c1[n-]c(=O)[n-]c1[O-] (nonaromatic ring conformer: 122.4418579308686 kcal/mol)

>  <smiles>  (2168) 
C=c1[nH]c(C(=O)N2CCN(C)CC2)cc1=Cc1[nH]c(=O)[nH]c1O

>  <score_type>  (2168) 
oracle

>  <origin>  (2168) 
adg

>  <m_score__min__energy>  (2168) 
-14.960000000000001

>  <m_primary>  (2168) 
energy

$$$$
49:0
     RDKit          3D

 34 38  0  0  0  0  0  0  0  0999 V2000
   53.0740   28.2180   52.8800 C   0  0  0  0  0  0  0  0  0  0  0  0
   54.1250   29.0440   52.8220 C   0  0  0  0  0  0  0  0  0  0  0  0
   55.3980   28.6070   52.8970 N   0  0  0  0  0  0  0  0  0  0  0  0
   56.1990   29.6900   52.7990 C   0  0  0  0  0  0  0  0  0  0  0  0
   57.6890   29.6820   52.7920 C   0  0  0  0  0  0  0  0  0  0  0  0
   58.2790   28.9750   53.6560 O   0  0  0  0  0  0  0  0  0  0  0  0
   58.4900   30.4230   51.8350 N   0  0  2  0  0  0  0  0  0  0  0  0
   57.9760   31.8070   51.6360 C   0  0  0  0  0  0  0  0  0  0  0  0
   58.2000   32.3410   50.2080 C   0  0  0  0  0  0  0  0  0  0  0  0
   59.5630   31.8870   49.6660 C   0  0  2  0  0  0  0  0  0  0  0  0
   59.8040   32.4830   48.2980 C   0  0  0  0  0  0  0  0  0  0  0  0
   60.7860   33.2560   48.1280 O   0  0  0  0  0  0  0  0  0  0  0  0
   58.9370   32.1860   47.1860 N   0  0  0  0  0  0  0  0  0  0  0  0
   58.0560   33.2170   46.6270 C   0  0  0  0  0  0  0  0  0  0  0  0
   58.0520   33.1090   45.1070 C   0  0  0  0  0  0  0  0  0  0  0  0
   57.7180   31.7060   44.6760 C   0  0  0  0  0  0  0  0  0  0  0  0
   57.1230   31.4900   43.4220 C   0  0  0  0  0  0  0  0  0  0  0  0
   56.8340   30.1930   42.9920 C   0  0  0  0  0  0  0  0  0  0  0  0
   57.1490   29.1010   43.8020 C   0  0  0  0  0  0  0  0  0  0  0  0
   57.7540   29.3010   45.0450 C   0  0  0  0  0  0  0  0  0  0  0  0
   58.0470   30.6000   45.4930 C   0  0  0  0  0  0  0  0  0  0  0  0
   58.6790   30.7780   46.8570 C   0  0  0  0  0  0  0  0  0  0  0  0
   59.6740   30.3400   49.6390 C   0  0  0  0  0  0  0  0  0  0  0  0
   58.6740   29.6490   50.5860 C   0  0  0  0  0  0  0  0  0  0  0  0
   55.4300   30.8340   52.6620 C   0  0  0  0  0  0  0  0  0  0  0  0
   54.1020   30.4300   52.6770 C   0  0  0  0  0  0  0  0  0  0  0  0
   53.0230   31.2160   52.5160 C   0  0  0  0  0  0  0  0  0  0  0  0
   52.2550   31.3010   51.2610 C   0  0  0  0  0  0  0  0  0  0  0  0
   52.2610   30.3370   50.3230 N   0  0  0  0  0  0  0  0  0  0  0  0
   51.3950   30.8000   49.3960 C   0  0  0  0  0  0  0  0  0  0  0  0
   51.1340   30.1700   48.3390 O   0  0  0  0  0  0  0  0  0  0  0  0
   50.8240   31.9870   49.6960 N   0  0  0  0  0  0  0  0  0  0  0  0
   51.3720   32.2870   50.8840 C   0  0  0  0  0  0  0  0  0  0  0  0
   51.0390   33.4160   51.6230 O   0  0  0  0  0  0  0  0  0  0  0  0
  1  2  2  0
  2  3  1  0
  3  4  1  0
  4  5  1  0
  5  6  2  0
  7  5  1  1
  7  8  1  0
  8  9  1  0
  9 10  1  0
 10 11  1  6
 11 12  2  0
 11 13  1  0
 13 14  1  0
 14 15  1  0
 15 16  1  0
 16 17  2  0
 17 18  1  0
 18 19  2  0
 19 20  1  0
 20 21  2  0
 21 22  1  0
 10 23  1  0
 23 24  1  0
  4 25  2  0
 25 26  1  0
 26 27  2  3
 27 28  1  0
 28 29  1  0
 29 30  1  0
 30 31  2  0
 30 32  1  0
 32 33  1  0
 33 34  1  0
 26  2  1  0
 33 28  2  0
 24  7  1  0
 22 13  1  0
 21 16  1  0
M  CHG  4   7   1  29  -1  32  -1  34  -1
M  END
>  <UniqueID>  (2169) 
46

>  <SMILES>  (2169) 
C=c1[nH]c(C(=O)[NH+]2CCC(C(=O)N3CCc4ccccc4C3)CC2)cc1=Cc1[n-]c(=O)[n-]c1[O-]

>  <Energy>  (2169) 
142.3951114560733

>  <Genealogy>  (2169) 
C=c1[nH]c(C(=O)[NH+]2CCC(C(=O)N3CCc4ccccc4C3)CC2)cc1=Cc1[n-]c(=O)[n-]c1[O-] (protonated)
C=c1[nH]c(C(=O)[NH+]2CCC(C(=O)N3CCc4ccccc4C3)CC2)cc1=Cc1[n-]c(=O)[n-]c1[O-] (3D coordinates assigned)
C=c1[nH]c(C(=O)[NH+]2CCC(C(=O)N3CCc4ccccc4C3)CC2)cc1=Cc1[n-]c(=O)[n-]c1[O-] (nonaromatic ring conformer: 142.3951114560733 kcal/mol)

>  <smiles>  (2169) 
C=c1[nH]c(C(=O)N2CCC(C(=O)N3CCc4ccccc4C3)CC2)cc1=Cc1[nH]c(=O)[nH]c1O

>  <score_type>  (2169) 
oracle

>  <origin>  (2169) 
adg

>  <m_score__min__energy>  (2169) 
-18.09

>  <m_primary>  (2169) 
energy

$$$$
53:0
     RDKit          3D

 30 33  0  0  0  0  0  0  0  0999 V2000
   52.9110   28.4380   53.8410 C   0  0  0  0  0  0  0  0  0  0  0  0
   53.9660   29.0490   53.2770 C   0  0  0  0  0  0  0  0  0  0  0  0
   54.0040   30.3430   52.7330 C   0  0  0  0  0  0  0  0  0  0  0  0
   53.0190   31.2250   52.4710 C   0  0  0  0  0  0  0  0  0  0  0  0
   52.2740   31.3320   51.2100 C   0  0  0  0  0  0  0  0  0  0  0  0
   52.2660   30.3730   50.2670 N   0  0  0  0  0  0  0  0  0  0  0  0
   51.3630   30.8260   49.3700 C   0  0  0  0  0  0  0  0  0  0  0  0
   51.0820   30.1970   48.3170 O   0  0  0  0  0  0  0  0  0  0  0  0
   50.7750   31.9970   49.6960 N   0  0  0  0  0  0  0  0  0  0  0  0
   51.3520   32.2970   50.8710 C   0  0  0  0  0  0  0  0  0  0  0  0
   51.0230   33.4140   51.6300 O   0  0  0  0  0  0  0  0  0  0  0  0
   55.3350   30.6080   52.4630 C   0  0  0  0  0  0  0  0  0  0  0  0
   56.0470   29.4730   52.7880 C   0  0  0  0  0  0  0  0  0  0  0  0
   57.5000   29.3200   52.5790 C   0  0  0  0  0  0  0  0  0  0  0  0
   58.1640   28.6460   53.4110 O   0  0  0  0  0  0  0  0  0  0  0  0
   58.1580   29.9120   51.4390 N   0  0  0  0  0  0  0  0  0  0  0  0
   59.4610   29.4060   50.9810 C   0  0  0  0  0  0  0  0  0  0  0  0
   60.4870   30.5450   50.9740 C   0  0  0  0  0  0  0  0  0  0  0  0
   59.9230   31.7700   50.3860 N   0  0  0  0  0  0  0  0  0  0  0  0
   60.5830   33.0270   50.6090 C   0  0  0  0  0  0  0  0  0  0  0  0
   59.9380   33.9870   51.1090 O   0  0  0  0  0  0  0  0  0  0  0  0
   62.0050   33.2160   50.2770 C   0  0  0  0  0  0  0  0  0  0  0  0
   62.9880   33.7450   51.1060 C   0  0  0  0  0  0  0  0  0  0  0  0
   64.2590   33.7560   50.5200 C   0  0  0  0  0  0  0  0  0  0  0  0
   64.2880   33.2250   49.2370 C   0  0  0  0  0  0  0  0  0  0  0  0
   62.7300   32.7380   48.8360 S   0  0  0  0  0  0  0  0  0  0  0  0
   58.5720   31.7490   49.8130 C   0  0  0  0  0  0  0  0  0  0  0  0
   57.5940   31.1210   50.8130 C   0  0  0  0  0  0  0  0  0  0  0  0
   55.2170   28.5190   53.2740 N   0  0  0  0  0  0  0  0  0  0  0  0
   55.6100   27.2200   53.8340 C   0  0  0  0  0  0  0  0  0  0  0  0
  1  2  2  0
  2  3  1  0
  3  4  2  3
  4  5  1  0
  5  6  1  0
  6  7  1  0
  7  8  2  0
  7  9  1  0
  9 10  1  0
 10 11  1  0
  3 12  1  0
 12 13  2  0
 13 14  1  0
 14 15  2  0
 14 16  1  0
 16 17  1  0
 17 18  1  0
 18 19  1  0
 19 20  1  0
 20 21  2  0
 20 22  1  0
 22 23  2  0
 23 24  1  0
 24 25  2  0
 25 26  1  0
 19 27  1  0
 27 28  1  0
 13 29  1  0
 29 30  1  0
 29  2  1  0
 10  5  2  0
 28 16  1  0
 26 22  1  0
M  CHG  3   6  -1   9  -1  11  -1
M  END
>  <UniqueID>  (2170) 
50

>  <SMILES>  (2170) 
C=c1c(=Cc2[n-]c(=O)[n-]c2[O-])cc(C(=O)N2CCN(C(=O)c3cccs3)CC2)n1C

>  <Energy>  (2170) 
158.22302833829718

>  <Genealogy>  (2170) 
C=c1c(=Cc2[n-]c(=O)[n-]c2[O-])cc(C(=O)N2CCN(C(=O)c3cccs3)CC2)n1C (protonated)
C=c1c(=Cc2[n-]c(=O)[n-]c2[O-])cc(C(=O)N2CCN(C(=O)c3cccs3)CC2)n1C (3D coordinates assigned)
C=c1c(=Cc2[n-]c(=O)[n-]c2[O-])cc(C(=O)N2CCN(C(=O)c3cccs3)CC2)n1C (nonaromatic ring conformer: 158.22302833829718 kcal/mol)

>  <smiles>  (2170) 
C=c1c(=Cc2[nH]c(=O)[nH]c2O)cc(C(=O)N2CCN(C(=O)c3cccs3)CC2)n1C

>  <score_type>  (2170) 
oracle

>  <origin>  (2170) 
adg

>  <m_score__min__energy>  (2170) 
-17.010000000000002

>  <m_primary>  (2170) 
energy

$$$$
56:0
     RDKit          3D

 37 41  0  0  0  0  0  0  0  0999 V2000
   54.8750   31.2330   51.8990 C   0  0  0  0  0  0  0  0  0  0  0  0
   54.5530   30.6360   53.0570 C   0  0  0  0  0  0  0  0  0  0  0  0
   53.2710   30.3790   53.5650 C   0  0  0  0  0  0  0  0  0  0  0  0
   52.0730   30.8550   53.1820 C   0  0  0  0  0  0  0  0  0  0  0  0
   51.6270   31.0450   51.7920 C   0  0  0  0  0  0  0  0  0  0  0  0
   51.8730   30.1890   50.7820 N   0  0  0  0  0  0  0  0  0  0  0  0
   51.3970   30.8410   49.6990 C   0  0  0  0  0  0  0  0  0  0  0  0
   51.4320   30.3470   48.5420 O   0  0  0  0  0  0  0  0  0  0  0  0
   50.8890   32.0670   49.9520 N   0  0  0  0  0  0  0  0  0  0  0  0
   51.0560   32.1840   51.2790 C   0  0  0  0  0  0  0  0  0  0  0  0
   50.6980   33.3120   52.0070 O   0  0  0  0  0  0  0  0  0  0  0  0
   53.3750   29.5210   54.6040 N   0  0  0  0  0  0  0  0  0  0  0  0
   54.6980   29.3160   54.7410 C   0  0  0  0  0  0  0  0  0  0  0  0
   55.1830   28.5790   55.6400 O   0  0  0  0  0  0  0  0  0  0  0  0
   55.4470   29.9850   53.8390 N   0  0  0  0  0  0  0  0  0  0  0  0
   56.8830   29.9590   53.7350 C   0  0  0  0  0  0  0  0  0  0  0  0
   57.5060   29.1890   52.7430 C   0  0  0  0  0  0  0  0  0  0  0  0
   58.8990   29.1720   52.6280 C   0  0  0  0  0  0  0  0  0  0  0  0
   59.7020   29.9330   53.5040 C   0  0  0  0  0  0  0  0  0  0  0  0
   61.1960   29.9410   53.4120 C   0  0  0  0  0  0  0  0  0  0  0  0
   61.7950   28.8300   53.4140 O   0  0  0  0  0  0  0  0  0  0  0  0
   61.9560   31.1790   53.2830 N   0  0  1  0  0  0  0  0  0  0  0  0
   63.2400   31.0250   52.5590 C   0  0  0  0  0  0  0  0  0  0  0  0
   63.0860   30.7060   51.0520 C   0  0  0  0  0  0  0  0  0  0  0  0
   61.8230   31.1820   50.4680 N   0  0  0  0  0  0  0  0  0  0  0  0
   61.4940   30.7910   49.0910 C   0  0  0  0  0  0  0  0  0  0  0  0
   61.9740   31.8420   48.1240 C   0  0  0  0  0  0  0  0  0  0  0  0
   63.3490   32.0530   47.9210 C   0  0  0  0  0  0  0  0  0  0  0  0
   63.7880   33.0630   47.0600 C   0  0  0  0  0  0  0  0  0  0  0  0
   62.8600   33.8710   46.3970 C   0  0  0  0  0  0  0  0  0  0  0  0
   61.4910   33.6690   46.5930 C   0  0  0  0  0  0  0  0  0  0  0  0
   61.0480   32.6590   47.4540 C   0  0  0  0  0  0  0  0  0  0  0  0
   60.9180   32.0120   51.2180 C   0  0  0  0  0  0  0  0  0  0  0  0
   59.9430   32.5740   50.6480 O   0  0  0  0  0  0  0  0  0  0  0  0
   61.1470   32.2540   52.6760 C   0  0  0  0  0  0  0  0  0  0  0  0
   59.0640   30.7100   54.4920 C   0  0  0  0  0  0  0  0  0  0  0  0
   57.6720   30.7240   54.6030 C   0  0  0  0  0  0  0  0  0  0  0  0
  1  2  2  0
  2  3  1  0
  3  4  2  3
  4  5  1  0
  5  6  1  0
  6  7  1  0
  7  8  2  0
  7  9  1  0
  9 10  1  0
 10 11  1  0
  3 12  1  0
 12 13  1  0
 13 14  2  0
 13 15  1  0
 15 16  1  0
 16 17  2  0
 17 18  1  0
 18 19  2  0
 19 20  1  0
 20 21  2  0
 22 20  1  6
 22 23  1  0
 23 24  1  0
 24 25  1  0
 25 26  1  0
 26 27  1  0
 27 28  2  0
 28 29  1  0
 29 30  2  0
 30 31  1  0
 31 32  2  0
 25 33  1  0
 33 34  2  0
 33 35  1  0
 19 36  1  0
 36 37  2  0
 15  2  1  0
 37 16  1  0
 10  5  2  0
 35 22  1  0
 32 27  1  0
M  CHG  5   6  -1   9  -1  11  -1  12  -1  22   1
M  END
>  <UniqueID>  (2171) 
51

>  <SMILES>  (2171) 
C=c1c(=Cc2[n-]c(=O)[n-]c2[O-])[n-]c(=O)n1-c1ccc(C(=O)[N@H+]2CCN(Cc3ccccc3)C(=O)C2)cc1

>  <Energy>  (2171) 
152.8787084500198

>  <Genealogy>  (2171) 
C=c1c(=Cc2[n-]c(=O)[n-]c2[O-])[n-]c(=O)n1-c1ccc(C(=O)[NH+]2CCN(Cc3ccccc3)C(=O)C2)cc1 (protonated)
C=c1c(=Cc2[n-]c(=O)[n-]c2[O-])[n-]c(=O)n1-c1ccc(C(=O)[N@H+]2CCN(Cc3ccccc3)C(=O)C2)cc1 (chirality)
C=c1c(=Cc2[n-]c(=O)[n-]c2[O-])[n-]c(=O)n1-c1ccc(C(=O)[N@H+]2CCN(Cc3ccccc3)C(=O)C2)cc1 (3D coordinates assigned)
C=c1c(=Cc2[n-]c(=O)[n-]c2[O-])[n-]c(=O)n1-c1ccc(C(=O)[N@H+]2CCN(Cc3ccccc3)C(=O)C2)cc1 (nonaromatic ring conformer: 152.8787084500198 kcal/mol)

>  <smiles>  (2171) 
C=c1c(=Cc2[nH]c(=O)[nH]c2O)[nH]c(=O)n1-c1ccc(C(=O)N2CCN(Cc3ccccc3)C(=O)C2)cc1

>  <score_type>  (2171) 
oracle

>  <origin>  (2171) 
adg

>  <m_score__min__energy>  (2171) 
-17.629999999999999

>  <m_primary>  (2171) 
energy

$$$$
64:0
     RDKit          3D

 30 32  0  0  0  0  0  0  0  0999 V2000
   59.9560   25.1180   46.0250 O   0  0  0  0  0  0  0  0  0  0  0  0
   59.1140   24.1820   46.0760 C   0  0  0  0  0  0  0  0  0  0  0  0
   59.2900   22.9750   45.1880 C   0  0  0  0  0  0  0  0  0  0  0  0
   58.0940   22.7630   44.2950 C   0  0  0  0  0  0  0  0  0  0  0  0
   57.2950   23.8550   43.9140 C   0  0  0  0  0  0  0  0  0  0  0  0
   56.1980   23.6650   43.0690 C   0  0  0  0  0  0  0  0  0  0  0  0
   55.8950   22.3870   42.5910 C   0  0  0  0  0  0  0  0  0  0  0  0
   56.6910   21.2980   42.9540 C   0  0  0  0  0  0  0  0  0  0  0  0
   57.7890   21.4840   43.8000 C   0  0  0  0  0  0  0  0  0  0  0  0
   58.0650   24.2630   47.0510 N   0  0  0  0  0  0  0  0  0  0  0  0
   57.3050   25.4590   47.4030 C   0  0  0  0  0  0  0  0  0  0  0  0
   56.0670   25.5660   46.5660 C   0  0  0  0  0  0  0  0  0  0  0  0
   55.4260   24.5220   46.2720 O   0  0  0  0  0  0  0  0  0  0  0  0
   55.6760   26.8310   46.0230 N   0  0  0  0  0  0  0  0  0  0  0  0
   56.5640   27.8680   45.5860 C   0  0  0  0  0  0  0  0  0  0  0  0
   57.9020   27.8150   45.9930 C   0  0  0  0  0  0  0  0  0  0  0  0
   58.8100   28.8080   45.5990 C   0  0  0  0  0  0  0  0  0  0  0  0
   60.4900   28.7290   46.1240 S   0  0  0  0  0  0  0  0  0  0  0  0
   61.3790   28.9380   44.9280 O   0  0  0  0  0  0  0  0  0  0  0  0
   60.7680   27.3530   46.6610 O   0  0  0  0  0  0  0  0  0  0  0  0
   60.8900   29.9150   47.3490 N   0  0  0  0  0  0  0  0  0  0  0  0
   60.4170   29.5490   48.6980 C   0  0  0  0  0  0  0  0  0  0  0  0
   59.0170   30.1000   49.0030 C   0  0  0  0  0  0  0  0  0  0  0  0
   58.9640   31.4890   48.7660 O   0  0  0  0  0  0  0  0  0  0  0  0
   59.1590   31.7290   47.3900 C   0  0  0  0  0  0  0  0  0  0  0  0
   60.5680   31.3010   46.9550 C   0  0  0  0  0  0  0  0  0  0  0  0
   58.3610   29.8850   44.8240 C   0  0  0  0  0  0  0  0  0  0  0  0
   57.0200   29.9620   44.4390 C   0  0  0  0  0  0  0  0  0  0  0  0
   56.1150   28.9690   44.8270 C   0  0  0  0  0  0  0  0  0  0  0  0
   54.7750   29.1050   44.4850 O   0  0  0  0  0  0  0  0  0  0  0  0
  1  2  2  0
  2  3  1  0
  3  4  1  0
  4  5  2  0
  5  6  1  0
  6  7  2  0
  7  8  1  0
  8  9  2  0
  2 10  1  0
 10 11  1  0
 11 12  1  0
 12 13  2  0
 12 14  1  0
 14 15  1  0
 15 16  2  0
 16 17  1  0
 17 18  1  0
 18 19  2  0
 18 20  2  0
 18 21  1  0
 21 22  1  0
 22 23  1  0
 23 24  1  0
 24 25  1  0
 25 26  1  0
 17 27  2  0
 27 28  1  0
 28 29  2  0
 29 30  1  0
  9  4  1  0
 29 15  1  0
 26 21  1  0
M  CHG  3  10  -1  14  -1  30  -1
M  END
>  <UniqueID>  (2172) 
59

>  <SMILES>  (2172) 
O=C(Cc1ccccc1)[N-]CC(=O)[N-]c1cc(S(=O)(=O)N2CCOCC2)ccc1[O-]

>  <Energy>  (2172) 
59.10690665861483

>  <Genealogy>  (2172) 
O=C(Cc1ccccc1)[N-]CC(=O)[N-]c1cc(S(=O)(=O)N2CCOCC2)ccc1[O-] (protonated)
O=C(Cc1ccccc1)[N-]CC(=O)[N-]c1cc(S(=O)(=O)N2CCOCC2)ccc1[O-] (3D coordinates assigned)
O=C(Cc1ccccc1)[N-]CC(=O)[N-]c1cc(S(=O)(=O)N2CCOCC2)ccc1[O-] (nonaromatic ring conformer: 59.10690665861483 kcal/mol)

>  <smiles>  (2172) 
O=C(Cc1ccccc1)NCC(=O)Nc1cc(S(=O)(=O)N2CCOCC2)ccc1O

>  <score_type>  (2172) 
oracle

>  <origin>  (2172) 
adg

>  <m_score__min__energy>  (2172) 
-15.58

>  <m_primary>  (2172) 
energy

$$$$
68:0
     RDKit          3D

 31 34  0  0  0  0  0  0  0  0999 V2000
   58.8410   29.8100   44.4930 C   0  0  0  0  0  0  0  0  0  0  0  0
   58.7470   29.4810   45.7890 C   0  0  0  0  0  0  0  0  0  0  0  0
   58.2520   28.2830   46.3150 C   0  0  0  0  0  0  0  0  0  0  0  0
   57.8130   27.2120   45.6250 C   0  0  0  0  0  0  0  0  0  0  0  0
   57.1470   26.0520   46.2480 C   0  0  0  0  0  0  0  0  0  0  0  0
   57.8060   24.9520   46.6530 N   0  0  0  0  0  0  0  0  0  0  0  0
   56.8140   24.1250   47.0510 C   0  0  0  0  0  0  0  0  0  0  0  0
   57.0370   22.9770   47.5170 O   0  0  0  0  0  0  0  0  0  0  0  0
   55.5660   24.6170   46.8990 N   0  0  0  0  0  0  0  0  0  0  0  0
   55.7930   25.8340   46.3790 C   0  0  0  0  0  0  0  0  0  0  0  0
   54.7810   26.7040   45.9930 O   0  0  0  0  0  0  0  0  0  0  0  0
   58.3420   28.3950   47.6970 C   0  0  0  0  0  0  0  0  0  0  0  0
   58.8740   29.6430   47.9580 C   0  0  0  0  0  0  0  0  0  0  0  0
   59.1380   30.1990   49.3220 C   0  0  0  0  0  0  0  0  0  0  0  0
   59.1170   30.2980   46.8030 N   0  0  0  0  0  0  0  0  0  0  0  0
   59.6090   31.6450   46.6930 C   0  0  0  0  0  0  0  0  0  0  0  0
   58.7480   32.6330   46.2010 C   0  0  0  0  0  0  0  0  0  0  0  0
   59.1830   33.9500   46.0740 C   0  0  0  0  0  0  0  0  0  0  0  0
   60.4810   34.2950   46.4460 C   0  0  0  0  0  0  0  0  0  0  0  0
   61.3660   33.3250   46.9450 C   0  0  0  0  0  0  0  0  0  0  0  0
   62.7250   33.7620   47.3480 C   0  0  0  0  0  0  0  0  0  0  0  0
   63.5450   34.1320   46.4650 O   0  0  0  0  0  0  0  0  0  0  0  0
   63.1410   33.7180   48.7260 N   0  0  0  0  0  0  0  0  0  0  0  0
   62.2210   34.0750   49.8120 C   0  0  0  0  0  0  0  0  0  0  0  0
   62.3160   33.0490   50.9590 C   0  0  0  0  0  0  0  0  0  0  0  0
   63.6770   32.4920   51.1650 N   0  0  0  0  0  0  0  0  0  0  0  0
   63.7620   31.0800   50.7500 C   0  0  0  0  0  0  0  0  0  0  0  0
   64.7520   33.3070   50.5590 C   0  0  0  0  0  0  0  0  0  0  0  0
   64.5520   33.4850   49.0440 C   0  0  0  0  0  0  0  0  0  0  0  0
   60.9350   31.9760   47.0630 C   0  0  0  0  0  0  0  0  0  0  0  0
   61.8650   30.9150   47.5980 C   0  0  0  0  0  0  0  0  0  0  0  0
  1  2  2  0
  2  3  1  0
  3  4  2  0
  4  5  1  0
  5  6  1  0
  6  7  1  0
  7  8  2  0
  7  9  1  0
  9 10  1  0
 10 11  1  0
  3 12  1  0
 12 13  2  0
 13 14  1  0
 13 15  1  0
 15 16  1  0
 16 17  2  0
 17 18  1  0
 18 19  2  0
 19 20  1  0
 20 21  1  0
 21 22  2  0
 21 23  1  0
 23 24  1  0
 24 25  1  0
 25 26  1  0
 26 27  1  0
 26 28  1  0
 28 29  1  0
 20 30  2  0
 30 31  1  0
 15  2  1  0
 30 16  1  0
 10  5  2  0
 29 23  1  0
M  CHG  3   6  -1   9  -1  11  -1
M  END
>  <UniqueID>  (2173) 
63

>  <SMILES>  (2173) 
C=c1/c(=C/c2[n-]c(=O)[n-]c2[O-])cc(C)n1-c1cccc(C(=O)N2CCN(C)CC2)c1C

>  <Energy>  (2173) 
143.63512677369798

>  <Genealogy>  (2173) 
C=c1c(=Cc2[n-]c(=O)[n-]c2[O-])cc(C)n1-c1cccc(C(=O)N2CCN(C)CC2)c1C (protonated)
C=c1/c(=C/c2[n-]c(=O)[n-]c2[O-])cc(C)n1-c1cccc(C(=O)N2CCN(C)CC2)c1C (cis-trans isomerization)
C=c1/c(=C/c2[n-]c(=O)[n-]c2[O-])cc(C)n1-c1cccc(C(=O)N2CCN(C)CC2)c1C (3D coordinates assigned)
C=c1/c(=C/c2[n-]c(=O)[n-]c2[O-])cc(C)n1-c1cccc(C(=O)N2CCN(C)CC2)c1C (nonaromatic ring conformer: 143.63512677369798 kcal/mol)

>  <smiles>  (2173) 
C=c1c(=Cc2[nH]c(=O)[nH]c2O)cc(C)n1-c1cccc(C(=O)N2CCN(C)CC2)c1C

>  <score_type>  (2173) 
oracle

>  <origin>  (2173) 
adg

>  <m_score__min__energy>  (2173) 
-16.52

>  <m_primary>  (2173) 
energy

$$$$
73:0
     RDKit          3D

 33 36  0  0  0  0  0  0  0  0999 V2000
   60.0130   33.8670   46.2110 C   0  0  0  0  0  0  0  0  0  0  0  0
   59.2830   32.8470   45.7300 C   0  0  0  0  0  0  0  0  0  0  0  0
   58.1200   32.2870   46.5010 C   0  0  0  0  0  0  0  0  0  0  0  0
   58.2160   30.8180   46.5750 N   0  0  0  0  0  0  0  0  0  0  0  0
   58.6210   30.1020   47.6570 C   0  0  0  0  0  0  0  0  0  0  0  0
   59.0880   30.6660   48.9510 C   0  0  0  0  0  0  0  0  0  0  0  0
   58.2600   30.8340   49.8920 O   0  0  0  0  0  0  0  0  0  0  0  0
   60.4640   31.0870   49.1240 N   0  0  1  0  0  0  0  0  0  0  0  0
   61.2310   30.8210   47.8810 C   0  0  0  0  0  0  0  0  0  0  0  0
   62.5630   31.6060   47.8030 C   0  0  0  0  0  0  0  0  0  0  0  0
   63.0320   32.0960   49.1850 C   0  0  1  0  0  0  0  0  0  0  0  0
   64.3600   32.8180   49.1090 C   0  0  0  0  0  0  0  0  0  0  0  0
   64.5220   33.6820   48.2060 O   0  0  0  0  0  0  0  0  0  0  0  0
   65.4180   32.5980   50.0630 N   0  0  0  0  0  0  0  0  0  0  0  0
   66.2690   33.6790   50.5310 C   0  0  0  0  0  0  0  0  0  0  0  0
   67.4370   33.0080   51.2410 C   0  0  0  0  0  0  0  0  0  0  0  0
   66.9960   31.5690   51.5000 C   0  0  0  0  0  0  0  0  0  0  0  0
   65.8920   31.2900   50.4900 C   0  0  0  0  0  0  0  0  0  0  0  0
   61.9510   32.9270   49.9100 C   0  0  0  0  0  0  0  0  0  0  0  0
   60.5220   32.5160   49.5010 C   0  0  0  0  0  0  0  0  0  0  0  0
   58.5010   28.7480   47.4080 C   0  0  0  0  0  0  0  0  0  0  0  0
   57.9960   28.6100   46.1240 C   0  0  0  0  0  0  0  0  0  0  0  0
   57.7180   27.4540   45.4810 C   0  0  0  0  0  0  0  0  0  0  0  0
   57.2150   26.2130   46.1130 C   0  0  0  0  0  0  0  0  0  0  0  0
   57.9650   25.1750   46.5300 N   0  0  0  0  0  0  0  0  0  0  0  0
   57.0550   24.2860   46.9830 C   0  0  0  0  0  0  0  0  0  0  0  0
   57.3800   23.1710   47.4680 O   0  0  0  0  0  0  0  0  0  0  0  0
   55.7710   24.6850   46.8730 N   0  0  0  0  0  0  0  0  0  0  0  0
   55.8900   25.9030   46.3170 C   0  0  0  0  0  0  0  0  0  0  0  0
   54.8080   26.7140   45.9990 O   0  0  0  0  0  0  0  0  0  0  0  0
   57.8080   29.9130   45.6410 C   0  0  0  0  0  0  0  0  0  0  0  0
   57.2870   30.2370   44.4430 C   0  0  0  0  0  0  0  0  0  0  0  0
   59.3940   34.9130   47.0850 C   0  0  0  0  0  0  0  0  0  0  0  0
  1  2  2  3
  2  3  1  0
  3  4  1  0
  4  5  1  0
  5  6  1  0
  6  7  2  0
  8  6  1  6
  8  9  1  0
  9 10  1  0
 10 11  1  0
 11 12  1  6
 12 13  2  0
 12 14  1  0
 14 15  1  0
 15 16  1  0
 16 17  1  0
 17 18  1  0
 11 19  1  0
 19 20  1  0
  5 21  2  0
 21 22  1  0
 22 23  2  0
 23 24  1  0
 24 25  1  0
 25 26  1  0
 26 27  2  0
 26 28  1  0
 28 29  1  0
 29 30  1  0
 22 31  1  0
 31 32  2  0
  1 33  1  0
 31  4  1  0
 20  8  1  0
 29 24  2  0
 18 14  1  0
M  CHG  4   8   1  25  -1  28  -1  30  -1
M  END
>  <UniqueID>  (2174) 
68

>  <SMILES>  (2174) 
C=c1/c(=C/c2[n-]c(=O)[n-]c2[O-])cc(C(=O)[NH+]2CCC(C(=O)N3CCCC3)CC2)n1CC=CC

>  <Energy>  (2174) 
135.71286345503518

>  <Genealogy>  (2174) 
C=c1c(=Cc2[n-]c(=O)[n-]c2[O-])cc(C(=O)[NH+]2CCC(C(=O)N3CCCC3)CC2)n1CC=CC (protonated)
C=c1/c(=C/c2[n-]c(=O)[n-]c2[O-])cc(C(=O)[NH+]2CCC(C(=O)N3CCCC3)CC2)n1CC=CC (cis-trans isomerization)
C=c1/c(=C/c2[n-]c(=O)[n-]c2[O-])cc(C(=O)[NH+]2CCC(C(=O)N3CCCC3)CC2)n1CC=CC (3D coordinates assigned)
C=c1/c(=C/c2[n-]c(=O)[n-]c2[O-])cc(C(=O)[NH+]2CCC(C(=O)N3CCCC3)CC2)n1CC=CC (nonaromatic ring conformer: 135.71286345503518 kcal/mol)

>  <smiles>  (2174) 
C=c1c(=Cc2[nH]c(=O)[nH]c2O)cc(C(=O)N2CCC(C(=O)N3CCCC3)CC2)n1CC=CC

>  <score_type>  (2174) 
oracle

>  <origin>  (2174) 
adg

>  <m_score__min__energy>  (2174) 
-16.489999999999998

>  <m_primary>  (2174) 
energy

$$$$
85:0
     RDKit          3D

 31 34  0  0  0  0  0  0  0  0999 V2000
   53.6960   28.3170   53.5740 C   0  0  0  0  0  0  0  0  0  0  0  0
   54.5560   29.2920   53.2610 C   0  0  0  0  0  0  0  0  0  0  0  0
   54.2400   30.5580   52.7430 C   0  0  0  0  0  0  0  0  0  0  0  0
   53.0650   31.1880   52.5970 C   0  0  0  0  0  0  0  0  0  0  0  0
   52.1940   31.1390   51.4140 C   0  0  0  0  0  0  0  0  0  0  0  0
   52.3050   30.2060   50.4550 N   0  0  0  0  0  0  0  0  0  0  0  0
   51.4650   30.6390   49.4950 C   0  0  0  0  0  0  0  0  0  0  0  0
   51.2850   30.0100   48.4250 O   0  0  0  0  0  0  0  0  0  0  0  0
   50.8530   31.8110   49.7640 N   0  0  0  0  0  0  0  0  0  0  0  0
   51.3380   32.1220   50.9720 C   0  0  0  0  0  0  0  0  0  0  0  0
   51.0310   33.2950   51.6440 O   0  0  0  0  0  0  0  0  0  0  0  0
   55.4370   31.1100   52.3380 C   0  0  0  0  0  0  0  0  0  0  0  0
   56.4280   30.2040   52.6470 C   0  0  0  0  0  0  0  0  0  0  0  0
   57.8600   30.4690   52.4070 C   0  0  0  0  0  0  0  0  0  0  0  0
   58.6920   29.6290   52.8520 O   0  0  0  0  0  0  0  0  0  0  0  0
   58.3560   31.6760   51.7600 N   0  0  0  0  0  0  0  0  0  0  0  0
   57.7490   31.9590   50.4340 C   0  0  0  0  0  0  0  0  0  0  0  0
   58.5650   31.4950   49.1980 C   0  0  0  0  0  0  0  0  0  0  0  0
   60.0110   31.3460   49.4430 N   0  0  0  0  0  0  0  0  0  0  0  0
   60.7840   31.5640   48.2050 C   0  0  0  0  0  0  0  0  0  0  0  0
   60.1310   32.6170   47.3470 C   0  0  0  0  0  0  0  0  0  0  0  0
   60.3250   33.9740   47.6390 C   0  0  0  0  0  0  0  0  0  0  0  0
   59.7160   34.9600   46.8560 C   0  0  0  0  0  0  0  0  0  0  0  0
   58.9230   34.5920   45.7600 C   0  0  0  0  0  0  0  0  0  0  0  0
   58.7310   33.2390   45.4480 C   0  0  0  0  0  0  0  0  0  0  0  0
   57.8270   32.8470   44.3240 C   0  0  0  0  0  0  0  0  0  0  0  0
   59.3260   32.2590   46.2590 C   0  0  0  0  0  0  0  0  0  0  0  0
   60.4670   32.2300   50.5210 C   0  0  0  0  0  0  0  0  0  0  0  0
   59.8430   31.7270   51.8160 C   0  0  0  0  0  0  0  0  0  0  0  0
   55.9070   29.1140   53.2540 N   0  0  0  0  0  0  0  0  0  0  0  0
   56.6480   27.9530   53.7600 C   0  0  0  0  0  0  0  0  0  0  0  0
  1  2  2  0
  2  3  1  0
  3  4  2  0
  4  5  1  0
  5  6  1  0
  6  7  1  0
  7  8  2  0
  7  9  1  0
  9 10  1  0
 10 11  1  0
  3 12  1  0
 12 13  2  0
 13 14  1  0
 14 15  2  0
 14 16  1  0
 16 17  1  0
 17 18  1  0
 18 19  1  0
 19 20  1  0
 20 21  1  0
 21 22  2  0
 22 23  1  0
 23 24  2  0
 24 25  1  0
 25 26  1  0
 25 27  2  0
 19 28  1  0
 28 29  1  0
 13 30  1  0
 30 31  1  0
 30  2  1  0
 10  5  2  0
 29 16  1  0
 27 21  1  0
M  CHG  4   6  -1   9  -1  11  -1  16   1
M  END
>  <UniqueID>  (2175) 
80

>  <SMILES>  (2175) 
C=c1/c(=C\c2[n-]c(=O)[n-]c2[O-])cc(C(=O)[NH+]2CCN(Cc3cccc(C)c3)CC2)n1C

>  <Energy>  (2175) 
156.2639496189754

>  <Genealogy>  (2175) 
C=c1c(=Cc2[n-]c(=O)[n-]c2[O-])cc(C(=O)[NH+]2CCN(Cc3cccc(C)c3)CC2)n1C (protonated)
C=c1/c(=C\c2[n-]c(=O)[n-]c2[O-])cc(C(=O)[NH+]2CCN(Cc3cccc(C)c3)CC2)n1C (cis-trans isomerization)
C=c1/c(=C\c2[n-]c(=O)[n-]c2[O-])cc(C(=O)[NH+]2CCN(Cc3cccc(C)c3)CC2)n1C (3D coordinates assigned)
C=c1/c(=C\c2[n-]c(=O)[n-]c2[O-])cc(C(=O)[NH+]2CCN(Cc3cccc(C)c3)CC2)n1C (nonaromatic ring conformer: 156.2639496189754 kcal/mol)

>  <smiles>  (2175) 
C=c1c(=Cc2[nH]c(=O)[nH]c2O)cc(C(=O)N2CCN(Cc3cccc(C)c3)CC2)n1C

>  <score_type>  (2175) 
oracle

>  <origin>  (2175) 
adg

>  <m_score__min__energy>  (2175) 
-17.52

>  <m_primary>  (2175) 
energy

$$$$
1:0
     RDKit          3D

 35 39  0  0  0  0  0  0  0  0999 V2000
   58.9300   30.8900   45.5350 C   0  0  0  0  0  0  0  0  0  0  0  0
   58.7870   30.2400   46.7020 C   0  0  0  0  0  0  0  0  0  0  0  0
   58.6270   28.8570   46.8840 C   0  0  0  0  0  0  0  0  0  0  0  0
   58.3930   27.8670   46.0000 C   0  0  0  0  0  0  0  0  0  0  0  0
   57.2030   27.0000   45.9710 C   0  0  0  0  0  0  0  0  0  0  0  0
   57.1830   25.7520   46.4740 N   0  0  0  0  0  0  0  0  0  0  0  0
   55.8850   25.3920   46.3670 C   0  0  0  0  0  0  0  0  0  0  0  0
   55.4630   24.2600   46.7260 O   0  0  0  0  0  0  0  0  0  0  0  0
   55.0730   26.3430   45.8600 N   0  0  0  0  0  0  0  0  0  0  0  0
   55.9190   27.3610   45.6310 C   0  0  0  0  0  0  0  0  0  0  0  0
   55.5210   28.6010   45.1490 O   0  0  0  0  0  0  0  0  0  0  0  0
   58.7370   28.6310   48.2460 C   0  0  0  0  0  0  0  0  0  0  0  0
   58.8810   29.8630   48.8450 C   0  0  0  0  0  0  0  0  0  0  0  0
   58.9910   30.0860   50.2970 C   0  0  0  0  0  0  0  0  0  0  0  0
   57.9620   30.4440   50.9310 O   0  0  0  0  0  0  0  0  0  0  0  0
   60.2180   29.8200   51.0090 N   0  0  0  0  0  0  0  0  0  0  0  0
   61.4910   29.7390   50.2840 C   0  0  0  0  0  0  0  0  0  0  0  0
   62.6630   29.9400   51.2480 C   0  0  0  0  0  0  0  0  0  0  0  0
   62.5590   29.0600   52.3470 O   0  0  0  0  0  0  0  0  0  0  0  0
   61.4310   29.4100   53.1240 C   0  0  0  0  0  0  0  0  0  0  0  0
   60.1330   29.1960   52.3360 C   0  0  0  0  0  0  0  0  0  0  0  0
   58.9170   30.8430   47.9120 N   0  0  0  0  0  0  0  0  0  0  0  0
   59.1260   32.2760   48.1800 C   0  0  0  0  0  0  0  0  0  0  0  0
   60.5210   32.5500   48.6900 C   0  0  0  0  0  0  0  0  0  0  0  0
   61.6500   32.3440   47.8830 C   0  0  0  0  0  0  0  0  0  0  0  0
   62.9250   32.6040   48.3830 C   0  0  0  0  0  0  0  0  0  0  0  0
   63.0760   33.0510   49.7060 C   0  0  0  0  0  0  0  0  0  0  0  0
   64.4260   33.3360   50.2520 C   0  0  0  0  0  0  0  0  0  0  0  0
   64.5890   34.2140   51.3410 C   0  0  0  0  0  0  0  0  0  0  0  0
   65.8630   34.4710   51.8570 C   0  0  0  0  0  0  0  0  0  0  0  0
   66.9860   33.8620   51.2910 C   0  0  0  0  0  0  0  0  0  0  0  0
   66.8350   32.9930   50.2070 C   0  0  0  0  0  0  0  0  0  0  0  0
   65.5630   32.7270   49.6890 C   0  0  0  0  0  0  0  0  0  0  0  0
   61.9660   33.2130   50.4890 N   0  0  0  0  0  0  0  0  0  0  0  0
   60.7140   32.9710   50.0130 C   0  0  0  0  0  0  0  0  0  0  0  0
  1  2  2  0
  2  3  1  0
  3  4  2  3
  4  5  1  0
  5  6  1  0
  6  7  1  0
  7  8  2  0
  7  9  1  0
  9 10  1  0
 10 11  1  0
  3 12  1  0
 12 13  2  0
 13 14  1  0
 14 15  2  0
 14 16  1  0
 16 17  1  0
 17 18  1  0
 18 19  1  0
 19 20  1  0
 20 21  1  0
 13 22  1  0
 22 23  1  0
 23 24  1  0
 24 25  2  0
 25 26  1  0
 26 27  2  0
 27 28  1  0
 28 29  2  0
 29 30  1  0
 30 31  2  0
 31 32  1  0
 32 33  2  0
 27 34  1  0
 34 35  2  0
 22  2  1  0
 35 24  1  0
 10  5  2  0
 21 16  1  0
 33 28  1  0
M  CHG  4   6  -1   9  -1  11  -1  34   1
M  END
>  <UniqueID>  (2176) 
2

>  <SMILES>  (2176) 
C=c1c(=Cc2[n-]c(=O)[n-]c2[O-])cc(C(=O)N2CCOCC2)n1Cc1ccc(-c2ccccc2)[nH+]c1

>  <Energy>  (2176) 
148.57637830369947

>  <Genealogy>  (2176) 
C=c1c(=Cc2[n-]c(=O)[n-]c2[O-])cc(C(=O)N2CCOCC2)n1Cc1ccc(-c2ccccc2)[nH+]c1 (protonated)
C=c1c(=Cc2[n-]c(=O)[n-]c2[O-])cc(C(=O)N2CCOCC2)n1Cc1ccc(-c2ccccc2)[nH+]c1 (3D coordinates assigned)
C=c1c(=Cc2[n-]c(=O)[n-]c2[O-])cc(C(=O)N2CCOCC2)n1Cc1ccc(-c2ccccc2)[nH+]c1 (nonaromatic ring conformer: 148.57637830369947 kcal/mol)

>  <smiles>  (2176) 
C=c1c(=Cc2[nH]c(=O)[nH]c2O)cc(C(=O)N2CCOCC2)n1Cc1ccc(-c2ccccc2)nc1

>  <score_type>  (2176) 
oracle

>  <origin>  (2176) 
adg

>  <m_score__min__energy>  (2176) 
-16.59

>  <m_primary>  (2176) 
energy

$$$$
16:0
     RDKit          3D

 25 27  0  0  0  0  0  0  0  0999 V2000
   59.1330   28.2700   47.3290 C   0  0  0  0  0  0  0  0  0  0  0  0
   58.2890   28.9420   46.5300 C   0  0  0  0  0  0  0  0  0  0  0  0
   57.5770   28.4540   45.4260 C   0  0  0  0  0  0  0  0  0  0  0  0
   57.4080   27.1990   44.9600 C   0  0  0  0  0  0  0  0  0  0  0  0
   57.1080   26.0140   45.7860 C   0  0  0  0  0  0  0  0  0  0  0  0
   55.8180   25.8190   46.3000 C   0  0  0  0  0  0  0  0  0  0  0  0
   54.7950   26.7100   45.9990 O   0  0  0  0  0  0  0  0  0  0  0  0
   55.5590   24.7470   47.0920 N   0  0  0  0  0  0  0  0  0  0  0  0
   56.5340   23.8600   47.4130 C   0  0  0  0  0  0  0  0  0  0  0  0
   56.1910   22.5800   48.3660 S   0  0  0  0  0  0  0  0  0  0  0  0
   57.7980   24.0420   46.9520 N   0  0  0  0  0  0  0  0  0  0  0  0
   58.1090   25.0980   46.1570 C   0  0  0  0  0  0  0  0  0  0  0  0
   59.2980   25.2480   45.7640 O   0  0  0  0  0  0  0  0  0  0  0  0
   57.0250   29.5940   44.8520 C   0  0  0  0  0  0  0  0  0  0  0  0
   56.1640   29.6600   43.6290 C   0  0  0  0  0  0  0  0  0  0  0  0
   57.3420   30.6770   45.5840 N   0  0  0  0  0  0  0  0  0  0  0  0
   58.0830   30.2810   46.6080 N   0  0  0  0  0  0  0  0  0  0  0  0
   58.6710   31.2130   47.5820 C   0  0  0  0  0  0  0  0  0  0  0  0
   59.0070   32.5400   46.9430 C   0  0  0  0  0  0  0  0  0  0  0  0
   57.9740   33.3550   46.4490 C   0  0  0  0  0  0  0  0  0  0  0  0
   58.2620   34.5970   45.8790 C   0  0  0  0  0  0  0  0  0  0  0  0
   59.5830   35.0420   45.8020 C   0  0  0  0  0  0  0  0  0  0  0  0
   60.6190   34.2480   46.3000 C   0  0  0  0  0  0  0  0  0  0  0  0
   60.3400   33.0020   46.8740 C   0  0  0  0  0  0  0  0  0  0  0  0
   61.6810   32.0530   47.5100 Cl  0  0  0  0  0  0  0  0  0  0  0  0
  1  2  2  0
  2  3  1  0
  3  4  2  3
  4  5  1  0
  5  6  2  0
  6  7  1  0
  6  8  1  0
  8  9  1  0
  9 10  2  0
  9 11  1  0
 11 12  1  0
 12 13  2  0
  3 14  1  0
 14 15  1  0
 14 16  2  0
 16 17  1  0
 17 18  1  0
 18 19  1  0
 19 20  2  0
 20 21  1  0
 21 22  2  0
 22 23  1  0
 23 24  2  0
 24 25  1  0
 17  2  1  0
 24 19  1  0
 12  5  1  0
M  CHG  3   7  -1   8  -1  11  -1
M  END
>  <UniqueID>  (2177) 
17

>  <SMILES>  (2177) 
C=c1c(=Cc2c([O-])[n-]c(=S)[n-]c2=O)c(C)nn1Cc1ccccc1Cl

>  <Energy>  (2177) 
86.79803703627647

>  <Genealogy>  (2177) 
C=c1c(=Cc2c([O-])[n-]c(=S)[n-]c2=O)c(C)nn1Cc1ccccc1Cl (protonated)
C=c1c(=Cc2c([O-])[n-]c(=S)[n-]c2=O)c(C)nn1Cc1ccccc1Cl (3D coordinates assigned)
C=c1c(=Cc2c([O-])[n-]c(=S)[n-]c2=O)c(C)nn1Cc1ccccc1Cl (optimized conformer: 86.79803703627647 kcal/mol)

>  <smiles>  (2177) 
C=c1c(=Cc2c(O)[nH]c(=S)[nH]c2=O)c(C)nn1Cc1ccccc1Cl

>  <score_type>  (2177) 
oracle

>  <origin>  (2177) 
adg

>  <m_score__min__energy>  (2177) 
-16.050000000000001

>  <m_primary>  (2177) 
energy

$$$$
20:0
     RDKit          3D

 29 32  0  0  0  0  0  0  0  0999 V2000
   59.9760   27.1820   46.2110 O   0  0  0  0  0  0  0  0  0  0  0  0
   58.6020   27.3050   46.0020 C   0  0  0  0  0  0  0  0  0  0  0  0
   57.7930   26.2790   46.3740 N   0  0  0  0  0  0  0  0  0  0  0  0
   56.4480   26.3390   46.1960 C   0  0  0  0  0  0  0  0  0  0  0  0
   55.7230   25.3750   46.5540 O   0  0  0  0  0  0  0  0  0  0  0  0
   55.8850   27.4340   45.6280 N   0  0  0  0  0  0  0  0  0  0  0  0
   56.6450   28.4890   45.2350 C   0  0  0  0  0  0  0  0  0  0  0  0
   56.0890   29.4820   44.6920 O   0  0  0  0  0  0  0  0  0  0  0  0
   58.0390   28.4630   45.4310 C   0  0  0  0  0  0  0  0  0  0  0  0
   58.8930   29.5760   44.9700 C   0  0  0  0  0  0  0  0  0  0  0  0
   58.7900   30.8590   45.3660 C   0  0  0  0  0  0  0  0  0  0  0  0
   57.8750   31.7360   44.8120 C   0  0  0  0  0  0  0  0  0  0  0  0
   57.9770   32.9190   45.5110 C   0  0  0  0  0  0  0  0  0  0  0  0
   57.1000   34.1120   45.2800 C   0  0  0  0  0  0  0  0  0  0  0  0
   58.9380   32.8300   46.4610 N   0  0  0  0  0  0  0  0  0  0  0  0
   59.2590   33.8850   47.4370 C   0  0  0  0  0  0  0  0  0  0  0  0
   59.4640   33.2910   48.8080 C   0  0  0  0  0  0  0  0  0  0  0  0
   60.6160   33.5960   49.5490 C   0  0  0  0  0  0  0  0  0  0  0  0
   60.7940   33.0590   50.8260 C   0  0  0  0  0  0  0  0  0  0  0  0
   59.8260   32.2150   51.3760 C   0  0  0  0  0  0  0  0  0  0  0  0
   58.6670   31.8960   50.6470 C   0  0  0  0  0  0  0  0  0  0  0  0
   57.6390   31.0090   51.2290 C   0  0  0  0  0  0  0  0  0  0  0  0
   57.8270   29.7080   51.5180 N   0  0  0  0  0  0  0  0  0  0  0  0
   56.6710   29.3010   52.0160 N   0  0  0  0  0  0  0  0  0  0  0  0
   55.8120   30.3080   52.0320 N   0  0  0  0  0  0  0  0  0  0  0  0
   56.3880   31.3950   51.5440 N   0  0  0  0  0  0  0  0  0  0  0  0
   58.4960   32.4350   49.3610 C   0  0  0  0  0  0  0  0  0  0  0  0
   59.4660   31.5770   46.3700 C   0  0  0  0  0  0  0  0  0  0  0  0
   60.5290   31.1570   47.0770 C   0  0  0  0  0  0  0  0  0  0  0  0
  1  2  1  0
  2  3  1  0
  3  4  1  0
  4  5  2  0
  4  6  1  0
  6  7  1  0
  7  8  2  0
  7  9  1  0
  9 10  1  0
 10 11  2  0
 11 12  1  0
 12 13  2  0
 13 14  1  0
 13 15  1  0
 15 16  1  0
 16 17  1  0
 17 18  2  0
 18 19  1  0
 19 20  2  0
 20 21  1  0
 21 22  1  0
 22 23  1  0
 23 24  2  0
 24 25  1  0
 25 26  1  0
 21 27  2  0
 15 28  1  0
 28 29  2  0
  9  2  2  0
 28 11  1  0
 27 17  1  0
 26 22  2  0
M  CHG  3   3  -1   6  -1  25  -1
M  END
>  <UniqueID>  (2178) 
21

>  <SMILES>  (2178) 
C=c1/c(=C\c2c(O)[n-]c(=O)[n-]c2=O)cc(C)n1Cc1cccc(-c2nn[n-]n2)c1

>  <Energy>  (2178) 
128.77901378989893

>  <Genealogy>  (2178) 
C=c1c(=Cc2c(O)[n-]c(=O)[n-]c2=O)cc(C)n1Cc1cccc(-c2nn[n-]n2)c1 (protonated)
C=c1/c(=C\c2c(O)[n-]c(=O)[n-]c2=O)cc(C)n1Cc1cccc(-c2nn[n-]n2)c1 (cis-trans isomerization)
C=c1/c(=C\c2c(O)[n-]c(=O)[n-]c2=O)cc(C)n1Cc1cccc(-c2nn[n-]n2)c1 (3D coordinates assigned)
C=c1/c(=C\c2c(O)[n-]c(=O)[n-]c2=O)cc(C)n1Cc1cccc(-c2nn[n-]n2)c1 (optimized conformer: 128.77901378989893 kcal/mol)

>  <smiles>  (2178) 
C=c1c(=Cc2c(O)[nH]c(=O)[nH]c2=O)cc(C)n1Cc1cccc(-c2nn[nH]n2)c1

>  <score_type>  (2178) 
oracle

>  <origin>  (2178) 
adg

>  <m_score__min__energy>  (2178) 
-14.59

>  <m_primary>  (2178) 
energy

$$$$
25:0
     RDKit          3D

 30 32  0  0  0  0  0  0  0  0999 V2000
   55.4560   25.2470   45.5820 C   0  0  0  0  0  0  0  0  0  0  0  0
   55.4840   26.6130   45.9820 O   0  0  0  0  0  0  0  0  0  0  0  0
   56.5750   27.4750   45.7900 C   0  0  0  0  0  0  0  0  0  0  0  0
   57.8570   27.1910   46.3000 C   0  0  0  0  0  0  0  0  0  0  0  0
   58.9170   28.0890   46.1030 C   0  0  0  0  0  0  0  0  0  0  0  0
   60.2540   27.7640   46.6450 C   0  0  0  0  0  0  0  0  0  0  0  0
   60.7820   28.2950   47.7600 C   0  0  0  0  0  0  0  0  0  0  0  0
   60.4430   27.8720   49.1300 C   0  0  0  0  0  0  0  0  0  0  0  0
   61.0490   26.8920   49.6370 O   0  0  0  0  0  0  0  0  0  0  0  0
   59.3720   28.5040   49.8410 N   0  0  0  0  0  0  0  0  0  0  0  0
   59.1550   29.9180   49.9490 C   0  0  0  0  0  0  0  0  0  0  0  0
   59.8550   30.8320   49.1400 C   0  0  0  0  0  0  0  0  0  0  0  0
   59.5570   32.2000   49.1920 C   0  0  0  0  0  0  0  0  0  0  0  0
   60.4020   33.3310   48.1330 S   0  0  0  0  0  0  0  0  0  0  0  0
   61.7860   32.8120   47.8600 O   0  0  0  0  0  0  0  0  0  0  0  0
   60.5300   34.6570   48.8280 O   0  0  0  0  0  0  0  0  0  0  0  0
   59.5550   33.5580   46.6210 N   0  0  0  0  0  0  0  0  0  0  0  0
   58.2380   34.1650   46.8550 C   0  0  0  0  0  0  0  0  0  0  0  0
   57.5030   34.3650   45.5120 C   0  0  0  0  0  0  0  0  0  0  0  0
   58.2180   33.8060   44.4230 O   0  0  0  0  0  0  0  0  0  0  0  0
   58.4920   32.4420   44.6790 C   0  0  0  0  0  0  0  0  0  0  0  0
   59.4030   32.2750   45.9140 C   0  0  0  0  0  0  0  0  0  0  0  0
   58.5630   32.6590   50.0660 C   0  0  0  0  0  0  0  0  0  0  0  0
   57.8600   31.7560   50.8670 C   0  0  0  0  0  0  0  0  0  0  0  0
   58.1460   30.3890   50.8010 C   0  0  0  0  0  0  0  0  0  0  0  0
   57.4200   29.4980   51.5850 O   0  0  0  0  0  0  0  0  0  0  0  0
   58.7040   29.2510   45.3410 C   0  0  0  0  0  0  0  0  0  0  0  0
   57.4330   29.5390   44.8390 C   0  0  0  0  0  0  0  0  0  0  0  0
   56.3720   28.6580   45.0640 C   0  0  0  0  0  0  0  0  0  0  0  0
   55.1130   28.9590   44.5600 O   0  0  0  0  0  0  0  0  0  0  0  0
  1  2  1  0
  2  3  1  0
  3  4  2  0
  4  5  1  0
  5  6  1  0
  6  7  2  3
  7  8  1  0
  8  9  2  0
  8 10  1  0
 10 11  1  0
 11 12  2  0
 12 13  1  0
 13 14  1  0
 14 15  2  0
 14 16  2  0
 14 17  1  0
 17 18  1  0
 18 19  1  0
 19 20  1  0
 20 21  1  0
 21 22  1  0
 13 23  2  0
 23 24  1  0
 24 25  2  0
 25 26  1  0
  5 27  2  0
 27 28  1  0
 28 29  2  0
 29 30  1  0
 29  3  1  0
 25 11  1  0
 22 17  1  0
M  CHG  3  10  -1  26  -1  30  -1
M  END
>  <UniqueID>  (2179) 
26

>  <SMILES>  (2179) 
COc1cc(C=CC(=O)[N-]c2cc(S(=O)(=O)N3CCOCC3)ccc2[O-])ccc1[O-]

>  <Energy>  (2179) 
65.75102318287759

>  <Genealogy>  (2179) 
COc1cc(C=CC(=O)[N-]c2cc(S(=O)(=O)N3CCOCC3)ccc2[O-])ccc1[O-] (protonated)
COc1cc(C=CC(=O)[N-]c2cc(S(=O)(=O)N3CCOCC3)ccc2[O-])ccc1[O-] (3D coordinates assigned)
COc1cc(C=CC(=O)[N-]c2cc(S(=O)(=O)N3CCOCC3)ccc2[O-])ccc1[O-] (nonaromatic ring conformer: 65.75102318287759 kcal/mol)

>  <smiles>  (2179) 
COc1cc(C=CC(=O)Nc2cc(S(=O)(=O)N3CCOCC3)ccc2O)ccc1O

>  <score_type>  (2179) 
oracle

>  <origin>  (2179) 
adg

>  <m_score__min__energy>  (2179) 
-15.359999999999999

>  <m_primary>  (2179) 
energy

$$$$
46:0
     RDKit          3D

 28 31  0  0  0  0  0  0  0  0999 V2000
   53.4780   29.6220   54.7130 C   0  0  0  0  0  0  0  0  0  0  0  0
   54.1400   30.0410   53.6290 C   0  0  0  0  0  0  0  0  0  0  0  0
   55.4650   29.8500   53.4710 N   0  0  0  0  0  0  0  0  0  0  0  0
   55.8050   30.3820   52.2810 C   0  0  0  0  0  0  0  0  0  0  0  0
   57.1900   30.4180   51.7690 C   0  0  0  0  0  0  0  0  0  0  0  0
   57.7670   29.3270   51.5070 O   0  0  0  0  0  0  0  0  0  0  0  0
   57.9270   31.6860   51.5640 C   0  0  0  0  0  0  0  0  0  0  0  0
   58.0490   32.6280   52.6000 C   0  0  0  0  0  0  0  0  0  0  0  0
   58.7450   33.8200   52.3910 C   0  0  0  0  0  0  0  0  0  0  0  0
   59.3090   34.0940   51.1440 C   0  0  0  0  0  0  0  0  0  0  0  0
   59.1690   33.1830   50.0870 C   0  0  0  0  0  0  0  0  0  0  0  0
   59.7550   33.4720   48.8050 N   0  0  0  0  0  0  0  0  0  0  0  0
   59.2710   34.3350   47.8940 C   0  0  0  0  0  0  0  0  0  0  0  0
   60.1150   34.3290   46.8060 C   0  0  0  0  0  0  0  0  0  0  0  0
   61.1220   33.4580   47.0190 N   0  0  0  0  0  0  0  0  0  0  0  0
   60.8680   32.9460   48.2420 C   0  0  0  0  0  0  0  0  0  0  0  0
   61.7360   31.8990   48.8670 C   0  0  0  0  0  0  0  0  0  0  0  0
   58.4810   31.9780   50.3060 C   0  0  0  0  0  0  0  0  0  0  0  0
   54.6930   30.9380   51.6700 C   0  0  0  0  0  0  0  0  0  0  0  0
   53.6160   30.7140   52.5210 C   0  0  0  0  0  0  0  0  0  0  0  0
   52.3360   31.0990   52.3370 C   0  0  0  0  0  0  0  0  0  0  0  0
   51.6800   31.2440   51.0180 C   0  0  0  0  0  0  0  0  0  0  0  0
   51.0250   32.3410   50.5960 N   0  0  0  0  0  0  0  0  0  0  0  0
   50.6740   32.0350   49.3300 C   0  0  0  0  0  0  0  0  0  0  0  0
   50.0270   32.8280   48.5950 O   0  0  0  0  0  0  0  0  0  0  0  0
   51.0740   30.8170   48.9110 N   0  0  0  0  0  0  0  0  0  0  0  0
   51.7140   30.3280   49.9850 C   0  0  0  0  0  0  0  0  0  0  0  0
   52.3050   29.0670   50.0090 O   0  0  0  0  0  0  0  0  0  0  0  0
  1  2  2  0
  2  3  1  0
  3  4  1  0
  4  5  1  0
  5  6  2  0
  5  7  1  0
  7  8  2  0
  8  9  1  0
  9 10  2  0
 10 11  1  0
 11 12  1  0
 12 13  1  0
 13 14  2  0
 14 15  1  0
 15 16  2  0
 16 17  1  0
 11 18  2  0
  4 19  2  0
 19 20  1  0
 20 21  2  3
 21 22  1  0
 22 23  1  0
 23 24  1  0
 24 25  2  0
 24 26  1  0
 26 27  1  0
 27 28  1  0
 20  2  1  0
 27 22  2  0
 18  7  1  0
 16 12  1  0
M  CHG  2  23  -1  26  -1
M  END
>  <UniqueID>  (2180) 
47

>  <SMILES>  (2180) 
C=c1[nH]c(C(=O)c2cccc(-n3ccnc3C)c2)cc1=Cc1[n-]c(=O)[n-]c1O

>  <Energy>  (2180) 
145.24004258880422

>  <Genealogy>  (2180) 
C=c1[nH]c(C(=O)c2cccc(-n3ccnc3C)c2)cc1=Cc1[n-]c(=O)[n-]c1O (protonated)
C=c1[nH]c(C(=O)c2cccc(-n3ccnc3C)c2)cc1=Cc1[n-]c(=O)[n-]c1O (3D coordinates assigned)
C=c1[nH]c(C(=O)c2cccc(-n3ccnc3C)c2)cc1=Cc1[n-]c(=O)[n-]c1O (optimized conformer: 145.24004258880422 kcal/mol)

>  <smiles>  (2180) 
C=c1[nH]c(C(=O)c2cccc(-n3ccnc3C)c2)cc1=Cc1[nH]c(=O)[nH]c1O

>  <score_type>  (2180) 
oracle

>  <origin>  (2180) 
adg

>  <m_score__min__energy>  (2180) 
-14.039999999999999

>  <m_primary>  (2180) 
energy

$$$$
49:0
     RDKit          3D

 31 34  0  0  0  0  0  0  0  0999 V2000
   59.4970   29.8680   45.1130 C   0  0  0  0  0  0  0  0  0  0  0  0
   59.2930   29.4310   46.3650 C   0  0  0  0  0  0  0  0  0  0  0  0
   58.5630   28.3000   46.7460 C   0  0  0  0  0  0  0  0  0  0  0  0
   57.9770   27.3990   45.9340 C   0  0  0  0  0  0  0  0  0  0  0  0
   57.3590   26.1420   46.3990 C   0  0  0  0  0  0  0  0  0  0  0  0
   58.0080   25.1090   46.9670 N   0  0  0  0  0  0  0  0  0  0  0  0
   57.0330   24.2490   47.3220 C   0  0  0  0  0  0  0  0  0  0  0  0
   57.2600   23.1520   47.8940 O   0  0  0  0  0  0  0  0  0  0  0  0
   55.7870   24.6770   47.0260 N   0  0  0  0  0  0  0  0  0  0  0  0
   56.0100   25.8770   46.4560 C   0  0  0  0  0  0  0  0  0  0  0  0
   55.0000   26.7140   46.0000 O   0  0  0  0  0  0  0  0  0  0  0  0
   58.6070   28.2590   48.1350 C   0  0  0  0  0  0  0  0  0  0  0  0
   59.3460   29.3520   48.5410 C   0  0  0  0  0  0  0  0  0  0  0  0
   59.6640   29.6950   49.9640 C   0  0  0  0  0  0  0  0  0  0  0  0
   59.7650   30.0590   47.4700 N   0  0  0  0  0  0  0  0  0  0  0  0
   60.5430   31.2690   47.5180 C   0  0  0  0  0  0  0  0  0  0  0  0
   61.8980   31.2110   47.1610 C   0  0  0  0  0  0  0  0  0  0  0  0
   62.7020   32.3480   47.2410 C   0  0  0  0  0  0  0  0  0  0  0  0
   62.1620   33.5540   47.6830 C   0  0  0  0  0  0  0  0  0  0  0  0
   60.8120   33.6300   48.0380 C   0  0  0  0  0  0  0  0  0  0  0  0
   59.9810   32.4970   47.9530 C   0  0  0  0  0  0  0  0  0  0  0  0
   58.5440   32.6270   48.3060 C   0  0  0  0  0  0  0  0  0  0  0  0
   58.1500   32.3340   49.4680 O   0  0  0  0  0  0  0  0  0  0  0  0
   57.6070   33.0650   47.3060 N   0  0  0  0  0  0  0  0  0  0  0  0
   57.6690   32.8490   46.0240 C   0  0  0  0  0  0  0  0  0  0  0  0
   58.4260   33.7110   45.2210 C   0  0  0  0  0  0  0  0  0  0  0  0
   58.4950   33.4900   43.8460 C   0  0  0  0  0  0  0  0  0  0  0  0
   57.7980   32.4190   43.2710 C   0  0  0  0  0  0  0  0  0  0  0  0
   57.8960   32.1440   41.8000 C   0  0  0  0  0  0  0  0  0  0  0  0
   57.0640   31.5670   44.1080 C   0  0  0  0  0  0  0  0  0  0  0  0
   57.0140   31.8030   45.4470 N   0  0  0  0  0  0  0  0  0  0  0  0
  1  2  2  0
  2  3  1  0
  3  4  2  3
  4  5  1  0
  5  6  1  0
  6  7  1  0
  7  8  2  0
  7  9  1  0
  9 10  1  0
 10 11  1  0
  3 12  1  0
 12 13  2  0
 13 14  1  0
 13 15  1  0
 15 16  1  0
 16 17  2  0
 17 18  1  0
 18 19  2  0
 19 20  1  0
 20 21  2  0
 21 22  1  0
 22 23  2  0
 22 24  1  0
 24 25  2  3
 25 26  1  0
 26 27  2  0
 27 28  1  0
 28 29  1  0
 28 30  2  0
 30 31  1  0
 15  2  1  0
 21 16  1  0
 31 25  1  0
 10  5  2  0
M  CHG  3   9  -1  11  -1  31  -1
M  END
>  <UniqueID>  (2181) 
50

>  <SMILES>  (2181) 
C=c1c(=Cc2[nH]c(=O)[n-]c2[O-])cc(C)n1-c1ccccc1C(=O)N=c1ccc(C)c[n-]1

>  <Energy>  (2181) 
129.82925367928092

>  <Genealogy>  (2181) 
C=c1c(=Cc2[nH]c(=O)[n-]c2[O-])cc(C)n1-c1ccccc1C(=O)N=c1ccc(C)c[n-]1 (protonated)
C=c1c(=Cc2[nH]c(=O)[n-]c2[O-])cc(C)n1-c1ccccc1C(=O)N=c1ccc(C)c[n-]1 (3D coordinates assigned)
C=c1c(=Cc2[nH]c(=O)[n-]c2[O-])cc(C)n1-c1ccccc1C(=O)N=c1ccc(C)c[n-]1 (optimized conformer: 129.82925367928092 kcal/mol)

>  <smiles>  (2181) 
C=c1c(=Cc2[nH]c(=O)[nH]c2O)cc(C)n1-c1ccccc1C(=O)N=c1ccc(C)c[nH]1

>  <score_type>  (2181) 
oracle

>  <origin>  (2181) 
adg

>  <m_score__min__energy>  (2181) 
-16.41

>  <m_primary>  (2181) 
energy

$$$$
50:0
     RDKit          3D

 35 39  0  0  0  0  0  0  0  0999 V2000
   54.0400   28.6770   53.7200 C   0  0  0  0  0  0  0  0  0  0  0  0
   54.8350   29.5400   53.0620 C   0  0  0  0  0  0  0  0  0  0  0  0
   54.4150   30.7290   52.4470 C   0  0  0  0  0  0  0  0  0  0  0  0
   53.1560   31.2120   52.3800 C   0  0  0  0  0  0  0  0  0  0  0  0
   52.3030   31.2230   51.1670 C   0  0  0  0  0  0  0  0  0  0  0  0
   52.3300   30.3160   50.1740 N   0  0  0  0  0  0  0  0  0  0  0  0
   51.3880   30.7580   49.3150 C   0  0  0  0  0  0  0  0  0  0  0  0
   51.1120   30.1560   48.2450 O   0  0  0  0  0  0  0  0  0  0  0  0
   50.7610   31.8920   49.6970 N   0  0  0  0  0  0  0  0  0  0  0  0
   51.3580   32.1770   50.8640 C   0  0  0  0  0  0  0  0  0  0  0  0
   51.0380   33.2820   51.6420 O   0  0  0  0  0  0  0  0  0  0  0  0
   55.5470   31.2860   51.8730 C   0  0  0  0  0  0  0  0  0  0  0  0
   56.6050   30.4460   52.1590 C   0  0  0  0  0  0  0  0  0  0  0  0
   57.9940   30.6400   51.6840 C   0  0  0  0  0  0  0  0  0  0  0  0
   58.9530   30.4520   52.4770 O   0  0  0  0  0  0  0  0  0  0  0  0
   58.2820   30.9370   50.3100 N   0  0  0  0  0  0  0  0  0  0  0  0
   58.8640   29.8810   49.4760 C   0  0  0  0  0  0  0  0  0  0  0  0
   59.9020   30.4760   48.5250 C   0  0  0  0  0  0  0  0  0  0  0  0
   59.2890   31.6240   47.6840 C   0  0  0  0  0  0  0  0  0  0  0  0
   58.1650   31.1860   46.7970 N   0  0  0  0  0  0  0  0  0  0  0  0
   57.8260   32.2550   45.8170 C   0  0  0  0  0  0  0  0  0  0  0  0
   57.1580   31.7120   44.5410 C   0  0  0  0  0  0  0  0  0  0  0  0
   56.4000   30.5680   44.8530 O   0  0  0  0  0  0  0  0  0  0  0  0
   57.2690   29.4960   45.1880 C   0  0  0  0  0  0  0  0  0  0  0  0
   58.4480   29.9100   46.1000 C   0  0  0  0  0  0  0  0  0  0  0  0
   58.8290   32.7120   48.6840 C   0  0  0  0  0  0  0  0  0  0  0  0
   57.7920   32.1650   49.6760 C   0  0  0  0  0  0  0  0  0  0  0  0
   56.1770   29.3770   52.8820 N   0  0  0  0  0  0  0  0  0  0  0  0
   57.0210   28.2370   53.2900 C   0  0  0  0  0  0  0  0  0  0  0  0
   58.1660   28.6840   54.1670 C   0  0  0  0  0  0  0  0  0  0  0  0
   57.9130   29.4720   55.3040 C   0  0  0  0  0  0  0  0  0  0  0  0
   58.9680   29.9010   56.1130 C   0  0  0  0  0  0  0  0  0  0  0  0
   60.2820   29.5400   55.8020 C   0  0  0  0  0  0  0  0  0  0  0  0
   60.5400   28.7340   54.6890 C   0  0  0  0  0  0  0  0  0  0  0  0
   59.4860   28.2930   53.8840 C   0  0  0  0  0  0  0  0  0  0  0  0
  1  2  2  0
  2  3  1  0
  3  4  2  3
  4  5  1  0
  5  6  1  0
  6  7  1  0
  7  8  2  0
  7  9  1  0
  9 10  1  0
 10 11  1  0
  3 12  1  0
 12 13  2  0
 13 14  1  0
 14 15  2  0
 14 16  1  0
 16 17  1  0
 17 18  1  0
 18 19  1  0
 19 20  1  0
 20 21  1  0
 21 22  1  0
 22 23  1  0
 23 24  1  0
 24 25  1  0
 19 26  1  0
 26 27  1  0
 13 28  1  0
 28 29  1  0
 29 30  1  0
 30 31  2  0
 31 32  1  0
 32 33  2  0
 33 34  1  0
 34 35  2  0
 28  2  1  0
 35 30  1  0
 10  5  2  0
 27 16  1  0
 25 20  1  0
M  CHG  3   6  -1   9  -1  11  -1
M  END
>  <UniqueID>  (2182) 
51

>  <SMILES>  (2182) 
C=c1c(=Cc2[n-]c(=O)[n-]c2[O-])cc(C(=O)N2CCC(N3CCOCC3)CC2)n1Cc1ccccc1

>  <Energy>  (2182) 
152.04711792018261

>  <Genealogy>  (2182) 
C=c1c(=Cc2[n-]c(=O)[n-]c2[O-])cc(C(=O)N2CCC(N3CCOCC3)CC2)n1Cc1ccccc1 (protonated)
C=c1c(=Cc2[n-]c(=O)[n-]c2[O-])cc(C(=O)N2CCC(N3CCOCC3)CC2)n1Cc1ccccc1 (3D coordinates assigned)
C=c1c(=Cc2[n-]c(=O)[n-]c2[O-])cc(C(=O)N2CCC(N3CCOCC3)CC2)n1Cc1ccccc1 (nonaromatic ring conformer: 152.04711792018261 kcal/mol)

>  <smiles>  (2182) 
C=c1c(=Cc2[nH]c(=O)[nH]c2O)cc(C(=O)N2CCC(N3CCOCC3)CC2)n1Cc1ccccc1

>  <score_type>  (2182) 
oracle

>  <origin>  (2182) 
adg

>  <m_score__min__energy>  (2182) 
-17.620000000000001

>  <m_primary>  (2182) 
energy

$$$$
63:0
     RDKit          3D

 28 31  0  0  0  0  0  0  0  0999 V2000
   58.8410   28.3640   46.7420 C   0  0  0  0  0  0  0  0  0  0  0  0
   58.3280   28.7220   45.5540 C   0  0  0  0  0  0  0  0  0  0  0  0
   57.8050   27.8640   44.5810 C   0  0  0  0  0  0  0  0  0  0  0  0
   57.7400   26.5190   44.6290 C   0  0  0  0  0  0  0  0  0  0  0  0
   57.2120   25.7590   45.7780 C   0  0  0  0  0  0  0  0  0  0  0  0
   55.9700   25.8700   46.3730 C   0  0  0  0  0  0  0  0  0  0  0  0
   54.9430   26.7150   45.9700 O   0  0  0  0  0  0  0  0  0  0  0  0
   55.8940   25.0730   47.4560 N   0  0  0  0  0  0  0  0  0  0  0  0
   57.1190   24.5070   47.4990 C   0  0  0  0  0  0  0  0  0  0  0  0
   57.4620   23.6840   48.3880 O   0  0  0  0  0  0  0  0  0  0  0  0
   57.9450   24.9090   46.5130 N   0  0  0  0  0  0  0  0  0  0  0  0
   57.4170   28.6700   43.5180 C   0  0  0  0  0  0  0  0  0  0  0  0
   57.6960   29.9720   43.8870 C   0  0  0  0  0  0  0  0  0  0  0  0
   57.4560   31.1710   43.0210 C   0  0  0  0  0  0  0  0  0  0  0  0
   58.2580   30.0030   45.1150 N   0  0  0  0  0  0  0  0  0  0  0  0
   58.6750   31.1860   45.8190 C   0  0  0  0  0  0  0  0  0  0  0  0
   59.9490   31.2390   46.4040 C   0  0  0  0  0  0  0  0  0  0  0  0
   60.3710   32.3850   47.1020 C   0  0  0  0  0  0  0  0  0  0  0  0
   61.6760   32.4420   47.7090 N   0  0  0  0  0  0  0  0  0  0  0  0
   62.8280   33.1060   47.2220 C   0  0  0  0  0  0  0  0  0  0  0  0
   62.8330   33.8790   46.2280 O   0  0  0  0  0  0  0  0  0  0  0  0
   63.9380   32.8720   47.9990 O   0  0  0  0  0  0  0  0  0  0  0  0
   63.5910   32.0120   49.0770 C   0  0  0  0  0  0  0  0  0  0  0  0
   62.0720   31.7630   48.9400 C   0  0  0  0  0  0  0  0  0  0  0  0
   59.4840   33.4690   47.2260 C   0  0  0  0  0  0  0  0  0  0  0  0
   58.2160   33.4190   46.6420 C   0  0  0  0  0  0  0  0  0  0  0  0
   57.8110   32.2840   45.9360 C   0  0  0  0  0  0  0  0  0  0  0  0
   56.5860   32.2580   45.3570 F   0  0  0  0  0  0  0  0  0  0  0  0
  1  2  2  0
  2  3  1  0
  3  4  2  0
  4  5  1  0
  5  6  2  0
  6  7  1  0
  6  8  1  0
  8  9  1  0
  9 10  2  0
  9 11  1  0
  3 12  1  0
 12 13  2  0
 13 14  1  0
 13 15  1  0
 15 16  1  0
 16 17  2  0
 17 18  1  0
 18 19  1  0
 19 20  1  0
 20 21  2  0
 20 22  1  0
 22 23  1  0
 23 24  1  0
 18 25  2  0
 25 26  1  0
 26 27  2  0
 27 28  1  0
 15  2  1  0
 27 16  1  0
 11  5  1  0
 24 19  1  0
M  CHG  2   7  -1   8  -1
M  END
>  <UniqueID>  (2183) 
64

>  <SMILES>  (2183) 
C=c1/c(=C/c2[nH]c(=O)[n-]c2[O-])cc(C)n1-c1cc(N2CCOC2=O)ccc1F

>  <Energy>  (2183) 
137.44610033151167

>  <Genealogy>  (2183) 
C=c1c(=Cc2[nH]c(=O)[n-]c2[O-])cc(C)n1-c1cc(N2CCOC2=O)ccc1F (protonated)
C=c1/c(=C/c2[nH]c(=O)[n-]c2[O-])cc(C)n1-c1cc(N2CCOC2=O)ccc1F (cis-trans isomerization)
C=c1/c(=C/c2[nH]c(=O)[n-]c2[O-])cc(C)n1-c1cc(N2CCOC2=O)ccc1F (3D coordinates assigned)
C=c1/c(=C/c2[nH]c(=O)[n-]c2[O-])cc(C)n1-c1cc(N2CCOC2=O)ccc1F (nonaromatic ring conformer: 137.44610033151167 kcal/mol)

>  <smiles>  (2183) 
C=c1c(=Cc2[nH]c(=O)[nH]c2O)cc(C)n1-c1cc(N2CCOC2=O)ccc1F

>  <score_type>  (2183) 
oracle

>  <origin>  (2183) 
adg

>  <m_score__min__energy>  (2183) 
-14.109999999999999

>  <m_primary>  (2183) 
energy

$$$$
75:0
     RDKit          3D

 23 25  0  0  0  0  0  0  0  0999 V2000
   59.1850   29.1940   48.2990 C   0  0  0  0  0  0  0  0  0  0  0  0
   59.0270   29.7780   47.0980 C   0  0  0  0  0  0  0  0  0  0  0  0
   58.5940   29.1480   45.9180 C   0  0  0  0  0  0  0  0  0  0  0  0
   58.4310   27.8450   45.6150 C   0  0  0  0  0  0  0  0  0  0  0  0
   57.2370   27.0350   45.9160 C   0  0  0  0  0  0  0  0  0  0  0  0
   57.2640   25.7630   46.3550 N   0  0  0  0  0  0  0  0  0  0  0  0
   55.9620   25.4050   46.3470 C   0  0  0  0  0  0  0  0  0  0  0  0
   55.5700   24.2660   46.7150 O   0  0  0  0  0  0  0  0  0  0  0  0
   55.1130   26.3570   45.9030 N   0  0  0  0  0  0  0  0  0  0  0  0
   55.9400   27.3760   45.6210 C   0  0  0  0  0  0  0  0  0  0  0  0
   55.5170   28.5920   45.1000 O   0  0  0  0  0  0  0  0  0  0  0  0
   58.3610   30.1560   44.9980 C   0  0  0  0  0  0  0  0  0  0  0  0
   58.7300   31.3400   45.5970 C   0  0  0  0  0  0  0  0  0  0  0  0
   58.6620   32.6790   44.9280 C   0  0  0  0  0  0  0  0  0  0  0  0
   59.1210   31.1210   46.8770 N   0  0  0  0  0  0  0  0  0  0  0  0
   59.5800   32.1210   47.7730 N   0  0  0  0  0  0  0  0  0  0  0  0
   60.9790   32.4030   47.5400 C   0  0  0  0  0  0  0  0  0  0  0  0
   61.9670   31.5180   48.0130 C   0  0  0  0  0  0  0  0  0  0  0  0
   63.3220   31.7840   47.7980 C   0  0  0  0  0  0  0  0  0  0  0  0
   63.7090   32.9420   47.1200 C   0  0  0  0  0  0  0  0  0  0  0  0
   62.7420   33.8380   46.6610 C   0  0  0  0  0  0  0  0  0  0  0  0
   61.3840   33.5790   46.8720 C   0  0  0  0  0  0  0  0  0  0  0  0
   60.4700   34.4760   46.4290 F   0  0  0  0  0  0  0  0  0  0  0  0
  1  2  2  0
  2  3  1  0
  3  4  2  3
  4  5  1  0
  5  6  1  0
  6  7  1  0
  7  8  2  0
  7  9  1  0
  9 10  1  0
 10 11  1  0
  3 12  1  0
 12 13  2  0
 13 14  1  0
 13 15  1  0
 15 16  1  0
 16 17  1  0
 17 18  2  0
 18 19  1  0
 19 20  2  0
 20 21  1  0
 21 22  2  0
 22 23  1  0
 15  2  1  0
 22 17  1  0
 10  5  2  0
M  CHG  4   6  -1   9  -1  11  -1  16   1
M  END
>  <UniqueID>  (2184) 
75

>  <SMILES>  (2184) 
C=c1c(=Cc2[n-]c(=O)[n-]c2[O-])cc(C)n1[NH2+]c1ccccc1F

>  <Energy>  (2184) 
112.90719209439293

>  <Genealogy>  (2184) 
C=c1c(=Cc2[n-]c(=O)[n-]c2[O-])cc(C)n1[NH2+]c1ccccc1F (protonated)
C=c1c(=Cc2[n-]c(=O)[n-]c2[O-])cc(C)n1[NH2+]c1ccccc1F (3D coordinates assigned)
C=c1c(=Cc2[n-]c(=O)[n-]c2[O-])cc(C)n1[NH2+]c1ccccc1F (optimized conformer: 112.90719209439293 kcal/mol)

>  <smiles>  (2184) 
C=c1c(=Cc2[nH]c(=O)[nH]c2O)cc(C)n1Nc1ccccc1F

>  <score_type>  (2184) 
oracle

>  <origin>  (2184) 
adg

>  <m_score__min__energy>  (2184) 
-14.06

>  <m_primary>  (2184) 
energy

$$$$
91:0
     RDKit          3D

 32 35  0  0  0  0  0  0  0  0999 V2000
   54.9120   30.5230   52.0830 C   0  0  0  0  0  0  0  0  0  0  0  0
   54.4090   30.3390   53.3140 C   0  0  0  0  0  0  0  0  0  0  0  0
   53.1190   30.6440   53.7730 C   0  0  0  0  0  0  0  0  0  0  0  0
   52.1030   31.3140   53.1900 C   0  0  0  0  0  0  0  0  0  0  0  0
   51.6930   31.1900   51.7770 C   0  0  0  0  0  0  0  0  0  0  0  0
   51.1940   32.3030   51.0870 C   0  0  0  0  0  0  0  0  0  0  0  0
   51.0270   33.5220   51.7330 O   0  0  0  0  0  0  0  0  0  0  0  0
   50.8600   32.1930   49.7740 N   0  0  0  0  0  0  0  0  0  0  0  0
   51.0170   31.0210   49.1070 C   0  0  0  0  0  0  0  0  0  0  0  0
   50.6970   30.9420   47.8930 O   0  0  0  0  0  0  0  0  0  0  0  0
   51.5240   29.9360   49.7470 N   0  0  0  0  0  0  0  0  0  0  0  0
   51.8740   29.9940   51.0580 C   0  0  0  0  0  0  0  0  0  0  0  0
   52.3600   28.9740   51.6150 O   0  0  0  0  0  0  0  0  0  0  0  0
   53.0790   30.0970   55.0510 C   0  0  0  0  0  0  0  0  0  0  0  0
   51.9280   30.1310   56.0080 C   0  0  0  0  0  0  0  0  0  0  0  0
   54.2680   29.5480   55.3550 N   0  0  0  0  0  0  0  0  0  0  0  0
   55.0730   29.7060   54.3160 N   0  0  0  0  0  0  0  0  0  0  0  0
   56.4340   29.1660   54.2970 C   0  0  0  0  0  0  0  0  0  0  0  0
   57.4470   30.2850   54.0210 C   0  0  0  0  0  0  0  0  0  0  0  0
   58.5740   29.8320   53.0840 C   0  0  0  0  0  0  0  0  0  0  0  0
   58.4490   30.4620   51.7270 C   0  0  0  0  0  0  0  0  0  0  0  0
   57.8350   29.8460   50.8140 O   0  0  0  0  0  0  0  0  0  0  0  0
   59.0320   31.7500   51.4760 N   0  0  0  0  0  0  0  0  0  0  0  0
   59.2710   32.2830   50.1620 C   0  0  0  0  0  0  0  0  0  0  0  0
   58.2190   32.4140   49.2140 C   0  0  0  0  0  0  0  0  0  0  0  0
   58.4770   32.9080   47.9240 C   0  0  0  0  0  0  0  0  0  0  0  0
   59.7890   33.2470   47.6080 C   0  0  0  0  0  0  0  0  0  0  0  0
   60.8010   33.1100   48.5000 C   0  0  0  0  0  0  0  0  0  0  0  0
   60.5890   32.6240   49.7870 C   0  0  0  0  0  0  0  0  0  0  0  0
   61.9870   33.5140   47.9170 O   0  0  0  0  0  0  0  0  0  0  0  0
   61.7010   33.9290   46.5740 C   0  0  0  0  0  0  0  0  0  0  0  0
   60.2870   33.7430   46.4180 O   0  0  0  0  0  0  0  0  0  0  0  0
  1  2  2  0
  2  3  1  0
  3  4  2  0
  4  5  1  0
  5  6  2  0
  6  7  1  0
  6  8  1  0
  8  9  1  0
  9 10  2  0
  9 11  1  0
 11 12  1  0
 12 13  2  0
  3 14  1  0
 14 15  1  0
 14 16  2  0
 16 17  1  0
 17 18  1  0
 18 19  1  0
 19 20  1  0
 20 21  1  0
 21 22  2  0
 21 23  1  0
 23 24  1  0
 24 25  2  0
 25 26  1  0
 26 27  2  0
 27 28  1  0
 28 29  2  0
 28 30  1  0
 30 31  1  0
 31 32  1  0
 17  2  1  0
 29 24  1  0
 12  5  1  0
 32 27  1  0
M  CHG  3   7  -1   8  -1  11  -1
M  END
>  <UniqueID>  (2185) 
89

>  <SMILES>  (2185) 
C=c1/c(=C\c2c([O-])[n-]c(=O)[n-]c2=O)c(C)nn1CCCC(=O)Nc1ccc2c(c1)OCO2

>  <Energy>  (2185) 
125.59041668309233

>  <Genealogy>  (2185) 
C=c1c(=Cc2c([O-])[n-]c(=O)[n-]c2=O)c(C)nn1CCCC(=O)Nc1ccc2c(c1)OCO2 (protonated)
C=c1/c(=C\c2c([O-])[n-]c(=O)[n-]c2=O)c(C)nn1CCCC(=O)Nc1ccc2c(c1)OCO2 (cis-trans isomerization)
C=c1/c(=C\c2c([O-])[n-]c(=O)[n-]c2=O)c(C)nn1CCCC(=O)Nc1ccc2c(c1)OCO2 (3D coordinates assigned)
C=c1/c(=C\c2c([O-])[n-]c(=O)[n-]c2=O)c(C)nn1CCCC(=O)Nc1ccc2c(c1)OCO2 (nonaromatic ring conformer: 125.59041668309233 kcal/mol)

>  <smiles>  (2185) 
C=c1c(=Cc2c(O)[nH]c(=O)[nH]c2=O)c(C)nn1CCCC(=O)Nc1ccc2c(c1)OCO2

>  <score_type>  (2185) 
oracle

>  <origin>  (2185) 
adg

>  <m_score__min__energy>  (2185) 
-16.710000000000001

>  <m_primary>  (2185) 
energy

$$$$
0:0
     RDKit          3D

 32 35  0  0  0  0  0  0  0  0999 V2000
   59.4680   29.7360   47.3960 C   0  0  0  0  0  0  0  0  0  0  0  0
   58.7790   30.3440   46.4180 C   0  0  0  0  0  0  0  0  0  0  0  0
   58.2640   29.7560   45.2600 C   0  0  0  0  0  0  0  0  0  0  0  0
   58.3660   28.4610   44.8960 C   0  0  0  0  0  0  0  0  0  0  0  0
   57.5950   27.3660   45.5110 C   0  0  0  0  0  0  0  0  0  0  0  0
   56.2000   27.4490   45.6250 C   0  0  0  0  0  0  0  0  0  0  0  0
   55.5210   28.5820   45.1950 O   0  0  0  0  0  0  0  0  0  0  0  0
   55.5040   26.4160   46.1640 N   0  0  0  0  0  0  0  0  0  0  0  0
   56.1340   25.2900   46.5870 C   0  0  0  0  0  0  0  0  0  0  0  0
   55.4700   24.3460   47.0870 O   0  0  0  0  0  0  0  0  0  0  0  0
   57.4830   25.1800   46.4680 N   0  0  0  0  0  0  0  0  0  0  0  0
   58.2240   26.1860   45.9360 C   0  0  0  0  0  0  0  0  0  0  0  0
   59.4720   26.0500   45.8340 O   0  0  0  0  0  0  0  0  0  0  0  0
   57.6300   30.8160   44.5980 C   0  0  0  0  0  0  0  0  0  0  0  0
   56.8850   30.7900   43.3000 C   0  0  0  0  0  0  0  0  0  0  0  0
   57.7670   31.9450   45.3200 N   0  0  0  0  0  0  0  0  0  0  0  0
   58.4630   31.6620   46.4080 N   0  0  0  0  0  0  0  0  0  0  0  0
   58.7710   32.6630   47.4320 C   0  0  0  0  0  0  0  0  0  0  0  0
   60.1110   33.2950   47.1620 C   0  0  0  0  0  0  0  0  0  0  0  0
   60.2340   34.0530   46.1620 O   0  0  0  0  0  0  0  0  0  0  0  0
   61.2520   33.0410   48.0070 N   0  0  0  0  0  0  0  0  0  0  0  0
   61.3250   31.8280   48.8340 C   0  0  0  0  0  0  0  0  0  0  0  0
   62.7770   31.3750   49.0120 C   0  0  0  0  0  0  0  0  0  0  0  0
   63.6400   32.4770   49.4640 N   0  0  0  0  0  0  0  0  0  0  0  0
   64.8910   32.1840   50.1270 C   0  0  0  0  0  0  0  0  0  0  0  0
   65.9830   33.0660   50.0170 C   0  0  0  0  0  0  0  0  0  0  0  0
   67.1940   32.7810   50.6560 C   0  0  0  0  0  0  0  0  0  0  0  0
   67.3300   31.6130   51.4100 C   0  0  0  0  0  0  0  0  0  0  0  0
   66.2560   30.7280   51.5250 C   0  0  0  0  0  0  0  0  0  0  0  0
   65.0430   31.0090   50.8880 C   0  0  0  0  0  0  0  0  0  0  0  0
   63.1940   33.8690   49.3090 C   0  0  0  0  0  0  0  0  0  0  0  0
   62.3330   34.0330   48.0530 C   0  0  0  0  0  0  0  0  0  0  0  0
  1  2  2  0
  2  3  1  0
  3  4  2  0
  4  5  1  0
  5  6  2  0
  6  7  1  0
  6  8  1  0
  8  9  1  0
  9 10  2  0
  9 11  1  0
 11 12  1  0
 12 13  2  0
  3 14  1  0
 14 15  1  0
 14 16  2  0
 16 17  1  0
 17 18  1  0
 18 19  1  0
 19 20  2  0
 19 21  1  0
 21 22  1  0
 22 23  1  0
 23 24  1  0
 24 25  1  0
 25 26  2  0
 26 27  1  0
 27 28  2  0
 28 29  1  0
 29 30  2  0
 24 31  1  0
 31 32  1  0
 17  2  1  0
 32 21  1  0
 12  5  1  0
 30 25  1  0
M  CHG  3   7  -1   8  -1  11  -1
M  END
>  <UniqueID>  (2186) 
1

>  <SMILES>  (2186) 
C=c1/c(=C/c2c([O-])[n-]c(=O)[n-]c2=O)c(C)nn1CC(=O)N1CCN(c2ccccc2)CC1

>  <Energy>  (2186) 
104.8516742927308

>  <Genealogy>  (2186) 
C=c1c(=Cc2c([O-])[n-]c(=O)[n-]c2=O)c(C)nn1CC(=O)N1CCN(c2ccccc2)CC1 (protonated)
C=c1/c(=C/c2c([O-])[n-]c(=O)[n-]c2=O)c(C)nn1CC(=O)N1CCN(c2ccccc2)CC1 (cis-trans isomerization)
C=c1/c(=C/c2c([O-])[n-]c(=O)[n-]c2=O)c(C)nn1CC(=O)N1CCN(c2ccccc2)CC1 (3D coordinates assigned)
C=c1/c(=C/c2c([O-])[n-]c(=O)[n-]c2=O)c(C)nn1CC(=O)N1CCN(c2ccccc2)CC1 (nonaromatic ring conformer: 104.8516742927308 kcal/mol)

>  <smiles>  (2186) 
C=c1c(=Cc2c(O)[nH]c(=O)[nH]c2=O)c(C)nn1CC(=O)N1CCN(c2ccccc2)CC1

>  <score_type>  (2186) 
oracle

>  <origin>  (2186) 
adg

>  <m_score__min__energy>  (2186) 
-16.73

>  <m_primary>  (2186) 
energy

$$$$
2:0
     RDKit          3D

 24 26  0  0  0  0  0  0  0  0999 V2000
   59.4240   29.8860   47.9570 C   0  0  0  0  0  0  0  0  0  0  0  0
   58.7650   30.1490   46.8180 C   0  0  0  0  0  0  0  0  0  0  0  0
   58.3950   29.2240   45.8270 C   0  0  0  0  0  0  0  0  0  0  0  0
   58.4200   27.8760   45.8170 C   0  0  0  0  0  0  0  0  0  0  0  0
   57.2440   26.9940   45.8900 C   0  0  0  0  0  0  0  0  0  0  0  0
   57.2490   25.7490   46.4020 N   0  0  0  0  0  0  0  0  0  0  0  0
   55.9440   25.4010   46.3900 C   0  0  0  0  0  0  0  0  0  0  0  0
   55.5380   24.2780   46.7850 O   0  0  0  0  0  0  0  0  0  0  0  0
   55.1070   26.3560   45.9310 N   0  0  0  0  0  0  0  0  0  0  0  0
   55.9450   27.3620   45.6340 C   0  0  0  0  0  0  0  0  0  0  0  0
   55.5320   28.5950   45.1440 O   0  0  0  0  0  0  0  0  0  0  0  0
   57.9180   29.9660   44.7630 C   0  0  0  0  0  0  0  0  0  0  0  0
   57.9490   31.2890   45.1490 C   0  0  0  0  0  0  0  0  0  0  0  0
   57.4320   32.4220   44.3130 C   0  0  0  0  0  0  0  0  0  0  0  0
   58.4640   31.4080   46.3970 N   0  0  0  0  0  0  0  0  0  0  0  0
   58.7280   32.6740   47.1030 C   0  0  0  0  0  0  0  0  0  0  0  0
   59.8380   33.4880   46.4200 C   0  0  0  0  0  0  0  0  0  0  0  0
   61.0770   33.5860   47.2750 C   0  0  0  0  0  0  0  0  0  0  0  0
   62.3240   33.2230   46.7430 C   0  0  0  0  0  0  0  0  0  0  0  0
   63.4720   33.3490   47.5260 C   0  0  0  0  0  0  0  0  0  0  0  0
   63.3820   33.8230   48.7960 N   0  0  0  0  0  0  0  0  0  0  0  0
   62.1900   34.1870   49.3390 C   0  0  0  0  0  0  0  0  0  0  0  0
   61.0150   34.0810   48.5900 C   0  0  0  0  0  0  0  0  0  0  0  0
   59.8040   34.4730   49.1510 O   0  0  0  0  0  0  0  0  0  0  0  0
  1  2  2  0
  2  3  1  0
  3  4  2  0
  4  5  1  0
  5  6  1  0
  6  7  1  0
  7  8  2  0
  7  9  1  0
  9 10  1  0
 10 11  1  0
  3 12  1  0
 12 13  2  0
 13 14  1  0
 13 15  1  0
 15 16  1  0
 16 17  1  0
 17 18  1  0
 18 19  2  0
 19 20  1  0
 20 21  2  0
 21 22  1  0
 22 23  2  0
 23 24  1  0
 15  2  1  0
 23 18  1  0
 10  5  2  0
M  CHG  4   6  -1   9  -1  11  -1  24  -1
M  END
>  <UniqueID>  (2187) 
3

>  <SMILES>  (2187) 
C=c1/c(=C\c2[n-]c(=O)[n-]c2[O-])cc(C)n1CCc1ccncc1[O-]

>  <Energy>  (2187) 
106.32243315810157

>  <Genealogy>  (2187) 
C=c1c(=Cc2[n-]c(=O)[n-]c2[O-])cc(C)n1CCc1ccncc1[O-] (protonated)
C=c1/c(=C\c2[n-]c(=O)[n-]c2[O-])cc(C)n1CCc1ccncc1[O-] (cis-trans isomerization)
C=c1/c(=C\c2[n-]c(=O)[n-]c2[O-])cc(C)n1CCc1ccncc1[O-] (3D coordinates assigned)
C=c1/c(=C\c2[n-]c(=O)[n-]c2[O-])cc(C)n1CCc1ccncc1[O-] (optimized conformer: 106.32243315810157 kcal/mol)

>  <smiles>  (2187) 
C=c1c(=Cc2[nH]c(=O)[nH]c2O)cc(C)n1CCc1ccncc1O

>  <score_type>  (2187) 
oracle

>  <origin>  (2187) 
adg

>  <m_score__min__energy>  (2187) 
-17.09

>  <m_primary>  (2187) 
energy

$$$$
18:0
     RDKit          3D

 35 39  0  0  0  0  0  0  0  0999 V2000
   55.0290   31.3030   51.9730 C   0  0  0  0  0  0  0  0  0  0  0  0
   55.0210   30.1610   52.6780 C   0  0  0  0  0  0  0  0  0  0  0  0
   53.8950   29.4120   53.0550 C   0  0  0  0  0  0  0  0  0  0  0  0
   52.5850   29.7210   53.0400 C   0  0  0  0  0  0  0  0  0  0  0  0
   51.9960   30.9230   52.4270 C   0  0  0  0  0  0  0  0  0  0  0  0
   51.4880   31.9630   53.1140 N   0  0  0  0  0  0  0  0  0  0  0  0
   50.9340   32.7330   52.1530 C   0  0  0  0  0  0  0  0  0  0  0  0
   50.3570   33.8230   52.4050 O   0  0  0  0  0  0  0  0  0  0  0  0
   51.0380   32.2370   50.9010 N   0  0  0  0  0  0  0  0  0  0  0  0
   51.7000   31.0830   51.0950 C   0  0  0  0  0  0  0  0  0  0  0  0
   52.0240   30.1910   50.0790 O   0  0  0  0  0  0  0  0  0  0  0  0
   54.3740   28.1940   53.5100 C   0  0  0  0  0  0  0  0  0  0  0  0
   55.7510   28.2690   53.4750 C   0  0  0  0  0  0  0  0  0  0  0  0
   56.6690   27.1620   53.9020 C   0  0  0  0  0  0  0  0  0  0  0  0
   56.1470   29.4590   52.9720 N   0  0  0  0  0  0  0  0  0  0  0  0
   57.5110   29.8720   52.7600 C   0  0  0  0  0  0  0  0  0  0  0  0
   58.0090   30.0220   51.4570 C   0  0  0  0  0  0  0  0  0  0  0  0
   59.3440   30.4010   51.2430 C   0  0  0  0  0  0  0  0  0  0  0  0
   59.8740   30.5630   49.8730 C   0  0  0  0  0  0  0  0  0  0  0  0
   59.9530   29.5440   49.1310 O   0  0  0  0  0  0  0  0  0  0  0  0
   60.2710   31.8540   49.3630 N   0  0  0  0  0  0  0  0  0  0  0  0
   59.5470   33.0610   49.7840 C   0  0  0  0  0  0  0  0  0  0  0  0
   59.9570   34.3020   48.9660 C   0  0  0  0  0  0  0  0  0  0  0  0
   60.0660   34.0550   47.5010 N   0  0  0  0  0  0  0  0  0  0  0  0
   58.9730   34.5890   46.6440 C   0  0  0  0  0  0  0  0  0  0  0  0
   57.6990   33.7340   46.7310 C   0  0  0  0  0  0  0  0  0  0  0  0
   57.3950   33.2330   45.3190 C   0  0  0  0  0  0  0  0  0  0  0  0
   58.6130   33.5450   44.4600 C   0  0  0  0  0  0  0  0  0  0  0  0
   59.3390   34.6820   45.1570 C   0  0  0  0  0  0  0  0  0  0  0  0
   60.4950   32.6960   47.0960 C   0  0  0  0  0  0  0  0  0  0  0  0
   61.1970   31.9530   48.2310 C   0  0  0  0  0  0  0  0  0  0  0  0
   60.1680   30.6680   52.3480 C   0  0  0  0  0  0  0  0  0  0  0  0
   59.6750   30.5210   53.6470 C   0  0  0  0  0  0  0  0  0  0  0  0
   58.3540   30.1170   53.8560 C   0  0  0  0  0  0  0  0  0  0  0  0
   57.8970   29.9560   55.1230 F   0  0  0  0  0  0  0  0  0  0  0  0
  1  2  2  0
  2  3  1  0
  3  4  2  3
  4  5  1  0
  5  6  1  0
  6  7  1  0
  7  8  2  0
  7  9  1  0
  9 10  1  0
 10 11  1  0
  3 12  1  0
 12 13  2  0
 13 14  1  0
 13 15  1  0
 15 16  1  0
 16 17  2  0
 17 18  1  0
 18 19  1  0
 19 20  2  0
 19 21  1  0
 21 22  1  0
 22 23  1  0
 23 24  1  0
 24 25  1  0
 25 26  1  0
 26 27  1  0
 27 28  1  0
 28 29  1  0
 24 30  1  0
 30 31  1  0
 18 32  2  0
 32 33  1  0
 33 34  2  0
 34 35  1  0
 15  2  1  0
 34 16  1  0
 10  5  2  0
 31 21  1  0
 29 25  1  0
M  CHG  2   6  -1   9  -1
M  END
>  <UniqueID>  (2188) 
18

>  <SMILES>  (2188) 
C=c1c(=Cc2[n-]c(=O)[n-]c2O)cc(C)n1-c1cc(C(=O)N2CCN(C3CCCC3)CC2)ccc1F

>  <Energy>  (2188) 
159.70442174149903

>  <Genealogy>  (2188) 
C=c1c(=Cc2[n-]c(=O)[n-]c2O)cc(C)n1-c1cc(C(=O)N2CCN(C3CCCC3)CC2)ccc1F (protonated)
C=c1c(=Cc2[n-]c(=O)[n-]c2O)cc(C)n1-c1cc(C(=O)N2CCN(C3CCCC3)CC2)ccc1F (3D coordinates assigned)
C=c1c(=Cc2[n-]c(=O)[n-]c2O)cc(C)n1-c1cc(C(=O)N2CCN(C3CCCC3)CC2)ccc1F (nonaromatic ring conformer: 159.70442174149903 kcal/mol)

>  <smiles>  (2188) 
C=c1c(=Cc2[nH]c(=O)[nH]c2O)cc(C)n1-c1cc(C(=O)N2CCN(C3CCCC3)CC2)ccc1F

>  <score_type>  (2188) 
oracle

>  <origin>  (2188) 
adg

>  <m_score__min__energy>  (2188) 
-14.880000000000001

>  <m_primary>  (2188) 
energy

$$$$
28:0
     RDKit          3D

 31 33  0  0  0  0  0  0  0  0999 V2000
   53.4160   29.3900   54.3330 C   0  0  0  0  0  0  0  0  0  0  0  0
   54.3890   29.8980   53.5580 C   0  0  0  0  0  0  0  0  0  0  0  0
   54.2360   30.4520   52.2760 C   0  0  0  0  0  0  0  0  0  0  0  0
   53.1340   30.7940   51.5820 C   0  0  0  0  0  0  0  0  0  0  0  0
   51.9510   31.4790   52.1290 C   0  0  0  0  0  0  0  0  0  0  0  0
   51.6090   31.4930   53.4300 N   0  0  0  0  0  0  0  0  0  0  0  0
   50.5740   32.3580   53.4700 C   0  0  0  0  0  0  0  0  0  0  0  0
   49.9590   32.6310   54.5330 O   0  0  0  0  0  0  0  0  0  0  0  0
   50.2570   32.9190   52.2830 N   0  0  0  0  0  0  0  0  0  0  0  0
   51.1490   32.3620   51.4490 C   0  0  0  0  0  0  0  0  0  0  0  0
   51.2330   32.6590   50.0950 O   0  0  0  0  0  0  0  0  0  0  0  0
   55.5130   30.6610   51.7910 C   0  0  0  0  0  0  0  0  0  0  0  0
   56.3880   30.3020   52.7930 C   0  0  0  0  0  0  0  0  0  0  0  0
   57.8530   30.4600   52.6920 C   0  0  0  0  0  0  0  0  0  0  0  0
   58.5940   29.8720   53.5260 O   0  0  0  0  0  0  0  0  0  0  0  0
   58.4450   31.2100   51.6130 N   0  0  0  0  0  0  0  0  0  0  0  0
   57.7770   32.3890   51.0450 C   0  0  0  0  0  0  0  0  0  0  0  0
   57.8440   32.3580   49.5080 C   0  0  0  0  0  0  0  0  0  0  0  0
   59.0620   31.6910   48.9890 N   0  0  0  0  0  0  0  0  0  0  0  0
   59.5400   32.3370   47.4350 S   0  0  0  0  0  0  0  0  0  0  0  0
   61.0380   32.4430   47.3670 O   0  0  0  0  0  0  0  0  0  0  0  0
   58.9610   33.7160   47.3020 O   0  0  0  0  0  0  0  0  0  0  0  0
   58.9550   31.3630   46.0460 C   0  0  0  0  0  0  0  0  0  0  0  0
   58.5640   29.9470   46.4520 C   0  0  0  0  0  0  0  0  0  0  0  0
   60.1900   31.7000   49.9330 C   0  0  0  0  0  0  0  0  0  0  0  0
   59.8100   30.8910   51.1780 C   0  0  0  0  0  0  0  0  0  0  0  0
   55.7130   29.8290   53.8690 N   0  0  0  0  0  0  0  0  0  0  0  0
   56.3010   29.4480   55.1650 C   0  0  0  0  0  0  0  0  0  0  0  0
   56.5150   27.9330   55.2380 C   0  0  0  0  0  0  0  0  0  0  0  0
   56.9120   27.4190   53.9790 O   0  0  0  0  0  0  0  0  0  0  0  0
   58.1560   26.7640   54.0850 C   0  0  0  0  0  0  0  0  0  0  0  0
  1  2  2  0
  2  3  1  0
  3  4  2  0
  4  5  1  0
  5  6  1  0
  6  7  1  0
  7  8  2  0
  7  9  1  0
  9 10  1  0
 10 11  1  0
  3 12  1  0
 12 13  2  0
 13 14  1  0
 14 15  2  0
 14 16  1  0
 16 17  1  0
 17 18  1  0
 18 19  1  0
 19 20  1  0
 20 21  2  0
 20 22  2  0
 20 23  1  0
 23 24  1  0
 19 25  1  0
 25 26  1  0
 13 27  1  0
 27 28  1  0
 28 29  1  0
 29 30  1  0
 30 31  1  0
 27  2  1  0
 10  5  2  0
 26 16  1  0
M  CHG  3   6  -1   9  -1  11  -1
M  END
>  <UniqueID>  (2189) 
28

>  <SMILES>  (2189) 
C=c1/c(=C\c2[n-]c(=O)[n-]c2[O-])cc(C(=O)N2CCN(S(=O)(=O)CC)CC2)n1CCOC

>  <Energy>  (2189) 
127.57653125750967

>  <Genealogy>  (2189) 
C=c1c(=Cc2[n-]c(=O)[n-]c2[O-])cc(C(=O)N2CCN(S(=O)(=O)CC)CC2)n1CCOC (protonated)
C=c1/c(=C\c2[n-]c(=O)[n-]c2[O-])cc(C(=O)N2CCN(S(=O)(=O)CC)CC2)n1CCOC (cis-trans isomerization)
C=c1/c(=C\c2[n-]c(=O)[n-]c2[O-])cc(C(=O)N2CCN(S(=O)(=O)CC)CC2)n1CCOC (3D coordinates assigned)
C=c1/c(=C\c2[n-]c(=O)[n-]c2[O-])cc(C(=O)N2CCN(S(=O)(=O)CC)CC2)n1CCOC (nonaromatic ring conformer: 127.57653125750967 kcal/mol)

>  <smiles>  (2189) 
C=c1c(=Cc2[nH]c(=O)[nH]c2O)cc(C(=O)N2CCN(S(=O)(=O)CC)CC2)n1CCOC

>  <score_type>  (2189) 
oracle

>  <origin>  (2189) 
adg

>  <m_score__min__energy>  (2189) 
-15.92

>  <m_primary>  (2189) 
energy

$$$$
29:0
     RDKit          3D

 30 32  0  0  0  0  0  0  0  0999 V2000
   58.9410   31.3840   51.0030 O   0  0  0  0  0  0  0  0  0  0  0  0
   59.1050   31.5660   49.7670 C   0  0  0  0  0  0  0  0  0  0  0  0
   59.8410   30.5440   48.9550 C   0  0  0  0  0  0  0  0  0  0  0  0
   61.3360   30.5210   49.2980 C   0  0  0  0  0  0  0  0  0  0  0  0
   62.0700   31.7010   48.7030 C   0  0  0  0  0  0  0  0  0  0  0  0
   62.7940   31.5330   47.5100 C   0  0  0  0  0  0  0  0  0  0  0  0
   63.4290   32.6210   46.9090 C   0  0  0  0  0  0  0  0  0  0  0  0
   63.3450   33.8890   47.4880 C   0  0  0  0  0  0  0  0  0  0  0  0
   62.6280   34.0700   48.6720 C   0  0  0  0  0  0  0  0  0  0  0  0
   61.9890   32.9830   49.2860 C   0  0  0  0  0  0  0  0  0  0  0  0
   61.2740   33.1770   50.4670 O   0  0  0  0  0  0  0  0  0  0  0  0
   58.6010   32.7430   49.1240 N   0  0  0  0  0  0  0  0  0  0  0  0
   58.7050   33.0630   47.7300 C   0  0  0  0  0  0  0  0  0  0  0  0
   59.1520   34.3390   47.3650 C   0  0  0  0  0  0  0  0  0  0  0  0
   59.2360   34.7000   46.0180 C   0  0  0  0  0  0  0  0  0  0  0  0
   58.8560   33.7950   45.0250 C   0  0  0  0  0  0  0  0  0  0  0  0
   58.3800   32.5260   45.3750 C   0  0  0  0  0  0  0  0  0  0  0  0
   57.8920   31.4000   44.1120 S   0  0  0  0  0  0  0  0  0  0  0  0
   57.3940   32.1370   42.8990 O   0  0  0  0  0  0  0  0  0  0  0  0
   59.0790   30.5720   43.7120 O   0  0  0  0  0  0  0  0  0  0  0  0
   56.6420   30.3540   44.7050 N   0  0  0  0  0  0  0  0  0  0  0  0
   56.8530   29.1970   45.2520 C   0  0  0  0  0  0  0  0  0  0  0  0
   55.9270   28.2150   45.2380 N   0  0  0  0  0  0  0  0  0  0  0  0
   56.3720   27.0950   45.8700 C   0  0  0  0  0  0  0  0  0  0  0  0
   55.5330   25.8940   45.9820 C   0  0  0  0  0  0  0  0  0  0  0  0
   56.0310   24.7960   46.3470 O   0  0  0  0  0  0  0  0  0  0  0  0
   54.1780   25.9640   45.6830 O   0  0  0  0  0  0  0  0  0  0  0  0
   57.6640   27.1820   46.3910 C   0  0  0  0  0  0  0  0  0  0  0  0
   58.2620   28.7160   46.0460 S   0  0  0  0  0  0  0  0  0  0  0  0
   58.3040   32.1620   46.7270 C   0  0  0  0  0  0  0  0  0  0  0  0
  1  2  2  0
  2  3  1  0
  3  4  1  0
  4  5  1  0
  5  6  2  0
  6  7  1  0
  7  8  2  0
  8  9  1  0
  9 10  2  0
 10 11  1  0
  2 12  1  0
 12 13  1  0
 13 14  2  0
 14 15  1  0
 15 16  2  0
 16 17  1  0
 17 18  1  0
 18 19  2  0
 18 20  2  0
 18 21  1  0
 21 22  2  3
 22 23  1  0
 23 24  1  0
 24 25  1  0
 25 26  2  0
 25 27  1  0
 24 28  2  0
 28 29  1  0
 17 30  2  0
 10  5  1  0
 30 13  1  0
 29 22  1  0
M  CHG  3  12  -1  23  -1  27  -1
M  END
>  <UniqueID>  (2190) 
29

>  <SMILES>  (2190) 
O=C(CCc1ccccc1O)[N-]c1cccc(S(=O)(=O)N=c2[n-]c(C(=O)[O-])cs2)c1

>  <Energy>  (2190) 
77.01467891892727

>  <Genealogy>  (2190) 
O=C(CCc1ccccc1O)[N-]c1cccc(S(=O)(=O)N=c2[n-]c(C(=O)[O-])cs2)c1 (protonated)
O=C(CCc1ccccc1O)[N-]c1cccc(S(=O)(=O)N=c2[n-]c(C(=O)[O-])cs2)c1 (3D coordinates assigned)
O=C(CCc1ccccc1O)[N-]c1cccc(S(=O)(=O)N=c2[n-]c(C(=O)[O-])cs2)c1 (optimized conformer: 77.01467891892727 kcal/mol)

>  <smiles>  (2190) 
O=C(CCc1ccccc1O)Nc1cccc(S(=O)(=O)N=c2[nH]c(C(=O)O)cs2)c1

>  <score_type>  (2190) 
oracle

>  <origin>  (2190) 
adg

>  <m_score__min__energy>  (2190) 
-15.01

>  <m_primary>  (2190) 
energy

$$$$
38:0
     RDKit          3D

 34 37  0  0  0  0  0  0  0  0999 V2000
   57.7280   27.7370   43.7970 C   0  0  0  0  0  0  0  0  0  0  0  0
   58.1070   27.8930   45.0760 C   0  0  0  0  0  0  0  0  0  0  0  0
   58.0900   26.9000   46.0690 C   0  0  0  0  0  0  0  0  0  0  0  0
   57.9580   25.5610   45.9830 C   0  0  0  0  0  0  0  0  0  0  0  0
   56.6850   24.8250   45.9270 C   0  0  0  0  0  0  0  0  0  0  0  0
   56.5690   23.4850   45.9850 N   0  0  0  0  0  0  0  0  0  0  0  0
   55.2340   23.2900   46.0460 C   0  0  0  0  0  0  0  0  0  0  0  0
   54.7180   22.1450   46.0990 O   0  0  0  0  0  0  0  0  0  0  0  0
   54.4960   24.4210   46.0580 N   0  0  0  0  0  0  0  0  0  0  0  0
   55.4310   25.3820   45.9960 C   0  0  0  0  0  0  0  0  0  0  0  0
   55.1450   26.7410   46.0070 O   0  0  0  0  0  0  0  0  0  0  0  0
   58.2730   27.5530   47.2740 C   0  0  0  0  0  0  0  0  0  0  0  0
   58.4600   28.8860   46.9830 C   0  0  0  0  0  0  0  0  0  0  0  0
   58.7540   29.9330   48.0150 C   0  0  0  0  0  0  0  0  0  0  0  0
   58.4000   29.0980   45.6470 N   0  0  0  0  0  0  0  0  0  0  0  0
   58.5820   30.4070   44.9900 C   0  0  0  0  0  0  0  0  0  0  0  0
   57.2690   31.1360   44.8550 C   0  0  0  0  0  0  0  0  0  0  0  0
   56.2260   30.4750   44.6090 O   0  0  0  0  0  0  0  0  0  0  0  0
   57.1610   32.5520   45.0530 N   0  0  0  0  0  0  0  0  0  0  0  0
   58.1550   33.3880   45.6550 C   0  0  0  0  0  0  0  0  0  0  0  0
   58.5680   34.5470   44.9880 C   0  0  0  0  0  0  0  0  0  0  0  0
   59.5590   35.3620   45.5430 C   0  0  0  0  0  0  0  0  0  0  0  0
   60.1580   35.0100   46.7550 C   0  0  0  0  0  0  0  0  0  0  0  0
   59.7640   33.8420   47.4220 C   0  0  0  0  0  0  0  0  0  0  0  0
   60.5450   33.3620   48.9260 S   0  0  0  0  0  0  0  0  0  0  0  0
   61.1040   34.5710   49.6220 O   0  0  0  0  0  0  0  0  0  0  0  0
   59.5080   32.7420   49.8210 O   0  0  0  0  0  0  0  0  0  0  0  0
   61.8110   32.1920   48.6110 N   0  0  0  0  0  0  0  0  0  0  0  0
   62.2400   32.2130   47.2010 C   0  0  0  0  0  0  0  0  0  0  0  0
   63.0990   33.4550   46.8680 C   0  0  0  0  0  0  0  0  0  0  0  0
   63.6450   34.0920   48.0110 O   0  0  0  0  0  0  0  0  0  0  0  0
   64.1230   33.1300   48.9240 C   0  0  0  0  0  0  0  0  0  0  0  0
   62.9480   32.3500   49.5450 C   0  0  0  0  0  0  0  0  0  0  0  0
   58.7720   33.0270   46.8630 C   0  0  0  0  0  0  0  0  0  0  0  0
  1  2  2  0
  2  3  1  0
  3  4  2  3
  4  5  1  0
  5  6  1  0
  6  7  1  0
  7  8  2  0
  7  9  1  0
  9 10  1  0
 10 11  1  0
  3 12  1  0
 12 13  2  0
 13 14  1  0
 13 15  1  0
 15 16  1  0
 16 17  1  0
 17 18  2  0
 17 19  1  0
 19 20  1  0
 20 21  2  0
 21 22  1  0
 22 23  2  0
 23 24  1  0
 24 25  1  0
 25 26  2  0
 25 27  2  0
 25 28  1  0
 28 29  1  0
 29 30  1  0
 30 31  1  0
 31 32  1  0
 32 33  1  0
 24 34  2  0
 15  2  1  0
 34 20  1  0
 10  5  2  0
 33 28  1  0
M  CHG  4   6  -1   9  -1  11  -1  19  -1
M  END
>  <UniqueID>  (2191) 
37

>  <SMILES>  (2191) 
C=c1c(=Cc2[n-]c(=O)[n-]c2[O-])cc(C)n1CC(=O)[N-]c1cccc(S(=O)(=O)N2CCOCC2)c1

>  <Energy>  (2191) 
138.22259344848382

>  <Genealogy>  (2191) 
C=c1c(=Cc2[n-]c(=O)[n-]c2[O-])cc(C)n1CC(=O)[N-]c1cccc(S(=O)(=O)N2CCOCC2)c1 (protonated)
C=c1c(=Cc2[n-]c(=O)[n-]c2[O-])cc(C)n1CC(=O)[N-]c1cccc(S(=O)(=O)N2CCOCC2)c1 (3D coordinates assigned)
C=c1c(=Cc2[n-]c(=O)[n-]c2[O-])cc(C)n1CC(=O)[N-]c1cccc(S(=O)(=O)N2CCOCC2)c1 (nonaromatic ring conformer: 138.22259344848382 kcal/mol)

>  <smiles>  (2191) 
C=c1c(=Cc2[nH]c(=O)[nH]c2O)cc(C)n1CC(=O)Nc1cccc(S(=O)(=O)N2CCOCC2)c1

>  <score_type>  (2191) 
oracle

>  <origin>  (2191) 
adg

>  <m_score__min__energy>  (2191) 
-19.329999999999998

>  <m_primary>  (2191) 
energy

$$$$
42:0
     RDKit          3D

 34 37  0  0  0  0  0  0  0  0999 V2000
   59.1790   27.9660   46.7990 C   0  0  0  0  0  0  0  0  0  0  0  0
   58.4880   28.4600   45.7600 C   0  0  0  0  0  0  0  0  0  0  0  0
   57.8720   27.7340   44.7260 C   0  0  0  0  0  0  0  0  0  0  0  0
   57.6480   26.4130   44.5790 C   0  0  0  0  0  0  0  0  0  0  0  0
   57.0760   25.5190   45.6000 C   0  0  0  0  0  0  0  0  0  0  0  0
   57.7270   24.4860   46.1670 N   0  0  0  0  0  0  0  0  0  0  0  0
   56.8720   24.0680   47.1250 C   0  0  0  0  0  0  0  0  0  0  0  0
   57.1210   23.0890   47.8750 O   0  0  0  0  0  0  0  0  0  0  0  0
   55.7340   24.7870   47.2230 N   0  0  0  0  0  0  0  0  0  0  0  0
   55.8880   25.7100   46.2600 C   0  0  0  0  0  0  0  0  0  0  0  0
   54.9640   26.7130   45.9960 O   0  0  0  0  0  0  0  0  0  0  0  0
   57.4580   28.6690   43.7910 C   0  0  0  0  0  0  0  0  0  0  0  0
   57.7730   29.9120   44.2990 C   0  0  0  0  0  0  0  0  0  0  0  0
   57.4640   31.2130   43.6230 C   0  0  0  0  0  0  0  0  0  0  0  0
   58.3850   29.7890   45.4970 N   0  0  0  0  0  0  0  0  0  0  0  0
   58.9010   30.8800   46.2790 C   0  0  0  0  0  0  0  0  0  0  0  0
   58.0410   31.8830   46.7410 C   0  0  0  0  0  0  0  0  0  0  0  0
   58.5430   32.9640   47.4690 C   0  0  0  0  0  0  0  0  0  0  0  0
   59.9190   33.0590   47.7460 C   0  0  0  0  0  0  0  0  0  0  0  0
   60.4590   34.2200   48.4890 C   0  0  0  0  0  0  0  0  0  0  0  0
   59.6880   34.9580   49.1590 O   0  0  0  0  0  0  0  0  0  0  0  0
   61.8500   34.5480   48.4100 N   0  0  0  0  0  0  0  0  0  0  0  0
   62.8740   34.2520   49.4180 C   0  0  0  0  0  0  0  0  0  0  0  0
   63.8400   33.1640   48.9220 C   0  0  0  0  0  0  0  0  0  0  0  0
   63.2890   31.7530   49.1370 C   0  0  0  0  0  0  0  0  0  0  0  0
   62.9710   31.5410   50.5630 N   0  0  0  0  0  0  0  0  0  0  0  0
   62.5950   30.1280   50.7990 C   0  0  0  0  0  0  0  0  0  0  0  0
   61.0750   29.9840   50.9280 C   0  0  0  0  0  0  0  0  0  0  0  0
   60.4920   29.8430   49.6460 O   0  0  0  0  0  0  0  0  0  0  0  0
   59.0960   30.0360   49.7130 C   0  0  0  0  0  0  0  0  0  0  0  0
   61.8770   32.4500   50.9660 C   0  0  0  0  0  0  0  0  0  0  0  0
   62.2950   33.9230   50.8100 C   0  0  0  0  0  0  0  0  0  0  0  0
   60.7790   32.0490   47.2790 C   0  0  0  0  0  0  0  0  0  0  0  0
   60.2730   30.9700   46.5480 C   0  0  0  0  0  0  0  0  0  0  0  0
  1  2  2  0
  2  3  1  0
  3  4  2  0
  4  5  1  0
  5  6  1  0
  6  7  1  0
  7  8  2  0
  7  9  1  0
  9 10  1  0
 10 11  1  0
  3 12  1  0
 12 13  2  0
 13 14  1  0
 13 15  1  0
 15 16  1  0
 16 17  2  0
 17 18  1  0
 18 19  2  0
 19 20  1  0
 20 21  2  0
 20 22  1  0
 22 23  1  0
 23 24  1  0
 24 25  1  0
 25 26  1  0
 26 27  1  0
 27 28  1  0
 28 29  1  0
 29 30  1  0
 26 31  1  0
 31 32  1  0
 19 33  1  0
 33 34  2  0
 15  2  1  0
 34 16  1  0
 10  5  2  0
 32 23  1  0
M  CHG  4   6  -1   9  -1  11  -1  22  -1
M  END
>  <UniqueID>  (2192) 
41

>  <SMILES>  (2192) 
C=c1/c(=C\c2[n-]c(=O)[n-]c2[O-])cc(C)n1-c1ccc(C(=O)[N-]C2CCN(CCOC)CC2)cc1

>  <Energy>  (2192) 
148.0166203216378

>  <Genealogy>  (2192) 
C=c1c(=Cc2[n-]c(=O)[n-]c2[O-])cc(C)n1-c1ccc(C(=O)[N-]C2CCN(CCOC)CC2)cc1 (protonated)
C=c1/c(=C\c2[n-]c(=O)[n-]c2[O-])cc(C)n1-c1ccc(C(=O)[N-]C2CCN(CCOC)CC2)cc1 (cis-trans isomerization)
C=c1/c(=C\c2[n-]c(=O)[n-]c2[O-])cc(C)n1-c1ccc(C(=O)[N-]C2CCN(CCOC)CC2)cc1 (3D coordinates assigned)
C=c1/c(=C\c2[n-]c(=O)[n-]c2[O-])cc(C)n1-c1ccc(C(=O)[N-]C2CCN(CCOC)CC2)cc1 (nonaromatic ring conformer: 148.0166203216378 kcal/mol)

>  <smiles>  (2192) 
C=c1c(=Cc2[nH]c(=O)[nH]c2O)cc(C)n1-c1ccc(C(=O)NC2CCN(CCOC)CC2)cc1

>  <score_type>  (2192) 
oracle

>  <origin>  (2192) 
adg

>  <m_score__min__energy>  (2192) 
-16.809999999999999

>  <m_primary>  (2192) 
energy

$$$$
47:0
     RDKit          3D

 27 29  0  0  0  0  0  0  0  0999 V2000
   56.2310   29.7240   42.9290 C   0  0  0  0  0  0  0  0  0  0  0  0
   56.9150   29.5690   44.0660 C   0  0  0  0  0  0  0  0  0  0  0  0
   56.9830   28.3880   44.7140 N   0  0  0  0  0  0  0  0  0  0  0  0
   57.7360   28.5880   45.8170 C   0  0  0  0  0  0  0  0  0  0  0  0
   58.0190   27.6640   46.7480 C   0  0  0  0  0  0  0  0  0  0  0  0
   57.4050   26.3250   46.8010 C   0  0  0  0  0  0  0  0  0  0  0  0
   57.9840   25.2130   47.2890 N   0  0  0  0  0  0  0  0  0  0  0  0
   57.0170   24.2760   47.2370 C   0  0  0  0  0  0  0  0  0  0  0  0
   57.1900   23.0890   47.6190 O   0  0  0  0  0  0  0  0  0  0  0  0
   55.8380   24.7260   46.7560 N   0  0  0  0  0  0  0  0  0  0  0  0
   56.0970   26.0220   46.4980 C   0  0  0  0  0  0  0  0  0  0  0  0
   55.1540   26.9130   45.9990 O   0  0  0  0  0  0  0  0  0  0  0  0
   58.1440   29.9080   45.8850 C   0  0  0  0  0  0  0  0  0  0  0  0
   57.6320   30.5410   44.7660 C   0  0  0  0  0  0  0  0  0  0  0  0
   57.8450   31.9690   44.4530 C   0  0  0  0  0  0  0  0  0  0  0  0
   57.4340   32.4620   43.3680 O   0  0  0  0  0  0  0  0  0  0  0  0
   58.5140   32.7750   45.3810 O   0  0  0  0  0  0  0  0  0  0  0  0
   57.8430   33.6370   46.2990 C   0  0  0  0  0  0  0  0  0  0  0  0
   58.6670   33.8290   47.5430 C   0  0  0  0  0  0  0  0  0  0  0  0
   59.5530   32.9330   47.9990 C   0  0  0  0  0  0  0  0  0  0  0  0
   60.9990   32.9660   47.6980 C   0  0  0  0  0  0  0  0  0  0  0  0
   61.5210   33.8530   46.7400 C   0  0  0  0  0  0  0  0  0  0  0  0
   62.8870   33.8490   46.4470 C   0  0  0  0  0  0  0  0  0  0  0  0
   63.7410   32.9510   47.0920 C   0  0  0  0  0  0  0  0  0  0  0  0
   63.2260   32.0460   48.0250 C   0  0  0  0  0  0  0  0  0  0  0  0
   61.8590   32.0450   48.3210 C   0  0  0  0  0  0  0  0  0  0  0  0
   61.3760   31.1570   49.2280 F   0  0  0  0  0  0  0  0  0  0  0  0
  1  2  2  0
  2  3  1  0
  3  4  1  0
  4  5  2  3
  5  6  1  0
  6  7  1  0
  7  8  1  0
  8  9  2  0
  8 10  1  0
 10 11  1  0
 11 12  1  0
  4 13  1  0
 13 14  2  0
 14 15  1  0
 15 16  2  0
 15 17  1  0
 17 18  1  0
 18 19  1  0
 19 20  2  3
 20 21  1  0
 21 22  2  0
 22 23  1  0
 23 24  2  0
 24 25  1  0
 25 26  2  0
 26 27  1  0
 14  2  1  0
 26 21  1  0
 11  6  2  0
M  CHG  2  10  -1  12  -1
M  END
>  <UniqueID>  (2193) 
45

>  <SMILES>  (2193) 
C=c1[nH]c(=Cc2[nH]c(=O)[n-]c2[O-])cc1C(=O)OCC=Cc1ccccc1F

>  <Energy>  (2193) 
110.54871008233013

>  <Genealogy>  (2193) 
C=c1[nH]c(=Cc2[nH]c(=O)[n-]c2[O-])cc1C(=O)OCC=Cc1ccccc1F (protonated)
C=c1[nH]c(=Cc2[nH]c(=O)[n-]c2[O-])cc1C(=O)OCC=Cc1ccccc1F (3D coordinates assigned)
C=c1[nH]c(=Cc2[nH]c(=O)[n-]c2[O-])cc1C(=O)OCC=Cc1ccccc1F (optimized conformer: 110.54871008233013 kcal/mol)

>  <smiles>  (2193) 
C=c1[nH]c(=Cc2[nH]c(=O)[nH]c2O)cc1C(=O)OCC=Cc1ccccc1F

>  <score_type>  (2193) 
oracle

>  <origin>  (2193) 
adg

>  <m_score__min__energy>  (2193) 
-15.029999999999999

>  <m_primary>  (2193) 
energy

$$$$
55:0
     RDKit          3D

 32 35  0  0  0  0  0  0  0  0999 V2000
   57.3040   22.9100   47.5980 O   0  0  0  0  0  0  0  0  0  0  0  0
   57.2450   24.1200   46.9090 C   0  0  0  0  0  0  0  0  0  0  0  0
   58.4080   24.6470   46.3390 C   0  0  0  0  0  0  0  0  0  0  0  0
   58.3630   25.8580   45.6420 C   0  0  0  0  0  0  0  0  0  0  0  0
   57.1490   26.5440   45.4940 C   0  0  0  0  0  0  0  0  0  0  0  0
   57.1340   27.8380   44.7840 C   0  0  0  0  0  0  0  0  0  0  0  0
   57.6670   28.9950   45.2330 C   0  0  0  0  0  0  0  0  0  0  0  0
   58.3580   28.9440   46.3980 N   0  0  0  0  0  0  0  0  0  0  0  0
   58.9290   30.0370   46.9560 C   0  0  0  0  0  0  0  0  0  0  0  0
   59.5560   29.9070   48.0430 O   0  0  0  0  0  0  0  0  0  0  0  0
   58.8280   31.2590   46.3490 N   0  0  0  0  0  0  0  0  0  0  0  0
   59.4460   32.3920   46.9930 C   0  0  0  0  0  0  0  0  0  0  0  0
   58.6590   33.4520   47.4620 C   0  0  0  0  0  0  0  0  0  0  0  0
   59.2590   34.5440   48.0920 C   0  0  0  0  0  0  0  0  0  0  0  0
   60.6470   34.5870   48.2510 C   0  0  0  0  0  0  0  0  0  0  0  0
   61.4510   33.5400   47.7680 C   0  0  0  0  0  0  0  0  0  0  0  0
   62.9210   33.5710   47.9430 C   0  0  0  0  0  0  0  0  0  0  0  0
   63.6490   33.8080   46.9400 O   0  0  0  0  0  0  0  0  0  0  0  0
   63.5380   33.3550   49.2270 N   0  0  0  0  0  0  0  0  0  0  0  0
   64.7930   32.6040   49.3340 C   0  0  0  0  0  0  0  0  0  0  0  0
   65.7040   33.2750   50.3650 C   0  0  0  0  0  0  0  0  0  0  0  0
   65.0250   33.4650   51.5910 O   0  0  0  0  0  0  0  0  0  0  0  0
   63.9560   34.3760   51.4100 C   0  0  0  0  0  0  0  0  0  0  0  0
   62.8960   33.7940   50.4710 C   0  0  0  0  0  0  0  0  0  0  0  0
   60.8390   32.4360   47.1510 C   0  0  0  0  0  0  0  0  0  0  0  0
   58.1510   31.3840   45.1530 C   0  0  0  0  0  0  0  0  0  0  0  0
   58.0350   32.5810   44.5360 C   0  0  0  0  0  0  0  0  0  0  0  0
   57.5680   30.2360   44.5620 C   0  0  0  0  0  0  0  0  0  0  0  0
   56.9930   30.3240   43.4410 O   0  0  0  0  0  0  0  0  0  0  0  0
   55.9840   26.0260   46.0900 C   0  0  0  0  0  0  0  0  0  0  0  0
   54.7770   26.7130   45.9980 O   0  0  0  0  0  0  0  0  0  0  0  0
   56.0330   24.8130   46.7860 C   0  0  0  0  0  0  0  0  0  0  0  0
  1  2  1  0
  2  3  2  0
  3  4  1  0
  4  5  2  0
  5  6  1  0
  6  7  2  0
  7  8  1  0
  8  9  1  0
  9 10  2  0
  9 11  1  0
 11 12  1  0
 12 13  2  0
 13 14  1  0
 14 15  2  0
 15 16  1  0
 16 17  1  0
 17 18  2  0
 17 19  1  0
 19 20  1  0
 20 21  1  0
 21 22  1  0
 22 23  1  0
 23 24  1  0
 16 25  2  0
 11 26  1  0
 26 27  2  0
 26 28  1  0
 28 29  2  0
  5 30  1  0
 30 31  1  0
 30 32  2  0
 32  2  1  0
 28  7  1  0
 25 12  1  0
 24 19  1  0
M  CHG  2   8  -1  31  -1
M  END
>  <UniqueID>  (2194) 
53

>  <SMILES>  (2194) 
C=c1c(=O)/c(=C\c2ccc(O)cc2[O-])[n-]c(=O)n1-c1cccc(C(=O)N2CCOCC2)c1

>  <Energy>  (2194) 
90.36009500271156

>  <Genealogy>  (2194) 
C=c1c(=O)c(=Cc2ccc(O)cc2[O-])[n-]c(=O)n1-c1cccc(C(=O)N2CCOCC2)c1 (protonated)
C=c1c(=O)/c(=C\c2ccc(O)cc2[O-])[n-]c(=O)n1-c1cccc(C(=O)N2CCOCC2)c1 (cis-trans isomerization)
C=c1c(=O)/c(=C\c2ccc(O)cc2[O-])[n-]c(=O)n1-c1cccc(C(=O)N2CCOCC2)c1 (3D coordinates assigned)
C=c1c(=O)/c(=C\c2ccc(O)cc2[O-])[n-]c(=O)n1-c1cccc(C(=O)N2CCOCC2)c1 (nonaromatic ring conformer: 90.36009500271156 kcal/mol)

>  <smiles>  (2194) 
C=c1c(=O)c(=Cc2ccc(O)cc2O)[nH]c(=O)n1-c1cccc(C(=O)N2CCOCC2)c1

>  <score_type>  (2194) 
oracle

>  <origin>  (2194) 
adg

>  <m_score__min__energy>  (2194) 
-14.93

>  <m_primary>  (2194) 
energy

$$$$
57:0
     RDKit          3D

 32 35  0  0  0  0  0  0  0  0999 V2000
   57.0130   21.4210   43.0050 C   0  0  0  0  0  0  0  0  0  0  0  0
   56.9460   21.7610   44.4650 C   0  0  0  0  0  0  0  0  0  0  0  0
   57.4220   20.8500   45.4110 C   0  0  0  0  0  0  0  0  0  0  0  0
   57.3840   21.1860   46.7610 C   0  0  0  0  0  0  0  0  0  0  0  0
   56.9040   22.3960   47.1500 N   0  0  0  0  0  0  0  0  0  0  0  0
   56.4490   23.3240   46.2650 C   0  0  0  0  0  0  0  0  0  0  0  0
   56.0190   24.4580   46.7480 N   0  0  0  0  0  0  0  0  0  0  0  0
   55.8870   25.7590   46.1500 C   0  0  0  0  0  0  0  0  0  0  0  0
   54.7660   26.3120   46.0010 O   0  0  0  0  0  0  0  0  0  0  0  0
   57.1070   26.4320   45.6170 C   0  0  0  0  0  0  0  0  0  0  0  0
   57.3490   27.6510   46.3840 N   0  0  0  0  0  0  0  0  0  0  0  0
   58.3970   28.5900   46.1180 C   0  0  0  0  0  0  0  0  0  0  0  0
   59.5450   28.3620   46.5850 O   0  0  0  0  0  0  0  0  0  0  0  0
   58.1820   29.8000   45.2990 C   0  0  0  0  0  0  0  0  0  0  0  0
   57.5630   29.7110   44.0420 C   0  0  0  0  0  0  0  0  0  0  0  0
   57.3460   30.8610   43.2810 C   0  0  0  0  0  0  0  0  0  0  0  0
   57.7210   32.1120   43.7770 C   0  0  0  0  0  0  0  0  0  0  0  0
   58.3010   32.2180   45.0480 C   0  0  0  0  0  0  0  0  0  0  0  0
   58.7690   33.7930   45.6810 S   0  0  0  0  0  0  0  0  0  0  0  0
   57.5350   34.6200   45.9100 O   0  0  0  0  0  0  0  0  0  0  0  0
   59.6500   34.4950   44.6870 O   0  0  0  0  0  0  0  0  0  0  0  0
   59.6240   33.5960   47.1750 N   0  0  0  0  0  0  0  0  0  0  0  0
   58.9940   33.4500   48.4840 C   0  0  0  0  0  0  0  0  0  0  0  0
   60.1540   33.3500   49.5030 C   0  0  0  0  0  0  0  0  0  0  0  0
   61.3710   33.5020   48.6550 C   0  0  0  0  0  0  0  0  0  0  0  0
   62.7090   33.5340   49.0600 C   0  0  0  0  0  0  0  0  0  0  0  0
   63.7010   33.7040   48.0820 C   0  0  0  0  0  0  0  0  0  0  0  0
   63.3440   33.8430   46.7280 C   0  0  0  0  0  0  0  0  0  0  0  0
   61.9920   33.8120   46.3440 C   0  0  0  0  0  0  0  0  0  0  0  0
   61.0300   33.6420   47.3380 C   0  0  0  0  0  0  0  0  0  0  0  0
   58.5310   31.0610   45.8050 C   0  0  0  0  0  0  0  0  0  0  0  0
   56.4610   23.0090   44.8880 C   0  0  0  0  0  0  0  0  0  0  0  0
  1  2  1  0
  2  3  1  0
  3  4  2  0
  4  5  1  0
  5  6  1  0
  6  7  2  3
  7  8  1  0
  8  9  2  0
  8 10  1  0
 10 11  1  0
 11 12  1  0
 12 13  2  0
 12 14  1  0
 14 15  2  0
 15 16  1  0
 16 17  2  0
 17 18  1  0
 18 19  1  0
 19 20  2  0
 19 21  2  0
 19 22  1  0
 22 23  1  0
 23 24  1  0
 24 25  1  0
 25 26  2  0
 26 27  1  0
 27 28  2  0
 28 29  1  0
 29 30  2  0
 18 31  2  0
  6 32  1  0
 32  2  2  0
 31 14  1  0
 30 22  1  0
 30 25  1  0
M  CHG  2   5  -1  11  -1
M  END
>  <UniqueID>  (2195) 
55

>  <SMILES>  (2195) 
Cc1cc[n-]c(=NC(=O)C[N-]C(=O)c2cccc(S(=O)(=O)N3CCc4ccccc43)c2)c1

>  <Energy>  (2195) 
82.52638966410974

>  <Genealogy>  (2195) 
Cc1cc[n-]c(=NC(=O)C[N-]C(=O)c2cccc(S(=O)(=O)N3CCc4ccccc43)c2)c1 (protonated)
Cc1cc[n-]c(=NC(=O)C[N-]C(=O)c2cccc(S(=O)(=O)N3CCc4ccccc43)c2)c1 (3D coordinates assigned)
Cc1cc[n-]c(=NC(=O)C[N-]C(=O)c2cccc(S(=O)(=O)N3CCc4ccccc43)c2)c1 (nonaromatic ring conformer: 82.52638966410974 kcal/mol)

>  <smiles>  (2195) 
Cc1cc[nH]c(=NC(=O)CNC(=O)c2cccc(S(=O)(=O)N3CCc4ccccc43)c2)c1

>  <score_type>  (2195) 
oracle

>  <origin>  (2195) 
adg

>  <m_score__min__energy>  (2195) 
-14.449999999999999

>  <m_primary>  (2195) 
energy

$$$$
58:0
     RDKit          3D

 23 25  0  0  0  0  0  0  0  0999 V2000
   58.3230   29.1930   47.3590 C   0  0  0  0  0  0  0  0  0  0  0  0
   58.2960   28.9970   46.0320 C   0  0  0  0  0  0  0  0  0  0  0  0
   58.1970   27.7680   45.3670 C   0  0  0  0  0  0  0  0  0  0  0  0
   58.1770   26.5440   45.9340 C   0  0  0  0  0  0  0  0  0  0  0  0
   56.9830   25.6830   46.0050 C   0  0  0  0  0  0  0  0  0  0  0  0
   55.6980   26.2260   45.8680 C   0  0  0  0  0  0  0  0  0  0  0  0
   55.5250   27.5840   45.6250 O   0  0  0  0  0  0  0  0  0  0  0  0
   54.6080   25.4210   45.9710 N   0  0  0  0  0  0  0  0  0  0  0  0
   54.7410   24.0910   46.2170 C   0  0  0  0  0  0  0  0  0  0  0  0
   53.7180   23.3650   46.3040 O   0  0  0  0  0  0  0  0  0  0  0  0
   55.9750   23.5480   46.3730 N   0  0  0  0  0  0  0  0  0  0  0  0
   57.0940   24.3120   46.2790 C   0  0  0  0  0  0  0  0  0  0  0  0
   58.2250   23.7770   46.4360 O   0  0  0  0  0  0  0  0  0  0  0  0
   58.1300   28.1150   44.0120 C   0  0  0  0  0  0  0  0  0  0  0  0
   58.0310   27.2120   42.8200 C   0  0  0  0  0  0  0  0  0  0  0  0
   58.1830   29.4570   43.9030 N   0  0  0  0  0  0  0  0  0  0  0  0
   58.2950   29.9910   45.1090 N   0  0  0  0  0  0  0  0  0  0  0  0
   58.4120   31.4080   45.3260 C   0  0  0  0  0  0  0  0  0  0  0  0
   57.4250   32.2900   44.8550 C   0  0  0  0  0  0  0  0  0  0  0  0
   57.5330   33.6620   45.0990 C   0  0  0  0  0  0  0  0  0  0  0  0
   58.6190   34.1630   45.8230 C   0  0  0  0  0  0  0  0  0  0  0  0
   59.5950   33.2890   46.3110 C   0  0  0  0  0  0  0  0  0  0  0  0
   59.4900   31.9150   46.0690 C   0  0  0  0  0  0  0  0  0  0  0  0
  1  2  2  0
  2  3  1  0
  3  4  2  3
  4  5  1  0
  5  6  2  0
  6  7  1  0
  6  8  1  0
  8  9  1  0
  9 10  2  0
  9 11  1  0
 11 12  1  0
 12 13  2  0
  3 14  1  0
 14 15  1  0
 14 16  2  0
 16 17  1  0
 17 18  1  0
 18 19  2  0
 19 20  1  0
 20 21  2  0
 21 22  1  0
 22 23  2  0
 17  2  1  0
 23 18  1  0
 12  5  1  0
M  CHG  4   7  -1   8  -1  11  -1  16   1
M  END
>  <UniqueID>  (2196) 
56

>  <SMILES>  (2196) 
C=c1c(=Cc2c([O-])[n-]c(=O)[n-]c2=O)c(C)[nH+]n1-c1ccccc1

>  <Energy>  (2196) 
89.76236290175032

>  <Genealogy>  (2196) 
C=c1c(=Cc2c([O-])[n-]c(=O)[n-]c2=O)c(C)[nH+]n1-c1ccccc1 (protonated)
C=c1c(=Cc2c([O-])[n-]c(=O)[n-]c2=O)c(C)[nH+]n1-c1ccccc1 (3D coordinates assigned)
C=c1c(=Cc2c([O-])[n-]c(=O)[n-]c2=O)c(C)[nH+]n1-c1ccccc1 (optimized conformer: 89.76236290175032 kcal/mol)

>  <smiles>  (2196) 
C=c1c(=Cc2c(O)[nH]c(=O)[nH]c2=O)c(C)nn1-c1ccccc1

>  <score_type>  (2196) 
oracle

>  <origin>  (2196) 
adg

>  <m_score__min__energy>  (2196) 
-14.039999999999999

>  <m_primary>  (2196) 
energy

$$$$
66:0
     RDKit          3D

 33 37  0  0  0  0  0  0  0  0999 V2000
   60.3610   35.4380   46.3360 O   0  0  0  0  0  0  0  0  0  0  0  0
   60.2640   34.4220   47.0800 C   0  0  0  0  0  0  0  0  0  0  0  0
   58.8900   33.9080   47.4280 C   0  0  0  0  0  0  0  0  0  0  0  0
   58.4460   32.9040   46.4480 N   0  0  0  0  0  0  0  0  0  0  0  0
   57.9800   33.3230   45.2240 C   0  0  0  0  0  0  0  0  0  0  0  0
   57.5800   32.4250   44.2840 N   0  0  0  0  0  0  0  0  0  0  0  0
   57.6620   31.1050   44.5590 C   0  0  0  0  0  0  0  0  0  0  0  0
   57.1920   29.8470   43.5530 S   0  0  0  0  0  0  0  0  0  0  0  0
   57.6210   28.6460   44.6610 C   0  0  0  0  0  0  0  0  0  0  0  0
   58.1370   29.2180   45.8180 C   0  0  0  0  0  0  0  0  0  0  0  0
   58.1410   30.6280   45.7630 C   0  0  0  0  0  0  0  0  0  0  0  0
   58.5370   31.5600   46.7340 C   0  0  0  0  0  0  0  0  0  0  0  0
   58.9660   31.1740   47.8550 O   0  0  0  0  0  0  0  0  0  0  0  0
   58.5290   28.3550   46.9780 C   0  0  0  0  0  0  0  0  0  0  0  0
   58.9830   26.9730   46.4910 C   0  0  0  0  0  0  0  0  0  0  0  0
   58.0240   26.3720   45.5430 N   0  0  0  0  0  0  0  0  0  0  0  0
   57.8500   24.9370   45.4740 C   0  0  0  0  0  0  0  0  0  0  0  0
   58.3650   24.2090   46.3660 O   0  0  0  0  0  0  0  0  0  0  0  0
   57.0170   24.2680   44.4090 C   0  0  0  0  0  0  0  0  0  0  0  0
   55.6290   24.0080   44.9110 C   0  0  0  0  0  0  0  0  0  0  0  0
   54.9570   22.8620   44.6920 N   0  0  0  0  0  0  0  0  0  0  0  0
   53.7610   23.0850   45.2790 C   0  0  0  0  0  0  0  0  0  0  0  0
   52.8420   22.2260   45.2930 O   0  0  0  0  0  0  0  0  0  0  0  0
   53.6270   24.3020   45.8480 N   0  0  0  0  0  0  0  0  0  0  0  0
   54.8170   24.8770   45.6040 C   0  0  0  0  0  0  0  0  0  0  0  0
   55.1540   26.1650   46.0070 O   0  0  0  0  0  0  0  0  0  0  0  0
   57.3910   27.1780   44.4800 C   0  0  0  0  0  0  0  0  0  0  0  0
   61.4570   33.8120   47.6160 N   0  0  0  0  0  0  0  0  0  0  0  0
   62.7650   34.1300   47.0230 C   0  0  0  0  0  0  0  0  0  0  0  0
   63.6890   32.9100   47.1000 C   0  0  0  0  0  0  0  0  0  0  0  0
   63.8450   32.3660   48.5350 C   0  0  0  0  0  0  0  0  0  0  0  0
   62.7560   32.8560   49.5050 C   0  0  0  0  0  0  0  0  0  0  0  0
   61.3880   32.9680   48.8220 C   0  0  0  0  0  0  0  0  0  0  0  0
  1  2  2  0
  2  3  1  0
  3  4  1  0
  4  5  1  0
  5  6  2  0
  6  7  1  0
  7  8  1  0
  8  9  1  0
  9 10  2  0
 10 11  1  0
 11 12  1  0
 12 13  2  0
 10 14  1  0
 14 15  1  0
 15 16  1  0
 16 17  1  0
 17 18  2  0
 17 19  1  0
 19 20  1  0
 20 21  1  0
 21 22  1  0
 22 23  2  0
 22 24  1  0
 24 25  1  0
 25 26  1  0
 16 27  1  0
  2 28  1  0
 28 29  1  0
 29 30  1  0
 30 31  1  0
 31 32  1  0
 32 33  1  0
 12  4  1  0
 25 20  2  0
 33 28  1  0
 11  7  2  0
 27  9  1  0
M  CHG  2  21  -1  24  -1
M  END
>  <UniqueID>  (2197) 
64

>  <SMILES>  (2197) 
O=C(Cn1cnc2sc3c(c2c1=O)CCN(C(=O)Cc1[n-]c(=O)[n-]c1O)C3)N1CCCCC1

>  <Energy>  (2197) 
128.51513193749923

>  <Genealogy>  (2197) 
O=C(Cn1cnc2sc3c(c2c1=O)CCN(C(=O)Cc1[n-]c(=O)[n-]c1O)C3)N1CCCCC1 (protonated)
O=C(Cn1cnc2sc3c(c2c1=O)CCN(C(=O)Cc1[n-]c(=O)[n-]c1O)C3)N1CCCCC1 (3D coordinates assigned)
O=C(Cn1cnc2sc3c(c2c1=O)CCN(C(=O)Cc1[n-]c(=O)[n-]c1O)C3)N1CCCCC1 (nonaromatic ring conformer: 128.51513193749923 kcal/mol)

>  <smiles>  (2197) 
O=C(Cn1cnc2sc3c(c2c1=O)CCN(C(=O)Cc1[nH]c(=O)[nH]c1O)C3)N1CCCCC1

>  <score_type>  (2197) 
oracle

>  <origin>  (2197) 
adg

>  <m_score__min__energy>  (2197) 
-14.17

>  <m_primary>  (2197) 
energy

$$$$
73:0
     RDKit          3D

 26 28  0  0  0  0  0  0  0  0999 V2000
   59.8280   29.5810   44.6710 O   0  0  0  0  0  0  0  0  0  0  0  0
   58.5840   29.6920   44.8430 C   0  0  0  0  0  0  0  0  0  0  0  0
   57.8530   30.8610   44.2380 C   0  0  0  0  0  0  0  0  0  0  0  0
   56.9450   31.4670   45.2140 N   0  0  0  0  0  0  0  0  0  0  0  0
   57.5250   33.0250   45.7280 S   0  0  0  0  0  0  0  0  0  0  0  0
   56.6480   33.5220   46.8430 O   0  0  0  0  0  0  0  0  0  0  0  0
   57.4180   33.9960   44.5840 O   0  0  0  0  0  0  0  0  0  0  0  0
   59.1910   32.9230   46.3200 C   0  0  0  0  0  0  0  0  0  0  0  0
   60.1030   33.9130   45.9240 C   0  0  0  0  0  0  0  0  0  0  0  0
   61.4230   33.8910   46.3820 C   0  0  0  0  0  0  0  0  0  0  0  0
   61.8510   32.8810   47.2440 C   0  0  0  0  0  0  0  0  0  0  0  0
   60.9570   31.8850   47.6570 C   0  0  0  0  0  0  0  0  0  0  0  0
   61.3650   30.8680   48.5310 C   0  0  0  0  0  0  0  0  0  0  0  0
   60.4510   29.8980   48.9420 C   0  0  0  0  0  0  0  0  0  0  0  0
   59.1380   29.9480   48.4700 C   0  0  0  0  0  0  0  0  0  0  0  0
   58.7560   30.9360   47.6190 N   0  0  0  0  0  0  0  0  0  0  0  0
   59.6180   31.9030   47.1970 C   0  0  0  0  0  0  0  0  0  0  0  0
   57.9220   28.7400   45.6830 N   0  0  0  0  0  0  0  0  0  0  0  0
   56.7150   28.0110   45.3150 C   0  0  0  0  0  0  0  0  0  0  0  0
   56.8600   26.5660   45.7040 C   0  0  0  0  0  0  0  0  0  0  0  0
   58.1330   25.9690   45.7390 C   0  0  0  0  0  0  0  0  0  0  0  0
   58.2730   24.6250   46.0950 C   0  0  0  0  0  0  0  0  0  0  0  0
   57.1470   23.8630   46.4120 C   0  0  0  0  0  0  0  0  0  0  0  0
   55.8760   24.4420   46.3710 C   0  0  0  0  0  0  0  0  0  0  0  0
   55.7280   25.7880   46.0150 C   0  0  0  0  0  0  0  0  0  0  0  0
   54.4530   26.3410   45.9670 O   0  0  0  0  0  0  0  0  0  0  0  0
  1  2  2  0
  2  3  1  0
  3  4  1  0
  4  5  1  0
  5  6  2  0
  5  7  2  0
  5  8  1  0
  8  9  2  0
  9 10  1  0
 10 11  2  0
 11 12  1  0
 12 13  2  0
 13 14  1  0
 14 15  2  0
 15 16  1  0
 16 17  2  0
  2 18  1  0
 18 19  1  0
 19 20  1  0
 20 21  2  0
 21 22  1  0
 22 23  2  0
 23 24  1  0
 24 25  2  0
 25 26  1  0
 17  8  1  0
 25 20  1  0
 17 12  1  0
M  CHG  3   4  -1  18  -1  26  -1
M  END
>  <UniqueID>  (2198) 
70

>  <SMILES>  (2198) 
O=C(C[N-]S(=O)(=O)c1cccc2cccnc12)[N-]Cc1ccccc1[O-]

>  <Energy>  (2198) 
41.70984917053561

>  <Genealogy>  (2198) 
O=C(C[N-]S(=O)(=O)c1cccc2cccnc12)[N-]Cc1ccccc1[O-] (protonated)
O=C(C[N-]S(=O)(=O)c1cccc2cccnc12)[N-]Cc1ccccc1[O-] (3D coordinates assigned)
O=C(C[N-]S(=O)(=O)c1cccc2cccnc12)[N-]Cc1ccccc1[O-] (optimized conformer: 41.70984917053561 kcal/mol)

>  <smiles>  (2198) 
O=C(CNS(=O)(=O)c1cccc2cccnc12)NCc1ccccc1O

>  <score_type>  (2198) 
oracle

>  <origin>  (2198) 
adg

>  <m_score__min__energy>  (2198) 
-15.380000000000001

>  <m_primary>  (2198) 
energy

$$$$
80:0
     RDKit          3D

 29 32  0  0  0  0  0  0  0  0999 V2000
   57.6450   34.5690   44.5000 O   0  0  0  0  0  0  0  0  0  0  0  0
   58.4940   33.8660   45.3770 C   0  0  2  0  0  0  0  0  0  0  0  0
   57.7770   32.8140   46.2170 C   0  0  0  0  0  0  0  0  0  0  0  0
   58.0400   33.5450   47.4680 N   0  0  1  0  0  0  0  0  0  0  0  0
   58.9040   32.8410   48.3940 C   0  0  0  0  0  0  0  0  0  0  0  0
   58.4380   32.3730   49.4710 O   0  0  0  0  0  0  0  0  0  0  0  0
   60.3330   32.6210   48.0700 C   0  0  0  0  0  0  0  0  0  0  0  0
   61.2410   33.6900   48.1680 C   0  0  0  0  0  0  0  0  0  0  0  0
   62.5880   33.5100   47.8390 C   0  0  0  0  0  0  0  0  0  0  0  0
   63.4530   34.5500   47.9330 F   0  0  0  0  0  0  0  0  0  0  0  0
   63.0440   32.2630   47.4080 C   0  0  0  0  0  0  0  0  0  0  0  0
   62.1550   31.1920   47.3080 C   0  0  0  0  0  0  0  0  0  0  0  0
   60.8010   31.3590   47.6340 C   0  0  0  0  0  0  0  0  0  0  0  0
   59.9210   30.2220   47.5760 N   0  0  0  0  0  0  0  0  0  0  0  0
   59.6760   29.3710   48.5950 C   0  0  0  0  0  0  0  0  0  0  0  0
   60.2230   29.5160   49.9820 C   0  0  0  0  0  0  0  0  0  0  0  0
   58.8120   28.3750   48.1900 C   0  0  0  0  0  0  0  0  0  0  0  0
   58.5000   28.6290   46.8630 C   0  0  0  0  0  0  0  0  0  0  0  0
   57.6230   27.8820   46.1660 C   0  0  0  0  0  0  0  0  0  0  0  0
   57.1920   26.5190   46.5100 C   0  0  0  0  0  0  0  0  0  0  0  0
   57.9930   25.6110   47.0930 N   0  0  0  0  0  0  0  0  0  0  0  0
   57.1620   24.5760   47.3420 C   0  0  0  0  0  0  0  0  0  0  0  0
   57.5530   23.5060   47.8790 O   0  0  0  0  0  0  0  0  0  0  0  0
   55.8760   24.7800   46.9820 N   0  0  0  0  0  0  0  0  0  0  0  0
   55.9090   26.0220   46.4720 C   0  0  0  0  0  0  0  0  0  0  0  0
   54.7860   26.6950   46.0070 O   0  0  0  0  0  0  0  0  0  0  0  0
   59.2420   29.7650   46.4950 C   0  0  0  0  0  0  0  0  0  0  0  0
   59.3760   30.2900   45.2680 C   0  0  0  0  0  0  0  0  0  0  0  0
   58.7420   34.5830   46.7010 C   0  0  0  0  0  0  0  0  0  0  0  0
  2  1  1  6
  2  3  1  0
  3  4  1  0
  4  5  1  1
  5  6  2  0
  5  7  1  0
  7  8  2  0
  8  9  1  0
  9 10  1  0
  9 11  2  0
 11 12  1  0
 12 13  2  0
 13 14  1  0
 14 15  1  0
 15 16  1  0
 15 17  2  0
 17 18  1  0
 18 19  2  0
 19 20  1  0
 20 21  1  0
 21 22  1  0
 22 23  2  0
 22 24  1  0
 24 25  1  0
 25 26  1  0
 18 27  1  0
 27 28  2  0
  4 29  1  0
 29  2  1  0
 13  7  1  0
 27 14  1  0
 25 20  2  0
M  CHG  4   4   1  21  -1  24  -1  26  -1
M  END
>  <UniqueID>  (2199) 
77

>  <SMILES>  (2199) 
C=c1/c(=C\c2[n-]c(=O)[n-]c2[O-])cc(C)n1-c1ccc(F)cc1C(=O)[NH+]1CC(O)C1

>  <Energy>  (2199) 
205.38482441954048

>  <Genealogy>  (2199) 
C=c1c(=Cc2[n-]c(=O)[n-]c2[O-])cc(C)n1-c1ccc(F)cc1C(=O)[NH+]1CC(O)C1 (protonated)
C=c1/c(=C\c2[n-]c(=O)[n-]c2[O-])cc(C)n1-c1ccc(F)cc1C(=O)[NH+]1CC(O)C1 (cis-trans isomerization)
C=c1/c(=C\c2[n-]c(=O)[n-]c2[O-])cc(C)n1-c1ccc(F)cc1C(=O)[NH+]1CC(O)C1 (3D coordinates assigned)
C=c1/c(=C\c2[n-]c(=O)[n-]c2[O-])cc(C)n1-c1ccc(F)cc1C(=O)[NH+]1CC(O)C1 (nonaromatic ring conformer: 205.38482441954048 kcal/mol)

>  <smiles>  (2199) 
C=c1c(=Cc2[nH]c(=O)[nH]c2O)cc(C)n1-c1ccc(F)cc1C(=O)N1CC(O)C1

>  <score_type>  (2199) 
oracle

>  <origin>  (2199) 
adg

>  <m_score__min__energy>  (2199) 
-14.220000000000001

>  <m_primary>  (2199) 
energy

$$$$
86:0
     RDKit          3D

 32 35  0  0  0  0  0  0  0  0999 V2000
   59.7940   27.3310   47.0570 C   0  0  0  0  0  0  0  0  0  0  0  0
   59.1280   28.2940   46.3990 C   0  0  0  0  0  0  0  0  0  0  0  0
   58.1330   28.1060   45.4350 C   0  0  0  0  0  0  0  0  0  0  0  0
   57.6460   26.9350   44.9780 C   0  0  0  0  0  0  0  0  0  0  0  0
   57.2120   25.8290   45.8620 C   0  0  0  0  0  0  0  0  0  0  0  0
   55.8950   25.7460   46.3490 C   0  0  0  0  0  0  0  0  0  0  0  0
   54.9510   26.7130   46.0200 O   0  0  0  0  0  0  0  0  0  0  0  0
   55.5270   24.7000   47.1310 N   0  0  0  0  0  0  0  0  0  0  0  0
   56.4060   23.7130   47.4430 C   0  0  0  0  0  0  0  0  0  0  0  0
   56.0420   22.7550   48.1720 O   0  0  0  0  0  0  0  0  0  0  0  0
   57.6740   23.7560   46.9620 N   0  0  0  0  0  0  0  0  0  0  0  0
   58.0940   24.7820   46.1760 C   0  0  0  0  0  0  0  0  0  0  0  0
   59.2780   24.7860   45.7460 O   0  0  0  0  0  0  0  0  0  0  0  0
   57.7060   29.3720   45.0600 C   0  0  0  0  0  0  0  0  0  0  0  0
   58.4580   30.2740   45.7860 C   0  0  0  0  0  0  0  0  0  0  0  0
   58.3370   31.7640   45.6830 C   0  0  0  0  0  0  0  0  0  0  0  0
   59.3180   29.6220   46.6010 N   0  0  0  0  0  0  0  0  0  0  0  0
   60.2830   30.2410   47.4710 C   0  0  0  0  0  0  0  0  0  0  0  0
   60.2600   29.9990   48.8490 C   0  0  0  0  0  0  0  0  0  0  0  0
   61.1730   30.5950   49.6610 N   0  0  0  0  0  0  0  0  0  0  0  0
   62.1350   31.4330   49.1820 C   0  0  0  0  0  0  0  0  0  0  0  0
   63.0640   32.0480   50.0960 N   0  0  0  0  0  0  0  0  0  0  0  0
   63.2440   33.5030   50.0660 C   0  0  0  0  0  0  0  0  0  0  0  0
   64.4310   33.9250   50.9410 C   0  0  0  0  0  0  0  0  0  0  0  0
   65.5460   32.9700   50.7460 N   0  0  0  0  0  0  0  0  0  0  0  0
   66.8350   33.4670   51.3170 C   0  0  0  0  0  0  0  0  0  0  0  0
   66.6900   34.8900   51.9000 C   0  0  0  0  0  0  0  0  0  0  0  0
   67.9440   33.5120   50.2410 C   0  0  0  0  0  0  0  0  0  0  0  0
   65.1860   31.6310   51.2950 C   0  0  0  0  0  0  0  0  0  0  0  0
   63.6860   31.2920   51.1880 C   0  0  0  0  0  0  0  0  0  0  0  0
   62.1720   31.7180   47.8070 C   0  0  0  0  0  0  0  0  0  0  0  0
   61.2460   31.1160   46.9540 C   0  0  0  0  0  0  0  0  0  0  0  0
  1  2  2  0
  2  3  1  0
  3  4  2  0
  4  5  1  0
  5  6  2  0
  6  7  1  0
  6  8  1  0
  8  9  1  0
  9 10  2  0
  9 11  1  0
 11 12  1  0
 12 13  2  0
  3 14  1  0
 14 15  2  0
 15 16  1  0
 15 17  1  0
 17 18  1  0
 18 19  2  0
 19 20  1  0
 20 21  2  0
 21 22  1  0
 22 23  1  0
 23 24  1  0
 24 25  1  0
 25 26  1  0
 26 27  1  0
 26 28  1  0
 25 29  1  0
 29 30  1  0
 21 31  1  0
 31 32  2  0
 17  2  1  0
 32 18  1  0
 12  5  1  0
 30 22  1  0
M  CHG  3   7  -1   8  -1  11  -1
M  END
>  <UniqueID>  (2200) 
82

>  <SMILES>  (2200) 
C=c1/c(=C/c2c([O-])[n-]c(=O)[n-]c2=O)cc(C)n1-c1ccc(N2CCN(C(C)C)CC2)nc1

>  <Energy>  (2200) 
117.34224291713343

>  <Genealogy>  (2200) 
C=c1c(=Cc2c([O-])[n-]c(=O)[n-]c2=O)cc(C)n1-c1ccc(N2CCN(C(C)C)CC2)nc1 (protonated)
C=c1/c(=C/c2c([O-])[n-]c(=O)[n-]c2=O)cc(C)n1-c1ccc(N2CCN(C(C)C)CC2)nc1 (cis-trans isomerization)
C=c1/c(=C/c2c([O-])[n-]c(=O)[n-]c2=O)cc(C)n1-c1ccc(N2CCN(C(C)C)CC2)nc1 (3D coordinates assigned)
C=c1/c(=C/c2c([O-])[n-]c(=O)[n-]c2=O)cc(C)n1-c1ccc(N2CCN(C(C)C)CC2)nc1 (nonaromatic ring conformer: 117.34224291713343 kcal/mol)

>  <smiles>  (2200) 
C=c1c(=Cc2c(O)[nH]c(=O)[nH]c2=O)cc(C)n1-c1ccc(N2CCN(C(C)C)CC2)nc1

>  <score_type>  (2200) 
oracle

>  <origin>  (2200) 
adg

>  <m_score__min__energy>  (2200) 
-15.76

>  <m_primary>  (2200) 
energy

$$$$
1:0
     RDKit          3D

 27 29  0  0  0  0  0  0  0  0999 V2000
   60.5570   26.8700   48.1450 C   0  0  0  0  0  0  0  0  0  0  0  0
   61.1180   26.4400   47.0130 C   0  0  0  0  0  0  0  0  0  0  0  0
   60.3760   25.5620   46.0440 C   0  0  0  0  0  0  0  0  0  0  0  0
   58.9390   25.9030   46.0240 N   0  0  0  0  0  0  0  0  0  0  0  0
   58.0110   24.9620   46.3950 C   0  0  0  0  0  0  0  0  0  0  0  0
   58.3720   23.8100   46.7600 O   0  0  0  0  0  0  0  0  0  0  0  0
   56.6890   25.2590   46.3740 N   0  0  0  0  0  0  0  0  0  0  0  0
   56.2360   26.4740   45.9860 C   0  0  0  0  0  0  0  0  0  0  0  0
   54.8670   26.7110   45.9600 O   0  0  0  0  0  0  0  0  0  0  0  0
   57.1460   27.4650   45.5970 C   0  0  0  0  0  0  0  0  0  0  0  0
   56.6630   28.7900   45.1270 C   0  0  0  0  0  0  0  0  0  0  0  0
   55.4380   28.9450   44.8790 O   0  0  0  0  0  0  0  0  0  0  0  0
   57.5350   29.9280   45.0090 N   0  0  0  0  0  0  0  0  0  0  0  0
   57.9870   30.6590   45.9870 C   0  0  0  0  0  0  0  0  0  0  0  0
   58.4310   30.1160   47.1420 N   0  0  0  0  0  0  0  0  0  0  0  0
   58.8960   31.0630   47.9990 C   0  0  0  0  0  0  0  0  0  0  0  0
   58.8000   32.3710   47.5330 C   0  0  0  0  0  0  0  0  0  0  0  0
   59.3960   33.5810   48.1780 C   0  0  0  0  0  0  0  0  0  0  0  0
   60.8780   33.6070   47.9220 C   0  0  0  0  0  0  0  0  0  0  0  0
   61.3680   33.7460   46.6130 C   0  0  0  0  0  0  0  0  0  0  0  0
   62.7450   33.8450   46.3830 C   0  0  0  0  0  0  0  0  0  0  0  0
   63.6390   33.8180   47.4570 C   0  0  0  0  0  0  0  0  0  0  0  0
   63.1580   33.6910   48.7640 C   0  0  0  0  0  0  0  0  0  0  0  0
   61.7840   33.5890   48.9980 C   0  0  0  0  0  0  0  0  0  0  0  0
   58.1230   32.3420   45.9950 S   0  0  0  0  0  0  0  0  0  0  0  0
   58.5210   27.1600   45.6570 C   0  0  0  0  0  0  0  0  0  0  0  0
   59.3680   28.0520   45.3750 O   0  0  0  0  0  0  0  0  0  0  0  0
  1  2  2  0
  2  3  1  0
  3  4  1  0
  4  5  1  0
  5  6  2  0
  5  7  1  0
  7  8  1  0
  8  9  1  0
  8 10  2  0
 10 11  1  0
 11 12  2  0
 11 13  1  0
 13 14  2  3
 14 15  1  0
 15 16  1  0
 16 17  2  0
 17 18  1  0
 18 19  1  0
 19 20  2  0
 20 21  1  0
 21 22  2  0
 22 23  1  0
 23 24  2  0
 17 25  1  0
 10 26  1  0
 26 27  2  0
 26  4  1  0
 25 14  1  0
 24 19  1  0
M  CHG  3   7  -1   9  -1  15  -1
M  END
>  <UniqueID>  (2201) 
1

>  <SMILES>  (2201) 
C=CCn1c(=O)[n-]c([O-])c(C(=O)N=c2[n-]cc(Cc3ccccc3)s2)c1=O

>  <Energy>  (2201) 
82.38239348927623

>  <Genealogy>  (2201) 
C=CCn1c(=O)[n-]c([O-])c(C(=O)N=c2[n-]cc(Cc3ccccc3)s2)c1=O (protonated)
C=CCn1c(=O)[n-]c([O-])c(C(=O)N=c2[n-]cc(Cc3ccccc3)s2)c1=O (3D coordinates assigned)
C=CCn1c(=O)[n-]c([O-])c(C(=O)N=c2[n-]cc(Cc3ccccc3)s2)c1=O (optimized conformer: 82.38239348927623 kcal/mol)

>  <smiles>  (2201) 
C=CCn1c(=O)[nH]c(O)c(C(=O)N=c2[nH]cc(Cc3ccccc3)s2)c1=O

>  <score_type>  (2201) 
oracle

>  <origin>  (2201) 
adg

>  <m_score__min__energy>  (2201) 
-16.329999999999998

>  <m_primary>  (2201) 
energy

$$$$
5:0
     RDKit          3D

 39 42  0  0  0  0  0  0  0  0999 V2000
   54.9090   26.5700   45.9870 O   0  0  0  0  0  0  0  0  0  0  0  0
   56.0850   25.8770   46.2740 C   0  0  0  0  0  0  0  0  0  0  0  0
   55.9990   24.6870   46.9240 N   0  0  0  0  0  0  0  0  0  0  0  0
   57.1090   23.9660   47.2270 C   0  0  0  0  0  0  0  0  0  0  0  0
   56.9990   22.8670   47.8310 O   0  0  0  0  0  0  0  0  0  0  0  0
   58.3370   24.4260   46.8750 N   0  0  0  0  0  0  0  0  0  0  0  0
   58.4820   25.6090   46.2250 C   0  0  0  0  0  0  0  0  0  0  0  0
   59.6370   26.0040   45.9070 O   0  0  0  0  0  0  0  0  0  0  0  0
   57.3500   26.3810   45.9140 C   0  0  0  0  0  0  0  0  0  0  0  0
   57.4980   27.6600   45.1990 C   0  0  0  0  0  0  0  0  0  0  0  0
   57.8990   28.8220   45.7530 C   0  0  0  0  0  0  0  0  0  0  0  0
   58.2230   28.9300   47.0940 C   0  0  0  0  0  0  0  0  0  0  0  0
   58.5560   30.2470   47.3260 C   0  0  0  0  0  0  0  0  0  0  0  0
   58.8330   30.8170   48.6840 C   0  0  0  0  0  0  0  0  0  0  0  0
   58.4680   30.9620   46.1820 N   0  0  0  0  0  0  0  0  0  0  0  0
   58.7490   32.3690   46.0450 C   0  0  0  0  0  0  0  0  0  0  0  0
   57.7770   33.2140   45.4910 C   0  0  0  0  0  0  0  0  0  0  0  0
   58.0520   34.5670   45.2810 C   0  0  0  0  0  0  0  0  0  0  0  0
   59.3040   35.0870   45.6140 C   0  0  0  0  0  0  0  0  0  0  0  0
   60.2820   34.2590   46.1680 C   0  0  0  0  0  0  0  0  0  0  0  0
   60.0110   32.9020   46.4040 C   0  0  0  0  0  0  0  0  0  0  0  0
   61.0580   32.0570   47.0110 C   0  0  0  0  0  0  0  0  0  0  0  0
   61.4580   31.0340   46.3900 O   0  0  0  0  0  0  0  0  0  0  0  0
   61.6250   32.3870   48.2910 N   0  0  0  0  0  0  0  0  0  0  0  0
   61.9920   33.7860   48.5590 C   0  0  0  0  0  0  0  0  0  0  0  0
   62.6640   33.9460   49.9260 C   0  0  0  0  0  0  0  0  0  0  0  0
   61.8790   33.1690   50.9870 C   0  0  0  0  0  0  0  0  0  0  0  0
   62.4900   33.3930   52.2950 N   0  0  0  0  0  0  0  0  0  0  0  0
   63.7170   32.7910   52.7120 C   0  0  0  0  0  0  0  0  0  0  0  0
   63.7220   31.9620   53.6630 O   0  0  0  0  0  0  0  0  0  0  0  0
   64.8990   33.1330   52.0390 O   0  0  0  0  0  0  0  0  0  0  0  0
   65.6760   32.2720   51.1930 C   0  0  0  0  0  0  0  0  0  0  0  0
   65.1590   30.8240   51.2650 C   0  0  0  0  0  0  0  0  0  0  0  0
   65.6650   32.7830   49.7400 C   0  0  0  0  0  0  0  0  0  0  0  0
   67.1190   32.3080   51.7190 C   0  0  0  0  0  0  0  0  0  0  0  0
   61.8250   31.6550   50.6620 C   0  0  0  0  0  0  0  0  0  0  0  0
   62.0840   31.3150   49.1830 C   0  0  0  0  0  0  0  0  0  0  0  0
   58.0510   30.1100   45.2080 C   0  0  0  0  0  0  0  0  0  0  0  0
   57.8030   30.5030   43.9470 C   0  0  0  0  0  0  0  0  0  0  0  0
  1  2  1  0
  2  3  1  0
  3  4  1  0
  4  5  2  0
  4  6  1  0
  6  7  1  0
  7  8  2  0
  7  9  1  0
  9 10  1  0
 10 11  2  0
 11 12  1  0
 12 13  2  0
 13 14  1  0
 13 15  1  0
 15 16  1  0
 16 17  2  0
 17 18  1  0
 18 19  2  0
 19 20  1  0
 20 21  2  0
 21 22  1  0
 22 23  2  0
 22 24  1  0
 24 25  1  0
 25 26  1  0
 26 27  1  0
 27 28  1  0
 28 29  1  0
 29 30  2  0
 29 31  1  0
 31 32  1  0
 32 33  1  0
 32 34  1  0
 32 35  1  0
 27 36  1  0
 36 37  1  0
 15 38  1  0
 38 39  2  0
  9  2  2  0
 38 11  1  0
 21 16  1  0
 37 24  1  0
M  CHG  3   3  -1   6  -1  28  -1
M  END
>  <UniqueID>  (2202) 
5

>  <SMILES>  (2202) 
C=c1/c(=C\c2c(O)[n-]c(=O)[n-]c2=O)cc(C)n1-c1ccccc1C(=O)N1CCC([N-]C(=O)OC(C)(C)C)CC1

>  <Energy>  (2202) 
118.40548738228857

>  <Genealogy>  (2202) 
C=c1c(=Cc2c(O)[n-]c(=O)[n-]c2=O)cc(C)n1-c1ccccc1C(=O)N1CCC([N-]C(=O)OC(C)(C)C)CC1 (protonated)
C=c1/c(=C\c2c(O)[n-]c(=O)[n-]c2=O)cc(C)n1-c1ccccc1C(=O)N1CCC([N-]C(=O)OC(C)(C)C)CC1 (cis-trans isomerization)
C=c1/c(=C\c2c(O)[n-]c(=O)[n-]c2=O)cc(C)n1-c1ccccc1C(=O)N1CCC([N-]C(=O)OC(C)(C)C)CC1 (3D coordinates assigned)
C=c1/c(=C\c2c(O)[n-]c(=O)[n-]c2=O)cc(C)n1-c1ccccc1C(=O)N1CCC([N-]C(=O)OC(C)(C)C)CC1 (nonaromatic ring conformer: 118.40548738228857 kcal/mol)

>  <smiles>  (2202) 
C=c1c(=Cc2c(O)[nH]c(=O)[nH]c2=O)cc(C)n1-c1ccccc1C(=O)N1CCC(NC(=O)OC(C)(C)C)CC1

>  <score_type>  (2202) 
oracle

>  <origin>  (2202) 
adg

>  <m_score__min__energy>  (2202) 
-15.109999999999999

>  <m_primary>  (2202) 
energy

$$$$
9:0
     RDKit          3D

 26 28  0  0  0  0  0  0  0  0999 V2000
   53.8550   28.1990   53.1790 C   0  0  0  0  0  0  0  0  0  0  0  0
   54.7310   29.1860   52.9390 C   0  0  0  0  0  0  0  0  0  0  0  0
   56.0480   28.8810   53.0970 N   0  0  0  0  0  0  0  0  0  0  0  0
   57.0590   29.7000   52.7090 C   0  0  0  0  0  0  0  0  0  0  0  0
   58.4720   29.2430   52.9290 C   0  0  0  0  0  0  0  0  0  0  0  0
   56.7560   30.9130   52.0650 C   0  0  0  0  0  0  0  0  0  0  0  0
   57.8080   31.8350   51.5770 C   0  0  0  0  0  0  0  0  0  0  0  0
   57.9970   32.9240   52.1820 O   0  0  0  0  0  0  0  0  0  0  0  0
   58.5840   31.5290   50.4000 N   0  0  0  0  0  0  0  0  0  0  0  0
   58.9750   30.1380   50.1070 C   0  0  0  0  0  0  0  0  0  0  0  0
   58.5340   29.7300   48.7000 C   0  0  0  0  0  0  0  0  0  0  0  0
   59.1860   30.8780   47.5030 S   0  0  0  0  0  0  0  0  0  0  0  0
   58.0730   31.4010   46.6380 O   0  0  0  0  0  0  0  0  0  0  0  0
   60.2130   30.1980   46.6420 O   0  0  0  0  0  0  0  0  0  0  0  0
   59.9410   32.2210   48.3940 C   0  0  0  0  0  0  0  0  0  0  0  0
   59.0480   32.6540   49.5630 C   0  0  0  0  0  0  0  0  0  0  0  0
   55.4120   31.2740   51.9160 C   0  0  0  0  0  0  0  0  0  0  0  0
   54.3710   30.4650   52.4130 C   0  0  0  0  0  0  0  0  0  0  0  0
   53.1160   30.9820   52.3710 C   0  0  0  0  0  0  0  0  0  0  0  0
   52.2250   31.0220   51.1970 C   0  0  0  0  0  0  0  0  0  0  0  0
   52.2940   30.1400   50.1840 N   0  0  0  0  0  0  0  0  0  0  0  0
   51.3930   30.6120   49.2960 C   0  0  0  0  0  0  0  0  0  0  0  0
   51.1530   30.0360   48.2030 O   0  0  0  0  0  0  0  0  0  0  0  0
   50.7750   31.7540   49.6670 N   0  0  0  0  0  0  0  0  0  0  0  0
   51.3230   32.0090   50.8650 C   0  0  0  0  0  0  0  0  0  0  0  0
   51.0270   33.1350   51.6230 O   0  0  0  0  0  0  0  0  0  0  0  0
  1  2  2  0
  2  3  1  0
  3  4  2  0
  4  5  1  0
  4  6  1  0
  6  7  1  0
  7  8  2  0
  7  9  1  0
  9 10  1  0
 10 11  1  0
 11 12  1  0
 12 13  2  0
 12 14  2  0
 12 15  1  0
 15 16  1  0
  6 17  2  0
 17 18  1  0
 18 19  2  3
 19 20  1  0
 20 21  1  0
 21 22  1  0
 22 23  2  0
 22 24  1  0
 24 25  1  0
 25 26  1  0
 18  2  1  0
 25 20  2  0
 16  9  1  0
M  CHG  3  21  -1  24  -1  26  -1
M  END
>  <UniqueID>  (2203) 
9

>  <SMILES>  (2203) 
C=c1nc(C)c(C(=O)N2CCS(=O)(=O)CC2)cc1=Cc1[n-]c(=O)[n-]c1[O-]

>  <Energy>  (2203) 
93.58530849217091

>  <Genealogy>  (2203) 
C=c1nc(C)c(C(=O)N2CCS(=O)(=O)CC2)cc1=Cc1[n-]c(=O)[n-]c1[O-] (protonated)
C=c1nc(C)c(C(=O)N2CCS(=O)(=O)CC2)cc1=Cc1[n-]c(=O)[n-]c1[O-] (3D coordinates assigned)
C=c1nc(C)c(C(=O)N2CCS(=O)(=O)CC2)cc1=Cc1[n-]c(=O)[n-]c1[O-] (nonaromatic ring conformer: 93.58530849217091 kcal/mol)

>  <smiles>  (2203) 
C=c1nc(C)c(C(=O)N2CCS(=O)(=O)CC2)cc1=Cc1[nH]c(=O)[nH]c1O

>  <score_type>  (2203) 
oracle

>  <origin>  (2203) 
adg

>  <m_score__min__energy>  (2203) 
-16.870000000000001

>  <m_primary>  (2203) 
energy

$$$$
14:0
     RDKit          3D

 26 28  0  0  0  0  0  0  0  0999 V2000
   60.2730   31.4760   53.6170 C   0  0  0  0  0  0  0  0  0  0  0  0
   58.8610   30.9970   53.8340 C   0  0  0  0  0  0  0  0  0  0  0  0
   58.5480   30.2800   54.9990 C   0  0  0  0  0  0  0  0  0  0  0  0
   57.2410   29.8620   55.2440 C   0  0  0  0  0  0  0  0  0  0  0  0
   56.2320   30.1420   54.3230 C   0  0  0  0  0  0  0  0  0  0  0  0
   56.5220   30.8310   53.1410 C   0  0  0  0  0  0  0  0  0  0  0  0
   55.4490   31.1050   52.2320 N   0  0  0  0  0  0  0  0  0  0  0  0
   54.2540   30.3220   52.1520 C   0  0  0  0  0  0  0  0  0  0  0  0
   54.3100   29.0950   51.8690 O   0  0  0  0  0  0  0  0  0  0  0  0
   52.9330   30.9620   52.4270 C   0  0  0  0  0  0  0  0  0  0  0  0
   52.1450   31.0800   51.1620 C   0  0  0  0  0  0  0  0  0  0  0  0
   52.1340   29.9480   49.9140 S   0  0  0  0  0  0  0  0  0  0  0  0
   51.0340   30.8400   49.0070 C   0  0  0  0  0  0  0  0  0  0  0  0
   50.6040   30.4930   47.8770 O   0  0  0  0  0  0  0  0  0  0  0  0
   50.6510   31.9770   49.6240 N   0  0  0  0  0  0  0  0  0  0  0  0
   51.2650   32.1070   50.8290 C   0  0  0  0  0  0  0  0  0  0  0  0
   51.0210   33.1930   51.6590 O   0  0  0  0  0  0  0  0  0  0  0  0
   57.8380   31.2900   52.8990 C   0  0  0  0  0  0  0  0  0  0  0  0
   58.1350   32.1440   51.7280 C   0  0  0  0  0  0  0  0  0  0  0  0
   57.9830   33.3900   51.8380 O   0  0  0  0  0  0  0  0  0  0  0  0
   58.5090   31.5690   50.4560 N   0  0  0  0  0  0  0  0  0  0  0  0
   58.7400   30.1210   50.3510 C   0  0  0  0  0  0  0  0  0  0  0  0
   59.4660   29.7700   49.0520 C   0  0  0  0  0  0  0  0  0  0  0  0
   58.8280   30.3730   47.9470 O   0  0  0  0  0  0  0  0  0  0  0  0
   58.9900   31.7740   48.0260 C   0  0  0  0  0  0  0  0  0  0  0  0
   58.2470   32.3480   49.2360 C   0  0  0  0  0  0  0  0  0  0  0  0
  1  2  1  0
  2  3  2  0
  3  4  1  0
  4  5  2  0
  5  6  1  0
  6  7  1  0
  7  8  1  0
  8  9  2  0
  8 10  1  0
 10 11  1  0
 11 12  1  0
 12 13  1  0
 13 14  2  0
 13 15  1  0
 15 16  1  0
 16 17  1  0
  6 18  2  0
 18 19  1  0
 19 20  2  0
 19 21  1  0
 21 22  1  0
 22 23  1  0
 23 24  1  0
 24 25  1  0
 25 26  1  0
 18  2  1  0
 26 21  1  0
 16 11  2  0
M  CHG  3   7  -1  15  -1  17  -1
M  END
>  <UniqueID>  (2204) 
13

>  <SMILES>  (2204) 
Cc1cccc([N-]C(=O)Cc2sc(=O)[n-]c2[O-])c1C(=O)N1CCOCC1

>  <Energy>  (2204) 
84.60108092773164

>  <Genealogy>  (2204) 
Cc1cccc([N-]C(=O)Cc2sc(=O)[n-]c2[O-])c1C(=O)N1CCOCC1 (protonated)
Cc1cccc([N-]C(=O)Cc2sc(=O)[n-]c2[O-])c1C(=O)N1CCOCC1 (3D coordinates assigned)
Cc1cccc([N-]C(=O)Cc2sc(=O)[n-]c2[O-])c1C(=O)N1CCOCC1 (nonaromatic ring conformer: 84.60108092773164 kcal/mol)

>  <smiles>  (2204) 
Cc1cccc(NC(=O)Cc2sc(=O)[nH]c2O)c1C(=O)N1CCOCC1

>  <score_type>  (2204) 
oracle

>  <origin>  (2204) 
adg

>  <m_score__min__energy>  (2204) 
-15.640000000000001

>  <m_primary>  (2204) 
energy

$$$$
22:0
     RDKit          3D

 33 37  0  0  0  0  0  0  0  0999 V2000
   54.6690   28.3790   53.0640 C   0  0  0  0  0  0  0  0  0  0  0  0
   55.1040   29.6420   52.9190 C   0  0  0  0  0  0  0  0  0  0  0  0
   54.3350   30.7510   52.5250 C   0  0  0  0  0  0  0  0  0  0  0  0
   53.0040   30.9050   52.3890 C   0  0  0  0  0  0  0  0  0  0  0  0
   52.2840   31.0520   51.1130 C   0  0  0  0  0  0  0  0  0  0  0  0
   52.2920   30.1430   50.1200 N   0  0  0  0  0  0  0  0  0  0  0  0
   51.3930   30.6370   49.2390 C   0  0  0  0  0  0  0  0  0  0  0  0
   51.1250   30.0640   48.1500 O   0  0  0  0  0  0  0  0  0  0  0  0
   50.7970   31.7870   49.6220 N   0  0  0  0  0  0  0  0  0  0  0  0
   51.3630   32.0270   50.8170 C   0  0  0  0  0  0  0  0  0  0  0  0
   51.0400   33.1120   51.6230 O   0  0  0  0  0  0  0  0  0  0  0  0
   55.2310   31.7760   52.2810 C   0  0  0  0  0  0  0  0  0  0  0  0
   56.4840   31.2970   52.5910 C   0  0  0  0  0  0  0  0  0  0  0  0
   57.7470   32.0950   52.4640 C   0  0  0  0  0  0  0  0  0  0  0  0
   56.4150   30.0040   52.9900 N   0  0  0  0  0  0  0  0  0  0  0  0
   57.5740   29.1440   53.2800 C   0  0  0  0  0  0  0  0  0  0  0  0
   58.5120   29.1220   52.1130 C   0  0  0  0  0  0  0  0  0  0  0  0
   59.8350   28.6980   52.1400 C   0  0  0  0  0  0  0  0  0  0  0  0
   60.4950   28.8550   50.9150 C   0  0  0  0  0  0  0  0  0  0  0  0
   59.6910   29.4120   49.9210 C   0  0  0  0  0  0  0  0  0  0  0  0
   60.0710   29.7070   48.5230 C   0  0  0  0  0  0  0  0  0  0  0  0
   60.2360   28.7370   47.7300 O   0  0  0  0  0  0  0  0  0  0  0  0
   60.3000   31.0650   48.0650 N   0  0  0  0  0  0  0  0  0  0  0  0
   59.6210   31.2980   46.7610 C   0  0  0  0  0  0  0  0  0  0  0  0
   58.3410   32.1420   46.8930 C   0  0  0  0  0  0  0  0  0  0  0  0
   58.5850   33.4450   47.5600 N   0  0  0  0  0  0  0  0  0  0  0  0
   58.5080   34.5850   46.6050 C   0  0  0  0  0  0  0  0  0  0  0  0
   58.1390   34.2360   45.1770 C   0  0  0  0  0  0  0  0  0  0  0  0
   59.3920   34.6530   44.6830 O   0  0  0  0  0  0  0  0  0  0  0  0
   59.8160   35.0230   45.9740 C   0  0  0  0  0  0  0  0  0  0  0  0
   59.7100   33.4370   48.5320 C   0  0  0  0  0  0  0  0  0  0  0  0
   59.9220   32.0370   49.1200 C   0  0  0  0  0  0  0  0  0  0  0  0
   58.1640   29.6910   50.5700 S   0  0  0  0  0  0  0  0  0  0  0  0
  1  2  2  0
  2  3  1  0
  3  4  2  3
  4  5  1  0
  5  6  1  0
  6  7  1  0
  7  8  2  0
  7  9  1  0
  9 10  1  0
 10 11  1  0
  3 12  1  0
 12 13  2  0
 13 14  1  0
 13 15  1  0
 15 16  1  0
 16 17  1  0
 17 18  2  0
 18 19  1  0
 19 20  2  0
 20 21  1  0
 21 22  2  0
 21 23  1  0
 23 24  1  0
 24 25  1  0
 25 26  1  0
 26 27  1  0
 27 28  1  0
 28 29  1  0
 29 30  1  0
 26 31  1  0
 31 32  1  0
 20 33  1  0
 15  2  1  0
 33 17  1  0
 10  5  2  0
 32 23  1  0
 30 27  1  0
M  CHG  4   6  -1   9  -1  11  -1  23   1
M  END
>  <UniqueID>  (2205) 
21

>  <SMILES>  (2205) 
C=c1c(=Cc2[n-]c(=O)[n-]c2[O-])cc(C)n1Cc1ccc(C(=O)[NH+]2CCN(C3COC3)CC2)s1

>  <Energy>  (2205) 
242.26656801815346

>  <Genealogy>  (2205) 
C=c1c(=Cc2[n-]c(=O)[n-]c2[O-])cc(C)n1Cc1ccc(C(=O)[NH+]2CCN(C3COC3)CC2)s1 (protonated)
C=c1c(=Cc2[n-]c(=O)[n-]c2[O-])cc(C)n1Cc1ccc(C(=O)[NH+]2CCN(C3COC3)CC2)s1 (3D coordinates assigned)
C=c1c(=Cc2[n-]c(=O)[n-]c2[O-])cc(C)n1Cc1ccc(C(=O)[NH+]2CCN(C3COC3)CC2)s1 (nonaromatic ring conformer: 242.26656801815346 kcal/mol)

>  <smiles>  (2205) 
C=c1c(=Cc2[nH]c(=O)[nH]c2O)cc(C)n1Cc1ccc(C(=O)N2CCN(C3COC3)CC2)s1

>  <score_type>  (2205) 
oracle

>  <origin>  (2205) 
adg

>  <m_score__min__energy>  (2205) 
-16.98

>  <m_primary>  (2205) 
energy

$$$$
23:0
     RDKit          3D

 36 39  0  0  0  0  0  0  0  0999 V2000
   64.7400   30.9610   51.6700 O   0  0  0  0  0  0  0  0  0  0  0  0
   64.1910   32.1390   51.1220 C   0  0  2  0  0  0  0  0  0  0  0  0
   63.9130   33.0990   52.3050 C   0  0  0  0  0  0  0  0  0  0  0  0
   65.1060   33.5560   52.8390 F   0  0  0  0  0  0  0  0  0  0  0  0
   63.2180   32.4340   53.3020 F   0  0  0  0  0  0  0  0  0  0  0  0
   63.1650   34.1900   51.8950 F   0  0  0  0  0  0  0  0  0  0  0  0
   62.8490   31.8050   50.4000 C   0  0  0  0  0  0  0  0  0  0  0  0
   63.0780   31.3960   48.9350 C   0  0  0  0  0  0  0  0  0  0  0  0
   63.7600   32.4520   48.1340 N   0  0  1  0  0  0  0  0  0  0  0  0
   62.8110   33.1200   47.2610 C   0  0  0  0  0  0  0  0  0  0  0  0
   63.2270   33.9180   46.3740 O   0  0  0  0  0  0  0  0  0  0  0  0
   61.3450   32.9440   47.4270 C   0  0  0  0  0  0  0  0  0  0  0  0
   60.6490   33.7230   48.3670 C   0  0  0  0  0  0  0  0  0  0  0  0
   59.2730   33.5600   48.5430 C   0  0  0  0  0  0  0  0  0  0  0  0
   58.5760   32.6120   47.7920 C   0  0  0  0  0  0  0  0  0  0  0  0
   59.2550   31.8160   46.8610 C   0  0  0  0  0  0  0  0  0  0  0  0
   58.5430   30.8300   46.0920 N   0  0  0  0  0  0  0  0  0  0  0  0
   57.5610   31.0850   45.1990 C   0  0  0  0  0  0  0  0  0  0  0  0
   57.0320   32.4470   44.8660 C   0  0  0  0  0  0  0  0  0  0  0  0
   57.0970   29.9090   44.6460 C   0  0  0  0  0  0  0  0  0  0  0  0
   57.8530   28.8830   45.1900 C   0  0  0  0  0  0  0  0  0  0  0  0
   57.7070   27.5960   44.8160 C   0  0  0  0  0  0  0  0  0  0  0  0
   57.5330   26.4510   45.7320 C   0  0  0  0  0  0  0  0  0  0  0  0
   56.2780   26.1380   46.2800 C   0  0  0  0  0  0  0  0  0  0  0  0
   55.1510   26.8790   45.9450 O   0  0  0  0  0  0  0  0  0  0  0  0
   56.1590   25.1030   47.1520 N   0  0  0  0  0  0  0  0  0  0  0  0
   57.2410   24.3720   47.5230 C   0  0  0  0  0  0  0  0  0  0  0  0
   57.1050   23.4160   48.3300 O   0  0  0  0  0  0  0  0  0  0  0  0
   58.4680   24.6730   47.0290 N   0  0  0  0  0  0  0  0  0  0  0  0
   58.6400   25.6970   46.1530 C   0  0  0  0  0  0  0  0  0  0  0  0
   59.7950   25.9530   45.7180 O   0  0  0  0  0  0  0  0  0  0  0  0
   58.7220   29.4830   46.1180 C   0  0  0  0  0  0  0  0  0  0  0  0
   59.5210   28.8650   47.0020 C   0  0  0  0  0  0  0  0  0  0  0  0
   60.6360   31.9830   46.6810 C   0  0  0  0  0  0  0  0  0  0  0  0
   64.5160   33.4440   48.9440 C   0  0  0  0  0  0  0  0  0  0  0  0
   65.2180   32.7760   50.1330 C   0  0  0  0  0  0  0  0  0  0  0  0
  2  1  1  1
  2  3  1  0
  3  4  1  0
  3  5  1  0
  3  6  1  0
  2  7  1  0
  7  8  1  0
  8  9  1  0
  9 10  1  1
 10 11  2  0
 10 12  1  0
 12 13  2  0
 13 14  1  0
 14 15  2  0
 15 16  1  0
 16 17  1  0
 17 18  1  0
 18 19  1  0
 18 20  2  0
 20 21  1  0
 21 22  2  0
 22 23  1  0
 23 24  2  0
 24 25  1  0
 24 26  1  0
 26 27  1  0
 27 28  2  0
 27 29  1  0
 29 30  1  0
 30 31  2  0
 21 32  1  0
 32 33  2  0
 16 34  2  0
  9 35  1  0
 35 36  1  0
 36  2  1  0
 34 12  1  0
 32 17  1  0
 30 23  1  0
M  CHG  4   9   1  25  -1  26  -1  29  -1
M  END
>  <UniqueID>  (2206) 
22

>  <SMILES>  (2206) 
C=c1/c(=C\c2c([O-])[n-]c(=O)[n-]c2=O)cc(C)n1-c1cccc(C(=O)[NH+]2CCC(O)(C(F)(F)F)CC2)c1

>  <Energy>  (2206) 
124.43143017569766

>  <Genealogy>  (2206) 
C=c1c(=Cc2c([O-])[n-]c(=O)[n-]c2=O)cc(C)n1-c1cccc(C(=O)[NH+]2CCC(O)(C(F)(F)F)CC2)c1 (protonated)
C=c1/c(=C\c2c([O-])[n-]c(=O)[n-]c2=O)cc(C)n1-c1cccc(C(=O)[NH+]2CCC(O)(C(F)(F)F)CC2)c1 (cis-trans isomerization)
C=c1/c(=C\c2c([O-])[n-]c(=O)[n-]c2=O)cc(C)n1-c1cccc(C(=O)[NH+]2CCC(O)(C(F)(F)F)CC2)c1 (3D coordinates assigned)
C=c1/c(=C\c2c([O-])[n-]c(=O)[n-]c2=O)cc(C)n1-c1cccc(C(=O)[NH+]2CCC(O)(C(F)(F)F)CC2)c1 (nonaromatic ring conformer: 124.43143017569766 kcal/mol)

>  <smiles>  (2206) 
C=c1c(=Cc2c(O)[nH]c(=O)[nH]c2=O)cc(C)n1-c1cccc(C(=O)N2CCC(O)(C(F)(F)F)CC2)c1

>  <score_type>  (2206) 
oracle

>  <origin>  (2206) 
adg

>  <m_score__min__energy>  (2206) 
-15.31

>  <m_primary>  (2206) 
energy

$$$$
30:0
     RDKit          3D

 31 34  0  0  0  0  0  0  0  0999 V2000
   59.6250   29.6880   44.7420 C   0  0  0  0  0  0  0  0  0  0  0  0
   59.3560   29.4900   46.0420 C   0  0  0  0  0  0  0  0  0  0  0  0
   58.7770   28.3450   46.6000 C   0  0  0  0  0  0  0  0  0  0  0  0
   58.4340   27.2090   45.9620 C   0  0  0  0  0  0  0  0  0  0  0  0
   57.1200   26.5540   46.0980 C   0  0  0  0  0  0  0  0  0  0  0  0
   56.9720   25.2660   46.4570 N   0  0  0  0  0  0  0  0  0  0  0  0
   55.6390   25.0680   46.3730 C   0  0  0  0  0  0  0  0  0  0  0  0
   55.0990   23.9660   46.6500 O   0  0  0  0  0  0  0  0  0  0  0  0
   54.9320   26.1400   45.9580 N   0  0  0  0  0  0  0  0  0  0  0  0
   55.8840   27.0690   45.7760 C   0  0  0  0  0  0  0  0  0  0  0  0
   55.6290   28.3410   45.2800 O   0  0  0  0  0  0  0  0  0  0  0  0
   58.6730   28.5860   47.9610 C   0  0  0  0  0  0  0  0  0  0  0  0
   59.1590   29.8590   48.1770 C   0  0  0  0  0  0  0  0  0  0  0  0
   59.2500   30.4920   49.5110 C   0  0  0  0  0  0  0  0  0  0  0  0
   58.1690   30.7270   50.1170 O   0  0  0  0  0  0  0  0  0  0  0  0
   60.5080   30.8710   50.1380 N   0  0  0  0  0  0  0  0  0  0  0  0
   60.5560   32.2780   50.6220 C   0  0  0  0  0  0  0  0  0  0  0  0
   60.9550   33.2700   49.5190 C   0  0  0  0  0  0  0  0  0  0  0  0
   62.1860   32.8400   48.8550 N   0  0  0  0  0  0  0  0  0  0  0  0
   62.8310   33.7430   47.9430 C   0  0  0  0  0  0  0  0  0  0  0  0
   63.9340   33.4490   47.4090 O   0  0  0  0  0  0  0  0  0  0  0  0
   62.7720   31.5400   49.1940 C   0  0  0  0  0  0  0  0  0  0  0  0
   61.6590   30.4840   49.2660 C   0  0  0  0  0  0  0  0  0  0  0  0
   59.5960   30.4050   47.0180 N   0  0  0  0  0  0  0  0  0  0  0  0
   60.2170   31.7290   46.8590 C   0  0  0  0  0  0  0  0  0  0  0  0
   59.2630   32.7010   46.2090 C   0  0  0  0  0  0  0  0  0  0  0  0
   59.7450   33.8890   45.6320 C   0  0  0  0  0  0  0  0  0  0  0  0
   58.8620   34.7810   45.0150 C   0  0  0  0  0  0  0  0  0  0  0  0
   57.4970   34.4910   44.9580 C   0  0  0  0  0  0  0  0  0  0  0  0
   57.0110   33.3070   45.5170 C   0  0  0  0  0  0  0  0  0  0  0  0
   57.8890   32.4120   46.1360 C   0  0  0  0  0  0  0  0  0  0  0  0
  1  2  2  0
  2  3  1  0
  3  4  2  3
  4  5  1  0
  5  6  1  0
  6  7  1  0
  7  8  2  0
  7  9  1  0
  9 10  1  0
 10 11  1  0
  3 12  1  0
 12 13  2  0
 13 14  1  0
 14 15  2  0
 14 16  1  0
 16 17  1  0
 17 18  1  0
 18 19  1  0
 19 20  1  0
 20 21  2  0
 19 22  1  0
 22 23  1  0
 13 24  1  0
 24 25  1  0
 25 26  1  0
 26 27  2  0
 27 28  1  0
 28 29  2  0
 29 30  1  0
 30 31  2  0
 24  2  1  0
 31 26  1  0
 10  5  2  0
 23 16  1  0
M  CHG  4   6  -1   9  -1  11  -1  16   1
M  END
>  <UniqueID>  (2207) 
29

>  <SMILES>  (2207) 
C=c1c(=Cc2[n-]c(=O)[n-]c2[O-])cc(C(=O)[NH+]2CCN(C=O)CC2)n1Cc1ccccc1

>  <Energy>  (2207) 
138.19686676223824

>  <Genealogy>  (2207) 
C=c1c(=Cc2[n-]c(=O)[n-]c2[O-])cc(C(=O)[NH+]2CCN(C=O)CC2)n1Cc1ccccc1 (protonated)
C=c1c(=Cc2[n-]c(=O)[n-]c2[O-])cc(C(=O)[NH+]2CCN(C=O)CC2)n1Cc1ccccc1 (3D coordinates assigned)
C=c1c(=Cc2[n-]c(=O)[n-]c2[O-])cc(C(=O)[NH+]2CCN(C=O)CC2)n1Cc1ccccc1 (nonaromatic ring conformer: 138.19686676223824 kcal/mol)

>  <smiles>  (2207) 
C=c1c(=Cc2[nH]c(=O)[nH]c2O)cc(C(=O)N2CCN(C=O)CC2)n1Cc1ccccc1

>  <score_type>  (2207) 
oracle

>  <origin>  (2207) 
adg

>  <m_score__min__energy>  (2207) 
-15.44

>  <m_primary>  (2207) 
energy

$$$$
31:0
     RDKit          3D

 36 40  0  0  0  0  0  0  0  0999 V2000
   53.8880   29.1510   54.6450 C   0  0  0  0  0  0  0  0  0  0  0  0
   54.3410   30.0560   53.7610 C   0  0  0  0  0  0  0  0  0  0  0  0
   53.6680   30.5240   52.6220 C   0  0  0  0  0  0  0  0  0  0  0  0
   52.3850   30.3930   52.2330 C   0  0  0  0  0  0  0  0  0  0  0  0
   51.8280   30.8310   50.9430 C   0  0  0  0  0  0  0  0  0  0  0  0
   51.7290   30.0570   49.8460 N   0  0  0  0  0  0  0  0  0  0  0  0
   51.0440   30.8330   48.9780 C   0  0  0  0  0  0  0  0  0  0  0  0
   50.7620   30.4580   47.8100 O   0  0  0  0  0  0  0  0  0  0  0  0
   50.6760   32.0390   49.4630 N   0  0  0  0  0  0  0  0  0  0  0  0
   51.1680   32.0130   50.7120 C   0  0  0  0  0  0  0  0  0  0  0  0
   51.0120   33.0490   51.6250 O   0  0  0  0  0  0  0  0  0  0  0  0
   54.5970   31.2400   51.8920 C   0  0  0  0  0  0  0  0  0  0  0  0
   55.7670   31.2510   52.6240 C   0  0  0  0  0  0  0  0  0  0  0  0
   56.9890   31.9760   52.2060 C   0  0  0  0  0  0  0  0  0  0  0  0
   57.3470   33.0020   52.8450 O   0  0  0  0  0  0  0  0  0  0  0  0
   57.7400   31.5640   51.0490 N   0  0  0  0  0  0  0  0  0  0  0  0
   58.5160   32.5630   50.3000 C   0  0  0  0  0  0  0  0  0  0  0  0
   58.8460   32.0540   48.8930 C   0  0  0  0  0  0  0  0  0  0  0  0
   59.6020   30.7100   48.9210 C   0  0  0  0  0  0  0  0  0  0  0  0
   59.3860   30.0460   47.6710 O   0  0  0  0  0  0  0  0  0  0  0  0
   59.2280   28.6610   47.4960 C   0  0  0  0  0  0  0  0  0  0  0  0
   58.0380   28.1990   47.0260 N   0  0  0  0  0  0  0  0  0  0  0  0
   57.8130   26.8730   46.8330 C   0  0  0  0  0  0  0  0  0  0  0  0
   58.8240   25.9570   47.1190 C   0  0  0  0  0  0  0  0  0  0  0  0
   60.0190   26.4060   47.5860 N   0  0  0  0  0  0  0  0  0  0  0  0
   60.2470   27.7320   47.7810 C   0  0  0  0  0  0  0  0  0  0  0  0
   59.1720   29.7990   50.1000 C   0  0  0  0  0  0  0  0  0  0  0  0
   57.7850   30.1500   50.6440 C   0  0  0  0  0  0  0  0  0  0  0  0
   55.6130   30.5420   53.7700 N   0  0  0  0  0  0  0  0  0  0  0  0
   56.6520   30.2650   54.7770 C   0  0  0  0  0  0  0  0  0  0  0  0
   57.8690   29.6480   54.1350 C   0  0  0  0  0  0  0  0  0  0  0  0
   57.8530   28.3050   53.7190 C   0  0  0  0  0  0  0  0  0  0  0  0
   58.9860   27.7340   53.1320 C   0  0  0  0  0  0  0  0  0  0  0  0
   60.1460   28.4950   52.9620 C   0  0  0  0  0  0  0  0  0  0  0  0
   60.1770   29.8260   53.3830 C   0  0  0  0  0  0  0  0  0  0  0  0
   59.0460   30.4010   53.9720 C   0  0  0  0  0  0  0  0  0  0  0  0
  1  2  2  0
  2  3  1  0
  3  4  2  0
  4  5  1  0
  5  6  1  0
  6  7  1  0
  7  8  2  0
  7  9  1  0
  9 10  1  0
 10 11  1  0
  3 12  1  0
 12 13  2  0
 13 14  1  0
 14 15  2  0
 14 16  1  0
 16 17  1  0
 17 18  1  0
 18 19  1  0
 19 20  1  0
 20 21  1  0
 21 22  2  0
 22 23  1  0
 23 24  2  0
 24 25  1  0
 25 26  2  0
 19 27  1  0
 27 28  1  0
 13 29  1  0
 29 30  1  0
 30 31  1  0
 31 32  2  0
 32 33  1  0
 33 34  2  0
 34 35  1  0
 35 36  2  0
 29  2  1  0
 36 31  1  0
 10  5  2  0
 28 16  1  0
 26 21  1  0
M  CHG  3   6  -1   9  -1  11  -1
M  END
>  <UniqueID>  (2208) 
30

>  <SMILES>  (2208) 
C=c1/c(=C\c2[n-]c(=O)[n-]c2[O-])cc(C(=O)N2CCC(Oc3cnccn3)CC2)n1Cc1ccccc1

>  <Energy>  (2208) 
142.7632554666082

>  <Genealogy>  (2208) 
C=c1c(=Cc2[n-]c(=O)[n-]c2[O-])cc(C(=O)N2CCC(Oc3cnccn3)CC2)n1Cc1ccccc1 (protonated)
C=c1/c(=C\c2[n-]c(=O)[n-]c2[O-])cc(C(=O)N2CCC(Oc3cnccn3)CC2)n1Cc1ccccc1 (cis-trans isomerization)
C=c1/c(=C\c2[n-]c(=O)[n-]c2[O-])cc(C(=O)N2CCC(Oc3cnccn3)CC2)n1Cc1ccccc1 (3D coordinates assigned)
C=c1/c(=C\c2[n-]c(=O)[n-]c2[O-])cc(C(=O)N2CCC(Oc3cnccn3)CC2)n1Cc1ccccc1 (nonaromatic ring conformer: 142.7632554666082 kcal/mol)

>  <smiles>  (2208) 
C=c1c(=Cc2[nH]c(=O)[nH]c2O)cc(C(=O)N2CCC(Oc3cnccn3)CC2)n1Cc1ccccc1

>  <score_type>  (2208) 
oracle

>  <origin>  (2208) 
adg

>  <m_score__min__energy>  (2208) 
-17.07

>  <m_primary>  (2208) 
energy

$$$$
44:0
     RDKit          3D

 29 32  0  0  0  0  0  0  0  0999 V2000
   58.5380   26.3940   46.4980 C   0  0  0  0  0  0  0  0  0  0  0  0
   57.9150   27.4390   45.8920 N   0  0  0  0  0  0  0  0  0  0  0  0
   56.5740   27.4610   45.6620 C   0  0  0  0  0  0  0  0  0  0  0  0
   56.0790   28.5090   45.0590 N   0  0  0  0  0  0  0  0  0  0  0  0
   56.7830   29.5170   44.3180 C   0  0  0  0  0  0  0  0  0  0  0  0
   56.7780   29.4550   43.0590 O   0  0  0  0  0  0  0  0  0  0  0  0
   57.4390   30.6600   45.0010 C   0  0  0  0  0  0  0  0  0  0  0  0
   58.2530   30.4550   46.1290 C   0  0  0  0  0  0  0  0  0  0  0  0
   58.8790   31.5340   46.7590 C   0  0  0  0  0  0  0  0  0  0  0  0
   58.7100   32.8390   46.2700 C   0  0  0  0  0  0  0  0  0  0  0  0
   59.3690   33.9820   46.9380 C   0  0  0  0  0  0  0  0  0  0  0  0
   58.8420   35.1260   46.8640 O   0  0  0  0  0  0  0  0  0  0  0  0
   60.6000   33.8150   47.6650 N   0  0  0  0  0  0  0  0  0  0  0  0
   61.7120   33.0940   47.0260 C   0  0  0  0  0  0  0  0  0  0  0  0
   63.0170   33.2420   47.8210 C   0  0  0  0  0  0  0  0  0  0  0  0
   62.8000   32.9890   49.3360 C   0  0  0  0  0  0  0  0  0  0  0  0
   62.5890   31.5260   49.5760 C   0  0  0  0  0  0  0  0  0  0  0  0
   61.5190   30.9120   49.3230 O   0  0  0  0  0  0  0  0  0  0  0  0
   63.7190   30.8700   50.1120 N   0  0  0  0  0  0  0  0  0  0  0  0
   64.7880   31.8370   50.2540 C   0  0  0  0  0  0  0  0  0  0  0  0
   64.1310   33.2170   50.1050 C   0  0  0  0  0  0  0  0  0  0  0  0
   61.6270   33.8490   49.9180 C   0  0  0  0  0  0  0  0  0  0  0  0
   60.8470   34.6370   48.8550 C   0  0  0  0  0  0  0  0  0  0  0  0
   57.8750   33.0500   45.1640 C   0  0  0  0  0  0  0  0  0  0  0  0
   57.2480   31.9720   44.5320 C   0  0  0  0  0  0  0  0  0  0  0  0
   55.7880   26.3650   46.1040 C   0  0  0  0  0  0  0  0  0  0  0  0
   54.4040   26.3410   45.9800 O   0  0  0  0  0  0  0  0  0  0  0  0
   56.4190   25.2790   46.7180 C   0  0  0  0  0  0  0  0  0  0  0  0
   57.7980   25.2890   46.9140 C   0  0  0  0  0  0  0  0  0  0  0  0
  1  2  1  0
  2  3  1  0
  3  4  2  0
  4  5  1  0
  5  6  2  0
  5  7  1  0
  7  8  2  0
  8  9  1  0
  9 10  2  0
 10 11  1  0
 11 12  2  0
 11 13  1  0
 13 14  1  0
 14 15  1  0
 15 16  1  0
 16 17  1  0
 17 18  2  0
 17 19  1  0
 19 20  1  0
 20 21  1  0
 16 22  1  0
 22 23  1  0
 10 24  1  0
 24 25  2  0
  3 26  1  0
 26 27  1  0
 26 28  2  0
 28 29  1  0
 29  1  2  0
 25  7  1  0
 23 13  1  0
 21 16  1  0
M  CHG  3   2  -1  19  -1  27  -1
M  END
>  <UniqueID>  (2209) 
40

>  <SMILES>  (2209) 
O=C(/N=c1/[n-]cccc1[O-])c1ccc(C(=O)N2CCC3(CC[N-]C3=O)CC2)cc1

>  <Energy>  (2209) 
83.83589665336403

>  <Genealogy>  (2209) 
O=C(N=c1[n-]cccc1[O-])c1ccc(C(=O)N2CCC3(CC[N-]C3=O)CC2)cc1 (protonated)
O=C(/N=c1/[n-]cccc1[O-])c1ccc(C(=O)N2CCC3(CC[N-]C3=O)CC2)cc1 (cis-trans isomerization)
O=C(/N=c1/[n-]cccc1[O-])c1ccc(C(=O)N2CCC3(CC[N-]C3=O)CC2)cc1 (3D coordinates assigned)
O=C(/N=c1/[n-]cccc1[O-])c1ccc(C(=O)N2CCC3(CC[N-]C3=O)CC2)cc1 (nonaromatic ring conformer: 83.83589665336403 kcal/mol)

>  <smiles>  (2209) 
O=C(N=c1[nH]cccc1O)c1ccc(C(=O)N2CCC3(CCNC3=O)CC2)cc1

>  <score_type>  (2209) 
oracle

>  <origin>  (2209) 
adg

>  <m_score__min__energy>  (2209) 
-15.529999999999999

>  <m_primary>  (2209) 
energy

$$$$
60:0
     RDKit          3D

 31 33  0  0  0  0  0  0  0  0999 V2000
   56.9010   29.2880   43.1270 C   0  0  0  0  0  0  0  0  0  0  0  0
   57.3510   29.2800   44.3910 C   0  0  0  0  0  0  0  0  0  0  0  0
   57.7330   28.1560   45.1480 C   0  0  0  0  0  0  0  0  0  0  0  0
   57.6280   26.8370   44.8970 C   0  0  0  0  0  0  0  0  0  0  0  0
   57.0760   25.8250   45.8130 C   0  0  0  0  0  0  0  0  0  0  0  0
   57.7200   24.7100   46.2010 N   0  0  0  0  0  0  0  0  0  0  0  0
   56.7820   24.0350   46.8990 C   0  0  0  0  0  0  0  0  0  0  0  0
   57.0120   22.9280   47.4490 O   0  0  0  0  0  0  0  0  0  0  0  0
   55.5730   24.6360   46.9520 N   0  0  0  0  0  0  0  0  0  0  0  0
   55.7740   25.7600   46.2460 C   0  0  0  0  0  0  0  0  0  0  0  0
   54.7860   26.7050   45.9990 O   0  0  0  0  0  0  0  0  0  0  0  0
   58.2580   28.6480   46.3310 C   0  0  0  0  0  0  0  0  0  0  0  0
   58.1310   30.0200   46.2870 C   0  0  0  0  0  0  0  0  0  0  0  0
   58.5390   30.9490   47.3920 C   0  0  0  0  0  0  0  0  0  0  0  0
   57.5860   30.4060   45.1130 N   0  0  0  0  0  0  0  0  0  0  0  0
   57.3780   31.7750   44.7140 C   0  0  0  0  0  0  0  0  0  0  0  0
   56.3940   32.4080   45.1890 O   0  0  0  0  0  0  0  0  0  0  0  0
   58.3580   32.4590   43.8980 N   0  0  1  0  0  0  0  0  0  0  0  0
   57.9730   32.3930   42.4740 C   0  0  0  0  0  0  0  0  0  0  0  0
   58.4900   33.8560   44.3650 C   0  0  0  0  0  0  0  0  0  0  0  0
   59.1840   33.9420   45.7050 C   0  0  0  0  0  0  0  0  0  0  0  0
   58.7230   34.8420   46.6780 C   0  0  0  0  0  0  0  0  0  0  0  0
   59.3500   34.9140   47.9230 C   0  0  0  0  0  0  0  0  0  0  0  0
   60.4430   34.0890   48.2070 C   0  0  0  0  0  0  0  0  0  0  0  0
   61.0430   34.1720   49.4210 F   0  0  0  0  0  0  0  0  0  0  0  0
   60.9180   33.1830   47.2500 C   0  0  0  0  0  0  0  0  0  0  0  0
   62.0190   32.3780   47.5900 O   0  0  0  0  0  0  0  0  0  0  0  0
   63.3930   32.7610   47.5110 C   0  0  0  0  0  0  0  0  0  0  0  0
   63.8270   33.3050   48.8710 C   0  0  0  0  0  0  0  0  0  0  0  0
   63.5890   33.8290   46.4280 C   0  0  0  0  0  0  0  0  0  0  0  0
   60.2760   33.1080   45.9980 C   0  0  0  0  0  0  0  0  0  0  0  0
  1  2  2  0
  2  3  1  0
  3  4  2  0
  4  5  1  0
  5  6  1  0
  6  7  1  0
  7  8  2  0
  7  9  1  0
  9 10  1  0
 10 11  1  0
  3 12  1  0
 12 13  2  0
 13 14  1  0
 13 15  1  0
 15 16  1  0
 16 17  2  0
 16 18  1  0
 18 19  1  6
 18 20  1  0
 20 21  1  0
 21 22  2  0
 22 23  1  0
 23 24  2  0
 24 25  1  0
 24 26  1  0
 26 27  1  0
 27 28  1  0
 28 29  1  0
 28 30  1  0
 26 31  2  0
 15  2  1  0
 31 21  1  0
 10  5  2  0
M  CHG  4   6  -1   9  -1  11  -1  18   1
M  END
>  <UniqueID>  (2210) 
55

>  <SMILES>  (2210) 
C=c1/c(=C\c2[n-]c(=O)[n-]c2[O-])cc(C)n1C(=O)[N@@H+](C)Cc1ccc(F)c(OC(C)C)c1

>  <Energy>  (2210) 
128.08454083677836

>  <Genealogy>  (2210) 
C=c1c(=Cc2[n-]c(=O)[n-]c2[O-])cc(C)n1C(=O)[NH+](C)Cc1ccc(F)c(OC(C)C)c1 (protonated)
C=c1c(=Cc2[n-]c(=O)[n-]c2[O-])cc(C)n1C(=O)[N@@H+](C)Cc1ccc(F)c(OC(C)C)c1 (chirality)
C=c1/c(=C\c2[n-]c(=O)[n-]c2[O-])cc(C)n1C(=O)[N@@H+](C)Cc1ccc(F)c(OC(C)C)c1 (cis-trans isomerization)
C=c1/c(=C\c2[n-]c(=O)[n-]c2[O-])cc(C)n1C(=O)[N@@H+](C)Cc1ccc(F)c(OC(C)C)c1 (3D coordinates assigned)
C=c1/c(=C\c2[n-]c(=O)[n-]c2[O-])cc(C)n1C(=O)[N@@H+](C)Cc1ccc(F)c(OC(C)C)c1 (optimized conformer: 128.08454083677836 kcal/mol)

>  <smiles>  (2210) 
C=c1c(=Cc2[nH]c(=O)[nH]c2O)cc(C)n1C(=O)N(C)Cc1ccc(F)c(OC(C)C)c1

>  <score_type>  (2210) 
oracle

>  <origin>  (2210) 
adg

>  <m_score__min__energy>  (2210) 
-15.42

>  <m_primary>  (2210) 
energy

$$$$
89:0
     RDKit          3D

 33 36  0  0  0  0  0  0  0  0999 V2000
   59.0180   30.4390   45.4310 C   0  0  0  0  0  0  0  0  0  0  0  0
   59.0670   29.7190   46.5630 C   0  0  0  0  0  0  0  0  0  0  0  0
   58.3750   28.5270   46.8440 C   0  0  0  0  0  0  0  0  0  0  0  0
   57.6460   27.7170   46.0530 C   0  0  0  0  0  0  0  0  0  0  0  0
   57.1780   26.3660   46.4020 C   0  0  0  0  0  0  0  0  0  0  0  0
   57.9560   25.3950   46.9180 N   0  0  0  0  0  0  0  0  0  0  0  0
   57.0740   24.4140   47.2090 C   0  0  0  0  0  0  0  0  0  0  0  0
   57.4250   23.3130   47.7080 O   0  0  0  0  0  0  0  0  0  0  0  0
   55.7860   24.7090   46.9330 N   0  0  0  0  0  0  0  0  0  0  0  0
   55.8700   25.9530   46.4340 C   0  0  0  0  0  0  0  0  0  0  0  0
   54.7720   26.6960   46.0100 O   0  0  0  0  0  0  0  0  0  0  0  0
   58.5940   28.2580   48.1850 C   0  0  0  0  0  0  0  0  0  0  0  0
   59.4350   29.2430   48.6590 C   0  0  0  0  0  0  0  0  0  0  0  0
   59.8830   29.3490   50.0590 C   0  0  0  0  0  0  0  0  0  0  0  0
   60.6150   28.4430   50.5400 O   0  0  0  0  0  0  0  0  0  0  0  0
   59.4740   30.4530   50.8830 N   0  0  0  0  0  0  0  0  0  0  0  0
   60.3830   30.9550   51.9200 C   0  0  0  0  0  0  0  0  0  0  0  0
   60.1780   32.4650   52.1810 C   0  0  0  0  0  0  0  0  0  0  0  0
   58.8690   32.9750   51.7070 N   0  0  0  0  0  0  0  0  0  0  0  0
   58.5240   34.2230   52.4050 C   0  0  0  0  0  0  0  0  0  0  0  0
   57.8020   31.9760   51.8840 C   0  0  0  0  0  0  0  0  0  0  0  0
   58.0490   30.8170   50.9200 C   0  0  0  0  0  0  0  0  0  0  0  0
   59.7360   30.1200   47.6750 N   0  0  0  0  0  0  0  0  0  0  0  0
   60.6300   31.2380   47.7980 C   0  0  0  0  0  0  0  0  0  0  0  0
   61.7340   31.2240   47.1910 O   0  0  0  0  0  0  0  0  0  0  0  0
   60.2870   32.3370   48.6430 N   0  0  0  0  0  0  0  0  0  0  0  0
   60.2690   33.7190   48.1760 C   0  0  0  0  0  0  0  0  0  0  0  0
   59.2620   33.8710   47.0680 C   0  0  0  0  0  0  0  0  0  0  0  0
   59.5890   34.5900   45.9050 C   0  0  0  0  0  0  0  0  0  0  0  0
   58.6500   34.7340   44.8780 C   0  0  0  0  0  0  0  0  0  0  0  0
   57.3790   34.1690   45.0070 C   0  0  0  0  0  0  0  0  0  0  0  0
   57.0400   33.4680   46.1660 C   0  0  0  0  0  0  0  0  0  0  0  0
   57.9740   33.3240   47.1960 C   0  0  0  0  0  0  0  0  0  0  0  0
  1  2  2  0
  2  3  1  0
  3  4  2  3
  4  5  1  0
  5  6  1  0
  6  7  1  0
  7  8  2  0
  7  9  1  0
  9 10  1  0
 10 11  1  0
  3 12  1  0
 12 13  2  0
 13 14  1  0
 14 15  2  0
 14 16  1  0
 16 17  1  0
 17 18  1  0
 18 19  1  0
 19 20  1  0
 19 21  1  0
 21 22  1  0
 13 23  1  0
 23 24  1  0
 24 25  2  0
 24 26  1  0
 26 27  1  0
 27 28  1  0
 28 29  2  0
 29 30  1  0
 30 31  2  0
 31 32  1  0
 32 33  2  0
 23  2  1  0
 33 28  1  0
 10  5  2  0
 22 16  1  0
M  CHG  4   6  -1   9  -1  11  -1  26  -1
M  END
>  <UniqueID>  (2211) 
80

>  <SMILES>  (2211) 
C=c1c(=Cc2[n-]c(=O)[n-]c2[O-])cc(C(=O)N2CCN(C)CC2)n1C(=O)[N-]Cc1ccccc1

>  <Energy>  (2211) 
138.04343756581926

>  <Genealogy>  (2211) 
C=c1c(=Cc2[n-]c(=O)[n-]c2[O-])cc(C(=O)N2CCN(C)CC2)n1C(=O)[N-]Cc1ccccc1 (protonated)
C=c1c(=Cc2[n-]c(=O)[n-]c2[O-])cc(C(=O)N2CCN(C)CC2)n1C(=O)[N-]Cc1ccccc1 (3D coordinates assigned)
C=c1c(=Cc2[n-]c(=O)[n-]c2[O-])cc(C(=O)N2CCN(C)CC2)n1C(=O)[N-]Cc1ccccc1 (nonaromatic ring conformer: 138.04343756581926 kcal/mol)

>  <smiles>  (2211) 
C=c1c(=Cc2[nH]c(=O)[nH]c2O)cc(C(=O)N2CCN(C)CC2)n1C(=O)NCc1ccccc1

>  <score_type>  (2211) 
oracle

>  <origin>  (2211) 
adg

>  <m_score__min__energy>  (2211) 
-17.66

>  <m_primary>  (2211) 
energy

$$$$
4:0
     RDKit          3D

 23 25  0  0  0  0  0  0  0  0999 V2000
   54.3860   29.1970   52.9560 C   0  0  0  0  0  0  0  0  0  0  0  0
   56.0310   29.4440   52.7040 S   0  0  0  0  0  0  0  0  0  0  0  0
   55.7910   30.8540   51.8090 C   0  0  0  0  0  0  0  0  0  0  0  0
   56.7120   31.6070   51.2820 N   0  0  0  0  0  0  0  0  0  0  0  0
   58.1260   31.3550   51.2290 C   0  0  0  0  0  0  0  0  0  0  0  0
   58.8490   31.4380   52.2580 O   0  0  0  0  0  0  0  0  0  0  0  0
   58.7590   31.0350   49.9120 C   0  0  0  0  0  0  0  0  0  0  0  0
   58.9090   32.2880   49.0960 C   0  0  0  0  0  0  0  0  0  0  0  0
   58.2810   32.3980   47.8430 C   0  0  0  0  0  0  0  0  0  0  0  0
   58.4490   33.5510   47.0700 C   0  0  0  0  0  0  0  0  0  0  0  0
   59.2520   34.5950   47.5360 C   0  0  0  0  0  0  0  0  0  0  0  0
   59.8900   34.4880   48.7730 C   0  0  0  0  0  0  0  0  0  0  0  0
   59.7240   33.3380   49.5510 C   0  0  0  0  0  0  0  0  0  0  0  0
   54.4790   31.1510   51.6960 N   0  0  0  0  0  0  0  0  0  0  0  0
   53.6970   30.2290   52.3220 C   0  0  0  0  0  0  0  0  0  0  0  0
   52.2080   30.3710   52.3790 C   0  0  0  0  0  0  0  0  0  0  0  0
   51.6870   30.8340   51.0560 C   0  0  0  0  0  0  0  0  0  0  0  0
   51.6080   30.0560   49.9610 N   0  0  0  0  0  0  0  0  0  0  0  0
   51.0250   30.8640   49.0480 C   0  0  0  0  0  0  0  0  0  0  0  0
   50.7810   30.4910   47.8710 O   0  0  0  0  0  0  0  0  0  0  0  0
   50.7160   32.0990   49.4980 N   0  0  0  0  0  0  0  0  0  0  0  0
   51.1370   32.0610   50.7720 C   0  0  0  0  0  0  0  0  0  0  0  0
   51.0150   33.1230   51.6610 O   0  0  0  0  0  0  0  0  0  0  0  0
  1  2  1  0
  2  3  1  0
  3  4  2  0
  4  5  1  0
  5  6  2  0
  5  7  1  0
  7  8  1  0
  8  9  2  0
  9 10  1  0
 10 11  2  0
 11 12  1  0
 12 13  2  0
  3 14  1  0
 14 15  1  0
 15 16  1  0
 16 17  1  0
 17 18  1  0
 18 19  1  0
 19 20  2  0
 19 21  1  0
 21 22  1  0
 22 23  1  0
 15  1  2  0
 22 17  2  0
 13  8  1  0
M  CHG  4  14  -1  18  -1  21  -1  23  -1
M  END
>  <UniqueID>  (2212) 
4

>  <SMILES>  (2212) 
O=C(Cc1ccccc1)/N=c1/[n-]c(Cc2[n-]c(=O)[n-]c2[O-])cs1

>  <Energy>  (2212) 
93.71338420053752

>  <Genealogy>  (2212) 
O=C(Cc1ccccc1)N=c1[n-]c(Cc2[n-]c(=O)[n-]c2[O-])cs1 (protonated)
O=C(Cc1ccccc1)/N=c1/[n-]c(Cc2[n-]c(=O)[n-]c2[O-])cs1 (cis-trans isomerization)
O=C(Cc1ccccc1)/N=c1/[n-]c(Cc2[n-]c(=O)[n-]c2[O-])cs1 (3D coordinates assigned)
O=C(Cc1ccccc1)/N=c1/[n-]c(Cc2[n-]c(=O)[n-]c2[O-])cs1 (optimized conformer: 93.71338420053752 kcal/mol)

>  <smiles>  (2212) 
O=C(Cc1ccccc1)N=c1[nH]c(Cc2[nH]c(=O)[nH]c2O)cs1

>  <score_type>  (2212) 
oracle

>  <origin>  (2212) 
adg

>  <m_score__min__energy>  (2212) 
-17.300000000000001

>  <m_primary>  (2212) 
energy

$$$$
17:0
     RDKit          3D

 38 41  0  0  0  0  0  0  0  0999 V2000
   58.8930   27.7050   46.9560 C   0  0  0  0  0  0  0  0  0  0  0  0
   58.3690   28.3340   45.8920 C   0  0  0  0  0  0  0  0  0  0  0  0
   57.7900   27.7290   44.7720 C   0  0  0  0  0  0  0  0  0  0  0  0
   57.6410   26.4110   44.5370 C   0  0  0  0  0  0  0  0  0  0  0  0
   57.1690   25.4480   45.5580 C   0  0  0  0  0  0  0  0  0  0  0  0
   55.9420   25.6210   46.2240 C   0  0  0  0  0  0  0  0  0  0  0  0
   55.1240   26.7080   45.9400 O   0  0  0  0  0  0  0  0  0  0  0  0
   55.5350   24.7060   47.1420 N   0  0  0  0  0  0  0  0  0  0  0  0
   56.2850   23.6100   47.4190 C   0  0  0  0  0  0  0  0  0  0  0  0
   55.8900   22.7790   48.2770 O   0  0  0  0  0  0  0  0  0  0  0  0
   57.4570   23.4050   46.7670 N   0  0  0  0  0  0  0  0  0  0  0  0
   57.9110   24.2900   45.8420 C   0  0  0  0  0  0  0  0  0  0  0  0
   59.0010   24.0640   45.2530 O   0  0  0  0  0  0  0  0  0  0  0  0
   57.3510   28.7620   43.9530 C   0  0  0  0  0  0  0  0  0  0  0  0
   57.6900   29.9410   44.5880 C   0  0  0  0  0  0  0  0  0  0  0  0
   57.3940   31.3100   44.0550 C   0  0  0  0  0  0  0  0  0  0  0  0
   58.3040   29.6840   45.7650 N   0  0  0  0  0  0  0  0  0  0  0  0
   58.8120   30.6710   46.6780 C   0  0  0  0  0  0  0  0  0  0  0  0
   58.8740   30.3990   48.0490 C   0  0  0  0  0  0  0  0  0  0  0  0
   59.3590   31.3600   48.9410 C   0  0  0  0  0  0  0  0  0  0  0  0
   59.7930   32.6170   48.4750 C   0  0  0  0  0  0  0  0  0  0  0  0
   60.3280   33.6710   49.3800 C   0  0  0  0  0  0  0  0  0  0  0  0
   59.6640   34.7350   49.5260 O   0  0  0  0  0  0  0  0  0  0  0  0
   61.5060   33.4810   50.1910 N   0  0  0  0  0  0  0  0  0  0  0  0
   61.4040   33.8180   51.6180 C   0  0  0  0  0  0  0  0  0  0  0  0
   62.5800   33.2440   52.4180 C   0  0  0  0  0  0  0  0  0  0  0  0
   63.8710   33.5540   51.7850 N   0  0  0  0  0  0  0  0  0  0  0  0
   65.0870   33.4280   52.5470 C   0  0  0  0  0  0  0  0  0  0  0  0
   65.0460   32.9680   53.7200 O   0  0  0  0  0  0  0  0  0  0  0  0
   66.3090   33.8190   51.9750 O   0  0  0  0  0  0  0  0  0  0  0  0
   67.2890   32.9570   51.3780 C   0  0  0  0  0  0  0  0  0  0  0  0
   68.0490   32.2710   52.5240 C   0  0  0  0  0  0  0  0  0  0  0  0
   66.6050   31.8770   50.5180 C   0  0  0  0  0  0  0  0  0  0  0  0
   68.2890   33.7710   50.5350 C   0  0  0  0  0  0  0  0  0  0  0  0
   63.9140   34.0450   50.4010 C   0  0  0  0  0  0  0  0  0  0  0  0
   62.8320   33.3590   49.5640 C   0  0  0  0  0  0  0  0  0  0  0  0
   59.7290   32.8780   47.0920 C   0  0  0  0  0  0  0  0  0  0  0  0
   59.2400   31.9170   46.2030 C   0  0  0  0  0  0  0  0  0  0  0  0
  1  2  2  0
  2  3  1  0
  3  4  2  3
  4  5  1  0
  5  6  2  0
  6  7  1  0
  6  8  1  0
  8  9  1  0
  9 10  2  0
  9 11  1  0
 11 12  1  0
 12 13  2  0
  3 14  1  0
 14 15  2  0
 15 16  1  0
 15 17  1  0
 17 18  1  0
 18 19  2  0
 19 20  1  0
 20 21  2  0
 21 22  1  0
 22 23  2  0
 22 24  1  0
 24 25  1  0
 25 26  1  0
 26 27  1  0
 27 28  1  0
 28 29  2  0
 28 30  1  0
 30 31  1  0
 31 32  1  0
 31 33  1  0
 31 34  1  0
 27 35  1  0
 35 36  1  0
 21 37  1  0
 37 38  2  0
 17  2  1  0
 38 18  1  0
 12  5  1  0
 36 24  1  0
M  CHG  3   7  -1   8  -1  11  -1
M  END
>  <UniqueID>  (2213) 
17

>  <SMILES>  (2213) 
C=c1c(=Cc2c([O-])[n-]c(=O)[n-]c2=O)cc(C)n1-c1ccc(C(=O)N2CCN(C(=O)OC(C)(C)C)CC2)cc1

>  <Energy>  (2213) 
119.3866990866741

>  <Genealogy>  (2213) 
C=c1c(=Cc2c([O-])[n-]c(=O)[n-]c2=O)cc(C)n1-c1ccc(C(=O)N2CCN(C(=O)OC(C)(C)C)CC2)cc1 (protonated)
C=c1c(=Cc2c([O-])[n-]c(=O)[n-]c2=O)cc(C)n1-c1ccc(C(=O)N2CCN(C(=O)OC(C)(C)C)CC2)cc1 (3D coordinates assigned)
C=c1c(=Cc2c([O-])[n-]c(=O)[n-]c2=O)cc(C)n1-c1ccc(C(=O)N2CCN(C(=O)OC(C)(C)C)CC2)cc1 (nonaromatic ring conformer: 119.3866990866741 kcal/mol)

>  <smiles>  (2213) 
C=c1c(=Cc2c(O)[nH]c(=O)[nH]c2=O)cc(C)n1-c1ccc(C(=O)N2CCN(C(=O)OC(C)(C)C)CC2)cc1

>  <score_type>  (2213) 
oracle

>  <origin>  (2213) 
adg

>  <m_score__min__energy>  (2213) 
-16.199999999999999

>  <m_primary>  (2213) 
energy

$$$$
21:0
     RDKit          3D

 24 26  0  0  0  0  0  0  0  0999 V2000
   58.2700   30.3990   44.4210 C   0  0  0  0  0  0  0  0  0  0  0  0
   58.6470   30.0510   45.6630 C   0  0  0  0  0  0  0  0  0  0  0  0
   58.6100   28.7710   46.2240 C   0  0  0  0  0  0  0  0  0  0  0  0
   58.4050   27.5620   45.6640 C   0  0  0  0  0  0  0  0  0  0  0  0
   57.1920   26.7430   45.8120 C   0  0  0  0  0  0  0  0  0  0  0  0
   57.1680   25.4900   46.3050 N   0  0  0  0  0  0  0  0  0  0  0  0
   55.8480   25.2110   46.3810 C   0  0  0  0  0  0  0  0  0  0  0  0
   55.4120   24.1040   46.7900 O   0  0  0  0  0  0  0  0  0  0  0  0
   55.0330   26.2160   45.9960 N   0  0  0  0  0  0  0  0  0  0  0  0
   55.9000   27.1820   45.6540 C   0  0  0  0  0  0  0  0  0  0  0  0
   55.5190   28.4420   45.2100 O   0  0  0  0  0  0  0  0  0  0  0  0
   58.8570   28.9380   47.5730 C   0  0  0  0  0  0  0  0  0  0  0  0
   59.1210   30.2840   47.7960 C   0  0  0  0  0  0  0  0  0  0  0  0
   59.4140   30.8990   49.1800 C   0  0  0  0  0  0  0  0  0  0  0  0
   58.5320   32.1370   49.4540 C   0  0  0  0  0  0  0  0  0  0  0  0
   60.8910   31.3590   49.2720 C   0  0  0  0  0  0  0  0  0  0  0  0
   59.1750   29.8400   50.2720 C   0  0  0  0  0  0  0  0  0  0  0  0
   58.9820   30.9570   46.6190 N   0  0  0  0  0  0  0  0  0  0  0  0
   59.0850   32.3740   46.4040 C   0  0  0  0  0  0  0  0  0  0  0  0
   57.9850   33.0980   45.9250 C   0  0  0  0  0  0  0  0  0  0  0  0
   58.1040   34.4690   45.6700 C   0  0  0  0  0  0  0  0  0  0  0  0
   59.3280   35.1140   45.8730 C   0  0  0  0  0  0  0  0  0  0  0  0
   60.4360   34.3880   46.3190 C   0  0  0  0  0  0  0  0  0  0  0  0
   60.3200   33.0190   46.5730 C   0  0  0  0  0  0  0  0  0  0  0  0
  1  2  2  0
  2  3  1  0
  3  4  2  0
  4  5  1  0
  5  6  1  0
  6  7  1  0
  7  8  2  0
  7  9  1  0
  9 10  1  0
 10 11  1  0
  3 12  1  0
 12 13  2  0
 13 14  1  0
 14 15  1  0
 14 16  1  0
 14 17  1  0
 13 18  1  0
 18 19  1  0
 19 20  2  0
 20 21  1  0
 21 22  2  0
 22 23  1  0
 23 24  2  0
 18  2  1  0
 24 19  1  0
 10  5  2  0
M  CHG  3   6  -1   9  -1  11  -1
M  END
>  <UniqueID>  (2214) 
21

>  <SMILES>  (2214) 
C=c1/c(=C\c2[n-]c(=O)[n-]c2[O-])cc(C(C)(C)C)n1-c1ccccc1

>  <Energy>  (2214) 
121.30171020810019

>  <Genealogy>  (2214) 
C=c1c(=Cc2[n-]c(=O)[n-]c2[O-])cc(C(C)(C)C)n1-c1ccccc1 (protonated)
C=c1/c(=C\c2[n-]c(=O)[n-]c2[O-])cc(C(C)(C)C)n1-c1ccccc1 (cis-trans isomerization)
C=c1/c(=C\c2[n-]c(=O)[n-]c2[O-])cc(C(C)(C)C)n1-c1ccccc1 (3D coordinates assigned)
C=c1/c(=C\c2[n-]c(=O)[n-]c2[O-])cc(C(C)(C)C)n1-c1ccccc1 (optimized conformer: 121.30171020810019 kcal/mol)

>  <smiles>  (2214) 
C=c1c(=Cc2[nH]c(=O)[nH]c2O)cc(C(C)(C)C)n1-c1ccccc1

>  <score_type>  (2214) 
oracle

>  <origin>  (2214) 
adg

>  <m_score__min__energy>  (2214) 
-15.67

>  <m_primary>  (2214) 
energy

$$$$
26:0
     RDKit          3D

 36 40  0  0  0  0  0  0  0  0999 V2000
   54.2460   25.3940   45.6780 O   0  0  0  0  0  0  0  0  0  0  0  0
   55.5060   25.4490   45.7000 C   0  0  0  0  0  0  0  0  0  0  0  0
   56.1380   26.5700   46.3430 N   0  0  0  0  0  0  0  0  0  0  0  0
   57.0700   27.4650   45.7250 C   0  0  0  0  0  0  0  0  0  0  0  0
   57.9940   26.9590   44.8020 C   0  0  0  0  0  0  0  0  0  0  0  0
   58.8340   27.8260   44.0970 C   0  0  0  0  0  0  0  0  0  0  0  0
   58.7590   29.2040   44.3170 C   0  0  0  0  0  0  0  0  0  0  0  0
   57.8650   29.7200   45.2700 C   0  0  0  0  0  0  0  0  0  0  0  0
   57.7660   31.1740   45.4910 C   0  0  0  0  0  0  0  0  0  0  0  0
   56.8570   31.8220   44.8980 O   0  0  0  0  0  0  0  0  0  0  0  0
   58.6880   31.8650   46.3620 N   0  0  0  0  0  0  0  0  0  0  0  0
   60.1040   31.4800   46.4030 C   0  0  0  0  0  0  0  0  0  0  0  0
   60.5890   31.4920   47.8480 C   0  0  0  0  0  0  0  0  0  0  0  0
   60.4460   32.8970   48.4670 C   0  0  0  0  0  0  0  0  0  0  0  0
   60.3710   32.8330   49.9460 N   0  0  0  0  0  0  0  0  0  0  0  0
   61.4230   33.4480   50.7240 C   0  0  0  0  0  0  0  0  0  0  0  0
   62.5680   33.6240   50.2290 O   0  0  0  0  0  0  0  0  0  0  0  0
   61.1820   33.8310   52.1610 C   0  0  0  0  0  0  0  0  0  0  0  0
   59.6880   34.0570   52.4200 C   0  0  0  0  0  0  0  0  0  0  0  0
   58.8880   32.8880   51.9150 C   0  0  0  0  0  0  0  0  0  0  0  0
   57.7800   32.4160   52.6390 C   0  0  0  0  0  0  0  0  0  0  0  0
   57.0480   31.3280   52.1620 C   0  0  0  0  0  0  0  0  0  0  0  0
   57.4080   30.7170   50.9560 C   0  0  0  0  0  0  0  0  0  0  0  0
   58.4960   31.1950   50.2200 C   0  0  0  0  0  0  0  0  0  0  0  0
   59.2320   32.3060   50.6750 C   0  0  0  0  0  0  0  0  0  0  0  0
   59.3440   33.7990   47.8350 C   0  0  0  0  0  0  0  0  0  0  0  0
   58.2250   33.0700   47.0670 C   0  0  0  0  0  0  0  0  0  0  0  0
   57.0450   28.8440   45.9960 C   0  0  0  0  0  0  0  0  0  0  0  0
   56.2780   24.3300   45.1120 C   0  0  0  0  0  0  0  0  0  0  0  0
   55.7890   23.5890   44.0230 C   0  0  0  0  0  0  0  0  0  0  0  0
   56.5550   22.5280   43.5370 C   0  0  0  0  0  0  0  0  0  0  0  0
   56.1330   21.8310   42.5750 O   0  0  0  0  0  0  0  0  0  0  0  0
   57.7600   22.2480   44.1000 N   0  0  0  0  0  0  0  0  0  0  0  0
   58.2340   22.9900   45.1360 C   0  0  0  0  0  0  0  0  0  0  0  0
   59.3560   22.7200   45.6410 O   0  0  0  0  0  0  0  0  0  0  0  0
   57.4980   24.0190   45.6320 N   0  0  0  0  0  0  0  0  0  0  0  0
  1  2  2  0
  2  3  1  0
  3  4  1  0
  4  5  2  0
  5  6  1  0
  6  7  2  0
  7  8  1  0
  8  9  1  0
  9 10  2  0
  9 11  1  0
 11 12  1  0
 12 13  1  0
 13 14  1  0
 14 15  1  0
 15 16  1  0
 16 17  2  0
 16 18  1  0
 18 19  1  0
 19 20  1  0
 20 21  2  0
 21 22  1  0
 22 23  2  0
 23 24  1  0
 24 25  2  0
 14 26  1  0
 26 27  1  0
  8 28  2  0
  2 29  1  0
 29 30  2  0
 30 31  1  0
 31 32  2  0
 31 33  1  0
 33 34  1  0
 34 35  2  0
 34 36  1  0
 28  4  1  0
 36 29  1  0
 27 11  1  0
 25 15  1  0
 25 20  1  0
M  CHG  3   3  -1  33  -1  36  -1
M  END
>  <UniqueID>  (2215) 
26

>  <SMILES>  (2215) 
O=C([N-]c1cccc(C(=O)N2CCC(N3C(=O)CCc4ccccc43)CC2)c1)c1cc(=O)[n-]c(=O)[n-]1

>  <Energy>  (2215) 
89.00340766271586

>  <Genealogy>  (2215) 
O=C([N-]c1cccc(C(=O)N2CCC(N3C(=O)CCc4ccccc43)CC2)c1)c1cc(=O)[n-]c(=O)[n-]1 (protonated)
O=C([N-]c1cccc(C(=O)N2CCC(N3C(=O)CCc4ccccc43)CC2)c1)c1cc(=O)[n-]c(=O)[n-]1 (3D coordinates assigned)
O=C([N-]c1cccc(C(=O)N2CCC(N3C(=O)CCc4ccccc43)CC2)c1)c1cc(=O)[n-]c(=O)[n-]1 (nonaromatic ring conformer: 89.00340766271586 kcal/mol)

>  <smiles>  (2215) 
O=C(Nc1cccc(C(=O)N2CCC(N3C(=O)CCc4ccccc43)CC2)c1)c1cc(=O)[nH]c(=O)[nH]1

>  <score_type>  (2215) 
oracle

>  <origin>  (2215) 
adg

>  <m_score__min__energy>  (2215) 
-16.699999999999999

>  <m_primary>  (2215) 
energy

$$$$
33:0
     RDKit          3D

 33 36  0  0  0  0  0  0  0  0999 V2000
   57.4420   28.0560   44.5790 C   0  0  0  0  0  0  0  0  0  0  0  0
   57.9220   27.2030   45.4980 C   0  0  0  0  0  0  0  0  0  0  0  0
   57.7860   25.8060   45.5120 C   0  0  0  0  0  0  0  0  0  0  0  0
   56.9910   24.9880   44.7950 C   0  0  0  0  0  0  0  0  0  0  0  0
   55.6380   24.5540   45.1790 C   0  0  0  0  0  0  0  0  0  0  0  0
   55.1230   23.3360   44.9290 N   0  0  0  0  0  0  0  0  0  0  0  0
   53.8370   23.4540   45.3280 C   0  0  0  0  0  0  0  0  0  0  0  0
   53.0190   22.5010   45.2660 O   0  0  0  0  0  0  0  0  0  0  0  0
   53.4960   24.6770   45.7890 N   0  0  0  0  0  0  0  0  0  0  0  0
   54.6450   25.3630   45.6730 C   0  0  0  0  0  0  0  0  0  0  0  0
   54.7790   26.7060   46.0050 O   0  0  0  0  0  0  0  0  0  0  0  0
   58.6610   25.3410   46.4810 C   0  0  0  0  0  0  0  0  0  0  0  0
   59.2320   26.4510   47.0700 C   0  0  0  0  0  0  0  0  0  0  0  0
   60.2450   26.4080   48.1730 C   0  0  0  0  0  0  0  0  0  0  0  0
   58.7800   27.5790   46.4800 N   0  0  0  0  0  0  0  0  0  0  0  0
   59.2140   28.9150   46.7890 C   0  0  0  0  0  0  0  0  0  0  0  0
   58.5690   29.6390   47.8010 C   0  0  0  0  0  0  0  0  0  0  0  0
   58.9820   30.9360   48.1130 C   0  0  0  0  0  0  0  0  0  0  0  0
   60.0540   31.5250   47.4260 C   0  0  0  0  0  0  0  0  0  0  0  0
   60.4880   32.9030   47.7460 C   0  0  0  0  0  0  0  0  0  0  0  0
   59.7830   33.8750   47.3590 O   0  0  0  0  0  0  0  0  0  0  0  0
   61.7000   33.1560   48.4820 N   0  0  0  0  0  0  0  0  0  0  0  0
   62.9200   32.4020   48.1510 C   0  0  0  0  0  0  0  0  0  0  0  0
   64.1830   33.1220   48.6370 C   0  0  0  0  0  0  0  0  0  0  0  0
   64.0320   33.5410   50.0400 N   0  0  0  0  0  0  0  0  0  0  0  0
   65.1520   33.5330   50.9510 C   0  0  0  0  0  0  0  0  0  0  0  0
   66.5580   33.3260   50.4730 C   0  0  0  0  0  0  0  0  0  0  0  0
   64.9550   33.6900   52.1870 O   0  0  0  0  0  0  0  0  0  0  0  0
   62.7460   34.0830   50.5090 C   0  0  0  0  0  0  0  0  0  0  0  0
   61.7760   34.3350   49.3510 C   0  0  0  0  0  0  0  0  0  0  0  0
   60.6850   30.8080   46.3960 C   0  0  0  0  0  0  0  0  0  0  0  0
   60.2740   29.5090   46.0800 C   0  0  0  0  0  0  0  0  0  0  0  0
   61.0800   28.6520   44.7720 Cl  0  0  0  0  0  0  0  0  0  0  0  0
  1  2  2  0
  2  3  1  0
  3  4  2  3
  4  5  1  0
  5  6  1  0
  6  7  1  0
  7  8  2  0
  7  9  1  0
  9 10  1  0
 10 11  1  0
  3 12  1  0
 12 13  2  0
 13 14  1  0
 13 15  1  0
 15 16  1  0
 16 17  2  0
 17 18  1  0
 18 19  2  0
 19 20  1  0
 20 21  2  0
 20 22  1  0
 22 23  1  0
 23 24  1  0
 24 25  1  0
 25 26  1  0
 26 27  1  0
 26 28  2  0
 25 29  1  0
 29 30  1  0
 19 31  1  0
 31 32  2  0
 32 33  1  0
 15  2  1  0
 32 16  1  0
 10  5  2  0
 30 22  1  0
M  CHG  3   6  -1   9  -1  11  -1
M  END
>  <UniqueID>  (2216) 
33

>  <SMILES>  (2216) 
C=c1c(=Cc2[n-]c(=O)[n-]c2[O-])cc(C)n1-c1ccc(C(=O)N2CCN(C(C)=O)CC2)cc1Cl

>  <Energy>  (2216) 
136.0821270315193

>  <Genealogy>  (2216) 
C=c1c(=Cc2[n-]c(=O)[n-]c2[O-])cc(C)n1-c1ccc(C(=O)N2CCN(C(C)=O)CC2)cc1Cl (protonated)
C=c1c(=Cc2[n-]c(=O)[n-]c2[O-])cc(C)n1-c1ccc(C(=O)N2CCN(C(C)=O)CC2)cc1Cl (3D coordinates assigned)
C=c1c(=Cc2[n-]c(=O)[n-]c2[O-])cc(C)n1-c1ccc(C(=O)N2CCN(C(C)=O)CC2)cc1Cl (nonaromatic ring conformer: 136.0821270315193 kcal/mol)

>  <smiles>  (2216) 
C=c1c(=Cc2[nH]c(=O)[nH]c2O)cc(C)n1-c1ccc(C(=O)N2CCN(C(C)=O)CC2)cc1Cl

>  <score_type>  (2216) 
oracle

>  <origin>  (2216) 
adg

>  <m_score__min__energy>  (2216) 
-15.81

>  <m_primary>  (2216) 
energy

$$$$
37:0
     RDKit          3D

 32 36  0  0  0  0  0  0  0  0999 V2000
   54.9950   26.7020   46.0000 O   0  0  0  0  0  0  0  0  0  0  0  0
   55.9410   25.7000   46.1910 C   0  0  0  0  0  0  0  0  0  0  0  0
   55.6670   24.5320   46.7950 N   0  0  0  0  0  0  0  0  0  0  0  0
   56.8660   23.9140   46.8090 C   0  0  0  0  0  0  0  0  0  0  0  0
   57.0330   22.7710   47.3120 O   0  0  0  0  0  0  0  0  0  0  0  0
   57.8750   24.6200   46.2560 N   0  0  0  0  0  0  0  0  0  0  0  0
   57.2750   25.7460   45.8360 C   0  0  0  0  0  0  0  0  0  0  0  0
   58.0040   26.8800   45.2490 C   0  0  0  0  0  0  0  0  0  0  0  0
   58.5160   27.9270   45.9280 C   0  0  0  0  0  0  0  0  0  0  0  0
   57.8370   29.1240   46.0660 C   0  0  0  0  0  0  0  0  0  0  0  0
   58.6810   29.9850   46.7300 C   0  0  0  0  0  0  0  0  0  0  0  0
   58.3500   31.3850   47.0260 C   0  0  0  0  0  0  0  0  0  0  0  0
   58.4760   31.8210   48.2010 O   0  0  0  0  0  0  0  0  0  0  0  0
   57.9470   32.2700   45.9830 N   0  0  0  0  0  0  0  0  0  0  0  0
   57.8910   32.2730   44.5080 C   0  0  0  0  0  0  0  0  0  0  0  0
   57.4600   33.6960   44.3710 C   0  0  0  0  0  0  0  0  0  0  0  0
   57.5290   33.6770   45.8630 C   0  0  0  0  0  0  0  0  0  0  0  0
   59.8520   29.3770   47.0310 N   0  0  0  0  0  0  0  0  0  0  0  0
   61.0520   30.0570   47.5490 C   0  0  0  0  0  0  0  0  0  0  0  0
   61.0010   30.1520   49.0780 C   0  0  0  0  0  0  0  0  0  0  0  0
   61.9950   31.1320   49.5740 N   0  0  0  0  0  0  0  0  0  0  0  0
   62.5370   31.9950   48.5080 C   0  0  0  0  0  0  0  0  0  0  0  0
   61.5400   33.0300   48.0560 C   0  0  0  0  0  0  0  0  0  0  0  0
   61.6470   33.5850   46.7710 C   0  0  0  0  0  0  0  0  0  0  0  0
   60.7710   34.5950   46.3640 C   0  0  0  0  0  0  0  0  0  0  0  0
   59.7920   35.0650   47.2400 C   0  0  0  0  0  0  0  0  0  0  0  0
   59.6860   34.5290   48.5260 C   0  0  0  0  0  0  0  0  0  0  0  0
   60.5640   33.5180   48.9480 C   0  0  0  0  0  0  0  0  0  0  0  0
   60.3960   32.9300   50.3280 C   0  0  0  0  0  0  0  0  0  0  0  0
   61.5120   31.9400   50.7150 C   0  0  0  0  0  0  0  0  0  0  0  0
   59.7540   28.0980   46.5700 C   0  0  0  0  0  0  0  0  0  0  0  0
   60.6740   27.1490   46.8050 C   0  0  0  0  0  0  0  0  0  0  0  0
  1  2  1  0
  2  3  1  0
  3  4  1  0
  4  5  2  0
  4  6  1  0
  6  7  1  0
  7  8  1  0
  8  9  2  0
  9 10  1  0
 10 11  2  0
 11 12  1  0
 12 13  2  0
 12 14  1  0
 14 15  1  0
 15 16  1  0
 16 17  1  0
 11 18  1  0
 18 19  1  0
 19 20  1  0
 20 21  1  0
 21 22  1  0
 22 23  1  0
 23 24  2  0
 24 25  1  0
 25 26  2  0
 26 27  1  0
 27 28  2  0
 28 29  1  0
 29 30  1  0
 18 31  1  0
 31 32  2  0
  7  2  2  0
 31  9  1  0
 17 14  1  0
 30 21  1  0
 28 23  1  0
M  CHG  2   3  -1   6  -1
M  END
>  <UniqueID>  (2217) 
37

>  <SMILES>  (2217) 
C=c1/c(=C\c2[n-]c(=O)[n-]c2O)cc(C(=O)N2CCC2)n1CCN1CCc2ccccc2C1

>  <Energy>  (2217) 
184.031689088047

>  <Genealogy>  (2217) 
C=c1c(=Cc2[n-]c(=O)[n-]c2O)cc(C(=O)N2CCC2)n1CCN1CCc2ccccc2C1 (protonated)
C=c1/c(=C\c2[n-]c(=O)[n-]c2O)cc(C(=O)N2CCC2)n1CCN1CCc2ccccc2C1 (cis-trans isomerization)
C=c1/c(=C\c2[n-]c(=O)[n-]c2O)cc(C(=O)N2CCC2)n1CCN1CCc2ccccc2C1 (3D coordinates assigned)
C=c1/c(=C\c2[n-]c(=O)[n-]c2O)cc(C(=O)N2CCC2)n1CCN1CCc2ccccc2C1 (nonaromatic ring conformer: 184.031689088047 kcal/mol)

>  <smiles>  (2217) 
C=c1c(=Cc2[nH]c(=O)[nH]c2O)cc(C(=O)N2CCC2)n1CCN1CCc2ccccc2C1

>  <score_type>  (2217) 
oracle

>  <origin>  (2217) 
adg

>  <m_score__min__energy>  (2217) 
-14.289999999999999

>  <m_primary>  (2217) 
energy

$$$$
65:0
     RDKit          3D

 36 40  0  0  0  0  0  0  0  0999 V2000
   56.8330   32.5410   52.1450 O   0  0  0  0  0  0  0  0  0  0  0  0
   56.6010   31.1850   52.3560 C   0  0  0  0  0  0  0  0  0  0  0  0
   55.4420   30.6860   52.8150 N   0  0  0  0  0  0  0  0  0  0  0  0
   55.6700   29.3540   52.8060 C   0  0  0  0  0  0  0  0  0  0  0  0
   54.8040   28.5160   53.1680 O   0  0  0  0  0  0  0  0  0  0  0  0
   56.8950   28.9910   52.3680 N   0  0  0  0  0  0  0  0  0  0  0  0
   57.4940   30.1670   52.1110 C   0  0  0  0  0  0  0  0  0  0  0  0
   58.8200   30.2870   51.4900 C   0  0  0  0  0  0  0  0  0  0  0  0
   59.0630   30.6440   50.2140 C   0  0  0  0  0  0  0  0  0  0  0  0
   59.4000   29.7260   49.2330 C   0  0  0  0  0  0  0  0  0  0  0  0
   59.5030   30.4220   48.0450 C   0  0  0  0  0  0  0  0  0  0  0  0
   59.8840   29.8200   46.7510 C   0  0  0  0  0  0  0  0  0  0  0  0
   60.9260   30.2250   46.1660 O   0  0  0  0  0  0  0  0  0  0  0  0
   59.0940   28.7740   46.1520 N   0  0  0  0  0  0  0  0  0  0  0  0
   57.6250   28.8570   46.2120 C   0  0  0  0  0  0  0  0  0  0  0  0
   56.9660   27.9220   45.1960 C   0  0  0  0  0  0  0  0  0  0  0  0
   57.5760   26.5920   45.2790 N   0  0  0  0  0  0  0  0  0  0  0  0
   56.7500   25.4180   45.2810 C   0  0  0  0  0  0  0  0  0  0  0  0
   57.2950   24.1740   44.9270 C   0  0  0  0  0  0  0  0  0  0  0  0
   56.4960   23.0270   44.9240 C   0  0  0  0  0  0  0  0  0  0  0  0
   55.1470   23.1140   45.2780 C   0  0  0  0  0  0  0  0  0  0  0  0
   54.5960   24.3470   45.6380 C   0  0  0  0  0  0  0  0  0  0  0  0
   55.3920   25.4980   45.6440 C   0  0  0  0  0  0  0  0  0  0  0  0
   54.8350   26.7140   46.0250 O   0  0  0  0  0  0  0  0  0  0  0  0
   59.0370   26.4470   45.3270 C   0  0  0  0  0  0  0  0  0  0  0  0
   59.7430   27.8070   45.2560 C   0  0  0  0  0  0  0  0  0  0  0  0
   59.2890   31.7400   48.2580 N   0  0  0  0  0  0  0  0  0  0  0  0
   59.3380   32.7700   47.2540 C   0  0  0  0  0  0  0  0  0  0  0  0
   60.3450   33.7470   47.2960 C   0  0  0  0  0  0  0  0  0  0  0  0
   60.4040   34.7370   46.3100 C   0  0  0  0  0  0  0  0  0  0  0  0
   59.4650   34.7530   45.2760 C   0  0  0  0  0  0  0  0  0  0  0  0
   58.4640   33.7780   45.2250 C   0  0  0  0  0  0  0  0  0  0  0  0
   58.3990   32.7870   46.2090 C   0  0  0  0  0  0  0  0  0  0  0  0
   57.4210   31.8480   46.1530 F   0  0  0  0  0  0  0  0  0  0  0  0
   59.0360   31.9000   49.5830 C   0  0  0  0  0  0  0  0  0  0  0  0
   58.8860   33.1000   50.1650 C   0  0  0  0  0  0  0  0  0  0  0  0
  1  2  1  0
  2  3  1  0
  3  4  1  0
  4  5  2  0
  4  6  1  0
  6  7  1  0
  7  8  1  0
  8  9  2  0
  9 10  1  0
 10 11  2  0
 11 12  1  0
 12 13  2  0
 12 14  1  0
 14 15  1  0
 15 16  1  0
 16 17  1  0
 17 18  1  0
 18 19  2  0
 19 20  1  0
 20 21  2  0
 21 22  1  0
 22 23  2  0
 23 24  1  0
 17 25  1  0
 25 26  1  0
 11 27  1  0
 27 28  1  0
 28 29  2  0
 29 30  1  0
 30 31  2  0
 31 32  1  0
 32 33  2  0
 33 34  1  0
 27 35  1  0
 35 36  2  0
  7  2  2  0
 35  9  1  0
 26 14  1  0
 33 28  1  0
 23 18  1  0
M  CHG  3   3  -1   6  -1  24  -1
M  END
>  <UniqueID>  (2218) 
64

>  <SMILES>  (2218) 
C=c1/c(=C\c2[n-]c(=O)[n-]c2O)cc(C(=O)N2CCN(c3ccccc3[O-])CC2)n1-c1ccccc1F

>  <Energy>  (2218) 
148.36553318186898

>  <Genealogy>  (2218) 
C=c1c(=Cc2[n-]c(=O)[n-]c2O)cc(C(=O)N2CCN(c3ccccc3[O-])CC2)n1-c1ccccc1F (protonated)
C=c1/c(=C\c2[n-]c(=O)[n-]c2O)cc(C(=O)N2CCN(c3ccccc3[O-])CC2)n1-c1ccccc1F (cis-trans isomerization)
C=c1/c(=C\c2[n-]c(=O)[n-]c2O)cc(C(=O)N2CCN(c3ccccc3[O-])CC2)n1-c1ccccc1F (3D coordinates assigned)
C=c1/c(=C\c2[n-]c(=O)[n-]c2O)cc(C(=O)N2CCN(c3ccccc3[O-])CC2)n1-c1ccccc1F (nonaromatic ring conformer: 148.36553318186898 kcal/mol)

>  <smiles>  (2218) 
C=c1c(=Cc2[nH]c(=O)[nH]c2O)cc(C(=O)N2CCN(c3ccccc3O)CC2)n1-c1ccccc1F

>  <score_type>  (2218) 
oracle

>  <origin>  (2218) 
adg

>  <m_score__min__energy>  (2218) 
-15.029999999999999

>  <m_primary>  (2218) 
energy

$$$$
66:0
     RDKit          3D

 35 39  0  0  0  0  0  0  0  0999 V2000
   59.6170   26.9150   48.4280 C   0  0  0  0  0  0  0  0  0  0  0  0
   59.6680   28.1520   47.9150 C   0  0  0  0  0  0  0  0  0  0  0  0
   59.0620   28.6000   46.7300 C   0  0  0  0  0  0  0  0  0  0  0  0
   58.4530   27.9230   45.7360 C   0  0  0  0  0  0  0  0  0  0  0  0
   57.2730   27.0640   45.8920 C   0  0  0  0  0  0  0  0  0  0  0  0
   57.3070   25.8260   46.4210 N   0  0  0  0  0  0  0  0  0  0  0  0
   56.0070   25.4550   46.4250 C   0  0  0  0  0  0  0  0  0  0  0  0
   55.6230   24.3290   46.8370 O   0  0  0  0  0  0  0  0  0  0  0  0
   55.1490   26.3880   45.9530 N   0  0  0  0  0  0  0  0  0  0  0  0
   55.9670   27.4010   45.6250 C   0  0  0  0  0  0  0  0  0  0  0  0
   55.5260   28.6100   45.1000 O   0  0  0  0  0  0  0  0  0  0  0  0
   59.1640   29.9830   46.7400 C   0  0  0  0  0  0  0  0  0  0  0  0
   59.8550   30.3230   47.8830 C   0  0  0  0  0  0  0  0  0  0  0  0
   60.1770   31.6990   48.2990 C   0  0  0  0  0  0  0  0  0  0  0  0
   59.3350   32.3220   49.0030 O   0  0  0  0  0  0  0  0  0  0  0  0
   61.3810   32.3600   47.8580 N   0  0  0  0  0  0  0  0  0  0  0  0
   62.5000   31.5780   47.3000 C   0  0  0  0  0  0  0  0  0  0  0  0
   63.7490   32.4430   47.0720 C   0  0  0  0  0  0  0  0  0  0  0  0
   64.0180   33.3890   48.2620 C   0  0  0  0  0  0  0  0  0  0  0  0
   64.5560   32.6220   49.4480 C   0  0  0  0  0  0  0  0  0  0  0  0
   66.1560   32.6740   49.9680 S   0  0  0  0  0  0  0  0  0  0  0  0
   65.9260   31.5480   51.1950 C   0  0  0  0  0  0  0  0  0  0  0  0
   64.5950   31.1470   51.1580 C   0  0  0  0  0  0  0  0  0  0  0  0
   63.8480   31.7380   50.1890 N   0  0  0  0  0  0  0  0  0  0  0  0
   62.7790   34.2490   48.6370 C   0  0  0  0  0  0  0  0  0  0  0  0
   61.4920   33.8270   47.9100 C   0  0  0  0  0  0  0  0  0  0  0  0
   60.1880   29.2150   48.5840 N   0  0  0  0  0  0  0  0  0  0  0  0
   60.8820   29.1910   49.8830 C   0  0  0  0  0  0  0  0  0  0  0  0
   60.5580   30.4230   50.6900 C   0  0  0  0  0  0  0  0  0  0  0  0
   61.4720   31.2570   50.9360 O   0  0  0  0  0  0  0  0  0  0  0  0
   59.2450   30.6300   51.2440 N   0  0  0  0  0  0  0  0  0  0  0  0
   58.9240   31.7460   52.1150 C   0  0  0  0  0  0  0  0  0  0  0  0
   57.5320   31.4570   52.6610 C   0  0  0  0  0  0  0  0  0  0  0  0
   56.9390   30.3830   51.7530 C   0  0  0  0  0  0  0  0  0  0  0  0
   58.1200   29.7300   51.0460 C   0  0  0  0  0  0  0  0  0  0  0  0
  1  2  2  0
  2  3  1  0
  3  4  2  0
  4  5  1  0
  5  6  1  0
  6  7  1  0
  7  8  2  0
  7  9  1  0
  9 10  1  0
 10 11  1  0
  3 12  1  0
 12 13  2  0
 13 14  1  0
 14 15  2  0
 14 16  1  0
 16 17  1  0
 17 18  1  0
 18 19  1  0
 19 20  1  0
 20 21  1  0
 21 22  1  0
 22 23  2  0
 23 24  1  0
 19 25  1  0
 25 26  1  0
 13 27  1  0
 27 28  1  0
 28 29  1  0
 29 30  2  0
 29 31  1  0
 31 32  1  0
 32 33  1  0
 33 34  1  0
 34 35  1  0
 27  2  1  0
 35 31  1  0
 10  5  2  0
 26 16  1  0
 24 20  2  0
M  CHG  4   6  -1   9  -1  11  -1  24   1
M  END
>  <UniqueID>  (2219) 
65

>  <SMILES>  (2219) 
C=c1/c(=C\c2[n-]c(=O)[n-]c2[O-])cc(C(=O)N2CCC(c3[nH+]ccs3)CC2)n1CC(=O)N1CCCC1

>  <Energy>  (2219) 
171.8775173230636

>  <Genealogy>  (2219) 
C=c1c(=Cc2[n-]c(=O)[n-]c2[O-])cc(C(=O)N2CCC(c3[nH+]ccs3)CC2)n1CC(=O)N1CCCC1 (protonated)
C=c1/c(=C\c2[n-]c(=O)[n-]c2[O-])cc(C(=O)N2CCC(c3[nH+]ccs3)CC2)n1CC(=O)N1CCCC1 (cis-trans isomerization)
C=c1/c(=C\c2[n-]c(=O)[n-]c2[O-])cc(C(=O)N2CCC(c3[nH+]ccs3)CC2)n1CC(=O)N1CCCC1 (3D coordinates assigned)
C=c1/c(=C\c2[n-]c(=O)[n-]c2[O-])cc(C(=O)N2CCC(c3[nH+]ccs3)CC2)n1CC(=O)N1CCCC1 (nonaromatic ring conformer: 171.8775173230636 kcal/mol)

>  <smiles>  (2219) 
C=c1c(=Cc2[nH]c(=O)[nH]c2O)cc(C(=O)N2CCC(c3nccs3)CC2)n1CC(=O)N1CCCC1

>  <score_type>  (2219) 
oracle

>  <origin>  (2219) 
adg

>  <m_score__min__energy>  (2219) 
-15.550000000000001

>  <m_primary>  (2219) 
energy

$$$$
69:0
     RDKit          3D

 28 30  0  0  0  0  0  0  0  0999 V2000
   58.6290   30.8000   45.6950 C   0  0  0  0  0  0  0  0  0  0  0  0
   58.9570   30.0200   46.7370 C   0  0  0  0  0  0  0  0  0  0  0  0
   58.7520   28.6330   46.8350 C   0  0  0  0  0  0  0  0  0  0  0  0
   58.3960   27.7210   45.9080 C   0  0  0  0  0  0  0  0  0  0  0  0
   57.2040   26.8600   45.9630 C   0  0  0  0  0  0  0  0  0  0  0  0
   57.1850   25.6040   46.4480 N   0  0  0  0  0  0  0  0  0  0  0  0
   55.8740   25.2800   46.4230 C   0  0  0  0  0  0  0  0  0  0  0  0
   55.4470   24.1560   46.7950 O   0  0  0  0  0  0  0  0  0  0  0  0
   55.0560   26.2590   45.9790 N   0  0  0  0  0  0  0  0  0  0  0  0
   55.9140   27.2550   45.7060 C   0  0  0  0  0  0  0  0  0  0  0  0
   55.5240   28.5040   45.2390 O   0  0  0  0  0  0  0  0  0  0  0  0
   59.0160   28.2940   48.1490 C   0  0  0  0  0  0  0  0  0  0  0  0
   59.4440   29.4400   48.7810 C   0  0  0  0  0  0  0  0  0  0  0  0
   59.8370   29.5030   50.2260 C   0  0  0  0  0  0  0  0  0  0  0  0
   59.4120   30.4950   47.9320 N   0  0  0  0  0  0  0  0  0  0  0  0
   59.7450   31.8840   48.2940 C   0  0  0  0  0  0  0  0  0  0  0  0
   61.1050   32.2740   47.7560 C   0  0  0  0  0  0  0  0  0  0  0  0
   62.1210   31.3050   47.6830 C   0  0  0  0  0  0  0  0  0  0  0  0
   63.3850   31.6360   47.1930 C   0  0  0  0  0  0  0  0  0  0  0  0
   63.6500   32.9350   46.7650 C   0  0  0  0  0  0  0  0  0  0  0  0
   62.6540   33.9110   46.8330 C   0  0  0  0  0  0  0  0  0  0  0  0
   61.3790   33.5970   47.3420 C   0  0  0  0  0  0  0  0  0  0  0  0
   60.3610   34.5620   47.4000 O   0  0  0  0  0  0  0  0  0  0  0  0
   59.4200   34.8160   46.3950 C   0  0  0  0  0  0  0  0  0  0  0  0
   59.6250   35.7010   45.5220 O   0  0  0  0  0  0  0  0  0  0  0  0
   58.1070   34.1000   46.4310 C   0  0  0  0  0  0  0  0  0  0  0  0
   57.3860   34.3410   45.2380 O   0  0  0  0  0  0  0  0  0  0  0  0
   57.7820   33.4330   44.2340 C   0  0  0  0  0  0  0  0  0  0  0  0
  1  2  2  0
  2  3  1  0
  3  4  2  3
  4  5  1  0
  5  6  1  0
  6  7  1  0
  7  8  2  0
  7  9  1  0
  9 10  1  0
 10 11  1  0
  3 12  1  0
 12 13  2  0
 13 14  1  0
 13 15  1  0
 15 16  1  0
 16 17  1  0
 17 18  2  0
 18 19  1  0
 19 20  2  0
 20 21  1  0
 21 22  2  0
 22 23  1  0
 23 24  1  0
 24 25  2  0
 24 26  1  0
 26 27  1  0
 27 28  1  0
 15  2  1  0
 22 17  1  0
 10  5  2  0
M  CHG  3   6  -1   9  -1  11  -1
M  END
>  <UniqueID>  (2220) 
68

>  <SMILES>  (2220) 
C=c1c(=Cc2[n-]c(=O)[n-]c2[O-])cc(C)n1Cc1ccccc1OC(=O)COC

>  <Energy>  (2220) 
121.52998326051686

>  <Genealogy>  (2220) 
C=c1c(=Cc2[n-]c(=O)[n-]c2[O-])cc(C)n1Cc1ccccc1OC(=O)COC (protonated)
C=c1c(=Cc2[n-]c(=O)[n-]c2[O-])cc(C)n1Cc1ccccc1OC(=O)COC (3D coordinates assigned)
C=c1c(=Cc2[n-]c(=O)[n-]c2[O-])cc(C)n1Cc1ccccc1OC(=O)COC (optimized conformer: 121.52998326051686 kcal/mol)

>  <smiles>  (2220) 
C=c1c(=Cc2[nH]c(=O)[nH]c2O)cc(C)n1Cc1ccccc1OC(=O)COC

>  <score_type>  (2220) 
oracle

>  <origin>  (2220) 
adg

>  <m_score__min__energy>  (2220) 
-15.119999999999999

>  <m_primary>  (2220) 
energy

$$$$
72:0
     RDKit          3D

 35 38  0  0  0  0  0  0  0  0999 V2000
   63.1440   31.8850   50.6410 C   0  0  0  0  0  0  0  0  0  0  0  0
   62.5380   32.5740   49.4450 C   0  0  0  0  0  0  0  0  0  0  0  0
   63.3180   32.7250   48.2870 C   0  0  0  0  0  0  0  0  0  0  0  0
   62.7890   33.3370   47.1500 C   0  0  0  0  0  0  0  0  0  0  0  0
   61.4640   33.7910   47.1440 C   0  0  0  0  0  0  0  0  0  0  0  0
   60.9050   34.4200   45.9890 N   0  0  0  0  0  0  0  0  0  0  0  0
   59.1990   34.5430   45.7020 S   0  0  0  0  0  0  0  0  0  0  0  0
   58.9490   35.6630   44.7320 O   0  0  0  0  0  0  0  0  0  0  0  0
   58.5020   34.8700   46.9930 O   0  0  0  0  0  0  0  0  0  0  0  0
   58.5380   33.0510   45.0370 C   0  0  0  0  0  0  0  0  0  0  0  0
   58.1530   32.9870   43.6910 C   0  0  0  0  0  0  0  0  0  0  0  0
   57.6640   31.7920   43.1590 C   0  0  0  0  0  0  0  0  0  0  0  0
   57.5580   30.6560   43.9640 C   0  0  0  0  0  0  0  0  0  0  0  0
   57.9300   30.7070   45.3190 C   0  0  0  0  0  0  0  0  0  0  0  0
   57.8460   29.5000   46.1740 C   0  0  0  0  0  0  0  0  0  0  0  0
   58.6560   29.3640   47.1290 O   0  0  0  0  0  0  0  0  0  0  0  0
   56.9100   28.4420   45.9150 N   0  0  0  0  0  0  0  0  0  0  0  0
   57.1600   27.1650   45.9750 C   0  0  0  0  0  0  0  0  0  0  0  0
   58.4430   26.6990   45.9730 N   0  0  0  0  0  0  0  0  0  0  0  0
   58.7270   25.3700   46.0220 C   0  0  0  0  0  0  0  0  0  0  0  0
   57.6920   24.4350   46.0670 C   0  0  0  0  0  0  0  0  0  0  0  0
   56.3690   24.8810   46.0590 C   0  0  0  0  0  0  0  0  0  0  0  0
   56.0960   26.2500   46.0090 C   0  0  0  0  0  0  0  0  0  0  0  0
   54.7780   26.6930   45.9960 O   0  0  0  0  0  0  0  0  0  0  0  0
   58.4300   31.9110   45.8450 C   0  0  0  0  0  0  0  0  0  0  0  0
   60.6970   33.6920   48.3080 C   0  0  0  0  0  0  0  0  0  0  0  0
   61.2240   33.0990   49.4640 C   0  0  0  0  0  0  0  0  0  0  0  0
   60.3780   33.0360   50.6720 C   0  0  0  0  0  0  0  0  0  0  0  0
   60.6290   33.8180   51.6280 O   0  0  0  0  0  0  0  0  0  0  0  0
   59.2950   32.0890   50.7800 N   0  0  0  0  0  0  0  0  0  0  0  0
   58.0930   32.4330   51.5470 C   0  0  0  0  0  0  0  0  0  0  0  0
   57.4860   31.1680   52.1620 C   0  0  0  0  0  0  0  0  0  0  0  0
   57.3010   30.1690   51.1760 O   0  0  0  0  0  0  0  0  0  0  0  0
   58.5570   29.7500   50.6820 C   0  0  0  0  0  0  0  0  0  0  0  0
   59.2550   30.8890   49.9340 C   0  0  0  0  0  0  0  0  0  0  0  0
  1  2  1  0
  2  3  2  0
  3  4  1  0
  4  5  2  0
  5  6  1  0
  6  7  1  0
  7  8  2  0
  7  9  2  0
  7 10  1  0
 10 11  2  0
 11 12  1  0
 12 13  2  0
 13 14  1  0
 14 15  1  0
 15 16  2  0
 15 17  1  0
 17 18  2  3
 18 19  1  0
 19 20  1  0
 20 21  2  0
 21 22  1  0
 22 23  2  0
 23 24  1  0
 14 25  2  0
  5 26  1  0
 26 27  2  0
 27 28  1  0
 28 29  2  0
 28 30  1  0
 30 31  1  0
 31 32  1  0
 32 33  1  0
 33 34  1  0
 34 35  1  0
 27  2  1  0
 35 30  1  0
 25 10  1  0
 23 18  1  0
M  CHG  3   6  -1  19  -1  24  -1
M  END
>  <UniqueID>  (2221) 
71

>  <SMILES>  (2221) 
Cc1ccc([N-]S(=O)(=O)c2cccc(C(=O)N=c3[n-]cccc3[O-])c2)cc1C(=O)N1CCOCC1

>  <Energy>  (2221) 
86.11312891226088

>  <Genealogy>  (2221) 
Cc1ccc([N-]S(=O)(=O)c2cccc(C(=O)N=c3[n-]cccc3[O-])c2)cc1C(=O)N1CCOCC1 (protonated)
Cc1ccc([N-]S(=O)(=O)c2cccc(C(=O)N=c3[n-]cccc3[O-])c2)cc1C(=O)N1CCOCC1 (3D coordinates assigned)
Cc1ccc([N-]S(=O)(=O)c2cccc(C(=O)N=c3[n-]cccc3[O-])c2)cc1C(=O)N1CCOCC1 (nonaromatic ring conformer: 86.11312891226088 kcal/mol)

>  <smiles>  (2221) 
Cc1ccc(NS(=O)(=O)c2cccc(C(=O)N=c3[nH]cccc3O)c2)cc1C(=O)N1CCOCC1

>  <score_type>  (2221) 
oracle

>  <origin>  (2221) 
adg

>  <m_score__min__energy>  (2221) 
-17.199999999999999

>  <m_primary>  (2221) 
energy

$$$$
82:0
     RDKit          3D

 32 35  0  0  0  0  0  0  0  0999 V2000
   63.0490   33.3120   51.8290 C   0  0  0  0  0  0  0  0  0  0  0  0
   62.1040   32.7800   52.6170 C   0  0  0  0  0  0  0  0  0  0  0  0
   60.7650   32.2740   52.1470 C   0  0  0  0  0  0  0  0  0  0  0  0
   60.1160   33.2860   51.2850 N   0  0  0  0  0  0  0  0  0  0  0  0
   59.0160   33.9880   51.9810 C   0  0  0  0  0  0  0  0  0  0  0  0
   57.8570   33.0310   52.3140 C   0  0  0  0  0  0  0  0  0  0  0  0
   57.6630   32.0520   51.2390 N   0  0  0  0  0  0  0  0  0  0  0  0
   57.1450   30.7360   51.5080 C   0  0  0  0  0  0  0  0  0  0  0  0
   57.8060   29.7350   51.1270 O   0  0  0  0  0  0  0  0  0  0  0  0
   55.8300   30.5240   52.1650 C   0  0  0  0  0  0  0  0  0  0  0  0
   54.6040   30.5450   51.5260 C   0  0  0  0  0  0  0  0  0  0  0  0
   53.6350   30.3590   52.5000 C   0  0  0  0  0  0  0  0  0  0  0  0
   52.3000   30.3540   52.3050 C   0  0  0  0  0  0  0  0  0  0  0  0
   51.6460   30.7860   51.0550 C   0  0  0  0  0  0  0  0  0  0  0  0
   51.6210   30.0350   49.9400 N   0  0  0  0  0  0  0  0  0  0  0  0
   51.0130   30.8350   49.0360 C   0  0  0  0  0  0  0  0  0  0  0  0
   50.7920   30.4740   47.8510 O   0  0  0  0  0  0  0  0  0  0  0  0
   50.6740   32.0570   49.4980 N   0  0  0  0  0  0  0  0  0  0  0  0
   51.0930   32.0170   50.7730 C   0  0  0  0  0  0  0  0  0  0  0  0
   51.0110   33.0990   51.6420 O   0  0  0  0  0  0  0  0  0  0  0  0
   54.3150   30.2450   53.7140 C   0  0  0  0  0  0  0  0  0  0  0  0
   53.7520   30.0780   54.9230 C   0  0  0  0  0  0  0  0  0  0  0  0
   55.6550   30.3300   53.4980 N   0  0  0  0  0  0  0  0  0  0  0  0
   56.7180   30.2180   54.5110 C   0  0  0  0  0  0  0  0  0  0  0  0
   57.4460   28.8820   54.3820 C   0  0  0  0  0  0  0  0  0  0  0  0
   58.1890   32.3630   49.9060 C   0  0  0  0  0  0  0  0  0  0  0  0
   59.6880   32.7270   49.9760 C   0  0  0  0  0  0  0  0  0  0  0  0
   63.1390   33.1320   50.3710 C   0  0  0  0  0  0  0  0  0  0  0  0
   62.6170   34.2630   49.2430 S   0  0  0  0  0  0  0  0  0  0  0  0
   62.8770   33.3080   47.8840 C   0  0  0  0  0  0  0  0  0  0  0  0
   63.3500   32.0720   48.3050 C   0  0  0  0  0  0  0  0  0  0  0  0
   63.4760   31.9630   49.6960 C   0  0  0  0  0  0  0  0  0  0  0  0
  1  2  2  3
  2  3  1  0
  3  4  1  0
  4  5  1  0
  5  6  1  0
  6  7  1  0
  7  8  1  0
  8  9  2  0
  8 10  1  0
 10 11  2  0
 11 12  1  0
 12 13  2  0
 13 14  1  0
 14 15  1  0
 15 16  1  0
 16 17  2  0
 16 18  1  0
 18 19  1  0
 19 20  1  0
 12 21  1  0
 21 22  2  0
 21 23  1  0
 23 24  1  0
 24 25  1  0
  7 26  1  0
 26 27  1  0
  1 28  1  0
 28 29  1  0
 29 30  1  0
 30 31  2  0
 31 32  1  0
 27  4  1  0
 32 28  2  0
 23 10  1  0
 19 14  2  0
M  CHG  3  15  -1  18  -1  20  -1
M  END
>  <UniqueID>  (2222) 
80

>  <SMILES>  (2222) 
C=c1/c(=C/c2[n-]c(=O)[n-]c2[O-])cc(C(=O)N2CCN(CC=Cc3cccs3)CC2)n1CC

>  <Energy>  (2222) 
169.1100100626396

>  <Genealogy>  (2222) 
C=c1c(=Cc2[n-]c(=O)[n-]c2[O-])cc(C(=O)N2CCN(CC=Cc3cccs3)CC2)n1CC (protonated)
C=c1/c(=C/c2[n-]c(=O)[n-]c2[O-])cc(C(=O)N2CCN(CC=Cc3cccs3)CC2)n1CC (cis-trans isomerization)
C=c1/c(=C/c2[n-]c(=O)[n-]c2[O-])cc(C(=O)N2CCN(CC=Cc3cccs3)CC2)n1CC (3D coordinates assigned)
C=c1/c(=C/c2[n-]c(=O)[n-]c2[O-])cc(C(=O)N2CCN(CC=Cc3cccs3)CC2)n1CC (nonaromatic ring conformer: 169.1100100626396 kcal/mol)

>  <smiles>  (2222) 
C=c1c(=Cc2[nH]c(=O)[nH]c2O)cc(C(=O)N2CCN(CC=Cc3cccs3)CC2)n1CC

>  <score_type>  (2222) 
oracle

>  <origin>  (2222) 
adg

>  <m_score__min__energy>  (2222) 
-18.260000000000002

>  <m_primary>  (2222) 
energy

$$$$
89:0
     RDKit          3D

 28 30  0  0  0  0  0  0  0  0999 V2000
   59.2120   32.9720   50.4960 C   0  0  0  0  0  0  0  0  0  0  0  0
   60.3820   33.3890   50.9870 C   0  0  0  0  0  0  0  0  0  0  0  0
   61.4930   32.4230   51.3230 C   0  0  0  0  0  0  0  0  0  0  0  0
   62.7640   32.7720   50.6410 N   0  0  0  0  0  0  0  0  0  0  0  0
   62.7030   34.1080   49.9880 C   0  0  0  0  0  0  0  0  0  0  0  0
   62.4280   34.0460   48.4730 C   0  0  0  0  0  0  0  0  0  0  0  0
   61.5470   32.9090   48.1440 N   0  0  0  0  0  0  0  0  0  0  0  0
   61.1810   32.9710   46.7100 C   0  0  0  0  0  0  0  0  0  0  0  0
   59.8360   33.6810   46.4570 C   0  0  0  0  0  0  0  0  0  0  0  0
   58.6060   32.8070   46.5300 C   0  0  0  0  0  0  0  0  0  0  0  0
   57.6240   33.2150   47.2070 O   0  0  0  0  0  0  0  0  0  0  0  0
   58.5070   31.5430   45.8480 N   0  0  0  0  0  0  0  0  0  0  0  0
   58.2140   31.3920   44.5380 C   0  0  0  0  0  0  0  0  0  0  0  0
   57.8120   32.5060   43.6160 C   0  0  0  0  0  0  0  0  0  0  0  0
   58.2030   30.0560   44.1950 C   0  0  0  0  0  0  0  0  0  0  0  0
   58.4860   29.3460   45.3540 C   0  0  0  0  0  0  0  0  0  0  0  0
   58.5360   28.0050   45.4720 C   0  0  0  0  0  0  0  0  0  0  0  0
   57.3820   27.1690   45.8460 C   0  0  0  0  0  0  0  0  0  0  0  0
   57.5010   25.9340   46.3650 N   0  0  0  0  0  0  0  0  0  0  0  0
   56.2230   25.5130   46.4730 C   0  0  0  0  0  0  0  0  0  0  0  0
   55.9180   24.3850   46.9390 O   0  0  0  0  0  0  0  0  0  0  0  0
   55.2980   26.3920   46.0310 N   0  0  0  0  0  0  0  0  0  0  0  0
   56.0470   27.4300   45.6270 C   0  0  0  0  0  0  0  0  0  0  0  0
   55.5210   28.5680   45.0250 O   0  0  0  0  0  0  0  0  0  0  0  0
   58.6260   30.2960   46.3710 C   0  0  0  0  0  0  0  0  0  0  0  0
   58.7720   30.0390   47.6810 C   0  0  0  0  0  0  0  0  0  0  0  0
   62.1950   31.6180   48.4800 C   0  0  0  0  0  0  0  0  0  0  0  0
   63.1600   31.7170   49.6840 C   0  0  0  0  0  0  0  0  0  0  0  0
  1  2  2  0
  2  3  1  0
  3  4  1  0
  4  5  1  0
  5  6  1  0
  6  7  1  0
  7  8  1  0
  8  9  1  0
  9 10  1  0
 10 11  2  0
 10 12  1  0
 12 13  1  0
 13 14  1  0
 13 15  2  0
 15 16  1  0
 16 17  2  0
 17 18  1  0
 18 19  1  0
 19 20  1  0
 20 21  2  0
 20 22  1  0
 22 23  1  0
 23 24  1  0
 16 25  1  0
 25 26  2  0
  7 27  1  0
 27 28  1  0
 28  4  1  0
 25 12  1  0
 23 18  2  0
M  CHG  4   4   1  19  -1  22  -1  24  -1
M  END
>  <UniqueID>  (2223) 
87

>  <SMILES>  (2223) 
C=CC[NH+]1CCN(CCC(=O)n2c(C)c/c(=C\c3[n-]c(=O)[n-]c3[O-])c2=C)CC1

>  <Energy>  (2223) 
130.79640078154608

>  <Genealogy>  (2223) 
C=CC[NH+]1CCN(CCC(=O)n2c(C)cc(=Cc3[n-]c(=O)[n-]c3[O-])c2=C)CC1 (protonated)
C=CC[NH+]1CCN(CCC(=O)n2c(C)c/c(=C\c3[n-]c(=O)[n-]c3[O-])c2=C)CC1 (cis-trans isomerization)
C=CC[NH+]1CCN(CCC(=O)n2c(C)c/c(=C\c3[n-]c(=O)[n-]c3[O-])c2=C)CC1 (3D coordinates assigned)
C=CC[NH+]1CCN(CCC(=O)n2c(C)c/c(=C\c3[n-]c(=O)[n-]c3[O-])c2=C)CC1 (nonaromatic ring conformer: 130.79640078154608 kcal/mol)

>  <smiles>  (2223) 
C=CCN1CCN(CCC(=O)n2c(C)cc(=Cc3[nH]c(=O)[nH]c3O)c2=C)CC1

>  <score_type>  (2223) 
oracle

>  <origin>  (2223) 
adg

>  <m_score__min__energy>  (2223) 
-14.210000000000001

>  <m_primary>  (2223) 
energy

$$$$
11:0
     RDKit          3D

 30 33  0  0  0  0  0  0  0  0999 V2000
   59.5910   27.2560   47.8670 C   0  0  0  0  0  0  0  0  0  0  0  0
   58.9910   28.2420   47.1790 C   0  0  0  0  0  0  0  0  0  0  0  0
   58.2940   28.0960   45.9700 C   0  0  0  0  0  0  0  0  0  0  0  0
   57.8610   26.9950   45.3220 C   0  0  0  0  0  0  0  0  0  0  0  0
   57.1950   25.8390   45.9440 C   0  0  0  0  0  0  0  0  0  0  0  0
   57.8310   24.7600   46.4340 N   0  0  0  0  0  0  0  0  0  0  0  0
   56.8400   24.0520   47.0180 C   0  0  0  0  0  0  0  0  0  0  0  0
   57.0390   22.9470   47.5870 O   0  0  0  0  0  0  0  0  0  0  0  0
   55.6190   24.6270   46.9550 N   0  0  0  0  0  0  0  0  0  0  0  0
   55.8660   25.7640   46.2840 C   0  0  0  0  0  0  0  0  0  0  0  0
   54.8980   26.7170   45.9940 O   0  0  0  0  0  0  0  0  0  0  0  0
   58.0480   29.3720   45.5070 C   0  0  0  0  0  0  0  0  0  0  0  0
   58.5220   30.2530   46.4590 C   0  0  0  0  0  0  0  0  0  0  0  0
   58.3670   31.7330   46.3760 C   0  0  0  0  0  0  0  0  0  0  0  0
   57.7770   32.3410   47.3120 O   0  0  0  0  0  0  0  0  0  0  0  0
   58.8780   32.4720   45.2290 N   0  0  0  0  0  0  0  0  0  0  0  0
   57.7710   33.0510   44.4380 C   0  0  0  0  0  0  0  0  0  0  0  0
   57.1060   34.2470   45.1610 C   0  0  0  0  0  0  0  0  0  0  0  0
   57.8040   34.6390   46.3270 O   0  0  0  0  0  0  0  0  0  0  0  0
   59.1670   34.8460   46.0230 C   0  0  0  0  0  0  0  0  0  0  0  0
   59.8540   33.5270   45.5980 C   0  0  0  0  0  0  0  0  0  0  0  0
   59.0970   29.5690   47.4860 N   0  0  0  0  0  0  0  0  0  0  0  0
   59.6260   30.1650   48.7280 C   0  0  0  0  0  0  0  0  0  0  0  0
   60.7060   31.1720   48.4200 C   0  0  0  0  0  0  0  0  0  0  0  0
   61.7470   30.8430   47.5370 C   0  0  0  0  0  0  0  0  0  0  0  0
   62.7420   31.7780   47.2380 C   0  0  0  0  0  0  0  0  0  0  0  0
   62.7120   33.0540   47.8190 C   0  0  0  0  0  0  0  0  0  0  0  0
   63.7630   34.0670   47.4770 C   0  0  0  0  0  0  0  0  0  0  0  0
   61.6530   33.3970   48.6730 C   0  0  0  0  0  0  0  0  0  0  0  0
   60.6580   32.4610   48.9730 C   0  0  0  0  0  0  0  0  0  0  0  0
  1  2  2  0
  2  3  1  0
  3  4  2  3
  4  5  1  0
  5  6  1  0
  6  7  1  0
  7  8  2  0
  7  9  1  0
  9 10  1  0
 10 11  1  0
  3 12  1  0
 12 13  2  0
 13 14  1  0
 14 15  2  0
 14 16  1  0
 16 17  1  0
 17 18  1  0
 18 19  1  0
 19 20  1  0
 20 21  1  0
 13 22  1  0
 22 23  1  0
 23 24  1  0
 24 25  2  0
 25 26  1  0
 26 27  2  0
 27 28  1  0
 27 29  1  0
 29 30  2  0
 22  2  1  0
 30 24  1  0
 10  5  2  0
 21 16  1  0
M  CHG  4   6  -1   9  -1  11  -1  16   1
M  END
>  <UniqueID>  (2224) 
12

>  <SMILES>  (2224) 
C=c1c(=Cc2[n-]c(=O)[n-]c2[O-])cc(C(=O)[NH+]2CCOCC2)n1Cc1ccc(C)cc1

>  <Energy>  (2224) 
139.64606128417904

>  <Genealogy>  (2224) 
C=c1c(=Cc2[n-]c(=O)[n-]c2[O-])cc(C(=O)[NH+]2CCOCC2)n1Cc1ccc(C)cc1 (protonated)
C=c1c(=Cc2[n-]c(=O)[n-]c2[O-])cc(C(=O)[NH+]2CCOCC2)n1Cc1ccc(C)cc1 (3D coordinates assigned)
C=c1c(=Cc2[n-]c(=O)[n-]c2[O-])cc(C(=O)[NH+]2CCOCC2)n1Cc1ccc(C)cc1 (nonaromatic ring conformer: 139.64606128417904 kcal/mol)

>  <smiles>  (2224) 
C=c1c(=Cc2[nH]c(=O)[nH]c2O)cc(C(=O)N2CCOCC2)n1Cc1ccc(C)cc1

>  <score_type>  (2224) 
oracle

>  <origin>  (2224) 
adg

>  <m_score__min__energy>  (2224) 
-15.210000000000001

>  <m_primary>  (2224) 
energy

$$$$
15:0
     RDKit          3D

 35 38  0  0  0  0  0  0  0  0999 V2000
   57.6970   25.6900   43.4120 C   0  0  0  0  0  0  0  0  0  0  0  0
   57.8950   26.0040   44.7040 C   0  0  0  0  0  0  0  0  0  0  0  0
   57.4580   25.2650   45.8170 C   0  0  0  0  0  0  0  0  0  0  0  0
   56.6100   24.2220   45.9140 C   0  0  0  0  0  0  0  0  0  0  0  0
   55.1610   24.2680   45.6590 C   0  0  0  0  0  0  0  0  0  0  0  0
   54.4250   23.2260   45.2280 N   0  0  0  0  0  0  0  0  0  0  0  0
   53.2090   23.7740   45.0110 C   0  0  0  0  0  0  0  0  0  0  0  0
   52.2250   23.1000   44.6090 O   0  0  0  0  0  0  0  0  0  0  0  0
   53.1340   25.1010   45.2500 N   0  0  0  0  0  0  0  0  0  0  0  0
   54.3820   25.3990   45.6460 C   0  0  0  0  0  0  0  0  0  0  0  0
   54.8000   26.6790   45.9880 O   0  0  0  0  0  0  0  0  0  0  0  0
   58.0600   25.8380   46.9230 C   0  0  0  0  0  0  0  0  0  0  0  0
   58.7720   26.9280   46.4720 C   0  0  0  0  0  0  0  0  0  0  0  0
   59.5460   27.8580   47.3570 C   0  0  0  0  0  0  0  0  0  0  0  0
   58.6810   27.0350   45.1260 N   0  0  0  0  0  0  0  0  0  0  0  0
   59.3520   28.0710   44.3210 C   0  0  0  0  0  0  0  0  0  0  0  0
   58.9160   29.4600   44.7470 C   0  0  0  0  0  0  0  0  0  0  0  0
   59.7440   30.1890   45.6190 C   0  0  0  0  0  0  0  0  0  0  0  0
   59.3760   31.4580   46.0640 C   0  0  0  0  0  0  0  0  0  0  0  0
   58.1640   32.0350   45.6620 C   0  0  0  0  0  0  0  0  0  0  0  0
   57.7860   33.3810   46.1740 C   0  0  0  0  0  0  0  0  0  0  0  0
   56.6700   33.8650   45.8320 O   0  0  0  0  0  0  0  0  0  0  0  0
   58.6710   34.1620   47.0210 N   0  0  2  0  0  0  0  0  0  0  0  0
   59.8620   34.6330   46.2450 C   0  0  0  0  0  0  0  0  0  0  0  0
   61.1390   33.8350   46.5470 C   0  0  0  0  0  0  0  0  0  0  0  0
   61.4180   33.9110   47.9810 N   0  0  0  0  0  0  0  0  0  0  0  0
   62.7600   34.2220   48.4890 C   0  0  0  0  0  0  0  0  0  0  0  0
   63.7050   33.0320   48.3030 C   0  0  0  0  0  0  0  0  0  0  0  0
   63.7780   32.6660   46.9520 O   0  0  0  0  0  0  0  0  0  0  0  0
   60.2960   33.7600   48.8590 C   0  0  0  0  0  0  0  0  0  0  0  0
   60.4200   33.9000   50.1060 O   0  0  0  0  0  0  0  0  0  0  0  0
   58.9700   33.3900   48.2630 C   0  0  0  0  0  0  0  0  0  0  0  0
   57.3150   31.3020   44.8140 C   0  0  0  0  0  0  0  0  0  0  0  0
   57.6720   30.0200   44.3570 C   0  0  0  0  0  0  0  0  0  0  0  0
   56.7050   29.2730   43.4740 C   0  0  0  0  0  0  0  0  0  0  0  0
  1  2  2  0
  2  3  1  0
  3  4  2  3
  4  5  1  0
  5  6  1  0
  6  7  1  0
  7  8  2  0
  7  9  1  0
  9 10  1  0
 10 11  1  0
  3 12  1  0
 12 13  2  0
 13 14  1  0
 13 15  1  0
 15 16  1  0
 16 17  1  0
 17 18  2  0
 18 19  1  0
 19 20  2  0
 20 21  1  0
 21 22  2  0
 23 21  1  6
 23 24  1  0
 24 25  1  0
 25 26  1  0
 26 27  1  0
 27 28  1  0
 28 29  1  0
 26 30  1  0
 30 31  2  0
 30 32  1  0
 20 33  1  0
 33 34  2  0
 34 35  1  0
 15  2  1  0
 34 17  1  0
 10  5  2  0
 32 23  1  0
M  CHG  4   6  -1   9  -1  11  -1  23   1
M  END
>  <UniqueID>  (2225) 
15

>  <SMILES>  (2225) 
C=c1c(=Cc2[n-]c(=O)[n-]c2[O-])cc(C)n1Cc1ccc(C(=O)[N@@H+]2CCN(CCO)C(=O)C2)cc1C

>  <Energy>  (2225) 
145.87390276346989

>  <Genealogy>  (2225) 
C=c1c(=Cc2[n-]c(=O)[n-]c2[O-])cc(C)n1Cc1ccc(C(=O)[NH+]2CCN(CCO)C(=O)C2)cc1C (protonated)
C=c1c(=Cc2[n-]c(=O)[n-]c2[O-])cc(C)n1Cc1ccc(C(=O)[N@@H+]2CCN(CCO)C(=O)C2)cc1C (chirality)
C=c1c(=Cc2[n-]c(=O)[n-]c2[O-])cc(C)n1Cc1ccc(C(=O)[N@@H+]2CCN(CCO)C(=O)C2)cc1C (3D coordinates assigned)
C=c1c(=Cc2[n-]c(=O)[n-]c2[O-])cc(C)n1Cc1ccc(C(=O)[N@@H+]2CCN(CCO)C(=O)C2)cc1C (nonaromatic ring conformer: 145.87390276346989 kcal/mol)

>  <smiles>  (2225) 
C=c1c(=Cc2[nH]c(=O)[nH]c2O)cc(C)n1Cc1ccc(C(=O)N2CCN(CCO)C(=O)C2)cc1C

>  <score_type>  (2225) 
oracle

>  <origin>  (2225) 
adg

>  <m_score__min__energy>  (2225) 
-16.870000000000001

>  <m_primary>  (2225) 
energy

$$$$
16:0
     RDKit          3D

 31 34  0  0  0  0  0  0  0  0999 V2000
   57.0230   28.6720   42.5510 O   0  0  0  0  0  0  0  0  0  0  0  0
   56.8490   29.5270   43.4600 C   0  0  0  0  0  0  0  0  0  0  0  0
   56.1110   29.1330   44.7150 C   0  0  0  0  0  0  0  0  0  0  0  0
   56.7790   27.9850   45.4130 C   0  0  0  0  0  0  0  0  0  0  0  0
   58.4450   27.8260   45.6330 S   0  0  0  0  0  0  0  0  0  0  0  0
   58.2810   26.3760   46.4650 C   0  0  0  0  0  0  0  0  0  0  0  0
   59.2430   25.7120   46.9300 O   0  0  0  0  0  0  0  0  0  0  0  0
   56.9940   25.9900   46.5900 N   0  0  0  0  0  0  0  0  0  0  0  0
   56.1570   26.8850   46.0040 C   0  0  0  0  0  0  0  0  0  0  0  0
   54.7800   26.6930   45.9960 O   0  0  0  0  0  0  0  0  0  0  0  0
   57.2020   30.8910   43.1920 N   0  0  0  0  0  0  0  0  0  0  0  0
   57.8550   31.7910   44.0960 C   0  0  0  0  0  0  0  0  0  0  0  0
   58.1300   31.3670   45.4000 C   0  0  0  0  0  0  0  0  0  0  0  0
   58.7390   32.2360   46.3120 C   0  0  0  0  0  0  0  0  0  0  0  0
   59.0550   33.5520   45.9370 C   0  0  0  0  0  0  0  0  0  0  0  0
   59.7160   34.4600   46.9000 C   0  0  0  0  0  0  0  0  0  0  0  0
   59.2160   35.5980   47.1130 O   0  0  0  0  0  0  0  0  0  0  0  0
   60.9180   34.0760   47.5950 N   0  0  0  0  0  0  0  0  0  0  0  0
   62.0120   33.4300   46.8500 C   0  0  0  0  0  0  0  0  0  0  0  0
   63.3510   33.5680   47.5810 C   0  0  0  0  0  0  0  0  0  0  0  0
   63.2100   33.1820   48.9940 N   0  0  0  0  0  0  0  0  0  0  0  0
   64.3050   32.5240   49.6720 C   0  0  0  0  0  0  0  0  0  0  0  0
   64.0920   31.3990   50.4930 C   0  0  0  0  0  0  0  0  0  0  0  0
   65.1770   30.7930   51.1320 C   0  0  0  0  0  0  0  0  0  0  0  0
   66.4630   31.3020   50.9500 C   0  0  0  0  0  0  0  0  0  0  0  0
   66.6450   32.4150   50.1290 C   0  0  0  0  0  0  0  0  0  0  0  0
   65.5780   32.9930   49.5190 N   0  0  0  0  0  0  0  0  0  0  0  0
   62.0160   33.6040   49.7470 C   0  0  0  0  0  0  0  0  0  0  0  0
   61.1550   34.5880   48.9480 C   0  0  0  0  0  0  0  0  0  0  0  0
   58.7650   33.9780   44.6290 C   0  0  0  0  0  0  0  0  0  0  0  0
   58.1530   33.1090   43.7220 C   0  0  0  0  0  0  0  0  0  0  0  0
  1  2  2  0
  2  3  1  0
  3  4  1  0
  4  5  1  0
  5  6  1  0
  6  7  2  0
  6  8  1  0
  8  9  1  0
  9 10  1  0
  2 11  1  0
 11 12  1  0
 12 13  2  0
 13 14  1  0
 14 15  2  0
 15 16  1  0
 16 17  2  0
 16 18  1  0
 18 19  1  0
 19 20  1  0
 20 21  1  0
 21 22  1  0
 22 23  2  0
 23 24  1  0
 24 25  2  0
 25 26  1  0
 26 27  2  0
 21 28  1  0
 28 29  1  0
 15 30  1  0
 30 31  2  0
  9  4  2  0
 31 12  1  0
 29 18  1  0
 27 22  1  0
M  CHG  3   8  -1  10  -1  11  -1
M  END
>  <UniqueID>  (2226) 
16

>  <SMILES>  (2226) 
O=C(Cc1sc(=O)[n-]c1[O-])[N-]c1ccc(C(=O)N2CCN(c3ccccn3)CC2)cc1

>  <Energy>  (2226) 
96.00892721723444

>  <Genealogy>  (2226) 
O=C(Cc1sc(=O)[n-]c1[O-])[N-]c1ccc(C(=O)N2CCN(c3ccccn3)CC2)cc1 (protonated)
O=C(Cc1sc(=O)[n-]c1[O-])[N-]c1ccc(C(=O)N2CCN(c3ccccn3)CC2)cc1 (3D coordinates assigned)
O=C(Cc1sc(=O)[n-]c1[O-])[N-]c1ccc(C(=O)N2CCN(c3ccccn3)CC2)cc1 (nonaromatic ring conformer: 96.00892721723444 kcal/mol)

>  <smiles>  (2226) 
O=C(Cc1sc(=O)[nH]c1O)Nc1ccc(C(=O)N2CCN(c3ccccn3)CC2)cc1

>  <score_type>  (2226) 
oracle

>  <origin>  (2226) 
adg

>  <m_score__min__energy>  (2226) 
-16.609999999999999

>  <m_primary>  (2226) 
energy

$$$$
25:0
     RDKit          3D

 30 33  0  0  0  0  0  0  0  0999 V2000
   59.2830   34.4510   44.8410 O   0  0  0  0  0  0  0  0  0  0  0  0
   58.3840   33.8760   45.5110 C   0  0  0  0  0  0  0  0  0  0  0  0
   57.0910   33.5090   44.8570 C   0  0  0  0  0  0  0  0  0  0  0  0
   56.7580   32.1040   45.0820 N   0  0  0  0  0  0  0  0  0  0  0  0
   57.0240   30.9960   44.2080 C   0  0  0  0  0  0  0  0  0  0  0  0
   56.9020   31.1720   42.9680 O   0  0  0  0  0  0  0  0  0  0  0  0
   57.4650   29.6690   44.6990 C   0  0  0  0  0  0  0  0  0  0  0  0
   58.8300   29.3970   44.8750 C   0  0  0  0  0  0  0  0  0  0  0  0
   59.2540   28.1530   45.3420 C   0  0  0  0  0  0  0  0  0  0  0  0
   58.3170   27.1740   45.6920 C   0  0  0  0  0  0  0  0  0  0  0  0
   58.7410   25.9270   46.1790 C   0  0  0  0  0  0  0  0  0  0  0  0
   57.8030   24.9680   46.5660 C   0  0  0  0  0  0  0  0  0  0  0  0
   56.4380   25.2450   46.4750 C   0  0  0  0  0  0  0  0  0  0  0  0
   56.0010   26.4780   45.9830 C   0  0  0  0  0  0  0  0  0  0  0  0
   56.9320   27.4520   45.5760 C   0  0  0  0  0  0  0  0  0  0  0  0
   56.5130   28.6960   45.0660 C   0  0  0  0  0  0  0  0  0  0  0  0
   55.1540   28.9660   44.9160 O   0  0  0  0  0  0  0  0  0  0  0  0
   58.5620   33.6320   46.9090 N   0  0  0  0  0  0  0  0  0  0  0  0
   59.1720   34.5850   47.8280 C   0  0  0  0  0  0  0  0  0  0  0  0
   60.5980   34.2190   48.1020 C   0  0  0  0  0  0  0  0  0  0  0  0
   61.4120   33.8450   47.0780 N   0  0  0  0  0  0  0  0  0  0  0  0
   62.6960   33.4640   47.2970 C   0  0  0  0  0  0  0  0  0  0  0  0
   63.4150   33.1270   46.3200 O   0  0  0  0  0  0  0  0  0  0  0  0
   63.2030   33.4470   48.6070 C   0  0  0  0  0  0  0  0  0  0  0  0
   64.5210   33.0570   48.9030 C   0  0  0  0  0  0  0  0  0  0  0  0
   64.9800   33.0900   50.2240 C   0  0  0  0  0  0  0  0  0  0  0  0
   64.1310   33.5080   51.2530 C   0  0  0  0  0  0  0  0  0  0  0  0
   62.8160   33.8860   50.9690 C   0  0  0  0  0  0  0  0  0  0  0  0
   62.3470   33.8570   49.6520 C   0  0  0  0  0  0  0  0  0  0  0  0
   61.0710   34.2260   49.3750 N   0  0  0  0  0  0  0  0  0  0  0  0
  1  2  2  0
  2  3  1  0
  3  4  1  0
  4  5  1  0
  5  6  2  0
  5  7  1  0
  7  8  2  0
  8  9  1  0
  9 10  2  0
 10 11  1  0
 11 12  2  0
 12 13  1  0
 13 14  2  0
 14 15  1  0
 15 16  2  0
 16 17  1  0
  2 18  1  0
 18 19  1  0
 19 20  1  0
 20 21  2  0
 21 22  1  0
 22 23  2  0
 22 24  1  0
 24 25  2  0
 25 26  1  0
 26 27  2  0
 27 28  1  0
 28 29  2  0
 29 30  1  0
 16  7  1  0
 30 20  1  0
 15 10  1  0
 29 24  1  0
M  CHG  4   4  -1  17  -1  18  -1  30  -1
M  END
>  <UniqueID>  (2227) 
24

>  <SMILES>  (2227) 
O=C(C[N-]C(=O)c1ccc2ccccc2c1[O-])[N-]Cc1nc(=O)c2ccccc2[n-]1

>  <Energy>  (2227) 
51.77082768833407

>  <Genealogy>  (2227) 
O=C(C[N-]C(=O)c1ccc2ccccc2c1[O-])[N-]Cc1nc(=O)c2ccccc2[n-]1 (protonated)
O=C(C[N-]C(=O)c1ccc2ccccc2c1[O-])[N-]Cc1nc(=O)c2ccccc2[n-]1 (3D coordinates assigned)
O=C(C[N-]C(=O)c1ccc2ccccc2c1[O-])[N-]Cc1nc(=O)c2ccccc2[n-]1 (optimized conformer: 51.77082768833407 kcal/mol)

>  <smiles>  (2227) 
O=C(CNC(=O)c1ccc2ccccc2c1O)NCc1nc(=O)c2ccccc2[nH]1

>  <score_type>  (2227) 
oracle

>  <origin>  (2227) 
adg

>  <m_score__min__energy>  (2227) 
-16.199999999999999

>  <m_primary>  (2227) 
energy

$$$$
35:0
     RDKit          3D

 37 41  0  0  0  0  0  0  0  0999 V2000
   54.2200   30.0930   54.6880 C   0  0  0  0  0  0  0  0  0  0  0  0
   54.6540   30.3940   53.4560 C   0  0  0  0  0  0  0  0  0  0  0  0
   53.8900   30.5200   52.2950 C   0  0  0  0  0  0  0  0  0  0  0  0
   52.5530   30.4220   52.1870 C   0  0  0  0  0  0  0  0  0  0  0  0
   51.8040   30.8350   50.9850 C   0  0  0  0  0  0  0  0  0  0  0  0
   51.7400   30.0910   49.8650 N   0  0  0  0  0  0  0  0  0  0  0  0
   51.0220   30.8590   49.0160 C   0  0  0  0  0  0  0  0  0  0  0  0
   50.7360   30.4930   47.8460 O   0  0  0  0  0  0  0  0  0  0  0  0
   50.6470   32.0560   49.5160 N   0  0  0  0  0  0  0  0  0  0  0  0
   51.1530   32.0300   50.7590 C   0  0  0  0  0  0  0  0  0  0  0  0
   51.0700   33.1010   51.6420 O   0  0  0  0  0  0  0  0  0  0  0  0
   54.7040   30.8150   51.2570 N   0  0  0  0  0  0  0  0  0  0  0  0
   55.9340   30.8530   51.8020 C   0  0  0  0  0  0  0  0  0  0  0  0
   56.9700   31.0970   51.1270 O   0  0  0  0  0  0  0  0  0  0  0  0
   55.9500   30.6050   53.1280 N   0  0  0  0  0  0  0  0  0  0  0  0
   57.1340   30.5530   53.9960 C   0  0  0  0  0  0  0  0  0  0  0  0
   58.4080   30.4750   53.1900 C   0  0  0  0  0  0  0  0  0  0  0  0
   59.3580   31.5090   53.2350 C   0  0  0  0  0  0  0  0  0  0  0  0
   60.5460   31.4080   52.5050 C   0  0  0  0  0  0  0  0  0  0  0  0
   60.8240   30.2540   51.7640 C   0  0  0  0  0  0  0  0  0  0  0  0
   62.0710   30.1720   50.9780 C   0  0  0  0  0  0  0  0  0  0  0  0
   62.9970   29.4500   51.4450 O   0  0  0  0  0  0  0  0  0  0  0  0
   62.3070   30.9340   49.7530 N   0  0  0  0  0  0  0  0  0  0  0  0
   62.5980   32.3740   49.9460 C   0  0  0  0  0  0  0  0  0  0  0  0
   61.3550   33.1850   50.3710 C   0  0  0  0  0  0  0  0  0  0  0  0
   60.1960   32.9780   49.4720 N   0  0  0  0  0  0  0  0  0  0  0  0
   60.3100   33.7150   48.1930 C   0  0  0  0  0  0  0  0  0  0  0  0
   59.2950   33.2230   47.1940 C   0  0  0  0  0  0  0  0  0  0  0  0
   58.0200   33.8110   47.1230 C   0  0  0  0  0  0  0  0  0  0  0  0
   57.0810   33.3450   46.1990 C   0  0  0  0  0  0  0  0  0  0  0  0
   57.4050   32.2880   45.3430 C   0  0  0  0  0  0  0  0  0  0  0  0
   58.6690   31.6960   45.4090 C   0  0  0  0  0  0  0  0  0  0  0  0
   59.6160   32.1640   46.3260 C   0  0  0  0  0  0  0  0  0  0  0  0
   59.9310   31.5390   49.2670 C   0  0  0  0  0  0  0  0  0  0  0  0
   61.1840   30.7770   48.8000 C   0  0  0  0  0  0  0  0  0  0  0  0
   59.8690   29.2300   51.6990 C   0  0  0  0  0  0  0  0  0  0  0  0
   58.6760   29.3330   52.4200 C   0  0  0  0  0  0  0  0  0  0  0  0
  1  2  2  0
  2  3  1  0
  3  4  2  0
  4  5  1  0
  5  6  1  0
  6  7  1  0
  7  8  2  0
  7  9  1  0
  9 10  1  0
 10 11  1  0
  3 12  1  0
 12 13  1  0
 13 14  2  0
 13 15  1  0
 15 16  1  0
 16 17  1  0
 17 18  2  0
 18 19  1  0
 19 20  2  0
 20 21  1  0
 21 22  2  0
 21 23  1  0
 23 24  1  0
 24 25  1  0
 25 26  1  0
 26 27  1  0
 27 28  1  0
 28 29  2  0
 29 30  1  0
 30 31  2  0
 31 32  1  0
 32 33  2  0
 26 34  1  0
 34 35  1  0
 20 36  1  0
 36 37  2  0
 15  2  1  0
 37 17  1  0
 10  5  2  0
 35 23  1  0
 33 28  1  0
M  CHG  5   6  -1   9  -1  11  -1  12  -1  23   1
M  END
>  <UniqueID>  (2228) 
33

>  <SMILES>  (2228) 
C=c1/c(=C/c2[n-]c(=O)[n-]c2[O-])[n-]c(=O)n1Cc1ccc(C(=O)[NH+]2CCN(Cc3ccccc3)CC2)cc1

>  <Energy>  (2228) 
153.87466747602306

>  <Genealogy>  (2228) 
C=c1c(=Cc2[n-]c(=O)[n-]c2[O-])[n-]c(=O)n1Cc1ccc(C(=O)[NH+]2CCN(Cc3ccccc3)CC2)cc1 (protonated)
C=c1/c(=C/c2[n-]c(=O)[n-]c2[O-])[n-]c(=O)n1Cc1ccc(C(=O)[NH+]2CCN(Cc3ccccc3)CC2)cc1 (cis-trans isomerization)
C=c1/c(=C/c2[n-]c(=O)[n-]c2[O-])[n-]c(=O)n1Cc1ccc(C(=O)[NH+]2CCN(Cc3ccccc3)CC2)cc1 (3D coordinates assigned)
C=c1/c(=C/c2[n-]c(=O)[n-]c2[O-])[n-]c(=O)n1Cc1ccc(C(=O)[NH+]2CCN(Cc3ccccc3)CC2)cc1 (nonaromatic ring conformer: 153.87466747602306 kcal/mol)

>  <smiles>  (2228) 
C=c1c(=Cc2[nH]c(=O)[nH]c2O)[nH]c(=O)n1Cc1ccc(C(=O)N2CCN(Cc3ccccc3)CC2)cc1

>  <score_type>  (2228) 
oracle

>  <origin>  (2228) 
adg

>  <m_score__min__energy>  (2228) 
-18.690000000000001

>  <m_primary>  (2228) 
energy

$$$$
40:0
     RDKit          3D

 24 26  0  0  0  0  0  0  0  0999 V2000
   60.3370   29.5620   45.6180 C   0  0  0  0  0  0  0  0  0  0  0  0
   59.1260   28.9660   45.5610 C   0  0  0  0  0  0  0  0  0  0  0  0
   59.0220   27.5750   45.8060 C   0  0  0  0  0  0  0  0  0  0  0  0
   60.0600   26.8960   46.0450 O   0  0  0  0  0  0  0  0  0  0  0  0
   57.7500   26.9610   45.7480 C   0  0  0  0  0  0  0  0  0  0  0  0
   57.5210   25.6500   45.9800 C   0  0  0  0  0  0  0  0  0  0  0  0
   56.4010   24.8570   45.4370 C   0  0  0  0  0  0  0  0  0  0  0  0
   56.6760   23.7160   44.6710 C   0  0  0  0  0  0  0  0  0  0  0  0
   55.6310   22.9680   44.1170 C   0  0  0  0  0  0  0  0  0  0  0  0
   55.9110   21.8300   43.3710 O   0  0  0  0  0  0  0  0  0  0  0  0
   54.3060   23.3680   44.3130 C   0  0  0  0  0  0  0  0  0  0  0  0
   54.0240   24.5190   45.0530 C   0  0  0  0  0  0  0  0  0  0  0  0
   55.0650   25.2720   45.6080 C   0  0  0  0  0  0  0  0  0  0  0  0
   54.7680   26.4290   46.3210 O   0  0  0  0  0  0  0  0  0  0  0  0
   56.6800   27.7240   45.4140 N   0  0  0  0  0  0  0  0  0  0  0  0
   56.7780   29.0520   45.1700 C   0  0  0  0  0  0  0  0  0  0  0  0
   55.7330   29.6950   44.8750 O   0  0  0  0  0  0  0  0  0  0  0  0
   57.9880   29.6860   45.2520 N   0  0  0  0  0  0  0  0  0  0  0  0
   58.0320   31.1060   45.0070 C   0  0  0  0  0  0  0  0  0  0  0  0
   58.0560   32.0080   46.0810 C   0  0  0  0  0  0  0  0  0  0  0  0
   58.1000   33.3840   45.8410 C   0  0  0  0  0  0  0  0  0  0  0  0
   58.1240   33.8660   44.5280 C   0  0  0  0  0  0  0  0  0  0  0  0
   58.1030   32.9710   43.4530 C   0  0  0  0  0  0  0  0  0  0  0  0
   58.0600   31.5930   43.6910 C   0  0  0  0  0  0  0  0  0  0  0  0
  1  2  2  0
  2  3  1  0
  3  4  2  0
  3  5  1  0
  5  6  2  3
  6  7  1  0
  7  8  2  0
  8  9  1  0
  9 10  1  0
  9 11  2  0
 11 12  1  0
 12 13  2  0
 13 14  1  0
  5 15  1  0
 15 16  1  0
 16 17  2  0
 16 18  1  0
 18 19  1  0
 19 20  2  0
 20 21  1  0
 21 22  2  0
 22 23  1  0
 23 24  2  0
 18  2  1  0
 24 19  1  0
 13  7  1  0
M  CHG  3  10  -1  14  -1  15  -1
M  END
>  <UniqueID>  (2229) 
38

>  <SMILES>  (2229) 
C=c1c(=O)c(=Cc2cc([O-])ccc2[O-])[n-]c(=O)n1-c1ccccc1

>  <Energy>  (2229) 
67.44739856807777

>  <Genealogy>  (2229) 
C=c1c(=O)c(=Cc2cc([O-])ccc2[O-])[n-]c(=O)n1-c1ccccc1 (protonated)
C=c1c(=O)c(=Cc2cc([O-])ccc2[O-])[n-]c(=O)n1-c1ccccc1 (3D coordinates assigned)
C=c1c(=O)c(=Cc2cc([O-])ccc2[O-])[n-]c(=O)n1-c1ccccc1 (optimized conformer: 67.44739856807777 kcal/mol)

>  <smiles>  (2229) 
C=c1c(=O)c(=Cc2cc(O)ccc2O)[nH]c(=O)n1-c1ccccc1

>  <score_type>  (2229) 
oracle

>  <origin>  (2229) 
adg

>  <m_score__min__energy>  (2229) 
-15.369999999999999

>  <m_primary>  (2229) 
energy

$$$$
8:0
     RDKit          3D

 37 41  0  0  0  0  0  0  0  0999 V2000
   54.9410   26.4110   45.9680 O   0  0  0  0  0  0  0  0  0  0  0  0
   55.9310   25.4770   46.2510 C   0  0  0  0  0  0  0  0  0  0  0  0
   55.8110   24.5110   47.1780 N   0  0  0  0  0  0  0  0  0  0  0  0
   57.0030   23.8820   47.1040 C   0  0  0  0  0  0  0  0  0  0  0  0
   57.2960   22.8990   47.8320 O   0  0  0  0  0  0  0  0  0  0  0  0
   57.8620   24.3950   46.1940 N   0  0  0  0  0  0  0  0  0  0  0  0
   57.1570   25.3970   45.6350 C   0  0  0  0  0  0  0  0  0  0  0  0
   57.6940   26.3540   44.6540 C   0  0  0  0  0  0  0  0  0  0  0  0
   58.2280   27.5580   44.9400 C   0  0  0  0  0  0  0  0  0  0  0  0
   59.5300   27.7150   45.3940 C   0  0  0  0  0  0  0  0  0  0  0  0
   59.7540   29.0720   45.5060 C   0  0  0  0  0  0  0  0  0  0  0  0
   61.0350   29.6900   45.9820 C   0  0  0  0  0  0  0  0  0  0  0  0
   58.6370   29.7610   45.1830 N   0  0  0  0  0  0  0  0  0  0  0  0
   58.4820   31.1900   45.2570 C   0  0  0  0  0  0  0  0  0  0  0  0
   59.0060   31.8970   46.3500 C   0  0  0  0  0  0  0  0  0  0  0  0
   58.8160   33.2820   46.4510 C   0  0  0  0  0  0  0  0  0  0  0  0
   59.3260   34.0040   47.6290 C   0  0  0  0  0  0  0  0  0  0  0  0
   59.9300   35.0960   47.4440 O   0  0  0  0  0  0  0  0  0  0  0  0
   59.1810   33.4650   48.9630 N   0  0  0  0  0  0  0  0  0  0  0  0
   59.7670   34.1590   50.1210 C   0  0  0  0  0  0  0  0  0  0  0  0
   60.6160   33.1840   50.9420 C   0  0  0  0  0  0  0  0  0  0  0  0
   59.9200   31.9050   51.1380 N   0  0  0  0  0  0  0  0  0  0  0  0
   60.5010   30.9170   52.0010 C   0  0  0  0  0  0  0  0  0  0  0  0
   60.5870   31.1620   53.3780 C   0  0  0  0  0  0  0  0  0  0  0  0
   61.1370   30.2350   54.2050 N   0  0  0  0  0  0  0  0  0  0  0  0
   61.6140   29.0530   53.7340 C   0  0  0  0  0  0  0  0  0  0  0  0
   61.5480   28.7620   52.3690 C   0  0  0  0  0  0  0  0  0  0  0  0
   60.9740   29.6910   51.4880 C   0  0  0  0  0  0  0  0  0  0  0  0
   60.9160   29.3880   50.0170 C   0  0  0  0  0  0  0  0  0  0  0  0
   58.5610   31.7090   50.6250 C   0  0  0  0  0  0  0  0  0  0  0  0
   58.4810   32.1830   49.1690 C   0  0  0  0  0  0  0  0  0  0  0  0
   58.1280   33.9660   45.4390 C   0  0  0  0  0  0  0  0  0  0  0  0
   57.6200   33.2670   44.3400 C   0  0  0  0  0  0  0  0  0  0  0  0
   57.7910   31.8820   44.2500 C   0  0  0  0  0  0  0  0  0  0  0  0
   57.2920   31.2130   43.1810 F   0  0  0  0  0  0  0  0  0  0  0  0
   57.6790   28.8500   44.8670 C   0  0  0  0  0  0  0  0  0  0  0  0
   56.3850   29.1720   44.7040 C   0  0  0  0  0  0  0  0  0  0  0  0
  1  2  1  0
  2  3  1  0
  3  4  1  0
  4  5  2  0
  4  6  1  0
  6  7  1  0
  7  8  1  0
  8  9  2  0
  9 10  1  0
 10 11  2  0
 11 12  1  0
 11 13  1  0
 13 14  1  0
 14 15  2  0
 15 16  1  0
 16 17  1  0
 17 18  2  0
 17 19  1  0
 19 20  1  0
 20 21  1  0
 21 22  1  0
 22 23  1  0
 23 24  2  0
 24 25  1  0
 25 26  2  0
 26 27  1  0
 27 28  2  0
 28 29  1  0
 22 30  1  0
 30 31  1  0
 16 32  2  0
 32 33  1  0
 33 34  2  0
 34 35  1  0
 13 36  1  0
 36 37  2  0
  7  2  2  0
 36  9  1  0
 34 14  1  0
 31 19  1  0
 28 23  1  0
M  CHG  2   3  -1   6  -1
M  END
>  <UniqueID>  (2230) 
9

>  <SMILES>  (2230) 
C=c1/c(=C\c2[n-]c(=O)[n-]c2O)cc(C)n1-c1cc(C(=O)N2CCN(c3cnccc3C)CC2)ccc1F

>  <Energy>  (2230) 
153.99989680023597

>  <Genealogy>  (2230) 
C=c1c(=Cc2[n-]c(=O)[n-]c2O)cc(C)n1-c1cc(C(=O)N2CCN(c3cnccc3C)CC2)ccc1F (protonated)
C=c1/c(=C\c2[n-]c(=O)[n-]c2O)cc(C)n1-c1cc(C(=O)N2CCN(c3cnccc3C)CC2)ccc1F (cis-trans isomerization)
C=c1/c(=C\c2[n-]c(=O)[n-]c2O)cc(C)n1-c1cc(C(=O)N2CCN(c3cnccc3C)CC2)ccc1F (3D coordinates assigned)
C=c1/c(=C\c2[n-]c(=O)[n-]c2O)cc(C)n1-c1cc(C(=O)N2CCN(c3cnccc3C)CC2)ccc1F (nonaromatic ring conformer: 153.99989680023597 kcal/mol)

>  <smiles>  (2230) 
C=c1c(=Cc2[nH]c(=O)[nH]c2O)cc(C)n1-c1cc(C(=O)N2CCN(c3cnccc3C)CC2)ccc1F

>  <score_type>  (2230) 
oracle

>  <origin>  (2230) 
adg

>  <m_score__min__energy>  (2230) 
-14.800000000000001

>  <m_primary>  (2230) 
energy

$$$$
18:0
     RDKit          3D

 35 38  0  0  0  0  0  0  0  0999 V2000
   57.9480   26.6620   42.8410 C   0  0  0  0  0  0  0  0  0  0  0  0
   58.0710   26.4840   44.1680 C   0  0  0  0  0  0  0  0  0  0  0  0
   57.4500   25.4770   44.9220 C   0  0  0  0  0  0  0  0  0  0  0  0
   56.6370   24.5010   44.4620 C   0  0  0  0  0  0  0  0  0  0  0  0
   55.2730   24.2150   44.9580 C   0  0  0  0  0  0  0  0  0  0  0  0
   54.5920   23.0670   44.7820 N   0  0  0  0  0  0  0  0  0  0  0  0
   53.4000   23.3130   45.3650 C   0  0  0  0  0  0  0  0  0  0  0  0
   52.4760   22.4600   45.4030 O   0  0  0  0  0  0  0  0  0  0  0  0
   53.2720   24.5500   45.8910 N   0  0  0  0  0  0  0  0  0  0  0  0
   54.4630   25.1070   45.6220 C   0  0  0  0  0  0  0  0  0  0  0  0
   54.8030   26.4090   45.9760 O   0  0  0  0  0  0  0  0  0  0  0  0
   57.8040   25.7150   46.2420 C   0  0  0  0  0  0  0  0  0  0  0  0
   58.6300   26.8180   46.2430 C   0  0  0  0  0  0  0  0  0  0  0  0
   59.1460   27.4370   47.4790 C   0  0  0  0  0  0  0  0  0  0  0  0
   59.7200   26.6940   48.3250 O   0  0  0  0  0  0  0  0  0  0  0  0
   59.1510   28.8740   47.6500 N   0  0  0  0  0  0  0  0  0  0  0  0
   60.5310   29.3760   47.5230 C   0  0  0  0  0  0  0  0  0  0  0  0
   60.5220   30.9060   47.4410 C   0  0  0  0  0  0  0  0  0  0  0  0
   59.5470   31.4810   48.3810 N   0  0  0  0  0  0  0  0  0  0  0  0
   59.4350   32.9140   48.4780 C   0  0  0  0  0  0  0  0  0  0  0  0
   59.4470   33.4600   49.6150 O   0  0  0  0  0  0  0  0  0  0  0  0
   59.2890   33.7550   47.2680 C   0  0  0  0  0  0  0  0  0  0  0  0
   60.0270   34.9470   47.1440 C   0  0  0  0  0  0  0  0  0  0  0  0
   59.9080   35.7370   45.9970 C   0  0  0  0  0  0  0  0  0  0  0  0
   59.0590   35.3440   44.9610 C   0  0  0  0  0  0  0  0  0  0  0  0
   58.3320   34.1550   45.0670 C   0  0  0  0  0  0  0  0  0  0  0  0
   58.4460   33.3590   46.2110 C   0  0  0  0  0  0  0  0  0  0  0  0
   57.7180   32.2160   46.2940 F   0  0  0  0  0  0  0  0  0  0  0  0
   59.0050   30.6470   49.4620 C   0  0  0  0  0  0  0  0  0  0  0  0
   58.5440   29.2610   48.9510 C   0  0  0  0  0  0  0  0  0  0  0  0
   58.8050   27.2890   44.9850 N   0  0  0  0  0  0  0  0  0  0  0  0
   59.5040   28.5340   44.6240 C   0  0  0  0  0  0  0  0  0  0  0  0
   58.5200   29.6980   44.5060 C   0  0  0  0  0  0  0  0  0  0  0  0
   57.5010   29.5560   45.4730 O   0  0  0  0  0  0  0  0  0  0  0  0
   56.2630   29.3790   44.8230 C   0  0  0  0  0  0  0  0  0  0  0  0
  1  2  2  0
  2  3  1  0
  3  4  2  0
  4  5  1  0
  5  6  1  0
  6  7  1  0
  7  8  2  0
  7  9  1  0
  9 10  1  0
 10 11  1  0
  3 12  1  0
 12 13  2  0
 13 14  1  0
 14 15  2  0
 14 16  1  0
 16 17  1  0
 17 18  1  0
 18 19  1  0
 19 20  1  0
 20 21  2  0
 20 22  1  0
 22 23  2  0
 23 24  1  0
 24 25  2  0
 25 26  1  0
 26 27  2  0
 27 28  1  0
 19 29  1  0
 29 30  1  0
 13 31  1  0
 31 32  1  0
 32 33  1  0
 33 34  1  0
 34 35  1  0
 31  2  1  0
 10  5  2  0
 30 16  1  0
 27 22  1  0
M  CHG  4   6  -1   9  -1  11  -1  16   1
M  END
>  <UniqueID>  (2231) 
19

>  <SMILES>  (2231) 
C=c1/c(=C/c2[n-]c(=O)[n-]c2[O-])cc(C(=O)[NH+]2CCN(C(=O)c3ccccc3F)CC2)n1CCOC

>  <Energy>  (2231) 
142.82718826451918

>  <Genealogy>  (2231) 
C=c1c(=Cc2[n-]c(=O)[n-]c2[O-])cc(C(=O)[NH+]2CCN(C(=O)c3ccccc3F)CC2)n1CCOC (protonated)
C=c1/c(=C/c2[n-]c(=O)[n-]c2[O-])cc(C(=O)[NH+]2CCN(C(=O)c3ccccc3F)CC2)n1CCOC (cis-trans isomerization)
C=c1/c(=C/c2[n-]c(=O)[n-]c2[O-])cc(C(=O)[NH+]2CCN(C(=O)c3ccccc3F)CC2)n1CCOC (3D coordinates assigned)
C=c1/c(=C/c2[n-]c(=O)[n-]c2[O-])cc(C(=O)[NH+]2CCN(C(=O)c3ccccc3F)CC2)n1CCOC (nonaromatic ring conformer: 142.82718826451918 kcal/mol)

>  <smiles>  (2231) 
C=c1c(=Cc2[nH]c(=O)[nH]c2O)cc(C(=O)N2CCN(C(=O)c3ccccc3F)CC2)n1CCOC

>  <score_type>  (2231) 
oracle

>  <origin>  (2231) 
adg

>  <m_score__min__energy>  (2231) 
-16.98

>  <m_primary>  (2231) 
energy

$$$$
19:0
     RDKit          3D

 32 35  0  0  0  0  0  0  0  0999 V2000
   65.6190   34.1500   50.8290 O   0  0  0  0  0  0  0  0  0  0  0  0
   64.7250   33.0670   50.7700 C   0  0  0  0  0  0  0  0  0  0  0  0
   63.4050   33.4010   51.5080 C   0  0  0  0  0  0  0  0  0  0  0  0
   62.3120   33.9000   50.5560 C   0  0  0  0  0  0  0  0  0  0  0  0
   62.0850   32.9420   49.4630 N   0  0  0  0  0  0  0  0  0  0  0  0
   60.8880   33.0610   48.6670 C   0  0  0  0  0  0  0  0  0  0  0  0
   60.3410   34.1910   48.5380 O   0  0  0  0  0  0  0  0  0  0  0  0
   60.2800   31.8910   47.9940 C   0  0  0  0  0  0  0  0  0  0  0  0
   59.2130   31.1950   48.5870 C   0  0  0  0  0  0  0  0  0  0  0  0
   58.6430   30.0940   47.9420 C   0  0  0  0  0  0  0  0  0  0  0  0
   59.1250   29.6770   46.6940 C   0  0  0  0  0  0  0  0  0  0  0  0
   58.5340   28.5460   46.0300 N   0  0  0  0  0  0  0  0  0  0  0  0
   57.9230   28.5690   44.8250 C   0  0  0  0  0  0  0  0  0  0  0  0
   57.7680   29.7860   43.9650 C   0  0  0  0  0  0  0  0  0  0  0  0
   57.4560   27.3110   44.4970 C   0  0  0  0  0  0  0  0  0  0  0  0
   57.7900   26.4750   45.5550 C   0  0  0  0  0  0  0  0  0  0  0  0
   57.4900   25.1650   45.6580 C   0  0  0  0  0  0  0  0  0  0  0  0
   56.1390   24.6150   45.4070 C   0  0  0  0  0  0  0  0  0  0  0  0
   55.0040   25.4070   45.6380 C   0  0  0  0  0  0  0  0  0  0  0  0
   55.1350   26.7220   46.0680 O   0  0  0  0  0  0  0  0  0  0  0  0
   53.7640   24.8940   45.4310 N   0  0  0  0  0  0  0  0  0  0  0  0
   53.5960   23.6130   45.0140 C   0  0  0  0  0  0  0  0  0  0  0  0
   52.4380   23.1600   44.8230 O   0  0  0  0  0  0  0  0  0  0  0  0
   54.6770   22.8170   44.8090 N   0  0  0  0  0  0  0  0  0  0  0  0
   55.9380   23.2820   45.0040 C   0  0  0  0  0  0  0  0  0  0  0  0
   56.9140   22.5030   44.8370 O   0  0  0  0  0  0  0  0  0  0  0  0
   58.4560   27.2710   46.4910 C   0  0  0  0  0  0  0  0  0  0  0  0
   58.9840   26.8580   47.6540 C   0  0  0  0  0  0  0  0  0  0  0  0
   60.1730   30.3830   46.0890 C   0  0  0  0  0  0  0  0  0  0  0  0
   60.7430   31.4860   46.7320 C   0  0  0  0  0  0  0  0  0  0  0  0
   63.1420   31.9870   49.0900 C   0  0  0  0  0  0  0  0  0  0  0  0
   64.5200   32.6180   49.3040 C   0  0  0  0  0  0  0  0  0  0  0  0
  1  2  1  0
  2  3  1  0
  3  4  1  0
  4  5  1  0
  5  6  1  0
  6  7  2  0
  6  8  1  0
  8  9  2  0
  9 10  1  0
 10 11  2  0
 11 12  1  0
 12 13  1  0
 13 14  1  0
 13 15  2  0
 15 16  1  0
 16 17  2  0
 17 18  1  0
 18 19  2  0
 19 20  1  0
 19 21  1  0
 21 22  1  0
 22 23  2  0
 22 24  1  0
 24 25  1  0
 25 26  2  0
 16 27  1  0
 27 28  2  0
 11 29  1  0
 29 30  2  0
  5 31  1  0
 31 32  1  0
 32  2  1  0
 30  8  1  0
 27 12  1  0
 25 18  1  0
M  CHG  3  20  -1  21  -1  24  -1
M  END
>  <UniqueID>  (2232) 
20

>  <SMILES>  (2232) 
C=c1/c(=C/c2c([O-])[n-]c(=O)[n-]c2=O)cc(C)n1-c1ccc(C(=O)N2CCC(O)CC2)cc1

>  <Energy>  (2232) 
108.29257159403278

>  <Genealogy>  (2232) 
C=c1c(=Cc2c([O-])[n-]c(=O)[n-]c2=O)cc(C)n1-c1ccc(C(=O)N2CCC(O)CC2)cc1 (protonated)
C=c1/c(=C/c2c([O-])[n-]c(=O)[n-]c2=O)cc(C)n1-c1ccc(C(=O)N2CCC(O)CC2)cc1 (cis-trans isomerization)
C=c1/c(=C/c2c([O-])[n-]c(=O)[n-]c2=O)cc(C)n1-c1ccc(C(=O)N2CCC(O)CC2)cc1 (3D coordinates assigned)
C=c1/c(=C/c2c([O-])[n-]c(=O)[n-]c2=O)cc(C)n1-c1ccc(C(=O)N2CCC(O)CC2)cc1 (nonaromatic ring conformer: 108.29257159403278 kcal/mol)

>  <smiles>  (2232) 
C=c1c(=Cc2c(O)[nH]c(=O)[nH]c2=O)cc(C)n1-c1ccc(C(=O)N2CCC(O)CC2)cc1

>  <score_type>  (2232) 
oracle

>  <origin>  (2232) 
adg

>  <m_score__min__energy>  (2232) 
-15.880000000000001

>  <m_primary>  (2232) 
energy

$$$$
32:0
     RDKit          3D

 33 35  0  0  0  0  0  0  0  0999 V2000
   56.2750   30.0880   42.8560 O   0  0  0  0  0  0  0  0  0  0  0  0
   56.6860   29.9130   44.0300 C   0  0  0  0  0  0  0  0  0  0  0  0
   55.9240   28.9560   44.9070 C   0  0  0  0  0  0  0  0  0  0  0  0
   56.7930   27.9060   45.4290 N   0  0  0  0  0  0  0  0  0  0  0  0
   56.3210   26.6980   46.0450 C   0  0  0  0  0  0  0  0  0  0  0  0
   55.0920   26.4390   45.9960 O   0  0  0  0  0  0  0  0  0  0  0  0
   57.2260   25.7760   46.7740 C   0  0  0  0  0  0  0  0  0  0  0  0
   57.0690   24.5290   46.6720 O   0  0  0  0  0  0  0  0  0  0  0  0
   58.3620   26.2500   47.5040 N   0  0  0  0  0  0  0  0  0  0  0  0
   59.1120   27.4490   47.2600 C   0  0  0  0  0  0  0  0  0  0  0  0
   59.3500   28.4000   48.2780 C   0  0  0  0  0  0  0  0  0  0  0  0
   60.1600   29.5150   48.0180 C   0  0  0  0  0  0  0  0  0  0  0  0
   60.7230   29.6960   46.7500 C   0  0  0  0  0  0  0  0  0  0  0  0
   61.4950   30.7840   46.5000 F   0  0  0  0  0  0  0  0  0  0  0  0
   60.4940   28.7510   45.7410 C   0  0  0  0  0  0  0  0  0  0  0  0
   59.7000   27.6270   45.9970 C   0  0  0  0  0  0  0  0  0  0  0  0
   59.5010   26.7030   45.0150 F   0  0  0  0  0  0  0  0  0  0  0  0
   57.8780   30.6030   44.4390 N   0  0  0  0  0  0  0  0  0  0  0  0
   58.0450   31.8800   45.0740 C   0  0  0  0  0  0  0  0  0  0  0  0
   57.4320   32.9940   44.4870 C   0  0  0  0  0  0  0  0  0  0  0  0
   57.5340   34.2550   45.0790 C   0  0  0  0  0  0  0  0  0  0  0  0
   58.2450   34.4100   46.2690 C   0  0  0  0  0  0  0  0  0  0  0  0
   58.8290   33.3010   46.8940 C   0  0  0  0  0  0  0  0  0  0  0  0
   59.7480   33.5140   48.3950 S   0  0  0  0  0  0  0  0  0  0  0  0
   59.1270   32.6650   49.4690 O   0  0  0  0  0  0  0  0  0  0  0  0
   59.6380   34.9500   48.8200 O   0  0  0  0  0  0  0  0  0  0  0  0
   61.4300   33.0470   48.2550 N   0  0  0  0  0  0  0  0  0  0  0  0
   62.0520   33.6490   47.0670 C   0  0  0  0  0  0  0  0  0  0  0  0
   63.4930   33.1180   46.9100 C   0  0  0  0  0  0  0  0  0  0  0  0
   64.0680   32.6660   48.1320 O   0  0  0  0  0  0  0  0  0  0  0  0
   63.6930   33.5030   49.2040 C   0  0  0  0  0  0  0  0  0  0  0  0
   62.1880   33.3440   49.4880 C   0  0  0  0  0  0  0  0  0  0  0  0
   58.7230   32.0340   46.2940 C   0  0  0  0  0  0  0  0  0  0  0  0
  1  2  2  0
  2  3  1  0
  3  4  1  0
  4  5  1  0
  5  6  2  0
  5  7  1  0
  7  8  2  0
  7  9  1  0
  9 10  1  0
 10 11  2  0
 11 12  1  0
 12 13  2  0
 13 14  1  0
 13 15  1  0
 15 16  2  0
 16 17  1  0
  2 18  1  0
 18 19  1  0
 19 20  2  0
 20 21  1  0
 21 22  2  0
 22 23  1  0
 23 24  1  0
 24 25  2  0
 24 26  2  0
 24 27  1  0
 27 28  1  0
 28 29  1  0
 29 30  1  0
 30 31  1  0
 31 32  1  0
 23 33  2  0
 16 10  1  0
 33 19  1  0
 32 27  1  0
M  CHG  3   4  -1   9  -1  18  -1
M  END
>  <UniqueID>  (2233) 
33

>  <SMILES>  (2233) 
O=C(C[N-]C(=O)C(=O)[N-]c1ccc(F)cc1F)[N-]c1cccc(S(=O)(=O)N2CCOCC2)c1

>  <Energy>  (2233) 
71.18294114413614

>  <Genealogy>  (2233) 
O=C(C[N-]C(=O)C(=O)[N-]c1ccc(F)cc1F)[N-]c1cccc(S(=O)(=O)N2CCOCC2)c1 (protonated)
O=C(C[N-]C(=O)C(=O)[N-]c1ccc(F)cc1F)[N-]c1cccc(S(=O)(=O)N2CCOCC2)c1 (3D coordinates assigned)
O=C(C[N-]C(=O)C(=O)[N-]c1ccc(F)cc1F)[N-]c1cccc(S(=O)(=O)N2CCOCC2)c1 (nonaromatic ring conformer: 71.18294114413614 kcal/mol)

>  <smiles>  (2233) 
O=C(CNC(=O)C(=O)Nc1ccc(F)cc1F)Nc1cccc(S(=O)(=O)N2CCOCC2)c1

>  <score_type>  (2233) 
oracle

>  <origin>  (2233) 
adg

>  <m_score__min__energy>  (2233) 
-14.470000000000001

>  <m_primary>  (2233) 
energy

$$$$
33:0
     RDKit          3D

 28 31  0  0  0  0  0  0  0  0999 V2000
   55.6530   28.9880   45.2590 O   0  0  0  0  0  0  0  0  0  0  0  0
   56.1530   27.7390   45.6200 C   0  0  0  0  0  0  0  0  0  0  0  0
   55.3740   26.7060   45.9790 N   0  0  0  0  0  0  0  0  0  0  0  0
   56.2720   25.7370   46.2550 C   0  0  0  0  0  0  0  0  0  0  0  0
   55.9330   24.5880   46.6410 O   0  0  0  0  0  0  0  0  0  0  0  0
   57.5630   26.0980   46.0950 N   0  0  0  0  0  0  0  0  0  0  0  0
   57.4790   27.3710   45.6650 C   0  0  0  0  0  0  0  0  0  0  0  0
   58.6350   28.2610   45.4680 C   0  0  0  0  0  0  0  0  0  0  0  0
   58.6280   29.6010   45.6140 C   0  0  0  0  0  0  0  0  0  0  0  0
   58.4440   30.4630   44.5500 C   0  0  0  0  0  0  0  0  0  0  0  0
   58.3880   31.7370   45.0700 C   0  0  0  0  0  0  0  0  0  0  0  0
   58.1860   32.9700   44.2410 C   0  0  0  0  0  0  0  0  0  0  0  0
   58.5880   31.7170   46.4100 N   0  0  0  0  0  0  0  0  0  0  0  0
   58.6070   32.9090   47.2790 C   0  0  0  0  0  0  0  0  0  0  0  0
   59.9310   33.0470   47.9960 C   0  0  0  0  0  0  0  0  0  0  0  0
   61.1210   33.1160   47.2560 C   0  0  0  0  0  0  0  0  0  0  0  0
   62.3550   33.2360   47.9000 C   0  0  0  0  0  0  0  0  0  0  0  0
   62.4300   33.2980   49.3040 C   0  0  0  0  0  0  0  0  0  0  0  0
   63.7080   33.4190   49.9720 N   0  0  0  0  0  0  0  0  0  0  0  0
   64.9380   32.8020   49.4930 C   0  0  0  0  0  0  0  0  0  0  0  0
   65.9750   33.0400   50.5820 C   0  0  0  0  0  0  0  0  0  0  0  0
   65.4190   34.1680   51.4430 C   0  0  0  0  0  0  0  0  0  0  0  0
   63.9160   34.1710   51.2020 C   0  0  0  0  0  0  0  0  0  0  0  0
   61.2330   33.2420   50.0430 C   0  0  0  0  0  0  0  0  0  0  0  0
   59.9970   33.1220   49.4000 C   0  0  0  0  0  0  0  0  0  0  0  0
   58.8400   33.0800   50.1690 O   0  0  0  0  0  0  0  0  0  0  0  0
   58.7620   30.4090   46.7570 C   0  0  0  0  0  0  0  0  0  0  0  0
   59.1410   29.9970   47.9790 C   0  0  0  0  0  0  0  0  0  0  0  0
  1  2  1  0
  2  3  1  0
  3  4  1  0
  4  5  2  0
  4  6  1  0
  6  7  1  0
  7  8  1  0
  8  9  2  0
  9 10  1  0
 10 11  2  0
 11 12  1  0
 11 13  1  0
 13 14  1  0
 14 15  1  0
 15 16  2  0
 16 17  1  0
 17 18  2  0
 18 19  1  0
 19 20  1  0
 20 21  1  0
 21 22  1  0
 22 23  1  0
 18 24  1  0
 24 25  2  0
 25 26  1  0
 13 27  1  0
 27 28  2  0
  7  2  2  0
 27  9  1  0
 25 15  1  0
 23 19  1  0
M  CHG  3   3  -1   6  -1  26  -1
M  END
>  <UniqueID>  (2234) 
34

>  <SMILES>  (2234) 
C=c1/c(=C\c2[n-]c(=O)[n-]c2O)cc(C)n1Cc1ccc(N2CCCC2)cc1[O-]

>  <Energy>  (2234) 
122.79741935068047

>  <Genealogy>  (2234) 
C=c1c(=Cc2[n-]c(=O)[n-]c2O)cc(C)n1Cc1ccc(N2CCCC2)cc1[O-] (protonated)
C=c1/c(=C\c2[n-]c(=O)[n-]c2O)cc(C)n1Cc1ccc(N2CCCC2)cc1[O-] (cis-trans isomerization)
C=c1/c(=C\c2[n-]c(=O)[n-]c2O)cc(C)n1Cc1ccc(N2CCCC2)cc1[O-] (3D coordinates assigned)
C=c1/c(=C\c2[n-]c(=O)[n-]c2O)cc(C)n1Cc1ccc(N2CCCC2)cc1[O-] (nonaromatic ring conformer: 122.79741935068047 kcal/mol)

>  <smiles>  (2234) 
C=c1c(=Cc2[nH]c(=O)[nH]c2O)cc(C)n1Cc1ccc(N2CCCC2)cc1O

>  <score_type>  (2234) 
oracle

>  <origin>  (2234) 
adg

>  <m_score__min__energy>  (2234) 
-14.050000000000001

>  <m_primary>  (2234) 
energy

$$$$
34:0
     RDKit          3D

 32 34  0  0  0  0  0  0  0  0999 V2000
   56.8820   24.6200   45.1430 C   0  0  0  0  0  0  0  0  0  0  0  0
   56.6760   26.2300   45.8850 S   0  0  0  0  0  0  0  0  0  0  0  0
   57.2710   26.2100   47.2650 O   0  0  0  0  0  0  0  0  0  0  0  0
   55.2080   26.5240   45.9980 O   0  0  0  0  0  0  0  0  0  0  0  0
   57.4420   27.4880   44.9380 N   0  0  0  0  0  0  0  0  0  0  0  0
   58.8340   27.7460   45.3900 C   0  0  0  0  0  0  0  0  0  0  0  0
   58.9810   29.0710   46.1520 C   0  0  0  0  0  0  0  0  0  0  0  0
   58.5340   30.2640   45.2720 C   0  0  0  0  0  0  0  0  0  0  0  0
   58.2130   31.4890   46.0960 C   0  0  0  0  0  0  0  0  0  0  0  0
   57.2230   32.2140   45.8070 O   0  0  0  0  0  0  0  0  0  0  0  0
   59.0750   31.8290   47.1920 N   0  0  0  0  0  0  0  0  0  0  0  0
   58.9020   31.4900   48.5770 C   0  0  0  0  0  0  0  0  0  0  0  0
   59.1640   30.2000   49.0780 C   0  0  0  0  0  0  0  0  0  0  0  0
   58.9660   29.9160   50.4320 C   0  0  0  0  0  0  0  0  0  0  0  0
   58.4750   30.9030   51.3030 C   0  0  0  0  0  0  0  0  0  0  0  0
   58.2300   30.5780   52.7510 C   0  0  0  0  0  0  0  0  0  0  0  0
   56.8400   30.0440   52.9260 C   0  0  0  0  0  0  0  0  0  0  0  0
   56.5220   29.4880   54.0110 O   0  0  0  0  0  0  0  0  0  0  0  0
   55.8790   30.1860   51.8680 N   0  0  0  0  0  0  0  0  0  0  0  0
   54.4560   30.1700   52.0650 C   0  0  0  0  0  0  0  0  0  0  0  0
   53.8590   29.0540   52.6680 C   0  0  0  0  0  0  0  0  0  0  0  0
   52.4760   28.9970   52.8380 C   0  0  0  0  0  0  0  0  0  0  0  0
   51.6700   30.0480   52.3940 C   0  0  0  0  0  0  0  0  0  0  0  0
   52.2420   31.1720   51.7690 C   0  0  0  0  0  0  0  0  0  0  0  0
   51.3870   32.2840   51.2880 C   0  0  0  0  0  0  0  0  0  0  0  0
   50.9760   32.3440   49.9220 N   0  0  0  0  0  0  0  0  0  0  0  0
   51.0120   33.1880   52.0830 O   0  0  0  0  0  0  0  0  0  0  0  0
   53.6390   31.2220   51.6040 C   0  0  0  0  0  0  0  0  0  0  0  0
   58.1780   32.1770   50.7960 C   0  0  0  0  0  0  0  0  0  0  0  0
   58.3920   32.4670   49.4440 C   0  0  0  0  0  0  0  0  0  0  0  0
   57.3460   29.8990   44.3470 C   0  0  0  0  0  0  0  0  0  0  0  0
   56.5760   28.6840   44.8730 C   0  0  0  0  0  0  0  0  0  0  0  0
  1  2  1  0
  2  3  2  0
  2  4  2  0
  2  5  1  0
  5  6  1  0
  6  7  1  0
  7  8  1  0
  8  9  1  0
  9 10  2  0
  9 11  1  0
 11 12  1  0
 12 13  2  0
 13 14  1  0
 14 15  2  0
 15 16  1  0
 16 17  1  0
 17 18  2  0
 17 19  1  0
 19 20  1  0
 20 21  2  0
 21 22  1  0
 22 23  2  0
 23 24  1  0
 24 25  1  0
 25 26  1  0
 25 27  2  0
 24 28  2  0
 15 29  1  0
 29 30  2  0
  8 31  1  0
 31 32  1  0
 32  5  1  0
 30 12  1  0
 28 20  1  0
M  CHG  2  11  -1  26  -1
M  END
>  <UniqueID>  (2235) 
35

>  <SMILES>  (2235) 
CS(=O)(=O)N1CCC(C(=O)[N-]c2ccc(CC(=O)Nc3cccc(C([NH-])=O)c3)cc2)CC1

>  <Energy>  (2235) 
65.27511286734637

>  <Genealogy>  (2235) 
CS(=O)(=O)N1CCC(C(=O)[N-]c2ccc(CC(=O)Nc3cccc(C([NH-])=O)c3)cc2)CC1 (protonated)
CS(=O)(=O)N1CCC(C(=O)[N-]c2ccc(CC(=O)Nc3cccc(C([NH-])=O)c3)cc2)CC1 (3D coordinates assigned)
CS(=O)(=O)N1CCC(C(=O)[N-]c2ccc(CC(=O)Nc3cccc(C([NH-])=O)c3)cc2)CC1 (nonaromatic ring conformer: 65.27511286734637 kcal/mol)

>  <smiles>  (2235) 
CS(=O)(=O)N1CCC(C(=O)Nc2ccc(CC(=O)Nc3cccc(C(N)=O)c3)cc2)CC1

>  <score_type>  (2235) 
oracle

>  <origin>  (2235) 
adg

>  <m_score__min__energy>  (2235) 
-15.140000000000001

>  <m_primary>  (2235) 
energy

$$$$
45:0
     RDKit          3D

 32 35  0  0  0  0  0  0  0  0999 V2000
   54.9410   26.4060   45.9740 O   0  0  0  0  0  0  0  0  0  0  0  0
   55.9260   25.4760   46.2960 C   0  0  0  0  0  0  0  0  0  0  0  0
   55.7660   24.5000   47.2050 N   0  0  0  0  0  0  0  0  0  0  0  0
   56.9630   23.8780   47.1850 C   0  0  0  0  0  0  0  0  0  0  0  0
   57.2290   22.8920   47.9190 O   0  0  0  0  0  0  0  0  0  0  0  0
   57.8580   24.4050   46.3220 N   0  0  0  0  0  0  0  0  0  0  0  0
   57.1870   25.4200   45.7490 C   0  0  0  0  0  0  0  0  0  0  0  0
   57.7350   26.3780   44.7630 C   0  0  0  0  0  0  0  0  0  0  0  0
   58.3050   27.5660   45.0570 C   0  0  0  0  0  0  0  0  0  0  0  0
   59.6320   27.7990   45.4080 C   0  0  0  0  0  0  0  0  0  0  0  0
   59.7590   29.1610   45.5990 C   0  0  0  0  0  0  0  0  0  0  0  0
   61.0440   29.8650   45.9120 C   0  0  0  0  0  0  0  0  0  0  0  0
   58.5800   29.7800   45.3780 N   0  0  0  0  0  0  0  0  0  0  0  0
   58.3510   31.1960   45.4480 C   0  0  0  0  0  0  0  0  0  0  0  0
   58.8810   31.9380   46.5130 C   0  0  0  0  0  0  0  0  0  0  0  0
   58.6610   33.3210   46.5940 C   0  0  0  0  0  0  0  0  0  0  0  0
   59.2290   34.1060   47.7050 C   0  0  0  0  0  0  0  0  0  0  0  0
   59.4580   35.3330   47.5360 O   0  0  0  0  0  0  0  0  0  0  0  0
   59.5200   33.5180   48.9780 N   0  0  0  0  0  0  0  0  0  0  0  0
   60.8220   33.5710   49.6340 C   0  0  0  0  0  0  0  0  0  0  0  0
   61.8690   33.0600   48.6950 C   0  0  0  0  0  0  0  0  0  0  0  0
   62.6860   33.8370   47.8990 C   0  0  0  0  0  0  0  0  0  0  0  0
   63.4140   32.9240   47.1580 C   0  0  0  0  0  0  0  0  0  0  0  0
   63.0400   31.6710   47.4850 N   0  0  0  0  0  0  0  0  0  0  0  0
   62.0980   31.7620   48.4090 N   0  0  0  0  0  0  0  0  0  0  0  0
   61.4450   30.6060   49.0160 C   0  0  0  0  0  0  0  0  0  0  0  0
   57.9410   33.9650   45.5770 C   0  0  0  0  0  0  0  0  0  0  0  0
   57.4140   33.2270   44.5130 C   0  0  0  0  0  0  0  0  0  0  0  0
   57.6120   31.8450   44.4490 C   0  0  0  0  0  0  0  0  0  0  0  0
   57.1120   31.1420   43.4030 F   0  0  0  0  0  0  0  0  0  0  0  0
   57.6820   28.8210   45.0430 C   0  0  0  0  0  0  0  0  0  0  0  0
   56.3930   29.0740   44.7630 C   0  0  0  0  0  0  0  0  0  0  0  0
  1  2  1  0
  2  3  1  0
  3  4  1  0
  4  5  2  0
  4  6  1  0
  6  7  1  0
  7  8  1  0
  8  9  2  0
  9 10  1  0
 10 11  2  0
 11 12  1  0
 11 13  1  0
 13 14  1  0
 14 15  2  0
 15 16  1  0
 16 17  1  0
 17 18  2  0
 17 19  1  0
 19 20  1  0
 20 21  1  0
 21 22  2  0
 22 23  1  0
 23 24  2  0
 24 25  1  0
 25 26  1  0
 16 27  2  0
 27 28  1  0
 28 29  2  0
 29 30  1  0
 13 31  1  0
 31 32  2  0
  7  2  2  0
 31  9  1  0
 29 14  1  0
 25 21  1  0
M  CHG  3   3  -1   6  -1  19  -1
M  END
>  <UniqueID>  (2236) 
46

>  <SMILES>  (2236) 
C=c1/c(=C/c2[n-]c(=O)[n-]c2O)cc(C)n1-c1cc(C(=O)[N-]Cc2ccnn2C)ccc1F

>  <Energy>  (2236) 
153.11221002066367

>  <Genealogy>  (2236) 
C=c1c(=Cc2[n-]c(=O)[n-]c2O)cc(C)n1-c1cc(C(=O)[N-]Cc2ccnn2C)ccc1F (protonated)
C=c1/c(=C/c2[n-]c(=O)[n-]c2O)cc(C)n1-c1cc(C(=O)[N-]Cc2ccnn2C)ccc1F (cis-trans isomerization)
C=c1/c(=C/c2[n-]c(=O)[n-]c2O)cc(C)n1-c1cc(C(=O)[N-]Cc2ccnn2C)ccc1F (3D coordinates assigned)
C=c1/c(=C/c2[n-]c(=O)[n-]c2O)cc(C)n1-c1cc(C(=O)[N-]Cc2ccnn2C)ccc1F (optimized conformer: 153.11221002066367 kcal/mol)

>  <smiles>  (2236) 
C=c1c(=Cc2[nH]c(=O)[nH]c2O)cc(C)n1-c1cc(C(=O)NCc2ccnn2C)ccc1F

>  <score_type>  (2236) 
oracle

>  <origin>  (2236) 
adg

>  <m_score__min__energy>  (2236) 
-14.619999999999999

>  <m_primary>  (2236) 
energy

$$$$
53:0
     RDKit          3D

 26 29  0  0  0  0  0  0  0  0999 V2000
   54.3650   29.2390   51.9730 O   0  0  0  0  0  0  0  0  0  0  0  0
   54.1590   30.4150   52.3770 C   0  0  0  0  0  0  0  0  0  0  0  0
   52.7560   30.8800   52.6010 C   0  0  0  0  0  0  0  0  0  0  0  0
   52.0360   30.9860   51.2940 C   0  0  0  0  0  0  0  0  0  0  0  0
   52.1170   29.8560   50.0470 S   0  0  0  0  0  0  0  0  0  0  0  0
   51.1530   30.7860   49.0320 C   0  0  0  0  0  0  0  0  0  0  0  0
   50.8180   30.4500   47.8670 O   0  0  0  0  0  0  0  0  0  0  0  0
   50.7710   31.9510   49.5990 N   0  0  0  0  0  0  0  0  0  0  0  0
   51.2700   32.0640   50.8580 C   0  0  0  0  0  0  0  0  0  0  0  0
   51.0260   33.1870   51.6400 O   0  0  0  0  0  0  0  0  0  0  0  0
   55.2470   31.3030   52.6710 N   0  0  0  0  0  0  0  0  0  0  0  0
   56.3730   31.3760   52.0250 C   0  0  0  0  0  0  0  0  0  0  0  0
   56.8740   30.3780   51.2540 N   0  0  0  0  0  0  0  0  0  0  0  0
   58.0640   30.7440   50.7130 C   0  0  0  0  0  0  0  0  0  0  0  0
   58.8270   29.9360   49.8690 C   0  0  0  0  0  0  0  0  0  0  0  0
   60.0520   30.4310   49.3740 C   0  0  0  0  0  0  0  0  0  0  0  0
   60.8710   29.5990   48.4280 C   0  0  0  0  0  0  0  0  0  0  0  0
   60.2330   29.5650   47.1150 N   0  0  0  0  0  0  0  0  0  0  0  0
   60.2060   28.5330   46.2580 C   0  0  0  0  0  0  0  0  0  0  0  0
   59.4310   28.9010   45.1810 C   0  0  0  0  0  0  0  0  0  0  0  0
   58.9610   30.1520   45.3670 N   0  0  0  0  0  0  0  0  0  0  0  0
   59.4670   30.5250   46.5620 C   0  0  0  0  0  0  0  0  0  0  0  0
   60.4740   31.7370   49.7180 C   0  0  0  0  0  0  0  0  0  0  0  0
   59.6960   32.5380   50.5690 C   0  0  0  0  0  0  0  0  0  0  0  0
   58.5000   32.0150   51.0500 C   0  0  0  0  0  0  0  0  0  0  0  0
   57.3750   32.7380   52.0670 S   0  0  0  0  0  0  0  0  0  0  0  0
  1  2  2  0
  2  3  1  0
  3  4  1  0
  4  5  1  0
  5  6  1  0
  6  7  2  0
  6  8  1  0
  8  9  1  0
  9 10  1  0
  2 11  1  0
 11 12  2  3
 12 13  1  0
 13 14  1  0
 14 15  2  0
 15 16  1  0
 16 17  1  0
 17 18  1  0
 18 19  1  0
 19 20  2  0
 20 21  1  0
 21 22  2  0
 16 23  2  0
 23 24  1  0
 24 25  2  0
 25 26  1  0
  9  4  2  0
 26 12  1  0
 25 14  1  0
 22 18  1  0
M  CHG  3   8  -1  10  -1  13  -1
M  END
>  <UniqueID>  (2237) 
54

>  <SMILES>  (2237) 
O=C(Cc1sc(=O)[n-]c1[O-])N=c1[n-]c2cc(Cn3ccnc3)ccc2s1

>  <Energy>  (2237) 
132.72089772166555

>  <Genealogy>  (2237) 
O=C(Cc1sc(=O)[n-]c1[O-])N=c1[n-]c2cc(Cn3ccnc3)ccc2s1 (protonated)
O=C(Cc1sc(=O)[n-]c1[O-])N=c1[n-]c2cc(Cn3ccnc3)ccc2s1 (3D coordinates assigned)
O=C(Cc1sc(=O)[n-]c1[O-])N=c1[n-]c2cc(Cn3ccnc3)ccc2s1 (optimized conformer: 132.72089772166555 kcal/mol)

>  <smiles>  (2237) 
O=C(Cc1sc(=O)[nH]c1O)N=c1[nH]c2cc(Cn3ccnc3)ccc2s1

>  <score_type>  (2237) 
oracle

>  <origin>  (2237) 
adg

>  <m_score__min__energy>  (2237) 
-16.510000000000002

>  <m_primary>  (2237) 
energy

$$$$
56:0
     RDKit          3D

 30 33  0  0  0  0  0  0  0  0999 V2000
   53.7270   29.8640   54.8320 C   0  0  0  0  0  0  0  0  0  0  0  0
   54.2970   30.2600   53.6810 C   0  0  0  0  0  0  0  0  0  0  0  0
   53.6330   30.4470   52.4630 C   0  0  0  0  0  0  0  0  0  0  0  0
   52.3120   30.3260   52.2230 C   0  0  0  0  0  0  0  0  0  0  0  0
   51.6550   30.7770   50.9830 C   0  0  0  0  0  0  0  0  0  0  0  0
   51.6250   30.0450   49.8570 N   0  0  0  0  0  0  0  0  0  0  0  0
   51.0150   30.8600   48.9680 C   0  0  0  0  0  0  0  0  0  0  0  0
   50.7880   30.5170   47.7790 O   0  0  0  0  0  0  0  0  0  0  0  0
   50.6780   32.0740   49.4520 N   0  0  0  0  0  0  0  0  0  0  0  0
   51.1010   32.0120   50.7250 C   0  0  0  0  0  0  0  0  0  0  0  0
   51.0240   33.0780   51.6120 O   0  0  0  0  0  0  0  0  0  0  0  0
   54.5990   30.8380   51.5480 C   0  0  0  0  0  0  0  0  0  0  0  0
   55.7990   30.8710   52.2280 C   0  0  0  0  0  0  0  0  0  0  0  0
   57.1140   31.2110   51.5950 C   0  0  0  0  0  0  0  0  0  0  0  0
   55.6240   30.5200   53.5250 N   0  0  0  0  0  0  0  0  0  0  0  0
   56.7000   30.4010   54.5240 C   0  0  0  0  0  0  0  0  0  0  0  0
   57.4870   29.1350   54.3080 C   0  0  0  0  0  0  0  0  0  0  0  0
   58.8500   29.1930   53.9810 C   0  0  0  0  0  0  0  0  0  0  0  0
   59.5840   28.0190   53.7950 C   0  0  0  0  0  0  0  0  0  0  0  0
   58.9690   26.7620   53.9320 C   0  0  0  0  0  0  0  0  0  0  0  0
   59.7290   25.5490   53.7500 N   0  0  0  0  0  0  0  0  0  0  0  0
   61.1790   25.6390   53.5350 C   0  0  0  0  0  0  0  0  0  0  0  0
   61.7730   24.2600   53.2310 C   0  0  0  0  0  0  0  0  0  0  0  0
   61.2720   23.2710   54.2100 N   0  0  0  0  0  0  0  0  0  0  0  0
   61.9990   21.9780   54.1350 C   0  0  0  0  0  0  0  0  0  0  0  0
   63.3910   21.9870   54.7890 C   0  0  0  0  0  0  0  0  0  0  0  0
   59.7940   23.0910   54.1550 C   0  0  0  0  0  0  0  0  0  0  0  0
   59.0380   24.2740   53.5150 C   0  0  0  0  0  0  0  0  0  0  0  0
   57.6030   26.7060   54.2560 C   0  0  0  0  0  0  0  0  0  0  0  0
   56.8690   27.8820   54.4400 C   0  0  0  0  0  0  0  0  0  0  0  0
  1  2  2  0
  2  3  1  0
  3  4  2  0
  4  5  1  0
  5  6  1  0
  6  7  1  0
  7  8  2  0
  7  9  1  0
  9 10  1  0
 10 11  1  0
  3 12  1  0
 12 13  2  0
 13 14  1  0
 13 15  1  0
 15 16  1  0
 16 17  1  0
 17 18  2  0
 18 19  1  0
 19 20  2  0
 20 21  1  0
 21 22  1  0
 22 23  1  0
 23 24  1  0
 24 25  1  0
 25 26  1  0
 24 27  1  0
 27 28  1  0
 20 29  1  0
 29 30  2  0
 15  2  1  0
 30 17  1  0
 10  5  2  0
 28 21  1  0
M  CHG  4   6  -1   9  -1  11  -1  24   1
M  END
>  <UniqueID>  (2238) 
57

>  <SMILES>  (2238) 
C=c1/c(=C/c2[n-]c(=O)[n-]c2[O-])cc(C)n1Cc1ccc(N2CC[NH+](CC)CC2)cc1

>  <Energy>  (2238) 
135.8910969440508

>  <Genealogy>  (2238) 
C=c1c(=Cc2[n-]c(=O)[n-]c2[O-])cc(C)n1Cc1ccc(N2CC[NH+](CC)CC2)cc1 (protonated)
C=c1/c(=C/c2[n-]c(=O)[n-]c2[O-])cc(C)n1Cc1ccc(N2CC[NH+](CC)CC2)cc1 (cis-trans isomerization)
C=c1/c(=C/c2[n-]c(=O)[n-]c2[O-])cc(C)n1Cc1ccc(N2CC[NH+](CC)CC2)cc1 (3D coordinates assigned)
C=c1/c(=C/c2[n-]c(=O)[n-]c2[O-])cc(C)n1Cc1ccc(N2CC[NH+](CC)CC2)cc1 (nonaromatic ring conformer: 135.8910969440508 kcal/mol)

>  <smiles>  (2238) 
C=c1c(=Cc2[nH]c(=O)[nH]c2O)cc(C)n1Cc1ccc(N2CCN(CC)CC2)cc1

>  <score_type>  (2238) 
oracle

>  <origin>  (2238) 
adg

>  <m_score__min__energy>  (2238) 
-15.18

>  <m_primary>  (2238) 
energy

$$$$
63:0
     RDKit          3D

 27 30  0  0  0  0  0  0  0  0999 V2000
   54.3880   28.4650   52.4180 C   0  0  0  0  0  0  0  0  0  0  0  0
   55.0060   29.6480   52.3890 C   0  0  0  0  0  0  0  0  0  0  0  0
   56.3140   29.7580   52.4080 O   0  0  0  0  0  0  0  0  0  0  0  0
   56.6320   31.0310   52.3670 C   0  0  0  0  0  0  0  0  0  0  0  0
   58.0150   31.5300   52.3930 C   0  0  0  0  0  0  0  0  0  0  0  0
   58.5190   31.8850   53.4920 O   0  0  0  0  0  0  0  0  0  0  0  0
   58.7840   31.6530   51.1860 N   0  0  0  0  0  0  0  0  0  0  0  0
   58.9770   30.4940   50.3040 C   0  0  0  0  0  0  0  0  0  0  0  0
   58.8940   30.9050   48.8160 C   0  0  0  0  0  0  0  0  0  0  0  0
   59.0860   32.3590   48.6210 N   0  0  0  0  0  0  0  0  0  0  0  0
   59.2320   32.7150   47.1860 C   0  0  0  0  0  0  0  0  0  0  0  0
   59.9430   34.0550   46.9220 C   0  0  0  0  0  0  0  0  0  0  0  0
   59.1550   34.7290   45.8100 C   0  0  0  0  0  0  0  0  0  0  0  0
   57.7380   34.2020   45.9410 C   0  0  0  0  0  0  0  0  0  0  0  0
   57.8740   32.7810   46.4690 C   0  0  0  0  0  0  0  0  0  0  0  0
   60.1180   32.8990   49.5310 C   0  0  0  0  0  0  0  0  0  0  0  0
   59.5590   32.8790   50.9550 C   0  0  0  0  0  0  0  0  0  0  0  0
   55.4890   31.8060   52.3280 C   0  0  0  0  0  0  0  0  0  0  0  0
   54.4220   30.9170   52.3340 C   0  0  0  0  0  0  0  0  0  0  0  0
   53.1040   31.2060   52.3130 C   0  0  0  0  0  0  0  0  0  0  0  0
   52.2580   31.2610   51.1010 C   0  0  0  0  0  0  0  0  0  0  0  0
   52.2460   30.3590   50.1030 N   0  0  0  0  0  0  0  0  0  0  0  0
   51.2970   30.8260   49.2640 C   0  0  0  0  0  0  0  0  0  0  0  0
   50.9940   30.2410   48.1910 O   0  0  0  0  0  0  0  0  0  0  0  0
   50.6970   31.9660   49.6660 N   0  0  0  0  0  0  0  0  0  0  0  0
   51.3140   32.2250   50.8300 C   0  0  0  0  0  0  0  0  0  0  0  0
   51.0190   33.3220   51.6310 O   0  0  0  0  0  0  0  0  0  0  0  0
  1  2  2  0
  2  3  1  0
  3  4  1  0
  4  5  1  0
  5  6  2  0
  5  7  1  0
  7  8  1  0
  8  9  1  0
  9 10  1  0
 10 11  1  0
 11 12  1  0
 12 13  1  0
 13 14  1  0
 14 15  1  0
 10 16  1  0
 16 17  1  0
  4 18  2  0
 18 19  1  0
 19 20  2  0
 20 21  1  0
 21 22  1  0
 22 23  1  0
 23 24  2  0
 23 25  1  0
 25 26  1  0
 26 27  1  0
 19  2  1  0
 26 21  2  0
 17  7  1  0
 15 11  1  0
M  CHG  3  22  -1  25  -1  27  -1
M  END
>  <UniqueID>  (2239) 
64

>  <SMILES>  (2239) 
C=c1oc(C(=O)N2CCN(C3CCCC3)CC2)c/c1=C\c1[n-]c(=O)[n-]c1[O-]

>  <Energy>  (2239) 
123.83541464084348

>  <Genealogy>  (2239) 
C=c1oc(C(=O)N2CCN(C3CCCC3)CC2)cc1=Cc1[n-]c(=O)[n-]c1[O-] (protonated)
C=c1oc(C(=O)N2CCN(C3CCCC3)CC2)c/c1=C\c1[n-]c(=O)[n-]c1[O-] (cis-trans isomerization)
C=c1oc(C(=O)N2CCN(C3CCCC3)CC2)c/c1=C\c1[n-]c(=O)[n-]c1[O-] (3D coordinates assigned)
C=c1oc(C(=O)N2CCN(C3CCCC3)CC2)c/c1=C\c1[n-]c(=O)[n-]c1[O-] (nonaromatic ring conformer: 123.83541464084348 kcal/mol)

>  <smiles>  (2239) 
C=c1oc(C(=O)N2CCN(C3CCCC3)CC2)cc1=Cc1[nH]c(=O)[nH]c1O

>  <score_type>  (2239) 
oracle

>  <origin>  (2239) 
adg

>  <m_score__min__energy>  (2239) 
-18.07

>  <m_primary>  (2239) 
energy

$$$$
64:0
     RDKit          3D

 29 32  0  0  0  0  0  0  0  0999 V2000
   53.9660   25.7720   45.6150 O   0  0  0  0  0  0  0  0  0  0  0  0
   53.8650   24.3850   45.6570 C   0  0  0  0  0  0  0  0  0  0  0  0
   52.7080   23.7320   45.8510 N   0  0  0  0  0  0  0  0  0  0  0  0
   53.0890   22.4370   45.8370 C   0  0  0  0  0  0  0  0  0  0  0  0
   52.2750   21.4910   45.9950 O   0  0  0  0  0  0  0  0  0  0  0  0
   54.4110   22.2380   45.6520 N   0  0  0  0  0  0  0  0  0  0  0  0
   54.8970   23.4850   45.5110 C   0  0  0  0  0  0  0  0  0  0  0  0
   56.3300   23.8120   45.4140 C   0  0  0  0  0  0  0  0  0  0  0  0
   56.8400   24.9410   44.8870 C   0  0  0  0  0  0  0  0  0  0  0  0
   57.4330   24.9850   43.6350 C   0  0  0  0  0  0  0  0  0  0  0  0
   57.7530   26.3030   43.3890 C   0  0  0  0  0  0  0  0  0  0  0  0
   58.4040   26.8020   42.1340 C   0  0  0  0  0  0  0  0  0  0  0  0
   57.4320   27.0710   44.4530 N   0  0  0  0  0  0  0  0  0  0  0  0
   57.6620   28.4850   44.5670 C   0  0  0  0  0  0  0  0  0  0  0  0
   58.9700   28.9850   44.5020 C   0  0  0  0  0  0  0  0  0  0  0  0
   59.2070   30.3580   44.6190 C   0  0  0  0  0  0  0  0  0  0  0  0
   58.1390   31.2460   44.8160 C   0  0  0  0  0  0  0  0  0  0  0  0
   58.3970   32.6960   44.9250 C   0  0  0  0  0  0  0  0  0  0  0  0
   58.1680   33.4310   43.9270 O   0  0  0  0  0  0  0  0  0  0  0  0
   58.9100   33.2830   46.1360 N   0  0  0  0  0  0  0  0  0  0  0  0
   58.8510   34.7110   46.3990 C   0  0  0  0  0  0  0  0  0  0  0  0
   59.8240   34.9630   47.5440 C   0  0  0  0  0  0  0  0  0  0  0  0
   60.1290   33.5960   48.1480 C   0  0  0  0  0  0  0  0  0  0  0  0
   59.7560   32.5740   47.0830 C   0  0  0  0  0  0  0  0  0  0  0  0
   56.8280   30.7480   44.8510 C   0  0  0  0  0  0  0  0  0  0  0  0
   56.5880   29.3750   44.7300 C   0  0  0  0  0  0  0  0  0  0  0  0
   55.2810   28.9020   44.7530 O   0  0  0  0  0  0  0  0  0  0  0  0
   56.8940   26.2510   45.3910 C   0  0  0  0  0  0  0  0  0  0  0  0
   56.6240   26.6510   46.6450 C   0  0  0  0  0  0  0  0  0  0  0  0
  1  2  1  0
  2  3  1  0
  3  4  1  0
  4  5  2  0
  4  6  1  0
  6  7  1  0
  7  8  1  0
  8  9  2  0
  9 10  1  0
 10 11  2  0
 11 12  1  0
 11 13  1  0
 13 14  1  0
 14 15  2  0
 15 16  1  0
 16 17  2  0
 17 18  1  0
 18 19  2  0
 18 20  1  0
 20 21  1  0
 21 22  1  0
 22 23  1  0
 23 24  1  0
 17 25  1  0
 25 26  2  0
 26 27  1  0
 13 28  1  0
 28 29  2  0
  7  2  2  0
 28  9  1  0
 26 14  1  0
 24 20  1  0
M  CHG  3   3  -1   6  -1  27  -1
M  END
>  <UniqueID>  (2240) 
65

>  <SMILES>  (2240) 
C=c1/c(=C\c2[n-]c(=O)[n-]c2O)cc(C)n1-c1ccc(C(=O)N2CCCC2)cc1[O-]

>  <Energy>  (2240) 
130.1891268327943

>  <Genealogy>  (2240) 
C=c1c(=Cc2[n-]c(=O)[n-]c2O)cc(C)n1-c1ccc(C(=O)N2CCCC2)cc1[O-] (protonated)
C=c1/c(=C\c2[n-]c(=O)[n-]c2O)cc(C)n1-c1ccc(C(=O)N2CCCC2)cc1[O-] (cis-trans isomerization)
C=c1/c(=C\c2[n-]c(=O)[n-]c2O)cc(C)n1-c1ccc(C(=O)N2CCCC2)cc1[O-] (3D coordinates assigned)
C=c1/c(=C\c2[n-]c(=O)[n-]c2O)cc(C)n1-c1ccc(C(=O)N2CCCC2)cc1[O-] (nonaromatic ring conformer: 130.1891268327943 kcal/mol)

>  <smiles>  (2240) 
C=c1c(=Cc2[nH]c(=O)[nH]c2O)cc(C)n1-c1ccc(C(=O)N2CCCC2)cc1O

>  <score_type>  (2240) 
oracle

>  <origin>  (2240) 
adg

>  <m_score__min__energy>  (2240) 
-15.619999999999999

>  <m_primary>  (2240) 
energy

$$$$
83:0
     RDKit          3D

 30 33  0  0  0  0  0  0  0  0999 V2000
   57.2450   30.1700   44.2840 C   0  0  0  0  0  0  0  0  0  0  0  0
   58.2470   29.7400   45.0780 C   0  0  0  0  0  0  0  0  0  0  0  0
   58.3190   28.4090   45.5870 C   0  0  0  0  0  0  0  0  0  0  0  0
   57.6350   27.3410   45.1180 C   0  0  0  0  0  0  0  0  0  0  0  0
   57.1740   26.1780   45.8970 C   0  0  0  0  0  0  0  0  0  0  0  0
   58.1500   24.8730   46.3200 S   0  0  0  0  0  0  0  0  0  0  0  0
   56.8680   24.0250   47.0000 C   0  0  0  0  0  0  0  0  0  0  0  0
   56.9730   22.8930   47.5400 O   0  0  0  0  0  0  0  0  0  0  0  0
   55.6950   24.6840   46.8960 N   0  0  0  0  0  0  0  0  0  0  0  0
   55.8610   25.8780   46.2670 C   0  0  0  0  0  0  0  0  0  0  0  0
   54.7830   26.7110   45.9980 O   0  0  0  0  0  0  0  0  0  0  0  0
   59.1600   28.1640   46.6240 N   0  0  0  0  0  0  0  0  0  0  0  0
   60.0140   29.0910   47.1140 C   0  0  0  0  0  0  0  0  0  0  0  0
   60.7640   28.7780   48.0780 O   0  0  0  0  0  0  0  0  0  0  0  0
   60.0760   30.3390   46.5540 N   0  0  0  0  0  0  0  0  0  0  0  0
   61.0510   31.3220   47.0760 C   0  0  0  0  0  0  0  0  0  0  0  0
   60.5650   31.9200   48.3830 C   0  0  0  0  0  0  0  0  0  0  0  0
   61.0760   31.3990   49.5880 C   0  0  0  0  0  0  0  0  0  0  0  0
   60.7120   31.9510   50.8160 C   0  0  0  0  0  0  0  0  0  0  0  0
   59.8330   33.0300   50.8660 C   0  0  0  0  0  0  0  0  0  0  0  0
   59.3010   33.5510   49.6870 C   0  0  0  0  0  0  0  0  0  0  0  0
   59.6440   33.0000   48.4410 C   0  0  0  0  0  0  0  0  0  0  0  0
   59.0060   33.5650   47.2320 C   0  0  0  0  0  0  0  0  0  0  0  0
   57.6660   33.2670   46.9360 C   0  0  0  0  0  0  0  0  0  0  0  0
   57.0680   33.7840   45.7830 C   0  0  0  0  0  0  0  0  0  0  0  0
   57.8060   34.5930   44.9140 C   0  0  0  0  0  0  0  0  0  0  0  0
   59.1440   34.8810   45.1940 C   0  0  0  0  0  0  0  0  0  0  0  0
   59.7460   34.3650   46.3470 C   0  0  0  0  0  0  0  0  0  0  0  0
   59.2050   30.6740   45.5470 C   0  0  0  0  0  0  0  0  0  0  0  0
   59.2390   31.8370   45.0520 O   0  0  0  0  0  0  0  0  0  0  0  0
  1  2  2  0
  2  3  1  0
  3  4  2  3
  4  5  1  0
  5  6  1  0
  6  7  1  0
  7  8  2  0
  7  9  1  0
  9 10  1  0
 10 11  1  0
  3 12  1  0
 12 13  1  0
 13 14  2  0
 13 15  1  0
 15 16  1  0
 16 17  1  0
 17 18  2  0
 18 19  1  0
 19 20  2  0
 20 21  1  0
 21 22  2  0
 22 23  1  0
 23 24  2  0
 24 25  1  0
 25 26  2  0
 26 27  1  0
 27 28  2  0
 15 29  1  0
 29 30  2  0
 29  2  1  0
 10  5  2  0
 22 17  1  0
 28 23  1  0
M  CHG  3   9  -1  11  -1  12  -1
M  END
>  <UniqueID>  (2241) 
83

>  <SMILES>  (2241) 
C=c1c(=Cc2sc(=O)[n-]c2[O-])[n-]c(=O)n(Cc2ccccc2-c2ccccc2)c1=O

>  <Energy>  (2241) 
115.01227815436116

>  <Genealogy>  (2241) 
C=c1c(=Cc2sc(=O)[n-]c2[O-])[n-]c(=O)n(Cc2ccccc2-c2ccccc2)c1=O (protonated)
C=c1c(=Cc2sc(=O)[n-]c2[O-])[n-]c(=O)n(Cc2ccccc2-c2ccccc2)c1=O (3D coordinates assigned)
C=c1c(=Cc2sc(=O)[n-]c2[O-])[n-]c(=O)n(Cc2ccccc2-c2ccccc2)c1=O (optimized conformer: 115.01227815436116 kcal/mol)

>  <smiles>  (2241) 
C=c1c(=Cc2sc(=O)[nH]c2O)[nH]c(=O)n(Cc2ccccc2-c2ccccc2)c1=O

>  <score_type>  (2241) 
oracle

>  <origin>  (2241) 
adg

>  <m_score__min__energy>  (2241) 
-16.539999999999999

>  <m_primary>  (2241) 
energy

$$$$
6:0
     RDKit          3D

 23 25  0  0  0  0  0  0  0  0999 V2000
   57.7730   26.4540   44.3270 O   0  0  0  0  0  0  0  0  0  0  0  0
   57.2410   26.1640   45.4330 C   0  0  0  0  0  0  0  0  0  0  0  0
   57.4980   27.0610   46.6150 C   0  0  0  0  0  0  0  0  0  0  0  0
   57.6480   28.4550   46.1890 N   0  0  0  0  0  0  0  0  0  0  0  0
   58.7070   29.2650   46.4080 C   0  0  0  0  0  0  0  0  0  0  0  0
   59.8540   28.8900   47.0990 O   0  0  0  0  0  0  0  0  0  0  0  0
   58.4900   30.5040   45.8400 C   0  0  0  0  0  0  0  0  0  0  0  0
   57.2580   30.4500   45.2380 C   0  0  0  0  0  0  0  0  0  0  0  0
   56.7690   29.1790   45.4620 C   0  0  0  0  0  0  0  0  0  0  0  0
   55.5470   28.6970   45.0050 O   0  0  0  0  0  0  0  0  0  0  0  0
   56.6410   31.5820   44.4850 C   0  0  0  0  0  0  0  0  0  0  0  0
   57.5170   32.8190   44.5130 C   0  0  0  0  0  0  0  0  0  0  0  0
   58.7320   32.8730   45.1050 C   0  0  0  0  0  0  0  0  0  0  0  0
   59.3810   31.7050   45.8190 C   0  0  0  0  0  0  0  0  0  0  0  0
   56.3460   24.9840   45.5150 C   0  0  0  0  0  0  0  0  0  0  0  0
   56.8910   23.7010   45.3610 C   0  0  0  0  0  0  0  0  0  0  0  0
   56.0680   22.5730   45.3990 C   0  0  0  0  0  0  0  0  0  0  0  0
   56.7670   20.9750   45.1830 Cl  0  0  0  0  0  0  0  0  0  0  0  0
   54.6940   22.7400   45.6030 C   0  0  0  0  0  0  0  0  0  0  0  0
   53.9270   21.7420   45.6370 O   0  0  0  0  0  0  0  0  0  0  0  0
   54.1810   23.9860   45.7720 N   0  0  0  0  0  0  0  0  0  0  0  0
   54.9590   25.1000   45.7390 C   0  0  0  0  0  0  0  0  0  0  0  0
   54.3690   26.3370   45.9600 O   0  0  0  0  0  0  0  0  0  0  0  0
  1  2  2  0
  2  3  1  0
  3  4  1  0
  4  5  1  0
  5  6  1  0
  5  7  2  0
  7  8  1  0
  8  9  2  0
  9 10  1  0
  8 11  1  0
 11 12  1  0
 12 13  2  0
 13 14  1  0
  2 15  1  0
 15 16  1  0
 16 17  2  0
 17 18  1  0
 17 19  1  0
 19 20  2  0
 19 21  1  0
 21 22  1  0
 22 23  1  0
  9  4  1  0
 22 15  2  0
 14  7  1  0
M  CHG  4   6  -1  10  -1  21  -1  23  -1
M  END
>  <UniqueID>  (2242) 
7

>  <SMILES>  (2242) 
O=C(Cn1c([O-])c2c(c1[O-])CC=CC2)c1cc(Cl)c(=O)[n-]c1[O-]

>  <Energy>  (2242) 
71.80383999268905

>  <Genealogy>  (2242) 
O=C(Cn1c([O-])c2c(c1[O-])CC=CC2)c1cc(Cl)c(=O)[n-]c1[O-] (protonated)
O=C(Cn1c([O-])c2c(c1[O-])CC=CC2)c1cc(Cl)c(=O)[n-]c1[O-] (3D coordinates assigned)
O=C(Cn1c([O-])c2c(c1[O-])CC=CC2)c1cc(Cl)c(=O)[n-]c1[O-] (nonaromatic ring conformer: 71.80383999268905 kcal/mol)

>  <smiles>  (2242) 
O=C(Cn1c(O)c2c(c1O)CC=CC2)c1cc(Cl)c(=O)[nH]c1O

>  <score_type>  (2242) 
oracle

>  <origin>  (2242) 
adg

>  <m_score__min__energy>  (2242) 
-16.370000000000001

>  <m_primary>  (2242) 
energy

$$$$
15:0
     RDKit          3D

 34 38  0  0  0  0  0  0  0  0999 V2000
   54.7910   24.5780   45.6350 C   0  0  0  0  0  0  0  0  0  0  0  0
   55.8600   24.6070   46.4140 C   0  0  0  0  0  0  0  0  0  0  0  0
   56.8700   25.6870   46.4420 C   0  0  0  0  0  0  0  0  0  0  0  0
   58.1340   25.4830   46.8730 N   0  0  0  0  0  0  0  0  0  0  0  0
   58.7660   26.6720   46.7720 C   0  0  0  0  0  0  0  0  0  0  0  0
   57.9140   27.6410   46.2800 C   0  0  0  0  0  0  0  0  0  0  0  0
   58.2280   29.0610   46.0690 C   0  0  0  0  0  0  0  0  0  0  0  0
   57.7340   29.6740   45.0840 O   0  0  0  0  0  0  0  0  0  0  0  0
   59.1480   29.7260   46.9420 N   0  0  0  0  0  0  0  0  0  0  0  0
   58.8690   30.4250   48.0080 C   0  0  0  0  0  0  0  0  0  0  0  0
   58.7010   29.8660   49.2560 C   0  0  0  0  0  0  0  0  0  0  0  0
   58.5180   30.9580   50.0850 C   0  0  0  0  0  0  0  0  0  0  0  0
   58.3540   30.9240   51.5470 C   0  0  0  0  0  0  0  0  0  0  0  0
   59.3430   31.1930   52.2830 O   0  0  0  0  0  0  0  0  0  0  0  0
   57.1020   30.5620   52.1480 N   0  0  0  0  0  0  0  0  0  0  0  0
   55.9950   31.5320   52.1620 C   0  0  0  0  0  0  0  0  0  0  0  0
   54.6880   30.8060   52.1390 C   0  0  0  0  0  0  0  0  0  0  0  0
   53.6930   31.2830   51.5310 O   0  0  0  0  0  0  0  0  0  0  0  0
   54.5800   29.5690   52.8350 N   0  0  0  0  0  0  0  0  0  0  0  0
   55.7030   29.1170   53.6440 C   0  0  0  0  0  0  0  0  0  0  0  0
   57.0190   29.2750   52.8680 C   0  0  0  0  0  0  0  0  0  0  0  0
   58.5500   32.0980   49.3650 N   0  0  0  0  0  0  0  0  0  0  0  0
   58.7540   31.7750   48.0960 N   0  0  0  0  0  0  0  0  0  0  0  0
   58.6170   32.7440   47.0450 C   0  0  0  0  0  0  0  0  0  0  0  0
   59.5310   33.8050   46.9290 C   0  0  0  0  0  0  0  0  0  0  0  0
   59.4030   34.7340   45.8920 C   0  0  0  0  0  0  0  0  0  0  0  0
   58.3750   34.5970   44.9540 C   0  0  0  0  0  0  0  0  0  0  0  0
   57.4820   33.5250   45.0460 C   0  0  0  0  0  0  0  0  0  0  0  0
   57.6060   32.5960   46.0840 C   0  0  0  0  0  0  0  0  0  0  0  0
   56.7060   27.0120   46.0780 C   0  0  0  0  0  0  0  0  0  0  0  0
   55.5410   27.6170   45.6210 O   0  0  0  0  0  0  0  0  0  0  0  0
   55.9730   23.3820   47.2500 C   0  0  0  0  0  0  0  0  0  0  0  0
   54.6960   22.5930   46.9480 C   0  0  0  0  0  0  0  0  0  0  0  0
   53.9920   23.3420   45.8150 C   0  0  0  0  0  0  0  0  0  0  0  0
  1  2  2  0
  2  3  1  0
  3  4  1  0
  4  5  1  0
  5  6  2  0
  6  7  1  0
  7  8  2  0
  7  9  1  0
  9 10  2  0
 10 11  1  0
 11 12  2  0
 12 13  1  0
 13 14  2  0
 13 15  1  0
 15 16  1  0
 16 17  1  0
 17 18  2  0
 17 19  1  0
 19 20  1  0
 20 21  1  0
 12 22  1  0
 22 23  1  0
 23 24  1  0
 24 25  2  0
 25 26  1  0
 26 27  2  0
 27 28  1  0
 28 29  2  0
  6 30  1  0
 30 31  1  0
  2 32  1  0
 32 33  1  0
 33 34  1  0
 34  1  1  0
 30  3  2  0
 23 10  1  0
 29 24  1  0
 21 15  1  0
M  CHG  4   4  -1  19  -1  22  -1  31  -1
M  END
>  <UniqueID>  (2243) 
16

>  <SMILES>  (2243) 
O=C1CN(C(=O)c2c/c(=N/C(=O)c3c[n-]c(C4=CCCC4)c3[O-])n(-c3ccccc3)[n-]2)CC[N-]1

>  <Energy>  (2243) 
139.7374435372388

>  <Genealogy>  (2243) 
O=C1CN(C(=O)c2cc(=NC(=O)c3c[n-]c(C4=CCCC4)c3[O-])n(-c3ccccc3)[n-]2)CC[N-]1 (protonated)
O=C1CN(C(=O)c2c/c(=N/C(=O)c3c[n-]c(C4=CCCC4)c3[O-])n(-c3ccccc3)[n-]2)CC[N-]1 (cis-trans isomerization)
O=C1CN(C(=O)c2c/c(=N/C(=O)c3c[n-]c(C4=CCCC4)c3[O-])n(-c3ccccc3)[n-]2)CC[N-]1 (3D coordinates assigned)
O=C1CN(C(=O)c2c/c(=N/C(=O)c3c[n-]c(C4=CCCC4)c3[O-])n(-c3ccccc3)[n-]2)CC[N-]1 (nonaromatic ring conformer: 139.7374435372388 kcal/mol)

>  <smiles>  (2243) 
O=C1CN(C(=O)c2cc(=NC(=O)c3c[nH]c(C4=CCCC4)c3O)n(-c3ccccc3)[nH]2)CCN1

>  <score_type>  (2243) 
oracle

>  <origin>  (2243) 
adg

>  <m_score__min__energy>  (2243) 
-15.359999999999999

>  <m_primary>  (2243) 
energy

$$$$
16:0
     RDKit          3D

 27 29  0  0  0  0  0  0  0  0999 V2000
   58.9270   29.2000   48.0370 C   0  0  0  0  0  0  0  0  0  0  0  0
   58.5710   30.0070   47.0250 C   0  0  0  0  0  0  0  0  0  0  0  0
   58.3080   29.6340   45.7010 C   0  0  0  0  0  0  0  0  0  0  0  0
   58.3780   28.3900   45.1840 C   0  0  0  0  0  0  0  0  0  0  0  0
   57.5010   27.2760   45.5840 C   0  0  0  0  0  0  0  0  0  0  0  0
   56.1090   27.4370   45.6140 C   0  0  0  0  0  0  0  0  0  0  0  0
   55.5270   28.6390   45.2290 O   0  0  0  0  0  0  0  0  0  0  0  0
   55.3170   26.4110   46.0200 N   0  0  0  0  0  0  0  0  0  0  0  0
   55.8520   25.2250   46.4120 C   0  0  0  0  0  0  0  0  0  0  0  0
   55.0990   24.2880   46.7810 O   0  0  0  0  0  0  0  0  0  0  0  0
   57.1990   25.0520   46.4070 N   0  0  0  0  0  0  0  0  0  0  0  0
   58.0330   26.0490   46.0100 C   0  0  0  0  0  0  0  0  0  0  0  0
   59.2790   25.8590   46.0260 O   0  0  0  0  0  0  0  0  0  0  0  0
   57.9570   30.8350   45.0700 C   0  0  0  0  0  0  0  0  0  0  0  0
   57.5510   31.0580   43.6440 C   0  0  0  0  0  0  0  0  0  0  0  0
   58.0160   31.8340   45.9710 N   0  0  0  0  0  0  0  0  0  0  0  0
   58.3900   31.3460   47.1420 N   0  0  0  0  0  0  0  0  0  0  0  0
   58.5120   32.1660   48.3530 C   0  0  0  0  0  0  0  0  0  0  0  0
   59.5360   33.2510   48.1620 C   0  0  0  0  0  0  0  0  0  0  0  0
   59.1910   34.3260   47.5970 O   0  0  0  0  0  0  0  0  0  0  0  0
   60.9070   33.0720   48.5730 N   0  0  0  0  0  0  0  0  0  0  0  0
   61.6640   34.2170   49.1030 C   0  0  0  0  0  0  0  0  0  0  0  0
   63.0760   34.2460   48.5130 C   0  0  0  0  0  0  0  0  0  0  0  0
   63.7000   32.8840   48.6100 C   0  0  0  0  0  0  0  0  0  0  0  0
   64.8570   32.7570   48.9850 O   0  0  0  0  0  0  0  0  0  0  0  0
   62.9150   31.6900   48.1510 C   0  0  0  0  0  0  0  0  0  0  0  0
   61.4930   31.7300   48.7250 C   0  0  0  0  0  0  0  0  0  0  0  0
  1  2  2  0
  2  3  1  0
  3  4  2  3
  4  5  1  0
  5  6  2  0
  6  7  1  0
  6  8  1  0
  8  9  1  0
  9 10  2  0
  9 11  1  0
 11 12  1  0
 12 13  2  0
  3 14  1  0
 14 15  1  0
 14 16  2  0
 16 17  1  0
 17 18  1  0
 18 19  1  0
 19 20  2  0
 19 21  1  0
 21 22  1  0
 22 23  1  0
 23 24  1  0
 24 25  2  0
 24 26  1  0
 26 27  1  0
 17  2  1  0
 27 21  1  0
 12  5  1  0
M  CHG  4   7  -1   8  -1  11  -1  16   1
M  END
>  <UniqueID>  (2244) 
17

>  <SMILES>  (2244) 
C=c1c(=Cc2c([O-])[n-]c(=O)[n-]c2=O)c(C)[nH+]n1CC(=O)N1CCC(=O)CC1

>  <Energy>  (2244) 
90.54765682211244

>  <Genealogy>  (2244) 
C=c1c(=Cc2c([O-])[n-]c(=O)[n-]c2=O)c(C)[nH+]n1CC(=O)N1CCC(=O)CC1 (protonated)
C=c1c(=Cc2c([O-])[n-]c(=O)[n-]c2=O)c(C)[nH+]n1CC(=O)N1CCC(=O)CC1 (3D coordinates assigned)
C=c1c(=Cc2c([O-])[n-]c(=O)[n-]c2=O)c(C)[nH+]n1CC(=O)N1CCC(=O)CC1 (nonaromatic ring conformer: 90.54765682211244 kcal/mol)

>  <smiles>  (2244) 
C=c1c(=Cc2c(O)[nH]c(=O)[nH]c2=O)c(C)nn1CC(=O)N1CCC(=O)CC1

>  <score_type>  (2244) 
oracle

>  <origin>  (2244) 
adg

>  <m_score__min__energy>  (2244) 
-14.869999999999999

>  <m_primary>  (2244) 
energy

$$$$
17:0
     RDKit          3D

 30 33  0  0  0  0  0  0  0  0999 V2000
   53.6130   28.8990   54.4680 C   0  0  0  0  0  0  0  0  0  0  0  0
   54.3830   29.3980   53.4880 C   0  0  0  0  0  0  0  0  0  0  0  0
   54.1050   30.5190   52.6910 C   0  0  0  0  0  0  0  0  0  0  0  0
   52.9700   31.2240   52.5200 C   0  0  0  0  0  0  0  0  0  0  0  0
   52.1360   31.2260   51.3070 C   0  0  0  0  0  0  0  0  0  0  0  0
   52.2020   30.3020   50.3290 N   0  0  0  0  0  0  0  0  0  0  0  0
   51.3690   30.7900   49.3850 C   0  0  0  0  0  0  0  0  0  0  0  0
   51.1460   30.1890   48.3010 O   0  0  0  0  0  0  0  0  0  0  0  0
   50.8000   31.9770   49.6880 N   0  0  0  0  0  0  0  0  0  0  0  0
   51.3080   32.2440   50.9010 C   0  0  0  0  0  0  0  0  0  0  0  0
   51.0250   33.3970   51.6210 O   0  0  0  0  0  0  0  0  0  0  0  0
   55.2830   30.8270   52.0340 C   0  0  0  0  0  0  0  0  0  0  0  0
   56.2060   29.8630   52.3860 C   0  0  0  0  0  0  0  0  0  0  0  0
   57.6150   29.8660   51.9430 C   0  0  0  0  0  0  0  0  0  0  0  0
   58.4030   28.9720   52.3500 O   0  0  0  0  0  0  0  0  0  0  0  0
   58.1100   30.8910   51.0780 N   0  0  0  0  0  0  0  0  0  0  0  0
   58.3450   32.2870   51.1910 C   0  0  0  0  0  0  0  0  0  0  0  0
   58.8640   32.4700   49.8650 C   0  0  0  0  0  0  0  0  0  0  0  0
   59.2770   33.4490   49.0570 C   0  0  0  0  0  0  0  0  0  0  0  0
   60.6580   33.5620   48.5290 C   0  0  0  0  0  0  0  0  0  0  0  0
   60.9310   33.5000   47.1490 C   0  0  0  0  0  0  0  0  0  0  0  0
   62.2400   33.6250   46.6780 C   0  0  0  0  0  0  0  0  0  0  0  0
   63.2910   33.8260   47.5740 C   0  0  0  0  0  0  0  0  0  0  0  0
   63.0340   33.9090   48.9440 C   0  0  0  0  0  0  0  0  0  0  0  0
   61.7250   33.7830   49.4240 C   0  0  0  0  0  0  0  0  0  0  0  0
   61.4970   33.8680   50.7930 O   0  0  0  0  0  0  0  0  0  0  0  0
   58.6790   30.9830   49.7340 C   0  0  0  0  0  0  0  0  0  0  0  0
   58.9260   30.1520   48.8210 O   0  0  0  0  0  0  0  0  0  0  0  0
   55.6540   28.9770   53.2490 N   0  0  0  0  0  0  0  0  0  0  0  0
   56.3340   27.8330   53.8680 C   0  0  0  0  0  0  0  0  0  0  0  0
  1  2  2  0
  2  3  1  0
  3  4  2  3
  4  5  1  0
  5  6  1  0
  6  7  1  0
  7  8  2  0
  7  9  1  0
  9 10  1  0
 10 11  1  0
  3 12  1  0
 12 13  2  0
 13 14  1  0
 14 15  2  0
 14 16  1  0
 16 17  1  0
 17 18  1  0
 18 19  2  3
 19 20  1  0
 20 21  2  0
 21 22  1  0
 22 23  2  0
 23 24  1  0
 24 25  2  0
 25 26  1  0
 18 27  1  0
 27 28  2  0
 13 29  1  0
 29 30  1  0
 29  2  1  0
 10  5  2  0
 27 16  1  0
 25 20  1  0
M  CHG  4   6  -1   9  -1  11  -1  26  -1
M  END
>  <UniqueID>  (2245) 
18

>  <SMILES>  (2245) 
C=c1c(=Cc2[n-]c(=O)[n-]c2[O-])cc(C(=O)N2CC(=Cc3ccccc3[O-])C2=O)n1C

>  <Energy>  (2245) 
131.91046105913674

>  <Genealogy>  (2245) 
C=c1c(=Cc2[n-]c(=O)[n-]c2[O-])cc(C(=O)N2CC(=Cc3ccccc3[O-])C2=O)n1C (protonated)
C=c1c(=Cc2[n-]c(=O)[n-]c2[O-])cc(C(=O)N2CC(=Cc3ccccc3[O-])C2=O)n1C (3D coordinates assigned)
C=c1c(=Cc2[n-]c(=O)[n-]c2[O-])cc(C(=O)N2CC(=Cc3ccccc3[O-])C2=O)n1C (nonaromatic ring conformer: 131.91046105913674 kcal/mol)

>  <smiles>  (2245) 
C=c1c(=Cc2[nH]c(=O)[nH]c2O)cc(C(=O)N2CC(=Cc3ccccc3O)C2=O)n1C

>  <score_type>  (2245) 
oracle

>  <origin>  (2245) 
adg

>  <m_score__min__energy>  (2245) 
-19.449999999999999

>  <m_primary>  (2245) 
energy

$$$$
20:0
     RDKit          3D

 26 27  0  0  0  0  0  0  0  0999 V2000
   59.7970   34.5550   48.9390 C   0  0  0  0  0  0  0  0  0  0  0  0
   59.7620   34.7370   47.5270 O   0  0  0  0  0  0  0  0  0  0  0  0
   59.0930   33.8860   46.6340 C   0  0  0  0  0  0  0  0  0  0  0  0
   58.0580   34.3450   45.7970 C   0  0  0  0  0  0  0  0  0  0  0  0
   57.4310   33.4730   44.9070 C   0  0  0  0  0  0  0  0  0  0  0  0
   57.8060   32.1240   44.8540 C   0  0  0  0  0  0  0  0  0  0  0  0
   57.1320   31.1940   43.8830 C   0  0  0  0  0  0  0  0  0  0  0  0
   57.3450   29.8080   44.2840 N   0  0  0  0  0  0  0  0  0  0  0  0
   56.3460   29.0040   44.9190 C   0  0  0  0  0  0  0  0  0  0  0  0
   55.1400   29.3710   44.9270 O   0  0  0  0  0  0  0  0  0  0  0  0
   56.7300   27.6840   45.5120 C   0  0  0  0  0  0  0  0  0  0  0  0
   55.5510   26.9410   45.9500 N   0  0  0  0  0  0  0  0  0  0  0  0
   55.3400   25.5300   45.8050 C   0  0  0  0  0  0  0  0  0  0  0  0
   54.1580   25.1020   45.7270 O   0  0  0  0  0  0  0  0  0  0  0  0
   56.4580   24.5620   45.7630 C   0  0  0  0  0  0  0  0  0  0  0  0
   57.2220   24.4000   44.5990 C   0  0  0  0  0  0  0  0  0  0  0  0
   58.2140   23.4730   44.5570 N   0  0  0  0  0  0  0  0  0  0  0  0
   58.4760   22.6830   45.6290 C   0  0  0  0  0  0  0  0  0  0  0  0
   59.4000   21.8320   45.5700 O   0  0  0  0  0  0  0  0  0  0  0  0
   57.7390   22.8060   46.7620 N   0  0  0  0  0  0  0  0  0  0  0  0
   56.7390   23.7210   46.8540 C   0  0  0  0  0  0  0  0  0  0  0  0
   56.0800   23.8100   47.9230 O   0  0  0  0  0  0  0  0  0  0  0  0
   58.8360   31.6620   45.6840 C   0  0  0  0  0  0  0  0  0  0  0  0
   59.4860   32.5400   46.5750 C   0  0  0  0  0  0  0  0  0  0  0  0
   60.5310   32.1140   47.4100 O   0  0  0  0  0  0  0  0  0  0  0  0
   61.9060   32.4190   47.2000 C   0  0  0  0  0  0  0  0  0  0  0  0
  1  2  1  0
  2  3  1  0
  3  4  2  0
  4  5  1  0
  5  6  2  0
  6  7  1  0
  7  8  1  0
  8  9  1  0
  9 10  2  0
  9 11  1  0
 11 12  1  0
 12 13  1  0
 13 14  2  0
 13 15  1  0
 15 16  2  0
 16 17  1  0
 17 18  1  0
 18 19  2  0
 18 20  1  0
 20 21  1  0
 21 22  2  0
  6 23  1  0
 23 24  2  0
 24 25  1  0
 25 26  1  0
 24  3  1  0
 21 15  1  0
M  CHG  4   8  -1  12  -1  17  -1  20  -1
M  END
>  <UniqueID>  (2246) 
21

>  <SMILES>  (2246) 
COc1ccc(C[N-]C(=O)C[N-]C(=O)c2c[n-]c(=O)[n-]c2=O)cc1OC

>  <Energy>  (2246) 
37.78116487520134

>  <Genealogy>  (2246) 
COc1ccc(C[N-]C(=O)C[N-]C(=O)c2c[n-]c(=O)[n-]c2=O)cc1OC (protonated)
COc1ccc(C[N-]C(=O)C[N-]C(=O)c2c[n-]c(=O)[n-]c2=O)cc1OC (3D coordinates assigned)
COc1ccc(C[N-]C(=O)C[N-]C(=O)c2c[n-]c(=O)[n-]c2=O)cc1OC (optimized conformer: 37.78116487520134 kcal/mol)

>  <smiles>  (2246) 
COc1ccc(CNC(=O)CNC(=O)c2c[nH]c(=O)[nH]c2=O)cc1OC

>  <score_type>  (2246) 
oracle

>  <origin>  (2246) 
adg

>  <m_score__min__energy>  (2246) 
-14.140000000000001

>  <m_primary>  (2246) 
energy

$$$$
23:0
     RDKit          3D

 35 39  0  0  0  0  0  0  0  0999 V2000
   57.0130   29.4890   43.7840 C   0  0  0  0  0  0  0  0  0  0  0  0
   57.7480   29.1640   44.8580 C   0  0  0  0  0  0  0  0  0  0  0  0
   57.9710   27.8780   45.3760 C   0  0  0  0  0  0  0  0  0  0  0  0
   57.7070   26.6610   44.8620 C   0  0  0  0  0  0  0  0  0  0  0  0
   57.0360   25.5590   45.5740 C   0  0  0  0  0  0  0  0  0  0  0  0
   57.6320   24.4110   45.9470 N   0  0  0  0  0  0  0  0  0  0  0  0
   56.6830   23.7900   46.6790 C   0  0  0  0  0  0  0  0  0  0  0  0
   56.8630   22.6600   47.2040 O   0  0  0  0  0  0  0  0  0  0  0  0
   55.5310   24.4810   46.8180 N   0  0  0  0  0  0  0  0  0  0  0  0
   55.7780   25.6030   46.1230 C   0  0  0  0  0  0  0  0  0  0  0  0
   54.8720   26.6500   45.9970 O   0  0  0  0  0  0  0  0  0  0  0  0
   58.6020   28.0560   46.5970 C   0  0  0  0  0  0  0  0  0  0  0  0
   58.8000   29.4120   46.7520 C   0  0  0  0  0  0  0  0  0  0  0  0
   59.5090   30.0460   47.9090 C   0  0  0  0  0  0  0  0  0  0  0  0
   58.2970   30.0850   45.6930 N   0  0  0  0  0  0  0  0  0  0  0  0
   58.2860   31.5140   45.5440 C   0  0  0  0  0  0  0  0  0  0  0  0
   57.4120   32.1170   44.6300 C   0  0  0  0  0  0  0  0  0  0  0  0
   57.3940   33.5080   44.4910 C   0  0  0  0  0  0  0  0  0  0  0  0
   58.2570   34.3020   45.2510 C   0  0  0  0  0  0  0  0  0  0  0  0
   59.1640   33.7050   46.1430 C   0  0  0  0  0  0  0  0  0  0  0  0
   60.0730   34.5160   46.9770 C   0  0  0  0  0  0  0  0  0  0  0  0
   59.7140   35.6800   47.2960 O   0  0  0  0  0  0  0  0  0  0  0  0
   61.3020   33.9770   47.5080 N   0  0  0  0  0  0  0  0  0  0  0  0
   61.7690   34.4150   48.8310 C   0  0  0  0  0  0  0  0  0  0  0  0
   62.2410   33.2030   49.6470 C   0  0  0  0  0  0  0  0  0  0  0  0
   63.2280   32.2810   48.8700 C   0  0  0  0  0  0  0  0  0  0  0  0
   64.4840   32.0990   49.6450 N   0  0  0  0  0  0  0  0  0  0  0  0
   65.2470   33.3530   49.8300 C   0  0  0  0  0  0  0  0  0  0  0  0
   66.3940   33.1520   50.8420 C   0  0  0  0  0  0  0  0  0  0  0  0
   66.7800   31.7920   50.8890 O   0  0  0  0  0  0  0  0  0  0  0  0
   65.7410   30.9960   51.4450 C   0  0  0  0  0  0  0  0  0  0  0  0
   64.3400   31.3760   50.9230 C   0  0  0  0  0  0  0  0  0  0  0  0
   63.4610   32.7470   47.4060 C   0  0  0  0  0  0  0  0  0  0  0  0
   62.1250   33.0480   46.7150 C   0  0  0  0  0  0  0  0  0  0  0  0
   59.1640   32.3110   46.2940 C   0  0  0  0  0  0  0  0  0  0  0  0
  1  2  2  0
  2  3  1  0
  3  4  2  3
  4  5  1  0
  5  6  1  0
  6  7  1  0
  7  8  2  0
  7  9  1  0
  9 10  1  0
 10 11  1  0
  3 12  1  0
 12 13  2  0
 13 14  1  0
 13 15  1  0
 15 16  1  0
 16 17  2  0
 17 18  1  0
 18 19  2  0
 19 20  1  0
 20 21  1  0
 21 22  2  0
 21 23  1  0
 23 24  1  0
 24 25  1  0
 25 26  1  0
 26 27  1  0
 27 28  1  0
 28 29  1  0
 29 30  1  0
 30 31  1  0
 31 32  1  0
 26 33  1  0
 33 34  1  0
 20 35  2  0
 15  2  1  0
 35 16  1  0
 10  5  2  0
 34 23  1  0
 32 27  1  0
M  CHG  3   6  -1   9  -1  11  -1
M  END
>  <UniqueID>  (2247) 
24

>  <SMILES>  (2247) 
C=c1c(=Cc2[n-]c(=O)[n-]c2[O-])cc(C)n1-c1cccc(C(=O)N2CCC(N3CCOCC3)CC2)c1

>  <Energy>  (2247) 
167.63671292928908

>  <Genealogy>  (2247) 
C=c1c(=Cc2[n-]c(=O)[n-]c2[O-])cc(C)n1-c1cccc(C(=O)N2CCC(N3CCOCC3)CC2)c1 (protonated)
C=c1c(=Cc2[n-]c(=O)[n-]c2[O-])cc(C)n1-c1cccc(C(=O)N2CCC(N3CCOCC3)CC2)c1 (3D coordinates assigned)
C=c1c(=Cc2[n-]c(=O)[n-]c2[O-])cc(C)n1-c1cccc(C(=O)N2CCC(N3CCOCC3)CC2)c1 (nonaromatic ring conformer: 167.63671292928908 kcal/mol)

>  <smiles>  (2247) 
C=c1c(=Cc2[nH]c(=O)[nH]c2O)cc(C)n1-c1cccc(C(=O)N2CCC(N3CCOCC3)CC2)c1

>  <score_type>  (2247) 
oracle

>  <origin>  (2247) 
adg

>  <m_score__min__energy>  (2247) 
-18.370000000000001

>  <m_primary>  (2247) 
energy

$$$$
26:0
     RDKit          3D

 33 36  0  0  0  0  0  0  0  0999 V2000
   54.9930   26.4210   46.0470 O   0  0  0  0  0  0  0  0  0  0  0  0
   55.9990   25.5410   46.4400 C   0  0  0  0  0  0  0  0  0  0  0  0
   55.7530   24.3880   47.0870 N   0  0  0  0  0  0  0  0  0  0  0  0
   56.9890   23.8760   47.2650 C   0  0  0  0  0  0  0  0  0  0  0  0
   57.1910   22.7790   47.8470 O   0  0  0  0  0  0  0  0  0  0  0  0
   57.9910   24.6360   46.7730 N   0  0  0  0  0  0  0  0  0  0  0  0
   57.3550   25.6930   46.2360 C   0  0  0  0  0  0  0  0  0  0  0  0
   58.0200   26.8650   45.6210 C   0  0  0  0  0  0  0  0  0  0  0  0
   58.4570   27.9500   46.2970 C   0  0  0  0  0  0  0  0  0  0  0  0
   58.4010   28.1470   47.6670 C   0  0  0  0  0  0  0  0  0  0  0  0
   58.9820   29.3730   47.9260 C   0  0  0  0  0  0  0  0  0  0  0  0
   59.0880   29.9390   49.2910 C   0  0  0  0  0  0  0  0  0  0  0  0
   58.3630   29.5140   50.2270 O   0  0  0  0  0  0  0  0  0  0  0  0
   60.0470   30.9730   49.5510 N   0  0  0  0  0  0  0  0  0  0  0  0
   61.4860   30.7410   49.6220 C   0  0  0  0  0  0  0  0  0  0  0  0
   62.2270   31.8500   48.9230 C   0  0  0  0  0  0  0  0  0  0  0  0
   62.0970   33.1740   49.3720 C   0  0  0  0  0  0  0  0  0  0  0  0
   62.7630   34.2110   48.7090 C   0  0  0  0  0  0  0  0  0  0  0  0
   63.5560   33.9330   47.5920 C   0  0  0  0  0  0  0  0  0  0  0  0
   63.6840   32.6180   47.1350 C   0  0  0  0  0  0  0  0  0  0  0  0
   63.0230   31.5790   47.7960 C   0  0  0  0  0  0  0  0  0  0  0  0
   59.4120   29.9490   46.7700 N   0  0  0  0  0  0  0  0  0  0  0  0
   60.0980   31.2520   46.6490 C   0  0  0  0  0  0  0  0  0  0  0  0
   59.1770   32.3220   46.1060 C   0  0  0  0  0  0  0  0  0  0  0  0
   57.8520   31.9950   45.7640 C   0  0  0  0  0  0  0  0  0  0  0  0
   56.9920   32.9650   45.2410 C   0  0  0  0  0  0  0  0  0  0  0  0
   57.4490   34.2680   45.0350 C   0  0  0  0  0  0  0  0  0  0  0  0
   56.6160   35.2060   44.5220 F   0  0  0  0  0  0  0  0  0  0  0  0
   58.7710   34.6000   45.3420 C   0  0  0  0  0  0  0  0  0  0  0  0
   59.6360   33.6340   45.8690 C   0  0  0  0  0  0  0  0  0  0  0  0
   60.9200   33.9830   46.1310 F   0  0  0  0  0  0  0  0  0  0  0  0
   59.0930   29.0810   45.7660 C   0  0  0  0  0  0  0  0  0  0  0  0
   59.3570   29.2860   44.4630 C   0  0  0  0  0  0  0  0  0  0  0  0
  1  2  1  0
  2  3  1  0
  3  4  1  0
  4  5  2  0
  4  6  1  0
  6  7  1  0
  7  8  1  0
  8  9  2  0
  9 10  1  0
 10 11  2  0
 11 12  1  0
 12 13  2  0
 12 14  1  0
 14 15  1  0
 15 16  1  0
 16 17  2  0
 17 18  1  0
 18 19  2  0
 19 20  1  0
 20 21  2  0
 11 22  1  0
 22 23  1  0
 23 24  1  0
 24 25  2  0
 25 26  1  0
 26 27  2  0
 27 28  1  0
 27 29  1  0
 29 30  2  0
 30 31  1  0
 22 32  1  0
 32 33  2  0
  7  2  2  0
 32  9  1  0
 21 16  1  0
 30 24  1  0
M  CHG  3   3  -1   6  -1  14  -1
M  END
>  <UniqueID>  (2248) 
27

>  <SMILES>  (2248) 
C=c1/c(=C/c2[n-]c(=O)[n-]c2O)cc(C(=O)[N-]Cc2ccccc2)n1Cc1ccc(F)cc1F

>  <Energy>  (2248) 
118.62736268729235

>  <Genealogy>  (2248) 
C=c1c(=Cc2[n-]c(=O)[n-]c2O)cc(C(=O)[N-]Cc2ccccc2)n1Cc1ccc(F)cc1F (protonated)
C=c1/c(=C/c2[n-]c(=O)[n-]c2O)cc(C(=O)[N-]Cc2ccccc2)n1Cc1ccc(F)cc1F (cis-trans isomerization)
C=c1/c(=C/c2[n-]c(=O)[n-]c2O)cc(C(=O)[N-]Cc2ccccc2)n1Cc1ccc(F)cc1F (3D coordinates assigned)
C=c1/c(=C/c2[n-]c(=O)[n-]c2O)cc(C(=O)[N-]Cc2ccccc2)n1Cc1ccc(F)cc1F (optimized conformer: 118.62736268729235 kcal/mol)

>  <smiles>  (2248) 
C=c1c(=Cc2[nH]c(=O)[nH]c2O)cc(C(=O)NCc2ccccc2)n1Cc1ccc(F)cc1F

>  <score_type>  (2248) 
oracle

>  <origin>  (2248) 
adg

>  <m_score__min__energy>  (2248) 
-14.789999999999999

>  <m_primary>  (2248) 
energy

$$$$
28:0
     RDKit          3D

 30 33  0  0  0  0  0  0  0  0999 V2000
   56.2370   28.6520   45.2460 C   0  0  0  0  0  0  0  0  0  0  0  0
   57.4370   28.4990   45.8300 C   0  0  0  0  0  0  0  0  0  0  0  0
   57.8540   27.4430   46.6600 C   0  0  0  0  0  0  0  0  0  0  0  0
   57.2700   26.2650   46.9550 C   0  0  0  0  0  0  0  0  0  0  0  0
   56.7610   25.2870   45.9730 C   0  0  0  0  0  0  0  0  0  0  0  0
   55.4390   25.3460   45.5040 C   0  0  0  0  0  0  0  0  0  0  0  0
   54.5620   26.3150   45.9830 O   0  0  0  0  0  0  0  0  0  0  0  0
   55.0090   24.4550   44.5690 N   0  0  0  0  0  0  0  0  0  0  0  0
   55.8500   23.5160   44.0610 C   0  0  0  0  0  0  0  0  0  0  0  0
   55.4380   22.6970   43.1970 O   0  0  0  0  0  0  0  0  0  0  0  0
   57.1400   23.4610   44.4800 N   0  0  0  0  0  0  0  0  0  0  0  0
   57.6150   24.3250   45.4130 C   0  0  0  0  0  0  0  0  0  0  0  0
   58.8200   24.2480   45.7740 O   0  0  0  0  0  0  0  0  0  0  0  0
   59.0830   27.8180   47.1760 C   0  0  0  0  0  0  0  0  0  0  0  0
   59.4010   29.0350   46.6120 C   0  0  0  0  0  0  0  0  0  0  0  0
   60.6610   29.7980   46.8910 C   0  0  0  0  0  0  0  0  0  0  0  0
   58.4060   29.4510   45.7970 N   0  0  0  0  0  0  0  0  0  0  0  0
   58.3880   30.6870   45.0590 C   0  0  0  0  0  0  0  0  0  0  0  0
   57.8420   30.7270   43.7680 C   0  0  0  0  0  0  0  0  0  0  0  0
   57.8250   31.9240   43.0500 C   0  0  0  0  0  0  0  0  0  0  0  0
   58.3610   33.0860   43.6110 C   0  0  0  0  0  0  0  0  0  0  0  0
   58.9300   33.0540   44.8960 C   0  0  0  0  0  0  0  0  0  0  0  0
   59.4620   34.2020   45.5010 O   0  0  0  0  0  0  0  0  0  0  0  0
   60.3150   34.2130   46.6140 C   0  0  0  0  0  0  0  0  0  0  0  0
   61.6660   33.8300   46.5210 C   0  0  0  0  0  0  0  0  0  0  0  0
   62.4800   33.8380   47.6590 C   0  0  0  0  0  0  0  0  0  0  0  0
   61.9510   34.2170   48.8960 C   0  0  0  0  0  0  0  0  0  0  0  0
   60.6050   34.5800   48.9970 C   0  0  0  0  0  0  0  0  0  0  0  0
   59.7900   34.5720   47.8620 C   0  0  0  0  0  0  0  0  0  0  0  0
   58.9240   31.8550   45.6200 C   0  0  0  0  0  0  0  0  0  0  0  0
  1  2  2  0
  2  3  1  0
  3  4  2  0
  4  5  1  0
  5  6  2  0
  6  7  1  0
  6  8  1  0
  8  9  1  0
  9 10  2  0
  9 11  1  0
 11 12  1  0
 12 13  2  0
  3 14  1  0
 14 15  2  0
 15 16  1  0
 15 17  1  0
 17 18  1  0
 18 19  2  0
 19 20  1  0
 20 21  2  0
 21 22  1  0
 22 23  1  0
 23 24  1  0
 24 25  2  0
 25 26  1  0
 26 27  2  0
 27 28  1  0
 28 29  2  0
 22 30  2  0
 17  2  1  0
 30 18  1  0
 12  5  1  0
 29 24  1  0
M  CHG  2   7  -1  11  -1
M  END
>  <UniqueID>  (2249) 
29

>  <SMILES>  (2249) 
C=c1/c(=C\c2c([O-])[nH]c(=O)[n-]c2=O)cc(C)n1-c1cccc(Oc2ccccc2)c1

>  <Energy>  (2249) 
106.75322874742

>  <Genealogy>  (2249) 
C=c1c(=Cc2c([O-])[nH]c(=O)[n-]c2=O)cc(C)n1-c1cccc(Oc2ccccc2)c1 (protonated)
C=c1/c(=C\c2c([O-])[nH]c(=O)[n-]c2=O)cc(C)n1-c1cccc(Oc2ccccc2)c1 (cis-trans isomerization)
C=c1/c(=C\c2c([O-])[nH]c(=O)[n-]c2=O)cc(C)n1-c1cccc(Oc2ccccc2)c1 (3D coordinates assigned)
C=c1/c(=C\c2c([O-])[nH]c(=O)[n-]c2=O)cc(C)n1-c1cccc(Oc2ccccc2)c1 (optimized conformer: 106.75322874742 kcal/mol)

>  <smiles>  (2249) 
C=c1c(=Cc2c(O)[nH]c(=O)[nH]c2=O)cc(C)n1-c1cccc(Oc2ccccc2)c1

>  <score_type>  (2249) 
oracle

>  <origin>  (2249) 
adg

>  <m_score__min__energy>  (2249) 
-14.949999999999999

>  <m_primary>  (2249) 
energy

$$$$
37:0
     RDKit          3D

 35 38  0  0  0  0  0  0  0  0999 V2000
   57.1940   33.6890   47.3510 O   0  0  0  0  0  0  0  0  0  0  0  0
   58.2660   33.0620   47.1200 C   0  0  0  0  0  0  0  0  0  0  0  0
   58.2870   32.0230   46.0670 C   0  0  0  0  0  0  0  0  0  0  0  0
   58.6740   30.7110   46.3890 C   0  0  0  0  0  0  0  0  0  0  0  0
   58.7130   29.7130   45.4020 C   0  0  0  0  0  0  0  0  0  0  0  0
   59.1230   28.3110   45.7650 C   0  0  0  0  0  0  0  0  0  0  0  0
   57.9160   27.4090   45.8430 C   0  0  0  0  0  0  0  0  0  0  0  0
   56.6340   27.9120   45.5810 C   0  0  0  0  0  0  0  0  0  0  0  0
   55.5530   27.0930   45.6410 N   0  0  0  0  0  0  0  0  0  0  0  0
   55.6910   25.7770   45.9430 C   0  0  0  0  0  0  0  0  0  0  0  0
   54.6770   25.0350   45.9940 O   0  0  0  0  0  0  0  0  0  0  0  0
   56.9240   25.2590   46.1870 N   0  0  0  0  0  0  0  0  0  0  0  0
   58.0350   26.0400   46.1430 C   0  0  0  0  0  0  0  0  0  0  0  0
   59.1630   25.5250   46.3720 O   0  0  0  0  0  0  0  0  0  0  0  0
   58.3300   30.0290   44.0890 C   0  0  0  0  0  0  0  0  0  0  0  0
   57.9240   31.3250   43.7680 C   0  0  0  0  0  0  0  0  0  0  0  0
   57.8980   32.3210   44.7480 C   0  0  0  0  0  0  0  0  0  0  0  0
   57.5180   33.5780   44.4040 F   0  0  0  0  0  0  0  0  0  0  0  0
   59.4390   33.3500   47.9010 N   0  0  0  0  0  0  0  0  0  0  0  0
   60.7360   33.4420   47.2110 C   0  0  0  0  0  0  0  0  0  0  0  0
   61.8470   34.0040   48.0980 C   0  0  0  0  0  0  0  0  0  0  0  0
   61.8100   33.4410   49.4560 N   0  0  0  0  0  0  0  0  0  0  0  0
   62.0640   32.0050   49.4640 C   0  0  0  0  0  0  0  0  0  0  0  0
   61.1610   31.2030   49.2570 O   0  0  0  0  0  0  0  0  0  0  0  0
   63.4500   31.4780   49.7310 C   0  0  0  0  0  0  0  0  0  0  0  0
   64.5140   32.3830   49.0940 C   0  0  0  0  0  0  0  0  0  0  0  0
   65.4480   32.9310   50.1440 C   0  0  0  0  0  0  0  0  0  0  0  0
   66.7990   32.5440   50.1500 C   0  0  0  0  0  0  0  0  0  0  0  0
   67.6830   33.0680   51.1000 C   0  0  0  0  0  0  0  0  0  0  0  0
   67.2250   33.9910   52.0450 C   0  0  0  0  0  0  0  0  0  0  0  0
   65.8860   34.3920   52.0420 C   0  0  0  0  0  0  0  0  0  0  0  0
   64.9930   33.8680   51.0980 C   0  0  0  0  0  0  0  0  0  0  0  0
   63.6650   34.2860   51.1050 O   0  0  0  0  0  0  0  0  0  0  0  0
   60.5550   33.8350   50.1270 C   0  0  0  0  0  0  0  0  0  0  0  0
   59.2810   33.4170   49.3650 C   0  0  0  0  0  0  0  0  0  0  0  0
  1  2  2  0
  2  3  1  0
  3  4  2  0
  4  5  1  0
  5  6  1  0
  6  7  1  0
  7  8  2  0
  8  9  1  0
  9 10  1  0
 10 11  2  0
 10 12  1  0
 12 13  1  0
 13 14  2  0
  5 15  2  0
 15 16  1  0
 16 17  2  0
 17 18  1  0
  2 19  1  0
 19 20  1  0
 20 21  1  0
 21 22  1  0
 22 23  1  0
 23 24  2  0
 23 25  1  0
 25 26  1  0
 26 27  1  0
 27 28  2  0
 28 29  1  0
 29 30  2  0
 30 31  1  0
 31 32  2  0
 32 33  1  0
 22 34  1  0
 34 35  1  0
 17  3  1  0
 35 19  1  0
 13  7  1  0
 32 27  1  0
M  CHG  4   9  -1  12  -1  22   1  33  -1
M  END
>  <UniqueID>  (2250) 
38

>  <SMILES>  (2250) 
O=C(c1cc(Cc2c[n-]c(=O)[n-]c2=O)ccc1F)N1CC[NH+](C(=O)CCc2ccccc2[O-])CC1

>  <Energy>  (2250) 
71.70523066749756

>  <Genealogy>  (2250) 
O=C(c1cc(Cc2c[n-]c(=O)[n-]c2=O)ccc1F)N1CC[NH+](C(=O)CCc2ccccc2[O-])CC1 (protonated)
O=C(c1cc(Cc2c[n-]c(=O)[n-]c2=O)ccc1F)N1CC[NH+](C(=O)CCc2ccccc2[O-])CC1 (3D coordinates assigned)
O=C(c1cc(Cc2c[n-]c(=O)[n-]c2=O)ccc1F)N1CC[NH+](C(=O)CCc2ccccc2[O-])CC1 (nonaromatic ring conformer: 71.70523066749756 kcal/mol)

>  <smiles>  (2250) 
O=C(CCc1ccccc1O)N1CCN(C(=O)c2cc(Cc3c[nH]c(=O)[nH]c3=O)ccc2F)CC1

>  <score_type>  (2250) 
oracle

>  <origin>  (2250) 
adg

>  <m_score__min__energy>  (2250) 
-16.899999999999999

>  <m_primary>  (2250) 
energy

$$$$
40:0
     RDKit          3D

 26 29  0  0  0  0  0  0  0  0999 V2000
   59.2800   28.0190   46.6870 C   0  0  0  0  0  0  0  0  0  0  0  0
   58.5550   28.5490   45.6880 C   0  0  0  0  0  0  0  0  0  0  0  0
   57.8710   27.8550   44.6750 C   0  0  0  0  0  0  0  0  0  0  0  0
   57.6300   26.5400   44.5070 C   0  0  0  0  0  0  0  0  0  0  0  0
   57.1240   25.6230   45.5410 C   0  0  0  0  0  0  0  0  0  0  0  0
   55.9500   25.7570   46.2440 C   0  0  0  0  0  0  0  0  0  0  0  0
   54.9720   26.7160   46.0110 O   0  0  0  0  0  0  0  0  0  0  0  0
   55.8700   24.8270   47.2150 N   0  0  0  0  0  0  0  0  0  0  0  0
   57.0350   24.1560   47.0830 C   0  0  0  0  0  0  0  0  0  0  0  0
   57.3590   23.1960   47.8290 O   0  0  0  0  0  0  0  0  0  0  0  0
   57.8250   24.6170   46.0930 N   0  0  0  0  0  0  0  0  0  0  0  0
   57.4120   28.8160   43.7900 C   0  0  0  0  0  0  0  0  0  0  0  0
   57.7730   30.0420   44.3070 C   0  0  0  0  0  0  0  0  0  0  0  0
   57.4470   31.3600   43.6710 C   0  0  0  0  0  0  0  0  0  0  0  0
   58.4570   29.8850   45.4610 N   0  0  0  0  0  0  0  0  0  0  0  0
   59.0390   30.9500   46.2320 C   0  0  0  0  0  0  0  0  0  0  0  0
   60.6340   30.9950   46.7650 S   0  0  0  0  0  0  0  0  0  0  0  0
   60.4760   32.4490   47.6040 C   0  0  0  0  0  0  0  0  0  0  0  0
   61.5350   33.0730   48.3540 N   0  0  0  0  0  0  0  0  0  0  0  0
   62.9150   33.0970   48.0290 C   0  0  0  0  0  0  0  0  0  0  0  0
   63.4070   32.5190   47.0250 O   0  0  0  0  0  0  0  0  0  0  0  0
   63.7300   33.8310   49.0160 C   0  0  0  0  0  0  0  0  0  0  0  0
   62.6940   34.3320   50.0330 C   0  0  0  0  0  0  0  0  0  0  0  0
   61.3280   33.7520   49.6230 C   0  0  0  0  0  0  0  0  0  0  0  0
   59.1610   32.9020   47.4910 C   0  0  0  0  0  0  0  0  0  0  0  0
   58.3560   32.0570   46.7200 C   0  0  0  0  0  0  0  0  0  0  0  0
  1  2  2  0
  2  3  1  0
  3  4  2  0
  4  5  1  0
  5  6  2  0
  6  7  1  0
  6  8  1  0
  8  9  1  0
  9 10  2  0
  9 11  1  0
  3 12  1  0
 12 13  2  0
 13 14  1  0
 13 15  1  0
 15 16  1  0
 16 17  1  0
 17 18  1  0
 18 19  1  0
 19 20  1  0
 20 21  2  0
 20 22  1  0
 22 23  1  0
 23 24  1  0
 18 25  2  0
 25 26  1  0
 15  2  1  0
 26 16  2  0
 11  5  1  0
 24 19  1  0
M  CHG  2   7  -1   8  -1
M  END
>  <UniqueID>  (2251) 
41

>  <SMILES>  (2251) 
C=c1/c(=C\c2[nH]c(=O)[n-]c2[O-])cc(C)n1-c1ccc(N2CCCC2=O)s1

>  <Energy>  (2251) 
156.46489737244926

>  <Genealogy>  (2251) 
C=c1c(=Cc2[nH]c(=O)[n-]c2[O-])cc(C)n1-c1ccc(N2CCCC2=O)s1 (protonated)
C=c1/c(=C\c2[nH]c(=O)[n-]c2[O-])cc(C)n1-c1ccc(N2CCCC2=O)s1 (cis-trans isomerization)
C=c1/c(=C\c2[nH]c(=O)[n-]c2[O-])cc(C)n1-c1ccc(N2CCCC2=O)s1 (3D coordinates assigned)
C=c1/c(=C\c2[nH]c(=O)[n-]c2[O-])cc(C)n1-c1ccc(N2CCCC2=O)s1 (nonaromatic ring conformer: 156.46489737244926 kcal/mol)

>  <smiles>  (2251) 
C=c1c(=Cc2[nH]c(=O)[nH]c2O)cc(C)n1-c1ccc(N2CCCC2=O)s1

>  <score_type>  (2251) 
oracle

>  <origin>  (2251) 
adg

>  <m_score__min__energy>  (2251) 
-14.029999999999999

>  <m_primary>  (2251) 
energy

$$$$
64:0
     RDKit          3D

 26 28  0  0  0  0  0  0  0  0999 V2000
   57.5570   26.0330   44.3030 O   0  0  0  0  0  0  0  0  0  0  0  0
   57.4200   25.9240   45.5510 C   0  0  0  0  0  0  0  0  0  0  0  0
   57.2260   24.5700   46.1570 C   0  0  0  0  0  0  0  0  0  0  0  0
   55.7980   24.1420   46.0160 C   0  0  0  0  0  0  0  0  0  0  0  0
   55.2790   22.5360   46.0300 S   0  0  0  0  0  0  0  0  0  0  0  0
   53.6840   22.9590   45.7220 C   0  0  0  0  0  0  0  0  0  0  0  0
   52.7400   22.1340   45.6180 O   0  0  0  0  0  0  0  0  0  0  0  0
   53.5160   24.2900   45.5870 N   0  0  0  0  0  0  0  0  0  0  0  0
   54.6910   24.9540   45.7450 C   0  0  0  0  0  0  0  0  0  0  0  0
   54.7530   26.3410   45.6240 O   0  0  0  0  0  0  0  0  0  0  0  0
   57.3620   27.0850   46.3880 N   0  0  0  0  0  0  0  0  0  0  0  0
   57.6750   28.4320   46.0030 C   0  0  0  0  0  0  0  0  0  0  0  0
   58.8790   29.0490   46.3850 C   0  0  0  0  0  0  0  0  0  0  0  0
   59.1600   30.3700   45.9930 C   0  0  0  0  0  0  0  0  0  0  0  0
   60.4300   31.0190   46.3950 C   0  0  0  0  0  0  0  0  0  0  0  0
   61.5030   30.3570   46.3670 O   0  0  0  0  0  0  0  0  0  0  0  0
   60.4600   32.3910   46.8280 N   0  0  0  0  0  0  0  0  0  0  0  0
   61.3070   32.7570   47.9730 C   0  0  0  0  0  0  0  0  0  0  0  0
   61.0910   34.2190   48.3910 C   0  0  0  0  0  0  0  0  0  0  0  0
   59.6030   34.5770   48.3030 C   0  0  0  0  0  0  0  0  0  0  0  0
   59.0610   34.4410   46.8660 C   0  0  0  0  0  0  0  0  0  0  0  0
   59.8520   33.4430   46.0010 C   0  0  0  0  0  0  0  0  0  0  0  0
   58.2040   31.0800   45.2450 C   0  0  0  0  0  0  0  0  0  0  0  0
   56.9980   30.4770   44.8870 C   0  0  0  0  0  0  0  0  0  0  0  0
   56.7290   29.1610   45.2690 C   0  0  0  0  0  0  0  0  0  0  0  0
   55.5180   28.5760   44.9090 O   0  0  0  0  0  0  0  0  0  0  0  0
  1  2  2  0
  2  3  1  0
  3  4  1  0
  4  5  1  0
  5  6  1  0
  6  7  2  0
  6  8  1  0
  8  9  1  0
  9 10  1  0
  2 11  1  0
 11 12  1  0
 12 13  2  0
 13 14  1  0
 14 15  1  0
 15 16  2  0
 15 17  1  0
 17 18  1  0
 18 19  1  0
 19 20  1  0
 20 21  1  0
 21 22  1  0
 14 23  2  0
 23 24  1  0
 24 25  2  0
 25 26  1  0
  9  4  2  0
 25 12  1  0
 22 17  1  0
M  CHG  3   8  -1  11  -1  26  -1
M  END
>  <UniqueID>  (2252) 
64

>  <SMILES>  (2252) 
O=C(Cc1sc(=O)[n-]c1O)[N-]c1cc(C(=O)N2CCCCC2)ccc1[O-]

>  <Energy>  (2252) 
80.94660276549469

>  <Genealogy>  (2252) 
O=C(Cc1sc(=O)[n-]c1O)[N-]c1cc(C(=O)N2CCCCC2)ccc1[O-] (protonated)
O=C(Cc1sc(=O)[n-]c1O)[N-]c1cc(C(=O)N2CCCCC2)ccc1[O-] (3D coordinates assigned)
O=C(Cc1sc(=O)[n-]c1O)[N-]c1cc(C(=O)N2CCCCC2)ccc1[O-] (nonaromatic ring conformer: 80.94660276549469 kcal/mol)

>  <smiles>  (2252) 
O=C(Cc1sc(=O)[nH]c1O)Nc1cc(C(=O)N2CCCCC2)ccc1O

>  <score_type>  (2252) 
oracle

>  <origin>  (2252) 
adg

>  <m_score__min__energy>  (2252) 
-15.73

>  <m_primary>  (2252) 
energy

$$$$
85:0
     RDKit          3D

 32 35  0  0  0  0  0  0  0  0999 V2000
   54.8960   26.3260   45.9900 O   0  0  0  0  0  0  0  0  0  0  0  0
   55.7820   25.2740   46.1950 C   0  0  0  0  0  0  0  0  0  0  0  0
   55.6280   24.3360   47.1460 N   0  0  0  0  0  0  0  0  0  0  0  0
   56.7170   23.5600   46.9750 C   0  0  0  0  0  0  0  0  0  0  0  0
   56.9490   22.5510   47.6900 O   0  0  0  0  0  0  0  0  0  0  0  0
   57.5430   23.9550   45.9840 N   0  0  0  0  0  0  0  0  0  0  0  0
   56.9370   25.0460   45.4820 C   0  0  0  0  0  0  0  0  0  0  0  0
   57.4810   25.9360   44.4320 C   0  0  0  0  0  0  0  0  0  0  0  0
   58.0780   27.1310   44.6430 C   0  0  0  0  0  0  0  0  0  0  0  0
   57.6370   28.3740   44.2110 C   0  0  0  0  0  0  0  0  0  0  0  0
   58.5660   29.2990   44.6410 C   0  0  0  0  0  0  0  0  0  0  0  0
   58.4260   30.7790   44.4570 C   0  0  0  0  0  0  0  0  0  0  0  0
   59.5640   28.6920   45.3260 N   0  0  0  0  0  0  0  0  0  0  0  0
   60.7250   29.3780   45.9160 C   0  0  0  0  0  0  0  0  0  0  0  0
   60.5440   29.5740   47.3980 C   0  0  0  0  0  0  0  0  0  0  0  0
   60.4910   28.4660   48.2570 C   0  0  0  0  0  0  0  0  0  0  0  0
   60.2650   28.6440   49.6240 C   0  0  0  0  0  0  0  0  0  0  0  0
   60.0810   29.9260   50.1440 C   0  0  0  0  0  0  0  0  0  0  0  0
   60.1170   31.0450   49.2950 C   0  0  0  0  0  0  0  0  0  0  0  0
   59.8910   32.3720   49.7820 N   0  0  0  0  0  0  0  0  0  0  0  0
   59.8460   33.7920   48.7850 S   0  0  0  0  0  0  0  0  0  0  0  0
   58.9580   33.5510   47.5960 O   0  0  0  0  0  0  0  0  0  0  0  0
   59.2820   34.9280   49.5920 O   0  0  0  0  0  0  0  0  0  0  0  0
   61.5090   34.2190   48.2500 C   0  0  0  0  0  0  0  0  0  0  0  0
   62.5360   34.0470   49.3910 C   0  0  0  0  0  0  0  0  0  0  0  0
   63.2980   32.7170   49.2490 C   0  0  0  0  0  0  0  0  0  0  0  0
   64.0130   32.5780   48.0240 O   0  0  0  0  0  0  0  0  0  0  0  0
   63.4310   33.2680   46.9240 C   0  0  0  0  0  0  0  0  0  0  0  0
   61.9020   33.3950   47.0100 C   0  0  0  0  0  0  0  0  0  0  0  0
   60.3640   30.8610   47.9290 C   0  0  0  0  0  0  0  0  0  0  0  0
   59.2670   27.3650   45.3490 C   0  0  0  0  0  0  0  0  0  0  0  0
   60.0150   26.4300   45.9630 C   0  0  0  0  0  0  0  0  0  0  0  0
  1  2  1  0
  2  3  1  0
  3  4  1  0
  4  5  2  0
  4  6  1  0
  6  7  1  0
  7  8  1  0
  8  9  2  0
  9 10  1  0
 10 11  2  0
 11 12  1  0
 11 13  1  0
 13 14  1  0
 14 15  1  0
 15 16  2  0
 16 17  1  0
 17 18  2  0
 18 19  1  0
 19 20  1  0
 20 21  1  0
 21 22  2  0
 21 23  2  0
 21 24  1  0
 24 25  1  0
 25 26  1  0
 26 27  1  0
 27 28  1  0
 28 29  1  0
 19 30  2  0
 13 31  1  0
 31 32  2  0
  7  2  2  0
 31  9  1  0
 30 15  1  0
 29 24  1  0
M  CHG  3   3  -1   6  -1  20  -1
M  END
>  <UniqueID>  (2253) 
84

>  <SMILES>  (2253) 
C=c1/c(=C/c2[n-]c(=O)[n-]c2O)cc(C)n1Cc1cccc([N-]S(=O)(=O)C2CCOCC2)c1

>  <Energy>  (2253) 
128.53274690568804

>  <Genealogy>  (2253) 
C=c1c(=Cc2[n-]c(=O)[n-]c2O)cc(C)n1Cc1cccc([N-]S(=O)(=O)C2CCOCC2)c1 (protonated)
C=c1/c(=C/c2[n-]c(=O)[n-]c2O)cc(C)n1Cc1cccc([N-]S(=O)(=O)C2CCOCC2)c1 (cis-trans isomerization)
C=c1/c(=C/c2[n-]c(=O)[n-]c2O)cc(C)n1Cc1cccc([N-]S(=O)(=O)C2CCOCC2)c1 (3D coordinates assigned)
C=c1/c(=C/c2[n-]c(=O)[n-]c2O)cc(C)n1Cc1cccc([N-]S(=O)(=O)C2CCOCC2)c1 (nonaromatic ring conformer: 128.53274690568804 kcal/mol)

>  <smiles>  (2253) 
C=c1c(=Cc2[nH]c(=O)[nH]c2O)cc(C)n1Cc1cccc(NS(=O)(=O)C2CCOCC2)c1

>  <score_type>  (2253) 
oracle

>  <origin>  (2253) 
adg

>  <m_score__min__energy>  (2253) 
-15.58

>  <m_primary>  (2253) 
energy

$$$$
91:0
     RDKit          3D

 32 35  0  0  0  0  0  0  0  0999 V2000
   58.0920   34.6150   44.8220 C   0  0  0  0  0  0  0  0  0  0  0  0
   58.4660   34.8760   46.1000 N   0  0  0  0  0  0  0  0  0  0  0  0
   58.6370   33.8700   46.9980 C   0  0  0  0  0  0  0  0  0  0  0  0
   59.0000   34.1550   48.2130 N   0  0  0  0  0  0  0  0  0  0  0  0
   60.2820   33.7830   48.8250 C   0  0  0  0  0  0  0  0  0  0  0  0
   60.8750   32.5640   48.0730 C   0  0  0  0  0  0  0  0  0  0  0  0
   60.9520   31.2780   48.9130 C   0  0  0  0  0  0  0  0  0  0  0  0
   59.7400   31.1080   49.7330 N   0  0  0  0  0  0  0  0  0  0  0  0
   59.0990   29.8220   49.8930 C   0  0  0  0  0  0  0  0  0  0  0  0
   58.0650   29.7260   50.6110 O   0  0  0  0  0  0  0  0  0  0  0  0
   59.6130   28.5830   49.2190 C   0  0  0  0  0  0  0  0  0  0  0  0
   59.2540   32.2360   50.5440 C   0  0  0  0  0  0  0  0  0  0  0  0
   60.0930   33.5010   50.3270 C   0  0  0  0  0  0  0  0  0  0  0  0
   58.4240   32.5810   46.6140 N   0  0  0  0  0  0  0  0  0  0  0  0
   58.0400   32.2650   45.3470 C   0  0  0  0  0  0  0  0  0  0  0  0
   57.8340   30.8410   44.9830 C   0  0  0  0  0  0  0  0  0  0  0  0
   57.1280   30.5150   43.8120 C   0  0  0  0  0  0  0  0  0  0  0  0
   56.9310   29.1820   43.4500 C   0  0  0  0  0  0  0  0  0  0  0  0
   57.4410   28.1540   44.2450 C   0  0  0  0  0  0  0  0  0  0  0  0
   58.1590   28.4500   45.4170 C   0  0  0  0  0  0  0  0  0  0  0  0
   58.7120   27.3590   46.2540 C   0  0  0  0  0  0  0  0  0  0  0  0
   59.9620   27.2330   46.3750 O   0  0  0  0  0  0  0  0  0  0  0  0
   57.8350   26.3760   46.8280 N   0  0  0  0  0  0  0  0  0  0  0  0
   57.1680   25.4220   46.2390 C   0  0  0  0  0  0  0  0  0  0  0  0
   57.8340   24.2680   45.9580 N   0  0  0  0  0  0  0  0  0  0  0  0
   57.2380   23.2010   45.3620 C   0  0  0  0  0  0  0  0  0  0  0  0
   55.8940   23.2640   45.0070 C   0  0  0  0  0  0  0  0  0  0  0  0
   55.1800   24.4370   45.2480 C   0  0  0  0  0  0  0  0  0  0  0  0
   55.8080   25.5330   45.8460 C   0  0  0  0  0  0  0  0  0  0  0  0
   55.0850   26.7120   45.9820 O   0  0  0  0  0  0  0  0  0  0  0  0
   58.3570   29.7990   45.7750 C   0  0  0  0  0  0  0  0  0  0  0  0
   57.8730   33.3000   44.4130 C   0  0  0  0  0  0  0  0  0  0  0  0
  1  2  1  0
  2  3  1  0
  3  4  2  0
  4  5  1  0
  5  6  1  0
  6  7  1  0
  7  8  1  0
  8  9  1  0
  9 10  2  0
  9 11  1  0
  8 12  1  0
 12 13  1  0
  3 14  1  0
 14 15  2  0
 15 16  1  0
 16 17  2  0
 17 18  1  0
 18 19  2  0
 19 20  1  0
 20 21  1  0
 21 22  2  0
 21 23  1  0
 23 24  2  0
 24 25  1  0
 25 26  1  0
 26 27  2  0
 27 28  1  0
 28 29  2  0
 29 30  1  0
 20 31  2  0
 15 32  1  0
 32  1  2  0
 13  5  1  0
 31 16  1  0
 29 24  1  0
M  CHG  3   2  -1  25  -1  30  -1
M  END
>  <UniqueID>  (2254) 
90

>  <SMILES>  (2254) 
CC(=O)N1CCC(/N=c2\nc(-c3cccc(C(=O)/N=c4/[n-]cccc4[O-])c3)cc[n-]2)CC1

>  <Energy>  (2254) 
76.71665228495407

>  <Genealogy>  (2254) 
CC(=O)N1CCC(N=c2nc(-c3cccc(C(=O)N=c4[n-]cccc4[O-])c3)cc[n-]2)CC1 (protonated)
CC(=O)N1CCC(/N=c2\nc(-c3cccc(C(=O)/N=c4/[n-]cccc4[O-])c3)cc[n-]2)CC1 (cis-trans isomerization)
CC(=O)N1CCC(/N=c2\nc(-c3cccc(C(=O)/N=c4/[n-]cccc4[O-])c3)cc[n-]2)CC1 (3D coordinates assigned)
CC(=O)N1CCC(/N=c2\nc(-c3cccc(C(=O)/N=c4/[n-]cccc4[O-])c3)cc[n-]2)CC1 (nonaromatic ring conformer: 76.71665228495407 kcal/mol)

>  <smiles>  (2254) 
CC(=O)N1CCC(N=c2nc(-c3cccc(C(=O)N=c4[nH]cccc4O)c3)cc[nH]2)CC1

>  <score_type>  (2254) 
oracle

>  <origin>  (2254) 
adg

>  <m_score__min__energy>  (2254) 
-15.94

>  <m_primary>  (2254) 
energy

$$$$
93:0
     RDKit          3D

 39 43  0  0  0  0  0  0  0  0999 V2000
   58.9320   27.9740   46.8410 C   0  0  0  0  0  0  0  0  0  0  0  0
   58.4330   28.5090   45.7170 C   0  0  0  0  0  0  0  0  0  0  0  0
   57.8780   27.8270   44.6220 C   0  0  0  0  0  0  0  0  0  0  0  0
   57.5240   26.5340   44.4740 C   0  0  0  0  0  0  0  0  0  0  0  0
   57.0720   25.6430   45.5550 C   0  0  0  0  0  0  0  0  0  0  0  0
   57.8260   24.6860   46.1240 N   0  0  0  0  0  0  0  0  0  0  0  0
   57.0460   24.2330   47.1290 C   0  0  0  0  0  0  0  0  0  0  0  0
   57.4040   23.3040   47.8990 O   0  0  0  0  0  0  0  0  0  0  0  0
   55.8540   24.8600   47.2500 N   0  0  0  0  0  0  0  0  0  0  0  0
   55.8960   25.7600   46.2540 C   0  0  0  0  0  0  0  0  0  0  0  0
   54.8820   26.6750   45.9970 O   0  0  0  0  0  0  0  0  0  0  0  0
   57.7020   28.7710   43.6230 C   0  0  0  0  0  0  0  0  0  0  0  0
   58.0900   29.9860   44.1490 C   0  0  0  0  0  0  0  0  0  0  0  0
   58.0590   31.2880   43.4100 C   0  0  0  0  0  0  0  0  0  0  0  0
   58.5170   29.8330   45.4220 N   0  0  0  0  0  0  0  0  0  0  0  0
   59.0600   30.8760   46.2470 C   0  0  0  0  0  0  0  0  0  0  0  0
   60.3280   30.7280   46.8230 C   0  0  0  0  0  0  0  0  0  0  0  0
   60.8610   31.7420   47.6220 C   0  0  0  0  0  0  0  0  0  0  0  0
   60.1430   32.9310   47.8400 C   0  0  0  0  0  0  0  0  0  0  0  0
   60.6950   33.9970   48.7090 C   0  0  0  0  0  0  0  0  0  0  0  0
   59.9540   34.9530   49.0650 O   0  0  0  0  0  0  0  0  0  0  0  0
   62.0500   33.9430   49.1880 N   0  0  0  0  0  0  0  0  0  0  0  0
   63.1680   33.8050   48.2470 C   0  0  0  0  0  0  0  0  0  0  0  0
   64.2180   32.8480   48.8180 C   0  0  0  0  0  0  0  0  0  0  0  0
   64.4990   33.1300   50.2380 N   0  0  0  0  0  0  0  0  0  0  0  0
   65.5650   32.4410   50.9180 C   0  0  0  0  0  0  0  0  0  0  0  0
   66.3180   33.0810   51.7020 O   0  0  0  0  0  0  0  0  0  0  0  0
   65.7110   30.9420   50.8260 C   0  0  0  0  0  0  0  0  0  0  0  0
   66.3850   30.3130   52.0700 C   0  0  0  0  0  0  0  0  0  0  0  0
   67.8570   29.8830   51.8120 C   0  0  0  0  0  0  0  0  0  0  0  0
   68.0310   28.3570   51.6840 C   0  0  0  0  0  0  0  0  0  0  0  0
   66.9130   27.7520   50.9490 N   0  0  0  0  0  0  0  0  0  0  0  0
   65.6220   27.9010   51.6520 C   0  0  0  0  0  0  0  0  0  0  0  0
   65.5540   29.1260   52.5930 C   0  0  0  0  0  0  0  0  0  0  0  0
   63.8140   34.2380   50.9140 C   0  0  0  0  0  0  0  0  0  0  0  0
   62.3120   34.2030   50.6100 C   0  0  0  0  0  0  0  0  0  0  0  0
   58.8680   33.0720   47.2650 C   0  0  0  0  0  0  0  0  0  0  0  0
   58.3300   32.0530   46.4720 C   0  0  0  0  0  0  0  0  0  0  0  0
   57.0940   32.2030   45.9350 F   0  0  0  0  0  0  0  0  0  0  0  0
  1  2  2  0
  2  3  1  0
  3  4  2  3
  4  5  1  0
  5  6  1  0
  6  7  1  0
  7  8  2  0
  7  9  1  0
  9 10  1  0
 10 11  1  0
  3 12  1  0
 12 13  2  0
 13 14  1  0
 13 15  1  0
 15 16  1  0
 16 17  2  0
 17 18  1  0
 18 19  2  0
 19 20  1  0
 20 21  2  0
 20 22  1  0
 22 23  1  0
 23 24  1  0
 24 25  1  0
 25 26  1  0
 26 27  2  0
 26 28  1  0
 28 29  1  0
 29 30  1  0
 30 31  1  0
 31 32  1  0
 32 33  1  0
 33 34  1  0
 25 35  1  0
 35 36  1  0
 19 37  1  0
 37 38  2  0
 38 39  1  0
 15  2  1  0
 38 16  1  0
 10  5  2  0
 36 22  1  0
 34 29  1  0
M  CHG  3   6  -1   9  -1  11  -1
M  END
>  <UniqueID>  (2255) 
92

>  <SMILES>  (2255) 
C=c1c(=Cc2[n-]c(=O)[n-]c2[O-])cc(C)n1-c1ccc(C(=O)N2CCN(C(=O)CC3CCNCC3)CC2)cc1F

>  <Energy>  (2255) 
160.54554981224794

>  <Genealogy>  (2255) 
C=c1c(=Cc2[n-]c(=O)[n-]c2[O-])cc(C)n1-c1ccc(C(=O)N2CCN(C(=O)CC3CCNCC3)CC2)cc1F (protonated)
C=c1c(=Cc2[n-]c(=O)[n-]c2[O-])cc(C)n1-c1ccc(C(=O)N2CCN(C(=O)CC3CCNCC3)CC2)cc1F (3D coordinates assigned)
C=c1c(=Cc2[n-]c(=O)[n-]c2[O-])cc(C)n1-c1ccc(C(=O)N2CCN(C(=O)CC3CCNCC3)CC2)cc1F (nonaromatic ring conformer: 160.54554981224794 kcal/mol)

>  <smiles>  (2255) 
C=c1c(=Cc2[nH]c(=O)[nH]c2O)cc(C)n1-c1ccc(C(=O)N2CCN(C(=O)CC3CCNCC3)CC2)cc1F

>  <score_type>  (2255) 
oracle

>  <origin>  (2255) 
adg

>  <m_score__min__energy>  (2255) 
-16.739999999999998

>  <m_primary>  (2255) 
energy

$$$$
10:0
     RDKit          3D

 28 31  0  0  0  0  0  0  0  0999 V2000
   58.1340   27.0600   42.8880 C   0  0  0  0  0  0  0  0  0  0  0  0
   58.0480   27.7880   44.0070 C   0  0  0  0  0  0  0  0  0  0  0  0
   58.0120   27.3200   45.3250 C   0  0  0  0  0  0  0  0  0  0  0  0
   58.0640   26.0310   45.7260 C   0  0  0  0  0  0  0  0  0  0  0  0
   56.8980   25.1470   45.9460 C   0  0  0  0  0  0  0  0  0  0  0  0
   56.9350   23.8100   46.0970 N   0  0  0  0  0  0  0  0  0  0  0  0
   55.6420   23.4770   46.2990 C   0  0  0  0  0  0  0  0  0  0  0  0
   55.2680   22.2910   46.4820 O   0  0  0  0  0  0  0  0  0  0  0  0
   54.7830   24.5190   46.2930 N   0  0  0  0  0  0  0  0  0  0  0  0
   55.5930   25.5660   46.0710 C   0  0  0  0  0  0  0  0  0  0  0  0
   55.1490   26.8790   45.9860 O   0  0  0  0  0  0  0  0  0  0  0  0
   57.9300   28.4560   46.1250 C   0  0  0  0  0  0  0  0  0  0  0  0
   57.9130   29.5440   45.2710 C   0  0  0  0  0  0  0  0  0  0  0  0
   57.8550   30.9580   45.7080 C   0  0  0  0  0  0  0  0  0  0  0  0
   57.2330   31.7870   44.9870 O   0  0  0  0  0  0  0  0  0  0  0  0
   58.4300   31.3840   46.9710 N   0  0  1  0  0  0  0  0  0  0  0  0
   59.7700   30.7730   47.1970 C   0  0  0  0  0  0  0  0  0  0  0  0
   60.9380   31.6630   46.7300 C   0  0  0  0  0  0  0  0  0  0  0  0
   60.8830   33.0920   47.3290 C   0  0  2  0  0  0  0  0  0  0  0  0
   61.9680   33.3220   48.2910 N   0  0  0  0  0  0  0  0  0  0  0  0
   63.3540   33.0910   48.0930 C   0  0  0  0  0  0  0  0  0  0  0  0
   63.8350   32.6280   47.0260 O   0  0  0  0  0  0  0  0  0  0  0  0
   64.1760   33.4560   49.2620 C   0  0  0  0  0  0  0  0  0  0  0  0
   63.1410   33.9310   50.2930 C   0  0  0  0  0  0  0  0  0  0  0  0
   61.7560   33.8730   49.6190 C   0  0  0  0  0  0  0  0  0  0  0  0
   59.5150   33.4190   47.9510 C   0  0  0  0  0  0  0  0  0  0  0  0
   58.4030   32.8690   47.0530 C   0  0  0  0  0  0  0  0  0  0  0  0
   57.9880   29.1350   43.9890 N   0  0  0  0  0  0  0  0  0  0  0  0
  1  2  2  0
  2  3  1  0
  3  4  2  0
  4  5  1  0
  5  6  1  0
  6  7  1  0
  7  8  2  0
  7  9  1  0
  9 10  1  0
 10 11  1  0
  3 12  1  0
 12 13  2  0
 13 14  1  0
 14 15  2  0
 16 14  1  6
 16 17  1  0
 17 18  1  0
 18 19  1  0
 19 20  1  1
 20 21  1  0
 21 22  2  0
 21 23  1  0
 23 24  1  0
 24 25  1  0
 19 26  1  0
 26 27  1  0
 13 28  1  0
 28  2  1  0
 10  5  2  0
 27 16  1  0
 25 20  1  0
M  CHG  4   6  -1   9  -1  11  -1  16   1
M  END
>  <UniqueID>  (2256) 
11

>  <SMILES>  (2256) 
C=c1[nH]c(C(=O)[NH+]2CCC(N3CCCC3=O)CC2)c/c1=C\c1[n-]c(=O)[n-]c1[O-]

>  <Energy>  (2256) 
127.81479717213558

>  <Genealogy>  (2256) 
C=c1[nH]c(C(=O)[NH+]2CCC(N3CCCC3=O)CC2)cc1=Cc1[n-]c(=O)[n-]c1[O-] (protonated)
C=c1[nH]c(C(=O)[NH+]2CCC(N3CCCC3=O)CC2)c/c1=C\c1[n-]c(=O)[n-]c1[O-] (cis-trans isomerization)
C=c1[nH]c(C(=O)[NH+]2CCC(N3CCCC3=O)CC2)c/c1=C\c1[n-]c(=O)[n-]c1[O-] (3D coordinates assigned)
C=c1[nH]c(C(=O)[NH+]2CCC(N3CCCC3=O)CC2)c/c1=C\c1[n-]c(=O)[n-]c1[O-] (nonaromatic ring conformer: 127.81479717213558 kcal/mol)

>  <smiles>  (2256) 
C=c1[nH]c(C(=O)N2CCC(N3CCCC3=O)CC2)cc1=Cc1[nH]c(=O)[nH]c1O

>  <score_type>  (2256) 
oracle

>  <origin>  (2256) 
adg

>  <m_score__min__energy>  (2256) 
-16.34

>  <m_primary>  (2256) 
energy

$$$$
12:0
     RDKit          3D

 28 31  0  0  0  0  0  0  0  0999 V2000
   59.2670   27.2670   47.9720 C   0  0  0  0  0  0  0  0  0  0  0  0
   58.8120   28.3850   47.3770 C   0  0  0  0  0  0  0  0  0  0  0  0
   58.2960   28.3690   46.0300 C   0  0  0  0  0  0  0  0  0  0  0  0
   57.7730   27.2790   45.4140 C   0  0  0  0  0  0  0  0  0  0  0  0
   57.2140   26.0900   46.0880 C   0  0  0  0  0  0  0  0  0  0  0  0
   57.9420   25.1030   46.6430 N   0  0  0  0  0  0  0  0  0  0  0  0
   57.0090   24.3120   47.2170 C   0  0  0  0  0  0  0  0  0  0  0  0
   57.3040   23.2590   47.8390 O   0  0  0  0  0  0  0  0  0  0  0  0
   55.7380   24.7460   47.0810 N   0  0  0  0  0  0  0  0  0  0  0  0
   55.8870   25.8760   46.3730 C   0  0  0  0  0  0  0  0  0  0  0  0
   54.8320   26.6990   45.9980 O   0  0  0  0  0  0  0  0  0  0  0  0
   58.3070   29.5770   45.2840 C   0  0  0  0  0  0  0  0  0  0  0  0
   58.6330   30.8000   45.8750 C   0  0  0  0  0  0  0  0  0  0  0  0
   58.9460   30.8190   47.2310 C   0  0  0  0  0  0  0  0  0  0  0  0
   59.0170   29.6560   47.9760 C   0  0  0  0  0  0  0  0  0  0  0  0
   59.3510   30.0550   49.2770 C   0  0  0  0  0  0  0  0  0  0  0  0
   59.4820   29.2350   50.5240 C   0  0  0  0  0  0  0  0  0  0  0  0
   59.4890   31.4340   49.2210 C   0  0  0  0  0  0  0  0  0  0  0  0
   59.8400   32.2430   50.2960 O   0  0  0  0  0  0  0  0  0  0  0  0
   59.2360   31.9040   47.9830 N   0  0  0  0  0  0  0  0  0  0  0  0
   59.3600   33.3010   47.5520 C   0  0  0  0  0  0  0  0  0  0  0  0
   60.5430   33.4650   46.5950 C   0  0  0  0  0  0  0  0  0  0  0  0
   61.6440   34.2050   47.2540 N   0  0  0  0  0  0  0  0  0  0  0  0
   62.9670   33.8370   46.7150 C   0  0  0  0  0  0  0  0  0  0  0  0
   63.3800   32.4080   47.1420 C   0  0  0  0  0  0  0  0  0  0  0  0
   62.6080   31.9050   48.2190 O   0  0  0  0  0  0  0  0  0  0  0  0
   62.4810   32.8870   49.2250 C   0  0  0  0  0  0  0  0  0  0  0  0
   61.6180   34.0660   48.7300 C   0  0  0  0  0  0  0  0  0  0  0  0
  1  2  2  0
  2  3  1  0
  3  4  2  0
  4  5  1  0
  5  6  1  0
  6  7  1  0
  7  8  2  0
  7  9  1  0
  9 10  1  0
 10 11  1  0
  3 12  1  0
 12 13  2  0
 13 14  1  0
 14 15  2  0
 15 16  1  0
 16 17  1  0
 16 18  2  0
 18 19  1  0
 18 20  1  0
 20 21  1  0
 21 22  1  0
 22 23  1  0
 23 24  1  0
 24 25  1  0
 25 26  1  0
 26 27  1  0
 27 28  1  0
 15  2  1  0
 28 23  1  0
 10  5  2  0
 20 14  1  0
M  CHG  4   6  -1   9  -1  11  -1  19  -1
M  END
>  <UniqueID>  (2257) 
13

>  <SMILES>  (2257) 
C=c1/c(=C\c2[n-]c(=O)[n-]c2[O-])ccc2c1c(C)c([O-])n2CCN1CCOCC1

>  <Energy>  (2257) 
148.15574522390347

>  <Genealogy>  (2257) 
C=c1c(=Cc2[n-]c(=O)[n-]c2[O-])ccc2c1c(C)c([O-])n2CCN1CCOCC1 (protonated)
C=c1/c(=C\c2[n-]c(=O)[n-]c2[O-])ccc2c1c(C)c([O-])n2CCN1CCOCC1 (cis-trans isomerization)
C=c1/c(=C\c2[n-]c(=O)[n-]c2[O-])ccc2c1c(C)c([O-])n2CCN1CCOCC1 (3D coordinates assigned)
C=c1/c(=C\c2[n-]c(=O)[n-]c2[O-])ccc2c1c(C)c([O-])n2CCN1CCOCC1 (nonaromatic ring conformer: 148.15574522390347 kcal/mol)

>  <smiles>  (2257) 
C=c1c(=Cc2[nH]c(=O)[nH]c2O)ccc2c1c(C)c(O)n2CCN1CCOCC1

>  <score_type>  (2257) 
oracle

>  <origin>  (2257) 
adg

>  <m_score__min__energy>  (2257) 
-16.850000000000001

>  <m_primary>  (2257) 
energy

$$$$
20:0
     RDKit          3D

 31 34  0  0  0  0  0  0  0  0999 V2000
   57.3100   30.7540   44.0820 C   0  0  0  0  0  0  0  0  0  0  0  0
   57.9550   30.7140   45.2580 C   0  0  0  0  0  0  0  0  0  0  0  0
   58.5620   29.5990   45.8580 C   0  0  0  0  0  0  0  0  0  0  0  0
   58.5190   28.2890   45.5400 C   0  0  0  0  0  0  0  0  0  0  0  0
   57.4160   27.3660   45.8460 C   0  0  0  0  0  0  0  0  0  0  0  0
   57.5660   26.2400   46.5660 N   0  0  0  0  0  0  0  0  0  0  0  0
   56.3010   25.7880   46.7060 C   0  0  0  0  0  0  0  0  0  0  0  0
   56.0250   24.7260   47.3200 O   0  0  0  0  0  0  0  0  0  0  0  0
   55.3530   26.5720   46.1470 N   0  0  0  0  0  0  0  0  0  0  0  0
   56.0740   27.5750   45.6210 C   0  0  0  0  0  0  0  0  0  0  0  0
   55.5140   28.6690   44.9730 O   0  0  0  0  0  0  0  0  0  0  0  0
   59.2760   30.0810   46.9410 C   0  0  0  0  0  0  0  0  0  0  0  0
   59.0520   31.4410   46.9950 C   0  0  0  0  0  0  0  0  0  0  0  0
   59.6340   32.3300   48.0170 C   0  0  0  0  0  0  0  0  0  0  0  0
   58.8950   32.7590   48.9430 O   0  0  0  0  0  0  0  0  0  0  0  0
   61.0330   32.6700   48.0010 N   0  0  0  0  0  0  0  0  0  0  0  0
   61.4770   33.9960   48.4540 C   0  0  0  0  0  0  0  0  0  0  0  0
   62.5990   33.8480   49.4880 C   0  0  0  0  0  0  0  0  0  0  0  0
   63.6050   32.8620   49.0570 N   0  0  0  0  0  0  0  0  0  0  0  0
   64.6180   32.4320   49.9840 C   0  0  0  0  0  0  0  0  0  0  0  0
   64.8210   31.1980   50.1490 O   0  0  0  0  0  0  0  0  0  0  0  0
   65.4210   33.4070   50.7520 C   0  0  0  0  0  0  0  0  0  0  0  0
   66.8110   33.4920   50.5540 C   0  0  0  0  0  0  0  0  0  0  0  0
   67.5710   34.4240   51.2680 C   0  0  0  0  0  0  0  0  0  0  0  0
   66.9510   35.2840   52.1770 C   0  0  0  0  0  0  0  0  0  0  0  0
   65.5690   35.2200   52.3680 C   0  0  0  0  0  0  0  0  0  0  0  0
   64.8050   34.2900   51.6560 C   0  0  0  0  0  0  0  0  0  0  0  0
   63.4550   32.1790   47.7660 C   0  0  0  0  0  0  0  0  0  0  0  0
   62.0240   31.6500   47.6210 C   0  0  0  0  0  0  0  0  0  0  0  0
   58.2260   31.8250   45.9930 N   0  0  0  0  0  0  0  0  0  0  0  0
   57.7120   33.1780   45.7520 C   0  0  0  0  0  0  0  0  0  0  0  0
  1  2  2  0
  2  3  1  0
  3  4  2  3
  4  5  1  0
  5  6  1  0
  6  7  1  0
  7  8  2  0
  7  9  1  0
  9 10  1  0
 10 11  1  0
  3 12  1  0
 12 13  2  0
 13 14  1  0
 14 15  2  0
 14 16  1  0
 16 17  1  0
 17 18  1  0
 18 19  1  0
 19 20  1  0
 20 21  2  0
 20 22  1  0
 22 23  2  0
 23 24  1  0
 24 25  2  0
 25 26  1  0
 26 27  2  0
 19 28  1  0
 28 29  1  0
 13 30  1  0
 30 31  1  0
 30  2  1  0
 10  5  2  0
 29 16  1  0
 27 22  1  0
M  CHG  3   6  -1   9  -1  11  -1
M  END
>  <UniqueID>  (2258) 
21

>  <SMILES>  (2258) 
C=c1c(=Cc2[n-]c(=O)[n-]c2[O-])cc(C(=O)N2CCN(C(=O)c3ccccc3)CC2)n1C

>  <Energy>  (2258) 
136.7238545182671

>  <Genealogy>  (2258) 
C=c1c(=Cc2[n-]c(=O)[n-]c2[O-])cc(C(=O)N2CCN(C(=O)c3ccccc3)CC2)n1C (protonated)
C=c1c(=Cc2[n-]c(=O)[n-]c2[O-])cc(C(=O)N2CCN(C(=O)c3ccccc3)CC2)n1C (3D coordinates assigned)
C=c1c(=Cc2[n-]c(=O)[n-]c2[O-])cc(C(=O)N2CCN(C(=O)c3ccccc3)CC2)n1C (nonaromatic ring conformer: 136.7238545182671 kcal/mol)

>  <smiles>  (2258) 
C=c1c(=Cc2[nH]c(=O)[nH]c2O)cc(C(=O)N2CCN(C(=O)c3ccccc3)CC2)n1C

>  <score_type>  (2258) 
oracle

>  <origin>  (2258) 
adg

>  <m_score__min__energy>  (2258) 
-17.66

>  <m_primary>  (2258) 
energy

$$$$
22:0
     RDKit          3D

 34 37  0  0  0  0  0  0  0  0999 V2000
   59.8110   26.5710   46.5870 C   0  0  0  0  0  0  0  0  0  0  0  0
   58.9900   27.4690   46.0240 C   0  0  0  0  0  0  0  0  0  0  0  0
   57.9550   27.2170   45.1090 C   0  0  0  0  0  0  0  0  0  0  0  0
   57.3940   26.0620   44.7010 C   0  0  0  0  0  0  0  0  0  0  0  0
   56.8270   25.0260   45.5800 C   0  0  0  0  0  0  0  0  0  0  0  0
   57.5210   23.9950   46.0960 N   0  0  0  0  0  0  0  0  0  0  0  0
   56.6410   23.4170   46.9390 C   0  0  0  0  0  0  0  0  0  0  0  0
   56.9220   22.3930   47.6130 O   0  0  0  0  0  0  0  0  0  0  0  0
   55.4420   24.0330   47.0160 N   0  0  0  0  0  0  0  0  0  0  0  0
   55.5820   25.0570   46.1590 C   0  0  0  0  0  0  0  0  0  0  0  0
   54.5970   26.0080   45.9140 O   0  0  0  0  0  0  0  0  0  0  0  0
   57.5280   28.4550   44.6590 C   0  0  0  0  0  0  0  0  0  0  0  0
   58.2570   29.4060   45.3420 C   0  0  0  0  0  0  0  0  0  0  0  0
   58.0820   30.8860   45.1950 C   0  0  0  0  0  0  0  0  0  0  0  0
   59.1330   28.8100   46.1810 N   0  0  0  0  0  0  0  0  0  0  0  0
   60.0860   29.4980   47.0090 C   0  0  0  0  0  0  0  0  0  0  0  0
   60.9770   30.4190   46.4390 C   0  0  0  0  0  0  0  0  0  0  0  0
   61.9150   31.0770   47.2390 C   0  0  0  0  0  0  0  0  0  0  0  0
   61.9720   30.8240   48.6200 C   0  0  0  0  0  0  0  0  0  0  0  0
   63.0030   31.5120   49.4770 C   0  0  0  0  0  0  0  0  0  0  0  0
   63.9120   32.4240   48.6440 C   0  0  0  0  0  0  0  0  0  0  0  0
   63.3500   33.7650   48.5190 N   0  0  0  0  0  0  0  0  0  0  0  0
   62.5520   34.3920   49.5280 C   0  0  0  0  0  0  0  0  0  0  0  0
   63.0050   35.3640   50.1910 O   0  0  0  0  0  0  0  0  0  0  0  0
   61.1870   33.8610   49.8270 C   0  0  0  0  0  0  0  0  0  0  0  0
   60.3390   33.8920   48.5880 C   0  0  0  0  0  0  0  0  0  0  0  0
   59.0700   33.2880   48.5810 C   0  0  0  0  0  0  0  0  0  0  0  0
   58.2690   33.3430   47.4360 C   0  0  0  0  0  0  0  0  0  0  0  0
   58.7230   34.0090   46.2930 C   0  0  0  0  0  0  0  0  0  0  0  0
   57.7170   34.0770   44.8570 Cl  0  0  0  0  0  0  0  0  0  0  0  0
   59.9800   34.6250   46.2970 C   0  0  0  0  0  0  0  0  0  0  0  0
   60.7830   34.5720   47.4410 C   0  0  0  0  0  0  0  0  0  0  0  0
   61.0900   29.8890   49.1830 C   0  0  0  0  0  0  0  0  0  0  0  0
   60.1530   29.2310   48.3830 C   0  0  0  0  0  0  0  0  0  0  0  0
  1  2  2  0
  2  3  1  0
  3  4  2  3
  4  5  1  0
  5  6  1  0
  6  7  1  0
  7  8  2  0
  7  9  1  0
  9 10  1  0
 10 11  1  0
  3 12  1  0
 12 13  2  0
 13 14  1  0
 13 15  1  0
 15 16  1  0
 16 17  2  0
 17 18  1  0
 18 19  2  0
 19 20  1  0
 20 21  1  0
 21 22  1  0
 22 23  1  0
 23 24  2  0
 23 25  1  0
 25 26  1  0
 26 27  2  0
 27 28  1  0
 28 29  2  0
 29 30  1  0
 29 31  1  0
 31 32  2  0
 19 33  1  0
 33 34  2  0
 15  2  1  0
 34 16  1  0
 10  5  2  0
 32 26  1  0
M  CHG  3   6  -1   9  -1  22  -1
M  END
>  <UniqueID>  (2259) 
23

>  <SMILES>  (2259) 
C=c1c(=Cc2[n-]c(=O)[n-]c2O)cc(C)n1-c1ccc(CC[N-]C(=O)Cc2ccc(Cl)cc2)cc1

>  <Energy>  (2259) 
127.48805072065925

>  <Genealogy>  (2259) 
C=c1c(=Cc2[n-]c(=O)[n-]c2O)cc(C)n1-c1ccc(CC[N-]C(=O)Cc2ccc(Cl)cc2)cc1 (protonated)
C=c1c(=Cc2[n-]c(=O)[n-]c2O)cc(C)n1-c1ccc(CC[N-]C(=O)Cc2ccc(Cl)cc2)cc1 (3D coordinates assigned)
C=c1c(=Cc2[n-]c(=O)[n-]c2O)cc(C)n1-c1ccc(CC[N-]C(=O)Cc2ccc(Cl)cc2)cc1 (optimized conformer: 127.48805072065925 kcal/mol)

>  <smiles>  (2259) 
C=c1c(=Cc2[nH]c(=O)[nH]c2O)cc(C)n1-c1ccc(CCNC(=O)Cc2ccc(Cl)cc2)cc1

>  <score_type>  (2259) 
oracle

>  <origin>  (2259) 
adg

>  <m_score__min__energy>  (2259) 
-14.33

>  <m_primary>  (2259) 
energy

$$$$
26:0
     RDKit          3D

 32 35  0  0  0  0  0  0  0  0999 V2000
   60.2500   27.9630   49.0570 C   0  0  0  0  0  0  0  0  0  0  0  0
   59.5790   28.8810   48.3390 C   0  0  0  0  0  0  0  0  0  0  0  0
   58.9970   28.6730   47.0810 C   0  0  0  0  0  0  0  0  0  0  0  0
   58.7230   27.5360   46.4130 C   0  0  0  0  0  0  0  0  0  0  0  0
   57.4370   26.8190   46.4390 C   0  0  0  0  0  0  0  0  0  0  0  0
   57.3040   25.5500   46.8600 N   0  0  0  0  0  0  0  0  0  0  0  0
   56.0220   25.2510   46.5550 C   0  0  0  0  0  0  0  0  0  0  0  0
   55.5070   24.1330   46.8210 O   0  0  0  0  0  0  0  0  0  0  0  0
   55.3380   26.2380   45.9430 N   0  0  0  0  0  0  0  0  0  0  0  0
   56.2510   27.2200   45.8620 C   0  0  0  0  0  0  0  0  0  0  0  0
   56.0190   28.4420   45.2380 O   0  0  0  0  0  0  0  0  0  0  0  0
   58.6620   29.9220   46.5980 C   0  0  0  0  0  0  0  0  0  0  0  0
   58.9400   30.8300   47.5980 C   0  0  0  0  0  0  0  0  0  0  0  0
   58.6340   32.2710   47.4830 C   0  0  0  0  0  0  0  0  0  0  0  0
   59.2620   33.1130   48.1750 O   0  0  0  0  0  0  0  0  0  0  0  0
   57.6140   32.7000   46.5670 N   0  0  0  0  0  0  0  0  0  0  0  0
   57.5430   32.3810   45.3080 C   0  0  0  0  0  0  0  0  0  0  0  0
   56.8960   31.2910   44.8320 N   0  0  0  0  0  0  0  0  0  0  0  0
   57.0100   31.1940   43.4810 C   0  0  0  0  0  0  0  0  0  0  0  0
   57.7500   32.2130   42.8870 C   0  0  0  0  0  0  0  0  0  0  0  0
   58.0720   32.3320   41.4350 C   0  0  0  0  0  0  0  0  0  0  0  0
   58.2980   33.2590   44.0870 S   0  0  0  0  0  0  0  0  0  0  0  0
   59.4990   30.2020   48.6680 N   0  0  0  0  0  0  0  0  0  0  0  0
   59.9550   30.8460   49.9150 C   0  0  0  0  0  0  0  0  0  0  0  0
   61.3370   31.4370   49.7500 C   0  0  0  0  0  0  0  0  0  0  0  0
   62.0090   32.0060   50.8450 C   0  0  0  0  0  0  0  0  0  0  0  0
   63.2940   32.5320   50.6960 C   0  0  0  0  0  0  0  0  0  0  0  0
   63.9330   32.4990   49.4440 C   0  0  0  0  0  0  0  0  0  0  0  0
   65.2180   33.0260   49.2380 O   0  0  0  0  0  0  0  0  0  0  0  0
   66.3280   32.7960   50.0980 C   0  0  0  0  0  0  0  0  0  0  0  0
   63.2680   31.9240   48.3550 C   0  0  0  0  0  0  0  0  0  0  0  0
   61.9880   31.3870   48.5050 C   0  0  0  0  0  0  0  0  0  0  0  0
  1  2  2  0
  2  3  1  0
  3  4  2  3
  4  5  1  0
  5  6  1  0
  6  7  1  0
  7  8  2  0
  7  9  1  0
  9 10  1  0
 10 11  1  0
  3 12  1  0
 12 13  2  0
 13 14  1  0
 14 15  2  0
 14 16  1  0
 16 17  2  3
 17 18  1  0
 18 19  1  0
 19 20  2  0
 20 21  1  0
 20 22  1  0
 13 23  1  0
 23 24  1  0
 24 25  1  0
 25 26  2  0
 26 27  1  0
 27 28  2  0
 28 29  1  0
 29 30  1  0
 28 31  1  0
 31 32  2  0
 23  2  1  0
 32 25  1  0
 10  5  2  0
 22 17  1  0
M  CHG  3   6  -1   9  -1  18  -1
M  END
>  <UniqueID>  (2260) 
27

>  <SMILES>  (2260) 
C=c1c(=Cc2[n-]c(=O)[n-]c2O)cc(C(=O)N=c2[n-]cc(C)s2)n1Cc1ccc(OC)cc1

>  <Energy>  (2260) 
157.74430480226673

>  <Genealogy>  (2260) 
C=c1c(=Cc2[n-]c(=O)[n-]c2O)cc(C(=O)N=c2[n-]cc(C)s2)n1Cc1ccc(OC)cc1 (protonated)
C=c1c(=Cc2[n-]c(=O)[n-]c2O)cc(C(=O)N=c2[n-]cc(C)s2)n1Cc1ccc(OC)cc1 (3D coordinates assigned)
C=c1c(=Cc2[n-]c(=O)[n-]c2O)cc(C(=O)N=c2[n-]cc(C)s2)n1Cc1ccc(OC)cc1 (optimized conformer: 157.74430480226673 kcal/mol)

>  <smiles>  (2260) 
C=c1c(=Cc2[nH]c(=O)[nH]c2O)cc(C(=O)N=c2[nH]cc(C)s2)n1Cc1ccc(OC)cc1

>  <score_type>  (2260) 
oracle

>  <origin>  (2260) 
adg

>  <m_score__min__energy>  (2260) 
-14.35

>  <m_primary>  (2260) 
energy

$$$$
30:0
     RDKit          3D

 32 34  0  0  0  0  0  0  0  0999 V2000
   60.7790   29.3500   49.1820 O   0  0  0  0  0  0  0  0  0  0  0  0
   59.5580   29.5120   48.9130 C   0  0  0  0  0  0  0  0  0  0  0  0
   58.7770   28.4050   48.2650 C   0  0  0  0  0  0  0  0  0  0  0  0
   58.1230   28.8290   46.9430 C   0  0  0  0  0  0  0  0  0  0  0  0
   57.9420   27.6480   45.9780 C   0  0  0  0  0  0  0  0  0  0  0  0
   56.5280   27.4620   45.6690 N   0  0  0  0  0  0  0  0  0  0  0  0
   55.7850   26.2980   46.0430 C   0  0  0  0  0  0  0  0  0  0  0  0
   54.5280   26.3320   45.9890 O   0  0  0  0  0  0  0  0  0  0  0  0
   56.4680   25.1300   46.5220 N   0  0  0  0  0  0  0  0  0  0  0  0
   56.6830   23.8960   45.8200 C   0  0  0  0  0  0  0  0  0  0  0  0
   56.5440   22.6430   46.4490 C   0  0  0  0  0  0  0  0  0  0  0  0
   56.7610   21.4650   45.7300 C   0  0  0  0  0  0  0  0  0  0  0  0
   57.0990   21.5220   44.3760 C   0  0  0  0  0  0  0  0  0  0  0  0
   57.2070   22.7570   43.7340 C   0  0  0  0  0  0  0  0  0  0  0  0
   56.9950   23.9450   44.4500 C   0  0  0  0  0  0  0  0  0  0  0  0
   57.0960   25.1790   43.8070 O   0  0  0  0  0  0  0  0  0  0  0  0
   58.8910   30.7390   49.2360 N   0  0  0  0  0  0  0  0  0  0  0  0
   59.0540   32.0100   48.5890 C   0  0  0  0  0  0  0  0  0  0  0  0
   59.4650   33.1630   49.2870 C   0  0  0  0  0  0  0  0  0  0  0  0
   59.5800   34.3850   48.6210 C   0  0  0  0  0  0  0  0  0  0  0  0
   59.2610   34.4780   47.2660 C   0  0  0  0  0  0  0  0  0  0  0  0
   58.8130   33.3490   46.5670 C   0  0  0  0  0  0  0  0  0  0  0  0
   58.3360   33.4860   44.8710 S   0  0  0  0  0  0  0  0  0  0  0  0
   59.3440   34.3290   44.1380 O   0  0  0  0  0  0  0  0  0  0  0  0
   57.0030   34.1770   44.7880 O   0  0  0  0  0  0  0  0  0  0  0  0
   58.2170   31.9170   44.1080 N   0  0  0  0  0  0  0  0  0  0  0  0
   56.9710   31.2380   44.5130 C   0  0  0  0  0  0  0  0  0  0  0  0
   56.5810   30.1580   43.4890 C   0  0  0  0  0  0  0  0  0  0  0  0
   56.3540   30.6590   42.1770 O   0  0  0  0  0  0  0  0  0  0  0  0
   57.0240   31.8830   41.9080 C   0  0  0  0  0  0  0  0  0  0  0  0
   58.3740   32.0110   42.6400 C   0  0  0  0  0  0  0  0  0  0  0  0
   58.7180   32.1180   47.2330 C   0  0  0  0  0  0  0  0  0  0  0  0
  1  2  2  0
  2  3  1  0
  3  4  1  0
  4  5  1  0
  5  6  1  0
  6  7  1  0
  7  8  2  0
  7  9  1  0
  9 10  1  0
 10 11  2  0
 11 12  1  0
 12 13  2  0
 13 14  1  0
 14 15  2  0
 15 16  1  0
  2 17  1  0
 17 18  1  0
 18 19  2  0
 19 20  1  0
 20 21  2  0
 21 22  1  0
 22 23  1  0
 23 24  2  0
 23 25  2  0
 23 26  1  0
 26 27  1  0
 27 28  1  0
 28 29  1  0
 29 30  1  0
 30 31  1  0
 22 32  2  0
 15 10  1  0
 32 18  1  0
 31 26  1  0
M  CHG  3   6  -1   9  -1  17  -1
M  END
>  <UniqueID>  (2261) 
31

>  <SMILES>  (2261) 
O=C(CCC[N-]C(=O)[N-]c1ccccc1O)[N-]c1cccc(S(=O)(=O)N2CCOCC2)c1

>  <Energy>  (2261) 
68.10499299332915

>  <Genealogy>  (2261) 
O=C(CCC[N-]C(=O)[N-]c1ccccc1O)[N-]c1cccc(S(=O)(=O)N2CCOCC2)c1 (protonated)
O=C(CCC[N-]C(=O)[N-]c1ccccc1O)[N-]c1cccc(S(=O)(=O)N2CCOCC2)c1 (3D coordinates assigned)
O=C(CCC[N-]C(=O)[N-]c1ccccc1O)[N-]c1cccc(S(=O)(=O)N2CCOCC2)c1 (nonaromatic ring conformer: 68.10499299332915 kcal/mol)

>  <smiles>  (2261) 
O=C(CCCNC(=O)Nc1ccccc1O)Nc1cccc(S(=O)(=O)N2CCOCC2)c1

>  <score_type>  (2261) 
oracle

>  <origin>  (2261) 
adg

>  <m_score__min__energy>  (2261) 
-14.75

>  <m_primary>  (2261) 
energy

$$$$
40:0
     RDKit          3D

 28 30  0  0  0  0  0  0  0  0999 V2000
   54.8650   30.2000   54.7940 C   0  0  0  0  0  0  0  0  0  0  0  0
   55.1890   30.4490   53.5160 C   0  0  0  0  0  0  0  0  0  0  0  0
   54.3270   30.7060   52.4380 C   0  0  0  0  0  0  0  0  0  0  0  0
   53.0010   30.9340   52.4180 C   0  0  0  0  0  0  0  0  0  0  0  0
   52.1550   31.0050   51.2190 C   0  0  0  0  0  0  0  0  0  0  0  0
   52.2330   30.1300   50.2010 N   0  0  0  0  0  0  0  0  0  0  0  0
   51.3870   30.6450   49.2810 C   0  0  0  0  0  0  0  0  0  0  0  0
   51.1720   30.0900   48.1730 O   0  0  0  0  0  0  0  0  0  0  0  0
   50.7990   31.8070   49.6390 N   0  0  0  0  0  0  0  0  0  0  0  0
   51.3080   32.0290   50.8610 C   0  0  0  0  0  0  0  0  0  0  0  0
   51.0240   33.1570   51.6210 O   0  0  0  0  0  0  0  0  0  0  0  0
   55.0460   30.7080   51.2940 N   0  0  0  0  0  0  0  0  0  0  0  0
   56.3140   30.5000   51.6920 C   0  0  0  0  0  0  0  0  0  0  0  0
   57.2790   30.4390   50.8830 O   0  0  0  0  0  0  0  0  0  0  0  0
   56.4480   30.3540   53.0260 N   0  0  0  0  0  0  0  0  0  0  0  0
   57.6850   30.0090   53.7410 C   0  0  0  0  0  0  0  0  0  0  0  0
   58.6870   31.1280   53.6210 C   0  0  0  0  0  0  0  0  0  0  0  0
   59.1320   31.6270   54.6450 O   0  0  0  0  0  0  0  0  0  0  0  0
   59.1530   31.5700   52.3150 N   0  0  2  0  0  0  0  0  0  0  0  0
   60.2630   30.7340   51.7880 C   0  0  0  0  0  0  0  0  0  0  0  0
   60.7840   31.1460   50.4290 C   0  0  0  0  0  0  0  0  0  0  0  0
   62.1560   31.3770   50.2320 C   0  0  0  0  0  0  0  0  0  0  0  0
   62.6370   31.7410   48.9710 C   0  0  0  0  0  0  0  0  0  0  0  0
   61.7570   31.8580   47.8930 C   0  0  0  0  0  0  0  0  0  0  0  0
   60.3950   31.6050   48.0720 C   0  0  0  0  0  0  0  0  0  0  0  0
   59.9090   31.2420   49.3310 C   0  0  0  0  0  0  0  0  0  0  0  0
   59.3700   33.0390   52.1950 C   0  0  0  0  0  0  0  0  0  0  0  0
   58.1280   33.9220   52.4030 C   0  0  0  0  0  0  0  0  0  0  0  0
  1  2  2  0
  2  3  1  0
  3  4  2  0
  4  5  1  0
  5  6  1  0
  6  7  1  0
  7  8  2  0
  7  9  1  0
  9 10  1  0
 10 11  1  0
  3 12  1  0
 12 13  1  0
 13 14  2  0
 13 15  1  0
 15 16  1  0
 16 17  1  0
 17 18  2  0
 17 19  1  0
 19 20  1  1
 20 21  1  0
 21 22  2  0
 22 23  1  0
 23 24  2  0
 24 25  1  0
 25 26  2  0
 19 27  1  0
 27 28  1  0
 15  2  1  0
 26 21  1  0
 10  5  2  0
M  CHG  5   6  -1   9  -1  11  -1  12  -1  19   1
M  END
>  <UniqueID>  (2262) 
41

>  <SMILES>  (2262) 
C=c1/c(=C\c2[n-]c(=O)[n-]c2[O-])[n-]c(=O)n1CC(=O)[N@@H+](CC)Cc1ccccc1

>  <Energy>  (2262) 
129.08469085569982

>  <Genealogy>  (2262) 
C=c1c(=Cc2[n-]c(=O)[n-]c2[O-])[n-]c(=O)n1CC(=O)[NH+](CC)Cc1ccccc1 (protonated)
C=c1c(=Cc2[n-]c(=O)[n-]c2[O-])[n-]c(=O)n1CC(=O)[N@@H+](CC)Cc1ccccc1 (chirality)
C=c1/c(=C\c2[n-]c(=O)[n-]c2[O-])[n-]c(=O)n1CC(=O)[N@@H+](CC)Cc1ccccc1 (cis-trans isomerization)
C=c1/c(=C\c2[n-]c(=O)[n-]c2[O-])[n-]c(=O)n1CC(=O)[N@@H+](CC)Cc1ccccc1 (3D coordinates assigned)
C=c1/c(=C\c2[n-]c(=O)[n-]c2[O-])[n-]c(=O)n1CC(=O)[N@@H+](CC)Cc1ccccc1 (optimized conformer: 129.08469085569982 kcal/mol)

>  <smiles>  (2262) 
C=c1c(=Cc2[nH]c(=O)[nH]c2O)[nH]c(=O)n1CC(=O)N(CC)Cc1ccccc1

>  <score_type>  (2262) 
oracle

>  <origin>  (2262) 
adg

>  <m_score__min__energy>  (2262) 
-15.789999999999999

>  <m_primary>  (2262) 
energy

$$$$
46:0
     RDKit          3D

 37 41  0  0  0  0  0  0  0  0999 V2000
   55.9190   28.2580   53.2800 C   0  0  0  0  0  0  0  0  0  0  0  0
   55.8760   29.5780   53.0460 C   0  0  0  0  0  0  0  0  0  0  0  0
   54.7440   30.3590   52.7460 C   0  0  0  0  0  0  0  0  0  0  0  0
   53.4320   30.0550   52.7290 C   0  0  0  0  0  0  0  0  0  0  0  0
   52.3490   30.9260   52.2510 C   0  0  0  0  0  0  0  0  0  0  0  0
   51.8000   31.9300   52.9610 N   0  0  0  0  0  0  0  0  0  0  0  0
   50.9600   32.5110   52.0790 C   0  0  0  0  0  0  0  0  0  0  0  0
   50.2400   33.4980   52.3780 O   0  0  0  0  0  0  0  0  0  0  0  0
   50.9620   31.9610   50.8460 N   0  0  0  0  0  0  0  0  0  0  0  0
   51.8580   30.9680   50.9690 C   0  0  0  0  0  0  0  0  0  0  0  0
   52.2280   30.1190   49.9320 O   0  0  0  0  0  0  0  0  0  0  0  0
   55.2200   31.6210   52.4300 C   0  0  0  0  0  0  0  0  0  0  0  0
   56.5880   31.5880   52.5870 C   0  0  0  0  0  0  0  0  0  0  0  0
   57.5120   32.7350   52.3130 C   0  0  0  0  0  0  0  0  0  0  0  0
   56.9890   30.3510   52.9560 N   0  0  0  0  0  0  0  0  0  0  0  0
   58.3610   29.9230   53.0480 C   0  0  0  0  0  0  0  0  0  0  0  0
   58.8740   29.5230   54.2890 C   0  0  0  0  0  0  0  0  0  0  0  0
   60.2020   29.1080   54.4050 C   0  0  0  0  0  0  0  0  0  0  0  0
   61.0300   29.0900   53.2820 C   0  0  0  0  0  0  0  0  0  0  0  0
   60.5360   29.4960   52.0420 C   0  0  0  0  0  0  0  0  0  0  0  0
   59.2030   29.9160   51.9110 C   0  0  0  0  0  0  0  0  0  0  0  0
   58.7170   30.4020   50.5990 C   0  0  0  0  0  0  0  0  0  0  0  0
   57.7800   29.7720   50.0340 O   0  0  0  0  0  0  0  0  0  0  0  0
   59.2760   31.5720   49.9620 N   0  0  0  0  0  0  0  0  0  0  0  0
   58.5990   32.1190   48.7790 C   0  0  0  0  0  0  0  0  0  0  0  0
   58.9100   33.6150   48.6030 C   0  0  0  0  0  0  0  0  0  0  0  0
   60.3550   33.9210   48.7020 N   0  0  0  0  0  0  0  0  0  0  0  0
   61.1340   33.4800   47.5220 C   0  0  0  0  0  0  0  0  0  0  0  0
   60.2210   32.9620   46.4420 C   0  0  0  0  0  0  0  0  0  0  0  0
   59.5700   33.8560   45.5770 C   0  0  0  0  0  0  0  0  0  0  0  0
   58.7110   33.3800   44.5840 C   0  0  0  0  0  0  0  0  0  0  0  0
   58.4990   32.0060   44.4390 C   0  0  0  0  0  0  0  0  0  0  0  0
   57.4310   31.4060   43.1860 Cl  0  0  0  0  0  0  0  0  0  0  0  0
   59.1470   31.1080   45.2920 C   0  0  0  0  0  0  0  0  0  0  0  0
   60.0040   31.5840   46.2900 C   0  0  0  0  0  0  0  0  0  0  0  0
   60.9160   33.4150   49.9720 C   0  0  0  0  0  0  0  0  0  0  0  0
   60.6970   31.9060   50.1390 C   0  0  0  0  0  0  0  0  0  0  0  0
  1  2  2  0
  2  3  1  0
  3  4  2  3
  4  5  1  0
  5  6  1  0
  6  7  1  0
  7  8  2  0
  7  9  1  0
  9 10  1  0
 10 11  1  0
  3 12  1  0
 12 13  2  0
 13 14  1  0
 13 15  1  0
 15 16  1  0
 16 17  2  0
 17 18  1  0
 18 19  2  0
 19 20  1  0
 20 21  2  0
 21 22  1  0
 22 23  2  0
 22 24  1  0
 24 25  1  0
 25 26  1  0
 26 27  1  0
 27 28  1  0
 28 29  1  0
 29 30  2  0
 30 31  1  0
 31 32  2  0
 32 33  1  0
 32 34  1  0
 34 35  2  0
 27 36  1  0
 36 37  1  0
 15  2  1  0
 21 16  1  0
 37 24  1  0
 10  5  2  0
 35 29  1  0
M  CHG  2   6  -1   9  -1
M  END
>  <UniqueID>  (2263) 
45

>  <SMILES>  (2263) 
C=c1c(=Cc2[n-]c(=O)[n-]c2O)cc(C)n1-c1ccccc1C(=O)N1CCN(Cc2ccc(Cl)cc2)CC1

>  <Energy>  (2263) 
150.6934759844308

>  <Genealogy>  (2263) 
C=c1c(=Cc2[n-]c(=O)[n-]c2O)cc(C)n1-c1ccccc1C(=O)N1CCN(Cc2ccc(Cl)cc2)CC1 (protonated)
C=c1c(=Cc2[n-]c(=O)[n-]c2O)cc(C)n1-c1ccccc1C(=O)N1CCN(Cc2ccc(Cl)cc2)CC1 (3D coordinates assigned)
C=c1c(=Cc2[n-]c(=O)[n-]c2O)cc(C)n1-c1ccccc1C(=O)N1CCN(Cc2ccc(Cl)cc2)CC1 (nonaromatic ring conformer: 150.6934759844308 kcal/mol)

>  <smiles>  (2263) 
C=c1c(=Cc2[nH]c(=O)[nH]c2O)cc(C)n1-c1ccccc1C(=O)N1CCN(Cc2ccc(Cl)cc2)CC1

>  <score_type>  (2263) 
oracle

>  <origin>  (2263) 
adg

>  <m_score__min__energy>  (2263) 
-15.390000000000001

>  <m_primary>  (2263) 
energy

$$$$
53:0
     RDKit          3D

 28 31  0  0  0  0  0  0  0  0999 V2000
   55.0470   26.6870   46.0020 O   0  0  0  0  0  0  0  0  0  0  0  0
   56.1630   25.9530   46.3950 C   0  0  0  0  0  0  0  0  0  0  0  0
   56.0190   24.6460   46.7390 N   0  0  0  0  0  0  0  0  0  0  0  0
   57.0890   23.8900   47.0920 C   0  0  0  0  0  0  0  0  0  0  0  0
   56.9300   22.6840   47.4100 O   0  0  0  0  0  0  0  0  0  0  0  0
   58.3330   24.4340   47.0940 N   0  0  0  0  0  0  0  0  0  0  0  0
   58.5320   25.7350   46.7600 C   0  0  0  0  0  0  0  0  0  0  0  0
   59.7010   26.2040   46.7700 O   0  0  0  0  0  0  0  0  0  0  0  0
   57.4370   26.5450   46.4190 C   0  0  0  0  0  0  0  0  0  0  0  0
   57.6440   27.9590   46.0300 C   0  0  0  0  0  0  0  0  0  0  0  0
   58.4230   28.8130   46.7200 C   0  0  0  0  0  0  0  0  0  0  0  0
   58.5370   28.8840   48.1030 C   0  0  0  0  0  0  0  0  0  0  0  0
   59.4680   29.8670   48.3720 C   0  0  0  0  0  0  0  0  0  0  0  0
   59.8970   30.2860   49.7440 C   0  0  0  0  0  0  0  0  0  0  0  0
   59.9340   30.4020   47.2220 N   0  0  0  0  0  0  0  0  0  0  0  0
   60.8940   31.4700   47.1230 C   0  0  0  0  0  0  0  0  0  0  0  0
   62.2350   31.2060   47.4410 C   0  0  0  0  0  0  0  0  0  0  0  0
   63.1840   32.2280   47.4230 C   0  0  0  0  0  0  0  0  0  0  0  0
   62.8030   33.5280   47.0910 C   0  0  0  0  0  0  0  0  0  0  0  0
   61.4740   33.8070   46.7670 C   0  0  0  0  0  0  0  0  0  0  0  0
   60.5060   32.7860   46.7640 C   0  0  0  0  0  0  0  0  0  0  0  0
   59.1140   33.1190   46.3800 C   0  0  0  0  0  0  0  0  0  0  0  0
   57.9850   33.1160   47.1740 C   0  0  0  0  0  0  0  0  0  0  0  0
   56.9190   33.4470   46.4220 N   0  0  0  0  0  0  0  0  0  0  0  0
   57.3250   33.6530   45.1780 N   0  0  0  0  0  0  0  0  0  0  0  0
   58.6550   33.4550   45.1230 C   0  0  0  0  0  0  0  0  0  0  0  0
   59.2990   29.7710   46.2020 C   0  0  0  0  0  0  0  0  0  0  0  0
   59.4810   30.0690   44.9070 C   0  0  0  0  0  0  0  0  0  0  0  0
  1  2  1  0
  2  3  1  0
  3  4  1  0
  4  5  2  0
  4  6  1  0
  6  7  1  0
  7  8  2  0
  7  9  1  0
  9 10  1  0
 10 11  2  0
 11 12  1  0
 12 13  2  0
 13 14  1  0
 13 15  1  0
 15 16  1  0
 16 17  2  0
 17 18  1  0
 18 19  2  0
 19 20  1  0
 20 21  2  0
 21 22  1  0
 22 23  1  0
 23 24  2  0
 24 25  1  0
 25 26  1  0
 15 27  1  0
 27 28  2  0
  9  2  2  0
 27 11  1  0
 21 16  1  0
 26 22  2  0
M  CHG  3   3  -1   6  -1  25  -1
M  END
>  <UniqueID>  (2264) 
52

>  <SMILES>  (2264) 
C=c1/c(=C/c2c(O)[n-]c(=O)[n-]c2=O)cc(C)n1-c1ccccc1-c1cn[n-]c1

>  <Energy>  (2264) 
123.8549483512903

>  <Genealogy>  (2264) 
C=c1c(=Cc2c(O)[n-]c(=O)[n-]c2=O)cc(C)n1-c1ccccc1-c1cn[n-]c1 (protonated)
C=c1/c(=C/c2c(O)[n-]c(=O)[n-]c2=O)cc(C)n1-c1ccccc1-c1cn[n-]c1 (cis-trans isomerization)
C=c1/c(=C/c2c(O)[n-]c(=O)[n-]c2=O)cc(C)n1-c1ccccc1-c1cn[n-]c1 (3D coordinates assigned)
C=c1/c(=C/c2c(O)[n-]c(=O)[n-]c2=O)cc(C)n1-c1ccccc1-c1cn[n-]c1 (optimized conformer: 123.8549483512903 kcal/mol)

>  <smiles>  (2264) 
C=c1c(=Cc2c(O)[nH]c(=O)[nH]c2=O)cc(C)n1-c1ccccc1-c1cn[nH]c1

>  <score_type>  (2264) 
oracle

>  <origin>  (2264) 
adg

>  <m_score__min__energy>  (2264) 
-14.470000000000001

>  <m_primary>  (2264) 
energy

$$$$
63:0
     RDKit          3D

 36 40  0  0  0  0  0  0  0  0999 V2000
   56.7240   29.5870   44.0280 C   0  0  0  0  0  0  0  0  0  0  0  0
   57.6970   29.1610   44.8500 C   0  0  0  0  0  0  0  0  0  0  0  0
   57.9190   27.8460   45.2930 C   0  0  0  0  0  0  0  0  0  0  0  0
   57.3970   26.6740   44.8860 C   0  0  0  0  0  0  0  0  0  0  0  0
   56.9230   25.5870   45.7570 C   0  0  0  0  0  0  0  0  0  0  0  0
   57.6920   24.5410   46.1120 N   0  0  0  0  0  0  0  0  0  0  0  0
   56.8460   23.7490   46.8060 C   0  0  0  0  0  0  0  0  0  0  0  0
   57.2090   22.6600   47.3230 O   0  0  0  0  0  0  0  0  0  0  0  0
   55.5820   24.2120   46.8950 N   0  0  0  0  0  0  0  0  0  0  0  0
   55.6360   25.3680   46.2120 C   0  0  0  0  0  0  0  0  0  0  0  0
   54.5240   26.1780   45.9940 O   0  0  0  0  0  0  0  0  0  0  0  0
   58.8770   27.9310   46.2930 C   0  0  0  0  0  0  0  0  0  0  0  0
   59.2590   29.2540   46.3720 C   0  0  0  0  0  0  0  0  0  0  0  0
   60.3120   29.7830   47.3010 C   0  0  0  0  0  0  0  0  0  0  0  0
   58.5460   30.0030   45.4980 N   0  0  0  0  0  0  0  0  0  0  0  0
   58.7080   31.4170   45.2740 C   0  0  0  0  0  0  0  0  0  0  0  0
   58.2250   32.0110   44.0990 C   0  0  0  0  0  0  0  0  0  0  0  0
   58.3650   33.3860   43.8980 C   0  0  0  0  0  0  0  0  0  0  0  0
   58.9810   34.1780   44.8700 C   0  0  0  0  0  0  0  0  0  0  0  0
   59.4620   33.5990   46.0570 C   0  0  0  0  0  0  0  0  0  0  0  0
   60.1230   34.4300   47.0900 C   0  0  0  0  0  0  0  0  0  0  0  0
   59.8070   35.6480   47.1860 O   0  0  0  0  0  0  0  0  0  0  0  0
   61.1270   33.8840   47.9740 N   0  0  0  0  0  0  0  0  0  0  0  0
   62.1060   32.8970   47.4980 C   0  0  0  0  0  0  0  0  0  0  0  0
   63.5160   33.3100   47.9260 C   0  0  0  0  0  0  0  0  0  0  0  0
   63.5280   33.6870   49.3460 N   0  0  0  0  0  0  0  0  0  0  0  0
   64.6360   33.3120   50.1840 C   0  0  0  0  0  0  0  0  0  0  0  0
   64.8720   33.9940   51.3880 C   0  0  0  0  0  0  0  0  0  0  0  0
   65.9620   33.6470   52.1930 C   0  0  0  0  0  0  0  0  0  0  0  0
   66.8220   32.6160   51.8040 C   0  0  0  0  0  0  0  0  0  0  0  0
   67.8760   32.2800   52.5860 F   0  0  0  0  0  0  0  0  0  0  0  0
   66.5910   31.9310   50.6080 C   0  0  0  0  0  0  0  0  0  0  0  0
   65.5090   32.2810   49.7960 C   0  0  0  0  0  0  0  0  0  0  0  0
   62.5520   34.6860   49.8010 C   0  0  0  0  0  0  0  0  0  0  0  0
   61.1440   34.2530   49.3930 C   0  0  0  0  0  0  0  0  0  0  0  0
   59.3300   32.2140   46.2460 C   0  0  0  0  0  0  0  0  0  0  0  0
  1  2  2  0
  2  3  1  0
  3  4  2  3
  4  5  1  0
  5  6  1  0
  6  7  1  0
  7  8  2  0
  7  9  1  0
  9 10  1  0
 10 11  1  0
  3 12  1  0
 12 13  2  0
 13 14  1  0
 13 15  1  0
 15 16  1  0
 16 17  2  0
 17 18  1  0
 18 19  2  0
 19 20  1  0
 20 21  1  0
 21 22  2  0
 21 23  1  0
 23 24  1  0
 24 25  1  0
 25 26  1  0
 26 27  1  0
 27 28  2  0
 28 29  1  0
 29 30  2  0
 30 31  1  0
 30 32  1  0
 32 33  2  0
 26 34  1  0
 34 35  1  0
 20 36  2  0
 15  2  1  0
 36 16  1  0
 10  5  2  0
 35 23  1  0
 33 27  1  0
M  CHG  2   6  -1   9  -1
M  END
>  <UniqueID>  (2265) 
61

>  <SMILES>  (2265) 
C=c1c(=Cc2[n-]c(=O)[n-]c2O)cc(C)n1-c1cccc(C(=O)N2CCN(c3ccc(F)cc3)CC2)c1

>  <Energy>  (2265) 
148.91924860510912

>  <Genealogy>  (2265) 
C=c1c(=Cc2[n-]c(=O)[n-]c2O)cc(C)n1-c1cccc(C(=O)N2CCN(c3ccc(F)cc3)CC2)c1 (protonated)
C=c1c(=Cc2[n-]c(=O)[n-]c2O)cc(C)n1-c1cccc(C(=O)N2CCN(c3ccc(F)cc3)CC2)c1 (3D coordinates assigned)
C=c1c(=Cc2[n-]c(=O)[n-]c2O)cc(C)n1-c1cccc(C(=O)N2CCN(c3ccc(F)cc3)CC2)c1 (nonaromatic ring conformer: 148.91924860510912 kcal/mol)

>  <smiles>  (2265) 
C=c1c(=Cc2[nH]c(=O)[nH]c2O)cc(C)n1-c1cccc(C(=O)N2CCN(c3ccc(F)cc3)CC2)c1

>  <score_type>  (2265) 
oracle

>  <origin>  (2265) 
adg

>  <m_score__min__energy>  (2265) 
-15.01

>  <m_primary>  (2265) 
energy

$$$$
64:0
     RDKit          3D

 26 28  0  0  0  0  0  0  0  0999 V2000
   57.7670   26.5860   43.9010 C   0  0  0  0  0  0  0  0  0  0  0  0
   58.1040   26.8020   45.1820 C   0  0  0  0  0  0  0  0  0  0  0  0
   57.7290   26.0260   46.2910 C   0  0  0  0  0  0  0  0  0  0  0  0
   57.1710   24.8020   46.3650 C   0  0  0  0  0  0  0  0  0  0  0  0
   55.8050   24.4560   45.9390 C   0  0  0  0  0  0  0  0  0  0  0  0
   55.3500   23.2020   45.7640 N   0  0  0  0  0  0  0  0  0  0  0  0
   54.0350   23.3790   45.5150 C   0  0  0  0  0  0  0  0  0  0  0  0
   53.2540   22.4200   45.2810 O   0  0  0  0  0  0  0  0  0  0  0  0
   53.6190   24.6630   45.5490 N   0  0  0  0  0  0  0  0  0  0  0  0
   54.7500   25.3300   45.8320 C   0  0  0  0  0  0  0  0  0  0  0  0
   54.8160   26.7070   45.9960 O   0  0  0  0  0  0  0  0  0  0  0  0
   58.0680   26.7630   47.4110 C   0  0  0  0  0  0  0  0  0  0  0  0
   58.6960   27.9070   46.9640 C   0  0  0  0  0  0  0  0  0  0  0  0
   59.2310   28.9820   47.8600 C   0  0  0  0  0  0  0  0  0  0  0  0
   58.7370   27.9270   45.6110 N   0  0  0  0  0  0  0  0  0  0  0  0
   59.2820   29.0120   44.7750 C   0  0  0  0  0  0  0  0  0  0  0  0
   58.7090   30.3630   45.1740 C   0  0  0  0  0  0  0  0  0  0  0  0
   59.5050   31.2590   45.9220 C   0  0  0  0  0  0  0  0  0  0  0  0
   60.7380   30.8990   46.3590 F   0  0  0  0  0  0  0  0  0  0  0  0
   59.0430   32.5420   46.2230 C   0  0  0  0  0  0  0  0  0  0  0  0
   57.7810   32.9480   45.8020 C   0  0  0  0  0  0  0  0  0  0  0  0
   56.9570   32.0640   45.1080 C   0  0  0  0  0  0  0  0  0  0  0  0
   57.3900   30.7590   44.8130 C   0  0  0  0  0  0  0  0  0  0  0  0
   56.4250   29.8410   44.1670 C   0  0  0  0  0  0  0  0  0  0  0  0
   56.5790   29.5060   42.9630 O   0  0  0  0  0  0  0  0  0  0  0  0
   55.3010   29.3970   44.8550 O   0  0  0  0  0  0  0  0  0  0  0  0
  1  2  2  0
  2  3  1  0
  3  4  2  3
  4  5  1  0
  5  6  1  0
  6  7  1  0
  7  8  2  0
  7  9  1  0
  9 10  1  0
 10 11  1  0
  3 12  1  0
 12 13  2  0
 13 14  1  0
 13 15  1  0
 15 16  1  0
 16 17  1  0
 17 18  2  0
 18 19  1  0
 18 20  1  0
 20 21  2  0
 21 22  1  0
 22 23  2  0
 23 24  1  0
 24 25  2  0
 24 26  1  0
 15  2  1  0
 23 17  1  0
 10  5  2  0
M  CHG  4   6  -1   9  -1  11  -1  26  -1
M  END
>  <UniqueID>  (2266) 
62

>  <SMILES>  (2266) 
C=c1c(=Cc2[n-]c(=O)[n-]c2[O-])cc(C)n1Cc1c(F)cccc1C(=O)[O-]

>  <Energy>  (2266) 
116.56402792368131

>  <Genealogy>  (2266) 
C=c1c(=Cc2[n-]c(=O)[n-]c2[O-])cc(C)n1Cc1c(F)cccc1C(=O)[O-] (protonated)
C=c1c(=Cc2[n-]c(=O)[n-]c2[O-])cc(C)n1Cc1c(F)cccc1C(=O)[O-] (3D coordinates assigned)
C=c1c(=Cc2[n-]c(=O)[n-]c2[O-])cc(C)n1Cc1c(F)cccc1C(=O)[O-] (optimized conformer: 116.56402792368131 kcal/mol)

>  <smiles>  (2266) 
C=c1c(=Cc2[nH]c(=O)[nH]c2O)cc(C)n1Cc1c(F)cccc1C(=O)O

>  <score_type>  (2266) 
oracle

>  <origin>  (2266) 
adg

>  <m_score__min__energy>  (2266) 
-17.149999999999999

>  <m_primary>  (2266) 
energy

$$$$
66:0
     RDKit          3D

 31 34  0  0  0  0  0  0  0  0999 V2000
   53.5140   28.5730   53.0290 C   0  0  0  0  0  0  0  0  0  0  0  0
   54.5330   29.4360   52.8860 C   0  0  0  0  0  0  0  0  0  0  0  0
   54.4540   30.7720   52.4580 C   0  0  0  0  0  0  0  0  0  0  0  0
   53.3940   31.5810   52.2700 C   0  0  0  0  0  0  0  0  0  0  0  0
   52.3810   31.4380   51.2140 C   0  0  0  0  0  0  0  0  0  0  0  0
   52.4310   30.4940   50.2580 N   0  0  0  0  0  0  0  0  0  0  0  0
   51.3970   30.8130   49.4500 C   0  0  0  0  0  0  0  0  0  0  0  0
   51.1030   30.1380   48.4280 O   0  0  0  0  0  0  0  0  0  0  0  0
   50.7110   31.9180   49.8140 N   0  0  0  0  0  0  0  0  0  0  0  0
   51.3550   32.3110   50.9230 C   0  0  0  0  0  0  0  0  0  0  0  0
   51.0300   33.4560   51.6390 O   0  0  0  0  0  0  0  0  0  0  0  0
   55.7570   31.1820   52.2360 C   0  0  0  0  0  0  0  0  0  0  0  0
   56.5780   30.1260   52.5750 C   0  0  0  0  0  0  0  0  0  0  0  0
   58.0500   30.1660   52.4410 C   0  0  0  0  0  0  0  0  0  0  0  0
   58.7500   29.9140   53.4620 O   0  0  0  0  0  0  0  0  0  0  0  0
   58.6800   30.6530   51.2300 N   0  0  2  0  0  0  0  0  0  0  0  0
   58.2280   32.0320   50.9090 C   0  0  0  0  0  0  0  0  0  0  0  0
   58.4850   32.4270   49.4360 C   0  0  0  0  0  0  0  0  0  0  0  0
   59.6000   31.5750   48.8080 C   0  0  2  0  0  0  0  0  0  0  0  0
   59.8230   31.9690   47.4150 N   0  0  0  0  0  0  0  0  0  0  0  0
   59.1040   32.7370   46.6410 C   0  0  0  0  0  0  0  0  0  0  0  0
   57.8610   32.2980   46.2960 N   0  0  0  0  0  0  0  0  0  0  0  0
   57.0250   33.0120   45.4990 C   0  0  0  0  0  0  0  0  0  0  0  0
   57.4270   34.2480   44.9980 C   0  0  0  0  0  0  0  0  0  0  0  0
   58.6920   34.7340   45.3220 C   0  0  0  0  0  0  0  0  0  0  0  0
   59.5440   33.9890   46.1420 C   0  0  0  0  0  0  0  0  0  0  0  0
   60.7700   34.5010   46.4110 F   0  0  0  0  0  0  0  0  0  0  0  0
   59.2010   30.0870   48.8530 C   0  0  0  0  0  0  0  0  0  0  0  0
   58.4000   29.7180   50.1220 C   0  0  0  0  0  0  0  0  0  0  0  0
   55.8380   29.0750   53.0050 N   0  0  0  0  0  0  0  0  0  0  0  0
   56.3500   27.7930   53.5000 C   0  0  0  0  0  0  0  0  0  0  0  0
  1  2  2  0
  2  3  1  0
  3  4  2  3
  4  5  1  0
  5  6  1  0
  6  7  1  0
  7  8  2  0
  7  9  1  0
  9 10  1  0
 10 11  1  0
  3 12  1  0
 12 13  2  0
 13 14  1  0
 14 15  2  0
 16 14  1  1
 16 17  1  0
 17 18  1  0
 19 18  1  6
 19 20  1  0
 20 21  2  3
 21 22  1  0
 22 23  1  0
 23 24  2  0
 24 25  1  0
 25 26  2  0
 26 27  1  0
 19 28  1  0
 28 29  1  0
 13 30  1  0
 30 31  1  0
 30  2  1  0
 10  5  2  0
 29 16  1  0
 26 21  1  0
M  CHG  5   6  -1   9  -1  11  -1  16   1  22  -1
M  END
>  <UniqueID>  (2267) 
64

>  <SMILES>  (2267) 
C=c1c(=Cc2[n-]c(=O)[n-]c2[O-])cc(C(=O)[NH+]2CCC(N=c3[n-]cccc3F)CC2)n1C

>  <Energy>  (2267) 
143.7080331519478

>  <Genealogy>  (2267) 
C=c1c(=Cc2[n-]c(=O)[n-]c2[O-])cc(C(=O)[NH+]2CCC(N=c3[n-]cccc3F)CC2)n1C (protonated)
C=c1c(=Cc2[n-]c(=O)[n-]c2[O-])cc(C(=O)[NH+]2CCC(N=c3[n-]cccc3F)CC2)n1C (3D coordinates assigned)
C=c1c(=Cc2[n-]c(=O)[n-]c2[O-])cc(C(=O)[NH+]2CCC(N=c3[n-]cccc3F)CC2)n1C (nonaromatic ring conformer: 143.7080331519478 kcal/mol)

>  <smiles>  (2267) 
C=c1c(=Cc2[nH]c(=O)[nH]c2O)cc(C(=O)N2CCC(N=c3[nH]cccc3F)CC2)n1C

>  <score_type>  (2267) 
oracle

>  <origin>  (2267) 
adg

>  <m_score__min__energy>  (2267) 
-17.620000000000001

>  <m_primary>  (2267) 
energy

$$$$
72:0
     RDKit          3D

 33 36  0  0  0  0  0  0  0  0999 V2000
   60.2780   29.9490   46.7550 C   0  0  0  0  0  0  0  0  0  0  0  0
   59.3850   30.7860   46.2040 C   0  0  0  0  0  0  0  0  0  0  0  0
   58.4740   30.4770   45.1890 C   0  0  0  0  0  0  0  0  0  0  0  0
   58.3510   29.3110   44.5250 C   0  0  0  0  0  0  0  0  0  0  0  0
   57.5960   28.1500   45.0480 C   0  0  0  0  0  0  0  0  0  0  0  0
   56.2040   28.2010   45.2390 C   0  0  0  0  0  0  0  0  0  0  0  0
   55.4890   29.3570   44.9380 O   0  0  0  0  0  0  0  0  0  0  0  0
   55.5510   27.1200   45.7410 N   0  0  0  0  0  0  0  0  0  0  0  0
   56.2210   25.9900   46.0820 C   0  0  0  0  0  0  0  0  0  0  0  0
   55.5940   25.0020   46.5400 O   0  0  0  0  0  0  0  0  0  0  0  0
   57.5700   25.9290   45.9340 N   0  0  0  0  0  0  0  0  0  0  0  0
   58.2700   26.9800   45.4350 C   0  0  0  0  0  0  0  0  0  0  0  0
   59.5210   26.8890   45.3170 O   0  0  0  0  0  0  0  0  0  0  0  0
   57.7240   31.6270   44.9730 C   0  0  0  0  0  0  0  0  0  0  0  0
   58.2010   32.5790   45.8520 C   0  0  0  0  0  0  0  0  0  0  0  0
   57.6500   33.9660   45.9860 C   0  0  0  0  0  0  0  0  0  0  0  0
   59.2040   32.0700   46.6020 N   0  0  0  0  0  0  0  0  0  0  0  0
   59.9210   32.7710   47.6330 C   0  0  0  0  0  0  0  0  0  0  0  0
   59.4740   32.7090   48.9600 C   0  0  0  0  0  0  0  0  0  0  0  0
   60.1630   33.3870   49.9810 C   0  0  0  0  0  0  0  0  0  0  0  0
   59.6880   33.3220   51.3820 C   0  0  0  0  0  0  0  0  0  0  0  0
   60.0750   34.1950   52.2070 O   0  0  0  0  0  0  0  0  0  0  0  0
   58.7800   32.2950   51.8180 N   0  0  0  0  0  0  0  0  0  0  0  0
   57.6340   32.6540   52.6600 C   0  0  0  0  0  0  0  0  0  0  0  0
   56.9970   31.4040   53.2880 C   0  0  0  0  0  0  0  0  0  0  0  0
   56.7130   30.3410   52.2940 N   0  0  0  0  0  0  0  0  0  0  0  0
   55.3830   30.5140   51.6880 C   0  0  0  0  0  0  0  0  0  0  0  0
   57.7580   30.1490   51.2530 C   0  0  0  0  0  0  0  0  0  0  0  0
   59.0680   30.8810   51.5670 C   0  0  0  0  0  0  0  0  0  0  0  0
   61.2920   34.1550   49.6490 C   0  0  0  0  0  0  0  0  0  0  0  0
   61.7350   34.2250   48.3250 C   0  0  0  0  0  0  0  0  0  0  0  0
   61.0540   33.5360   47.3170 C   0  0  0  0  0  0  0  0  0  0  0  0
   61.4840   33.6280   46.0340 F   0  0  0  0  0  0  0  0  0  0  0  0
  1  2  2  0
  2  3  1  0
  3  4  2  3
  4  5  1  0
  5  6  2  0
  6  7  1  0
  6  8  1  0
  8  9  1  0
  9 10  2  0
  9 11  1  0
 11 12  1  0
 12 13  2  0
  3 14  1  0
 14 15  2  0
 15 16  1  0
 15 17  1  0
 17 18  1  0
 18 19  2  0
 19 20  1  0
 20 21  1  0
 21 22  2  0
 21 23  1  0
 23 24  1  0
 24 25  1  0
 25 26  1  0
 26 27  1  0
 26 28  1  0
 28 29  1  0
 20 30  2  0
 30 31  1  0
 31 32  2  0
 32 33  1  0
 17  2  1  0
 32 18  1  0
 12  5  1  0
 29 23  1  0
M  CHG  2   8  -1  11  -1
M  END
>  <UniqueID>  (2268) 
70

>  <SMILES>  (2268) 
C=c1c(=Cc2c(O)[n-]c(=O)[n-]c2=O)cc(C)n1-c1cc(C(=O)N2CCN(C)CC2)ccc1F

>  <Energy>  (2268) 
113.9972087724449

>  <Genealogy>  (2268) 
C=c1c(=Cc2c(O)[n-]c(=O)[n-]c2=O)cc(C)n1-c1cc(C(=O)N2CCN(C)CC2)ccc1F (protonated)
C=c1c(=Cc2c(O)[n-]c(=O)[n-]c2=O)cc(C)n1-c1cc(C(=O)N2CCN(C)CC2)ccc1F (3D coordinates assigned)
C=c1c(=Cc2c(O)[n-]c(=O)[n-]c2=O)cc(C)n1-c1cc(C(=O)N2CCN(C)CC2)ccc1F (nonaromatic ring conformer: 113.9972087724449 kcal/mol)

>  <smiles>  (2268) 
C=c1c(=Cc2c(O)[nH]c(=O)[nH]c2=O)cc(C)n1-c1cc(C(=O)N2CCN(C)CC2)ccc1F

>  <score_type>  (2268) 
oracle

>  <origin>  (2268) 
adg

>  <m_score__min__energy>  (2268) 
-14.69

>  <m_primary>  (2268) 
energy

$$$$
74:0
     RDKit          3D

 24 26  0  0  0  0  0  0  0  0999 V2000
   58.7090   28.3630   47.5750 C   0  0  0  0  0  0  0  0  0  0  0  0
   58.2170   29.0720   46.5490 C   0  0  0  0  0  0  0  0  0  0  0  0
   57.6270   28.5820   45.3760 C   0  0  0  0  0  0  0  0  0  0  0  0
   57.5590   27.3340   44.8700 C   0  0  0  0  0  0  0  0  0  0  0  0
   57.1580   26.1350   45.6170 C   0  0  0  0  0  0  0  0  0  0  0  0
   58.2220   24.9440   46.1510 S   0  0  0  0  0  0  0  0  0  0  0  0
   57.0210   24.1320   47.0000 C   0  0  0  0  0  0  0  0  0  0  0  0
   57.2050   23.0700   47.6490 O   0  0  0  0  0  0  0  0  0  0  0  0
   55.8220   24.7500   46.9270 N   0  0  0  0  0  0  0  0  0  0  0  0
   55.9030   25.8760   46.1700 C   0  0  0  0  0  0  0  0  0  0  0  0
   54.8070   26.7110   45.9900 O   0  0  0  0  0  0  0  0  0  0  0  0
   57.0800   29.7130   44.7780 C   0  0  0  0  0  0  0  0  0  0  0  0
   56.3200   29.7720   43.4890 C   0  0  0  0  0  0  0  0  0  0  0  0
   57.3730   30.8050   45.5060 N   0  0  0  0  0  0  0  0  0  0  0  0
   58.0790   30.4230   46.5600 N   0  0  0  0  0  0  0  0  0  0  0  0
   58.5060   31.3500   47.6180 C   0  0  0  0  0  0  0  0  0  0  0  0
   59.6480   32.2260   47.1510 C   0  0  0  0  0  0  0  0  0  0  0  0
   60.9620   31.9120   47.5380 C   0  0  0  0  0  0  0  0  0  0  0  0
   62.0300   32.7190   47.1380 C   0  0  0  0  0  0  0  0  0  0  0  0
   61.7990   33.8520   46.3570 C   0  0  0  0  0  0  0  0  0  0  0  0
   60.4970   34.1840   45.9740 C   0  0  0  0  0  0  0  0  0  0  0  0
   59.4170   33.3830   46.3690 C   0  0  0  0  0  0  0  0  0  0  0  0
   58.0840   33.7680   45.9730 C   0  0  0  0  0  0  0  0  0  0  0  0
   57.0150   34.0760   45.6540 N   0  0  0  0  0  0  0  0  0  0  0  0
  1  2  2  0
  2  3  1  0
  3  4  2  3
  4  5  1  0
  5  6  1  0
  6  7  1  0
  7  8  2  0
  7  9  1  0
  9 10  1  0
 10 11  1  0
  3 12  1  0
 12 13  1  0
 12 14  2  0
 14 15  1  0
 15 16  1  0
 16 17  1  0
 17 18  2  0
 18 19  1  0
 19 20  2  0
 20 21  1  0
 21 22  2  0
 22 23  1  0
 23 24  3  0
 15  2  1  0
 22 17  1  0
 10  5  2  0
M  CHG  2   9  -1  11  -1
M  END
>  <UniqueID>  (2269) 
71

>  <SMILES>  (2269) 
C=c1c(=Cc2sc(=O)[n-]c2[O-])c(C)nn1Cc1ccccc1C#N

>  <Energy>  (2269) 
113.4154490327523

>  <Genealogy>  (2269) 
C=c1c(=Cc2sc(=O)[n-]c2[O-])c(C)nn1Cc1ccccc1C#N (protonated)
C=c1c(=Cc2sc(=O)[n-]c2[O-])c(C)nn1Cc1ccccc1C#N (3D coordinates assigned)
C=c1c(=Cc2sc(=O)[n-]c2[O-])c(C)nn1Cc1ccccc1C#N (optimized conformer: 113.4154490327523 kcal/mol)

>  <smiles>  (2269) 
C=c1c(=Cc2sc(=O)[nH]c2O)c(C)nn1Cc1ccccc1C#N

>  <score_type>  (2269) 
oracle

>  <origin>  (2269) 
adg

>  <m_score__min__energy>  (2269) 
-14.800000000000001

>  <m_primary>  (2269) 
energy

$$$$
76:0
     RDKit          3D

 29 32  0  0  0  0  0  0  0  0999 V2000
   57.4070   30.2580   43.9400 C   0  0  0  0  0  0  0  0  0  0  0  0
   57.9320   30.0060   45.1510 C   0  0  0  0  0  0  0  0  0  0  0  0
   57.9420   28.7610   45.8010 C   0  0  0  0  0  0  0  0  0  0  0  0
   57.6670   27.5220   45.3500 C   0  0  0  0  0  0  0  0  0  0  0  0
   57.2110   26.3890   46.1710 C   0  0  0  0  0  0  0  0  0  0  0  0
   58.0350   25.4430   46.6540 N   0  0  0  0  0  0  0  0  0  0  0  0
   57.1920   24.5580   47.2280 C   0  0  0  0  0  0  0  0  0  0  0  0
   57.5940   23.5200   47.8140 O   0  0  0  0  0  0  0  0  0  0  0  0
   55.8820   24.8680   47.1160 N   0  0  0  0  0  0  0  0  0  0  0  0
   55.9100   26.0210   46.4310 C   0  0  0  0  0  0  0  0  0  0  0  0
   54.7710   26.7080   46.0280 O   0  0  0  0  0  0  0  0  0  0  0  0
   58.2990   29.0120   47.1080 C   0  0  0  0  0  0  0  0  0  0  0  0
   58.5440   30.3630   47.2070 C   0  0  0  0  0  0  0  0  0  0  0  0
   58.8760   31.0170   48.4880 C   0  0  0  0  0  0  0  0  0  0  0  0
   58.1980   32.0280   48.8190 O   0  0  0  0  0  0  0  0  0  0  0  0
   59.9170   30.5200   49.3800 N   0  0  2  0  0  0  0  0  0  0  0  0
   60.0980   31.4020   50.5560 C   0  0  0  0  0  0  0  0  0  0  0  0
   60.5940   32.8020   50.1590 C   0  0  0  0  0  0  0  0  0  0  0  0
   61.6940   32.7500   49.1310 C   0  0  0  0  0  0  0  0  0  0  0  0
   62.4000   33.9230   48.8220 C   0  0  0  0  0  0  0  0  0  0  0  0
   63.3740   33.9190   47.8200 C   0  0  0  0  0  0  0  0  0  0  0  0
   63.6460   32.7450   47.1140 C   0  0  0  0  0  0  0  0  0  0  0  0
   62.9450   31.5730   47.4070 C   0  0  0  0  0  0  0  0  0  0  0  0
   61.9540   31.5700   48.4010 C   0  0  0  0  0  0  0  0  0  0  0  0
   61.2280   30.2860   48.7280 C   0  0  0  0  0  0  0  0  0  0  0  0
   58.3750   30.9780   46.0040 N   0  0  0  0  0  0  0  0  0  0  0  0
   58.5540   32.4140   45.6760 C   0  0  0  0  0  0  0  0  0  0  0  0
   57.3460   33.2370   46.1270 C   0  0  0  0  0  0  0  0  0  0  0  0
   59.8660   32.9980   46.2190 C   0  0  0  0  0  0  0  0  0  0  0  0
  1  2  2  0
  2  3  1  0
  3  4  2  3
  4  5  1  0
  5  6  1  0
  6  7  1  0
  7  8  2  0
  7  9  1  0
  9 10  1  0
 10 11  1  0
  3 12  1  0
 12 13  2  0
 13 14  1  0
 14 15  2  0
 16 14  1  6
 16 17  1  0
 17 18  1  0
 18 19  1  0
 19 20  2  0
 20 21  1  0
 21 22  2  0
 22 23  1  0
 23 24  2  0
 24 25  1  0
 13 26  1  0
 26 27  1  0
 27 28  1  0
 27 29  1  0
 26  2  1  0
 10  5  2  0
 25 16  1  0
 24 19  1  0
M  CHG  4   6  -1   9  -1  11  -1  16   1
M  END
>  <UniqueID>  (2270) 
73

>  <SMILES>  (2270) 
C=c1c(=Cc2[n-]c(=O)[n-]c2[O-])cc(C(=O)[N@@H+]2CCc3ccccc3C2)n1C(C)C

>  <Energy>  (2270) 
140.18832271164806

>  <Genealogy>  (2270) 
C=c1c(=Cc2[n-]c(=O)[n-]c2[O-])cc(C(=O)[NH+]2CCc3ccccc3C2)n1C(C)C (protonated)
C=c1c(=Cc2[n-]c(=O)[n-]c2[O-])cc(C(=O)[N@@H+]2CCc3ccccc3C2)n1C(C)C (chirality)
C=c1c(=Cc2[n-]c(=O)[n-]c2[O-])cc(C(=O)[N@@H+]2CCc3ccccc3C2)n1C(C)C (3D coordinates assigned)
C=c1c(=Cc2[n-]c(=O)[n-]c2[O-])cc(C(=O)[N@@H+]2CCc3ccccc3C2)n1C(C)C (nonaromatic ring conformer: 140.18832271164806 kcal/mol)

>  <smiles>  (2270) 
C=c1c(=Cc2[nH]c(=O)[nH]c2O)cc(C(=O)N2CCc3ccccc3C2)n1C(C)C

>  <score_type>  (2270) 
oracle

>  <origin>  (2270) 
adg

>  <m_score__min__energy>  (2270) 
-15.99

>  <m_primary>  (2270) 
energy

$$$$
78:0
     RDKit          3D

 33 36  0  0  0  0  0  0  0  0999 V2000
   56.4350   21.9130   43.0030 C   0  0  0  0  0  0  0  0  0  0  0  0
   55.7570   22.7880   43.7920 N   0  0  0  0  0  0  0  0  0  0  0  0
   56.0220   22.9180   45.1250 C   0  0  0  0  0  0  0  0  0  0  0  0
   55.3620   23.7620   45.8660 N   0  0  0  0  0  0  0  0  0  0  0  0
   55.4370   25.1970   45.8240 C   0  0  0  0  0  0  0  0  0  0  0  0
   54.4010   25.8950   45.6430 O   0  0  0  0  0  0  0  0  0  0  0  0
   56.7470   25.8510   45.9940 C   0  0  0  0  0  0  0  0  0  0  0  0
   56.7950   27.1880   46.2410 N   0  0  0  0  0  0  0  0  0  0  0  0
   57.9680   27.8550   46.4100 C   0  0  0  0  0  0  0  0  0  0  0  0
   57.9570   29.2300   46.6660 C   0  0  0  0  0  0  0  0  0  0  0  0
   59.1610   29.9370   46.8350 C   0  0  0  0  0  0  0  0  0  0  0  0
   59.1330   31.3910   47.1170 C   0  0  0  0  0  0  0  0  0  0  0  0
   58.8400   31.7930   48.2760 O   0  0  0  0  0  0  0  0  0  0  0  0
   59.4220   32.3510   46.0880 N   0  0  0  0  0  0  0  0  0  0  0  0
   59.6860   33.7580   46.3820 C   0  0  0  0  0  0  0  0  0  0  0  0
   60.9930   33.8950   47.1230 C   0  0  0  0  0  0  0  0  0  0  0  0
   62.1950   33.7530   46.4090 C   0  0  0  0  0  0  0  0  0  0  0  0
   63.4230   33.8450   47.0650 C   0  0  0  0  0  0  0  0  0  0  0  0
   63.4660   34.0770   48.4380 C   0  0  0  0  0  0  0  0  0  0  0  0
   62.2800   34.2160   49.1640 C   0  0  0  0  0  0  0  0  0  0  0  0
   61.0310   34.1240   48.5170 C   0  0  0  0  0  0  0  0  0  0  0  0
   59.8240   34.2530   49.2230 O   0  0  0  0  0  0  0  0  0  0  0  0
   59.6110   33.7880   50.5520 C   0  0  0  0  0  0  0  0  0  0  0  0
   60.3790   29.2370   46.7630 C   0  0  0  0  0  0  0  0  0  0  0  0
   60.3970   27.8630   46.5100 C   0  0  0  0  0  0  0  0  0  0  0  0
   59.1940   27.1580   46.3290 C   0  0  0  0  0  0  0  0  0  0  0  0
   59.1700   25.7740   46.0760 C   0  0  0  0  0  0  0  0  0  0  0  0
   60.2390   25.1110   45.9990 O   0  0  0  0  0  0  0  0  0  0  0  0
   57.9450   25.1220   45.9080 C   0  0  0  0  0  0  0  0  0  0  0  0
   57.0250   22.1260   45.7050 C   0  0  0  0  0  0  0  0  0  0  0  0
   57.3200   22.2340   47.0610 O   0  0  0  0  0  0  0  0  0  0  0  0
   57.7330   21.2220   44.9100 C   0  0  0  0  0  0  0  0  0  0  0  0
   57.4390   21.1130   43.5510 C   0  0  0  0  0  0  0  0  0  0  0  0
  1  2  1  0
  2  3  1  0
  3  4  2  0
  4  5  1  0
  5  6  2  0
  5  7  1  0
  7  8  1  0
  8  9  1  0
  9 10  2  0
 10 11  1  0
 11 12  1  0
 12 13  2  0
 12 14  1  0
 14 15  1  0
 15 16  1  0
 16 17  2  0
 17 18  1  0
 18 19  2  0
 19 20  1  0
 20 21  2  0
 21 22  1  0
 22 23  1  0
 11 24  2  0
 24 25  1  0
 25 26  2  0
 26 27  1  0
 27 28  2  0
 27 29  1  0
  3 30  1  0
 30 31  1  0
 30 32  2  0
 32 33  1  0
 33  1  2  0
 29  7  2  0
 26  9  1  0
 21 16  1  0
M  CHG  3   2  -1   8  -1  31  -1
M  END
>  <UniqueID>  (2271) 
75

>  <SMILES>  (2271) 
COc1ccccc1CNC(=O)c1ccc2c(=O)cc(C(=O)/N=c3\[n-]cccc3[O-])[n-]c2c1

>  <Energy>  (2271) 
63.23722215403789

>  <Genealogy>  (2271) 
COc1ccccc1CNC(=O)c1ccc2c(=O)cc(C(=O)N=c3[n-]cccc3[O-])[n-]c2c1 (protonated)
COc1ccccc1CNC(=O)c1ccc2c(=O)cc(C(=O)/N=c3\[n-]cccc3[O-])[n-]c2c1 (cis-trans isomerization)
COc1ccccc1CNC(=O)c1ccc2c(=O)cc(C(=O)/N=c3\[n-]cccc3[O-])[n-]c2c1 (3D coordinates assigned)
COc1ccccc1CNC(=O)c1ccc2c(=O)cc(C(=O)/N=c3\[n-]cccc3[O-])[n-]c2c1 (optimized conformer: 63.23722215403789 kcal/mol)

>  <smiles>  (2271) 
COc1ccccc1CNC(=O)c1ccc2c(=O)cc(C(=O)N=c3[nH]cccc3O)[nH]c2c1

>  <score_type>  (2271) 
oracle

>  <origin>  (2271) 
adg

>  <m_score__min__energy>  (2271) 
-15.68

>  <m_primary>  (2271) 
energy

$$$$
82:0
     RDKit          3D

 26 28  0  0  0  0  0  0  0  0999 V2000
   55.7110   31.6350   51.9850 C   0  0  0  0  0  0  0  0  0  0  0  0
   55.1920   30.5380   52.5620 C   0  0  0  0  0  0  0  0  0  0  0  0
   53.8320   30.3000   52.8100 C   0  0  0  0  0  0  0  0  0  0  0  0
   52.8020   31.1340   52.5450 C   0  0  0  0  0  0  0  0  0  0  0  0
   52.0910   31.2460   51.2520 C   0  0  0  0  0  0  0  0  0  0  0  0
   52.0840   30.3260   50.2700 N   0  0  0  0  0  0  0  0  0  0  0  0
   51.2730   30.8670   49.3350 C   0  0  0  0  0  0  0  0  0  0  0  0
   51.0170   30.2910   48.2450 O   0  0  0  0  0  0  0  0  0  0  0  0
   50.7550   32.0680   49.6620 N   0  0  0  0  0  0  0  0  0  0  0  0
   51.2790   32.2920   50.8770 C   0  0  0  0  0  0  0  0  0  0  0  0
   51.0190   33.4290   51.6310 O   0  0  0  0  0  0  0  0  0  0  0  0
   53.7590   29.0240   53.3550 C   0  0  0  0  0  0  0  0  0  0  0  0
   55.0520   28.5470   53.4320 C   0  0  0  0  0  0  0  0  0  0  0  0
   55.4200   27.1990   53.9740 C   0  0  0  0  0  0  0  0  0  0  0  0
   55.9250   29.4610   52.9520 N   0  0  0  0  0  0  0  0  0  0  0  0
   57.3560   29.3070   52.8970 C   0  0  0  0  0  0  0  0  0  0  0  0
   58.0280   29.2750   53.9630 O   0  0  0  0  0  0  0  0  0  0  0  0
   58.0090   29.1270   51.6360 N   0  0  0  0  0  0  0  0  0  0  0  0
   59.3910   29.4110   51.3800 C   0  0  0  0  0  0  0  0  0  0  0  0
   60.3450   28.4500   51.7370 C   0  0  0  0  0  0  0  0  0  0  0  0
   61.7040   28.6790   51.5060 C   0  0  0  0  0  0  0  0  0  0  0  0
   62.1190   29.8650   50.8960 C   0  0  0  0  0  0  0  0  0  0  0  0
   61.1760   30.8170   50.5030 C   0  0  0  0  0  0  0  0  0  0  0  0
   59.8100   30.5960   50.7310 C   0  0  0  0  0  0  0  0  0  0  0  0
   58.8600   31.5590   50.2280 C   0  0  0  0  0  0  0  0  0  0  0  0
   58.1000   32.3330   49.8270 N   0  0  0  0  0  0  0  0  0  0  0  0
  1  2  2  0
  2  3  1  0
  3  4  2  0
  4  5  1  0
  5  6  1  0
  6  7  1  0
  7  8  2  0
  7  9  1  0
  9 10  1  0
 10 11  1  0
  3 12  1  0
 12 13  2  0
 13 14  1  0
 13 15  1  0
 15 16  1  0
 16 17  2  0
 16 18  1  0
 18 19  1  0
 19 20  2  0
 20 21  1  0
 21 22  2  0
 22 23  1  0
 23 24  2  0
 24 25  1  0
 25 26  3  0
 15  2  1  0
 24 19  1  0
 10  5  2  0
M  CHG  4   6  -1   9  -1  11  -1  18  -1
M  END
>  <UniqueID>  (2272) 
79

>  <SMILES>  (2272) 
C=c1/c(=C/c2[n-]c(=O)[n-]c2[O-])cc(C)n1C(=O)[N-]c1ccccc1C#N

>  <Energy>  (2272) 
112.08743196114203

>  <Genealogy>  (2272) 
C=c1c(=Cc2[n-]c(=O)[n-]c2[O-])cc(C)n1C(=O)[N-]c1ccccc1C#N (protonated)
C=c1/c(=C/c2[n-]c(=O)[n-]c2[O-])cc(C)n1C(=O)[N-]c1ccccc1C#N (cis-trans isomerization)
C=c1/c(=C/c2[n-]c(=O)[n-]c2[O-])cc(C)n1C(=O)[N-]c1ccccc1C#N (3D coordinates assigned)
C=c1/c(=C/c2[n-]c(=O)[n-]c2[O-])cc(C)n1C(=O)[N-]c1ccccc1C#N (optimized conformer: 112.08743196114203 kcal/mol)

>  <smiles>  (2272) 
C=c1c(=Cc2[nH]c(=O)[nH]c2O)cc(C)n1C(=O)Nc1ccccc1C#N

>  <score_type>  (2272) 
oracle

>  <origin>  (2272) 
adg

>  <m_score__min__energy>  (2272) 
-16.91

>  <m_primary>  (2272) 
energy

$$$$
84:0
     RDKit          3D

 35 38  0  0  0  0  0  0  0  0999 V2000
   54.4890   31.2240   51.5660 C   0  0  0  0  0  0  0  0  0  0  0  0
   54.4480   30.8120   52.8430 C   0  0  0  0  0  0  0  0  0  0  0  0
   53.3000   30.6320   53.6180 C   0  0  0  0  0  0  0  0  0  0  0  0
   52.0200   30.8000   53.2340 C   0  0  0  0  0  0  0  0  0  0  0  0
   51.6030   31.0250   51.8370 C   0  0  0  0  0  0  0  0  0  0  0  0
   51.8630   30.1610   50.8420 N   0  0  0  0  0  0  0  0  0  0  0  0
   51.3890   30.7930   49.7460 C   0  0  0  0  0  0  0  0  0  0  0  0
   51.4430   30.2860   48.5960 O   0  0  0  0  0  0  0  0  0  0  0  0
   50.8680   32.0170   49.9780 N   0  0  0  0  0  0  0  0  0  0  0  0
   51.0190   32.1540   51.3040 C   0  0  0  0  0  0  0  0  0  0  0  0
   50.6780   33.3070   52.0010 O   0  0  0  0  0  0  0  0  0  0  0  0
   53.7330   30.1500   54.8480 C   0  0  0  0  0  0  0  0  0  0  0  0
   55.1080   30.0700   54.7800 C   0  0  0  0  0  0  0  0  0  0  0  0
   55.9790   29.5170   55.8670 C   0  0  0  0  0  0  0  0  0  0  0  0
   55.5440   30.4700   53.5650 N   0  0  0  0  0  0  0  0  0  0  0  0
   56.9040   30.4100   53.1010 C   0  0  0  0  0  0  0  0  0  0  0  0
   57.2450   29.6180   51.9960 C   0  0  0  0  0  0  0  0  0  0  0  0
   58.5740   29.5440   51.5740 C   0  0  0  0  0  0  0  0  0  0  0  0
   59.5720   30.2480   52.2600 C   0  0  0  0  0  0  0  0  0  0  0  0
   59.2450   31.0440   53.3740 C   0  0  0  0  0  0  0  0  0  0  0  0
   60.3070   31.7440   54.1420 C   0  0  0  0  0  0  0  0  0  0  0  0
   61.0860   31.0900   54.8860 O   0  0  0  0  0  0  0  0  0  0  0  0
   60.4410   33.1710   54.0780 N   0  0  0  0  0  0  0  0  0  0  0  0
   59.4140   34.0070   54.6970 C   0  0  0  0  0  0  0  0  0  0  0  0
   61.5560   33.7600   53.3260 C   0  0  0  0  0  0  0  0  0  0  0  0
   61.2690   33.7100   51.8490 C   0  0  0  0  0  0  0  0  0  0  0  0
   59.9490   33.6100   51.3880 C   0  0  0  0  0  0  0  0  0  0  0  0
   59.6890   33.4870   50.0230 C   0  0  0  0  0  0  0  0  0  0  0  0
   60.7430   33.4390   49.1080 C   0  0  0  0  0  0  0  0  0  0  0  0
   62.0770   33.5070   49.5500 C   0  0  0  0  0  0  0  0  0  0  0  0
   63.1870   33.3820   48.5710 C   0  0  0  0  0  0  0  0  0  0  0  0
   64.3760   33.2920   48.9820 O   0  0  0  0  0  0  0  0  0  0  0  0
   62.9380   33.3570   47.0940 C   0  0  0  0  0  0  0  0  0  0  0  0
   62.3290   33.6650   50.9270 C   0  0  0  0  0  0  0  0  0  0  0  0
   57.8990   31.1350   53.7680 C   0  0  0  0  0  0  0  0  0  0  0  0
  1  2  2  0
  2  3  1  0
  3  4  2  0
  4  5  1  0
  5  6  1  0
  6  7  1  0
  7  8  2  0
  7  9  1  0
  9 10  1  0
 10 11  1  0
  3 12  1  0
 12 13  2  0
 13 14  1  0
 13 15  1  0
 15 16  1  0
 16 17  2  0
 17 18  1  0
 18 19  2  0
 19 20  1  0
 20 21  1  0
 21 22  2  0
 21 23  1  0
 23 24  1  0
 23 25  1  0
 25 26  1  0
 26 27  2  0
 27 28  1  0
 28 29  2  0
 29 30  1  0
 30 31  1  0
 31 32  2  0
 31 33  1  0
 30 34  2  0
 20 35  2  0
 15  2  1  0
 35 16  1  0
 10  5  2  0
 34 26  1  0
M  CHG  3   6  -1   9  -1  11  -1
M  END
>  <UniqueID>  (2273) 
81

>  <SMILES>  (2273) 
C=c1/c(=C/c2[n-]c(=O)[n-]c2[O-])cc(C)n1-c1cccc(C(=O)N(C)Cc2cccc(C(C)=O)c2)c1

>  <Energy>  (2273) 
129.4873331278399

>  <Genealogy>  (2273) 
C=c1c(=Cc2[n-]c(=O)[n-]c2[O-])cc(C)n1-c1cccc(C(=O)N(C)Cc2cccc(C(C)=O)c2)c1 (protonated)
C=c1/c(=C/c2[n-]c(=O)[n-]c2[O-])cc(C)n1-c1cccc(C(=O)N(C)Cc2cccc(C(C)=O)c2)c1 (cis-trans isomerization)
C=c1/c(=C/c2[n-]c(=O)[n-]c2[O-])cc(C)n1-c1cccc(C(=O)N(C)Cc2cccc(C(C)=O)c2)c1 (3D coordinates assigned)
C=c1/c(=C/c2[n-]c(=O)[n-]c2[O-])cc(C)n1-c1cccc(C(=O)N(C)Cc2cccc(C(C)=O)c2)c1 (optimized conformer: 129.4873331278399 kcal/mol)

>  <smiles>  (2273) 
C=c1c(=Cc2[nH]c(=O)[nH]c2O)cc(C)n1-c1cccc(C(=O)N(C)Cc2cccc(C(C)=O)c2)c1

>  <score_type>  (2273) 
oracle

>  <origin>  (2273) 
adg

>  <m_score__min__energy>  (2273) 
-18.690000000000001

>  <m_primary>  (2273) 
energy

$$$$
89:0
     RDKit          3D

 30 34  0  0  0  0  0  0  0  0999 V2000
   55.6680   28.9970   45.2260 O   0  0  0  0  0  0  0  0  0  0  0  0
   56.2950   27.7810   45.4780 C   0  0  0  0  0  0  0  0  0  0  0  0
   55.6290   26.6850   45.9140 N   0  0  0  0  0  0  0  0  0  0  0  0
   56.5930   25.7580   46.0900 C   0  0  0  0  0  0  0  0  0  0  0  0
   56.4220   24.4440   46.5460 C   0  0  0  0  0  0  0  0  0  0  0  0
   55.0560   23.8950   46.8500 C   0  0  0  0  0  0  0  0  0  0  0  0
   57.5760   23.6300   46.6440 C   0  0  0  0  0  0  0  0  0  0  0  0
   57.4710   22.3070   47.0570 O   0  0  0  0  0  0  0  0  0  0  0  0
   58.8480   24.1510   46.3200 C   0  0  0  0  0  0  0  0  0  0  0  0
   58.9890   25.4780   45.8820 C   0  0  0  0  0  0  0  0  0  0  0  0
   57.8370   26.2530   45.7770 C   0  0  0  0  0  0  0  0  0  0  0  0
   57.6620   27.5520   45.3570 C   0  0  0  0  0  0  0  0  0  0  0  0
   58.7200   28.5040   44.9700 C   0  0  0  0  0  0  0  0  0  0  0  0
   58.5410   29.8320   44.9020 C   0  0  0  0  0  0  0  0  0  0  0  0
   58.5800   30.7270   45.9590 C   0  0  0  0  0  0  0  0  0  0  0  0
   58.3110   31.9760   45.4280 C   0  0  0  0  0  0  0  0  0  0  0  0
   58.3060   33.2370   46.2020 C   0  0  0  0  0  0  0  0  0  0  0  0
   57.6220   34.2150   45.7970 O   0  0  0  0  0  0  0  0  0  0  0  0
   59.1310   33.3860   47.3710 N   0  0  0  0  0  0  0  0  0  0  0  0
   59.1370   32.3630   48.4220 C   0  0  0  0  0  0  0  0  0  0  0  0
   60.5750   32.0870   48.8840 C   0  0  0  0  0  0  0  0  0  0  0  0
   61.3950   33.3160   49.0030 N   0  0  0  0  0  0  0  0  0  0  0  0
   62.7870   33.1810   48.5050 C   0  0  0  0  0  0  0  0  0  0  0  0
   63.0250   31.9530   47.6310 C   0  0  0  0  0  0  0  0  0  0  0  0
   63.0730   33.3380   47.0100 C   0  0  0  0  0  0  0  0  0  0  0  0
   60.6860   34.6050   48.8710 C   0  0  0  0  0  0  0  0  0  0  0  0
   59.8310   34.6560   47.5940 C   0  0  0  0  0  0  0  0  0  0  0  0
   58.1130   31.7850   44.0640 C   0  0  0  0  0  0  0  0  0  0  0  0
   57.7990   32.7160   43.1590 C   0  0  0  0  0  0  0  0  0  0  0  0
   58.2480   30.4790   43.7550 N   0  0  0  0  0  0  0  0  0  0  0  0
  1  2  1  0
  2  3  1  0
  3  4  1  0
  4  5  2  0
  5  6  1  0
  5  7  1  0
  7  8  1  0
  7  9  2  0
  9 10  1  0
 10 11  2  0
 11 12  1  0
 12 13  1  0
 13 14  2  0
 14 15  1  0
 15 16  2  0
 16 17  1  0
 17 18  2  0
 17 19  1  0
 19 20  1  0
 20 21  1  0
 21 22  1  0
 22 23  1  0
 23 24  1  0
 24 25  1  0
 22 26  1  0
 26 27  1  0
 16 28  1  0
 28 29  2  0
 28 30  1  0
 12  2  2  0
 30 14  1  0
 11  4  1  0
 27 19  1  0
 25 23  1  0
M  CHG  2   3  -1   8  -1
M  END
>  <UniqueID>  (2274) 
86

>  <SMILES>  (2274) 
C=c1[nH]/c(=C/c2c(O)[n-]c3c(C)c([O-])ccc23)cc1C(=O)N1CCN(C2CC2)CC1

>  <Energy>  (2274) 
407.81182750686406

>  <Genealogy>  (2274) 
C=c1[nH]c(=Cc2c(O)[n-]c3c(C)c([O-])ccc23)cc1C(=O)N1CCN(C2CC2)CC1 (protonated)
C=c1[nH]/c(=C/c2c(O)[n-]c3c(C)c([O-])ccc23)cc1C(=O)N1CCN(C2CC2)CC1 (cis-trans isomerization)
C=c1[nH]/c(=C/c2c(O)[n-]c3c(C)c([O-])ccc23)cc1C(=O)N1CCN(C2CC2)CC1 (3D coordinates assigned)
C=c1[nH]/c(=C/c2c(O)[n-]c3c(C)c([O-])ccc23)cc1C(=O)N1CCN(C2CC2)CC1 (nonaromatic ring conformer: 407.81182750686406 kcal/mol)

>  <smiles>  (2274) 
C=c1[nH]c(=Cc2c(O)[nH]c3c(C)c(O)ccc23)cc1C(=O)N1CCN(C2CC2)CC1

>  <score_type>  (2274) 
oracle

>  <origin>  (2274) 
adg

>  <m_score__min__energy>  (2274) 
-14.449999999999999

>  <m_primary>  (2274) 
energy

$$$$
2:0
     RDKit          3D

 36 39  0  0  0  0  0  0  0  0999 V2000
   58.6850   29.8950   48.4080 C   0  0  0  0  0  0  0  0  0  0  0  0
   58.4850   30.3500   47.1570 C   0  0  0  0  0  0  0  0  0  0  0  0
   58.4600   29.5760   45.9930 C   0  0  0  0  0  0  0  0  0  0  0  0
   58.4720   28.2390   45.8110 C   0  0  0  0  0  0  0  0  0  0  0  0
   57.3380   27.3310   46.0360 C   0  0  0  0  0  0  0  0  0  0  0  0
   57.4610   26.1010   46.5620 N   0  0  0  0  0  0  0  0  0  0  0  0
   56.2080   25.6010   46.4830 C   0  0  0  0  0  0  0  0  0  0  0  0
   55.9100   24.4520   46.8990 O   0  0  0  0  0  0  0  0  0  0  0  0
   55.3030   26.4260   45.9130 N   0  0  0  0  0  0  0  0  0  0  0  0
   56.0380   27.5120   45.6220 C   0  0  0  0  0  0  0  0  0  0  0  0
   55.5360   28.6320   44.9690 O   0  0  0  0  0  0  0  0  0  0  0  0
   58.3830   30.4630   44.9440 C   0  0  0  0  0  0  0  0  0  0  0  0
   58.2810   31.7470   45.4700 C   0  0  0  0  0  0  0  0  0  0  0  0
   58.1800   33.0200   44.5960 C   0  0  0  0  0  0  0  0  0  0  0  0
   57.9900   32.6200   43.1190 C   0  0  0  0  0  0  0  0  0  0  0  0
   56.9510   33.8710   45.0090 C   0  0  0  0  0  0  0  0  0  0  0  0
   59.4210   33.9300   44.7520 C   0  0  0  0  0  0  0  0  0  0  0  0
   58.3700   31.6730   46.8350 N   0  0  0  0  0  0  0  0  0  0  0  0
   58.3910   32.7940   47.7980 C   0  0  0  0  0  0  0  0  0  0  0  0
   59.6410   32.8080   48.6500 C   0  0  0  0  0  0  0  0  0  0  0  0
   60.9290   32.8190   48.0880 C   0  0  0  0  0  0  0  0  0  0  0  0
   62.0600   32.8340   48.9070 C   0  0  0  0  0  0  0  0  0  0  0  0
   61.9360   32.8500   50.3090 C   0  0  0  0  0  0  0  0  0  0  0  0
   63.1660   32.8310   51.1580 C   0  0  0  0  0  0  0  0  0  0  0  0
   63.3490   33.7890   51.9600 O   0  0  0  0  0  0  0  0  0  0  0  0
   64.1540   31.7630   51.0590 N   0  0  0  0  0  0  0  0  0  0  0  0
   64.9210   31.8410   49.7980 C   0  0  0  0  0  0  0  0  0  0  0  0
   65.8790   33.0330   49.7800 C   0  0  0  0  0  0  0  0  0  0  0  0
   66.7600   32.9960   50.9530 N   0  0  0  0  0  0  0  0  0  0  0  0
   68.0980   33.5400   50.8500 C   0  0  0  0  0  0  0  0  0  0  0  0
   68.9860   33.6950   52.0490 C   0  0  0  0  0  0  0  0  0  0  0  0
   68.5490   33.9000   49.7280 O   0  0  0  0  0  0  0  0  0  0  0  0
   66.1340   32.7880   52.2670 C   0  0  0  0  0  0  0  0  0  0  0  0
   65.0670   31.6740   52.2240 C   0  0  0  0  0  0  0  0  0  0  0  0
   60.6430   32.8850   50.8660 C   0  0  0  0  0  0  0  0  0  0  0  0
   59.5130   32.8720   50.0440 C   0  0  0  0  0  0  0  0  0  0  0  0
  1  2  2  0
  2  3  1  0
  3  4  2  3
  4  5  1  0
  5  6  1  0
  6  7  1  0
  7  8  2  0
  7  9  1  0
  9 10  1  0
 10 11  1  0
  3 12  1  0
 12 13  2  0
 13 14  1  0
 14 15  1  0
 14 16  1  0
 14 17  1  0
 13 18  1  0
 18 19  1  0
 19 20  1  0
 20 21  2  0
 21 22  1  0
 22 23  2  0
 23 24  1  0
 24 25  2  0
 24 26  1  0
 26 27  1  0
 27 28  1  0
 28 29  1  0
 29 30  1  0
 30 31  1  0
 30 32  2  0
 29 33  1  0
 33 34  1  0
 23 35  1  0
 35 36  2  0
 18  2  1  0
 36 20  1  0
 10  5  2  0
 34 26  1  0
M  CHG  4   6  -1   9  -1  11  -1  26   1
M  END
>  <UniqueID>  (2275) 
2

>  <SMILES>  (2275) 
C=c1c(=Cc2[n-]c(=O)[n-]c2[O-])cc(C(C)(C)C)n1Cc1ccc(C(=O)[NH+]2CCN(C(C)=O)CC2)cc1

>  <Energy>  (2275) 
154.4612766705801

>  <Genealogy>  (2275) 
C=c1c(=Cc2[n-]c(=O)[n-]c2[O-])cc(C(C)(C)C)n1Cc1ccc(C(=O)[NH+]2CCN(C(C)=O)CC2)cc1 (protonated)
C=c1c(=Cc2[n-]c(=O)[n-]c2[O-])cc(C(C)(C)C)n1Cc1ccc(C(=O)[NH+]2CCN(C(C)=O)CC2)cc1 (3D coordinates assigned)
C=c1c(=Cc2[n-]c(=O)[n-]c2[O-])cc(C(C)(C)C)n1Cc1ccc(C(=O)[NH+]2CCN(C(C)=O)CC2)cc1 (nonaromatic ring conformer: 154.4612766705801 kcal/mol)

>  <smiles>  (2275) 
C=c1c(=Cc2[nH]c(=O)[nH]c2O)cc(C(C)(C)C)n1Cc1ccc(C(=O)N2CCN(C(C)=O)CC2)cc1

>  <score_type>  (2275) 
oracle

>  <origin>  (2275) 
adg

>  <m_score__min__energy>  (2275) 
-15.859999999999999

>  <m_primary>  (2275) 
energy

$$$$
18:0
     RDKit          3D

 22 24  0  0  0  0  0  0  0  0999 V2000
   54.7790   29.0720   44.2340 O   0  0  0  0  0  0  0  0  0  0  0  0
   55.8750   29.3660   44.7820 C   0  0  0  0  0  0  0  0  0  0  0  0
   56.3550   30.7150   44.7570 N   0  0  0  0  0  0  0  0  0  0  0  0
   57.6470   31.1020   44.2040 C   0  0  0  0  0  0  0  0  0  0  0  0
   58.3480   32.0410   45.1310 C   0  0  0  0  0  0  0  0  0  0  0  0
   58.0800   33.3960   45.2670 C   0  0  0  0  0  0  0  0  0  0  0  0
   58.9220   34.0380   46.1840 C   0  0  0  0  0  0  0  0  0  0  0  0
   59.8620   33.1870   46.7670 C   0  0  0  0  0  0  0  0  0  0  0  0
   60.8960   33.5370   47.7640 C   0  0  0  0  0  0  0  0  0  0  0  0
   60.5690   33.8660   49.0920 C   0  0  0  0  0  0  0  0  0  0  0  0
   61.5880   34.1880   49.9910 C   0  0  0  0  0  0  0  0  0  0  0  0
   62.9170   34.1830   49.5680 C   0  0  0  0  0  0  0  0  0  0  0  0
   63.2100   33.8520   48.2450 C   0  0  0  0  0  0  0  0  0  0  0  0
   62.2050   33.5410   47.3840 N   0  0  0  0  0  0  0  0  0  0  0  0
   59.6340   31.6410   46.1350 S   0  0  0  0  0  0  0  0  0  0  0  0
   56.6590   28.3140   45.4460 C   0  0  0  0  0  0  0  0  0  0  0  0
   57.9920   28.3690   45.6180 N   0  0  0  0  0  0  0  0  0  0  0  0
   58.2720   27.2120   46.2580 C   0  0  0  0  0  0  0  0  0  0  0  0
   59.4400   26.8920   46.5990 O   0  0  0  0  0  0  0  0  0  0  0  0
   57.2020   26.4260   46.5030 N   0  0  0  0  0  0  0  0  0  0  0  0
   56.1890   27.1370   45.9830 C   0  0  0  0  0  0  0  0  0  0  0  0
   54.8650   26.7160   46.0000 O   0  0  0  0  0  0  0  0  0  0  0  0
  1  2  2  0
  2  3  1  0
  3  4  1  0
  4  5  1  0
  5  6  2  0
  6  7  1  0
  7  8  2  0
  8  9  1  0
  9 10  2  0
 10 11  1  0
 11 12  2  0
 12 13  1  0
 13 14  2  0
  8 15  1  0
  2 16  1  0
 16 17  1  0
 17 18  1  0
 18 19  2  0
 18 20  1  0
 20 21  1  0
 21 22  1  0
 15  5  1  0
 21 16  2  0
 14  9  1  0
M  CHG  4   3  -1  17  -1  20  -1  22  -1
M  END
>  <UniqueID>  (2276) 
16

>  <SMILES>  (2276) 
O=C([N-]Cc1ccc(-c2ccccn2)s1)c1[n-]c(=O)[n-]c1[O-]

>  <Energy>  (2276) 
86.35812999381284

>  <Genealogy>  (2276) 
O=C([N-]Cc1ccc(-c2ccccn2)s1)c1[n-]c(=O)[n-]c1[O-] (protonated)
O=C([N-]Cc1ccc(-c2ccccn2)s1)c1[n-]c(=O)[n-]c1[O-] (3D coordinates assigned)
O=C([N-]Cc1ccc(-c2ccccn2)s1)c1[n-]c(=O)[n-]c1[O-] (optimized conformer: 86.35812999381284 kcal/mol)

>  <smiles>  (2276) 
O=C(NCc1ccc(-c2ccccn2)s1)c1[nH]c(=O)[nH]c1O

>  <score_type>  (2276) 
oracle

>  <origin>  (2276) 
adg

>  <m_score__min__energy>  (2276) 
-16.850000000000001

>  <m_primary>  (2276) 
energy

$$$$
22:0
     RDKit          3D

 35 38  0  0  0  0  0  0  0  0999 V2000
   56.6350   29.4030   43.0430 C   0  0  0  0  0  0  0  0  0  0  0  0
   57.3190   29.4300   44.1990 C   0  0  0  0  0  0  0  0  0  0  0  0
   57.6630   28.3290   45.0010 C   0  0  0  0  0  0  0  0  0  0  0  0
   57.5710   27.0040   44.7700 C   0  0  0  0  0  0  0  0  0  0  0  0
   57.1170   26.0020   45.7430 C   0  0  0  0  0  0  0  0  0  0  0  0
   57.8600   24.9540   46.1410 N   0  0  0  0  0  0  0  0  0  0  0  0
   57.0100   24.2450   46.9150 C   0  0  0  0  0  0  0  0  0  0  0  0
   57.3480   23.1800   47.4930 O   0  0  0  0  0  0  0  0  0  0  0  0
   55.7650   24.7590   47.0090 N   0  0  0  0  0  0  0  0  0  0  0  0
   55.8450   25.8640   46.2510 C   0  0  0  0  0  0  0  0  0  0  0  0
   54.7720   26.7100   46.0030 O   0  0  0  0  0  0  0  0  0  0  0  0
   58.2050   28.8500   46.1620 C   0  0  0  0  0  0  0  0  0  0  0  0
   58.2530   30.2190   46.0040 C   0  0  0  0  0  0  0  0  0  0  0  0
   58.8950   31.1310   46.9710 C   0  0  0  0  0  0  0  0  0  0  0  0
   58.2710   32.1560   47.3530 O   0  0  0  0  0  0  0  0  0  0  0  0
   60.1650   30.7940   47.5530 N   0  0  0  0  0  0  0  0  0  0  0  0
   60.9270   31.6820   48.3900 C   0  0  0  0  0  0  0  0  0  0  0  0
   62.1750   32.1430   47.9460 C   0  0  0  0  0  0  0  0  0  0  0  0
   62.9340   33.0080   48.7360 C   0  0  0  0  0  0  0  0  0  0  0  0
   62.4580   33.4290   49.9870 C   0  0  0  0  0  0  0  0  0  0  0  0
   63.2780   34.3330   50.8230 C   0  0  0  0  0  0  0  0  0  0  0  0
   63.2870   35.5660   50.5520 O   0  0  0  0  0  0  0  0  0  0  0  0
   64.0890   33.8330   51.9070 N   0  0  0  0  0  0  0  0  0  0  0  0
   64.5710   34.7350   52.9560 C   0  0  0  0  0  0  0  0  0  0  0  0
   66.0910   34.9220   52.8270 C   0  0  0  0  0  0  0  0  0  0  0  0
   66.7910   33.7050   52.3380 N   0  0  0  0  0  0  0  0  0  0  0  0
   67.5550   33.8220   51.0660 C   0  0  0  0  0  0  0  0  0  0  0  0
   69.0860   33.8320   51.2420 C   0  0  0  0  0  0  0  0  0  0  0  0
   67.1300   32.7130   50.0960 C   0  0  0  0  0  0  0  0  0  0  0  0
   66.0470   32.4380   52.5190 C   0  0  0  0  0  0  0  0  0  0  0  0
   64.6580   32.4780   51.8620 C   0  0  0  0  0  0  0  0  0  0  0  0
   61.1890   33.0070   50.4140 C   0  0  0  0  0  0  0  0  0  0  0  0
   60.4270   32.1430   49.6210 C   0  0  0  0  0  0  0  0  0  0  0  0
   57.6880   30.5780   44.8240 N   0  0  0  0  0  0  0  0  0  0  0  0
   57.4510   31.9470   44.3500 C   0  0  0  0  0  0  0  0  0  0  0  0
  1  2  2  0
  2  3  1  0
  3  4  2  3
  4  5  1  0
  5  6  1  0
  6  7  1  0
  7  8  2  0
  7  9  1  0
  9 10  1  0
 10 11  1  0
  3 12  1  0
 12 13  2  0
 13 14  1  0
 14 15  2  0
 14 16  1  0
 16 17  1  0
 17 18  2  0
 18 19  1  0
 19 20  2  0
 20 21  1  0
 21 22  2  0
 21 23  1  0
 23 24  1  0
 24 25  1  0
 25 26  1  0
 26 27  1  0
 27 28  1  0
 27 29  1  0
 26 30  1  0
 30 31  1  0
 20 32  1  0
 32 33  2  0
 13 34  1  0
 34 35  1  0
 34  2  1  0
 10  5  2  0
 33 17  1  0
 31 23  1  0
M  CHG  3   6  -1   9  -1  11  -1
M  END
>  <UniqueID>  (2277) 
20

>  <SMILES>  (2277) 
C=c1c(=Cc2[n-]c(=O)[n-]c2[O-])cc(C(=O)Nc2ccc(C(=O)N3CCN(C(C)C)CC3)cc2)n1C

>  <Energy>  (2277) 
158.80413704528905

>  <Genealogy>  (2277) 
C=c1c(=Cc2[n-]c(=O)[n-]c2[O-])cc(C(=O)Nc2ccc(C(=O)N3CCN(C(C)C)CC3)cc2)n1C (protonated)
C=c1c(=Cc2[n-]c(=O)[n-]c2[O-])cc(C(=O)Nc2ccc(C(=O)N3CCN(C(C)C)CC3)cc2)n1C (3D coordinates assigned)
C=c1c(=Cc2[n-]c(=O)[n-]c2[O-])cc(C(=O)Nc2ccc(C(=O)N3CCN(C(C)C)CC3)cc2)n1C (nonaromatic ring conformer: 158.80413704528905 kcal/mol)

>  <smiles>  (2277) 
C=c1c(=Cc2[nH]c(=O)[nH]c2O)cc(C(=O)Nc2ccc(C(=O)N3CCN(C(C)C)CC3)cc2)n1C

>  <score_type>  (2277) 
oracle

>  <origin>  (2277) 
adg

>  <m_score__min__energy>  (2277) 
-17.940000000000001

>  <m_primary>  (2277) 
energy

$$$$
36:0
     RDKit          3D

 32 35  0  0  0  0  0  0  0  0999 V2000
   54.0160   28.2920   53.7860 C   0  0  0  0  0  0  0  0  0  0  0  0
   54.4910   29.4380   53.2740 C   0  0  0  0  0  0  0  0  0  0  0  0
   53.7890   30.3710   52.4930 C   0  0  0  0  0  0  0  0  0  0  0  0
   52.4740   30.4920   52.2280 C   0  0  0  0  0  0  0  0  0  0  0  0
   51.8870   30.9130   50.9460 C   0  0  0  0  0  0  0  0  0  0  0  0
   51.7810   30.1290   49.8560 N   0  0  0  0  0  0  0  0  0  0  0  0
   51.0360   30.8710   49.0090 C   0  0  0  0  0  0  0  0  0  0  0  0
   50.7230   30.4740   47.8560 O   0  0  0  0  0  0  0  0  0  0  0  0
   50.6330   32.0620   49.5040 N   0  0  0  0  0  0  0  0  0  0  0  0
   51.1710   32.0660   50.7340 C   0  0  0  0  0  0  0  0  0  0  0  0
   51.0040   33.0990   51.6470 O   0  0  0  0  0  0  0  0  0  0  0  0
   54.7370   31.2460   51.9880 C   0  0  0  0  0  0  0  0  0  0  0  0
   55.9510   30.8750   52.5260 C   0  0  0  0  0  0  0  0  0  0  0  0
   57.2460   31.5780   52.2530 C   0  0  0  0  0  0  0  0  0  0  0  0
   55.8060   29.7750   53.3000 N   0  0  0  0  0  0  0  0  0  0  0  0
   56.8690   29.0730   53.9710 C   0  0  0  0  0  0  0  0  0  0  0  0
   57.3210   27.8440   53.4710 C   0  0  0  0  0  0  0  0  0  0  0  0
   58.3510   27.1430   54.1230 C   0  0  0  0  0  0  0  0  0  0  0  0
   58.8250   25.8860   53.6060 N   0  0  0  0  0  0  0  0  0  0  0  0
   60.0160   25.8220   52.7600 C   0  0  0  0  0  0  0  0  0  0  0  0
   60.8220   24.5750   53.1170 C   0  0  0  0  0  0  0  0  0  0  0  0
   59.9780   23.3520   53.0240 N   0  0  0  0  0  0  0  0  0  0  0  0
   60.7600   22.0690   53.1340 C   0  0  0  0  0  0  0  0  0  0  0  0
   59.8420   20.8340   52.9260 C   0  0  0  0  0  0  0  0  0  0  0  0
   61.8270   22.0070   52.0090 C   0  0  0  0  0  0  0  0  0  0  0  0
   61.4730   21.9180   54.5020 C   0  0  0  0  0  0  0  0  0  0  0  0
   58.8360   23.4630   53.9710 C   0  0  0  0  0  0  0  0  0  0  0  0
   57.9810   24.6940   53.6570 C   0  0  0  0  0  0  0  0  0  0  0  0
   58.9250   27.6900   55.2820 C   0  0  0  0  0  0  0  0  0  0  0  0
   58.4810   28.9160   55.7800 C   0  0  0  0  0  0  0  0  0  0  0  0
   57.4580   29.6100   55.1270 C   0  0  0  0  0  0  0  0  0  0  0  0
   57.0610   30.8160   55.6050 F   0  0  0  0  0  0  0  0  0  0  0  0
  1  2  2  0
  2  3  1  0
  3  4  2  3
  4  5  1  0
  5  6  1  0
  6  7  1  0
  7  8  2  0
  7  9  1  0
  9 10  1  0
 10 11  1  0
  3 12  1  0
 12 13  2  0
 13 14  1  0
 13 15  1  0
 15 16  1  0
 16 17  2  0
 17 18  1  0
 18 19  1  0
 19 20  1  0
 20 21  1  0
 21 22  1  0
 22 23  1  0
 23 24  1  0
 23 25  1  0
 23 26  1  0
 22 27  1  0
 27 28  1  0
 18 29  2  0
 29 30  1  0
 30 31  2  0
 31 32  1  0
 15  2  1  0
 31 16  1  0
 10  5  2  0
 28 19  1  0
M  CHG  3   6  -1   9  -1  11  -1
M  END
>  <UniqueID>  (2278) 
33

>  <SMILES>  (2278) 
C=c1c(=Cc2[n-]c(=O)[n-]c2[O-])cc(C)n1-c1cc(N2CCN(C(C)(C)C)CC2)ccc1F

>  <Energy>  (2278) 
147.53313750211092

>  <Genealogy>  (2278) 
C=c1c(=Cc2[n-]c(=O)[n-]c2[O-])cc(C)n1-c1cc(N2CCN(C(C)(C)C)CC2)ccc1F (protonated)
C=c1c(=Cc2[n-]c(=O)[n-]c2[O-])cc(C)n1-c1cc(N2CCN(C(C)(C)C)CC2)ccc1F (3D coordinates assigned)
C=c1c(=Cc2[n-]c(=O)[n-]c2[O-])cc(C)n1-c1cc(N2CCN(C(C)(C)C)CC2)ccc1F (nonaromatic ring conformer: 147.53313750211092 kcal/mol)

>  <smiles>  (2278) 
C=c1c(=Cc2[nH]c(=O)[nH]c2O)cc(C)n1-c1cc(N2CCN(C(C)(C)C)CC2)ccc1F

>  <score_type>  (2278) 
oracle

>  <origin>  (2278) 
adg

>  <m_score__min__energy>  (2278) 
-17.449999999999999

>  <m_primary>  (2278) 
energy

$$$$
40:0
     RDKit          3D

 33 36  0  0  0  0  0  0  0  0999 V2000
   53.2030   28.1220   53.6010 C   0  0  0  0  0  0  0  0  0  0  0  0
   54.1250   28.8780   52.9770 C   0  0  0  0  0  0  0  0  0  0  0  0
   55.4780   28.5670   53.2100 C   0  0  0  0  0  0  0  0  0  0  0  0
   56.5080   29.4260   52.8030 C   0  0  0  0  0  0  0  0  0  0  0  0
   57.9360   29.0190   53.0680 C   0  0  0  0  0  0  0  0  0  0  0  0
   56.1800   30.6590   52.2030 C   0  0  0  0  0  0  0  0  0  0  0  0
   57.2070   31.6600   51.8450 C   0  0  0  0  0  0  0  0  0  0  0  0
   57.0070   32.8770   52.1140 O   0  0  0  0  0  0  0  0  0  0  0  0
   58.5040   31.2490   51.2070 C   0  0  0  0  0  0  0  0  0  0  0  0
   58.9470   32.2790   50.2020 C   0  0  0  0  0  0  0  0  0  0  0  0
   59.8130   33.3110   50.5900 C   0  0  0  0  0  0  0  0  0  0  0  0
   60.2020   34.2850   49.6690 C   0  0  0  0  0  0  0  0  0  0  0  0
   59.7320   34.2380   48.3540 C   0  0  0  0  0  0  0  0  0  0  0  0
   58.8610   33.2100   47.9430 C   0  0  0  0  0  0  0  0  0  0  0  0
   58.3390   33.1440   46.5530 C   0  0  0  0  0  0  0  0  0  0  0  0
   58.3890   34.1840   45.8370 O   0  0  0  0  0  0  0  0  0  0  0  0
   57.8040   31.9160   45.9970 N   0  0  0  0  0  0  0  0  0  0  0  0
   58.8530   30.8750   45.9470 C   0  0  0  0  0  0  0  0  0  0  0  0
   58.4450   29.7050   45.0270 C   0  0  0  0  0  0  0  0  0  0  0  0
   57.0470   29.6910   44.8200 O   0  0  0  0  0  0  0  0  0  0  0  0
   56.6560   30.8340   44.0780 C   0  0  0  0  0  0  0  0  0  0  0  0
   57.2390   32.1460   44.6520 C   0  0  0  0  0  0  0  0  0  0  0  0
   58.4640   32.2420   48.8840 C   0  0  0  0  0  0  0  0  0  0  0  0
   54.8420   30.9430   51.8990 C   0  0  0  0  0  0  0  0  0  0  0  0
   53.8030   30.0380   52.2010 C   0  0  0  0  0  0  0  0  0  0  0  0
   52.5730   30.3350   51.7120 C   0  0  0  0  0  0  0  0  0  0  0  0
   51.6530   31.3610   52.2420 C   0  0  0  0  0  0  0  0  0  0  0  0
   51.4190   31.5410   53.5540 N   0  0  0  0  0  0  0  0  0  0  0  0
   50.6070   32.6210   53.5810 C   0  0  0  0  0  0  0  0  0  0  0  0
   50.1490   33.0980   54.6520 O   0  0  0  0  0  0  0  0  0  0  0  0
   50.3310   33.1540   52.3710 N   0  0  0  0  0  0  0  0  0  0  0  0
   51.0100   32.3520   51.5340 C   0  0  0  0  0  0  0  0  0  0  0  0
   51.0650   32.5440   50.1600 O   0  0  0  0  0  0  0  0  0  0  0  0
  1  2  2  0
  2  3  1  0
  3  4  2  0
  4  5  1  0
  4  6  1  0
  6  7  1  0
  7  8  2  0
  7  9  1  0
  9 10  1  0
 10 11  2  0
 11 12  1  0
 12 13  2  0
 13 14  1  0
 14 15  1  0
 15 16  2  0
 15 17  1  0
 17 18  1  0
 18 19  1  0
 19 20  1  0
 20 21  1  0
 21 22  1  0
 14 23  2  0
  6 24  2  0
 24 25  1  0
 25 26  2  3
 26 27  1  0
 27 28  1  0
 28 29  1  0
 29 30  2  0
 29 31  1  0
 31 32  1  0
 32 33  1  0
 25  2  1  0
 32 27  2  0
 23 10  1  0
 22 17  1  0
M  CHG  4  17   1  28  -1  31  -1  33  -1
M  END
>  <UniqueID>  (2279) 
37

>  <SMILES>  (2279) 
C=c1cc(C)c(C(=O)Cc2cccc(C(=O)[NH+]3CCOCC3)c2)cc1=Cc1[n-]c(=O)[n-]c1[O-]

>  <Energy>  (2279) 
129.32052308020508

>  <Genealogy>  (2279) 
C=c1cc(C)c(C(=O)Cc2cccc(C(=O)[NH+]3CCOCC3)c2)cc1=Cc1[n-]c(=O)[n-]c1[O-] (protonated)
C=c1cc(C)c(C(=O)Cc2cccc(C(=O)[NH+]3CCOCC3)c2)cc1=Cc1[n-]c(=O)[n-]c1[O-] (3D coordinates assigned)
C=c1cc(C)c(C(=O)Cc2cccc(C(=O)[NH+]3CCOCC3)c2)cc1=Cc1[n-]c(=O)[n-]c1[O-] (nonaromatic ring conformer: 129.32052308020508 kcal/mol)

>  <smiles>  (2279) 
C=c1cc(C)c(C(=O)Cc2cccc(C(=O)N3CCOCC3)c2)cc1=Cc1[nH]c(=O)[nH]c1O

>  <score_type>  (2279) 
oracle

>  <origin>  (2279) 
adg

>  <m_score__min__energy>  (2279) 
-17.870000000000001

>  <m_primary>  (2279) 
energy

$$$$
48:0
     RDKit          3D

 29 32  0  0  0  0  0  0  0  0999 V2000
   56.2990   29.1920   44.7200 C   0  0  0  0  0  0  0  0  0  0  0  0
   57.5860   28.8000   44.7100 C   0  0  0  0  0  0  0  0  0  0  0  0
   58.0460   27.4730   44.6650 C   0  0  0  0  0  0  0  0  0  0  0  0
   57.3960   26.3180   44.4190 C   0  0  0  0  0  0  0  0  0  0  0  0
   56.8440   25.4090   45.4390 C   0  0  0  0  0  0  0  0  0  0  0  0
   57.4980   24.3480   45.9550 N   0  0  0  0  0  0  0  0  0  0  0  0
   56.7100   23.9630   46.9810 C   0  0  0  0  0  0  0  0  0  0  0  0
   56.9910   22.9810   47.7200 O   0  0  0  0  0  0  0  0  0  0  0  0
   55.6120   24.7270   47.1670 N   0  0  0  0  0  0  0  0  0  0  0  0
   55.7190   25.6420   46.1900 C   0  0  0  0  0  0  0  0  0  0  0  0
   54.8070   26.6740   45.9850 O   0  0  0  0  0  0  0  0  0  0  0  0
   59.4060   27.5210   44.9070 C   0  0  0  0  0  0  0  0  0  0  0  0
   59.7460   28.8520   45.0030 C   0  0  0  0  0  0  0  0  0  0  0  0
   61.1430   29.3400   45.2500 C   0  0  0  0  0  0  0  0  0  0  0  0
   58.6460   29.6390   44.8980 N   0  0  0  0  0  0  0  0  0  0  0  0
   58.6480   31.1110   45.0060 C   0  0  0  0  0  0  0  0  0  0  0  0
   58.7000   31.5520   46.4520 C   0  0  0  0  0  0  0  0  0  0  0  0
   58.9030   30.5990   47.4690 C   0  0  0  0  0  0  0  0  0  0  0  0
   58.9050   30.9830   48.8120 C   0  0  0  0  0  0  0  0  0  0  0  0
   58.7050   32.3280   49.1680 C   0  0  0  0  0  0  0  0  0  0  0  0
   58.6710   32.7170   50.5550 N   0  0  0  0  0  0  0  0  0  0  0  0
   57.6130   32.1520   51.4130 C   0  0  0  0  0  0  0  0  0  0  0  0
   57.7580   32.5540   52.8880 C   0  0  0  0  0  0  0  0  0  0  0  0
   58.2220   33.8790   53.0220 O   0  0  0  0  0  0  0  0  0  0  0  0
   59.5430   33.9480   52.5310 C   0  0  0  0  0  0  0  0  0  0  0  0
   59.5500   33.8150   51.0080 C   0  0  0  0  0  0  0  0  0  0  0  0
   58.5270   33.2860   48.1510 C   0  0  0  0  0  0  0  0  0  0  0  0
   58.5270   32.9050   46.8040 C   0  0  0  0  0  0  0  0  0  0  0  0
   58.3480   33.8780   45.8280 O   0  0  0  0  0  0  0  0  0  0  0  0
  1  2  2  0
  2  3  1  0
  3  4  2  0
  4  5  1  0
  5  6  1  0
  6  7  1  0
  7  8  2  0
  7  9  1  0
  9 10  1  0
 10 11  1  0
  3 12  1  0
 12 13  2  0
 13 14  1  0
 13 15  1  0
 15 16  1  0
 16 17  1  0
 17 18  2  0
 18 19  1  0
 19 20  2  0
 20 21  1  0
 21 22  1  0
 22 23  1  0
 23 24  1  0
 24 25  1  0
 25 26  1  0
 20 27  1  0
 27 28  2  0
 28 29  1  0
 15  2  1  0
 28 17  1  0
 10  5  2  0
 26 21  1  0
M  CHG  4   6  -1   9  -1  11  -1  29  -1
M  END
>  <UniqueID>  (2280) 
44

>  <SMILES>  (2280) 
C=c1/c(=C\c2[n-]c(=O)[n-]c2[O-])cc(C)n1Cc1ccc(N2CCOCC2)cc1[O-]

>  <Energy>  (2280) 
130.10692664249808

>  <Genealogy>  (2280) 
C=c1c(=Cc2[n-]c(=O)[n-]c2[O-])cc(C)n1Cc1ccc(N2CCOCC2)cc1[O-] (protonated)
C=c1/c(=C\c2[n-]c(=O)[n-]c2[O-])cc(C)n1Cc1ccc(N2CCOCC2)cc1[O-] (cis-trans isomerization)
C=c1/c(=C\c2[n-]c(=O)[n-]c2[O-])cc(C)n1Cc1ccc(N2CCOCC2)cc1[O-] (3D coordinates assigned)
C=c1/c(=C\c2[n-]c(=O)[n-]c2[O-])cc(C)n1Cc1ccc(N2CCOCC2)cc1[O-] (nonaromatic ring conformer: 130.10692664249808 kcal/mol)

>  <smiles>  (2280) 
C=c1c(=Cc2[nH]c(=O)[nH]c2O)cc(C)n1Cc1ccc(N2CCOCC2)cc1O

>  <score_type>  (2280) 
oracle

>  <origin>  (2280) 
adg

>  <m_score__min__energy>  (2280) 
-16.960000000000001

>  <m_primary>  (2280) 
energy

$$$$
69:0
     RDKit          3D

 39 43  0  0  0  0  0  0  0  0999 V2000
   54.8160   28.9430   54.7860 C   0  0  0  0  0  0  0  0  0  0  0  0
   55.2760   29.7940   53.8530 C   0  0  0  0  0  0  0  0  0  0  0  0
   54.5720   30.2940   52.7450 C   0  0  0  0  0  0  0  0  0  0  0  0
   53.3650   29.9710   52.2380 C   0  0  0  0  0  0  0  0  0  0  0  0
   52.3760   30.9190   51.7060 C   0  0  0  0  0  0  0  0  0  0  0  0
   52.1000   31.0520   50.3970 N   0  0  0  0  0  0  0  0  0  0  0  0
   51.0790   31.9360   50.3820 C   0  0  0  0  0  0  0  0  0  0  0  0
   50.5480   32.3400   49.3150 O   0  0  0  0  0  0  0  0  0  0  0  0
   50.6680   32.3500   51.6010 N   0  0  0  0  0  0  0  0  0  0  0  0
   51.4900   31.6840   52.4300 C   0  0  0  0  0  0  0  0  0  0  0  0
   51.4220   31.7570   53.8180 O   0  0  0  0  0  0  0  0  0  0  0  0
   55.3880   31.2500   52.1680 C   0  0  0  0  0  0  0  0  0  0  0  0
   56.5660   31.2640   52.8860 C   0  0  0  0  0  0  0  0  0  0  0  0
   57.7150   32.1340   52.5580 C   0  0  0  0  0  0  0  0  0  0  0  0
   57.9770   33.1200   53.3000 O   0  0  0  0  0  0  0  0  0  0  0  0
   58.5000   31.9100   51.3700 N   0  0  0  0  0  0  0  0  0  0  0  0
   59.0170   33.0570   50.6140 C   0  0  0  0  0  0  0  0  0  0  0  0
   60.1640   32.6360   49.6770 C   0  0  0  0  0  0  0  0  0  0  0  0
   59.8370   31.4640   48.8310 N   0  0  0  0  0  0  0  0  0  0  0  0
   59.6010   31.6930   47.3770 C   0  0  0  0  0  0  0  0  0  0  0  0
   58.2390   32.3620   47.0120 C   0  0  0  0  0  0  0  0  0  0  0  0
   58.1740   33.8950   47.0560 C   0  0  0  0  0  0  0  0  0  0  0  0
   59.5700   34.6340   46.2370 S   0  0  0  0  0  0  0  0  0  0  0  0
   59.4060   34.5110   44.7460 O   0  0  0  0  0  0  0  0  0  0  0  0
   59.6670   36.0850   46.6130 O   0  0  0  0  0  0  0  0  0  0  0  0
   61.0440   33.7810   46.7450 C   0  0  0  0  0  0  0  0  0  0  0  0
   60.8460   32.2670   46.6530 C   0  0  0  0  0  0  0  0  0  0  0  0
   58.8810   30.4950   49.4230 C   0  0  0  0  0  0  0  0  0  0  0  0
   58.8660   30.5540   50.9500 C   0  0  0  0  0  0  0  0  0  0  0  0
   56.5020   30.3840   53.9170 N   0  0  0  0  0  0  0  0  0  0  0  0
   57.5780   30.0780   54.8760 C   0  0  0  0  0  0  0  0  0  0  0  0
   58.8250   29.5580   54.1930 C   0  0  0  0  0  0  0  0  0  0  0  0
   58.7740   28.3160   53.5320 C   0  0  0  0  0  0  0  0  0  0  0  0
   59.8950   27.8210   52.8620 C   0  0  0  0  0  0  0  0  0  0  0  0
   61.0780   28.5630   52.8330 C   0  0  0  0  0  0  0  0  0  0  0  0
   62.1650   28.0820   52.1810 F   0  0  0  0  0  0  0  0  0  0  0  0
   61.1390   29.8030   53.4720 C   0  0  0  0  0  0  0  0  0  0  0  0
   60.0210   30.3080   54.1430 C   0  0  0  0  0  0  0  0  0  0  0  0
   60.1170   31.5190   54.7420 F   0  0  0  0  0  0  0  0  0  0  0  0
  1  2  2  0
  2  3  1  0
  3  4  2  3
  4  5  1  0
  5  6  1  0
  6  7  1  0
  7  8  2  0
  7  9  1  0
  9 10  1  0
 10 11  1  0
  3 12  1  0
 12 13  2  0
 13 14  1  0
 14 15  2  0
 14 16  1  0
 16 17  1  0
 17 18  1  0
 18 19  1  0
 19 20  1  0
 20 21  1  0
 21 22  1  0
 22 23  1  0
 23 24  2  0
 23 25  2  0
 23 26  1  0
 26 27  1  0
 19 28  1  0
 28 29  1  0
 13 30  1  0
 30 31  1  0
 31 32  1  0
 32 33  2  0
 33 34  1  0
 34 35  2  0
 35 36  1  0
 35 37  1  0
 37 38  2  0
 38 39  1  0
 30  2  1  0
 38 32  1  0
 10  5  2  0
 29 16  1  0
 27 20  1  0
M  CHG  2   6  -1   9  -1
M  END
>  <UniqueID>  (2281) 
63

>  <SMILES>  (2281) 
C=c1c(=Cc2[n-]c(=O)[n-]c2O)cc(C(=O)N2CCN(C3CCS(=O)(=O)CC3)CC2)n1Cc1ccc(F)cc1F

>  <Energy>  (2281) 
158.9005716501

>  <Genealogy>  (2281) 
C=c1c(=Cc2[n-]c(=O)[n-]c2O)cc(C(=O)N2CCN(C3CCS(=O)(=O)CC3)CC2)n1Cc1ccc(F)cc1F (protonated)
C=c1c(=Cc2[n-]c(=O)[n-]c2O)cc(C(=O)N2CCN(C3CCS(=O)(=O)CC3)CC2)n1Cc1ccc(F)cc1F (3D coordinates assigned)
C=c1c(=Cc2[n-]c(=O)[n-]c2O)cc(C(=O)N2CCN(C3CCS(=O)(=O)CC3)CC2)n1Cc1ccc(F)cc1F (nonaromatic ring conformer: 158.9005716501 kcal/mol)

>  <smiles>  (2281) 
C=c1c(=Cc2[nH]c(=O)[nH]c2O)cc(C(=O)N2CCN(C3CCS(=O)(=O)CC3)CC2)n1Cc1ccc(F)cc1F

>  <score_type>  (2281) 
oracle

>  <origin>  (2281) 
adg

>  <m_score__min__energy>  (2281) 
-14.15

>  <m_primary>  (2281) 
energy

$$$$
78:0
     RDKit          3D

 29 33  0  0  0  0  0  0  0  0999 V2000
   56.1730   28.9330   45.2090 O   0  0  0  0  0  0  0  0  0  0  0  0
   57.3320   28.4320   45.1960 C   0  0  0  0  0  0  0  0  0  0  0  0
   57.5290   27.0450   44.6500 C   0  0  0  0  0  0  0  0  0  0  0  0
   57.1080   26.0120   45.6510 C   0  0  0  0  0  0  0  0  0  0  0  0
   57.8940   25.0110   46.0810 N   0  0  0  0  0  0  0  0  0  0  0  0
   57.0860   24.3180   46.9140 C   0  0  0  0  0  0  0  0  0  0  0  0
   57.4690   23.2910   47.5310 O   0  0  0  0  0  0  0  0  0  0  0  0
   55.8340   24.8130   47.0310 N   0  0  0  0  0  0  0  0  0  0  0  0
   55.8640   25.8820   46.2200 C   0  0  0  0  0  0  0  0  0  0  0  0
   54.7760   26.7170   45.9990 O   0  0  0  0  0  0  0  0  0  0  0  0
   58.4470   29.2000   45.6860 N   0  0  0  0  0  0  0  0  0  0  0  0
   58.2280   30.2000   46.7340 C   0  0  0  0  0  0  0  0  0  0  0  0
   59.4500   30.2920   47.6530 C   0  0  0  0  0  0  0  0  0  0  0  0
   60.7240   30.3530   46.9120 N   0  0  0  0  0  0  0  0  0  0  0  0
   61.3490   31.6890   46.7370 C   0  0  0  0  0  0  0  0  0  0  0  0
   60.2720   32.7290   46.5770 C   0  0  0  0  0  0  0  0  0  0  0  0
   59.3060   32.8090   45.5710 C   0  0  0  0  0  0  0  0  0  0  0  0
   58.3690   33.8550   45.6190 C   0  0  0  0  0  0  0  0  0  0  0  0
   58.4080   34.8000   46.6620 C   0  0  0  0  0  0  0  0  0  0  0  0
   59.3850   34.7060   47.6670 C   0  0  0  0  0  0  0  0  0  0  0  0
   60.3010   33.6570   47.6010 C   0  0  0  0  0  0  0  0  0  0  0  0
   61.4150   33.3390   48.4690 C   0  0  0  0  0  0  0  0  0  0  0  0
   61.9120   34.0430   49.5670 C   0  0  0  0  0  0  0  0  0  0  0  0
   63.1060   33.5990   50.1540 C   0  0  0  0  0  0  0  0  0  0  0  0
   63.7950   32.4960   49.6160 C   0  0  0  0  0  0  0  0  0  0  0  0
   63.2830   31.8130   48.5000 C   0  0  0  0  0  0  0  0  0  0  0  0
   62.0560   32.2180   47.9660 C   0  0  0  0  0  0  0  0  0  0  0  0
   60.8880   29.3450   45.8430 C   0  0  0  0  0  0  0  0  0  0  0  0
   59.6810   29.2980   44.9050 C   0  0  0  0  0  0  0  0  0  0  0  0
  1  2  2  0
  2  3  1  0
  3  4  1  0
  4  5  1  0
  5  6  1  0
  6  7  2  0
  6  8  1  0
  8  9  1  0
  9 10  1  0
  2 11  1  0
 11 12  1  0
 12 13  1  0
 13 14  1  0
 14 15  1  0
 15 16  1  0
 16 17  2  0
 17 18  1  0
 18 19  2  0
 19 20  1  0
 20 21  2  0
 21 22  1  0
 22 23  2  0
 23 24  1  0
 24 25  2  0
 25 26  1  0
 26 27  2  0
 14 28  1  0
 28 29  1  0
  9  4  2  0
 29 11  1  0
 27 15  1  0
 21 16  1  0
 27 22  1  0
M  CHG  3   5  -1   8  -1  10  -1
M  END
>  <UniqueID>  (2282) 
72

>  <SMILES>  (2282) 
O=C(Cc1[n-]c(=O)[n-]c1[O-])N1CCN(C2c3ccccc3-c3ccccc32)CC1

>  <Energy>  (2282) 
118.10210972663099

>  <Genealogy>  (2282) 
O=C(Cc1[n-]c(=O)[n-]c1[O-])N1CCN(C2c3ccccc3-c3ccccc32)CC1 (protonated)
O=C(Cc1[n-]c(=O)[n-]c1[O-])N1CCN(C2c3ccccc3-c3ccccc32)CC1 (3D coordinates assigned)
O=C(Cc1[n-]c(=O)[n-]c1[O-])N1CCN(C2c3ccccc3-c3ccccc32)CC1 (nonaromatic ring conformer: 118.10210972663099 kcal/mol)

>  <smiles>  (2282) 
O=C(Cc1[nH]c(=O)[nH]c1O)N1CCN(C2c3ccccc3-c3ccccc32)CC1

>  <score_type>  (2282) 
oracle

>  <origin>  (2282) 
adg

>  <m_score__min__energy>  (2282) 
-16.719999999999999

>  <m_primary>  (2282) 
energy

$$$$
79:0
     RDKit          3D

 24 26  0  0  0  0  0  0  0  0999 V2000
   53.9480   28.6750   53.6600 C   0  0  0  0  0  0  0  0  0  0  0  0
   54.7740   29.4420   52.9260 C   0  0  0  0  0  0  0  0  0  0  0  0
   54.4160   30.7440   52.4490 C   0  0  0  0  0  0  0  0  0  0  0  0
   53.1530   31.2350   52.3620 C   0  0  0  0  0  0  0  0  0  0  0  0
   52.3310   31.3230   51.1410 C   0  0  0  0  0  0  0  0  0  0  0  0
   52.3210   30.3760   50.1860 N   0  0  0  0  0  0  0  0  0  0  0  0
   51.3690   30.8060   49.3280 C   0  0  0  0  0  0  0  0  0  0  0  0
   51.0730   30.1800   48.2770 O   0  0  0  0  0  0  0  0  0  0  0  0
   50.7550   31.9510   49.6910 N   0  0  0  0  0  0  0  0  0  0  0  0
   51.3640   32.2590   50.8460 C   0  0  0  0  0  0  0  0  0  0  0  0
   51.0200   33.3540   51.6300 O   0  0  0  0  0  0  0  0  0  0  0  0
   55.4580   31.5850   52.0100 C   0  0  0  0  0  0  0  0  0  0  0  0
   56.7710   31.1160   51.9020 C   0  0  0  0  0  0  0  0  0  0  0  0
   57.8430   31.9940   51.3840 C   0  0  0  0  0  0  0  0  0  0  0  0
   58.2420   32.9580   52.0920 O   0  0  0  0  0  0  0  0  0  0  0  0
   58.4500   31.7580   50.0980 N   0  0  0  0  0  0  0  0  0  0  0  0
   58.9450   32.8860   49.2990 C   0  0  0  0  0  0  0  0  0  0  0  0
   60.4710   32.8010   49.1200 C   0  0  0  0  0  0  0  0  0  0  0  0
   60.9980   31.3430   49.0220 C   0  0  0  0  0  0  0  0  0  0  0  0
   62.1770   31.2480   48.0460 C   0  0  0  0  0  0  0  0  0  0  0  0
   59.8850   30.3550   48.6270 C   0  0  0  0  0  0  0  0  0  0  0  0
   58.7580   30.3830   49.6720 C   0  0  0  0  0  0  0  0  0  0  0  0
   57.0350   29.7850   52.2300 C   0  0  0  0  0  0  0  0  0  0  0  0
   56.0540   28.9930   52.7360 N   0  0  0  0  0  0  0  0  0  0  0  0
  1  2  2  0
  2  3  1  0
  3  4  2  0
  4  5  1  0
  5  6  1  0
  6  7  1  0
  7  8  2  0
  7  9  1  0
  9 10  1  0
 10 11  1  0
  3 12  1  0
 12 13  2  0
 13 14  1  0
 14 15  2  0
 14 16  1  0
 16 17  1  0
 17 18  1  0
 18 19  1  0
 19 20  1  0
 19 21  1  0
 21 22  1  0
 13 23  1  0
 23 24  2  0
 24  2  1  0
 10  5  2  0
 22 16  1  0
M  CHG  4   6  -1   9  -1  11  -1  24   1
M  END
>  <UniqueID>  (2283) 
73

>  <SMILES>  (2283) 
C=c1[nH+]cc(C(=O)N2CCC(C)CC2)c/c1=C/c1[n-]c(=O)[n-]c1[O-]

>  <Energy>  (2283) 
99.24934512888127

>  <Genealogy>  (2283) 
C=c1[nH+]cc(C(=O)N2CCC(C)CC2)cc1=Cc1[n-]c(=O)[n-]c1[O-] (protonated)
C=c1[nH+]cc(C(=O)N2CCC(C)CC2)c/c1=C/c1[n-]c(=O)[n-]c1[O-] (cis-trans isomerization)
C=c1[nH+]cc(C(=O)N2CCC(C)CC2)c/c1=C/c1[n-]c(=O)[n-]c1[O-] (3D coordinates assigned)
C=c1[nH+]cc(C(=O)N2CCC(C)CC2)c/c1=C/c1[n-]c(=O)[n-]c1[O-] (nonaromatic ring conformer: 99.24934512888127 kcal/mol)

>  <smiles>  (2283) 
C=c1ncc(C(=O)N2CCC(C)CC2)cc1=Cc1[nH]c(=O)[nH]c1O

>  <score_type>  (2283) 
oracle

>  <origin>  (2283) 
adg

>  <m_score__min__energy>  (2283) 
-15.529999999999999

>  <m_primary>  (2283) 
energy

$$$$
87:0
     RDKit          3D

 26 28  0  0  0  0  0  0  0  0999 V2000
   59.6900   36.3290   46.0820 O   0  0  0  0  0  0  0  0  0  0  0  0
   59.4710   35.0590   46.5620 N   0  0  0  0  0  0  0  0  0  0  0  0
   59.2140   34.7840   47.8330 N   0  0  0  0  0  0  0  0  0  0  0  0
   59.0710   33.4450   47.9290 C   0  0  0  0  0  0  0  0  0  0  0  0
   58.9320   32.7070   49.2310 C   0  0  0  0  0  0  0  0  0  0  0  0
   59.7230   33.3670   50.3680 C   0  0  0  0  0  0  0  0  0  0  0  0
   61.1680   33.6660   49.9730 C   0  0  0  0  0  0  0  0  0  0  0  0
   59.2690   32.8840   46.6770 C   0  0  0  0  0  0  0  0  0  0  0  0
   59.3400   31.4880   46.3520 N   0  0  0  0  0  0  0  0  0  0  0  0
   60.2800   30.6250   46.7910 C   0  0  0  0  0  0  0  0  0  0  0  0
   61.4340   30.9930   47.6730 C   0  0  0  0  0  0  0  0  0  0  0  0
   60.0510   29.3610   46.2820 C   0  0  0  0  0  0  0  0  0  0  0  0
   58.9060   29.4530   45.5000 C   0  0  0  0  0  0  0  0  0  0  0  0
   58.3440   28.4510   44.7940 C   0  0  0  0  0  0  0  0  0  0  0  0
   57.6050   27.3300   45.4130 C   0  0  0  0  0  0  0  0  0  0  0  0
   56.2180   27.4250   45.6070 C   0  0  0  0  0  0  0  0  0  0  0  0
   55.5210   28.5540   45.1900 O   0  0  0  0  0  0  0  0  0  0  0  0
   55.5430   26.4050   46.1990 N   0  0  0  0  0  0  0  0  0  0  0  0
   56.1890   25.2900   46.6220 C   0  0  0  0  0  0  0  0  0  0  0  0
   55.5420   24.3560   47.1620 O   0  0  0  0  0  0  0  0  0  0  0  0
   57.5330   25.1830   46.4700 N   0  0  0  0  0  0  0  0  0  0  0  0
   58.2550   26.1760   45.8880 C   0  0  0  0  0  0  0  0  0  0  0  0
   59.5070   26.0560   45.7970 O   0  0  0  0  0  0  0  0  0  0  0  0
   58.4960   30.7880   45.5550 C   0  0  0  0  0  0  0  0  0  0  0  0
   57.4550   31.3310   44.9060 C   0  0  0  0  0  0  0  0  0  0  0  0
   59.5280   33.9360   45.8270 C   0  0  0  0  0  0  0  0  0  0  0  0
  1  2  1  0
  2  3  1  0
  3  4  2  0
  4  5  1  0
  5  6  1  0
  6  7  1  0
  4  8  1  0
  8  9  1  0
  9 10  1  0
 10 11  1  0
 10 12  2  0
 12 13  1  0
 13 14  2  0
 14 15  1  0
 15 16  2  0
 16 17  1  0
 16 18  1  0
 18 19  1  0
 19 20  2  0
 19 21  1  0
 21 22  1  0
 22 23  2  0
 13 24  1  0
 24 25  2  0
  8 26  2  0
 26  2  1  0
 24  9  1  0
 22 15  1  0
M  CHG  3  17  -1  18  -1  21  -1
M  END
>  <UniqueID>  (2284) 
81

>  <SMILES>  (2284) 
C=c1/c(=C/c2c([O-])[n-]c(=O)[n-]c2=O)cc(C)n1-c1cn(O)nc1CCC

>  <Energy>  (2284) 
114.68184274779256

>  <Genealogy>  (2284) 
C=c1c(=Cc2c([O-])[n-]c(=O)[n-]c2=O)cc(C)n1-c1cn(O)nc1CCC (protonated)
C=c1/c(=C/c2c([O-])[n-]c(=O)[n-]c2=O)cc(C)n1-c1cn(O)nc1CCC (cis-trans isomerization)
C=c1/c(=C/c2c([O-])[n-]c(=O)[n-]c2=O)cc(C)n1-c1cn(O)nc1CCC (3D coordinates assigned)
C=c1/c(=C/c2c([O-])[n-]c(=O)[n-]c2=O)cc(C)n1-c1cn(O)nc1CCC (optimized conformer: 114.68184274779256 kcal/mol)

>  <smiles>  (2284) 
C=c1c(=Cc2c(O)[nH]c(=O)[nH]c2=O)cc(C)n1-c1cn(O)nc1CCC

>  <score_type>  (2284) 
oracle

>  <origin>  (2284) 
adg

>  <m_score__min__energy>  (2284) 
-15.56

>  <m_primary>  (2284) 
energy

$$$$
3:0
     RDKit          3D

 27 29  0  0  0  0  0  0  0  0999 V2000
   54.6510   23.7010   45.9290 C   0  0  0  0  0  0  0  0  0  0  0  0
   55.8020   24.5150   46.2990 N   0  0  0  0  0  0  0  0  0  0  0  0
   55.8860   25.8550   46.3070 C   0  0  0  0  0  0  0  0  0  0  0  0
   54.8330   26.7160   46.0110 O   0  0  0  0  0  0  0  0  0  0  0  0
   57.1740   26.2190   46.6520 C   0  0  0  0  0  0  0  0  0  0  0  0
   57.6910   27.6120   46.8480 C   0  0  0  0  0  0  0  0  0  0  0  0
   58.1860   28.1690   45.5400 C   0  0  0  0  0  0  0  0  0  0  0  0
   57.8420   27.5940   44.4700 O   0  0  0  0  0  0  0  0  0  0  0  0
   59.1590   29.2200   45.4780 N   0  0  0  0  0  0  0  0  0  0  0  0
   58.8890   30.6280   45.4060 C   0  0  0  0  0  0  0  0  0  0  0  0
   59.3160   31.4930   46.4280 C   0  0  0  0  0  0  0  0  0  0  0  0
   59.0450   32.8670   46.3590 C   0  0  0  0  0  0  0  0  0  0  0  0
   59.6370   33.9560   47.6210 S   0  0  0  0  0  0  0  0  0  0  0  0
   59.1900   35.3570   47.3070 O   0  0  0  0  0  0  0  0  0  0  0  0
   59.0300   33.5550   48.9390 O   0  0  0  0  0  0  0  0  0  0  0  0
   61.3810   33.9330   47.7700 N   0  0  0  0  0  0  0  0  0  0  0  0
   62.0350   33.8620   46.4660 C   0  0  0  0  0  0  0  0  0  0  0  0
   63.4010   33.2470   46.7130 C   0  0  0  0  0  0  0  0  0  0  0  0
   63.2280   32.4020   47.9630 C   0  0  0  0  0  0  0  0  0  0  0  0
   61.8580   32.7700   48.5220 C   0  0  0  0  0  0  0  0  0  0  0  0
   58.2930   33.3670   45.2900 C   0  0  0  0  0  0  0  0  0  0  0  0
   57.8290   32.5090   44.2900 C   0  0  0  0  0  0  0  0  0  0  0  0
   58.1170   31.1400   44.3440 C   0  0  0  0  0  0  0  0  0  0  0  0
   57.6370   30.3110   43.3290 O   0  0  0  0  0  0  0  0  0  0  0  0
   57.9170   25.1070   46.8490 N   0  0  0  0  0  0  0  0  0  0  0  0
   57.0480   24.0970   46.6130 C   0  0  0  0  0  0  0  0  0  0  0  0
   57.3770   22.8810   46.6790 O   0  0  0  0  0  0  0  0  0  0  0  0
  1  2  1  0
  2  3  1  0
  3  4  1  0
  3  5  2  0
  5  6  1  0
  6  7  1  0
  7  8  2  0
  7  9  1  0
  9 10  1  0
 10 11  2  0
 11 12  1  0
 12 13  1  0
 13 14  2  0
 13 15  2  0
 13 16  1  0
 16 17  1  0
 17 18  1  0
 18 19  1  0
 19 20  1  0
 12 21  2  0
 21 22  1  0
 22 23  2  0
 23 24  1  0
  5 25  1  0
 25 26  1  0
 26 27  2  0
 26  2  1  0
 23 10  1  0
 20 16  1  0
M  CHG  3   4  -1   9  -1  25  -1
M  END
>  <UniqueID>  (2285) 
4

>  <SMILES>  (2285) 
Cn1c([O-])c(CC(=O)[N-]c2cc(S(=O)(=O)N3CCCC3)ccc2O)[n-]c1=O

>  <Energy>  (2285) 
79.34228977466171

>  <Genealogy>  (2285) 
Cn1c([O-])c(CC(=O)[N-]c2cc(S(=O)(=O)N3CCCC3)ccc2O)[n-]c1=O (protonated)
Cn1c([O-])c(CC(=O)[N-]c2cc(S(=O)(=O)N3CCCC3)ccc2O)[n-]c1=O (3D coordinates assigned)
Cn1c([O-])c(CC(=O)[N-]c2cc(S(=O)(=O)N3CCCC3)ccc2O)[n-]c1=O (nonaromatic ring conformer: 79.34228977466171 kcal/mol)

>  <smiles>  (2285) 
Cn1c(O)c(CC(=O)Nc2cc(S(=O)(=O)N3CCCC3)ccc2O)[nH]c1=O

>  <score_type>  (2285) 
oracle

>  <origin>  (2285) 
adg

>  <m_score__min__energy>  (2285) 
-15.4

>  <m_primary>  (2285) 
energy

$$$$
6:0
     RDKit          3D

 23 24  0  0  0  0  0  0  0  0999 V2000
   54.8360   26.3450   46.0550 O   0  0  0  0  0  0  0  0  0  0  0  0
   54.9020   25.0200   45.6220 C   0  0  0  0  0  0  0  0  0  0  0  0
   53.8850   24.1850   45.9620 N   0  0  0  0  0  0  0  0  0  0  0  0
   53.8760   22.8870   45.5720 C   0  0  0  0  0  0  0  0  0  0  0  0
   52.9160   22.1410   45.8980 O   0  0  0  0  0  0  0  0  0  0  0  0
   54.8990   22.3920   44.8360 N   0  0  0  0  0  0  0  0  0  0  0  0
   55.9460   23.1730   44.4690 C   0  0  0  0  0  0  0  0  0  0  0  0
   56.8960   22.6570   43.8230 O   0  0  0  0  0  0  0  0  0  0  0  0
   55.9740   24.5360   44.8390 C   0  0  0  0  0  0  0  0  0  0  0  0
   57.1060   25.4230   44.4750 C   0  0  0  0  0  0  0  0  0  0  0  0
   57.8140   26.1020   45.3850 C   0  0  0  0  0  0  0  0  0  0  0  0
   57.2980   27.3280   46.0260 C   0  0  0  0  0  0  0  0  0  0  0  0
   57.5940   27.5530   47.2290 O   0  0  0  0  0  0  0  0  0  0  0  0
   56.4490   28.2580   45.3370 N   0  0  0  0  0  0  0  0  0  0  0  0
   56.8330   29.4080   44.8670 C   0  0  0  0  0  0  0  0  0  0  0  0
   57.3370   30.4050   45.6270 N   0  0  0  0  0  0  0  0  0  0  0  0
   57.6240   31.5130   44.8870 C   0  0  0  0  0  0  0  0  0  0  0  0
   58.1710   32.7890   45.5140 C   0  0  0  0  0  0  0  0  0  0  0  0
   57.0680   33.4830   46.3390 C   0  0  0  0  0  0  0  0  0  0  0  0
   58.6590   33.7680   44.4240 C   0  0  0  0  0  0  0  0  0  0  0  0
   59.3560   32.4360   46.4330 C   0  0  0  0  0  0  0  0  0  0  0  0
   57.3220   31.3890   43.5260 C   0  0  0  0  0  0  0  0  0  0  0  0
   56.6930   29.8510   43.2570 S   0  0  0  0  0  0  0  0  0  0  0  0
  1  2  1  0
  2  3  1  0
  3  4  1  0
  4  5  2  0
  4  6  1  0
  6  7  1  0
  7  8  2  0
  7  9  1  0
  9 10  1  0
 10 11  2  0
 11 12  1  0
 12 13  2  0
 12 14  1  0
 14 15  2  3
 15 16  1  0
 16 17  1  0
 17 18  1  0
 18 19  1  0
 18 20  1  0
 18 21  1  0
 17 22  2  0
 22 23  1  0
  9  2  2  0
 23 15  1  0
M  CHG  3   3  -1   6  -1  16  -1
M  END
>  <UniqueID>  (2286) 
7

>  <SMILES>  (2286) 
CC(C)(C)c1csc(=NC(=O)/C=C/c2c(O)[n-]c(=O)[n-]c2=O)[n-]1

>  <Energy>  (2286) 
73.98836771464151

>  <Genealogy>  (2286) 
CC(C)(C)c1csc(=NC(=O)C=Cc2c(O)[n-]c(=O)[n-]c2=O)[n-]1 (protonated)
CC(C)(C)c1csc(=NC(=O)/C=C/c2c(O)[n-]c(=O)[n-]c2=O)[n-]1 (cis-trans isomerization)
CC(C)(C)c1csc(=NC(=O)/C=C/c2c(O)[n-]c(=O)[n-]c2=O)[n-]1 (3D coordinates assigned)
CC(C)(C)c1csc(=NC(=O)/C=C/c2c(O)[n-]c(=O)[n-]c2=O)[n-]1 (optimized conformer: 73.98836771464151 kcal/mol)

>  <smiles>  (2286) 
CC(C)(C)c1csc(=NC(=O)C=Cc2c(O)[nH]c(=O)[nH]c2=O)[nH]1

>  <score_type>  (2286) 
oracle

>  <origin>  (2286) 
adg

>  <m_score__min__energy>  (2286) 
-14.210000000000001

>  <m_primary>  (2286) 
energy

$$$$
12:0
     RDKit          3D

 39 43  0  0  0  0  0  0  0  0999 V2000
   59.7380   29.1350   44.6760 C   0  0  0  0  0  0  0  0  0  0  0  0
   59.5770   28.7210   45.9420 C   0  0  0  0  0  0  0  0  0  0  0  0
   58.8600   27.5910   46.3680 C   0  0  0  0  0  0  0  0  0  0  0  0
   57.9990   26.7900   45.7120 C   0  0  0  0  0  0  0  0  0  0  0  0
   57.2950   25.6320   46.2920 C   0  0  0  0  0  0  0  0  0  0  0  0
   57.8940   24.4800   46.6510 N   0  0  0  0  0  0  0  0  0  0  0  0
   56.8590   23.6770   46.9800 C   0  0  0  0  0  0  0  0  0  0  0  0
   57.0180   22.5010   47.3950 O   0  0  0  0  0  0  0  0  0  0  0  0
   55.6400   24.2330   46.8250 N   0  0  0  0  0  0  0  0  0  0  0  0
   55.9310   25.4660   46.3760 C   0  0  0  0  0  0  0  0  0  0  0  0
   54.9610   26.4120   46.0540 O   0  0  0  0  0  0  0  0  0  0  0  0
   59.1590   27.4260   47.7070 C   0  0  0  0  0  0  0  0  0  0  0  0
   59.9600   28.4860   48.0710 C   0  0  0  0  0  0  0  0  0  0  0  0
   60.4130   28.7290   49.4530 C   0  0  0  0  0  0  0  0  0  0  0  0
   61.2350   27.9270   49.9720 O   0  0  0  0  0  0  0  0  0  0  0  0
   59.9060   29.8350   50.2250 N   0  0  0  0  0  0  0  0  0  0  0  0
   60.7490   30.4080   51.2830 C   0  0  0  0  0  0  0  0  0  0  0  0
   60.1420   31.6950   51.8510 C   0  0  0  0  0  0  0  0  0  0  0  0
   58.7240   31.4870   52.1780 N   0  0  0  0  0  0  0  0  0  0  0  0
   58.1720   31.9510   53.4260 C   0  0  0  0  0  0  0  0  0  0  0  0
   57.2830   31.2660   54.0010 O   0  0  0  0  0  0  0  0  0  0  0  0
   58.6200   33.2150   54.0560 C   0  0  0  0  0  0  0  0  0  0  0  0
   59.1960   33.2190   55.3390 C   0  0  0  0  0  0  0  0  0  0  0  0
   59.6240   34.4180   55.9180 C   0  0  0  0  0  0  0  0  0  0  0  0
   59.4960   35.6210   55.2190 C   0  0  0  0  0  0  0  0  0  0  0  0
   59.9130   36.7820   55.7810 F   0  0  0  0  0  0  0  0  0  0  0  0
   58.9440   35.6230   53.9340 C   0  0  0  0  0  0  0  0  0  0  0  0
   58.5090   34.4270   53.3540 C   0  0  0  0  0  0  0  0  0  0  0  0
   57.8600   30.7260   51.2650 C   0  0  0  0  0  0  0  0  0  0  0  0
   58.5740   30.3950   49.9520 C   0  0  0  0  0  0  0  0  0  0  0  0
   60.2260   29.2770   47.0030 N   0  0  0  0  0  0  0  0  0  0  0  0
   61.1940   30.3890   46.9700 C   0  0  0  0  0  0  0  0  0  0  0  0
   60.4860   31.7200   47.0140 C   0  0  0  0  0  0  0  0  0  0  0  0
   59.0860   31.7780   46.8930 C   0  0  0  0  0  0  0  0  0  0  0  0
   58.4240   33.0080   46.9320 C   0  0  0  0  0  0  0  0  0  0  0  0
   59.1540   34.1910   47.0840 C   0  0  0  0  0  0  0  0  0  0  0  0
   58.5100   35.3830   47.1210 F   0  0  0  0  0  0  0  0  0  0  0  0
   60.5460   34.1450   47.1990 C   0  0  0  0  0  0  0  0  0  0  0  0
   61.2120   32.9160   47.1580 C   0  0  0  0  0  0  0  0  0  0  0  0
  1  2  2  0
  2  3  1  0
  3  4  2  3
  4  5  1  0
  5  6  1  0
  6  7  1  0
  7  8  2  0
  7  9  1  0
  9 10  1  0
 10 11  1  0
  3 12  1  0
 12 13  2  0
 13 14  1  0
 14 15  2  0
 14 16  1  0
 16 17  1  0
 17 18  1  0
 18 19  1  0
 19 20  1  0
 20 21  2  0
 20 22  1  0
 22 23  2  0
 23 24  1  0
 24 25  2  0
 25 26  1  0
 25 27  1  0
 27 28  2  0
 19 29  1  0
 29 30  1  0
 13 31  1  0
 31 32  1  0
 32 33  1  0
 33 34  2  0
 34 35  1  0
 35 36  2  0
 36 37  1  0
 36 38  1  0
 38 39  2  0
 31  2  1  0
 39 33  1  0
 10  5  2  0
 30 16  1  0
 28 22  1  0
M  CHG  2   6  -1   9  -1
M  END
>  <UniqueID>  (2287) 
13

>  <SMILES>  (2287) 
C=c1c(=Cc2[n-]c(=O)[n-]c2O)cc(C(=O)N2CCN(C(=O)c3ccc(F)cc3)CC2)n1Cc1ccc(F)cc1

>  <Energy>  (2287) 
145.48142460685654

>  <Genealogy>  (2287) 
C=c1c(=Cc2[n-]c(=O)[n-]c2O)cc(C(=O)N2CCN(C(=O)c3ccc(F)cc3)CC2)n1Cc1ccc(F)cc1 (protonated)
C=c1c(=Cc2[n-]c(=O)[n-]c2O)cc(C(=O)N2CCN(C(=O)c3ccc(F)cc3)CC2)n1Cc1ccc(F)cc1 (3D coordinates assigned)
C=c1c(=Cc2[n-]c(=O)[n-]c2O)cc(C(=O)N2CCN(C(=O)c3ccc(F)cc3)CC2)n1Cc1ccc(F)cc1 (nonaromatic ring conformer: 145.48142460685654 kcal/mol)

>  <smiles>  (2287) 
C=c1c(=Cc2[nH]c(=O)[nH]c2O)cc(C(=O)N2CCN(C(=O)c3ccc(F)cc3)CC2)n1Cc1ccc(F)cc1

>  <score_type>  (2287) 
oracle

>  <origin>  (2287) 
adg

>  <m_score__min__energy>  (2287) 
-14.029999999999999

>  <m_primary>  (2287) 
energy

$$$$
13:0
     RDKit          3D

 32 34  0  0  0  0  0  0  0  0999 V2000
   60.3850   30.7560   50.0040 C   0  0  0  0  0  0  0  0  0  0  0  0
   59.2640   31.3700   49.6150 C   0  0  0  0  0  0  0  0  0  0  0  0
   58.3250   31.9200   50.6500 C   0  0  0  0  0  0  0  0  0  0  0  0
   59.0120   31.6430   48.1810 C   0  0  0  0  0  0  0  0  0  0  0  0
   58.5000   30.7330   47.2820 C   0  0  0  0  0  0  0  0  0  0  0  0
   58.1770   29.4130   47.5820 O   0  0  0  0  0  0  0  0  0  0  0  0
   58.3200   31.2890   46.0680 N   0  0  0  0  0  0  0  0  0  0  0  0
   57.7290   30.5850   44.9210 C   0  0  0  0  0  0  0  0  0  0  0  0
   57.9370   29.1060   45.0640 C   0  0  0  0  0  0  0  0  0  0  0  0
   56.9280   28.2150   45.0970 N   0  0  0  0  0  0  0  0  0  0  0  0
   57.5600   27.0200   45.1540 C   0  0  0  0  0  0  0  0  0  0  0  0
   56.8650   25.7130   45.2120 C   0  0  0  0  0  0  0  0  0  0  0  0
   57.5650   24.5490   44.8410 C   0  0  0  0  0  0  0  0  0  0  0  0
   56.9390   23.3000   44.8840 C   0  0  0  0  0  0  0  0  0  0  0  0
   55.6110   23.1960   45.2970 C   0  0  0  0  0  0  0  0  0  0  0  0
   54.9020   24.3400   45.6660 C   0  0  0  0  0  0  0  0  0  0  0  0
   55.5190   25.5970   45.6270 C   0  0  0  0  0  0  0  0  0  0  0  0
   54.7820   26.7150   46.0010 O   0  0  0  0  0  0  0  0  0  0  0  0
   58.8710   27.1450   45.1460 O   0  0  0  0  0  0  0  0  0  0  0  0
   59.1370   28.4260   45.0880 C   0  0  0  0  0  0  0  0  0  0  0  0
   60.5150   28.9950   45.0220 C   0  0  0  0  0  0  0  0  0  0  0  0
   58.7360   32.5820   46.1650 C   0  0  0  0  0  0  0  0  0  0  0  0
   58.8960   33.3920   45.1060 C   0  0  0  0  0  0  0  0  0  0  0  0
   59.1300   32.8520   47.4920 C   0  0  0  0  0  0  0  0  0  0  0  0
   59.5610   34.0050   48.0470 C   0  0  0  0  0  0  0  0  0  0  0  0
   60.6400   34.1180   49.0390 C   0  0  0  0  0  0  0  0  0  0  0  0
   60.3470   34.2080   50.2600 O   0  0  0  0  0  0  0  0  0  0  0  0
   62.0010   34.2300   48.6130 N   0  0  0  0  0  0  0  0  0  0  0  0
   62.6380   33.3430   47.2710 S   0  0  0  0  0  0  0  0  0  0  0  0
   62.3650   31.6020   47.5140 C   0  0  0  0  0  0  0  0  0  0  0  0
   64.1150   33.6030   47.1700 O   0  0  0  0  0  0  0  0  0  0  0  0
   61.9730   33.7970   46.0030 O   0  0  0  0  0  0  0  0  0  0  0  0
  1  2  2  0
  2  3  1  0
  2  4  1  0
  4  5  2  0
  5  6  1  0
  5  7  1  0
  7  8  1  0
  8  9  1  0
  9 10  1  0
 10 11  2  0
 11 12  1  0
 12 13  2  0
 13 14  1  0
 14 15  2  0
 15 16  1  0
 16 17  2  0
 17 18  1  0
 11 19  1  0
 19 20  1  0
 20 21  1  0
  7 22  1  0
 22 23  2  0
 22 24  1  0
 24 25  2  3
 25 26  1  0
 26 27  2  0
 26 28  1  0
 28 29  1  0
 29 30  1  0
 29 31  2  0
 29 32  2  0
 24  4  1  0
 20  9  2  0
 17 12  1  0
M  CHG  3   6  -1  18  -1  28  -1
M  END
>  <UniqueID>  (2288) 
14

>  <SMILES>  (2288) 
C=C(C)c1c([O-])n(Cc2nc(-c3ccccc3[O-])oc2C)c(=C)c1=CC(=O)[N-]S(C)(=O)=O

>  <Energy>  (2288) 
125.27066516899005

>  <Genealogy>  (2288) 
C=C(C)c1c([O-])n(Cc2nc(-c3ccccc3[O-])oc2C)c(=C)c1=CC(=O)[N-]S(C)(=O)=O (protonated)
C=C(C)c1c([O-])n(Cc2nc(-c3ccccc3[O-])oc2C)c(=C)c1=CC(=O)[N-]S(C)(=O)=O (3D coordinates assigned)
C=C(C)c1c([O-])n(Cc2nc(-c3ccccc3[O-])oc2C)c(=C)c1=CC(=O)[N-]S(C)(=O)=O (optimized conformer: 125.27066516899005 kcal/mol)

>  <smiles>  (2288) 
C=C(C)c1c(O)n(Cc2nc(-c3ccccc3O)oc2C)c(=C)c1=CC(=O)NS(C)(=O)=O

>  <score_type>  (2288) 
oracle

>  <origin>  (2288) 
adg

>  <m_score__min__energy>  (2288) 
-15

>  <m_primary>  (2288) 
energy

$$$$
31:0
     RDKit          3D

 31 34  0  0  0  0  0  0  0  0999 V2000
   53.6150   28.3280   53.6340 C   0  0  0  0  0  0  0  0  0  0  0  0
   54.4710   29.2930   53.2510 C   0  0  0  0  0  0  0  0  0  0  0  0
   54.0570   30.4740   52.5540 C   0  0  0  0  0  0  0  0  0  0  0  0
   52.7840   30.9410   52.4780 C   0  0  0  0  0  0  0  0  0  0  0  0
   51.9900   31.1120   51.2470 C   0  0  0  0  0  0  0  0  0  0  0  0
   52.0180   30.2450   50.2200 N   0  0  0  0  0  0  0  0  0  0  0  0
   51.2380   30.8370   49.2890 C   0  0  0  0  0  0  0  0  0  0  0  0
   51.0020   30.3140   48.1700 O   0  0  0  0  0  0  0  0  0  0  0  0
   50.7370   32.0390   49.6500 N   0  0  0  0  0  0  0  0  0  0  0  0
   51.2330   32.2050   50.8860 C   0  0  0  0  0  0  0  0  0  0  0  0
   51.0240   33.3450   51.6530 O   0  0  0  0  0  0  0  0  0  0  0  0
   55.0540   31.2350   51.9140 C   0  0  0  0  0  0  0  0  0  0  0  0
   56.4090   30.9510   52.0930 C   0  0  0  0  0  0  0  0  0  0  0  0
   57.4320   31.8080   51.4540 C   0  0  0  0  0  0  0  0  0  0  0  0
   57.7080   32.9280   51.9660 O   0  0  0  0  0  0  0  0  0  0  0  0
   58.1180   31.3880   50.2620 N   0  0  0  0  0  0  0  0  0  0  0  0
   58.6410   30.0140   50.1840 C   0  0  0  0  0  0  0  0  0  0  0  0
   59.5990   29.8390   49.0050 C   0  0  0  0  0  0  0  0  0  0  0  0
   59.0790   30.4490   47.8450 O   0  0  0  0  0  0  0  0  0  0  0  0
   59.1020   31.8500   48.0170 C   0  0  0  0  0  0  0  0  0  0  0  0
   58.1150   32.2930   49.1030 C   0  0  0  0  0  0  0  0  0  0  0  0
   56.7730   29.8380   52.8620 C   0  0  0  0  0  0  0  0  0  0  0  0
   58.1340   29.5280   53.0170 O   0  0  0  0  0  0  0  0  0  0  0  0
   59.0640   30.3290   53.6890 C   0  0  0  0  0  0  0  0  0  0  0  0
   58.5860   31.2700   54.6100 C   0  0  0  0  0  0  0  0  0  0  0  0
   59.4760   32.0790   55.3220 C   0  0  0  0  0  0  0  0  0  0  0  0
   60.8510   31.9580   55.1110 C   0  0  0  0  0  0  0  0  0  0  0  0
   61.3390   31.0430   54.1740 C   0  0  0  0  0  0  0  0  0  0  0  0
   60.4550   30.2390   53.4350 C   0  0  0  0  0  0  0  0  0  0  0  0
   61.0080   29.3010   52.3970 C   0  0  0  0  0  0  0  0  0  0  0  0
   55.8080   29.0630   53.4340 N   0  0  0  0  0  0  0  0  0  0  0  0
  1  2  2  0
  2  3  1  0
  3  4  2  0
  4  5  1  0
  5  6  1  0
  6  7  1  0
  7  8  2  0
  7  9  1  0
  9 10  1  0
 10 11  1  0
  3 12  1  0
 12 13  2  0
 13 14  1  0
 14 15  2  0
 14 16  1  0
 16 17  1  0
 17 18  1  0
 18 19  1  0
 19 20  1  0
 20 21  1  0
 13 22  1  0
 22 23  1  0
 23 24  1  0
 24 25  2  0
 25 26  1  0
 26 27  2  0
 27 28  1  0
 28 29  2  0
 29 30  1  0
 22 31  2  0
 31  2  1  0
 10  5  2  0
 21 16  1  0
 29 24  1  0
M  CHG  4   6  -1   9  -1  11  -1  31   1
M  END
>  <UniqueID>  (2289) 
30

>  <SMILES>  (2289) 
C=c1[nH+]c(Oc2ccccc2C)c(C(=O)N2CCOCC2)c/c1=C/c1[n-]c(=O)[n-]c1[O-]

>  <Energy>  (2289) 
120.99054457164407

>  <Genealogy>  (2289) 
C=c1[nH+]c(Oc2ccccc2C)c(C(=O)N2CCOCC2)cc1=Cc1[n-]c(=O)[n-]c1[O-] (protonated)
C=c1[nH+]c(Oc2ccccc2C)c(C(=O)N2CCOCC2)c/c1=C/c1[n-]c(=O)[n-]c1[O-] (cis-trans isomerization)
C=c1[nH+]c(Oc2ccccc2C)c(C(=O)N2CCOCC2)c/c1=C/c1[n-]c(=O)[n-]c1[O-] (3D coordinates assigned)
C=c1[nH+]c(Oc2ccccc2C)c(C(=O)N2CCOCC2)c/c1=C/c1[n-]c(=O)[n-]c1[O-] (nonaromatic ring conformer: 120.99054457164407 kcal/mol)

>  <smiles>  (2289) 
C=c1nc(Oc2ccccc2C)c(C(=O)N2CCOCC2)cc1=Cc1[nH]c(=O)[nH]c1O

>  <score_type>  (2289) 
oracle

>  <origin>  (2289) 
adg

>  <m_score__min__energy>  (2289) 
-14.949999999999999

>  <m_primary>  (2289) 
energy

$$$$
36:0
     RDKit          3D

 24 26  0  0  0  0  0  0  0  0999 V2000
   56.6870   29.1590   43.3890 C   0  0  0  0  0  0  0  0  0  0  0  0
   57.7120   28.9080   44.2160 C   0  0  0  0  0  0  0  0  0  0  0  0
   58.1540   27.6570   44.6840 C   0  0  0  0  0  0  0  0  0  0  0  0
   57.6490   26.4180   44.5170 C   0  0  0  0  0  0  0  0  0  0  0  0
   57.0990   25.5630   45.5760 C   0  0  0  0  0  0  0  0  0  0  0  0
   57.7880   24.5720   46.1690 N   0  0  0  0  0  0  0  0  0  0  0  0
   56.9590   24.1600   47.1530 C   0  0  0  0  0  0  0  0  0  0  0  0
   57.2500   23.2170   47.9320 O   0  0  0  0  0  0  0  0  0  0  0  0
   55.7990   24.8460   47.2430 N   0  0  0  0  0  0  0  0  0  0  0  0
   55.9110   25.7420   46.2490 C   0  0  0  0  0  0  0  0  0  0  0  0
   54.9590   26.7160   45.9760 O   0  0  0  0  0  0  0  0  0  0  0  0
   59.2940   27.9020   45.4360 C   0  0  0  0  0  0  0  0  0  0  0  0
   59.4740   29.2690   45.4580 C   0  0  0  0  0  0  0  0  0  0  0  0
   60.6190   29.9770   46.1110 C   0  0  0  0  0  0  0  0  0  0  0  0
   58.5420   29.8690   44.6960 N   0  0  0  0  0  0  0  0  0  0  0  0
   58.5040   31.2530   44.4380 N   0  0  0  0  0  0  0  0  0  0  0  0
   57.7840   32.2030   45.2360 C   0  0  0  0  0  0  0  0  0  0  0  0
   56.5240   32.1950   45.1910 O   0  0  0  0  0  0  0  0  0  0  0  0
   58.4720   33.1770   46.1140 C   0  0  0  0  0  0  0  0  0  0  0  0
   58.6300   32.9010   47.4810 C   0  0  0  0  0  0  0  0  0  0  0  0
   59.2730   33.8280   48.3040 C   0  0  0  0  0  0  0  0  0  0  0  0
   59.7560   34.9870   47.7800 N   0  0  0  0  0  0  0  0  0  0  0  0
   59.6320   35.2740   46.4570 C   0  0  0  0  0  0  0  0  0  0  0  0
   58.9940   34.3740   45.6000 C   0  0  0  0  0  0  0  0  0  0  0  0
  1  2  2  0
  2  3  1  0
  3  4  2  0
  4  5  1  0
  5  6  1  0
  6  7  1  0
  7  8  2  0
  7  9  1  0
  9 10  1  0
 10 11  1  0
  3 12  1  0
 12 13  2  0
 13 14  1  0
 13 15  1  0
 15 16  1  0
 16 17  1  0
 17 18  2  0
 17 19  1  0
 19 20  2  0
 20 21  1  0
 21 22  2  0
 22 23  1  0
 23 24  2  0
 15  2  1  0
 24 19  1  0
 10  5  2  0
M  CHG  4   6  -1   9  -1  11  -1  16  -1
M  END
>  <UniqueID>  (2290) 
35

>  <SMILES>  (2290) 
C=c1/c(=C\c2[n-]c(=O)[n-]c2[O-])cc(C)n1[N-]C(=O)c1ccncc1

>  <Energy>  (2290) 
116.81575283552347

>  <Genealogy>  (2290) 
C=c1c(=Cc2[n-]c(=O)[n-]c2[O-])cc(C)n1[N-]C(=O)c1ccncc1 (protonated)
C=c1/c(=C\c2[n-]c(=O)[n-]c2[O-])cc(C)n1[N-]C(=O)c1ccncc1 (cis-trans isomerization)
C=c1/c(=C\c2[n-]c(=O)[n-]c2[O-])cc(C)n1[N-]C(=O)c1ccncc1 (3D coordinates assigned)
C=c1/c(=C\c2[n-]c(=O)[n-]c2[O-])cc(C)n1[N-]C(=O)c1ccncc1 (optimized conformer: 116.81575283552347 kcal/mol)

>  <smiles>  (2290) 
C=c1c(=Cc2[nH]c(=O)[nH]c2O)cc(C)n1NC(=O)c1ccncc1

>  <score_type>  (2290) 
oracle

>  <origin>  (2290) 
adg

>  <m_score__min__energy>  (2290) 
-16.829999999999998

>  <m_primary>  (2290) 
energy

$$$$
43:0
     RDKit          3D

 34 37  0  0  0  0  0  0  0  0999 V2000
   56.0460   30.6890   44.7850 O   0  0  0  0  0  0  0  0  0  0  0  0
   57.2590   30.3620   44.8810 C   0  0  0  0  0  0  0  0  0  0  0  0
   58.2580   31.3120   44.4880 N   0  0  0  0  0  0  0  0  0  0  0  0
   58.6840   32.4590   45.2400 C   0  0  0  0  0  0  0  0  0  0  0  0
   58.4700   33.7690   44.7750 C   0  0  0  0  0  0  0  0  0  0  0  0
   58.8910   34.8610   45.5360 C   0  0  0  0  0  0  0  0  0  0  0  0
   59.5120   34.6590   46.7710 C   0  0  0  0  0  0  0  0  0  0  0  0
   59.7060   33.3590   47.2560 C   0  0  0  0  0  0  0  0  0  0  0  0
   60.4510   33.0900   48.8300 S   0  0  0  0  0  0  0  0  0  0  0  0
   59.4730   32.4020   49.7420 O   0  0  0  0  0  0  0  0  0  0  0  0
   60.8020   34.4260   49.4260 O   0  0  0  0  0  0  0  0  0  0  0  0
   61.8950   32.1210   48.6240 N   0  0  0  0  0  0  0  0  0  0  0  0
   62.9470   32.4830   49.5990 C   0  0  0  0  0  0  0  0  0  0  0  0
   64.0130   33.4230   49.0040 C   0  0  0  0  0  0  0  0  0  0  0  0
   63.4370   34.2620   48.0290 O   0  0  0  0  0  0  0  0  0  0  0  0
   63.0670   33.5040   46.8900 C   0  0  0  0  0  0  0  0  0  0  0  0
   62.3840   32.1590   47.2360 C   0  0  0  0  0  0  0  0  0  0  0  0
   59.2800   32.2640   46.4920 C   0  0  0  0  0  0  0  0  0  0  0  0
   57.6120   29.0350   45.4410 C   0  0  0  0  0  0  0  0  0  0  0  0
   58.3240   28.9330   46.6460 C   0  0  0  0  0  0  0  0  0  0  0  0
   58.6720   27.6810   47.1540 C   0  0  0  0  0  0  0  0  0  0  0  0
   58.3020   26.5180   46.4750 C   0  0  0  0  0  0  0  0  0  0  0  0
   57.5600   26.5940   45.2810 C   0  0  0  0  0  0  0  0  0  0  0  0
   57.1670   25.3640   44.5430 C   0  0  0  0  0  0  0  0  0  0  0  0
   57.7480   25.0770   43.4610 O   0  0  0  0  0  0  0  0  0  0  0  0
   56.0870   24.4750   45.0220 C   0  0  0  0  0  0  0  0  0  0  0  0
   56.1920   23.0900   44.8200 C   0  0  0  0  0  0  0  0  0  0  0  0
   55.2070   22.2310   45.3040 C   0  0  0  0  0  0  0  0  0  0  0  0
   54.1210   22.7620   46.0010 C   0  0  0  0  0  0  0  0  0  0  0  0
   53.2260   22.0010   46.4520 O   0  0  0  0  0  0  0  0  0  0  0  0
   54.0280   24.1030   46.1940 N   0  0  0  0  0  0  0  0  0  0  0  0
   54.9650   24.9700   45.7260 C   0  0  0  0  0  0  0  0  0  0  0  0
   54.7700   26.3360   45.9390 O   0  0  0  0  0  0  0  0  0  0  0  0
   57.2210   27.8620   44.7730 C   0  0  0  0  0  0  0  0  0  0  0  0
  1  2  2  0
  2  3  1  0
  3  4  1  0
  4  5  2  0
  5  6  1  0
  6  7  2  0
  7  8  1  0
  8  9  1  0
  9 10  2  0
  9 11  2  0
  9 12  1  0
 12 13  1  0
 13 14  1  0
 14 15  1  0
 15 16  1  0
 16 17  1  0
  8 18  2  0
  2 19  1  0
 19 20  2  0
 20 21  1  0
 21 22  2  0
 22 23  1  0
 23 24  1  0
 24 25  2  0
 24 26  1  0
 26 27  1  0
 27 28  2  0
 28 29  1  0
 29 30  2  0
 29 31  1  0
 31 32  1  0
 32 33  1  0
 23 34  2  0
 18  4  1  0
 34 19  1  0
 17 12  1  0
 32 26  2  0
M  CHG  2   3  -1  31  -1
M  END
>  <UniqueID>  (2291) 
42

>  <SMILES>  (2291) 
O=C([N-]c1cccc(S(=O)(=O)N2CCOCC2)c1)c1cccc(C(=O)c2ccc(=O)[n-]c2O)c1

>  <Energy>  (2291) 
84.12252819647063

>  <Genealogy>  (2291) 
O=C([N-]c1cccc(S(=O)(=O)N2CCOCC2)c1)c1cccc(C(=O)c2ccc(=O)[n-]c2O)c1 (protonated)
O=C([N-]c1cccc(S(=O)(=O)N2CCOCC2)c1)c1cccc(C(=O)c2ccc(=O)[n-]c2O)c1 (3D coordinates assigned)
O=C([N-]c1cccc(S(=O)(=O)N2CCOCC2)c1)c1cccc(C(=O)c2ccc(=O)[n-]c2O)c1 (nonaromatic ring conformer: 84.12252819647063 kcal/mol)

>  <smiles>  (2291) 
O=C(Nc1cccc(S(=O)(=O)N2CCOCC2)c1)c1cccc(C(=O)c2ccc(=O)[nH]c2O)c1

>  <score_type>  (2291) 
oracle

>  <origin>  (2291) 
adg

>  <m_score__min__energy>  (2291) 
-14.82

>  <m_primary>  (2291) 
energy

$$$$
75:0
     RDKit          3D

 31 33  0  0  0  0  0  0  0  0999 V2000
   57.8260   32.5150   47.3220 C   0  0  0  0  0  0  0  0  0  0  0  0
   57.9910   32.4090   45.8260 C   0  0  0  0  0  0  0  0  0  0  0  0
   58.4170   33.5280   45.0930 C   0  0  0  0  0  0  0  0  0  0  0  0
   58.5050   33.4680   43.6950 C   0  0  0  0  0  0  0  0  0  0  0  0
   58.1540   32.2960   43.0160 C   0  0  0  0  0  0  0  0  0  0  0  0
   57.7150   31.1800   43.7340 C   0  0  0  0  0  0  0  0  0  0  0  0
   57.6230   31.2320   45.1350 C   0  0  0  0  0  0  0  0  0  0  0  0
   57.1520   30.0860   45.8500 N   0  0  0  0  0  0  0  0  0  0  0  0
   56.2920   29.1100   45.2460 C   0  0  0  0  0  0  0  0  0  0  0  0
   55.1640   29.4480   44.7920 O   0  0  0  0  0  0  0  0  0  0  0  0
   56.7000   27.7420   45.1440 N   0  0  0  0  0  0  0  0  0  0  0  0
   56.3310   26.7100   46.1120 C   0  0  0  0  0  0  0  0  0  0  0  0
   57.5440   26.0430   46.6920 C   0  0  0  0  0  0  0  0  0  0  0  0
   57.5180   25.5590   47.8590 O   0  0  0  0  0  0  0  0  0  0  0  0
   58.7070   25.8820   45.8740 N   0  0  0  0  0  0  0  0  0  0  0  0
   60.0650   26.0620   46.3680 C   0  0  0  0  0  0  0  0  0  0  0  0
   60.1680   27.3670   47.1100 C   0  0  0  0  0  0  0  0  0  0  0  0
   60.1050   28.5910   46.4300 C   0  0  0  0  0  0  0  0  0  0  0  0
   60.2590   29.7950   47.1290 C   0  0  0  0  0  0  0  0  0  0  0  0
   60.4860   29.7830   48.5120 C   0  0  0  0  0  0  0  0  0  0  0  0
   60.7530   31.2930   49.3860 S   0  0  0  0  0  0  0  0  0  0  0  0
   59.4240   31.9470   49.6710 O   0  0  0  0  0  0  0  0  0  0  0  0
   61.4130   30.9890   50.7000 O   0  0  0  0  0  0  0  0  0  0  0  0
   61.7520   32.4030   48.4790 N   0  0  0  0  0  0  0  0  0  0  0  0
   62.8370   31.6830   47.7970 C   0  0  0  0  0  0  0  0  0  0  0  0
   63.7650   32.7010   47.0960 C   0  0  0  0  0  0  0  0  0  0  0  0
   63.1830   33.9950   46.9910 O   0  0  0  0  0  0  0  0  0  0  0  0
   61.8610   33.8990   46.4970 C   0  0  0  0  0  0  0  0  0  0  0  0
   60.9490   33.1570   47.5000 C   0  0  0  0  0  0  0  0  0  0  0  0
   60.5220   28.5640   49.1960 C   0  0  0  0  0  0  0  0  0  0  0  0
   60.3640   27.3600   48.5020 C   0  0  0  0  0  0  0  0  0  0  0  0
  1  2  1  0
  2  3  2  0
  3  4  1  0
  4  5  2  0
  5  6  1  0
  6  7  2  0
  7  8  1  0
  8  9  1  0
  9 10  2  0
  9 11  1  0
 11 12  1  0
 12 13  1  0
 13 14  2  0
 13 15  1  0
 15 16  1  0
 16 17  1  0
 17 18  2  0
 18 19  1  0
 19 20  2  0
 20 21  1  0
 21 22  2  0
 21 23  2  0
 21 24  1  0
 24 25  1  0
 25 26  1  0
 26 27  1  0
 27 28  1  0
 28 29  1  0
 20 30  1  0
 30 31  2  0
  7  2  1  0
 31 17  1  0
 29 24  1  0
M  CHG  3   8  -1  11  -1  15  -1
M  END
>  <UniqueID>  (2292) 
72

>  <SMILES>  (2292) 
Cc1ccccc1[N-]C(=O)[N-]CC(=O)[N-]Cc1ccc(S(=O)(=O)N2CCOCC2)cc1

>  <Energy>  (2292) 
60.02610815448544

>  <Genealogy>  (2292) 
Cc1ccccc1[N-]C(=O)[N-]CC(=O)[N-]Cc1ccc(S(=O)(=O)N2CCOCC2)cc1 (protonated)
Cc1ccccc1[N-]C(=O)[N-]CC(=O)[N-]Cc1ccc(S(=O)(=O)N2CCOCC2)cc1 (3D coordinates assigned)
Cc1ccccc1[N-]C(=O)[N-]CC(=O)[N-]Cc1ccc(S(=O)(=O)N2CCOCC2)cc1 (nonaromatic ring conformer: 60.02610815448544 kcal/mol)

>  <smiles>  (2292) 
Cc1ccccc1NC(=O)NCC(=O)NCc1ccc(S(=O)(=O)N2CCOCC2)cc1

>  <score_type>  (2292) 
oracle

>  <origin>  (2292) 
adg

>  <m_score__min__energy>  (2292) 
-15

>  <m_primary>  (2292) 
energy

$$$$
77:0
     RDKit          3D

 29 31  0  0  0  0  0  0  0  0999 V2000
   55.1410   29.4080   44.8280 N   0  0  0  0  0  0  0  0  0  0  0  0
   56.2810   29.7680   44.0500 C   0  0  0  0  0  0  0  0  0  0  0  0
   56.2220   29.6770   42.7950 O   0  0  0  0  0  0  0  0  0  0  0  0
   57.5300   30.2080   44.7160 C   0  0  0  0  0  0  0  0  0  0  0  0
   57.7020   31.5770   44.9990 C   0  0  0  0  0  0  0  0  0  0  0  0
   58.8150   32.0270   45.7170 C   0  0  0  0  0  0  0  0  0  0  0  0
   58.9800   33.7410   46.0910 S   0  0  0  0  0  0  0  0  0  0  0  0
   60.1320   34.3250   45.3170 O   0  0  0  0  0  0  0  0  0  0  0  0
   57.7210   34.4500   45.6790 O   0  0  0  0  0  0  0  0  0  0  0  0
   59.2390   33.9480   47.8040 N   0  0  0  0  0  0  0  0  0  0  0  0
   58.6340   32.8270   48.5460 C   0  0  0  0  0  0  0  0  0  0  0  0
   59.1020   32.8210   50.0150 C   0  0  0  0  0  0  0  0  0  0  0  0
   59.7210   34.0450   50.3540 O   0  0  0  0  0  0  0  0  0  0  0  0
   60.9130   34.2030   49.6020 C   0  0  0  0  0  0  0  0  0  0  0  0
   60.6800   34.0270   48.0860 C   0  0  0  0  0  0  0  0  0  0  0  0
   59.7620   31.1070   46.1790 C   0  0  0  0  0  0  0  0  0  0  0  0
   59.6150   29.7490   45.8930 C   0  0  0  0  0  0  0  0  0  0  0  0
   58.5270   29.2910   45.1410 C   0  0  0  0  0  0  0  0  0  0  0  0
   58.4740   27.8970   44.8160 N   0  0  0  0  0  0  0  0  0  0  0  0
   58.7770   26.8470   45.7420 C   0  0  0  0  0  0  0  0  0  0  0  0
   59.9400   26.3630   45.8020 O   0  0  0  0  0  0  0  0  0  0  0  0
   57.7240   26.3730   46.6900 C   0  0  0  0  0  0  0  0  0  0  0  0
   56.9200   25.2670   46.0580 C   0  0  0  0  0  0  0  0  0  0  0  0
   57.5420   24.0450   45.7470 C   0  0  0  0  0  0  0  0  0  0  0  0
   56.8200   23.0200   45.1310 C   0  0  0  0  0  0  0  0  0  0  0  0
   55.4740   23.2080   44.8100 C   0  0  0  0  0  0  0  0  0  0  0  0
   54.8480   24.4220   45.1000 C   0  0  0  0  0  0  0  0  0  0  0  0
   55.5660   25.4580   45.7170 C   0  0  0  0  0  0  0  0  0  0  0  0
   54.9380   26.6740   45.9900 O   0  0  0  0  0  0  0  0  0  0  0  0
  1  2  1  0
  2  3  2  0
  2  4  1  0
  4  5  2  0
  5  6  1  0
  6  7  1  0
  7  8  2  0
  7  9  2  0
  7 10  1  0
 10 11  1  0
 11 12  1  0
 12 13  1  0
 13 14  1  0
 14 15  1  0
  6 16  2  0
 16 17  1  0
 17 18  2  0
 18 19  1  0
 19 20  1  0
 20 21  2  0
 20 22  1  0
 22 23  1  0
 23 24  2  0
 24 25  1  0
 25 26  2  0
 26 27  1  0
 27 28  2  0
 28 29  1  0
 18  4  1  0
 28 23  1  0
 15 10  1  0
M  CHG  2   1  -1  19  -1
M  END
>  <UniqueID>  (2293) 
74

>  <SMILES>  (2293) 
[NH-]C(=O)c1cc(S(=O)(=O)N2CCOCC2)ccc1[N-]C(=O)Cc1ccccc1O

>  <Energy>  (2293) 
64.11622251529323

>  <Genealogy>  (2293) 
[NH-]C(=O)c1cc(S(=O)(=O)N2CCOCC2)ccc1[N-]C(=O)Cc1ccccc1O (protonated)
[NH-]C(=O)c1cc(S(=O)(=O)N2CCOCC2)ccc1[N-]C(=O)Cc1ccccc1O (3D coordinates assigned)
[NH-]C(=O)c1cc(S(=O)(=O)N2CCOCC2)ccc1[N-]C(=O)Cc1ccccc1O (nonaromatic ring conformer: 64.11622251529323 kcal/mol)

>  <smiles>  (2293) 
NC(=O)c1cc(S(=O)(=O)N2CCOCC2)ccc1NC(=O)Cc1ccccc1O

>  <score_type>  (2293) 
oracle

>  <origin>  (2293) 
adg

>  <m_score__min__energy>  (2293) 
-14.32

>  <m_primary>  (2293) 
energy

$$$$
2:0
     RDKit          3D

 29 32  0  0  0  0  0  0  0  0999 V2000
   58.1300   26.9800   42.7860 C   0  0  0  0  0  0  0  0  0  0  0  0
   58.1150   27.7830   43.8550 C   0  0  0  0  0  0  0  0  0  0  0  0
   58.0800   29.1260   43.7350 N   0  0  0  0  0  0  0  0  0  0  0  0
   57.8950   29.6360   44.9680 C   0  0  0  0  0  0  0  0  0  0  0  0
   57.7560   31.0850   45.2380 C   0  0  0  0  0  0  0  0  0  0  0  0
   56.6580   31.6440   44.9580 O   0  0  0  0  0  0  0  0  0  0  0  0
   58.8140   31.8380   45.8830 N   0  0  0  0  0  0  0  0  0  0  0  0
   58.8200   33.2570   45.4420 C   0  0  0  0  0  0  0  0  0  0  0  0
   59.6240   34.1740   46.3920 C   0  0  0  0  0  0  0  0  0  0  0  0
   60.5170   33.3860   47.2470 N   0  0  0  0  0  0  0  0  0  0  0  0
   61.9460   33.5280   47.1320 C   0  0  0  0  0  0  0  0  0  0  0  0
   62.4550   33.8000   46.0120 O   0  0  0  0  0  0  0  0  0  0  0  0
   62.8400   33.3540   48.2940 C   0  0  0  0  0  0  0  0  0  0  0  0
   62.5310   33.6240   49.6150 C   0  0  0  0  0  0  0  0  0  0  0  0
   63.6730   33.3570   50.3430 C   0  0  0  0  0  0  0  0  0  0  0  0
   64.6310   32.9460   49.4380 C   0  0  0  0  0  0  0  0  0  0  0  0
   64.1220   32.9520   48.1940 N   0  0  0  0  0  0  0  0  0  0  0  0
   59.9330   32.2950   48.0420 C   0  0  0  0  0  0  0  0  0  0  0  0
   58.6820   31.7280   47.3490 C   0  0  0  0  0  0  0  0  0  0  0  0
   57.8120   28.6140   45.8980 C   0  0  0  0  0  0  0  0  0  0  0  0
   57.9900   27.4260   45.2060 C   0  0  0  0  0  0  0  0  0  0  0  0
   58.0190   26.2230   45.8080 C   0  0  0  0  0  0  0  0  0  0  0  0
   56.9630   25.2030   45.7300 C   0  0  0  0  0  0  0  0  0  0  0  0
   57.2080   23.5330   45.7210 S   0  0  0  0  0  0  0  0  0  0  0  0
   55.5650   23.2080   45.8590 C   0  0  0  0  0  0  0  0  0  0  0  0
   55.0710   22.0510   45.8910 O   0  0  0  0  0  0  0  0  0  0  0  0
   54.8190   24.3290   45.9490 N   0  0  0  0  0  0  0  0  0  0  0  0
   55.6010   25.4400   45.8960 C   0  0  0  0  0  0  0  0  0  0  0  0
   55.0630   26.7160   46.0040 O   0  0  0  0  0  0  0  0  0  0  0  0
  1  2  2  0
  2  3  1  0
  3  4  1  0
  4  5  1  0
  5  6  2  0
  5  7  1  0
  7  8  1  0
  8  9  1  0
  9 10  1  0
 10 11  1  0
 11 12  2  0
 11 13  1  0
 13 14  2  0
 14 15  1  0
 15 16  2  0
 16 17  1  0
 10 18  1  0
 18 19  1  0
  4 20  2  0
 20 21  1  0
 21 22  2  3
 22 23  1  0
 23 24  1  0
 24 25  1  0
 25 26  2  0
 25 27  1  0
 27 28  1  0
 28 29  1  0
 21  2  1  0
 28 23  2  0
 19  7  1  0
 17 13  1  0
M  CHG  3   7   1  27  -1  29  -1
M  END
>  <UniqueID>  (2294) 
2

>  <SMILES>  (2294) 
C=c1[nH]c(C(=O)[NH+]2CCN(C(=O)c3ccc[nH]3)CC2)cc1=Cc1sc(=O)[n-]c1[O-]

>  <Energy>  (2294) 
157.41320913533193

>  <Genealogy>  (2294) 
C=c1[nH]c(C(=O)[NH+]2CCN(C(=O)c3ccc[nH]3)CC2)cc1=Cc1sc(=O)[n-]c1[O-] (protonated)
C=c1[nH]c(C(=O)[NH+]2CCN(C(=O)c3ccc[nH]3)CC2)cc1=Cc1sc(=O)[n-]c1[O-] (3D coordinates assigned)
C=c1[nH]c(C(=O)[NH+]2CCN(C(=O)c3ccc[nH]3)CC2)cc1=Cc1sc(=O)[n-]c1[O-] (nonaromatic ring conformer: 157.41320913533193 kcal/mol)

>  <smiles>  (2294) 
C=c1[nH]c(C(=O)N2CCN(C(=O)c3ccc[nH]3)CC2)cc1=Cc1sc(=O)[nH]c1O

>  <score_type>  (2294) 
oracle

>  <origin>  (2294) 
adg

>  <m_score__min__energy>  (2294) 
-14.56

>  <m_primary>  (2294) 
energy

$$$$
8:0
     RDKit          3D

 23 25  0  0  0  0  0  0  0  0999 V2000
   62.1120   32.4710   49.1050 C   0  0  0  0  0  0  0  0  0  0  0  0
   61.0700   33.0960   48.4950 N   0  0  0  0  0  0  0  0  0  0  0  0
   61.1870   33.6290   47.2480 C   0  0  0  0  0  0  0  0  0  0  0  0
   59.7830   34.4470   46.4970 S   0  0  0  0  0  0  0  0  0  0  0  0
   58.9360   32.9000   46.1990 C   0  0  0  0  0  0  0  0  0  0  0  0
   59.5780   31.3730   46.4960 S   0  0  0  0  0  0  0  0  0  0  0  0
   58.1800   30.6030   45.9660 C   0  0  0  0  0  0  0  0  0  0  0  0
   58.0410   29.3110   45.9480 N   0  0  0  0  0  0  0  0  0  0  0  0
   57.0150   28.5790   45.2590 C   0  0  0  0  0  0  0  0  0  0  0  0
   55.8320   29.0110   45.2000 O   0  0  0  0  0  0  0  0  0  0  0  0
   57.3690   27.3070   44.5600 C   0  0  0  0  0  0  0  0  0  0  0  0
   57.0830   26.1390   45.4500 C   0  0  0  0  0  0  0  0  0  0  0  0
   57.9830   25.1910   45.7660 N   0  0  0  0  0  0  0  0  0  0  0  0
   57.3090   24.3980   46.6260 C   0  0  0  0  0  0  0  0  0  0  0  0
   57.8230   23.3750   47.1500 O   0  0  0  0  0  0  0  0  0  0  0  0
   56.0420   24.7870   46.8860 N   0  0  0  0  0  0  0  0  0  0  0  0
   55.9170   25.8950   46.1370 C   0  0  0  0  0  0  0  0  0  0  0  0
   54.7670   26.6710   46.0880 O   0  0  0  0  0  0  0  0  0  0  0  0
   57.2290   31.4780   45.5650 N   0  0  0  0  0  0  0  0  0  0  0  0
   57.6510   32.7630   45.6940 C   0  0  0  0  0  0  0  0  0  0  0  0
   62.4020   33.5360   46.5600 C   0  0  0  0  0  0  0  0  0  0  0  0
   63.4840   32.8980   47.1700 C   0  0  0  0  0  0  0  0  0  0  0  0
   63.3420   32.3610   48.4510 C   0  0  0  0  0  0  0  0  0  0  0  0
  1  2  2  0
  2  3  1  0
  3  4  1  0
  4  5  1  0
  5  6  1  0
  6  7  1  0
  7  8  2  0
  8  9  1  0
  9 10  2  0
  9 11  1  0
 11 12  1  0
 12 13  1  0
 13 14  1  0
 14 15  2  0
 14 16  1  0
 16 17  1  0
 17 18  1  0
  7 19  1  0
 19 20  1  0
  3 21  2  0
 21 22  1  0
 22 23  2  0
 23  1  1  0
 20  5  2  0
 17 12  2  0
M  CHG  4  13  -1  16  -1  18  -1  19  -1
M  END
>  <UniqueID>  (2295) 
8

>  <SMILES>  (2295) 
O=C(Cc1[n-]c(=O)[n-]c1[O-])/N=c1\[n-]cc(Sc2ccccn2)s1

>  <Energy>  (2295) 
88.57993214729758

>  <Genealogy>  (2295) 
O=C(Cc1[n-]c(=O)[n-]c1[O-])N=c1[n-]cc(Sc2ccccn2)s1 (protonated)
O=C(Cc1[n-]c(=O)[n-]c1[O-])/N=c1\[n-]cc(Sc2ccccn2)s1 (cis-trans isomerization)
O=C(Cc1[n-]c(=O)[n-]c1[O-])/N=c1\[n-]cc(Sc2ccccn2)s1 (3D coordinates assigned)
O=C(Cc1[n-]c(=O)[n-]c1[O-])/N=c1\[n-]cc(Sc2ccccn2)s1 (optimized conformer: 88.57993214729758 kcal/mol)

>  <smiles>  (2295) 
O=C(Cc1[nH]c(=O)[nH]c1O)N=c1[nH]cc(Sc2ccccn2)s1

>  <score_type>  (2295) 
oracle

>  <origin>  (2295) 
adg

>  <m_score__min__energy>  (2295) 
-17.920000000000002

>  <m_primary>  (2295) 
energy

$$$$
20:0
     RDKit          3D

 28 31  0  0  0  0  0  0  0  0999 V2000
   59.6680   29.0680   46.5470 C   0  0  0  0  0  0  0  0  0  0  0  0
   58.6190   29.0930   45.7090 C   0  0  0  0  0  0  0  0  0  0  0  0
   57.8950   27.9910   45.2240 C   0  0  0  0  0  0  0  0  0  0  0  0
   58.1480   26.6690   45.2860 C   0  0  0  0  0  0  0  0  0  0  0  0
   57.3820   25.6840   46.0640 C   0  0  0  0  0  0  0  0  0  0  0  0
   57.9430   24.6520   46.7160 N   0  0  0  0  0  0  0  0  0  0  0  0
   56.9070   24.1020   47.3850 C   0  0  0  0  0  0  0  0  0  0  0  0
   57.0330   23.0830   48.1110 O   0  0  0  0  0  0  0  0  0  0  0  0
   55.7270   24.7390   47.2240 N   0  0  0  0  0  0  0  0  0  0  0  0
   56.0470   25.7480   46.3980 C   0  0  0  0  0  0  0  0  0  0  0  0
   55.1450   26.7190   45.9810 O   0  0  0  0  0  0  0  0  0  0  0  0
   56.7710   28.5090   44.6030 C   0  0  0  0  0  0  0  0  0  0  0  0
   56.8780   29.8830   44.6630 C   0  0  0  0  0  0  0  0  0  0  0  0
   55.8740   30.8390   44.0900 C   0  0  0  0  0  0  0  0  0  0  0  0
   57.9960   30.2400   45.3340 N   0  0  0  0  0  0  0  0  0  0  0  0
   58.4130   31.5880   45.6150 C   0  0  0  0  0  0  0  0  0  0  0  0
   58.2220   32.5950   44.6620 C   0  0  0  0  0  0  0  0  0  0  0  0
   58.6240   33.9040   44.9310 C   0  0  0  0  0  0  0  0  0  0  0  0
   59.2260   34.2300   46.1580 C   0  0  0  0  0  0  0  0  0  0  0  0
   59.6840   35.6480   46.3840 C   0  0  0  0  0  0  0  0  0  0  0  0
   59.3860   33.2230   47.1410 C   0  0  0  0  0  0  0  0  0  0  0  0
   59.9580   33.5010   48.4760 C   0  0  0  0  0  0  0  0  0  0  0  0
   59.3060   34.2300   49.2770 O   0  0  0  0  0  0  0  0  0  0  0  0
   61.2640   32.9940   48.8360 N   0  0  0  0  0  0  0  0  0  0  0  0
   62.2290   34.0480   49.1800 C   0  0  0  0  0  0  0  0  0  0  0  0
   63.1200   33.7220   47.9930 C   0  0  0  0  0  0  0  0  0  0  0  0
   62.0980   32.6420   47.6780 C   0  0  0  0  0  0  0  0  0  0  0  0
   58.9970   31.9050   46.8480 C   0  0  0  0  0  0  0  0  0  0  0  0
  1  2  2  0
  2  3  1  0
  3  4  2  3
  4  5  1  0
  5  6  1  0
  6  7  1  0
  7  8  2  0
  7  9  1  0
  9 10  1  0
 10 11  1  0
  3 12  1  0
 12 13  2  0
 13 14  1  0
 13 15  1  0
 15 16  1  0
 16 17  2  0
 17 18  1  0
 18 19  2  0
 19 20  1  0
 19 21  1  0
 21 22  1  0
 22 23  2  0
 22 24  1  0
 24 25  1  0
 25 26  1  0
 26 27  1  0
 21 28  2  0
 15  2  1  0
 28 16  1  0
 10  5  2  0
 27 24  1  0
M  CHG  4   6  -1   9  -1  11  -1  24   1
M  END
>  <UniqueID>  (2296) 
19

>  <SMILES>  (2296) 
C=c1c(=Cc2[n-]c(=O)[n-]c2[O-])cc(C)n1-c1ccc(C)c(C(=O)[NH+]2CCC2)c1

>  <Energy>  (2296) 
205.9853757021666

>  <Genealogy>  (2296) 
C=c1c(=Cc2[n-]c(=O)[n-]c2[O-])cc(C)n1-c1ccc(C)c(C(=O)[NH+]2CCC2)c1 (protonated)
C=c1c(=Cc2[n-]c(=O)[n-]c2[O-])cc(C)n1-c1ccc(C)c(C(=O)[NH+]2CCC2)c1 (3D coordinates assigned)
C=c1c(=Cc2[n-]c(=O)[n-]c2[O-])cc(C)n1-c1ccc(C)c(C(=O)[NH+]2CCC2)c1 (nonaromatic ring conformer: 205.9853757021666 kcal/mol)

>  <smiles>  (2296) 
C=c1c(=Cc2[nH]c(=O)[nH]c2O)cc(C)n1-c1ccc(C)c(C(=O)N2CCC2)c1

>  <score_type>  (2296) 
oracle

>  <origin>  (2296) 
adg

>  <m_score__min__energy>  (2296) 
-15.029999999999999

>  <m_primary>  (2296) 
energy

$$$$
44:0
     RDKit          3D

 34 37  0  0  0  0  0  0  0  0999 V2000
   58.1530   30.3080   44.5820 C   0  0  0  0  0  0  0  0  0  0  0  0
   58.5520   29.7680   45.7440 C   0  0  0  0  0  0  0  0  0  0  0  0
   58.3000   28.4650   46.2040 C   0  0  0  0  0  0  0  0  0  0  0  0
   57.7930   27.3870   45.5750 C   0  0  0  0  0  0  0  0  0  0  0  0
   57.2150   26.2050   46.2310 C   0  0  0  0  0  0  0  0  0  0  0  0
   57.9420   25.1500   46.6380 N   0  0  0  0  0  0  0  0  0  0  0  0
   57.0080   24.2680   47.0550 C   0  0  0  0  0  0  0  0  0  0  0  0
   57.3040   23.1400   47.5290 O   0  0  0  0  0  0  0  0  0  0  0  0
   55.7310   24.6830   46.9110 N   0  0  0  0  0  0  0  0  0  0  0  0
   55.8790   25.9050   46.3740 C   0  0  0  0  0  0  0  0  0  0  0  0
   54.8150   26.7160   45.9940 O   0  0  0  0  0  0  0  0  0  0  0  0
   58.6900   28.4410   47.5340 C   0  0  0  0  0  0  0  0  0  0  0  0
   59.2190   29.6810   47.8190 C   0  0  0  0  0  0  0  0  0  0  0  0
   59.7720   30.0830   49.1530 C   0  0  0  0  0  0  0  0  0  0  0  0
   59.1370   30.4890   46.7370 N   0  0  0  0  0  0  0  0  0  0  0  0
   59.5500   31.8660   46.6840 C   0  0  0  0  0  0  0  0  0  0  0  0
   58.5930   32.8820   46.5640 C   0  0  0  0  0  0  0  0  0  0  0  0
   58.9920   34.2190   46.5070 C   0  0  0  0  0  0  0  0  0  0  0  0
   60.3480   34.5520   46.5680 C   0  0  0  0  0  0  0  0  0  0  0  0
   61.3230   33.5450   46.6870 C   0  0  0  0  0  0  0  0  0  0  0  0
   62.7620   33.8920   46.7480 C   0  0  0  0  0  0  0  0  0  0  0  0
   63.4510   33.9200   45.6920 O   0  0  0  0  0  0  0  0  0  0  0  0
   63.3780   34.1950   48.0030 N   0  0  0  0  0  0  0  0  0  0  0  0
   63.4510   33.0570   49.3040 S   0  0  0  0  0  0  0  0  0  0  0  0
   63.7640   31.6930   48.7560 O   0  0  0  0  0  0  0  0  0  0  0  0
   64.5440   33.4510   50.2580 O   0  0  0  0  0  0  0  0  0  0  0  0
   61.8950   33.0070   50.1280 C   0  0  0  0  0  0  0  0  0  0  0  0
   61.6670   32.0930   51.1670 C   0  0  0  0  0  0  0  0  0  0  0  0
   60.4360   32.0740   51.8290 C   0  0  0  0  0  0  0  0  0  0  0  0
   59.4260   32.9710   51.4580 C   0  0  0  0  0  0  0  0  0  0  0  0
   57.8840   32.9500   52.2930 Cl  0  0  0  0  0  0  0  0  0  0  0  0
   59.6520   33.8870   50.4260 C   0  0  0  0  0  0  0  0  0  0  0  0
   60.8840   33.9070   49.7630 C   0  0  0  0  0  0  0  0  0  0  0  0
   60.9110   32.2010   46.7470 C   0  0  0  0  0  0  0  0  0  0  0  0
  1  2  2  0
  2  3  1  0
  3  4  2  3
  4  5  1  0
  5  6  1  0
  6  7  1  0
  7  8  2  0
  7  9  1  0
  9 10  1  0
 10 11  1  0
  3 12  1  0
 12 13  2  0
 13 14  1  0
 13 15  1  0
 15 16  1  0
 16 17  2  0
 17 18  1  0
 18 19  2  0
 19 20  1  0
 20 21  1  0
 21 22  2  0
 21 23  1  0
 23 24  1  0
 24 25  2  0
 24 26  2  0
 24 27  1  0
 27 28  2  0
 28 29  1  0
 29 30  2  0
 30 31  1  0
 30 32  1  0
 32 33  2  0
 20 34  2  0
 15  2  1  0
 34 16  1  0
 10  5  2  0
 33 27  1  0
M  CHG  4   6  -1   9  -1  11  -1  23  -1
M  END
>  <UniqueID>  (2297) 
42

>  <SMILES>  (2297) 
C=c1c(=Cc2[n-]c(=O)[n-]c2[O-])cc(C)n1-c1cccc(C(=O)[N-]S(=O)(=O)c2ccc(Cl)cc2)c1

>  <Energy>  (2297) 
131.81622066116608

>  <Genealogy>  (2297) 
C=c1c(=Cc2[n-]c(=O)[n-]c2[O-])cc(C)n1-c1cccc(C(=O)[N-]S(=O)(=O)c2ccc(Cl)cc2)c1 (protonated)
C=c1c(=Cc2[n-]c(=O)[n-]c2[O-])cc(C)n1-c1cccc(C(=O)[N-]S(=O)(=O)c2ccc(Cl)cc2)c1 (3D coordinates assigned)
C=c1c(=Cc2[n-]c(=O)[n-]c2[O-])cc(C)n1-c1cccc(C(=O)[N-]S(=O)(=O)c2ccc(Cl)cc2)c1 (optimized conformer: 131.81622066116608 kcal/mol)

>  <smiles>  (2297) 
C=c1c(=Cc2[nH]c(=O)[nH]c2O)cc(C)n1-c1cccc(C(=O)NS(=O)(=O)c2ccc(Cl)cc2)c1

>  <score_type>  (2297) 
oracle

>  <origin>  (2297) 
adg

>  <m_score__min__energy>  (2297) 
-18.98

>  <m_primary>  (2297) 
energy

$$$$
49:0
     RDKit          3D

 32 35  0  0  0  0  0  0  0  0999 V2000
   59.1100   32.2040   45.3450 C   0  0  0  0  0  0  0  0  0  0  0  0
   59.1400   31.4100   46.4290 C   0  0  0  0  0  0  0  0  0  0  0  0
   58.6400   30.0980   46.5210 C   0  0  0  0  0  0  0  0  0  0  0  0
   58.1610   29.2590   45.5810 C   0  0  0  0  0  0  0  0  0  0  0  0
   57.4430   27.9950   45.8380 C   0  0  0  0  0  0  0  0  0  0  0  0
   56.0630   27.8790   45.5990 C   0  0  0  0  0  0  0  0  0  0  0  0
   55.3270   28.9690   45.1460 O   0  0  0  0  0  0  0  0  0  0  0  0
   55.4370   26.6920   45.8050 N   0  0  0  0  0  0  0  0  0  0  0  0
   56.1260   25.6000   46.2240 C   0  0  0  0  0  0  0  0  0  0  0  0
   55.5250   24.5110   46.4110 O   0  0  0  0  0  0  0  0  0  0  0  0
   57.4650   25.6800   46.4340 N   0  0  0  0  0  0  0  0  0  0  0  0
   58.1370   26.8450   46.2440 C   0  0  0  0  0  0  0  0  0  0  0  0
   59.3800   26.8820   46.4430 O   0  0  0  0  0  0  0  0  0  0  0  0
   58.7290   29.7430   47.8540 C   0  0  0  0  0  0  0  0  0  0  0  0
   59.3220   30.7970   48.5130 C   0  0  0  0  0  0  0  0  0  0  0  0
   59.5750   30.8290   49.9910 C   0  0  0  0  0  0  0  0  0  0  0  0
   59.5780   31.8140   47.6550 N   0  0  0  0  0  0  0  0  0  0  0  0
   60.1520   33.1160   48.0360 C   0  0  0  0  0  0  0  0  0  0  0  0
   61.5430   32.9470   48.5920 C   0  0  0  0  0  0  0  0  0  0  0  0
   61.8400   33.3320   49.9050 C   0  0  0  0  0  0  0  0  0  0  0  0
   63.1330   33.1800   50.4040 C   0  0  0  0  0  0  0  0  0  0  0  0
   64.1300   32.6250   49.5900 C   0  0  0  0  0  0  0  0  0  0  0  0
   65.5120   32.4710   50.0940 C   0  0  0  0  0  0  0  0  0  0  0  0
   66.4450   33.0870   49.5110 O   0  0  0  0  0  0  0  0  0  0  0  0
   65.8150   31.6190   51.2160 N   0  0  0  0  0  0  0  0  0  0  0  0
   66.9060   31.9610   52.1340 C   0  0  0  0  0  0  0  0  0  0  0  0
   67.9700   30.8450   52.1540 C   0  0  0  0  0  0  0  0  0  0  0  0
   67.4360   29.5020   51.8470 N   0  0  0  0  0  0  0  0  0  0  0  0
   66.0170   29.3610   52.1990 C   0  0  0  0  0  0  0  0  0  0  0  0
   65.1590   30.3110   51.3510 C   0  0  0  0  0  0  0  0  0  0  0  0
   63.8270   32.2690   48.3070 N   0  0  0  0  0  0  0  0  0  0  0  0
   62.5710   32.4100   47.8030 C   0  0  0  0  0  0  0  0  0  0  0  0
  1  2  2  0
  2  3  1  0
  3  4  2  3
  4  5  1  0
  5  6  2  0
  6  7  1  0
  6  8  1  0
  8  9  1  0
  9 10  2  0
  9 11  1  0
 11 12  1  0
 12 13  2  0
  3 14  1  0
 14 15  2  0
 15 16  1  0
 15 17  1  0
 17 18  1  0
 18 19  1  0
 19 20  2  0
 20 21  1  0
 21 22  2  0
 22 23  1  0
 23 24  2  0
 23 25  1  0
 25 26  1  0
 26 27  1  0
 27 28  1  0
 28 29  1  0
 29 30  1  0
 22 31  1  0
 31 32  2  0
 17  2  1  0
 32 19  1  0
 12  5  1  0
 30 25  1  0
M  CHG  4   7  -1   8  -1  11  -1  31   1
M  END
>  <UniqueID>  (2298) 
47

>  <SMILES>  (2298) 
C=c1c(=Cc2c([O-])[n-]c(=O)[n-]c2=O)cc(C)n1Cc1ccc(C(=O)N2CCNCC2)[nH+]c1

>  <Energy>  (2298) 
109.94050918202423

>  <Genealogy>  (2298) 
C=c1c(=Cc2c([O-])[n-]c(=O)[n-]c2=O)cc(C)n1Cc1ccc(C(=O)N2CCNCC2)[nH+]c1 (protonated)
C=c1c(=Cc2c([O-])[n-]c(=O)[n-]c2=O)cc(C)n1Cc1ccc(C(=O)N2CCNCC2)[nH+]c1 (3D coordinates assigned)
C=c1c(=Cc2c([O-])[n-]c(=O)[n-]c2=O)cc(C)n1Cc1ccc(C(=O)N2CCNCC2)[nH+]c1 (nonaromatic ring conformer: 109.94050918202423 kcal/mol)

>  <smiles>  (2298) 
C=c1c(=Cc2c(O)[nH]c(=O)[nH]c2=O)cc(C)n1Cc1ccc(C(=O)N2CCNCC2)nc1

>  <score_type>  (2298) 
oracle

>  <origin>  (2298) 
adg

>  <m_score__min__energy>  (2298) 
-14.869999999999999

>  <m_primary>  (2298) 
energy

$$$$
50:0
     RDKit          3D

 34 37  0  0  0  0  0  0  0  0999 V2000
   58.9650   34.9930   44.8920 C   0  0  0  0  0  0  0  0  0  0  0  0
   57.9720   34.0570   44.5910 C   0  0  0  0  0  0  0  0  0  0  0  0
   57.6780   33.0310   45.4970 C   0  0  0  0  0  0  0  0  0  0  0  0
   56.6550   32.0820   45.2050 N   0  0  0  0  0  0  0  0  0  0  0  0
   56.9220   30.8040   44.0710 S   0  0  0  0  0  0  0  0  0  0  0  0
   55.6010   30.3680   43.5010 O   0  0  0  0  0  0  0  0  0  0  0  0
   57.7980   31.2770   42.9450 O   0  0  0  0  0  0  0  0  0  0  0  0
   57.6940   29.4690   44.9170 C   0  0  0  0  0  0  0  0  0  0  0  0
   57.8930   28.2390   44.2750 C   0  0  0  0  0  0  0  0  0  0  0  0
   58.4270   27.1570   44.9790 C   0  0  0  0  0  0  0  0  0  0  0  0
   58.7610   27.2890   46.3370 C   0  0  0  0  0  0  0  0  0  0  0  0
   59.2610   26.1020   47.1200 C   0  0  0  0  0  0  0  0  0  0  0  0
   58.1640   25.1840   47.4290 N   0  0  0  0  0  0  0  0  0  0  0  0
   57.2410   24.8120   46.5910 C   0  0  0  0  0  0  0  0  0  0  0  0
   57.4340   23.7500   45.7590 N   0  0  0  0  0  0  0  0  0  0  0  0
   56.4860   23.3750   44.8610 C   0  0  0  0  0  0  0  0  0  0  0  0
   56.7380   22.2140   43.9520 C   0  0  0  0  0  0  0  0  0  0  0  0
   55.2840   24.0850   44.7880 C   0  0  0  0  0  0  0  0  0  0  0  0
   55.0960   25.1640   45.6530 C   0  0  0  0  0  0  0  0  0  0  0  0
   54.0260   25.8250   45.6190 O   0  0  0  0  0  0  0  0  0  0  0  0
   56.0730   25.5040   46.5350 N   0  0  0  0  0  0  0  0  0  0  0  0
   58.5720   28.5250   46.9740 C   0  0  0  0  0  0  0  0  0  0  0  0
   58.0390   29.6070   46.2680 C   0  0  0  0  0  0  0  0  0  0  0  0
   58.3890   32.9350   46.6980 C   0  0  0  0  0  0  0  0  0  0  0  0
   59.4090   33.8550   46.9940 C   0  0  0  0  0  0  0  0  0  0  0  0
   60.1860   33.7390   48.2460 C   0  0  0  0  0  0  0  0  0  0  0  0
   59.7330   34.2740   49.2950 O   0  0  0  0  0  0  0  0  0  0  0  0
   61.4480   33.0420   48.2880 N   0  0  0  0  0  0  0  0  0  0  0  0
   61.9300   32.4140   49.5220 C   0  0  0  0  0  0  0  0  0  0  0  0
   63.3500   32.9120   49.8130 C   0  0  0  0  0  0  0  0  0  0  0  0
   64.1970   32.7030   48.6970 O   0  0  0  0  0  0  0  0  0  0  0  0
   63.7500   33.4710   47.5940 C   0  0  0  0  0  0  0  0  0  0  0  0
   62.3580   33.0200   47.1380 C   0  0  0  0  0  0  0  0  0  0  0  0
   59.6770   34.8980   46.0910 C   0  0  0  0  0  0  0  0  0  0  0  0
  1  2  2  0
  2  3  1  0
  3  4  1  0
  4  5  1  0
  5  6  2  0
  5  7  2  0
  5  8  1  0
  8  9  2  0
  9 10  1  0
 10 11  2  0
 11 12  1  0
 12 13  1  0
 13 14  2  0
 14 15  1  0
 15 16  1  0
 16 17  1  0
 16 18  2  0
 18 19  1  0
 19 20  2  0
 19 21  1  0
 11 22  1  0
 22 23  2  0
  3 24  2  0
 24 25  1  0
 25 26  1  0
 26 27  2  0
 26 28  1  0
 28 29  1  0
 29 30  1  0
 30 31  1  0
 31 32  1  0
 32 33  1  0
 25 34  2  0
 34  1  1  0
 23  8  1  0
 33 28  1  0
 21 14  1  0
M  CHG  3   4  -1  15  -1  21  -1
M  END
>  <UniqueID>  (2299) 
48

>  <SMILES>  (2299) 
Cc1cc(=O)[n-]/c(=N/Cc2ccc(S(=O)(=O)[N-]c3cccc(C(=O)N4CCOCC4)c3)cc2)[n-]1

>  <Energy>  (2299) 
68.368658081748

>  <Genealogy>  (2299) 
Cc1cc(=O)[n-]c(=NCc2ccc(S(=O)(=O)[N-]c3cccc(C(=O)N4CCOCC4)c3)cc2)[n-]1 (protonated)
Cc1cc(=O)[n-]/c(=N/Cc2ccc(S(=O)(=O)[N-]c3cccc(C(=O)N4CCOCC4)c3)cc2)[n-]1 (cis-trans isomerization)
Cc1cc(=O)[n-]/c(=N/Cc2ccc(S(=O)(=O)[N-]c3cccc(C(=O)N4CCOCC4)c3)cc2)[n-]1 (3D coordinates assigned)
Cc1cc(=O)[n-]/c(=N/Cc2ccc(S(=O)(=O)[N-]c3cccc(C(=O)N4CCOCC4)c3)cc2)[n-]1 (nonaromatic ring conformer: 68.368658081748 kcal/mol)

>  <smiles>  (2299) 
Cc1cc(=O)[nH]c(=NCc2ccc(S(=O)(=O)Nc3cccc(C(=O)N4CCOCC4)c3)cc2)[nH]1

>  <score_type>  (2299) 
oracle

>  <origin>  (2299) 
adg

>  <m_score__min__energy>  (2299) 
-14.99

>  <m_primary>  (2299) 
energy

$$$$
76:0
     RDKit          3D

 25 27  0  0  0  0  0  0  0  0999 V2000
   64.2900   33.6460   47.8570 O   0  0  0  0  0  0  0  0  0  0  0  0
   62.9150   33.6230   48.0780 C   0  0  0  0  0  0  0  0  0  0  0  0
   62.3470   34.3550   49.1300 C   0  0  0  0  0  0  0  0  0  0  0  0
   60.9660   34.3230   49.3390 C   0  0  0  0  0  0  0  0  0  0  0  0
   60.1470   33.5610   48.5010 C   0  0  0  0  0  0  0  0  0  0  0  0
   60.7070   32.8260   47.4450 C   0  0  0  0  0  0  0  0  0  0  0  0
   59.8680   32.0390   46.5830 N   0  0  0  0  0  0  0  0  0  0  0  0
   58.8310   32.4910   45.8400 C   0  0  0  0  0  0  0  0  0  0  0  0
   58.3570   33.9120   45.8030 C   0  0  0  0  0  0  0  0  0  0  0  0
   58.2740   31.4570   45.1120 C   0  0  0  0  0  0  0  0  0  0  0  0
   58.9970   30.3260   45.4340 C   0  0  0  0  0  0  0  0  0  0  0  0
   58.8160   29.0000   44.8160 C   0  0  0  0  0  0  0  0  0  0  0  0
   58.1800   27.9340   45.3840 C   0  0  0  0  0  0  0  0  0  0  0  0
   58.9090   26.8280   45.9330 C   0  0  0  0  0  0  0  0  0  0  0  0
   60.2490   26.7570   46.0010 C   0  0  0  0  0  0  0  0  0  0  0  0
   58.2260   25.7780   46.4590 N   0  0  0  0  0  0  0  0  0  0  0  0
   56.8770   25.7330   46.4950 C   0  0  0  0  0  0  0  0  0  0  0  0
   56.3030   24.7320   47.0020 O   0  0  0  0  0  0  0  0  0  0  0  0
   56.1490   26.7580   45.9900 N   0  0  0  0  0  0  0  0  0  0  0  0
   54.7730   26.6930   46.0280 O   0  0  0  0  0  0  0  0  0  0  0  0
   56.7550   27.8400   45.4270 C   0  0  0  0  0  0  0  0  0  0  0  0
   56.0260   28.7370   44.9230 O   0  0  0  0  0  0  0  0  0  0  0  0
   59.9810   30.7120   46.3350 C   0  0  0  0  0  0  0  0  0  0  0  0
   61.0720   29.8340   46.8770 C   0  0  0  0  0  0  0  0  0  0  0  0
   62.0950   32.8600   47.2390 C   0  0  0  0  0  0  0  0  0  0  0  0
  1  2  1  0
  2  3  2  0
  3  4  1  0
  4  5  2  0
  5  6  1  0
  6  7  1  0
  7  8  1  0
  8  9  1  0
  8 10  2  0
 10 11  1  0
 11 12  1  0
 12 13  2  0
 13 14  1  0
 14 15  2  0
 14 16  1  0
 16 17  1  0
 17 18  2  0
 17 19  1  0
 19 20  1  0
 19 21  1  0
 21 22  2  0
 11 23  2  0
 23 24  1  0
  6 25  2  0
 25  2  1  0
 23  7  1  0
 21 13  1  0
M  CHG  2  16  -1  20  -1
M  END
>  <UniqueID>  (2300) 
73

>  <SMILES>  (2300) 
C=c1[n-]c(=O)n([O-])c(=O)/c1=C\c1cc(C)n(-c2cccc(O)c2)c1C

>  <Energy>  (2300) 
95.02887833695844

>  <Genealogy>  (2300) 
C=c1[n-]c(=O)n([O-])c(=O)c1=Cc1cc(C)n(-c2cccc(O)c2)c1C (protonated)
C=c1[n-]c(=O)n([O-])c(=O)/c1=C\c1cc(C)n(-c2cccc(O)c2)c1C (cis-trans isomerization)
C=c1[n-]c(=O)n([O-])c(=O)/c1=C\c1cc(C)n(-c2cccc(O)c2)c1C (3D coordinates assigned)
C=c1[n-]c(=O)n([O-])c(=O)/c1=C\c1cc(C)n(-c2cccc(O)c2)c1C (optimized conformer: 95.02887833695844 kcal/mol)

>  <smiles>  (2300) 
C=c1[nH]c(=O)n(O)c(=O)c1=Cc1cc(C)n(-c2cccc(O)c2)c1C

>  <score_type>  (2300) 
oracle

>  <origin>  (2300) 
adg

>  <m_score__min__energy>  (2300) 
-14.58

>  <m_primary>  (2300) 
energy

$$$$
2:0
     RDKit          3D

 41 45  0  0  0  0  0  0  0  0999 V2000
   57.6770   31.3850   45.3330 C   0  0  0  0  0  0  0  0  0  0  0  0
   58.6290   30.7440   46.0310 C   0  0  0  0  0  0  0  0  0  0  0  0
   58.8820   29.3620   46.0140 C   0  0  0  0  0  0  0  0  0  0  0  0
   58.4050   28.3780   45.2270 C   0  0  0  0  0  0  0  0  0  0  0  0
   57.5170   27.2790   45.6570 C   0  0  0  0  0  0  0  0  0  0  0  0
   56.1190   27.4140   45.6250 C   0  0  0  0  0  0  0  0  0  0  0  0
   55.5280   28.6080   45.2240 O   0  0  0  0  0  0  0  0  0  0  0  0
   55.3300   26.3670   45.9820 N   0  0  0  0  0  0  0  0  0  0  0  0
   55.8680   25.1780   46.3550 C   0  0  0  0  0  0  0  0  0  0  0  0
   55.1180   24.2230   46.6860 O   0  0  0  0  0  0  0  0  0  0  0  0
   57.2170   25.0140   46.3680 N   0  0  0  0  0  0  0  0  0  0  0  0
   58.0500   26.0300   46.0190 C   0  0  0  0  0  0  0  0  0  0  0  0
   59.2950   25.8410   46.0300 O   0  0  0  0  0  0  0  0  0  0  0  0
   59.8100   29.1250   47.0090 C   0  0  0  0  0  0  0  0  0  0  0  0
   60.1440   30.3480   47.5500 C   0  0  0  0  0  0  0  0  0  0  0  0
   61.1460   30.5240   48.6300 C   0  0  0  0  0  0  0  0  0  0  0  0
   61.8710   31.5560   48.6180 O   0  0  0  0  0  0  0  0  0  0  0  0
   61.3090   29.5080   49.6620 N   0  0  0  0  0  0  0  0  0  0  0  0
   61.9620   30.0350   50.8880 C   0  0  0  0  0  0  0  0  0  0  0  0
   60.9690   30.7690   51.8020 C   0  0  0  0  0  0  0  0  0  0  0  0
   59.8090   29.9200   52.1050 N   0  0  0  0  0  0  0  0  0  0  0  0
   58.9110   30.2850   53.1780 C   0  0  0  0  0  0  0  0  0  0  0  0
   59.3990   30.9340   54.3270 C   0  0  0  0  0  0  0  0  0  0  0  0
   58.5360   31.2830   55.3660 C   0  0  0  0  0  0  0  0  0  0  0  0
   57.1750   30.9930   55.2760 C   0  0  0  0  0  0  0  0  0  0  0  0
   56.6580   30.3630   54.1320 C   0  0  0  0  0  0  0  0  0  0  0  0
   55.1930   30.0140   54.0640 C   0  0  0  0  0  0  0  0  0  0  0  0
   55.0340   28.6610   53.8180 F   0  0  0  0  0  0  0  0  0  0  0  0
   54.6000   30.7310   53.0400 F   0  0  0  0  0  0  0  0  0  0  0  0
   54.5530   30.3160   55.2550 F   0  0  0  0  0  0  0  0  0  0  0  0
   57.5370   29.9900   53.0990 C   0  0  0  0  0  0  0  0  0  0  0  0
   59.6680   28.6370   51.4040 C   0  0  0  0  0  0  0  0  0  0  0  0
   60.0130   28.8060   49.9170 C   0  0  0  0  0  0  0  0  0  0  0  0
   59.4340   31.3430   46.9550 N   0  0  0  0  0  0  0  0  0  0  0  0
   59.4240   32.7590   47.3720 C   0  0  0  0  0  0  0  0  0  0  0  0
   59.1740   32.8780   48.8560 C   0  0  0  0  0  0  0  0  0  0  0  0
   58.1440   32.1420   49.4690 C   0  0  0  0  0  0  0  0  0  0  0  0
   57.8980   32.2780   50.8380 C   0  0  0  0  0  0  0  0  0  0  0  0
   58.6840   33.1360   51.6090 C   0  0  0  0  0  0  0  0  0  0  0  0
   59.7190   33.8650   51.0110 C   0  0  0  0  0  0  0  0  0  0  0  0
   59.9590   33.7410   49.6400 C   0  0  0  0  0  0  0  0  0  0  0  0
  1  2  2  0
  2  3  1  0
  3  4  2  0
  4  5  1  0
  5  6  2  0
  6  7  1  0
  6  8  1  0
  8  9  1  0
  9 10  2  0
  9 11  1  0
 11 12  1  0
 12 13  2  0
  3 14  1  0
 14 15  2  0
 15 16  1  0
 16 17  2  0
 16 18  1  0
 18 19  1  0
 19 20  1  0
 20 21  1  0
 21 22  1  0
 22 23  2  0
 23 24  1  0
 24 25  2  0
 25 26  1  0
 26 27  1  0
 27 28  1  0
 27 29  1  0
 27 30  1  0
 26 31  2  0
 21 32  1  0
 32 33  1  0
 15 34  1  0
 34 35  1  0
 35 36  1  0
 36 37  2  0
 37 38  1  0
 38 39  2  0
 39 40  1  0
 40 41  2  0
 34  2  1  0
 41 36  1  0
 12  5  1  0
 33 18  1  0
 31 22  1  0
M  CHG  4   7  -1   8  -1  11  -1  18   1
M  END
>  <UniqueID>  (2301) 
2

>  <SMILES>  (2301) 
C=c1/c(=C\c2c([O-])[n-]c(=O)[n-]c2=O)cc(C(=O)[NH+]2CCN(c3cccc(C(F)(F)F)c3)CC2)n1Cc1ccccc1

>  <Energy>  (2301) 
130.4078658198042

>  <Genealogy>  (2301) 
C=c1c(=Cc2c([O-])[n-]c(=O)[n-]c2=O)cc(C(=O)[NH+]2CCN(c3cccc(C(F)(F)F)c3)CC2)n1Cc1ccccc1 (protonated)
C=c1/c(=C\c2c([O-])[n-]c(=O)[n-]c2=O)cc(C(=O)[NH+]2CCN(c3cccc(C(F)(F)F)c3)CC2)n1Cc1ccccc1 (cis-trans isomerization)
C=c1/c(=C\c2c([O-])[n-]c(=O)[n-]c2=O)cc(C(=O)[NH+]2CCN(c3cccc(C(F)(F)F)c3)CC2)n1Cc1ccccc1 (3D coordinates assigned)
C=c1/c(=C\c2c([O-])[n-]c(=O)[n-]c2=O)cc(C(=O)[NH+]2CCN(c3cccc(C(F)(F)F)c3)CC2)n1Cc1ccccc1 (nonaromatic ring conformer: 130.4078658198042 kcal/mol)

>  <smiles>  (2301) 
C=c1c(=Cc2c(O)[nH]c(=O)[nH]c2=O)cc(C(=O)N2CCN(c3cccc(C(F)(F)F)c3)CC2)n1Cc1ccccc1

>  <score_type>  (2301) 
oracle

>  <origin>  (2301) 
adg

>  <m_score__min__energy>  (2301) 
-15.68

>  <m_primary>  (2301) 
energy

$$$$
13:0
     RDKit          3D

 28 31  0  0  0  0  0  0  0  0999 V2000
   58.6510   25.4750   45.2970 C   0  0  0  0  0  0  0  0  0  0  0  0
   57.3990   25.8650   45.5560 C   0  0  0  0  0  0  0  0  0  0  0  0
   56.3560   25.0260   45.4170 N   0  0  0  0  0  0  0  0  0  0  0  0
   55.2860   25.7930   45.6960 C   0  0  0  0  0  0  0  0  0  0  0  0
   54.1070   25.3530   45.6660 O   0  0  0  0  0  0  0  0  0  0  0  0
   55.5780   27.0700   46.0040 N   0  0  0  0  0  0  0  0  0  0  0  0
   56.9230   27.1270   45.9310 C   0  0  0  0  0  0  0  0  0  0  0  0
   57.5840   28.2670   46.1980 C   0  0  0  0  0  0  0  0  0  0  0  0
   57.2380   29.5890   45.6620 C   0  0  0  0  0  0  0  0  0  0  0  0
   56.1310   29.8480   44.8680 C   0  0  0  0  0  0  0  0  0  0  0  0
   55.1420   28.9210   44.5640 O   0  0  0  0  0  0  0  0  0  0  0  0
   56.1210   31.1120   44.3990 N   0  0  0  0  0  0  0  0  0  0  0  0
   57.2470   31.6560   44.8970 C   0  0  0  0  0  0  0  0  0  0  0  0
   57.6810   32.9580   44.6680 C   0  0  0  0  0  0  0  0  0  0  0  0
   58.8880   33.3670   45.2510 C   0  0  0  0  0  0  0  0  0  0  0  0
   59.6290   32.4800   46.0530 C   0  0  0  0  0  0  0  0  0  0  0  0
   59.1790   31.1640   46.2920 C   0  0  0  0  0  0  0  0  0  0  0  0
   60.1380   30.1180   47.3510 S   0  0  0  0  0  0  0  0  0  0  0  0
   59.2400   29.5150   48.3970 O   0  0  0  0  0  0  0  0  0  0  0  0
   60.7300   28.9910   46.5550 O   0  0  0  0  0  0  0  0  0  0  0  0
   61.3960   31.0440   48.1330 N   0  0  0  0  0  0  0  0  0  0  0  0
   62.4140   31.4710   47.1430 C   0  0  0  0  0  0  0  0  0  0  0  0
   63.1120   32.7970   47.5200 C   0  0  0  0  0  0  0  0  0  0  0  0
   63.2030   33.0010   48.9780 N   0  0  0  0  0  0  0  0  0  0  0  0
   64.2160   32.1270   49.5950 C   0  0  0  0  0  0  0  0  0  0  0  0
   61.8880   32.9250   49.6640 C   0  0  0  0  0  0  0  0  0  0  0  0
   60.8090   32.1880   48.8460 C   0  0  0  0  0  0  0  0  0  0  0  0
   57.9710   30.7690   45.6730 C   0  0  0  0  0  0  0  0  0  0  0  0
  1  2  2  0
  2  3  1  0
  3  4  1  0
  4  5  2  0
  4  6  1  0
  6  7  1  0
  7  8  2  0
  8  9  1  0
  9 10  2  0
 10 11  1  0
 10 12  1  0
 12 13  1  0
 13 14  2  0
 14 15  1  0
 15 16  2  0
 16 17  1  0
 17 18  1  0
 18 19  2  0
 18 20  2  0
 18 21  1  0
 21 22  1  0
 22 23  1  0
 23 24  1  0
 24 25  1  0
 24 26  1  0
 26 27  1  0
 17 28  2  0
  7  2  1  0
 28  9  1  0
 28 13  1  0
 27 21  1  0
M  CHG  5   3  -1   6  -1  11  -1  12  -1  21   1
M  END
>  <UniqueID>  (2302) 
11

>  <SMILES>  (2302) 
C=c1[n-]c(=O)[n-]/c1=C/c1c([O-])[n-]c2cccc(S(=O)(=O)[NH+]3CCN(C)CC3)c12

>  <Energy>  (2302) 
135.14085189260553

>  <Genealogy>  (2302) 
C=c1[n-]c(=O)[n-]c1=Cc1c([O-])[n-]c2cccc(S(=O)(=O)[NH+]3CCN(C)CC3)c12 (protonated)
C=c1[n-]c(=O)[n-]/c1=C/c1c([O-])[n-]c2cccc(S(=O)(=O)[NH+]3CCN(C)CC3)c12 (cis-trans isomerization)
C=c1[n-]c(=O)[n-]/c1=C/c1c([O-])[n-]c2cccc(S(=O)(=O)[NH+]3CCN(C)CC3)c12 (3D coordinates assigned)
C=c1[n-]c(=O)[n-]/c1=C/c1c([O-])[n-]c2cccc(S(=O)(=O)[NH+]3CCN(C)CC3)c12 (nonaromatic ring conformer: 135.14085189260553 kcal/mol)

>  <smiles>  (2302) 
C=c1[nH]c(=O)[nH]c1=Cc1c(O)[nH]c2cccc(S(=O)(=O)N3CCN(C)CC3)c12

>  <score_type>  (2302) 
oracle

>  <origin>  (2302) 
adg

>  <m_score__min__energy>  (2302) 
-15.76

>  <m_primary>  (2302) 
energy

$$$$
17:0
     RDKit          3D

 30 33  0  0  0  0  0  0  0  0999 V2000
   51.3930   32.7250   49.8340 O   0  0  0  0  0  0  0  0  0  0  0  0
   51.3150   32.3130   51.1630 C   0  0  0  0  0  0  0  0  0  0  0  0
   50.3270   32.6850   51.9930 N   0  0  0  0  0  0  0  0  0  0  0  0
   50.6260   32.0190   53.1290 C   0  0  0  0  0  0  0  0  0  0  0  0
   49.9190   32.1000   54.1670 O   0  0  0  0  0  0  0  0  0  0  0  0
   51.7350   31.2510   53.0630 N   0  0  0  0  0  0  0  0  0  0  0  0
   52.1860   31.4640   51.8150 C   0  0  0  0  0  0  0  0  0  0  0  0
   53.3380   30.7560   51.2400 C   0  0  0  0  0  0  0  0  0  0  0  0
   54.4960   30.4880   51.8760 C   0  0  0  0  0  0  0  0  0  0  0  0
   55.6680   31.1720   51.6090 C   0  0  0  0  0  0  0  0  0  0  0  0
   56.6270   30.6810   52.4690 C   0  0  0  0  0  0  0  0  0  0  0  0
   58.0230   31.1580   52.5170 C   0  0  0  0  0  0  0  0  0  0  0  0
   58.6970   30.9750   53.5640 O   0  0  0  0  0  0  0  0  0  0  0  0
   58.6290   31.8340   51.4090 N   0  0  0  0  0  0  0  0  0  0  0  0
   58.6490   31.3420   50.0310 C   0  0  2  0  0  0  0  0  0  0  0  0
   59.7620   30.3060   49.8480 C   0  0  0  0  0  0  0  0  0  0  0  0
   59.6390   29.6480   48.4720 C   0  0  0  0  0  0  0  0  0  0  0  0
   59.4800   30.6710   47.3030 C   0  0  1  0  0  0  0  0  0  0  0  0
   58.3230   30.4080   46.4040 N   0  0  0  0  0  0  0  0  0  0  0  0
   58.1110   31.4980   45.4260 C   0  0  0  0  0  0  0  0  0  0  0  0
   57.0300   31.1210   44.3970 C   0  0  0  0  0  0  0  0  0  0  0  0
   56.2110   30.0840   44.8980 O   0  0  0  0  0  0  0  0  0  0  0  0
   56.9630   28.8870   45.0010 C   0  0  0  0  0  0  0  0  0  0  0  0
   58.3000   29.0850   45.7510 C   0  0  0  0  0  0  0  0  0  0  0  0
   59.5460   32.1630   47.7350 C   0  0  0  0  0  0  0  0  0  0  0  0
   58.8430   32.5260   49.0650 C   0  0  0  0  0  0  0  0  0  0  0  0
   56.1030   29.7130   53.2570 N   0  0  0  0  0  0  0  0  0  0  0  0
   56.8380   28.8800   54.2150 C   0  0  0  0  0  0  0  0  0  0  0  0
   54.8080   29.5550   52.8790 C   0  0  0  0  0  0  0  0  0  0  0  0
   54.0250   28.5660   53.3390 C   0  0  0  0  0  0  0  0  0  0  0  0
  1  2  1  0
  2  3  1  0
  3  4  1  0
  4  5  2  0
  4  6  1  0
  6  7  1  0
  7  8  1  0
  8  9  2  0
  9 10  1  0
 10 11  2  0
 11 12  1  0
 12 13  2  0
 12 14  1  0
 15 14  1  1
 15 16  1  0
 16 17  1  0
 17 18  1  0
 18 19  1  1
 19 20  1  0
 20 21  1  0
 21 22  1  0
 22 23  1  0
 23 24  1  0
 18 25  1  0
 25 26  1  0
 11 27  1  0
 27 28  1  0
 27 29  1  0
 29 30  2  0
  7  2  2  0
 29  9  1  0
 26 15  1  0
 24 19  1  0
M  CHG  3   3  -1   6  -1  14  -1
M  END
>  <UniqueID>  (2303) 
14

>  <SMILES>  (2303) 
C=c1/c(=C\c2[n-]c(=O)[n-]c2O)cc(C(=O)[N-]C2CCC(N3CCOCC3)CC2)n1C

>  <Energy>  (2303) 
152.0865223943544

>  <Genealogy>  (2303) 
C=c1c(=Cc2[n-]c(=O)[n-]c2O)cc(C(=O)[N-]C2CCC(N3CCOCC3)CC2)n1C (protonated)
C=c1/c(=C\c2[n-]c(=O)[n-]c2O)cc(C(=O)[N-]C2CCC(N3CCOCC3)CC2)n1C (cis-trans isomerization)
C=c1/c(=C\c2[n-]c(=O)[n-]c2O)cc(C(=O)[N-]C2CCC(N3CCOCC3)CC2)n1C (3D coordinates assigned)
C=c1/c(=C\c2[n-]c(=O)[n-]c2O)cc(C(=O)[N-]C2CCC(N3CCOCC3)CC2)n1C (nonaromatic ring conformer: 152.0865223943544 kcal/mol)

>  <smiles>  (2303) 
C=c1c(=Cc2[nH]c(=O)[nH]c2O)cc(C(=O)NC2CCC(N3CCOCC3)CC2)n1C

>  <score_type>  (2303) 
oracle

>  <origin>  (2303) 
adg

>  <m_score__min__energy>  (2303) 
-15.640000000000001

>  <m_primary>  (2303) 
energy

$$$$
22:0
     RDKit          3D

 30 33  0  0  0  0  0  0  0  0999 V2000
   57.6800   28.2230   44.3100 C   0  0  0  0  0  0  0  0  0  0  0  0
   58.0780   27.7480   45.5010 C   0  0  0  0  0  0  0  0  0  0  0  0
   58.1180   26.4040   45.9060 C   0  0  0  0  0  0  0  0  0  0  0  0
   57.6090   25.2930   45.3380 C   0  0  0  0  0  0  0  0  0  0  0  0
   56.1920   24.8980   45.3470 C   0  0  0  0  0  0  0  0  0  0  0  0
   55.7730   23.6300   45.1920 N   0  0  0  0  0  0  0  0  0  0  0  0
   54.4400   23.7150   45.3930 C   0  0  0  0  0  0  0  0  0  0  0  0
   53.6790   22.7160   45.3150 O   0  0  0  0  0  0  0  0  0  0  0  0
   53.9890   24.9510   45.6980 N   0  0  0  0  0  0  0  0  0  0  0  0
   55.1130   25.6860   45.6790 C   0  0  0  0  0  0  0  0  0  0  0  0
   55.1530   27.0400   45.9870 O   0  0  0  0  0  0  0  0  0  0  0  0
   58.8210   26.3800   47.1000 C   0  0  0  0  0  0  0  0  0  0  0  0
   59.1180   27.6890   47.4160 C   0  0  0  0  0  0  0  0  0  0  0  0
   59.8560   28.1200   48.6470 C   0  0  0  0  0  0  0  0  0  0  0  0
   58.6700   28.5200   46.4480 N   0  0  0  0  0  0  0  0  0  0  0  0
   58.8220   29.9520   46.4320 C   0  0  0  0  0  0  0  0  0  0  0  0
   57.8100   30.7650   45.9080 C   0  0  0  0  0  0  0  0  0  0  0  0
   57.9600   32.1530   45.8920 C   0  0  0  0  0  0  0  0  0  0  0  0
   59.1300   32.7510   46.3980 C   0  0  0  0  0  0  0  0  0  0  0  0
   59.3200   34.1430   46.3760 O   0  0  0  0  0  0  0  0  0  0  0  0
   59.2740   34.9450   45.2010 C   0  0  0  0  0  0  0  0  0  0  0  0
   60.1460   31.9340   46.9330 C   0  0  0  0  0  0  0  0  0  0  0  0
   61.3470   32.5120   47.4730 N   0  0  0  0  0  0  0  0  0  0  0  0
   62.6500   31.9360   47.1140 C   0  0  0  0  0  0  0  0  0  0  0  0
   63.6780   33.0490   46.9480 C   0  0  0  0  0  0  0  0  0  0  0  0
   63.7370   33.8380   48.1670 N   0  0  0  0  0  0  0  0  0  0  0  0
   62.5520   34.1370   48.9060 C   0  0  0  0  0  0  0  0  0  0  0  0
   62.6220   34.8890   49.9130 O   0  0  0  0  0  0  0  0  0  0  0  0
   61.2210   33.5710   48.4900 C   0  0  0  0  0  0  0  0  0  0  0  0
   59.9870   30.5390   46.9410 C   0  0  0  0  0  0  0  0  0  0  0  0
  1  2  2  0
  2  3  1  0
  3  4  2  3
  4  5  1  0
  5  6  1  0
  6  7  1  0
  7  8  2  0
  7  9  1  0
  9 10  1  0
 10 11  1  0
  3 12  1  0
 12 13  2  0
 13 14  1  0
 13 15  1  0
 15 16  1  0
 16 17  2  0
 17 18  1  0
 18 19  2  0
 19 20  1  0
 20 21  1  0
 19 22  1  0
 22 23  1  0
 23 24  1  0
 24 25  1  0
 25 26  1  0
 26 27  1  0
 27 28  2  0
 27 29  1  0
 22 30  2  0
 15  2  1  0
 30 16  1  0
 10  5  2  0
 29 23  1  0
M  CHG  4   6  -1   9  -1  11  -1  26  -1
M  END
>  <UniqueID>  (2304) 
19

>  <SMILES>  (2304) 
C=c1c(=Cc2[n-]c(=O)[n-]c2[O-])cc(C)n1-c1ccc(OC)c(N2CC[N-]C(=O)C2)c1

>  <Energy>  (2304) 
131.4324925167604

>  <Genealogy>  (2304) 
C=c1c(=Cc2[n-]c(=O)[n-]c2[O-])cc(C)n1-c1ccc(OC)c(N2CC[N-]C(=O)C2)c1 (protonated)
C=c1c(=Cc2[n-]c(=O)[n-]c2[O-])cc(C)n1-c1ccc(OC)c(N2CC[N-]C(=O)C2)c1 (3D coordinates assigned)
C=c1c(=Cc2[n-]c(=O)[n-]c2[O-])cc(C)n1-c1ccc(OC)c(N2CC[N-]C(=O)C2)c1 (nonaromatic ring conformer: 131.4324925167604 kcal/mol)

>  <smiles>  (2304) 
C=c1c(=Cc2[nH]c(=O)[nH]c2O)cc(C)n1-c1ccc(OC)c(N2CCNC(=O)C2)c1

>  <score_type>  (2304) 
oracle

>  <origin>  (2304) 
adg

>  <m_score__min__energy>  (2304) 
-16.510000000000002

>  <m_primary>  (2304) 
energy

$$$$
25:0
     RDKit          3D

 32 35  0  0  0  0  0  0  0  0999 V2000
   57.8240   28.8890   46.8490 C   0  0  0  0  0  0  0  0  0  0  0  0
   57.4940   28.9640   45.5490 C   0  0  0  0  0  0  0  0  0  0  0  0
   57.6030   27.9600   44.5690 C   0  0  0  0  0  0  0  0  0  0  0  0
   57.9030   26.6480   44.6620 C   0  0  0  0  0  0  0  0  0  0  0  0
   57.3340   25.6890   45.6200 C   0  0  0  0  0  0  0  0  0  0  0  0
   58.0050   24.6710   46.1930 N   0  0  0  0  0  0  0  0  0  0  0  0
   57.1210   24.1860   47.1060 C   0  0  0  0  0  0  0  0  0  0  0  0
   57.3800   23.2050   47.8550 O   0  0  0  0  0  0  0  0  0  0  0  0
   55.9460   24.8500   47.1670 N   0  0  0  0  0  0  0  0  0  0  0  0
   56.1070   25.8060   46.2290 C   0  0  0  0  0  0  0  0  0  0  0  0
   55.1460   26.7640   45.9320 O   0  0  0  0  0  0  0  0  0  0  0  0
   57.3740   28.5830   43.3520 C   0  0  0  0  0  0  0  0  0  0  0  0
   57.1120   29.9150   43.6190 C   0  0  0  0  0  0  0  0  0  0  0  0
   56.9700   30.9740   42.5610 C   0  0  0  0  0  0  0  0  0  0  0  0
   57.1400   30.1330   44.9590 N   0  0  0  0  0  0  0  0  0  0  0  0
   57.1390   31.3680   45.5990 O   0  0  0  0  0  0  0  0  0  0  0  0
   58.0050   32.4000   45.2370 C   0  0  0  0  0  0  0  0  0  0  0  0
   57.7180   33.1540   44.2730 O   0  0  0  0  0  0  0  0  0  0  0  0
   59.2760   32.5800   45.9730 C   0  0  0  0  0  0  0  0  0  0  0  0
   59.9520   31.4680   46.5130 C   0  0  0  0  0  0  0  0  0  0  0  0
   61.2210   31.6180   47.0790 C   0  0  0  0  0  0  0  0  0  0  0  0
   61.8310   32.8830   47.1160 C   0  0  0  0  0  0  0  0  0  0  0  0
   63.2400   33.0110   47.5270 C   0  0  0  0  0  0  0  0  0  0  0  0
   64.1110   33.0750   46.6130 O   0  0  0  0  0  0  0  0  0  0  0  0
   63.6570   33.0910   48.9180 N   0  0  0  0  0  0  0  0  0  0  0  0
   63.0270   34.2280   49.6430 C   0  0  0  0  0  0  0  0  0  0  0  0
   61.6710   33.8960   50.2840 C   0  0  0  0  0  0  0  0  0  0  0  0
   61.7720   32.6410   51.1360 C   0  0  0  0  0  0  0  0  0  0  0  0
   62.2260   31.4780   50.2620 C   0  0  0  0  0  0  0  0  0  0  0  0
   63.5970   31.7870   49.6310 C   0  0  0  0  0  0  0  0  0  0  0  0
   61.1630   33.9890   46.5750 C   0  0  0  0  0  0  0  0  0  0  0  0
   59.8830   33.8490   46.0440 C   0  0  0  0  0  0  0  0  0  0  0  0
  1  2  2  0
  2  3  1  0
  3  4  2  0
  4  5  1  0
  5  6  1  0
  6  7  1  0
  7  8  2  0
  7  9  1  0
  9 10  1  0
 10 11  1  0
  3 12  1  0
 12 13  2  0
 13 14  1  0
 13 15  1  0
 15 16  1  0
 16 17  1  0
 17 18  2  0
 17 19  1  0
 19 20  2  0
 20 21  1  0
 21 22  2  0
 22 23  1  0
 23 24  2  0
 23 25  1  0
 25 26  1  0
 26 27  1  0
 27 28  1  0
 28 29  1  0
 29 30  1  0
 22 31  1  0
 31 32  2  0
 15  2  1  0
 32 19  1  0
 10  5  2  0
 30 25  1  0
M  CHG  4   6  -1   9  -1  11  -1  25   1
M  END
>  <UniqueID>  (2305) 
22

>  <SMILES>  (2305) 
C=c1/c(=C\c2[n-]c(=O)[n-]c2[O-])cc(C)n1OC(=O)c1ccc(C(=O)[NH+]2CCCCC2)cc1

>  <Energy>  (2305) 
146.42465535842905

>  <Genealogy>  (2305) 
C=c1c(=Cc2[n-]c(=O)[n-]c2[O-])cc(C)n1OC(=O)c1ccc(C(=O)[NH+]2CCCCC2)cc1 (protonated)
C=c1/c(=C\c2[n-]c(=O)[n-]c2[O-])cc(C)n1OC(=O)c1ccc(C(=O)[NH+]2CCCCC2)cc1 (cis-trans isomerization)
C=c1/c(=C\c2[n-]c(=O)[n-]c2[O-])cc(C)n1OC(=O)c1ccc(C(=O)[NH+]2CCCCC2)cc1 (3D coordinates assigned)
C=c1/c(=C\c2[n-]c(=O)[n-]c2[O-])cc(C)n1OC(=O)c1ccc(C(=O)[NH+]2CCCCC2)cc1 (nonaromatic ring conformer: 146.42465535842905 kcal/mol)

>  <smiles>  (2305) 
C=c1c(=Cc2[nH]c(=O)[nH]c2O)cc(C)n1OC(=O)c1ccc(C(=O)N2CCCCC2)cc1

>  <score_type>  (2305) 
oracle

>  <origin>  (2305) 
adg

>  <m_score__min__energy>  (2305) 
-17.27

>  <m_primary>  (2305) 
energy

$$$$
28:0
     RDKit          3D

 34 37  0  0  0  0  0  0  0  0999 V2000
   50.8800   33.2520   52.0030 N   0  0  0  0  0  0  0  0  0  0  0  0
   51.3920   32.2440   51.1330 C   0  0  0  0  0  0  0  0  0  0  0  0
   51.0240   32.2290   49.9260 O   0  0  0  0  0  0  0  0  0  0  0  0
   52.3420   31.2240   51.6380 C   0  0  0  0  0  0  0  0  0  0  0  0
   51.9030   29.9200   51.9260 C   0  0  0  0  0  0  0  0  0  0  0  0
   52.8000   28.9600   52.3970 C   0  0  0  0  0  0  0  0  0  0  0  0
   54.1430   29.2860   52.5910 C   0  0  0  0  0  0  0  0  0  0  0  0
   54.6050   30.5860   52.3210 C   0  0  0  0  0  0  0  0  0  0  0  0
   56.0340   30.9390   52.5110 C   0  0  0  0  0  0  0  0  0  0  0  0
   56.3810   32.1520   52.5000 O   0  0  0  0  0  0  0  0  0  0  0  0
   57.0270   29.9200   52.7100 N   0  0  0  0  0  0  0  0  0  0  0  0
   58.4550   30.1850   52.5480 C   0  0  0  0  0  0  0  0  0  0  0  0
   58.6990   30.9890   51.2980 C   0  0  0  0  0  0  0  0  0  0  0  0
   58.5160   30.4000   50.0360 C   0  0  0  0  0  0  0  0  0  0  0  0
   58.7120   31.1490   48.8730 C   0  0  0  0  0  0  0  0  0  0  0  0
   59.1090   32.4900   48.9570 C   0  0  0  0  0  0  0  0  0  0  0  0
   59.3170   33.4380   47.4850 S   0  0  0  0  0  0  0  0  0  0  0  0
   58.0590   33.3740   46.6630 O   0  0  0  0  0  0  0  0  0  0  0  0
   59.5510   34.8710   47.8730 O   0  0  0  0  0  0  0  0  0  0  0  0
   60.6940   32.8560   46.5680 N   0  0  0  0  0  0  0  0  0  0  0  0
   61.8090   33.8150   46.5580 C   0  0  0  0  0  0  0  0  0  0  0  0
   62.4950   33.9410   47.9350 C   0  0  0  0  0  0  0  0  0  0  0  0
   62.2990   32.7500   48.8030 N   0  0  0  0  0  0  0  0  0  0  0  0
   63.2950   32.7380   49.9200 C   0  0  0  0  0  0  0  0  0  0  0  0
   63.3580   34.0890   50.6800 C   0  0  0  0  0  0  0  0  0  0  0  0
   64.5370   34.1540   51.6800 C   0  0  0  0  0  0  0  0  0  0  0  0
   65.3690   33.0120   51.6240 O   0  0  0  0  0  0  0  0  0  0  0  0
   65.8440   32.8460   50.3070 C   0  0  0  0  0  0  0  0  0  0  0  0
   64.7090   32.4050   49.3690 C   0  0  0  0  0  0  0  0  0  0  0  0
   62.3190   31.5250   47.9770 C   0  0  0  0  0  0  0  0  0  0  0  0
   61.1220   31.5100   47.0030 C   0  0  0  0  0  0  0  0  0  0  0  0
   59.3010   33.0790   50.2150 C   0  0  0  0  0  0  0  0  0  0  0  0
   59.0950   32.3330   51.3790 C   0  0  0  0  0  0  0  0  0  0  0  0
   53.6980   31.5460   51.8360 C   0  0  0  0  0  0  0  0  0  0  0  0
  1  2  1  0
  2  3  2  0
  2  4  1  0
  4  5  2  0
  5  6  1  0
  6  7  2  0
  7  8  1  0
  8  9  1  0
  9 10  2  0
  9 11  1  0
 11 12  1  0
 12 13  1  0
 13 14  2  0
 14 15  1  0
 15 16  2  0
 16 17  1  0
 17 18  2  0
 17 19  2  0
 17 20  1  0
 20 21  1  0
 21 22  1  0
 22 23  1  0
 23 24  1  0
 24 25  1  0
 25 26  1  0
 26 27  1  0
 27 28  1  0
 28 29  1  0
 23 30  1  0
 30 31  1  0
 16 32  1  0
 32 33  2  0
  8 34  2  0
 34  4  1  0
 33 13  1  0
 31 20  1  0
 29 24  1  0
M  CHG  1   1  -1
M  END
>  <UniqueID>  (2306) 
25

>  <SMILES>  (2306) 
[NH-]C(=O)c1cccc(C(=O)NCc2ccc(S(=O)(=O)N3CCN(C4CCOCC4)CC3)cc2)c1

>  <Energy>  (2306) 
87.78098030471322

>  <Genealogy>  (2306) 
[NH-]C(=O)c1cccc(C(=O)NCc2ccc(S(=O)(=O)N3CCN(C4CCOCC4)CC3)cc2)c1 (protonated)
[NH-]C(=O)c1cccc(C(=O)NCc2ccc(S(=O)(=O)N3CCN(C4CCOCC4)CC3)cc2)c1 (3D coordinates assigned)
[NH-]C(=O)c1cccc(C(=O)NCc2ccc(S(=O)(=O)N3CCN(C4CCOCC4)CC3)cc2)c1 (nonaromatic ring conformer: 87.78098030471322 kcal/mol)

>  <smiles>  (2306) 
NC(=O)c1cccc(C(=O)NCc2ccc(S(=O)(=O)N3CCN(C4CCOCC4)CC3)cc2)c1

>  <score_type>  (2306) 
oracle

>  <origin>  (2306) 
adg

>  <m_score__min__energy>  (2306) 
-14.77

>  <m_primary>  (2306) 
energy

$$$$
34:0
     RDKit          3D

 23 25  0  0  0  0  0  0  0  0999 V2000
   57.0140   31.1860   44.2430 C   0  0  0  0  0  0  0  0  0  0  0  0
   57.6990   31.0260   45.3760 C   0  0  0  0  0  0  0  0  0  0  0  0
   57.8490   32.0180   46.2790 N   0  0  0  0  0  0  0  0  0  0  0  0
   58.5700   31.5530   47.2890 N   0  0  0  0  0  0  0  0  0  0  0  0
   58.9300   32.3510   48.4330 C   0  0  0  0  0  0  0  0  0  0  0  0
   59.6960   33.5240   48.2940 C   0  0  0  0  0  0  0  0  0  0  0  0
   60.0450   34.2790   49.4180 C   0  0  0  0  0  0  0  0  0  0  0  0
   59.6410   33.8680   50.6910 C   0  0  0  0  0  0  0  0  0  0  0  0
   58.8940   32.6980   50.8420 C   0  0  0  0  0  0  0  0  0  0  0  0
   58.5440   31.9400   49.7210 C   0  0  0  0  0  0  0  0  0  0  0  0
   58.9000   30.2680   47.0360 C   0  0  0  0  0  0  0  0  0  0  0  0
   59.5960   29.5500   47.8020 O   0  0  0  0  0  0  0  0  0  0  0  0
   58.3650   29.8800   45.8150 C   0  0  0  0  0  0  0  0  0  0  0  0
   58.4380   28.6820   45.2000 C   0  0  0  0  0  0  0  0  0  0  0  0
   57.6750   27.4950   45.6280 C   0  0  0  0  0  0  0  0  0  0  0  0
   58.3660   26.3900   46.1480 C   0  0  0  0  0  0  0  0  0  0  0  0
   57.6660   25.2630   46.5850 C   0  0  0  0  0  0  0  0  0  0  0  0
   56.2690   25.2370   46.5250 C   0  0  0  0  0  0  0  0  0  0  0  0
   55.5800   24.1100   46.9580 O   0  0  0  0  0  0  0  0  0  0  0  0
   55.5700   26.3450   46.0340 C   0  0  0  0  0  0  0  0  0  0  0  0
   54.1790   26.3240   45.9870 O   0  0  0  0  0  0  0  0  0  0  0  0
   56.2660   27.4790   45.5960 C   0  0  0  0  0  0  0  0  0  0  0  0
   55.5600   28.5870   45.1400 O   0  0  0  0  0  0  0  0  0  0  0  0
  1  2  2  0
  2  3  1  0
  3  4  1  0
  4  5  1  0
  5  6  2  0
  6  7  1  0
  7  8  2  0
  8  9  1  0
  9 10  2  0
  4 11  1  0
 11 12  2  0
 11 13  1  0
 13 14  2  0
 14 15  1  0
 15 16  2  0
 16 17  1  0
 17 18  2  0
 18 19  1  0
 18 20  1  0
 20 21  1  0
 20 22  2  0
 22 23  1  0
 13  2  1  0
 22 15  1  0
 10  5  1  0
M  CHG  4   3  -1  19  -1  21  -1  23  -1
M  END
>  <UniqueID>  (2307) 
31

>  <SMILES>  (2307) 
C=c1[n-]n(-c2ccccc2)c(=O)/c1=C\c1ccc([O-])c([O-])c1[O-]

>  <Energy>  (2307) 
84.18897731918483

>  <Genealogy>  (2307) 
C=c1[n-]n(-c2ccccc2)c(=O)c1=Cc1ccc([O-])c([O-])c1[O-] (protonated)
C=c1[n-]n(-c2ccccc2)c(=O)/c1=C\c1ccc([O-])c([O-])c1[O-] (cis-trans isomerization)
C=c1[n-]n(-c2ccccc2)c(=O)/c1=C\c1ccc([O-])c([O-])c1[O-] (3D coordinates assigned)
C=c1[n-]n(-c2ccccc2)c(=O)/c1=C\c1ccc([O-])c([O-])c1[O-] (optimized conformer: 84.18897731918483 kcal/mol)

>  <smiles>  (2307) 
C=c1[nH]n(-c2ccccc2)c(=O)c1=Cc1ccc(O)c(O)c1O

>  <score_type>  (2307) 
oracle

>  <origin>  (2307) 
adg

>  <m_score__min__energy>  (2307) 
-17.280000000000001

>  <m_primary>  (2307) 
energy

$$$$
52:0
     RDKit          3D

 26 28  0  0  0  0  0  0  0  0999 V2000
   58.4800   26.6680   43.8810 O   0  0  0  0  0  0  0  0  0  0  0  0
   58.1700   26.5240   45.0940 C   0  0  0  0  0  0  0  0  0  0  0  0
   58.9060   27.2530   46.1560 C   0  0  0  0  0  0  0  0  0  0  0  0
   59.2880   28.5390   46.0980 C   0  0  0  0  0  0  0  0  0  0  0  0
   58.4330   29.6690   45.6820 C   0  0  0  0  0  0  0  0  0  0  0  0
   57.5700   29.5150   44.5900 C   0  0  0  0  0  0  0  0  0  0  0  0
   56.8000   30.6000   44.1630 C   0  0  0  0  0  0  0  0  0  0  0  0
   56.9050   31.8010   44.7910 N   0  0  0  0  0  0  0  0  0  0  0  0
   57.7540   31.9870   45.8350 C   0  0  0  0  0  0  0  0  0  0  0  0
   58.5430   30.9290   46.2940 C   0  0  0  0  0  0  0  0  0  0  0  0
   57.0700   25.5960   45.4420 C   0  0  0  0  0  0  0  0  0  0  0  0
   55.7840   26.0940   45.6890 C   0  0  0  0  0  0  0  0  0  0  0  0
   55.5250   27.4590   45.6270 O   0  0  0  0  0  0  0  0  0  0  0  0
   54.7780   25.2430   46.0080 N   0  0  0  0  0  0  0  0  0  0  0  0
   54.9800   23.9050   46.0910 C   0  0  0  0  0  0  0  0  0  0  0  0
   54.0140   23.1590   46.4100 O   0  0  0  0  0  0  0  0  0  0  0  0
   56.2190   23.3770   45.8380 N   0  0  0  0  0  0  0  0  0  0  0  0
   56.4260   21.9530   45.9210 C   0  0  0  0  0  0  0  0  0  0  0  0
   56.0440   21.1250   44.8530 C   0  0  0  0  0  0  0  0  0  0  0  0
   56.2430   19.7440   44.9250 C   0  0  0  0  0  0  0  0  0  0  0  0
   56.8210   19.1790   46.0650 C   0  0  0  0  0  0  0  0  0  0  0  0
   57.2010   19.9940   47.1350 C   0  0  0  0  0  0  0  0  0  0  0  0
   57.0020   21.3780   47.0690 C   0  0  0  0  0  0  0  0  0  0  0  0
   57.3710   22.1770   48.1460 O   0  0  0  0  0  0  0  0  0  0  0  0
   57.2620   24.2030   45.5070 C   0  0  0  0  0  0  0  0  0  0  0  0
   58.3920   23.7110   45.2290 O   0  0  0  0  0  0  0  0  0  0  0  0
  1  2  2  0
  2  3  1  0
  3  4  2  3
  4  5  1  0
  5  6  2  0
  6  7  1  0
  7  8  2  0
  8  9  1  0
  9 10  2  0
  2 11  1  0
 11 12  2  0
 12 13  1  0
 12 14  1  0
 14 15  1  0
 15 16  2  0
 15 17  1  0
 17 18  1  0
 18 19  2  0
 19 20  1  0
 20 21  2  0
 21 22  1  0
 22 23  2  0
 23 24  1  0
 17 25  1  0
 25 26  2  0
 10  5  1  0
 25 11  1  0
 23 18  1  0
M  CHG  3  13  -1  14  -1  24  -1
M  END
>  <UniqueID>  (2308) 
48

>  <SMILES>  (2308) 
O=C(C=Cc1ccncc1)c1c([O-])[n-]c(=O)n(-c2ccccc2[O-])c1=O

>  <Energy>  (2308) 
66.32584898831578

>  <Genealogy>  (2308) 
O=C(C=Cc1ccncc1)c1c([O-])[n-]c(=O)n(-c2ccccc2[O-])c1=O (protonated)
O=C(C=Cc1ccncc1)c1c([O-])[n-]c(=O)n(-c2ccccc2[O-])c1=O (3D coordinates assigned)
O=C(C=Cc1ccncc1)c1c([O-])[n-]c(=O)n(-c2ccccc2[O-])c1=O (optimized conformer: 66.32584898831578 kcal/mol)

>  <smiles>  (2308) 
O=C(C=Cc1ccncc1)c1c(O)[nH]c(=O)n(-c2ccccc2O)c1=O

>  <score_type>  (2308) 
oracle

>  <origin>  (2308) 
adg

>  <m_score__min__energy>  (2308) 
-14.27

>  <m_primary>  (2308) 
energy

$$$$
54:0
     RDKit          3D

 35 39  0  0  0  0  0  0  0  0999 V2000
   55.1400   31.5810   51.9980 C   0  0  0  0  0  0  0  0  0  0  0  0
   54.8160   30.4020   52.5570 C   0  0  0  0  0  0  0  0  0  0  0  0
   53.5210   29.9350   52.8260 C   0  0  0  0  0  0  0  0  0  0  0  0
   52.3610   30.5870   52.5910 C   0  0  0  0  0  0  0  0  0  0  0  0
   51.8090   30.9160   51.2580 C   0  0  0  0  0  0  0  0  0  0  0  0
   51.7850   30.1030   50.1860 N   0  0  0  0  0  0  0  0  0  0  0  0
   51.1670   30.8420   49.2410 C   0  0  0  0  0  0  0  0  0  0  0  0
   50.9600   30.4150   48.0740 O   0  0  0  0  0  0  0  0  0  0  0  0
   50.7860   32.0720   49.6430 N   0  0  0  0  0  0  0  0  0  0  0  0
   51.1960   32.1010   50.9220 C   0  0  0  0  0  0  0  0  0  0  0  0
   51.0190   33.1910   51.7640 O   0  0  0  0  0  0  0  0  0  0  0  0
   53.6780   28.6590   53.3570 C   0  0  0  0  0  0  0  0  0  0  0  0
   55.0340   28.4100   53.4040 C   0  0  0  0  0  0  0  0  0  0  0  0
   55.6510   27.1410   53.9110 C   0  0  0  0  0  0  0  0  0  0  0  0
   55.7260   29.4620   52.9140 N   0  0  0  0  0  0  0  0  0  0  0  0
   57.1590   29.5530   52.8180 C   0  0  0  0  0  0  0  0  0  0  0  0
   57.9480   29.4580   53.9710 C   0  0  0  0  0  0  0  0  0  0  0  0
   59.3360   29.5560   53.8790 C   0  0  0  0  0  0  0  0  0  0  0  0
   59.9450   29.7460   52.6380 C   0  0  0  0  0  0  0  0  0  0  0  0
   59.1750   29.8420   51.4610 C   0  0  0  0  0  0  0  0  0  0  0  0
   59.8600   30.0310   50.1460 C   0  0  0  0  0  0  0  0  0  0  0  0
   60.3640   31.1640   49.8930 O   0  0  0  0  0  0  0  0  0  0  0  0
   60.0050   28.9460   49.1840 N   0  0  0  0  0  0  0  0  0  0  0  0
   58.7280   28.5800   48.5160 C   0  0  0  0  0  0  0  0  0  0  0  0
   58.4500   29.3980   47.2340 C   0  0  0  0  0  0  0  0  0  0  0  0
   59.1920   30.6700   47.2630 N   0  0  0  0  0  0  0  0  0  0  0  0
   58.7870   31.5400   46.1420 C   0  0  0  0  0  0  0  0  0  0  0  0
   59.1410   32.9700   46.4340 C   0  0  0  0  0  0  0  0  0  0  0  0
   59.2570   33.4860   47.7350 C   0  0  0  0  0  0  0  0  0  0  0  0
   59.5330   34.8450   47.7690 C   0  0  0  0  0  0  0  0  0  0  0  0
   59.6250   35.3990   46.1840 S   0  0  0  0  0  0  0  0  0  0  0  0
   59.3180   33.9250   45.4380 C   0  0  0  0  0  0  0  0  0  0  0  0
   60.6510   30.4200   47.2530 C   0  0  0  0  0  0  0  0  0  0  0  0
   61.0520   29.2550   48.1860 C   0  0  0  0  0  0  0  0  0  0  0  0
   57.7710   29.7490   51.5710 C   0  0  0  0  0  0  0  0  0  0  0  0
  1  2  2  0
  2  3  1  0
  3  4  2  3
  4  5  1  0
  5  6  1  0
  6  7  1  0
  7  8  2  0
  7  9  1  0
  9 10  1  0
 10 11  1  0
  3 12  1  0
 12 13  2  0
 13 14  1  0
 13 15  1  0
 15 16  1  0
 16 17  2  0
 17 18  1  0
 18 19  2  0
 19 20  1  0
 20 21  1  0
 21 22  2  0
 21 23  1  0
 23 24  1  0
 24 25  1  0
 25 26  1  0
 26 27  1  0
 27 28  1  0
 28 29  1  0
 29 30  2  0
 30 31  1  0
 31 32  1  0
 26 33  1  0
 33 34  1  0
 20 35  2  0
 15  2  1  0
 35 16  1  0
 10  5  2  0
 34 23  1  0
 32 28  2  0
M  CHG  4   6  -1   9  -1  11  -1  23   1
M  END
>  <UniqueID>  (2309) 
50

>  <SMILES>  (2309) 
C=c1c(=Cc2[n-]c(=O)[n-]c2[O-])cc(C)n1-c1cccc(C(=O)[NH+]2CCN(Cc3ccsc3)CC2)c1

>  <Energy>  (2309) 
173.9126412245092

>  <Genealogy>  (2309) 
C=c1c(=Cc2[n-]c(=O)[n-]c2[O-])cc(C)n1-c1cccc(C(=O)[NH+]2CCN(Cc3ccsc3)CC2)c1 (protonated)
C=c1c(=Cc2[n-]c(=O)[n-]c2[O-])cc(C)n1-c1cccc(C(=O)[NH+]2CCN(Cc3ccsc3)CC2)c1 (3D coordinates assigned)
C=c1c(=Cc2[n-]c(=O)[n-]c2[O-])cc(C)n1-c1cccc(C(=O)[NH+]2CCN(Cc3ccsc3)CC2)c1 (nonaromatic ring conformer: 173.9126412245092 kcal/mol)

>  <smiles>  (2309) 
C=c1c(=Cc2[nH]c(=O)[nH]c2O)cc(C)n1-c1cccc(C(=O)N2CCN(Cc3ccsc3)CC2)c1

>  <score_type>  (2309) 
oracle

>  <origin>  (2309) 
adg

>  <m_score__min__energy>  (2309) 
-17.120000000000001

>  <m_primary>  (2309) 
energy

$$$$
63:0
     RDKit          3D

 30 33  0  0  0  0  0  0  0  0999 V2000
   58.0010   26.8460   43.1170 C   0  0  0  0  0  0  0  0  0  0  0  0
   58.1070   27.7530   44.0940 C   0  0  0  0  0  0  0  0  0  0  0  0
   58.1090   29.0770   43.8360 N   0  0  0  0  0  0  0  0  0  0  0  0
   58.0720   29.7140   45.0210 C   0  0  0  0  0  0  0  0  0  0  0  0
   58.0830   31.1800   45.1830 C   0  0  0  0  0  0  0  0  0  0  0  0
   58.0320   31.9080   44.1540 O   0  0  0  0  0  0  0  0  0  0  0  0
   58.1660   31.7910   46.4840 N   0  0  0  0  0  0  0  0  0  0  0  0
   59.0800   31.2540   47.5020 C   0  0  0  0  0  0  0  0  0  0  0  0
   59.5810   32.3730   48.4240 C   0  0  0  0  0  0  0  0  0  0  0  0
   59.8110   33.5920   47.6270 N   0  0  0  0  0  0  0  0  0  0  0  0
   60.5650   34.5900   48.4100 C   0  0  0  0  0  0  0  0  0  0  0  0
   61.9380   34.0710   48.7570 C   0  0  0  0  0  0  0  0  0  0  0  0
   62.4300   34.1770   50.0680 C   0  0  0  0  0  0  0  0  0  0  0  0
   63.7170   33.7220   50.3750 C   0  0  0  0  0  0  0  0  0  0  0  0
   64.5200   33.1650   49.3760 C   0  0  0  0  0  0  0  0  0  0  0  0
   65.7670   32.7260   49.6750 F   0  0  0  0  0  0  0  0  0  0  0  0
   64.0380   33.0630   48.0670 C   0  0  0  0  0  0  0  0  0  0  0  0
   62.7520   33.5160   47.7580 C   0  0  0  0  0  0  0  0  0  0  0  0
   58.5320   34.1550   47.1200 C   0  0  0  0  0  0  0  0  0  0  0  0
   57.5000   33.0720   46.7450 C   0  0  0  0  0  0  0  0  0  0  0  0
   58.0710   28.8010   46.0580 C   0  0  0  0  0  0  0  0  0  0  0  0
   58.1170   27.5420   45.4810 C   0  0  0  0  0  0  0  0  0  0  0  0
   58.1700   26.4080   46.2050 C   0  0  0  0  0  0  0  0  0  0  0  0
   57.0640   25.4560   46.3900 C   0  0  0  0  0  0  0  0  0  0  0  0
   57.2400   24.1330   46.5490 N   0  0  0  0  0  0  0  0  0  0  0  0
   55.9790   23.6490   46.5430 C   0  0  0  0  0  0  0  0  0  0  0  0
   55.7230   22.4250   46.6870 O   0  0  0  0  0  0  0  0  0  0  0  0
   55.0150   24.5770   46.3610 N   0  0  0  0  0  0  0  0  0  0  0  0
   55.7200   25.7140   46.2490 C   0  0  0  0  0  0  0  0  0  0  0  0
   55.1480   26.9560   45.9990 O   0  0  0  0  0  0  0  0  0  0  0  0
  1  2  2  0
  2  3  1  0
  3  4  1  0
  4  5  1  0
  5  6  2  0
  5  7  1  0
  7  8  1  0
  8  9  1  0
  9 10  1  0
 10 11  1  0
 11 12  1  0
 12 13  2  0
 13 14  1  0
 14 15  2  0
 15 16  1  0
 15 17  1  0
 17 18  2  0
 10 19  1  0
 19 20  1  0
  4 21  2  0
 21 22  1  0
 22 23  2  3
 23 24  1  0
 24 25  1  0
 25 26  1  0
 26 27  2  0
 26 28  1  0
 28 29  1  0
 29 30  1  0
 22  2  1  0
 29 24  2  0
 20  7  1  0
 18 12  1  0
M  CHG  3  25  -1  28  -1  30  -1
M  END
>  <UniqueID>  (2310) 
59

>  <SMILES>  (2310) 
C=c1[nH]c(C(=O)N2CCN(Cc3ccc(F)cc3)CC2)cc1=Cc1[n-]c(=O)[n-]c1[O-]

>  <Energy>  (2310) 
130.096993716899

>  <Genealogy>  (2310) 
C=c1[nH]c(C(=O)N2CCN(Cc3ccc(F)cc3)CC2)cc1=Cc1[n-]c(=O)[n-]c1[O-] (protonated)
C=c1[nH]c(C(=O)N2CCN(Cc3ccc(F)cc3)CC2)cc1=Cc1[n-]c(=O)[n-]c1[O-] (3D coordinates assigned)
C=c1[nH]c(C(=O)N2CCN(Cc3ccc(F)cc3)CC2)cc1=Cc1[n-]c(=O)[n-]c1[O-] (nonaromatic ring conformer: 130.096993716899 kcal/mol)

>  <smiles>  (2310) 
C=c1[nH]c(C(=O)N2CCN(Cc3ccc(F)cc3)CC2)cc1=Cc1[nH]c(=O)[nH]c1O

>  <score_type>  (2310) 
oracle

>  <origin>  (2310) 
adg

>  <m_score__min__energy>  (2310) 
-17.710000000000001

>  <m_primary>  (2310) 
energy

$$$$
64:0
     RDKit          3D

 28 30  0  0  0  0  0  0  0  0999 V2000
   59.6460   26.8430   46.7870 C   0  0  0  0  0  0  0  0  0  0  0  0
   59.8570   27.6530   48.0070 C   0  0  0  0  0  0  0  0  0  0  0  0
   60.0280   27.1000   49.1270 O   0  0  0  0  0  0  0  0  0  0  0  0
   59.9110   29.0820   47.9000 N   0  0  0  0  0  0  0  0  0  0  0  0
   60.1740   29.9450   49.0490 C   0  0  0  0  0  0  0  0  0  0  0  0
   61.3600   30.8370   48.7770 C   0  0  0  0  0  0  0  0  0  0  0  0
   62.3760   30.9640   49.7380 C   0  0  0  0  0  0  0  0  0  0  0  0
   63.4870   31.7740   49.4880 C   0  0  0  0  0  0  0  0  0  0  0  0
   63.5990   32.4540   48.2740 C   0  0  0  0  0  0  0  0  0  0  0  0
   62.5980   32.3310   47.3090 C   0  0  0  0  0  0  0  0  0  0  0  0
   61.4630   31.5350   47.5550 C   0  0  0  0  0  0  0  0  0  0  0  0
   60.4560   31.3810   46.5880 O   0  0  0  0  0  0  0  0  0  0  0  0
   59.4780   32.3330   46.2720 C   0  0  0  0  0  0  0  0  0  0  0  0
   58.1140   32.1190   46.5460 C   0  0  0  0  0  0  0  0  0  0  0  0
   57.1670   33.0880   46.1980 C   0  0  0  0  0  0  0  0  0  0  0  0
   57.5700   34.2670   45.5660 C   0  0  0  0  0  0  0  0  0  0  0  0
   58.9210   34.4750   45.2730 C   0  0  0  0  0  0  0  0  0  0  0  0
   59.8700   33.5080   45.6200 C   0  0  0  0  0  0  0  0  0  0  0  0
   58.4780   26.6880   46.1460 C   0  0  0  0  0  0  0  0  0  0  0  0
   57.6690   27.7890   45.5780 C   0  0  0  0  0  0  0  0  0  0  0  0
   56.2640   27.7570   45.6020 C   0  0  0  0  0  0  0  0  0  0  0  0
   55.5860   26.6720   46.1460 O   0  0  0  0  0  0  0  0  0  0  0  0
   55.5540   28.8000   45.1000 N   0  0  0  0  0  0  0  0  0  0  0  0
   56.1790   29.8920   44.5880 C   0  0  0  0  0  0  0  0  0  0  0  0
   55.5000   30.8450   44.1260 O   0  0  0  0  0  0  0  0  0  0  0  0
   57.5340   29.9580   44.5800 N   0  0  0  0  0  0  0  0  0  0  0  0
   58.2900   28.9410   45.0690 C   0  0  0  0  0  0  0  0  0  0  0  0
   59.5460   29.0400   45.0510 O   0  0  0  0  0  0  0  0  0  0  0  0
  1  2  1  0
  2  3  2  0
  2  4  1  0
  4  5  1  0
  5  6  1  0
  6  7  2  0
  7  8  1  0
  8  9  2  0
  9 10  1  0
 10 11  2  0
 11 12  1  0
 12 13  1  0
 13 14  2  0
 14 15  1  0
 15 16  2  0
 16 17  1  0
 17 18  2  0
  1 19  2  0
 19 20  1  0
 20 21  2  0
 21 22  1  0
 21 23  1  0
 23 24  1  0
 24 25  2  0
 24 26  1  0
 26 27  1  0
 27 28  2  0
 11  6  1  0
 18 13  1  0
 27 20  1  0
M  CHG  3  22  -1  23  -1  26  -1
M  END
>  <UniqueID>  (2311) 
60

>  <SMILES>  (2311) 
O=C(/C=C\c1c([O-])[n-]c(=O)[n-]c1=O)NCc1ccccc1Oc1ccccc1

>  <Energy>  (2311) 
59.41351733556436

>  <Genealogy>  (2311) 
O=C(C=Cc1c([O-])[n-]c(=O)[n-]c1=O)NCc1ccccc1Oc1ccccc1 (protonated)
O=C(/C=C\c1c([O-])[n-]c(=O)[n-]c1=O)NCc1ccccc1Oc1ccccc1 (cis-trans isomerization)
O=C(/C=C\c1c([O-])[n-]c(=O)[n-]c1=O)NCc1ccccc1Oc1ccccc1 (3D coordinates assigned)
O=C(/C=C\c1c([O-])[n-]c(=O)[n-]c1=O)NCc1ccccc1Oc1ccccc1 (optimized conformer: 59.41351733556436 kcal/mol)

>  <smiles>  (2311) 
O=C(C=Cc1c(O)[nH]c(=O)[nH]c1=O)NCc1ccccc1Oc1ccccc1

>  <score_type>  (2311) 
oracle

>  <origin>  (2311) 
adg

>  <m_score__min__energy>  (2311) 
-16.41

>  <m_primary>  (2311) 
energy

$$$$
68:0
     RDKit          3D

 36 40  0  0  0  0  0  0  0  0999 V2000
   60.6820   26.6350   46.3720 C   0  0  0  0  0  0  0  0  0  0  0  0
   59.7030   27.5430   46.2990 C   0  0  0  0  0  0  0  0  0  0  0  0
   59.8830   28.8170   45.7890 C   0  0  0  0  0  0  0  0  0  0  0  0
   58.6310   29.3930   45.7290 C   0  0  0  0  0  0  0  0  0  0  0  0
   58.3440   30.7410   45.2010 C   0  0  0  0  0  0  0  0  0  0  0  0
   58.5020   30.9550   43.9670 O   0  0  0  0  0  0  0  0  0  0  0  0
   57.9210   31.8170   46.0620 N   0  0  0  0  0  0  0  0  0  0  0  0
   57.1660   32.9490   45.5190 C   0  0  0  0  0  0  0  0  0  0  0  0
   58.0420   34.2180   45.5030 C   0  0  0  0  0  0  0  0  0  0  0  0
   59.0920   34.2370   46.5570 N   0  0  0  0  0  0  0  0  0  0  0  0
   60.4220   33.8670   46.0190 C   0  0  0  0  0  0  0  0  0  0  0  0
   61.3330   33.3540   47.1040 C   0  0  0  0  0  0  0  0  0  0  0  0
   61.7880   32.0240   47.0860 C   0  0  0  0  0  0  0  0  0  0  0  0
   62.6170   31.5500   48.1080 C   0  0  0  0  0  0  0  0  0  0  0  0
   62.9960   32.3980   49.1530 C   0  0  0  0  0  0  0  0  0  0  0  0
   62.5460   33.7210   49.1780 C   0  0  0  0  0  0  0  0  0  0  0  0
   61.7170   34.1990   48.1580 C   0  0  0  0  0  0  0  0  0  0  0  0
   58.7030   33.4480   47.7500 C   0  0  0  0  0  0  0  0  0  0  0  0
   58.4850   31.9620   47.4110 C   0  0  0  0  0  0  0  0  0  0  0  0
   57.6950   28.5310   46.1720 N   0  0  0  0  0  0  0  0  0  0  0  0
   58.3320   27.4060   46.5620 C   0  0  0  0  0  0  0  0  0  0  0  0
   57.6580   26.3740   47.1080 C   0  0  0  0  0  0  0  0  0  0  0  0
   56.8850   25.3700   46.3630 C   0  0  0  0  0  0  0  0  0  0  0  0
   57.3820   24.1730   45.9850 N   0  0  0  0  0  0  0  0  0  0  0  0
   56.3690   23.6150   45.2840 C   0  0  0  0  0  0  0  0  0  0  0  0
   56.4380   22.4610   44.7860 O   0  0  0  0  0  0  0  0  0  0  0  0
   55.2820   24.4100   45.1750 N   0  0  0  0  0  0  0  0  0  0  0  0
   53.9880   24.0910   44.5760 C   0  0  0  0  0  0  0  0  0  0  0  0
   53.2060   23.2060   45.5000 C   0  0  0  0  0  0  0  0  0  0  0  0
   53.6550   22.9620   46.8070 C   0  0  0  0  0  0  0  0  0  0  0  0
   52.8770   22.1770   47.6610 C   0  0  0  0  0  0  0  0  0  0  0  0
   51.6630   21.6550   47.2140 C   0  0  0  0  0  0  0  0  0  0  0  0
   51.2400   21.9300   45.9110 C   0  0  0  0  0  0  0  0  0  0  0  0
   52.0100   22.6960   45.0920 N   0  0  0  0  0  0  0  0  0  0  0  0
   55.6140   25.5200   45.8510 C   0  0  0  0  0  0  0  0  0  0  0  0
   54.7920   26.6340   45.9930 O   0  0  0  0  0  0  0  0  0  0  0  0
  1  2  2  0
  2  3  1  0
  3  4  2  0
  4  5  1  0
  5  6  2  0
  5  7  1  0
  7  8  1  0
  8  9  1  0
  9 10  1  0
 10 11  1  0
 11 12  1  0
 12 13  2  0
 13 14  1  0
 14 15  2  0
 15 16  1  0
 16 17  2  0
 10 18  1  0
 18 19  1  0
  4 20  1  0
 20 21  1  0
 21 22  2  3
 22 23  1  0
 23 24  1  0
 24 25  1  0
 25 26  2  0
 25 27  1  0
 27 28  1  0
 28 29  1  0
 29 30  2  0
 30 31  1  0
 31 32  2  0
 32 33  1  0
 33 34  2  0
 27 35  1  0
 35 36  1  0
 21  2  1  0
 35 23  2  0
 19  7  1  0
 34 29  1  0
 17 12  1  0
M  CHG  2  24  -1  36  -1
M  END
>  <UniqueID>  (2312) 
64

>  <SMILES>  (2312) 
C=c1cc(C(=O)N2CCN(Cc3ccccc3)CC2)[nH]c1=Cc1[n-]c(=O)n(Cc2ccccn2)c1[O-]

>  <Energy>  (2312) 
148.95685186672665

>  <Genealogy>  (2312) 
C=c1cc(C(=O)N2CCN(Cc3ccccc3)CC2)[nH]c1=Cc1[n-]c(=O)n(Cc2ccccn2)c1[O-] (protonated)
C=c1cc(C(=O)N2CCN(Cc3ccccc3)CC2)[nH]c1=Cc1[n-]c(=O)n(Cc2ccccn2)c1[O-] (3D coordinates assigned)
C=c1cc(C(=O)N2CCN(Cc3ccccc3)CC2)[nH]c1=Cc1[n-]c(=O)n(Cc2ccccn2)c1[O-] (nonaromatic ring conformer: 148.95685186672665 kcal/mol)

>  <smiles>  (2312) 
C=c1cc(C(=O)N2CCN(Cc3ccccc3)CC2)[nH]c1=Cc1[nH]c(=O)n(Cc2ccccn2)c1O

>  <score_type>  (2312) 
oracle

>  <origin>  (2312) 
adg

>  <m_score__min__energy>  (2312) 
-14.85

>  <m_primary>  (2312) 
energy

$$$$
69:0
     RDKit          3D

 30 33  0  0  0  0  0  0  0  0999 V2000
   53.9870   29.3130   54.8240 C   0  0  0  0  0  0  0  0  0  0  0  0
   54.5770   29.7580   53.7000 C   0  0  0  0  0  0  0  0  0  0  0  0
   53.9860   30.5840   52.7320 C   0  0  0  0  0  0  0  0  0  0  0  0
   52.7010   30.9390   52.5330 C   0  0  0  0  0  0  0  0  0  0  0  0
   52.0670   31.1720   51.2260 C   0  0  0  0  0  0  0  0  0  0  0  0
   52.0270   30.2520   50.2460 N   0  0  0  0  0  0  0  0  0  0  0  0
   51.2590   30.8360   49.3010 C   0  0  0  0  0  0  0  0  0  0  0  0
   50.9970   30.2800   48.2030 O   0  0  0  0  0  0  0  0  0  0  0  0
   50.7830   32.0550   49.6300 N   0  0  0  0  0  0  0  0  0  0  0  0
   51.2910   32.2480   50.8580 C   0  0  0  0  0  0  0  0  0  0  0  0
   51.0270   33.3690   51.6350 O   0  0  0  0  0  0  0  0  0  0  0  0
   55.0140   31.0270   51.9240 C   0  0  0  0  0  0  0  0  0  0  0  0
   56.1690   30.4250   52.3730 C   0  0  0  0  0  0  0  0  0  0  0  0
   57.4860   30.6740   51.7480 C   0  0  0  0  0  0  0  0  0  0  0  0
   57.7770   30.0340   50.6990 O   0  0  0  0  0  0  0  0  0  0  0  0
   58.3370   31.7550   52.2050 N   0  0  0  0  0  0  0  0  0  0  0  0
   57.5130   32.9390   52.5280 C   0  0  0  0  0  0  0  0  0  0  0  0
   58.3830   34.2070   52.6750 C   0  0  0  0  0  0  0  0  0  0  0  0
   59.7370   33.8670   52.8960 O   0  0  0  0  0  0  0  0  0  0  0  0
   60.2750   33.2350   51.7470 C   0  0  0  0  0  0  0  0  0  0  0  0
   59.3650   32.1090   51.2050 C   0  0  0  0  0  0  0  0  0  0  0  0
   55.9050   29.6080   53.4280 N   0  0  0  0  0  0  0  0  0  0  0  0
   56.8590   28.7330   54.1410 C   0  0  0  0  0  0  0  0  0  0  0  0
   58.2300   29.3500   54.2600 C   0  0  0  0  0  0  0  0  0  0  0  0
   59.3680   28.6710   53.7960 C   0  0  0  0  0  0  0  0  0  0  0  0
   60.6330   29.2390   53.9520 C   0  0  0  0  0  0  0  0  0  0  0  0
   60.7540   30.4740   54.5960 C   0  0  0  0  0  0  0  0  0  0  0  0
   61.8880   31.0010   54.7440 O   0  0  0  0  0  0  0  0  0  0  0  0
   59.6460   31.1040   55.0700 N   0  0  0  0  0  0  0  0  0  0  0  0
   58.4030   30.5730   54.9260 C   0  0  0  0  0  0  0  0  0  0  0  0
  1  2  2  0
  2  3  1  0
  3  4  2  3
  4  5  1  0
  5  6  1  0
  6  7  1  0
  7  8  2  0
  7  9  1  0
  9 10  1  0
 10 11  1  0
  3 12  1  0
 12 13  2  0
 13 14  1  0
 14 15  2  0
 14 16  1  0
 16 17  1  0
 17 18  1  0
 18 19  1  0
 19 20  1  0
 20 21  1  0
 13 22  1  0
 22 23  1  0
 23 24  1  0
 24 25  1  0
 25 26  2  0
 26 27  1  0
 27 28  2  0
 27 29  1  0
 29 30  1  0
 22  2  1  0
 30 24  2  0
 10  5  2  0
 21 16  1  0
M  CHG  5   6  -1   9  -1  11  -1  16   1  29  -1
M  END
>  <UniqueID>  (2313) 
65

>  <SMILES>  (2313) 
C=c1c(=Cc2[n-]c(=O)[n-]c2[O-])cc(C(=O)[NH+]2CCOCC2)n1Cc1ccc(=O)[n-]c1

>  <Energy>  (2313) 
141.11336275604282

>  <Genealogy>  (2313) 
C=c1c(=Cc2[n-]c(=O)[n-]c2[O-])cc(C(=O)[NH+]2CCOCC2)n1Cc1ccc(=O)[n-]c1 (protonated)
C=c1c(=Cc2[n-]c(=O)[n-]c2[O-])cc(C(=O)[NH+]2CCOCC2)n1Cc1ccc(=O)[n-]c1 (3D coordinates assigned)
C=c1c(=Cc2[n-]c(=O)[n-]c2[O-])cc(C(=O)[NH+]2CCOCC2)n1Cc1ccc(=O)[n-]c1 (nonaromatic ring conformer: 141.11336275604282 kcal/mol)

>  <smiles>  (2313) 
C=c1c(=Cc2[nH]c(=O)[nH]c2O)cc(C(=O)N2CCOCC2)n1Cc1ccc(=O)[nH]c1

>  <score_type>  (2313) 
oracle

>  <origin>  (2313) 
adg

>  <m_score__min__energy>  (2313) 
-16.239999999999998

>  <m_primary>  (2313) 
energy

$$$$
73:0
     RDKit          3D

 30 32  0  0  0  0  0  0  0  0999 V2000
   65.5960   32.7580   49.8140 C   0  0  0  0  0  0  0  0  0  0  0  0
   64.2120   32.3390   49.5270 N   0  0  0  0  0  0  0  0  0  0  0  0
   63.4510   33.0630   48.6490 C   0  0  0  0  0  0  0  0  0  0  0  0
   63.9390   34.0790   48.0780 O   0  0  0  0  0  0  0  0  0  0  0  0
   62.1290   32.6850   48.3840 C   0  0  0  0  0  0  0  0  0  0  0  0
   61.3350   33.4060   47.4690 C   0  0  0  0  0  0  0  0  0  0  0  0
   60.0190   33.0190   47.2090 C   0  0  0  0  0  0  0  0  0  0  0  0
   59.0400   33.9510   46.0780 S   0  0  0  0  0  0  0  0  0  0  0  0
   58.9370   35.3640   46.5800 O   0  0  0  0  0  0  0  0  0  0  0  0
   59.6930   33.9790   44.7240 O   0  0  0  0  0  0  0  0  0  0  0  0
   57.4390   33.2810   45.9450 N   0  0  0  0  0  0  0  0  0  0  0  0
   57.1990   32.7220   44.6130 C   0  0  0  0  0  0  0  0  0  0  0  0
   57.4920   31.2480   44.5800 C   0  0  0  0  0  0  0  0  0  0  0  0
   58.4970   30.8360   43.9430 O   0  0  0  0  0  0  0  0  0  0  0  0
   56.6530   30.2950   45.2430 N   0  0  0  0  0  0  0  0  0  0  0  0
   56.3280   28.9760   44.7140 C   0  0  0  0  0  0  0  0  0  0  0  0
   57.1130   27.9330   45.4610 C   0  0  0  0  0  0  0  0  0  0  0  0
   58.5160   28.0150   45.5130 C   0  0  0  0  0  0  0  0  0  0  0  0
   59.2560   27.0350   46.1790 C   0  0  0  0  0  0  0  0  0  0  0  0
   58.6060   25.9600   46.7900 C   0  0  0  0  0  0  0  0  0  0  0  0
   57.2140   25.8600   46.7300 C   0  0  0  0  0  0  0  0  0  0  0  0
   56.4650   26.8380   46.0650 C   0  0  0  0  0  0  0  0  0  0  0  0
   55.0810   26.7120   46.0050 O   0  0  0  0  0  0  0  0  0  0  0  0
   59.4830   31.9120   47.8690 C   0  0  0  0  0  0  0  0  0  0  0  0
   60.2560   31.1900   48.7790 C   0  0  0  0  0  0  0  0  0  0  0  0
   61.5950   31.5620   49.0540 C   0  0  0  0  0  0  0  0  0  0  0  0
   62.3740   30.8700   49.9570 N   0  0  0  0  0  0  0  0  0  0  0  0
   61.8240   29.7020   50.6770 C   0  0  0  0  0  0  0  0  0  0  0  0
   63.6690   31.2720   50.1960 C   0  0  0  0  0  0  0  0  0  0  0  0
   64.3730   30.6540   51.0460 O   0  0  0  0  0  0  0  0  0  0  0  0
  1  2  1  0
  2  3  1  0
  3  4  2  0
  3  5  1  0
  5  6  2  0
  6  7  1  0
  7  8  1  0
  8  9  2  0
  8 10  2  0
  8 11  1  0
 11 12  1  0
 12 13  1  0
 13 14  2  0
 13 15  1  0
 15 16  1  0
 16 17  1  0
 17 18  2  0
 18 19  1  0
 19 20  2  0
 20 21  1  0
 21 22  2  0
 22 23  1  0
  7 24  2  0
 24 25  1  0
 25 26  2  0
 26 27  1  0
 27 28  1  0
 27 29  1  0
 29 30  2  0
 29  2  1  0
 26  5  1  0
 22 17  1  0
M  CHG  3  11  -1  15  -1  23  -1
M  END
>  <UniqueID>  (2314) 
69

>  <SMILES>  (2314) 
Cn1c(=O)c2cc(S(=O)(=O)[N-]CC(=O)[N-]Cc3ccccc3[O-])ccc2n(C)c1=O

>  <Energy>  (2314) 
61.00292574997998

>  <Genealogy>  (2314) 
Cn1c(=O)c2cc(S(=O)(=O)[N-]CC(=O)[N-]Cc3ccccc3[O-])ccc2n(C)c1=O (protonated)
Cn1c(=O)c2cc(S(=O)(=O)[N-]CC(=O)[N-]Cc3ccccc3[O-])ccc2n(C)c1=O (3D coordinates assigned)
Cn1c(=O)c2cc(S(=O)(=O)[N-]CC(=O)[N-]Cc3ccccc3[O-])ccc2n(C)c1=O (optimized conformer: 61.00292574997998 kcal/mol)

>  <smiles>  (2314) 
Cn1c(=O)c2cc(S(=O)(=O)NCC(=O)NCc3ccccc3O)ccc2n(C)c1=O

>  <score_type>  (2314) 
oracle

>  <origin>  (2314) 
adg

>  <m_score__min__energy>  (2314) 
-15.130000000000001

>  <m_primary>  (2314) 
energy

$$$$
74:0
     RDKit          3D

 36 39  0  0  0  0  0  0  0  0999 V2000
   60.2570   29.4130   46.5360 C   0  0  0  0  0  0  0  0  0  0  0  0
   59.1330   29.4280   45.8020 C   0  0  0  0  0  0  0  0  0  0  0  0
   58.5140   28.3310   45.1810 C   0  0  0  0  0  0  0  0  0  0  0  0
   58.7170   27.0070   45.3170 C   0  0  0  0  0  0  0  0  0  0  0  0
   57.8510   26.0800   46.0640 C   0  0  0  0  0  0  0  0  0  0  0  0
   58.3020   25.0800   46.8450 N   0  0  0  0  0  0  0  0  0  0  0  0
   57.1790   24.6030   47.4230 C   0  0  0  0  0  0  0  0  0  0  0  0
   57.1890   23.6360   48.2280 O   0  0  0  0  0  0  0  0  0  0  0  0
   56.0460   25.2520   47.0810 N   0  0  0  0  0  0  0  0  0  0  0  0
   56.4880   26.1930   46.2290 C   0  0  0  0  0  0  0  0  0  0  0  0
   55.6560   27.1300   45.6220 O   0  0  0  0  0  0  0  0  0  0  0  0
   57.5550   28.8570   44.3300 C   0  0  0  0  0  0  0  0  0  0  0  0
   57.5660   30.2230   44.5120 C   0  0  0  0  0  0  0  0  0  0  0  0
   56.6640   31.1810   43.7920 C   0  0  0  0  0  0  0  0  0  0  0  0
   58.5210   30.5730   45.4020 N   0  0  0  0  0  0  0  0  0  0  0  0
   58.8490   31.9180   45.7970 C   0  0  0  0  0  0  0  0  0  0  0  0
   58.7240   32.9720   44.8800 C   0  0  0  0  0  0  0  0  0  0  0  0
   59.0520   34.2750   45.2590 C   0  0  0  0  0  0  0  0  0  0  0  0
   59.5150   34.5350   46.5500 C   0  0  0  0  0  0  0  0  0  0  0  0
   59.6620   33.4880   47.4760 C   0  0  0  0  0  0  0  0  0  0  0  0
   60.1470   33.7560   48.8470 C   0  0  0  0  0  0  0  0  0  0  0  0
   59.3640   34.2870   49.6810 O   0  0  0  0  0  0  0  0  0  0  0  0
   61.4840   33.4050   49.2520 N   0  0  0  0  0  0  0  0  0  0  0  0
   62.0610   32.1240   48.8120 C   0  0  0  0  0  0  0  0  0  0  0  0
   63.1860   31.6600   49.7430 C   0  0  0  0  0  0  0  0  0  0  0  0
   64.1400   32.7550   49.9730 N   0  0  0  0  0  0  0  0  0  0  0  0
   65.5500   32.4900   50.0910 C   0  0  0  0  0  0  0  0  0  0  0  0
   65.9690   31.3010   50.1080 O   0  0  0  0  0  0  0  0  0  0  0  0
   66.4480   33.5660   50.1900 O   0  0  0  0  0  0  0  0  0  0  0  0
   67.2870   33.8770   51.3130 C   0  0  0  0  0  0  0  0  0  0  0  0
   68.7500   34.0570   50.8620 C   0  0  0  0  0  0  0  0  0  0  0  0
   67.2090   32.6880   52.2800 C   0  0  0  0  0  0  0  0  0  0  0  0
   66.7800   35.1400   52.0370 C   0  0  0  0  0  0  0  0  0  0  0  0
   63.6550   34.1260   50.1800 C   0  0  0  0  0  0  0  0  0  0  0  0
   62.1300   34.1750   50.3220 C   0  0  0  0  0  0  0  0  0  0  0  0
   59.3100   32.1830   47.0960 C   0  0  0  0  0  0  0  0  0  0  0  0
  1  2  2  0
  2  3  1  0
  3  4  2  3
  4  5  1  0
  5  6  1  0
  6  7  1  0
  7  8  2  0
  7  9  1  0
  9 10  1  0
 10 11  1  0
  3 12  1  0
 12 13  2  0
 13 14  1  0
 13 15  1  0
 15 16  1  0
 16 17  2  0
 17 18  1  0
 18 19  2  0
 19 20  1  0
 20 21  1  0
 21 22  2  0
 21 23  1  0
 23 24  1  0
 24 25  1  0
 25 26  1  0
 26 27  1  0
 27 28  2  0
 27 29  1  0
 29 30  1  0
 30 31  1  0
 30 32  1  0
 30 33  1  0
 26 34  1  0
 34 35  1  0
 20 36  2  0
 15  2  1  0
 36 16  1  0
 10  5  2  0
 35 23  1  0
M  CHG  2   6  -1   9  -1
M  END
>  <UniqueID>  (2315) 
70

>  <SMILES>  (2315) 
C=c1c(=Cc2[n-]c(=O)[n-]c2O)cc(C)n1-c1cccc(C(=O)N2CCN(C(=O)OC(C)(C)C)CC2)c1

>  <Energy>  (2315) 
140.98375534261152

>  <Genealogy>  (2315) 
C=c1c(=Cc2[n-]c(=O)[n-]c2O)cc(C)n1-c1cccc(C(=O)N2CCN(C(=O)OC(C)(C)C)CC2)c1 (protonated)
C=c1c(=Cc2[n-]c(=O)[n-]c2O)cc(C)n1-c1cccc(C(=O)N2CCN(C(=O)OC(C)(C)C)CC2)c1 (3D coordinates assigned)
C=c1c(=Cc2[n-]c(=O)[n-]c2O)cc(C)n1-c1cccc(C(=O)N2CCN(C(=O)OC(C)(C)C)CC2)c1 (nonaromatic ring conformer: 140.98375534261152 kcal/mol)

>  <smiles>  (2315) 
C=c1c(=Cc2[nH]c(=O)[nH]c2O)cc(C)n1-c1cccc(C(=O)N2CCN(C(=O)OC(C)(C)C)CC2)c1

>  <score_type>  (2315) 
oracle

>  <origin>  (2315) 
adg

>  <m_score__min__energy>  (2315) 
-14.23

>  <m_primary>  (2315) 
energy

$$$$
77:0
     RDKit          3D

 28 31  0  0  0  0  0  0  0  0999 V2000
   53.5290   28.1890   52.9190 C   0  0  0  0  0  0  0  0  0  0  0  0
   54.3540   29.2490   52.8190 C   0  0  0  0  0  0  0  0  0  0  0  0
   55.5530   29.2150   53.5560 C   0  0  0  0  0  0  0  0  0  0  0  0
   56.5270   30.1340   53.3410 N   0  0  0  0  0  0  0  0  0  0  0  0
   56.3970   31.1230   52.4200 C   0  0  0  0  0  0  0  0  0  0  0  0
   57.5070   32.0730   52.2200 C   0  0  0  0  0  0  0  0  0  0  0  0
   57.3210   33.2900   52.4990 O   0  0  0  0  0  0  0  0  0  0  0  0
   58.7900   31.6420   51.7220 N   0  0  0  0  0  0  0  0  0  0  0  0
   60.0180   32.2560   52.2330 C   0  0  0  0  0  0  0  0  0  0  0  0
   61.0200   31.1600   52.6040 C   0  0  0  0  0  0  0  0  0  0  0  0
   61.0700   30.1040   51.5810 N   0  0  0  0  0  0  0  0  0  0  0  0
   62.0150   29.0350   51.7370 C   0  0  0  0  0  0  0  0  0  0  0  0
   63.2320   29.2450   51.4760 O   0  0  0  0  0  0  0  0  0  0  0  0
   61.6340   27.7150   52.3580 C   0  0  0  0  0  0  0  0  0  0  0  0
   60.1760   27.5070   52.7450 C   0  0  0  0  0  0  0  0  0  0  0  0
   60.7280   26.8550   51.4890 C   0  0  0  0  0  0  0  0  0  0  0  0
   60.3270   30.2530   50.3230 C   0  0  0  0  0  0  0  0  0  0  0  0
   58.8740   30.6800   50.6060 C   0  0  0  0  0  0  0  0  0  0  0  0
   55.2310   31.2020   51.6530 C   0  0  0  0  0  0  0  0  0  0  0  0
   54.1460   30.3360   51.9020 C   0  0  0  0  0  0  0  0  0  0  0  0
   52.9740   30.6180   51.2800 C   0  0  0  0  0  0  0  0  0  0  0  0
   51.8450   31.3380   51.8960 C   0  0  0  0  0  0  0  0  0  0  0  0
   51.5020   31.2420   53.1940 N   0  0  0  0  0  0  0  0  0  0  0  0
   50.5030   32.1430   53.3200 C   0  0  0  0  0  0  0  0  0  0  0  0
   49.9120   32.3450   54.4090 O   0  0  0  0  0  0  0  0  0  0  0  0
   50.1950   32.8050   52.1820 N   0  0  0  0  0  0  0  0  0  0  0  0
   51.0560   32.2920   51.2950 C   0  0  0  0  0  0  0  0  0  0  0  0
   51.1390   32.6970   49.9670 O   0  0  0  0  0  0  0  0  0  0  0  0
  1  2  2  0
  2  3  1  0
  3  4  2  0
  4  5  1  0
  5  6  1  0
  6  7  2  0
  6  8  1  0
  8  9  1  0
  9 10  1  0
 10 11  1  0
 11 12  1  0
 12 13  2  0
 12 14  1  0
 14 15  1  0
 15 16  1  0
 11 17  1  0
 17 18  1  0
  5 19  2  0
 19 20  1  0
 20 21  2  3
 21 22  1  0
 22 23  1  0
 23 24  1  0
 24 25  2  0
 24 26  1  0
 26 27  1  0
 27 28  1  0
 20  2  1  0
 27 22  2  0
 18  8  1  0
 16 14  1  0
M  CHG  3  23  -1  26  -1  28  -1
M  END
>  <UniqueID>  (2316) 
72

>  <SMILES>  (2316) 
C=c1cnc(C(=O)N2CCN(C(=O)C3CC3)CC2)cc1=Cc1[n-]c(=O)[n-]c1[O-]

>  <Energy>  (2316) 
373.16729940666096

>  <Genealogy>  (2316) 
C=c1cnc(C(=O)N2CCN(C(=O)C3CC3)CC2)cc1=Cc1[n-]c(=O)[n-]c1[O-] (protonated)
C=c1cnc(C(=O)N2CCN(C(=O)C3CC3)CC2)cc1=Cc1[n-]c(=O)[n-]c1[O-] (3D coordinates assigned)
C=c1cnc(C(=O)N2CCN(C(=O)C3CC3)CC2)cc1=Cc1[n-]c(=O)[n-]c1[O-] (nonaromatic ring conformer: 373.16729940666096 kcal/mol)

>  <smiles>  (2316) 
C=c1cnc(C(=O)N2CCN(C(=O)C3CC3)CC2)cc1=Cc1[nH]c(=O)[nH]c1O

>  <score_type>  (2316) 
oracle

>  <origin>  (2316) 
adg

>  <m_score__min__energy>  (2316) 
-16.550000000000001

>  <m_primary>  (2316) 
energy

$$$$
1:0
     RDKit          3D

 30 33  0  0  0  0  0  0  0  0999 V2000
   59.2850   28.1110   47.1760 C   0  0  0  0  0  0  0  0  0  0  0  0
   58.8310   28.9760   46.2550 C   0  0  0  0  0  0  0  0  0  0  0  0
   57.8660   28.7330   45.2600 C   0  0  0  0  0  0  0  0  0  0  0  0
   57.2820   27.5880   44.8540 C   0  0  0  0  0  0  0  0  0  0  0  0
   57.1720   26.3510   45.6500 C   0  0  0  0  0  0  0  0  0  0  0  0
   55.9520   25.9600   46.2260 C   0  0  0  0  0  0  0  0  0  0  0  0
   54.7990   26.7130   46.0270 O   0  0  0  0  0  0  0  0  0  0  0  0
   55.8900   24.8390   46.9910 N   0  0  0  0  0  0  0  0  0  0  0  0
   56.9990   24.0910   47.2260 C   0  0  0  0  0  0  0  0  0  0  0  0
   56.9190   23.0550   47.9340 O   0  0  0  0  0  0  0  0  0  0  0  0
   58.1960   24.4640   46.7030 N   0  0  0  0  0  0  0  0  0  0  0  0
   58.3090   25.5760   45.9320 C   0  0  0  0  0  0  0  0  0  0  0  0
   59.4360   25.8980   45.4700 O   0  0  0  0  0  0  0  0  0  0  0  0
   57.5800   29.9620   44.6900 C   0  0  0  0  0  0  0  0  0  0  0  0
   58.4010   30.8880   45.2980 C   0  0  0  0  0  0  0  0  0  0  0  0
   58.4220   32.3500   44.9680 C   0  0  0  0  0  0  0  0  0  0  0  0
   59.1580   30.2950   46.2470 N   0  0  0  0  0  0  0  0  0  0  0  0
   60.1100   30.9590   47.0990 C   0  0  0  0  0  0  0  0  0  0  0  0
   59.6860   31.8860   48.0560 C   0  0  0  0  0  0  0  0  0  0  0  0
   60.6200   32.5290   48.8700 C   0  0  0  0  0  0  0  0  0  0  0  0
   61.9880   32.2340   48.7250 C   0  0  0  0  0  0  0  0  0  0  0  0
   62.9860   32.8760   49.5470 N   0  0  0  0  0  0  0  0  0  0  0  0
   62.8250   34.2860   49.9190 C   0  0  0  0  0  0  0  0  0  0  0  0
   63.5520   34.5600   51.2400 C   0  0  0  0  0  0  0  0  0  0  0  0
   64.9970   34.2370   51.1670 N   0  0  0  0  0  0  0  0  0  0  0  0
   65.5330   33.9740   52.5110 C   0  0  0  0  0  0  0  0  0  0  0  0
   65.3430   33.1440   50.2230 C   0  0  0  0  0  0  0  0  0  0  0  0
   64.1900   32.1590   49.9860 C   0  0  0  0  0  0  0  0  0  0  0  0
   62.3730   31.3320   47.7770 N   0  0  0  0  0  0  0  0  0  0  0  0
   61.4800   30.6970   46.9720 C   0  0  0  0  0  0  0  0  0  0  0  0
  1  2  2  0
  2  3  1  0
  3  4  2  3
  4  5  1  0
  5  6  2  0
  6  7  1  0
  6  8  1  0
  8  9  1  0
  9 10  2  0
  9 11  1  0
 11 12  1  0
 12 13  2  0
  3 14  1  0
 14 15  2  0
 15 16  1  0
 15 17  1  0
 17 18  1  0
 18 19  2  0
 19 20  1  0
 20 21  2  0
 21 22  1  0
 22 23  1  0
 23 24  1  0
 24 25  1  0
 25 26  1  0
 25 27  1  0
 27 28  1  0
 21 29  1  0
 29 30  2  0
 17  2  1  0
 30 18  1  0
 12  5  1  0
 28 22  1  0
M  CHG  3   7  -1   8  -1  11  -1
M  END
>  <UniqueID>  (2317) 
2

>  <SMILES>  (2317) 
C=c1c(=Cc2c([O-])[n-]c(=O)[n-]c2=O)cc(C)n1-c1ccc(N2CCN(C)CC2)nc1

>  <Energy>  (2317) 
112.41401748044873

>  <Genealogy>  (2317) 
C=c1c(=Cc2c([O-])[n-]c(=O)[n-]c2=O)cc(C)n1-c1ccc(N2CCN(C)CC2)nc1 (protonated)
C=c1c(=Cc2c([O-])[n-]c(=O)[n-]c2=O)cc(C)n1-c1ccc(N2CCN(C)CC2)nc1 (3D coordinates assigned)
C=c1c(=Cc2c([O-])[n-]c(=O)[n-]c2=O)cc(C)n1-c1ccc(N2CCN(C)CC2)nc1 (nonaromatic ring conformer: 112.41401748044873 kcal/mol)

>  <smiles>  (2317) 
C=c1c(=Cc2c(O)[nH]c(=O)[nH]c2=O)cc(C)n1-c1ccc(N2CCN(C)CC2)nc1

>  <score_type>  (2317) 
oracle

>  <origin>  (2317) 
adg

>  <m_score__min__energy>  (2317) 
-15.41

>  <m_primary>  (2317) 
energy

$$$$
8:0
     RDKit          3D

 30 33  0  0  0  0  0  0  0  0999 V2000
   56.4780   29.5820   44.6430 C   0  0  0  0  0  0  0  0  0  0  0  0
   57.7020   29.2090   45.0480 C   0  0  0  0  0  0  0  0  0  0  0  0
   58.2870   27.9340   44.9460 C   0  0  0  0  0  0  0  0  0  0  0  0
   57.7650   26.7480   44.5790 C   0  0  0  0  0  0  0  0  0  0  0  0
   57.2630   25.7130   45.4910 C   0  0  0  0  0  0  0  0  0  0  0  0
   58.1800   24.4200   46.0650 S   0  0  0  0  0  0  0  0  0  0  0  0
   56.9640   23.9060   47.1080 C   0  0  0  0  0  0  0  0  0  0  0  0
   57.0490   22.9010   47.8610 O   0  0  0  0  0  0  0  0  0  0  0  0
   55.8790   24.7070   47.0580 N   0  0  0  0  0  0  0  0  0  0  0  0
   56.0470   25.7260   46.1770 C   0  0  0  0  0  0  0  0  0  0  0  0
   55.0820   26.7110   46.0000 O   0  0  0  0  0  0  0  0  0  0  0  0
   59.6180   28.0890   45.3000 C   0  0  0  0  0  0  0  0  0  0  0  0
   59.7870   29.4100   45.6580 C   0  0  0  0  0  0  0  0  0  0  0  0
   61.0880   30.0210   46.0790 C   0  0  0  0  0  0  0  0  0  0  0  0
   58.6310   30.0910   45.4960 N   0  0  0  0  0  0  0  0  0  0  0  0
   58.4640   31.5080   45.6830 C   0  0  0  0  0  0  0  0  0  0  0  0
   58.0480   32.2860   44.5940 C   0  0  0  0  0  0  0  0  0  0  0  0
   57.7980   33.6510   44.7540 C   0  0  0  0  0  0  0  0  0  0  0  0
   57.9570   34.2470   46.0050 C   0  0  0  0  0  0  0  0  0  0  0  0
   58.3790   33.4850   47.0980 C   0  0  0  0  0  0  0  0  0  0  0  0
   58.6520   32.1130   46.9510 C   0  0  0  0  0  0  0  0  0  0  0  0
   59.1390   31.3420   48.1190 C   0  0  0  0  0  0  0  0  0  0  0  0
   58.5060   30.3220   48.5040 O   0  0  0  0  0  0  0  0  0  0  0  0
   60.2670   31.8180   48.8680 N   0  0  0  0  0  0  0  0  0  0  0  0
   61.3850   32.3130   48.4150 C   0  0  0  0  0  0  0  0  0  0  0  0
   62.6500   31.8220   48.8000 C   0  0  0  0  0  0  0  0  0  0  0  0
   63.8010   32.3760   48.2350 C   0  0  0  0  0  0  0  0  0  0  0  0
   63.6930   33.3990   47.2940 C   0  0  0  0  0  0  0  0  0  0  0  0
   62.4270   33.8530   46.9230 C   0  0  0  0  0  0  0  0  0  0  0  0
   61.3170   33.3040   47.4840 N   0  0  0  0  0  0  0  0  0  0  0  0
  1  2  2  0
  2  3  1  0
  3  4  2  3
  4  5  1  0
  5  6  1  0
  6  7  1  0
  7  8  2  0
  7  9  1  0
  9 10  1  0
 10 11  1  0
  3 12  1  0
 12 13  2  0
 13 14  1  0
 13 15  1  0
 15 16  1  0
 16 17  2  0
 17 18  1  0
 18 19  2  0
 19 20  1  0
 20 21  2  0
 21 22  1  0
 22 23  2  0
 22 24  1  0
 24 25  2  3
 25 26  1  0
 26 27  2  0
 27 28  1  0
 28 29  2  0
 29 30  1  0
 15  2  1  0
 21 16  1  0
 30 25  1  0
 10  5  2  0
M  CHG  2  11  -1  30  -1
M  END
>  <UniqueID>  (2318) 
9

>  <SMILES>  (2318) 
C=c1c(=Cc2sc(=O)[nH]c2[O-])cc(C)n1-c1ccccc1C(=O)N=c1cccc[n-]1

>  <Energy>  (2318) 
136.34120100061222

>  <Genealogy>  (2318) 
C=c1c(=Cc2sc(=O)[nH]c2[O-])cc(C)n1-c1ccccc1C(=O)N=c1cccc[n-]1 (protonated)
C=c1c(=Cc2sc(=O)[nH]c2[O-])cc(C)n1-c1ccccc1C(=O)N=c1cccc[n-]1 (3D coordinates assigned)
C=c1c(=Cc2sc(=O)[nH]c2[O-])cc(C)n1-c1ccccc1C(=O)N=c1cccc[n-]1 (optimized conformer: 136.34120100061222 kcal/mol)

>  <smiles>  (2318) 
C=c1c(=Cc2sc(=O)[nH]c2O)cc(C)n1-c1ccccc1C(=O)N=c1cccc[nH]1

>  <score_type>  (2318) 
oracle

>  <origin>  (2318) 
adg

>  <m_score__min__energy>  (2318) 
-14.85

>  <m_primary>  (2318) 
energy

$$$$
11:0
     RDKit          3D

 35 39  0  0  0  0  0  0  0  0999 V2000
   56.5000   29.3270   44.4460 C   0  0  0  0  0  0  0  0  0  0  0  0
   57.7000   28.9710   44.9350 C   0  0  0  0  0  0  0  0  0  0  0  0
   58.2260   27.6710   45.0330 C   0  0  0  0  0  0  0  0  0  0  0  0
   57.6630   26.4650   44.8280 C   0  0  0  0  0  0  0  0  0  0  0  0
   57.1850   25.5490   45.8740 C   0  0  0  0  0  0  0  0  0  0  0  0
   57.8920   24.5170   46.3700 N   0  0  0  0  0  0  0  0  0  0  0  0
   57.0070   23.8950   47.1790 C   0  0  0  0  0  0  0  0  0  0  0  0
   57.3060   22.8730   47.8500 O   0  0  0  0  0  0  0  0  0  0  0  0
   55.7750   24.4470   47.2050 N   0  0  0  0  0  0  0  0  0  0  0  0
   55.9020   25.4850   46.3590 C   0  0  0  0  0  0  0  0  0  0  0  0
   54.8660   26.3530   46.0330 O   0  0  0  0  0  0  0  0  0  0  0  0
   59.5500   27.8190   45.4160 C   0  0  0  0  0  0  0  0  0  0  0  0
   59.7690   29.1670   45.5970 C   0  0  0  0  0  0  0  0  0  0  0  0
   61.0610   29.7510   46.0850 C   0  0  0  0  0  0  0  0  0  0  0  0
   58.6590   29.8710   45.2750 N   0  0  0  0  0  0  0  0  0  0  0  0
   58.5260   31.3060   45.2980 C   0  0  0  0  0  0  0  0  0  0  0  0
   58.0950   31.9650   44.1350 C   0  0  0  0  0  0  0  0  0  0  0  0
   57.9140   33.3500   44.1290 C   0  0  0  0  0  0  0  0  0  0  0  0
   58.1500   34.0900   45.2870 C   0  0  0  0  0  0  0  0  0  0  0  0
   58.5750   33.4490   46.4530 C   0  0  0  0  0  0  0  0  0  0  0  0
   58.7830   32.0600   46.4720 C   0  0  0  0  0  0  0  0  0  0  0  0
   59.2220   31.4290   47.7370 C   0  0  0  0  0  0  0  0  0  0  0  0
   58.5200   30.4980   48.2180 O   0  0  0  0  0  0  0  0  0  0  0  0
   60.4060   31.8620   48.4380 N   0  0  0  0  0  0  0  0  0  0  0  0
   61.1740   30.8730   49.2140 C   0  0  0  0  0  0  0  0  0  0  0  0
   61.9860   31.5300   50.3320 C   0  0  0  0  0  0  0  0  0  0  0  0
   62.7570   32.6630   49.8070 N   0  0  0  0  0  0  0  0  0  0  0  0
   64.0780   32.9450   50.3180 C   0  0  0  0  0  0  0  0  0  0  0  0
   65.2050   32.2880   49.7880 C   0  0  0  0  0  0  0  0  0  0  0  0
   66.4820   32.5600   50.2880 C   0  0  0  0  0  0  0  0  0  0  0  0
   66.6500   33.4870   51.3180 C   0  0  0  0  0  0  0  0  0  0  0  0
   65.5400   34.1450   51.8530 C   0  0  0  0  0  0  0  0  0  0  0  0
   64.2600   33.8770   51.3580 C   0  0  0  0  0  0  0  0  0  0  0  0
   62.1420   33.5850   48.8430 C   0  0  0  0  0  0  0  0  0  0  0  0
   60.6490   33.2980   48.6320 C   0  0  0  0  0  0  0  0  0  0  0  0
  1  2  2  0
  2  3  1  0
  3  4  2  3
  4  5  1  0
  5  6  1  0
  6  7  1  0
  7  8  2  0
  7  9  1  0
  9 10  1  0
 10 11  1  0
  3 12  1  0
 12 13  2  0
 13 14  1  0
 13 15  1  0
 15 16  1  0
 16 17  2  0
 17 18  1  0
 18 19  2  0
 19 20  1  0
 20 21  2  0
 21 22  1  0
 22 23  2  0
 22 24  1  0
 24 25  1  0
 25 26  1  0
 26 27  1  0
 27 28  1  0
 28 29  2  0
 29 30  1  0
 30 31  2  0
 31 32  1  0
 32 33  2  0
 27 34  1  0
 34 35  1  0
 15  2  1  0
 21 16  1  0
 35 24  1  0
 10  5  2  0
 33 28  1  0
M  CHG  2   6  -1   9  -1
M  END
>  <UniqueID>  (2319) 
12

>  <SMILES>  (2319) 
C=c1c(=Cc2[n-]c(=O)[n-]c2O)cc(C)n1-c1ccccc1C(=O)N1CCN(c2ccccc2)CC1

>  <Energy>  (2319) 
145.67026527715822

>  <Genealogy>  (2319) 
C=c1c(=Cc2[n-]c(=O)[n-]c2O)cc(C)n1-c1ccccc1C(=O)N1CCN(c2ccccc2)CC1 (protonated)
C=c1c(=Cc2[n-]c(=O)[n-]c2O)cc(C)n1-c1ccccc1C(=O)N1CCN(c2ccccc2)CC1 (3D coordinates assigned)
C=c1c(=Cc2[n-]c(=O)[n-]c2O)cc(C)n1-c1ccccc1C(=O)N1CCN(c2ccccc2)CC1 (nonaromatic ring conformer: 145.67026527715822 kcal/mol)

>  <smiles>  (2319) 
C=c1c(=Cc2[nH]c(=O)[nH]c2O)cc(C)n1-c1ccccc1C(=O)N1CCN(c2ccccc2)CC1

>  <score_type>  (2319) 
oracle

>  <origin>  (2319) 
adg

>  <m_score__min__energy>  (2319) 
-14.970000000000001

>  <m_primary>  (2319) 
energy

$$$$
13:0
     RDKit          3D

 35 38  0  0  0  0  0  0  0  0999 V2000
   59.8010   29.1740   44.5480 C   0  0  0  0  0  0  0  0  0  0  0  0
   59.3800   29.0280   45.8150 C   0  0  0  0  0  0  0  0  0  0  0  0
   58.6260   27.9560   46.3090 C   0  0  0  0  0  0  0  0  0  0  0  0
   58.1560   26.8990   45.6180 C   0  0  0  0  0  0  0  0  0  0  0  0
   57.3660   25.8060   46.2120 C   0  0  0  0  0  0  0  0  0  0  0  0
   57.9220   24.7380   46.8100 N   0  0  0  0  0  0  0  0  0  0  0  0
   56.8590   24.0560   47.2900 C   0  0  0  0  0  0  0  0  0  0  0  0
   56.9770   22.9710   47.9150 O   0  0  0  0  0  0  0  0  0  0  0  0
   55.6630   24.6370   47.0600 N   0  0  0  0  0  0  0  0  0  0  0  0
   56.0000   25.7510   46.3890 C   0  0  0  0  0  0  0  0  0  0  0  0
   55.0830   26.7180   45.9990 O   0  0  0  0  0  0  0  0  0  0  0  0
   58.4120   28.2170   47.6520 C   0  0  0  0  0  0  0  0  0  0  0  0
   59.0480   29.4090   47.9340 C   0  0  0  0  0  0  0  0  0  0  0  0
   59.0670   30.0460   49.2690 C   0  0  0  0  0  0  0  0  0  0  0  0
   58.4600   31.1380   49.4280 O   0  0  0  0  0  0  0  0  0  0  0  0
   59.7660   29.4460   50.3830 N   0  0  0  0  0  0  0  0  0  0  0  0
   59.5060   29.8830   51.7590 C   0  0  0  0  0  0  0  0  0  0  0  0
   60.7700   30.5230   52.3720 C   0  0  0  0  0  0  0  0  0  0  0  0
   62.0420   30.0320   51.7790 N   0  0  0  0  0  0  0  0  0  0  0  0
   62.5780   30.9740   50.7640 C   0  0  0  0  0  0  0  0  0  0  0  0
   61.6050   32.1230   50.4360 C   0  0  0  0  0  0  0  0  0  0  0  0
   62.1490   33.0810   49.3700 C   0  0  0  0  0  0  0  0  0  0  0  0
   63.3800   32.5190   48.7660 N   0  0  0  0  0  0  0  0  0  0  0  0
   63.3950   32.6990   47.3070 C   0  0  0  0  0  0  0  0  0  0  0  0
   64.5890   33.1110   49.3630 C   0  0  0  0  0  0  0  0  0  0  0  0
   61.9160   28.6360   51.2940 C   0  0  0  0  0  0  0  0  0  0  0  0
   60.8850   28.5190   50.1600 C   0  0  0  0  0  0  0  0  0  0  0  0
   59.6410   29.9070   46.8210 N   0  0  0  0  0  0  0  0  0  0  0  0
   60.4800   31.1180   46.7680 C   0  0  0  0  0  0  0  0  0  0  0  0
   59.6830   32.3310   46.3530 C   0  0  0  0  0  0  0  0  0  0  0  0
   60.2080   33.6280   46.4980 C   0  0  0  0  0  0  0  0  0  0  0  0
   59.4420   34.7430   46.1430 C   0  0  0  0  0  0  0  0  0  0  0  0
   58.1450   34.5770   45.6540 C   0  0  0  0  0  0  0  0  0  0  0  0
   57.6080   33.2950   45.5220 C   0  0  0  0  0  0  0  0  0  0  0  0
   58.3690   32.1760   45.8780 C   0  0  0  0  0  0  0  0  0  0  0  0
  1  2  2  0
  2  3  1  0
  3  4  2  0
  4  5  1  0
  5  6  1  0
  6  7  1  0
  7  8  2  0
  7  9  1  0
  9 10  1  0
 10 11  1  0
  3 12  1  0
 12 13  2  0
 13 14  1  0
 14 15  2  0
 14 16  1  0
 16 17  1  0
 17 18  1  0
 18 19  1  0
 19 20  1  0
 20 21  1  0
 21 22  1  0
 22 23  1  0
 23 24  1  0
 23 25  1  0
 19 26  1  0
 26 27  1  0
 13 28  1  0
 28 29  1  0
 29 30  1  0
 30 31  2  0
 31 32  1  0
 32 33  2  0
 33 34  1  0
 34 35  2  0
 28  2  1  0
 35 30  1  0
 10  5  2  0
 27 16  1  0
M  CHG  3   6  -1   9  -1  11  -1
M  END
>  <UniqueID>  (2320) 
14

>  <SMILES>  (2320) 
C=c1/c(=C/c2[n-]c(=O)[n-]c2[O-])cc(C(=O)N2CCN(CCCN(C)C)CC2)n1Cc1ccccc1

>  <Energy>  (2320) 
147.63226678615484

>  <Genealogy>  (2320) 
C=c1c(=Cc2[n-]c(=O)[n-]c2[O-])cc(C(=O)N2CCN(CCCN(C)C)CC2)n1Cc1ccccc1 (protonated)
C=c1/c(=C/c2[n-]c(=O)[n-]c2[O-])cc(C(=O)N2CCN(CCCN(C)C)CC2)n1Cc1ccccc1 (cis-trans isomerization)
C=c1/c(=C/c2[n-]c(=O)[n-]c2[O-])cc(C(=O)N2CCN(CCCN(C)C)CC2)n1Cc1ccccc1 (3D coordinates assigned)
C=c1/c(=C/c2[n-]c(=O)[n-]c2[O-])cc(C(=O)N2CCN(CCCN(C)C)CC2)n1Cc1ccccc1 (nonaromatic ring conformer: 147.63226678615484 kcal/mol)

>  <smiles>  (2320) 
C=c1c(=Cc2[nH]c(=O)[nH]c2O)cc(C(=O)N2CCN(CCCN(C)C)CC2)n1Cc1ccccc1

>  <score_type>  (2320) 
oracle

>  <origin>  (2320) 
adg

>  <m_score__min__energy>  (2320) 
-16.710000000000001

>  <m_primary>  (2320) 
energy

$$$$
34:0
     RDKit          3D

 31 34  0  0  0  0  0  0  0  0999 V2000
   57.5730   23.3600   47.4880 O   0  0  0  0  0  0  0  0  0  0  0  0
   57.1780   24.4660   47.0370 C   0  0  0  0  0  0  0  0  0  0  0  0
   55.8710   24.7490   46.8530 N   0  0  0  0  0  0  0  0  0  0  0  0
   55.9070   26.0000   46.3670 C   0  0  0  0  0  0  0  0  0  0  0  0
   54.7730   26.7120   45.9970 O   0  0  0  0  0  0  0  0  0  0  0  0
   57.2070   26.4380   46.2650 C   0  0  0  0  0  0  0  0  0  0  0  0
   57.6590   27.7690   45.8100 C   0  0  0  0  0  0  0  0  0  0  0  0
   57.0340   28.3350   44.6850 C   0  0  0  0  0  0  0  0  0  0  0  0
   57.3920   29.6030   44.2370 C   0  0  0  0  0  0  0  0  0  0  0  0
   58.3780   30.3270   44.9050 C   0  0  0  0  0  0  0  0  0  0  0  0
   59.0160   29.7810   46.0200 C   0  0  0  0  0  0  0  0  0  0  0  0
   58.6750   28.4940   46.4880 C   0  0  0  0  0  0  0  0  0  0  0  0
   59.3900   27.9030   47.5950 N   0  0  0  0  0  0  0  0  0  0  0  0
   60.4240   28.6180   48.3510 C   0  0  0  0  0  0  0  0  0  0  0  0
   59.8450   29.8120   49.0640 C   0  0  0  0  0  0  0  0  0  0  0  0
   59.0380   29.6450   50.1990 C   0  0  0  0  0  0  0  0  0  0  0  0
   58.4950   30.7590   50.8480 C   0  0  0  0  0  0  0  0  0  0  0  0
   58.7610   32.0480   50.3760 C   0  0  0  0  0  0  0  0  0  0  0  0
   58.2100   33.1090   51.0140 F   0  0  0  0  0  0  0  0  0  0  0  0
   59.5880   32.2300   49.2540 C   0  0  0  0  0  0  0  0  0  0  0  0
   59.9120   33.8470   48.6070 S   0  0  0  0  0  0  0  0  0  0  0  0
   61.3720   33.9410   48.2610 O   0  0  0  0  0  0  0  0  0  0  0  0
   59.6200   34.8850   49.6520 O   0  0  0  0  0  0  0  0  0  0  0  0
   58.9460   34.1870   47.1900 N   0  0  0  0  0  0  0  0  0  0  0  0
   59.7890   34.1860   45.9830 C   0  0  0  0  0  0  0  0  0  0  0  0
   58.9250   34.2280   44.7070 C   0  0  0  0  0  0  0  0  0  0  0  0
   57.5820   34.5590   45.0120 O   0  0  0  0  0  0  0  0  0  0  0  0
   57.0050   33.5380   45.8100 C   0  0  0  0  0  0  0  0  0  0  0  0
   57.8570   33.2110   47.0560 C   0  0  0  0  0  0  0  0  0  0  0  0
   60.1410   31.1080   48.6150 C   0  0  0  0  0  0  0  0  0  0  0  0
   58.0270   25.4600   46.6970 N   0  0  0  0  0  0  0  0  0  0  0  0
  1  2  2  0
  2  3  1  0
  3  4  1  0
  4  5  1  0
  4  6  2  0
  6  7  1  0
  7  8  2  0
  8  9  1  0
  9 10  2  0
 10 11  1  0
 11 12  2  0
 12 13  1  0
 13 14  1  0
 14 15  1  0
 15 16  2  0
 16 17  1  0
 17 18  2  0
 18 19  1  0
 18 20  1  0
 20 21  1  0
 21 22  2  0
 21 23  2  0
 21 24  1  0
 24 25  1  0
 25 26  1  0
 26 27  1  0
 27 28  1  0
 28 29  1  0
 20 30  2  0
  6 31  1  0
 31  2  1  0
 12  7  1  0
 30 15  1  0
 29 24  1  0
M  CHG  3   3  -1   5  -1  31  -1
M  END
>  <UniqueID>  (2321) 
32

>  <SMILES>  (2321) 
O=c1[n-]c([O-])c(-c2ccccc2NCc2ccc(F)c(S(=O)(=O)N3CCOCC3)c2)[n-]1

>  <Energy>  (2321) 
97.4584815897859

>  <Genealogy>  (2321) 
O=c1[n-]c([O-])c(-c2ccccc2NCc2ccc(F)c(S(=O)(=O)N3CCOCC3)c2)[n-]1 (protonated)
O=c1[n-]c([O-])c(-c2ccccc2NCc2ccc(F)c(S(=O)(=O)N3CCOCC3)c2)[n-]1 (3D coordinates assigned)
O=c1[n-]c([O-])c(-c2ccccc2NCc2ccc(F)c(S(=O)(=O)N3CCOCC3)c2)[n-]1 (nonaromatic ring conformer: 97.4584815897859 kcal/mol)

>  <smiles>  (2321) 
O=c1[nH]c(O)c(-c2ccccc2NCc2ccc(F)c(S(=O)(=O)N3CCOCC3)c2)[nH]1

>  <score_type>  (2321) 
oracle

>  <origin>  (2321) 
adg

>  <m_score__min__energy>  (2321) 
-18.02

>  <m_primary>  (2321) 
energy

$$$$
38:0
     RDKit          3D

 33 36  0  0  0  0  0  0  0  0999 V2000
   58.1880   27.1800   43.5120 C   0  0  0  0  0  0  0  0  0  0  0  0
   58.4600   26.7710   44.7650 C   0  0  0  0  0  0  0  0  0  0  0  0
   57.9390   25.6230   45.3740 C   0  0  0  0  0  0  0  0  0  0  0  0
   57.1490   24.6850   44.8140 C   0  0  0  0  0  0  0  0  0  0  0  0
   55.7250   24.5030   45.1460 C   0  0  0  0  0  0  0  0  0  0  0  0
   55.0490   23.3660   44.8990 N   0  0  0  0  0  0  0  0  0  0  0  0
   53.7860   23.6630   45.2770 C   0  0  0  0  0  0  0  0  0  0  0  0
   52.8460   22.8310   45.2080 O   0  0  0  0  0  0  0  0  0  0  0  0
   53.6110   24.9250   45.7250 N   0  0  0  0  0  0  0  0  0  0  0  0
   54.8430   25.4470   45.6240 C   0  0  0  0  0  0  0  0  0  0  0  0
   55.1420   26.7720   45.9200 O   0  0  0  0  0  0  0  0  0  0  0  0
   58.4590   25.5910   46.6570 C   0  0  0  0  0  0  0  0  0  0  0  0
   59.2570   26.7080   46.7890 C   0  0  0  0  0  0  0  0  0  0  0  0
   60.0320   27.0350   48.0300 C   0  0  0  0  0  0  0  0  0  0  0  0
   59.2890   27.4160   45.6340 N   0  0  0  0  0  0  0  0  0  0  0  0
   60.0390   28.6700   45.4250 C   0  0  0  0  0  0  0  0  0  0  0  0
   59.1420   29.8880   45.4930 C   0  0  0  0  0  0  0  0  0  0  0  0
   58.5480   30.3670   44.3100 C   0  0  0  0  0  0  0  0  0  0  0  0
   57.7750   31.5300   44.3230 C   0  0  0  0  0  0  0  0  0  0  0  0
   57.2060   31.9770   43.1770 F   0  0  0  0  0  0  0  0  0  0  0  0
   57.6120   32.2460   45.5080 C   0  0  0  0  0  0  0  0  0  0  0  0
   58.2050   31.7940   46.6880 C   0  0  0  0  0  0  0  0  0  0  0  0
   58.0940   32.5460   47.8110 F   0  0  0  0  0  0  0  0  0  0  0  0
   58.9470   30.6010   46.6990 C   0  0  0  0  0  0  0  0  0  0  0  0
   59.5220   30.1500   47.8920 O   0  0  0  0  0  0  0  0  0  0  0  0
   60.2270   31.0190   48.7820 C   0  0  0  0  0  0  0  0  0  0  0  0
   61.6660   31.2610   48.3200 C   0  0  0  0  0  0  0  0  0  0  0  0
   62.0790   32.6520   48.6200 N   0  0  0  0  0  0  0  0  0  0  0  0
   63.4970   32.8990   48.2950 C   0  0  0  0  0  0  0  0  0  0  0  0
   63.7030   33.0750   46.7840 C   0  0  0  0  0  0  0  0  0  0  0  0
   62.9190   34.1460   46.3000 O   0  0  0  0  0  0  0  0  0  0  0  0
   61.5490   33.8510   46.4820 C   0  0  0  0  0  0  0  0  0  0  0  0
   61.2140   33.6650   47.9750 C   0  0  0  0  0  0  0  0  0  0  0  0
  1  2  2  0
  2  3  1  0
  3  4  2  0
  4  5  1  0
  5  6  1  0
  6  7  1  0
  7  8  2  0
  7  9  1  0
  9 10  1  0
 10 11  1  0
  3 12  1  0
 12 13  2  0
 13 14  1  0
 13 15  1  0
 15 16  1  0
 16 17  1  0
 17 18  2  0
 18 19  1  0
 19 20  1  0
 19 21  2  0
 21 22  1  0
 22 23  1  0
 22 24  2  0
 24 25  1  0
 25 26  1  0
 26 27  1  0
 27 28  1  0
 28 29  1  0
 29 30  1  0
 30 31  1  0
 31 32  1  0
 32 33  1  0
 15  2  1  0
 24 17  1  0
 33 28  1  0
 10  5  2  0
M  CHG  3   6  -1   9  -1  11  -1
M  END
>  <UniqueID>  (2322) 
36

>  <SMILES>  (2322) 
C=c1/c(=C/c2[n-]c(=O)[n-]c2[O-])cc(C)n1Cc1cc(F)cc(F)c1OCCN1CCOCC1

>  <Energy>  (2322) 
135.41330999967997

>  <Genealogy>  (2322) 
C=c1c(=Cc2[n-]c(=O)[n-]c2[O-])cc(C)n1Cc1cc(F)cc(F)c1OCCN1CCOCC1 (protonated)
C=c1/c(=C/c2[n-]c(=O)[n-]c2[O-])cc(C)n1Cc1cc(F)cc(F)c1OCCN1CCOCC1 (cis-trans isomerization)
C=c1/c(=C/c2[n-]c(=O)[n-]c2[O-])cc(C)n1Cc1cc(F)cc(F)c1OCCN1CCOCC1 (3D coordinates assigned)
C=c1/c(=C/c2[n-]c(=O)[n-]c2[O-])cc(C)n1Cc1cc(F)cc(F)c1OCCN1CCOCC1 (nonaromatic ring conformer: 135.41330999967997 kcal/mol)

>  <smiles>  (2322) 
C=c1c(=Cc2[nH]c(=O)[nH]c2O)cc(C)n1Cc1cc(F)cc(F)c1OCCN1CCOCC1

>  <score_type>  (2322) 
oracle

>  <origin>  (2322) 
adg

>  <m_score__min__energy>  (2322) 
-15.970000000000001

>  <m_primary>  (2322) 
energy

$$$$
51:0
     RDKit          3D

 31 34  0  0  0  0  0  0  0  0999 V2000
   51.7290   27.3390   53.6540 C   0  0  0  0  0  0  0  0  0  0  0  0
   52.7890   28.1180   53.3850 C   0  0  0  0  0  0  0  0  0  0  0  0
   52.8100   29.2520   52.5550 C   0  0  0  0  0  0  0  0  0  0  0  0
   51.8100   29.9590   51.9930 C   0  0  0  0  0  0  0  0  0  0  0  0
   51.3510   31.2880   52.4260 C   0  0  0  0  0  0  0  0  0  0  0  0
   51.0940   31.6040   53.7070 N   0  0  0  0  0  0  0  0  0  0  0  0
   50.5890   32.8550   53.6240 C   0  0  0  0  0  0  0  0  0  0  0  0
   50.2370   33.5110   54.6380 O   0  0  0  0  0  0  0  0  0  0  0  0
   50.4810   33.3410   52.3690 N   0  0  0  0  0  0  0  0  0  0  0  0
   50.9530   32.3310   51.6200 C   0  0  0  0  0  0  0  0  0  0  0  0
   50.9940   32.3530   50.2330 O   0  0  0  0  0  0  0  0  0  0  0  0
   54.1440   29.5710   52.3740 C   0  0  0  0  0  0  0  0  0  0  0  0
   54.8790   28.6830   53.1330 C   0  0  0  0  0  0  0  0  0  0  0  0
   56.3580   28.6580   53.1670 C   0  0  0  0  0  0  0  0  0  0  0  0
   56.9520   27.5770   53.4260 O   0  0  0  0  0  0  0  0  0  0  0  0
   57.1260   29.8280   52.8370 N   0  0  0  0  0  0  0  0  0  0  0  0
   56.7360   31.1530   53.3380 C   0  0  0  0  0  0  0  0  0  0  0  0
   56.7890   32.2040   52.2150 C   0  0  0  0  0  0  0  0  0  0  0  0
   57.8830   31.9240   51.1510 C   0  0  0  0  0  0  0  0  0  0  0  0
   58.4710   33.1500   50.7070 O   0  0  0  0  0  0  0  0  0  0  0  0
   59.6120   33.2670   49.8940 C   0  0  0  0  0  0  0  0  0  0  0  0
   60.8840   33.5710   50.4150 C   0  0  0  0  0  0  0  0  0  0  0  0
   61.9810   33.6760   49.5620 C   0  0  0  0  0  0  0  0  0  0  0  0
   61.8070   33.4810   48.1940 C   0  0  0  0  0  0  0  0  0  0  0  0
   60.5750   33.1910   47.6950 N   0  0  0  0  0  0  0  0  0  0  0  0
   59.4810   33.0830   48.5040 C   0  0  0  0  0  0  0  0  0  0  0  0
   58.1380   32.7580   47.9140 C   0  0  0  0  0  0  0  0  0  0  0  0
   58.9910   31.0220   51.7090 C   0  0  0  0  0  0  0  0  0  0  0  0
   58.4080   29.6680   52.1370 C   0  0  0  0  0  0  0  0  0  0  0  0
   54.0570   27.8160   53.7700 N   0  0  0  0  0  0  0  0  0  0  0  0
   54.4720   26.7130   54.6460 C   0  0  0  0  0  0  0  0  0  0  0  0
  1  2  2  0
  2  3  1  0
  3  4  2  3
  4  5  1  0
  5  6  1  0
  6  7  1  0
  7  8  2  0
  7  9  1  0
  9 10  1  0
 10 11  1  0
  3 12  1  0
 12 13  2  0
 13 14  1  0
 14 15  2  0
 14 16  1  0
 16 17  1  0
 17 18  1  0
 18 19  1  0
 19 20  1  0
 20 21  1  0
 21 22  2  0
 22 23  1  0
 23 24  2  0
 24 25  1  0
 25 26  2  0
 26 27  1  0
 19 28  1  0
 28 29  1  0
 13 30  1  0
 30 31  1  0
 30  2  1  0
 10  5  2  0
 29 16  1  0
 26 21  1  0
M  CHG  4   6  -1   9  -1  11  -1  25   1
M  END
>  <UniqueID>  (2323) 
49

>  <SMILES>  (2323) 
C=c1c(=Cc2[n-]c(=O)[n-]c2[O-])cc(C(=O)N2CCC(Oc3ccc[nH+]c3C)CC2)n1C

>  <Energy>  (2323) 
133.68216288388808

>  <Genealogy>  (2323) 
C=c1c(=Cc2[n-]c(=O)[n-]c2[O-])cc(C(=O)N2CCC(Oc3ccc[nH+]c3C)CC2)n1C (protonated)
C=c1c(=Cc2[n-]c(=O)[n-]c2[O-])cc(C(=O)N2CCC(Oc3ccc[nH+]c3C)CC2)n1C (3D coordinates assigned)
C=c1c(=Cc2[n-]c(=O)[n-]c2[O-])cc(C(=O)N2CCC(Oc3ccc[nH+]c3C)CC2)n1C (nonaromatic ring conformer: 133.68216288388808 kcal/mol)

>  <smiles>  (2323) 
C=c1c(=Cc2[nH]c(=O)[nH]c2O)cc(C(=O)N2CCC(Oc3cccnc3C)CC2)n1C

>  <score_type>  (2323) 
oracle

>  <origin>  (2323) 
adg

>  <m_score__min__energy>  (2323) 
-16.309999999999999

>  <m_primary>  (2323) 
energy

$$$$
70:0
     RDKit          3D

 32 35  0  0  0  0  0  0  0  0999 V2000
   53.4150   29.5090   54.9500 C   0  0  0  0  0  0  0  0  0  0  0  0
   54.0460   29.8140   53.8050 C   0  0  0  0  0  0  0  0  0  0  0  0
   53.4400   30.2000   52.6050 C   0  0  0  0  0  0  0  0  0  0  0  0
   52.1240   30.3700   52.3710 C   0  0  0  0  0  0  0  0  0  0  0  0
   51.5670   30.8270   51.0840 C   0  0  0  0  0  0  0  0  0  0  0  0
   51.5640   30.0710   49.9720 N   0  0  0  0  0  0  0  0  0  0  0  0
   51.0510   30.8940   49.0340 C   0  0  0  0  0  0  0  0  0  0  0  0
   50.8750   30.5360   47.8400 O   0  0  0  0  0  0  0  0  0  0  0  0
   50.7510   32.1360   49.4720 N   0  0  0  0  0  0  0  0  0  0  0  0
   51.0940   32.0820   50.7690 C   0  0  0  0  0  0  0  0  0  0  0  0
   51.0210   33.1710   51.6280 O   0  0  0  0  0  0  0  0  0  0  0  0
   54.4720   30.4460   51.7110 C   0  0  0  0  0  0  0  0  0  0  0  0
   55.6510   30.2070   52.3870 C   0  0  0  0  0  0  0  0  0  0  0  0
   56.9870   30.4400   51.7960 C   0  0  0  0  0  0  0  0  0  0  0  0
   57.5790   29.4650   51.2530 O   0  0  0  0  0  0  0  0  0  0  0  0
   57.5290   31.7790   51.6690 N   0  0  0  0  0  0  0  0  0  0  0  0
   58.1900   31.9330   50.3430 C   0  0  0  0  0  0  0  0  0  0  0  0
   59.7130   31.7510   50.4020 C   0  0  0  0  0  0  0  0  0  0  0  0
   60.2980   32.6740   51.3850 N   0  0  0  0  0  0  0  0  0  0  0  0
   61.6550   33.1450   51.2540 C   0  0  0  0  0  0  0  0  0  0  0  0
   61.9970   34.2180   51.8240 O   0  0  0  0  0  0  0  0  0  0  0  0
   62.6610   32.4140   50.4020 C   0  0  0  0  0  0  0  0  0  0  0  0
   62.6590   32.9290   48.9870 C   0  0  0  0  0  0  0  0  0  0  0  0
   63.7740   32.7290   48.1550 C   0  0  0  0  0  0  0  0  0  0  0  0
   63.7560   33.1860   46.8320 C   0  0  0  0  0  0  0  0  0  0  0  0
   62.6240   33.8340   46.3300 C   0  0  0  0  0  0  0  0  0  0  0  0
   61.5070   34.0250   47.1470 C   0  0  0  0  0  0  0  0  0  0  0  0
   61.5210   33.5700   48.4700 C   0  0  0  0  0  0  0  0  0  0  0  0
   59.4600   33.1600   52.4870 C   0  0  0  0  0  0  0  0  0  0  0  0
   58.3970   32.1110   52.8320 C   0  0  0  0  0  0  0  0  0  0  0  0
   55.3960   29.7950   53.6520 N   0  0  0  0  0  0  0  0  0  0  0  0
   56.3860   29.3700   54.6470 C   0  0  0  0  0  0  0  0  0  0  0  0
  1  2  2  0
  2  3  1  0
  3  4  2  3
  4  5  1  0
  5  6  1  0
  6  7  1  0
  7  8  2  0
  7  9  1  0
  9 10  1  0
 10 11  1  0
  3 12  1  0
 12 13  2  0
 13 14  1  0
 14 15  2  0
 14 16  1  0
 16 17  1  0
 17 18  1  0
 18 19  1  0
 19 20  1  0
 20 21  2  0
 20 22  1  0
 22 23  1  0
 23 24  2  0
 24 25  1  0
 25 26  2  0
 26 27  1  0
 27 28  2  0
 19 29  1  0
 29 30  1  0
 13 31  1  0
 31 32  1  0
 31  2  1  0
 10  5  2  0
 30 16  1  0
 28 23  1  0
M  CHG  4   6  -1   9  -1  11  -1  16   1
M  END
>  <UniqueID>  (2324) 
64

>  <SMILES>  (2324) 
C=c1c(=Cc2[n-]c(=O)[n-]c2[O-])cc(C(=O)[NH+]2CCN(C(=O)Cc3ccccc3)CC2)n1C

>  <Energy>  (2324) 
138.24602678182623

>  <Genealogy>  (2324) 
C=c1c(=Cc2[n-]c(=O)[n-]c2[O-])cc(C(=O)[NH+]2CCN(C(=O)Cc3ccccc3)CC2)n1C (protonated)
C=c1c(=Cc2[n-]c(=O)[n-]c2[O-])cc(C(=O)[NH+]2CCN(C(=O)Cc3ccccc3)CC2)n1C (3D coordinates assigned)
C=c1c(=Cc2[n-]c(=O)[n-]c2[O-])cc(C(=O)[NH+]2CCN(C(=O)Cc3ccccc3)CC2)n1C (nonaromatic ring conformer: 138.24602678182623 kcal/mol)

>  <smiles>  (2324) 
C=c1c(=Cc2[nH]c(=O)[nH]c2O)cc(C(=O)N2CCN(C(=O)Cc3ccccc3)CC2)n1C

>  <score_type>  (2324) 
oracle

>  <origin>  (2324) 
adg

>  <m_score__min__energy>  (2324) 
-17.68

>  <m_primary>  (2324) 
energy

$$$$
77:0
     RDKit          3D

 29 31  0  0  0  0  0  0  0  0999 V2000
   53.9300   28.4670   52.7830 C   0  0  0  0  0  0  0  0  0  0  0  0
   54.7040   29.5530   52.6320 C   0  0  0  0  0  0  0  0  0  0  0  0
   54.3950   30.6940   51.8850 C   0  0  0  0  0  0  0  0  0  0  0  0
   53.2460   30.9540   51.2300 C   0  0  0  0  0  0  0  0  0  0  0  0
   52.0780   31.6060   51.8480 C   0  0  0  0  0  0  0  0  0  0  0  0
   51.7460   31.4540   53.1420 N   0  0  0  0  0  0  0  0  0  0  0  0
   50.5870   32.1390   53.2520 C   0  0  0  0  0  0  0  0  0  0  0  0
   49.9630   32.2440   54.3400 O   0  0  0  0  0  0  0  0  0  0  0  0
   50.1460   32.6960   52.1050 N   0  0  0  0  0  0  0  0  0  0  0  0
   51.0930   32.3410   51.2220 C   0  0  0  0  0  0  0  0  0  0  0  0
   51.0310   32.6370   49.8660 O   0  0  0  0  0  0  0  0  0  0  0  0
   55.4940   31.5350   51.9840 C   0  0  0  0  0  0  0  0  0  0  0  0
   56.4210   30.8850   52.7760 C   0  0  0  0  0  0  0  0  0  0  0  0
   57.7700   31.4000   53.0780 C   0  0  0  0  0  0  0  0  0  0  0  0
   58.0310   31.7250   54.2680 O   0  0  0  0  0  0  0  0  0  0  0  0
   58.7800   31.5440   52.0520 N   0  0  0  0  0  0  0  0  0  0  0  0
   59.5470   32.7890   51.9270 C   0  0  0  0  0  0  0  0  0  0  0  0
   59.0740   30.4230   51.1460 C   0  0  0  0  0  0  0  0  0  0  0  0
   59.7960   30.8910   49.8740 C   0  0  0  0  0  0  0  0  0  0  0  0
   58.8770   30.8810   48.6440 C   0  0  0  0  0  0  0  0  0  0  0  0
   59.1270   32.0770   47.8130 N   0  0  0  0  0  0  0  0  0  0  0  0
   59.2400   33.2890   48.6550 C   0  0  0  0  0  0  0  0  0  0  0  0
   59.2550   34.5780   47.8050 C   0  0  0  0  0  0  0  0  0  0  0  0
   59.5160   34.2570   46.3910 N   0  0  0  0  0  0  0  0  0  0  0  0
   59.6500   35.4900   45.6010 C   0  0  0  0  0  0  0  0  0  0  0  0
   58.4360   33.4100   45.8410 C   0  0  0  0  0  0  0  0  0  0  0  0
   58.0650   32.2640   46.8040 C   0  0  0  0  0  0  0  0  0  0  0  0
   55.9420   29.6840   53.1740 N   0  0  0  0  0  0  0  0  0  0  0  0
   56.6430   28.7050   54.0150 C   0  0  0  0  0  0  0  0  0  0  0  0
  1  2  2  0
  2  3  1  0
  3  4  2  3
  4  5  1  0
  5  6  1  0
  6  7  1  0
  7  8  2  0
  7  9  1  0
  9 10  1  0
 10 11  1  0
  3 12  1  0
 12 13  2  0
 13 14  1  0
 14 15  2  0
 14 16  1  0
 16 17  1  0
 16 18  1  0
 18 19  1  0
 19 20  1  0
 20 21  1  0
 21 22  1  0
 22 23  1  0
 23 24  1  0
 24 25  1  0
 24 26  1  0
 26 27  1  0
 13 28  1  0
 28 29  1  0
 28  2  1  0
 10  5  2  0
 27 21  1  0
M  CHG  3   6  -1   9  -1  11  -1
M  END
>  <UniqueID>  (2325) 
70

>  <SMILES>  (2325) 
C=c1c(=Cc2[n-]c(=O)[n-]c2[O-])cc(C(=O)N(C)CCCN2CCN(C)CC2)n1C

>  <Energy>  (2325) 
130.1139021911382

>  <Genealogy>  (2325) 
C=c1c(=Cc2[n-]c(=O)[n-]c2[O-])cc(C(=O)N(C)CCCN2CCN(C)CC2)n1C (protonated)
C=c1c(=Cc2[n-]c(=O)[n-]c2[O-])cc(C(=O)N(C)CCCN2CCN(C)CC2)n1C (3D coordinates assigned)
C=c1c(=Cc2[n-]c(=O)[n-]c2[O-])cc(C(=O)N(C)CCCN2CCN(C)CC2)n1C (nonaromatic ring conformer: 130.1139021911382 kcal/mol)

>  <smiles>  (2325) 
C=c1c(=Cc2[nH]c(=O)[nH]c2O)cc(C(=O)N(C)CCCN2CCN(C)CC2)n1C

>  <score_type>  (2325) 
oracle

>  <origin>  (2325) 
adg

>  <m_score__min__energy>  (2325) 
-17.91

>  <m_primary>  (2325) 
energy

$$$$
2:0
     RDKit          3D

 33 36  0  0  0  0  0  0  0  0999 V2000
   58.6580   30.1800   44.5040 C   0  0  0  0  0  0  0  0  0  0  0  0
   58.6790   29.8650   45.8080 C   0  0  0  0  0  0  0  0  0  0  0  0
   58.5360   28.5870   46.3570 C   0  0  0  0  0  0  0  0  0  0  0  0
   58.4060   27.4220   45.6940 C   0  0  0  0  0  0  0  0  0  0  0  0
   57.2370   26.5250   45.8420 C   0  0  0  0  0  0  0  0  0  0  0  0
   55.9250   26.9820   45.6270 C   0  0  0  0  0  0  0  0  0  0  0  0
   55.6810   28.3020   45.2670 O   0  0  0  0  0  0  0  0  0  0  0  0
   54.8800   26.1230   45.7510 N   0  0  0  0  0  0  0  0  0  0  0  0
   55.0790   24.8170   46.0630 C   0  0  0  0  0  0  0  0  0  0  0  0
   54.0950   24.0420   46.1760 O   0  0  0  0  0  0  0  0  0  0  0  0
   56.3380   24.3460   46.2480 N   0  0  0  0  0  0  0  0  0  0  0  0
   57.4170   25.1640   46.1370 C   0  0  0  0  0  0  0  0  0  0  0  0
   58.5720   24.6900   46.3110 O   0  0  0  0  0  0  0  0  0  0  0  0
   58.5910   28.7450   47.7360 C   0  0  0  0  0  0  0  0  0  0  0  0
   58.7660   30.0940   47.9720 C   0  0  0  0  0  0  0  0  0  0  0  0
   58.8750   30.7170   49.3300 C   0  0  0  0  0  0  0  0  0  0  0  0
   58.8140   30.7740   46.8060 N   0  0  0  0  0  0  0  0  0  0  0  0
   58.9950   32.1950   46.6710 C   0  0  0  0  0  0  0  0  0  0  0  0
   57.9350   32.9890   46.2110 C   0  0  0  0  0  0  0  0  0  0  0  0
   58.0930   34.3690   46.0830 C   0  0  0  0  0  0  0  0  0  0  0  0
   59.3100   34.9660   46.4150 C   0  0  0  0  0  0  0  0  0  0  0  0
   60.3720   34.1850   46.8800 C   0  0  0  0  0  0  0  0  0  0  0  0
   60.2220   32.7900   47.0190 C   0  0  0  0  0  0  0  0  0  0  0  0
   61.2540   31.9640   47.4960 O   0  0  0  0  0  0  0  0  0  0  0  0
   62.5260   31.7770   46.8770 C   0  0  0  0  0  0  0  0  0  0  0  0
   63.5450   32.7930   47.4310 C   0  0  0  0  0  0  0  0  0  0  0  0
   63.4450   33.0150   48.8890 N   0  0  0  0  0  0  0  0  0  0  0  0
   62.5930   34.1640   49.2580 C   0  0  0  0  0  0  0  0  0  0  0  0
   62.4010   34.2220   50.7780 C   0  0  0  0  0  0  0  0  0  0  0  0
   61.7750   32.9900   51.3230 N   0  0  0  0  0  0  0  0  0  0  0  0
   60.3780   33.2260   51.7140 C   0  0  0  0  0  0  0  0  0  0  0  0
   61.8630   31.8200   50.4190 C   0  0  0  0  0  0  0  0  0  0  0  0
   63.2090   31.7850   49.6830 C   0  0  0  0  0  0  0  0  0  0  0  0
  1  2  2  0
  2  3  1  0
  3  4  2  3
  4  5  1  0
  5  6  2  0
  6  7  1  0
  6  8  1  0
  8  9  1  0
  9 10  2  0
  9 11  1  0
 11 12  1  0
 12 13  2  0
  3 14  1  0
 14 15  2  0
 15 16  1  0
 15 17  1  0
 17 18  1  0
 18 19  2  0
 19 20  1  0
 20 21  2  0
 21 22  1  0
 22 23  2  0
 23 24  1  0
 24 25  1  0
 25 26  1  0
 26 27  1  0
 27 28  1  0
 28 29  1  0
 29 30  1  0
 30 31  1  0
 30 32  1  0
 32 33  1  0
 17  2  1  0
 23 18  1  0
 33 27  1  0
 12  5  1  0
M  CHG  3   7  -1   8  -1  11  -1
M  END
>  <UniqueID>  (2326) 
3

>  <SMILES>  (2326) 
C=c1c(=Cc2c([O-])[n-]c(=O)[n-]c2=O)cc(C)n1-c1ccccc1OCCN1CCN(C)CC1

>  <Energy>  (2326) 
120.46922784479953

>  <Genealogy>  (2326) 
C=c1c(=Cc2c([O-])[n-]c(=O)[n-]c2=O)cc(C)n1-c1ccccc1OCCN1CCN(C)CC1 (protonated)
C=c1c(=Cc2c([O-])[n-]c(=O)[n-]c2=O)cc(C)n1-c1ccccc1OCCN1CCN(C)CC1 (3D coordinates assigned)
C=c1c(=Cc2c([O-])[n-]c(=O)[n-]c2=O)cc(C)n1-c1ccccc1OCCN1CCN(C)CC1 (nonaromatic ring conformer: 120.46922784479953 kcal/mol)

>  <smiles>  (2326) 
C=c1c(=Cc2c(O)[nH]c(=O)[nH]c2=O)cc(C)n1-c1ccccc1OCCN1CCN(C)CC1

>  <score_type>  (2326) 
oracle

>  <origin>  (2326) 
adg

>  <m_score__min__energy>  (2326) 
-16.5

>  <m_primary>  (2326) 
energy

$$$$
6:0
     RDKit          3D

 31 34  0  0  0  0  0  0  0  0999 V2000
   58.1500   34.5710   52.0770 O   0  0  0  0  0  0  0  0  0  0  0  0
   59.2040   34.1130   52.8790 C   0  0  0  0  0  0  0  0  0  0  0  0
   59.2900   32.5710   52.8670 C   0  0  0  0  0  0  0  0  0  0  0  0
   59.6670   31.9720   51.5670 N   0  0  0  0  0  0  0  0  0  0  0  0
   60.5000   32.8590   50.7340 C   0  0  0  0  0  0  0  0  0  0  0  0
   61.0900   32.0570   49.5730 C   0  0  0  0  0  0  0  0  0  0  0  0
   60.0220   31.3580   48.8410 N   0  0  0  0  0  0  0  0  0  0  0  0
   60.1590   31.1410   47.4170 C   0  0  0  0  0  0  0  0  0  0  0  0
   61.1820   31.5530   46.8080 O   0  0  0  0  0  0  0  0  0  0  0  0
   59.1760   30.3580   46.6610 C   0  0  0  0  0  0  0  0  0  0  0  0
   59.3230   29.0000   46.4900 C   0  0  0  0  0  0  0  0  0  0  0  0
   58.2990   28.5850   45.6600 C   0  0  0  0  0  0  0  0  0  0  0  0
   58.0840   27.3290   45.2110 C   0  0  0  0  0  0  0  0  0  0  0  0
   57.4670   26.2350   45.9930 C   0  0  0  0  0  0  0  0  0  0  0  0
   58.1220   25.1960   46.5450 N   0  0  0  0  0  0  0  0  0  0  0  0
   57.1520   24.5280   47.2050 C   0  0  0  0  0  0  0  0  0  0  0  0
   57.3790   23.4760   47.8580 O   0  0  0  0  0  0  0  0  0  0  0  0
   55.9240   25.0800   47.1190 N   0  0  0  0  0  0  0  0  0  0  0  0
   56.1430   26.1610   46.3540 C   0  0  0  0  0  0  0  0  0  0  0  0
   55.1490   27.0630   45.9900 O   0  0  0  0  0  0  0  0  0  0  0  0
   57.5680   29.7380   45.3460 C   0  0  0  0  0  0  0  0  0  0  0  0
   56.5160   29.7810   44.5040 C   0  0  0  0  0  0  0  0  0  0  0  0
   58.0870   30.8270   45.9900 N   0  0  0  0  0  0  0  0  0  0  0  0
   57.5390   32.2100   45.9090 C   0  0  0  0  0  0  0  0  0  0  0  0
   57.9530   32.9130   44.5960 C   0  0  0  0  0  0  0  0  0  0  0  0
   59.2020   33.7790   44.7390 C   0  0  0  0  0  0  0  0  0  0  0  0
   59.0010   34.8120   45.8450 C   0  0  0  0  0  0  0  0  0  0  0  0
   58.8290   34.1190   47.1940 C   0  0  0  0  0  0  0  0  0  0  0  0
   57.6880   33.0810   47.1930 C   0  0  0  0  0  0  0  0  0  0  0  0
   59.0290   30.6080   49.6280 C   0  0  0  0  0  0  0  0  0  0  0  0
   58.5240   31.4530   50.7990 C   0  0  0  0  0  0  0  0  0  0  0  0
  1  2  1  0
  2  3  1  0
  3  4  1  0
  4  5  1  0
  5  6  1  0
  6  7  1  0
  7  8  1  0
  8  9  2  0
  8 10  1  0
 10 11  2  0
 11 12  1  0
 12 13  2  0
 13 14  1  0
 14 15  1  0
 15 16  1  0
 16 17  2  0
 16 18  1  0
 18 19  1  0
 19 20  1  0
 12 21  1  0
 21 22  2  0
 21 23  1  0
 23 24  1  0
 24 25  1  0
 25 26  1  0
 26 27  1  0
 27 28  1  0
 28 29  1  0
  7 30  1  0
 30 31  1  0
 31  4  1  0
 23 10  1  0
 29 24  1  0
 19 14  2  0
M  CHG  3  15  -1  18  -1  20  -1
M  END
>  <UniqueID>  (2327) 
7

>  <SMILES>  (2327) 
C=c1/c(=C/c2[n-]c(=O)[n-]c2[O-])cc(C(=O)N2CCN(CCO)CC2)n1C1CCCCC1

>  <Energy>  (2327) 
140.31370669029644

>  <Genealogy>  (2327) 
C=c1c(=Cc2[n-]c(=O)[n-]c2[O-])cc(C(=O)N2CCN(CCO)CC2)n1C1CCCCC1 (protonated)
C=c1/c(=C/c2[n-]c(=O)[n-]c2[O-])cc(C(=O)N2CCN(CCO)CC2)n1C1CCCCC1 (cis-trans isomerization)
C=c1/c(=C/c2[n-]c(=O)[n-]c2[O-])cc(C(=O)N2CCN(CCO)CC2)n1C1CCCCC1 (3D coordinates assigned)
C=c1/c(=C/c2[n-]c(=O)[n-]c2[O-])cc(C(=O)N2CCN(CCO)CC2)n1C1CCCCC1 (nonaromatic ring conformer: 140.31370669029644 kcal/mol)

>  <smiles>  (2327) 
C=c1c(=Cc2[nH]c(=O)[nH]c2O)cc(C(=O)N2CCN(CCO)CC2)n1C1CCCCC1

>  <score_type>  (2327) 
oracle

>  <origin>  (2327) 
adg

>  <m_score__min__energy>  (2327) 
-16.41

>  <m_primary>  (2327) 
energy

$$$$
10:0
     RDKit          3D

 29 31  0  0  0  0  0  0  0  0999 V2000
   58.1740   32.5060   48.4870 O   0  0  0  0  0  0  0  0  0  0  0  0
   58.2450   32.8300   47.1350 C   0  0  0  0  0  0  0  0  0  0  0  0
   58.5020   34.1520   46.7530 C   0  0  0  0  0  0  0  0  0  0  0  0
   58.5880   34.4880   45.4000 C   0  0  0  0  0  0  0  0  0  0  0  0
   58.4060   33.5070   44.4200 C   0  0  0  0  0  0  0  0  0  0  0  0
   58.1330   32.1800   44.7900 C   0  0  0  0  0  0  0  0  0  0  0  0
   57.9430   31.1220   43.7390 C   0  0  0  0  0  0  0  0  0  0  0  0
   57.4280   29.8570   44.3540 C   0  0  0  0  0  0  0  0  0  0  0  0
   58.3500   28.4880   44.6860 S   0  0  0  0  0  0  0  0  0  0  0  0
   57.0250   27.6360   45.2920 C   0  0  0  0  0  0  0  0  0  0  0  0
   57.0280   26.4060   45.7170 N   0  0  0  0  0  0  0  0  0  0  0  0
   55.9640   25.4460   45.6070 C   0  0  0  0  0  0  0  0  0  0  0  0
   54.7950   25.7260   45.9930 O   0  0  0  0  0  0  0  0  0  0  0  0
   56.2210   24.1440   44.9540 C   0  0  0  0  0  0  0  0  0  0  0  0
   56.2730   24.1030   43.5480 C   0  0  0  0  0  0  0  0  0  0  0  0
   56.6170   22.9260   42.8840 C   0  0  0  0  0  0  0  0  0  0  0  0
   56.9120   21.7740   43.6090 C   0  0  0  0  0  0  0  0  0  0  0  0
   56.8390   21.7860   45.0030 C   0  0  0  0  0  0  0  0  0  0  0  0
   56.4780   22.9580   45.6940 C   0  0  0  0  0  0  0  0  0  0  0  0
   56.3320   22.8910   47.1680 C   0  0  0  0  0  0  0  0  0  0  0  0
   57.2830   23.2440   47.9170 O   0  0  0  0  0  0  0  0  0  0  0  0
   55.0890   22.4660   47.7450 N   0  0  0  0  0  0  0  0  0  0  0  0
   53.7880   22.9280   47.2790 C   0  0  0  0  0  0  0  0  0  0  0  0
   53.3790   22.1700   46.0530 C   0  0  0  0  0  0  0  0  0  0  0  0
   52.5820   22.6890   45.2260 O   0  0  0  0  0  0  0  0  0  0  0  0
   53.9090   20.9110   45.8020 O   0  0  0  0  0  0  0  0  0  0  0  0
   55.8930   28.3700   45.2430 N   0  0  0  0  0  0  0  0  0  0  0  0
   56.1120   29.6100   44.7300 C   0  0  0  0  0  0  0  0  0  0  0  0
   58.0670   31.8440   46.1520 C   0  0  0  0  0  0  0  0  0  0  0  0
  1  2  1  0
  2  3  2  0
  3  4  1  0
  4  5  2  0
  5  6  1  0
  6  7  1  0
  7  8  1  0
  8  9  1  0
  9 10  1  0
 10 11  2  0
 11 12  1  0
 12 13  2  0
 12 14  1  0
 14 15  2  0
 15 16  1  0
 16 17  2  0
 17 18  1  0
 18 19  2  0
 19 20  1  0
 20 21  2  0
 20 22  1  0
 22 23  1  0
 23 24  1  0
 24 25  2  0
 24 26  1  0
 10 27  1  0
 27 28  1  0
  6 29  2  0
 29  2  1  0
 28  8  2  0
 19 14  1  0
M  CHG  3  22  -1  26  -1  27  -1
M  END
>  <UniqueID>  (2328) 
10

>  <SMILES>  (2328) 
O=C([O-])C[N-]C(=O)c1ccccc1C(=O)/N=c1/[n-]cc(Cc2cccc(O)c2)s1

>  <Energy>  (2328) 
82.8381319744414

>  <Genealogy>  (2328) 
O=C([O-])C[N-]C(=O)c1ccccc1C(=O)N=c1[n-]cc(Cc2cccc(O)c2)s1 (protonated)
O=C([O-])C[N-]C(=O)c1ccccc1C(=O)/N=c1/[n-]cc(Cc2cccc(O)c2)s1 (cis-trans isomerization)
O=C([O-])C[N-]C(=O)c1ccccc1C(=O)/N=c1/[n-]cc(Cc2cccc(O)c2)s1 (3D coordinates assigned)
O=C([O-])C[N-]C(=O)c1ccccc1C(=O)/N=c1/[n-]cc(Cc2cccc(O)c2)s1 (optimized conformer: 82.8381319744414 kcal/mol)

>  <smiles>  (2328) 
O=C(O)CNC(=O)c1ccccc1C(=O)N=c1[nH]cc(Cc2cccc(O)c2)s1

>  <score_type>  (2328) 
oracle

>  <origin>  (2328) 
adg

>  <m_score__min__energy>  (2328) 
-14.710000000000001

>  <m_primary>  (2328) 
energy

$$$$
24:0
     RDKit          3D

 35 38  0  0  0  0  0  0  0  0999 V2000
   57.8310   24.6100   47.0970 C   0  0  0  0  0  0  0  0  0  0  0  0
   58.1060   25.3560   46.0150 C   0  0  0  0  0  0  0  0  0  0  0  0
   57.4020   25.3530   44.7980 C   0  0  0  0  0  0  0  0  0  0  0  0
   56.4850   24.4860   44.3180 C   0  0  0  0  0  0  0  0  0  0  0  0
   55.1630   24.2370   44.9200 C   0  0  0  0  0  0  0  0  0  0  0  0
   54.4450   23.1110   44.7330 N   0  0  0  0  0  0  0  0  0  0  0  0
   53.2810   23.3790   45.3580 C   0  0  0  0  0  0  0  0  0  0  0  0
   52.3380   22.5450   45.4100 O   0  0  0  0  0  0  0  0  0  0  0  0
   53.2000   24.6120   45.9090 N   0  0  0  0  0  0  0  0  0  0  0  0
   54.3960   25.1460   45.6160 C   0  0  0  0  0  0  0  0  0  0  0  0
   54.7750   26.4350   45.9670 O   0  0  0  0  0  0  0  0  0  0  0  0
   57.8380   26.4640   44.0950 C   0  0  0  0  0  0  0  0  0  0  0  0
   58.8250   27.0550   44.8540 C   0  0  0  0  0  0  0  0  0  0  0  0
   59.4180   28.3690   44.5480 C   0  0  0  0  0  0  0  0  0  0  0  0
   60.6700   28.5080   44.6760 O   0  0  0  0  0  0  0  0  0  0  0  0
   58.5890   29.4880   44.1360 N   0  0  0  0  0  0  0  0  0  0  0  0
   57.1670   29.2110   44.4240 C   0  0  0  0  0  0  0  0  0  0  0  0
   56.2840   30.3980   43.9760 C   0  0  0  0  0  0  0  0  0  0  0  0
   57.0410   31.5550   43.6600 O   0  0  0  0  0  0  0  0  0  0  0  0
   57.9590   31.8350   44.7010 C   0  0  0  0  0  0  0  0  0  0  0  0
   59.0190   30.7220   44.8310 C   0  0  0  0  0  0  0  0  0  0  0  0
   59.0060   26.3790   46.0160 N   0  0  0  0  0  0  0  0  0  0  0  0
   60.0640   26.6540   47.0060 C   0  0  0  0  0  0  0  0  0  0  0  0
   59.8270   27.9770   47.6950 C   0  0  0  0  0  0  0  0  0  0  0  0
   60.7800   28.4950   48.5910 C   0  0  0  0  0  0  0  0  0  0  0  0
   60.6090   29.7640   49.1460 C   0  0  0  0  0  0  0  0  0  0  0  0
   59.4930   30.5440   48.8150 C   0  0  0  0  0  0  0  0  0  0  0  0
   59.4040   31.8490   49.3330 O   0  0  0  0  0  0  0  0  0  0  0  0
   60.4190   32.8400   49.1860 C   0  0  0  0  0  0  0  0  0  0  0  0
   60.5020   33.2890   47.7260 C   0  0  0  0  0  0  0  0  0  0  0  0
   59.4120   34.2490   47.4340 N   0  0  0  0  0  0  0  0  0  0  0  0
   58.1130   33.5600   47.3500 C   0  0  0  0  0  0  0  0  0  0  0  0
   59.6690   34.9830   46.1770 C   0  0  0  0  0  0  0  0  0  0  0  0
   58.5160   30.0080   47.9520 C   0  0  0  0  0  0  0  0  0  0  0  0
   58.6840   28.7420   47.3930 C   0  0  0  0  0  0  0  0  0  0  0  0
  1  2  2  0
  2  3  1  0
  3  4  2  3
  4  5  1  0
  5  6  1  0
  6  7  1  0
  7  8  2  0
  7  9  1  0
  9 10  1  0
 10 11  1  0
  3 12  1  0
 12 13  2  0
 13 14  1  0
 14 15  2  0
 14 16  1  0
 16 17  1  0
 17 18  1  0
 18 19  1  0
 19 20  1  0
 20 21  1  0
 13 22  1  0
 22 23  1  0
 23 24  1  0
 24 25  2  0
 25 26  1  0
 26 27  2  0
 27 28  1  0
 28 29  1  0
 29 30  1  0
 30 31  1  0
 31 32  1  0
 31 33  1  0
 27 34  1  0
 34 35  2  0
 22  2  1  0
 35 24  1  0
 10  5  2  0
 21 16  1  0
M  CHG  4   6  -1   9  -1  11  -1  16   1
M  END
>  <UniqueID>  (2329) 
24

>  <SMILES>  (2329) 
C=c1c(=Cc2[n-]c(=O)[n-]c2[O-])cc(C(=O)[NH+]2CCOCC2)n1Cc1ccc(OCCN(C)C)cc1

>  <Energy>  (2329) 
152.45221310474614

>  <Genealogy>  (2329) 
C=c1c(=Cc2[n-]c(=O)[n-]c2[O-])cc(C(=O)[NH+]2CCOCC2)n1Cc1ccc(OCCN(C)C)cc1 (protonated)
C=c1c(=Cc2[n-]c(=O)[n-]c2[O-])cc(C(=O)[NH+]2CCOCC2)n1Cc1ccc(OCCN(C)C)cc1 (3D coordinates assigned)
C=c1c(=Cc2[n-]c(=O)[n-]c2[O-])cc(C(=O)[NH+]2CCOCC2)n1Cc1ccc(OCCN(C)C)cc1 (nonaromatic ring conformer: 152.45221310474614 kcal/mol)

>  <smiles>  (2329) 
C=c1c(=Cc2[nH]c(=O)[nH]c2O)cc(C(=O)N2CCOCC2)n1Cc1ccc(OCCN(C)C)cc1

>  <score_type>  (2329) 
oracle

>  <origin>  (2329) 
adg

>  <m_score__min__energy>  (2329) 
-14.67

>  <m_primary>  (2329) 
energy

$$$$
26:0
     RDKit          3D

 36 40  0  0  0  0  0  0  0  0999 V2000
   55.8720   31.7200   52.3350 C   0  0  0  0  0  0  0  0  0  0  0  0
   55.2820   30.5510   52.6310 C   0  0  0  0  0  0  0  0  0  0  0  0
   53.9110   30.3180   52.8240 C   0  0  0  0  0  0  0  0  0  0  0  0
   52.8390   31.0880   52.5620 C   0  0  0  0  0  0  0  0  0  0  0  0
   52.1780   31.2150   51.2520 C   0  0  0  0  0  0  0  0  0  0  0  0
   52.1850   30.2700   50.2940 N   0  0  0  0  0  0  0  0  0  0  0  0
   51.3550   30.7720   49.3550 C   0  0  0  0  0  0  0  0  0  0  0  0
   51.1110   30.1720   48.2750 O   0  0  0  0  0  0  0  0  0  0  0  0
   50.7990   31.9620   49.6670 N   0  0  0  0  0  0  0  0  0  0  0  0
   51.3200   32.2200   50.8770 C   0  0  0  0  0  0  0  0  0  0  0  0
   51.0220   33.3550   51.6220 O   0  0  0  0  0  0  0  0  0  0  0  0
   53.8070   29.0410   53.3560 C   0  0  0  0  0  0  0  0  0  0  0  0
   55.0820   28.5180   53.3930 C   0  0  0  0  0  0  0  0  0  0  0  0
   55.4240   27.1380   53.8680 C   0  0  0  0  0  0  0  0  0  0  0  0
   55.9780   29.4320   52.9600 N   0  0  0  0  0  0  0  0  0  0  0  0
   57.4010   29.2440   52.8760 C   0  0  0  0  0  0  0  0  0  0  0  0
   58.0760   29.5600   51.6890 C   0  0  0  0  0  0  0  0  0  0  0  0
   59.4700   29.3860   51.5860 C   0  0  0  0  0  0  0  0  0  0  0  0
   60.2020   29.7210   50.3340 C   0  0  0  0  0  0  0  0  0  0  0  0
   61.4470   29.9320   50.3980 O   0  0  0  0  0  0  0  0  0  0  0  0
   59.5140   29.8560   49.0650 N   0  0  0  0  0  0  0  0  0  0  0  0
   59.7100   28.6600   48.2330 C   0  0  0  0  0  0  0  0  0  0  0  0
   58.8610   28.7270   46.9580 C   0  0  0  0  0  0  0  0  0  0  0  0
   58.7640   30.0760   46.3530 N   0  0  0  0  0  0  0  0  0  0  0  0
   58.0430   30.2300   45.0890 C   0  0  0  0  0  0  0  0  0  0  0  0
   57.2130   29.1990   44.5830 C   0  0  0  0  0  0  0  0  0  0  0  0
   56.5250   29.3520   43.3760 C   0  0  0  0  0  0  0  0  0  0  0  0
   56.6420   30.5320   42.6460 C   0  0  0  0  0  0  0  0  0  0  0  0
   57.4450   31.5670   43.1220 C   0  0  0  0  0  0  0  0  0  0  0  0
   58.1360   31.4240   44.3290 C   0  0  0  0  0  0  0  0  0  0  0  0
   59.2240   31.2900   47.0660 C   0  0  0  0  0  0  0  0  0  0  0  0
   60.0350   31.0190   48.3380 C   0  0  0  0  0  0  0  0  0  0  0  0
   60.1770   28.9080   52.7030 C   0  0  0  0  0  0  0  0  0  0  0  0
   59.5050   28.5970   53.8880 C   0  0  0  0  0  0  0  0  0  0  0  0
   58.1230   28.7630   53.9790 C   0  0  0  0  0  0  0  0  0  0  0  0
   57.4900   28.4840   55.1450 F   0  0  0  0  0  0  0  0  0  0  0  0
  1  2  2  0
  2  3  1  0
  3  4  2  3
  4  5  1  0
  5  6  1  0
  6  7  1  0
  7  8  2  0
  7  9  1  0
  9 10  1  0
 10 11  1  0
  3 12  1  0
 12 13  2  0
 13 14  1  0
 13 15  1  0
 15 16  1  0
 16 17  2  0
 17 18  1  0
 18 19  1  0
 19 20  2  0
 19 21  1  0
 21 22  1  0
 22 23  1  0
 23 24  1  0
 24 25  1  0
 25 26  2  0
 26 27  1  0
 27 28  2  0
 28 29  1  0
 29 30  2  0
 24 31  1  0
 31 32  1  0
 18 33  2  0
 33 34  1  0
 34 35  2  0
 35 36  1  0
 15  2  1  0
 35 16  1  0
 10  5  2  0
 32 21  1  0
 30 25  1  0
M  CHG  4   6  -1   9  -1  11  -1  21   1
M  END
>  <UniqueID>  (2330) 
26

>  <SMILES>  (2330) 
C=c1c(=Cc2[n-]c(=O)[n-]c2[O-])cc(C)n1-c1cc(C(=O)[NH+]2CCN(c3ccccc3)CC2)ccc1F

>  <Energy>  (2330) 
153.06474680729295

>  <Genealogy>  (2330) 
C=c1c(=Cc2[n-]c(=O)[n-]c2[O-])cc(C)n1-c1cc(C(=O)[NH+]2CCN(c3ccccc3)CC2)ccc1F (protonated)
C=c1c(=Cc2[n-]c(=O)[n-]c2[O-])cc(C)n1-c1cc(C(=O)[NH+]2CCN(c3ccccc3)CC2)ccc1F (3D coordinates assigned)
C=c1c(=Cc2[n-]c(=O)[n-]c2[O-])cc(C)n1-c1cc(C(=O)[NH+]2CCN(c3ccccc3)CC2)ccc1F (nonaromatic ring conformer: 153.06474680729295 kcal/mol)

>  <smiles>  (2330) 
C=c1c(=Cc2[nH]c(=O)[nH]c2O)cc(C)n1-c1cc(C(=O)N2CCN(c3ccccc3)CC2)ccc1F

>  <score_type>  (2330) 
oracle

>  <origin>  (2330) 
adg

>  <m_score__min__energy>  (2330) 
-17.27

>  <m_primary>  (2330) 
energy

$$$$
29:0
     RDKit          3D

 26 29  0  0  0  0  0  0  0  0999 V2000
   54.0850   28.0170   53.0850 C   0  0  0  0  0  0  0  0  0  0  0  0
   54.5890   29.2200   52.7610 C   0  0  0  0  0  0  0  0  0  0  0  0
   53.8570   30.3420   52.3500 C   0  0  0  0  0  0  0  0  0  0  0  0
   52.5210   30.4340   52.1910 C   0  0  0  0  0  0  0  0  0  0  0  0
   51.8690   30.8690   50.9420 C   0  0  0  0  0  0  0  0  0  0  0  0
   51.7470   30.0780   49.8610 N   0  0  0  0  0  0  0  0  0  0  0  0
   51.0370   30.8350   48.9960 C   0  0  0  0  0  0  0  0  0  0  0  0
   50.7260   30.4380   47.8420 O   0  0  0  0  0  0  0  0  0  0  0  0
   50.6780   32.0490   49.4680 N   0  0  0  0  0  0  0  0  0  0  0  0
   51.1970   32.0490   50.7050 C   0  0  0  0  0  0  0  0  0  0  0  0
   51.0230   33.0920   51.6130 O   0  0  0  0  0  0  0  0  0  0  0  0
   54.7890   31.3380   52.0870 C   0  0  0  0  0  0  0  0  0  0  0  0
   56.0280   30.7980   52.3610 C   0  0  0  0  0  0  0  0  0  0  0  0
   57.3050   31.5180   52.1770 C   0  0  0  0  0  0  0  0  0  0  0  0
   57.9830   31.7810   53.2070 O   0  0  0  0  0  0  0  0  0  0  0  0
   57.7800   31.9660   50.8770 N   0  0  0  0  0  0  0  0  0  0  0  0
   58.3990   30.8840   50.0740 C   0  0  0  0  0  0  0  0  0  0  0  0
   58.8550   31.3930   48.6870 C   0  0  0  0  0  0  0  0  0  0  0  0
   58.7640   32.8620   48.5860 N   0  0  0  0  0  0  0  0  0  0  0  0
   59.4060   33.3140   47.3450 C   0  0  0  0  0  0  0  0  0  0  0  0
   59.2500   34.8050   47.0910 C   0  0  0  0  0  0  0  0  0  0  0  0
   58.4210   33.8090   46.2960 C   0  0  0  0  0  0  0  0  0  0  0  0
   59.4340   33.4850   49.7400 C   0  0  0  0  0  0  0  0  0  0  0  0
   58.7340   33.0880   51.0590 C   0  0  0  0  0  0  0  0  0  0  0  0
   55.9120   29.5190   52.7890 N   0  0  0  0  0  0  0  0  0  0  0  0
   57.0140   28.6200   53.1460 C   0  0  0  0  0  0  0  0  0  0  0  0
  1  2  2  0
  2  3  1  0
  3  4  2  0
  4  5  1  0
  5  6  1  0
  6  7  1  0
  7  8  2  0
  7  9  1  0
  9 10  1  0
 10 11  1  0
  3 12  1  0
 12 13  2  0
 13 14  1  0
 14 15  2  0
 14 16  1  0
 16 17  1  0
 17 18  1  0
 18 19  1  0
 19 20  1  0
 20 21  1  0
 21 22  1  0
 19 23  1  0
 23 24  1  0
 13 25  1  0
 25 26  1  0
 25  2  1  0
 10  5  2  0
 24 16  1  0
 22 20  1  0
M  CHG  4   6  -1   9  -1  11  -1  16   1
M  END
>  <UniqueID>  (2331) 
28

>  <SMILES>  (2331) 
C=c1/c(=C/c2[n-]c(=O)[n-]c2[O-])cc(C(=O)[NH+]2CCN(C3CC3)CC2)n1C

>  <Energy>  (2331) 
397.05794476273525

>  <Genealogy>  (2331) 
C=c1c(=Cc2[n-]c(=O)[n-]c2[O-])cc(C(=O)[NH+]2CCN(C3CC3)CC2)n1C (protonated)
C=c1/c(=C/c2[n-]c(=O)[n-]c2[O-])cc(C(=O)[NH+]2CCN(C3CC3)CC2)n1C (cis-trans isomerization)
C=c1/c(=C/c2[n-]c(=O)[n-]c2[O-])cc(C(=O)[NH+]2CCN(C3CC3)CC2)n1C (3D coordinates assigned)
C=c1/c(=C/c2[n-]c(=O)[n-]c2[O-])cc(C(=O)[NH+]2CCN(C3CC3)CC2)n1C (nonaromatic ring conformer: 397.05794476273525 kcal/mol)

>  <smiles>  (2331) 
C=c1c(=Cc2[nH]c(=O)[nH]c2O)cc(C(=O)N2CCN(C3CC3)CC2)n1C

>  <score_type>  (2331) 
oracle

>  <origin>  (2331) 
adg

>  <m_score__min__energy>  (2331) 
-16.359999999999999

>  <m_primary>  (2331) 
energy

$$$$
33:0
     RDKit          3D

 36 40  0  0  0  0  0  0  0  0999 V2000
   58.7810   27.5970   47.3160 C   0  0  0  0  0  0  0  0  0  0  0  0
   58.2830   28.2010   46.2250 C   0  0  0  0  0  0  0  0  0  0  0  0
   57.6560   27.5900   45.1260 C   0  0  0  0  0  0  0  0  0  0  0  0
   57.5600   26.2950   44.7680 C   0  0  0  0  0  0  0  0  0  0  0  0
   56.7270   25.2800   45.4360 C   0  0  0  0  0  0  0  0  0  0  0  0
   57.0210   23.9670   45.4980 N   0  0  0  0  0  0  0  0  0  0  0  0
   55.9250   23.4310   46.0780 C   0  0  0  0  0  0  0  0  0  0  0  0
   55.8230   22.2010   46.3300 O   0  0  0  0  0  0  0  0  0  0  0  0
   54.9420   24.3140   46.3630 N   0  0  0  0  0  0  0  0  0  0  0  0
   55.4630   25.4770   45.9330 C   0  0  0  0  0  0  0  0  0  0  0  0
   54.7950   26.6940   46.0010 O   0  0  0  0  0  0  0  0  0  0  0  0
   57.0940   28.6160   44.3820 C   0  0  0  0  0  0  0  0  0  0  0  0
   57.4450   29.7980   44.9990 C   0  0  0  0  0  0  0  0  0  0  0  0
   57.0400   31.1620   44.5290 C   0  0  0  0  0  0  0  0  0  0  0  0
   58.1650   29.5490   46.1150 N   0  0  0  0  0  0  0  0  0  0  0  0
   58.6280   30.5370   47.0510 C   0  0  0  0  0  0  0  0  0  0  0  0
   58.8830   31.8450   46.6220 C   0  0  0  0  0  0  0  0  0  0  0  0
   59.3220   32.8080   47.5300 C   0  0  0  0  0  0  0  0  0  0  0  0
   59.5150   32.4810   48.8820 C   0  0  0  0  0  0  0  0  0  0  0  0
   60.0860   33.5140   49.7770 C   0  0  0  0  0  0  0  0  0  0  0  0
   59.2960   34.2450   50.4380 O   0  0  0  0  0  0  0  0  0  0  0  0
   61.5060   33.8030   49.7680 N   0  0  1  0  0  0  0  0  0  0  0  0
   62.2660   32.6530   50.3340 C   0  0  0  0  0  0  0  0  0  0  0  0
   62.8120   31.7160   49.2440 C   0  0  0  0  0  0  0  0  0  0  0  0
   63.7900   32.4590   48.3140 C   0  0  1  0  0  0  0  0  0  0  0  0
   63.7660   31.8530   47.0460 O   0  0  0  0  0  0  0  0  0  0  0  0
   63.4480   33.9630   48.1900 C   0  0  0  0  0  0  0  0  0  0  0  0
   61.9500   34.2140   48.4070 C   0  0  0  0  0  0  0  0  0  0  0  0
   59.2250   31.1680   49.3250 C   0  0  0  0  0  0  0  0  0  0  0  0
   59.2870   30.7880   50.7470 C   0  0  0  0  0  0  0  0  0  0  0  0
   60.3350   30.2620   51.2080 O   0  0  0  0  0  0  0  0  0  0  0  0
   58.1400   30.9350   51.5870 N   0  0  0  0  0  0  0  0  0  0  0  0
   56.7340   31.3610   51.4600 C   0  0  0  0  0  0  0  0  0  0  0  0
   56.3370   31.0140   52.8570 C   0  0  0  0  0  0  0  0  0  0  0  0
   57.7640   30.5860   52.9680 C   0  0  0  0  0  0  0  0  0  0  0  0
   58.7980   30.2040   48.3990 C   0  0  0  0  0  0  0  0  0  0  0  0
  1  2  2  0
  2  3  1  0
  3  4  2  3
  4  5  1  0
  5  6  1  0
  6  7  1  0
  7  8  2  0
  7  9  1  0
  9 10  1  0
 10 11  1  0
  3 12  1  0
 12 13  2  0
 13 14  1  0
 13 15  1  0
 15 16  1  0
 16 17  2  0
 17 18  1  0
 18 19  2  0
 19 20  1  0
 20 21  2  0
 22 20  1  6
 22 23  1  0
 23 24  1  0
 24 25  1  0
 25 26  1  6
 25 27  1  0
 27 28  1  0
 19 29  1  0
 29 30  1  0
 30 31  2  0
 30 32  1  0
 32 33  1  0
 33 34  1  0
 34 35  1  0
 29 36  2  0
 15  2  1  0
 36 16  1  0
 10  5  2  0
 28 22  1  0
 35 32  1  0
M  CHG  4   6  -1   9  -1  11  -1  22   1
M  END
>  <UniqueID>  (2332) 
30

>  <SMILES>  (2332) 
C=c1c(=Cc2[n-]c(=O)[n-]c2[O-])cc(C)n1-c1ccc(C(=O)[NH+]2CCC(O)CC2)c(C(=O)N2CCC2)c1

>  <Energy>  (2332) 
204.4732155363395

>  <Genealogy>  (2332) 
C=c1c(=Cc2[n-]c(=O)[n-]c2[O-])cc(C)n1-c1ccc(C(=O)[NH+]2CCC(O)CC2)c(C(=O)N2CCC2)c1 (protonated)
C=c1c(=Cc2[n-]c(=O)[n-]c2[O-])cc(C)n1-c1ccc(C(=O)[NH+]2CCC(O)CC2)c(C(=O)N2CCC2)c1 (3D coordinates assigned)
C=c1c(=Cc2[n-]c(=O)[n-]c2[O-])cc(C)n1-c1ccc(C(=O)[NH+]2CCC(O)CC2)c(C(=O)N2CCC2)c1 (nonaromatic ring conformer: 204.4732155363395 kcal/mol)

>  <smiles>  (2332) 
C=c1c(=Cc2[nH]c(=O)[nH]c2O)cc(C)n1-c1ccc(C(=O)N2CCC(O)CC2)c(C(=O)N2CCC2)c1

>  <score_type>  (2332) 
oracle

>  <origin>  (2332) 
adg

>  <m_score__min__energy>  (2332) 
-15.19

>  <m_primary>  (2332) 
energy

$$$$
35:0
     RDKit          3D

 31 34  0  0  0  0  0  0  0  0999 V2000
   57.5710   27.4640   42.5320 C   0  0  0  0  0  0  0  0  0  0  0  0
   57.6590   28.1340   43.6930 C   0  0  0  0  0  0  0  0  0  0  0  0
   58.1340   27.6380   44.9180 C   0  0  0  0  0  0  0  0  0  0  0  0
   58.4030   26.3810   45.3210 C   0  0  0  0  0  0  0  0  0  0  0  0
   57.5400   25.5550   46.1830 C   0  0  0  0  0  0  0  0  0  0  0  0
   57.9320   24.4160   46.7840 N   0  0  0  0  0  0  0  0  0  0  0  0
   56.7940   23.9440   47.3340 C   0  0  0  0  0  0  0  0  0  0  0  0
   56.7560   22.8810   48.0070 O   0  0  0  0  0  0  0  0  0  0  0  0
   55.6980   24.6950   47.1000 N   0  0  0  0  0  0  0  0  0  0  0  0
   56.1830   25.7040   46.3580 C   0  0  0  0  0  0  0  0  0  0  0  0
   55.3920   26.7340   45.8560 O   0  0  0  0  0  0  0  0  0  0  0  0
   58.2780   28.7360   45.7470 C   0  0  0  0  0  0  0  0  0  0  0  0
   57.8320   29.8340   45.0420 C   0  0  0  0  0  0  0  0  0  0  0  0
   57.7660   31.2020   45.5960 C   0  0  0  0  0  0  0  0  0  0  0  0
   56.8260   31.9580   45.2280 O   0  0  0  0  0  0  0  0  0  0  0  0
   58.7440   31.6750   46.5470 N   0  0  0  0  0  0  0  0  0  0  0  0
   58.4660   32.8420   47.3970 C   0  0  0  0  0  0  0  0  0  0  0  0
   59.6100   33.8760   47.3130 C   0  0  0  0  0  0  0  0  0  0  0  0
   60.8780   33.2970   46.8100 N   0  0  0  0  0  0  0  0  0  0  0  0
   62.0180   34.1730   47.1460 C   0  0  0  0  0  0  0  0  0  0  0  0
   62.7310   33.6630   48.3720 C   0  0  0  0  0  0  0  0  0  0  0  0
   63.9080   32.9060   48.2520 C   0  0  0  0  0  0  0  0  0  0  0  0
   64.5680   32.4460   49.3960 C   0  0  0  0  0  0  0  0  0  0  0  0
   64.0580   32.7380   50.6650 C   0  0  0  0  0  0  0  0  0  0  0  0
   62.8880   33.4930   50.7920 C   0  0  0  0  0  0  0  0  0  0  0  0
   62.3840   33.7850   52.0530 O   0  0  0  0  0  0  0  0  0  0  0  0
   62.2250   33.9550   49.6500 C   0  0  0  0  0  0  0  0  0  0  0  0
   61.0770   31.9300   47.3280 C   0  0  0  0  0  0  0  0  0  0  0  0
   60.0460   31.0020   46.6760 C   0  0  0  0  0  0  0  0  0  0  0  0
   57.4380   29.4710   43.7990 N   0  0  0  0  0  0  0  0  0  0  0  0
   57.0290   30.3700   42.7140 C   0  0  0  0  0  0  0  0  0  0  0  0
  1  2  2  0
  2  3  1  0
  3  4  2  3
  4  5  1  0
  5  6  1  0
  6  7  1  0
  7  8  2  0
  7  9  1  0
  9 10  1  0
 10 11  1  0
  3 12  1  0
 12 13  2  0
 13 14  1  0
 14 15  2  0
 14 16  1  0
 16 17  1  0
 17 18  1  0
 18 19  1  0
 19 20  1  0
 20 21  1  0
 21 22  2  0
 22 23  1  0
 23 24  2  0
 24 25  1  0
 25 26  1  0
 25 27  2  0
 19 28  1  0
 28 29  1  0
 13 30  1  0
 30 31  1  0
 30  2  1  0
 10  5  2  0
 29 16  1  0
 27 21  1  0
M  CHG  3   6  -1   9  -1  26  -1
M  END
>  <UniqueID>  (2333) 
32

>  <SMILES>  (2333) 
C=c1c(=Cc2[n-]c(=O)[n-]c2O)cc(C(=O)N2CCN(Cc3cccc([O-])c3)CC2)n1C

>  <Energy>  (2333) 
136.43519868943997

>  <Genealogy>  (2333) 
C=c1c(=Cc2[n-]c(=O)[n-]c2O)cc(C(=O)N2CCN(Cc3cccc([O-])c3)CC2)n1C (protonated)
C=c1c(=Cc2[n-]c(=O)[n-]c2O)cc(C(=O)N2CCN(Cc3cccc([O-])c3)CC2)n1C (3D coordinates assigned)
C=c1c(=Cc2[n-]c(=O)[n-]c2O)cc(C(=O)N2CCN(Cc3cccc([O-])c3)CC2)n1C (nonaromatic ring conformer: 136.43519868943997 kcal/mol)

>  <smiles>  (2333) 
C=c1c(=Cc2[nH]c(=O)[nH]c2O)cc(C(=O)N2CCN(Cc3cccc(O)c3)CC2)n1C

>  <score_type>  (2333) 
oracle

>  <origin>  (2333) 
adg

>  <m_score__min__energy>  (2333) 
-17.539999999999999

>  <m_primary>  (2333) 
energy

$$$$
37:0
     RDKit          3D

 40 44  0  0  0  0  0  0  0  0999 V2000
   59.3840   27.3670   47.1630 C   0  0  0  0  0  0  0  0  0  0  0  0
   58.9570   26.3340   46.4150 C   0  0  0  0  0  0  0  0  0  0  0  0
   59.7680   25.2490   46.3770 N   0  0  0  0  0  0  0  0  0  0  0  0
   59.4860   24.1450   45.6540 C   0  0  0  0  0  0  0  0  0  0  0  0
   60.3080   23.1890   45.6640 O   0  0  0  0  0  0  0  0  0  0  0  0
   58.3290   24.0700   44.9310 N   0  0  0  0  0  0  0  0  0  0  0  0
   58.0360   22.8680   44.1190 C   0  0  0  0  0  0  0  0  0  0  0  0
   57.2290   21.8790   44.9200 C   0  0  0  0  0  0  0  0  0  0  0  0
   56.6460   20.7650   44.2890 C   0  0  0  0  0  0  0  0  0  0  0  0
   55.8640   19.8670   45.0240 C   0  0  0  0  0  0  0  0  0  0  0  0
   55.6540   20.0780   46.3890 C   0  0  0  0  0  0  0  0  0  0  0  0
   56.2230   21.1860   47.0240 C   0  0  0  0  0  0  0  0  0  0  0  0
   57.0060   22.0860   46.2930 C   0  0  0  0  0  0  0  0  0  0  0  0
   57.4520   25.1270   44.9340 C   0  0  0  0  0  0  0  0  0  0  0  0
   56.3600   25.0110   44.3120 O   0  0  0  0  0  0  0  0  0  0  0  0
   57.7460   26.3250   45.6550 C   0  0  0  0  0  0  0  0  0  0  0  0
   56.9030   27.4000   45.6380 C   0  0  0  0  0  0  0  0  0  0  0  0
   57.2220   28.7230   45.0660 C   0  0  0  0  0  0  0  0  0  0  0  0
   58.5560   29.0680   44.8020 C   0  0  0  0  0  0  0  0  0  0  0  0
   58.8620   30.3020   44.2240 C   0  0  0  0  0  0  0  0  0  0  0  0
   57.8440   31.2050   43.8980 C   0  0  0  0  0  0  0  0  0  0  0  0
   58.1990   32.4060   43.2630 O   0  0  0  0  0  0  0  0  0  0  0  0
   58.8260   33.5160   43.9070 C   0  0  0  0  0  0  0  0  0  0  0  0
   58.8240   33.3160   45.4000 C   0  0  0  0  0  0  0  0  0  0  0  0
   60.0210   33.0880   46.0950 C   0  0  0  0  0  0  0  0  0  0  0  0
   60.0000   32.8350   47.4700 C   0  0  0  0  0  0  0  0  0  0  0  0
   58.7820   32.8050   48.1710 C   0  0  0  0  0  0  0  0  0  0  0  0
   58.7590   32.5390   49.6270 C   0  0  0  0  0  0  0  0  0  0  0  0
   57.6650   32.2460   50.1860 O   0  0  0  0  0  0  0  0  0  0  0  0
   59.9490   32.6540   50.4230 N   0  0  0  0  0  0  0  0  0  0  0  0
   61.1670   31.9240   50.0370 C   0  0  0  0  0  0  0  0  0  0  0  0
   62.4430   32.6220   50.5650 C   0  0  0  0  0  0  0  0  0  0  0  0
   62.1710   33.7570   51.3690 O   0  0  0  0  0  0  0  0  0  0  0  0
   61.2400   33.4200   52.3760 C   0  0  0  0  0  0  0  0  0  0  0  0
   59.8530   33.2620   51.7550 C   0  0  0  0  0  0  0  0  0  0  0  0
   57.5870   33.0620   47.4780 C   0  0  0  0  0  0  0  0  0  0  0  0
   57.6080   33.3070   46.1020 C   0  0  0  0  0  0  0  0  0  0  0  0
   56.5110   30.8800   44.2100 C   0  0  0  0  0  0  0  0  0  0  0  0
   56.2000   29.6470   44.7940 C   0  0  0  0  0  0  0  0  0  0  0  0
   54.8750   29.3400   45.0850 O   0  0  0  0  0  0  0  0  0  0  0  0
  1  2  2  0
  2  3  1  0
  3  4  1  0
  4  5  2  0
  4  6  1  0
  6  7  1  0
  7  8  1  0
  8  9  2  0
  9 10  1  0
 10 11  2  0
 11 12  1  0
 12 13  2  0
  6 14  1  0
 14 15  2  0
 14 16  1  0
 16 17  2  3
 17 18  1  0
 18 19  2  0
 19 20  1  0
 20 21  2  0
 21 22  1  0
 22 23  1  0
 23 24  1  0
 24 25  2  0
 25 26  1  0
 26 27  2  0
 27 28  1  0
 28 29  2  0
 28 30  1  0
 30 31  1  0
 31 32  1  0
 32 33  1  0
 33 34  1  0
 34 35  1  0
 27 36  1  0
 36 37  2  0
 21 38  1  0
 38 39  2  0
 39 40  1  0
 16  2  1  0
 39 18  1  0
 13  8  1  0
 37 24  1  0
 35 30  1  0
M  CHG  2   3  -1  40  -1
M  END
>  <UniqueID>  (2334) 
34

>  <SMILES>  (2334) 
C=c1[n-]c(=O)n(Cc2ccccc2)c(=O)c1=Cc1ccc(OCc2ccc(C(=O)N3CCOCC3)cc2)cc1[O-]

>  <Energy>  (2334) 
108.00666269739365

>  <Genealogy>  (2334) 
C=c1[n-]c(=O)n(Cc2ccccc2)c(=O)c1=Cc1ccc(OCc2ccc(C(=O)N3CCOCC3)cc2)cc1[O-] (protonated)
C=c1[n-]c(=O)n(Cc2ccccc2)c(=O)c1=Cc1ccc(OCc2ccc(C(=O)N3CCOCC3)cc2)cc1[O-] (3D coordinates assigned)
C=c1[n-]c(=O)n(Cc2ccccc2)c(=O)c1=Cc1ccc(OCc2ccc(C(=O)N3CCOCC3)cc2)cc1[O-] (nonaromatic ring conformer: 108.00666269739365 kcal/mol)

>  <smiles>  (2334) 
C=c1[nH]c(=O)n(Cc2ccccc2)c(=O)c1=Cc1ccc(OCc2ccc(C(=O)N3CCOCC3)cc2)cc1O

>  <score_type>  (2334) 
oracle

>  <origin>  (2334) 
adg

>  <m_score__min__energy>  (2334) 
-15.01

>  <m_primary>  (2334) 
energy

$$$$
50:0
     RDKit          3D

 25 27  0  0  0  0  0  0  0  0999 V2000
   60.5330   30.0940   46.3650 C   0  0  0  0  0  0  0  0  0  0  0  0
   59.3590   29.6710   45.8460 C   0  0  0  0  0  0  0  0  0  0  0  0
   59.1800   28.2970   45.5550 C   0  0  0  0  0  0  0  0  0  0  0  0
   60.1320   27.4840   45.7300 O   0  0  0  0  0  0  0  0  0  0  0  0
   57.9360   27.8590   45.0440 C   0  0  0  0  0  0  0  0  0  0  0  0
   57.6390   26.5760   44.7490 C   0  0  0  0  0  0  0  0  0  0  0  0
   57.1800   25.5490   45.7080 C   0  0  0  0  0  0  0  0  0  0  0  0
   55.9220   25.6610   46.3160 C   0  0  0  0  0  0  0  0  0  0  0  0
   55.0690   26.7100   45.9920 O   0  0  0  0  0  0  0  0  0  0  0  0
   55.5230   24.7340   47.2260 N   0  0  0  0  0  0  0  0  0  0  0  0
   56.3320   23.6990   47.5720 C   0  0  0  0  0  0  0  0  0  0  0  0
   55.8240   22.6000   48.6670 S   0  0  0  0  0  0  0  0  0  0  0  0
   57.5650   23.5830   47.0170 N   0  0  0  0  0  0  0  0  0  0  0  0
   58.0100   24.4840   46.1020 C   0  0  0  0  0  0  0  0  0  0  0  0
   59.1670   24.3590   45.6210 O   0  0  0  0  0  0  0  0  0  0  0  0
   56.9730   28.7860   44.8110 N   0  0  0  0  0  0  0  0  0  0  0  0
   57.1470   30.1020   45.0730 C   0  0  0  0  0  0  0  0  0  0  0  0
   56.2020   30.9010   44.8270 O   0  0  0  0  0  0  0  0  0  0  0  0
   58.3290   30.5560   45.5940 N   0  0  0  0  0  0  0  0  0  0  0  0
   58.4600   31.9680   45.8540 C   0  0  0  0  0  0  0  0  0  0  0  0
   58.5220   32.8790   44.7880 C   0  0  0  0  0  0  0  0  0  0  0  0
   58.6480   34.2480   45.0420 C   0  0  0  0  0  0  0  0  0  0  0  0
   58.7090   34.7130   46.3590 C   0  0  0  0  0  0  0  0  0  0  0  0
   58.6450   33.8090   47.4250 C   0  0  0  0  0  0  0  0  0  0  0  0
   58.5190   32.4390   47.1740 C   0  0  0  0  0  0  0  0  0  0  0  0
  1  2  2  0
  2  3  1  0
  3  4  2  0
  3  5  1  0
  5  6  2  3
  6  7  1  0
  7  8  2  0
  8  9  1  0
  8 10  1  0
 10 11  1  0
 11 12  2  0
 11 13  1  0
 13 14  1  0
 14 15  2  0
  5 16  1  0
 16 17  1  0
 17 18  2  0
 17 19  1  0
 19 20  1  0
 20 21  2  0
 21 22  1  0
 22 23  2  0
 23 24  1  0
 24 25  2  0
 19  2  1  0
 25 20  1  0
 14  7  1  0
M  CHG  4   9  -1  10  -1  13  -1  16  -1
M  END
>  <UniqueID>  (2335) 
46

>  <SMILES>  (2335) 
C=c1c(=O)c(=Cc2c([O-])[n-]c(=S)[n-]c2=O)[n-]c(=O)n1-c1ccccc1

>  <Energy>  (2335) 
67.12697463632556

>  <Genealogy>  (2335) 
C=c1c(=O)c(=Cc2c([O-])[n-]c(=S)[n-]c2=O)[n-]c(=O)n1-c1ccccc1 (protonated)
C=c1c(=O)c(=Cc2c([O-])[n-]c(=S)[n-]c2=O)[n-]c(=O)n1-c1ccccc1 (3D coordinates assigned)
C=c1c(=O)c(=Cc2c([O-])[n-]c(=S)[n-]c2=O)[n-]c(=O)n1-c1ccccc1 (optimized conformer: 67.12697463632556 kcal/mol)

>  <smiles>  (2335) 
C=c1c(=O)c(=Cc2c(O)[nH]c(=S)[nH]c2=O)[nH]c(=O)n1-c1ccccc1

>  <score_type>  (2335) 
oracle

>  <origin>  (2335) 
adg

>  <m_score__min__energy>  (2335) 
-16.84

>  <m_primary>  (2335) 
energy

$$$$
55:0
     RDKit          3D

 24 26  0  0  0  0  0  0  0  0999 V2000
   56.6580   29.6830   43.5570 C   0  0  0  0  0  0  0  0  0  0  0  0
   57.2930   29.8220   44.7340 C   0  0  0  0  0  0  0  0  0  0  0  0
   57.4550   31.0910   45.1790 N   0  0  0  0  0  0  0  0  0  0  0  0
   58.0270   31.3860   46.3660 C   0  0  0  0  0  0  0  0  0  0  0  0
   58.1220   32.5970   46.7060 O   0  0  0  0  0  0  0  0  0  0  0  0
   58.4910   30.3880   47.1750 N   0  0  0  0  0  0  0  0  0  0  0  0
   59.1570   30.7180   48.4540 C   0  0  0  0  0  0  0  0  0  0  0  0
   60.4220   31.5000   48.2100 C   0  0  0  0  0  0  0  0  0  0  0  0
   61.5450   30.8800   47.6340 C   0  0  0  0  0  0  0  0  0  0  0  0
   62.7080   31.6150   47.3850 C   0  0  0  0  0  0  0  0  0  0  0  0
   62.7600   32.9730   47.7070 C   0  0  0  0  0  0  0  0  0  0  0  0
   61.6490   33.5980   48.2800 C   0  0  0  0  0  0  0  0  0  0  0  0
   60.4840   32.8670   48.5310 C   0  0  0  0  0  0  0  0  0  0  0  0
   58.3900   29.0790   46.7710 C   0  0  0  0  0  0  0  0  0  0  0  0
   58.9310   28.1840   47.4770 O   0  0  0  0  0  0  0  0  0  0  0  0
   57.7480   28.7350   45.5440 C   0  0  0  0  0  0  0  0  0  0  0  0
   57.6230   27.4390   45.1320 C   0  0  0  0  0  0  0  0  0  0  0  0
   57.2080   26.2910   45.9640 C   0  0  0  0  0  0  0  0  0  0  0  0
   58.0510   25.4470   46.5880 N   0  0  0  0  0  0  0  0  0  0  0  0
   57.2270   24.6670   47.3220 C   0  0  0  0  0  0  0  0  0  0  0  0
   57.6500   23.7290   48.0470 O   0  0  0  0  0  0  0  0  0  0  0  0
   55.9180   24.9800   47.2270 N   0  0  0  0  0  0  0  0  0  0  0  0
   55.9250   26.0180   46.3750 C   0  0  0  0  0  0  0  0  0  0  0  0
   54.7830   26.7060   45.9850 O   0  0  0  0  0  0  0  0  0  0  0  0
  1  2  2  0
  2  3  1  0
  3  4  1  0
  4  5  2  0
  4  6  1  0
  6  7  1  0
  7  8  1  0
  8  9  2  0
  9 10  1  0
 10 11  2  0
 11 12  1  0
 12 13  2  0
  6 14  1  0
 14 15  2  0
 14 16  1  0
 16 17  2  0
 17 18  1  0
 18 19  1  0
 19 20  1  0
 20 21  2  0
 20 22  1  0
 22 23  1  0
 23 24  1  0
 16  2  1  0
 23 18  2  0
 13  8  1  0
M  CHG  4   3  -1  19  -1  22  -1  24  -1
M  END
>  <UniqueID>  (2336) 
51

>  <SMILES>  (2336) 
C=c1[n-]c(=O)n(Cc2ccccc2)c(=O)/c1=C\c1[n-]c(=O)[n-]c1[O-]

>  <Energy>  (2336) 
89.71785121673135

>  <Genealogy>  (2336) 
C=c1[n-]c(=O)n(Cc2ccccc2)c(=O)c1=Cc1[n-]c(=O)[n-]c1[O-] (protonated)
C=c1[n-]c(=O)n(Cc2ccccc2)c(=O)/c1=C\c1[n-]c(=O)[n-]c1[O-] (cis-trans isomerization)
C=c1[n-]c(=O)n(Cc2ccccc2)c(=O)/c1=C\c1[n-]c(=O)[n-]c1[O-] (3D coordinates assigned)
C=c1[n-]c(=O)n(Cc2ccccc2)c(=O)/c1=C\c1[n-]c(=O)[n-]c1[O-] (optimized conformer: 89.71785121673135 kcal/mol)

>  <smiles>  (2336) 
C=c1[nH]c(=O)n(Cc2ccccc2)c(=O)c1=Cc1[nH]c(=O)[nH]c1O

>  <score_type>  (2336) 
oracle

>  <origin>  (2336) 
adg

>  <m_score__min__energy>  (2336) 
-16.870000000000001

>  <m_primary>  (2336) 
energy

$$$$
67:0
     RDKit          3D

 30 33  0  0  0  0  0  0  0  0999 V2000
   57.6010   28.4100   44.4250 C   0  0  0  0  0  0  0  0  0  0  0  0
   58.0450   27.4960   45.3030 C   0  0  0  0  0  0  0  0  0  0  0  0
   57.6980   26.1360   45.3670 C   0  0  0  0  0  0  0  0  0  0  0  0
   56.9950   25.3590   44.5190 C   0  0  0  0  0  0  0  0  0  0  0  0
   55.7540   24.6310   44.8470 C   0  0  0  0  0  0  0  0  0  0  0  0
   54.7460   25.2550   45.5950 C   0  0  0  0  0  0  0  0  0  0  0  0
   54.8780   26.5800   45.9940 O   0  0  0  0  0  0  0  0  0  0  0  0
   53.6250   24.5660   45.9310 N   0  0  0  0  0  0  0  0  0  0  0  0
   53.4640   23.2680   45.5650 C   0  0  0  0  0  0  0  0  0  0  0  0
   52.4150   22.6510   45.8820 O   0  0  0  0  0  0  0  0  0  0  0  0
   54.4370   22.6340   44.8620 N   0  0  0  0  0  0  0  0  0  0  0  0
   55.5780   23.2780   44.5040 C   0  0  0  0  0  0  0  0  0  0  0  0
   56.4700   22.6510   43.8720 O   0  0  0  0  0  0  0  0  0  0  0  0
   58.2430   25.6530   46.5460 C   0  0  0  0  0  0  0  0  0  0  0  0
   58.9430   26.6920   47.1210 C   0  0  0  0  0  0  0  0  0  0  0  0
   59.7010   26.5960   48.4100 C   0  0  0  0  0  0  0  0  0  0  0  0
   58.8220   27.8100   46.3720 N   0  0  0  0  0  0  0  0  0  0  0  0
   59.4020   29.0920   46.6800 C   0  0  0  0  0  0  0  0  0  0  0  0
   58.5990   30.1260   47.1780 C   0  0  0  0  0  0  0  0  0  0  0  0
   59.1570   31.3740   47.4690 C   0  0  0  0  0  0  0  0  0  0  0  0
   60.5290   31.6050   47.2690 C   0  0  0  0  0  0  0  0  0  0  0  0
   61.1030   32.8950   47.5520 N   0  0  0  0  0  0  0  0  0  0  0  0
   61.7000   33.7140   46.4920 C   0  0  0  0  0  0  0  0  0  0  0  0
   63.1520   34.0780   46.8510 C   0  0  0  0  0  0  0  0  0  0  0  0
   63.3970   34.2180   48.3110 N   0  0  0  0  0  0  0  0  0  0  0  0
   64.1200   33.0580   48.8590 C   0  0  0  0  0  0  0  0  0  0  0  0
   62.1720   34.5170   49.0840 C   0  0  0  0  0  0  0  0  0  0  0  0
   61.1110   33.4140   48.9240 C   0  0  0  0  0  0  0  0  0  0  0  0
   61.3290   30.5660   46.7600 C   0  0  0  0  0  0  0  0  0  0  0  0
   60.7690   29.3190   46.4710 C   0  0  0  0  0  0  0  0  0  0  0  0
  1  2  2  0
  2  3  1  0
  3  4  2  3
  4  5  1  0
  5  6  2  0
  6  7  1  0
  6  8  1  0
  8  9  1  0
  9 10  2  0
  9 11  1  0
 11 12  1  0
 12 13  2  0
  3 14  1  0
 14 15  2  0
 15 16  1  0
 15 17  1  0
 17 18  1  0
 18 19  2  0
 19 20  1  0
 20 21  2  0
 21 22  1  0
 22 23  1  0
 23 24  1  0
 24 25  1  0
 25 26  1  0
 25 27  1  0
 27 28  1  0
 21 29  1  0
 29 30  2  0
 17  2  1  0
 30 18  1  0
 12  5  1  0
 28 22  1  0
M  CHG  3   7  -1   8  -1  11  -1
M  END
>  <UniqueID>  (2337) 
63

>  <SMILES>  (2337) 
C=c1c(=Cc2c([O-])[n-]c(=O)[n-]c2=O)cc(C)n1-c1ccc(N2CCN(C)CC2)cc1

>  <Energy>  (2337) 
115.59309641264447

>  <Genealogy>  (2337) 
C=c1c(=Cc2c([O-])[n-]c(=O)[n-]c2=O)cc(C)n1-c1ccc(N2CCN(C)CC2)cc1 (protonated)
C=c1c(=Cc2c([O-])[n-]c(=O)[n-]c2=O)cc(C)n1-c1ccc(N2CCN(C)CC2)cc1 (3D coordinates assigned)
C=c1c(=Cc2c([O-])[n-]c(=O)[n-]c2=O)cc(C)n1-c1ccc(N2CCN(C)CC2)cc1 (nonaromatic ring conformer: 115.59309641264447 kcal/mol)

>  <smiles>  (2337) 
C=c1c(=Cc2c(O)[nH]c(=O)[nH]c2=O)cc(C)n1-c1ccc(N2CCN(C)CC2)cc1

>  <score_type>  (2337) 
oracle

>  <origin>  (2337) 
adg

>  <m_score__min__energy>  (2337) 
-15.74

>  <m_primary>  (2337) 
energy

$$$$
85:0
     RDKit          3D

 27 29  0  0  0  0  0  0  0  0999 V2000
   57.6580   24.2660   45.2140 C   0  0  0  0  0  0  0  0  0  0  0  0
   56.3440   24.4450   45.3740 C   0  0  0  0  0  0  0  0  0  0  0  0
   55.4380   23.5260   44.9960 N   0  0  0  0  0  0  0  0  0  0  0  0
   54.2600   24.0930   45.3200 C   0  0  0  0  0  0  0  0  0  0  0  0
   53.1570   23.5260   45.1180 O   0  0  0  0  0  0  0  0  0  0  0  0
   54.3600   25.3130   45.8830 N   0  0  0  0  0  0  0  0  0  0  0  0
   55.6860   25.5440   45.9170 C   0  0  0  0  0  0  0  0  0  0  0  0
   56.2490   26.6590   46.4160 C   0  0  0  0  0  0  0  0  0  0  0  0
   57.0470   27.6220   45.6270 C   0  0  0  0  0  0  0  0  0  0  0  0
   58.7320   27.6980   45.4880 S   0  0  0  0  0  0  0  0  0  0  0  0
   58.6990   29.0870   44.5470 C   0  0  0  0  0  0  0  0  0  0  0  0
   59.7270   29.6840   44.1300 O   0  0  0  0  0  0  0  0  0  0  0  0
   57.4330   29.5120   44.3180 N   0  0  0  0  0  0  0  0  0  0  0  0
   57.0900   30.7630   43.6340 C   0  0  0  0  0  0  0  0  0  0  0  0
   57.6670   31.9130   44.3930 C   0  0  0  0  0  0  0  0  0  0  0  0
   58.2990   32.8160   43.7830 O   0  0  0  0  0  0  0  0  0  0  0  0
   57.4520   32.0080   45.8040 N   0  0  0  0  0  0  0  0  0  0  0  0
   58.2520   32.7940   46.6970 C   0  0  0  0  0  0  0  0  0  0  0  0
   58.4910   34.1360   46.3760 C   0  0  0  0  0  0  0  0  0  0  0  0
   59.2770   34.9350   47.2080 C   0  0  0  0  0  0  0  0  0  0  0  0
   59.8440   34.3930   48.3620 C   0  0  0  0  0  0  0  0  0  0  0  0
   59.6410   33.0480   48.6780 C   0  0  0  0  0  0  0  0  0  0  0  0
   58.8580   32.2280   47.8410 C   0  0  0  0  0  0  0  0  0  0  0  0
   58.6880   30.8580   48.1000 O   0  0  0  0  0  0  0  0  0  0  0  0
   59.7060   29.8740   47.9600 C   0  0  0  0  0  0  0  0  0  0  0  0
   56.5160   28.7050   44.9250 C   0  0  0  0  0  0  0  0  0  0  0  0
   55.1490   28.9620   44.8660 O   0  0  0  0  0  0  0  0  0  0  0  0
  1  2  2  0
  2  3  1  0
  3  4  1  0
  4  5  2  0
  4  6  1  0
  6  7  1  0
  7  8  2  3
  8  9  1  0
  9 10  1  0
 10 11  1  0
 11 12  2  0
 11 13  1  0
 13 14  1  0
 14 15  1  0
 15 16  2  0
 15 17  1  0
 17 18  1  0
 18 19  2  0
 19 20  1  0
 20 21  2  0
 21 22  1  0
 22 23  2  0
 23 24  1  0
 24 25  1  0
 13 26  1  0
 26 27  1  0
  7  2  1  0
 26  9  2  0
 23 18  1  0
M  CHG  4   3  -1   6  -1  17  -1  27  -1
M  END
>  <UniqueID>  (2338) 
79

>  <SMILES>  (2338) 
C=c1[n-]c(=O)[n-]c1=Cc1sc(=O)n(CC(=O)[N-]c2ccccc2OC)c1[O-]

>  <Energy>  (2338) 
107.46983970268603

>  <Genealogy>  (2338) 
C=c1[n-]c(=O)[n-]c1=Cc1sc(=O)n(CC(=O)[N-]c2ccccc2OC)c1[O-] (protonated)
C=c1[n-]c(=O)[n-]c1=Cc1sc(=O)n(CC(=O)[N-]c2ccccc2OC)c1[O-] (3D coordinates assigned)
C=c1[n-]c(=O)[n-]c1=Cc1sc(=O)n(CC(=O)[N-]c2ccccc2OC)c1[O-] (optimized conformer: 107.46983970268603 kcal/mol)

>  <smiles>  (2338) 
C=c1[nH]c(=O)[nH]c1=Cc1sc(=O)n(CC(=O)Nc2ccccc2OC)c1O

>  <score_type>  (2338) 
oracle

>  <origin>  (2338) 
adg

>  <m_score__min__energy>  (2338) 
-15.52

>  <m_primary>  (2338) 
energy

$$$$
86:0
     RDKit          3D

 29 32  0  0  0  0  0  0  0  0999 V2000
   60.4260   27.4280   45.7020 C   0  0  0  0  0  0  0  0  0  0  0  0
   59.3040   28.0960   45.3810 C   0  0  0  0  0  0  0  0  0  0  0  0
   58.1510   27.5390   44.8080 C   0  0  0  0  0  0  0  0  0  0  0  0
   57.7760   26.2550   44.6350 C   0  0  0  0  0  0  0  0  0  0  0  0
   57.2300   25.3730   45.6800 C   0  0  0  0  0  0  0  0  0  0  0  0
   57.8850   24.3220   46.2080 N   0  0  0  0  0  0  0  0  0  0  0  0
   57.0700   23.9120   47.2030 C   0  0  0  0  0  0  0  0  0  0  0  0
   57.3370   22.9230   47.9340 O   0  0  0  0  0  0  0  0  0  0  0  0
   55.9510   24.6510   47.3590 N   0  0  0  0  0  0  0  0  0  0  0  0
   56.0730   25.5810   46.3970 C   0  0  0  0  0  0  0  0  0  0  0  0
   55.1390   26.5930   46.1860 O   0  0  0  0  0  0  0  0  0  0  0  0
   57.3490   28.5990   44.4430 C   0  0  0  0  0  0  0  0  0  0  0  0
   57.9810   29.7540   44.8560 C   0  0  0  0  0  0  0  0  0  0  0  0
   57.3760   31.0980   44.6980 C   0  0  0  0  0  0  0  0  0  0  0  0
   56.1240   31.2170   44.8080 O   0  0  0  0  0  0  0  0  0  0  0  0
   58.1850   32.2420   44.3870 N   0  0  0  0  0  0  0  0  0  0  0  0
   58.5670   33.1640   45.2190 C   0  0  0  0  0  0  0  0  0  0  0  0
   59.5410   34.0660   44.9660 N   0  0  0  0  0  0  0  0  0  0  0  0
   59.7240   34.9070   46.0180 C   0  0  0  0  0  0  0  0  0  0  0  0
   58.8940   34.6760   47.1110 C   0  0  0  0  0  0  0  0  0  0  0  0
   57.8970   33.3700   46.7440 S   0  0  0  0  0  0  0  0  0  0  0  0
   59.1770   29.4560   45.4370 N   0  0  0  0  0  0  0  0  0  0  0  0
   60.0930   30.4180   46.0800 C   0  0  0  0  0  0  0  0  0  0  0  0
   59.7830   30.5680   47.5500 C   0  0  0  0  0  0  0  0  0  0  0  0
   60.3050   31.6540   48.2740 C   0  0  0  0  0  0  0  0  0  0  0  0
   60.0380   31.7850   49.6390 C   0  0  0  0  0  0  0  0  0  0  0  0
   59.2670   30.8240   50.2980 C   0  0  0  0  0  0  0  0  0  0  0  0
   58.7680   29.7260   49.5930 C   0  0  0  0  0  0  0  0  0  0  0  0
   59.0310   29.5920   48.2270 C   0  0  0  0  0  0  0  0  0  0  0  0
  1  2  2  0
  2  3  1  0
  3  4  2  3
  4  5  1  0
  5  6  1  0
  6  7  1  0
  7  8  2  0
  7  9  1  0
  9 10  1  0
 10 11  1  0
  3 12  1  0
 12 13  2  0
 13 14  1  0
 14 15  2  0
 14 16  1  0
 16 17  2  3
 17 18  1  0
 18 19  1  0
 19 20  2  0
 20 21  1  0
 13 22  1  0
 22 23  1  0
 23 24  1  0
 24 25  2  0
 25 26  1  0
 26 27  2  0
 27 28  1  0
 28 29  2  0
 22  2  1  0
 29 24  1  0
 10  5  2  0
 21 17  1  0
M  CHG  3   6  -1   9  -1  18  -1
M  END
>  <UniqueID>  (2339) 
80

>  <SMILES>  (2339) 
C=c1c(=Cc2[n-]c(=O)[n-]c2O)cc(C(=O)N=c2[n-]ccs2)n1Cc1ccccc1

>  <Energy>  (2339) 
151.2829168619331

>  <Genealogy>  (2339) 
C=c1c(=Cc2[n-]c(=O)[n-]c2O)cc(C(=O)N=c2[n-]ccs2)n1Cc1ccccc1 (protonated)
C=c1c(=Cc2[n-]c(=O)[n-]c2O)cc(C(=O)N=c2[n-]ccs2)n1Cc1ccccc1 (3D coordinates assigned)
C=c1c(=Cc2[n-]c(=O)[n-]c2O)cc(C(=O)N=c2[n-]ccs2)n1Cc1ccccc1 (optimized conformer: 151.2829168619331 kcal/mol)

>  <smiles>  (2339) 
C=c1c(=Cc2[nH]c(=O)[nH]c2O)cc(C(=O)N=c2[nH]ccs2)n1Cc1ccccc1

>  <score_type>  (2339) 
oracle

>  <origin>  (2339) 
adg

>  <m_score__min__energy>  (2339) 
-14.34

>  <m_primary>  (2339) 
energy

$$$$
0:0
     RDKit          3D

 33 36  0  0  0  0  0  0  0  0999 V2000
   51.2230   29.9210   48.1470 C   0  0  0  0  0  0  0  0  0  0  0  0
   51.4040   30.5130   49.3240 C   0  0  0  0  0  0  0  0  0  0  0  0
   50.8940   31.7290   49.6190 N   0  0  0  0  0  0  0  0  0  0  0  0
   51.3120   31.9350   50.8800 C   0  0  0  0  0  0  0  0  0  0  0  0
   51.0250   33.0830   51.6090 O   0  0  0  0  0  0  0  0  0  0  0  0
   52.0460   30.8580   51.3170 C   0  0  0  0  0  0  0  0  0  0  0  0
   52.6370   30.7420   52.5160 C   0  0  0  0  0  0  0  0  0  0  0  0
   54.0700   30.4160   52.7090 C   0  0  0  0  0  0  0  0  0  0  0  0
   55.0280   31.1320   51.9820 C   0  0  0  0  0  0  0  0  0  0  0  0
   56.3890   30.8650   52.1480 C   0  0  0  0  0  0  0  0  0  0  0  0
   56.8170   29.8810   53.0580 C   0  0  0  0  0  0  0  0  0  0  0  0
   58.1750   29.5740   53.2450 O   0  0  0  0  0  0  0  0  0  0  0  0
   59.0800   29.1570   52.2210 C   0  0  0  0  0  0  0  0  0  0  0  0
   59.2700   30.2480   51.2010 C   0  0  0  0  0  0  0  0  0  0  0  0
   59.6570   31.5380   51.5990 C   0  0  0  0  0  0  0  0  0  0  0  0
   59.8400   32.5430   50.6450 C   0  0  0  0  0  0  0  0  0  0  0  0
   59.6540   32.2690   49.2830 C   0  0  0  0  0  0  0  0  0  0  0  0
   59.9020   33.5340   48.0780 S   0  0  0  0  0  0  0  0  0  0  0  0
   61.2940   34.0870   48.2240 O   0  0  0  0  0  0  0  0  0  0  0  0
   58.9340   34.6520   48.3450 O   0  0  0  0  0  0  0  0  0  0  0  0
   59.6770   32.9570   46.4390 N   0  0  0  0  0  0  0  0  0  0  0  0
   59.9300   34.0020   45.4240 C   0  0  0  0  0  0  0  0  0  0  0  0
   58.6380   34.6030   44.8470 C   0  0  0  0  0  0  0  0  0  0  0  0
   57.6070   34.5610   45.8050 O   0  0  0  0  0  0  0  0  0  0  0  0
   57.2050   33.2220   46.0170 C   0  0  0  0  0  0  0  0  0  0  0  0
   58.3920   32.2580   46.2560 C   0  0  0  0  0  0  0  0  0  0  0  0
   59.2730   30.9810   48.8850 C   0  0  0  0  0  0  0  0  0  0  0  0
   59.0890   29.9750   49.8370 C   0  0  0  0  0  0  0  0  0  0  0  0
   55.8670   29.1800   53.8160 C   0  0  0  0  0  0  0  0  0  0  0  0
   56.3250   28.2160   54.7280 O   0  0  0  0  0  0  0  0  0  0  0  0
   55.7000   27.9220   55.9730 C   0  0  0  0  0  0  0  0  0  0  0  0
   54.4970   29.4560   53.6450 C   0  0  0  0  0  0  0  0  0  0  0  0
   52.1150   29.9490   50.3260 N   0  0  0  0  0  0  0  0  0  0  0  0
  1  2  2  0
  2  3  1  0
  3  4  2  0
  4  5  1  0
  4  6  1  0
  6  7  2  0
  7  8  1  0
  8  9  2  0
  9 10  1  0
 10 11  2  0
 11 12  1  0
 12 13  1  0
 13 14  1  0
 14 15  2  0
 15 16  1  0
 16 17  2  0
 17 18  1  0
 18 19  2  0
 18 20  2  0
 18 21  1  0
 21 22  1  0
 22 23  1  0
 23 24  1  0
 24 25  1  0
 25 26  1  0
 17 27  1  0
 27 28  2  0
 11 29  1  0
 29 30  1  0
 30 31  1  0
 29 32  2  0
  6 33  1  0
 33  2  1  0
 32  8  1  0
 28 14  1  0
 26 21  1  0
M  CHG  2   5  -1  33  -1
M  END
>  <UniqueID>  (2340) 
1

>  <SMILES>  (2340) 
C=c1nc([O-])/c(=C/c2ccc(OCc3ccc(S(=O)(=O)N4CCOCC4)cc3)c(OC)c2)[n-]1

>  <Energy>  (2340) 
101.7570622291261

>  <Genealogy>  (2340) 
C=c1nc([O-])c(=Cc2ccc(OCc3ccc(S(=O)(=O)N4CCOCC4)cc3)c(OC)c2)[n-]1 (protonated)
C=c1nc([O-])/c(=C/c2ccc(OCc3ccc(S(=O)(=O)N4CCOCC4)cc3)c(OC)c2)[n-]1 (cis-trans isomerization)
C=c1nc([O-])/c(=C/c2ccc(OCc3ccc(S(=O)(=O)N4CCOCC4)cc3)c(OC)c2)[n-]1 (3D coordinates assigned)
C=c1nc([O-])/c(=C/c2ccc(OCc3ccc(S(=O)(=O)N4CCOCC4)cc3)c(OC)c2)[n-]1 (nonaromatic ring conformer: 101.7570622291261 kcal/mol)

>  <smiles>  (2340) 
C=c1nc(O)c(=Cc2ccc(OCc3ccc(S(=O)(=O)N4CCOCC4)cc3)c(OC)c2)[nH]1

>  <score_type>  (2340) 
oracle

>  <origin>  (2340) 
adg

>  <m_score__min__energy>  (2340) 
-15.27

>  <m_primary>  (2340) 
energy

$$$$
16:0
     RDKit          3D

 34 37  0  0  0  0  0  0  0  0999 V2000
   50.6020   27.4390   52.3460 C   0  0  0  0  0  0  0  0  0  0  0  0
   51.8360   28.0210   52.7530 O   0  0  0  0  0  0  0  0  0  0  0  0
   52.3010   29.2720   52.3180 C   0  0  0  0  0  0  0  0  0  0  0  0
   51.3740   30.1880   51.8120 C   0  0  0  0  0  0  0  0  0  0  0  0
   51.7950   31.4340   51.3370 C   0  0  0  0  0  0  0  0  0  0  0  0
   50.8660   32.3290   50.8210 O   0  0  0  0  0  0  0  0  0  0  0  0
   53.1480   31.7790   51.3750 C   0  0  0  0  0  0  0  0  0  0  0  0
   54.0940   30.8790   51.8940 C   0  0  0  0  0  0  0  0  0  0  0  0
   55.5300   31.2270   51.9180 C   0  0  0  0  0  0  0  0  0  0  0  0
   56.5200   30.3920   51.5270 N   0  0  0  0  0  0  0  0  0  0  0  0
   57.6280   31.1170   51.7820 C   0  0  0  0  0  0  0  0  0  0  0  0
   57.3170   32.3110   52.3140 N   0  0  0  0  0  0  0  0  0  0  0  0
   58.2440   33.3500   52.6640 C   0  0  0  0  0  0  0  0  0  0  0  0
   59.4940   33.4330   52.1810 C   0  0  0  0  0  0  0  0  0  0  0  0
   59.8940   33.1610   50.7870 C   0  0  0  0  0  0  0  0  0  0  0  0
   59.7030   34.0510   49.9160 O   0  0  0  0  0  0  0  0  0  0  0  0
   60.4690   31.8970   50.4270 N   0  0  0  0  0  0  0  0  0  0  0  0
   60.0010   30.9710   49.4360 C   0  0  0  0  0  0  0  0  0  0  0  0
   60.2270   29.5860   49.5340 C   0  0  0  0  0  0  0  0  0  0  0  0
   59.7930   28.7320   48.5170 C   0  0  0  0  0  0  0  0  0  0  0  0
   59.1360   29.2480   47.3980 C   0  0  0  0  0  0  0  0  0  0  0  0
   58.8960   30.6270   47.2870 C   0  0  0  0  0  0  0  0  0  0  0  0
   58.2230   31.1890   46.0910 C   0  0  0  0  0  0  0  0  0  0  0  0
   57.5810   32.2700   46.2000 O   0  0  0  0  0  0  0  0  0  0  0  0
   58.2730   30.5260   44.8130 N   0  0  0  0  0  0  0  0  0  0  0  0
   58.2740   31.3090   43.5740 C   0  0  0  0  0  0  0  0  0  0  0  0
   56.9550   31.0950   42.8070 C   0  0  0  0  0  0  0  0  0  0  0  0
   56.3710   29.7380   42.9780 N   0  0  0  0  0  0  0  0  0  0  0  0
   55.2050   29.7550   43.8780 C   0  0  0  0  0  0  0  0  0  0  0  0
   57.3640   28.7190   43.3850 C   0  0  0  0  0  0  0  0  0  0  0  0
   58.0380   29.0790   44.7210 C   0  0  0  0  0  0  0  0  0  0  0  0
   59.3530   31.4810   48.3040 C   0  0  0  0  0  0  0  0  0  0  0  0
   56.0010   32.4020   52.3780 N   0  0  0  0  0  0  0  0  0  0  0  0
   53.6640   29.6260   52.3650 C   0  0  0  0  0  0  0  0  0  0  0  0
  1  2  1  0
  2  3  1  0
  3  4  2  0
  4  5  1  0
  5  6  1  0
  5  7  2  0
  7  8  1  0
  8  9  1  0
  9 10  1  0
 10 11  2  0
 11 12  1  0
 12 13  1  0
 13 14  2  3
 14 15  1  0
 15 16  2  0
 15 17  1  0
 17 18  1  0
 18 19  2  0
 19 20  1  0
 20 21  2  0
 21 22  1  0
 22 23  1  0
 23 24  2  0
 23 25  1  0
 25 26  1  0
 26 27  1  0
 27 28  1  0
 28 29  1  0
 28 30  1  0
 30 31  1  0
 22 32  2  0
 12 33  1  0
  8 34  2  0
 34  3  1  0
 33  9  2  0
 32 18  1  0
 31 25  1  0
M  CHG  2   6  -1  17  -1
M  END
>  <UniqueID>  (2341) 
17

>  <SMILES>  (2341) 
COc1cc([O-])cc(-c2ncn(C=CC(=O)[N-]c3cccc(C(=O)N4CCN(C)CC4)c3)n2)c1

>  <Energy>  (2341) 
109.91830803835232

>  <Genealogy>  (2341) 
COc1cc([O-])cc(-c2ncn(C=CC(=O)[N-]c3cccc(C(=O)N4CCN(C)CC4)c3)n2)c1 (protonated)
COc1cc([O-])cc(-c2ncn(C=CC(=O)[N-]c3cccc(C(=O)N4CCN(C)CC4)c3)n2)c1 (3D coordinates assigned)
COc1cc([O-])cc(-c2ncn(C=CC(=O)[N-]c3cccc(C(=O)N4CCN(C)CC4)c3)n2)c1 (nonaromatic ring conformer: 109.91830803835232 kcal/mol)

>  <smiles>  (2341) 
COc1cc(O)cc(-c2ncn(C=CC(=O)Nc3cccc(C(=O)N4CCN(C)CC4)c3)n2)c1

>  <score_type>  (2341) 
oracle

>  <origin>  (2341) 
adg

>  <m_score__min__energy>  (2341) 
-15.09

>  <m_primary>  (2341) 
energy

$$$$
17:0
     RDKit          3D

 35 38  0  0  0  0  0  0  0  0999 V2000
   57.6290   28.5410   46.0220 O   0  0  0  0  0  0  0  0  0  0  0  0
   57.3680   27.9690   44.9290 C   0  0  0  0  0  0  0  0  0  0  0  0
   57.7850   26.5330   44.7500 C   0  0  0  0  0  0  0  0  0  0  0  0
   57.1690   25.6580   45.7990 C   0  0  0  0  0  0  0  0  0  0  0  0
   57.8010   24.6330   46.3980 N   0  0  0  0  0  0  0  0  0  0  0  0
   56.8680   24.1400   47.2420 C   0  0  0  0  0  0  0  0  0  0  0  0
   57.0810   23.1460   47.9840 O   0  0  0  0  0  0  0  0  0  0  0  0
   55.6860   24.7910   47.2230 N   0  0  0  0  0  0  0  0  0  0  0  0
   55.8950   25.7520   46.3060 C   0  0  0  0  0  0  0  0  0  0  0  0
   54.9410   26.6940   45.9370 O   0  0  0  0  0  0  0  0  0  0  0  0
   56.6060   28.6900   43.9480 N   0  0  0  0  0  0  0  0  0  0  0  0
   55.8750   29.9410   44.1340 C   0  0  0  0  0  0  0  0  0  0  0  0
   56.8220   31.1070   44.0640 C   0  0  0  0  0  0  0  0  0  0  0  0
   57.2860   31.5600   42.8200 C   0  0  0  0  0  0  0  0  0  0  0  0
   58.1540   32.6510   42.7460 C   0  0  0  0  0  0  0  0  0  0  0  0
   58.5370   33.3260   43.9080 C   0  0  0  0  0  0  0  0  0  0  0  0
   59.4230   34.3500   43.8150 F   0  0  0  0  0  0  0  0  0  0  0  0
   58.0360   32.9180   45.1580 C   0  0  0  0  0  0  0  0  0  0  0  0
   58.3730   33.6580   46.3940 C   0  0  0  0  0  0  0  0  0  0  0  0
   57.4710   34.3210   46.9730 O   0  0  0  0  0  0  0  0  0  0  0  0
   59.7190   33.6860   46.9080 N   0  0  0  0  0  0  0  0  0  0  0  0
   59.9350   33.9180   48.3440 C   0  0  0  0  0  0  0  0  0  0  0  0
   61.1960   33.1860   48.8270 C   0  0  0  0  0  0  0  0  0  0  0  0
   62.3110   33.3290   47.8740 N   0  0  0  0  0  0  0  0  0  0  0  0
   63.4300   32.4270   47.9610 C   0  0  0  0  0  0  0  0  0  0  0  0
   63.8620   31.8690   46.9150 O   0  0  0  0  0  0  0  0  0  0  0  0
   64.0710   32.1200   49.2570 C   0  0  0  0  0  0  0  0  0  0  0  0
   63.4790   31.1980   50.1360 C   0  0  0  0  0  0  0  0  0  0  0  0
   64.0840   30.9030   51.3620 C   0  0  0  0  0  0  0  0  0  0  0  0
   65.2900   31.5140   51.7120 C   0  0  0  0  0  0  0  0  0  0  0  0
   65.8970   32.4160   50.8350 C   0  0  0  0  0  0  0  0  0  0  0  0
   65.2920   32.7200   49.6110 C   0  0  0  0  0  0  0  0  0  0  0  0
   62.1390   34.1730   46.6880 C   0  0  0  0  0  0  0  0  0  0  0  0
   60.8500   33.7770   45.9680 C   0  0  0  0  0  0  0  0  0  0  0  0
   57.2090   31.7860   45.2310 C   0  0  0  0  0  0  0  0  0  0  0  0
  1  2  2  0
  2  3  1  0
  3  4  1  0
  4  5  1  0
  5  6  1  0
  6  7  2  0
  6  8  1  0
  8  9  1  0
  9 10  1  0
  2 11  1  0
 11 12  1  0
 12 13  1  0
 13 14  2  0
 14 15  1  0
 15 16  2  0
 16 17  1  0
 16 18  1  0
 18 19  1  0
 19 20  2  0
 19 21  1  0
 21 22  1  0
 22 23  1  0
 23 24  1  0
 24 25  1  0
 25 26  2  0
 25 27  1  0
 27 28  2  0
 28 29  1  0
 29 30  2  0
 30 31  1  0
 31 32  2  0
 24 33  1  0
 33 34  1  0
 18 35  2  0
  9  4  2  0
 35 13  1  0
 34 21  1  0
 32 27  1  0
M  CHG  3   5  -1   8  -1  11  -1
M  END
>  <UniqueID>  (2342) 
18

>  <SMILES>  (2342) 
O=C(Cc1[n-]c(=O)[n-]c1O)[N-]Cc1ccc(F)c(C(=O)N2CCN(C(=O)c3ccccc3)CC2)c1

>  <Energy>  (2342) 
96.89717289546685

>  <Genealogy>  (2342) 
O=C(Cc1[n-]c(=O)[n-]c1O)[N-]Cc1ccc(F)c(C(=O)N2CCN(C(=O)c3ccccc3)CC2)c1 (protonated)
O=C(Cc1[n-]c(=O)[n-]c1O)[N-]Cc1ccc(F)c(C(=O)N2CCN(C(=O)c3ccccc3)CC2)c1 (3D coordinates assigned)
O=C(Cc1[n-]c(=O)[n-]c1O)[N-]Cc1ccc(F)c(C(=O)N2CCN(C(=O)c3ccccc3)CC2)c1 (nonaromatic ring conformer: 96.89717289546685 kcal/mol)

>  <smiles>  (2342) 
O=C(Cc1[nH]c(=O)[nH]c1O)NCc1ccc(F)c(C(=O)N2CCN(C(=O)c3ccccc3)CC2)c1

>  <score_type>  (2342) 
oracle

>  <origin>  (2342) 
adg

>  <m_score__min__energy>  (2342) 
-16.489999999999998

>  <m_primary>  (2342) 
energy

$$$$
29:0
     RDKit          3D

 28 31  0  0  0  0  0  0  0  0999 V2000
   57.4100   25.5860   43.4270 C   0  0  0  0  0  0  0  0  0  0  0  0
   57.5920   25.7220   44.7500 C   0  0  0  0  0  0  0  0  0  0  0  0
   57.0260   24.9190   45.7470 C   0  0  0  0  0  0  0  0  0  0  0  0
   56.2240   23.8490   45.5780 C   0  0  0  0  0  0  0  0  0  0  0  0
   54.7570   23.9280   45.4620 C   0  0  0  0  0  0  0  0  0  0  0  0
   53.9920   22.8910   45.0790 N   0  0  0  0  0  0  0  0  0  0  0  0
   52.7500   23.4190   45.0260 C   0  0  0  0  0  0  0  0  0  0  0  0
   51.7370   22.7410   44.7130 O   0  0  0  0  0  0  0  0  0  0  0  0
   52.6800   24.7340   45.3260 N   0  0  0  0  0  0  0  0  0  0  0  0
   53.9600   25.0450   45.5870 C   0  0  0  0  0  0  0  0  0  0  0  0
   54.3910   26.3310   45.8850 O   0  0  0  0  0  0  0  0  0  0  0  0
   57.5060   25.4030   46.9560 C   0  0  0  0  0  0  0  0  0  0  0  0
   58.3280   26.4710   46.6570 C   0  0  0  0  0  0  0  0  0  0  0  0
   59.0780   27.2730   47.6770 C   0  0  0  0  0  0  0  0  0  0  0  0
   58.3710   26.6790   45.3200 N   0  0  0  0  0  0  0  0  0  0  0  0
   59.1880   27.6920   44.6360 C   0  0  0  0  0  0  0  0  0  0  0  0
   58.6300   29.0540   44.8890 C   0  0  0  0  0  0  0  0  0  0  0  0
   59.3780   30.1350   45.1770 N   0  0  0  0  0  0  0  0  0  0  0  0
   58.4280   31.0790   45.3490 C   0  0  0  0  0  0  0  0  0  0  0  0
   58.7220   32.4870   45.6940 C   0  0  0  0  0  0  0  0  0  0  0  0
   58.5630   33.5040   44.7350 C   0  0  0  0  0  0  0  0  0  0  0  0
   58.8410   34.8340   45.0630 C   0  0  0  0  0  0  0  0  0  0  0  0
   59.2810   35.1630   46.3470 C   0  0  0  0  0  0  0  0  0  0  0  0
   59.4430   34.1610   47.3080 C   0  0  0  0  0  0  0  0  0  0  0  0
   59.9960   34.5750   48.9210 Cl  0  0  0  0  0  0  0  0  0  0  0  0
   59.1660   32.8280   46.9850 C   0  0  0  0  0  0  0  0  0  0  0  0
   57.1830   30.5910   45.1800 N   0  0  0  0  0  0  0  0  0  0  0  0
   57.3500   29.3350   44.8990 O   0  0  0  0  0  0  0  0  0  0  0  0
  1  2  2  0
  2  3  1  0
  3  4  2  0
  4  5  1  0
  5  6  1  0
  6  7  1  0
  7  8  2  0
  7  9  1  0
  9 10  1  0
 10 11  1  0
  3 12  1  0
 12 13  2  0
 13 14  1  0
 13 15  1  0
 15 16  1  0
 16 17  1  0
 17 18  2  0
 18 19  1  0
 19 20  1  0
 20 21  2  0
 21 22  1  0
 22 23  2  0
 23 24  1  0
 24 25  1  0
 24 26  2  0
 19 27  2  0
 27 28  1  0
 15  2  1  0
 28 17  1  0
 10  5  2  0
 26 20  1  0
M  CHG  3   6  -1   9  -1  11  -1
M  END
>  <UniqueID>  (2343) 
29

>  <SMILES>  (2343) 
C=c1/c(=C/c2[n-]c(=O)[n-]c2[O-])cc(C)n1Cc1nc(-c2cccc(Cl)c2)no1

>  <Energy>  (2343) 
141.7278252545496

>  <Genealogy>  (2343) 
C=c1c(=Cc2[n-]c(=O)[n-]c2[O-])cc(C)n1Cc1nc(-c2cccc(Cl)c2)no1 (protonated)
C=c1/c(=C/c2[n-]c(=O)[n-]c2[O-])cc(C)n1Cc1nc(-c2cccc(Cl)c2)no1 (cis-trans isomerization)
C=c1/c(=C/c2[n-]c(=O)[n-]c2[O-])cc(C)n1Cc1nc(-c2cccc(Cl)c2)no1 (3D coordinates assigned)
C=c1/c(=C/c2[n-]c(=O)[n-]c2[O-])cc(C)n1Cc1nc(-c2cccc(Cl)c2)no1 (optimized conformer: 141.7278252545496 kcal/mol)

>  <smiles>  (2343) 
C=c1c(=Cc2[nH]c(=O)[nH]c2O)cc(C)n1Cc1nc(-c2cccc(Cl)c2)no1

>  <score_type>  (2343) 
oracle

>  <origin>  (2343) 
adg

>  <m_score__min__energy>  (2343) 
-17.690000000000001

>  <m_primary>  (2343) 
energy

$$$$
33:0
     RDKit          3D

 31 34  0  0  0  0  0  0  0  0999 V2000
   59.9340   27.8640   46.6620 C   0  0  0  0  0  0  0  0  0  0  0  0
   59.0070   28.6320   46.0690 C   0  0  0  0  0  0  0  0  0  0  0  0
   58.0140   28.2210   45.1650 C   0  0  0  0  0  0  0  0  0  0  0  0
   57.6030   26.9910   44.7970 C   0  0  0  0  0  0  0  0  0  0  0  0
   57.1150   25.9410   45.7050 C   0  0  0  0  0  0  0  0  0  0  0  0
   57.8900   24.9990   46.2740 N   0  0  0  0  0  0  0  0  0  0  0  0
   57.0440   24.3680   47.1180 C   0  0  0  0  0  0  0  0  0  0  0  0
   57.3990   23.3930   47.8310 O   0  0  0  0  0  0  0  0  0  0  0  0
   55.7890   24.8670   47.1400 N   0  0  0  0  0  0  0  0  0  0  0  0
   55.8580   25.8710   46.2520 C   0  0  0  0  0  0  0  0  0  0  0  0
   54.7950   26.7150   45.9550 O   0  0  0  0  0  0  0  0  0  0  0  0
   57.4360   29.3800   44.6720 C   0  0  0  0  0  0  0  0  0  0  0  0
   58.0370   30.4360   45.3240 C   0  0  0  0  0  0  0  0  0  0  0  0
   57.7030   31.8800   45.1060 C   0  0  0  0  0  0  0  0  0  0  0  0
   58.9820   29.9850   46.1770 N   0  0  0  0  0  0  0  0  0  0  0  0
   59.8440   30.8140   46.9750 C   0  0  0  0  0  0  0  0  0  0  0  0
   59.3060   31.6110   47.9940 C   0  0  0  0  0  0  0  0  0  0  0  0
   60.1380   32.4270   48.7630 C   0  0  0  0  0  0  0  0  0  0  0  0
   61.5220   32.4530   48.5290 C   0  0  0  0  0  0  0  0  0  0  0  0
   62.4070   33.3220   49.3350 C   0  0  0  0  0  0  0  0  0  0  0  0
   62.5190   34.5400   49.0260 O   0  0  0  0  0  0  0  0  0  0  0  0
   63.1550   32.8010   50.4510 N   0  0  0  0  0  0  0  0  0  0  0  0
   63.4570   33.6580   51.6010 C   0  0  0  0  0  0  0  0  0  0  0  0
   64.9670   33.9300   51.6930 C   0  0  0  0  0  0  0  0  0  0  0  0
   65.8580   32.7130   51.2660 C   0  0  0  0  0  0  0  0  0  0  0  0
   67.0300   32.5590   52.2580 C   0  0  0  0  0  0  0  0  0  0  0  0
   66.4500   32.9630   49.8590 C   0  0  0  0  0  0  0  0  0  0  0  0
   65.0370   31.3940   51.2650 C   0  0  0  0  0  0  0  0  0  0  0  0
   63.7990   31.4820   50.3560 C   0  0  0  0  0  0  0  0  0  0  0  0
   62.0560   31.6710   47.4900 C   0  0  0  0  0  0  0  0  0  0  0  0
   61.2210   30.8550   46.7210 C   0  0  0  0  0  0  0  0  0  0  0  0
  1  2  2  0
  2  3  1  0
  3  4  2  3
  4  5  1  0
  5  6  1  0
  6  7  1  0
  7  8  2  0
  7  9  1  0
  9 10  1  0
 10 11  1  0
  3 12  1  0
 12 13  2  0
 13 14  1  0
 13 15  1  0
 15 16  1  0
 16 17  2  0
 17 18  1  0
 18 19  2  0
 19 20  1  0
 20 21  2  0
 20 22  1  0
 22 23  1  0
 23 24  1  0
 24 25  1  0
 25 26  1  0
 25 27  1  0
 25 28  1  0
 28 29  1  0
 19 30  1  0
 30 31  2  0
 15  2  1  0
 31 16  1  0
 10  5  2  0
 29 22  1  0
M  CHG  3   6  -1   9  -1  11  -1
M  END
>  <UniqueID>  (2344) 
33

>  <SMILES>  (2344) 
C=c1c(=Cc2[n-]c(=O)[n-]c2[O-])cc(C)n1-c1ccc(C(=O)N2CCC(C)(C)CC2)cc1

>  <Energy>  (2344) 
140.82285297373602

>  <Genealogy>  (2344) 
C=c1c(=Cc2[n-]c(=O)[n-]c2[O-])cc(C)n1-c1ccc(C(=O)N2CCC(C)(C)CC2)cc1 (protonated)
C=c1c(=Cc2[n-]c(=O)[n-]c2[O-])cc(C)n1-c1ccc(C(=O)N2CCC(C)(C)CC2)cc1 (3D coordinates assigned)
C=c1c(=Cc2[n-]c(=O)[n-]c2[O-])cc(C)n1-c1ccc(C(=O)N2CCC(C)(C)CC2)cc1 (nonaromatic ring conformer: 140.82285297373602 kcal/mol)

>  <smiles>  (2344) 
C=c1c(=Cc2[nH]c(=O)[nH]c2O)cc(C)n1-c1ccc(C(=O)N2CCC(C)(C)CC2)cc1

>  <score_type>  (2344) 
oracle

>  <origin>  (2344) 
adg

>  <m_score__min__energy>  (2344) 
-16.050000000000001

>  <m_primary>  (2344) 
energy

$$$$
45:0
     RDKit          3D

 32 35  0  0  0  0  0  0  0  0999 V2000
   57.7280   27.9970   43.6730 C   0  0  0  0  0  0  0  0  0  0  0  0
   57.8020   27.7880   44.9970 C   0  0  0  0  0  0  0  0  0  0  0  0
   57.7790   26.5530   45.6690 C   0  0  0  0  0  0  0  0  0  0  0  0
   57.5040   25.3100   45.2260 C   0  0  0  0  0  0  0  0  0  0  0  0
   56.1870   24.6460   45.2910 C   0  0  0  0  0  0  0  0  0  0  0  0
   55.0450   25.3770   45.6460 C   0  0  0  0  0  0  0  0  0  0  0  0
   55.1420   26.7210   45.9890 O   0  0  0  0  0  0  0  0  0  0  0  0
   53.8300   24.7700   45.6660 N   0  0  0  0  0  0  0  0  0  0  0  0
   53.6940   23.4610   45.3310 C   0  0  0  0  0  0  0  0  0  0  0  0
   52.5600   22.9180   45.3640 O   0  0  0  0  0  0  0  0  0  0  0  0
   54.7810   22.7400   44.9550 N   0  0  0  0  0  0  0  0  0  0  0  0
   56.0160   23.3000   44.9160 C   0  0  0  0  0  0  0  0  0  0  0  0
   56.9990   22.6080   44.5350 O   0  0  0  0  0  0  0  0  0  0  0  0
   58.0920   26.8250   46.9900 C   0  0  0  0  0  0  0  0  0  0  0  0
   58.2300   28.1930   47.0970 C   0  0  0  0  0  0  0  0  0  0  0  0
   58.5530   28.9190   48.3670 C   0  0  0  0  0  0  0  0  0  0  0  0
   58.0540   28.7780   45.8920 N   0  0  0  0  0  0  0  0  0  0  0  0
   58.1290   30.1900   45.6250 C   0  0  0  0  0  0  0  0  0  0  0  0
   57.1420   30.8140   44.8470 C   0  0  0  0  0  0  0  0  0  0  0  0
   57.2180   32.1810   44.5800 C   0  0  0  0  0  0  0  0  0  0  0  0
   58.2700   32.9410   45.0990 C   0  0  0  0  0  0  0  0  0  0  0  0
   59.2550   32.3350   45.8960 C   0  0  0  0  0  0  0  0  0  0  0  0
   60.3480   33.1530   46.4590 C   0  0  0  0  0  0  0  0  0  0  0  0
   61.0460   33.8570   45.6800 O   0  0  0  0  0  0  0  0  0  0  0  0
   60.6170   33.1790   47.8750 N   0  0  0  0  0  0  0  0  0  0  0  0
   59.5450   32.9750   48.8560 C   0  0  0  0  0  0  0  0  0  0  0  0
   59.7980   33.8530   50.0850 C   0  0  0  0  0  0  0  0  0  0  0  0
   61.1060   33.6540   50.5860 O   0  0  0  0  0  0  0  0  0  0  0  0
   62.0550   34.0970   49.6350 C   0  0  0  0  0  0  0  0  0  0  0  0
   61.9960   33.2400   48.3670 C   0  0  0  0  0  0  0  0  0  0  0  0
   59.1920   30.9510   46.1360 C   0  0  0  0  0  0  0  0  0  0  0  0
   60.1870   30.3290   46.8220 F   0  0  0  0  0  0  0  0  0  0  0  0
  1  2  2  0
  2  3  1  0
  3  4  2  0
  4  5  1  0
  5  6  2  0
  6  7  1  0
  6  8  1  0
  8  9  1  0
  9 10  2  0
  9 11  1  0
 11 12  1  0
 12 13  2  0
  3 14  1  0
 14 15  2  0
 15 16  1  0
 15 17  1  0
 17 18  1  0
 18 19  2  0
 19 20  1  0
 20 21  2  0
 21 22  1  0
 22 23  1  0
 23 24  2  0
 23 25  1  0
 25 26  1  0
 26 27  1  0
 27 28  1  0
 28 29  1  0
 29 30  1  0
 22 31  2  0
 31 32  1  0
 17  2  1  0
 31 18  1  0
 12  5  1  0
 30 25  1  0
M  CHG  3   7  -1   8  -1  11  -1
M  END
>  <UniqueID>  (2345) 
44

>  <SMILES>  (2345) 
C=c1/c(=C\c2c([O-])[n-]c(=O)[n-]c2=O)cc(C)n1-c1cccc(C(=O)N2CCOCC2)c1F

>  <Energy>  (2345) 
109.79905431470021

>  <Genealogy>  (2345) 
C=c1c(=Cc2c([O-])[n-]c(=O)[n-]c2=O)cc(C)n1-c1cccc(C(=O)N2CCOCC2)c1F (protonated)
C=c1/c(=C\c2c([O-])[n-]c(=O)[n-]c2=O)cc(C)n1-c1cccc(C(=O)N2CCOCC2)c1F (cis-trans isomerization)
C=c1/c(=C\c2c([O-])[n-]c(=O)[n-]c2=O)cc(C)n1-c1cccc(C(=O)N2CCOCC2)c1F (3D coordinates assigned)
C=c1/c(=C\c2c([O-])[n-]c(=O)[n-]c2=O)cc(C)n1-c1cccc(C(=O)N2CCOCC2)c1F (nonaromatic ring conformer: 109.79905431470021 kcal/mol)

>  <smiles>  (2345) 
C=c1c(=Cc2c(O)[nH]c(=O)[nH]c2=O)cc(C)n1-c1cccc(C(=O)N2CCOCC2)c1F

>  <score_type>  (2345) 
oracle

>  <origin>  (2345) 
adg

>  <m_score__min__energy>  (2345) 
-16.489999999999998

>  <m_primary>  (2345) 
energy

$$$$
57:0
     RDKit          3D

 28 30  0  0  0  0  0  0  0  0999 V2000
   58.8910   32.9980   49.2770 C   0  0  0  0  0  0  0  0  0  0  0  0
   59.0950   33.4810   47.8650 C   0  0  0  0  0  0  0  0  0  0  0  0
   57.9670   33.7300   47.0640 C   0  0  0  0  0  0  0  0  0  0  0  0
   58.1130   34.1620   45.7460 C   0  0  0  0  0  0  0  0  0  0  0  0
   59.3850   34.3490   45.2090 C   0  0  0  0  0  0  0  0  0  0  0  0
   60.5180   34.0940   45.9840 C   0  0  0  0  0  0  0  0  0  0  0  0
   60.3900   33.6580   47.3130 C   0  0  0  0  0  0  0  0  0  0  0  0
   61.8550   33.2920   48.2430 S   0  0  0  0  0  0  0  0  0  0  0  0
   62.0940   34.3880   49.2430 O   0  0  0  0  0  0  0  0  0  0  0  0
   63.0500   33.2200   47.3300 O   0  0  0  0  0  0  0  0  0  0  0  0
   61.6450   31.7790   49.0820 N   0  0  0  0  0  0  0  0  0  0  0  0
   61.7750   30.6300   48.1820 C   0  0  0  0  0  0  0  0  0  0  0  0
   60.5030   30.3620   47.4140 C   0  0  0  0  0  0  0  0  0  0  0  0
   59.3390   29.9730   48.0940 C   0  0  0  0  0  0  0  0  0  0  0  0
   58.1580   29.7270   47.3920 C   0  0  0  0  0  0  0  0  0  0  0  0
   58.1240   29.8350   45.9900 C   0  0  0  0  0  0  0  0  0  0  0  0
   56.8730   29.5760   45.2280 C   0  0  0  0  0  0  0  0  0  0  0  0
   56.3310   30.5240   44.5990 O   0  0  0  0  0  0  0  0  0  0  0  0
   56.2080   28.3030   45.2390 N   0  0  0  0  0  0  0  0  0  0  0  0
   56.6840   27.1810   45.6990 C   0  0  0  0  0  0  0  0  0  0  0  0
   58.0290   26.9720   45.7930 N   0  0  0  0  0  0  0  0  0  0  0  0
   58.5450   25.8070   46.2660 C   0  0  0  0  0  0  0  0  0  0  0  0
   57.6930   24.7750   46.6640 C   0  0  0  0  0  0  0  0  0  0  0  0
   56.3130   24.9550   46.5670 C   0  0  0  0  0  0  0  0  0  0  0  0
   55.7990   26.1600   46.0820 C   0  0  0  0  0  0  0  0  0  0  0  0
   54.4240   26.3380   45.9850 O   0  0  0  0  0  0  0  0  0  0  0  0
   59.2830   30.2600   45.3150 C   0  0  0  0  0  0  0  0  0  0  0  0
   60.4560   30.5390   46.0230 C   0  0  0  0  0  0  0  0  0  0  0  0
  1  2  1  0
  2  3  2  0
  3  4  1  0
  4  5  2  0
  5  6  1  0
  6  7  2  0
  7  8  1  0
  8  9  2  0
  8 10  2  0
  8 11  1  0
 11 12  1  0
 12 13  1  0
 13 14  2  0
 14 15  1  0
 15 16  2  0
 16 17  1  0
 17 18  2  0
 17 19  1  0
 19 20  2  3
 20 21  1  0
 21 22  1  0
 22 23  2  0
 23 24  1  0
 24 25  2  0
 25 26  1  0
 16 27  1  0
 27 28  2  0
  7  2  1  0
 28 13  1  0
 25 20  1  0
M  CHG  3  11  -1  21  -1  26  -1
M  END
>  <UniqueID>  (2346) 
56

>  <SMILES>  (2346) 
Cc1ccccc1S(=O)(=O)[N-]Cc1ccc(C(=O)N=c2[n-]cccc2[O-])cc1

>  <Energy>  (2346) 
53.02615792777448

>  <Genealogy>  (2346) 
Cc1ccccc1S(=O)(=O)[N-]Cc1ccc(C(=O)N=c2[n-]cccc2[O-])cc1 (protonated)
Cc1ccccc1S(=O)(=O)[N-]Cc1ccc(C(=O)N=c2[n-]cccc2[O-])cc1 (3D coordinates assigned)
Cc1ccccc1S(=O)(=O)[N-]Cc1ccc(C(=O)N=c2[n-]cccc2[O-])cc1 (optimized conformer: 53.02615792777448 kcal/mol)

>  <smiles>  (2346) 
Cc1ccccc1S(=O)(=O)NCc1ccc(C(=O)N=c2[nH]cccc2O)cc1

>  <score_type>  (2346) 
oracle

>  <origin>  (2346) 
adg

>  <m_score__min__energy>  (2346) 
-15.06

>  <m_primary>  (2346) 
energy

$$$$
61:0
     RDKit          3D

 28 30  0  0  0  0  0  0  0  0999 V2000
   53.8880   28.2470   53.2620 C   0  0  0  0  0  0  0  0  0  0  0  0
   54.7590   29.2170   52.9530 C   0  0  0  0  0  0  0  0  0  0  0  0
   56.0800   28.9130   53.0860 N   0  0  0  0  0  0  0  0  0  0  0  0
   57.0820   29.7120   52.6430 C   0  0  0  0  0  0  0  0  0  0  0  0
   58.5010   29.2520   52.8200 C   0  0  0  0  0  0  0  0  0  0  0  0
   56.7650   30.9060   51.9740 C   0  0  0  0  0  0  0  0  0  0  0  0
   57.8090   31.8080   51.4520 C   0  0  0  0  0  0  0  0  0  0  0  0
   58.2080   32.7600   52.1750 O   0  0  0  0  0  0  0  0  0  0  0  0
   58.3770   31.6140   50.1440 N   0  0  0  0  0  0  0  0  0  0  0  0
   58.4690   30.2680   49.5560 C   0  0  0  0  0  0  0  0  0  0  0  0
   59.8130   30.1020   48.8400 C   0  0  0  0  0  0  0  0  0  0  0  0
   60.0700   31.2040   47.7720 C   0  0  0  0  0  0  0  0  0  0  0  0
   59.9440   30.6430   46.3460 C   0  0  0  0  0  0  0  0  0  0  0  0
   58.5820   30.6010   45.9720 O   0  0  0  0  0  0  0  0  0  0  0  0
   58.3780   31.2860   44.7500 C   0  0  0  0  0  0  0  0  0  0  0  0
   57.4360   32.4660   44.9600 C   0  0  0  0  0  0  0  0  0  0  0  0
   59.1470   32.4340   47.9400 C   0  0  0  0  0  0  0  0  0  0  0  0
   58.9130   32.7720   49.4160 C   0  0  0  0  0  0  0  0  0  0  0  0
   55.4210   31.2560   51.8180 C   0  0  0  0  0  0  0  0  0  0  0  0
   54.3900   30.4730   52.3760 C   0  0  0  0  0  0  0  0  0  0  0  0
   53.1360   30.9900   52.3390 C   0  0  0  0  0  0  0  0  0  0  0  0
   52.2360   31.0210   51.1720 C   0  0  0  0  0  0  0  0  0  0  0  0
   52.3080   30.1400   50.1590 N   0  0  0  0  0  0  0  0  0  0  0  0
   51.3940   30.6010   49.2780 C   0  0  0  0  0  0  0  0  0  0  0  0
   51.1540   30.0240   48.1850 O   0  0  0  0  0  0  0  0  0  0  0  0
   50.7640   31.7350   49.6530 N   0  0  0  0  0  0  0  0  0  0  0  0
   51.3180   31.9960   50.8490 C   0  0  0  0  0  0  0  0  0  0  0  0
   51.0140   33.1170   51.6100 O   0  0  0  0  0  0  0  0  0  0  0  0
  1  2  2  0
  2  3  1  0
  3  4  2  0
  4  5  1  0
  4  6  1  0
  6  7  1  0
  7  8  2  0
  7  9  1  0
  9 10  1  0
 10 11  1  0
 11 12  1  0
 12 13  1  0
 13 14  1  0
 14 15  1  0
 15 16  1  0
 12 17  1  0
 17 18  1  0
  6 19  2  0
 19 20  1  0
 20 21  2  3
 21 22  1  0
 22 23  1  0
 23 24  1  0
 24 25  2  0
 24 26  1  0
 26 27  1  0
 27 28  1  0
 20  2  1  0
 27 22  2  0
 18  9  1  0
M  CHG  3  23  -1  26  -1  28  -1
M  END
>  <UniqueID>  (2347) 
59

>  <SMILES>  (2347) 
C=c1nc(C)c(C(=O)N2CCC(COCC)CC2)cc1=Cc1[n-]c(=O)[n-]c1[O-]

>  <Energy>  (2347) 
108.03000423420512

>  <Genealogy>  (2347) 
C=c1nc(C)c(C(=O)N2CCC(COCC)CC2)cc1=Cc1[n-]c(=O)[n-]c1[O-] (protonated)
C=c1nc(C)c(C(=O)N2CCC(COCC)CC2)cc1=Cc1[n-]c(=O)[n-]c1[O-] (3D coordinates assigned)
C=c1nc(C)c(C(=O)N2CCC(COCC)CC2)cc1=Cc1[n-]c(=O)[n-]c1[O-] (nonaromatic ring conformer: 108.03000423420512 kcal/mol)

>  <smiles>  (2347) 
C=c1nc(C)c(C(=O)N2CCC(COCC)CC2)cc1=Cc1[nH]c(=O)[nH]c1O

>  <score_type>  (2347) 
oracle

>  <origin>  (2347) 
adg

>  <m_score__min__energy>  (2347) 
-17.100000000000001

>  <m_primary>  (2347) 
energy

$$$$
65:0
     RDKit          3D

 31 34  0  0  0  0  0  0  0  0999 V2000
   59.7520   29.3660   44.7940 C   0  0  0  0  0  0  0  0  0  0  0  0
   59.5900   29.0240   46.0830 C   0  0  0  0  0  0  0  0  0  0  0  0
   58.7760   27.9960   46.5660 C   0  0  0  0  0  0  0  0  0  0  0  0
   58.0350   27.1320   45.8450 C   0  0  0  0  0  0  0  0  0  0  0  0
   57.2900   26.0000   46.4270 C   0  0  0  0  0  0  0  0  0  0  0  0
   57.8850   24.8940   46.9070 N   0  0  0  0  0  0  0  0  0  0  0  0
   56.8460   24.1040   47.2540 C   0  0  0  0  0  0  0  0  0  0  0  0
   57.0030   22.9640   47.7640 O   0  0  0  0  0  0  0  0  0  0  0  0
   55.6280   24.6250   47.0000 N   0  0  0  0  0  0  0  0  0  0  0  0
   55.9240   25.8200   46.4660 C   0  0  0  0  0  0  0  0  0  0  0  0
   54.9670   26.7040   45.9820 O   0  0  0  0  0  0  0  0  0  0  0  0
   58.9250   27.9990   47.9440 C   0  0  0  0  0  0  0  0  0  0  0  0
   59.8020   29.0200   48.2500 C   0  0  0  0  0  0  0  0  0  0  0  0
   60.2130   29.3680   49.6270 C   0  0  0  0  0  0  0  0  0  0  0  0
   60.9160   28.5510   50.2810 O   0  0  0  0  0  0  0  0  0  0  0  0
   59.8380   30.6260   50.2220 N   0  0  0  0  0  0  0  0  0  0  0  0
   60.6450   31.2100   51.3030 C   0  0  0  0  0  0  0  0  0  0  0  0
   59.8050   31.3580   52.5820 C   0  0  0  0  0  0  0  0  0  0  0  0
   58.3430   31.7790   52.3110 C   0  0  0  0  0  0  0  0  0  0  0  0
   58.1340   32.3150   50.8890 C   0  0  0  0  0  0  0  0  0  0  0  0
   58.5620   31.2630   49.8550 C   0  0  0  0  0  0  0  0  0  0  0  0
   60.2040   29.6510   47.1200 N   0  0  0  0  0  0  0  0  0  0  0  0
   61.1620   30.7660   47.0310 C   0  0  0  0  0  0  0  0  0  0  0  0
   60.4740   32.0940   47.2360 C   0  0  0  0  0  0  0  0  0  0  0  0
   61.1110   33.1320   47.9360 C   0  0  0  0  0  0  0  0  0  0  0  0
   60.4770   34.3640   48.1020 C   0  0  0  0  0  0  0  0  0  0  0  0
   59.2060   34.5790   47.5620 C   0  0  0  0  0  0  0  0  0  0  0  0
   58.5600   33.5550   46.8440 C   0  0  0  0  0  0  0  0  0  0  0  0
   57.2870   33.7220   46.2790 O   0  0  0  0  0  0  0  0  0  0  0  0
   57.0460   34.2550   44.9810 C   0  0  0  0  0  0  0  0  0  0  0  0
   59.2030   32.3220   46.6830 C   0  0  0  0  0  0  0  0  0  0  0  0
  1  2  2  0
  2  3  1  0
  3  4  2  0
  4  5  1  0
  5  6  1  0
  6  7  1  0
  7  8  2  0
  7  9  1  0
  9 10  1  0
 10 11  1  0
  3 12  1  0
 12 13  2  0
 13 14  1  0
 14 15  2  0
 14 16  1  0
 16 17  1  0
 17 18  1  0
 18 19  1  0
 19 20  1  0
 20 21  1  0
 13 22  1  0
 22 23  1  0
 23 24  1  0
 24 25  2  0
 25 26  1  0
 26 27  2  0
 27 28  1  0
 28 29  1  0
 29 30  1  0
 28 31  2  0
 22  2  1  0
 31 24  1  0
 10  5  2  0
 21 16  1  0
M  CHG  3   6  -1   9  -1  11  -1
M  END
>  <UniqueID>  (2348) 
63

>  <SMILES>  (2348) 
C=c1/c(=C/c2[n-]c(=O)[n-]c2[O-])cc(C(=O)N2CCCCC2)n1Cc1cccc(OC)c1

>  <Energy>  (2348) 
128.00016374918528

>  <Genealogy>  (2348) 
C=c1c(=Cc2[n-]c(=O)[n-]c2[O-])cc(C(=O)N2CCCCC2)n1Cc1cccc(OC)c1 (protonated)
C=c1/c(=C/c2[n-]c(=O)[n-]c2[O-])cc(C(=O)N2CCCCC2)n1Cc1cccc(OC)c1 (cis-trans isomerization)
C=c1/c(=C/c2[n-]c(=O)[n-]c2[O-])cc(C(=O)N2CCCCC2)n1Cc1cccc(OC)c1 (3D coordinates assigned)
C=c1/c(=C/c2[n-]c(=O)[n-]c2[O-])cc(C(=O)N2CCCCC2)n1Cc1cccc(OC)c1 (nonaromatic ring conformer: 128.00016374918528 kcal/mol)

>  <smiles>  (2348) 
C=c1c(=Cc2[nH]c(=O)[nH]c2O)cc(C(=O)N2CCCCC2)n1Cc1cccc(OC)c1

>  <score_type>  (2348) 
oracle

>  <origin>  (2348) 
adg

>  <m_score__min__energy>  (2348) 
-16.550000000000001

>  <m_primary>  (2348) 
energy

$$$$
71:0
     RDKit          3D

 31 34  0  0  0  0  0  0  0  0999 V2000
   53.3970   28.4190   53.1630 C   0  0  0  0  0  0  0  0  0  0  0  0
   54.4380   29.1800   52.7910 C   0  0  0  0  0  0  0  0  0  0  0  0
   54.4050   30.3320   51.9870 C   0  0  0  0  0  0  0  0  0  0  0  0
   53.4090   30.8830   51.2660 C   0  0  0  0  0  0  0  0  0  0  0  0
   52.1690   31.4540   51.8080 C   0  0  0  0  0  0  0  0  0  0  0  0
   51.7840   31.3090   53.0880 N   0  0  0  0  0  0  0  0  0  0  0  0
   50.6710   32.0690   53.1690 C   0  0  0  0  0  0  0  0  0  0  0  0
   50.0020   32.1790   54.2280 O   0  0  0  0  0  0  0  0  0  0  0  0
   50.3400   32.7120   52.0290 N   0  0  0  0  0  0  0  0  0  0  0  0
   51.3050   32.3280   51.1780 C   0  0  0  0  0  0  0  0  0  0  0  0
   51.3980   32.7900   49.8670 O   0  0  0  0  0  0  0  0  0  0  0  0
   55.6800   30.8690   52.0300 C   0  0  0  0  0  0  0  0  0  0  0  0
   56.4520   30.0110   52.7820 C   0  0  0  0  0  0  0  0  0  0  0  0
   57.8940   30.2030   53.0250 C   0  0  0  0  0  0  0  0  0  0  0  0
   58.3940   29.7640   54.0950 O   0  0  0  0  0  0  0  0  0  0  0  0
   58.7210   30.9130   52.0850 N   0  0  0  0  0  0  0  0  0  0  0  0
   58.1660   32.0420   51.3270 C   0  0  0  0  0  0  0  0  0  0  0  0
   59.2680   32.7670   50.5410 C   0  0  0  0  0  0  0  0  0  0  0  0
   60.1040   31.8230   49.7670 N   0  0  0  0  0  0  0  0  0  0  0  0
   59.4240   31.3810   48.5300 C   0  0  0  0  0  0  0  0  0  0  0  0
   59.3690   32.5030   47.5260 C   0  0  0  0  0  0  0  0  0  0  0  0
   58.1800   32.7590   46.8240 C   0  0  0  0  0  0  0  0  0  0  0  0
   58.1160   33.8100   45.9040 C   0  0  0  0  0  0  0  0  0  0  0  0
   59.2380   34.6140   45.6810 C   0  0  0  0  0  0  0  0  0  0  0  0
   59.1730   35.6590   44.7680 O   0  0  0  0  0  0  0  0  0  0  0  0
   60.4250   34.3670   46.3770 C   0  0  0  0  0  0  0  0  0  0  0  0
   60.4920   33.3150   47.2970 C   0  0  0  0  0  0  0  0  0  0  0  0
   60.6330   30.6780   50.5620 C   0  0  0  0  0  0  0  0  0  0  0  0
   60.1610   30.6520   52.0240 C   0  0  0  0  0  0  0  0  0  0  0  0
   55.7010   28.9880   53.2560 N   0  0  0  0  0  0  0  0  0  0  0  0
   56.1260   27.9610   54.2140 C   0  0  0  0  0  0  0  0  0  0  0  0
  1  2  2  0
  2  3  1  0
  3  4  2  3
  4  5  1  0
  5  6  1  0
  6  7  1  0
  7  8  2  0
  7  9  1  0
  9 10  1  0
 10 11  1  0
  3 12  1  0
 12 13  2  0
 13 14  1  0
 14 15  2  0
 14 16  1  0
 16 17  1  0
 17 18  1  0
 18 19  1  0
 19 20  1  0
 20 21  1  0
 21 22  2  0
 22 23  1  0
 23 24  2  0
 24 25  1  0
 24 26  1  0
 26 27  2  0
 19 28  1  0
 28 29  1  0
 13 30  1  0
 30 31  1  0
 30  2  1  0
 10  5  2  0
 29 16  1  0
 27 21  1  0
M  CHG  3   6  -1   9  -1  25  -1
M  END
>  <UniqueID>  (2349) 
68

>  <SMILES>  (2349) 
C=c1c(=Cc2[n-]c(=O)[n-]c2O)cc(C(=O)N2CCN(Cc3ccc([O-])cc3)CC2)n1C

>  <Energy>  (2349) 
138.1257518853896

>  <Genealogy>  (2349) 
C=c1c(=Cc2[n-]c(=O)[n-]c2O)cc(C(=O)N2CCN(Cc3ccc([O-])cc3)CC2)n1C (protonated)
C=c1c(=Cc2[n-]c(=O)[n-]c2O)cc(C(=O)N2CCN(Cc3ccc([O-])cc3)CC2)n1C (3D coordinates assigned)
C=c1c(=Cc2[n-]c(=O)[n-]c2O)cc(C(=O)N2CCN(Cc3ccc([O-])cc3)CC2)n1C (nonaromatic ring conformer: 138.1257518853896 kcal/mol)

>  <smiles>  (2349) 
C=c1c(=Cc2[nH]c(=O)[nH]c2O)cc(C(=O)N2CCN(Cc3ccc(O)cc3)CC2)n1C

>  <score_type>  (2349) 
oracle

>  <origin>  (2349) 
adg

>  <m_score__min__energy>  (2349) 
-17.18

>  <m_primary>  (2349) 
energy

$$$$
77:0
     RDKit          3D

 35 39  0  0  0  0  0  0  0  0999 V2000
   60.0580   27.7970   46.1040 C   0  0  0  0  0  0  0  0  0  0  0  0
   59.0360   28.4440   45.5150 C   0  0  0  0  0  0  0  0  0  0  0  0
   57.9550   27.8430   44.8540 C   0  0  0  0  0  0  0  0  0  0  0  0
   57.7360   26.5180   44.6940 C   0  0  0  0  0  0  0  0  0  0  0  0
   57.1570   25.6000   45.7000 C   0  0  0  0  0  0  0  0  0  0  0  0
   57.7560   24.5150   46.2260 N   0  0  0  0  0  0  0  0  0  0  0  0
   56.8330   24.0220   47.0780 C   0  0  0  0  0  0  0  0  0  0  0  0
   57.0290   22.9880   47.7670 O   0  0  0  0  0  0  0  0  0  0  0  0
   55.6820   24.7250   47.1320 N   0  0  0  0  0  0  0  0  0  0  0  0
   55.9040   25.7190   46.2560 C   0  0  0  0  0  0  0  0  0  0  0  0
   54.9790   26.7160   45.9710 O   0  0  0  0  0  0  0  0  0  0  0  0
   57.1430   28.8860   44.4240 C   0  0  0  0  0  0  0  0  0  0  0  0
   57.7460   30.0560   44.8310 C   0  0  0  0  0  0  0  0  0  0  0  0
   57.1660   31.4230   44.6180 C   0  0  0  0  0  0  0  0  0  0  0  0
   58.8970   29.7970   45.4940 N   0  0  0  0  0  0  0  0  0  0  0  0
   59.7450   30.8150   46.1420 C   0  0  0  0  0  0  0  0  0  0  0  0
   59.7450   30.6360   47.6400 C   0  0  0  0  0  0  0  0  0  0  0  0
   60.7440   31.2330   48.4280 C   0  0  0  0  0  0  0  0  0  0  0  0
   60.7210   31.1000   49.8200 C   0  0  0  0  0  0  0  0  0  0  0  0
   59.6870   30.3870   50.4440 C   0  0  0  0  0  0  0  0  0  0  0  0
   59.5900   30.2910   51.9160 C   0  0  0  0  0  0  0  0  0  0  0  0
   60.3990   29.5270   52.5140 O   0  0  0  0  0  0  0  0  0  0  0  0
   58.5830   30.9980   52.6890 N   0  0  0  0  0  0  0  0  0  0  0  0
   57.6560   31.7690   51.8170 C   0  0  0  0  0  0  0  0  0  0  0  0
   56.1830   31.4940   52.1140 C   0  0  0  0  0  0  0  0  0  0  0  0
   55.9600   30.0420   52.1130 N   0  0  0  0  0  0  0  0  0  0  0  0
   54.5130   29.7030   52.0140 C   0  0  0  0  0  0  0  0  0  0  0  0
   53.8640   29.4830   53.3890 C   0  0  0  0  0  0  0  0  0  0  0  0
   52.8790   30.6240   53.5810 C   0  0  0  0  0  0  0  0  0  0  0  0
   52.4630   31.0350   52.1780 C   0  0  0  0  0  0  0  0  0  0  0  0
   53.6650   30.7650   51.2860 C   0  0  0  0  0  0  0  0  0  0  0  0
   56.7020   29.3530   53.2000 C   0  0  0  0  0  0  0  0  0  0  0  0
   57.9270   30.1450   53.7140 C   0  0  0  0  0  0  0  0  0  0  0  0
   58.7250   29.7410   49.6540 C   0  0  0  0  0  0  0  0  0  0  0  0
   58.7550   29.8610   48.2630 C   0  0  0  0  0  0  0  0  0  0  0  0
  1  2  2  0
  2  3  1  0
  3  4  2  0
  4  5  1  0
  5  6  1  0
  6  7  1  0
  7  8  2  0
  7  9  1  0
  9 10  1  0
 10 11  1  0
  3 12  1  0
 12 13  2  0
 13 14  1  0
 13 15  1  0
 15 16  1  0
 16 17  1  0
 17 18  2  0
 18 19  1  0
 19 20  2  0
 20 21  1  0
 21 22  2  0
 21 23  1  0
 23 24  1  0
 24 25  1  0
 25 26  1  0
 26 27  1  0
 27 28  1  0
 28 29  1  0
 29 30  1  0
 30 31  1  0
 26 32  1  0
 32 33  1  0
 20 34  1  0
 34 35  2  0
 15  2  1  0
 35 17  1  0
 10  5  2  0
 33 23  1  0
 31 27  1  0
M  CHG  4   6  -1   9  -1  11  -1  23   1
M  END
>  <UniqueID>  (2350) 
74

>  <SMILES>  (2350) 
C=c1/c(=C/c2[n-]c(=O)[n-]c2[O-])cc(C)n1Cc1ccc(C(=O)[NH+]2CCN(C3CCCC3)CC2)cc1

>  <Energy>  (2350) 
158.15621915936808

>  <Genealogy>  (2350) 
C=c1c(=Cc2[n-]c(=O)[n-]c2[O-])cc(C)n1Cc1ccc(C(=O)[NH+]2CCN(C3CCCC3)CC2)cc1 (protonated)
C=c1/c(=C/c2[n-]c(=O)[n-]c2[O-])cc(C)n1Cc1ccc(C(=O)[NH+]2CCN(C3CCCC3)CC2)cc1 (cis-trans isomerization)
C=c1/c(=C/c2[n-]c(=O)[n-]c2[O-])cc(C)n1Cc1ccc(C(=O)[NH+]2CCN(C3CCCC3)CC2)cc1 (3D coordinates assigned)
C=c1/c(=C/c2[n-]c(=O)[n-]c2[O-])cc(C)n1Cc1ccc(C(=O)[NH+]2CCN(C3CCCC3)CC2)cc1 (nonaromatic ring conformer: 158.15621915936808 kcal/mol)

>  <smiles>  (2350) 
C=c1c(=Cc2[nH]c(=O)[nH]c2O)cc(C)n1Cc1ccc(C(=O)N2CCN(C3CCCC3)CC2)cc1

>  <score_type>  (2350) 
oracle

>  <origin>  (2350) 
adg

>  <m_score__min__energy>  (2350) 
-16.68

>  <m_primary>  (2350) 
energy

$$$$
83:0
     RDKit          3D

 23 24  0  0  0  0  0  0  0  0999 V2000
   58.8200   33.3090   52.0680 C   0  0  0  0  0  0  0  0  0  0  0  0
   59.1930   33.5460   50.7840 N   0  0  0  0  0  0  0  0  0  0  0  0
   58.8940   32.6660   49.7880 C   0  0  0  0  0  0  0  0  0  0  0  0
   59.2710   32.8810   48.5610 N   0  0  0  0  0  0  0  0  0  0  0  0
   58.7930   32.2140   47.3810 C   0  0  0  0  0  0  0  0  0  0  0  0
   57.9240   32.8410   46.4680 C   0  0  0  0  0  0  0  0  0  0  0  0
   57.4550   32.1460   45.3500 C   0  0  0  0  0  0  0  0  0  0  0  0
   57.8200   30.8070   45.1430 C   0  0  0  0  0  0  0  0  0  0  0  0
   57.3430   30.0700   43.9210 C   0  0  0  0  0  0  0  0  0  0  0  0
   55.9640   29.5400   44.1510 C   0  0  0  0  0  0  0  0  0  0  0  0
   55.0330   29.8480   43.3580 O   0  0  0  0  0  0  0  0  0  0  0  0
   55.7210   28.6490   45.2420 N   0  0  0  0  0  0  0  0  0  0  0  0
   56.6400   27.5800   45.6060 C   0  0  0  0  0  0  0  0  0  0  0  0
   55.8650   26.4240   46.1430 C   0  0  0  0  0  0  0  0  0  0  0  0
   54.6260   26.3410   45.9360 O   0  0  0  0  0  0  0  0  0  0  0  0
   56.5000   25.4620   46.9180 O   0  0  0  0  0  0  0  0  0  0  0  0
   58.6700   30.1760   46.0640 C   0  0  0  0  0  0  0  0  0  0  0  0
   59.1390   30.8720   47.1820 C   0  0  0  0  0  0  0  0  0  0  0  0
   58.2320   31.5180   50.0860 N   0  0  0  0  0  0  0  0  0  0  0  0
   57.8390   31.2360   51.3540 C   0  0  0  0  0  0  0  0  0  0  0  0
   57.2290   30.1590   51.5890 O   0  0  0  0  0  0  0  0  0  0  0  0
   58.1170   32.1420   52.3910 C   0  0  0  0  0  0  0  0  0  0  0  0
   57.7170   31.8530   53.8100 C   0  0  0  0  0  0  0  0  0  0  0  0
  1  2  1  0
  2  3  1  0
  3  4  2  0
  4  5  1  0
  5  6  2  0
  6  7  1  0
  7  8  2  0
  8  9  1  0
  9 10  1  0
 10 11  2  0
 10 12  1  0
 12 13  1  0
 13 14  1  0
 14 15  2  0
 14 16  1  0
  8 17  1  0
 17 18  2  0
  3 19  1  0
 19 20  1  0
 20 21  2  0
 20 22  1  0
 22 23  1  0
 22  1  2  0
 18  5  1  0
M  CHG  4   2  -1  12  -1  16  -1  19  -1
M  END
>  <UniqueID>  (2351) 
80

>  <SMILES>  (2351) 
Cc1c[n-]/c(=N\c2ccc(CC(=O)[N-]CC(=O)[O-])cc2)[n-]c1=O

>  <Energy>  (2351) 
37.15544157787687

>  <Genealogy>  (2351) 
Cc1c[n-]c(=Nc2ccc(CC(=O)[N-]CC(=O)[O-])cc2)[n-]c1=O (protonated)
Cc1c[n-]/c(=N\c2ccc(CC(=O)[N-]CC(=O)[O-])cc2)[n-]c1=O (cis-trans isomerization)
Cc1c[n-]/c(=N\c2ccc(CC(=O)[N-]CC(=O)[O-])cc2)[n-]c1=O (3D coordinates assigned)
Cc1c[n-]/c(=N\c2ccc(CC(=O)[N-]CC(=O)[O-])cc2)[n-]c1=O (optimized conformer: 37.15544157787687 kcal/mol)

>  <smiles>  (2351) 
Cc1c[nH]c(=Nc2ccc(CC(=O)NCC(=O)O)cc2)[nH]c1=O

>  <score_type>  (2351) 
oracle

>  <origin>  (2351) 
adg

>  <m_score__min__energy>  (2351) 
-14.16

>  <m_primary>  (2351) 
energy

$$$$
84:0
     RDKit          3D

 29 33  0  0  0  0  0  0  0  0999 V2000
   52.6540   30.3900   51.6010 C   0  0  0  0  0  0  0  0  0  0  0  0
   51.7010   31.3600   52.1680 C   0  0  0  0  0  0  0  0  0  0  0  0
   51.4810   31.4930   53.4870 N   0  0  0  0  0  0  0  0  0  0  0  0
   50.6200   32.5300   53.5600 C   0  0  0  0  0  0  0  0  0  0  0  0
   50.1600   32.9540   54.6520 O   0  0  0  0  0  0  0  0  0  0  0  0
   50.2970   33.0830   52.3720 N   0  0  0  0  0  0  0  0  0  0  0  0
   51.0000   32.3410   51.5000 C   0  0  0  0  0  0  0  0  0  0  0  0
   51.0380   32.5940   50.1350 O   0  0  0  0  0  0  0  0  0  0  0  0
   53.6740   29.8580   52.2850 C   0  0  0  0  0  0  0  0  0  0  0  0
   53.7570   28.6370   52.9840 C   0  0  0  0  0  0  0  0  0  0  0  0
   55.0280   28.4350   53.4330 N   0  0  0  0  0  0  0  0  0  0  0  0
   55.6790   29.5390   53.1160 N   0  0  0  0  0  0  0  0  0  0  0  0
   56.9670   29.8020   52.8540 C   0  0  0  0  0  0  0  0  0  0  0  0
   58.0940   28.9010   53.1730 C   0  0  0  0  0  0  0  0  0  0  0  0
   57.9470   27.9290   54.1770 C   0  0  0  0  0  0  0  0  0  0  0  0
   59.0050   27.0680   54.4850 C   0  0  0  0  0  0  0  0  0  0  0  0
   60.2110   27.1620   53.7870 C   0  0  0  0  0  0  0  0  0  0  0  0
   60.3610   28.1140   52.7770 C   0  0  0  0  0  0  0  0  0  0  0  0
   59.3070   28.9780   52.4650 C   0  0  0  0  0  0  0  0  0  0  0  0
   56.9380   30.9150   51.9940 C   0  0  0  0  0  0  0  0  0  0  0  0
   58.0770   31.5490   51.3960 N   0  0  0  0  0  0  0  0  0  0  0  0
   58.8720   32.4980   52.1810 C   0  0  0  0  0  0  0  0  0  0  0  0
   59.4310   33.6360   51.2970 C   0  0  0  0  0  0  0  0  0  0  0  0
   59.3580   33.3320   49.8510 N   0  0  0  0  0  0  0  0  0  0  0  0
   60.2330   34.2380   49.0930 C   0  0  0  0  0  0  0  0  0  0  0  0
   59.7130   31.9290   49.5860 C   0  0  0  0  0  0  0  0  0  0  0  0
   58.6050   31.0260   50.1290 C   0  0  0  0  0  0  0  0  0  0  0  0
   55.6490   31.2560   51.7070 N   0  0  0  0  0  0  0  0  0  0  0  0
   54.9390   30.3730   52.4310 C   0  0  0  0  0  0  0  0  0  0  0  0
  1  2  1  0
  2  3  1  0
  3  4  1  0
  4  5  2  0
  4  6  1  0
  6  7  1  0
  7  8  1  0
  1  9  2  0
  9 10  1  0
 10 11  2  0
 11 12  1  0
 12 13  1  0
 13 14  1  0
 14 15  2  0
 15 16  1  0
 16 17  2  0
 17 18  1  0
 18 19  2  0
 13 20  2  0
 20 21  1  0
 21 22  1  0
 22 23  1  0
 23 24  1  0
 24 25  1  0
 24 26  1  0
 26 27  1  0
 20 28  1  0
 28 29  2  0
  7  2  2  0
 29  9  1  0
 29 12  1  0
 19 14  1  0
 27 21  1  0
M  CHG  4   3  -1   6  -1   8  -1  28   1
M  END
>  <UniqueID>  (2352) 
81

>  <SMILES>  (2352) 
CN1CCN(c2[nH+]c3/c(=C/c4[n-]c(=O)[n-]c4[O-])cnn3c2-c2ccccc2)CC1

>  <Energy>  (2352) 
190.81818895515622

>  <Genealogy>  (2352) 
CN1CCN(c2[nH+]c3c(=Cc4[n-]c(=O)[n-]c4[O-])cnn3c2-c2ccccc2)CC1 (protonated)
CN1CCN(c2[nH+]c3/c(=C/c4[n-]c(=O)[n-]c4[O-])cnn3c2-c2ccccc2)CC1 (cis-trans isomerization)
CN1CCN(c2[nH+]c3/c(=C/c4[n-]c(=O)[n-]c4[O-])cnn3c2-c2ccccc2)CC1 (3D coordinates assigned)
CN1CCN(c2[nH+]c3/c(=C/c4[n-]c(=O)[n-]c4[O-])cnn3c2-c2ccccc2)CC1 (nonaromatic ring conformer: 190.81818895515622 kcal/mol)

>  <smiles>  (2352) 
CN1CCN(c2nc3c(=Cc4[nH]c(=O)[nH]c4O)cnn3c2-c2ccccc2)CC1

>  <score_type>  (2352) 
oracle

>  <origin>  (2352) 
adg

>  <m_score__min__energy>  (2352) 
-15.640000000000001

>  <m_primary>  (2352) 
energy

$$$$
85:0
     RDKit          3D

 28 31  0  0  0  0  0  0  0  0999 V2000
   60.1380   26.9840   48.4150 C   0  0  0  0  0  0  0  0  0  0  0  0
   59.7800   28.2490   48.1330 C   0  0  0  0  0  0  0  0  0  0  0  0
   58.8610   28.6410   47.1470 C   0  0  0  0  0  0  0  0  0  0  0  0
   58.3280   27.9610   46.1120 C   0  0  0  0  0  0  0  0  0  0  0  0
   57.1420   27.0910   46.1770 C   0  0  0  0  0  0  0  0  0  0  0  0
   57.1500   25.8120   46.6000 N   0  0  0  0  0  0  0  0  0  0  0  0
   55.8890   25.3950   46.3530 C   0  0  0  0  0  0  0  0  0  0  0  0
   55.4930   24.2340   46.6310 O   0  0  0  0  0  0  0  0  0  0  0  0
   55.0900   26.3170   45.7760 N   0  0  0  0  0  0  0  0  0  0  0  0
   55.9040   27.3780   45.6590 C   0  0  0  0  0  0  0  0  0  0  0  0
   55.5240   28.5850   45.0850 O   0  0  0  0  0  0  0  0  0  0  0  0
   58.5590   29.9600   47.4070 C   0  0  0  0  0  0  0  0  0  0  0  0
   59.3350   30.3510   48.4760 C   0  0  0  0  0  0  0  0  0  0  0  0
   59.2410   31.7010   49.0700 C   0  0  0  0  0  0  0  0  0  0  0  0
   58.4310   31.9030   50.0160 O   0  0  0  0  0  0  0  0  0  0  0  0
   59.9950   32.8050   48.5130 N   0  0  0  0  0  0  0  0  0  0  0  0
   60.7300   32.3810   47.2910 C   0  0  0  0  0  0  0  0  0  0  0  0
   59.9870   32.7690   46.0020 C   0  0  0  0  0  0  0  0  0  0  0  0
   59.7660   34.2320   45.8960 N   0  0  0  0  0  0  0  0  0  0  0  0
   58.6980   34.4780   44.8870 C   0  0  0  0  0  0  0  0  0  0  0  0
   58.0150   33.3050   44.1890 C   0  0  0  0  0  0  0  0  0  0  0  0
   57.2980   34.0550   45.3110 C   0  0  0  0  0  0  0  0  0  0  0  0
   59.6840   34.9060   47.2220 C   0  0  0  0  0  0  0  0  0  0  0  0
   59.1080   33.9750   48.2950 C   0  0  0  0  0  0  0  0  0  0  0  0
   60.1200   29.3240   48.9030 N   0  0  0  0  0  0  0  0  0  0  0  0
   61.1510   29.3370   49.9710 C   0  0  0  0  0  0  0  0  0  0  0  0
   62.1110   30.5310   49.8650 C   0  0  0  0  0  0  0  0  0  0  0  0
   60.5080   29.2330   51.3570 C   0  0  0  0  0  0  0  0  0  0  0  0
  1  2  2  0
  2  3  1  0
  3  4  2  3
  4  5  1  0
  5  6  1  0
  6  7  1  0
  7  8  2  0
  7  9  1  0
  9 10  1  0
 10 11  1  0
  3 12  1  0
 12 13  2  0
 13 14  1  0
 14 15  2  0
 14 16  1  0
 16 17  1  0
 17 18  1  0
 18 19  1  0
 19 20  1  0
 20 21  1  0
 21 22  1  0
 19 23  1  0
 23 24  1  0
 13 25  1  0
 25 26  1  0
 26 27  1  0
 26 28  1  0
 25  2  1  0
 10  5  2  0
 24 16  1  0
 22 20  1  0
M  CHG  4   6  -1   9  -1  11  -1  16   1
M  END
>  <UniqueID>  (2353) 
82

>  <SMILES>  (2353) 
C=c1c(=Cc2[n-]c(=O)[n-]c2[O-])cc(C(=O)[NH+]2CCN(C3CC3)CC2)n1C(C)C

>  <Energy>  (2353) 
419.1780991517197

>  <Genealogy>  (2353) 
C=c1c(=Cc2[n-]c(=O)[n-]c2[O-])cc(C(=O)[NH+]2CCN(C3CC3)CC2)n1C(C)C (protonated)
C=c1c(=Cc2[n-]c(=O)[n-]c2[O-])cc(C(=O)[NH+]2CCN(C3CC3)CC2)n1C(C)C (3D coordinates assigned)
C=c1c(=Cc2[n-]c(=O)[n-]c2[O-])cc(C(=O)[NH+]2CCN(C3CC3)CC2)n1C(C)C (nonaromatic ring conformer: 419.1780991517197 kcal/mol)

>  <smiles>  (2353) 
C=c1c(=Cc2[nH]c(=O)[nH]c2O)cc(C(=O)N2CCN(C3CC3)CC2)n1C(C)C

>  <score_type>  (2353) 
oracle

>  <origin>  (2353) 
adg

>  <m_score__min__energy>  (2353) 
-15.699999999999999

>  <m_primary>  (2353) 
energy

$$$$
7:0
     RDKit          3D

 30 33  0  0  0  0  0  0  0  0999 V2000
   53.4460   28.7480   53.9630 C   0  0  0  0  0  0  0  0  0  0  0  0
   54.4640   29.3230   53.3030 C   0  0  0  0  0  0  0  0  0  0  0  0
   54.4530   30.5660   52.6480 C   0  0  0  0  0  0  0  0  0  0  0  0
   53.4380   31.3910   52.3270 C   0  0  0  0  0  0  0  0  0  0  0  0
   52.4660   31.1710   51.2440 C   0  0  0  0  0  0  0  0  0  0  0  0
   52.5690   30.2130   50.3040 N   0  0  0  0  0  0  0  0  0  0  0  0
   51.5380   30.4790   49.4730 C   0  0  0  0  0  0  0  0  0  0  0  0
   51.2870   29.7780   48.4590 O   0  0  0  0  0  0  0  0  0  0  0  0
   50.8050   31.5630   49.8090 N   0  0  0  0  0  0  0  0  0  0  0  0
   51.4170   31.9960   50.9220 C   0  0  0  0  0  0  0  0  0  0  0  0
   51.0270   33.1280   51.6270 O   0  0  0  0  0  0  0  0  0  0  0  0
   55.7720   30.8430   52.3270 C   0  0  0  0  0  0  0  0  0  0  0  0
   56.5220   29.7640   52.7420 C   0  0  0  0  0  0  0  0  0  0  0  0
   57.9850   29.6680   52.5730 C   0  0  0  0  0  0  0  0  0  0  0  0
   58.5170   28.5250   52.5650 O   0  0  0  0  0  0  0  0  0  0  0  0
   58.8040   30.8380   52.3840 N   0  0  0  0  0  0  0  0  0  0  0  0
   60.2130   30.7950   52.8080 C   0  0  0  0  0  0  0  0  0  0  0  0
   60.9070   32.1370   52.5680 C   0  0  0  0  0  0  0  0  0  0  0  0
   60.6210   32.5970   51.2030 N   0  0  0  0  0  0  0  0  0  0  0  0
   61.6920   32.9350   50.2990 C   0  0  0  0  0  0  0  0  0  0  0  0
   63.0190   33.0100   50.7600 C   0  0  0  0  0  0  0  0  0  0  0  0
   64.0570   33.3240   49.8790 C   0  0  0  0  0  0  0  0  0  0  0  0
   63.7830   33.5620   48.5300 C   0  0  0  0  0  0  0  0  0  0  0  0
   62.4710   33.4780   48.0560 C   0  0  0  0  0  0  0  0  0  0  0  0
   62.1310   33.7680   46.3600 Cl  0  0  0  0  0  0  0  0  0  0  0  0
   61.4290   33.1670   48.9360 C   0  0  0  0  0  0  0  0  0  0  0  0
   59.2330   32.6060   50.7140 C   0  0  0  0  0  0  0  0  0  0  0  0
   58.2580   32.0550   51.7640 C   0  0  0  0  0  0  0  0  0  0  0  0
   55.7270   28.8250   53.3080 N   0  0  0  0  0  0  0  0  0  0  0  0
   56.1460   27.5190   53.8270 C   0  0  0  0  0  0  0  0  0  0  0  0
  1  2  2  0
  2  3  1  0
  3  4  2  3
  4  5  1  0
  5  6  1  0
  6  7  1  0
  7  8  2  0
  7  9  1  0
  9 10  1  0
 10 11  1  0
  3 12  1  0
 12 13  2  0
 13 14  1  0
 14 15  2  0
 14 16  1  0
 16 17  1  0
 17 18  1  0
 18 19  1  0
 19 20  1  0
 20 21  2  0
 21 22  1  0
 22 23  2  0
 23 24  1  0
 24 25  1  0
 24 26  2  0
 19 27  1  0
 27 28  1  0
 13 29  1  0
 29 30  1  0
 29  2  1  0
 10  5  2  0
 28 16  1  0
 26 20  1  0
M  CHG  3   6  -1   9  -1  11  -1
M  END
>  <UniqueID>  (2354) 
8

>  <SMILES>  (2354) 
C=c1c(=Cc2[n-]c(=O)[n-]c2[O-])cc(C(=O)N2CCN(c3cccc(Cl)c3)CC2)n1C

>  <Energy>  (2354) 
131.33956701187734

>  <Genealogy>  (2354) 
C=c1c(=Cc2[n-]c(=O)[n-]c2[O-])cc(C(=O)N2CCN(c3cccc(Cl)c3)CC2)n1C (protonated)
C=c1c(=Cc2[n-]c(=O)[n-]c2[O-])cc(C(=O)N2CCN(c3cccc(Cl)c3)CC2)n1C (3D coordinates assigned)
C=c1c(=Cc2[n-]c(=O)[n-]c2[O-])cc(C(=O)N2CCN(c3cccc(Cl)c3)CC2)n1C (nonaromatic ring conformer: 131.33956701187734 kcal/mol)

>  <smiles>  (2354) 
C=c1c(=Cc2[nH]c(=O)[nH]c2O)cc(C(=O)N2CCN(c3cccc(Cl)c3)CC2)n1C

>  <score_type>  (2354) 
oracle

>  <origin>  (2354) 
adg

>  <m_score__min__energy>  (2354) 
-17.489999999999998

>  <m_primary>  (2354) 
energy

$$$$
17:0
     RDKit          3D

 29 32  0  0  0  0  0  0  0  0999 V2000
   55.5450   27.0710   45.8510 O   0  0  0  0  0  0  0  0  0  0  0  0
   56.3290   26.0500   46.3870 C   0  0  0  0  0  0  0  0  0  0  0  0
   55.8130   24.9690   46.9930 N   0  0  0  0  0  0  0  0  0  0  0  0
   56.9100   24.2350   47.2830 C   0  0  0  0  0  0  0  0  0  0  0  0
   56.8460   23.1180   47.8650 O   0  0  0  0  0  0  0  0  0  0  0  0
   58.0810   24.7870   46.8950 N   0  0  0  0  0  0  0  0  0  0  0  0
   57.7070   25.9560   46.3440 C   0  0  0  0  0  0  0  0  0  0  0  0
   58.6610   26.8980   45.7300 C   0  0  0  0  0  0  0  0  0  0  0  0
   58.3260   28.1380   45.3240 C   0  0  0  0  0  0  0  0  0  0  0  0
   58.3480   29.2890   46.0980 C   0  0  0  0  0  0  0  0  0  0  0  0
   57.9780   30.3310   45.2720 C   0  0  0  0  0  0  0  0  0  0  0  0
   57.8990   31.7370   45.7120 C   0  0  0  0  0  0  0  0  0  0  0  0
   56.9250   32.4380   45.3260 O   0  0  0  0  0  0  0  0  0  0  0  0
   58.8910   32.3130   46.5830 N   0  0  0  0  0  0  0  0  0  0  0  0
   59.1540   33.7580   46.4950 C   0  0  0  0  0  0  0  0  0  0  0  0
   60.2770   34.1940   47.4470 C   0  0  0  0  0  0  0  0  0  0  0  0
   61.4240   33.1680   47.4090 C   0  0  0  0  0  0  0  0  0  0  0  0
   62.6160   33.6650   48.1450 N   0  0  0  0  0  0  0  0  0  0  0  0
   63.6240   32.6020   48.3570 C   0  0  0  0  0  0  0  0  0  0  0  0
   64.8220   33.1360   49.1480 C   0  0  0  0  0  0  0  0  0  0  0  0
   64.4070   33.6640   50.5340 C   0  0  0  0  0  0  0  0  0  0  0  0
   62.8960   33.9310   50.6470 C   0  0  0  0  0  0  0  0  0  0  0  0
   62.3300   34.5110   49.3410 C   0  0  0  0  0  0  0  0  0  0  0  0
   60.9580   31.7580   47.8650 C   0  0  0  0  0  0  0  0  0  0  0  0
   59.4430   31.5330   47.7030 C   0  0  0  0  0  0  0  0  0  0  0  0
   57.7130   29.8750   44.0240 N   0  0  0  0  0  0  0  0  0  0  0  0
   57.1860   30.6500   42.8950 C   0  0  0  0  0  0  0  0  0  0  0  0
   57.9330   28.5350   44.0430 C   0  0  0  0  0  0  0  0  0  0  0  0
   57.7760   27.7350   42.9760 C   0  0  0  0  0  0  0  0  0  0  0  0
  1  2  1  0
  2  3  1  0
  3  4  1  0
  4  5  2  0
  4  6  1  0
  6  7  1  0
  7  8  1  0
  8  9  2  0
  9 10  1  0
 10 11  2  0
 11 12  1  0
 12 13  2  0
 12 14  1  0
 14 15  1  0
 15 16  1  0
 16 17  1  0
 17 18  1  0
 18 19  1  0
 19 20  1  0
 20 21  1  0
 21 22  1  0
 22 23  1  0
 17 24  1  0
 24 25  1  0
 11 26  1  0
 26 27  1  0
 26 28  1  0
 28 29  2  0
  7  2  2  0
 28  9  1  0
 25 14  1  0
 23 18  1  0
M  CHG  2   3  -1   6  -1
M  END
>  <UniqueID>  (2355) 
16

>  <SMILES>  (2355) 
C=c1/c(=C/c2[n-]c(=O)[n-]c2O)cc(C(=O)N2CCC(N3CCCCC3)CC2)n1C

>  <Energy>  (2355) 
141.17214959158125

>  <Genealogy>  (2355) 
C=c1c(=Cc2[n-]c(=O)[n-]c2O)cc(C(=O)N2CCC(N3CCCCC3)CC2)n1C (protonated)
C=c1/c(=C/c2[n-]c(=O)[n-]c2O)cc(C(=O)N2CCC(N3CCCCC3)CC2)n1C (cis-trans isomerization)
C=c1/c(=C/c2[n-]c(=O)[n-]c2O)cc(C(=O)N2CCC(N3CCCCC3)CC2)n1C (3D coordinates assigned)
C=c1/c(=C/c2[n-]c(=O)[n-]c2O)cc(C(=O)N2CCC(N3CCCCC3)CC2)n1C (nonaromatic ring conformer: 141.17214959158125 kcal/mol)

>  <smiles>  (2355) 
C=c1c(=Cc2[nH]c(=O)[nH]c2O)cc(C(=O)N2CCC(N3CCCCC3)CC2)n1C

>  <score_type>  (2355) 
oracle

>  <origin>  (2355) 
adg

>  <m_score__min__energy>  (2355) 
-14.359999999999999

>  <m_primary>  (2355) 
energy

$$$$
34:0
     RDKit          3D

 31 34  0  0  0  0  0  0  0  0999 V2000
   54.1880   22.9750   48.8650 C   0  0  0  0  0  0  0  0  0  0  0  0
   54.0020   22.8950   47.5230 C   0  0  0  0  0  0  0  0  0  0  0  0
   54.8680   23.5980   46.6160 C   0  0  0  0  0  0  0  0  0  0  0  0
   56.0750   24.0910   47.0190 C   0  0  0  0  0  0  0  0  0  0  0  0
   56.7420   25.3020   46.4990 C   0  0  0  0  0  0  0  0  0  0  0  0
   56.1370   26.4320   45.9960 C   0  0  0  0  0  0  0  0  0  0  0  0
   54.7730   26.7000   46.0060 O   0  0  0  0  0  0  0  0  0  0  0  0
   57.0730   27.2450   45.4660 N   0  0  0  0  0  0  0  0  0  0  0  0
   56.8370   28.5130   44.7820 C   0  0  0  0  0  0  0  0  0  0  0  0
   57.4790   29.6610   45.5670 C   0  0  0  0  0  0  0  0  0  0  0  0
   57.0370   30.9790   45.0600 N   0  0  0  0  0  0  0  0  0  0  0  0
   55.9200   30.8260   44.1120 C   0  0  0  0  0  0  0  0  0  0  0  0
   58.1280   31.8170   44.5010 C   0  0  0  0  0  0  0  0  0  0  0  0
   58.6080   32.9140   45.4300 C   0  0  0  0  0  0  0  0  0  0  0  0
   58.4710   32.7760   46.8240 C   0  0  0  0  0  0  0  0  0  0  0  0
   58.9140   33.7900   47.6800 C   0  0  0  0  0  0  0  0  0  0  0  0
   59.4860   34.9510   47.1530 C   0  0  0  0  0  0  0  0  0  0  0  0
   59.6120   35.1030   45.7700 C   0  0  0  0  0  0  0  0  0  0  0  0
   59.1720   34.0920   44.9110 C   0  0  0  0  0  0  0  0  0  0  0  0
   58.2610   26.6650   45.5520 N   0  0  0  0  0  0  0  0  0  0  0  0
   58.0750   25.4820   46.1690 C   0  0  0  0  0  0  0  0  0  0  0  0
   58.9980   24.6480   46.3660 O   0  0  0  0  0  0  0  0  0  0  0  0
   54.4430   23.6880   45.2650 C   0  0  0  0  0  0  0  0  0  0  0  0
   55.1480   24.2380   44.3790 O   0  0  0  0  0  0  0  0  0  0  0  0
   53.2740   23.1320   44.8830 N   0  0  0  0  0  0  0  0  0  0  0  0
   52.5070   22.4160   45.7300 C   0  0  0  0  0  0  0  0  0  0  0  0
   51.4200   21.9380   45.3030 O   0  0  0  0  0  0  0  0  0  0  0  0
   52.9040   22.2110   47.0250 N   0  0  0  0  0  0  0  0  0  0  0  0
   52.0670   21.3410   47.8830 C   0  0  0  0  0  0  0  0  0  0  0  0
   51.8250   19.9360   47.3300 C   0  0  0  0  0  0  0  0  0  0  0  0
   52.8030   20.1370   48.4690 C   0  0  0  0  0  0  0  0  0  0  0  0
  1  2  2  0
  2  3  1  0
  3  4  2  0
  4  5  1  0
  5  6  2  0
  6  7  1  0
  6  8  1  0
  8  9  1  0
  9 10  1  0
 10 11  1  0
 11 12  1  0
 11 13  1  0
 13 14  1  0
 14 15  2  0
 15 16  1  0
 16 17  2  0
 17 18  1  0
 18 19  2  0
  8 20  1  0
 20 21  1  0
 21 22  2  0
  3 23  1  0
 23 24  2  0
 23 25  1  0
 25 26  1  0
 26 27  2  0
 26 28  1  0
 28 29  1  0
 29 30  1  0
 30 31  1  0
 28  2  1  0
 31 29  1  0
 21  5  1  0
 19 14  1  0
M  CHG  3   7  -1  20  -1  25  -1
M  END
>  <UniqueID>  (2356) 
33

>  <SMILES>  (2356) 
C=c1/c(=C/c2c([O-])n(CCN(C)Cc3ccccc3)[n-]c2=O)c(=O)[n-]c(=O)n1C1CC1

>  <Energy>  (2356) 
386.91377821179276

>  <Genealogy>  (2356) 
C=c1c(=Cc2c([O-])n(CCN(C)Cc3ccccc3)[n-]c2=O)c(=O)[n-]c(=O)n1C1CC1 (protonated)
C=c1/c(=C/c2c([O-])n(CCN(C)Cc3ccccc3)[n-]c2=O)c(=O)[n-]c(=O)n1C1CC1 (cis-trans isomerization)
C=c1/c(=C/c2c([O-])n(CCN(C)Cc3ccccc3)[n-]c2=O)c(=O)[n-]c(=O)n1C1CC1 (3D coordinates assigned)
C=c1/c(=C/c2c([O-])n(CCN(C)Cc3ccccc3)[n-]c2=O)c(=O)[n-]c(=O)n1C1CC1 (nonaromatic ring conformer: 386.91377821179276 kcal/mol)

>  <smiles>  (2356) 
C=c1c(=Cc2c(O)n(CCN(C)Cc3ccccc3)[nH]c2=O)c(=O)[nH]c(=O)n1C1CC1

>  <score_type>  (2356) 
oracle

>  <origin>  (2356) 
adg

>  <m_score__min__energy>  (2356) 
-14.92

>  <m_primary>  (2356) 
energy

$$$$
41:0
     RDKit          3D

 31 34  0  0  0  0  0  0  0  0999 V2000
   57.7390   29.8330   44.3010 C   0  0  0  0  0  0  0  0  0  0  0  0
   58.1180   29.3460   45.4940 C   0  0  0  0  0  0  0  0  0  0  0  0
   57.9790   28.0260   45.9330 C   0  0  0  0  0  0  0  0  0  0  0  0
   57.3820   27.0080   45.2840 C   0  0  0  0  0  0  0  0  0  0  0  0
   56.8390   25.8110   45.9500 C   0  0  0  0  0  0  0  0  0  0  0  0
   57.6130   24.8480   46.4830 N   0  0  0  0  0  0  0  0  0  0  0  0
   56.7220   24.0100   47.0540 C   0  0  0  0  0  0  0  0  0  0  0  0
   57.0690   22.9600   47.6550 O   0  0  0  0  0  0  0  0  0  0  0  0
   55.4320   24.3900   46.9420 N   0  0  0  0  0  0  0  0  0  0  0  0
   55.5230   25.5380   46.2520 C   0  0  0  0  0  0  0  0  0  0  0  0
   54.4280   26.3410   45.9510 O   0  0  0  0  0  0  0  0  0  0  0  0
   58.5380   27.9780   47.2050 C   0  0  0  0  0  0  0  0  0  0  0  0
   58.9910   29.2530   47.4860 C   0  0  0  0  0  0  0  0  0  0  0  0
   59.6510   29.6600   48.7670 C   0  0  0  0  0  0  0  0  0  0  0  0
   58.7430   30.0810   46.4470 N   0  0  0  0  0  0  0  0  0  0  0  0
   59.0620   31.4830   46.4000 C   0  0  0  0  0  0  0  0  0  0  0  0
   58.0750   32.4190   46.0700 C   0  0  0  0  0  0  0  0  0  0  0  0
   58.3870   33.7780   46.0110 C   0  0  0  0  0  0  0  0  0  0  0  0
   59.6940   34.2240   46.2640 C   0  0  0  0  0  0  0  0  0  0  0  0
   60.0010   35.6960   46.1850 C   0  0  0  0  0  0  0  0  0  0  0  0
   60.6950   33.2800   46.5990 C   0  0  0  0  0  0  0  0  0  0  0  0
   62.0790   33.6950   46.9010 C   0  0  0  0  0  0  0  0  0  0  0  0
   62.7450   34.2920   46.0120 O   0  0  0  0  0  0  0  0  0  0  0  0
   62.6750   33.4310   48.1830 N   0  0  0  0  0  0  0  0  0  0  0  0
   64.0590   33.0130   48.3360 C   0  0  0  0  0  0  0  0  0  0  0  0
   64.1820   32.5140   49.7710 C   0  0  0  0  0  0  0  0  0  0  0  0
   62.9820   33.1180   50.5270 C   0  0  0  0  0  0  0  0  0  0  0  0
   62.4510   32.1520   51.6030 C   0  0  0  0  0  0  0  0  0  0  0  0
   63.3930   34.4500   51.1890 C   0  0  0  0  0  0  0  0  0  0  0  0
   61.9300   33.3710   49.4320 C   0  0  0  0  0  0  0  0  0  0  0  0
   60.3660   31.9170   46.6670 C   0  0  0  0  0  0  0  0  0  0  0  0
  1  2  2  0
  2  3  1  0
  3  4  2  0
  4  5  1  0
  5  6  1  0
  6  7  1  0
  7  8  2  0
  7  9  1  0
  9 10  1  0
 10 11  1  0
  3 12  1  0
 12 13  2  0
 13 14  1  0
 13 15  1  0
 15 16  1  0
 16 17  2  0
 17 18  1  0
 18 19  2  0
 19 20  1  0
 19 21  1  0
 21 22  1  0
 22 23  2  0
 22 24  1  0
 24 25  1  0
 25 26  1  0
 26 27  1  0
 27 28  1  0
 27 29  1  0
 27 30  1  0
 21 31  2  0
 15  2  1  0
 31 16  1  0
 10  5  2  0
 30 24  1  0
M  CHG  3   6  -1   9  -1  11  -1
M  END
>  <UniqueID>  (2357) 
39

>  <SMILES>  (2357) 
C=c1/c(=C/c2[n-]c(=O)[n-]c2[O-])cc(C)n1-c1ccc(C)c(C(=O)N2CCC(C)(C)C2)c1

>  <Energy>  (2357) 
133.77133856627955

>  <Genealogy>  (2357) 
C=c1c(=Cc2[n-]c(=O)[n-]c2[O-])cc(C)n1-c1ccc(C)c(C(=O)N2CCC(C)(C)C2)c1 (protonated)
C=c1/c(=C/c2[n-]c(=O)[n-]c2[O-])cc(C)n1-c1ccc(C)c(C(=O)N2CCC(C)(C)C2)c1 (cis-trans isomerization)
C=c1/c(=C/c2[n-]c(=O)[n-]c2[O-])cc(C)n1-c1ccc(C)c(C(=O)N2CCC(C)(C)C2)c1 (3D coordinates assigned)
C=c1/c(=C/c2[n-]c(=O)[n-]c2[O-])cc(C)n1-c1ccc(C)c(C(=O)N2CCC(C)(C)C2)c1 (nonaromatic ring conformer: 133.77133856627955 kcal/mol)

>  <smiles>  (2357) 
C=c1c(=Cc2[nH]c(=O)[nH]c2O)cc(C)n1-c1ccc(C)c(C(=O)N2CCC(C)(C)C2)c1

>  <score_type>  (2357) 
oracle

>  <origin>  (2357) 
adg

>  <m_score__min__energy>  (2357) 
-17.09

>  <m_primary>  (2357) 
energy

$$$$
44:0
     RDKit          3D

 31 34  0  0  0  0  0  0  0  0999 V2000
   59.1810   30.7610   45.5960 C   0  0  0  0  0  0  0  0  0  0  0  0
   59.0010   30.1590   46.7830 C   0  0  0  0  0  0  0  0  0  0  0  0
   58.6630   28.8150   46.9800 C   0  0  0  0  0  0  0  0  0  0  0  0
   58.4140   27.8870   46.0350 C   0  0  0  0  0  0  0  0  0  0  0  0
   57.2170   27.0250   46.0180 C   0  0  0  0  0  0  0  0  0  0  0  0
   57.1990   25.7780   46.5180 N   0  0  0  0  0  0  0  0  0  0  0  0
   55.9100   25.4010   46.3780 C   0  0  0  0  0  0  0  0  0  0  0  0
   55.4940   24.2650   46.7280 O   0  0  0  0  0  0  0  0  0  0  0  0
   55.1000   26.3400   45.8430 N   0  0  0  0  0  0  0  0  0  0  0  0
   55.9390   27.3670   45.6320 C   0  0  0  0  0  0  0  0  0  0  0  0
   55.5320   28.6030   45.1450 O   0  0  0  0  0  0  0  0  0  0  0  0
   58.5780   28.6310   48.3520 C   0  0  0  0  0  0  0  0  0  0  0  0
   58.8610   29.8480   48.9320 C   0  0  0  0  0  0  0  0  0  0  0  0
   58.8930   30.0680   50.3900 C   0  0  0  0  0  0  0  0  0  0  0  0
   57.8100   30.3280   50.9840 O   0  0  0  0  0  0  0  0  0  0  0  0
   60.1440   30.0970   51.1160 N   0  0  0  0  0  0  0  0  0  0  0  0
   61.2370   29.6340   50.2240 C   0  0  0  0  0  0  0  0  0  0  0  0
   62.6130   30.1100   50.7030 C   0  0  0  0  0  0  0  0  0  0  0  0
   62.6390   31.5760   50.7740 N   0  0  0  0  0  0  0  0  0  0  0  0
   63.8900   32.2800   50.6280 C   0  0  0  0  0  0  0  0  0  0  0  0
   64.9790   31.6530   50.7370 O   0  0  0  0  0  0  0  0  0  0  0  0
   63.9340   33.7560   50.3700 C   0  0  0  0  0  0  0  0  0  0  0  0
   61.3740   32.3000   50.9560 C   0  0  0  0  0  0  0  0  0  0  0  0
   60.3740   31.4320   51.7350 C   0  0  0  0  0  0  0  0  0  0  0  0
   59.1330   30.7800   47.9860 N   0  0  0  0  0  0  0  0  0  0  0  0
   59.5760   32.1620   48.2380 C   0  0  0  0  0  0  0  0  0  0  0  0
   60.9570   32.4160   47.6980 C   0  0  0  0  0  0  0  0  0  0  0  0
   61.3620   33.6760   47.2670 C   0  0  0  0  0  0  0  0  0  0  0  0
   62.9660   33.5720   46.7770 S   0  0  0  0  0  0  0  0  0  0  0  0
   63.1740   31.9430   47.1250 C   0  0  0  0  0  0  0  0  0  0  0  0
   61.9790   31.4520   47.6330 C   0  0  0  0  0  0  0  0  0  0  0  0
  1  2  2  0
  2  3  1  0
  3  4  2  0
  4  5  1  0
  5  6  1  0
  6  7  1  0
  7  8  2  0
  7  9  1  0
  9 10  1  0
 10 11  1  0
  3 12  1  0
 12 13  2  0
 13 14  1  0
 14 15  2  0
 14 16  1  0
 16 17  1  0
 17 18  1  0
 18 19  1  0
 19 20  1  0
 20 21  2  0
 20 22  1  0
 19 23  1  0
 23 24  1  0
 13 25  1  0
 25 26  1  0
 26 27  1  0
 27 28  2  0
 28 29  1  0
 29 30  1  0
 30 31  2  0
 25  2  1  0
 31 27  1  0
 10  5  2  0
 24 16  1  0
M  CHG  4   6  -1   9  -1  11  -1  16   1
M  END
>  <UniqueID>  (2358) 
42

>  <SMILES>  (2358) 
C=c1/c(=C/c2[n-]c(=O)[n-]c2[O-])cc(C(=O)[NH+]2CCN(C(C)=O)CC2)n1Cc1ccsc1

>  <Energy>  (2358) 
157.73207061677277

>  <Genealogy>  (2358) 
C=c1c(=Cc2[n-]c(=O)[n-]c2[O-])cc(C(=O)[NH+]2CCN(C(C)=O)CC2)n1Cc1ccsc1 (protonated)
C=c1/c(=C/c2[n-]c(=O)[n-]c2[O-])cc(C(=O)[NH+]2CCN(C(C)=O)CC2)n1Cc1ccsc1 (cis-trans isomerization)
C=c1/c(=C/c2[n-]c(=O)[n-]c2[O-])cc(C(=O)[NH+]2CCN(C(C)=O)CC2)n1Cc1ccsc1 (3D coordinates assigned)
C=c1/c(=C/c2[n-]c(=O)[n-]c2[O-])cc(C(=O)[NH+]2CCN(C(C)=O)CC2)n1Cc1ccsc1 (nonaromatic ring conformer: 157.73207061677277 kcal/mol)

>  <smiles>  (2358) 
C=c1c(=Cc2[nH]c(=O)[nH]c2O)cc(C(=O)N2CCN(C(C)=O)CC2)n1Cc1ccsc1

>  <score_type>  (2358) 
oracle

>  <origin>  (2358) 
adg

>  <m_score__min__energy>  (2358) 
-15.4

>  <m_primary>  (2358) 
energy

$$$$
45:0
     RDKit          3D

 23 24  0  0  0  0  0  0  0  0999 V2000
   59.5310   35.3130   45.5530 C   0  0  0  0  0  0  0  0  0  0  0  0
   60.1780   34.7970   46.5980 C   0  0  0  0  0  0  0  0  0  0  0  0
   60.1460   33.3520   46.9350 C   0  0  0  0  0  0  0  0  0  0  0  0
   58.9450   32.6310   46.7820 C   0  0  0  0  0  0  0  0  0  0  0  0
   58.9030   31.2550   47.0000 C   0  0  0  0  0  0  0  0  0  0  0  0
   60.0630   30.5610   47.3600 C   0  0  0  0  0  0  0  0  0  0  0  0
   60.0200   29.0780   47.6150 C   0  0  0  0  0  0  0  0  0  0  0  0
   58.8290   28.4940   47.0000 N   0  0  0  0  0  0  0  0  0  0  0  0
   58.7570   28.1870   45.6010 C   0  0  0  0  0  0  0  0  0  0  0  0
   59.7580   28.3680   44.8560 O   0  0  0  0  0  0  0  0  0  0  0  0
   57.5060   27.6000   45.0230 C   0  0  0  0  0  0  0  0  0  0  0  0
   57.1680   26.3240   45.7270 C   0  0  0  0  0  0  0  0  0  0  0  0
   58.2800   25.1420   46.1780 S   0  0  0  0  0  0  0  0  0  0  0  0
   57.1030   24.2060   46.9300 C   0  0  0  0  0  0  0  0  0  0  0  0
   57.3290   23.1060   47.4980 O   0  0  0  0  0  0  0  0  0  0  0  0
   55.8760   24.7620   46.8660 N   0  0  0  0  0  0  0  0  0  0  0  0
   55.9120   25.9460   46.2010 C   0  0  0  0  0  0  0  0  0  0  0  0
   54.7700   26.7150   46.0170 O   0  0  0  0  0  0  0  0  0  0  0  0
   61.2640   31.2640   47.5190 C   0  0  0  0  0  0  0  0  0  0  0  0
   61.3250   32.6550   47.3180 C   0  0  0  0  0  0  0  0  0  0  0  0
   62.6170   33.3440   47.5640 C   0  0  0  0  0  0  0  0  0  0  0  0
   63.7270   33.1130   46.6990 N   0  0  0  0  0  0  0  0  0  0  0  0
   62.7600   34.1090   48.5560 O   0  0  0  0  0  0  0  0  0  0  0  0
  1  2  2  0
  2  3  1  0
  3  4  2  0
  4  5  1  0
  5  6  2  0
  6  7  1  0
  7  8  1  0
  8  9  1  0
  9 10  2  0
  9 11  1  0
 11 12  1  0
 12 13  1  0
 13 14  1  0
 14 15  2  0
 14 16  1  0
 16 17  1  0
 17 18  1  0
  6 19  1  0
 19 20  2  0
 20 21  1  0
 21 22  1  0
 21 23  2  0
 20  3  1  0
 17 12  2  0
M  CHG  3  16  -1  18  -1  22  -1
M  END
>  <UniqueID>  (2359) 
43

>  <SMILES>  (2359) 
C=Cc1ccc(CNC(=O)Cc2sc(=O)[n-]c2[O-])cc1C([NH-])=O

>  <Energy>  (2359) 
68.05763473283989

>  <Genealogy>  (2359) 
C=Cc1ccc(CNC(=O)Cc2sc(=O)[n-]c2[O-])cc1C([NH-])=O (protonated)
C=Cc1ccc(CNC(=O)Cc2sc(=O)[n-]c2[O-])cc1C([NH-])=O (3D coordinates assigned)
C=Cc1ccc(CNC(=O)Cc2sc(=O)[n-]c2[O-])cc1C([NH-])=O (optimized conformer: 68.05763473283989 kcal/mol)

>  <smiles>  (2359) 
C=Cc1ccc(CNC(=O)Cc2sc(=O)[nH]c2O)cc1C(N)=O

>  <score_type>  (2359) 
oracle

>  <origin>  (2359) 
adg

>  <m_score__min__energy>  (2359) 
-15.48

>  <m_primary>  (2359) 
energy

$$$$
53:0
     RDKit          3D

 29 31  0  0  0  0  0  0  0  0999 V2000
   53.8750   28.0770   53.5630 C   0  0  0  0  0  0  0  0  0  0  0  0
   54.3740   29.2200   53.0630 C   0  0  0  0  0  0  0  0  0  0  0  0
   53.6440   30.2460   52.4510 C   0  0  0  0  0  0  0  0  0  0  0  0
   52.3090   30.3050   52.2630 C   0  0  0  0  0  0  0  0  0  0  0  0
   51.6790   30.7570   51.0090 C   0  0  0  0  0  0  0  0  0  0  0  0
   51.6480   30.0160   49.8860 N   0  0  0  0  0  0  0  0  0  0  0  0
   51.0430   30.8310   48.9930 C   0  0  0  0  0  0  0  0  0  0  0  0
   50.8290   30.4890   47.8000 O   0  0  0  0  0  0  0  0  0  0  0  0
   50.7040   32.0500   49.4710 N   0  0  0  0  0  0  0  0  0  0  0  0
   51.1200   31.9920   50.7490 C   0  0  0  0  0  0  0  0  0  0  0  0
   51.0260   33.0560   51.6380 O   0  0  0  0  0  0  0  0  0  0  0  0
   54.5610   31.2390   52.1310 C   0  0  0  0  0  0  0  0  0  0  0  0
   55.7930   30.7820   52.5400 C   0  0  0  0  0  0  0  0  0  0  0  0
   57.0480   31.5490   52.3920 C   0  0  0  0  0  0  0  0  0  0  0  0
   57.5860   32.0020   53.4410 O   0  0  0  0  0  0  0  0  0  0  0  0
   57.6160   31.8880   51.0970 N   0  0  0  0  0  0  0  0  0  0  0  0
   58.3180   30.7580   50.4470 C   0  0  0  0  0  0  0  0  0  0  0  0
   58.7570   31.1340   49.0130 C   0  0  0  0  0  0  0  0  0  0  0  0
   58.8900   32.6010   48.8370 N   0  0  0  0  0  0  0  0  0  0  0  0
   59.6800   32.9350   47.6350 C   0  0  0  0  0  0  0  0  0  0  0  0
   58.8940   33.8300   46.7100 C   0  0  0  0  0  0  0  0  0  0  0  0
   59.0530   35.0790   46.8000 O   0  0  0  0  0  0  0  0  0  0  0  0
   58.0090   33.2950   45.7010 N   0  0  0  0  0  0  0  0  0  0  0  0
   57.2200   34.2240   44.8810 C   0  0  0  0  0  0  0  0  0  0  0  0
   57.9030   31.8480   45.4760 C   0  0  0  0  0  0  0  0  0  0  0  0
   59.4820   33.2180   50.0360 C   0  0  0  0  0  0  0  0  0  0  0  0
   58.5200   33.0620   51.2330 C   0  0  0  0  0  0  0  0  0  0  0  0
   55.6900   29.5490   53.0910 N   0  0  0  0  0  0  0  0  0  0  0  0
   56.7760   28.7780   53.7060 C   0  0  0  0  0  0  0  0  0  0  0  0
  1  2  2  0
  2  3  1  0
  3  4  2  0
  4  5  1  0
  5  6  1  0
  6  7  1  0
  7  8  2  0
  7  9  1  0
  9 10  1  0
 10 11  1  0
  3 12  1  0
 12 13  2  0
 13 14  1  0
 14 15  2  0
 14 16  1  0
 16 17  1  0
 17 18  1  0
 18 19  1  0
 19 20  1  0
 20 21  1  0
 21 22  2  0
 21 23  1  0
 23 24  1  0
 23 25  1  0
 19 26  1  0
 26 27  1  0
 13 28  1  0
 28 29  1  0
 28  2  1  0
 10  5  2  0
 27 16  1  0
M  CHG  4   6  -1   9  -1  11  -1  16   1
M  END
>  <UniqueID>  (2360) 
50

>  <SMILES>  (2360) 
C=c1/c(=C/c2[n-]c(=O)[n-]c2[O-])cc(C(=O)[NH+]2CCN(CC(=O)N(C)C)CC2)n1C

>  <Energy>  (2360) 
136.55157379886342

>  <Genealogy>  (2360) 
C=c1c(=Cc2[n-]c(=O)[n-]c2[O-])cc(C(=O)[NH+]2CCN(CC(=O)N(C)C)CC2)n1C (protonated)
C=c1/c(=C/c2[n-]c(=O)[n-]c2[O-])cc(C(=O)[NH+]2CCN(CC(=O)N(C)C)CC2)n1C (cis-trans isomerization)
C=c1/c(=C/c2[n-]c(=O)[n-]c2[O-])cc(C(=O)[NH+]2CCN(CC(=O)N(C)C)CC2)n1C (3D coordinates assigned)
C=c1/c(=C/c2[n-]c(=O)[n-]c2[O-])cc(C(=O)[NH+]2CCN(CC(=O)N(C)C)CC2)n1C (nonaromatic ring conformer: 136.55157379886342 kcal/mol)

>  <smiles>  (2360) 
C=c1c(=Cc2[nH]c(=O)[nH]c2O)cc(C(=O)N2CCN(CC(=O)N(C)C)CC2)n1C

>  <score_type>  (2360) 
oracle

>  <origin>  (2360) 
adg

>  <m_score__min__energy>  (2360) 
-16.57

>  <m_primary>  (2360) 
energy

$$$$
59:0
     RDKit          3D

 26 28  0  0  0  0  0  0  0  0999 V2000
   57.6600   27.2240   44.9850 C   0  0  0  0  0  0  0  0  0  0  0  0
   57.1590   26.0950   45.7920 C   0  0  0  0  0  0  0  0  0  0  0  0
   57.9580   25.1530   46.3220 N   0  0  0  0  0  0  0  0  0  0  0  0
   57.1110   24.3980   47.0530 C   0  0  0  0  0  0  0  0  0  0  0  0
   57.4900   23.3870   47.7010 O   0  0  0  0  0  0  0  0  0  0  0  0
   55.8270   24.8160   47.0450 N   0  0  0  0  0  0  0  0  0  0  0  0
   55.8760   25.8990   46.2530 C   0  0  0  0  0  0  0  0  0  0  0  0
   54.7780   26.7080   45.9880 O   0  0  0  0  0  0  0  0  0  0  0  0
   57.9920   28.4570   45.4460 C   0  0  0  0  0  0  0  0  0  0  0  0
   58.6790   28.5090   46.6770 C   0  0  0  0  0  0  0  0  0  0  0  0
   58.9210   29.7210   47.3310 C   0  0  0  0  0  0  0  0  0  0  0  0
   59.6020   29.7000   48.6050 C   0  0  0  0  0  0  0  0  0  0  0  0
   60.1470   29.6830   49.6250 N   0  0  0  0  0  0  0  0  0  0  0  0
   58.5050   30.9290   46.7470 C   0  0  0  0  0  0  0  0  0  0  0  0
   58.7130   32.2200   47.4510 C   0  0  0  0  0  0  0  0  0  0  0  0
   59.6210   33.1480   47.1060 C   0  0  0  0  0  0  0  0  0  0  0  0
   61.0300   33.1700   47.5570 C   0  0  0  0  0  0  0  0  0  0  0  0
   61.3300   32.8150   48.8810 C   0  0  0  0  0  0  0  0  0  0  0  0
   62.6550   32.8120   49.3300 C   0  0  0  0  0  0  0  0  0  0  0  0
   63.6920   33.1470   48.4550 C   0  0  0  0  0  0  0  0  0  0  0  0
   64.9750   33.1440   48.8920 F   0  0  0  0  0  0  0  0  0  0  0  0
   63.4060   33.4750   47.1270 C   0  0  0  0  0  0  0  0  0  0  0  0
   62.0830   33.4770   46.6740 C   0  0  0  0  0  0  0  0  0  0  0  0
   57.8700   30.9010   45.4970 C   0  0  0  0  0  0  0  0  0  0  0  0
   57.6790   29.6960   44.7970 C   0  0  0  0  0  0  0  0  0  0  0  0
   57.3240   29.7870   43.5010 C   0  0  0  0  0  0  0  0  0  0  0  0
  1  2  1  0
  2  3  1  0
  3  4  1  0
  4  5  2  0
  4  6  1  0
  6  7  1  0
  7  8  1  0
  1  9  2  3
  9 10  1  0
 10 11  2  0
 11 12  1  0
 12 13  3  0
 11 14  1  0
 14 15  1  0
 15 16  2  0
 16 17  1  0
 17 18  2  0
 18 19  1  0
 19 20  2  0
 20 21  1  0
 20 22  1  0
 22 23  2  0
 14 24  2  0
 24 25  1  0
 25 26  2  0
  7  2  2  0
 25  9  1  0
 23 17  1  0
M  CHG  3   3  -1   6  -1   8  -1
M  END
>  <UniqueID>  (2361) 
56

>  <SMILES>  (2361) 
C=c1cc(/C=C\c2ccc(F)cc2)c(C#N)cc1=Cc1[n-]c(=O)[n-]c1[O-]

>  <Energy>  (2361) 
100.72100388227622

>  <Genealogy>  (2361) 
C=c1cc(C=Cc2ccc(F)cc2)c(C#N)cc1=Cc1[n-]c(=O)[n-]c1[O-] (protonated)
C=c1cc(/C=C\c2ccc(F)cc2)c(C#N)cc1=Cc1[n-]c(=O)[n-]c1[O-] (cis-trans isomerization)
C=c1cc(/C=C\c2ccc(F)cc2)c(C#N)cc1=Cc1[n-]c(=O)[n-]c1[O-] (3D coordinates assigned)
C=c1cc(/C=C\c2ccc(F)cc2)c(C#N)cc1=Cc1[n-]c(=O)[n-]c1[O-] (optimized conformer: 100.72100388227622 kcal/mol)

>  <smiles>  (2361) 
C=c1cc(C=Cc2ccc(F)cc2)c(C#N)cc1=Cc1[nH]c(=O)[nH]c1O

>  <score_type>  (2361) 
oracle

>  <origin>  (2361) 
adg

>  <m_score__min__energy>  (2361) 
-16.190000000000001

>  <m_primary>  (2361) 
energy

$$$$
76:0
     RDKit          3D

 26 28  0  0  0  0  0  0  0  0999 V2000
   57.4760   30.6720   44.8180 C   0  0  0  0  0  0  0  0  0  0  0  0
   58.1590   30.3980   45.9410 C   0  0  0  0  0  0  0  0  0  0  0  0
   58.4760   29.1270   46.4480 C   0  0  0  0  0  0  0  0  0  0  0  0
   58.3990   27.9050   45.8870 C   0  0  0  0  0  0  0  0  0  0  0  0
   57.2320   27.0110   45.9380 C   0  0  0  0  0  0  0  0  0  0  0  0
   57.2420   25.7650   46.4450 N   0  0  0  0  0  0  0  0  0  0  0  0
   55.9400   25.4010   46.4050 C   0  0  0  0  0  0  0  0  0  0  0  0
   55.5400   24.2720   46.7900 O   0  0  0  0  0  0  0  0  0  0  0  0
   55.1030   26.3480   45.9320 N   0  0  0  0  0  0  0  0  0  0  0  0
   55.9350   27.3650   45.6540 C   0  0  0  0  0  0  0  0  0  0  0  0
   55.5170   28.5930   45.1590 O   0  0  0  0  0  0  0  0  0  0  0  0
   58.9500   29.3330   47.7340 C   0  0  0  0  0  0  0  0  0  0  0  0
   58.9780   30.6960   47.9390 C   0  0  0  0  0  0  0  0  0  0  0  0
   59.4870   31.3550   49.1840 C   0  0  0  0  0  0  0  0  0  0  0  0
   58.4950   31.3440   46.8550 N   0  0  0  0  0  0  0  0  0  0  0  0
   58.3260   32.7670   46.7220 C   0  0  0  0  0  0  0  0  0  0  0  0
   57.6220   33.3850   47.5710 O   0  0  0  0  0  0  0  0  0  0  0  0
   59.0370   33.4950   45.6970 N   0  0  1  0  0  0  0  0  0  0  0  0
   58.1010   33.9450   44.6500 C   0  0  0  0  0  0  0  0  0  0  0  0
   59.7550   34.6330   46.3160 C   0  0  0  0  0  0  0  0  0  0  0  0
   60.9810   34.1790   47.0740 C   0  0  0  0  0  0  0  0  0  0  0  0
   62.1260   33.7590   46.3780 C   0  0  0  0  0  0  0  0  0  0  0  0
   63.2680   33.3580   47.0780 C   0  0  0  0  0  0  0  0  0  0  0  0
   63.2770   33.3790   48.4750 C   0  0  0  0  0  0  0  0  0  0  0  0
   62.1440   33.8010   49.1750 C   0  0  0  0  0  0  0  0  0  0  0  0
   60.9980   34.2020   48.4790 C   0  0  0  0  0  0  0  0  0  0  0  0
  1  2  2  0
  2  3  1  0
  3  4  2  0
  4  5  1  0
  5  6  1  0
  6  7  1  0
  7  8  2  0
  7  9  1  0
  9 10  1  0
 10 11  1  0
  3 12  1  0
 12 13  2  0
 13 14  1  0
 13 15  1  0
 15 16  1  0
 16 17  2  0
 16 18  1  0
 18 19  1  6
 18 20  1  0
 20 21  1  0
 21 22  2  0
 22 23  1  0
 23 24  2  0
 24 25  1  0
 25 26  2  0
 15  2  1  0
 26 21  1  0
 10  5  2  0
M  CHG  4   6  -1   9  -1  11  -1  18   1
M  END
>  <UniqueID>  (2362) 
70

>  <SMILES>  (2362) 
C=c1/c(=C\c2[n-]c(=O)[n-]c2[O-])cc(C)n1C(=O)[N@@H+](C)Cc1ccccc1

>  <Energy>  (2362) 
121.61268338020015

>  <Genealogy>  (2362) 
C=c1c(=Cc2[n-]c(=O)[n-]c2[O-])cc(C)n1C(=O)[NH+](C)Cc1ccccc1 (protonated)
C=c1c(=Cc2[n-]c(=O)[n-]c2[O-])cc(C)n1C(=O)[N@@H+](C)Cc1ccccc1 (chirality)
C=c1/c(=C\c2[n-]c(=O)[n-]c2[O-])cc(C)n1C(=O)[N@@H+](C)Cc1ccccc1 (cis-trans isomerization)
C=c1/c(=C\c2[n-]c(=O)[n-]c2[O-])cc(C)n1C(=O)[N@@H+](C)Cc1ccccc1 (3D coordinates assigned)
C=c1/c(=C\c2[n-]c(=O)[n-]c2[O-])cc(C)n1C(=O)[N@@H+](C)Cc1ccccc1 (optimized conformer: 121.61268338020015 kcal/mol)

>  <smiles>  (2362) 
C=c1c(=Cc2[nH]c(=O)[nH]c2O)cc(C)n1C(=O)N(C)Cc1ccccc1

>  <score_type>  (2362) 
oracle

>  <origin>  (2362) 
adg

>  <m_score__min__energy>  (2362) 
-14.779999999999999

>  <m_primary>  (2362) 
energy

$$$$
15:0
     RDKit          3D

 26 28  0  0  0  0  0  0  0  0999 V2000
   56.6610   30.7590   43.2580 C   0  0  0  0  0  0  0  0  0  0  0  0
   57.2610   30.6780   44.4590 C   0  0  0  0  0  0  0  0  0  0  0  0
   57.3820   29.5100   45.2240 C   0  0  0  0  0  0  0  0  0  0  0  0
   56.9330   28.2770   44.9180 C   0  0  0  0  0  0  0  0  0  0  0  0
   56.9500   27.1370   45.8540 C   0  0  0  0  0  0  0  0  0  0  0  0
   58.0010   26.8420   46.6390 N   0  0  0  0  0  0  0  0  0  0  0  0
   57.5600   25.8000   47.3760 C   0  0  0  0  0  0  0  0  0  0  0  0
   58.2790   25.2270   48.2360 O   0  0  0  0  0  0  0  0  0  0  0  0
   56.2870   25.4290   47.1290 N   0  0  0  0  0  0  0  0  0  0  0  0
   55.9090   26.2910   46.1710 C   0  0  0  0  0  0  0  0  0  0  0  0
   54.6270   26.3330   45.6380 O   0  0  0  0  0  0  0  0  0  0  0  0
   57.9850   29.8850   46.4110 C   0  0  0  0  0  0  0  0  0  0  0  0
   58.2200   31.2380   46.3270 C   0  0  0  0  0  0  0  0  0  0  0  0
   58.7360   32.0240   47.4570 C   0  0  0  0  0  0  0  0  0  0  0  0
   57.9380   32.7700   48.0870 O   0  0  0  0  0  0  0  0  0  0  0  0
   60.1320   31.9840   47.8180 N   0  0  0  0  0  0  0  0  0  0  0  0
   61.1190   31.4600   46.8600 C   0  0  0  0  0  0  0  0  0  0  0  0
   62.5400   31.6060   47.3990 C   0  0  0  0  0  0  0  0  0  0  0  0
   62.6800   32.9420   47.9950 N   0  0  0  0  0  0  0  0  0  0  0  0
   64.0960   33.2470   48.2540 C   0  0  0  0  0  0  0  0  0  0  0  0
   61.8860   33.0670   49.2380 C   0  0  0  0  0  0  0  0  0  0  0  0
   60.5460   32.2990   49.1940 C   0  0  0  0  0  0  0  0  0  0  0  0
   57.8120   31.7350   45.1270 N   0  0  0  0  0  0  0  0  0  0  0  0
   57.8730   33.1440   44.6660 C   0  0  0  0  0  0  0  0  0  0  0  0
   56.7750   33.9780   45.3290 C   0  0  0  0  0  0  0  0  0  0  0  0
   59.2570   33.7780   44.8680 C   0  0  0  0  0  0  0  0  0  0  0  0
  1  2  2  0
  2  3  1  0
  3  4  2  3
  4  5  1  0
  5  6  1  0
  6  7  1  0
  7  8  2  0
  7  9  1  0
  9 10  1  0
 10 11  1  0
  3 12  1  0
 12 13  2  0
 13 14  1  0
 14 15  2  0
 14 16  1  0
 16 17  1  0
 17 18  1  0
 18 19  1  0
 19 20  1  0
 19 21  1  0
 21 22  1  0
 13 23  1  0
 23 24  1  0
 24 25  1  0
 24 26  1  0
 23  2  1  0
 10  5  2  0
 22 16  1  0
M  CHG  3   6  -1   9  -1  11  -1
M  END
>  <UniqueID>  (2363) 
16

>  <SMILES>  (2363) 
C=c1c(=Cc2[n-]c(=O)[n-]c2[O-])cc(C(=O)N2CCN(C)CC2)n1C(C)C

>  <Energy>  (2363) 
126.41439019219112

>  <Genealogy>  (2363) 
C=c1c(=Cc2[n-]c(=O)[n-]c2[O-])cc(C(=O)N2CCN(C)CC2)n1C(C)C (protonated)
C=c1c(=Cc2[n-]c(=O)[n-]c2[O-])cc(C(=O)N2CCN(C)CC2)n1C(C)C (3D coordinates assigned)
C=c1c(=Cc2[n-]c(=O)[n-]c2[O-])cc(C(=O)N2CCN(C)CC2)n1C(C)C (nonaromatic ring conformer: 126.41439019219112 kcal/mol)

>  <smiles>  (2363) 
C=c1c(=Cc2[nH]c(=O)[nH]c2O)cc(C(=O)N2CCN(C)CC2)n1C(C)C

>  <score_type>  (2363) 
oracle

>  <origin>  (2363) 
adg

>  <m_score__min__energy>  (2363) 
-16.309999999999999

>  <m_primary>  (2363) 
energy

$$$$
22:0
     RDKit          3D

 35 38  0  0  0  0  0  0  0  0999 V2000
   58.5190   25.6480   45.6570 O   0  0  0  0  0  0  0  0  0  0  0  0
   58.2830   26.6800   46.3390 C   0  0  0  0  0  0  0  0  0  0  0  0
   58.6550   26.6870   47.7260 N   0  0  0  0  0  0  0  0  0  0  0  0
   59.2700   27.7800   48.4200 C   0  0  0  0  0  0  0  0  0  0  0  0
   60.4730   27.6170   49.1270 C   0  0  0  0  0  0  0  0  0  0  0  0
   61.1110   28.7240   49.6930 C   0  0  0  0  0  0  0  0  0  0  0  0
   60.5420   29.9990   49.5780 C   0  0  0  0  0  0  0  0  0  0  0  0
   61.4230   31.4200   50.1320 S   0  0  0  0  0  0  0  0  0  0  0  0
   62.0380   31.1480   51.4770 O   0  0  0  0  0  0  0  0  0  0  0  0
   60.4620   32.5690   50.2660 O   0  0  0  0  0  0  0  0  0  0  0  0
   62.6670   31.8260   48.9740 N   0  0  0  0  0  0  0  0  0  0  0  0
   63.0430   33.2520   49.1160 C   0  0  0  0  0  0  0  0  0  0  0  0
   63.7730   33.7670   47.8730 C   0  0  0  0  0  0  0  0  0  0  0  0
   62.8690   33.6940   46.6300 C   0  0  0  0  0  0  0  0  0  0  0  0
   61.7810   32.6120   46.7500 C   0  0  0  0  0  0  0  0  0  0  0  0
   62.2670   31.4280   47.6000 C   0  0  0  0  0  0  0  0  0  0  0  0
   59.3110   30.1530   48.9270 C   0  0  0  0  0  0  0  0  0  0  0  0
   58.6720   29.0450   48.3620 C   0  0  0  0  0  0  0  0  0  0  0  0
   57.6010   27.8360   45.7010 C   0  0  0  0  0  0  0  0  0  0  0  0
   56.2100   27.8390   45.5450 C   0  0  0  0  0  0  0  0  0  0  0  0
   55.4370   26.7750   46.0000 O   0  0  0  0  0  0  0  0  0  0  0  0
   55.6010   28.8770   44.9250 N   0  0  0  0  0  0  0  0  0  0  0  0
   56.3060   29.9290   44.4380 C   0  0  0  0  0  0  0  0  0  0  0  0
   55.6840   30.8640   43.8650 O   0  0  0  0  0  0  0  0  0  0  0  0
   57.6700   29.9710   44.5720 N   0  0  0  0  0  0  0  0  0  0  0  0
   58.4260   31.1270   44.0450 C   0  0  0  0  0  0  0  0  0  0  0  0
   57.7130   32.4510   44.3520 C   0  0  0  0  0  0  0  0  0  0  0  0
   58.3560   33.1740   45.5060 C   0  0  0  0  0  0  0  0  0  0  0  0
   58.1890   32.7000   46.8180 C   0  0  0  0  0  0  0  0  0  0  0  0
   58.7430   33.4000   47.8940 C   0  0  0  0  0  0  0  0  0  0  0  0
   59.4590   34.5800   47.6700 C   0  0  0  0  0  0  0  0  0  0  0  0
   59.6210   35.0630   46.3680 C   0  0  0  0  0  0  0  0  0  0  0  0
   59.0710   34.3650   45.2890 C   0  0  0  0  0  0  0  0  0  0  0  0
   58.3190   28.9500   45.2250 C   0  0  0  0  0  0  0  0  0  0  0  0
   59.5660   29.0130   45.4170 O   0  0  0  0  0  0  0  0  0  0  0  0
  1  2  2  0
  2  3  1  0
  3  4  1  0
  4  5  2  0
  5  6  1  0
  6  7  2  0
  7  8  1  0
  8  9  2  0
  8 10  2  0
  8 11  1  0
 11 12  1  0
 12 13  1  0
 13 14  1  0
 14 15  1  0
 15 16  1  0
  7 17  1  0
 17 18  2  0
  2 19  1  0
 19 20  2  0
 20 21  1  0
 20 22  1  0
 22 23  1  0
 23 24  2  0
 23 25  1  0
 25 26  1  0
 26 27  1  0
 27 28  1  0
 28 29  2  0
 29 30  1  0
 30 31  2  0
 31 32  1  0
 32 33  2  0
 25 34  1  0
 34 35  2  0
 18  4  1  0
 34 19  1  0
 16 11  1  0
 33 28  1  0
M  CHG  3   3  -1  21  -1  22  -1
M  END
>  <UniqueID>  (2364) 
23

>  <SMILES>  (2364) 
O=C([N-]c1ccc(S(=O)(=O)N2CCCCC2)cc1)c1c([O-])[n-]c(=O)n(CCc2ccccc2)c1=O

>  <Energy>  (2364) 
75.32765738962073

>  <Genealogy>  (2364) 
O=C([N-]c1ccc(S(=O)(=O)N2CCCCC2)cc1)c1c([O-])[n-]c(=O)n(CCc2ccccc2)c1=O (protonated)
O=C([N-]c1ccc(S(=O)(=O)N2CCCCC2)cc1)c1c([O-])[n-]c(=O)n(CCc2ccccc2)c1=O (3D coordinates assigned)
O=C([N-]c1ccc(S(=O)(=O)N2CCCCC2)cc1)c1c([O-])[n-]c(=O)n(CCc2ccccc2)c1=O (nonaromatic ring conformer: 75.32765738962073 kcal/mol)

>  <smiles>  (2364) 
O=C(Nc1ccc(S(=O)(=O)N2CCCCC2)cc1)c1c(O)[nH]c(=O)n(CCc2ccccc2)c1=O

>  <score_type>  (2364) 
oracle

>  <origin>  (2364) 
adg

>  <m_score__min__energy>  (2364) 
-15.5

>  <m_primary>  (2364) 
energy

$$$$
24:0
     RDKit          3D

 28 30  0  0  0  0  0  0  0  0999 V2000
   57.3890   30.4050   43.8960 C   0  0  0  0  0  0  0  0  0  0  0  0
   57.7610   30.0770   45.1450 C   0  0  0  0  0  0  0  0  0  0  0  0
   57.7520   28.7910   45.6940 C   0  0  0  0  0  0  0  0  0  0  0  0
   57.3570   27.6470   45.1000 C   0  0  0  0  0  0  0  0  0  0  0  0
   57.2120   26.3610   45.8190 C   0  0  0  0  0  0  0  0  0  0  0  0
   55.9420   25.9250   46.2280 C   0  0  0  0  0  0  0  0  0  0  0  0
   54.8170   26.7060   45.9930 O   0  0  0  0  0  0  0  0  0  0  0  0
   55.8070   24.7340   46.8660 N   0  0  0  0  0  0  0  0  0  0  0  0
   56.8810   23.9420   47.1080 C   0  0  0  0  0  0  0  0  0  0  0  0
   56.7320   22.8450   47.7070 O   0  0  0  0  0  0  0  0  0  0  0  0
   58.1170   24.3280   46.7010 N   0  0  0  0  0  0  0  0  0  0  0  0
   58.3070   25.5090   46.0570 C   0  0  0  0  0  0  0  0  0  0  0  0
   59.4630   25.8170   45.6620 O   0  0  0  0  0  0  0  0  0  0  0  0
   58.1830   28.9220   47.0050 C   0  0  0  0  0  0  0  0  0  0  0  0
   58.4460   30.2620   47.2030 C   0  0  0  0  0  0  0  0  0  0  0  0
   58.8930   30.8510   48.5070 C   0  0  0  0  0  0  0  0  0  0  0  0
   58.2010   30.9680   46.0730 N   0  0  0  0  0  0  0  0  0  0  0  0
   58.3180   32.4280   45.9310 C   0  0  0  0  0  0  0  0  0  0  0  0
   59.5490   32.9230   46.6320 C   0  0  0  0  0  0  0  0  0  0  0  0
   59.5270   34.0560   47.1850 O   0  0  0  0  0  0  0  0  0  0  0  0
   60.7180   32.0920   46.7150 N   0  0  0  0  0  0  0  0  0  0  0  0
   61.9800   32.5290   47.2500 C   0  0  0  0  0  0  0  0  0  0  0  0
   62.5620   33.7090   46.7610 C   0  0  0  0  0  0  0  0  0  0  0  0
   63.7770   34.1660   47.2800 C   0  0  0  0  0  0  0  0  0  0  0  0
   64.4140   33.4570   48.3020 C   0  0  0  0  0  0  0  0  0  0  0  0
   63.8310   32.2950   48.8130 C   0  0  0  0  0  0  0  0  0  0  0  0
   64.4380   31.6190   49.8180 F   0  0  0  0  0  0  0  0  0  0  0  0
   62.6160   31.8330   48.2960 C   0  0  0  0  0  0  0  0  0  0  0  0
  1  2  2  0
  2  3  1  0
  3  4  2  3
  4  5  1  0
  5  6  2  0
  6  7  1  0
  6  8  1  0
  8  9  1  0
  9 10  2  0
  9 11  1  0
 11 12  1  0
 12 13  2  0
  3 14  1  0
 14 15  2  0
 15 16  1  0
 15 17  1  0
 17 18  1  0
 18 19  1  0
 19 20  2  0
 19 21  1  0
 21 22  1  0
 22 23  2  0
 23 24  1  0
 24 25  2  0
 25 26  1  0
 26 27  1  0
 26 28  2  0
 17  2  1  0
 28 22  1  0
 12  5  1  0
M  CHG  3   7  -1   8  -1  11  -1
M  END
>  <UniqueID>  (2365) 
25

>  <SMILES>  (2365) 
C=c1c(=Cc2c([O-])[n-]c(=O)[n-]c2=O)cc(C)n1CC(=O)Nc1cccc(F)c1

>  <Energy>  (2365) 
85.43494990885088

>  <Genealogy>  (2365) 
C=c1c(=Cc2c([O-])[n-]c(=O)[n-]c2=O)cc(C)n1CC(=O)Nc1cccc(F)c1 (protonated)
C=c1c(=Cc2c([O-])[n-]c(=O)[n-]c2=O)cc(C)n1CC(=O)Nc1cccc(F)c1 (3D coordinates assigned)
C=c1c(=Cc2c([O-])[n-]c(=O)[n-]c2=O)cc(C)n1CC(=O)Nc1cccc(F)c1 (optimized conformer: 85.43494990885088 kcal/mol)

>  <smiles>  (2365) 
C=c1c(=Cc2c(O)[nH]c(=O)[nH]c2=O)cc(C)n1CC(=O)Nc1cccc(F)c1

>  <score_type>  (2365) 
oracle

>  <origin>  (2365) 
adg

>  <m_score__min__energy>  (2365) 
-15.380000000000001

>  <m_primary>  (2365) 
energy

$$$$
32:0
     RDKit          3D

 23 24  0  0  0  0  0  0  0  0999 V2000
   57.8510   29.8600   44.1560 C   0  0  0  0  0  0  0  0  0  0  0  0
   58.5540   30.8340   44.6490 N   0  0  0  0  0  0  0  0  0  0  0  0
   58.7230   31.0800   46.0490 C   0  0  0  0  0  0  0  0  0  0  0  0
   57.7890   31.7240   46.6860 N   0  0  0  0  0  0  0  0  0  0  0  0
   57.6690   33.1780   46.7740 C   0  0  0  0  0  0  0  0  0  0  0  0
   57.6640   33.7900   45.4000 C   0  0  0  0  0  0  0  0  0  0  0  0
   58.7010   34.4920   44.9350 C   0  0  0  0  0  0  0  0  0  0  0  0
   59.8760   30.5750   46.7420 N   0  0  0  0  0  0  0  0  0  0  0  0
   60.9610   31.4090   47.1860 C   0  0  0  0  0  0  0  0  0  0  0  0
   61.0280   32.7410   46.7480 C   0  0  0  0  0  0  0  0  0  0  0  0
   62.0710   33.5730   47.1660 C   0  0  0  0  0  0  0  0  0  0  0  0
   63.0540   33.0830   48.0300 C   0  0  0  0  0  0  0  0  0  0  0  0
   62.9930   31.7600   48.4780 C   0  0  0  0  0  0  0  0  0  0  0  0
   61.9510   30.9250   48.0630 C   0  0  0  0  0  0  0  0  0  0  0  0
   57.5550   28.6380   44.9470 C   0  0  0  0  0  0  0  0  0  0  0  0
   56.2380   28.2270   45.2510 C   0  0  0  0  0  0  0  0  0  0  0  0
   55.1360   28.9560   44.8210 O   0  0  0  0  0  0  0  0  0  0  0  0
   56.0300   27.1000   45.9790 N   0  0  0  0  0  0  0  0  0  0  0  0
   57.0660   26.3480   46.4270 C   0  0  0  0  0  0  0  0  0  0  0  0
   56.8440   25.3080   47.0990 O   0  0  0  0  0  0  0  0  0  0  0  0
   58.3410   26.7180   46.1510 N   0  0  0  0  0  0  0  0  0  0  0  0
   58.6090   27.8340   45.4270 C   0  0  0  0  0  0  0  0  0  0  0  0
   59.8100   28.1390   45.1950 O   0  0  0  0  0  0  0  0  0  0  0  0
  1  2  2  0
  2  3  1  0
  3  4  2  0
  4  5  1  0
  5  6  1  0
  6  7  2  0
  3  8  1  0
  8  9  1  0
  9 10  2  0
 10 11  1  0
 11 12  2  0
 12 13  1  0
 13 14  2  0
  1 15  1  0
 15 16  2  0
 16 17  1  0
 16 18  1  0
 18 19  1  0
 19 20  2  0
 19 21  1  0
 21 22  1  0
 22 23  2  0
 14  9  1  0
 22 15  1  0
M  CHG  3  17  -1  18  -1  21  -1
M  END
>  <UniqueID>  (2366) 
33

>  <SMILES>  (2366) 
C=CC/N=C(/N=Cc1c([O-])[n-]c(=O)[n-]c1=O)Nc1ccccc1

>  <Energy>  (2366) 
42.83508588440018

>  <Genealogy>  (2366) 
C=CCN=C(N=Cc1c([O-])[n-]c(=O)[n-]c1=O)Nc1ccccc1 (protonated)
C=CC/N=C(/N=Cc1c([O-])[n-]c(=O)[n-]c1=O)Nc1ccccc1 (cis-trans isomerization)
C=CC/N=C(/N=Cc1c([O-])[n-]c(=O)[n-]c1=O)Nc1ccccc1 (3D coordinates assigned)
C=CC/N=C(/N=Cc1c([O-])[n-]c(=O)[n-]c1=O)Nc1ccccc1 (optimized conformer: 42.83508588440018 kcal/mol)

>  <smiles>  (2366) 
C=CCN=C(N=Cc1c(O)[nH]c(=O)[nH]c1=O)Nc1ccccc1

>  <score_type>  (2366) 
oracle

>  <origin>  (2366) 
adg

>  <m_score__min__energy>  (2366) 
-14.75

>  <m_primary>  (2366) 
energy

$$$$
42:0
     RDKit          3D

 37 40  0  0  0  0  0  0  0  0999 V2000
   57.9640   29.9020   50.8900 O   0  0  0  0  0  0  0  0  0  0  0  0
   58.5080   30.4750   49.9080 C   0  0  0  0  0  0  0  0  0  0  0  0
   58.9240   29.6740   48.7200 C   0  0  0  0  0  0  0  0  0  0  0  0
   59.9230   28.6940   49.1250 N   0  0  0  0  0  0  0  0  0  0  0  0
   60.1040   27.4080   48.5200 C   0  0  0  0  0  0  0  0  0  0  0  0
   60.8910   26.5880   49.0610 O   0  0  0  0  0  0  0  0  0  0  0  0
   59.4280   27.0280   47.2630 C   0  0  0  0  0  0  0  0  0  0  0  0
   59.9290   27.4480   46.0210 C   0  0  0  0  0  0  0  0  0  0  0  0
   59.2700   27.0970   44.8400 C   0  0  0  0  0  0  0  0  0  0  0  0
   58.0980   26.3380   44.8890 C   0  0  0  0  0  0  0  0  0  0  0  0
   57.5720   25.9360   46.1240 C   0  0  0  0  0  0  0  0  0  0  0  0
   56.0760   24.9990   46.1870 S   0  0  0  0  0  0  0  0  0  0  0  0
   54.9170   25.8910   45.8360 O   0  0  0  0  0  0  0  0  0  0  0  0
   55.8690   24.4960   47.5880 O   0  0  0  0  0  0  0  0  0  0  0  0
   56.1140   23.6420   45.0880 N   0  0  0  0  0  0  0  0  0  0  0  0
   56.0340   24.1040   43.6910 C   0  0  0  0  0  0  0  0  0  0  0  0
   56.3110   22.9430   42.7150 C   0  0  0  0  0  0  0  0  0  0  0  0
   56.2830   21.6970   43.3860 O   0  0  0  0  0  0  0  0  0  0  0  0
   57.3360   21.6370   44.3320 C   0  0  0  0  0  0  0  0  0  0  0  0
   57.3340   22.8480   45.2900 C   0  0  0  0  0  0  0  0  0  0  0  0
   58.2370   26.2860   47.3080 C   0  0  0  0  0  0  0  0  0  0  0  0
   58.7670   31.8850   49.9300 N   0  0  0  0  0  0  0  0  0  0  0  0
   59.1180   32.7050   48.8050 C   0  0  0  0  0  0  0  0  0  0  0  0
   60.1280   33.6820   48.8780 C   0  0  0  0  0  0  0  0  0  0  0  0
   60.4240   34.4710   47.7640 C   0  0  0  0  0  0  0  0  0  0  0  0
   59.7090   34.3050   46.5760 C   0  0  0  0  0  0  0  0  0  0  0  0
   58.6850   33.3520   46.4980 C   0  0  0  0  0  0  0  0  0  0  0  0
   57.7760   33.1460   44.9980 S   0  0  0  0  0  0  0  0  0  0  0  0
   56.7860   34.2690   44.8630 O   0  0  0  0  0  0  0  0  0  0  0  0
   58.7240   33.2200   43.8330 O   0  0  0  0  0  0  0  0  0  0  0  0
   56.9290   31.6190   44.9550 N   0  0  0  0  0  0  0  0  0  0  0  0
   56.6690   31.2130   43.5660 C   0  0  0  0  0  0  0  0  0  0  0  0
   55.9350   29.8560   43.5400 C   0  0  0  0  0  0  0  0  0  0  0  0
   55.7810   29.3090   44.8380 O   0  0  0  0  0  0  0  0  0  0  0  0
   57.0450   29.1960   45.4620 C   0  0  0  0  0  0  0  0  0  0  0  0
   57.7050   30.5790   45.6480 C   0  0  0  0  0  0  0  0  0  0  0  0
   58.3870   32.5630   47.6180 C   0  0  0  0  0  0  0  0  0  0  0  0
  1  2  2  0
  2  3  1  0
  3  4  1  0
  4  5  1  0
  5  6  2  0
  5  7  1  0
  7  8  2  0
  8  9  1  0
  9 10  2  0
 10 11  1  0
 11 12  1  0
 12 13  2  0
 12 14  2  0
 12 15  1  0
 15 16  1  0
 16 17  1  0
 17 18  1  0
 18 19  1  0
 19 20  1  0
 11 21  2  0
  2 22  1  0
 22 23  1  0
 23 24  2  0
 24 25  1  0
 25 26  2  0
 26 27  1  0
 27 28  1  0
 28 29  2  0
 28 30  2  0
 28 31  1  0
 31 32  1  0
 32 33  1  0
 33 34  1  0
 34 35  1  0
 35 36  1  0
 27 37  2  0
 21  7  1  0
 37 23  1  0
 20 15  1  0
 36 31  1  0
M  CHG  2   4  -1  22  -1
M  END
>  <UniqueID>  (2367) 
43

>  <SMILES>  (2367) 
O=C(C[N-]C(=O)c1cccc(S(=O)(=O)N2CCOCC2)c1)[N-]c1cccc(S(=O)(=O)N2CCOCC2)c1

>  <Energy>  (2367) 
85.17000746667351

>  <Genealogy>  (2367) 
O=C(C[N-]C(=O)c1cccc(S(=O)(=O)N2CCOCC2)c1)[N-]c1cccc(S(=O)(=O)N2CCOCC2)c1 (protonated)
O=C(C[N-]C(=O)c1cccc(S(=O)(=O)N2CCOCC2)c1)[N-]c1cccc(S(=O)(=O)N2CCOCC2)c1 (3D coordinates assigned)
O=C(C[N-]C(=O)c1cccc(S(=O)(=O)N2CCOCC2)c1)[N-]c1cccc(S(=O)(=O)N2CCOCC2)c1 (nonaromatic ring conformer: 85.17000746667351 kcal/mol)

>  <smiles>  (2367) 
O=C(CNC(=O)c1cccc(S(=O)(=O)N2CCOCC2)c1)Nc1cccc(S(=O)(=O)N2CCOCC2)c1

>  <score_type>  (2367) 
oracle

>  <origin>  (2367) 
adg

>  <m_score__min__energy>  (2367) 
-14.31

>  <m_primary>  (2367) 
energy

$$$$
59:0
     RDKit          3D

 27 29  0  0  0  0  0  0  0  0999 V2000
   57.6790   29.8090   45.1560 C   0  0  0  0  0  0  0  0  0  0  0  0
   56.7160   28.6920   45.1860 C   0  0  0  0  0  0  0  0  0  0  0  0
   55.5200   28.9470   44.8720 O   0  0  0  0  0  0  0  0  0  0  0  0
   57.1030   27.2950   45.5780 C   0  0  0  0  0  0  0  0  0  0  0  0
   56.1160   26.3640   45.9880 C   0  0  0  0  0  0  0  0  0  0  0  0
   54.7690   26.7160   46.0360 O   0  0  0  0  0  0  0  0  0  0  0  0
   56.4640   25.0990   46.3380 N   0  0  0  0  0  0  0  0  0  0  0  0
   57.7570   24.6850   46.2790 C   0  0  0  0  0  0  0  0  0  0  0  0
   58.0580   23.5020   46.5940 O   0  0  0  0  0  0  0  0  0  0  0  0
   58.7270   25.5450   45.8800 N   0  0  0  0  0  0  0  0  0  0  0  0
   58.4400   26.8250   45.5280 C   0  0  0  0  0  0  0  0  0  0  0  0
   59.3890   27.5700   45.1580 O   0  0  0  0  0  0  0  0  0  0  0  0
   57.3650   31.0610   44.7880 C   0  0  0  0  0  0  0  0  0  0  0  0
   58.0010   32.2960   45.3100 C   0  0  0  0  0  0  0  0  0  0  0  0
   58.3460   33.3190   44.4150 C   0  0  0  0  0  0  0  0  0  0  0  0
   58.9070   34.5110   44.8840 C   0  0  0  0  0  0  0  0  0  0  0  0
   59.1200   34.6970   46.2510 C   0  0  0  0  0  0  0  0  0  0  0  0
   58.7650   33.7000   47.1670 C   0  0  0  0  0  0  0  0  0  0  0  0
   58.9780   33.9410   48.5360 O   0  0  0  0  0  0  0  0  0  0  0  0
   59.9670   33.2900   49.3400 C   0  0  0  0  0  0  0  0  0  0  0  0
   61.2350   33.0500   48.5590 C   0  0  0  0  0  0  0  0  0  0  0  0
   61.4670   31.8070   47.9440 C   0  0  0  0  0  0  0  0  0  0  0  0
   62.6380   31.5910   47.2100 C   0  0  0  0  0  0  0  0  0  0  0  0
   63.5960   32.6060   47.1060 C   0  0  0  0  0  0  0  0  0  0  0  0
   63.3880   33.8340   47.7410 C   0  0  0  0  0  0  0  0  0  0  0  0
   62.2160   34.0540   48.4700 C   0  0  0  0  0  0  0  0  0  0  0  0
   58.1840   32.5080   46.6890 C   0  0  0  0  0  0  0  0  0  0  0  0
  1  2  1  0
  2  3  2  0
  2  4  1  0
  4  5  2  0
  5  6  1  0
  5  7  1  0
  7  8  1  0
  8  9  2  0
  8 10  1  0
 10 11  1  0
 11 12  2  0
  1 13  2  0
 13 14  1  0
 14 15  2  0
 15 16  1  0
 16 17  2  0
 17 18  1  0
 18 19  1  0
 19 20  1  0
 20 21  1  0
 21 22  2  0
 22 23  1  0
 23 24  2  0
 24 25  1  0
 25 26  2  0
 18 27  2  0
 11  4  1  0
 27 14  1  0
 26 21  1  0
M  CHG  2   6  -1  10  -1
M  END
>  <UniqueID>  (2368) 
60

>  <SMILES>  (2368) 
O=C(/C=C\c1cccc(OCc2ccccc2)c1)c1c([O-])[nH]c(=O)[n-]c1=O

>  <Energy>  (2368) 
58.052014567151694

>  <Genealogy>  (2368) 
O=C(C=Cc1cccc(OCc2ccccc2)c1)c1c([O-])[nH]c(=O)[n-]c1=O (protonated)
O=C(/C=C\c1cccc(OCc2ccccc2)c1)c1c([O-])[nH]c(=O)[n-]c1=O (cis-trans isomerization)
O=C(/C=C\c1cccc(OCc2ccccc2)c1)c1c([O-])[nH]c(=O)[n-]c1=O (3D coordinates assigned)
O=C(/C=C\c1cccc(OCc2ccccc2)c1)c1c([O-])[nH]c(=O)[n-]c1=O (optimized conformer: 58.052014567151694 kcal/mol)

>  <smiles>  (2368) 
O=C(C=Cc1cccc(OCc2ccccc2)c1)c1c(O)[nH]c(=O)[nH]c1=O

>  <score_type>  (2368) 
oracle

>  <origin>  (2368) 
adg

>  <m_score__min__energy>  (2368) 
-14.550000000000001

>  <m_primary>  (2368) 
energy

$$$$
73:0
     RDKit          3D

 32 35  0  0  0  0  0  0  0  0999 V2000
   59.9140   29.0330   44.5930 C   0  0  0  0  0  0  0  0  0  0  0  0
   59.5420   28.8990   45.8770 C   0  0  0  0  0  0  0  0  0  0  0  0
   58.6260   27.9670   46.3850 C   0  0  0  0  0  0  0  0  0  0  0  0
   57.9440   27.0370   45.6780 C   0  0  0  0  0  0  0  0  0  0  0  0
   57.2520   25.8540   46.2400 C   0  0  0  0  0  0  0  0  0  0  0  0
   57.8380   24.7400   46.7120 N   0  0  0  0  0  0  0  0  0  0  0  0
   56.7990   23.9800   47.1190 C   0  0  0  0  0  0  0  0  0  0  0  0
   56.9510   22.8400   47.6290 O   0  0  0  0  0  0  0  0  0  0  0  0
   55.5850   24.5410   46.9380 N   0  0  0  0  0  0  0  0  0  0  0  0
   55.8890   25.7240   46.3830 C   0  0  0  0  0  0  0  0  0  0  0  0
   54.9390   26.6660   46.0100 O   0  0  0  0  0  0  0  0  0  0  0  0
   58.5650   28.1970   47.7540 C   0  0  0  0  0  0  0  0  0  0  0  0
   59.4390   29.2290   48.0260 C   0  0  0  0  0  0  0  0  0  0  0  0
   59.6760   29.7700   49.3770 C   0  0  0  0  0  0  0  0  0  0  0  0
   58.7030   30.2110   50.0460 O   0  0  0  0  0  0  0  0  0  0  0  0
   60.9910   29.7480   49.9490 N   0  0  0  0  0  0  0  0  0  0  0  0
   61.3970   30.6560   51.0170 C   0  0  0  0  0  0  0  0  0  0  0  0
   61.9710   31.9080   50.4180 C   0  0  0  0  0  0  0  0  0  0  0  0
   61.2150   33.0880   50.3780 C   0  0  0  0  0  0  0  0  0  0  0  0
   61.7430   34.2230   49.7590 C   0  0  0  0  0  0  0  0  0  0  0  0
   62.9760   34.1760   49.1880 N   0  0  0  0  0  0  0  0  0  0  0  0
   63.7240   33.0400   49.2000 C   0  0  0  0  0  0  0  0  0  0  0  0
   63.2330   31.8830   49.8080 C   0  0  0  0  0  0  0  0  0  0  0  0
   60.0220   29.6720   46.8870 N   0  0  0  0  0  0  0  0  0  0  0  0
   60.9000   30.8480   46.7580 C   0  0  0  0  0  0  0  0  0  0  0  0
   60.1480   32.1620   46.7800 C   0  0  0  0  0  0  0  0  0  0  0  0
   58.7460   32.2280   46.9120 C   0  0  0  0  0  0  0  0  0  0  0  0
   58.0920   33.4640   46.8940 C   0  0  0  0  0  0  0  0  0  0  0  0
   58.8220   34.6420   46.7380 C   0  0  0  0  0  0  0  0  0  0  0  0
   60.2100   34.5890   46.5960 C   0  0  0  0  0  0  0  0  0  0  0  0
   60.8720   33.3570   46.6160 C   0  0  0  0  0  0  0  0  0  0  0  0
   62.2210   33.3310   46.4710 F   0  0  0  0  0  0  0  0  0  0  0  0
  1  2  2  0
  2  3  1  0
  3  4  2  3
  4  5  1  0
  5  6  1  0
  6  7  1  0
  7  8  2  0
  7  9  1  0
  9 10  1  0
 10 11  1  0
  3 12  1  0
 12 13  2  0
 13 14  1  0
 14 15  2  0
 14 16  1  0
 16 17  1  0
 17 18  1  0
 18 19  2  0
 19 20  1  0
 20 21  2  0
 21 22  1  0
 22 23  2  0
 13 24  1  0
 24 25  1  0
 25 26  1  0
 26 27  2  0
 27 28  1  0
 28 29  2  0
 29 30  1  0
 30 31  2  0
 31 32  1  0
 24  2  1  0
 31 26  1  0
 10  5  2  0
 23 18  1  0
M  CHG  3   6  -1   9  -1  11  -1
M  END
>  <UniqueID>  (2369) 
72

>  <SMILES>  (2369) 
C=c1c(=Cc2[n-]c(=O)[n-]c2[O-])cc(C(=O)NCc2ccncc2)n1Cc1ccccc1F

>  <Energy>  (2369) 
118.02851297941712

>  <Genealogy>  (2369) 
C=c1c(=Cc2[n-]c(=O)[n-]c2[O-])cc(C(=O)NCc2ccncc2)n1Cc1ccccc1F (protonated)
C=c1c(=Cc2[n-]c(=O)[n-]c2[O-])cc(C(=O)NCc2ccncc2)n1Cc1ccccc1F (3D coordinates assigned)
C=c1c(=Cc2[n-]c(=O)[n-]c2[O-])cc(C(=O)NCc2ccncc2)n1Cc1ccccc1F (optimized conformer: 118.02851297941712 kcal/mol)

>  <smiles>  (2369) 
C=c1c(=Cc2[nH]c(=O)[nH]c2O)cc(C(=O)NCc2ccncc2)n1Cc1ccccc1F

>  <score_type>  (2369) 
oracle

>  <origin>  (2369) 
adg

>  <m_score__min__energy>  (2369) 
-17.199999999999999

>  <m_primary>  (2369) 
energy

$$$$
0:0
     RDKit          3D

 38 42  0  0  0  0  0  0  0  0999 V2000
   56.8260   29.0220   43.6310 C   0  0  0  0  0  0  0  0  0  0  0  0
   57.7990   28.8680   44.5440 C   0  0  0  0  0  0  0  0  0  0  0  0
   58.2150   27.6480   45.0960 C   0  0  0  0  0  0  0  0  0  0  0  0
   57.7840   26.4080   44.7890 C   0  0  0  0  0  0  0  0  0  0  0  0
   57.1050   25.5240   45.7550 C   0  0  0  0  0  0  0  0  0  0  0  0
   57.6640   24.3970   46.2450 N   0  0  0  0  0  0  0  0  0  0  0  0
   56.7280   23.9260   47.0930 C   0  0  0  0  0  0  0  0  0  0  0  0
   56.8980   22.8760   47.7730 O   0  0  0  0  0  0  0  0  0  0  0  0
   55.6010   24.6670   47.1600 N   0  0  0  0  0  0  0  0  0  0  0  0
   55.8500   25.6680   46.3000 C   0  0  0  0  0  0  0  0  0  0  0  0
   54.9360   26.6740   45.9980 O   0  0  0  0  0  0  0  0  0  0  0  0
   59.2540   27.9500   45.9560 C   0  0  0  0  0  0  0  0  0  0  0  0
   59.4430   29.3100   45.8960 C   0  0  0  0  0  0  0  0  0  0  0  0
   60.5730   29.9830   46.5570 C   0  0  0  0  0  0  0  0  0  0  0  0
   61.1330   30.9650   46.0000 O   0  0  0  0  0  0  0  0  0  0  0  0
   60.9550   29.6000   47.8910 N   0  0  0  0  0  0  0  0  0  0  0  0
   61.1470   30.6420   48.9090 C   0  0  0  0  0  0  0  0  0  0  0  0
   61.1860   30.0410   50.3210 C   0  0  0  0  0  0  0  0  0  0  0  0
   60.1610   28.9970   50.4470 N   0  0  0  0  0  0  0  0  0  0  0  0
   59.4190   28.8570   51.6630 C   0  0  0  0  0  0  0  0  0  0  0  0
   59.7000   27.9010   52.4380 O   0  0  0  0  0  0  0  0  0  0  0  0
   58.2990   29.7240   51.9460 N   0  0  0  0  0  0  0  0  0  0  0  0
   57.5150   29.5270   53.1800 C   0  0  0  0  0  0  0  0  0  0  0  0
   56.0360   29.9670   53.0380 C   0  0  0  0  0  0  0  0  0  0  0  0
   55.7090   30.4750   51.7580 O   0  0  0  0  0  0  0  0  0  0  0  0
   56.6410   31.4620   51.3850 C   0  0  0  0  0  0  0  0  0  0  0  0
   57.9450   30.7840   50.9890 C   0  0  0  0  0  0  0  0  0  0  0  0
   60.0600   27.9300   49.4470 C   0  0  0  0  0  0  0  0  0  0  0  0
   61.0050   28.1830   48.2720 C   0  0  0  0  0  0  0  0  0  0  0  0
   58.5600   29.8840   45.0410 N   0  0  0  0  0  0  0  0  0  0  0  0
   58.5420   31.3070   44.6600 C   0  0  0  0  0  0  0  0  0  0  0  0
   58.6900   32.1970   45.8710 C   0  0  0  0  0  0  0  0  0  0  0  0
   58.2540   31.7610   47.1340 C   0  0  0  0  0  0  0  0  0  0  0  0
   58.3650   32.5990   48.2470 C   0  0  0  0  0  0  0  0  0  0  0  0
   58.9100   33.8770   48.1100 C   0  0  0  0  0  0  0  0  0  0  0  0
   59.3570   34.3240   46.8580 C   0  0  0  0  0  0  0  0  0  0  0  0
   59.9070   35.7130   46.7020 C   0  0  0  0  0  0  0  0  0  0  0  0
   59.2300   33.4870   45.7390 C   0  0  0  0  0  0  0  0  0  0  0  0
  1  2  2  0
  2  3  1  0
  3  4  2  0
  4  5  1  0
  5  6  1  0
  6  7  1  0
  7  8  2  0
  7  9  1  0
  9 10  1  0
 10 11  1  0
  3 12  1  0
 12 13  2  0
 13 14  1  0
 14 15  2  0
 14 16  1  0
 16 17  1  0
 17 18  1  0
 18 19  1  0
 19 20  1  0
 20 21  2  0
 20 22  1  0
 22 23  1  0
 23 24  1  0
 24 25  1  0
 25 26  1  0
 26 27  1  0
 19 28  1  0
 28 29  1  0
 13 30  1  0
 30 31  1  0
 31 32  1  0
 32 33  2  0
 33 34  1  0
 34 35  2  0
 35 36  1  0
 36 37  1  0
 36 38  2  0
 30  2  1  0
 38 32  1  0
 10  5  2  0
 29 16  1  0
 27 22  1  0
M  CHG  3   6  -1   9  -1  11  -1
M  END
>  <UniqueID>  (2370) 
1

>  <SMILES>  (2370) 
C=c1/c(=C/c2[n-]c(=O)[n-]c2[O-])cc(C(=O)N2CCN(C(=O)N3CCOCC3)CC2)n1Cc1cccc(C)c1

>  <Energy>  (2370) 
152.01436981288873

>  <Genealogy>  (2370) 
C=c1c(=Cc2[n-]c(=O)[n-]c2[O-])cc(C(=O)N2CCN(C(=O)N3CCOCC3)CC2)n1Cc1cccc(C)c1 (protonated)
C=c1/c(=C/c2[n-]c(=O)[n-]c2[O-])cc(C(=O)N2CCN(C(=O)N3CCOCC3)CC2)n1Cc1cccc(C)c1 (cis-trans isomerization)
C=c1/c(=C/c2[n-]c(=O)[n-]c2[O-])cc(C(=O)N2CCN(C(=O)N3CCOCC3)CC2)n1Cc1cccc(C)c1 (3D coordinates assigned)
C=c1/c(=C/c2[n-]c(=O)[n-]c2[O-])cc(C(=O)N2CCN(C(=O)N3CCOCC3)CC2)n1Cc1cccc(C)c1 (nonaromatic ring conformer: 152.01436981288873 kcal/mol)

>  <smiles>  (2370) 
C=c1c(=Cc2[nH]c(=O)[nH]c2O)cc(C(=O)N2CCN(C(=O)N3CCOCC3)CC2)n1Cc1cccc(C)c1

>  <score_type>  (2370) 
oracle

>  <origin>  (2370) 
adg

>  <m_score__min__energy>  (2370) 
-17.16

>  <m_primary>  (2370) 
energy

$$$$
3:0
     RDKit          3D

 29 32  0  0  0  0  0  0  0  0999 V2000
   55.3710   31.5840   52.0630 C   0  0  0  0  0  0  0  0  0  0  0  0
   54.9340   30.4100   52.5470 C   0  0  0  0  0  0  0  0  0  0  0  0
   53.6010   30.0580   52.7840 C   0  0  0  0  0  0  0  0  0  0  0  0
   52.5060   30.8190   52.5840 C   0  0  0  0  0  0  0  0  0  0  0  0
   51.9310   31.1050   51.2580 C   0  0  0  0  0  0  0  0  0  0  0  0
   51.8770   30.1980   50.2660 N   0  0  0  0  0  0  0  0  0  0  0  0
   51.2090   30.8440   49.2860 C   0  0  0  0  0  0  0  0  0  0  0  0
   50.9660   30.3160   48.1700 O   0  0  0  0  0  0  0  0  0  0  0  0
   50.8120   32.0950   49.6010 N   0  0  0  0  0  0  0  0  0  0  0  0
   51.2650   32.2420   50.8560 C   0  0  0  0  0  0  0  0  0  0  0  0
   51.0310   33.3720   51.6290 O   0  0  0  0  0  0  0  0  0  0  0  0
   53.6270   28.7830   53.3330 C   0  0  0  0  0  0  0  0  0  0  0  0
   54.9520   28.4020   53.3890 C   0  0  0  0  0  0  0  0  0  0  0  0
   55.4310   27.0850   53.9210 C   0  0  0  0  0  0  0  0  0  0  0  0
   55.7480   29.3890   52.9170 N   0  0  0  0  0  0  0  0  0  0  0  0
   57.1810   29.3350   52.8050 C   0  0  0  0  0  0  0  0  0  0  0  0
   58.0790   29.2560   53.8560 C   0  0  0  0  0  0  0  0  0  0  0  0
   59.3150   29.1740   53.2430 C   0  0  0  0  0  0  0  0  0  0  0  0
   59.1390   29.2080   51.9050 N   0  0  0  0  0  0  0  0  0  0  0  0
   60.1820   29.0520   50.8970 C   0  0  0  0  0  0  0  0  0  0  0  0
   59.7280   29.6500   49.5940 C   0  0  0  0  0  0  0  0  0  0  0  0
   59.5920   28.8320   48.4590 C   0  0  0  0  0  0  0  0  0  0  0  0
   59.1290   29.3680   47.2540 C   0  0  0  0  0  0  0  0  0  0  0  0
   58.7900   30.7210   47.1730 C   0  0  0  0  0  0  0  0  0  0  0  0
   58.3390   31.2390   46.0040 F   0  0  0  0  0  0  0  0  0  0  0  0
   58.9080   31.5390   48.3010 C   0  0  0  0  0  0  0  0  0  0  0  0
   59.3700   31.0080   49.5100 C   0  0  0  0  0  0  0  0  0  0  0  0
   59.4650   31.8180   50.5940 F   0  0  0  0  0  0  0  0  0  0  0  0
   57.8460   29.2950   51.6360 N   0  0  0  0  0  0  0  0  0  0  0  0
  1  2  2  0
  2  3  1  0
  3  4  2  3
  4  5  1  0
  5  6  1  0
  6  7  1  0
  7  8  2  0
  7  9  1  0
  9 10  1  0
 10 11  1  0
  3 12  1  0
 12 13  2  0
 13 14  1  0
 13 15  1  0
 15 16  1  0
 16 17  1  0
 17 18  2  0
 18 19  1  0
 19 20  1  0
 20 21  1  0
 21 22  2  0
 22 23  1  0
 23 24  2  0
 24 25  1  0
 24 26  1  0
 26 27  2  0
 27 28  1  0
 19 29  1  0
 15  2  1  0
 29 16  2  0
 10  5  2  0
 27 21  1  0
M  CHG  4   6  -1   9  -1  11  -1  29   1
M  END
>  <UniqueID>  (2371) 
3

>  <SMILES>  (2371) 
C=c1c(=Cc2[n-]c(=O)[n-]c2[O-])cc(C)n1-c1ccn(Cc2ccc(F)cc2F)[nH+]1

>  <Energy>  (2371) 
147.65168014634997

>  <Genealogy>  (2371) 
C=c1c(=Cc2[n-]c(=O)[n-]c2[O-])cc(C)n1-c1ccn(Cc2ccc(F)cc2F)[nH+]1 (protonated)
C=c1c(=Cc2[n-]c(=O)[n-]c2[O-])cc(C)n1-c1ccn(Cc2ccc(F)cc2F)[nH+]1 (3D coordinates assigned)
C=c1c(=Cc2[n-]c(=O)[n-]c2[O-])cc(C)n1-c1ccn(Cc2ccc(F)cc2F)[nH+]1 (optimized conformer: 147.65168014634997 kcal/mol)

>  <smiles>  (2371) 
C=c1c(=Cc2[nH]c(=O)[nH]c2O)cc(C)n1-c1ccn(Cc2ccc(F)cc2F)n1

>  <score_type>  (2371) 
oracle

>  <origin>  (2371) 
adg

>  <m_score__min__energy>  (2371) 
-15.08

>  <m_primary>  (2371) 
energy

$$$$
6:0
     RDKit          3D

 25 27  0  0  0  0  0  0  0  0999 V2000
   58.5470   28.3240   53.5650 C   0  0  0  0  0  0  0  0  0  0  0  0
   57.3620   28.4730   54.1640 C   0  0  0  0  0  0  0  0  0  0  0  0
   56.8150   29.8310   54.5020 C   0  0  0  0  0  0  0  0  0  0  0  0
   55.7560   30.2150   53.5500 N   0  0  0  0  0  0  0  0  0  0  0  0
   55.9570   30.6440   52.2790 C   0  0  0  0  0  0  0  0  0  0  0  0
   57.2700   30.8580   51.6280 C   0  0  0  0  0  0  0  0  0  0  0  0
   57.6320   30.1090   50.6810 O   0  0  0  0  0  0  0  0  0  0  0  0
   58.1670   31.8760   52.1060 N   0  0  0  0  0  0  0  0  0  0  0  0
   57.6870   33.2490   52.2910 C   0  0  0  0  0  0  0  0  0  0  0  0
   58.5400   33.9500   53.3520 C   0  0  0  0  0  0  0  0  0  0  0  0
   59.9160   33.8530   53.0320 O   0  0  0  0  0  0  0  0  0  0  0  0
   60.3260   32.5000   53.0790 C   0  0  0  0  0  0  0  0  0  0  0  0
   59.6140   31.6750   52.0010 C   0  0  0  0  0  0  0  0  0  0  0  0
   54.7520   30.8290   51.6330 C   0  0  0  0  0  0  0  0  0  0  0  0
   53.7530   30.4870   52.5310 C   0  0  0  0  0  0  0  0  0  0  0  0
   52.4200   30.4950   52.3040 C   0  0  0  0  0  0  0  0  0  0  0  0
   51.7630   30.8450   51.0240 C   0  0  0  0  0  0  0  0  0  0  0  0
   51.7080   30.0710   49.9260 N   0  0  0  0  0  0  0  0  0  0  0  0
   51.0510   30.8380   49.0290 C   0  0  0  0  0  0  0  0  0  0  0  0
   50.7980   30.4480   47.8590 O   0  0  0  0  0  0  0  0  0  0  0  0
   50.6930   32.0570   49.4830 N   0  0  0  0  0  0  0  0  0  0  0  0
   51.1540   32.0460   50.7450 C   0  0  0  0  0  0  0  0  0  0  0  0
   51.0200   33.1140   51.6230 O   0  0  0  0  0  0  0  0  0  0  0  0
   54.4080   30.0950   53.7080 C   0  0  0  0  0  0  0  0  0  0  0  0
   53.8070   29.6460   54.8250 C   0  0  0  0  0  0  0  0  0  0  0  0
  1  2  2  0
  2  3  1  0
  3  4  1  0
  4  5  1  0
  5  6  1  0
  6  7  2  0
  6  8  1  0
  8  9  1  0
  9 10  1  0
 10 11  1  0
 11 12  1  0
 12 13  1  0
  5 14  2  0
 14 15  1  0
 15 16  2  3
 16 17  1  0
 17 18  1  0
 18 19  1  0
 19 20  2  0
 19 21  1  0
 21 22  1  0
 22 23  1  0
 15 24  1  0
 24 25  2  0
 24  4  1  0
 13  8  1  0
 22 17  2  0
M  CHG  3  18  -1  21  -1  23  -1
M  END
>  <UniqueID>  (2372) 
6

>  <SMILES>  (2372) 
C=CCn1c(C(=O)N2CCOCC2)cc(=Cc2[n-]c(=O)[n-]c2[O-])c1=C

>  <Energy>  (2372) 
109.63976868271573

>  <Genealogy>  (2372) 
C=CCn1c(C(=O)N2CCOCC2)cc(=Cc2[n-]c(=O)[n-]c2[O-])c1=C (protonated)
C=CCn1c(C(=O)N2CCOCC2)cc(=Cc2[n-]c(=O)[n-]c2[O-])c1=C (3D coordinates assigned)
C=CCn1c(C(=O)N2CCOCC2)cc(=Cc2[n-]c(=O)[n-]c2[O-])c1=C (nonaromatic ring conformer: 109.63976868271573 kcal/mol)

>  <smiles>  (2372) 
C=CCn1c(C(=O)N2CCOCC2)cc(=Cc2[nH]c(=O)[nH]c2O)c1=C

>  <score_type>  (2372) 
oracle

>  <origin>  (2372) 
adg

>  <m_score__min__energy>  (2372) 
-15.91

>  <m_primary>  (2372) 
energy

$$$$
13:0
     RDKit          3D

 33 36  0  0  0  0  0  0  0  0999 V2000
   59.5530   29.5950   44.5250 C   0  0  0  0  0  0  0  0  0  0  0  0
   59.4400   29.2240   45.8090 C   0  0  0  0  0  0  0  0  0  0  0  0
   58.6730   28.1570   46.3050 C   0  0  0  0  0  0  0  0  0  0  0  0
   57.7760   27.3480   45.7060 C   0  0  0  0  0  0  0  0  0  0  0  0
   57.1780   26.1390   46.2920 C   0  0  0  0  0  0  0  0  0  0  0  0
   57.8710   25.0500   46.6750 N   0  0  0  0  0  0  0  0  0  0  0  0
   56.9050   24.1640   47.0000 C   0  0  0  0  0  0  0  0  0  0  0  0
   57.1610   23.0090   47.4290 O   0  0  0  0  0  0  0  0  0  0  0  0
   55.6430   24.6090   46.8190 N   0  0  0  0  0  0  0  0  0  0  0  0
   55.8360   25.8550   46.3550 C   0  0  0  0  0  0  0  0  0  0  0  0
   54.8060   26.7130   45.9920 O   0  0  0  0  0  0  0  0  0  0  0  0
   58.9530   28.0740   47.6550 C   0  0  0  0  0  0  0  0  0  0  0  0
   59.8010   29.1180   47.9540 C   0  0  0  0  0  0  0  0  0  0  0  0
   60.2210   29.4470   49.3300 C   0  0  0  0  0  0  0  0  0  0  0  0
   60.9000   28.6020   49.9710 O   0  0  0  0  0  0  0  0  0  0  0  0
   59.8210   30.6760   49.9680 N   0  0  0  0  0  0  0  0  0  0  0  0
   60.7140   31.3400   50.9230 C   0  0  0  0  0  0  0  0  0  0  0  0
   59.8880   31.9730   52.0470 C   0  0  0  0  0  0  0  0  0  0  0  0
   58.8650   32.7960   51.5180 O   0  0  0  0  0  0  0  0  0  0  0  0
   57.9390   32.0050   50.7970 C   0  0  0  0  0  0  0  0  0  0  0  0
   58.6010   31.3820   49.5650 C   0  0  0  0  0  0  0  0  0  0  0  0
   60.1450   29.7950   46.8280 N   0  0  0  0  0  0  0  0  0  0  0  0
   61.1120   30.9090   46.7520 C   0  0  0  0  0  0  0  0  0  0  0  0
   60.4690   32.2830   46.9140 C   0  0  0  0  0  0  0  0  0  0  0  0
   59.1440   32.4350   46.4580 C   0  0  0  0  0  0  0  0  0  0  0  0
   58.4900   33.6620   46.5370 C   0  0  0  0  0  0  0  0  0  0  0  0
   59.1390   34.7620   47.0850 C   0  0  0  0  0  0  0  0  0  0  0  0
   60.4350   34.6320   47.5840 C   0  0  0  0  0  0  0  0  0  0  0  0
   61.1090   33.3930   47.5450 C   0  0  0  0  0  0  0  0  0  0  0  0
   62.4970   33.3080   48.1520 C   0  0  0  0  0  0  0  0  0  0  0  0
   62.7120   34.3580   49.0220 F   0  0  0  0  0  0  0  0  0  0  0  0
   62.6400   32.1070   48.8190 F   0  0  0  0  0  0  0  0  0  0  0  0
   63.4810   33.3760   47.1800 F   0  0  0  0  0  0  0  0  0  0  0  0
  1  2  2  0
  2  3  1  0
  3  4  2  3
  4  5  1  0
  5  6  1  0
  6  7  1  0
  7  8  2  0
  7  9  1  0
  9 10  1  0
 10 11  1  0
  3 12  1  0
 12 13  2  0
 13 14  1  0
 14 15  2  0
 14 16  1  0
 16 17  1  0
 17 18  1  0
 18 19  1  0
 19 20  1  0
 20 21  1  0
 13 22  1  0
 22 23  1  0
 23 24  1  0
 24 25  2  0
 25 26  1  0
 26 27  2  0
 27 28  1  0
 28 29  2  0
 29 30  1  0
 30 31  1  0
 30 32  1  0
 30 33  1  0
 22  2  1  0
 29 24  1  0
 10  5  2  0
 21 16  1  0
M  CHG  3   6  -1   9  -1  11  -1
M  END
>  <UniqueID>  (2373) 
11

>  <SMILES>  (2373) 
C=c1c(=Cc2[n-]c(=O)[n-]c2[O-])cc(C(=O)N2CCOCC2)n1Cc1ccccc1C(F)(F)F

>  <Energy>  (2373) 
137.38746927422218

>  <Genealogy>  (2373) 
C=c1c(=Cc2[n-]c(=O)[n-]c2[O-])cc(C(=O)N2CCOCC2)n1Cc1ccccc1C(F)(F)F (protonated)
C=c1c(=Cc2[n-]c(=O)[n-]c2[O-])cc(C(=O)N2CCOCC2)n1Cc1ccccc1C(F)(F)F (3D coordinates assigned)
C=c1c(=Cc2[n-]c(=O)[n-]c2[O-])cc(C(=O)N2CCOCC2)n1Cc1ccccc1C(F)(F)F (nonaromatic ring conformer: 137.38746927422218 kcal/mol)

>  <smiles>  (2373) 
C=c1c(=Cc2[nH]c(=O)[nH]c2O)cc(C(=O)N2CCOCC2)n1Cc1ccccc1C(F)(F)F

>  <score_type>  (2373) 
oracle

>  <origin>  (2373) 
adg

>  <m_score__min__energy>  (2373) 
-16.199999999999999

>  <m_primary>  (2373) 
energy

$$$$
29:0
     RDKit          3D

 27 29  0  0  0  0  0  0  0  0999 V2000
   63.4210   33.8510   46.3510 C   0  0  0  0  0  0  0  0  0  0  0  0
   62.1040   34.0130   46.4580 C   0  0  0  0  0  0  0  0  0  0  0  0
   61.3080   33.3930   47.5340 C   0  0  0  0  0  0  0  0  0  0  0  0
   61.6910   33.5370   48.7260 O   0  0  0  0  0  0  0  0  0  0  0  0
   60.1210   32.6290   47.2590 N   0  0  0  0  0  0  0  0  0  0  0  0
   59.0220   33.2240   46.4860 C   0  0  0  0  0  0  0  0  0  0  0  0
   58.3950   32.1730   45.5610 C   0  0  0  0  0  0  0  0  0  0  0  0
   58.2230   30.8810   46.2400 N   0  0  0  0  0  0  0  0  0  0  0  0
   57.5520   29.8130   45.5450 C   0  0  0  0  0  0  0  0  0  0  0  0
   56.5550   30.0790   44.8200 O   0  0  0  0  0  0  0  0  0  0  0  0
   58.0220   28.4120   45.6460 C   0  0  0  0  0  0  0  0  0  0  0  0
   59.2340   28.1090   46.2660 C   0  0  0  0  0  0  0  0  0  0  0  0
   59.6650   26.8270   46.3320 N   0  0  0  0  0  0  0  0  0  0  0  0
   58.9690   25.7780   45.8120 C   0  0  0  0  0  0  0  0  0  0  0  0
   59.5000   24.5590   45.9940 C   0  0  0  0  0  0  0  0  0  0  0  0
   57.7250   26.0250   45.1460 C   0  0  0  0  0  0  0  0  0  0  0  0
   57.0040   25.0360   44.5530 C   0  0  0  0  0  0  0  0  0  0  0  0
   55.6270   24.6490   44.9190 C   0  0  0  0  0  0  0  0  0  0  0  0
   55.1380   23.4070   44.7520 N   0  0  0  0  0  0  0  0  0  0  0  0
   53.9110   23.4750   45.3110 C   0  0  0  0  0  0  0  0  0  0  0  0
   53.1230   22.4940   45.3390 O   0  0  0  0  0  0  0  0  0  0  0  0
   53.5980   24.6740   45.8490 N   0  0  0  0  0  0  0  0  0  0  0  0
   54.6990   25.4010   45.6050 C   0  0  0  0  0  0  0  0  0  0  0  0
   54.8650   26.7130   46.0340 O   0  0  0  0  0  0  0  0  0  0  0  0
   57.2850   27.3680   45.0730 C   0  0  0  0  0  0  0  0  0  0  0  0
   58.5410   30.7540   47.6690 C   0  0  0  0  0  0  0  0  0  0  0  0
   59.9230   31.3520   47.9590 C   0  0  0  0  0  0  0  0  0  0  0  0
  1  2  2  0
  2  3  1  0
  3  4  2  0
  3  5  1  0
  5  6  1  0
  6  7  1  0
  7  8  1  0
  8  9  1  0
  9 10  2  0
  9 11  1  0
 11 12  1  0
 12 13  2  0
 13 14  1  0
 14 15  2  0
 14 16  1  0
 16 17  2  0
 17 18  1  0
 18 19  1  0
 19 20  1  0
 20 21  2  0
 20 22  1  0
 22 23  1  0
 23 24  1  0
 16 25  1  0
  8 26  1  0
 26 27  1  0
 27  5  1  0
 25 11  2  0
 23 18  2  0
M  CHG  3  19  -1  22  -1  24  -1
M  END
>  <UniqueID>  (2374) 
25

>  <SMILES>  (2374) 
C=CC(=O)N1CCN(C(=O)c2cnc(=C)/c(=C/c3[n-]c(=O)[n-]c3[O-])c2)CC1

>  <Energy>  (2374) 
97.40039940112356

>  <Genealogy>  (2374) 
C=CC(=O)N1CCN(C(=O)c2cnc(=C)c(=Cc3[n-]c(=O)[n-]c3[O-])c2)CC1 (protonated)
C=CC(=O)N1CCN(C(=O)c2cnc(=C)/c(=C/c3[n-]c(=O)[n-]c3[O-])c2)CC1 (cis-trans isomerization)
C=CC(=O)N1CCN(C(=O)c2cnc(=C)/c(=C/c3[n-]c(=O)[n-]c3[O-])c2)CC1 (3D coordinates assigned)
C=CC(=O)N1CCN(C(=O)c2cnc(=C)/c(=C/c3[n-]c(=O)[n-]c3[O-])c2)CC1 (nonaromatic ring conformer: 97.40039940112356 kcal/mol)

>  <smiles>  (2374) 
C=CC(=O)N1CCN(C(=O)c2cnc(=C)c(=Cc3[nH]c(=O)[nH]c3O)c2)CC1

>  <score_type>  (2374) 
oracle

>  <origin>  (2374) 
adg

>  <m_score__min__energy>  (2374) 
-17.530000000000001

>  <m_primary>  (2374) 
energy

$$$$
39:0
     RDKit          3D

 33 36  0  0  0  0  0  0  0  0999 V2000
   57.5400   24.3660   47.6000 C   0  0  0  0  0  0  0  0  0  0  0  0
   57.8060   25.2310   46.6070 C   0  0  0  0  0  0  0  0  0  0  0  0
   57.4430   25.1030   45.2550 C   0  0  0  0  0  0  0  0  0  0  0  0
   56.6100   24.2420   44.6360 C   0  0  0  0  0  0  0  0  0  0  0  0
   55.1720   24.0920   44.9150 C   0  0  0  0  0  0  0  0  0  0  0  0
   54.4760   22.9510   44.7410 N   0  0  0  0  0  0  0  0  0  0  0  0
   53.2600   23.2470   45.2470 C   0  0  0  0  0  0  0  0  0  0  0  0
   52.3090   22.4210   45.2540 O   0  0  0  0  0  0  0  0  0  0  0  0
   53.1460   24.4930   45.7570 N   0  0  0  0  0  0  0  0  0  0  0  0
   54.3680   25.0110   45.5520 C   0  0  0  0  0  0  0  0  0  0  0  0
   54.7320   26.2990   45.9400 O   0  0  0  0  0  0  0  0  0  0  0  0
   58.1170   26.1060   44.5790 C   0  0  0  0  0  0  0  0  0  0  0  0
   58.7880   26.8500   45.5280 C   0  0  0  0  0  0  0  0  0  0  0  0
   59.5860   28.0510   45.2160 C   0  0  0  0  0  0  0  0  0  0  0  0
   60.2730   28.0520   44.1570 O   0  0  0  0  0  0  0  0  0  0  0  0
   59.5880   29.2120   46.0760 N   0  0  0  0  0  0  0  0  0  0  0  0
   60.7090   30.1640   45.9790 C   0  0  0  0  0  0  0  0  0  0  0  0
   60.4610   31.4390   46.7950 C   0  0  0  0  0  0  0  0  0  0  0  0
   59.9260   31.1100   48.1250 N   0  0  0  0  0  0  0  0  0  0  0  0
   60.3390   31.8440   49.2930 C   0  0  0  0  0  0  0  0  0  0  0  0
   60.4140   31.2510   50.4050 O   0  0  0  0  0  0  0  0  0  0  0  0
   60.6160   33.3250   49.2410 C   0  0  0  0  0  0  0  0  0  0  0  0
   59.3290   34.1310   49.0160 C   0  0  0  0  0  0  0  0  0  0  0  0
   58.9200   34.1290   47.5620 C   0  0  0  0  0  0  0  0  0  0  0  0
   59.6360   34.8880   46.6210 C   0  0  0  0  0  0  0  0  0  0  0  0
   59.2310   34.9170   45.2820 C   0  0  0  0  0  0  0  0  0  0  0  0
   58.1110   34.1860   44.8750 C   0  0  0  0  0  0  0  0  0  0  0  0
   57.3890   33.4350   45.8050 C   0  0  0  0  0  0  0  0  0  0  0  0
   57.7900   33.4070   47.1450 C   0  0  0  0  0  0  0  0  0  0  0  0
   58.8990   30.0690   48.2770 C   0  0  0  0  0  0  0  0  0  0  0  0
   58.4280   29.5420   46.9180 C   0  0  0  0  0  0  0  0  0  0  0  0
   58.6110   26.3140   46.7600 N   0  0  0  0  0  0  0  0  0  0  0  0
   59.2850   26.7300   47.9960 C   0  0  0  0  0  0  0  0  0  0  0  0
  1  2  2  0
  2  3  1  0
  3  4  2  3
  4  5  1  0
  5  6  1  0
  6  7  1  0
  7  8  2  0
  7  9  1  0
  9 10  1  0
 10 11  1  0
  3 12  1  0
 12 13  2  0
 13 14  1  0
 14 15  2  0
 14 16  1  0
 16 17  1  0
 17 18  1  0
 18 19  1  0
 19 20  1  0
 20 21  2  0
 20 22  1  0
 22 23  1  0
 23 24  1  0
 24 25  2  0
 25 26  1  0
 26 27  2  0
 27 28  1  0
 28 29  2  0
 19 30  1  0
 30 31  1  0
 13 32  1  0
 32 33  1  0
 32  2  1  0
 10  5  2  0
 31 16  1  0
 29 24  1  0
M  CHG  2   6  -1   9  -1
M  END
>  <UniqueID>  (2375) 
35

>  <SMILES>  (2375) 
C=c1c(=Cc2[n-]c(=O)[n-]c2O)cc(C(=O)N2CCN(C(=O)CCc3ccccc3)CC2)n1C

>  <Energy>  (2375) 
132.64043241666866

>  <Genealogy>  (2375) 
C=c1c(=Cc2[n-]c(=O)[n-]c2O)cc(C(=O)N2CCN(C(=O)CCc3ccccc3)CC2)n1C (protonated)
C=c1c(=Cc2[n-]c(=O)[n-]c2O)cc(C(=O)N2CCN(C(=O)CCc3ccccc3)CC2)n1C (3D coordinates assigned)
C=c1c(=Cc2[n-]c(=O)[n-]c2O)cc(C(=O)N2CCN(C(=O)CCc3ccccc3)CC2)n1C (nonaromatic ring conformer: 132.64043241666866 kcal/mol)

>  <smiles>  (2375) 
C=c1c(=Cc2[nH]c(=O)[nH]c2O)cc(C(=O)N2CCN(C(=O)CCc3ccccc3)CC2)n1C

>  <score_type>  (2375) 
oracle

>  <origin>  (2375) 
adg

>  <m_score__min__energy>  (2375) 
-14.48

>  <m_primary>  (2375) 
energy

$$$$
54:0
     RDKit          3D

 34 37  0  0  0  0  0  0  0  0999 V2000
   60.1350   28.0250   46.7520 C   0  0  0  0  0  0  0  0  0  0  0  0
   59.2590   28.8390   46.1390 C   0  0  0  0  0  0  0  0  0  0  0  0
   58.0860   28.4490   45.4720 C   0  0  0  0  0  0  0  0  0  0  0  0
   57.6480   27.2340   45.0860 C   0  0  0  0  0  0  0  0  0  0  0  0
   57.1780   26.1660   45.9820 C   0  0  0  0  0  0  0  0  0  0  0  0
   57.9460   25.1620   46.4480 N   0  0  0  0  0  0  0  0  0  0  0  0
   57.0650   24.3760   47.1030 C   0  0  0  0  0  0  0  0  0  0  0  0
   57.4100   23.3230   47.6990 O   0  0  0  0  0  0  0  0  0  0  0  0
   55.7840   24.8000   47.0580 N   0  0  0  0  0  0  0  0  0  0  0  0
   55.8730   25.9250   46.3330 C   0  0  0  0  0  0  0  0  0  0  0  0
   54.7820   26.7140   45.9920 O   0  0  0  0  0  0  0  0  0  0  0  0
   57.3870   29.6110   45.2040 C   0  0  0  0  0  0  0  0  0  0  0  0
   58.1690   30.6590   45.6400 C   0  0  0  0  0  0  0  0  0  0  0  0
   57.8140   32.1050   45.4660 C   0  0  0  0  0  0  0  0  0  0  0  0
   59.3110   30.1990   46.2060 N   0  0  0  0  0  0  0  0  0  0  0  0
   60.3920   31.0460   46.7400 C   0  0  0  0  0  0  0  0  0  0  0  0
   60.0210   31.5810   48.0980 C   0  0  0  0  0  0  0  0  0  0  0  0
   59.9040   32.9650   48.3110 C   0  0  0  0  0  0  0  0  0  0  0  0
   59.5680   33.4600   49.5750 C   0  0  0  0  0  0  0  0  0  0  0  0
   59.3500   32.5790   50.6420 C   0  0  0  0  0  0  0  0  0  0  0  0
   58.8950   33.2110   52.2220 S   0  0  0  0  0  0  0  0  0  0  0  0
   59.9860   32.9260   53.2170 O   0  0  0  0  0  0  0  0  0  0  0  0
   58.7210   34.7010   52.1170 O   0  0  0  0  0  0  0  0  0  0  0  0
   57.3970   32.4790   52.7450 N   0  0  0  0  0  0  0  0  0  0  0  0
   56.6440   31.9660   51.5790 C   0  0  0  0  0  0  0  0  0  0  0  0
   55.6920   30.8390   51.9850 C   0  0  0  0  0  0  0  0  0  0  0  0
   56.4690   29.6870   52.4810 N   0  0  0  0  0  0  0  0  0  0  0  0
   55.6530   28.5710   53.0090 C   0  0  0  0  0  0  0  0  0  0  0  0
   54.4160   28.9950   53.8220 C   0  0  0  0  0  0  0  0  0  0  0  0
   54.6930   30.1130   54.6160 O   0  0  0  0  0  0  0  0  0  0  0  0
   57.6740   30.0300   53.2730 C   0  0  0  0  0  0  0  0  0  0  0  0
   57.6340   31.4730   53.8100 C   0  0  0  0  0  0  0  0  0  0  0  0
   59.4590   31.1980   50.4320 C   0  0  0  0  0  0  0  0  0  0  0  0
   59.7930   30.7020   49.1690 C   0  0  0  0  0  0  0  0  0  0  0  0
  1  2  2  0
  2  3  1  0
  3  4  2  3
  4  5  1  0
  5  6  1  0
  6  7  1  0
  7  8  2  0
  7  9  1  0
  9 10  1  0
 10 11  1  0
  3 12  1  0
 12 13  2  0
 13 14  1  0
 13 15  1  0
 15 16  1  0
 16 17  1  0
 17 18  2  0
 18 19  1  0
 19 20  2  0
 20 21  1  0
 21 22  2  0
 21 23  2  0
 21 24  1  0
 24 25  1  0
 25 26  1  0
 26 27  1  0
 27 28  1  0
 28 29  1  0
 29 30  1  0
 27 31  1  0
 31 32  1  0
 20 33  1  0
 33 34  2  0
 15  2  1  0
 34 17  1  0
 10  5  2  0
 32 24  1  0
M  CHG  3   6  -1   9  -1  11  -1
M  END
>  <UniqueID>  (2376) 
47

>  <SMILES>  (2376) 
C=c1c(=Cc2[n-]c(=O)[n-]c2[O-])cc(C)n1Cc1ccc(S(=O)(=O)N2CCN(CCO)CC2)cc1

>  <Energy>  (2376) 
144.83875866189695

>  <Genealogy>  (2376) 
C=c1c(=Cc2[n-]c(=O)[n-]c2[O-])cc(C)n1Cc1ccc(S(=O)(=O)N2CCN(CCO)CC2)cc1 (protonated)
C=c1c(=Cc2[n-]c(=O)[n-]c2[O-])cc(C)n1Cc1ccc(S(=O)(=O)N2CCN(CCO)CC2)cc1 (3D coordinates assigned)
C=c1c(=Cc2[n-]c(=O)[n-]c2[O-])cc(C)n1Cc1ccc(S(=O)(=O)N2CCN(CCO)CC2)cc1 (nonaromatic ring conformer: 144.83875866189695 kcal/mol)

>  <smiles>  (2376) 
C=c1c(=Cc2[nH]c(=O)[nH]c2O)cc(C)n1Cc1ccc(S(=O)(=O)N2CCN(CCO)CC2)cc1

>  <score_type>  (2376) 
oracle

>  <origin>  (2376) 
adg

>  <m_score__min__energy>  (2376) 
-18.120000000000001

>  <m_primary>  (2376) 
energy

$$$$
86:0
     RDKit          3D

 32 35  0  0  0  0  0  0  0  0999 V2000
   53.0860   28.4280   54.1420 C   0  0  0  0  0  0  0  0  0  0  0  0
   54.0200   29.1260   53.4740 C   0  0  0  0  0  0  0  0  0  0  0  0
   53.8130   30.3330   52.7970 C   0  0  0  0  0  0  0  0  0  0  0  0
   52.6440   30.9790   52.6140 C   0  0  0  0  0  0  0  0  0  0  0  0
   52.0250   31.2060   51.2960 C   0  0  0  0  0  0  0  0  0  0  0  0
   51.9910   30.2740   50.3270 N   0  0  0  0  0  0  0  0  0  0  0  0
   51.2700   30.8640   49.3490 C   0  0  0  0  0  0  0  0  0  0  0  0
   51.0280   30.2980   48.2510 O   0  0  0  0  0  0  0  0  0  0  0  0
   50.8200   32.1010   49.6440 N   0  0  0  0  0  0  0  0  0  0  0  0
   51.2950   32.3000   50.8840 C   0  0  0  0  0  0  0  0  0  0  0  0
   51.0250   33.4350   51.6380 O   0  0  0  0  0  0  0  0  0  0  0  0
   55.0490   30.7180   52.3030 C   0  0  0  0  0  0  0  0  0  0  0  0
   55.9500   29.7470   52.6850 C   0  0  0  0  0  0  0  0  0  0  0  0
   57.3870   29.8030   52.3570 C   0  0  0  0  0  0  0  0  0  0  0  0
   58.2210   29.6410   53.2900 O   0  0  0  0  0  0  0  0  0  0  0  0
   57.8330   30.2190   51.0430 N   0  0  0  0  0  0  0  0  0  0  0  0
   58.1680   31.6580   51.0720 C   0  0  0  0  0  0  0  0  0  0  0  0
   58.4030   32.1740   49.6430 C   0  0  0  0  0  0  0  0  0  0  0  0
   59.0580   31.1460   48.8220 N   0  0  0  0  0  0  0  0  0  0  0  0
   58.7930   31.0620   47.4080 C   0  0  0  0  0  0  0  0  0  0  0  0
   58.6690   29.9300   46.8650 O   0  0  0  0  0  0  0  0  0  0  0  0
   58.6410   32.2770   46.5760 C   0  0  0  0  0  0  0  0  0  0  0  0
   57.6260   32.3610   45.6070 C   0  0  0  0  0  0  0  0  0  0  0  0
   57.4840   33.5160   44.8310 C   0  0  0  0  0  0  0  0  0  0  0  0
   58.3460   34.5980   45.0230 C   0  0  0  0  0  0  0  0  0  0  0  0
   59.3470   34.5310   45.9960 C   0  0  0  0  0  0  0  0  0  0  0  0
   59.4920   33.3780   46.7740 C   0  0  0  0  0  0  0  0  0  0  0  0
   59.8320   30.0990   49.4960 C   0  0  0  0  0  0  0  0  0  0  0  0
   58.9810   29.3940   50.5750 C   0  0  0  0  0  0  0  0  0  0  0  0
   55.3310   28.7710   53.3940 N   0  0  0  0  0  0  0  0  0  0  0  0
   55.9910   27.6600   54.0970 C   0  0  0  0  0  0  0  0  0  0  0  0
   56.4150   28.0920   55.4960 C   0  0  0  0  0  0  0  0  0  0  0  0
  1  2  2  0
  2  3  1  0
  3  4  2  3
  4  5  1  0
  5  6  1  0
  6  7  1  0
  7  8  2  0
  7  9  1  0
  9 10  1  0
 10 11  1  0
  3 12  1  0
 12 13  2  0
 13 14  1  0
 14 15  2  0
 14 16  1  0
 16 17  1  0
 17 18  1  0
 18 19  1  0
 19 20  1  0
 20 21  2  0
 20 22  1  0
 22 23  2  0
 23 24  1  0
 24 25  2  0
 25 26  1  0
 26 27  2  0
 19 28  1  0
 28 29  1  0
 13 30  1  0
 30 31  1  0
 31 32  1  0
 30  2  1  0
 10  5  2  0
 29 16  1  0
 27 22  1  0
M  CHG  4   6  -1   9  -1  11  -1  16   1
M  END
>  <UniqueID>  (2377) 
77

>  <SMILES>  (2377) 
C=c1c(=Cc2[n-]c(=O)[n-]c2[O-])cc(C(=O)[NH+]2CCN(C(=O)c3ccccc3)CC2)n1CC

>  <Energy>  (2377) 
140.6425014090115

>  <Genealogy>  (2377) 
C=c1c(=Cc2[n-]c(=O)[n-]c2[O-])cc(C(=O)[NH+]2CCN(C(=O)c3ccccc3)CC2)n1CC (protonated)
C=c1c(=Cc2[n-]c(=O)[n-]c2[O-])cc(C(=O)[NH+]2CCN(C(=O)c3ccccc3)CC2)n1CC (3D coordinates assigned)
C=c1c(=Cc2[n-]c(=O)[n-]c2[O-])cc(C(=O)[NH+]2CCN(C(=O)c3ccccc3)CC2)n1CC (nonaromatic ring conformer: 140.6425014090115 kcal/mol)

>  <smiles>  (2377) 
C=c1c(=Cc2[nH]c(=O)[nH]c2O)cc(C(=O)N2CCN(C(=O)c3ccccc3)CC2)n1CC

>  <score_type>  (2377) 
oracle

>  <origin>  (2377) 
adg

>  <m_score__min__energy>  (2377) 
-17.239999999999998

>  <m_primary>  (2377) 
energy

$$$$
2:0
     RDKit          3D

 35 39  0  0  0  0  0  0  0  0999 V2000
   59.7050   29.3800   44.8970 C   0  0  0  0  0  0  0  0  0  0  0  0
   59.2330   29.1250   46.1280 C   0  0  0  0  0  0  0  0  0  0  0  0
   58.4920   28.0030   46.5080 C   0  0  0  0  0  0  0  0  0  0  0  0
   58.0570   27.0050   45.7150 C   0  0  0  0  0  0  0  0  0  0  0  0
   57.2970   25.8390   46.1980 C   0  0  0  0  0  0  0  0  0  0  0  0
   57.8760   24.7520   46.7350 N   0  0  0  0  0  0  0  0  0  0  0  0
   56.8240   24.0070   47.1430 C   0  0  0  0  0  0  0  0  0  0  0  0
   56.9640   22.8910   47.7020 O   0  0  0  0  0  0  0  0  0  0  0  0
   55.6130   24.5650   46.9250 N   0  0  0  0  0  0  0  0  0  0  0  0
   55.9290   25.7290   46.3370 C   0  0  0  0  0  0  0  0  0  0  0  0
   54.9870   26.6920   45.9880 O   0  0  0  0  0  0  0  0  0  0  0  0
   58.2620   28.1280   47.8710 C   0  0  0  0  0  0  0  0  0  0  0  0
   58.8650   29.3070   48.2630 C   0  0  0  0  0  0  0  0  0  0  0  0
   58.9450   29.7890   49.6520 C   0  0  0  0  0  0  0  0  0  0  0  0
   57.9120   29.7940   50.3700 O   0  0  0  0  0  0  0  0  0  0  0  0
   60.1610   30.3530   50.1570 N   0  0  0  0  0  0  0  0  0  0  0  0
   61.3630   29.5270   50.2970 C   0  0  0  0  0  0  0  0  0  0  0  0
   62.3890   30.2580   51.1680 C   0  0  0  0  0  0  0  0  0  0  0  0
   62.7290   31.5990   50.6190 N   0  0  0  0  0  0  0  0  0  0  0  0
   63.7550   31.5910   49.5250 C   0  0  0  0  0  0  0  0  0  0  0  0
   65.1360   32.1400   49.9590 C   0  0  0  0  0  0  0  0  0  0  0  0
   65.0210   33.6130   50.4160 C   0  0  0  0  0  0  0  0  0  0  0  0
   63.7790   34.2060   50.0580 O   0  0  0  0  0  0  0  0  0  0  0  0
   63.5120   34.0000   48.6810 C   0  0  0  0  0  0  0  0  0  0  0  0
   63.3080   32.5010   48.3520 C   0  0  0  0  0  0  0  0  0  0  0  0
   61.5160   32.3850   50.2250 C   0  0  0  0  0  0  0  0  0  0  0  0
   60.1780   31.7410   50.6140 C   0  0  0  0  0  0  0  0  0  0  0  0
   59.4510   29.9180   47.2060 N   0  0  0  0  0  0  0  0  0  0  0  0
   60.3010   31.1190   47.2660 C   0  0  0  0  0  0  0  0  0  0  0  0
   59.6000   32.3400   46.7170 C   0  0  0  0  0  0  0  0  0  0  0  0
   58.2790   32.2810   46.2270 C   0  0  0  0  0  0  0  0  0  0  0  0
   57.6830   33.4120   45.6610 C   0  0  0  0  0  0  0  0  0  0  0  0
   58.4020   34.6030   45.5580 C   0  0  0  0  0  0  0  0  0  0  0  0
   59.7210   34.6630   46.0100 C   0  0  0  0  0  0  0  0  0  0  0  0
   60.3200   33.5380   46.5850 C   0  0  0  0  0  0  0  0  0  0  0  0
  1  2  2  0
  2  3  1  0
  3  4  2  0
  4  5  1  0
  5  6  1  0
  6  7  1  0
  7  8  2  0
  7  9  1  0
  9 10  1  0
 10 11  1  0
  3 12  1  0
 12 13  2  0
 13 14  1  0
 14 15  2  0
 14 16  1  0
 16 17  1  0
 17 18  1  0
 18 19  1  0
 19 20  1  0
 20 21  1  0
 21 22  1  0
 22 23  1  0
 23 24  1  0
 24 25  1  0
 19 26  1  0
 26 27  1  0
 13 28  1  0
 28 29  1  0
 29 30  1  0
 30 31  2  0
 31 32  1  0
 32 33  2  0
 33 34  1  0
 34 35  2  0
 28  2  1  0
 35 30  1  0
 10  5  2  0
 27 16  1  0
 25 20  1  0
M  CHG  3   6  -1   9  -1  11  -1
M  END
>  <UniqueID>  (2378) 
3

>  <SMILES>  (2378) 
C=c1/c(=C/c2[n-]c(=O)[n-]c2[O-])cc(C(=O)N2CCN(C3CCOCC3)CC2)n1Cc1ccccc1

>  <Energy>  (2378) 
164.61950805739784

>  <Genealogy>  (2378) 
C=c1c(=Cc2[n-]c(=O)[n-]c2[O-])cc(C(=O)N2CCN(C3CCOCC3)CC2)n1Cc1ccccc1 (protonated)
C=c1/c(=C/c2[n-]c(=O)[n-]c2[O-])cc(C(=O)N2CCN(C3CCOCC3)CC2)n1Cc1ccccc1 (cis-trans isomerization)
C=c1/c(=C/c2[n-]c(=O)[n-]c2[O-])cc(C(=O)N2CCN(C3CCOCC3)CC2)n1Cc1ccccc1 (3D coordinates assigned)
C=c1/c(=C/c2[n-]c(=O)[n-]c2[O-])cc(C(=O)N2CCN(C3CCOCC3)CC2)n1Cc1ccccc1 (nonaromatic ring conformer: 164.61950805739784 kcal/mol)

>  <smiles>  (2378) 
C=c1c(=Cc2[nH]c(=O)[nH]c2O)cc(C(=O)N2CCN(C3CCOCC3)CC2)n1Cc1ccccc1

>  <score_type>  (2378) 
oracle

>  <origin>  (2378) 
adg

>  <m_score__min__energy>  (2378) 
-16.98

>  <m_primary>  (2378) 
energy

$$$$
5:0
     RDKit          3D

 34 37  0  0  0  0  0  0  0  0999 V2000
   52.9740   27.5310   53.3040 C   0  0  0  0  0  0  0  0  0  0  0  0
   53.6890   28.6670   53.3380 C   0  0  0  0  0  0  0  0  0  0  0  0
   53.1920   29.9790   53.2500 C   0  0  0  0  0  0  0  0  0  0  0  0
   51.9790   30.4450   52.8950 C   0  0  0  0  0  0  0  0  0  0  0  0
   51.5680   30.8150   51.5310 C   0  0  0  0  0  0  0  0  0  0  0  0
   51.7770   30.0640   50.4350 N   0  0  0  0  0  0  0  0  0  0  0  0
   51.3310   30.8490   49.4300 C   0  0  0  0  0  0  0  0  0  0  0  0
   51.3430   30.4810   48.2270 O   0  0  0  0  0  0  0  0  0  0  0  0
   50.8790   32.0620   49.8150 N   0  0  0  0  0  0  0  0  0  0  0  0
   51.0500   32.0280   51.1470 C   0  0  0  0  0  0  0  0  0  0  0  0
   50.7370   33.0830   51.9930 O   0  0  0  0  0  0  0  0  0  0  0  0
   54.2470   30.8130   53.5770 C   0  0  0  0  0  0  0  0  0  0  0  0
   55.3530   30.0070   53.7620 C   0  0  0  0  0  0  0  0  0  0  0  0
   56.7040   30.5230   54.0460 C   0  0  0  0  0  0  0  0  0  0  0  0
   57.1220   30.5030   55.2370 O   0  0  0  0  0  0  0  0  0  0  0  0
   57.5350   31.0660   53.0020 N   0  0  0  0  0  0  0  0  0  0  0  0
   58.9930   31.1010   53.1770 C   0  0  0  0  0  0  0  0  0  0  0  0
   59.6950   30.9180   51.8300 C   0  0  0  0  0  0  0  0  0  0  0  0
   59.1090   31.8210   50.8360 N   0  0  0  0  0  0  0  0  0  0  0  0
   59.9490   32.4100   49.8290 C   0  0  0  0  0  0  0  0  0  0  0  0
   60.8620   31.7210   49.2970 O   0  0  0  0  0  0  0  0  0  0  0  0
   59.8300   33.8680   49.4780 C   0  0  0  0  0  0  0  0  0  0  0  0
   60.1040   34.1130   47.9880 C   0  0  0  0  0  0  0  0  0  0  0  0
   59.1520   33.3410   47.1090 C   0  0  0  0  0  0  0  0  0  0  0  0
   59.4820   32.0480   46.6740 C   0  0  0  0  0  0  0  0  0  0  0  0
   58.6290   31.3530   45.8100 C   0  0  0  0  0  0  0  0  0  0  0  0
   57.4420   31.9450   45.3700 C   0  0  0  0  0  0  0  0  0  0  0  0
   56.6090   31.2480   44.4980 O   0  0  0  0  0  0  0  0  0  0  0  0
   57.1050   33.2350   45.8050 C   0  0  0  0  0  0  0  0  0  0  0  0
   57.9560   33.9290   46.6700 C   0  0  0  0  0  0  0  0  0  0  0  0
   57.6570   31.7620   50.6430 C   0  0  0  0  0  0  0  0  0  0  0  0
   56.9460   31.9480   51.9830 C   0  0  0  0  0  0  0  0  0  0  0  0
   55.0170   28.7020   53.6220 N   0  0  0  0  0  0  0  0  0  0  0  0
   55.8820   27.5430   53.8750 C   0  0  0  0  0  0  0  0  0  0  0  0
  1  2  2  0
  2  3  1  0
  3  4  2  3
  4  5  1  0
  5  6  1  0
  6  7  1  0
  7  8  2  0
  7  9  1  0
  9 10  1  0
 10 11  1  0
  3 12  1  0
 12 13  2  0
 13 14  1  0
 14 15  2  0
 14 16  1  0
 16 17  1  0
 17 18  1  0
 18 19  1  0
 19 20  1  0
 20 21  2  0
 20 22  1  0
 22 23  1  0
 23 24  1  0
 24 25  2  0
 25 26  1  0
 26 27  2  0
 27 28  1  0
 27 29  1  0
 29 30  2  0
 19 31  1  0
 31 32  1  0
 13 33  1  0
 33 34  1  0
 33  2  1  0
 10  5  2  0
 32 16  1  0
 30 24  1  0
M  CHG  3   6  -1   9  -1  11  -1
M  END
>  <UniqueID>  (2379) 
6

>  <SMILES>  (2379) 
C=c1c(=Cc2[n-]c(=O)[n-]c2[O-])cc(C(=O)N2CCN(C(=O)CCc3ccc(O)cc3)CC2)n1C

>  <Energy>  (2379) 
133.71880407031819

>  <Genealogy>  (2379) 
C=c1c(=Cc2[n-]c(=O)[n-]c2[O-])cc(C(=O)N2CCN(C(=O)CCc3ccc(O)cc3)CC2)n1C (protonated)
C=c1c(=Cc2[n-]c(=O)[n-]c2[O-])cc(C(=O)N2CCN(C(=O)CCc3ccc(O)cc3)CC2)n1C (3D coordinates assigned)
C=c1c(=Cc2[n-]c(=O)[n-]c2[O-])cc(C(=O)N2CCN(C(=O)CCc3ccc(O)cc3)CC2)n1C (nonaromatic ring conformer: 133.71880407031819 kcal/mol)

>  <smiles>  (2379) 
C=c1c(=Cc2[nH]c(=O)[nH]c2O)cc(C(=O)N2CCN(C(=O)CCc3ccc(O)cc3)CC2)n1C

>  <score_type>  (2379) 
oracle

>  <origin>  (2379) 
adg

>  <m_score__min__energy>  (2379) 
-17.68

>  <m_primary>  (2379) 
energy

$$$$
6:0
     RDKit          3D

 28 31  0  0  0  0  0  0  0  0999 V2000
   53.6100   28.3270   53.0980 C   0  0  0  0  0  0  0  0  0  0  0  0
   54.5600   29.2660   52.9440 C   0  0  0  0  0  0  0  0  0  0  0  0
   55.8950   28.8750   53.1620 C   0  0  0  0  0  0  0  0  0  0  0  0
   56.9550   29.6990   52.7880 C   0  0  0  0  0  0  0  0  0  0  0  0
   56.7120   30.9240   52.1610 C   0  0  0  0  0  0  0  0  0  0  0  0
   57.8430   31.7790   51.7390 C   0  0  0  0  0  0  0  0  0  0  0  0
   58.3790   32.5540   52.5780 O   0  0  0  0  0  0  0  0  0  0  0  0
   58.3530   31.7350   50.3940 N   0  0  0  0  0  0  0  0  0  0  0  0
   58.6650   30.4340   49.7800 C   0  0  0  0  0  0  0  0  0  0  0  0
   59.4320   30.5960   48.4610 C   0  0  0  0  0  0  0  0  0  0  0  0
   60.5050   31.5910   48.6090 N   0  0  0  0  0  0  0  0  0  0  0  0
   61.7730   31.3880   47.9490 C   0  0  0  0  0  0  0  0  0  0  0  0
   61.8820   30.5200   47.0420 O   0  0  0  0  0  0  0  0  0  0  0  0
   62.9680   32.2370   48.2880 C   0  0  0  0  0  0  0  0  0  0  0  0
   62.8810   33.6870   47.8290 C   0  0  0  0  0  0  0  0  0  0  0  0
   63.7650   32.7070   47.0790 C   0  0  0  0  0  0  0  0  0  0  0  0
   60.2410   32.8580   49.3110 C   0  0  0  0  0  0  0  0  0  0  0  0
   58.7730   32.9730   49.7270 C   0  0  0  0  0  0  0  0  0  0  0  0
   55.3890   31.3580   51.9960 C   0  0  0  0  0  0  0  0  0  0  0  0
   54.2970   30.5870   52.4510 C   0  0  0  0  0  0  0  0  0  0  0  0
   53.0740   31.1760   52.4090 C   0  0  0  0  0  0  0  0  0  0  0  0
   52.1760   31.2260   51.2390 C   0  0  0  0  0  0  0  0  0  0  0  0
   52.2180   30.3350   50.2340 N   0  0  0  0  0  0  0  0  0  0  0  0
   51.3210   30.8180   49.3480 C   0  0  0  0  0  0  0  0  0  0  0  0
   51.0630   30.2390   48.2610 O   0  0  0  0  0  0  0  0  0  0  0  0
   50.7310   31.9770   49.7130 N   0  0  0  0  0  0  0  0  0  0  0  0
   51.2910   32.2280   50.9050 C   0  0  0  0  0  0  0  0  0  0  0  0
   51.0240   33.3690   51.6560 O   0  0  0  0  0  0  0  0  0  0  0  0
  1  2  2  0
  2  3  1  0
  3  4  2  0
  4  5  1  0
  5  6  1  0
  6  7  2  0
  6  8  1  0
  8  9  1  0
  9 10  1  0
 10 11  1  0
 11 12  1  0
 12 13  2  0
 12 14  1  0
 14 15  1  0
 15 16  1  0
 11 17  1  0
 17 18  1  0
  5 19  2  0
 19 20  1  0
 20 21  2  0
 21 22  1  0
 22 23  1  0
 23 24  1  0
 24 25  2  0
 24 26  1  0
 26 27  1  0
 27 28  1  0
 20  2  1  0
 27 22  2  0
 18  8  1  0
 16 14  1  0
M  CHG  3  23  -1  26  -1  28  -1
M  END
>  <UniqueID>  (2380) 
7

>  <SMILES>  (2380) 
C=c1ccc(C(=O)N2CCN(C(=O)C3CC3)CC2)c/c1=C/c1[n-]c(=O)[n-]c1[O-]

>  <Energy>  (2380) 
368.8459815400106

>  <Genealogy>  (2380) 
C=c1ccc(C(=O)N2CCN(C(=O)C3CC3)CC2)cc1=Cc1[n-]c(=O)[n-]c1[O-] (protonated)
C=c1ccc(C(=O)N2CCN(C(=O)C3CC3)CC2)c/c1=C/c1[n-]c(=O)[n-]c1[O-] (cis-trans isomerization)
C=c1ccc(C(=O)N2CCN(C(=O)C3CC3)CC2)c/c1=C/c1[n-]c(=O)[n-]c1[O-] (3D coordinates assigned)
C=c1ccc(C(=O)N2CCN(C(=O)C3CC3)CC2)c/c1=C/c1[n-]c(=O)[n-]c1[O-] (nonaromatic ring conformer: 368.8459815400106 kcal/mol)

>  <smiles>  (2380) 
C=c1ccc(C(=O)N2CCN(C(=O)C3CC3)CC2)cc1=Cc1[nH]c(=O)[nH]c1O

>  <score_type>  (2380) 
oracle

>  <origin>  (2380) 
adg

>  <m_score__min__energy>  (2380) 
-17.649999999999999

>  <m_primary>  (2380) 
energy

$$$$
11:0
     RDKit          3D

 35 39  0  0  0  0  0  0  0  0999 V2000
   61.2030   30.5920   49.8180 C   0  0  0  0  0  0  0  0  0  0  0  0
   61.0480   30.3480   48.4990 C   0  0  0  0  0  0  0  0  0  0  0  0
   60.1360   29.2630   48.0430 C   0  0  0  0  0  0  0  0  0  0  0  0
   60.1780   27.9800   48.6520 C   0  0  0  0  0  0  0  0  0  0  0  0
   59.3300   26.9460   48.2180 C   0  0  0  0  0  0  0  0  0  0  0  0
   58.4500   27.2170   47.1720 C   0  0  0  0  0  0  0  0  0  0  0  0
   57.5200   26.4170   46.5320 C   0  0  0  0  0  0  0  0  0  0  0  0
   57.2390   24.9630   46.7680 C   0  0  0  0  0  0  0  0  0  0  0  0
   56.3720   24.4130   45.6710 C   0  0  0  0  0  0  0  0  0  0  0  0
   55.1000   24.8340   45.3430 C   0  0  0  0  0  0  0  0  0  0  0  0
   54.4040   25.8650   45.9580 O   0  0  0  0  0  0  0  0  0  0  0  0
   54.6050   24.1060   44.3230 N   0  0  0  0  0  0  0  0  0  0  0  0
   55.6060   23.2400   44.0540 C   0  0  0  0  0  0  0  0  0  0  0  0
   55.5350   22.3820   43.1340 O   0  0  0  0  0  0  0  0  0  0  0  0
   56.6840   23.3840   44.8560 N   0  0  0  0  0  0  0  0  0  0  0  0
   57.9460   22.6520   44.7840 C   0  0  0  0  0  0  0  0  0  0  0  0
   56.9460   27.2170   45.5480 C   0  0  0  0  0  0  0  0  0  0  0  0
   57.4840   28.4590   45.5850 N   0  0  0  0  0  0  0  0  0  0  0  0
   57.1590   29.5670   44.6930 C   0  0  0  0  0  0  0  0  0  0  0  0
   58.4020   28.4490   46.5720 C   0  0  0  0  0  0  0  0  0  0  0  0
   59.2340   29.4950   46.9780 C   0  0  0  0  0  0  0  0  0  0  0  0
   61.7040   31.2390   47.4630 C   0  0  0  0  0  0  0  0  0  0  0  0
   62.9610   31.9100   48.0100 C   0  0  0  0  0  0  0  0  0  0  0  0
   62.6420   32.5180   49.3000 N   0  0  0  0  0  0  0  0  0  0  0  0
   62.5820   33.9510   49.4460 C   0  0  0  0  0  0  0  0  0  0  0  0
   63.4770   34.5490   50.1000 O   0  0  0  0  0  0  0  0  0  0  0  0
   61.5560   34.7270   48.8120 N   0  0  0  0  0  0  0  0  0  0  0  0
   60.5450   34.2520   48.1440 C   0  0  0  0  0  0  0  0  0  0  0  0
   60.4240   34.4660   46.8020 N   0  0  0  0  0  0  0  0  0  0  0  0
   59.3850   33.9620   46.0830 C   0  0  0  0  0  0  0  0  0  0  0  0
   58.4050   33.1940   46.7170 C   0  0  0  0  0  0  0  0  0  0  0  0
   57.3400   32.6770   45.9920 O   0  0  0  0  0  0  0  0  0  0  0  0
   58.5110   32.9510   48.0890 C   0  0  0  0  0  0  0  0  0  0  0  0
   59.5860   33.4760   48.8080 C   0  0  0  0  0  0  0  0  0  0  0  0
   62.1510   31.6320   50.3610 C   0  0  0  0  0  0  0  0  0  0  0  0
  1  2  2  0
  2  3  1  0
  3  4  2  0
  4  5  1  0
  5  6  2  0
  6  7  1  0
  7  8  1  0
  8  9  1  0
  9 10  2  0
 10 11  1  0
 10 12  1  0
 12 13  1  0
 13 14  2  0
 13 15  1  0
 15 16  1  0
  7 17  2  0
 17 18  1  0
 18 19  1  0
 18 20  1  0
 20 21  2  0
  2 22  1  0
 22 23  1  0
 23 24  1  0
 24 25  1  0
 25 26  2  0
 25 27  1  0
 27 28  2  0
 28 29  1  0
 29 30  1  0
 30 31  2  0
 31 32  1  0
 31 33  1  0
 33 34  2  0
 24 35  1  0
 35  1  1  0
 21  3  1  0
 34 28  1  0
 20  6  1  0
 15  9  1  0
M  CHG  4  11  -1  12  -1  29  -1  32  -1
M  END
>  <UniqueID>  (2381) 
11

>  <SMILES>  (2381) 
Cn1c(Cc2cn(C)c3cc(C4=CCN(C(=O)/N=c5/ccc([O-])c[n-]5)CC4)ccc23)c([O-])[n-]c1=O

>  <Energy>  (2381) 
138.24822184906984

>  <Genealogy>  (2381) 
Cn1c(Cc2cn(C)c3cc(C4=CCN(C(=O)N=c5ccc([O-])c[n-]5)CC4)ccc23)c([O-])[n-]c1=O (protonated)
Cn1c(Cc2cn(C)c3cc(C4=CCN(C(=O)/N=c5/ccc([O-])c[n-]5)CC4)ccc23)c([O-])[n-]c1=O (cis-trans isomerization)
Cn1c(Cc2cn(C)c3cc(C4=CCN(C(=O)/N=c5/ccc([O-])c[n-]5)CC4)ccc23)c([O-])[n-]c1=O (3D coordinates assigned)
Cn1c(Cc2cn(C)c3cc(C4=CCN(C(=O)/N=c5/ccc([O-])c[n-]5)CC4)ccc23)c([O-])[n-]c1=O (nonaromatic ring conformer: 138.24822184906984 kcal/mol)

>  <smiles>  (2381) 
Cn1c(Cc2cn(C)c3cc(C4=CCN(C(=O)N=c5ccc(O)c[nH]5)CC4)ccc23)c(O)[nH]c1=O

>  <score_type>  (2381) 
oracle

>  <origin>  (2381) 
adg

>  <m_score__min__energy>  (2381) 
-16.32

>  <m_primary>  (2381) 
energy

$$$$
19:0
     RDKit          3D

 19 20  0  0  0  0  0  0  0  0999 V2000
   56.1800   28.9820   52.1390 O   0  0  0  0  0  0  0  0  0  0  0  0
   55.6610   30.0940   52.4250 C   0  0  0  0  0  0  0  0  0  0  0  0
   54.1590   30.1980   52.5370 C   0  0  0  0  0  0  0  0  0  0  0  0
   53.6130   31.5440   52.0380 C   0  0  0  0  0  0  0  0  0  0  0  0
   52.5660   31.3650   50.9810 C   0  0  0  0  0  0  0  0  0  0  0  0
   52.5920   30.3910   50.0530 N   0  0  0  0  0  0  0  0  0  0  0  0
   51.4470   30.5880   49.3630 C   0  0  0  0  0  0  0  0  0  0  0  0
   51.1070   29.8630   48.3930 O   0  0  0  0  0  0  0  0  0  0  0  0
   50.6920   31.6200   49.7990 N   0  0  0  0  0  0  0  0  0  0  0  0
   51.4140   32.0990   50.8250 C   0  0  0  0  0  0  0  0  0  0  0  0
   51.0250   33.1810   51.6040 O   0  0  0  0  0  0  0  0  0  0  0  0
   56.5240   31.1710   52.8140 N   0  0  0  0  0  0  0  0  0  0  0  0
   57.5040   31.8150   51.9900 C   0  0  0  0  0  0  0  0  0  0  0  0
   57.8650   31.2260   50.7720 C   0  0  0  0  0  0  0  0  0  0  0  0
   58.7950   31.8500   49.9350 C   0  0  0  0  0  0  0  0  0  0  0  0
   59.3560   33.0780   50.3010 C   0  0  0  0  0  0  0  0  0  0  0  0
   60.6250   33.9320   49.1570 Br  0  0  0  0  0  0  0  0  0  0  0  0
   58.9760   33.6860   51.5020 C   0  0  0  0  0  0  0  0  0  0  0  0
   58.0460   33.0630   52.3380 C   0  0  0  0  0  0  0  0  0  0  0  0
  1  2  2  0
  2  3  1  0
  3  4  1  0
  4  5  1  0
  5  6  1  0
  6  7  1  0
  7  8  2  0
  7  9  1  0
  9 10  1  0
 10 11  1  0
  2 12  1  0
 12 13  1  0
 13 14  2  0
 14 15  1  0
 15 16  2  0
 16 17  1  0
 16 18  1  0
 18 19  2  0
 10  5  2  0
 19 13  1  0
M  CHG  4   6  -1   9  -1  11  -1  12  -1
M  END
>  <UniqueID>  (2382) 
19

>  <SMILES>  (2382) 
O=C(CCc1[n-]c(=O)[n-]c1[O-])[N-]c1ccc(Br)cc1

>  <Energy>  (2382) 
58.5889615524748

>  <Genealogy>  (2382) 
O=C(CCc1[n-]c(=O)[n-]c1[O-])[N-]c1ccc(Br)cc1 (protonated)
O=C(CCc1[n-]c(=O)[n-]c1[O-])[N-]c1ccc(Br)cc1 (3D coordinates assigned)
O=C(CCc1[n-]c(=O)[n-]c1[O-])[N-]c1ccc(Br)cc1 (optimized conformer: 58.5889615524748 kcal/mol)

>  <smiles>  (2382) 
O=C(CCc1[nH]c(=O)[nH]c1O)Nc1ccc(Br)cc1

>  <score_type>  (2382) 
oracle

>  <origin>  (2382) 
adg

>  <m_score__min__energy>  (2382) 
-16.91

>  <m_primary>  (2382) 
energy

$$$$
41:0
     RDKit          3D

 28 30  0  0  0  0  0  0  0  0999 V2000
   60.2840   27.9390   44.9550 O   0  0  0  0  0  0  0  0  0  0  0  0
   59.5150   27.7250   45.9320 C   0  0  0  0  0  0  0  0  0  0  0  0
   59.9190   26.7400   46.9800 C   0  0  0  0  0  0  0  0  0  0  0  0
   59.3920   27.1700   48.2700 N   0  0  0  0  0  0  0  0  0  0  0  0
   60.0530   28.0770   49.1630 C   0  0  0  0  0  0  0  0  0  0  0  0
   60.4360   27.6500   50.2840 O   0  0  0  0  0  0  0  0  0  0  0  0
   60.3280   29.4800   48.7970 C   0  0  0  0  0  0  0  0  0  0  0  0
   61.0440   29.7930   47.6310 C   0  0  0  0  0  0  0  0  0  0  0  0
   61.2810   31.1250   47.2840 C   0  0  0  0  0  0  0  0  0  0  0  0
   60.7860   32.1630   48.0860 C   0  0  0  0  0  0  0  0  0  0  0  0
   61.0630   33.8460   47.6330 S   0  0  0  0  0  0  0  0  0  0  0  0
   61.9280   33.8910   46.4040 O   0  0  0  0  0  0  0  0  0  0  0  0
   61.8020   34.5410   48.7440 O   0  0  0  0  0  0  0  0  0  0  0  0
   59.5640   34.6980   47.3170 N   0  0  0  0  0  0  0  0  0  0  0  0
   59.5550   35.2710   45.9670 C   0  0  0  0  0  0  0  0  0  0  0  0
   58.7860   34.3310   45.0510 C   0  0  0  0  0  0  0  0  0  0  0  0
   58.0490   33.3730   45.9670 C   0  0  0  0  0  0  0  0  0  0  0  0
   58.4150   33.7900   47.3830 C   0  0  0  0  0  0  0  0  0  0  0  0
   60.0580   31.8530   49.2430 C   0  0  0  0  0  0  0  0  0  0  0  0
   59.8220   30.5210   49.5910 C   0  0  0  0  0  0  0  0  0  0  0  0
   58.3040   28.4800   46.0870 N   0  0  0  0  0  0  0  0  0  0  0  0
   57.7910   29.3640   45.0780 C   0  0  0  0  0  0  0  0  0  0  0  0
   58.6380   30.3390   44.5280 C   0  0  0  0  0  0  0  0  0  0  0  0
   58.1640   31.2180   43.5500 C   0  0  0  0  0  0  0  0  0  0  0  0
   56.8370   31.1420   43.1240 C   0  0  0  0  0  0  0  0  0  0  0  0
   55.9770   30.1920   43.6840 C   0  0  0  0  0  0  0  0  0  0  0  0
   56.4430   29.3130   44.6680 C   0  0  0  0  0  0  0  0  0  0  0  0
   55.5540   28.4170   45.2530 O   0  0  0  0  0  0  0  0  0  0  0  0
  1  2  2  0
  2  3  1  0
  3  4  1  0
  4  5  1  0
  5  6  2  0
  5  7  1  0
  7  8  2  0
  8  9  1  0
  9 10  2  0
 10 11  1  0
 11 12  2  0
 11 13  2  0
 11 14  1  0
 14 15  1  0
 15 16  1  0
 16 17  1  0
 17 18  1  0
 10 19  1  0
 19 20  2  0
  2 21  1  0
 21 22  1  0
 22 23  2  0
 23 24  1  0
 24 25  2  0
 25 26  1  0
 26 27  2  0
 27 28  1  0
 20  7  1  0
 27 22  1  0
 18 14  1  0
M  CHG  2   4  -1  28  -1
M  END
>  <UniqueID>  (2383) 
40

>  <SMILES>  (2383) 
O=C(C[N-]C(=O)c1ccc(S(=O)(=O)N2CCCC2)cc1)Nc1ccccc1[O-]

>  <Energy>  (2383) 
55.69302038216831

>  <Genealogy>  (2383) 
O=C(C[N-]C(=O)c1ccc(S(=O)(=O)N2CCCC2)cc1)Nc1ccccc1[O-] (protonated)
O=C(C[N-]C(=O)c1ccc(S(=O)(=O)N2CCCC2)cc1)Nc1ccccc1[O-] (3D coordinates assigned)
O=C(C[N-]C(=O)c1ccc(S(=O)(=O)N2CCCC2)cc1)Nc1ccccc1[O-] (nonaromatic ring conformer: 55.69302038216831 kcal/mol)

>  <smiles>  (2383) 
O=C(CNC(=O)c1ccc(S(=O)(=O)N2CCCC2)cc1)Nc1ccccc1O

>  <score_type>  (2383) 
oracle

>  <origin>  (2383) 
adg

>  <m_score__min__energy>  (2383) 
-14.720000000000001

>  <m_primary>  (2383) 
energy

$$$$
48:0
     RDKit          3D

 33 38  0  0  0  0  0  0  0  0999 V2000
   55.9590   27.9890   45.4260 O   0  0  0  0  0  0  0  0  0  0  0  0
   56.1740   26.7360   45.9950 C   0  0  0  0  0  0  0  0  0  0  0  0
   55.2240   25.7880   46.0540 N   0  0  0  0  0  0  0  0  0  0  0  0
   55.8550   24.7670   46.6710 C   0  0  0  0  0  0  0  0  0  0  0  0
   55.2900   23.6700   46.9170 O   0  0  0  0  0  0  0  0  0  0  0  0
   57.1390   25.0160   47.0010 N   0  0  0  0  0  0  0  0  0  0  0  0
   57.3420   26.2750   46.5720 C   0  0  0  0  0  0  0  0  0  0  0  0
   58.6190   27.0150   46.6740 C   0  0  0  0  0  0  0  0  0  0  0  0
   58.8170   28.2780   46.2620 C   0  0  0  0  0  0  0  0  0  0  0  0
   59.0530   28.7850   44.9780 C   0  0  0  0  0  0  0  0  0  0  0  0
   59.2090   30.1320   45.0350 N   0  0  0  0  0  0  0  0  0  0  0  0
   59.0800   30.4770   46.3050 N   0  0  0  0  0  0  0  0  0  0  0  0
   59.1620   31.7140   46.8470 C   0  0  0  0  0  0  0  0  0  0  0  0
   59.3950   32.7510   46.0980 N   0  0  0  0  0  0  0  0  0  0  0  0
   58.5030   33.9040   46.0280 C   0  0  0  0  0  0  0  0  0  0  0  0
   57.6760   33.9560   44.7570 C   0  0  0  0  0  0  0  0  0  0  0  0
   57.0370   33.5190   46.0680 C   0  0  0  0  0  0  0  0  0  0  0  0
   59.0010   31.8340   48.1960 N   0  0  0  0  0  0  0  0  0  0  0  0
   58.7640   30.7340   48.9780 C   0  0  0  0  0  0  0  0  0  0  0  0
   58.6030   30.8730   50.4060 N   0  0  0  0  0  0  0  0  0  0  0  0
   59.2540   29.9420   51.3420 C   0  0  0  0  0  0  0  0  0  0  0  0
   58.2540   29.4390   52.3930 C   0  0  0  0  0  0  0  0  0  0  0  0
   57.3130   30.5500   52.9450 C   0  0  0  0  0  0  0  0  0  0  0  0
   55.8400   30.2680   52.6820 C   0  0  0  0  0  0  0  0  0  0  0  0
   55.0680   31.2100   51.9750 C   0  0  0  0  0  0  0  0  0  0  0  0
   53.7230   30.9570   51.6890 C   0  0  0  0  0  0  0  0  0  0  0  0
   53.1340   29.7560   52.0940 C   0  0  0  0  0  0  0  0  0  0  0  0
   53.8910   28.8060   52.7820 C   0  0  0  0  0  0  0  0  0  0  0  0
   55.2360   29.0550   53.0710 C   0  0  0  0  0  0  0  0  0  0  0  0
   57.7020   31.9620   52.4580 C   0  0  0  0  0  0  0  0  0  0  0  0
   57.8540   32.0240   50.9330 C   0  0  0  0  0  0  0  0  0  0  0  0
   58.6870   29.4980   48.4000 N   0  0  0  0  0  0  0  0  0  0  0  0
   58.8490   29.4020   47.0590 C   0  0  0  0  0  0  0  0  0  0  0  0
  1  2  1  0
  2  3  1  0
  3  4  1  0
  4  5  2  0
  4  6  1  0
  6  7  1  0
  7  8  1  0
  8  9  2  0
  9 10  1  0
 10 11  2  0
 11 12  1  0
 12 13  1  0
 13 14  2  0
 14 15  1  0
 15 16  1  0
 16 17  1  0
 13 18  1  0
 18 19  2  0
 19 20  1  0
 20 21  1  0
 21 22  1  0
 22 23  1  0
 23 24  1  0
 24 25  2  0
 25 26  1  0
 26 27  2  0
 27 28  1  0
 28 29  2  0
 23 30  1  0
 30 31  1  0
 19 32  1  0
 32 33  2  0
  7  2  2  0
 33  9  1  0
 33 12  1  0
 17 15  1  0
 31 20  1  0
 29 24  1  0
M  CHG  2   3  -1   6  -1
M  END
>  <UniqueID>  (2384) 
47

>  <SMILES>  (2384) 
O=c1[n-]c(O)c(/C=c2\cnn3/c(=N/C4CC4)nc(N4CCC(c5ccccc5)CC4)nc23)[n-]1

>  <Energy>  (2384) 
400.3573865263173

>  <Genealogy>  (2384) 
O=c1[n-]c(O)c(C=c2cnn3c(=NC4CC4)nc(N4CCC(c5ccccc5)CC4)nc23)[n-]1 (protonated)
O=c1[n-]c(O)c(/C=c2\cnn3/c(=N/C4CC4)nc(N4CCC(c5ccccc5)CC4)nc23)[n-]1 (cis-trans isomerization)
O=c1[n-]c(O)c(/C=c2\cnn3/c(=N/C4CC4)nc(N4CCC(c5ccccc5)CC4)nc23)[n-]1 (3D coordinates assigned)
O=c1[n-]c(O)c(/C=c2\cnn3/c(=N/C4CC4)nc(N4CCC(c5ccccc5)CC4)nc23)[n-]1 (nonaromatic ring conformer: 400.3573865263173 kcal/mol)

>  <smiles>  (2384) 
O=c1[nH]c(O)c(C=c2cnn3c(=NC4CC4)nc(N4CCC(c5ccccc5)CC4)nc23)[nH]1

>  <score_type>  (2384) 
oracle

>  <origin>  (2384) 
adg

>  <m_score__min__energy>  (2384) 
-14.720000000000001

>  <m_primary>  (2384) 
energy

$$$$
51:0
     RDKit          3D

 29 32  0  0  0  0  0  0  0  0999 V2000
   59.9560   27.1740   46.2470 C   0  0  0  0  0  0  0  0  0  0  0  0
   59.2460   28.0170   45.4820 C   0  0  0  0  0  0  0  0  0  0  0  0
   58.1470   27.6790   44.6860 C   0  0  0  0  0  0  0  0  0  0  0  0
   57.6170   26.4550   44.5000 C   0  0  0  0  0  0  0  0  0  0  0  0
   57.0850   25.6120   45.5860 C   0  0  0  0  0  0  0  0  0  0  0  0
   57.7940   24.6310   46.1730 N   0  0  0  0  0  0  0  0  0  0  0  0
   56.9710   24.1900   47.1490 C   0  0  0  0  0  0  0  0  0  0  0  0
   57.2820   23.2480   47.9220 O   0  0  0  0  0  0  0  0  0  0  0  0
   55.7940   24.8460   47.2380 N   0  0  0  0  0  0  0  0  0  0  0  0
   55.8850   25.7510   46.2510 C   0  0  0  0  0  0  0  0  0  0  0  0
   54.9140   26.7110   45.9960 O   0  0  0  0  0  0  0  0  0  0  0  0
   57.7380   28.8530   44.0700 C   0  0  0  0  0  0  0  0  0  0  0  0
   58.5750   29.8490   44.5240 C   0  0  0  0  0  0  0  0  0  0  0  0
   58.4710   31.2580   44.1080 C   0  0  0  0  0  0  0  0  0  0  0  0
   58.5050   31.5370   42.8790 O   0  0  0  0  0  0  0  0  0  0  0  0
   58.2940   32.3050   45.0760 N   0  0  0  0  0  0  0  0  0  0  0  0
   57.7780   32.0840   46.4170 C   0  0  0  0  0  0  0  0  0  0  0  0
   57.4750   33.4710   46.9690 C   0  0  0  0  0  0  0  0  0  0  0  0
   58.2150   34.4540   46.0640 C   0  0  0  0  0  0  0  0  0  0  0  0
   58.4610   33.7100   44.7590 C   0  0  0  0  0  0  0  0  0  0  0  0
   59.5010   29.3480   45.3750 N   0  0  0  0  0  0  0  0  0  0  0  0
   60.6560   30.0760   45.9290 C   0  0  0  0  0  0  0  0  0  0  0  0
   60.2970   30.7220   47.2430 C   0  0  0  0  0  0  0  0  0  0  0  0
   60.7810   32.0010   47.5680 C   0  0  0  0  0  0  0  0  0  0  0  0
   60.4440   32.5930   48.7870 C   0  0  0  0  0  0  0  0  0  0  0  0
   59.6260   31.9130   49.6960 C   0  0  0  0  0  0  0  0  0  0  0  0
   59.2040   32.6580   51.2260 Cl  0  0  0  0  0  0  0  0  0  0  0  0
   59.1490   30.6370   49.3840 C   0  0  0  0  0  0  0  0  0  0  0  0
   59.4850   30.0410   48.1650 C   0  0  0  0  0  0  0  0  0  0  0  0
  1  2  2  0
  2  3  1  0
  3  4  2  0
  4  5  1  0
  5  6  1  0
  6  7  1  0
  7  8  2  0
  7  9  1  0
  9 10  1  0
 10 11  1  0
  3 12  1  0
 12 13  2  0
 13 14  1  0
 14 15  2  0
 14 16  1  0
 16 17  1  0
 17 18  1  0
 18 19  1  0
 19 20  1  0
 13 21  1  0
 21 22  1  0
 22 23  1  0
 23 24  2  0
 24 25  1  0
 25 26  2  0
 26 27  1  0
 26 28  1  0
 28 29  2  0
 21  2  1  0
 29 23  1  0
 10  5  2  0
 20 16  1  0
M  CHG  3   6  -1   9  -1  11  -1
M  END
>  <UniqueID>  (2385) 
50

>  <SMILES>  (2385) 
C=c1/c(=C/c2[n-]c(=O)[n-]c2[O-])cc(C(=O)N2CCCC2)n1Cc1ccc(Cl)cc1

>  <Energy>  (2385) 
119.04490095455081

>  <Genealogy>  (2385) 
C=c1c(=Cc2[n-]c(=O)[n-]c2[O-])cc(C(=O)N2CCCC2)n1Cc1ccc(Cl)cc1 (protonated)
C=c1/c(=C/c2[n-]c(=O)[n-]c2[O-])cc(C(=O)N2CCCC2)n1Cc1ccc(Cl)cc1 (cis-trans isomerization)
C=c1/c(=C/c2[n-]c(=O)[n-]c2[O-])cc(C(=O)N2CCCC2)n1Cc1ccc(Cl)cc1 (3D coordinates assigned)
C=c1/c(=C/c2[n-]c(=O)[n-]c2[O-])cc(C(=O)N2CCCC2)n1Cc1ccc(Cl)cc1 (nonaromatic ring conformer: 119.04490095455081 kcal/mol)

>  <smiles>  (2385) 
C=c1c(=Cc2[nH]c(=O)[nH]c2O)cc(C(=O)N2CCCC2)n1Cc1ccc(Cl)cc1

>  <score_type>  (2385) 
oracle

>  <origin>  (2385) 
adg

>  <m_score__min__energy>  (2385) 
-16.77

>  <m_primary>  (2385) 
energy

$$$$
56:0
     RDKit          3D

 35 39  0  0  0  0  0  0  0  0999 V2000
   57.8260   30.1430   43.7100 C   0  0  0  0  0  0  0  0  0  0  0  0
   58.0790   30.3130   45.0180 C   0  0  0  0  0  0  0  0  0  0  0  0
   58.4400   29.3190   45.9410 C   0  0  0  0  0  0  0  0  0  0  0  0
   58.4190   27.9760   45.8480 C   0  0  0  0  0  0  0  0  0  0  0  0
   57.2400   27.1220   46.0580 C   0  0  0  0  0  0  0  0  0  0  0  0
   57.2850   25.8490   46.4980 N   0  0  0  0  0  0  0  0  0  0  0  0
   56.0000   25.4410   46.3980 C   0  0  0  0  0  0  0  0  0  0  0  0
   55.6280   24.2870   46.7350 O   0  0  0  0  0  0  0  0  0  0  0  0
   55.1480   26.3620   45.8990 N   0  0  0  0  0  0  0  0  0  0  0  0
   55.9530   27.4140   45.6740 C   0  0  0  0  0  0  0  0  0  0  0  0
   55.5240   28.6110   45.1180 O   0  0  0  0  0  0  0  0  0  0  0  0
   58.8640   29.9840   47.0780 C   0  0  0  0  0  0  0  0  0  0  0  0
   58.6880   31.3320   46.8450 C   0  0  0  0  0  0  0  0  0  0  0  0
   59.0790   32.3950   47.7940 C   0  0  0  0  0  0  0  0  0  0  0  0
   58.3400   32.6320   48.7880 O   0  0  0  0  0  0  0  0  0  0  0  0
   60.2830   33.1610   47.5960 N   0  0  0  0  0  0  0  0  0  0  0  0
   60.4010   34.5110   48.1570 C   0  0  0  0  0  0  0  0  0  0  0  0
   61.4430   34.5000   49.2720 C   0  0  0  0  0  0  0  0  0  0  0  0
   62.8070   33.9360   48.7840 C   0  0  0  0  0  0  0  0  0  0  0  0
   63.4530   33.0650   49.7990 N   0  0  0  0  0  0  0  0  0  0  0  0
   64.6770   33.5310   50.4510 C   0  0  0  0  0  0  0  0  0  0  0  0
   65.8530   32.6780   49.9940 C   0  0  0  0  0  0  0  0  0  0  0  0
   66.0660   31.5080   50.9130 C   0  0  0  0  0  0  0  0  0  0  0  0
   67.3690   31.2720   51.3950 C   0  0  0  0  0  0  0  0  0  0  0  0
   67.6330   30.2020   52.2500 C   0  0  0  0  0  0  0  0  0  0  0  0
   66.6010   29.3560   52.6450 C   0  0  0  0  0  0  0  0  0  0  0  0
   65.3020   29.5830   52.1910 C   0  0  0  0  0  0  0  0  0  0  0  0
   65.0110   30.6530   51.3300 C   0  0  0  0  0  0  0  0  0  0  0  0
   63.6290   30.8220   50.9690 N   0  0  0  0  0  0  0  0  0  0  0  0
   62.9170   31.7680   50.1550 C   0  0  0  0  0  0  0  0  0  0  0  0
   61.7860   31.4200   49.7300 O   0  0  0  0  0  0  0  0  0  0  0  0
   62.7770   33.2630   47.3840 C   0  0  0  0  0  0  0  0  0  0  0  0
   61.4820   32.4980   47.0560 C   0  0  0  0  0  0  0  0  0  0  0  0
   58.1850   31.5340   45.6040 N   0  0  0  0  0  0  0  0  0  0  0  0
   57.8930   32.8370   44.9940 C   0  0  0  0  0  0  0  0  0  0  0  0
  1  2  2  0
  2  3  1  0
  3  4  2  3
  4  5  1  0
  5  6  1  0
  6  7  1  0
  7  8  2  0
  7  9  1  0
  9 10  1  0
 10 11  1  0
  3 12  1  0
 12 13  2  0
 13 14  1  0
 14 15  2  0
 14 16  1  0
 16 17  1  0
 17 18  1  0
 18 19  1  0
 19 20  1  0
 20 21  1  0
 21 22  1  0
 22 23  1  0
 23 24  2  0
 24 25  1  0
 25 26  2  0
 26 27  1  0
 27 28  2  0
 28 29  1  0
 29 30  1  0
 30 31  2  0
 19 32  1  0
 32 33  1  0
 13 34  1  0
 34 35  1  0
 34  2  1  0
 10  5  2  0
 33 16  1  0
 30 20  1  0
 28 23  1  0
M  CHG  4   6  -1   9  -1  11  -1  29  -1
M  END
>  <UniqueID>  (2386) 
55

>  <SMILES>  (2386) 
C=c1c(=Cc2[n-]c(=O)[n-]c2[O-])cc(C(=O)N2CCC(N3CCc4ccccc4[N-]C3=O)CC2)n1C

>  <Energy>  (2386) 
154.74268940948602

>  <Genealogy>  (2386) 
C=c1c(=Cc2[n-]c(=O)[n-]c2[O-])cc(C(=O)N2CCC(N3CCc4ccccc4[N-]C3=O)CC2)n1C (protonated)
C=c1c(=Cc2[n-]c(=O)[n-]c2[O-])cc(C(=O)N2CCC(N3CCc4ccccc4[N-]C3=O)CC2)n1C (3D coordinates assigned)
C=c1c(=Cc2[n-]c(=O)[n-]c2[O-])cc(C(=O)N2CCC(N3CCc4ccccc4[N-]C3=O)CC2)n1C (nonaromatic ring conformer: 154.74268940948602 kcal/mol)

>  <smiles>  (2386) 
C=c1c(=Cc2[nH]c(=O)[nH]c2O)cc(C(=O)N2CCC(N3CCc4ccccc4NC3=O)CC2)n1C

>  <score_type>  (2386) 
oracle

>  <origin>  (2386) 
adg

>  <m_score__min__energy>  (2386) 
-18.219999999999999

>  <m_primary>  (2386) 
energy

$$$$
60:0
     RDKit          3D

 30 33  0  0  0  0  0  0  0  0999 V2000
   55.6050   31.5850   52.3140 C   0  0  0  0  0  0  0  0  0  0  0  0
   55.0660   30.4480   52.7800 C   0  0  0  0  0  0  0  0  0  0  0  0
   53.7060   30.1970   52.9880 C   0  0  0  0  0  0  0  0  0  0  0  0
   52.6760   31.0310   52.7480 C   0  0  0  0  0  0  0  0  0  0  0  0
   51.9940   31.1470   51.4460 C   0  0  0  0  0  0  0  0  0  0  0  0
   52.0980   30.2230   50.4750 N   0  0  0  0  0  0  0  0  0  0  0  0
   51.4010   30.7620   49.4520 C   0  0  0  0  0  0  0  0  0  0  0  0
   51.2540   30.1760   48.3480 O   0  0  0  0  0  0  0  0  0  0  0  0
   50.8820   31.9830   49.7010 N   0  0  0  0  0  0  0  0  0  0  0  0
   51.2770   32.2190   50.9630 C   0  0  0  0  0  0  0  0  0  0  0  0
   51.0250   33.4090   51.6350 O   0  0  0  0  0  0  0  0  0  0  0  0
   53.6160   28.8840   53.4340 C   0  0  0  0  0  0  0  0  0  0  0  0
   54.9070   28.3990   53.5000 C   0  0  0  0  0  0  0  0  0  0  0  0
   55.2730   27.0020   53.9010 C   0  0  0  0  0  0  0  0  0  0  0  0
   55.7870   29.3450   53.1000 N   0  0  0  0  0  0  0  0  0  0  0  0
   57.2140   29.1830   53.0260 C   0  0  0  0  0  0  0  0  0  0  0  0
   57.9140   28.5840   54.0790 C   0  0  0  0  0  0  0  0  0  0  0  0
   59.2630   28.4400   54.0060 N   0  0  0  0  0  0  0  0  0  0  0  0
   59.9860   28.8680   52.9320 C   0  0  0  0  0  0  0  0  0  0  0  0
   61.4180   28.6850   52.9160 N   0  0  0  0  0  0  0  0  0  0  0  0
   62.1790   28.7530   51.6600 C   0  0  0  0  0  0  0  0  0  0  0  0
   63.6540   29.0750   51.9370 C   0  0  0  0  0  0  0  0  0  0  0  0
   64.2850   28.1250   52.8860 N   0  0  0  0  0  0  0  0  0  0  0  0
   64.9690   27.0230   52.1730 C   0  0  0  0  0  0  0  0  0  0  0  0
   64.0850   25.7790   52.0890 C   0  0  0  0  0  0  0  0  0  0  0  0
   63.3690   27.6150   53.9430 C   0  0  0  0  0  0  0  0  0  0  0  0
   62.1540   28.5190   54.1760 C   0  0  0  0  0  0  0  0  0  0  0  0
   59.3140   29.4760   51.8570 C   0  0  0  0  0  0  0  0  0  0  0  0
   57.9290   29.6340   51.9090 C   0  0  0  0  0  0  0  0  0  0  0  0
   57.2820   30.2350   50.8780 F   0  0  0  0  0  0  0  0  0  0  0  0
  1  2  2  0
  2  3  1  0
  3  4  2  0
  4  5  1  0
  5  6  1  0
  6  7  1  0
  7  8  2  0
  7  9  1  0
  9 10  1  0
 10 11  1  0
  3 12  1  0
 12 13  2  0
 13 14  1  0
 13 15  1  0
 15 16  1  0
 16 17  2  0
 17 18  1  0
 18 19  2  0
 19 20  1  0
 20 21  1  0
 21 22  1  0
 22 23  1  0
 23 24  1  0
 24 25  1  0
 23 26  1  0
 26 27  1  0
 19 28  1  0
 28 29  2  0
 29 30  1  0
 15  2  1  0
 29 16  1  0
 10  5  2  0
 27 20  1  0
M  CHG  3   6  -1   9  -1  11  -1
M  END
>  <UniqueID>  (2387) 
59

>  <SMILES>  (2387) 
C=c1/c(=C/c2[n-]c(=O)[n-]c2[O-])cc(C)n1-c1cnc(N2CCN(CC)CC2)cc1F

>  <Energy>  (2387) 
134.71709352096562

>  <Genealogy>  (2387) 
C=c1c(=Cc2[n-]c(=O)[n-]c2[O-])cc(C)n1-c1cnc(N2CCN(CC)CC2)cc1F (protonated)
C=c1/c(=C/c2[n-]c(=O)[n-]c2[O-])cc(C)n1-c1cnc(N2CCN(CC)CC2)cc1F (cis-trans isomerization)
C=c1/c(=C/c2[n-]c(=O)[n-]c2[O-])cc(C)n1-c1cnc(N2CCN(CC)CC2)cc1F (3D coordinates assigned)
C=c1/c(=C/c2[n-]c(=O)[n-]c2[O-])cc(C)n1-c1cnc(N2CCN(CC)CC2)cc1F (nonaromatic ring conformer: 134.71709352096562 kcal/mol)

>  <smiles>  (2387) 
C=c1c(=Cc2[nH]c(=O)[nH]c2O)cc(C)n1-c1cnc(N2CCN(CC)CC2)cc1F

>  <score_type>  (2387) 
oracle

>  <origin>  (2387) 
adg

>  <m_score__min__energy>  (2387) 
-15.369999999999999

>  <m_primary>  (2387) 
energy

$$$$
63:0
     RDKit          3D

 24 26  0  0  0  0  0  0  0  0999 V2000
   55.5630   29.4040   44.8650 O   0  0  0  0  0  0  0  0  0  0  0  0
   56.7470   29.2810   45.2780 C   0  0  0  0  0  0  0  0  0  0  0  0
   57.4460   27.9650   45.1360 C   0  0  0  0  0  0  0  0  0  0  0  0
   57.1080   27.0210   46.2980 C   0  0  0  0  0  0  0  0  0  0  0  0
   56.7040   25.6870   45.8100 N   0  0  0  0  0  0  0  0  0  0  0  0
   57.6570   24.7470   45.4920 C   0  0  0  0  0  0  0  0  0  0  0  0
   59.0130   25.0270   45.6360 O   0  0  0  0  0  0  0  0  0  0  0  0
   57.2820   23.4900   45.0110 C   0  0  0  0  0  0  0  0  0  0  0  0
   55.9310   23.1900   44.8470 C   0  0  0  0  0  0  0  0  0  0  0  0
   55.5810   22.0630   44.4090 O   0  0  0  0  0  0  0  0  0  0  0  0
   54.9700   24.1480   45.1640 C   0  0  0  0  0  0  0  0  0  0  0  0
   55.3720   25.3980   45.6440 C   0  0  0  0  0  0  0  0  0  0  0  0
   54.3950   26.3410   45.9500 O   0  0  0  0  0  0  0  0  0  0  0  0
   57.3960   30.3410   45.9900 N   0  0  0  0  0  0  0  0  0  0  0  0
   57.8600   31.5900   45.4530 C   0  0  0  0  0  0  0  0  0  0  0  0
   57.7610   31.8720   44.0780 C   0  0  0  0  0  0  0  0  0  0  0  0
   58.2130   33.0900   43.5670 C   0  0  0  0  0  0  0  0  0  0  0  0
   58.7810   34.0420   44.4140 C   0  0  0  0  0  0  0  0  0  0  0  0
   58.9160   33.7760   45.7820 C   0  0  0  0  0  0  0  0  0  0  0  0
   59.4960   34.7290   46.6360 C   0  0  0  0  0  0  0  0  0  0  0  0
   59.6330   34.4610   47.9990 C   0  0  0  0  0  0  0  0  0  0  0  0
   59.1990   33.2420   48.5230 C   0  0  0  0  0  0  0  0  0  0  0  0
   58.6200   32.2830   47.6870 C   0  0  0  0  0  0  0  0  0  0  0  0
   58.4650   32.5370   46.3100 C   0  0  0  0  0  0  0  0  0  0  0  0
  1  2  2  0
  2  3  1  0
  3  4  1  0
  4  5  1  0
  5  6  1  0
  6  7  1  0
  6  8  2  0
  8  9  1  0
  9 10  2  0
  9 11  1  0
 11 12  2  0
 12 13  1  0
  2 14  1  0
 14 15  1  0
 15 16  2  0
 16 17  1  0
 17 18  2  0
 18 19  1  0
 19 20  2  0
 20 21  1  0
 21 22  2  0
 22 23  1  0
 23 24  2  0
 12  5  1  0
 24 15  1  0
 24 19  1  0
M  CHG  3   7  -1  13  -1  14  -1
M  END
>  <UniqueID>  (2388) 
62

>  <SMILES>  (2388) 
O=C(CCn1c([O-])cc(=O)cc1[O-])[N-]c1cccc2ccccc12

>  <Energy>  (2388) 
45.06269729719827

>  <Genealogy>  (2388) 
O=C(CCn1c([O-])cc(=O)cc1[O-])[N-]c1cccc2ccccc12 (protonated)
O=C(CCn1c([O-])cc(=O)cc1[O-])[N-]c1cccc2ccccc12 (3D coordinates assigned)
O=C(CCn1c([O-])cc(=O)cc1[O-])[N-]c1cccc2ccccc12 (optimized conformer: 45.06269729719827 kcal/mol)

>  <smiles>  (2388) 
O=C(CCn1c(O)cc(=O)cc1O)Nc1cccc2ccccc12

>  <score_type>  (2388) 
oracle

>  <origin>  (2388) 
adg

>  <m_score__min__energy>  (2388) 
-14.949999999999999

>  <m_primary>  (2388) 
energy

$$$$
5:0
     RDKit          3D

 22 23  0  0  0  0  0  0  0  0999 V2000
   55.1420   29.3280   45.2410 O   0  0  0  0  0  0  0  0  0  0  0  0
   56.0190   29.8660   44.5140 C   0  0  0  0  0  0  0  0  0  0  0  0
   56.3160   31.2140   44.6820 O   0  0  0  0  0  0  0  0  0  0  0  0
   56.7300   29.0600   43.4710 C   0  0  0  0  0  0  0  0  0  0  0  0
   58.1650   28.6970   43.8960 C   0  0  0  0  0  0  0  0  0  0  0  0
   58.3390   28.0690   45.2810 C   0  0  0  0  0  0  0  0  0  0  0  0
   58.5620   28.8870   46.4100 C   0  0  0  0  0  0  0  0  0  0  0  0
   58.7050   28.3390   47.6810 C   0  0  0  0  0  0  0  0  0  0  0  0
   58.5910   26.9690   47.8680 C   0  0  0  0  0  0  0  0  0  0  0  0
   58.3130   26.1290   46.7900 C   0  0  0  0  0  0  0  0  0  0  0  0
   58.1120   24.4130   47.1350 Cl  0  0  0  0  0  0  0  0  0  0  0  0
   58.1730   26.6610   45.4820 C   0  0  0  0  0  0  0  0  0  0  0  0
   57.7950   25.7170   44.3460 C   0  0  0  0  0  0  0  0  0  0  0  0
   56.5440   24.9000   44.6370 C   0  0  0  0  0  0  0  0  0  0  0  0
   55.5040   25.4030   45.4500 C   0  0  0  0  0  0  0  0  0  0  0  0
   55.5770   26.6800   45.9940 O   0  0  0  0  0  0  0  0  0  0  0  0
   54.4100   24.6370   45.7120 N   0  0  0  0  0  0  0  0  0  0  0  0
   54.2770   23.3780   45.2260 C   0  0  0  0  0  0  0  0  0  0  0  0
   53.1370   22.6400   45.5200 O   0  0  0  0  0  0  0  0  0  0  0  0
   55.2830   22.8250   44.4370 C   0  0  0  0  0  0  0  0  0  0  0  0
   56.4220   23.5790   44.1480 C   0  0  0  0  0  0  0  0  0  0  0  0
   57.3340   23.0610   43.4470 O   0  0  0  0  0  0  0  0  0  0  0  0
  1  2  2  0
  2  3  1  0
  2  4  1  0
  4  5  1  0
  5  6  1  0
  6  7  2  0
  7  8  1  0
  8  9  2  0
  9 10  1  0
 10 11  1  0
 10 12  2  0
 12 13  1  0
 13 14  1  0
 14 15  2  0
 15 16  1  0
 15 17  1  0
 17 18  1  0
 18 19  1  0
 18 20  2  0
 20 21  1  0
 21 22  2  0
 12  6  1  0
 21 14  1  0
M  CHG  3   3  -1  17  -1  19  -1
M  END
>  <UniqueID>  (2389) 
6

>  <SMILES>  (2389) 
O=C([O-])CCc1cccc(Cl)c1Cc1c(O)[n-]c([O-])cc1=O

>  <Energy>  (2389) 
42.546531523559636

>  <Genealogy>  (2389) 
O=C([O-])CCc1cccc(Cl)c1Cc1c(O)[n-]c([O-])cc1=O (protonated)
O=C([O-])CCc1cccc(Cl)c1Cc1c(O)[n-]c([O-])cc1=O (3D coordinates assigned)
O=C([O-])CCc1cccc(Cl)c1Cc1c(O)[n-]c([O-])cc1=O (optimized conformer: 42.546531523559636 kcal/mol)

>  <smiles>  (2389) 
O=C(O)CCc1cccc(Cl)c1Cc1c(O)[nH]c(O)cc1=O

>  <score_type>  (2389) 
oracle

>  <origin>  (2389) 
adg

>  <m_score__min__energy>  (2389) 
-14.32

>  <m_primary>  (2389) 
energy

$$$$
8:0
     RDKit          3D

 32 35  0  0  0  0  0  0  0  0999 V2000
   59.7220   27.2850   47.5370 C   0  0  0  0  0  0  0  0  0  0  0  0
   59.2430   28.4200   47.0010 C   0  0  0  0  0  0  0  0  0  0  0  0
   59.7530   29.5800   47.4920 N   0  0  0  0  0  0  0  0  0  0  0  0
   59.3460   30.8100   47.0930 C   0  0  0  0  0  0  0  0  0  0  0  0
   60.0070   31.9610   47.6380 N   0  0  0  0  0  0  0  0  0  0  0  0
   60.9670   32.6960   46.8020 C   0  0  0  0  0  0  0  0  0  0  0  0
   61.7990   33.6760   47.6390 C   0  0  0  0  0  0  0  0  0  0  0  0
   62.3610   32.9600   48.8860 C   0  0  0  0  0  0  0  0  0  0  0  0
   63.2490   33.8540   49.7280 C   0  0  0  0  0  0  0  0  0  0  0  0
   62.9710   35.0830   49.7760 O   0  0  0  0  0  0  0  0  0  0  0  0
   64.3770   33.3650   50.4860 N   0  0  0  0  0  0  0  0  0  0  0  0
   64.6700   34.0010   51.7810 C   0  0  0  0  0  0  0  0  0  0  0  0
   65.8740   33.3510   52.4750 C   0  0  0  0  0  0  0  0  0  0  0  0
   67.0880   33.2810   51.5360 C   0  0  0  0  0  0  0  0  0  0  0  0
   66.7400   32.8110   50.1050 C   0  0  0  0  0  0  0  0  0  0  0  0
   65.2900   32.3360   49.9650 C   0  0  0  0  0  0  0  0  0  0  0  0
   61.2740   32.2440   49.7350 C   0  0  0  0  0  0  0  0  0  0  0  0
   59.8890   32.2510   49.0720 C   0  0  0  0  0  0  0  0  0  0  0  0
   58.3300   30.9300   46.1300 C   0  0  0  0  0  0  0  0  0  0  0  0
   57.8010   32.2560   45.7170 C   0  0  0  0  0  0  0  0  0  0  0  0
   57.3360   33.0450   46.5840 O   0  0  0  0  0  0  0  0  0  0  0  0
   57.7490   32.6650   44.2770 C   0  0  0  0  0  0  0  0  0  0  0  0
   57.7950   29.7550   45.5810 C   0  0  0  0  0  0  0  0  0  0  0  0
   58.2280   28.4720   45.9940 C   0  0  0  0  0  0  0  0  0  0  0  0
   57.7250   27.3510   45.4070 C   0  0  0  0  0  0  0  0  0  0  0  0
   57.2000   26.1630   46.1160 C   0  0  0  0  0  0  0  0  0  0  0  0
   57.9370   25.1110   46.5220 N   0  0  0  0  0  0  0  0  0  0  0  0
   57.0140   24.2460   46.9930 C   0  0  0  0  0  0  0  0  0  0  0  0
   57.3210   23.1270   47.4830 O   0  0  0  0  0  0  0  0  0  0  0  0
   55.7360   24.6680   46.8930 N   0  0  0  0  0  0  0  0  0  0  0  0
   55.8720   25.8780   46.3240 C   0  0  0  0  0  0  0  0  0  0  0  0
   54.8020   26.7020   45.9990 O   0  0  0  0  0  0  0  0  0  0  0  0
  1  2  2  0
  2  3  1  0
  3  4  2  0
  4  5  1  0
  5  6  1  0
  6  7  1  0
  7  8  1  0
  8  9  1  0
  9 10  2  0
  9 11  1  0
 11 12  1  0
 12 13  1  0
 13 14  1  0
 14 15  1  0
 15 16  1  0
  8 17  1  0
 17 18  1  0
  4 19  1  0
 19 20  1  0
 20 21  2  0
 20 22  1  0
 19 23  2  0
 23 24  1  0
 24 25  2  0
 25 26  1  0
 26 27  1  0
 27 28  1  0
 28 29  2  0
 28 30  1  0
 30 31  1  0
 31 32  1  0
 24  2  1  0
 31 26  2  0
 18  5  1  0
 16 11  1  0
M  CHG  3  27  -1  30  -1  32  -1
M  END
>  <UniqueID>  (2390) 
8

>  <SMILES>  (2390) 
C=c1nc(N2CCC(C(=O)N3CCCCC3)CC2)c(C(C)=O)c/c1=C\c1[n-]c(=O)[n-]c1[O-]

>  <Energy>  (2390) 
118.45878793975108

>  <Genealogy>  (2390) 
C=c1nc(N2CCC(C(=O)N3CCCCC3)CC2)c(C(C)=O)cc1=Cc1[n-]c(=O)[n-]c1[O-] (protonated)
C=c1nc(N2CCC(C(=O)N3CCCCC3)CC2)c(C(C)=O)c/c1=C\c1[n-]c(=O)[n-]c1[O-] (cis-trans isomerization)
C=c1nc(N2CCC(C(=O)N3CCCCC3)CC2)c(C(C)=O)c/c1=C\c1[n-]c(=O)[n-]c1[O-] (3D coordinates assigned)
C=c1nc(N2CCC(C(=O)N3CCCCC3)CC2)c(C(C)=O)c/c1=C\c1[n-]c(=O)[n-]c1[O-] (nonaromatic ring conformer: 118.45878793975108 kcal/mol)

>  <smiles>  (2390) 
C=c1nc(N2CCC(C(=O)N3CCCCC3)CC2)c(C(C)=O)cc1=Cc1[nH]c(=O)[nH]c1O

>  <score_type>  (2390) 
oracle

>  <origin>  (2390) 
adg

>  <m_score__min__energy>  (2390) 
-16.949999999999999

>  <m_primary>  (2390) 
energy

$$$$
12:0
     RDKit          3D

 30 32  0  0  0  0  0  0  0  0999 V2000
   57.0070   34.2150   44.8690 C   0  0  0  0  0  0  0  0  0  0  0  0
   58.1030   34.0100   45.8720 C   0  0  0  0  0  0  0  0  0  0  0  0
   59.4120   34.4170   45.5810 C   0  0  0  0  0  0  0  0  0  0  0  0
   60.4270   34.2660   46.5310 C   0  0  0  0  0  0  0  0  0  0  0  0
   60.1430   33.7040   47.7860 C   0  0  0  0  0  0  0  0  0  0  0  0
   61.2230   33.5760   48.8200 C   0  0  0  0  0  0  0  0  0  0  0  0
   60.7670   34.1680   50.0700 N   0  0  0  0  0  0  0  0  0  0  0  0
   60.4140   33.3870   51.2160 C   0  0  0  0  0  0  0  0  0  0  0  0
   60.6710   33.8160   52.3740 O   0  0  0  0  0  0  0  0  0  0  0  0
   59.7480   32.0800   51.0540 C   0  0  0  0  0  0  0  0  0  0  0  0
   58.4040   31.8970   51.4130 C   0  0  0  0  0  0  0  0  0  0  0  0
   57.8130   30.6430   51.2410 C   0  0  0  0  0  0  0  0  0  0  0  0
   56.6070   30.4650   51.5600 O   0  0  0  0  0  0  0  0  0  0  0  0
   58.5600   29.5860   50.7170 C   0  0  0  0  0  0  0  0  0  0  0  0
   59.9030   29.7980   50.3670 C   0  0  0  0  0  0  0  0  0  0  0  0
   60.7300   28.7140   49.8060 C   0  0  0  0  0  0  0  0  0  0  0  0
   61.5190   28.0840   50.5630 O   0  0  0  0  0  0  0  0  0  0  0  0
   60.6010   28.3440   48.4260 N   0  0  0  0  0  0  0  0  0  0  0  0
   59.5710   28.7650   47.5190 C   0  0  0  0  0  0  0  0  0  0  0  0
   59.4390   30.1020   47.1080 C   0  0  0  0  0  0  0  0  0  0  0  0
   58.4080   30.4740   46.2400 C   0  0  0  0  0  0  0  0  0  0  0  0
   57.4820   29.5230   45.7780 C   0  0  0  0  0  0  0  0  0  0  0  0
   56.3910   29.9190   44.8580 C   0  0  0  0  0  0  0  0  0  0  0  0
   55.1520   29.2100   44.8520 N   0  0  0  0  0  0  0  0  0  0  0  0
   56.5460   30.8880   44.0680 O   0  0  0  0  0  0  0  0  0  0  0  0
   57.6060   28.1900   46.2130 C   0  0  0  0  0  0  0  0  0  0  0  0
   58.6360   27.8200   47.0800 C   0  0  0  0  0  0  0  0  0  0  0  0
   60.4520   31.0320   50.5440 N   0  0  0  0  0  0  0  0  0  0  0  0
   58.8260   33.3280   48.0890 C   0  0  0  0  0  0  0  0  0  0  0  0
   57.8120   33.4800   47.1390 C   0  0  0  0  0  0  0  0  0  0  0  0
  1  2  1  0
  2  3  2  0
  3  4  1  0
  4  5  2  0
  5  6  1  0
  6  7  1  0
  7  8  1  0
  8  9  2  0
  8 10  1  0
 10 11  2  0
 11 12  1  0
 12 13  2  0
 12 14  1  0
 14 15  2  0
 15 16  1  0
 16 17  2  0
 16 18  1  0
 18 19  1  0
 19 20  2  0
 20 21  1  0
 21 22  2  0
 22 23  1  0
 23 24  1  0
 23 25  2  0
 22 26  1  0
 26 27  2  0
 15 28  1  0
  5 29  1  0
 29 30  2  0
 30  2  1  0
 28 10  1  0
 27 19  1  0
M  CHG  4   7  -1  18  -1  24  -1  28  -1
M  END
>  <UniqueID>  (2391) 
12

>  <SMILES>  (2391) 
Cc1ccc(C[N-]C(=O)c2cc(=O)cc(C(=O)[N-]c3ccc(C([NH-])=O)cc3)[n-]2)cc1

>  <Energy>  (2391) 
49.46371061726334

>  <Genealogy>  (2391) 
Cc1ccc(C[N-]C(=O)c2cc(=O)cc(C(=O)[N-]c3ccc(C([NH-])=O)cc3)[n-]2)cc1 (protonated)
Cc1ccc(C[N-]C(=O)c2cc(=O)cc(C(=O)[N-]c3ccc(C([NH-])=O)cc3)[n-]2)cc1 (3D coordinates assigned)
Cc1ccc(C[N-]C(=O)c2cc(=O)cc(C(=O)[N-]c3ccc(C([NH-])=O)cc3)[n-]2)cc1 (optimized conformer: 49.46371061726334 kcal/mol)

>  <smiles>  (2391) 
Cc1ccc(CNC(=O)c2cc(=O)cc(C(=O)Nc3ccc(C(N)=O)cc3)[nH]2)cc1

>  <score_type>  (2391) 
oracle

>  <origin>  (2391) 
adg

>  <m_score__min__energy>  (2391) 
-15.210000000000001

>  <m_primary>  (2391) 
energy

$$$$
14:0
     RDKit          3D

 35 38  0  0  0  0  0  0  0  0999 V2000
   55.5290   29.5280   44.8160 O   0  0  0  0  0  0  0  0  0  0  0  0
   56.4690   30.3180   44.5360 C   0  0  0  0  0  0  0  0  0  0  0  0
   57.6840   29.8080   43.8620 C   0  0  0  0  0  0  0  0  0  0  0  0
   58.8440   29.5350   44.4760 C   0  0  0  0  0  0  0  0  0  0  0  0
   59.0210   28.6170   45.6220 C   0  0  0  0  0  0  0  0  0  0  0  0
   60.0140   28.8350   46.5900 C   0  0  0  0  0  0  0  0  0  0  0  0
   60.1160   27.9860   47.6940 C   0  0  0  0  0  0  0  0  0  0  0  0
   59.2080   26.9390   47.8620 C   0  0  0  0  0  0  0  0  0  0  0  0
   58.1770   26.7400   46.9370 C   0  0  0  0  0  0  0  0  0  0  0  0
   57.2330   25.6900   47.1960 N   0  0  0  0  0  0  0  0  0  0  0  0
   55.9180   25.1540   46.1920 S   0  0  0  0  0  0  0  0  0  0  0  0
   54.9840   26.3140   45.9970 O   0  0  0  0  0  0  0  0  0  0  0  0
   55.1440   24.0540   46.8600 O   0  0  0  0  0  0  0  0  0  0  0  0
   56.4870   24.6400   44.6170 N   0  0  0  0  0  0  0  0  0  0  0  0
   57.8190   24.0220   44.7150 C   0  0  0  0  0  0  0  0  0  0  0  0
   57.7440   22.6250   44.1160 C   0  0  0  0  0  0  0  0  0  0  0  0
   56.2720   22.2960   44.0890 C   0  0  0  0  0  0  0  0  0  0  0  0
   55.5950   23.6490   44.0040 C   0  0  0  0  0  0  0  0  0  0  0  0
   58.0980   27.5740   45.8080 C   0  0  0  0  0  0  0  0  0  0  0  0
   56.3200   31.7070   44.8520 N   0  0  0  0  0  0  0  0  0  0  0  0
   57.3460   32.5460   45.3930 C   0  0  0  0  0  0  0  0  0  0  0  0
   57.6730   33.7690   44.7890 C   0  0  0  0  0  0  0  0  0  0  0  0
   58.6830   34.5690   45.3280 C   0  0  0  0  0  0  0  0  0  0  0  0
   59.3770   34.1510   46.4660 C   0  0  0  0  0  0  0  0  0  0  0  0
   59.0720   32.9200   47.0630 C   0  0  0  0  0  0  0  0  0  0  0  0
   59.9230   32.4040   48.5190 S   0  0  0  0  0  0  0  0  0  0  0  0
   60.4290   33.6140   49.2520 O   0  0  0  0  0  0  0  0  0  0  0  0
   61.1080   31.5660   48.1270 O   0  0  0  0  0  0  0  0  0  0  0  0
   58.8880   31.4780   49.5760 N   0  0  0  0  0  0  0  0  0  0  0  0
   59.6240   30.3380   50.1470 C   0  0  0  0  0  0  0  0  0  0  0  0
   58.7830   29.6380   51.2330 C   0  0  0  0  0  0  0  0  0  0  0  0
   57.4530   30.1190   51.2380 O   0  0  0  0  0  0  0  0  0  0  0  0
   57.4400   31.4950   51.5710 C   0  0  0  0  0  0  0  0  0  0  0  0
   58.3540   32.3260   50.6500 C   0  0  0  0  0  0  0  0  0  0  0  0
   58.0700   32.1120   46.5100 C   0  0  0  0  0  0  0  0  0  0  0  0
  1  2  2  0
  2  3  1  0
  3  4  2  3
  4  5  1  0
  5  6  2  0
  6  7  1  0
  7  8  2  0
  8  9  1  0
  9 10  1  0
 10 11  1  0
 11 12  2  0
 11 13  2  0
 11 14  1  0
 14 15  1  0
 15 16  1  0
 16 17  1  0
 17 18  1  0
  9 19  2  0
  2 20  1  0
 20 21  1  0
 21 22  2  0
 22 23  1  0
 23 24  2  0
 24 25  1  0
 25 26  1  0
 26 27  2  0
 26 28  2  0
 26 29  1  0
 29 30  1  0
 30 31  1  0
 31 32  1  0
 32 33  1  0
 33 34  1  0
 25 35  2  0
 19  5  1  0
 35 21  1  0
 18 14  1  0
 34 29  1  0
M  CHG  2  10  -1  20  -1
M  END
>  <UniqueID>  (2392) 
14

>  <SMILES>  (2392) 
O=C(C=Cc1cccc([N-]S(=O)(=O)N2CCCC2)c1)[N-]c1cccc(S(=O)(=O)N2CCOCC2)c1

>  <Energy>  (2392) 
89.13101956706393

>  <Genealogy>  (2392) 
O=C(C=Cc1cccc([N-]S(=O)(=O)N2CCCC2)c1)[N-]c1cccc(S(=O)(=O)N2CCOCC2)c1 (protonated)
O=C(C=Cc1cccc([N-]S(=O)(=O)N2CCCC2)c1)[N-]c1cccc(S(=O)(=O)N2CCOCC2)c1 (3D coordinates assigned)
O=C(C=Cc1cccc([N-]S(=O)(=O)N2CCCC2)c1)[N-]c1cccc(S(=O)(=O)N2CCOCC2)c1 (nonaromatic ring conformer: 89.13101956706393 kcal/mol)

>  <smiles>  (2392) 
O=C(C=Cc1cccc(NS(=O)(=O)N2CCCC2)c1)Nc1cccc(S(=O)(=O)N2CCOCC2)c1

>  <score_type>  (2392) 
oracle

>  <origin>  (2392) 
adg

>  <m_score__min__energy>  (2392) 
-14.5

>  <m_primary>  (2392) 
energy

$$$$
15:0
     RDKit          3D

 28 30  0  0  0  0  0  0  0  0999 V2000
   57.7640   31.7060   42.6690 C   0  0  0  0  0  0  0  0  0  0  0  0
   57.9550   31.5940   43.9930 C   0  0  0  0  0  0  0  0  0  0  0  0
   58.0990   30.3990   44.7060 C   0  0  0  0  0  0  0  0  0  0  0  0
   58.0190   29.1430   44.2270 C   0  0  0  0  0  0  0  0  0  0  0  0
   57.4430   28.0120   44.9910 C   0  0  0  0  0  0  0  0  0  0  0  0
   56.0670   27.9720   45.2560 C   0  0  0  0  0  0  0  0  0  0  0  0
   55.2350   29.0040   44.8370 O   0  0  0  0  0  0  0  0  0  0  0  0
   55.5370   26.9230   45.9360 N   0  0  0  0  0  0  0  0  0  0  0  0
   56.3150   25.8950   46.3570 C   0  0  0  0  0  0  0  0  0  0  0  0
   55.8030   24.9370   46.9910 O   0  0  0  0  0  0  0  0  0  0  0  0
   57.6470   25.8960   46.0910 N   0  0  0  0  0  0  0  0  0  0  0  0
   58.2250   26.9200   45.4120 C   0  0  0  0  0  0  0  0  0  0  0  0
   59.4580   26.8690   45.1530 O   0  0  0  0  0  0  0  0  0  0  0  0
   58.3200   30.7570   46.0280 C   0  0  0  0  0  0  0  0  0  0  0  0
   58.3150   32.1340   46.0680 C   0  0  0  0  0  0  0  0  0  0  0  0
   58.5650   32.9340   47.2800 C   0  0  0  0  0  0  0  0  0  0  0  0
   57.6760   33.7480   47.6540 O   0  0  0  0  0  0  0  0  0  0  0  0
   59.8060   32.8250   48.0090 N   0  0  0  0  0  0  0  0  0  0  0  0
   60.7800   31.7750   47.6750 C   0  0  0  0  0  0  0  0  0  0  0  0
   61.9470   31.7410   48.6760 C   0  0  0  0  0  0  0  0  0  0  0  0
   62.5370   33.0770   48.9290 N   0  0  0  0  0  0  0  0  0  0  0  0
   63.8290   33.3230   48.2540 C   0  0  0  0  0  0  0  0  0  0  0  0
   63.7930   33.0910   46.7370 C   0  0  0  0  0  0  0  0  0  0  0  0
   61.6070   34.2290   48.8700 C   0  0  0  0  0  0  0  0  0  0  0  0
   60.1480   33.8050   49.0460 C   0  0  0  0  0  0  0  0  0  0  0  0
   58.0730   32.6500   44.8420 N   0  0  0  0  0  0  0  0  0  0  0  0
   58.0740   34.0810   44.5020 C   0  0  0  0  0  0  0  0  0  0  0  0
   56.7300   34.7100   44.8470 C   0  0  0  0  0  0  0  0  0  0  0  0
  1  2  2  0
  2  3  1  0
  3  4  2  3
  4  5  1  0
  5  6  2  0
  6  7  1  0
  6  8  1  0
  8  9  1  0
  9 10  2  0
  9 11  1  0
 11 12  1  0
 12 13  2  0
  3 14  1  0
 14 15  2  0
 15 16  1  0
 16 17  2  0
 16 18  1  0
 18 19  1  0
 19 20  1  0
 20 21  1  0
 21 22  1  0
 22 23  1  0
 21 24  1  0
 24 25  1  0
 15 26  1  0
 26 27  1  0
 27 28  1  0
 26  2  1  0
 12  5  1  0
 25 18  1  0
M  CHG  3   7  -1   8  -1  11  -1
M  END
>  <UniqueID>  (2393) 
15

>  <SMILES>  (2393) 
C=c1c(=Cc2c([O-])[n-]c(=O)[n-]c2=O)cc(C(=O)N2CCN(CC)CC2)n1CC

>  <Energy>  (2393) 
101.41813629468636

>  <Genealogy>  (2393) 
C=c1c(=Cc2c([O-])[n-]c(=O)[n-]c2=O)cc(C(=O)N2CCN(CC)CC2)n1CC (protonated)
C=c1c(=Cc2c([O-])[n-]c(=O)[n-]c2=O)cc(C(=O)N2CCN(CC)CC2)n1CC (3D coordinates assigned)
C=c1c(=Cc2c([O-])[n-]c(=O)[n-]c2=O)cc(C(=O)N2CCN(CC)CC2)n1CC (nonaromatic ring conformer: 101.41813629468636 kcal/mol)

>  <smiles>  (2393) 
C=c1c(=Cc2c(O)[nH]c(=O)[nH]c2=O)cc(C(=O)N2CCN(CC)CC2)n1CC

>  <score_type>  (2393) 
oracle

>  <origin>  (2393) 
adg

>  <m_score__min__energy>  (2393) 
-16.039999999999999

>  <m_primary>  (2393) 
energy

$$$$
16:0
     RDKit          3D

 35 38  0  0  0  0  0  0  0  0999 V2000
   57.7680   27.4450   44.1380 C   0  0  0  0  0  0  0  0  0  0  0  0
   58.2960   27.0410   45.3060 C   0  0  0  0  0  0  0  0  0  0  0  0
   58.0380   25.8310   45.9690 C   0  0  0  0  0  0  0  0  0  0  0  0
   57.4180   24.7080   45.5550 C   0  0  0  0  0  0  0  0  0  0  0  0
   55.9730   24.4450   45.6330 C   0  0  0  0  0  0  0  0  0  0  0  0
   55.4210   23.2480   45.3700 N   0  0  0  0  0  0  0  0  0  0  0  0
   54.0950   23.4950   45.4320 C   0  0  0  0  0  0  0  0  0  0  0  0
   53.2300   22.5970   45.2580 O   0  0  0  0  0  0  0  0  0  0  0  0
   53.7670   24.7800   45.6850 N   0  0  0  0  0  0  0  0  0  0  0  0
   54.9670   25.3720   45.7960 C   0  0  0  0  0  0  0  0  0  0  0  0
   55.1380   26.7350   46.0080 O   0  0  0  0  0  0  0  0  0  0  0  0
   58.5770   25.9620   47.2370 C   0  0  0  0  0  0  0  0  0  0  0  0
   59.1940   27.1950   47.2880 C   0  0  0  0  0  0  0  0  0  0  0  0
   59.9940   27.6790   48.4340 C   0  0  0  0  0  0  0  0  0  0  0  0
   61.1020   27.1310   48.6780 O   0  0  0  0  0  0  0  0  0  0  0  0
   59.5210   28.7400   49.2880 N   0  0  0  0  0  0  0  0  0  0  0  0
   58.6050   29.7710   48.7810 C   0  0  0  0  0  0  0  0  0  0  0  0
   59.0370   31.1550   49.2750 C   0  0  0  0  0  0  0  0  0  0  0  0
   59.3200   31.1610   50.7200 N   0  0  0  0  0  0  0  0  0  0  0  0
   59.5200   32.4140   51.4130 C   0  0  0  0  0  0  0  0  0  0  0  0
   59.6750   33.7060   50.6670 C   0  0  0  0  0  0  0  0  0  0  0  0
   59.5460   32.4420   52.6740 O   0  0  0  0  0  0  0  0  0  0  0  0
   59.2870   29.9000   51.4740 C   0  0  0  0  0  0  0  0  0  0  0  0
   59.9820   28.7860   50.6820 C   0  0  0  0  0  0  0  0  0  0  0  0
   59.0380   27.8470   46.1110 N   0  0  0  0  0  0  0  0  0  0  0  0
   59.5070   29.1780   45.8210 C   0  0  0  0  0  0  0  0  0  0  0  0
   60.7340   29.3750   45.6100 O   0  0  0  0  0  0  0  0  0  0  0  0
   58.5710   30.2630   45.7320 N   0  0  0  0  0  0  0  0  0  0  0  0
   58.9350   31.6540   45.7820 C   0  0  0  0  0  0  0  0  0  0  0  0
   58.0750   32.6070   45.2130 C   0  0  0  0  0  0  0  0  0  0  0  0
   58.3900   33.9680   45.2690 C   0  0  0  0  0  0  0  0  0  0  0  0
   59.5610   34.3900   45.9060 C   0  0  0  0  0  0  0  0  0  0  0  0
   59.9540   36.0980   45.9800 Cl  0  0  0  0  0  0  0  0  0  0  0  0
   60.4120   33.4510   46.4970 C   0  0  0  0  0  0  0  0  0  0  0  0
   60.0990   32.0890   46.4430 C   0  0  0  0  0  0  0  0  0  0  0  0
  1  2  2  0
  2  3  1  0
  3  4  2  3
  4  5  1  0
  5  6  1  0
  6  7  1  0
  7  8  2  0
  7  9  1  0
  9 10  1  0
 10 11  1  0
  3 12  1  0
 12 13  2  0
 13 14  1  0
 14 15  2  0
 14 16  1  0
 16 17  1  0
 17 18  1  0
 18 19  1  0
 19 20  1  0
 20 21  1  0
 20 22  2  0
 19 23  1  0
 23 24  1  0
 13 25  1  0
 25 26  1  0
 26 27  2  0
 26 28  1  0
 28 29  1  0
 29 30  2  0
 30 31  1  0
 31 32  2  0
 32 33  1  0
 32 34  1  0
 34 35  2  0
 25  2  1  0
 35 29  1  0
 10  5  2  0
 24 16  1  0
M  CHG  3   6  -1   9  -1  11  -1
M  END
>  <UniqueID>  (2394) 
16

>  <SMILES>  (2394) 
C=c1c(=Cc2[n-]c(=O)[n-]c2[O-])cc(C(=O)N2CCN(C(C)=O)CC2)n1C(=O)Nc1ccc(Cl)cc1

>  <Energy>  (2394) 
139.2206558053891

>  <Genealogy>  (2394) 
C=c1c(=Cc2[n-]c(=O)[n-]c2[O-])cc(C(=O)N2CCN(C(C)=O)CC2)n1C(=O)Nc1ccc(Cl)cc1 (protonated)
C=c1c(=Cc2[n-]c(=O)[n-]c2[O-])cc(C(=O)N2CCN(C(C)=O)CC2)n1C(=O)Nc1ccc(Cl)cc1 (3D coordinates assigned)
C=c1c(=Cc2[n-]c(=O)[n-]c2[O-])cc(C(=O)N2CCN(C(C)=O)CC2)n1C(=O)Nc1ccc(Cl)cc1 (nonaromatic ring conformer: 139.2206558053891 kcal/mol)

>  <smiles>  (2394) 
C=c1c(=Cc2[nH]c(=O)[nH]c2O)cc(C(=O)N2CCN(C(C)=O)CC2)n1C(=O)Nc1ccc(Cl)cc1

>  <score_type>  (2394) 
oracle

>  <origin>  (2394) 
adg

>  <m_score__min__energy>  (2394) 
-16.48

>  <m_primary>  (2394) 
energy

$$$$
24:0
     RDKit          3D

 35 38  0  0  0  0  0  0  0  0999 V2000
   57.7960   26.6310   43.7000 C   0  0  0  0  0  0  0  0  0  0  0  0
   57.6750   27.8550   44.2470 C   0  0  0  0  0  0  0  0  0  0  0  0
   57.3830   28.9220   43.3750 C   0  0  0  0  0  0  0  0  0  0  0  0
   57.4830   30.2440   43.7980 C   0  0  0  0  0  0  0  0  0  0  0  0
   57.8780   30.5410   45.1060 C   0  0  0  0  0  0  0  0  0  0  0  0
   58.0340   31.9510   45.5320 C   0  0  0  0  0  0  0  0  0  0  0  0
   57.0740   32.7540   45.3770 O   0  0  0  0  0  0  0  0  0  0  0  0
   59.2570   32.4250   46.1250 N   0  0  0  0  0  0  0  0  0  0  0  0
   59.8590   33.6850   45.6720 C   0  0  0  0  0  0  0  0  0  0  0  0
   60.2380   34.5420   46.8810 C   0  0  0  0  0  0  0  0  0  0  0  0
   60.9980   33.7290   47.8350 N   0  0  0  0  0  0  0  0  0  0  0  0
   62.4220   33.9000   47.9650 C   0  0  0  0  0  0  0  0  0  0  0  0
   63.1000   34.2370   46.9560 O   0  0  0  0  0  0  0  0  0  0  0  0
   63.1030   33.6940   49.2640 C   0  0  0  0  0  0  0  0  0  0  0  0
   62.4830   34.0740   50.4650 C   0  0  0  0  0  0  0  0  0  0  0  0
   63.1380   33.8960   51.6850 C   0  0  0  0  0  0  0  0  0  0  0  0
   64.4140   33.3300   51.7220 C   0  0  0  0  0  0  0  0  0  0  0  0
   65.0470   32.9250   50.5340 C   0  0  0  0  0  0  0  0  0  0  0  0
   66.4430   32.3520   50.5600 C   0  0  0  0  0  0  0  0  0  0  0  0
   66.9580   32.4630   51.8390 F   0  0  0  0  0  0  0  0  0  0  0  0
   67.2620   33.0410   49.6820 F   0  0  0  0  0  0  0  0  0  0  0  0
   66.4380   31.0180   50.1910 F   0  0  0  0  0  0  0  0  0  0  0  0
   64.3950   33.1370   49.3060 C   0  0  0  0  0  0  0  0  0  0  0  0
   60.3490   32.5080   48.3240 C   0  0  0  0  0  0  0  0  0  0  0  0
   59.9690   31.6240   47.1330 C   0  0  0  0  0  0  0  0  0  0  0  0
   58.1330   29.4920   46.0000 C   0  0  0  0  0  0  0  0  0  0  0  0
   57.9600   28.1410   45.6230 C   0  0  0  0  0  0  0  0  0  0  0  0
   58.0650   27.2170   46.6120 C   0  0  0  0  0  0  0  0  0  0  0  0
   57.3200   25.9470   46.7030 C   0  0  0  0  0  0  0  0  0  0  0  0
   57.8430   24.8170   47.2090 N   0  0  0  0  0  0  0  0  0  0  0  0
   56.8000   23.9590   47.2000 C   0  0  0  0  0  0  0  0  0  0  0  0
   56.8970   22.7680   47.5940 O   0  0  0  0  0  0  0  0  0  0  0  0
   55.6390   24.4810   46.7450 N   0  0  0  0  0  0  0  0  0  0  0  0
   55.9820   25.7430   46.4470 C   0  0  0  0  0  0  0  0  0  0  0  0
   55.0840   26.6970   45.9850 O   0  0  0  0  0  0  0  0  0  0  0  0
  1  2  2  0
  2  3  1  0
  3  4  2  0
  4  5  1  0
  5  6  1  0
  6  7  2  0
  6  8  1  0
  8  9  1  0
  9 10  1  0
 10 11  1  0
 11 12  1  0
 12 13  2  0
 12 14  1  0
 14 15  2  0
 15 16  1  0
 16 17  2  0
 17 18  1  0
 18 19  1  0
 19 20  1  0
 19 21  1  0
 19 22  1  0
 18 23  2  0
 11 24  1  0
 24 25  1  0
  5 26  2  0
 26 27  1  0
 27 28  2  3
 28 29  1  0
 29 30  1  0
 30 31  1  0
 31 32  2  0
 31 33  1  0
 33 34  1  0
 34 35  1  0
 27  2  1  0
 34 29  2  0
 25  8  1  0
 23 14  1  0
M  CHG  3  30  -1  33  -1  35  -1
M  END
>  <UniqueID>  (2395) 
24

>  <SMILES>  (2395) 
C=c1ccc(C(=O)N2CCN(C(=O)c3cccc(C(F)(F)F)c3)CC2)cc1=Cc1[n-]c(=O)[n-]c1[O-]

>  <Energy>  (2395) 
117.51517747389313

>  <Genealogy>  (2395) 
C=c1ccc(C(=O)N2CCN(C(=O)c3cccc(C(F)(F)F)c3)CC2)cc1=Cc1[n-]c(=O)[n-]c1[O-] (protonated)
C=c1ccc(C(=O)N2CCN(C(=O)c3cccc(C(F)(F)F)c3)CC2)cc1=Cc1[n-]c(=O)[n-]c1[O-] (3D coordinates assigned)
C=c1ccc(C(=O)N2CCN(C(=O)c3cccc(C(F)(F)F)c3)CC2)cc1=Cc1[n-]c(=O)[n-]c1[O-] (nonaromatic ring conformer: 117.51517747389313 kcal/mol)

>  <smiles>  (2395) 
C=c1ccc(C(=O)N2CCN(C(=O)c3cccc(C(F)(F)F)c3)CC2)cc1=Cc1[nH]c(=O)[nH]c1O

>  <score_type>  (2395) 
oracle

>  <origin>  (2395) 
adg

>  <m_score__min__energy>  (2395) 
-18.539999999999999

>  <m_primary>  (2395) 
energy

$$$$
28:0
     RDKit          3D

 31 33  0  0  0  0  0  0  0  0999 V2000
   60.8450   34.2260   49.4790 C   0  0  0  0  0  0  0  0  0  0  0  0
   60.0270   34.1470   50.6420 O   0  0  0  0  0  0  0  0  0  0  0  0
   59.1560   33.0840   50.9280 C   0  0  0  0  0  0  0  0  0  0  0  0
   58.2800   33.2200   52.0090 C   0  0  0  0  0  0  0  0  0  0  0  0
   57.4030   32.1860   52.3440 C   0  0  0  0  0  0  0  0  0  0  0  0
   57.3660   31.0100   51.5890 C   0  0  0  0  0  0  0  0  0  0  0  0
   56.4670   30.0030   51.9810 O   0  0  0  0  0  0  0  0  0  0  0  0
   55.1130   30.1950   52.2970 C   0  0  0  0  0  0  0  0  0  0  0  0
   54.6750   29.8930   53.5880 C   0  0  0  0  0  0  0  0  0  0  0  0
   53.3270   30.0270   53.9230 C   0  0  0  0  0  0  0  0  0  0  0  0
   52.4040   30.4770   52.9750 C   0  0  0  0  0  0  0  0  0  0  0  0
   51.1000   30.5690   53.3390 F   0  0  0  0  0  0  0  0  0  0  0  0
   52.8300   30.8180   51.6730 C   0  0  0  0  0  0  0  0  0  0  0  0
   51.8730   31.2820   50.6360 C   0  0  0  0  0  0  0  0  0  0  0  0
   51.4060   32.6300   50.6150 N   0  0  0  0  0  0  0  0  0  0  0  0
   51.4550   30.4800   49.7570 O   0  0  0  0  0  0  0  0  0  0  0  0
   54.1970   30.6950   51.3550 C   0  0  0  0  0  0  0  0  0  0  0  0
   58.2470   30.8580   50.4930 C   0  0  0  0  0  0  0  0  0  0  0  0
   58.2670   29.6200   49.7700 N   0  0  0  0  0  0  0  0  0  0  0  0
   58.9700   29.3590   48.5490 C   0  0  0  0  0  0  0  0  0  0  0  0
   59.8410   28.4500   48.4910 O   0  0  0  0  0  0  0  0  0  0  0  0
   58.7280   30.2320   47.3870 C   0  0  0  0  0  0  0  0  0  0  0  0
   59.4550   31.4080   47.1930 C   0  0  0  0  0  0  0  0  0  0  0  0
   59.1490   32.2180   46.0990 C   0  0  0  0  0  0  0  0  0  0  0  0
   59.7930   33.2910   45.9370 O   0  0  0  0  0  0  0  0  0  0  0  0
   58.1610   31.8540   45.2200 N   0  0  0  0  0  0  0  0  0  0  0  0
   57.8160   32.7280   44.0860 C   0  0  0  0  0  0  0  0  0  0  0  0
   57.4450   30.7060   45.4490 C   0  0  0  0  0  0  0  0  0  0  0  0
   56.5020   30.3690   44.6840 O   0  0  0  0  0  0  0  0  0  0  0  0
   57.7400   29.9150   46.5130 N   0  0  0  0  0  0  0  0  0  0  0  0
   59.1430   31.8950   50.1770 C   0  0  0  0  0  0  0  0  0  0  0  0
  1  2  1  0
  2  3  1  0
  3  4  2  0
  4  5  1  0
  5  6  2  0
  6  7  1  0
  7  8  1  0
  8  9  2  0
  9 10  1  0
 10 11  2  0
 11 12  1  0
 11 13  1  0
 13 14  1  0
 14 15  1  0
 14 16  2  0
 13 17  2  0
  6 18  1  0
 18 19  1  0
 19 20  1  0
 20 21  2  0
 20 22  1  0
 22 23  2  0
 23 24  1  0
 24 25  2  0
 24 26  1  0
 26 27  1  0
 26 28  1  0
 28 29  2  0
 28 30  1  0
 18 31  2  0
 31  3  1  0
 17  8  1  0
 30 22  1  0
M  CHG  3  15  -1  19  -1  30  -1
M  END
>  <UniqueID>  (2396) 
28

>  <SMILES>  (2396) 
COc1ccc(Oc2ccc(F)c(C([NH-])=O)c2)c([N-]C(=O)c2cc(=O)n(C)c(=O)[n-]2)c1

>  <Energy>  (2396) 
61.8607486993694

>  <Genealogy>  (2396) 
COc1ccc(Oc2ccc(F)c(C([NH-])=O)c2)c([N-]C(=O)c2cc(=O)n(C)c(=O)[n-]2)c1 (protonated)
COc1ccc(Oc2ccc(F)c(C([NH-])=O)c2)c([N-]C(=O)c2cc(=O)n(C)c(=O)[n-]2)c1 (3D coordinates assigned)
COc1ccc(Oc2ccc(F)c(C([NH-])=O)c2)c([N-]C(=O)c2cc(=O)n(C)c(=O)[n-]2)c1 (optimized conformer: 61.8607486993694 kcal/mol)

>  <smiles>  (2396) 
COc1ccc(Oc2ccc(F)c(C(N)=O)c2)c(NC(=O)c2cc(=O)n(C)c(=O)[nH]2)c1

>  <score_type>  (2396) 
oracle

>  <origin>  (2396) 
adg

>  <m_score__min__energy>  (2396) 
-14.07

>  <m_primary>  (2396) 
energy

$$$$
30:0
     RDKit          3D

 26 28  0  0  0  0  0  0  0  0999 V2000
   60.0320   29.2530   45.0900 C   0  0  0  0  0  0  0  0  0  0  0  0
   59.6290   29.0800   46.3610 C   0  0  0  0  0  0  0  0  0  0  0  0
   58.6670   28.1570   46.7980 C   0  0  0  0  0  0  0  0  0  0  0  0
   57.9620   27.2940   46.0320 C   0  0  0  0  0  0  0  0  0  0  0  0
   57.2990   26.0610   46.5120 C   0  0  0  0  0  0  0  0  0  0  0  0
   57.9160   24.9720   47.0040 N   0  0  0  0  0  0  0  0  0  0  0  0
   56.9010   24.1160   47.2490 C   0  0  0  0  0  0  0  0  0  0  0  0
   57.0840   22.9670   47.7300 O   0  0  0  0  0  0  0  0  0  0  0  0
   55.6760   24.5860   46.9340 N   0  0  0  0  0  0  0  0  0  0  0  0
   55.9460   25.8150   46.4650 C   0  0  0  0  0  0  0  0  0  0  0  0
   54.9760   26.6940   46.0010 O   0  0  0  0  0  0  0  0  0  0  0  0
   58.5590   28.3360   48.1700 C   0  0  0  0  0  0  0  0  0  0  0  0
   59.4480   29.3310   48.5140 C   0  0  0  0  0  0  0  0  0  0  0  0
   59.6050   29.8760   49.9030 C   0  0  0  0  0  0  0  0  0  0  0  0
   60.1050   29.7880   47.4220 N   0  0  0  0  0  0  0  0  0  0  0  0
   61.0870   30.8860   47.4240 C   0  0  0  0  0  0  0  0  0  0  0  0
   60.4080   32.2130   47.1770 C   0  0  0  0  0  0  0  0  0  0  0  0
   59.4590   32.3240   46.1460 C   0  0  0  0  0  0  0  0  0  0  0  0
   58.7970   33.5420   45.8950 C   0  0  0  0  0  0  0  0  0  0  0  0
   57.7820   33.6620   44.8130 C   0  0  0  0  0  0  0  0  0  0  0  0
   57.7680   32.7370   43.6330 C   0  0  0  0  0  0  0  0  0  0  0  0
   56.9020   34.5650   44.8780 O   0  0  0  0  0  0  0  0  0  0  0  0
   59.1110   34.6570   46.6910 C   0  0  0  0  0  0  0  0  0  0  0  0
   60.0600   34.5580   47.7100 C   0  0  0  0  0  0  0  0  0  0  0  0
   60.7090   33.3470   47.9570 C   0  0  0  0  0  0  0  0  0  0  0  0
   61.6520   33.2840   48.9780 O   0  0  0  0  0  0  0  0  0  0  0  0
  1  2  2  0
  2  3  1  0
  3  4  2  3
  4  5  1  0
  5  6  1  0
  6  7  1  0
  7  8  2  0
  7  9  1  0
  9 10  1  0
 10 11  1  0
  3 12  1  0
 12 13  2  0
 13 14  1  0
 13 15  1  0
 15 16  1  0
 16 17  1  0
 17 18  2  0
 18 19  1  0
 19 20  1  0
 20 21  1  0
 20 22  2  0
 19 23  2  0
 23 24  1  0
 24 25  2  0
 25 26  1  0
 15  2  1  0
 25 17  1  0
 10  5  2  0
M  CHG  4   6  -1   9  -1  11  -1  26  -1
M  END
>  <UniqueID>  (2397) 
30

>  <SMILES>  (2397) 
C=c1c(=Cc2[n-]c(=O)[n-]c2[O-])cc(C)n1Cc1cc(C(C)=O)ccc1[O-]

>  <Energy>  (2397) 
106.18906923002955

>  <Genealogy>  (2397) 
C=c1c(=Cc2[n-]c(=O)[n-]c2[O-])cc(C)n1Cc1cc(C(C)=O)ccc1[O-] (protonated)
C=c1c(=Cc2[n-]c(=O)[n-]c2[O-])cc(C)n1Cc1cc(C(C)=O)ccc1[O-] (3D coordinates assigned)
C=c1c(=Cc2[n-]c(=O)[n-]c2[O-])cc(C)n1Cc1cc(C(C)=O)ccc1[O-] (optimized conformer: 106.18906923002955 kcal/mol)

>  <smiles>  (2397) 
C=c1c(=Cc2[nH]c(=O)[nH]c2O)cc(C)n1Cc1cc(C(C)=O)ccc1O

>  <score_type>  (2397) 
oracle

>  <origin>  (2397) 
adg

>  <m_score__min__energy>  (2397) 
-15.77

>  <m_primary>  (2397) 
energy

$$$$
43:0
     RDKit          3D

 31 34  0  0  0  0  0  0  0  0999 V2000
   58.8630   35.0060   44.9500 C   0  0  0  0  0  0  0  0  0  0  0  0
   57.9140   34.0800   44.7600 C   0  0  0  0  0  0  0  0  0  0  0  0
   57.4000   33.2260   45.8940 C   0  0  0  0  0  0  0  0  0  0  0  0
   58.3890   33.0740   46.9900 N   0  0  1  0  0  0  0  0  0  0  0  0
   59.4900   32.1670   46.6980 C   0  0  0  0  0  0  0  0  0  0  0  0
   60.6230   32.6410   46.4090 O   0  0  0  0  0  0  0  0  0  0  0  0
   59.3540   30.6980   46.7400 C   0  0  0  0  0  0  0  0  0  0  0  0
   58.7830   29.9470   45.7350 C   0  0  0  0  0  0  0  0  0  0  0  0
   58.8590   28.6220   46.1400 C   0  0  0  0  0  0  0  0  0  0  0  0
   58.4470   27.5490   45.4360 C   0  0  0  0  0  0  0  0  0  0  0  0
   57.2000   26.8140   45.7140 C   0  0  0  0  0  0  0  0  0  0  0  0
   57.1740   25.5720   46.2300 N   0  0  0  0  0  0  0  0  0  0  0  0
   55.8560   25.3290   46.3940 C   0  0  0  0  0  0  0  0  0  0  0  0
   55.4200   24.2410   46.8520 O   0  0  0  0  0  0  0  0  0  0  0  0
   55.0430   26.3460   46.0390 N   0  0  0  0  0  0  0  0  0  0  0  0
   55.9090   27.2840   45.6220 C   0  0  0  0  0  0  0  0  0  0  0  0
   55.5260   28.5560   45.2150 O   0  0  0  0  0  0  0  0  0  0  0  0
   59.4970   28.6260   47.3840 C   0  0  0  0  0  0  0  0  0  0  0  0
   59.7700   27.5500   48.1390 C   0  0  0  0  0  0  0  0  0  0  0  0
   59.8010   29.9010   47.7400 N   0  0  0  0  0  0  0  0  0  0  0  0
   60.5300   30.3440   48.9390 C   0  0  0  0  0  0  0  0  0  0  0  0
   59.6120   31.0750   49.8870 C   0  0  0  0  0  0  0  0  0  0  0  0
   58.5220   30.4100   50.4730 C   0  0  0  0  0  0  0  0  0  0  0  0
   57.6790   31.0840   51.3620 C   0  0  0  0  0  0  0  0  0  0  0  0
   57.9210   32.4240   51.6790 C   0  0  0  0  0  0  0  0  0  0  0  0
   57.1020   33.0730   52.5420 F   0  0  0  0  0  0  0  0  0  0  0  0
   59.0110   33.0910   51.1090 C   0  0  0  0  0  0  0  0  0  0  0  0
   59.2510   34.3880   51.4200 F   0  0  0  0  0  0  0  0  0  0  0  0
   59.8560   32.4180   50.2200 C   0  0  0  0  0  0  0  0  0  0  0  0
   58.8900   34.4050   47.4030 C   0  0  0  0  0  0  0  0  0  0  0  0
   59.6100   35.1280   46.2510 C   0  0  0  0  0  0  0  0  0  0  0  0
  1  2  2  0
  2  3  1  0
  3  4  1  0
  4  5  1  6
  5  6  2  0
  5  7  1  0
  7  8  2  0
  8  9  1  0
  9 10  2  0
 10 11  1  0
 11 12  1  0
 12 13  1  0
 13 14  2  0
 13 15  1  0
 15 16  1  0
 16 17  1  0
  9 18  1  0
 18 19  2  0
 18 20  1  0
 20 21  1  0
 21 22  1  0
 22 23  2  0
 23 24  1  0
 24 25  2  0
 25 26  1  0
 25 27  1  0
 27 28  1  0
 27 29  2  0
  4 30  1  0
 30 31  1  0
 31  1  1  0
 20  7  1  0
 29 22  1  0
 16 11  2  0
M  CHG  4   4   1  12  -1  15  -1  17  -1
M  END
>  <UniqueID>  (2398) 
42

>  <SMILES>  (2398) 
C=c1/c(=C/c2[n-]c(=O)[n-]c2[O-])cc(C(=O)[N@@H+]2CC=CCC2)n1Cc1ccc(F)c(F)c1

>  <Energy>  (2398) 
130.7450087121225

>  <Genealogy>  (2398) 
C=c1c(=Cc2[n-]c(=O)[n-]c2[O-])cc(C(=O)[NH+]2CC=CCC2)n1Cc1ccc(F)c(F)c1 (protonated)
C=c1c(=Cc2[n-]c(=O)[n-]c2[O-])cc(C(=O)[N@@H+]2CC=CCC2)n1Cc1ccc(F)c(F)c1 (chirality)
C=c1/c(=C/c2[n-]c(=O)[n-]c2[O-])cc(C(=O)[N@@H+]2CC=CCC2)n1Cc1ccc(F)c(F)c1 (cis-trans isomerization)
C=c1/c(=C/c2[n-]c(=O)[n-]c2[O-])cc(C(=O)[N@@H+]2CC=CCC2)n1Cc1ccc(F)c(F)c1 (3D coordinates assigned)
C=c1/c(=C/c2[n-]c(=O)[n-]c2[O-])cc(C(=O)[N@@H+]2CC=CCC2)n1Cc1ccc(F)c(F)c1 (nonaromatic ring conformer: 130.7450087121225 kcal/mol)

>  <smiles>  (2398) 
C=c1c(=Cc2[nH]c(=O)[nH]c2O)cc(C(=O)N2CC=CCC2)n1Cc1ccc(F)c(F)c1

>  <score_type>  (2398) 
oracle

>  <origin>  (2398) 
adg

>  <m_score__min__energy>  (2398) 
-15.02

>  <m_primary>  (2398) 
energy

$$$$
53:0
     RDKit          3D

 36 39  0  0  0  0  0  0  0  0999 V2000
   58.3090   27.4070   43.0580 C   0  0  0  0  0  0  0  0  0  0  0  0
   58.3650   27.1130   44.3650 C   0  0  0  0  0  0  0  0  0  0  0  0
   57.7390   26.0360   45.0030 C   0  0  0  0  0  0  0  0  0  0  0  0
   56.9730   25.0820   44.4390 C   0  0  0  0  0  0  0  0  0  0  0  0
   55.6980   24.6060   44.9970 C   0  0  0  0  0  0  0  0  0  0  0  0
   55.2120   23.3700   44.7830 N   0  0  0  0  0  0  0  0  0  0  0  0
   53.9900   23.4020   45.3630 C   0  0  0  0  0  0  0  0  0  0  0  0
   53.2190   22.4010   45.3870 O   0  0  0  0  0  0  0  0  0  0  0  0
   53.6540   24.5920   45.9050 N   0  0  0  0  0  0  0  0  0  0  0  0
   54.7390   25.3470   45.6620 C   0  0  0  0  0  0  0  0  0  0  0  0
   54.8240   26.6960   45.9920 O   0  0  0  0  0  0  0  0  0  0  0  0
   58.0820   26.1240   46.3490 C   0  0  0  0  0  0  0  0  0  0  0  0
   58.8670   27.2510   46.4790 C   0  0  0  0  0  0  0  0  0  0  0  0
   59.4390   27.7350   47.7470 C   0  0  0  0  0  0  0  0  0  0  0  0
   59.7510   26.8910   48.6350 O   0  0  0  0  0  0  0  0  0  0  0  0
   59.5100   29.1550   48.0270 N   0  0  2  0  0  0  0  0  0  0  0  0
   60.9130   29.6490   47.9170 C   0  0  0  0  0  0  0  0  0  0  0  0
   61.2000   30.8890   48.8020 C   0  0  0  0  0  0  0  0  0  0  0  0
   59.9280   31.7470   49.0130 C   0  0  2  0  0  0  0  0  0  0  0  0
   60.1520   32.9760   49.8250 N   0  0  0  0  0  0  0  0  0  0  0  0
   60.7840   32.8100   51.1540 C   0  0  0  0  0  0  0  0  0  0  0  0
   62.2910   33.1010   51.1160 C   0  0  0  0  0  0  0  0  0  0  0  0
   62.5420   34.3690   50.5440 O   0  0  0  0  0  0  0  0  0  0  0  0
   62.1370   34.3640   49.1920 C   0  0  0  0  0  0  0  0  0  0  0  0
   60.6200   34.1700   49.0840 C   0  0  0  0  0  0  0  0  0  0  0  0
   58.7750   30.9150   49.6290 C   0  0  0  0  0  0  0  0  0  0  0  0
   58.9260   29.4050   49.3640 C   0  0  0  0  0  0  0  0  0  0  0  0
   59.0430   27.8550   45.2820 N   0  0  0  0  0  0  0  0  0  0  0  0
   59.8080   29.0920   45.0460 C   0  0  0  0  0  0  0  0  0  0  0  0
   58.9410   30.3060   45.2340 C   0  0  0  0  0  0  0  0  0  0  0  0
   59.1750   31.0880   46.1990 O   0  0  0  0  0  0  0  0  0  0  0  0
   57.8930   30.6430   44.3050 N   0  0  0  0  0  0  0  0  0  0  0  0
   56.6620   29.8480   44.3700 C   0  0  0  0  0  0  0  0  0  0  0  0
   58.0640   31.6490   43.2250 C   0  0  0  0  0  0  0  0  0  0  0  0
   57.0880   31.4220   42.0640 C   0  0  0  0  0  0  0  0  0  0  0  0
   57.9760   33.0800   43.7720 C   0  0  0  0  0  0  0  0  0  0  0  0
  1  2  2  0
  2  3  1  0
  3  4  2  0
  4  5  1  0
  5  6  1  0
  6  7  1  0
  7  8  2  0
  7  9  1  0
  9 10  1  0
 10 11  1  0
  3 12  1  0
 12 13  2  0
 13 14  1  0
 14 15  2  0
 16 14  1  1
 16 17  1  0
 17 18  1  0
 18 19  1  0
 19 20  1  1
 20 21  1  0
 21 22  1  0
 22 23  1  0
 23 24  1  0
 24 25  1  0
 19 26  1  0
 26 27  1  0
 13 28  1  0
 28 29  1  0
 29 30  1  0
 30 31  2  0
 30 32  1  0
 32 33  1  0
 32 34  1  0
 34 35  1  0
 34 36  1  0
 28  2  1  0
 10  5  2  0
 27 16  1  0
 25 20  1  0
M  CHG  4   6  -1   9  -1  11  -1  16   1
M  END
>  <UniqueID>  (2399) 
51

>  <SMILES>  (2399) 
C=c1/c(=C/c2[n-]c(=O)[n-]c2[O-])cc(C(=O)[NH+]2CCC(N3CCOCC3)CC2)n1CC(=O)N(C)C(C)C

>  <Energy>  (2399) 
162.6393130841291

>  <Genealogy>  (2399) 
C=c1c(=Cc2[n-]c(=O)[n-]c2[O-])cc(C(=O)[NH+]2CCC(N3CCOCC3)CC2)n1CC(=O)N(C)C(C)C (protonated)
C=c1/c(=C/c2[n-]c(=O)[n-]c2[O-])cc(C(=O)[NH+]2CCC(N3CCOCC3)CC2)n1CC(=O)N(C)C(C)C (cis-trans isomerization)
C=c1/c(=C/c2[n-]c(=O)[n-]c2[O-])cc(C(=O)[NH+]2CCC(N3CCOCC3)CC2)n1CC(=O)N(C)C(C)C (3D coordinates assigned)
C=c1/c(=C/c2[n-]c(=O)[n-]c2[O-])cc(C(=O)[NH+]2CCC(N3CCOCC3)CC2)n1CC(=O)N(C)C(C)C (nonaromatic ring conformer: 162.6393130841291 kcal/mol)

>  <smiles>  (2399) 
C=c1c(=Cc2[nH]c(=O)[nH]c2O)cc(C(=O)N2CCC(N3CCOCC3)CC2)n1CC(=O)N(C)C(C)C

>  <score_type>  (2399) 
oracle

>  <origin>  (2399) 
adg

>  <m_score__min__energy>  (2399) 
-16.170000000000002

>  <m_primary>  (2399) 
energy

$$$$
69:0
     RDKit          3D

 31 34  0  0  0  0  0  0  0  0999 V2000
   59.6820   29.1550   45.8450 C   0  0  0  0  0  0  0  0  0  0  0  0
   58.3830   29.2070   45.5120 C   0  0  0  0  0  0  0  0  0  0  0  0
   57.5860   28.1730   44.9970 C   0  0  0  0  0  0  0  0  0  0  0  0
   57.8160   26.8490   44.9320 C   0  0  0  0  0  0  0  0  0  0  0  0
   57.2600   25.8340   45.8440 C   0  0  0  0  0  0  0  0  0  0  0  0
   57.9810   24.8750   46.4550 N   0  0  0  0  0  0  0  0  0  0  0  0
   57.0850   24.2900   47.2800 C   0  0  0  0  0  0  0  0  0  0  0  0
   57.3810   23.3200   48.0240 O   0  0  0  0  0  0  0  0  0  0  0  0
   55.8500   24.8350   47.2520 N   0  0  0  0  0  0  0  0  0  0  0  0
   55.9840   25.8200   46.3480 C   0  0  0  0  0  0  0  0  0  0  0  0
   54.9610   26.6940   45.9930 O   0  0  0  0  0  0  0  0  0  0  0  0
   56.4310   28.7000   44.5350 N   0  0  0  0  0  0  0  0  0  0  0  0
   56.5220   30.0120   44.8190 C   0  0  0  0  0  0  0  0  0  0  0  0
   55.6020   30.8310   44.5510 O   0  0  0  0  0  0  0  0  0  0  0  0
   57.6760   30.3570   45.4260 N   0  0  0  0  0  0  0  0  0  0  0  0
   58.0640   31.6830   45.8330 C   0  0  0  0  0  0  0  0  0  0  0  0
   57.6110   32.8020   45.1190 C   0  0  0  0  0  0  0  0  0  0  0  0
   58.0080   34.0870   45.4990 C   0  0  0  0  0  0  0  0  0  0  0  0
   58.8550   34.2640   46.5950 C   0  0  0  0  0  0  0  0  0  0  0  0
   59.3080   33.1560   47.3290 C   0  0  0  0  0  0  0  0  0  0  0  0
   60.2100   33.3480   48.4850 C   0  0  0  0  0  0  0  0  0  0  0  0
   59.7850   33.0860   49.6440 O   0  0  0  0  0  0  0  0  0  0  0  0
   61.5640   33.8080   48.3140 N   0  0  0  0  0  0  0  0  0  0  0  0
   62.3800   33.2990   47.1970 C   0  0  0  0  0  0  0  0  0  0  0  0
   63.8790   33.3420   47.5340 C   0  0  0  0  0  0  0  0  0  0  0  0
   64.1240   32.9110   48.9930 C   0  0  0  0  0  0  0  0  0  0  0  0
   63.6540   31.5840   49.1830 O   0  0  0  0  0  0  0  0  0  0  0  0
   63.0220   31.4500   50.4370 C   0  0  0  0  0  0  0  0  0  0  0  0
   63.3880   33.8460   49.9850 C   0  0  0  0  0  0  0  0  0  0  0  0
   62.2090   34.6120   49.3590 C   0  0  0  0  0  0  0  0  0  0  0  0
   58.9220   31.8650   46.9290 C   0  0  0  0  0  0  0  0  0  0  0  0
  1  2  2  0
  2  3  1  0
  3  4  2  3
  4  5  1  0
  5  6  1  0
  6  7  1  0
  7  8  2  0
  7  9  1  0
  9 10  1  0
 10 11  1  0
  3 12  1  0
 12 13  1  0
 13 14  2  0
 13 15  1  0
 15 16  1  0
 16 17  2  0
 17 18  1  0
 18 19  2  0
 19 20  1  0
 20 21  1  0
 21 22  2  0
 21 23  1  0
 23 24  1  0
 24 25  1  0
 25 26  1  0
 26 27  1  0
 27 28  1  0
 26 29  1  0
 29 30  1  0
 20 31  2  0
 15  2  1  0
 31 16  1  0
 10  5  2  0
 30 23  1  0
M  CHG  3   6  -1   9  -1  12  -1
M  END
>  <UniqueID>  (2400) 
67

>  <SMILES>  (2400) 
C=c1c(=Cc2[n-]c(=O)[n-]c2O)[n-]c(=O)n1-c1cccc(C(=O)N2CCC(OC)CC2)c1

>  <Energy>  (2400) 
142.9173722869312

>  <Genealogy>  (2400) 
C=c1c(=Cc2[n-]c(=O)[n-]c2O)[n-]c(=O)n1-c1cccc(C(=O)N2CCC(OC)CC2)c1 (protonated)
C=c1c(=Cc2[n-]c(=O)[n-]c2O)[n-]c(=O)n1-c1cccc(C(=O)N2CCC(OC)CC2)c1 (3D coordinates assigned)
C=c1c(=Cc2[n-]c(=O)[n-]c2O)[n-]c(=O)n1-c1cccc(C(=O)N2CCC(OC)CC2)c1 (nonaromatic ring conformer: 142.9173722869312 kcal/mol)

>  <smiles>  (2400) 
C=c1c(=Cc2[nH]c(=O)[nH]c2O)[nH]c(=O)n1-c1cccc(C(=O)N2CCC(OC)CC2)c1

>  <score_type>  (2400) 
oracle

>  <origin>  (2400) 
adg

>  <m_score__min__energy>  (2400) 
-16.309999999999999

>  <m_primary>  (2400) 
energy

$$$$
77:0
     RDKit          3D

 28 31  0  0  0  0  0  0  0  0999 V2000
   54.0290   28.1260   53.4470 C   0  0  0  0  0  0  0  0  0  0  0  0
   54.4740   29.1930   52.7820 C   0  0  0  0  0  0  0  0  0  0  0  0
   55.7510   29.4840   52.6860 O   0  0  0  0  0  0  0  0  0  0  0  0
   55.8880   30.5860   51.9820 C   0  0  0  0  0  0  0  0  0  0  0  0
   57.1820   31.2400   51.6690 C   0  0  0  0  0  0  0  0  0  0  0  0
   57.1530   32.4120   51.2000 O   0  0  0  0  0  0  0  0  0  0  0  0
   58.4690   30.5770   51.8190 N   0  0  0  0  0  0  0  0  0  0  0  0
   59.5250   31.5400   52.2000 C   0  0  0  0  0  0  0  0  0  0  0  0
   60.0040   32.3830   51.0120 C   0  0  0  0  0  0  0  0  0  0  0  0
   60.2370   31.5500   49.8250 N   0  0  0  0  0  0  0  0  0  0  0  0
   60.7800   32.1390   48.6240 C   0  0  0  0  0  0  0  0  0  0  0  0
   61.4100   31.4140   47.8050 O   0  0  0  0  0  0  0  0  0  0  0  0
   60.6470   33.6260   48.3590 C   0  0  0  0  0  0  0  0  0  0  0  0
   61.0500   34.0140   46.9390 C   0  0  0  0  0  0  0  0  0  0  0  0
   59.6340   34.5090   46.6710 C   0  0  0  0  0  0  0  0  0  0  0  0
   59.2250   34.1260   48.0870 C   0  0  0  0  0  0  0  0  0  0  0  0
   60.1180   30.0910   49.9370 C   0  0  0  0  0  0  0  0  0  0  0  0
   58.8240   29.6910   50.6730 C   0  0  0  0  0  0  0  0  0  0  0  0
   54.6440   31.0510   51.5930 C   0  0  0  0  0  0  0  0  0  0  0  0
   53.7220   30.1480   52.1020 C   0  0  0  0  0  0  0  0  0  0  0  0
   52.3810   30.2200   52.0080 C   0  0  0  0  0  0  0  0  0  0  0  0
   51.5880   31.3910   52.4240 C   0  0  0  0  0  0  0  0  0  0  0  0
   51.2510   31.6350   53.7030 N   0  0  0  0  0  0  0  0  0  0  0  0
   50.4800   32.7410   53.6190 C   0  0  0  0  0  0  0  0  0  0  0  0
   49.9770   33.2950   54.6300 O   0  0  0  0  0  0  0  0  0  0  0  0
   50.2850   33.2020   52.3650 N   0  0  0  0  0  0  0  0  0  0  0  0
   50.9800   32.3290   51.6180 C   0  0  0  0  0  0  0  0  0  0  0  0
   51.0180   32.3650   50.2290 O   0  0  0  0  0  0  0  0  0  0  0  0
  1  2  2  0
  2  3  1  0
  3  4  1  0
  4  5  1  0
  5  6  2  0
  5  7  1  0
  7  8  1  0
  8  9  1  0
  9 10  1  0
 10 11  1  0
 11 12  2  0
 11 13  1  0
 13 14  1  0
 14 15  1  0
 15 16  1  0
 10 17  1  0
 17 18  1  0
  4 19  2  0
 19 20  1  0
 20 21  2  0
 21 22  1  0
 22 23  1  0
 23 24  1  0
 24 25  2  0
 24 26  1  0
 26 27  1  0
 27 28  1  0
 20  2  1  0
 27 22  2  0
 18  7  1  0
 16 13  1  0
M  CHG  4   7   1  23  -1  26  -1  28  -1
M  END
>  <UniqueID>  (2401) 
75

>  <SMILES>  (2401) 
C=c1oc(C(=O)[NH+]2CCN(C(=O)C3CCC3)CC2)c/c1=C\c1[n-]c(=O)[n-]c1[O-]

>  <Energy>  (2401) 
183.8770042491922

>  <Genealogy>  (2401) 
C=c1oc(C(=O)[NH+]2CCN(C(=O)C3CCC3)CC2)cc1=Cc1[n-]c(=O)[n-]c1[O-] (protonated)
C=c1oc(C(=O)[NH+]2CCN(C(=O)C3CCC3)CC2)c/c1=C\c1[n-]c(=O)[n-]c1[O-] (cis-trans isomerization)
C=c1oc(C(=O)[NH+]2CCN(C(=O)C3CCC3)CC2)c/c1=C\c1[n-]c(=O)[n-]c1[O-] (3D coordinates assigned)
C=c1oc(C(=O)[NH+]2CCN(C(=O)C3CCC3)CC2)c/c1=C\c1[n-]c(=O)[n-]c1[O-] (nonaromatic ring conformer: 183.8770042491922 kcal/mol)

>  <smiles>  (2401) 
C=c1oc(C(=O)N2CCN(C(=O)C3CCC3)CC2)cc1=Cc1[nH]c(=O)[nH]c1O

>  <score_type>  (2401) 
oracle

>  <origin>  (2401) 
adg

>  <m_score__min__energy>  (2401) 
-17.109999999999999

>  <m_primary>  (2401) 
energy

$$$$
5:0
     RDKit          3D

 33 35  0  0  0  0  0  0  0  0999 V2000
   60.2510   27.3930   47.0330 C   0  0  0  0  0  0  0  0  0  0  0  0
   59.4360   28.3710   46.6030 C   0  0  0  0  0  0  0  0  0  0  0  0
   58.2540   28.2150   45.8620 C   0  0  0  0  0  0  0  0  0  0  0  0
   57.7300   27.1370   45.2450 C   0  0  0  0  0  0  0  0  0  0  0  0
   57.1270   25.9730   45.9110 C   0  0  0  0  0  0  0  0  0  0  0  0
   57.8430   24.9580   46.4260 N   0  0  0  0  0  0  0  0  0  0  0  0
   56.9100   24.1990   47.0400 C   0  0  0  0  0  0  0  0  0  0  0  0
   57.1950   23.1280   47.6380 O   0  0  0  0  0  0  0  0  0  0  0  0
   55.6500   24.6830   46.9760 N   0  0  0  0  0  0  0  0  0  0  0  0
   55.8080   25.8140   46.2710 C   0  0  0  0  0  0  0  0  0  0  0  0
   54.7720   26.6960   45.9880 O   0  0  0  0  0  0  0  0  0  0  0  0
   57.6370   29.4530   45.8500 C   0  0  0  0  0  0  0  0  0  0  0  0
   58.4750   30.3260   46.5100 C   0  0  0  0  0  0  0  0  0  0  0  0
   58.1710   31.7530   46.7490 C   0  0  0  0  0  0  0  0  0  0  0  0
   58.2230   32.1940   47.9280 O   0  0  0  0  0  0  0  0  0  0  0  0
   57.8040   32.6380   45.6700 N   0  0  0  0  0  0  0  0  0  0  0  0
   58.1450   32.3090   44.2820 C   0  0  0  0  0  0  0  0  0  0  0  0
   57.1860   33.9300   45.9880 C   0  0  0  0  0  0  0  0  0  0  0  0
   59.5750   29.6760   46.9620 N   0  0  0  0  0  0  0  0  0  0  0  0
   60.6760   30.2840   47.7270 C   0  0  0  0  0  0  0  0  0  0  0  0
   60.5870   29.9060   49.1780 C   0  0  0  0  0  0  0  0  0  0  0  0
   61.5390   29.2760   49.7130 O   0  0  0  0  0  0  0  0  0  0  0  0
   59.4200   30.2520   49.9430 N   0  0  0  0  0  0  0  0  0  0  0  0
   59.2750   29.9610   51.3430 C   0  0  0  0  0  0  0  0  0  0  0  0
   60.3840   29.5750   52.1140 C   0  0  0  0  0  0  0  0  0  0  0  0
   60.2550   29.3140   53.4820 C   0  0  0  0  0  0  0  0  0  0  0  0
   61.3970   28.9280   54.1980 O   0  0  0  0  0  0  0  0  0  0  0  0
   62.5950   28.4420   53.6010 C   0  0  0  0  0  0  0  0  0  0  0  0
   58.9950   29.4520   54.0890 C   0  0  0  0  0  0  0  0  0  0  0  0
   57.8890   29.8520   53.3370 C   0  0  0  0  0  0  0  0  0  0  0  0
   58.0190   30.1140   51.9600 C   0  0  0  0  0  0  0  0  0  0  0  0
   56.9260   30.5130   51.1730 O   0  0  0  0  0  0  0  0  0  0  0  0
   55.6480   30.8760   51.6880 C   0  0  0  0  0  0  0  0  0  0  0  0
  1  2  2  0
  2  3  1  0
  3  4  2  3
  4  5  1  0
  5  6  1  0
  6  7  1  0
  7  8  2  0
  7  9  1  0
  9 10  1  0
 10 11  1  0
  3 12  1  0
 12 13  2  0
 13 14  1  0
 14 15  2  0
 14 16  1  0
 16 17  1  0
 16 18  1  0
 13 19  1  0
 19 20  1  0
 20 21  1  0
 21 22  2  0
 21 23  1  0
 23 24  1  0
 24 25  2  0
 25 26  1  0
 26 27  1  0
 27 28  1  0
 26 29  2  0
 29 30  1  0
 30 31  2  0
 31 32  1  0
 32 33  1  0
 19  2  1  0
 31 24  1  0
 10  5  2  0
M  CHG  3   6  -1   9  -1  11  -1
M  END
>  <UniqueID>  (2402) 
6

>  <SMILES>  (2402) 
C=c1c(=Cc2[n-]c(=O)[n-]c2[O-])cc(C(=O)N(C)C)n1CC(=O)Nc1cc(OC)ccc1OC

>  <Energy>  (2402) 
131.50794326919356

>  <Genealogy>  (2402) 
C=c1c(=Cc2[n-]c(=O)[n-]c2[O-])cc(C(=O)N(C)C)n1CC(=O)Nc1cc(OC)ccc1OC (protonated)
C=c1c(=Cc2[n-]c(=O)[n-]c2[O-])cc(C(=O)N(C)C)n1CC(=O)Nc1cc(OC)ccc1OC (3D coordinates assigned)
C=c1c(=Cc2[n-]c(=O)[n-]c2[O-])cc(C(=O)N(C)C)n1CC(=O)Nc1cc(OC)ccc1OC (optimized conformer: 131.50794326919356 kcal/mol)

>  <smiles>  (2402) 
C=c1c(=Cc2[nH]c(=O)[nH]c2O)cc(C(=O)N(C)C)n1CC(=O)Nc1cc(OC)ccc1OC

>  <score_type>  (2402) 
oracle

>  <origin>  (2402) 
adg

>  <m_score__min__energy>  (2402) 
-15.48

>  <m_primary>  (2402) 
energy

$$$$
17:0
     RDKit          3D

 31 34  0  0  0  0  0  0  0  0999 V2000
   58.5010   30.1460   44.9390 C   0  0  0  0  0  0  0  0  0  0  0  0
   58.5950   29.6540   46.1860 C   0  0  0  0  0  0  0  0  0  0  0  0
   58.2660   28.3550   46.5980 C   0  0  0  0  0  0  0  0  0  0  0  0
   57.7930   27.3570   45.8210 C   0  0  0  0  0  0  0  0  0  0  0  0
   57.1830   26.0980   46.3070 C   0  0  0  0  0  0  0  0  0  0  0  0
   57.8470   25.0060   46.7280 N   0  0  0  0  0  0  0  0  0  0  0  0
   56.8630   24.1310   47.0240 C   0  0  0  0  0  0  0  0  0  0  0  0
   57.0950   22.9740   47.4620 O   0  0  0  0  0  0  0  0  0  0  0  0
   55.6130   24.5910   46.8100 N   0  0  0  0  0  0  0  0  0  0  0  0
   55.8340   25.8350   46.3540 C   0  0  0  0  0  0  0  0  0  0  0  0
   54.8210   26.7110   45.9860 O   0  0  0  0  0  0  0  0  0  0  0  0
   58.5060   28.3160   47.9680 C   0  0  0  0  0  0  0  0  0  0  0  0
   58.9760   29.5630   48.3280 C   0  0  0  0  0  0  0  0  0  0  0  0
   59.3550   29.9590   49.7230 C   0  0  0  0  0  0  0  0  0  0  0  0
   59.0180   30.3790   47.2530 N   0  0  0  0  0  0  0  0  0  0  0  0
   59.4750   31.7430   47.2490 C   0  0  0  0  0  0  0  0  0  0  0  0
   60.7050   32.0670   47.8370 C   0  0  0  0  0  0  0  0  0  0  0  0
   61.1830   33.3880   47.8150 C   0  0  0  0  0  0  0  0  0  0  0  0
   62.4790   33.7050   48.3570 N   0  0  0  0  0  0  0  0  0  0  0  0
   62.6280   34.6560   49.4630 C   0  0  0  0  0  0  0  0  0  0  0  0
   63.0960   33.9330   50.7430 C   0  0  0  0  0  0  0  0  0  0  0  0
   63.8730   32.6000   50.4740 C   0  0  0  0  0  0  0  0  0  0  0  0
   62.9880   31.3860   50.5330 N   0  0  0  0  0  0  0  0  0  0  0  0
   63.6370   30.2630   51.2460 C   0  0  0  0  0  0  0  0  0  0  0  0
   61.7050   31.6800   51.2150 C   0  0  0  0  0  0  0  0  0  0  0  0
   64.6310   32.7450   49.1210 C   0  0  0  0  0  0  0  0  0  0  0  0
   63.6560   32.9270   47.9430 C   0  0  0  0  0  0  0  0  0  0  0  0
   60.4080   34.3860   47.2020 C   0  0  0  0  0  0  0  0  0  0  0  0
   59.1750   34.0680   46.6260 C   0  0  0  0  0  0  0  0  0  0  0  0
   58.7090   32.7510   46.6440 C   0  0  0  0  0  0  0  0  0  0  0  0
   57.5290   32.4510   46.0460 F   0  0  0  0  0  0  0  0  0  0  0  0
  1  2  2  0
  2  3  1  0
  3  4  2  0
  4  5  1  0
  5  6  1  0
  6  7  1  0
  7  8  2  0
  7  9  1  0
  9 10  1  0
 10 11  1  0
  3 12  1  0
 12 13  2  0
 13 14  1  0
 13 15  1  0
 15 16  1  0
 16 17  2  0
 17 18  1  0
 18 19  1  0
 19 20  1  0
 20 21  1  0
 21 22  1  0
 22 23  1  0
 23 24  1  0
 23 25  1  0
 22 26  1  0
 26 27  1  0
 18 28  2  0
 28 29  1  0
 29 30  2  0
 30 31  1  0
 15  2  1  0
 30 16  1  0
 10  5  2  0
 27 19  1  0
M  CHG  4   6  -1   9  -1  11  -1  23   1
M  END
>  <UniqueID>  (2403) 
17

>  <SMILES>  (2403) 
C=c1/c(=C/c2[n-]c(=O)[n-]c2[O-])cc(C)n1-c1cc(N2CCC([NH+](C)C)CC2)ccc1F

>  <Energy>  (2403) 
142.7963097036791

>  <Genealogy>  (2403) 
C=c1c(=Cc2[n-]c(=O)[n-]c2[O-])cc(C)n1-c1cc(N2CCC([NH+](C)C)CC2)ccc1F (protonated)
C=c1/c(=C/c2[n-]c(=O)[n-]c2[O-])cc(C)n1-c1cc(N2CCC([NH+](C)C)CC2)ccc1F (cis-trans isomerization)
C=c1/c(=C/c2[n-]c(=O)[n-]c2[O-])cc(C)n1-c1cc(N2CCC([NH+](C)C)CC2)ccc1F (3D coordinates assigned)
C=c1/c(=C/c2[n-]c(=O)[n-]c2[O-])cc(C)n1-c1cc(N2CCC([NH+](C)C)CC2)ccc1F (nonaromatic ring conformer: 142.7963097036791 kcal/mol)

>  <smiles>  (2403) 
C=c1c(=Cc2[nH]c(=O)[nH]c2O)cc(C)n1-c1cc(N2CCC(N(C)C)CC2)ccc1F

>  <score_type>  (2403) 
oracle

>  <origin>  (2403) 
adg

>  <m_score__min__energy>  (2403) 
-15.6

>  <m_primary>  (2403) 
energy

$$$$
29:0
     RDKit          3D

 37 40  0  0  0  0  0  0  0  0999 V2000
   59.2060   30.4690   45.4080 C   0  0  0  0  0  0  0  0  0  0  0  0
   59.2540   29.7390   46.5320 C   0  0  0  0  0  0  0  0  0  0  0  0
   58.9620   28.3730   46.6700 C   0  0  0  0  0  0  0  0  0  0  0  0
   58.3870   27.4980   45.8230 C   0  0  0  0  0  0  0  0  0  0  0  0
   57.1530   26.7370   46.0870 C   0  0  0  0  0  0  0  0  0  0  0  0
   57.1150   25.4510   46.4860 N   0  0  0  0  0  0  0  0  0  0  0  0
   55.8000   25.1390   46.4170 C   0  0  0  0  0  0  0  0  0  0  0  0
   55.3520   24.0110   46.7480 O   0  0  0  0  0  0  0  0  0  0  0  0
   55.0070   26.1340   45.9670 N   0  0  0  0  0  0  0  0  0  0  0  0
   55.8830   27.1310   45.7500 C   0  0  0  0  0  0  0  0  0  0  0  0
   55.5290   28.3750   45.2420 O   0  0  0  0  0  0  0  0  0  0  0  0
   59.3310   28.0290   47.9580 C   0  0  0  0  0  0  0  0  0  0  0  0
   59.7660   29.1810   48.5770 C   0  0  0  0  0  0  0  0  0  0  0  0
   60.1180   29.2510   50.0120 C   0  0  0  0  0  0  0  0  0  0  0  0
   60.7720   28.2940   50.5130 O   0  0  0  0  0  0  0  0  0  0  0  0
   59.8080   30.4100   50.8210 N   0  0  0  0  0  0  0  0  0  0  0  0
   58.3700   30.4220   51.1580 C   0  0  0  0  0  0  0  0  0  0  0  0
   58.0140   31.6570   51.9920 C   0  0  0  0  0  0  0  0  0  0  0  0
   58.9110   31.7570   53.1460 N   0  0  0  0  0  0  0  0  0  0  0  0
   58.3840   32.0840   54.4460 C   0  0  0  0  0  0  0  0  0  0  0  0
   57.2980   31.5640   54.8150 O   0  0  0  0  0  0  0  0  0  0  0  0
   59.1460   32.9740   55.4060 C   0  0  0  0  0  0  0  0  0  0  0  0
   59.5190   34.3840   54.8560 C   0  0  0  0  0  0  0  0  0  0  0  0
   58.8780   34.6430   53.4750 C   0  0  0  0  0  0  0  0  0  0  0  0
   61.0520   34.5380   54.7570 C   0  0  0  0  0  0  0  0  0  0  0  0
   58.9820   35.4430   55.8410 C   0  0  0  0  0  0  0  0  0  0  0  0
   60.3550   31.6250   52.9120 C   0  0  0  0  0  0  0  0  0  0  0  0
   60.6320   30.3900   52.0470 C   0  0  0  0  0  0  0  0  0  0  0  0
   59.7210   30.2200   47.7120 N   0  0  0  0  0  0  0  0  0  0  0  0
   59.9700   31.6010   48.0170 C   0  0  0  0  0  0  0  0  0  0  0  0
   59.0750   32.2710   48.6040 O   0  0  0  0  0  0  0  0  0  0  0  0
   61.2660   32.2300   47.6710 C   0  0  0  0  0  0  0  0  0  0  0  0
   61.3240   33.2760   46.7290 C   0  0  0  0  0  0  0  0  0  0  0  0
   62.5430   33.8930   46.4280 C   0  0  0  0  0  0  0  0  0  0  0  0
   63.7170   33.4770   47.0610 C   0  0  0  0  0  0  0  0  0  0  0  0
   63.6750   32.4270   47.9840 C   0  0  0  0  0  0  0  0  0  0  0  0
   62.4580   31.8050   48.2870 C   0  0  0  0  0  0  0  0  0  0  0  0
  1  2  2  0
  2  3  1  0
  3  4  2  3
  4  5  1  0
  5  6  1  0
  6  7  1  0
  7  8  2  0
  7  9  1  0
  9 10  1  0
 10 11  1  0
  3 12  1  0
 12 13  2  0
 13 14  1  0
 14 15  2  0
 14 16  1  0
 16 17  1  0
 17 18  1  0
 18 19  1  0
 19 20  1  0
 20 21  2  0
 20 22  1  0
 22 23  1  0
 23 24  1  0
 23 25  1  0
 23 26  1  0
 19 27  1  0
 27 28  1  0
 13 29  1  0
 29 30  1  0
 30 31  2  0
 30 32  1  0
 32 33  2  0
 33 34  1  0
 34 35  2  0
 35 36  1  0
 36 37  2  0
 29  2  1  0
 37 32  1  0
 10  5  2  0
 28 16  1  0
M  CHG  4   6  -1   9  -1  11  -1  16   1
M  END
>  <UniqueID>  (2404) 
29

>  <SMILES>  (2404) 
C=c1c(=Cc2[n-]c(=O)[n-]c2[O-])cc(C(=O)[NH+]2CCN(C(=O)CC(C)(C)C)CC2)n1C(=O)c1ccccc1

>  <Energy>  (2404) 
149.75419748180917

>  <Genealogy>  (2404) 
C=c1c(=Cc2[n-]c(=O)[n-]c2[O-])cc(C(=O)[NH+]2CCN(C(=O)CC(C)(C)C)CC2)n1C(=O)c1ccccc1 (protonated)
C=c1c(=Cc2[n-]c(=O)[n-]c2[O-])cc(C(=O)[NH+]2CCN(C(=O)CC(C)(C)C)CC2)n1C(=O)c1ccccc1 (3D coordinates assigned)
C=c1c(=Cc2[n-]c(=O)[n-]c2[O-])cc(C(=O)[NH+]2CCN(C(=O)CC(C)(C)C)CC2)n1C(=O)c1ccccc1 (nonaromatic ring conformer: 149.75419748180917 kcal/mol)

>  <smiles>  (2404) 
C=c1c(=Cc2[nH]c(=O)[nH]c2O)cc(C(=O)N2CCN(C(=O)CC(C)(C)C)CC2)n1C(=O)c1ccccc1

>  <score_type>  (2404) 
oracle

>  <origin>  (2404) 
adg

>  <m_score__min__energy>  (2404) 
-16.989999999999998

>  <m_primary>  (2404) 
energy

$$$$
37:0
     RDKit          3D

 33 36  0  0  0  0  0  0  0  0999 V2000
   51.9010   28.3480   53.5770 C   0  0  0  0  0  0  0  0  0  0  0  0
   53.1640   28.8030   53.5050 C   0  0  0  0  0  0  0  0  0  0  0  0
   53.5370   30.0970   53.1190 C   0  0  0  0  0  0  0  0  0  0  0  0
   52.7300   31.1160   52.7610 C   0  0  0  0  0  0  0  0  0  0  0  0
   52.1130   31.2520   51.4280 C   0  0  0  0  0  0  0  0  0  0  0  0
   52.1250   30.2700   50.5100 N   0  0  0  0  0  0  0  0  0  0  0  0
   51.3990   30.7800   49.4920 C   0  0  0  0  0  0  0  0  0  0  0  0
   51.1920   30.1470   48.4240 O   0  0  0  0  0  0  0  0  0  0  0  0
   50.9020   32.0150   49.7130 N   0  0  0  0  0  0  0  0  0  0  0  0
   51.3510   32.2970   50.9480 C   0  0  0  0  0  0  0  0  0  0  0  0
   51.0290   33.4610   51.6340 O   0  0  0  0  0  0  0  0  0  0  0  0
   54.9180   30.1110   53.1010 C   0  0  0  0  0  0  0  0  0  0  0  0
   55.3370   28.8580   53.4910 C   0  0  0  0  0  0  0  0  0  0  0  0
   56.7630   28.4820   53.4980 C   0  0  0  0  0  0  0  0  0  0  0  0
   57.0820   27.2630   53.4500 O   0  0  0  0  0  0  0  0  0  0  0  0
   57.7840   29.4930   53.4400 N   0  0  0  0  0  0  0  0  0  0  0  0
   57.6030   30.7670   54.1580 C   0  0  0  0  0  0  0  0  0  0  0  0
   58.7480   31.7360   53.8540 C   0  0  0  0  0  0  0  0  0  0  0  0
   59.0140   31.7250   52.4080 N   0  0  0  0  0  0  0  0  0  0  0  0
   58.6580   32.8660   51.5960 C   0  0  0  0  0  0  0  0  0  0  0  0
   57.8240   33.7090   52.0300 O   0  0  0  0  0  0  0  0  0  0  0  0
   59.2140   33.0520   50.2400 C   0  0  0  0  0  0  0  0  0  0  0  0
   58.6100   32.4420   49.1270 C   0  0  0  0  0  0  0  0  0  0  0  0
   59.1410   32.6320   47.8470 C   0  0  0  0  0  0  0  0  0  0  0  0
   60.2820   33.4210   47.6710 C   0  0  0  0  0  0  0  0  0  0  0  0
   60.8990   34.0160   48.7750 C   0  0  0  0  0  0  0  0  0  0  0  0
   60.3720   33.8280   50.0570 C   0  0  0  0  0  0  0  0  0  0  0  0
   59.3120   30.4330   51.7590 C   0  0  0  0  0  0  0  0  0  0  0  0
   59.0260   29.2470   52.6930 C   0  0  0  0  0  0  0  0  0  0  0  0
   54.2740   28.0540   53.7720 N   0  0  0  0  0  0  0  0  0  0  0  0
   54.2900   26.6560   54.2690 C   0  0  0  0  0  0  0  0  0  0  0  0
   53.7330   26.5820   55.6940 C   0  0  0  0  0  0  0  0  0  0  0  0
   53.5870   25.6700   53.3210 C   0  0  0  0  0  0  0  0  0  0  0  0
  1  2  2  0
  2  3  1  0
  3  4  2  3
  4  5  1  0
  5  6  1  0
  6  7  1  0
  7  8  2  0
  7  9  1  0
  9 10  1  0
 10 11  1  0
  3 12  1  0
 12 13  2  0
 13 14  1  0
 14 15  2  0
 14 16  1  0
 16 17  1  0
 17 18  1  0
 18 19  1  0
 19 20  1  0
 20 21  2  0
 20 22  1  0
 22 23  2  0
 23 24  1  0
 24 25  2  0
 25 26  1  0
 26 27  2  0
 19 28  1  0
 28 29  1  0
 13 30  1  0
 30 31  1  0
 31 32  1  0
 31 33  1  0
 30  2  1  0
 10  5  2  0
 29 16  1  0
 27 22  1  0
M  CHG  3   6  -1   9  -1  11  -1
M  END
>  <UniqueID>  (2405) 
36

>  <SMILES>  (2405) 
C=c1c(=Cc2[n-]c(=O)[n-]c2[O-])cc(C(=O)N2CCN(C(=O)c3ccccc3)CC2)n1C(C)C

>  <Energy>  (2405) 
138.11048209885374

>  <Genealogy>  (2405) 
C=c1c(=Cc2[n-]c(=O)[n-]c2[O-])cc(C(=O)N2CCN(C(=O)c3ccccc3)CC2)n1C(C)C (protonated)
C=c1c(=Cc2[n-]c(=O)[n-]c2[O-])cc(C(=O)N2CCN(C(=O)c3ccccc3)CC2)n1C(C)C (3D coordinates assigned)
C=c1c(=Cc2[n-]c(=O)[n-]c2[O-])cc(C(=O)N2CCN(C(=O)c3ccccc3)CC2)n1C(C)C (nonaromatic ring conformer: 138.11048209885374 kcal/mol)

>  <smiles>  (2405) 
C=c1c(=Cc2[nH]c(=O)[nH]c2O)cc(C(=O)N2CCN(C(=O)c3ccccc3)CC2)n1C(C)C

>  <score_type>  (2405) 
oracle

>  <origin>  (2405) 
adg

>  <m_score__min__energy>  (2405) 
-17.449999999999999

>  <m_primary>  (2405) 
energy

$$$$
38:0
     RDKit          3D

 27 29  0  0  0  0  0  0  0  0999 V2000
   57.2500   31.2190   42.7950 O   0  0  0  0  0  0  0  0  0  0  0  0
   56.8570   31.1440   43.9920 C   0  0  0  0  0  0  0  0  0  0  0  0
   55.5490   30.4620   44.2870 C   0  0  0  0  0  0  0  0  0  0  0  0
   55.7820   29.1610   44.9120 N   0  0  0  0  0  0  0  0  0  0  0  0
   56.9030   28.3080   44.6350 C   0  0  0  0  0  0  0  0  0  0  0  0
   57.6020   28.5260   43.6090 O   0  0  0  0  0  0  0  0  0  0  0  0
   57.2890   27.2100   45.5440 C   0  0  0  0  0  0  0  0  0  0  0  0
   58.6480   26.9260   45.7430 C   0  0  0  0  0  0  0  0  0  0  0  0
   59.0330   25.9280   46.6430 C   0  0  0  0  0  0  0  0  0  0  0  0
   58.0650   25.1970   47.3370 C   0  0  0  0  0  0  0  0  0  0  0  0
   56.7090   25.4540   47.1240 C   0  0  0  0  0  0  0  0  0  0  0  0
   56.3160   26.4510   46.2240 C   0  0  0  0  0  0  0  0  0  0  0  0
   54.9610   26.6710   45.9960 O   0  0  0  0  0  0  0  0  0  0  0  0
   57.6970   31.7160   45.0710 C   0  0  0  0  0  0  0  0  0  0  0  0
   57.9010   33.1040   45.1390 C   0  0  0  0  0  0  0  0  0  0  0  0
   58.7020   33.6530   46.1440 C   0  0  0  0  0  0  0  0  0  0  0  0
   59.2940   32.8250   47.1070 C   0  0  0  0  0  0  0  0  0  0  0  0
   60.2490   33.5270   48.4160 S   0  0  0  0  0  0  0  0  0  0  0  0
   59.4150   33.5770   49.6680 O   0  0  0  0  0  0  0  0  0  0  0  0
   60.6210   34.9380   48.0530 O   0  0  0  0  0  0  0  0  0  0  0  0
   61.7070   32.6050   48.7300 N   0  0  0  0  0  0  0  0  0  0  0  0
   62.2280   32.0030   47.4980 C   0  0  0  0  0  0  0  0  0  0  0  0
   63.3270   32.9040   46.9520 C   0  0  0  0  0  0  0  0  0  0  0  0
   63.7260   33.8050   48.1040 C   0  0  0  0  0  0  0  0  0  0  0  0
   62.7770   33.4630   49.2480 C   0  0  0  0  0  0  0  0  0  0  0  0
   59.0850   31.4420   47.0490 C   0  0  0  0  0  0  0  0  0  0  0  0
   58.2890   30.8900   46.0410 C   0  0  0  0  0  0  0  0  0  0  0  0
  1  2  2  0
  2  3  1  0
  3  4  1  0
  4  5  1  0
  5  6  2  0
  5  7  1  0
  7  8  2  0
  8  9  1  0
  9 10  2  0
 10 11  1  0
 11 12  2  0
 12 13  1  0
  2 14  1  0
 14 15  2  0
 15 16  1  0
 16 17  2  0
 17 18  1  0
 18 19  2  0
 18 20  2  0
 18 21  1  0
 21 22  1  0
 22 23  1  0
 23 24  1  0
 24 25  1  0
 17 26  1  0
 26 27  2  0
 12  7  1  0
 27 14  1  0
 25 21  1  0
M  CHG  2   4  -1  13  -1
M  END
>  <UniqueID>  (2406) 
37

>  <SMILES>  (2406) 
O=C(C[N-]C(=O)c1ccccc1[O-])c1ccc(S(=O)(=O)N2CCCC2)cc1

>  <Energy>  (2406) 
50.889542077572585

>  <Genealogy>  (2406) 
O=C(C[N-]C(=O)c1ccccc1[O-])c1ccc(S(=O)(=O)N2CCCC2)cc1 (protonated)
O=C(C[N-]C(=O)c1ccccc1[O-])c1ccc(S(=O)(=O)N2CCCC2)cc1 (3D coordinates assigned)
O=C(C[N-]C(=O)c1ccccc1[O-])c1ccc(S(=O)(=O)N2CCCC2)cc1 (nonaromatic ring conformer: 50.889542077572585 kcal/mol)

>  <smiles>  (2406) 
O=C(CNC(=O)c1ccccc1O)c1ccc(S(=O)(=O)N2CCCC2)cc1

>  <score_type>  (2406) 
oracle

>  <origin>  (2406) 
adg

>  <m_score__min__energy>  (2406) 
-14.710000000000001

>  <m_primary>  (2406) 
energy

$$$$
51:0
     RDKit          3D

 35 39  0  0  0  0  0  0  0  0999 V2000
   59.3850   28.4020   48.8230 C   0  0  0  0  0  0  0  0  0  0  0  0
   58.9250   29.3930   48.0430 C   0  0  0  0  0  0  0  0  0  0  0  0
   58.5860   29.3030   46.6830 C   0  0  0  0  0  0  0  0  0  0  0  0
   58.4270   28.2340   45.8790 C   0  0  0  0  0  0  0  0  0  0  0  0
   57.3410   27.2460   45.9700 C   0  0  0  0  0  0  0  0  0  0  0  0
   57.4420   26.0490   46.5780 N   0  0  0  0  0  0  0  0  0  0  0  0
   56.1800   25.5700   46.5350 C   0  0  0  0  0  0  0  0  0  0  0  0
   55.8660   24.4430   46.9990 O   0  0  0  0  0  0  0  0  0  0  0  0
   55.2780   26.3980   45.9640 N   0  0  0  0  0  0  0  0  0  0  0  0
   56.0280   27.4590   45.6270 C   0  0  0  0  0  0  0  0  0  0  0  0
   55.5210   28.6020   45.0220 O   0  0  0  0  0  0  0  0  0  0  0  0
   58.3830   30.6000   46.2500 C   0  0  0  0  0  0  0  0  0  0  0  0
   58.5390   31.4190   47.3450 C   0  0  0  0  0  0  0  0  0  0  0  0
   58.3530   32.8830   47.2950 C   0  0  0  0  0  0  0  0  0  0  0  0
   57.3080   33.3330   46.7500 O   0  0  0  0  0  0  0  0  0  0  0  0
   59.4120   33.7810   47.7180 N   0  0  0  0  0  0  0  0  0  0  0  0
   59.2060   35.1550   47.2070 C   0  0  0  0  0  0  0  0  0  0  0  0
   59.5650   35.3010   45.7080 C   0  0  0  0  0  0  0  0  0  0  0  0
   60.2490   34.1780   45.1850 O   0  0  0  0  0  0  0  0  0  0  0  0
   61.3030   33.8200   46.0490 C   0  0  0  0  0  0  0  0  0  0  0  0
   60.7490   33.2390   47.3630 C   0  0  0  0  0  0  0  0  0  0  0  0
   58.8570   30.6920   48.4440 N   0  0  0  0  0  0  0  0  0  0  0  0
   58.9580   31.1940   49.8250 C   0  0  0  0  0  0  0  0  0  0  0  0
   60.3400   31.7350   50.0850 C   0  0  0  0  0  0  0  0  0  0  0  0
   61.4770   31.0260   49.6740 C   0  0  0  0  0  0  0  0  0  0  0  0
   62.7550   31.5260   49.9370 C   0  0  0  0  0  0  0  0  0  0  0  0
   62.9220   32.7490   50.6130 C   0  0  0  0  0  0  0  0  0  0  0  0
   64.2860   33.2720   50.8900 C   0  0  0  0  0  0  0  0  0  0  0  0
   65.4940   32.7490   50.4290 C   0  0  0  0  0  0  0  0  0  0  0  0
   66.6180   33.4650   50.8680 C   0  0  0  0  0  0  0  0  0  0  0  0
   68.0150   33.1170   50.4610 C   0  0  0  0  0  0  0  0  0  0  0  0
   66.3110   34.5660   51.6570 C   0  0  0  0  0  0  0  0  0  0  0  0
   64.6420   34.6290   51.8270 S   0  0  0  0  0  0  0  0  0  0  0  0
   61.7760   33.4570   51.0210 C   0  0  0  0  0  0  0  0  0  0  0  0
   60.4990   32.9540   50.7590 C   0  0  0  0  0  0  0  0  0  0  0  0
  1  2  2  0
  2  3  1  0
  3  4  2  3
  4  5  1  0
  5  6  1  0
  6  7  1  0
  7  8  2  0
  7  9  1  0
  9 10  1  0
 10 11  1  0
  3 12  1  0
 12 13  2  0
 13 14  1  0
 14 15  2  0
 14 16  1  0
 16 17  1  0
 17 18  1  0
 18 19  1  0
 19 20  1  0
 20 21  1  0
 13 22  1  0
 22 23  1  0
 23 24  1  0
 24 25  2  0
 25 26  1  0
 26 27  2  0
 27 28  1  0
 28 29  2  0
 29 30  1  0
 30 31  1  0
 30 32  2  0
 32 33  1  0
 27 34  1  0
 34 35  2  0
 22  2  1  0
 35 24  1  0
 10  5  2  0
 21 16  1  0
 33 28  1  0
M  CHG  4   6  -1   9  -1  11  -1  16   1
M  END
>  <UniqueID>  (2407) 
49

>  <SMILES>  (2407) 
C=c1c(=Cc2[n-]c(=O)[n-]c2[O-])cc(C(=O)[NH+]2CCOCC2)n1Cc1ccc(-c2cc(C)cs2)cc1

>  <Energy>  (2407) 
179.3374609331022

>  <Genealogy>  (2407) 
C=c1c(=Cc2[n-]c(=O)[n-]c2[O-])cc(C(=O)[NH+]2CCOCC2)n1Cc1ccc(-c2cc(C)cs2)cc1 (protonated)
C=c1c(=Cc2[n-]c(=O)[n-]c2[O-])cc(C(=O)[NH+]2CCOCC2)n1Cc1ccc(-c2cc(C)cs2)cc1 (3D coordinates assigned)
C=c1c(=Cc2[n-]c(=O)[n-]c2[O-])cc(C(=O)[NH+]2CCOCC2)n1Cc1ccc(-c2cc(C)cs2)cc1 (nonaromatic ring conformer: 179.3374609331022 kcal/mol)

>  <smiles>  (2407) 
C=c1c(=Cc2[nH]c(=O)[nH]c2O)cc(C(=O)N2CCOCC2)n1Cc1ccc(-c2cc(C)cs2)cc1

>  <score_type>  (2407) 
oracle

>  <origin>  (2407) 
adg

>  <m_score__min__energy>  (2407) 
-14.73

>  <m_primary>  (2407) 
energy

$$$$
56:0
     RDKit          3D

 30 33  0  0  0  0  0  0  0  0999 V2000
   58.8900   35.8330   54.8760 C   0  0  0  0  0  0  0  0  0  0  0  0
   60.0020   34.9060   54.4850 C   0  0  0  0  0  0  0  0  0  0  0  0
   61.0620   34.9140   55.1680 O   0  0  0  0  0  0  0  0  0  0  0  0
   59.8660   33.9980   53.3700 N   0  0  0  0  0  0  0  0  0  0  0  0
   58.5350   33.7330   52.7970 C   0  0  0  0  0  0  0  0  0  0  0  0
   58.5680   32.5600   51.8170 C   0  0  0  0  0  0  0  0  0  0  0  0
   59.6750   32.7420   50.8720 N   0  0  0  0  0  0  0  0  0  0  0  0
   59.4490   32.6570   49.4520 C   0  0  0  0  0  0  0  0  0  0  0  0
   59.2480   33.8210   48.6920 C   0  0  0  0  0  0  0  0  0  0  0  0
   59.0110   33.7350   47.3170 C   0  0  0  0  0  0  0  0  0  0  0  0
   58.9520   32.4880   46.6860 C   0  0  0  0  0  0  0  0  0  0  0  0
   58.6280   32.4250   45.2920 N   0  0  0  0  0  0  0  0  0  0  0  0
   57.4010   31.8860   44.7880 C   0  0  0  0  0  0  0  0  0  0  0  0
   56.3020   32.3800   45.1730 O   0  0  0  0  0  0  0  0  0  0  0  0
   57.4070   30.6750   43.8900 C   0  0  0  0  0  0  0  0  0  0  0  0
   57.5110   29.4410   44.6730 N   0  0  0  0  0  0  0  0  0  0  0  0
   58.6430   28.7690   44.9810 C   0  0  0  0  0  0  0  0  0  0  0  0
   59.9240   29.2150   44.6770 O   0  0  0  0  0  0  0  0  0  0  0  0
   58.3400   27.5690   45.5890 C   0  0  0  0  0  0  0  0  0  0  0  0
   56.9710   27.4960   45.6540 C   0  0  0  0  0  0  0  0  0  0  0  0
   56.4880   28.6570   45.0820 C   0  0  0  0  0  0  0  0  0  0  0  0
   55.1440   28.9650   44.8970 O   0  0  0  0  0  0  0  0  0  0  0  0
   56.2140   26.2990   46.1280 C   0  0  0  0  0  0  0  0  0  0  0  0
   57.1430   25.1990   46.5980 C   0  0  0  0  0  0  0  0  0  0  0  0
   58.4920   25.2720   46.5390 C   0  0  0  0  0  0  0  0  0  0  0  0
   59.2590   26.4660   46.0020 C   0  0  0  0  0  0  0  0  0  0  0  0
   59.1880   31.3250   47.4360 C   0  0  0  0  0  0  0  0  0  0  0  0
   59.4230   31.4080   48.8100 C   0  0  0  0  0  0  0  0  0  0  0  0
   61.0150   33.0780   51.3780 C   0  0  0  0  0  0  0  0  0  0  0  0
   61.0310   33.2220   52.9060 C   0  0  0  0  0  0  0  0  0  0  0  0
  1  2  1  0
  2  3  2  0
  2  4  1  0
  4  5  1  0
  5  6  1  0
  6  7  1  0
  7  8  1  0
  8  9  2  0
  9 10  1  0
 10 11  2  0
 11 12  1  0
 12 13  1  0
 13 14  2  0
 13 15  1  0
 15 16  1  0
 16 17  1  0
 17 18  1  0
 17 19  2  0
 19 20  1  0
 20 21  2  0
 21 22  1  0
 20 23  1  0
 23 24  1  0
 24 25  2  0
 25 26  1  0
 11 27  1  0
 27 28  2  0
  7 29  1  0
 29 30  1  0
 30  4  1  0
 28  8  1  0
 21 16  1  0
 26 19  1  0
M  CHG  3  12  -1  18  -1  22  -1
M  END
>  <UniqueID>  (2408) 
53

>  <SMILES>  (2408) 
CC(=O)N1CCN(c2ccc([N-]C(=O)Cn3c([O-])c4c(c3[O-])CC=CC4)cc2)CC1

>  <Energy>  (2408) 
93.91967644378425

>  <Genealogy>  (2408) 
CC(=O)N1CCN(c2ccc([N-]C(=O)Cn3c([O-])c4c(c3[O-])CC=CC4)cc2)CC1 (protonated)
CC(=O)N1CCN(c2ccc([N-]C(=O)Cn3c([O-])c4c(c3[O-])CC=CC4)cc2)CC1 (3D coordinates assigned)
CC(=O)N1CCN(c2ccc([N-]C(=O)Cn3c([O-])c4c(c3[O-])CC=CC4)cc2)CC1 (nonaromatic ring conformer: 93.91967644378425 kcal/mol)

>  <smiles>  (2408) 
CC(=O)N1CCN(c2ccc(NC(=O)Cn3c(O)c4c(c3O)CC=CC4)cc2)CC1

>  <score_type>  (2408) 
oracle

>  <origin>  (2408) 
adg

>  <m_score__min__energy>  (2408) 
-14.970000000000001

>  <m_primary>  (2408) 
energy

$$$$
57:0
     RDKit          3D

 32 35  0  0  0  0  0  0  0  0999 V2000
   51.0100   33.3440   52.0030 O   0  0  0  0  0  0  0  0  0  0  0  0
   51.3230   32.2310   51.2310 C   0  0  0  0  0  0  0  0  0  0  0  0
   50.8870   32.0430   49.9740 N   0  0  0  0  0  0  0  0  0  0  0  0
   51.3930   30.8300   49.6640 C   0  0  0  0  0  0  0  0  0  0  0  0
   51.2000   30.2800   48.5490 O   0  0  0  0  0  0  0  0  0  0  0  0
   52.1130   30.2470   50.6480 N   0  0  0  0  0  0  0  0  0  0  0  0
   52.0890   31.1590   51.6340 C   0  0  0  0  0  0  0  0  0  0  0  0
   52.6440   30.9230   52.9740 C   0  0  0  0  0  0  0  0  0  0  0  0
   53.9140   30.5670   53.2510 C   0  0  0  0  0  0  0  0  0  0  0  0
   54.9190   30.5950   52.3020 C   0  0  0  0  0  0  0  0  0  0  0  0
   56.0550   30.0910   52.9020 C   0  0  0  0  0  0  0  0  0  0  0  0
   57.3300   29.8560   52.1910 C   0  0  0  0  0  0  0  0  0  0  0  0
   57.8980   28.7380   52.3100 O   0  0  0  0  0  0  0  0  0  0  0  0
   57.9110   30.8690   51.3450 N   0  0  0  0  0  0  0  0  0  0  0  0
   57.6970   32.2920   51.6550 C   0  0  0  0  0  0  0  0  0  0  0  0
   58.7690   33.1780   51.0140 C   0  0  0  0  0  0  0  0  0  0  0  0
   58.9180   32.8540   49.5890 N   0  0  0  0  0  0  0  0  0  0  0  0
   59.3850   33.8720   48.6820 C   0  0  0  0  0  0  0  0  0  0  0  0
   60.1160   34.8040   49.1180 O   0  0  0  0  0  0  0  0  0  0  0  0
   59.0250   33.8510   47.2470 C   0  0  0  0  0  0  0  0  0  0  0  0
   57.7180   33.5130   46.8520 C   0  0  0  0  0  0  0  0  0  0  0  0
   57.3680   33.5080   45.5000 C   0  0  0  0  0  0  0  0  0  0  0  0
   58.3130   33.8480   44.5290 C   0  0  0  0  0  0  0  0  0  0  0  0
   59.6100   34.2000   44.9120 C   0  0  0  0  0  0  0  0  0  0  0  0
   59.9680   34.2080   46.2640 C   0  0  0  0  0  0  0  0  0  0  0  0
   61.2380   34.5400   46.6090 F   0  0  0  0  0  0  0  0  0  0  0  0
   58.8450   31.4560   49.1380 C   0  0  0  0  0  0  0  0  0  0  0  0
   58.8870   30.4790   50.3180 C   0  0  0  0  0  0  0  0  0  0  0  0
   55.8080   29.7860   54.1980 N   0  0  0  0  0  0  0  0  0  0  0  0
   56.7830   29.3000   55.1840 C   0  0  0  0  0  0  0  0  0  0  0  0
   54.5040   30.0920   54.4340 C   0  0  0  0  0  0  0  0  0  0  0  0
   53.9470   30.0430   55.6540 C   0  0  0  0  0  0  0  0  0  0  0  0
  1  2  1  0
  2  3  1  0
  3  4  1  0
  4  5  2  0
  4  6  1  0
  6  7  1  0
  7  8  1  0
  8  9  2  0
  9 10  1  0
 10 11  2  0
 11 12  1  0
 12 13  2  0
 12 14  1  0
 14 15  1  0
 15 16  1  0
 16 17  1  0
 17 18  1  0
 18 19  2  0
 18 20  1  0
 20 21  2  0
 21 22  1  0
 22 23  2  0
 23 24  1  0
 24 25  2  0
 25 26  1  0
 17 27  1  0
 27 28  1  0
 11 29  1  0
 29 30  1  0
 29 31  1  0
 31 32  2  0
  7  2  2  0
 31  9  1  0
 28 14  1  0
 25 20  1  0
M  CHG  2   3  -1   6  -1
M  END
>  <UniqueID>  (2409) 
54

>  <SMILES>  (2409) 
C=c1/c(=C\c2[n-]c(=O)[n-]c2O)cc(C(=O)N2CCN(C(=O)c3ccccc3F)CC2)n1C

>  <Energy>  (2409) 
135.47624234601903

>  <Genealogy>  (2409) 
C=c1c(=Cc2[n-]c(=O)[n-]c2O)cc(C(=O)N2CCN(C(=O)c3ccccc3F)CC2)n1C (protonated)
C=c1/c(=C\c2[n-]c(=O)[n-]c2O)cc(C(=O)N2CCN(C(=O)c3ccccc3F)CC2)n1C (cis-trans isomerization)
C=c1/c(=C\c2[n-]c(=O)[n-]c2O)cc(C(=O)N2CCN(C(=O)c3ccccc3F)CC2)n1C (3D coordinates assigned)
C=c1/c(=C\c2[n-]c(=O)[n-]c2O)cc(C(=O)N2CCN(C(=O)c3ccccc3F)CC2)n1C (nonaromatic ring conformer: 135.47624234601903 kcal/mol)

>  <smiles>  (2409) 
C=c1c(=Cc2[nH]c(=O)[nH]c2O)cc(C(=O)N2CCN(C(=O)c3ccccc3F)CC2)n1C

>  <score_type>  (2409) 
oracle

>  <origin>  (2409) 
adg

>  <m_score__min__energy>  (2409) 
-14.35

>  <m_primary>  (2409) 
energy

$$$$
64:0
     RDKit          3D

 25 27  0  0  0  0  0  0  0  0999 V2000
   59.9670   33.1270   46.5930 C   0  0  0  0  0  0  0  0  0  0  0  0
   60.9450   33.4500   47.4510 C   0  0  0  0  0  0  0  0  0  0  0  0
   62.6620   33.0670   47.0860 S   0  0  0  0  0  0  0  0  0  0  0  0
   63.0820   33.7610   48.6880 C   0  0  0  0  0  0  0  0  0  0  0  0
   64.2600   33.7540   49.1290 O   0  0  0  0  0  0  0  0  0  0  0  0
   62.0140   34.3180   49.4410 N   0  0  0  0  0  0  0  0  0  0  0  0
   60.8000   34.1550   48.7300 C   0  0  0  0  0  0  0  0  0  0  0  0
   59.7160   34.6220   49.1670 O   0  0  0  0  0  0  0  0  0  0  0  0
   59.4720   31.7500   46.3770 C   0  0  0  0  0  0  0  0  0  0  0  0
   58.6470   31.4340   45.2800 C   0  0  0  0  0  0  0  0  0  0  0  0
   58.1960   32.4850   44.2890 C   0  0  0  0  0  0  0  0  0  0  0  0
   57.7560   31.8430   42.9780 C   0  0  0  0  0  0  0  0  0  0  0  0
   58.2770   30.0990   45.0630 C   0  0  0  0  0  0  0  0  0  0  0  0
   58.7160   29.0580   45.9080 C   0  0  0  0  0  0  0  0  0  0  0  0
   58.4510   27.7890   45.5030 C   0  0  0  0  0  0  0  0  0  0  0  0
   57.2590   26.9950   45.8600 C   0  0  0  0  0  0  0  0  0  0  0  0
   57.2850   25.7290   46.3190 N   0  0  0  0  0  0  0  0  0  0  0  0
   55.9780   25.3950   46.3880 C   0  0  0  0  0  0  0  0  0  0  0  0
   55.5860   24.2710   46.7940 O   0  0  0  0  0  0  0  0  0  0  0  0
   55.1240   26.3590   45.9800 N   0  0  0  0  0  0  0  0  0  0  0  0
   55.9530   27.3580   45.6370 C   0  0  0  0  0  0  0  0  0  0  0  0
   55.5240   28.5780   45.1280 O   0  0  0  0  0  0  0  0  0  0  0  0
   59.4260   29.4110   47.0990 C   0  0  0  0  0  0  0  0  0  0  0  0
   59.5940   28.5730   48.1370 C   0  0  0  0  0  0  0  0  0  0  0  0
   59.8570   30.7400   47.2670 C   0  0  0  0  0  0  0  0  0  0  0  0
  1  2  2  3
  2  3  1  0
  3  4  1  0
  4  5  2  0
  4  6  1  0
  6  7  1  0
  7  8  2  0
  1  9  1  0
  9 10  1  0
 10 11  1  0
 11 12  1  0
 10 13  2  0
 13 14  1  0
 14 15  2  0
 15 16  1  0
 16 17  1  0
 17 18  1  0
 18 19  2  0
 18 20  1  0
 20 21  1  0
 21 22  1  0
 14 23  1  0
 23 24  2  0
 23 25  1  0
  7  2  1  0
 25  9  2  0
 21 16  2  0
M  CHG  4   6  -1  17  -1  20  -1  22  -1
M  END
>  <UniqueID>  (2410) 
61

>  <SMILES>  (2410) 
C=c1cc(C=C2SC(=O)[N-]C2=O)c(CC)c/c1=C/c1[n-]c(=O)[n-]c1[O-]

>  <Energy>  (2410) 
112.37462694046773

>  <Genealogy>  (2410) 
C=c1cc(C=C2SC(=O)[N-]C2=O)c(CC)cc1=Cc1[n-]c(=O)[n-]c1[O-] (protonated)
C=c1cc(C=C2SC(=O)[N-]C2=O)c(CC)c/c1=C/c1[n-]c(=O)[n-]c1[O-] (cis-trans isomerization)
C=c1cc(C=C2SC(=O)[N-]C2=O)c(CC)c/c1=C/c1[n-]c(=O)[n-]c1[O-] (3D coordinates assigned)
C=c1cc(C=C2SC(=O)[N-]C2=O)c(CC)c/c1=C/c1[n-]c(=O)[n-]c1[O-] (nonaromatic ring conformer: 112.37462694046773 kcal/mol)

>  <smiles>  (2410) 
C=c1cc(C=C2SC(=O)NC2=O)c(CC)cc1=Cc1[nH]c(=O)[nH]c1O

>  <score_type>  (2410) 
oracle

>  <origin>  (2410) 
adg

>  <m_score__min__energy>  (2410) 
-16.879999999999999

>  <m_primary>  (2410) 
energy

$$$$
68:0
     RDKit          3D

 32 35  0  0  0  0  0  0  0  0999 V2000
   54.1200   28.0090   53.1090 C   0  0  0  0  0  0  0  0  0  0  0  0
   54.7150   29.1330   52.6740 C   0  0  0  0  0  0  0  0  0  0  0  0
   54.0920   30.2030   52.0160 C   0  0  0  0  0  0  0  0  0  0  0  0
   52.8630   30.3100   51.4710 C   0  0  0  0  0  0  0  0  0  0  0  0
   51.7800   31.1740   51.9710 C   0  0  0  0  0  0  0  0  0  0  0  0
   51.4860   31.3120   53.2760 N   0  0  0  0  0  0  0  0  0  0  0  0
   50.5240   32.2570   53.2800 C   0  0  0  0  0  0  0  0  0  0  0  0
   49.9740   32.6580   54.3370 O   0  0  0  0  0  0  0  0  0  0  0  0
   50.2050   32.7490   52.0640 N   0  0  0  0  0  0  0  0  0  0  0  0
   51.0190   32.0660   51.2430 C   0  0  0  0  0  0  0  0  0  0  0  0
   51.0780   32.2890   49.8700 O   0  0  0  0  0  0  0  0  0  0  0  0
   55.0220   31.2230   51.9660 C   0  0  0  0  0  0  0  0  0  0  0  0
   56.1900   30.7380   52.5220 C   0  0  0  0  0  0  0  0  0  0  0  0
   57.4310   31.5380   52.6280 C   0  0  0  0  0  0  0  0  0  0  0  0
   57.3850   32.7950   52.6860 O   0  0  0  0  0  0  0  0  0  0  0  0
   58.7010   30.8680   52.6420 N   0  0  0  0  0  0  0  0  0  0  0  0
   59.5620   30.6500   51.4750 C   0  0  0  0  0  0  0  0  0  0  0  0
   59.7980   31.9750   50.7300 C   0  0  0  0  0  0  0  0  0  0  0  0
   60.5980   31.7630   49.4320 C   0  0  0  0  0  0  0  0  0  0  0  0
   60.2060   30.5470   48.6600 N   0  0  0  0  0  0  0  0  0  0  0  0
   60.1830   30.8080   47.2050 C   0  0  0  0  0  0  0  0  0  0  0  0
   59.7490   32.2230   46.9190 C   0  0  0  0  0  0  0  0  0  0  0  0
   60.7100   33.2160   46.6550 C   0  0  0  0  0  0  0  0  0  0  0  0
   60.3110   34.5300   46.3850 C   0  0  0  0  0  0  0  0  0  0  0  0
   58.9540   34.8620   46.3810 C   0  0  0  0  0  0  0  0  0  0  0  0
   57.9920   33.8800   46.6440 C   0  0  0  0  0  0  0  0  0  0  0  0
   58.3860   32.5650   46.9150 C   0  0  0  0  0  0  0  0  0  0  0  0
   58.9190   29.9700   49.0920 C   0  0  0  0  0  0  0  0  0  0  0  0
   59.0020   29.5360   50.5590 C   0  0  0  0  0  0  0  0  0  0  0  0
   56.0150   29.4520   52.9330 N   0  0  0  0  0  0  0  0  0  0  0  0
   57.0170   28.5860   53.5760 C   0  0  0  0  0  0  0  0  0  0  0  0
   57.2040   28.9750   55.0410 C   0  0  0  0  0  0  0  0  0  0  0  0
  1  2  2  0
  2  3  1  0
  3  4  2  3
  4  5  1  0
  5  6  1  0
  6  7  1  0
  7  8  2  0
  7  9  1  0
  9 10  1  0
 10 11  1  0
  3 12  1  0
 12 13  2  0
 13 14  1  0
 14 15  2  0
 14 16  1  0
 16 17  1  0
 17 18  1  0
 18 19  1  0
 19 20  1  0
 20 21  1  0
 21 22  1  0
 22 23  2  0
 23 24  1  0
 24 25  2  0
 25 26  1  0
 26 27  2  0
 20 28  1  0
 28 29  1  0
 13 30  1  0
 30 31  1  0
 31 32  1  0
 30  2  1  0
 10  5  2  0
 29 17  1  0
 27 22  1  0
M  CHG  3   6  -1   9  -1  16  -1
M  END
>  <UniqueID>  (2411) 
65

>  <SMILES>  (2411) 
C=c1c(=Cc2[n-]c(=O)[n-]c2O)cc(C(=O)[N-]C2CCN(Cc3ccccc3)CC2)n1CC

>  <Energy>  (2411) 
137.60236874057296

>  <Genealogy>  (2411) 
C=c1c(=Cc2[n-]c(=O)[n-]c2O)cc(C(=O)[N-]C2CCN(Cc3ccccc3)CC2)n1CC (protonated)
C=c1c(=Cc2[n-]c(=O)[n-]c2O)cc(C(=O)[N-]C2CCN(Cc3ccccc3)CC2)n1CC (3D coordinates assigned)
C=c1c(=Cc2[n-]c(=O)[n-]c2O)cc(C(=O)[N-]C2CCN(Cc3ccccc3)CC2)n1CC (nonaromatic ring conformer: 137.60236874057296 kcal/mol)

>  <smiles>  (2411) 
C=c1c(=Cc2[nH]c(=O)[nH]c2O)cc(C(=O)NC2CCN(Cc3ccccc3)CC2)n1CC

>  <score_type>  (2411) 
oracle

>  <origin>  (2411) 
adg

>  <m_score__min__energy>  (2411) 
-15.24

>  <m_primary>  (2411) 
energy

$$$$
76:0
     RDKit          3D

 34 37  0  0  0  0  0  0  0  0999 V2000
   55.4940   26.6470   46.3480 O   0  0  0  0  0  0  0  0  0  0  0  0
   56.6740   26.7530   45.9180 C   0  0  0  0  0  0  0  0  0  0  0  0
   57.4580   25.5710   45.6820 N   0  0  0  0  0  0  0  0  0  0  0  0
   56.9140   24.2910   45.3110 C   0  0  0  0  0  0  0  0  0  0  0  0
   57.6320   23.3830   44.5070 C   0  0  0  0  0  0  0  0  0  0  0  0
   57.0900   22.1310   44.2000 C   0  0  0  0  0  0  0  0  0  0  0  0
   55.8410   21.7620   44.7020 C   0  0  0  0  0  0  0  0  0  0  0  0
   55.1260   22.6470   45.5170 C   0  0  0  0  0  0  0  0  0  0  0  0
   53.8130   22.2600   46.0590 C   0  0  0  0  0  0  0  0  0  0  0  0
   52.8100   22.3280   45.2990 O   0  0  0  0  0  0  0  0  0  0  0  0
   53.6640   21.8160   47.4260 N   0  0  0  0  0  0  0  0  0  0  0  0
   52.4020   21.1910   47.8460 C   0  0  0  0  0  0  0  0  0  0  0  0
   52.2120   21.3370   49.3580 C   0  0  0  0  0  0  0  0  0  0  0  0
   53.3570   20.8850   50.0530 O   0  0  0  0  0  0  0  0  0  0  0  0
   54.4500   21.7340   49.7620 C   0  0  0  0  0  0  0  0  0  0  0  0
   54.8430   21.6320   48.2860 C   0  0  0  0  0  0  0  0  0  0  0  0
   55.6660   23.9040   45.8230 C   0  0  0  0  0  0  0  0  0  0  0  0
   57.2630   28.1030   45.6980 C   0  0  0  0  0  0  0  0  0  0  0  0
   56.4880   29.1510   45.1790 C   0  0  0  0  0  0  0  0  0  0  0  0
   55.1450   28.9680   44.8720 O   0  0  0  0  0  0  0  0  0  0  0  0
   57.0440   30.3700   44.9830 N   0  0  0  0  0  0  0  0  0  0  0  0
   58.3430   30.6200   45.2760 C   0  0  0  0  0  0  0  0  0  0  0  0
   58.7960   31.7800   45.0840 O   0  0  0  0  0  0  0  0  0  0  0  0
   59.1400   29.6250   45.7820 N   0  0  0  0  0  0  0  0  0  0  0  0
   60.5430   29.9060   46.1590 C   0  0  0  0  0  0  0  0  0  0  0  0
   60.6410   30.4790   47.5810 C   0  0  0  0  0  0  0  0  0  0  0  0
   61.5140   31.7110   47.6350 C   0  0  0  0  0  0  0  0  0  0  0  0
   62.8530   31.6050   47.7220 C   0  0  0  0  0  0  0  0  0  0  0  0
   63.6970   32.8520   47.7140 C   0  0  0  0  0  0  0  0  0  0  0  0
   63.2330   33.8220   46.6090 C   0  0  0  0  0  0  0  0  0  0  0  0
   61.6910   33.9000   46.4390 C   0  0  0  0  0  0  0  0  0  0  0  0
   60.9150   33.0930   47.4940 C   0  0  0  0  0  0  0  0  0  0  0  0
   58.6200   28.3700   45.9790 C   0  0  0  0  0  0  0  0  0  0  0  0
   59.3630   27.4400   46.3990 O   0  0  0  0  0  0  0  0  0  0  0  0
  1  2  2  0
  2  3  1  0
  3  4  1  0
  4  5  2  0
  5  6  1  0
  6  7  2  0
  7  8  1  0
  8  9  1  0
  9 10  2  0
  9 11  1  0
 11 12  1  0
 12 13  1  0
 13 14  1  0
 14 15  1  0
 15 16  1  0
  8 17  2  0
  2 18  1  0
 18 19  2  0
 19 20  1  0
 19 21  1  0
 21 22  1  0
 22 23  2  0
 22 24  1  0
 24 25  1  0
 25 26  1  0
 26 27  1  0
 27 28  2  0
 28 29  1  0
 29 30  1  0
 30 31  1  0
 31 32  1  0
 24 33  1  0
 33 34  2  0
 17  4  1  0
 33 18  1  0
 16 11  1  0
 32 27  1  0
M  CHG  2  20  -1  21  -1
M  END
>  <UniqueID>  (2412) 
73

>  <SMILES>  (2412) 
O=C(Nc1cccc(C(=O)N2CCOCC2)c1)c1c([O-])[n-]c(=O)n(CCC2=CCCCC2)c1=O

>  <Energy>  (2412) 
82.57520262224911

>  <Genealogy>  (2412) 
O=C(Nc1cccc(C(=O)N2CCOCC2)c1)c1c([O-])[n-]c(=O)n(CCC2=CCCCC2)c1=O (protonated)
O=C(Nc1cccc(C(=O)N2CCOCC2)c1)c1c([O-])[n-]c(=O)n(CCC2=CCCCC2)c1=O (3D coordinates assigned)
O=C(Nc1cccc(C(=O)N2CCOCC2)c1)c1c([O-])[n-]c(=O)n(CCC2=CCCCC2)c1=O (nonaromatic ring conformer: 82.57520262224911 kcal/mol)

>  <smiles>  (2412) 
O=C(Nc1cccc(C(=O)N2CCOCC2)c1)c1c(O)[nH]c(=O)n(CCC2=CCCCC2)c1=O

>  <score_type>  (2412) 
oracle

>  <origin>  (2412) 
adg

>  <m_score__min__energy>  (2412) 
-14.31

>  <m_primary>  (2412) 
energy

$$$$
80:0
     RDKit          3D

 32 34  0  0  0  0  0  0  0  0999 V2000
   58.0960   28.5550   45.5010 C   0  0  0  0  0  0  0  0  0  0  0  0
   56.6270   28.6220   45.3420 C   0  0  0  0  0  0  0  0  0  0  0  0
   56.1190   29.6680   44.8580 O   0  0  0  0  0  0  0  0  0  0  0  0
   55.8060   27.4790   45.6190 N   0  0  0  0  0  0  0  0  0  0  0  0
   56.2100   26.2160   46.1640 C   0  0  0  0  0  0  0  0  0  0  0  0
   57.2520   26.1000   47.0990 C   0  0  0  0  0  0  0  0  0  0  0  0
   57.6200   24.8450   47.5860 C   0  0  0  0  0  0  0  0  0  0  0  0
   56.9670   23.6910   47.1380 C   0  0  0  0  0  0  0  0  0  0  0  0
   57.3540   22.4550   47.6440 O   0  0  0  0  0  0  0  0  0  0  0  0
   55.9370   23.7920   46.1830 C   0  0  0  0  0  0  0  0  0  0  0  0
   55.2250   22.5720   45.6580 C   0  0  0  0  0  0  0  0  0  0  0  0
   55.3970   22.4620   44.2470 O   0  0  0  0  0  0  0  0  0  0  0  0
   56.4950   21.8300   43.6540 C   0  0  0  0  0  0  0  0  0  0  0  0
   56.3420   21.0700   42.6600 O   0  0  0  0  0  0  0  0  0  0  0  0
   57.8520   22.0170   44.2410 C   0  0  0  0  0  0  0  0  0  0  0  0
   55.5770   25.0590   45.6940 C   0  0  0  0  0  0  0  0  0  0  0  0
   58.9680   29.4680   45.0460 C   0  0  0  0  0  0  0  0  0  0  0  0
   58.6680   30.9020   44.9010 C   0  0  0  0  0  0  0  0  0  0  0  0
   58.1150   31.3960   43.7080 C   0  0  0  0  0  0  0  0  0  0  0  0
   57.8120   32.7540   43.5870 C   0  0  0  0  0  0  0  0  0  0  0  0
   58.0620   33.6260   44.6490 C   0  0  0  0  0  0  0  0  0  0  0  0
   58.6280   33.1470   45.8420 C   0  0  0  0  0  0  0  0  0  0  0  0
   58.8650   34.0840   46.9960 C   0  0  0  0  0  0  0  0  0  0  0  0
   60.2920   33.9870   47.4760 C   0  0  0  0  0  0  0  0  0  0  0  0
   61.3390   33.8370   46.5560 C   0  0  0  0  0  0  0  0  0  0  0  0
   62.6210   33.7480   46.9900 N   0  0  0  0  0  0  0  0  0  0  0  0
   62.9180   33.8110   48.3140 C   0  0  0  0  0  0  0  0  0  0  0  0
   64.1130   33.7150   48.6950 O   0  0  0  0  0  0  0  0  0  0  0  0
   61.9250   33.9780   49.2250 N   0  0  0  0  0  0  0  0  0  0  0  0
   60.6260   34.0710   48.8390 C   0  0  0  0  0  0  0  0  0  0  0  0
   59.7320   34.2280   49.7130 O   0  0  0  0  0  0  0  0  0  0  0  0
   58.9370   31.7820   45.9580 C   0  0  0  0  0  0  0  0  0  0  0  0
  1  2  1  0
  2  3  2  0
  2  4  1  0
  4  5  1  0
  5  6  2  0
  6  7  1  0
  7  8  2  0
  8  9  1  0
  8 10  1  0
 10 11  1  0
 11 12  1  0
 12 13  1  0
 13 14  2  0
 13 15  1  0
 10 16  2  0
  1 17  2  0
 17 18  1  0
 18 19  2  0
 19 20  1  0
 20 21  2  0
 21 22  1  0
 22 23  1  0
 23 24  1  0
 24 25  2  0
 25 26  1  0
 26 27  1  0
 27 28  2  0
 27 29  1  0
 29 30  1  0
 30 31  2  0
 22 32  2  0
 16  5  1  0
 32 18  1  0
 30 24  1  0
M  CHG  4   4  -1   9  -1  26  -1  29  -1
M  END
>  <UniqueID>  (2413) 
76

>  <SMILES>  (2413) 
CC(=O)OCc1cc([N-]C(=O)/C=C\c2cccc(Cc3c[n-]c(=O)[n-]c3=O)c2)ccc1[O-]

>  <Energy>  (2413) 
57.10774291562899

>  <Genealogy>  (2413) 
CC(=O)OCc1cc([N-]C(=O)C=Cc2cccc(Cc3c[n-]c(=O)[n-]c3=O)c2)ccc1[O-] (protonated)
CC(=O)OCc1cc([N-]C(=O)/C=C\c2cccc(Cc3c[n-]c(=O)[n-]c3=O)c2)ccc1[O-] (cis-trans isomerization)
CC(=O)OCc1cc([N-]C(=O)/C=C\c2cccc(Cc3c[n-]c(=O)[n-]c3=O)c2)ccc1[O-] (3D coordinates assigned)
CC(=O)OCc1cc([N-]C(=O)/C=C\c2cccc(Cc3c[n-]c(=O)[n-]c3=O)c2)ccc1[O-] (optimized conformer: 57.10774291562899 kcal/mol)

>  <smiles>  (2413) 
CC(=O)OCc1cc(NC(=O)C=Cc2cccc(Cc3c[nH]c(=O)[nH]c3=O)c2)ccc1O

>  <score_type>  (2413) 
oracle

>  <origin>  (2413) 
adg

>  <m_score__min__energy>  (2413) 
-16.699999999999999

>  <m_primary>  (2413) 
energy

$$$$
81:0
     RDKit          3D

 27 29  0  0  0  0  0  0  0  0999 V2000
   53.9140   29.2430   54.6030 C   0  0  0  0  0  0  0  0  0  0  0  0
   54.4920   29.8150   53.5330 C   0  0  0  0  0  0  0  0  0  0  0  0
   53.8230   30.4130   52.4550 C   0  0  0  0  0  0  0  0  0  0  0  0
   52.4870   30.5370   52.2980 C   0  0  0  0  0  0  0  0  0  0  0  0
   51.7950   30.8630   51.0300 C   0  0  0  0  0  0  0  0  0  0  0  0
   51.7350   30.0800   49.9370 N   0  0  0  0  0  0  0  0  0  0  0  0
   51.0470   30.8290   49.0480 C   0  0  0  0  0  0  0  0  0  0  0  0
   50.7790   30.4260   47.8870 O   0  0  0  0  0  0  0  0  0  0  0  0
   50.6720   32.0430   49.5020 N   0  0  0  0  0  0  0  0  0  0  0  0
   51.1570   32.0510   50.7530 C   0  0  0  0  0  0  0  0  0  0  0  0
   51.0190   33.1220   51.6270 O   0  0  0  0  0  0  0  0  0  0  0  0
   54.8110   30.8160   51.5670 C   0  0  0  0  0  0  0  0  0  0  0  0
   56.0200   30.4770   52.1360 C   0  0  0  0  0  0  0  0  0  0  0  0
   57.3190   30.7110   51.4770 C   0  0  0  0  0  0  0  0  0  0  0  0
   58.0430   29.7150   51.1960 O   0  0  0  0  0  0  0  0  0  0  0  0
   57.6870   32.0330   51.0160 N   0  0  1  0  0  0  0  0  0  0  0  0
   57.7270   32.9740   52.1520 C   0  0  0  0  0  0  0  0  0  0  0  0
   58.9930   31.9590   50.3230 C   0  0  0  0  0  0  0  0  0  0  0  0
   59.0180   32.8170   49.0790 C   0  0  0  0  0  0  0  0  0  0  0  0
   59.9720   33.8380   48.9370 C   0  0  0  0  0  0  0  0  0  0  0  0
   59.9770   34.6440   47.7940 C   0  0  0  0  0  0  0  0  0  0  0  0
   59.0280   34.4380   46.7880 C   0  0  0  0  0  0  0  0  0  0  0  0
   58.0720   33.4270   46.9250 C   0  0  0  0  0  0  0  0  0  0  0  0
   58.0650   32.6190   48.0670 C   0  0  0  0  0  0  0  0  0  0  0  0
   55.8370   29.8740   53.3340 N   0  0  0  0  0  0  0  0  0  0  0  0
   56.8820   29.2360   54.1510 C   0  0  0  0  0  0  0  0  0  0  0  0
   56.9250   27.7360   53.8830 C   0  0  0  0  0  0  0  0  0  0  0  0
  1  2  2  0
  2  3  1  0
  3  4  2  0
  4  5  1  0
  5  6  1  0
  6  7  1  0
  7  8  2  0
  7  9  1  0
  9 10  1  0
 10 11  1  0
  3 12  1  0
 12 13  2  0
 13 14  1  0
 14 15  2  0
 14 16  1  0
 16 17  1  1
 16 18  1  0
 18 19  1  0
 19 20  2  0
 20 21  1  0
 21 22  2  0
 22 23  1  0
 23 24  2  0
 13 25  1  0
 25 26  1  0
 26 27  1  0
 25  2  1  0
 10  5  2  0
 24 19  1  0
M  CHG  4   6  -1   9  -1  11  -1  16   1
M  END
>  <UniqueID>  (2414) 
77

>  <SMILES>  (2414) 
C=c1/c(=C/c2[n-]c(=O)[n-]c2[O-])cc(C(=O)[N@@H+](C)Cc2ccccc2)n1CC

>  <Energy>  (2414) 
116.96311214770506

>  <Genealogy>  (2414) 
C=c1c(=Cc2[n-]c(=O)[n-]c2[O-])cc(C(=O)[NH+](C)Cc2ccccc2)n1CC (protonated)
C=c1c(=Cc2[n-]c(=O)[n-]c2[O-])cc(C(=O)[N@@H+](C)Cc2ccccc2)n1CC (chirality)
C=c1/c(=C/c2[n-]c(=O)[n-]c2[O-])cc(C(=O)[N@@H+](C)Cc2ccccc2)n1CC (cis-trans isomerization)
C=c1/c(=C/c2[n-]c(=O)[n-]c2[O-])cc(C(=O)[N@@H+](C)Cc2ccccc2)n1CC (3D coordinates assigned)
C=c1/c(=C/c2[n-]c(=O)[n-]c2[O-])cc(C(=O)[N@@H+](C)Cc2ccccc2)n1CC (optimized conformer: 116.96311214770506 kcal/mol)

>  <smiles>  (2414) 
C=c1c(=Cc2[nH]c(=O)[nH]c2O)cc(C(=O)N(C)Cc2ccccc2)n1CC

>  <score_type>  (2414) 
oracle

>  <origin>  (2414) 
adg

>  <m_score__min__energy>  (2414) 
-16.550000000000001

>  <m_primary>  (2414) 
energy

$$$$
0:0
     RDKit          3D

 29 32  0  0  0  0  0  0  0  0999 V2000
   53.8090   28.5220   54.1640 C   0  0  0  0  0  0  0  0  0  0  0  0
   54.3980   29.3950   53.3320 C   0  0  0  0  0  0  0  0  0  0  0  0
   53.7870   30.1550   52.3180 C   0  0  0  0  0  0  0  0  0  0  0  0
   52.4900   30.3290   51.9970 C   0  0  0  0  0  0  0  0  0  0  0  0
   51.6480   31.4530   52.4240 C   0  0  0  0  0  0  0  0  0  0  0  0
   51.3200   31.7010   53.7030 N   0  0  0  0  0  0  0  0  0  0  0  0
   50.4820   32.7580   53.6090 C   0  0  0  0  0  0  0  0  0  0  0  0
   49.9630   33.3020   54.6190 O   0  0  0  0  0  0  0  0  0  0  0  0
   50.2390   33.1820   52.3520 N   0  0  0  0  0  0  0  0  0  0  0  0
   50.9780   32.3380   51.6120 C   0  0  0  0  0  0  0  0  0  0  0  0
   51.0270   32.3700   50.2230 O   0  0  0  0  0  0  0  0  0  0  0  0
   54.8170   30.7780   51.6280 C   0  0  0  0  0  0  0  0  0  0  0  0
   55.9930   30.4050   52.2440 C   0  0  0  0  0  0  0  0  0  0  0  0
   57.3340   30.8120   51.7930 C   0  0  0  0  0  0  0  0  0  0  0  0
   58.3300   30.1310   52.1650 O   0  0  0  0  0  0  0  0  0  0  0  0
   57.5100   31.9630   50.9320 N   0  0  1  0  0  0  0  0  0  0  0  0
   58.2080   33.0660   51.6590 C   0  0  0  0  0  0  0  0  0  0  0  0
   59.6490   33.2880   51.1790 C   0  0  0  0  0  0  0  0  0  0  0  0
   59.6590   33.6250   49.6730 C   0  0  1  0  0  0  0  0  0  0  0  0
   61.0670   33.5600   49.1080 C   0  0  0  0  0  0  0  0  0  0  0  0
   61.2900   33.5070   47.7170 C   0  0  0  0  0  0  0  0  0  0  0  0
   62.5930   33.4730   47.2090 C   0  0  0  0  0  0  0  0  0  0  0  0
   63.6840   33.4900   48.0800 C   0  0  0  0  0  0  0  0  0  0  0  0
   63.4750   33.5380   49.4610 C   0  0  0  0  0  0  0  0  0  0  0  0
   62.1760   33.5690   49.9750 C   0  0  0  0  0  0  0  0  0  0  0  0
   58.6650   32.7490   48.8630 C   0  0  0  0  0  0  0  0  0  0  0  0
   58.1700   31.5410   49.6720 C   0  0  0  0  0  0  0  0  0  0  0  0
   55.7440   29.5810   53.2860 N   0  0  0  0  0  0  0  0  0  0  0  0
   56.7360   29.0390   54.2200 C   0  0  0  0  0  0  0  0  0  0  0  0
  1  2  2  0
  2  3  1  0
  3  4  2  0
  4  5  1  0
  5  6  1  0
  6  7  1  0
  7  8  2  0
  7  9  1  0
  9 10  1  0
 10 11  1  0
  3 12  1  0
 12 13  2  0
 13 14  1  0
 14 15  2  0
 16 14  1  1
 16 17  1  0
 17 18  1  0
 18 19  1  0
 19 20  1  6
 20 21  2  0
 21 22  1  0
 22 23  2  0
 23 24  1  0
 24 25  2  0
 19 26  1  0
 26 27  1  0
 13 28  1  0
 28 29  1  0
 28  2  1  0
 10  5  2  0
 27 16  1  0
 25 20  1  0
M  CHG  4   6  -1   9  -1  11  -1  16   1
M  END
>  <UniqueID>  (2415) 
1

>  <SMILES>  (2415) 
C=c1/c(=C\c2[n-]c(=O)[n-]c2[O-])cc(C(=O)[NH+]2CCC(c3ccccc3)CC2)n1C

>  <Energy>  (2415) 
141.41805201824897

>  <Genealogy>  (2415) 
C=c1c(=Cc2[n-]c(=O)[n-]c2[O-])cc(C(=O)[NH+]2CCC(c3ccccc3)CC2)n1C (protonated)
C=c1/c(=C\c2[n-]c(=O)[n-]c2[O-])cc(C(=O)[NH+]2CCC(c3ccccc3)CC2)n1C (cis-trans isomerization)
C=c1/c(=C\c2[n-]c(=O)[n-]c2[O-])cc(C(=O)[NH+]2CCC(c3ccccc3)CC2)n1C (3D coordinates assigned)
C=c1/c(=C\c2[n-]c(=O)[n-]c2[O-])cc(C(=O)[NH+]2CCC(c3ccccc3)CC2)n1C (nonaromatic ring conformer: 141.41805201824897 kcal/mol)

>  <smiles>  (2415) 
C=c1c(=Cc2[nH]c(=O)[nH]c2O)cc(C(=O)N2CCC(c3ccccc3)CC2)n1C

>  <score_type>  (2415) 
oracle

>  <origin>  (2415) 
adg

>  <m_score__min__energy>  (2415) 
-17.32

>  <m_primary>  (2415) 
energy

$$$$
5:0
     RDKit          3D

 30 33  0  0  0  0  0  0  0  0999 V2000
   53.5580   28.4120   54.3310 C   0  0  0  0  0  0  0  0  0  0  0  0
   53.9990   29.4730   53.6470 C   0  0  0  0  0  0  0  0  0  0  0  0
   53.3070   30.2430   52.6990 C   0  0  0  0  0  0  0  0  0  0  0  0
   52.0100   30.2450   52.3360 C   0  0  0  0  0  0  0  0  0  0  0  0
   51.4800   30.7300   51.0540 C   0  0  0  0  0  0  0  0  0  0  0  0
   51.4800   29.9990   49.9250 N   0  0  0  0  0  0  0  0  0  0  0  0
   51.0350   30.8680   48.9920 C   0  0  0  0  0  0  0  0  0  0  0  0
   50.8790   30.5460   47.7850 O   0  0  0  0  0  0  0  0  0  0  0  0
   50.7800   32.1130   49.4490 N   0  0  0  0  0  0  0  0  0  0  0  0
   51.0820   32.0140   50.7530 C   0  0  0  0  0  0  0  0  0  0  0  0
   51.0220   33.0790   51.6440 O   0  0  0  0  0  0  0  0  0  0  0  0
   54.2500   31.0880   52.1360 C   0  0  0  0  0  0  0  0  0  0  0  0
   55.4450   30.8470   52.7880 C   0  0  0  0  0  0  0  0  0  0  0  0
   56.7210   31.5400   52.4940 C   0  0  0  0  0  0  0  0  0  0  0  0
   56.6770   32.6580   51.9090 O   0  0  0  0  0  0  0  0  0  0  0  0
   58.0020   30.9300   52.8110 N   0  0  0  0  0  0  0  0  0  0  0  0
   58.2980   29.8240   51.8740 C   0  0  0  0  0  0  0  0  0  0  0  0
   58.5040   30.3320   50.4360 C   0  0  0  0  0  0  0  0  0  0  0  0
   59.2040   31.6210   50.4330 N   0  0  0  0  0  0  0  0  0  0  0  0
   59.1500   32.4730   49.2710 C   0  0  0  0  0  0  0  0  0  0  0  0
   59.7550   33.7410   49.2870 C   0  0  0  0  0  0  0  0  0  0  0  0
   59.7170   34.5600   48.1550 C   0  0  0  0  0  0  0  0  0  0  0  0
   59.0760   34.1200   46.9810 C   0  0  0  0  0  0  0  0  0  0  0  0
   59.0100   34.9040   45.8190 O   0  0  0  0  0  0  0  0  0  0  0  0
   58.9790   34.3800   44.4960 C   0  0  0  0  0  0  0  0  0  0  0  0
   58.4820   32.8530   46.9620 C   0  0  0  0  0  0  0  0  0  0  0  0
   58.5200   32.0340   48.0950 C   0  0  0  0  0  0  0  0  0  0  0  0
   59.9790   32.0020   51.6180 C   0  0  0  0  0  0  0  0  0  0  0  0
   59.1060   31.9310   52.8880 C   0  0  0  0  0  0  0  0  0  0  0  0
   55.2860   29.8720   53.7040 N   0  0  0  0  0  0  0  0  0  0  0  0
  1  2  2  0
  2  3  1  0
  3  4  2  0
  4  5  1  0
  5  6  1  0
  6  7  1  0
  7  8  2  0
  7  9  1  0
  9 10  1  0
 10 11  1  0
  3 12  1  0
 12 13  2  0
 13 14  1  0
 14 15  2  0
 14 16  1  0
 16 17  1  0
 17 18  1  0
 18 19  1  0
 19 20  1  0
 20 21  2  0
 21 22  1  0
 22 23  2  0
 23 24  1  0
 24 25  1  0
 23 26  1  0
 26 27  2  0
 19 28  1  0
 28 29  1  0
 13 30  1  0
 30  2  1  0
 10  5  2  0
 29 16  1  0
 27 20  1  0
M  CHG  4   6  -1   9  -1  11  -1  16   1
M  END
>  <UniqueID>  (2416) 
5

>  <SMILES>  (2416) 
C=c1[nH]c(C(=O)[NH+]2CCN(c3ccc(OC)cc3)CC2)c/c1=C/c1[n-]c(=O)[n-]c1[O-]

>  <Energy>  (2416) 
135.5987747331524

>  <Genealogy>  (2416) 
C=c1[nH]c(C(=O)[NH+]2CCN(c3ccc(OC)cc3)CC2)cc1=Cc1[n-]c(=O)[n-]c1[O-] (protonated)
C=c1[nH]c(C(=O)[NH+]2CCN(c3ccc(OC)cc3)CC2)c/c1=C/c1[n-]c(=O)[n-]c1[O-] (cis-trans isomerization)
C=c1[nH]c(C(=O)[NH+]2CCN(c3ccc(OC)cc3)CC2)c/c1=C/c1[n-]c(=O)[n-]c1[O-] (3D coordinates assigned)
C=c1[nH]c(C(=O)[NH+]2CCN(c3ccc(OC)cc3)CC2)c/c1=C/c1[n-]c(=O)[n-]c1[O-] (nonaromatic ring conformer: 135.5987747331524 kcal/mol)

>  <smiles>  (2416) 
C=c1[nH]c(C(=O)N2CCN(c3ccc(OC)cc3)CC2)cc1=Cc1[nH]c(=O)[nH]c1O

>  <score_type>  (2416) 
oracle

>  <origin>  (2416) 
adg

>  <m_score__min__energy>  (2416) 
-16.73

>  <m_primary>  (2416) 
energy

$$$$
9:0
     RDKit          3D

 25 27  0  0  0  0  0  0  0  0999 V2000
   53.8370   28.4230   53.2440 C   0  0  0  0  0  0  0  0  0  0  0  0
   54.7180   29.3160   52.7590 C   0  0  0  0  0  0  0  0  0  0  0  0
   54.3840   30.6870   52.5200 C   0  0  0  0  0  0  0  0  0  0  0  0
   53.1260   31.1870   52.4100 C   0  0  0  0  0  0  0  0  0  0  0  0
   52.3270   31.2770   51.1740 C   0  0  0  0  0  0  0  0  0  0  0  0
   52.3180   30.3210   50.2280 N   0  0  0  0  0  0  0  0  0  0  0  0
   51.3910   30.7600   49.3490 C   0  0  0  0  0  0  0  0  0  0  0  0
   51.1020   30.1300   48.2990 O   0  0  0  0  0  0  0  0  0  0  0  0
   50.7890   31.9190   49.6900 N   0  0  0  0  0  0  0  0  0  0  0  0
   51.3820   32.2270   50.8540 C   0  0  0  0  0  0  0  0  0  0  0  0
   51.0420   33.3340   51.6220 O   0  0  0  0  0  0  0  0  0  0  0  0
   55.4460   31.5950   52.3690 C   0  0  0  0  0  0  0  0  0  0  0  0
   56.7680   31.1570   52.2710 C   0  0  0  0  0  0  0  0  0  0  0  0
   57.8450   32.1490   52.0790 C   0  0  0  0  0  0  0  0  0  0  0  0
   58.2250   32.8350   53.0660 O   0  0  0  0  0  0  0  0  0  0  0  0
   58.4700   32.3340   50.7960 N   0  0  0  0  0  0  0  0  0  0  0  0
   58.5190   31.3130   49.7610 C   0  0  0  0  0  0  0  0  0  0  0  0
   59.2660   31.9490   48.5960 C   0  0  0  0  0  0  0  0  0  0  0  0
   60.0510   33.1320   49.1990 C   0  0  0  0  0  0  0  0  0  0  0  0
   60.1320   34.3130   48.2130 C   0  0  0  0  0  0  0  0  0  0  0  0
   61.4770   32.6780   49.5780 C   0  0  0  0  0  0  0  0  0  0  0  0
   59.2590   33.5100   50.4650 C   0  0  0  0  0  0  0  0  0  0  0  0
   57.0370   29.7800   52.3540 C   0  0  0  0  0  0  0  0  0  0  0  0
   58.4430   29.2550   52.2230 C   0  0  0  0  0  0  0  0  0  0  0  0
   56.0180   28.9120   52.6110 N   0  0  0  0  0  0  0  0  0  0  0  0
  1  2  2  0
  2  3  1  0
  3  4  2  0
  4  5  1  0
  5  6  1  0
  6  7  1  0
  7  8  2  0
  7  9  1  0
  9 10  1  0
 10 11  1  0
  3 12  1  0
 12 13  2  0
 13 14  1  0
 14 15  2  0
 14 16  1  0
 16 17  1  0
 17 18  1  0
 18 19  1  0
 19 20  1  0
 19 21  1  0
 19 22  1  0
 13 23  1  0
 23 24  1  0
 23 25  2  0
 25  2  1  0
 10  5  2  0
 22 16  1  0
M  CHG  4   6  -1   9  -1  11  -1  25   1
M  END
>  <UniqueID>  (2417) 
9

>  <SMILES>  (2417) 
C=c1[nH+]c(C)c(C(=O)N2CCC(C)(C)C2)c/c1=C/c1[n-]c(=O)[n-]c1[O-]

>  <Energy>  (2417) 
101.34228744441428

>  <Genealogy>  (2417) 
C=c1[nH+]c(C)c(C(=O)N2CCC(C)(C)C2)cc1=Cc1[n-]c(=O)[n-]c1[O-] (protonated)
C=c1[nH+]c(C)c(C(=O)N2CCC(C)(C)C2)c/c1=C/c1[n-]c(=O)[n-]c1[O-] (cis-trans isomerization)
C=c1[nH+]c(C)c(C(=O)N2CCC(C)(C)C2)c/c1=C/c1[n-]c(=O)[n-]c1[O-] (3D coordinates assigned)
C=c1[nH+]c(C)c(C(=O)N2CCC(C)(C)C2)c/c1=C/c1[n-]c(=O)[n-]c1[O-] (nonaromatic ring conformer: 101.34228744441428 kcal/mol)

>  <smiles>  (2417) 
C=c1nc(C)c(C(=O)N2CCC(C)(C)C2)cc1=Cc1[nH]c(=O)[nH]c1O

>  <score_type>  (2417) 
oracle

>  <origin>  (2417) 
adg

>  <m_score__min__energy>  (2417) 
-15.52

>  <m_primary>  (2417) 
energy

$$$$
29:0
     RDKit          3D

 31 34  0  0  0  0  0  0  0  0999 V2000
   57.4980   30.1350   43.6680 C   0  0  0  0  0  0  0  0  0  0  0  0
   58.1400   30.2520   44.8410 C   0  0  0  0  0  0  0  0  0  0  0  0
   58.4770   29.2170   45.7270 C   0  0  0  0  0  0  0  0  0  0  0  0
   58.4520   27.8780   45.5760 C   0  0  0  0  0  0  0  0  0  0  0  0
   57.2750   27.0150   45.7650 C   0  0  0  0  0  0  0  0  0  0  0  0
   57.3080   25.7770   46.2930 N   0  0  0  0  0  0  0  0  0  0  0  0
   56.0020   25.4480   46.3970 C   0  0  0  0  0  0  0  0  0  0  0  0
   55.6160   24.3360   46.8430 O   0  0  0  0  0  0  0  0  0  0  0  0
   55.1410   26.4090   45.9980 N   0  0  0  0  0  0  0  0  0  0  0  0
   55.9650   27.3980   45.6150 C   0  0  0  0  0  0  0  0  0  0  0  0
   55.5270   28.6290   45.1420 O   0  0  0  0  0  0  0  0  0  0  0  0
   58.9030   29.8290   46.8930 C   0  0  0  0  0  0  0  0  0  0  0  0
   58.8970   31.1870   46.6580 C   0  0  0  0  0  0  0  0  0  0  0  0
   59.3510   32.1910   47.6410 C   0  0  0  0  0  0  0  0  0  0  0  0
   58.4990   32.7170   48.4050 O   0  0  0  0  0  0  0  0  0  0  0  0
   60.7420   32.5510   47.7670 N   0  0  0  0  0  0  0  0  0  0  0  0
   61.8070   31.6100   47.3810 C   0  0  0  0  0  0  0  0  0  0  0  0
   62.9240   31.6110   48.4320 C   0  0  0  0  0  0  0  0  0  0  0  0
   63.2920   32.9770   48.8290 N   0  0  0  0  0  0  0  0  0  0  0  0
   64.2590   33.1730   49.8740 C   0  0  0  0  0  0  0  0  0  0  0  0
   65.5560   32.6540   49.7340 C   0  0  0  0  0  0  0  0  0  0  0  0
   66.5060   32.8490   50.7420 C   0  0  0  0  0  0  0  0  0  0  0  0
   66.1670   33.5600   51.8970 C   0  0  0  0  0  0  0  0  0  0  0  0
   67.3590   33.8020   53.1600 Cl  0  0  0  0  0  0  0  0  0  0  0  0
   64.8750   34.0750   52.0450 C   0  0  0  0  0  0  0  0  0  0  0  0
   63.9210   33.8840   51.0400 C   0  0  0  0  0  0  0  0  0  0  0  0
   62.6650   34.3620   51.2170 F   0  0  0  0  0  0  0  0  0  0  0  0
   62.5950   34.1290   48.2490 C   0  0  0  0  0  0  0  0  0  0  0  0
   61.0830   33.8860   48.2820 C   0  0  0  0  0  0  0  0  0  0  0  0
   58.4250   31.4510   45.4160 N   0  0  0  0  0  0  0  0  0  0  0  0
   58.1100   32.7750   44.8640 C   0  0  0  0  0  0  0  0  0  0  0  0
  1  2  2  0
  2  3  1  0
  3  4  2  3
  4  5  1  0
  5  6  1  0
  6  7  1  0
  7  8  2  0
  7  9  1  0
  9 10  1  0
 10 11  1  0
  3 12  1  0
 12 13  2  0
 13 14  1  0
 14 15  2  0
 14 16  1  0
 16 17  1  0
 17 18  1  0
 18 19  1  0
 19 20  1  0
 20 21  2  0
 21 22  1  0
 22 23  2  0
 23 24  1  0
 23 25  1  0
 25 26  2  0
 26 27  1  0
 19 28  1  0
 28 29  1  0
 13 30  1  0
 30 31  1  0
 30  2  1  0
 10  5  2  0
 29 16  1  0
 26 20  1  0
M  CHG  3   6  -1   9  -1  11  -1
M  END
>  <UniqueID>  (2418) 
29

>  <SMILES>  (2418) 
C=c1c(=Cc2[n-]c(=O)[n-]c2[O-])cc(C(=O)N2CCN(c3ccc(Cl)cc3F)CC2)n1C

>  <Energy>  (2418) 
132.239002315513

>  <Genealogy>  (2418) 
C=c1c(=Cc2[n-]c(=O)[n-]c2[O-])cc(C(=O)N2CCN(c3ccc(Cl)cc3F)CC2)n1C (protonated)
C=c1c(=Cc2[n-]c(=O)[n-]c2[O-])cc(C(=O)N2CCN(c3ccc(Cl)cc3F)CC2)n1C (3D coordinates assigned)
C=c1c(=Cc2[n-]c(=O)[n-]c2[O-])cc(C(=O)N2CCN(c3ccc(Cl)cc3F)CC2)n1C (nonaromatic ring conformer: 132.239002315513 kcal/mol)

>  <smiles>  (2418) 
C=c1c(=Cc2[nH]c(=O)[nH]c2O)cc(C(=O)N2CCN(c3ccc(Cl)cc3F)CC2)n1C

>  <score_type>  (2418) 
oracle

>  <origin>  (2418) 
adg

>  <m_score__min__energy>  (2418) 
-17.34

>  <m_primary>  (2418) 
energy

$$$$
37:0
     RDKit          3D

 31 33  0  0  0  0  0  0  0  0999 V2000
   57.7900   27.6960   43.1290 C   0  0  0  0  0  0  0  0  0  0  0  0
   58.3670   27.8800   44.3290 C   0  0  0  0  0  0  0  0  0  0  0  0
   58.5830   26.8930   45.3010 C   0  0  0  0  0  0  0  0  0  0  0  0
   58.2790   25.5790   45.2050 C   0  0  0  0  0  0  0  0  0  0  0  0
   57.4860   24.8010   46.1820 C   0  0  0  0  0  0  0  0  0  0  0  0
   57.9070   23.7200   46.8610 N   0  0  0  0  0  0  0  0  0  0  0  0
   56.8210   23.3460   47.5710 C   0  0  0  0  0  0  0  0  0  0  0  0
   56.8250   22.3540   48.3460 O   0  0  0  0  0  0  0  0  0  0  0  0
   55.7290   24.1160   47.3800 N   0  0  0  0  0  0  0  0  0  0  0  0
   56.1660   25.0290   46.4950 C   0  0  0  0  0  0  0  0  0  0  0  0
   55.3730   26.0480   45.9780 O   0  0  0  0  0  0  0  0  0  0  0  0
   59.1420   27.5460   46.3910 C   0  0  0  0  0  0  0  0  0  0  0  0
   59.2640   28.8750   46.0430 C   0  0  0  0  0  0  0  0  0  0  0  0
   59.7760   29.9170   46.9520 C   0  0  0  0  0  0  0  0  0  0  0  0
   59.0020   30.3310   48.0450 C   0  0  0  0  0  0  0  0  0  0  0  0
   59.4890   31.3030   48.9240 C   0  0  0  0  0  0  0  0  0  0  0  0
   60.7560   31.8570   48.7240 C   0  0  0  0  0  0  0  0  0  0  0  0
   61.5510   31.4390   47.6470 C   0  0  0  0  0  0  0  0  0  0  0  0
   62.8900   32.0240   47.4590 C   0  0  0  0  0  0  0  0  0  0  0  0
   63.0500   33.0850   46.7970 O   0  0  0  0  0  0  0  0  0  0  0  0
   61.0560   30.4620   46.7640 C   0  0  0  0  0  0  0  0  0  0  0  0
   58.8050   29.0840   44.7850 N   0  0  0  0  0  0  0  0  0  0  0  0
   58.6320   30.3950   44.1370 C   0  0  0  0  0  0  0  0  0  0  0  0
   57.1520   30.7650   44.0830 C   0  0  0  0  0  0  0  0  0  0  0  0
   56.8320   31.6450   45.2020 N   0  0  0  0  0  0  0  0  0  0  0  0
   57.6520   33.1710   45.0380 S   0  0  0  0  0  0  0  0  0  0  0  0
   56.6500   34.2650   45.2730 O   0  0  0  0  0  0  0  0  0  0  0  0
   58.2000   33.3190   43.6450 O   0  0  0  0  0  0  0  0  0  0  0  0
   58.9680   33.3540   46.2550 C   0  0  0  0  0  0  0  0  0  0  0  0
   58.5180   34.1890   47.4580 C   0  0  0  0  0  0  0  0  0  0  0  0
   60.2240   33.9460   45.6130 C   0  0  0  0  0  0  0  0  0  0  0  0
  1  2  2  0
  2  3  1  0
  3  4  2  3
  4  5  1  0
  5  6  1  0
  6  7  1  0
  7  8  2  0
  7  9  1  0
  9 10  1  0
 10 11  1  0
  3 12  1  0
 12 13  2  0
 13 14  1  0
 14 15  2  0
 15 16  1  0
 16 17  2  0
 17 18  1  0
 18 19  1  0
 19 20  2  0
 18 21  2  0
 13 22  1  0
 22 23  1  0
 23 24  1  0
 24 25  1  0
 25 26  1  0
 26 27  2  0
 26 28  2  0
 26 29  1  0
 29 30  1  0
 29 31  1  0
 22  2  1  0
 10  5  2  0
 21 14  1  0
M  CHG  3   6  -1   9  -1  25  -1
M  END
>  <UniqueID>  (2419) 
37

>  <SMILES>  (2419) 
C=c1c(=Cc2[n-]c(=O)[n-]c2O)cc(-c2cccc(C=O)c2)n1CC[N-]S(=O)(=O)C(C)C

>  <Energy>  (2419) 
109.96051986329154

>  <Genealogy>  (2419) 
C=c1c(=Cc2[n-]c(=O)[n-]c2O)cc(-c2cccc(C=O)c2)n1CC[N-]S(=O)(=O)C(C)C (protonated)
C=c1c(=Cc2[n-]c(=O)[n-]c2O)cc(-c2cccc(C=O)c2)n1CC[N-]S(=O)(=O)C(C)C (3D coordinates assigned)
C=c1c(=Cc2[n-]c(=O)[n-]c2O)cc(-c2cccc(C=O)c2)n1CC[N-]S(=O)(=O)C(C)C (optimized conformer: 109.96051986329154 kcal/mol)

>  <smiles>  (2419) 
C=c1c(=Cc2[nH]c(=O)[nH]c2O)cc(-c2cccc(C=O)c2)n1CCNS(=O)(=O)C(C)C

>  <score_type>  (2419) 
oracle

>  <origin>  (2419) 
adg

>  <m_score__min__energy>  (2419) 
-14.199999999999999

>  <m_primary>  (2419) 
energy

$$$$
40:0
     RDKit          3D

 24 26  0  0  0  0  0  0  0  0999 V2000
   52.6480   28.5490   52.8520 C   0  0  0  0  0  0  0  0  0  0  0  0
   53.8930   29.0400   52.9850 C   0  0  0  0  0  0  0  0  0  0  0  0
   54.8400   28.2270   53.5480 N   0  0  0  0  0  0  0  0  0  0  0  0
   56.1650   28.5170   53.5080 C   0  0  0  0  0  0  0  0  0  0  0  0
   56.6200   29.6670   52.8610 C   0  0  0  0  0  0  0  0  0  0  0  0
   58.0640   29.9750   52.7700 C   0  0  0  0  0  0  0  0  0  0  0  0
   58.7040   30.2700   53.8150 O   0  0  0  0  0  0  0  0  0  0  0  0
   58.7480   29.9940   51.5140 N   0  0  0  0  0  0  0  0  0  0  0  0
   60.1170   30.2970   51.0600 C   0  0  0  0  0  0  0  0  0  0  0  0
   59.8190   30.2390   49.5920 C   0  0  0  0  0  0  0  0  0  0  0  0
   59.9750   31.5910   48.8730 C   0  0  0  0  0  0  0  0  0  0  0  0
   58.6220   32.2580   48.6090 C   0  0  0  0  0  0  0  0  0  0  0  0
   58.0540   32.7280   49.8020 O   0  0  0  0  0  0  0  0  0  0  0  0
   58.4330   29.9300   50.0730 C   0  0  0  0  0  0  0  0  0  0  0  0
   55.6750   30.5600   52.3440 C   0  0  0  0  0  0  0  0  0  0  0  0
   54.2930   30.3110   52.4600 C   0  0  0  0  0  0  0  0  0  0  0  0
   53.4550   31.3090   52.0790 C   0  0  0  0  0  0  0  0  0  0  0  0
   52.4160   31.2270   51.0350 C   0  0  0  0  0  0  0  0  0  0  0  0
   52.4550   30.3460   50.0210 N   0  0  0  0  0  0  0  0  0  0  0  0
   51.3890   30.6900   49.2650 C   0  0  0  0  0  0  0  0  0  0  0  0
   51.0770   30.0750   48.2130 O   0  0  0  0  0  0  0  0  0  0  0  0
   50.6920   31.7540   49.7200 N   0  0  0  0  0  0  0  0  0  0  0  0
   51.3610   32.0910   50.8330 C   0  0  0  0  0  0  0  0  0  0  0  0
   51.0350   33.1830   51.6270 O   0  0  0  0  0  0  0  0  0  0  0  0
  1  2  2  0
  2  3  1  0
  3  4  2  0
  4  5  1  0
  5  6  1  0
  6  7  2  0
  6  8  1  0
  8  9  1  0
  9 10  1  0
 10 11  1  0
 11 12  1  0
 12 13  1  0
 10 14  1  0
  5 15  2  0
 15 16  1  0
 16 17  2  3
 17 18  1  0
 18 19  1  0
 19 20  1  0
 20 21  2  0
 20 22  1  0
 22 23  1  0
 23 24  1  0
 16  2  1  0
 23 18  2  0
 14  8  1  0
M  CHG  4   3   1  19  -1  22  -1  24  -1
M  END
>  <UniqueID>  (2420) 
40

>  <SMILES>  (2420) 
C=c1[nH+]cc(C(=O)N2CC(CCO)C2)cc1=Cc1[n-]c(=O)[n-]c1[O-]

>  <Energy>  (2420) 
136.581193953485

>  <Genealogy>  (2420) 
C=c1[nH+]cc(C(=O)N2CC(CCO)C2)cc1=Cc1[n-]c(=O)[n-]c1[O-] (protonated)
C=c1[nH+]cc(C(=O)N2CC(CCO)C2)cc1=Cc1[n-]c(=O)[n-]c1[O-] (3D coordinates assigned)
C=c1[nH+]cc(C(=O)N2CC(CCO)C2)cc1=Cc1[n-]c(=O)[n-]c1[O-] (nonaromatic ring conformer: 136.581193953485 kcal/mol)

>  <smiles>  (2420) 
C=c1ncc(C(=O)N2CC(CCO)C2)cc1=Cc1[nH]c(=O)[nH]c1O

>  <score_type>  (2420) 
oracle

>  <origin>  (2420) 
adg

>  <m_score__min__energy>  (2420) 
-14.83

>  <m_primary>  (2420) 
energy

$$$$
41:0
     RDKit          3D

 30 33  0  0  0  0  0  0  0  0999 V2000
   54.5630   28.2240   53.1010 C   0  0  0  0  0  0  0  0  0  0  0  0
   55.0760   29.4480   52.8890 C   0  0  0  0  0  0  0  0  0  0  0  0
   54.3680   30.6060   52.5300 C   0  0  0  0  0  0  0  0  0  0  0  0
   53.0460   30.8570   52.4710 C   0  0  0  0  0  0  0  0  0  0  0  0
   52.2720   31.1030   51.2450 C   0  0  0  0  0  0  0  0  0  0  0  0
   52.2400   30.2820   50.1800 N   0  0  0  0  0  0  0  0  0  0  0  0
   51.3090   30.8450   49.3790 C   0  0  0  0  0  0  0  0  0  0  0  0
   51.0010   30.3670   48.2570 O   0  0  0  0  0  0  0  0  0  0  0  0
   50.7290   31.9570   49.8790 N   0  0  0  0  0  0  0  0  0  0  0  0
   51.3400   32.0980   51.0680 C   0  0  0  0  0  0  0  0  0  0  0  0
   51.0540   33.1110   51.9750 O   0  0  0  0  0  0  0  0  0  0  0  0
   55.3200   31.5640   52.2320 C   0  0  0  0  0  0  0  0  0  0  0  0
   56.5560   30.9940   52.4670 C   0  0  0  0  0  0  0  0  0  0  0  0
   57.8360   31.7270   52.3630 C   0  0  0  0  0  0  0  0  0  0  0  0
   58.3170   32.2710   53.3930 O   0  0  0  0  0  0  0  0  0  0  0  0
   58.5180   31.8640   51.1010 N   0  0  0  0  0  0  0  0  0  0  0  0
   59.4320   32.9890   50.8810 C   0  0  0  0  0  0  0  0  0  0  0  0
   59.3690   33.4110   49.4120 C   0  0  0  0  0  0  0  0  0  0  0  0
   59.6570   32.2910   48.4780 N   0  0  0  0  0  0  0  0  0  0  0  0
   59.0430   32.4090   47.1280 C   0  0  0  0  0  0  0  0  0  0  0  0
   58.8020   31.0450   46.4320 C   0  0  0  0  0  0  0  0  0  0  0  0
   57.7070   31.1530   45.3570 C   0  0  0  0  0  0  0  0  0  0  0  0
   57.6890   32.4500   44.7960 O   0  0  0  0  0  0  0  0  0  0  0  0
   57.1610   33.3870   45.7260 C   0  0  0  0  0  0  0  0  0  0  0  0
   57.7490   33.2470   47.1510 C   0  0  0  0  0  0  0  0  0  0  0  0
   59.5720   30.9270   49.0550 C   0  0  0  0  0  0  0  0  0  0  0  0
   58.4580   30.7850   50.1040 C   0  0  0  0  0  0  0  0  0  0  0  0
   56.4130   29.7070   52.8670 N   0  0  0  0  0  0  0  0  0  0  0  0
   57.5060   28.7660   53.1560 C   0  0  0  0  0  0  0  0  0  0  0  0
   58.1010   29.0440   54.5340 C   0  0  0  0  0  0  0  0  0  0  0  0
  1  2  2  0
  2  3  1  0
  3  4  2  3
  4  5  1  0
  5  6  1  0
  6  7  1  0
  7  8  2  0
  7  9  1  0
  9 10  1  0
 10 11  1  0
  3 12  1  0
 12 13  2  0
 13 14  1  0
 14 15  2  0
 14 16  1  0
 16 17  1  0
 17 18  1  0
 18 19  1  0
 19 20  1  0
 20 21  1  0
 21 22  1  0
 22 23  1  0
 23 24  1  0
 24 25  1  0
 19 26  1  0
 26 27  1  0
 13 28  1  0
 28 29  1  0
 29 30  1  0
 28  2  1  0
 10  5  2  0
 27 16  1  0
 25 20  1  0
M  CHG  2   6  -1   9  -1
M  END
>  <UniqueID>  (2421) 
41

>  <SMILES>  (2421) 
C=c1c(=Cc2[n-]c(=O)[n-]c2O)cc(C(=O)N2CCN(C3CCOCC3)CC2)n1CC

>  <Energy>  (2421) 
147.944663579479

>  <Genealogy>  (2421) 
C=c1c(=Cc2[n-]c(=O)[n-]c2O)cc(C(=O)N2CCN(C3CCOCC3)CC2)n1CC (protonated)
C=c1c(=Cc2[n-]c(=O)[n-]c2O)cc(C(=O)N2CCN(C3CCOCC3)CC2)n1CC (3D coordinates assigned)
C=c1c(=Cc2[n-]c(=O)[n-]c2O)cc(C(=O)N2CCN(C3CCOCC3)CC2)n1CC (nonaromatic ring conformer: 147.944663579479 kcal/mol)

>  <smiles>  (2421) 
C=c1c(=Cc2[nH]c(=O)[nH]c2O)cc(C(=O)N2CCN(C3CCOCC3)CC2)n1CC

>  <score_type>  (2421) 
oracle

>  <origin>  (2421) 
adg

>  <m_score__min__energy>  (2421) 
-14.08

>  <m_primary>  (2421) 
energy

$$$$
44:0
     RDKit          3D

 32 35  0  0  0  0  0  0  0  0999 V2000
   57.9290   30.3780   44.6920 C   0  0  0  0  0  0  0  0  0  0  0  0
   58.3680   29.8000   45.8230 C   0  0  0  0  0  0  0  0  0  0  0  0
   58.1890   28.4540   46.1870 C   0  0  0  0  0  0  0  0  0  0  0  0
   57.7740   27.3910   45.4710 C   0  0  0  0  0  0  0  0  0  0  0  0
   57.2330   26.1400   46.0280 C   0  0  0  0  0  0  0  0  0  0  0  0
   57.9790   25.1320   46.5190 N   0  0  0  0  0  0  0  0  0  0  0  0
   57.0590   24.2840   47.0280 C   0  0  0  0  0  0  0  0  0  0  0  0
   57.3720   23.1930   47.5730 O   0  0  0  0  0  0  0  0  0  0  0  0
   55.7790   24.7010   46.9170 N   0  0  0  0  0  0  0  0  0  0  0  0
   55.9110   25.8840   46.2950 C   0  0  0  0  0  0  0  0  0  0  0  0
   54.8420   26.7140   45.9810 O   0  0  0  0  0  0  0  0  0  0  0  0
   58.5490   28.3610   47.5160 C   0  0  0  0  0  0  0  0  0  0  0  0
   59.0160   29.6000   47.8940 C   0  0  0  0  0  0  0  0  0  0  0  0
   59.4920   29.9060   49.2550 C   0  0  0  0  0  0  0  0  0  0  0  0
   58.6740   30.3530   50.1040 O   0  0  0  0  0  0  0  0  0  0  0  0
   60.8510   29.6480   49.6310 N   0  0  0  0  0  0  0  0  0  0  0  0
   61.3960   30.0540   50.9230 C   0  0  0  0  0  0  0  0  0  0  0  0
   62.3790   31.1780   50.7400 C   0  0  0  0  0  0  0  0  0  0  0  0
   63.7590   30.9260   50.8310 C   0  0  0  0  0  0  0  0  0  0  0  0
   64.6760   31.9700   50.6840 C   0  0  0  0  0  0  0  0  0  0  0  0
   64.2250   33.2720   50.4500 C   0  0  0  0  0  0  0  0  0  0  0  0
   62.8540   33.5320   50.3630 C   0  0  0  0  0  0  0  0  0  0  0  0
   62.4170   34.7960   50.1390 F   0  0  0  0  0  0  0  0  0  0  0  0
   61.9330   32.4890   50.5100 C   0  0  0  0  0  0  0  0  0  0  0  0
   58.9130   30.4860   46.8700 N   0  0  0  0  0  0  0  0  0  0  0  0
   59.1440   31.9390   46.9770 C   0  0  0  0  0  0  0  0  0  0  0  0
   60.6190   32.2420   47.0360 C   0  0  0  0  0  0  0  0  0  0  0  0
   61.5570   31.1980   47.0900 C   0  0  0  0  0  0  0  0  0  0  0  0
   62.9260   31.4790   47.1250 C   0  0  0  0  0  0  0  0  0  0  0  0
   63.3690   32.8030   47.1060 C   0  0  0  0  0  0  0  0  0  0  0  0
   62.4440   33.8490   47.0530 C   0  0  0  0  0  0  0  0  0  0  0  0
   61.0740   33.5720   47.0200 C   0  0  0  0  0  0  0  0  0  0  0  0
  1  2  2  0
  2  3  1  0
  3  4  2  0
  4  5  1  0
  5  6  1  0
  6  7  1  0
  7  8  2  0
  7  9  1  0
  9 10  1  0
 10 11  1  0
  3 12  1  0
 12 13  2  0
 13 14  1  0
 14 15  2  0
 14 16  1  0
 16 17  1  0
 17 18  1  0
 18 19  2  0
 19 20  1  0
 20 21  2  0
 21 22  1  0
 22 23  1  0
 22 24  2  0
 13 25  1  0
 25 26  1  0
 26 27  1  0
 27 28  2  0
 28 29  1  0
 29 30  2  0
 30 31  1  0
 31 32  2  0
 25  2  1  0
 32 27  1  0
 10  5  2  0
 24 18  1  0
M  CHG  3   6  -1   9  -1  11  -1
M  END
>  <UniqueID>  (2422) 
44

>  <SMILES>  (2422) 
C=c1/c(=C\c2[n-]c(=O)[n-]c2[O-])cc(C(=O)NCc2cccc(F)c2)n1Cc1ccccc1

>  <Energy>  (2422) 
125.78028247245386

>  <Genealogy>  (2422) 
C=c1c(=Cc2[n-]c(=O)[n-]c2[O-])cc(C(=O)NCc2cccc(F)c2)n1Cc1ccccc1 (protonated)
C=c1/c(=C\c2[n-]c(=O)[n-]c2[O-])cc(C(=O)NCc2cccc(F)c2)n1Cc1ccccc1 (cis-trans isomerization)
C=c1/c(=C\c2[n-]c(=O)[n-]c2[O-])cc(C(=O)NCc2cccc(F)c2)n1Cc1ccccc1 (3D coordinates assigned)
C=c1/c(=C\c2[n-]c(=O)[n-]c2[O-])cc(C(=O)NCc2cccc(F)c2)n1Cc1ccccc1 (optimized conformer: 125.78028247245386 kcal/mol)

>  <smiles>  (2422) 
C=c1c(=Cc2[nH]c(=O)[nH]c2O)cc(C(=O)NCc2cccc(F)c2)n1Cc1ccccc1

>  <score_type>  (2422) 
oracle

>  <origin>  (2422) 
adg

>  <m_score__min__energy>  (2422) 
-17.77

>  <m_primary>  (2422) 
energy

$$$$
47:0
     RDKit          3D

 28 31  0  0  0  0  0  0  0  0999 V2000
   57.4410   30.3780   44.0390 C   0  0  0  0  0  0  0  0  0  0  0  0
   58.2560   30.2020   45.0930 C   0  0  0  0  0  0  0  0  0  0  0  0
   58.7560   28.9820   45.5820 C   0  0  0  0  0  0  0  0  0  0  0  0
   58.4420   27.7090   45.2740 C   0  0  0  0  0  0  0  0  0  0  0  0
   57.2630   26.9790   45.7640 C   0  0  0  0  0  0  0  0  0  0  0  0
   57.2900   25.7290   46.2610 N   0  0  0  0  0  0  0  0  0  0  0  0
   55.9830   25.4370   46.4440 C   0  0  0  0  0  0  0  0  0  0  0  0
   55.5940   24.3310   46.9060 O   0  0  0  0  0  0  0  0  0  0  0  0
   55.1270   26.4130   46.0710 N   0  0  0  0  0  0  0  0  0  0  0  0
   55.9540   27.3740   45.6290 C   0  0  0  0  0  0  0  0  0  0  0  0
   55.5200   28.5930   45.1170 O   0  0  0  0  0  0  0  0  0  0  0  0
   59.7260   29.3100   46.5150 C   0  0  0  0  0  0  0  0  0  0  0  0
   59.7520   30.6850   46.6000 C   0  0  0  0  0  0  0  0  0  0  0  0
   60.7060   31.4350   47.4420 C   0  0  0  0  0  0  0  0  0  0  0  0
   61.6780   32.0180   46.8800 O   0  0  0  0  0  0  0  0  0  0  0  0
   60.4370   31.6610   48.8480 N   0  0  0  0  0  0  0  0  0  0  0  0
   59.3330   32.6430   49.0170 C   0  0  0  0  0  0  0  0  0  0  0  0
   58.7040   32.5800   50.4150 C   0  0  0  0  0  0  0  0  0  0  0  0
   58.2480   31.2170   50.7100 N   0  0  0  0  0  0  0  0  0  0  0  0
   57.2680   30.9720   51.7330 C   0  0  0  0  0  0  0  0  0  0  0  0
   56.3460   30.1370   51.5210 O   0  0  0  0  0  0  0  0  0  0  0  0
   57.4110   31.5760   53.1040 C   0  0  0  0  0  0  0  0  0  0  0  0
   57.5580   30.6210   54.2840 C   0  0  0  0  0  0  0  0  0  0  0  0
   58.7820   31.3390   53.7350 C   0  0  0  0  0  0  0  0  0  0  0  0
   58.7380   30.1050   49.8930 C   0  0  0  0  0  0  0  0  0  0  0  0
   60.2110   30.3550   49.5350 C   0  0  0  0  0  0  0  0  0  0  0  0
   58.8410   31.2290   45.7610 N   0  0  0  0  0  0  0  0  0  0  0  0
   58.5760   32.6600   45.5820 C   0  0  0  0  0  0  0  0  0  0  0  0
  1  2  2  0
  2  3  1  0
  3  4  2  3
  4  5  1  0
  5  6  1  0
  6  7  1  0
  7  8  2  0
  7  9  1  0
  9 10  1  0
 10 11  1  0
  3 12  1  0
 12 13  2  0
 13 14  1  0
 14 15  2  0
 14 16  1  0
 16 17  1  0
 17 18  1  0
 18 19  1  0
 19 20  1  0
 20 21  2  0
 20 22  1  0
 22 23  1  0
 23 24  1  0
 19 25  1  0
 25 26  1  0
 13 27  1  0
 27 28  1  0
 27  2  1  0
 10  5  2  0
 26 16  1  0
 24 22  1  0
M  CHG  4   6  -1   9  -1  11  -1  16   1
M  END
>  <UniqueID>  (2423) 
47

>  <SMILES>  (2423) 
C=c1c(=Cc2[n-]c(=O)[n-]c2[O-])cc(C(=O)[NH+]2CCN(C(=O)C3CC3)CC2)n1C

>  <Energy>  (2423) 
401.8799114540254

>  <Genealogy>  (2423) 
C=c1c(=Cc2[n-]c(=O)[n-]c2[O-])cc(C(=O)[NH+]2CCN(C(=O)C3CC3)CC2)n1C (protonated)
C=c1c(=Cc2[n-]c(=O)[n-]c2[O-])cc(C(=O)[NH+]2CCN(C(=O)C3CC3)CC2)n1C (3D coordinates assigned)
C=c1c(=Cc2[n-]c(=O)[n-]c2[O-])cc(C(=O)[NH+]2CCN(C(=O)C3CC3)CC2)n1C (nonaromatic ring conformer: 401.8799114540254 kcal/mol)

>  <smiles>  (2423) 
C=c1c(=Cc2[nH]c(=O)[nH]c2O)cc(C(=O)N2CCN(C(=O)C3CC3)CC2)n1C

>  <score_type>  (2423) 
oracle

>  <origin>  (2423) 
adg

>  <m_score__min__energy>  (2423) 
-16.109999999999999

>  <m_primary>  (2423) 
energy

$$$$
50:0
     RDKit          3D

 27 29  0  0  0  0  0  0  0  0999 V2000
   56.8990   30.0770   44.3360 C   0  0  0  0  0  0  0  0  0  0  0  0
   57.6300   29.7410   45.6170 C   0  0  0  0  0  0  0  0  0  0  0  0
   57.7960   28.3820   45.9890 C   0  0  0  0  0  0  0  0  0  0  0  0
   57.1840   27.3290   45.2270 N   0  0  0  0  0  0  0  0  0  0  0  0
   57.6440   25.9690   45.2600 C   0  0  0  0  0  0  0  0  0  0  0  0
   58.6420   25.6470   45.9590 O   0  0  0  0  0  0  0  0  0  0  0  0
   56.9890   24.9380   44.3940 C   0  0  0  0  0  0  0  0  0  0  0  0
   55.6670   24.5490   44.9780 C   0  0  0  0  0  0  0  0  0  0  0  0
   55.1100   23.3330   44.8360 N   0  0  0  0  0  0  0  0  0  0  0  0
   53.9140   23.4680   45.4500 C   0  0  0  0  0  0  0  0  0  0  0  0
   53.0870   22.5230   45.5350 O   0  0  0  0  0  0  0  0  0  0  0  0
   53.6710   24.6940   45.9600 N   0  0  0  0  0  0  0  0  0  0  0  0
   54.7890   25.3680   45.6460 C   0  0  0  0  0  0  0  0  0  0  0  0
   54.9990   26.7050   45.9610 O   0  0  0  0  0  0  0  0  0  0  0  0
   58.5190   28.0590   47.1470 C   0  0  0  0  0  0  0  0  0  0  0  0
   59.0690   29.0600   47.9400 C   0  0  0  0  0  0  0  0  0  0  0  0
   58.8810   30.3980   47.6060 C   0  0  0  0  0  0  0  0  0  0  0  0
   58.1490   30.7590   46.4660 C   0  0  0  0  0  0  0  0  0  0  0  0
   57.9290   32.5010   46.1760 S   0  0  0  0  0  0  0  0  0  0  0  0
   57.6000   33.1410   47.4960 O   0  0  0  0  0  0  0  0  0  0  0  0
   56.7710   32.7620   45.2530 O   0  0  0  0  0  0  0  0  0  0  0  0
   59.4050   33.2210   45.5620 N   0  0  0  0  0  0  0  0  0  0  0  0
   59.2530   34.6420   45.1840 C   0  0  0  0  0  0  0  0  0  0  0  0
   59.6500   35.6080   46.3160 C   0  0  0  0  0  0  0  0  0  0  0  0
   59.5290   34.9830   47.5730 O   0  0  0  0  0  0  0  0  0  0  0  0
   60.5020   33.9630   47.6970 C   0  0  0  0  0  0  0  0  0  0  0  0
   60.5370   33.0070   46.4810 C   0  0  0  0  0  0  0  0  0  0  0  0
  1  2  1  0
  2  3  2  0
  3  4  1  0
  4  5  1  0
  5  6  2  0
  5  7  1  0
  7  8  1  0
  8  9  1  0
  9 10  1  0
 10 11  2  0
 10 12  1  0
 12 13  1  0
 13 14  1  0
  3 15  1  0
 15 16  2  0
 16 17  1  0
 17 18  2  0
 18 19  1  0
 19 20  2  0
 19 21  2  0
 19 22  1  0
 22 23  1  0
 23 24  1  0
 24 25  1  0
 25 26  1  0
 26 27  1  0
 18  2  1  0
 27 22  1  0
 13  8  2  0
M  CHG  3   9  -1  12  -1  14  -1
M  END
>  <UniqueID>  (2424) 
50

>  <SMILES>  (2424) 
Cc1c(NC(=O)Cc2[n-]c(=O)[n-]c2[O-])cccc1S(=O)(=O)N1CCOCC1

>  <Energy>  (2424) 
91.91542942362271

>  <Genealogy>  (2424) 
Cc1c(NC(=O)Cc2[n-]c(=O)[n-]c2[O-])cccc1S(=O)(=O)N1CCOCC1 (protonated)
Cc1c(NC(=O)Cc2[n-]c(=O)[n-]c2[O-])cccc1S(=O)(=O)N1CCOCC1 (3D coordinates assigned)
Cc1c(NC(=O)Cc2[n-]c(=O)[n-]c2[O-])cccc1S(=O)(=O)N1CCOCC1 (nonaromatic ring conformer: 91.91542942362271 kcal/mol)

>  <smiles>  (2424) 
Cc1c(NC(=O)Cc2[nH]c(=O)[nH]c2O)cccc1S(=O)(=O)N1CCOCC1

>  <score_type>  (2424) 
oracle

>  <origin>  (2424) 
adg

>  <m_score__min__energy>  (2424) 
-15.81

>  <m_primary>  (2424) 
energy

$$$$
51:0
     RDKit          3D

 27 29  0  0  0  0  0  0  0  0999 V2000
   54.9630   26.3270   45.9360 N   0  0  0  0  0  0  0  0  0  0  0  0
   56.3170   25.9730   45.6700 C   0  0  0  0  0  0  0  0  0  0  0  0
   56.5750   25.2090   44.7020 O   0  0  0  0  0  0  0  0  0  0  0  0
   57.4180   26.5170   46.4930 C   0  0  0  0  0  0  0  0  0  0  0  0
   58.0670   25.8480   47.5150 C   0  0  0  0  0  0  0  0  0  0  0  0
   57.7700   24.5780   47.9950 O   0  0  0  0  0  0  0  0  0  0  0  0
   59.0760   26.6620   47.9650 C   0  0  0  0  0  0  0  0  0  0  0  0
   59.9500   26.3560   49.0020 O   0  0  0  0  0  0  0  0  0  0  0  0
   59.0900   27.8180   47.2710 N   0  0  0  0  0  0  0  0  0  0  0  0
   59.9850   28.9230   47.4960 C   0  0  0  0  0  0  0  0  0  0  0  0
   60.6310   29.5480   46.4180 C   0  0  0  0  0  0  0  0  0  0  0  0
   61.5070   30.6130   46.6400 C   0  0  0  0  0  0  0  0  0  0  0  0
   61.7470   31.0680   47.9440 C   0  0  0  0  0  0  0  0  0  0  0  0
   62.8420   32.4190   48.2250 S   0  0  0  0  0  0  0  0  0  0  0  0
   63.6680   32.8050   46.7580 N   0  0  0  0  0  0  0  0  0  0  0  0
   62.0630   33.6150   48.6940 O   0  0  0  0  0  0  0  0  0  0  0  0
   63.8450   32.0510   49.2820 O   0  0  0  0  0  0  0  0  0  0  0  0
   61.0910   30.4580   49.0210 C   0  0  0  0  0  0  0  0  0  0  0  0
   60.2150   29.3920   48.7990 C   0  0  0  0  0  0  0  0  0  0  0  0
   58.0760   27.7440   46.3700 C   0  0  0  0  0  0  0  0  0  0  0  0
   57.7540   28.8120   45.4010 C   0  0  0  0  0  0  0  0  0  0  0  0
   57.3900   28.4870   44.0840 C   0  0  0  0  0  0  0  0  0  0  0  0
   57.0520   29.4970   43.1780 C   0  0  0  0  0  0  0  0  0  0  0  0
   57.0650   30.8340   43.5830 C   0  0  0  0  0  0  0  0  0  0  0  0
   56.7340   31.8130   42.7040 F   0  0  0  0  0  0  0  0  0  0  0  0
   57.4170   31.1640   44.8960 C   0  0  0  0  0  0  0  0  0  0  0  0
   57.7580   30.1560   45.8030 C   0  0  0  0  0  0  0  0  0  0  0  0
  1  2  1  0
  2  3  2  0
  2  4  1  0
  4  5  1  0
  5  6  1  0
  5  7  2  0
  7  8  1  0
  7  9  1  0
  9 10  1  0
 10 11  2  0
 11 12  1  0
 12 13  2  0
 13 14  1  0
 14 15  1  0
 14 16  2  0
 14 17  2  0
 13 18  1  0
 18 19  2  0
  9 20  1  0
 20 21  1  0
 21 22  2  0
 22 23  1  0
 23 24  2  0
 24 25  1  0
 24 26  1  0
 26 27  2  0
 20  4  2  0
 27 21  1  0
 19 10  1  0
M  CHG  4   1  -1   6  -1   8  -1  15  -1
M  END
>  <UniqueID>  (2425) 
51

>  <SMILES>  (2425) 
[NH-]C(=O)c1c([O-])c([O-])n(-c2ccc(S([NH-])(=O)=O)cc2)c1-c1ccc(F)cc1

>  <Energy>  (2425) 
80.5718465609606

>  <Genealogy>  (2425) 
[NH-]C(=O)c1c([O-])c([O-])n(-c2ccc(S([NH-])(=O)=O)cc2)c1-c1ccc(F)cc1 (protonated)
[NH-]C(=O)c1c([O-])c([O-])n(-c2ccc(S([NH-])(=O)=O)cc2)c1-c1ccc(F)cc1 (3D coordinates assigned)
[NH-]C(=O)c1c([O-])c([O-])n(-c2ccc(S([NH-])(=O)=O)cc2)c1-c1ccc(F)cc1 (optimized conformer: 80.5718465609606 kcal/mol)

>  <smiles>  (2425) 
NC(=O)c1c(O)c(O)n(-c2ccc(S(N)(=O)=O)cc2)c1-c1ccc(F)cc1

>  <score_type>  (2425) 
oracle

>  <origin>  (2425) 
adg

>  <m_score__min__energy>  (2425) 
-14.26

>  <m_primary>  (2425) 
energy

$$$$
64:0
     RDKit          3D

 35 38  0  0  0  0  0  0  0  0999 V2000
   54.5990   28.8770   53.3920 O   0  0  0  0  0  0  0  0  0  0  0  0
   55.1710   29.6940   52.6200 C   0  0  0  0  0  0  0  0  0  0  0  0
   56.6450   29.5780   52.3870 C   0  0  0  0  0  0  0  0  0  0  0  0
   57.0150   30.3680   51.2220 N   0  0  0  0  0  0  0  0  0  0  0  0
   57.3070   31.7680   51.2890 C   0  0  0  0  0  0  0  0  0  0  0  0
   56.6720   32.5070   52.0900 O   0  0  0  0  0  0  0  0  0  0  0  0
   58.3250   32.3550   50.3930 C   0  0  0  0  0  0  0  0  0  0  0  0
   58.0490   32.4440   49.0170 C   0  0  0  0  0  0  0  0  0  0  0  0
   59.0180   32.9120   48.1200 C   0  0  0  0  0  0  0  0  0  0  0  0
   58.6690   32.9850   46.3890 S   0  0  0  0  0  0  0  0  0  0  0  0
   59.9620   33.1040   45.6330 O   0  0  0  0  0  0  0  0  0  0  0  0
   57.8510   34.2130   46.1080 O   0  0  0  0  0  0  0  0  0  0  0  0
   57.8010   31.5820   45.8150 N   0  0  0  0  0  0  0  0  0  0  0  0
   58.6460   30.3880   45.7790 C   0  0  0  0  0  0  0  0  0  0  0  0
   58.0580   29.4730   44.7140 C   0  0  0  0  0  0  0  0  0  0  0  0
   57.1640   30.3650   43.8640 C   0  0  0  0  0  0  0  0  0  0  0  0
   57.3150   31.7600   44.4480 C   0  0  0  0  0  0  0  0  0  0  0  0
   60.2640   33.3270   48.6050 C   0  0  0  0  0  0  0  0  0  0  0  0
   60.5440   33.2670   49.9690 C   0  0  0  0  0  0  0  0  0  0  0  0
   59.5840   32.7890   50.8740 C   0  0  0  0  0  0  0  0  0  0  0  0
   59.8820   32.8220   52.2820 N   0  0  0  0  0  0  0  0  0  0  0  0
   59.5840   34.0050   53.0900 C   0  0  0  0  0  0  0  0  0  0  0  0
   58.8040   33.5790   54.3380 C   0  0  0  0  0  0  0  0  0  0  0  0
   59.4890   32.5500   55.0300 O   0  0  0  0  0  0  0  0  0  0  0  0
   59.5480   31.3850   54.2250 C   0  0  0  0  0  0  0  0  0  0  0  0
   60.3920   31.6360   52.9710 C   0  0  0  0  0  0  0  0  0  0  0  0
   54.4180   30.7420   51.9920 N   0  0  0  0  0  0  0  0  0  0  0  0
   52.9700   30.8700   52.1480 C   0  0  0  0  0  0  0  0  0  0  0  0
   52.2840   30.7790   50.8080 C   0  0  0  0  0  0  0  0  0  0  0  0
   52.5700   29.7100   49.9410 C   0  0  0  0  0  0  0  0  0  0  0  0
   51.9260   29.6130   48.7030 C   0  0  0  0  0  0  0  0  0  0  0  0
   50.9900   30.5780   48.3230 C   0  0  0  0  0  0  0  0  0  0  0  0
   50.6960   31.6420   49.1790 C   0  0  0  0  0  0  0  0  0  0  0  0
   51.3370   31.7470   50.4190 C   0  0  0  0  0  0  0  0  0  0  0  0
   51.0270   32.8120   51.2580 O   0  0  0  0  0  0  0  0  0  0  0  0
  1  2  2  0
  2  3  1  0
  3  4  1  0
  4  5  1  0
  5  6  2  0
  5  7  1  0
  7  8  2  0
  8  9  1  0
  9 10  1  0
 10 11  2  0
 10 12  2  0
 10 13  1  0
 13 14  1  0
 14 15  1  0
 15 16  1  0
 16 17  1  0
  9 18  2  0
 18 19  1  0
 19 20  2  0
 20 21  1  0
 21 22  1  0
 22 23  1  0
 23 24  1  0
 24 25  1  0
 25 26  1  0
  2 27  1  0
 27 28  1  0
 28 29  1  0
 29 30  2  0
 30 31  1  0
 31 32  2  0
 32 33  1  0
 33 34  2  0
 34 35  1  0
 20  7  1  0
 26 21  1  0
 34 29  1  0
 17 13  1  0
M  CHG  2   4  -1  35  -1
M  END
>  <UniqueID>  (2426) 
64

>  <SMILES>  (2426) 
O=C(C[N-]C(=O)c1cc(S(=O)(=O)N2CCCC2)ccc1N1CCOCC1)NCc1ccccc1[O-]

>  <Energy>  (2426) 
70.39378555836791

>  <Genealogy>  (2426) 
O=C(C[N-]C(=O)c1cc(S(=O)(=O)N2CCCC2)ccc1N1CCOCC1)NCc1ccccc1[O-] (protonated)
O=C(C[N-]C(=O)c1cc(S(=O)(=O)N2CCCC2)ccc1N1CCOCC1)NCc1ccccc1[O-] (3D coordinates assigned)
O=C(C[N-]C(=O)c1cc(S(=O)(=O)N2CCCC2)ccc1N1CCOCC1)NCc1ccccc1[O-] (nonaromatic ring conformer: 70.39378555836791 kcal/mol)

>  <smiles>  (2426) 
O=C(CNC(=O)c1cc(S(=O)(=O)N2CCCC2)ccc1N1CCOCC1)NCc1ccccc1O

>  <score_type>  (2426) 
oracle

>  <origin>  (2426) 
adg

>  <m_score__min__energy>  (2426) 
-15.33

>  <m_primary>  (2426) 
energy

$$$$
66:0
     RDKit          3D

 30 33  0  0  0  0  0  0  0  0999 V2000
   57.6020   32.6900   48.7760 O   0  0  0  0  0  0  0  0  0  0  0  0
   58.9760   32.9090   48.6770 C   0  0  0  0  0  0  0  0  0  0  0  0
   59.6420   33.5140   49.7470 C   0  0  0  0  0  0  0  0  0  0  0  0
   61.0210   33.7300   49.6910 C   0  0  0  0  0  0  0  0  0  0  0  0
   61.7590   33.3350   48.5650 C   0  0  0  0  0  0  0  0  0  0  0  0
   63.2190   33.5560   48.4910 C   0  0  0  0  0  0  0  0  0  0  0  0
   63.7000   34.1940   47.5160 O   0  0  0  0  0  0  0  0  0  0  0  0
   64.1090   33.0240   49.4760 N   0  0  0  0  0  0  0  0  0  0  0  0
   64.0800   32.0880   50.6170 C   0  0  0  0  0  0  0  0  0  0  0  0
   65.5560   32.0570   50.8350 C   0  0  0  0  0  0  0  0  0  0  0  0
   65.5670   33.0080   49.6850 C   0  0  0  0  0  0  0  0  0  0  0  0
   61.0850   32.7470   47.4810 C   0  0  0  0  0  0  0  0  0  0  0  0
   59.7000   32.5310   47.5300 C   0  0  0  0  0  0  0  0  0  0  0  0
   59.0400   31.9330   46.4040 N   0  0  0  0  0  0  0  0  0  0  0  0
   58.4140   32.6020   45.4130 C   0  0  0  0  0  0  0  0  0  0  0  0
   58.2830   34.0930   45.3420 C   0  0  0  0  0  0  0  0  0  0  0  0
   57.9050   31.7170   44.4830 C   0  0  0  0  0  0  0  0  0  0  0  0
   58.2440   30.4420   44.9210 C   0  0  0  0  0  0  0  0  0  0  0  0
   57.9690   29.2850   44.2900 C   0  0  0  0  0  0  0  0  0  0  0  0
   57.3870   28.1040   44.9660 C   0  0  0  0  0  0  0  0  0  0  0  0
   56.0100   28.0190   45.2450 C   0  0  0  0  0  0  0  0  0  0  0  0
   55.1470   29.0490   44.8910 O   0  0  0  0  0  0  0  0  0  0  0  0
   55.5160   26.9300   45.8880 N   0  0  0  0  0  0  0  0  0  0  0  0
   56.3310   25.9200   46.2860 C   0  0  0  0  0  0  0  0  0  0  0  0
   55.8500   24.9180   46.8760 O   0  0  0  0  0  0  0  0  0  0  0  0
   57.6670   25.9930   46.0540 N   0  0  0  0  0  0  0  0  0  0  0  0
   58.2110   27.0600   45.4130 C   0  0  0  0  0  0  0  0  0  0  0  0
   59.4560   27.0940   45.2170 O   0  0  0  0  0  0  0  0  0  0  0  0
   58.9550   30.6130   46.1130 C   0  0  0  0  0  0  0  0  0  0  0  0
   59.4680   29.6420   46.8840 C   0  0  0  0  0  0  0  0  0  0  0  0
  1  2  1  0
  2  3  2  0
  3  4  1  0
  4  5  2  0
  5  6  1  0
  6  7  2  0
  6  8  1  0
  8  9  1  0
  9 10  1  0
 10 11  1  0
  5 12  1  0
 12 13  2  0
 13 14  1  0
 14 15  1  0
 15 16  1  0
 15 17  2  0
 17 18  1  0
 18 19  2  0
 19 20  1  0
 20 21  2  0
 21 22  1  0
 21 23  1  0
 23 24  1  0
 24 25  2  0
 24 26  1  0
 26 27  1  0
 27 28  2  0
 18 29  1  0
 29 30  2  0
 13  2  1  0
 29 14  1  0
 11  8  1  0
 27 20  1  0
M  CHG  3  22  -1  23  -1  26  -1
M  END
>  <UniqueID>  (2427) 
65

>  <SMILES>  (2427) 
C=c1/c(=C/c2c([O-])[n-]c(=O)[n-]c2=O)cc(C)n1-c1cc(C(=O)N2CCC2)ccc1O

>  <Energy>  (2427) 
142.07238656728728

>  <Genealogy>  (2427) 
C=c1c(=Cc2c([O-])[n-]c(=O)[n-]c2=O)cc(C)n1-c1cc(C(=O)N2CCC2)ccc1O (protonated)
C=c1/c(=C/c2c([O-])[n-]c(=O)[n-]c2=O)cc(C)n1-c1cc(C(=O)N2CCC2)ccc1O (cis-trans isomerization)
C=c1/c(=C/c2c([O-])[n-]c(=O)[n-]c2=O)cc(C)n1-c1cc(C(=O)N2CCC2)ccc1O (3D coordinates assigned)
C=c1/c(=C/c2c([O-])[n-]c(=O)[n-]c2=O)cc(C)n1-c1cc(C(=O)N2CCC2)ccc1O (nonaromatic ring conformer: 142.07238656728728 kcal/mol)

>  <smiles>  (2427) 
C=c1c(=Cc2c(O)[nH]c(=O)[nH]c2=O)cc(C)n1-c1cc(C(=O)N2CCC2)ccc1O

>  <score_type>  (2427) 
oracle

>  <origin>  (2427) 
adg

>  <m_score__min__energy>  (2427) 
-16.609999999999999

>  <m_primary>  (2427) 
energy

$$$$
71:0
     RDKit          3D

 31 34  0  0  0  0  0  0  0  0999 V2000
   59.6640   29.9370   46.5500 C   0  0  0  0  0  0  0  0  0  0  0  0
   59.1950   30.9810   45.8450 C   0  0  0  0  0  0  0  0  0  0  0  0
   58.2620   30.9490   44.7950 C   0  0  0  0  0  0  0  0  0  0  0  0
   57.7250   29.9160   44.1160 C   0  0  0  0  0  0  0  0  0  0  0  0
   57.3800   28.5990   44.6870 C   0  0  0  0  0  0  0  0  0  0  0  0
   56.1130   28.3550   45.2440 C   0  0  0  0  0  0  0  0  0  0  0  0
   55.1340   29.3420   45.2410 O   0  0  0  0  0  0  0  0  0  0  0  0
   55.8380   27.1460   45.7970 N   0  0  0  0  0  0  0  0  0  0  0  0
   56.7760   26.1650   45.8390 C   0  0  0  0  0  0  0  0  0  0  0  0
   56.4160   24.7210   46.5090 S   0  0  0  0  0  0  0  0  0  0  0  0
   58.0170   26.3870   45.3340 N   0  0  0  0  0  0  0  0  0  0  0  0
   58.3410   27.5790   44.7690 C   0  0  0  0  0  0  0  0  0  0  0  0
   59.5040   27.7540   44.3160 O   0  0  0  0  0  0  0  0  0  0  0  0
   57.9450   32.2700   44.5190 C   0  0  0  0  0  0  0  0  0  0  0  0
   58.7210   33.0510   45.3480 C   0  0  0  0  0  0  0  0  0  0  0  0
   58.7020   34.5490   45.3680 C   0  0  0  0  0  0  0  0  0  0  0  0
   59.4790   32.2730   46.1540 N   0  0  0  0  0  0  0  0  0  0  0  0
   60.3940   32.7460   47.1580 C   0  0  0  0  0  0  0  0  0  0  0  0
   61.7100   33.0820   46.8100 C   0  0  0  0  0  0  0  0  0  0  0  0
   62.6000   33.5480   47.7800 C   0  0  0  0  0  0  0  0  0  0  0  0
   62.1880   33.6780   49.1190 C   0  0  0  0  0  0  0  0  0  0  0  0
   63.1340   34.1810   50.1420 C   0  0  0  0  0  0  0  0  0  0  0  0
   63.0390   35.3780   50.5290 O   0  0  0  0  0  0  0  0  0  0  0  0
   64.1580   33.3370   50.7040 N   0  0  0  0  0  0  0  0  0  0  0  0
   64.9090   32.3900   49.8740 C   0  0  0  0  0  0  0  0  0  0  0  0
   66.4120   32.5780   50.1140 C   0  0  0  0  0  0  0  0  0  0  0  0
   66.7360   32.5290   51.5460 N   0  0  0  0  0  0  0  0  0  0  0  0
   66.0110   33.5720   52.2880 C   0  0  0  0  0  0  0  0  0  0  0  0
   64.4950   33.4150   52.1270 C   0  0  0  0  0  0  0  0  0  0  0  0
   60.8640   33.3560   49.4600 C   0  0  0  0  0  0  0  0  0  0  0  0
   59.9760   32.8900   48.4870 C   0  0  0  0  0  0  0  0  0  0  0  0
  1  2  2  0
  2  3  1  0
  3  4  2  3
  4  5  1  0
  5  6  2  0
  6  7  1  0
  6  8  1  0
  8  9  1  0
  9 10  2  0
  9 11  1  0
 11 12  1  0
 12 13  2  0
  3 14  1  0
 14 15  2  0
 15 16  1  0
 15 17  1  0
 17 18  1  0
 18 19  2  0
 19 20  1  0
 20 21  2  0
 21 22  1  0
 22 23  2  0
 22 24  1  0
 24 25  1  0
 25 26  1  0
 26 27  1  0
 27 28  1  0
 28 29  1  0
 21 30  1  0
 30 31  2  0
 17  2  1  0
 31 18  1  0
 12  5  1  0
 29 24  1  0
M  CHG  3   7  -1   8  -1  11  -1
M  END
>  <UniqueID>  (2428) 
70

>  <SMILES>  (2428) 
C=c1c(=Cc2c([O-])[n-]c(=S)[n-]c2=O)cc(C)n1-c1ccc(C(=O)N2CCNCC2)cc1

>  <Energy>  (2428) 
107.20355322820804

>  <Genealogy>  (2428) 
C=c1c(=Cc2c([O-])[n-]c(=S)[n-]c2=O)cc(C)n1-c1ccc(C(=O)N2CCNCC2)cc1 (protonated)
C=c1c(=Cc2c([O-])[n-]c(=S)[n-]c2=O)cc(C)n1-c1ccc(C(=O)N2CCNCC2)cc1 (3D coordinates assigned)
C=c1c(=Cc2c([O-])[n-]c(=S)[n-]c2=O)cc(C)n1-c1ccc(C(=O)N2CCNCC2)cc1 (nonaromatic ring conformer: 107.20355322820804 kcal/mol)

>  <smiles>  (2428) 
C=c1c(=Cc2c(O)[nH]c(=S)[nH]c2=O)cc(C)n1-c1ccc(C(=O)N2CCNCC2)cc1

>  <score_type>  (2428) 
oracle

>  <origin>  (2428) 
adg

>  <m_score__min__energy>  (2428) 
-15.59

>  <m_primary>  (2428) 
energy

$$$$
72:0
     RDKit          3D

 32 35  0  0  0  0  0  0  0  0999 V2000
   55.6080   29.3410   44.9860 O   0  0  0  0  0  0  0  0  0  0  0  0
   56.2460   28.2130   45.4910 C   0  0  0  0  0  0  0  0  0  0  0  0
   55.6000   27.1030   45.8830 N   0  0  0  0  0  0  0  0  0  0  0  0
   56.6000   26.3270   46.3520 C   0  0  0  0  0  0  0  0  0  0  0  0
   56.4020   25.1780   46.8240 O   0  0  0  0  0  0  0  0  0  0  0  0
   57.8290   26.8830   46.2820 N   0  0  0  0  0  0  0  0  0  0  0  0
   57.5990   28.0770   45.7100 C   0  0  0  0  0  0  0  0  0  0  0  0
   58.6540   29.0840   45.4880 C   0  0  0  0  0  0  0  0  0  0  0  0
   58.4800   30.4070   45.6750 C   0  0  0  0  0  0  0  0  0  0  0  0
   58.7680   31.1160   46.8300 C   0  0  0  0  0  0  0  0  0  0  0  0
   58.3960   32.4260   46.6030 C   0  0  0  0  0  0  0  0  0  0  0  0
   58.6220   33.5290   47.5650 C   0  0  0  0  0  0  0  0  0  0  0  0
   58.5820   34.7200   47.1550 O   0  0  0  0  0  0  0  0  0  0  0  0
   58.9600   33.2670   48.9400 N   0  0  0  0  0  0  0  0  0  0  0  0
   59.8410   34.2000   49.6480 C   0  0  0  0  0  0  0  0  0  0  0  0
   60.2020   33.6910   51.0520 C   0  0  0  0  0  0  0  0  0  0  0  0
   60.3940   32.2250   51.1020 N   0  0  0  0  0  0  0  0  0  0  0  0
   61.7780   31.7580   50.8700 C   0  0  0  0  0  0  0  0  0  0  0  0
   61.8790   30.4880   49.9900 C   0  0  0  0  0  0  0  0  0  0  0  0
   62.0480   30.8210   48.5010 C   0  0  0  0  0  0  0  0  0  0  0  0
   62.0720   32.2870   48.2970 N   0  0  0  0  0  0  0  0  0  0  0  0
   63.4100   32.8800   48.5490 C   0  0  0  0  0  0  0  0  0  0  0  0
   64.1370   33.2430   47.2420 C   0  0  0  0  0  0  0  0  0  0  0  0
   63.4190   34.1670   46.4360 O   0  0  0  0  0  0  0  0  0  0  0  0
   62.0060   34.0390   46.5380 C   0  0  0  0  0  0  0  0  0  0  0  0
   61.5390   32.6380   46.9630 C   0  0  0  0  0  0  0  0  0  0  0  0
   59.3370   31.3900   50.4800 C   0  0  0  0  0  0  0  0  0  0  0  0
   58.2960   32.2060   49.7030 C   0  0  0  0  0  0  0  0  0  0  0  0
   57.8720   32.5560   45.3580 N   0  0  0  0  0  0  0  0  0  0  0  0
   57.3590   33.7930   44.7570 C   0  0  0  0  0  0  0  0  0  0  0  0
   57.9370   31.3290   44.7750 C   0  0  0  0  0  0  0  0  0  0  0  0
   57.5620   31.0720   43.5110 C   0  0  0  0  0  0  0  0  0  0  0  0
  1  2  1  0
  2  3  1  0
  3  4  1  0
  4  5  2  0
  4  6  1  0
  6  7  1  0
  7  8  1  0
  8  9  2  0
  9 10  1  0
 10 11  2  0
 11 12  1  0
 12 13  2  0
 12 14  1  0
 14 15  1  0
 15 16  1  0
 16 17  1  0
 17 18  1  0
 18 19  1  0
 19 20  1  0
 20 21  1  0
 21 22  1  0
 22 23  1  0
 23 24  1  0
 24 25  1  0
 25 26  1  0
 17 27  1  0
 27 28  1  0
 11 29  1  0
 29 30  1  0
 29 31  1  0
 31 32  2  0
  7  2  2  0
 31  9  1  0
 28 14  1  0
 26 21  1  0
M  CHG  2   3  -1   6  -1
M  END
>  <UniqueID>  (2429) 
71

>  <SMILES>  (2429) 
C=c1/c(=C/c2[n-]c(=O)[n-]c2O)cc(C(=O)N2CCN(CCCN3CCOCC3)CC2)n1C

>  <Energy>  (2429) 
155.02454355994124

>  <Genealogy>  (2429) 
C=c1c(=Cc2[n-]c(=O)[n-]c2O)cc(C(=O)N2CCN(CCCN3CCOCC3)CC2)n1C (protonated)
C=c1/c(=C/c2[n-]c(=O)[n-]c2O)cc(C(=O)N2CCN(CCCN3CCOCC3)CC2)n1C (cis-trans isomerization)
C=c1/c(=C/c2[n-]c(=O)[n-]c2O)cc(C(=O)N2CCN(CCCN3CCOCC3)CC2)n1C (3D coordinates assigned)
C=c1/c(=C/c2[n-]c(=O)[n-]c2O)cc(C(=O)N2CCN(CCCN3CCOCC3)CC2)n1C (nonaromatic ring conformer: 155.02454355994124 kcal/mol)

>  <smiles>  (2429) 
C=c1c(=Cc2[nH]c(=O)[nH]c2O)cc(C(=O)N2CCN(CCCN3CCOCC3)CC2)n1C

>  <score_type>  (2429) 
oracle

>  <origin>  (2429) 
adg

>  <m_score__min__energy>  (2429) 
-14.26

>  <m_primary>  (2429) 
energy

$$$$
81:0
     RDKit          3D

 25 27  0  0  0  0  0  0  0  0999 V2000
   53.8960   29.8920   54.9500 C   0  0  0  0  0  0  0  0  0  0  0  0
   54.3580   30.3750   53.7850 C   0  0  0  0  0  0  0  0  0  0  0  0
   53.6470   30.4990   52.5800 C   0  0  0  0  0  0  0  0  0  0  0  0
   52.3350   30.3610   52.3070 C   0  0  0  0  0  0  0  0  0  0  0  0
   51.6680   30.7670   51.0610 C   0  0  0  0  0  0  0  0  0  0  0  0
   51.6610   30.0210   49.9440 N   0  0  0  0  0  0  0  0  0  0  0  0
   51.0630   30.8230   49.0360 C   0  0  0  0  0  0  0  0  0  0  0  0
   50.8540   30.4640   47.8480 O   0  0  0  0  0  0  0  0  0  0  0  0
   50.7170   32.0440   49.4980 N   0  0  0  0  0  0  0  0  0  0  0  0
   51.1200   31.9980   50.7780 C   0  0  0  0  0  0  0  0  0  0  0  0
   51.0160   33.0690   51.6580 O   0  0  0  0  0  0  0  0  0  0  0  0
   54.5810   30.8260   51.6130 C   0  0  0  0  0  0  0  0  0  0  0  0
   55.8000   30.9340   52.2500 C   0  0  0  0  0  0  0  0  0  0  0  0
   57.0620   31.2670   51.5590 C   0  0  0  0  0  0  0  0  0  0  0  0
   57.0370   32.1170   50.6290 O   0  0  0  0  0  0  0  0  0  0  0  0
   58.3040   30.6290   51.9080 N   0  0  0  0  0  0  0  0  0  0  0  0
   59.5550   31.3760   51.7190 C   0  0  0  0  0  0  0  0  0  0  0  0
   60.7470   30.6130   52.3000 C   0  0  0  0  0  0  0  0  0  0  0  0
   60.3200   29.9300   53.5340 N   0  0  0  0  0  0  0  0  0  0  0  0
   61.4810   29.4550   54.3180 C   0  0  0  0  0  0  0  0  0  0  0  0
   61.7660   27.9870   54.0110 C   0  0  0  0  0  0  0  0  0  0  0  0
   59.4210   28.8040   53.2040 C   0  0  0  0  0  0  0  0  0  0  0  0
   58.3490   29.1800   52.1550 C   0  0  0  0  0  0  0  0  0  0  0  0
   55.6610   30.6940   53.5770 N   0  0  0  0  0  0  0  0  0  0  0  0
   56.7170   30.7600   54.5950 C   0  0  0  0  0  0  0  0  0  0  0  0
  1  2  2  0
  2  3  1  0
  3  4  2  3
  4  5  1  0
  5  6  1  0
  6  7  1  0
  7  8  2  0
  7  9  1  0
  9 10  1  0
 10 11  1  0
  3 12  1  0
 12 13  2  0
 13 14  1  0
 14 15  2  0
 14 16  1  0
 16 17  1  0
 17 18  1  0
 18 19  1  0
 19 20  1  0
 20 21  1  0
 19 22  1  0
 22 23  1  0
 13 24  1  0
 24 25  1  0
 24  2  1  0
 10  5  2  0
 23 16  1  0
M  CHG  3   6  -1   9  -1  11  -1
M  END
>  <UniqueID>  (2430) 
79

>  <SMILES>  (2430) 
C=c1c(=Cc2[n-]c(=O)[n-]c2[O-])cc(C(=O)N2CCN(CC)CC2)n1C

>  <Energy>  (2430) 
124.67776938259527

>  <Genealogy>  (2430) 
C=c1c(=Cc2[n-]c(=O)[n-]c2[O-])cc(C(=O)N2CCN(CC)CC2)n1C (protonated)
C=c1c(=Cc2[n-]c(=O)[n-]c2[O-])cc(C(=O)N2CCN(CC)CC2)n1C (3D coordinates assigned)
C=c1c(=Cc2[n-]c(=O)[n-]c2[O-])cc(C(=O)N2CCN(CC)CC2)n1C (nonaromatic ring conformer: 124.67776938259527 kcal/mol)

>  <smiles>  (2430) 
C=c1c(=Cc2[nH]c(=O)[nH]c2O)cc(C(=O)N2CCN(CC)CC2)n1C

>  <score_type>  (2430) 
oracle

>  <origin>  (2430) 
adg

>  <m_score__min__energy>  (2430) 
-16.27

>  <m_primary>  (2430) 
energy

$$$$
84:0
     RDKit          3D

 28 31  0  0  0  0  0  0  0  0999 V2000
   59.6060   28.2650   48.5870 C   0  0  0  0  0  0  0  0  0  0  0  0
   59.1390   29.1530   47.6910 C   0  0  0  0  0  0  0  0  0  0  0  0
   58.5670   28.8370   46.4550 C   0  0  0  0  0  0  0  0  0  0  0  0
   58.4270   27.6150   45.9030 C   0  0  0  0  0  0  0  0  0  0  0  0
   57.1950   26.8110   45.9820 C   0  0  0  0  0  0  0  0  0  0  0  0
   57.1590   25.5640   46.4820 N   0  0  0  0  0  0  0  0  0  0  0  0
   55.8460   25.2470   46.4420 C   0  0  0  0  0  0  0  0  0  0  0  0
   55.4050   24.1320   46.8230 O   0  0  0  0  0  0  0  0  0  0  0  0
   55.0410   26.2240   45.9720 N   0  0  0  0  0  0  0  0  0  0  0  0
   55.9070   27.2130   45.6970 C   0  0  0  0  0  0  0  0  0  0  0  0
   55.5210   28.4670   45.2410 O   0  0  0  0  0  0  0  0  0  0  0  0
   58.2090   30.0430   45.8740 C   0  0  0  0  0  0  0  0  0  0  0  0
   58.5580   31.0400   46.7650 C   0  0  0  0  0  0  0  0  0  0  0  0
   58.3280   32.4840   46.5160 C   0  0  0  0  0  0  0  0  0  0  0  0
   57.4440   33.0940   47.1790 O   0  0  0  0  0  0  0  0  0  0  0  0
   59.0360   33.1580   45.4460 N   0  0  0  0  0  0  0  0  0  0  0  0
   58.2640   34.2650   44.8690 C   0  0  0  0  0  0  0  0  0  0  0  0
   59.2820   35.3030   45.3100 C   0  0  0  0  0  0  0  0  0  0  0  0
   60.0530   34.1260   45.8860 C   0  0  0  0  0  0  0  0  0  0  0  0
   59.1310   30.5020   47.8740 N   0  0  0  0  0  0  0  0  0  0  0  0
   59.6770   31.2560   49.0160 C   0  0  0  0  0  0  0  0  0  0  0  0
   60.8360   32.1340   48.6040 C   0  0  0  0  0  0  0  0  0  0  0  0
   61.7850   31.6510   47.6840 C   0  0  0  0  0  0  0  0  0  0  0  0
   62.8790   32.4400   47.3160 C   0  0  0  0  0  0  0  0  0  0  0  0
   63.0450   33.7110   47.8710 C   0  0  0  0  0  0  0  0  0  0  0  0
   64.1070   34.4740   47.5130 F   0  0  0  0  0  0  0  0  0  0  0  0
   62.1200   34.1920   48.8010 C   0  0  0  0  0  0  0  0  0  0  0  0
   61.0250   33.4060   49.1730 C   0  0  0  0  0  0  0  0  0  0  0  0
  1  2  2  0
  2  3  1  0
  3  4  2  0
  4  5  1  0
  5  6  1  0
  6  7  1  0
  7  8  2  0
  7  9  1  0
  9 10  1  0
 10 11  1  0
  3 12  1  0
 12 13  2  0
 13 14  1  0
 14 15  2  0
 14 16  1  0
 16 17  1  0
 17 18  1  0
 18 19  1  0
 13 20  1  0
 20 21  1  0
 21 22  1  0
 22 23  2  0
 23 24  1  0
 24 25  2  0
 25 26  1  0
 25 27  1  0
 27 28  2  0
 20  2  1  0
 28 22  1  0
 10  5  2  0
 19 16  1  0
M  CHG  4   6  -1   9  -1  11  -1  16   1
M  END
>  <UniqueID>  (2431) 
82

>  <SMILES>  (2431) 
C=c1/c(=C/c2[n-]c(=O)[n-]c2[O-])cc(C(=O)[NH+]2CCC2)n1Cc1ccc(F)cc1

>  <Energy>  (2431) 
190.82601989499312

>  <Genealogy>  (2431) 
C=c1c(=Cc2[n-]c(=O)[n-]c2[O-])cc(C(=O)[NH+]2CCC2)n1Cc1ccc(F)cc1 (protonated)
C=c1/c(=C/c2[n-]c(=O)[n-]c2[O-])cc(C(=O)[NH+]2CCC2)n1Cc1ccc(F)cc1 (cis-trans isomerization)
C=c1/c(=C/c2[n-]c(=O)[n-]c2[O-])cc(C(=O)[NH+]2CCC2)n1Cc1ccc(F)cc1 (3D coordinates assigned)
C=c1/c(=C/c2[n-]c(=O)[n-]c2[O-])cc(C(=O)[NH+]2CCC2)n1Cc1ccc(F)cc1 (nonaromatic ring conformer: 190.82601989499312 kcal/mol)

>  <smiles>  (2431) 
C=c1c(=Cc2[nH]c(=O)[nH]c2O)cc(C(=O)N2CCC2)n1Cc1ccc(F)cc1

>  <score_type>  (2431) 
oracle

>  <origin>  (2431) 
adg

>  <m_score__min__energy>  (2431) 
-15.130000000000001

>  <m_primary>  (2431) 
energy

$$$$
86:0
     RDKit          3D

 33 37  0  0  0  0  0  0  0  0999 V2000
   59.3680   27.3550   48.2200 C   0  0  0  0  0  0  0  0  0  0  0  0
   59.5040   28.5200   47.5650 C   0  0  0  0  0  0  0  0  0  0  0  0
   59.1560   28.7820   46.2300 C   0  0  0  0  0  0  0  0  0  0  0  0
   58.4590   28.0550   45.3360 C   0  0  0  0  0  0  0  0  0  0  0  0
   57.2840   27.2210   45.6390 C   0  0  0  0  0  0  0  0  0  0  0  0
   57.3400   25.9790   46.1560 N   0  0  0  0  0  0  0  0  0  0  0  0
   56.0450   25.6830   46.3950 C   0  0  0  0  0  0  0  0  0  0  0  0
   55.6790   24.5780   46.8720 O   0  0  0  0  0  0  0  0  0  0  0  0
   55.1720   26.6680   46.0890 N   0  0  0  0  0  0  0  0  0  0  0  0
   55.9760   27.6380   45.6270 C   0  0  0  0  0  0  0  0  0  0  0  0
   55.5240   28.8840   45.2060 O   0  0  0  0  0  0  0  0  0  0  0  0
   59.6650   30.0350   45.9380 C   0  0  0  0  0  0  0  0  0  0  0  0
   60.2390   30.5190   47.0950 C   0  0  0  0  0  0  0  0  0  0  0  0
   60.8830   31.8460   47.2030 C   0  0  0  0  0  0  0  0  0  0  0  0
   62.1140   31.9100   47.4730 O   0  0  0  0  0  0  0  0  0  0  0  0
   60.1360   33.0620   46.9790 N   0  0  0  0  0  0  0  0  0  0  0  0
   59.0580   33.4220   47.9090 C   0  0  0  0  0  0  0  0  0  0  0  0
   57.7480   32.7540   47.4860 C   0  0  0  0  0  0  0  0  0  0  0  0
   57.1710   33.3150   46.1830 C   0  0  0  0  0  0  0  0  0  0  0  0
   58.1180   33.1660   45.0560 N   0  0  0  0  0  0  0  0  0  0  0  0
   57.5050   32.8580   43.7340 C   0  0  0  0  0  0  0  0  0  0  0  0
   58.1820   31.8330   42.8110 C   0  0  0  0  0  0  0  0  0  0  0  0
   56.9350   31.4460   43.5780 C   0  0  0  0  0  0  0  0  0  0  0  0
   59.1340   34.2450   44.9900 C   0  0  0  0  0  0  0  0  0  0  0  0
   60.3980   33.8620   45.7700 C   0  0  0  0  0  0  0  0  0  0  0  0
   60.1430   29.6010   48.0890 N   0  0  0  0  0  0  0  0  0  0  0  0
   60.6370   29.7510   49.4670 C   0  0  0  0  0  0  0  0  0  0  0  0
   59.8840   30.8290   50.2120 C   0  0  0  0  0  0  0  0  0  0  0  0
   58.5230   30.6760   50.5290 C   0  0  0  0  0  0  0  0  0  0  0  0
   57.8470   31.6720   51.2400 C   0  0  0  0  0  0  0  0  0  0  0  0
   58.5250   32.8220   51.6520 C   0  0  0  0  0  0  0  0  0  0  0  0
   59.8810   32.9770   51.3550 C   0  0  0  0  0  0  0  0  0  0  0  0
   60.5610   31.9840   50.6440 C   0  0  0  0  0  0  0  0  0  0  0  0
  1  2  2  0
  2  3  1  0
  3  4  2  3
  4  5  1  0
  5  6  1  0
  6  7  1  0
  7  8  2  0
  7  9  1  0
  9 10  1  0
 10 11  1  0
  3 12  1  0
 12 13  2  0
 13 14  1  0
 14 15  2  0
 14 16  1  0
 16 17  1  0
 17 18  1  0
 18 19  1  0
 19 20  1  0
 20 21  1  0
 21 22  1  0
 22 23  1  0
 20 24  1  0
 24 25  1  0
 13 26  1  0
 26 27  1  0
 27 28  1  0
 28 29  2  0
 29 30  1  0
 30 31  2  0
 31 32  1  0
 32 33  2  0
 26  2  1  0
 33 28  1  0
 10  5  2  0
 25 16  1  0
 23 21  1  0
M  CHG  3   6  -1   9  -1  11  -1
M  END
>  <UniqueID>  (2432) 
84

>  <SMILES>  (2432) 
C=c1c(=Cc2[n-]c(=O)[n-]c2[O-])cc(C(=O)N2CCCN(C3CC3)CC2)n1Cc1ccccc1

>  <Energy>  (2432) 
416.59614474331386

>  <Genealogy>  (2432) 
C=c1c(=Cc2[n-]c(=O)[n-]c2[O-])cc(C(=O)N2CCCN(C3CC3)CC2)n1Cc1ccccc1 (protonated)
C=c1c(=Cc2[n-]c(=O)[n-]c2[O-])cc(C(=O)N2CCCN(C3CC3)CC2)n1Cc1ccccc1 (3D coordinates assigned)
C=c1c(=Cc2[n-]c(=O)[n-]c2[O-])cc(C(=O)N2CCCN(C3CC3)CC2)n1Cc1ccccc1 (nonaromatic ring conformer: 416.59614474331386 kcal/mol)

>  <smiles>  (2432) 
C=c1c(=Cc2[nH]c(=O)[nH]c2O)cc(C(=O)N2CCCN(C3CC3)CC2)n1Cc1ccccc1

>  <score_type>  (2432) 
oracle

>  <origin>  (2432) 
adg

>  <m_score__min__energy>  (2432) 
-14.4

>  <m_primary>  (2432) 
energy

$$$$
90:0
     RDKit          3D

 35 38  0  0  0  0  0  0  0  0999 V2000
   53.8080   28.3120   53.6080 C   0  0  0  0  0  0  0  0  0  0  0  0
   54.1490   27.2170   54.5750 C   0  0  0  0  0  0  0  0  0  0  0  0
   54.6330   27.5340   55.6950 O   0  0  0  0  0  0  0  0  0  0  0  0
   53.9170   25.8280   54.2520 N   0  0  0  0  0  0  0  0  0  0  0  0
   53.0680   25.4740   53.1000 C   0  0  0  0  0  0  0  0  0  0  0  0
   52.7840   23.9700   53.0420 C   0  0  0  0  0  0  0  0  0  0  0  0
   54.0270   23.2170   53.2440 N   0  0  0  0  0  0  0  0  0  0  0  0
   54.2760   22.0070   52.5030 C   0  0  0  0  0  0  0  0  0  0  0  0
   54.6350   20.9680   53.1200 O   0  0  0  0  0  0  0  0  0  0  0  0
   54.1340   21.9630   51.0290 C   0  0  0  0  0  0  0  0  0  0  0  0
   52.8810   22.1560   50.4240 C   0  0  0  0  0  0  0  0  0  0  0  0
   52.7560   22.1370   49.0330 C   0  0  0  0  0  0  0  0  0  0  0  0
   53.8800   21.9310   48.2300 C   0  0  0  0  0  0  0  0  0  0  0  0
   55.1400   21.7350   48.8170 C   0  0  0  0  0  0  0  0  0  0  0  0
   56.3570   21.5580   47.9560 C   0  0  0  0  0  0  0  0  0  0  0  0
   57.1130   22.8030   47.9280 N   0  0  0  0  0  0  0  0  0  0  0  0
   57.6790   23.3680   46.7410 C   0  0  0  0  0  0  0  0  0  0  0  0
   58.4730   22.6760   46.0510 O   0  0  0  0  0  0  0  0  0  0  0  0
   57.3750   24.7500   46.3210 C   0  0  0  0  0  0  0  0  0  0  0  0
   56.0510   25.2400   46.3370 C   0  0  0  0  0  0  0  0  0  0  0  0
   54.9730   24.4350   46.7120 O   0  0  0  0  0  0  0  0  0  0  0  0
   55.8010   26.5220   45.9650 N   0  0  0  0  0  0  0  0  0  0  0  0
   56.7830   27.3680   45.5580 C   0  0  0  0  0  0  0  0  0  0  0  0
   56.4650   28.6840   45.1860 C   0  0  0  0  0  0  0  0  0  0  0  0
   55.1450   29.1220   45.2400 O   0  0  0  0  0  0  0  0  0  0  0  0
   57.4770   29.5540   44.7600 C   0  0  0  0  0  0  0  0  0  0  0  0
   57.0950   31.2030   44.2870 Cl  0  0  0  0  0  0  0  0  0  0  0  0
   58.8020   29.1130   44.7050 C   0  0  0  0  0  0  0  0  0  0  0  0
   59.1270   27.8050   45.0740 C   0  0  0  0  0  0  0  0  0  0  0  0
   58.1220   26.9210   45.5050 C   0  0  0  0  0  0  0  0  0  0  0  0
   58.4120   25.5980   45.8900 C   0  0  0  0  0  0  0  0  0  0  0  0
   59.5990   25.1710   45.8580 O   0  0  0  0  0  0  0  0  0  0  0  0
   55.2640   21.7690   50.2150 C   0  0  0  0  0  0  0  0  0  0  0  0
   54.9320   23.5750   54.3450 C   0  0  0  0  0  0  0  0  0  0  0  0
   54.4060   24.7710   55.1510 C   0  0  0  0  0  0  0  0  0  0  0  0
  1  2  1  0
  2  3  2  0
  2  4  1  0
  4  5  1  0
  5  6  1  0
  6  7  1  0
  7  8  1  0
  8  9  2  0
  8 10  1  0
 10 11  2  0
 11 12  1  0
 12 13  2  0
 13 14  1  0
 14 15  1  0
 15 16  1  0
 16 17  1  0
 17 18  2  0
 17 19  1  0
 19 20  2  0
 20 21  1  0
 20 22  1  0
 22 23  1  0
 23 24  2  0
 24 25  1  0
 24 26  1  0
 26 27  1  0
 26 28  2  0
 28 29  1  0
 29 30  2  0
 30 31  1  0
 31 32  2  0
 14 33  2  0
  7 34  1  0
 34 35  1  0
 35  4  1  0
 33 10  1  0
 31 19  1  0
 30 23  1  0
M  CHG  3  16  -1  22  -1  25  -1
M  END
>  <UniqueID>  (2433) 
88

>  <SMILES>  (2433) 
CC(=O)N1CCN(C(=O)c2cccc(C[N-]C(=O)c3c(O)[n-]c4c([O-])c(Cl)ccc4c3=O)c2)CC1

>  <Energy>  (2433) 
73.68593822658043

>  <Genealogy>  (2433) 
CC(=O)N1CCN(C(=O)c2cccc(C[N-]C(=O)c3c(O)[n-]c4c([O-])c(Cl)ccc4c3=O)c2)CC1 (protonated)
CC(=O)N1CCN(C(=O)c2cccc(C[N-]C(=O)c3c(O)[n-]c4c([O-])c(Cl)ccc4c3=O)c2)CC1 (3D coordinates assigned)
CC(=O)N1CCN(C(=O)c2cccc(C[N-]C(=O)c3c(O)[n-]c4c([O-])c(Cl)ccc4c3=O)c2)CC1 (nonaromatic ring conformer: 73.68593822658043 kcal/mol)

>  <smiles>  (2433) 
CC(=O)N1CCN(C(=O)c2cccc(CNC(=O)c3c(O)[nH]c4c(O)c(Cl)ccc4c3=O)c2)CC1

>  <score_type>  (2433) 
oracle

>  <origin>  (2433) 
adg

>  <m_score__min__energy>  (2433) 
-16.25

>  <m_primary>  (2433) 
energy

$$$$
2:0
     RDKit          3D

 24 26  0  0  0  0  0  0  0  0999 V2000
   53.5310   28.0680   53.2800 C   0  0  0  0  0  0  0  0  0  0  0  0
   54.3570   28.9960   52.7750 C   0  0  0  0  0  0  0  0  0  0  0  0
   55.6850   28.8290   53.0240 N   0  0  0  0  0  0  0  0  0  0  0  0
   56.6150   29.7730   52.7410 C   0  0  0  0  0  0  0  0  0  0  0  0
   56.2270   31.0050   52.2090 C   0  0  0  0  0  0  0  0  0  0  0  0
   57.2370   32.0590   51.9410 C   0  0  0  0  0  0  0  0  0  0  0  0
   57.0290   33.2350   52.3450 O   0  0  0  0  0  0  0  0  0  0  0  0
   58.4160   31.7990   51.1640 N   0  0  0  0  0  0  0  0  0  0  0  0
   58.8580   32.4880   50.1470 C   0  0  0  0  0  0  0  0  0  0  0  0
   59.8760   33.4240   50.3660 C   0  0  0  0  0  0  0  0  0  0  0  0
   60.3690   34.1760   49.2960 C   0  0  0  0  0  0  0  0  0  0  0  0
   59.8720   33.9910   48.0460 N   0  0  0  0  0  0  0  0  0  0  0  0
   58.8950   33.0810   47.7950 C   0  0  0  0  0  0  0  0  0  0  0  0
   58.3730   32.3070   48.8350 C   0  0  0  0  0  0  0  0  0  0  0  0
   54.8690   31.2130   51.9310 C   0  0  0  0  0  0  0  0  0  0  0  0
   53.9170   30.1900   52.1200 C   0  0  0  0  0  0  0  0  0  0  0  0
   52.6660   30.4170   51.6450 C   0  0  0  0  0  0  0  0  0  0  0  0
   51.6840   31.3720   52.1910 C   0  0  0  0  0  0  0  0  0  0  0  0
   51.4280   31.5030   53.5050 N   0  0  0  0  0  0  0  0  0  0  0  0
   50.5680   32.5440   53.5540 C   0  0  0  0  0  0  0  0  0  0  0  0
   50.0790   32.9670   54.6350 O   0  0  0  0  0  0  0  0  0  0  0  0
   50.2820   33.1010   52.3580 N   0  0  0  0  0  0  0  0  0  0  0  0
   51.0070   32.3580   51.5070 C   0  0  0  0  0  0  0  0  0  0  0  0
   51.0710   32.5970   50.1400 O   0  0  0  0  0  0  0  0  0  0  0  0
  1  2  2  0
  2  3  1  0
  3  4  2  0
  4  5  1  0
  5  6  1  0
  6  7  2  0
  6  8  1  0
  8  9  2  3
  9 10  1  0
 10 11  2  0
 11 12  1  0
 12 13  1  0
 13 14  2  0
  5 15  2  0
 15 16  1  0
 16 17  2  3
 17 18  1  0
 18 19  1  0
 19 20  1  0
 20 21  2  0
 20 22  1  0
 22 23  1  0
 23 24  1  0
 16  2  1  0
 23 18  2  0
 14  9  1  0
M  CHG  4  12  -1  19  -1  22  -1  24  -1
M  END
>  <UniqueID>  (2434) 
2

>  <SMILES>  (2434) 
C=c1ncc(C(=O)N=c2cc[n-]cc2)cc1=Cc1[n-]c(=O)[n-]c1[O-]

>  <Energy>  (2434) 
97.31767992623726

>  <Genealogy>  (2434) 
C=c1ncc(C(=O)N=c2cc[n-]cc2)cc1=Cc1[n-]c(=O)[n-]c1[O-] (protonated)
C=c1ncc(C(=O)N=c2cc[n-]cc2)cc1=Cc1[n-]c(=O)[n-]c1[O-] (3D coordinates assigned)
C=c1ncc(C(=O)N=c2cc[n-]cc2)cc1=Cc1[n-]c(=O)[n-]c1[O-] (optimized conformer: 97.31767992623726 kcal/mol)

>  <smiles>  (2434) 
C=c1ncc(C(=O)N=c2cc[nH]cc2)cc1=Cc1[nH]c(=O)[nH]c1O

>  <score_type>  (2434) 
oracle

>  <origin>  (2434) 
adg

>  <m_score__min__energy>  (2434) 
-17.16

>  <m_primary>  (2434) 
energy

$$$$
10:0
     RDKit          3D

 32 35  0  0  0  0  0  0  0  0999 V2000
   60.1550   28.9680   44.8290 C   0  0  0  0  0  0  0  0  0  0  0  0
   59.6980   29.0770   46.0880 C   0  0  0  0  0  0  0  0  0  0  0  0
   58.5870   28.4010   46.6170 C   0  0  0  0  0  0  0  0  0  0  0  0
   57.6860   27.6580   45.9400 C   0  0  0  0  0  0  0  0  0  0  0  0
   57.1970   26.3250   46.3690 C   0  0  0  0  0  0  0  0  0  0  0  0
   57.9460   25.3650   46.9440 N   0  0  0  0  0  0  0  0  0  0  0  0
   57.0400   24.4540   47.3530 C   0  0  0  0  0  0  0  0  0  0  0  0
   57.3620   23.4250   48.0000 O   0  0  0  0  0  0  0  0  0  0  0  0
   55.7540   24.7720   47.0840 N   0  0  0  0  0  0  0  0  0  0  0  0
   55.8730   25.9550   46.4550 C   0  0  0  0  0  0  0  0  0  0  0  0
   54.7890   26.7020   46.0090 O   0  0  0  0  0  0  0  0  0  0  0  0
   58.5540   28.7200   47.9640 C   0  0  0  0  0  0  0  0  0  0  0  0
   59.6060   29.5800   48.2020 C   0  0  0  0  0  0  0  0  0  0  0  0
   59.9270   30.0720   49.5640 C   0  0  0  0  0  0  0  0  0  0  0  0
   61.0940   29.8510   50.0000 O   0  0  0  0  0  0  0  0  0  0  0  0
   58.9640   30.7570   50.4130 N   0  0  0  0  0  0  0  0  0  0  0  0
   59.6050   31.5650   51.4660 C   0  0  0  0  0  0  0  0  0  0  0  0
   59.1070   32.8740   50.8810 C   0  0  0  0  0  0  0  0  0  0  0  0
   58.4150   32.0060   49.8490 C   0  0  0  0  0  0  0  0  0  0  0  0
   60.2750   29.8510   47.0480 N   0  0  0  0  0  0  0  0  0  0  0  0
   61.1910   30.9860   46.8320 C   0  0  0  0  0  0  0  0  0  0  0  0
   60.4690   32.3050   47.0270 C   0  0  0  0  0  0  0  0  0  0  0  0
   61.0920   33.3210   47.7790 C   0  0  0  0  0  0  0  0  0  0  0  0
   60.4580   34.5440   47.9900 C   0  0  0  0  0  0  0  0  0  0  0  0
   59.2000   34.7780   47.4380 C   0  0  0  0  0  0  0  0  0  0  0  0
   58.5700   33.7930   46.6770 C   0  0  0  0  0  0  0  0  0  0  0  0
   59.1830   32.5390   46.4770 C   0  0  0  0  0  0  0  0  0  0  0  0
   58.5560   31.5220   45.7320 O   0  0  0  0  0  0  0  0  0  0  0  0
   57.4030   31.6890   44.9060 C   0  0  0  0  0  0  0  0  0  0  0  0
   57.5500   30.9590   43.5490 C   0  0  0  0  0  0  0  0  0  0  0  0
   57.7190   31.9570   42.3960 C   0  0  0  0  0  0  0  0  0  0  0  0
   56.3270   30.0660   43.3000 C   0  0  0  0  0  0  0  0  0  0  0  0
  1  2  2  0
  2  3  1  0
  3  4  2  0
  4  5  1  0
  5  6  1  0
  6  7  1  0
  7  8  2  0
  7  9  1  0
  9 10  1  0
 10 11  1  0
  3 12  1  0
 12 13  2  0
 13 14  1  0
 14 15  2  0
 14 16  1  0
 16 17  1  0
 17 18  1  0
 18 19  1  0
 13 20  1  0
 20 21  1  0
 21 22  1  0
 22 23  2  0
 23 24  1  0
 24 25  2  0
 25 26  1  0
 26 27  2  0
 27 28  1  0
 28 29  1  0
 29 30  1  0
 30 31  1  0
 30 32  1  0
 20  2  1  0
 27 22  1  0
 10  5  2  0
 19 16  1  0
M  CHG  4   6  -1   9  -1  11  -1  16   1
M  END
>  <UniqueID>  (2435) 
9

>  <SMILES>  (2435) 
C=c1/c(=C/c2[n-]c(=O)[n-]c2[O-])cc(C(=O)[NH+]2CCC2)n1Cc1ccccc1OCC(C)C

>  <Energy>  (2435) 
203.21080518752265

>  <Genealogy>  (2435) 
C=c1c(=Cc2[n-]c(=O)[n-]c2[O-])cc(C(=O)[NH+]2CCC2)n1Cc1ccccc1OCC(C)C (protonated)
C=c1/c(=C/c2[n-]c(=O)[n-]c2[O-])cc(C(=O)[NH+]2CCC2)n1Cc1ccccc1OCC(C)C (cis-trans isomerization)
C=c1/c(=C/c2[n-]c(=O)[n-]c2[O-])cc(C(=O)[NH+]2CCC2)n1Cc1ccccc1OCC(C)C (3D coordinates assigned)
C=c1/c(=C/c2[n-]c(=O)[n-]c2[O-])cc(C(=O)[NH+]2CCC2)n1Cc1ccccc1OCC(C)C (nonaromatic ring conformer: 203.21080518752265 kcal/mol)

>  <smiles>  (2435) 
C=c1c(=Cc2[nH]c(=O)[nH]c2O)cc(C(=O)N2CCC2)n1Cc1ccccc1OCC(C)C

>  <score_type>  (2435) 
oracle

>  <origin>  (2435) 
adg

>  <m_score__min__energy>  (2435) 
-14.779999999999999

>  <m_primary>  (2435) 
energy

$$$$
24:0
     RDKit          3D

 28 31  0  0  0  0  0  0  0  0999 V2000
   60.3200   27.7890   46.2210 C   0  0  0  0  0  0  0  0  0  0  0  0
   59.1760   28.2630   45.7000 C   0  0  0  0  0  0  0  0  0  0  0  0
   58.1630   27.5100   45.0840 C   0  0  0  0  0  0  0  0  0  0  0  0
   57.9610   26.1800   45.0200 C   0  0  0  0  0  0  0  0  0  0  0  0
   57.3150   25.3570   46.0540 C   0  0  0  0  0  0  0  0  0  0  0  0
   57.8880   24.2720   46.6040 N   0  0  0  0  0  0  0  0  0  0  0  0
   56.9100   23.7690   47.3890 C   0  0  0  0  0  0  0  0  0  0  0  0
   57.0720   22.7400   48.0960 O   0  0  0  0  0  0  0  0  0  0  0  0
   55.7440   24.4470   47.3500 N   0  0  0  0  0  0  0  0  0  0  0  0
   56.0110   25.4410   46.4870 C   0  0  0  0  0  0  0  0  0  0  0  0
   55.0780   26.3920   46.0840 O   0  0  0  0  0  0  0  0  0  0  0  0
   57.3070   28.4230   44.4960 C   0  0  0  0  0  0  0  0  0  0  0  0
   57.7770   29.6810   44.8140 C   0  0  0  0  0  0  0  0  0  0  0  0
   57.1490   30.9370   44.3640 C   0  0  0  0  0  0  0  0  0  0  0  0
   55.9090   31.1150   44.5030 O   0  0  0  0  0  0  0  0  0  0  0  0
   58.9020   29.5900   45.5650 N   0  0  0  0  0  0  0  0  0  0  0  0
   59.7250   30.7250   46.0160 C   0  0  0  0  0  0  0  0  0  0  0  0
   59.1460   31.3160   47.2630 C   0  0  0  0  0  0  0  0  0  0  0  0
   59.4610   30.9760   48.5580 C   0  0  0  0  0  0  0  0  0  0  0  0
   58.7890   31.8340   49.3470 N   0  0  0  0  0  0  0  0  0  0  0  0
   58.8590   31.9630   50.8070 C   0  0  0  0  0  0  0  0  0  0  0  0
   57.4730   32.2680   51.4280 C   0  0  0  0  0  0  0  0  0  0  0  0
   57.0710   31.2470   52.5030 C   0  0  0  0  0  0  0  0  0  0  0  0
   57.2030   29.8730   52.0020 N   0  0  0  0  0  0  0  0  0  0  0  0
   58.5660   29.5230   51.5470 C   0  0  0  0  0  0  0  0  0  0  0  0
   59.5300   30.7210   51.4260 C   0  0  0  0  0  0  0  0  0  0  0  0
   58.1190   32.6710   48.5680 N   0  0  0  0  0  0  0  0  0  0  0  0
   58.3170   32.3780   47.2910 N   0  0  0  0  0  0  0  0  0  0  0  0
  1  2  2  0
  2  3  1  0
  3  4  2  3
  4  5  1  0
  5  6  1  0
  6  7  1  0
  7  8  2  0
  7  9  1  0
  9 10  1  0
 10 11  1  0
  3 12  1  0
 12 13  2  0
 13 14  1  0
 14 15  2  0
 13 16  1  0
 16 17  1  0
 17 18  1  0
 18 19  2  0
 19 20  1  0
 20 21  1  0
 21 22  1  0
 22 23  1  0
 23 24  1  0
 24 25  1  0
 25 26  1  0
 20 27  1  0
 27 28  2  0
 16  2  1  0
 28 18  1  0
 10  5  2  0
 26 21  1  0
M  CHG  2   6  -1   9  -1
M  END
>  <UniqueID>  (2436) 
23

>  <SMILES>  (2436) 
C=c1c(=Cc2[n-]c(=O)[n-]c2O)cc(C=O)n1Cc1cn(C2CCNCC2)nn1

>  <Energy>  (2436) 
159.25233298279656

>  <Genealogy>  (2436) 
C=c1c(=Cc2[n-]c(=O)[n-]c2O)cc(C=O)n1Cc1cn(C2CCNCC2)nn1 (protonated)
C=c1c(=Cc2[n-]c(=O)[n-]c2O)cc(C=O)n1Cc1cn(C2CCNCC2)nn1 (3D coordinates assigned)
C=c1c(=Cc2[n-]c(=O)[n-]c2O)cc(C=O)n1Cc1cn(C2CCNCC2)nn1 (nonaromatic ring conformer: 159.25233298279656 kcal/mol)

>  <smiles>  (2436) 
C=c1c(=Cc2[nH]c(=O)[nH]c2O)cc(C=O)n1Cc1cn(C2CCNCC2)nn1

>  <score_type>  (2436) 
oracle

>  <origin>  (2436) 
adg

>  <m_score__min__energy>  (2436) 
-14.18

>  <m_primary>  (2436) 
energy

$$$$
42:0
     RDKit          3D

 32 36  0  0  0  0  0  0  0  0999 V2000
   57.4020   25.3950   47.6420 C   0  0  0  0  0  0  0  0  0  0  0  0
   57.6230   25.8390   46.3930 C   0  0  0  0  0  0  0  0  0  0  0  0
   57.1800   25.2370   45.2090 C   0  0  0  0  0  0  0  0  0  0  0  0
   56.4570   24.1070   45.0870 C   0  0  0  0  0  0  0  0  0  0  0  0
   54.9870   24.0550   45.1810 C   0  0  0  0  0  0  0  0  0  0  0  0
   54.2730   22.9320   44.9900 N   0  0  0  0  0  0  0  0  0  0  0  0
   53.0050   23.3150   45.2580 C   0  0  0  0  0  0  0  0  0  0  0  0
   52.0270   22.5290   45.1750 O   0  0  0  0  0  0  0  0  0  0  0  0
   52.8710   24.6050   45.6350 N   0  0  0  0  0  0  0  0  0  0  0  0
   54.1350   25.0570   45.5940 C   0  0  0  0  0  0  0  0  0  0  0  0
   54.5030   26.3410   45.9780 O   0  0  0  0  0  0  0  0  0  0  0  0
   57.6790   26.0120   44.1710 C   0  0  0  0  0  0  0  0  0  0  0  0
   58.3730   27.0540   44.7490 C   0  0  0  0  0  0  0  0  0  0  0  0
   59.0780   28.1340   43.9850 C   0  0  0  0  0  0  0  0  0  0  0  0
   58.3460   26.9490   46.0970 N   0  0  0  0  0  0  0  0  0  0  0  0
   58.9370   27.8830   47.0200 C   0  0  0  0  0  0  0  0  0  0  0  0
   58.6230   29.2450   46.9360 C   0  0  0  0  0  0  0  0  0  0  0  0
   59.2420   30.1470   47.8000 C   0  0  0  0  0  0  0  0  0  0  0  0
   60.1670   29.6920   48.7500 C   0  0  0  0  0  0  0  0  0  0  0  0
   60.8580   30.6540   49.6410 C   0  0  0  0  0  0  0  0  0  0  0  0
   60.8470   30.4490   50.8870 O   0  0  0  0  0  0  0  0  0  0  0  0
   61.5310   31.8190   49.1260 N   0  0  0  0  0  0  0  0  0  0  0  0
   62.2830   31.7770   47.8690 C   0  0  0  0  0  0  0  0  0  0  0  0
   63.6980   32.3360   48.0870 C   0  0  0  0  0  0  0  0  0  0  0  0
   63.7420   33.6000   48.8720 N   0  0  0  0  0  0  0  0  0  0  0  0
   64.6130   33.4580   50.0520 C   0  0  0  0  0  0  0  0  0  0  0  0
   64.7990   32.0140   50.4840 C   0  0  0  0  0  0  0  0  0  0  0  0
   65.9260   32.7430   49.7720 C   0  0  0  0  0  0  0  0  0  0  0  0
   62.4170   34.1260   49.2650 C   0  0  0  0  0  0  0  0  0  0  0  0
   61.5410   33.0490   49.9230 C   0  0  0  0  0  0  0  0  0  0  0  0
   60.4620   28.3200   48.7930 C   0  0  0  0  0  0  0  0  0  0  0  0
   59.8500   27.4550   47.9390 N   0  0  0  0  0  0  0  0  0  0  0  0
  1  2  2  0
  2  3  1  0
  3  4  2  3
  4  5  1  0
  5  6  1  0
  6  7  1  0
  7  8  2  0
  7  9  1  0
  9 10  1  0
 10 11  1  0
  3 12  1  0
 12 13  2  0
 13 14  1  0
 13 15  1  0
 15 16  1  0
 16 17  2  0
 17 18  1  0
 18 19  2  0
 19 20  1  0
 20 21  2  0
 20 22  1  0
 22 23  1  0
 23 24  1  0
 24 25  1  0
 25 26  1  0
 26 27  1  0
 27 28  1  0
 25 29  1  0
 29 30  1  0
 19 31  1  0
 31 32  2  0
 15  2  1  0
 32 16  1  0
 10  5  2  0
 30 22  1  0
 28 26  1  0
M  CHG  4   6  -1   9  -1  11  -1  32   1
M  END
>  <UniqueID>  (2437) 
38

>  <SMILES>  (2437) 
C=c1c(=Cc2[n-]c(=O)[n-]c2[O-])cc(C)n1-c1ccc(C(=O)N2CCN(C3CC3)CC2)c[nH+]1

>  <Energy>  (2437) 
406.3801462545905

>  <Genealogy>  (2437) 
C=c1c(=Cc2[n-]c(=O)[n-]c2[O-])cc(C)n1-c1ccc(C(=O)N2CCN(C3CC3)CC2)c[nH+]1 (protonated)
C=c1c(=Cc2[n-]c(=O)[n-]c2[O-])cc(C)n1-c1ccc(C(=O)N2CCN(C3CC3)CC2)c[nH+]1 (3D coordinates assigned)
C=c1c(=Cc2[n-]c(=O)[n-]c2[O-])cc(C)n1-c1ccc(C(=O)N2CCN(C3CC3)CC2)c[nH+]1 (nonaromatic ring conformer: 406.3801462545905 kcal/mol)

>  <smiles>  (2437) 
C=c1c(=Cc2[nH]c(=O)[nH]c2O)cc(C)n1-c1ccc(C(=O)N2CCN(C3CC3)CC2)cn1

>  <score_type>  (2437) 
oracle

>  <origin>  (2437) 
adg

>  <m_score__min__energy>  (2437) 
-15.33

>  <m_primary>  (2437) 
energy

$$$$
64:0
     RDKit          3D

 31 34  0  0  0  0  0  0  0  0999 V2000
   58.8560   23.8280   45.9960 C   0  0  0  0  0  0  0  0  0  0  0  0
   58.5230   25.0350   45.5080 C   0  0  0  0  0  0  0  0  0  0  0  0
   57.5030   25.3310   44.5850 C   0  0  0  0  0  0  0  0  0  0  0  0
   56.5230   24.5630   44.0680 C   0  0  0  0  0  0  0  0  0  0  0  0
   55.2680   24.2020   44.7420 C   0  0  0  0  0  0  0  0  0  0  0  0
   54.6140   23.0460   44.5290 N   0  0  0  0  0  0  0  0  0  0  0  0
   53.4960   23.1800   45.2720 C   0  0  0  0  0  0  0  0  0  0  0  0
   52.6210   22.2790   45.3450 O   0  0  0  0  0  0  0  0  0  0  0  0
   53.3860   24.3590   45.9240 N   0  0  0  0  0  0  0  0  0  0  0  0
   54.5090   25.0030   45.5700 C   0  0  0  0  0  0  0  0  0  0  0  0
   54.8150   26.3000   45.9800 O   0  0  0  0  0  0  0  0  0  0  0  0
   57.6650   26.6640   44.2460 C   0  0  0  0  0  0  0  0  0  0  0  0
   58.7290   27.1430   44.9820 C   0  0  0  0  0  0  0  0  0  0  0  0
   59.2140   28.5340   44.9240 C   0  0  0  0  0  0  0  0  0  0  0  0
   60.1720   28.8230   44.1590 O   0  0  0  0  0  0  0  0  0  0  0  0
   58.6430   29.5630   45.7420 N   0  0  0  0  0  0  0  0  0  0  0  0
   57.5720   30.4660   45.3260 C   0  0  0  0  0  0  0  0  0  0  0  0
   58.0280   31.8940   45.4390 C   0  0  0  0  0  0  0  0  0  0  0  0
   57.7460   32.8250   44.4270 C   0  0  0  0  0  0  0  0  0  0  0  0
   58.2400   34.1300   44.5130 C   0  0  0  0  0  0  0  0  0  0  0  0
   59.0110   34.5190   45.6100 C   0  0  0  0  0  0  0  0  0  0  0  0
   59.2990   33.5990   46.6300 C   0  0  0  0  0  0  0  0  0  0  0  0
   60.0760   34.0360   47.8450 C   0  0  0  0  0  0  0  0  0  0  0  0
   61.3680   33.3280   47.9130 N   0  0  0  0  0  0  0  0  0  0  0  0
   62.1360   33.4370   46.6700 C   0  0  0  0  0  0  0  0  0  0  0  0
   63.5910   33.2380   47.0520 C   0  0  0  0  0  0  0  0  0  0  0  0
   63.6780   33.6430   48.5140 C   0  0  0  0  0  0  0  0  0  0  0  0
   62.2380   33.8840   48.9570 C   0  0  0  0  0  0  0  0  0  0  0  0
   58.8060   32.2860   46.5380 C   0  0  0  0  0  0  0  0  0  0  0  0
   59.2410   26.1630   45.7640 N   0  0  0  0  0  0  0  0  0  0  0  0
   60.4590   26.2510   46.5820 C   0  0  0  0  0  0  0  0  0  0  0  0
  1  2  2  0
  2  3  1  0
  3  4  2  3
  4  5  1  0
  5  6  1  0
  6  7  1  0
  7  8  2  0
  7  9  1  0
  9 10  1  0
 10 11  1  0
  3 12  1  0
 12 13  2  0
 13 14  1  0
 14 15  2  0
 14 16  1  0
 16 17  1  0
 17 18  1  0
 18 19  2  0
 19 20  1  0
 20 21  2  0
 21 22  1  0
 22 23  1  0
 23 24  1  0
 24 25  1  0
 25 26  1  0
 26 27  1  0
 27 28  1  0
 22 29  2  0
 13 30  1  0
 30 31  1  0
 30  2  1  0
 10  5  2  0
 29 18  1  0
 28 24  1  0
M  CHG  3   6  -1   9  -1  16  -1
M  END
>  <UniqueID>  (2438) 
58

>  <SMILES>  (2438) 
C=c1c(=Cc2[n-]c(=O)[n-]c2O)cc(C(=O)[N-]Cc2cccc(CN3CCCC3)c2)n1C

>  <Energy>  (2438) 
130.77021571842369

>  <Genealogy>  (2438) 
C=c1c(=Cc2[n-]c(=O)[n-]c2O)cc(C(=O)[N-]Cc2cccc(CN3CCCC3)c2)n1C (protonated)
C=c1c(=Cc2[n-]c(=O)[n-]c2O)cc(C(=O)[N-]Cc2cccc(CN3CCCC3)c2)n1C (3D coordinates assigned)
C=c1c(=Cc2[n-]c(=O)[n-]c2O)cc(C(=O)[N-]Cc2cccc(CN3CCCC3)c2)n1C (nonaromatic ring conformer: 130.77021571842369 kcal/mol)

>  <smiles>  (2438) 
C=c1c(=Cc2[nH]c(=O)[nH]c2O)cc(C(=O)NCc2cccc(CN3CCCC3)c2)n1C

>  <score_type>  (2438) 
oracle

>  <origin>  (2438) 
adg

>  <m_score__min__energy>  (2438) 
-15.19

>  <m_primary>  (2438) 
energy

$$$$
67:0
     RDKit          3D

 30 32  0  0  0  0  0  0  0  0999 V2000
   55.3220   26.5880   46.0720 N   0  0  0  0  0  0  0  0  0  0  0  0
   56.7240   26.8420   46.1480 C   0  0  0  0  0  0  0  0  0  0  0  0
   57.4840   25.9230   46.5570 O   0  0  0  0  0  0  0  0  0  0  0  0
   57.2910   28.1610   45.7570 C   0  0  0  0  0  0  0  0  0  0  0  0
   58.6520   28.4300   46.0090 C   0  0  0  0  0  0  0  0  0  0  0  0
   59.2290   29.6540   45.6560 C   0  0  0  0  0  0  0  0  0  0  0  0
   60.5940   29.8470   45.9300 O   0  0  0  0  0  0  0  0  0  0  0  0
   61.1340   30.8880   46.7460 C   0  0  0  0  0  0  0  0  0  0  0  0
   60.3230   31.0520   48.0040 C   0  0  0  0  0  0  0  0  0  0  0  0
   59.2770   31.9870   48.0460 C   0  0  0  0  0  0  0  0  0  0  0  0
   58.5300   32.1550   49.2140 C   0  0  0  0  0  0  0  0  0  0  0  0
   58.8140   31.3870   50.3450 C   0  0  0  0  0  0  0  0  0  0  0  0
   59.8410   30.4360   50.3160 C   0  0  0  0  0  0  0  0  0  0  0  0
   60.1090   29.6770   51.5040 N   0  0  0  0  0  0  0  0  0  0  0  0
   61.2630   29.7920   52.3450 C   0  0  0  0  0  0  0  0  0  0  0  0
   61.7230   28.7890   52.9540 O   0  0  0  0  0  0  0  0  0  0  0  0
   61.9080   31.1310   52.5280 C   0  0  0  0  0  0  0  0  0  0  0  0
   63.1170   31.2800   51.6410 C   0  0  0  0  0  0  0  0  0  0  0  0
   64.1730   30.6550   51.9360 O   0  0  0  0  0  0  0  0  0  0  0  0
   63.1090   32.1650   50.5000 N   0  0  0  0  0  0  0  0  0  0  0  0
   62.1300   33.2620   50.4130 C   0  0  0  0  0  0  0  0  0  0  0  0
   62.6050   34.3570   49.4530 C   0  0  0  0  0  0  0  0  0  0  0  0
   62.9430   33.7970   48.0610 C   0  0  0  0  0  0  0  0  0  0  0  0
   63.5850   32.3940   48.0950 C   0  0  0  0  0  0  0  0  0  0  0  0
   64.1530   32.0360   49.4720 C   0  0  0  0  0  0  0  0  0  0  0  0
   60.6140   30.2920   49.1490 C   0  0  0  0  0  0  0  0  0  0  0  0
   58.4320   30.6380   45.0470 C   0  0  0  0  0  0  0  0  0  0  0  0
   57.0850   30.3900   44.7910 C   0  0  0  0  0  0  0  0  0  0  0  0
   56.5090   29.1640   45.1390 C   0  0  0  0  0  0  0  0  0  0  0  0
   55.1610   28.9640   44.8610 O   0  0  0  0  0  0  0  0  0  0  0  0
  1  2  1  0
  2  3  2  0
  2  4  1  0
  4  5  2  0
  5  6  1  0
  6  7  1  0
  7  8  1  0
  8  9  1  0
  9 10  2  0
 10 11  1  0
 11 12  2  0
 12 13  1  0
 13 14  1  0
 14 15  1  0
 15 16  2  0
 15 17  1  0
 17 18  1  0
 18 19  2  0
 18 20  1  0
 20 21  1  0
 21 22  1  0
 22 23  1  0
 23 24  1  0
 24 25  1  0
 13 26  2  0
  6 27  2  0
 27 28  1  0
 28 29  2  0
 29 30  1  0
 29  4  1  0
 26  9  1  0
 25 20  1  0
M  CHG  3   1  -1  14  -1  30  -1
M  END
>  <UniqueID>  (2439) 
61

>  <SMILES>  (2439) 
[NH-]C(=O)c1cc(OCc2cccc([N-]C(=O)CC(=O)N3CCCCC3)c2)ccc1[O-]

>  <Energy>  (2439) 
58.6900210612426

>  <Genealogy>  (2439) 
[NH-]C(=O)c1cc(OCc2cccc([N-]C(=O)CC(=O)N3CCCCC3)c2)ccc1[O-] (protonated)
[NH-]C(=O)c1cc(OCc2cccc([N-]C(=O)CC(=O)N3CCCCC3)c2)ccc1[O-] (3D coordinates assigned)
[NH-]C(=O)c1cc(OCc2cccc([N-]C(=O)CC(=O)N3CCCCC3)c2)ccc1[O-] (nonaromatic ring conformer: 58.6900210612426 kcal/mol)

>  <smiles>  (2439) 
NC(=O)c1cc(OCc2cccc(NC(=O)CC(=O)N3CCCCC3)c2)ccc1O

>  <score_type>  (2439) 
oracle

>  <origin>  (2439) 
adg

>  <m_score__min__energy>  (2439) 
-17.52

>  <m_primary>  (2439) 
energy

$$$$
27:0
     RDKit          3D

 27 29  0  0  0  0  0  0  0  0999 V2000
   54.6970   28.3470   52.7140 C   0  0  0  0  0  0  0  0  0  0  0  0
   55.1560   29.6090   52.6890 C   0  0  0  0  0  0  0  0  0  0  0  0
   54.4020   30.7800   52.5030 C   0  0  0  0  0  0  0  0  0  0  0  0
   53.0700   30.9820   52.4800 C   0  0  0  0  0  0  0  0  0  0  0  0
   52.2220   30.9930   51.2790 C   0  0  0  0  0  0  0  0  0  0  0  0
   52.3290   30.0940   50.2860 N   0  0  0  0  0  0  0  0  0  0  0  0
   51.4670   30.5560   49.3540 C   0  0  0  0  0  0  0  0  0  0  0  0
   51.2710   29.9640   48.2600 O   0  0  0  0  0  0  0  0  0  0  0  0
   50.8430   31.7090   49.6780 N   0  0  0  0  0  0  0  0  0  0  0  0
   51.3430   31.9800   50.8940 C   0  0  0  0  0  0  0  0  0  0  0  0
   51.0240   33.1200   51.6220 O   0  0  0  0  0  0  0  0  0  0  0  0
   55.3160   31.8060   52.3440 C   0  0  0  0  0  0  0  0  0  0  0  0
   56.5700   31.2580   52.5110 C   0  0  0  0  0  0  0  0  0  0  0  0
   57.8200   32.0400   52.4670 C   0  0  0  0  0  0  0  0  0  0  0  0
   58.3440   32.3940   53.5570 O   0  0  0  0  0  0  0  0  0  0  0  0
   58.4630   32.3780   51.2200 N   0  0  0  0  0  0  0  0  0  0  0  0
   58.3870   31.4770   50.0610 C   0  0  0  0  0  0  0  0  0  0  0  0
   58.2600   32.2870   48.7660 C   0  0  0  0  0  0  0  0  0  0  0  0
   59.2290   33.3940   48.7120 N   0  0  0  0  0  0  0  0  0  0  0  0
   59.3970   34.1480   47.4910 C   0  0  0  0  0  0  0  0  0  0  0  0
   60.4220   34.8650   47.3310 O   0  0  0  0  0  0  0  0  0  0  0  0
   58.3860   34.0650   46.3790 C   0  0  0  0  0  0  0  0  0  0  0  0
   58.7620   34.8930   45.3130 O   0  0  0  0  0  0  0  0  0  0  0  0
   60.1260   33.6320   49.8520 C   0  0  0  0  0  0  0  0  0  0  0  0
   59.3530   33.5480   51.1750 C   0  0  0  0  0  0  0  0  0  0  0  0
   56.4780   29.9210   52.7100 N   0  0  0  0  0  0  0  0  0  0  0  0
   57.5930   28.9680   52.7740 C   0  0  0  0  0  0  0  0  0  0  0  0
  1  2  2  0
  2  3  1  0
  3  4  2  3
  4  5  1  0
  5  6  1  0
  6  7  1  0
  7  8  2  0
  7  9  1  0
  9 10  1  0
 10 11  1  0
  3 12  1  0
 12 13  2  0
 13 14  1  0
 14 15  2  0
 14 16  1  0
 16 17  1  0
 17 18  1  0
 18 19  1  0
 19 20  1  0
 20 21  2  0
 20 22  1  0
 22 23  1  0
 19 24  1  0
 24 25  1  0
 13 26  1  0
 26 27  1  0
 26  2  1  0
 10  5  2  0
 25 16  1  0
M  CHG  3   6  -1   9  -1  11  -1
M  END
>  <UniqueID>  (2440) 
28

>  <SMILES>  (2440) 
C=c1c(=Cc2[n-]c(=O)[n-]c2[O-])cc(C(=O)N2CCN(C(=O)CO)CC2)n1C

>  <Energy>  (2440) 
121.25959869106491

>  <Genealogy>  (2440) 
C=c1c(=Cc2[n-]c(=O)[n-]c2[O-])cc(C(=O)N2CCN(C(=O)CO)CC2)n1C (protonated)
C=c1c(=Cc2[n-]c(=O)[n-]c2[O-])cc(C(=O)N2CCN(C(=O)CO)CC2)n1C (3D coordinates assigned)
C=c1c(=Cc2[n-]c(=O)[n-]c2[O-])cc(C(=O)N2CCN(C(=O)CO)CC2)n1C (nonaromatic ring conformer: 121.25959869106491 kcal/mol)

>  <smiles>  (2440) 
C=c1c(=Cc2[nH]c(=O)[nH]c2O)cc(C(=O)N2CCN(C(=O)CO)CC2)n1C

>  <score_type>  (2440) 
oracle

>  <origin>  (2440) 
adg

>  <m_score__min__energy>  (2440) 
-15.94

>  <m_primary>  (2440) 
energy

$$$$
29:0
     RDKit          3D

 29 32  0  0  0  0  0  0  0  0999 V2000
   56.7440   33.5640   46.1290 O   0  0  0  0  0  0  0  0  0  0  0  0
   58.1240   33.5350   46.3110 C   0  0  0  0  0  0  0  0  0  0  0  0
   58.8630   34.7060   46.1570 C   0  0  0  0  0  0  0  0  0  0  0  0
   60.2480   34.6900   46.3230 C   0  0  0  0  0  0  0  0  0  0  0  0
   60.9190   33.4980   46.6470 C   0  0  0  0  0  0  0  0  0  0  0  0
   62.4160   33.5370   46.7950 C   0  0  0  0  0  0  0  0  0  0  0  0
   60.1680   32.3080   46.8480 C   0  0  0  0  0  0  0  0  0  0  0  0
   60.8070   30.9800   47.2250 C   0  0  0  0  0  0  0  0  0  0  0  0
   59.8550   29.8540   47.1590 N   0  0  0  0  0  0  0  0  0  0  0  0
   59.3320   29.1770   48.2150 C   0  0  0  0  0  0  0  0  0  0  0  0
   59.5880   29.4510   49.6460 C   0  0  0  0  0  0  0  0  0  0  0  0
   60.1380   28.5840   50.3750 O   0  0  0  0  0  0  0  0  0  0  0  0
   59.2360   30.7120   50.2160 N   0  0  0  0  0  0  0  0  0  0  0  0
   58.5320   31.9460   49.8210 C   0  0  0  0  0  0  0  0  0  0  0  0
   58.5950   32.6000   51.1610 C   0  0  0  0  0  0  0  0  0  0  0  0
   59.3110   31.3470   51.5430 C   0  0  0  0  0  0  0  0  0  0  0  0
   58.5500   28.1300   47.7750 C   0  0  0  0  0  0  0  0  0  0  0  0
   58.5760   28.1540   46.3960 C   0  0  0  0  0  0  0  0  0  0  0  0
   57.8510   27.3100   45.6360 C   0  0  0  0  0  0  0  0  0  0  0  0
   57.2210   26.0650   46.1040 C   0  0  0  0  0  0  0  0  0  0  0  0
   57.9130   25.0160   46.5780 N   0  0  0  0  0  0  0  0  0  0  0  0
   56.9490   24.1670   46.9940 C   0  0  0  0  0  0  0  0  0  0  0  0
   57.2070   23.0420   47.4950 O   0  0  0  0  0  0  0  0  0  0  0  0
   55.6870   24.6230   46.8410 N   0  0  0  0  0  0  0  0  0  0  0  0
   55.8760   25.8320   46.2910 C   0  0  0  0  0  0  0  0  0  0  0  0
   54.8430   26.7130   45.9930 O   0  0  0  0  0  0  0  0  0  0  0  0
   59.4600   29.1820   46.0410 C   0  0  0  0  0  0  0  0  0  0  0  0
   59.9960   29.3760   44.8250 C   0  0  0  0  0  0  0  0  0  0  0  0
   58.7740   32.3410   46.6470 C   0  0  0  0  0  0  0  0  0  0  0  0
  1  2  1  0
  2  3  2  0
  3  4  1  0
  4  5  2  0
  5  6  1  0
  5  7  1  0
  7  8  1  0
  8  9  1  0
  9 10  1  0
 10 11  1  0
 11 12  2  0
 11 13  1  0
 13 14  1  0
 14 15  1  0
 15 16  1  0
 10 17  2  0
 17 18  1  0
 18 19  2  0
 19 20  1  0
 20 21  1  0
 21 22  1  0
 22 23  2  0
 22 24  1  0
 24 25  1  0
 25 26  1  0
 18 27  1  0
 27 28  2  0
  7 29  2  0
 29  2  1  0
 27  9  1  0
 16 13  1  0
 25 20  2  0
M  CHG  3  21  -1  24  -1  26  -1
M  END
>  <UniqueID>  (2441) 
30

>  <SMILES>  (2441) 
C=c1/c(=C\c2[n-]c(=O)[n-]c2[O-])cc(C(=O)N2CCC2)n1Cc1cc(O)ccc1C

>  <Energy>  (2441) 
170.26347137199247

>  <Genealogy>  (2441) 
C=c1c(=Cc2[n-]c(=O)[n-]c2[O-])cc(C(=O)N2CCC2)n1Cc1cc(O)ccc1C (protonated)
C=c1/c(=C\c2[n-]c(=O)[n-]c2[O-])cc(C(=O)N2CCC2)n1Cc1cc(O)ccc1C (cis-trans isomerization)
C=c1/c(=C\c2[n-]c(=O)[n-]c2[O-])cc(C(=O)N2CCC2)n1Cc1cc(O)ccc1C (3D coordinates assigned)
C=c1/c(=C\c2[n-]c(=O)[n-]c2[O-])cc(C(=O)N2CCC2)n1Cc1cc(O)ccc1C (nonaromatic ring conformer: 170.26347137199247 kcal/mol)

>  <smiles>  (2441) 
C=c1c(=Cc2[nH]c(=O)[nH]c2O)cc(C(=O)N2CCC2)n1Cc1cc(O)ccc1C

>  <score_type>  (2441) 
oracle

>  <origin>  (2441) 
adg

>  <m_score__min__energy>  (2441) 
-16.07

>  <m_primary>  (2441) 
energy

$$$$
30:0
     RDKit          3D

 36 40  0  0  0  0  0  0  0  0999 V2000
   59.0970   27.3760   47.5050 C   0  0  0  0  0  0  0  0  0  0  0  0
   58.7530   28.2360   46.5340 C   0  0  0  0  0  0  0  0  0  0  0  0
   58.1410   27.9150   45.3180 C   0  0  0  0  0  0  0  0  0  0  0  0
   57.8070   26.6880   44.8700 C   0  0  0  0  0  0  0  0  0  0  0  0
   57.1370   25.6640   45.6920 C   0  0  0  0  0  0  0  0  0  0  0  0
   57.7680   24.5810   46.1770 N   0  0  0  0  0  0  0  0  0  0  0  0
   56.8230   23.9770   46.9300 C   0  0  0  0  0  0  0  0  0  0  0  0
   57.0350   22.9020   47.5500 O   0  0  0  0  0  0  0  0  0  0  0  0
   55.6380   24.6220   46.9770 N   0  0  0  0  0  0  0  0  0  0  0  0
   55.8560   25.6940   46.2000 C   0  0  0  0  0  0  0  0  0  0  0  0
   54.9190   26.7010   46.0010 O   0  0  0  0  0  0  0  0  0  0  0  0
   57.9990   29.1110   44.6250 C   0  0  0  0  0  0  0  0  0  0  0  0
   58.5020   30.1040   45.4430 C   0  0  0  0  0  0  0  0  0  0  0  0
   58.5670   31.5560   45.0790 C   0  0  0  0  0  0  0  0  0  0  0  0
   58.9690   29.5730   46.5950 N   0  0  0  0  0  0  0  0  0  0  0  0
   59.5620   30.3070   47.6800 C   0  0  0  0  0  0  0  0  0  0  0  0
   58.8850   30.4180   48.9020 C   0  0  0  0  0  0  0  0  0  0  0  0
   59.4410   31.1370   49.9880 C   0  0  0  0  0  0  0  0  0  0  0  0
   58.7400   31.2440   51.2660 N   0  0  0  0  0  0  0  0  0  0  0  0
   58.9310   30.1820   52.2730 C   0  0  0  0  0  0  0  0  0  0  0  0
   58.2810   30.4790   53.6240 C   0  0  0  0  0  0  0  0  0  0  0  0
   56.9380   31.0560   53.4850 N   0  0  0  0  0  0  0  0  0  0  0  0
   55.9990   30.1390   52.8550 C   0  0  0  0  0  0  0  0  0  0  0  0
   56.3970   29.0090   52.4560 O   0  0  0  0  0  0  0  0  0  0  0  0
   54.5570   30.4800   52.6870 C   0  0  0  0  0  0  0  0  0  0  0  0
   54.0170   30.8450   51.4360 C   0  0  0  0  0  0  0  0  0  0  0  0
   52.6600   31.1650   51.3140 C   0  0  0  0  0  0  0  0  0  0  0  0
   51.8260   31.1280   52.4320 C   0  0  0  0  0  0  0  0  0  0  0  0
   52.3460   30.7750   53.6780 C   0  0  0  0  0  0  0  0  0  0  0  0
   53.7010   30.4550   53.8080 C   0  0  0  0  0  0  0  0  0  0  0  0
   57.0220   32.3610   52.8090 C   0  0  0  0  0  0  0  0  0  0  0  0
   57.7580   32.3370   51.4520 C   0  0  0  0  0  0  0  0  0  0  0  0
   60.7080   31.7390   49.7930 C   0  0  0  0  0  0  0  0  0  0  0  0
   61.3790   31.6270   48.5740 C   0  0  0  0  0  0  0  0  0  0  0  0
   60.8130   30.9140   47.5200 C   0  0  0  0  0  0  0  0  0  0  0  0
   61.4900   30.7960   46.3500 F   0  0  0  0  0  0  0  0  0  0  0  0
  1  2  2  0
  2  3  1  0
  3  4  2  3
  4  5  1  0
  5  6  1  0
  6  7  1  0
  7  8  2  0
  7  9  1  0
  9 10  1  0
 10 11  1  0
  3 12  1  0
 12 13  2  0
 13 14  1  0
 13 15  1  0
 15 16  1  0
 16 17  2  0
 17 18  1  0
 18 19  1  0
 19 20  1  0
 20 21  1  0
 21 22  1  0
 22 23  1  0
 23 24  2  0
 23 25  1  0
 25 26  2  0
 26 27  1  0
 27 28  2  0
 28 29  1  0
 29 30  2  0
 22 31  1  0
 31 32  1  0
 18 33  2  0
 33 34  1  0
 34 35  2  0
 35 36  1  0
 15  2  1  0
 35 16  1  0
 10  5  2  0
 32 19  1  0
 30 25  1  0
M  CHG  4   6  -1   9  -1  11  -1  22   1
M  END
>  <UniqueID>  (2442) 
31

>  <SMILES>  (2442) 
C=c1c(=Cc2[n-]c(=O)[n-]c2[O-])cc(C)n1-c1cc(N2CC[NH+](C(=O)c3ccccc3)CC2)ccc1F

>  <Energy>  (2442) 
153.59842779221637

>  <Genealogy>  (2442) 
C=c1c(=Cc2[n-]c(=O)[n-]c2[O-])cc(C)n1-c1cc(N2CC[NH+](C(=O)c3ccccc3)CC2)ccc1F (protonated)
C=c1c(=Cc2[n-]c(=O)[n-]c2[O-])cc(C)n1-c1cc(N2CC[NH+](C(=O)c3ccccc3)CC2)ccc1F (3D coordinates assigned)
C=c1c(=Cc2[n-]c(=O)[n-]c2[O-])cc(C)n1-c1cc(N2CC[NH+](C(=O)c3ccccc3)CC2)ccc1F (nonaromatic ring conformer: 153.59842779221637 kcal/mol)

>  <smiles>  (2442) 
C=c1c(=Cc2[nH]c(=O)[nH]c2O)cc(C)n1-c1cc(N2CCN(C(=O)c3ccccc3)CC2)ccc1F

>  <score_type>  (2442) 
oracle

>  <origin>  (2442) 
adg

>  <m_score__min__energy>  (2442) 
-17.059999999999999

>  <m_primary>  (2442) 
energy

$$$$
34:0
     RDKit          3D

 29 32  0  0  0  0  0  0  0  0999 V2000
   54.3610   30.0630   55.0160 C   0  0  0  0  0  0  0  0  0  0  0  0
   54.8560   30.3120   53.7910 C   0  0  0  0  0  0  0  0  0  0  0  0
   54.0940   30.6230   52.6580 C   0  0  0  0  0  0  0  0  0  0  0  0
   52.7530   30.7270   52.5700 C   0  0  0  0  0  0  0  0  0  0  0  0
   52.0160   30.8900   51.3020 C   0  0  0  0  0  0  0  0  0  0  0  0
   52.1200   30.0290   50.2750 N   0  0  0  0  0  0  0  0  0  0  0  0
   51.3960   30.6170   49.3000 C   0  0  0  0  0  0  0  0  0  0  0  0
   51.2580   30.1030   48.1600 O   0  0  0  0  0  0  0  0  0  0  0  0
   50.8580   31.8090   49.6320 N   0  0  0  0  0  0  0  0  0  0  0  0
   51.2700   31.9760   50.8970 C   0  0  0  0  0  0  0  0  0  0  0  0
   51.0210   33.1240   51.6410 O   0  0  0  0  0  0  0  0  0  0  0  0
   54.9970   30.8520   51.6350 C   0  0  0  0  0  0  0  0  0  0  0  0
   56.2560   30.6620   52.1630 C   0  0  0  0  0  0  0  0  0  0  0  0
   57.5210   30.8300   51.3820 C   0  0  0  0  0  0  0  0  0  0  0  0
   56.1800   30.2990   53.4670 N   0  0  0  0  0  0  0  0  0  0  0  0
   57.3350   30.0050   54.3390 C   0  0  0  0  0  0  0  0  0  0  0  0
   57.9700   28.6680   53.9990 C   0  0  0  0  0  0  0  0  0  0  0  0
   57.2260   27.4950   54.2200 C   0  0  0  0  0  0  0  0  0  0  0  0
   57.7740   26.2390   53.9620 C   0  0  0  0  0  0  0  0  0  0  0  0
   59.0780   26.1230   53.4740 C   0  0  0  0  0  0  0  0  0  0  0  0
   59.6550   24.8270   53.2290 N   0  0  0  0  0  0  0  0  0  0  0  0
   61.1190   24.7210   53.1270 C   0  0  0  0  0  0  0  0  0  0  0  0
   61.5570   23.2920   52.8140 C   0  0  0  0  0  0  0  0  0  0  0  0
   60.6850   22.7270   51.8630 O   0  0  0  0  0  0  0  0  0  0  0  0
   59.4570   22.4190   52.4890 C   0  0  0  0  0  0  0  0  0  0  0  0
   58.7650   23.6610   53.1000 C   0  0  0  0  0  0  0  0  0  0  0  0
   59.8230   27.2890   53.2340 C   0  0  0  0  0  0  0  0  0  0  0  0
   59.2780   28.5620   53.4700 C   0  0  0  0  0  0  0  0  0  0  0  0
   60.1210   29.7730   53.1770 C   0  0  0  0  0  0  0  0  0  0  0  0
  1  2  2  0
  2  3  1  0
  3  4  2  0
  4  5  1  0
  5  6  1  0
  6  7  1  0
  7  8  2  0
  7  9  1  0
  9 10  1  0
 10 11  1  0
  3 12  1  0
 12 13  2  0
 13 14  1  0
 13 15  1  0
 15 16  1  0
 16 17  1  0
 17 18  2  0
 18 19  1  0
 19 20  2  0
 20 21  1  0
 21 22  1  0
 22 23  1  0
 23 24  1  0
 24 25  1  0
 25 26  1  0
 20 27  1  0
 27 28  2  0
 28 29  1  0
 15  2  1  0
 28 17  1  0
 10  5  2  0
 26 21  1  0
M  CHG  3   6  -1   9  -1  11  -1
M  END
>  <UniqueID>  (2443) 
35

>  <SMILES>  (2443) 
C=c1/c(=C/c2[n-]c(=O)[n-]c2[O-])cc(C)n1Cc1ccc(N2CCOCC2)cc1C

>  <Energy>  (2443) 
131.60744415296094

>  <Genealogy>  (2443) 
C=c1c(=Cc2[n-]c(=O)[n-]c2[O-])cc(C)n1Cc1ccc(N2CCOCC2)cc1C (protonated)
C=c1/c(=C/c2[n-]c(=O)[n-]c2[O-])cc(C)n1Cc1ccc(N2CCOCC2)cc1C (cis-trans isomerization)
C=c1/c(=C/c2[n-]c(=O)[n-]c2[O-])cc(C)n1Cc1ccc(N2CCOCC2)cc1C (3D coordinates assigned)
C=c1/c(=C/c2[n-]c(=O)[n-]c2[O-])cc(C)n1Cc1ccc(N2CCOCC2)cc1C (nonaromatic ring conformer: 131.60744415296094 kcal/mol)

>  <smiles>  (2443) 
C=c1c(=Cc2[nH]c(=O)[nH]c2O)cc(C)n1Cc1ccc(N2CCOCC2)cc1C

>  <score_type>  (2443) 
oracle

>  <origin>  (2443) 
adg

>  <m_score__min__energy>  (2443) 
-16.449999999999999

>  <m_primary>  (2443) 
energy

$$$$
42:0
     RDKit          3D

 24 26  0  0  0  0  0  0  0  0999 V2000
   53.3580   28.0440   53.6390 C   0  0  0  0  0  0  0  0  0  0  0  0
   54.1370   29.0550   53.2240 C   0  0  0  0  0  0  0  0  0  0  0  0
   55.4670   28.9450   53.4980 N   0  0  0  0  0  0  0  0  0  0  0  0
   56.3820   29.8680   53.1160 C   0  0  0  0  0  0  0  0  0  0  0  0
   55.9800   31.0060   52.4210 C   0  0  0  0  0  0  0  0  0  0  0  0
   56.9780   32.0210   52.0120 C   0  0  0  0  0  0  0  0  0  0  0  0
   56.7300   33.2410   52.2150 O   0  0  0  0  0  0  0  0  0  0  0  0
   58.2110   31.6450   51.3680 N   0  0  0  0  0  0  0  0  0  0  0  0
   58.2240   30.5860   50.3510 C   0  0  0  0  0  0  0  0  0  0  0  0
   59.3710   30.8050   49.3490 C   0  0  0  0  0  0  0  0  0  0  0  0
   59.5510   32.2370   49.0240 N   0  0  0  0  0  0  0  0  0  0  0  0
   58.4190   32.7660   48.2430 C   0  0  0  0  0  0  0  0  0  0  0  0
   59.8470   33.0810   50.2110 C   0  0  0  0  0  0  0  0  0  0  0  0
   59.4190   32.4510   51.5500 C   0  0  0  0  0  0  0  0  0  0  0  0
   54.6260   31.1550   52.1020 C   0  0  0  0  0  0  0  0  0  0  0  0
   53.6630   30.1960   52.4940 C   0  0  0  0  0  0  0  0  0  0  0  0
   52.3440   30.3920   52.2230 C   0  0  0  0  0  0  0  0  0  0  0  0
   51.7820   30.8410   50.9290 C   0  0  0  0  0  0  0  0  0  0  0  0
   51.6730   30.0820   49.8230 N   0  0  0  0  0  0  0  0  0  0  0  0
   51.0040   30.8770   48.9610 C   0  0  0  0  0  0  0  0  0  0  0  0
   50.7170   30.5170   47.7900 O   0  0  0  0  0  0  0  0  0  0  0  0
   50.6580   32.0840   49.4550 N   0  0  0  0  0  0  0  0  0  0  0  0
   51.1470   32.0400   50.7050 C   0  0  0  0  0  0  0  0  0  0  0  0
   51.0130   33.0720   51.6240 O   0  0  0  0  0  0  0  0  0  0  0  0
  1  2  2  0
  2  3  1  0
  3  4  2  0
  4  5  1  0
  5  6  1  0
  6  7  2  0
  6  8  1  0
  8  9  1  0
  9 10  1  0
 10 11  1  0
 11 12  1  0
 11 13  1  0
 13 14  1  0
  5 15  2  0
 15 16  1  0
 16 17  2  3
 17 18  1  0
 18 19  1  0
 19 20  1  0
 20 21  2  0
 20 22  1  0
 22 23  1  0
 23 24  1  0
 16  2  1  0
 23 18  2  0
 14  8  1  0
M  CHG  3  19  -1  22  -1  24  -1
M  END
>  <UniqueID>  (2444) 
42

>  <SMILES>  (2444) 
C=c1ncc(C(=O)N2CCN(C)CC2)cc1=Cc1[n-]c(=O)[n-]c1[O-]

>  <Energy>  (2444) 
98.06815144889198

>  <Genealogy>  (2444) 
C=c1ncc(C(=O)N2CCN(C)CC2)cc1=Cc1[n-]c(=O)[n-]c1[O-] (protonated)
C=c1ncc(C(=O)N2CCN(C)CC2)cc1=Cc1[n-]c(=O)[n-]c1[O-] (3D coordinates assigned)
C=c1ncc(C(=O)N2CCN(C)CC2)cc1=Cc1[n-]c(=O)[n-]c1[O-] (nonaromatic ring conformer: 98.06815144889198 kcal/mol)

>  <smiles>  (2444) 
C=c1ncc(C(=O)N2CCN(C)CC2)cc1=Cc1[nH]c(=O)[nH]c1O

>  <score_type>  (2444) 
oracle

>  <origin>  (2444) 
adg

>  <m_score__min__energy>  (2444) 
-16.789999999999999

>  <m_primary>  (2444) 
energy

$$$$
47:0
     RDKit          3D

 40 44  0  0  0  0  0  0  0  0999 V2000
   57.7540   25.7170   43.9130 C   0  0  0  0  0  0  0  0  0  0  0  0
   56.9980   25.0560   44.8280 N   0  0  0  0  0  0  0  0  0  0  0  0
   56.4200   25.6880   45.8840 C   0  0  0  0  0  0  0  0  0  0  0  0
   55.6610   24.9930   46.6880 N   0  0  0  0  0  0  0  0  0  0  0  0
   55.3060   23.5760   46.5580 C   0  0  0  0  0  0  0  0  0  0  0  0
   56.5430   22.7130   46.6160 C   0  0  0  0  0  0  0  0  0  0  0  0
   56.9830   22.3710   47.7470 O   0  0  0  0  0  0  0  0  0  0  0  0
   57.2380   22.2890   45.4240 N   0  0  0  0  0  0  0  0  0  0  0  0
   58.6400   21.8750   45.5030 C   0  0  0  0  0  0  0  0  0  0  0  0
   59.2800   21.9080   44.1060 C   0  0  0  0  0  0  0  0  0  0  0  0
   58.6000   21.1130   43.1470 O   0  0  0  0  0  0  0  0  0  0  0  0
   57.1810   21.1090   43.2710 C   0  0  0  0  0  0  0  0  0  0  0  0
   56.5860   22.2550   44.1130 C   0  0  0  0  0  0  0  0  0  0  0  0
   56.6300   27.0740   46.0540 C   0  0  0  0  0  0  0  0  0  0  0  0
   57.3920   27.7860   45.1150 C   0  0  0  0  0  0  0  0  0  0  0  0
   57.5760   29.2450   45.2520 C   0  0  0  0  0  0  0  0  0  0  0  0
   56.6280   30.0300   44.9600 O   0  0  0  0  0  0  0  0  0  0  0  0
   58.8330   29.7730   45.6950 N   0  0  0  0  0  0  0  0  0  0  0  0
   59.4840   29.4090   46.9160 C   0  0  0  0  0  0  0  0  0  0  0  0
   59.3950   28.1050   47.4290 C   0  0  0  0  0  0  0  0  0  0  0  0
   60.0370   27.7800   48.6270 C   0  0  0  0  0  0  0  0  0  0  0  0
   60.7680   28.7510   49.3180 C   0  0  0  0  0  0  0  0  0  0  0  0
   60.8830   30.0550   48.8040 C   0  0  0  0  0  0  0  0  0  0  0  0
   61.6140   31.1190   49.5840 C   0  0  0  0  0  0  0  0  0  0  0  0
   62.2200   32.1140   48.6910 N   0  0  0  0  0  0  0  0  0  0  0  0
   61.4080   32.8590   47.9290 N   0  0  0  0  0  0  0  0  0  0  0  0
   61.8670   33.8380   47.1060 C   0  0  0  0  0  0  0  0  0  0  0  0
   60.9980   34.5560   46.4500 N   0  0  0  0  0  0  0  0  0  0  0  0
   59.6280   34.2420   46.1580 C   0  0  0  0  0  0  0  0  0  0  0  0
   58.7270   33.8850   47.1790 C   0  0  0  0  0  0  0  0  0  0  0  0
   57.4290   33.4700   46.8620 C   0  0  0  0  0  0  0  0  0  0  0  0
   57.0300   33.3840   45.5250 C   0  0  0  0  0  0  0  0  0  0  0  0
   57.9280   33.7080   44.5080 C   0  0  0  0  0  0  0  0  0  0  0  0
   59.2300   34.1170   44.8220 C   0  0  0  0  0  0  0  0  0  0  0  0
   63.2540   34.0370   47.0090 C   0  0  0  0  0  0  0  0  0  0  0  0
   64.1110   33.2560   47.7850 C   0  0  0  0  0  0  0  0  0  0  0  0
   63.5770   32.2980   48.6420 C   0  0  0  0  0  0  0  0  0  0  0  0
   64.3530   31.6150   49.3700 O   0  0  0  0  0  0  0  0  0  0  0  0
   60.2360   30.3730   47.5980 C   0  0  0  0  0  0  0  0  0  0  0  0
   57.9570   27.0920   44.0310 C   0  0  0  0  0  0  0  0  0  0  0  0
  1  2  1  0
  2  3  1  0
  3  4  2  3
  4  5  1  0
  5  6  1  0
  6  7  2  0
  6  8  1  0
  8  9  1  0
  9 10  1  0
 10 11  1  0
 11 12  1  0
 12 13  1  0
  3 14  1  0
 14 15  2  0
 15 16  1  0
 16 17  2  0
 16 18  1  0
 18 19  1  0
 19 20  2  0
 20 21  1  0
 21 22  2  0
 22 23  1  0
 23 24  1  0
 24 25  1  0
 25 26  1  0
 26 27  1  0
 27 28  2  0
 28 29  1  0
 29 30  2  0
 30 31  1  0
 31 32  2  0
 32 33  1  0
 33 34  2  0
 27 35  1  0
 35 36  2  0
 36 37  1  0
 37 38  2  0
 23 39  2  0
 15 40  1  0
 40  1  2  0
 13  8  1  0
 39 19  1  0
 37 25  1  0
 34 29  1  0
M  CHG  3   2  -1  18  -1  26  -1
M  END
>  <UniqueID>  (2445) 
47

>  <SMILES>  (2445) 
O=C([N-]c1cccc(Cn2[n-]/c(=N/c3ccccc3)ccc2=O)c1)c1cc[n-]c(=NCC(=O)N2CCOCC2)c1

>  <Energy>  (2445) 
97.66870802760835

>  <Genealogy>  (2445) 
O=C([N-]c1cccc(Cn2[n-]c(=Nc3ccccc3)ccc2=O)c1)c1cc[n-]c(=NCC(=O)N2CCOCC2)c1 (protonated)
O=C([N-]c1cccc(Cn2[n-]/c(=N/c3ccccc3)ccc2=O)c1)c1cc[n-]c(=NCC(=O)N2CCOCC2)c1 (cis-trans isomerization)
O=C([N-]c1cccc(Cn2[n-]/c(=N/c3ccccc3)ccc2=O)c1)c1cc[n-]c(=NCC(=O)N2CCOCC2)c1 (3D coordinates assigned)
O=C([N-]c1cccc(Cn2[n-]/c(=N/c3ccccc3)ccc2=O)c1)c1cc[n-]c(=NCC(=O)N2CCOCC2)c1 (nonaromatic ring conformer: 97.66870802760835 kcal/mol)

>  <smiles>  (2445) 
O=C(Nc1cccc(Cn2[nH]c(=Nc3ccccc3)ccc2=O)c1)c1cc[nH]c(=NCC(=O)N2CCOCC2)c1

>  <score_type>  (2445) 
oracle

>  <origin>  (2445) 
adg

>  <m_score__min__energy>  (2445) 
-14.32

>  <m_primary>  (2445) 
energy

$$$$
49:0
     RDKit          3D

 29 31  0  0  0  0  0  0  0  0999 V2000
   58.3760   29.3860   47.5000 C   0  0  0  0  0  0  0  0  0  0  0  0
   57.9840   29.1870   46.2320 C   0  0  0  0  0  0  0  0  0  0  0  0
   57.6730   27.9590   45.6210 C   0  0  0  0  0  0  0  0  0  0  0  0
   57.8300   26.6920   46.0480 C   0  0  0  0  0  0  0  0  0  0  0  0
   56.9320   25.5670   45.7430 C   0  0  0  0  0  0  0  0  0  0  0  0
   55.5590   25.6160   45.6790 C   0  0  0  0  0  0  0  0  0  0  0  0
   54.7710   26.7100   46.0170 O   0  0  0  0  0  0  0  0  0  0  0  0
   55.0620   24.4480   45.2290 N   0  0  0  0  0  0  0  0  0  0  0  0
   56.1760   23.7170   45.0050 C   0  0  0  0  0  0  0  0  0  0  0  0
   56.1430   22.5420   44.5560 O   0  0  0  0  0  0  0  0  0  0  0  0
   57.3240   24.3640   45.2900 N   0  0  0  0  0  0  0  0  0  0  0  0
   57.1480   28.2690   44.3760 C   0  0  0  0  0  0  0  0  0  0  0  0
   57.2050   29.6410   44.2470 C   0  0  0  0  0  0  0  0  0  0  0  0
   56.7620   30.4040   43.0360 C   0  0  0  0  0  0  0  0  0  0  0  0
   57.7210   30.1980   45.3640 N   0  0  0  0  0  0  0  0  0  0  0  0
   57.8670   31.6100   45.5970 C   0  0  0  0  0  0  0  0  0  0  0  0
   57.0560   32.5210   44.9080 C   0  0  0  0  0  0  0  0  0  0  0  0
   57.1760   33.8900   45.1530 C   0  0  0  0  0  0  0  0  0  0  0  0
   58.1070   34.3580   46.0850 C   0  0  0  0  0  0  0  0  0  0  0  0
   58.9350   33.4570   46.7800 C   0  0  0  0  0  0  0  0  0  0  0  0
   59.9180   33.9620   47.7690 C   0  0  0  0  0  0  0  0  0  0  0  0
   59.6150   34.9540   48.4880 O   0  0  0  0  0  0  0  0  0  0  0  0
   61.2150   33.3540   47.8950 N   0  0  0  0  0  0  0  0  0  0  0  0
   62.0990   33.5870   49.0030 C   0  0  0  0  0  0  0  0  0  0  0  0
   61.7280   34.2800   49.9890 O   0  0  0  0  0  0  0  0  0  0  0  0
   63.4670   32.9720   49.0090 C   0  0  0  0  0  0  0  0  0  0  0  0
   63.6830   32.2370   47.8200 O   0  0  0  0  0  0  0  0  0  0  0  0
   63.7850   33.1110   46.7170 C   0  0  0  0  0  0  0  0  0  0  0  0
   58.7950   32.0790   46.5380 C   0  0  0  0  0  0  0  0  0  0  0  0
  1  2  2  0
  2  3  1  0
  3  4  2  0
  4  5  1  0
  5  6  2  0
  6  7  1  0
  6  8  1  0
  8  9  1  0
  9 10  2  0
  9 11  1  0
  3 12  1  0
 12 13  2  0
 13 14  1  0
 13 15  1  0
 15 16  1  0
 16 17  2  0
 17 18  1  0
 18 19  2  0
 19 20  1  0
 20 21  1  0
 21 22  2  0
 21 23  1  0
 23 24  1  0
 24 25  2  0
 24 26  1  0
 26 27  1  0
 27 28  1  0
 20 29  2  0
 15  2  1  0
 29 16  1  0
 11  5  1  0
M  CHG  2   7  -1   8  -1
M  END
>  <UniqueID>  (2446) 
48

>  <SMILES>  (2446) 
C=c1/c(=C\c2[nH]c(=O)[n-]c2[O-])cc(C)n1-c1cccc(C(=O)NC(=O)COC)c1

>  <Energy>  (2446) 
128.4934786167167

>  <Genealogy>  (2446) 
C=c1c(=Cc2[nH]c(=O)[n-]c2[O-])cc(C)n1-c1cccc(C(=O)NC(=O)COC)c1 (protonated)
C=c1/c(=C\c2[nH]c(=O)[n-]c2[O-])cc(C)n1-c1cccc(C(=O)NC(=O)COC)c1 (cis-trans isomerization)
C=c1/c(=C\c2[nH]c(=O)[n-]c2[O-])cc(C)n1-c1cccc(C(=O)NC(=O)COC)c1 (3D coordinates assigned)
C=c1/c(=C\c2[nH]c(=O)[n-]c2[O-])cc(C)n1-c1cccc(C(=O)NC(=O)COC)c1 (optimized conformer: 128.4934786167167 kcal/mol)

>  <smiles>  (2446) 
C=c1c(=Cc2[nH]c(=O)[nH]c2O)cc(C)n1-c1cccc(C(=O)NC(=O)COC)c1

>  <score_type>  (2446) 
oracle

>  <origin>  (2446) 
adg

>  <m_score__min__energy>  (2446) 
-14.48

>  <m_primary>  (2446) 
energy

$$$$
71:0
     RDKit          3D

 29 31  0  0  0  0  0  0  0  0999 V2000
   66.0860   32.8620   49.9000 N   0  0  0  0  0  0  0  0  0  0  0  0
   64.3970   32.7550   50.2530 S   0  0  0  0  0  0  0  0  0  0  0  0
   64.0630   31.3330   50.6080 O   0  0  0  0  0  0  0  0  0  0  0  0
   64.0660   33.6400   51.4220 O   0  0  0  0  0  0  0  0  0  0  0  0
   63.4700   33.2740   48.8420 C   0  0  0  0  0  0  0  0  0  0  0  0
   64.1260   33.5020   47.6210 C   0  0  0  0  0  0  0  0  0  0  0  0
   63.4050   33.9130   46.4980 C   0  0  0  0  0  0  0  0  0  0  0  0
   62.0240   34.0920   46.5820 C   0  0  0  0  0  0  0  0  0  0  0  0
   61.3600   33.8690   47.7900 C   0  0  0  0  0  0  0  0  0  0  0  0
   62.0770   33.4770   48.9360 C   0  0  0  0  0  0  0  0  0  0  0  0
   61.4090   33.2200   50.1820 N   0  0  0  0  0  0  0  0  0  0  0  0
   60.3080   32.3290   50.3910 C   0  0  0  0  0  0  0  0  0  0  0  0
   60.4850   31.2180   50.9580 O   0  0  0  0  0  0  0  0  0  0  0  0
   58.9660   32.7450   49.9350 C   0  0  0  0  0  0  0  0  0  0  0  0
   58.5310   32.7280   48.6660 C   0  0  0  0  0  0  0  0  0  0  0  0
   58.5450   31.5490   47.7760 C   0  0  0  0  0  0  0  0  0  0  0  0
   58.3870   31.6840   46.3870 C   0  0  0  0  0  0  0  0  0  0  0  0
   58.3640   30.5540   45.5660 C   0  0  0  0  0  0  0  0  0  0  0  0
   58.4680   29.2700   46.1250 C   0  0  0  0  0  0  0  0  0  0  0  0
   58.4890   28.0570   45.2370 C   0  0  0  0  0  0  0  0  0  0  0  0
   57.3630   27.1380   45.5970 C   0  0  0  0  0  0  0  0  0  0  0  0
   57.5410   25.5620   46.1680 S   0  0  0  0  0  0  0  0  0  0  0  0
   55.8860   25.3680   46.3880 C   0  0  0  0  0  0  0  0  0  0  0  0
   55.3470   24.3170   46.8210 O   0  0  0  0  0  0  0  0  0  0  0  0
   55.1830   26.4710   46.0540 N   0  0  0  0  0  0  0  0  0  0  0  0
   56.0070   27.4600   45.6200 C   0  0  0  0  0  0  0  0  0  0  0  0
   55.5170   28.7010   45.2350 O   0  0  0  0  0  0  0  0  0  0  0  0
   58.6030   29.1350   47.5150 C   0  0  0  0  0  0  0  0  0  0  0  0
   58.6260   30.2660   48.3370 C   0  0  0  0  0  0  0  0  0  0  0  0
  1  2  1  0
  2  3  2  0
  2  4  2  0
  2  5  1  0
  5  6  2  0
  6  7  1  0
  7  8  2  0
  8  9  1  0
  9 10  2  0
 10 11  1  0
 11 12  1  0
 12 13  2  0
 12 14  1  0
 14 15  2  3
 15 16  1  0
 16 17  2  0
 17 18  1  0
 18 19  2  0
 19 20  1  0
 20 21  1  0
 21 22  1  0
 22 23  1  0
 23 24  2  0
 23 25  1  0
 25 26  1  0
 26 27  1  0
 19 28  1  0
 28 29  2  0
 10  5  1  0
 29 16  1  0
 26 21  2  0
M  CHG  4   1  -1  11  -1  25  -1  27  -1
M  END
>  <UniqueID>  (2447) 
69

>  <SMILES>  (2447) 
[NH-]S(=O)(=O)c1ccccc1[N-]C(=O)C=Cc1ccc(Cc2sc(=O)[n-]c2[O-])cc1

>  <Energy>  (2447) 
85.28368804704814

>  <Genealogy>  (2447) 
[NH-]S(=O)(=O)c1ccccc1[N-]C(=O)C=Cc1ccc(Cc2sc(=O)[n-]c2[O-])cc1 (protonated)
[NH-]S(=O)(=O)c1ccccc1[N-]C(=O)C=Cc1ccc(Cc2sc(=O)[n-]c2[O-])cc1 (3D coordinates assigned)
[NH-]S(=O)(=O)c1ccccc1[N-]C(=O)C=Cc1ccc(Cc2sc(=O)[n-]c2[O-])cc1 (optimized conformer: 85.28368804704814 kcal/mol)

>  <smiles>  (2447) 
NS(=O)(=O)c1ccccc1NC(=O)C=Cc1ccc(Cc2sc(=O)[nH]c2O)cc1

>  <score_type>  (2447) 
oracle

>  <origin>  (2447) 
adg

>  <m_score__min__energy>  (2447) 
-16.190000000000001

>  <m_primary>  (2447) 
energy

$$$$
81:0
     RDKit          3D

 31 34  0  0  0  0  0  0  0  0999 V2000
   56.6550   29.8380   44.4910 C   0  0  0  0  0  0  0  0  0  0  0  0
   57.5720   29.6100   45.4470 C   0  0  0  0  0  0  0  0  0  0  0  0
   58.1320   28.3660   45.7590 C   0  0  0  0  0  0  0  0  0  0  0  0
   57.8010   27.1590   45.2490 C   0  0  0  0  0  0  0  0  0  0  0  0
   57.2010   26.0640   46.0380 C   0  0  0  0  0  0  0  0  0  0  0  0
   57.9290   25.1200   46.6600 N   0  0  0  0  0  0  0  0  0  0  0  0
   57.0010   24.3720   47.2960 C   0  0  0  0  0  0  0  0  0  0  0  0
   57.3010   23.3620   47.9880 O   0  0  0  0  0  0  0  0  0  0  0  0
   55.7290   24.8010   47.1440 N   0  0  0  0  0  0  0  0  0  0  0  0
   55.8720   25.8800   46.3590 C   0  0  0  0  0  0  0  0  0  0  0  0
   54.8160   26.7090   45.9930 O   0  0  0  0  0  0  0  0  0  0  0  0
   59.0750   28.6060   46.7420 C   0  0  0  0  0  0  0  0  0  0  0  0
   59.0590   29.9610   47.0050 C   0  0  0  0  0  0  0  0  0  0  0  0
   60.0010   30.6270   47.9380 C   0  0  0  0  0  0  0  0  0  0  0  0
   61.1300   31.0170   47.5380 O   0  0  0  0  0  0  0  0  0  0  0  0
   59.6670   30.7650   49.3260 N   0  0  0  0  0  0  0  0  0  0  0  0
   60.5330   30.1580   50.3430 C   0  0  0  0  0  0  0  0  0  0  0  0
   59.6710   29.3910   51.3490 C   0  0  0  0  0  0  0  0  0  0  0  0
   58.5010   30.1810   51.7610 N   0  0  0  0  0  0  0  0  0  0  0  0
   57.6120   29.6330   52.7510 C   0  0  0  0  0  0  0  0  0  0  0  0
   58.0900   29.0380   53.7530 O   0  0  0  0  0  0  0  0  0  0  0  0
   56.1420   29.7250   52.5950 C   0  0  0  0  0  0  0  0  0  0  0  0
   55.5700   30.8320   51.9460 C   0  0  0  0  0  0  0  0  0  0  0  0
   54.1850   30.8840   51.7600 C   0  0  0  0  0  0  0  0  0  0  0  0
   53.3780   29.8560   52.2500 C   0  0  0  0  0  0  0  0  0  0  0  0
   53.9730   28.7870   52.9250 C   0  0  0  0  0  0  0  0  0  0  0  0
   55.3280   28.7460   53.0940 N   0  0  0  0  0  0  0  0  0  0  0  0
   58.2910   31.5440   51.2430 C   0  0  0  0  0  0  0  0  0  0  0  0
   58.5130   31.5840   49.7250 C   0  0  0  0  0  0  0  0  0  0  0  0
   58.1320   30.5770   46.2260 N   0  0  0  0  0  0  0  0  0  0  0  0
   57.8510   32.0210   46.2040 C   0  0  0  0  0  0  0  0  0  0  0  0
  1  2  2  0
  2  3  1  0
  3  4  2  0
  4  5  1  0
  5  6  1  0
  6  7  1  0
  7  8  2  0
  7  9  1  0
  9 10  1  0
 10 11  1  0
  3 12  1  0
 12 13  2  0
 13 14  1  0
 14 15  2  0
 14 16  1  0
 16 17  1  0
 17 18  1  0
 18 19  1  0
 19 20  1  0
 20 21  2  0
 20 22  1  0
 22 23  2  0
 23 24  1  0
 24 25  2  0
 25 26  1  0
 26 27  2  0
 19 28  1  0
 28 29  1  0
 13 30  1  0
 30 31  1  0
 30  2  1  0
 10  5  2  0
 29 16  1  0
 27 22  1  0
M  CHG  4   6  -1   9  -1  11  -1  27   1
M  END
>  <UniqueID>  (2448) 
78

>  <SMILES>  (2448) 
C=c1/c(=C/c2[n-]c(=O)[n-]c2[O-])cc(C(=O)N2CCN(C(=O)c3cccc[nH+]3)CC2)n1C

>  <Energy>  (2448) 
129.3159327115247

>  <Genealogy>  (2448) 
C=c1c(=Cc2[n-]c(=O)[n-]c2[O-])cc(C(=O)N2CCN(C(=O)c3cccc[nH+]3)CC2)n1C (protonated)
C=c1/c(=C/c2[n-]c(=O)[n-]c2[O-])cc(C(=O)N2CCN(C(=O)c3cccc[nH+]3)CC2)n1C (cis-trans isomerization)
C=c1/c(=C/c2[n-]c(=O)[n-]c2[O-])cc(C(=O)N2CCN(C(=O)c3cccc[nH+]3)CC2)n1C (3D coordinates assigned)
C=c1/c(=C/c2[n-]c(=O)[n-]c2[O-])cc(C(=O)N2CCN(C(=O)c3cccc[nH+]3)CC2)n1C (nonaromatic ring conformer: 129.3159327115247 kcal/mol)

>  <smiles>  (2448) 
C=c1c(=Cc2[nH]c(=O)[nH]c2O)cc(C(=O)N2CCN(C(=O)c3ccccn3)CC2)n1C

>  <score_type>  (2448) 
oracle

>  <origin>  (2448) 
adg

>  <m_score__min__energy>  (2448) 
-16.300000000000001

>  <m_primary>  (2448) 
energy

$$$$
19:0
     RDKit          3D

 33 36  0  0  0  0  0  0  0  0999 V2000
   53.0180   28.3570   53.5800 C   0  0  0  0  0  0  0  0  0  0  0  0
   54.0820   29.0650   53.1720 C   0  0  0  0  0  0  0  0  0  0  0  0
   54.0940   30.4090   52.7720 C   0  0  0  0  0  0  0  0  0  0  0  0
   53.0910   31.2620   52.4880 C   0  0  0  0  0  0  0  0  0  0  0  0
   52.2050   31.1940   51.3150 C   0  0  0  0  0  0  0  0  0  0  0  0
   52.2800   30.2650   50.3450 N   0  0  0  0  0  0  0  0  0  0  0  0
   51.3970   30.7020   49.4250 C   0  0  0  0  0  0  0  0  0  0  0  0
   51.1670   30.0810   48.3570 O   0  0  0  0  0  0  0  0  0  0  0  0
   50.7890   31.8670   49.7320 N   0  0  0  0  0  0  0  0  0  0  0  0
   51.3240   32.1700   50.9240 C   0  0  0  0  0  0  0  0  0  0  0  0
   51.0170   33.3230   51.6360 O   0  0  0  0  0  0  0  0  0  0  0  0
   55.4250   30.7620   52.6520 C   0  0  0  0  0  0  0  0  0  0  0  0
   56.1700   29.6280   52.8990 C   0  0  0  0  0  0  0  0  0  0  0  0
   57.6350   29.5650   52.7270 C   0  0  0  0  0  0  0  0  0  0  0  0
   58.3010   28.6930   53.3530 O   0  0  0  0  0  0  0  0  0  0  0  0
   58.2970   30.4220   51.7880 N   0  0  0  0  0  0  0  0  0  0  0  0
   57.9940   31.8590   51.7480 C   0  0  0  0  0  0  0  0  0  0  0  0
   57.8060   32.3190   50.2970 C   0  0  0  0  0  0  0  0  0  0  0  0
   58.7670   31.6670   49.3940 N   0  0  0  0  0  0  0  0  0  0  0  0
   58.5170   31.6740   47.9760 C   0  0  0  0  0  0  0  0  0  0  0  0
   57.9020   32.7810   47.3700 C   0  0  0  0  0  0  0  0  0  0  0  0
   57.6080   32.7680   46.0050 C   0  0  0  0  0  0  0  0  0  0  0  0
   57.9050   31.6400   45.2250 C   0  0  0  0  0  0  0  0  0  0  0  0
   57.5860   31.6040   43.7870 C   0  0  0  0  0  0  0  0  0  0  0  0
   58.3490   32.1940   42.9780 O   0  0  0  0  0  0  0  0  0  0  0  0
   56.4650   30.8800   43.2680 N   0  0  0  0  0  0  0  0  0  0  0  0
   55.7560   29.8220   43.9730 C   0  0  0  0  0  0  0  0  0  0  0  0
   58.5440   30.5440   45.8230 C   0  0  0  0  0  0  0  0  0  0  0  0
   58.8400   30.5570   47.1880 C   0  0  0  0  0  0  0  0  0  0  0  0
   59.8960   30.9180   49.9590 C   0  0  0  0  0  0  0  0  0  0  0  0
   59.3730   29.8740   50.9490 C   0  0  0  0  0  0  0  0  0  0  0  0
   55.3570   28.5950   53.2220 N   0  0  0  0  0  0  0  0  0  0  0  0
   55.7760   27.2470   53.6320 C   0  0  0  0  0  0  0  0  0  0  0  0
  1  2  2  0
  2  3  1  0
  3  4  2  3
  4  5  1  0
  5  6  1  0
  6  7  1  0
  7  8  2  0
  7  9  1  0
  9 10  1  0
 10 11  1  0
  3 12  1  0
 12 13  2  0
 13 14  1  0
 14 15  2  0
 14 16  1  0
 16 17  1  0
 17 18  1  0
 18 19  1  0
 19 20  1  0
 20 21  2  0
 21 22  1  0
 22 23  2  0
 23 24  1  0
 24 25  2  0
 24 26  1  0
 26 27  1  0
 23 28  1  0
 28 29  2  0
 19 30  1  0
 30 31  1  0
 13 32  1  0
 32 33  1  0
 32  2  1  0
 10  5  2  0
 31 16  1  0
 29 20  1  0
M  CHG  4   6  -1   9  -1  11  -1  26  -1
M  END
>  <UniqueID>  (2449) 
20

>  <SMILES>  (2449) 
C=c1c(=Cc2[n-]c(=O)[n-]c2[O-])cc(C(=O)N2CCN(c3ccc(C(=O)[N-]C)cc3)CC2)n1C

>  <Energy>  (2449) 
141.61583465159154

>  <Genealogy>  (2449) 
C=c1c(=Cc2[n-]c(=O)[n-]c2[O-])cc(C(=O)N2CCN(c3ccc(C(=O)[N-]C)cc3)CC2)n1C (protonated)
C=c1c(=Cc2[n-]c(=O)[n-]c2[O-])cc(C(=O)N2CCN(c3ccc(C(=O)[N-]C)cc3)CC2)n1C (3D coordinates assigned)
C=c1c(=Cc2[n-]c(=O)[n-]c2[O-])cc(C(=O)N2CCN(c3ccc(C(=O)[N-]C)cc3)CC2)n1C (nonaromatic ring conformer: 141.61583465159154 kcal/mol)

>  <smiles>  (2449) 
C=c1c(=Cc2[nH]c(=O)[nH]c2O)cc(C(=O)N2CCN(c3ccc(C(=O)NC)cc3)CC2)n1C

>  <score_type>  (2449) 
oracle

>  <origin>  (2449) 
adg

>  <m_score__min__energy>  (2449) 
-18.84

>  <m_primary>  (2449) 
energy

$$$$
20:0
     RDKit          3D

 30 33  0  0  0  0  0  0  0  0999 V2000
   54.0870   29.1160   54.4050 C   0  0  0  0  0  0  0  0  0  0  0  0
   54.7110   29.7560   53.4030 C   0  0  0  0  0  0  0  0  0  0  0  0
   54.0930   30.6330   52.5020 C   0  0  0  0  0  0  0  0  0  0  0  0
   52.7840   30.9440   52.4230 C   0  0  0  0  0  0  0  0  0  0  0  0
   52.0700   31.1850   51.1570 C   0  0  0  0  0  0  0  0  0  0  0  0
   51.9950   30.2780   50.1670 N   0  0  0  0  0  0  0  0  0  0  0  0
   51.1820   30.8660   49.2630 C   0  0  0  0  0  0  0  0  0  0  0  0
   50.8740   30.3210   48.1720 O   0  0  0  0  0  0  0  0  0  0  0  0
   50.7130   32.0790   49.6270 N   0  0  0  0  0  0  0  0  0  0  0  0
   51.2730   32.2620   50.8330 C   0  0  0  0  0  0  0  0  0  0  0  0
   51.0210   33.3660   51.6380 O   0  0  0  0  0  0  0  0  0  0  0  0
   55.0900   31.0960   51.6620 C   0  0  0  0  0  0  0  0  0  0  0  0
   56.2620   30.5090   52.0800 C   0  0  0  0  0  0  0  0  0  0  0  0
   57.5710   30.8060   51.4690 C   0  0  0  0  0  0  0  0  0  0  0  0
   58.4000   29.8650   51.3240 O   0  0  0  0  0  0  0  0  0  0  0  0
   57.8400   32.1130   50.9050 N   0  0  0  0  0  0  0  0  0  0  0  0
   58.7870   32.8840   51.7580 C   0  0  0  0  0  0  0  0  0  0  0  0
   59.6550   33.8520   50.9480 C   0  0  0  0  0  0  0  0  0  0  0  0
   60.4160   33.1010   49.9420 N   0  0  0  0  0  0  0  0  0  0  0  0
   61.7600   33.5010   49.5950 C   0  0  0  0  0  0  0  0  0  0  0  0
   62.2520   34.5510   50.0930 O   0  0  0  0  0  0  0  0  0  0  0  0
   62.6150   32.6520   48.6910 C   0  0  0  0  0  0  0  0  0  0  0  0
   63.0040   33.3300   47.3850 C   0  0  0  0  0  0  0  0  0  0  0  0
   64.0440   33.1360   48.4720 C   0  0  0  0  0  0  0  0  0  0  0  0
   59.7850   31.9370   49.3050 C   0  0  0  0  0  0  0  0  0  0  0  0
   58.2580   31.9750   49.4840 C   0  0  0  0  0  0  0  0  0  0  0  0
   56.0480   29.6770   53.1310 N   0  0  0  0  0  0  0  0  0  0  0  0
   57.0880   28.8240   53.7520 C   0  0  0  0  0  0  0  0  0  0  0  0
   56.6540   27.3550   53.8540 C   0  0  0  0  0  0  0  0  0  0  0  0
   57.5740   29.3980   55.0880 C   0  0  0  0  0  0  0  0  0  0  0  0
  1  2  2  0
  2  3  1  0
  3  4  2  0
  4  5  1  0
  5  6  1  0
  6  7  1  0
  7  8  2  0
  7  9  1  0
  9 10  1  0
 10 11  1  0
  3 12  1  0
 12 13  2  0
 13 14  1  0
 14 15  2  0
 14 16  1  0
 16 17  1  0
 17 18  1  0
 18 19  1  0
 19 20  1  0
 20 21  2  0
 20 22  1  0
 22 23  1  0
 23 24  1  0
 19 25  1  0
 25 26  1  0
 13 27  1  0
 27 28  1  0
 28 29  1  0
 28 30  1  0
 27  2  1  0
 10  5  2  0
 26 16  1  0
 24 22  1  0
M  CHG  4   6  -1   9  -1  11  -1  16   1
M  END
>  <UniqueID>  (2450) 
21

>  <SMILES>  (2450) 
C=c1/c(=C/c2[n-]c(=O)[n-]c2[O-])cc(C(=O)[NH+]2CCN(C(=O)C3CC3)CC2)n1C(C)C

>  <Energy>  (2450) 
401.68847460439196

>  <Genealogy>  (2450) 
C=c1c(=Cc2[n-]c(=O)[n-]c2[O-])cc(C(=O)[NH+]2CCN(C(=O)C3CC3)CC2)n1C(C)C (protonated)
C=c1/c(=C/c2[n-]c(=O)[n-]c2[O-])cc(C(=O)[NH+]2CCN(C(=O)C3CC3)CC2)n1C(C)C (cis-trans isomerization)
C=c1/c(=C/c2[n-]c(=O)[n-]c2[O-])cc(C(=O)[NH+]2CCN(C(=O)C3CC3)CC2)n1C(C)C (3D coordinates assigned)
C=c1/c(=C/c2[n-]c(=O)[n-]c2[O-])cc(C(=O)[NH+]2CCN(C(=O)C3CC3)CC2)n1C(C)C (nonaromatic ring conformer: 401.68847460439196 kcal/mol)

>  <smiles>  (2450) 
C=c1c(=Cc2[nH]c(=O)[nH]c2O)cc(C(=O)N2CCN(C(=O)C3CC3)CC2)n1C(C)C

>  <score_type>  (2450) 
oracle

>  <origin>  (2450) 
adg

>  <m_score__min__energy>  (2450) 
-16.579999999999998

>  <m_primary>  (2450) 
energy

$$$$
22:0
     RDKit          3D

 31 34  0  0  0  0  0  0  0  0999 V2000
   56.0900   29.3970   44.1200 C   0  0  0  0  0  0  0  0  0  0  0  0
   57.2280   29.5760   44.8110 C   0  0  0  0  0  0  0  0  0  0  0  0
   58.0800   28.5790   45.3130 C   0  0  0  0  0  0  0  0  0  0  0  0
   58.0980   27.2460   45.1200 C   0  0  0  0  0  0  0  0  0  0  0  0
   57.4690   26.2410   45.9900 C   0  0  0  0  0  0  0  0  0  0  0  0
   58.1000   25.1400   46.4320 N   0  0  0  0  0  0  0  0  0  0  0  0
   57.1240   24.4570   47.0700 C   0  0  0  0  0  0  0  0  0  0  0  0
   57.3330   23.3560   47.6430 O   0  0  0  0  0  0  0  0  0  0  0  0
   55.9070   25.0390   47.0340 N   0  0  0  0  0  0  0  0  0  0  0  0
   56.1380   26.1600   46.3340 C   0  0  0  0  0  0  0  0  0  0  0  0
   55.1500   27.0760   45.9940 O   0  0  0  0  0  0  0  0  0  0  0  0
   59.0140   29.2300   46.0990 C   0  0  0  0  0  0  0  0  0  0  0  0
   58.7480   30.5800   46.0110 C   0  0  0  0  0  0  0  0  0  0  0  0
   59.5890   31.6300   46.6200 C   0  0  0  0  0  0  0  0  0  0  0  0
   59.7630   32.7130   45.9960 O   0  0  0  0  0  0  0  0  0  0  0  0
   60.2400   31.4230   47.8900 N   0  0  0  0  0  0  0  0  0  0  0  0
   61.4150   32.2340   48.2420 C   0  0  0  0  0  0  0  0  0  0  0  0
   62.3850   31.4330   49.1220 C   0  0  0  0  0  0  0  0  0  0  0  0
   61.6770   30.6760   50.1660 N   0  0  0  0  0  0  0  0  0  0  0  0
   62.4120   29.7540   50.9950 C   0  0  0  0  0  0  0  0  0  0  0  0
   63.7420   30.0250   51.3530 C   0  0  0  0  0  0  0  0  0  0  0  0
   64.4590   29.1250   52.1480 C   0  0  0  0  0  0  0  0  0  0  0  0
   63.8540   27.9350   52.5940 C   0  0  0  0  0  0  0  0  0  0  0  0
   64.5310   27.0010   53.3940 O   0  0  0  0  0  0  0  0  0  0  0  0
   65.7380   26.3460   53.0190 C   0  0  0  0  0  0  0  0  0  0  0  0
   62.5300   27.6640   52.2310 C   0  0  0  0  0  0  0  0  0  0  0  0
   61.8130   28.5640   51.4370 C   0  0  0  0  0  0  0  0  0  0  0  0
   60.2210   30.7950   50.2900 C   0  0  0  0  0  0  0  0  0  0  0  0
   59.5760   30.6010   48.9160 C   0  0  0  0  0  0  0  0  0  0  0  0
   57.6610   30.7950   45.2280 N   0  0  0  0  0  0  0  0  0  0  0  0
   57.0230   32.0880   44.9570 C   0  0  0  0  0  0  0  0  0  0  0  0
  1  2  2  0
  2  3  1  0
  3  4  2  0
  4  5  1  0
  5  6  1  0
  6  7  1  0
  7  8  2  0
  7  9  1  0
  9 10  1  0
 10 11  1  0
  3 12  1  0
 12 13  2  0
 13 14  1  0
 14 15  2  0
 14 16  1  0
 16 17  1  0
 17 18  1  0
 18 19  1  0
 19 20  1  0
 20 21  2  0
 21 22  1  0
 22 23  2  0
 23 24  1  0
 24 25  1  0
 23 26  1  0
 26 27  2  0
 19 28  1  0
 28 29  1  0
 13 30  1  0
 30 31  1  0
 30  2  1  0
 10  5  2  0
 29 16  1  0
 27 20  1  0
M  CHG  3   6  -1   9  -1  11  -1
M  END
>  <UniqueID>  (2451) 
23

>  <SMILES>  (2451) 
C=c1/c(=C\c2[n-]c(=O)[n-]c2[O-])cc(C(=O)N2CCN(c3ccc(OC)cc3)CC2)n1C

>  <Energy>  (2451) 
135.7943018680752

>  <Genealogy>  (2451) 
C=c1c(=Cc2[n-]c(=O)[n-]c2[O-])cc(C(=O)N2CCN(c3ccc(OC)cc3)CC2)n1C (protonated)
C=c1/c(=C\c2[n-]c(=O)[n-]c2[O-])cc(C(=O)N2CCN(c3ccc(OC)cc3)CC2)n1C (cis-trans isomerization)
C=c1/c(=C\c2[n-]c(=O)[n-]c2[O-])cc(C(=O)N2CCN(c3ccc(OC)cc3)CC2)n1C (3D coordinates assigned)
C=c1/c(=C\c2[n-]c(=O)[n-]c2[O-])cc(C(=O)N2CCN(c3ccc(OC)cc3)CC2)n1C (nonaromatic ring conformer: 135.7943018680752 kcal/mol)

>  <smiles>  (2451) 
C=c1c(=Cc2[nH]c(=O)[nH]c2O)cc(C(=O)N2CCN(c3ccc(OC)cc3)CC2)n1C

>  <score_type>  (2451) 
oracle

>  <origin>  (2451) 
adg

>  <m_score__min__energy>  (2451) 
-17.260000000000002

>  <m_primary>  (2451) 
energy

$$$$
27:0
     RDKit          3D

 24 26  0  0  0  0  0  0  0  0999 V2000
   59.6250   24.6200   45.9670 C   0  0  0  0  0  0  0  0  0  0  0  0
   59.0800   25.8200   45.6790 C   0  0  0  0  0  0  0  0  0  0  0  0
   59.8130   26.9610   46.0600 C   0  0  0  0  0  0  0  0  0  0  0  0
   59.3090   28.2430   45.8690 C   0  0  0  0  0  0  0  0  0  0  0  0
   58.0550   28.4340   45.2810 C   0  0  0  0  0  0  0  0  0  0  0  0
   57.5130   29.8000   45.0480 C   0  0  0  0  0  0  0  0  0  0  0  0
   56.2650   29.9440   44.9140 O   0  0  0  0  0  0  0  0  0  0  0  0
   58.3760   30.9630   44.9610 N   0  0  0  0  0  0  0  0  0  0  0  0
   57.7690   31.9450   44.0250 C   0  0  0  0  0  0  0  0  0  0  0  0
   58.4450   33.3180   44.1080 C   0  0  0  0  0  0  0  0  0  0  0  0
   58.4090   33.8170   45.5210 C   0  0  0  0  0  0  0  0  0  0  0  0
   58.6540   34.9870   45.7690 O   0  0  0  0  0  0  0  0  0  0  0  0
   58.0540   32.8650   46.6240 C   0  0  0  0  0  0  0  0  0  0  0  0
   58.6860   31.4960   46.3260 C   0  0  0  0  0  0  0  0  0  0  0  0
   57.3220   27.3120   44.8640 C   0  0  0  0  0  0  0  0  0  0  0  0
   57.7980   25.9900   45.0530 C   0  0  0  0  0  0  0  0  0  0  0  0
   57.0700   24.9330   44.5960 C   0  0  0  0  0  0  0  0  0  0  0  0
   55.7160   24.5500   45.0540 C   0  0  0  0  0  0  0  0  0  0  0  0
   55.1230   23.3630   44.8200 N   0  0  0  0  0  0  0  0  0  0  0  0
   53.8780   23.5320   45.3160 C   0  0  0  0  0  0  0  0  0  0  0  0
   53.0120   22.6190   45.2950 O   0  0  0  0  0  0  0  0  0  0  0  0
   53.6320   24.7560   45.8280 N   0  0  0  0  0  0  0  0  0  0  0  0
   54.8000   25.3910   45.6420 C   0  0  0  0  0  0  0  0  0  0  0  0
   55.0260   26.7150   46.0000 O   0  0  0  0  0  0  0  0  0  0  0  0
  1  2  2  0
  2  3  1  0
  3  4  2  0
  4  5  1  0
  5  6  1  0
  6  7  2  0
  6  8  1  0
  8  9  1  0
  9 10  1  0
 10 11  1  0
 11 12  2  0
 11 13  1  0
 13 14  1  0
  5 15  2  0
 15 16  1  0
 16 17  2  0
 17 18  1  0
 18 19  1  0
 19 20  1  0
 20 21  2  0
 20 22  1  0
 22 23  1  0
 23 24  1  0
 16  2  1  0
 23 18  2  0
 14  8  1  0
M  CHG  4   8   1  19  -1  22  -1  24  -1
M  END
>  <UniqueID>  (2452) 
28

>  <SMILES>  (2452) 
C=c1ccc(C(=O)[NH+]2CCC(=O)CC2)c/c1=C\c1[n-]c(=O)[n-]c1[O-]

>  <Energy>  (2452) 
96.8063391677668

>  <Genealogy>  (2452) 
C=c1ccc(C(=O)[NH+]2CCC(=O)CC2)cc1=Cc1[n-]c(=O)[n-]c1[O-] (protonated)
C=c1ccc(C(=O)[NH+]2CCC(=O)CC2)c/c1=C\c1[n-]c(=O)[n-]c1[O-] (cis-trans isomerization)
C=c1ccc(C(=O)[NH+]2CCC(=O)CC2)c/c1=C\c1[n-]c(=O)[n-]c1[O-] (3D coordinates assigned)
C=c1ccc(C(=O)[NH+]2CCC(=O)CC2)c/c1=C\c1[n-]c(=O)[n-]c1[O-] (nonaromatic ring conformer: 96.8063391677668 kcal/mol)

>  <smiles>  (2452) 
C=c1ccc(C(=O)N2CCC(=O)CC2)cc1=Cc1[nH]c(=O)[nH]c1O

>  <score_type>  (2452) 
oracle

>  <origin>  (2452) 
adg

>  <m_score__min__energy>  (2452) 
-15.48

>  <m_primary>  (2452) 
energy

$$$$
35:0
     RDKit          3D

 29 32  0  0  0  0  0  0  0  0999 V2000
   60.1840   27.7700   48.2840 C   0  0  0  0  0  0  0  0  0  0  0  0
   59.5350   28.7880   47.6970 C   0  0  0  0  0  0  0  0  0  0  0  0
   58.7090   28.6970   46.5710 C   0  0  0  0  0  0  0  0  0  0  0  0
   58.4520   27.5990   45.8320 C   0  0  0  0  0  0  0  0  0  0  0  0
   57.2160   26.8030   45.9420 C   0  0  0  0  0  0  0  0  0  0  0  0
   57.1840   25.5570   46.4480 N   0  0  0  0  0  0  0  0  0  0  0  0
   55.8700   25.2480   46.4400 C   0  0  0  0  0  0  0  0  0  0  0  0
   55.4320   24.1370   46.8360 O   0  0  0  0  0  0  0  0  0  0  0  0
   55.0590   26.2280   45.9850 N   0  0  0  0  0  0  0  0  0  0  0  0
   55.9250   27.2110   45.6860 C   0  0  0  0  0  0  0  0  0  0  0  0
   55.5350   28.4650   45.2350 O   0  0  0  0  0  0  0  0  0  0  0  0
   58.2440   29.9790   46.3240 C   0  0  0  0  0  0  0  0  0  0  0  0
   58.7720   30.7900   47.3060 C   0  0  0  0  0  0  0  0  0  0  0  0
   58.5300   32.2460   47.3730 C   0  0  0  0  0  0  0  0  0  0  0  0
   57.7860   32.6920   48.2900 O   0  0  0  0  0  0  0  0  0  0  0  0
   59.2260   33.1570   46.4890 N   0  0  0  0  0  0  0  0  0  0  0  0
   58.4280   33.5320   45.3160 C   0  0  0  0  0  0  0  0  0  0  0  0
   58.9330   34.8980   44.8660 C   0  0  0  0  0  0  0  0  0  0  0  0
   59.6760   35.4720   46.0640 C   0  0  0  0  0  0  0  0  0  0  0  0
   59.5570   34.4200   47.1580 C   0  0  0  0  0  0  0  0  0  0  0  0
   59.5700   30.0750   48.1390 N   0  0  0  0  0  0  0  0  0  0  0  0
   60.4080   30.6220   49.2200 C   0  0  0  0  0  0  0  0  0  0  0  0
   61.4110   31.6410   48.7280 C   0  0  0  0  0  0  0  0  0  0  0  0
   62.1690   31.4480   47.5560 C   0  0  0  0  0  0  0  0  0  0  0  0
   63.0800   32.4230   47.1350 C   0  0  0  0  0  0  0  0  0  0  0  0
   63.2340   33.6020   47.8670 C   0  0  0  0  0  0  0  0  0  0  0  0
   64.1200   34.5440   47.4580 F   0  0  0  0  0  0  0  0  0  0  0  0
   62.4730   33.8130   49.0180 C   0  0  0  0  0  0  0  0  0  0  0  0
   61.5600   32.8430   49.4430 C   0  0  0  0  0  0  0  0  0  0  0  0
  1  2  2  0
  2  3  1  0
  3  4  2  3
  4  5  1  0
  5  6  1  0
  6  7  1  0
  7  8  2  0
  7  9  1  0
  9 10  1  0
 10 11  1  0
  3 12  1  0
 12 13  2  0
 13 14  1  0
 14 15  2  0
 14 16  1  0
 16 17  1  0
 17 18  1  0
 18 19  1  0
 19 20  1  0
 13 21  1  0
 21 22  1  0
 22 23  1  0
 23 24  2  0
 24 25  1  0
 25 26  2  0
 26 27  1  0
 26 28  1  0
 28 29  2  0
 21  2  1  0
 29 23  1  0
 10  5  2  0
 20 16  1  0
M  CHG  4   6  -1   9  -1  11  -1  16   1
M  END
>  <UniqueID>  (2453) 
36

>  <SMILES>  (2453) 
C=c1c(=Cc2[n-]c(=O)[n-]c2[O-])cc(C(=O)[NH+]2CCCC2)n1Cc1ccc(F)cc1

>  <Energy>  (2453) 
126.32266369147024

>  <Genealogy>  (2453) 
C=c1c(=Cc2[n-]c(=O)[n-]c2[O-])cc(C(=O)[NH+]2CCCC2)n1Cc1ccc(F)cc1 (protonated)
C=c1c(=Cc2[n-]c(=O)[n-]c2[O-])cc(C(=O)[NH+]2CCCC2)n1Cc1ccc(F)cc1 (3D coordinates assigned)
C=c1c(=Cc2[n-]c(=O)[n-]c2[O-])cc(C(=O)[NH+]2CCCC2)n1Cc1ccc(F)cc1 (nonaromatic ring conformer: 126.32266369147024 kcal/mol)

>  <smiles>  (2453) 
C=c1c(=Cc2[nH]c(=O)[nH]c2O)cc(C(=O)N2CCCC2)n1Cc1ccc(F)cc1

>  <score_type>  (2453) 
oracle

>  <origin>  (2453) 
adg

>  <m_score__min__energy>  (2453) 
-15.6

>  <m_primary>  (2453) 
energy

$$$$
48:0
     RDKit          3D

 30 33  0  0  0  0  0  0  0  0999 V2000
   57.9090   26.8260   42.6200 C   0  0  0  0  0  0  0  0  0  0  0  0
   57.7630   27.5380   43.7430 C   0  0  0  0  0  0  0  0  0  0  0  0
   57.7710   28.8870   43.7340 N   0  0  0  0  0  0  0  0  0  0  0  0
   57.7920   29.2960   45.0170 C   0  0  0  0  0  0  0  0  0  0  0  0
   57.8720   30.7150   45.4180 C   0  0  0  0  0  0  0  0  0  0  0  0
   56.8990   31.4730   45.1560 O   0  0  0  0  0  0  0  0  0  0  0  0
   59.0260   31.2530   46.0930 N   0  0  0  0  0  0  0  0  0  0  0  0
   59.3410   32.6790   45.9530 C   0  0  0  0  0  0  0  0  0  0  0  0
   60.7870   32.9510   46.3920 C   0  0  0  0  0  0  0  0  0  0  0  0
   61.0920   32.4610   47.7630 N   0  0  0  0  0  0  0  0  0  0  0  0
   61.1530   33.5600   48.7480 C   0  0  0  0  0  0  0  0  0  0  0  0
   62.5090   33.6070   49.4010 C   0  0  0  0  0  0  0  0  0  0  0  0
   63.6300   33.0450   48.7670 C   0  0  0  0  0  0  0  0  0  0  0  0
   64.8840   33.0860   49.3850 C   0  0  0  0  0  0  0  0  0  0  0  0
   65.0280   33.6880   50.6400 C   0  0  0  0  0  0  0  0  0  0  0  0
   66.6020   33.7370   51.4140 Cl  0  0  0  0  0  0  0  0  0  0  0  0
   63.9160   34.2480   51.2760 C   0  0  0  0  0  0  0  0  0  0  0  0
   62.6620   34.2090   50.6610 C   0  0  0  0  0  0  0  0  0  0  0  0
   60.1970   31.3810   48.2440 C   0  0  0  0  0  0  0  0  0  0  0  0
   59.7410   30.4640   47.1060 C   0  0  0  0  0  0  0  0  0  0  0  0
   57.8040   28.2060   45.8670 C   0  0  0  0  0  0  0  0  0  0  0  0
   57.7400   27.0750   45.0670 C   0  0  0  0  0  0  0  0  0  0  0  0
   57.6700   25.8270   45.5680 C   0  0  0  0  0  0  0  0  0  0  0  0
   56.4690   24.9760   45.5800 C   0  0  0  0  0  0  0  0  0  0  0  0
   56.4510   23.6700   45.2530 N   0  0  0  0  0  0  0  0  0  0  0  0
   55.1350   23.3640   45.2690 C   0  0  0  0  0  0  0  0  0  0  0  0
   54.7060   22.2060   45.0240 O   0  0  0  0  0  0  0  0  0  0  0  0
   54.3150   24.3980   45.5550 N   0  0  0  0  0  0  0  0  0  0  0  0
   55.1750   25.4130   45.7350 C   0  0  0  0  0  0  0  0  0  0  0  0
   54.7870   26.7130   46.0290 O   0  0  0  0  0  0  0  0  0  0  0  0
  1  2  2  0
  2  3  1  0
  3  4  1  0
  4  5  1  0
  5  6  2  0
  5  7  1  0
  7  8  1  0
  8  9  1  0
  9 10  1  0
 10 11  1  0
 11 12  1  0
 12 13  2  0
 13 14  1  0
 14 15  2  0
 15 16  1  0
 15 17  1  0
 17 18  2  0
 10 19  1  0
 19 20  1  0
  4 21  2  0
 21 22  1  0
 22 23  2  3
 23 24  1  0
 24 25  1  0
 25 26  1  0
 26 27  2  0
 26 28  1  0
 28 29  1  0
 29 30  1  0
 22  2  1  0
 29 24  2  0
 20  7  1  0
 18 12  1  0
M  CHG  3  25  -1  28  -1  30  -1
M  END
>  <UniqueID>  (2454) 
49

>  <SMILES>  (2454) 
C=c1[nH]c(C(=O)N2CCN(Cc3ccc(Cl)cc3)CC2)cc1=Cc1[n-]c(=O)[n-]c1[O-]

>  <Energy>  (2454) 
129.19104823563075

>  <Genealogy>  (2454) 
C=c1[nH]c(C(=O)N2CCN(Cc3ccc(Cl)cc3)CC2)cc1=Cc1[n-]c(=O)[n-]c1[O-] (protonated)
C=c1[nH]c(C(=O)N2CCN(Cc3ccc(Cl)cc3)CC2)cc1=Cc1[n-]c(=O)[n-]c1[O-] (3D coordinates assigned)
C=c1[nH]c(C(=O)N2CCN(Cc3ccc(Cl)cc3)CC2)cc1=Cc1[n-]c(=O)[n-]c1[O-] (nonaromatic ring conformer: 129.19104823563075 kcal/mol)

>  <smiles>  (2454) 
C=c1[nH]c(C(=O)N2CCN(Cc3ccc(Cl)cc3)CC2)cc1=Cc1[nH]c(=O)[nH]c1O

>  <score_type>  (2454) 
oracle

>  <origin>  (2454) 
adg

>  <m_score__min__energy>  (2454) 
-17.809999999999999

>  <m_primary>  (2454) 
energy

$$$$
52:0
     RDKit          3D

 34 37  0  0  0  0  0  0  0  0999 V2000
   51.2750   32.4500   49.8850 O   0  0  0  0  0  0  0  0  0  0  0  0
   51.2040   32.1880   51.2500 C   0  0  0  0  0  0  0  0  0  0  0  0
   50.2800   32.7200   52.0670 N   0  0  0  0  0  0  0  0  0  0  0  0
   50.6400   32.2380   53.2750 C   0  0  0  0  0  0  0  0  0  0  0  0
   50.0140   32.5200   54.3300 O   0  0  0  0  0  0  0  0  0  0  0  0
   51.7320   31.4430   53.2660 N   0  0  0  0  0  0  0  0  0  0  0  0
   52.0710   31.3910   51.9670 C   0  0  0  0  0  0  0  0  0  0  0  0
   53.2890   30.7230   51.4720 C   0  0  0  0  0  0  0  0  0  0  0  0
   54.3160   30.2580   52.2260 C   0  0  0  0  0  0  0  0  0  0  0  0
   55.4030   31.1280   52.4360 C   0  0  0  0  0  0  0  0  0  0  0  0
   56.5710   30.6680   53.0500 C   0  0  0  0  0  0  0  0  0  0  0  0
   57.7550   31.5370   53.2050 C   0  0  0  0  0  0  0  0  0  0  0  0
   58.0950   31.9150   54.3590 O   0  0  0  0  0  0  0  0  0  0  0  0
   58.5370   31.9450   52.0700 N   0  0  0  0  0  0  0  0  0  0  0  0
   57.8960   32.6400   50.9450 C   0  0  0  0  0  0  0  0  0  0  0  0
   58.5100   32.2100   49.5960 C   0  0  0  0  0  0  0  0  0  0  0  0
   59.7690   31.4550   49.7710 N   0  0  0  0  0  0  0  0  0  0  0  0
   60.4550   31.1590   48.4940 C   0  0  0  0  0  0  0  0  0  0  0  0
   59.6710   31.5680   47.2630 C   0  0  0  0  0  0  0  0  0  0  0  0
   59.9530   32.7780   46.6120 C   0  0  0  0  0  0  0  0  0  0  0  0
   59.2400   33.1490   45.4710 C   0  0  0  0  0  0  0  0  0  0  0  0
   58.2340   32.3110   44.9540 C   0  0  0  0  0  0  0  0  0  0  0  0
   57.4990   32.6490   43.8070 O   0  0  0  0  0  0  0  0  0  0  0  0
   57.8960   32.3410   42.4750 C   0  0  0  0  0  0  0  0  0  0  0  0
   57.9470   31.0960   45.5960 C   0  0  0  0  0  0  0  0  0  0  0  0
   56.9350   30.2820   45.0620 O   0  0  0  0  0  0  0  0  0  0  0  0
   57.0600   29.5200   43.8660 C   0  0  0  0  0  0  0  0  0  0  0  0
   58.6750   30.7260   46.7440 C   0  0  0  0  0  0  0  0  0  0  0  0
   60.6410   32.0810   50.7790 C   0  0  0  0  0  0  0  0  0  0  0  0
   60.0020   31.9100   52.1610 C   0  0  0  0  0  0  0  0  0  0  0  0
   56.6330   29.3770   53.4570 N   0  0  0  0  0  0  0  0  0  0  0  0
   55.5860   28.5610   53.3530 N   0  0  0  0  0  0  0  0  0  0  0  0
   54.4060   28.9530   52.8020 C   0  0  0  0  0  0  0  0  0  0  0  0
   53.3650   28.1210   52.9430 C   0  0  0  0  0  0  0  0  0  0  0  0
  1  2  1  0
  2  3  1  0
  3  4  1  0
  4  5  2  0
  4  6  1  0
  6  7  1  0
  7  8  1  0
  8  9  2  0
  9 10  1  0
 10 11  2  0
 11 12  1  0
 12 13  2  0
 12 14  1  0
 14 15  1  0
 15 16  1  0
 16 17  1  0
 17 18  1  0
 18 19  1  0
 19 20  2  0
 20 21  1  0
 21 22  2  0
 22 23  1  0
 23 24  1  0
 22 25  1  0
 25 26  1  0
 26 27  1  0
 25 28  2  0
 17 29  1  0
 29 30  1  0
 11 31  1  0
 31 32  2  0
 32 33  1  0
 33 34  2  0
  7  2  2  0
 33  9  1  0
 30 14  1  0
 28 19  1  0
M  CHG  2   3  -1   6  -1
M  END
>  <UniqueID>  (2455) 
53

>  <SMILES>  (2455) 
C=c1nnc(C(=O)N2CCN(Cc3ccc(OC)c(OC)c3)CC2)c/c1=C/c1[n-]c(=O)[n-]c1O

>  <Energy>  (2455) 
121.20426519171149

>  <Genealogy>  (2455) 
C=c1nnc(C(=O)N2CCN(Cc3ccc(OC)c(OC)c3)CC2)cc1=Cc1[n-]c(=O)[n-]c1O (protonated)
C=c1nnc(C(=O)N2CCN(Cc3ccc(OC)c(OC)c3)CC2)c/c1=C/c1[n-]c(=O)[n-]c1O (cis-trans isomerization)
C=c1nnc(C(=O)N2CCN(Cc3ccc(OC)c(OC)c3)CC2)c/c1=C/c1[n-]c(=O)[n-]c1O (3D coordinates assigned)
C=c1nnc(C(=O)N2CCN(Cc3ccc(OC)c(OC)c3)CC2)c/c1=C/c1[n-]c(=O)[n-]c1O (nonaromatic ring conformer: 121.20426519171149 kcal/mol)

>  <smiles>  (2455) 
C=c1nnc(C(=O)N2CCN(Cc3ccc(OC)c(OC)c3)CC2)cc1=Cc1[nH]c(=O)[nH]c1O

>  <score_type>  (2455) 
oracle

>  <origin>  (2455) 
adg

>  <m_score__min__energy>  (2455) 
-14.15

>  <m_primary>  (2455) 
energy

$$$$
57:0
     RDKit          3D

 27 29  0  0  0  0  0  0  0  0999 V2000
   60.4420   26.5090   46.4730 C   0  0  0  0  0  0  0  0  0  0  0  0
   59.5530   27.6070   45.9570 C   0  0  0  0  0  0  0  0  0  0  0  0
   60.1340   28.6570   45.2270 C   0  0  0  0  0  0  0  0  0  0  0  0
   59.3600   29.7300   44.7840 C   0  0  0  0  0  0  0  0  0  0  0  0
   57.9900   29.7720   45.0580 C   0  0  0  0  0  0  0  0  0  0  0  0
   57.0130   31.1340   44.5000 S   0  0  0  0  0  0  0  0  0  0  0  0
   57.4510   31.5230   43.1160 O   0  0  0  0  0  0  0  0  0  0  0  0
   55.5710   30.7120   44.4280 O   0  0  0  0  0  0  0  0  0  0  0  0
   57.1680   32.5160   45.5600 N   0  0  0  0  0  0  0  0  0  0  0  0
   58.1650   32.2440   46.6200 C   0  0  0  0  0  0  0  0  0  0  0  0
   58.6270   33.5370   47.2980 C   0  0  0  0  0  0  0  0  0  0  0  0
   59.3210   34.4730   46.2910 C   0  0  0  0  0  0  0  0  0  0  0  0
   58.8610   34.2330   44.8430 C   0  0  0  0  0  0  0  0  0  0  0  0
   57.3990   33.7670   44.7970 C   0  0  0  0  0  0  0  0  0  0  0  0
   57.3960   28.7230   45.7700 C   0  0  0  0  0  0  0  0  0  0  0  0
   58.1550   27.6220   46.1910 C   0  0  0  0  0  0  0  0  0  0  0  0
   57.4800   26.5650   46.8900 N   0  0  0  0  0  0  0  0  0  0  0  0
   56.2150   25.9900   46.5320 C   0  0  0  0  0  0  0  0  0  0  0  0
   55.3480   26.7270   45.9950 O   0  0  0  0  0  0  0  0  0  0  0  0
   55.9030   24.5630   46.7560 C   0  0  0  0  0  0  0  0  0  0  0  0
   56.8560   23.6720   47.2670 C   0  0  0  0  0  0  0  0  0  0  0  0
   56.4910   22.3370   47.4560 C   0  0  0  0  0  0  0  0  0  0  0  0
   57.3200   21.5130   47.9220 O   0  0  0  0  0  0  0  0  0  0  0  0
   55.2390   21.9250   47.1320 N   0  0  0  0  0  0  0  0  0  0  0  0
   54.3310   22.7950   46.6180 C   0  0  0  0  0  0  0  0  0  0  0  0
   52.8340   22.2750   46.2270 S   0  0  0  0  0  0  0  0  0  0  0  0
   54.6670   24.0980   46.4300 N   0  0  0  0  0  0  0  0  0  0  0  0
  1  2  1  0
  2  3  2  0
  3  4  1  0
  4  5  2  0
  5  6  1  0
  6  7  2  0
  6  8  2  0
  6  9  1  0
  9 10  1  0
 10 11  1  0
 11 12  1  0
 12 13  1  0
 13 14  1  0
  5 15  1  0
 15 16  2  0
 16 17  1  0
 17 18  1  0
 18 19  2  0
 18 20  1  0
 20 21  2  0
 21 22  1  0
 22 23  2  0
 22 24  1  0
 24 25  1  0
 25 26  2  0
 25 27  1  0
 16  2  1  0
 27 20  1  0
 14  9  1  0
M  CHG  3  17  -1  24  -1  27  -1
M  END
>  <UniqueID>  (2456) 
57

>  <SMILES>  (2456) 
Cc1ccc(S(=O)(=O)N2CCCCC2)cc1[N-]C(=O)c1cc(=O)[n-]c(=S)[n-]1

>  <Energy>  (2456) 
57.90171107537206

>  <Genealogy>  (2456) 
Cc1ccc(S(=O)(=O)N2CCCCC2)cc1[N-]C(=O)c1cc(=O)[n-]c(=S)[n-]1 (protonated)
Cc1ccc(S(=O)(=O)N2CCCCC2)cc1[N-]C(=O)c1cc(=O)[n-]c(=S)[n-]1 (3D coordinates assigned)
Cc1ccc(S(=O)(=O)N2CCCCC2)cc1[N-]C(=O)c1cc(=O)[n-]c(=S)[n-]1 (nonaromatic ring conformer: 57.90171107537206 kcal/mol)

>  <smiles>  (2456) 
Cc1ccc(S(=O)(=O)N2CCCCC2)cc1NC(=O)c1cc(=O)[nH]c(=S)[nH]1

>  <score_type>  (2456) 
oracle

>  <origin>  (2456) 
adg

>  <m_score__min__energy>  (2456) 
-14.94

>  <m_primary>  (2456) 
energy

$$$$
65:0
     RDKit          3D

 25 27  0  0  0  0  0  0  0  0999 V2000
   56.8730   29.6340   43.5650 C   0  0  0  0  0  0  0  0  0  0  0  0
   57.4630   29.5230   44.7670 C   0  0  0  0  0  0  0  0  0  0  0  0
   57.8570   28.3310   45.3820 C   0  0  0  0  0  0  0  0  0  0  0  0
   57.6560   27.0750   44.9380 C   0  0  0  0  0  0  0  0  0  0  0  0
   57.1170   25.9840   45.7700 C   0  0  0  0  0  0  0  0  0  0  0  0
   57.8780   25.0000   46.2800 N   0  0  0  0  0  0  0  0  0  0  0  0
   57.0060   24.2840   47.0240 C   0  0  0  0  0  0  0  0  0  0  0  0
   57.3480   23.2540   47.6620 O   0  0  0  0  0  0  0  0  0  0  0  0
   55.7450   24.7650   47.0410 N   0  0  0  0  0  0  0  0  0  0  0  0
   55.8330   25.8470   46.2520 C   0  0  0  0  0  0  0  0  0  0  0  0
   54.7730   26.7150   46.0190 O   0  0  0  0  0  0  0  0  0  0  0  0
   58.4640   28.6930   46.5750 C   0  0  0  0  0  0  0  0  0  0  0  0
   58.4250   30.0720   46.6430 C   0  0  0  0  0  0  0  0  0  0  0  0
   59.0440   30.8600   47.7310 C   0  0  0  0  0  0  0  0  0  0  0  0
   58.5190   30.8490   48.8780 O   0  0  0  0  0  0  0  0  0  0  0  0
   60.1910   31.6960   47.4820 N   0  0  0  0  0  0  0  0  0  0  0  0
   61.4350   31.0790   47.0120 C   0  0  0  0  0  0  0  0  0  0  0  0
   62.6250   31.9640   47.2580 C   0  0  0  0  0  0  0  0  0  0  0  0
   63.7790   31.4870   47.0730 O   0  0  0  0  0  0  0  0  0  0  0  0
   62.4680   33.3440   47.6450 N   0  0  0  0  0  0  0  0  0  0  0  0
   63.6550   34.1900   47.7940 C   0  0  0  0  0  0  0  0  0  0  0  0
   61.1580   33.8630   48.0550 C   0  0  0  0  0  0  0  0  0  0  0  0
   60.0300   33.1430   47.3230 C   0  0  0  0  0  0  0  0  0  0  0  0
   57.7990   30.5790   45.5530 N   0  0  0  0  0  0  0  0  0  0  0  0
   57.5490   31.9990   45.2760 C   0  0  0  0  0  0  0  0  0  0  0  0
  1  2  2  0
  2  3  1  0
  3  4  2  0
  4  5  1  0
  5  6  1  0
  6  7  1  0
  7  8  2  0
  7  9  1  0
  9 10  1  0
 10 11  1  0
  3 12  1  0
 12 13  2  0
 13 14  1  0
 14 15  2  0
 14 16  1  0
 16 17  1  0
 17 18  1  0
 18 19  2  0
 18 20  1  0
 20 21  1  0
 20 22  1  0
 22 23  1  0
 13 24  1  0
 24 25  1  0
 24  2  1  0
 10  5  2  0
 23 16  1  0
M  CHG  3   6  -1   9  -1  11  -1
M  END
>  <UniqueID>  (2457) 
65

>  <SMILES>  (2457) 
C=c1/c(=C/c2[n-]c(=O)[n-]c2[O-])cc(C(=O)N2CCN(C)C(=O)C2)n1C

>  <Energy>  (2457) 
110.78073149669429

>  <Genealogy>  (2457) 
C=c1c(=Cc2[n-]c(=O)[n-]c2[O-])cc(C(=O)N2CCN(C)C(=O)C2)n1C (protonated)
C=c1/c(=C/c2[n-]c(=O)[n-]c2[O-])cc(C(=O)N2CCN(C)C(=O)C2)n1C (cis-trans isomerization)
C=c1/c(=C/c2[n-]c(=O)[n-]c2[O-])cc(C(=O)N2CCN(C)C(=O)C2)n1C (3D coordinates assigned)
C=c1/c(=C/c2[n-]c(=O)[n-]c2[O-])cc(C(=O)N2CCN(C)C(=O)C2)n1C (nonaromatic ring conformer: 110.78073149669429 kcal/mol)

>  <smiles>  (2457) 
C=c1c(=Cc2[nH]c(=O)[nH]c2O)cc(C(=O)N2CCN(C)C(=O)C2)n1C

>  <score_type>  (2457) 
oracle

>  <origin>  (2457) 
adg

>  <m_score__min__energy>  (2457) 
-16.48

>  <m_primary>  (2457) 
energy

$$$$
69:0
     RDKit          3D

 33 36  0  0  0  0  0  0  0  0999 V2000
   51.5220   32.5210   48.8470 H   0  0  0  0  0  0  0  0  0  0  0  0
   50.9510   32.2860   49.6890 N   0  0  0  0  0  0  0  0  0  0  0  0
   51.4850   31.9310   50.8150 C   0  0  0  0  0  0  0  0  0  0  0  0
   50.7720   32.0730   51.9640 N   0  0  0  0  0  0  0  0  0  0  0  0
   51.2770   31.7060   53.1690 C   0  0  0  0  0  0  0  0  0  0  0  0
   52.5620   31.1670   53.2580 C   0  0  0  0  0  0  0  0  0  0  0  0
   53.3370   31.0170   52.0960 C   0  0  0  0  0  0  0  0  0  0  0  0
   54.7020   30.4390   52.1850 C   0  0  0  0  0  0  0  0  0  0  0  0
   54.9310   29.3890   53.0200 N   0  0  0  0  0  0  0  0  0  0  0  0
   56.1670   28.8390   53.1490 C   0  0  0  0  0  0  0  0  0  0  0  0
   56.3680   27.6640   54.0460 C   0  0  0  0  0  0  0  0  0  0  0  0
   57.2060   29.3310   52.4260 N   0  0  0  0  0  0  0  0  0  0  0  0
   57.0410   30.3790   51.5730 C   0  0  0  0  0  0  0  0  0  0  0  0
   58.1760   30.9000   50.8590 N   0  0  0  0  0  0  0  0  0  0  0  0
   59.4870   30.2420   50.9120 C   0  0  0  0  0  0  0  0  0  0  0  0
   59.9700   29.9010   49.4950 C   0  0  0  0  0  0  0  0  0  0  0  0
   59.5900   30.9760   48.4370 C   0  0  0  0  0  0  0  0  0  0  0  0
   58.5160   30.4800   47.5000 C   0  0  0  0  0  0  0  0  0  0  0  0
   58.2330   29.2500   47.4560 O   0  0  0  0  0  0  0  0  0  0  0  0
   57.7700   31.4260   46.7240 N   0  0  0  0  0  0  0  0  0  0  0  0
   57.8640   31.6350   45.3050 C   0  0  0  0  0  0  0  0  0  0  0  0
   58.4370   32.8170   44.7940 C   0  0  0  0  0  0  0  0  0  0  0  0
   58.4970   33.0410   43.4190 C   0  0  0  0  0  0  0  0  0  0  0  0
   57.9710   32.1030   42.5340 C   0  0  0  0  0  0  0  0  0  0  0  0
   57.3730   30.9400   43.0190 C   0  0  0  0  0  0  0  0  0  0  0  0
   57.3060   30.6860   44.4050 C   0  0  0  0  0  0  0  0  0  0  0  0
   56.6650   29.4280   44.8780 C   0  0  0  0  0  0  0  0  0  0  0  0
   57.3340   28.3680   44.9990 O   0  0  0  0  0  0  0  0  0  0  0  0
   55.2720   29.4010   45.1880 N   0  0  0  0  0  0  0  0  0  0  0  0
   59.1780   32.3190   49.0790 C   0  0  0  0  0  0  0  0  0  0  0  0
   58.0290   32.1430   50.0890 C   0  0  0  0  0  0  0  0  0  0  0  0
   55.7740   30.9680   51.4490 C   0  0  0  0  0  0  0  0  0  0  0  0
   52.7820   31.3970   50.8600 C   0  0  0  0  0  0  0  0  0  0  0  0
  1  2  1  0
  2  3  2  0
  3  4  1  0
  4  5  1  0
  5  6  2  0
  6  7  1  0
  7  8  1  0
  8  9  2  0
  9 10  1  0
 10 11  1  0
 10 12  2  0
 12 13  1  0
 13 14  1  0
 14 15  1  0
 15 16  1  0
 16 17  1  0
 17 18  1  0
 18 19  2  0
 18 20  1  0
 20 21  1  0
 21 22  2  0
 22 23  1  0
 23 24  2  0
 24 25  1  0
 25 26  2  0
 26 27  1  0
 27 28  2  0
 27 29  1  0
 17 30  1  0
 30 31  1  0
 13 32  2  0
  7 33  2  0
 33  3  1  0
 32  8  1  0
 31 14  1  0
 26 21  1  0
M  CHG  3   4  -1  20  -1  29  -1
M  END
>  <UniqueID>  (2458) 
67

>  <SMILES>  (2458) 
[H]/N=c1\cc(-c2cc(N3CCC(C(=O)[N-]c4ccccc4C([NH-])=O)CC3)nc(C)n2)cc[n-]1

>  <Energy>  (2458) 
73.50690415940876

>  <Genealogy>  (2458) 
Cc1nc(-c2cc[n-]c(=N)c2)cc(N2CCC(C(=O)[N-]c3ccccc3C([NH-])=O)CC2)n1 (protonated)
[H]/N=c1\cc(-c2cc(N3CCC(C(=O)[N-]c4ccccc4C([NH-])=O)CC3)nc(C)n2)cc[n-]1 (cis-trans isomerization)
[H]/N=c1\cc(-c2cc(N3CCC(C(=O)[N-]c4ccccc4C([NH-])=O)CC3)nc(C)n2)cc[n-]1 (3D coordinates assigned)
[H]/N=c1\cc(-c2cc(N3CCC(C(=O)[N-]c4ccccc4C([NH-])=O)CC3)nc(C)n2)cc[n-]1 (nonaromatic ring conformer: 73.50690415940876 kcal/mol)

>  <smiles>  (2458) 
Cc1nc(-c2cc[nH]c(=N)c2)cc(N2CCC(C(=O)Nc3ccccc3C(N)=O)CC2)n1

>  <score_type>  (2458) 
oracle

>  <origin>  (2458) 
adg

>  <m_score__min__energy>  (2458) 
-16.219999999999999

>  <m_primary>  (2458) 
energy

$$$$
75:0
     RDKit          3D

 32 35  0  0  0  0  0  0  0  0999 V2000
   60.1170   29.6210   46.9550 C   0  0  0  0  0  0  0  0  0  0  0  0
   59.1450   30.1530   46.1980 C   0  0  0  0  0  0  0  0  0  0  0  0
   58.4160   29.5180   45.1810 C   0  0  0  0  0  0  0  0  0  0  0  0
   58.3580   28.2250   44.8080 C   0  0  0  0  0  0  0  0  0  0  0  0
   57.5170   27.1840   45.4320 C   0  0  0  0  0  0  0  0  0  0  0  0
   56.1380   27.3740   45.6080 C   0  0  0  0  0  0  0  0  0  0  0  0
   55.5330   28.5710   45.2440 O   0  0  0  0  0  0  0  0  0  0  0  0
   55.3820   26.3780   46.1340 N   0  0  0  0  0  0  0  0  0  0  0  0
   55.9310   25.1880   46.4800 C   0  0  0  0  0  0  0  0  0  0  0  0
   55.2130   24.2820   46.9710 O   0  0  0  0  0  0  0  0  0  0  0  0
   57.2560   24.9710   46.2930 N   0  0  0  0  0  0  0  0  0  0  0  0
   58.0560   25.9340   45.7700 C   0  0  0  0  0  0  0  0  0  0  0  0
   59.2790   25.6960   45.6000 O   0  0  0  0  0  0  0  0  0  0  0  0
   57.6640   30.5090   44.5700 C   0  0  0  0  0  0  0  0  0  0  0  0
   57.9000   31.6780   45.2630 C   0  0  0  0  0  0  0  0  0  0  0  0
   57.2660   32.9980   44.9500 C   0  0  0  0  0  0  0  0  0  0  0  0
   58.8050   31.4670   46.2410 N   0  0  0  0  0  0  0  0  0  0  0  0
   59.2350   32.4420   47.2090 C   0  0  0  0  0  0  0  0  0  0  0  0
   58.8750   32.2880   48.5560 C   0  0  0  0  0  0  0  0  0  0  0  0
   59.2450   33.2440   49.5150 C   0  0  0  0  0  0  0  0  0  0  0  0
   58.8330   33.0630   50.9290 C   0  0  0  0  0  0  0  0  0  0  0  0
   59.3400   33.8200   51.8090 O   0  0  0  0  0  0  0  0  0  0  0  0
   57.8750   32.0470   51.3220 N   0  0  0  0  0  0  0  0  0  0  0  0
   57.4910   32.2220   52.7360 C   0  0  0  0  0  0  0  0  0  0  0  0
   56.4640   31.1470   53.1550 C   0  0  0  0  0  0  0  0  0  0  0  0
   56.4940   29.9900   52.3430 O   0  0  0  0  0  0  0  0  0  0  0  0
   57.8200   29.6450   52.0170 C   0  0  0  0  0  0  0  0  0  0  0  0
   58.4180   30.6900   51.0690 C   0  0  0  0  0  0  0  0  0  0  0  0
   59.9720   34.3730   49.1020 C   0  0  0  0  0  0  0  0  0  0  0  0
   60.3350   34.5280   47.7600 C   0  0  0  0  0  0  0  0  0  0  0  0
   59.9730   33.5660   46.8150 C   0  0  0  0  0  0  0  0  0  0  0  0
   60.3400   33.7270   45.5200 F   0  0  0  0  0  0  0  0  0  0  0  0
  1  2  2  0
  2  3  1  0
  3  4  2  3
  4  5  1  0
  5  6  2  0
  6  7  1  0
  6  8  1  0
  8  9  1  0
  9 10  2  0
  9 11  1  0
 11 12  1  0
 12 13  2  0
  3 14  1  0
 14 15  2  0
 15 16  1  0
 15 17  1  0
 17 18  1  0
 18 19  2  0
 19 20  1  0
 20 21  1  0
 21 22  2  0
 21 23  1  0
 23 24  1  0
 24 25  1  0
 25 26  1  0
 26 27  1  0
 27 28  1  0
 20 29  2  0
 29 30  1  0
 30 31  2  0
 31 32  1  0
 17  2  1  0
 31 18  1  0
 12  5  1  0
 28 23  1  0
M  CHG  4   7  -1   8  -1  11  -1  23   1
M  END
>  <UniqueID>  (2459) 
72

>  <SMILES>  (2459) 
C=c1c(=Cc2c([O-])[n-]c(=O)[n-]c2=O)cc(C)n1-c1cc(C(=O)[NH+]2CCOCC2)ccc1F

>  <Energy>  (2459) 
119.11379264904359

>  <Genealogy>  (2459) 
C=c1c(=Cc2c([O-])[n-]c(=O)[n-]c2=O)cc(C)n1-c1cc(C(=O)[NH+]2CCOCC2)ccc1F (protonated)
C=c1c(=Cc2c([O-])[n-]c(=O)[n-]c2=O)cc(C)n1-c1cc(C(=O)[NH+]2CCOCC2)ccc1F (3D coordinates assigned)
C=c1c(=Cc2c([O-])[n-]c(=O)[n-]c2=O)cc(C)n1-c1cc(C(=O)[NH+]2CCOCC2)ccc1F (nonaromatic ring conformer: 119.11379264904359 kcal/mol)

>  <smiles>  (2459) 
C=c1c(=Cc2c(O)[nH]c(=O)[nH]c2=O)cc(C)n1-c1cc(C(=O)N2CCOCC2)ccc1F

>  <score_type>  (2459) 
oracle

>  <origin>  (2459) 
adg

>  <m_score__min__energy>  (2459) 
-15.449999999999999

>  <m_primary>  (2459) 
energy

$$$$
79:0
     RDKit          3D

 32 35  0  0  0  0  0  0  0  0999 V2000
   57.7630   27.3140   43.5350 C   0  0  0  0  0  0  0  0  0  0  0  0
   57.6020   28.2550   44.4800 C   0  0  0  0  0  0  0  0  0  0  0  0
   57.8610   28.1230   45.8540 C   0  0  0  0  0  0  0  0  0  0  0  0
   58.1310   27.0390   46.6030 C   0  0  0  0  0  0  0  0  0  0  0  0
   57.2570   25.8640   46.7590 C   0  0  0  0  0  0  0  0  0  0  0  0
   57.6850   24.6320   47.0990 N   0  0  0  0  0  0  0  0  0  0  0  0
   56.5750   23.8730   46.9790 C   0  0  0  0  0  0  0  0  0  0  0  0
   56.5680   22.6400   47.2300 O   0  0  0  0  0  0  0  0  0  0  0  0
   55.4800   24.5370   46.5610 N   0  0  0  0  0  0  0  0  0  0  0  0
   55.9340   25.7930   46.4150 C   0  0  0  0  0  0  0  0  0  0  0  0
   55.1520   26.8510   45.9780 O   0  0  0  0  0  0  0  0  0  0  0  0
   57.8070   29.4030   46.3800 C   0  0  0  0  0  0  0  0  0  0  0  0
   57.4640   30.2520   45.3470 C   0  0  0  0  0  0  0  0  0  0  0  0
   57.4100   31.7270   45.4690 C   0  0  0  0  0  0  0  0  0  0  0  0
   56.4990   32.3590   44.8710 O   0  0  0  0  0  0  0  0  0  0  0  0
   58.4070   32.4560   46.2130 N   0  0  0  0  0  0  0  0  0  0  0  0
   59.0760   31.8530   47.3790 C   0  0  0  0  0  0  0  0  0  0  0  0
   59.2510   32.8930   48.4950 C   0  0  0  0  0  0  0  0  0  0  0  0
   59.9030   34.2170   48.0050 C   0  0  0  0  0  0  0  0  0  0  0  0
   61.1730   34.5010   48.7050 N   0  0  0  0  0  0  0  0  0  0  0  0
   62.3400   33.7860   48.1660 C   0  0  0  0  0  0  0  0  0  0  0  0
   63.3530   33.5870   49.2560 C   0  0  0  0  0  0  0  0  0  0  0  0
   64.5140   32.8430   49.0050 C   0  0  0  0  0  0  0  0  0  0  0  0
   65.4370   32.6450   50.0290 C   0  0  0  0  0  0  0  0  0  0  0  0
   65.1950   33.1860   51.2890 C   0  0  0  0  0  0  0  0  0  0  0  0
   66.0860   33.0050   52.2900 F   0  0  0  0  0  0  0  0  0  0  0  0
   64.0250   33.9130   51.5100 C   0  0  0  0  0  0  0  0  0  0  0  0
   63.1310   34.0930   50.5030 N   0  0  0  0  0  0  0  0  0  0  0  0
   60.0310   34.3080   46.4650 C   0  0  0  0  0  0  0  0  0  0  0  0
   58.7430   33.8250   45.7930 C   0  0  0  0  0  0  0  0  0  0  0  0
   57.3140   29.5520   44.1960 N   0  0  0  0  0  0  0  0  0  0  0  0
   56.9810   30.1100   42.8770 C   0  0  0  0  0  0  0  0  0  0  0  0
  1  2  2  0
  2  3  1  0
  3  4  2  0
  4  5  1  0
  5  6  1  0
  6  7  1  0
  7  8  2  0
  7  9  1  0
  9 10  1  0
 10 11  1  0
  3 12  1  0
 12 13  2  0
 13 14  1  0
 14 15  2  0
 14 16  1  0
 16 17  1  0
 17 18  1  0
 18 19  1  0
 19 20  1  0
 20 21  1  0
 21 22  1  0
 22 23  2  0
 23 24  1  0
 24 25  2  0
 25 26  1  0
 25 27  1  0
 27 28  2  0
 19 29  1  0
 29 30  1  0
 13 31  1  0
 31 32  1  0
 31  2  1  0
 10  5  2  0
 30 16  1  0
 28 22  1  0
M  CHG  4   6  -1   9  -1  11  -1  28   1
M  END
>  <UniqueID>  (2460) 
76

>  <SMILES>  (2460) 
C=c1/c(=C\c2[n-]c(=O)[n-]c2[O-])cc(C(=O)N2CCC(NCc3ccc(F)c[nH+]3)CC2)n1C

>  <Energy>  (2460) 
136.49934564864293

>  <Genealogy>  (2460) 
C=c1c(=Cc2[n-]c(=O)[n-]c2[O-])cc(C(=O)N2CCC(NCc3ccc(F)c[nH+]3)CC2)n1C (protonated)
C=c1/c(=C\c2[n-]c(=O)[n-]c2[O-])cc(C(=O)N2CCC(NCc3ccc(F)c[nH+]3)CC2)n1C (cis-trans isomerization)
C=c1/c(=C\c2[n-]c(=O)[n-]c2[O-])cc(C(=O)N2CCC(NCc3ccc(F)c[nH+]3)CC2)n1C (3D coordinates assigned)
C=c1/c(=C\c2[n-]c(=O)[n-]c2[O-])cc(C(=O)N2CCC(NCc3ccc(F)c[nH+]3)CC2)n1C (nonaromatic ring conformer: 136.49934564864293 kcal/mol)

>  <smiles>  (2460) 
C=c1c(=Cc2[nH]c(=O)[nH]c2O)cc(C(=O)N2CCC(NCc3ccc(F)cn3)CC2)n1C

>  <score_type>  (2460) 
oracle

>  <origin>  (2460) 
adg

>  <m_score__min__energy>  (2460) 
-16.32

>  <m_primary>  (2460) 
energy

$$$$
86:0
     RDKit          3D

 27 29  0  0  0  0  0  0  0  0999 V2000
   59.0470   27.7590   48.0950 O   0  0  0  0  0  0  0  0  0  0  0  0
   59.2260   29.1200   48.3520 C   0  0  0  0  0  0  0  0  0  0  0  0
   58.7890   30.1220   47.4630 C   0  0  0  0  0  0  0  0  0  0  0  0
   58.1420   29.7980   46.1800 C   0  0  0  0  0  0  0  0  0  0  0  0
   57.3940   30.6500   45.6320 O   0  0  0  0  0  0  0  0  0  0  0  0
   58.3320   28.5280   45.5410 N   0  0  0  0  0  0  0  0  0  0  0  0
   57.2840   27.7440   44.8910 C   0  0  0  0  0  0  0  0  0  0  0  0
   57.1800   26.3700   45.5080 C   0  0  0  0  0  0  0  0  0  0  0  0
   58.3090   25.5340   45.5590 C   0  0  0  0  0  0  0  0  0  0  0  0
   58.2100   24.2470   46.0970 C   0  0  0  0  0  0  0  0  0  0  0  0
   56.9910   23.7880   46.5960 C   0  0  0  0  0  0  0  0  0  0  0  0
   55.8650   24.6160   46.5630 C   0  0  0  0  0  0  0  0  0  0  0  0
   55.9540   25.9040   46.0240 C   0  0  0  0  0  0  0  0  0  0  0  0
   54.8230   26.7120   46.0000 O   0  0  0  0  0  0  0  0  0  0  0  0
   58.9610   31.4290   47.7960 N   0  0  0  0  0  0  0  0  0  0  0  0
   59.5610   31.7960   48.9580 C   0  0  0  0  0  0  0  0  0  0  0  0
   59.6680   33.2310   49.2870 C   0  0  0  0  0  0  0  0  0  0  0  0
   59.6690   34.2380   48.4000 C   0  0  0  0  0  0  0  0  0  0  0  0
   59.0790   34.1870   47.0460 C   0  0  0  0  0  0  0  0  0  0  0  0
   57.7230   33.8580   46.8990 C   0  0  0  0  0  0  0  0  0  0  0  0
   57.1540   33.7670   45.6250 C   0  0  0  0  0  0  0  0  0  0  0  0
   57.9410   33.9820   44.4900 C   0  0  0  0  0  0  0  0  0  0  0  0
   59.3000   34.2790   44.6260 C   0  0  0  0  0  0  0  0  0  0  0  0
   59.8710   34.3710   45.8980 C   0  0  0  0  0  0  0  0  0  0  0  0
   59.9770   30.8390   49.8280 N   0  0  0  0  0  0  0  0  0  0  0  0
   59.8320   29.5190   49.5480 C   0  0  0  0  0  0  0  0  0  0  0  0
   60.2350   28.6600   50.3740 O   0  0  0  0  0  0  0  0  0  0  0  0
  1  2  1  0
  2  3  2  0
  3  4  1  0
  4  5  2  0
  4  6  1  0
  6  7  1  0
  7  8  1  0
  8  9  2  0
  9 10  1  0
 10 11  2  0
 11 12  1  0
 12 13  2  0
 13 14  1  0
  3 15  1  0
 15 16  1  0
 16 17  1  0
 17 18  2  0
 18 19  1  0
 19 20  2  0
 20 21  1  0
 21 22  2  0
 22 23  1  0
 23 24  2  0
 16 25  2  0
 25 26  1  0
 26 27  2  0
 26  2  1  0
 13  8  1  0
 24 19  1  0
M  CHG  3   6  -1  14  -1  15  -1
M  END
>  <UniqueID>  (2461) 
83

>  <SMILES>  (2461) 
O=C([N-]Cc1ccccc1[O-])c1[n-]c(/C=C\c2ccccc2)nc(=O)c1O

>  <Energy>  (2461) 
55.75708608867378

>  <Genealogy>  (2461) 
O=C([N-]Cc1ccccc1[O-])c1[n-]c(C=Cc2ccccc2)nc(=O)c1O (protonated)
O=C([N-]Cc1ccccc1[O-])c1[n-]c(/C=C\c2ccccc2)nc(=O)c1O (cis-trans isomerization)
O=C([N-]Cc1ccccc1[O-])c1[n-]c(/C=C\c2ccccc2)nc(=O)c1O (3D coordinates assigned)
O=C([N-]Cc1ccccc1[O-])c1[n-]c(/C=C\c2ccccc2)nc(=O)c1O (optimized conformer: 55.75708608867378 kcal/mol)

>  <smiles>  (2461) 
O=C(NCc1ccccc1O)c1[nH]c(C=Cc2ccccc2)nc(=O)c1O

>  <score_type>  (2461) 
oracle

>  <origin>  (2461) 
adg

>  <m_score__min__energy>  (2461) 
-14.51

>  <m_primary>  (2461) 
energy

$$$$
11:0
     RDKit          3D

 26 28  0  0  0  0  0  0  0  0999 V2000
   53.7050   27.8300   52.9330 C   0  0  0  0  0  0  0  0  0  0  0  0
   54.3860   28.9810   52.8510 C   0  0  0  0  0  0  0  0  0  0  0  0
   55.7220   28.9170   53.1030 N   0  0  0  0  0  0  0  0  0  0  0  0
   56.5690   29.9490   52.8680 C   0  0  0  0  0  0  0  0  0  0  0  0
   56.0950   31.1280   52.2890 C   0  0  0  0  0  0  0  0  0  0  0  0
   57.0140   32.2490   51.9920 C   0  0  0  0  0  0  0  0  0  0  0  0
   56.6960   33.4180   52.3440 O   0  0  0  0  0  0  0  0  0  0  0  0
   58.2600   32.0320   51.3070 N   0  0  0  0  0  0  0  0  0  0  0  0
   59.4710   32.7300   51.7520 C   0  0  0  0  0  0  0  0  0  0  0  0
   60.0870   33.4960   50.5790 C   0  0  0  0  0  0  0  0  0  0  0  0
   60.2100   32.6500   49.3810 N   0  0  0  0  0  0  0  0  0  0  0  0
   60.9790   33.1470   48.2630 C   0  0  0  0  0  0  0  0  0  0  0  0
   61.2620   34.3730   48.1950 O   0  0  0  0  0  0  0  0  0  0  0  0
   61.4450   32.2450   47.1590 C   0  0  0  0  0  0  0  0  0  0  0  0
   59.6570   31.2850   49.3860 C   0  0  0  0  0  0  0  0  0  0  0  0
   58.2760   31.2610   50.0550 C   0  0  0  0  0  0  0  0  0  0  0  0
   54.7190   31.2510   52.0560 C   0  0  0  0  0  0  0  0  0  0  0  0
   53.8220   30.2170   52.3980 C   0  0  0  0  0  0  0  0  0  0  0  0
   52.4970   30.4900   52.2870 C   0  0  0  0  0  0  0  0  0  0  0  0
   51.7780   30.8460   51.0500 C   0  0  0  0  0  0  0  0  0  0  0  0
   51.7730   30.0750   49.9490 N   0  0  0  0  0  0  0  0  0  0  0  0
   51.1030   30.8220   49.0450 C   0  0  0  0  0  0  0  0  0  0  0  0
   50.8750   30.4250   47.8730 O   0  0  0  0  0  0  0  0  0  0  0  0
   50.7050   32.0320   49.4940 N   0  0  0  0  0  0  0  0  0  0  0  0
   51.1520   32.0390   50.7590 C   0  0  0  0  0  0  0  0  0  0  0  0
   51.0200   33.1230   51.6180 O   0  0  0  0  0  0  0  0  0  0  0  0
  1  2  2  0
  2  3  1  0
  3  4  2  0
  4  5  1  0
  5  6  1  0
  6  7  2  0
  6  8  1  0
  8  9  1  0
  9 10  1  0
 10 11  1  0
 11 12  1  0
 12 13  2  0
 12 14  1  0
 11 15  1  0
 15 16  1  0
  5 17  2  0
 17 18  1  0
 18 19  2  0
 19 20  1  0
 20 21  1  0
 21 22  1  0
 22 23  2  0
 22 24  1  0
 24 25  1  0
 25 26  1  0
 18  2  1  0
 25 20  2  0
 16  8  1  0
M  CHG  3  21  -1  24  -1  26  -1
M  END
>  <UniqueID>  (2462) 
11

>  <SMILES>  (2462) 
C=c1ncc(C(=O)N2CCN(C(C)=O)CC2)c/c1=C/c1[n-]c(=O)[n-]c1[O-]

>  <Energy>  (2462) 
98.74243984682577

>  <Genealogy>  (2462) 
C=c1ncc(C(=O)N2CCN(C(C)=O)CC2)cc1=Cc1[n-]c(=O)[n-]c1[O-] (protonated)
C=c1ncc(C(=O)N2CCN(C(C)=O)CC2)c/c1=C/c1[n-]c(=O)[n-]c1[O-] (cis-trans isomerization)
C=c1ncc(C(=O)N2CCN(C(C)=O)CC2)c/c1=C/c1[n-]c(=O)[n-]c1[O-] (3D coordinates assigned)
C=c1ncc(C(=O)N2CCN(C(C)=O)CC2)c/c1=C/c1[n-]c(=O)[n-]c1[O-] (nonaromatic ring conformer: 98.74243984682577 kcal/mol)

>  <smiles>  (2462) 
C=c1ncc(C(=O)N2CCN(C(C)=O)CC2)cc1=Cc1[nH]c(=O)[nH]c1O

>  <score_type>  (2462) 
oracle

>  <origin>  (2462) 
adg

>  <m_score__min__energy>  (2462) 
-16.739999999999998

>  <m_primary>  (2462) 
energy

$$$$
13:0
     RDKit          3D

 29 32  0  0  0  0  0  0  0  0999 V2000
   55.4340   29.3490   44.9430 O   0  0  0  0  0  0  0  0  0  0  0  0
   56.2590   28.2830   45.2830 C   0  0  0  0  0  0  0  0  0  0  0  0
   55.8130   27.1220   45.7910 N   0  0  0  0  0  0  0  0  0  0  0  0
   56.9510   26.4070   45.9350 C   0  0  0  0  0  0  0  0  0  0  0  0
   56.9600   25.2340   46.3900 O   0  0  0  0  0  0  0  0  0  0  0  0
   58.0740   27.0460   45.5430 N   0  0  0  0  0  0  0  0  0  0  0  0
   57.6250   28.2530   45.1490 C   0  0  0  0  0  0  0  0  0  0  0  0
   58.4570   29.3040   44.5320 C   0  0  0  0  0  0  0  0  0  0  0  0
   58.4280   30.6260   44.8380 C   0  0  0  0  0  0  0  0  0  0  0  0
   59.0970   31.0190   46.0200 C   0  0  0  0  0  0  0  0  0  0  0  0
   58.9970   32.3270   46.5210 C   0  0  0  0  0  0  0  0  0  0  0  0
   59.6570   32.7050   47.7940 C   0  0  0  0  0  0  0  0  0  0  0  0
   59.0300   33.4310   48.6150 O   0  0  0  0  0  0  0  0  0  0  0  0
   60.9930   32.2670   48.1200 N   0  0  0  0  0  0  0  0  0  0  0  0
   62.0230   32.1050   47.0880 C   0  0  0  0  0  0  0  0  0  0  0  0
   63.3360   32.7170   47.5920 C   0  0  0  0  0  0  0  0  0  0  0  0
   63.8270   32.1110   48.8650 N   0  0  0  0  0  0  0  0  0  0  0  0
   64.6530   33.0600   49.6760 C   0  0  0  0  0  0  0  0  0  0  0  0
   65.9610   32.3970   50.1990 C   0  0  0  0  0  0  0  0  0  0  0  0
   66.8600   33.3970   50.9600 C   0  0  0  0  0  0  0  0  0  0  0  0
   66.0700   34.4800   51.7150 C   0  0  0  0  0  0  0  0  0  0  0  0
   64.6940   33.9640   52.1310 C   0  0  0  0  0  0  0  0  0  0  0  0
   63.8430   33.6130   50.8960 C   0  0  0  0  0  0  0  0  0  0  0  0
   62.7450   31.4470   49.6490 C   0  0  0  0  0  0  0  0  0  0  0  0
   61.3900   32.1580   49.5260 C   0  0  0  0  0  0  0  0  0  0  0  0
   58.2050   33.2570   45.8430 C   0  0  0  0  0  0  0  0  0  0  0  0
   57.5990   32.9210   44.6340 C   0  0  0  0  0  0  0  0  0  0  0  0
   57.7540   31.6370   44.0760 C   0  0  0  0  0  0  0  0  0  0  0  0
   57.3700   31.4710   42.7970 C   0  0  0  0  0  0  0  0  0  0  0  0
  1  2  1  0
  2  3  1  0
  3  4  1  0
  4  5  2  0
  4  6  1  0
  6  7  1  0
  7  8  1  0
  8  9  2  0
  9 10  1  0
 10 11  2  0
 11 12  1  0
 12 13  2  0
 12 14  1  0
 14 15  1  0
 15 16  1  0
 16 17  1  0
 17 18  1  0
 18 19  1  0
 19 20  1  0
 20 21  1  0
 21 22  1  0
 22 23  1  0
 17 24  1  0
 24 25  1  0
 11 26  1  0
 26 27  2  0
 27 28  1  0
 28 29  2  0
  7  2  2  0
 28  9  1  0
 25 14  1  0
 23 18  1  0
M  CHG  2   3  -1   6  -1
M  END
>  <UniqueID>  (2463) 
13

>  <SMILES>  (2463) 
C=c1ccc(C(=O)N2CCN(C3CCCCC3)CC2)c/c1=C/c1[n-]c(=O)[n-]c1O

>  <Energy>  (2463) 
125.96594686042289

>  <Genealogy>  (2463) 
C=c1ccc(C(=O)N2CCN(C3CCCCC3)CC2)cc1=Cc1[n-]c(=O)[n-]c1O (protonated)
C=c1ccc(C(=O)N2CCN(C3CCCCC3)CC2)c/c1=C/c1[n-]c(=O)[n-]c1O (cis-trans isomerization)
C=c1ccc(C(=O)N2CCN(C3CCCCC3)CC2)c/c1=C/c1[n-]c(=O)[n-]c1O (3D coordinates assigned)
C=c1ccc(C(=O)N2CCN(C3CCCCC3)CC2)c/c1=C/c1[n-]c(=O)[n-]c1O (nonaromatic ring conformer: 125.96594686042289 kcal/mol)

>  <smiles>  (2463) 
C=c1ccc(C(=O)N2CCN(C3CCCCC3)CC2)cc1=Cc1[nH]c(=O)[nH]c1O

>  <score_type>  (2463) 
oracle

>  <origin>  (2463) 
adg

>  <m_score__min__energy>  (2463) 
-14.279999999999999

>  <m_primary>  (2463) 
energy

$$$$
26:0
     RDKit          3D

 29 32  0  0  0  0  0  0  0  0999 V2000
   60.3410   27.3460   46.0760 C   0  0  0  0  0  0  0  0  0  0  0  0
   59.3900   28.2030   45.6670 C   0  0  0  0  0  0  0  0  0  0  0  0
   58.1670   27.8620   45.0740 C   0  0  0  0  0  0  0  0  0  0  0  0
   57.7330   26.6200   44.7610 C   0  0  0  0  0  0  0  0  0  0  0  0
   57.1510   25.6460   45.7120 C   0  0  0  0  0  0  0  0  0  0  0  0
   57.7460   24.5210   46.1520 N   0  0  0  0  0  0  0  0  0  0  0  0
   56.8100   23.9560   46.9440 C   0  0  0  0  0  0  0  0  0  0  0  0
   57.0020   22.8730   47.5550 O   0  0  0  0  0  0  0  0  0  0  0  0
   55.6490   24.6430   47.0280 N   0  0  0  0  0  0  0  0  0  0  0  0
   55.8800   25.7050   46.2390 C   0  0  0  0  0  0  0  0  0  0  0  0
   54.9480   26.7080   46.0040 O   0  0  0  0  0  0  0  0  0  0  0  0
   57.5000   29.0620   44.8580 C   0  0  0  0  0  0  0  0  0  0  0  0
   58.3180   30.0670   45.3320 C   0  0  0  0  0  0  0  0  0  0  0  0
   57.9260   31.4950   45.3350 C   0  0  0  0  0  0  0  0  0  0  0  0
   56.7760   31.7990   44.9110 O   0  0  0  0  0  0  0  0  0  0  0  0
   58.7560   32.5000   45.9700 N   0  0  1  0  0  0  0  0  0  0  0  0
   59.1910   33.5240   44.9880 C   0  0  0  0  0  0  0  0  0  0  0  0
   59.8630   34.7570   45.6420 C   0  0  0  0  0  0  0  0  0  0  0  0
   60.1780   34.5510   47.1400 C   0  0  2  0  0  0  0  0  0  0  0  0
   61.2680   33.5420   47.3050 N   0  0  0  0  0  0  0  0  0  0  0  0
   61.6650   33.3010   48.7100 C   0  0  0  0  0  0  0  0  0  0  0  0
   62.9190   32.4040   48.7800 C   0  0  0  0  0  0  0  0  0  0  0  0
   64.0290   32.8280   47.9880 O   0  0  0  0  0  0  0  0  0  0  0  0
   63.7550   33.9830   47.2190 C   0  0  0  0  0  0  0  0  0  0  0  0
   62.4390   33.8420   46.4350 C   0  0  0  0  0  0  0  0  0  0  0  0
   58.8350   34.1910   47.8350 C   0  0  0  0  0  0  0  0  0  0  0  0
   58.0190   33.0990   47.1010 C   0  0  0  0  0  0  0  0  0  0  0  0
   59.4820   29.5520   45.7980 N   0  0  0  0  0  0  0  0  0  0  0  0
   60.6390   30.3060   46.2950 C   0  0  0  0  0  0  0  0  0  0  0  0
  1  2  2  0
  2  3  1  0
  3  4  2  0
  4  5  1  0
  5  6  1  0
  6  7  1  0
  7  8  2  0
  7  9  1  0
  9 10  1  0
 10 11  1  0
  3 12  1  0
 12 13  2  0
 13 14  1  0
 14 15  2  0
 16 14  1  6
 16 17  1  0
 17 18  1  0
 18 19  1  0
 19 20  1  6
 20 21  1  0
 21 22  1  0
 22 23  1  0
 23 24  1  0
 24 25  1  0
 19 26  1  0
 26 27  1  0
 13 28  1  0
 28 29  1  0
 28  2  1  0
 10  5  2  0
 27 16  1  0
 25 20  1  0
M  CHG  4   6  -1   9  -1  11  -1  16   1
M  END
>  <UniqueID>  (2464) 
26

>  <SMILES>  (2464) 
C=c1/c(=C/c2[n-]c(=O)[n-]c2[O-])cc(C(=O)[NH+]2CCC(N3CCOCC3)CC2)n1C

>  <Energy>  (2464) 
153.14563891732791

>  <Genealogy>  (2464) 
C=c1c(=Cc2[n-]c(=O)[n-]c2[O-])cc(C(=O)[NH+]2CCC(N3CCOCC3)CC2)n1C (protonated)
C=c1/c(=C/c2[n-]c(=O)[n-]c2[O-])cc(C(=O)[NH+]2CCC(N3CCOCC3)CC2)n1C (cis-trans isomerization)
C=c1/c(=C/c2[n-]c(=O)[n-]c2[O-])cc(C(=O)[NH+]2CCC(N3CCOCC3)CC2)n1C (3D coordinates assigned)
C=c1/c(=C/c2[n-]c(=O)[n-]c2[O-])cc(C(=O)[NH+]2CCC(N3CCOCC3)CC2)n1C (nonaromatic ring conformer: 153.14563891732791 kcal/mol)

>  <smiles>  (2464) 
C=c1c(=Cc2[nH]c(=O)[nH]c2O)cc(C(=O)N2CCC(N3CCOCC3)CC2)n1C

>  <score_type>  (2464) 
oracle

>  <origin>  (2464) 
adg

>  <m_score__min__energy>  (2464) 
-16.57

>  <m_primary>  (2464) 
energy

$$$$
27:0
     RDKit          3D

 28 30  0  0  0  0  0  0  0  0999 V2000
   57.2320   33.9910   47.0950 O   0  0  0  0  0  0  0  0  0  0  0  0
   58.1430   33.1540   47.3390 C   0  0  0  0  0  0  0  0  0  0  0  0
   58.7960   32.4140   46.2130 C   0  0  0  0  0  0  0  0  0  0  0  0
   59.2140   31.0030   46.6420 C   0  0  0  0  0  0  0  0  0  0  0  0
   58.5550   29.9460   45.7920 C   0  0  0  0  0  0  0  0  0  0  0  0
   58.2030   30.2320   44.4640 C   0  0  0  0  0  0  0  0  0  0  0  0
   57.6400   29.2430   43.6560 C   0  0  0  0  0  0  0  0  0  0  0  0
   57.4270   27.9600   44.1640 C   0  0  0  0  0  0  0  0  0  0  0  0
   57.7740   27.6550   45.4890 C   0  0  0  0  0  0  0  0  0  0  0  0
   57.5410   26.2940   46.0250 C   0  0  0  0  0  0  0  0  0  0  0  0
   56.2400   25.8430   46.3070 C   0  0  0  0  0  0  0  0  0  0  0  0
   55.1420   26.6750   46.1040 O   0  0  0  0  0  0  0  0  0  0  0  0
   56.0470   24.5800   46.7710 N   0  0  0  0  0  0  0  0  0  0  0  0
   57.0910   23.7380   46.9750 C   0  0  0  0  0  0  0  0  0  0  0  0
   56.8860   22.5750   47.4080 O   0  0  0  0  0  0  0  0  0  0  0  0
   58.3580   24.1510   46.7150 N   0  0  0  0  0  0  0  0  0  0  0  0
   58.6060   25.4020   46.2460 C   0  0  0  0  0  0  0  0  0  0  0  0
   59.7970   25.7520   46.0290 O   0  0  0  0  0  0  0  0  0  0  0  0
   58.3420   28.6520   46.2990 C   0  0  0  0  0  0  0  0  0  0  0  0
   58.5930   32.9410   48.6790 N   0  0  0  0  0  0  0  0  0  0  0  0
   59.7030   33.6720   49.2780 C   0  0  0  0  0  0  0  0  0  0  0  0
   60.9680   33.4020   48.5130 C   0  0  0  0  0  0  0  0  0  0  0  0
   61.2680   34.1560   47.3670 C   0  0  0  0  0  0  0  0  0  0  0  0
   62.4370   33.9050   46.6420 C   0  0  0  0  0  0  0  0  0  0  0  0
   63.3170   32.9030   47.0600 C   0  0  0  0  0  0  0  0  0  0  0  0
   64.4340   32.6420   46.3390 F   0  0  0  0  0  0  0  0  0  0  0  0
   63.0390   32.1650   48.2150 C   0  0  0  0  0  0  0  0  0  0  0  0
   61.8720   32.4160   48.9430 C   0  0  0  0  0  0  0  0  0  0  0  0
  1  2  2  0
  2  3  1  0
  3  4  1  0
  4  5  1  0
  5  6  2  0
  6  7  1  0
  7  8  2  0
  8  9  1  0
  9 10  1  0
 10 11  2  0
 11 12  1  0
 11 13  1  0
 13 14  1  0
 14 15  2  0
 14 16  1  0
 16 17  1  0
 17 18  2  0
  9 19  2  0
  2 20  1  0
 20 21  1  0
 21 22  1  0
 22 23  2  0
 23 24  1  0
 24 25  2  0
 25 26  1  0
 25 27  1  0
 27 28  2  0
 19  5  1  0
 28 22  1  0
 17 10  1  0
M  CHG  3  13  -1  16  -1  20  -1
M  END
>  <UniqueID>  (2465) 
27

>  <SMILES>  (2465) 
O=C(CCc1cccc(-c2c(O)[n-]c(=O)[n-]c2=O)c1)[N-]Cc1ccc(F)cc1

>  <Energy>  (2465) 
42.810650426084386

>  <Genealogy>  (2465) 
O=C(CCc1cccc(-c2c(O)[n-]c(=O)[n-]c2=O)c1)[N-]Cc1ccc(F)cc1 (protonated)
O=C(CCc1cccc(-c2c(O)[n-]c(=O)[n-]c2=O)c1)[N-]Cc1ccc(F)cc1 (3D coordinates assigned)
O=C(CCc1cccc(-c2c(O)[n-]c(=O)[n-]c2=O)c1)[N-]Cc1ccc(F)cc1 (optimized conformer: 42.810650426084386 kcal/mol)

>  <smiles>  (2465) 
O=C(CCc1cccc(-c2c(O)[nH]c(=O)[nH]c2=O)c1)NCc1ccc(F)cc1

>  <score_type>  (2465) 
oracle

>  <origin>  (2465) 
adg

>  <m_score__min__energy>  (2465) 
-15.57

>  <m_primary>  (2465) 
energy

$$$$
39:0
     RDKit          3D

 30 33  0  0  0  0  0  0  0  0999 V2000
   54.4050   28.2280   53.2100 C   0  0  0  0  0  0  0  0  0  0  0  0
   54.7090   29.4330   52.7020 C   0  0  0  0  0  0  0  0  0  0  0  0
   53.8060   30.4430   52.3240 C   0  0  0  0  0  0  0  0  0  0  0  0
   52.4670   30.4270   52.1730 C   0  0  0  0  0  0  0  0  0  0  0  0
   51.7340   30.7930   50.9500 C   0  0  0  0  0  0  0  0  0  0  0  0
   51.6930   30.0490   49.8290 N   0  0  0  0  0  0  0  0  0  0  0  0
   51.0350   30.8440   48.9540 C   0  0  0  0  0  0  0  0  0  0  0  0
   50.7780   30.4860   47.7750 O   0  0  0  0  0  0  0  0  0  0  0  0
   50.6840   32.0560   49.4390 N   0  0  0  0  0  0  0  0  0  0  0  0
   51.1470   32.0090   50.7000 C   0  0  0  0  0  0  0  0  0  0  0  0
   51.0280   33.0590   51.6090 O   0  0  0  0  0  0  0  0  0  0  0  0
   54.5690   31.5710   52.0760 C   0  0  0  0  0  0  0  0  0  0  0  0
   55.8910   31.2010   52.2260 C   0  0  0  0  0  0  0  0  0  0  0  0
   57.0270   32.1080   51.9620 C   0  0  0  0  0  0  0  0  0  0  0  0
   56.9240   33.3130   52.3120 O   0  0  0  0  0  0  0  0  0  0  0  0
   58.2070   31.6640   51.2630 N   0  0  0  0  0  0  0  0  0  0  0  0
   59.4640   32.4170   51.4330 C   0  0  0  0  0  0  0  0  0  0  0  0
   60.5730   31.8810   50.5220 C   0  0  0  0  0  0  0  0  0  0  0  0
   60.0390   31.6840   49.1690 N   0  0  0  0  0  0  0  0  0  0  0  0
   60.8260   32.1000   48.0370 C   0  0  0  0  0  0  0  0  0  0  0  0
   62.0430   31.7710   47.9830 O   0  0  0  0  0  0  0  0  0  0  0  0
   60.2560   32.9530   46.9250 C   0  0  0  0  0  0  0  0  0  0  0  0
   59.2880   32.1920   46.0120 C   0  0  0  0  0  0  0  0  0  0  0  0
   58.0330   33.0540   45.8880 C   0  0  0  0  0  0  0  0  0  0  0  0
   58.3950   34.4290   46.4290 C   0  0  0  0  0  0  0  0  0  0  0  0
   59.5120   34.1940   47.4300 C   0  0  0  0  0  0  0  0  0  0  0  0
   58.7770   30.9540   48.9750 C   0  0  0  0  0  0  0  0  0  0  0  0
   58.1570   30.5380   50.3150 C   0  0  0  0  0  0  0  0  0  0  0  0
   55.9820   29.9070   52.6160 N   0  0  0  0  0  0  0  0  0  0  0  0
   57.2070   29.1950   53.0000 C   0  0  0  0  0  0  0  0  0  0  0  0
  1  2  2  0
  2  3  1  0
  3  4  2  3
  4  5  1  0
  5  6  1  0
  6  7  1  0
  7  8  2  0
  7  9  1  0
  9 10  1  0
 10 11  1  0
  3 12  1  0
 12 13  2  0
 13 14  1  0
 14 15  2  0
 14 16  1  0
 16 17  1  0
 17 18  1  0
 18 19  1  0
 19 20  1  0
 20 21  2  0
 20 22  1  0
 22 23  1  0
 23 24  1  0
 24 25  1  0
 25 26  1  0
 19 27  1  0
 27 28  1  0
 13 29  1  0
 29 30  1  0
 29  2  1  0
 10  5  2  0
 28 16  1  0
 26 22  1  0
M  CHG  3   6  -1   9  -1  11  -1
M  END
>  <UniqueID>  (2466) 
39

>  <SMILES>  (2466) 
C=c1c(=Cc2[n-]c(=O)[n-]c2[O-])cc(C(=O)N2CCN(C(=O)C3CCCC3)CC2)n1C

>  <Energy>  (2466) 
134.35738933057172

>  <Genealogy>  (2466) 
C=c1c(=Cc2[n-]c(=O)[n-]c2[O-])cc(C(=O)N2CCN(C(=O)C3CCCC3)CC2)n1C (protonated)
C=c1c(=Cc2[n-]c(=O)[n-]c2[O-])cc(C(=O)N2CCN(C(=O)C3CCCC3)CC2)n1C (3D coordinates assigned)
C=c1c(=Cc2[n-]c(=O)[n-]c2[O-])cc(C(=O)N2CCN(C(=O)C3CCCC3)CC2)n1C (nonaromatic ring conformer: 134.35738933057172 kcal/mol)

>  <smiles>  (2466) 
C=c1c(=Cc2[nH]c(=O)[nH]c2O)cc(C(=O)N2CCN(C(=O)C3CCCC3)CC2)n1C

>  <score_type>  (2466) 
oracle

>  <origin>  (2466) 
adg

>  <m_score__min__energy>  (2466) 
-18.329999999999998

>  <m_primary>  (2466) 
energy

$$$$
41:0
     RDKit          3D

 31 33  0  0  0  0  0  0  0  0999 V2000
   56.4320   32.1060   52.1600 O   0  0  0  0  0  0  0  0  0  0  0  0
   56.4800   30.8490   52.0680 C   0  0  0  0  0  0  0  0  0  0  0  0
   57.7800   30.1640   51.7830 C   0  0  0  0  0  0  0  0  0  0  0  0
   58.1470   30.3110   50.3790 N   0  0  0  0  0  0  0  0  0  0  0  0
   59.3740   30.9020   49.9330 C   0  0  0  0  0  0  0  0  0  0  0  0
   60.4710   30.5030   50.4120 O   0  0  0  0  0  0  0  0  0  0  0  0
   59.3720   31.9460   48.8810 C   0  0  0  0  0  0  0  0  0  0  0  0
   58.6100   31.7260   47.7180 C   0  0  0  0  0  0  0  0  0  0  0  0
   58.5690   32.6790   46.6920 C   0  0  0  0  0  0  0  0  0  0  0  0
   57.6240   32.3740   45.2300 S   0  0  0  0  0  0  0  0  0  0  0  0
   56.3920   33.2370   45.2480 O   0  0  0  0  0  0  0  0  0  0  0  0
   58.4390   32.7550   44.0260 O   0  0  0  0  0  0  0  0  0  0  0  0
   57.1570   30.6930   45.1040 N   0  0  0  0  0  0  0  0  0  0  0  0
   56.0870   30.4970   44.0990 C   0  0  0  0  0  0  0  0  0  0  0  0
   56.6190   29.8510   42.8070 C   0  0  0  0  0  0  0  0  0  0  0  0
   57.2270   28.5860   43.0270 O   0  0  0  0  0  0  0  0  0  0  0  0
   57.9250   28.4910   44.2650 C   0  0  0  0  0  0  0  0  0  0  0  0
   58.3400   29.8460   44.8620 C   0  0  0  0  0  0  0  0  0  0  0  0
   59.2850   33.8720   46.8320 C   0  0  0  0  0  0  0  0  0  0  0  0
   60.0550   34.1000   47.9730 C   0  0  0  0  0  0  0  0  0  0  0  0
   60.1120   33.1470   48.9970 C   0  0  0  0  0  0  0  0  0  0  0  0
   61.2910   33.5180   50.4660 Br  0  0  0  0  0  0  0  0  0  0  0  0
   55.2850   30.0720   52.1820 N   0  0  0  0  0  0  0  0  0  0  0  0
   54.1770   30.1860   51.2430 C   0  0  0  0  0  0  0  0  0  0  0  0
   52.9220   30.5250   51.9930 C   0  0  0  0  0  0  0  0  0  0  0  0
   52.4460   29.6640   52.9970 C   0  0  0  0  0  0  0  0  0  0  0  0
   51.2550   29.9570   53.6690 C   0  0  0  0  0  0  0  0  0  0  0  0
   50.5280   31.1040   53.3380 C   0  0  0  0  0  0  0  0  0  0  0  0
   50.9890   31.9610   52.3320 C   0  0  0  0  0  0  0  0  0  0  0  0
   50.2590   33.0940   51.9970 O   0  0  0  0  0  0  0  0  0  0  0  0
   52.1800   31.6720   51.6590 C   0  0  0  0  0  0  0  0  0  0  0  0
  1  2  2  0
  2  3  1  0
  3  4  1  0
  4  5  1  0
  5  6  2  0
  5  7  1  0
  7  8  2  0
  8  9  1  0
  9 10  1  0
 10 11  2  0
 10 12  2  0
 10 13  1  0
 13 14  1  0
 14 15  1  0
 15 16  1  0
 16 17  1  0
 17 18  1  0
  9 19  2  0
 19 20  1  0
 20 21  2  0
 21 22  1  0
  2 23  1  0
 23 24  1  0
 24 25  1  0
 25 26  2  0
 26 27  1  0
 27 28  2  0
 28 29  1  0
 29 30  1  0
 29 31  2  0
 21  7  1  0
 31 25  1  0
 18 13  1  0
M  CHG  3   4  -1  23  -1  30  -1
M  END
>  <UniqueID>  (2467) 
41

>  <SMILES>  (2467) 
O=C(C[N-]C(=O)c1cc(S(=O)(=O)N2CCOCC2)ccc1Br)[N-]Cc1cccc([O-])c1

>  <Energy>  (2467) 
63.65926281875669

>  <Genealogy>  (2467) 
O=C(C[N-]C(=O)c1cc(S(=O)(=O)N2CCOCC2)ccc1Br)[N-]Cc1cccc([O-])c1 (protonated)
O=C(C[N-]C(=O)c1cc(S(=O)(=O)N2CCOCC2)ccc1Br)[N-]Cc1cccc([O-])c1 (3D coordinates assigned)
O=C(C[N-]C(=O)c1cc(S(=O)(=O)N2CCOCC2)ccc1Br)[N-]Cc1cccc([O-])c1 (nonaromatic ring conformer: 63.65926281875669 kcal/mol)

>  <smiles>  (2467) 
O=C(CNC(=O)c1cc(S(=O)(=O)N2CCOCC2)ccc1Br)NCc1cccc(O)c1

>  <score_type>  (2467) 
oracle

>  <origin>  (2467) 
adg

>  <m_score__min__energy>  (2467) 
-16.16

>  <m_primary>  (2467) 
energy

$$$$
42:0
     RDKit          3D

 32 35  0  0  0  0  0  0  0  0999 V2000
   58.7000   30.3190   44.9750 C   0  0  0  0  0  0  0  0  0  0  0  0
   58.8540   29.7100   46.1620 C   0  0  0  0  0  0  0  0  0  0  0  0
   58.4310   28.4180   46.4920 C   0  0  0  0  0  0  0  0  0  0  0  0
   57.7540   27.5550   45.7090 C   0  0  0  0  0  0  0  0  0  0  0  0
   57.2060   26.2710   46.1810 C   0  0  0  0  0  0  0  0  0  0  0  0
   57.9680   25.2810   46.6760 N   0  0  0  0  0  0  0  0  0  0  0  0
   57.0660   24.3500   47.0580 C   0  0  0  0  0  0  0  0  0  0  0  0
   57.4030   23.2500   47.5670 O   0  0  0  0  0  0  0  0  0  0  0  0
   55.7770   24.6960   46.8610 N   0  0  0  0  0  0  0  0  0  0  0  0
   55.8790   25.9200   46.3170 C   0  0  0  0  0  0  0  0  0  0  0  0
   54.7840   26.7140   45.9990 O   0  0  0  0  0  0  0  0  0  0  0  0
   58.7990   28.2150   47.8140 C   0  0  0  0  0  0  0  0  0  0  0  0
   59.4450   29.3630   48.2260 C   0  0  0  0  0  0  0  0  0  0  0  0
   60.0040   29.5490   49.5790 C   0  0  0  0  0  0  0  0  0  0  0  0
   61.2500   29.4510   49.7430 O   0  0  0  0  0  0  0  0  0  0  0  0
   59.1580   29.8810   50.6940 N   0  0  0  0  0  0  0  0  0  0  0  0
   58.0180   30.7900   50.4910 C   0  0  0  0  0  0  0  0  0  0  0  0
   57.3570   31.1710   51.8180 C   0  0  0  0  0  0  0  0  0  0  0  0
   57.1900   29.9730   52.6520 N   0  0  0  0  0  0  0  0  0  0  0  0
   55.9580   29.7240   53.3550 C   0  0  0  0  0  0  0  0  0  0  0  0
   55.9920   29.2100   54.5060 O   0  0  0  0  0  0  0  0  0  0  0  0
   54.6460   30.0020   52.7250 C   0  0  0  0  0  0  0  0  0  0  0  0
   54.4390   31.2450   52.1010 C   0  0  0  0  0  0  0  0  0  0  0  0
   53.2200   31.5340   51.4830 C   0  0  0  0  0  0  0  0  0  0  0  0
   52.1960   30.5860   51.4780 C   0  0  0  0  0  0  0  0  0  0  0  0
   52.3890   29.3460   52.0910 C   0  0  0  0  0  0  0  0  0  0  0  0
   53.6070   29.0450   52.7140 C   0  0  0  0  0  0  0  0  0  0  0  0
   53.7670   27.4840   53.5130 Cl  0  0  0  0  0  0  0  0  0  0  0  0
   58.3290   29.0690   52.8680 C   0  0  0  0  0  0  0  0  0  0  0  0
   59.5580   29.4940   52.0530 C   0  0  0  0  0  0  0  0  0  0  0  0
   59.4660   30.2810   47.2300 N   0  0  0  0  0  0  0  0  0  0  0  0
   59.9610   31.6600   47.3120 C   0  0  0  0  0  0  0  0  0  0  0  0
  1  2  2  0
  2  3  1  0
  3  4  2  0
  4  5  1  0
  5  6  1  0
  6  7  1  0
  7  8  2  0
  7  9  1  0
  9 10  1  0
 10 11  1  0
  3 12  1  0
 12 13  2  0
 13 14  1  0
 14 15  2  0
 14 16  1  0
 16 17  1  0
 17 18  1  0
 18 19  1  0
 19 20  1  0
 20 21  2  0
 20 22  1  0
 22 23  2  0
 23 24  1  0
 24 25  2  0
 25 26  1  0
 26 27  2  0
 27 28  1  0
 19 29  1  0
 29 30  1  0
 13 31  1  0
 31 32  1  0
 31  2  1  0
 10  5  2  0
 30 16  1  0
 27 22  1  0
M  CHG  3   6  -1   9  -1  11  -1
M  END
>  <UniqueID>  (2468) 
42

>  <SMILES>  (2468) 
C=c1/c(=C/c2[n-]c(=O)[n-]c2[O-])cc(C(=O)N2CCN(C(=O)c3ccccc3Cl)CC2)n1C

>  <Energy>  (2468) 
131.34383696210068

>  <Genealogy>  (2468) 
C=c1c(=Cc2[n-]c(=O)[n-]c2[O-])cc(C(=O)N2CCN(C(=O)c3ccccc3Cl)CC2)n1C (protonated)
C=c1/c(=C/c2[n-]c(=O)[n-]c2[O-])cc(C(=O)N2CCN(C(=O)c3ccccc3Cl)CC2)n1C (cis-trans isomerization)
C=c1/c(=C/c2[n-]c(=O)[n-]c2[O-])cc(C(=O)N2CCN(C(=O)c3ccccc3Cl)CC2)n1C (3D coordinates assigned)
C=c1/c(=C/c2[n-]c(=O)[n-]c2[O-])cc(C(=O)N2CCN(C(=O)c3ccccc3Cl)CC2)n1C (nonaromatic ring conformer: 131.34383696210068 kcal/mol)

>  <smiles>  (2468) 
C=c1c(=Cc2[nH]c(=O)[nH]c2O)cc(C(=O)N2CCN(C(=O)c3ccccc3Cl)CC2)n1C

>  <score_type>  (2468) 
oracle

>  <origin>  (2468) 
adg

>  <m_score__min__energy>  (2468) 
-19.030000000000001

>  <m_primary>  (2468) 
energy

$$$$
62:0
     RDKit          3D

 36 39  0  0  0  0  0  0  0  0999 V2000
   59.3250   30.0770   44.9850 C   0  0  0  0  0  0  0  0  0  0  0  0
   59.3650   29.4050   46.1470 C   0  0  0  0  0  0  0  0  0  0  0  0
   58.5240   28.3480   46.5270 C   0  0  0  0  0  0  0  0  0  0  0  0
   57.6850   27.5830   45.8010 C   0  0  0  0  0  0  0  0  0  0  0  0
   57.1810   26.2570   46.1940 C   0  0  0  0  0  0  0  0  0  0  0  0
   57.9470   25.2480   46.6490 N   0  0  0  0  0  0  0  0  0  0  0  0
   57.0450   24.3090   47.0050 C   0  0  0  0  0  0  0  0  0  0  0  0
   57.3820   23.1890   47.4720 O   0  0  0  0  0  0  0  0  0  0  0  0
   55.7550   24.6650   46.8310 N   0  0  0  0  0  0  0  0  0  0  0  0
   55.8600   25.9070   46.3300 C   0  0  0  0  0  0  0  0  0  0  0  0
   54.7700   26.7060   46.0080 O   0  0  0  0  0  0  0  0  0  0  0  0
   58.7010   28.1830   47.8870 C   0  0  0  0  0  0  0  0  0  0  0  0
   59.6880   29.0650   48.2740 C   0  0  0  0  0  0  0  0  0  0  0  0
   60.1450   29.2480   49.6670 C   0  0  0  0  0  0  0  0  0  0  0  0
   61.1510   28.5950   50.0540 O   0  0  0  0  0  0  0  0  0  0  0  0
   59.4490   30.1150   50.5930 N   0  0  0  0  0  0  0  0  0  0  0  0
   59.6510   29.9590   52.0430 C   0  0  0  0  0  0  0  0  0  0  0  0
   58.2960   29.8080   52.7490 C   0  0  0  0  0  0  0  0  0  0  0  0
   57.2810   30.7090   52.1740 N   0  0  0  0  0  0  0  0  0  0  0  0
   55.8840   30.3560   52.2550 C   0  0  0  0  0  0  0  0  0  0  0  0
   55.1230   30.5930   51.2770 O   0  0  0  0  0  0  0  0  0  0  0  0
   55.3260   29.6880   53.4490 C   0  0  0  0  0  0  0  0  0  0  0  0
   55.3050   30.3410   54.6920 C   0  0  0  0  0  0  0  0  0  0  0  0
   54.7620   29.7070   55.8140 C   0  0  0  0  0  0  0  0  0  0  0  0
   54.2290   28.4190   55.7010 C   0  0  0  0  0  0  0  0  0  0  0  0
   54.2330   27.7680   54.4660 C   0  0  0  0  0  0  0  0  0  0  0  0
   54.7730   28.4000   53.3420 C   0  0  0  0  0  0  0  0  0  0  0  0
   57.7200   31.7700   51.2600 C   0  0  0  0  0  0  0  0  0  0  0  0
   58.5120   31.1460   50.1080 C   0  0  0  0  0  0  0  0  0  0  0  0
   60.1140   29.7970   47.2140 N   0  0  0  0  0  0  0  0  0  0  0  0
   61.1270   30.8680   47.2530 C   0  0  0  0  0  0  0  0  0  0  0  0
   60.5250   32.2040   47.6190 C   0  0  0  0  0  0  0  0  0  0  0  0
   59.5250   32.6050   46.9620 O   0  0  0  0  0  0  0  0  0  0  0  0
   61.0210   33.0060   48.7150 N   0  0  0  0  0  0  0  0  0  0  0  0
   62.2070   32.6040   49.4760 C   0  0  0  0  0  0  0  0  0  0  0  0
   60.3240   34.2510   49.0540 C   0  0  0  0  0  0  0  0  0  0  0  0
  1  2  2  0
  2  3  1  0
  3  4  2  3
  4  5  1  0
  5  6  1  0
  6  7  1  0
  7  8  2  0
  7  9  1  0
  9 10  1  0
 10 11  1  0
  3 12  1  0
 12 13  2  0
 13 14  1  0
 14 15  2  0
 14 16  1  0
 16 17  1  0
 17 18  1  0
 18 19  1  0
 19 20  1  0
 20 21  2  0
 20 22  1  0
 22 23  2  0
 23 24  1  0
 24 25  2  0
 25 26  1  0
 26 27  2  0
 19 28  1  0
 28 29  1  0
 13 30  1  0
 30 31  1  0
 31 32  1  0
 32 33  2  0
 32 34  1  0
 34 35  1  0
 34 36  1  0
 30  2  1  0
 10  5  2  0
 29 16  1  0
 27 22  1  0
M  CHG  3   6  -1   9  -1  11  -1
M  END
>  <UniqueID>  (2469) 
61

>  <SMILES>  (2469) 
C=c1c(=Cc2[n-]c(=O)[n-]c2[O-])cc(C(=O)N2CCN(C(=O)c3ccccc3)CC2)n1CC(=O)N(C)C

>  <Energy>  (2469) 
141.7054485980292

>  <Genealogy>  (2469) 
C=c1c(=Cc2[n-]c(=O)[n-]c2[O-])cc(C(=O)N2CCN(C(=O)c3ccccc3)CC2)n1CC(=O)N(C)C (protonated)
C=c1c(=Cc2[n-]c(=O)[n-]c2[O-])cc(C(=O)N2CCN(C(=O)c3ccccc3)CC2)n1CC(=O)N(C)C (3D coordinates assigned)
C=c1c(=Cc2[n-]c(=O)[n-]c2[O-])cc(C(=O)N2CCN(C(=O)c3ccccc3)CC2)n1CC(=O)N(C)C (nonaromatic ring conformer: 141.7054485980292 kcal/mol)

>  <smiles>  (2469) 
C=c1c(=Cc2[nH]c(=O)[nH]c2O)cc(C(=O)N2CCN(C(=O)c3ccccc3)CC2)n1CC(=O)N(C)C

>  <score_type>  (2469) 
oracle

>  <origin>  (2469) 
adg

>  <m_score__min__energy>  (2469) 
-17.25

>  <m_primary>  (2469) 
energy

$$$$
64:0
     RDKit          3D

 30 32  0  0  0  0  0  0  0  0999 V2000
   59.8310   34.1620   51.2930 N   0  0  0  0  0  0  0  0  0  0  0  0
   59.7710   33.7840   49.6070 S   0  0  0  0  0  0  0  0  0  0  0  0
   58.8200   32.6390   49.3950 O   0  0  0  0  0  0  0  0  0  0  0  0
   59.2760   34.9940   48.8680 O   0  0  0  0  0  0  0  0  0  0  0  0
   61.3760   33.3420   49.0000 C   0  0  0  0  0  0  0  0  0  0  0  0
   62.5180   33.7630   49.7010 C   0  0  0  0  0  0  0  0  0  0  0  0
   63.7950   33.4610   49.2220 C   0  0  0  0  0  0  0  0  0  0  0  0
   63.9470   32.7400   48.0380 C   0  0  0  0  0  0  0  0  0  0  0  0
   62.8230   32.3120   47.3310 C   0  0  0  0  0  0  0  0  0  0  0  0
   61.5330   32.5990   47.8050 C   0  0  0  0  0  0  0  0  0  0  0  0
   60.3730   32.1150   47.0340 C   0  0  0  0  0  0  0  0  0  0  0  0
   59.6170   33.0090   46.2630 C   0  0  0  0  0  0  0  0  0  0  0  0
   58.5030   32.5540   45.5530 C   0  0  0  0  0  0  0  0  0  0  0  0
   58.1260   31.2070   45.6130 C   0  0  0  0  0  0  0  0  0  0  0  0
   56.9750   30.7740   44.8770 N   0  0  0  0  0  0  0  0  0  0  0  0
   56.3970   29.4580   44.8810 C   0  0  0  0  0  0  0  0  0  0  0  0
   55.1430   29.3500   44.8400 O   0  0  0  0  0  0  0  0  0  0  0  0
   57.2290   28.2100   44.9740 C   0  0  0  0  0  0  0  0  0  0  0  0
   56.7470   27.3580   46.0530 N   0  0  0  0  0  0  0  0  0  0  0  0
   56.0880   26.1120   45.8230 C   0  0  0  0  0  0  0  0  0  0  0  0
   54.8390   26.0250   45.9690 O   0  0  0  0  0  0  0  0  0  0  0  0
   56.8810   24.9590   45.5020 N   0  0  0  0  0  0  0  0  0  0  0  0
   56.5550   23.9000   44.8130 C   0  0  0  0  0  0  0  0  0  0  0  0
   56.4890   23.8790   43.4030 C   0  0  0  0  0  0  0  0  0  0  0  0
   56.1570   22.6930   42.7440 C   0  0  0  0  0  0  0  0  0  0  0  0
   55.9080   21.5620   43.4550 N   0  0  0  0  0  0  0  0  0  0  0  0
   55.9750   21.5470   44.8120 C   0  0  0  0  0  0  0  0  0  0  0  0
   56.3050   22.7100   45.5110 C   0  0  0  0  0  0  0  0  0  0  0  0
   58.9180   30.3020   46.3390 C   0  0  0  0  0  0  0  0  0  0  0  0
   60.0300   30.7560   47.0520 C   0  0  0  0  0  0  0  0  0  0  0  0
  1  2  1  0
  2  3  2  0
  2  4  2  0
  2  5  1  0
  5  6  2  0
  6  7  1  0
  7  8  2  0
  8  9  1  0
  9 10  2  0
 10 11  1  0
 11 12  2  0
 12 13  1  0
 13 14  2  0
 14 15  1  0
 15 16  1  0
 16 17  2  0
 16 18  1  0
 18 19  1  0
 19 20  1  0
 20 21  2  0
 20 22  1  0
 22 23  2  3
 23 24  1  0
 24 25  2  0
 25 26  1  0
 26 27  1  0
 27 28  2  0
 14 29  1  0
 29 30  2  0
 10  5  1  0
 30 11  1  0
 28 23  1  0
M  CHG  4   1  -1  15  -1  19  -1  26  -1
M  END
>  <UniqueID>  (2470) 
63

>  <SMILES>  (2470) 
[NH-]S(=O)(=O)c1ccccc1-c1ccc([N-]C(=O)C[N-]C(=O)N=c2cc[n-]cc2)cc1

>  <Energy>  (2470) 
63.02536683414149

>  <Genealogy>  (2470) 
[NH-]S(=O)(=O)c1ccccc1-c1ccc([N-]C(=O)C[N-]C(=O)N=c2cc[n-]cc2)cc1 (protonated)
[NH-]S(=O)(=O)c1ccccc1-c1ccc([N-]C(=O)C[N-]C(=O)N=c2cc[n-]cc2)cc1 (3D coordinates assigned)
[NH-]S(=O)(=O)c1ccccc1-c1ccc([N-]C(=O)C[N-]C(=O)N=c2cc[n-]cc2)cc1 (optimized conformer: 63.02536683414149 kcal/mol)

>  <smiles>  (2470) 
NS(=O)(=O)c1ccccc1-c1ccc(NC(=O)CNC(=O)N=c2cc[nH]cc2)cc1

>  <score_type>  (2470) 
oracle

>  <origin>  (2470) 
adg

>  <m_score__min__energy>  (2470) 
-15.83

>  <m_primary>  (2470) 
energy

$$$$
66:0
     RDKit          3D

 26 28  0  0  0  0  0  0  0  0999 V2000
   56.9830   29.9630   43.6110 C   0  0  0  0  0  0  0  0  0  0  0  0
   57.4380   30.6010   44.7020 C   0  0  0  0  0  0  0  0  0  0  0  0
   57.0230   31.8810   44.8620 N   0  0  0  0  0  0  0  0  0  0  0  0
   57.4280   32.6640   45.8830 C   0  0  0  0  0  0  0  0  0  0  0  0
   56.9910   33.8450   45.9520 O   0  0  0  0  0  0  0  0  0  0  0  0
   58.2910   32.1770   46.8240 N   0  0  0  0  0  0  0  0  0  0  0  0
   58.6990   33.0240   47.9680 C   0  0  0  0  0  0  0  0  0  0  0  0
   59.5300   34.2310   47.5080 C   0  0  0  0  0  0  0  0  0  0  0  0
   61.0090   33.9680   47.6200 C   0  0  0  0  0  0  0  0  0  0  0  0
   61.7960   33.8400   46.4620 C   0  0  0  0  0  0  0  0  0  0  0  0
   63.1590   33.5500   46.5670 C   0  0  0  0  0  0  0  0  0  0  0  0
   63.7450   33.3810   47.8250 C   0  0  0  0  0  0  0  0  0  0  0  0
   62.9670   33.4980   48.9800 C   0  0  0  0  0  0  0  0  0  0  0  0
   61.6020   33.7870   48.8800 C   0  0  0  0  0  0  0  0  0  0  0  0
   58.7360   30.8800   46.7400 C   0  0  0  0  0  0  0  0  0  0  0  0
   59.4630   30.4270   47.6670 O   0  0  0  0  0  0  0  0  0  0  0  0
   58.3450   30.0390   45.6540 C   0  0  0  0  0  0  0  0  0  0  0  0
   58.7740   28.7460   45.5510 C   0  0  0  0  0  0  0  0  0  0  0  0
   58.0020   27.5400   45.9220 C   0  0  0  0  0  0  0  0  0  0  0  0
   56.6120   27.5000   45.7180 C   0  0  0  0  0  0  0  0  0  0  0  0
   55.8730   26.3800   46.1150 C   0  0  0  0  0  0  0  0  0  0  0  0
   54.5010   26.3390   45.8960 O   0  0  0  0  0  0  0  0  0  0  0  0
   56.5140   25.3030   46.7350 C   0  0  0  0  0  0  0  0  0  0  0  0
   57.8920   25.3480   46.9660 C   0  0  0  0  0  0  0  0  0  0  0  0
   58.6370   26.4650   46.5700 C   0  0  0  0  0  0  0  0  0  0  0  0
   60.0060   26.4960   46.8160 O   0  0  0  0  0  0  0  0  0  0  0  0
  1  2  2  0
  2  3  1  0
  3  4  1  0
  4  5  2  0
  4  6  1  0
  6  7  1  0
  7  8  1  0
  8  9  1  0
  9 10  2  0
 10 11  1  0
 11 12  2  0
 12 13  1  0
 13 14  2  0
  6 15  1  0
 15 16  2  0
 15 17  1  0
 17 18  2  0
 18 19  1  0
 19 20  2  0
 20 21  1  0
 21 22  1  0
 21 23  2  0
 23 24  1  0
 24 25  2  0
 25 26  1  0
 17  2  1  0
 25 19  1  0
 14  9  1  0
M  CHG  3   3  -1  22  -1  26  -1
M  END
>  <UniqueID>  (2471) 
65

>  <SMILES>  (2471) 
C=c1[n-]c(=O)n(CCc2ccccc2)c(=O)/c1=C\c1cc([O-])ccc1[O-]

>  <Energy>  (2471) 
66.04434221812456

>  <Genealogy>  (2471) 
C=c1[n-]c(=O)n(CCc2ccccc2)c(=O)c1=Cc1cc([O-])ccc1[O-] (protonated)
C=c1[n-]c(=O)n(CCc2ccccc2)c(=O)/c1=C\c1cc([O-])ccc1[O-] (cis-trans isomerization)
C=c1[n-]c(=O)n(CCc2ccccc2)c(=O)/c1=C\c1cc([O-])ccc1[O-] (3D coordinates assigned)
C=c1[n-]c(=O)n(CCc2ccccc2)c(=O)/c1=C\c1cc([O-])ccc1[O-] (optimized conformer: 66.04434221812456 kcal/mol)

>  <smiles>  (2471) 
C=c1[nH]c(=O)n(CCc2ccccc2)c(=O)c1=Cc1cc(O)ccc1O

>  <score_type>  (2471) 
oracle

>  <origin>  (2471) 
adg

>  <m_score__min__energy>  (2471) 
-14.9

>  <m_primary>  (2471) 
energy

$$$$
75:0
     RDKit          3D

 29 31  0  0  0  0  0  0  0  0999 V2000
   54.4020   30.0450   55.1300 C   0  0  0  0  0  0  0  0  0  0  0  0
   54.8320   30.2040   53.8680 C   0  0  0  0  0  0  0  0  0  0  0  0
   54.1320   30.8110   52.8140 C   0  0  0  0  0  0  0  0  0  0  0  0
   52.8320   31.1450   52.6920 C   0  0  0  0  0  0  0  0  0  0  0  0
   52.0650   31.1670   51.4310 C   0  0  0  0  0  0  0  0  0  0  0  0
   52.1550   30.2380   50.4600 N   0  0  0  0  0  0  0  0  0  0  0  0
   51.3960   30.7510   49.4660 C   0  0  0  0  0  0  0  0  0  0  0  0
   51.2230   30.1570   48.3690 O   0  0  0  0  0  0  0  0  0  0  0  0
   50.8590   31.9610   49.7300 N   0  0  0  0  0  0  0  0  0  0  0  0
   51.3040   32.2150   50.9730 C   0  0  0  0  0  0  0  0  0  0  0  0
   51.0280   33.3850   51.6690 O   0  0  0  0  0  0  0  0  0  0  0  0
   55.0580   31.0260   51.8090 C   0  0  0  0  0  0  0  0  0  0  0  0
   56.2560   30.4790   52.2350 C   0  0  0  0  0  0  0  0  0  0  0  0
   57.5450   30.5480   51.4960 C   0  0  0  0  0  0  0  0  0  0  0  0
   57.7520   29.7000   50.5860 O   0  0  0  0  0  0  0  0  0  0  0  0
   58.5900   31.5060   51.8030 N   0  0  0  0  0  0  0  0  0  0  0  0
   58.0490   32.8830   51.8220 C   0  0  0  0  0  0  0  0  0  0  0  0
   59.1520   33.9600   51.6830 C   0  0  0  0  0  0  0  0  0  0  0  0
   60.4740   33.4900   52.1480 N   0  0  0  0  0  0  0  0  0  0  0  0
   60.5580   33.3860   53.6250 C   0  0  0  0  0  0  0  0  0  0  0  0
   59.5030   34.2920   54.2770 C   0  0  0  0  0  0  0  0  0  0  0  0
   58.9670   33.6890   55.5820 C   0  0  0  0  0  0  0  0  0  0  0  0
   58.6140   32.2640   55.3850 N   0  0  0  0  0  0  0  0  0  0  0  0
   59.6910   31.3840   55.8710 C   0  0  0  0  0  0  0  0  0  0  0  0
   57.3510   31.9330   56.0680 C   0  0  0  0  0  0  0  0  0  0  0  0
   60.9250   32.2710   51.4240 C   0  0  0  0  0  0  0  0  0  0  0  0
   59.7640   31.3890   50.9160 C   0  0  0  0  0  0  0  0  0  0  0  0
   56.1100   29.9560   53.4770 N   0  0  0  0  0  0  0  0  0  0  0  0
   57.1750   29.3450   54.2850 C   0  0  0  0  0  0  0  0  0  0  0  0
  1  2  2  0
  2  3  1  0
  3  4  2  0
  4  5  1  0
  5  6  1  0
  6  7  1  0
  7  8  2  0
  7  9  1  0
  9 10  1  0
 10 11  1  0
  3 12  1  0
 12 13  2  0
 13 14  1  0
 14 15  2  0
 14 16  1  0
 16 17  1  0
 17 18  1  0
 18 19  1  0
 19 20  1  0
 20 21  1  0
 21 22  1  0
 22 23  1  0
 23 24  1  0
 23 25  1  0
 19 26  1  0
 26 27  1  0
 13 28  1  0
 28 29  1  0
 28  2  1  0
 10  5  2  0
 27 16  1  0
M  CHG  4   6  -1   9  -1  11  -1  16   1
M  END
>  <UniqueID>  (2472) 
74

>  <SMILES>  (2472) 
C=c1/c(=C\c2[n-]c(=O)[n-]c2[O-])cc(C(=O)[NH+]2CCN(CCCN(C)C)CC2)n1C

>  <Energy>  (2472) 
145.74704406891405

>  <Genealogy>  (2472) 
C=c1c(=Cc2[n-]c(=O)[n-]c2[O-])cc(C(=O)[NH+]2CCN(CCCN(C)C)CC2)n1C (protonated)
C=c1/c(=C\c2[n-]c(=O)[n-]c2[O-])cc(C(=O)[NH+]2CCN(CCCN(C)C)CC2)n1C (cis-trans isomerization)
C=c1/c(=C\c2[n-]c(=O)[n-]c2[O-])cc(C(=O)[NH+]2CCN(CCCN(C)C)CC2)n1C (3D coordinates assigned)
C=c1/c(=C\c2[n-]c(=O)[n-]c2[O-])cc(C(=O)[NH+]2CCN(CCCN(C)C)CC2)n1C (nonaromatic ring conformer: 145.74704406891405 kcal/mol)

>  <smiles>  (2472) 
C=c1c(=Cc2[nH]c(=O)[nH]c2O)cc(C(=O)N2CCN(CCCN(C)C)CC2)n1C

>  <score_type>  (2472) 
oracle

>  <origin>  (2472) 
adg

>  <m_score__min__energy>  (2472) 
-15.69

>  <m_primary>  (2472) 
energy

$$$$
3:0
     RDKit          3D

 23 24  0  0  0  0  0  0  0  0999 V2000
   55.0020   29.9110   53.5990 C   0  0  0  0  0  0  0  0  0  0  0  0
   55.9960   29.7610   52.5180 C   0  0  0  0  0  0  0  0  0  0  0  0
   56.6420   28.6830   52.4320 O   0  0  0  0  0  0  0  0  0  0  0  0
   56.1820   30.7870   51.5390 N   0  0  0  0  0  0  0  0  0  0  0  0
   56.9680   31.9960   51.7560 C   0  0  0  0  0  0  0  0  0  0  0  0
   58.4110   31.8210   51.2620 C   0  0  0  0  0  0  0  0  0  0  0  0
   58.7370   32.6650   50.0190 C   0  0  0  0  0  0  0  0  0  0  0  0
   58.7870   31.8470   48.8030 N   0  0  0  0  0  0  0  0  0  0  0  0
   58.5520   32.2210   47.5240 C   0  0  0  0  0  0  0  0  0  0  0  0
   58.0770   33.5800   47.0960 C   0  0  0  0  0  0  0  0  0  0  0  0
   59.2540   34.5360   46.9450 C   0  0  0  0  0  0  0  0  0  0  0  0
   58.6780   31.1950   46.6550 N   0  0  0  0  0  0  0  0  0  0  0  0
   59.0210   30.1440   47.4250 C   0  0  0  0  0  0  0  0  0  0  0  0
   59.0840   30.5370   48.7420 C   0  0  0  0  0  0  0  0  0  0  0  0
   53.6680   29.8640   53.4520 C   0  0  0  0  0  0  0  0  0  0  0  0
   52.8960   30.5620   52.4030 C   0  0  0  0  0  0  0  0  0  0  0  0
   52.8570   30.0260   51.1070 C   0  0  0  0  0  0  0  0  0  0  0  0
   52.1130   30.6580   50.1060 C   0  0  0  0  0  0  0  0  0  0  0  0
   51.3800   31.8120   50.3970 C   0  0  0  0  0  0  0  0  0  0  0  0
   50.6460   32.4360   49.3940 O   0  0  0  0  0  0  0  0  0  0  0  0
   51.3830   32.3310   51.6970 C   0  0  0  0  0  0  0  0  0  0  0  0
   50.6430   33.4700   51.9960 O   0  0  0  0  0  0  0  0  0  0  0  0
   52.1270   31.7010   52.7000 C   0  0  0  0  0  0  0  0  0  0  0  0
  1  2  1  0
  2  3  2  0
  2  4  1  0
  4  5  1  0
  5  6  1  0
  6  7  1  0
  7  8  1  0
  8  9  1  0
  9 10  1  0
 10 11  1  0
  9 12  2  0
 12 13  1  0
 13 14  2  0
  1 15  2  0
 15 16  1  0
 16 17  2  0
 17 18  1  0
 18 19  2  0
 19 20  1  0
 19 21  1  0
 21 22  1  0
 21 23  2  0
 14  8  1  0
 23 16  1  0
M  CHG  3   4  -1  20  -1  22  -1
M  END
>  <UniqueID>  (2473) 
4

>  <SMILES>  (2473) 
CCc1nccn1CCC[N-]C(=O)/C=C\c1ccc([O-])c([O-])c1

>  <Energy>  (2473) 
65.31063774847178

>  <Genealogy>  (2473) 
CCc1nccn1CCC[N-]C(=O)C=Cc1ccc([O-])c([O-])c1 (protonated)
CCc1nccn1CCC[N-]C(=O)/C=C\c1ccc([O-])c([O-])c1 (cis-trans isomerization)
CCc1nccn1CCC[N-]C(=O)/C=C\c1ccc([O-])c([O-])c1 (3D coordinates assigned)
CCc1nccn1CCC[N-]C(=O)/C=C\c1ccc([O-])c([O-])c1 (optimized conformer: 65.31063774847178 kcal/mol)

>  <smiles>  (2473) 
CCc1nccn1CCCNC(=O)C=Cc1ccc(O)c(O)c1

>  <score_type>  (2473) 
oracle

>  <origin>  (2473) 
adg

>  <m_score__min__energy>  (2473) 
-16.59

>  <m_primary>  (2473) 
energy

$$$$
6:0
     RDKit          3D

 32 35  0  0  0  0  0  0  0  0999 V2000
   55.7540   28.9880   45.2850 O   0  0  0  0  0  0  0  0  0  0  0  0
   56.2690   27.7150   45.5140 C   0  0  0  0  0  0  0  0  0  0  0  0
   55.4570   26.7370   45.9960 N   0  0  0  0  0  0  0  0  0  0  0  0
   55.9330   25.4930   46.2560 C   0  0  0  0  0  0  0  0  0  0  0  0
   55.1600   24.6040   46.6980 O   0  0  0  0  0  0  0  0  0  0  0  0
   57.2430   25.2100   46.0460 N   0  0  0  0  0  0  0  0  0  0  0  0
   58.0970   26.1500   45.5640 C   0  0  0  0  0  0  0  0  0  0  0  0
   59.3080   25.8520   45.3850 O   0  0  0  0  0  0  0  0  0  0  0  0
   57.6230   27.4370   45.2620 C   0  0  0  0  0  0  0  0  0  0  0  0
   58.5490   28.4860   44.7710 C   0  0  0  0  0  0  0  0  0  0  0  0
   58.8310   29.6430   45.4300 C   0  0  0  0  0  0  0  0  0  0  0  0
   59.6580   29.6070   46.5780 C   0  0  0  0  0  0  0  0  0  0  0  0
   59.9430   30.7580   47.3080 C   0  0  0  0  0  0  0  0  0  0  0  0
   59.4180   31.9930   46.9240 C   0  0  0  0  0  0  0  0  0  0  0  0
   59.7080   33.2140   47.7130 C   0  0  0  0  0  0  0  0  0  0  0  0
   58.7550   33.8450   48.2440 O   0  0  0  0  0  0  0  0  0  0  0  0
   61.0560   33.6800   47.9080 N   0  0  0  0  0  0  0  0  0  0  0  0
   61.9810   33.8010   46.7770 C   0  0  0  0  0  0  0  0  0  0  0  0
   63.3980   33.3310   47.1700 C   0  0  0  0  0  0  0  0  0  0  0  0
   63.7030   33.4630   48.6200 N   0  0  0  0  0  0  0  0  0  0  0  0
   63.5900   32.1700   49.3330 C   0  0  0  0  0  0  0  0  0  0  0  0
   64.8280   31.8850   50.1440 C   0  0  0  0  0  0  0  0  0  0  0  0
   64.8590   30.8070   51.0450 C   0  0  0  0  0  0  0  0  0  0  0  0
   66.0060   30.5600   51.8070 C   0  0  0  0  0  0  0  0  0  0  0  0
   67.1250   31.3850   51.6750 C   0  0  0  0  0  0  0  0  0  0  0  0
   67.1000   32.4610   50.7830 C   0  0  0  0  0  0  0  0  0  0  0  0
   65.9560   32.7120   50.0200 C   0  0  0  0  0  0  0  0  0  0  0  0
   62.9340   34.5560   49.2580 C   0  0  0  0  0  0  0  0  0  0  0  0
   61.4170   34.3080   49.1820 C   0  0  0  0  0  0  0  0  0  0  0  0
   58.5840   32.0580   45.8020 C   0  0  0  0  0  0  0  0  0  0  0  0
   58.2860   30.9110   45.0340 C   0  0  0  0  0  0  0  0  0  0  0  0
   57.5180   31.0900   43.9400 C   0  0  0  0  0  0  0  0  0  0  0  0
  1  2  1  0
  2  3  1  0
  3  4  1  0
  4  5  2  0
  4  6  1  0
  6  7  1  0
  7  8  2  0
  7  9  1  0
  9 10  1  0
 10 11  2  0
 11 12  1  0
 12 13  2  0
 13 14  1  0
 14 15  1  0
 15 16  2  0
 15 17  1  0
 17 18  1  0
 18 19  1  0
 19 20  1  0
 20 21  1  0
 21 22  1  0
 22 23  2  0
 23 24  1  0
 24 25  2  0
 25 26  1  0
 26 27  2  0
 20 28  1  0
 28 29  1  0
 14 30  2  0
 30 31  1  0
 31 32  2  0
  9  2  2  0
 31 11  1  0
 29 17  1  0
 27 22  1  0
M  CHG  2   3  -1   6  -1
M  END
>  <UniqueID>  (2474) 
7

>  <SMILES>  (2474) 
C=c1cc(C(=O)N2CCN(Cc3ccccc3)CC2)cc/c1=C\c1c(O)[n-]c(=O)[n-]c1=O

>  <Energy>  (2474) 
89.65264200986314

>  <Genealogy>  (2474) 
C=c1cc(C(=O)N2CCN(Cc3ccccc3)CC2)ccc1=Cc1c(O)[n-]c(=O)[n-]c1=O (protonated)
C=c1cc(C(=O)N2CCN(Cc3ccccc3)CC2)cc/c1=C\c1c(O)[n-]c(=O)[n-]c1=O (cis-trans isomerization)
C=c1cc(C(=O)N2CCN(Cc3ccccc3)CC2)cc/c1=C\c1c(O)[n-]c(=O)[n-]c1=O (3D coordinates assigned)
C=c1cc(C(=O)N2CCN(Cc3ccccc3)CC2)cc/c1=C\c1c(O)[n-]c(=O)[n-]c1=O (nonaromatic ring conformer: 89.65264200986314 kcal/mol)

>  <smiles>  (2474) 
C=c1cc(C(=O)N2CCN(Cc3ccccc3)CC2)ccc1=Cc1c(O)[nH]c(=O)[nH]c1=O

>  <score_type>  (2474) 
oracle

>  <origin>  (2474) 
adg

>  <m_score__min__energy>  (2474) 
-14.279999999999999

>  <m_primary>  (2474) 
energy

$$$$
7:0
     RDKit          3D

 37 40  0  0  0  0  0  0  0  0999 V2000
   58.6640   23.3240   45.8100 C   0  0  0  0  0  0  0  0  0  0  0  0
   58.4000   24.5940   45.4680 C   0  0  0  0  0  0  0  0  0  0  0  0
   57.4090   25.0280   44.5730 C   0  0  0  0  0  0  0  0  0  0  0  0
   56.3610   24.3750   44.0380 C   0  0  0  0  0  0  0  0  0  0  0  0
   55.0740   24.1360   44.7120 C   0  0  0  0  0  0  0  0  0  0  0  0
   54.2770   23.0880   44.4430 N   0  0  0  0  0  0  0  0  0  0  0  0
   53.1710   23.3400   45.1760 C   0  0  0  0  0  0  0  0  0  0  0  0
   52.1840   22.5560   45.2070 O   0  0  0  0  0  0  0  0  0  0  0  0
   53.2000   24.4970   45.8690 N   0  0  0  0  0  0  0  0  0  0  0  0
   54.4060   24.9990   45.5540 C   0  0  0  0  0  0  0  0  0  0  0  0
   54.8750   26.2320   45.9980 O   0  0  0  0  0  0  0  0  0  0  0  0
   57.6810   26.3560   44.3090 C   0  0  0  0  0  0  0  0  0  0  0  0
   58.7540   26.7130   45.1030 C   0  0  0  0  0  0  0  0  0  0  0  0
   59.3870   28.0490   45.0820 C   0  0  0  0  0  0  0  0  0  0  0  0
   60.1330   28.3650   44.1180 O   0  0  0  0  0  0  0  0  0  0  0  0
   59.1370   29.0050   46.1320 N   0  0  0  0  0  0  0  0  0  0  0  0
   58.9390   30.4200   45.8050 C   0  0  0  0  0  0  0  0  0  0  0  0
   59.8650   31.3050   46.6520 C   0  0  0  0  0  0  0  0  0  0  0  0
   59.9410   30.8820   48.1500 C   0  0  0  0  0  0  0  0  0  0  0  0
   59.7640   32.0930   49.0610 C   0  0  0  0  0  0  0  0  0  0  0  0
   58.9450   32.0200   50.0220 O   0  0  0  0  0  0  0  0  0  0  0  0
   60.4940   33.3310   48.8340 N   0  0  0  0  0  0  0  0  0  0  0  0
   59.7200   34.5250   48.4190 C   0  0  0  0  0  0  0  0  0  0  0  0
   59.0330   34.2900   47.0950 C   0  0  0  0  0  0  0  0  0  0  0  0
   57.7540   33.7090   47.0540 C   0  0  0  0  0  0  0  0  0  0  0  0
   57.1210   33.4840   45.8290 C   0  0  0  0  0  0  0  0  0  0  0  0
   57.7540   33.8450   44.6340 C   0  0  0  0  0  0  0  0  0  0  0  0
   59.0110   34.4530   44.6680 C   0  0  0  0  0  0  0  0  0  0  0  0
   59.6480   34.6770   45.8910 C   0  0  0  0  0  0  0  0  0  0  0  0
   61.9950   33.3190   48.8380 C   0  0  0  0  0  0  0  0  0  0  0  0
   62.5080   32.0420   49.5460 C   0  0  0  0  0  0  0  0  0  0  0  0
   62.6010   34.5260   49.6030 C   0  0  0  0  0  0  0  0  0  0  0  0
   62.5350   33.3680   47.3860 C   0  0  0  0  0  0  0  0  0  0  0  0
   58.9450   29.7520   48.4930 C   0  0  0  0  0  0  0  0  0  0  0  0
   59.1120   28.5660   47.5380 C   0  0  0  0  0  0  0  0  0  0  0  0
   59.1810   25.6470   45.8240 N   0  0  0  0  0  0  0  0  0  0  0  0
   60.3380   25.6240   46.7280 C   0  0  0  0  0  0  0  0  0  0  0  0
  1  2  2  0
  2  3  1  0
  3  4  2  3
  4  5  1  0
  5  6  1  0
  6  7  1  0
  7  8  2  0
  7  9  1  0
  9 10  1  0
 10 11  1  0
  3 12  1  0
 12 13  2  0
 13 14  1  0
 14 15  2  0
 14 16  1  0
 16 17  1  0
 17 18  1  0
 18 19  1  0
 19 20  1  0
 20 21  2  0
 20 22  1  0
 22 23  1  0
 23 24  1  0
 24 25  2  0
 25 26  1  0
 26 27  2  0
 27 28  1  0
 28 29  2  0
 22 30  1  0
 30 31  1  0
 30 32  1  0
 30 33  1  0
 19 34  1  0
 34 35  1  0
 13 36  1  0
 36 37  1  0
 36  2  1  0
 10  5  2  0
 35 16  1  0
 29 24  1  0
M  CHG  2   6  -1   9  -1
M  END
>  <UniqueID>  (2475) 
8

>  <SMILES>  (2475) 
C=c1c(=Cc2[n-]c(=O)[n-]c2O)cc(C(=O)N2CCC(C(=O)N(Cc3ccccc3)C(C)(C)C)CC2)n1C

>  <Energy>  (2475) 
155.6099058486422

>  <Genealogy>  (2475) 
C=c1c(=Cc2[n-]c(=O)[n-]c2O)cc(C(=O)N2CCC(C(=O)N(Cc3ccccc3)C(C)(C)C)CC2)n1C (protonated)
C=c1c(=Cc2[n-]c(=O)[n-]c2O)cc(C(=O)N2CCC(C(=O)N(Cc3ccccc3)C(C)(C)C)CC2)n1C (3D coordinates assigned)
C=c1c(=Cc2[n-]c(=O)[n-]c2O)cc(C(=O)N2CCC(C(=O)N(Cc3ccccc3)C(C)(C)C)CC2)n1C (nonaromatic ring conformer: 155.6099058486422 kcal/mol)

>  <smiles>  (2475) 
C=c1c(=Cc2[nH]c(=O)[nH]c2O)cc(C(=O)N2CCC(C(=O)N(Cc3ccccc3)C(C)(C)C)CC2)n1C

>  <score_type>  (2475) 
oracle

>  <origin>  (2475) 
adg

>  <m_score__min__energy>  (2475) 
-15.24

>  <m_primary>  (2475) 
energy

$$$$
28:0
     RDKit          3D

 28 31  0  0  0  0  0  0  0  0999 V2000
   60.2990   29.3390   44.8860 C   0  0  0  0  0  0  0  0  0  0  0  0
   59.7390   29.2210   46.1010 C   0  0  0  0  0  0  0  0  0  0  0  0
   58.8420   28.2270   46.5150 C   0  0  0  0  0  0  0  0  0  0  0  0
   58.4040   27.1780   45.7840 C   0  0  0  0  0  0  0  0  0  0  0  0
   57.0940   26.5040   45.9300 C   0  0  0  0  0  0  0  0  0  0  0  0
   56.8940   25.2410   46.3460 N   0  0  0  0  0  0  0  0  0  0  0  0
   55.5510   25.1090   46.3290 C   0  0  0  0  0  0  0  0  0  0  0  0
   54.9690   24.0430   46.6590 O   0  0  0  0  0  0  0  0  0  0  0  0
   54.8790   26.2110   45.9320 N   0  0  0  0  0  0  0  0  0  0  0  0
   55.8700   27.0840   45.6860 C   0  0  0  0  0  0  0  0  0  0  0  0
   55.6590   28.3860   45.2490 O   0  0  0  0  0  0  0  0  0  0  0  0
   58.5070   28.5370   47.8310 C   0  0  0  0  0  0  0  0  0  0  0  0
   59.2080   29.6790   48.1620 C   0  0  0  0  0  0  0  0  0  0  0  0
   59.1540   30.3610   49.4950 C   0  0  0  0  0  0  0  0  0  0  0  0
   59.9550   30.0940   47.1160 N   0  0  0  0  0  0  0  0  0  0  0  0
   60.8170   31.2440   47.1100 C   0  0  0  0  0  0  0  0  0  0  0  0
   62.1760   31.0860   47.4220 C   0  0  0  0  0  0  0  0  0  0  0  0
   63.0270   32.1920   47.4580 C   0  0  0  0  0  0  0  0  0  0  0  0
   62.5270   33.4660   47.1850 C   0  0  0  0  0  0  0  0  0  0  0  0
   61.1780   33.6370   46.8700 C   0  0  0  0  0  0  0  0  0  0  0  0
   60.3120   32.5310   46.8230 C   0  0  0  0  0  0  0  0  0  0  0  0
   58.9330   32.7250   46.4590 N   0  0  0  0  0  0  0  0  0  0  0  0
   58.1680   31.6260   45.8610 C   0  0  0  0  0  0  0  0  0  0  0  0
   57.0130   32.1730   45.0050 C   0  0  0  0  0  0  0  0  0  0  0  0
   57.4120   33.3800   44.2500 N   0  0  0  0  0  0  0  0  0  0  0  0
   58.3980   33.0700   43.2010 C   0  0  0  0  0  0  0  0  0  0  0  0
   57.8610   34.5000   45.1200 C   0  0  0  0  0  0  0  0  0  0  0  0
   58.3300   34.0570   46.5190 C   0  0  0  0  0  0  0  0  0  0  0  0
  1  2  2  0
  2  3  1  0
  3  4  2  3
  4  5  1  0
  5  6  1  0
  6  7  1  0
  7  8  2  0
  7  9  1  0
  9 10  1  0
 10 11  1  0
  3 12  1  0
 12 13  2  0
 13 14  1  0
 13 15  1  0
 15 16  1  0
 16 17  2  0
 17 18  1  0
 18 19  2  0
 19 20  1  0
 20 21  2  0
 21 22  1  0
 22 23  1  0
 23 24  1  0
 24 25  1  0
 25 26  1  0
 25 27  1  0
 27 28  1  0
 15  2  1  0
 21 16  1  0
 28 22  1  0
 10  5  2  0
M  CHG  3   6  -1   9  -1  11  -1
M  END
>  <UniqueID>  (2476) 
27

>  <SMILES>  (2476) 
C=c1c(=Cc2[n-]c(=O)[n-]c2[O-])cc(C)n1-c1ccccc1N1CCN(C)CC1

>  <Energy>  (2476) 
131.57429393566022

>  <Genealogy>  (2476) 
C=c1c(=Cc2[n-]c(=O)[n-]c2[O-])cc(C)n1-c1ccccc1N1CCN(C)CC1 (protonated)
C=c1c(=Cc2[n-]c(=O)[n-]c2[O-])cc(C)n1-c1ccccc1N1CCN(C)CC1 (3D coordinates assigned)
C=c1c(=Cc2[n-]c(=O)[n-]c2[O-])cc(C)n1-c1ccccc1N1CCN(C)CC1 (nonaromatic ring conformer: 131.57429393566022 kcal/mol)

>  <smiles>  (2476) 
C=c1c(=Cc2[nH]c(=O)[nH]c2O)cc(C)n1-c1ccccc1N1CCN(C)CC1

>  <score_type>  (2476) 
oracle

>  <origin>  (2476) 
adg

>  <m_score__min__energy>  (2476) 
-16.07

>  <m_primary>  (2476) 
energy

$$$$
30:0
     RDKit          3D

 31 34  0  0  0  0  0  0  0  0999 V2000
   57.7220   25.7700   42.9340 C   0  0  0  0  0  0  0  0  0  0  0  0
   57.8750   25.8970   44.2650 C   0  0  0  0  0  0  0  0  0  0  0  0
   57.3490   25.0320   45.2330 C   0  0  0  0  0  0  0  0  0  0  0  0
   56.5550   23.9610   45.0300 C   0  0  0  0  0  0  0  0  0  0  0  0
   55.0840   24.0050   45.0970 C   0  0  0  0  0  0  0  0  0  0  0  0
   54.3010   22.9400   44.8560 N   0  0  0  0  0  0  0  0  0  0  0  0
   53.0560   23.4010   45.1080 C   0  0  0  0  0  0  0  0  0  0  0  0
   52.0290   22.6870   44.9800 O   0  0  0  0  0  0  0  0  0  0  0  0
   52.9990   24.6850   45.5220 N   0  0  0  0  0  0  0  0  0  0  0  0
   54.2940   25.0500   45.5220 C   0  0  0  0  0  0  0  0  0  0  0  0
   54.7430   26.2950   45.9500 O   0  0  0  0  0  0  0  0  0  0  0  0
   57.7630   25.5240   46.4630 C   0  0  0  0  0  0  0  0  0  0  0  0
   58.5240   26.6470   46.2060 C   0  0  0  0  0  0  0  0  0  0  0  0
   59.1490   27.5040   47.2640 C   0  0  0  0  0  0  0  0  0  0  0  0
   58.5940   26.8810   44.8730 N   0  0  0  0  0  0  0  0  0  0  0  0
   59.3570   27.9740   44.2460 C   0  0  0  0  0  0  0  0  0  0  0  0
   58.8550   29.3130   44.7220 C   0  0  0  0  0  0  0  0  0  0  0  0
   59.5550   30.0260   45.7070 C   0  0  0  0  0  0  0  0  0  0  0  0
   59.1100   31.2860   46.1190 C   0  0  0  0  0  0  0  0  0  0  0  0
   57.9610   31.8560   45.5480 C   0  0  0  0  0  0  0  0  0  0  0  0
   57.5110   33.2040   45.9710 C   0  0  0  0  0  0  0  0  0  0  0  0
   56.6120   33.7880   45.3120 O   0  0  0  0  0  0  0  0  0  0  0  0
   58.1010   33.8930   47.0870 N   0  0  0  0  0  0  0  0  0  0  0  0
   59.3610   33.8840   47.4200 C   0  0  0  0  0  0  0  0  0  0  0  0
   59.7110   33.8390   48.7750 C   0  0  0  0  0  0  0  0  0  0  0  0
   61.0600   33.8210   49.1350 C   0  0  0  0  0  0  0  0  0  0  0  0
   62.0440   33.8410   48.1450 C   0  0  0  0  0  0  0  0  0  0  0  0
   61.6610   33.8720   46.8030 C   0  0  0  0  0  0  0  0  0  0  0  0
   60.3430   33.8890   46.4730 N   0  0  0  0  0  0  0  0  0  0  0  0
   57.2350   31.1210   44.5950 C   0  0  0  0  0  0  0  0  0  0  0  0
   57.6840   29.8650   44.1800 C   0  0  0  0  0  0  0  0  0  0  0  0
  1  2  2  0
  2  3  1  0
  3  4  2  3
  4  5  1  0
  5  6  1  0
  6  7  1  0
  7  8  2  0
  7  9  1  0
  9 10  1  0
 10 11  1  0
  3 12  1  0
 12 13  2  0
 13 14  1  0
 13 15  1  0
 15 16  1  0
 16 17  1  0
 17 18  2  0
 18 19  1  0
 19 20  2  0
 20 21  1  0
 21 22  2  0
 21 23  1  0
 23 24  2  3
 24 25  1  0
 25 26  2  0
 26 27  1  0
 27 28  2  0
 28 29  1  0
 20 30  1  0
 30 31  2  0
 15  2  1  0
 31 17  1  0
 10  5  2  0
 29 24  1  0
M  CHG  3   6  -1   9  -1  29  -1
M  END
>  <UniqueID>  (2477) 
29

>  <SMILES>  (2477) 
C=c1c(=Cc2[n-]c(=O)[n-]c2O)cc(C)n1Cc1ccc(C(=O)N=c2cccc[n-]2)cc1

>  <Energy>  (2477) 
125.26548561663378

>  <Genealogy>  (2477) 
C=c1c(=Cc2[n-]c(=O)[n-]c2O)cc(C)n1Cc1ccc(C(=O)N=c2cccc[n-]2)cc1 (protonated)
C=c1c(=Cc2[n-]c(=O)[n-]c2O)cc(C)n1Cc1ccc(C(=O)N=c2cccc[n-]2)cc1 (3D coordinates assigned)
C=c1c(=Cc2[n-]c(=O)[n-]c2O)cc(C)n1Cc1ccc(C(=O)N=c2cccc[n-]2)cc1 (optimized conformer: 125.26548561663378 kcal/mol)

>  <smiles>  (2477) 
C=c1c(=Cc2[nH]c(=O)[nH]c2O)cc(C)n1Cc1ccc(C(=O)N=c2cccc[nH]2)cc1

>  <score_type>  (2477) 
oracle

>  <origin>  (2477) 
adg

>  <m_score__min__energy>  (2477) 
-14.59

>  <m_primary>  (2477) 
energy

$$$$
41:0
     RDKit          3D

 24 26  0  0  0  0  0  0  0  0999 V2000
   58.2260   27.2650   43.8330 O   0  0  0  0  0  0  0  0  0  0  0  0
   57.4960   27.3830   44.8540 C   0  0  0  0  0  0  0  0  0  0  0  0
   56.8240   28.6270   45.1130 N   0  0  0  0  0  0  0  0  0  0  0  0
   57.1560   29.8550   44.4420 C   0  0  0  0  0  0  0  0  0  0  0  0
   56.6300   30.1220   43.1660 C   0  0  0  0  0  0  0  0  0  0  0  0
   57.0050   31.2720   42.4690 C   0  0  0  0  0  0  0  0  0  0  0  0
   57.9190   32.1630   43.0300 C   0  0  0  0  0  0  0  0  0  0  0  0
   58.4580   31.9110   44.2920 C   0  0  0  0  0  0  0  0  0  0  0  0
   58.0830   30.7620   45.0140 C   0  0  0  0  0  0  0  0  0  0  0  0
   58.6440   30.5510   46.3700 C   0  0  0  0  0  0  0  0  0  0  0  0
   59.2780   29.3390   46.7000 C   0  0  0  0  0  0  0  0  0  0  0  0
   59.7970   29.1410   47.9820 C   0  0  0  0  0  0  0  0  0  0  0  0
   59.6820   30.1450   48.9480 C   0  0  0  0  0  0  0  0  0  0  0  0
   59.0440   31.3470   48.6320 C   0  0  0  0  0  0  0  0  0  0  0  0
   58.5230   31.5500   47.3510 C   0  0  0  0  0  0  0  0  0  0  0  0
   57.2990   26.2190   45.7520 C   0  0  0  0  0  0  0  0  0  0  0  0
   56.0280   25.9180   46.2770 C   0  0  0  0  0  0  0  0  0  0  0  0
   54.9270   26.7150   45.9820 O   0  0  0  0  0  0  0  0  0  0  0  0
   55.8650   24.8480   47.0970 N   0  0  0  0  0  0  0  0  0  0  0  0
   56.9110   24.0490   47.4250 C   0  0  0  0  0  0  0  0  0  0  0  0
   56.7360   23.0660   48.1890 O   0  0  0  0  0  0  0  0  0  0  0  0
   58.1460   24.3090   46.9270 N   0  0  0  0  0  0  0  0  0  0  0  0
   58.3640   25.3650   46.1000 C   0  0  0  0  0  0  0  0  0  0  0  0
   59.5210   25.5500   45.6370 O   0  0  0  0  0  0  0  0  0  0  0  0
  1  2  2  0
  2  3  1  0
  3  4  1  0
  4  5  2  0
  5  6  1  0
  6  7  2  0
  7  8  1  0
  8  9  2  0
  9 10  1  0
 10 11  2  0
 11 12  1  0
 12 13  2  0
 13 14  1  0
 14 15  2  0
  2 16  1  0
 16 17  2  0
 17 18  1  0
 17 19  1  0
 19 20  1  0
 20 21  2  0
 20 22  1  0
 22 23  1  0
 23 24  2  0
  9  4  1  0
 15 10  1  0
 23 16  1  0
M  CHG  3  18  -1  19  -1  22  -1
M  END
>  <UniqueID>  (2478) 
40

>  <SMILES>  (2478) 
O=C(Nc1ccccc1-c1ccccc1)c1c([O-])[n-]c(=O)[n-]c1=O

>  <Energy>  (2478) 
54.06777819717393

>  <Genealogy>  (2478) 
O=C(Nc1ccccc1-c1ccccc1)c1c([O-])[n-]c(=O)[n-]c1=O (protonated)
O=C(Nc1ccccc1-c1ccccc1)c1c([O-])[n-]c(=O)[n-]c1=O (3D coordinates assigned)
O=C(Nc1ccccc1-c1ccccc1)c1c([O-])[n-]c(=O)[n-]c1=O (optimized conformer: 54.06777819717393 kcal/mol)

>  <smiles>  (2478) 
O=C(Nc1ccccc1-c1ccccc1)c1c(O)[nH]c(=O)[nH]c1=O

>  <score_type>  (2478) 
oracle

>  <origin>  (2478) 
adg

>  <m_score__min__energy>  (2478) 
-15.24

>  <m_primary>  (2478) 
energy

$$$$
45:0
     RDKit          3D

 30 33  0  0  0  0  0  0  0  0999 V2000
   54.2600   29.2380   54.5460 C   0  0  0  0  0  0  0  0  0  0  0  0
   54.8150   29.7840   53.4520 C   0  0  0  0  0  0  0  0  0  0  0  0
   54.2500   30.7560   52.6120 C   0  0  0  0  0  0  0  0  0  0  0  0
   52.9930   31.2330   52.5300 C   0  0  0  0  0  0  0  0  0  0  0  0
   52.1550   31.2390   51.3190 C   0  0  0  0  0  0  0  0  0  0  0  0
   52.2280   30.3290   50.3310 N   0  0  0  0  0  0  0  0  0  0  0  0
   51.3900   30.8210   49.3920 C   0  0  0  0  0  0  0  0  0  0  0  0
   51.1730   30.2310   48.3020 O   0  0  0  0  0  0  0  0  0  0  0  0
   50.8110   31.9990   49.7100 N   0  0  0  0  0  0  0  0  0  0  0  0
   51.3180   32.2550   50.9260 C   0  0  0  0  0  0  0  0  0  0  0  0
   51.0270   33.3980   51.6600 O   0  0  0  0  0  0  0  0  0  0  0  0
   55.2690   31.1830   51.7770 C   0  0  0  0  0  0  0  0  0  0  0  0
   56.3860   30.4400   52.0930 C   0  0  0  0  0  0  0  0  0  0  0  0
   57.6860   30.5810   51.4060 C   0  0  0  0  0  0  0  0  0  0  0  0
   57.9150   29.8500   50.4040 O   0  0  0  0  0  0  0  0  0  0  0  0
   58.6740   31.5420   51.8330 N   0  0  0  0  0  0  0  0  0  0  0  0
   60.0890   31.2960   51.5130 C   0  0  0  0  0  0  0  0  0  0  0  0
   60.9540   32.5450   51.7220 C   0  0  0  0  0  0  0  0  0  0  0  0
   60.6520   33.1820   53.0120 N   0  0  0  0  0  0  0  0  0  0  0  0
   61.6940   33.8550   53.7530 C   0  0  0  0  0  0  0  0  0  0  0  0
   61.4170   34.4570   54.9950 C   0  0  0  0  0  0  0  0  0  0  0  0
   62.4300   35.1010   55.7120 C   0  0  0  0  0  0  0  0  0  0  0  0
   63.7300   35.1530   55.2030 C   0  0  0  0  0  0  0  0  0  0  0  0
   64.7290   35.7990   55.9290 O   0  0  0  0  0  0  0  0  0  0  0  0
   64.0170   34.5540   53.9700 C   0  0  0  0  0  0  0  0  0  0  0  0
   63.0070   33.9080   53.2510 C   0  0  0  0  0  0  0  0  0  0  0  0
   59.2590   33.2820   53.4740 C   0  0  0  0  0  0  0  0  0  0  0  0
   58.2700   32.8410   52.3910 C   0  0  0  0  0  0  0  0  0  0  0  0
   56.1060   29.5660   53.0880 N   0  0  0  0  0  0  0  0  0  0  0  0
   57.0190   28.5760   53.6700 C   0  0  0  0  0  0  0  0  0  0  0  0
  1  2  2  0
  2  3  1  0
  3  4  2  3
  4  5  1  0
  5  6  1  0
  6  7  1  0
  7  8  2  0
  7  9  1  0
  9 10  1  0
 10 11  1  0
  3 12  1  0
 12 13  2  0
 13 14  1  0
 14 15  2  0
 14 16  1  0
 16 17  1  0
 17 18  1  0
 18 19  1  0
 19 20  1  0
 20 21  2  0
 21 22  1  0
 22 23  2  0
 23 24  1  0
 23 25  1  0
 25 26  2  0
 19 27  1  0
 27 28  1  0
 13 29  1  0
 29 30  1  0
 29  2  1  0
 10  5  2  0
 28 16  1  0
 26 20  1  0
M  CHG  3   6  -1   9  -1  11  -1
M  END
>  <UniqueID>  (2479) 
44

>  <SMILES>  (2479) 
C=c1c(=Cc2[n-]c(=O)[n-]c2[O-])cc(C(=O)N2CCN(c3ccc(O)cc3)CC2)n1C

>  <Energy>  (2479) 
131.2410032845943

>  <Genealogy>  (2479) 
C=c1c(=Cc2[n-]c(=O)[n-]c2[O-])cc(C(=O)N2CCN(c3ccc(O)cc3)CC2)n1C (protonated)
C=c1c(=Cc2[n-]c(=O)[n-]c2[O-])cc(C(=O)N2CCN(c3ccc(O)cc3)CC2)n1C (3D coordinates assigned)
C=c1c(=Cc2[n-]c(=O)[n-]c2[O-])cc(C(=O)N2CCN(c3ccc(O)cc3)CC2)n1C (nonaromatic ring conformer: 131.2410032845943 kcal/mol)

>  <smiles>  (2479) 
C=c1c(=Cc2[nH]c(=O)[nH]c2O)cc(C(=O)N2CCN(c3ccc(O)cc3)CC2)n1C

>  <score_type>  (2479) 
oracle

>  <origin>  (2479) 
adg

>  <m_score__min__energy>  (2479) 
-16.379999999999999

>  <m_primary>  (2479) 
energy

$$$$
47:0
     RDKit          3D

 31 33  0  0  0  0  0  0  0  0999 V2000
   57.3900   22.5900   46.6730 O   0  0  0  0  0  0  0  0  0  0  0  0
   57.0290   23.9320   46.6280 C   0  0  0  0  0  0  0  0  0  0  0  0
   57.8760   24.9330   46.9530 N   0  0  0  0  0  0  0  0  0  0  0  0
   57.1630   26.0640   46.7950 C   0  0  0  0  0  0  0  0  0  0  0  0
   57.7340   27.4040   46.9830 C   0  0  0  0  0  0  0  0  0  0  0  0
   57.6970   28.4070   46.0830 C   0  0  0  0  0  0  0  0  0  0  0  0
   56.8820   28.3710   44.9690 C   0  0  0  0  0  0  0  0  0  0  0  0
   57.0770   29.5530   44.2860 C   0  0  0  0  0  0  0  0  0  0  0  0
   56.4050   29.8800   42.9860 C   0  0  0  0  0  0  0  0  0  0  0  0
   57.9820   30.3340   44.9270 N   0  0  0  0  0  0  0  0  0  0  0  0
   58.5130   31.6210   44.4430 C   0  0  0  0  0  0  0  0  0  0  0  0
   57.4040   32.6550   44.1900 C   0  0  0  0  0  0  0  0  0  0  0  0
   57.2990   33.9090   45.4610 S   0  0  0  0  0  0  0  0  0  0  0  0
   56.3380   34.9730   45.0170 O   0  0  0  0  0  0  0  0  0  0  0  0
   56.7750   33.3070   46.7350 O   0  0  0  0  0  0  0  0  0  0  0  0
   58.8650   34.6270   45.7050 N   0  0  0  0  0  0  0  0  0  0  0  0
   59.7290   34.2020   46.7740 C   0  0  0  0  0  0  0  0  0  0  0  0
   61.0450   33.7900   46.5030 C   0  0  0  0  0  0  0  0  0  0  0  0
   61.8860   33.3700   47.5390 C   0  0  0  0  0  0  0  0  0  0  0  0
   61.4260   33.3730   48.8580 C   0  0  0  0  0  0  0  0  0  0  0  0
   60.1280   33.8070   49.1430 C   0  0  0  0  0  0  0  0  0  0  0  0
   59.2830   34.2290   48.1070 C   0  0  0  0  0  0  0  0  0  0  0  0
   59.2760   35.7360   44.8410 C   0  0  0  0  0  0  0  0  0  0  0  0
   58.4080   29.6200   46.0090 C   0  0  0  0  0  0  0  0  0  0  0  0
   59.4540   29.9850   46.7700 C   0  0  0  0  0  0  0  0  0  0  0  0
   55.8920   25.7790   46.3350 C   0  0  0  0  0  0  0  0  0  0  0  0
   54.9180   26.7140   46.0130 O   0  0  0  0  0  0  0  0  0  0  0  0
   55.7880   24.4050   46.2420 C   0  0  0  0  0  0  0  0  0  0  0  0
   54.6260   23.5970   45.8090 C   0  0  0  0  0  0  0  0  0  0  0  0
   54.7140   22.3390   45.8000 O   0  0  0  0  0  0  0  0  0  0  0  0
   53.3510   24.2400   45.3560 C   0  0  0  0  0  0  0  0  0  0  0  0
  1  2  1  0
  2  3  1  0
  3  4  1  0
  4  5  1  0
  5  6  2  0
  6  7  1  0
  7  8  2  0
  8  9  1  0
  8 10  1  0
 10 11  1  0
 11 12  1  0
 12 13  1  0
 13 14  2  0
 13 15  2  0
 13 16  1  0
 16 17  1  0
 17 18  2  0
 18 19  1  0
 19 20  2  0
 20 21  1  0
 21 22  2  0
 16 23  1  0
 10 24  1  0
 24 25  2  0
  4 26  2  0
 26 27  1  0
 26 28  1  0
 28 29  1  0
 29 30  2  0
 29 31  1  0
 28  2  2  0
 24  6  1  0
 22 17  1  0
M  CHG  2   3  -1  27  -1
M  END
>  <UniqueID>  (2480) 
46

>  <SMILES>  (2480) 
C=c1/c(=C\c2[n-]c(O)c(C(C)=O)c2[O-])cc(C)n1CCS(=O)(=O)N(C)c1ccccc1

>  <Energy>  (2480) 
118.03084344088826

>  <Genealogy>  (2480) 
C=c1c(=Cc2[n-]c(O)c(C(C)=O)c2[O-])cc(C)n1CCS(=O)(=O)N(C)c1ccccc1 (protonated)
C=c1/c(=C\c2[n-]c(O)c(C(C)=O)c2[O-])cc(C)n1CCS(=O)(=O)N(C)c1ccccc1 (cis-trans isomerization)
C=c1/c(=C\c2[n-]c(O)c(C(C)=O)c2[O-])cc(C)n1CCS(=O)(=O)N(C)c1ccccc1 (3D coordinates assigned)
C=c1/c(=C\c2[n-]c(O)c(C(C)=O)c2[O-])cc(C)n1CCS(=O)(=O)N(C)c1ccccc1 (optimized conformer: 118.03084344088826 kcal/mol)

>  <smiles>  (2480) 
C=c1c(=Cc2[nH]c(O)c(C(C)=O)c2O)cc(C)n1CCS(=O)(=O)N(C)c1ccccc1

>  <score_type>  (2480) 
oracle

>  <origin>  (2480) 
adg

>  <m_score__min__energy>  (2480) 
-14.15

>  <m_primary>  (2480) 
energy

$$$$
69:0
     RDKit          3D

 29 32  0  0  0  0  0  0  0  0999 V2000
   58.8250   29.1020   47.0860 C   0  0  0  0  0  0  0  0  0  0  0  0
   58.3490   29.1350   45.8300 C   0  0  0  0  0  0  0  0  0  0  0  0
   58.1080   28.0430   44.9780 C   0  0  0  0  0  0  0  0  0  0  0  0
   58.4130   26.7360   45.1020 C   0  0  0  0  0  0  0  0  0  0  0  0
   57.6070   25.7310   45.8230 C   0  0  0  0  0  0  0  0  0  0  0  0
   56.2530   25.9550   46.1500 C   0  0  0  0  0  0  0  0  0  0  0  0
   55.5940   27.1360   45.8040 O   0  0  0  0  0  0  0  0  0  0  0  0
   55.5620   25.0020   46.8290 N   0  0  0  0  0  0  0  0  0  0  0  0
   56.1520   23.8420   47.2160 C   0  0  0  0  0  0  0  0  0  0  0  0
   55.4870   22.9770   47.8400 O   0  0  0  0  0  0  0  0  0  0  0  0
   57.4610   23.6190   46.9350 N   0  0  0  0  0  0  0  0  0  0  0  0
   58.2000   24.5350   46.2570 C   0  0  0  0  0  0  0  0  0  0  0  0
   59.4130   24.2940   46.0170 O   0  0  0  0  0  0  0  0  0  0  0  0
   57.4700   28.5560   43.8610 C   0  0  0  0  0  0  0  0  0  0  0  0
   57.3890   29.9220   44.0360 C   0  0  0  0  0  0  0  0  0  0  0  0
   56.7880   30.8710   43.0440 C   0  0  0  0  0  0  0  0  0  0  0  0
   57.9180   30.2750   45.2290 N   0  0  0  0  0  0  0  0  0  0  0  0
   58.0160   31.6180   45.7400 C   0  0  0  0  0  0  0  0  0  0  0  0
   57.1390   32.6130   45.2910 C   0  0  0  0  0  0  0  0  0  0  0  0
   57.2490   33.9170   45.7810 C   0  0  0  0  0  0  0  0  0  0  0  0
   58.2230   34.2300   46.7310 C   0  0  0  0  0  0  0  0  0  0  0  0
   59.0980   33.2370   47.2070 C   0  0  0  0  0  0  0  0  0  0  0  0
   60.1120   33.5730   48.2280 C   0  0  0  0  0  0  0  0  0  0  0  0
   59.7510   33.7990   49.4140 O   0  0  0  0  0  0  0  0  0  0  0  0
   61.5070   33.6010   47.9110 N   0  0  0  0  0  0  0  0  0  0  0  0
   62.4080   33.2250   46.8030 C   0  0  0  0  0  0  0  0  0  0  0  0
   63.6800   33.4500   47.5480 C   0  0  0  0  0  0  0  0  0  0  0  0
   62.7570   33.8340   48.6560 C   0  0  0  0  0  0  0  0  0  0  0  0
   59.0000   31.9370   46.6860 C   0  0  0  0  0  0  0  0  0  0  0  0
  1  2  2  0
  2  3  1  0
  3  4  2  3
  4  5  1  0
  5  6  2  0
  6  7  1  0
  6  8  1  0
  8  9  1  0
  9 10  2  0
  9 11  1  0
 11 12  1  0
 12 13  2  0
  3 14  1  0
 14 15  2  0
 15 16  1  0
 15 17  1  0
 17 18  1  0
 18 19  2  0
 19 20  1  0
 20 21  2  0
 21 22  1  0
 22 23  1  0
 23 24  2  0
 23 25  1  0
 25 26  1  0
 26 27  1  0
 27 28  1  0
 22 29  2  0
 17  2  1  0
 29 18  1  0
 12  5  1  0
 28 25  1  0
M  CHG  2   8  -1  11  -1
M  END
>  <UniqueID>  (2481) 
67

>  <SMILES>  (2481) 
C=c1c(=Cc2c(O)[n-]c(=O)[n-]c2=O)cc(C)n1-c1cccc(C(=O)N2CCC2)c1

>  <Energy>  (2481) 
145.11380754443454

>  <Genealogy>  (2481) 
C=c1c(=Cc2c(O)[n-]c(=O)[n-]c2=O)cc(C)n1-c1cccc(C(=O)N2CCC2)c1 (protonated)
C=c1c(=Cc2c(O)[n-]c(=O)[n-]c2=O)cc(C)n1-c1cccc(C(=O)N2CCC2)c1 (3D coordinates assigned)
C=c1c(=Cc2c(O)[n-]c(=O)[n-]c2=O)cc(C)n1-c1cccc(C(=O)N2CCC2)c1 (nonaromatic ring conformer: 145.11380754443454 kcal/mol)

>  <smiles>  (2481) 
C=c1c(=Cc2c(O)[nH]c(=O)[nH]c2=O)cc(C)n1-c1cccc(C(=O)N2CCC2)c1

>  <score_type>  (2481) 
oracle

>  <origin>  (2481) 
adg

>  <m_score__min__energy>  (2481) 
-14.18

>  <m_primary>  (2481) 
energy

$$$$
71:0
     RDKit          3D

 31 34  0  0  0  0  0  0  0  0999 V2000
   53.6910   28.6560   53.2870 C   0  0  0  0  0  0  0  0  0  0  0  0
   54.5970   29.4450   52.6870 C   0  0  0  0  0  0  0  0  0  0  0  0
   54.3350   30.5320   51.8370 C   0  0  0  0  0  0  0  0  0  0  0  0
   53.1990   30.9280   51.2310 C   0  0  0  0  0  0  0  0  0  0  0  0
   52.0720   31.6140   51.8830 C   0  0  0  0  0  0  0  0  0  0  0  0
   51.7370   31.4770   53.1790 N   0  0  0  0  0  0  0  0  0  0  0  0
   50.5810   32.1690   53.2780 C   0  0  0  0  0  0  0  0  0  0  0  0
   49.9530   32.2890   54.3600 O   0  0  0  0  0  0  0  0  0  0  0  0
   50.1470   32.7130   52.1210 N   0  0  0  0  0  0  0  0  0  0  0  0
   51.0960   32.3400   51.2470 C   0  0  0  0  0  0  0  0  0  0  0  0
   51.0650   32.6510   49.8930 O   0  0  0  0  0  0  0  0  0  0  0  0
   55.5370   31.1990   51.6830 C   0  0  0  0  0  0  0  0  0  0  0  0
   56.4900   30.4750   52.3680 C   0  0  0  0  0  0  0  0  0  0  0  0
   57.9200   30.8330   52.4230 C   0  0  0  0  0  0  0  0  0  0  0  0
   58.3400   31.4930   53.4120 O   0  0  0  0  0  0  0  0  0  0  0  0
   58.8370   30.4330   51.3810 N   0  0  0  0  0  0  0  0  0  0  0  0
   60.2880   30.5530   51.5700 C   0  0  0  0  0  0  0  0  0  0  0  0
   60.8830   31.5650   50.5750 C   0  0  0  0  0  0  0  0  0  0  0  0
   60.1250   31.6260   49.2170 C   0  0  0  0  0  0  0  0  0  0  0  0
   59.1660   32.8430   49.1160 C   0  0  0  0  0  0  0  0  0  0  0  0
   59.0060   33.3500   47.6950 C   0  0  0  0  0  0  0  0  0  0  0  0
   57.7140   33.3730   47.1370 C   0  0  0  0  0  0  0  0  0  0  0  0
   57.5090   33.8200   45.8310 C   0  0  0  0  0  0  0  0  0  0  0  0
   58.5860   34.2590   45.0650 C   0  0  0  0  0  0  0  0  0  0  0  0
   59.8730   34.2590   45.6030 C   0  0  0  0  0  0  0  0  0  0  0  0
   60.1030   33.8090   46.9160 C   0  0  0  0  0  0  0  0  0  0  0  0
   61.5070   33.8640   47.4650 C   0  0  0  0  0  0  0  0  0  0  0  0
   59.3650   30.3080   48.9520 C   0  0  0  0  0  0  0  0  0  0  0  0
   58.3380   30.0160   50.0590 C   0  0  0  0  0  0  0  0  0  0  0  0
   55.9270   29.3960   52.9640 N   0  0  0  0  0  0  0  0  0  0  0  0
   56.5830   28.4770   53.9030 C   0  0  0  0  0  0  0  0  0  0  0  0
  1  2  2  0
  2  3  1  0
  3  4  2  3
  4  5  1  0
  5  6  1  0
  6  7  1  0
  7  8  2  0
  7  9  1  0
  9 10  1  0
 10 11  1  0
  3 12  1  0
 12 13  2  0
 13 14  1  0
 14 15  2  0
 14 16  1  0
 16 17  1  0
 17 18  1  0
 18 19  1  0
 19 20  1  0
 20 21  1  0
 21 22  2  0
 22 23  1  0
 23 24  2  0
 24 25  1  0
 25 26  2  0
 26 27  1  0
 19 28  1  0
 28 29  1  0
 13 30  1  0
 30 31  1  0
 30  2  1  0
 10  5  2  0
 29 16  1  0
 26 21  1  0
M  CHG  3   6  -1   9  -1  11  -1
M  END
>  <UniqueID>  (2482) 
69

>  <SMILES>  (2482) 
C=c1c(=Cc2[n-]c(=O)[n-]c2[O-])cc(C(=O)N2CCC(Cc3ccccc3C)CC2)n1C

>  <Energy>  (2482) 
136.53424355645637

>  <Genealogy>  (2482) 
C=c1c(=Cc2[n-]c(=O)[n-]c2[O-])cc(C(=O)N2CCC(Cc3ccccc3C)CC2)n1C (protonated)
C=c1c(=Cc2[n-]c(=O)[n-]c2[O-])cc(C(=O)N2CCC(Cc3ccccc3C)CC2)n1C (3D coordinates assigned)
C=c1c(=Cc2[n-]c(=O)[n-]c2[O-])cc(C(=O)N2CCC(Cc3ccccc3C)CC2)n1C (nonaromatic ring conformer: 136.53424355645637 kcal/mol)

>  <smiles>  (2482) 
C=c1c(=Cc2[nH]c(=O)[nH]c2O)cc(C(=O)N2CCC(Cc3ccccc3C)CC2)n1C

>  <score_type>  (2482) 
oracle

>  <origin>  (2482) 
adg

>  <m_score__min__energy>  (2482) 
-19.350000000000001

>  <m_primary>  (2482) 
energy

$$$$
80:0
     RDKit          3D

 37 41  0  0  0  0  0  0  0  0999 V2000
   56.3640   29.5970   44.8300 C   0  0  0  0  0  0  0  0  0  0  0  0
   57.6140   29.1520   45.0330 C   0  0  0  0  0  0  0  0  0  0  0  0
   58.1040   27.8500   44.8410 C   0  0  0  0  0  0  0  0  0  0  0  0
   57.4730   26.7030   44.5290 C   0  0  0  0  0  0  0  0  0  0  0  0
   56.9730   25.7130   45.4930 C   0  0  0  0  0  0  0  0  0  0  0  0
   57.7040   24.6860   45.9600 N   0  0  0  0  0  0  0  0  0  0  0  0
   56.8900   24.1180   46.8790 C   0  0  0  0  0  0  0  0  0  0  0  0
   57.2200   23.0960   47.5360 O   0  0  0  0  0  0  0  0  0  0  0  0
   55.7010   24.7370   47.0450 N   0  0  0  0  0  0  0  0  0  0  0  0
   55.7740   25.7510   46.1680 C   0  0  0  0  0  0  0  0  0  0  0  0
   54.7740   26.7030   45.9990 O   0  0  0  0  0  0  0  0  0  0  0  0
   59.4740   27.9180   45.0410 C   0  0  0  0  0  0  0  0  0  0  0  0
   59.7670   29.2230   45.3720 C   0  0  0  0  0  0  0  0  0  0  0  0
   61.1360   29.7200   45.7370 C   0  0  0  0  0  0  0  0  0  0  0  0
   58.6420   29.9680   45.3740 N   0  0  0  0  0  0  0  0  0  0  0  0
   58.5830   31.3950   45.5440 C   0  0  0  0  0  0  0  0  0  0  0  0
   58.0940   32.1930   44.5020 C   0  0  0  0  0  0  0  0  0  0  0  0
   58.0770   33.5850   44.6290 C   0  0  0  0  0  0  0  0  0  0  0  0
   58.5560   34.1870   45.7950 C   0  0  0  0  0  0  0  0  0  0  0  0
   59.0490   33.4020   46.8390 C   0  0  0  0  0  0  0  0  0  0  0  0
   59.0690   32.0020   46.7230 C   0  0  0  0  0  0  0  0  0  0  0  0
   59.5450   31.1810   47.8560 C   0  0  0  0  0  0  0  0  0  0  0  0
   58.7200   30.4050   48.4160 O   0  0  0  0  0  0  0  0  0  0  0  0
   60.9130   31.2360   48.3200 N   0  0  0  0  0  0  0  0  0  0  0  0
   61.9380   31.9370   47.5250 C   0  0  0  0  0  0  0  0  0  0  0  0
   63.3530   31.6340   48.0280 C   0  0  0  0  0  0  0  0  0  0  0  0
   63.4030   31.7960   49.4830 N   0  0  0  0  0  0  0  0  0  0  0  0
   64.6100   32.2770   50.0970 C   0  0  0  0  0  0  0  0  0  0  0  0
   65.7140   31.7730   49.7550 O   0  0  0  0  0  0  0  0  0  0  0  0
   64.5770   33.3440   51.1250 C   0  0  0  0  0  0  0  0  0  0  0  0
   63.4380   33.5290   51.9340 C   0  0  0  0  0  0  0  0  0  0  0  0
   63.4160   34.5330   52.9100 C   0  0  0  0  0  0  0  0  0  0  0  0
   64.5140   35.3820   53.0670 C   0  0  0  0  0  0  0  0  0  0  0  0
   65.6400   35.2260   52.2510 C   0  0  0  0  0  0  0  0  0  0  0  0
   65.6750   34.2120   51.2860 C   0  0  0  0  0  0  0  0  0  0  0  0
   62.3530   31.2050   50.3280 C   0  0  0  0  0  0  0  0  0  0  0  0
   61.3190   30.4420   49.4920 C   0  0  0  0  0  0  0  0  0  0  0  0
  1  2  2  0
  2  3  1  0
  3  4  2  3
  4  5  1  0
  5  6  1  0
  6  7  1  0
  7  8  2  0
  7  9  1  0
  9 10  1  0
 10 11  1  0
  3 12  1  0
 12 13  2  0
 13 14  1  0
 13 15  1  0
 15 16  1  0
 16 17  2  0
 17 18  1  0
 18 19  2  0
 19 20  1  0
 20 21  2  0
 21 22  1  0
 22 23  2  0
 22 24  1  0
 24 25  1  0
 25 26  1  0
 26 27  1  0
 27 28  1  0
 28 29  2  0
 28 30  1  0
 30 31  2  0
 31 32  1  0
 32 33  2  0
 33 34  1  0
 34 35  2  0
 27 36  1  0
 36 37  1  0
 15  2  1  0
 21 16  1  0
 37 24  1  0
 10  5  2  0
 35 30  1  0
M  CHG  3   6  -1   9  -1  11  -1
M  END
>  <UniqueID>  (2483) 
78

>  <SMILES>  (2483) 
C=c1c(=Cc2[n-]c(=O)[n-]c2[O-])cc(C)n1-c1ccccc1C(=O)N1CCN(C(=O)c2ccccc2)CC1

>  <Energy>  (2483) 
154.05612439424317

>  <Genealogy>  (2483) 
C=c1c(=Cc2[n-]c(=O)[n-]c2[O-])cc(C)n1-c1ccccc1C(=O)N1CCN(C(=O)c2ccccc2)CC1 (protonated)
C=c1c(=Cc2[n-]c(=O)[n-]c2[O-])cc(C)n1-c1ccccc1C(=O)N1CCN(C(=O)c2ccccc2)CC1 (3D coordinates assigned)
C=c1c(=Cc2[n-]c(=O)[n-]c2[O-])cc(C)n1-c1ccccc1C(=O)N1CCN(C(=O)c2ccccc2)CC1 (nonaromatic ring conformer: 154.05612439424317 kcal/mol)

>  <smiles>  (2483) 
C=c1c(=Cc2[nH]c(=O)[nH]c2O)cc(C)n1-c1ccccc1C(=O)N1CCN(C(=O)c2ccccc2)CC1

>  <score_type>  (2483) 
oracle

>  <origin>  (2483) 
adg

>  <m_score__min__energy>  (2483) 
-18.640000000000001

>  <m_primary>  (2483) 
energy

$$$$
2:0
     RDKit          3D

 25 27  0  0  0  0  0  0  0  0999 V2000
   55.6140   28.6040   44.8700 O   0  0  0  0  0  0  0  0  0  0  0  0
   56.6220   28.9080   45.5650 C   0  0  0  0  0  0  0  0  0  0  0  0
   57.0400   30.2720   45.6630 N   0  0  0  0  0  0  0  0  0  0  0  0
   57.6360   30.9970   44.5490 C   0  0  0  0  0  0  0  0  0  0  0  0
   58.2550   32.2700   45.0560 C   0  0  0  0  0  0  0  0  0  0  0  0
   57.9930   33.4850   44.4000 C   0  0  0  0  0  0  0  0  0  0  0  0
   58.5860   34.6710   44.8440 C   0  0  0  0  0  0  0  0  0  0  0  0
   59.4520   34.6520   45.9380 C   0  0  0  0  0  0  0  0  0  0  0  0
   59.7340   33.4480   46.5880 C   0  0  0  0  0  0  0  0  0  0  0  0
   59.1450   32.2530   46.1500 C   0  0  0  0  0  0  0  0  0  0  0  0
   59.4400   31.0530   46.7940 O   0  0  0  0  0  0  0  0  0  0  0  0
   57.3910   27.8580   46.2560 C   0  0  0  0  0  0  0  0  0  0  0  0
   58.2810   28.1970   47.0830 O   0  0  0  0  0  0  0  0  0  0  0  0
   57.1670   26.4180   45.9870 C   0  0  0  0  0  0  0  0  0  0  0  0
   55.8600   25.8970   45.9990 C   0  0  0  0  0  0  0  0  0  0  0  0
   54.7730   26.7170   46.2810 O   0  0  0  0  0  0  0  0  0  0  0  0
   55.6450   24.5800   45.7470 N   0  0  0  0  0  0  0  0  0  0  0  0
   56.6600   23.7210   45.4740 C   0  0  0  0  0  0  0  0  0  0  0  0
   56.3820   22.3720   45.2250 C   0  0  0  0  0  0  0  0  0  0  0  0
   57.4210   21.4830   44.9390 C   0  0  0  0  0  0  0  0  0  0  0  0
   58.7420   21.9380   44.8970 C   0  0  0  0  0  0  0  0  0  0  0  0
   59.0300   23.2830   45.1430 C   0  0  0  0  0  0  0  0  0  0  0  0
   57.9920   24.1890   45.4360 C   0  0  0  0  0  0  0  0  0  0  0  0
   58.2400   25.5530   45.6850 C   0  0  0  0  0  0  0  0  0  0  0  0
   59.4170   26.0040   45.6180 O   0  0  0  0  0  0  0  0  0  0  0  0
  1  2  2  0
  2  3  1  0
  3  4  1  0
  4  5  1  0
  5  6  2  0
  6  7  1  0
  7  8  2  0
  8  9  1  0
  9 10  2  0
 10 11  1  0
  2 12  1  0
 12 13  2  0
 12 14  1  0
 14 15  2  0
 15 16  1  0
 15 17  1  0
 17 18  1  0
 18 19  2  0
 19 20  1  0
 20 21  2  0
 21 22  1  0
 22 23  2  0
 23 24  1  0
 24 25  2  0
 10  5  1  0
 24 14  1  0
 23 18  1  0
M  CHG  3   3  -1  16  -1  17  -1
M  END
>  <UniqueID>  (2484) 
3

>  <SMILES>  (2484) 
O=C([N-]Cc1ccccc1O)C(=O)c1c([O-])[n-]c2ccccc2c1=O

>  <Energy>  (2484) 
47.5655839434924

>  <Genealogy>  (2484) 
O=C([N-]Cc1ccccc1O)C(=O)c1c([O-])[n-]c2ccccc2c1=O (protonated)
O=C([N-]Cc1ccccc1O)C(=O)c1c([O-])[n-]c2ccccc2c1=O (3D coordinates assigned)
O=C([N-]Cc1ccccc1O)C(=O)c1c([O-])[n-]c2ccccc2c1=O (optimized conformer: 47.5655839434924 kcal/mol)

>  <smiles>  (2484) 
O=C(NCc1ccccc1O)C(=O)c1c(O)[nH]c2ccccc2c1=O

>  <score_type>  (2484) 
oracle

>  <origin>  (2484) 
adg

>  <m_score__min__energy>  (2484) 
-14.220000000000001

>  <m_primary>  (2484) 
energy

$$$$
38:0
     RDKit          3D

 29 31  0  0  0  0  0  0  0  0999 V2000
   58.4220   25.9480   47.6290 O   0  0  0  0  0  0  0  0  0  0  0  0
   57.3080   26.3000   46.8730 C   0  0  0  0  0  0  0  0  0  0  0  0
   56.2010   25.5400   46.7630 N   0  0  0  0  0  0  0  0  0  0  0  0
   55.3920   26.3030   45.9910 C   0  0  0  0  0  0  0  0  0  0  0  0
   54.2340   25.9380   45.6580 O   0  0  0  0  0  0  0  0  0  0  0  0
   55.9220   27.4870   45.6130 N   0  0  0  0  0  0  0  0  0  0  0  0
   57.1540   27.4670   46.1540 C   0  0  0  0  0  0  0  0  0  0  0  0
   58.0890   28.6030   46.0870 C   0  0  0  0  0  0  0  0  0  0  0  0
   58.7740   29.1320   47.1180 C   0  0  0  0  0  0  0  0  0  0  0  0
   58.5130   28.7520   48.3880 N   0  0  0  0  0  0  0  0  0  0  0  0
   59.4110   29.4260   49.1320 C   0  0  0  0  0  0  0  0  0  0  0  0
   59.4510   29.3390   50.3900 O   0  0  0  0  0  0  0  0  0  0  0  0
   60.2400   30.2140   48.4110 N   0  0  0  0  0  0  0  0  0  0  0  0
   61.3070   31.0620   48.9650 C   0  0  0  0  0  0  0  0  0  0  0  0
   60.7450   32.3750   49.4420 C   0  0  0  0  0  0  0  0  0  0  0  0
   60.0500   32.3790   50.4950 O   0  0  0  0  0  0  0  0  0  0  0  0
   61.0640   33.6330   48.7990 N   0  0  0  0  0  0  0  0  0  0  0  0
   59.9570   34.5860   48.5700 C   0  0  0  0  0  0  0  0  0  0  0  0
   59.2370   34.2670   47.2890 C   0  0  0  0  0  0  0  0  0  0  0  0
   59.6350   34.8780   46.0780 C   0  0  0  0  0  0  0  0  0  0  0  0
   58.9410   34.6080   44.9020 C   0  0  0  0  0  0  0  0  0  0  0  0
   57.8500   33.7330   44.9130 C   0  0  0  0  0  0  0  0  0  0  0  0
   57.4610   33.1110   46.1050 C   0  0  0  0  0  0  0  0  0  0  0  0
   58.1490   33.3760   47.2930 C   0  0  0  0  0  0  0  0  0  0  0  0
   62.3830   33.8850   48.1650 C   0  0  0  0  0  0  0  0  0  0  0  0
   63.5450   33.4400   49.0600 C   0  0  0  0  0  0  0  0  0  0  0  0
   62.4730   33.2580   46.7670 C   0  0  0  0  0  0  0  0  0  0  0  0
   59.7980   30.0930   47.1300 C   0  0  0  0  0  0  0  0  0  0  0  0
   60.1570   30.9100   46.1240 C   0  0  0  0  0  0  0  0  0  0  0  0
  1  2  1  0
  2  3  1  0
  3  4  1  0
  4  5  2  0
  4  6  1  0
  6  7  1  0
  7  8  1  0
  8  9  2  0
  9 10  1  0
 10 11  1  0
 11 12  2  0
 11 13  1  0
 13 14  1  0
 14 15  1  0
 15 16  2  0
 15 17  1  0
 17 18  1  0
 18 19  1  0
 19 20  2  0
 20 21  1  0
 21 22  2  0
 22 23  1  0
 23 24  2  0
 17 25  1  0
 25 26  1  0
 25 27  1  0
 13 28  1  0
 28 29  2  0
  7  2  2  0
 28  9  1  0
 24 19  1  0
M  CHG  3   3  -1   6  -1  10  -1
M  END
>  <UniqueID>  (2485) 
38

>  <SMILES>  (2485) 
C=c1/c(=C\c2[n-]c(=O)[n-]c2O)[n-]c(=O)n1CC(=O)N(Cc1ccccc1)C(C)C

>  <Energy>  (2485) 
121.39033673664858

>  <Genealogy>  (2485) 
C=c1c(=Cc2[n-]c(=O)[n-]c2O)[n-]c(=O)n1CC(=O)N(Cc1ccccc1)C(C)C (protonated)
C=c1/c(=C\c2[n-]c(=O)[n-]c2O)[n-]c(=O)n1CC(=O)N(Cc1ccccc1)C(C)C (cis-trans isomerization)
C=c1/c(=C\c2[n-]c(=O)[n-]c2O)[n-]c(=O)n1CC(=O)N(Cc1ccccc1)C(C)C (3D coordinates assigned)
C=c1/c(=C\c2[n-]c(=O)[n-]c2O)[n-]c(=O)n1CC(=O)N(Cc1ccccc1)C(C)C (optimized conformer: 121.39033673664858 kcal/mol)

>  <smiles>  (2485) 
C=c1c(=Cc2[nH]c(=O)[nH]c2O)[nH]c(=O)n1CC(=O)N(Cc1ccccc1)C(C)C

>  <score_type>  (2485) 
oracle

>  <origin>  (2485) 
adg

>  <m_score__min__energy>  (2485) 
-15.529999999999999

>  <m_primary>  (2485) 
energy

$$$$
54:0
     RDKit          3D

 34 37  0  0  0  0  0  0  0  0999 V2000
   59.9240   28.7470   45.3900 C   0  0  0  0  0  0  0  0  0  0  0  0
   58.6140   28.7820   45.0960 C   0  0  0  0  0  0  0  0  0  0  0  0
   57.6560   27.8010   45.4010 C   0  0  0  0  0  0  0  0  0  0  0  0
   57.7970   26.5350   45.8400 C   0  0  0  0  0  0  0  0  0  0  0  0
   56.8720   25.4260   45.5530 C   0  0  0  0  0  0  0  0  0  0  0  0
   57.2310   24.2830   44.9300 N   0  0  0  0  0  0  0  0  0  0  0  0
   56.0890   23.5820   44.7610 C   0  0  0  0  0  0  0  0  0  0  0  0
   56.0510   22.2380   44.1070 C   0  0  0  0  0  0  0  0  0  0  0  0
   54.9940   24.2860   45.2460 C   0  0  0  0  0  0  0  0  0  0  0  0
   53.5800   23.8600   45.2530 C   0  0  0  0  0  0  0  0  0  0  0  0
   52.6890   24.6650   44.8760 O   0  0  0  0  0  0  0  0  0  0  0  0
   53.1960   22.5270   45.6180 N   0  0  0  0  0  0  0  0  0  0  0  0
   52.6530   22.1630   46.7450 C   0  0  0  0  0  0  0  0  0  0  0  0
   53.2150   21.0850   47.6380 C   0  0  0  0  0  0  0  0  0  0  0  0
   54.6460   21.3150   47.9160 N   0  0  0  0  0  0  0  0  0  0  0  0
   55.4970   20.8090   46.8230 C   0  0  0  0  0  0  0  0  0  0  0  0
   56.9850   21.0450   47.1580 C   0  0  0  0  0  0  0  0  0  0  0  0
   57.1570   21.8320   48.3230 O   0  0  0  0  0  0  0  0  0  0  0  0
   56.4220   23.0330   48.2010 C   0  0  0  0  0  0  0  0  0  0  0  0
   54.9070   22.7520   48.1320 C   0  0  0  0  0  0  0  0  0  0  0  0
   55.5090   25.4640   45.7390 C   0  0  0  0  0  0  0  0  0  0  0  0
   54.7900   26.4980   46.3290 O   0  0  0  0  0  0  0  0  0  0  0  0
   56.4230   28.3670   45.1310 C   0  0  0  0  0  0  0  0  0  0  0  0
   56.6630   29.6220   44.6100 C   0  0  0  0  0  0  0  0  0  0  0  0
   55.5920   30.5690   44.1600 C   0  0  0  0  0  0  0  0  0  0  0  0
   57.9930   29.8760   44.5790 N   0  0  0  0  0  0  0  0  0  0  0  0
   58.6290   31.1120   44.0930 C   0  0  0  0  0  0  0  0  0  0  0  0
   58.5260   32.2070   45.1270 C   0  0  0  0  0  0  0  0  0  0  0  0
   57.5240   33.1870   45.0100 C   0  0  0  0  0  0  0  0  0  0  0  0
   57.4140   34.2050   45.9620 C   0  0  0  0  0  0  0  0  0  0  0  0
   58.2960   34.2490   47.0440 C   0  0  0  0  0  0  0  0  0  0  0  0
   59.2860   33.2720   47.1790 C   0  0  0  0  0  0  0  0  0  0  0  0
   59.4020   32.2510   46.2300 C   0  0  0  0  0  0  0  0  0  0  0  0
   60.3680   31.3110   46.3900 F   0  0  0  0  0  0  0  0  0  0  0  0
  1  2  2  0
  2  3  1  0
  3  4  2  3
  4  5  1  0
  5  6  1  0
  6  7  1  0
  7  8  1  0
  7  9  2  0
  9 10  1  0
 10 11  2  0
 10 12  1  0
 12 13  2  3
 13 14  1  0
 14 15  1  0
 15 16  1  0
 16 17  1  0
 17 18  1  0
 18 19  1  0
 19 20  1  0
  9 21  1  0
 21 22  1  0
  3 23  1  0
 23 24  2  0
 24 25  1  0
 24 26  1  0
 26 27  1  0
 27 28  1  0
 28 29  2  0
 29 30  1  0
 30 31  2  0
 31 32  1  0
 32 33  2  0
 33 34  1  0
 26  2  1  0
 33 28  1  0
 21  5  2  0
 20 15  1  0
M  CHG  2   6  -1  22  -1
M  END
>  <UniqueID>  (2486) 
51

>  <SMILES>  (2486) 
C=c1c(=Cc2[n-]c(C)c(C(=O)N=CCN3CCOCC3)c2[O-])cc(C)n1Cc1ccccc1F

>  <Energy>  (2486) 
142.33972041111156

>  <Genealogy>  (2486) 
C=c1c(=Cc2[n-]c(C)c(C(=O)N=CCN3CCOCC3)c2[O-])cc(C)n1Cc1ccccc1F (protonated)
C=c1c(=Cc2[n-]c(C)c(C(=O)N=CCN3CCOCC3)c2[O-])cc(C)n1Cc1ccccc1F (3D coordinates assigned)
C=c1c(=Cc2[n-]c(C)c(C(=O)N=CCN3CCOCC3)c2[O-])cc(C)n1Cc1ccccc1F (nonaromatic ring conformer: 142.33972041111156 kcal/mol)

>  <smiles>  (2486) 
C=c1c(=Cc2[nH]c(C)c(C(=O)N=CCN3CCOCC3)c2O)cc(C)n1Cc1ccccc1F

>  <score_type>  (2486) 
oracle

>  <origin>  (2486) 
adg

>  <m_score__min__energy>  (2486) 
-15.66

>  <m_primary>  (2486) 
energy

$$$$
66:0
     RDKit          3D

 32 35  0  0  0  0  0  0  0  0999 V2000
   56.2420   32.3200   52.3710 C   0  0  0  0  0  0  0  0  0  0  0  0
   55.8690   31.0570   52.6390 C   0  0  0  0  0  0  0  0  0  0  0  0
   54.5480   30.5920   52.6730 C   0  0  0  0  0  0  0  0  0  0  0  0
   53.4220   31.3050   52.4710 C   0  0  0  0  0  0  0  0  0  0  0  0
   52.5820   31.1960   51.2640 C   0  0  0  0  0  0  0  0  0  0  0  0
   52.6840   30.1860   50.3830 N   0  0  0  0  0  0  0  0  0  0  0  0
   51.6850   30.4300   49.5080 C   0  0  0  0  0  0  0  0  0  0  0  0
   51.4630   29.6930   48.5120 O   0  0  0  0  0  0  0  0  0  0  0  0
   50.9370   31.5180   49.7890 N   0  0  0  0  0  0  0  0  0  0  0  0
   51.5080   31.9850   50.9100 C   0  0  0  0  0  0  0  0  0  0  0  0
   51.0260   33.0790   51.6190 O   0  0  0  0  0  0  0  0  0  0  0  0
   54.6150   29.2530   53.0210 C   0  0  0  0  0  0  0  0  0  0  0  0
   55.9500   28.9490   53.1790 C   0  0  0  0  0  0  0  0  0  0  0  0
   56.4530   27.5960   53.5820 C   0  0  0  0  0  0  0  0  0  0  0  0
   56.7250   30.0320   52.9190 N   0  0  0  0  0  0  0  0  0  0  0  0
   58.1980   30.0680   53.0150 C   0  0  0  0  0  0  0  0  0  0  0  0
   58.8570   29.6730   51.7070 C   0  0  0  0  0  0  0  0  0  0  0  0
   58.5010   30.3650   50.5350 C   0  0  0  0  0  0  0  0  0  0  0  0
   59.1080   30.0710   49.3040 C   0  0  0  0  0  0  0  0  0  0  0  0
   58.7200   30.8340   48.0910 C   0  0  0  0  0  0  0  0  0  0  0  0
   58.4280   30.1940   47.0410 O   0  0  0  0  0  0  0  0  0  0  0  0
   58.7190   32.2850   48.0750 N   0  0  0  0  0  0  0  0  0  0  0  0
   57.7500   32.7980   47.0730 C   0  0  0  0  0  0  0  0  0  0  0  0
   58.0980   34.2340   46.6640 C   0  0  0  0  0  0  0  0  0  0  0  0
   59.4130   34.2930   45.9840 N   0  0  0  0  0  0  0  0  0  0  0  0
   59.9880   35.6420   46.0920 C   0  0  0  0  0  0  0  0  0  0  0  0
   60.3700   33.2550   46.4430 C   0  0  0  0  0  0  0  0  0  0  0  0
   60.0990   32.8080   47.8910 C   0  0  0  0  0  0  0  0  0  0  0  0
   60.0580   29.0420   49.2420 C   0  0  0  0  0  0  0  0  0  0  0  0
   60.4040   28.3290   50.3890 C   0  0  0  0  0  0  0  0  0  0  0  0
   59.8050   28.6200   51.6260 C   0  0  0  0  0  0  0  0  0  0  0  0
   60.2180   27.8240   52.8340 C   0  0  0  0  0  0  0  0  0  0  0  0
  1  2  2  0
  2  3  1  0
  3  4  2  0
  4  5  1  0
  5  6  1  0
  6  7  1  0
  7  8  2  0
  7  9  1  0
  9 10  1  0
 10 11  1  0
  3 12  1  0
 12 13  2  0
 13 14  1  0
 13 15  1  0
 15 16  1  0
 16 17  1  0
 17 18  2  0
 18 19  1  0
 19 20  1  0
 20 21  2  0
 20 22  1  0
 22 23  1  0
 23 24  1  0
 24 25  1  0
 25 26  1  0
 25 27  1  0
 27 28  1  0
 19 29  2  0
 29 30  1  0
 30 31  2  0
 31 32  1  0
 15  2  1  0
 31 17  1  0
 10  5  2  0
 28 22  1  0
M  CHG  4   6  -1   9  -1  11  -1  22   1
M  END
>  <UniqueID>  (2487) 
63

>  <SMILES>  (2487) 
C=c1/c(=C/c2[n-]c(=O)[n-]c2[O-])cc(C)n1Cc1cc(C(=O)[NH+]2CCN(C)CC2)ccc1C

>  <Energy>  (2487) 
145.40041423976294

>  <Genealogy>  (2487) 
C=c1c(=Cc2[n-]c(=O)[n-]c2[O-])cc(C)n1Cc1cc(C(=O)[NH+]2CCN(C)CC2)ccc1C (protonated)
C=c1/c(=C/c2[n-]c(=O)[n-]c2[O-])cc(C)n1Cc1cc(C(=O)[NH+]2CCN(C)CC2)ccc1C (cis-trans isomerization)
C=c1/c(=C/c2[n-]c(=O)[n-]c2[O-])cc(C)n1Cc1cc(C(=O)[NH+]2CCN(C)CC2)ccc1C (3D coordinates assigned)
C=c1/c(=C/c2[n-]c(=O)[n-]c2[O-])cc(C)n1Cc1cc(C(=O)[NH+]2CCN(C)CC2)ccc1C (nonaromatic ring conformer: 145.40041423976294 kcal/mol)

>  <smiles>  (2487) 
C=c1c(=Cc2[nH]c(=O)[nH]c2O)cc(C)n1Cc1cc(C(=O)N2CCN(C)CC2)ccc1C

>  <score_type>  (2487) 
oracle

>  <origin>  (2487) 
adg

>  <m_score__min__energy>  (2487) 
-16.050000000000001

>  <m_primary>  (2487) 
energy

$$$$
72:0
     RDKit          3D

 30 32  0  0  0  0  0  0  0  0999 V2000
   57.7930   27.8200   43.4820 C   0  0  0  0  0  0  0  0  0  0  0  0
   57.6590   29.1780   44.1140 C   0  0  0  0  0  0  0  0  0  0  0  0
   58.6760   29.6960   44.9220 C   0  0  0  0  0  0  0  0  0  0  0  0
   58.5550   30.9350   45.4900 N   0  0  0  0  0  0  0  0  0  0  0  0
   59.6580   31.4570   46.3120 C   0  0  0  0  0  0  0  0  0  0  0  0
   59.3220   31.3710   47.7770 C   0  0  0  0  0  0  0  0  0  0  0  0
   59.0710   30.1260   48.3700 C   0  0  0  0  0  0  0  0  0  0  0  0
   58.8360   30.0310   49.7430 C   0  0  0  0  0  0  0  0  0  0  0  0
   58.8330   31.1840   50.5460 C   0  0  0  0  0  0  0  0  0  0  0  0
   58.7290   31.0500   52.0440 C   0  0  0  0  0  0  0  0  0  0  0  0
   57.3280   30.7630   52.5090 C   0  0  0  0  0  0  0  0  0  0  0  0
   56.6000   31.7200   52.8820 O   0  0  0  0  0  0  0  0  0  0  0  0
   56.8120   29.4300   52.5940 N   0  0  0  0  0  0  0  0  0  0  0  0
   55.5940   29.0300   53.2940 C   0  0  0  0  0  0  0  0  0  0  0  0
   54.4010   29.7730   52.7520 C   0  0  0  0  0  0  0  0  0  0  0  0
   53.4030   30.2470   53.6200 C   0  0  0  0  0  0  0  0  0  0  0  0
   52.3590   31.0380   53.1340 C   0  0  0  0  0  0  0  0  0  0  0  0
   52.2950   31.3750   51.7690 C   0  0  0  0  0  0  0  0  0  0  0  0
   51.2360   32.2670   51.2550 C   0  0  0  0  0  0  0  0  0  0  0  0
   50.5700   32.9900   52.0430 O   0  0  0  0  0  0  0  0  0  0  0  0
   50.9790   32.3430   49.8900 O   0  0  0  0  0  0  0  0  0  0  0  0
   53.2820   30.8850   50.8990 C   0  0  0  0  0  0  0  0  0  0  0  0
   54.3320   30.1060   51.3890 C   0  0  0  0  0  0  0  0  0  0  0  0
   59.0600   32.4350   49.9460 C   0  0  0  0  0  0  0  0  0  0  0  0
   59.2870   32.5290   48.5690 C   0  0  0  0  0  0  0  0  0  0  0  0
   57.4140   31.6660   45.2860 C   0  0  0  0  0  0  0  0  0  0  0  0
   57.2650   32.7960   45.8260 O   0  0  0  0  0  0  0  0  0  0  0  0
   56.4270   31.1830   44.4900 N   0  0  0  0  0  0  0  0  0  0  0  0
   56.5250   29.9670   43.8970 C   0  0  0  0  0  0  0  0  0  0  0  0
   55.5870   29.5600   43.1610 O   0  0  0  0  0  0  0  0  0  0  0  0
  1  2  1  0
  2  3  2  0
  3  4  1  0
  4  5  1  0
  5  6  1  0
  6  7  2  0
  7  8  1  0
  8  9  2  0
  9 10  1  0
 10 11  1  0
 11 12  2  0
 11 13  1  0
 13 14  1  0
 14 15  1  0
 15 16  2  0
 16 17  1  0
 17 18  2  0
 18 19  1  0
 19 20  2  0
 19 21  1  0
 18 22  1  0
 22 23  2  0
  9 24  1  0
 24 25  2  0
  4 26  1  0
 26 27  2  0
 26 28  1  0
 28 29  1  0
 29 30  2  0
 29  2  1  0
 25  6  1  0
 23 15  1  0
M  CHG  3  13  -1  21  -1  28  -1
M  END
>  <UniqueID>  (2488) 
69

>  <SMILES>  (2488) 
Cc1cn(Cc2ccc(CC(=O)[N-]Cc3ccc(C(=O)[O-])cc3)cc2)c(=O)[n-]c1=O

>  <Energy>  (2488) 
47.646580922160915

>  <Genealogy>  (2488) 
Cc1cn(Cc2ccc(CC(=O)[N-]Cc3ccc(C(=O)[O-])cc3)cc2)c(=O)[n-]c1=O (protonated)
Cc1cn(Cc2ccc(CC(=O)[N-]Cc3ccc(C(=O)[O-])cc3)cc2)c(=O)[n-]c1=O (3D coordinates assigned)
Cc1cn(Cc2ccc(CC(=O)[N-]Cc3ccc(C(=O)[O-])cc3)cc2)c(=O)[n-]c1=O (optimized conformer: 47.646580922160915 kcal/mol)

>  <smiles>  (2488) 
Cc1cn(Cc2ccc(CC(=O)NCc3ccc(C(=O)O)cc3)cc2)c(=O)[nH]c1=O

>  <score_type>  (2488) 
oracle

>  <origin>  (2488) 
adg

>  <m_score__min__energy>  (2488) 
-14.890000000000001

>  <m_primary>  (2488) 
energy

$$$$
73:0
     RDKit          3D

 27 30  0  0  0  0  0  0  0  0999 V2000
   55.9410   31.9240   52.2630 C   0  0  0  0  0  0  0  0  0  0  0  0
   55.4160   30.7060   52.4710 C   0  0  0  0  0  0  0  0  0  0  0  0
   54.0690   30.3710   52.6780 C   0  0  0  0  0  0  0  0  0  0  0  0
   52.9540   31.1090   52.5180 C   0  0  0  0  0  0  0  0  0  0  0  0
   52.1310   31.1710   51.3000 C   0  0  0  0  0  0  0  0  0  0  0  0
   52.2090   30.2730   50.3040 N   0  0  0  0  0  0  0  0  0  0  0  0
   51.3900   30.7820   49.3580 C   0  0  0  0  0  0  0  0  0  0  0  0
   51.1840   30.2060   48.2580 O   0  0  0  0  0  0  0  0  0  0  0  0
   50.8190   31.9630   49.6780 N   0  0  0  0  0  0  0  0  0  0  0  0
   51.3100   32.2040   50.9040 C   0  0  0  0  0  0  0  0  0  0  0  0
   51.0370   33.3550   51.6330 O   0  0  0  0  0  0  0  0  0  0  0  0
   53.9950   29.0890   53.0980 N   0  0  0  0  0  0  0  0  0  0  0  0
   55.2700   28.6590   53.0920 C   0  0  0  0  0  0  0  0  0  0  0  0
   55.5920   27.4820   53.4070 O   0  0  0  0  0  0  0  0  0  0  0  0
   56.1580   29.5970   52.7040 N   0  0  0  0  0  0  0  0  0  0  0  0
   57.5850   29.4330   52.6030 C   0  0  0  0  0  0  0  0  0  0  0  0
   58.2680   28.6130   53.5140 C   0  0  0  0  0  0  0  0  0  0  0  0
   59.6520   28.4630   53.4240 C   0  0  0  0  0  0  0  0  0  0  0  0
   60.3680   29.1330   52.4290 C   0  0  0  0  0  0  0  0  0  0  0  0
   59.7040   29.9660   51.5110 C   0  0  0  0  0  0  0  0  0  0  0  0
   60.4660   30.6810   50.4570 C   0  0  0  0  0  0  0  0  0  0  0  0
   61.7390   30.2910   50.0300 C   0  0  0  0  0  0  0  0  0  0  0  0
   62.2440   31.3660   48.8380 S   0  0  0  0  0  0  0  0  0  0  0  0
   60.8310   32.2720   48.8930 C   0  0  0  0  0  0  0  0  0  0  0  0
   60.5880   33.5200   48.1110 C   0  0  0  0  0  0  0  0  0  0  0  0
   59.9800   31.7870   49.8220 N   0  0  0  0  0  0  0  0  0  0  0  0
   58.3080   30.1120   51.6100 C   0  0  0  0  0  0  0  0  0  0  0  0
  1  2  2  0
  2  3  1  0
  3  4  2  0
  4  5  1  0
  5  6  1  0
  6  7  1  0
  7  8  2  0
  7  9  1  0
  9 10  1  0
 10 11  1  0
  3 12  1  0
 12 13  1  0
 13 14  2  0
 13 15  1  0
 15 16  1  0
 16 17  2  0
 17 18  1  0
 18 19  2  0
 19 20  1  0
 20 21  1  0
 21 22  2  0
 22 23  1  0
 23 24  1  0
 24 25  1  0
 24 26  2  0
 20 27  2  0
 15  2  1  0
 27 16  1  0
 10  5  2  0
 26 21  1  0
M  CHG  5   6  -1   9  -1  11  -1  12  -1  26   1
M  END
>  <UniqueID>  (2489) 
70

>  <SMILES>  (2489) 
C=c1/c(=C\c2[n-]c(=O)[n-]c2[O-])[n-]c(=O)n1-c1cccc(-c2csc(C)[nH+]2)c1

>  <Energy>  (2489) 
155.00340078188466

>  <Genealogy>  (2489) 
C=c1c(=Cc2[n-]c(=O)[n-]c2[O-])[n-]c(=O)n1-c1cccc(-c2csc(C)[nH+]2)c1 (protonated)
C=c1/c(=C\c2[n-]c(=O)[n-]c2[O-])[n-]c(=O)n1-c1cccc(-c2csc(C)[nH+]2)c1 (cis-trans isomerization)
C=c1/c(=C\c2[n-]c(=O)[n-]c2[O-])[n-]c(=O)n1-c1cccc(-c2csc(C)[nH+]2)c1 (3D coordinates assigned)
C=c1/c(=C\c2[n-]c(=O)[n-]c2[O-])[n-]c(=O)n1-c1cccc(-c2csc(C)[nH+]2)c1 (optimized conformer: 155.00340078188466 kcal/mol)

>  <smiles>  (2489) 
C=c1c(=Cc2[nH]c(=O)[nH]c2O)[nH]c(=O)n1-c1cccc(-c2csc(C)n2)c1

>  <score_type>  (2489) 
oracle

>  <origin>  (2489) 
adg

>  <m_score__min__energy>  (2489) 
-17.210000000000001

>  <m_primary>  (2489) 
energy

$$$$
76:0
     RDKit          3D

 33 36  0  0  0  0  0  0  0  0999 V2000
   57.8120   24.9440   44.1380 C   0  0  0  0  0  0  0  0  0  0  0  0
   56.5440   24.8470   44.5680 C   0  0  0  0  0  0  0  0  0  0  0  0
   55.9140   25.5770   45.5900 C   0  0  0  0  0  0  0  0  0  0  0  0
   56.3310   26.6620   46.2690 C   0  0  0  0  0  0  0  0  0  0  0  0
   57.0490   27.8090   45.6960 C   0  0  0  0  0  0  0  0  0  0  0  0
   58.3940   27.8850   45.6160 N   0  0  0  0  0  0  0  0  0  0  0  0
   58.6130   29.1100   45.0890 C   0  0  0  0  0  0  0  0  0  0  0  0
   59.7650   29.5440   44.8270 O   0  0  0  0  0  0  0  0  0  0  0  0
   57.4840   29.8170   44.8700 N   0  0  0  0  0  0  0  0  0  0  0  0
   57.3490   31.1160   44.2110 C   0  0  0  0  0  0  0  0  0  0  0  0
   57.9480   32.1900   45.0790 C   0  0  0  0  0  0  0  0  0  0  0  0
   58.3230   33.4220   44.5220 C   0  0  0  0  0  0  0  0  0  0  0  0
   58.8150   34.4440   45.3390 C   0  0  0  0  0  0  0  0  0  0  0  0
   58.9270   34.2450   46.7180 C   0  0  0  0  0  0  0  0  0  0  0  0
   58.5450   33.0260   47.2820 C   0  0  0  0  0  0  0  0  0  0  0  0
   58.0520   32.0010   46.4680 C   0  0  0  0  0  0  0  0  0  0  0  0
   56.4970   28.9970   45.2620 C   0  0  0  0  0  0  0  0  0  0  0  0
   55.1440   29.3160   45.2340 O   0  0  0  0  0  0  0  0  0  0  0  0
   54.7100   25.0230   45.8450 N   0  0  0  0  0  0  0  0  0  0  0  0
   54.6080   24.0120   44.9610 C   0  0  0  0  0  0  0  0  0  0  0  0
   53.6040   23.2540   44.9070 O   0  0  0  0  0  0  0  0  0  0  0  0
   55.6820   23.8860   44.1560 N   0  0  0  0  0  0  0  0  0  0  0  0
   55.8970   22.8300   43.1590 C   0  0  0  0  0  0  0  0  0  0  0  0
   56.5210   21.6310   43.7990 C   0  0  0  0  0  0  0  0  0  0  0  0
   56.0170   20.4890   43.6200 O   0  0  0  0  0  0  0  0  0  0  0  0
   57.6930   21.7890   44.6040 N   0  0  0  0  0  0  0  0  0  0  0  0
   57.8170   21.2700   45.9610 C   0  0  0  0  0  0  0  0  0  0  0  0
   56.6290   21.6810   46.7870 C   0  0  0  0  0  0  0  0  0  0  0  0
   55.4610   20.8990   46.8030 C   0  0  0  0  0  0  0  0  0  0  0  0
   54.3540   21.3020   47.5550 C   0  0  0  0  0  0  0  0  0  0  0  0
   54.4020   22.4880   48.2920 C   0  0  0  0  0  0  0  0  0  0  0  0
   55.5560   23.2740   48.2770 C   0  0  0  0  0  0  0  0  0  0  0  0
   56.6660   22.8760   47.5260 C   0  0  0  0  0  0  0  0  0  0  0  0
  1  2  2  0
  2  3  1  0
  3  4  2  0
  4  5  1  0
  5  6  1  0
  6  7  1  0
  7  8  2  0
  7  9  1  0
  9 10  1  0
 10 11  1  0
 11 12  2  0
 12 13  1  0
 13 14  2  0
 14 15  1  0
 15 16  2  0
  9 17  1  0
 17 18  1  0
  3 19  1  0
 19 20  1  0
 20 21  2  0
 20 22  1  0
 22 23  1  0
 23 24  1  0
 24 25  2  0
 24 26  1  0
 26 27  1  0
 27 28  1  0
 28 29  2  0
 29 30  1  0
 30 31  2  0
 31 32  1  0
 32 33  2  0
 22  2  1  0
 33 28  1  0
 17  5  2  0
 16 11  1  0
M  CHG  4   6  -1  18  -1  19  -1  26  -1
M  END
>  <UniqueID>  (2490) 
73

>  <SMILES>  (2490) 
C=c1/c(=C\c2[n-]c(=O)n(Cc3ccccc3)c2[O-])[n-]c(=O)n1CC(=O)[N-]Cc1ccccc1

>  <Energy>  (2490) 
127.3687742336264

>  <Genealogy>  (2490) 
C=c1c(=Cc2[n-]c(=O)n(Cc3ccccc3)c2[O-])[n-]c(=O)n1CC(=O)[N-]Cc1ccccc1 (protonated)
C=c1/c(=C\c2[n-]c(=O)n(Cc3ccccc3)c2[O-])[n-]c(=O)n1CC(=O)[N-]Cc1ccccc1 (cis-trans isomerization)
C=c1/c(=C\c2[n-]c(=O)n(Cc3ccccc3)c2[O-])[n-]c(=O)n1CC(=O)[N-]Cc1ccccc1 (3D coordinates assigned)
C=c1/c(=C\c2[n-]c(=O)n(Cc3ccccc3)c2[O-])[n-]c(=O)n1CC(=O)[N-]Cc1ccccc1 (optimized conformer: 127.3687742336264 kcal/mol)

>  <smiles>  (2490) 
C=c1c(=Cc2[nH]c(=O)n(Cc3ccccc3)c2O)[nH]c(=O)n1CC(=O)NCc1ccccc1

>  <score_type>  (2490) 
oracle

>  <origin>  (2490) 
adg

>  <m_score__min__energy>  (2490) 
-16.98

>  <m_primary>  (2490) 
energy

$$$$
78:0
     RDKit          3D

 33 36  0  0  0  0  0  0  0  0999 V2000
   53.8390   28.4680   54.1010 C   0  0  0  0  0  0  0  0  0  0  0  0
   54.4420   29.3210   53.2580 C   0  0  0  0  0  0  0  0  0  0  0  0
   53.8670   30.4390   52.6350 C   0  0  0  0  0  0  0  0  0  0  0  0
   52.5810   30.8270   52.5280 C   0  0  0  0  0  0  0  0  0  0  0  0
   51.8500   31.0290   51.2660 C   0  0  0  0  0  0  0  0  0  0  0  0
   51.8580   30.1710   50.2290 N   0  0  0  0  0  0  0  0  0  0  0  0
   51.1820   30.8370   49.2680 C   0  0  0  0  0  0  0  0  0  0  0  0
   50.9640   30.3460   48.1290 O   0  0  0  0  0  0  0  0  0  0  0  0
   50.7690   32.0730   49.6190 N   0  0  0  0  0  0  0  0  0  0  0  0
   51.2120   32.1840   50.8820 C   0  0  0  0  0  0  0  0  0  0  0  0
   51.0420   33.3190   51.6660 O   0  0  0  0  0  0  0  0  0  0  0  0
   54.9140   31.1550   52.0810 C   0  0  0  0  0  0  0  0  0  0  0  0
   56.0660   30.4410   52.3310 C   0  0  0  0  0  0  0  0  0  0  0  0
   57.4100   30.8890   51.9080 C   0  0  0  0  0  0  0  0  0  0  0  0
   58.0200   31.7260   52.6290 O   0  0  0  0  0  0  0  0  0  0  0  0
   58.0800   30.2830   50.7760 N   0  0  0  0  0  0  0  0  0  0  0  0
   59.1410   29.3640   51.2530 C   0  0  0  0  0  0  0  0  0  0  0  0
   60.1050   28.9480   50.1200 C   0  0  0  0  0  0  0  0  0  0  0  0
   59.5010   29.2320   48.8070 N   0  0  0  0  0  0  0  0  0  0  0  0
   60.2170   28.6020   47.6770 C   0  0  0  0  0  0  0  0  0  0  0  0
   59.3060   28.0230   46.6150 C   0  0  0  0  0  0  0  0  0  0  0  0
   59.5860   28.2180   45.2530 C   0  0  0  0  0  0  0  0  0  0  0  0
   58.7390   27.6890   44.2780 C   0  0  0  0  0  0  0  0  0  0  0  0
   57.6080   26.9590   44.6480 C   0  0  0  0  0  0  0  0  0  0  0  0
   57.3170   26.7410   46.0070 C   0  0  0  0  0  0  0  0  0  0  0  0
   56.1170   25.9700   46.4050 C   0  0  0  0  0  0  0  0  0  0  0  0
   56.2260   24.9420   47.1260 O   0  0  0  0  0  0  0  0  0  0  0  0
   54.8530   26.3670   45.9820 O   0  0  0  0  0  0  0  0  0  0  0  0
   58.1780   27.2710   46.9840 C   0  0  0  0  0  0  0  0  0  0  0  0
   59.2660   30.6800   48.6210 C   0  0  0  0  0  0  0  0  0  0  0  0
   58.6430   31.3180   49.8830 C   0  0  0  0  0  0  0  0  0  0  0  0
   55.7790   29.3070   53.0140 N   0  0  0  0  0  0  0  0  0  0  0  0
   56.7330   28.2740   53.4340 C   0  0  0  0  0  0  0  0  0  0  0  0
  1  2  2  0
  2  3  1  0
  3  4  2  3
  4  5  1  0
  5  6  1  0
  6  7  1  0
  7  8  2  0
  7  9  1  0
  9 10  1  0
 10 11  1  0
  3 12  1  0
 12 13  2  0
 13 14  1  0
 14 15  2  0
 14 16  1  0
 16 17  1  0
 17 18  1  0
 18 19  1  0
 19 20  1  0
 20 21  1  0
 21 22  2  0
 22 23  1  0
 23 24  2  0
 24 25  1  0
 25 26  1  0
 26 27  2  0
 26 28  1  0
 25 29  2  0
 19 30  1  0
 30 31  1  0
 13 32  1  0
 32 33  1  0
 32  2  1  0
 10  5  2  0
 31 16  1  0
 29 21  1  0
M  CHG  5   6  -1   9  -1  11  -1  16   1  28  -1
M  END
>  <UniqueID>  (2491) 
75

>  <SMILES>  (2491) 
C=c1c(=Cc2[n-]c(=O)[n-]c2[O-])cc(C(=O)[NH+]2CCN(Cc3cccc(C(=O)[O-])c3)CC2)n1C

>  <Energy>  (2491) 
146.12843043566355

>  <Genealogy>  (2491) 
C=c1c(=Cc2[n-]c(=O)[n-]c2[O-])cc(C(=O)[NH+]2CCN(Cc3cccc(C(=O)[O-])c3)CC2)n1C (protonated)
C=c1c(=Cc2[n-]c(=O)[n-]c2[O-])cc(C(=O)[NH+]2CCN(Cc3cccc(C(=O)[O-])c3)CC2)n1C (3D coordinates assigned)
C=c1c(=Cc2[n-]c(=O)[n-]c2[O-])cc(C(=O)[NH+]2CCN(Cc3cccc(C(=O)[O-])c3)CC2)n1C (nonaromatic ring conformer: 146.12843043566355 kcal/mol)

>  <smiles>  (2491) 
C=c1c(=Cc2[nH]c(=O)[nH]c2O)cc(C(=O)N2CCN(Cc3cccc(C(=O)O)c3)CC2)n1C

>  <score_type>  (2491) 
oracle

>  <origin>  (2491) 
adg

>  <m_score__min__energy>  (2491) 
-20.789999999999999

>  <m_primary>  (2491) 
energy

$$$$
82:0
     RDKit          3D

 25 27  0  0  0  0  0  0  0  0999 V2000
   62.4780   31.6010   47.5850 C   0  0  0  0  0  0  0  0  0  0  0  0
   61.1210   31.5430   47.6360 N   0  0  0  0  0  0  0  0  0  0  0  0
   60.3450   32.5860   47.2320 C   0  0  0  0  0  0  0  0  0  0  0  0
   58.5610   32.4430   47.3000 S   0  0  0  0  0  0  0  0  0  0  0  0
   58.3450   32.3400   45.4900 C   0  0  0  0  0  0  0  0  0  0  0  0
   57.4820   31.1670   45.1270 C   0  0  0  0  0  0  0  0  0  0  0  0
   56.3020   31.2900   44.4940 N   0  0  0  0  0  0  0  0  0  0  0  0
   55.8710   30.0170   44.3880 C   0  0  0  0  0  0  0  0  0  0  0  0
   54.7810   29.7130   43.8380 O   0  0  0  0  0  0  0  0  0  0  0  0
   56.7020   29.0950   44.9150 N   0  0  0  0  0  0  0  0  0  0  0  0
   57.7200   29.8310   45.3960 C   0  0  0  0  0  0  0  0  0  0  0  0
   58.9330   29.2330   46.0400 C   0  0  0  0  0  0  0  0  0  0  0  0
   58.5290   28.1740   47.0140 C   0  0  0  0  0  0  0  0  0  0  0  0
   59.2930   27.8900   47.9760 O   0  0  0  0  0  0  0  0  0  0  0  0
   57.2880   27.4780   46.8150 N   0  0  0  0  0  0  0  0  0  0  0  0
   57.1340   26.2600   46.3800 C   0  0  0  0  0  0  0  0  0  0  0  0
   58.1840   25.3910   46.3210 N   0  0  0  0  0  0  0  0  0  0  0  0
   58.0430   24.1170   45.8690 C   0  0  0  0  0  0  0  0  0  0  0  0
   56.7930   23.6600   45.4460 C   0  0  0  0  0  0  0  0  0  0  0  0
   55.6990   24.5250   45.4940 C   0  0  0  0  0  0  0  0  0  0  0  0
   55.8640   25.8320   45.9620 C   0  0  0  0  0  0  0  0  0  0  0  0
   54.7720   26.6920   46.0090 O   0  0  0  0  0  0  0  0  0  0  0  0
   60.9430   33.7590   46.7610 C   0  0  0  0  0  0  0  0  0  0  0  0
   62.3360   33.8380   46.6990 C   0  0  0  0  0  0  0  0  0  0  0  0
   63.1120   32.7520   47.1120 C   0  0  0  0  0  0  0  0  0  0  0  0
  1  2  2  0
  2  3  1  0
  3  4  1  0
  4  5  1  0
  5  6  1  0
  6  7  1  0
  7  8  1  0
  8  9  2  0
  8 10  1  0
 10 11  1  0
 11 12  1  0
 12 13  1  0
 13 14  2  0
 13 15  1  0
 15 16  2  0
 16 17  1  0
 17 18  1  0
 18 19  2  0
 19 20  1  0
 20 21  2  0
 21 22  1  0
  3 23  2  0
 23 24  1  0
 24 25  2  0
 25  1  1  0
 11  6  2  0
 21 16  1  0
M  CHG  4   7  -1  10  -1  17  -1  22  -1
M  END
>  <UniqueID>  (2492) 
78

>  <SMILES>  (2492) 
O=C(Cc1[n-]c(=O)[n-]c1CSc1ccccn1)/N=c1\[n-]cccc1[O-]

>  <Energy>  (2492) 
62.891849588225085

>  <Genealogy>  (2492) 
O=C(Cc1[n-]c(=O)[n-]c1CSc1ccccn1)N=c1[n-]cccc1[O-] (protonated)
O=C(Cc1[n-]c(=O)[n-]c1CSc1ccccn1)/N=c1\[n-]cccc1[O-] (cis-trans isomerization)
O=C(Cc1[n-]c(=O)[n-]c1CSc1ccccn1)/N=c1\[n-]cccc1[O-] (3D coordinates assigned)
O=C(Cc1[n-]c(=O)[n-]c1CSc1ccccn1)/N=c1\[n-]cccc1[O-] (optimized conformer: 62.891849588225085 kcal/mol)

>  <smiles>  (2492) 
O=C(Cc1[nH]c(=O)[nH]c1CSc1ccccn1)N=c1[nH]cccc1O

>  <score_type>  (2492) 
oracle

>  <origin>  (2492) 
adg

>  <m_score__min__energy>  (2492) 
-15.890000000000001

>  <m_primary>  (2492) 
energy

$$$$
91:0
     RDKit          3D

 34 37  0  0  0  0  0  0  0  0999 V2000
   54.7790   29.6410   43.3240 O   0  0  0  0  0  0  0  0  0  0  0  0
   55.7950   29.8510   44.0400 C   0  0  0  0  0  0  0  0  0  0  0  0
   55.9840   29.0960   45.2440 N   0  0  0  0  0  0  0  0  0  0  0  0
   56.6970   28.0190   45.4380 C   0  0  0  0  0  0  0  0  0  0  0  0
   58.0360   28.1000   45.2060 N   0  0  0  0  0  0  0  0  0  0  0  0
   58.8760   27.0480   45.3840 C   0  0  0  0  0  0  0  0  0  0  0  0
   58.3780   25.8230   45.8230 C   0  0  0  0  0  0  0  0  0  0  0  0
   57.0100   25.6870   46.0480 C   0  0  0  0  0  0  0  0  0  0  0  0
   56.1510   26.7720   45.8460 C   0  0  0  0  0  0  0  0  0  0  0  0
   54.7850   26.5690   46.0020 O   0  0  0  0  0  0  0  0  0  0  0  0
   56.7240   30.9560   43.6990 C   0  0  0  0  0  0  0  0  0  0  0  0
   56.9990   31.2690   42.3540 C   0  0  0  0  0  0  0  0  0  0  0  0
   57.8580   32.3240   42.0350 C   0  0  0  0  0  0  0  0  0  0  0  0
   58.4520   33.0760   43.0510 C   0  0  0  0  0  0  0  0  0  0  0  0
   58.1980   32.7730   44.3930 C   0  0  0  0  0  0  0  0  0  0  0  0
   58.9430   33.7350   45.6670 S   0  0  0  0  0  0  0  0  0  0  0  0
   59.1310   35.1390   45.1570 O   0  0  0  0  0  0  0  0  0  0  0  0
   58.0440   33.7650   46.8750 O   0  0  0  0  0  0  0  0  0  0  0  0
   60.4910   33.0530   46.1070 N   0  0  0  0  0  0  0  0  0  0  0  0
   60.3230   32.1460   47.2520 C   0  0  0  0  0  0  0  0  0  0  0  0
   61.6340   31.4010   47.5050 C   0  0  0  0  0  0  0  0  0  0  0  0
   62.7480   32.3430   47.6660 N   0  0  0  0  0  0  0  0  0  0  0  0
   63.9180   31.9530   48.4620 C   0  0  0  0  0  0  0  0  0  0  0  0
   64.1230   32.9360   49.5830 C   0  0  0  0  0  0  0  0  0  0  0  0
   63.0420   33.6710   50.0990 C   0  0  0  0  0  0  0  0  0  0  0  0
   63.2320   34.5420   51.1740 C   0  0  0  0  0  0  0  0  0  0  0  0
   64.4990   34.6830   51.7460 C   0  0  0  0  0  0  0  0  0  0  0  0
   64.6800   35.5240   52.7930 F   0  0  0  0  0  0  0  0  0  0  0  0
   65.5780   33.9540   51.2410 C   0  0  0  0  0  0  0  0  0  0  0  0
   65.3920   33.0820   50.1660 C   0  0  0  0  0  0  0  0  0  0  0  0
   62.7220   33.6020   46.9650 C   0  0  0  0  0  0  0  0  0  0  0  0
   63.7670   34.2990   46.8620 O   0  0  0  0  0  0  0  0  0  0  0  0
   61.4230   34.1450   46.4430 C   0  0  0  0  0  0  0  0  0  0  0  0
   57.3320   31.7170   44.7140 C   0  0  0  0  0  0  0  0  0  0  0  0
  1  2  2  0
  2  3  1  0
  3  4  2  3
  4  5  1  0
  5  6  1  0
  6  7  2  0
  7  8  1  0
  8  9  2  0
  9 10  1  0
  2 11  1  0
 11 12  2  0
 12 13  1  0
 13 14  2  0
 14 15  1  0
 15 16  1  0
 16 17  2  0
 16 18  2  0
 16 19  1  0
 19 20  1  0
 20 21  1  0
 21 22  1  0
 22 23  1  0
 23 24  1  0
 24 25  2  0
 25 26  1  0
 26 27  2  0
 27 28  1  0
 27 29  1  0
 29 30  2  0
 22 31  1  0
 31 32  2  0
 31 33  1  0
 15 34  2  0
  9  4  1  0
 34 11  1  0
 33 19  1  0
 30 24  1  0
M  CHG  2   5  -1  10  -1
M  END
>  <UniqueID>  (2493) 
86

>  <SMILES>  (2493) 
O=C(N=c1[n-]cccc1[O-])c1cccc(S(=O)(=O)N2CCN(Cc3ccc(F)cc3)C(=O)C2)c1

>  <Energy>  (2493) 
68.17413923987559

>  <Genealogy>  (2493) 
O=C(N=c1[n-]cccc1[O-])c1cccc(S(=O)(=O)N2CCN(Cc3ccc(F)cc3)C(=O)C2)c1 (protonated)
O=C(N=c1[n-]cccc1[O-])c1cccc(S(=O)(=O)N2CCN(Cc3ccc(F)cc3)C(=O)C2)c1 (3D coordinates assigned)
O=C(N=c1[n-]cccc1[O-])c1cccc(S(=O)(=O)N2CCN(Cc3ccc(F)cc3)C(=O)C2)c1 (nonaromatic ring conformer: 68.17413923987559 kcal/mol)

>  <smiles>  (2493) 
O=C(N=c1[nH]cccc1O)c1cccc(S(=O)(=O)N2CCN(Cc3ccc(F)cc3)C(=O)C2)c1

>  <score_type>  (2493) 
oracle

>  <origin>  (2493) 
adg

>  <m_score__min__energy>  (2493) 
-15.9

>  <m_primary>  (2493) 
energy

$$$$
2:0
     RDKit          3D

 25 27  0  0  0  0  0  0  0  0999 V2000
   57.0390   23.7040   44.8470 C   0  0  0  0  0  0  0  0  0  0  0  0
   56.7310   23.9640   46.5830 S   0  0  0  0  0  0  0  0  0  0  0  0
   57.2650   22.8160   47.3910 O   0  0  0  0  0  0  0  0  0  0  0  0
   55.2450   24.0500   46.7860 O   0  0  0  0  0  0  0  0  0  0  0  0
   57.4460   25.4550   47.1070 N   0  0  0  0  0  0  0  0  0  0  0  0
   57.4310   26.7030   46.3980 C   0  0  0  0  0  0  0  0  0  0  0  0
   58.6570   27.3450   46.1810 C   0  0  0  0  0  0  0  0  0  0  0  0
   58.7170   28.5740   45.5060 C   0  0  0  0  0  0  0  0  0  0  0  0
   60.0320   29.2900   45.3500 C   0  0  0  0  0  0  0  0  0  0  0  0
   60.2130   30.2490   46.4360 N   0  0  0  0  0  0  0  0  0  0  0  0
   60.4980   29.9310   47.8020 C   0  0  0  0  0  0  0  0  0  0  0  0
   60.9400   28.8180   48.1930 O   0  0  0  0  0  0  0  0  0  0  0  0
   60.1770   31.0660   48.6600 C   0  0  0  0  0  0  0  0  0  0  0  0
   60.2810   31.2210   50.0400 C   0  0  0  0  0  0  0  0  0  0  0  0
   59.8660   32.4430   50.6000 C   0  0  0  0  0  0  0  0  0  0  0  0
   59.3560   33.4700   49.7770 C   0  0  0  0  0  0  0  0  0  0  0  0
   59.2580   33.2860   48.3850 C   0  0  0  0  0  0  0  0  0  0  0  0
   59.6790   32.0690   47.8560 C   0  0  0  0  0  0  0  0  0  0  0  0
   59.6820   31.5770   46.4840 C   0  0  0  0  0  0  0  0  0  0  0  0
   59.2600   32.2070   45.4790 O   0  0  0  0  0  0  0  0  0  0  0  0
   57.5320   29.1630   45.0470 C   0  0  0  0  0  0  0  0  0  0  0  0
   56.3070   28.5180   45.2280 C   0  0  0  0  0  0  0  0  0  0  0  0
   55.1440   29.1030   44.7430 O   0  0  0  0  0  0  0  0  0  0  0  0
   56.2500   27.2840   45.8890 C   0  0  0  0  0  0  0  0  0  0  0  0
   55.0240   26.6420   46.0030 O   0  0  0  0  0  0  0  0  0  0  0  0
  1  2  1  0
  2  3  2  0
  2  4  2  0
  2  5  1  0
  5  6  1  0
  6  7  2  0
  7  8  1  0
  8  9  1  0
  9 10  1  0
 10 11  1  0
 11 12  2  0
 11 13  1  0
 13 14  2  0
 14 15  1  0
 15 16  2  0
 16 17  1  0
 17 18  2  0
 18 19  1  0
 19 20  2  0
  8 21  2  0
 21 22  1  0
 22 23  1  0
 22 24  2  0
 24 25  1  0
 24  6  1  0
 19 10  1  0
 18 13  1  0
M  CHG  3   5  -1  23  -1  25  -1
M  END
>  <UniqueID>  (2494) 
2

>  <SMILES>  (2494) 
CS(=O)(=O)[N-]c1cc(CN2C(=O)c3ccccc3C2=O)cc([O-])c1[O-]

>  <Energy>  (2494) 
71.96144276461996

>  <Genealogy>  (2494) 
CS(=O)(=O)[N-]c1cc(CN2C(=O)c3ccccc3C2=O)cc([O-])c1[O-] (protonated)
CS(=O)(=O)[N-]c1cc(CN2C(=O)c3ccccc3C2=O)cc([O-])c1[O-] (3D coordinates assigned)
CS(=O)(=O)[N-]c1cc(CN2C(=O)c3ccccc3C2=O)cc([O-])c1[O-] (nonaromatic ring conformer: 71.96144276461996 kcal/mol)

>  <smiles>  (2494) 
CS(=O)(=O)Nc1cc(CN2C(=O)c3ccccc3C2=O)cc(O)c1O

>  <score_type>  (2494) 
oracle

>  <origin>  (2494) 
adg

>  <m_score__min__energy>  (2494) 
-16.539999999999999

>  <m_primary>  (2494) 
energy

$$$$
3:0
     RDKit          3D

 32 35  0  0  0  0  0  0  0  0999 V2000
   60.0750   27.2450   55.3500 O   0  0  0  0  0  0  0  0  0  0  0  0
   60.2200   26.6080   54.1160 C   0  0  0  0  0  0  0  0  0  0  0  0
   60.5990   27.3020   52.9440 C   0  0  0  0  0  0  0  0  0  0  0  0
   60.9460   28.7380   52.9630 C   0  0  0  0  0  0  0  0  0  0  0  0
   61.8190   29.1340   53.7820 O   0  0  0  0  0  0  0  0  0  0  0  0
   60.3150   29.6800   52.0640 N   0  0  0  0  0  0  0  0  0  0  0  0
   59.1740   29.2650   51.2280 C   0  0  0  0  0  0  0  0  0  0  0  0
   58.3530   30.4690   50.7430 C   0  0  0  0  0  0  0  0  0  0  0  0
   58.2710   31.4830   51.8040 N   0  0  0  0  0  0  0  0  0  0  0  0
   57.0070   32.0500   52.1830 C   0  0  0  0  0  0  0  0  0  0  0  0
   56.9110   33.2940   52.3610 O   0  0  0  0  0  0  0  0  0  0  0  0
   55.8440   31.1760   52.4500 C   0  0  0  0  0  0  0  0  0  0  0  0
   54.5640   31.4640   52.0240 C   0  0  0  0  0  0  0  0  0  0  0  0
   53.7620   30.4040   52.4120 C   0  0  0  0  0  0  0  0  0  0  0  0
   52.4310   30.3090   52.2330 C   0  0  0  0  0  0  0  0  0  0  0  0
   51.7360   30.7580   51.0120 C   0  0  0  0  0  0  0  0  0  0  0  0
   51.7000   30.0400   49.8750 N   0  0  0  0  0  0  0  0  0  0  0  0
   51.0280   30.8410   49.0200 C   0  0  0  0  0  0  0  0  0  0  0  0
   50.7740   30.5050   47.8340 O   0  0  0  0  0  0  0  0  0  0  0  0
   50.6570   32.0330   49.5330 N   0  0  0  0  0  0  0  0  0  0  0  0
   51.1200   31.9700   50.7910 C   0  0  0  0  0  0  0  0  0  0  0  0
   51.0160   33.0150   51.7020 O   0  0  0  0  0  0  0  0  0  0  0  0
   54.6030   29.4970   53.0660 C   0  0  0  0  0  0  0  0  0  0  0  0
   54.2430   28.3040   53.5640 C   0  0  0  0  0  0  0  0  0  0  0  0
   55.8710   29.9870   53.0970 N   0  0  0  0  0  0  0  0  0  0  0  0
   57.0480   29.3490   53.6990 C   0  0  0  0  0  0  0  0  0  0  0  0
   59.4960   31.9590   52.4590 C   0  0  0  0  0  0  0  0  0  0  0  0
   60.7030   31.1000   52.0680 C   0  0  0  0  0  0  0  0  0  0  0  0
   60.6660   26.6270   51.7620 N   0  0  0  0  0  0  0  0  0  0  0  0
   60.3890   25.3000   51.6680 C   0  0  0  0  0  0  0  0  0  0  0  0
   60.0320   24.5790   52.8070 C   0  0  0  0  0  0  0  0  0  0  0  0
   59.9520   25.2380   54.0330 C   0  0  0  0  0  0  0  0  0  0  0  0
  1  2  1  0
  2  3  2  0
  3  4  1  0
  4  5  2  0
  4  6  1  0
  6  7  1  0
  7  8  1  0
  8  9  1  0
  9 10  1  0
 10 11  2  0
 10 12  1  0
 12 13  2  0
 13 14  1  0
 14 15  2  0
 15 16  1  0
 16 17  1  0
 17 18  1  0
 18 19  2  0
 18 20  1  0
 20 21  1  0
 21 22  1  0
 14 23  1  0
 23 24  2  0
 23 25  1  0
 25 26  1  0
  9 27  1  0
 27 28  1  0
  3 29  1  0
 29 30  2  0
 30 31  1  0
 31 32  2  0
 32  2  1  0
 28  6  1  0
 25 12  1  0
 21 16  2  0
M  CHG  3  17  -1  20  -1  22  -1
M  END
>  <UniqueID>  (2495) 
3

>  <SMILES>  (2495) 
C=c1/c(=C/c2[n-]c(=O)[n-]c2[O-])cc(C(=O)N2CCN(C(=O)c3ncccc3O)CC2)n1C

>  <Energy>  (2495) 
131.228481828116

>  <Genealogy>  (2495) 
C=c1c(=Cc2[n-]c(=O)[n-]c2[O-])cc(C(=O)N2CCN(C(=O)c3ncccc3O)CC2)n1C (protonated)
C=c1/c(=C/c2[n-]c(=O)[n-]c2[O-])cc(C(=O)N2CCN(C(=O)c3ncccc3O)CC2)n1C (cis-trans isomerization)
C=c1/c(=C/c2[n-]c(=O)[n-]c2[O-])cc(C(=O)N2CCN(C(=O)c3ncccc3O)CC2)n1C (3D coordinates assigned)
C=c1/c(=C/c2[n-]c(=O)[n-]c2[O-])cc(C(=O)N2CCN(C(=O)c3ncccc3O)CC2)n1C (nonaromatic ring conformer: 131.228481828116 kcal/mol)

>  <smiles>  (2495) 
C=c1c(=Cc2[nH]c(=O)[nH]c2O)cc(C(=O)N2CCN(C(=O)c3ncccc3O)CC2)n1C

>  <score_type>  (2495) 
oracle

>  <origin>  (2495) 
adg

>  <m_score__min__energy>  (2495) 
-16.609999999999999

>  <m_primary>  (2495) 
energy

$$$$
4:0
     RDKit          3D

 25 27  0  0  0  0  0  0  0  0999 V2000
   53.3930   28.9640   54.5140 C   0  0  0  0  0  0  0  0  0  0  0  0
   54.2730   29.3630   53.5780 C   0  0  0  0  0  0  0  0  0  0  0  0
   55.4940   28.6680   53.5040 C   0  0  0  0  0  0  0  0  0  0  0  0
   56.5540   29.1550   52.7450 C   0  0  0  0  0  0  0  0  0  0  0  0
   56.4380   30.3610   52.0430 C   0  0  0  0  0  0  0  0  0  0  0  0
   57.5980   30.8740   51.2620 C   0  0  0  0  0  0  0  0  0  0  0  0
   58.3030   30.0630   50.6000 O   0  0  0  0  0  0  0  0  0  0  0  0
   57.9490   32.3380   51.1910 C   0  0  0  0  0  0  0  0  0  0  0  0
   58.9450   32.6050   50.0920 C   0  0  0  0  0  0  0  0  0  0  0  0
   58.5080   32.7580   48.7640 C   0  0  0  0  0  0  0  0  0  0  0  0
   59.4280   33.0120   47.7430 C   0  0  0  0  0  0  0  0  0  0  0  0
   60.7910   33.1100   48.0360 C   0  0  0  0  0  0  0  0  0  0  0  0
   61.6820   33.3570   47.0440 F   0  0  0  0  0  0  0  0  0  0  0  0
   61.2360   32.9490   49.3500 C   0  0  0  0  0  0  0  0  0  0  0  0
   60.3190   32.6940   50.3750 C   0  0  0  0  0  0  0  0  0  0  0  0
   55.2090   31.0430   52.0730 C   0  0  0  0  0  0  0  0  0  0  0  0
   54.0860   30.5230   52.7570 C   0  0  0  0  0  0  0  0  0  0  0  0
   52.9040   31.1620   52.5610 C   0  0  0  0  0  0  0  0  0  0  0  0
   52.1890   31.3020   51.2780 C   0  0  0  0  0  0  0  0  0  0  0  0
   52.1720   30.3480   50.3320 N   0  0  0  0  0  0  0  0  0  0  0  0
   51.3310   30.8450   49.4000 C   0  0  0  0  0  0  0  0  0  0  0  0
   51.0630   30.2340   48.3330 O   0  0  0  0  0  0  0  0  0  0  0  0
   50.7900   32.0430   49.7060 N   0  0  0  0  0  0  0  0  0  0  0  0
   51.3320   32.3130   50.9040 C   0  0  0  0  0  0  0  0  0  0  0  0
   51.0230   33.4440   51.6510 O   0  0  0  0  0  0  0  0  0  0  0  0
  1  2  2  0
  2  3  1  0
  3  4  2  0
  4  5  1  0
  5  6  1  0
  6  7  2  0
  6  8  1  0
  8  9  1  0
  9 10  2  0
 10 11  1  0
 11 12  2  0
 12 13  1  0
 12 14  1  0
 14 15  2  0
  5 16  2  0
 16 17  1  0
 17 18  2  3
 18 19  1  0
 19 20  1  0
 20 21  1  0
 21 22  2  0
 21 23  1  0
 23 24  1  0
 24 25  1  0
 17  2  1  0
 24 19  2  0
 15  9  1  0
M  CHG  3  20  -1  23  -1  25  -1
M  END
>  <UniqueID>  (2496) 
4

>  <SMILES>  (2496) 
C=c1ccc(C(=O)Cc2ccc(F)cc2)cc1=Cc1[n-]c(=O)[n-]c1[O-]

>  <Energy>  (2496) 
91.31492908725204

>  <Genealogy>  (2496) 
C=c1ccc(C(=O)Cc2ccc(F)cc2)cc1=Cc1[n-]c(=O)[n-]c1[O-] (protonated)
C=c1ccc(C(=O)Cc2ccc(F)cc2)cc1=Cc1[n-]c(=O)[n-]c1[O-] (3D coordinates assigned)
C=c1ccc(C(=O)Cc2ccc(F)cc2)cc1=Cc1[n-]c(=O)[n-]c1[O-] (optimized conformer: 91.31492908725204 kcal/mol)

>  <smiles>  (2496) 
C=c1ccc(C(=O)Cc2ccc(F)cc2)cc1=Cc1[nH]c(=O)[nH]c1O

>  <score_type>  (2496) 
oracle

>  <origin>  (2496) 
adg

>  <m_score__min__energy>  (2496) 
-17.18

>  <m_primary>  (2496) 
energy

$$$$
13:0
     RDKit          3D

 31 34  0  0  0  0  0  0  0  0999 V2000
   54.6260   30.6920   51.3300 C   0  0  0  0  0  0  0  0  0  0  0  0
   54.4370   30.6430   52.6580 C   0  0  0  0  0  0  0  0  0  0  0  0
   53.2220   30.4570   53.3390 C   0  0  0  0  0  0  0  0  0  0  0  0
   51.9490   30.4660   52.8980 C   0  0  0  0  0  0  0  0  0  0  0  0
   51.5130   30.8170   51.5370 C   0  0  0  0  0  0  0  0  0  0  0  0
   51.7220   30.0580   50.4450 N   0  0  0  0  0  0  0  0  0  0  0  0
   51.2910   30.8410   49.4340 C   0  0  0  0  0  0  0  0  0  0  0  0
   51.3100   30.4690   48.2320 O   0  0  0  0  0  0  0  0  0  0  0  0
   50.8490   32.0610   49.8100 N   0  0  0  0  0  0  0  0  0  0  0  0
   51.0100   32.0320   51.1430 C   0  0  0  0  0  0  0  0  0  0  0  0
   50.7130   33.0990   51.9800 O   0  0  0  0  0  0  0  0  0  0  0  0
   53.5500   30.2670   54.6720 C   0  0  0  0  0  0  0  0  0  0  0  0
   54.9200   30.4000   54.7700 C   0  0  0  0  0  0  0  0  0  0  0  0
   55.7040   30.2950   56.0420 C   0  0  0  0  0  0  0  0  0  0  0  0
   55.4560   30.6430   53.5530 N   0  0  0  0  0  0  0  0  0  0  0  0
   56.8600   30.7700   53.2760 C   0  0  0  0  0  0  0  0  0  0  0  0
   57.4470   32.0390   53.1840 C   0  0  0  0  0  0  0  0  0  0  0  0
   58.8080   32.1670   52.8970 C   0  0  0  0  0  0  0  0  0  0  0  0
   59.6030   31.0250   52.6980 C   0  0  0  0  0  0  0  0  0  0  0  0
   61.0020   31.1560   52.3860 N   0  0  0  0  0  0  0  0  0  0  0  0
   61.6870   32.4300   52.6470 C   0  0  0  0  0  0  0  0  0  0  0  0
   63.1240   32.4290   52.1040 C   0  0  0  0  0  0  0  0  0  0  0  0
   63.1760   31.8290   50.7590 N   0  0  0  0  0  0  0  0  0  0  0  0
   64.0500   32.3510   49.7340 C   0  0  0  0  0  0  0  0  0  0  0  0
   63.9230   31.9540   48.5430 O   0  0  0  0  0  0  0  0  0  0  0  0
   65.1070   33.3680   50.0360 C   0  0  0  0  0  0  0  0  0  0  0  0
   62.4260   30.5930   50.4780 C   0  0  0  0  0  0  0  0  0  0  0  0
   61.7260   30.0620   51.7300 C   0  0  0  0  0  0  0  0  0  0  0  0
   59.0090   29.7540   52.7830 C   0  0  0  0  0  0  0  0  0  0  0  0
   57.6460   29.6260   53.0710 C   0  0  0  0  0  0  0  0  0  0  0  0
   57.0920   28.3920   53.1560 F   0  0  0  0  0  0  0  0  0  0  0  0
  1  2  2  0
  2  3  1  0
  3  4  2  0
  4  5  1  0
  5  6  1  0
  6  7  1  0
  7  8  2  0
  7  9  1  0
  9 10  1  0
 10 11  1  0
  3 12  1  0
 12 13  2  0
 13 14  1  0
 13 15  1  0
 15 16  1  0
 16 17  2  0
 17 18  1  0
 18 19  2  0
 19 20  1  0
 20 21  1  0
 21 22  1  0
 22 23  1  0
 23 24  1  0
 24 25  2  0
 24 26  1  0
 23 27  1  0
 27 28  1  0
 19 29  1  0
 29 30  2  0
 30 31  1  0
 15  2  1  0
 30 16  1  0
 10  5  2  0
 28 20  1  0
M  CHG  3   6  -1   9  -1  11  -1
M  END
>  <UniqueID>  (2497) 
13

>  <SMILES>  (2497) 
C=c1/c(=C\c2[n-]c(=O)[n-]c2[O-])cc(C)n1-c1ccc(N2CCN(C(C)=O)CC2)cc1F

>  <Energy>  (2497) 
134.38097770159152

>  <Genealogy>  (2497) 
C=c1c(=Cc2[n-]c(=O)[n-]c2[O-])cc(C)n1-c1ccc(N2CCN(C(C)=O)CC2)cc1F (protonated)
C=c1/c(=C\c2[n-]c(=O)[n-]c2[O-])cc(C)n1-c1ccc(N2CCN(C(C)=O)CC2)cc1F (cis-trans isomerization)
C=c1/c(=C\c2[n-]c(=O)[n-]c2[O-])cc(C)n1-c1ccc(N2CCN(C(C)=O)CC2)cc1F (3D coordinates assigned)
C=c1/c(=C\c2[n-]c(=O)[n-]c2[O-])cc(C)n1-c1ccc(N2CCN(C(C)=O)CC2)cc1F (nonaromatic ring conformer: 134.38097770159152 kcal/mol)

>  <smiles>  (2497) 
C=c1c(=Cc2[nH]c(=O)[nH]c2O)cc(C)n1-c1ccc(N2CCN(C(C)=O)CC2)cc1F

>  <score_type>  (2497) 
oracle

>  <origin>  (2497) 
adg

>  <m_score__min__energy>  (2497) 
-15.81

>  <m_primary>  (2497) 
energy

$$$$
18:0
     RDKit          3D

 27 29  0  0  0  0  0  0  0  0999 V2000
   57.4160   29.5860   43.4780 C   0  0  0  0  0  0  0  0  0  0  0  0
   57.7980   29.3390   44.7410 C   0  0  0  0  0  0  0  0  0  0  0  0
   57.9680   28.0780   45.3410 C   0  0  0  0  0  0  0  0  0  0  0  0
   57.6750   26.8370   44.9040 C   0  0  0  0  0  0  0  0  0  0  0  0
   57.0570   25.7680   45.7020 C   0  0  0  0  0  0  0  0  0  0  0  0
   57.7370   24.7170   46.1910 N   0  0  0  0  0  0  0  0  0  0  0  0
   56.8230   24.0810   46.9550 C   0  0  0  0  0  0  0  0  0  0  0  0
   57.0820   23.0190   47.5790 O   0  0  0  0  0  0  0  0  0  0  0  0
   55.6130   24.6790   47.0090 N   0  0  0  0  0  0  0  0  0  0  0  0
   55.7830   25.7540   46.2230 C   0  0  0  0  0  0  0  0  0  0  0  0
   54.8020   26.7150   46.0080 O   0  0  0  0  0  0  0  0  0  0  0  0
   58.5250   28.3130   46.5860 C   0  0  0  0  0  0  0  0  0  0  0  0
   58.6280   29.6800   46.7250 C   0  0  0  0  0  0  0  0  0  0  0  0
   59.1360   30.3500   47.9390 C   0  0  0  0  0  0  0  0  0  0  0  0
   58.5240   30.1390   49.0220 O   0  0  0  0  0  0  0  0  0  0  0  0
   60.3490   31.1530   47.9490 N   0  0  0  0  0  0  0  0  0  0  0  0
   60.0960   32.5990   47.7660 C   0  0  0  0  0  0  0  0  0  0  0  0
   61.4190   33.3450   47.5590 C   0  0  0  0  0  0  0  0  0  0  0  0
   62.4530   32.8690   48.4870 N   0  0  0  0  0  0  0  0  0  0  0  0
   63.8020   33.3690   48.3390 C   0  0  0  0  0  0  0  0  0  0  0  0
   64.0820   34.1370   47.3760 O   0  0  0  0  0  0  0  0  0  0  0  0
   64.9020   32.9910   49.2890 C   0  0  0  0  0  0  0  0  0  0  0  0
   62.0440   32.0410   49.6310 C   0  0  0  0  0  0  0  0  0  0  0  0
   61.1270   30.8810   49.1900 C   0  0  0  0  0  0  0  0  0  0  0  0
   58.1900   30.3080   45.6100 N   0  0  0  0  0  0  0  0  0  0  0  0
   58.1300   31.7660   45.4180 C   0  0  0  0  0  0  0  0  0  0  0  0
   56.7760   32.1690   44.8480 C   0  0  0  0  0  0  0  0  0  0  0  0
  1  2  2  0
  2  3  1  0
  3  4  2  0
  4  5  1  0
  5  6  1  0
  6  7  1  0
  7  8  2  0
  7  9  1  0
  9 10  1  0
 10 11  1  0
  3 12  1  0
 12 13  2  0
 13 14  1  0
 14 15  2  0
 14 16  1  0
 16 17  1  0
 17 18  1  0
 18 19  1  0
 19 20  1  0
 20 21  2  0
 20 22  1  0
 19 23  1  0
 23 24  1  0
 13 25  1  0
 25 26  1  0
 26 27  1  0
 25  2  1  0
 10  5  2  0
 24 16  1  0
M  CHG  4   6  -1   9  -1  11  -1  16   1
M  END
>  <UniqueID>  (2498) 
18

>  <SMILES>  (2498) 
C=c1/c(=C\c2[n-]c(=O)[n-]c2[O-])cc(C(=O)[NH+]2CCN(C(C)=O)CC2)n1CC

>  <Energy>  (2498) 
133.9108360510568

>  <Genealogy>  (2498) 
C=c1c(=Cc2[n-]c(=O)[n-]c2[O-])cc(C(=O)[NH+]2CCN(C(C)=O)CC2)n1CC (protonated)
C=c1/c(=C\c2[n-]c(=O)[n-]c2[O-])cc(C(=O)[NH+]2CCN(C(C)=O)CC2)n1CC (cis-trans isomerization)
C=c1/c(=C\c2[n-]c(=O)[n-]c2[O-])cc(C(=O)[NH+]2CCN(C(C)=O)CC2)n1CC (3D coordinates assigned)
C=c1/c(=C\c2[n-]c(=O)[n-]c2[O-])cc(C(=O)[NH+]2CCN(C(C)=O)CC2)n1CC (nonaromatic ring conformer: 133.9108360510568 kcal/mol)

>  <smiles>  (2498) 
C=c1c(=Cc2[nH]c(=O)[nH]c2O)cc(C(=O)N2CCN(C(C)=O)CC2)n1CC

>  <score_type>  (2498) 
oracle

>  <origin>  (2498) 
adg

>  <m_score__min__energy>  (2498) 
-15.18

>  <m_primary>  (2498) 
energy

$$$$
23:0
     RDKit          3D

 30 33  0  0  0  0  0  0  0  0999 V2000
   57.0820   33.2830   47.2830 O   0  0  0  0  0  0  0  0  0  0  0  0
   58.4720   33.3980   47.3130 C   0  0  0  0  0  0  0  0  0  0  0  0
   59.0990   34.2370   46.3850 C   0  0  0  0  0  0  0  0  0  0  0  0
   60.4890   34.3750   46.3830 C   0  0  0  0  0  0  0  0  0  0  0  0
   61.2630   33.6740   47.3100 C   0  0  0  0  0  0  0  0  0  0  0  0
   60.6490   32.8340   48.2410 C   0  0  0  0  0  0  0  0  0  0  0  0
   59.2540   32.6890   48.2500 C   0  0  0  0  0  0  0  0  0  0  0  0
   58.6500   31.8220   49.2180 N   0  0  0  0  0  0  0  0  0  0  0  0
   57.7220   32.3720   50.2090 C   0  0  0  0  0  0  0  0  0  0  0  0
   57.9350   31.6820   51.5560 C   0  0  0  0  0  0  0  0  0  0  0  0
   57.9740   30.2250   51.3740 N   0  0  0  0  0  0  0  0  0  0  0  0
   57.3760   29.3550   52.3510 C   0  0  0  0  0  0  0  0  0  0  0  0
   58.0090   28.3410   52.7530 O   0  0  0  0  0  0  0  0  0  0  0  0
   55.9970   29.5950   52.8310 C   0  0  0  0  0  0  0  0  0  0  0  0
   55.1800   30.5940   52.3390 C   0  0  0  0  0  0  0  0  0  0  0  0
   53.9470   30.4470   52.9530 C   0  0  0  0  0  0  0  0  0  0  0  0
   52.8500   31.1950   52.7230 C   0  0  0  0  0  0  0  0  0  0  0  0
   52.1790   31.2880   51.4130 C   0  0  0  0  0  0  0  0  0  0  0  0
   52.1900   30.2960   50.5060 N   0  0  0  0  0  0  0  0  0  0  0  0
   51.4040   30.7690   49.5140 C   0  0  0  0  0  0  0  0  0  0  0  0
   51.1760   30.1180   48.4610 O   0  0  0  0  0  0  0  0  0  0  0  0
   50.8720   31.9890   49.7440 N   0  0  0  0  0  0  0  0  0  0  0  0
   51.3620   32.2990   50.9550 C   0  0  0  0  0  0  0  0  0  0  0  0
   51.0280   33.4590   51.6430 O   0  0  0  0  0  0  0  0  0  0  0  0
   54.0600   29.3350   53.7940 C   0  0  0  0  0  0  0  0  0  0  0  0
   53.0780   28.8110   54.5470 C   0  0  0  0  0  0  0  0  0  0  0  0
   55.3250   28.8400   53.7340 N   0  0  0  0  0  0  0  0  0  0  0  0
   55.8600   27.6950   54.4810 C   0  0  0  0  0  0  0  0  0  0  0  0
   58.9240   29.6860   50.3940 C   0  0  0  0  0  0  0  0  0  0  0  0
   58.7250   30.3700   49.0410 C   0  0  0  0  0  0  0  0  0  0  0  0
  1  2  1  0
  2  3  2  0
  3  4  1  0
  4  5  2  0
  5  6  1  0
  6  7  2  0
  7  8  1  0
  8  9  1  0
  9 10  1  0
 10 11  1  0
 11 12  1  0
 12 13  2  0
 12 14  1  0
 14 15  2  0
 15 16  1  0
 16 17  2  0
 17 18  1  0
 18 19  1  0
 19 20  1  0
 20 21  2  0
 20 22  1  0
 22 23  1  0
 23 24  1  0
 16 25  1  0
 25 26  2  0
 25 27  1  0
 27 28  1  0
 11 29  1  0
 29 30  1  0
  7  2  1  0
 30  8  1  0
 27 14  1  0
 23 18  2  0
M  CHG  3  19  -1  22  -1  24  -1
M  END
>  <UniqueID>  (2499) 
22

>  <SMILES>  (2499) 
C=c1/c(=C/c2[n-]c(=O)[n-]c2[O-])cc(C(=O)N2CCN(c3ccccc3O)CC2)n1C

>  <Energy>  (2499) 
127.92619171614838

>  <Genealogy>  (2499) 
C=c1c(=Cc2[n-]c(=O)[n-]c2[O-])cc(C(=O)N2CCN(c3ccccc3O)CC2)n1C (protonated)
C=c1/c(=C/c2[n-]c(=O)[n-]c2[O-])cc(C(=O)N2CCN(c3ccccc3O)CC2)n1C (cis-trans isomerization)
C=c1/c(=C/c2[n-]c(=O)[n-]c2[O-])cc(C(=O)N2CCN(c3ccccc3O)CC2)n1C (3D coordinates assigned)
C=c1/c(=C/c2[n-]c(=O)[n-]c2[O-])cc(C(=O)N2CCN(c3ccccc3O)CC2)n1C (nonaromatic ring conformer: 127.92619171614838 kcal/mol)

>  <smiles>  (2499) 
C=c1c(=Cc2[nH]c(=O)[nH]c2O)cc(C(=O)N2CCN(c3ccccc3O)CC2)n1C

>  <score_type>  (2499) 
oracle

>  <origin>  (2499) 
adg

>  <m_score__min__energy>  (2499) 
-17.629999999999999

>  <m_primary>  (2499) 
energy

$$$$
33:0
     RDKit          3D

 29 32  0  0  0  0  0  0  0  0999 V2000
   58.1940   30.6110   47.2380 C   0  0  0  0  0  0  0  0  0  0  0  0
   57.9600   30.4530   45.9250 C   0  0  0  0  0  0  0  0  0  0  0  0
   58.1220   29.2780   45.1700 C   0  0  0  0  0  0  0  0  0  0  0  0
   58.3840   28.0100   45.5450 C   0  0  0  0  0  0  0  0  0  0  0  0
   57.3760   26.9720   45.8350 C   0  0  0  0  0  0  0  0  0  0  0  0
   56.0030   27.2240   45.6710 C   0  0  0  0  0  0  0  0  0  0  0  0
   55.5530   28.4740   45.2660 O   0  0  0  0  0  0  0  0  0  0  0  0
   55.1010   26.2360   45.9050 N   0  0  0  0  0  0  0  0  0  0  0  0
   55.5040   24.9940   46.2800 C   0  0  0  0  0  0  0  0  0  0  0  0
   54.6500   24.0940   46.4950 O   0  0  0  0  0  0  0  0  0  0  0  0
   56.8260   24.7190   46.4160 N   0  0  0  0  0  0  0  0  0  0  0  0
   57.7670   25.6730   46.1950 C   0  0  0  0  0  0  0  0  0  0  0  0
   58.9870   25.3820   46.3240 O   0  0  0  0  0  0  0  0  0  0  0  0
   57.9420   29.6410   43.8480 C   0  0  0  0  0  0  0  0  0  0  0  0
   57.6390   30.9860   43.8360 C   0  0  0  0  0  0  0  0  0  0  0  0
   57.3550   31.7810   42.5980 C   0  0  0  0  0  0  0  0  0  0  0  0
   57.6280   31.4800   45.0970 N   0  0  0  0  0  0  0  0  0  0  0  0
   57.4110   32.8860   45.4640 C   0  0  0  0  0  0  0  0  0  0  0  0
   58.7010   33.5150   45.8800 C   0  0  0  0  0  0  0  0  0  0  0  0
   59.5720   32.9510   46.7370 N   0  0  0  0  0  0  0  0  0  0  0  0
   60.5390   33.8920   46.7950 C   0  0  0  0  0  0  0  0  0  0  0  0
   61.7580   33.7690   47.6210 C   0  0  0  0  0  0  0  0  0  0  0  0
   62.9560   33.2920   47.0560 C   0  0  0  0  0  0  0  0  0  0  0  0
   64.1080   33.1760   47.8400 C   0  0  0  0  0  0  0  0  0  0  0  0
   64.0780   33.5320   49.1900 C   0  0  0  0  0  0  0  0  0  0  0  0
   62.8940   34.0070   49.7600 C   0  0  0  0  0  0  0  0  0  0  0  0
   61.7380   34.1250   48.9810 C   0  0  0  0  0  0  0  0  0  0  0  0
   60.2620   34.9590   46.0170 N   0  0  0  0  0  0  0  0  0  0  0  0
   59.1180   34.6870   45.4680 O   0  0  0  0  0  0  0  0  0  0  0  0
  1  2  2  0
  2  3  1  0
  3  4  2  3
  4  5  1  0
  5  6  2  0
  6  7  1  0
  6  8  1  0
  8  9  1  0
  9 10  2  0
  9 11  1  0
 11 12  1  0
 12 13  2  0
  3 14  1  0
 14 15  2  0
 15 16  1  0
 15 17  1  0
 17 18  1  0
 18 19  1  0
 19 20  2  0
 20 21  1  0
 21 22  1  0
 22 23  2  0
 23 24  1  0
 24 25  2  0
 25 26  1  0
 26 27  2  0
 21 28  2  0
 28 29  1  0
 17  2  1  0
 29 19  1  0
 12  5  1  0
 27 22  1  0
M  CHG  3   7  -1   8  -1  11  -1
M  END
>  <UniqueID>  (2500) 
32

>  <SMILES>  (2500) 
C=c1c(=Cc2c([O-])[n-]c(=O)[n-]c2=O)cc(C)n1Cc1nc(-c2ccccc2)no1

>  <Energy>  (2500) 
122.16865211456397

>  <Genealogy>  (2500) 
C=c1c(=Cc2c([O-])[n-]c(=O)[n-]c2=O)cc(C)n1Cc1nc(-c2ccccc2)no1 (protonated)
C=c1c(=Cc2c([O-])[n-]c(=O)[n-]c2=O)cc(C)n1Cc1nc(-c2ccccc2)no1 (3D coordinates assigned)
C=c1c(=Cc2c([O-])[n-]c(=O)[n-]c2=O)cc(C)n1Cc1nc(-c2ccccc2)no1 (optimized conformer: 122.16865211456397 kcal/mol)

>  <smiles>  (2500) 
C=c1c(=Cc2c(O)[nH]c(=O)[nH]c2=O)cc(C)n1Cc1nc(-c2ccccc2)no1

>  <score_type>  (2500) 
oracle

>  <origin>  (2500) 
adg

>  <m_score__min__energy>  (2500) 
-16.649999999999999

>  <m_primary>  (2500) 
energy

$$$$
34:0
     RDKit          3D

 26 28  0  0  0  0  0  0  0  0999 V2000
   56.2640   32.7120   52.3710 O   0  0  0  0  0  0  0  0  0  0  0  0
   56.3900   31.5460   51.9070 C   0  0  0  0  0  0  0  0  0  0  0  0
   57.7370   30.9010   51.8550 C   0  0  0  0  0  0  0  0  0  0  0  0
   58.5700   31.5530   50.7840 C   0  0  0  0  0  0  0  0  0  0  0  0
   58.8620   32.9250   50.8510 C   0  0  0  0  0  0  0  0  0  0  0  0
   59.5820   33.5420   49.8240 C   0  0  0  0  0  0  0  0  0  0  0  0
   59.9930   32.8020   48.7100 C   0  0  0  0  0  0  0  0  0  0  0  0
   60.9210   33.5930   47.3930 S   0  0  0  0  0  0  0  0  0  0  0  0
   59.5530   33.5800   46.1730 C   0  0  0  0  0  0  0  0  0  0  0  0
   59.2440   32.1480   45.7130 C   0  0  0  0  0  0  0  0  0  0  0  0
   57.9930   32.1100   44.8040 C   0  0  0  0  0  0  0  0  0  0  0  0
   57.3020   33.3470   44.7540 O   0  0  0  0  0  0  0  0  0  0  0  0
   57.0150   33.7930   46.0660 C   0  0  0  0  0  0  0  0  0  0  0  0
   58.3010   34.2190   46.7990 C   0  0  0  0  0  0  0  0  0  0  0  0
   59.7030   31.4340   48.6370 C   0  0  0  0  0  0  0  0  0  0  0  0
   58.9910   30.8130   49.6670 C   0  0  0  0  0  0  0  0  0  0  0  0
   55.2570   30.8480   51.3880 N   0  0  0  0  0  0  0  0  0  0  0  0
   54.2440   30.2320   52.2330 C   0  0  0  0  0  0  0  0  0  0  0  0
   53.0640   31.1860   52.4190 C   0  0  0  0  0  0  0  0  0  0  0  0
   52.2470   31.2870   51.1650 C   0  0  0  0  0  0  0  0  0  0  0  0
   52.2510   30.3660   50.1850 N   0  0  0  0  0  0  0  0  0  0  0  0
   51.3340   30.8370   49.3110 C   0  0  0  0  0  0  0  0  0  0  0  0
   51.0560   30.2460   48.2370 O   0  0  0  0  0  0  0  0  0  0  0  0
   50.7400   31.9930   49.6800 N   0  0  0  0  0  0  0  0  0  0  0  0
   51.3250   32.2600   50.8580 C   0  0  0  0  0  0  0  0  0  0  0  0
   51.0240   33.3720   51.6360 O   0  0  0  0  0  0  0  0  0  0  0  0
  1  2  2  0
  2  3  1  0
  3  4  1  0
  4  5  2  0
  5  6  1  0
  6  7  2  0
  7  8  1  0
  8  9  1  0
  9 10  1  0
 10 11  1  0
 11 12  1  0
 12 13  1  0
 13 14  1  0
  7 15  1  0
 15 16  2  0
  2 17  1  0
 17 18  1  0
 18 19  1  0
 19 20  1  0
 20 21  1  0
 21 22  1  0
 22 23  2  0
 22 24  1  0
 24 25  1  0
 25 26  1  0
 16  4  1  0
 25 20  2  0
 14  9  1  0
M  CHG  4  17  -1  21  -1  24  -1  26  -1
M  END
>  <UniqueID>  (2501) 
33

>  <SMILES>  (2501) 
O=C(Cc1ccc(SC2CCOCC2)cc1)[N-]CCc1[n-]c(=O)[n-]c1[O-]

>  <Energy>  (2501) 
67.26601941738602

>  <Genealogy>  (2501) 
O=C(Cc1ccc(SC2CCOCC2)cc1)[N-]CCc1[n-]c(=O)[n-]c1[O-] (protonated)
O=C(Cc1ccc(SC2CCOCC2)cc1)[N-]CCc1[n-]c(=O)[n-]c1[O-] (3D coordinates assigned)
O=C(Cc1ccc(SC2CCOCC2)cc1)[N-]CCc1[n-]c(=O)[n-]c1[O-] (nonaromatic ring conformer: 67.26601941738602 kcal/mol)

>  <smiles>  (2501) 
O=C(Cc1ccc(SC2CCOCC2)cc1)NCCc1[nH]c(=O)[nH]c1O

>  <score_type>  (2501) 
oracle

>  <origin>  (2501) 
adg

>  <m_score__min__energy>  (2501) 
-18.620000000000001

>  <m_primary>  (2501) 
energy

$$$$
36:0
     RDKit          3D

 36 39  0  0  0  0  0  0  0  0999 V2000
   56.7500   26.7340   46.1870 C   0  0  0  0  0  0  0  0  0  0  0  0
   57.0150   27.9510   45.6830 C   0  0  0  0  0  0  0  0  0  0  0  0
   55.9880   28.5750   45.0560 N   0  0  0  0  0  0  0  0  0  0  0  0
   56.1120   29.7800   44.4610 C   0  0  0  0  0  0  0  0  0  0  0  0
   55.1040   30.2810   43.8920 O   0  0  0  0  0  0  0  0  0  0  0  0
   57.3110   30.4370   44.4780 N   0  0  0  0  0  0  0  0  0  0  0  0
   57.4350   31.7730   43.8540 C   0  0  0  0  0  0  0  0  0  0  0  0
   57.9120   32.7880   44.8610 C   0  0  0  0  0  0  0  0  0  0  0  0
   57.4860   32.7130   46.1980 C   0  0  0  0  0  0  0  0  0  0  0  0
   57.9470   33.6380   47.1390 C   0  0  0  0  0  0  0  0  0  0  0  0
   58.8380   34.6430   46.7540 C   0  0  0  0  0  0  0  0  0  0  0  0
   59.2670   34.7260   45.4270 C   0  0  0  0  0  0  0  0  0  0  0  0
   58.8090   33.8020   44.4830 C   0  0  0  0  0  0  0  0  0  0  0  0
   58.3870   29.8790   45.1220 C   0  0  0  0  0  0  0  0  0  0  0  0
   59.4570   30.5450   45.2030 O   0  0  0  0  0  0  0  0  0  0  0  0
   58.2930   28.5910   45.7340 C   0  0  0  0  0  0  0  0  0  0  0  0
   59.3540   28.0180   46.3760 C   0  0  0  0  0  0  0  0  0  0  0  0
   59.7880   28.2940   47.7630 C   0  0  0  0  0  0  0  0  0  0  0  0
   59.7220   29.6010   48.2760 C   0  0  0  0  0  0  0  0  0  0  0  0
   60.1700   29.8820   49.5800 C   0  0  0  0  0  0  0  0  0  0  0  0
   60.0780   31.2500   50.1460 C   0  0  0  0  0  0  0  0  0  0  0  0
   59.2110   32.0460   49.6920 O   0  0  0  0  0  0  0  0  0  0  0  0
   60.9480   31.6770   51.2070 N   0  0  0  0  0  0  0  0  0  0  0  0
   60.9560   33.0500   51.7070 C   0  0  0  0  0  0  0  0  0  0  0  0
   62.1890   33.8000   51.1940 C   0  0  0  0  0  0  0  0  0  0  0  0
   62.4720   33.4370   49.7590 C   0  0  0  0  0  0  0  0  0  0  0  0
   63.5180   32.5500   49.4520 C   0  0  0  0  0  0  0  0  0  0  0  0
   63.7660   32.1850   48.1260 C   0  0  0  0  0  0  0  0  0  0  0  0
   62.9670   32.6940   47.0980 C   0  0  0  0  0  0  0  0  0  0  0  0
   61.9160   33.5640   47.3960 C   0  0  0  0  0  0  0  0  0  0  0  0
   61.6620   33.9340   48.7200 C   0  0  0  0  0  0  0  0  0  0  0  0
   60.6270   34.7700   48.9900 F   0  0  0  0  0  0  0  0  0  0  0  0
   60.6910   28.8350   50.3610 C   0  0  0  0  0  0  0  0  0  0  0  0
   60.7880   27.5420   49.8400 C   0  0  0  0  0  0  0  0  0  0  0  0
   60.3480   27.2710   48.5430 C   0  0  0  0  0  0  0  0  0  0  0  0
   60.4590   25.9780   48.0400 O   0  0  0  0  0  0  0  0  0  0  0  0
  1  2  2  0
  2  3  1  0
  3  4  1  0
  4  5  2  0
  4  6  1  0
  6  7  1  0
  7  8  1  0
  8  9  2  0
  9 10  1  0
 10 11  2  0
 11 12  1  0
 12 13  2  0
  6 14  1  0
 14 15  2  0
 14 16  1  0
 16 17  2  0
 17 18  1  0
 18 19  2  0
 19 20  1  0
 20 21  1  0
 21 22  2  0
 21 23  1  0
 23 24  1  0
 24 25  1  0
 25 26  1  0
 26 27  2  0
 27 28  1  0
 28 29  2  0
 29 30  1  0
 30 31  2  0
 31 32  1  0
 20 33  2  0
 33 34  1  0
 34 35  2  0
 35 36  1  0
 16  2  1  0
 35 18  1  0
 13  8  1  0
 31 26  1  0
M  CHG  2   3  -1  36  -1
M  END
>  <UniqueID>  (2502) 
35

>  <SMILES>  (2502) 
C=c1[n-]c(=O)n(Cc2ccccc2)c(=O)/c1=C\c1cc(C(=O)NCCc2ccccc2F)ccc1[O-]

>  <Energy>  (2502) 
86.27655994836641

>  <Genealogy>  (2502) 
C=c1[n-]c(=O)n(Cc2ccccc2)c(=O)c1=Cc1cc(C(=O)NCCc2ccccc2F)ccc1[O-] (protonated)
C=c1[n-]c(=O)n(Cc2ccccc2)c(=O)/c1=C\c1cc(C(=O)NCCc2ccccc2F)ccc1[O-] (cis-trans isomerization)
C=c1[n-]c(=O)n(Cc2ccccc2)c(=O)/c1=C\c1cc(C(=O)NCCc2ccccc2F)ccc1[O-] (3D coordinates assigned)
C=c1[n-]c(=O)n(Cc2ccccc2)c(=O)/c1=C\c1cc(C(=O)NCCc2ccccc2F)ccc1[O-] (optimized conformer: 86.27655994836641 kcal/mol)

>  <smiles>  (2502) 
C=c1[nH]c(=O)n(Cc2ccccc2)c(=O)c1=Cc1cc(C(=O)NCCc2ccccc2F)ccc1O

>  <score_type>  (2502) 
oracle

>  <origin>  (2502) 
adg

>  <m_score__min__energy>  (2502) 
-14.300000000000001

>  <m_primary>  (2502) 
energy

$$$$
38:0
     RDKit          3D

 39 43  0  0  0  0  0  0  0  0999 V2000
   57.8070   24.6240   47.0930 C   0  0  0  0  0  0  0  0  0  0  0  0
   57.9610   25.5760   46.1540 C   0  0  0  0  0  0  0  0  0  0  0  0
   57.4740   25.5440   44.8380 C   0  0  0  0  0  0  0  0  0  0  0  0
   56.5870   24.7220   44.2410 C   0  0  0  0  0  0  0  0  0  0  0  0
   55.2590   24.3660   44.7650 C   0  0  0  0  0  0  0  0  0  0  0  0
   54.7000   23.1470   44.6650 N   0  0  0  0  0  0  0  0  0  0  0  0
   53.5760   23.2590   45.4090 C   0  0  0  0  0  0  0  0  0  0  0  0
   52.7630   22.3100   45.5540 O   0  0  0  0  0  0  0  0  0  0  0  0
   53.4020   24.4630   45.9980 N   0  0  0  0  0  0  0  0  0  0  0  0
   54.4860   25.1440   45.5960 C   0  0  0  0  0  0  0  0  0  0  0  0
   54.7720   26.4450   45.9930 O   0  0  0  0  0  0  0  0  0  0  0  0
   58.0920   26.5870   44.1720 C   0  0  0  0  0  0  0  0  0  0  0  0
   58.8640   27.2540   45.0970 C   0  0  0  0  0  0  0  0  0  0  0  0
   59.6690   28.4840   44.8010 C   0  0  0  0  0  0  0  0  0  0  0  0
   58.7860   26.6460   46.3030 N   0  0  0  0  0  0  0  0  0  0  0  0
   59.4750   27.0570   47.5000 C   0  0  0  0  0  0  0  0  0  0  0  0
   60.4370   26.3700   47.9380 O   0  0  0  0  0  0  0  0  0  0  0  0
   59.0290   28.2150   48.2200 N   0  0  0  0  0  0  0  0  0  0  0  0
   59.7990   28.9830   49.1580 C   0  0  0  0  0  0  0  0  0  0  0  0
   60.3980   28.3970   50.2860 C   0  0  0  0  0  0  0  0  0  0  0  0
   61.1750   29.1720   51.1510 C   0  0  0  0  0  0  0  0  0  0  0  0
   61.3760   30.5290   50.8910 C   0  0  0  0  0  0  0  0  0  0  0  0
   60.8000   31.1290   49.7560 C   0  0  0  0  0  0  0  0  0  0  0  0
   61.0550   32.5570   49.4520 C   0  0  0  0  0  0  0  0  0  0  0  0
   61.7460   33.2520   50.2440 O   0  0  0  0  0  0  0  0  0  0  0  0
   60.4890   33.1750   48.2860 N   0  0  0  0  0  0  0  0  0  0  0  0
   60.9060   32.7300   46.9520 C   0  0  0  0  0  0  0  0  0  0  0  0
   59.7560   32.9140   45.9580 C   0  0  0  0  0  0  0  0  0  0  0  0
   59.2330   34.2970   46.0110 N   0  0  0  0  0  0  0  0  0  0  0  0
   58.1600   34.4600   45.0050 C   0  0  0  0  0  0  0  0  0  0  0  0
   57.7670   33.1280   44.4200 C   0  0  0  0  0  0  0  0  0  0  0  0
   58.1550   32.7820   43.1140 C   0  0  0  0  0  0  0  0  0  0  0  0
   57.7960   31.5400   42.5790 C   0  0  0  0  0  0  0  0  0  0  0  0
   57.0540   30.6350   43.3450 C   0  0  0  0  0  0  0  0  0  0  0  0
   56.6720   30.9690   44.6470 C   0  0  0  0  0  0  0  0  0  0  0  0
   57.0290   32.2100   45.1870 C   0  0  0  0  0  0  0  0  0  0  0  0
   58.7240   34.5980   47.3720 C   0  0  0  0  0  0  0  0  0  0  0  0
   59.8540   34.4880   48.3990 C   0  0  0  0  0  0  0  0  0  0  0  0
   60.0160   30.3410   48.8910 C   0  0  0  0  0  0  0  0  0  0  0  0
  1  2  2  0
  2  3  1  0
  3  4  2  3
  4  5  1  0
  5  6  1  0
  6  7  1  0
  7  8  2  0
  7  9  1  0
  9 10  1  0
 10 11  1  0
  3 12  1  0
 12 13  2  0
 13 14  1  0
 13 15  1  0
 15 16  1  0
 16 17  2  0
 16 18  1  0
 18 19  1  0
 19 20  2  0
 20 21  1  0
 21 22  2  0
 22 23  1  0
 23 24  1  0
 24 25  2  0
 24 26  1  0
 26 27  1  0
 27 28  1  0
 28 29  1  0
 29 30  1  0
 30 31  1  0
 31 32  2  0
 32 33  1  0
 33 34  2  0
 34 35  1  0
 35 36  2  0
 29 37  1  0
 37 38  1  0
 23 39  2  0
 15  2  1  0
 39 19  1  0
 10  5  2  0
 38 26  1  0
 36 31  1  0
M  CHG  4   6  -1   9  -1  11  -1  18  -1
M  END
>  <UniqueID>  (2503) 
37

>  <SMILES>  (2503) 
C=c1c(=Cc2[n-]c(=O)[n-]c2[O-])cc(C)n1C(=O)[N-]c1cccc(C(=O)N2CCN(Cc3ccccc3)CC2)c1

>  <Energy>  (2503) 
151.40394480330602

>  <Genealogy>  (2503) 
C=c1c(=Cc2[n-]c(=O)[n-]c2[O-])cc(C)n1C(=O)[N-]c1cccc(C(=O)N2CCN(Cc3ccccc3)CC2)c1 (protonated)
C=c1c(=Cc2[n-]c(=O)[n-]c2[O-])cc(C)n1C(=O)[N-]c1cccc(C(=O)N2CCN(Cc3ccccc3)CC2)c1 (3D coordinates assigned)
C=c1c(=Cc2[n-]c(=O)[n-]c2[O-])cc(C)n1C(=O)[N-]c1cccc(C(=O)N2CCN(Cc3ccccc3)CC2)c1 (nonaromatic ring conformer: 151.40394480330602 kcal/mol)

>  <smiles>  (2503) 
C=c1c(=Cc2[nH]c(=O)[nH]c2O)cc(C)n1C(=O)Nc1cccc(C(=O)N2CCN(Cc3ccccc3)CC2)c1

>  <score_type>  (2503) 
oracle

>  <origin>  (2503) 
adg

>  <m_score__min__energy>  (2503) 
-19.48

>  <m_primary>  (2503) 
energy

$$$$
39:0
     RDKit          3D

 31 34  0  0  0  0  0  0  0  0999 V2000
   53.6620   28.0300   53.4160 C   0  0  0  0  0  0  0  0  0  0  0  0
   54.4270   29.0220   52.9470 C   0  0  0  0  0  0  0  0  0  0  0  0
   55.7260   29.1400   53.2910 N   0  0  0  0  0  0  0  0  0  0  0  0
   56.1800   30.2870   52.7500 C   0  0  0  0  0  0  0  0  0  0  0  0
   57.5620   30.7720   52.8970 C   0  0  0  0  0  0  0  0  0  0  0  0
   58.0020   31.0460   54.0450 O   0  0  0  0  0  0  0  0  0  0  0  0
   58.4140   30.9320   51.7540 N   0  0  0  0  0  0  0  0  0  0  0  0
   57.9700   31.8150   50.6620 C   0  0  0  0  0  0  0  0  0  0  0  0
   59.1560   32.2600   49.8080 C   0  0  0  0  0  0  0  0  0  0  0  0
   59.8770   31.0820   49.3180 N   0  0  0  0  0  0  0  0  0  0  0  0
   60.2430   30.9590   47.9020 C   0  0  0  0  0  0  0  0  0  0  0  0
   59.0140   31.0840   46.9960 C   0  0  0  0  0  0  0  0  0  0  0  0
   58.9540   32.4340   46.3290 C   0  0  0  0  0  0  0  0  0  0  0  0
   59.9220   33.4120   46.6080 C   0  0  0  0  0  0  0  0  0  0  0  0
   59.8330   34.6640   45.9960 C   0  0  0  0  0  0  0  0  0  0  0  0
   58.8060   34.9350   45.1470 N   0  0  0  0  0  0  0  0  0  0  0  0
   57.8490   34.0090   44.8650 C   0  0  0  0  0  0  0  0  0  0  0  0
   57.9050   32.7430   45.4510 C   0  0  0  0  0  0  0  0  0  0  0  0
   60.1520   30.0250   50.2540 C   0  0  0  0  0  0  0  0  0  0  0  0
   60.8460   29.0310   49.9120 O   0  0  0  0  0  0  0  0  0  0  0  0
   59.6300   30.1070   51.6610 C   0  0  0  0  0  0  0  0  0  0  0  0
   55.1690   30.9270   52.0580 C   0  0  0  0  0  0  0  0  0  0  0  0
   54.0490   30.1150   52.1480 C   0  0  0  0  0  0  0  0  0  0  0  0
   52.8820   30.4080   51.5430 C   0  0  0  0  0  0  0  0  0  0  0  0
   51.8470   31.2990   52.0820 C   0  0  0  0  0  0  0  0  0  0  0  0
   51.4490   31.2870   53.3670 N   0  0  0  0  0  0  0  0  0  0  0  0
   50.5640   32.3060   53.4270 C   0  0  0  0  0  0  0  0  0  0  0  0
   49.9440   32.6040   54.4830 O   0  0  0  0  0  0  0  0  0  0  0  0
   50.3920   32.9770   52.2680 N   0  0  0  0  0  0  0  0  0  0  0  0
   51.2210   32.3390   51.4290 C   0  0  0  0  0  0  0  0  0  0  0  0
   51.4050   32.7160   50.1000 O   0  0  0  0  0  0  0  0  0  0  0  0
  1  2  2  0
  2  3  1  0
  3  4  1  0
  4  5  1  0
  5  6  2  0
  5  7  1  0
  7  8  1  0
  8  9  1  0
  9 10  1  0
 10 11  1  0
 11 12  1  0
 12 13  1  0
 13 14  2  0
 14 15  1  0
 15 16  2  0
 16 17  1  0
 17 18  2  0
 10 19  1  0
 19 20  2  0
 19 21  1  0
  4 22  2  0
 22 23  1  0
 23 24  2  3
 24 25  1  0
 25 26  1  0
 26 27  1  0
 27 28  2  0
 27 29  1  0
 29 30  1  0
 30 31  1  0
 23  2  1  0
 30 25  2  0
 21  7  1  0
 18 13  1  0
M  CHG  2  26  -1  29  -1
M  END
>  <UniqueID>  (2504) 
38

>  <SMILES>  (2504) 
C=c1[nH]c(C(=O)N2CCN(CCc3ccncc3)C(=O)C2)cc1=Cc1[n-]c(=O)[n-]c1O

>  <Energy>  (2504) 
122.20182677011191

>  <Genealogy>  (2504) 
C=c1[nH]c(C(=O)N2CCN(CCc3ccncc3)C(=O)C2)cc1=Cc1[n-]c(=O)[n-]c1O (protonated)
C=c1[nH]c(C(=O)N2CCN(CCc3ccncc3)C(=O)C2)cc1=Cc1[n-]c(=O)[n-]c1O (3D coordinates assigned)
C=c1[nH]c(C(=O)N2CCN(CCc3ccncc3)C(=O)C2)cc1=Cc1[n-]c(=O)[n-]c1O (nonaromatic ring conformer: 122.20182677011191 kcal/mol)

>  <smiles>  (2504) 
C=c1[nH]c(C(=O)N2CCN(CCc3ccncc3)C(=O)C2)cc1=Cc1[nH]c(=O)[nH]c1O

>  <score_type>  (2504) 
oracle

>  <origin>  (2504) 
adg

>  <m_score__min__energy>  (2504) 
-14.210000000000001

>  <m_primary>  (2504) 
energy

$$$$
51:0
     RDKit          3D

 27 29  0  0  0  0  0  0  0  0999 V2000
   53.9310   28.6620   53.7220 C   0  0  0  0  0  0  0  0  0  0  0  0
   54.7450   29.4010   52.9490 C   0  0  0  0  0  0  0  0  0  0  0  0
   56.0500   28.9160   52.7350 C   0  0  0  0  0  0  0  0  0  0  0  0
   57.0390   29.7250   52.1800 C   0  0  0  0  0  0  0  0  0  0  0  0
   56.7470   31.0460   51.8210 C   0  0  0  0  0  0  0  0  0  0  0  0
   57.7560   31.9340   51.3170 N   0  0  0  0  0  0  0  0  0  0  0  0
   58.4820   31.7820   50.0900 C   0  0  0  0  0  0  0  0  0  0  0  0
   58.2770   32.5730   49.1300 O   0  0  0  0  0  0  0  0  0  0  0  0
   59.5360   30.7460   49.9900 C   0  0  0  0  0  0  0  0  0  0  0  0
   60.8480   31.0150   50.1570 C   0  0  0  0  0  0  0  0  0  0  0  0
   61.6360   31.9560   49.3310 C   0  0  0  0  0  0  0  0  0  0  0  0
   62.3540   31.5160   48.2030 C   0  0  0  0  0  0  0  0  0  0  0  0
   63.1180   32.4210   47.4590 C   0  0  0  0  0  0  0  0  0  0  0  0
   63.1870   33.7620   47.8450 C   0  0  0  0  0  0  0  0  0  0  0  0
   62.5010   34.2000   48.9800 C   0  0  0  0  0  0  0  0  0  0  0  0
   61.7360   33.2980   49.7280 C   0  0  0  0  0  0  0  0  0  0  0  0
   59.1190   29.3400   49.6520 C   0  0  0  0  0  0  0  0  0  0  0  0
   55.4510   31.5350   51.9950 C   0  0  0  0  0  0  0  0  0  0  0  0
   54.4060   30.7090   52.4660 C   0  0  0  0  0  0  0  0  0  0  0  0
   53.1500   31.2200   52.4050 C   0  0  0  0  0  0  0  0  0  0  0  0
   52.2530   31.1840   51.2320 C   0  0  0  0  0  0  0  0  0  0  0  0
   52.3060   30.2670   50.2490 N   0  0  0  0  0  0  0  0  0  0  0  0
   51.3880   30.7090   49.3610 C   0  0  0  0  0  0  0  0  0  0  0  0
   51.1300   30.0970   48.2920 O   0  0  0  0  0  0  0  0  0  0  0  0
   50.7730   31.8600   49.7060 N   0  0  0  0  0  0  0  0  0  0  0  0
   51.3420   32.1530   50.8870 C   0  0  0  0  0  0  0  0  0  0  0  0
   51.0370   33.2850   51.6320 O   0  0  0  0  0  0  0  0  0  0  0  0
  1  2  2  0
  2  3  1  0
  3  4  2  0
  4  5  1  0
  5  6  1  0
  6  7  1  0
  7  8  2  0
  7  9  1  0
  9 10  2  0
 10 11  1  0
 11 12  2  0
 12 13  1  0
 13 14  2  0
 14 15  1  0
 15 16  2  0
  9 17  1  0
  5 18  2  0
 18 19  1  0
 19 20  2  3
 20 21  1  0
 21 22  1  0
 22 23  1  0
 23 24  2  0
 23 25  1  0
 25 26  1  0
 26 27  1  0
 19  2  1  0
 26 21  2  0
 16 11  1  0
M  CHG  4   6  -1  22  -1  25  -1  27  -1
M  END
>  <UniqueID>  (2505) 
50

>  <SMILES>  (2505) 
C=c1ccc([N-]C(=O)/C(C)=C\c2ccccc2)cc1=Cc1[n-]c(=O)[n-]c1[O-]

>  <Energy>  (2505) 
105.26807260545364

>  <Genealogy>  (2505) 
C=c1ccc([N-]C(=O)C(C)=Cc2ccccc2)cc1=Cc1[n-]c(=O)[n-]c1[O-] (protonated)
C=c1ccc([N-]C(=O)/C(C)=C\c2ccccc2)cc1=Cc1[n-]c(=O)[n-]c1[O-] (cis-trans isomerization)
C=c1ccc([N-]C(=O)/C(C)=C\c2ccccc2)cc1=Cc1[n-]c(=O)[n-]c1[O-] (3D coordinates assigned)
C=c1ccc([N-]C(=O)/C(C)=C\c2ccccc2)cc1=Cc1[n-]c(=O)[n-]c1[O-] (optimized conformer: 105.26807260545364 kcal/mol)

>  <smiles>  (2505) 
C=c1ccc(NC(=O)C(C)=Cc2ccccc2)cc1=Cc1[nH]c(=O)[nH]c1O

>  <score_type>  (2505) 
oracle

>  <origin>  (2505) 
adg

>  <m_score__min__energy>  (2505) 
-18.789999999999999

>  <m_primary>  (2505) 
energy

$$$$
69:0
     RDKit          3D

 27 28  0  0  0  0  0  0  0  0999 V2000
   59.1310   34.2330   44.8050 C   0  0  0  0  0  0  0  0  0  0  0  0
   59.0210   33.8800   46.2590 C   0  0  0  0  0  0  0  0  0  0  0  0
   58.1740   32.8390   46.6700 C   0  0  0  0  0  0  0  0  0  0  0  0
   58.1000   32.4810   48.0180 C   0  0  0  0  0  0  0  0  0  0  0  0
   58.8740   33.1570   48.9700 C   0  0  0  0  0  0  0  0  0  0  0  0
   58.7610   32.7090   50.6700 S   0  0  0  0  0  0  0  0  0  0  0  0
   57.3510   32.3140   51.0210 O   0  0  0  0  0  0  0  0  0  0  0  0
   59.1710   33.8810   51.5150 O   0  0  0  0  0  0  0  0  0  0  0  0
   59.8220   31.3770   50.9910 N   0  0  0  0  0  0  0  0  0  0  0  0
   59.6060   30.0710   50.4520 C   0  0  0  0  0  0  0  0  0  0  0  0
   58.7390   29.3040   50.9530 O   0  0  0  0  0  0  0  0  0  0  0  0
   60.4130   29.6150   49.2810 C   0  0  0  0  0  0  0  0  0  0  0  0
   60.7380   30.7590   48.4430 N   0  0  0  0  0  0  0  0  0  0  0  0
   61.0290   30.6980   47.0410 C   0  0  0  0  0  0  0  0  0  0  0  0
   61.3220   31.7650   46.4370 O   0  0  0  0  0  0  0  0  0  0  0  0
   60.9760   29.4070   46.2600 C   0  0  0  0  0  0  0  0  0  0  0  0
   60.0150   29.4950   45.0660 C   0  0  0  0  0  0  0  0  0  0  0  0
   58.7340   28.7370   45.3080 C   0  0  0  0  0  0  0  0  0  0  0  0
   58.7730   27.4340   45.8260 C   0  0  0  0  0  0  0  0  0  0  0  0
   57.5850   26.7310   46.0510 C   0  0  0  0  0  0  0  0  0  0  0  0
   56.3480   27.3180   45.7480 C   0  0  0  0  0  0  0  0  0  0  0  0
   55.1600   26.6230   45.9730 O   0  0  0  0  0  0  0  0  0  0  0  0
   56.3080   28.6140   45.2170 C   0  0  0  0  0  0  0  0  0  0  0  0
   55.0860   29.1980   44.8990 O   0  0  0  0  0  0  0  0  0  0  0  0
   57.4970   29.3220   45.0000 C   0  0  0  0  0  0  0  0  0  0  0  0
   59.7400   34.1790   48.5590 C   0  0  0  0  0  0  0  0  0  0  0  0
   59.8210   34.5330   47.2090 C   0  0  0  0  0  0  0  0  0  0  0  0
  1  2  1  0
  2  3  2  0
  3  4  1  0
  4  5  2  0
  5  6  1  0
  6  7  2  0
  6  8  2  0
  6  9  1  0
  9 10  1  0
 10 11  2  0
 10 12  1  0
 12 13  1  0
 13 14  1  0
 14 15  2  0
 14 16  1  0
 16 17  1  0
 17 18  1  0
 18 19  2  0
 19 20  1  0
 20 21  2  0
 21 22  1  0
 21 23  1  0
 23 24  1  0
 23 25  2  0
  5 26  1  0
 26 27  2  0
 27  2  1  0
 25 18  1  0
M  CHG  3   9  -1  13  -1  24  -1
M  END
>  <UniqueID>  (2506) 
68

>  <SMILES>  (2506) 
Cc1ccc(S(=O)(=O)[N-]C(=O)C[N-]C(=O)CCc2ccc(O)c([O-])c2)cc1

>  <Energy>  (2506) 
38.37052978311313

>  <Genealogy>  (2506) 
Cc1ccc(S(=O)(=O)[N-]C(=O)C[N-]C(=O)CCc2ccc(O)c([O-])c2)cc1 (protonated)
Cc1ccc(S(=O)(=O)[N-]C(=O)C[N-]C(=O)CCc2ccc(O)c([O-])c2)cc1 (3D coordinates assigned)
Cc1ccc(S(=O)(=O)[N-]C(=O)C[N-]C(=O)CCc2ccc(O)c([O-])c2)cc1 (optimized conformer: 38.37052978311313 kcal/mol)

>  <smiles>  (2506) 
Cc1ccc(S(=O)(=O)NC(=O)CNC(=O)CCc2ccc(O)c(O)c2)cc1

>  <score_type>  (2506) 
oracle

>  <origin>  (2506) 
adg

>  <m_score__min__energy>  (2506) 
-14.9

>  <m_primary>  (2506) 
energy

$$$$
70:0
     RDKit          3D

 24 25  0  0  0  0  0  0  0  0999 V2000
   58.1120   26.9340   43.7000 C   0  0  0  0  0  0  0  0  0  0  0  0
   57.6160   26.5450   44.8770 C   0  0  0  0  0  0  0  0  0  0  0  0
   57.3870   27.5180   46.0010 C   0  0  0  0  0  0  0  0  0  0  0  0
   57.4910   28.9430   45.5080 C   0  0  0  0  0  0  0  0  0  0  0  0
   56.3840   29.6080   44.9540 C   0  0  0  0  0  0  0  0  0  0  0  0
   55.1460   28.9800   44.8650 O   0  0  0  0  0  0  0  0  0  0  0  0
   56.5140   30.8790   44.4990 N   0  0  0  0  0  0  0  0  0  0  0  0
   57.7040   31.5360   44.5600 C   0  0  0  0  0  0  0  0  0  0  0  0
   57.8200   32.7550   44.1210 N   0  0  0  0  0  0  0  0  0  0  0  0
   57.3470   33.9470   44.8250 C   0  0  0  0  0  0  0  0  0  0  0  0
   58.4540   34.5250   45.7120 C   0  0  0  0  0  0  0  0  0  0  0  0
   59.0070   33.4640   46.6240 C   0  0  0  0  0  0  0  0  0  0  0  0
   58.1700   32.8100   47.5420 C   0  0  0  0  0  0  0  0  0  0  0  0
   58.6780   31.8000   48.3660 C   0  0  0  0  0  0  0  0  0  0  0  0
   60.0260   31.4310   48.2780 C   0  0  0  0  0  0  0  0  0  0  0  0
   60.6600   30.1470   49.3020 S   0  0  0  0  0  0  0  0  0  0  0  0
   60.5520   28.6350   48.4720 N   0  0  0  0  0  0  0  0  0  0  0  0
   62.0970   30.4300   49.6430 O   0  0  0  0  0  0  0  0  0  0  0  0
   59.8690   30.0760   50.5780 O   0  0  0  0  0  0  0  0  0  0  0  0
   60.8600   32.0670   47.3480 C   0  0  0  0  0  0  0  0  0  0  0  0
   60.3520   33.0760   46.5240 C   0  0  0  0  0  0  0  0  0  0  0  0
   58.7890   30.9100   45.0800 N   0  0  0  0  0  0  0  0  0  0  0  0
   58.7140   29.6380   45.5500 C   0  0  0  0  0  0  0  0  0  0  0  0
   59.7490   29.0920   46.0180 O   0  0  0  0  0  0  0  0  0  0  0  0
  1  2  2  0
  2  3  1  0
  3  4  1  0
  4  5  2  0
  5  6  1  0
  5  7  1  0
  7  8  1  0
  8  9  2  3
  9 10  1  0
 10 11  1  0
 11 12  1  0
 12 13  2  0
 13 14  1  0
 14 15  2  0
 15 16  1  0
 16 17  1  0
 16 18  2  0
 16 19  2  0
 15 20  1  0
 20 21  2  0
  8 22  1  0
 22 23  1  0
 23 24  2  0
 23  4  1  0
 21 12  1  0
M  CHG  3   6  -1   7  -1  22  -1
M  END
>  <UniqueID>  (2507) 
69

>  <SMILES>  (2507) 
C=CCc1c([O-])[n-]c(=NCCc2ccc(S(N)(=O)=O)cc2)[n-]c1=O

>  <Energy>  (2507) 
34.30256840282307

>  <Genealogy>  (2507) 
C=CCc1c([O-])[n-]c(=NCCc2ccc(S(N)(=O)=O)cc2)[n-]c1=O (protonated)
C=CCc1c([O-])[n-]c(=NCCc2ccc(S(N)(=O)=O)cc2)[n-]c1=O (3D coordinates assigned)
C=CCc1c([O-])[n-]c(=NCCc2ccc(S(N)(=O)=O)cc2)[n-]c1=O (optimized conformer: 34.30256840282307 kcal/mol)

>  <smiles>  (2507) 
C=CCc1c(O)[nH]c(=NCCc2ccc(S(N)(=O)=O)cc2)[nH]c1=O

>  <score_type>  (2507) 
oracle

>  <origin>  (2507) 
adg

>  <m_score__min__energy>  (2507) 
-14.74

>  <m_primary>  (2507) 
energy

$$$$
72:0
     RDKit          3D

 31 33  0  0  0  0  0  0  0  0999 V2000
   53.5680   28.3810   52.8800 C   0  0  0  0  0  0  0  0  0  0  0  0
   54.5140   29.3330   52.9650 C   0  0  0  0  0  0  0  0  0  0  0  0
   55.8100   28.9320   53.3350 C   0  0  0  0  0  0  0  0  0  0  0  0
   56.8680   29.7700   53.1870 N   0  0  0  0  0  0  0  0  0  0  0  0
   56.7280   31.0120   52.6510 C   0  0  0  0  0  0  0  0  0  0  0  0
   57.9120   31.8810   52.4550 C   0  0  0  0  0  0  0  0  0  0  0  0
   58.2740   32.6440   53.3930 O   0  0  0  0  0  0  0  0  0  0  0  0
   58.6590   31.8720   51.2230 N   0  0  0  0  0  0  0  0  0  0  0  0
   57.9890   31.6340   49.9370 C   0  0  0  0  0  0  0  0  0  0  0  0
   58.5610   32.5570   48.8590 C   0  0  0  0  0  0  0  0  0  0  0  0
   60.0280   32.4740   48.7990 N   0  0  0  0  0  0  0  0  0  0  0  0
   60.6960   32.9180   47.5970 C   0  0  0  0  0  0  0  0  0  0  0  0
   60.1030   33.7070   46.8120 O   0  0  0  0  0  0  0  0  0  0  0  0
   62.0830   32.4630   47.2350 C   0  0  0  0  0  0  0  0  0  0  0  0
   63.0530   33.5920   47.3780 C   0  0  0  0  0  0  0  0  0  0  0  0
   63.3690   34.2810   46.3710 O   0  0  0  0  0  0  0  0  0  0  0  0
   63.6200   33.8540   48.6310 O   0  0  0  0  0  0  0  0  0  0  0  0
   64.4620   32.9320   49.3190 C   0  0  0  0  0  0  0  0  0  0  0  0
   64.8440   33.4750   50.6910 C   0  0  0  0  0  0  0  0  0  0  0  0
   60.7790   31.8870   49.9210 C   0  0  0  0  0  0  0  0  0  0  0  0
   60.0940   32.1840   51.2600 C   0  0  0  0  0  0  0  0  0  0  0  0
   55.4490   31.4880   52.3390 C   0  0  0  0  0  0  0  0  0  0  0  0
   54.3090   30.6900   52.5650 C   0  0  0  0  0  0  0  0  0  0  0  0
   53.0990   31.2890   52.4110 C   0  0  0  0  0  0  0  0  0  0  0  0
   52.3190   31.3540   51.1590 C   0  0  0  0  0  0  0  0  0  0  0  0
   52.3150   30.4060   50.2030 N   0  0  0  0  0  0  0  0  0  0  0  0
   51.3770   30.8420   49.3340 C   0  0  0  0  0  0  0  0  0  0  0  0
   51.0870   30.2180   48.2810 O   0  0  0  0  0  0  0  0  0  0  0  0
   50.7660   31.9930   49.6900 N   0  0  0  0  0  0  0  0  0  0  0  0
   51.3660   32.2950   50.8520 C   0  0  0  0  0  0  0  0  0  0  0  0
   51.0450   33.4070   51.6220 O   0  0  0  0  0  0  0  0  0  0  0  0
  1  2  2  0
  2  3  1  0
  3  4  2  0
  4  5  1  0
  5  6  1  0
  6  7  2  0
  6  8  1  0
  8  9  1  0
  9 10  1  0
 10 11  1  0
 11 12  1  0
 12 13  2  0
 12 14  1  0
 14 15  1  0
 15 16  2  0
 15 17  1  0
 17 18  1  0
 18 19  1  0
 11 20  1  0
 20 21  1  0
  5 22  2  0
 22 23  1  0
 23 24  2  3
 24 25  1  0
 25 26  1  0
 26 27  1  0
 27 28  2  0
 27 29  1  0
 29 30  1  0
 30 31  1  0
 23  2  1  0
 30 25  2  0
 21  8  1  0
M  CHG  4   4   1  26  -1  29  -1  31  -1
M  END
>  <UniqueID>  (2508) 
71

>  <SMILES>  (2508) 
C=c1c[nH+]c(C(=O)N2CCN(C(=O)CC(=O)OCC)CC2)cc1=Cc1[n-]c(=O)[n-]c1[O-]

>  <Energy>  (2508) 
101.65268846469718

>  <Genealogy>  (2508) 
C=c1c[nH+]c(C(=O)N2CCN(C(=O)CC(=O)OCC)CC2)cc1=Cc1[n-]c(=O)[n-]c1[O-] (protonated)
C=c1c[nH+]c(C(=O)N2CCN(C(=O)CC(=O)OCC)CC2)cc1=Cc1[n-]c(=O)[n-]c1[O-] (3D coordinates assigned)
C=c1c[nH+]c(C(=O)N2CCN(C(=O)CC(=O)OCC)CC2)cc1=Cc1[n-]c(=O)[n-]c1[O-] (nonaromatic ring conformer: 101.65268846469718 kcal/mol)

>  <smiles>  (2508) 
C=c1cnc(C(=O)N2CCN(C(=O)CC(=O)OCC)CC2)cc1=Cc1[nH]c(=O)[nH]c1O

>  <score_type>  (2508) 
oracle

>  <origin>  (2508) 
adg

>  <m_score__min__energy>  (2508) 
-15.84

>  <m_primary>  (2508) 
energy

$$$$
73:0
     RDKit          3D

 25 27  0  0  0  0  0  0  0  0999 V2000
   55.3480   31.5320   52.2200 C   0  0  0  0  0  0  0  0  0  0  0  0
   55.5870   30.3360   52.7630 C   0  0  0  0  0  0  0  0  0  0  0  0
   56.8270   29.9790   53.1670 N   0  0  0  0  0  0  0  0  0  0  0  0
   56.7440   28.7990   53.7640 N   0  0  0  0  0  0  0  0  0  0  0  0
   57.8730   28.1440   54.3640 C   0  0  0  0  0  0  0  0  0  0  0  0
   58.4340   28.6800   55.3580 O   0  0  0  0  0  0  0  0  0  0  0  0
   58.4120   26.8720   53.8300 C   0  0  0  0  0  0  0  0  0  0  0  0
   59.6800   26.8410   53.2240 C   0  0  0  0  0  0  0  0  0  0  0  0
   60.1840   25.6460   52.7010 C   0  0  0  0  0  0  0  0  0  0  0  0
   59.4240   24.4750   52.7690 C   0  0  0  0  0  0  0  0  0  0  0  0
   59.9280   23.2890   52.2490 O   0  0  0  0  0  0  0  0  0  0  0  0
   58.1560   24.4990   53.3540 C   0  0  0  0  0  0  0  0  0  0  0  0
   57.6480   25.6920   53.8780 C   0  0  0  0  0  0  0  0  0  0  0  0
   55.4570   28.4040   53.7750 C   0  0  0  0  0  0  0  0  0  0  0  0
   55.0400   27.3500   54.3280 O   0  0  0  0  0  0  0  0  0  0  0  0
   54.6710   29.3320   53.1150 C   0  0  0  0  0  0  0  0  0  0  0  0
   53.3430   29.2150   52.9140 C   0  0  0  0  0  0  0  0  0  0  0  0
   52.5460   30.0440   51.9940 C   0  0  0  0  0  0  0  0  0  0  0  0
   52.4750   29.7000   50.6360 C   0  0  0  0  0  0  0  0  0  0  0  0
   51.7660   30.5080   49.7430 C   0  0  0  0  0  0  0  0  0  0  0  0
   51.1420   31.6760   50.1940 C   0  0  0  0  0  0  0  0  0  0  0  0
   50.4370   32.4730   49.3010 O   0  0  0  0  0  0  0  0  0  0  0  0
   51.2350   32.0410   51.5430 C   0  0  0  0  0  0  0  0  0  0  0  0
   50.6270   33.2070   51.9960 O   0  0  0  0  0  0  0  0  0  0  0  0
   51.9450   31.2330   52.4380 C   0  0  0  0  0  0  0  0  0  0  0  0
  1  2  2  0
  2  3  1  0
  3  4  1  0
  4  5  1  0
  5  6  2  0
  5  7  1  0
  7  8  2  0
  8  9  1  0
  9 10  2  0
 10 11  1  0
 10 12  1  0
 12 13  2  0
  4 14  1  0
 14 15  2  0
 14 16  1  0
 16 17  2  3
 17 18  1  0
 18 19  2  0
 19 20  1  0
 20 21  2  0
 21 22  1  0
 21 23  1  0
 23 24  1  0
 23 25  2  0
 16  2  1  0
 25 18  1  0
 13  7  1  0
M  CHG  4   3  -1  11  -1  22  -1  24  -1
M  END
>  <UniqueID>  (2509) 
72

>  <SMILES>  (2509) 
C=c1[n-]n(C(=O)c2ccc([O-])cc2)c(=O)c1=Cc1ccc([O-])c([O-])c1

>  <Energy>  (2509) 
89.39066249970105

>  <Genealogy>  (2509) 
C=c1[n-]n(C(=O)c2ccc([O-])cc2)c(=O)c1=Cc1ccc([O-])c([O-])c1 (protonated)
C=c1[n-]n(C(=O)c2ccc([O-])cc2)c(=O)c1=Cc1ccc([O-])c([O-])c1 (3D coordinates assigned)
C=c1[n-]n(C(=O)c2ccc([O-])cc2)c(=O)c1=Cc1ccc([O-])c([O-])c1 (optimized conformer: 89.39066249970105 kcal/mol)

>  <smiles>  (2509) 
C=c1[nH]n(C(=O)c2ccc(O)cc2)c(=O)c1=Cc1ccc(O)c(O)c1

>  <score_type>  (2509) 
oracle

>  <origin>  (2509) 
adg

>  <m_score__min__energy>  (2509) 
-17.309999999999999

>  <m_primary>  (2509) 
energy

$$$$
6:0
     RDKit          3D

 29 32  0  0  0  0  0  0  0  0999 V2000
   59.3550   28.0070   47.8650 C   0  0  0  0  0  0  0  0  0  0  0  0
   58.6650   28.7240   46.9640 C   0  0  0  0  0  0  0  0  0  0  0  0
   58.0970   28.2560   45.7700 C   0  0  0  0  0  0  0  0  0  0  0  0
   57.8740   27.0010   45.3350 C   0  0  0  0  0  0  0  0  0  0  0  0
   57.2160   25.9340   46.1070 C   0  0  0  0  0  0  0  0  0  0  0  0
   57.8490   24.8300   46.5370 N   0  0  0  0  0  0  0  0  0  0  0  0
   56.8570   24.0930   47.0840 C   0  0  0  0  0  0  0  0  0  0  0  0
   57.0610   22.9720   47.6190 O   0  0  0  0  0  0  0  0  0  0  0  0
   55.6280   24.6470   47.0050 N   0  0  0  0  0  0  0  0  0  0  0  0
   55.8680   25.8050   46.3700 C   0  0  0  0  0  0  0  0  0  0  0  0
   54.8750   26.7100   46.0150 O   0  0  0  0  0  0  0  0  0  0  0  0
   57.7440   29.3810   45.0410 C   0  0  0  0  0  0  0  0  0  0  0  0
   58.0280   30.4750   45.8340 C   0  0  0  0  0  0  0  0  0  0  0  0
   57.7510   31.8980   45.4570 C   0  0  0  0  0  0  0  0  0  0  0  0
   58.5700   30.0780   47.0050 N   0  0  0  0  0  0  0  0  0  0  0  0
   58.9520   30.9410   48.0920 C   0  0  0  0  0  0  0  0  0  0  0  0
   58.5320   30.6980   49.2560 O   0  0  0  0  0  0  0  0  0  0  0  0
   59.8210   32.0650   47.8580 N   0  0  0  0  0  0  0  0  0  0  0  0
   59.4320   33.4190   48.2540 C   0  0  0  0  0  0  0  0  0  0  0  0
   60.6410   34.1330   48.8670 C   0  0  0  0  0  0  0  0  0  0  0  0
   61.8370   34.1510   47.9740 N   0  0  0  0  0  0  0  0  0  0  0  0
   63.1470   34.2110   48.6800 C   0  0  0  0  0  0  0  0  0  0  0  0
   64.1390   33.1260   48.2220 C   0  0  0  0  0  0  0  0  0  0  0  0
   64.6280   32.4170   49.4790 C   0  0  0  0  0  0  0  0  0  0  0  0
   63.6100   32.7210   50.5650 C   0  0  0  0  0  0  0  0  0  0  0  0
   63.0120   34.0700   50.2040 C   0  0  0  0  0  0  0  0  0  0  0  0
   61.8420   33.1820   46.8430 C   0  0  0  0  0  0  0  0  0  0  0  0
   61.0600   31.9380   47.1520 C   0  0  0  0  0  0  0  0  0  0  0  0
   61.4870   30.8120   46.7800 O   0  0  0  0  0  0  0  0  0  0  0  0
  1  2  2  0
  2  3  1  0
  3  4  2  3
  4  5  1  0
  5  6  1  0
  6  7  1  0
  7  8  2  0
  7  9  1  0
  9 10  1  0
 10 11  1  0
  3 12  1  0
 12 13  2  0
 13 14  1  0
 13 15  1  0
 15 16  1  0
 16 17  2  0
 16 18  1  0
 18 19  1  0
 19 20  1  0
 20 21  1  0
 21 22  1  0
 22 23  1  0
 23 24  1  0
 24 25  1  0
 25 26  1  0
 21 27  1  0
 27 28  1  0
 28 29  2  0
 15  2  1  0
 28 18  1  0
 10  5  2  0
 26 22  1  0
M  CHG  3   6  -1   9  -1  11  -1
M  END
>  <UniqueID>  (2510) 
7

>  <SMILES>  (2510) 
C=c1c(=Cc2[n-]c(=O)[n-]c2[O-])cc(C)n1C(=O)N1CCN(C2CCCC2)CC1=O

>  <Energy>  (2510) 
141.959955127649

>  <Genealogy>  (2510) 
C=c1c(=Cc2[n-]c(=O)[n-]c2[O-])cc(C)n1C(=O)N1CCN(C2CCCC2)CC1=O (protonated)
C=c1c(=Cc2[n-]c(=O)[n-]c2[O-])cc(C)n1C(=O)N1CCN(C2CCCC2)CC1=O (3D coordinates assigned)
C=c1c(=Cc2[n-]c(=O)[n-]c2[O-])cc(C)n1C(=O)N1CCN(C2CCCC2)CC1=O (nonaromatic ring conformer: 141.959955127649 kcal/mol)

>  <smiles>  (2510) 
C=c1c(=Cc2[nH]c(=O)[nH]c2O)cc(C)n1C(=O)N1CCN(C2CCCC2)CC1=O

>  <score_type>  (2510) 
oracle

>  <origin>  (2510) 
adg

>  <m_score__min__energy>  (2510) 
-16.559999999999999

>  <m_primary>  (2510) 
energy

$$$$
13:0
     RDKit          3D

 36 40  0  0  0  0  0  0  0  0999 V2000
   57.7430   27.7500   47.2620 O   0  0  0  0  0  0  0  0  0  0  0  0
   57.4700   27.9680   46.0510 C   0  0  0  0  0  0  0  0  0  0  0  0
   57.4910   26.8960   45.1010 N   0  0  0  0  0  0  0  0  0  0  0  0
   57.0170   25.5640   45.3400 C   0  0  0  0  0  0  0  0  0  0  0  0
   57.9020   24.4970   45.1510 C   0  0  0  0  0  0  0  0  0  0  0  0
   57.4890   23.1860   45.3860 C   0  0  0  0  0  0  0  0  0  0  0  0
   56.1760   22.9260   45.7820 C   0  0  0  0  0  0  0  0  0  0  0  0
   55.2560   23.9750   45.9210 C   0  0  0  0  0  0  0  0  0  0  0  0
   53.8620   23.6710   46.3040 C   0  0  0  0  0  0  0  0  0  0  0  0
   52.9220   24.1810   45.6360 O   0  0  0  0  0  0  0  0  0  0  0  0
   53.5580   22.8310   47.4370 N   0  0  0  0  0  0  0  0  0  0  0  0
   52.4010   21.9310   47.4010 C   0  0  0  0  0  0  0  0  0  0  0  0
   51.7720   21.8410   48.7940 C   0  0  0  0  0  0  0  0  0  0  0  0
   52.7470   21.5180   49.7680 O   0  0  0  0  0  0  0  0  0  0  0  0
   53.6880   22.5690   49.8700 C   0  0  0  0  0  0  0  0  0  0  0  0
   54.4830   22.7160   48.5700 C   0  0  0  0  0  0  0  0  0  0  0  0
   55.6800   25.3030   45.7060 C   0  0  0  0  0  0  0  0  0  0  0  0
   54.7750   26.3500   45.8480 O   0  0  0  0  0  0  0  0  0  0  0  0
   57.1780   29.3360   45.5980 C   0  0  0  0  0  0  0  0  0  0  0  0
   57.9320   30.4710   45.8230 C   0  0  0  0  0  0  0  0  0  0  0  0
   57.3040   31.5140   45.2430 N   0  0  0  0  0  0  0  0  0  0  0  0
   57.7340   32.9080   45.2990 C   0  0  0  0  0  0  0  0  0  0  0  0
   58.8960   33.0460   46.2440 C   0  0  0  0  0  0  0  0  0  0  0  0
   58.7350   32.7660   47.6080 C   0  0  0  0  0  0  0  0  0  0  0  0
   59.8030   32.9290   48.4950 C   0  0  0  0  0  0  0  0  0  0  0  0
   61.0530   33.3860   48.0330 C   0  0  0  0  0  0  0  0  0  0  0  0
   62.1670   33.5640   48.9330 N   0  0  0  0  0  0  0  0  0  0  0  0
   62.1640   34.2040   50.1210 C   0  0  0  0  0  0  0  0  0  0  0  0
   63.4290   34.1330   50.6620 C   0  0  0  0  0  0  0  0  0  0  0  0
   64.1670   33.4210   49.7390 C   0  0  0  0  0  0  0  0  0  0  0  0
   63.3800   33.0840   48.7000 N   0  0  0  0  0  0  0  0  0  0  0  0
   61.2000   33.6860   46.6660 C   0  0  0  0  0  0  0  0  0  0  0  0
   60.1300   33.5220   45.7820 C   0  0  0  0  0  0  0  0  0  0  0  0
   56.1780   31.1140   44.6700 N   0  0  0  0  0  0  0  0  0  0  0  0
   56.0930   29.7880   44.8730 C   0  0  0  0  0  0  0  0  0  0  0  0
   55.1400   29.0800   44.4550 O   0  0  0  0  0  0  0  0  0  0  0  0
  1  2  2  0
  2  3  1  0
  3  4  1  0
  4  5  2  0
  5  6  1  0
  6  7  2  0
  7  8  1  0
  8  9  1  0
  9 10  2  0
  9 11  1  0
 11 12  1  0
 12 13  1  0
 13 14  1  0
 14 15  1  0
 15 16  1  0
  8 17  2  0
 17 18  1  0
  2 19  1  0
 19 20  2  0
 20 21  1  0
 21 22  1  0
 22 23  1  0
 23 24  2  0
 24 25  1  0
 25 26  2  0
 26 27  1  0
 27 28  1  0
 28 29  2  0
 29 30  1  0
 30 31  2  0
 26 32  1  0
 32 33  2  0
 21 34  1  0
 34 35  1  0
 35 36  2  0
 17  4  1  0
 35 19  1  0
 16 11  1  0
 33 23  1  0
 31 27  1  0
M  CHG  3   3  -1  18  -1  34  -1
M  END
>  <UniqueID>  (2511) 
13

>  <SMILES>  (2511) 
O=C([N-]c1cccc(C(=O)N2CCOCC2)c1[O-])c1cn(Cc2ccc(-n3cccn3)cc2)[n-]c1=O

>  <Energy>  (2511) 
138.1183151446303

>  <Genealogy>  (2511) 
O=C([N-]c1cccc(C(=O)N2CCOCC2)c1[O-])c1cn(Cc2ccc(-n3cccn3)cc2)[n-]c1=O (protonated)
O=C([N-]c1cccc(C(=O)N2CCOCC2)c1[O-])c1cn(Cc2ccc(-n3cccn3)cc2)[n-]c1=O (3D coordinates assigned)
O=C([N-]c1cccc(C(=O)N2CCOCC2)c1[O-])c1cn(Cc2ccc(-n3cccn3)cc2)[n-]c1=O (nonaromatic ring conformer: 138.1183151446303 kcal/mol)

>  <smiles>  (2511) 
O=C(Nc1cccc(C(=O)N2CCOCC2)c1O)c1cn(Cc2ccc(-n3cccn3)cc2)[nH]c1=O

>  <score_type>  (2511) 
oracle

>  <origin>  (2511) 
adg

>  <m_score__min__energy>  (2511) 
-17.440000000000001

>  <m_primary>  (2511) 
energy

$$$$
14:0
     RDKit          3D

 27 29  0  0  0  0  0  0  0  0999 V2000
   58.8520   28.8230   47.6870 C   0  0  0  0  0  0  0  0  0  0  0  0
   58.1860   29.1280   46.5640 C   0  0  0  0  0  0  0  0  0  0  0  0
   57.6650   28.2500   45.6020 C   0  0  0  0  0  0  0  0  0  0  0  0
   57.8640   26.9300   45.4320 C   0  0  0  0  0  0  0  0  0  0  0  0
   57.2150   25.8550   46.2040 C   0  0  0  0  0  0  0  0  0  0  0  0
   57.8410   24.7550   46.6650 N   0  0  0  0  0  0  0  0  0  0  0  0
   56.8320   23.9920   47.1370 C   0  0  0  0  0  0  0  0  0  0  0  0
   57.0240   22.8620   47.6530 O   0  0  0  0  0  0  0  0  0  0  0  0
   55.6000   24.5230   46.9810 N   0  0  0  0  0  0  0  0  0  0  0  0
   55.8610   25.6960   46.3760 C   0  0  0  0  0  0  0  0  0  0  0  0
   54.8800   26.5960   45.9700 O   0  0  0  0  0  0  0  0  0  0  0  0
   56.8960   28.9500   44.7390 N   0  0  0  0  0  0  0  0  0  0  0  0
   57.0020   30.2270   45.1530 C   0  0  0  0  0  0  0  0  0  0  0  0
   56.4370   31.1830   44.5570 O   0  0  0  0  0  0  0  0  0  0  0  0
   57.7740   30.3800   46.2500 N   0  0  0  0  0  0  0  0  0  0  0  0
   58.1220   31.6490   46.9040 C   0  0  0  0  0  0  0  0  0  0  0  0
   59.2040   32.3430   46.1200 C   0  0  0  0  0  0  0  0  0  0  0  0
   58.8670   33.0030   45.0980 O   0  0  0  0  0  0  0  0  0  0  0  0
   60.6010   32.2360   46.4740 N   0  0  0  0  0  0  0  0  0  0  0  0
   61.1790   30.9440   46.8620 C   0  0  0  0  0  0  0  0  0  0  0  0
   61.4440   33.4420   46.4750 C   0  0  0  0  0  0  0  0  0  0  0  0
   62.2770   33.5150   47.7300 C   0  0  0  0  0  0  0  0  0  0  0  0
   61.7490   34.0760   48.9060 C   0  0  0  0  0  0  0  0  0  0  0  0
   62.5300   34.1450   50.0650 C   0  0  0  0  0  0  0  0  0  0  0  0
   63.8410   33.6570   50.0610 C   0  0  0  0  0  0  0  0  0  0  0  0
   64.3700   33.0970   48.8970 C   0  0  0  0  0  0  0  0  0  0  0  0
   63.5940   33.0250   47.7350 C   0  0  0  0  0  0  0  0  0  0  0  0
  1  2  2  0
  2  3  1  0
  3  4  2  3
  4  5  1  0
  5  6  1  0
  6  7  1  0
  7  8  2  0
  7  9  1  0
  9 10  1  0
 10 11  1  0
  3 12  1  0
 12 13  1  0
 13 14  2  0
 13 15  1  0
 15 16  1  0
 16 17  1  0
 17 18  2  0
 17 19  1  0
 19 20  1  0
 19 21  1  0
 21 22  1  0
 22 23  2  0
 23 24  1  0
 24 25  2  0
 25 26  1  0
 26 27  2  0
 15  2  1  0
 27 22  1  0
 10  5  2  0
M  CHG  3   6  -1   9  -1  12  -1
M  END
>  <UniqueID>  (2512) 
14

>  <SMILES>  (2512) 
C=c1c(=Cc2[n-]c(=O)[n-]c2O)[n-]c(=O)n1CC(=O)N(C)Cc1ccccc1

>  <Energy>  (2512) 
116.25155712039768

>  <Genealogy>  (2512) 
C=c1c(=Cc2[n-]c(=O)[n-]c2O)[n-]c(=O)n1CC(=O)N(C)Cc1ccccc1 (protonated)
C=c1c(=Cc2[n-]c(=O)[n-]c2O)[n-]c(=O)n1CC(=O)N(C)Cc1ccccc1 (3D coordinates assigned)
C=c1c(=Cc2[n-]c(=O)[n-]c2O)[n-]c(=O)n1CC(=O)N(C)Cc1ccccc1 (optimized conformer: 116.25155712039768 kcal/mol)

>  <smiles>  (2512) 
C=c1c(=Cc2[nH]c(=O)[nH]c2O)[nH]c(=O)n1CC(=O)N(C)Cc1ccccc1

>  <score_type>  (2512) 
oracle

>  <origin>  (2512) 
adg

>  <m_score__min__energy>  (2512) 
-15.050000000000001

>  <m_primary>  (2512) 
energy

$$$$
19:0
     RDKit          3D

 18 19  0  0  0  0  0  0  0  0999 V2000
   59.3540   35.1810   46.1340 C   0  0  0  0  0  0  0  0  0  0  0  0
   59.3450   34.4210   47.3060 C   0  0  0  0  0  0  0  0  0  0  0  0
   58.9400   33.0840   47.2690 C   0  0  0  0  0  0  0  0  0  0  0  0
   58.9090   32.0510   48.8740 Br  0  0  0  0  0  0  0  0  0  0  0  0
   58.5550   32.5030   46.0550 C   0  0  0  0  0  0  0  0  0  0  0  0
   58.5880   33.2500   44.8690 C   0  0  0  0  0  0  0  0  0  0  0  0
   58.1640   32.6260   43.6490 N   0  0  0  0  0  0  0  0  0  0  0  0
   57.3030   31.4880   43.5360 C   0  0  0  0  0  0  0  0  0  0  0  0
   57.0770   31.0110   42.3930 O   0  0  0  0  0  0  0  0  0  0  0  0
   56.6600   30.9450   44.7010 N   0  0  0  0  0  0  0  0  0  0  0  0
   56.6700   29.7000   45.0780 C   0  0  0  0  0  0  0  0  0  0  0  0
   55.5290   28.9890   45.2160 N   0  0  0  0  0  0  0  0  0  0  0  0
   55.9730   27.7880   45.6190 C   0  0  0  0  0  0  0  0  0  0  0  0
   55.1410   26.7120   45.9060 O   0  0  0  0  0  0  0  0  0  0  0  0
   57.3420   27.7910   45.7050 C   0  0  0  0  0  0  0  0  0  0  0  0
   58.2080   26.6690   46.1730 C   0  0  0  0  0  0  0  0  0  0  0  0
   57.7980   29.0120   45.3750 N   0  0  0  0  0  0  0  0  0  0  0  0
   58.9710   34.6040   44.9190 C   0  0  0  0  0  0  0  0  0  0  0  0
  1  2  2  0
  2  3  1  0
  3  4  1  0
  3  5  2  0
  5  6  1  0
  6  7  1  0
  7  8  1  0
  8  9  2  0
  8 10  1  0
 10 11  2  0
 11 12  1  0
 12 13  1  0
 13 14  1  0
 13 15  2  0
 15 16  1  0
 15 17  1  0
  6 18  2  0
 18  1  1  0
 17 11  1  0
M  CHG  4   7  -1  12  -1  14  -1  17  -1
M  END
>  <UniqueID>  (2513) 
19

>  <SMILES>  (2513) 
Cc1[n-]/c(=N\C(=O)[N-]c2cccc(Br)c2)[n-]c1[O-]

>  <Energy>  (2513) 
58.50875443828288

>  <Genealogy>  (2513) 
Cc1[n-]c(=NC(=O)[N-]c2cccc(Br)c2)[n-]c1[O-] (protonated)
Cc1[n-]/c(=N\C(=O)[N-]c2cccc(Br)c2)[n-]c1[O-] (cis-trans isomerization)
Cc1[n-]/c(=N\C(=O)[N-]c2cccc(Br)c2)[n-]c1[O-] (3D coordinates assigned)
Cc1[n-]/c(=N\C(=O)[N-]c2cccc(Br)c2)[n-]c1[O-] (optimized conformer: 58.50875443828288 kcal/mol)

>  <smiles>  (2513) 
Cc1[nH]c(=NC(=O)Nc2cccc(Br)c2)[nH]c1O

>  <score_type>  (2513) 
oracle

>  <origin>  (2513) 
adg

>  <m_score__min__energy>  (2513) 
-14.18

>  <m_primary>  (2513) 
energy

$$$$
42:0
     RDKit          3D

 31 34  0  0  0  0  0  0  0  0999 V2000
   55.0000   26.5800   46.2550 O   0  0  0  0  0  0  0  0  0  0  0  0
   56.0330   25.6630   46.4310 C   0  0  0  0  0  0  0  0  0  0  0  0
   55.8370   24.3340   46.4630 N   0  0  0  0  0  0  0  0  0  0  0  0
   57.0720   23.8560   46.7230 C   0  0  0  0  0  0  0  0  0  0  0  0
   57.3120   22.6250   46.8380 O   0  0  0  0  0  0  0  0  0  0  0  0
   58.0300   24.7980   46.8570 N   0  0  0  0  0  0  0  0  0  0  0  0
   57.3660   25.9480   46.6490 C   0  0  0  0  0  0  0  0  0  0  0  0
   58.0040   27.2730   46.7240 C   0  0  0  0  0  0  0  0  0  0  0  0
   57.6550   28.3130   45.9420 C   0  0  0  0  0  0  0  0  0  0  0  0
   56.5430   28.3750   45.1100 C   0  0  0  0  0  0  0  0  0  0  0  0
   56.5990   29.5960   44.4680 C   0  0  0  0  0  0  0  0  0  0  0  0
   55.5910   30.0880   43.4740 C   0  0  0  0  0  0  0  0  0  0  0  0
   57.6880   30.2890   44.8660 N   0  0  0  0  0  0  0  0  0  0  0  0
   58.0650   31.5950   44.4000 C   0  0  0  0  0  0  0  0  0  0  0  0
   57.9900   31.8540   43.1680 O   0  0  0  0  0  0  0  0  0  0  0  0
   58.5080   32.6070   45.3250 N   0  0  0  0  0  0  0  0  0  0  0  0
   57.9790   32.5970   46.6960 C   0  0  0  0  0  0  0  0  0  0  0  0
   58.5900   33.7170   47.5320 C   0  0  0  0  0  0  0  0  0  0  0  0
   60.0270   33.7980   47.2240 N   0  0  0  0  0  0  0  0  0  0  0  0
   60.7470   34.6140   48.2230 C   0  0  0  0  0  0  0  0  0  0  0  0
   61.9030   33.8320   48.8080 C   0  0  0  0  0  0  0  0  0  0  0  0
   61.8210   33.4460   50.1590 C   0  0  0  0  0  0  0  0  0  0  0  0
   62.8600   32.7370   50.7630 C   0  0  0  0  0  0  0  0  0  0  0  0
   63.9940   32.3990   50.0270 C   0  0  0  0  0  0  0  0  0  0  0  0
   64.0940   32.7680   48.6850 C   0  0  0  0  0  0  0  0  0  0  0  0
   63.0600   33.4870   48.0590 C   0  0  0  0  0  0  0  0  0  0  0  0
   63.2080   33.8610   46.6080 C   0  0  0  0  0  0  0  0  0  0  0  0
   60.2350   34.3430   45.8650 C   0  0  0  0  0  0  0  0  0  0  0  0
   59.2420   33.7780   44.8220 C   0  0  0  0  0  0  0  0  0  0  0  0
   58.3520   29.5100   45.7580 C   0  0  0  0  0  0  0  0  0  0  0  0
   59.5130   29.8560   46.3380 C   0  0  0  0  0  0  0  0  0  0  0  0
  1  2  1  0
  2  3  1  0
  3  4  1  0
  4  5  2  0
  4  6  1  0
  6  7  1  0
  7  8  1  0
  8  9  2  0
  9 10  1  0
 10 11  2  0
 11 12  1  0
 11 13  1  0
 13 14  1  0
 14 15  2  0
 14 16  1  0
 16 17  1  0
 17 18  1  0
 18 19  1  0
 19 20  1  0
 20 21  1  0
 21 22  2  0
 22 23  1  0
 23 24  2  0
 24 25  1  0
 25 26  2  0
 26 27  1  0
 19 28  1  0
 28 29  1  0
 13 30  1  0
 30 31  2  0
  7  2  2  0
 30  9  1  0
 29 16  1  0
 26 21  1  0
M  CHG  2   3  -1   6  -1
M  END
>  <UniqueID>  (2514) 
38

>  <SMILES>  (2514) 
C=c1/c(=C/c2[n-]c(=O)[n-]c2O)cc(C)n1C(=O)N1CCN(Cc2ccccc2C)CC1

>  <Energy>  (2514) 
134.97387701721468

>  <Genealogy>  (2514) 
C=c1c(=Cc2[n-]c(=O)[n-]c2O)cc(C)n1C(=O)N1CCN(Cc2ccccc2C)CC1 (protonated)
C=c1/c(=C/c2[n-]c(=O)[n-]c2O)cc(C)n1C(=O)N1CCN(Cc2ccccc2C)CC1 (cis-trans isomerization)
C=c1/c(=C/c2[n-]c(=O)[n-]c2O)cc(C)n1C(=O)N1CCN(Cc2ccccc2C)CC1 (3D coordinates assigned)
C=c1/c(=C/c2[n-]c(=O)[n-]c2O)cc(C)n1C(=O)N1CCN(Cc2ccccc2C)CC1 (nonaromatic ring conformer: 134.97387701721468 kcal/mol)

>  <smiles>  (2514) 
C=c1c(=Cc2[nH]c(=O)[nH]c2O)cc(C)n1C(=O)N1CCN(Cc2ccccc2C)CC1

>  <score_type>  (2514) 
oracle

>  <origin>  (2514) 
adg

>  <m_score__min__energy>  (2514) 
-14.69

>  <m_primary>  (2514) 
energy

$$$$
44:0
     RDKit          3D

 29 31  0  0  0  0  0  0  0  0999 V2000
   57.0380   23.1870   47.4290 N   0  0  0  0  0  0  0  0  0  0  0  0
   56.0300   24.0860   46.9740 C   0  0  0  0  0  0  0  0  0  0  0  0
   54.8200   23.7350   47.0090 O   0  0  0  0  0  0  0  0  0  0  0  0
   56.3940   25.4210   46.4720 C   0  0  0  0  0  0  0  0  0  0  0  0
   57.6720   25.9250   46.3450 C   0  0  0  0  0  0  0  0  0  0  0  0
   57.5260   27.1990   45.8220 C   0  0  0  0  0  0  0  0  0  0  0  0
   58.6300   28.1110   45.4970 C   0  0  0  0  0  0  0  0  0  0  0  0
   58.4060   29.1420   44.8070 O   0  0  0  0  0  0  0  0  0  0  0  0
   59.9550   27.8260   45.9610 N   0  0  0  0  0  0  0  0  0  0  0  0
   60.4090   28.0870   47.3220 C   0  0  0  0  0  0  0  0  0  0  0  0
   60.3120   29.5560   47.6320 C   0  0  0  0  0  0  0  0  0  0  0  0
   61.2620   30.4580   47.1300 C   0  0  0  0  0  0  0  0  0  0  0  0
   61.1760   31.8190   47.4390 C   0  0  0  0  0  0  0  0  0  0  0  0
   60.1420   32.2930   48.2570 C   0  0  0  0  0  0  0  0  0  0  0  0
   60.0420   34.0120   48.6280 S   0  0  0  0  0  0  0  0  0  0  0  0
   61.4120   34.6100   48.4770 O   0  0  0  0  0  0  0  0  0  0  0  0
   59.5840   34.2070   50.0480 O   0  0  0  0  0  0  0  0  0  0  0  0
   58.9320   34.7900   47.5210 N   0  0  0  0  0  0  0  0  0  0  0  0
   59.6410   35.2900   46.3400 C   0  0  0  0  0  0  0  0  0  0  0  0
   59.5830   34.2160   45.2640 C   0  0  0  0  0  0  0  0  0  0  0  0
   58.4450   33.2960   45.6720 C   0  0  0  0  0  0  0  0  0  0  0  0
   58.9010   31.9960   45.8080 F   0  0  0  0  0  0  0  0  0  0  0  0
   57.4300   33.3280   44.7310 F   0  0  0  0  0  0  0  0  0  0  0  0
   57.9470   33.8260   47.0140 C   0  0  0  0  0  0  0  0  0  0  0  0
   59.1870   31.3940   48.7570 C   0  0  0  0  0  0  0  0  0  0  0  0
   59.2730   30.0340   48.4480 C   0  0  0  0  0  0  0  0  0  0  0  0
   56.2270   27.5040   45.6200 N   0  0  0  0  0  0  0  0  0  0  0  0
   55.5460   26.4130   46.0190 C   0  0  0  0  0  0  0  0  0  0  0  0
   54.1610   26.3250   45.9690 O   0  0  0  0  0  0  0  0  0  0  0  0
  1  2  1  0
  2  3  2  0
  2  4  1  0
  4  5  1  0
  5  6  2  0
  6  7  1  0
  7  8  2  0
  7  9  1  0
  9 10  1  0
 10 11  1  0
 11 12  2  0
 12 13  1  0
 13 14  2  0
 14 15  1  0
 15 16  2  0
 15 17  2  0
 15 18  1  0
 18 19  1  0
 19 20  1  0
 20 21  1  0
 21 22  1  0
 21 23  1  0
 21 24  1  0
 14 25  1  0
 25 26  2  0
  6 27  1  0
 27 28  1  0
 28 29  1  0
 28  4  2  0
 26 11  1  0
 24 18  1  0
M  CHG  4   1  -1   9  -1  27  -1  29  -1
M  END
>  <UniqueID>  (2515) 
40

>  <SMILES>  (2515) 
[NH-]C(=O)c1cc(C(=O)[N-]Cc2ccc(S(=O)(=O)N3CCC(F)(F)C3)cc2)[n-]c1[O-]

>  <Energy>  (2515) 
67.72844703879005

>  <Genealogy>  (2515) 
[NH-]C(=O)c1cc(C(=O)[N-]Cc2ccc(S(=O)(=O)N3CCC(F)(F)C3)cc2)[n-]c1[O-] (protonated)
[NH-]C(=O)c1cc(C(=O)[N-]Cc2ccc(S(=O)(=O)N3CCC(F)(F)C3)cc2)[n-]c1[O-] (3D coordinates assigned)
[NH-]C(=O)c1cc(C(=O)[N-]Cc2ccc(S(=O)(=O)N3CCC(F)(F)C3)cc2)[n-]c1[O-] (nonaromatic ring conformer: 67.72844703879005 kcal/mol)

>  <smiles>  (2515) 
NC(=O)c1cc(C(=O)NCc2ccc(S(=O)(=O)N3CCC(F)(F)C3)cc2)[nH]c1O

>  <score_type>  (2515) 
oracle

>  <origin>  (2515) 
adg

>  <m_score__min__energy>  (2515) 
-19.010000000000002

>  <m_primary>  (2515) 
energy

$$$$
50:0
     RDKit          3D

 24 26  0  0  0  0  0  0  0  0999 V2000
   56.0830   29.4710   44.0310 C   0  0  0  0  0  0  0  0  0  0  0  0
   57.0640   29.6270   44.9290 C   0  0  0  0  0  0  0  0  0  0  0  0
   57.3430   30.9030   45.3130 N   0  0  0  0  0  0  0  0  0  0  0  0
   58.1550   31.1990   46.3580 C   0  0  0  0  0  0  0  0  0  0  0  0
   58.6940   30.1730   47.1380 C   0  0  0  0  0  0  0  0  0  0  0  0
   59.5430   30.4880   48.3090 C   0  0  0  0  0  0  0  0  0  0  0  0
   59.3410   29.8850   49.3990 O   0  0  0  0  0  0  0  0  0  0  0  0
   60.5970   31.4630   48.2270 N   0  0  0  0  0  0  0  0  0  0  0  0
   60.7860   32.4240   49.3250 C   0  0  0  0  0  0  0  0  0  0  0  0
   62.2200   32.3430   49.8590 C   0  0  0  0  0  0  0  0  0  0  0  0
   63.2140   32.3760   48.7300 C   0  0  0  0  0  0  0  0  0  0  0  0
   64.4090   32.4320   48.9750 O   0  0  0  0  0  0  0  0  0  0  0  0
   62.7370   32.3700   47.3030 C   0  0  0  0  0  0  0  0  0  0  0  0
   61.5790   31.3760   47.1310 C   0  0  0  0  0  0  0  0  0  0  0  0
   58.4700   28.8470   46.7480 C   0  0  0  0  0  0  0  0  0  0  0  0
   57.7180   28.5410   45.5940 C   0  0  0  0  0  0  0  0  0  0  0  0
   57.7020   27.2450   45.1930 C   0  0  0  0  0  0  0  0  0  0  0  0
   57.1860   26.1010   45.9690 C   0  0  0  0  0  0  0  0  0  0  0  0
   57.9480   25.1540   46.5460 N   0  0  0  0  0  0  0  0  0  0  0  0
   57.0540   24.4080   47.2310 C   0  0  0  0  0  0  0  0  0  0  0  0
   57.3870   23.3990   47.9040 O   0  0  0  0  0  0  0  0  0  0  0  0
   55.7750   24.8350   47.1440 N   0  0  0  0  0  0  0  0  0  0  0  0
   55.8790   25.9140   46.3520 C   0  0  0  0  0  0  0  0  0  0  0  0
   54.8030   26.7130   45.9910 O   0  0  0  0  0  0  0  0  0  0  0  0
  1  2  2  0
  2  3  1  0
  3  4  2  0
  4  5  1  0
  5  6  1  0
  6  7  2  0
  6  8  1  0
  8  9  1  0
  9 10  1  0
 10 11  1  0
 11 12  2  0
 11 13  1  0
 13 14  1  0
  5 15  2  0
 15 16  1  0
 16 17  2  3
 17 18  1  0
 18 19  1  0
 19 20  1  0
 20 21  2  0
 20 22  1  0
 22 23  1  0
 23 24  1  0
 16  2  1  0
 23 18  2  0
 14  8  1  0
M  CHG  3  19  -1  22  -1  24  -1
M  END
>  <UniqueID>  (2516) 
45

>  <SMILES>  (2516) 
C=c1ncc(C(=O)N2CCC(=O)CC2)cc1=Cc1[n-]c(=O)[n-]c1[O-]

>  <Energy>  (2516) 
91.87649341595397

>  <Genealogy>  (2516) 
C=c1ncc(C(=O)N2CCC(=O)CC2)cc1=Cc1[n-]c(=O)[n-]c1[O-] (protonated)
C=c1ncc(C(=O)N2CCC(=O)CC2)cc1=Cc1[n-]c(=O)[n-]c1[O-] (3D coordinates assigned)
C=c1ncc(C(=O)N2CCC(=O)CC2)cc1=Cc1[n-]c(=O)[n-]c1[O-] (nonaromatic ring conformer: 91.87649341595397 kcal/mol)

>  <smiles>  (2516) 
C=c1ncc(C(=O)N2CCC(=O)CC2)cc1=Cc1[nH]c(=O)[nH]c1O

>  <score_type>  (2516) 
oracle

>  <origin>  (2516) 
adg

>  <m_score__min__energy>  (2516) 
-16.719999999999999

>  <m_primary>  (2516) 
energy

$$$$
73:0
     RDKit          3D

 30 34  0  0  0  0  0  0  0  0999 V2000
   54.5450   31.5000   51.9810 C   0  0  0  0  0  0  0  0  0  0  0  0
   54.3050   30.2900   52.5130 C   0  0  0  0  0  0  0  0  0  0  0  0
   53.0500   29.7250   52.7560 C   0  0  0  0  0  0  0  0  0  0  0  0
   51.8450   30.2650   52.4910 C   0  0  0  0  0  0  0  0  0  0  0  0
   51.4290   30.7410   51.1600 C   0  0  0  0  0  0  0  0  0  0  0  0
   51.4620   29.9720   50.0570 N   0  0  0  0  0  0  0  0  0  0  0  0
   51.0890   30.8170   49.0720 C   0  0  0  0  0  0  0  0  0  0  0  0
   50.9850   30.4560   47.8720 O   0  0  0  0  0  0  0  0  0  0  0  0
   50.8470   32.0840   49.4740 N   0  0  0  0  0  0  0  0  0  0  0  0
   51.0780   32.0230   50.7950 C   0  0  0  0  0  0  0  0  0  0  0  0
   51.0170   33.1270   51.6360 O   0  0  0  0  0  0  0  0  0  0  0  0
   53.2870   28.4550   53.2690 C   0  0  0  0  0  0  0  0  0  0  0  0
   54.6580   28.3070   53.3380 C   0  0  0  0  0  0  0  0  0  0  0  0
   55.3550   27.0670   53.8110 C   0  0  0  0  0  0  0  0  0  0  0  0
   55.2770   29.4160   52.8750 N   0  0  0  0  0  0  0  0  0  0  0  0
   56.7000   29.6110   52.7940 C   0  0  0  0  0  0  0  0  0  0  0  0
   57.5450   29.0450   53.7590 C   0  0  0  0  0  0  0  0  0  0  0  0
   58.9260   29.2170   53.6690 C   0  0  0  0  0  0  0  0  0  0  0  0
   59.4750   29.9530   52.6160 C   0  0  0  0  0  0  0  0  0  0  0  0
   58.6450   30.5300   51.6380 C   0  0  0  0  0  0  0  0  0  0  0  0
   59.2140   31.2850   50.5460 N   0  0  0  0  0  0  0  0  0  0  0  0
   58.8410   32.6890   50.3300 C   0  0  0  0  0  0  0  0  0  0  0  0
   60.0310   33.4750   49.7560 C   0  0  0  0  0  0  0  0  0  0  0  0
   60.6990   32.8120   48.5950 N   0  0  0  0  0  0  0  0  0  0  0  0
   60.8190   33.7570   47.4480 C   0  0  0  0  0  0  0  0  0  0  0  0
   59.8410   33.6690   46.2730 C   0  0  0  0  0  0  0  0  0  0  0  0
   59.6850   34.7700   47.3130 C   0  0  0  0  0  0  0  0  0  0  0  0
   60.1740   31.4590   48.2780 C   0  0  0  0  0  0  0  0  0  0  0  0
   60.0490   30.6080   49.5460 C   0  0  0  0  0  0  0  0  0  0  0  0
   57.2530   30.3480   51.7360 C   0  0  0  0  0  0  0  0  0  0  0  0
  1  2  2  0
  2  3  1  0
  3  4  2  0
  4  5  1  0
  5  6  1  0
  6  7  1  0
  7  8  2  0
  7  9  1  0
  9 10  1  0
 10 11  1  0
  3 12  1  0
 12 13  2  0
 13 14  1  0
 13 15  1  0
 15 16  1  0
 16 17  2  0
 17 18  1  0
 18 19  2  0
 19 20  1  0
 20 21  1  0
 21 22  1  0
 22 23  1  0
 23 24  1  0
 24 25  1  0
 25 26  1  0
 26 27  1  0
 24 28  1  0
 28 29  1  0
 20 30  2  0
 15  2  1  0
 30 16  1  0
 10  5  2  0
 29 21  1  0
 27 25  1  0
M  CHG  4   6  -1   9  -1  11  -1  24   1
M  END
>  <UniqueID>  (2517) 
67

>  <SMILES>  (2517) 
C=c1/c(=C/c2[n-]c(=O)[n-]c2[O-])cc(C)n1-c1cccc(N2CC[NH+](C3CC3)CC2)c1

>  <Energy>  (2517) 
414.5472011191173

>  <Genealogy>  (2517) 
C=c1c(=Cc2[n-]c(=O)[n-]c2[O-])cc(C)n1-c1cccc(N2CC[NH+](C3CC3)CC2)c1 (protonated)
C=c1/c(=C/c2[n-]c(=O)[n-]c2[O-])cc(C)n1-c1cccc(N2CC[NH+](C3CC3)CC2)c1 (cis-trans isomerization)
C=c1/c(=C/c2[n-]c(=O)[n-]c2[O-])cc(C)n1-c1cccc(N2CC[NH+](C3CC3)CC2)c1 (3D coordinates assigned)
C=c1/c(=C/c2[n-]c(=O)[n-]c2[O-])cc(C)n1-c1cccc(N2CC[NH+](C3CC3)CC2)c1 (nonaromatic ring conformer: 414.5472011191173 kcal/mol)

>  <smiles>  (2517) 
C=c1c(=Cc2[nH]c(=O)[nH]c2O)cc(C)n1-c1cccc(N2CCN(C3CC3)CC2)c1

>  <score_type>  (2517) 
oracle

>  <origin>  (2517) 
adg

>  <m_score__min__energy>  (2517) 
-15.800000000000001

>  <m_primary>  (2517) 
energy

$$$$
79:0
     RDKit          3D

 30 33  0  0  0  0  0  0  0  0999 V2000
   59.3700   27.4950   45.2160 O   0  0  0  0  0  0  0  0  0  0  0  0
   57.9850   27.5490   45.3490 C   0  0  0  0  0  0  0  0  0  0  0  0
   57.2440   26.5150   45.7790 N   0  0  0  0  0  0  0  0  0  0  0  0
   55.9840   26.9940   45.7000 C   0  0  0  0  0  0  0  0  0  0  0  0
   54.9780   26.3090   46.0160 O   0  0  0  0  0  0  0  0  0  0  0  0
   55.8880   28.2620   45.2430 N   0  0  0  0  0  0  0  0  0  0  0  0
   57.1690   28.6200   45.0480 C   0  0  0  0  0  0  0  0  0  0  0  0
   57.5680   29.9020   44.4520 C   0  0  0  0  0  0  0  0  0  0  0  0
   58.0270   30.9760   45.1230 C   0  0  0  0  0  0  0  0  0  0  0  0
   57.8350   32.2730   44.6750 C   0  0  0  0  0  0  0  0  0  0  0  0
   58.4860   33.1050   45.5600 C   0  0  0  0  0  0  0  0  0  0  0  0
   58.5800   34.5940   45.4130 C   0  0  0  0  0  0  0  0  0  0  0  0
   59.0650   32.3840   46.5450 N   0  0  0  0  0  0  0  0  0  0  0  0
   59.7970   32.9300   47.6570 C   0  0  0  0  0  0  0  0  0  0  0  0
   61.0650   33.4930   47.4620 C   0  0  0  0  0  0  0  0  0  0  0  0
   61.7710   34.0240   48.5440 C   0  0  0  0  0  0  0  0  0  0  0  0
   61.2230   33.9800   49.8280 C   0  0  0  0  0  0  0  0  0  0  0  0
   59.9670   33.3920   50.0430 C   0  0  0  0  0  0  0  0  0  0  0  0
   59.3930   33.3550   51.4030 C   0  0  0  0  0  0  0  0  0  0  0  0
   59.7580   34.2230   52.2410 O   0  0  0  0  0  0  0  0  0  0  0  0
   58.4480   32.3440   51.7950 N   0  0  0  0  0  0  0  0  0  0  0  0
   58.7430   30.9130   51.7220 C   0  0  0  0  0  0  0  0  0  0  0  0
   57.4180   30.3000   51.9500 C   0  0  0  0  0  0  0  0  0  0  0  0
   57.1990   29.0610   51.9850 O   0  0  0  0  0  0  0  0  0  0  0  0
   56.4100   31.2810   52.1220 N   0  0  0  0  0  0  0  0  0  0  0  0
   54.9980   31.0160   52.3680 C   0  0  0  0  0  0  0  0  0  0  0  0
   57.0210   32.5950   52.0340 C   0  0  0  0  0  0  0  0  0  0  0  0
   59.2500   32.8820   48.9490 C   0  0  0  0  0  0  0  0  0  0  0  0
   58.7710   31.0780   46.3120 C   0  0  0  0  0  0  0  0  0  0  0  0
   59.1050   30.0860   47.1530 C   0  0  0  0  0  0  0  0  0  0  0  0
  1  2  1  0
  2  3  1  0
  3  4  1  0
  4  5  2  0
  4  6  1  0
  6  7  1  0
  7  8  1  0
  8  9  2  0
  9 10  1  0
 10 11  2  0
 11 12  1  0
 11 13  1  0
 13 14  1  0
 14 15  2  0
 15 16  1  0
 16 17  2  0
 17 18  1  0
 18 19  1  0
 19 20  2  0
 19 21  1  0
 21 22  1  0
 22 23  1  0
 23 24  2  0
 23 25  1  0
 25 26  1  0
 25 27  1  0
 18 28  2  0
 13 29  1  0
 29 30  2  0
  7  2  2  0
 29  9  1  0
 28 14  1  0
 27 21  1  0
M  CHG  2   3  -1   6  -1
M  END
>  <UniqueID>  (2518) 
73

>  <SMILES>  (2518) 
C=c1/c(=C\c2[n-]c(=O)[n-]c2O)cc(C)n1-c1cccc(C(=O)N2CC(=O)N(C)C2)c1

>  <Energy>  (2518) 
138.21183555070067

>  <Genealogy>  (2518) 
C=c1c(=Cc2[n-]c(=O)[n-]c2O)cc(C)n1-c1cccc(C(=O)N2CC(=O)N(C)C2)c1 (protonated)
C=c1/c(=C\c2[n-]c(=O)[n-]c2O)cc(C)n1-c1cccc(C(=O)N2CC(=O)N(C)C2)c1 (cis-trans isomerization)
C=c1/c(=C\c2[n-]c(=O)[n-]c2O)cc(C)n1-c1cccc(C(=O)N2CC(=O)N(C)C2)c1 (3D coordinates assigned)
C=c1/c(=C\c2[n-]c(=O)[n-]c2O)cc(C)n1-c1cccc(C(=O)N2CC(=O)N(C)C2)c1 (nonaromatic ring conformer: 138.21183555070067 kcal/mol)

>  <smiles>  (2518) 
C=c1c(=Cc2[nH]c(=O)[nH]c2O)cc(C)n1-c1cccc(C(=O)N2CC(=O)N(C)C2)c1

>  <score_type>  (2518) 
oracle

>  <origin>  (2518) 
adg

>  <m_score__min__energy>  (2518) 
-14.359999999999999

>  <m_primary>  (2518) 
energy

$$$$
6:0
     RDKit          3D

 26 28  0  0  0  0  0  0  0  0999 V2000
   57.7530   27.6850   44.1460 C   0  0  0  0  0  0  0  0  0  0  0  0
   58.2090   27.2800   45.3410 C   0  0  0  0  0  0  0  0  0  0  0  0
   57.9620   26.0520   45.9790 C   0  0  0  0  0  0  0  0  0  0  0  0
   57.3760   24.9240   45.5330 C   0  0  0  0  0  0  0  0  0  0  0  0
   55.9270   24.6880   45.4370 C   0  0  0  0  0  0  0  0  0  0  0  0
   55.3560   23.4840   45.2460 N   0  0  0  0  0  0  0  0  0  0  0  0
   54.0350   23.7480   45.3490 C   0  0  0  0  0  0  0  0  0  0  0  0
   53.1530   22.8600   45.2080 O   0  0  0  0  0  0  0  0  0  0  0  0
   53.7330   25.0350   45.6230 N   0  0  0  0  0  0  0  0  0  0  0  0
   54.9440   25.6120   45.6890 C   0  0  0  0  0  0  0  0  0  0  0  0
   55.1440   26.9560   45.9770 O   0  0  0  0  0  0  0  0  0  0  0  0
   58.4710   26.1740   47.2630 C   0  0  0  0  0  0  0  0  0  0  0  0
   59.0520   27.4220   47.3450 C   0  0  0  0  0  0  0  0  0  0  0  0
   59.7150   27.9820   48.5660 C   0  0  0  0  0  0  0  0  0  0  0  0
   58.9010   28.0890   46.1820 N   0  0  0  0  0  0  0  0  0  0  0  0
   59.3060   29.4460   45.9550 C   0  0  0  0  0  0  0  0  0  0  0  0
   60.1220   29.6990   45.0260 O   0  0  0  0  0  0  0  0  0  0  0  0
   58.8610   30.5250   46.9040 C   0  0  0  0  0  0  0  0  0  0  0  0
   58.6020   31.8380   46.2010 C   0  0  0  0  0  0  0  0  0  0  0  0
   59.4320   32.9390   46.4740 C   0  0  0  0  0  0  0  0  0  0  0  0
   59.2280   34.1560   45.8210 C   0  0  0  0  0  0  0  0  0  0  0  0
   58.2050   34.2840   44.8820 C   0  0  0  0  0  0  0  0  0  0  0  0
   57.3840   33.1930   44.5870 C   0  0  0  0  0  0  0  0  0  0  0  0
   57.5770   31.9580   45.2390 C   0  0  0  0  0  0  0  0  0  0  0  0
   56.7740   30.8410   44.9540 O   0  0  0  0  0  0  0  0  0  0  0  0
   56.3490   30.4590   43.6500 C   0  0  0  0  0  0  0  0  0  0  0  0
  1  2  2  0
  2  3  1  0
  3  4  2  0
  4  5  1  0
  5  6  1  0
  6  7  1  0
  7  8  2  0
  7  9  1  0
  9 10  1  0
 10 11  1  0
  3 12  1  0
 12 13  2  0
 13 14  1  0
 13 15  1  0
 15 16  1  0
 16 17  2  0
 16 18  1  0
 18 19  1  0
 19 20  2  0
 20 21  1  0
 21 22  2  0
 22 23  1  0
 23 24  2  0
 24 25  1  0
 25 26  1  0
 15  2  1  0
 24 19  1  0
 10  5  2  0
M  CHG  3   6  -1   9  -1  11  -1
M  END
>  <UniqueID>  (2519) 
7

>  <SMILES>  (2519) 
C=c1/c(=C\c2[n-]c(=O)[n-]c2[O-])cc(C)n1C(=O)Cc1ccccc1OC

>  <Energy>  (2519) 
118.84943685567978

>  <Genealogy>  (2519) 
C=c1c(=Cc2[n-]c(=O)[n-]c2[O-])cc(C)n1C(=O)Cc1ccccc1OC (protonated)
C=c1/c(=C\c2[n-]c(=O)[n-]c2[O-])cc(C)n1C(=O)Cc1ccccc1OC (cis-trans isomerization)
C=c1/c(=C\c2[n-]c(=O)[n-]c2[O-])cc(C)n1C(=O)Cc1ccccc1OC (3D coordinates assigned)
C=c1/c(=C\c2[n-]c(=O)[n-]c2[O-])cc(C)n1C(=O)Cc1ccccc1OC (optimized conformer: 118.84943685567978 kcal/mol)

>  <smiles>  (2519) 
C=c1c(=Cc2[nH]c(=O)[nH]c2O)cc(C)n1C(=O)Cc1ccccc1OC

>  <score_type>  (2519) 
oracle

>  <origin>  (2519) 
adg

>  <m_score__min__energy>  (2519) 
-15.52

>  <m_primary>  (2519) 
energy

$$$$
7:0
     RDKit          3D

 29 32  0  0  0  0  0  0  0  0999 V2000
   58.5320   30.6030   47.0380 C   0  0  0  0  0  0  0  0  0  0  0  0
   58.3780   31.5620   46.1100 C   0  0  0  0  0  0  0  0  0  0  0  0
   58.1210   31.3640   44.7420 C   0  0  0  0  0  0  0  0  0  0  0  0
   57.7750   30.2570   44.0560 C   0  0  0  0  0  0  0  0  0  0  0  0
   57.5140   28.9320   44.6410 C   0  0  0  0  0  0  0  0  0  0  0  0
   56.3350   28.5170   45.2180 C   0  0  0  0  0  0  0  0  0  0  0  0
   55.1450   29.2340   45.2360 O   0  0  0  0  0  0  0  0  0  0  0  0
   56.4850   27.3030   45.7810 N   0  0  0  0  0  0  0  0  0  0  0  0
   57.7850   27.0230   45.5460 C   0  0  0  0  0  0  0  0  0  0  0  0
   58.3370   25.9600   45.9340 O   0  0  0  0  0  0  0  0  0  0  0  0
   58.4430   27.9880   44.8740 N   0  0  0  0  0  0  0  0  0  0  0  0
   58.2770   32.5960   44.1360 C   0  0  0  0  0  0  0  0  0  0  0  0
   58.5390   33.5060   45.1370 C   0  0  0  0  0  0  0  0  0  0  0  0
   58.8020   34.9640   44.8990 C   0  0  0  0  0  0  0  0  0  0  0  0
   58.6000   32.8870   46.3400 N   0  0  0  0  0  0  0  0  0  0  0  0
   58.9290   33.5490   47.6150 C   0  0  0  0  0  0  0  0  0  0  0  0
   60.4050   33.4560   47.9020 C   0  0  0  0  0  0  0  0  0  0  0  0
   61.3210   33.1880   46.8560 C   0  0  0  0  0  0  0  0  0  0  0  0
   62.7000   33.1110   47.1110 C   0  0  0  0  0  0  0  0  0  0  0  0
   63.1540   33.3010   48.4150 C   0  0  0  0  0  0  0  0  0  0  0  0
   64.4580   33.2540   48.7870 N   0  0  0  0  0  0  0  0  0  0  0  0
   64.5850   33.4790   50.1190 C   0  0  0  0  0  0  0  0  0  0  0  0
   65.7170   33.4950   50.7590 N   0  0  0  0  0  0  0  0  0  0  0  0
   66.8560   32.6360   50.5750 C   0  0  0  0  0  0  0  0  0  0  0  0
   67.9300   33.1450   50.1590 O   0  0  0  0  0  0  0  0  0  0  0  0
   66.8240   31.1620   50.8550 C   0  0  0  0  0  0  0  0  0  0  0  0
   63.0960   33.7420   50.8800 S   0  0  0  0  0  0  0  0  0  0  0  0
   62.2570   33.5590   49.4380 C   0  0  0  0  0  0  0  0  0  0  0  0
   60.8850   33.6400   49.2160 C   0  0  0  0  0  0  0  0  0  0  0  0
  1  2  2  0
  2  3  1  0
  3  4  2  0
  4  5  1  0
  5  6  2  0
  6  7  1  0
  6  8  1  0
  8  9  1  0
  9 10  2  0
  9 11  1  0
  3 12  1  0
 12 13  2  0
 13 14  1  0
 13 15  1  0
 15 16  1  0
 16 17  1  0
 17 18  2  0
 18 19  1  0
 19 20  2  0
 20 21  1  0
 21 22  1  0
 22 23  2  0
 23 24  1  0
 24 25  2  0
 24 26  1  0
 22 27  1  0
 27 28  1  0
 28 29  2  0
 15  2  1  0
 29 17  1  0
 11  5  1  0
 28 20  1  0
M  CHG  3   7  -1   8  -1  21  -1
M  END
>  <UniqueID>  (2520) 
8

>  <SMILES>  (2520) 
C=c1/c(=C\c2[nH]c(=O)[n-]c2[O-])cc(C)n1Cc1ccc2[n-]/c(=N\C(C)=O)sc2c1

>  <Energy>  (2520) 
155.33440521299076

>  <Genealogy>  (2520) 
C=c1c(=Cc2[nH]c(=O)[n-]c2[O-])cc(C)n1Cc1ccc2[n-]c(=NC(C)=O)sc2c1 (protonated)
C=c1/c(=C\c2[nH]c(=O)[n-]c2[O-])cc(C)n1Cc1ccc2[n-]/c(=N\C(C)=O)sc2c1 (cis-trans isomerization)
C=c1/c(=C\c2[nH]c(=O)[n-]c2[O-])cc(C)n1Cc1ccc2[n-]/c(=N\C(C)=O)sc2c1 (3D coordinates assigned)
C=c1/c(=C\c2[nH]c(=O)[n-]c2[O-])cc(C)n1Cc1ccc2[n-]/c(=N\C(C)=O)sc2c1 (optimized conformer: 155.33440521299076 kcal/mol)

>  <smiles>  (2520) 
C=c1c(=Cc2[nH]c(=O)[nH]c2O)cc(C)n1Cc1ccc2[nH]c(=NC(C)=O)sc2c1

>  <score_type>  (2520) 
oracle

>  <origin>  (2520) 
adg

>  <m_score__min__energy>  (2520) 
-15.59

>  <m_primary>  (2520) 
energy

$$$$
38:0
     RDKit          3D

 34 37  0  0  0  0  0  0  0  0999 V2000
   58.5480   29.6270   48.1460 C   0  0  0  0  0  0  0  0  0  0  0  0
   58.1110   29.4810   46.8850 C   0  0  0  0  0  0  0  0  0  0  0  0
   57.8020   28.2710   46.2570 C   0  0  0  0  0  0  0  0  0  0  0  0
   57.8070   27.0400   46.8050 C   0  0  0  0  0  0  0  0  0  0  0  0
   57.0960   25.8810   46.2350 C   0  0  0  0  0  0  0  0  0  0  0  0
   57.7250   24.7970   45.7500 N   0  0  0  0  0  0  0  0  0  0  0  0
   56.7170   24.0420   45.2620 C   0  0  0  0  0  0  0  0  0  0  0  0
   56.9080   22.9180   44.7270 O   0  0  0  0  0  0  0  0  0  0  0  0
   55.4880   24.5890   45.3820 N   0  0  0  0  0  0  0  0  0  0  0  0
   55.7460   25.7590   45.9890 C   0  0  0  0  0  0  0  0  0  0  0  0
   54.7720   26.7100   46.2650 O   0  0  0  0  0  0  0  0  0  0  0  0
   57.4390   28.5900   44.9560 C   0  0  0  0  0  0  0  0  0  0  0  0
   57.5420   29.9630   44.8400 C   0  0  0  0  0  0  0  0  0  0  0  0
   57.2790   30.7220   43.5750 C   0  0  0  0  0  0  0  0  0  0  0  0
   57.9380   30.5110   46.0150 N   0  0  0  0  0  0  0  0  0  0  0  0
   58.1510   31.9450   46.2750 C   0  0  0  0  0  0  0  0  0  0  0  0
   59.5420   32.2110   46.8050 C   0  0  0  0  0  0  0  0  0  0  0  0
   60.5380   31.2300   46.6750 C   0  0  0  0  0  0  0  0  0  0  0  0
   61.8320   31.4650   47.1470 C   0  0  0  0  0  0  0  0  0  0  0  0
   62.1540   32.6850   47.7590 C   0  0  0  0  0  0  0  0  0  0  0  0
   63.5290   32.9330   48.2440 C   0  0  0  0  0  0  0  0  0  0  0  0
   64.3840   33.4140   47.4500 O   0  0  0  0  0  0  0  0  0  0  0  0
   63.9150   32.6230   49.5960 N   0  0  0  0  0  0  0  0  0  0  0  0
   63.5530   31.3180   50.1720 C   0  0  0  0  0  0  0  0  0  0  0  0
   64.3130   31.0360   51.4770 C   0  0  0  0  0  0  0  0  0  0  0  0
   65.7330   31.4100   51.3450 N   0  0  0  0  0  0  0  0  0  0  0  0
   66.7810   30.6190   51.9470 C   0  0  0  0  0  0  0  0  0  0  0  0
   67.9860   30.8540   51.6560 O   0  0  0  0  0  0  0  0  0  0  0  0
   66.4840   29.5080   52.9070 C   0  0  0  0  0  0  0  0  0  0  0  0
   66.0980   32.6810   50.6990 C   0  0  0  0  0  0  0  0  0  0  0  0
   64.8610   33.4900   50.3060 C   0  0  0  0  0  0  0  0  0  0  0  0
   61.1690   33.6790   47.8590 C   0  0  0  0  0  0  0  0  0  0  0  0
   59.8750   33.4490   47.3860 C   0  0  0  0  0  0  0  0  0  0  0  0
   58.9530   34.4380   47.4910 F   0  0  0  0  0  0  0  0  0  0  0  0
  1  2  2  0
  2  3  1  0
  3  4  2  0
  4  5  1  0
  5  6  1  0
  6  7  1  0
  7  8  2  0
  7  9  1  0
  9 10  1  0
 10 11  1  0
  3 12  1  0
 12 13  2  0
 13 14  1  0
 13 15  1  0
 15 16  1  0
 16 17  1  0
 17 18  2  0
 18 19  1  0
 19 20  2  0
 20 21  1  0
 21 22  2  0
 21 23  1  0
 23 24  1  0
 24 25  1  0
 25 26  1  0
 26 27  1  0
 27 28  2  0
 27 29  1  0
 26 30  1  0
 30 31  1  0
 20 32  1  0
 32 33  2  0
 33 34  1  0
 15  2  1  0
 33 17  1  0
 10  5  2  0
 31 23  1  0
M  CHG  3   6  -1   9  -1  11  -1
M  END
>  <UniqueID>  (2521) 
37

>  <SMILES>  (2521) 
C=c1/c(=C/c2[n-]c(=O)[n-]c2[O-])cc(C)n1Cc1ccc(C(=O)N2CCN(C(C)=O)CC2)cc1F

>  <Energy>  (2521) 
130.31543892337743

>  <Genealogy>  (2521) 
C=c1c(=Cc2[n-]c(=O)[n-]c2[O-])cc(C)n1Cc1ccc(C(=O)N2CCN(C(C)=O)CC2)cc1F (protonated)
C=c1/c(=C/c2[n-]c(=O)[n-]c2[O-])cc(C)n1Cc1ccc(C(=O)N2CCN(C(C)=O)CC2)cc1F (cis-trans isomerization)
C=c1/c(=C/c2[n-]c(=O)[n-]c2[O-])cc(C)n1Cc1ccc(C(=O)N2CCN(C(C)=O)CC2)cc1F (3D coordinates assigned)
C=c1/c(=C/c2[n-]c(=O)[n-]c2[O-])cc(C)n1Cc1ccc(C(=O)N2CCN(C(C)=O)CC2)cc1F (nonaromatic ring conformer: 130.31543892337743 kcal/mol)

>  <smiles>  (2521) 
C=c1c(=Cc2[nH]c(=O)[nH]c2O)cc(C)n1Cc1ccc(C(=O)N2CCN(C(C)=O)CC2)cc1F

>  <score_type>  (2521) 
oracle

>  <origin>  (2521) 
adg

>  <m_score__min__energy>  (2521) 
-16.739999999999998

>  <m_primary>  (2521) 
energy

$$$$
40:0
     RDKit          3D

 26 28  0  0  0  0  0  0  0  0999 V2000
   52.6430   28.9040   54.5420 C   0  0  0  0  0  0  0  0  0  0  0  0
   53.6980   29.1230   53.7380 C   0  0  0  0  0  0  0  0  0  0  0  0
   54.9110   28.6210   54.1290 N   0  0  0  0  0  0  0  0  0  0  0  0
   56.0760   28.9850   53.5340 C   0  0  0  0  0  0  0  0  0  0  0  0
   56.0810   29.9180   52.4970 C   0  0  0  0  0  0  0  0  0  0  0  0
   57.3570   30.3460   51.8730 C   0  0  0  0  0  0  0  0  0  0  0  0
   57.8000   29.7170   50.8740 O   0  0  0  0  0  0  0  0  0  0  0  0
   58.0880   31.4780   52.3740 N   0  0  0  0  0  0  0  0  0  0  0  0
   58.5010   31.5090   53.7790 C   0  0  0  0  0  0  0  0  0  0  0  0
   58.5480   32.9590   54.2720 C   0  0  0  0  0  0  0  0  0  0  0  0
   59.3760   33.8160   53.3990 N   0  0  0  0  0  0  0  0  0  0  0  0
   60.8230   33.5450   53.5370 C   0  0  0  0  0  0  0  0  0  0  0  0
   61.4870   33.5350   52.1920 C   0  0  0  0  0  0  0  0  0  0  0  0
   61.8680   32.4820   51.7080 O   0  0  0  0  0  0  0  0  0  0  0  0
   58.9040   33.7740   51.9940 C   0  0  0  0  0  0  0  0  0  0  0  0
   58.8010   32.3450   51.4350 C   0  0  0  0  0  0  0  0  0  0  0  0
   54.8550   30.3950   52.0210 C   0  0  0  0  0  0  0  0  0  0  0  0
   53.6340   29.9560   52.5740 C   0  0  0  0  0  0  0  0  0  0  0  0
   52.4980   30.3420   51.9380 C   0  0  0  0  0  0  0  0  0  0  0  0
   51.5610   31.3900   52.3820 C   0  0  0  0  0  0  0  0  0  0  0  0
   51.3020   31.6520   53.6750 N   0  0  0  0  0  0  0  0  0  0  0  0
   50.4920   32.7320   53.6190 C   0  0  0  0  0  0  0  0  0  0  0  0
   50.0160   33.2750   54.6500 O   0  0  0  0  0  0  0  0  0  0  0  0
   50.2430   33.1910   52.3740 N   0  0  0  0  0  0  0  0  0  0  0  0
   50.9370   32.3410   51.6030 C   0  0  0  0  0  0  0  0  0  0  0  0
   51.0240   32.4510   50.2200 O   0  0  0  0  0  0  0  0  0  0  0  0
  1  2  2  0
  2  3  1  0
  3  4  2  0
  4  5  1  0
  5  6  1  0
  6  7  2  0
  6  8  1  0
  8  9  1  0
  9 10  1  0
 10 11  1  0
 11 12  1  0
 12 13  1  0
 13 14  2  0
 11 15  1  0
 15 16  1  0
  5 17  2  0
 17 18  1  0
 18 19  2  3
 19 20  1  0
 20 21  1  0
 21 22  1  0
 22 23  2  0
 22 24  1  0
 24 25  1  0
 25 26  1  0
 18  2  1  0
 25 20  2  0
 16  8  1  0
M  CHG  4   3   1  21  -1  24  -1  26  -1
M  END
>  <UniqueID>  (2522) 
39

>  <SMILES>  (2522) 
C=c1[nH+]cc(C(=O)N2CCN(CC=O)CC2)cc1=Cc1[n-]c(=O)[n-]c1[O-]

>  <Energy>  (2522) 
101.32677380045847

>  <Genealogy>  (2522) 
C=c1[nH+]cc(C(=O)N2CCN(CC=O)CC2)cc1=Cc1[n-]c(=O)[n-]c1[O-] (protonated)
C=c1[nH+]cc(C(=O)N2CCN(CC=O)CC2)cc1=Cc1[n-]c(=O)[n-]c1[O-] (3D coordinates assigned)
C=c1[nH+]cc(C(=O)N2CCN(CC=O)CC2)cc1=Cc1[n-]c(=O)[n-]c1[O-] (nonaromatic ring conformer: 101.32677380045847 kcal/mol)

>  <smiles>  (2522) 
C=c1ncc(C(=O)N2CCN(CC=O)CC2)cc1=Cc1[nH]c(=O)[nH]c1O

>  <score_type>  (2522) 
oracle

>  <origin>  (2522) 
adg

>  <m_score__min__energy>  (2522) 
-14.76

>  <m_primary>  (2522) 
energy

$$$$
45:0
     RDKit          3D

 28 29  0  0  0  0  0  0  0  0999 V2000
   59.1970   32.6220   49.3080 C   0  0  0  0  0  0  0  0  0  0  0  0
   59.2410   33.7190   48.2860 C   0  0  0  0  0  0  0  0  0  0  0  0
   59.6660   34.8500   48.6430 O   0  0  0  0  0  0  0  0  0  0  0  0
   58.7940   33.5060   46.8830 C   0  0  0  0  0  0  0  0  0  0  0  0
   59.1930   34.4010   45.8730 C   0  0  0  0  0  0  0  0  0  0  0  0
   58.7910   34.2070   44.5500 C   0  0  0  0  0  0  0  0  0  0  0  0
   57.9760   33.1240   44.2160 C   0  0  0  0  0  0  0  0  0  0  0  0
   57.5430   32.2340   45.2100 C   0  0  0  0  0  0  0  0  0  0  0  0
   56.7330   31.0940   44.8920 N   0  0  0  0  0  0  0  0  0  0  0  0
   57.0280   29.7300   45.2220 C   0  0  0  0  0  0  0  0  0  0  0  0
   56.0900   28.8910   45.2380 O   0  0  0  0  0  0  0  0  0  0  0  0
   58.4350   29.2620   45.4840 C   0  0  0  0  0  0  0  0  0  0  0  0
   58.6050   27.8560   45.0620 N   0  0  0  0  0  0  0  0  0  0  0  0
   58.0830   27.6240   43.7070 C   0  0  0  0  0  0  0  0  0  0  0  0
   58.1210   26.8610   46.0520 C   0  0  0  0  0  0  0  0  0  0  0  0
   58.9880   25.6250   46.2100 C   0  0  0  0  0  0  0  0  0  0  0  0
   60.2420   25.7320   46.2230 O   0  0  0  0  0  0  0  0  0  0  0  0
   58.4240   24.3070   46.1470 N   0  0  0  0  0  0  0  0  0  0  0  0
   57.4580   23.8430   45.1940 C   0  0  0  0  0  0  0  0  0  0  0  0
   57.8680   23.0010   44.1460 C   0  0  0  0  0  0  0  0  0  0  0  0
   56.9590   22.5790   43.1760 C   0  0  0  0  0  0  0  0  0  0  0  0
   55.6350   23.0060   43.2300 C   0  0  0  0  0  0  0  0  0  0  0  0
   55.2160   23.8650   44.2470 C   0  0  0  0  0  0  0  0  0  0  0  0
   56.1170   24.3030   45.2390 C   0  0  0  0  0  0  0  0  0  0  0  0
   55.6280   25.2150   46.3100 C   0  0  0  0  0  0  0  0  0  0  0  0
   54.8100   26.3390   45.9830 N   0  0  0  0  0  0  0  0  0  0  0  0
   55.9150   25.0080   47.5190 O   0  0  0  0  0  0  0  0  0  0  0  0
   57.9700   32.4160   46.5320 C   0  0  0  0  0  0  0  0  0  0  0  0
  1  2  1  0
  2  3  2  0
  2  4  1  0
  4  5  2  0
  5  6  1  0
  6  7  2  0
  7  8  1  0
  8  9  1  0
  9 10  1  0
 10 11  2  0
 10 12  1  0
 12 13  1  0
 13 14  1  0
 13 15  1  0
 15 16  1  0
 16 17  2  0
 16 18  1  0
 18 19  1  0
 19 20  2  0
 20 21  1  0
 21 22  2  0
 22 23  1  0
 23 24  2  0
 24 25  1  0
 25 26  1  0
 25 27  2  0
  8 28  2  0
 28  4  1  0
 24 19  1  0
M  CHG  3   9  -1  18  -1  26  -1
M  END
>  <UniqueID>  (2523) 
44

>  <SMILES>  (2523) 
CC(=O)c1cccc([N-]C(=O)CN(C)CC(=O)[N-]c2ccccc2C([NH-])=O)c1

>  <Energy>  (2523) 
66.05305946348584

>  <Genealogy>  (2523) 
CC(=O)c1cccc([N-]C(=O)CN(C)CC(=O)[N-]c2ccccc2C([NH-])=O)c1 (protonated)
CC(=O)c1cccc([N-]C(=O)CN(C)CC(=O)[N-]c2ccccc2C([NH-])=O)c1 (3D coordinates assigned)
CC(=O)c1cccc([N-]C(=O)CN(C)CC(=O)[N-]c2ccccc2C([NH-])=O)c1 (optimized conformer: 66.05305946348584 kcal/mol)

>  <smiles>  (2523) 
CC(=O)c1cccc(NC(=O)CN(C)CC(=O)Nc2ccccc2C(N)=O)c1

>  <score_type>  (2523) 
oracle

>  <origin>  (2523) 
adg

>  <m_score__min__energy>  (2523) 
-14.970000000000001

>  <m_primary>  (2523) 
energy

$$$$
56:0
     RDKit          3D

 29 32  0  0  0  0  0  0  0  0999 V2000
   64.8310   33.0510   49.4140 C   0  0  0  0  0  0  0  0  0  0  0  0
   63.5660   33.3950   49.2580 C   0  0  0  0  0  0  0  0  0  0  0  0
   62.7360   33.0360   48.0890 C   0  0  0  0  0  0  0  0  0  0  0  0
   63.2680   32.9690   46.9470 O   0  0  0  0  0  0  0  0  0  0  0  0
   61.3420   32.7300   48.2550 N   0  0  0  0  0  0  0  0  0  0  0  0
   60.4050   32.6480   47.1680 C   0  0  0  0  0  0  0  0  0  0  0  0
   60.1470   33.7890   46.3930 C   0  0  0  0  0  0  0  0  0  0  0  0
   59.2570   33.7280   45.3170 C   0  0  0  0  0  0  0  0  0  0  0  0
   58.6280   32.5240   44.9950 C   0  0  0  0  0  0  0  0  0  0  0  0
   58.8910   31.3690   45.7450 C   0  0  0  0  0  0  0  0  0  0  0  0
   58.2670   30.1220   45.3930 N   0  0  0  0  0  0  0  0  0  0  0  0
   57.0370   29.9790   44.8490 C   0  0  0  0  0  0  0  0  0  0  0  0
   56.1250   31.1090   44.4800 C   0  0  0  0  0  0  0  0  0  0  0  0
   56.7580   28.6450   44.6330 C   0  0  0  0  0  0  0  0  0  0  0  0
   57.8590   27.9290   45.0840 C   0  0  0  0  0  0  0  0  0  0  0  0
   58.0200   26.5920   45.0270 C   0  0  0  0  0  0  0  0  0  0  0  0
   57.3030   25.6370   45.8920 C   0  0  0  0  0  0  0  0  0  0  0  0
   57.9010   24.5920   46.4900 N   0  0  0  0  0  0  0  0  0  0  0  0
   56.9140   24.0510   47.2370 C   0  0  0  0  0  0  0  0  0  0  0  0
   57.0850   23.0260   47.9450 O   0  0  0  0  0  0  0  0  0  0  0  0
   55.7330   24.7020   47.1720 N   0  0  0  0  0  0  0  0  0  0  0  0
   55.9980   25.7110   46.3280 C   0  0  0  0  0  0  0  0  0  0  0  0
   55.0790   26.7010   46.0030 O   0  0  0  0  0  0  0  0  0  0  0  0
   58.7840   28.8750   45.5400 C   0  0  0  0  0  0  0  0  0  0  0  0
   60.0070   28.6220   46.0290 C   0  0  0  0  0  0  0  0  0  0  0  0
   59.7840   31.4330   46.8240 C   0  0  0  0  0  0  0  0  0  0  0  0
   63.1090   34.2160   50.4190 C   0  0  0  0  0  0  0  0  0  0  0  0
   64.3640   34.2970   51.3000 C   0  0  0  0  0  0  0  0  0  0  0  0
   65.3430   33.5500   50.5950 O   0  0  0  0  0  0  0  0  0  0  0  0
  1  2  2  0
  2  3  1  0
  3  4  2  0
  3  5  1  0
  5  6  1  0
  6  7  2  0
  7  8  1  0
  8  9  2  0
  9 10  1  0
 10 11  1  0
 11 12  1  0
 12 13  1  0
 12 14  2  0
 14 15  1  0
 15 16  2  0
 16 17  1  0
 17 18  1  0
 18 19  1  0
 19 20  2  0
 19 21  1  0
 21 22  1  0
 22 23  1  0
 15 24  1  0
 24 25  2  0
 10 26  2  0
  2 27  1  0
 27 28  1  0
 28 29  1  0
 29  1  1  0
 26  6  1  0
 24 11  1  0
 22 17  2  0
M  CHG  3  18  -1  21  -1  23  -1
M  END
>  <UniqueID>  (2524) 
54

>  <SMILES>  (2524) 
C=c1/c(=C/c2[n-]c(=O)[n-]c2[O-])cc(C)n1-c1cccc(NC(=O)C2=COCC2)c1

>  <Energy>  (2524) 
133.9948470926958

>  <Genealogy>  (2524) 
C=c1c(=Cc2[n-]c(=O)[n-]c2[O-])cc(C)n1-c1cccc(NC(=O)C2=COCC2)c1 (protonated)
C=c1/c(=C/c2[n-]c(=O)[n-]c2[O-])cc(C)n1-c1cccc(NC(=O)C2=COCC2)c1 (cis-trans isomerization)
C=c1/c(=C/c2[n-]c(=O)[n-]c2[O-])cc(C)n1-c1cccc(NC(=O)C2=COCC2)c1 (3D coordinates assigned)
C=c1/c(=C/c2[n-]c(=O)[n-]c2[O-])cc(C)n1-c1cccc(NC(=O)C2=COCC2)c1 (nonaromatic ring conformer: 133.9948470926958 kcal/mol)

>  <smiles>  (2524) 
C=c1c(=Cc2[nH]c(=O)[nH]c2O)cc(C)n1-c1cccc(NC(=O)C2=COCC2)c1

>  <score_type>  (2524) 
oracle

>  <origin>  (2524) 
adg

>  <m_score__min__energy>  (2524) 
-16.34

>  <m_primary>  (2524) 
energy

$$$$
57:0
     RDKit          3D

 30 33  0  0  0  0  0  0  0  0999 V2000
   54.9580   26.5680   46.0420 O   0  0  0  0  0  0  0  0  0  0  0  0
   55.4210   25.2900   45.7400 C   0  0  0  0  0  0  0  0  0  0  0  0
   54.6710   24.3650   45.1190 N   0  0  0  0  0  0  0  0  0  0  0  0
   55.4830   23.2860   45.0990 C   0  0  0  0  0  0  0  0  0  0  0  0
   55.1330   22.1840   44.6020 O   0  0  0  0  0  0  0  0  0  0  0  0
   56.6930   23.4760   45.6660 N   0  0  0  0  0  0  0  0  0  0  0  0
   56.6580   24.7620   46.0560 C   0  0  0  0  0  0  0  0  0  0  0  0
   57.7640   25.4140   46.7770 C   0  0  0  0  0  0  0  0  0  0  0  0
   58.1940   26.6640   46.5160 C   0  0  0  0  0  0  0  0  0  0  0  0
   57.3990   27.7910   46.3650 C   0  0  0  0  0  0  0  0  0  0  0  0
   58.2510   28.8420   46.0910 C   0  0  0  0  0  0  0  0  0  0  0  0
   57.7970   30.2240   45.8480 C   0  0  0  0  0  0  0  0  0  0  0  0
   57.0190   30.4370   44.8780 O   0  0  0  0  0  0  0  0  0  0  0  0
   58.2080   31.3220   46.6900 N   0  0  0  0  0  0  0  0  0  0  0  0
   58.4770   31.1210   48.1220 C   0  0  0  0  0  0  0  0  0  0  0  0
   59.7080   31.9290   48.5450 C   0  0  0  0  0  0  0  0  0  0  0  0
   59.6390   33.4240   48.1310 C   0  0  0  0  0  0  0  0  0  0  0  0
   60.9560   33.8660   47.5140 C   0  0  0  0  0  0  0  0  0  0  0  0
   60.9650   34.3620   46.3530 O   0  0  0  0  0  0  0  0  0  0  0  0
   62.2080   33.6540   48.1940 N   0  0  0  0  0  0  0  0  0  0  0  0
   62.3420   33.1020   49.5330 C   0  0  0  0  0  0  0  0  0  0  0  0
   63.8330   33.1400   49.8470 C   0  0  0  0  0  0  0  0  0  0  0  0
   64.5410   33.3550   48.5110 C   0  0  0  0  0  0  0  0  0  0  0  0
   63.4910   33.9270   47.5680 C   0  0  0  0  0  0  0  0  0  0  0  0
   58.4290   33.7500   47.2210 C   0  0  0  0  0  0  0  0  0  0  0  0
   58.1890   32.6850   46.1390 C   0  0  0  0  0  0  0  0  0  0  0  0
   59.5330   28.4100   46.0290 N   0  0  0  0  0  0  0  0  0  0  0  0
   60.7100   29.2000   45.6530 C   0  0  0  0  0  0  0  0  0  0  0  0
   59.5100   27.0790   46.2950 C   0  0  0  0  0  0  0  0  0  0  0  0
   60.6050   26.3040   46.3320 C   0  0  0  0  0  0  0  0  0  0  0  0
  1  2  1  0
  2  3  1  0
  3  4  1  0
  4  5  2  0
  4  6  1  0
  6  7  1  0
  7  8  1  0
  8  9  2  0
  9 10  1  0
 10 11  2  0
 11 12  1  0
 12 13  2  0
 12 14  1  0
 14 15  1  0
 15 16  1  0
 16 17  1  0
 17 18  1  0
 18 19  2  0
 18 20  1  0
 20 21  1  0
 21 22  1  0
 22 23  1  0
 23 24  1  0
 17 25  1  0
 25 26  1  0
 11 27  1  0
 27 28  1  0
 27 29  1  0
 29 30  2  0
  7  2  2  0
 29  9  1  0
 26 14  1  0
 24 20  1  0
M  CHG  2   3  -1   6  -1
M  END
>  <UniqueID>  (2525) 
55

>  <SMILES>  (2525) 
C=c1/c(=C/c2[n-]c(=O)[n-]c2O)cc(C(=O)N2CCC(C(=O)N3CCCC3)CC2)n1C

>  <Energy>  (2525) 
129.34124493570084

>  <Genealogy>  (2525) 
C=c1c(=Cc2[n-]c(=O)[n-]c2O)cc(C(=O)N2CCC(C(=O)N3CCCC3)CC2)n1C (protonated)
C=c1/c(=C/c2[n-]c(=O)[n-]c2O)cc(C(=O)N2CCC(C(=O)N3CCCC3)CC2)n1C (cis-trans isomerization)
C=c1/c(=C/c2[n-]c(=O)[n-]c2O)cc(C(=O)N2CCC(C(=O)N3CCCC3)CC2)n1C (3D coordinates assigned)
C=c1/c(=C/c2[n-]c(=O)[n-]c2O)cc(C(=O)N2CCC(C(=O)N3CCCC3)CC2)n1C (nonaromatic ring conformer: 129.34124493570084 kcal/mol)

>  <smiles>  (2525) 
C=c1c(=Cc2[nH]c(=O)[nH]c2O)cc(C(=O)N2CCC(C(=O)N3CCCC3)CC2)n1C

>  <score_type>  (2525) 
oracle

>  <origin>  (2525) 
adg

>  <m_score__min__energy>  (2525) 
-14.220000000000001

>  <m_primary>  (2525) 
energy

$$$$
65:0
     RDKit          3D

 30 32  0  0  0  0  0  0  0  0999 V2000
   54.7340   26.3310   45.9600 O   0  0  0  0  0  0  0  0  0  0  0  0
   55.9740   26.1710   46.1410 C   0  0  0  0  0  0  0  0  0  0  0  0
   56.9600   26.9830   45.3610 C   0  0  0  0  0  0  0  0  0  0  0  0
   57.1360   28.3010   45.9620 N   0  0  0  0  0  0  0  0  0  0  0  0
   56.9580   29.5300   45.2500 C   0  0  0  0  0  0  0  0  0  0  0  0
   55.8060   29.8790   44.8730 O   0  0  0  0  0  0  0  0  0  0  0  0
   58.1650   30.3830   44.9390 C   0  0  0  0  0  0  0  0  0  0  0  0
   57.7740   31.7340   44.3290 C   0  0  0  0  0  0  0  0  0  0  0  0
   57.2350   32.7220   45.3730 C   0  0  0  0  0  0  0  0  0  0  0  0
   58.1080   32.8640   46.5520 N   0  0  0  0  0  0  0  0  0  0  0  0
   59.3640   34.0740   46.3860 S   0  0  0  0  0  0  0  0  0  0  0  0
   59.6080   34.3190   44.9220 O   0  0  0  0  0  0  0  0  0  0  0  0
   58.8890   35.3680   46.9880 O   0  0  0  0  0  0  0  0  0  0  0  0
   60.8940   33.6290   47.1440 C   0  0  0  0  0  0  0  0  0  0  0  0
   62.0840   33.6500   46.3990 C   0  0  0  0  0  0  0  0  0  0  0  0
   63.3030   33.3280   47.0070 C   0  0  0  0  0  0  0  0  0  0  0  0
   63.3410   33.0010   48.3660 C   0  0  0  0  0  0  0  0  0  0  0  0
   62.1630   32.9990   49.1180 C   0  0  0  0  0  0  0  0  0  0  0  0
   60.9440   33.3220   48.5120 C   0  0  0  0  0  0  0  0  0  0  0  0
   58.5530   31.5970   47.1660 C   0  0  0  0  0  0  0  0  0  0  0  0
   59.0900   30.5770   46.1500 C   0  0  0  0  0  0  0  0  0  0  0  0
   56.4480   25.1690   47.0480 N   0  0  0  0  0  0  0  0  0  0  0  0
   56.9550   23.8690   46.6220 C   0  0  0  0  0  0  0  0  0  0  0  0
   58.2470   24.0130   45.8000 C   0  0  0  0  0  0  0  0  0  0  0  0
   58.1340   23.3650   44.4750 N   0  0  0  0  0  0  0  0  0  0  0  0
   57.1380   24.0480   43.6130 C   0  0  0  0  0  0  0  0  0  0  0  0
   55.7980   23.2900   43.5700 C   0  0  0  0  0  0  0  0  0  0  0  0
   55.9110   21.9600   43.0790 O   0  0  0  0  0  0  0  0  0  0  0  0
   57.1770   21.3660   43.3330 C   0  0  0  0  0  0  0  0  0  0  0  0
   57.8730   21.9110   44.5930 C   0  0  0  0  0  0  0  0  0  0  0  0
  1  2  2  0
  2  3  1  0
  3  4  1  0
  4  5  1  0
  5  6  2  0
  5  7  1  0
  7  8  1  0
  8  9  1  0
  9 10  1  0
 10 11  1  0
 11 12  2  0
 11 13  2  0
 11 14  1  0
 14 15  2  0
 15 16  1  0
 16 17  2  0
 17 18  1  0
 18 19  2  0
 10 20  1  0
 20 21  1  0
  2 22  1  0
 22 23  1  0
 23 24  1  0
 24 25  1  0
 25 26  1  0
 26 27  1  0
 27 28  1  0
 28 29  1  0
 29 30  1  0
 21  7  1  0
 30 25  1  0
 19 14  1  0
M  CHG  2   4  -1  22  -1
M  END
>  <UniqueID>  (2526) 
63

>  <SMILES>  (2526) 
O=C(C[N-]C(=O)C1CCN(S(=O)(=O)c2ccccc2)CC1)[N-]CCN1CCOCC1

>  <Energy>  (2526) 
71.81351454765812

>  <Genealogy>  (2526) 
O=C(C[N-]C(=O)C1CCN(S(=O)(=O)c2ccccc2)CC1)[N-]CCN1CCOCC1 (protonated)
O=C(C[N-]C(=O)C1CCN(S(=O)(=O)c2ccccc2)CC1)[N-]CCN1CCOCC1 (3D coordinates assigned)
O=C(C[N-]C(=O)C1CCN(S(=O)(=O)c2ccccc2)CC1)[N-]CCN1CCOCC1 (nonaromatic ring conformer: 71.81351454765812 kcal/mol)

>  <smiles>  (2526) 
O=C(CNC(=O)C1CCN(S(=O)(=O)c2ccccc2)CC1)NCCN1CCOCC1

>  <score_type>  (2526) 
oracle

>  <origin>  (2526) 
adg

>  <m_score__min__energy>  (2526) 
-14.300000000000001

>  <m_primary>  (2526) 
energy

$$$$
78:0
     RDKit          3D

 25 27  0  0  0  0  0  0  0  0999 V2000
   58.0840   26.9580   45.7840 O   0  0  0  0  0  0  0  0  0  0  0  0
   57.0000   27.5990   45.8060 C   0  0  0  0  0  0  0  0  0  0  0  0
   55.7750   26.8730   45.9830 N   0  0  0  0  0  0  0  0  0  0  0  0
   55.6470   25.4560   46.1670 C   0  0  0  0  0  0  0  0  0  0  0  0
   54.6190   24.7780   45.4980 C   0  0  0  0  0  0  0  0  0  0  0  0
   54.4710   23.3950   45.6450 C   0  0  0  0  0  0  0  0  0  0  0  0
   55.3610   22.6780   46.4490 C   0  0  0  0  0  0  0  0  0  0  0  0
   56.4060   23.3420   47.1000 C   0  0  0  0  0  0  0  0  0  0  0  0
   57.3010   22.6260   47.8860 O   0  0  0  0  0  0  0  0  0  0  0  0
   56.5560   24.7250   46.9550 C   0  0  0  0  0  0  0  0  0  0  0  0
   57.0210   29.0680   45.6010 C   0  0  0  0  0  0  0  0  0  0  0  0
   56.0070   29.7110   44.8760 C   0  0  0  0  0  0  0  0  0  0  0  0
   54.9700   28.9860   44.3000 O   0  0  0  0  0  0  0  0  0  0  0  0
   56.0410   31.0550   44.7130 N   0  0  0  0  0  0  0  0  0  0  0  0
   57.0440   31.8090   45.2270 C   0  0  0  0  0  0  0  0  0  0  0  0
   57.0310   33.0550   45.0360 O   0  0  0  0  0  0  0  0  0  0  0  0
   58.0620   31.2180   45.9290 N   0  0  0  0  0  0  0  0  0  0  0  0
   59.1280   32.0240   46.4710 C   0  0  0  0  0  0  0  0  0  0  0  0
   58.8460   33.2630   47.0700 C   0  0  0  0  0  0  0  0  0  0  0  0
   59.8800   34.0430   47.5960 C   0  0  0  0  0  0  0  0  0  0  0  0
   61.2010   33.5920   47.5280 C   0  0  0  0  0  0  0  0  0  0  0  0
   61.4900   32.3610   46.9340 C   0  0  0  0  0  0  0  0  0  0  0  0
   60.4590   31.5780   46.4060 C   0  0  0  0  0  0  0  0  0  0  0  0
   58.0630   29.8590   46.1200 C   0  0  0  0  0  0  0  0  0  0  0  0
   58.9860   29.3130   46.7880 O   0  0  0  0  0  0  0  0  0  0  0  0
  1  2  2  0
  2  3  1  0
  3  4  1  0
  4  5  2  0
  5  6  1  0
  6  7  2  0
  7  8  1  0
  8  9  1  0
  8 10  2  0
  2 11  1  0
 11 12  2  0
 12 13  1  0
 12 14  1  0
 14 15  1  0
 15 16  2  0
 15 17  1  0
 17 18  1  0
 18 19  2  0
 19 20  1  0
 20 21  2  0
 21 22  1  0
 22 23  2  0
 17 24  1  0
 24 25  2  0
 10  4  1  0
 24 11  1  0
 23 18  1  0
M  CHG  4   3  -1   9  -1  13  -1  14  -1
M  END
>  <UniqueID>  (2527) 
74

>  <SMILES>  (2527) 
O=C([N-]c1cccc([O-])c1)c1c([O-])[n-]c(=O)n(-c2ccccc2)c1=O

>  <Energy>  (2527) 
57.87878889921812

>  <Genealogy>  (2527) 
O=C([N-]c1cccc([O-])c1)c1c([O-])[n-]c(=O)n(-c2ccccc2)c1=O (protonated)
O=C([N-]c1cccc([O-])c1)c1c([O-])[n-]c(=O)n(-c2ccccc2)c1=O (3D coordinates assigned)
O=C([N-]c1cccc([O-])c1)c1c([O-])[n-]c(=O)n(-c2ccccc2)c1=O (optimized conformer: 57.87878889921812 kcal/mol)

>  <smiles>  (2527) 
O=C(Nc1cccc(O)c1)c1c(O)[nH]c(=O)n(-c2ccccc2)c1=O

>  <score_type>  (2527) 
oracle

>  <origin>  (2527) 
adg

>  <m_score__min__energy>  (2527) 
-15.76

>  <m_primary>  (2527) 
energy

$$$$
85:0
     RDKit          3D

 33 36  0  0  0  0  0  0  0  0999 V2000
   53.2840   28.5690   54.2460 C   0  0  0  0  0  0  0  0  0  0  0  0
   54.2060   29.2090   53.5060 C   0  0  0  0  0  0  0  0  0  0  0  0
   54.0130   30.4170   52.8310 C   0  0  0  0  0  0  0  0  0  0  0  0
   52.8640   31.1100   52.7090 C   0  0  0  0  0  0  0  0  0  0  0  0
   52.1300   31.2680   51.4400 C   0  0  0  0  0  0  0  0  0  0  0  0
   52.2540   30.4170   50.4030 N   0  0  0  0  0  0  0  0  0  0  0  0
   51.3540   30.8780   49.5060 C   0  0  0  0  0  0  0  0  0  0  0  0
   51.1830   30.3410   48.3770 O   0  0  0  0  0  0  0  0  0  0  0  0
   50.6460   31.9510   49.9150 N   0  0  0  0  0  0  0  0  0  0  0  0
   51.1390   32.1790   51.1470 C   0  0  0  0  0  0  0  0  0  0  0  0
   50.6580   33.1690   51.9960 O   0  0  0  0  0  0  0  0  0  0  0  0
   55.2360   30.7540   52.2740 C   0  0  0  0  0  0  0  0  0  0  0  0
   56.1280   29.7560   52.6230 C   0  0  0  0  0  0  0  0  0  0  0  0
   57.5840   29.7720   52.3050 C   0  0  0  0  0  0  0  0  0  0  0  0
   58.3010   28.7950   52.6600 O   0  0  0  0  0  0  0  0  0  0  0  0
   58.2090   30.9380   51.7090 N   0  0  0  0  0  0  0  0  0  0  0  0
   58.0470   32.0910   52.6090 C   0  0  0  0  0  0  0  0  0  0  0  0
   58.4910   33.3770   51.9050 C   0  0  0  0  0  0  0  0  0  0  0  0
   59.7660   33.2180   51.1750 N   0  0  0  0  0  0  0  0  0  0  0  0
   59.7960   33.7840   49.8110 C   0  0  0  0  0  0  0  0  0  0  0  0
   58.8350   33.0970   48.8300 C   0  0  0  0  0  0  0  0  0  0  0  0
   58.8600   31.6840   49.0250 O   0  0  0  0  0  0  0  0  0  0  0  0
   58.8770   30.7440   47.9880 C   0  0  0  0  0  0  0  0  0  0  0  0
   58.9090   29.3540   48.2260 C   0  0  0  0  0  0  0  0  0  0  0  0
   58.9000   28.4540   47.1540 C   0  0  0  0  0  0  0  0  0  0  0  0
   58.8680   28.9320   45.8400 C   0  0  0  0  0  0  0  0  0  0  0  0
   58.8580   28.0610   44.8030 F   0  0  0  0  0  0  0  0  0  0  0  0
   58.8650   30.3130   45.5970 C   0  0  0  0  0  0  0  0  0  0  0  0
   58.8690   31.2110   46.6670 C   0  0  0  0  0  0  0  0  0  0  0  0
   60.5140   31.9600   51.3850 C   0  0  0  0  0  0  0  0  0  0  0  0
   59.6340   30.6850   51.3830 C   0  0  0  0  0  0  0  0  0  0  0  0
   55.4950   28.8010   53.3540 N   0  0  0  0  0  0  0  0  0  0  0  0
   56.1080   27.5690   53.8690 C   0  0  0  0  0  0  0  0  0  0  0  0
  1  2  2  0
  2  3  1  0
  3  4  2  3
  4  5  1  0
  5  6  1  0
  6  7  1  0
  7  8  2  0
  7  9  1  0
  9 10  1  0
 10 11  1  0
  3 12  1  0
 12 13  2  0
 13 14  1  0
 14 15  2  0
 14 16  1  0
 16 17  1  0
 17 18  1  0
 18 19  1  0
 19 20  1  0
 20 21  1  0
 21 22  1  0
 22 23  1  0
 23 24  2  0
 24 25  1  0
 25 26  2  0
 26 27  1  0
 26 28  1  0
 28 29  2  0
 19 30  1  0
 30 31  1  0
 13 32  1  0
 32 33  1  0
 32  2  1  0
 10  5  2  0
 31 16  1  0
 29 23  1  0
M  CHG  4   6  -1   9  -1  11  -1  16   1
M  END
>  <UniqueID>  (2528) 
80

>  <SMILES>  (2528) 
C=c1c(=Cc2[n-]c(=O)[n-]c2[O-])cc(C(=O)[NH+]2CCN(CCOc3ccc(F)cc3)CC2)n1C

>  <Energy>  (2528) 
146.07197798985774

>  <Genealogy>  (2528) 
C=c1c(=Cc2[n-]c(=O)[n-]c2[O-])cc(C(=O)[NH+]2CCN(CCOc3ccc(F)cc3)CC2)n1C (protonated)
C=c1c(=Cc2[n-]c(=O)[n-]c2[O-])cc(C(=O)[NH+]2CCN(CCOc3ccc(F)cc3)CC2)n1C (3D coordinates assigned)
C=c1c(=Cc2[n-]c(=O)[n-]c2[O-])cc(C(=O)[NH+]2CCN(CCOc3ccc(F)cc3)CC2)n1C (nonaromatic ring conformer: 146.07197798985774 kcal/mol)

>  <smiles>  (2528) 
C=c1c(=Cc2[nH]c(=O)[nH]c2O)cc(C(=O)N2CCN(CCOc3ccc(F)cc3)CC2)n1C

>  <score_type>  (2528) 
oracle

>  <origin>  (2528) 
adg

>  <m_score__min__energy>  (2528) 
-16.670000000000002

>  <m_primary>  (2528) 
energy

$$$$
15:0
     RDKit          3D

 29 32  0  0  0  0  0  0  0  0999 V2000
   56.4710   29.5180   43.4860 C   0  0  0  0  0  0  0  0  0  0  0  0
   57.2460   29.6000   44.5750 C   0  0  0  0  0  0  0  0  0  0  0  0
   57.5320   30.8520   45.0280 N   0  0  0  0  0  0  0  0  0  0  0  0
   58.1310   31.0880   46.2200 C   0  0  0  0  0  0  0  0  0  0  0  0
   58.4370   30.0260   47.0720 C   0  0  0  0  0  0  0  0  0  0  0  0
   59.0220   30.2700   48.4090 C   0  0  0  0  0  0  0  0  0  0  0  0
   58.4930   29.7270   49.4180 O   0  0  0  0  0  0  0  0  0  0  0  0
   60.1830   31.1050   48.5810 N   0  0  0  0  0  0  0  0  0  0  0  0
   60.3550   31.8430   49.8400 C   0  0  0  0  0  0  0  0  0  0  0  0
   61.1440   33.1350   49.5930 C   0  0  0  0  0  0  0  0  0  0  0  0
   62.4780   32.9000   48.8270 C   0  0  0  0  0  0  0  0  0  0  0  0
   63.6860   33.2500   49.6780 C   0  0  0  0  0  0  0  0  0  0  0  0
   63.5460   34.1030   50.7900 C   0  0  0  0  0  0  0  0  0  0  0  0
   64.6580   34.4390   51.5680 C   0  0  0  0  0  0  0  0  0  0  0  0
   65.9190   33.9340   51.2440 C   0  0  0  0  0  0  0  0  0  0  0  0
   66.0720   33.0930   50.1400 C   0  0  0  0  0  0  0  0  0  0  0  0
   64.9640   32.7530   49.3580 C   0  0  0  0  0  0  0  0  0  0  0  0
   62.6160   31.4690   48.2630 C   0  0  0  0  0  0  0  0  0  0  0  0
   61.3040   30.9950   47.6330 C   0  0  0  0  0  0  0  0  0  0  0  0
   58.1640   28.7210   46.6430 C   0  0  0  0  0  0  0  0  0  0  0  0
   57.6510   28.4690   45.3540 C   0  0  0  0  0  0  0  0  0  0  0  0
   57.6090   27.1740   44.9490 C   0  0  0  0  0  0  0  0  0  0  0  0
   57.1290   26.0300   45.7490 C   0  0  0  0  0  0  0  0  0  0  0  0
   57.9100   25.0500   46.2380 N   0  0  0  0  0  0  0  0  0  0  0  0
   57.0590   24.3150   46.9860 C   0  0  0  0  0  0  0  0  0  0  0  0
   57.4200   23.2830   47.6090 O   0  0  0  0  0  0  0  0  0  0  0  0
   55.7920   24.7810   47.0230 N   0  0  0  0  0  0  0  0  0  0  0  0
   55.8580   25.8730   46.2450 C   0  0  0  0  0  0  0  0  0  0  0  0
   54.7780   26.7110   45.9950 O   0  0  0  0  0  0  0  0  0  0  0  0
  1  2  2  0
  2  3  1  0
  3  4  2  0
  4  5  1  0
  5  6  1  0
  6  7  2  0
  6  8  1  0
  8  9  1  0
  9 10  1  0
 10 11  1  0
 11 12  1  0
 12 13  2  0
 13 14  1  0
 14 15  2  0
 15 16  1  0
 16 17  2  0
 11 18  1  0
 18 19  1  0
  5 20  2  0
 20 21  1  0
 21 22  2  3
 22 23  1  0
 23 24  1  0
 24 25  1  0
 25 26  2  0
 25 27  1  0
 27 28  1  0
 28 29  1  0
 21  2  1  0
 28 23  2  0
 19  8  1  0
 17 12  1  0
M  CHG  3  24  -1  27  -1  29  -1
M  END
>  <UniqueID>  (2529) 
14

>  <SMILES>  (2529) 
C=c1ncc(C(=O)N2CCC(c3ccccc3)CC2)cc1=Cc1[n-]c(=O)[n-]c1[O-]

>  <Energy>  (2529) 
108.3731249651602

>  <Genealogy>  (2529) 
C=c1ncc(C(=O)N2CCC(c3ccccc3)CC2)cc1=Cc1[n-]c(=O)[n-]c1[O-] (protonated)
C=c1ncc(C(=O)N2CCC(c3ccccc3)CC2)cc1=Cc1[n-]c(=O)[n-]c1[O-] (3D coordinates assigned)
C=c1ncc(C(=O)N2CCC(c3ccccc3)CC2)cc1=Cc1[n-]c(=O)[n-]c1[O-] (nonaromatic ring conformer: 108.3731249651602 kcal/mol)

>  <smiles>  (2529) 
C=c1ncc(C(=O)N2CCC(c3ccccc3)CC2)cc1=Cc1[nH]c(=O)[nH]c1O

>  <score_type>  (2529) 
oracle

>  <origin>  (2529) 
adg

>  <m_score__min__energy>  (2529) 
-18

>  <m_primary>  (2529) 
energy

$$$$
16:0
     RDKit          3D

 28 30  0  0  0  0  0  0  0  0999 V2000
   53.8280   29.8020   54.9120 C   0  0  0  0  0  0  0  0  0  0  0  0
   54.2970   30.3210   53.7640 C   0  0  0  0  0  0  0  0  0  0  0  0
   53.5940   30.4930   52.5610 C   0  0  0  0  0  0  0  0  0  0  0  0
   52.2860   30.3490   52.2700 C   0  0  0  0  0  0  0  0  0  0  0  0
   51.6390   30.7790   51.0230 C   0  0  0  0  0  0  0  0  0  0  0  0
   51.6120   30.0390   49.9030 N   0  0  0  0  0  0  0  0  0  0  0  0
   51.0300   30.8590   49.0020 C   0  0  0  0  0  0  0  0  0  0  0  0
   50.8150   30.5110   47.8090 O   0  0  0  0  0  0  0  0  0  0  0  0
   50.7100   32.0820   49.4730 N   0  0  0  0  0  0  0  0  0  0  0  0
   51.1110   32.0190   50.7520 C   0  0  0  0  0  0  0  0  0  0  0  0
   51.0240   33.0790   51.6430 O   0  0  0  0  0  0  0  0  0  0  0  0
   54.5370   30.8380   51.6080 C   0  0  0  0  0  0  0  0  0  0  0  0
   55.7500   30.9330   52.2570 C   0  0  0  0  0  0  0  0  0  0  0  0
   57.0410   31.2050   51.5940 C   0  0  0  0  0  0  0  0  0  0  0  0
   57.0810   32.1170   50.7200 O   0  0  0  0  0  0  0  0  0  0  0  0
   58.2250   30.4170   51.9080 N   0  0  0  0  0  0  0  0  0  0  0  0
   59.2760   31.1960   52.5810 C   0  0  0  0  0  0  0  0  0  0  0  0
   59.7440   32.3680   51.7240 C   0  0  0  0  0  0  0  0  0  0  0  0
   59.9090   32.0040   50.3060 N   0  0  0  0  0  0  0  0  0  0  0  0
   60.3870   33.0170   49.3990 C   0  0  0  0  0  0  0  0  0  0  0  0
   60.5180   34.2120   49.7950 O   0  0  0  0  0  0  0  0  0  0  0  0
   60.7120   32.6780   48.0820 O   0  0  0  0  0  0  0  0  0  0  0  0
   60.6800   33.6210   47.0150 C   0  0  0  0  0  0  0  0  0  0  0  0
   59.2910   34.2320   46.9150 C   0  0  0  0  0  0  0  0  0  0  0  0
   59.5140   30.6970   49.7390 C   0  0  0  0  0  0  0  0  0  0  0  0
   58.8030   29.7400   50.7270 C   0  0  0  0  0  0  0  0  0  0  0  0
   55.6070   30.6210   53.5670 N   0  0  0  0  0  0  0  0  0  0  0  0
   56.6930   30.4820   54.5450 C   0  0  0  0  0  0  0  0  0  0  0  0
  1  2  2  0
  2  3  1  0
  3  4  2  3
  4  5  1  0
  5  6  1  0
  6  7  1  0
  7  8  2  0
  7  9  1  0
  9 10  1  0
 10 11  1  0
  3 12  1  0
 12 13  2  0
 13 14  1  0
 14 15  2  0
 14 16  1  0
 16 17  1  0
 17 18  1  0
 18 19  1  0
 19 20  1  0
 20 21  2  0
 20 22  1  0
 22 23  1  0
 23 24  1  0
 19 25  1  0
 25 26  1  0
 13 27  1  0
 27 28  1  0
 27  2  1  0
 10  5  2  0
 26 16  1  0
M  CHG  4   6  -1   9  -1  11  -1  16   1
M  END
>  <UniqueID>  (2530) 
15

>  <SMILES>  (2530) 
C=c1c(=Cc2[n-]c(=O)[n-]c2[O-])cc(C(=O)[NH+]2CCN(C(=O)OCC)CC2)n1C

>  <Energy>  (2530) 
131.4137989402005

>  <Genealogy>  (2530) 
C=c1c(=Cc2[n-]c(=O)[n-]c2[O-])cc(C(=O)[NH+]2CCN(C(=O)OCC)CC2)n1C (protonated)
C=c1c(=Cc2[n-]c(=O)[n-]c2[O-])cc(C(=O)[NH+]2CCN(C(=O)OCC)CC2)n1C (3D coordinates assigned)
C=c1c(=Cc2[n-]c(=O)[n-]c2[O-])cc(C(=O)[NH+]2CCN(C(=O)OCC)CC2)n1C (nonaromatic ring conformer: 131.4137989402005 kcal/mol)

>  <smiles>  (2530) 
C=c1c(=Cc2[nH]c(=O)[nH]c2O)cc(C(=O)N2CCN(C(=O)OCC)CC2)n1C

>  <score_type>  (2530) 
oracle

>  <origin>  (2530) 
adg

>  <m_score__min__energy>  (2530) 
-15.6

>  <m_primary>  (2530) 
energy

$$$$
21:0
     RDKit          3D

 34 38  0  0  0  0  0  0  0  0999 V2000
   58.2630   30.4050   45.1930 C   0  0  0  0  0  0  0  0  0  0  0  0
   58.6860   29.7240   46.2710 C   0  0  0  0  0  0  0  0  0  0  0  0
   58.4490   28.3700   46.5500 C   0  0  0  0  0  0  0  0  0  0  0  0
   57.7260   27.5070   45.8040 C   0  0  0  0  0  0  0  0  0  0  0  0
   57.1920   26.2020   46.2570 C   0  0  0  0  0  0  0  0  0  0  0  0
   57.9160   25.1470   46.6700 N   0  0  0  0  0  0  0  0  0  0  0  0
   56.9830   24.2210   46.9790 C   0  0  0  0  0  0  0  0  0  0  0  0
   57.2800   23.0760   47.4100 O   0  0  0  0  0  0  0  0  0  0  0  0
   55.7070   24.6200   46.7910 N   0  0  0  0  0  0  0  0  0  0  0  0
   55.8570   25.8740   46.3360 C   0  0  0  0  0  0  0  0  0  0  0  0
   54.7950   26.7020   45.9990 O   0  0  0  0  0  0  0  0  0  0  0  0
   59.1190   28.1030   47.7400 C   0  0  0  0  0  0  0  0  0  0  0  0
   59.7140   29.2840   48.1380 C   0  0  0  0  0  0  0  0  0  0  0  0
   60.5730   29.4310   49.3570 C   0  0  0  0  0  0  0  0  0  0  0  0
   59.4570   30.2660   47.2480 N   0  0  0  0  0  0  0  0  0  0  0  0
   59.9260   31.6230   47.3360 C   0  0  0  0  0  0  0  0  0  0  0  0
   61.2680   31.8820   47.6480 C   0  0  0  0  0  0  0  0  0  0  0  0
   61.7340   33.2030   47.7470 C   0  0  0  0  0  0  0  0  0  0  0  0
   63.1530   33.4790   48.0640 C   0  0  0  0  0  0  0  0  0  0  0  0
   63.8670   34.0700   47.2090 O   0  0  0  0  0  0  0  0  0  0  0  0
   63.7250   33.1080   49.3330 N   0  0  0  0  0  0  0  0  0  0  0  0
   65.1380   32.7160   49.4250 C   0  0  0  0  0  0  0  0  0  0  0  0
   65.8940   33.5990   50.4430 C   0  0  0  0  0  0  0  0  0  0  0  0
   64.9910   34.2640   51.4080 N   0  0  0  0  0  0  0  0  0  0  0  0
   65.7730   34.8740   52.5170 C   0  0  0  0  0  0  0  0  0  0  0  0
   67.1920   35.2320   52.1380 C   0  0  0  0  0  0  0  0  0  0  0  0
   66.9690   36.6090   52.3370 O   0  0  0  0  0  0  0  0  0  0  0  0
   65.6360   36.3700   52.7300 C   0  0  0  0  0  0  0  0  0  0  0  0
   63.8610   33.3850   51.7820 C   0  0  0  0  0  0  0  0  0  0  0  0
   62.9390   33.2460   50.5690 C   0  0  0  0  0  0  0  0  0  0  0  0
   60.8480   34.2640   47.5050 C   0  0  0  0  0  0  0  0  0  0  0  0
   59.5080   34.0090   47.2020 C   0  0  0  0  0  0  0  0  0  0  0  0
   59.0440   32.6940   47.1240 C   0  0  0  0  0  0  0  0  0  0  0  0
   57.7350   32.4610   46.8480 F   0  0  0  0  0  0  0  0  0  0  0  0
  1  2  2  0
  2  3  1  0
  3  4  2  0
  4  5  1  0
  5  6  1  0
  6  7  1  0
  7  8  2  0
  7  9  1  0
  9 10  1  0
 10 11  1  0
  3 12  1  0
 12 13  2  0
 13 14  1  0
 13 15  1  0
 15 16  1  0
 16 17  2  0
 17 18  1  0
 18 19  1  0
 19 20  2  0
 19 21  1  0
 21 22  1  0
 22 23  1  0
 23 24  1  0
 24 25  1  0
 25 26  1  0
 26 27  1  0
 27 28  1  0
 24 29  1  0
 29 30  1  0
 18 31  2  0
 31 32  1  0
 32 33  2  0
 33 34  1  0
 15  2  1  0
 33 16  1  0
 10  5  2  0
 30 21  1  0
 28 25  1  0
M  CHG  3   6  -1   9  -1  11  -1
M  END
>  <UniqueID>  (2531) 
20

>  <SMILES>  (2531) 
C=c1/c(=C/c2[n-]c(=O)[n-]c2[O-])cc(C)n1-c1cc(C(=O)N2CCN(C3COC3)CC2)ccc1F

>  <Energy>  (2531) 
211.2189338036026

>  <Genealogy>  (2531) 
C=c1c(=Cc2[n-]c(=O)[n-]c2[O-])cc(C)n1-c1cc(C(=O)N2CCN(C3COC3)CC2)ccc1F (protonated)
C=c1/c(=C/c2[n-]c(=O)[n-]c2[O-])cc(C)n1-c1cc(C(=O)N2CCN(C3COC3)CC2)ccc1F (cis-trans isomerization)
C=c1/c(=C/c2[n-]c(=O)[n-]c2[O-])cc(C)n1-c1cc(C(=O)N2CCN(C3COC3)CC2)ccc1F (3D coordinates assigned)
C=c1/c(=C/c2[n-]c(=O)[n-]c2[O-])cc(C)n1-c1cc(C(=O)N2CCN(C3COC3)CC2)ccc1F (nonaromatic ring conformer: 211.2189338036026 kcal/mol)

>  <smiles>  (2531) 
C=c1c(=Cc2[nH]c(=O)[nH]c2O)cc(C)n1-c1cc(C(=O)N2CCN(C3COC3)CC2)ccc1F

>  <score_type>  (2531) 
oracle

>  <origin>  (2531) 
adg

>  <m_score__min__energy>  (2531) 
-17.690000000000001

>  <m_primary>  (2531) 
energy

$$$$
22:0
     RDKit          3D

 25 27  0  0  0  0  0  0  0  0999 V2000
   58.1160   32.5860   41.9950 C   0  0  0  0  0  0  0  0  0  0  0  0
   58.2430   32.7070   43.3270 C   0  0  0  0  0  0  0  0  0  0  0  0
   58.7350   33.8870   43.7760 N   0  0  0  0  0  0  0  0  0  0  0  0
   58.9630   34.1410   45.0810 C   0  0  0  0  0  0  0  0  0  0  0  0
   59.4260   35.2670   45.4070 O   0  0  0  0  0  0  0  0  0  0  0  0
   58.6870   33.1920   46.0260 N   0  0  0  0  0  0  0  0  0  0  0  0
   58.8950   33.4910   47.4600 C   0  0  0  0  0  0  0  0  0  0  0  0
   59.8310   32.4660   48.1200 C   0  0  0  0  0  0  0  0  0  0  0  0
   61.2800   32.8220   47.9200 C   0  0  0  0  0  0  0  0  0  0  0  0
   61.6860   33.5280   46.7740 C   0  0  0  0  0  0  0  0  0  0  0  0
   63.0390   33.8170   46.5670 C   0  0  0  0  0  0  0  0  0  0  0  0
   63.9930   33.4010   47.4990 C   0  0  0  0  0  0  0  0  0  0  0  0
   63.5980   32.6930   48.6380 C   0  0  0  0  0  0  0  0  0  0  0  0
   62.2480   32.4000   48.8470 C   0  0  0  0  0  0  0  0  0  0  0  0
   58.1610   31.9830   45.6470 C   0  0  0  0  0  0  0  0  0  0  0  0
   57.8290   31.1570   46.5440 O   0  0  0  0  0  0  0  0  0  0  0  0
   57.9400   31.6750   44.2700 C   0  0  0  0  0  0  0  0  0  0  0  0
   57.4180   30.4760   43.8720 C   0  0  0  0  0  0  0  0  0  0  0  0
   57.4590   29.2120   44.6350 C   0  0  0  0  0  0  0  0  0  0  0  0
   58.6850   28.5960   44.9400 C   0  0  0  0  0  0  0  0  0  0  0  0
   58.7080   27.3720   45.6160 C   0  0  0  0  0  0  0  0  0  0  0  0
   57.5110   26.7460   45.9720 C   0  0  0  0  0  0  0  0  0  0  0  0
   56.2860   27.3380   45.6440 C   0  0  0  0  0  0  0  0  0  0  0  0
   55.0970   26.7080   45.9880 O   0  0  0  0  0  0  0  0  0  0  0  0
   56.2600   28.5620   44.9680 C   0  0  0  0  0  0  0  0  0  0  0  0
  1  2  2  0
  2  3  1  0
  3  4  1  0
  4  5  2  0
  4  6  1  0
  6  7  1  0
  7  8  1  0
  8  9  1  0
  9 10  2  0
 10 11  1  0
 11 12  2  0
 12 13  1  0
 13 14  2  0
  6 15  1  0
 15 16  2  0
 15 17  1  0
 17 18  2  3
 18 19  1  0
 19 20  2  0
 20 21  1  0
 21 22  2  0
 22 23  1  0
 23 24  1  0
 23 25  2  0
 17  2  1  0
 25 19  1  0
 14  9  1  0
M  CHG  2   3  -1  24  -1
M  END
>  <UniqueID>  (2532) 
21

>  <SMILES>  (2532) 
C=c1[n-]c(=O)n(CCc2ccccc2)c(=O)c1=Cc1cccc([O-])c1

>  <Energy>  (2532) 
65.4312337003256

>  <Genealogy>  (2532) 
C=c1[n-]c(=O)n(CCc2ccccc2)c(=O)c1=Cc1cccc([O-])c1 (protonated)
C=c1[n-]c(=O)n(CCc2ccccc2)c(=O)c1=Cc1cccc([O-])c1 (3D coordinates assigned)
C=c1[n-]c(=O)n(CCc2ccccc2)c(=O)c1=Cc1cccc([O-])c1 (optimized conformer: 65.4312337003256 kcal/mol)

>  <smiles>  (2532) 
C=c1[nH]c(=O)n(CCc2ccccc2)c(=O)c1=Cc1cccc(O)c1

>  <score_type>  (2532) 
oracle

>  <origin>  (2532) 
adg

>  <m_score__min__energy>  (2532) 
-14.01

>  <m_primary>  (2532) 
energy

$$$$
31:0
     RDKit          3D

 32 35  0  0  0  0  0  0  0  0999 V2000
   55.9660   31.9660   52.3410 C   0  0  0  0  0  0  0  0  0  0  0  0
   55.4330   30.8050   52.7560 C   0  0  0  0  0  0  0  0  0  0  0  0
   54.0690   30.4680   52.7450 C   0  0  0  0  0  0  0  0  0  0  0  0
   52.9700   31.2230   52.5420 C   0  0  0  0  0  0  0  0  0  0  0  0
   52.1410   31.2250   51.3260 C   0  0  0  0  0  0  0  0  0  0  0  0
   52.2150   30.3060   50.3450 N   0  0  0  0  0  0  0  0  0  0  0  0
   51.3860   30.7950   49.3970 C   0  0  0  0  0  0  0  0  0  0  0  0
   51.1750   30.1980   48.3090 O   0  0  0  0  0  0  0  0  0  0  0  0
   50.8150   31.9800   49.7000 N   0  0  0  0  0  0  0  0  0  0  0  0
   51.3150   32.2440   50.9170 C   0  0  0  0  0  0  0  0  0  0  0  0
   51.0270   33.3950   51.6380 O   0  0  0  0  0  0  0  0  0  0  0  0
   53.9990   29.1180   53.0260 C   0  0  0  0  0  0  0  0  0  0  0  0
   55.2850   28.6940   53.2820 C   0  0  0  0  0  0  0  0  0  0  0  0
   55.6470   27.2830   53.6330 C   0  0  0  0  0  0  0  0  0  0  0  0
   56.1660   29.7110   53.1140 N   0  0  0  0  0  0  0  0  0  0  0  0
   57.6280   29.6000   53.2800 C   0  0  0  0  0  0  0  0  0  0  0  0
   58.3470   30.7190   52.5650 C   0  0  0  0  0  0  0  0  0  0  0  0
   58.4970   30.6780   51.1680 C   0  0  0  0  0  0  0  0  0  0  0  0
   59.1570   31.7110   50.4770 C   0  0  0  0  0  0  0  0  0  0  0  0
   59.2750   31.6450   48.9930 C   0  0  0  0  0  0  0  0  0  0  0  0
   58.4030   32.2360   48.2980 O   0  0  0  0  0  0  0  0  0  0  0  0
   60.3740   30.9490   48.3420 N   0  0  0  0  0  0  0  0  0  0  0  0
   61.6210   31.0180   49.1380 C   0  0  0  0  0  0  0  0  0  0  0  0
   62.2650   32.4110   49.1230 C   0  0  0  0  0  0  0  0  0  0  0  0
   62.4040   32.8940   47.7140 C   0  0  0  0  0  0  0  0  0  0  0  0
   63.4090   33.4950   47.3670 O   0  0  0  0  0  0  0  0  0  0  0  0
   61.2520   32.7440   46.7690 C   0  0  0  0  0  0  0  0  0  0  0  0
   60.5760   31.3690   46.9320 C   0  0  0  0  0  0  0  0  0  0  0  0
   59.6700   32.7960   51.2130 C   0  0  0  0  0  0  0  0  0  0  0  0
   59.5340   32.8360   52.6020 C   0  0  0  0  0  0  0  0  0  0  0  0
   58.8810   31.8050   53.2790 C   0  0  0  0  0  0  0  0  0  0  0  0
   58.7730   31.8720   54.6290 F   0  0  0  0  0  0  0  0  0  0  0  0
  1  2  2  0
  2  3  1  0
  3  4  2  0
  4  5  1  0
  5  6  1  0
  6  7  1  0
  7  8  2  0
  7  9  1  0
  9 10  1  0
 10 11  1  0
  3 12  1  0
 12 13  2  0
 13 14  1  0
 13 15  1  0
 15 16  1  0
 16 17  1  0
 17 18  2  0
 18 19  1  0
 19 20  1  0
 20 21  2  0
 20 22  1  0
 22 23  1  0
 23 24  1  0
 24 25  1  0
 25 26  2  0
 25 27  1  0
 27 28  1  0
 19 29  2  0
 29 30  1  0
 30 31  2  0
 31 32  1  0
 15  2  1  0
 31 17  1  0
 10  5  2  0
 28 22  1  0
M  CHG  4   6  -1   9  -1  11  -1  22   1
M  END
>  <UniqueID>  (2533) 
30

>  <SMILES>  (2533) 
C=c1/c(=C\c2[n-]c(=O)[n-]c2[O-])cc(C)n1Cc1cc(C(=O)[NH+]2CCC(=O)CC2)ccc1F

>  <Energy>  (2533) 
134.1324011221524

>  <Genealogy>  (2533) 
C=c1c(=Cc2[n-]c(=O)[n-]c2[O-])cc(C)n1Cc1cc(C(=O)[NH+]2CCC(=O)CC2)ccc1F (protonated)
C=c1/c(=C\c2[n-]c(=O)[n-]c2[O-])cc(C)n1Cc1cc(C(=O)[NH+]2CCC(=O)CC2)ccc1F (cis-trans isomerization)
C=c1/c(=C\c2[n-]c(=O)[n-]c2[O-])cc(C)n1Cc1cc(C(=O)[NH+]2CCC(=O)CC2)ccc1F (3D coordinates assigned)
C=c1/c(=C\c2[n-]c(=O)[n-]c2[O-])cc(C)n1Cc1cc(C(=O)[NH+]2CCC(=O)CC2)ccc1F (nonaromatic ring conformer: 134.1324011221524 kcal/mol)

>  <smiles>  (2533) 
C=c1c(=Cc2[nH]c(=O)[nH]c2O)cc(C)n1Cc1cc(C(=O)N2CCC(=O)CC2)ccc1F

>  <score_type>  (2533) 
oracle

>  <origin>  (2533) 
adg

>  <m_score__min__energy>  (2533) 
-15.890000000000001

>  <m_primary>  (2533) 
energy

$$$$
34:0
     RDKit          3D

 29 31  0  0  0  0  0  0  0  0999 V2000
   56.6120   30.5850   42.8290 O   0  0  0  0  0  0  0  0  0  0  0  0
   56.8790   30.2930   44.0260 C   0  0  0  0  0  0  0  0  0  0  0  0
   57.3320   28.9100   44.3610 C   0  0  0  0  0  0  0  0  0  0  0  0
   56.3600   28.2940   45.2540 N   0  0  0  0  0  0  0  0  0  0  0  0
   56.5580   27.1070   46.0340 C   0  0  0  0  0  0  0  0  0  0  0  0
   57.5160   27.0830   46.8510 O   0  0  0  0  0  0  0  0  0  0  0  0
   55.7270   25.8930   45.8930 C   0  0  0  0  0  0  0  0  0  0  0  0
   56.1690   24.5790   45.8930 C   0  0  0  0  0  0  0  0  0  0  0  0
   55.0600   23.7970   45.6640 C   0  0  0  0  0  0  0  0  0  0  0  0
   54.0070   24.6740   45.5230 C   0  0  0  0  0  0  0  0  0  0  0  0
   52.6910   24.3070   45.2670 O   0  0  0  0  0  0  0  0  0  0  0  0
   54.4010   25.9530   45.6520 N   0  0  0  0  0  0  0  0  0  0  0  0
   56.6510   31.2350   45.0810 N   0  0  0  0  0  0  0  0  0  0  0  0
   57.4750   32.3650   45.4060 C   0  0  0  0  0  0  0  0  0  0  0  0
   57.7130   33.4020   44.4860 C   0  0  0  0  0  0  0  0  0  0  0  0
   58.5350   34.4740   44.8370 C   0  0  0  0  0  0  0  0  0  0  0  0
   59.1300   34.5250   46.0990 C   0  0  0  0  0  0  0  0  0  0  0  0
   59.9290   35.5780   46.4050 F   0  0  0  0  0  0  0  0  0  0  0  0
   58.9100   33.4880   47.0230 C   0  0  0  0  0  0  0  0  0  0  0  0
   59.6370   33.5300   48.6370 S   0  0  0  0  0  0  0  0  0  0  0  0
   59.6510   34.9500   49.1310 O   0  0  0  0  0  0  0  0  0  0  0  0
   58.8020   32.7200   49.5900 O   0  0  0  0  0  0  0  0  0  0  0  0
   61.2720   32.9020   48.6330 N   0  0  0  0  0  0  0  0  0  0  0  0
   61.7240   32.5580   47.2680 C   0  0  0  0  0  0  0  0  0  0  0  0
   62.7090   33.5990   46.7070 C   0  0  0  0  0  0  0  0  0  0  0  0
   63.8720   33.7610   47.5080 O   0  0  0  0  0  0  0  0  0  0  0  0
   63.6390   33.5790   48.9000 C   0  0  0  0  0  0  0  0  0  0  0  0
   62.1850   33.8280   49.3290 C   0  0  0  0  0  0  0  0  0  0  0  0
   58.0980   32.4040   46.6580 C   0  0  0  0  0  0  0  0  0  0  0  0
  1  2  2  0
  2  3  1  0
  3  4  1  0
  4  5  1  0
  5  6  2  0
  5  7  1  0
  7  8  2  0
  8  9  1  0
  9 10  2  0
 10 11  1  0
 10 12  1  0
  2 13  1  0
 13 14  1  0
 14 15  2  0
 15 16  1  0
 16 17  2  0
 17 18  1  0
 17 19  1  0
 19 20  1  0
 20 21  2  0
 20 22  2  0
 20 23  1  0
 23 24  1  0
 24 25  1  0
 25 26  1  0
 26 27  1  0
 27 28  1  0
 19 29  2  0
 12  7  1  0
 29 14  1  0
 28 23  1  0
M  CHG  3   4  -1  12  -1  13  -1
M  END
>  <UniqueID>  (2534) 
33

>  <SMILES>  (2534) 
O=C(C[N-]C(=O)c1ccc(O)[n-]1)[N-]c1ccc(F)c(S(=O)(=O)N2CCOCC2)c1

>  <Energy>  (2534) 
87.58507568925721

>  <Genealogy>  (2534) 
O=C(C[N-]C(=O)c1ccc(O)[n-]1)[N-]c1ccc(F)c(S(=O)(=O)N2CCOCC2)c1 (protonated)
O=C(C[N-]C(=O)c1ccc(O)[n-]1)[N-]c1ccc(F)c(S(=O)(=O)N2CCOCC2)c1 (3D coordinates assigned)
O=C(C[N-]C(=O)c1ccc(O)[n-]1)[N-]c1ccc(F)c(S(=O)(=O)N2CCOCC2)c1 (nonaromatic ring conformer: 87.58507568925721 kcal/mol)

>  <smiles>  (2534) 
O=C(CNC(=O)c1ccc(O)[nH]1)Nc1ccc(F)c(S(=O)(=O)N2CCOCC2)c1

>  <score_type>  (2534) 
oracle

>  <origin>  (2534) 
adg

>  <m_score__min__energy>  (2534) 
-14.68

>  <m_primary>  (2534) 
energy

$$$$
35:0
     RDKit          3D

 30 33  0  0  0  0  0  0  0  0999 V2000
   56.3610   30.1290   42.6280 C   0  0  0  0  0  0  0  0  0  0  0  0
   56.9700   29.5000   43.6340 C   0  0  0  0  0  0  0  0  0  0  0  0
   57.4270   30.0670   44.8210 C   0  0  0  0  0  0  0  0  0  0  0  0
   57.3760   31.4770   45.2710 C   0  0  0  0  0  0  0  0  0  0  0  0
   56.3950   32.1740   44.8920 O   0  0  0  0  0  0  0  0  0  0  0  0
   58.3420   32.0640   46.1850 N   0  0  0  0  0  0  0  0  0  0  0  0
   58.2530   33.5520   46.1580 C   0  0  0  0  0  0  0  0  0  0  0  0
   59.6040   34.2570   46.3690 C   0  0  0  0  0  0  0  0  0  0  0  0
   60.4260   33.5100   47.3250 N   0  0  0  0  0  0  0  0  0  0  0  0
   60.8650   34.1280   48.5500 C   0  0  0  0  0  0  0  0  0  0  0  0
   60.1070   34.9480   49.1360 O   0  0  0  0  0  0  0  0  0  0  0  0
   62.1810   33.8130   49.1450 C   0  0  0  0  0  0  0  0  0  0  0  0
   62.3750   33.8810   50.5350 C   0  0  0  0  0  0  0  0  0  0  0  0
   63.6180   33.5670   51.0920 C   0  0  0  0  0  0  0  0  0  0  0  0
   64.6750   33.1730   50.2680 C   0  0  0  0  0  0  0  0  0  0  0  0
   64.4880   33.0860   48.8860 C   0  0  0  0  0  0  0  0  0  0  0  0
   63.2460   33.3990   48.3250 C   0  0  0  0  0  0  0  0  0  0  0  0
   60.6390   32.0720   47.1090 C   0  0  0  0  0  0  0  0  0  0  0  0
   59.7180   31.5450   46.0010 C   0  0  0  0  0  0  0  0  0  0  0  0
   57.9290   29.0270   45.5810 C   0  0  0  0  0  0  0  0  0  0  0  0
   57.7720   27.8780   44.8250 C   0  0  0  0  0  0  0  0  0  0  0  0
   58.1770   26.6600   45.2130 C   0  0  0  0  0  0  0  0  0  0  0  0
   57.3530   25.7270   46.0010 C   0  0  0  0  0  0  0  0  0  0  0  0
   57.8590   24.6670   46.6540 N   0  0  0  0  0  0  0  0  0  0  0  0
   56.7890   24.1540   47.2970 C   0  0  0  0  0  0  0  0  0  0  0  0
   56.8590   23.1250   48.0180 O   0  0  0  0  0  0  0  0  0  0  0  0
   55.6380   24.8360   47.1170 N   0  0  0  0  0  0  0  0  0  0  0  0
   56.0130   25.8360   46.3040 C   0  0  0  0  0  0  0  0  0  0  0  0
   55.1600   26.8520   45.8890 O   0  0  0  0  0  0  0  0  0  0  0  0
   57.1970   28.1710   43.6380 N   0  0  0  0  0  0  0  0  0  0  0  0
  1  2  2  0
  2  3  1  0
  3  4  1  0
  4  5  2  0
  4  6  1  0
  6  7  1  0
  7  8  1  0
  8  9  1  0
  9 10  1  0
 10 11  2  0
 10 12  1  0
 12 13  2  0
 13 14  1  0
 14 15  2  0
 15 16  1  0
 16 17  2  0
  9 18  1  0
 18 19  1  0
  3 20  2  0
 20 21  1  0
 21 22  2  0
 22 23  1  0
 23 24  1  0
 24 25  1  0
 25 26  2  0
 25 27  1  0
 27 28  1  0
 28 29  1  0
 21 30  1  0
 30  2  1  0
 19  6  1  0
 28 23  2  0
 17 12  1  0
M  CHG  4   6   1  24  -1  27  -1  29  -1
M  END
>  <UniqueID>  (2535) 
34

>  <SMILES>  (2535) 
C=c1[nH]/c(=C\c2[n-]c(=O)[n-]c2[O-])cc1C(=O)[NH+]1CCN(C(=O)c2ccccc2)CC1

>  <Energy>  (2535) 
137.08183873120066

>  <Genealogy>  (2535) 
C=c1[nH]c(=Cc2[n-]c(=O)[n-]c2[O-])cc1C(=O)[NH+]1CCN(C(=O)c2ccccc2)CC1 (protonated)
C=c1[nH]/c(=C\c2[n-]c(=O)[n-]c2[O-])cc1C(=O)[NH+]1CCN(C(=O)c2ccccc2)CC1 (cis-trans isomerization)
C=c1[nH]/c(=C\c2[n-]c(=O)[n-]c2[O-])cc1C(=O)[NH+]1CCN(C(=O)c2ccccc2)CC1 (3D coordinates assigned)
C=c1[nH]/c(=C\c2[n-]c(=O)[n-]c2[O-])cc1C(=O)[NH+]1CCN(C(=O)c2ccccc2)CC1 (nonaromatic ring conformer: 137.08183873120066 kcal/mol)

>  <smiles>  (2535) 
C=c1[nH]c(=Cc2[nH]c(=O)[nH]c2O)cc1C(=O)N1CCN(C(=O)c2ccccc2)CC1

>  <score_type>  (2535) 
oracle

>  <origin>  (2535) 
adg

>  <m_score__min__energy>  (2535) 
-16.969999999999999

>  <m_primary>  (2535) 
energy

$$$$
41:0
     RDKit          3D

 35 39  0  0  0  0  0  0  0  0999 V2000
   58.7430   28.7110   47.7120 C   0  0  0  0  0  0  0  0  0  0  0  0
   58.2430   29.1520   46.5470 C   0  0  0  0  0  0  0  0  0  0  0  0
   57.9280   28.3840   45.4230 C   0  0  0  0  0  0  0  0  0  0  0  0
   58.0870   27.0550   45.2800 C   0  0  0  0  0  0  0  0  0  0  0  0
   57.4220   26.0390   46.1200 C   0  0  0  0  0  0  0  0  0  0  0  0
   58.1100   25.1250   46.8270 N   0  0  0  0  0  0  0  0  0  0  0  0
   57.1510   24.4540   47.5010 C   0  0  0  0  0  0  0  0  0  0  0  0
   57.4100   23.5010   48.2800 O   0  0  0  0  0  0  0  0  0  0  0  0
   55.8940   24.8950   47.2850 N   0  0  0  0  0  0  0  0  0  0  0  0
   56.0770   25.9080   46.4210 C   0  0  0  0  0  0  0  0  0  0  0  0
   55.0440   26.7160   45.9680 O   0  0  0  0  0  0  0  0  0  0  0  0
   57.4700   29.1950   44.4450 N   0  0  0  0  0  0  0  0  0  0  0  0
   57.5010   30.4250   44.9930 C   0  0  0  0  0  0  0  0  0  0  0  0
   57.1450   31.4580   44.3660 O   0  0  0  0  0  0  0  0  0  0  0  0
   57.9550   30.4450   46.2650 N   0  0  0  0  0  0  0  0  0  0  0  0
   58.1470   31.6480   47.0870 C   0  0  0  0  0  0  0  0  0  0  0  0
   59.4230   31.5400   47.8780 C   0  0  0  0  0  0  0  0  0  0  0  0
   60.6680   31.6700   47.2400 C   0  0  0  0  0  0  0  0  0  0  0  0
   61.8520   31.6040   47.9800 C   0  0  0  0  0  0  0  0  0  0  0  0
   61.8160   31.4050   49.3720 C   0  0  0  0  0  0  0  0  0  0  0  0
   63.0390   31.3290   50.1340 N   0  0  0  0  0  0  0  0  0  0  0  0
   63.0190   30.6390   51.4320 C   0  0  0  0  0  0  0  0  0  0  0  0
   64.3900   30.6520   52.1100 C   0  0  0  0  0  0  0  0  0  0  0  0
   65.4460   30.4450   51.1020 N   0  0  0  0  0  0  0  0  0  0  0  0
   66.7500   30.0670   51.7080 C   0  0  0  0  0  0  0  0  0  0  0  0
   67.2330   28.6770   51.3410 C   0  0  0  0  0  0  0  0  0  0  0  0
   67.0080   27.5920   52.2060 C   0  0  0  0  0  0  0  0  0  0  0  0
   67.4700   26.3170   51.8750 C   0  0  0  0  0  0  0  0  0  0  0  0
   68.1500   26.1090   50.6760 C   0  0  0  0  0  0  0  0  0  0  0  0
   68.3560   27.1730   49.7970 C   0  0  0  0  0  0  0  0  0  0  0  0
   67.8930   28.4510   50.1230 C   0  0  0  0  0  0  0  0  0  0  0  0
   65.5570   31.6290   50.2250 C   0  0  0  0  0  0  0  0  0  0  0  0
   64.1930   32.1390   49.7030 C   0  0  0  0  0  0  0  0  0  0  0  0
   60.5650   31.2840   50.0070 C   0  0  0  0  0  0  0  0  0  0  0  0
   59.3820   31.3550   49.2680 C   0  0  0  0  0  0  0  0  0  0  0  0
  1  2  2  0
  2  3  1  0
  3  4  2  0
  4  5  1  0
  5  6  1  0
  6  7  1  0
  7  8  2  0
  7  9  1  0
  9 10  1  0
 10 11  1  0
  3 12  1  0
 12 13  1  0
 13 14  2  0
 13 15  1  0
 15 16  1  0
 16 17  1  0
 17 18  2  0
 18 19  1  0
 19 20  2  0
 20 21  1  0
 21 22  1  0
 22 23  1  0
 23 24  1  0
 24 25  1  0
 25 26  1  0
 26 27  2  0
 27 28  1  0
 28 29  2  0
 29 30  1  0
 30 31  2  0
 24 32  1  0
 32 33  1  0
 20 34  1  0
 34 35  2  0
 15  2  1  0
 35 17  1  0
 10  5  2  0
 33 21  1  0
 31 26  1  0
M  CHG  5   6  -1   9  -1  11  -1  12  -1  24   1
M  END
>  <UniqueID>  (2536) 
40

>  <SMILES>  (2536) 
C=c1/c(=C/c2[n-]c(=O)[n-]c2[O-])[n-]c(=O)n1Cc1ccc(N2CC[NH+](Cc3ccccc3)CC2)cc1

>  <Energy>  (2536) 
146.61300749094897

>  <Genealogy>  (2536) 
C=c1c(=Cc2[n-]c(=O)[n-]c2[O-])[n-]c(=O)n1Cc1ccc(N2CC[NH+](Cc3ccccc3)CC2)cc1 (protonated)
C=c1/c(=C/c2[n-]c(=O)[n-]c2[O-])[n-]c(=O)n1Cc1ccc(N2CC[NH+](Cc3ccccc3)CC2)cc1 (cis-trans isomerization)
C=c1/c(=C/c2[n-]c(=O)[n-]c2[O-])[n-]c(=O)n1Cc1ccc(N2CC[NH+](Cc3ccccc3)CC2)cc1 (3D coordinates assigned)
C=c1/c(=C/c2[n-]c(=O)[n-]c2[O-])[n-]c(=O)n1Cc1ccc(N2CC[NH+](Cc3ccccc3)CC2)cc1 (nonaromatic ring conformer: 146.61300749094897 kcal/mol)

>  <smiles>  (2536) 
C=c1c(=Cc2[nH]c(=O)[nH]c2O)[nH]c(=O)n1Cc1ccc(N2CCN(Cc3ccccc3)CC2)cc1

>  <score_type>  (2536) 
oracle

>  <origin>  (2536) 
adg

>  <m_score__min__energy>  (2536) 
-17.100000000000001

>  <m_primary>  (2536) 
energy

$$$$
42:0
     RDKit          3D

 26 28  0  0  0  0  0  0  0  0999 V2000
   54.4420   28.5840   53.5990 C   0  0  0  0  0  0  0  0  0  0  0  0
   54.9970   29.5880   52.9020 C   0  0  0  0  0  0  0  0  0  0  0  0
   54.3500   30.7400   52.4200 C   0  0  0  0  0  0  0  0  0  0  0  0
   53.0430   31.0580   52.3410 C   0  0  0  0  0  0  0  0  0  0  0  0
   52.2710   31.2240   51.1000 C   0  0  0  0  0  0  0  0  0  0  0  0
   52.2370   30.3050   50.1190 N   0  0  0  0  0  0  0  0  0  0  0  0
   51.3180   30.7980   49.2600 C   0  0  0  0  0  0  0  0  0  0  0  0
   51.0120   30.2150   48.1880 O   0  0  0  0  0  0  0  0  0  0  0  0
   50.7430   31.9570   49.6480 N   0  0  0  0  0  0  0  0  0  0  0  0
   51.3440   32.2050   50.8230 C   0  0  0  0  0  0  0  0  0  0  0  0
   51.0340   33.2900   51.6360 O   0  0  0  0  0  0  0  0  0  0  0  0
   55.3530   31.5950   51.9970 C   0  0  0  0  0  0  0  0  0  0  0  0
   56.5470   30.9300   52.1760 C   0  0  0  0  0  0  0  0  0  0  0  0
   57.8730   31.5240   51.8980 C   0  0  0  0  0  0  0  0  0  0  0  0
   58.3810   32.2750   52.7750 O   0  0  0  0  0  0  0  0  0  0  0  0
   58.6000   31.2780   50.6650 N   0  0  0  0  0  0  0  0  0  0  0  0
   58.3580   29.9230   50.1140 C   0  0  0  0  0  0  0  0  0  0  0  0
   59.1510   29.7150   48.8200 C   0  0  0  0  0  0  0  0  0  0  0  0
   58.7720   30.7560   47.8470 N   0  0  0  0  0  0  0  0  0  0  0  0
   59.3080   30.5230   46.4880 C   0  0  0  0  0  0  0  0  0  0  0  0
   58.3210   29.8580   45.5160 C   0  0  0  0  0  0  0  0  0  0  0  0
   57.0880   30.5190   45.5940 O   0  0  0  0  0  0  0  0  0  0  0  0
   59.0600   32.1040   48.3720 C   0  0  0  0  0  0  0  0  0  0  0  0
   58.2710   32.3220   49.6700 C   0  0  0  0  0  0  0  0  0  0  0  0
   56.3340   29.6980   52.6900 N   0  0  0  0  0  0  0  0  0  0  0  0
   57.3730   28.7290   53.0590 C   0  0  0  0  0  0  0  0  0  0  0  0
  1  2  2  0
  2  3  1  0
  3  4  2  3
  4  5  1  0
  5  6  1  0
  6  7  1  0
  7  8  2  0
  7  9  1  0
  9 10  1  0
 10 11  1  0
  3 12  1  0
 12 13  2  0
 13 14  1  0
 14 15  2  0
 14 16  1  0
 16 17  1  0
 17 18  1  0
 18 19  1  0
 19 20  1  0
 20 21  1  0
 21 22  1  0
 19 23  1  0
 23 24  1  0
 13 25  1  0
 25 26  1  0
 25  2  1  0
 10  5  2  0
 24 16  1  0
M  CHG  4   6  -1   9  -1  11  -1  16   1
M  END
>  <UniqueID>  (2537) 
41

>  <SMILES>  (2537) 
C=c1c(=Cc2[n-]c(=O)[n-]c2[O-])cc(C(=O)[NH+]2CCN(CCO)CC2)n1C

>  <Energy>  (2537) 
130.7648352933679

>  <Genealogy>  (2537) 
C=c1c(=Cc2[n-]c(=O)[n-]c2[O-])cc(C(=O)[NH+]2CCN(CCO)CC2)n1C (protonated)
C=c1c(=Cc2[n-]c(=O)[n-]c2[O-])cc(C(=O)[NH+]2CCN(CCO)CC2)n1C (3D coordinates assigned)
C=c1c(=Cc2[n-]c(=O)[n-]c2[O-])cc(C(=O)[NH+]2CCN(CCO)CC2)n1C (nonaromatic ring conformer: 130.7648352933679 kcal/mol)

>  <smiles>  (2537) 
C=c1c(=Cc2[nH]c(=O)[nH]c2O)cc(C(=O)N2CCN(CCO)CC2)n1C

>  <score_type>  (2537) 
oracle

>  <origin>  (2537) 
adg

>  <m_score__min__energy>  (2537) 
-14.56

>  <m_primary>  (2537) 
energy

$$$$
49:0
     RDKit          3D

 25 27  0  0  0  0  0  0  0  0999 V2000
   53.4910   29.0890   55.0400 C   0  0  0  0  0  0  0  0  0  0  0  0
   54.2260   29.4610   53.9790 C   0  0  0  0  0  0  0  0  0  0  0  0
   53.9000   30.4560   53.0440 C   0  0  0  0  0  0  0  0  0  0  0  0
   52.7490   31.1210   52.8230 C   0  0  0  0  0  0  0  0  0  0  0  0
   52.0860   31.2830   51.5210 C   0  0  0  0  0  0  0  0  0  0  0  0
   52.2190   30.4110   50.5060 N   0  0  0  0  0  0  0  0  0  0  0  0
   51.3560   30.8770   49.5780 C   0  0  0  0  0  0  0  0  0  0  0  0
   51.2050   30.3260   48.4560 O   0  0  0  0  0  0  0  0  0  0  0  0
   50.6600   31.9720   49.9490 N   0  0  0  0  0  0  0  0  0  0  0  0
   51.1210   32.2080   51.1870 C   0  0  0  0  0  0  0  0  0  0  0  0
   50.6510   33.2280   52.0050 O   0  0  0  0  0  0  0  0  0  0  0  0
   55.0470   30.6820   52.3060 C   0  0  0  0  0  0  0  0  0  0  0  0
   56.0040   29.7980   52.7600 C   0  0  0  0  0  0  0  0  0  0  0  0
   57.3920   29.7620   52.2470 C   0  0  0  0  0  0  0  0  0  0  0  0
   58.3540   29.5270   53.0250 O   0  0  0  0  0  0  0  0  0  0  0  0
   57.6390   30.0850   50.8720 N   0  0  0  0  0  0  0  0  0  0  0  0
   58.6020   31.0250   50.3750 C   0  0  0  0  0  0  0  0  0  0  0  0
   58.6220   32.3160   50.9190 C   0  0  0  0  0  0  0  0  0  0  0  0
   59.5310   33.2700   50.4500 C   0  0  0  0  0  0  0  0  0  0  0  0
   60.4180   32.9430   49.4190 C   0  0  0  0  0  0  0  0  0  0  0  0
   61.5550   34.1400   48.8280 Cl  0  0  0  0  0  0  0  0  0  0  0  0
   60.3880   31.6650   48.8530 C   0  0  0  0  0  0  0  0  0  0  0  0
   59.4800   30.7100   49.3210 C   0  0  0  0  0  0  0  0  0  0  0  0
   55.4950   29.0240   53.7520 N   0  0  0  0  0  0  0  0  0  0  0  0
   56.2070   27.9650   54.4790 C   0  0  0  0  0  0  0  0  0  0  0  0
  1  2  2  0
  2  3  1  0
  3  4  2  0
  4  5  1  0
  5  6  1  0
  6  7  1  0
  7  8  2  0
  7  9  1  0
  9 10  1  0
 10 11  1  0
  3 12  1  0
 12 13  2  0
 13 14  1  0
 14 15  2  0
 14 16  1  0
 16 17  1  0
 17 18  2  0
 18 19  1  0
 19 20  2  0
 20 21  1  0
 20 22  1  0
 22 23  2  0
 13 24  1  0
 24 25  1  0
 24  2  1  0
 10  5  2  0
 23 17  1  0
M  CHG  4   6  -1   9  -1  11  -1  16  -1
M  END
>  <UniqueID>  (2538) 
48

>  <SMILES>  (2538) 
C=c1/c(=C\c2[n-]c(=O)[n-]c2[O-])cc(C(=O)[N-]c2ccc(Cl)cc2)n1C

>  <Energy>  (2538) 
114.62909863964501

>  <Genealogy>  (2538) 
C=c1c(=Cc2[n-]c(=O)[n-]c2[O-])cc(C(=O)[N-]c2ccc(Cl)cc2)n1C (protonated)
C=c1/c(=C\c2[n-]c(=O)[n-]c2[O-])cc(C(=O)[N-]c2ccc(Cl)cc2)n1C (cis-trans isomerization)
C=c1/c(=C\c2[n-]c(=O)[n-]c2[O-])cc(C(=O)[N-]c2ccc(Cl)cc2)n1C (3D coordinates assigned)
C=c1/c(=C\c2[n-]c(=O)[n-]c2[O-])cc(C(=O)[N-]c2ccc(Cl)cc2)n1C (optimized conformer: 114.62909863964501 kcal/mol)

>  <smiles>  (2538) 
C=c1c(=Cc2[nH]c(=O)[nH]c2O)cc(C(=O)Nc2ccc(Cl)cc2)n1C

>  <score_type>  (2538) 
oracle

>  <origin>  (2538) 
adg

>  <m_score__min__energy>  (2538) 
-18.059999999999999

>  <m_primary>  (2538) 
energy

$$$$
60:0
     RDKit          3D

 32 35  0  0  0  0  0  0  0  0999 V2000
   59.7400   29.5200   48.0970 C   0  0  0  0  0  0  0  0  0  0  0  0
   58.9180   30.2120   47.2920 C   0  0  0  0  0  0  0  0  0  0  0  0
   58.3650   29.7920   46.0710 C   0  0  0  0  0  0  0  0  0  0  0  0
   58.3430   28.5810   45.4810 C   0  0  0  0  0  0  0  0  0  0  0  0
   57.4130   27.4890   45.8020 C   0  0  0  0  0  0  0  0  0  0  0  0
   56.1050   27.5100   45.4900 N   0  0  0  0  0  0  0  0  0  0  0  0
   55.6270   26.3910   46.0760 C   0  0  0  0  0  0  0  0  0  0  0  0
   54.4190   26.0460   45.9940 O   0  0  0  0  0  0  0  0  0  0  0  0
   56.5420   25.6760   46.7660 N   0  0  0  0  0  0  0  0  0  0  0  0
   57.6650   26.3920   46.5950 C   0  0  0  0  0  0  0  0  0  0  0  0
   58.8900   26.0670   47.1680 O   0  0  0  0  0  0  0  0  0  0  0  0
   57.7660   30.9100   45.5130 C   0  0  0  0  0  0  0  0  0  0  0  0
   57.9130   31.9400   46.4200 C   0  0  0  0  0  0  0  0  0  0  0  0
   57.3560   33.3200   46.2530 C   0  0  0  0  0  0  0  0  0  0  0  0
   58.6110   31.5170   47.4960 N   0  0  0  0  0  0  0  0  0  0  0  0
   58.9650   32.3220   48.6340 C   0  0  0  0  0  0  0  0  0  0  0  0
   58.5160   31.9360   49.9060 C   0  0  0  0  0  0  0  0  0  0  0  0
   58.8390   32.6980   51.0300 C   0  0  0  0  0  0  0  0  0  0  0  0
   59.6210   33.8450   50.8950 C   0  0  0  0  0  0  0  0  0  0  0  0
   60.0810   34.2360   49.6360 C   0  0  0  0  0  0  0  0  0  0  0  0
   59.7470   33.4910   48.4900 C   0  0  0  0  0  0  0  0  0  0  0  0
   60.2880   33.9020   47.1750 C   0  0  0  0  0  0  0  0  0  0  0  0
   59.7330   34.8410   46.5450 O   0  0  0  0  0  0  0  0  0  0  0  0
   61.3940   33.2250   46.5660 N   0  0  0  0  0  0  0  0  0  0  0  0
   62.7250   33.7990   46.3760 C   0  0  0  0  0  0  0  0  0  0  0  0
   63.7690   32.9560   47.1090 C   0  0  0  0  0  0  0  0  0  0  0  0
   63.3120   32.6220   48.5050 C   0  0  0  0  0  0  0  0  0  0  0  0
   62.6470   31.4110   48.7600 C   0  0  0  0  0  0  0  0  0  0  0  0
   62.2670   31.0760   50.0630 C   0  0  0  0  0  0  0  0  0  0  0  0
   62.5530   31.9440   51.1200 C   0  0  0  0  0  0  0  0  0  0  0  0
   63.2210   33.1460   50.8760 C   0  0  0  0  0  0  0  0  0  0  0  0
   63.6050   33.4840   49.5750 C   0  0  0  0  0  0  0  0  0  0  0  0
  1  2  2  0
  2  3  1  0
  3  4  2  3
  4  5  1  0
  5  6  1  0
  6  7  1  0
  7  8  2  0
  7  9  1  0
  9 10  1  0
 10 11  1  0
  3 12  1  0
 12 13  2  0
 13 14  1  0
 13 15  1  0
 15 16  1  0
 16 17  2  0
 17 18  1  0
 18 19  2  0
 19 20  1  0
 20 21  2  0
 21 22  1  0
 22 23  2  0
 22 24  1  0
 24 25  1  0
 25 26  1  0
 26 27  1  0
 27 28  2  0
 28 29  1  0
 29 30  2  0
 30 31  1  0
 31 32  2  0
 15  2  1  0
 21 16  1  0
 32 27  1  0
 10  5  2  0
M  CHG  3   6  -1   9  -1  24  -1
M  END
>  <UniqueID>  (2539) 
58

>  <SMILES>  (2539) 
C=c1c(=Cc2[n-]c(=O)[n-]c2O)cc(C)n1-c1ccccc1C(=O)[N-]CCc1ccccc1

>  <Energy>  (2539) 
133.68355428203455

>  <Genealogy>  (2539) 
C=c1c(=Cc2[n-]c(=O)[n-]c2O)cc(C)n1-c1ccccc1C(=O)[N-]CCc1ccccc1 (protonated)
C=c1c(=Cc2[n-]c(=O)[n-]c2O)cc(C)n1-c1ccccc1C(=O)[N-]CCc1ccccc1 (3D coordinates assigned)
C=c1c(=Cc2[n-]c(=O)[n-]c2O)cc(C)n1-c1ccccc1C(=O)[N-]CCc1ccccc1 (optimized conformer: 133.68355428203455 kcal/mol)

>  <smiles>  (2539) 
C=c1c(=Cc2[nH]c(=O)[nH]c2O)cc(C)n1-c1ccccc1C(=O)NCCc1ccccc1

>  <score_type>  (2539) 
oracle

>  <origin>  (2539) 
adg

>  <m_score__min__energy>  (2539) 
-15.890000000000001

>  <m_primary>  (2539) 
energy

$$$$
4:0
     RDKit          3D

 23 25  0  0  0  0  0  0  0  0999 V2000
   54.4060   28.2000   52.9920 C   0  0  0  0  0  0  0  0  0  0  0  0
   54.7590   29.4440   52.6490 C   0  0  0  0  0  0  0  0  0  0  0  0
   53.9150   30.4870   52.2580 C   0  0  0  0  0  0  0  0  0  0  0  0
   52.5710   30.4650   52.1830 C   0  0  0  0  0  0  0  0  0  0  0  0
   51.8070   30.8430   50.9810 C   0  0  0  0  0  0  0  0  0  0  0  0
   51.7720   30.0970   49.8640 N   0  0  0  0  0  0  0  0  0  0  0  0
   51.0410   30.8460   49.0090 C   0  0  0  0  0  0  0  0  0  0  0  0
   50.7730   30.4690   47.8380 O   0  0  0  0  0  0  0  0  0  0  0  0
   50.6320   32.0330   49.5030 N   0  0  0  0  0  0  0  0  0  0  0  0
   51.1340   32.0230   50.7480 C   0  0  0  0  0  0  0  0  0  0  0  0
   51.0200   33.0910   51.6300 O   0  0  0  0  0  0  0  0  0  0  0  0
   54.7410   31.5740   52.0060 C   0  0  0  0  0  0  0  0  0  0  0  0
   56.0300   31.1400   52.2350 C   0  0  0  0  0  0  0  0  0  0  0  0
   57.5020   32.1360   52.0300 S   0  0  0  0  0  0  0  0  0  0  0  0
   58.4710   30.7290   51.4890 C   0  0  0  0  0  0  0  0  0  0  0  0
   59.1260   29.9270   52.4300 C   0  0  0  0  0  0  0  0  0  0  0  0
   59.8950   28.8370   52.0090 C   0  0  0  0  0  0  0  0  0  0  0  0
   60.0120   28.5380   50.6370 C   0  0  0  0  0  0  0  0  0  0  0  0
   60.7710   27.4590   50.1640 O   0  0  0  0  0  0  0  0  0  0  0  0
   61.2880   26.4190   50.9870 C   0  0  0  0  0  0  0  0  0  0  0  0
   59.3480   29.3460   49.7040 C   0  0  0  0  0  0  0  0  0  0  0  0
   58.5810   30.4350   50.1260 C   0  0  0  0  0  0  0  0  0  0  0  0
   56.0430   29.8540   52.6230 N   0  0  0  0  0  0  0  0  0  0  0  0
  1  2  2  0
  2  3  1  0
  3  4  2  0
  4  5  1  0
  5  6  1  0
  6  7  1  0
  7  8  2  0
  7  9  1  0
  9 10  1  0
 10 11  1  0
  3 12  1  0
 12 13  2  0
 13 14  1  0
 14 15  1  0
 15 16  2  0
 16 17  1  0
 17 18  2  0
 18 19  1  0
 19 20  1  0
 18 21  1  0
 21 22  2  0
 13 23  1  0
 23  2  1  0
 10  5  2  0
 22 15  1  0
M  CHG  3   6  -1   9  -1  11  -1
M  END
>  <UniqueID>  (2540) 
5

>  <SMILES>  (2540) 
C=c1[nH]c(Sc2ccc(OC)cc2)c/c1=C\c1[n-]c(=O)[n-]c1[O-]

>  <Energy>  (2540) 
95.0948711637888

>  <Genealogy>  (2540) 
C=c1[nH]c(Sc2ccc(OC)cc2)cc1=Cc1[n-]c(=O)[n-]c1[O-] (protonated)
C=c1[nH]c(Sc2ccc(OC)cc2)c/c1=C\c1[n-]c(=O)[n-]c1[O-] (cis-trans isomerization)
C=c1[nH]c(Sc2ccc(OC)cc2)c/c1=C\c1[n-]c(=O)[n-]c1[O-] (3D coordinates assigned)
C=c1[nH]c(Sc2ccc(OC)cc2)c/c1=C\c1[n-]c(=O)[n-]c1[O-] (optimized conformer: 95.0948711637888 kcal/mol)

>  <smiles>  (2540) 
C=c1[nH]c(Sc2ccc(OC)cc2)cc1=Cc1[nH]c(=O)[nH]c1O

>  <score_type>  (2540) 
oracle

>  <origin>  (2540) 
adg

>  <m_score__min__energy>  (2540) 
-15.720000000000001

>  <m_primary>  (2540) 
energy

$$$$
7:0
     RDKit          3D

 35 38  0  0  0  0  0  0  0  0999 V2000
   58.8580   24.1550   46.3680 O   0  0  0  0  0  0  0  0  0  0  0  0
   58.2910   25.0560   47.0460 C   0  0  0  0  0  0  0  0  0  0  0  0
   58.9970   26.3530   47.3010 C   0  0  0  0  0  0  0  0  0  0  0  0
   58.3540   27.4530   46.5810 N   0  0  0  0  0  0  0  0  0  0  0  0
   59.0860   28.6040   46.1200 C   0  0  0  0  0  0  0  0  0  0  0  0
   60.3320   28.6680   46.3180 O   0  0  0  0  0  0  0  0  0  0  0  0
   58.4150   29.6940   45.3690 C   0  0  0  0  0  0  0  0  0  0  0  0
   57.7750   29.4090   44.1490 C   0  0  0  0  0  0  0  0  0  0  0  0
   57.1110   30.4160   43.4440 C   0  0  0  0  0  0  0  0  0  0  0  0
   57.0780   31.7170   43.9450 C   0  0  0  0  0  0  0  0  0  0  0  0
   57.7290   32.0260   45.1480 C   0  0  0  0  0  0  0  0  0  0  0  0
   57.6490   33.6670   45.8020 S   0  0  0  0  0  0  0  0  0  0  0  0
   56.4560   33.7830   46.7100 O   0  0  0  0  0  0  0  0  0  0  0  0
   57.4720   34.6420   44.6710 O   0  0  0  0  0  0  0  0  0  0  0  0
   59.0910   34.0540   46.7180 N   0  0  0  0  0  0  0  0  0  0  0  0
   58.9710   33.5250   48.0910 C   0  0  0  0  0  0  0  0  0  0  0  0
   60.2830   33.7000   48.8570 C   0  0  0  0  0  0  0  0  0  0  0  0
   61.3890   33.0330   48.1510 N   0  0  0  0  0  0  0  0  0  0  0  0
   62.5990   32.6850   48.8650 C   0  0  0  0  0  0  0  0  0  0  0  0
   63.7830   33.4280   48.6800 C   0  0  0  0  0  0  0  0  0  0  0  0
   64.9530   33.0890   49.3690 C   0  0  0  0  0  0  0  0  0  0  0  0
   64.9590   32.0060   50.2510 C   0  0  0  0  0  0  0  0  0  0  0  0
   63.7930   31.2660   50.4520 C   0  0  0  0  0  0  0  0  0  0  0  0
   62.6200   31.6020   49.7700 C   0  0  0  0  0  0  0  0  0  0  0  0
   61.1990   32.6320   46.7490 C   0  0  0  0  0  0  0  0  0  0  0  0
   60.3310   33.6610   46.0010 C   0  0  0  0  0  0  0  0  0  0  0  0
   58.4070   31.0170   45.8490 C   0  0  0  0  0  0  0  0  0  0  0  0
   56.9080   24.9300   47.4020 N   0  0  0  0  0  0  0  0  0  0  0  0
   55.9130   24.4970   46.6750 C   0  0  0  0  0  0  0  0  0  0  0  0
   55.7710   23.1480   46.5390 N   0  0  0  0  0  0  0  0  0  0  0  0
   54.7650   22.5850   45.8200 C   0  0  0  0  0  0  0  0  0  0  0  0
   53.8290   23.3940   45.1780 C   0  0  0  0  0  0  0  0  0  0  0  0
   53.9560   24.7790   45.2650 C   0  0  0  0  0  0  0  0  0  0  0  0
   55.0050   25.3480   45.9960 C   0  0  0  0  0  0  0  0  0  0  0  0
   55.1460   26.7320   45.9810 O   0  0  0  0  0  0  0  0  0  0  0  0
  1  2  2  0
  2  3  1  0
  3  4  1  0
  4  5  1  0
  5  6  2  0
  5  7  1  0
  7  8  2  0
  8  9  1  0
  9 10  2  0
 10 11  1  0
 11 12  1  0
 12 13  2  0
 12 14  2  0
 12 15  1  0
 15 16  1  0
 16 17  1  0
 17 18  1  0
 18 19  1  0
 19 20  2  0
 20 21  1  0
 21 22  2  0
 22 23  1  0
 23 24  2  0
 18 25  1  0
 25 26  1  0
 11 27  2  0
  2 28  1  0
 28 29  2  3
 29 30  1  0
 30 31  1  0
 31 32  2  0
 32 33  1  0
 33 34  2  0
 34 35  1  0
 27  7  1  0
 34 29  1  0
 26 15  1  0
 24 19  1  0
M  CHG  2  30  -1  35  -1
M  END
>  <UniqueID>  (2541) 
8

>  <SMILES>  (2541) 
O=C(CNC(=O)c1cccc(S(=O)(=O)N2CCN(c3ccccc3)CC2)c1)N=c1[n-]cccc1[O-]

>  <Energy>  (2541) 
82.10150364173558

>  <Genealogy>  (2541) 
O=C(CNC(=O)c1cccc(S(=O)(=O)N2CCN(c3ccccc3)CC2)c1)N=c1[n-]cccc1[O-] (protonated)
O=C(CNC(=O)c1cccc(S(=O)(=O)N2CCN(c3ccccc3)CC2)c1)N=c1[n-]cccc1[O-] (3D coordinates assigned)
O=C(CNC(=O)c1cccc(S(=O)(=O)N2CCN(c3ccccc3)CC2)c1)N=c1[n-]cccc1[O-] (nonaromatic ring conformer: 82.10150364173558 kcal/mol)

>  <smiles>  (2541) 
O=C(CNC(=O)c1cccc(S(=O)(=O)N2CCN(c3ccccc3)CC2)c1)N=c1[nH]cccc1O

>  <score_type>  (2541) 
oracle

>  <origin>  (2541) 
adg

>  <m_score__min__energy>  (2541) 
-15.43

>  <m_primary>  (2541) 
energy

$$$$
18:0
     RDKit          3D

 29 31  0  0  0  0  0  0  0  0999 V2000
   55.1430   26.7030   45.9760 N   0  0  0  0  0  0  0  0  0  0  0  0
   56.2600   25.4040   46.2110 S   0  0  0  0  0  0  0  0  0  0  0  0
   56.9180   25.0480   44.9080 O   0  0  0  0  0  0  0  0  0  0  0  0
   55.5190   24.2050   46.7310 O   0  0  0  0  0  0  0  0  0  0  0  0
   57.4630   25.8680   47.3680 N   0  0  0  0  0  0  0  0  0  0  0  0
   58.3780   26.9610   47.2140 C   0  0  0  0  0  0  0  0  0  0  0  0
   59.3470   27.2680   48.1870 C   0  0  0  0  0  0  0  0  0  0  0  0
   60.2210   28.3410   47.9940 C   0  0  0  0  0  0  0  0  0  0  0  0
   60.1370   29.1170   46.8360 C   0  0  0  0  0  0  0  0  0  0  0  0
   59.1710   28.8280   45.8620 C   0  0  0  0  0  0  0  0  0  0  0  0
   59.1020   29.6390   44.5940 C   0  0  0  0  0  0  0  0  0  0  0  0
   58.4230   30.9200   44.8450 N   0  0  0  0  0  0  0  0  0  0  0  0
   59.1640   31.9930   45.2550 C   0  0  0  0  0  0  0  0  0  0  0  0
   58.5600   33.2320   45.5250 C   0  0  0  0  0  0  0  0  0  0  0  0
   59.3720   34.4070   45.9570 C   0  0  0  0  0  0  0  0  0  0  0  0
   59.5460   35.3700   45.1620 O   0  0  0  0  0  0  0  0  0  0  0  0
   60.0160   34.4850   47.3180 C   0  0  0  0  0  0  0  0  0  0  0  0
   61.2000   33.5560   47.4140 C   0  0  0  0  0  0  0  0  0  0  0  0
   62.3970   33.8660   46.7440 C   0  0  0  0  0  0  0  0  0  0  0  0
   63.4910   33.0010   46.8210 C   0  0  0  0  0  0  0  0  0  0  0  0
   63.4040   31.8250   47.5710 C   0  0  0  0  0  0  0  0  0  0  0  0
   62.2220   31.5140   48.2480 C   0  0  0  0  0  0  0  0  0  0  0  0
   61.1240   32.3750   48.1730 C   0  0  0  0  0  0  0  0  0  0  0  0
   57.1630   33.3160   45.3720 C   0  0  0  0  0  0  0  0  0  0  0  0
   56.5490   34.3960   45.5820 O   0  0  0  0  0  0  0  0  0  0  0  0
   56.4590   32.2260   44.9810 N   0  0  0  0  0  0  0  0  0  0  0  0
   57.0630   31.0400   44.7210 C   0  0  0  0  0  0  0  0  0  0  0  0
   56.3580   30.0600   44.3640 O   0  0  0  0  0  0  0  0  0  0  0  0
   58.3000   27.7430   46.0550 C   0  0  0  0  0  0  0  0  0  0  0  0
  1  2  1  0
  2  3  2  0
  2  4  2  0
  2  5  1  0
  5  6  1  0
  6  7  2  0
  7  8  1  0
  8  9  2  0
  9 10  1  0
 10 11  1  0
 11 12  1  0
 12 13  1  0
 13 14  2  0
 14 15  1  0
 15 16  2  0
 15 17  1  0
 17 18  1  0
 18 19  2  0
 19 20  1  0
 20 21  2  0
 21 22  1  0
 22 23  2  0
 14 24  1  0
 24 25  2  0
 24 26  1  0
 26 27  1  0
 27 28  2  0
 10 29  2  0
 29  6  1  0
 27 12  1  0
 23 18  1  0
M  CHG  3   1  -1   5  -1  26  -1
M  END
>  <UniqueID>  (2542) 
19

>  <SMILES>  (2542) 
[NH-]S(=O)(=O)[N-]c1cccc(Cn2cc(C(=O)Cc3ccccc3)c(=O)[n-]c2=O)c1

>  <Energy>  (2542) 
51.582874898500854

>  <Genealogy>  (2542) 
[NH-]S(=O)(=O)[N-]c1cccc(Cn2cc(C(=O)Cc3ccccc3)c(=O)[n-]c2=O)c1 (protonated)
[NH-]S(=O)(=O)[N-]c1cccc(Cn2cc(C(=O)Cc3ccccc3)c(=O)[n-]c2=O)c1 (3D coordinates assigned)
[NH-]S(=O)(=O)[N-]c1cccc(Cn2cc(C(=O)Cc3ccccc3)c(=O)[n-]c2=O)c1 (optimized conformer: 51.582874898500854 kcal/mol)

>  <smiles>  (2542) 
NS(=O)(=O)Nc1cccc(Cn2cc(C(=O)Cc3ccccc3)c(=O)[nH]c2=O)c1

>  <score_type>  (2542) 
oracle

>  <origin>  (2542) 
adg

>  <m_score__min__energy>  (2542) 
-14.91

>  <m_primary>  (2542) 
energy

$$$$
19:0
     RDKit          3D

 32 35  0  0  0  0  0  0  0  0999 V2000
   56.3600   29.3920   44.4310 C   0  0  0  0  0  0  0  0  0  0  0  0
   57.6040   29.0740   44.8240 C   0  0  0  0  0  0  0  0  0  0  0  0
   58.1530   27.7860   44.8980 C   0  0  0  0  0  0  0  0  0  0  0  0
   57.5180   26.6220   44.6410 C   0  0  0  0  0  0  0  0  0  0  0  0
   57.0150   25.6720   45.6590 C   0  0  0  0  0  0  0  0  0  0  0  0
   57.6740   24.6000   46.1350 N   0  0  0  0  0  0  0  0  0  0  0  0
   56.7960   24.0440   46.9950 C   0  0  0  0  0  0  0  0  0  0  0  0
   57.0570   23.0030   47.6530 O   0  0  0  0  0  0  0  0  0  0  0  0
   55.6140   24.6870   47.0930 N   0  0  0  0  0  0  0  0  0  0  0  0
   55.7690   25.7120   46.2390 C   0  0  0  0  0  0  0  0  0  0  0  0
   54.7880   26.6670   45.9950 O   0  0  0  0  0  0  0  0  0  0  0  0
   59.4670   27.9530   45.3230 C   0  0  0  0  0  0  0  0  0  0  0  0
   59.6620   29.3100   45.4890 C   0  0  0  0  0  0  0  0  0  0  0  0
   60.9120   29.9290   46.0360 C   0  0  0  0  0  0  0  0  0  0  0  0
   58.5370   29.9900   45.1890 N   0  0  0  0  0  0  0  0  0  0  0  0
   58.3540   31.4050   45.3650 C   0  0  0  0  0  0  0  0  0  0  0  0
   57.8170   32.1530   44.3650 N   0  0  0  0  0  0  0  0  0  0  0  0
   57.6910   33.5010   44.4920 C   0  0  0  0  0  0  0  0  0  0  0  0
   58.1400   34.1250   45.6120 N   0  0  0  0  0  0  0  0  0  0  0  0
   58.7150   33.4240   46.6250 C   0  0  0  0  0  0  0  0  0  0  0  0
   59.2330   34.1420   47.8050 C   0  0  0  0  0  0  0  0  0  0  0  0
   59.8890   35.2030   47.6290 O   0  0  0  0  0  0  0  0  0  0  0  0
   59.0480   33.6600   49.1460 N   0  0  0  0  0  0  0  0  0  0  0  0
   60.0590   32.9830   49.9550 C   0  0  0  0  0  0  0  0  0  0  0  0
   60.7690   31.9050   49.1310 C   0  0  0  0  0  0  0  0  0  0  0  0
   62.0780   32.4200   48.5910 C   0  0  0  0  0  0  0  0  0  0  0  0
   62.1750   32.8630   47.2630 C   0  0  0  0  0  0  0  0  0  0  0  0
   63.3840   33.3850   46.7980 C   0  0  0  0  0  0  0  0  0  0  0  0
   64.4560   33.4670   47.6300 N   0  0  0  0  0  0  0  0  0  0  0  0
   64.3880   33.0510   48.9230 C   0  0  0  0  0  0  0  0  0  0  0  0
   63.1970   32.5250   49.4290 C   0  0  0  0  0  0  0  0  0  0  0  0
   58.7970   32.0310   46.5330 C   0  0  0  0  0  0  0  0  0  0  0  0
  1  2  2  0
  2  3  1  0
  3  4  2  0
  4  5  1  0
  5  6  1  0
  6  7  1  0
  7  8  2  0
  7  9  1  0
  9 10  1  0
 10 11  1  0
  3 12  1  0
 12 13  2  0
 13 14  1  0
 13 15  1  0
 15 16  1  0
 16 17  2  0
 17 18  1  0
 18 19  2  0
 19 20  1  0
 20 21  1  0
 21 22  2  0
 21 23  1  0
 23 24  1  0
 24 25  1  0
 25 26  1  0
 26 27  2  0
 27 28  1  0
 28 29  2  0
 29 30  1  0
 30 31  2  0
 20 32  2  0
 15  2  1  0
 32 16  1  0
 10  5  2  0
 31 26  1  0
M  CHG  4   6  -1   9  -1  11  -1  23  -1
M  END
>  <UniqueID>  (2543) 
20

>  <SMILES>  (2543) 
C=c1/c(=C/c2[n-]c(=O)[n-]c2[O-])cc(C)n1-c1cc(C(=O)[N-]CCc2ccncc2)ncn1

>  <Energy>  (2543) 
123.3189192332521

>  <Genealogy>  (2543) 
C=c1c(=Cc2[n-]c(=O)[n-]c2[O-])cc(C)n1-c1cc(C(=O)[N-]CCc2ccncc2)ncn1 (protonated)
C=c1/c(=C/c2[n-]c(=O)[n-]c2[O-])cc(C)n1-c1cc(C(=O)[N-]CCc2ccncc2)ncn1 (cis-trans isomerization)
C=c1/c(=C/c2[n-]c(=O)[n-]c2[O-])cc(C)n1-c1cc(C(=O)[N-]CCc2ccncc2)ncn1 (3D coordinates assigned)
C=c1/c(=C/c2[n-]c(=O)[n-]c2[O-])cc(C)n1-c1cc(C(=O)[N-]CCc2ccncc2)ncn1 (optimized conformer: 123.3189192332521 kcal/mol)

>  <smiles>  (2543) 
C=c1c(=Cc2[nH]c(=O)[nH]c2O)cc(C)n1-c1cc(C(=O)NCCc2ccncc2)ncn1

>  <score_type>  (2543) 
oracle

>  <origin>  (2543) 
adg

>  <m_score__min__energy>  (2543) 
-17.449999999999999

>  <m_primary>  (2543) 
energy

$$$$
24:0
     RDKit          3D

 30 32  0  0  0  0  0  0  0  0999 V2000
   59.4380   27.4330   46.7090 C   0  0  0  0  0  0  0  0  0  0  0  0
   58.7330   28.1250   45.8000 C   0  0  0  0  0  0  0  0  0  0  0  0
   57.9590   27.5920   44.7550 C   0  0  0  0  0  0  0  0  0  0  0  0
   57.5790   26.3270   44.4860 C   0  0  0  0  0  0  0  0  0  0  0  0
   57.0750   25.3530   45.4680 C   0  0  0  0  0  0  0  0  0  0  0  0
   57.7900   24.3240   45.9620 N   0  0  0  0  0  0  0  0  0  0  0  0
   56.9800   23.8130   46.9140 C   0  0  0  0  0  0  0  0  0  0  0  0
   57.2970   22.8100   47.6060 O   0  0  0  0  0  0  0  0  0  0  0  0
   55.8110   24.4680   47.0760 N   0  0  0  0  0  0  0  0  0  0  0  0
   55.8940   25.4490   46.1620 C   0  0  0  0  0  0  0  0  0  0  0  0
   54.9160   26.4180   45.9690 O   0  0  0  0  0  0  0  0  0  0  0  0
   57.5650   28.6660   43.9790 C   0  0  0  0  0  0  0  0  0  0  0  0
   58.0300   29.8070   44.5980 C   0  0  0  0  0  0  0  0  0  0  0  0
   57.7070   31.1740   44.1380 C   0  0  0  0  0  0  0  0  0  0  0  0
   58.2210   31.6050   43.0710 O   0  0  0  0  0  0  0  0  0  0  0  0
   56.7730   31.9840   44.8610 N   0  0  0  0  0  0  0  0  0  0  0  0
   57.0070   33.3840   45.1930 C   0  0  0  0  0  0  0  0  0  0  0  0
   58.2300   33.5170   46.0590 C   0  0  0  0  0  0  0  0  0  0  0  0
   58.1740   33.1560   47.4130 C   0  0  0  0  0  0  0  0  0  0  0  0
   59.3120   33.2550   48.2180 C   0  0  0  0  0  0  0  0  0  0  0  0
   60.5280   33.7010   47.6760 C   0  0  0  0  0  0  0  0  0  0  0  0
   61.7240   33.8180   48.5390 C   0  0  0  0  0  0  0  0  0  0  0  0
   61.7200   34.6700   49.4690 O   0  0  0  0  0  0  0  0  0  0  0  0
   62.8800   32.9780   48.3490 N   0  0  0  0  0  0  0  0  0  0  0  0
   64.1880   33.4530   48.8110 C   0  0  0  0  0  0  0  0  0  0  0  0
   62.7310   31.6090   47.8430 C   0  0  0  0  0  0  0  0  0  0  0  0
   60.5790   34.0790   46.3250 C   0  0  0  0  0  0  0  0  0  0  0  0
   59.4410   33.9810   45.5200 C   0  0  0  0  0  0  0  0  0  0  0  0
   58.7670   29.4820   45.6900 N   0  0  0  0  0  0  0  0  0  0  0  0
   59.5070   30.4230   46.5440 C   0  0  0  0  0  0  0  0  0  0  0  0
  1  2  2  0
  2  3  1  0
  3  4  2  3
  4  5  1  0
  5  6  1  0
  6  7  1  0
  7  8  2  0
  7  9  1  0
  9 10  1  0
 10 11  1  0
  3 12  1  0
 12 13  2  0
 13 14  1  0
 14 15  2  0
 14 16  1  0
 16 17  1  0
 17 18  1  0
 18 19  2  0
 19 20  1  0
 20 21  2  0
 21 22  1  0
 22 23  2  0
 22 24  1  0
 24 25  1  0
 24 26  1  0
 21 27  1  0
 27 28  2  0
 13 29  1  0
 29 30  1  0
 29  2  1  0
 10  5  2  0
 28 18  1  0
M  CHG  3   6  -1   9  -1  16  -1
M  END
>  <UniqueID>  (2544) 
25

>  <SMILES>  (2544) 
C=c1c(=Cc2[n-]c(=O)[n-]c2O)cc(C(=O)[N-]Cc2ccc(C(=O)N(C)C)cc2)n1C

>  <Energy>  (2544) 
124.22713575575733

>  <Genealogy>  (2544) 
C=c1c(=Cc2[n-]c(=O)[n-]c2O)cc(C(=O)[N-]Cc2ccc(C(=O)N(C)C)cc2)n1C (protonated)
C=c1c(=Cc2[n-]c(=O)[n-]c2O)cc(C(=O)[N-]Cc2ccc(C(=O)N(C)C)cc2)n1C (3D coordinates assigned)
C=c1c(=Cc2[n-]c(=O)[n-]c2O)cc(C(=O)[N-]Cc2ccc(C(=O)N(C)C)cc2)n1C (optimized conformer: 124.22713575575733 kcal/mol)

>  <smiles>  (2544) 
C=c1c(=Cc2[nH]c(=O)[nH]c2O)cc(C(=O)NCc2ccc(C(=O)N(C)C)cc2)n1C

>  <score_type>  (2544) 
oracle

>  <origin>  (2544) 
adg

>  <m_score__min__energy>  (2544) 
-15.07

>  <m_primary>  (2544) 
energy

$$$$
33:0
     RDKit          3D

 27 29  0  0  0  0  0  0  0  0999 V2000
   54.7740   28.3690   52.6470 C   0  0  0  0  0  0  0  0  0  0  0  0
   55.1550   29.6550   52.6460 C   0  0  0  0  0  0  0  0  0  0  0  0
   54.3370   30.7840   52.4710 C   0  0  0  0  0  0  0  0  0  0  0  0
   52.9960   30.9100   52.4520 C   0  0  0  0  0  0  0  0  0  0  0  0
   52.1560   30.9700   51.2470 C   0  0  0  0  0  0  0  0  0  0  0  0
   52.2400   30.0870   50.2370 N   0  0  0  0  0  0  0  0  0  0  0  0
   51.3970   30.5930   49.3090 C   0  0  0  0  0  0  0  0  0  0  0  0
   51.1890   30.0280   48.2050 O   0  0  0  0  0  0  0  0  0  0  0  0
   50.8070   31.7570   49.6530 N   0  0  0  0  0  0  0  0  0  0  0  0
   51.3080   31.9900   50.8770 C   0  0  0  0  0  0  0  0  0  0  0  0
   51.0200   33.1250   51.6260 O   0  0  0  0  0  0  0  0  0  0  0  0
   55.1940   31.8610   52.3120 C   0  0  0  0  0  0  0  0  0  0  0  0
   56.4760   31.3800   52.4630 C   0  0  0  0  0  0  0  0  0  0  0  0
   57.7130   32.2240   52.3920 C   0  0  0  0  0  0  0  0  0  0  0  0
   56.4560   30.0430   52.6570 N   0  0  0  0  0  0  0  0  0  0  0  0
   57.6100   29.2030   52.8320 C   0  0  0  0  0  0  0  0  0  0  0  0
   57.6190   28.3550   53.7650 O   0  0  0  0  0  0  0  0  0  0  0  0
   58.7570   29.3370   51.9720 N   0  0  0  0  0  0  0  0  0  0  0  0
   58.5780   29.6540   50.5480 C   0  0  0  0  0  0  0  0  0  0  0  0
   59.7340   30.5230   49.9990 C   0  0  0  0  0  0  0  0  0  0  0  0
   60.8880   30.5920   50.9190 N   0  0  0  0  0  0  0  0  0  0  0  0
   62.2900   31.1960   50.0710 S   0  0  0  0  0  0  0  0  0  0  0  0
   62.4260   32.9600   50.2760 C   0  0  0  0  0  0  0  0  0  0  0  0
   63.5280   30.5560   50.6350 O   0  0  0  0  0  0  0  0  0  0  0  0
   62.1910   30.8740   48.6060 O   0  0  0  0  0  0  0  0  0  0  0  0
   61.1810   29.2690   51.4840 C   0  0  0  0  0  0  0  0  0  0  0  0
   60.0680   28.8910   52.4630 C   0  0  0  0  0  0  0  0  0  0  0  0
  1  2  2  0
  2  3  1  0
  3  4  2  3
  4  5  1  0
  5  6  1  0
  6  7  1  0
  7  8  2  0
  7  9  1  0
  9 10  1  0
 10 11  1  0
  3 12  1  0
 12 13  2  0
 13 14  1  0
 13 15  1  0
 15 16  1  0
 16 17  2  0
 16 18  1  0
 18 19  1  0
 19 20  1  0
 20 21  1  0
 21 22  1  0
 22 23  1  0
 22 24  2  0
 22 25  2  0
 21 26  1  0
 26 27  1  0
 15  2  1  0
 27 18  1  0
 10  5  2  0
M  CHG  3   6  -1   9  -1  11  -1
M  END
>  <UniqueID>  (2545) 
34

>  <SMILES>  (2545) 
C=c1c(=Cc2[n-]c(=O)[n-]c2[O-])cc(C)n1C(=O)N1CCN(S(C)(=O)=O)CC1

>  <Energy>  (2545) 
119.56287624917894

>  <Genealogy>  (2545) 
C=c1c(=Cc2[n-]c(=O)[n-]c2[O-])cc(C)n1C(=O)N1CCN(S(C)(=O)=O)CC1 (protonated)
C=c1c(=Cc2[n-]c(=O)[n-]c2[O-])cc(C)n1C(=O)N1CCN(S(C)(=O)=O)CC1 (3D coordinates assigned)
C=c1c(=Cc2[n-]c(=O)[n-]c2[O-])cc(C)n1C(=O)N1CCN(S(C)(=O)=O)CC1 (nonaromatic ring conformer: 119.56287624917894 kcal/mol)

>  <smiles>  (2545) 
C=c1c(=Cc2[nH]c(=O)[nH]c2O)cc(C)n1C(=O)N1CCN(S(C)(=O)=O)CC1

>  <score_type>  (2545) 
oracle

>  <origin>  (2545) 
adg

>  <m_score__min__energy>  (2545) 
-15.66

>  <m_primary>  (2545) 
energy

$$$$
34:0
     RDKit          3D

 31 34  0  0  0  0  0  0  0  0999 V2000
   54.9450   28.5220   52.7490 C   0  0  0  0  0  0  0  0  0  0  0  0
   55.3190   29.7930   52.5420 C   0  0  0  0  0  0  0  0  0  0  0  0
   54.4920   30.9070   52.3880 C   0  0  0  0  0  0  0  0  0  0  0  0
   53.1470   30.9250   52.3900 C   0  0  0  0  0  0  0  0  0  0  0  0
   52.3220   31.0440   51.1730 C   0  0  0  0  0  0  0  0  0  0  0  0
   52.3190   30.1140   50.2010 N   0  0  0  0  0  0  0  0  0  0  0  0
   51.4040   30.5750   49.3230 C   0  0  0  0  0  0  0  0  0  0  0  0
   51.1240   29.9700   48.2560 O   0  0  0  0  0  0  0  0  0  0  0  0
   50.8040   31.7290   49.6830 N   0  0  0  0  0  0  0  0  0  0  0  0
   51.3870   32.0100   50.8600 C   0  0  0  0  0  0  0  0  0  0  0  0
   51.0290   33.0970   51.6470 O   0  0  0  0  0  0  0  0  0  0  0  0
   55.2560   32.0010   52.1730 N   0  0  0  0  0  0  0  0  0  0  0  0
   56.5200   31.5360   52.2130 C   0  0  0  0  0  0  0  0  0  0  0  0
   57.5240   32.2760   52.0430 O   0  0  0  0  0  0  0  0  0  0  0  0
   56.6020   30.2080   52.4410 N   0  0  0  0  0  0  0  0  0  0  0  0
   57.8280   29.4010   52.4990 C   0  0  0  0  0  0  0  0  0  0  0  0
   58.6600   29.6170   51.2630 C   0  0  0  0  0  0  0  0  0  0  0  0
   58.1660   29.3290   50.1390 O   0  0  0  0  0  0  0  0  0  0  0  0
   59.9930   30.1630   51.3350 N   0  0  0  0  0  0  0  0  0  0  0  0
   60.9350   29.8770   50.2430 C   0  0  0  0  0  0  0  0  0  0  0  0
   62.3850   30.1180   50.6710 C   0  0  0  0  0  0  0  0  0  0  0  0
   62.5390   31.4470   51.2800 N   0  0  0  0  0  0  0  0  0  0  0  0
   63.7960   32.1530   51.1760 C   0  0  0  0  0  0  0  0  0  0  0  0
   63.9270   33.4650   51.6710 C   0  0  0  0  0  0  0  0  0  0  0  0
   65.1430   34.1460   51.5660 C   0  0  0  0  0  0  0  0  0  0  0  0
   66.2420   33.5280   50.9650 C   0  0  0  0  0  0  0  0  0  0  0  0
   67.4210   34.1900   50.8640 F   0  0  0  0  0  0  0  0  0  0  0  0
   66.1260   32.2290   50.4670 C   0  0  0  0  0  0  0  0  0  0  0  0
   64.9120   31.5440   50.5690 C   0  0  0  0  0  0  0  0  0  0  0  0
   61.4420   32.0230   52.0740 C   0  0  0  0  0  0  0  0  0  0  0  0
   60.4250   30.9570   52.4930 C   0  0  0  0  0  0  0  0  0  0  0  0
  1  2  2  0
  2  3  1  0
  3  4  2  0
  4  5  1  0
  5  6  1  0
  6  7  1  0
  7  8  2  0
  7  9  1  0
  9 10  1  0
 10 11  1  0
  3 12  1  0
 12 13  1  0
 13 14  2  0
 13 15  1  0
 15 16  1  0
 16 17  1  0
 17 18  2  0
 17 19  1  0
 19 20  1  0
 20 21  1  0
 21 22  1  0
 22 23  1  0
 23 24  2  0
 24 25  1  0
 25 26  2  0
 26 27  1  0
 26 28  1  0
 28 29  2  0
 22 30  1  0
 30 31  1  0
 15  2  1  0
 31 19  1  0
 10  5  2  0
 29 23  1  0
M  CHG  4   6  -1   9  -1  11  -1  12  -1
M  END
>  <UniqueID>  (2546) 
35

>  <SMILES>  (2546) 
C=c1/c(=C/c2[n-]c(=O)[n-]c2[O-])[n-]c(=O)n1CC(=O)N1CCN(c2ccc(F)cc2)CC1

>  <Energy>  (2546) 
122.94298968597852

>  <Genealogy>  (2546) 
C=c1c(=Cc2[n-]c(=O)[n-]c2[O-])[n-]c(=O)n1CC(=O)N1CCN(c2ccc(F)cc2)CC1 (protonated)
C=c1/c(=C/c2[n-]c(=O)[n-]c2[O-])[n-]c(=O)n1CC(=O)N1CCN(c2ccc(F)cc2)CC1 (cis-trans isomerization)
C=c1/c(=C/c2[n-]c(=O)[n-]c2[O-])[n-]c(=O)n1CC(=O)N1CCN(c2ccc(F)cc2)CC1 (3D coordinates assigned)
C=c1/c(=C/c2[n-]c(=O)[n-]c2[O-])[n-]c(=O)n1CC(=O)N1CCN(c2ccc(F)cc2)CC1 (nonaromatic ring conformer: 122.94298968597852 kcal/mol)

>  <smiles>  (2546) 
C=c1c(=Cc2[nH]c(=O)[nH]c2O)[nH]c(=O)n1CC(=O)N1CCN(c2ccc(F)cc2)CC1

>  <score_type>  (2546) 
oracle

>  <origin>  (2546) 
adg

>  <m_score__min__energy>  (2546) 
-18.350000000000001

>  <m_primary>  (2546) 
energy

$$$$
35:0
     RDKit          3D

 37 41  0  0  0  0  0  0  0  0999 V2000
   57.2890   30.9920   43.3730 C   0  0  0  0  0  0  0  0  0  0  0  0
   57.5180   30.1790   44.4050 C   0  0  0  0  0  0  0  0  0  0  0  0
   57.2060   28.5270   44.3800 S   0  0  0  0  0  0  0  0  0  0  0  0
   57.7680   28.2710   45.9500 C   0  0  0  0  0  0  0  0  0  0  0  0
   57.7660   27.1100   46.6220 C   0  0  0  0  0  0  0  0  0  0  0  0
   57.0750   25.8990   46.1580 C   0  0  0  0  0  0  0  0  0  0  0  0
   57.8590   24.5030   45.6330 S   0  0  0  0  0  0  0  0  0  0  0  0
   56.4180   23.7370   45.2460 C   0  0  0  0  0  0  0  0  0  0  0  0
   56.3370   22.5690   44.7840 O   0  0  0  0  0  0  0  0  0  0  0  0
   55.3380   24.5130   45.4760 N   0  0  0  0  0  0  0  0  0  0  0  0
   55.7050   25.7240   45.9730 C   0  0  0  0  0  0  0  0  0  0  0  0
   54.7670   26.7160   46.2330 O   0  0  0  0  0  0  0  0  0  0  0  0
   58.1810   29.5040   46.4580 C   0  0  0  0  0  0  0  0  0  0  0  0
   58.6400   29.6460   47.6260 O   0  0  0  0  0  0  0  0  0  0  0  0
   58.0440   30.5590   45.6010 N   0  0  0  0  0  0  0  0  0  0  0  0
   58.4220   31.9020   45.9430 C   0  0  0  0  0  0  0  0  0  0  0  0
   57.4910   32.9410   45.8550 C   0  0  0  0  0  0  0  0  0  0  0  0
   57.8670   34.2480   46.1690 C   0  0  0  0  0  0  0  0  0  0  0  0
   59.1780   34.5280   46.5570 C   0  0  0  0  0  0  0  0  0  0  0  0
   60.1320   33.4970   46.6300 C   0  0  0  0  0  0  0  0  0  0  0  0
   61.5350   33.7940   46.9970 C   0  0  0  0  0  0  0  0  0  0  0  0
   62.2050   34.5930   46.2890 O   0  0  0  0  0  0  0  0  0  0  0  0
   62.1450   33.1890   48.1530 N   0  0  0  0  0  0  0  0  0  0  0  0
   63.5820   32.8920   48.1390 C   0  0  0  0  0  0  0  0  0  0  0  0
   63.8780   31.6540   48.9900 C   0  0  0  0  0  0  0  0  0  0  0  0
   63.2000   31.7650   50.2880 N   0  0  0  0  0  0  0  0  0  0  0  0
   63.9300   31.6840   51.5260 C   0  0  0  0  0  0  0  0  0  0  0  0
   63.5760   32.3980   52.5040 O   0  0  0  0  0  0  0  0  0  0  0  0
   65.0760   30.7630   51.6900 C   0  0  0  0  0  0  0  0  0  0  0  0
   64.8600   29.4140   52.0090 C   0  0  0  0  0  0  0  0  0  0  0  0
   65.9430   28.5400   52.1570 C   0  0  0  0  0  0  0  0  0  0  0  0
   67.2470   29.0050   51.9760 C   0  0  0  0  0  0  0  0  0  0  0  0
   67.4730   30.3420   51.6390 C   0  0  0  0  0  0  0  0  0  0  0  0
   66.3930   31.2200   51.4980 C   0  0  0  0  0  0  0  0  0  0  0  0
   61.7600   32.0310   50.2810 C   0  0  0  0  0  0  0  0  0  0  0  0
   61.4790   33.2890   49.4590 C   0  0  0  0  0  0  0  0  0  0  0  0
   59.7390   32.1780   46.3400 C   0  0  0  0  0  0  0  0  0  0  0  0
  1  2  2  0
  2  3  1  0
  3  4  1  0
  4  5  2  3
  5  6  1  0
  6  7  1  0
  7  8  1  0
  8  9  2  0
  8 10  1  0
 10 11  1  0
 11 12  1  0
  4 13  1  0
 13 14  2  0
 13 15  1  0
 15 16  1  0
 16 17  2  0
 17 18  1  0
 18 19  2  0
 19 20  1  0
 20 21  1  0
 21 22  2  0
 21 23  1  0
 23 24  1  0
 24 25  1  0
 25 26  1  0
 26 27  1  0
 27 28  2  0
 27 29  1  0
 29 30  2  0
 30 31  1  0
 31 32  2  0
 32 33  1  0
 33 34  2  0
 26 35  1  0
 35 36  1  0
 20 37  2  0
 15  2  1  0
 37 16  1  0
 11  6  2  0
 36 23  1  0
 34 29  1  0
M  CHG  2  10  -1  12  -1
M  END
>  <UniqueID>  (2547) 
36

>  <SMILES>  (2547) 
C=c1sc(=Cc2sc(=O)[n-]c2[O-])c(=O)n1-c1cccc(C(=O)N2CCN(C(=O)c3ccccc3)CC2)c1

>  <Energy>  (2547) 
148.48133531581578

>  <Genealogy>  (2547) 
C=c1sc(=Cc2sc(=O)[n-]c2[O-])c(=O)n1-c1cccc(C(=O)N2CCN(C(=O)c3ccccc3)CC2)c1 (protonated)
C=c1sc(=Cc2sc(=O)[n-]c2[O-])c(=O)n1-c1cccc(C(=O)N2CCN(C(=O)c3ccccc3)CC2)c1 (3D coordinates assigned)
C=c1sc(=Cc2sc(=O)[n-]c2[O-])c(=O)n1-c1cccc(C(=O)N2CCN(C(=O)c3ccccc3)CC2)c1 (nonaromatic ring conformer: 148.48133531581578 kcal/mol)

>  <smiles>  (2547) 
C=c1sc(=Cc2sc(=O)[nH]c2O)c(=O)n1-c1cccc(C(=O)N2CCN(C(=O)c3ccccc3)CC2)c1

>  <score_type>  (2547) 
oracle

>  <origin>  (2547) 
adg

>  <m_score__min__energy>  (2547) 
-16.57

>  <m_primary>  (2547) 
energy

$$$$
42:0
     RDKit          3D

 30 32  0  0  0  0  0  0  0  0999 V2000
   57.8630   29.7250   50.9790 O   0  0  0  0  0  0  0  0  0  0  0  0
   57.8110   30.5990   51.8870 C   0  0  0  0  0  0  0  0  0  0  0  0
   56.5830   30.7100   52.7330 C   0  0  0  0  0  0  0  0  0  0  0  0
   55.3920   31.1660   51.8890 C   0  0  0  0  0  0  0  0  0  0  0  0
   54.2280   30.3190   52.1400 N   0  0  0  0  0  0  0  0  0  0  0  0
   52.8610   30.7310   52.0120 C   0  0  0  0  0  0  0  0  0  0  0  0
   52.2320   31.0840   53.0430 O   0  0  0  0  0  0  0  0  0  0  0  0
   52.1660   30.7390   50.7100 C   0  0  0  0  0  0  0  0  0  0  0  0
   52.3620   29.6730   49.8190 C   0  0  0  0  0  0  0  0  0  0  0  0
   51.7120   29.6620   48.5800 C   0  0  0  0  0  0  0  0  0  0  0  0
   50.8550   30.7080   48.2310 C   0  0  0  0  0  0  0  0  0  0  0  0
   50.6360   31.7610   49.1230 C   0  0  0  0  0  0  0  0  0  0  0  0
   51.2800   31.7770   50.3650 C   0  0  0  0  0  0  0  0  0  0  0  0
   51.0190   32.8120   51.2560 O   0  0  0  0  0  0  0  0  0  0  0  0
   58.8660   31.5560   52.0460 N   0  0  0  0  0  0  0  0  0  0  0  0
   59.5090   32.3040   51.0040 C   0  0  0  0  0  0  0  0  0  0  0  0
   60.7980   32.8440   51.1580 C   0  0  0  0  0  0  0  0  0  0  0  0
   61.3780   33.5830   50.1240 C   0  0  0  0  0  0  0  0  0  0  0  0
   60.6770   33.8000   48.9360 C   0  0  0  0  0  0  0  0  0  0  0  0
   59.3840   33.2860   48.7800 C   0  0  0  0  0  0  0  0  0  0  0  0
   58.5090   33.5790   47.2800 S   0  0  0  0  0  0  0  0  0  0  0  0
   58.5290   35.0550   46.9980 O   0  0  0  0  0  0  0  0  0  0  0  0
   57.0820   33.1270   47.4240 O   0  0  0  0  0  0  0  0  0  0  0  0
   59.2940   32.7020   45.9820 N   0  0  0  0  0  0  0  0  0  0  0  0
   59.2480   31.2390   46.2000 C   0  0  0  0  0  0  0  0  0  0  0  0
   58.1310   30.5520   45.3950 C   0  0  0  0  0  0  0  0  0  0  0  0
   57.0260   31.4160   45.2540 O   0  0  0  0  0  0  0  0  0  0  0  0
   57.3550   32.4990   44.4030 C   0  0  0  0  0  0  0  0  0  0  0  0
   58.7620   33.0890   44.6640 C   0  0  0  0  0  0  0  0  0  0  0  0
   58.8020   32.5470   49.8190 C   0  0  0  0  0  0  0  0  0  0  0  0
  1  2  2  0
  2  3  1  0
  3  4  1  0
  4  5  1  0
  5  6  1  0
  6  7  2  0
  6  8  1  0
  8  9  2  0
  9 10  1  0
 10 11  2  0
 11 12  1  0
 12 13  2  0
 13 14  1  0
  2 15  1  0
 15 16  1  0
 16 17  2  0
 17 18  1  0
 18 19  2  0
 19 20  1  0
 20 21  1  0
 21 22  2  0
 21 23  2  0
 21 24  1  0
 24 25  1  0
 25 26  1  0
 26 27  1  0
 27 28  1  0
 28 29  1  0
 20 30  2  0
 13  8  1  0
 30 16  1  0
 29 24  1  0
M  CHG  3   5  -1  14  -1  15  -1
M  END
>  <UniqueID>  (2548) 
40

>  <SMILES>  (2548) 
O=C(CC[N-]C(=O)c1ccccc1[O-])[N-]c1cccc(S(=O)(=O)N2CCOCC2)c1

>  <Energy>  (2548) 
67.40371649514265

>  <Genealogy>  (2548) 
O=C(CC[N-]C(=O)c1ccccc1[O-])[N-]c1cccc(S(=O)(=O)N2CCOCC2)c1 (protonated)
O=C(CC[N-]C(=O)c1ccccc1[O-])[N-]c1cccc(S(=O)(=O)N2CCOCC2)c1 (3D coordinates assigned)
O=C(CC[N-]C(=O)c1ccccc1[O-])[N-]c1cccc(S(=O)(=O)N2CCOCC2)c1 (nonaromatic ring conformer: 67.40371649514265 kcal/mol)

>  <smiles>  (2548) 
O=C(CCNC(=O)c1ccccc1O)Nc1cccc(S(=O)(=O)N2CCOCC2)c1

>  <score_type>  (2548) 
oracle

>  <origin>  (2548) 
adg

>  <m_score__min__energy>  (2548) 
-16.879999999999999

>  <m_primary>  (2548) 
energy

$$$$
46:0
     RDKit          3D

 33 36  0  0  0  0  0  0  0  0999 V2000
   54.9830   26.3450   45.9800 O   0  0  0  0  0  0  0  0  0  0  0  0
   55.8990   25.3340   46.2480 C   0  0  0  0  0  0  0  0  0  0  0  0
   55.7180   24.3840   47.1810 N   0  0  0  0  0  0  0  0  0  0  0  0
   56.8530   23.6600   47.0880 C   0  0  0  0  0  0  0  0  0  0  0  0
   57.0790   22.6580   47.8160 O   0  0  0  0  0  0  0  0  0  0  0  0
   57.7310   24.1000   46.1610 N   0  0  0  0  0  0  0  0  0  0  0  0
   57.1000   25.1530   45.6100 C   0  0  0  0  0  0  0  0  0  0  0  0
   57.7000   26.0720   44.6290 C   0  0  0  0  0  0  0  0  0  0  0  0
   57.9580   27.3780   44.8300 C   0  0  0  0  0  0  0  0  0  0  0  0
   57.3790   28.3800   44.0680 C   0  0  0  0  0  0  0  0  0  0  0  0
   57.7940   29.5810   44.6020 C   0  0  0  0  0  0  0  0  0  0  0  0
   57.3670   30.9290   44.1030 C   0  0  0  0  0  0  0  0  0  0  0  0
   58.6230   29.3710   45.6490 N   0  0  0  0  0  0  0  0  0  0  0  0
   59.2700   30.4030   46.4160 C   0  0  0  0  0  0  0  0  0  0  0  0
   58.5100   31.3540   47.1110 C   0  0  0  0  0  0  0  0  0  0  0  0
   59.1410   32.3270   47.8920 C   0  0  0  0  0  0  0  0  0  0  0  0
   60.5410   32.3620   47.9860 C   0  0  0  0  0  0  0  0  0  0  0  0
   61.3410   33.5540   49.0220 S   0  0  0  0  0  0  0  0  0  0  0  0
   62.5130   34.1400   48.2840 O   0  0  0  0  0  0  0  0  0  0  0  0
   60.3680   34.6690   49.2880 O   0  0  0  0  0  0  0  0  0  0  0  0
   61.8850   32.9130   50.5620 N   0  0  0  0  0  0  0  0  0  0  0  0
   61.2220   33.5380   51.7200 C   0  0  0  0  0  0  0  0  0  0  0  0
   60.0540   32.7180   52.3110 C   0  0  0  0  0  0  0  0  0  0  0  0
   59.5320   31.7150   51.3680 N   0  0  0  0  0  0  0  0  0  0  0  0
   58.1320   31.3490   51.3560 C   0  0  0  0  0  0  0  0  0  0  0  0
   57.7540   30.3460   50.6870 O   0  0  0  0  0  0  0  0  0  0  0  0
   57.0980   32.1240   52.1170 C   0  0  0  0  0  0  0  0  0  0  0  0
   60.4740   30.8620   50.6310 C   0  0  0  0  0  0  0  0  0  0  0  0
   61.8910   31.4440   50.6230 C   0  0  0  0  0  0  0  0  0  0  0  0
   61.2980   31.3930   47.3110 C   0  0  0  0  0  0  0  0  0  0  0  0
   60.6670   30.4240   46.5260 C   0  0  0  0  0  0  0  0  0  0  0  0
   58.7660   28.0260   45.7790 C   0  0  0  0  0  0  0  0  0  0  0  0
   59.6430   27.4550   46.6190 C   0  0  0  0  0  0  0  0  0  0  0  0
  1  2  1  0
  2  3  1  0
  3  4  1  0
  4  5  2  0
  4  6  1  0
  6  7  1  0
  7  8  1  0
  8  9  2  0
  9 10  1  0
 10 11  2  0
 11 12  1  0
 11 13  1  0
 13 14  1  0
 14 15  2  0
 15 16  1  0
 16 17  2  0
 17 18  1  0
 18 19  2  0
 18 20  2  0
 18 21  1  0
 21 22  1  0
 22 23  1  0
 23 24  1  0
 24 25  1  0
 25 26  2  0
 25 27  1  0
 24 28  1  0
 28 29  1  0
 17 30  1  0
 30 31  2  0
 13 32  1  0
 32 33  2  0
  7  2  2  0
 32  9  1  0
 31 14  1  0
 29 21  1  0
M  CHG  2   3  -1   6  -1
M  END
>  <UniqueID>  (2549) 
44

>  <SMILES>  (2549) 
C=c1/c(=C\c2[n-]c(=O)[n-]c2O)cc(C)n1-c1ccc(S(=O)(=O)N2CCN(C(C)=O)CC2)cc1

>  <Energy>  (2549) 
137.56405652794808

>  <Genealogy>  (2549) 
C=c1c(=Cc2[n-]c(=O)[n-]c2O)cc(C)n1-c1ccc(S(=O)(=O)N2CCN(C(C)=O)CC2)cc1 (protonated)
C=c1/c(=C\c2[n-]c(=O)[n-]c2O)cc(C)n1-c1ccc(S(=O)(=O)N2CCN(C(C)=O)CC2)cc1 (cis-trans isomerization)
C=c1/c(=C\c2[n-]c(=O)[n-]c2O)cc(C)n1-c1ccc(S(=O)(=O)N2CCN(C(C)=O)CC2)cc1 (3D coordinates assigned)
C=c1/c(=C\c2[n-]c(=O)[n-]c2O)cc(C)n1-c1ccc(S(=O)(=O)N2CCN(C(C)=O)CC2)cc1 (nonaromatic ring conformer: 137.56405652794808 kcal/mol)

>  <smiles>  (2549) 
C=c1c(=Cc2[nH]c(=O)[nH]c2O)cc(C)n1-c1ccc(S(=O)(=O)N2CCN(C(C)=O)CC2)cc1

>  <score_type>  (2549) 
oracle

>  <origin>  (2549) 
adg

>  <m_score__min__energy>  (2549) 
-14.02

>  <m_primary>  (2549) 
energy

$$$$
52:0
     RDKit          3D

 29 32  0  0  0  0  0  0  0  0999 V2000
   59.8170   30.0920   46.9350 C   0  0  0  0  0  0  0  0  0  0  0  0
   59.4040   31.1650   46.2430 C   0  0  0  0  0  0  0  0  0  0  0  0
   58.4210   31.2100   45.2410 C   0  0  0  0  0  0  0  0  0  0  0  0
   57.7850   30.2230   44.5800 C   0  0  0  0  0  0  0  0  0  0  0  0
   57.2870   28.9730   45.1780 C   0  0  0  0  0  0  0  0  0  0  0  0
   58.0660   27.9520   45.5780 N   0  0  0  0  0  0  0  0  0  0  0  0
   57.1740   26.9940   45.9160 C   0  0  0  0  0  0  0  0  0  0  0  0
   57.5230   25.8700   46.3630 O   0  0  0  0  0  0  0  0  0  0  0  0
   55.8810   27.3330   45.7280 N   0  0  0  0  0  0  0  0  0  0  0  0
   55.9720   28.5830   45.2470 C   0  0  0  0  0  0  0  0  0  0  0  0
   54.8760   29.3490   44.8720 O   0  0  0  0  0  0  0  0  0  0  0  0
   58.1880   32.5530   44.9860 C   0  0  0  0  0  0  0  0  0  0  0  0
   59.0650   33.2670   45.7750 C   0  0  0  0  0  0  0  0  0  0  0  0
   59.1670   34.7620   45.8170 C   0  0  0  0  0  0  0  0  0  0  0  0
   59.8010   32.4290   46.5330 N   0  0  0  0  0  0  0  0  0  0  0  0
   60.7700   32.8310   47.5160 C   0  0  0  0  0  0  0  0  0  0  0  0
   62.1130   32.9500   47.1420 C   0  0  0  0  0  0  0  0  0  0  0  0
   63.0760   33.3300   48.0780 C   0  0  0  0  0  0  0  0  0  0  0  0
   62.7110   33.5810   49.4080 C   0  0  0  0  0  0  0  0  0  0  0  0
   63.7230   33.9930   50.4000 C   0  0  0  0  0  0  0  0  0  0  0  0
   63.4600   34.9530   51.1750 O   0  0  0  0  0  0  0  0  0  0  0  0
   64.9920   33.3220   50.5080 N   0  0  0  0  0  0  0  0  0  0  0  0
   66.1240   33.8970   51.2150 C   0  0  0  0  0  0  0  0  0  0  0  0
   67.0980   32.7480   51.4460 C   0  0  0  0  0  0  0  0  0  0  0  0
   66.6490   31.6220   50.5180 C   0  0  0  0  0  0  0  0  0  0  0  0
   65.1990   31.9230   50.1660 C   0  0  0  0  0  0  0  0  0  0  0  0
   61.3610   33.4870   49.7800 C   0  0  0  0  0  0  0  0  0  0  0  0
   60.3820   33.1170   48.8430 C   0  0  0  0  0  0  0  0  0  0  0  0
   58.9460   32.9890   49.2700 C   0  0  0  0  0  0  0  0  0  0  0  0
  1  2  2  0
  2  3  1  0
  3  4  2  0
  4  5  1  0
  5  6  1  0
  6  7  1  0
  7  8  2  0
  7  9  1  0
  9 10  1  0
 10 11  1  0
  3 12  1  0
 12 13  2  0
 13 14  1  0
 13 15  1  0
 15 16  1  0
 16 17  2  0
 17 18  1  0
 18 19  2  0
 19 20  1  0
 20 21  2  0
 20 22  1  0
 22 23  1  0
 23 24  1  0
 24 25  1  0
 25 26  1  0
 19 27  1  0
 27 28  2  0
 28 29  1  0
 15  2  1  0
 28 16  1  0
 10  5  2  0
 26 22  1  0
M  CHG  3   6  -1   9  -1  11  -1
M  END
>  <UniqueID>  (2550) 
50

>  <SMILES>  (2550) 
C=c1/c(=C\c2[n-]c(=O)[n-]c2[O-])cc(C)n1-c1ccc(C(=O)N2CCCC2)cc1C

>  <Energy>  (2550) 
131.81243886722092

>  <Genealogy>  (2550) 
C=c1c(=Cc2[n-]c(=O)[n-]c2[O-])cc(C)n1-c1ccc(C(=O)N2CCCC2)cc1C (protonated)
C=c1/c(=C\c2[n-]c(=O)[n-]c2[O-])cc(C)n1-c1ccc(C(=O)N2CCCC2)cc1C (cis-trans isomerization)
C=c1/c(=C\c2[n-]c(=O)[n-]c2[O-])cc(C)n1-c1ccc(C(=O)N2CCCC2)cc1C (3D coordinates assigned)
C=c1/c(=C\c2[n-]c(=O)[n-]c2[O-])cc(C)n1-c1ccc(C(=O)N2CCCC2)cc1C (nonaromatic ring conformer: 131.81243886722092 kcal/mol)

>  <smiles>  (2550) 
C=c1c(=Cc2[nH]c(=O)[nH]c2O)cc(C)n1-c1ccc(C(=O)N2CCCC2)cc1C

>  <score_type>  (2550) 
oracle

>  <origin>  (2550) 
adg

>  <m_score__min__energy>  (2550) 
-15.789999999999999

>  <m_primary>  (2550) 
energy

$$$$
56:0
     RDKit          3D

 28 31  0  0  0  0  0  0  0  0999 V2000
   53.5670   28.8620   54.6980 C   0  0  0  0  0  0  0  0  0  0  0  0
   54.2640   29.4620   53.7200 C   0  0  0  0  0  0  0  0  0  0  0  0
   53.7820   30.3660   52.7570 C   0  0  0  0  0  0  0  0  0  0  0  0
   52.5810   30.9600   52.6170 C   0  0  0  0  0  0  0  0  0  0  0  0
   51.8490   31.1350   51.3550 C   0  0  0  0  0  0  0  0  0  0  0  0
   51.8720   30.2430   50.3490 N   0  0  0  0  0  0  0  0  0  0  0  0
   51.1830   30.8630   49.3660 C   0  0  0  0  0  0  0  0  0  0  0  0
   50.9720   30.3290   48.2450 O   0  0  0  0  0  0  0  0  0  0  0  0
   50.7490   32.1040   49.6730 N   0  0  0  0  0  0  0  0  0  0  0  0
   51.1930   32.2680   50.9300 C   0  0  0  0  0  0  0  0  0  0  0  0
   51.0210   33.4350   51.6650 O   0  0  0  0  0  0  0  0  0  0  0  0
   54.8420   30.6190   51.9000 C   0  0  0  0  0  0  0  0  0  0  0  0
   55.9250   29.9130   52.3810 C   0  0  0  0  0  0  0  0  0  0  0  0
   57.3220   30.0240   51.8500 C   0  0  0  0  0  0  0  0  0  0  0  0
   55.5720   29.1990   53.4720 N   0  0  0  0  0  0  0  0  0  0  0  0
   56.4730   28.4340   54.2900 C   0  0  0  0  0  0  0  0  0  0  0  0
   56.4470   27.1760   54.1900 O   0  0  0  0  0  0  0  0  0  0  0  0
   57.3820   29.0530   55.2440 N   0  0  0  0  0  0  0  0  0  0  0  0
   58.7670   29.0730   54.6880 C   0  0  0  0  0  0  0  0  0  0  0  0
   59.5720   30.3120   55.0960 C   0  0  0  0  0  0  0  0  0  0  0  0
   58.8320   31.5130   54.7000 N   0  0  0  0  0  0  0  0  0  0  0  0
   59.5220   32.6570   54.1590 C   0  0  0  0  0  0  0  0  0  0  0  0
   60.7720   32.7610   54.2920 O   0  0  0  0  0  0  0  0  0  0  0  0
   58.7690   33.7630   53.4730 C   0  0  0  0  0  0  0  0  0  0  0  0
   57.8060   33.2920   52.3930 C   0  0  0  0  0  0  0  0  0  0  0  0
   59.1080   33.9650   52.0030 C   0  0  0  0  0  0  0  0  0  0  0  0
   57.3840   31.5620   54.9330 C   0  0  0  0  0  0  0  0  0  0  0  0
   56.9170   30.3660   55.7750 C   0  0  0  0  0  0  0  0  0  0  0  0
  1  2  2  0
  2  3  1  0
  3  4  2  3
  4  5  1  0
  5  6  1  0
  6  7  1  0
  7  8  2  0
  7  9  1  0
  9 10  1  0
 10 11  1  0
  3 12  1  0
 12 13  2  0
 13 14  1  0
 13 15  1  0
 15 16  1  0
 16 17  2  0
 16 18  1  0
 18 19  1  0
 19 20  1  0
 20 21  1  0
 21 22  1  0
 22 23  2  0
 22 24  1  0
 24 25  1  0
 25 26  1  0
 21 27  1  0
 27 28  1  0
 15  2  1  0
 28 18  1  0
 10  5  2  0
 26 24  1  0
M  CHG  4   6  -1   9  -1  11  -1  18   1
M  END
>  <UniqueID>  (2551) 
53

>  <SMILES>  (2551) 
C=c1c(=Cc2[n-]c(=O)[n-]c2[O-])cc(C)n1C(=O)[NH+]1CCN(C(=O)C2CC2)CC1

>  <Energy>  (2551) 
401.3095317816338

>  <Genealogy>  (2551) 
C=c1c(=Cc2[n-]c(=O)[n-]c2[O-])cc(C)n1C(=O)[NH+]1CCN(C(=O)C2CC2)CC1 (protonated)
C=c1c(=Cc2[n-]c(=O)[n-]c2[O-])cc(C)n1C(=O)[NH+]1CCN(C(=O)C2CC2)CC1 (3D coordinates assigned)
C=c1c(=Cc2[n-]c(=O)[n-]c2[O-])cc(C)n1C(=O)[NH+]1CCN(C(=O)C2CC2)CC1 (nonaromatic ring conformer: 401.3095317816338 kcal/mol)

>  <smiles>  (2551) 
C=c1c(=Cc2[nH]c(=O)[nH]c2O)cc(C)n1C(=O)N1CCN(C(=O)C2CC2)CC1

>  <score_type>  (2551) 
oracle

>  <origin>  (2551) 
adg

>  <m_score__min__energy>  (2551) 
-15.18

>  <m_primary>  (2551) 
energy

$$$$
57:0
     RDKit          3D

 23 25  0  0  0  0  0  0  0  0999 V2000
   58.7790   30.5330   44.6300 C   0  0  0  0  0  0  0  0  0  0  0  0
   58.7250   30.2760   45.9530 C   0  0  0  0  0  0  0  0  0  0  0  0
   58.7830   31.3600   46.8690 C   0  0  0  0  0  0  0  0  0  0  0  0
   58.7280   32.7240   46.4260 N   0  0  0  0  0  0  0  0  0  0  0  0
   57.7260   33.2320   45.5660 C   0  0  0  0  0  0  0  0  0  0  0  0
   56.6540   32.6180   45.3190 O   0  0  0  0  0  0  0  0  0  0  0  0
   58.0850   34.5290   44.9610 C   0  0  0  0  0  0  0  0  0  0  0  0
   59.4410   34.8510   45.6070 C   0  0  0  0  0  0  0  0  0  0  0  0
   59.8970   33.5830   46.3520 C   0  0  0  0  0  0  0  0  0  0  0  0
   58.9550   31.1250   48.1940 N   0  0  0  0  0  0  0  0  0  0  0  0
   59.0790   29.8760   48.7040 C   0  0  0  0  0  0  0  0  0  0  0  0
   59.3330   29.7010   50.1730 C   0  0  0  0  0  0  0  0  0  0  0  0
   58.3230   30.4970   50.9930 C   0  0  0  0  0  0  0  0  0  0  0  0
   58.9980   28.7720   47.8550 C   0  0  0  0  0  0  0  0  0  0  0  0
   58.7250   28.9420   46.4830 C   0  0  0  0  0  0  0  0  0  0  0  0
   58.4520   27.8140   45.7770 C   0  0  0  0  0  0  0  0  0  0  0  0
   57.2470   26.9730   45.9030 C   0  0  0  0  0  0  0  0  0  0  0  0
   57.2530   25.7480   46.4580 N   0  0  0  0  0  0  0  0  0  0  0  0
   55.9490   25.3980   46.4600 C   0  0  0  0  0  0  0  0  0  0  0  0
   55.5450   24.2890   46.8990 O   0  0  0  0  0  0  0  0  0  0  0  0
   55.1100   26.3340   45.9650 N   0  0  0  0  0  0  0  0  0  0  0  0
   55.9440   27.3300   45.6290 C   0  0  0  0  0  0  0  0  0  0  0  0
   55.5200   28.5490   45.1150 O   0  0  0  0  0  0  0  0  0  0  0  0
  1  2  2  0
  2  3  1  0
  3  4  1  0
  4  5  1  0
  5  6  2  0
  5  7  1  0
  7  8  1  0
  8  9  1  0
  3 10  2  0
 10 11  1  0
 11 12  1  0
 12 13  1  0
 11 14  2  0
 14 15  1  0
 15 16  2  0
 16 17  1  0
 17 18  1  0
 18 19  1  0
 19 20  2  0
 19 21  1  0
 21 22  1  0
 22 23  1  0
 15  2  1  0
 22 17  2  0
  9  4  1  0
M  CHG  3  18  -1  21  -1  23  -1
M  END
>  <UniqueID>  (2552) 
54

>  <SMILES>  (2552) 
C=c1c(N2CCCC2=O)nc(CC)c/c1=C/c1[n-]c(=O)[n-]c1[O-]

>  <Energy>  (2552) 
101.42752706704017

>  <Genealogy>  (2552) 
C=c1c(N2CCCC2=O)nc(CC)cc1=Cc1[n-]c(=O)[n-]c1[O-] (protonated)
C=c1c(N2CCCC2=O)nc(CC)c/c1=C/c1[n-]c(=O)[n-]c1[O-] (cis-trans isomerization)
C=c1c(N2CCCC2=O)nc(CC)c/c1=C/c1[n-]c(=O)[n-]c1[O-] (3D coordinates assigned)
C=c1c(N2CCCC2=O)nc(CC)c/c1=C/c1[n-]c(=O)[n-]c1[O-] (nonaromatic ring conformer: 101.42752706704017 kcal/mol)

>  <smiles>  (2552) 
C=c1c(N2CCCC2=O)nc(CC)cc1=Cc1[nH]c(=O)[nH]c1O

>  <score_type>  (2552) 
oracle

>  <origin>  (2552) 
adg

>  <m_score__min__energy>  (2552) 
-15.720000000000001

>  <m_primary>  (2552) 
energy

$$$$
69:0
     RDKit          3D

 28 30  0  0  0  0  0  0  0  0999 V2000
   57.7300   26.2170   47.7110 O   0  0  0  0  0  0  0  0  0  0  0  0
   58.0220   26.4500   46.5070 C   0  0  0  0  0  0  0  0  0  0  0  0
   58.9200   25.5720   45.8170 N   0  0  0  0  0  0  0  0  0  0  0  0
   58.7990   24.1180   45.8310 C   0  0  0  0  0  0  0  0  0  0  0  0
   57.4260   23.7080   45.3730 C   0  0  0  0  0  0  0  0  0  0  0  0
   56.3150   23.9320   46.2020 C   0  0  0  0  0  0  0  0  0  0  0  0
   55.0330   23.5810   45.7720 C   0  0  0  0  0  0  0  0  0  0  0  0
   54.8490   23.0100   44.5090 C   0  0  0  0  0  0  0  0  0  0  0  0
   55.9510   22.7890   43.6720 C   0  0  0  0  0  0  0  0  0  0  0  0
   55.7790   22.2290   42.4070 O   0  0  0  0  0  0  0  0  0  0  0  0
   57.2350   23.1360   44.1050 C   0  0  0  0  0  0  0  0  0  0  0  0
   57.4410   27.6300   45.8110 C   0  0  0  0  0  0  0  0  0  0  0  0
   56.0570   27.7300   45.6000 C   0  0  0  0  0  0  0  0  0  0  0  0
   55.1910   26.7190   46.0060 O   0  0  0  0  0  0  0  0  0  0  0  0
   55.5420   28.8160   44.9790 N   0  0  0  0  0  0  0  0  0  0  0  0
   56.3290   29.8280   44.5430 C   0  0  0  0  0  0  0  0  0  0  0  0
   55.7880   30.8130   43.9710 O   0  0  0  0  0  0  0  0  0  0  0  0
   57.6890   29.7780   44.7230 N   0  0  0  0  0  0  0  0  0  0  0  0
   58.5310   30.9040   44.2680 C   0  0  0  0  0  0  0  0  0  0  0  0
   58.5370   32.0140   45.2910 C   0  0  0  0  0  0  0  0  0  0  0  0
   58.3710   31.7110   46.6540 C   0  0  0  0  0  0  0  0  0  0  0  0
   58.3490   32.7310   47.6090 C   0  0  0  0  0  0  0  0  0  0  0  0
   58.4940   34.0620   47.2160 C   0  0  0  0  0  0  0  0  0  0  0  0
   58.6630   34.3760   45.8660 C   0  0  0  0  0  0  0  0  0  0  0  0
   58.6840   33.3610   44.9030 C   0  0  0  0  0  0  0  0  0  0  0  0
   58.8580   33.6940   43.6000 F   0  0  0  0  0  0  0  0  0  0  0  0
   58.2490   28.6950   45.3570 C   0  0  0  0  0  0  0  0  0  0  0  0
   59.4970   28.6540   45.5490 O   0  0  0  0  0  0  0  0  0  0  0  0
  1  2  2  0
  2  3  1  0
  3  4  1  0
  4  5  1  0
  5  6  2  0
  6  7  1  0
  7  8  2  0
  8  9  1  0
  9 10  1  0
  9 11  2  0
  2 12  1  0
 12 13  2  0
 13 14  1  0
 13 15  1  0
 15 16  1  0
 16 17  2  0
 16 18  1  0
 18 19  1  0
 19 20  1  0
 20 21  2  0
 21 22  1  0
 22 23  2  0
 23 24  1  0
 24 25  2  0
 25 26  1  0
 18 27  1  0
 27 28  2  0
 11  5  1  0
 27 12  1  0
 25 20  1  0
M  CHG  3   3  -1  14  -1  15  -1
M  END
>  <UniqueID>  (2553) 
64

>  <SMILES>  (2553) 
O=C([N-]Cc1cccc(O)c1)c1c([O-])[n-]c(=O)n(Cc2ccccc2F)c1=O

>  <Energy>  (2553) 
50.6107005279638

>  <Genealogy>  (2553) 
O=C([N-]Cc1cccc(O)c1)c1c([O-])[n-]c(=O)n(Cc2ccccc2F)c1=O (protonated)
O=C([N-]Cc1cccc(O)c1)c1c([O-])[n-]c(=O)n(Cc2ccccc2F)c1=O (3D coordinates assigned)
O=C([N-]Cc1cccc(O)c1)c1c([O-])[n-]c(=O)n(Cc2ccccc2F)c1=O (optimized conformer: 50.6107005279638 kcal/mol)

>  <smiles>  (2553) 
O=C(NCc1cccc(O)c1)c1c(O)[nH]c(=O)n(Cc2ccccc2F)c1=O

>  <score_type>  (2553) 
oracle

>  <origin>  (2553) 
adg

>  <m_score__min__energy>  (2553) 
-15.06

>  <m_primary>  (2553) 
energy

$$$$
71:0
     RDKit          3D

 33 35  0  0  0  0  0  0  0  0999 V2000
   50.2970   25.0500   43.9980 C   0  0  0  0  0  0  0  0  0  0  0  0
   51.2710   23.9640   43.6680 C   0  0  0  0  0  0  0  0  0  0  0  0
   51.6880   23.8380   42.4840 O   0  0  0  0  0  0  0  0  0  0  0  0
   51.7990   23.1460   44.7200 N   0  0  0  0  0  0  0  0  0  0  0  0
   53.1190   23.2400   45.2830 C   0  0  0  0  0  0  0  0  0  0  0  0
   53.3730   22.9400   46.6330 C   0  0  0  0  0  0  0  0  0  0  0  0
   54.6660   23.0690   47.1540 C   0  0  0  0  0  0  0  0  0  0  0  0
   55.7210   23.5020   46.3330 C   0  0  0  0  0  0  0  0  0  0  0  0
   57.0810   23.6560   46.8820 C   0  0  0  0  0  0  0  0  0  0  0  0
   57.7650   22.6310   47.0970 O   0  0  0  0  0  0  0  0  0  0  0  0
   57.6270   24.9430   47.2100 N   0  0  0  0  0  0  0  0  0  0  0  0
   57.0810   26.2100   46.7340 C   0  0  0  0  0  0  0  0  0  0  0  0
   57.6400   26.5070   45.3760 C   0  0  0  0  0  0  0  0  0  0  0  0
   57.8410   25.5520   44.5790 O   0  0  0  0  0  0  0  0  0  0  0  0
   57.9990   27.8340   44.9680 N   0  0  0  0  0  0  0  0  0  0  0  0
   57.3740   28.6120   43.9010 C   0  0  0  0  0  0  0  0  0  0  0  0
   56.6280   29.8050   44.4370 C   0  0  0  0  0  0  0  0  0  0  0  0
   55.6200   30.2260   43.8090 O   0  0  0  0  0  0  0  0  0  0  0  0
   57.0440   30.4980   45.6220 N   0  0  0  0  0  0  0  0  0  0  0  0
   57.7960   31.7150   45.6150 C   0  0  0  0  0  0  0  0  0  0  0  0
   57.3730   32.7800   44.8090 C   0  0  0  0  0  0  0  0  0  0  0  0
   58.0890   33.9780   44.7920 C   0  0  0  0  0  0  0  0  0  0  0  0
   59.2420   34.1150   45.5680 C   0  0  0  0  0  0  0  0  0  0  0  0
   59.6830   33.0510   46.3580 C   0  0  0  0  0  0  0  0  0  0  0  0
   58.9670   31.8420   46.3880 C   0  0  0  0  0  0  0  0  0  0  0  0
   59.4810   30.7260   47.1400 N   0  0  0  0  0  0  0  0  0  0  0  0
   59.9980   29.5620   46.4060 C   0  0  0  0  0  0  0  0  0  0  0  0
   60.3670   28.4280   47.3490 C   0  0  0  0  0  0  0  0  0  0  0  0
   59.3570   28.2760   48.3150 O   0  0  0  0  0  0  0  0  0  0  0  0
   59.4500   29.3330   49.2460 C   0  0  0  0  0  0  0  0  0  0  0  0
   59.2480   30.7190   48.5960 C   0  0  0  0  0  0  0  0  0  0  0  0
   55.4610   23.8340   44.9930 C   0  0  0  0  0  0  0  0  0  0  0  0
   54.1690   23.7010   44.4710 C   0  0  0  0  0  0  0  0  0  0  0  0
  1  2  1  0
  2  3  2  0
  2  4  1  0
  4  5  1  0
  5  6  2  0
  6  7  1  0
  7  8  2  0
  8  9  1  0
  9 10  2  0
  9 11  1  0
 11 12  1  0
 12 13  1  0
 13 14  2  0
 13 15  1  0
 15 16  1  0
 16 17  1  0
 17 18  2  0
 17 19  1  0
 19 20  1  0
 20 21  2  0
 21 22  1  0
 22 23  2  0
 23 24  1  0
 24 25  2  0
 25 26  1  0
 26 27  1  0
 27 28  1  0
 28 29  1  0
 29 30  1  0
 30 31  1  0
  8 32  1  0
 32 33  2  0
 33  5  1  0
 25 20  1  0
 31 26  1  0
M  CHG  4   4  -1  11  -1  15  -1  19  -1
M  END
>  <UniqueID>  (2554) 
66

>  <SMILES>  (2554) 
CC(=O)[N-]c1ccc(C(=O)[N-]CC(=O)[N-]CC(=O)[N-]c2ccccc2N2CCOCC2)cc1

>  <Energy>  (2554) 
75.5450544953463

>  <Genealogy>  (2554) 
CC(=O)[N-]c1ccc(C(=O)[N-]CC(=O)[N-]CC(=O)[N-]c2ccccc2N2CCOCC2)cc1 (protonated)
CC(=O)[N-]c1ccc(C(=O)[N-]CC(=O)[N-]CC(=O)[N-]c2ccccc2N2CCOCC2)cc1 (3D coordinates assigned)
CC(=O)[N-]c1ccc(C(=O)[N-]CC(=O)[N-]CC(=O)[N-]c2ccccc2N2CCOCC2)cc1 (nonaromatic ring conformer: 75.5450544953463 kcal/mol)

>  <smiles>  (2554) 
CC(=O)Nc1ccc(C(=O)NCC(=O)NCC(=O)Nc2ccccc2N2CCOCC2)cc1

>  <score_type>  (2554) 
oracle

>  <origin>  (2554) 
adg

>  <m_score__min__energy>  (2554) 
-14.65

>  <m_primary>  (2554) 
energy

$$$$
81:0
     RDKit          3D

 30 33  0  0  0  0  0  0  0  0999 V2000
   53.5090   28.2450   53.1780 C   0  0  0  0  0  0  0  0  0  0  0  0
   54.4940   29.1530   53.0700 C   0  0  0  0  0  0  0  0  0  0  0  0
   54.3750   30.4760   52.6140 C   0  0  0  0  0  0  0  0  0  0  0  0
   53.2890   31.2370   52.3770 C   0  0  0  0  0  0  0  0  0  0  0  0
   52.4570   31.1900   51.1630 C   0  0  0  0  0  0  0  0  0  0  0  0
   52.4910   30.2050   50.2470 N   0  0  0  0  0  0  0  0  0  0  0  0
   51.4750   30.5170   49.4140 C   0  0  0  0  0  0  0  0  0  0  0  0
   51.1920   29.8270   48.4010 O   0  0  0  0  0  0  0  0  0  0  0  0
   50.7780   31.6210   49.7610 N   0  0  0  0  0  0  0  0  0  0  0  0
   51.4050   32.0250   50.8780 C   0  0  0  0  0  0  0  0  0  0  0  0
   51.0190   33.1310   51.6230 O   0  0  0  0  0  0  0  0  0  0  0  0
   55.6660   30.9420   52.4450 C   0  0  0  0  0  0  0  0  0  0  0  0
   56.5130   29.9440   52.8750 C   0  0  0  0  0  0  0  0  0  0  0  0
   57.9840   30.0730   52.9080 C   0  0  0  0  0  0  0  0  0  0  0  0
   58.5820   29.8390   53.9930 O   0  0  0  0  0  0  0  0  0  0  0  0
   58.7430   30.4280   51.7350 N   0  0  0  0  0  0  0  0  0  0  0  0
   58.3040   30.0080   50.3950 C   0  0  0  0  0  0  0  0  0  0  0  0
   58.5750   31.1200   49.3760 C   0  0  0  0  0  0  0  0  0  0  0  0
   59.9320   31.6700   49.5210 N   0  0  0  0  0  0  0  0  0  0  0  0
   60.4650   32.5070   48.4780 C   0  0  0  0  0  0  0  0  0  0  0  0
   61.8360   32.4600   48.1670 C   0  0  0  0  0  0  0  0  0  0  0  0
   62.3590   33.2640   47.1510 C   0  0  0  0  0  0  0  0  0  0  0  0
   61.5210   34.1240   46.4380 C   0  0  0  0  0  0  0  0  0  0  0  0
   60.1590   34.1830   46.7420 C   0  0  0  0  0  0  0  0  0  0  0  0
   59.6280   33.3810   47.7580 C   0  0  0  0  0  0  0  0  0  0  0  0
   58.3110   33.4870   48.0610 F   0  0  0  0  0  0  0  0  0  0  0  0
   60.8200   31.1750   50.5790 C   0  0  0  0  0  0  0  0  0  0  0  0
   60.0590   31.0620   51.9060 C   0  0  0  0  0  0  0  0  0  0  0  0
   55.8060   28.8510   53.2480 N   0  0  0  0  0  0  0  0  0  0  0  0
   56.3530   27.5350   53.6030 C   0  0  0  0  0  0  0  0  0  0  0  0
  1  2  2  0
  2  3  1  0
  3  4  2  3
  4  5  1  0
  5  6  1  0
  6  7  1  0
  7  8  2  0
  7  9  1  0
  9 10  1  0
 10 11  1  0
  3 12  1  0
 12 13  2  0
 13 14  1  0
 14 15  2  0
 14 16  1  0
 16 17  1  0
 17 18  1  0
 18 19  1  0
 19 20  1  0
 20 21  2  0
 21 22  1  0
 22 23  2  0
 23 24  1  0
 24 25  2  0
 25 26  1  0
 19 27  1  0
 27 28  1  0
 13 29  1  0
 29 30  1  0
 29  2  1  0
 10  5  2  0
 28 16  1  0
 25 20  1  0
M  CHG  3   6  -1   9  -1  11  -1
M  END
>  <UniqueID>  (2555) 
76

>  <SMILES>  (2555) 
C=c1c(=Cc2[n-]c(=O)[n-]c2[O-])cc(C(=O)N2CCN(c3ccccc3F)CC2)n1C

>  <Energy>  (2555) 
131.8460993444557

>  <Genealogy>  (2555) 
C=c1c(=Cc2[n-]c(=O)[n-]c2[O-])cc(C(=O)N2CCN(c3ccccc3F)CC2)n1C (protonated)
C=c1c(=Cc2[n-]c(=O)[n-]c2[O-])cc(C(=O)N2CCN(c3ccccc3F)CC2)n1C (3D coordinates assigned)
C=c1c(=Cc2[n-]c(=O)[n-]c2[O-])cc(C(=O)N2CCN(c3ccccc3F)CC2)n1C (nonaromatic ring conformer: 131.8460993444557 kcal/mol)

>  <smiles>  (2555) 
C=c1c(=Cc2[nH]c(=O)[nH]c2O)cc(C(=O)N2CCN(c3ccccc3F)CC2)n1C

>  <score_type>  (2555) 
oracle

>  <origin>  (2555) 
adg

>  <m_score__min__energy>  (2555) 
-17.5

>  <m_primary>  (2555) 
energy

$$$$
2:0
     RDKit          3D

 28 31  0  0  0  0  0  0  0  0999 V2000
   56.6940   30.7880   42.4040 C   0  0  0  0  0  0  0  0  0  0  0  0
   57.1970   30.9980   43.6240 C   0  0  0  0  0  0  0  0  0  0  0  0
   58.0850   32.3680   44.0240 S   0  0  0  0  0  0  0  0  0  0  0  0
   58.3430   31.9660   45.6330 C   0  0  0  0  0  0  0  0  0  0  0  0
   59.1410   32.7660   46.5820 C   0  0  0  0  0  0  0  0  0  0  0  0
   58.5700   33.6850   47.2290 O   0  0  0  0  0  0  0  0  0  0  0  0
   60.5490   32.5330   46.7790 N   0  0  0  0  0  0  0  0  0  0  0  0
   61.4310   33.6850   47.0190 C   0  0  0  0  0  0  0  0  0  0  0  0
   62.8860   33.2480   47.1940 C   0  0  0  0  0  0  0  0  0  0  0  0
   62.9490   32.1270   48.1420 N   0  0  0  0  0  0  0  0  0  0  0  0
   63.8240   32.1820   49.2830 C   0  0  0  0  0  0  0  0  0  0  0  0
   63.6050   31.3440   50.3910 C   0  0  0  0  0  0  0  0  0  0  0  0
   64.4490   31.4090   51.5040 C   0  0  0  0  0  0  0  0  0  0  0  0
   65.5140   32.3120   51.5240 C   0  0  0  0  0  0  0  0  0  0  0  0
   65.7380   33.1530   50.4310 C   0  0  0  0  0  0  0  0  0  0  0  0
   64.8970   33.0910   49.3160 C   0  0  0  0  0  0  0  0  0  0  0  0
   62.0490   30.9750   47.9720 C   0  0  0  0  0  0  0  0  0  0  0  0
   61.0980   31.1670   46.7840 C   0  0  0  0  0  0  0  0  0  0  0  0
   57.7570   30.7300   45.8800 C   0  0  0  0  0  0  0  0  0  0  0  0
   57.0880   30.1770   44.7650 C   0  0  0  0  0  0  0  0  0  0  0  0
   56.4640   28.9800   44.7860 C   0  0  0  0  0  0  0  0  0  0  0  0
   56.9270   27.8120   45.5590 C   0  0  0  0  0  0  0  0  0  0  0  0
   58.2260   27.5220   45.7510 N   0  0  0  0  0  0  0  0  0  0  0  0
   58.1890   26.3470   46.4160 C   0  0  0  0  0  0  0  0  0  0  0  0
   59.2310   25.7480   46.7930 O   0  0  0  0  0  0  0  0  0  0  0  0
   56.9510   25.8570   46.6340 N   0  0  0  0  0  0  0  0  0  0  0  0
   56.1630   26.7890   46.0750 C   0  0  0  0  0  0  0  0  0  0  0  0
   54.7790   26.6810   46.0020 O   0  0  0  0  0  0  0  0  0  0  0  0
  1  2  2  0
  2  3  1  0
  3  4  1  0
  4  5  1  0
  5  6  2  0
  5  7  1  0
  7  8  1  0
  8  9  1  0
  9 10  1  0
 10 11  1  0
 11 12  2  0
 12 13  1  0
 13 14  2  0
 14 15  1  0
 15 16  2  0
 10 17  1  0
 17 18  1  0
  4 19  2  0
 19 20  1  0
 20 21  2  0
 21 22  1  0
 22 23  1  0
 23 24  1  0
 24 25  2  0
 24 26  1  0
 26 27  1  0
 27 28  1  0
 20  2  1  0
 27 22  2  0
 18  7  1  0
 16 11  1  0
M  CHG  3  23  -1  26  -1  28  -1
M  END
>  <UniqueID>  (2556) 
3

>  <SMILES>  (2556) 
C=c1sc(C(=O)N2CCN(c3ccccc3)CC2)c/c1=C\c1[n-]c(=O)[n-]c1[O-]

>  <Energy>  (2556) 
120.30102680887423

>  <Genealogy>  (2556) 
C=c1sc(C(=O)N2CCN(c3ccccc3)CC2)cc1=Cc1[n-]c(=O)[n-]c1[O-] (protonated)
C=c1sc(C(=O)N2CCN(c3ccccc3)CC2)c/c1=C\c1[n-]c(=O)[n-]c1[O-] (cis-trans isomerization)
C=c1sc(C(=O)N2CCN(c3ccccc3)CC2)c/c1=C\c1[n-]c(=O)[n-]c1[O-] (3D coordinates assigned)
C=c1sc(C(=O)N2CCN(c3ccccc3)CC2)c/c1=C\c1[n-]c(=O)[n-]c1[O-] (nonaromatic ring conformer: 120.30102680887423 kcal/mol)

>  <smiles>  (2556) 
C=c1sc(C(=O)N2CCN(c3ccccc3)CC2)cc1=Cc1[nH]c(=O)[nH]c1O

>  <score_type>  (2556) 
oracle

>  <origin>  (2556) 
adg

>  <m_score__min__energy>  (2556) 
-17.800000000000001

>  <m_primary>  (2556) 
energy

$$$$
6:0
     RDKit          3D

 27 30  0  0  0  0  0  0  0  0999 V2000
   55.9470   31.9810   52.3530 C   0  0  0  0  0  0  0  0  0  0  0  0
   55.4550   30.7900   52.7320 C   0  0  0  0  0  0  0  0  0  0  0  0
   54.1020   30.4420   52.7990 C   0  0  0  0  0  0  0  0  0  0  0  0
   53.0410   31.2370   52.5620 C   0  0  0  0  0  0  0  0  0  0  0  0
   52.3150   31.2760   51.2800 C   0  0  0  0  0  0  0  0  0  0  0  0
   52.3650   30.0500   50.1270 S   0  0  0  0  0  0  0  0  0  0  0  0
   51.2420   30.8160   49.1390 C   0  0  0  0  0  0  0  0  0  0  0  0
   50.8450   30.3640   48.0350 O   0  0  0  0  0  0  0  0  0  0  0  0
   50.7940   31.9760   49.6630 N   0  0  0  0  0  0  0  0  0  0  0  0
   51.3800   32.2270   50.8630 C   0  0  0  0  0  0  0  0  0  0  0  0
   51.0270   33.3340   51.6240 O   0  0  0  0  0  0  0  0  0  0  0  0
   54.0600   29.1180   53.2130 C   0  0  0  0  0  0  0  0  0  0  0  0
   55.3700   28.7110   53.3690 C   0  0  0  0  0  0  0  0  0  0  0  0
   55.7810   27.3400   53.8130 C   0  0  0  0  0  0  0  0  0  0  0  0
   56.2220   29.7260   53.0910 N   0  0  0  0  0  0  0  0  0  0  0  0
   57.6890   29.6460   53.1120 C   0  0  0  0  0  0  0  0  0  0  0  0
   58.2480   30.1490   51.8180 C   0  0  0  0  0  0  0  0  0  0  0  0
   57.8200   29.7870   50.6340 O   0  0  0  0  0  0  0  0  0  0  0  0
   58.5250   30.3760   49.7120 N   0  0  0  0  0  0  0  0  0  0  0  0
   59.4270   31.1310   50.3770 C   0  0  0  0  0  0  0  0  0  0  0  0
   60.4440   31.9760   49.7050 C   0  0  0  0  0  0  0  0  0  0  0  0
   61.5650   31.4080   49.0680 C   0  0  0  0  0  0  0  0  0  0  0  0
   62.5110   32.2240   48.4410 C   0  0  0  0  0  0  0  0  0  0  0  0
   62.3530   33.6120   48.4390 C   0  0  0  0  0  0  0  0  0  0  0  0
   61.2450   34.1860   49.0670 C   0  0  0  0  0  0  0  0  0  0  0  0
   60.2960   33.3770   49.6960 C   0  0  0  0  0  0  0  0  0  0  0  0
   59.2770   31.0070   51.7130 N   0  0  0  0  0  0  0  0  0  0  0  0
  1  2  2  0
  2  3  1  0
  3  4  2  0
  4  5  1  0
  5  6  1  0
  6  7  1  0
  7  8  2  0
  7  9  1  0
  9 10  1  0
 10 11  1  0
  3 12  1  0
 12 13  2  0
 13 14  1  0
 13 15  1  0
 15 16  1  0
 16 17  1  0
 17 18  1  0
 18 19  1  0
 19 20  2  0
 20 21  1  0
 21 22  2  0
 22 23  1  0
 23 24  2  0
 24 25  1  0
 25 26  2  0
 20 27  1  0
 15  2  1  0
 27 17  2  0
 10  5  2  0
 26 21  1  0
M  CHG  3   9  -1  11  -1  27   1
M  END
>  <UniqueID>  (2557) 
7

>  <SMILES>  (2557) 
C=c1/c(=C/c2sc(=O)[n-]c2[O-])cc(C)n1Cc1[nH+]c(-c2ccccc2)no1

>  <Energy>  (2557) 
147.25866361990353

>  <Genealogy>  (2557) 
C=c1c(=Cc2sc(=O)[n-]c2[O-])cc(C)n1Cc1[nH+]c(-c2ccccc2)no1 (protonated)
C=c1/c(=C/c2sc(=O)[n-]c2[O-])cc(C)n1Cc1[nH+]c(-c2ccccc2)no1 (cis-trans isomerization)
C=c1/c(=C/c2sc(=O)[n-]c2[O-])cc(C)n1Cc1[nH+]c(-c2ccccc2)no1 (3D coordinates assigned)
C=c1/c(=C/c2sc(=O)[n-]c2[O-])cc(C)n1Cc1[nH+]c(-c2ccccc2)no1 (optimized conformer: 147.25866361990353 kcal/mol)

>  <smiles>  (2557) 
C=c1c(=Cc2sc(=O)[nH]c2O)cc(C)n1Cc1nc(-c2ccccc2)no1

>  <score_type>  (2557) 
oracle

>  <origin>  (2557) 
adg

>  <m_score__min__energy>  (2557) 
-14.17

>  <m_primary>  (2557) 
energy

$$$$
23:0
     RDKit          3D

 27 29  0  0  0  0  0  0  0  0999 V2000
   54.7270   31.2130   51.7060 C   0  0  0  0  0  0  0  0  0  0  0  0
   54.4830   30.1910   52.5430 C   0  0  0  0  0  0  0  0  0  0  0  0
   53.2310   29.8140   53.0490 C   0  0  0  0  0  0  0  0  0  0  0  0
   52.0380   30.3800   52.7620 C   0  0  0  0  0  0  0  0  0  0  0  0
   51.5720   30.7800   51.4150 C   0  0  0  0  0  0  0  0  0  0  0  0
   51.6790   30.0510   50.2900 N   0  0  0  0  0  0  0  0  0  0  0  0
   51.1550   30.8530   49.3400 C   0  0  0  0  0  0  0  0  0  0  0  0
   51.0750   30.5100   48.1320 O   0  0  0  0  0  0  0  0  0  0  0  0
   50.7260   32.0520   49.7850 N   0  0  0  0  0  0  0  0  0  0  0  0
   51.0010   31.9920   51.0980 C   0  0  0  0  0  0  0  0  0  0  0  0
   50.7360   33.0240   51.9890 O   0  0  0  0  0  0  0  0  0  0  0  0
   53.4720   28.7630   53.9260 C   0  0  0  0  0  0  0  0  0  0  0  0
   54.8320   28.5340   53.9100 C   0  0  0  0  0  0  0  0  0  0  0  0
   55.5250   27.4800   54.7200 C   0  0  0  0  0  0  0  0  0  0  0  0
   55.4490   29.3940   53.0690 N   0  0  0  0  0  0  0  0  0  0  0  0
   56.8610   29.4240   52.7900 C   0  0  0  0  0  0  0  0  0  0  0  0
   57.6680   28.8920   53.6010 O   0  0  0  0  0  0  0  0  0  0  0  0
   57.3390   29.9830   51.5570 N   0  0  0  0  0  0  0  0  0  0  0  0
   58.7140   30.3200   51.3040 C   0  0  0  0  0  0  0  0  0  0  0  0
   59.3560   31.2520   52.1300 C   0  0  0  0  0  0  0  0  0  0  0  0
   60.6980   31.5810   51.9200 C   0  0  0  0  0  0  0  0  0  0  0  0
   61.4340   30.9710   50.8870 C   0  0  0  0  0  0  0  0  0  0  0  0
   62.8620   31.3320   50.6750 C   0  0  0  0  0  0  0  0  0  0  0  0
   63.3680   31.2370   49.5240 O   0  0  0  0  0  0  0  0  0  0  0  0
   63.7320   31.8150   51.7970 C   0  0  0  0  0  0  0  0  0  0  0  0
   60.7910   30.0170   50.0740 C   0  0  0  0  0  0  0  0  0  0  0  0
   59.4480   29.6910   50.2850 C   0  0  0  0  0  0  0  0  0  0  0  0
  1  2  2  0
  2  3  1  0
  3  4  2  0
  4  5  1  0
  5  6  1  0
  6  7  1  0
  7  8  2  0
  7  9  1  0
  9 10  1  0
 10 11  1  0
  3 12  1  0
 12 13  2  0
 13 14  1  0
 13 15  1  0
 15 16  1  0
 16 17  2  0
 16 18  1  0
 18 19  1  0
 19 20  2  0
 20 21  1  0
 21 22  2  0
 22 23  1  0
 23 24  2  0
 23 25  1  0
 22 26  1  0
 26 27  2  0
 15  2  1  0
 27 19  1  0
 10  5  2  0
M  CHG  3   6  -1   9  -1  11  -1
M  END
>  <UniqueID>  (2558) 
24

>  <SMILES>  (2558) 
C=c1/c(=C/c2[n-]c(=O)[n-]c2[O-])cc(C)n1C(=O)Nc1ccc(C(C)=O)cc1

>  <Energy>  (2558) 
114.77393836687372

>  <Genealogy>  (2558) 
C=c1c(=Cc2[n-]c(=O)[n-]c2[O-])cc(C)n1C(=O)Nc1ccc(C(C)=O)cc1 (protonated)
C=c1/c(=C/c2[n-]c(=O)[n-]c2[O-])cc(C)n1C(=O)Nc1ccc(C(C)=O)cc1 (cis-trans isomerization)
C=c1/c(=C/c2[n-]c(=O)[n-]c2[O-])cc(C)n1C(=O)Nc1ccc(C(C)=O)cc1 (3D coordinates assigned)
C=c1/c(=C/c2[n-]c(=O)[n-]c2[O-])cc(C)n1C(=O)Nc1ccc(C(C)=O)cc1 (optimized conformer: 114.77393836687372 kcal/mol)

>  <smiles>  (2558) 
C=c1c(=Cc2[nH]c(=O)[nH]c2O)cc(C)n1C(=O)Nc1ccc(C(C)=O)cc1

>  <score_type>  (2558) 
oracle

>  <origin>  (2558) 
adg

>  <m_score__min__energy>  (2558) 
-15.640000000000001

>  <m_primary>  (2558) 
energy

$$$$
69:0
     RDKit          3D

 32 35  0  0  0  0  0  0  0  0999 V2000
   58.9850   28.9890   48.6020 C   0  0  0  0  0  0  0  0  0  0  0  0
   60.2190   29.6200   49.0540 N   0  0  0  0  0  0  0  0  0  0  0  0
   60.8250   30.6160   48.4150 N   0  0  0  0  0  0  0  0  0  0  0  0
   61.9450   30.8770   49.1300 C   0  0  0  0  0  0  0  0  0  0  0  0
   62.8930   31.8810   48.8870 C   0  0  0  0  0  0  0  0  0  0  0  0
   62.7970   32.7920   47.7280 C   0  0  0  0  0  0  0  0  0  0  0  0
   63.7740   33.5370   47.4410 O   0  0  0  0  0  0  0  0  0  0  0  0
   61.6120   32.8270   46.9200 N   0  0  0  0  0  0  0  0  0  0  0  0
   61.3420   33.9420   46.0120 C   0  0  0  0  0  0  0  0  0  0  0  0
   59.8730   34.3800   46.0730 C   0  0  0  0  0  0  0  0  0  0  0  0
   58.9400   33.2890   45.6090 C   0  0  0  0  0  0  0  0  0  0  0  0
   58.4050   33.3150   44.3120 C   0  0  0  0  0  0  0  0  0  0  0  0
   57.5570   32.2960   43.8740 C   0  0  0  0  0  0  0  0  0  0  0  0
   57.2320   31.2230   44.7240 C   0  0  0  0  0  0  0  0  0  0  0  0
   56.3410   30.1380   44.2540 C   0  0  0  0  0  0  0  0  0  0  0  0
   55.9600   30.1110   43.0520 O   0  0  0  0  0  0  0  0  0  0  0  0
   55.9640   29.0810   45.1490 N   0  0  0  0  0  0  0  0  0  0  0  0
   56.7840   27.9680   45.5380 C   0  0  0  0  0  0  0  0  0  0  0  0
   58.1880   28.0230   45.4580 C   0  0  0  0  0  0  0  0  0  0  0  0
   58.9580   26.9140   45.8240 C   0  0  0  0  0  0  0  0  0  0  0  0
   58.3350   25.7420   46.2610 C   0  0  0  0  0  0  0  0  0  0  0  0
   56.9410   25.6730   46.3210 C   0  0  0  0  0  0  0  0  0  0  0  0
   56.1660   26.7780   45.9530 C   0  0  0  0  0  0  0  0  0  0  0  0
   54.7790   26.6940   46.0090 O   0  0  0  0  0  0  0  0  0  0  0  0
   57.7750   31.1980   46.0220 C   0  0  0  0  0  0  0  0  0  0  0  0
   58.6190   32.2220   46.4600 C   0  0  0  0  0  0  0  0  0  0  0  0
   63.9390   32.0090   49.8250 C   0  0  0  0  0  0  0  0  0  0  0  0
   64.0240   31.1440   50.9350 C   0  0  0  0  0  0  0  0  0  0  0  0
   63.0500   30.1510   51.1150 C   0  0  0  0  0  0  0  0  0  0  0  0
   62.0520   30.0710   50.2030 N   0  0  0  0  0  0  0  0  0  0  0  0
   60.9670   29.2880   50.1260 C   0  0  0  0  0  0  0  0  0  0  0  0
   60.6830   28.3740   50.9460 O   0  0  0  0  0  0  0  0  0  0  0  0
  1  2  1  0
  2  3  1  0
  3  4  2  0
  4  5  1  0
  5  6  1  0
  6  7  2  0
  6  8  1  0
  8  9  1  0
  9 10  1  0
 10 11  1  0
 11 12  2  0
 12 13  1  0
 13 14  2  0
 14 15  1  0
 15 16  2  0
 15 17  1  0
 17 18  1  0
 18 19  2  0
 19 20  1  0
 20 21  2  0
 21 22  1  0
 22 23  2  0
 23 24  1  0
 14 25  1  0
 25 26  2  0
  5 27  2  0
 27 28  1  0
 28 29  2  0
 29 30  1  0
 30 31  1  0
 31 32  2  0
 31  2  1  0
 30  4  1  0
 26 11  1  0
 23 18  1  0
M  CHG  2  17  -1  24  -1
M  END
>  <UniqueID>  (2559) 
67

>  <SMILES>  (2559) 
Cn1nc2c(C(=O)NCCc3ccc(C(=O)[N-]c4ccccc4[O-])cc3)cccn2c1=O

>  <Energy>  (2559) 
99.80566271891102

>  <Genealogy>  (2559) 
Cn1nc2c(C(=O)NCCc3ccc(C(=O)[N-]c4ccccc4[O-])cc3)cccn2c1=O (protonated)
Cn1nc2c(C(=O)NCCc3ccc(C(=O)[N-]c4ccccc4[O-])cc3)cccn2c1=O (3D coordinates assigned)
Cn1nc2c(C(=O)NCCc3ccc(C(=O)[N-]c4ccccc4[O-])cc3)cccn2c1=O (optimized conformer: 99.80566271891102 kcal/mol)

>  <smiles>  (2559) 
Cn1nc2c(C(=O)NCCc3ccc(C(=O)Nc4ccccc4O)cc3)cccn2c1=O

>  <score_type>  (2559) 
oracle

>  <origin>  (2559) 
adg

>  <m_score__min__energy>  (2559) 
-15.23

>  <m_primary>  (2559) 
energy

$$$$
72:0
     RDKit          3D

 28 32  0  0  0  0  0  0  0  0999 V2000
   57.6680   27.9930   44.1210 C   0  0  0  0  0  0  0  0  0  0  0  0
   58.0330   27.3250   45.2260 C   0  0  0  0  0  0  0  0  0  0  0  0
   57.8790   25.9510   45.4720 C   0  0  0  0  0  0  0  0  0  0  0  0
   57.1610   25.0120   44.8260 C   0  0  0  0  0  0  0  0  0  0  0  0
   55.8060   24.5670   45.1930 C   0  0  0  0  0  0  0  0  0  0  0  0
   55.3050   23.3430   44.9420 N   0  0  0  0  0  0  0  0  0  0  0  0
   54.0140   23.4510   45.3240 C   0  0  0  0  0  0  0  0  0  0  0  0
   53.2050   22.4890   45.2540 O   0  0  0  0  0  0  0  0  0  0  0  0
   53.6560   24.6720   45.7750 N   0  0  0  0  0  0  0  0  0  0  0  0
   54.7990   25.3690   45.6720 C   0  0  0  0  0  0  0  0  0  0  0  0
   54.9170   26.7120   46.0030 O   0  0  0  0  0  0  0  0  0  0  0  0
   58.6370   25.6720   46.5970 C   0  0  0  0  0  0  0  0  0  0  0  0
   59.1520   26.8720   47.0410 C   0  0  0  0  0  0  0  0  0  0  0  0
   60.0190   27.0270   48.2530 C   0  0  0  0  0  0  0  0  0  0  0  0
   58.7870   27.8760   46.2120 N   0  0  0  0  0  0  0  0  0  0  0  0
   59.1720   29.2570   46.3420 C   0  0  0  0  0  0  0  0  0  0  0  0
   58.2240   30.2780   46.1130 C   0  0  0  0  0  0  0  0  0  0  0  0
   58.6020   31.6220   46.2470 C   0  0  0  0  0  0  0  0  0  0  0  0
   59.8840   31.8970   46.6000 N   0  0  0  0  0  0  0  0  0  0  0  0
   60.5090   33.0760   46.7970 C   0  0  0  0  0  0  0  0  0  0  0  0
   59.8810   34.4260   46.6340 C   0  0  0  0  0  0  0  0  0  0  0  0
   61.8360   32.7960   47.1110 C   0  0  0  0  0  0  0  0  0  0  0  0
   62.9070   33.7940   47.4410 C   0  0  0  0  0  0  0  0  0  0  0  0
   63.0330   34.1330   48.9190 C   0  0  0  0  0  0  0  0  0  0  0  0
   64.0620   33.2340   48.2580 C   0  0  0  0  0  0  0  0  0  0  0  0
   62.0120   31.4550   47.1430 N   0  0  0  0  0  0  0  0  0  0  0  0
   60.8090   30.9450   46.8200 C   0  0  0  0  0  0  0  0  0  0  0  0
   60.4910   29.5940   46.7030 C   0  0  0  0  0  0  0  0  0  0  0  0
  1  2  2  0
  2  3  1  0
  3  4  2  3
  4  5  1  0
  5  6  1  0
  6  7  1  0
  7  8  2  0
  7  9  1  0
  9 10  1  0
 10 11  1  0
  3 12  1  0
 12 13  2  0
 13 14  1  0
 13 15  1  0
 15 16  1  0
 16 17  1  0
 17 18  2  0
 18 19  1  0
 19 20  1  0
 20 21  1  0
 20 22  2  0
 22 23  1  0
 23 24  1  0
 24 25  1  0
 22 26  1  0
 26 27  2  0
 27 28  1  0
 15  2  1  0
 28 16  2  0
 10  5  2  0
 27 19  1  0
 25 23  1  0
M  CHG  4   6  -1   9  -1  11  -1  26   1
M  END
>  <UniqueID>  (2560) 
69

>  <SMILES>  (2560) 
C=c1c(=Cc2[n-]c(=O)[n-]c2[O-])cc(C)n1-c1ccn2c(C)c(C3CC3)[nH+]c2c1

>  <Energy>  (2560) 
424.8298206395782

>  <Genealogy>  (2560) 
C=c1c(=Cc2[n-]c(=O)[n-]c2[O-])cc(C)n1-c1ccn2c(C)c(C3CC3)[nH+]c2c1 (protonated)
C=c1c(=Cc2[n-]c(=O)[n-]c2[O-])cc(C)n1-c1ccn2c(C)c(C3CC3)[nH+]c2c1 (3D coordinates assigned)
C=c1c(=Cc2[n-]c(=O)[n-]c2[O-])cc(C)n1-c1ccn2c(C)c(C3CC3)[nH+]c2c1 (nonaromatic ring conformer: 424.8298206395782 kcal/mol)

>  <smiles>  (2560) 
C=c1c(=Cc2[nH]c(=O)[nH]c2O)cc(C)n1-c1ccn2c(C)c(C3CC3)nc2c1

>  <score_type>  (2560) 
oracle

>  <origin>  (2560) 
adg

>  <m_score__min__energy>  (2560) 
-14.76

>  <m_primary>  (2560) 
energy

$$$$
55:0
     RDKit          3D

 29 32  0  0  0  0  0  0  0  0999 V2000
   51.8070   30.3320   49.3250 O   0  0  0  0  0  0  0  0  0  0  0  0
   51.6120   31.0140   50.5240 C   0  0  0  0  0  0  0  0  0  0  0  0
   51.0150   32.2150   50.5950 N   0  0  0  0  0  0  0  0  0  0  0  0
   51.0440   32.4870   51.9150 C   0  0  0  0  0  0  0  0  0  0  0  0
   50.5730   33.5480   52.4010 O   0  0  0  0  0  0  0  0  0  0  0  0
   51.6240   31.5340   52.6760 N   0  0  0  0  0  0  0  0  0  0  0  0
   51.9750   30.5880   51.7860 C   0  0  0  0  0  0  0  0  0  0  0  0
   52.7210   29.3510   52.1100 C   0  0  0  0  0  0  0  0  0  0  0  0
   53.9940   29.3130   52.5580 C   0  0  0  0  0  0  0  0  0  0  0  0
   54.6410   28.2250   53.1290 C   0  0  0  0  0  0  0  0  0  0  0  0
   55.9300   28.6280   53.4050 C   0  0  0  0  0  0  0  0  0  0  0  0
   56.9890   27.7230   53.9630 C   0  0  0  0  0  0  0  0  0  0  0  0
   56.1230   29.9120   53.0240 N   0  0  0  0  0  0  0  0  0  0  0  0
   57.4020   30.6380   53.1100 C   0  0  0  0  0  0  0  0  0  0  0  0
   58.0750   30.6910   51.7620 C   0  0  0  0  0  0  0  0  0  0  0  0
   58.4050   29.5050   51.0860 C   0  0  0  0  0  0  0  0  0  0  0  0
   59.0190   29.5570   49.8320 C   0  0  0  0  0  0  0  0  0  0  0  0
   59.3000   30.7890   49.2390 C   0  0  0  0  0  0  0  0  0  0  0  0
   58.9630   31.9840   49.8940 C   0  0  0  0  0  0  0  0  0  0  0  0
   59.2650   33.2930   49.2800 C   0  0  0  0  0  0  0  0  0  0  0  0
   59.7450   34.2080   50.0020 O   0  0  0  0  0  0  0  0  0  0  0  0
   59.0060   33.5510   47.8870 N   0  0  0  0  0  0  0  0  0  0  0  0
   59.5080   34.7310   47.2060 C   0  0  0  0  0  0  0  0  0  0  0  0
   58.9380   34.6650   45.7970 C   0  0  0  0  0  0  0  0  0  0  0  0
   57.7570   33.7010   45.8770 C   0  0  0  0  0  0  0  0  0  0  0  0
   58.0180   32.8310   47.0980 C   0  0  0  0  0  0  0  0  0  0  0  0
   58.3680   31.9270   51.1650 C   0  0  0  0  0  0  0  0  0  0  0  0
   54.9440   30.3420   52.4970 C   0  0  0  0  0  0  0  0  0  0  0  0
   54.7370   31.5730   51.9980 C   0  0  0  0  0  0  0  0  0  0  0  0
  1  2  1  0
  2  3  1  0
  3  4  1  0
  4  5  2  0
  4  6  1  0
  6  7  1  0
  7  8  1  0
  8  9  2  0
  9 10  1  0
 10 11  2  0
 11 12  1  0
 11 13  1  0
 13 14  1  0
 14 15  1  0
 15 16  2  0
 16 17  1  0
 17 18  2  0
 18 19  1  0
 19 20  1  0
 20 21  2  0
 20 22  1  0
 22 23  1  0
 23 24  1  0
 24 25  1  0
 25 26  1  0
 19 27  2  0
 13 28  1  0
 28 29  2  0
  7  2  2  0
 28  9  1  0
 27 15  1  0
 26 22  1  0
M  CHG  2   3  -1   6  -1
M  END
>  <UniqueID>  (2561) 
48

>  <SMILES>  (2561) 
C=c1/c(=C/c2[n-]c(=O)[n-]c2O)cc(C)n1Cc1cccc(C(=O)N2CCCC2)c1

>  <Energy>  (2561) 
119.149063476463

>  <Genealogy>  (2561) 
C=c1c(=Cc2[n-]c(=O)[n-]c2O)cc(C)n1Cc1cccc(C(=O)N2CCCC2)c1 (protonated)
C=c1/c(=C/c2[n-]c(=O)[n-]c2O)cc(C)n1Cc1cccc(C(=O)N2CCCC2)c1 (cis-trans isomerization)
C=c1/c(=C/c2[n-]c(=O)[n-]c2O)cc(C)n1Cc1cccc(C(=O)N2CCCC2)c1 (3D coordinates assigned)
C=c1/c(=C/c2[n-]c(=O)[n-]c2O)cc(C)n1Cc1cccc(C(=O)N2CCCC2)c1 (nonaromatic ring conformer: 119.149063476463 kcal/mol)

>  <smiles>  (2561) 
C=c1c(=Cc2[nH]c(=O)[nH]c2O)cc(C)n1Cc1cccc(C(=O)N2CCCC2)c1

>  <score_type>  (2561) 
oracle

>  <origin>  (2561) 
adg

>  <m_score__min__energy>  (2561) 
-14.289999999999999

>  <m_primary>  (2561) 
energy

$$$$
66:0
     RDKit          3D

 29 32  0  0  0  0  0  0  0  0999 V2000
   58.7730   28.5660   46.9080 C   0  0  0  0  0  0  0  0  0  0  0  0
   58.3750   29.0110   45.7050 C   0  0  0  0  0  0  0  0  0  0  0  0
   57.8560   28.2500   44.6430 C   0  0  0  0  0  0  0  0  0  0  0  0
   57.7710   26.9170   44.4680 C   0  0  0  0  0  0  0  0  0  0  0  0
   57.4460   25.9300   45.5160 C   0  0  0  0  0  0  0  0  0  0  0  0
   56.1640   25.8700   46.0890 C   0  0  0  0  0  0  0  0  0  0  0  0
   55.1520   26.7180   45.6570 O   0  0  0  0  0  0  0  0  0  0  0  0
   55.9080   24.9770   47.0800 N   0  0  0  0  0  0  0  0  0  0  0  0
   56.8760   24.1480   47.5450 C   0  0  0  0  0  0  0  0  0  0  0  0
   56.5370   23.0850   48.7360 S   0  0  0  0  0  0  0  0  0  0  0  0
   58.1300   24.2100   47.0280 N   0  0  0  0  0  0  0  0  0  0  0  0
   58.4390   25.0830   46.0350 C   0  0  0  0  0  0  0  0  0  0  0  0
   59.6130   25.1180   45.5830 O   0  0  0  0  0  0  0  0  0  0  0  0
   57.4050   29.1590   43.6990 C   0  0  0  0  0  0  0  0  0  0  0  0
   57.7110   30.4160   44.1750 C   0  0  0  0  0  0  0  0  0  0  0  0
   57.4040   31.6950   43.4540 C   0  0  0  0  0  0  0  0  0  0  0  0
   58.2970   30.3300   45.3890 N   0  0  0  0  0  0  0  0  0  0  0  0
   58.7290   31.4450   46.1930 C   0  0  0  0  0  0  0  0  0  0  0  0
   57.8600   32.5130   46.4280 C   0  0  0  0  0  0  0  0  0  0  0  0
   58.2690   33.5830   47.2200 C   0  0  0  0  0  0  0  0  0  0  0  0
   59.5480   33.5960   47.7830 C   0  0  0  0  0  0  0  0  0  0  0  0
   60.4560   32.5340   47.5590 C   0  0  0  0  0  0  0  0  0  0  0  0
   61.7950   32.5420   48.1490 N   0  0  0  0  0  0  0  0  0  0  0  0
   62.1620   31.4740   49.1050 C   0  0  0  0  0  0  0  0  0  0  0  0
   63.5540   31.6260   49.7290 C   0  0  0  0  0  0  0  0  0  0  0  0
   64.5230   32.1390   48.7640 N   0  0  0  0  0  0  0  0  0  0  0  0
   64.1350   33.4950   48.3870 C   0  0  0  0  0  0  0  0  0  0  0  0
   62.7930   33.5160   47.6470 C   0  0  0  0  0  0  0  0  0  0  0  0
   60.0140   31.4550   46.7540 C   0  0  0  0  0  0  0  0  0  0  0  0
  1  2  2  0
  2  3  1  0
  3  4  2  3
  4  5  1  0
  5  6  2  0
  6  7  1  0
  6  8  1  0
  8  9  1  0
  9 10  2  0
  9 11  1  0
 11 12  1  0
 12 13  2  0
  3 14  1  0
 14 15  2  0
 15 16  1  0
 15 17  1  0
 17 18  1  0
 18 19  2  0
 19 20  1  0
 20 21  2  0
 21 22  1  0
 22 23  1  0
 23 24  1  0
 24 25  1  0
 25 26  1  0
 26 27  1  0
 27 28  1  0
 22 29  2  0
 17  2  1  0
 29 18  1  0
 12  5  1  0
 28 23  1  0
M  CHG  3   7  -1   8  -1  11  -1
M  END
>  <UniqueID>  (2562) 
59

>  <SMILES>  (2562) 
C=c1c(=Cc2c([O-])[n-]c(=S)[n-]c2=O)cc(C)n1-c1cccc(N2CCNCC2)c1

>  <Energy>  (2562) 
107.97577263228732

>  <Genealogy>  (2562) 
C=c1c(=Cc2c([O-])[n-]c(=S)[n-]c2=O)cc(C)n1-c1cccc(N2CCNCC2)c1 (protonated)
C=c1c(=Cc2c([O-])[n-]c(=S)[n-]c2=O)cc(C)n1-c1cccc(N2CCNCC2)c1 (3D coordinates assigned)
C=c1c(=Cc2c([O-])[n-]c(=S)[n-]c2=O)cc(C)n1-c1cccc(N2CCNCC2)c1 (nonaromatic ring conformer: 107.97577263228732 kcal/mol)

>  <smiles>  (2562) 
C=c1c(=Cc2c(O)[nH]c(=S)[nH]c2=O)cc(C)n1-c1cccc(N2CCNCC2)c1

>  <score_type>  (2562) 
oracle

>  <origin>  (2562) 
adg

>  <m_score__min__energy>  (2562) 
-16.190000000000001

>  <m_primary>  (2562) 
energy

$$$$
70:0
     RDKit          3D

 29 32  0  0  0  0  0  0  0  0999 V2000
   59.6770   29.1920   45.1410 C   0  0  0  0  0  0  0  0  0  0  0  0
   58.3420   29.2360   45.0330 C   0  0  0  0  0  0  0  0  0  0  0  0
   57.4520   28.1640   45.1120 C   0  0  0  0  0  0  0  0  0  0  0  0
   57.7530   26.8770   45.3590 C   0  0  0  0  0  0  0  0  0  0  0  0
   56.7970   25.7620   45.2040 C   0  0  0  0  0  0  0  0  0  0  0  0
   57.0960   24.6330   44.5270 N   0  0  0  0  0  0  0  0  0  0  0  0
   55.9560   23.9110   44.5780 C   0  0  0  0  0  0  0  0  0  0  0  0
   55.8510   22.7620   44.0690 O   0  0  0  0  0  0  0  0  0  0  0  0
   54.9500   24.5340   45.2230 N   0  0  0  0  0  0  0  0  0  0  0  0
   53.6150   24.0180   45.5110 C   0  0  0  0  0  0  0  0  0  0  0  0
   55.4780   25.7020   45.6220 C   0  0  0  0  0  0  0  0  0  0  0  0
   54.7710   26.6900   46.2980 O   0  0  0  0  0  0  0  0  0  0  0  0
   56.1910   28.6200   44.9460 N   0  0  0  0  0  0  0  0  0  0  0  0
   56.3400   29.9460   44.7620 C   0  0  0  0  0  0  0  0  0  0  0  0
   55.3660   30.7180   44.5620 O   0  0  0  0  0  0  0  0  0  0  0  0
   57.6240   30.3620   44.8130 N   0  0  0  0  0  0  0  0  0  0  0  0
   58.1070   31.7320   44.5990 C   0  0  0  0  0  0  0  0  0  0  0  0
   58.9060   32.2000   45.7880 C   0  0  0  0  0  0  0  0  0  0  0  0
   58.8120   31.5330   47.0190 C   0  0  0  0  0  0  0  0  0  0  0  0
   59.5630   31.9660   48.1170 C   0  0  0  0  0  0  0  0  0  0  0  0
   60.4150   33.0800   48.0050 C   0  0  0  0  0  0  0  0  0  0  0  0
   61.2020   33.5220   49.1290 N   0  0  0  0  0  0  0  0  0  0  0  0
   60.8610   33.3890   50.4990 C   0  0  0  0  0  0  0  0  0  0  0  0
   59.7460   32.9620   50.8990 O   0  0  0  0  0  0  0  0  0  0  0  0
   61.9120   33.8860   51.4080 C   0  0  0  0  0  0  0  0  0  0  0  0
   63.0520   34.2630   50.4530 C   0  0  0  0  0  0  0  0  0  0  0  0
   62.4790   34.2100   49.0240 C   0  0  0  0  0  0  0  0  0  0  0  0
   60.5120   33.7370   46.7680 C   0  0  0  0  0  0  0  0  0  0  0  0
   59.7600   33.3050   45.6720 C   0  0  0  0  0  0  0  0  0  0  0  0
  1  2  2  0
  2  3  1  0
  3  4  2  0
  4  5  1  0
  5  6  1  0
  6  7  1  0
  7  8  2  0
  7  9  1  0
  9 10  1  0
  9 11  1  0
 11 12  1  0
  3 13  1  0
 13 14  1  0
 14 15  2  0
 14 16  1  0
 16 17  1  0
 17 18  1  0
 18 19  2  0
 19 20  1  0
 20 21  2  0
 21 22  1  0
 22 23  1  0
 23 24  2  0
 23 25  1  0
 25 26  1  0
 26 27  1  0
 21 28  1  0
 28 29  2  0
 16  2  1  0
 29 18  1  0
 11  5  2  0
 27 22  1  0
M  CHG  3   6  -1  12  -1  13  -1
M  END
>  <UniqueID>  (2563) 
63

>  <SMILES>  (2563) 
C=c1/c(=C/c2[n-]c(=O)n(C)c2[O-])[n-]c(=O)n1Cc1ccc(N2CCCC2=O)cc1

>  <Energy>  (2563) 
129.94247699952797

>  <Genealogy>  (2563) 
C=c1c(=Cc2[n-]c(=O)n(C)c2[O-])[n-]c(=O)n1Cc1ccc(N2CCCC2=O)cc1 (protonated)
C=c1/c(=C/c2[n-]c(=O)n(C)c2[O-])[n-]c(=O)n1Cc1ccc(N2CCCC2=O)cc1 (cis-trans isomerization)
C=c1/c(=C/c2[n-]c(=O)n(C)c2[O-])[n-]c(=O)n1Cc1ccc(N2CCCC2=O)cc1 (3D coordinates assigned)
C=c1/c(=C/c2[n-]c(=O)n(C)c2[O-])[n-]c(=O)n1Cc1ccc(N2CCCC2=O)cc1 (nonaromatic ring conformer: 129.94247699952797 kcal/mol)

>  <smiles>  (2563) 
C=c1c(=Cc2[nH]c(=O)n(C)c2O)[nH]c(=O)n1Cc1ccc(N2CCCC2=O)cc1

>  <score_type>  (2563) 
oracle

>  <origin>  (2563) 
adg

>  <m_score__min__energy>  (2563) 
-14.869999999999999

>  <m_primary>  (2563) 
energy

$$$$
77:0
     RDKit          3D

 31 34  0  0  0  0  0  0  0  0999 V2000
   53.2730   27.9790   53.2250 C   0  0  0  0  0  0  0  0  0  0  0  0
   54.1200   29.0060   53.0570 C   0  0  0  0  0  0  0  0  0  0  0  0
   53.9340   30.1350   52.2430 C   0  0  0  0  0  0  0  0  0  0  0  0
   52.8440   30.5970   51.5970 C   0  0  0  0  0  0  0  0  0  0  0  0
   51.7760   31.4240   52.1820 C   0  0  0  0  0  0  0  0  0  0  0  0
   51.5090   31.5190   53.4980 N   0  0  0  0  0  0  0  0  0  0  0  0
   50.5590   32.4780   53.5570 C   0  0  0  0  0  0  0  0  0  0  0  0
   50.0310   32.8470   54.6390 O   0  0  0  0  0  0  0  0  0  0  0  0
   50.2290   33.0250   52.3650 N   0  0  0  0  0  0  0  0  0  0  0  0
   51.0200   32.3540   51.5090 C   0  0  0  0  0  0  0  0  0  0  0  0
   51.0480   32.5830   50.1430 O   0  0  0  0  0  0  0  0  0  0  0  0
   55.1520   30.7910   52.2080 C   0  0  0  0  0  0  0  0  0  0  0  0
   56.0100   30.0860   53.0220 C   0  0  0  0  0  0  0  0  0  0  0  0
   57.4110   30.4750   53.2680 C   0  0  0  0  0  0  0  0  0  0  0  0
   57.7860   30.6480   54.4580 O   0  0  0  0  0  0  0  0  0  0  0  0
   58.3440   30.6850   52.1860 N   0  0  0  0  0  0  0  0  0  0  0  0
   57.8990   31.2510   50.9010 C   0  0  0  0  0  0  0  0  0  0  0  0
   58.6060   30.5640   49.7200 C   0  0  0  0  0  0  0  0  0  0  0  0
   59.9910   30.1950   50.0510 N   0  0  0  0  0  0  0  0  0  0  0  0
   60.5900   29.0380   49.4360 C   0  0  0  0  0  0  0  0  0  0  0  0
   61.3690   28.3120   50.1110 O   0  0  0  0  0  0  0  0  0  0  0  0
   60.2710   28.6600   48.0840 N   0  0  0  0  0  0  0  0  0  0  0  0
   60.0420   27.2460   47.7710 C   0  0  0  0  0  0  0  0  0  0  0  0
   59.6950   27.0900   46.2890 C   0  0  0  0  0  0  0  0  0  0  0  0
   60.6780   27.7440   45.5140 O   0  0  0  0  0  0  0  0  0  0  0  0
   60.6330   29.1620   45.6820 C   0  0  0  0  0  0  0  0  0  0  0  0
   60.0760   29.6660   47.0360 C   0  0  0  0  0  0  0  0  0  0  0  0
   60.6230   30.8240   51.2150 C   0  0  0  0  0  0  0  0  0  0  0  0
   59.7820   30.5390   52.4610 C   0  0  0  0  0  0  0  0  0  0  0  0
   55.3800   29.0170   53.5630 N   0  0  0  0  0  0  0  0  0  0  0  0
   55.9420   28.0540   54.5160 C   0  0  0  0  0  0  0  0  0  0  0  0
  1  2  2  0
  2  3  1  0
  3  4  2  3
  4  5  1  0
  5  6  1  0
  6  7  1  0
  7  8  2  0
  7  9  1  0
  9 10  1  0
 10 11  1  0
  3 12  1  0
 12 13  2  0
 13 14  1  0
 14 15  2  0
 14 16  1  0
 16 17  1  0
 17 18  1  0
 18 19  1  0
 19 20  1  0
 20 21  2  0
 20 22  1  0
 22 23  1  0
 23 24  1  0
 24 25  1  0
 25 26  1  0
 26 27  1  0
 19 28  1  0
 28 29  1  0
 13 30  1  0
 30 31  1  0
 30  2  1  0
 10  5  2  0
 29 16  1  0
 27 22  1  0
M  CHG  3   6  -1   9  -1  11  -1
M  END
>  <UniqueID>  (2564) 
70

>  <SMILES>  (2564) 
C=c1c(=Cc2[n-]c(=O)[n-]c2[O-])cc(C(=O)N2CCN(C(=O)N3CCOCC3)CC2)n1C

>  <Energy>  (2564) 
142.258548672459

>  <Genealogy>  (2564) 
C=c1c(=Cc2[n-]c(=O)[n-]c2[O-])cc(C(=O)N2CCN(C(=O)N3CCOCC3)CC2)n1C (protonated)
C=c1c(=Cc2[n-]c(=O)[n-]c2[O-])cc(C(=O)N2CCN(C(=O)N3CCOCC3)CC2)n1C (3D coordinates assigned)
C=c1c(=Cc2[n-]c(=O)[n-]c2[O-])cc(C(=O)N2CCN(C(=O)N3CCOCC3)CC2)n1C (nonaromatic ring conformer: 142.258548672459 kcal/mol)

>  <smiles>  (2564) 
C=c1c(=Cc2[nH]c(=O)[nH]c2O)cc(C(=O)N2CCN(C(=O)N3CCOCC3)CC2)n1C

>  <score_type>  (2564) 
oracle

>  <origin>  (2564) 
adg

>  <m_score__min__energy>  (2564) 
-17.949999999999999

>  <m_primary>  (2564) 
energy

$$$$
2:0
     RDKit          3D

 28 30  0  0  0  0  0  0  0  0999 V2000
   60.4770   27.2310   46.3300 C   0  0  0  0  0  0  0  0  0  0  0  0
   59.6680   28.0990   45.6960 C   0  0  0  0  0  0  0  0  0  0  0  0
   60.0950   29.4380   45.6170 C   0  0  0  0  0  0  0  0  0  0  0  0
   59.2210   30.4500   45.2310 C   0  0  0  0  0  0  0  0  0  0  0  0
   57.8840   30.1610   44.9260 C   0  0  0  0  0  0  0  0  0  0  0  0
   56.9250   31.2400   44.5620 C   0  0  0  0  0  0  0  0  0  0  0  0
   55.6960   30.9680   44.4700 O   0  0  0  0  0  0  0  0  0  0  0  0
   57.3980   32.6430   44.2570 C   0  0  0  0  0  0  0  0  0  0  0  0
   57.2790   33.5870   45.4610 C   0  0  0  0  0  0  0  0  0  0  0  0
   58.5720   33.6270   46.2310 C   0  0  0  0  0  0  0  0  0  0  0  0
   58.6370   33.1150   47.5330 C   0  0  0  0  0  0  0  0  0  0  0  0
   59.8260   33.1820   48.2630 C   0  0  0  0  0  0  0  0  0  0  0  0
   60.9810   33.7740   47.7090 C   0  0  0  0  0  0  0  0  0  0  0  0
   62.2190   33.8440   48.4660 N   0  0  0  0  0  0  0  0  0  0  0  0
   63.5070   33.5720   47.8150 C   0  0  0  0  0  0  0  0  0  0  0  0
   62.2030   34.1880   49.8930 C   0  0  0  0  0  0  0  0  0  0  0  0
   60.9000   34.2990   46.4030 C   0  0  0  0  0  0  0  0  0  0  0  0
   59.7090   34.2310   45.6760 C   0  0  0  0  0  0  0  0  0  0  0  0
   57.4630   28.8200   44.9380 C   0  0  0  0  0  0  0  0  0  0  0  0
   58.3540   27.7630   45.2350 C   0  0  0  0  0  0  0  0  0  0  0  0
   57.8950   26.5020   45.0340 C   0  0  0  0  0  0  0  0  0  0  0  0
   57.2310   25.6500   46.0410 C   0  0  0  0  0  0  0  0  0  0  0  0
   57.8070   24.6110   46.6730 N   0  0  0  0  0  0  0  0  0  0  0  0
   56.7940   24.0810   47.3920 C   0  0  0  0  0  0  0  0  0  0  0  0
   56.9440   23.0810   48.1400 O   0  0  0  0  0  0  0  0  0  0  0  0
   55.6040   24.7030   47.2380 N   0  0  0  0  0  0  0  0  0  0  0  0
   55.8970   25.6860   46.3700 C   0  0  0  0  0  0  0  0  0  0  0  0
   54.9650   26.5970   45.8840 O   0  0  0  0  0  0  0  0  0  0  0  0
  1  2  2  0
  2  3  1  0
  3  4  2  0
  4  5  1  0
  5  6  1  0
  6  7  2  0
  6  8  1  0
  8  9  1  0
  9 10  1  0
 10 11  2  0
 11 12  1  0
 12 13  2  0
 13 14  1  0
 14 15  1  0
 14 16  1  0
 13 17  1  0
 17 18  2  0
  5 19  2  0
 19 20  1  0
 20 21  2  3
 21 22  1  0
 22 23  1  0
 23 24  1  0
 24 25  2  0
 24 26  1  0
 26 27  1  0
 27 28  1  0
 20  2  1  0
 27 22  2  0
 18 10  1  0
M  CHG  2  23  -1  26  -1
M  END
>  <UniqueID>  (2565) 
3

>  <SMILES>  (2565) 
C=c1ccc(C(=O)CCc2ccc(N(C)C)cc2)cc1=Cc1[n-]c(=O)[n-]c1O

>  <Energy>  (2565) 
101.07928952159021

>  <Genealogy>  (2565) 
C=c1ccc(C(=O)CCc2ccc(N(C)C)cc2)cc1=Cc1[n-]c(=O)[n-]c1O (protonated)
C=c1ccc(C(=O)CCc2ccc(N(C)C)cc2)cc1=Cc1[n-]c(=O)[n-]c1O (3D coordinates assigned)
C=c1ccc(C(=O)CCc2ccc(N(C)C)cc2)cc1=Cc1[n-]c(=O)[n-]c1O (optimized conformer: 101.07928952159021 kcal/mol)

>  <smiles>  (2565) 
C=c1ccc(C(=O)CCc2ccc(N(C)C)cc2)cc1=Cc1[nH]c(=O)[nH]c1O

>  <score_type>  (2565) 
oracle

>  <origin>  (2565) 
adg

>  <m_score__min__energy>  (2565) 
-14.640000000000001

>  <m_primary>  (2565) 
energy

$$$$
4:0
     RDKit          3D

 27 29  0  0  0  0  0  0  0  0999 V2000
   55.2000   26.5590   46.3530 O   0  0  0  0  0  0  0  0  0  0  0  0
   56.3950   27.0750   45.8530 C   0  0  0  0  0  0  0  0  0  0  0  0
   57.5900   26.3980   46.1150 C   0  0  0  0  0  0  0  0  0  0  0  0
   58.8030   26.8960   45.6330 C   0  0  0  0  0  0  0  0  0  0  0  0
   58.8270   28.0680   44.8740 C   0  0  0  0  0  0  0  0  0  0  0  0
   57.6350   28.7440   44.5780 C   0  0  0  0  0  0  0  0  0  0  0  0
   57.6930   29.9960   43.7900 C   0  0  0  0  0  0  0  0  0  0  0  0
   57.8550   31.2520   44.3020 C   0  0  0  0  0  0  0  0  0  0  0  0
   58.0220   32.3950   43.4590 C   0  0  0  0  0  0  0  0  0  0  0  0
   57.9840   32.3660   42.1160 C   0  0  0  0  0  0  0  0  0  0  0  0
   58.2700   33.6010   44.0260 N   0  0  0  0  0  0  0  0  0  0  0  0
   58.3570   33.7820   45.3610 C   0  0  0  0  0  0  0  0  0  0  0  0
   58.6270   34.9330   45.8010 O   0  0  0  0  0  0  0  0  0  0  0  0
   58.1490   32.7340   46.2140 N   0  0  0  0  0  0  0  0  0  0  0  0
   58.2870   32.9170   47.6750 C   0  0  0  0  0  0  0  0  0  0  0  0
   59.7400   33.0880   48.0380 C   0  0  0  0  0  0  0  0  0  0  0  0
   60.7310   32.3330   47.3910 C   0  0  0  0  0  0  0  0  0  0  0  0
   62.0810   32.5400   47.6820 C   0  0  0  0  0  0  0  0  0  0  0  0
   62.4630   33.5100   48.6280 C   0  0  0  0  0  0  0  0  0  0  0  0
   63.8050   33.7590   48.9520 O   0  0  0  0  0  0  0  0  0  0  0  0
   64.7270   32.7610   49.3780 C   0  0  0  0  0  0  0  0  0  0  0  0
   61.4720   34.2610   49.2730 C   0  0  0  0  0  0  0  0  0  0  0  0
   60.1220   34.0560   48.9790 C   0  0  0  0  0  0  0  0  0  0  0  0
   57.8570   31.4920   45.7080 C   0  0  0  0  0  0  0  0  0  0  0  0
   57.5500   30.5660   46.5100 O   0  0  0  0  0  0  0  0  0  0  0  0
   56.4150   28.2600   45.0970 C   0  0  0  0  0  0  0  0  0  0  0  0
   55.2310   28.9550   44.8650 O   0  0  0  0  0  0  0  0  0  0  0  0
  1  2  1  0
  2  3  2  0
  3  4  1  0
  4  5  2  0
  5  6  1  0
  6  7  1  0
  7  8  2  0
  8  9  1  0
  9 10  2  0
  9 11  1  0
 11 12  1  0
 12 13  2  0
 12 14  1  0
 14 15  1  0
 15 16  1  0
 16 17  2  0
 17 18  1  0
 18 19  2  0
 19 20  1  0
 20 21  1  0
 19 22  1  0
 22 23  2  0
 14 24  1  0
 24 25  2  0
  6 26  2  0
 26 27  1  0
 26  2  1  0
 24  8  1  0
 23 16  1  0
M  CHG  2  11  -1  27  -1
M  END
>  <UniqueID>  (2566) 
5

>  <SMILES>  (2566) 
C=c1[n-]c(=O)n(Cc2ccc(OC)cc2)c(=O)/c1=C\c1cccc(O)c1[O-]

>  <Energy>  (2566) 
69.95074432920376

>  <Genealogy>  (2566) 
C=c1[n-]c(=O)n(Cc2ccc(OC)cc2)c(=O)c1=Cc1cccc(O)c1[O-] (protonated)
C=c1[n-]c(=O)n(Cc2ccc(OC)cc2)c(=O)/c1=C\c1cccc(O)c1[O-] (cis-trans isomerization)
C=c1[n-]c(=O)n(Cc2ccc(OC)cc2)c(=O)/c1=C\c1cccc(O)c1[O-] (3D coordinates assigned)
C=c1[n-]c(=O)n(Cc2ccc(OC)cc2)c(=O)/c1=C\c1cccc(O)c1[O-] (optimized conformer: 69.95074432920376 kcal/mol)

>  <smiles>  (2566) 
C=c1[nH]c(=O)n(Cc2ccc(OC)cc2)c(=O)c1=Cc1cccc(O)c1O

>  <score_type>  (2566) 
oracle

>  <origin>  (2566) 
adg

>  <m_score__min__energy>  (2566) 
-14.6

>  <m_primary>  (2566) 
energy

$$$$
13:0
     RDKit          3D

 23 24  0  0  0  0  0  0  0  0999 V2000
   57.0840   33.8330   45.6690 N   0  0  0  0  0  0  0  0  0  0  0  0
   58.7430   33.8680   46.1500 S   0  0  0  0  0  0  0  0  0  0  0  0
   59.0070   35.1100   46.9530 O   0  0  0  0  0  0  0  0  0  0  0  0
   59.6180   33.8890   44.9280 O   0  0  0  0  0  0  0  0  0  0  0  0
   59.1040   32.4410   47.1150 C   0  0  0  0  0  0  0  0  0  0  0  0
   58.6150   32.3290   48.4230 C   0  0  0  0  0  0  0  0  0  0  0  0
   58.8890   31.1880   49.1820 C   0  0  0  0  0  0  0  0  0  0  0  0
   59.6550   30.1440   48.6420 C   0  0  0  0  0  0  0  0  0  0  0  0
   59.9280   28.9040   49.4570 C   0  0  0  0  0  0  0  0  0  0  0  0
   60.2180   27.6920   48.5620 C   0  0  0  0  0  0  0  0  0  0  0  0
   59.1220   27.4350   47.6280 N   0  0  0  0  0  0  0  0  0  0  0  0
   59.2460   26.4690   46.5760 C   0  0  0  0  0  0  0  0  0  0  0  0
   60.3150   25.8160   46.4360 O   0  0  0  0  0  0  0  0  0  0  0  0
   58.1200   26.2630   45.6110 C   0  0  0  0  0  0  0  0  0  0  0  0
   57.3830   27.5470   45.4020 C   0  0  0  0  0  0  0  0  0  0  0  0
   58.0640   28.9750   44.8210 S   0  0  0  0  0  0  0  0  0  0  0  0
   56.5850   29.7760   44.8250 C   0  0  0  0  0  0  0  0  0  0  0  0
   56.4260   30.9740   44.4750 O   0  0  0  0  0  0  0  0  0  0  0  0
   55.5690   28.9920   45.2440 N   0  0  0  0  0  0  0  0  0  0  0  0
   56.0140   27.7470   45.5590 C   0  0  0  0  0  0  0  0  0  0  0  0
   55.1500   26.7530   46.0000 O   0  0  0  0  0  0  0  0  0  0  0  0
   60.1350   30.2540   47.3260 C   0  0  0  0  0  0  0  0  0  0  0  0
   59.8610   31.3950   46.5680 C   0  0  0  0  0  0  0  0  0  0  0  0
  1  2  1  0
  2  3  2  0
  2  4  2  0
  2  5  1  0
  5  6  2  0
  6  7  1  0
  7  8  2  0
  8  9  1  0
  9 10  1  0
 10 11  1  0
 11 12  1  0
 12 13  2  0
 12 14  1  0
 14 15  1  0
 15 16  1  0
 16 17  1  0
 17 18  2  0
 17 19  1  0
 19 20  1  0
 20 21  1  0
  8 22  1  0
 22 23  2  0
 23  5  1  0
 20 15  2  0
M  CHG  3   1  -1  19  -1  21  -1
M  END
>  <UniqueID>  (2567) 
13

>  <SMILES>  (2567) 
[NH-]S(=O)(=O)c1ccc(CCNC(=O)Cc2sc(=O)[n-]c2[O-])cc1

>  <Energy>  (2567) 
58.473271719244735

>  <Genealogy>  (2567) 
[NH-]S(=O)(=O)c1ccc(CCNC(=O)Cc2sc(=O)[n-]c2[O-])cc1 (protonated)
[NH-]S(=O)(=O)c1ccc(CCNC(=O)Cc2sc(=O)[n-]c2[O-])cc1 (3D coordinates assigned)
[NH-]S(=O)(=O)c1ccc(CCNC(=O)Cc2sc(=O)[n-]c2[O-])cc1 (optimized conformer: 58.473271719244735 kcal/mol)

>  <smiles>  (2567) 
NS(=O)(=O)c1ccc(CCNC(=O)Cc2sc(=O)[nH]c2O)cc1

>  <score_type>  (2567) 
oracle

>  <origin>  (2567) 
adg

>  <m_score__min__energy>  (2567) 
-14.81

>  <m_primary>  (2567) 
energy

$$$$
15:0
     RDKit          3D

 26 28  0  0  0  0  0  0  0  0999 V2000
   55.3000   30.2060   53.7930 O   0  0  0  0  0  0  0  0  0  0  0  0
   55.3150   29.8660   52.5810 C   0  0  0  0  0  0  0  0  0  0  0  0
   54.0340   29.4120   51.9340 C   0  0  0  0  0  0  0  0  0  0  0  0
   52.9930   30.4920   52.0350 C   0  0  0  0  0  0  0  0  0  0  0  0
   52.4780   30.8570   53.2890 C   0  0  0  0  0  0  0  0  0  0  0  0
   51.4940   31.8430   53.3850 C   0  0  0  0  0  0  0  0  0  0  0  0
   51.0080   32.4640   52.2300 C   0  0  0  0  0  0  0  0  0  0  0  0
   50.0300   33.4440   52.3320 O   0  0  0  0  0  0  0  0  0  0  0  0
   51.5070   32.0950   50.9750 C   0  0  0  0  0  0  0  0  0  0  0  0
   51.0230   32.7050   49.8260 O   0  0  0  0  0  0  0  0  0  0  0  0
   52.4940   31.1090   50.8770 C   0  0  0  0  0  0  0  0  0  0  0  0
   56.5250   30.0320   51.8330 N   0  0  0  0  0  0  0  0  0  0  0  0
   57.3320   31.2160   51.7900 C   0  0  0  0  0  0  0  0  0  0  0  0
   57.4880   32.0390   52.9180 C   0  0  0  0  0  0  0  0  0  0  0  0
   58.2590   33.2020   52.8390 C   0  0  0  0  0  0  0  0  0  0  0  0
   58.8610   33.5640   51.6310 C   0  0  0  0  0  0  0  0  0  0  0  0
   58.6810   32.7690   50.4900 C   0  0  0  0  0  0  0  0  0  0  0  0
   59.4470   33.2080   48.9670 S   0  0  0  0  0  0  0  0  0  0  0  0
   58.7340   32.5150   47.8400 O   0  0  0  0  0  0  0  0  0  0  0  0
   59.3440   34.6950   48.7560 O   0  0  0  0  0  0  0  0  0  0  0  0
   61.1170   32.7060   49.0000 N   0  0  0  0  0  0  0  0  0  0  0  0
   61.9990   33.8180   49.3510 C   0  0  0  0  0  0  0  0  0  0  0  0
   63.3530   33.5030   48.7350 C   0  0  0  0  0  0  0  0  0  0  0  0
   63.0650   32.5030   47.6270 C   0  0  0  0  0  0  0  0  0  0  0  0
   61.5650   32.2570   47.6810 C   0  0  0  0  0  0  0  0  0  0  0  0
   57.9130   31.5980   50.5740 C   0  0  0  0  0  0  0  0  0  0  0  0
  1  2  2  0
  2  3  1  0
  3  4  1  0
  4  5  2  0
  5  6  1  0
  6  7  2  0
  7  8  1  0
  7  9  1  0
  9 10  1  0
  9 11  2  0
  2 12  1  0
 12 13  1  0
 13 14  2  0
 14 15  1  0
 15 16  2  0
 16 17  1  0
 17 18  1  0
 18 19  2  0
 18 20  2  0
 18 21  1  0
 21 22  1  0
 22 23  1  0
 23 24  1  0
 24 25  1  0
 17 26  2  0
 11  4  1  0
 26 13  1  0
 25 21  1  0
M  CHG  3   8  -1  10  -1  12  -1
M  END
>  <UniqueID>  (2568) 
15

>  <SMILES>  (2568) 
O=C(Cc1ccc([O-])c([O-])c1)[N-]c1cccc(S(=O)(=O)N2CCCC2)c1

>  <Energy>  (2568) 
48.89613958401238

>  <Genealogy>  (2568) 
O=C(Cc1ccc([O-])c([O-])c1)[N-]c1cccc(S(=O)(=O)N2CCCC2)c1 (protonated)
O=C(Cc1ccc([O-])c([O-])c1)[N-]c1cccc(S(=O)(=O)N2CCCC2)c1 (3D coordinates assigned)
O=C(Cc1ccc([O-])c([O-])c1)[N-]c1cccc(S(=O)(=O)N2CCCC2)c1 (nonaromatic ring conformer: 48.89613958401238 kcal/mol)

>  <smiles>  (2568) 
O=C(Cc1ccc(O)c(O)c1)Nc1cccc(S(=O)(=O)N2CCCC2)c1

>  <score_type>  (2568) 
oracle

>  <origin>  (2568) 
adg

>  <m_score__min__energy>  (2568) 
-18.379999999999999

>  <m_primary>  (2568) 
energy

$$$$
33:0
     RDKit          3D

 25 26  0  0  0  0  0  0  0  0999 V2000
   57.0050   30.9940   44.6710 C   0  0  0  0  0  0  0  0  0  0  0  0
   57.4920   29.7570   44.8910 C   0  0  0  0  0  0  0  0  0  0  0  0
   58.0040   29.3670   46.1850 C   0  0  0  0  0  0  0  0  0  0  0  0
   58.4160   29.0540   47.2220 N   0  0  0  0  0  0  0  0  0  0  0  0
   57.6190   28.8010   43.7700 C   0  0  0  0  0  0  0  0  0  0  0  0
   57.0040   29.0130   42.6880 O   0  0  0  0  0  0  0  0  0  0  0  0
   58.4060   27.6520   43.9160 O   0  0  0  0  0  0  0  0  0  0  0  0
   57.8960   26.3290   43.7650 C   0  0  0  0  0  0  0  0  0  0  0  0
   57.4040   25.7960   45.0840 C   0  0  0  0  0  0  0  0  0  0  0  0
   58.0390   26.0970   46.1290 O   0  0  0  0  0  0  0  0  0  0  0  0
   56.2140   24.9120   45.1850 C   0  0  0  0  0  0  0  0  0  0  0  0
   56.3450   23.5530   44.8440 C   0  0  0  0  0  0  0  0  0  0  0  0
   55.2360   22.7040   44.8720 C   0  0  0  0  0  0  0  0  0  0  0  0
   53.9840   23.1950   45.2460 C   0  0  0  0  0  0  0  0  0  0  0  0
   52.8820   22.3500   45.2650 O   0  0  0  0  0  0  0  0  0  0  0  0
   53.8430   24.5370   45.6070 C   0  0  0  0  0  0  0  0  0  0  0  0
   54.9490   25.3950   45.5890 C   0  0  0  0  0  0  0  0  0  0  0  0
   54.7780   26.7140   45.9950 O   0  0  0  0  0  0  0  0  0  0  0  0
   57.6850   32.2520   45.0530 C   0  0  0  0  0  0  0  0  0  0  0  0
   58.3260   33.0660   44.1010 C   0  0  0  0  0  0  0  0  0  0  0  0
   58.9860   34.2320   44.5010 C   0  0  0  0  0  0  0  0  0  0  0  0
   59.0290   34.5850   45.8530 C   0  0  0  0  0  0  0  0  0  0  0  0
   59.6850   35.7440   46.2480 O   0  0  0  0  0  0  0  0  0  0  0  0
   58.4160   33.7690   46.8080 C   0  0  0  0  0  0  0  0  0  0  0  0
   57.7550   32.6010   46.4110 C   0  0  0  0  0  0  0  0  0  0  0  0
  1  2  2  0
  2  3  1  0
  3  4  3  0
  2  5  1  0
  5  6  2  0
  5  7  1  0
  7  8  1  0
  8  9  1  0
  9 10  2  0
  9 11  1  0
 11 12  2  0
 12 13  1  0
 13 14  2  0
 14 15  1  0
 14 16  1  0
 16 17  2  0
 17 18  1  0
  1 19  1  0
 19 20  2  0
 20 21  1  0
 21 22  2  0
 22 23  1  0
 22 24  1  0
 24 25  2  0
 17 11  1  0
 25 19  1  0
M  CHG  3  15  -1  18  -1  23  -1
M  END
>  <UniqueID>  (2569) 
32

>  <SMILES>  (2569) 
N#C/C(=C\c1ccc([O-])cc1)C(=O)OCC(=O)c1ccc([O-])cc1[O-]

>  <Energy>  (2569) 
43.09546414759364

>  <Genealogy>  (2569) 
N#CC(=Cc1ccc([O-])cc1)C(=O)OCC(=O)c1ccc([O-])cc1[O-] (protonated)
N#C/C(=C\c1ccc([O-])cc1)C(=O)OCC(=O)c1ccc([O-])cc1[O-] (cis-trans isomerization)
N#C/C(=C\c1ccc([O-])cc1)C(=O)OCC(=O)c1ccc([O-])cc1[O-] (3D coordinates assigned)
N#C/C(=C\c1ccc([O-])cc1)C(=O)OCC(=O)c1ccc([O-])cc1[O-] (optimized conformer: 43.09546414759364 kcal/mol)

>  <smiles>  (2569) 
N#CC(=Cc1ccc(O)cc1)C(=O)OCC(=O)c1ccc(O)cc1O

>  <score_type>  (2569) 
oracle

>  <origin>  (2569) 
adg

>  <m_score__min__energy>  (2569) 
-14.9

>  <m_primary>  (2569) 
energy

$$$$
37:0
     RDKit          3D

 30 32  0  0  0  0  0  0  0  0999 V2000
   53.9500   29.0420   54.5130 C   0  0  0  0  0  0  0  0  0  0  0  0
   54.4410   29.6110   53.4010 C   0  0  0  0  0  0  0  0  0  0  0  0
   53.7110   30.2400   52.3780 C   0  0  0  0  0  0  0  0  0  0  0  0
   52.3860   30.3000   52.1410 C   0  0  0  0  0  0  0  0  0  0  0  0
   51.4970   31.4110   52.5090 C   0  0  0  0  0  0  0  0  0  0  0  0
   51.2530   31.7800   53.7790 N   0  0  0  0  0  0  0  0  0  0  0  0
   50.5070   32.8970   53.6420 C   0  0  0  0  0  0  0  0  0  0  0  0
   50.0620   33.5400   54.6280 O   0  0  0  0  0  0  0  0  0  0  0  0
   50.2850   33.2790   52.3660 N   0  0  0  0  0  0  0  0  0  0  0  0
   50.9310   32.3360   51.6600 C   0  0  0  0  0  0  0  0  0  0  0  0
   51.0250   32.3380   50.2750 O   0  0  0  0  0  0  0  0  0  0  0  0
   54.6450   30.8340   51.5480 C   0  0  0  0  0  0  0  0  0  0  0  0
   55.8910   30.5080   52.0410 C   0  0  0  0  0  0  0  0  0  0  0  0
   57.1620   30.8710   51.3840 C   0  0  0  0  0  0  0  0  0  0  0  0
   57.7500   30.0060   50.6790 O   0  0  0  0  0  0  0  0  0  0  0  0
   57.7250   32.1930   51.5190 N   0  0  0  0  0  0  0  0  0  0  0  0
   58.7090   32.6970   50.5540 C   0  0  0  0  0  0  0  0  0  0  0  0
   60.0270   33.0660   51.2640 C   0  0  0  0  0  0  0  0  0  0  0  0
   59.8530   33.4870   52.6800 N   0  0  0  0  0  0  0  0  0  0  0  0
   60.1920   32.4120   53.6400 C   0  0  0  0  0  0  0  0  0  0  0  0
   61.3230   31.5290   53.0990 C   0  0  0  0  0  0  0  0  0  0  0  0
   60.9010   29.7860   53.1290 S   0  0  0  0  0  0  0  0  0  0  0  0
   59.7770   29.5840   54.1070 O   0  0  0  0  0  0  0  0  0  0  0  0
   62.0920   28.9960   53.5950 O   0  0  0  0  0  0  0  0  0  0  0  0
   60.3910   29.1670   51.5310 C   0  0  0  0  0  0  0  0  0  0  0  0
   61.5240   28.4270   50.8310 C   0  0  0  0  0  0  0  0  0  0  0  0
   58.5140   34.0600   52.9370 C   0  0  0  0  0  0  0  0  0  0  0  0
   57.4050   33.0260   52.6850 C   0  0  0  0  0  0  0  0  0  0  0  0
   55.7710   29.7650   53.1670 N   0  0  0  0  0  0  0  0  0  0  0  0
   56.8650   29.3020   54.0300 C   0  0  0  0  0  0  0  0  0  0  0  0
  1  2  2  0
  2  3  1  0
  3  4  2  3
  4  5  1  0
  5  6  1  0
  6  7  1  0
  7  8  2  0
  7  9  1  0
  9 10  1  0
 10 11  1  0
  3 12  1  0
 12 13  2  0
 13 14  1  0
 14 15  2  0
 14 16  1  0
 16 17  1  0
 17 18  1  0
 18 19  1  0
 19 20  1  0
 20 21  1  0
 21 22  1  0
 22 23  2  0
 22 24  2  0
 22 25  1  0
 25 26  1  0
 19 27  1  0
 27 28  1  0
 13 29  1  0
 29 30  1  0
 29  2  1  0
 10  5  2  0
 28 16  1  0
M  CHG  3   6  -1   9  -1  11  -1
M  END
>  <UniqueID>  (2570) 
35

>  <SMILES>  (2570) 
C=c1c(=Cc2[n-]c(=O)[n-]c2[O-])cc(C(=O)N2CCN(CCS(=O)(=O)CC)CC2)n1C

>  <Energy>  (2570) 
127.20759963564596

>  <Genealogy>  (2570) 
C=c1c(=Cc2[n-]c(=O)[n-]c2[O-])cc(C(=O)N2CCN(CCS(=O)(=O)CC)CC2)n1C (protonated)
C=c1c(=Cc2[n-]c(=O)[n-]c2[O-])cc(C(=O)N2CCN(CCS(=O)(=O)CC)CC2)n1C (3D coordinates assigned)
C=c1c(=Cc2[n-]c(=O)[n-]c2[O-])cc(C(=O)N2CCN(CCS(=O)(=O)CC)CC2)n1C (nonaromatic ring conformer: 127.20759963564596 kcal/mol)

>  <smiles>  (2570) 
C=c1c(=Cc2[nH]c(=O)[nH]c2O)cc(C(=O)N2CCN(CCS(=O)(=O)CC)CC2)n1C

>  <score_type>  (2570) 
oracle

>  <origin>  (2570) 
adg

>  <m_score__min__energy>  (2570) 
-18.07

>  <m_primary>  (2570) 
energy

$$$$
38:0
     RDKit          3D

 28 30  0  0  0  0  0  0  0  0999 V2000
   60.6250   27.9210   45.3200 C   0  0  0  0  0  0  0  0  0  0  0  0
   59.3640   27.5230   46.0220 C   0  0  0  0  0  0  0  0  0  0  0  0
   58.3590   26.7430   45.4860 C   0  0  0  0  0  0  0  0  0  0  0  0
   57.3810   26.7180   46.4670 C   0  0  0  0  0  0  0  0  0  0  0  0
   56.0860   26.0130   46.3630 C   0  0  0  0  0  0  0  0  0  0  0  0
   55.0730   26.6650   45.9950 O   0  0  0  0  0  0  0  0  0  0  0  0
   55.9180   24.6200   46.6700 N   0  0  0  0  0  0  0  0  0  0  0  0
   54.9020   23.7130   46.1450 C   0  0  0  0  0  0  0  0  0  0  0  0
   55.3110   23.1960   44.8350 C   0  0  0  0  0  0  0  0  0  0  0  0
   55.6340   22.7890   43.8010 N   0  0  0  0  0  0  0  0  0  0  0  0
   57.7850   27.4460   47.5260 N   0  0  0  0  0  0  0  0  0  0  0  0
   58.9890   27.9250   47.2570 N   0  0  0  0  0  0  0  0  0  0  0  0
   59.7030   28.8310   48.1540 C   0  0  0  0  0  0  0  0  0  0  0  0
   59.8230   30.1900   47.5230 C   0  0  0  0  0  0  0  0  0  0  0  0
   60.9690   30.9640   47.7450 C   0  0  0  0  0  0  0  0  0  0  0  0
   61.0780   32.2420   47.1950 C   0  0  0  0  0  0  0  0  0  0  0  0
   60.0350   32.7700   46.4220 C   0  0  0  0  0  0  0  0  0  0  0  0
   60.1450   34.0550   45.8740 C   0  0  0  0  0  0  0  0  0  0  0  0
   59.1070   34.5830   45.1090 C   0  0  0  0  0  0  0  0  0  0  0  0
   57.9480   33.8400   44.8860 C   0  0  0  0  0  0  0  0  0  0  0  0
   57.8070   32.5480   45.4260 C   0  0  0  0  0  0  0  0  0  0  0  0
   56.6120   31.7780   45.2090 N   0  0  0  0  0  0  0  0  0  0  0  0
   56.5120   30.3130   44.2890 S   0  0  0  0  0  0  0  0  0  0  0  0
   55.2020   29.3440   44.8650 N   0  0  0  0  0  0  0  0  0  0  0  0
   57.7940   29.5480   44.4470 O   0  0  0  0  0  0  0  0  0  0  0  0
   56.3080   30.6380   42.8360 O   0  0  0  0  0  0  0  0  0  0  0  0
   58.8610   32.0050   46.1970 C   0  0  0  0  0  0  0  0  0  0  0  0
   58.7720   30.7140   46.7560 C   0  0  0  0  0  0  0  0  0  0  0  0
  1  2  1  0
  2  3  2  0
  3  4  1  0
  4  5  1  0
  5  6  2  0
  5  7  1  0
  7  8  1  0
  8  9  1  0
  9 10  3  0
  4 11  2  0
 11 12  1  0
 12 13  1  0
 13 14  1  0
 14 15  2  0
 15 16  1  0
 16 17  2  0
 17 18  1  0
 18 19  2  0
 19 20  1  0
 20 21  2  0
 21 22  1  0
 22 23  1  0
 23 24  1  0
 23 25  2  0
 23 26  2  0
 21 27  1  0
 27 28  2  0
 12  2  1  0
 28 14  1  0
 27 17  1  0
M  CHG  3   7  -1  22  -1  24  -1
M  END
>  <UniqueID>  (2571) 
36

>  <SMILES>  (2571) 
Cc1cc(C(=O)[N-]CC#N)nn1Cc1ccc2cccc([N-]S([NH-])(=O)=O)c2c1

>  <Energy>  (2571) 
75.79841411189363

>  <Genealogy>  (2571) 
Cc1cc(C(=O)[N-]CC#N)nn1Cc1ccc2cccc([N-]S([NH-])(=O)=O)c2c1 (protonated)
Cc1cc(C(=O)[N-]CC#N)nn1Cc1ccc2cccc([N-]S([NH-])(=O)=O)c2c1 (3D coordinates assigned)
Cc1cc(C(=O)[N-]CC#N)nn1Cc1ccc2cccc([N-]S([NH-])(=O)=O)c2c1 (optimized conformer: 75.79841411189363 kcal/mol)

>  <smiles>  (2571) 
Cc1cc(C(=O)NCC#N)nn1Cc1ccc2cccc(NS(N)(=O)=O)c2c1

>  <score_type>  (2571) 
oracle

>  <origin>  (2571) 
adg

>  <m_score__min__energy>  (2571) 
-15.630000000000001

>  <m_primary>  (2571) 
energy

$$$$
41:0
     RDKit          3D

 25 27  0  0  0  0  0  0  0  0999 V2000
   53.6390   22.6030   46.9980 C   0  0  0  0  0  0  0  0  0  0  0  0
   54.9120   22.5230   47.3940 C   0  0  0  0  0  0  0  0  0  0  0  0
   55.2750   21.7880   48.4610 N   0  0  0  0  0  0  0  0  0  0  0  0
   56.6200   21.8380   48.4430 C   0  0  0  0  0  0  0  0  0  0  0  0
   57.3350   21.2520   49.2960 O   0  0  0  0  0  0  0  0  0  0  0  0
   57.1390   22.5620   47.4320 N   0  0  0  0  0  0  0  0  0  0  0  0
   56.0610   23.0250   46.7700 C   0  0  0  0  0  0  0  0  0  0  0  0
   56.1960   23.8350   45.7050 C   0  0  0  0  0  0  0  0  0  0  0  0
   56.9560   25.0930   45.6730 C   0  0  0  0  0  0  0  0  0  0  0  0
   58.3050   25.1470   45.6680 N   0  0  0  0  0  0  0  0  0  0  0  0
   58.5730   26.4650   45.7880 C   0  0  0  0  0  0  0  0  0  0  0  0
   59.7470   26.9220   45.8300 O   0  0  0  0  0  0  0  0  0  0  0  0
   57.4700   27.2390   45.8850 N   0  0  0  0  0  0  0  0  0  0  0  0
   57.4000   28.6750   46.1440 C   0  0  0  0  0  0  0  0  0  0  0  0
   56.7870   29.5340   44.7040 S   0  0  0  0  0  0  0  0  0  0  0  0
   57.1600   28.7660   43.4670 O   0  0  0  0  0  0  0  0  0  0  0  0
   55.2880   29.6300   44.7740 O   0  0  0  0  0  0  0  0  0  0  0  0
   57.4830   31.1490   44.6290 C   0  0  0  0  0  0  0  0  0  0  0  0
   57.7830   31.8410   45.8110 C   0  0  0  0  0  0  0  0  0  0  0  0
   58.3000   33.1390   45.7520 C   0  0  0  0  0  0  0  0  0  0  0  0
   58.5130   33.7530   44.5140 C   0  0  0  0  0  0  0  0  0  0  0  0
   58.2070   33.0700   43.3330 C   0  0  0  0  0  0  0  0  0  0  0  0
   57.6920   31.7710   43.3890 C   0  0  0  0  0  0  0  0  0  0  0  0
   56.4510   26.3660   45.8420 C   0  0  0  0  0  0  0  0  0  0  0  0
   55.1110   26.7090   45.9910 O   0  0  0  0  0  0  0  0  0  0  0  0
  1  2  2  0
  2  3  1  0
  3  4  1  0
  4  5  2  0
  4  6  1  0
  6  7  1  0
  7  8  2  3
  8  9  1  0
  9 10  1  0
 10 11  1  0
 11 12  2  0
 11 13  1  0
 13 14  1  0
 14 15  1  0
 15 16  2  0
 15 17  2  0
 15 18  1  0
 18 19  2  0
 19 20  1  0
 20 21  2  0
 21 22  1  0
 22 23  2  0
 13 24  1  0
 24 25  1  0
  7  2  1  0
 24  9  2  0
 23 18  1  0
M  CHG  4   3  -1   6  -1  10  -1  25  -1
M  END
>  <UniqueID>  (2572) 
38

>  <SMILES>  (2572) 
C=c1[n-]c(=O)[n-]c1=Cc1[n-]c(=O)n(CS(=O)(=O)c2ccccc2)c1[O-]

>  <Energy>  (2572) 
105.90560607480897

>  <Genealogy>  (2572) 
C=c1[n-]c(=O)[n-]c1=Cc1[n-]c(=O)n(CS(=O)(=O)c2ccccc2)c1[O-] (protonated)
C=c1[n-]c(=O)[n-]c1=Cc1[n-]c(=O)n(CS(=O)(=O)c2ccccc2)c1[O-] (3D coordinates assigned)
C=c1[n-]c(=O)[n-]c1=Cc1[n-]c(=O)n(CS(=O)(=O)c2ccccc2)c1[O-] (optimized conformer: 105.90560607480897 kcal/mol)

>  <smiles>  (2572) 
C=c1[nH]c(=O)[nH]c1=Cc1[nH]c(=O)n(CS(=O)(=O)c2ccccc2)c1O

>  <score_type>  (2572) 
oracle

>  <origin>  (2572) 
adg

>  <m_score__min__energy>  (2572) 
-16.140000000000001

>  <m_primary>  (2572) 
energy

$$$$
44:0
     RDKit          3D

 28 30  0  0  0  0  0  0  0  0999 V2000
   55.1290   29.3160   44.7940 N   0  0  0  0  0  0  0  0  0  0  0  0
   56.6730   30.0580   44.5700 S   0  0  0  0  0  0  0  0  0  0  0  0
   57.1180   29.8620   43.1480 O   0  0  0  0  0  0  0  0  0  0  0  0
   56.5680   31.5320   44.8430 O   0  0  0  0  0  0  0  0  0  0  0  0
   57.8410   29.3300   45.6690 C   0  0  0  0  0  0  0  0  0  0  0  0
   58.5980   30.1350   46.5290 C   0  0  0  0  0  0  0  0  0  0  0  0
   59.5370   29.5550   47.3840 C   0  0  0  0  0  0  0  0  0  0  0  0
   59.7270   28.1700   47.3880 C   0  0  0  0  0  0  0  0  0  0  0  0
   58.9650   27.3480   46.5330 C   0  0  0  0  0  0  0  0  0  0  0  0
   59.1240   25.9190   46.4770 N   0  0  0  0  0  0  0  0  0  0  0  0
   58.2570   25.0270   46.8490 C   0  0  0  0  0  0  0  0  0  0  0  0
   57.5760   24.1450   45.8610 C   0  0  0  0  0  0  0  0  0  0  0  0
   56.2260   24.3270   45.4870 C   0  0  0  0  0  0  0  0  0  0  0  0
   55.4790   25.3610   46.0470 O   0  0  0  0  0  0  0  0  0  0  0  0
   55.6170   23.4680   44.5460 C   0  0  0  0  0  0  0  0  0  0  0  0
   54.1770   23.7190   44.1430 C   0  0  0  0  0  0  0  0  0  0  0  0
   53.2310   23.2820   45.2330 C   0  0  0  0  0  0  0  0  0  0  0  0
   53.7090   22.5860   46.3570 C   0  0  0  0  0  0  0  0  0  0  0  0
   52.8240   22.1620   47.3530 C   0  0  0  0  0  0  0  0  0  0  0  0
   51.4570   22.4260   47.2370 C   0  0  0  0  0  0  0  0  0  0  0  0
   50.9720   23.1160   46.1230 C   0  0  0  0  0  0  0  0  0  0  0  0
   51.8530   23.5410   45.1240 C   0  0  0  0  0  0  0  0  0  0  0  0
   56.3960   22.4290   43.9820 C   0  0  0  0  0  0  0  0  0  0  0  0
   55.8970   21.5280   43.0380 O   0  0  0  0  0  0  0  0  0  0  0  0
   57.6910   22.2810   44.3620 N   0  0  0  0  0  0  0  0  0  0  0  0
   58.2930   23.0900   45.2670 C   0  0  0  0  0  0  0  0  0  0  0  0
   59.5000   22.8810   45.5620 O   0  0  0  0  0  0  0  0  0  0  0  0
   58.0360   27.9420   45.6670 C   0  0  0  0  0  0  0  0  0  0  0  0
  1  2  1  0
  2  3  2  0
  2  4  2  0
  2  5  1  0
  5  6  2  0
  6  7  1  0
  7  8  2  0
  8  9  1  0
  9 10  1  0
 10 11  2  3
 11 12  1  0
 12 13  2  0
 13 14  1  0
 13 15  1  0
 15 16  1  0
 16 17  1  0
 17 18  2  0
 18 19  1  0
 19 20  2  0
 20 21  1  0
 21 22  2  0
 15 23  2  0
 23 24  1  0
 23 25  1  0
 25 26  1  0
 26 27  2  0
  9 28  2  0
 28  5  1  0
 26 12  1  0
 22 17  1  0
M  CHG  3   1  -1  14  -1  25  -1
M  END
>  <UniqueID>  (2573) 
41

>  <SMILES>  (2573) 
[NH-]S(=O)(=O)c1cccc(N=Cc2c([O-])c(Cc3ccccc3)c(O)[n-]c2=O)c1

>  <Energy>  (2573) 
54.218828449407454

>  <Genealogy>  (2573) 
[NH-]S(=O)(=O)c1cccc(N=Cc2c([O-])c(Cc3ccccc3)c(O)[n-]c2=O)c1 (protonated)
[NH-]S(=O)(=O)c1cccc(N=Cc2c([O-])c(Cc3ccccc3)c(O)[n-]c2=O)c1 (3D coordinates assigned)
[NH-]S(=O)(=O)c1cccc(N=Cc2c([O-])c(Cc3ccccc3)c(O)[n-]c2=O)c1 (optimized conformer: 54.218828449407454 kcal/mol)

>  <smiles>  (2573) 
NS(=O)(=O)c1cccc(N=Cc2c(O)c(Cc3ccccc3)c(O)[nH]c2=O)c1

>  <score_type>  (2573) 
oracle

>  <origin>  (2573) 
adg

>  <m_score__min__energy>  (2573) 
-14.460000000000001

>  <m_primary>  (2573) 
energy

$$$$
47:0
     RDKit          3D

 33 36  0  0  0  0  0  0  0  0999 V2000
   57.7620   21.6120   45.6250 C   0  0  0  0  0  0  0  0  0  0  0  0
   57.8020   22.9140   45.9550 C   0  0  0  0  0  0  0  0  0  0  0  0
   56.7260   23.7180   46.3680 C   0  0  0  0  0  0  0  0  0  0  0  0
   55.4730   23.3970   46.7400 C   0  0  0  0  0  0  0  0  0  0  0  0
   54.2550   23.6410   45.9500 C   0  0  0  0  0  0  0  0  0  0  0  0
   53.3970   22.6830   45.5480 N   0  0  0  0  0  0  0  0  0  0  0  0
   52.4020   23.3850   44.9630 C   0  0  0  0  0  0  0  0  0  0  0  0
   51.3980   22.8320   44.4450 O   0  0  0  0  0  0  0  0  0  0  0  0
   52.5610   24.7280   44.9880 N   0  0  0  0  0  0  0  0  0  0  0  0
   53.7310   24.8720   45.6300 C   0  0  0  0  0  0  0  0  0  0  0  0
   54.3060   26.1010   45.9230 O   0  0  0  0  0  0  0  0  0  0  0  0
   57.1940   25.0210   46.3590 C   0  0  0  0  0  0  0  0  0  0  0  0
   58.5260   24.9660   46.0060 C   0  0  0  0  0  0  0  0  0  0  0  0
   59.4180   26.1390   45.9400 C   0  0  0  0  0  0  0  0  0  0  0  0
   60.5620   26.0450   46.4630 O   0  0  0  0  0  0  0  0  0  0  0  0
   59.0140   27.3750   45.3080 N   0  0  0  0  0  0  0  0  0  0  0  0
   59.8710   28.5630   45.4710 C   0  0  0  0  0  0  0  0  0  0  0  0
   59.4950   29.6840   44.4930 C   0  0  0  0  0  0  0  0  0  0  0  0
   58.0450   29.9110   44.5130 N   0  0  0  0  0  0  0  0  0  0  0  0
   57.5200   31.2380   44.3420 C   0  0  0  0  0  0  0  0  0  0  0  0
   56.2890   31.4580   44.5210 O   0  0  0  0  0  0  0  0  0  0  0  0
   58.3730   32.2840   43.9740 O   0  0  0  0  0  0  0  0  0  0  0  0
   58.2580   33.6020   44.5030 C   0  0  0  0  0  0  0  0  0  0  0  0
   58.7560   33.6520   45.9220 C   0  0  0  0  0  0  0  0  0  0  0  0
   59.8260   34.5030   46.2580 C   0  0  0  0  0  0  0  0  0  0  0  0
   60.2690   34.5920   47.5810 C   0  0  0  0  0  0  0  0  0  0  0  0
   59.6460   33.8420   48.5810 C   0  0  0  0  0  0  0  0  0  0  0  0
   58.5660   33.0100   48.2630 C   0  0  0  0  0  0  0  0  0  0  0  0
   58.1140   32.9240   46.9430 C   0  0  0  0  0  0  0  0  0  0  0  0
   57.1190   28.7670   44.5640 C   0  0  0  0  0  0  0  0  0  0  0  0
   57.8580   27.4350   44.3970 C   0  0  0  0  0  0  0  0  0  0  0  0
   58.9060   23.6870   45.7820 N   0  0  0  0  0  0  0  0  0  0  0  0
   60.2180   23.2420   45.2930 C   0  0  0  0  0  0  0  0  0  0  0  0
  1  2  2  0
  2  3  1  0
  3  4  2  0
  4  5  1  0
  5  6  1  0
  6  7  1  0
  7  8  2  0
  7  9  1  0
  9 10  1  0
 10 11  1  0
  3 12  1  0
 12 13  2  0
 13 14  1  0
 14 15  2  0
 14 16  1  0
 16 17  1  0
 17 18  1  0
 18 19  1  0
 19 20  1  0
 20 21  2  0
 20 22  1  0
 22 23  1  0
 23 24  1  0
 24 25  2  0
 25 26  1  0
 26 27  2  0
 27 28  1  0
 28 29  2  0
 19 30  1  0
 30 31  1  0
 13 32  1  0
 32 33  1  0
 32  2  1  0
 10  5  2  0
 31 16  1  0
 29 24  1  0
M  CHG  3   6  -1   9  -1  11  -1
M  END
>  <UniqueID>  (2574) 
44

>  <SMILES>  (2574) 
C=c1/c(=C\c2[n-]c(=O)[n-]c2[O-])cc(C(=O)N2CCN(C(=O)OCc3ccccc3)CC2)n1C

>  <Energy>  (2574) 
132.48900562392856

>  <Genealogy>  (2574) 
C=c1c(=Cc2[n-]c(=O)[n-]c2[O-])cc(C(=O)N2CCN(C(=O)OCc3ccccc3)CC2)n1C (protonated)
C=c1/c(=C\c2[n-]c(=O)[n-]c2[O-])cc(C(=O)N2CCN(C(=O)OCc3ccccc3)CC2)n1C (cis-trans isomerization)
C=c1/c(=C\c2[n-]c(=O)[n-]c2[O-])cc(C(=O)N2CCN(C(=O)OCc3ccccc3)CC2)n1C (3D coordinates assigned)
C=c1/c(=C\c2[n-]c(=O)[n-]c2[O-])cc(C(=O)N2CCN(C(=O)OCc3ccccc3)CC2)n1C (nonaromatic ring conformer: 132.48900562392856 kcal/mol)

>  <smiles>  (2574) 
C=c1c(=Cc2[nH]c(=O)[nH]c2O)cc(C(=O)N2CCN(C(=O)OCc3ccccc3)CC2)n1C

>  <score_type>  (2574) 
oracle

>  <origin>  (2574) 
adg

>  <m_score__min__energy>  (2574) 
-17.620000000000001

>  <m_primary>  (2574) 
energy

$$$$
51:0
     RDKit          3D

 29 31  0  0  0  0  0  0  0  0999 V2000
   60.4410   28.9450   47.2570 C   0  0  0  0  0  0  0  0  0  0  0  0
   59.6370   29.6150   46.4100 C   0  0  0  0  0  0  0  0  0  0  0  0
   58.6880   29.0350   45.5640 C   0  0  0  0  0  0  0  0  0  0  0  0
   58.4460   27.7470   45.2410 C   0  0  0  0  0  0  0  0  0  0  0  0
   57.2400   26.9820   45.5890 C   0  0  0  0  0  0  0  0  0  0  0  0
   57.2680   25.7380   46.0970 N   0  0  0  0  0  0  0  0  0  0  0  0
   55.9710   25.4860   46.3790 C   0  0  0  0  0  0  0  0  0  0  0  0
   55.5830   24.3910   46.8650 O   0  0  0  0  0  0  0  0  0  0  0  0
   55.1240   26.5020   46.1100 N   0  0  0  0  0  0  0  0  0  0  0  0
   55.9450   27.4480   45.6250 C   0  0  0  0  0  0  0  0  0  0  0  0
   55.5220   28.7180   45.2510 O   0  0  0  0  0  0  0  0  0  0  0  0
   57.9920   30.0770   44.9990 C   0  0  0  0  0  0  0  0  0  0  0  0
   58.5470   31.2700   45.4490 C   0  0  0  0  0  0  0  0  0  0  0  0
   58.1510   32.6440   44.8460 C   0  0  0  0  0  0  0  0  0  0  0  0
   56.9160   33.2230   45.5870 C   0  0  0  0  0  0  0  0  0  0  0  0
   59.2660   33.7070   44.9590 C   0  0  0  0  0  0  0  0  0  0  0  0
   57.7630   32.4550   43.3680 C   0  0  0  0  0  0  0  0  0  0  0  0
   59.5700   30.9800   46.3180 N   0  0  0  0  0  0  0  0  0  0  0  0
   60.4480   31.9290   47.0370 C   0  0  0  0  0  0  0  0  0  0  0  0
   59.9270   32.2510   48.4160 C   0  0  0  0  0  0  0  0  0  0  0  0
   60.7460   32.9290   49.3330 C   0  0  0  0  0  0  0  0  0  0  0  0
   60.2680   33.2480   50.6070 C   0  0  0  0  0  0  0  0  0  0  0  0
   58.9560   32.9200   50.9720 C   0  0  0  0  0  0  0  0  0  0  0  0
   58.3580   33.2980   52.5830 S   0  0  0  0  0  0  0  0  0  0  0  0
   58.2040   35.0090   52.7540 N   0  0  0  0  0  0  0  0  0  0  0  0
   59.3150   32.7720   53.6160 O   0  0  0  0  0  0  0  0  0  0  0  0
   57.0170   32.6540   52.7970 O   0  0  0  0  0  0  0  0  0  0  0  0
   58.1260   32.2700   50.0510 C   0  0  0  0  0  0  0  0  0  0  0  0
   58.6020   31.9490   48.7770 C   0  0  0  0  0  0  0  0  0  0  0  0
  1  2  2  0
  2  3  1  0
  3  4  2  3
  4  5  1  0
  5  6  1  0
  6  7  1  0
  7  8  2  0
  7  9  1  0
  9 10  1  0
 10 11  1  0
  3 12  1  0
 12 13  2  0
 13 14  1  0
 14 15  1  0
 14 16  1  0
 14 17  1  0
 13 18  1  0
 18 19  1  0
 19 20  1  0
 20 21  2  0
 21 22  1  0
 22 23  2  0
 23 24  1  0
 24 25  1  0
 24 26  2  0
 24 27  2  0
 23 28  1  0
 28 29  2  0
 18  2  1  0
 29 20  1  0
 10  5  2  0
M  CHG  4   6  -1   9  -1  11  -1  25  -1
M  END
>  <UniqueID>  (2575) 
48

>  <SMILES>  (2575) 
C=c1c(=Cc2[n-]c(=O)[n-]c2[O-])cc(C(C)(C)C)n1Cc1ccc(S([NH-])(=O)=O)cc1

>  <Energy>  (2575) 
128.36490974621717

>  <Genealogy>  (2575) 
C=c1c(=Cc2[n-]c(=O)[n-]c2[O-])cc(C(C)(C)C)n1Cc1ccc(S([NH-])(=O)=O)cc1 (protonated)
C=c1c(=Cc2[n-]c(=O)[n-]c2[O-])cc(C(C)(C)C)n1Cc1ccc(S([NH-])(=O)=O)cc1 (3D coordinates assigned)
C=c1c(=Cc2[n-]c(=O)[n-]c2[O-])cc(C(C)(C)C)n1Cc1ccc(S([NH-])(=O)=O)cc1 (optimized conformer: 128.36490974621717 kcal/mol)

>  <smiles>  (2575) 
C=c1c(=Cc2[nH]c(=O)[nH]c2O)cc(C(C)(C)C)n1Cc1ccc(S(N)(=O)=O)cc1

>  <score_type>  (2575) 
oracle

>  <origin>  (2575) 
adg

>  <m_score__min__energy>  (2575) 
-16.530000000000001

>  <m_primary>  (2575) 
energy

$$$$
56:0
     RDKit          3D

 34 37  0  0  0  0  0  0  0  0999 V2000
   56.0510   21.1560   43.4430 O   0  0  0  0  0  0  0  0  0  0  0  0
   56.5160   22.0900   44.1460 C   0  0  0  0  0  0  0  0  0  0  0  0
   55.6400   23.0770   44.6880 N   0  0  0  0  0  0  0  0  0  0  0  0
   56.1380   24.1550   45.4830 C   0  0  0  0  0  0  0  0  0  0  0  0
   55.3100   24.9100   46.0570 O   0  0  0  0  0  0  0  0  0  0  0  0
   57.6080   24.3250   45.6710 C   0  0  0  0  0  0  0  0  0  0  0  0
   58.1680   25.3910   46.2870 C   0  0  0  0  0  0  0  0  0  0  0  0
   57.9470   26.8040   45.9220 C   0  0  0  0  0  0  0  0  0  0  0  0
   58.9800   27.7480   46.0420 C   0  0  0  0  0  0  0  0  0  0  0  0
   58.7430   29.0930   45.7450 C   0  0  0  0  0  0  0  0  0  0  0  0
   57.4620   29.5170   45.3430 C   0  0  0  0  0  0  0  0  0  0  0  0
   57.1790   30.8550   45.0330 O   0  0  0  0  0  0  0  0  0  0  0  0
   57.2770   31.4210   43.7280 C   0  0  0  0  0  0  0  0  0  0  0  0
   57.8090   32.8510   43.8250 C   0  0  0  0  0  0  0  0  0  0  0  0
   58.5330   33.0510   45.0990 N   0  0  0  0  0  0  0  0  0  0  0  0
   59.6430   34.0140   44.9510 C   0  0  0  0  0  0  0  0  0  0  0  0
   60.5490   33.9180   46.1830 C   0  0  0  0  0  0  0  0  0  0  0  0
   59.7500   33.7020   47.3990 N   0  0  0  0  0  0  0  0  0  0  0  0
   60.3090   32.9900   48.5210 C   0  0  0  0  0  0  0  0  0  0  0  0
   59.5850   32.1830   49.1660 O   0  0  0  0  0  0  0  0  0  0  0  0
   61.7210   33.1660   48.9240 C   0  0  0  0  0  0  0  0  0  0  0  0
   62.0510   33.8860   50.0860 C   0  0  0  0  0  0  0  0  0  0  0  0
   63.3880   34.0390   50.4640 C   0  0  0  0  0  0  0  0  0  0  0  0
   64.4050   33.4680   49.6940 C   0  0  0  0  0  0  0  0  0  0  0  0
   64.0850   32.7360   48.5480 C   0  0  0  0  0  0  0  0  0  0  0  0
   62.7500   32.5800   48.1660 C   0  0  0  0  0  0  0  0  0  0  0  0
   58.3330   34.0860   47.3910 C   0  0  0  0  0  0  0  0  0  0  0  0
   57.6050   33.4780   46.1730 C   0  0  0  0  0  0  0  0  0  0  0  0
   56.4270   28.5760   45.2540 C   0  0  0  0  0  0  0  0  0  0  0  0
   55.1520   28.9780   44.8710 O   0  0  0  0  0  0  0  0  0  0  0  0
   56.6660   27.2300   45.5520 C   0  0  0  0  0  0  0  0  0  0  0  0
   58.4770   23.2270   45.1690 C   0  0  0  0  0  0  0  0  0  0  0  0
   59.7190   23.2330   45.3870 O   0  0  0  0  0  0  0  0  0  0  0  0
   57.9150   22.1540   44.4110 N   0  0  0  0  0  0  0  0  0  0  0  0
  1  2  2  0
  2  3  1  0
  3  4  1  0
  4  5  2  0
  4  6  1  0
  6  7  2  3
  7  8  1  0
  8  9  2  0
  9 10  1  0
 10 11  2  0
 11 12  1  0
 12 13  1  0
 13 14  1  0
 14 15  1  0
 15 16  1  0
 16 17  1  0
 17 18  1  0
 18 19  1  0
 19 20  2  0
 19 21  1  0
 21 22  2  0
 22 23  1  0
 23 24  2  0
 24 25  1  0
 25 26  2  0
 18 27  1  0
 27 28  1  0
 11 29  1  0
 29 30  1  0
 29 31  2  0
  6 32  1  0
 32 33  2  0
 32 34  1  0
 34  2  1  0
 31  8  1  0
 28 15  1  0
 26 21  1  0
M  CHG  3   3  -1  30  -1  34  -1
M  END
>  <UniqueID>  (2576) 
52

>  <SMILES>  (2576) 
O=C1[N-]C(=O)C(=Cc2ccc(OCCN3CCN(C(=O)c4ccccc4)CC3)c([O-])c2)C(=O)[N-]1

>  <Energy>  (2576) 
76.6706103575863

>  <Genealogy>  (2576) 
O=C1[N-]C(=O)C(=Cc2ccc(OCCN3CCN(C(=O)c4ccccc4)CC3)c([O-])c2)C(=O)[N-]1 (protonated)
O=C1[N-]C(=O)C(=Cc2ccc(OCCN3CCN(C(=O)c4ccccc4)CC3)c([O-])c2)C(=O)[N-]1 (3D coordinates assigned)
O=C1[N-]C(=O)C(=Cc2ccc(OCCN3CCN(C(=O)c4ccccc4)CC3)c([O-])c2)C(=O)[N-]1 (nonaromatic ring conformer: 76.6706103575863 kcal/mol)

>  <smiles>  (2576) 
O=C1NC(=O)C(=Cc2ccc(OCCN3CCN(C(=O)c4ccccc4)CC3)c(O)c2)C(=O)N1

>  <score_type>  (2576) 
oracle

>  <origin>  (2576) 
adg

>  <m_score__min__energy>  (2576) 
-16.870000000000001

>  <m_primary>  (2576) 
energy

$$$$
77:0
     RDKit          3D

 25 27  0  0  0  0  0  0  0  0999 V2000
   58.9520   30.2840   46.6080 C   0  0  0  0  0  0  0  0  0  0  0  0
   58.1750   29.6820   45.6930 C   0  0  0  0  0  0  0  0  0  0  0  0
   57.7760   28.3390   45.6890 C   0  0  0  0  0  0  0  0  0  0  0  0
   58.0710   27.4060   46.6210 C   0  0  0  0  0  0  0  0  0  0  0  0
   57.3630   26.1200   46.8180 C   0  0  0  0  0  0  0  0  0  0  0  0
   57.9010   24.9820   47.2920 N   0  0  0  0  0  0  0  0  0  0  0  0
   56.8730   24.1090   47.2610 C   0  0  0  0  0  0  0  0  0  0  0  0
   56.9880   22.9130   47.6370 O   0  0  0  0  0  0  0  0  0  0  0  0
   55.7130   24.6140   46.7940 N   0  0  0  0  0  0  0  0  0  0  0  0
   56.0410   25.8870   46.5160 C   0  0  0  0  0  0  0  0  0  0  0  0
   55.1480   26.8170   45.9970 O   0  0  0  0  0  0  0  0  0  0  0  0
   57.0220   28.1670   44.5310 C   0  0  0  0  0  0  0  0  0  0  0  0
   56.9980   29.3870   43.8860 C   0  0  0  0  0  0  0  0  0  0  0  0
   56.2270   29.6750   42.6330 C   0  0  0  0  0  0  0  0  0  0  0  0
   57.6820   30.3080   44.5960 N   0  0  0  0  0  0  0  0  0  0  0  0
   57.7880   31.7020   44.2650 C   0  0  0  0  0  0  0  0  0  0  0  0
   58.3950   32.0500   43.2160 O   0  0  0  0  0  0  0  0  0  0  0  0
   57.0850   32.7340   45.0960 C   0  0  0  0  0  0  0  0  0  0  0  0
   58.0980   33.6010   45.7910 C   0  0  0  0  0  0  0  0  0  0  0  0
   58.7560   34.6190   45.0790 C   0  0  0  0  0  0  0  0  0  0  0  0
   59.6580   35.4660   45.7290 C   0  0  0  0  0  0  0  0  0  0  0  0
   59.9040   35.3110   47.0960 C   0  0  0  0  0  0  0  0  0  0  0  0
   59.2450   34.3110   47.8160 C   0  0  0  0  0  0  0  0  0  0  0  0
   58.3430   33.4590   47.1710 C   0  0  0  0  0  0  0  0  0  0  0  0
   57.6990   32.5070   47.8940 F   0  0  0  0  0  0  0  0  0  0  0  0
  1  2  2  0
  2  3  1  0
  3  4  2  0
  4  5  1  0
  5  6  1  0
  6  7  1  0
  7  8  2  0
  7  9  1  0
  9 10  1  0
 10 11  1  0
  3 12  1  0
 12 13  2  0
 13 14  1  0
 13 15  1  0
 15 16  1  0
 16 17  2  0
 16 18  1  0
 18 19  1  0
 19 20  2  0
 20 21  1  0
 21 22  2  0
 22 23  1  0
 23 24  2  0
 24 25  1  0
 15  2  1  0
 24 19  1  0
 10  5  2  0
M  CHG  3   6  -1   9  -1  11  -1
M  END
>  <UniqueID>  (2577) 
72

>  <SMILES>  (2577) 
C=c1/c(=C/c2[n-]c(=O)[n-]c2[O-])cc(C)n1C(=O)Cc1ccccc1F

>  <Energy>  (2577) 
105.81879097058957

>  <Genealogy>  (2577) 
C=c1c(=Cc2[n-]c(=O)[n-]c2[O-])cc(C)n1C(=O)Cc1ccccc1F (protonated)
C=c1/c(=C/c2[n-]c(=O)[n-]c2[O-])cc(C)n1C(=O)Cc1ccccc1F (cis-trans isomerization)
C=c1/c(=C/c2[n-]c(=O)[n-]c2[O-])cc(C)n1C(=O)Cc1ccccc1F (3D coordinates assigned)
C=c1/c(=C/c2[n-]c(=O)[n-]c2[O-])cc(C)n1C(=O)Cc1ccccc1F (optimized conformer: 105.81879097058957 kcal/mol)

>  <smiles>  (2577) 
C=c1c(=Cc2[nH]c(=O)[nH]c2O)cc(C)n1C(=O)Cc1ccccc1F

>  <score_type>  (2577) 
oracle

>  <origin>  (2577) 
adg

>  <m_score__min__energy>  (2577) 
-15.65

>  <m_primary>  (2577) 
energy

$$$$
21:0
     RDKit          3D

 31 34  0  0  0  0  0  0  0  0999 V2000
   56.6840   29.2320   42.8950 C   0  0  0  0  0  0  0  0  0  0  0  0
   57.4710   29.1310   43.9790 C   0  0  0  0  0  0  0  0  0  0  0  0
   57.8720   27.9450   44.6170 C   0  0  0  0  0  0  0  0  0  0  0  0
   57.4840   26.6660   44.4410 C   0  0  0  0  0  0  0  0  0  0  0  0
   57.0410   25.7460   45.4990 C   0  0  0  0  0  0  0  0  0  0  0  0
   57.8290   24.8030   46.0420 N   0  0  0  0  0  0  0  0  0  0  0  0
   57.0700   24.2980   47.0390 C   0  0  0  0  0  0  0  0  0  0  0  0
   57.4640   23.3630   47.7830 O   0  0  0  0  0  0  0  0  0  0  0  0
   55.8600   24.8820   47.1830 N   0  0  0  0  0  0  0  0  0  0  0  0
   55.8640   25.8070   46.2110 C   0  0  0  0  0  0  0  0  0  0  0  0
   54.8250   26.7040   45.9950 O   0  0  0  0  0  0  0  0  0  0  0  0
   58.8140   28.3130   45.5580 C   0  0  0  0  0  0  0  0  0  0  0  0
   58.9190   29.6870   45.5130 C   0  0  0  0  0  0  0  0  0  0  0  0
   59.8130   30.4690   46.3880 C   0  0  0  0  0  0  0  0  0  0  0  0
   59.5030   30.6750   47.5910 O   0  0  0  0  0  0  0  0  0  0  0  0
   58.1000   30.1940   44.5550 N   0  0  0  0  0  0  0  0  0  0  0  0
   58.0320   31.6020   44.1230 C   0  0  0  0  0  0  0  0  0  0  0  0
   57.4330   32.4920   45.2220 C   0  0  0  0  0  0  0  0  0  0  0  0
   58.4970   33.2260   45.9390 N   0  0  0  0  0  0  0  0  0  0  0  0
   58.1510   33.4520   47.3520 C   0  0  0  0  0  0  0  0  0  0  0  0
   59.3840   33.9790   48.1160 C   0  0  0  0  0  0  0  0  0  0  0  0
   60.3490   34.7030   47.2520 N   0  0  0  0  0  0  0  0  0  0  0  0
   61.4340   33.8240   46.7560 C   0  0  0  0  0  0  0  0  0  0  0  0
   62.3940   33.4660   47.8590 C   0  0  0  0  0  0  0  0  0  0  0  0
   63.2450   32.3580   47.7210 C   0  0  0  0  0  0  0  0  0  0  0  0
   64.1290   32.0160   48.7490 C   0  0  0  0  0  0  0  0  0  0  0  0
   64.1680   32.7770   49.9210 C   0  0  0  0  0  0  0  0  0  0  0  0
   63.3210   33.8800   50.0670 C   0  0  0  0  0  0  0  0  0  0  0  0
   62.4360   34.2260   49.0410 C   0  0  0  0  0  0  0  0  0  0  0  0
   59.6590   35.4360   46.1690 C   0  0  0  0  0  0  0  0  0  0  0  0
   58.8060   34.5090   45.2750 C   0  0  0  0  0  0  0  0  0  0  0  0
  1  2  2  0
  2  3  1  0
  3  4  2  3
  4  5  1  0
  5  6  1  0
  6  7  1  0
  7  8  2  0
  7  9  1  0
  9 10  1  0
 10 11  1  0
  3 12  1  0
 12 13  2  0
 13 14  1  0
 14 15  2  0
 13 16  1  0
 16 17  1  0
 17 18  1  0
 18 19  1  0
 19 20  1  0
 20 21  1  0
 21 22  1  0
 22 23  1  0
 23 24  1  0
 24 25  2  0
 25 26  1  0
 26 27  2  0
 27 28  1  0
 28 29  2  0
 22 30  1  0
 30 31  1  0
 16  2  1  0
 31 19  1  0
 10  5  2  0
 29 24  1  0
M  CHG  3   6  -1   9  -1  11  -1
M  END
>  <UniqueID>  (2578) 
22

>  <SMILES>  (2578) 
C=c1c(=Cc2[n-]c(=O)[n-]c2[O-])cc(C=O)n1CCN1CCN(Cc2ccccc2)CC1

>  <Energy>  (2578) 
136.0845644618552

>  <Genealogy>  (2578) 
C=c1c(=Cc2[n-]c(=O)[n-]c2[O-])cc(C=O)n1CCN1CCN(Cc2ccccc2)CC1 (protonated)
C=c1c(=Cc2[n-]c(=O)[n-]c2[O-])cc(C=O)n1CCN1CCN(Cc2ccccc2)CC1 (3D coordinates assigned)
C=c1c(=Cc2[n-]c(=O)[n-]c2[O-])cc(C=O)n1CCN1CCN(Cc2ccccc2)CC1 (nonaromatic ring conformer: 136.0845644618552 kcal/mol)

>  <smiles>  (2578) 
C=c1c(=Cc2[nH]c(=O)[nH]c2O)cc(C=O)n1CCN1CCN(Cc2ccccc2)CC1

>  <score_type>  (2578) 
oracle

>  <origin>  (2578) 
adg

>  <m_score__min__energy>  (2578) 
-17.539999999999999

>  <m_primary>  (2578) 
energy

$$$$
28:0
     RDKit          3D

 33 36  0  0  0  0  0  0  0  0999 V2000
   59.3540   27.9980   47.5670 C   0  0  0  0  0  0  0  0  0  0  0  0
   58.6020   28.7940   46.7880 C   0  0  0  0  0  0  0  0  0  0  0  0
   57.9510   28.4190   45.6020 C   0  0  0  0  0  0  0  0  0  0  0  0
   57.6790   27.2040   45.0850 C   0  0  0  0  0  0  0  0  0  0  0  0
   57.1630   26.0470   45.8380 C   0  0  0  0  0  0  0  0  0  0  0  0
   57.9240   25.0730   46.3690 N   0  0  0  0  0  0  0  0  0  0  0  0
   57.0390   24.3280   47.0660 C   0  0  0  0  0  0  0  0  0  0  0  0
   57.3730   23.2950   47.7060 O   0  0  0  0  0  0  0  0  0  0  0  0
   55.7700   24.7830   47.0370 N   0  0  0  0  0  0  0  0  0  0  0  0
   55.8700   25.8800   46.2670 C   0  0  0  0  0  0  0  0  0  0  0  0
   54.8020   26.7150   45.9690 O   0  0  0  0  0  0  0  0  0  0  0  0
   57.5790   29.5950   44.9800 C   0  0  0  0  0  0  0  0  0  0  0  0
   57.9410   30.6330   45.8180 C   0  0  0  0  0  0  0  0  0  0  0  0
   57.7520   32.0610   45.4700 C   0  0  0  0  0  0  0  0  0  0  0  0
   56.5960   32.4700   45.1770 O   0  0  0  0  0  0  0  0  0  0  0  0
   58.8750   32.9470   45.3720 N   0  0  0  0  0  0  0  0  0  0  0  0
   59.7600   33.3380   46.4300 C   0  0  0  0  0  0  0  0  0  0  0  0
   59.2480   34.1130   47.4780 C   0  0  0  0  0  0  0  0  0  0  0  0
   60.0750   34.5210   48.5290 C   0  0  0  0  0  0  0  0  0  0  0  0
   61.4330   34.1670   48.5400 C   0  0  0  0  0  0  0  0  0  0  0  0
   62.3170   34.5880   49.6860 C   0  0  0  0  0  0  0  0  0  0  0  0
   62.7430   33.4130   50.4750 N   0  0  0  0  0  0  0  0  0  0  0  0
   61.7700   32.3050   50.3780 C   0  0  0  0  0  0  0  0  0  0  0  0
   60.4390   32.6310   51.0930 C   0  0  0  0  0  0  0  0  0  0  0  0
   60.6230   33.6290   52.1680 N   0  0  0  0  0  0  0  0  0  0  0  0
   59.4570   33.7410   53.0720 C   0  0  0  0  0  0  0  0  0  0  0  0
   58.0980   33.5350   52.3810 C   0  0  0  0  0  0  0  0  0  0  0  0
   61.9070   33.4610   52.8630 C   0  0  0  0  0  0  0  0  0  0  0  0
   63.0640   33.7500   51.8860 C   0  0  0  0  0  0  0  0  0  0  0  0
   61.9560   33.4240   47.4710 C   0  0  0  0  0  0  0  0  0  0  0  0
   61.1300   33.0170   46.4200 C   0  0  0  0  0  0  0  0  0  0  0  0
   58.5260   30.1440   46.9410 N   0  0  0  0  0  0  0  0  0  0  0  0
   59.0260   30.9340   48.0770 C   0  0  0  0  0  0  0  0  0  0  0  0
  1  2  2  0
  2  3  1  0
  3  4  2  0
  4  5  1  0
  5  6  1  0
  6  7  1  0
  7  8  2  0
  7  9  1  0
  9 10  1  0
 10 11  1  0
  3 12  1  0
 12 13  2  0
 13 14  1  0
 14 15  2  0
 14 16  1  0
 16 17  1  0
 17 18  2  0
 18 19  1  0
 19 20  2  0
 20 21  1  0
 21 22  1  0
 22 23  1  0
 23 24  1  0
 24 25  1  0
 25 26  1  0
 26 27  1  0
 25 28  1  0
 28 29  1  0
 20 30  1  0
 30 31  2  0
 13 32  1  0
 32 33  1  0
 32  2  1  0
 10  5  2  0
 31 17  1  0
 29 22  1  0
M  CHG  4   6  -1   9  -1  11  -1  16  -1
M  END
>  <UniqueID>  (2579) 
27

>  <SMILES>  (2579) 
C=c1/c(=C\c2[n-]c(=O)[n-]c2[O-])cc(C(=O)[N-]c2ccc(CN3CCN(CC)CC3)cc2)n1C

>  <Energy>  (2579) 
149.8671345638729

>  <Genealogy>  (2579) 
C=c1c(=Cc2[n-]c(=O)[n-]c2[O-])cc(C(=O)[N-]c2ccc(CN3CCN(CC)CC3)cc2)n1C (protonated)
C=c1/c(=C\c2[n-]c(=O)[n-]c2[O-])cc(C(=O)[N-]c2ccc(CN3CCN(CC)CC3)cc2)n1C (cis-trans isomerization)
C=c1/c(=C\c2[n-]c(=O)[n-]c2[O-])cc(C(=O)[N-]c2ccc(CN3CCN(CC)CC3)cc2)n1C (3D coordinates assigned)
C=c1/c(=C\c2[n-]c(=O)[n-]c2[O-])cc(C(=O)[N-]c2ccc(CN3CCN(CC)CC3)cc2)n1C (nonaromatic ring conformer: 149.8671345638729 kcal/mol)

>  <smiles>  (2579) 
C=c1c(=Cc2[nH]c(=O)[nH]c2O)cc(C(=O)Nc2ccc(CN3CCN(CC)CC3)cc2)n1C

>  <score_type>  (2579) 
oracle

>  <origin>  (2579) 
adg

>  <m_score__min__energy>  (2579) 
-19.550000000000001

>  <m_primary>  (2579) 
energy

$$$$
33:0
     RDKit          3D

 25 27  0  0  0  0  0  0  0  0999 V2000
   56.5390   29.1220   52.3070 O   0  0  0  0  0  0  0  0  0  0  0  0
   56.4950   30.3770   52.2020 C   0  0  0  0  0  0  0  0  0  0  0  0
   55.1980   31.0470   51.8860 C   0  0  0  0  0  0  0  0  0  0  0  0
   54.2710   30.0710   51.3300 N   0  0  0  0  0  0  0  0  0  0  0  0
   52.9200   30.3140   50.9120 C   0  0  0  0  0  0  0  0  0  0  0  0
   52.4960   29.7090   49.8920 O   0  0  0  0  0  0  0  0  0  0  0  0
   51.9840   31.1940   51.6420 C   0  0  0  0  0  0  0  0  0  0  0  0
   51.4010   30.9530   52.8770 C   0  0  0  0  0  0  0  0  0  0  0  0
   50.6570   32.0710   53.1810 C   0  0  0  0  0  0  0  0  0  0  0  0
   50.8390   32.9360   52.1270 C   0  0  0  0  0  0  0  0  0  0  0  0
   50.2690   34.1970   52.0310 O   0  0  0  0  0  0  0  0  0  0  0  0
   51.6500   32.4200   51.1870 N   0  0  0  0  0  0  0  0  0  0  0  0
   57.6550   31.1760   52.4670 N   0  0  0  0  0  0  0  0  0  0  0  0
   58.5680   31.7150   51.4990 C   0  0  0  0  0  0  0  0  0  0  0  0
   58.8060   33.0960   51.3830 C   0  0  0  0  0  0  0  0  0  0  0  0
   59.7320   33.5770   50.4520 C   0  0  0  0  0  0  0  0  0  0  0  0
   60.4460   32.6870   49.6300 C   0  0  0  0  0  0  0  0  0  0  0  0
   61.4180   33.1750   48.6840 N   0  0  0  0  0  0  0  0  0  0  0  0
   62.8520   33.0920   48.9800 C   0  0  0  0  0  0  0  0  0  0  0  0
   63.6410   32.9640   47.6730 C   0  0  0  0  0  0  0  0  0  0  0  0
   63.2850   33.9930   46.7660 O   0  0  0  0  0  0  0  0  0  0  0  0
   61.9290   33.8500   46.3870 C   0  0  0  0  0  0  0  0  0  0  0  0
   61.0040   34.0600   47.5900 C   0  0  0  0  0  0  0  0  0  0  0  0
   60.2240   31.3060   49.7690 C   0  0  0  0  0  0  0  0  0  0  0  0
   59.2970   30.8280   50.6980 C   0  0  0  0  0  0  0  0  0  0  0  0
  1  2  2  0
  2  3  1  0
  3  4  1  0
  4  5  1  0
  5  6  2  0
  5  7  1  0
  7  8  2  0
  8  9  1  0
  9 10  2  0
 10 11  1  0
 10 12  1  0
  2 13  1  0
 13 14  1  0
 14 15  2  0
 15 16  1  0
 16 17  2  0
 17 18  1  0
 18 19  1  0
 19 20  1  0
 20 21  1  0
 21 22  1  0
 22 23  1  0
 17 24  1  0
 24 25  2  0
 12  7  1  0
 25 14  1  0
 23 18  1  0
M  CHG  4   4  -1  11  -1  12  -1  13  -1
M  END
>  <UniqueID>  (2580) 
32

>  <SMILES>  (2580) 
O=C(C[N-]C(=O)c1ccc([O-])[n-]1)[N-]c1ccc(N2CCOCC2)cc1

>  <Energy>  (2580) 
77.30510373389112

>  <Genealogy>  (2580) 
O=C(C[N-]C(=O)c1ccc([O-])[n-]1)[N-]c1ccc(N2CCOCC2)cc1 (protonated)
O=C(C[N-]C(=O)c1ccc([O-])[n-]1)[N-]c1ccc(N2CCOCC2)cc1 (3D coordinates assigned)
O=C(C[N-]C(=O)c1ccc([O-])[n-]1)[N-]c1ccc(N2CCOCC2)cc1 (nonaromatic ring conformer: 77.30510373389112 kcal/mol)

>  <smiles>  (2580) 
O=C(CNC(=O)c1ccc(O)[nH]1)Nc1ccc(N2CCOCC2)cc1

>  <score_type>  (2580) 
oracle

>  <origin>  (2580) 
adg

>  <m_score__min__energy>  (2580) 
-16.030000000000001

>  <m_primary>  (2580) 
energy

$$$$
34:0
     RDKit          3D

 25 26  0  0  0  0  0  0  0  0999 V2000
   57.7140   31.9890   42.9340 C   0  0  0  0  0  0  0  0  0  0  0  0
   57.2570   31.7360   44.3400 C   0  0  0  0  0  0  0  0  0  0  0  0
   56.2680   30.9750   44.5210 O   0  0  0  0  0  0  0  0  0  0  0  0
   57.9370   32.3530   45.5100 C   0  0  0  0  0  0  0  0  0  0  0  0
   58.3650   33.6920   45.4520 C   0  0  0  0  0  0  0  0  0  0  0  0
   58.9970   34.2840   46.5480 C   0  0  0  0  0  0  0  0  0  0  0  0
   59.2060   33.5540   47.7190 C   0  0  0  0  0  0  0  0  0  0  0  0
   58.7790   32.2210   47.8030 C   0  0  0  0  0  0  0  0  0  0  0  0
   59.0030   31.4400   48.9860 N   0  0  0  0  0  0  0  0  0  0  0  0
   58.8410   31.9650   50.3160 C   0  0  0  0  0  0  0  0  0  0  0  0
   58.7560   33.2070   50.5040 O   0  0  0  0  0  0  0  0  0  0  0  0
   58.7410   31.0940   51.4520 N   0  0  0  0  0  0  0  0  0  0  0  0
   57.8890   31.3180   52.6160 C   0  0  0  0  0  0  0  0  0  0  0  0
   56.4400   31.5480   52.1890 C   0  0  0  0  0  0  0  0  0  0  0  0
   55.7750   30.2650   51.9980 N   0  0  0  0  0  0  0  0  0  0  0  0
   54.4280   29.9670   52.3900 C   0  0  0  0  0  0  0  0  0  0  0  0
   54.2390   29.1890   53.3610 O   0  0  0  0  0  0  0  0  0  0  0  0
   53.2570   30.4980   51.6600 C   0  0  0  0  0  0  0  0  0  0  0  0
   52.8790   29.9230   50.4350 C   0  0  0  0  0  0  0  0  0  0  0  0
   51.7760   30.4150   49.7340 C   0  0  0  0  0  0  0  0  0  0  0  0
   51.0330   31.4790   50.2540 C   0  0  0  0  0  0  0  0  0  0  0  0
   51.3870   32.0450   51.4820 C   0  0  0  0  0  0  0  0  0  0  0  0
   50.6400   33.0920   52.0050 O   0  0  0  0  0  0  0  0  0  0  0  0
   52.4910   31.5530   52.1870 C   0  0  0  0  0  0  0  0  0  0  0  0
   58.1610   31.6220   46.6950 C   0  0  0  0  0  0  0  0  0  0  0  0
  1  2  1  0
  2  3  2  0
  2  4  1  0
  4  5  2  0
  5  6  1  0
  6  7  2  0
  7  8  1  0
  8  9  1  0
  9 10  1  0
 10 11  2  0
 10 12  1  0
 12 13  1  0
 13 14  1  0
 14 15  1  0
 15 16  1  0
 16 17  2  0
 16 18  1  0
 18 19  2  0
 19 20  1  0
 20 21  2  0
 21 22  1  0
 22 23  1  0
 22 24  2  0
  8 25  2  0
 25  4  1  0
 24 18  1  0
M  CHG  3  12  -1  15  -1  23  -1
M  END
>  <UniqueID>  (2581) 
33

>  <SMILES>  (2581) 
CC(=O)c1cccc(NC(=O)[N-]CC[N-]C(=O)c2cccc([O-])c2)c1

>  <Energy>  (2581) 
44.90160322715436

>  <Genealogy>  (2581) 
CC(=O)c1cccc(NC(=O)[N-]CC[N-]C(=O)c2cccc([O-])c2)c1 (protonated)
CC(=O)c1cccc(NC(=O)[N-]CC[N-]C(=O)c2cccc([O-])c2)c1 (3D coordinates assigned)
CC(=O)c1cccc(NC(=O)[N-]CC[N-]C(=O)c2cccc([O-])c2)c1 (optimized conformer: 44.90160322715436 kcal/mol)

>  <smiles>  (2581) 
CC(=O)c1cccc(NC(=O)NCCNC(=O)c2cccc(O)c2)c1

>  <score_type>  (2581) 
oracle

>  <origin>  (2581) 
adg

>  <m_score__min__energy>  (2581) 
-14.33

>  <m_primary>  (2581) 
energy

$$$$
36:0
     RDKit          3D

 33 36  0  0  0  0  0  0  0  0999 V2000
   59.3450   24.0620   45.9220 C   0  0  0  0  0  0  0  0  0  0  0  0
   58.8870   25.3250   45.8670 C   0  0  0  0  0  0  0  0  0  0  0  0
   57.7370   25.7610   45.1940 C   0  0  0  0  0  0  0  0  0  0  0  0
   56.8800   25.0030   44.4750 C   0  0  0  0  0  0  0  0  0  0  0  0
   55.5370   24.5580   44.9110 C   0  0  0  0  0  0  0  0  0  0  0  0
   55.0030   23.3390   44.7160 N   0  0  0  0  0  0  0  0  0  0  0  0
   53.7890   23.4250   45.3000 C   0  0  0  0  0  0  0  0  0  0  0  0
   52.9770   22.4640   45.3200 O   0  0  0  0  0  0  0  0  0  0  0  0
   53.5150   24.6210   45.8620 N   0  0  0  0  0  0  0  0  0  0  0  0
   54.6310   25.3240   45.6100 C   0  0  0  0  0  0  0  0  0  0  0  0
   54.8170   26.6410   46.0090 O   0  0  0  0  0  0  0  0  0  0  0  0
   57.6490   27.1260   45.4410 C   0  0  0  0  0  0  0  0  0  0  0  0
   58.7200   27.4610   46.2460 C   0  0  0  0  0  0  0  0  0  0  0  0
   58.9500   28.8180   46.7760 C   0  0  0  0  0  0  0  0  0  0  0  0
   58.2540   29.7730   46.3360 O   0  0  0  0  0  0  0  0  0  0  0  0
   59.9090   29.0470   47.8200 N   0  0  0  0  0  0  0  0  0  0  0  0
   60.2460   30.3970   48.2850 C   0  0  0  0  0  0  0  0  0  0  0  0
   61.0030   31.1810   47.1840 C   0  0  0  0  0  0  0  0  0  0  0  0
   60.0640   32.0320   46.3240 C   0  0  0  0  0  0  0  0  0  0  0  0
   59.2990   32.9670   47.1650 N   0  0  0  0  0  0  0  0  0  0  0  0
   58.8610   34.2420   46.6470 C   0  0  0  0  0  0  0  0  0  0  0  0
   58.5980   35.1810   47.4490 O   0  0  0  0  0  0  0  0  0  0  0  0
   58.7710   34.4950   45.1630 C   0  0  0  0  0  0  0  0  0  0  0  0
   58.1870   33.3130   44.4340 C   0  0  0  0  0  0  0  0  0  0  0  0
   57.2610   32.4730   45.0750 C   0  0  0  0  0  0  0  0  0  0  0  0
   56.6900   31.3970   44.3870 C   0  0  0  0  0  0  0  0  0  0  0  0
   57.0340   31.1560   43.0530 C   0  0  0  0  0  0  0  0  0  0  0  0
   57.9470   31.9950   42.4040 C   0  0  0  0  0  0  0  0  0  0  0  0
   58.5190   33.0720   43.0890 C   0  0  0  0  0  0  0  0  0  0  0  0
   59.0350   32.6330   48.5740 C   0  0  0  0  0  0  0  0  0  0  0  0
   58.9630   31.1150   48.7630 C   0  0  0  0  0  0  0  0  0  0  0  0
   59.4920   26.3730   46.4830 N   0  0  0  0  0  0  0  0  0  0  0  0
   60.7570   26.3440   47.2280 C   0  0  0  0  0  0  0  0  0  0  0  0
  1  2  2  0
  2  3  1  0
  3  4  2  3
  4  5  1  0
  5  6  1  0
  6  7  1  0
  7  8  2  0
  7  9  1  0
  9 10  1  0
 10 11  1  0
  3 12  1  0
 12 13  2  0
 13 14  1  0
 14 15  2  0
 14 16  1  0
 16 17  1  0
 17 18  1  0
 18 19  1  0
 19 20  1  0
 20 21  1  0
 21 22  2  0
 21 23  1  0
 23 24  1  0
 24 25  2  0
 25 26  1  0
 26 27  2  0
 27 28  1  0
 28 29  2  0
 20 30  1  0
 30 31  1  0
 13 32  1  0
 32 33  1  0
 32  2  1  0
 10  5  2  0
 31 17  1  0
 29 24  1  0
M  CHG  3   6  -1   9  -1  11  -1
M  END
>  <UniqueID>  (2582) 
35

>  <SMILES>  (2582) 
C=c1c(=Cc2[n-]c(=O)[n-]c2[O-])cc(C(=O)NC2CCN(C(=O)Cc3ccccc3)CC2)n1C

>  <Energy>  (2582) 
127.17559733011034

>  <Genealogy>  (2582) 
C=c1c(=Cc2[n-]c(=O)[n-]c2[O-])cc(C(=O)NC2CCN(C(=O)Cc3ccccc3)CC2)n1C (protonated)
C=c1c(=Cc2[n-]c(=O)[n-]c2[O-])cc(C(=O)NC2CCN(C(=O)Cc3ccccc3)CC2)n1C (3D coordinates assigned)
C=c1c(=Cc2[n-]c(=O)[n-]c2[O-])cc(C(=O)NC2CCN(C(=O)Cc3ccccc3)CC2)n1C (nonaromatic ring conformer: 127.17559733011034 kcal/mol)

>  <smiles>  (2582) 
C=c1c(=Cc2[nH]c(=O)[nH]c2O)cc(C(=O)NC2CCN(C(=O)Cc3ccccc3)CC2)n1C

>  <score_type>  (2582) 
oracle

>  <origin>  (2582) 
adg

>  <m_score__min__energy>  (2582) 
-18.670000000000002

>  <m_primary>  (2582) 
energy

$$$$
38:0
     RDKit          3D

 26 28  0  0  0  0  0  0  0  0999 V2000
   56.6620   30.0060   43.0060 C   0  0  0  0  0  0  0  0  0  0  0  0
   57.4160   30.5960   43.9530 C   0  0  0  0  0  0  0  0  0  0  0  0
   57.4080   31.9580   44.0050 N   0  0  0  0  0  0  0  0  0  0  0  0
   57.9170   32.6440   45.0580 C   0  0  0  0  0  0  0  0  0  0  0  0
   57.8560   33.9050   45.0510 O   0  0  0  0  0  0  0  0  0  0  0  0
   58.4670   31.9790   46.1200 N   0  0  0  0  0  0  0  0  0  0  0  0
   58.9330   32.7280   47.3060 C   0  0  0  0  0  0  0  0  0  0  0  0
   60.4390   32.7620   47.3500 C   0  0  0  0  0  0  0  0  0  0  0  0
   61.1490   33.7190   46.6040 C   0  0  0  0  0  0  0  0  0  0  0  0
   62.5440   33.7710   46.6700 C   0  0  0  0  0  0  0  0  0  0  0  0
   63.2420   32.8730   47.4830 C   0  0  0  0  0  0  0  0  0  0  0  0
   62.5440   31.9210   48.2310 C   0  0  0  0  0  0  0  0  0  0  0  0
   61.1480   31.8660   48.1680 C   0  0  0  0  0  0  0  0  0  0  0  0
   58.5640   30.6100   46.0910 C   0  0  0  0  0  0  0  0  0  0  0  0
   59.0920   30.0070   47.0690 O   0  0  0  0  0  0  0  0  0  0  0  0
   58.1160   29.8710   44.9650 C   0  0  0  0  0  0  0  0  0  0  0  0
   58.4070   28.5380   44.9060 C   0  0  0  0  0  0  0  0  0  0  0  0
   57.6280   27.4380   45.5230 C   0  0  0  0  0  0  0  0  0  0  0  0
   56.2260   27.4950   45.6330 C   0  0  0  0  0  0  0  0  0  0  0  0
   55.5190   28.6020   45.1760 O   0  0  0  0  0  0  0  0  0  0  0  0
   55.5460   26.4520   46.1760 N   0  0  0  0  0  0  0  0  0  0  0  0
   56.1930   25.3370   46.6000 C   0  0  0  0  0  0  0  0  0  0  0  0
   55.5420   24.3860   47.1040 O   0  0  0  0  0  0  0  0  0  0  0  0
   57.5420   25.2460   46.4760 N   0  0  0  0  0  0  0  0  0  0  0  0
   58.2690   26.2610   45.9420 C   0  0  0  0  0  0  0  0  0  0  0  0
   59.5200   26.1380   45.8380 O   0  0  0  0  0  0  0  0  0  0  0  0
  1  2  2  0
  2  3  1  0
  3  4  1  0
  4  5  2  0
  4  6  1  0
  6  7  1  0
  7  8  1  0
  8  9  2  0
  9 10  1  0
 10 11  2  0
 11 12  1  0
 12 13  2  0
  6 14  1  0
 14 15  2  0
 14 16  1  0
 16 17  2  3
 17 18  1  0
 18 19  2  0
 19 20  1  0
 19 21  1  0
 21 22  1  0
 22 23  2  0
 22 24  1  0
 24 25  1  0
 25 26  2  0
 16  2  1  0
 25 18  1  0
 13  8  1  0
M  CHG  3  20  -1  21  -1  24  -1
M  END
>  <UniqueID>  (2583) 
37

>  <SMILES>  (2583) 
C=c1[nH]c(=O)n(Cc2ccccc2)c(=O)c1=Cc1c([O-])[n-]c(=O)[n-]c1=O

>  <Energy>  (2583) 
70.89538886695377

>  <Genealogy>  (2583) 
C=c1[nH]c(=O)n(Cc2ccccc2)c(=O)c1=Cc1c([O-])[n-]c(=O)[n-]c1=O (protonated)
C=c1[nH]c(=O)n(Cc2ccccc2)c(=O)c1=Cc1c([O-])[n-]c(=O)[n-]c1=O (3D coordinates assigned)
C=c1[nH]c(=O)n(Cc2ccccc2)c(=O)c1=Cc1c([O-])[n-]c(=O)[n-]c1=O (optimized conformer: 70.89538886695377 kcal/mol)

>  <smiles>  (2583) 
C=c1[nH]c(=O)n(Cc2ccccc2)c(=O)c1=Cc1c(O)[nH]c(=O)[nH]c1=O

>  <score_type>  (2583) 
oracle

>  <origin>  (2583) 
adg

>  <m_score__min__energy>  (2583) 
-15.76

>  <m_primary>  (2583) 
energy

$$$$
43:0
     RDKit          3D

 26 28  0  0  0  0  0  0  0  0999 V2000
   55.3290   26.8680   46.0380 O   0  0  0  0  0  0  0  0  0  0  0  0
   56.6960   26.6890   45.7980 C   0  0  0  0  0  0  0  0  0  0  0  0
   57.3300   28.0230   45.5150 C   0  0  0  0  0  0  0  0  0  0  0  0
   58.7030   28.2110   45.7530 C   0  0  0  0  0  0  0  0  0  0  0  0
   59.3040   29.4580   45.5210 C   0  0  0  0  0  0  0  0  0  0  0  0
   60.7680   29.6630   45.8070 C   0  0  0  0  0  0  0  0  0  0  0  0
   60.9500   30.4030   47.1090 C   0  0  0  0  0  0  0  0  0  0  0  0
   61.1870   31.7830   47.1070 C   0  0  0  0  0  0  0  0  0  0  0  0
   61.3150   32.4540   48.2810 N   0  0  0  0  0  0  0  0  0  0  0  0
   61.2190   31.8110   49.4760 C   0  0  0  0  0  0  0  0  0  0  0  0
   61.3190   32.4570   50.6010 N   0  0  0  0  0  0  0  0  0  0  0  0
   60.2740   32.6830   51.5630 C   0  0  0  0  0  0  0  0  0  0  0  0
   60.5140   33.5720   52.6180 C   0  0  0  0  0  0  0  0  0  0  0  0
   59.5150   33.8470   53.5620 C   0  0  0  0  0  0  0  0  0  0  0  0
   59.7730   34.8250   54.6710 C   0  0  0  0  0  0  0  0  0  0  0  0
   58.2490   33.2610   53.4200 C   0  0  0  0  0  0  0  0  0  0  0  0
   57.9900   32.3790   52.3600 C   0  0  0  0  0  0  0  0  0  0  0  0
   56.6180   31.7980   52.1820 C   0  0  0  0  0  0  0  0  0  0  0  0
   58.9960   32.1110   51.4210 C   0  0  0  0  0  0  0  0  0  0  0  0
   60.9670   30.4760   49.4990 N   0  0  0  0  0  0  0  0  0  0  0  0
   60.8300   29.7610   48.3530 C   0  0  0  0  0  0  0  0  0  0  0  0
   60.5960   28.5250   48.4220 O   0  0  0  0  0  0  0  0  0  0  0  0
   58.5180   30.5290   45.0720 C   0  0  0  0  0  0  0  0  0  0  0  0
   57.1500   30.3540   44.8490 C   0  0  0  0  0  0  0  0  0  0  0  0
   56.5530   29.1090   45.0730 C   0  0  0  0  0  0  0  0  0  0  0  0
   55.1860   28.9630   44.8580 O   0  0  0  0  0  0  0  0  0  0  0  0
  1  2  1  0
  2  3  1  0
  3  4  2  0
  4  5  1  0
  5  6  1  0
  6  7  1  0
  7  8  2  0
  8  9  1  0
  9 10  1  0
 10 11  2  0
 11 12  1  0
 12 13  2  0
 13 14  1  0
 14 15  1  0
 14 16  2  0
 16 17  1  0
 17 18  1  0
 17 19  2  0
 10 20  1  0
 20 21  1  0
 21 22  2  0
  5 23  2  0
 23 24  1  0
 24 25  2  0
 25 26  1  0
 25  3  1  0
 21  7  1  0
 19 12  1  0
M  CHG  3   9  -1  20  -1  26  -1
M  END
>  <UniqueID>  (2584) 
42

>  <SMILES>  (2584) 
Cc1cc(C)cc(/N=c2\[n-]cc(Cc3ccc([O-])c(CO)c3)c(=O)[n-]2)c1

>  <Energy>  (2584) 
51.338003604742276

>  <Genealogy>  (2584) 
Cc1cc(C)cc(N=c2[n-]cc(Cc3ccc([O-])c(CO)c3)c(=O)[n-]2)c1 (protonated)
Cc1cc(C)cc(/N=c2\[n-]cc(Cc3ccc([O-])c(CO)c3)c(=O)[n-]2)c1 (cis-trans isomerization)
Cc1cc(C)cc(/N=c2\[n-]cc(Cc3ccc([O-])c(CO)c3)c(=O)[n-]2)c1 (3D coordinates assigned)
Cc1cc(C)cc(/N=c2\[n-]cc(Cc3ccc([O-])c(CO)c3)c(=O)[n-]2)c1 (optimized conformer: 51.338003604742276 kcal/mol)

>  <smiles>  (2584) 
Cc1cc(C)cc(N=c2[nH]cc(Cc3ccc(O)c(CO)c3)c(=O)[nH]2)c1

>  <score_type>  (2584) 
oracle

>  <origin>  (2584) 
adg

>  <m_score__min__energy>  (2584) 
-14.029999999999999

>  <m_primary>  (2584) 
energy

$$$$
45:0
     RDKit          3D

 28 30  0  0  0  0  0  0  0  0999 V2000
   57.0830   31.5950   42.5390 C   0  0  0  0  0  0  0  0  0  0  0  0
   57.7670   32.1210   43.7720 C   0  0  0  0  0  0  0  0  0  0  0  0
   57.5900   33.4640   44.1420 C   0  0  0  0  0  0  0  0  0  0  0  0
   58.2120   33.9740   45.2820 C   0  0  0  0  0  0  0  0  0  0  0  0
   59.0120   33.1470   46.0790 C   0  0  0  0  0  0  0  0  0  0  0  0
   59.7970   33.7910   47.5250 S   0  0  0  0  0  0  0  0  0  0  0  0
   58.8830   33.6080   48.7060 O   0  0  0  0  0  0  0  0  0  0  0  0
   60.0340   35.2650   47.3460 O   0  0  0  0  0  0  0  0  0  0  0  0
   61.3230   32.9980   47.8370 N   0  0  0  0  0  0  0  0  0  0  0  0
   62.3390   33.4250   46.8550 C   0  0  0  0  0  0  0  0  0  0  0  0
   63.7550   33.1670   47.3940 C   0  0  0  0  0  0  0  0  0  0  0  0
   64.0510   33.8580   48.6020 O   0  0  0  0  0  0  0  0  0  0  0  0
   62.9000   34.2080   49.3590 C   0  0  0  0  0  0  0  0  0  0  0  0
   61.7580   33.1830   49.2390 C   0  0  0  0  0  0  0  0  0  0  0  0
   59.1800   31.8040   45.7260 C   0  0  0  0  0  0  0  0  0  0  0  0
   58.5750   31.2810   44.5700 C   0  0  0  0  0  0  0  0  0  0  0  0
   58.7330   29.8900   44.2410 N   0  0  0  0  0  0  0  0  0  0  0  0
   59.2320   28.9100   45.1650 C   0  0  0  0  0  0  0  0  0  0  0  0
   59.8030   29.2660   46.2310 O   0  0  0  0  0  0  0  0  0  0  0  0
   59.0580   27.4470   44.8740 C   0  0  0  0  0  0  0  0  0  0  0  0
   57.5770   27.0760   44.7220 C   0  0  0  0  0  0  0  0  0  0  0  0
   57.1620   26.0140   45.7030 C   0  0  0  0  0  0  0  0  0  0  0  0
   58.1420   24.7470   46.2340 S   0  0  0  0  0  0  0  0  0  0  0  0
   56.9010   24.0580   47.1360 C   0  0  0  0  0  0  0  0  0  0  0  0
   57.0170   23.0030   47.8110 O   0  0  0  0  0  0  0  0  0  0  0  0
   55.7470   24.7550   47.0520 N   0  0  0  0  0  0  0  0  0  0  0  0
   55.8920   25.8440   46.2510 C   0  0  0  0  0  0  0  0  0  0  0  0
   54.8370   26.7150   46.0060 O   0  0  0  0  0  0  0  0  0  0  0  0
  1  2  1  0
  2  3  2  0
  3  4  1  0
  4  5  2  0
  5  6  1  0
  6  7  2  0
  6  8  2  0
  6  9  1  0
  9 10  1  0
 10 11  1  0
 11 12  1  0
 12 13  1  0
 13 14  1  0
  5 15  1  0
 15 16  2  0
 16 17  1  0
 17 18  1  0
 18 19  2  0
 18 20  1  0
 20 21  1  0
 21 22  1  0
 22 23  1  0
 23 24  1  0
 24 25  2  0
 24 26  1  0
 26 27  1  0
 27 28  1  0
 16  2  1  0
 27 22  2  0
 14  9  1  0
M  CHG  2  26  -1  28  -1
M  END
>  <UniqueID>  (2585) 
44

>  <SMILES>  (2585) 
Cc1ccc(S(=O)(=O)N2CCOCC2)cc1NC(=O)CCc1sc(=O)[n-]c1[O-]

>  <Energy>  (2585) 
88.47739594146725

>  <Genealogy>  (2585) 
Cc1ccc(S(=O)(=O)N2CCOCC2)cc1NC(=O)CCc1sc(=O)[n-]c1[O-] (protonated)
Cc1ccc(S(=O)(=O)N2CCOCC2)cc1NC(=O)CCc1sc(=O)[n-]c1[O-] (3D coordinates assigned)
Cc1ccc(S(=O)(=O)N2CCOCC2)cc1NC(=O)CCc1sc(=O)[n-]c1[O-] (nonaromatic ring conformer: 88.47739594146725 kcal/mol)

>  <smiles>  (2585) 
Cc1ccc(S(=O)(=O)N2CCOCC2)cc1NC(=O)CCc1sc(=O)[nH]c1O

>  <score_type>  (2585) 
oracle

>  <origin>  (2585) 
adg

>  <m_score__min__energy>  (2585) 
-15.41

>  <m_primary>  (2585) 
energy

$$$$
65:0
     RDKit          3D

 26 28  0  0  0  0  0  0  0  0999 V2000
   60.3630   28.7140   47.2070 C   0  0  0  0  0  0  0  0  0  0  0  0
   59.6260   29.4640   46.3620 C   0  0  0  0  0  0  0  0  0  0  0  0
   59.8480   30.8560   46.3820 C   0  0  0  0  0  0  0  0  0  0  0  0
   59.0840   31.7360   45.6020 C   0  0  0  0  0  0  0  0  0  0  0  0
   59.2950   33.1280   45.6240 O   0  0  0  0  0  0  0  0  0  0  0  0
   59.1610   33.9740   46.7670 C   0  0  0  0  0  0  0  0  0  0  0  0
   60.4030   33.9240   47.6160 C   0  0  0  0  0  0  0  0  0  0  0  0
   60.3300   34.2430   48.9800 C   0  0  0  0  0  0  0  0  0  0  0  0
   61.4820   34.1780   49.7620 C   0  0  0  0  0  0  0  0  0  0  0  0
   62.6950   33.8090   49.1840 C   0  0  0  0  0  0  0  0  0  0  0  0
   62.7470   33.5220   47.8130 C   0  0  0  0  0  0  0  0  0  0  0  0
   64.0380   33.0870   47.1850 C   0  0  0  0  0  0  0  0  0  0  0  0
   61.6050   33.5760   47.0670 N   0  0  0  0  0  0  0  0  0  0  0  0
   58.0820   31.2200   44.7710 C   0  0  0  0  0  0  0  0  0  0  0  0
   57.2690   32.1360   43.8850 C   0  0  0  0  0  0  0  0  0  0  0  0
   57.7620   32.0730   42.4430 C   0  0  0  0  0  0  0  0  0  0  0  0
   57.8750   29.8370   44.7030 C   0  0  0  0  0  0  0  0  0  0  0  0
   58.6200   28.9270   45.4900 C   0  0  0  0  0  0  0  0  0  0  0  0
   58.4120   27.5880   45.3600 C   0  0  0  0  0  0  0  0  0  0  0  0
   57.1960   26.8540   45.7800 C   0  0  0  0  0  0  0  0  0  0  0  0
   57.1700   25.5850   46.2290 N   0  0  0  0  0  0  0  0  0  0  0  0
   55.8520   25.3260   46.3650 C   0  0  0  0  0  0  0  0  0  0  0  0
   55.4180   24.2210   46.7810 O   0  0  0  0  0  0  0  0  0  0  0  0
   55.0370   26.3420   46.0090 N   0  0  0  0  0  0  0  0  0  0  0  0
   55.9030   27.2940   45.6300 C   0  0  0  0  0  0  0  0  0  0  0  0
   55.5180   28.5420   45.1540 O   0  0  0  0  0  0  0  0  0  0  0  0
  1  2  2  0
  2  3  1  0
  3  4  2  0
  4  5  1  0
  5  6  1  0
  6  7  1  0
  7  8  2  0
  8  9  1  0
  9 10  2  0
 10 11  1  0
 11 12  1  0
 11 13  2  0
  4 14  1  0
 14 15  1  0
 15 16  1  0
 14 17  2  0
 17 18  1  0
 18 19  2  0
 19 20  1  0
 20 21  1  0
 21 22  1  0
 22 23  2  0
 22 24  1  0
 24 25  1  0
 25 26  1  0
 18  2  1  0
 25 20  2  0
 13  7  1  0
M  CHG  4  13   1  21  -1  24  -1  26  -1
M  END
>  <UniqueID>  (2586) 
63

>  <SMILES>  (2586) 
C=c1cc(OCc2cccc(C)[nH+]2)c(CC)c/c1=C\c1[n-]c(=O)[n-]c1[O-]

>  <Energy>  (2586) 
88.09399946097582

>  <Genealogy>  (2586) 
C=c1cc(OCc2cccc(C)[nH+]2)c(CC)cc1=Cc1[n-]c(=O)[n-]c1[O-] (protonated)
C=c1cc(OCc2cccc(C)[nH+]2)c(CC)c/c1=C\c1[n-]c(=O)[n-]c1[O-] (cis-trans isomerization)
C=c1cc(OCc2cccc(C)[nH+]2)c(CC)c/c1=C\c1[n-]c(=O)[n-]c1[O-] (3D coordinates assigned)
C=c1cc(OCc2cccc(C)[nH+]2)c(CC)c/c1=C\c1[n-]c(=O)[n-]c1[O-] (optimized conformer: 88.09399946097582 kcal/mol)

>  <smiles>  (2586) 
C=c1cc(OCc2cccc(C)n2)c(CC)cc1=Cc1[nH]c(=O)[nH]c1O

>  <score_type>  (2586) 
oracle

>  <origin>  (2586) 
adg

>  <m_score__min__energy>  (2586) 
-14.210000000000001

>  <m_primary>  (2586) 
energy

$$$$
68:0
     RDKit          3D

 29 32  0  0  0  0  0  0  0  0999 V2000
   53.1680   28.7950   54.8750 C   0  0  0  0  0  0  0  0  0  0  0  0
   53.8400   29.2230   53.8000 C   0  0  0  0  0  0  0  0  0  0  0  0
   55.1740   29.0610   53.6860 N   0  0  0  0  0  0  0  0  0  0  0  0
   55.5640   29.7350   52.5880 C   0  0  0  0  0  0  0  0  0  0  0  0
   56.9650   29.8520   52.1360 C   0  0  0  0  0  0  0  0  0  0  0  0
   57.8010   28.9770   52.4880 O   0  0  0  0  0  0  0  0  0  0  0  0
   57.3830   30.9360   51.2890 N   0  0  0  0  0  0  0  0  0  0  0  0
   57.0760   32.3230   51.6320 C   0  0  0  0  0  0  0  0  0  0  0  0
   58.3630   33.0450   52.0500 C   0  0  0  0  0  0  0  0  0  0  0  0
   59.4800   32.8230   51.1050 N   0  0  0  0  0  0  0  0  0  0  0  0
   59.7180   33.8800   50.1000 C   0  0  0  0  0  0  0  0  0  0  0  0
   59.6640   33.3860   48.6740 C   0  0  0  0  0  0  0  0  0  0  0  0
   58.4600   33.4280   47.9530 C   0  0  0  0  0  0  0  0  0  0  0  0
   58.4150   32.9800   46.6290 C   0  0  0  0  0  0  0  0  0  0  0  0
   59.5740   32.5040   46.0110 C   0  0  0  0  0  0  0  0  0  0  0  0
   60.7810   32.4800   46.7140 C   0  0  0  0  0  0  0  0  0  0  0  0
   60.8300   32.9270   48.0380 C   0  0  0  0  0  0  0  0  0  0  0  0
   59.6950   31.4280   50.6640 C   0  0  0  0  0  0  0  0  0  0  0  0
   58.3930   30.7290   50.2560 C   0  0  0  0  0  0  0  0  0  0  0  0
   54.4790   30.3420   51.9850 C   0  0  0  0  0  0  0  0  0  0  0  0
   53.3630   29.9890   52.7270 C   0  0  0  0  0  0  0  0  0  0  0  0
   52.1130   30.3620   52.3910 C   0  0  0  0  0  0  0  0  0  0  0  0
   51.6870   30.8370   51.0670 C   0  0  0  0  0  0  0  0  0  0  0  0
   51.5950   30.0430   49.9850 N   0  0  0  0  0  0  0  0  0  0  0  0
   51.0510   30.8520   49.0510 C   0  0  0  0  0  0  0  0  0  0  0  0
   50.8200   30.4680   47.8750 O   0  0  0  0  0  0  0  0  0  0  0  0
   50.7630   32.1000   49.4770 N   0  0  0  0  0  0  0  0  0  0  0  0
   51.1570   32.0700   50.7600 C   0  0  0  0  0  0  0  0  0  0  0  0
   51.0110   33.1370   51.6380 O   0  0  0  0  0  0  0  0  0  0  0  0
  1  2  2  0
  2  3  1  0
  3  4  1  0
  4  5  1  0
  5  6  2  0
  5  7  1  0
  7  8  1  0
  8  9  1  0
  9 10  1  0
 10 11  1  0
 11 12  1  0
 12 13  2  0
 13 14  1  0
 14 15  2  0
 15 16  1  0
 16 17  2  0
 10 18  1  0
 18 19  1  0
  4 20  2  0
 20 21  1  0
 21 22  2  3
 22 23  1  0
 23 24  1  0
 24 25  1  0
 25 26  2  0
 25 27  1  0
 27 28  1  0
 28 29  1  0
 21  2  1  0
 28 23  2  0
 19  7  1  0
 17 12  1  0
M  CHG  3  24  -1  27  -1  29  -1
M  END
>  <UniqueID>  (2587) 
66

>  <SMILES>  (2587) 
C=c1[nH]c(C(=O)N2CCN(Cc3ccccc3)CC2)cc1=Cc1[n-]c(=O)[n-]c1[O-]

>  <Energy>  (2587) 
131.79743016110325

>  <Genealogy>  (2587) 
C=c1[nH]c(C(=O)N2CCN(Cc3ccccc3)CC2)cc1=Cc1[n-]c(=O)[n-]c1[O-] (protonated)
C=c1[nH]c(C(=O)N2CCN(Cc3ccccc3)CC2)cc1=Cc1[n-]c(=O)[n-]c1[O-] (3D coordinates assigned)
C=c1[nH]c(C(=O)N2CCN(Cc3ccccc3)CC2)cc1=Cc1[n-]c(=O)[n-]c1[O-] (nonaromatic ring conformer: 131.79743016110325 kcal/mol)

>  <smiles>  (2587) 
C=c1[nH]c(C(=O)N2CCN(Cc3ccccc3)CC2)cc1=Cc1[nH]c(=O)[nH]c1O

>  <score_type>  (2587) 
oracle

>  <origin>  (2587) 
adg

>  <m_score__min__energy>  (2587) 
-18.100000000000001

>  <m_primary>  (2587) 
energy

$$$$
70:0
     RDKit          3D

 31 34  0  0  0  0  0  0  0  0999 V2000
   59.8320   25.8970   46.4560 C   0  0  0  0  0  0  0  0  0  0  0  0
   59.0220   26.7320   45.7820 C   0  0  0  0  0  0  0  0  0  0  0  0
   57.8990   26.3600   45.0340 C   0  0  0  0  0  0  0  0  0  0  0  0
   57.3740   25.1230   44.9130 C   0  0  0  0  0  0  0  0  0  0  0  0
   55.9490   24.7770   45.1110 C   0  0  0  0  0  0  0  0  0  0  0  0
   55.3920   23.5740   44.8880 N   0  0  0  0  0  0  0  0  0  0  0  0
   54.1070   23.7460   45.2650 C   0  0  0  0  0  0  0  0  0  0  0  0
   53.2500   22.8270   45.1930 O   0  0  0  0  0  0  0  0  0  0  0  0
   53.8120   24.9800   45.7240 N   0  0  0  0  0  0  0  0  0  0  0  0
   54.9900   25.6180   45.6250 C   0  0  0  0  0  0  0  0  0  0  0  0
   55.1850   26.9390   46.0020 O   0  0  0  0  0  0  0  0  0  0  0  0
   57.4180   27.5290   44.4610 C   0  0  0  0  0  0  0  0  0  0  0  0
   58.2480   28.5560   44.8730 C   0  0  0  0  0  0  0  0  0  0  0  0
   58.1320   29.9640   44.4080 C   0  0  0  0  0  0  0  0  0  0  0  0
   57.4640   30.2180   43.3660 O   0  0  0  0  0  0  0  0  0  0  0  0
   58.6820   31.0560   45.1870 N   0  0  0  0  0  0  0  0  0  0  0  0
   58.4880   32.3730   44.5090 C   0  0  0  0  0  0  0  0  0  0  0  0
   57.6500   33.3830   45.3210 C   0  0  0  0  0  0  0  0  0  0  0  0
   58.0680   33.4800   46.7390 N   0  0  0  0  0  0  0  0  0  0  0  0
   58.8850   34.6640   47.0770 C   0  0  0  0  0  0  0  0  0  0  0  0
   60.3630   34.5450   46.6200 C   0  0  0  0  0  0  0  0  0  0  0  0
   61.1780   33.6460   47.4660 N   0  0  0  0  0  0  0  0  0  0  0  0
   61.4750   34.2130   48.8010 C   0  0  0  0  0  0  0  0  0  0  0  0
   62.5310   33.3840   49.5300 C   0  0  0  0  0  0  0  0  0  0  0  0
   63.8610   33.3800   48.7580 C   0  0  0  0  0  0  0  0  0  0  0  0
   63.6770   33.5300   47.2380 C   0  0  0  0  0  0  0  0  0  0  0  0
   62.3160   32.9950   46.7710 C   0  0  0  0  0  0  0  0  0  0  0  0
   58.5610   32.2280   47.3520 C   0  0  0  0  0  0  0  0  0  0  0  0
   58.1260   31.0010   46.5540 C   0  0  0  0  0  0  0  0  0  0  0  0
   59.2090   28.0760   45.6980 N   0  0  0  0  0  0  0  0  0  0  0  0
   60.2620   28.8640   46.3530 C   0  0  0  0  0  0  0  0  0  0  0  0
  1  2  2  0
  2  3  1  0
  3  4  2  0
  4  5  1  0
  5  6  1  0
  6  7  1  0
  7  8  2  0
  7  9  1  0
  9 10  1  0
 10 11  1  0
  3 12  1  0
 12 13  2  0
 13 14  1  0
 14 15  2  0
 14 16  1  0
 16 17  1  0
 17 18  1  0
 18 19  1  0
 19 20  1  0
 20 21  1  0
 21 22  1  0
 22 23  1  0
 23 24  1  0
 24 25  1  0
 25 26  1  0
 26 27  1  0
 19 28  1  0
 28 29  1  0
 13 30  1  0
 30 31  1  0
 30  2  1  0
 10  5  2  0
 29 16  1  0
 27 22  1  0
M  CHG  4   6  -1   9  -1  11  -1  16   1
M  END
>  <UniqueID>  (2588) 
68

>  <SMILES>  (2588) 
C=c1/c(=C/c2[n-]c(=O)[n-]c2[O-])cc(C(=O)[NH+]2CCN(CCN3CCCCC3)CC2)n1C

>  <Energy>  (2588) 
156.02481799196664

>  <Genealogy>  (2588) 
C=c1c(=Cc2[n-]c(=O)[n-]c2[O-])cc(C(=O)[NH+]2CCN(CCN3CCCCC3)CC2)n1C (protonated)
C=c1/c(=C/c2[n-]c(=O)[n-]c2[O-])cc(C(=O)[NH+]2CCN(CCN3CCCCC3)CC2)n1C (cis-trans isomerization)
C=c1/c(=C/c2[n-]c(=O)[n-]c2[O-])cc(C(=O)[NH+]2CCN(CCN3CCCCC3)CC2)n1C (3D coordinates assigned)
C=c1/c(=C/c2[n-]c(=O)[n-]c2[O-])cc(C(=O)[NH+]2CCN(CCN3CCCCC3)CC2)n1C (nonaromatic ring conformer: 156.02481799196664 kcal/mol)

>  <smiles>  (2588) 
C=c1c(=Cc2[nH]c(=O)[nH]c2O)cc(C(=O)N2CCN(CCN3CCCCC3)CC2)n1C

>  <score_type>  (2588) 
oracle

>  <origin>  (2588) 
adg

>  <m_score__min__energy>  (2588) 
-17.879999999999999

>  <m_primary>  (2588) 
energy

$$$$
79:0
     RDKit          3D

 33 36  0  0  0  0  0  0  0  0999 V2000
   53.3730   29.7070   55.6450 C   0  0  0  0  0  0  0  0  0  0  0  0
   54.0850   29.9150   54.5260 C   0  0  0  0  0  0  0  0  0  0  0  0
   53.6110   30.4850   53.3400 C   0  0  0  0  0  0  0  0  0  0  0  0
   52.3830   30.9920   53.1100 C   0  0  0  0  0  0  0  0  0  0  0  0
   51.7930   31.1360   51.7670 C   0  0  0  0  0  0  0  0  0  0  0  0
   52.0340   30.2800   50.7580 N   0  0  0  0  0  0  0  0  0  0  0  0
   51.3770   30.8310   49.7150 C   0  0  0  0  0  0  0  0  0  0  0  0
   51.3580   30.3050   48.5710 O   0  0  0  0  0  0  0  0  0  0  0  0
   50.7540   31.9960   49.9890 N   0  0  0  0  0  0  0  0  0  0  0  0
   51.0380   32.1840   51.2880 C   0  0  0  0  0  0  0  0  0  0  0  0
   50.6600   33.3150   52.0020 O   0  0  0  0  0  0  0  0  0  0  0  0
   54.6750   30.4710   52.4500 C   0  0  0  0  0  0  0  0  0  0  0  0
   55.7410   29.8940   53.1110 C   0  0  0  0  0  0  0  0  0  0  0  0
   57.0540   29.6290   52.4870 C   0  0  0  0  0  0  0  0  0  0  0  0
   57.6920   28.5930   52.8200 O   0  0  0  0  0  0  0  0  0  0  0  0
   57.5880   30.4910   51.4620 N   0  0  0  0  0  0  0  0  0  0  0  0
   58.5000   29.9260   50.4590 C   0  0  0  0  0  0  0  0  0  0  0  0
   58.8320   30.9400   49.3590 C   0  0  0  0  0  0  0  0  0  0  0  0
   59.2300   32.2270   49.9540 N   0  0  0  0  0  0  0  0  0  0  0  0
   60.2910   33.0370   49.3950 C   0  0  0  0  0  0  0  0  0  0  0  0
   60.4850   34.2000   49.8440 O   0  0  0  0  0  0  0  0  0  0  0  0
   61.1640   32.5420   48.2690 C   0  0  0  0  0  0  0  0  0  0  0  0
   60.3840   32.0850   47.1600 O   0  0  0  0  0  0  0  0  0  0  0  0
   59.4570   32.8660   46.4490 C   0  0  0  0  0  0  0  0  0  0  0  0
   59.8410   33.9390   45.6190 C   0  0  0  0  0  0  0  0  0  0  0  0
   58.8740   34.6800   44.9330 C   0  0  0  0  0  0  0  0  0  0  0  0
   57.5190   34.3600   45.0660 C   0  0  0  0  0  0  0  0  0  0  0  0
   57.1300   33.3000   45.8870 C   0  0  0  0  0  0  0  0  0  0  0  0
   58.0950   32.5560   46.5750 C   0  0  0  0  0  0  0  0  0  0  0  0
   58.4560   32.7690   51.0860 C   0  0  0  0  0  0  0  0  0  0  0  0
   57.2240   31.9150   51.4050 C   0  0  0  0  0  0  0  0  0  0  0  0
   55.3890   29.5660   54.3780 N   0  0  0  0  0  0  0  0  0  0  0  0
   56.2510   28.9500   55.3960 C   0  0  0  0  0  0  0  0  0  0  0  0
  1  2  2  0
  2  3  1  0
  3  4  2  0
  4  5  1  0
  5  6  1  0
  6  7  1  0
  7  8  2  0
  7  9  1  0
  9 10  1  0
 10 11  1  0
  3 12  1  0
 12 13  2  0
 13 14  1  0
 14 15  2  0
 14 16  1  0
 16 17  1  0
 17 18  1  0
 18 19  1  0
 19 20  1  0
 20 21  2  0
 20 22  1  0
 22 23  1  0
 23 24  1  0
 24 25  2  0
 25 26  1  0
 26 27  2  0
 27 28  1  0
 28 29  2  0
 19 30  1  0
 30 31  1  0
 13 32  1  0
 32 33  1  0
 32  2  1  0
 10  5  2  0
 31 16  1  0
 29 24  1  0
M  CHG  3   6  -1   9  -1  11  -1
M  END
>  <UniqueID>  (2589) 
76

>  <SMILES>  (2589) 
C=c1/c(=C/c2[n-]c(=O)[n-]c2[O-])cc(C(=O)N2CCN(C(=O)COc3ccccc3)CC2)n1C

>  <Energy>  (2589) 
129.8810872032956

>  <Genealogy>  (2589) 
C=c1c(=Cc2[n-]c(=O)[n-]c2[O-])cc(C(=O)N2CCN(C(=O)COc3ccccc3)CC2)n1C (protonated)
C=c1/c(=C/c2[n-]c(=O)[n-]c2[O-])cc(C(=O)N2CCN(C(=O)COc3ccccc3)CC2)n1C (cis-trans isomerization)
C=c1/c(=C/c2[n-]c(=O)[n-]c2[O-])cc(C(=O)N2CCN(C(=O)COc3ccccc3)CC2)n1C (3D coordinates assigned)
C=c1/c(=C/c2[n-]c(=O)[n-]c2[O-])cc(C(=O)N2CCN(C(=O)COc3ccccc3)CC2)n1C (nonaromatic ring conformer: 129.8810872032956 kcal/mol)

>  <smiles>  (2589) 
C=c1c(=Cc2[nH]c(=O)[nH]c2O)cc(C(=O)N2CCN(C(=O)COc3ccccc3)CC2)n1C

>  <score_type>  (2589) 
oracle

>  <origin>  (2589) 
adg

>  <m_score__min__energy>  (2589) 
-18.030000000000001

>  <m_primary>  (2589) 
energy

$$$$
80:0
     RDKit          3D

 29 31  0  0  0  0  0  0  0  0999 V2000
   53.5780   28.2880   53.4080 C   0  0  0  0  0  0  0  0  0  0  0  0
   54.4780   29.2290   53.0820 C   0  0  0  0  0  0  0  0  0  0  0  0
   54.2000   30.5020   52.5650 C   0  0  0  0  0  0  0  0  0  0  0  0
   53.0410   31.1870   52.4560 C   0  0  0  0  0  0  0  0  0  0  0  0
   52.1600   31.2120   51.2800 C   0  0  0  0  0  0  0  0  0  0  0  0
   52.2260   30.3080   50.2900 N   0  0  0  0  0  0  0  0  0  0  0  0
   51.3590   30.7930   49.3660 C   0  0  0  0  0  0  0  0  0  0  0  0
   51.1340   30.2110   48.2720 O   0  0  0  0  0  0  0  0  0  0  0  0
   50.7690   31.9630   49.6960 N   0  0  0  0  0  0  0  0  0  0  0  0
   51.2970   32.2210   50.9050 C   0  0  0  0  0  0  0  0  0  0  0  0
   51.0280   33.3740   51.6260 O   0  0  0  0  0  0  0  0  0  0  0  0
   55.4110   31.0230   52.1510 C   0  0  0  0  0  0  0  0  0  0  0  0
   56.3820   30.0980   52.4750 C   0  0  0  0  0  0  0  0  0  0  0  0
   57.8210   30.3140   52.1740 C   0  0  0  0  0  0  0  0  0  0  0  0
   58.6240   30.2490   53.1360 O   0  0  0  0  0  0  0  0  0  0  0  0
   58.3030   30.6040   50.8280 N   0  0  0  0  0  0  0  0  0  0  0  0
   57.9950   32.0140   50.4340 C   0  0  0  0  0  0  0  0  0  0  0  0
   59.2400   32.8650   50.1400 C   0  0  0  0  0  0  0  0  0  0  0  0
   60.1220   32.1740   49.1910 N   0  0  0  0  0  0  0  0  0  0  0  0
   60.8780   32.9390   48.2260 C   0  0  0  0  0  0  0  0  0  0  0  0
   60.8880   34.2000   48.2970 O   0  0  0  0  0  0  0  0  0  0  0  0
   61.6560   32.2970   47.1060 C   0  0  0  0  0  0  0  0  0  0  0  0
   63.0940   32.6150   47.2360 N   0  0  0  0  0  0  0  0  0  0  0  0
   63.3940   33.9390   46.6660 C   0  0  0  0  0  0  0  0  0  0  0  0
   63.5020   32.5770   48.6480 C   0  0  0  0  0  0  0  0  0  0  0  0
   60.2960   30.7230   49.3320 C   0  0  0  0  0  0  0  0  0  0  0  0
   59.7350   30.2370   50.6720 C   0  0  0  0  0  0  0  0  0  0  0  0
   55.8230   29.0180   53.0760 N   0  0  0  0  0  0  0  0  0  0  0  0
   56.5460   27.9040   53.6940 C   0  0  0  0  0  0  0  0  0  0  0  0
  1  2  2  0
  2  3  1  0
  3  4  2  3
  4  5  1  0
  5  6  1  0
  6  7  1  0
  7  8  2  0
  7  9  1  0
  9 10  1  0
 10 11  1  0
  3 12  1  0
 12 13  2  0
 13 14  1  0
 14 15  2  0
 14 16  1  0
 16 17  1  0
 17 18  1  0
 18 19  1  0
 19 20  1  0
 20 21  2  0
 20 22  1  0
 22 23  1  0
 23 24  1  0
 23 25  1  0
 19 26  1  0
 26 27  1  0
 13 28  1  0
 28 29  1  0
 28  2  1  0
 10  5  2  0
 27 16  1  0
M  CHG  4   6  -1   9  -1  11  -1  16   1
M  END
>  <UniqueID>  (2590) 
77

>  <SMILES>  (2590) 
C=c1c(=Cc2[n-]c(=O)[n-]c2[O-])cc(C(=O)[NH+]2CCN(C(=O)CN(C)C)CC2)n1C

>  <Energy>  (2590) 
142.80927922616914

>  <Genealogy>  (2590) 
C=c1c(=Cc2[n-]c(=O)[n-]c2[O-])cc(C(=O)[NH+]2CCN(C(=O)CN(C)C)CC2)n1C (protonated)
C=c1c(=Cc2[n-]c(=O)[n-]c2[O-])cc(C(=O)[NH+]2CCN(C(=O)CN(C)C)CC2)n1C (3D coordinates assigned)
C=c1c(=Cc2[n-]c(=O)[n-]c2[O-])cc(C(=O)[NH+]2CCN(C(=O)CN(C)C)CC2)n1C (nonaromatic ring conformer: 142.80927922616914 kcal/mol)

>  <smiles>  (2590) 
C=c1c(=Cc2[nH]c(=O)[nH]c2O)cc(C(=O)N2CCN(C(=O)CN(C)C)CC2)n1C

>  <score_type>  (2590) 
oracle

>  <origin>  (2590) 
adg

>  <m_score__min__energy>  (2590) 
-15.949999999999999

>  <m_primary>  (2590) 
energy

$$$$
85:0
     RDKit          3D

 23 25  0  0  0  0  0  0  0  0999 V2000
   53.6550   25.1410   45.2510 O   0  0  0  0  0  0  0  0  0  0  0  0
   54.7690   25.3120   45.8140 C   0  0  0  0  0  0  0  0  0  0  0  0
   55.2520   26.6480   45.9970 N   0  0  0  0  0  0  0  0  0  0  0  0
   56.5740   27.1150   45.6010 C   0  0  0  0  0  0  0  0  0  0  0  0
   56.4970   28.5600   45.2360 C   0  0  0  0  0  0  0  0  0  0  0  0
   57.4470   29.4550   45.5760 N   0  0  0  0  0  0  0  0  0  0  0  0
   57.0250   30.6050   45.0170 C   0  0  0  0  0  0  0  0  0  0  0  0
   57.7590   31.8900   45.1260 C   0  0  0  0  0  0  0  0  0  0  0  0
   58.1240   32.3840   46.3930 C   0  0  0  0  0  0  0  0  0  0  0  0
   58.8140   33.5930   46.5120 C   0  0  0  0  0  0  0  0  0  0  0  0
   59.1490   34.3250   45.3700 C   0  0  0  0  0  0  0  0  0  0  0  0
   58.7930   33.8470   44.1080 C   0  0  0  0  0  0  0  0  0  0  0  0
   58.1020   32.6380   43.9820 C   0  0  0  0  0  0  0  0  0  0  0  0
   55.8410   30.3700   44.3440 C   0  0  0  0  0  0  0  0  0  0  0  0
   55.5090   29.0740   44.4760 N   0  0  0  0  0  0  0  0  0  0  0  0
   55.5230   24.1330   46.2900 C   0  0  0  0  0  0  0  0  0  0  0  0
   56.6700   24.2880   47.0800 C   0  0  0  0  0  0  0  0  0  0  0  0
   57.3680   23.1970   47.4910 N   0  0  0  0  0  0  0  0  0  0  0  0
   56.9770   21.9460   47.1420 C   0  0  0  0  0  0  0  0  0  0  0  0
   57.6340   20.9490   47.5360 O   0  0  0  0  0  0  0  0  0  0  0  0
   55.8790   21.7680   46.3630 N   0  0  0  0  0  0  0  0  0  0  0  0
   55.1490   22.8280   45.9260 C   0  0  0  0  0  0  0  0  0  0  0  0
   54.1360   22.6250   45.2050 O   0  0  0  0  0  0  0  0  0  0  0  0
  1  2  2  0
  2  3  1  0
  3  4  1  0
  4  5  1  0
  5  6  2  0
  6  7  1  0
  7  8  1  0
  8  9  2  0
  9 10  1  0
 10 11  2  0
 11 12  1  0
 12 13  2  0
  7 14  2  0
 14 15  1  0
  2 16  1  0
 16 17  2  0
 17 18  1  0
 18 19  1  0
 19 20  2  0
 19 21  1  0
 21 22  1  0
 22 23  2  0
 15  5  1  0
 22 16  1  0
 13  8  1  0
M  CHG  4   3  -1  15  -1  18  -1  21  -1
M  END
>  <UniqueID>  (2591) 
82

>  <SMILES>  (2591) 
O=C([N-]Cc1nc(-c2ccccc2)c[n-]1)c1c[n-]c(=O)[n-]c1=O

>  <Energy>  (2591) 
68.76650649260077

>  <Genealogy>  (2591) 
O=C([N-]Cc1nc(-c2ccccc2)c[n-]1)c1c[n-]c(=O)[n-]c1=O (protonated)
O=C([N-]Cc1nc(-c2ccccc2)c[n-]1)c1c[n-]c(=O)[n-]c1=O (3D coordinates assigned)
O=C([N-]Cc1nc(-c2ccccc2)c[n-]1)c1c[n-]c(=O)[n-]c1=O (optimized conformer: 68.76650649260077 kcal/mol)

>  <smiles>  (2591) 
O=C(NCc1nc(-c2ccccc2)c[nH]1)c1c[nH]c(=O)[nH]c1=O

>  <score_type>  (2591) 
oracle

>  <origin>  (2591) 
adg

>  <m_score__min__energy>  (2591) 
-15.630000000000001

>  <m_primary>  (2591) 
energy

$$$$
0:0
     RDKit          3D

 28 30  0  0  0  0  0  0  0  0999 V2000
   58.6740   30.6280   47.8050 C   0  0  0  0  0  0  0  0  0  0  0  0
   58.4870   30.6390   46.4770 C   0  0  0  0  0  0  0  0  0  0  0  0
   58.3160   29.5250   45.6360 C   0  0  0  0  0  0  0  0  0  0  0  0
   58.4340   28.2040   45.8750 C   0  0  0  0  0  0  0  0  0  0  0  0
   57.3210   27.2620   46.0720 C   0  0  0  0  0  0  0  0  0  0  0  0
   57.4540   26.0020   46.5260 N   0  0  0  0  0  0  0  0  0  0  0  0
   56.2110   25.4900   46.3960 C   0  0  0  0  0  0  0  0  0  0  0  0
   55.9240   24.3140   46.7370 O   0  0  0  0  0  0  0  0  0  0  0  0
   55.3030   26.3350   45.8610 N   0  0  0  0  0  0  0  0  0  0  0  0
   56.0280   27.4460   45.6490 C   0  0  0  0  0  0  0  0  0  0  0  0
   55.5170   28.6020   45.0730 O   0  0  0  0  0  0  0  0  0  0  0  0
   58.0120   30.0290   44.3830 C   0  0  0  0  0  0  0  0  0  0  0  0
   58.0640   31.4030   44.4800 C   0  0  0  0  0  0  0  0  0  0  0  0
   57.8580   32.3460   43.3320 C   0  0  0  0  0  0  0  0  0  0  0  0
   58.3480   31.7770   45.7470 N   0  0  0  0  0  0  0  0  0  0  0  0
   58.4080   33.1400   46.2080 C   0  0  0  0  0  0  0  0  0  0  0  0
   57.5130   33.5610   46.9940 O   0  0  0  0  0  0  0  0  0  0  0  0
   59.5470   33.9750   45.8900 N   0  0  1  0  0  0  0  0  0  0  0  0
   59.1920   34.9400   44.8310 C   0  0  0  0  0  0  0  0  0  0  0  0
   60.0110   34.6570   47.1180 C   0  0  0  0  0  0  0  0  0  0  0  0
   61.3070   34.0730   47.6310 C   0  0  0  0  0  0  0  0  0  0  0  0
   62.3060   33.6590   46.7370 C   0  0  0  0  0  0  0  0  0  0  0  0
   63.4940   33.0980   47.2150 C   0  0  0  0  0  0  0  0  0  0  0  0
   63.6990   32.9410   48.6000 C   0  0  0  0  0  0  0  0  0  0  0  0
   64.8720   32.3840   49.1300 O   0  0  0  0  0  0  0  0  0  0  0  0
   65.0760   32.1070   50.5110 C   0  0  0  0  0  0  0  0  0  0  0  0
   62.6970   33.3510   49.4880 C   0  0  0  0  0  0  0  0  0  0  0  0
   61.5090   33.9110   49.0100 C   0  0  0  0  0  0  0  0  0  0  0  0
  1  2  2  0
  2  3  1  0
  3  4  2  0
  4  5  1  0
  5  6  1  0
  6  7  1  0
  7  8  2  0
  7  9  1  0
  9 10  1  0
 10 11  1  0
  3 12  1  0
 12 13  2  0
 13 14  1  0
 13 15  1  0
 15 16  1  0
 16 17  2  0
 16 18  1  0
 18 19  1  6
 18 20  1  0
 20 21  1  0
 21 22  2  0
 22 23  1  0
 23 24  2  0
 24 25  1  0
 25 26  1  0
 24 27  1  0
 27 28  2  0
 15  2  1  0
 28 21  1  0
 10  5  2  0
M  CHG  4   6  -1   9  -1  11  -1  18   1
M  END
>  <UniqueID>  (2592) 
1

>  <SMILES>  (2592) 
C=c1/c(=C\c2[n-]c(=O)[n-]c2[O-])cc(C)n1C(=O)[N@@H+](C)Cc1ccc(OC)cc1

>  <Energy>  (2592) 
125.7163221236703

>  <Genealogy>  (2592) 
C=c1c(=Cc2[n-]c(=O)[n-]c2[O-])cc(C)n1C(=O)[NH+](C)Cc1ccc(OC)cc1 (protonated)
C=c1c(=Cc2[n-]c(=O)[n-]c2[O-])cc(C)n1C(=O)[N@@H+](C)Cc1ccc(OC)cc1 (chirality)
C=c1/c(=C\c2[n-]c(=O)[n-]c2[O-])cc(C)n1C(=O)[N@@H+](C)Cc1ccc(OC)cc1 (cis-trans isomerization)
C=c1/c(=C\c2[n-]c(=O)[n-]c2[O-])cc(C)n1C(=O)[N@@H+](C)Cc1ccc(OC)cc1 (3D coordinates assigned)
C=c1/c(=C\c2[n-]c(=O)[n-]c2[O-])cc(C)n1C(=O)[N@@H+](C)Cc1ccc(OC)cc1 (optimized conformer: 125.7163221236703 kcal/mol)

>  <smiles>  (2592) 
C=c1c(=Cc2[nH]c(=O)[nH]c2O)cc(C)n1C(=O)N(C)Cc1ccc(OC)cc1

>  <score_type>  (2592) 
oracle

>  <origin>  (2592) 
adg

>  <m_score__min__energy>  (2592) 
-14.550000000000001

>  <m_primary>  (2592) 
energy

$$$$
15:0
     RDKit          3D

 30 33  0  0  0  0  0  0  0  0999 V2000
   59.5320   28.6210   45.9270 O   0  0  0  0  0  0  0  0  0  0  0  0
   58.2780   28.7260   46.0230 C   0  0  0  0  0  0  0  0  0  0  0  0
   57.6520   30.0220   45.9970 N   0  0  0  0  0  0  0  0  0  0  0  0
   58.3700   31.2630   45.9030 C   0  0  0  0  0  0  0  0  0  0  0  0
   57.9270   32.2450   45.0060 C   0  0  0  0  0  0  0  0  0  0  0  0
   58.5930   33.4680   44.9090 C   0  0  0  0  0  0  0  0  0  0  0  0
   59.7000   33.7300   45.7190 C   0  0  0  0  0  0  0  0  0  0  0  0
   60.1430   32.7720   46.6430 C   0  0  0  0  0  0  0  0  0  0  0  0
   61.2770   33.0520   47.4850 N   0  0  0  0  0  0  0  0  0  0  0  0
   62.6090   32.5610   47.1100 C   0  0  0  0  0  0  0  0  0  0  0  0
   63.3640   32.1010   48.3560 C   0  0  0  0  0  0  0  0  0  0  0  0
   63.2910   33.1360   49.3940 N   0  0  0  0  0  0  0  0  0  0  0  0
   64.4370   33.4080   50.2210 C   0  0  0  0  0  0  0  0  0  0  0  0
   64.2970   34.1720   51.3930 C   0  0  0  0  0  0  0  0  0  0  0  0
   65.4070   34.4370   52.2010 C   0  0  0  0  0  0  0  0  0  0  0  0
   66.6640   33.9420   51.8470 C   0  0  0  0  0  0  0  0  0  0  0  0
   66.8140   33.1790   50.6860 C   0  0  0  0  0  0  0  0  0  0  0  0
   65.7060   32.9100   49.8760 C   0  0  0  0  0  0  0  0  0  0  0  0
   61.9640   33.6360   49.7720 C   0  0  0  0  0  0  0  0  0  0  0  0
   61.1940   34.0820   48.5270 C   0  0  0  0  0  0  0  0  0  0  0  0
   59.4690   31.5430   46.7360 C   0  0  0  0  0  0  0  0  0  0  0  0
   57.4620   27.4980   46.1520 C   0  0  0  0  0  0  0  0  0  0  0  0
   56.1180   27.4650   45.7400 C   0  0  0  0  0  0  0  0  0  0  0  0
   55.5170   28.5800   45.1690 O   0  0  0  0  0  0  0  0  0  0  0  0
   55.3960   26.3220   45.8710 N   0  0  0  0  0  0  0  0  0  0  0  0
   55.9510   25.1950   46.3850 C   0  0  0  0  0  0  0  0  0  0  0  0
   55.2610   24.1500   46.4960 O   0  0  0  0  0  0  0  0  0  0  0  0
   57.2510   25.1950   46.7750 N   0  0  0  0  0  0  0  0  0  0  0  0
   58.0170   26.3120   46.6690 C   0  0  0  0  0  0  0  0  0  0  0  0
   59.2170   26.2740   47.0510 O   0  0  0  0  0  0  0  0  0  0  0  0
  1  2  2  0
  2  3  1  0
  3  4  1  0
  4  5  2  0
  5  6  1  0
  6  7  2  0
  7  8  1  0
  8  9  1  0
  9 10  1  0
 10 11  1  0
 11 12  1  0
 12 13  1  0
 13 14  2  0
 14 15  1  0
 15 16  2  0
 16 17  1  0
 17 18  2  0
 12 19  1  0
 19 20  1  0
  8 21  2  0
  2 22  1  0
 22 23  2  0
 23 24  1  0
 23 25  1  0
 25 26  1  0
 26 27  2  0
 26 28  1  0
 28 29  1  0
 29 30  2  0
 21  4  1  0
 29 22  1  0
 20  9  1  0
 18 13  1  0
M  CHG  3  24  -1  25  -1  28  -1
M  END
>  <UniqueID>  (2593) 
16

>  <SMILES>  (2593) 
O=C(Nc1cccc(N2CCN(c3ccccc3)CC2)c1)c1c([O-])[n-]c(=O)[n-]c1=O

>  <Energy>  (2593) 
70.25262436731428

>  <Genealogy>  (2593) 
O=C(Nc1cccc(N2CCN(c3ccccc3)CC2)c1)c1c([O-])[n-]c(=O)[n-]c1=O (protonated)
O=C(Nc1cccc(N2CCN(c3ccccc3)CC2)c1)c1c([O-])[n-]c(=O)[n-]c1=O (3D coordinates assigned)
O=C(Nc1cccc(N2CCN(c3ccccc3)CC2)c1)c1c([O-])[n-]c(=O)[n-]c1=O (nonaromatic ring conformer: 70.25262436731428 kcal/mol)

>  <smiles>  (2593) 
O=C(Nc1cccc(N2CCN(c3ccccc3)CC2)c1)c1c(O)[nH]c(=O)[nH]c1=O

>  <score_type>  (2593) 
oracle

>  <origin>  (2593) 
adg

>  <m_score__min__energy>  (2593) 
-15.76

>  <m_primary>  (2593) 
energy

$$$$
21:0
     RDKit          3D

 37 40  0  0  0  0  0  0  0  0999 V2000
   60.5060   29.8580   46.3780 C   0  0  0  0  0  0  0  0  0  0  0  0
   59.7280   30.6640   47.3890 C   0  0  0  0  0  0  0  0  0  0  0  0
   59.8190   30.3140   48.7450 C   0  0  0  0  0  0  0  0  0  0  0  0
   59.0790   31.0180   49.7020 C   0  0  0  0  0  0  0  0  0  0  0  0
   59.1410   30.6530   51.1370 C   0  0  0  0  0  0  0  0  0  0  0  0
   60.2610   30.4570   51.6840 O   0  0  0  0  0  0  0  0  0  0  0  0
   57.9400   30.4780   51.9120 N   0  0  0  0  0  0  0  0  0  0  0  0
   57.0390   31.6050   52.1660 C   0  0  0  0  0  0  0  0  0  0  0  0
   55.6040   31.1490   51.9320 C   0  0  0  0  0  0  0  0  0  0  0  0
   55.3020   29.9470   52.7220 N   0  0  0  0  0  0  0  0  0  0  0  0
   53.9080   29.6750   53.0970 C   0  0  0  0  0  0  0  0  0  0  0  0
   52.9690   30.3390   52.1270 C   0  0  0  0  0  0  0  0  0  0  0  0
   52.8570   29.8550   50.8120 C   0  0  0  0  0  0  0  0  0  0  0  0
   51.9880   30.4710   49.9040 C   0  0  0  0  0  0  0  0  0  0  0  0
   51.2330   31.5780   50.2980 C   0  0  0  0  0  0  0  0  0  0  0  0
   50.3890   32.1680   49.4110 F   0  0  0  0  0  0  0  0  0  0  0  0
   51.3460   32.0730   51.6030 C   0  0  0  0  0  0  0  0  0  0  0  0
   50.5940   33.1750   51.9960 O   0  0  0  0  0  0  0  0  0  0  0  0
   52.2130   31.4580   52.5140 C   0  0  0  0  0  0  0  0  0  0  0  0
   56.3340   28.9700   52.9890 C   0  0  0  0  0  0  0  0  0  0  0  0
   56.0340   27.8480   53.4800 O   0  0  0  0  0  0  0  0  0  0  0  0
   57.7860   29.2830   52.7430 C   0  0  0  0  0  0  0  0  0  0  0  0
   58.2810   32.0390   49.3020 N   0  0  0  0  0  0  0  0  0  0  0  0
   58.1810   32.4410   48.0090 C   0  0  0  0  0  0  0  0  0  0  0  0
   57.4510   33.4840   47.7520 N   0  0  0  0  0  0  0  0  0  0  0  0
   58.9060   31.7520   47.0010 C   0  0  0  0  0  0  0  0  0  0  0  0
   58.8070   32.1430   45.5740 C   0  0  0  0  0  0  0  0  0  0  0  0
   58.1920   31.4030   44.7590 O   0  0  0  0  0  0  0  0  0  0  0  0
   59.3930   33.3700   45.1240 N   0  0  0  0  0  0  0  0  0  0  0  0
   59.6010   34.5110   46.0040 C   0  0  0  0  0  0  0  0  0  0  0  0
   60.7730   34.2390   46.9010 C   0  0  0  0  0  0  0  0  0  0  0  0
   60.6560   34.3840   48.2930 C   0  0  0  0  0  0  0  0  0  0  0  0
   61.7400   34.0890   49.1260 C   0  0  0  0  0  0  0  0  0  0  0  0
   62.9460   33.6400   48.5760 C   0  0  0  0  0  0  0  0  0  0  0  0
   63.9990   33.3630   49.3840 F   0  0  0  0  0  0  0  0  0  0  0  0
   63.0650   33.4790   47.1920 C   0  0  0  0  0  0  0  0  0  0  0  0
   61.9830   33.7750   46.3560 C   0  0  0  0  0  0  0  0  0  0  0  0
  1  2  1  0
  2  3  1  0
  3  4  2  0
  4  5  1  0
  5  6  2  0
  5  7  1  0
  7  8  1  0
  8  9  1  0
  9 10  1  0
 10 11  1  0
 11 12  1  0
 12 13  2  0
 13 14  1  0
 14 15  2  0
 15 16  1  0
 15 17  1  0
 17 18  1  0
 17 19  2  0
 10 20  1  0
 20 21  2  0
 20 22  1  0
  4 23  1  0
 23 24  1  0
 24 25  2  0
 24 26  1  0
 26 27  1  0
 27 28  2  0
 27 29  1  0
 29 30  1  0
 30 31  1  0
 31 32  2  0
 32 33  1  0
 33 34  2  0
 34 35  1  0
 34 36  1  0
 36 37  2  0
 26  2  2  0
 37 31  1  0
 22  7  1  0
 19 12  1  0
M  CHG  3  18  -1  23  -1  29  -1
M  END
>  <UniqueID>  (2594) 
21

>  <SMILES>  (2594) 
Cc1cc(C(=O)N2CCN(Cc3ccc(F)c([O-])c3)C(=O)C2)[n-]c(=N)c1C(=O)[N-]Cc1ccc(F)cc1

>  <Energy>  (2594) 
71.80639167565836

>  <Genealogy>  (2594) 
Cc1cc(C(=O)N2CCN(Cc3ccc(F)c([O-])c3)C(=O)C2)[n-]c(=N)c1C(=O)[N-]Cc1ccc(F)cc1 (protonated)
Cc1cc(C(=O)N2CCN(Cc3ccc(F)c([O-])c3)C(=O)C2)[n-]c(=N)c1C(=O)[N-]Cc1ccc(F)cc1 (3D coordinates assigned)
Cc1cc(C(=O)N2CCN(Cc3ccc(F)c([O-])c3)C(=O)C2)[n-]c(=N)c1C(=O)[N-]Cc1ccc(F)cc1 (nonaromatic ring conformer: 71.80639167565836 kcal/mol)

>  <smiles>  (2594) 
Cc1cc(C(=O)N2CCN(Cc3ccc(F)c(O)c3)C(=O)C2)[nH]c(=N)c1C(=O)NCc1ccc(F)cc1

>  <score_type>  (2594) 
oracle

>  <origin>  (2594) 
adg

>  <m_score__min__energy>  (2594) 
-15.08

>  <m_primary>  (2594) 
energy

$$$$
37:0
     RDKit          3D

 30 32  0  0  0  0  0  0  0  0999 V2000
   63.3350   34.1190   48.9450 C   0  0  0  0  0  0  0  0  0  0  0  0
   62.7390   33.2040   47.8720 C   0  0  0  0  0  0  0  0  0  0  0  0
   62.9710   33.7760   46.4710 C   0  0  0  0  0  0  0  0  0  0  0  0
   61.3020   32.9690   48.1160 N   0  0  0  0  0  0  0  0  0  0  0  0
   60.3800   34.0690   48.1650 C   0  0  0  0  0  0  0  0  0  0  0  0
   60.0900   34.5760   49.2820 O   0  0  0  0  0  0  0  0  0  0  0  0
   59.7750   34.6060   46.9220 C   0  0  0  0  0  0  0  0  0  0  0  0
   59.7700   35.8510   46.7350 O   0  0  0  0  0  0  0  0  0  0  0  0
   59.1770   33.7320   45.8840 C   0  0  0  0  0  0  0  0  0  0  0  0
   59.1320   34.1640   44.5500 C   0  0  0  0  0  0  0  0  0  0  0  0
   58.5490   33.3930   43.5970 N   0  0  0  0  0  0  0  0  0  0  0  0
   57.9970   32.1840   43.8840 C   0  0  0  0  0  0  0  0  0  0  0  0
   57.4320   31.5330   42.9670 O   0  0  0  0  0  0  0  0  0  0  0  0
   58.0320   31.6920   45.2030 C   0  0  0  0  0  0  0  0  0  0  0  0
   57.4450   30.4290   45.5600 N   0  0  0  0  0  0  0  0  0  0  0  0
   58.0000   29.1620   45.1690 C   0  0  0  0  0  0  0  0  0  0  0  0
   59.1490   29.1040   44.6530 O   0  0  0  0  0  0  0  0  0  0  0  0
   57.2510   27.9170   45.4110 C   0  0  0  0  0  0  0  0  0  0  0  0
   57.8100   26.6530   45.4990 C   0  0  0  0  0  0  0  0  0  0  0  0
   56.7670   25.7860   45.7330 C   0  0  0  0  0  0  0  0  0  0  0  0
   55.6340   26.5680   45.7710 C   0  0  0  0  0  0  0  0  0  0  0  0
   54.3500   26.0880   45.9820 O   0  0  0  0  0  0  0  0  0  0  0  0
   55.9130   27.8720   45.5770 N   0  0  0  0  0  0  0  0  0  0  0  0
   58.5960   32.4930   46.2040 C   0  0  0  0  0  0  0  0  0  0  0  0
   60.7670   31.6380   48.1860 C   0  0  0  0  0  0  0  0  0  0  0  0
   61.1800   30.6540   47.2750 C   0  0  0  0  0  0  0  0  0  0  0  0
   60.6230   29.3730   47.3240 C   0  0  0  0  0  0  0  0  0  0  0  0
   59.6440   29.0730   48.2760 C   0  0  0  0  0  0  0  0  0  0  0  0
   59.2250   30.0510   49.1820 C   0  0  0  0  0  0  0  0  0  0  0  0
   59.7830   31.3320   49.1350 C   0  0  0  0  0  0  0  0  0  0  0  0
  1  2  1  0
  2  3  1  0
  2  4  1  0
  4  5  1  0
  5  6  2  0
  5  7  1  0
  7  8  2  0
  7  9  1  0
  9 10  2  0
 10 11  1  0
 11 12  1  0
 12 13  2  0
 12 14  1  0
 14 15  1  0
 15 16  1  0
 16 17  2  0
 16 18  1  0
 18 19  2  0
 19 20  1  0
 20 21  2  0
 21 22  1  0
 21 23  1  0
 14 24  2  0
  4 25  1  0
 25 26  2  0
 26 27  1  0
 27 28  2  0
 28 29  1  0
 29 30  2  0
 24  9  1  0
 30 25  1  0
 23 18  1  0
M  CHG  3  11  -1  22  -1  23  -1
M  END
>  <UniqueID>  (2595) 
36

>  <SMILES>  (2595) 
CC(C)N(C(=O)C(=O)c1c[n-]c(=O)c(NC(=O)c2ccc([O-])[n-]2)c1)c1ccccc1

>  <Energy>  (2595) 
92.0441690749534

>  <Genealogy>  (2595) 
CC(C)N(C(=O)C(=O)c1c[n-]c(=O)c(NC(=O)c2ccc([O-])[n-]2)c1)c1ccccc1 (protonated)
CC(C)N(C(=O)C(=O)c1c[n-]c(=O)c(NC(=O)c2ccc([O-])[n-]2)c1)c1ccccc1 (3D coordinates assigned)
CC(C)N(C(=O)C(=O)c1c[n-]c(=O)c(NC(=O)c2ccc([O-])[n-]2)c1)c1ccccc1 (optimized conformer: 92.0441690749534 kcal/mol)

>  <smiles>  (2595) 
CC(C)N(C(=O)C(=O)c1c[nH]c(=O)c(NC(=O)c2ccc(O)[nH]2)c1)c1ccccc1

>  <score_type>  (2595) 
oracle

>  <origin>  (2595) 
adg

>  <m_score__min__energy>  (2595) 
-14.789999999999999

>  <m_primary>  (2595) 
energy

$$$$
46:0
     RDKit          3D

 24 26  0  0  0  0  0  0  0  0999 V2000
   58.9320   26.8130   45.8980 C   0  0  0  0  0  0  0  0  0  0  0  0
   58.2100   27.8070   45.3180 N   0  0  0  0  0  0  0  0  0  0  0  0
   56.8500   27.8530   45.3640 C   0  0  0  0  0  0  0  0  0  0  0  0
   56.2620   28.8620   44.7820 N   0  0  0  0  0  0  0  0  0  0  0  0
   56.7090   30.2180   44.6400 C   0  0  0  0  0  0  0  0  0  0  0  0
   55.8860   31.1730   44.6730 O   0  0  0  0  0  0  0  0  0  0  0  0
   58.1770   30.5060   44.5710 C   0  0  0  0  0  0  0  0  0  0  0  0
   58.4830   31.8040   45.2080 N   0  0  0  0  0  0  0  0  0  0  0  0
   58.4910   32.9080   44.4010 C   0  0  0  0  0  0  0  0  0  0  0  0
   58.7690   34.1710   44.9080 C   0  0  0  0  0  0  0  0  0  0  0  0
   59.0560   34.3290   46.2580 C   0  0  0  0  0  0  0  0  0  0  0  0
   59.3010   35.4880   46.6910 O   0  0  0  0  0  0  0  0  0  0  0  0
   59.0730   33.2050   47.1090 C   0  0  0  0  0  0  0  0  0  0  0  0
   59.3730   33.3190   48.4900 C   0  0  0  0  0  0  0  0  0  0  0  0
   59.6540   34.5500   49.0750 O   0  0  0  0  0  0  0  0  0  0  0  0
   59.3940   32.1840   49.3000 C   0  0  0  0  0  0  0  0  0  0  0  0
   59.1250   30.9300   48.7650 C   0  0  0  0  0  0  0  0  0  0  0  0
   59.1570   29.8080   49.5830 O   0  0  0  0  0  0  0  0  0  0  0  0
   58.8260   30.7940   47.4100 C   0  0  0  0  0  0  0  0  0  0  0  0
   58.7860   31.9210   46.5550 C   0  0  0  0  0  0  0  0  0  0  0  0
   56.1560   26.7920   46.0030 C   0  0  0  0  0  0  0  0  0  0  0  0
   54.7690   26.6930   45.9930 O   0  0  0  0  0  0  0  0  0  0  0  0
   56.8880   25.7730   46.6180 C   0  0  0  0  0  0  0  0  0  0  0  0
   58.2810   25.7820   46.5720 C   0  0  0  0  0  0  0  0  0  0  0  0
  1  2  1  0
  2  3  1  0
  3  4  2  0
  4  5  1  0
  5  6  2  0
  5  7  1  0
  7  8  1  0
  8  9  1  0
  9 10  2  0
 10 11  1  0
 11 12  2  0
 11 13  1  0
 13 14  2  0
 14 15  1  0
 14 16  1  0
 16 17  2  0
 17 18  1  0
 17 19  1  0
 19 20  2  0
  3 21  1  0
 21 22  1  0
 21 23  2  0
 23 24  1  0
 24  1  2  0
 20  8  1  0
 20 13  1  0
M  CHG  4   2  -1  15  -1  18  -1  22  -1
M  END
>  <UniqueID>  (2596) 
45

>  <SMILES>  (2596) 
O=C(Cn1ccc(=O)c2c([O-])cc([O-])cc21)/N=c1/[n-]cccc1[O-]

>  <Energy>  (2596) 
59.28282184970102

>  <Genealogy>  (2596) 
O=C(Cn1ccc(=O)c2c([O-])cc([O-])cc21)N=c1[n-]cccc1[O-] (protonated)
O=C(Cn1ccc(=O)c2c([O-])cc([O-])cc21)/N=c1/[n-]cccc1[O-] (cis-trans isomerization)
O=C(Cn1ccc(=O)c2c([O-])cc([O-])cc21)/N=c1/[n-]cccc1[O-] (3D coordinates assigned)
O=C(Cn1ccc(=O)c2c([O-])cc([O-])cc21)/N=c1/[n-]cccc1[O-] (optimized conformer: 59.28282184970102 kcal/mol)

>  <smiles>  (2596) 
O=C(Cn1ccc(=O)c2c(O)cc(O)cc21)N=c1[nH]cccc1O

>  <score_type>  (2596) 
oracle

>  <origin>  (2596) 
adg

>  <m_score__min__energy>  (2596) 
-16.34

>  <m_primary>  (2596) 
energy

$$$$
48:0
     RDKit          3D

 31 34  0  0  0  0  0  0  0  0999 V2000
   55.8680   29.3490   44.8070 N   0  0  0  0  0  0  0  0  0  0  0  0
   57.0360   29.3310   45.6260 C   0  0  0  0  0  0  0  0  0  0  0  0
   57.3860   30.3870   46.2180 O   0  0  0  0  0  0  0  0  0  0  0  0
   57.8030   28.0740   45.8060 C   0  0  0  0  0  0  0  0  0  0  0  0
   57.1040   26.8530   45.7700 C   0  0  0  0  0  0  0  0  0  0  0  0
   57.7530   25.6320   46.0290 C   0  0  0  0  0  0  0  0  0  0  0  0
   57.0150   24.3440   46.0050 C   0  0  0  0  0  0  0  0  0  0  0  0
   55.6470   24.2830   45.6800 C   0  0  0  0  0  0  0  0  0  0  0  0
   54.9840   23.0450   45.6650 C   0  0  0  0  0  0  0  0  0  0  0  0
   53.5460   22.9650   45.3270 C   0  0  0  0  0  0  0  0  0  0  0  0
   52.7330   21.9700   45.7360 N   0  0  0  0  0  0  0  0  0  0  0  0
   51.5330   22.2290   45.2490 N   0  0  0  0  0  0  0  0  0  0  0  0
   51.6540   23.3740   44.5570 C   0  0  0  0  0  0  0  0  0  0  0  0
   50.6940   23.9200   43.9520 O   0  0  0  0  0  0  0  0  0  0  0  0
   52.8990   23.8800   44.5730 N   0  0  0  0  0  0  0  0  0  0  0  0
   55.7080   21.8830   45.9720 C   0  0  0  0  0  0  0  0  0  0  0  0
   57.0660   21.9780   46.2770 C   0  0  0  0  0  0  0  0  0  0  0  0
   57.6800   23.1890   46.2850 N   0  0  0  0  0  0  0  0  0  0  0  0
   59.1170   25.6460   46.3500 C   0  0  0  0  0  0  0  0  0  0  0  0
   59.8290   26.8460   46.3720 C   0  0  0  0  0  0  0  0  0  0  0  0
   59.1960   28.0620   46.0780 C   0  0  0  0  0  0  0  0  0  0  0  0
   60.0320   29.2800   46.0200 C   0  0  0  0  0  0  0  0  0  0  0  0
   60.9090   29.3870   45.1190 O   0  0  0  0  0  0  0  0  0  0  0  0
   59.8150   30.3580   46.9440 N   0  0  0  0  0  0  0  0  0  0  0  0
   60.6270   31.5730   46.9380 C   0  0  0  0  0  0  0  0  0  0  0  0
   59.8770   32.6970   46.2770 C   0  0  0  0  0  0  0  0  0  0  0  0
   60.1710   34.0350   46.5900 C   0  0  0  0  0  0  0  0  0  0  0  0
   59.4820   35.0740   45.9550 C   0  0  0  0  0  0  0  0  0  0  0  0
   58.5010   34.7850   45.0020 C   0  0  0  0  0  0  0  0  0  0  0  0
   58.2070   33.4570   44.6820 C   0  0  0  0  0  0  0  0  0  0  0  0
   58.8930   32.4150   45.3160 C   0  0  0  0  0  0  0  0  0  0  0  0
  1  2  1  0
  2  3  2  0
  2  4  1  0
  4  5  2  0
  5  6  1  0
  6  7  1  0
  7  8  2  0
  8  9  1  0
  9 10  1  0
 10 11  2  0
 11 12  1  0
 12 13  1  0
 13 14  2  0
 13 15  1  0
  9 16  2  0
 16 17  1  0
 17 18  2  0
  6 19  2  0
 19 20  1  0
 20 21  2  0
 21 22  1  0
 22 23  2  0
 22 24  1  0
 24 25  1  0
 25 26  1  0
 26 27  2  0
 27 28  1  0
 28 29  2  0
 29 30  1  0
 30 31  2  0
 21  4  1  0
 31 26  1  0
 18  7  1  0
 15 10  1  0
M  CHG  3   1  -1  12  -1  15  -1
M  END
>  <UniqueID>  (2597) 
47

>  <SMILES>  (2597) 
[NH-]C(=O)c1cc(-c2cc(-c3n[n-]c(=O)[n-]3)ccn2)ccc1C(=O)NCc1ccccc1

>  <Energy>  (2597) 
95.19151815587482

>  <Genealogy>  (2597) 
[NH-]C(=O)c1cc(-c2cc(-c3n[n-]c(=O)[n-]3)ccn2)ccc1C(=O)NCc1ccccc1 (protonated)
[NH-]C(=O)c1cc(-c2cc(-c3n[n-]c(=O)[n-]3)ccn2)ccc1C(=O)NCc1ccccc1 (3D coordinates assigned)
[NH-]C(=O)c1cc(-c2cc(-c3n[n-]c(=O)[n-]3)ccn2)ccc1C(=O)NCc1ccccc1 (optimized conformer: 95.19151815587482 kcal/mol)

>  <smiles>  (2597) 
NC(=O)c1cc(-c2cc(-c3n[nH]c(=O)[nH]3)ccn2)ccc1C(=O)NCc1ccccc1

>  <score_type>  (2597) 
oracle

>  <origin>  (2597) 
adg

>  <m_score__min__energy>  (2597) 
-15.31

>  <m_primary>  (2597) 
energy

$$$$
66:0
     RDKit          3D

 27 29  0  0  0  0  0  0  0  0999 V2000
   54.6670   30.4110   53.6380 O   0  0  0  0  0  0  0  0  0  0  0  0
   54.4670   30.2680   52.4030 C   0  0  0  0  0  0  0  0  0  0  0  0
   53.2260   29.5360   51.9510 C   0  0  0  0  0  0  0  0  0  0  0  0
   52.3540   30.3830   51.0550 C   0  0  0  0  0  0  0  0  0  0  0  0
   52.0520   29.9610   49.7530 C   0  0  0  0  0  0  0  0  0  0  0  0
   51.2740   30.7280   48.9480 N   0  0  0  0  0  0  0  0  0  0  0  0
   50.7650   31.9070   49.3870 C   0  0  0  0  0  0  0  0  0  0  0  0
   50.0490   32.6050   48.6240 O   0  0  0  0  0  0  0  0  0  0  0  0
   51.0230   32.3310   50.6510 N   0  0  0  0  0  0  0  0  0  0  0  0
   51.7970   31.5980   51.4930 C   0  0  0  0  0  0  0  0  0  0  0  0
   52.0070   32.0190   52.6620 O   0  0  0  0  0  0  0  0  0  0  0  0
   55.4010   30.8530   51.4840 N   0  0  0  0  0  0  0  0  0  0  0  0
   56.8290   30.8670   51.6040 C   0  0  0  0  0  0  0  0  0  0  0  0
   57.4530   29.8890   52.3860 C   0  0  0  0  0  0  0  0  0  0  0  0
   58.8440   29.8690   52.5130 C   0  0  0  0  0  0  0  0  0  0  0  0
   59.6220   30.8170   51.8450 C   0  0  0  0  0  0  0  0  0  0  0  0
   59.0110   31.7810   51.0320 C   0  0  0  0  0  0  0  0  0  0  0  0
   59.9840   32.9940   50.2020 S   0  0  0  0  0  0  0  0  0  0  0  0
   59.2930   34.3270   50.2640 O   0  0  0  0  0  0  0  0  0  0  0  0
   61.3030   33.1130   50.9130 O   0  0  0  0  0  0  0  0  0  0  0  0
   60.2610   32.5220   48.5390 N   0  0  0  0  0  0  0  0  0  0  0  0
   59.0100   32.1450   47.8490 C   0  0  0  0  0  0  0  0  0  0  0  0
   58.1400   33.3590   47.4680 C   0  0  0  0  0  0  0  0  0  0  0  0
   58.9630   34.5710   47.0010 C   0  0  0  0  0  0  0  0  0  0  0  0
   60.3860   34.1760   46.6180 C   0  0  0  0  0  0  0  0  0  0  0  0
   61.0960   33.5100   47.8100 C   0  0  0  0  0  0  0  0  0  0  0  0
   57.6150   31.7960   50.9030 C   0  0  0  0  0  0  0  0  0  0  0  0
  1  2  2  0
  2  3  1  0
  3  4  1  0
  4  5  2  0
  5  6  1  0
  6  7  1  0
  7  8  2  0
  7  9  1  0
  9 10  1  0
 10 11  2  0
  2 12  1  0
 12 13  1  0
 13 14  2  0
 14 15  1  0
 15 16  2  0
 16 17  1  0
 17 18  1  0
 18 19  2  0
 18 20  2  0
 18 21  1  0
 21 22  1  0
 22 23  1  0
 23 24  1  0
 24 25  1  0
 25 26  1  0
 17 27  2  0
 10  4  1  0
 27 13  1  0
 26 21  1  0
M  CHG  3   6  -1   9  -1  12  -1
M  END
>  <UniqueID>  (2598) 
63

>  <SMILES>  (2598) 
O=C(Cc1c[n-]c(=O)[n-]c1=O)[N-]c1cccc(S(=O)(=O)N2CCCCC2)c1

>  <Energy>  (2598) 
56.34217391086416

>  <Genealogy>  (2598) 
O=C(Cc1c[n-]c(=O)[n-]c1=O)[N-]c1cccc(S(=O)(=O)N2CCCCC2)c1 (protonated)
O=C(Cc1c[n-]c(=O)[n-]c1=O)[N-]c1cccc(S(=O)(=O)N2CCCCC2)c1 (3D coordinates assigned)
O=C(Cc1c[n-]c(=O)[n-]c1=O)[N-]c1cccc(S(=O)(=O)N2CCCCC2)c1 (nonaromatic ring conformer: 56.34217391086416 kcal/mol)

>  <smiles>  (2598) 
O=C(Cc1c[nH]c(=O)[nH]c1=O)Nc1cccc(S(=O)(=O)N2CCCCC2)c1

>  <score_type>  (2598) 
oracle

>  <origin>  (2598) 
adg

>  <m_score__min__energy>  (2598) 
-14.6

>  <m_primary>  (2598) 
energy

$$$$
68:0
     RDKit          3D

 26 29  0  0  0  0  0  0  0  0999 V2000
   55.5190   29.8330   43.3450 C   0  0  0  0  0  0  0  0  0  0  0  0
   56.4150   29.5530   44.2940 C   0  0  0  0  0  0  0  0  0  0  0  0
   56.4380   28.3800   44.9590 N   0  0  0  0  0  0  0  0  0  0  0  0
   57.4550   28.4550   45.8450 C   0  0  0  0  0  0  0  0  0  0  0  0
   57.8400   27.4700   46.6700 C   0  0  0  0  0  0  0  0  0  0  0  0
   57.2110   26.1390   46.7160 C   0  0  0  0  0  0  0  0  0  0  0  0
   57.8360   25.0420   47.1810 N   0  0  0  0  0  0  0  0  0  0  0  0
   56.8840   24.0870   47.1160 C   0  0  0  0  0  0  0  0  0  0  0  0
   57.0960   22.8950   47.4590 O   0  0  0  0  0  0  0  0  0  0  0  0
   55.6850   24.5120   46.6630 N   0  0  0  0  0  0  0  0  0  0  0  0
   55.9040   25.8150   46.4260 C   0  0  0  0  0  0  0  0  0  0  0  0
   54.9170   26.6950   45.9980 O   0  0  0  0  0  0  0  0  0  0  0  0
   58.0940   29.6770   45.7420 C   0  0  0  0  0  0  0  0  0  0  0  0
   57.4270   30.3880   44.7590 C   0  0  0  0  0  0  0  0  0  0  0  0
   57.8110   31.7270   44.2610 C   0  0  0  0  0  0  0  0  0  0  0  0
   57.6400   32.0000   43.0420 O   0  0  0  0  0  0  0  0  0  0  0  0
   58.4080   32.7090   45.1310 N   0  0  0  0  0  0  0  0  0  0  0  0
   59.2330   33.7780   44.5620 C   0  0  0  0  0  0  0  0  0  0  0  0
   60.1640   34.3480   45.6380 C   0  0  0  0  0  0  0  0  0  0  0  0
   59.4320   34.8680   46.8260 N   0  0  0  0  0  0  0  0  0  0  0  0
   60.2790   34.8000   48.0410 C   0  0  0  0  0  0  0  0  0  0  0  0
   61.4640   33.8420   47.8850 C   0  0  0  0  0  0  0  0  0  0  0  0
   60.9120   32.9640   48.9970 C   0  0  0  0  0  0  0  0  0  0  0  0
   59.7140   33.8900   49.1370 C   0  0  0  0  0  0  0  0  0  0  0  0
   58.1180   34.2070   47.0580 C   0  0  0  0  0  0  0  0  0  0  0  0
   58.0790   32.7560   46.5590 C   0  0  0  0  0  0  0  0  0  0  0  0
  1  2  2  0
  2  3  1  0
  3  4  1  0
  4  5  2  3
  5  6  1  0
  6  7  1  0
  7  8  1  0
  8  9  2  0
  8 10  1  0
 10 11  1  0
 11 12  1  0
  4 13  1  0
 13 14  2  0
 14 15  1  0
 15 16  2  0
 15 17  1  0
 17 18  1  0
 18 19  1  0
 19 20  1  0
 20 21  1  0
 21 22  1  0
 22 23  1  0
 23 24  1  0
 20 25  1  0
 25 26  1  0
 14  2  1  0
 26 17  1  0
 11  6  2  0
 24 21  1  0
M  CHG  3   7  -1  10  -1  12  -1
M  END
>  <UniqueID>  (2599) 
64

>  <SMILES>  (2599) 
C=c1[nH]c(=Cc2[n-]c(=O)[n-]c2[O-])cc1C(=O)N1CCN(C2CCC2)CC1

>  <Energy>  (2599) 
181.56686449896623

>  <Genealogy>  (2599) 
C=c1[nH]c(=Cc2[n-]c(=O)[n-]c2[O-])cc1C(=O)N1CCN(C2CCC2)CC1 (protonated)
C=c1[nH]c(=Cc2[n-]c(=O)[n-]c2[O-])cc1C(=O)N1CCN(C2CCC2)CC1 (3D coordinates assigned)
C=c1[nH]c(=Cc2[n-]c(=O)[n-]c2[O-])cc1C(=O)N1CCN(C2CCC2)CC1 (nonaromatic ring conformer: 181.56686449896623 kcal/mol)

>  <smiles>  (2599) 
C=c1[nH]c(=Cc2[nH]c(=O)[nH]c2O)cc1C(=O)N1CCN(C2CCC2)CC1

>  <score_type>  (2599) 
oracle

>  <origin>  (2599) 
adg

>  <m_score__min__energy>  (2599) 
-17.289999999999999

>  <m_primary>  (2599) 
energy

$$$$
2:0
     RDKit          3D

 31 34  0  0  0  0  0  0  0  0999 V2000
   57.7300   30.9500   43.4670 C   0  0  0  0  0  0  0  0  0  0  0  0
   57.8680   30.6830   44.7760 C   0  0  0  0  0  0  0  0  0  0  0  0
   57.6610   29.4440   45.4050 C   0  0  0  0  0  0  0  0  0  0  0  0
   57.0330   28.3300   44.9810 C   0  0  0  0  0  0  0  0  0  0  0  0
   57.1370   26.9960   45.6050 C   0  0  0  0  0  0  0  0  0  0  0  0
   58.2400   26.2260   45.5810 N   0  0  0  0  0  0  0  0  0  0  0  0
   57.8240   25.0600   46.1190 C   0  0  0  0  0  0  0  0  0  0  0  0
   58.5900   24.0780   46.2760 O   0  0  0  0  0  0  0  0  0  0  0  0
   56.5130   25.0200   46.4380 N   0  0  0  0  0  0  0  0  0  0  0  0
   56.0910   26.2480   46.0870 C   0  0  0  0  0  0  0  0  0  0  0  0
   54.7730   26.6610   46.1730 O   0  0  0  0  0  0  0  0  0  0  0  0
   58.1800   29.5670   46.6820 C   0  0  0  0  0  0  0  0  0  0  0  0
   58.5860   30.8770   46.8240 C   0  0  0  0  0  0  0  0  0  0  0  0
   59.1530   31.4460   48.0650 C   0  0  0  0  0  0  0  0  0  0  0  0
   58.4180   32.2050   48.7610 O   0  0  0  0  0  0  0  0  0  0  0  0
   60.4940   31.0810   48.5100 N   0  0  0  0  0  0  0  0  0  0  0  0
   60.4490   30.5140   49.8650 C   0  0  0  0  0  0  0  0  0  0  0  0
   60.1050   29.0360   49.7060 C   0  0  0  0  0  0  0  0  0  0  0  0
   60.6110   28.6760   48.3170 C   0  0  0  0  0  0  0  0  0  0  0  0
   61.0950   29.9930   47.7120 C   0  0  0  0  0  0  0  0  0  0  0  0
   58.3990   31.5590   45.6700 N   0  0  0  0  0  0  0  0  0  0  0  0
   58.7670   32.9620   45.4250 C   0  0  0  0  0  0  0  0  0  0  0  0
   57.9040   33.8930   46.2790 C   0  0  0  0  0  0  0  0  0  0  0  0
   58.7130   34.4850   47.3520 N   0  0  0  0  0  0  0  0  0  0  0  0
   60.0130   34.9690   46.8540 C   0  0  0  0  0  0  0  0  0  0  0  0
   61.1690   34.2340   47.4930 C   0  0  0  0  0  0  0  0  0  0  0  0
   61.3290   34.2450   48.8870 C   0  0  0  0  0  0  0  0  0  0  0  0
   62.3820   33.5470   49.4790 C   0  0  0  0  0  0  0  0  0  0  0  0
   63.2800   32.8230   48.6880 C   0  0  0  0  0  0  0  0  0  0  0  0
   63.1260   32.8030   47.3020 C   0  0  0  0  0  0  0  0  0  0  0  0
   62.0780   33.5120   46.7010 C   0  0  0  0  0  0  0  0  0  0  0  0
  1  2  2  0
  2  3  1  0
  3  4  2  0
  4  5  1  0
  5  6  1  0
  6  7  1  0
  7  8  2  0
  7  9  1  0
  9 10  1  0
 10 11  1  0
  3 12  1  0
 12 13  2  0
 13 14  1  0
 14 15  2  0
 14 16  1  0
 16 17  1  0
 17 18  1  0
 18 19  1  0
 19 20  1  0
 13 21  1  0
 21 22  1  0
 22 23  1  0
 23 24  1  0
 24 25  1  0
 25 26  1  0
 26 27  2  0
 27 28  1  0
 28 29  2  0
 29 30  1  0
 30 31  2  0
 21  2  1  0
 31 26  1  0
 10  5  2  0
 20 16  1  0
M  CHG  4   6  -1   9  -1  11  -1  16   1
M  END
>  <UniqueID>  (2600) 
2

>  <SMILES>  (2600) 
C=c1/c(=C\c2[n-]c(=O)[n-]c2[O-])cc(C(=O)[NH+]2CCCC2)n1CCNCc1ccccc1

>  <Energy>  (2600) 
137.48462212106628

>  <Genealogy>  (2600) 
C=c1c(=Cc2[n-]c(=O)[n-]c2[O-])cc(C(=O)[NH+]2CCCC2)n1CCNCc1ccccc1 (protonated)
C=c1/c(=C\c2[n-]c(=O)[n-]c2[O-])cc(C(=O)[NH+]2CCCC2)n1CCNCc1ccccc1 (cis-trans isomerization)
C=c1/c(=C\c2[n-]c(=O)[n-]c2[O-])cc(C(=O)[NH+]2CCCC2)n1CCNCc1ccccc1 (3D coordinates assigned)
C=c1/c(=C\c2[n-]c(=O)[n-]c2[O-])cc(C(=O)[NH+]2CCCC2)n1CCNCc1ccccc1 (nonaromatic ring conformer: 137.48462212106628 kcal/mol)

>  <smiles>  (2600) 
C=c1c(=Cc2[nH]c(=O)[nH]c2O)cc(C(=O)N2CCCC2)n1CCNCc1ccccc1

>  <score_type>  (2600) 
oracle

>  <origin>  (2600) 
adg

>  <m_score__min__energy>  (2600) 
-14.859999999999999

>  <m_primary>  (2600) 
energy

$$$$
13:0
     RDKit          3D

 34 37  0  0  0  0  0  0  0  0999 V2000
   59.8660   29.3180   44.6650 C   0  0  0  0  0  0  0  0  0  0  0  0
   59.5020   29.3050   45.9590 C   0  0  0  0  0  0  0  0  0  0  0  0
   58.5030   28.4970   46.5170 C   0  0  0  0  0  0  0  0  0  0  0  0
   57.6620   27.6720   45.8540 C   0  0  0  0  0  0  0  0  0  0  0  0
   57.1930   26.3470   46.3240 C   0  0  0  0  0  0  0  0  0  0  0  0
   57.9670   25.3380   46.7620 N   0  0  0  0  0  0  0  0  0  0  0  0
   57.0820   24.3660   47.0640 C   0  0  0  0  0  0  0  0  0  0  0  0
   57.4340   23.2450   47.5160 O   0  0  0  0  0  0  0  0  0  0  0  0
   55.7900   24.6870   46.8430 N   0  0  0  0  0  0  0  0  0  0  0  0
   55.8780   25.9420   46.3750 C   0  0  0  0  0  0  0  0  0  0  0  0
   54.7770   26.7040   46.0030 O   0  0  0  0  0  0  0  0  0  0  0  0
   58.5650   28.7090   47.8850 C   0  0  0  0  0  0  0  0  0  0  0  0
   59.5580   29.6410   48.1100 C   0  0  0  0  0  0  0  0  0  0  0  0
   60.0070   29.9970   49.4760 C   0  0  0  0  0  0  0  0  0  0  0  0
   59.2870   30.7730   50.1630 O   0  0  0  0  0  0  0  0  0  0  0  0
   61.2640   29.5470   49.9960 N   0  0  0  0  0  0  0  0  0  0  0  0
   61.8250   30.0370   51.2540 C   0  0  0  0  0  0  0  0  0  0  0  0
   63.0350   30.8790   50.9620 C   0  0  0  0  0  0  0  0  0  0  0  0
   64.2760   30.5510   51.5280 C   0  0  0  0  0  0  0  0  0  0  0  0
   65.4170   31.2890   51.2000 C   0  0  0  0  0  0  0  0  0  0  0  0
   65.3390   32.3550   50.2960 C   0  0  0  0  0  0  0  0  0  0  0  0
   66.5140   33.0600   49.9960 O   0  0  0  0  0  0  0  0  0  0  0  0
   67.6650   33.0960   50.8340 C   0  0  0  0  0  0  0  0  0  0  0  0
   64.0950   32.6780   49.7200 C   0  0  0  0  0  0  0  0  0  0  0  0
   62.9540   31.9400   50.0480 C   0  0  0  0  0  0  0  0  0  0  0  0
   60.1180   30.0320   46.9340 N   0  0  0  0  0  0  0  0  0  0  0  0
   61.2340   30.9780   46.7440 C   0  0  0  0  0  0  0  0  0  0  0  0
   60.9260   32.3730   47.3300 C   0  0  0  0  0  0  0  0  0  0  0  0
   59.7700   33.0550   46.6490 C   0  0  0  0  0  0  0  0  0  0  0  0
   60.0000   33.9950   45.6280 C   0  0  0  0  0  0  0  0  0  0  0  0
   58.9250   34.5880   44.9590 C   0  0  0  0  0  0  0  0  0  0  0  0
   57.6130   34.2570   45.3100 C   0  0  0  0  0  0  0  0  0  0  0  0
   57.3740   33.3350   46.3320 C   0  0  0  0  0  0  0  0  0  0  0  0
   58.4470   32.7340   47.0000 C   0  0  0  0  0  0  0  0  0  0  0  0
  1  2  2  0
  2  3  1  0
  3  4  2  3
  4  5  1  0
  5  6  1  0
  6  7  1  0
  7  8  2  0
  7  9  1  0
  9 10  1  0
 10 11  1  0
  3 12  1  0
 12 13  2  0
 13 14  1  0
 14 15  2  0
 14 16  1  0
 16 17  1  0
 17 18  1  0
 18 19  2  0
 19 20  1  0
 20 21  2  0
 21 22  1  0
 22 23  1  0
 21 24  1  0
 24 25  2  0
 13 26  1  0
 26 27  1  0
 27 28  1  0
 28 29  1  0
 29 30  2  0
 30 31  1  0
 31 32  2  0
 32 33  1  0
 33 34  2  0
 26  2  1  0
 34 29  1  0
 10  5  2  0
 25 18  1  0
M  CHG  3   6  -1   9  -1  11  -1
M  END
>  <UniqueID>  (2601) 
12

>  <SMILES>  (2601) 
C=c1c(=Cc2[n-]c(=O)[n-]c2[O-])cc(C(=O)NCc2ccc(OC)cc2)n1CCc1ccccc1

>  <Energy>  (2601) 
122.54242743012101

>  <Genealogy>  (2601) 
C=c1c(=Cc2[n-]c(=O)[n-]c2[O-])cc(C(=O)NCc2ccc(OC)cc2)n1CCc1ccccc1 (protonated)
C=c1c(=Cc2[n-]c(=O)[n-]c2[O-])cc(C(=O)NCc2ccc(OC)cc2)n1CCc1ccccc1 (3D coordinates assigned)
C=c1c(=Cc2[n-]c(=O)[n-]c2[O-])cc(C(=O)NCc2ccc(OC)cc2)n1CCc1ccccc1 (optimized conformer: 122.54242743012101 kcal/mol)

>  <smiles>  (2601) 
C=c1c(=Cc2[nH]c(=O)[nH]c2O)cc(C(=O)NCc2ccc(OC)cc2)n1CCc1ccccc1

>  <score_type>  (2601) 
oracle

>  <origin>  (2601) 
adg

>  <m_score__min__energy>  (2601) 
-17.199999999999999

>  <m_primary>  (2601) 
energy

$$$$
22:0
     RDKit          3D

 28 30  0  0  0  0  0  0  0  0999 V2000
   59.1130   30.2790   46.7400 C   0  0  0  0  0  0  0  0  0  0  0  0
   58.2110   29.8130   45.8620 C   0  0  0  0  0  0  0  0  0  0  0  0
   57.5370   28.5890   45.9490 C   0  0  0  0  0  0  0  0  0  0  0  0
   57.6940   27.6330   46.8870 C   0  0  0  0  0  0  0  0  0  0  0  0
   57.1730   26.2590   46.7550 C   0  0  0  0  0  0  0  0  0  0  0  0
   57.8680   25.1670   47.1220 N   0  0  0  0  0  0  0  0  0  0  0  0
   57.0010   24.1550   46.9050 C   0  0  0  0  0  0  0  0  0  0  0  0
   57.2970   22.9500   47.1200 O   0  0  0  0  0  0  0  0  0  0  0  0
   55.7880   24.5350   46.4470 N   0  0  0  0  0  0  0  0  0  0  0  0
   55.9080   25.8710   46.3690 C   0  0  0  0  0  0  0  0  0  0  0  0
   54.8680   26.7160   45.9990 O   0  0  0  0  0  0  0  0  0  0  0  0
   56.7140   28.5160   44.8350 C   0  0  0  0  0  0  0  0  0  0  0  0
   56.8960   29.6870   44.1290 C   0  0  0  0  0  0  0  0  0  0  0  0
   56.2510   29.9820   42.8080 C   0  0  0  0  0  0  0  0  0  0  0  0
   57.8130   30.4760   44.7400 N   0  0  0  0  0  0  0  0  0  0  0  0
   58.2470   31.8030   44.2690 C   0  0  0  0  0  0  0  0  0  0  0  0
   57.2760   32.9030   44.7170 C   0  0  0  0  0  0  0  0  0  0  0  0
   57.7920   33.6490   45.9100 C   0  0  0  0  0  0  0  0  0  0  0  0
   57.1910   33.5480   47.0140 O   0  0  0  0  0  0  0  0  0  0  0  0
   58.9680   34.4600   45.7980 N   0  0  0  0  0  0  0  0  0  0  0  0
   59.5400   35.1510   46.9540 C   0  0  0  0  0  0  0  0  0  0  0  0
   59.9280   34.1650   48.0650 C   0  0  0  0  0  0  0  0  0  0  0  0
   61.4020   33.8490   48.0250 C   0  0  0  0  0  0  0  0  0  0  0  0
   62.1330   33.7010   49.2160 C   0  0  0  0  0  0  0  0  0  0  0  0
   63.4900   33.3590   49.1700 C   0  0  0  0  0  0  0  0  0  0  0  0
   64.1250   33.1600   47.9400 C   0  0  0  0  0  0  0  0  0  0  0  0
   63.4040   33.3050   46.7520 C   0  0  0  0  0  0  0  0  0  0  0  0
   62.0460   33.6450   46.7930 C   0  0  0  0  0  0  0  0  0  0  0  0
  1  2  2  0
  2  3  1  0
  3  4  2  0
  4  5  1  0
  5  6  1  0
  6  7  1  0
  7  8  2  0
  7  9  1  0
  9 10  1  0
 10 11  1  0
  3 12  1  0
 12 13  2  0
 13 14  1  0
 13 15  1  0
 15 16  1  0
 16 17  1  0
 17 18  1  0
 18 19  2  0
 18 20  1  0
 20 21  1  0
 21 22  1  0
 22 23  1  0
 23 24  2  0
 24 25  1  0
 25 26  2  0
 26 27  1  0
 27 28  2  0
 15  2  1  0
 28 23  1  0
 10  5  2  0
M  CHG  3   6  -1   9  -1  11  -1
M  END
>  <UniqueID>  (2602) 
20

>  <SMILES>  (2602) 
C=c1/c(=C/c2[n-]c(=O)[n-]c2[O-])cc(C)n1CCC(=O)NCCc1ccccc1

>  <Energy>  (2602) 
107.0863594381843

>  <Genealogy>  (2602) 
C=c1c(=Cc2[n-]c(=O)[n-]c2[O-])cc(C)n1CCC(=O)NCCc1ccccc1 (protonated)
C=c1/c(=C/c2[n-]c(=O)[n-]c2[O-])cc(C)n1CCC(=O)NCCc1ccccc1 (cis-trans isomerization)
C=c1/c(=C/c2[n-]c(=O)[n-]c2[O-])cc(C)n1CCC(=O)NCCc1ccccc1 (3D coordinates assigned)
C=c1/c(=C/c2[n-]c(=O)[n-]c2[O-])cc(C)n1CCC(=O)NCCc1ccccc1 (optimized conformer: 107.0863594381843 kcal/mol)

>  <smiles>  (2602) 
C=c1c(=Cc2[nH]c(=O)[nH]c2O)cc(C)n1CCC(=O)NCCc1ccccc1

>  <score_type>  (2602) 
oracle

>  <origin>  (2602) 
adg

>  <m_score__min__energy>  (2602) 
-16.559999999999999

>  <m_primary>  (2602) 
energy

$$$$
23:0
     RDKit          3D

 35 38  0  0  0  0  0  0  0  0999 V2000
   57.9850   30.2470   43.7760 C   0  0  0  0  0  0  0  0  0  0  0  0
   58.3240   30.3460   45.0720 C   0  0  0  0  0  0  0  0  0  0  0  0
   58.5070   29.2810   45.9640 C   0  0  0  0  0  0  0  0  0  0  0  0
   58.4310   27.9600   45.6830 C   0  0  0  0  0  0  0  0  0  0  0  0
   57.2590   27.0870   45.9240 C   0  0  0  0  0  0  0  0  0  0  0  0
   57.2850   25.8400   46.4290 N   0  0  0  0  0  0  0  0  0  0  0  0
   55.9890   25.4620   46.4140 C   0  0  0  0  0  0  0  0  0  0  0  0
   55.6060   24.3350   46.8220 O   0  0  0  0  0  0  0  0  0  0  0  0
   55.1340   26.3880   45.9280 N   0  0  0  0  0  0  0  0  0  0  0  0
   55.9540   27.4070   45.6230 C   0  0  0  0  0  0  0  0  0  0  0  0
   55.5170   28.6060   45.0760 O   0  0  0  0  0  0  0  0  0  0  0  0
   58.7980   29.8600   47.1910 C   0  0  0  0  0  0  0  0  0  0  0  0
   58.8050   31.2300   47.0070 C   0  0  0  0  0  0  0  0  0  0  0  0
   59.0460   32.2310   48.0840 C   0  0  0  0  0  0  0  0  0  0  0  0
   58.0500   32.7190   48.6850 O   0  0  0  0  0  0  0  0  0  0  0  0
   60.3790   32.6190   48.5080 N   0  0  0  0  0  0  0  0  0  0  0  0
   61.4190   31.7670   47.8860 C   0  0  0  0  0  0  0  0  0  0  0  0
   62.8170   32.2260   48.3100 C   0  0  0  0  0  0  0  0  0  0  0  0
   62.8990   32.3420   49.7670 N   0  0  0  0  0  0  0  0  0  0  0  0
   64.1680   32.6360   50.3650 C   0  0  0  0  0  0  0  0  0  0  0  0
   64.6000   33.8190   50.3190 O   0  0  0  0  0  0  0  0  0  0  0  0
   64.9580   31.5950   50.9850 N   0  0  0  0  0  0  0  0  0  0  0  0
   64.3590   30.2790   51.2560 C   0  0  0  0  0  0  0  0  0  0  0  0
   65.3570   29.3130   51.9060 C   0  0  0  0  0  0  0  0  0  0  0  0
   66.6530   29.3760   51.2170 N   0  0  0  0  0  0  0  0  0  0  0  0
   67.4050   28.1750   50.9660 C   0  0  0  0  0  0  0  0  0  0  0  0
   68.5000   28.2340   50.3390 O   0  0  0  0  0  0  0  0  0  0  0  0
   66.9190   26.9380   51.4120 O   0  0  0  0  0  0  0  0  0  0  0  0
   66.4240   25.9420   50.5260 C   0  0  0  0  0  0  0  0  0  0  0  0
   67.2380   30.6800   50.8690 C   0  0  0  0  0  0  0  0  0  0  0  0
   66.3600   31.8420   51.3490 C   0  0  0  0  0  0  0  0  0  0  0  0
   61.7250   32.0740   50.6000 C   0  0  0  0  0  0  0  0  0  0  0  0
   60.4670   32.7260   49.9950 C   0  0  0  0  0  0  0  0  0  0  0  0
   58.5350   31.5250   45.7120 N   0  0  0  0  0  0  0  0  0  0  0  0
   58.4990   32.8650   45.1100 C   0  0  0  0  0  0  0  0  0  0  0  0
  1  2  2  0
  2  3  1  0
  3  4  2  3
  4  5  1  0
  5  6  1  0
  6  7  1  0
  7  8  2  0
  7  9  1  0
  9 10  1  0
 10 11  1  0
  3 12  1  0
 12 13  2  0
 13 14  1  0
 14 15  2  0
 14 16  1  0
 16 17  1  0
 17 18  1  0
 18 19  1  0
 19 20  1  0
 20 21  2  0
 20 22  1  0
 22 23  1  0
 23 24  1  0
 24 25  1  0
 25 26  1  0
 26 27  2  0
 26 28  1  0
 28 29  1  0
 25 30  1  0
 30 31  1  0
 19 32  1  0
 32 33  1  0
 13 34  1  0
 34 35  1  0
 34  2  1  0
 10  5  2  0
 33 16  1  0
 31 22  1  0
M  CHG  4   6  -1   9  -1  11  -1  16   1
M  END
>  <UniqueID>  (2603) 
21

>  <SMILES>  (2603) 
C=c1c(=Cc2[n-]c(=O)[n-]c2[O-])cc(C(=O)[NH+]2CCN(C(=O)N3CCN(C(=O)OC)CC3)CC2)n1C

>  <Energy>  (2603) 
141.516479246717

>  <Genealogy>  (2603) 
C=c1c(=Cc2[n-]c(=O)[n-]c2[O-])cc(C(=O)[NH+]2CCN(C(=O)N3CCN(C(=O)OC)CC3)CC2)n1C (protonated)
C=c1c(=Cc2[n-]c(=O)[n-]c2[O-])cc(C(=O)[NH+]2CCN(C(=O)N3CCN(C(=O)OC)CC3)CC2)n1C (3D coordinates assigned)
C=c1c(=Cc2[n-]c(=O)[n-]c2[O-])cc(C(=O)[NH+]2CCN(C(=O)N3CCN(C(=O)OC)CC3)CC2)n1C (nonaromatic ring conformer: 141.516479246717 kcal/mol)

>  <smiles>  (2603) 
C=c1c(=Cc2[nH]c(=O)[nH]c2O)cc(C(=O)N2CCN(C(=O)N3CCN(C(=O)OC)CC3)CC2)n1C

>  <score_type>  (2603) 
oracle

>  <origin>  (2603) 
adg

>  <m_score__min__energy>  (2603) 
-16.690000000000001

>  <m_primary>  (2603) 
energy

$$$$
24:0
     RDKit          3D

 33 36  0  0  0  0  0  0  0  0999 V2000
   57.9490   26.9030   43.4930 C   0  0  0  0  0  0  0  0  0  0  0  0
   58.1430   26.7760   44.8160 C   0  0  0  0  0  0  0  0  0  0  0  0
   57.8530   25.6470   45.6000 C   0  0  0  0  0  0  0  0  0  0  0  0
   57.1250   24.5470   45.3290 C   0  0  0  0  0  0  0  0  0  0  0  0
   55.6580   24.4500   45.4040 C   0  0  0  0  0  0  0  0  0  0  0  0
   54.9410   23.3490   45.1040 N   0  0  0  0  0  0  0  0  0  0  0  0
   53.6640   23.7620   45.2450 C   0  0  0  0  0  0  0  0  0  0  0  0
   52.6790   22.9960   45.0650 O   0  0  0  0  0  0  0  0  0  0  0  0
   53.5230   25.0590   45.5940 N   0  0  0  0  0  0  0  0  0  0  0  0
   54.7960   25.4820   45.6760 C   0  0  0  0  0  0  0  0  0  0  0  0
   55.1620   26.7810   46.0010 O   0  0  0  0  0  0  0  0  0  0  0  0
   58.4960   25.8410   46.8090 C   0  0  0  0  0  0  0  0  0  0  0  0
   59.0920   27.0830   46.7480 C   0  0  0  0  0  0  0  0  0  0  0  0
   59.9460   27.6460   47.8160 C   0  0  0  0  0  0  0  0  0  0  0  0
   61.1190   27.1990   47.9250 O   0  0  0  0  0  0  0  0  0  0  0  0
   59.4750   28.6450   48.7660 N   0  0  0  0  0  0  0  0  0  0  0  0
   58.8630   29.8070   48.0560 C   0  0  0  0  0  0  0  0  0  0  0  0
   59.3080   31.1750   48.5920 C   0  0  0  0  0  0  0  0  0  0  0  0
   60.7700   31.2110   48.6920 N   0  0  0  0  0  0  0  0  0  0  0  0
   61.5570   32.3090   48.1800 C   0  0  0  0  0  0  0  0  0  0  0  0
   62.7830   32.1270   47.9380 O   0  0  0  0  0  0  0  0  0  0  0  0
   60.9310   33.6460   47.8570 C   0  0  0  0  0  0  0  0  0  0  0  0
   60.8790   33.9760   46.3480 C   0  0  0  0  0  0  0  0  0  0  0  0
   59.5640   34.4550   45.8640 N   0  0  0  0  0  0  0  0  0  0  0  0
   58.4830   34.5700   46.8610 C   0  0  0  0  0  0  0  0  0  0  0  0
   57.4720   33.4270   46.7380 C   0  0  0  0  0  0  0  0  0  0  0  0
   56.9820   33.3490   45.4180 O   0  0  0  0  0  0  0  0  0  0  0  0
   58.0290   32.9550   44.5590 C   0  0  0  0  0  0  0  0  0  0  0  0
   59.1480   34.0110   44.5170 C   0  0  0  0  0  0  0  0  0  0  0  0
   61.4610   30.0970   49.3510 C   0  0  0  0  0  0  0  0  0  0  0  0
   60.4730   29.0070   49.8080 C   0  0  0  0  0  0  0  0  0  0  0  0
   58.8320   27.6770   45.5610 N   0  0  0  0  0  0  0  0  0  0  0  0
   59.3410   28.9840   45.1290 C   0  0  0  0  0  0  0  0  0  0  0  0
  1  2  2  0
  2  3  1  0
  3  4  2  3
  4  5  1  0
  5  6  1  0
  6  7  1  0
  7  8  2  0
  7  9  1  0
  9 10  1  0
 10 11  1  0
  3 12  1  0
 12 13  2  0
 13 14  1  0
 14 15  2  0
 14 16  1  0
 16 17  1  0
 17 18  1  0
 18 19  1  0
 19 20  1  0
 20 21  2  0
 20 22  1  0
 22 23  1  0
 23 24  1  0
 24 25  1  0
 25 26  1  0
 26 27  1  0
 27 28  1  0
 28 29  1  0
 19 30  1  0
 30 31  1  0
 13 32  1  0
 32 33  1  0
 32  2  1  0
 10  5  2  0
 31 16  1  0
 29 24  1  0
M  CHG  4   6  -1   9  -1  11  -1  16   1
M  END
>  <UniqueID>  (2604) 
22

>  <SMILES>  (2604) 
C=c1c(=Cc2[n-]c(=O)[n-]c2[O-])cc(C(=O)[NH+]2CCN(C(=O)CCN3CCOCC3)CC2)n1C

>  <Energy>  (2604) 
163.23935529663603

>  <Genealogy>  (2604) 
C=c1c(=Cc2[n-]c(=O)[n-]c2[O-])cc(C(=O)[NH+]2CCN(C(=O)CCN3CCOCC3)CC2)n1C (protonated)
C=c1c(=Cc2[n-]c(=O)[n-]c2[O-])cc(C(=O)[NH+]2CCN(C(=O)CCN3CCOCC3)CC2)n1C (3D coordinates assigned)
C=c1c(=Cc2[n-]c(=O)[n-]c2[O-])cc(C(=O)[NH+]2CCN(C(=O)CCN3CCOCC3)CC2)n1C (nonaromatic ring conformer: 163.23935529663603 kcal/mol)

>  <smiles>  (2604) 
C=c1c(=Cc2[nH]c(=O)[nH]c2O)cc(C(=O)N2CCN(C(=O)CCN3CCOCC3)CC2)n1C

>  <score_type>  (2604) 
oracle

>  <origin>  (2604) 
adg

>  <m_score__min__energy>  (2604) 
-16.809999999999999

>  <m_primary>  (2604) 
energy

$$$$
27:0
     RDKit          3D

 35 39  0  0  0  0  0  0  0  0999 V2000
   57.5450   25.8160   47.4700 C   0  0  0  0  0  0  0  0  0  0  0  0
   58.1200   26.2560   46.3400 C   0  0  0  0  0  0  0  0  0  0  0  0
   57.7690   25.9000   45.0300 C   0  0  0  0  0  0  0  0  0  0  0  0
   57.0060   24.8930   44.5610 C   0  0  0  0  0  0  0  0  0  0  0  0
   55.6680   24.5330   45.0590 C   0  0  0  0  0  0  0  0  0  0  0  0
   55.0570   23.3540   44.8370 N   0  0  0  0  0  0  0  0  0  0  0  0
   53.8200   23.5410   45.3440 C   0  0  0  0  0  0  0  0  0  0  0  0
   52.9410   22.6400   45.3390 O   0  0  0  0  0  0  0  0  0  0  0  0
   53.5960   24.7730   45.8500 N   0  0  0  0  0  0  0  0  0  0  0  0
   54.7710   25.3920   45.6470 C   0  0  0  0  0  0  0  0  0  0  0  0
   55.0150   26.7160   45.9860 O   0  0  0  0  0  0  0  0  0  0  0  0
   58.4120   26.8020   44.1980 C   0  0  0  0  0  0  0  0  0  0  0  0
   59.1910   27.6050   45.0040 C   0  0  0  0  0  0  0  0  0  0  0  0
   60.1010   28.6820   44.4930 C   0  0  0  0  0  0  0  0  0  0  0  0
   59.0150   27.2800   46.3060 N   0  0  0  0  0  0  0  0  0  0  0  0
   59.6560   27.9170   47.4300 C   0  0  0  0  0  0  0  0  0  0  0  0
   60.0500   27.1640   48.5480 C   0  0  0  0  0  0  0  0  0  0  0  0
   60.6270   27.7920   49.6550 C   0  0  0  0  0  0  0  0  0  0  0  0
   60.8230   29.1760   49.6530 C   0  0  0  0  0  0  0  0  0  0  0  0
   60.4570   29.9370   48.5330 C   0  0  0  0  0  0  0  0  0  0  0  0
   60.6710   31.3560   48.5160 N   0  0  0  0  0  0  0  0  0  0  0  0
   60.0580   32.1980   49.5450 C   0  0  0  0  0  0  0  0  0  0  0  0
   60.0630   33.6720   49.1070 C   0  0  0  0  0  0  0  0  0  0  0  0
   59.8110   33.8030   47.6560 N   0  0  0  0  0  0  0  0  0  0  0  0
   58.4620   33.3270   47.2740 C   0  0  0  0  0  0  0  0  0  0  0  0
   58.3400   33.2580   45.7370 C   0  0  0  0  0  0  0  0  0  0  0  0
   57.5550   32.1110   45.2310 N   0  0  0  0  0  0  0  0  0  0  0  0
   57.6810   31.8780   43.7820 C   0  0  0  0  0  0  0  0  0  0  0  0
   56.6480   30.8210   43.3410 C   0  0  0  0  0  0  0  0  0  0  0  0
   55.9930   30.2140   44.4430 O   0  0  0  0  0  0  0  0  0  0  0  0
   56.9480   29.7150   45.3590 C   0  0  0  0  0  0  0  0  0  0  0  0
   57.7620   30.8650   45.9890 C   0  0  0  0  0  0  0  0  0  0  0  0
   60.8870   33.1750   46.8430 C   0  0  0  0  0  0  0  0  0  0  0  0
   61.5570   31.9590   47.5180 C   0  0  0  0  0  0  0  0  0  0  0  0
   59.8690   29.3040   47.4280 C   0  0  0  0  0  0  0  0  0  0  0  0
  1  2  2  0
  2  3  1  0
  3  4  2  3
  4  5  1  0
  5  6  1  0
  6  7  1  0
  7  8  2  0
  7  9  1  0
  9 10  1  0
 10 11  1  0
  3 12  1  0
 12 13  2  0
 13 14  1  0
 13 15  1  0
 15 16  1  0
 16 17  2  0
 17 18  1  0
 18 19  2  0
 19 20  1  0
 20 21  1  0
 21 22  1  0
 22 23  1  0
 23 24  1  0
 24 25  1  0
 25 26  1  0
 26 27  1  0
 27 28  1  0
 28 29  1  0
 29 30  1  0
 30 31  1  0
 31 32  1  0
 24 33  1  0
 33 34  1  0
 20 35  2  0
 15  2  1  0
 35 16  1  0
 10  5  2  0
 34 21  1  0
 32 27  1  0
M  CHG  3   6  -1   9  -1  11  -1
M  END
>  <UniqueID>  (2605) 
25

>  <SMILES>  (2605) 
C=c1c(=Cc2[n-]c(=O)[n-]c2[O-])cc(C)n1-c1cccc(N2CCN(CCN3CCOCC3)CC2)c1

>  <Energy>  (2605) 
167.94719184495338

>  <Genealogy>  (2605) 
C=c1c(=Cc2[n-]c(=O)[n-]c2[O-])cc(C)n1-c1cccc(N2CCN(CCN3CCOCC3)CC2)c1 (protonated)
C=c1c(=Cc2[n-]c(=O)[n-]c2[O-])cc(C)n1-c1cccc(N2CCN(CCN3CCOCC3)CC2)c1 (3D coordinates assigned)
C=c1c(=Cc2[n-]c(=O)[n-]c2[O-])cc(C)n1-c1cccc(N2CCN(CCN3CCOCC3)CC2)c1 (nonaromatic ring conformer: 167.94719184495338 kcal/mol)

>  <smiles>  (2605) 
C=c1c(=Cc2[nH]c(=O)[nH]c2O)cc(C)n1-c1cccc(N2CCN(CCN3CCOCC3)CC2)c1

>  <score_type>  (2605) 
oracle

>  <origin>  (2605) 
adg

>  <m_score__min__energy>  (2605) 
-17.710000000000001

>  <m_primary>  (2605) 
energy

$$$$
28:0
     RDKit          3D

 29 31  0  0  0  0  0  0  0  0999 V2000
   58.8150   29.8120   52.9650 C   0  0  0  0  0  0  0  0  0  0  0  0
   59.7010   30.3690   52.1000 N   0  0  0  0  0  0  0  0  0  0  0  0
   59.0720   30.9750   51.0660 C   0  0  0  0  0  0  0  0  0  0  0  0
   59.6820   31.6030   50.1060 N   0  0  0  0  0  0  0  0  0  0  0  0
   59.4240   32.9530   49.6890 C   0  0  0  0  0  0  0  0  0  0  0  0
   59.2890   33.8400   50.5730 O   0  0  0  0  0  0  0  0  0  0  0  0
   59.3510   33.3440   48.2580 C   0  0  0  0  0  0  0  0  0  0  0  0
   58.1280   33.2150   47.5770 C   0  0  0  0  0  0  0  0  0  0  0  0
   58.0300   33.5570   46.2270 C   0  0  0  0  0  0  0  0  0  0  0  0
   59.1460   34.0390   45.5440 C   0  0  0  0  0  0  0  0  0  0  0  0
   60.3630   34.1930   46.2110 C   0  0  0  0  0  0  0  0  0  0  0  0
   60.4770   33.8600   47.5760 C   0  0  0  0  0  0  0  0  0  0  0  0
   61.6800   34.0430   48.2790 O   0  0  0  0  0  0  0  0  0  0  0  0
   62.8280   33.2110   48.1530 C   0  0  0  0  0  0  0  0  0  0  0  0
   57.3990   30.8370   51.1660 S   0  0  0  0  0  0  0  0  0  0  0  0
   57.4830   29.9700   52.6040 C   0  0  0  0  0  0  0  0  0  0  0  0
   56.0980   29.4880   53.5640 S   0  0  0  0  0  0  0  0  0  0  0  0
   55.9140   28.0010   53.4490 O   0  0  0  0  0  0  0  0  0  0  0  0
   56.3320   29.8350   55.0080 O   0  0  0  0  0  0  0  0  0  0  0  0
   54.6690   30.2890   52.9870 N   0  0  0  0  0  0  0  0  0  0  0  0
   53.9120   29.3890   52.1210 C   0  0  0  0  0  0  0  0  0  0  0  0
   52.8930   30.1830   51.3560 C   0  0  0  0  0  0  0  0  0  0  0  0
   52.4460   29.7410   50.1000 C   0  0  0  0  0  0  0  0  0  0  0  0
   51.5180   30.4980   49.3770 C   0  0  0  0  0  0  0  0  0  0  0  0
   51.0390   31.7050   49.8960 C   0  0  0  0  0  0  0  0  0  0  0  0
   50.1170   32.4510   49.1730 O   0  0  0  0  0  0  0  0  0  0  0  0
   51.4930   32.1590   51.1410 C   0  0  0  0  0  0  0  0  0  0  0  0
   51.0260   33.3610   51.6590 O   0  0  0  0  0  0  0  0  0  0  0  0
   52.4220   31.4030   51.8650 C   0  0  0  0  0  0  0  0  0  0  0  0
  1  2  1  0
  2  3  1  0
  3  4  2  0
  4  5  1  0
  5  6  2  0
  5  7  1  0
  7  8  2  0
  8  9  1  0
  9 10  2  0
 10 11  1  0
 11 12  2  0
 12 13  1  0
 13 14  1  0
  3 15  1  0
 15 16  1  0
 16 17  1  0
 17 18  2  0
 17 19  2  0
 17 20  1  0
 20 21  1  0
 21 22  1  0
 22 23  2  0
 23 24  1  0
 24 25  2  0
 25 26  1  0
 25 27  1  0
 27 28  1  0
 27 29  2  0
 16  1  2  0
 29 22  1  0
 12  7  1  0
M  CHG  4   2  -1  20  -1  26  -1  28  -1
M  END
>  <UniqueID>  (2606) 
26

>  <SMILES>  (2606) 
COc1ccccc1C(=O)/N=c1\[n-]cc(S(=O)(=O)[N-]Cc2ccc([O-])c([O-])c2)s1

>  <Energy>  (2606) 
79.50362485723623

>  <Genealogy>  (2606) 
COc1ccccc1C(=O)N=c1[n-]cc(S(=O)(=O)[N-]Cc2ccc([O-])c([O-])c2)s1 (protonated)
COc1ccccc1C(=O)/N=c1\[n-]cc(S(=O)(=O)[N-]Cc2ccc([O-])c([O-])c2)s1 (cis-trans isomerization)
COc1ccccc1C(=O)/N=c1\[n-]cc(S(=O)(=O)[N-]Cc2ccc([O-])c([O-])c2)s1 (3D coordinates assigned)
COc1ccccc1C(=O)/N=c1\[n-]cc(S(=O)(=O)[N-]Cc2ccc([O-])c([O-])c2)s1 (optimized conformer: 79.50362485723623 kcal/mol)

>  <smiles>  (2606) 
COc1ccccc1C(=O)N=c1[nH]cc(S(=O)(=O)NCc2ccc(O)c(O)c2)s1

>  <score_type>  (2606) 
oracle

>  <origin>  (2606) 
adg

>  <m_score__min__energy>  (2606) 
-19.120000000000001

>  <m_primary>  (2606) 
energy

$$$$
38:0
     RDKit          3D

 29 32  0  0  0  0  0  0  0  0999 V2000
   60.7130   27.6620   47.6340 C   0  0  0  0  0  0  0  0  0  0  0  0
   59.7940   28.6110   47.3910 C   0  0  0  0  0  0  0  0  0  0  0  0
   58.8290   28.6000   46.3740 C   0  0  0  0  0  0  0  0  0  0  0  0
   58.4130   27.6100   45.5610 C   0  0  0  0  0  0  0  0  0  0  0  0
   57.1950   26.8050   45.7470 C   0  0  0  0  0  0  0  0  0  0  0  0
   57.1710   25.5480   46.2310 N   0  0  0  0  0  0  0  0  0  0  0  0
   55.8510   25.2850   46.3500 C   0  0  0  0  0  0  0  0  0  0  0  0
   55.4160   24.1800   46.7650 O   0  0  0  0  0  0  0  0  0  0  0  0
   55.0360   26.3030   45.9990 N   0  0  0  0  0  0  0  0  0  0  0  0
   55.9040   27.2600   45.6340 C   0  0  0  0  0  0  0  0  0  0  0  0
   55.5240   28.5280   45.2110 O   0  0  0  0  0  0  0  0  0  0  0  0
   58.2970   29.8740   46.3340 C   0  0  0  0  0  0  0  0  0  0  0  0
   58.8830   30.5950   47.3590 C   0  0  0  0  0  0  0  0  0  0  0  0
   58.6350   32.0380   47.6290 C   0  0  0  0  0  0  0  0  0  0  0  0
   58.1910   32.3630   48.7640 O   0  0  0  0  0  0  0  0  0  0  0  0
   58.9560   33.0880   46.6810 N   0  0  0  0  0  0  0  0  0  0  0  0
   59.1910   34.3950   47.3350 C   0  0  0  0  0  0  0  0  0  0  0  0
   59.7670   35.4200   46.3360 C   0  0  0  0  0  0  0  0  0  0  0  0
   59.2650   35.1950   44.8990 C   0  0  0  0  0  0  0  0  0  0  0  0
   57.8920   34.5210   44.8880 C   0  0  0  0  0  0  0  0  0  0  0  0
   57.9320   33.1550   45.6050 C   0  0  0  0  0  0  0  0  0  0  0  0
   59.7840   29.8200   48.0160 N   0  0  0  0  0  0  0  0  0  0  0  0
   60.5670   30.1970   49.2070 C   0  0  0  0  0  0  0  0  0  0  0  0
   61.4620   31.3750   48.9130 C   0  0  0  0  0  0  0  0  0  0  0  0
   62.2560   31.3880   47.7540 C   0  0  0  0  0  0  0  0  0  0  0  0
   63.0960   32.4730   47.4870 C   0  0  0  0  0  0  0  0  0  0  0  0
   63.1580   33.5480   48.3780 C   0  0  0  0  0  0  0  0  0  0  0  0
   62.3820   33.5360   49.5400 C   0  0  0  0  0  0  0  0  0  0  0  0
   61.5410   32.4520   49.8110 C   0  0  0  0  0  0  0  0  0  0  0  0
  1  2  2  0
  2  3  1  0
  3  4  2  0
  4  5  1  0
  5  6  1  0
  6  7  1  0
  7  8  2  0
  7  9  1  0
  9 10  1  0
 10 11  1  0
  3 12  1  0
 12 13  2  0
 13 14  1  0
 14 15  2  0
 14 16  1  0
 16 17  1  0
 17 18  1  0
 18 19  1  0
 19 20  1  0
 20 21  1  0
 13 22  1  0
 22 23  1  0
 23 24  1  0
 24 25  2  0
 25 26  1  0
 26 27  2  0
 27 28  1  0
 28 29  2  0
 22  2  1  0
 29 24  1  0
 10  5  2  0
 21 16  1  0
M  CHG  4   6  -1   9  -1  11  -1  16   1
M  END
>  <UniqueID>  (2607) 
33

>  <SMILES>  (2607) 
C=c1/c(=C\c2[n-]c(=O)[n-]c2[O-])cc(C(=O)[NH+]2CCCCC2)n1Cc1ccccc1

>  <Energy>  (2607) 
136.1063927042044

>  <Genealogy>  (2607) 
C=c1c(=Cc2[n-]c(=O)[n-]c2[O-])cc(C(=O)[NH+]2CCCCC2)n1Cc1ccccc1 (protonated)
C=c1/c(=C\c2[n-]c(=O)[n-]c2[O-])cc(C(=O)[NH+]2CCCCC2)n1Cc1ccccc1 (cis-trans isomerization)
C=c1/c(=C\c2[n-]c(=O)[n-]c2[O-])cc(C(=O)[NH+]2CCCCC2)n1Cc1ccccc1 (3D coordinates assigned)
C=c1/c(=C\c2[n-]c(=O)[n-]c2[O-])cc(C(=O)[NH+]2CCCCC2)n1Cc1ccccc1 (nonaromatic ring conformer: 136.1063927042044 kcal/mol)

>  <smiles>  (2607) 
C=c1c(=Cc2[nH]c(=O)[nH]c2O)cc(C(=O)N2CCCCC2)n1Cc1ccccc1

>  <score_type>  (2607) 
oracle

>  <origin>  (2607) 
adg

>  <m_score__min__energy>  (2607) 
-15.289999999999999

>  <m_primary>  (2607) 
energy

$$$$
76:0
     RDKit          3D

 28 31  0  0  0  0  0  0  0  0999 V2000
   58.1990   30.8260   45.0560 C   0  0  0  0  0  0  0  0  0  0  0  0
   58.6950   30.3110   46.1950 C   0  0  0  0  0  0  0  0  0  0  0  0
   58.8010   28.9450   46.5020 C   0  0  0  0  0  0  0  0  0  0  0  0
   58.4260   27.9080   45.7220 C   0  0  0  0  0  0  0  0  0  0  0  0
   57.2420   27.0420   45.9350 C   0  0  0  0  0  0  0  0  0  0  0  0
   57.2520   25.7910   46.4320 N   0  0  0  0  0  0  0  0  0  0  0  0
   55.9510   25.4310   46.4100 C   0  0  0  0  0  0  0  0  0  0  0  0
   55.5530   24.3050   46.8080 O   0  0  0  0  0  0  0  0  0  0  0  0
   55.1120   26.3700   45.9280 N   0  0  0  0  0  0  0  0  0  0  0  0
   55.9440   27.3810   45.6310 C   0  0  0  0  0  0  0  0  0  0  0  0
   55.5250   28.5910   45.0910 O   0  0  0  0  0  0  0  0  0  0  0  0
   59.3600   28.8820   47.7720 C   0  0  0  0  0  0  0  0  0  0  0  0
   59.5750   30.1790   48.1760 C   0  0  0  0  0  0  0  0  0  0  0  0
   60.2890   30.6250   49.7610 S   0  0  0  0  0  0  0  0  0  0  0  0
   58.7130   30.5110   50.5980 C   0  0  0  0  0  0  0  0  0  0  0  0
   58.2070   29.3560   51.0830 N   0  0  0  0  0  0  0  0  0  0  0  0
   57.0240   29.5130   51.6750 N   0  0  0  0  0  0  0  0  0  0  0  0
   56.5800   30.7880   51.6500 C   0  0  0  0  0  0  0  0  0  0  0  0
   55.3170   31.2340   52.3040 C   0  0  0  0  0  0  0  0  0  0  0  0
   57.6850   31.8100   50.8940 S   0  0  0  0  0  0  0  0  0  0  0  0
   59.1760   31.0550   47.2270 N   0  0  0  0  0  0  0  0  0  0  0  0
   59.1970   32.5200   47.3690 C   0  0  0  0  0  0  0  0  0  0  0  0
   60.5920   33.0010   47.6810 C   0  0  0  0  0  0  0  0  0  0  0  0
   60.8410   33.7460   48.8460 C   0  0  0  0  0  0  0  0  0  0  0  0
   62.1390   34.1740   49.1450 C   0  0  0  0  0  0  0  0  0  0  0  0
   63.1940   33.8620   48.2870 C   0  0  0  0  0  0  0  0  0  0  0  0
   62.9560   33.1220   47.1250 C   0  0  0  0  0  0  0  0  0  0  0  0
   61.6610   32.6920   46.8230 C   0  0  0  0  0  0  0  0  0  0  0  0
  1  2  2  0
  2  3  1  0
  3  4  2  3
  4  5  1  0
  5  6  1  0
  6  7  1  0
  7  8  2  0
  7  9  1  0
  9 10  1  0
 10 11  1  0
  3 12  1  0
 12 13  2  0
 13 14  1  0
 14 15  1  0
 15 16  2  0
 16 17  1  0
 17 18  2  0
 18 19  1  0
 18 20  1  0
 13 21  1  0
 21 22  1  0
 22 23  1  0
 23 24  2  0
 24 25  1  0
 25 26  2  0
 26 27  1  0
 27 28  2  0
 21  2  1  0
 28 23  1  0
 10  5  2  0
 20 15  1  0
M  CHG  3   6  -1   9  -1  11  -1
M  END
>  <UniqueID>  (2608) 
68

>  <SMILES>  (2608) 
C=c1c(=Cc2[n-]c(=O)[n-]c2[O-])cc(Sc2nnc(C)s2)n1Cc1ccccc1

>  <Energy>  (2608) 
136.80381571829312

>  <Genealogy>  (2608) 
C=c1c(=Cc2[n-]c(=O)[n-]c2[O-])cc(Sc2nnc(C)s2)n1Cc1ccccc1 (protonated)
C=c1c(=Cc2[n-]c(=O)[n-]c2[O-])cc(Sc2nnc(C)s2)n1Cc1ccccc1 (3D coordinates assigned)
C=c1c(=Cc2[n-]c(=O)[n-]c2[O-])cc(Sc2nnc(C)s2)n1Cc1ccccc1 (optimized conformer: 136.80381571829312 kcal/mol)

>  <smiles>  (2608) 
C=c1c(=Cc2[nH]c(=O)[nH]c2O)cc(Sc2nnc(C)s2)n1Cc1ccccc1

>  <score_type>  (2608) 
oracle

>  <origin>  (2608) 
adg

>  <m_score__min__energy>  (2608) 
-16.329999999999998

>  <m_primary>  (2608) 
energy

$$$$
79:0
     RDKit          3D

 34 37  0  0  0  0  0  0  0  0999 V2000
   59.5850   29.6340   44.9030 C   0  0  0  0  0  0  0  0  0  0  0  0
   59.4660   29.1660   46.1550 C   0  0  0  0  0  0  0  0  0  0  0  0
   58.8510   27.9700   46.5390 C   0  0  0  0  0  0  0  0  0  0  0  0
   58.2240   27.0800   45.7420 C   0  0  0  0  0  0  0  0  0  0  0  0
   57.4320   25.9410   46.2400 C   0  0  0  0  0  0  0  0  0  0  0  0
   57.9710   24.8950   46.8920 N   0  0  0  0  0  0  0  0  0  0  0  0
   56.8950   24.1570   47.2440 C   0  0  0  0  0  0  0  0  0  0  0  0
   56.9950   23.0680   47.8690 O   0  0  0  0  0  0  0  0  0  0  0  0
   55.7040   24.6810   46.8840 N   0  0  0  0  0  0  0  0  0  0  0  0
   56.0580   25.8190   46.2620 C   0  0  0  0  0  0  0  0  0  0  0  0
   55.1450   26.7460   45.7670 O   0  0  0  0  0  0  0  0  0  0  0  0
   58.9710   27.8950   47.9200 C   0  0  0  0  0  0  0  0  0  0  0  0
   59.6680   29.0180   48.3170 C   0  0  0  0  0  0  0  0  0  0  0  0
   60.0350   29.3070   49.7160 C   0  0  0  0  0  0  0  0  0  0  0  0
   61.1550   28.9180   50.1450 O   0  0  0  0  0  0  0  0  0  0  0  0
   59.1630   30.0710   50.5690 N   0  0  0  0  0  0  0  0  0  0  0  0
   58.3830   31.1810   50.0090 C   0  0  0  0  0  0  0  0  0  0  0  0
   57.5380   31.8670   51.0910 C   0  0  0  0  0  0  0  0  0  0  0  0
   58.3270   32.2390   52.2960 N   0  0  0  0  0  0  0  0  0  0  0  0
   58.9090   33.5950   52.1900 C   0  0  0  0  0  0  0  0  0  0  0  0
   60.1400   33.5860   51.3220 C   0  0  0  0  0  0  0  0  0  0  0  0
   61.3980   33.2840   51.8690 C   0  0  0  0  0  0  0  0  0  0  0  0
   62.5350   33.2650   51.0560 C   0  0  0  0  0  0  0  0  0  0  0  0
   62.4280   33.5340   49.6810 C   0  0  0  0  0  0  0  0  0  0  0  0
   63.6380   33.5160   48.8350 C   0  0  0  0  0  0  0  0  0  0  0  0
   64.6310   32.8290   49.2020 O   0  0  0  0  0  0  0  0  0  0  0  0
   63.7090   34.2200   47.5870 N   0  0  0  0  0  0  0  0  0  0  0  0
   63.0300   33.8140   46.3620 C   0  0  0  0  0  0  0  0  0  0  0  0
   61.1730   33.8590   49.1390 C   0  0  0  0  0  0  0  0  0  0  0  0
   60.0370   33.8780   49.9520 C   0  0  0  0  0  0  0  0  0  0  0  0
   59.3610   31.2450   52.6950 C   0  0  0  0  0  0  0  0  0  0  0  0
   59.1760   29.8820   52.0230 C   0  0  0  0  0  0  0  0  0  0  0  0
   59.9590   29.8000   47.2500 N   0  0  0  0  0  0  0  0  0  0  0  0
   60.6210   31.1100   47.2770 C   0  0  0  0  0  0  0  0  0  0  0  0
  1  2  2  0
  2  3  1  0
  3  4  2  3
  4  5  1  0
  5  6  1  0
  6  7  1  0
  7  8  2  0
  7  9  1  0
  9 10  1  0
 10 11  1  0
  3 12  1  0
 12 13  2  0
 13 14  1  0
 14 15  2  0
 14 16  1  0
 16 17  1  0
 17 18  1  0
 18 19  1  0
 19 20  1  0
 20 21  1  0
 21 22  2  0
 22 23  1  0
 23 24  2  0
 24 25  1  0
 25 26  2  0
 25 27  1  0
 27 28  1  0
 24 29  1  0
 29 30  2  0
 19 31  1  0
 31 32  1  0
 13 33  1  0
 33 34  1  0
 33  2  1  0
 10  5  2  0
 32 16  1  0
 30 21  1  0
M  CHG  3   6  -1   9  -1  27  -1
M  END
>  <UniqueID>  (2609) 
71

>  <SMILES>  (2609) 
C=c1c(=Cc2[n-]c(=O)[n-]c2O)cc(C(=O)N2CCN(Cc3ccc(C(=O)[N-]C)cc3)CC2)n1C

>  <Energy>  (2609) 
143.83509137349708

>  <Genealogy>  (2609) 
C=c1c(=Cc2[n-]c(=O)[n-]c2O)cc(C(=O)N2CCN(Cc3ccc(C(=O)[N-]C)cc3)CC2)n1C (protonated)
C=c1c(=Cc2[n-]c(=O)[n-]c2O)cc(C(=O)N2CCN(Cc3ccc(C(=O)[N-]C)cc3)CC2)n1C (3D coordinates assigned)
C=c1c(=Cc2[n-]c(=O)[n-]c2O)cc(C(=O)N2CCN(Cc3ccc(C(=O)[N-]C)cc3)CC2)n1C (nonaromatic ring conformer: 143.83509137349708 kcal/mol)

>  <smiles>  (2609) 
C=c1c(=Cc2[nH]c(=O)[nH]c2O)cc(C(=O)N2CCN(Cc3ccc(C(=O)NC)cc3)CC2)n1C

>  <score_type>  (2609) 
oracle

>  <origin>  (2609) 
adg

>  <m_score__min__energy>  (2609) 
-15.73

>  <m_primary>  (2609) 
energy

$$$$
9:0
     RDKit          3D

 26 28  0  0  0  0  0  0  0  0999 V2000
   56.0330   29.2850   44.4690 C   0  0  0  0  0  0  0  0  0  0  0  0
   56.7880   30.4830   43.9620 C   0  0  0  0  0  0  0  0  0  0  0  0
   56.6550   30.8800   42.6210 C   0  0  0  0  0  0  0  0  0  0  0  0
   57.3410   31.9970   42.1410 C   0  0  0  0  0  0  0  0  0  0  0  0
   58.1630   32.7390   42.9900 C   0  0  0  0  0  0  0  0  0  0  0  0
   58.3050   32.3680   44.3390 C   0  0  0  0  0  0  0  0  0  0  0  0
   59.1210   33.0960   45.2260 C   0  0  0  0  0  0  0  0  0  0  0  0
   59.7600   34.1110   44.8340 O   0  0  0  0  0  0  0  0  0  0  0  0
   59.2280   32.6930   46.5590 C   0  0  0  0  0  0  0  0  0  0  0  0
   58.5210   31.5670   47.0070 C   0  0  0  0  0  0  0  0  0  0  0  0
   58.6130   31.1110   48.4050 C   0  0  0  0  0  0  0  0  0  0  0  0
   58.1510   31.8210   49.3400 O   0  0  0  0  0  0  0  0  0  0  0  0
   59.2340   29.8540   48.6980 N   0  0  0  0  0  0  0  0  0  0  0  0
   60.2450   29.2360   47.8500 C   0  0  0  0  0  0  0  0  0  0  0  0
   59.5920   28.5030   46.7100 C   0  0  0  0  0  0  0  0  0  0  0  0
   59.9520   28.7790   45.3820 C   0  0  0  0  0  0  0  0  0  0  0  0
   59.3170   28.1150   44.3280 C   0  0  0  0  0  0  0  0  0  0  0  0
   58.3180   27.1750   44.5910 C   0  0  0  0  0  0  0  0  0  0  0  0
   57.9530   26.8880   45.9130 C   0  0  0  0  0  0  0  0  0  0  0  0
   56.6780   25.7190   46.2460 S   0  0  0  0  0  0  0  0  0  0  0  0
   55.1380   26.4690   46.0320 N   0  0  0  0  0  0  0  0  0  0  0  0
   56.8010   25.2210   47.6580 O   0  0  0  0  0  0  0  0  0  0  0  0
   56.8030   24.5500   45.3090 O   0  0  0  0  0  0  0  0  0  0  0  0
   58.5850   27.5590   46.9690 C   0  0  0  0  0  0  0  0  0  0  0  0
   57.7400   30.8770   46.1330 N   0  0  0  0  0  0  0  0  0  0  0  0
   57.6090   31.2350   44.8260 C   0  0  0  0  0  0  0  0  0  0  0  0
  1  2  1  0
  2  3  2  0
  3  4  1  0
  4  5  2  0
  5  6  1  0
  6  7  1  0
  7  8  2  0
  7  9  1  0
  9 10  2  0
 10 11  1  0
 11 12  2  0
 11 13  1  0
 13 14  1  0
 14 15  1  0
 15 16  2  0
 16 17  1  0
 17 18  2  0
 18 19  1  0
 19 20  1  0
 20 21  1  0
 20 22  2  0
 20 23  2  0
 19 24  2  0
 10 25  1  0
 25 26  1  0
 26  2  1  0
 26  6  2  0
 24 15  1  0
M  CHG  3  13  -1  21  -1  25  -1
M  END
>  <UniqueID>  (2610) 
10

>  <SMILES>  (2610) 
Cc1cccc2c(=O)cc(C(=O)[N-]Cc3cccc(S([NH-])(=O)=O)c3)[n-]c12

>  <Energy>  (2610) 
44.11813718281883

>  <Genealogy>  (2610) 
Cc1cccc2c(=O)cc(C(=O)[N-]Cc3cccc(S([NH-])(=O)=O)c3)[n-]c12 (protonated)
Cc1cccc2c(=O)cc(C(=O)[N-]Cc3cccc(S([NH-])(=O)=O)c3)[n-]c12 (3D coordinates assigned)
Cc1cccc2c(=O)cc(C(=O)[N-]Cc3cccc(S([NH-])(=O)=O)c3)[n-]c12 (optimized conformer: 44.11813718281883 kcal/mol)

>  <smiles>  (2610) 
Cc1cccc2c(=O)cc(C(=O)NCc3cccc(S(N)(=O)=O)c3)[nH]c12

>  <score_type>  (2610) 
oracle

>  <origin>  (2610) 
adg

>  <m_score__min__energy>  (2610) 
-14.25

>  <m_primary>  (2610) 
energy

$$$$
19:0
     RDKit          3D

 28 30  0  0  0  0  0  0  0  0999 V2000
   56.3630   29.7650   44.1430 C   0  0  0  0  0  0  0  0  0  0  0  0
   57.4250   29.7010   44.9570 C   0  0  0  0  0  0  0  0  0  0  0  0
   57.9460   30.8870   45.3740 N   0  0  0  0  0  0  0  0  0  0  0  0
   58.8920   30.9820   46.3400 C   0  0  0  0  0  0  0  0  0  0  0  0
   59.3410   29.8290   46.9940 C   0  0  0  0  0  0  0  0  0  0  0  0
   60.2750   29.8680   48.0400 O   0  0  0  0  0  0  0  0  0  0  0  0
   60.5630   31.0260   48.8210 C   0  0  0  0  0  0  0  0  0  0  0  0
   61.7810   31.7270   48.2860 C   0  0  0  0  0  0  0  0  0  0  0  0
   61.7590   32.1730   47.1060 O   0  0  0  0  0  0  0  0  0  0  0  0
   62.9790   31.8580   49.0830 N   0  0  0  0  0  0  0  0  0  0  0  0
   63.1510   31.0400   50.2970 C   0  0  0  0  0  0  0  0  0  0  0  0
   64.5820   31.1240   50.8380 C   0  0  0  0  0  0  0  0  0  0  0  0
   65.0030   32.6040   51.0330 C   0  0  0  0  0  0  0  0  0  0  0  0
   66.4220   32.7750   51.4500 N   0  0  0  0  0  0  0  0  0  0  0  0
   66.9780   34.1130   51.1750 C   0  0  0  0  0  0  0  0  0  0  0  0
   67.2980   31.7300   50.8960 C   0  0  0  0  0  0  0  0  0  0  0  0
   64.6880   33.4920   49.7950 C   0  0  0  0  0  0  0  0  0  0  0  0
   64.0850   32.7110   48.6200 C   0  0  0  0  0  0  0  0  0  0  0  0
   58.8490   28.5920   46.5800 C   0  0  0  0  0  0  0  0  0  0  0  0
   57.9460   28.4820   45.5020 C   0  0  0  0  0  0  0  0  0  0  0  0
   57.6630   27.2310   45.0610 C   0  0  0  0  0  0  0  0  0  0  0  0
   57.1740   26.1040   45.8770 C   0  0  0  0  0  0  0  0  0  0  0  0
   57.9430   25.0620   46.2360 N   0  0  0  0  0  0  0  0  0  0  0  0
   57.0770   24.2360   46.8630 C   0  0  0  0  0  0  0  0  0  0  0  0
   57.4310   23.1380   47.3650 O   0  0  0  0  0  0  0  0  0  0  0  0
   55.8000   24.6740   46.9010 N   0  0  0  0  0  0  0  0  0  0  0  0
   55.8760   25.8520   46.2600 C   0  0  0  0  0  0  0  0  0  0  0  0
   54.7740   26.6600   46.0040 O   0  0  0  0  0  0  0  0  0  0  0  0
  1  2  2  0
  2  3  1  0
  3  4  2  0
  4  5  1  0
  5  6  1  0
  6  7  1  0
  7  8  1  0
  8  9  2  0
  8 10  1  0
 10 11  1  0
 11 12  1  0
 12 13  1  0
 13 14  1  0
 14 15  1  0
 14 16  1  0
 13 17  1  0
 17 18  1  0
  5 19  2  0
 19 20  1  0
 20 21  2  3
 21 22  1  0
 22 23  1  0
 23 24  1  0
 24 25  2  0
 24 26  1  0
 26 27  1  0
 27 28  1  0
 20  2  1  0
 27 22  2  0
 18 10  1  0
M  CHG  3  23  -1  26  -1  28  -1
M  END
>  <UniqueID>  (2611) 
19

>  <SMILES>  (2611) 
C=c1ncc(OCC(=O)N2CCC(N(C)C)CC2)cc1=Cc1[n-]c(=O)[n-]c1[O-]

>  <Energy>  (2611) 
107.76320709920046

>  <Genealogy>  (2611) 
C=c1ncc(OCC(=O)N2CCC(N(C)C)CC2)cc1=Cc1[n-]c(=O)[n-]c1[O-] (protonated)
C=c1ncc(OCC(=O)N2CCC(N(C)C)CC2)cc1=Cc1[n-]c(=O)[n-]c1[O-] (3D coordinates assigned)
C=c1ncc(OCC(=O)N2CCC(N(C)C)CC2)cc1=Cc1[n-]c(=O)[n-]c1[O-] (nonaromatic ring conformer: 107.76320709920046 kcal/mol)

>  <smiles>  (2611) 
C=c1ncc(OCC(=O)N2CCC(N(C)C)CC2)cc1=Cc1[nH]c(=O)[nH]c1O

>  <score_type>  (2611) 
oracle

>  <origin>  (2611) 
adg

>  <m_score__min__energy>  (2611) 
-17.300000000000001

>  <m_primary>  (2611) 
energy

$$$$
32:0
     RDKit          3D

 32 35  0  0  0  0  0  0  0  0999 V2000
   54.3730   30.8500   51.1380 C   0  0  0  0  0  0  0  0  0  0  0  0
   54.3590   30.5410   52.4430 C   0  0  0  0  0  0  0  0  0  0  0  0
   53.2290   30.4470   53.2680 C   0  0  0  0  0  0  0  0  0  0  0  0
   51.9580   30.7510   52.9380 C   0  0  0  0  0  0  0  0  0  0  0  0
   51.5070   31.0920   51.5750 C   0  0  0  0  0  0  0  0  0  0  0  0
   51.5740   30.2780   50.4990 N   0  0  0  0  0  0  0  0  0  0  0  0
   51.0960   31.0500   49.4970 C   0  0  0  0  0  0  0  0  0  0  0  0
   50.9650   30.6290   48.3150 O   0  0  0  0  0  0  0  0  0  0  0  0
   50.7510   32.3030   49.8590 N   0  0  0  0  0  0  0  0  0  0  0  0
   51.0250   32.3160   51.1730 C   0  0  0  0  0  0  0  0  0  0  0  0
   50.8370   33.4250   51.9960 O   0  0  0  0  0  0  0  0  0  0  0  0
   53.6920   30.0910   54.5270 C   0  0  0  0  0  0  0  0  0  0  0  0
   55.0710   30.0070   54.4300 C   0  0  0  0  0  0  0  0  0  0  0  0
   55.9800   29.7100   55.5830 C   0  0  0  0  0  0  0  0  0  0  0  0
   55.4730   30.2610   53.1610 N   0  0  0  0  0  0  0  0  0  0  0  0
   56.8270   30.3500   52.6980 C   0  0  0  0  0  0  0  0  0  0  0  0
   57.3520   29.3680   52.1110 O   0  0  0  0  0  0  0  0  0  0  0  0
   57.6080   31.5210   52.9550 N   0  0  0  0  0  0  0  0  0  0  0  0
   57.7810   32.5170   51.8980 C   0  0  0  0  0  0  0  0  0  0  0  0
   59.1720   32.3560   51.2740 C   0  0  0  0  0  0  0  0  0  0  0  0
   60.1850   31.9950   52.2890 N   0  0  0  0  0  0  0  0  0  0  0  0
   61.5380   31.6700   51.9340 C   0  0  0  0  0  0  0  0  0  0  0  0
   61.9540   30.4980   52.1510 O   0  0  0  0  0  0  0  0  0  0  0  0
   62.4580   32.6670   51.4500 N   0  0  0  0  0  0  0  0  0  0  0  0
   63.8840   32.5680   51.7750 C   0  0  0  0  0  0  0  0  0  0  0  0
   64.6620   32.2990   50.4810 C   0  0  0  0  0  0  0  0  0  0  0  0
   64.3190   33.2490   49.3820 N   0  0  0  0  0  0  0  0  0  0  0  0
   63.9990   32.5380   48.1360 C   0  0  0  0  0  0  0  0  0  0  0  0
   63.2730   34.2510   49.7160 C   0  0  0  0  0  0  0  0  0  0  0  0
   62.0510   33.6250   50.4170 C   0  0  0  0  0  0  0  0  0  0  0  0
   59.8880   32.1900   53.7180 C   0  0  0  0  0  0  0  0  0  0  0  0
   58.5450   31.5240   54.0910 C   0  0  0  0  0  0  0  0  0  0  0  0
  1  2  2  0
  2  3  1  0
  3  4  2  3
  4  5  1  0
  5  6  1  0
  6  7  1  0
  7  8  2  0
  7  9  1  0
  9 10  1  0
 10 11  1  0
  3 12  1  0
 12 13  2  0
 13 14  1  0
 13 15  1  0
 15 16  1  0
 16 17  2  0
 16 18  1  0
 18 19  1  0
 19 20  1  0
 20 21  1  0
 21 22  1  0
 22 23  2  0
 22 24  1  0
 24 25  1  0
 25 26  1  0
 26 27  1  0
 27 28  1  0
 27 29  1  0
 29 30  1  0
 21 31  1  0
 31 32  1  0
 15  2  1  0
 32 18  1  0
 10  5  2  0
 30 24  1  0
M  CHG  3   6  -1   9  -1  11  -1
M  END
>  <UniqueID>  (2612) 
32

>  <SMILES>  (2612) 
C=c1c(=Cc2[n-]c(=O)[n-]c2[O-])cc(C)n1C(=O)N1CCN(C(=O)N2CCN(C)CC2)CC1

>  <Energy>  (2612) 
157.67000606430585

>  <Genealogy>  (2612) 
C=c1c(=Cc2[n-]c(=O)[n-]c2[O-])cc(C)n1C(=O)N1CCN(C(=O)N2CCN(C)CC2)CC1 (protonated)
C=c1c(=Cc2[n-]c(=O)[n-]c2[O-])cc(C)n1C(=O)N1CCN(C(=O)N2CCN(C)CC2)CC1 (3D coordinates assigned)
C=c1c(=Cc2[n-]c(=O)[n-]c2[O-])cc(C)n1C(=O)N1CCN(C(=O)N2CCN(C)CC2)CC1 (nonaromatic ring conformer: 157.67000606430585 kcal/mol)

>  <smiles>  (2612) 
C=c1c(=Cc2[nH]c(=O)[nH]c2O)cc(C)n1C(=O)N1CCN(C(=O)N2CCN(C)CC2)CC1

>  <score_type>  (2612) 
oracle

>  <origin>  (2612) 
adg

>  <m_score__min__energy>  (2612) 
-17.649999999999999

>  <m_primary>  (2612) 
energy

$$$$
38:0
     RDKit          3D

 39 43  0  0  0  0  0  0  0  0999 V2000
   60.3310   25.5880   54.6540 C   0  0  0  0  0  0  0  0  0  0  0  0
   60.7420   25.6490   53.3840 C   0  0  0  0  0  0  0  0  0  0  0  0
   60.3360   26.6500   52.5780 N   0  0  0  0  0  0  0  0  0  0  0  0
   60.9290   26.3950   51.3980 C   0  0  0  0  0  0  0  0  0  0  0  0
   60.7740   27.2680   50.1910 C   0  0  0  0  0  0  0  0  0  0  0  0
   61.1280   28.6970   50.5210 C   0  0  0  0  0  0  0  0  0  0  0  0
   60.3470   29.7370   49.9870 C   0  0  0  0  0  0  0  0  0  0  0  0
   60.6430   31.0780   50.2770 C   0  0  0  0  0  0  0  0  0  0  0  0
   59.8030   32.1580   49.7250 C   0  0  0  0  0  0  0  0  0  0  0  0
   58.5540   32.1190   49.9060 O   0  0  0  0  0  0  0  0  0  0  0  0
   60.3770   33.2180   48.9330 N   0  0  0  0  0  0  0  0  0  0  0  0
   59.6700   34.4960   48.7970 C   0  0  0  0  0  0  0  0  0  0  0  0
   59.0180   34.5580   47.4120 C   0  0  0  0  0  0  0  0  0  0  0  0
   59.9120   33.9940   46.3890 N   0  0  0  0  0  0  0  0  0  0  0  0
   59.3760   33.6130   45.1150 C   0  0  0  0  0  0  0  0  0  0  0  0
   59.6380   34.3180   44.1060 O   0  0  0  0  0  0  0  0  0  0  0  0
   58.5160   32.4100   44.9840 C   0  0  0  0  0  0  0  0  0  0  0  0
   57.3930   32.4240   44.1130 C   0  0  0  0  0  0  0  0  0  0  0  0
   56.5620   31.2950   43.9900 C   0  0  0  0  0  0  0  0  0  0  0  0
   56.8740   30.1670   44.7450 C   0  0  0  0  0  0  0  0  0  0  0  0
   56.1950   29.0050   44.7760 N   0  0  0  0  0  0  0  0  0  0  0  0
   56.8870   28.2390   45.6570 C   0  0  0  0  0  0  0  0  0  0  0  0
   56.4930   26.8710   46.0070 C   0  0  0  0  0  0  0  0  0  0  0  0
   57.3620   26.0210   46.3290 O   0  0  0  0  0  0  0  0  0  0  0  0
   55.1510   26.5070   45.9820 O   0  0  0  0  0  0  0  0  0  0  0  0
   57.9900   28.9080   46.1760 C   0  0  0  0  0  0  0  0  0  0  0  0
   57.9580   30.1430   45.5770 C   0  0  0  0  0  0  0  0  0  0  0  0
   58.8040   31.2370   45.7210 C   0  0  0  0  0  0  0  0  0  0  0  0
   61.3240   33.7440   46.6910 C   0  0  0  0  0  0  0  0  0  0  0  0
   61.4480   32.9010   47.9730 C   0  0  0  0  0  0  0  0  0  0  0  0
   61.7350   31.3810   51.1020 C   0  0  0  0  0  0  0  0  0  0  0  0
   62.5100   30.3540   51.6480 C   0  0  0  0  0  0  0  0  0  0  0  0
   62.2090   29.0110   51.3700 C   0  0  0  0  0  0  0  0  0  0  0  0
   62.9810   27.9980   51.9370 O   0  0  0  0  0  0  0  0  0  0  0  0
   61.6930   25.2890   51.4110 N   0  0  0  0  0  0  0  0  0  0  0  0
   61.5900   24.7950   52.6610 C   0  0  0  0  0  0  0  0  0  0  0  0
   62.2470   23.6610   53.0230 C   0  0  0  0  0  0  0  0  0  0  0  0
   61.8970   22.3650   52.3240 C   0  0  0  0  0  0  0  0  0  0  0  0
   63.3130   23.6160   54.0870 C   0  0  0  0  0  0  0  0  0  0  0  0
  1  2  2  0
  2  3  1  0
  3  4  1  0
  4  5  1  0
  5  6  1  0
  6  7  2  0
  7  8  1  0
  8  9  1  0
  9 10  2  0
  9 11  1  0
 11 12  1  0
 12 13  1  0
 13 14  1  0
 14 15  1  0
 15 16  2  0
 15 17  1  0
 17 18  2  0
 18 19  1  0
 19 20  2  0
 20 21  1  0
 21 22  1  0
 22 23  1  0
 23 24  2  0
 23 25  1  0
 22 26  2  0
 26 27  1  0
 27 28  2  0
 14 29  1  0
 29 30  1  0
  8 31  2  0
 31 32  1  0
 32 33  2  0
 33 34  1  0
  4 35  2  0
 35 36  1  0
 36 37  2  3
 37 38  1  0
 37 39  1  0
 36  2  1  0
 33  6  1  0
 30 11  1  0
 28 17  1  0
 27 20  1  0
M  CHG  3   3  -1  21  -1  25  -1
M  END
>  <UniqueID>  (2613) 
38

>  <SMILES>  (2613) 
C=c1[n-]c(Cc2cc(C(=O)N3CCN(C(=O)c4ccc5[n-]c(C(=O)[O-])cc5c4)CC3)ccc2O)nc1=C(C)C

>  <Energy>  (2613) 
144.17675309382935

>  <Genealogy>  (2613) 
C=c1[n-]c(Cc2cc(C(=O)N3CCN(C(=O)c4ccc5[n-]c(C(=O)[O-])cc5c4)CC3)ccc2O)nc1=C(C)C (protonated)
C=c1[n-]c(Cc2cc(C(=O)N3CCN(C(=O)c4ccc5[n-]c(C(=O)[O-])cc5c4)CC3)ccc2O)nc1=C(C)C (3D coordinates assigned)
C=c1[n-]c(Cc2cc(C(=O)N3CCN(C(=O)c4ccc5[n-]c(C(=O)[O-])cc5c4)CC3)ccc2O)nc1=C(C)C (nonaromatic ring conformer: 144.17675309382935 kcal/mol)

>  <smiles>  (2613) 
C=c1[nH]c(Cc2cc(C(=O)N3CCN(C(=O)c4ccc5[nH]c(C(=O)O)cc5c4)CC3)ccc2O)nc1=C(C)C

>  <score_type>  (2613) 
oracle

>  <origin>  (2613) 
adg

>  <m_score__min__energy>  (2613) 
-15.720000000000001

>  <m_primary>  (2613) 
energy

$$$$
45:0
     RDKit          3D

 28 30  0  0  0  0  0  0  0  0999 V2000
   62.4210   33.6200   49.1550 O   0  0  0  0  0  0  0  0  0  0  0  0
   62.4550   32.5240   48.2820 C   0  0  0  0  0  0  0  0  0  0  0  0
   61.3420   31.5290   48.6360 C   0  0  0  0  0  0  0  0  0  0  0  0
   60.7210   31.8510   49.9390 N   0  0  0  0  0  0  0  0  0  0  0  0
   60.4950   30.6290   50.7550 C   0  0  0  0  0  0  0  0  0  0  0  0
   59.3550   30.8240   51.7640 C   0  0  0  0  0  0  0  0  0  0  0  0
   58.0640   31.0740   51.0720 N   0  0  0  0  0  0  0  0  0  0  0  0
   57.1280   31.7590   51.9420 C   0  0  0  0  0  0  0  0  0  0  0  0
   57.2550   32.9950   52.1640 O   0  0  0  0  0  0  0  0  0  0  0  0
   55.9040   31.0830   52.4220 C   0  0  0  0  0  0  0  0  0  0  0  0
   54.6860   31.2240   51.7960 C   0  0  0  0  0  0  0  0  0  0  0  0
   53.7790   30.4660   52.5070 C   0  0  0  0  0  0  0  0  0  0  0  0
   52.4640   30.4440   52.2120 C   0  0  0  0  0  0  0  0  0  0  0  0
   51.8620   30.8740   50.9380 C   0  0  0  0  0  0  0  0  0  0  0  0
   51.7380   30.0960   49.8460 N   0  0  0  0  0  0  0  0  0  0  0  0
   51.0180   30.8620   48.9980 C   0  0  0  0  0  0  0  0  0  0  0  0
   50.7030   30.4800   47.8420 O   0  0  0  0  0  0  0  0  0  0  0  0
   50.6520   32.0650   49.4920 N   0  0  0  0  0  0  0  0  0  0  0  0
   51.1840   32.0480   50.7250 C   0  0  0  0  0  0  0  0  0  0  0  0
   51.0460   33.0850   51.6400 O   0  0  0  0  0  0  0  0  0  0  0  0
   54.5100   29.8250   53.5230 C   0  0  0  0  0  0  0  0  0  0  0  0
   54.0590   28.8250   54.2960 C   0  0  0  0  0  0  0  0  0  0  0  0
   55.8070   30.2540   53.4950 N   0  0  0  0  0  0  0  0  0  0  0  0
   56.9040   29.9840   54.4540 C   0  0  0  0  0  0  0  0  0  0  0  0
   57.5730   31.2740   54.9490 C   0  0  0  0  0  0  0  0  0  0  0  0
   57.9130   28.9660   53.9030 C   0  0  0  0  0  0  0  0  0  0  0  0
   58.2170   31.8210   49.7950 C   0  0  0  0  0  0  0  0  0  0  0  0
   59.4960   32.6730   49.7670 C   0  0  0  0  0  0  0  0  0  0  0  0
  1  2  1  0
  2  3  1  0
  3  4  1  0
  4  5  1  0
  5  6  1  0
  6  7  1  0
  7  8  1  0
  8  9  2  0
  8 10  1  0
 10 11  2  0
 11 12  1  0
 12 13  2  0
 13 14  1  0
 14 15  1  0
 15 16  1  0
 16 17  2  0
 16 18  1  0
 18 19  1  0
 19 20  1  0
 12 21  1  0
 21 22  2  0
 21 23  1  0
 23 24  1  0
 24 25  1  0
 24 26  1  0
  7 27  1  0
 27 28  1  0
 28  4  1  0
 23 10  1  0
 19 14  2  0
M  CHG  4   7   1  15  -1  18  -1  20  -1
M  END
>  <UniqueID>  (2614) 
44

>  <SMILES>  (2614) 
C=c1/c(=C\c2[n-]c(=O)[n-]c2[O-])cc(C(=O)[NH+]2CCN(CCO)CC2)n1C(C)C

>  <Energy>  (2614) 
143.05242615264075

>  <Genealogy>  (2614) 
C=c1c(=Cc2[n-]c(=O)[n-]c2[O-])cc(C(=O)[NH+]2CCN(CCO)CC2)n1C(C)C (protonated)
C=c1/c(=C\c2[n-]c(=O)[n-]c2[O-])cc(C(=O)[NH+]2CCN(CCO)CC2)n1C(C)C (cis-trans isomerization)
C=c1/c(=C\c2[n-]c(=O)[n-]c2[O-])cc(C(=O)[NH+]2CCN(CCO)CC2)n1C(C)C (3D coordinates assigned)
C=c1/c(=C\c2[n-]c(=O)[n-]c2[O-])cc(C(=O)[NH+]2CCN(CCO)CC2)n1C(C)C (nonaromatic ring conformer: 143.05242615264075 kcal/mol)

>  <smiles>  (2614) 
C=c1c(=Cc2[nH]c(=O)[nH]c2O)cc(C(=O)N2CCN(CCO)CC2)n1C(C)C

>  <score_type>  (2614) 
oracle

>  <origin>  (2614) 
adg

>  <m_score__min__energy>  (2614) 
-14.359999999999999

>  <m_primary>  (2614) 
energy

$$$$
51:0
     RDKit          3D

 32 34  0  0  0  0  0  0  0  0999 V2000
   56.4710   34.0230   45.7470 O   0  0  0  0  0  0  0  0  0  0  0  0
   57.2570   33.0880   45.4430 C   0  0  0  0  0  0  0  0  0  0  0  0
   56.7660   32.0060   44.6400 N   0  0  0  0  0  0  0  0  0  0  0  0
   57.5500   31.2200   43.6910 C   0  0  0  0  0  0  0  0  0  0  0  0
   56.7480   30.0140   43.1930 C   0  0  0  0  0  0  0  0  0  0  0  0
   55.4400   29.8610   43.9740 C   0  0  0  0  0  0  0  0  0  0  0  0
   55.6250   28.9760   45.1210 N   0  0  0  0  0  0  0  0  0  0  0  0
   56.8860   28.5160   45.6280 C   0  0  0  0  0  0  0  0  0  0  0  0
   57.7930   29.3610   45.8520 O   0  0  0  0  0  0  0  0  0  0  0  0
   57.1570   27.0870   45.8830 C   0  0  0  0  0  0  0  0  0  0  0  0
   58.4800   26.6160   45.9080 C   0  0  0  0  0  0  0  0  0  0  0  0
   58.7420   25.2620   46.1390 C   0  0  0  0  0  0  0  0  0  0  0  0
   57.6850   24.3630   46.3320 C   0  0  0  0  0  0  0  0  0  0  0  0
   57.9350   23.0120   46.5630 O   0  0  0  0  0  0  0  0  0  0  0  0
   56.3660   24.8250   46.2920 C   0  0  0  0  0  0  0  0  0  0  0  0
   56.0970   26.1790   46.0630 C   0  0  0  0  0  0  0  0  0  0  0  0
   54.7770   26.6150   46.0310 O   0  0  0  0  0  0  0  0  0  0  0  0
   58.6580   33.1540   45.9040 C   0  0  0  0  0  0  0  0  0  0  0  0
   59.3280   34.3860   45.9290 C   0  0  0  0  0  0  0  0  0  0  0  0
   60.6560   34.4590   46.3610 C   0  0  0  0  0  0  0  0  0  0  0  0
   61.3220   33.3020   46.7900 C   0  0  0  0  0  0  0  0  0  0  0  0
   62.9980   33.3850   47.3260 S   0  0  0  0  0  0  0  0  0  0  0  0
   63.6210   32.0290   47.1420 O   0  0  0  0  0  0  0  0  0  0  0  0
   63.7440   34.3890   46.4940 O   0  0  0  0  0  0  0  0  0  0  0  0
   63.0450   33.8470   49.0150 N   0  0  0  0  0  0  0  0  0  0  0  0
   64.2870   33.3910   49.6780 C   0  0  0  0  0  0  0  0  0  0  0  0
   64.0830   32.1110   50.5070 C   0  0  0  0  0  0  0  0  0  0  0  0
   63.1080   31.2900   49.9070 O   0  0  0  0  0  0  0  0  0  0  0  0
   61.8290   31.8910   50.0120 C   0  0  0  0  0  0  0  0  0  0  0  0
   61.8330   33.4140   49.7330 C   0  0  0  0  0  0  0  0  0  0  0  0
   60.6490   32.0750   46.7830 C   0  0  0  0  0  0  0  0  0  0  0  0
   59.3220   32.0010   46.3520 C   0  0  0  0  0  0  0  0  0  0  0  0
  1  2  2  0
  2  3  1  0
  3  4  1  0
  4  5  1  0
  5  6  1  0
  6  7  1  0
  7  8  1  0
  8  9  2  0
  8 10  1  0
 10 11  2  0
 11 12  1  0
 12 13  2  0
 13 14  1  0
 13 15  1  0
 15 16  2  0
 16 17  1  0
  2 18  1  0
 18 19  2  0
 19 20  1  0
 20 21  2  0
 21 22  1  0
 22 23  2  0
 22 24  2  0
 22 25  1  0
 25 26  1  0
 26 27  1  0
 27 28  1  0
 28 29  1  0
 29 30  1  0
 21 31  1  0
 31 32  2  0
 16 10  1  0
 32 18  1  0
 30 25  1  0
M  CHG  3   3  -1   7  -1  17  -1
M  END
>  <UniqueID>  (2615) 
50

>  <SMILES>  (2615) 
O=C([N-]CCC[N-]C(=O)c1ccc(O)cc1[O-])c1ccc(S(=O)(=O)N2CCOCC2)cc1

>  <Energy>  (2615) 
70.12928668354726

>  <Genealogy>  (2615) 
O=C([N-]CCC[N-]C(=O)c1ccc(O)cc1[O-])c1ccc(S(=O)(=O)N2CCOCC2)cc1 (protonated)
O=C([N-]CCC[N-]C(=O)c1ccc(O)cc1[O-])c1ccc(S(=O)(=O)N2CCOCC2)cc1 (3D coordinates assigned)
O=C([N-]CCC[N-]C(=O)c1ccc(O)cc1[O-])c1ccc(S(=O)(=O)N2CCOCC2)cc1 (nonaromatic ring conformer: 70.12928668354726 kcal/mol)

>  <smiles>  (2615) 
O=C(NCCCNC(=O)c1ccc(O)cc1O)c1ccc(S(=O)(=O)N2CCOCC2)cc1

>  <score_type>  (2615) 
oracle

>  <origin>  (2615) 
adg

>  <m_score__min__energy>  (2615) 
-16.809999999999999

>  <m_primary>  (2615) 
energy

$$$$
58:0
     RDKit          3D

 23 24  0  0  0  0  0  0  0  0999 V2000
   56.2650   32.3690   44.9240 O   0  0  0  0  0  0  0  0  0  0  0  0
   57.3980   31.8570   44.7110 C   0  0  0  0  0  0  0  0  0  0  0  0
   58.6160   32.7250   44.8500 C   0  0  0  0  0  0  0  0  0  0  0  0
   58.8530   33.0630   46.2970 C   0  0  0  0  0  0  0  0  0  0  0  0
   59.4080   34.3010   46.6580 C   0  0  0  0  0  0  0  0  0  0  0  0
   59.6520   34.5990   48.0010 C   0  0  0  0  0  0  0  0  0  0  0  0
   59.3530   33.6630   48.9950 C   0  0  0  0  0  0  0  0  0  0  0  0
   59.6010   33.9680   50.3280 O   0  0  0  0  0  0  0  0  0  0  0  0
   58.8070   32.4210   48.6460 C   0  0  0  0  0  0  0  0  0  0  0  0
   58.5150   31.4900   49.6420 O   0  0  0  0  0  0  0  0  0  0  0  0
   58.5610   32.1220   47.2980 C   0  0  0  0  0  0  0  0  0  0  0  0
   57.5180   30.4180   44.3750 C   0  0  0  0  0  0  0  0  0  0  0  0
   58.6660   29.9080   44.2630 O   0  0  0  0  0  0  0  0  0  0  0  0
   56.3390   29.5530   44.1700 C   0  0  0  0  0  0  0  0  0  0  0  0
   55.7540   29.5210   43.0540 O   0  0  0  0  0  0  0  0  0  0  0  0
   55.8930   28.7100   45.2400 N   0  0  0  0  0  0  0  0  0  0  0  0
   56.5350   27.5010   45.6690 C   0  0  0  0  0  0  0  0  0  0  0  0
   57.9290   27.4980   45.8150 C   0  0  0  0  0  0  0  0  0  0  0  0
   58.5930   26.3440   46.2400 C   0  0  0  0  0  0  0  0  0  0  0  0
   57.8680   25.1890   46.5400 C   0  0  0  0  0  0  0  0  0  0  0  0
   56.4750   25.1910   46.4310 C   0  0  0  0  0  0  0  0  0  0  0  0
   55.8020   26.3450   46.0120 C   0  0  0  0  0  0  0  0  0  0  0  0
   54.4130   26.3400   45.9750 O   0  0  0  0  0  0  0  0  0  0  0  0
  1  2  2  0
  2  3  1  0
  3  4  1  0
  4  5  2  0
  5  6  1  0
  6  7  2  0
  7  8  1  0
  7  9  1  0
  9 10  1  0
  9 11  2  0
  2 12  1  0
 12 13  2  0
 12 14  1  0
 14 15  2  0
 14 16  1  0
 16 17  1  0
 17 18  2  0
 18 19  1  0
 19 20  2  0
 20 21  1  0
 21 22  2  0
 22 23  1  0
 11  4  1  0
 22 17  1  0
M  CHG  3   8  -1  16  -1  23  -1
M  END
>  <UniqueID>  (2616) 
57

>  <SMILES>  (2616) 
O=C(Cc1ccc([O-])c(O)c1)C(=O)C(=O)[N-]c1ccccc1[O-]

>  <Energy>  (2616) 
37.48439081365683

>  <Genealogy>  (2616) 
O=C(Cc1ccc([O-])c(O)c1)C(=O)C(=O)[N-]c1ccccc1[O-] (protonated)
O=C(Cc1ccc([O-])c(O)c1)C(=O)C(=O)[N-]c1ccccc1[O-] (3D coordinates assigned)
O=C(Cc1ccc([O-])c(O)c1)C(=O)C(=O)[N-]c1ccccc1[O-] (optimized conformer: 37.48439081365683 kcal/mol)

>  <smiles>  (2616) 
O=C(Cc1ccc(O)c(O)c1)C(=O)C(=O)Nc1ccccc1O

>  <score_type>  (2616) 
oracle

>  <origin>  (2616) 
adg

>  <m_score__min__energy>  (2616) 
-14.039999999999999

>  <m_primary>  (2616) 
energy

$$$$
67:0
     RDKit          3D

 28 30  0  0  0  0  0  0  0  0999 V2000
   58.8430   29.0430   47.4850 C   0  0  0  0  0  0  0  0  0  0  0  0
   58.3000   28.7180   46.3000 C   0  0  0  0  0  0  0  0  0  0  0  0
   57.6830   27.5020   45.9570 C   0  0  0  0  0  0  0  0  0  0  0  0
   57.6110   26.3270   46.6130 C   0  0  0  0  0  0  0  0  0  0  0  0
   56.7170   25.2020   46.2700 C   0  0  0  0  0  0  0  0  0  0  0  0
   55.3640   25.4350   45.9900 C   0  0  0  0  0  0  0  0  0  0  0  0
   54.8310   26.7160   46.0830 O   0  0  0  0  0  0  0  0  0  0  0  0
   54.5580   24.4020   45.6330 N   0  0  0  0  0  0  0  0  0  0  0  0
   55.0430   23.1390   45.5260 C   0  0  0  0  0  0  0  0  0  0  0  0
   54.2750   22.1970   45.1990 O   0  0  0  0  0  0  0  0  0  0  0  0
   56.3560   22.8920   45.7640 N   0  0  0  0  0  0  0  0  0  0  0  0
   57.2040   23.8910   46.1230 C   0  0  0  0  0  0  0  0  0  0  0  0
   58.4220   23.6300   46.3140 O   0  0  0  0  0  0  0  0  0  0  0  0
   57.1060   27.6960   44.7150 C   0  0  0  0  0  0  0  0  0  0  0  0
   57.4200   28.9800   44.3220 C   0  0  0  0  0  0  0  0  0  0  0  0
   57.0080   29.5950   43.0180 C   0  0  0  0  0  0  0  0  0  0  0  0
   58.1650   29.5960   45.2690 N   0  0  0  0  0  0  0  0  0  0  0  0
   58.6330   30.9890   45.2000 C   0  0  0  0  0  0  0  0  0  0  0  0
   57.4770   31.9380   45.3660 C   0  0  0  0  0  0  0  0  0  0  0  0
   56.4040   31.7180   44.7450 O   0  0  0  0  0  0  0  0  0  0  0  0
   57.5800   33.1260   46.1640 N   0  0  0  0  0  0  0  0  0  0  0  0
   58.5070   33.3540   47.2340 C   0  0  0  0  0  0  0  0  0  0  0  0
   59.4940   34.3360   47.0780 C   0  0  0  0  0  0  0  0  0  0  0  0
   60.3960   34.6020   48.1140 C   0  0  0  0  0  0  0  0  0  0  0  0
   60.3020   33.9010   49.3210 C   0  0  0  0  0  0  0  0  0  0  0  0
   61.1750   34.1610   50.3250 F   0  0  0  0  0  0  0  0  0  0  0  0
   59.3020   32.9410   49.4940 C   0  0  0  0  0  0  0  0  0  0  0  0
   58.4000   32.6720   48.4590 C   0  0  0  0  0  0  0  0  0  0  0  0
  1  2  2  0
  2  3  1  0
  3  4  2  3
  4  5  1  0
  5  6  2  0
  6  7  1  0
  6  8  1  0
  8  9  1  0
  9 10  2  0
  9 11  1  0
 11 12  1  0
 12 13  2  0
  3 14  1  0
 14 15  2  0
 15 16  1  0
 15 17  1  0
 17 18  1  0
 18 19  1  0
 19 20  2  0
 19 21  1  0
 21 22  1  0
 22 23  2  0
 23 24  1  0
 24 25  2  0
 25 26  1  0
 25 27  1  0
 27 28  2  0
 17  2  1  0
 28 22  1  0
 12  5  1  0
M  CHG  4   7  -1   8  -1  11  -1  21  -1
M  END
>  <UniqueID>  (2617) 
65

>  <SMILES>  (2617) 
C=c1c(=Cc2c([O-])[n-]c(=O)[n-]c2=O)cc(C)n1CC(=O)[N-]c1ccc(F)cc1

>  <Energy>  (2617) 
90.38419001054494

>  <Genealogy>  (2617) 
C=c1c(=Cc2c([O-])[n-]c(=O)[n-]c2=O)cc(C)n1CC(=O)[N-]c1ccc(F)cc1 (protonated)
C=c1c(=Cc2c([O-])[n-]c(=O)[n-]c2=O)cc(C)n1CC(=O)[N-]c1ccc(F)cc1 (3D coordinates assigned)
C=c1c(=Cc2c([O-])[n-]c(=O)[n-]c2=O)cc(C)n1CC(=O)[N-]c1ccc(F)cc1 (optimized conformer: 90.38419001054494 kcal/mol)

>  <smiles>  (2617) 
C=c1c(=Cc2c(O)[nH]c(=O)[nH]c2=O)cc(C)n1CC(=O)Nc1ccc(F)cc1

>  <score_type>  (2617) 
oracle

>  <origin>  (2617) 
adg

>  <m_score__min__energy>  (2617) 
-17.460000000000001

>  <m_primary>  (2617) 
energy

$$$$
79:0
     RDKit          3D

 27 29  0  0  0  0  0  0  0  0999 V2000
   59.5640   28.1090   46.6230 O   0  0  0  0  0  0  0  0  0  0  0  0
   58.3480   28.3830   46.4480 C   0  0  0  0  0  0  0  0  0  0  0  0
   57.3640   27.4060   46.8160 N   0  0  0  0  0  0  0  0  0  0  0  0
   57.1370   26.1420   46.1730 C   0  0  0  0  0  0  0  0  0  0  0  0
   58.1830   25.2230   45.9710 C   0  0  0  0  0  0  0  0  0  0  0  0
   57.9320   23.9980   45.3470 C   0  0  0  0  0  0  0  0  0  0  0  0
   56.6370   23.6730   44.9370 C   0  0  0  0  0  0  0  0  0  0  0  0
   55.5890   24.5690   45.1570 C   0  0  0  0  0  0  0  0  0  0  0  0
   55.8340   25.7990   45.7790 C   0  0  0  0  0  0  0  0  0  0  0  0
   54.7820   26.6810   45.9950 O   0  0  0  0  0  0  0  0  0  0  0  0
   57.9650   29.7350   45.9790 C   0  0  0  0  0  0  0  0  0  0  0  0
   58.7380   30.8370   46.3710 C   0  0  0  0  0  0  0  0  0  0  0  0
   58.4360   32.1240   45.9120 C   0  0  0  0  0  0  0  0  0  0  0  0
   59.4440   33.4900   46.4220 S   0  0  0  0  0  0  0  0  0  0  0  0
   60.1960   34.0370   45.2400 O   0  0  0  0  0  0  0  0  0  0  0  0
   58.5560   34.5840   46.9470 O   0  0  0  0  0  0  0  0  0  0  0  0
   60.5820   33.0230   47.6660 N   0  0  0  0  0  0  0  0  0  0  0  0
   61.7750   32.3490   47.0970 C   0  0  0  0  0  0  0  0  0  0  0  0
   63.0170   33.2510   47.0680 C   0  0  0  0  0  0  0  0  0  0  0  0
   63.3760   33.7460   48.4800 C   0  0  0  0  0  0  0  0  0  0  0  0
   62.1410   33.9180   49.3820 C   0  0  0  0  0  0  0  0  0  0  0  0
   60.8810   34.1710   48.5490 C   0  0  0  0  0  0  0  0  0  0  0  0
   57.3390   32.2890   45.0520 C   0  0  0  0  0  0  0  0  0  0  0  0
   57.0280   33.4270   44.6100 O   0  0  0  0  0  0  0  0  0  0  0  0
   56.5940   31.2130   44.6870 N   0  0  0  0  0  0  0  0  0  0  0  0
   56.8630   29.9550   45.1230 C   0  0  0  0  0  0  0  0  0  0  0  0
   56.0090   28.9240   44.7290 O   0  0  0  0  0  0  0  0  0  0  0  0
  1  2  2  0
  2  3  1  0
  3  4  1  0
  4  5  2  0
  5  6  1  0
  6  7  2  0
  7  8  1  0
  8  9  2  0
  9 10  1  0
  2 11  1  0
 11 12  1  0
 12 13  2  0
 13 14  1  0
 14 15  2  0
 14 16  2  0
 14 17  1  0
 17 18  1  0
 18 19  1  0
 19 20  1  0
 20 21  1  0
 21 22  1  0
 13 23  1  0
 23 24  2  0
 23 25  1  0
 25 26  1  0
 26 27  1  0
  9  4  1  0
 26 11  2  0
 22 17  1  0
M  CHG  3   3  -1  10  -1  25  -1
M  END
>  <UniqueID>  (2618) 
77

>  <SMILES>  (2618) 
O=C([N-]c1ccccc1[O-])c1cc(S(=O)(=O)N2CCCCC2)c(=O)[n-]c1O

>  <Energy>  (2618) 
60.479965158680805

>  <Genealogy>  (2618) 
O=C([N-]c1ccccc1[O-])c1cc(S(=O)(=O)N2CCCCC2)c(=O)[n-]c1O (protonated)
O=C([N-]c1ccccc1[O-])c1cc(S(=O)(=O)N2CCCCC2)c(=O)[n-]c1O (3D coordinates assigned)
O=C([N-]c1ccccc1[O-])c1cc(S(=O)(=O)N2CCCCC2)c(=O)[n-]c1O (nonaromatic ring conformer: 60.479965158680805 kcal/mol)

>  <smiles>  (2618) 
O=C(Nc1ccccc1O)c1cc(S(=O)(=O)N2CCCCC2)c(=O)[nH]c1O

>  <score_type>  (2618) 
oracle

>  <origin>  (2618) 
adg

>  <m_score__min__energy>  (2618) 
-15.550000000000001

>  <m_primary>  (2618) 
energy

$$$$
89:0
     RDKit          3D

 31 34  0  0  0  0  0  0  0  0999 V2000
   59.7220   29.0330   45.7230 C   0  0  0  0  0  0  0  0  0  0  0  0
   58.4600   29.1540   45.2830 C   0  0  0  0  0  0  0  0  0  0  0  0
   57.5930   28.1250   44.9060 C   0  0  0  0  0  0  0  0  0  0  0  0
   57.8750   26.8110   44.8420 C   0  0  0  0  0  0  0  0  0  0  0  0
   57.2740   25.7910   45.7250 C   0  0  0  0  0  0  0  0  0  0  0  0
   57.9840   24.7740   46.2480 N   0  0  0  0  0  0  0  0  0  0  0  0
   57.0880   24.1270   47.0220 C   0  0  0  0  0  0  0  0  0  0  0  0
   57.3830   23.0940   47.6810 O   0  0  0  0  0  0  0  0  0  0  0  0
   55.8560   24.6770   47.0450 N   0  0  0  0  0  0  0  0  0  0  0  0
   55.9880   25.7360   46.2290 C   0  0  0  0  0  0  0  0  0  0  0  0
   54.9710   26.6560   45.9930 O   0  0  0  0  0  0  0  0  0  0  0  0
   56.3950   28.6530   44.5680 N   0  0  0  0  0  0  0  0  0  0  0  0
   56.5530   29.9780   44.7560 C   0  0  0  0  0  0  0  0  0  0  0  0
   55.6340   30.8120   44.5320 O   0  0  0  0  0  0  0  0  0  0  0  0
   57.7870   30.3240   45.1820 N   0  0  0  0  0  0  0  0  0  0  0  0
   58.2520   31.6570   45.4570 C   0  0  0  0  0  0  0  0  0  0  0  0
   57.9580   32.7080   44.5790 C   0  0  0  0  0  0  0  0  0  0  0  0
   58.4010   34.0030   44.8540 C   0  0  0  0  0  0  0  0  0  0  0  0
   59.1450   34.2730   46.0140 C   0  0  0  0  0  0  0  0  0  0  0  0
   59.6390   35.6760   46.2560 C   0  0  0  0  0  0  0  0  0  0  0  0
   59.4080   33.2220   46.9270 C   0  0  0  0  0  0  0  0  0  0  0  0
   60.1470   33.4490   48.1870 C   0  0  0  0  0  0  0  0  0  0  0  0
   61.2700   34.0200   48.1440 O   0  0  0  0  0  0  0  0  0  0  0  0
   59.6150   33.0090   49.4480 N   0  0  0  0  0  0  0  0  0  0  0  0
   59.0010   31.6750   49.5310 C   0  0  0  0  0  0  0  0  0  0  0  0
   58.4760   31.3950   50.9380 C   0  0  0  0  0  0  0  0  0  0  0  0
   57.8540   32.6200   51.4620 N   0  0  0  0  0  0  0  0  0  0  0  0
   57.0710   32.3170   52.6700 C   0  0  0  0  0  0  0  0  0  0  0  0
   58.8830   33.6390   51.7610 C   0  0  0  0  0  0  0  0  0  0  0  0
   59.9770   33.7380   50.6710 C   0  0  0  0  0  0  0  0  0  0  0  0
   58.9720   31.9210   46.6300 C   0  0  0  0  0  0  0  0  0  0  0  0
  1  2  2  0
  2  3  1  0
  3  4  2  3
  4  5  1  0
  5  6  1  0
  6  7  1  0
  7  8  2  0
  7  9  1  0
  9 10  1  0
 10 11  1  0
  3 12  1  0
 12 13  1  0
 13 14  2  0
 13 15  1  0
 15 16  1  0
 16 17  2  0
 17 18  1  0
 18 19  2  0
 19 20  1  0
 19 21  1  0
 21 22  1  0
 22 23  2  0
 22 24  1  0
 24 25  1  0
 25 26  1  0
 26 27  1  0
 27 28  1  0
 27 29  1  0
 29 30  1  0
 21 31  2  0
 15  2  1  0
 31 16  1  0
 10  5  2  0
 30 24  1  0
M  CHG  3   6  -1   9  -1  12  -1
M  END
>  <UniqueID>  (2619) 
87

>  <SMILES>  (2619) 
C=c1c(=Cc2[n-]c(=O)[n-]c2O)[n-]c(=O)n1-c1ccc(C)c(C(=O)N2CCN(C)CC2)c1

>  <Energy>  (2619) 
139.68280981955382

>  <Genealogy>  (2619) 
C=c1c(=Cc2[n-]c(=O)[n-]c2O)[n-]c(=O)n1-c1ccc(C)c(C(=O)N2CCN(C)CC2)c1 (protonated)
C=c1c(=Cc2[n-]c(=O)[n-]c2O)[n-]c(=O)n1-c1ccc(C)c(C(=O)N2CCN(C)CC2)c1 (3D coordinates assigned)
C=c1c(=Cc2[n-]c(=O)[n-]c2O)[n-]c(=O)n1-c1ccc(C)c(C(=O)N2CCN(C)CC2)c1 (nonaromatic ring conformer: 139.68280981955382 kcal/mol)

>  <smiles>  (2619) 
C=c1c(=Cc2[nH]c(=O)[nH]c2O)[nH]c(=O)n1-c1ccc(C)c(C(=O)N2CCN(C)CC2)c1

>  <score_type>  (2619) 
oracle

>  <origin>  (2619) 
adg

>  <m_score__min__energy>  (2619) 
-16.379999999999999

>  <m_primary>  (2619) 
energy

$$$$
13:0
     RDKit          3D

 31 34  0  0  0  0  0  0  0  0999 V2000
   57.3310   28.4260   43.0350 C   0  0  0  0  0  0  0  0  0  0  0  0
   57.6570   29.4490   43.8400 C   0  0  0  0  0  0  0  0  0  0  0  0
   58.2790   29.3650   45.0970 C   0  0  0  0  0  0  0  0  0  0  0  0
   58.5030   28.3090   45.9050 C   0  0  0  0  0  0  0  0  0  0  0  0
   57.5400   27.2290   46.1780 C   0  0  0  0  0  0  0  0  0  0  0  0
   57.8620   26.0240   46.6860 N   0  0  0  0  0  0  0  0  0  0  0  0
   56.6910   25.3510   46.6560 C   0  0  0  0  0  0  0  0  0  0  0  0
   56.5800   24.1680   47.0720 O   0  0  0  0  0  0  0  0  0  0  0  0
   55.6520   26.0440   46.1420 N   0  0  0  0  0  0  0  0  0  0  0  0
   56.2110   27.2250   45.8340 C   0  0  0  0  0  0  0  0  0  0  0  0
   55.5190   28.2800   45.2550 O   0  0  0  0  0  0  0  0  0  0  0  0
   58.6610   30.6530   45.4240 C   0  0  0  0  0  0  0  0  0  0  0  0
   58.2020   31.4790   44.4170 C   0  0  0  0  0  0  0  0  0  0  0  0
   58.4690   32.9610   44.3610 C   0  0  0  0  0  0  0  0  0  0  0  0
   58.5470   33.5340   45.7540 C   0  0  0  0  0  0  0  0  0  0  0  0
   59.5120   34.4110   46.0750 C   0  0  0  0  0  0  0  0  0  0  0  0
   59.6080   34.9650   47.4700 C   0  0  0  0  0  0  0  0  0  0  0  0
   59.2320   33.9500   48.4730 N   0  0  0  0  0  0  0  0  0  0  0  0
   59.7490   34.0370   49.8140 C   0  0  0  0  0  0  0  0  0  0  0  0
   59.0480   33.6530   50.7890 O   0  0  0  0  0  0  0  0  0  0  0  0
   61.0550   34.4980   50.0260 O   0  0  0  0  0  0  0  0  0  0  0  0
   62.2180   33.7790   49.7210 C   0  0  0  0  0  0  0  0  0  0  0  0
   63.1430   33.4060   50.7110 C   0  0  0  0  0  0  0  0  0  0  0  0
   64.2940   32.6910   50.3610 C   0  0  0  0  0  0  0  0  0  0  0  0
   64.5360   32.3570   49.0260 C   0  0  0  0  0  0  0  0  0  0  0  0
   63.6270   32.7390   48.0350 C   0  0  0  0  0  0  0  0  0  0  0  0
   62.4770   33.4540   48.3820 C   0  0  0  0  0  0  0  0  0  0  0  0
   58.2650   32.8830   48.1530 C   0  0  0  0  0  0  0  0  0  0  0  0
   57.5540   33.1270   46.8140 C   0  0  0  0  0  0  0  0  0  0  0  0
   57.5770   30.7510   43.4580 N   0  0  0  0  0  0  0  0  0  0  0  0
   57.0430   31.2550   42.1880 C   0  0  0  0  0  0  0  0  0  0  0  0
  1  2  2  0
  2  3  1  0
  3  4  2  3
  4  5  1  0
  5  6  1  0
  6  7  1  0
  7  8  2  0
  7  9  1  0
  9 10  1  0
 10 11  1  0
  3 12  1  0
 12 13  2  0
 13 14  1  0
 14 15  1  0
 15 16  2  0
 16 17  1  0
 17 18  1  0
 18 19  1  0
 19 20  2  0
 19 21  1  0
 21 22  1  0
 22 23  2  0
 23 24  1  0
 24 25  2  0
 25 26  1  0
 26 27  2  0
 18 28  1  0
 28 29  1  0
 13 30  1  0
 30 31  1  0
 30  2  1  0
 10  5  2  0
 29 15  1  0
 27 22  1  0
M  CHG  3   6  -1   9  -1  11  -1
M  END
>  <UniqueID>  (2620) 
14

>  <SMILES>  (2620) 
C=c1c(=Cc2[n-]c(=O)[n-]c2[O-])cc(CC2=CCN(C(=O)Oc3ccccc3)CC2)n1C

>  <Energy>  (2620) 
126.24066092081524

>  <Genealogy>  (2620) 
C=c1c(=Cc2[n-]c(=O)[n-]c2[O-])cc(CC2=CCN(C(=O)Oc3ccccc3)CC2)n1C (protonated)
C=c1c(=Cc2[n-]c(=O)[n-]c2[O-])cc(CC2=CCN(C(=O)Oc3ccccc3)CC2)n1C (3D coordinates assigned)
C=c1c(=Cc2[n-]c(=O)[n-]c2[O-])cc(CC2=CCN(C(=O)Oc3ccccc3)CC2)n1C (nonaromatic ring conformer: 126.24066092081524 kcal/mol)

>  <smiles>  (2620) 
C=c1c(=Cc2[nH]c(=O)[nH]c2O)cc(CC2=CCN(C(=O)Oc3ccccc3)CC2)n1C

>  <score_type>  (2620) 
oracle

>  <origin>  (2620) 
adg

>  <m_score__min__energy>  (2620) 
-18.57

>  <m_primary>  (2620) 
energy

$$$$
19:0
     RDKit          3D

 32 35  0  0  0  0  0  0  0  0999 V2000
   59.3110   27.7490   46.8910 C   0  0  0  0  0  0  0  0  0  0  0  0
   58.9010   28.4120   45.7980 C   0  0  0  0  0  0  0  0  0  0  0  0
   58.0010   27.9530   44.8210 C   0  0  0  0  0  0  0  0  0  0  0  0
   57.4920   26.7280   44.5940 C   0  0  0  0  0  0  0  0  0  0  0  0
   57.0430   25.7820   45.6290 C   0  0  0  0  0  0  0  0  0  0  0  0
   57.7250   24.6870   46.0140 N   0  0  0  0  0  0  0  0  0  0  0  0
   56.8640   24.0570   46.8410 C   0  0  0  0  0  0  0  0  0  0  0  0
   57.1500   22.9780   47.4250 O   0  0  0  0  0  0  0  0  0  0  0  0
   55.6680   24.6670   46.9830 N   0  0  0  0  0  0  0  0  0  0  0  0
   55.7930   25.7480   46.1980 C   0  0  0  0  0  0  0  0  0  0  0  0
   54.7810   26.6760   45.9910 O   0  0  0  0  0  0  0  0  0  0  0  0
   57.6910   29.0510   44.0370 C   0  0  0  0  0  0  0  0  0  0  0  0
   58.4320   30.1100   44.5160 C   0  0  0  0  0  0  0  0  0  0  0  0
   58.3730   31.4740   43.9590 C   0  0  0  0  0  0  0  0  0  0  0  0
   58.2990   31.6260   42.7110 O   0  0  0  0  0  0  0  0  0  0  0  0
   58.3580   32.6230   44.8210 N   0  0  0  0  0  0  0  0  0  0  0  0
   57.4390   32.6460   45.9700 C   0  0  0  0  0  0  0  0  0  0  0  0
   57.6720   33.8900   46.8270 C   0  0  0  0  0  0  0  0  0  0  0  0
   59.1220   34.1240   46.9070 N   0  0  0  0  0  0  0  0  0  0  0  0
   59.5470   34.9470   48.0580 C   0  0  0  0  0  0  0  0  0  0  0  0
   60.4650   34.2270   49.0250 C   0  0  0  0  0  0  0  0  0  0  0  0
   60.0140   33.8560   50.1420 O   0  0  0  0  0  0  0  0  0  0  0  0
   61.8300   33.9120   48.6770 N   0  0  0  0  0  0  0  0  0  0  0  0
   62.8790   34.0320   49.6940 C   0  0  0  0  0  0  0  0  0  0  0  0
   64.0160   33.0470   49.3980 C   0  0  0  0  0  0  0  0  0  0  0  0
   64.4630   33.1760   48.0600 O   0  0  0  0  0  0  0  0  0  0  0  0
   63.4250   32.7940   47.1780 C   0  0  0  0  0  0  0  0  0  0  0  0
   62.2430   33.7650   47.2760 C   0  0  0  0  0  0  0  0  0  0  0  0
   59.6940   34.5680   45.6170 C   0  0  0  0  0  0  0  0  0  0  0  0
   59.0500   33.8520   44.4090 C   0  0  0  0  0  0  0  0  0  0  0  0
   59.1940   29.7180   45.5660 N   0  0  0  0  0  0  0  0  0  0  0  0
   60.1280   30.5570   46.3260 C   0  0  0  0  0  0  0  0  0  0  0  0
  1  2  2  0
  2  3  1  0
  3  4  2  0
  4  5  1  0
  5  6  1  0
  6  7  1  0
  7  8  2  0
  7  9  1  0
  9 10  1  0
 10 11  1  0
  3 12  1  0
 12 13  2  0
 13 14  1  0
 14 15  2  0
 14 16  1  0
 16 17  1  0
 17 18  1  0
 18 19  1  0
 19 20  1  0
 20 21  1  0
 21 22  2  0
 21 23  1  0
 23 24  1  0
 24 25  1  0
 25 26  1  0
 26 27  1  0
 27 28  1  0
 19 29  1  0
 29 30  1  0
 13 31  1  0
 31 32  1  0
 31  2  1  0
 10  5  2  0
 30 16  1  0
 28 23  1  0
M  CHG  3   6  -1   9  -1  11  -1
M  END
>  <UniqueID>  (2621) 
20

>  <SMILES>  (2621) 
C=c1/c(=C\c2[n-]c(=O)[n-]c2[O-])cc(C(=O)N2CCN(CC(=O)N3CCOCC3)CC2)n1C

>  <Energy>  (2621) 
145.3953865349222

>  <Genealogy>  (2621) 
C=c1c(=Cc2[n-]c(=O)[n-]c2[O-])cc(C(=O)N2CCN(CC(=O)N3CCOCC3)CC2)n1C (protonated)
C=c1/c(=C\c2[n-]c(=O)[n-]c2[O-])cc(C(=O)N2CCN(CC(=O)N3CCOCC3)CC2)n1C (cis-trans isomerization)
C=c1/c(=C\c2[n-]c(=O)[n-]c2[O-])cc(C(=O)N2CCN(CC(=O)N3CCOCC3)CC2)n1C (3D coordinates assigned)
C=c1/c(=C\c2[n-]c(=O)[n-]c2[O-])cc(C(=O)N2CCN(CC(=O)N3CCOCC3)CC2)n1C (nonaromatic ring conformer: 145.3953865349222 kcal/mol)

>  <smiles>  (2621) 
C=c1c(=Cc2[nH]c(=O)[nH]c2O)cc(C(=O)N2CCN(CC(=O)N3CCOCC3)CC2)n1C

>  <score_type>  (2621) 
oracle

>  <origin>  (2621) 
adg

>  <m_score__min__energy>  (2621) 
-18.399999999999999

>  <m_primary>  (2621) 
energy

$$$$
21:0
     RDKit          3D

 36 39  0  0  0  0  0  0  0  0999 V2000
   52.4470   30.7970   54.4870 C   0  0  0  0  0  0  0  0  0  0  0  0
   53.5190   29.8650   54.0700 C   0  0  0  0  0  0  0  0  0  0  0  0
   53.3270   28.6290   54.2280 O   0  0  0  0  0  0  0  0  0  0  0  0
   54.8100   30.3260   53.5100 C   0  0  0  0  0  0  0  0  0  0  0  0
   54.8930   30.7130   52.1630 C   0  0  0  0  0  0  0  0  0  0  0  0
   56.0890   31.2160   51.6450 C   0  0  0  0  0  0  0  0  0  0  0  0
   57.2290   31.3320   52.4600 C   0  0  0  0  0  0  0  0  0  0  0  0
   58.4530   31.8960   51.9400 N   0  0  0  0  0  0  0  0  0  0  0  0
   59.0690   31.3590   50.7210 C   0  0  0  0  0  0  0  0  0  0  0  0
   60.5950   31.5330   50.7800 C   0  0  0  0  0  0  0  0  0  0  0  0
   61.0330   32.9220   51.0930 N   0  0  0  0  0  0  0  0  0  0  0  0
   61.7530   33.5480   49.9660 C   0  0  0  0  0  0  0  0  0  0  0  0
   60.9870   33.3640   48.6870 C   0  0  0  0  0  0  0  0  0  0  0  0
   61.3520   32.4690   47.8790 O   0  0  0  0  0  0  0  0  0  0  0  0
   59.8260   34.1660   48.4170 N   0  0  0  0  0  0  0  0  0  0  0  0
   59.1260   34.1660   47.1610 C   0  0  0  0  0  0  0  0  0  0  0  0
   59.6000   34.9070   46.0620 C   0  0  0  0  0  0  0  0  0  0  0  0
   58.8920   34.9130   44.8560 C   0  0  0  0  0  0  0  0  0  0  0  0
   57.7010   34.1910   44.7390 C   0  0  0  0  0  0  0  0  0  0  0  0
   57.2120   33.4690   45.8300 C   0  0  0  0  0  0  0  0  0  0  0  0
   57.9160   33.4610   47.0400 C   0  0  0  0  0  0  0  0  0  0  0  0
   57.4260   32.7510   48.0880 F   0  0  0  0  0  0  0  0  0  0  0  0
   59.9530   33.8140   51.5700 C   0  0  0  0  0  0  0  0  0  0  0  0
   59.0280   33.0970   52.5550 C   0  0  0  0  0  0  0  0  0  0  0  0
   57.1520   30.9080   53.7970 C   0  0  0  0  0  0  0  0  0  0  0  0
   55.9580   30.4000   54.3140 C   0  0  0  0  0  0  0  0  0  0  0  0
   51.4400   31.2240   53.7070 C   0  0  0  0  0  0  0  0  0  0  0  0
   51.3850   31.0690   52.2350 C   0  0  0  0  0  0  0  0  0  0  0  0
   51.0140   32.1540   51.4290 C   0  0  0  0  0  0  0  0  0  0  0  0
   50.6830   33.3790   51.9980 O   0  0  0  0  0  0  0  0  0  0  0  0
   50.9950   32.0230   50.0780 N   0  0  0  0  0  0  0  0  0  0  0  0
   51.3160   30.8460   49.4830 C   0  0  0  0  0  0  0  0  0  0  0  0
   51.3020   30.7510   48.2300 O   0  0  0  0  0  0  0  0  0  0  0  0
   51.6450   29.7690   50.2410 N   0  0  0  0  0  0  0  0  0  0  0  0
   51.6770   29.8480   51.5970 C   0  0  0  0  0  0  0  0  0  0  0  0
   51.9590   28.8200   52.2680 O   0  0  0  0  0  0  0  0  0  0  0  0
  1  2  1  0
  2  3  2  0
  2  4  1  0
  4  5  2  0
  5  6  1  0
  6  7  2  0
  7  8  1  0
  8  9  1  0
  9 10  1  0
 10 11  1  0
 11 12  1  0
 12 13  1  0
 13 14  2  0
 13 15  1  0
 15 16  1  0
 16 17  2  0
 17 18  1  0
 18 19  2  0
 19 20  1  0
 20 21  2  0
 21 22  1  0
 11 23  1  0
 23 24  1  0
  7 25  1  0
 25 26  2  0
  1 27  2  0
 27 28  1  0
 28 29  2  0
 29 30  1  0
 29 31  1  0
 31 32  1  0
 32 33  2  0
 32 34  1  0
 34 35  1  0
 35 36  2  0
 26  4  1  0
 35 28  1  0
 24  8  1  0
 21 16  1  0
M  CHG  3  30  -1  31  -1  34  -1
M  END
>  <UniqueID>  (2622) 
22

>  <SMILES>  (2622) 
O=C(CN1CCN(c2ccc(C(=O)/C=C\c3c([O-])[n-]c(=O)[n-]c3=O)cc2)CC1)Nc1ccccc1F

>  <Energy>  (2622) 
87.24146576482126

>  <Genealogy>  (2622) 
O=C(CN1CCN(c2ccc(C(=O)C=Cc3c([O-])[n-]c(=O)[n-]c3=O)cc2)CC1)Nc1ccccc1F (protonated)
O=C(CN1CCN(c2ccc(C(=O)/C=C\c3c([O-])[n-]c(=O)[n-]c3=O)cc2)CC1)Nc1ccccc1F (cis-trans isomerization)
O=C(CN1CCN(c2ccc(C(=O)/C=C\c3c([O-])[n-]c(=O)[n-]c3=O)cc2)CC1)Nc1ccccc1F (3D coordinates assigned)
O=C(CN1CCN(c2ccc(C(=O)/C=C\c3c([O-])[n-]c(=O)[n-]c3=O)cc2)CC1)Nc1ccccc1F (nonaromatic ring conformer: 87.24146576482126 kcal/mol)

>  <smiles>  (2622) 
O=C(CN1CCN(c2ccc(C(=O)C=Cc3c(O)[nH]c(=O)[nH]c3=O)cc2)CC1)Nc1ccccc1F

>  <score_type>  (2622) 
oracle

>  <origin>  (2622) 
adg

>  <m_score__min__energy>  (2622) 
-17.77

>  <m_primary>  (2622) 
energy

$$$$
31:0
     RDKit          3D

 28 31  0  0  0  0  0  0  0  0999 V2000
   54.4900   30.8120   51.2490 C   0  0  0  0  0  0  0  0  0  0  0  0
   54.3660   30.6290   52.5720 C   0  0  0  0  0  0  0  0  0  0  0  0
   53.1800   30.3900   53.2750 C   0  0  0  0  0  0  0  0  0  0  0  0
   51.9310   30.3520   52.7750 C   0  0  0  0  0  0  0  0  0  0  0  0
   51.5630   30.8450   51.4350 C   0  0  0  0  0  0  0  0  0  0  0  0
   51.6200   30.0840   50.3280 N   0  0  0  0  0  0  0  0  0  0  0  0
   51.1240   30.8920   49.3660 C   0  0  0  0  0  0  0  0  0  0  0  0
   51.0270   30.5330   48.1640 O   0  0  0  0  0  0  0  0  0  0  0  0
   50.7310   32.1100   49.7950 N   0  0  0  0  0  0  0  0  0  0  0  0
   51.0040   32.0610   51.1090 C   0  0  0  0  0  0  0  0  0  0  0  0
   50.7000   33.0890   51.9940 O   0  0  0  0  0  0  0  0  0  0  0  0
   53.5400   30.2590   54.6120 C   0  0  0  0  0  0  0  0  0  0  0  0
   54.9120   30.4050   54.6680 C   0  0  0  0  0  0  0  0  0  0  0  0
   55.7270   30.3910   55.9240 C   0  0  0  0  0  0  0  0  0  0  0  0
   55.4110   30.6370   53.4350 N   0  0  0  0  0  0  0  0  0  0  0  0
   56.7940   30.8650   53.1230 C   0  0  0  0  0  0  0  0  0  0  0  0
   57.7290   29.8150   53.1460 C   0  0  0  0  0  0  0  0  0  0  0  0
   57.3210   28.4180   53.5010 C   0  0  0  0  0  0  0  0  0  0  0  0
   59.0330   30.0710   52.8510 N   0  0  0  0  0  0  0  0  0  0  0  0
   59.4820   31.3140   52.5180 C   0  0  0  0  0  0  0  0  0  0  0  0
   60.8810   31.5080   52.2160 N   0  0  0  0  0  0  0  0  0  0  0  0
   61.5090   30.6930   51.1670 C   0  0  0  0  0  0  0  0  0  0  0  0
   62.7050   31.4350   50.5630 C   0  0  0  0  0  0  0  0  0  0  0  0
   63.5840   31.8780   51.5770 O   0  0  0  0  0  0  0  0  0  0  0  0
   62.9380   32.8560   52.3670 C   0  0  0  0  0  0  0  0  0  0  0  0
   61.7580   32.2480   53.1330 C   0  0  0  0  0  0  0  0  0  0  0  0
   58.5680   32.3820   52.4840 C   0  0  0  0  0  0  0  0  0  0  0  0
   57.2260   32.1500   52.7850 C   0  0  0  0  0  0  0  0  0  0  0  0
  1  2  2  0
  2  3  1  0
  3  4  2  0
  4  5  1  0
  5  6  1  0
  6  7  1  0
  7  8  2  0
  7  9  1  0
  9 10  1  0
 10 11  1  0
  3 12  1  0
 12 13  2  0
 13 14  1  0
 13 15  1  0
 15 16  1  0
 16 17  2  0
 17 18  1  0
 17 19  1  0
 19 20  2  0
 20 21  1  0
 21 22  1  0
 22 23  1  0
 23 24  1  0
 24 25  1  0
 25 26  1  0
 20 27  1  0
 27 28  2  0
 15  2  1  0
 28 16  1  0
 10  5  2  0
 26 21  1  0
M  CHG  3   6  -1   9  -1  11  -1
M  END
>  <UniqueID>  (2623) 
32

>  <SMILES>  (2623) 
C=c1/c(=C/c2[n-]c(=O)[n-]c2[O-])cc(C)n1-c1ccc(N2CCOCC2)nc1C

>  <Energy>  (2623) 
125.63440404209089

>  <Genealogy>  (2623) 
C=c1c(=Cc2[n-]c(=O)[n-]c2[O-])cc(C)n1-c1ccc(N2CCOCC2)nc1C (protonated)
C=c1/c(=C/c2[n-]c(=O)[n-]c2[O-])cc(C)n1-c1ccc(N2CCOCC2)nc1C (cis-trans isomerization)
C=c1/c(=C/c2[n-]c(=O)[n-]c2[O-])cc(C)n1-c1ccc(N2CCOCC2)nc1C (3D coordinates assigned)
C=c1/c(=C/c2[n-]c(=O)[n-]c2[O-])cc(C)n1-c1ccc(N2CCOCC2)nc1C (nonaromatic ring conformer: 125.63440404209089 kcal/mol)

>  <smiles>  (2623) 
C=c1c(=Cc2[nH]c(=O)[nH]c2O)cc(C)n1-c1ccc(N2CCOCC2)nc1C

>  <score_type>  (2623) 
oracle

>  <origin>  (2623) 
adg

>  <m_score__min__energy>  (2623) 
-15.57

>  <m_primary>  (2623) 
energy

$$$$
34:0
     RDKit          3D

 34 37  0  0  0  0  0  0  0  0999 V2000
   57.8600   30.8710   45.4680 C   0  0  0  0  0  0  0  0  0  0  0  0
   58.5570   30.2570   46.4380 C   0  0  0  0  0  0  0  0  0  0  0  0
   58.6890   28.8700   46.6130 C   0  0  0  0  0  0  0  0  0  0  0  0
   58.4100   27.8420   45.7880 C   0  0  0  0  0  0  0  0  0  0  0  0
   57.2340   26.9620   45.8810 C   0  0  0  0  0  0  0  0  0  0  0  0
   57.2400   25.7230   46.4060 N   0  0  0  0  0  0  0  0  0  0  0  0
   55.9360   25.3740   46.3980 C   0  0  0  0  0  0  0  0  0  0  0  0
   55.5330   24.2520   46.7980 O   0  0  0  0  0  0  0  0  0  0  0  0
   55.0970   26.3250   45.9320 N   0  0  0  0  0  0  0  0  0  0  0  0
   55.9340   27.3280   45.6240 C   0  0  0  0  0  0  0  0  0  0  0  0
   55.5190   28.5550   45.1240 O   0  0  0  0  0  0  0  0  0  0  0  0
   59.2510   28.6910   47.8630 C   0  0  0  0  0  0  0  0  0  0  0  0
   59.5090   29.9450   48.3700 C   0  0  0  0  0  0  0  0  0  0  0  0
   60.1670   30.1710   49.6710 C   0  0  0  0  0  0  0  0  0  0  0  0
   61.4240   30.0710   49.7350 O   0  0  0  0  0  0  0  0  0  0  0  0
   59.3850   30.3190   50.8830 N   0  0  0  0  0  0  0  0  0  0  0  0
   58.2770   31.2990   50.6980 C   0  0  0  0  0  0  0  0  0  0  0  0
   58.6110   32.6980   51.2310 C   0  0  0  0  0  0  0  0  0  0  0  0
   58.9980   32.6250   52.6440 N   0  0  0  0  0  0  0  0  0  0  0  0
   58.8400   33.7810   53.4920 C   0  0  0  0  0  0  0  0  0  0  0  0
   58.9040   33.6720   54.9870 C   0  0  0  0  0  0  0  0  0  0  0  0
   58.6760   34.9190   52.9760 O   0  0  0  0  0  0  0  0  0  0  0  0
   59.5800   31.3770   53.1530 C   0  0  0  0  0  0  0  0  0  0  0  0
   60.2950   30.6320   52.0160 C   0  0  0  0  0  0  0  0  0  0  0  0
   59.1050   30.9060   47.5040 N   0  0  0  0  0  0  0  0  0  0  0  0
   59.4040   32.3430   47.6170 C   0  0  0  0  0  0  0  0  0  0  0  0
   60.8520   32.5470   47.9840 C   0  0  0  0  0  0  0  0  0  0  0  0
   61.8660   31.9510   47.2180 C   0  0  0  0  0  0  0  0  0  0  0  0
   63.2120   32.1580   47.5370 C   0  0  0  0  0  0  0  0  0  0  0  0
   63.5660   32.9810   48.6210 C   0  0  0  0  0  0  0  0  0  0  0  0
   64.9020   33.2290   48.9740 O   0  0  0  0  0  0  0  0  0  0  0  0
   65.5880   32.5670   50.0330 C   0  0  0  0  0  0  0  0  0  0  0  0
   62.5520   33.5830   49.3800 C   0  0  0  0  0  0  0  0  0  0  0  0
   61.2060   33.3670   49.0670 C   0  0  0  0  0  0  0  0  0  0  0  0
  1  2  2  0
  2  3  1  0
  3  4  2  3
  4  5  1  0
  5  6  1  0
  6  7  1  0
  7  8  2  0
  7  9  1  0
  9 10  1  0
 10 11  1  0
  3 12  1  0
 12 13  2  0
 13 14  1  0
 14 15  2  0
 14 16  1  0
 16 17  1  0
 17 18  1  0
 18 19  1  0
 19 20  1  0
 20 21  1  0
 20 22  2  0
 19 23  1  0
 23 24  1  0
 13 25  1  0
 25 26  1  0
 26 27  1  0
 27 28  2  0
 28 29  1  0
 29 30  2  0
 30 31  1  0
 31 32  1  0
 30 33  1  0
 33 34  2  0
 25  2  1  0
 34 27  1  0
 10  5  2  0
 24 16  1  0
M  CHG  4   6  -1   9  -1  11  -1  16   1
M  END
>  <UniqueID>  (2624) 
35

>  <SMILES>  (2624) 
C=c1c(=Cc2[n-]c(=O)[n-]c2[O-])cc(C(=O)[NH+]2CCN(C(C)=O)CC2)n1Cc1ccc(OC)cc1

>  <Energy>  (2624) 
144.70618475184926

>  <Genealogy>  (2624) 
C=c1c(=Cc2[n-]c(=O)[n-]c2[O-])cc(C(=O)[NH+]2CCN(C(C)=O)CC2)n1Cc1ccc(OC)cc1 (protonated)
C=c1c(=Cc2[n-]c(=O)[n-]c2[O-])cc(C(=O)[NH+]2CCN(C(C)=O)CC2)n1Cc1ccc(OC)cc1 (3D coordinates assigned)
C=c1c(=Cc2[n-]c(=O)[n-]c2[O-])cc(C(=O)[NH+]2CCN(C(C)=O)CC2)n1Cc1ccc(OC)cc1 (nonaromatic ring conformer: 144.70618475184926 kcal/mol)

>  <smiles>  (2624) 
C=c1c(=Cc2[nH]c(=O)[nH]c2O)cc(C(=O)N2CCN(C(C)=O)CC2)n1Cc1ccc(OC)cc1

>  <score_type>  (2624) 
oracle

>  <origin>  (2624) 
adg

>  <m_score__min__energy>  (2624) 
-15.1

>  <m_primary>  (2624) 
energy

$$$$
43:0
     RDKit          3D

 25 27  0  0  0  0  0  0  0  0999 V2000
   58.6580   30.4910   47.3380 C   0  0  0  0  0  0  0  0  0  0  0  0
   58.4560   31.3220   46.3010 C   0  0  0  0  0  0  0  0  0  0  0  0
   58.0440   30.9640   45.0050 C   0  0  0  0  0  0  0  0  0  0  0  0
   57.8920   29.7580   44.4210 C   0  0  0  0  0  0  0  0  0  0  0  0
   57.4720   28.5160   45.1000 C   0  0  0  0  0  0  0  0  0  0  0  0
   56.1120   28.2330   45.2790 C   0  0  0  0  0  0  0  0  0  0  0  0
   55.1440   29.1420   44.8640 O   0  0  0  0  0  0  0  0  0  0  0  0
   55.7300   27.0690   45.8690 N   0  0  0  0  0  0  0  0  0  0  0  0
   56.6540   26.1570   46.2780 C   0  0  0  0  0  0  0  0  0  0  0  0
   56.2860   25.0860   46.8260 O   0  0  0  0  0  0  0  0  0  0  0  0
   57.9760   26.3980   46.0900 N   0  0  0  0  0  0  0  0  0  0  0  0
   58.4060   27.5470   45.5050 C   0  0  0  0  0  0  0  0  0  0  0  0
   59.6410   27.7250   45.3280 O   0  0  0  0  0  0  0  0  0  0  0  0
   57.8010   32.1480   44.3340 C   0  0  0  0  0  0  0  0  0  0  0  0
   58.1210   33.1730   45.1960 C   0  0  0  0  0  0  0  0  0  0  0  0
   57.9710   34.6270   44.8650 C   0  0  0  0  0  0  0  0  0  0  0  0
   58.5230   32.6810   46.3930 N   0  0  0  0  0  0  0  0  0  0  0  0
   58.8810   33.5010   47.5640 C   0  0  0  0  0  0  0  0  0  0  0  0
   60.3760   33.6450   47.6820 C   0  0  0  0  0  0  0  0  0  0  0  0
   61.2050   33.3840   46.5790 C   0  0  0  0  0  0  0  0  0  0  0  0
   62.5890   33.5300   46.7070 C   0  0  0  0  0  0  0  0  0  0  0  0
   63.1280   33.9170   47.8920 N   0  0  0  0  0  0  0  0  0  0  0  0
   62.3520   34.1730   48.9780 C   0  0  0  0  0  0  0  0  0  0  0  0
   62.8880   34.5290   50.0600 O   0  0  0  0  0  0  0  0  0  0  0  0
   60.9620   34.0410   48.8950 C   0  0  0  0  0  0  0  0  0  0  0  0
  1  2  2  0
  2  3  1  0
  3  4  2  0
  4  5  1  0
  5  6  2  0
  6  7  1  0
  6  8  1  0
  8  9  1  0
  9 10  2  0
  9 11  1  0
 11 12  1  0
 12 13  2  0
  3 14  1  0
 14 15  2  0
 15 16  1  0
 15 17  1  0
 17 18  1  0
 18 19  1  0
 19 20  1  0
 20 21  2  0
 21 22  1  0
 22 23  1  0
 23 24  2  0
 23 25  1  0
 17  2  1  0
 25 19  2  0
 12  5  1  0
M  CHG  3   7  -1  11  -1  22  -1
M  END
>  <UniqueID>  (2625) 
44

>  <SMILES>  (2625) 
C=c1/c(=C\c2c([O-])[nH]c(=O)[n-]c2=O)cc(C)n1Cc1cc[n-]c(=O)c1

>  <Energy>  (2625) 
84.0217867668501

>  <Genealogy>  (2625) 
C=c1c(=Cc2c([O-])[nH]c(=O)[n-]c2=O)cc(C)n1Cc1cc[n-]c(=O)c1 (protonated)
C=c1/c(=C\c2c([O-])[nH]c(=O)[n-]c2=O)cc(C)n1Cc1cc[n-]c(=O)c1 (cis-trans isomerization)
C=c1/c(=C\c2c([O-])[nH]c(=O)[n-]c2=O)cc(C)n1Cc1cc[n-]c(=O)c1 (3D coordinates assigned)
C=c1/c(=C\c2c([O-])[nH]c(=O)[n-]c2=O)cc(C)n1Cc1cc[n-]c(=O)c1 (optimized conformer: 84.0217867668501 kcal/mol)

>  <smiles>  (2625) 
C=c1c(=Cc2c(O)[nH]c(=O)[nH]c2=O)cc(C)n1Cc1cc[nH]c(=O)c1

>  <score_type>  (2625) 
oracle

>  <origin>  (2625) 
adg

>  <m_score__min__energy>  (2625) 
-14.01

>  <m_primary>  (2625) 
energy

$$$$
50:0
     RDKit          3D

 30 32  0  0  0  0  0  0  0  0999 V2000
   56.6900   21.8400   50.7770 C   0  0  0  0  0  0  0  0  0  0  0  0
   57.2250   21.7910   49.5280 N   0  0  0  0  0  0  0  0  0  0  0  0
   56.4470   21.7480   48.4090 C   0  0  0  0  0  0  0  0  0  0  0  0
   57.0330   21.6790   47.1410 O   0  0  0  0  0  0  0  0  0  0  0  0
   57.3310   20.4470   46.4960 C   0  0  0  0  0  0  0  0  0  0  0  0
   55.0470   21.7610   48.5360 C   0  0  0  0  0  0  0  0  0  0  0  0
   54.1710   21.7360   47.3520 C   0  0  0  0  0  0  0  0  0  0  0  0
   53.9730   20.6390   46.7660 O   0  0  0  0  0  0  0  0  0  0  0  0
   53.5180   22.9110   46.8600 N   0  0  0  0  0  0  0  0  0  0  0  0
   53.9520   23.7780   45.4180 S   0  0  0  0  0  0  0  0  0  0  0  0
   53.7800   25.2510   45.6640 O   0  0  0  0  0  0  0  0  0  0  0  0
   53.0280   23.3730   44.3050 O   0  0  0  0  0  0  0  0  0  0  0  0
   55.6390   23.4820   44.9610 C   0  0  0  0  0  0  0  0  0  0  0  0
   55.9200   22.4700   44.0260 C   0  0  0  0  0  0  0  0  0  0  0  0
   57.2340   22.2110   43.6320 C   0  0  0  0  0  0  0  0  0  0  0  0
   58.2820   22.9640   44.1560 C   0  0  0  0  0  0  0  0  0  0  0  0
   58.0210   23.9820   45.0740 C   0  0  0  0  0  0  0  0  0  0  0  0
   56.7050   24.2530   45.4860 C   0  0  0  0  0  0  0  0  0  0  0  0
   56.4860   25.3470   46.4580 C   0  0  0  0  0  0  0  0  0  0  0  0
   56.6510   25.1190   47.6840 O   0  0  0  0  0  0  0  0  0  0  0  0
   56.1850   26.6900   46.0430 N   0  0  0  0  0  0  0  0  0  0  0  0
   57.0250   27.5820   45.5990 C   0  0  0  0  0  0  0  0  0  0  0  0
   58.3720   27.3880   45.6810 N   0  0  0  0  0  0  0  0  0  0  0  0
   59.2640   28.3010   45.2110 C   0  0  0  0  0  0  0  0  0  0  0  0
   58.8090   29.4770   44.6140 C   0  0  0  0  0  0  0  0  0  0  0  0
   57.4360   29.7000   44.5060 C   0  0  0  0  0  0  0  0  0  0  0  0
   56.5350   28.7500   44.9960 C   0  0  0  0  0  0  0  0  0  0  0  0
   55.1660   28.9740   44.8840 O   0  0  0  0  0  0  0  0  0  0  0  0
   54.4820   21.7860   49.8180 C   0  0  0  0  0  0  0  0  0  0  0  0
   55.3050   21.8340   50.9430 C   0  0  0  0  0  0  0  0  0  0  0  0
  1  2  2  0
  2  3  1  0
  3  4  1  0
  4  5  1  0
  3  6  2  0
  6  7  1  0
  7  8  2  0
  7  9  1  0
  9 10  1  0
 10 11  2  0
 10 12  2  0
 10 13  1  0
 13 14  2  0
 14 15  1  0
 15 16  2  0
 16 17  1  0
 17 18  2  0
 18 19  1  0
 19 20  2  0
 19 21  1  0
 21 22  2  0
 22 23  1  0
 23 24  1  0
 24 25  2  0
 25 26  1  0
 26 27  2  0
 27 28  1  0
  6 29  1  0
 29 30  2  0
 30  1  1  0
 18 13  1  0
 27 22  1  0
M  CHG  3   9  -1  23  -1  28  -1
M  END
>  <UniqueID>  (2626) 
50

>  <SMILES>  (2626) 
COc1ncccc1C(=O)[N-]S(=O)(=O)c1ccccc1C(=O)/N=c1\[n-]cccc1[O-]

>  <Energy>  (2626) 
62.63275166157655

>  <Genealogy>  (2626) 
COc1ncccc1C(=O)[N-]S(=O)(=O)c1ccccc1C(=O)N=c1[n-]cccc1[O-] (protonated)
COc1ncccc1C(=O)[N-]S(=O)(=O)c1ccccc1C(=O)/N=c1\[n-]cccc1[O-] (cis-trans isomerization)
COc1ncccc1C(=O)[N-]S(=O)(=O)c1ccccc1C(=O)/N=c1\[n-]cccc1[O-] (3D coordinates assigned)
COc1ncccc1C(=O)[N-]S(=O)(=O)c1ccccc1C(=O)/N=c1\[n-]cccc1[O-] (optimized conformer: 62.63275166157655 kcal/mol)

>  <smiles>  (2626) 
COc1ncccc1C(=O)NS(=O)(=O)c1ccccc1C(=O)N=c1[nH]cccc1O

>  <score_type>  (2626) 
oracle

>  <origin>  (2626) 
adg

>  <m_score__min__energy>  (2626) 
-14.82

>  <m_primary>  (2626) 
energy

$$$$
55:0
     RDKit          3D

 30 32  0  0  0  0  0  0  0  0999 V2000
   59.2340   29.7630   44.8600 C   0  0  0  0  0  0  0  0  0  0  0  0
   58.7730   28.4880   44.9560 N   0  0  0  0  0  0  0  0  0  0  0  0
   57.4410   28.1970   44.9560 C   0  0  0  0  0  0  0  0  0  0  0  0
   57.0180   26.9710   45.0820 N   0  0  0  0  0  0  0  0  0  0  0  0
   56.7680   26.2560   46.3020 C   0  0  0  0  0  0  0  0  0  0  0  0
   55.6710   25.6470   46.4280 O   0  0  0  0  0  0  0  0  0  0  0  0
   57.8360   26.0460   47.3460 C   0  0  0  0  0  0  0  0  0  0  0  0
   58.6050   27.2720   47.5530 N   0  0  0  0  0  0  0  0  0  0  0  0
   59.7130   27.3430   48.4670 C   0  0  0  0  0  0  0  0  0  0  0  0
   60.1100   26.2950   49.0470 O   0  0  0  0  0  0  0  0  0  0  0  0
   60.4140   28.6250   48.7250 C   0  0  0  0  0  0  0  0  0  0  0  0
   60.6220   29.5360   47.6740 C   0  0  0  0  0  0  0  0  0  0  0  0
   61.2790   30.7470   47.9050 C   0  0  0  0  0  0  0  0  0  0  0  0
   61.7500   31.0690   49.1820 C   0  0  0  0  0  0  0  0  0  0  0  0
   62.4130   32.3250   49.3740 N   0  0  0  0  0  0  0  0  0  0  0  0
   62.4100   33.6400   48.2440 S   0  0  0  0  0  0  0  0  0  0  0  0
   63.4970   33.4210   47.2300 O   0  0  0  0  0  0  0  0  0  0  0  0
   62.6850   34.9210   48.9800 O   0  0  0  0  0  0  0  0  0  0  0  0
   60.8360   33.7560   47.4650 C   0  0  0  0  0  0  0  0  0  0  0  0
   60.7320   34.0980   46.1090 C   0  0  0  0  0  0  0  0  0  0  0  0
   59.4760   34.1840   45.5000 C   0  0  0  0  0  0  0  0  0  0  0  0
   58.3190   33.9330   46.2440 C   0  0  0  0  0  0  0  0  0  0  0  0
   58.4170   33.5940   47.5980 C   0  0  0  0  0  0  0  0  0  0  0  0
   59.6720   33.5070   48.2070 C   0  0  0  0  0  0  0  0  0  0  0  0
   61.5610   30.1540   50.2330 C   0  0  0  0  0  0  0  0  0  0  0  0
   60.9020   28.9410   50.0050 C   0  0  0  0  0  0  0  0  0  0  0  0
   56.5090   29.2430   44.8720 C   0  0  0  0  0  0  0  0  0  0  0  0
   55.1430   28.9810   44.8880 O   0  0  0  0  0  0  0  0  0  0  0  0
   56.9640   30.5600   44.7710 C   0  0  0  0  0  0  0  0  0  0  0  0
   58.3340   30.8250   44.7630 C   0  0  0  0  0  0  0  0  0  0  0  0
  1  2  1  0
  2  3  1  0
  3  4  2  0
  4  5  1  0
  5  6  2  0
  5  7  1  0
  7  8  1  0
  8  9  1  0
  9 10  2  0
  9 11  1  0
 11 12  2  0
 12 13  1  0
 13 14  2  0
 14 15  1  0
 15 16  1  0
 16 17  2  0
 16 18  2  0
 16 19  1  0
 19 20  2  0
 20 21  1  0
 21 22  2  0
 22 23  1  0
 23 24  2  0
 14 25  1  0
 25 26  2  0
  3 27  1  0
 27 28  1  0
 27 29  2  0
 29 30  1  0
 30  1  2  0
 26 11  1  0
 24 19  1  0
M  CHG  3   2  -1  15  -1  28  -1
M  END
>  <UniqueID>  (2627) 
55

>  <SMILES>  (2627) 
O=C(CNC(=O)c1ccc([N-]S(=O)(=O)c2ccccc2)cc1)/N=c1\[n-]cccc1[O-]

>  <Energy>  (2627) 
59.11739467865154

>  <Genealogy>  (2627) 
O=C(CNC(=O)c1ccc([N-]S(=O)(=O)c2ccccc2)cc1)N=c1[n-]cccc1[O-] (protonated)
O=C(CNC(=O)c1ccc([N-]S(=O)(=O)c2ccccc2)cc1)/N=c1\[n-]cccc1[O-] (cis-trans isomerization)
O=C(CNC(=O)c1ccc([N-]S(=O)(=O)c2ccccc2)cc1)/N=c1\[n-]cccc1[O-] (3D coordinates assigned)
O=C(CNC(=O)c1ccc([N-]S(=O)(=O)c2ccccc2)cc1)/N=c1\[n-]cccc1[O-] (optimized conformer: 59.11739467865154 kcal/mol)

>  <smiles>  (2627) 
O=C(CNC(=O)c1ccc(NS(=O)(=O)c2ccccc2)cc1)N=c1[nH]cccc1O

>  <score_type>  (2627) 
oracle

>  <origin>  (2627) 
adg

>  <m_score__min__energy>  (2627) 
-14.880000000000001

>  <m_primary>  (2627) 
energy

$$$$
57:0
     RDKit          3D

 30 33  0  0  0  0  0  0  0  0999 V2000
   54.1650   28.2020   53.3250 C   0  0  0  0  0  0  0  0  0  0  0  0
   54.5680   29.3990   52.8670 C   0  0  0  0  0  0  0  0  0  0  0  0
   53.7510   30.3900   52.3140 C   0  0  0  0  0  0  0  0  0  0  0  0
   52.4120   30.3600   52.1640 C   0  0  0  0  0  0  0  0  0  0  0  0
   51.7060   30.8060   50.9480 C   0  0  0  0  0  0  0  0  0  0  0  0
   51.6580   30.0830   49.8160 N   0  0  0  0  0  0  0  0  0  0  0  0
   50.9940   30.8870   48.9580 C   0  0  0  0  0  0  0  0  0  0  0  0
   50.7340   30.5480   47.7760 O   0  0  0  0  0  0  0  0  0  0  0  0
   50.6380   32.0870   49.4660 N   0  0  0  0  0  0  0  0  0  0  0  0
   51.1070   32.0270   50.7220 C   0  0  0  0  0  0  0  0  0  0  0  0
   51.0280   33.0820   51.6240 O   0  0  0  0  0  0  0  0  0  0  0  0
   54.5910   31.4440   51.9850 C   0  0  0  0  0  0  0  0  0  0  0  0
   55.8720   31.0520   52.3160 C   0  0  0  0  0  0  0  0  0  0  0  0
   57.0680   31.8920   52.1010 C   0  0  0  0  0  0  0  0  0  0  0  0
   56.9970   33.1220   52.3690 O   0  0  0  0  0  0  0  0  0  0  0  0
   58.2820   31.3510   51.5460 N   0  0  0  0  0  0  0  0  0  0  0  0
   58.2260   30.3790   50.4410 C   0  0  0  0  0  0  0  0  0  0  0  0
   59.3270   29.3160   50.5970 C   0  0  0  0  0  0  0  0  0  0  0  0
   60.5900   29.9050   51.0710 N   0  0  0  0  0  0  0  0  0  0  0  0
   61.6430   29.0420   51.5460 C   0  0  0  0  0  0  0  0  0  0  0  0
   61.3430   27.7610   52.0450 C   0  0  0  0  0  0  0  0  0  0  0  0
   62.3650   26.9230   52.5000 C   0  0  0  0  0  0  0  0  0  0  0  0
   63.6930   27.3530   52.4610 C   0  0  0  0  0  0  0  0  0  0  0  0
   64.0030   28.6220   51.9620 C   0  0  0  0  0  0  0  0  0  0  0  0
   65.2930   29.0380   51.9240 F   0  0  0  0  0  0  0  0  0  0  0  0
   62.9830   29.4610   51.5000 C   0  0  0  0  0  0  0  0  0  0  0  0
   60.7290   31.3650   51.1260 C   0  0  0  0  0  0  0  0  0  0  0  0
   59.5680   31.9600   51.9250 C   0  0  0  0  0  0  0  0  0  0  0  0
   55.8600   29.8140   52.8680 N   0  0  0  0  0  0  0  0  0  0  0  0
   57.0010   29.0930   53.4420 C   0  0  0  0  0  0  0  0  0  0  0  0
  1  2  2  0
  2  3  1  0
  3  4  2  0
  4  5  1  0
  5  6  1  0
  6  7  1  0
  7  8  2  0
  7  9  1  0
  9 10  1  0
 10 11  1  0
  3 12  1  0
 12 13  2  0
 13 14  1  0
 14 15  2  0
 14 16  1  0
 16 17  1  0
 17 18  1  0
 18 19  1  0
 19 20  1  0
 20 21  2  0
 21 22  1  0
 22 23  2  0
 23 24  1  0
 24 25  1  0
 24 26  2  0
 19 27  1  0
 27 28  1  0
 13 29  1  0
 29 30  1  0
 29  2  1  0
 10  5  2  0
 28 16  1  0
 26 20  1  0
M  CHG  3   6  -1   9  -1  11  -1
M  END
>  <UniqueID>  (2628) 
57

>  <SMILES>  (2628) 
C=c1/c(=C/c2[n-]c(=O)[n-]c2[O-])cc(C(=O)N2CCN(c3cccc(F)c3)CC2)n1C

>  <Energy>  (2628) 
127.77253179605408

>  <Genealogy>  (2628) 
C=c1c(=Cc2[n-]c(=O)[n-]c2[O-])cc(C(=O)N2CCN(c3cccc(F)c3)CC2)n1C (protonated)
C=c1/c(=C/c2[n-]c(=O)[n-]c2[O-])cc(C(=O)N2CCN(c3cccc(F)c3)CC2)n1C (cis-trans isomerization)
C=c1/c(=C/c2[n-]c(=O)[n-]c2[O-])cc(C(=O)N2CCN(c3cccc(F)c3)CC2)n1C (3D coordinates assigned)
C=c1/c(=C/c2[n-]c(=O)[n-]c2[O-])cc(C(=O)N2CCN(c3cccc(F)c3)CC2)n1C (nonaromatic ring conformer: 127.77253179605408 kcal/mol)

>  <smiles>  (2628) 
C=c1c(=Cc2[nH]c(=O)[nH]c2O)cc(C(=O)N2CCN(c3cccc(F)c3)CC2)n1C

>  <score_type>  (2628) 
oracle

>  <origin>  (2628) 
adg

>  <m_score__min__energy>  (2628) 
-17.399999999999999

>  <m_primary>  (2628) 
energy

$$$$
63:0
     RDKit          3D

 30 32  0  0  0  0  0  0  0  0999 V2000
   60.5670   26.0580   46.5050 O   0  0  0  0  0  0  0  0  0  0  0  0
   59.5030   26.6130   46.8910 C   0  0  0  0  0  0  0  0  0  0  0  0
   58.1980   26.2200   46.2670 C   0  0  0  0  0  0  0  0  0  0  0  0
   57.5030   27.4200   45.6990 C   0  0  0  0  0  0  0  0  0  0  0  0
   58.1040   28.5630   45.2170 C   0  0  0  0  0  0  0  0  0  0  0  0
   57.0670   29.4050   44.8430 C   0  0  0  0  0  0  0  0  0  0  0  0
   57.2380   30.7390   44.2380 C   0  0  0  0  0  0  0  0  0  0  0  0
   56.8280   30.9410   43.0650 O   0  0  0  0  0  0  0  0  0  0  0  0
   57.8400   31.8180   44.9740 N   0  0  0  0  0  0  0  0  0  0  0  0
   57.2510   33.1610   44.8770 C   0  0  0  0  0  0  0  0  0  0  0  0
   58.0000   34.1730   45.7560 C   0  0  0  0  0  0  0  0  0  0  0  0
   58.2940   33.5670   47.1360 C   0  0  0  0  0  0  0  0  0  0  0  0
   59.1100   32.2570   47.0510 C   0  0  0  0  0  0  0  0  0  0  0  0
   59.1360   31.6380   45.6440 C   0  0  0  0  0  0  0  0  0  0  0  0
   55.8640   28.8350   45.0710 N   0  0  0  0  0  0  0  0  0  0  0  0
   56.1440   27.6290   45.6010 C   0  0  0  0  0  0  0  0  0  0  0  0
   55.1670   26.7200   45.9920 O   0  0  0  0  0  0  0  0  0  0  0  0
   59.5400   27.6060   47.9290 N   0  0  0  0  0  0  0  0  0  0  0  0
   60.7830   28.0230   48.5760 C   0  0  0  0  0  0  0  0  0  0  0  0
   60.5600   28.2680   50.0700 C   0  0  0  0  0  0  0  0  0  0  0  0
   59.2470   28.8660   50.3000 N   0  0  0  0  0  0  0  0  0  0  0  0
   58.7910   30.1110   49.7510 C   0  0  0  0  0  0  0  0  0  0  0  0
   58.4350   30.1470   48.5440 O   0  0  0  0  0  0  0  0  0  0  0  0
   58.7310   31.3500   50.5540 C   0  0  0  0  0  0  0  0  0  0  0  0
   59.6850   32.3630   50.3660 C   0  0  0  0  0  0  0  0  0  0  0  0
   59.6100   33.5480   51.1040 C   0  0  0  0  0  0  0  0  0  0  0  0
   58.5760   33.7360   52.0250 C   0  0  0  0  0  0  0  0  0  0  0  0
   57.6120   32.7420   52.2060 C   0  0  0  0  0  0  0  0  0  0  0  0
   57.6820   31.5530   51.4700 C   0  0  0  0  0  0  0  0  0  0  0  0
   56.7380   30.5970   51.6640 F   0  0  0  0  0  0  0  0  0  0  0  0
  1  2  2  0
  2  3  1  0
  3  4  1  0
  4  5  1  0
  5  6  2  0
  6  7  1  0
  7  8  2  0
  7  9  1  0
  9 10  1  0
 10 11  1  0
 11 12  1  0
 12 13  1  0
 13 14  1  0
  6 15  1  0
 15 16  1  0
 16 17  1  0
  2 18  1  0
 18 19  1  0
 19 20  1  0
 20 21  1  0
 21 22  1  0
 22 23  2  0
 22 24  1  0
 24 25  2  0
 25 26  1  0
 26 27  2  0
 27 28  1  0
 28 29  2  0
 29 30  1  0
 16  4  2  0
 29 24  1  0
 14  9  1  0
M  CHG  3  15  -1  17  -1  21  -1
M  END
>  <UniqueID>  (2629) 
62

>  <SMILES>  (2629) 
O=C(Cc1cc(C(=O)N2CCCCC2)[n-]c1[O-])NCC[N-]C(=O)c1ccccc1F

>  <Energy>  (2629) 
80.63557729789929

>  <Genealogy>  (2629) 
O=C(Cc1cc(C(=O)N2CCCCC2)[n-]c1[O-])NCC[N-]C(=O)c1ccccc1F (protonated)
O=C(Cc1cc(C(=O)N2CCCCC2)[n-]c1[O-])NCC[N-]C(=O)c1ccccc1F (3D coordinates assigned)
O=C(Cc1cc(C(=O)N2CCCCC2)[n-]c1[O-])NCC[N-]C(=O)c1ccccc1F (nonaromatic ring conformer: 80.63557729789929 kcal/mol)

>  <smiles>  (2629) 
O=C(Cc1cc(C(=O)N2CCCCC2)[nH]c1O)NCCNC(=O)c1ccccc1F

>  <score_type>  (2629) 
oracle

>  <origin>  (2629) 
adg

>  <m_score__min__energy>  (2629) 
-14.81

>  <m_primary>  (2629) 
energy

$$$$
66:0
     RDKit          3D

 28 30  0  0  0  0  0  0  0  0999 V2000
   58.7230   30.2390   44.1210 C   0  0  0  0  0  0  0  0  0  0  0  0
   58.5790   30.2920   45.4640 C   0  0  0  0  0  0  0  0  0  0  0  0
   58.5100   31.5590   46.1390 C   0  0  0  0  0  0  0  0  0  0  0  0
   58.2960   32.8850   45.3830 C   0  0  0  0  0  0  0  0  0  0  0  0
   59.4580   33.8890   45.4870 C   0  0  0  0  0  0  0  0  0  0  0  0
   56.9920   33.5460   45.8440 C   0  0  0  0  0  0  0  0  0  0  0  0
   58.5980   31.5780   47.5480 C   0  0  0  0  0  0  0  0  0  0  0  0
   58.8320   30.4170   48.2840 C   0  0  0  0  0  0  0  0  0  0  0  0
   59.0110   30.4900   49.7540 C   0  0  0  0  0  0  0  0  0  0  0  0
   58.2480   29.8210   50.5020 O   0  0  0  0  0  0  0  0  0  0  0  0
   60.0330   31.3150   50.3460 N   0  0  0  0  0  0  0  0  0  0  0  0
   61.4470   30.9500   50.2360 C   0  0  0  0  0  0  0  0  0  0  0  0
   62.2500   32.1060   49.7080 C   0  0  0  0  0  0  0  0  0  0  0  0
   63.4050   31.8850   49.2500 O   0  0  0  0  0  0  0  0  0  0  0  0
   61.7470   33.4570   49.7890 N   0  0  0  0  0  0  0  0  0  0  0  0
   62.6120   34.5700   49.3890 C   0  0  0  0  0  0  0  0  0  0  0  0
   60.3270   33.7180   50.0690 C   0  0  0  0  0  0  0  0  0  0  0  0
   59.7120   32.6180   50.9320 C   0  0  0  0  0  0  0  0  0  0  0  0
   58.8760   29.1880   47.6260 C   0  0  0  0  0  0  0  0  0  0  0  0
   58.6260   29.0870   46.2470 C   0  0  0  0  0  0  0  0  0  0  0  0
   58.4110   27.8330   45.7670 C   0  0  0  0  0  0  0  0  0  0  0  0
   57.1990   27.0190   45.9910 C   0  0  0  0  0  0  0  0  0  0  0  0
   57.1930   25.7480   46.4340 N   0  0  0  0  0  0  0  0  0  0  0  0
   55.8900   25.4010   46.3720 C   0  0  0  0  0  0  0  0  0  0  0  0
   55.4730   24.2660   46.7220 O   0  0  0  0  0  0  0  0  0  0  0  0
   55.0700   26.3620   45.8960 N   0  0  0  0  0  0  0  0  0  0  0  0
   55.9170   27.3740   45.6480 C   0  0  0  0  0  0  0  0  0  0  0  0
   55.5250   28.5970   45.1200 O   0  0  0  0  0  0  0  0  0  0  0  0
  1  2  2  0
  2  3  1  0
  3  4  1  0
  4  5  1  0
  4  6  1  0
  3  7  2  0
  7  8  1  0
  8  9  1  0
  9 10  2  0
  9 11  1  0
 11 12  1  0
 12 13  1  0
 13 14  2  0
 13 15  1  0
 15 16  1  0
 15 17  1  0
 17 18  1  0
  8 19  2  0
 19 20  1  0
 20 21  2  0
 21 22  1  0
 22 23  1  0
 23 24  1  0
 24 25  2  0
 24 26  1  0
 26 27  1  0
 27 28  1  0
 20  2  1  0
 27 22  2  0
 18 11  1  0
M  CHG  3  23  -1  26  -1  28  -1
M  END
>  <UniqueID>  (2630) 
65

>  <SMILES>  (2630) 
C=c1c(C(C)C)cc(C(=O)N2CCN(C)C(=O)C2)c/c1=C/c1[n-]c(=O)[n-]c1[O-]

>  <Energy>  (2630) 
109.80467300321465

>  <Genealogy>  (2630) 
C=c1c(C(C)C)cc(C(=O)N2CCN(C)C(=O)C2)cc1=Cc1[n-]c(=O)[n-]c1[O-] (protonated)
C=c1c(C(C)C)cc(C(=O)N2CCN(C)C(=O)C2)c/c1=C/c1[n-]c(=O)[n-]c1[O-] (cis-trans isomerization)
C=c1c(C(C)C)cc(C(=O)N2CCN(C)C(=O)C2)c/c1=C/c1[n-]c(=O)[n-]c1[O-] (3D coordinates assigned)
C=c1c(C(C)C)cc(C(=O)N2CCN(C)C(=O)C2)c/c1=C/c1[n-]c(=O)[n-]c1[O-] (nonaromatic ring conformer: 109.80467300321465 kcal/mol)

>  <smiles>  (2630) 
C=c1c(C(C)C)cc(C(=O)N2CCN(C)C(=O)C2)cc1=Cc1[nH]c(=O)[nH]c1O

>  <score_type>  (2630) 
oracle

>  <origin>  (2630) 
adg

>  <m_score__min__energy>  (2630) 
-15.85

>  <m_primary>  (2630) 
energy

$$$$
68:0
     RDKit          3D

 27 29  0  0  0  0  0  0  0  0999 V2000
   59.5160   32.7040   50.4850 C   0  0  0  0  0  0  0  0  0  0  0  0
   59.0990   32.8660   49.0190 C   0  0  0  0  0  0  0  0  0  0  0  0
   59.6640   31.7140   48.1490 C   0  0  0  0  0  0  0  0  0  0  0  0
   59.9630   32.1290   46.6970 C   0  0  0  0  0  0  0  0  0  0  0  0
   59.0760   33.2160   46.2580 N   0  0  0  0  0  0  0  0  0  0  0  0
   58.4980   33.1970   44.9410 C   0  0  0  0  0  0  0  0  0  0  0  0
   58.5590   34.2320   44.2230 O   0  0  0  0  0  0  0  0  0  0  0  0
   57.8160   31.9900   44.4180 C   0  0  0  0  0  0  0  0  0  0  0  0
   57.3940   31.9340   43.0790 C   0  0  0  0  0  0  0  0  0  0  0  0
   56.7680   30.7870   42.5850 C   0  0  0  0  0  0  0  0  0  0  0  0
   56.5510   29.6900   43.4210 C   0  0  0  0  0  0  0  0  0  0  0  0
   56.9530   29.7330   44.7620 C   0  0  0  0  0  0  0  0  0  0  0  0
   56.7120   28.5880   45.5930 N   0  0  0  0  0  0  0  0  0  0  0  0
   57.6690   27.5790   45.9430 C   0  0  0  0  0  0  0  0  0  0  0  0
   58.8940   27.8330   45.8000 O   0  0  0  0  0  0  0  0  0  0  0  0
   57.2580   26.2350   46.4200 C   0  0  0  0  0  0  0  0  0  0  0  0
   55.9080   25.8360   46.4110 C   0  0  0  0  0  0  0  0  0  0  0  0
   54.9210   26.6820   45.9150 O   0  0  0  0  0  0  0  0  0  0  0  0
   55.5620   24.6060   46.8740 N   0  0  0  0  0  0  0  0  0  0  0  0
   56.4980   23.7400   47.3370 C   0  0  0  0  0  0  0  0  0  0  0  0
   56.1510   22.6080   47.7610 O   0  0  0  0  0  0  0  0  0  0  0  0
   57.8080   24.0920   47.3390 N   0  0  0  0  0  0  0  0  0  0  0  0
   58.2090   25.3100   46.8920 C   0  0  0  0  0  0  0  0  0  0  0  0
   59.4340   25.6030   46.9210 O   0  0  0  0  0  0  0  0  0  0  0  0
   57.6130   30.8750   45.2480 C   0  0  0  0  0  0  0  0  0  0  0  0
   58.9750   34.4430   47.0600 C   0  0  0  0  0  0  0  0  0  0  0  0
   59.5280   34.2410   48.4790 C   0  0  0  0  0  0  0  0  0  0  0  0
  1  2  1  0
  2  3  1  0
  3  4  1  0
  4  5  1  0
  5  6  1  0
  6  7  2  0
  6  8  1  0
  8  9  2  0
  9 10  1  0
 10 11  2  0
 11 12  1  0
 12 13  1  0
 13 14  1  0
 14 15  2  0
 14 16  1  0
 16 17  2  0
 17 18  1  0
 17 19  1  0
 19 20  1  0
 20 21  2  0
 20 22  1  0
 22 23  1  0
 23 24  2  0
 12 25  2  0
  5 26  1  0
 26 27  1  0
 27  2  1  0
 25  8  1  0
 23 16  1  0
M  CHG  3  13  -1  19  -1  22  -1
M  END
>  <UniqueID>  (2631) 
67

>  <SMILES>  (2631) 
CC1CCN(C(=O)c2cccc([N-]C(=O)c3c(O)[n-]c(=O)[n-]c3=O)c2)CC1

>  <Energy>  (2631) 
59.25321280249396

>  <Genealogy>  (2631) 
CC1CCN(C(=O)c2cccc([N-]C(=O)c3c(O)[n-]c(=O)[n-]c3=O)c2)CC1 (protonated)
CC1CCN(C(=O)c2cccc([N-]C(=O)c3c(O)[n-]c(=O)[n-]c3=O)c2)CC1 (3D coordinates assigned)
CC1CCN(C(=O)c2cccc([N-]C(=O)c3c(O)[n-]c(=O)[n-]c3=O)c2)CC1 (nonaromatic ring conformer: 59.25321280249396 kcal/mol)

>  <smiles>  (2631) 
CC1CCN(C(=O)c2cccc(NC(=O)c3c(O)[nH]c(=O)[nH]c3=O)c2)CC1

>  <score_type>  (2631) 
oracle

>  <origin>  (2631) 
adg

>  <m_score__min__energy>  (2631) 
-14.65

>  <m_primary>  (2631) 
energy

$$$$
79:0
     RDKit          3D

 33 37  0  0  0  0  0  0  0  0999 V2000
   58.1560   30.1820   44.2340 C   0  0  0  0  0  0  0  0  0  0  0  0
   58.1940   29.8570   45.5380 C   0  0  0  0  0  0  0  0  0  0  0  0
   58.1600   28.5540   46.0550 C   0  0  0  0  0  0  0  0  0  0  0  0
   57.8130   27.3800   45.4900 C   0  0  0  0  0  0  0  0  0  0  0  0
   57.2790   26.2030   46.1970 C   0  0  0  0  0  0  0  0  0  0  0  0
   58.0130   25.1600   46.6260 N   0  0  0  0  0  0  0  0  0  0  0  0
   57.0860   24.2890   47.0800 C   0  0  0  0  0  0  0  0  0  0  0  0
   57.3890   23.1790   47.5890 O   0  0  0  0  0  0  0  0  0  0  0  0
   55.8080   24.6990   46.9410 N   0  0  0  0  0  0  0  0  0  0  0  0
   55.9490   25.9060   46.3680 C   0  0  0  0  0  0  0  0  0  0  0  0
   54.8820   26.7160   46.0000 O   0  0  0  0  0  0  0  0  0  0  0  0
   58.5200   28.6600   47.3790 C   0  0  0  0  0  0  0  0  0  0  0  0
   58.6820   29.9990   47.6520 C   0  0  0  0  0  0  0  0  0  0  0  0
   59.0330   30.4670   49.0080 C   0  0  0  0  0  0  0  0  0  0  0  0
   58.3320   30.0620   49.9760 O   0  0  0  0  0  0  0  0  0  0  0  0
   60.2370   31.2400   49.2340 N   0  0  0  0  0  0  0  0  0  0  0  0
   59.9130   32.6820   49.2990 C   0  0  0  0  0  0  0  0  0  0  0  0
   61.1830   33.5580   49.2520 C   0  0  0  0  0  0  0  0  0  0  0  0
   62.3850   32.7620   49.5920 N   0  0  0  0  0  0  0  0  0  0  0  0
   63.5590   33.6600   49.7990 C   0  0  0  0  0  0  0  0  0  0  0  0
   63.7930   33.8480   51.3030 C   0  0  0  0  0  0  0  0  0  0  0  0
   64.7610   32.7470   51.7310 C   0  0  0  0  0  0  0  0  0  0  0  0
   65.3760   32.1790   50.4560 C   0  0  0  0  0  0  0  0  0  0  0  0
   64.9100   33.0890   49.3340 C   0  0  0  0  0  0  0  0  0  0  0  0
   62.5840   31.7130   48.5600 C   0  0  0  0  0  0  0  0  0  0  0  0
   61.2640   30.9960   48.1980 C   0  0  0  0  0  0  0  0  0  0  0  0
   58.4460   30.7540   46.5380 N   0  0  0  0  0  0  0  0  0  0  0  0
   58.4440   32.2310   46.3730 C   0  0  0  0  0  0  0  0  0  0  0  0
   57.3430   32.6920   45.3970 C   0  0  0  0  0  0  0  0  0  0  0  0
   57.2820   34.2250   45.3320 C   0  0  0  0  0  0  0  0  0  0  0  0
   58.6470   34.8250   44.9690 C   0  0  0  0  0  0  0  0  0  0  0  0
   59.7330   34.3620   45.9500 C   0  0  0  0  0  0  0  0  0  0  0  0
   59.8120   32.8300   45.9850 C   0  0  0  0  0  0  0  0  0  0  0  0
  1  2  2  0
  2  3  1  0
  3  4  2  0
  4  5  1  0
  5  6  1  0
  6  7  1  0
  7  8  2  0
  7  9  1  0
  9 10  1  0
 10 11  1  0
  3 12  1  0
 12 13  2  0
 13 14  1  0
 14 15  2  0
 14 16  1  0
 16 17  1  0
 17 18  1  0
 18 19  1  0
 19 20  1  0
 20 21  1  0
 21 22  1  0
 22 23  1  0
 23 24  1  0
 19 25  1  0
 25 26  1  0
 13 27  1  0
 27 28  1  0
 28 29  1  0
 29 30  1  0
 30 31  1  0
 31 32  1  0
 32 33  1  0
 27  2  1  0
 33 28  1  0
 10  5  2  0
 26 16  1  0
 24 20  1  0
M  CHG  4   6  -1   9  -1  11  -1  16   1
M  END
>  <UniqueID>  (2632) 
78

>  <SMILES>  (2632) 
C=c1/c(=C\c2[n-]c(=O)[n-]c2[O-])cc(C(=O)[NH+]2CCN(C3CCCC3)CC2)n1C1CCCCC1

>  <Energy>  (2632) 
162.43696216811335

>  <Genealogy>  (2632) 
C=c1c(=Cc2[n-]c(=O)[n-]c2[O-])cc(C(=O)[NH+]2CCN(C3CCCC3)CC2)n1C1CCCCC1 (protonated)
C=c1/c(=C\c2[n-]c(=O)[n-]c2[O-])cc(C(=O)[NH+]2CCN(C3CCCC3)CC2)n1C1CCCCC1 (cis-trans isomerization)
C=c1/c(=C\c2[n-]c(=O)[n-]c2[O-])cc(C(=O)[NH+]2CCN(C3CCCC3)CC2)n1C1CCCCC1 (3D coordinates assigned)
C=c1/c(=C\c2[n-]c(=O)[n-]c2[O-])cc(C(=O)[NH+]2CCN(C3CCCC3)CC2)n1C1CCCCC1 (nonaromatic ring conformer: 162.43696216811335 kcal/mol)

>  <smiles>  (2632) 
C=c1c(=Cc2[nH]c(=O)[nH]c2O)cc(C(=O)N2CCN(C3CCCC3)CC2)n1C1CCCCC1

>  <score_type>  (2632) 
oracle

>  <origin>  (2632) 
adg

>  <m_score__min__energy>  (2632) 
-17.129999999999999

>  <m_primary>  (2632) 
energy

$$$$
82:0
     RDKit          3D

 26 29  0  0  0  0  0  0  0  0999 V2000
   59.5260   27.6080   47.5170 C   0  0  0  0  0  0  0  0  0  0  0  0
   58.9670   28.5620   46.7630 C   0  0  0  0  0  0  0  0  0  0  0  0
   59.1810   29.8720   46.9880 N   0  0  0  0  0  0  0  0  0  0  0  0
   58.4840   30.5540   46.0620 C   0  0  0  0  0  0  0  0  0  0  0  0
   58.4540   32.0520   45.9990 C   0  0  0  0  0  0  0  0  0  0  0  0
   59.4960   32.6260   46.9190 C   0  0  0  0  0  0  0  0  0  0  0  0
   59.1520   33.6520   47.8120 C   0  0  0  0  0  0  0  0  0  0  0  0
   60.1300   34.2110   48.6340 C   0  0  0  0  0  0  0  0  0  0  0  0
   61.4490   33.7530   48.5570 C   0  0  0  0  0  0  0  0  0  0  0  0
   62.4540   34.3000   49.3700 C   0  0  0  0  0  0  0  0  0  0  0  0
   63.7660   33.8280   49.2730 C   0  0  0  0  0  0  0  0  0  0  0  0
   64.0830   32.8120   48.3660 C   0  0  0  0  0  0  0  0  0  0  0  0
   63.0890   32.2610   47.5520 C   0  0  0  0  0  0  0  0  0  0  0  0
   61.7660   32.7250   47.6410 C   0  0  0  0  0  0  0  0  0  0  0  0
   60.7900   32.1930   46.8480 N   0  0  0  0  0  0  0  0  0  0  0  0
   57.7880   29.6820   45.2370 C   0  0  0  0  0  0  0  0  0  0  0  0
   56.8680   30.2280   43.6410 Br  0  0  0  0  0  0  0  0  0  0  0  0
   58.0900   28.3910   45.6860 C   0  0  0  0  0  0  0  0  0  0  0  0
   57.6740   27.2080   45.1840 C   0  0  0  0  0  0  0  0  0  0  0  0
   57.1640   26.0820   45.9800 C   0  0  0  0  0  0  0  0  0  0  0  0
   57.8960   25.0180   46.3560 N   0  0  0  0  0  0  0  0  0  0  0  0
   56.9830   24.1940   46.9170 C   0  0  0  0  0  0  0  0  0  0  0  0
   57.2910   23.0790   47.4120 O   0  0  0  0  0  0  0  0  0  0  0  0
   55.7140   24.6540   46.8930 N   0  0  0  0  0  0  0  0  0  0  0  0
   55.8450   25.8430   46.2830 C   0  0  0  0  0  0  0  0  0  0  0  0
   54.7810   26.6900   46.0010 O   0  0  0  0  0  0  0  0  0  0  0  0
  1  2  2  0
  2  3  1  0
  3  4  1  0
  4  5  1  0
  5  6  1  0
  6  7  2  0
  7  8  1  0
  8  9  2  0
  9 10  1  0
 10 11  2  0
 11 12  1  0
 12 13  2  0
 13 14  1  0
 14 15  2  0
  4 16  2  0
 16 17  1  0
 16 18  1  0
 18 19  2  3
 19 20  1  0
 20 21  1  0
 21 22  1  0
 22 23  2  0
 22 24  1  0
 24 25  1  0
 25 26  1  0
 18  2  1  0
 25 20  2  0
 15  6  1  0
 14  9  1  0
M  CHG  4  15   1  21  -1  24  -1  26  -1
M  END
>  <UniqueID>  (2633) 
80

>  <SMILES>  (2633) 
C=c1[nH]c(Cc2ccc3ccccc3[nH+]2)c(Br)c1=Cc1[n-]c(=O)[n-]c1[O-]

>  <Energy>  (2633) 
111.87742585071496

>  <Genealogy>  (2633) 
C=c1[nH]c(Cc2ccc3ccccc3[nH+]2)c(Br)c1=Cc1[n-]c(=O)[n-]c1[O-] (protonated)
C=c1[nH]c(Cc2ccc3ccccc3[nH+]2)c(Br)c1=Cc1[n-]c(=O)[n-]c1[O-] (3D coordinates assigned)
C=c1[nH]c(Cc2ccc3ccccc3[nH+]2)c(Br)c1=Cc1[n-]c(=O)[n-]c1[O-] (optimized conformer: 111.87742585071496 kcal/mol)

>  <smiles>  (2633) 
C=c1[nH]c(Cc2ccc3ccccc3n2)c(Br)c1=Cc1[nH]c(=O)[nH]c1O

>  <score_type>  (2633) 
oracle

>  <origin>  (2633) 
adg

>  <m_score__min__energy>  (2633) 
-15.18

>  <m_primary>  (2633) 
energy

$$$$
0:0
     RDKit          3D

 27 29  0  0  0  0  0  0  0  0999 V2000
   59.8650   25.2100   46.7440 O   0  0  0  0  0  0  0  0  0  0  0  0
   59.7860   26.4680   46.7870 C   0  0  0  0  0  0  0  0  0  0  0  0
   60.9200   27.2430   47.4110 C   0  0  0  0  0  0  0  0  0  0  0  0
   60.4180   28.4850   48.0280 N   0  0  0  0  0  0  0  0  0  0  0  0
   59.6220   28.3930   49.1360 C   0  0  0  0  0  0  0  0  0  0  0  0
   59.0520   29.5330   49.6990 C   0  0  0  0  0  0  0  0  0  0  0  0
   59.3040   30.7700   49.1040 C   0  0  0  0  0  0  0  0  0  0  0  0
   58.6670   32.0040   49.6090 C   0  0  0  0  0  0  0  0  0  0  0  0
   57.9110   31.9500   50.6150 O   0  0  0  0  0  0  0  0  0  0  0  0
   58.9300   33.2790   49.0070 N   0  0  0  0  0  0  0  0  0  0  0  0
   58.7640   33.5990   47.6170 C   0  0  0  0  0  0  0  0  0  0  0  0
   57.7720   32.9820   46.8310 C   0  0  0  0  0  0  0  0  0  0  0  0
   57.6290   33.3230   45.4820 C   0  0  0  0  0  0  0  0  0  0  0  0
   58.4620   34.2900   44.9130 C   0  0  0  0  0  0  0  0  0  0  0  0
   59.4310   34.9250   45.6950 C   0  0  0  0  0  0  0  0  0  0  0  0
   59.5750   34.5870   47.0450 C   0  0  0  0  0  0  0  0  0  0  0  0
   60.1380   30.8340   48.0360 N   0  0  0  0  0  0  0  0  0  0  0  0
   60.7030   29.7200   47.5030 C   0  0  0  0  0  0  0  0  0  0  0  0
   61.4830   29.8450   46.5210 O   0  0  0  0  0  0  0  0  0  0  0  0
   58.5630   27.1380   46.2810 C   0  0  0  0  0  0  0  0  0  0  0  0
   58.6610   28.3940   45.6550 C   0  0  0  0  0  0  0  0  0  0  0  0
   57.5230   29.0180   45.1370 C   0  0  0  0  0  0  0  0  0  0  0  0
   56.2730   28.4010   45.2440 C   0  0  0  0  0  0  0  0  0  0  0  0
   55.1470   29.0250   44.7190 O   0  0  0  0  0  0  0  0  0  0  0  0
   56.1600   27.1610   45.8800 C   0  0  0  0  0  0  0  0  0  0  0  0
   54.9180   26.5470   45.9980 O   0  0  0  0  0  0  0  0  0  0  0  0
   57.2970   26.5350   46.4010 C   0  0  0  0  0  0  0  0  0  0  0  0
  1  2  2  0
  2  3  1  0
  3  4  1  0
  4  5  1  0
  5  6  2  0
  6  7  1  0
  7  8  1  0
  8  9  2  0
  8 10  1  0
 10 11  1  0
 11 12  2  0
 12 13  1  0
 13 14  2  0
 14 15  1  0
 15 16  2  0
  7 17  2  0
 17 18  1  0
 18 19  2  0
  2 20  1  0
 20 21  2  0
 21 22  1  0
 22 23  2  0
 23 24  1  0
 23 25  1  0
 25 26  1  0
 25 27  2  0
 18  4  1  0
 27 20  1  0
 16 11  1  0
M  CHG  3  10  -1  24  -1  26  -1
M  END
>  <UniqueID>  (2634) 
1

>  <SMILES>  (2634) 
O=C(Cn1ccc(C(=O)[N-]c2ccccc2)nc1=O)c1ccc([O-])c([O-])c1

>  <Energy>  (2634) 
51.40223844728311

>  <Genealogy>  (2634) 
O=C(Cn1ccc(C(=O)[N-]c2ccccc2)nc1=O)c1ccc([O-])c([O-])c1 (protonated)
O=C(Cn1ccc(C(=O)[N-]c2ccccc2)nc1=O)c1ccc([O-])c([O-])c1 (3D coordinates assigned)
O=C(Cn1ccc(C(=O)[N-]c2ccccc2)nc1=O)c1ccc([O-])c([O-])c1 (optimized conformer: 51.40223844728311 kcal/mol)

>  <smiles>  (2634) 
O=C(Cn1ccc(C(=O)Nc2ccccc2)nc1=O)c1ccc(O)c(O)c1

>  <score_type>  (2634) 
oracle

>  <origin>  (2634) 
adg

>  <m_score__min__energy>  (2634) 
-17.789999999999999

>  <m_primary>  (2634) 
energy

$$$$
7:0
     RDKit          3D

 32 35  0  0  0  0  0  0  0  0999 V2000
   55.1300   29.3960   44.8280 O   0  0  0  0  0  0  0  0  0  0  0  0
   56.3850   29.2840   44.8000 C   0  0  0  0  0  0  0  0  0  0  0  0
   57.1510   29.8650   43.6520 C   0  0  0  0  0  0  0  0  0  0  0  0
   58.2000   30.7710   44.1180 N   0  0  0  0  0  0  0  0  0  0  0  0
   58.0780   31.8110   45.1010 C   0  0  0  0  0  0  0  0  0  0  0  0
   56.9440   32.3280   45.2850 O   0  0  0  0  0  0  0  0  0  0  0  0
   59.2070   32.2600   45.9420 C   0  0  0  0  0  0  0  0  0  0  0  0
   59.3330   33.6210   46.2620 C   0  0  0  0  0  0  0  0  0  0  0  0
   60.3870   34.0660   47.0630 C   0  0  0  0  0  0  0  0  0  0  0  0
   61.3370   33.1600   47.5470 C   0  0  0  0  0  0  0  0  0  0  0  0
   62.6480   33.7430   48.5670 S   0  0  0  0  0  0  0  0  0  0  0  0
   62.1550   34.9040   49.3830 O   0  0  0  0  0  0  0  0  0  0  0  0
   63.7940   34.2040   47.7100 O   0  0  0  0  0  0  0  0  0  0  0  0
   63.2000   32.4970   49.6380 N   0  0  0  0  0  0  0  0  0  0  0  0
   62.3530   31.4370   50.1770 C   0  0  0  0  0  0  0  0  0  0  0  0
   63.2800   30.5690   51.0650 C   0  0  0  0  0  0  0  0  0  0  0  0
   64.6100   31.2250   50.9240 C   0  0  0  0  0  0  0  0  0  0  0  0
   65.8270   30.8390   51.4900 C   0  0  0  0  0  0  0  0  0  0  0  0
   66.9720   31.5980   51.1970 C   0  0  0  0  0  0  0  0  0  0  0  0
   66.8840   32.7170   50.3460 C   0  0  0  0  0  0  0  0  0  0  0  0
   65.6480   33.0840   49.7880 C   0  0  0  0  0  0  0  0  0  0  0  0
   64.5230   32.3170   50.1050 C   0  0  0  0  0  0  0  0  0  0  0  0
   61.2330   31.8040   47.2040 C   0  0  0  0  0  0  0  0  0  0  0  0
   60.1860   31.3600   46.3920 C   0  0  0  0  0  0  0  0  0  0  0  0
   57.0790   28.4810   45.7660 N   0  0  0  0  0  0  0  0  0  0  0  0
   57.2020   27.1840   45.8580 C   0  0  0  0  0  0  0  0  0  0  0  0
   58.4650   26.6790   45.9150 N   0  0  0  0  0  0  0  0  0  0  0  0
   58.7230   25.3500   46.0120 C   0  0  0  0  0  0  0  0  0  0  0  0
   57.6710   24.4390   46.0650 C   0  0  0  0  0  0  0  0  0  0  0  0
   56.3610   24.9120   46.0400 C   0  0  0  0  0  0  0  0  0  0  0  0
   56.1070   26.2840   45.9500 C   0  0  0  0  0  0  0  0  0  0  0  0
   54.7860   26.7090   46.0030 O   0  0  0  0  0  0  0  0  0  0  0  0
  1  2  2  0
  2  3  1  0
  3  4  1  0
  4  5  1  0
  5  6  2  0
  5  7  1  0
  7  8  2  0
  8  9  1  0
  9 10  2  0
 10 11  1  0
 11 12  2  0
 11 13  2  0
 11 14  1  0
 14 15  1  0
 15 16  1  0
 16 17  1  0
 17 18  2  0
 18 19  1  0
 19 20  2  0
 20 21  1  0
 21 22  2  0
 10 23  1  0
 23 24  2  0
  2 25  1  0
 25 26  2  3
 26 27  1  0
 27 28  1  0
 28 29  2  0
 29 30  1  0
 30 31  2  0
 31 32  1  0
 24  7  1  0
 31 26  1  0
 22 14  1  0
 22 17  1  0
M  CHG  3   4  -1  27  -1  32  -1
M  END
>  <UniqueID>  (2635) 
8

>  <SMILES>  (2635) 
O=C(C[N-]C(=O)c1ccc(S(=O)(=O)N2CCc3ccccc32)cc1)N=c1[n-]cccc1[O-]

>  <Energy>  (2635) 
79.3788348921819

>  <Genealogy>  (2635) 
O=C(C[N-]C(=O)c1ccc(S(=O)(=O)N2CCc3ccccc32)cc1)N=c1[n-]cccc1[O-] (protonated)
O=C(C[N-]C(=O)c1ccc(S(=O)(=O)N2CCc3ccccc32)cc1)N=c1[n-]cccc1[O-] (3D coordinates assigned)
O=C(C[N-]C(=O)c1ccc(S(=O)(=O)N2CCc3ccccc32)cc1)N=c1[n-]cccc1[O-] (nonaromatic ring conformer: 79.3788348921819 kcal/mol)

>  <smiles>  (2635) 
O=C(CNC(=O)c1ccc(S(=O)(=O)N2CCc3ccccc32)cc1)N=c1[nH]cccc1O

>  <score_type>  (2635) 
oracle

>  <origin>  (2635) 
adg

>  <m_score__min__energy>  (2635) 
-17.030000000000001

>  <m_primary>  (2635) 
energy

$$$$
21:0
     RDKit          3D

 28 31  0  0  0  0  0  0  0  0999 V2000
   60.7360   27.9420   47.8610 C   0  0  0  0  0  0  0  0  0  0  0  0
   59.8450   28.9110   47.5930 C   0  0  0  0  0  0  0  0  0  0  0  0
   58.8610   28.8790   46.5900 C   0  0  0  0  0  0  0  0  0  0  0  0
   58.4310   27.8760   45.7980 C   0  0  0  0  0  0  0  0  0  0  0  0
   57.2160   27.0730   46.0060 C   0  0  0  0  0  0  0  0  0  0  0  0
   57.2320   25.8010   46.4400 N   0  0  0  0  0  0  0  0  0  0  0  0
   55.9360   25.4270   46.3590 C   0  0  0  0  0  0  0  0  0  0  0  0
   55.5380   24.2830   46.7000 O   0  0  0  0  0  0  0  0  0  0  0  0
   55.1030   26.3720   45.8730 N   0  0  0  0  0  0  0  0  0  0  0  0
   55.9310   27.4020   45.6400 C   0  0  0  0  0  0  0  0  0  0  0  0
   55.5250   28.6080   45.0790 O   0  0  0  0  0  0  0  0  0  0  0  0
   58.3230   30.1500   46.5300 C   0  0  0  0  0  0  0  0  0  0  0  0
   58.9240   30.8860   47.5280 C   0  0  0  0  0  0  0  0  0  0  0  0
   58.5920   32.2900   47.8250 C   0  0  0  0  0  0  0  0  0  0  0  0
   57.9900   32.5830   48.8910 O   0  0  0  0  0  0  0  0  0  0  0  0
   58.9550   33.3260   46.9150 N   0  0  0  0  0  0  0  0  0  0  0  0
   59.7130   33.4670   45.6590 C   0  0  0  0  0  0  0  0  0  0  0  0
   59.6270   34.9560   45.5910 C   0  0  0  0  0  0  0  0  0  0  0  0
   58.8600   34.7950   46.8610 C   0  0  0  0  0  0  0  0  0  0  0  0
   59.8520   30.1440   48.1800 N   0  0  0  0  0  0  0  0  0  0  0  0
   60.7700   30.6630   49.2130 C   0  0  0  0  0  0  0  0  0  0  0  0
   61.6450   31.7600   48.6520 C   0  0  0  0  0  0  0  0  0  0  0  0
   62.5310   31.4850   47.5940 C   0  0  0  0  0  0  0  0  0  0  0  0
   63.3710   32.4850   47.0960 C   0  0  0  0  0  0  0  0  0  0  0  0
   63.3290   33.7700   47.6410 C   0  0  0  0  0  0  0  0  0  0  0  0
   62.4440   34.0590   48.6820 C   0  0  0  0  0  0  0  0  0  0  0  0
   61.6030   33.0620   49.1880 C   0  0  0  0  0  0  0  0  0  0  0  0
   60.7500   33.3720   50.1950 F   0  0  0  0  0  0  0  0  0  0  0  0
  1  2  2  0
  2  3  1  0
  3  4  2  3
  4  5  1  0
  5  6  1  0
  6  7  1  0
  7  8  2  0
  7  9  1  0
  9 10  1  0
 10 11  1  0
  3 12  1  0
 12 13  2  0
 13 14  1  0
 14 15  2  0
 14 16  1  0
 16 17  1  0
 17 18  1  0
 18 19  1  0
 13 20  1  0
 20 21  1  0
 21 22  1  0
 22 23  2  0
 23 24  1  0
 24 25  2  0
 25 26  1  0
 26 27  2  0
 27 28  1  0
 20  2  1  0
 27 22  1  0
 10  5  2  0
 19 16  1  0
M  CHG  3   6  -1   9  -1  11  -1
M  END
>  <UniqueID>  (2636) 
22

>  <SMILES>  (2636) 
C=c1c(=Cc2[n-]c(=O)[n-]c2[O-])cc(C(=O)N2CCC2)n1Cc1ccccc1F

>  <Energy>  (2636) 
164.85081940726056

>  <Genealogy>  (2636) 
C=c1c(=Cc2[n-]c(=O)[n-]c2[O-])cc(C(=O)N2CCC2)n1Cc1ccccc1F (protonated)
C=c1c(=Cc2[n-]c(=O)[n-]c2[O-])cc(C(=O)N2CCC2)n1Cc1ccccc1F (3D coordinates assigned)
C=c1c(=Cc2[n-]c(=O)[n-]c2[O-])cc(C(=O)N2CCC2)n1Cc1ccccc1F (nonaromatic ring conformer: 164.85081940726056 kcal/mol)

>  <smiles>  (2636) 
C=c1c(=Cc2[nH]c(=O)[nH]c2O)cc(C(=O)N2CCC2)n1Cc1ccccc1F

>  <score_type>  (2636) 
oracle

>  <origin>  (2636) 
adg

>  <m_score__min__energy>  (2636) 
-15.94

>  <m_primary>  (2636) 
energy

$$$$
24:0
     RDKit          3D

 30 33  0  0  0  0  0  0  0  0999 V2000
   55.0260   30.8540   51.3940 C   0  0  0  0  0  0  0  0  0  0  0  0
   54.8330   30.4260   52.6520 C   0  0  0  0  0  0  0  0  0  0  0  0
   53.6060   30.4090   53.3380 C   0  0  0  0  0  0  0  0  0  0  0  0
   52.4280   31.0020   53.0600 C   0  0  0  0  0  0  0  0  0  0  0  0
   51.8160   31.1080   51.7250 C   0  0  0  0  0  0  0  0  0  0  0  0
   52.0450   30.2580   50.7080 N   0  0  0  0  0  0  0  0  0  0  0  0
   51.3850   30.8220   49.6740 C   0  0  0  0  0  0  0  0  0  0  0  0
   51.3490   30.3030   48.5280 O   0  0  0  0  0  0  0  0  0  0  0  0
   50.7750   31.9920   49.9630 N   0  0  0  0  0  0  0  0  0  0  0  0
   51.0700   32.1630   51.2610 C   0  0  0  0  0  0  0  0  0  0  0  0
   50.6710   33.2660   52.0070 O   0  0  0  0  0  0  0  0  0  0  0  0
   53.8020   29.6320   54.4620 C   0  0  0  0  0  0  0  0  0  0  0  0
   55.1280   29.2620   54.4690 C   0  0  0  0  0  0  0  0  0  0  0  0
   55.7560   28.4300   55.5470 C   0  0  0  0  0  0  0  0  0  0  0  0
   55.7760   29.7740   53.3930 N   0  0  0  0  0  0  0  0  0  0  0  0
   57.2010   29.5580   53.0750 C   0  0  0  0  0  0  0  0  0  0  0  0
   57.8840   30.8500   52.6800 C   0  0  0  0  0  0  0  0  0  0  0  0
   57.6450   32.0120   53.4390 C   0  0  0  0  0  0  0  0  0  0  0  0
   58.2410   33.2240   53.0890 C   0  0  0  0  0  0  0  0  0  0  0  0
   59.0890   33.2960   51.9850 C   0  0  0  0  0  0  0  0  0  0  0  0
   59.3520   32.1520   51.2310 C   0  0  0  0  0  0  0  0  0  0  0  0
   58.7680   30.9240   51.5750 C   0  0  0  0  0  0  0  0  0  0  0  0
   59.1010   29.7390   50.7630 C   0  0  0  0  0  0  0  0  0  0  0  0
   58.5300   29.6040   49.6460 O   0  0  0  0  0  0  0  0  0  0  0  0
   60.0770   28.7650   51.1950 N   0  0  0  0  0  0  0  0  0  0  0  0
   60.4110   27.6540   50.2930 C   0  0  0  0  0  0  0  0  0  0  0  0
   61.4770   26.7420   50.9090 C   0  0  0  0  0  0  0  0  0  0  0  0
   61.1490   26.4440   52.3080 N   0  0  0  0  0  0  0  0  0  0  0  0
   61.1100   27.6480   53.1620 C   0  0  0  0  0  0  0  0  0  0  0  0
   60.9000   28.9720   52.3970 C   0  0  0  0  0  0  0  0  0  0  0  0
  1  2  2  0
  2  3  1  0
  3  4  2  3
  4  5  1  0
  5  6  1  0
  6  7  1  0
  7  8  2  0
  7  9  1  0
  9 10  1  0
 10 11  1  0
  3 12  1  0
 12 13  2  0
 13 14  1  0
 13 15  1  0
 15 16  1  0
 16 17  1  0
 17 18  2  0
 18 19  1  0
 19 20  2  0
 20 21  1  0
 21 22  2  0
 22 23  1  0
 23 24  2  0
 23 25  1  0
 25 26  1  0
 26 27  1  0
 27 28  1  0
 28 29  1  0
 29 30  1  0
 15  2  1  0
 22 17  1  0
 30 25  1  0
 10  5  2  0
M  CHG  3   6  -1   9  -1  11  -1
M  END
>  <UniqueID>  (2637) 
25

>  <SMILES>  (2637) 
C=c1c(=Cc2[n-]c(=O)[n-]c2[O-])cc(C)n1Cc1ccccc1C(=O)N1CCNCC1

>  <Energy>  (2637) 
133.50493111704213

>  <Genealogy>  (2637) 
C=c1c(=Cc2[n-]c(=O)[n-]c2[O-])cc(C)n1Cc1ccccc1C(=O)N1CCNCC1 (protonated)
C=c1c(=Cc2[n-]c(=O)[n-]c2[O-])cc(C)n1Cc1ccccc1C(=O)N1CCNCC1 (3D coordinates assigned)
C=c1c(=Cc2[n-]c(=O)[n-]c2[O-])cc(C)n1Cc1ccccc1C(=O)N1CCNCC1 (nonaromatic ring conformer: 133.50493111704213 kcal/mol)

>  <smiles>  (2637) 
C=c1c(=Cc2[nH]c(=O)[nH]c2O)cc(C)n1Cc1ccccc1C(=O)N1CCNCC1

>  <score_type>  (2637) 
oracle

>  <origin>  (2637) 
adg

>  <m_score__min__energy>  (2637) 
-16.190000000000001

>  <m_primary>  (2637) 
energy

$$$$
33:0
     RDKit          3D

 40 44  0  0  0  0  0  0  0  0999 V2000
   59.8770   31.5680   52.9880 C   0  0  0  0  0  0  0  0  0  0  0  0
   59.7440   31.4200   51.5300 N   0  0  0  0  0  0  0  0  0  0  0  0
   60.9950   31.8200   50.8270 C   0  0  0  0  0  0  0  0  0  0  0  0
   60.8560   33.1110   50.0020 C   0  0  0  0  0  0  0  0  0  0  0  0
   59.7020   33.0150   49.1000 N   0  0  0  0  0  0  0  0  0  0  0  0
   59.6260   33.8690   47.9440 C   0  0  0  0  0  0  0  0  0  0  0  0
   60.2110   34.9840   47.9560 O   0  0  0  0  0  0  0  0  0  0  0  0
   58.8440   33.4790   46.7500 C   0  0  0  0  0  0  0  0  0  0  0  0
   57.9430   34.3830   46.1590 C   0  0  0  0  0  0  0  0  0  0  0  0
   57.2370   34.0220   45.0090 C   0  0  0  0  0  0  0  0  0  0  0  0
   57.4130   32.7580   44.4450 C   0  0  0  0  0  0  0  0  0  0  0  0
   58.2730   31.8250   45.0510 C   0  0  0  0  0  0  0  0  0  0  0  0
   58.5140   30.5280   44.4810 N   0  0  0  0  0  0  0  0  0  0  0  0
   59.1320   29.4060   45.1270 C   0  0  0  0  0  0  0  0  0  0  0  0
   60.3800   29.4200   45.2990 O   0  0  0  0  0  0  0  0  0  0  0  0
   58.3460   28.2630   45.6440 C   0  0  0  0  0  0  0  0  0  0  0  0
   58.8680   27.4220   46.6400 C   0  0  0  0  0  0  0  0  0  0  0  0
   58.1150   26.3500   47.1250 C   0  0  0  0  0  0  0  0  0  0  0  0
   56.8400   26.0890   46.6110 C   0  0  0  0  0  0  0  0  0  0  0  0
   56.0850   24.9930   47.1520 N   0  0  0  0  0  0  0  0  0  0  0  0
   56.5780   23.9380   47.9890 C   0  0  0  0  0  0  0  0  0  0  0  0
   57.5450   24.1770   48.7610 O   0  0  0  0  0  0  0  0  0  0  0  0
   56.0170   22.5750   47.9460 C   0  0  0  0  0  0  0  0  0  0  0  0
   56.7430   21.5970   47.6140 O   0  0  0  0  0  0  0  0  0  0  0  0
   54.6420   22.3700   48.2870 N   0  0  0  0  0  0  0  0  0  0  0  0
   53.7670   21.4350   47.5890 C   0  0  0  0  0  0  0  0  0  0  0  0
   52.9290   22.1590   46.5840 C   0  0  0  0  0  0  0  0  0  0  0  0
   53.4550   22.7400   45.4730 N   0  0  0  0  0  0  0  0  0  0  0  0
   52.3730   23.2750   44.8880 C   0  0  0  0  0  0  0  0  0  0  0  0
   52.3150   23.9940   43.6940 C   0  0  0  0  0  0  0  0  0  0  0  0
   51.0550   24.4610   43.2730 C   0  0  0  0  0  0  0  0  0  0  0  0
   49.9010   24.2000   44.0460 C   0  0  0  0  0  0  0  0  0  0  0  0
   49.9990   23.4710   45.2480 C   0  0  0  0  0  0  0  0  0  0  0  0
   51.2620   23.0250   45.6330 C   0  0  0  0  0  0  0  0  0  0  0  0
   51.5860   22.3170   46.7250 N   0  0  0  0  0  0  0  0  0  0  0  0
   56.3040   26.9440   45.6330 C   0  0  0  0  0  0  0  0  0  0  0  0
   57.0600   28.0090   45.1390 C   0  0  0  0  0  0  0  0  0  0  0  0
   58.9870   32.1950   46.1990 C   0  0  0  0  0  0  0  0  0  0  0  0
   58.5170   32.2610   49.5350 C   0  0  0  0  0  0  0  0  0  0  0  0
   58.5200   32.1060   51.0580 C   0  0  0  0  0  0  0  0  0  0  0  0
  1  2  1  0
  2  3  1  0
  3  4  1  0
  4  5  1  0
  5  6  1  0
  6  7  2  0
  6  8  1  0
  8  9  2  0
  9 10  1  0
 10 11  2  0
 11 12  1  0
 12 13  1  0
 13 14  1  0
 14 15  2  0
 14 16  1  0
 16 17  2  0
 17 18  1  0
 18 19  2  0
 19 20  1  0
 20 21  1  0
 21 22  2  0
 21 23  1  0
 23 24  2  0
 23 25  1  0
 25 26  1  0
 26 27  1  0
 27 28  2  0
 28 29  1  0
 29 30  2  0
 30 31  1  0
 31 32  2  0
 32 33  1  0
 33 34  2  0
 34 35  1  0
 19 36  1  0
 36 37  2  0
 12 38  2  0
  5 39  1  0
 39 40  1  0
 40  2  1  0
 38  8  1  0
 37 16  1  0
 35 27  1  0
 34 29  1  0
M  CHG  4  13  -1  20  -1  25  -1  35  -1
M  END
>  <UniqueID>  (2638) 
34

>  <SMILES>  (2638) 
CN1CCN(C(=O)c2cccc([N-]C(=O)c3ccc([N-]C(=O)C(=O)[N-]Cc4nc5ccccc5[n-]4)cc3)c2)CC1

>  <Energy>  (2638) 
125.45410836166432

>  <Genealogy>  (2638) 
CN1CCN(C(=O)c2cccc([N-]C(=O)c3ccc([N-]C(=O)C(=O)[N-]Cc4nc5ccccc5[n-]4)cc3)c2)CC1 (protonated)
CN1CCN(C(=O)c2cccc([N-]C(=O)c3ccc([N-]C(=O)C(=O)[N-]Cc4nc5ccccc5[n-]4)cc3)c2)CC1 (3D coordinates assigned)
CN1CCN(C(=O)c2cccc([N-]C(=O)c3ccc([N-]C(=O)C(=O)[N-]Cc4nc5ccccc5[n-]4)cc3)c2)CC1 (nonaromatic ring conformer: 125.45410836166432 kcal/mol)

>  <smiles>  (2638) 
CN1CCN(C(=O)c2cccc(NC(=O)c3ccc(NC(=O)C(=O)NCc4nc5ccccc5[nH]4)cc3)c2)CC1

>  <score_type>  (2638) 
oracle

>  <origin>  (2638) 
adg

>  <m_score__min__energy>  (2638) 
-15.300000000000001

>  <m_primary>  (2638) 
energy

$$$$
43:0
     RDKit          3D

 32 34  0  0  0  0  0  0  0  0999 V2000
   59.2420   27.5970   45.9960 C   0  0  0  0  0  0  0  0  0  0  0  0
   58.4140   28.6360   45.7860 C   0  0  0  0  0  0  0  0  0  0  0  0
   57.1000   28.3300   45.3880 C   0  0  0  0  0  0  0  0  0  0  0  0
   56.2520   29.3170   44.9020 C   0  0  0  0  0  0  0  0  0  0  0  0
   54.9650   28.9860   44.4950 O   0  0  0  0  0  0  0  0  0  0  0  0
   56.6940   30.6270   44.8000 C   0  0  0  0  0  0  0  0  0  0  0  0
   57.9740   30.9940   45.2410 C   0  0  0  0  0  0  0  0  0  0  0  0
   58.3440   32.4580   45.1590 C   0  0  0  0  0  0  0  0  0  0  0  0
   58.8330   30.0130   45.8330 C   0  0  0  0  0  0  0  0  0  0  0  0
   59.9780   30.4250   46.4490 C   0  0  0  0  0  0  0  0  0  0  0  0
   60.0860   30.8890   47.8410 C   0  0  0  0  0  0  0  0  0  0  0  0
   60.7210   32.0260   48.1840 N   0  0  0  0  0  0  0  0  0  0  0  0
   60.5700   32.0870   49.5210 C   0  0  0  0  0  0  0  0  0  0  0  0
   61.0420   33.0260   50.2130 O   0  0  0  0  0  0  0  0  0  0  0  0
   59.8630   31.0600   50.0380 N   0  0  0  0  0  0  0  0  0  0  0  0
   59.5350   30.8270   51.4480 C   0  0  0  0  0  0  0  0  0  0  0  0
   58.1860   31.4140   51.7830 C   0  0  0  0  0  0  0  0  0  0  0  0
   58.1010   32.8070   52.1330 C   0  0  0  0  0  0  0  0  0  0  0  0
   58.0280   33.9230   52.4180 N   0  0  0  0  0  0  0  0  0  0  0  0
   57.0560   30.6990   51.7390 C   0  0  0  0  0  0  0  0  0  0  0  0
   56.3390   30.3250   52.9240 N   0  0  0  0  0  0  0  0  0  0  0  0
   57.1250   30.1850   54.1480 C   0  0  0  0  0  0  0  0  0  0  0  0
   55.1460   29.4940   52.7270 C   0  0  0  0  0  0  0  0  0  0  0  0
   53.9170   30.3150   52.4350 C   0  0  0  0  0  0  0  0  0  0  0  0
   52.9780   30.5680   53.4480 C   0  0  0  0  0  0  0  0  0  0  0  0
   51.8580   31.3620   53.1880 C   0  0  0  0  0  0  0  0  0  0  0  0
   51.6690   31.9090   51.9140 C   0  0  0  0  0  0  0  0  0  0  0  0
   50.5600   32.7030   51.6580 O   0  0  0  0  0  0  0  0  0  0  0  0
   52.5970   31.6570   50.8980 C   0  0  0  0  0  0  0  0  0  0  0  0
   53.7150   30.8610   51.1550 C   0  0  0  0  0  0  0  0  0  0  0  0
   59.5250   30.3080   48.9690 C   0  0  0  0  0  0  0  0  0  0  0  0
   58.6700   29.0730   49.0110 C   0  0  0  0  0  0  0  0  0  0  0  0
  1  2  2  0
  2  3  1  0
  3  4  2  0
  4  5  1  0
  4  6  1  0
  6  7  2  0
  7  8  1  0
  7  9  1  0
  9 10  2  3
 10 11  1  0
 11 12  1  0
 12 13  1  0
 13 14  2  0
 13 15  1  0
 15 16  1  0
 16 17  1  0
 17 18  1  0
 18 19  3  0
 17 20  2  3
 20 21  1  0
 21 22  1  0
 21 23  1  0
 23 24  1  0
 24 25  2  0
 25 26  1  0
 26 27  2  0
 27 28  1  0
 27 29  1  0
 29 30  2  0
 15 31  1  0
 31 32  1  0
  9  2  1  0
 31 11  2  0
 30 24  1  0
M  CHG  3   5  -1  12  -1  28  -1
M  END
>  <UniqueID>  (2639) 
44

>  <SMILES>  (2639) 
C=c1cc([O-])cc(C)c1=Cc1[n-]c(=O)n(CC(C#N)=CN(C)Cc2ccc([O-])cc2)c1C

>  <Energy>  (2639) 
112.88585324645491

>  <Genealogy>  (2639) 
C=c1cc([O-])cc(C)c1=Cc1[n-]c(=O)n(CC(C#N)=CN(C)Cc2ccc([O-])cc2)c1C (protonated)
C=c1cc([O-])cc(C)c1=Cc1[n-]c(=O)n(CC(C#N)=CN(C)Cc2ccc([O-])cc2)c1C (3D coordinates assigned)
C=c1cc([O-])cc(C)c1=Cc1[n-]c(=O)n(CC(C#N)=CN(C)Cc2ccc([O-])cc2)c1C (optimized conformer: 112.88585324645491 kcal/mol)

>  <smiles>  (2639) 
C=c1cc(O)cc(C)c1=Cc1[nH]c(=O)n(CC(C#N)=CN(C)Cc2ccc(O)cc2)c1C

>  <score_type>  (2639) 
oracle

>  <origin>  (2639) 
adg

>  <m_score__min__energy>  (2639) 
-16.440000000000001

>  <m_primary>  (2639) 
energy

$$$$
45:0
     RDKit          3D

 30 33  0  0  0  0  0  0  0  0999 V2000
   58.3820   29.2670   50.1390 O   0  0  0  0  0  0  0  0  0  0  0  0
   58.7980   30.4560   50.2340 C   0  0  0  0  0  0  0  0  0  0  0  0
   59.0630   31.0370   51.6020 C   0  0  0  0  0  0  0  0  0  0  0  0
   58.5680   30.1230   52.7290 C   0  0  0  0  0  0  0  0  0  0  0  0
   57.0770   30.1780   52.8260 C   0  0  0  0  0  0  0  0  0  0  0  0
   56.2640   30.4710   51.7940 N   0  0  0  0  0  0  0  0  0  0  0  0
   55.0520   30.4220   52.3870 C   0  0  0  0  0  0  0  0  0  0  0  0
   53.7780   30.6740   51.6790 C   0  0  0  0  0  0  0  0  0  0  0  0
   53.3340   29.7940   50.6760 C   0  0  0  0  0  0  0  0  0  0  0  0
   52.1290   30.0340   50.0090 C   0  0  0  0  0  0  0  0  0  0  0  0
   51.3580   31.1530   50.3320 C   0  0  0  0  0  0  0  0  0  0  0  0
   51.7910   32.0360   51.3260 C   0  0  0  0  0  0  0  0  0  0  0  0
   51.0230   33.1480   51.6470 O   0  0  0  0  0  0  0  0  0  0  0  0
   52.9950   31.7990   51.9980 C   0  0  0  0  0  0  0  0  0  0  0  0
   55.1350   30.1220   53.7000 N   0  0  0  0  0  0  0  0  0  0  0  0
   56.4040   29.9810   53.9320 O   0  0  0  0  0  0  0  0  0  0  0  0
   58.9700   31.2420   49.0370 N   0  0  0  0  0  0  0  0  0  0  0  0
   59.2160   30.5390   47.7670 C   0  0  0  0  0  0  0  0  0  0  0  0
   59.6070   31.5080   46.6490 C   0  0  0  0  0  0  0  0  0  0  0  0
   58.6720   32.6400   46.6190 N   0  0  0  0  0  0  0  0  0  0  0  0
   58.2610   33.2110   45.3640 C   0  0  0  0  0  0  0  0  0  0  0  0
   58.3230   34.4610   45.2050 O   0  0  0  0  0  0  0  0  0  0  0  0
   57.7470   32.3660   44.2620 C   0  0  0  0  0  0  0  0  0  0  0  0
   57.9890   32.7220   42.9220 C   0  0  0  0  0  0  0  0  0  0  0  0
   57.4940   31.9330   41.8800 C   0  0  0  0  0  0  0  0  0  0  0  0
   56.7460   30.7870   42.1630 C   0  0  0  0  0  0  0  0  0  0  0  0
   56.4870   30.4320   43.4880 C   0  0  0  0  0  0  0  0  0  0  0  0
   56.9800   31.2190   44.5340 C   0  0  0  0  0  0  0  0  0  0  0  0
   58.3020   33.3210   47.8670 C   0  0  0  0  0  0  0  0  0  0  0  0
   59.0090   32.7130   49.0870 C   0  0  0  0  0  0  0  0  0  0  0  0
  1  2  2  0
  2  3  1  0
  3  4  1  0
  4  5  1  0
  5  6  2  0
  6  7  1  0
  7  8  1  0
  8  9  2  0
  9 10  1  0
 10 11  2  0
 11 12  1  0
 12 13  1  0
 12 14  2  0
  7 15  2  0
 15 16  1  0
  2 17  1  0
 17 18  1  0
 18 19  1  0
 19 20  1  0
 20 21  1  0
 21 22  2  0
 21 23  1  0
 23 24  2  0
 24 25  1  0
 25 26  2  0
 26 27  1  0
 27 28  2  0
 20 29  1  0
 29 30  1  0
 16  5  1  0
 30 17  1  0
 14  8  1  0
 28 23  1  0
M  CHG  1  13  -1
M  END
>  <UniqueID>  (2640) 
46

>  <SMILES>  (2640) 
O=C(CCc1nc(-c2cccc([O-])c2)no1)N1CCN(C(=O)c2ccccc2)CC1

>  <Energy>  (2640) 
90.94608673497434

>  <Genealogy>  (2640) 
O=C(CCc1nc(-c2cccc([O-])c2)no1)N1CCN(C(=O)c2ccccc2)CC1 (protonated)
O=C(CCc1nc(-c2cccc([O-])c2)no1)N1CCN(C(=O)c2ccccc2)CC1 (3D coordinates assigned)
O=C(CCc1nc(-c2cccc([O-])c2)no1)N1CCN(C(=O)c2ccccc2)CC1 (nonaromatic ring conformer: 90.94608673497434 kcal/mol)

>  <smiles>  (2640) 
O=C(CCc1nc(-c2cccc(O)c2)no1)N1CCN(C(=O)c2ccccc2)CC1

>  <score_type>  (2640) 
oracle

>  <origin>  (2640) 
adg

>  <m_score__min__energy>  (2640) 
-14.18

>  <m_primary>  (2640) 
energy

$$$$
46:0
     RDKit          3D

 28 30  0  0  0  0  0  0  0  0999 V2000
   60.4190   29.8500   45.9820 C   0  0  0  0  0  0  0  0  0  0  0  0
   59.4220   30.6850   45.6440 C   0  0  0  0  0  0  0  0  0  0  0  0
   58.3380   30.4110   44.7930 C   0  0  0  0  0  0  0  0  0  0  0  0
   57.9200   29.2590   44.2290 C   0  0  0  0  0  0  0  0  0  0  0  0
   57.3980   28.0860   44.9570 C   0  0  0  0  0  0  0  0  0  0  0  0
   56.0340   27.9970   45.2690 C   0  0  0  0  0  0  0  0  0  0  0  0
   55.1470   28.9830   44.8530 O   0  0  0  0  0  0  0  0  0  0  0  0
   55.5690   26.9350   45.9750 N   0  0  0  0  0  0  0  0  0  0  0  0
   56.4060   25.9560   46.4040 C   0  0  0  0  0  0  0  0  0  0  0  0
   55.9510   24.9790   47.0530 O   0  0  0  0  0  0  0  0  0  0  0  0
   57.7350   26.0340   46.1390 N   0  0  0  0  0  0  0  0  0  0  0  0
   58.2510   27.0760   45.4370 C   0  0  0  0  0  0  0  0  0  0  0  0
   59.4920   27.1260   45.2270 O   0  0  0  0  0  0  0  0  0  0  0  0
   57.6740   31.6110   44.6130 C   0  0  0  0  0  0  0  0  0  0  0  0
   58.3230   32.5500   45.3880 C   0  0  0  0  0  0  0  0  0  0  0  0
   57.9130   33.9880   45.4940 C   0  0  0  0  0  0  0  0  0  0  0  0
   59.3840   31.9920   46.0180 N   0  0  0  0  0  0  0  0  0  0  0  0
   60.3050   32.6830   46.9360 C   0  0  0  0  0  0  0  0  0  0  0  0
   59.6080   33.0210   48.2210 C   0  0  0  0  0  0  0  0  0  0  0  0
   59.0410   34.1410   48.3380 O   0  0  0  0  0  0  0  0  0  0  0  0
   59.6210   32.0900   49.3140 N   0  0  0  0  0  0  0  0  0  0  0  0
   58.8800   32.2710   50.5330 C   0  0  0  0  0  0  0  0  0  0  0  0
   59.1870   33.3070   51.4320 C   0  0  0  0  0  0  0  0  0  0  0  0
   58.4350   33.4740   52.6000 C   0  0  0  0  0  0  0  0  0  0  0  0
   57.3640   32.6190   52.8720 C   0  0  0  0  0  0  0  0  0  0  0  0
   57.0360   31.5990   51.9720 C   0  0  0  0  0  0  0  0  0  0  0  0
   55.6840   30.5350   52.3080 Cl  0  0  0  0  0  0  0  0  0  0  0  0
   57.7860   31.4310   50.8030 C   0  0  0  0  0  0  0  0  0  0  0  0
  1  2  2  0
  2  3  1  0
  3  4  2  3
  4  5  1  0
  5  6  2  0
  6  7  1  0
  6  8  1  0
  8  9  1  0
  9 10  2  0
  9 11  1  0
 11 12  1  0
 12 13  2  0
  3 14  1  0
 14 15  2  0
 15 16  1  0
 15 17  1  0
 17 18  1  0
 18 19  1  0
 19 20  2  0
 19 21  1  0
 21 22  1  0
 22 23  2  0
 23 24  1  0
 24 25  2  0
 25 26  1  0
 26 27  1  0
 26 28  2  0
 17  2  1  0
 28 22  1  0
 12  5  1  0
M  CHG  3   7  -1   8  -1  11  -1
M  END
>  <UniqueID>  (2641) 
47

>  <SMILES>  (2641) 
C=c1c(=Cc2c([O-])[n-]c(=O)[n-]c2=O)cc(C)n1CC(=O)Nc1cccc(Cl)c1

>  <Energy>  (2641) 
89.0591154246342

>  <Genealogy>  (2641) 
C=c1c(=Cc2c([O-])[n-]c(=O)[n-]c2=O)cc(C)n1CC(=O)Nc1cccc(Cl)c1 (protonated)
C=c1c(=Cc2c([O-])[n-]c(=O)[n-]c2=O)cc(C)n1CC(=O)Nc1cccc(Cl)c1 (3D coordinates assigned)
C=c1c(=Cc2c([O-])[n-]c(=O)[n-]c2=O)cc(C)n1CC(=O)Nc1cccc(Cl)c1 (optimized conformer: 89.0591154246342 kcal/mol)

>  <smiles>  (2641) 
C=c1c(=Cc2c(O)[nH]c(=O)[nH]c2=O)cc(C)n1CC(=O)Nc1cccc(Cl)c1

>  <score_type>  (2641) 
oracle

>  <origin>  (2641) 
adg

>  <m_score__min__energy>  (2641) 
-15.74

>  <m_primary>  (2641) 
energy

$$$$
64:0
     RDKit          3D

 28 30  0  0  0  0  0  0  0  0999 V2000
   59.7480   31.9070   49.4280 C   0  0  0  0  0  0  0  0  0  0  0  0
   59.6690   32.6550   48.1590 C   0  0  0  0  0  0  0  0  0  0  0  0
   60.6810   33.5660   47.8300 C   0  0  0  0  0  0  0  0  0  0  0  0
   60.6450   34.2420   46.6090 C   0  0  0  0  0  0  0  0  0  0  0  0
   59.6100   34.0010   45.7030 C   0  0  0  0  0  0  0  0  0  0  0  0
   58.5990   33.0720   46.0020 C   0  0  0  0  0  0  0  0  0  0  0  0
   57.5570   32.8390   45.0360 N   0  0  0  0  0  0  0  0  0  0  0  0
   57.3320   31.3540   44.1670 S   0  0  0  0  0  0  0  0  0  0  0  0
   58.4410   30.4080   44.5300 O   0  0  0  0  0  0  0  0  0  0  0  0
   56.0200   30.7260   44.5480 O   0  0  0  0  0  0  0  0  0  0  0  0
   57.3940   31.6480   42.4120 C   0  0  0  0  0  0  0  0  0  0  0  0
   58.6470   32.3880   47.2320 C   0  0  0  0  0  0  0  0  0  0  0  0
   58.7080   31.6040   50.2330 C   0  0  0  0  0  0  0  0  0  0  0  0
   58.1310   32.6230   50.9240 N   0  0  0  0  0  0  0  0  0  0  0  0
   57.0850   32.4430   51.7710 C   0  0  0  0  0  0  0  0  0  0  0  0
   56.6490   33.4360   52.4120 O   0  0  0  0  0  0  0  0  0  0  0  0
   56.5450   31.1460   51.9360 C   0  0  0  0  0  0  0  0  0  0  0  0
   55.5100   30.8400   52.7470 C   0  0  0  0  0  0  0  0  0  0  0  0
   54.0980   30.7020   52.3370 C   0  0  0  0  0  0  0  0  0  0  0  0
   53.4810   29.4440   52.3950 C   0  0  0  0  0  0  0  0  0  0  0  0
   52.1610   29.2880   51.9590 C   0  0  0  0  0  0  0  0  0  0  0  0
   51.4590   30.3810   51.4430 C   0  0  0  0  0  0  0  0  0  0  0  0
   52.0790   31.6320   51.3540 C   0  0  0  0  0  0  0  0  0  0  0  0
   51.3850   32.7150   50.8280 O   0  0  0  0  0  0  0  0  0  0  0  0
   53.3990   31.7910   51.7900 C   0  0  0  0  0  0  0  0  0  0  0  0
   57.1210   30.1260   51.2440 N   0  0  0  0  0  0  0  0  0  0  0  0
   58.1660   30.3070   50.3960 C   0  0  0  0  0  0  0  0  0  0  0  0
   58.5980   29.3160   49.7500 O   0  0  0  0  0  0  0  0  0  0  0  0
  1  2  1  0
  2  3  2  0
  3  4  1  0
  4  5  2  0
  5  6  1  0
  6  7  1  0
  7  8  1  0
  8  9  2  0
  8 10  2  0
  8 11  1  0
  6 12  2  0
  1 13  2  3
 13 14  1  0
 14 15  1  0
 15 16  2  0
 15 17  1  0
 17 18  2  0
 18 19  1  0
 19 20  2  0
 20 21  1  0
 21 22  2  0
 22 23  1  0
 23 24  1  0
 23 25  2  0
 17 26  1  0
 26 27  1  0
 27 28  2  0
 12  2  1  0
 27 13  1  0
 25 19  1  0
M  CHG  3  14  -1  24  -1  26  -1
M  END
>  <UniqueID>  (2642) 
63

>  <SMILES>  (2642) 
CS(=O)(=O)Nc1cccc(C=c2[n-]c(=O)/c(=C\c3cccc([O-])c3)[n-]c2=O)c1

>  <Energy>  (2642) 
69.19951339688313

>  <Genealogy>  (2642) 
CS(=O)(=O)Nc1cccc(C=c2[n-]c(=O)c(=Cc3cccc([O-])c3)[n-]c2=O)c1 (protonated)
CS(=O)(=O)Nc1cccc(C=c2[n-]c(=O)/c(=C\c3cccc([O-])c3)[n-]c2=O)c1 (cis-trans isomerization)
CS(=O)(=O)Nc1cccc(C=c2[n-]c(=O)/c(=C\c3cccc([O-])c3)[n-]c2=O)c1 (3D coordinates assigned)
CS(=O)(=O)Nc1cccc(C=c2[n-]c(=O)/c(=C\c3cccc([O-])c3)[n-]c2=O)c1 (optimized conformer: 69.19951339688313 kcal/mol)

>  <smiles>  (2642) 
CS(=O)(=O)Nc1cccc(C=c2[nH]c(=O)c(=Cc3cccc(O)c3)[nH]c2=O)c1

>  <score_type>  (2642) 
oracle

>  <origin>  (2642) 
adg

>  <m_score__min__energy>  (2642) 
-14.619999999999999

>  <m_primary>  (2642) 
energy

$$$$
69:0
     RDKit          3D

 27 29  0  0  0  0  0  0  0  0999 V2000
   53.9970   29.1210   54.3990 C   0  0  0  0  0  0  0  0  0  0  0  0
   54.6980   29.8170   53.4880 C   0  0  0  0  0  0  0  0  0  0  0  0
   54.1830   30.7760   52.6050 C   0  0  0  0  0  0  0  0  0  0  0  0
   52.8990   31.1900   52.5110 C   0  0  0  0  0  0  0  0  0  0  0  0
   52.1050   31.2560   51.2630 C   0  0  0  0  0  0  0  0  0  0  0  0
   52.1030   30.3420   50.2740 N   0  0  0  0  0  0  0  0  0  0  0  0
   51.2610   30.8650   49.3570 C   0  0  0  0  0  0  0  0  0  0  0  0
   50.9950   30.2870   48.2720 O   0  0  0  0  0  0  0  0  0  0  0  0
   50.7310   32.0620   49.6950 N   0  0  0  0  0  0  0  0  0  0  0  0
   51.2790   32.2960   50.9000 C   0  0  0  0  0  0  0  0  0  0  0  0
   51.0310   33.4380   51.6520 O   0  0  0  0  0  0  0  0  0  0  0  0
   55.2530   31.1850   51.8210 C   0  0  0  0  0  0  0  0  0  0  0  0
   56.3620   30.4800   52.2460 C   0  0  0  0  0  0  0  0  0  0  0  0
   57.6960   30.5630   51.6000 C   0  0  0  0  0  0  0  0  0  0  0  0
   58.0700   29.6340   50.8320 O   0  0  0  0  0  0  0  0  0  0  0  0
   58.5230   31.7410   51.7650 N   0  0  1  0  0  0  0  0  0  0  0  0
   58.9540   31.8640   53.1690 C   0  0  0  0  0  0  0  0  0  0  0  0
   59.6790   31.6670   50.8430 C   0  0  0  0  0  0  0  0  0  0  0  0
   59.4260   32.4300   49.5650 C   0  0  0  0  0  0  0  0  0  0  0  0
   58.7750   31.8150   48.4830 C   0  0  0  0  0  0  0  0  0  0  0  0
   58.5610   32.5200   47.2950 C   0  0  0  0  0  0  0  0  0  0  0  0
   58.9860   33.8520   47.1760 C   0  0  0  0  0  0  0  0  0  0  0  0
   58.7900   34.5920   45.8860 C   0  0  0  0  0  0  0  0  0  0  0  0
   59.6570   34.4600   48.2470 C   0  0  0  0  0  0  0  0  0  0  0  0
   59.8710   33.7560   49.4350 C   0  0  0  0  0  0  0  0  0  0  0  0
   56.0320   29.6650   53.2780 N   0  0  0  0  0  0  0  0  0  0  0  0
   56.9430   28.7770   54.0110 C   0  0  0  0  0  0  0  0  0  0  0  0
  1  2  2  0
  2  3  1  0
  3  4  2  0
  4  5  1  0
  5  6  1  0
  6  7  1  0
  7  8  2  0
  7  9  1  0
  9 10  1  0
 10 11  1  0
  3 12  1  0
 12 13  2  0
 13 14  1  0
 14 15  2  0
 14 16  1  0
 16 17  1  1
 16 18  1  0
 18 19  1  0
 19 20  2  0
 20 21  1  0
 21 22  2  0
 22 23  1  0
 22 24  1  0
 24 25  2  0
 13 26  1  0
 26 27  1  0
 26  2  1  0
 10  5  2  0
 25 19  1  0
M  CHG  4   6  -1   9  -1  11  -1  16   1
M  END
>  <UniqueID>  (2643) 
68

>  <SMILES>  (2643) 
C=c1/c(=C/c2[n-]c(=O)[n-]c2[O-])cc(C(=O)[N@@H+](C)Cc2ccc(C)cc2)n1C

>  <Energy>  (2643) 
115.18590446469834

>  <Genealogy>  (2643) 
C=c1c(=Cc2[n-]c(=O)[n-]c2[O-])cc(C(=O)[NH+](C)Cc2ccc(C)cc2)n1C (protonated)
C=c1c(=Cc2[n-]c(=O)[n-]c2[O-])cc(C(=O)[N@@H+](C)Cc2ccc(C)cc2)n1C (chirality)
C=c1/c(=C/c2[n-]c(=O)[n-]c2[O-])cc(C(=O)[N@@H+](C)Cc2ccc(C)cc2)n1C (cis-trans isomerization)
C=c1/c(=C/c2[n-]c(=O)[n-]c2[O-])cc(C(=O)[N@@H+](C)Cc2ccc(C)cc2)n1C (3D coordinates assigned)
C=c1/c(=C/c2[n-]c(=O)[n-]c2[O-])cc(C(=O)[N@@H+](C)Cc2ccc(C)cc2)n1C (optimized conformer: 115.18590446469834 kcal/mol)

>  <smiles>  (2643) 
C=c1c(=Cc2[nH]c(=O)[nH]c2O)cc(C(=O)N(C)Cc2ccc(C)cc2)n1C

>  <score_type>  (2643) 
oracle

>  <origin>  (2643) 
adg

>  <m_score__min__energy>  (2643) 
-17.170000000000002

>  <m_primary>  (2643) 
energy

$$$$
71:0
     RDKit          3D

 33 36  0  0  0  0  0  0  0  0999 V2000
   54.5330   29.8890   54.9430 C   0  0  0  0  0  0  0  0  0  0  0  0
   54.9380   30.1630   53.6920 C   0  0  0  0  0  0  0  0  0  0  0  0
   54.1390   30.6620   52.6490 C   0  0  0  0  0  0  0  0  0  0  0  0
   52.8030   30.8030   52.5430 C   0  0  0  0  0  0  0  0  0  0  0  0
   52.0460   30.8900   51.2850 C   0  0  0  0  0  0  0  0  0  0  0  0
   52.1380   30.0060   50.2730 N   0  0  0  0  0  0  0  0  0  0  0  0
   51.3940   30.5700   49.2980 C   0  0  0  0  0  0  0  0  0  0  0  0
   51.2210   30.0250   48.1770 O   0  0  0  0  0  0  0  0  0  0  0  0
   50.8620   31.7700   49.6140 N   0  0  0  0  0  0  0  0  0  0  0  0
   51.2980   31.9630   50.8690 C   0  0  0  0  0  0  0  0  0  0  0  0
   51.0230   33.1010   51.6160 O   0  0  0  0  0  0  0  0  0  0  0  0
   55.0020   30.9770   51.6170 C   0  0  0  0  0  0  0  0  0  0  0  0
   56.2680   30.6220   52.0280 C   0  0  0  0  0  0  0  0  0  0  0  0
   57.4600   30.7210   51.1680 C   0  0  0  0  0  0  0  0  0  0  0  0
   57.8070   29.7140   50.4970 O   0  0  0  0  0  0  0  0  0  0  0  0
   58.2160   31.9440   51.0510 N   0  0  0  0  0  0  0  0  0  0  0  0
   57.7740   33.0930   51.8520 C   0  0  0  0  0  0  0  0  0  0  0  0
   58.8990   33.5100   52.7820 C   0  0  0  0  0  0  0  0  0  0  0  0
   60.0670   33.8460   51.9850 N   0  0  0  0  0  0  0  0  0  0  0  0
   60.3840   33.1370   50.7850 C   0  0  0  0  0  0  0  0  0  0  0  0
   61.4360   33.4420   50.1600 O   0  0  0  0  0  0  0  0  0  0  0  0
   59.4760   32.0270   50.2570 C   0  0  0  0  0  0  0  0  0  0  0  0
   60.2720   30.7080   50.3540 C   0  0  0  0  0  0  0  0  0  0  0  0
   59.1370   32.3240   48.7850 C   0  0  0  0  0  0  0  0  0  0  0  0
   56.2370   30.1090   53.2820 N   0  0  0  0  0  0  0  0  0  0  0  0
   57.3830   29.4900   53.9760 C   0  0  0  0  0  0  0  0  0  0  0  0
   58.3130   30.5350   54.5560 C   0  0  0  0  0  0  0  0  0  0  0  0
   59.6720   30.5740   54.1910 C   0  0  0  0  0  0  0  0  0  0  0  0
   60.5300   31.5230   54.7530 C   0  0  0  0  0  0  0  0  0  0  0  0
   60.0500   32.4290   55.6990 C   0  0  0  0  0  0  0  0  0  0  0  0
   58.7130   32.3790   56.0950 C   0  0  0  0  0  0  0  0  0  0  0  0
   57.8470   31.4320   55.5360 C   0  0  0  0  0  0  0  0  0  0  0  0
   56.5650   31.3800   55.9730 F   0  0  0  0  0  0  0  0  0  0  0  0
  1  2  2  0
  2  3  1  0
  3  4  2  3
  4  5  1  0
  5  6  1  0
  6  7  1  0
  7  8  2  0
  7  9  1  0
  9 10  1  0
 10 11  1  0
  3 12  1  0
 12 13  2  0
 13 14  1  0
 14 15  2  0
 14 16  1  0
 16 17  1  0
 17 18  1  0
 18 19  1  0
 19 20  1  0
 20 21  2  0
 20 22  1  0
 22 23  1  0
 22 24  1  0
 13 25  1  0
 25 26  1  0
 26 27  1  0
 27 28  2  0
 28 29  1  0
 29 30  2  0
 30 31  1  0
 31 32  2  0
 32 33  1  0
 25  2  1  0
 32 27  1  0
 10  5  2  0
 22 16  1  0
M  CHG  4   6  -1   9  -1  11  -1  19  -1
M  END
>  <UniqueID>  (2644) 
70

>  <SMILES>  (2644) 
C=c1c(=Cc2[n-]c(=O)[n-]c2[O-])cc(C(=O)N2CC[N-]C(=O)C2(C)C)n1Cc1ccccc1F

>  <Energy>  (2644) 
135.26958154333138

>  <Genealogy>  (2644) 
C=c1c(=Cc2[n-]c(=O)[n-]c2[O-])cc(C(=O)N2CC[N-]C(=O)C2(C)C)n1Cc1ccccc1F (protonated)
C=c1c(=Cc2[n-]c(=O)[n-]c2[O-])cc(C(=O)N2CC[N-]C(=O)C2(C)C)n1Cc1ccccc1F (3D coordinates assigned)
C=c1c(=Cc2[n-]c(=O)[n-]c2[O-])cc(C(=O)N2CC[N-]C(=O)C2(C)C)n1Cc1ccccc1F (nonaromatic ring conformer: 135.26958154333138 kcal/mol)

>  <smiles>  (2644) 
C=c1c(=Cc2[nH]c(=O)[nH]c2O)cc(C(=O)N2CCNC(=O)C2(C)C)n1Cc1ccccc1F

>  <score_type>  (2644) 
oracle

>  <origin>  (2644) 
adg

>  <m_score__min__energy>  (2644) 
-17.41

>  <m_primary>  (2644) 
energy

$$$$
12:0
     RDKit          3D

 34 37  0  0  0  0  0  0  0  0999 V2000
   54.0090   22.2260   47.1860 O   0  0  0  0  0  0  0  0  0  0  0  0
   53.8700   23.0980   46.2880 C   0  0  0  0  0  0  0  0  0  0  0  0
   54.9600   23.9890   46.0210 N   0  0  0  0  0  0  0  0  0  0  0  0
   56.2870   23.6080   45.6230 C   0  0  0  0  0  0  0  0  0  0  0  0
   56.5250   22.4020   44.9390 C   0  0  0  0  0  0  0  0  0  0  0  0
   57.8240   22.0420   44.5760 C   0  0  0  0  0  0  0  0  0  0  0  0
   58.8970   22.8750   44.8960 C   0  0  0  0  0  0  0  0  0  0  0  0
   58.6750   24.0640   45.5940 C   0  0  0  0  0  0  0  0  0  0  0  0
   57.3730   24.4250   45.9860 C   0  0  0  0  0  0  0  0  0  0  0  0
   57.1230   25.6470   46.7000 N   0  0  0  0  0  0  0  0  0  0  0  0
   56.4270   26.7950   46.1970 C   0  0  0  0  0  0  0  0  0  0  0  0
   55.1830   26.7150   46.0140 O   0  0  0  0  0  0  0  0  0  0  0  0
   57.1180   28.0830   45.9360 C   0  0  0  0  0  0  0  0  0  0  0  0
   56.4570   29.1200   45.2690 C   0  0  0  0  0  0  0  0  0  0  0  0
   55.1450   28.9700   44.8330 O   0  0  0  0  0  0  0  0  0  0  0  0
   57.1030   30.2850   45.0250 N   0  0  0  0  0  0  0  0  0  0  0  0
   58.3860   30.4840   45.4140 C   0  0  0  0  0  0  0  0  0  0  0  0
   58.9350   31.5880   45.1530 O   0  0  0  0  0  0  0  0  0  0  0  0
   59.0720   29.4970   46.0790 N   0  0  0  0  0  0  0  0  0  0  0  0
   60.4590   29.7340   46.5290 C   0  0  0  0  0  0  0  0  0  0  0  0
   60.5310   30.9680   47.3910 C   0  0  0  0  0  0  0  0  0  0  0  0
   59.5800   31.1860   48.4030 C   0  0  0  0  0  0  0  0  0  0  0  0
   59.6300   32.3470   49.1800 C   0  0  0  0  0  0  0  0  0  0  0  0
   60.6260   33.2990   48.9530 C   0  0  0  0  0  0  0  0  0  0  0  0
   61.5740   33.0930   47.9480 C   0  0  0  0  0  0  0  0  0  0  0  0
   61.5280   31.9340   47.1680 C   0  0  0  0  0  0  0  0  0  0  0  0
   58.4430   28.3060   46.3560 C   0  0  0  0  0  0  0  0  0  0  0  0
   59.0480   27.4080   47.0050 O   0  0  0  0  0  0  0  0  0  0  0  0
   52.5780   23.1940   45.5760 C   0  0  0  0  0  0  0  0  0  0  0  0
   52.1350   24.4060   45.0200 C   0  0  0  0  0  0  0  0  0  0  0  0
   50.9030   24.4500   44.3640 C   0  0  0  0  0  0  0  0  0  0  0  0
   50.1190   23.2990   44.2780 C   0  0  0  0  0  0  0  0  0  0  0  0
   50.5790   22.1160   44.8590 C   0  0  0  0  0  0  0  0  0  0  0  0
   51.7830   22.0910   45.4910 N   0  0  0  0  0  0  0  0  0  0  0  0
  1  2  2  0
  2  3  1  0
  3  4  1  0
  4  5  2  0
  5  6  1  0
  6  7  2  0
  7  8  1  0
  8  9  2  0
  9 10  1  0
 10 11  1  0
 11 12  2  0
 11 13  1  0
 13 14  2  0
 14 15  1  0
 14 16  1  0
 16 17  1  0
 17 18  2  0
 17 19  1  0
 19 20  1  0
 20 21  1  0
 21 22  2  0
 22 23  1  0
 23 24  2  0
 24 25  1  0
 25 26  2  0
 19 27  1  0
 27 28  2  0
  2 29  1  0
 29 30  2  0
 30 31  1  0
 31 32  2  0
 32 33  1  0
 33 34  2  0
  9  4  1  0
 27 13  1  0
 34 29  1  0
 26 21  1  0
M  CHG  4   3  -1  10  -1  15  -1  16  -1
M  END
>  <UniqueID>  (2645) 
13

>  <SMILES>  (2645) 
O=C([N-]c1ccccc1[N-]C(=O)c1c([O-])[n-]c(=O)n(Cc2ccccc2)c1=O)c1ccccn1

>  <Energy>  (2645) 
74.88641164080376

>  <Genealogy>  (2645) 
O=C([N-]c1ccccc1[N-]C(=O)c1c([O-])[n-]c(=O)n(Cc2ccccc2)c1=O)c1ccccn1 (protonated)
O=C([N-]c1ccccc1[N-]C(=O)c1c([O-])[n-]c(=O)n(Cc2ccccc2)c1=O)c1ccccn1 (3D coordinates assigned)
O=C([N-]c1ccccc1[N-]C(=O)c1c([O-])[n-]c(=O)n(Cc2ccccc2)c1=O)c1ccccn1 (optimized conformer: 74.88641164080376 kcal/mol)

>  <smiles>  (2645) 
O=C(Nc1ccccc1NC(=O)c1c(O)[nH]c(=O)n(Cc2ccccc2)c1=O)c1ccccn1

>  <score_type>  (2645) 
oracle

>  <origin>  (2645) 
adg

>  <m_score__min__energy>  (2645) 
-16.23

>  <m_primary>  (2645) 
energy

$$$$
23:0
     RDKit          3D

 30 33  0  0  0  0  0  0  0  0999 V2000
   57.6960   30.1660   43.7580 C   0  0  0  0  0  0  0  0  0  0  0  0
   57.9460   30.3800   45.0600 C   0  0  0  0  0  0  0  0  0  0  0  0
   58.3540   29.4270   46.0070 C   0  0  0  0  0  0  0  0  0  0  0  0
   58.3740   28.0810   45.9550 C   0  0  0  0  0  0  0  0  0  0  0  0
   57.2060   27.1990   46.1060 C   0  0  0  0  0  0  0  0  0  0  0  0
   57.2490   25.9440   46.5910 N   0  0  0  0  0  0  0  0  0  0  0  0
   55.9890   25.4950   46.4090 C   0  0  0  0  0  0  0  0  0  0  0  0
   55.6210   24.3430   46.7580 O   0  0  0  0  0  0  0  0  0  0  0  0
   55.1540   26.3760   45.8150 N   0  0  0  0  0  0  0  0  0  0  0  0
   55.9460   27.4420   45.6180 C   0  0  0  0  0  0  0  0  0  0  0  0
   55.5260   28.6120   44.9970 O   0  0  0  0  0  0  0  0  0  0  0  0
   58.7580   30.1390   47.1220 C   0  0  0  0  0  0  0  0  0  0  0  0
   58.5480   31.4750   46.8440 C   0  0  0  0  0  0  0  0  0  0  0  0
   58.8330   32.5790   47.7860 C   0  0  0  0  0  0  0  0  0  0  0  0
   58.2480   32.5620   48.9040 O   0  0  0  0  0  0  0  0  0  0  0  0
   59.6790   33.7130   47.4450 N   0  0  0  0  0  0  0  0  0  0  0  0
   60.2960   34.3770   48.6270 C   0  0  0  0  0  0  0  0  0  0  0  0
   61.6270   33.7350   49.0710 C   0  0  0  0  0  0  0  0  0  0  0  0
   62.4880   33.4240   47.9230 N   0  0  0  0  0  0  0  0  0  0  0  0
   63.5030   32.4080   48.0480 C   0  0  0  0  0  0  0  0  0  0  0  0
   63.6340   31.5400   47.1440 O   0  0  0  0  0  0  0  0  0  0  0  0
   64.3860   32.3330   49.2240 C   0  0  0  0  0  0  0  0  0  0  0  0
   65.4850   33.0410   49.3500 O   0  0  0  0  0  0  0  0  0  0  0  0
   66.0330   32.7650   50.5110 C   0  0  0  0  0  0  0  0  0  0  0  0
   65.2600   31.8410   51.1810 C   0  0  0  0  0  0  0  0  0  0  0  0
   64.1930   31.5620   50.3560 C   0  0  0  0  0  0  0  0  0  0  0  0
   62.0540   33.8660   46.5980 C   0  0  0  0  0  0  0  0  0  0  0  0
   60.6320   33.3550   46.3540 C   0  0  0  0  0  0  0  0  0  0  0  0
   58.0040   31.6200   45.6140 N   0  0  0  0  0  0  0  0  0  0  0  0
   57.6490   32.8870   44.9680 C   0  0  0  0  0  0  0  0  0  0  0  0
  1  2  2  0
  2  3  1  0
  3  4  2  0
  4  5  1  0
  5  6  1  0
  6  7  1  0
  7  8  2  0
  7  9  1  0
  9 10  1  0
 10 11  1  0
  3 12  1  0
 12 13  2  0
 13 14  1  0
 14 15  2  0
 14 16  1  0
 16 17  1  0
 17 18  1  0
 18 19  1  0
 19 20  1  0
 20 21  2  0
 20 22  1  0
 22 23  1  0
 23 24  1  0
 24 25  2  0
 25 26  1  0
 19 27  1  0
 27 28  1  0
 13 29  1  0
 29 30  1  0
 29  2  1  0
 10  5  2  0
 28 16  1  0
 26 22  2  0
M  CHG  4   6  -1   9  -1  11  -1  16   1
M  END
>  <UniqueID>  (2646) 
23

>  <SMILES>  (2646) 
C=c1/c(=C\c2[n-]c(=O)[n-]c2[O-])cc(C(=O)[NH+]2CCN(C(=O)c3ccco3)CC2)n1C

>  <Energy>  (2646) 
169.36294288103085

>  <Genealogy>  (2646) 
C=c1c(=Cc2[n-]c(=O)[n-]c2[O-])cc(C(=O)[NH+]2CCN(C(=O)c3ccco3)CC2)n1C (protonated)
C=c1/c(=C\c2[n-]c(=O)[n-]c2[O-])cc(C(=O)[NH+]2CCN(C(=O)c3ccco3)CC2)n1C (cis-trans isomerization)
C=c1/c(=C\c2[n-]c(=O)[n-]c2[O-])cc(C(=O)[NH+]2CCN(C(=O)c3ccco3)CC2)n1C (3D coordinates assigned)
C=c1/c(=C\c2[n-]c(=O)[n-]c2[O-])cc(C(=O)[NH+]2CCN(C(=O)c3ccco3)CC2)n1C (nonaromatic ring conformer: 169.36294288103085 kcal/mol)

>  <smiles>  (2646) 
C=c1c(=Cc2[nH]c(=O)[nH]c2O)cc(C(=O)N2CCN(C(=O)c3ccco3)CC2)n1C

>  <score_type>  (2646) 
oracle

>  <origin>  (2646) 
adg

>  <m_score__min__energy>  (2646) 
-16.489999999999998

>  <m_primary>  (2646) 
energy

$$$$
25:0
     RDKit          3D

 27 29  0  0  0  0  0  0  0  0999 V2000
   61.1420   26.6860   50.2830 C   0  0  0  0  0  0  0  0  0  0  0  0
   60.4410   27.2960   49.1120 C   0  0  0  0  0  0  0  0  0  0  0  0
   60.7350   28.5960   48.7070 C   0  0  0  0  0  0  0  0  0  0  0  0
   60.0850   29.1390   47.5920 C   0  0  0  0  0  0  0  0  0  0  0  0
   60.4150   30.5190   47.1440 C   0  0  0  0  0  0  0  0  0  0  0  0
   61.5900   30.9600   47.2820 O   0  0  0  0  0  0  0  0  0  0  0  0
   59.4150   31.3420   46.5220 N   0  0  0  0  0  0  0  0  0  0  0  0
   59.5120   32.7720   46.4040 C   0  0  0  0  0  0  0  0  0  0  0  0
   59.9650   33.5670   47.4740 C   0  0  0  0  0  0  0  0  0  0  0  0
   60.0290   34.9580   47.3410 C   0  0  0  0  0  0  0  0  0  0  0  0
   59.6310   35.5670   46.1480 C   0  0  0  0  0  0  0  0  0  0  0  0
   59.1610   34.7880   45.0890 C   0  0  0  0  0  0  0  0  0  0  0  0
   59.0950   33.3970   45.2170 C   0  0  0  0  0  0  0  0  0  0  0  0
   59.1480   28.3370   46.9080 C   0  0  0  0  0  0  0  0  0  0  0  0
   58.5640   28.7830   45.8800 O   0  0  0  0  0  0  0  0  0  0  0  0
   58.8820   27.0660   47.3550 N   0  0  0  0  0  0  0  0  0  0  0  0
   57.9250   26.2170   46.6940 C   0  0  0  0  0  0  0  0  0  0  0  0
   58.3040   24.9690   46.1780 C   0  0  0  0  0  0  0  0  0  0  0  0
   57.3730   24.1630   45.5190 C   0  0  0  0  0  0  0  0  0  0  0  0
   56.0440   24.5910   45.3490 C   0  0  0  0  0  0  0  0  0  0  0  0
   55.0800   23.7080   44.6430 C   0  0  0  0  0  0  0  0  0  0  0  0
   55.4070   23.1000   43.5900 O   0  0  0  0  0  0  0  0  0  0  0  0
   53.7910   23.5400   45.1380 O   0  0  0  0  0  0  0  0  0  0  0  0
   55.6680   25.8560   45.8540 C   0  0  0  0  0  0  0  0  0  0  0  0
   54.3700   26.3330   45.7090 O   0  0  0  0  0  0  0  0  0  0  0  0
   56.6060   26.6580   46.5130 C   0  0  0  0  0  0  0  0  0  0  0  0
   59.5260   26.5740   48.4170 N   0  0  0  0  0  0  0  0  0  0  0  0
  1  2  1  0
  2  3  1  0
  3  4  2  0
  4  5  1  0
  5  6  2  0
  5  7  1  0
  7  8  1  0
  8  9  2  0
  9 10  1  0
 10 11  2  0
 11 12  1  0
 12 13  2  0
  4 14  1  0
 14 15  2  0
 14 16  1  0
 16 17  1  0
 17 18  2  0
 18 19  1  0
 19 20  2  0
 20 21  1  0
 21 22  2  0
 21 23  1  0
 20 24  1  0
 24 25  1  0
 24 26  2  0
 16 27  1  0
 27  2  2  0
 13  8  1  0
 26 17  1  0
M  CHG  2  23  -1  25  -1
M  END
>  <UniqueID>  (2647) 
25

>  <SMILES>  (2647) 
Cc1cc(C(=O)Nc2ccccc2)c(=O)n(-c2ccc(C(=O)[O-])c([O-])c2)n1

>  <Energy>  (2647) 
59.22414897881983

>  <Genealogy>  (2647) 
Cc1cc(C(=O)Nc2ccccc2)c(=O)n(-c2ccc(C(=O)[O-])c([O-])c2)n1 (protonated)
Cc1cc(C(=O)Nc2ccccc2)c(=O)n(-c2ccc(C(=O)[O-])c([O-])c2)n1 (3D coordinates assigned)
Cc1cc(C(=O)Nc2ccccc2)c(=O)n(-c2ccc(C(=O)[O-])c([O-])c2)n1 (optimized conformer: 59.22414897881983 kcal/mol)

>  <smiles>  (2647) 
Cc1cc(C(=O)Nc2ccccc2)c(=O)n(-c2ccc(C(=O)O)c(O)c2)n1

>  <score_type>  (2647) 
oracle

>  <origin>  (2647) 
adg

>  <m_score__min__energy>  (2647) 
-14.039999999999999

>  <m_primary>  (2647) 
energy

$$$$
58:0
     RDKit          3D

 30 33  0  0  0  0  0  0  0  0999 V2000
   67.2870   31.8940   51.3670 O   0  0  0  0  0  0  0  0  0  0  0  0
   66.0540   32.0700   52.0150 C   0  0  0  0  0  0  0  0  0  0  0  0
   64.9460   32.3800   50.9930 C   0  0  0  0  0  0  0  0  0  0  0  0
   63.8480   33.2970   51.5990 C   0  0  0  0  0  0  0  0  0  0  0  0
   63.2040   34.2430   50.5700 C   0  0  0  0  0  0  0  0  0  0  0  0
   63.1860   33.6270   49.2370 N   0  0  0  0  0  0  0  0  0  0  0  0
   61.9510   33.4670   48.5110 C   0  0  0  0  0  0  0  0  0  0  0  0
   61.9620   33.2700   47.1200 C   0  0  0  0  0  0  0  0  0  0  0  0
   60.7650   33.1000   46.4190 C   0  0  0  0  0  0  0  0  0  0  0  0
   59.5370   33.1140   47.0980 C   0  0  0  0  0  0  0  0  0  0  0  0
   58.2460   32.9130   46.3450 C   0  0  0  0  0  0  0  0  0  0  0  0
   58.2130   31.5820   45.7160 N   0  0  0  0  0  0  0  0  0  0  0  0
   57.9800   31.3440   44.4030 C   0  0  0  0  0  0  0  0  0  0  0  0
   57.7000   32.3970   43.3720 C   0  0  0  0  0  0  0  0  0  0  0  0
   58.0660   29.9960   44.1270 C   0  0  0  0  0  0  0  0  0  0  0  0
   58.3680   29.3630   45.3240 C   0  0  0  0  0  0  0  0  0  0  0  0
   58.5030   28.0350   45.5130 C   0  0  0  0  0  0  0  0  0  0  0  0
   57.3760   27.1160   45.7700 C   0  0  0  0  0  0  0  0  0  0  0  0
   56.0410   27.4120   45.6140 C   0  0  0  0  0  0  0  0  0  0  0  0
   55.5270   28.5960   45.1000 O   0  0  0  0  0  0  0  0  0  0  0  0
   55.2760   26.3860   46.0360 N   0  0  0  0  0  0  0  0  0  0  0  0
   56.1900   25.4890   46.4620 C   0  0  0  0  0  0  0  0  0  0  0  0
   55.8730   24.3760   46.9580 O   0  0  0  0  0  0  0  0  0  0  0  0
   57.4670   25.8960   46.3270 N   0  0  0  0  0  0  0  0  0  0  0  0
   58.4520   30.3720   46.2920 C   0  0  0  0  0  0  0  0  0  0  0  0
   58.7400   30.1890   47.5920 C   0  0  0  0  0  0  0  0  0  0  0  0
   59.5240   33.3060   48.4870 C   0  0  0  0  0  0  0  0  0  0  0  0
   60.7210   33.4780   49.1880 C   0  0  0  0  0  0  0  0  0  0  0  0
   64.4500   33.1610   48.6450 C   0  0  0  0  0  0  0  0  0  0  0  0
   65.5430   32.9930   49.7120 C   0  0  0  0  0  0  0  0  0  0  0  0
  1  2  1  0
  2  3  1  0
  3  4  1  0
  4  5  1  0
  5  6  1  0
  6  7  1  0
  7  8  2  0
  8  9  1  0
  9 10  2  0
 10 11  1  0
 11 12  1  0
 12 13  1  0
 13 14  1  0
 13 15  2  0
 15 16  1  0
 16 17  2  0
 17 18  1  0
 18 19  2  0
 19 20  1  0
 19 21  1  0
 21 22  1  0
 22 23  2  0
 22 24  1  0
 16 25  1  0
 25 26  2  0
 10 27  1  0
 27 28  2  0
  6 29  1  0
 29 30  1  0
 30  3  1  0
 28  7  1  0
 25 12  1  0
 24 18  1  0
M  CHG  2  20  -1  21  -1
M  END
>  <UniqueID>  (2648) 
56

>  <SMILES>  (2648) 
C=c1/c(=C/c2[nH]c(=O)[n-]c2[O-])cc(C)n1Cc1ccc(N2CCC(CO)CC2)cc1

>  <Energy>  (2648) 
128.02203991400694

>  <Genealogy>  (2648) 
C=c1c(=Cc2[nH]c(=O)[n-]c2[O-])cc(C)n1Cc1ccc(N2CCC(CO)CC2)cc1 (protonated)
C=c1/c(=C/c2[nH]c(=O)[n-]c2[O-])cc(C)n1Cc1ccc(N2CCC(CO)CC2)cc1 (cis-trans isomerization)
C=c1/c(=C/c2[nH]c(=O)[n-]c2[O-])cc(C)n1Cc1ccc(N2CCC(CO)CC2)cc1 (3D coordinates assigned)
C=c1/c(=C/c2[nH]c(=O)[n-]c2[O-])cc(C)n1Cc1ccc(N2CCC(CO)CC2)cc1 (nonaromatic ring conformer: 128.02203991400694 kcal/mol)

>  <smiles>  (2648) 
C=c1c(=Cc2[nH]c(=O)[nH]c2O)cc(C)n1Cc1ccc(N2CCC(CO)CC2)cc1

>  <score_type>  (2648) 
oracle

>  <origin>  (2648) 
adg

>  <m_score__min__energy>  (2648) 
-15.369999999999999

>  <m_primary>  (2648) 
energy

$$$$
59:0
     RDKit          3D

 30 33  0  0  0  0  0  0  0  0999 V2000
   59.4410   27.8270   48.0190 C   0  0  0  0  0  0  0  0  0  0  0  0
   58.8890   28.5760   47.0510 C   0  0  0  0  0  0  0  0  0  0  0  0
   58.1950   28.1160   45.9190 C   0  0  0  0  0  0  0  0  0  0  0  0
   58.0230   26.8740   45.4250 C   0  0  0  0  0  0  0  0  0  0  0  0
   57.2870   25.7830   46.0770 C   0  0  0  0  0  0  0  0  0  0  0  0
   57.8810   24.7240   46.6530 N   0  0  0  0  0  0  0  0  0  0  0  0
   56.8530   24.0650   47.2300 C   0  0  0  0  0  0  0  0  0  0  0  0
   57.0080   22.9890   47.8650 O   0  0  0  0  0  0  0  0  0  0  0  0
   55.6460   24.6530   47.0830 N   0  0  0  0  0  0  0  0  0  0  0  0
   55.9410   25.7480   46.3640 C   0  0  0  0  0  0  0  0  0  0  0  0
   55.0030   26.7070   46.0000 O   0  0  0  0  0  0  0  0  0  0  0  0
   57.6760   29.2400   45.3020 C   0  0  0  0  0  0  0  0  0  0  0  0
   58.0930   30.3330   46.0300 C   0  0  0  0  0  0  0  0  0  0  0  0
   57.7750   31.7280   45.6480 C   0  0  0  0  0  0  0  0  0  0  0  0
   56.6360   31.9670   45.1580 O   0  0  0  0  0  0  0  0  0  0  0  0
   58.6670   32.8190   45.9740 N   0  0  0  0  0  0  0  0  0  0  0  0
   58.2870   33.4180   47.2700 C   0  0  0  0  0  0  0  0  0  0  0  0
   59.0090   34.7640   47.4990 C   0  0  0  0  0  0  0  0  0  0  0  0
   60.1030   34.9120   46.6160 O   0  0  0  0  0  0  0  0  0  0  0  0
   59.6380   34.9970   45.2790 C   0  0  0  0  0  0  0  0  0  0  0  0
   58.6720   33.8460   44.9130 C   0  0  0  0  0  0  0  0  0  0  0  0
   58.8350   29.9350   47.0960 N   0  0  0  0  0  0  0  0  0  0  0  0
   59.5510   30.8070   48.0400 C   0  0  0  0  0  0  0  0  0  0  0  0
   60.8980   31.2490   47.5250 C   0  0  0  0  0  0  0  0  0  0  0  0
   61.2060   30.9730   46.3340 O   0  0  0  0  0  0  0  0  0  0  0  0
   61.7720   32.0920   48.2920 N   0  0  0  0  0  0  0  0  0  0  0  0
   62.3440   31.7240   49.5760 C   0  0  0  0  0  0  0  0  0  0  0  0
   63.4990   32.6900   49.8030 C   0  0  0  0  0  0  0  0  0  0  0  0
   63.2710   33.8420   48.8290 C   0  0  0  0  0  0  0  0  0  0  0  0
   62.3930   33.2750   47.7240 C   0  0  0  0  0  0  0  0  0  0  0  0
  1  2  2  0
  2  3  1  0
  3  4  2  0
  4  5  1  0
  5  6  1  0
  6  7  1  0
  7  8  2  0
  7  9  1  0
  9 10  1  0
 10 11  1  0
  3 12  1  0
 12 13  2  0
 13 14  1  0
 14 15  2  0
 14 16  1  0
 16 17  1  0
 17 18  1  0
 18 19  1  0
 19 20  1  0
 20 21  1  0
 13 22  1  0
 22 23  1  0
 23 24  1  0
 24 25  2  0
 24 26  1  0
 26 27  1  0
 27 28  1  0
 28 29  1  0
 29 30  1  0
 22  2  1  0
 30 26  1  0
 10  5  2  0
 21 16  1  0
M  CHG  4   6  -1   9  -1  11  -1  16   1
M  END
>  <UniqueID>  (2649) 
57

>  <SMILES>  (2649) 
C=c1/c(=C\c2[n-]c(=O)[n-]c2[O-])cc(C(=O)[NH+]2CCOCC2)n1CC(=O)N1CCCC1

>  <Energy>  (2649) 
141.58186316173945

>  <Genealogy>  (2649) 
C=c1c(=Cc2[n-]c(=O)[n-]c2[O-])cc(C(=O)[NH+]2CCOCC2)n1CC(=O)N1CCCC1 (protonated)
C=c1/c(=C\c2[n-]c(=O)[n-]c2[O-])cc(C(=O)[NH+]2CCOCC2)n1CC(=O)N1CCCC1 (cis-trans isomerization)
C=c1/c(=C\c2[n-]c(=O)[n-]c2[O-])cc(C(=O)[NH+]2CCOCC2)n1CC(=O)N1CCCC1 (3D coordinates assigned)
C=c1/c(=C\c2[n-]c(=O)[n-]c2[O-])cc(C(=O)[NH+]2CCOCC2)n1CC(=O)N1CCCC1 (nonaromatic ring conformer: 141.58186316173945 kcal/mol)

>  <smiles>  (2649) 
C=c1c(=Cc2[nH]c(=O)[nH]c2O)cc(C(=O)N2CCOCC2)n1CC(=O)N1CCCC1

>  <score_type>  (2649) 
oracle

>  <origin>  (2649) 
adg

>  <m_score__min__energy>  (2649) 
-15.26

>  <m_primary>  (2649) 
energy

$$$$
63:0
     RDKit          3D

 29 32  0  0  0  0  0  0  0  0999 V2000
   59.1610   32.1180   51.6310 C   0  0  0  0  0  0  0  0  0  0  0  0
   58.0690   31.8110   50.9550 C   0  0  0  0  0  0  0  0  0  0  0  0
   58.1410   30.4210   50.4330 C   0  0  0  0  0  0  0  0  0  0  0  0
   59.5150   29.9520   50.7480 N   0  0  0  0  0  0  0  0  0  0  0  0
   60.3310   29.8760   49.5500 C   0  0  0  0  0  0  0  0  0  0  0  0
   61.5870   29.9960   49.6250 O   0  0  0  0  0  0  0  0  0  0  0  0
   59.7260   29.6430   48.2120 C   0  0  0  0  0  0  0  0  0  0  0  0
   59.3320   28.3890   47.7490 C   0  0  0  0  0  0  0  0  0  0  0  0
   58.5580   28.6100   46.6190 C   0  0  0  0  0  0  0  0  0  0  0  0
   57.7460   27.7210   46.0110 C   0  0  0  0  0  0  0  0  0  0  0  0
   57.1840   26.5020   46.6340 C   0  0  0  0  0  0  0  0  0  0  0  0
   57.9710   25.4870   47.0440 N   0  0  0  0  0  0  0  0  0  0  0  0
   57.1240   24.4510   47.1920 C   0  0  0  0  0  0  0  0  0  0  0  0
   57.5110   23.2930   47.4940 O   0  0  0  0  0  0  0  0  0  0  0  0
   55.8400   24.7220   46.8740 N   0  0  0  0  0  0  0  0  0  0  0  0
   55.8880   26.0190   46.5260 C   0  0  0  0  0  0  0  0  0  0  0  0
   54.8010   26.7020   45.9910 O   0  0  0  0  0  0  0  0  0  0  0  0
   58.6150   29.9860   46.3560 C   0  0  0  0  0  0  0  0  0  0  0  0
   58.0920   30.6040   45.2850 C   0  0  0  0  0  0  0  0  0  0  0  0
   59.2660   30.6170   47.3740 N   0  0  0  0  0  0  0  0  0  0  0  0
   59.3030   32.0730   47.6450 C   0  0  0  0  0  0  0  0  0  0  0  0
   60.7090   32.5330   47.9260 C   0  0  0  0  0  0  0  0  0  0  0  0
   61.7920   32.0230   47.1840 C   0  0  0  0  0  0  0  0  0  0  0  0
   63.0920   32.4680   47.4450 C   0  0  0  0  0  0  0  0  0  0  0  0
   63.3260   33.3970   48.4660 C   0  0  0  0  0  0  0  0  0  0  0  0
   64.5890   33.8180   48.7290 F   0  0  0  0  0  0  0  0  0  0  0  0
   62.2540   33.8950   49.2200 C   0  0  0  0  0  0  0  0  0  0  0  0
   60.9510   33.4620   48.9530 C   0  0  0  0  0  0  0  0  0  0  0  0
   60.0640   30.9410   51.7030 C   0  0  0  0  0  0  0  0  0  0  0  0
  1  2  2  0
  2  3  1  0
  3  4  1  0
  4  5  1  0
  5  6  2  0
  5  7  1  0
  7  8  2  0
  8  9  1  0
  9 10  2  0
 10 11  1  0
 11 12  1  0
 12 13  1  0
 13 14  2  0
 13 15  1  0
 15 16  1  0
 16 17  1  0
  9 18  1  0
 18 19  2  0
 18 20  1  0
 20 21  1  0
 21 22  1  0
 22 23  2  0
 23 24  1  0
 24 25  2  0
 25 26  1  0
 25 27  1  0
 27 28  2  0
  4 29  1  0
 29  1  1  0
 20  7  1  0
 28 22  1  0
 16 11  2  0
M  CHG  4   4   1  12  -1  15  -1  17  -1
M  END
>  <UniqueID>  (2650) 
61

>  <SMILES>  (2650) 
C=c1/c(=C/c2[n-]c(=O)[n-]c2[O-])cc(C(=O)[NH+]2CC=CC2)n1Cc1ccc(F)cc1

>  <Energy>  (2650) 
139.66204783471778

>  <Genealogy>  (2650) 
C=c1c(=Cc2[n-]c(=O)[n-]c2[O-])cc(C(=O)[NH+]2CC=CC2)n1Cc1ccc(F)cc1 (protonated)
C=c1/c(=C/c2[n-]c(=O)[n-]c2[O-])cc(C(=O)[NH+]2CC=CC2)n1Cc1ccc(F)cc1 (cis-trans isomerization)
C=c1/c(=C/c2[n-]c(=O)[n-]c2[O-])cc(C(=O)[NH+]2CC=CC2)n1Cc1ccc(F)cc1 (3D coordinates assigned)
C=c1/c(=C/c2[n-]c(=O)[n-]c2[O-])cc(C(=O)[NH+]2CC=CC2)n1Cc1ccc(F)cc1 (nonaromatic ring conformer: 139.66204783471778 kcal/mol)

>  <smiles>  (2650) 
C=c1c(=Cc2[nH]c(=O)[nH]c2O)cc(C(=O)N2CC=CC2)n1Cc1ccc(F)cc1

>  <score_type>  (2650) 
oracle

>  <origin>  (2650) 
adg

>  <m_score__min__energy>  (2650) 
-15

>  <m_primary>  (2650) 
energy

$$$$
77:0
     RDKit          3D

 34 38  0  0  0  0  0  0  0  0999 V2000
   52.9190   26.6940   53.6810 C   0  0  0  0  0  0  0  0  0  0  0  0
   53.7110   27.7370   53.3760 C   0  0  0  0  0  0  0  0  0  0  0  0
   53.3080   28.9400   52.7780 C   0  0  0  0  0  0  0  0  0  0  0  0
   52.0670   29.2560   52.3480 C   0  0  0  0  0  0  0  0  0  0  0  0
   51.6000   30.6090   51.9670 C   0  0  0  0  0  0  0  0  0  0  0  0
   51.3080   31.6160   52.8080 N   0  0  0  0  0  0  0  0  0  0  0  0
   50.9720   32.6330   51.9890 C   0  0  0  0  0  0  0  0  0  0  0  0
   50.6300   33.7650   52.4120 O   0  0  0  0  0  0  0  0  0  0  0  0
   51.0270   32.3360   50.6720 N   0  0  0  0  0  0  0  0  0  0  0  0
   51.4260   31.0550   50.6800 C   0  0  0  0  0  0  0  0  0  0  0  0
   51.6310   30.3060   49.5270 O   0  0  0  0  0  0  0  0  0  0  0  0
   54.4520   29.7250   52.6980 C   0  0  0  0  0  0  0  0  0  0  0  0
   55.4910   28.9800   53.2180 C   0  0  0  0  0  0  0  0  0  0  0  0
   56.8710   29.4850   53.3920 C   0  0  0  0  0  0  0  0  0  0  0  0
   57.6630   28.8320   54.1290 O   0  0  0  0  0  0  0  0  0  0  0  0
   57.3210   30.7000   52.7570 N   0  0  0  0  0  0  0  0  0  0  0  0
   56.6670   31.1890   51.5310 C   0  0  0  0  0  0  0  0  0  0  0  0
   57.5130   32.2640   50.8490 C   0  0  0  0  0  0  0  0  0  0  0  0
   58.9210   31.8400   50.8600 N   0  0  0  0  0  0  0  0  0  0  0  0
   59.7660   32.5780   49.8980 C   0  0  0  0  0  0  0  0  0  0  0  0
   59.1900   32.6400   48.5060 C   0  0  0  0  0  0  0  0  0  0  0  0
   58.8520   31.3090   47.5270 S   0  0  0  0  0  0  0  0  0  0  0  0
   58.2630   32.2050   46.2310 C   0  0  0  0  0  0  0  0  0  0  0  0
   57.7380   31.6410   45.0240 N   0  0  0  0  0  0  0  0  0  0  0  0
   56.8520   30.6580   45.0060 N   0  0  0  0  0  0  0  0  0  0  0  0
   56.5600   30.3980   43.7170 C   0  0  0  0  0  0  0  0  0  0  0  0
   57.2790   31.2460   42.8990 C   0  0  0  0  0  0  0  0  0  0  0  0
   58.0170   32.0250   43.7620 C   0  0  0  0  0  0  0  0  0  0  0  0
   58.3330   33.5590   46.5420 C   0  0  0  0  0  0  0  0  0  0  0  0
   58.8550   33.8000   47.8160 C   0  0  0  0  0  0  0  0  0  0  0  0
   59.5010   31.7780   52.2240 C   0  0  0  0  0  0  0  0  0  0  0  0
   58.4530   31.4550   53.3120 C   0  0  0  0  0  0  0  0  0  0  0  0
   55.0460   27.7680   53.6230 N   0  0  0  0  0  0  0  0  0  0  0  0
   55.8560   26.7020   54.2250 C   0  0  0  0  0  0  0  0  0  0  0  0
  1  2  2  0
  2  3  1  0
  3  4  2  0
  4  5  1  0
  5  6  1  0
  6  7  1  0
  7  8  2  0
  7  9  1  0
  9 10  1  0
 10 11  1  0
  3 12  1  0
 12 13  2  0
 13 14  1  0
 14 15  2  0
 14 16  1  0
 16 17  1  0
 17 18  1  0
 18 19  1  0
 19 20  1  0
 20 21  1  0
 21 22  1  0
 22 23  1  0
 23 24  1  0
 24 25  1  0
 25 26  2  0
 26 27  1  0
 27 28  2  0
 23 29  2  0
 29 30  1  0
 19 31  1  0
 31 32  1  0
 13 33  1  0
 33 34  1  0
 33  2  1  0
 10  5  2  0
 32 16  1  0
 30 21  2  0
 28 24  1  0
M  CHG  3   6  -1   9  -1  11  -1
M  END
>  <UniqueID>  (2651) 
73

>  <SMILES>  (2651) 
C=c1/c(=C/c2[n-]c(=O)[n-]c2[O-])cc(C(=O)N2CCN(Cc3ccc(-n4cccn4)s3)CC2)n1C

>  <Energy>  (2651) 
193.68768918211504

>  <Genealogy>  (2651) 
C=c1c(=Cc2[n-]c(=O)[n-]c2[O-])cc(C(=O)N2CCN(Cc3ccc(-n4cccn4)s3)CC2)n1C (protonated)
C=c1/c(=C/c2[n-]c(=O)[n-]c2[O-])cc(C(=O)N2CCN(Cc3ccc(-n4cccn4)s3)CC2)n1C (cis-trans isomerization)
C=c1/c(=C/c2[n-]c(=O)[n-]c2[O-])cc(C(=O)N2CCN(Cc3ccc(-n4cccn4)s3)CC2)n1C (3D coordinates assigned)
C=c1/c(=C/c2[n-]c(=O)[n-]c2[O-])cc(C(=O)N2CCN(Cc3ccc(-n4cccn4)s3)CC2)n1C (nonaromatic ring conformer: 193.68768918211504 kcal/mol)

>  <smiles>  (2651) 
C=c1c(=Cc2[nH]c(=O)[nH]c2O)cc(C(=O)N2CCN(Cc3ccc(-n4cccn4)s3)CC2)n1C

>  <score_type>  (2651) 
oracle

>  <origin>  (2651) 
adg

>  <m_score__min__energy>  (2651) 
-18.969999999999999

>  <m_primary>  (2651) 
energy

$$$$
81:0
     RDKit          3D

 25 27  0  0  0  0  0  0  0  0999 V2000
   53.9870   28.4430   53.8450 C   0  0  0  0  0  0  0  0  0  0  0  0
   54.6260   29.4500   53.2390 C   0  0  0  0  0  0  0  0  0  0  0  0
   55.9700   29.4810   53.1390 N   0  0  0  0  0  0  0  0  0  0  0  0
   56.2930   30.5050   52.3250 C   0  0  0  0  0  0  0  0  0  0  0  0
   57.6870   30.8340   51.9560 C   0  0  0  0  0  0  0  0  0  0  0  0
   58.6250   30.1710   52.4750 O   0  0  0  0  0  0  0  0  0  0  0  0
   58.0400   31.9360   50.9920 C   0  0  0  0  0  0  0  0  0  0  0  0
   58.7580   31.3730   49.7880 C   0  0  0  0  0  0  0  0  0  0  0  0
   58.7060   29.9900   49.5430 C   0  0  0  0  0  0  0  0  0  0  0  0
   59.3830   29.4360   48.4540 C   0  0  0  0  0  0  0  0  0  0  0  0
   60.1270   30.2540   47.6020 C   0  0  0  0  0  0  0  0  0  0  0  0
   60.7840   29.7140   46.5470 F   0  0  0  0  0  0  0  0  0  0  0  0
   60.1980   31.6280   47.8400 C   0  0  0  0  0  0  0  0  0  0  0  0
   59.5230   32.1950   48.9290 C   0  0  0  0  0  0  0  0  0  0  0  0
   59.6640   33.9310   49.1810 Cl  0  0  0  0  0  0  0  0  0  0  0  0
   55.1430   31.1480   51.8960 C   0  0  0  0  0  0  0  0  0  0  0  0
   54.0750   30.5100   52.5060 C   0  0  0  0  0  0  0  0  0  0  0  0
   52.7990   30.9190   52.3640 C   0  0  0  0  0  0  0  0  0  0  0  0
   52.1140   31.1540   51.0820 C   0  0  0  0  0  0  0  0  0  0  0  0
   52.0660   30.2720   50.0670 N   0  0  0  0  0  0  0  0  0  0  0  0
   51.2220   30.8560   49.1880 C   0  0  0  0  0  0  0  0  0  0  0  0
   50.9280   30.3350   48.0810 O   0  0  0  0  0  0  0  0  0  0  0  0
   50.7090   32.0380   49.5940 N   0  0  0  0  0  0  0  0  0  0  0  0
   51.2730   32.2020   50.8010 C   0  0  0  0  0  0  0  0  0  0  0  0
   51.0200   33.2870   51.6310 O   0  0  0  0  0  0  0  0  0  0  0  0
  1  2  2  0
  2  3  1  0
  3  4  1  0
  4  5  1  0
  5  6  2  0
  5  7  1  0
  7  8  1  0
  8  9  2  0
  9 10  1  0
 10 11  2  0
 11 12  1  0
 11 13  1  0
 13 14  2  0
 14 15  1  0
  4 16  2  0
 16 17  1  0
 17 18  2  3
 18 19  1  0
 19 20  1  0
 20 21  1  0
 21 22  2  0
 21 23  1  0
 23 24  1  0
 24 25  1  0
 17  2  1  0
 24 19  2  0
 14  8  1  0
M  CHG  3  20  -1  23  -1  25  -1
M  END
>  <UniqueID>  (2652) 
77

>  <SMILES>  (2652) 
C=c1[nH]c(C(=O)Cc2ccc(F)cc2Cl)cc1=Cc1[n-]c(=O)[n-]c1[O-]

>  <Energy>  (2652) 
104.9312372299059

>  <Genealogy>  (2652) 
C=c1[nH]c(C(=O)Cc2ccc(F)cc2Cl)cc1=Cc1[n-]c(=O)[n-]c1[O-] (protonated)
C=c1[nH]c(C(=O)Cc2ccc(F)cc2Cl)cc1=Cc1[n-]c(=O)[n-]c1[O-] (3D coordinates assigned)
C=c1[nH]c(C(=O)Cc2ccc(F)cc2Cl)cc1=Cc1[n-]c(=O)[n-]c1[O-] (optimized conformer: 104.9312372299059 kcal/mol)

>  <smiles>  (2652) 
C=c1[nH]c(C(=O)Cc2ccc(F)cc2Cl)cc1=Cc1[nH]c(=O)[nH]c1O

>  <score_type>  (2652) 
oracle

>  <origin>  (2652) 
adg

>  <m_score__min__energy>  (2652) 
-16.940000000000001

>  <m_primary>  (2652) 
energy

$$$$
91:0
     RDKit          3D

 29 32  0  0  0  0  0  0  0  0999 V2000
   53.7980   28.3470   53.7700 C   0  0  0  0  0  0  0  0  0  0  0  0
   54.4420   29.4200   53.2870 C   0  0  0  0  0  0  0  0  0  0  0  0
   53.9620   30.3320   52.3300 C   0  0  0  0  0  0  0  0  0  0  0  0
   52.7310   30.5040   51.8100 C   0  0  0  0  0  0  0  0  0  0  0  0
   51.7090   31.4330   52.3210 C   0  0  0  0  0  0  0  0  0  0  0  0
   51.4470   31.6430   53.6230 N   0  0  0  0  0  0  0  0  0  0  0  0
   50.5500   32.6520   53.6010 C   0  0  0  0  0  0  0  0  0  0  0  0
   50.0510   33.1390   54.6490 O   0  0  0  0  0  0  0  0  0  0  0  0
   50.2460   33.1150   52.3690 N   0  0  0  0  0  0  0  0  0  0  0  0
   50.9980   32.3390   51.5710 C   0  0  0  0  0  0  0  0  0  0  0  0
   51.0410   32.4620   50.1890 O   0  0  0  0  0  0  0  0  0  0  0  0
   55.0380   31.1260   51.9760 C   0  0  0  0  0  0  0  0  0  0  0  0
   56.1000   30.7240   52.7550 C   0  0  0  0  0  0  0  0  0  0  0  0
   57.4370   31.3290   52.7070 C   0  0  0  0  0  0  0  0  0  0  0  0
   57.6300   32.4310   53.2870 O   0  0  0  0  0  0  0  0  0  0  0  0
   58.5190   30.6650   52.0340 N   0  0  0  0  0  0  0  0  0  0  0  0
   59.8960   30.8370   52.5080 C   0  0  0  0  0  0  0  0  0  0  0  0
   60.6180   29.4870   52.5000 C   0  0  0  0  0  0  0  0  0  0  0  0
   60.3930   28.7520   51.2440 N   0  0  0  0  0  0  0  0  0  0  0  0
   61.1180   27.5300   50.9930 C   0  0  0  0  0  0  0  0  0  0  0  0
   61.2220   27.0870   49.8180 O   0  0  0  0  0  0  0  0  0  0  0  0
   61.8050   26.7900   52.1090 C   0  0  0  0  0  0  0  0  0  0  0  0
   61.2400   25.4040   52.3850 C   0  0  0  0  0  0  0  0  0  0  0  0
   62.5770   25.5490   51.6820 C   0  0  0  0  0  0  0  0  0  0  0  0
   59.5390   29.3340   50.1980 C   0  0  0  0  0  0  0  0  0  0  0  0
   58.2500   29.8910   50.8120 C   0  0  0  0  0  0  0  0  0  0  0  0
   55.7440   29.7000   53.5630 N   0  0  0  0  0  0  0  0  0  0  0  0
   56.6290   29.0130   54.5170 C   0  0  0  0  0  0  0  0  0  0  0  0
   57.4440   27.9250   53.8230 C   0  0  0  0  0  0  0  0  0  0  0  0
  1  2  2  0
  2  3  1  0
  3  4  2  0
  4  5  1  0
  5  6  1  0
  6  7  1  0
  7  8  2  0
  7  9  1  0
  9 10  1  0
 10 11  1  0
  3 12  1  0
 12 13  2  0
 13 14  1  0
 14 15  2  0
 14 16  1  0
 16 17  1  0
 17 18  1  0
 18 19  1  0
 19 20  1  0
 20 21  2  0
 20 22  1  0
 22 23  1  0
 23 24  1  0
 19 25  1  0
 25 26  1  0
 13 27  1  0
 27 28  1  0
 28 29  1  0
 27  2  1  0
 10  5  2  0
 26 16  1  0
 24 22  1  0
M  CHG  3   6  -1   9  -1  11  -1
M  END
>  <UniqueID>  (2653) 
84

>  <SMILES>  (2653) 
C=c1/c(=C\c2[n-]c(=O)[n-]c2[O-])cc(C(=O)N2CCN(C(=O)C3CC3)CC2)n1CC

>  <Energy>  (2653) 
388.56427426256204

>  <Genealogy>  (2653) 
C=c1c(=Cc2[n-]c(=O)[n-]c2[O-])cc(C(=O)N2CCN(C(=O)C3CC3)CC2)n1CC (protonated)
C=c1/c(=C\c2[n-]c(=O)[n-]c2[O-])cc(C(=O)N2CCN(C(=O)C3CC3)CC2)n1CC (cis-trans isomerization)
C=c1/c(=C\c2[n-]c(=O)[n-]c2[O-])cc(C(=O)N2CCN(C(=O)C3CC3)CC2)n1CC (3D coordinates assigned)
C=c1/c(=C\c2[n-]c(=O)[n-]c2[O-])cc(C(=O)N2CCN(C(=O)C3CC3)CC2)n1CC (nonaromatic ring conformer: 388.56427426256204 kcal/mol)

>  <smiles>  (2653) 
C=c1c(=Cc2[nH]c(=O)[nH]c2O)cc(C(=O)N2CCN(C(=O)C3CC3)CC2)n1CC

>  <score_type>  (2653) 
oracle

>  <origin>  (2653) 
adg

>  <m_score__min__energy>  (2653) 
-17.460000000000001

>  <m_primary>  (2653) 
energy

$$$$
2:0
     RDKit          3D

 34 38  0  0  0  0  0  0  0  0999 V2000
   57.1880   22.7280   47.6950 O   0  0  0  0  0  0  0  0  0  0  0  0
   56.8640   23.8300   47.1840 C   0  0  0  0  0  0  0  0  0  0  0  0
   55.6130   23.9870   46.6400 N   0  0  0  0  0  0  0  0  0  0  0  0
   55.2280   25.1720   46.0790 C   0  0  0  0  0  0  0  0  0  0  0  0
   54.0750   25.3040   45.5890 O   0  0  0  0  0  0  0  0  0  0  0  0
   56.1430   26.2170   46.0750 C   0  0  0  0  0  0  0  0  0  0  0  0
   56.0010   27.4670   45.6040 N   0  0  0  0  0  0  0  0  0  0  0  0
   57.1830   28.0880   45.8610 C   0  0  0  0  0  0  0  0  0  0  0  0
   57.4630   29.5090   45.5390 C   0  0  0  0  0  0  0  0  0  0  0  0
   56.8140   30.1410   44.4630 C   0  0  0  0  0  0  0  0  0  0  0  0
   57.0930   31.4750   44.1520 C   0  0  0  0  0  0  0  0  0  0  0  0
   58.0240   32.1930   44.9030 C   0  0  0  0  0  0  0  0  0  0  0  0
   58.6760   31.5830   45.9830 C   0  0  0  0  0  0  0  0  0  0  0  0
   59.8410   32.4950   46.9490 S   0  0  0  0  0  0  0  0  0  0  0  0
   60.9860   31.5960   47.3270 O   0  0  0  0  0  0  0  0  0  0  0  0
   60.3920   33.6250   46.1220 O   0  0  0  0  0  0  0  0  0  0  0  0
   59.1110   33.1420   48.3990 N   0  0  0  0  0  0  0  0  0  0  0  0
   60.0460   34.0470   49.0970 C   0  0  0  0  0  0  0  0  0  0  0  0
   59.6820   34.1800   50.5780 C   0  0  0  0  0  0  0  0  0  0  0  0
   59.8380   32.8840   51.2720 N   0  0  0  0  0  0  0  0  0  0  0  0
   59.1450   32.8920   52.5780 C   0  0  0  0  0  0  0  0  0  0  0  0
   57.6210   32.9460   52.3900 C   0  0  0  0  0  0  0  0  0  0  0  0
   56.9970   31.5880   52.5910 C   0  0  0  0  0  0  0  0  0  0  0  0
   55.6640   31.3590   52.2090 C   0  0  0  0  0  0  0  0  0  0  0  0
   55.0770   30.1070   52.4180 C   0  0  0  0  0  0  0  0  0  0  0  0
   55.8110   29.0780   53.0140 C   0  0  0  0  0  0  0  0  0  0  0  0
   57.1350   29.3000   53.4070 C   0  0  0  0  0  0  0  0  0  0  0  0
   57.7250   30.5520   53.2050 C   0  0  0  0  0  0  0  0  0  0  0  0
   59.4710   31.7100   50.4350 C   0  0  0  0  0  0  0  0  0  0  0  0
   58.5490   32.0750   49.2570 C   0  0  0  0  0  0  0  0  0  0  0  0
   58.3960   30.2430   46.2950 C   0  0  0  0  0  0  0  0  0  0  0  0
   58.0760   27.2140   46.4980 C   0  0  0  0  0  0  0  0  0  0  0  0
   57.3760   26.0370   46.6140 C   0  0  0  0  0  0  0  0  0  0  0  0
   57.7600   24.8640   47.1750 N   0  0  0  0  0  0  0  0  0  0  0  0
  1  2  2  0
  2  3  1  0
  3  4  1  0
  4  5  2  0
  4  6  1  0
  6  7  1  0
  7  8  1  0
  8  9  1  0
  9 10  2  0
 10 11  1  0
 11 12  2  0
 12 13  1  0
 13 14  1  0
 14 15  2  0
 14 16  2  0
 14 17  1  0
 17 18  1  0
 18 19  1  0
 19 20  1  0
 20 21  1  0
 21 22  1  0
 22 23  1  0
 23 24  2  0
 24 25  1  0
 25 26  2  0
 26 27  1  0
 27 28  2  0
 20 29  1  0
 29 30  1  0
 13 31  2  0
  8 32  2  0
 32 33  1  0
 33 34  1  0
 34  2  1  0
 33  6  2  0
 31  9  1  0
 30 17  1  0
 28 23  1  0
M  CHG  2   3  -1  34  -1
M  END
>  <UniqueID>  (2654) 
3

>  <SMILES>  (2654) 
O=c1[n-]c(=O)c2[nH]c(-c3cccc(S(=O)(=O)N4CCN(CCc5ccccc5)CC4)c3)cc2[n-]1

>  <Energy>  (2654) 
109.32376806121425

>  <Genealogy>  (2654) 
O=c1[n-]c(=O)c2[nH]c(-c3cccc(S(=O)(=O)N4CCN(CCc5ccccc5)CC4)c3)cc2[n-]1 (protonated)
O=c1[n-]c(=O)c2[nH]c(-c3cccc(S(=O)(=O)N4CCN(CCc5ccccc5)CC4)c3)cc2[n-]1 (3D coordinates assigned)
O=c1[n-]c(=O)c2[nH]c(-c3cccc(S(=O)(=O)N4CCN(CCc5ccccc5)CC4)c3)cc2[n-]1 (nonaromatic ring conformer: 109.32376806121425 kcal/mol)

>  <smiles>  (2654) 
O=c1[nH]c(=O)c2[nH]c(-c3cccc(S(=O)(=O)N4CCN(CCc5ccccc5)CC4)c3)cc2[nH]1

>  <score_type>  (2654) 
oracle

>  <origin>  (2654) 
adg

>  <m_score__min__energy>  (2654) 
-14.25

>  <m_primary>  (2654) 
energy

$$$$
8:0
     RDKit          3D

 25 27  0  0  0  0  0  0  0  0999 V2000
   56.2790   31.5880   51.6350 C   0  0  0  0  0  0  0  0  0  0  0  0
   55.7580   30.5970   52.3960 C   0  0  0  0  0  0  0  0  0  0  0  0
   54.3390   30.4070   52.4510 C   0  0  0  0  0  0  0  0  0  0  0  0
   53.4070   31.3600   52.1860 C   0  0  0  0  0  0  0  0  0  0  0  0
   52.4660   31.3640   51.0470 C   0  0  0  0  0  0  0  0  0  0  0  0
   52.4450   30.4060   50.1040 N   0  0  0  0  0  0  0  0  0  0  0  0
   51.3940   30.7510   49.3300 C   0  0  0  0  0  0  0  0  0  0  0  0
   51.0560   30.0900   48.3130 O   0  0  0  0  0  0  0  0  0  0  0  0
   50.7290   31.8540   49.7350 N   0  0  0  0  0  0  0  0  0  0  0  0
   51.4110   32.2240   50.8300 C   0  0  0  0  0  0  0  0  0  0  0  0
   51.0520   33.3010   51.6310 O   0  0  0  0  0  0  0  0  0  0  0  0
   53.8620   29.1460   52.8280 C   0  0  0  0  0  0  0  0  0  0  0  0
   54.7190   28.1800   53.3450 C   0  0  0  0  0  0  0  0  0  0  0  0
   54.1620   26.8370   53.7600 C   0  0  0  0  0  0  0  0  0  0  0  0
   52.6700   26.7540   53.4560 C   0  0  0  0  0  0  0  0  0  0  0  0
   56.0830   28.4760   53.4700 C   0  0  0  0  0  0  0  0  0  0  0  0
   56.8430   27.6130   53.9940 O   0  0  0  0  0  0  0  0  0  0  0  0
   56.5930   29.6750   53.0190 N   0  0  0  0  0  0  0  0  0  0  0  0
   58.0380   29.9610   53.2310 C   0  0  0  0  0  0  0  0  0  0  0  0
   58.8690   29.3790   52.1140 C   0  0  0  0  0  0  0  0  0  0  0  0
   58.7140   29.8490   50.8020 C   0  0  0  0  0  0  0  0  0  0  0  0
   59.4920   29.3030   49.7780 C   0  0  0  0  0  0  0  0  0  0  0  0
   60.4000   28.3310   50.0560 N   0  0  0  0  0  0  0  0  0  0  0  0
   60.5810   27.8660   51.3210 C   0  0  0  0  0  0  0  0  0  0  0  0
   59.8240   28.3850   52.3750 C   0  0  0  0  0  0  0  0  0  0  0  0
  1  2  2  0
  2  3  1  0
  3  4  2  3
  4  5  1  0
  5  6  1  0
  6  7  1  0
  7  8  2  0
  7  9  1  0
  9 10  1  0
 10 11  1  0
  3 12  1  0
 12 13  2  0
 13 14  1  0
 14 15  1  0
 13 16  1  0
 16 17  2  0
 16 18  1  0
 18 19  1  0
 19 20  1  0
 20 21  2  0
 21 22  1  0
 22 23  2  0
 23 24  1  0
 24 25  2  0
 18  2  1  0
 25 20  1  0
 10  5  2  0
M  CHG  3   6  -1   9  -1  11  -1
M  END
>  <UniqueID>  (2655) 
8

>  <SMILES>  (2655) 
C=c1c(=Cc2[n-]c(=O)[n-]c2[O-])cc(CC)c(=O)n1Cc1ccncc1

>  <Energy>  (2655) 
101.04264726429928

>  <Genealogy>  (2655) 
C=c1c(=Cc2[n-]c(=O)[n-]c2[O-])cc(CC)c(=O)n1Cc1ccncc1 (protonated)
C=c1c(=Cc2[n-]c(=O)[n-]c2[O-])cc(CC)c(=O)n1Cc1ccncc1 (3D coordinates assigned)
C=c1c(=Cc2[n-]c(=O)[n-]c2[O-])cc(CC)c(=O)n1Cc1ccncc1 (optimized conformer: 101.04264726429928 kcal/mol)

>  <smiles>  (2655) 
C=c1c(=Cc2[nH]c(=O)[nH]c2O)cc(CC)c(=O)n1Cc1ccncc1

>  <score_type>  (2655) 
oracle

>  <origin>  (2655) 
adg

>  <m_score__min__energy>  (2655) 
-15.31

>  <m_primary>  (2655) 
energy

$$$$
9:0
     RDKit          3D

 27 30  0  0  0  0  0  0  0  0999 V2000
   53.7160   28.0850   53.0590 C   0  0  0  0  0  0  0  0  0  0  0  0
   54.6220   29.0780   52.9840 C   0  0  0  0  0  0  0  0  0  0  0  0
   55.9310   28.7640   53.2340 N   0  0  0  0  0  0  0  0  0  0  0  0
   56.9600   29.6240   52.9780 C   0  0  0  0  0  0  0  0  0  0  0  0
   58.3840   29.1730   53.2090 C   0  0  0  0  0  0  0  0  0  0  0  0
   58.6190   28.2960   54.4370 C   0  0  0  0  0  0  0  0  0  0  0  0
   59.0420   29.7500   54.4560 C   0  0  0  0  0  0  0  0  0  0  0  0
   56.6880   30.8530   52.3480 C   0  0  0  0  0  0  0  0  0  0  0  0
   57.7600   31.7670   51.8970 C   0  0  0  0  0  0  0  0  0  0  0  0
   58.0590   32.7610   52.6130 O   0  0  0  0  0  0  0  0  0  0  0  0
   58.4410   31.5520   50.6430 N   0  0  0  0  0  0  0  0  0  0  0  0
   59.2420   32.6390   50.0560 C   0  0  0  0  0  0  0  0  0  0  0  0
   59.1790   32.6000   48.5230 C   0  0  0  0  0  0  0  0  0  0  0  0
   59.4310   31.2140   48.0040 C   0  0  0  0  0  0  0  0  0  0  0  0
   59.5770   31.0320   46.8050 O   0  0  0  0  0  0  0  0  0  0  0  0
   59.5300   30.0580   48.9570 C   0  0  0  0  0  0  0  0  0  0  0  0
   58.4750   30.1950   50.0610 C   0  0  0  0  0  0  0  0  0  0  0  0
   55.3590   31.2220   52.1330 C   0  0  0  0  0  0  0  0  0  0  0  0
   54.2950   30.3940   52.5300 C   0  0  0  0  0  0  0  0  0  0  0  0
   53.0450   30.9170   52.4570 C   0  0  0  0  0  0  0  0  0  0  0  0
   52.1910   30.9770   51.2570 C   0  0  0  0  0  0  0  0  0  0  0  0
   52.2560   30.0820   50.2560 N   0  0  0  0  0  0  0  0  0  0  0  0
   51.3940   30.5710   49.3390 C   0  0  0  0  0  0  0  0  0  0  0  0
   51.1660   29.9910   48.2470 O   0  0  0  0  0  0  0  0  0  0  0  0
   50.8040   31.7360   49.6810 N   0  0  0  0  0  0  0  0  0  0  0  0
   51.3280   31.9880   50.8910 C   0  0  0  0  0  0  0  0  0  0  0  0
   51.0490   33.1330   51.6270 O   0  0  0  0  0  0  0  0  0  0  0  0
  1  2  2  0
  2  3  1  0
  3  4  2  0
  4  5  1  0
  5  6  1  0
  6  7  1  0
  4  8  1  0
  8  9  1  0
  9 10  2  0
  9 11  1  0
 11 12  1  0
 12 13  1  0
 13 14  1  0
 14 15  2  0
 14 16  1  0
 16 17  1  0
  8 18  2  0
 18 19  1  0
 19 20  2  3
 20 21  1  0
 21 22  1  0
 22 23  1  0
 23 24  2  0
 23 25  1  0
 25 26  1  0
 26 27  1  0
 19  2  1  0
 26 21  2  0
  7  5  1  0
 17 11  1  0
M  CHG  4   3   1  22  -1  25  -1  27  -1
M  END
>  <UniqueID>  (2656) 
9

>  <SMILES>  (2656) 
C=c1[nH+]c(C2CC2)c(C(=O)N2CCC(=O)CC2)cc1=Cc1[n-]c(=O)[n-]c1[O-]

>  <Energy>  (2656) 
368.15565873658716

>  <Genealogy>  (2656) 
C=c1[nH+]c(C2CC2)c(C(=O)N2CCC(=O)CC2)cc1=Cc1[n-]c(=O)[n-]c1[O-] (protonated)
C=c1[nH+]c(C2CC2)c(C(=O)N2CCC(=O)CC2)cc1=Cc1[n-]c(=O)[n-]c1[O-] (3D coordinates assigned)
C=c1[nH+]c(C2CC2)c(C(=O)N2CCC(=O)CC2)cc1=Cc1[n-]c(=O)[n-]c1[O-] (nonaromatic ring conformer: 368.15565873658716 kcal/mol)

>  <smiles>  (2656) 
C=c1nc(C2CC2)c(C(=O)N2CCC(=O)CC2)cc1=Cc1[nH]c(=O)[nH]c1O

>  <score_type>  (2656) 
oracle

>  <origin>  (2656) 
adg

>  <m_score__min__energy>  (2656) 
-15.35

>  <m_primary>  (2656) 
energy

$$$$
16:0
     RDKit          3D

 24 26  0  0  0  0  0  0  0  0999 V2000
   54.2300   29.2650   54.6180 C   0  0  0  0  0  0  0  0  0  0  0  0
   54.7790   29.7600   53.4980 C   0  0  0  0  0  0  0  0  0  0  0  0
   54.2140   30.7070   52.6310 C   0  0  0  0  0  0  0  0  0  0  0  0
   52.9590   31.1890   52.5410 C   0  0  0  0  0  0  0  0  0  0  0  0
   52.1280   31.1960   51.3250 C   0  0  0  0  0  0  0  0  0  0  0  0
   52.1970   30.2770   50.3440 N   0  0  0  0  0  0  0  0  0  0  0  0
   51.3690   30.7700   49.3970 C   0  0  0  0  0  0  0  0  0  0  0  0
   51.1510   30.1740   48.3110 O   0  0  0  0  0  0  0  0  0  0  0  0
   50.8020   31.9570   49.7020 N   0  0  0  0  0  0  0  0  0  0  0  0
   51.3050   32.2170   50.9190 C   0  0  0  0  0  0  0  0  0  0  0  0
   51.0220   33.3690   51.6430 O   0  0  0  0  0  0  0  0  0  0  0  0
   55.2300   31.1090   51.7830 C   0  0  0  0  0  0  0  0  0  0  0  0
   56.3470   30.3700   52.1130 C   0  0  0  0  0  0  0  0  0  0  0  0
   57.6550   30.5280   51.4380 C   0  0  0  0  0  0  0  0  0  0  0  0
   57.9610   29.7090   50.5280 O   0  0  0  0  0  0  0  0  0  0  0  0
   58.5040   31.6750   51.6960 N   0  0  2  0  0  0  0  0  0  0  0  0
   58.0810   32.3140   52.9580 C   0  0  0  0  0  0  0  0  0  0  0  0
   58.5550   32.5840   50.5110 C   0  0  0  0  0  0  0  0  0  0  0  0
   58.9790   31.8680   49.2220 C   0  0  0  0  0  0  0  0  0  0  0  0
   59.7400   32.8980   48.3860 C   0  0  0  0  0  0  0  0  0  0  0  0
   59.7660   34.1940   49.1890 C   0  0  0  0  0  0  0  0  0  0  0  0
   59.4940   33.7930   50.6280 C   0  0  0  0  0  0  0  0  0  0  0  0
   56.0660   29.5210   53.1320 N   0  0  0  0  0  0  0  0  0  0  0  0
   56.9770   28.5420   53.7340 C   0  0  0  0  0  0  0  0  0  0  0  0
  1  2  2  0
  2  3  1  0
  3  4  2  3
  4  5  1  0
  5  6  1  0
  6  7  1  0
  7  8  2  0
  7  9  1  0
  9 10  1  0
 10 11  1  0
  3 12  1  0
 12 13  2  0
 13 14  1  0
 14 15  2  0
 14 16  1  0
 16 17  1  1
 16 18  1  0
 18 19  1  0
 19 20  1  0
 20 21  1  0
 21 22  1  0
 13 23  1  0
 23 24  1  0
 23  2  1  0
 10  5  2  0
 22 18  1  0
M  CHG  4   6  -1   9  -1  11  -1  16   1
M  END
>  <UniqueID>  (2657) 
16

>  <SMILES>  (2657) 
C=c1c(=Cc2[n-]c(=O)[n-]c2[O-])cc(C(=O)[N@H+](C)C2CCCC2)n1C

>  <Energy>  (2657) 
128.03824329095673

>  <Genealogy>  (2657) 
C=c1c(=Cc2[n-]c(=O)[n-]c2[O-])cc(C(=O)[NH+](C)C2CCCC2)n1C (protonated)
C=c1c(=Cc2[n-]c(=O)[n-]c2[O-])cc(C(=O)[N@H+](C)C2CCCC2)n1C (chirality)
C=c1c(=Cc2[n-]c(=O)[n-]c2[O-])cc(C(=O)[N@H+](C)C2CCCC2)n1C (3D coordinates assigned)
C=c1c(=Cc2[n-]c(=O)[n-]c2[O-])cc(C(=O)[N@H+](C)C2CCCC2)n1C (nonaromatic ring conformer: 128.03824329095673 kcal/mol)

>  <smiles>  (2657) 
C=c1c(=Cc2[nH]c(=O)[nH]c2O)cc(C(=O)N(C)C2CCCC2)n1C

>  <score_type>  (2657) 
oracle

>  <origin>  (2657) 
adg

>  <m_score__min__energy>  (2657) 
-15.49

>  <m_primary>  (2657) 
energy

$$$$
17:0
     RDKit          3D

 33 36  0  0  0  0  0  0  0  0999 V2000
   59.9360   27.9900   46.8890 C   0  0  0  0  0  0  0  0  0  0  0  0
   58.9720   28.7120   46.3010 C   0  0  0  0  0  0  0  0  0  0  0  0
   58.0870   28.2920   45.3010 C   0  0  0  0  0  0  0  0  0  0  0  0
   57.6500   27.0590   44.9610 C   0  0  0  0  0  0  0  0  0  0  0  0
   57.1610   26.0010   45.8760 C   0  0  0  0  0  0  0  0  0  0  0  0
   57.9010   25.0160   46.4140 N   0  0  0  0  0  0  0  0  0  0  0  0
   57.0130   24.3110   47.1460 C   0  0  0  0  0  0  0  0  0  0  0  0
   57.3220   23.2490   47.7470 O   0  0  0  0  0  0  0  0  0  0  0  0
   55.7560   24.8010   47.1350 N   0  0  0  0  0  0  0  0  0  0  0  0
   55.8700   25.8800   46.3430 C   0  0  0  0  0  0  0  0  0  0  0  0
   54.8090   26.7160   46.0240 O   0  0  0  0  0  0  0  0  0  0  0  0
   57.5530   29.4510   44.7580 C   0  0  0  0  0  0  0  0  0  0  0  0
   58.0490   30.5080   45.4950 C   0  0  0  0  0  0  0  0  0  0  0  0
   57.5930   31.9280   45.3560 C   0  0  0  0  0  0  0  0  0  0  0  0
   58.8930   30.0590   46.4500 N   0  0  0  0  0  0  0  0  0  0  0  0
   59.2950   30.7840   47.6220 C   0  0  0  0  0  0  0  0  0  0  0  0
   58.9340   30.3510   48.7560 O   0  0  0  0  0  0  0  0  0  0  0  0
   60.1710   31.9340   47.5240 N   0  0  0  0  0  0  0  0  0  0  0  0
   60.0610   32.7920   48.7400 C   0  0  0  0  0  0  0  0  0  0  0  0
   61.1420   32.4640   49.7940 C   0  0  0  0  0  0  0  0  0  0  0  0
   62.5250   32.5800   49.2500 N   0  0  0  0  0  0  0  0  0  0  0  0
   63.2070   33.8010   49.7170 C   0  0  0  0  0  0  0  0  0  0  0  0
   64.5690   33.4650   50.2700 C   0  0  0  0  0  0  0  0  0  0  0  0
   65.2670   32.3500   49.7840 C   0  0  0  0  0  0  0  0  0  0  0  0
   66.5250   32.0310   50.3030 C   0  0  0  0  0  0  0  0  0  0  0  0
   67.0930   32.8170   51.3100 C   0  0  0  0  0  0  0  0  0  0  0  0
   68.3140   32.4940   51.8010 F   0  0  0  0  0  0  0  0  0  0  0  0
   66.4030   33.9310   51.8120 C   0  0  0  0  0  0  0  0  0  0  0  0
   67.0060   34.6890   52.8270 O   0  0  0  0  0  0  0  0  0  0  0  0
   67.1740   36.1020   52.7800 C   0  0  0  0  0  0  0  0  0  0  0  0
   65.1370   34.2500   51.2840 C   0  0  0  0  0  0  0  0  0  0  0  0
   62.5900   32.4870   47.7730 C   0  0  0  0  0  0  0  0  0  0  0  0
   61.5590   31.4810   47.2480 C   0  0  0  0  0  0  0  0  0  0  0  0
  1  2  2  0
  2  3  1  0
  3  4  2  3
  4  5  1  0
  5  6  1  0
  6  7  1  0
  7  8  2  0
  7  9  1  0
  9 10  1  0
 10 11  1  0
  3 12  1  0
 12 13  2  0
 13 14  1  0
 13 15  1  0
 15 16  1  0
 16 17  2  0
 16 18  1  0
 18 19  1  0
 19 20  1  0
 20 21  1  0
 21 22  1  0
 22 23  1  0
 23 24  2  0
 24 25  1  0
 25 26  2  0
 26 27  1  0
 26 28  1  0
 28 29  1  0
 29 30  1  0
 28 31  2  0
 21 32  1  0
 32 33  1  0
 15  2  1  0
 33 18  1  0
 10  5  2  0
 31 23  1  0
M  CHG  4   6  -1   9  -1  11  -1  18   1
M  END
>  <UniqueID>  (2658) 
17

>  <SMILES>  (2658) 
C=c1c(=Cc2[n-]c(=O)[n-]c2[O-])cc(C)n1C(=O)[NH+]1CCN(Cc2ccc(F)c(OC)c2)CC1

>  <Energy>  (2658) 
152.82848103957093

>  <Genealogy>  (2658) 
C=c1c(=Cc2[n-]c(=O)[n-]c2[O-])cc(C)n1C(=O)[NH+]1CCN(Cc2ccc(F)c(OC)c2)CC1 (protonated)
C=c1c(=Cc2[n-]c(=O)[n-]c2[O-])cc(C)n1C(=O)[NH+]1CCN(Cc2ccc(F)c(OC)c2)CC1 (3D coordinates assigned)
C=c1c(=Cc2[n-]c(=O)[n-]c2[O-])cc(C)n1C(=O)[NH+]1CCN(Cc2ccc(F)c(OC)c2)CC1 (nonaromatic ring conformer: 152.82848103957093 kcal/mol)

>  <smiles>  (2658) 
C=c1c(=Cc2[nH]c(=O)[nH]c2O)cc(C)n1C(=O)N1CCN(Cc2ccc(F)c(OC)c2)CC1

>  <score_type>  (2658) 
oracle

>  <origin>  (2658) 
adg

>  <m_score__min__energy>  (2658) 
-16.559999999999999

>  <m_primary>  (2658) 
energy

$$$$
27:0
     RDKit          3D

 32 35  0  0  0  0  0  0  0  0999 V2000
   60.1220   29.1330   44.6940 C   0  0  0  0  0  0  0  0  0  0  0  0
   59.5860   29.0360   45.9220 C   0  0  0  0  0  0  0  0  0  0  0  0
   58.7730   27.9990   46.4060 C   0  0  0  0  0  0  0  0  0  0  0  0
   58.1660   26.9780   45.7690 C   0  0  0  0  0  0  0  0  0  0  0  0
   57.4870   25.8450   46.4180 C   0  0  0  0  0  0  0  0  0  0  0  0
   58.1050   24.7170   46.8180 N   0  0  0  0  0  0  0  0  0  0  0  0
   57.0850   23.9250   47.2130 C   0  0  0  0  0  0  0  0  0  0  0  0
   57.2650   22.7690   47.6750 O   0  0  0  0  0  0  0  0  0  0  0  0
   55.8570   24.4670   47.0650 N   0  0  0  0  0  0  0  0  0  0  0  0
   56.1280   25.6770   46.5480 C   0  0  0  0  0  0  0  0  0  0  0  0
   55.1440   26.6010   46.2060 O   0  0  0  0  0  0  0  0  0  0  0  0
   58.6340   28.2170   47.7650 C   0  0  0  0  0  0  0  0  0  0  0  0
   59.2970   29.3920   48.0540 C   0  0  0  0  0  0  0  0  0  0  0  0
   59.3030   30.0430   49.3810 C   0  0  0  0  0  0  0  0  0  0  0  0
   59.3060   29.3270   50.4170 O   0  0  0  0  0  0  0  0  0  0  0  0
   59.2960   31.4670   49.5280 N   0  0  0  0  0  0  0  0  0  0  0  0
   58.1620   32.3280   49.2160 C   0  0  0  0  0  0  0  0  0  0  0  0
   58.4390   33.0710   47.9410 C   0  0  0  0  0  0  0  0  0  0  0  0
   57.8620   32.6440   46.7340 C   0  0  0  0  0  0  0  0  0  0  0  0
   58.1490   33.3160   45.5410 C   0  0  0  0  0  0  0  0  0  0  0  0
   59.0200   34.4090   45.5440 C   0  0  0  0  0  0  0  0  0  0  0  0
   59.6100   34.8290   46.7400 C   0  0  0  0  0  0  0  0  0  0  0  0
   59.3260   34.1590   47.9350 C   0  0  0  0  0  0  0  0  0  0  0  0
   59.8750   29.8960   46.9360 N   0  0  0  0  0  0  0  0  0  0  0  0
   60.6890   31.1190   46.8640 C   0  0  0  0  0  0  0  0  0  0  0  0
   62.1820   30.7650   46.8680 C   0  0  0  0  0  0  0  0  0  0  0  0
   62.9780   31.7840   47.5870 N   0  0  0  0  0  0  0  0  0  0  0  0
   62.9000   31.5940   49.0560 C   0  0  0  0  0  0  0  0  0  0  0  0
   61.8860   32.5550   49.7040 C   0  0  0  0  0  0  0  0  0  0  0  0
   62.1820   33.9290   49.4910 O   0  0  0  0  0  0  0  0  0  0  0  0
   62.9000   34.1770   48.2900 C   0  0  0  0  0  0  0  0  0  0  0  0
   62.6030   33.1590   47.1760 C   0  0  0  0  0  0  0  0  0  0  0  0
  1  2  2  0
  2  3  1  0
  3  4  2  3
  4  5  1  0
  5  6  1  0
  6  7  1  0
  7  8  2  0
  7  9  1  0
  9 10  1  0
 10 11  1  0
  3 12  1  0
 12 13  2  0
 13 14  1  0
 14 15  2  0
 14 16  1  0
 16 17  1  0
 17 18  1  0
 18 19  2  0
 19 20  1  0
 20 21  2  0
 21 22  1  0
 22 23  2  0
 13 24  1  0
 24 25  1  0
 25 26  1  0
 26 27  1  0
 27 28  1  0
 28 29  1  0
 29 30  1  0
 30 31  1  0
 31 32  1  0
 24  2  1  0
 32 27  1  0
 10  5  2  0
 23 18  1  0
M  CHG  3   6  -1   9  -1  16  -1
M  END
>  <UniqueID>  (2659) 
27

>  <SMILES>  (2659) 
C=c1c(=Cc2[n-]c(=O)[n-]c2O)cc(C(=O)[N-]Cc2ccccc2)n1CCN1CCOCC1

>  <Energy>  (2659) 
143.44854347569378

>  <Genealogy>  (2659) 
C=c1c(=Cc2[n-]c(=O)[n-]c2O)cc(C(=O)[N-]Cc2ccccc2)n1CCN1CCOCC1 (protonated)
C=c1c(=Cc2[n-]c(=O)[n-]c2O)cc(C(=O)[N-]Cc2ccccc2)n1CCN1CCOCC1 (3D coordinates assigned)
C=c1c(=Cc2[n-]c(=O)[n-]c2O)cc(C(=O)[N-]Cc2ccccc2)n1CCN1CCOCC1 (nonaromatic ring conformer: 143.44854347569378 kcal/mol)

>  <smiles>  (2659) 
C=c1c(=Cc2[nH]c(=O)[nH]c2O)cc(C(=O)NCc2ccccc2)n1CCN1CCOCC1

>  <score_type>  (2659) 
oracle

>  <origin>  (2659) 
adg

>  <m_score__min__energy>  (2659) 
-14.220000000000001

>  <m_primary>  (2659) 
energy

$$$$
30:0
     RDKit          3D

 29 32  0  0  0  0  0  0  0  0999 V2000
   53.9030   30.1960   55.4580 C   0  0  0  0  0  0  0  0  0  0  0  0
   54.4560   30.2230   54.2360 C   0  0  0  0  0  0  0  0  0  0  0  0
   53.8150   30.5760   53.0380 C   0  0  0  0  0  0  0  0  0  0  0  0
   52.5110   30.7730   52.7530 C   0  0  0  0  0  0  0  0  0  0  0  0
   51.9470   31.0950   51.4330 C   0  0  0  0  0  0  0  0  0  0  0  0
   52.0540   30.2810   50.3690 N   0  0  0  0  0  0  0  0  0  0  0  0
   51.2620   30.8680   49.4430 C   0  0  0  0  0  0  0  0  0  0  0  0
   51.1070   30.3980   48.2860 O   0  0  0  0  0  0  0  0  0  0  0  0
   50.6290   31.9860   49.8640 N   0  0  0  0  0  0  0  0  0  0  0  0
   51.0600   32.1070   51.1300 C   0  0  0  0  0  0  0  0  0  0  0  0
   50.6250   33.1010   51.9990 O   0  0  0  0  0  0  0  0  0  0  0  0
   54.8130   30.7300   52.0950 C   0  0  0  0  0  0  0  0  0  0  0  0
   56.0020   30.3940   52.7080 C   0  0  0  0  0  0  0  0  0  0  0  0
   57.3290   30.5320   52.0740 C   0  0  0  0  0  0  0  0  0  0  0  0
   57.6270   29.7350   51.1450 O   0  0  0  0  0  0  0  0  0  0  0  0
   58.2700   31.5450   52.5210 N   0  0  0  0  0  0  0  0  0  0  0  0
   59.6570   31.0320   52.5780 C   0  0  0  0  0  0  0  0  0  0  0  0
   60.2930   30.9370   51.1890 C   0  0  0  0  0  0  0  0  0  0  0  0
   60.3020   32.2610   50.5670 N   0  0  0  0  0  0  0  0  0  0  0  0
   58.9270   32.7340   50.3840 C   0  0  0  0  0  0  0  0  0  0  0  0
   58.1840   32.8020   51.7340 C   0  0  0  0  0  0  0  0  0  0  0  0
   55.7920   30.0790   54.0110 N   0  0  0  0  0  0  0  0  0  0  0  0
   56.8120   29.5740   54.9450 C   0  0  0  0  0  0  0  0  0  0  0  0
   57.1660   28.1460   54.6120 C   0  0  0  0  0  0  0  0  0  0  0  0
   56.1850   27.1350   54.6200 C   0  0  0  0  0  0  0  0  0  0  0  0
   56.5230   25.8190   54.2800 C   0  0  0  0  0  0  0  0  0  0  0  0
   57.8390   25.5030   53.9270 C   0  0  0  0  0  0  0  0  0  0  0  0
   58.8220   26.4990   53.9240 C   0  0  0  0  0  0  0  0  0  0  0  0
   58.4870   27.8140   54.2580 C   0  0  0  0  0  0  0  0  0  0  0  0
  1  2  2  0
  2  3  1  0
  3  4  2  0
  4  5  1  0
  5  6  1  0
  6  7  1  0
  7  8  2  0
  7  9  1  0
  9 10  1  0
 10 11  1  0
  3 12  1  0
 12 13  2  0
 13 14  1  0
 14 15  2  0
 14 16  1  0
 16 17  1  0
 17 18  1  0
 18 19  1  0
 19 20  1  0
 20 21  1  0
 13 22  1  0
 22 23  1  0
 23 24  1  0
 24 25  2  0
 25 26  1  0
 26 27  2  0
 27 28  1  0
 28 29  2  0
 22  2  1  0
 29 24  1  0
 10  5  2  0
 21 16  1  0
M  CHG  4   6  -1   9  -1  11  -1  16   1
M  END
>  <UniqueID>  (2660) 
30

>  <SMILES>  (2660) 
C=c1/c(=C\c2[n-]c(=O)[n-]c2[O-])cc(C(=O)[NH+]2CCNCC2)n1Cc1ccccc1

>  <Energy>  (2660) 
134.98627012862974

>  <Genealogy>  (2660) 
C=c1c(=Cc2[n-]c(=O)[n-]c2[O-])cc(C(=O)[NH+]2CCNCC2)n1Cc1ccccc1 (protonated)
C=c1/c(=C\c2[n-]c(=O)[n-]c2[O-])cc(C(=O)[NH+]2CCNCC2)n1Cc1ccccc1 (cis-trans isomerization)
C=c1/c(=C\c2[n-]c(=O)[n-]c2[O-])cc(C(=O)[NH+]2CCNCC2)n1Cc1ccccc1 (3D coordinates assigned)
C=c1/c(=C\c2[n-]c(=O)[n-]c2[O-])cc(C(=O)[NH+]2CCNCC2)n1Cc1ccccc1 (nonaromatic ring conformer: 134.98627012862974 kcal/mol)

>  <smiles>  (2660) 
C=c1c(=Cc2[nH]c(=O)[nH]c2O)cc(C(=O)N2CCNCC2)n1Cc1ccccc1

>  <score_type>  (2660) 
oracle

>  <origin>  (2660) 
adg

>  <m_score__min__energy>  (2660) 
-15.17

>  <m_primary>  (2660) 
energy

$$$$
51:0
     RDKit          3D

 25 27  0  0  0  0  0  0  0  0999 V2000
   54.9160   29.1130   44.3000 O   0  0  0  0  0  0  0  0  0  0  0  0
   56.0150   29.5060   44.7740 C   0  0  0  0  0  0  0  0  0  0  0  0
   56.2690   30.9170   44.8540 N   0  0  0  0  0  0  0  0  0  0  0  0
   57.4490   31.6010   44.3280 C   0  0  0  0  0  0  0  0  0  0  0  0
   57.7550   32.8670   45.0920 C   0  0  0  0  0  0  0  0  0  0  0  0
   56.9660   33.8480   44.9920 O   0  0  0  0  0  0  0  0  0  0  0  0
   58.9250   32.9780   45.9380 N   0  0  0  0  0  0  0  0  0  0  0  0
   59.8370   31.8390   46.1430 C   0  0  0  0  0  0  0  0  0  0  0  0
   60.3800   31.8300   47.5740 C   0  0  0  0  0  0  0  0  0  0  0  0
   60.8600   33.1660   47.9430 N   0  0  0  0  0  0  0  0  0  0  0  0
   62.0350   33.3230   48.7600 C   0  0  0  0  0  0  0  0  0  0  0  0
   63.2930   32.9420   48.2650 C   0  0  0  0  0  0  0  0  0  0  0  0
   64.4380   33.0920   49.0550 C   0  0  0  0  0  0  0  0  0  0  0  0
   64.3350   33.6230   50.3430 C   0  0  0  0  0  0  0  0  0  0  0  0
   63.0870   34.0040   50.8440 C   0  0  0  0  0  0  0  0  0  0  0  0
   61.9410   33.8540   50.0590 C   0  0  0  0  0  0  0  0  0  0  0  0
   59.9380   34.2900   47.7610 C   0  0  0  0  0  0  0  0  0  0  0  0
   59.4190   34.3090   46.3240 C   0  0  0  0  0  0  0  0  0  0  0  0
   56.9920   28.5060   45.2490 C   0  0  0  0  0  0  0  0  0  0  0  0
   58.3690   28.7300   45.0830 C   0  0  0  0  0  0  0  0  0  0  0  0
   59.2960   27.7830   45.5260 C   0  0  0  0  0  0  0  0  0  0  0  0
   58.8560   26.5980   46.1220 C   0  0  0  0  0  0  0  0  0  0  0  0
   57.4880   26.3560   46.2720 C   0  0  0  0  0  0  0  0  0  0  0  0
   56.5540   27.3030   45.8360 C   0  0  0  0  0  0  0  0  0  0  0  0
   55.1970   27.0460   45.9970 O   0  0  0  0  0  0  0  0  0  0  0  0
  1  2  2  0
  2  3  1  0
  3  4  1  0
  4  5  1  0
  5  6  2  0
  5  7  1  0
  7  8  1  0
  8  9  1  0
  9 10  1  0
 10 11  1  0
 11 12  2  0
 12 13  1  0
 13 14  2  0
 14 15  1  0
 15 16  2  0
 10 17  1  0
 17 18  1  0
  2 19  1  0
 19 20  2  0
 20 21  1  0
 21 22  2  0
 22 23  1  0
 23 24  2  0
 24 25  1  0
 18  7  1  0
 24 19  1  0
 16 11  1  0
M  CHG  2   3  -1  25  -1
M  END
>  <UniqueID>  (2661) 
51

>  <SMILES>  (2661) 
O=C([N-]CC(=O)N1CCN(c2ccccc2)CC1)c1ccccc1[O-]

>  <Energy>  (2661) 
55.74433365452392

>  <Genealogy>  (2661) 
O=C([N-]CC(=O)N1CCN(c2ccccc2)CC1)c1ccccc1[O-] (protonated)
O=C([N-]CC(=O)N1CCN(c2ccccc2)CC1)c1ccccc1[O-] (3D coordinates assigned)
O=C([N-]CC(=O)N1CCN(c2ccccc2)CC1)c1ccccc1[O-] (nonaromatic ring conformer: 55.74433365452392 kcal/mol)

>  <smiles>  (2661) 
O=C(NCC(=O)N1CCN(c2ccccc2)CC1)c1ccccc1O

>  <score_type>  (2661) 
oracle

>  <origin>  (2661) 
adg

>  <m_score__min__energy>  (2661) 
-14.23

>  <m_primary>  (2661) 
energy

$$$$
57:0
     RDKit          3D

 28 30  0  0  0  0  0  0  0  0999 V2000
   55.1400   31.5070   52.0080 C   0  0  0  0  0  0  0  0  0  0  0  0
   54.8140   30.3580   52.6200 C   0  0  0  0  0  0  0  0  0  0  0  0
   53.5310   29.9770   53.0240 C   0  0  0  0  0  0  0  0  0  0  0  0
   52.3730   30.6220   52.7830 C   0  0  0  0  0  0  0  0  0  0  0  0
   51.8240   30.8570   51.4350 C   0  0  0  0  0  0  0  0  0  0  0  0
   51.9420   29.9750   50.4270 N   0  0  0  0  0  0  0  0  0  0  0  0
   51.3870   30.6190   49.3780 C   0  0  0  0  0  0  0  0  0  0  0  0
   51.2960   30.1020   48.2350 O   0  0  0  0  0  0  0  0  0  0  0  0
   50.9450   31.8660   49.6490 N   0  0  0  0  0  0  0  0  0  0  0  0
   51.2410   32.0070   50.9510 C   0  0  0  0  0  0  0  0  0  0  0  0
   51.0250   33.1800   51.6640 O   0  0  0  0  0  0  0  0  0  0  0  0
   53.6750   28.7690   53.6920 C   0  0  0  0  0  0  0  0  0  0  0  0
   55.0210   28.4640   53.6720 C   0  0  0  0  0  0  0  0  0  0  0  0
   55.6220   27.2350   54.2850 C   0  0  0  0  0  0  0  0  0  0  0  0
   55.7140   29.4190   53.0100 N   0  0  0  0  0  0  0  0  0  0  0  0
   57.1350   29.3960   52.7680 C   0  0  0  0  0  0  0  0  0  0  0  0
   57.5530   29.3320   51.5800 O   0  0  0  0  0  0  0  0  0  0  0  0
   58.0720   29.5970   53.8580 N   0  0  0  0  0  0  0  0  0  0  0  0
   59.4670   29.7380   53.3490 C   0  0  0  0  0  0  0  0  0  0  0  0
   60.3280   30.6490   54.2310 C   0  0  0  0  0  0  0  0  0  0  0  0
   59.6990   31.9700   54.3310 N   0  0  0  0  0  0  0  0  0  0  0  0
   60.4890   33.1740   54.2860 C   0  0  0  0  0  0  0  0  0  0  0  0
   60.0220   34.1990   53.7190 O   0  0  0  0  0  0  0  0  0  0  0  0
   61.8030   33.2280   54.8730 N   0  0  0  0  0  0  0  0  0  0  0  0
   62.1270   32.4600   56.0770 C   0  0  0  0  0  0  0  0  0  0  0  0
   62.8290   34.0700   54.2580 C   0  0  0  0  0  0  0  0  0  0  0  0
   58.2360   32.0660   54.3300 C   0  0  0  0  0  0  0  0  0  0  0  0
   57.6130   30.7190   54.7210 C   0  0  0  0  0  0  0  0  0  0  0  0
  1  2  2  0
  2  3  1  0
  3  4  2  0
  4  5  1  0
  5  6  1  0
  6  7  1  0
  7  8  2  0
  7  9  1  0
  9 10  1  0
 10 11  1  0
  3 12  1  0
 12 13  2  0
 13 14  1  0
 13 15  1  0
 15 16  1  0
 16 17  2  0
 16 18  1  0
 18 19  1  0
 19 20  1  0
 20 21  1  0
 21 22  1  0
 22 23  2  0
 22 24  1  0
 24 25  1  0
 24 26  1  0
 21 27  1  0
 27 28  1  0
 15  2  1  0
 28 18  1  0
 10  5  2  0
M  CHG  4   6  -1   9  -1  11  -1  18   1
M  END
>  <UniqueID>  (2662) 
57

>  <SMILES>  (2662) 
C=c1/c(=C/c2[n-]c(=O)[n-]c2[O-])cc(C)n1C(=O)[NH+]1CCN(C(=O)N(C)C)CC1

>  <Energy>  (2662) 
131.2816814714933

>  <Genealogy>  (2662) 
C=c1c(=Cc2[n-]c(=O)[n-]c2[O-])cc(C)n1C(=O)[NH+]1CCN(C(=O)N(C)C)CC1 (protonated)
C=c1/c(=C/c2[n-]c(=O)[n-]c2[O-])cc(C)n1C(=O)[NH+]1CCN(C(=O)N(C)C)CC1 (cis-trans isomerization)
C=c1/c(=C/c2[n-]c(=O)[n-]c2[O-])cc(C)n1C(=O)[NH+]1CCN(C(=O)N(C)C)CC1 (3D coordinates assigned)
C=c1/c(=C/c2[n-]c(=O)[n-]c2[O-])cc(C)n1C(=O)[NH+]1CCN(C(=O)N(C)C)CC1 (nonaromatic ring conformer: 131.2816814714933 kcal/mol)

>  <smiles>  (2662) 
C=c1c(=Cc2[nH]c(=O)[nH]c2O)cc(C)n1C(=O)N1CCN(C(=O)N(C)C)CC1

>  <score_type>  (2662) 
oracle

>  <origin>  (2662) 
adg

>  <m_score__min__energy>  (2662) 
-15.119999999999999

>  <m_primary>  (2662) 
energy

$$$$
72:0
     RDKit          3D

 29 32  0  0  0  0  0  0  0  0999 V2000
   56.0660   32.2670   52.3610 C   0  0  0  0  0  0  0  0  0  0  0  0
   55.6560   31.0370   52.7080 C   0  0  0  0  0  0  0  0  0  0  0  0
   54.3410   30.5460   52.6890 C   0  0  0  0  0  0  0  0  0  0  0  0
   53.1610   31.1760   52.5310 C   0  0  0  0  0  0  0  0  0  0  0  0
   52.2900   31.0840   51.3480 C   0  0  0  0  0  0  0  0  0  0  0  0
   52.3960   30.1460   50.3880 N   0  0  0  0  0  0  0  0  0  0  0  0
   51.4980   30.5460   49.4620 C   0  0  0  0  0  0  0  0  0  0  0  0
   51.2900   29.9050   48.3990 O   0  0  0  0  0  0  0  0  0  0  0  0
   50.8510   31.6940   49.7580 N   0  0  0  0  0  0  0  0  0  0  0  0
   51.3760   32.0270   50.9480 C   0  0  0  0  0  0  0  0  0  0  0  0
   51.0280   33.1730   51.6520 O   0  0  0  0  0  0  0  0  0  0  0  0
   54.4380   29.1800   52.8960 C   0  0  0  0  0  0  0  0  0  0  0  0
   55.7700   28.8960   53.0970 C   0  0  0  0  0  0  0  0  0  0  0  0
   56.5080   30.0190   52.9960 N   0  0  0  0  0  0  0  0  0  0  0  0
   57.9750   30.0510   53.0670 C   0  0  0  0  0  0  0  0  0  0  0  0
   58.5780   29.6950   51.7320 C   0  0  0  0  0  0  0  0  0  0  0  0
   59.6200   28.7590   51.6580 C   0  0  0  0  0  0  0  0  0  0  0  0
   60.1760   28.4160   50.4220 C   0  0  0  0  0  0  0  0  0  0  0  0
   59.6900   28.9940   49.2410 C   0  0  0  0  0  0  0  0  0  0  0  0
   60.3170   28.6330   47.9520 C   0  0  0  0  0  0  0  0  0  0  0  0
   59.7290   27.8740   47.0150 C   0  0  0  0  0  0  0  0  0  0  0  0
   58.0430   28.0990   46.4180 S   0  0  0  0  0  0  0  0  0  0  0  0
   58.2520   26.5860   45.4750 C   0  0  0  0  0  0  0  0  0  0  0  0
   57.3320   26.1160   44.7570 O   0  0  0  0  0  0  0  0  0  0  0  0
   59.5140   25.9410   45.5770 N   0  0  0  0  0  0  0  0  0  0  0  0
   60.3490   26.6740   46.4540 C   0  0  0  0  0  0  0  0  0  0  0  0
   61.5230   26.3030   46.7170 O   0  0  0  0  0  0  0  0  0  0  0  0
   58.6740   29.9610   49.3180 C   0  0  0  0  0  0  0  0  0  0  0  0
   58.1180   30.3040   50.5540 C   0  0  0  0  0  0  0  0  0  0  0  0
  1  2  2  0
  2  3  1  0
  3  4  2  3
  4  5  1  0
  5  6  1  0
  6  7  1  0
  7  8  2  0
  7  9  1  0
  9 10  1  0
 10 11  1  0
  3 12  1  0
 12 13  2  0
 13 14  1  0
 14 15  1  0
 15 16  1  0
 16 17  2  0
 17 18  1  0
 18 19  2  0
 19 20  1  0
 20 21  2  3
 21 22  1  0
 22 23  1  0
 23 24  2  0
 23 25  1  0
 25 26  1  0
 26 27  2  0
 19 28  1  0
 28 29  2  0
 14  2  1  0
 29 16  1  0
 10  5  2  0
 26 21  1  0
M  CHG  4   6  -1   9  -1  11  -1  25  -1
M  END
>  <UniqueID>  (2663) 
70

>  <SMILES>  (2663) 
C=c1c(=Cc2[n-]c(=O)[n-]c2[O-])ccn1Cc1ccc(C=C2SC(=O)[N-]C2=O)cc1

>  <Energy>  (2663) 
137.4540461995693

>  <Genealogy>  (2663) 
C=c1c(=Cc2[n-]c(=O)[n-]c2[O-])ccn1Cc1ccc(C=C2SC(=O)[N-]C2=O)cc1 (protonated)
C=c1c(=Cc2[n-]c(=O)[n-]c2[O-])ccn1Cc1ccc(C=C2SC(=O)[N-]C2=O)cc1 (3D coordinates assigned)
C=c1c(=Cc2[n-]c(=O)[n-]c2[O-])ccn1Cc1ccc(C=C2SC(=O)[N-]C2=O)cc1 (nonaromatic ring conformer: 137.4540461995693 kcal/mol)

>  <smiles>  (2663) 
C=c1c(=Cc2[nH]c(=O)[nH]c2O)ccn1Cc1ccc(C=C2SC(=O)NC2=O)cc1

>  <score_type>  (2663) 
oracle

>  <origin>  (2663) 
adg

>  <m_score__min__energy>  (2663) 
-18.379999999999999

>  <m_primary>  (2663) 
energy

$$$$
85:0
     RDKit          3D

 31 33  0  0  0  0  0  0  0  0999 V2000
   55.3250   26.9750   45.9930 O   0  0  0  0  0  0  0  0  0  0  0  0
   56.1770   26.0290   46.5520 C   0  0  0  0  0  0  0  0  0  0  0  0
   55.8030   24.7800   46.8780 N   0  0  0  0  0  0  0  0  0  0  0  0
   56.9490   24.2410   47.3450 C   0  0  0  0  0  0  0  0  0  0  0  0
   57.0220   23.0540   47.7560 O   0  0  0  0  0  0  0  0  0  0  0  0
   58.0140   25.0720   47.3270 N   0  0  0  0  0  0  0  0  0  0  0  0
   57.5040   26.2200   46.8450 C   0  0  0  0  0  0  0  0  0  0  0  0
   58.2970   27.4160   46.5100 C   0  0  0  0  0  0  0  0  0  0  0  0
   58.9100   28.2250   47.3950 C   0  0  0  0  0  0  0  0  0  0  0  0
   58.5690   29.5560   47.5530 C   0  0  0  0  0  0  0  0  0  0  0  0
   59.4460   30.0850   48.4770 C   0  0  0  0  0  0  0  0  0  0  0  0
   59.3870   31.4700   48.9820 C   0  0  0  0  0  0  0  0  0  0  0  0
   58.7650   31.6890   50.0560 O   0  0  0  0  0  0  0  0  0  0  0  0
   59.9960   32.5600   48.2550 N   0  0  0  0  0  0  0  0  0  0  0  0
   59.9320   33.9380   48.7690 C   0  0  0  0  0  0  0  0  0  0  0  0
   59.1320   34.8470   47.8110 C   0  0  0  0  0  0  0  0  0  0  0  0
   59.1450   34.3500   46.3480 C   0  0  0  0  0  0  0  0  0  0  0  0
   57.9970   33.4650   46.1330 N   0  0  0  0  0  0  0  0  0  0  0  0
   57.6690   32.8470   44.8870 C   0  0  0  0  0  0  0  0  0  0  0  0
   58.0980   33.3330   43.8070 O   0  0  0  0  0  0  0  0  0  0  0  0
   56.8730   31.6930   44.8990 O   0  0  0  0  0  0  0  0  0  0  0  0
   57.0990   30.4990   44.1350 C   0  0  0  0  0  0  0  0  0  0  0  0
   56.9380   30.8660   42.6530 C   0  0  0  0  0  0  0  0  0  0  0  0
   58.5280   29.9660   44.3630 C   0  0  0  0  0  0  0  0  0  0  0  0
   56.0550   29.4250   44.4970 C   0  0  0  0  0  0  0  0  0  0  0  0
   60.4640   33.6100   46.0480 C   0  0  0  0  0  0  0  0  0  0  0  0
   60.5770   32.3460   46.9170 C   0  0  0  0  0  0  0  0  0  0  0  0
   60.3020   29.1360   48.9190 N   0  0  0  0  0  0  0  0  0  0  0  0
   61.2600   29.2870   50.0210 C   0  0  0  0  0  0  0  0  0  0  0  0
   59.9510   27.9760   48.3050 C   0  0  0  0  0  0  0  0  0  0  0  0
   60.4280   26.7760   48.6750 C   0  0  0  0  0  0  0  0  0  0  0  0
  1  2  1  0
  2  3  1  0
  3  4  1  0
  4  5  2  0
  4  6  1  0
  6  7  1  0
  7  8  1  0
  8  9  2  0
  9 10  1  0
 10 11  2  0
 11 12  1  0
 12 13  2  0
 12 14  1  0
 14 15  1  0
 15 16  1  0
 16 17  1  0
 17 18  1  0
 18 19  1  0
 19 20  2  0
 19 21  1  0
 21 22  1  0
 22 23  1  0
 22 24  1  0
 22 25  1  0
 17 26  1  0
 26 27  1  0
 11 28  1  0
 28 29  1  0
 28 30  1  0
 30 31  2  0
  7  2  2  0
 30  9  1  0
 27 14  1  0
M  CHG  3   3  -1   6  -1  18  -1
M  END
>  <UniqueID>  (2664) 
82

>  <SMILES>  (2664) 
C=c1/c(=C\c2[n-]c(=O)[n-]c2O)cc(C(=O)N2CCC([N-]C(=O)OC(C)(C)C)CC2)n1C

>  <Energy>  (2664) 
127.42769886539742

>  <Genealogy>  (2664) 
C=c1c(=Cc2[n-]c(=O)[n-]c2O)cc(C(=O)N2CCC([N-]C(=O)OC(C)(C)C)CC2)n1C (protonated)
C=c1/c(=C\c2[n-]c(=O)[n-]c2O)cc(C(=O)N2CCC([N-]C(=O)OC(C)(C)C)CC2)n1C (cis-trans isomerization)
C=c1/c(=C\c2[n-]c(=O)[n-]c2O)cc(C(=O)N2CCC([N-]C(=O)OC(C)(C)C)CC2)n1C (3D coordinates assigned)
C=c1/c(=C\c2[n-]c(=O)[n-]c2O)cc(C(=O)N2CCC([N-]C(=O)OC(C)(C)C)CC2)n1C (nonaromatic ring conformer: 127.42769886539742 kcal/mol)

>  <smiles>  (2664) 
C=c1c(=Cc2[nH]c(=O)[nH]c2O)cc(C(=O)N2CCC(NC(=O)OC(C)(C)C)CC2)n1C

>  <score_type>  (2664) 
oracle

>  <origin>  (2664) 
adg

>  <m_score__min__energy>  (2664) 
-14.460000000000001

>  <m_primary>  (2664) 
energy

$$$$
91:0
     RDKit          3D

 27 29  0  0  0  0  0  0  0  0999 V2000
   56.9670   24.7200   43.1330 C   0  0  0  0  0  0  0  0  0  0  0  0
   57.4330   25.4160   44.1820 C   0  0  0  0  0  0  0  0  0  0  0  0
   57.2870   25.0990   45.5420 C   0  0  0  0  0  0  0  0  0  0  0  0
   56.5300   24.1710   46.1580 C   0  0  0  0  0  0  0  0  0  0  0  0
   55.0870   23.9760   45.9570 C   0  0  0  0  0  0  0  0  0  0  0  0
   54.4990   22.7820   45.7580 N   0  0  0  0  0  0  0  0  0  0  0  0
   53.2170   23.1120   45.4870 C   0  0  0  0  0  0  0  0  0  0  0  0
   52.3290   22.2470   45.2650 O   0  0  0  0  0  0  0  0  0  0  0  0
   52.9600   24.4410   45.4750 N   0  0  0  0  0  0  0  0  0  0  0  0
   54.1580   24.9740   45.7610 C   0  0  0  0  0  0  0  0  0  0  0  0
   54.3970   26.3400   45.8430 O   0  0  0  0  0  0  0  0  0  0  0  0
   58.1080   25.9730   46.2320 C   0  0  0  0  0  0  0  0  0  0  0  0
   58.6810   26.8090   45.2970 C   0  0  0  0  0  0  0  0  0  0  0  0
   59.5970   27.9210   45.6140 C   0  0  0  0  0  0  0  0  0  0  0  0
   60.7400   27.6410   46.0680 O   0  0  0  0  0  0  0  0  0  0  0  0
   59.1950   29.3010   45.4620 N   0  0  0  0  0  0  0  0  0  0  0  0
   59.9850   30.3800   46.0700 C   0  0  0  0  0  0  0  0  0  0  0  0
   59.0420   31.3550   46.7920 C   0  0  0  0  0  0  0  0  0  0  0  0
   57.9060   31.8190   45.9540 N   0  0  0  0  0  0  0  0  0  0  0  0
   57.9140   33.5590   45.7670 S   0  0  0  0  0  0  0  0  0  0  0  0
   58.0180   34.2000   47.1250 O   0  0  0  0  0  0  0  0  0  0  0  0
   56.6280   34.0060   45.1210 O   0  0  0  0  0  0  0  0  0  0  0  0
   59.2780   34.1070   44.7520 C   0  0  0  0  0  0  0  0  0  0  0  0
   57.8080   31.1750   44.6290 C   0  0  0  0  0  0  0  0  0  0  0  0
   57.9610   29.6540   44.7440 C   0  0  0  0  0  0  0  0  0  0  0  0
   58.2580   26.4870   44.0550 N   0  0  0  0  0  0  0  0  0  0  0  0
   58.7060   27.1000   42.7980 C   0  0  0  0  0  0  0  0  0  0  0  0
  1  2  2  0
  2  3  1  0
  3  4  2  0
  4  5  1  0
  5  6  1  0
  6  7  1  0
  7  8  2  0
  7  9  1  0
  9 10  1  0
 10 11  1  0
  3 12  1  0
 12 13  2  0
 13 14  1  0
 14 15  2  0
 14 16  1  0
 16 17  1  0
 17 18  1  0
 18 19  1  0
 19 20  1  0
 20 21  2  0
 20 22  2  0
 20 23  1  0
 19 24  1  0
 24 25  1  0
 13 26  1  0
 26 27  1  0
 26  2  1  0
 10  5  2  0
 25 16  1  0
M  CHG  3   6  -1   9  -1  11  -1
M  END
>  <UniqueID>  (2665) 
88

>  <SMILES>  (2665) 
C=c1/c(=C\c2[n-]c(=O)[n-]c2[O-])cc(C(=O)N2CCN(S(C)(=O)=O)CC2)n1C

>  <Energy>  (2665) 
123.3848982687148

>  <Genealogy>  (2665) 
C=c1c(=Cc2[n-]c(=O)[n-]c2[O-])cc(C(=O)N2CCN(S(C)(=O)=O)CC2)n1C (protonated)
C=c1/c(=C\c2[n-]c(=O)[n-]c2[O-])cc(C(=O)N2CCN(S(C)(=O)=O)CC2)n1C (cis-trans isomerization)
C=c1/c(=C\c2[n-]c(=O)[n-]c2[O-])cc(C(=O)N2CCN(S(C)(=O)=O)CC2)n1C (3D coordinates assigned)
C=c1/c(=C\c2[n-]c(=O)[n-]c2[O-])cc(C(=O)N2CCN(S(C)(=O)=O)CC2)n1C (nonaromatic ring conformer: 123.3848982687148 kcal/mol)

>  <smiles>  (2665) 
C=c1c(=Cc2[nH]c(=O)[nH]c2O)cc(C(=O)N2CCN(S(C)(=O)=O)CC2)n1C

>  <score_type>  (2665) 
oracle

>  <origin>  (2665) 
adg

>  <m_score__min__energy>  (2665) 
-16.760000000000002

>  <m_primary>  (2665) 
energy

$$$$
1:0
     RDKit          3D

 27 29  0  0  0  0  0  0  0  0999 V2000
   53.6950   28.5710   52.8480 C   0  0  0  0  0  0  0  0  0  0  0  0
   54.6310   29.4890   52.5550 C   0  0  0  0  0  0  0  0  0  0  0  0
   54.4260   30.7150   51.9010 C   0  0  0  0  0  0  0  0  0  0  0  0
   53.3510   31.2110   51.2570 C   0  0  0  0  0  0  0  0  0  0  0  0
   52.1390   31.7530   51.8930 C   0  0  0  0  0  0  0  0  0  0  0  0
   51.8070   31.5740   53.1850 N   0  0  0  0  0  0  0  0  0  0  0  0
   50.5720   32.1150   53.2660 C   0  0  0  0  0  0  0  0  0  0  0  0
   49.9190   32.1550   54.3410 O   0  0  0  0  0  0  0  0  0  0  0  0
   50.0870   32.5980   52.1020 N   0  0  0  0  0  0  0  0  0  0  0  0
   51.0870   32.3480   51.2420 C   0  0  0  0  0  0  0  0  0  0  0  0
   51.0350   32.6480   49.8860 O   0  0  0  0  0  0  0  0  0  0  0  0
   55.6240   31.4010   51.9810 C   0  0  0  0  0  0  0  0  0  0  0  0
   56.5310   30.5630   52.5980 C   0  0  0  0  0  0  0  0  0  0  0  0
   57.9610   30.8910   52.7630 C   0  0  0  0  0  0  0  0  0  0  0  0
   58.5260   30.6660   53.8680 O   0  0  0  0  0  0  0  0  0  0  0  0
   58.6920   31.5130   51.7010 N   0  0  0  0  0  0  0  0  0  0  0  0
   59.2760   30.7800   50.5850 C   0  0  0  0  0  0  0  0  0  0  0  0
   59.1870   31.5980   49.3250 C   0  0  0  0  0  0  0  0  0  0  0  0
   59.7370   32.8890   49.2900 C   0  0  0  0  0  0  0  0  0  0  0  0
   59.6330   33.6650   48.1340 C   0  0  0  0  0  0  0  0  0  0  0  0
   58.9770   33.1640   47.0070 C   0  0  0  0  0  0  0  0  0  0  0  0
   58.4140   31.8730   47.0300 C   0  0  0  0  0  0  0  0  0  0  0  0
   57.7430   31.3260   45.9270 O   0  0  0  0  0  0  0  0  0  0  0  0
   58.3860   30.6830   44.8300 C   0  0  0  0  0  0  0  0  0  0  0  0
   58.5230   31.1000   48.1930 C   0  0  0  0  0  0  0  0  0  0  0  0
   55.9240   29.4100   52.9740 N   0  0  0  0  0  0  0  0  0  0  0  0
   56.5430   28.3220   53.7450 C   0  0  0  0  0  0  0  0  0  0  0  0
  1  2  2  0
  2  3  1  0
  3  4  2  3
  4  5  1  0
  5  6  1  0
  6  7  1  0
  7  8  2  0
  7  9  1  0
  9 10  1  0
 10 11  1  0
  3 12  1  0
 12 13  2  0
 13 14  1  0
 14 15  2  0
 14 16  1  0
 16 17  1  0
 17 18  1  0
 18 19  2  0
 19 20  1  0
 20 21  2  0
 21 22  1  0
 22 23  1  0
 23 24  1  0
 22 25  2  0
 13 26  1  0
 26 27  1  0
 26  2  1  0
 10  5  2  0
 25 18  1  0
M  CHG  4   6  -1   9  -1  11  -1  16  -1
M  END
>  <UniqueID>  (2666) 
2

>  <SMILES>  (2666) 
C=c1c(=Cc2[n-]c(=O)[n-]c2[O-])cc(C(=O)[N-]Cc2cccc(OC)c2)n1C

>  <Energy>  (2666) 
114.69128717689476

>  <Genealogy>  (2666) 
C=c1c(=Cc2[n-]c(=O)[n-]c2[O-])cc(C(=O)[N-]Cc2cccc(OC)c2)n1C (protonated)
C=c1c(=Cc2[n-]c(=O)[n-]c2[O-])cc(C(=O)[N-]Cc2cccc(OC)c2)n1C (3D coordinates assigned)
C=c1c(=Cc2[n-]c(=O)[n-]c2[O-])cc(C(=O)[N-]Cc2cccc(OC)c2)n1C (optimized conformer: 114.69128717689476 kcal/mol)

>  <smiles>  (2666) 
C=c1c(=Cc2[nH]c(=O)[nH]c2O)cc(C(=O)NCc2cccc(OC)c2)n1C

>  <score_type>  (2666) 
oracle

>  <origin>  (2666) 
adg

>  <m_score__min__energy>  (2666) 
-17.829999999999998

>  <m_primary>  (2666) 
energy

$$$$
2:0
     RDKit          3D

 32 35  0  0  0  0  0  0  0  0999 V2000
   55.1700   31.5920   52.2610 C   0  0  0  0  0  0  0  0  0  0  0  0
   54.8180   30.3260   52.5250 C   0  0  0  0  0  0  0  0  0  0  0  0
   53.5450   29.7420   52.4190 C   0  0  0  0  0  0  0  0  0  0  0  0
   52.4080   30.2220   51.8790 C   0  0  0  0  0  0  0  0  0  0  0  0
   51.6530   31.3910   52.3560 C   0  0  0  0  0  0  0  0  0  0  0  0
   51.3200   31.5840   53.6450 N   0  0  0  0  0  0  0  0  0  0  0  0
   50.5300   32.6790   53.6010 C   0  0  0  0  0  0  0  0  0  0  0  0
   50.0220   33.1880   54.6330 O   0  0  0  0  0  0  0  0  0  0  0  0
   50.3130   33.1740   52.3640 N   0  0  0  0  0  0  0  0  0  0  0  0
   51.0190   32.3380   51.5850 C   0  0  0  0  0  0  0  0  0  0  0  0
   51.0540   32.4210   50.1990 O   0  0  0  0  0  0  0  0  0  0  0  0
   53.5830   28.5050   52.9600 N   0  0  0  0  0  0  0  0  0  0  0  0
   54.8650   28.3420   53.3370 C   0  0  0  0  0  0  0  0  0  0  0  0
   55.2830   27.2840   53.8820 O   0  0  0  0  0  0  0  0  0  0  0  0
   55.6480   29.4100   53.0810 N   0  0  0  0  0  0  0  0  0  0  0  0
   57.0620   29.5560   53.4540 C   0  0  0  0  0  0  0  0  0  0  0  0
   57.8400   30.2230   52.3490 C   0  0  0  0  0  0  0  0  0  0  0  0
   58.2400   29.4880   51.2270 C   0  0  0  0  0  0  0  0  0  0  0  0
   58.9650   30.0960   50.2000 C   0  0  0  0  0  0  0  0  0  0  0  0
   59.3140   31.4680   50.2600 C   0  0  0  0  0  0  0  0  0  0  0  0
   60.0690   32.1070   49.1820 N   0  0  0  0  0  0  0  0  0  0  0  0
   60.0990   31.4610   47.8500 C   0  0  0  0  0  0  0  0  0  0  0  0
   60.9380   32.1810   46.7820 C   0  0  0  0  0  0  0  0  0  0  0  0
   60.9970   33.6370   46.9530 N   0  0  0  0  0  0  0  0  0  0  0  0
   59.4690   34.4200   46.5970 S   0  0  0  0  0  0  0  0  0  0  0  0
   58.4290   33.9330   47.5650 O   0  0  0  0  0  0  0  0  0  0  0  0
   59.5770   35.9160   46.7150 O   0  0  0  0  0  0  0  0  0  0  0  0
   58.9320   34.0120   44.9490 C   0  0  0  0  0  0  0  0  0  0  0  0
   61.5310   33.9650   48.2790 C   0  0  0  0  0  0  0  0  0  0  0  0
   60.6590   33.4410   49.4230 C   0  0  0  0  0  0  0  0  0  0  0  0
   58.9050   32.1920   51.4050 C   0  0  0  0  0  0  0  0  0  0  0  0
   58.1760   31.5790   52.4280 C   0  0  0  0  0  0  0  0  0  0  0  0
  1  2  2  0
  2  3  1  0
  3  4  2  0
  4  5  1  0
  5  6  1  0
  6  7  1  0
  7  8  2  0
  7  9  1  0
  9 10  1  0
 10 11  1  0
  3 12  1  0
 12 13  1  0
 13 14  2  0
 13 15  1  0
 15 16  1  0
 16 17  1  0
 17 18  2  0
 18 19  1  0
 19 20  2  0
 20 21  1  0
 21 22  1  0
 22 23  1  0
 23 24  1  0
 24 25  1  0
 25 26  2  0
 25 27  2  0
 25 28  1  0
 24 29  1  0
 29 30  1  0
 20 31  1  0
 31 32  2  0
 15  2  1  0
 32 17  1  0
 10  5  2  0
 30 21  1  0
M  CHG  5   6  -1   9  -1  11  -1  12  -1  24   1
M  END
>  <UniqueID>  (2667) 
3

>  <SMILES>  (2667) 
C=c1/c(=C\c2[n-]c(=O)[n-]c2[O-])[n-]c(=O)n1Cc1ccc(N2CC[NH+](S(C)(=O)=O)CC2)cc1

>  <Energy>  (2667) 
135.71554193478804

>  <Genealogy>  (2667) 
C=c1c(=Cc2[n-]c(=O)[n-]c2[O-])[n-]c(=O)n1Cc1ccc(N2CC[NH+](S(C)(=O)=O)CC2)cc1 (protonated)
C=c1/c(=C\c2[n-]c(=O)[n-]c2[O-])[n-]c(=O)n1Cc1ccc(N2CC[NH+](S(C)(=O)=O)CC2)cc1 (cis-trans isomerization)
C=c1/c(=C\c2[n-]c(=O)[n-]c2[O-])[n-]c(=O)n1Cc1ccc(N2CC[NH+](S(C)(=O)=O)CC2)cc1 (3D coordinates assigned)
C=c1/c(=C\c2[n-]c(=O)[n-]c2[O-])[n-]c(=O)n1Cc1ccc(N2CC[NH+](S(C)(=O)=O)CC2)cc1 (nonaromatic ring conformer: 135.71554193478804 kcal/mol)

>  <smiles>  (2667) 
C=c1c(=Cc2[nH]c(=O)[nH]c2O)[nH]c(=O)n1Cc1ccc(N2CCN(S(C)(=O)=O)CC2)cc1

>  <score_type>  (2667) 
oracle

>  <origin>  (2667) 
adg

>  <m_score__min__energy>  (2667) 
-17.34

>  <m_primary>  (2667) 
energy

$$$$
5:0
     RDKit          3D

 27 29  0  0  0  0  0  0  0  0999 V2000
   63.3660   33.8590   49.7830 C   0  0  0  0  0  0  0  0  0  0  0  0
   63.0410   32.9000   48.6310 C   0  0  0  0  0  0  0  0  0  0  0  0
   61.5840   32.3970   48.7480 C   0  0  0  0  0  0  0  0  0  0  0  0
   61.0460   31.9380   47.3840 C   0  0  0  0  0  0  0  0  0  0  0  0
   61.0630   33.0160   46.3630 N   0  0  0  0  0  0  0  0  0  0  0  0
   59.4680   33.6860   46.1070 S   0  0  0  0  0  0  0  0  0  0  0  0
   58.7550   33.7910   47.4260 O   0  0  0  0  0  0  0  0  0  0  0  0
   59.5930   35.0720   45.5350 O   0  0  0  0  0  0  0  0  0  0  0  0
   58.5170   32.6850   45.0070 C   0  0  0  0  0  0  0  0  0  0  0  0
   58.2850   33.1070   43.6900 C   0  0  0  0  0  0  0  0  0  0  0  0
   57.5200   32.3200   42.8270 C   0  0  0  0  0  0  0  0  0  0  0  0
   56.9720   31.1150   43.2750 C   0  0  0  0  0  0  0  0  0  0  0  0
   57.1750   30.6920   44.5940 C   0  0  0  0  0  0  0  0  0  0  0  0
   56.5910   29.4530   45.0190 N   0  0  0  0  0  0  0  0  0  0  0  0
   57.2610   28.1900   45.1120 C   0  0  0  0  0  0  0  0  0  0  0  0
   57.5630   27.5420   44.0740 O   0  0  0  0  0  0  0  0  0  0  0  0
   57.7070   27.6920   46.4480 C   0  0  0  0  0  0  0  0  0  0  0  0
   57.1530   26.3220   46.6930 C   0  0  0  0  0  0  0  0  0  0  0  0
   57.8860   25.2750   47.1080 N   0  0  0  0  0  0  0  0  0  0  0  0
   56.9950   24.2600   47.1240 C   0  0  0  0  0  0  0  0  0  0  0  0
   57.3050   23.0910   47.4710 O   0  0  0  0  0  0  0  0  0  0  0  0
   55.7460   24.5940   46.7350 N   0  0  0  0  0  0  0  0  0  0  0  0
   55.8670   25.9030   46.4600 C   0  0  0  0  0  0  0  0  0  0  0  0
   54.8230   26.6960   45.9990 O   0  0  0  0  0  0  0  0  0  0  0  0
   57.9770   31.4700   45.4500 C   0  0  0  0  0  0  0  0  0  0  0  0
   62.0380   34.0970   46.6220 C   0  0  0  0  0  0  0  0  0  0  0  0
   63.3230   33.5540   47.2550 C   0  0  0  0  0  0  0  0  0  0  0  0
  1  2  1  0
  2  3  1  0
  3  4  1  0
  4  5  1  0
  5  6  1  0
  6  7  2  0
  6  8  2  0
  6  9  1  0
  9 10  2  0
 10 11  1  0
 11 12  2  0
 12 13  1  0
 13 14  1  0
 14 15  1  0
 15 16  2  0
 15 17  1  0
 17 18  1  0
 18 19  1  0
 19 20  1  0
 20 21  2  0
 20 22  1  0
 22 23  1  0
 23 24  1  0
 13 25  2  0
  5 26  1  0
 26 27  1  0
 27  2  1  0
 25  9  1  0
 23 18  2  0
M  CHG  4  14  -1  19  -1  22  -1  24  -1
M  END
>  <UniqueID>  (2668) 
6

>  <SMILES>  (2668) 
CC1CCN(S(=O)(=O)c2cccc([N-]C(=O)Cc3[n-]c(=O)[n-]c3[O-])c2)CC1

>  <Energy>  (2668) 
79.17342530489236

>  <Genealogy>  (2668) 
CC1CCN(S(=O)(=O)c2cccc([N-]C(=O)Cc3[n-]c(=O)[n-]c3[O-])c2)CC1 (protonated)
CC1CCN(S(=O)(=O)c2cccc([N-]C(=O)Cc3[n-]c(=O)[n-]c3[O-])c2)CC1 (3D coordinates assigned)
CC1CCN(S(=O)(=O)c2cccc([N-]C(=O)Cc3[n-]c(=O)[n-]c3[O-])c2)CC1 (nonaromatic ring conformer: 79.17342530489236 kcal/mol)

>  <smiles>  (2668) 
CC1CCN(S(=O)(=O)c2cccc(NC(=O)Cc3[nH]c(=O)[nH]c3O)c2)CC1

>  <score_type>  (2668) 
oracle

>  <origin>  (2668) 
adg

>  <m_score__min__energy>  (2668) 
-18.609999999999999

>  <m_primary>  (2668) 
energy

$$$$
34:0
     RDKit          3D

 32 35  0  0  0  0  0  0  0  0999 V2000
   53.2580   28.6860   54.0770 C   0  0  0  0  0  0  0  0  0  0  0  0
   54.2360   29.3030   53.3890 C   0  0  0  0  0  0  0  0  0  0  0  0
   54.1020   30.4700   52.6290 C   0  0  0  0  0  0  0  0  0  0  0  0
   53.0050   31.2420   52.5010 C   0  0  0  0  0  0  0  0  0  0  0  0
   52.1740   31.2990   51.2870 C   0  0  0  0  0  0  0  0  0  0  0  0
   52.2440   30.3840   50.3060 N   0  0  0  0  0  0  0  0  0  0  0  0
   51.3710   30.8480   49.3840 C   0  0  0  0  0  0  0  0  0  0  0  0
   51.1430   30.2400   48.3050 O   0  0  0  0  0  0  0  0  0  0  0  0
   50.7680   32.0120   49.7060 N   0  0  0  0  0  0  0  0  0  0  0  0
   51.2950   32.2920   50.9090 C   0  0  0  0  0  0  0  0  0  0  0  0
   51.0190   33.4530   51.6220 O   0  0  0  0  0  0  0  0  0  0  0  0
   55.3530   30.7210   52.0840 C   0  0  0  0  0  0  0  0  0  0  0  0
   56.1930   29.7160   52.5290 C   0  0  0  0  0  0  0  0  0  0  0  0
   57.6260   29.6080   52.1770 C   0  0  0  0  0  0  0  0  0  0  0  0
   58.3340   28.7470   52.7650 O   0  0  0  0  0  0  0  0  0  0  0  0
   58.2210   30.4600   51.1760 N   0  0  0  0  0  0  0  0  0  0  0  0
   59.5340   30.1290   50.6100 C   0  0  0  0  0  0  0  0  0  0  0  0
   59.6180   30.6570   49.1730 C   0  0  0  0  0  0  0  0  0  0  0  0
   59.3550   32.1190   49.0640 N   0  0  0  0  0  0  0  0  0  0  0  0
   58.6820   32.4320   47.7860 C   0  0  0  0  0  0  0  0  0  0  0  0
   58.7640   33.9070   47.4840 C   0  0  0  0  0  0  0  0  0  0  0  0
   59.8940   34.6170   47.4090 C   0  0  0  0  0  0  0  0  0  0  0  0
   61.2390   34.1140   47.7570 C   0  0  0  0  0  0  0  0  0  0  0  0
   61.7060   34.2550   49.0750 C   0  0  0  0  0  0  0  0  0  0  0  0
   62.9900   33.8230   49.4180 C   0  0  0  0  0  0  0  0  0  0  0  0
   63.8310   33.2820   48.4390 C   0  0  0  0  0  0  0  0  0  0  0  0
   63.3920   33.1810   47.1170 C   0  0  0  0  0  0  0  0  0  0  0  0
   62.1010   33.5950   46.7720 C   0  0  0  0  0  0  0  0  0  0  0  0
   58.6490   32.7060   50.2340 C   0  0  0  0  0  0  0  0  0  0  0  0
   57.6100   31.7530   50.8380 C   0  0  0  0  0  0  0  0  0  0  0  0
   55.5160   28.8570   53.3300 N   0  0  0  0  0  0  0  0  0  0  0  0
   56.0670   27.6950   54.0400 C   0  0  0  0  0  0  0  0  0  0  0  0
  1  2  2  0
  2  3  1  0
  3  4  2  3
  4  5  1  0
  5  6  1  0
  6  7  1  0
  7  8  2  0
  7  9  1  0
  9 10  1  0
 10 11  1  0
  3 12  1  0
 12 13  2  0
 13 14  1  0
 14 15  2  0
 14 16  1  0
 16 17  1  0
 17 18  1  0
 18 19  1  0
 19 20  1  0
 20 21  1  0
 21 22  2  3
 22 23  1  0
 23 24  2  0
 24 25  1  0
 25 26  2  0
 26 27  1  0
 27 28  2  0
 19 29  1  0
 29 30  1  0
 13 31  1  0
 31 32  1  0
 31  2  1  0
 10  5  2  0
 30 16  1  0
 28 23  1  0
M  CHG  3   6  -1   9  -1  11  -1
M  END
>  <UniqueID>  (2669) 
34

>  <SMILES>  (2669) 
C=c1c(=Cc2[n-]c(=O)[n-]c2[O-])cc(C(=O)N2CCN(CC=Cc3ccccc3)CC2)n1C

>  <Energy>  (2669) 
141.8870136696811

>  <Genealogy>  (2669) 
C=c1c(=Cc2[n-]c(=O)[n-]c2[O-])cc(C(=O)N2CCN(CC=Cc3ccccc3)CC2)n1C (protonated)
C=c1c(=Cc2[n-]c(=O)[n-]c2[O-])cc(C(=O)N2CCN(CC=Cc3ccccc3)CC2)n1C (3D coordinates assigned)
C=c1c(=Cc2[n-]c(=O)[n-]c2[O-])cc(C(=O)N2CCN(CC=Cc3ccccc3)CC2)n1C (nonaromatic ring conformer: 141.8870136696811 kcal/mol)

>  <smiles>  (2669) 
C=c1c(=Cc2[nH]c(=O)[nH]c2O)cc(C(=O)N2CCN(CC=Cc3ccccc3)CC2)n1C

>  <score_type>  (2669) 
oracle

>  <origin>  (2669) 
adg

>  <m_score__min__energy>  (2669) 
-18.579999999999998

>  <m_primary>  (2669) 
energy

$$$$
54:0
     RDKit          3D

 29 32  0  0  0  0  0  0  0  0999 V2000
   55.1800   31.2280   51.6190 C   0  0  0  0  0  0  0  0  0  0  0  0
   54.8140   30.3510   52.5690 C   0  0  0  0  0  0  0  0  0  0  0  0
   53.5000   30.0630   52.9700 C   0  0  0  0  0  0  0  0  0  0  0  0
   52.3420   30.7130   52.7420 C   0  0  0  0  0  0  0  0  0  0  0  0
   51.7530   30.9760   51.4180 C   0  0  0  0  0  0  0  0  0  0  0  0
   51.8170   30.1360   50.3690 N   0  0  0  0  0  0  0  0  0  0  0  0
   51.2710   30.8520   49.3630 C   0  0  0  0  0  0  0  0  0  0  0  0
   51.1370   30.3940   48.1990 O   0  0  0  0  0  0  0  0  0  0  0  0
   50.8880   32.1020   49.7000 N   0  0  0  0  0  0  0  0  0  0  0  0
   51.2140   32.1680   51.0010 C   0  0  0  0  0  0  0  0  0  0  0  0
   51.0270   33.2970   51.7900 O   0  0  0  0  0  0  0  0  0  0  0  0
   53.5710   28.9050   53.7240 C   0  0  0  0  0  0  0  0  0  0  0  0
   54.9070   28.5740   53.8270 C   0  0  0  0  0  0  0  0  0  0  0  0
   55.4230   27.4030   54.6080 C   0  0  0  0  0  0  0  0  0  0  0  0
   55.6680   29.4560   53.1360 N   0  0  0  0  0  0  0  0  0  0  0  0
   57.1060   29.4270   53.0280 C   0  0  0  0  0  0  0  0  0  0  0  0
   57.8170   29.3860   54.0680 O   0  0  0  0  0  0  0  0  0  0  0  0
   57.7310   29.4530   51.7390 N   0  0  0  0  0  0  0  0  0  0  0  0
   58.2860   30.6290   51.1350 C   0  0  0  0  0  0  0  0  0  0  0  0
   58.2050   31.8240   51.8540 C   0  0  0  0  0  0  0  0  0  0  0  0
   58.7660   32.9960   51.3570 C   0  0  0  0  0  0  0  0  0  0  0  0
   59.4280   32.9940   50.1260 C   0  0  0  0  0  0  0  0  0  0  0  0
   60.0180   34.1760   49.6490 C   0  0  0  0  0  0  0  0  0  0  0  0
   60.6890   34.1850   48.4260 C   0  0  0  0  0  0  0  0  0  0  0  0
   60.7790   33.0170   47.6700 C   0  0  0  0  0  0  0  0  0  0  0  0
   60.1940   31.8340   48.1270 C   0  0  0  0  0  0  0  0  0  0  0  0
   59.5000   31.8000   49.3590 C   0  0  0  0  0  0  0  0  0  0  0  0
   58.8810   30.6140   49.8460 C   0  0  0  0  0  0  0  0  0  0  0  0
   58.8270   29.3680   48.9900 C   0  0  0  0  0  0  0  0  0  0  0  0
  1  2  2  0
  2  3  1  0
  3  4  2  3
  4  5  1  0
  5  6  1  0
  6  7  1  0
  7  8  2  0
  7  9  1  0
  9 10  1  0
 10 11  1  0
  3 12  1  0
 12 13  2  0
 13 14  1  0
 13 15  1  0
 15 16  1  0
 16 17  2  0
 16 18  1  0
 18 19  1  0
 19 20  2  0
 20 21  1  0
 21 22  2  0
 22 23  1  0
 23 24  2  0
 24 25  1  0
 25 26  2  0
 26 27  1  0
 27 28  2  0
 28 29  1  0
 15  2  1  0
 28 19  1  0
 10  5  2  0
 27 22  1  0
M  CHG  4   6  -1   9  -1  11  -1  18  -1
M  END
>  <UniqueID>  (2670) 
54

>  <SMILES>  (2670) 
C=c1c(=Cc2[n-]c(=O)[n-]c2[O-])cc(C)n1C(=O)[N-]c1ccc2ccccc2c1C

>  <Energy>  (2670) 
135.669000414882

>  <Genealogy>  (2670) 
C=c1c(=Cc2[n-]c(=O)[n-]c2[O-])cc(C)n1C(=O)[N-]c1ccc2ccccc2c1C (protonated)
C=c1c(=Cc2[n-]c(=O)[n-]c2[O-])cc(C)n1C(=O)[N-]c1ccc2ccccc2c1C (3D coordinates assigned)
C=c1c(=Cc2[n-]c(=O)[n-]c2[O-])cc(C)n1C(=O)[N-]c1ccc2ccccc2c1C (optimized conformer: 135.669000414882 kcal/mol)

>  <smiles>  (2670) 
C=c1c(=Cc2[nH]c(=O)[nH]c2O)cc(C)n1C(=O)Nc1ccc2ccccc2c1C

>  <score_type>  (2670) 
oracle

>  <origin>  (2670) 
adg

>  <m_score__min__energy>  (2670) 
-18.239999999999998

>  <m_primary>  (2670) 
energy

$$$$
59:0
     RDKit          3D

 34 38  0  0  0  0  0  0  0  0999 V2000
   59.6380   29.3690   44.8320 C   0  0  0  0  0  0  0  0  0  0  0  0
   59.3190   29.1260   46.1160 C   0  0  0  0  0  0  0  0  0  0  0  0
   58.5900   28.0220   46.5760 C   0  0  0  0  0  0  0  0  0  0  0  0
   58.1020   27.0000   45.8450 C   0  0  0  0  0  0  0  0  0  0  0  0
   57.3100   25.8890   46.4070 C   0  0  0  0  0  0  0  0  0  0  0  0
   57.8590   24.7440   46.8500 N   0  0  0  0  0  0  0  0  0  0  0  0
   56.7880   23.9930   47.1860 C   0  0  0  0  0  0  0  0  0  0  0  0
   56.8960   22.8330   47.6620 O   0  0  0  0  0  0  0  0  0  0  0  0
   55.5920   24.5770   46.9600 N   0  0  0  0  0  0  0  0  0  0  0  0
   55.9390   25.7720   46.4560 C   0  0  0  0  0  0  0  0  0  0  0  0
   55.0190   26.7110   46.0050 O   0  0  0  0  0  0  0  0  0  0  0  0
   58.5150   28.1500   47.9530 C   0  0  0  0  0  0  0  0  0  0  0  0
   59.1850   29.3080   48.2800 C   0  0  0  0  0  0  0  0  0  0  0  0
   59.3500   29.8090   49.6850 C   0  0  0  0  0  0  0  0  0  0  0  0
   59.6540   29.9260   47.1680 N   0  0  0  0  0  0  0  0  0  0  0  0
   60.4310   31.1800   47.1550 C   0  0  0  0  0  0  0  0  0  0  0  0
   59.5880   32.3600   46.7160 C   0  0  0  0  0  0  0  0  0  0  0  0
   58.9810   32.3290   45.4470 C   0  0  0  0  0  0  0  0  0  0  0  0
   58.1980   33.3970   45.0040 C   0  0  0  0  0  0  0  0  0  0  0  0
   58.0010   34.5070   45.8250 C   0  0  0  0  0  0  0  0  0  0  0  0
   58.5820   34.5500   47.0930 C   0  0  0  0  0  0  0  0  0  0  0  0
   59.3680   33.4830   47.5520 C   0  0  0  0  0  0  0  0  0  0  0  0
   59.9400   33.5740   48.9070 C   0  0  0  0  0  0  0  0  0  0  0  0
   59.1520   33.5720   49.8910 O   0  0  0  0  0  0  0  0  0  0  0  0
   61.3690   33.6170   49.1150 N   0  0  0  0  0  0  0  0  0  0  0  0
   62.2850   33.5790   47.9660 C   0  0  0  0  0  0  0  0  0  0  0  0
   63.7450   33.6200   48.4210 C   0  0  0  0  0  0  0  0  0  0  0  0
   63.9660   32.6110   49.4740 N   0  0  0  0  0  0  0  0  0  0  0  0
   65.4230   32.4260   49.7140 C   0  0  0  0  0  0  0  0  0  0  0  0
   66.0850   33.4730   50.5870 C   0  0  0  0  0  0  0  0  0  0  0  0
   66.3730   32.5360   51.6010 O   0  0  0  0  0  0  0  0  0  0  0  0
   65.7960   31.4920   50.8470 C   0  0  0  0  0  0  0  0  0  0  0  0
   63.1000   32.7890   50.6750 C   0  0  0  0  0  0  0  0  0  0  0  0
   61.9310   33.7660   50.4640 C   0  0  0  0  0  0  0  0  0  0  0  0
  1  2  2  0
  2  3  1  0
  3  4  2  3
  4  5  1  0
  5  6  1  0
  6  7  1  0
  7  8  2  0
  7  9  1  0
  9 10  1  0
 10 11  1  0
  3 12  1  0
 12 13  2  0
 13 14  1  0
 13 15  1  0
 15 16  1  0
 16 17  1  0
 17 18  2  0
 18 19  1  0
 19 20  2  0
 20 21  1  0
 21 22  2  0
 22 23  1  0
 23 24  2  0
 23 25  1  0
 25 26  1  0
 26 27  1  0
 27 28  1  0
 28 29  1  0
 29 30  1  0
 30 31  1  0
 31 32  1  0
 28 33  1  0
 33 34  1  0
 15  2  1  0
 22 17  1  0
 34 25  1  0
 10  5  2  0
 32 29  1  0
M  CHG  3   6  -1   9  -1  11  -1
M  END
>  <UniqueID>  (2671) 
59

>  <SMILES>  (2671) 
C=c1c(=Cc2[n-]c(=O)[n-]c2[O-])cc(C)n1Cc1ccccc1C(=O)N1CCN(C2COC2)CC1

>  <Energy>  (2671) 
212.82761331360226

>  <Genealogy>  (2671) 
C=c1c(=Cc2[n-]c(=O)[n-]c2[O-])cc(C)n1Cc1ccccc1C(=O)N1CCN(C2COC2)CC1 (protonated)
C=c1c(=Cc2[n-]c(=O)[n-]c2[O-])cc(C)n1Cc1ccccc1C(=O)N1CCN(C2COC2)CC1 (3D coordinates assigned)
C=c1c(=Cc2[n-]c(=O)[n-]c2[O-])cc(C)n1Cc1ccccc1C(=O)N1CCN(C2COC2)CC1 (nonaromatic ring conformer: 212.82761331360226 kcal/mol)

>  <smiles>  (2671) 
C=c1c(=Cc2[nH]c(=O)[nH]c2O)cc(C)n1Cc1ccccc1C(=O)N1CCN(C2COC2)CC1

>  <score_type>  (2671) 
oracle

>  <origin>  (2671) 
adg

>  <m_score__min__energy>  (2671) 
-18.170000000000002

>  <m_primary>  (2671) 
energy

$$$$
62:0
     RDKit          3D

 27 30  0  0  0  0  0  0  0  0999 V2000
   59.6210   27.5910   47.9540 O   0  0  0  0  0  0  0  0  0  0  0  0
   58.6770   28.1100   47.2970 C   0  0  0  0  0  0  0  0  0  0  0  0
   57.6650   27.2750   46.7050 N   0  0  0  0  0  0  0  0  0  0  0  0
   57.7100   25.8390   46.7220 C   0  0  0  0  0  0  0  0  0  0  0  0
   58.7870   25.2420   46.9970 O   0  0  0  0  0  0  0  0  0  0  0  0
   56.5150   25.0390   46.3650 C   0  0  0  0  0  0  0  0  0  0  0  0
   56.5760   23.6370   46.4100 C   0  0  0  0  0  0  0  0  0  0  0  0
   55.4620   22.8700   46.0660 C   0  0  0  0  0  0  0  0  0  0  0  0
   54.2820   23.5120   45.6880 C   0  0  0  0  0  0  0  0  0  0  0  0
   53.2680   22.8380   45.3690 O   0  0  0  0  0  0  0  0  0  0  0  0
   54.2250   24.8700   45.6670 N   0  0  0  0  0  0  0  0  0  0  0  0
   55.2940   25.6430   45.9970 C   0  0  0  0  0  0  0  0  0  0  0  0
   55.1500   27.0250   45.9940 O   0  0  0  0  0  0  0  0  0  0  0  0
   58.6100   29.5810   47.1530 C   0  0  0  0  0  0  0  0  0  0  0  0
   59.2890   30.4330   48.0390 C   0  0  0  0  0  0  0  0  0  0  0  0
   59.2010   31.7790   47.8730 N   0  0  0  0  0  0  0  0  0  0  0  0
   58.4580   32.3280   46.8740 C   0  0  0  0  0  0  0  0  0  0  0  0
   58.4220   33.8200   46.7030 C   0  0  0  0  0  0  0  0  0  0  0  0
   59.1270   34.3450   45.4600 C   0  0  0  0  0  0  0  0  0  0  0  0
   59.7730   34.5090   46.8250 C   0  0  0  0  0  0  0  0  0  0  0  0
   57.7930   31.4800   45.9760 C   0  0  0  0  0  0  0  0  0  0  0  0
   57.0470   32.0190   44.9240 O   0  0  0  0  0  0  0  0  0  0  0  0
   57.3890   31.8300   43.5530 C   0  0  0  0  0  0  0  0  0  0  0  0
   56.6400   30.6470   42.9180 C   0  0  0  0  0  0  0  0  0  0  0  0
   55.6730   29.8790   43.8110 C   0  0  0  0  0  0  0  0  0  0  0  0
   57.0110   29.2610   43.4270 C   0  0  0  0  0  0  0  0  0  0  0  0
   57.8850   30.1340   46.1450 N   0  0  0  0  0  0  0  0  0  0  0  0
  1  2  2  0
  2  3  1  0
  3  4  1  0
  4  5  2  0
  4  6  1  0
  6  7  1  0
  7  8  2  0
  8  9  1  0
  9 10  2  0
  9 11  1  0
 11 12  1  0
 12 13  1  0
  2 14  1  0
 14 15  2  0
 15 16  1  0
 16 17  2  0
 17 18  1  0
 18 19  1  0
 19 20  1  0
 17 21  1  0
 21 22  1  0
 22 23  1  0
 23 24  1  0
 24 25  1  0
 25 26  1  0
 21 27  2  0
 12  6  2  0
 27 14  1  0
 20 18  1  0
 26 24  1  0
M  CHG  2  11  -1  13  -1
M  END
>  <UniqueID>  (2672) 
61

>  <SMILES>  (2672) 
O=C(NC(=O)c1ccc(=O)[n-]c1[O-])c1cnc(C2CC2)c(OCC2CC2)n1

>  <Energy>  (2672) 
578.0745031757409

>  <Genealogy>  (2672) 
O=C(NC(=O)c1ccc(=O)[n-]c1[O-])c1cnc(C2CC2)c(OCC2CC2)n1 (protonated)
O=C(NC(=O)c1ccc(=O)[n-]c1[O-])c1cnc(C2CC2)c(OCC2CC2)n1 (3D coordinates assigned)
O=C(NC(=O)c1ccc(=O)[n-]c1[O-])c1cnc(C2CC2)c(OCC2CC2)n1 (nonaromatic ring conformer: 578.0745031757409 kcal/mol)

>  <smiles>  (2672) 
O=C(NC(=O)c1ccc(=O)[nH]c1O)c1cnc(C2CC2)c(OCC2CC2)n1

>  <score_type>  (2672) 
oracle

>  <origin>  (2672) 
adg

>  <m_score__min__energy>  (2672) 
-14.16

>  <m_primary>  (2672) 
energy

$$$$
64:0
     RDKit          3D

 36 39  0  0  0  0  0  0  0  0999 V2000
   54.2020   28.4980   53.9980 C   0  0  0  0  0  0  0  0  0  0  0  0
   54.7010   29.4740   53.2180 C   0  0  0  0  0  0  0  0  0  0  0  0
   53.9570   30.3260   52.3900 C   0  0  0  0  0  0  0  0  0  0  0  0
   52.6140   30.3420   52.2370 C   0  0  0  0  0  0  0  0  0  0  0  0
   51.8800   30.7680   51.0200 C   0  0  0  0  0  0  0  0  0  0  0  0
   51.7550   30.0630   49.8820 N   0  0  0  0  0  0  0  0  0  0  0  0
   51.0200   30.8680   49.0860 C   0  0  0  0  0  0  0  0  0  0  0  0
   50.6980   30.5500   47.9120 O   0  0  0  0  0  0  0  0  0  0  0  0
   50.6640   32.0430   49.6440 N   0  0  0  0  0  0  0  0  0  0  0  0
   51.2160   31.9640   50.8680 C   0  0  0  0  0  0  0  0  0  0  0  0
   51.1190   32.9670   51.8250 O   0  0  0  0  0  0  0  0  0  0  0  0
   54.8800   31.1540   51.7680 C   0  0  0  0  0  0  0  0  0  0  0  0
   56.1270   30.8010   52.2390 C   0  0  0  0  0  0  0  0  0  0  0  0
   57.3740   31.4830   51.8270 C   0  0  0  0  0  0  0  0  0  0  0  0
   57.8280   32.4550   52.4890 O   0  0  0  0  0  0  0  0  0  0  0  0
   58.0690   31.0560   50.6540 N   0  0  0  0  0  0  0  0  0  0  0  0
   58.4470   31.9610   49.5720 C   0  0  0  0  0  0  0  0  0  0  0  0
   58.8840   31.2060   48.3300 C   0  0  0  0  0  0  0  0  0  0  0  0
   59.1820   29.8430   48.5380 C   0  0  0  0  0  0  0  0  0  0  0  0
   59.6310   29.0340   47.5040 C   0  0  0  0  0  0  0  0  0  0  0  0
   59.8130   29.5680   46.2400 C   0  0  0  0  0  0  0  0  0  0  0  0
   59.5110   30.9060   45.9930 C   0  0  0  0  0  0  0  0  0  0  0  0
   58.9890   31.7640   47.0020 C   0  0  0  0  0  0  0  0  0  0  0  0
   58.6440   33.2460   46.6340 C   0  0  0  0  0  0  0  0  0  0  0  0
   57.1140   33.4560   46.7070 C   0  0  0  0  0  0  0  0  0  0  0  0
   59.2870   34.2600   47.6240 C   0  0  0  0  0  0  0  0  0  0  0  0
   59.1780   33.6410   45.2290 C   0  0  0  0  0  0  0  0  0  0  0  0
   56.0270   29.7690   53.1150 N   0  0  0  0  0  0  0  0  0  0  0  0
   57.1500   29.0740   53.7660 C   0  0  0  0  0  0  0  0  0  0  0  0
   58.2010   28.6280   52.7420 C   0  0  0  0  0  0  0  0  0  0  0  0
   59.5630   28.6880   53.3240 N   0  0  0  0  0  0  0  0  0  0  0  0
   60.3610   29.8110   52.7910 C   0  0  0  0  0  0  0  0  0  0  0  0
   60.8700   29.5400   51.3550 C   0  0  0  0  0  0  0  0  0  0  0  0
   60.4950   28.2620   50.8860 O   0  0  0  0  0  0  0  0  0  0  0  0
   60.9550   27.2710   51.7790 C   0  0  0  0  0  0  0  0  0  0  0  0
   60.3000   27.4130   53.1720 C   0  0  0  0  0  0  0  0  0  0  0  0
  1  2  2  0
  2  3  1  0
  3  4  2  3
  4  5  1  0
  5  6  1  0
  6  7  1  0
  7  8  2  0
  7  9  1  0
  9 10  1  0
 10 11  1  0
  3 12  1  0
 12 13  2  0
 13 14  1  0
 14 15  2  0
 14 16  1  0
 16 17  1  0
 17 18  1  0
 18 19  2  0
 19 20  1  0
 20 21  2  0
 21 22  1  0
 22 23  2  0
 23 24  1  0
 24 25  1  0
 24 26  1  0
 24 27  1  0
 13 28  1  0
 28 29  1  0
 29 30  1  0
 30 31  1  0
 31 32  1  0
 32 33  1  0
 33 34  1  0
 34 35  1  0
 35 36  1  0
 28  2  1  0
 36 31  1  0
 10  5  2  0
 23 18  1  0
M  CHG  3   6  -1   9  -1  16  -1
M  END
>  <UniqueID>  (2673) 
63

>  <SMILES>  (2673) 
C=c1c(=Cc2[n-]c(=O)[n-]c2O)cc(C(=O)[N-]Cc2ccccc2C(C)(C)C)n1CCN1CCOCC1

>  <Energy>  (2673) 
165.37441748389102

>  <Genealogy>  (2673) 
C=c1c(=Cc2[n-]c(=O)[n-]c2O)cc(C(=O)[N-]Cc2ccccc2C(C)(C)C)n1CCN1CCOCC1 (protonated)
C=c1c(=Cc2[n-]c(=O)[n-]c2O)cc(C(=O)[N-]Cc2ccccc2C(C)(C)C)n1CCN1CCOCC1 (3D coordinates assigned)
C=c1c(=Cc2[n-]c(=O)[n-]c2O)cc(C(=O)[N-]Cc2ccccc2C(C)(C)C)n1CCN1CCOCC1 (nonaromatic ring conformer: 165.37441748389102 kcal/mol)

>  <smiles>  (2673) 
C=c1c(=Cc2[nH]c(=O)[nH]c2O)cc(C(=O)NCc2ccccc2C(C)(C)C)n1CCN1CCOCC1

>  <score_type>  (2673) 
oracle

>  <origin>  (2673) 
adg

>  <m_score__min__energy>  (2673) 
-14.01

>  <m_primary>  (2673) 
energy

$$$$
65:0
     RDKit          3D

 35 39  0  0  0  0  0  0  0  0999 V2000
   58.5610   30.0860   45.0510 C   0  0  0  0  0  0  0  0  0  0  0  0
   58.5610   29.6420   46.3190 C   0  0  0  0  0  0  0  0  0  0  0  0
   58.4180   28.3100   46.7390 C   0  0  0  0  0  0  0  0  0  0  0  0
   58.0690   27.1980   46.0640 C   0  0  0  0  0  0  0  0  0  0  0  0
   57.3430   26.0450   46.6190 C   0  0  0  0  0  0  0  0  0  0  0  0
   57.9280   24.9450   47.1290 N   0  0  0  0  0  0  0  0  0  0  0  0
   56.8860   24.1170   47.3590 C   0  0  0  0  0  0  0  0  0  0  0  0
   57.0280   22.9710   47.8590 O   0  0  0  0  0  0  0  0  0  0  0  0
   55.6810   24.6090   47.0000 N   0  0  0  0  0  0  0  0  0  0  0  0
   55.9920   25.8240   46.5190 C   0  0  0  0  0  0  0  0  0  0  0  0
   55.0600   26.7080   45.9910 O   0  0  0  0  0  0  0  0  0  0  0  0
   58.6600   28.3060   48.0990 C   0  0  0  0  0  0  0  0  0  0  0  0
   58.8560   29.6180   48.4830 C   0  0  0  0  0  0  0  0  0  0  0  0
   59.0070   30.0410   49.8930 C   0  0  0  0  0  0  0  0  0  0  0  0
   58.1320   29.7520   50.7520 O   0  0  0  0  0  0  0  0  0  0  0  0
   60.1800   30.7470   50.3080 N   0  0  0  0  0  0  0  0  0  0  0  0
   61.3310   29.9990   50.8170 C   0  0  0  0  0  0  0  0  0  0  0  0
   62.6330   30.6900   50.4010 C   0  0  0  0  0  0  0  0  0  0  0  0
   62.5910   32.1390   50.6550 N   0  0  0  0  0  0  0  0  0  0  0  0
   63.8110   32.8980   50.5260 C   0  0  0  0  0  0  0  0  0  0  0  0
   64.7600   32.4430   49.8300 O   0  0  0  0  0  0  0  0  0  0  0  0
   63.9750   34.2410   51.1810 C   0  0  0  0  0  0  0  0  0  0  0  0
   64.0220   34.1990   52.7010 C   0  0  0  0  0  0  0  0  0  0  0  0
   65.2960   34.4390   51.9120 C   0  0  0  0  0  0  0  0  0  0  0  0
   61.3500   32.7730   51.1290 C   0  0  0  0  0  0  0  0  0  0  0  0
   60.1370   32.2100   50.3800 C   0  0  0  0  0  0  0  0  0  0  0  0
   58.8210   30.4330   47.3970 N   0  0  0  0  0  0  0  0  0  0  0  0
   59.0920   31.8830   47.3890 C   0  0  0  0  0  0  0  0  0  0  0  0
   60.5730   32.2140   47.2830 C   0  0  0  0  0  0  0  0  0  0  0  0
   61.5540   31.1980   47.2830 C   0  0  0  0  0  0  0  0  0  0  0  0
   62.9090   31.5150   47.1820 C   0  0  0  0  0  0  0  0  0  0  0  0
   63.3130   32.8430   47.0750 C   0  0  0  0  0  0  0  0  0  0  0  0
   62.3620   33.8630   47.0680 C   0  0  0  0  0  0  0  0  0  0  0  0
   60.9910   33.5660   47.1680 C   0  0  0  0  0  0  0  0  0  0  0  0
   59.9980   34.6980   47.1500 C   0  0  0  0  0  0  0  0  0  0  0  0
  1  2  2  0
  2  3  1  0
  3  4  2  3
  4  5  1  0
  5  6  1  0
  6  7  1  0
  7  8  2  0
  7  9  1  0
  9 10  1  0
 10 11  1  0
  3 12  1  0
 12 13  2  0
 13 14  1  0
 14 15  2  0
 14 16  1  0
 16 17  1  0
 17 18  1  0
 18 19  1  0
 19 20  1  0
 20 21  2  0
 20 22  1  0
 22 23  1  0
 23 24  1  0
 19 25  1  0
 25 26  1  0
 13 27  1  0
 27 28  1  0
 28 29  1  0
 29 30  2  0
 30 31  1  0
 31 32  2  0
 32 33  1  0
 33 34  2  0
 34 35  1  0
 27  2  1  0
 34 29  1  0
 10  5  2  0
 26 16  1  0
 24 22  1  0
M  CHG  3   6  -1   9  -1  11  -1
M  END
>  <UniqueID>  (2674) 
64

>  <SMILES>  (2674) 
C=c1c(=Cc2[n-]c(=O)[n-]c2[O-])cc(C(=O)N2CCN(C(=O)C3CC3)CC2)n1Cc1ccccc1C

>  <Energy>  (2674) 
407.6914042275152

>  <Genealogy>  (2674) 
C=c1c(=Cc2[n-]c(=O)[n-]c2[O-])cc(C(=O)N2CCN(C(=O)C3CC3)CC2)n1Cc1ccccc1C (protonated)
C=c1c(=Cc2[n-]c(=O)[n-]c2[O-])cc(C(=O)N2CCN(C(=O)C3CC3)CC2)n1Cc1ccccc1C (3D coordinates assigned)
C=c1c(=Cc2[n-]c(=O)[n-]c2[O-])cc(C(=O)N2CCN(C(=O)C3CC3)CC2)n1Cc1ccccc1C (nonaromatic ring conformer: 407.6914042275152 kcal/mol)

>  <smiles>  (2674) 
C=c1c(=Cc2[nH]c(=O)[nH]c2O)cc(C(=O)N2CCN(C(=O)C3CC3)CC2)n1Cc1ccccc1C

>  <score_type>  (2674) 
oracle

>  <origin>  (2674) 
adg

>  <m_score__min__energy>  (2674) 
-16.789999999999999

>  <m_primary>  (2674) 
energy

$$$$
1:0
     RDKit          3D

 30 33  0  0  0  0  0  0  0  0999 V2000
   60.0700   27.4590   45.9490 C   0  0  0  0  0  0  0  0  0  0  0  0
   59.1220   28.1610   45.3010 C   0  0  0  0  0  0  0  0  0  0  0  0
   58.0080   27.6120   44.6490 C   0  0  0  0  0  0  0  0  0  0  0  0
   57.6890   26.3030   44.5430 C   0  0  0  0  0  0  0  0  0  0  0  0
   57.1290   25.4590   45.6230 C   0  0  0  0  0  0  0  0  0  0  0  0
   57.7220   24.3880   46.1790 N   0  0  0  0  0  0  0  0  0  0  0  0
   56.8480   24.0010   47.1330 C   0  0  0  0  0  0  0  0  0  0  0  0
   57.0550   23.0080   47.8780 O   0  0  0  0  0  0  0  0  0  0  0  0
   55.7390   24.7640   47.2280 N   0  0  0  0  0  0  0  0  0  0  0  0
   55.9350   25.6830   46.2690 C   0  0  0  0  0  0  0  0  0  0  0  0
   55.0400   26.7090   45.9910 O   0  0  0  0  0  0  0  0  0  0  0  0
   57.2790   28.6880   44.1680 C   0  0  0  0  0  0  0  0  0  0  0  0
   57.9650   29.8340   44.5160 C   0  0  0  0  0  0  0  0  0  0  0  0
   57.4630   31.1910   44.2010 C   0  0  0  0  0  0  0  0  0  0  0  0
   57.2820   31.5030   42.9930 O   0  0  0  0  0  0  0  0  0  0  0  0
   57.1590   32.1220   45.2520 N   0  0  0  0  0  0  0  0  0  0  0  0
   57.9050   33.0530   45.7840 C   0  0  0  0  0  0  0  0  0  0  0  0
   58.1140   33.1840   47.1740 C   0  0  0  0  0  0  0  0  0  0  0  0
   58.9260   34.2160   47.6540 C   0  0  0  0  0  0  0  0  0  0  0  0
   59.4980   35.0950   46.7930 N   0  0  0  0  0  0  0  0  0  0  0  0
   59.3010   35.0060   45.4520 C   0  0  0  0  0  0  0  0  0  0  0  0
   58.4970   33.9910   44.9280 C   0  0  0  0  0  0  0  0  0  0  0  0
   59.0970   29.5220   45.2020 N   0  0  0  0  0  0  0  0  0  0  0  0
   60.0200   30.4830   45.8370 C   0  0  0  0  0  0  0  0  0  0  0  0
   60.0240   30.3160   47.3360 C   0  0  0  0  0  0  0  0  0  0  0  0
   61.1630   30.6590   48.0860 C   0  0  0  0  0  0  0  0  0  0  0  0
   61.1620   30.5130   49.4770 C   0  0  0  0  0  0  0  0  0  0  0  0
   60.0220   30.0360   50.1300 C   0  0  0  0  0  0  0  0  0  0  0  0
   58.8790   29.7110   49.3950 C   0  0  0  0  0  0  0  0  0  0  0  0
   58.8760   29.8570   48.0040 C   0  0  0  0  0  0  0  0  0  0  0  0
  1  2  2  0
  2  3  1  0
  3  4  2  3
  4  5  1  0
  5  6  1  0
  6  7  1  0
  7  8  2  0
  7  9  1  0
  9 10  1  0
 10 11  1  0
  3 12  1  0
 12 13  2  0
 13 14  1  0
 14 15  2  0
 14 16  1  0
 16 17  2  3
 17 18  1  0
 18 19  2  0
 19 20  1  0
 20 21  1  0
 21 22  2  0
 13 23  1  0
 23 24  1  0
 24 25  1  0
 25 26  2  0
 26 27  1  0
 27 28  2  0
 28 29  1  0
 29 30  2  0
 23  2  1  0
 30 25  1  0
 10  5  2  0
 22 17  1  0
M  CHG  4   6  -1   9  -1  11  -1  20  -1
M  END
>  <UniqueID>  (2675) 
2

>  <SMILES>  (2675) 
C=c1c(=Cc2[n-]c(=O)[n-]c2[O-])cc(C(=O)N=c2cc[n-]cc2)n1Cc1ccccc1

>  <Energy>  (2675) 
124.19582737280504

>  <Genealogy>  (2675) 
C=c1c(=Cc2[n-]c(=O)[n-]c2[O-])cc(C(=O)N=c2cc[n-]cc2)n1Cc1ccccc1 (protonated)
C=c1c(=Cc2[n-]c(=O)[n-]c2[O-])cc(C(=O)N=c2cc[n-]cc2)n1Cc1ccccc1 (3D coordinates assigned)
C=c1c(=Cc2[n-]c(=O)[n-]c2[O-])cc(C(=O)N=c2cc[n-]cc2)n1Cc1ccccc1 (optimized conformer: 124.19582737280504 kcal/mol)

>  <smiles>  (2675) 
C=c1c(=Cc2[nH]c(=O)[nH]c2O)cc(C(=O)N=c2cc[nH]cc2)n1Cc1ccccc1

>  <score_type>  (2675) 
oracle

>  <origin>  (2675) 
adg

>  <m_score__min__energy>  (2675) 
-16.75

>  <m_primary>  (2675) 
energy

$$$$
13:0
     RDKit          3D

 32 35  0  0  0  0  0  0  0  0999 V2000
   56.2550   29.7040   42.5640 C   0  0  0  0  0  0  0  0  0  0  0  0
   56.8440   29.6560   43.7600 C   0  0  0  0  0  0  0  0  0  0  0  0
   56.7750   28.5870   44.5780 N   0  0  0  0  0  0  0  0  0  0  0  0
   57.5100   28.8900   45.6720 C   0  0  0  0  0  0  0  0  0  0  0  0
   57.7100   28.0750   46.7180 C   0  0  0  0  0  0  0  0  0  0  0  0
   57.4330   26.6220   46.6870 C   0  0  0  0  0  0  0  0  0  0  0  0
   56.1660   26.1550   46.3100 C   0  0  0  0  0  0  0  0  0  0  0  0
   55.1470   27.0480   45.9960 O   0  0  0  0  0  0  0  0  0  0  0  0
   55.9210   24.8200   46.2580 N   0  0  0  0  0  0  0  0  0  0  0  0
   56.8920   23.9180   46.5520 C   0  0  0  0  0  0  0  0  0  0  0  0
   56.6390   22.6870   46.5020 O   0  0  0  0  0  0  0  0  0  0  0  0
   58.1340   24.3420   46.8940 N   0  0  0  0  0  0  0  0  0  0  0  0
   58.4310   25.6670   46.9580 C   0  0  0  0  0  0  0  0  0  0  0  0
   59.6050   26.0220   47.2440 O   0  0  0  0  0  0  0  0  0  0  0  0
   58.0620   30.1540   45.5500 C   0  0  0  0  0  0  0  0  0  0  0  0
   57.6100   30.6540   44.3440 C   0  0  0  0  0  0  0  0  0  0  0  0
   57.9810   31.9590   43.7690 C   0  0  0  0  0  0  0  0  0  0  0  0
   58.4800   31.9650   42.6100 O   0  0  0  0  0  0  0  0  0  0  0  0
   57.7370   33.2260   44.4400 N   0  0  0  0  0  0  0  0  0  0  0  0
   56.8730   33.0500   45.6410 C   0  0  0  0  0  0  0  0  0  0  0  0
   57.5940   33.2400   46.9860 C   0  0  0  0  0  0  0  0  0  0  0  0
   59.0120   32.8910   46.8820 N   0  0  0  0  0  0  0  0  0  0  0  0
   59.6590   32.0440   47.8540 C   0  0  0  0  0  0  0  0  0  0  0  0
   60.6440   31.3380   47.5020 O   0  0  0  0  0  0  0  0  0  0  0  0
   59.2090   31.9790   49.2620 C   0  0  0  0  0  0  0  0  0  0  0  0
   59.2650   33.1260   50.0720 C   0  0  0  0  0  0  0  0  0  0  0  0
   58.8280   33.0750   51.3990 C   0  0  0  0  0  0  0  0  0  0  0  0
   58.3220   31.8840   51.9250 C   0  0  0  0  0  0  0  0  0  0  0  0
   58.2460   30.7430   51.1230 C   0  0  0  0  0  0  0  0  0  0  0  0
   58.6830   30.7880   49.7950 C   0  0  0  0  0  0  0  0  0  0  0  0
   59.8180   33.5450   45.8500 C   0  0  0  0  0  0  0  0  0  0  0  0
   58.9490   34.0480   44.6810 C   0  0  0  0  0  0  0  0  0  0  0  0
  1  2  2  0
  2  3  1  0
  3  4  1  0
  4  5  2  3
  5  6  1  0
  6  7  2  0
  7  8  1  0
  7  9  1  0
  9 10  1  0
 10 11  2  0
 10 12  1  0
 12 13  1  0
 13 14  2  0
  4 15  1  0
 15 16  2  0
 16 17  1  0
 17 18  2  0
 17 19  1  0
 19 20  1  0
 20 21  1  0
 21 22  1  0
 22 23  1  0
 23 24  2  0
 23 25  1  0
 25 26  2  0
 26 27  1  0
 27 28  2  0
 28 29  1  0
 29 30  2  0
 22 31  1  0
 31 32  1  0
 16  2  1  0
 32 19  1  0
 13  6  1  0
 30 25  1  0
M  CHG  4   8  -1   9  -1  12  -1  19   1
M  END
>  <UniqueID>  (2676) 
13

>  <SMILES>  (2676) 
C=c1[nH]c(=Cc2c([O-])[n-]c(=O)[n-]c2=O)cc1C(=O)[NH+]1CCN(C(=O)c2ccccc2)CC1

>  <Energy>  (2676) 
114.61792386242227

>  <Genealogy>  (2676) 
C=c1[nH]c(=Cc2c([O-])[n-]c(=O)[n-]c2=O)cc1C(=O)[NH+]1CCN(C(=O)c2ccccc2)CC1 (protonated)
C=c1[nH]c(=Cc2c([O-])[n-]c(=O)[n-]c2=O)cc1C(=O)[NH+]1CCN(C(=O)c2ccccc2)CC1 (3D coordinates assigned)
C=c1[nH]c(=Cc2c([O-])[n-]c(=O)[n-]c2=O)cc1C(=O)[NH+]1CCN(C(=O)c2ccccc2)CC1 (nonaromatic ring conformer: 114.61792386242227 kcal/mol)

>  <smiles>  (2676) 
C=c1[nH]c(=Cc2c(O)[nH]c(=O)[nH]c2=O)cc1C(=O)N1CCN(C(=O)c2ccccc2)CC1

>  <score_type>  (2676) 
oracle

>  <origin>  (2676) 
adg

>  <m_score__min__energy>  (2676) 
-16

>  <m_primary>  (2676) 
energy

$$$$
15:0
     RDKit          3D

 28 31  0  0  0  0  0  0  0  0999 V2000
   60.0150   28.1570   48.1330 C   0  0  0  0  0  0  0  0  0  0  0  0
   59.3470   29.0420   47.3770 C   0  0  0  0  0  0  0  0  0  0  0  0
   58.7120   28.7900   46.1510 C   0  0  0  0  0  0  0  0  0  0  0  0
   58.4220   27.6330   45.5250 C   0  0  0  0  0  0  0  0  0  0  0  0
   57.2030   26.8300   45.7270 C   0  0  0  0  0  0  0  0  0  0  0  0
   57.1830   25.5780   46.2210 N   0  0  0  0  0  0  0  0  0  0  0  0
   55.8640   25.3190   46.3550 C   0  0  0  0  0  0  0  0  0  0  0  0
   55.4300   24.2170   46.7820 O   0  0  0  0  0  0  0  0  0  0  0  0
   55.0470   26.3360   46.0060 N   0  0  0  0  0  0  0  0  0  0  0  0
   55.9130   27.2890   45.6250 C   0  0  0  0  0  0  0  0  0  0  0  0
   55.5310   28.5550   45.1990 O   0  0  0  0  0  0  0  0  0  0  0  0
   58.3550   30.0230   45.6390 C   0  0  0  0  0  0  0  0  0  0  0  0
   58.7220   30.9690   46.5730 C   0  0  0  0  0  0  0  0  0  0  0  0
   58.4660   32.4100   46.4060 C   0  0  0  0  0  0  0  0  0  0  0  0
   57.3780   32.8860   46.8370 O   0  0  0  0  0  0  0  0  0  0  0  0
   59.4060   33.2500   45.6930 N   0  0  0  0  0  0  0  0  0  0  0  0
   58.8770   33.7790   44.4290 C   0  0  0  0  0  0  0  0  0  0  0  0
   58.9220   35.2150   44.9260 C   0  0  0  0  0  0  0  0  0  0  0  0
   59.4750   34.6230   46.2130 C   0  0  0  0  0  0  0  0  0  0  0  0
   59.3130   30.3780   47.6420 N   0  0  0  0  0  0  0  0  0  0  0  0
   59.6880   31.0320   48.9070 C   0  0  0  0  0  0  0  0  0  0  0  0
   61.1100   31.5220   48.8410 C   0  0  0  0  0  0  0  0  0  0  0  0
   62.0420   31.1580   49.8270 C   0  0  0  0  0  0  0  0  0  0  0  0
   63.3560   31.6310   49.7630 C   0  0  0  0  0  0  0  0  0  0  0  0
   63.7510   32.4670   48.7150 C   0  0  0  0  0  0  0  0  0  0  0  0
   62.8300   32.8310   47.7260 C   0  0  0  0  0  0  0  0  0  0  0  0
   63.3250   33.8790   46.4100 Cl  0  0  0  0  0  0  0  0  0  0  0  0
   61.5150   32.3590   47.7870 C   0  0  0  0  0  0  0  0  0  0  0  0
  1  2  2  0
  2  3  1  0
  3  4  2  3
  4  5  1  0
  5  6  1  0
  6  7  1  0
  7  8  2  0
  7  9  1  0
  9 10  1  0
 10 11  1  0
  3 12  1  0
 12 13  2  0
 13 14  1  0
 14 15  2  0
 14 16  1  0
 16 17  1  0
 17 18  1  0
 18 19  1  0
 13 20  1  0
 20 21  1  0
 21 22  1  0
 22 23  2  0
 23 24  1  0
 24 25  2  0
 25 26  1  0
 26 27  1  0
 26 28  2  0
 20  2  1  0
 28 22  1  0
 10  5  2  0
 19 16  1  0
M  CHG  4   6  -1   9  -1  11  -1  16   1
M  END
>  <UniqueID>  (2677) 
15

>  <SMILES>  (2677) 
C=c1c(=Cc2[n-]c(=O)[n-]c2[O-])cc(C(=O)[NH+]2CCC2)n1Cc1cccc(Cl)c1

>  <Energy>  (2677) 
195.3638673951296

>  <Genealogy>  (2677) 
C=c1c(=Cc2[n-]c(=O)[n-]c2[O-])cc(C(=O)[NH+]2CCC2)n1Cc1cccc(Cl)c1 (protonated)
C=c1c(=Cc2[n-]c(=O)[n-]c2[O-])cc(C(=O)[NH+]2CCC2)n1Cc1cccc(Cl)c1 (3D coordinates assigned)
C=c1c(=Cc2[n-]c(=O)[n-]c2[O-])cc(C(=O)[NH+]2CCC2)n1Cc1cccc(Cl)c1 (nonaromatic ring conformer: 195.3638673951296 kcal/mol)

>  <smiles>  (2677) 
C=c1c(=Cc2[nH]c(=O)[nH]c2O)cc(C(=O)N2CCC2)n1Cc1cccc(Cl)c1

>  <score_type>  (2677) 
oracle

>  <origin>  (2677) 
adg

>  <m_score__min__energy>  (2677) 
-15.32

>  <m_primary>  (2677) 
energy

$$$$
18:0
     RDKit          3D

 26 28  0  0  0  0  0  0  0  0999 V2000
   56.3770   25.7900   47.2250 O   0  0  0  0  0  0  0  0  0  0  0  0
   57.1090   25.9290   46.2080 C   0  0  0  0  0  0  0  0  0  0  0  0
   56.8830   25.0690   45.0060 C   0  0  0  0  0  0  0  0  0  0  0  0
   55.5730   24.3230   45.1440 C   0  0  0  0  0  0  0  0  0  0  0  0
   54.3790   24.9670   45.5470 C   0  0  0  0  0  0  0  0  0  0  0  0
   54.3220   26.3320   45.8330 O   0  0  0  0  0  0  0  0  0  0  0  0
   53.2370   24.2410   45.6730 N   0  0  0  0  0  0  0  0  0  0  0  0
   53.2140   22.9060   45.4420 C   0  0  0  0  0  0  0  0  0  0  0  0
   52.1410   22.2630   45.5720 O   0  0  0  0  0  0  0  0  0  0  0  0
   54.3500   22.2600   45.0790 N   0  0  0  0  0  0  0  0  0  0  0  0
   55.5200   22.9300   44.9300 C   0  0  0  0  0  0  0  0  0  0  0  0
   56.5540   22.2890   44.5990 O   0  0  0  0  0  0  0  0  0  0  0  0
   58.1550   26.9060   46.1870 N   0  0  0  0  0  0  0  0  0  0  0  0
   58.0660   28.2260   45.6320 C   0  0  0  0  0  0  0  0  0  0  0  0
   59.1710   29.0790   45.7430 C   0  0  0  0  0  0  0  0  0  0  0  0
   59.1110   30.3840   45.2470 C   0  0  0  0  0  0  0  0  0  0  0  0
   57.9320   30.8630   44.6550 C   0  0  0  0  0  0  0  0  0  0  0  0
   57.8740   32.2610   44.1000 C   0  0  0  0  0  0  0  0  0  0  0  0
   58.3550   33.2500   45.1260 C   0  0  0  0  0  0  0  0  0  0  0  0
   59.1780   34.3210   44.7500 C   0  0  0  0  0  0  0  0  0  0  0  0
   59.6370   35.2110   45.7230 C   0  0  0  0  0  0  0  0  0  0  0  0
   59.2970   35.0310   47.0260 N   0  0  0  0  0  0  0  0  0  0  0  0
   58.5130   33.9930   47.4210 C   0  0  0  0  0  0  0  0  0  0  0  0
   58.0320   33.0810   46.4800 C   0  0  0  0  0  0  0  0  0  0  0  0
   56.8210   30.0120   44.5500 C   0  0  0  0  0  0  0  0  0  0  0  0
   56.8830   28.7060   45.0450 C   0  0  0  0  0  0  0  0  0  0  0  0
  1  2  2  0
  2  3  1  0
  3  4  1  0
  4  5  2  0
  5  6  1  0
  5  7  1  0
  7  8  1  0
  8  9  2  0
  8 10  1  0
 10 11  1  0
 11 12  2  0
  2 13  1  0
 13 14  1  0
 14 15  2  0
 15 16  1  0
 16 17  2  0
 17 18  1  0
 18 19  1  0
 19 20  2  0
 20 21  1  0
 21 22  2  0
 22 23  1  0
 23 24  2  0
 17 25  1  0
 25 26  2  0
 11  4  1  0
 26 14  1  0
 24 19  1  0
M  CHG  3   7  -1  10  -1  13  -1
M  END
>  <UniqueID>  (2678) 
18

>  <SMILES>  (2678) 
O=C(Cc1c(O)[n-]c(=O)[n-]c1=O)[N-]c1ccc(Cc2ccncc2)cc1

>  <Energy>  (2678) 
46.91988916453803

>  <Genealogy>  (2678) 
O=C(Cc1c(O)[n-]c(=O)[n-]c1=O)[N-]c1ccc(Cc2ccncc2)cc1 (protonated)
O=C(Cc1c(O)[n-]c(=O)[n-]c1=O)[N-]c1ccc(Cc2ccncc2)cc1 (3D coordinates assigned)
O=C(Cc1c(O)[n-]c(=O)[n-]c1=O)[N-]c1ccc(Cc2ccncc2)cc1 (optimized conformer: 46.91988916453803 kcal/mol)

>  <smiles>  (2678) 
O=C(Cc1c(O)[nH]c(=O)[nH]c1=O)Nc1ccc(Cc2ccncc2)cc1

>  <score_type>  (2678) 
oracle

>  <origin>  (2678) 
adg

>  <m_score__min__energy>  (2678) 
-14.07

>  <m_primary>  (2678) 
energy

$$$$
39:0
     RDKit          3D

 36 40  0  0  0  0  0  0  0  0999 V2000
   56.7130   25.1520   44.4920 C   0  0  0  0  0  0  0  0  0  0  0  0
   57.8650   24.8790   45.1240 C   0  0  0  0  0  0  0  0  0  0  0  0
   58.4280   23.6230   45.3960 C   0  0  0  0  0  0  0  0  0  0  0  0
   57.9120   22.3880   45.2570 C   0  0  0  0  0  0  0  0  0  0  0  0
   56.6360   21.9180   45.8220 C   0  0  0  0  0  0  0  0  0  0  0  0
   55.4710   21.8760   45.1490 N   0  0  0  0  0  0  0  0  0  0  0  0
   54.5770   21.5250   46.0980 C   0  0  0  0  0  0  0  0  0  0  0  0
   53.3540   21.3650   45.8510 O   0  0  0  0  0  0  0  0  0  0  0  0
   55.0950   21.3690   47.3350 N   0  0  0  0  0  0  0  0  0  0  0  0
   56.3960   21.6370   47.1430 C   0  0  0  0  0  0  0  0  0  0  0  0
   57.3460   21.6290   48.1580 O   0  0  0  0  0  0  0  0  0  0  0  0
   59.6720   23.7990   45.8930 N   0  0  0  0  0  0  0  0  0  0  0  0
   59.8220   25.1350   45.9610 C   0  0  0  0  0  0  0  0  0  0  0  0
   60.8770   25.6810   46.3810 O   0  0  0  0  0  0  0  0  0  0  0  0
   58.7530   25.8230   45.5150 N   0  0  0  0  0  0  0  0  0  0  0  0
   58.6640   27.2540   45.3970 C   0  0  0  0  0  0  0  0  0  0  0  0
   59.7270   27.9790   44.8410 C   0  0  0  0  0  0  0  0  0  0  0  0
   59.6380   29.3670   44.6970 C   0  0  0  0  0  0  0  0  0  0  0  0
   58.4810   30.0510   45.1060 C   0  0  0  0  0  0  0  0  0  0  0  0
   58.3900   31.5180   44.9360 C   0  0  0  0  0  0  0  0  0  0  0  0
   58.4720   32.0020   43.7740 O   0  0  0  0  0  0  0  0  0  0  0  0
   58.2320   32.4050   46.0650 N   0  0  0  0  0  0  0  0  0  0  0  0
   58.8890   32.1080   47.3460 C   0  0  0  0  0  0  0  0  0  0  0  0
   59.3070   33.4100   48.0550 C   0  0  0  0  0  0  0  0  0  0  0  0
   59.7750   34.4290   47.0900 N   0  0  0  0  0  0  0  0  0  0  0  0
   61.0280   34.0170   46.4180 C   0  0  0  0  0  0  0  0  0  0  0  0
   62.0340   33.5420   47.4330 C   0  0  0  0  0  0  0  0  0  0  0  0
   62.8210   32.4050   47.1850 C   0  0  0  0  0  0  0  0  0  0  0  0
   63.7560   31.9760   48.1320 C   0  0  0  0  0  0  0  0  0  0  0  0
   63.9120   32.6770   49.3310 C   0  0  0  0  0  0  0  0  0  0  0  0
   63.1330   33.8090   49.5850 C   0  0  0  0  0  0  0  0  0  0  0  0
   62.1980   34.2430   48.6390 C   0  0  0  0  0  0  0  0  0  0  0  0
   58.7150   34.8260   46.1220 C   0  0  0  0  0  0  0  0  0  0  0  0
   57.6480   33.7370   45.8860 C   0  0  0  0  0  0  0  0  0  0  0  0
   57.4050   29.3180   45.6320 C   0  0  0  0  0  0  0  0  0  0  0  0
   57.4970   27.9300   45.7780 C   0  0  0  0  0  0  0  0  0  0  0  0
  1  2  2  0
  2  3  1  0
  3  4  2  3
  4  5  1  0
  5  6  1  0
  6  7  1  0
  7  8  2  0
  7  9  1  0
  9 10  1  0
 10 11  1  0
  3 12  1  0
 12 13  1  0
 13 14  2  0
 13 15  1  0
 15 16  1  0
 16 17  2  0
 17 18  1  0
 18 19  2  0
 19 20  1  0
 20 21  2  0
 20 22  1  0
 22 23  1  0
 23 24  1  0
 24 25  1  0
 25 26  1  0
 26 27  1  0
 27 28  2  0
 28 29  1  0
 29 30  2  0
 30 31  1  0
 31 32  2  0
 25 33  1  0
 33 34  1  0
 19 35  1  0
 35 36  2  0
 15  2  1  0
 36 16  1  0
 10  5  2  0
 34 22  1  0
 32 27  1  0
M  CHG  4   6  -1   9  -1  11  -1  12  -1
M  END
>  <UniqueID>  (2679) 
39

>  <SMILES>  (2679) 
C=c1c(=Cc2[n-]c(=O)[n-]c2[O-])[n-]c(=O)n1-c1ccc(C(=O)N2CCN(Cc3ccccc3)CC2)cc1

>  <Energy>  (2679) 
157.2305778240352

>  <Genealogy>  (2679) 
C=c1c(=Cc2[n-]c(=O)[n-]c2[O-])[n-]c(=O)n1-c1ccc(C(=O)N2CCN(Cc3ccccc3)CC2)cc1 (protonated)
C=c1c(=Cc2[n-]c(=O)[n-]c2[O-])[n-]c(=O)n1-c1ccc(C(=O)N2CCN(Cc3ccccc3)CC2)cc1 (3D coordinates assigned)
C=c1c(=Cc2[n-]c(=O)[n-]c2[O-])[n-]c(=O)n1-c1ccc(C(=O)N2CCN(Cc3ccccc3)CC2)cc1 (nonaromatic ring conformer: 157.2305778240352 kcal/mol)

>  <smiles>  (2679) 
C=c1c(=Cc2[nH]c(=O)[nH]c2O)[nH]c(=O)n1-c1ccc(C(=O)N2CCN(Cc3ccccc3)CC2)cc1

>  <score_type>  (2679) 
oracle

>  <origin>  (2679) 
adg

>  <m_score__min__energy>  (2679) 
-18.059999999999999

>  <m_primary>  (2679) 
energy

$$$$
52:0
     RDKit          3D

 27 30  0  0  0  0  0  0  0  0999 V2000
   53.8490   28.3210   53.1610 C   0  0  0  0  0  0  0  0  0  0  0  0
   54.6400   29.3900   52.9700 C   0  0  0  0  0  0  0  0  0  0  0  0
   54.2420   30.6570   52.5200 C   0  0  0  0  0  0  0  0  0  0  0  0
   53.0180   31.2070   52.3940 C   0  0  0  0  0  0  0  0  0  0  0  0
   52.2540   31.3230   51.1410 C   0  0  0  0  0  0  0  0  0  0  0  0
   52.2320   30.3930   50.1670 N   0  0  0  0  0  0  0  0  0  0  0  0
   51.3050   30.8670   49.3060 C   0  0  0  0  0  0  0  0  0  0  0  0
   51.0060   30.2720   48.2390 O   0  0  0  0  0  0  0  0  0  0  0  0
   50.7180   32.0230   49.6840 N   0  0  0  0  0  0  0  0  0  0  0  0
   51.3200   32.2880   50.8550 C   0  0  0  0  0  0  0  0  0  0  0  0
   51.0190   33.3880   51.6470 O   0  0  0  0  0  0  0  0  0  0  0  0
   55.4030   31.3350   52.2010 C   0  0  0  0  0  0  0  0  0  0  0  0
   56.4640   30.5090   52.5250 C   0  0  0  0  0  0  0  0  0  0  0  0
   57.9020   30.8170   52.2890 C   0  0  0  0  0  0  0  0  0  0  0  0
   58.7270   30.5550   53.2070 O   0  0  0  0  0  0  0  0  0  0  0  0
   58.4000   31.3560   51.0380 N   0  0  0  0  0  0  0  0  0  0  0  0
   59.0910   30.3380   50.2230 C   0  0  0  0  0  0  0  0  0  0  0  0
   59.4390   30.9030   48.8300 C   0  0  0  0  0  0  0  0  0  0  0  0
   59.8820   32.3230   48.8550 N   0  0  0  0  0  0  0  0  0  0  0  0
   58.8920   33.2360   48.2420 C   0  0  0  0  0  0  0  0  0  0  0  0
   59.2490   33.5240   46.7770 C   0  0  0  0  0  0  0  0  0  0  0  0
   58.1060   34.1140   45.9630 C   0  0  0  0  0  0  0  0  0  0  0  0
   59.2810   34.9900   46.3630 C   0  0  0  0  0  0  0  0  0  0  0  0
   60.3200   32.7600   50.1980 C   0  0  0  0  0  0  0  0  0  0  0  0
   59.2230   32.5700   51.2680 C   0  0  0  0  0  0  0  0  0  0  0  0
   55.9970   29.3350   53.0220 N   0  0  0  0  0  0  0  0  0  0  0  0
   56.8130   28.1970   53.4620 C   0  0  0  0  0  0  0  0  0  0  0  0
  1  2  2  0
  2  3  1  0
  3  4  2  0
  4  5  1  0
  5  6  1  0
  6  7  1  0
  7  8  2  0
  7  9  1  0
  9 10  1  0
 10 11  1  0
  3 12  1  0
 12 13  2  0
 13 14  1  0
 14 15  2  0
 14 16  1  0
 16 17  1  0
 17 18  1  0
 18 19  1  0
 19 20  1  0
 20 21  1  0
 21 22  1  0
 22 23  1  0
 19 24  1  0
 24 25  1  0
 13 26  1  0
 26 27  1  0
 26  2  1  0
 10  5  2  0
 25 16  1  0
 23 21  1  0
M  CHG  4   6  -1   9  -1  11  -1  16   1
M  END
>  <UniqueID>  (2680) 
51

>  <SMILES>  (2680) 
C=c1/c(=C\c2[n-]c(=O)[n-]c2[O-])cc(C(=O)[NH+]2CCN(CC3CC3)CC2)n1C

>  <Energy>  (2680) 
404.29112381232335

>  <Genealogy>  (2680) 
C=c1c(=Cc2[n-]c(=O)[n-]c2[O-])cc(C(=O)[NH+]2CCN(CC3CC3)CC2)n1C (protonated)
C=c1/c(=C\c2[n-]c(=O)[n-]c2[O-])cc(C(=O)[NH+]2CCN(CC3CC3)CC2)n1C (cis-trans isomerization)
C=c1/c(=C\c2[n-]c(=O)[n-]c2[O-])cc(C(=O)[NH+]2CCN(CC3CC3)CC2)n1C (3D coordinates assigned)
C=c1/c(=C\c2[n-]c(=O)[n-]c2[O-])cc(C(=O)[NH+]2CCN(CC3CC3)CC2)n1C (nonaromatic ring conformer: 404.29112381232335 kcal/mol)

>  <smiles>  (2680) 
C=c1c(=Cc2[nH]c(=O)[nH]c2O)cc(C(=O)N2CCN(CC3CC3)CC2)n1C

>  <score_type>  (2680) 
oracle

>  <origin>  (2680) 
adg

>  <m_score__min__energy>  (2680) 
-16.449999999999999

>  <m_primary>  (2680) 
energy

$$$$
60:0
     RDKit          3D

 32 35  0  0  0  0  0  0  0  0999 V2000
   54.0240   28.5690   54.2100 C   0  0  0  0  0  0  0  0  0  0  0  0
   54.4950   29.4390   53.3010 C   0  0  0  0  0  0  0  0  0  0  0  0
   53.7450   30.3720   52.5700 C   0  0  0  0  0  0  0  0  0  0  0  0
   52.4150   30.4950   52.3930 C   0  0  0  0  0  0  0  0  0  0  0  0
   51.7470   30.8170   51.1210 C   0  0  0  0  0  0  0  0  0  0  0  0
   51.7680   30.0380   50.0230 N   0  0  0  0  0  0  0  0  0  0  0  0
   51.1540   30.7970   49.0900 C   0  0  0  0  0  0  0  0  0  0  0  0
   50.9650   30.4000   47.9110 O   0  0  0  0  0  0  0  0  0  0  0  0
   50.7700   32.0190   49.5170 N   0  0  0  0  0  0  0  0  0  0  0  0
   51.1660   32.0200   50.7990 C   0  0  0  0  0  0  0  0  0  0  0  0
   51.0040   33.0990   51.6580 O   0  0  0  0  0  0  0  0  0  0  0  0
   54.6600   31.2340   51.9910 C   0  0  0  0  0  0  0  0  0  0  0  0
   55.9190   30.7720   52.3230 C   0  0  0  0  0  0  0  0  0  0  0  0
   57.1790   31.4430   51.9350 C   0  0  0  0  0  0  0  0  0  0  0  0
   58.1230   31.5340   52.7680 O   0  0  0  0  0  0  0  0  0  0  0  0
   57.3290   32.0100   50.6250 N   0  0  0  0  0  0  0  0  0  0  0  0
   58.5750   32.6330   50.1800 C   0  0  0  0  0  0  0  0  0  0  0  0
   59.3140   31.7080   49.2520 C   0  0  0  0  0  0  0  0  0  0  0  0
   60.7020   31.5330   49.3720 C   0  0  0  0  0  0  0  0  0  0  0  0
   61.3760   30.6560   48.5200 C   0  0  0  0  0  0  0  0  0  0  0  0
   60.6720   29.9370   47.5520 C   0  0  0  0  0  0  0  0  0  0  0  0
   59.2810   30.0820   47.4350 C   0  0  0  0  0  0  0  0  0  0  0  0
   58.5270   29.3290   46.4130 C   0  0  0  0  0  0  0  0  0  0  0  0
   58.5130   28.0700   46.4710 O   0  0  0  0  0  0  0  0  0  0  0  0
   57.8250   29.9960   45.3480 N   0  0  0  0  0  0  0  0  0  0  0  0
   56.8840   29.3090   44.4800 C   0  0  0  0  0  0  0  0  0  0  0  0
   56.4340   30.3460   43.4610 C   0  0  0  0  0  0  0  0  0  0  0  0
   57.4900   31.4460   43.5000 C   0  0  0  0  0  0  0  0  0  0  0  0
   58.1590   31.3270   44.8630 C   0  0  0  0  0  0  0  0  0  0  0  0
   58.6110   30.9840   48.2760 C   0  0  0  0  0  0  0  0  0  0  0  0
   55.8210   29.6580   53.0920 N   0  0  0  0  0  0  0  0  0  0  0  0
   56.9400   28.8840   53.6410 C   0  0  0  0  0  0  0  0  0  0  0  0
  1  2  2  0
  2  3  1  0
  3  4  2  3
  4  5  1  0
  5  6  1  0
  6  7  1  0
  7  8  2  0
  7  9  1  0
  9 10  1  0
 10 11  1  0
  3 12  1  0
 12 13  2  0
 13 14  1  0
 14 15  2  0
 14 16  1  0
 16 17  1  0
 17 18  1  0
 18 19  2  0
 19 20  1  0
 20 21  2  0
 21 22  1  0
 22 23  1  0
 23 24  2  0
 23 25  1  0
 25 26  1  0
 26 27  1  0
 27 28  1  0
 28 29  1  0
 22 30  2  0
 13 31  1  0
 31 32  1  0
 31  2  1  0
 10  5  2  0
 30 18  1  0
 29 25  1  0
M  CHG  3   6  -1   9  -1  11  -1
M  END
>  <UniqueID>  (2681) 
58

>  <SMILES>  (2681) 
C=c1c(=Cc2[n-]c(=O)[n-]c2[O-])cc(C(=O)NCc2cccc(C(=O)N3CCCC3)c2)n1C

>  <Energy>  (2681) 
130.30063561231975

>  <Genealogy>  (2681) 
C=c1c(=Cc2[n-]c(=O)[n-]c2[O-])cc(C(=O)NCc2cccc(C(=O)N3CCCC3)c2)n1C (protonated)
C=c1c(=Cc2[n-]c(=O)[n-]c2[O-])cc(C(=O)NCc2cccc(C(=O)N3CCCC3)c2)n1C (3D coordinates assigned)
C=c1c(=Cc2[n-]c(=O)[n-]c2[O-])cc(C(=O)NCc2cccc(C(=O)N3CCCC3)c2)n1C (nonaromatic ring conformer: 130.30063561231975 kcal/mol)

>  <smiles>  (2681) 
C=c1c(=Cc2[nH]c(=O)[nH]c2O)cc(C(=O)NCc2cccc(C(=O)N3CCCC3)c2)n1C

>  <score_type>  (2681) 
oracle

>  <origin>  (2681) 
adg

>  <m_score__min__energy>  (2681) 
-19.640000000000001

>  <m_primary>  (2681) 
energy

$$$$
63:0
     RDKit          3D

 35 39  0  0  0  0  0  0  0  0999 V2000
   53.7140   29.6770   54.7630 C   0  0  0  0  0  0  0  0  0  0  0  0
   54.2530   30.3210   53.7140 C   0  0  0  0  0  0  0  0  0  0  0  0
   53.6300   30.5290   52.4770 C   0  0  0  0  0  0  0  0  0  0  0  0
   52.3750   30.1920   52.1250 C   0  0  0  0  0  0  0  0  0  0  0  0
   51.6950   30.7000   50.9180 C   0  0  0  0  0  0  0  0  0  0  0  0
   51.6610   30.0290   49.7530 N   0  0  0  0  0  0  0  0  0  0  0  0
   51.0240   30.8810   48.9190 C   0  0  0  0  0  0  0  0  0  0  0  0
   50.7840   30.5980   47.7160 O   0  0  0  0  0  0  0  0  0  0  0  0
   50.6740   32.0610   49.4720 N   0  0  0  0  0  0  0  0  0  0  0  0
   51.1160   31.9370   50.7340 C   0  0  0  0  0  0  0  0  0  0  0  0
   51.0330   32.9520   51.6800 O   0  0  0  0  0  0  0  0  0  0  0  0
   54.5500   31.1940   51.6830 C   0  0  0  0  0  0  0  0  0  0  0  0
   55.6840   31.3590   52.4470 C   0  0  0  0  0  0  0  0  0  0  0  0
   56.9300   31.9720   51.9510 C   0  0  0  0  0  0  0  0  0  0  0  0
   57.1610   33.1830   52.2180 O   0  0  0  0  0  0  0  0  0  0  0  0
   57.8750   31.2090   51.1740 N   0  0  0  0  0  0  0  0  0  0  0  0
   57.9000   29.7410   51.2980 C   0  0  0  0  0  0  0  0  0  0  0  0
   59.1610   29.1430   50.6690 C   0  0  0  0  0  0  0  0  0  0  0  0
   59.3620   29.7100   49.3340 N   0  0  0  0  0  0  0  0  0  0  0  0
   59.9080   28.8740   48.3020 C   0  0  0  0  0  0  0  0  0  0  0  0
   61.0270   28.3260   48.4880 O   0  0  0  0  0  0  0  0  0  0  0  0
   59.1720   28.5940   47.0120 C   0  0  0  0  0  0  0  0  0  0  0  0
   58.5930   29.8120   46.2940 C   0  0  0  0  0  0  0  0  0  0  0  0
   59.4610   29.5030   45.0810 C   0  0  0  0  0  0  0  0  0  0  0  0
   60.0720   28.3130   45.8130 C   0  0  0  0  0  0  0  0  0  0  0  0
   59.2370   31.1570   49.1180 C   0  0  0  0  0  0  0  0  0  0  0  0
   58.9340   31.9000   50.4250 C   0  0  0  0  0  0  0  0  0  0  0  0
   55.5110   30.8410   53.6870 N   0  0  0  0  0  0  0  0  0  0  0  0
   56.5700   30.7210   54.7020 C   0  0  0  0  0  0  0  0  0  0  0  0
   57.3780   29.4710   54.4640 C   0  0  0  0  0  0  0  0  0  0  0  0
   56.7300   28.2500   54.2140 C   0  0  0  0  0  0  0  0  0  0  0  0
   57.4750   27.1020   53.9280 C   0  0  0  0  0  0  0  0  0  0  0  0
   58.8710   27.1650   53.8880 C   0  0  0  0  0  0  0  0  0  0  0  0
   59.5240   28.3750   54.1400 C   0  0  0  0  0  0  0  0  0  0  0  0
   58.7830   29.5240   54.4290 C   0  0  0  0  0  0  0  0  0  0  0  0
  1  2  2  0
  2  3  1  0
  3  4  2  0
  4  5  1  0
  5  6  1  0
  6  7  1  0
  7  8  2  0
  7  9  1  0
  9 10  1  0
 10 11  1  0
  3 12  1  0
 12 13  2  0
 13 14  1  0
 14 15  2  0
 14 16  1  0
 16 17  1  0
 17 18  1  0
 18 19  1  0
 19 20  1  0
 20 21  2  0
 20 22  1  0
 22 23  1  0
 23 24  1  0
 24 25  1  0
 19 26  1  0
 26 27  1  0
 13 28  1  0
 28 29  1  0
 29 30  1  0
 30 31  2  0
 31 32  1  0
 32 33  2  0
 33 34  1  0
 34 35  2  0
 28  2  1  0
 35 30  1  0
 10  5  2  0
 27 16  1  0
 25 22  1  0
M  CHG  3   6  -1   9  -1  11  -1
M  END
>  <UniqueID>  (2682) 
61

>  <SMILES>  (2682) 
C=c1/c(=C/c2[n-]c(=O)[n-]c2[O-])cc(C(=O)N2CCN(C(=O)C3CCC3)CC2)n1Cc1ccccc1

>  <Energy>  (2682) 
197.3732211125839

>  <Genealogy>  (2682) 
C=c1c(=Cc2[n-]c(=O)[n-]c2[O-])cc(C(=O)N2CCN(C(=O)C3CCC3)CC2)n1Cc1ccccc1 (protonated)
C=c1/c(=C/c2[n-]c(=O)[n-]c2[O-])cc(C(=O)N2CCN(C(=O)C3CCC3)CC2)n1Cc1ccccc1 (cis-trans isomerization)
C=c1/c(=C/c2[n-]c(=O)[n-]c2[O-])cc(C(=O)N2CCN(C(=O)C3CCC3)CC2)n1Cc1ccccc1 (3D coordinates assigned)
C=c1/c(=C/c2[n-]c(=O)[n-]c2[O-])cc(C(=O)N2CCN(C(=O)C3CCC3)CC2)n1Cc1ccccc1 (nonaromatic ring conformer: 197.3732211125839 kcal/mol)

>  <smiles>  (2682) 
C=c1c(=Cc2[nH]c(=O)[nH]c2O)cc(C(=O)N2CCN(C(=O)C3CCC3)CC2)n1Cc1ccccc1

>  <score_type>  (2682) 
oracle

>  <origin>  (2682) 
adg

>  <m_score__min__energy>  (2682) 
-17

>  <m_primary>  (2682) 
energy

$$$$
82:0
     RDKit          3D

 31 34  0  0  0  0  0  0  0  0999 V2000
   59.5680   27.8190   48.3520 C   0  0  0  0  0  0  0  0  0  0  0  0
   59.1660   28.6030   47.3410 C   0  0  0  0  0  0  0  0  0  0  0  0
   58.4600   28.2050   46.1940 C   0  0  0  0  0  0  0  0  0  0  0  0
   58.1670   26.9810   45.7080 C   0  0  0  0  0  0  0  0  0  0  0  0
   57.4370   25.9200   46.4190 C   0  0  0  0  0  0  0  0  0  0  0  0
   57.9980   24.8110   46.9350 N   0  0  0  0  0  0  0  0  0  0  0  0
   56.9350   24.0750   47.3310 C   0  0  0  0  0  0  0  0  0  0  0  0
   57.0540   22.9490   47.8830 O   0  0  0  0  0  0  0  0  0  0  0  0
   55.7310   24.6340   47.0680 N   0  0  0  0  0  0  0  0  0  0  0  0
   56.0690   25.7940   46.4780 C   0  0  0  0  0  0  0  0  0  0  0  0
   55.1430   26.7170   45.9940 O   0  0  0  0  0  0  0  0  0  0  0  0
   58.0930   29.3670   45.5410 C   0  0  0  0  0  0  0  0  0  0  0  0
   58.6240   30.4150   46.2590 C   0  0  0  0  0  0  0  0  0  0  0  0
   58.5290   31.8290   45.8430 C   0  0  0  0  0  0  0  0  0  0  0  0
   59.5600   32.7230   46.1720 C   0  0  0  0  0  0  0  0  0  0  0  0
   59.4870   34.0620   45.7760 C   0  0  0  0  0  0  0  0  0  0  0  0
   58.3830   34.5190   45.0540 C   0  0  0  0  0  0  0  0  0  0  0  0
   57.3440   33.6410   44.7330 C   0  0  0  0  0  0  0  0  0  0  0  0
   57.4030   32.2890   45.1310 C   0  0  0  0  0  0  0  0  0  0  0  0
   56.3760   31.3790   44.8270 O   0  0  0  0  0  0  0  0  0  0  0  0
   56.2680   30.6700   43.5940 C   0  0  0  0  0  0  0  0  0  0  0  0
   59.2800   29.9600   47.3540 N   0  0  0  0  0  0  0  0  0  0  0  0
   60.0480   30.7760   48.3080 C   0  0  0  0  0  0  0  0  0  0  0  0
   61.4740   30.9160   47.8440 C   0  0  0  0  0  0  0  0  0  0  0  0
   61.7840   30.4900   46.7420 O   0  0  0  0  0  0  0  0  0  0  0  0
   62.4610   31.5700   48.6870 N   0  0  0  0  0  0  0  0  0  0  0  0
   61.8630   32.6690   49.4920 C   0  0  0  0  0  0  0  0  0  0  0  0
   62.0870   34.0560   48.8560 C   0  0  0  0  0  0  0  0  0  0  0  0
   62.1430   33.9550   47.4490 O   0  0  0  0  0  0  0  0  0  0  0  0
   63.3300   33.2830   47.0550 C   0  0  0  0  0  0  0  0  0  0  0  0
   63.6300   32.0150   47.8970 C   0  0  0  0  0  0  0  0  0  0  0  0
  1  2  2  0
  2  3  1  0
  3  4  2  3
  4  5  1  0
  5  6  1  0
  6  7  1  0
  7  8  2  0
  7  9  1  0
  9 10  1  0
 10 11  1  0
  3 12  1  0
 12 13  2  0
 13 14  1  0
 14 15  2  0
 15 16  1  0
 16 17  2  0
 17 18  1  0
 18 19  2  0
 19 20  1  0
 20 21  1  0
 13 22  1  0
 22 23  1  0
 23 24  1  0
 24 25  2  0
 24 26  1  0
 26 27  1  0
 27 28  1  0
 28 29  1  0
 29 30  1  0
 30 31  1  0
 22  2  1  0
 31 26  1  0
 10  5  2  0
 19 14  1  0
M  CHG  4   6  -1   9  -1  11  -1  26   1
M  END
>  <UniqueID>  (2683) 
80

>  <SMILES>  (2683) 
C=c1c(=Cc2[n-]c(=O)[n-]c2[O-])cc(-c2ccccc2OC)n1CC(=O)[NH+]1CCOCC1

>  <Energy>  (2683) 
140.96871701217006

>  <Genealogy>  (2683) 
C=c1c(=Cc2[n-]c(=O)[n-]c2[O-])cc(-c2ccccc2OC)n1CC(=O)[NH+]1CCOCC1 (protonated)
C=c1c(=Cc2[n-]c(=O)[n-]c2[O-])cc(-c2ccccc2OC)n1CC(=O)[NH+]1CCOCC1 (3D coordinates assigned)
C=c1c(=Cc2[n-]c(=O)[n-]c2[O-])cc(-c2ccccc2OC)n1CC(=O)[NH+]1CCOCC1 (nonaromatic ring conformer: 140.96871701217006 kcal/mol)

>  <smiles>  (2683) 
C=c1c(=Cc2[nH]c(=O)[nH]c2O)cc(-c2ccccc2OC)n1CC(=O)N1CCOCC1

>  <score_type>  (2683) 
oracle

>  <origin>  (2683) 
adg

>  <m_score__min__energy>  (2683) 
-15.27

>  <m_primary>  (2683) 
energy

$$$$
86:0
     RDKit          3D

 28 31  0  0  0  0  0  0  0  0999 V2000
   55.6070   28.5580   45.0360 O   0  0  0  0  0  0  0  0  0  0  0  0
   56.0330   27.3750   45.6350 C   0  0  0  0  0  0  0  0  0  0  0  0
   55.2010   26.3700   45.9520 N   0  0  0  0  0  0  0  0  0  0  0  0
   56.0190   25.4860   46.5620 C   0  0  0  0  0  0  0  0  0  0  0  0
   55.6070   24.3890   47.0220 O   0  0  0  0  0  0  0  0  0  0  0  0
   57.3090   25.8720   46.6490 N   0  0  0  0  0  0  0  0  0  0  0  0
   57.3190   27.0680   46.0360 C   0  0  0  0  0  0  0  0  0  0  0  0
   58.5250   27.9060   45.9190 C   0  0  0  0  0  0  0  0  0  0  0  0
   58.9850   28.6900   46.9140 C   0  0  0  0  0  0  0  0  0  0  0  0
   59.2880   28.2770   48.2000 C   0  0  0  0  0  0  0  0  0  0  0  0
   59.6780   29.4010   48.8970 C   0  0  0  0  0  0  0  0  0  0  0  0
   60.0840   29.3880   50.3400 C   0  0  0  0  0  0  0  0  0  0  0  0
   59.6570   30.4960   48.0970 N   0  0  0  0  0  0  0  0  0  0  0  0
   59.9920   31.8680   48.5250 C   0  0  0  0  0  0  0  0  0  0  0  0
   61.3060   32.3330   47.9330 C   0  0  0  0  0  0  0  0  0  0  0  0
   62.4820   31.6200   48.2350 C   0  0  0  0  0  0  0  0  0  0  0  0
   63.7130   32.0170   47.7090 C   0  0  0  0  0  0  0  0  0  0  0  0
   63.7910   33.1380   46.8840 C   0  0  0  0  0  0  0  0  0  0  0  0
   62.6410   33.8710   46.5890 C   0  0  0  0  0  0  0  0  0  0  0  0
   61.3970   33.4830   47.1090 C   0  0  0  0  0  0  0  0  0  0  0  0
   60.2230   34.3140   46.7960 C   0  0  0  0  0  0  0  0  0  0  0  0
   59.6910   34.9990   47.7070 O   0  0  0  0  0  0  0  0  0  0  0  0
   59.6430   34.3150   45.4880 N   0  0  0  0  0  0  0  0  0  0  0  0
   58.2330   34.5960   45.2450 C   0  0  0  0  0  0  0  0  0  0  0  0
   57.2850   33.6730   45.9870 C   0  0  0  0  0  0  0  0  0  0  0  0
   57.5340   33.4760   44.4980 C   0  0  0  0  0  0  0  0  0  0  0  0
   59.2050   30.0720   46.8810 C   0  0  0  0  0  0  0  0  0  0  0  0
   59.0130   30.8650   45.8120 C   0  0  0  0  0  0  0  0  0  0  0  0
  1  2  1  0
  2  3  1  0
  3  4  1  0
  4  5  2  0
  4  6  1  0
  6  7  1  0
  7  8  1  0
  8  9  2  0
  9 10  1  0
 10 11  2  0
 11 12  1  0
 11 13  1  0
 13 14  1  0
 14 15  1  0
 15 16  2  0
 16 17  1  0
 17 18  2  0
 18 19  1  0
 19 20  2  0
 20 21  1  0
 21 22  2  0
 21 23  1  0
 23 24  1  0
 24 25  1  0
 25 26  1  0
 13 27  1  0
 27 28  2  0
  7  2  2  0
 27  9  1  0
 20 15  1  0
 26 24  1  0
M  CHG  3   3  -1   6  -1  23  -1
M  END
>  <UniqueID>  (2684) 
84

>  <SMILES>  (2684) 
C=c1/c(=C/c2[n-]c(=O)[n-]c2O)cc(C)n1Cc1ccccc1C(=O)[N-]C1CC1

>  <Energy>  (2684) 
385.58046219228925

>  <Genealogy>  (2684) 
C=c1c(=Cc2[n-]c(=O)[n-]c2O)cc(C)n1Cc1ccccc1C(=O)[N-]C1CC1 (protonated)
C=c1/c(=C/c2[n-]c(=O)[n-]c2O)cc(C)n1Cc1ccccc1C(=O)[N-]C1CC1 (cis-trans isomerization)
C=c1/c(=C/c2[n-]c(=O)[n-]c2O)cc(C)n1Cc1ccccc1C(=O)[N-]C1CC1 (3D coordinates assigned)
C=c1/c(=C/c2[n-]c(=O)[n-]c2O)cc(C)n1Cc1ccccc1C(=O)[N-]C1CC1 (nonaromatic ring conformer: 385.58046219228925 kcal/mol)

>  <smiles>  (2684) 
C=c1c(=Cc2[nH]c(=O)[nH]c2O)cc(C)n1Cc1ccccc1C(=O)NC1CC1

>  <score_type>  (2684) 
oracle

>  <origin>  (2684) 
adg

>  <m_score__min__energy>  (2684) 
-14.630000000000001

>  <m_primary>  (2684) 
energy

$$$$
88:0
     RDKit          3D

 24 26  0  0  0  0  0  0  0  0999 V2000
   53.2860   27.9140   53.6550 C   0  0  0  0  0  0  0  0  0  0  0  0
   54.0910   28.9000   53.2330 C   0  0  0  0  0  0  0  0  0  0  0  0
   55.4220   28.7340   53.4490 N   0  0  0  0  0  0  0  0  0  0  0  0
   56.3810   29.5370   52.9180 C   0  0  0  0  0  0  0  0  0  0  0  0
   57.8090   29.2500   53.2790 C   0  0  0  0  0  0  0  0  0  0  0  0
   56.0040   30.5710   52.0320 C   0  0  0  0  0  0  0  0  0  0  0  0
   56.9820   31.4460   51.3350 C   0  0  0  0  0  0  0  0  0  0  0  0
   57.0480   32.6780   51.5980 O   0  0  0  0  0  0  0  0  0  0  0  0
   57.8590   30.8880   50.3970 O   0  0  0  0  0  0  0  0  0  0  0  0
   59.0020   31.5740   49.8870 C   0  0  0  0  0  0  0  0  0  0  0  0
   58.6090   32.6570   48.8890 C   0  0  0  0  0  0  0  0  0  0  0  0
   59.6370   33.7740   49.0500 C   0  0  0  0  0  0  0  0  0  0  0  0
   60.4190   33.4800   50.3290 C   0  0  0  0  0  0  0  0  0  0  0  0
   59.7180   32.3120   51.0030 C   0  0  0  0  0  0  0  0  0  0  0  0
   54.6340   30.7930   51.8220 C   0  0  0  0  0  0  0  0  0  0  0  0
   53.6480   30.0250   52.4730 C   0  0  0  0  0  0  0  0  0  0  0  0
   52.3590   30.4290   52.3350 C   0  0  0  0  0  0  0  0  0  0  0  0
   51.6960   30.8260   51.0790 C   0  0  0  0  0  0  0  0  0  0  0  0
   51.6780   30.0580   49.9760 N   0  0  0  0  0  0  0  0  0  0  0  0
   51.0750   30.8430   49.0570 C   0  0  0  0  0  0  0  0  0  0  0  0
   50.8590   30.4620   47.8770 O   0  0  0  0  0  0  0  0  0  0  0  0
   50.7340   32.0730   49.4970 N   0  0  0  0  0  0  0  0  0  0  0  0
   51.1460   32.0530   50.7740 C   0  0  0  0  0  0  0  0  0  0  0  0
   51.0490   33.1420   51.6320 O   0  0  0  0  0  0  0  0  0  0  0  0
  1  2  2  0
  2  3  1  0
  3  4  2  0
  4  5  1  0
  4  6  1  0
  6  7  1  0
  7  8  2  0
  7  9  1  0
  9 10  1  0
 10 11  1  0
 11 12  1  0
 12 13  1  0
 13 14  1  0
  6 15  2  0
 15 16  1  0
 16 17  2  0
 17 18  1  0
 18 19  1  0
 19 20  1  0
 20 21  2  0
 20 22  1  0
 22 23  1  0
 23 24  1  0
 16  2  1  0
 23 18  2  0
 14 10  1  0
M  CHG  3  19  -1  22  -1  24  -1
M  END
>  <UniqueID>  (2685) 
86

>  <SMILES>  (2685) 
C=c1nc(C)c(C(=O)OC2CCCC2)c/c1=C/c1[n-]c(=O)[n-]c1[O-]

>  <Energy>  (2685) 
92.43238500956042

>  <Genealogy>  (2685) 
C=c1nc(C)c(C(=O)OC2CCCC2)cc1=Cc1[n-]c(=O)[n-]c1[O-] (protonated)
C=c1nc(C)c(C(=O)OC2CCCC2)c/c1=C/c1[n-]c(=O)[n-]c1[O-] (cis-trans isomerization)
C=c1nc(C)c(C(=O)OC2CCCC2)c/c1=C/c1[n-]c(=O)[n-]c1[O-] (3D coordinates assigned)
C=c1nc(C)c(C(=O)OC2CCCC2)c/c1=C/c1[n-]c(=O)[n-]c1[O-] (nonaromatic ring conformer: 92.43238500956042 kcal/mol)

>  <smiles>  (2685) 
C=c1nc(C)c(C(=O)OC2CCCC2)cc1=Cc1[nH]c(=O)[nH]c1O

>  <score_type>  (2685) 
oracle

>  <origin>  (2685) 
adg

>  <m_score__min__energy>  (2685) 
-16.399999999999999

>  <m_primary>  (2685) 
energy

$$$$
2:0
     RDKit          3D

 29 31  0  0  0  0  0  0  0  0999 V2000
   54.4090   25.8740   45.6450 O   0  0  0  0  0  0  0  0  0  0  0  0
   55.6680   25.8750   45.6810 C   0  0  0  0  0  0  0  0  0  0  0  0
   56.3530   27.0750   46.0590 N   0  0  0  0  0  0  0  0  0  0  0  0
   57.2040   27.8480   45.1610 C   0  0  0  0  0  0  0  0  0  0  0  0
   56.6820   29.2510   45.0490 C   0  0  0  0  0  0  0  0  0  0  0  0
   55.4450   29.4140   44.8600 O   0  0  0  0  0  0  0  0  0  0  0  0
   57.5460   30.4050   45.1450 N   0  0  0  0  0  0  0  0  0  0  0  0
   57.0850   31.6620   44.5350 C   0  0  0  0  0  0  0  0  0  0  0  0
   58.1060   32.7780   44.7200 C   0  0  0  0  0  0  0  0  0  0  0  0
   58.5680   32.7480   46.1090 N   0  0  0  0  0  0  0  0  0  0  0  0
   59.4280   34.2210   46.4970 S   0  0  0  0  0  0  0  0  0  0  0  0
   59.6060   35.0380   45.2470 O   0  0  0  0  0  0  0  0  0  0  0  0
   58.6180   35.0310   47.4700 O   0  0  0  0  0  0  0  0  0  0  0  0
   61.0150   33.8790   47.1950 C   0  0  0  0  0  0  0  0  0  0  0  0
   61.1580   33.6970   48.5790 C   0  0  0  0  0  0  0  0  0  0  0  0
   62.4150   33.4190   49.1270 C   0  0  0  0  0  0  0  0  0  0  0  0
   63.5330   33.3210   48.2940 C   0  0  0  0  0  0  0  0  0  0  0  0
   63.3980   33.5010   46.9160 C   0  0  0  0  0  0  0  0  0  0  0  0
   62.1420   33.7810   46.3660 C   0  0  0  0  0  0  0  0  0  0  0  0
   59.4280   31.5760   46.3540 C   0  0  0  0  0  0  0  0  0  0  0  0
   58.9210   30.2840   45.6660 C   0  0  0  0  0  0  0  0  0  0  0  0
   56.4010   24.6590   45.2870 C   0  0  0  0  0  0  0  0  0  0  0  0
   55.8170   23.7900   44.3510 C   0  0  0  0  0  0  0  0  0  0  0  0
   56.4910   22.6360   43.9410 C   0  0  0  0  0  0  0  0  0  0  0  0
   55.9060   21.7830   43.0150 O   0  0  0  0  0  0  0  0  0  0  0  0
   57.7510   22.3390   44.4650 C   0  0  0  0  0  0  0  0  0  0  0  0
   58.3350   23.1910   45.4070 C   0  0  0  0  0  0  0  0  0  0  0  0
   57.6640   24.3420   45.8350 C   0  0  0  0  0  0  0  0  0  0  0  0
   58.2610   25.1340   46.8180 O   0  0  0  0  0  0  0  0  0  0  0  0
  1  2  2  0
  2  3  1  0
  3  4  1  0
  4  5  1  0
  5  6  2  0
  5  7  1  0
  7  8  1  0
  8  9  1  0
  9 10  1  0
 10 11  1  0
 11 12  2  0
 11 13  2  0
 11 14  1  0
 14 15  2  0
 15 16  1  0
 16 17  2  0
 17 18  1  0
 18 19  2  0
 10 20  1  0
 20 21  1  0
  2 22  1  0
 22 23  2  0
 23 24  1  0
 24 25  1  0
 24 26  2  0
 26 27  1  0
 27 28  2  0
 28 29  1  0
 21  7  1  0
 28 22  1  0
 19 14  1  0
M  CHG  2   3  -1  25  -1
M  END
>  <UniqueID>  (2686) 
3

>  <SMILES>  (2686) 
O=C([N-]CC(=O)N1CCN(S(=O)(=O)c2ccccc2)CC1)c1cc([O-])ccc1O

>  <Energy>  (2686) 
58.61012090978271

>  <Genealogy>  (2686) 
O=C([N-]CC(=O)N1CCN(S(=O)(=O)c2ccccc2)CC1)c1cc([O-])ccc1O (protonated)
O=C([N-]CC(=O)N1CCN(S(=O)(=O)c2ccccc2)CC1)c1cc([O-])ccc1O (3D coordinates assigned)
O=C([N-]CC(=O)N1CCN(S(=O)(=O)c2ccccc2)CC1)c1cc([O-])ccc1O (nonaromatic ring conformer: 58.61012090978271 kcal/mol)

>  <smiles>  (2686) 
O=C(NCC(=O)N1CCN(S(=O)(=O)c2ccccc2)CC1)c1cc(O)ccc1O

>  <score_type>  (2686) 
oracle

>  <origin>  (2686) 
adg

>  <m_score__min__energy>  (2686) 
-14.470000000000001

>  <m_primary>  (2686) 
energy

$$$$
5:0
     RDKit          3D

 27 29  0  0  0  0  0  0  0  0999 V2000
   57.8210   27.8630   47.4080 O   0  0  0  0  0  0  0  0  0  0  0  0
   57.6050   27.8660   46.1670 C   0  0  0  0  0  0  0  0  0  0  0  0
   58.4160   26.9820   45.2730 C   0  0  0  0  0  0  0  0  0  0  0  0
   57.5400   26.0880   44.5230 N   0  0  0  0  0  0  0  0  0  0  0  0
   57.3050   24.8630   44.8860 C   0  0  0  0  0  0  0  0  0  0  0  0
   55.9230   24.3320   44.9850 C   0  0  0  0  0  0  0  0  0  0  0  0
   54.9040   25.1360   45.5290 C   0  0  0  0  0  0  0  0  0  0  0  0
   55.1740   26.4360   45.9520 O   0  0  0  0  0  0  0  0  0  0  0  0
   53.6400   24.6480   45.6470 N   0  0  0  0  0  0  0  0  0  0  0  0
   53.3320   23.3900   45.2480 C   0  0  0  0  0  0  0  0  0  0  0  0
   52.1560   22.9610   45.3730 O   0  0  0  0  0  0  0  0  0  0  0  0
   54.2920   22.5920   44.7180 N   0  0  0  0  0  0  0  0  0  0  0  0
   55.5700   23.0260   44.5750 C   0  0  0  0  0  0  0  0  0  0  0  0
   56.4250   22.2450   44.0780 O   0  0  0  0  0  0  0  0  0  0  0  0
   56.6710   28.7830   45.5830 N   0  0  0  0  0  0  0  0  0  0  0  0
   56.9700   29.8380   44.6560 C   0  0  0  0  0  0  0  0  0  0  0  0
   56.4850   29.8180   43.3340 C   0  0  0  0  0  0  0  0  0  0  0  0
   56.8010   30.8550   42.4520 C   0  0  0  0  0  0  0  0  0  0  0  0
   57.6090   31.9120   42.8730 C   0  0  0  0  0  0  0  0  0  0  0  0
   58.1140   31.9310   44.1740 C   0  0  0  0  0  0  0  0  0  0  0  0
   57.8040   30.8960   45.0670 C   0  0  0  0  0  0  0  0  0  0  0  0
   58.4750   30.9480   46.7330 S   0  0  0  0  0  0  0  0  0  0  0  0
   58.8710   32.6890   46.6190 C   0  0  0  0  0  0  0  0  0  0  0  0
   57.9770   33.7400   46.7560 C   0  0  0  0  0  0  0  0  0  0  0  0
   58.5330   34.9740   46.6200 N   0  0  0  0  0  0  0  0  0  0  0  0
   59.8620   34.9120   46.3770 C   0  0  0  0  0  0  0  0  0  0  0  0
   60.3980   33.3180   46.3190 S   0  0  0  0  0  0  0  0  0  0  0  0
  1  2  2  0
  2  3  1  0
  3  4  1  0
  4  5  2  3
  5  6  1  0
  6  7  2  0
  7  8  1  0
  7  9  1  0
  9 10  1  0
 10 11  2  0
 10 12  1  0
 12 13  1  0
 13 14  2  0
  2 15  1  0
 15 16  1  0
 16 17  2  0
 17 18  1  0
 18 19  2  0
 19 20  1  0
 20 21  2  0
 21 22  1  0
 22 23  1  0
 23 24  2  0
 24 25  1  0
 25 26  2  0
 26 27  1  0
 13  6  1  0
 21 16  1  0
 27 23  1  0
M  CHG  3   9  -1  12  -1  15  -1
M  END
>  <UniqueID>  (2687) 
6

>  <SMILES>  (2687) 
O=C(CN=Cc1c(O)[n-]c(=O)[n-]c1=O)[N-]c1ccccc1Sc1cncs1

>  <Energy>  (2687) 
67.10028798893234

>  <Genealogy>  (2687) 
O=C(CN=Cc1c(O)[n-]c(=O)[n-]c1=O)[N-]c1ccccc1Sc1cncs1 (protonated)
O=C(CN=Cc1c(O)[n-]c(=O)[n-]c1=O)[N-]c1ccccc1Sc1cncs1 (3D coordinates assigned)
O=C(CN=Cc1c(O)[n-]c(=O)[n-]c1=O)[N-]c1ccccc1Sc1cncs1 (optimized conformer: 67.10028798893234 kcal/mol)

>  <smiles>  (2687) 
O=C(CN=Cc1c(O)[nH]c(=O)[nH]c1=O)Nc1ccccc1Sc1cncs1

>  <score_type>  (2687) 
oracle

>  <origin>  (2687) 
adg

>  <m_score__min__energy>  (2687) 
-14.48

>  <m_primary>  (2687) 
energy

$$$$
6:0
     RDKit          3D

 30 33  0  0  0  0  0  0  0  0999 V2000
   58.5120   28.6160   47.6850 C   0  0  0  0  0  0  0  0  0  0  0  0
   58.1710   29.3480   46.6140 C   0  0  0  0  0  0  0  0  0  0  0  0
   57.5780   28.9040   45.4180 C   0  0  0  0  0  0  0  0  0  0  0  0
   57.3250   27.6610   44.9590 C   0  0  0  0  0  0  0  0  0  0  0  0
   57.2410   26.4440   45.7890 C   0  0  0  0  0  0  0  0  0  0  0  0
   55.9990   25.9940   46.2590 C   0  0  0  0  0  0  0  0  0  0  0  0
   54.8390   26.7120   45.9950 O   0  0  0  0  0  0  0  0  0  0  0  0
   55.9250   24.8500   46.9880 N   0  0  0  0  0  0  0  0  0  0  0  0
   57.0360   24.1180   47.2590 C   0  0  0  0  0  0  0  0  0  0  0  0
   56.9440   23.0640   47.9400 O   0  0  0  0  0  0  0  0  0  0  0  0
   58.2460   24.5190   46.7920 N   0  0  0  0  0  0  0  0  0  0  0  0
   58.3730   25.6540   46.0580 C   0  0  0  0  0  0  0  0  0  0  0  0
   59.5080   25.9860   45.6220 O   0  0  0  0  0  0  0  0  0  0  0  0
   57.2830   30.0780   44.7290 C   0  0  0  0  0  0  0  0  0  0  0  0
   56.6310   30.1950   43.3840 C   0  0  0  0  0  0  0  0  0  0  0  0
   57.7080   31.1340   45.4440 N   0  0  0  0  0  0  0  0  0  0  0  0
   58.2520   30.7030   46.5710 N   0  0  0  0  0  0  0  0  0  0  0  0
   58.7520   31.6090   47.6110 C   0  0  0  0  0  0  0  0  0  0  0  0
   58.3580   33.0330   47.3160 C   0  0  0  0  0  0  0  0  0  0  0  0
   57.1930   33.2690   46.8930 O   0  0  0  0  0  0  0  0  0  0  0  0
   59.3190   34.1040   47.3860 N   0  0  0  0  0  0  0  0  0  0  0  0
   59.9970   34.3970   48.6520 C   0  0  0  0  0  0  0  0  0  0  0  0
   61.4480   33.9850   48.5820 C   0  0  0  0  0  0  0  0  0  0  0  0
   62.1870   33.8670   49.7680 C   0  0  0  0  0  0  0  0  0  0  0  0
   63.5460   33.5410   49.7240 C   0  0  0  0  0  0  0  0  0  0  0  0
   64.1780   33.3410   48.4960 C   0  0  0  0  0  0  0  0  0  0  0  0
   63.4570   33.4690   47.3070 C   0  0  0  0  0  0  0  0  0  0  0  0
   62.0950   33.8080   47.3330 C   0  0  0  0  0  0  0  0  0  0  0  0
   61.3310   33.8760   46.0280 C   0  0  0  0  0  0  0  0  0  0  0  0
   59.9900   34.5980   46.1820 C   0  0  0  0  0  0  0  0  0  0  0  0
  1  2  2  0
  2  3  1  0
  3  4  2  0
  4  5  1  0
  5  6  2  0
  6  7  1  0
  6  8  1  0
  8  9  1  0
  9 10  2  0
  9 11  1  0
 11 12  1  0
 12 13  2  0
  3 14  1  0
 14 15  1  0
 14 16  2  0
 16 17  1  0
 17 18  1  0
 18 19  1  0
 19 20  2  0
 19 21  1  0
 21 22  1  0
 22 23  1  0
 23 24  2  0
 24 25  1  0
 25 26  2  0
 26 27  1  0
 27 28  2  0
 28 29  1  0
 29 30  1  0
 17  2  1  0
 30 21  1  0
 12  5  1  0
 28 23  1  0
M  CHG  4   7  -1   8  -1  11  -1  16   1
M  END
>  <UniqueID>  (2688) 
7

>  <SMILES>  (2688) 
C=c1/c(=C\c2c([O-])[n-]c(=O)[n-]c2=O)c(C)[nH+]n1CC(=O)N1CCc2ccccc2C1

>  <Energy>  (2688) 
105.00489304691912

>  <Genealogy>  (2688) 
C=c1c(=Cc2c([O-])[n-]c(=O)[n-]c2=O)c(C)[nH+]n1CC(=O)N1CCc2ccccc2C1 (protonated)
C=c1/c(=C\c2c([O-])[n-]c(=O)[n-]c2=O)c(C)[nH+]n1CC(=O)N1CCc2ccccc2C1 (cis-trans isomerization)
C=c1/c(=C\c2c([O-])[n-]c(=O)[n-]c2=O)c(C)[nH+]n1CC(=O)N1CCc2ccccc2C1 (3D coordinates assigned)
C=c1/c(=C\c2c([O-])[n-]c(=O)[n-]c2=O)c(C)[nH+]n1CC(=O)N1CCc2ccccc2C1 (nonaromatic ring conformer: 105.00489304691912 kcal/mol)

>  <smiles>  (2688) 
C=c1c(=Cc2c(O)[nH]c(=O)[nH]c2=O)c(C)nn1CC(=O)N1CCc2ccccc2C1

>  <score_type>  (2688) 
oracle

>  <origin>  (2688) 
adg

>  <m_score__min__energy>  (2688) 
-15.949999999999999

>  <m_primary>  (2688) 
energy

$$$$
14:0
     RDKit          3D

 24 26  0  0  0  0  0  0  0  0999 V2000
   57.7540   32.9800   52.8170 O   0  0  0  0  0  0  0  0  0  0  0  0
   57.5160   31.9910   52.0700 C   0  0  0  0  0  0  0  0  0  0  0  0
   58.3720   31.7300   50.9450 N   0  0  0  0  0  0  0  0  0  0  0  0
   59.3560   32.7020   50.4730 C   0  0  0  0  0  0  0  0  0  0  0  0
   59.0420   33.1160   49.0620 C   0  0  0  0  0  0  0  0  0  0  0  0
   59.6000   34.2810   48.5150 C   0  0  0  0  0  0  0  0  0  0  0  0
   59.2700   34.6550   47.2110 C   0  0  0  0  0  0  0  0  0  0  0  0
   58.4110   33.8950   46.4800 N   0  0  0  0  0  0  0  0  0  0  0  0
   57.8500   32.7650   46.9870 C   0  0  0  0  0  0  0  0  0  0  0  0
   58.1540   32.3560   48.2880 C   0  0  0  0  0  0  0  0  0  0  0  0
   56.3660   31.1070   52.3770 C   0  0  0  0  0  0  0  0  0  0  0  0
   56.4510   30.1320   53.3880 C   0  0  0  0  0  0  0  0  0  0  0  0
   55.3670   29.2930   53.6550 C   0  0  0  0  0  0  0  0  0  0  0  0
   54.1870   29.4130   52.9190 C   0  0  0  0  0  0  0  0  0  0  0  0
   54.0810   30.3790   51.9070 C   0  0  0  0  0  0  0  0  0  0  0  0
   52.8270   30.4810   51.0840 C   0  0  0  0  0  0  0  0  0  0  0  0
   51.8160   31.3300   51.7900 C   0  0  0  0  0  0  0  0  0  0  0  0
   51.5860   31.2860   53.1150 N   0  0  0  0  0  0  0  0  0  0  0  0
   50.6650   32.2560   53.3020 C   0  0  0  0  0  0  0  0  0  0  0  0
   50.1830   32.5230   54.4330 O   0  0  0  0  0  0  0  0  0  0  0  0
   50.3040   32.9210   52.1830 N   0  0  0  0  0  0  0  0  0  0  0  0
   51.0480   32.3260   51.2360 C   0  0  0  0  0  0  0  0  0  0  0  0
   51.0290   32.6900   49.8960 O   0  0  0  0  0  0  0  0  0  0  0  0
   55.1780   31.2130   51.6320 C   0  0  0  0  0  0  0  0  0  0  0  0
  1  2  2  0
  2  3  1  0
  3  4  1  0
  4  5  1  0
  5  6  2  0
  6  7  1  0
  7  8  2  0
  8  9  1  0
  9 10  2  0
  2 11  1  0
 11 12  2  0
 12 13  1  0
 13 14  2  0
 14 15  1  0
 15 16  1  0
 16 17  1  0
 17 18  1  0
 18 19  1  0
 19 20  2  0
 19 21  1  0
 21 22  1  0
 22 23  1  0
 15 24  2  0
 10  5  1  0
 24 11  1  0
 22 17  2  0
M  CHG  3  18  -1  21  -1  23  -1
M  END
>  <UniqueID>  (2689) 
14

>  <SMILES>  (2689) 
O=C(NCc1ccncc1)c1cccc(Cc2[n-]c(=O)[n-]c2[O-])c1

>  <Energy>  (2689) 
67.93081049026436

>  <Genealogy>  (2689) 
O=C(NCc1ccncc1)c1cccc(Cc2[n-]c(=O)[n-]c2[O-])c1 (protonated)
O=C(NCc1ccncc1)c1cccc(Cc2[n-]c(=O)[n-]c2[O-])c1 (3D coordinates assigned)
O=C(NCc1ccncc1)c1cccc(Cc2[n-]c(=O)[n-]c2[O-])c1 (optimized conformer: 67.93081049026436 kcal/mol)

>  <smiles>  (2689) 
O=C(NCc1ccncc1)c1cccc(Cc2[nH]c(=O)[nH]c2O)c1

>  <score_type>  (2689) 
oracle

>  <origin>  (2689) 
adg

>  <m_score__min__energy>  (2689) 
-16.600000000000001

>  <m_primary>  (2689) 
energy

$$$$
16:0
     RDKit          3D

 31 34  0  0  0  0  0  0  0  0999 V2000
   55.1210   26.4250   46.0470 O   0  0  0  0  0  0  0  0  0  0  0  0
   56.1160   25.5480   46.4740 C   0  0  0  0  0  0  0  0  0  0  0  0
   55.8920   24.5410   47.3330 N   0  0  0  0  0  0  0  0  0  0  0  0
   57.1000   23.9430   47.4150 C   0  0  0  0  0  0  0  0  0  0  0  0
   57.3070   22.9300   48.1320 O   0  0  0  0  0  0  0  0  0  0  0  0
   58.0650   24.5100   46.6600 N   0  0  0  0  0  0  0  0  0  0  0  0
   57.4390   25.5490   46.0830 C   0  0  0  0  0  0  0  0  0  0  0  0
   58.0690   26.4190   45.0800 C   0  0  0  0  0  0  0  0  0  0  0  0
   58.1020   27.7650   45.1130 C   0  0  0  0  0  0  0  0  0  0  0  0
   57.3530   28.5510   44.2510 C   0  0  0  0  0  0  0  0  0  0  0  0
   57.5770   29.8630   44.6080 C   0  0  0  0  0  0  0  0  0  0  0  0
   56.9420   31.0520   43.9510 C   0  0  0  0  0  0  0  0  0  0  0  0
   58.4450   29.9280   45.6400 N   0  0  0  0  0  0  0  0  0  0  0  0
   58.9420   31.1430   46.2270 C   0  0  0  0  0  0  0  0  0  0  0  0
   58.0570   32.1860   46.5310 C   0  0  0  0  0  0  0  0  0  0  0  0
   58.5440   33.3940   47.0340 C   0  0  0  0  0  0  0  0  0  0  0  0
   59.9160   33.5720   47.2260 C   0  0  0  0  0  0  0  0  0  0  0  0
   60.8110   32.5320   46.9370 C   0  0  0  0  0  0  0  0  0  0  0  0
   62.5490   32.7760   47.1460 S   0  0  0  0  0  0  0  0  0  0  0  0
   63.0000   33.8280   46.1720 O   0  0  0  0  0  0  0  0  0  0  0  0
   63.2700   31.5010   46.8040 O   0  0  0  0  0  0  0  0  0  0  0  0
   62.9960   33.2700   48.7670 N   0  0  0  0  0  0  0  0  0  0  0  0
   62.1040   34.3050   49.3310 C   0  0  0  0  0  0  0  0  0  0  0  0
   61.0820   33.7490   50.3370 C   0  0  0  0  0  0  0  0  0  0  0  0
   60.7580   32.3560   50.0040 N   0  0  0  0  0  0  0  0  0  0  0  0
   59.6230   31.8800   50.8080 C   0  0  0  0  0  0  0  0  0  0  0  0
   61.9360   31.4880   50.2020 C   0  0  0  0  0  0  0  0  0  0  0  0
   63.2350   32.1300   49.6720 C   0  0  0  0  0  0  0  0  0  0  0  0
   60.3180   31.3160   46.4380 C   0  0  0  0  0  0  0  0  0  0  0  0
   58.8000   28.6550   45.9480 C   0  0  0  0  0  0  0  0  0  0  0  0
   59.7340   28.3550   46.8620 C   0  0  0  0  0  0  0  0  0  0  0  0
  1  2  1  0
  2  3  1  0
  3  4  1  0
  4  5  2  0
  4  6  1  0
  6  7  1  0
  7  8  1  0
  8  9  2  0
  9 10  1  0
 10 11  2  0
 11 12  1  0
 11 13  1  0
 13 14  1  0
 14 15  2  0
 15 16  1  0
 16 17  2  0
 17 18  1  0
 18 19  1  0
 19 20  2  0
 19 21  2  0
 19 22  1  0
 22 23  1  0
 23 24  1  0
 24 25  1  0
 25 26  1  0
 25 27  1  0
 27 28  1  0
 18 29  2  0
 13 30  1  0
 30 31  2  0
  7  2  2  0
 30  9  1  0
 29 14  1  0
 28 22  1  0
M  CHG  2   3  -1   6  -1
M  END
>  <UniqueID>  (2690) 
16

>  <SMILES>  (2690) 
C=c1/c(=C\c2[n-]c(=O)[n-]c2O)cc(C)n1-c1cccc(S(=O)(=O)N2CCN(C)CC2)c1

>  <Energy>  (2690) 
140.0476136317955

>  <Genealogy>  (2690) 
C=c1c(=Cc2[n-]c(=O)[n-]c2O)cc(C)n1-c1cccc(S(=O)(=O)N2CCN(C)CC2)c1 (protonated)
C=c1/c(=C\c2[n-]c(=O)[n-]c2O)cc(C)n1-c1cccc(S(=O)(=O)N2CCN(C)CC2)c1 (cis-trans isomerization)
C=c1/c(=C\c2[n-]c(=O)[n-]c2O)cc(C)n1-c1cccc(S(=O)(=O)N2CCN(C)CC2)c1 (3D coordinates assigned)
C=c1/c(=C\c2[n-]c(=O)[n-]c2O)cc(C)n1-c1cccc(S(=O)(=O)N2CCN(C)CC2)c1 (nonaromatic ring conformer: 140.0476136317955 kcal/mol)

>  <smiles>  (2690) 
C=c1c(=Cc2[nH]c(=O)[nH]c2O)cc(C)n1-c1cccc(S(=O)(=O)N2CCN(C)CC2)c1

>  <score_type>  (2690) 
oracle

>  <origin>  (2690) 
adg

>  <m_score__min__energy>  (2690) 
-14.550000000000001

>  <m_primary>  (2690) 
energy

$$$$
19:0
     RDKit          3D

 31 34  0  0  0  0  0  0  0  0999 V2000
   55.1150   29.3480   44.7810 N   0  0  0  0  0  0  0  0  0  0  0  0
   56.6780   30.0130   44.4680 S   0  0  0  0  0  0  0  0  0  0  0  0
   56.6090   31.5150   44.5190 O   0  0  0  0  0  0  0  0  0  0  0  0
   57.1290   29.5980   43.0950 O   0  0  0  0  0  0  0  0  0  0  0  0
   57.8140   29.4330   45.6800 C   0  0  0  0  0  0  0  0  0  0  0  0
   58.9570   30.1790   46.0000 C   0  0  0  0  0  0  0  0  0  0  0  0
   59.8720   29.6940   46.9390 C   0  0  0  0  0  0  0  0  0  0  0  0
   59.6640   28.4500   47.5570 C   0  0  0  0  0  0  0  0  0  0  0  0
   60.6760   27.9070   48.5360 C   0  0  0  0  0  0  0  0  0  0  0  0
   60.8520   28.8150   49.6710 N   0  0  0  0  0  0  0  0  0  0  0  0
   59.9950   29.6900   50.1170 C   0  0  0  0  0  0  0  0  0  0  0  0
   58.9330   29.2490   50.8380 N   0  0  0  0  0  0  0  0  0  0  0  0
   57.9900   30.1110   51.2900 C   0  0  0  0  0  0  0  0  0  0  0  0
   56.9890   29.6400   51.9820 N   0  0  0  0  0  0  0  0  0  0  0  0
   55.8770   30.2890   52.7050 C   0  0  0  0  0  0  0  0  0  0  0  0
   54.5580   29.5360   52.7690 C   0  0  0  0  0  0  0  0  0  0  0  0
   54.6970   30.7710   51.8770 C   0  0  0  0  0  0  0  0  0  0  0  0
   58.1080   31.4320   51.0010 N   0  0  0  0  0  0  0  0  0  0  0  0
   59.1600   31.8970   50.2840 C   0  0  0  0  0  0  0  0  0  0  0  0
   59.2110   33.1690   50.0050 N   0  0  0  0  0  0  0  0  0  0  0  0
   60.1640   33.8120   49.1040 C   0  0  0  0  0  0  0  0  0  0  0  0
   59.6050   33.8150   47.7070 C   0  0  0  0  0  0  0  0  0  0  0  0
   58.2110   33.7900   47.5190 C   0  0  0  0  0  0  0  0  0  0  0  0
   57.6720   33.7670   46.2290 C   0  0  0  0  0  0  0  0  0  0  0  0
   58.5150   33.7580   45.1180 C   0  0  0  0  0  0  0  0  0  0  0  0
   59.9020   33.7680   45.2910 C   0  0  0  0  0  0  0  0  0  0  0  0
   60.4530   33.7910   46.5780 C   0  0  0  0  0  0  0  0  0  0  0  0
   62.2080   33.7820   46.7360 Cl  0  0  0  0  0  0  0  0  0  0  0  0
   60.1230   31.0260   49.8610 N   0  0  0  0  0  0  0  0  0  0  0  0
   58.5060   27.7160   47.2490 C   0  0  0  0  0  0  0  0  0  0  0  0
   57.5930   28.2010   46.3090 C   0  0  0  0  0  0  0  0  0  0  0  0
  1  2  1  0
  2  3  2  0
  2  4  2  0
  2  5  1  0
  5  6  2  0
  6  7  1  0
  7  8  2  0
  8  9  1  0
  9 10  1  0
 10 11  2  0
 11 12  1  0
 12 13  1  0
 13 14  2  3
 14 15  1  0
 15 16  1  0
 16 17  1  0
 13 18  1  0
 18 19  1  0
 19 20  2  3
 20 21  1  0
 21 22  1  0
 22 23  2  0
 23 24  1  0
 24 25  2  0
 25 26  1  0
 26 27  2  0
 27 28  1  0
 19 29  1  0
  8 30  1  0
 30 31  2  0
 31  5  1  0
 29 11  1  0
 17 15  1  0
 27 22  1  0
M  CHG  3   1  -1  12  -1  18  -1
M  END
>  <UniqueID>  (2691) 
19

>  <SMILES>  (2691) 
[NH-]S(=O)(=O)c1ccc(C/N=c2/[n-]c(=NC3CC3)[n-]c(=NCc3ccccc3Cl)[nH]2)cc1

>  <Energy>  (2691) 
329.02510535263457

>  <Genealogy>  (2691) 
[NH-]S(=O)(=O)c1ccc(CN=c2[n-]c(=NC3CC3)[n-]c(=NCc3ccccc3Cl)[nH]2)cc1 (protonated)
[NH-]S(=O)(=O)c1ccc(C/N=c2/[n-]c(=NC3CC3)[n-]c(=NCc3ccccc3Cl)[nH]2)cc1 (cis-trans isomerization)
[NH-]S(=O)(=O)c1ccc(C/N=c2/[n-]c(=NC3CC3)[n-]c(=NCc3ccccc3Cl)[nH]2)cc1 (3D coordinates assigned)
[NH-]S(=O)(=O)c1ccc(C/N=c2/[n-]c(=NC3CC3)[n-]c(=NCc3ccccc3Cl)[nH]2)cc1 (nonaromatic ring conformer: 329.02510535263457 kcal/mol)

>  <smiles>  (2691) 
NS(=O)(=O)c1ccc(CN=c2[nH]c(=NCc3ccccc3Cl)[nH]c(=NC3CC3)[nH]2)cc1

>  <score_type>  (2691) 
oracle

>  <origin>  (2691) 
adg

>  <m_score__min__energy>  (2691) 
-14.550000000000001

>  <m_primary>  (2691) 
energy

$$$$
22:0
     RDKit          3D

 35 39  0  0  0  0  0  0  0  0999 V2000
   58.6740   25.7750   47.4630 O   0  0  0  0  0  0  0  0  0  0  0  0
   57.5320   26.2180   46.8040 C   0  0  0  0  0  0  0  0  0  0  0  0
   56.3680   25.5470   46.8210 N   0  0  0  0  0  0  0  0  0  0  0  0
   55.5600   26.3270   46.0770 C   0  0  0  0  0  0  0  0  0  0  0  0
   54.3580   26.0370   45.8450 O   0  0  0  0  0  0  0  0  0  0  0  0
   56.1440   27.4410   45.5920 N   0  0  0  0  0  0  0  0  0  0  0  0
   57.4010   27.3780   46.0670 C   0  0  0  0  0  0  0  0  0  0  0  0
   58.4810   28.3380   45.7500 C   0  0  0  0  0  0  0  0  0  0  0  0
   58.3590   29.6830   45.7890 C   0  0  0  0  0  0  0  0  0  0  0  0
   58.8640   30.5410   46.7570 C   0  0  0  0  0  0  0  0  0  0  0  0
   58.5060   31.8200   46.3820 C   0  0  0  0  0  0  0  0  0  0  0  0
   58.8470   33.0300   47.1570 C   0  0  0  0  0  0  0  0  0  0  0  0
   57.9270   33.8560   47.4170 O   0  0  0  0  0  0  0  0  0  0  0  0
   60.1880   33.2810   47.6220 N   0  0  0  0  0  0  0  0  0  0  0  0
   60.3680   34.1720   48.7780 C   0  0  0  0  0  0  0  0  0  0  0  0
   61.8230   34.2080   49.2600 C   0  0  0  0  0  0  0  0  0  0  0  0
   62.4470   32.8120   49.1280 C   0  0  0  0  0  0  0  0  0  0  0  0
   63.7890   32.7690   49.8370 C   0  0  0  0  0  0  0  0  0  0  0  0
   64.4660   33.8310   49.9140 O   0  0  0  0  0  0  0  0  0  0  0  0
   64.2850   31.5720   50.4880 N   0  0  0  0  0  0  0  0  0  0  0  0
   65.7500   31.4190   50.6120 C   0  0  0  0  0  0  0  0  0  0  0  0
   66.1810   30.1490   51.3110 C   0  0  0  0  0  0  0  0  0  0  0  0
   67.5280   29.7490   51.2470 C   0  0  0  0  0  0  0  0  0  0  0  0
   67.9620   28.6170   51.9460 C   0  0  0  0  0  0  0  0  0  0  0  0
   67.0600   27.8860   52.7250 C   0  0  0  0  0  0  0  0  0  0  0  0
   65.7190   28.2820   52.8050 C   0  0  0  0  0  0  0  0  0  0  0  0
   65.2730   29.4050   52.0900 C   0  0  0  0  0  0  0  0  0  0  0  0
   63.8470   29.8510   52.2060 C   0  0  0  0  0  0  0  0  0  0  0  0
   63.3820   30.4760   50.8930 C   0  0  0  0  0  0  0  0  0  0  0  0
   62.5490   32.4230   47.6340 C   0  0  0  0  0  0  0  0  0  0  0  0
   61.3480   32.9140   46.7910 C   0  0  0  0  0  0  0  0  0  0  0  0
   57.8390   31.8000   45.2050 N   0  0  0  0  0  0  0  0  0  0  0  0
   57.3840   32.9650   44.4370 C   0  0  0  0  0  0  0  0  0  0  0  0
   57.7250   30.4980   44.8410 C   0  0  0  0  0  0  0  0  0  0  0  0
   57.0820   30.0850   43.7360 C   0  0  0  0  0  0  0  0  0  0  0  0
  1  2  1  0
  2  3  1  0
  3  4  1  0
  4  5  2  0
  4  6  1  0
  6  7  1  0
  7  8  1  0
  8  9  2  0
  9 10  1  0
 10 11  2  0
 11 12  1  0
 12 13  2  0
 12 14  1  0
 14 15  1  0
 15 16  1  0
 16 17  1  0
 17 18  1  0
 18 19  2  0
 18 20  1  0
 20 21  1  0
 21 22  1  0
 22 23  2  0
 23 24  1  0
 24 25  2  0
 25 26  1  0
 26 27  2  0
 27 28  1  0
 28 29  1  0
 17 30  1  0
 30 31  1  0
 11 32  1  0
 32 33  1  0
 32 34  1  0
 34 35  2  0
  7  2  2  0
 34  9  1  0
 31 14  1  0
 29 20  1  0
 27 22  1  0
M  CHG  2   3  -1   6  -1
M  END
>  <UniqueID>  (2692) 
22

>  <SMILES>  (2692) 
C=c1/c(=C/c2[n-]c(=O)[n-]c2O)cc(C(=O)N2CCC(C(=O)N3CCc4ccccc4C3)CC2)n1C

>  <Energy>  (2692) 
140.68070865815073

>  <Genealogy>  (2692) 
C=c1c(=Cc2[n-]c(=O)[n-]c2O)cc(C(=O)N2CCC(C(=O)N3CCc4ccccc4C3)CC2)n1C (protonated)
C=c1/c(=C/c2[n-]c(=O)[n-]c2O)cc(C(=O)N2CCC(C(=O)N3CCc4ccccc4C3)CC2)n1C (cis-trans isomerization)
C=c1/c(=C/c2[n-]c(=O)[n-]c2O)cc(C(=O)N2CCC(C(=O)N3CCc4ccccc4C3)CC2)n1C (3D coordinates assigned)
C=c1/c(=C/c2[n-]c(=O)[n-]c2O)cc(C(=O)N2CCC(C(=O)N3CCc4ccccc4C3)CC2)n1C (nonaromatic ring conformer: 140.68070865815073 kcal/mol)

>  <smiles>  (2692) 
C=c1c(=Cc2[nH]c(=O)[nH]c2O)cc(C(=O)N2CCC(C(=O)N3CCc4ccccc4C3)CC2)n1C

>  <score_type>  (2692) 
oracle

>  <origin>  (2692) 
adg

>  <m_score__min__energy>  (2692) 
-14.74

>  <m_primary>  (2692) 
energy

$$$$
43:0
     RDKit          3D

 29 32  0  0  0  0  0  0  0  0999 V2000
   58.0950   28.1530   44.5810 C   0  0  0  0  0  0  0  0  0  0  0  0
   57.9650   27.1210   45.4150 C   0  0  0  0  0  0  0  0  0  0  0  0
   56.9930   26.1930   45.2940 N   0  0  0  0  0  0  0  0  0  0  0  0
   57.2270   25.2590   46.2420 C   0  0  0  0  0  0  0  0  0  0  0  0
   56.5050   24.1440   46.4280 C   0  0  0  0  0  0  0  0  0  0  0  0
   55.1210   23.9700   45.9530 C   0  0  0  0  0  0  0  0  0  0  0  0
   54.4530   22.7690   45.8630 C   0  0  0  0  0  0  0  0  0  0  0  0
   53.1700   23.0890   45.4710 C   0  0  0  0  0  0  0  0  0  0  0  0
   52.1620   22.1620   45.2460 O   0  0  0  0  0  0  0  0  0  0  0  0
   52.9920   24.4180   45.3400 N   0  0  0  0  0  0  0  0  0  0  0  0
   54.1900   24.9500   45.6500 C   0  0  0  0  0  0  0  0  0  0  0  0
   54.4200   26.3190   45.7040 O   0  0  0  0  0  0  0  0  0  0  0  0
   58.3590   25.5840   46.9690 C   0  0  0  0  0  0  0  0  0  0  0  0
   58.8160   26.7860   46.4620 C   0  0  0  0  0  0  0  0  0  0  0  0
   60.0010   27.5170   46.9510 C   0  0  0  0  0  0  0  0  0  0  0  0
   61.0630   26.8750   47.1700 O   0  0  0  0  0  0  0  0  0  0  0  0
   59.9610   28.9340   47.1990 N   0  0  0  0  0  0  0  0  0  0  0  0
   58.8220   29.5300   47.9140 C   0  0  0  0  0  0  0  0  0  0  0  0
   58.4720   30.9030   47.3260 C   0  0  0  0  0  0  0  0  0  0  0  0
   59.6770   31.6850   47.0180 N   0  0  0  0  0  0  0  0  0  0  0  0
   59.5460   32.9550   46.3570 C   0  0  0  0  0  0  0  0  0  0  0  0
   58.8660   33.0460   45.1310 C   0  0  0  0  0  0  0  0  0  0  0  0
   58.7400   34.2800   44.4840 C   0  0  0  0  0  0  0  0  0  0  0  0
   59.2970   35.4280   45.0520 C   0  0  0  0  0  0  0  0  0  0  0  0
   59.9820   35.3450   46.2670 C   0  0  0  0  0  0  0  0  0  0  0  0
   60.1100   34.1140   46.9200 C   0  0  0  0  0  0  0  0  0  0  0  0
   60.8060   34.0480   48.0830 F   0  0  0  0  0  0  0  0  0  0  0  0
   61.0000   31.1830   47.4040 C   0  0  0  0  0  0  0  0  0  0  0  0
   61.1660   29.7340   46.9330 C   0  0  0  0  0  0  0  0  0  0  0  0
  1  2  2  0
  2  3  1  0
  3  4  1  0
  4  5  2  3
  5  6  1  0
  6  7  1  0
  7  8  2  0
  8  9  1  0
  8 10  1  0
 10 11  1  0
 11 12  1  0
  4 13  1  0
 13 14  2  0
 14 15  1  0
 15 16  2  0
 15 17  1  0
 17 18  1  0
 18 19  1  0
 19 20  1  0
 20 21  1  0
 21 22  2  0
 22 23  1  0
 23 24  2  0
 24 25  1  0
 25 26  2  0
 26 27  1  0
 20 28  1  0
 28 29  1  0
 14  2  1  0
 29 17  1  0
 11  6  2  0
 26 21  1  0
M  CHG  3   9  -1  10  -1  12  -1
M  END
>  <UniqueID>  (2693) 
41

>  <SMILES>  (2693) 
C=c1[nH]c(=Cc2cc([O-])[n-]c2[O-])cc1C(=O)N1CCN(c2ccccc2F)CC1

>  <Energy>  (2693) 
119.18300919951858

>  <Genealogy>  (2693) 
C=c1[nH]c(=Cc2cc([O-])[n-]c2[O-])cc1C(=O)N1CCN(c2ccccc2F)CC1 (protonated)
C=c1[nH]c(=Cc2cc([O-])[n-]c2[O-])cc1C(=O)N1CCN(c2ccccc2F)CC1 (3D coordinates assigned)
C=c1[nH]c(=Cc2cc([O-])[n-]c2[O-])cc1C(=O)N1CCN(c2ccccc2F)CC1 (nonaromatic ring conformer: 119.18300919951858 kcal/mol)

>  <smiles>  (2693) 
C=c1[nH]c(=Cc2cc(O)[nH]c2O)cc1C(=O)N1CCN(c2ccccc2F)CC1

>  <score_type>  (2693) 
oracle

>  <origin>  (2693) 
adg

>  <m_score__min__energy>  (2693) 
-17.23

>  <m_primary>  (2693) 
energy

$$$$
59:0
     RDKit          3D

 32 35  0  0  0  0  0  0  0  0999 V2000
   57.5060   31.6500   50.6440 N   0  0  0  0  0  0  0  0  0  0  0  0
   58.5070   30.9290   49.9340 C   0  0  0  0  0  0  0  0  0  0  0  0
   58.2140   29.8200   49.4130 O   0  0  0  0  0  0  0  0  0  0  0  0
   59.8740   31.4630   49.7700 C   0  0  0  0  0  0  0  0  0  0  0  0
   60.9580   30.7600   50.1880 N   0  0  0  0  0  0  0  0  0  0  0  0
   61.9860   31.5830   49.9160 C   0  0  0  0  0  0  0  0  0  0  0  0
   63.3330   31.3590   50.1800 C   0  0  0  0  0  0  0  0  0  0  0  0
   64.2600   32.3790   49.8570 C   0  0  0  0  0  0  0  0  0  0  0  0
   65.7030   32.1770   50.1360 C   0  0  0  0  0  0  0  0  0  0  0  0
   66.1750   31.0200   50.8280 N   0  0  0  0  0  0  0  0  0  0  0  0
   66.5380   33.0450   49.7660 O   0  0  0  0  0  0  0  0  0  0  0  0
   63.7830   33.5970   49.3000 C   0  0  0  0  0  0  0  0  0  0  0  0
   62.4120   33.7880   49.0480 C   0  0  0  0  0  0  0  0  0  0  0  0
   61.5380   32.7440   49.3620 C   0  0  0  0  0  0  0  0  0  0  0  0
   60.1950   32.6900   49.2530 N   0  0  0  0  0  0  0  0  0  0  0  0
   59.2970   33.7660   48.8140 C   0  0  0  0  0  0  0  0  0  0  0  0
   59.0090   33.6640   47.3390 C   0  0  0  0  0  0  0  0  0  0  0  0
   59.8350   34.3090   46.4080 C   0  0  0  0  0  0  0  0  0  0  0  0
   59.5720   34.1980   45.0420 C   0  0  0  0  0  0  0  0  0  0  0  0
   58.5040   33.4230   44.5900 C   0  0  0  0  0  0  0  0  0  0  0  0
   57.6960   32.7380   45.5000 C   0  0  0  0  0  0  0  0  0  0  0  0
   56.6380   31.9120   44.9910 N   0  0  0  0  0  0  0  0  0  0  0  0
   56.7900   30.2360   44.5800 S   0  0  0  0  0  0  0  0  0  0  0  0
   55.5000   29.5350   44.8760 O   0  0  0  0  0  0  0  0  0  0  0  0
   57.0740   30.1140   43.1120 O   0  0  0  0  0  0  0  0  0  0  0  0
   58.0750   29.4970   45.5270 C   0  0  0  0  0  0  0  0  0  0  0  0
   57.8040   28.3600   46.3000 C   0  0  0  0  0  0  0  0  0  0  0  0
   58.8200   27.7610   47.0520 C   0  0  0  0  0  0  0  0  0  0  0  0
   60.1110   28.2950   47.0350 C   0  0  0  0  0  0  0  0  0  0  0  0
   60.3860   29.4320   46.2680 C   0  0  0  0  0  0  0  0  0  0  0  0
   59.3720   30.0320   45.5140 C   0  0  0  0  0  0  0  0  0  0  0  0
   57.9490   32.8660   46.8770 C   0  0  0  0  0  0  0  0  0  0  0  0
  1  2  1  0
  2  3  2  0
  2  4  1  0
  4  5  2  0
  5  6  1  0
  6  7  2  0
  7  8  1  0
  8  9  1  0
  9 10  1  0
  9 11  2  0
  8 12  2  0
 12 13  1  0
 13 14  2  0
 14 15  1  0
 15 16  1  0
 16 17  1  0
 17 18  2  0
 18 19  1  0
 19 20  2  0
 20 21  1  0
 21 22  1  0
 22 23  1  0
 23 24  2  0
 23 25  2  0
 23 26  1  0
 26 27  2  0
 27 28  1  0
 28 29  2  0
 29 30  1  0
 30 31  2  0
 21 32  2  0
 15  4  1  0
 32 17  1  0
 14  6  1  0
 31 26  1  0
M  CHG  2   1  -1  22  -1
M  END
>  <UniqueID>  (2694) 
53

>  <SMILES>  (2694) 
[NH-]C(=O)c1nc2cc(C(N)=O)ccc2n1Cc1cccc([N-]S(=O)(=O)c2ccccc2)c1

>  <Energy>  (2694) 
94.95506457857832

>  <Genealogy>  (2694) 
[NH-]C(=O)c1nc2cc(C(N)=O)ccc2n1Cc1cccc([N-]S(=O)(=O)c2ccccc2)c1 (protonated)
[NH-]C(=O)c1nc2cc(C(N)=O)ccc2n1Cc1cccc([N-]S(=O)(=O)c2ccccc2)c1 (3D coordinates assigned)
[NH-]C(=O)c1nc2cc(C(N)=O)ccc2n1Cc1cccc([N-]S(=O)(=O)c2ccccc2)c1 (optimized conformer: 94.95506457857832 kcal/mol)

>  <smiles>  (2694) 
NC(=O)c1ccc2c(c1)nc(C(N)=O)n2Cc1cccc(NS(=O)(=O)c2ccccc2)c1

>  <score_type>  (2694) 
oracle

>  <origin>  (2694) 
adg

>  <m_score__min__energy>  (2694) 
-14.539999999999999

>  <m_primary>  (2694) 
energy

$$$$
63:0
     RDKit          3D

 29 32  0  0  0  0  0  0  0  0999 V2000
   55.1530   30.1030   43.7270 C   0  0  0  0  0  0  0  0  0  0  0  0
   56.1960   29.6270   44.4110 C   0  0  0  0  0  0  0  0  0  0  0  0
   56.1220   28.5550   45.2240 N   0  0  0  0  0  0  0  0  0  0  0  0
   57.3430   28.4130   45.7880 C   0  0  0  0  0  0  0  0  0  0  0  0
   57.6690   27.5030   46.7190 C   0  0  0  0  0  0  0  0  0  0  0  0
   57.1090   26.1420   46.7720 C   0  0  0  0  0  0  0  0  0  0  0  0
   57.8450   25.0550   47.0640 N   0  0  0  0  0  0  0  0  0  0  0  0
   56.9670   24.0380   46.9290 C   0  0  0  0  0  0  0  0  0  0  0  0
   57.2840   22.8360   47.1360 O   0  0  0  0  0  0  0  0  0  0  0  0
   55.7270   24.4060   46.5460 N   0  0  0  0  0  0  0  0  0  0  0  0
   55.8350   25.7400   46.4390 C   0  0  0  0  0  0  0  0  0  0  0  0
   54.8050   26.5630   46.0000 O   0  0  0  0  0  0  0  0  0  0  0  0
   58.2010   29.4010   45.3350 C   0  0  0  0  0  0  0  0  0  0  0  0
   57.4740   30.1680   44.4420 C   0  0  0  0  0  0  0  0  0  0  0  0
   57.9420   31.4600   43.8280 C   0  0  0  0  0  0  0  0  0  0  0  0
   58.2110   32.5060   44.8730 C   0  0  0  0  0  0  0  0  0  0  0  0
   58.9680   32.3530   46.0300 C   0  0  0  0  0  0  0  0  0  0  0  0
   59.0970   33.5330   46.7790 C   0  0  0  0  0  0  0  0  0  0  0  0
   59.8040   33.6010   48.0740 C   0  0  0  0  0  0  0  0  0  0  0  0
   59.9060   34.7080   48.6690 O   0  0  0  0  0  0  0  0  0  0  0  0
   60.3360   32.4170   48.6910 N   0  0  0  0  0  0  0  0  0  0  0  0
   60.0700   32.1720   50.1100 C   0  0  0  0  0  0  0  0  0  0  0  0
   60.6030   30.7960   50.5400 C   0  0  0  0  0  0  0  0  0  0  0  0
   60.3930   29.7730   49.4940 N   0  0  0  0  0  0  0  0  0  0  0  0
   58.9640   29.4690   49.2980 C   0  0  0  0  0  0  0  0  0  0  0  0
   61.0740   30.0960   48.2140 C   0  0  0  0  0  0  0  0  0  0  0  0
   61.3410   31.6020   48.0000 C   0  0  0  0  0  0  0  0  0  0  0  0
   58.4450   34.6230   46.2020 C   0  0  0  0  0  0  0  0  0  0  0  0
   57.7280   34.1130   44.7680 S   0  0  0  0  0  0  0  0  0  0  0  0
  1  2  2  0
  2  3  1  0
  3  4  1  0
  4  5  2  3
  5  6  1  0
  6  7  1  0
  7  8  1  0
  8  9  2  0
  8 10  1  0
 10 11  1  0
 11 12  1  0
  4 13  1  0
 13 14  2  0
 14 15  1  0
 15 16  1  0
 16 17  2  0
 17 18  1  0
 18 19  1  0
 19 20  2  0
 19 21  1  0
 21 22  1  0
 22 23  1  0
 23 24  1  0
 24 25  1  0
 24 26  1  0
 26 27  1  0
 18 28  2  0
 28 29  1  0
 14  2  1  0
 29 16  1  0
 11  6  2  0
 27 21  1  0
M  CHG  3   7  -1  10  -1  12  -1
M  END
>  <UniqueID>  (2695) 
57

>  <SMILES>  (2695) 
C=c1[nH]c(=Cc2[n-]c(=O)[n-]c2[O-])cc1Cc1cc(C(=O)N2CCN(C)CC2)cs1

>  <Energy>  (2695) 
145.3252928273523

>  <Genealogy>  (2695) 
C=c1[nH]c(=Cc2[n-]c(=O)[n-]c2[O-])cc1Cc1cc(C(=O)N2CCN(C)CC2)cs1 (protonated)
C=c1[nH]c(=Cc2[n-]c(=O)[n-]c2[O-])cc1Cc1cc(C(=O)N2CCN(C)CC2)cs1 (3D coordinates assigned)
C=c1[nH]c(=Cc2[n-]c(=O)[n-]c2[O-])cc1Cc1cc(C(=O)N2CCN(C)CC2)cs1 (nonaromatic ring conformer: 145.3252928273523 kcal/mol)

>  <smiles>  (2695) 
C=c1[nH]c(=Cc2[nH]c(=O)[nH]c2O)cc1Cc1cc(C(=O)N2CCN(C)CC2)cs1

>  <score_type>  (2695) 
oracle

>  <origin>  (2695) 
adg

>  <m_score__min__energy>  (2695) 
-17.350000000000001

>  <m_primary>  (2695) 
energy

$$$$
64:0
     RDKit          3D

 31 34  0  0  0  0  0  0  0  0999 V2000
   59.1690   28.4550   44.5330 C   0  0  0  0  0  0  0  0  0  0  0  0
   59.0290   28.3600   45.8660 C   0  0  0  0  0  0  0  0  0  0  0  0
   58.3800   27.3200   46.5520 C   0  0  0  0  0  0  0  0  0  0  0  0
   58.0030   26.0930   46.1420 C   0  0  0  0  0  0  0  0  0  0  0  0
   56.6110   25.6270   46.0240 C   0  0  0  0  0  0  0  0  0  0  0  0
   56.2040   24.3650   46.2560 N   0  0  0  0  0  0  0  0  0  0  0  0
   54.8600   24.4470   46.1540 C   0  0  0  0  0  0  0  0  0  0  0  0
   54.1080   23.4470   46.2940 O   0  0  0  0  0  0  0  0  0  0  0  0
   54.3850   25.6850   45.9010 N   0  0  0  0  0  0  0  0  0  0  0  0
   55.5070   26.4210   45.8360 C   0  0  0  0  0  0  0  0  0  0  0  0
   55.5200   27.7920   45.6130 O   0  0  0  0  0  0  0  0  0  0  0  0
   58.2000   27.7630   47.8480 C   0  0  0  0  0  0  0  0  0  0  0  0
   58.8010   29.0010   47.9340 C   0  0  0  0  0  0  0  0  0  0  0  0
   58.8770   29.8080   49.1960 C   0  0  0  0  0  0  0  0  0  0  0  0
   59.3440   29.3550   46.7430 N   0  0  0  0  0  0  0  0  0  0  0  0
   60.0680   30.6120   46.4780 C   0  0  0  0  0  0  0  0  0  0  0  0
   59.1260   31.7250   46.0700 C   0  0  0  0  0  0  0  0  0  0  0  0
   58.4930   31.6560   44.8150 C   0  0  0  0  0  0  0  0  0  0  0  0
   57.6200   32.6640   44.4000 C   0  0  0  0  0  0  0  0  0  0  0  0
   57.3740   33.7590   45.2270 C   0  0  0  0  0  0  0  0  0  0  0  0
   58.0020   33.8530   46.4690 C   0  0  0  0  0  0  0  0  0  0  0  0
   58.8850   32.8510   46.8980 C   0  0  0  0  0  0  0  0  0  0  0  0
   59.5270   33.0090   48.2160 C   0  0  0  0  0  0  0  0  0  0  0  0
   58.7810   33.0790   49.2300 O   0  0  0  0  0  0  0  0  0  0  0  0
   60.9610   33.1410   48.3570 N   0  0  0  0  0  0  0  0  0  0  0  0
   61.8620   32.9110   47.2200 C   0  0  0  0  0  0  0  0  0  0  0  0
   63.0690   33.8570   47.2890 C   0  0  0  0  0  0  0  0  0  0  0  0
   63.7260   33.8490   48.6100 N   0  0  0  0  0  0  0  0  0  0  0  0
   64.4950   32.6160   48.8540 C   0  0  0  0  0  0  0  0  0  0  0  0
   62.7740   34.1490   49.6970 C   0  0  0  0  0  0  0  0  0  0  0  0
   61.5610   33.2100   49.6950 C   0  0  0  0  0  0  0  0  0  0  0  0
  1  2  2  0
  2  3  1  0
  3  4  2  3
  4  5  1  0
  5  6  1  0
  6  7  1  0
  7  8  2  0
  7  9  1  0
  9 10  1  0
 10 11  1  0
  3 12  1  0
 12 13  2  0
 13 14  1  0
 13 15  1  0
 15 16  1  0
 16 17  1  0
 17 18  2  0
 18 19  1  0
 19 20  2  0
 20 21  1  0
 21 22  2  0
 22 23  1  0
 23 24  2  0
 23 25  1  0
 25 26  1  0
 26 27  1  0
 27 28  1  0
 28 29  1  0
 28 30  1  0
 30 31  1  0
 15  2  1  0
 22 17  1  0
 31 25  1  0
 10  5  2  0
M  CHG  3   6  -1   9  -1  11  -1
M  END
>  <UniqueID>  (2696) 
58

>  <SMILES>  (2696) 
C=c1c(=Cc2[n-]c(=O)[n-]c2[O-])cc(C)n1Cc1ccccc1C(=O)N1CCN(C)CC1

>  <Energy>  (2696) 
135.65755168966103

>  <Genealogy>  (2696) 
C=c1c(=Cc2[n-]c(=O)[n-]c2[O-])cc(C)n1Cc1ccccc1C(=O)N1CCN(C)CC1 (protonated)
C=c1c(=Cc2[n-]c(=O)[n-]c2[O-])cc(C)n1Cc1ccccc1C(=O)N1CCN(C)CC1 (3D coordinates assigned)
C=c1c(=Cc2[n-]c(=O)[n-]c2[O-])cc(C)n1Cc1ccccc1C(=O)N1CCN(C)CC1 (nonaromatic ring conformer: 135.65755168966103 kcal/mol)

>  <smiles>  (2696) 
C=c1c(=Cc2[nH]c(=O)[nH]c2O)cc(C)n1Cc1ccccc1C(=O)N1CCN(C)CC1

>  <score_type>  (2696) 
oracle

>  <origin>  (2696) 
adg

>  <m_score__min__energy>  (2696) 
-16.640000000000001

>  <m_primary>  (2696) 
energy

$$$$
67:0
     RDKit          3D

 29 32  0  0  0  0  0  0  0  0999 V2000
   57.3620   25.1640   43.9680 C   0  0  0  0  0  0  0  0  0  0  0  0
   58.0750   25.9510   44.7830 C   0  0  0  0  0  0  0  0  0  0  0  0
   58.7180   25.4710   45.8660 N   0  0  0  0  0  0  0  0  0  0  0  0
   59.3290   26.5100   46.4620 C   0  0  0  0  0  0  0  0  0  0  0  0
   60.2590   26.3540   47.6240 C   0  0  0  0  0  0  0  0  0  0  0  0
   59.0950   27.6770   45.7520 C   0  0  0  0  0  0  0  0  0  0  0  0
   59.7820   28.9610   46.0160 C   0  0  0  0  0  0  0  0  0  0  0  0
   61.0050   29.0340   45.7120 O   0  0  0  0  0  0  0  0  0  0  0  0
   59.1230   30.1150   46.6180 N   0  0  1  0  0  0  0  0  0  0  0  0
   58.8740   29.8900   48.0760 C   0  0  0  0  0  0  0  0  0  0  0  0
   59.8450   30.6620   48.9820 C   0  0  0  0  0  0  0  0  0  0  0  0
   59.7070   32.1900   48.7460 C   0  0  1  0  0  0  0  0  0  0  0  0
   60.8650   32.9830   49.2440 N   0  0  0  0  0  0  0  0  0  0  0  0
   61.4340   32.4260   50.4890 C   0  0  0  0  0  0  0  0  0  0  0  0
   62.2910   33.4860   51.2040 C   0  0  0  0  0  0  0  0  0  0  0  0
   62.9000   34.5080   50.2290 C   0  0  0  0  0  0  0  0  0  0  0  0
   63.1990   33.8630   48.8750 C   0  0  0  0  0  0  0  0  0  0  0  0
   61.9210   33.2740   48.2390 C   0  0  0  0  0  0  0  0  0  0  0  0
   59.3560   32.5230   47.2740 C   0  0  0  0  0  0  0  0  0  0  0  0
   59.8130   31.4050   46.3280 C   0  0  0  0  0  0  0  0  0  0  0  0
   58.2680   27.3330   44.6740 C   0  0  0  0  0  0  0  0  0  0  0  0
   57.7810   28.1300   43.6980 C   0  0  0  0  0  0  0  0  0  0  0  0
   57.3190   29.5120   43.8920 C   0  0  0  0  0  0  0  0  0  0  0  0
   58.2560   30.9010   43.6860 S   0  0  0  0  0  0  0  0  0  0  0  0
   57.0580   31.9000   44.3090 C   0  0  0  0  0  0  0  0  0  0  0  0
   57.1590   33.1500   44.4080 O   0  0  0  0  0  0  0  0  0  0  0  0
   55.9660   31.2160   44.7110 N   0  0  0  0  0  0  0  0  0  0  0  0
   56.1210   29.8840   44.4960 C   0  0  0  0  0  0  0  0  0  0  0  0
   55.1440   28.9680   44.8620 O   0  0  0  0  0  0  0  0  0  0  0  0
  1  2  2  0
  2  3  1  0
  3  4  1  0
  4  5  1  0
  4  6  2  0
  6  7  1  0
  7  8  2  0
  9  7  1  1
  9 10  1  0
 10 11  1  0
 11 12  1  0
 12 13  1  6
 13 14  1  0
 14 15  1  0
 15 16  1  0
 16 17  1  0
 17 18  1  0
 12 19  1  0
 19 20  1  0
  6 21  1  0
 21 22  2  3
 22 23  1  0
 23 24  1  0
 24 25  1  0
 25 26  2  0
 25 27  1  0
 27 28  1  0
 28 29  1  0
 21  2  1  0
 28 23  2  0
 20  9  1  0
 18 13  1  0
M  CHG  3   9   1  27  -1  29  -1
M  END
>  <UniqueID>  (2697) 
61

>  <SMILES>  (2697) 
C=c1[nH]c(C)c(C(=O)[NH+]2CCC(N3CCCCC3)CC2)c1=Cc1sc(=O)[n-]c1[O-]

>  <Energy>  (2697) 
154.2081868382477

>  <Genealogy>  (2697) 
C=c1[nH]c(C)c(C(=O)[NH+]2CCC(N3CCCCC3)CC2)c1=Cc1sc(=O)[n-]c1[O-] (protonated)
C=c1[nH]c(C)c(C(=O)[NH+]2CCC(N3CCCCC3)CC2)c1=Cc1sc(=O)[n-]c1[O-] (3D coordinates assigned)
C=c1[nH]c(C)c(C(=O)[NH+]2CCC(N3CCCCC3)CC2)c1=Cc1sc(=O)[n-]c1[O-] (nonaromatic ring conformer: 154.2081868382477 kcal/mol)

>  <smiles>  (2697) 
C=c1[nH]c(C)c(C(=O)N2CCC(N3CCCCC3)CC2)c1=Cc1sc(=O)[nH]c1O

>  <score_type>  (2697) 
oracle

>  <origin>  (2697) 
adg

>  <m_score__min__energy>  (2697) 
-14.68

>  <m_primary>  (2697) 
energy

$$$$
70:0
     RDKit          3D

 30 33  0  0  0  0  0  0  0  0999 V2000
   57.2720   29.4170   43.5960 C   0  0  0  0  0  0  0  0  0  0  0  0
   56.2320   30.0480   44.4710 C   0  0  0  0  0  0  0  0  0  0  0  0
   55.2610   29.3500   44.8620 O   0  0  0  0  0  0  0  0  0  0  0  0
   56.2830   31.4330   44.8390 N   0  0  0  0  0  0  0  0  0  0  0  0
   57.4490   32.1750   45.2240 C   0  0  0  0  0  0  0  0  0  0  0  0
   57.7740   33.3360   44.5140 C   0  0  0  0  0  0  0  0  0  0  0  0
   58.8890   34.0950   44.8740 C   0  0  0  0  0  0  0  0  0  0  0  0
   59.6710   33.7170   45.9670 C   0  0  0  0  0  0  0  0  0  0  0  0
   59.3290   32.5850   46.7270 C   0  0  0  0  0  0  0  0  0  0  0  0
   60.1520   32.2060   47.9370 C   0  0  0  0  0  0  0  0  0  0  0  0
   60.8700   30.9210   47.7880 N   0  0  0  0  0  0  0  0  0  0  0  0
   60.5330   29.8670   48.7700 C   0  0  0  0  0  0  0  0  0  0  0  0
   59.4110   28.9180   48.2950 C   0  0  0  0  0  0  0  0  0  0  0  0
   59.3920   28.7070   46.7680 C   0  0  0  0  0  0  0  0  0  0  0  0
   58.9520   27.3490   46.4270 N   0  0  0  0  0  0  0  0  0  0  0  0
   59.8540   26.2080   46.2800 C   0  0  0  0  0  0  0  0  0  0  0  0
   58.9300   25.0760   45.9390 C   0  0  0  0  0  0  0  0  0  0  0  0
   59.2890   23.7650   45.6380 C   0  0  0  0  0  0  0  0  0  0  0  0
   58.2820   22.8520   45.2990 C   0  0  0  0  0  0  0  0  0  0  0  0
   56.9340   23.2570   45.2720 C   0  0  0  0  0  0  0  0  0  0  0  0
   56.5670   24.5830   45.5880 C   0  0  0  0  0  0  0  0  0  0  0  0
   55.1370   24.9630   45.5930 C   0  0  0  0  0  0  0  0  0  0  0  0
   54.7500   26.2840   45.9650 N   0  0  0  0  0  0  0  0  0  0  0  0
   54.2520   24.1450   45.2300 O   0  0  0  0  0  0  0  0  0  0  0  0
   57.6060   25.4810   45.9110 C   0  0  0  0  0  0  0  0  0  0  0  0
   57.6150   26.9070   46.1930 C   0  0  0  0  0  0  0  0  0  0  0  0
   56.6160   27.6740   46.1720 O   0  0  0  0  0  0  0  0  0  0  0  0
   60.7520   29.0160   46.1380 C   0  0  0  0  0  0  0  0  0  0  0  0
   61.1250   30.4820   46.3930 C   0  0  0  0  0  0  0  0  0  0  0  0
   58.2220   31.8110   46.3400 C   0  0  0  0  0  0  0  0  0  0  0  0
  1  2  1  0
  2  3  2  0
  2  4  1  0
  4  5  1  0
  5  6  2  0
  6  7  1  0
  7  8  2  0
  8  9  1  0
  9 10  1  0
 10 11  1  0
 11 12  1  0
 12 13  1  0
 13 14  1  0
 14 15  1  0
 15 16  1  0
 16 17  1  0
 17 18  2  0
 18 19  1  0
 19 20  2  0
 20 21  1  0
 21 22  1  0
 22 23  1  0
 22 24  2  0
 21 25  2  0
 25 26  1  0
 26 27  2  0
 14 28  1  0
 28 29  1  0
  9 30  2  0
 30  5  1  0
 29 11  1  0
 26 15  1  0
 25 17  1  0
M  CHG  2   4  -1  23  -1
M  END
>  <UniqueID>  (2698) 
63

>  <SMILES>  (2698) 
CC(=O)[N-]c1cccc(CN2CCC(N3Cc4cccc(C([NH-])=O)c4C3=O)CC2)c1

>  <Energy>  (2698) 
95.84281161852527

>  <Genealogy>  (2698) 
CC(=O)[N-]c1cccc(CN2CCC(N3Cc4cccc(C([NH-])=O)c4C3=O)CC2)c1 (protonated)
CC(=O)[N-]c1cccc(CN2CCC(N3Cc4cccc(C([NH-])=O)c4C3=O)CC2)c1 (3D coordinates assigned)
CC(=O)[N-]c1cccc(CN2CCC(N3Cc4cccc(C([NH-])=O)c4C3=O)CC2)c1 (nonaromatic ring conformer: 95.84281161852527 kcal/mol)

>  <smiles>  (2698) 
CC(=O)Nc1cccc(CN2CCC(N3Cc4cccc(C(N)=O)c4C3=O)CC2)c1

>  <score_type>  (2698) 
oracle

>  <origin>  (2698) 
adg

>  <m_score__min__energy>  (2698) 
-14.890000000000001

>  <m_primary>  (2698) 
energy

$$$$
1:0
     RDKit          3D

 29 31  0  0  0  0  0  0  0  0999 V2000
   57.0410   34.1960   44.9340 C   0  0  0  0  0  0  0  0  0  0  0  0
   58.3490   34.2590   45.6450 C   0  0  0  0  0  0  0  0  0  0  0  0
   58.5220   34.3120   47.0120 C   0  0  0  0  0  0  0  0  0  0  0  0
   59.8840   34.4640   47.1540 C   0  0  0  0  0  0  0  0  0  0  0  0
   60.6320   34.5690   48.4430 C   0  0  0  0  0  0  0  0  0  0  0  0
   60.5850   33.3010   49.1580 N   0  0  0  0  0  0  0  0  0  0  0  0
   59.4710   32.8830   49.9520 C   0  0  0  0  0  0  0  0  0  0  0  0
   58.4660   32.3440   49.4120 O   0  0  0  0  0  0  0  0  0  0  0  0
   59.4850   33.1210   51.4300 C   0  0  0  0  0  0  0  0  0  0  0  0
   58.0640   33.2220   51.9970 C   0  0  0  0  0  0  0  0  0  0  0  0
   57.6120   31.9180   52.6050 C   0  0  0  0  0  0  0  0  0  0  0  0
   58.3660   31.3200   53.6270 C   0  0  0  0  0  0  0  0  0  0  0  0
   57.9770   30.0890   54.1580 C   0  0  0  0  0  0  0  0  0  0  0  0
   56.8300   29.4510   53.6830 C   0  0  0  0  0  0  0  0  0  0  0  0
   56.0530   30.0440   52.6810 C   0  0  0  0  0  0  0  0  0  0  0  0
   54.8930   29.3490   52.2030 N   0  0  0  0  0  0  0  0  0  0  0  0
   53.5300   29.6160   52.5580 C   0  0  0  0  0  0  0  0  0  0  0  0
   52.8310   28.6760   53.0210 O   0  0  0  0  0  0  0  0  0  0  0  0
   52.9280   30.9900   52.4240 C   0  0  0  0  0  0  0  0  0  0  0  0
   52.1450   31.1140   51.1530 C   0  0  0  0  0  0  0  0  0  0  0  0
   52.1330   29.9880   49.9020 S   0  0  0  0  0  0  0  0  0  0  0  0
   51.0280   30.8790   49.0010 C   0  0  0  0  0  0  0  0  0  0  0  0
   50.5860   30.5310   47.8750 O   0  0  0  0  0  0  0  0  0  0  0  0
   50.6480   32.0170   49.6190 N   0  0  0  0  0  0  0  0  0  0  0  0
   51.2690   32.1470   50.8210 C   0  0  0  0  0  0  0  0  0  0  0  0
   51.0330   33.2360   51.6510 O   0  0  0  0  0  0  0  0  0  0  0  0
   56.4650   31.2660   52.1210 C   0  0  0  0  0  0  0  0  0  0  0  0
   60.4390   34.4900   45.9640 O   0  0  0  0  0  0  0  0  0  0  0  0
   59.5420   34.3800   45.0270 N   0  0  0  0  0  0  0  0  0  0  0  0
  1  2  1  0
  2  3  1  0
  3  4  2  0
  4  5  1  0
  5  6  1  0
  6  7  1  0
  7  8  2  0
  7  9  1  0
  9 10  1  0
 10 11  1  0
 11 12  2  0
 12 13  1  0
 13 14  2  0
 14 15  1  0
 15 16  1  0
 16 17  1  0
 17 18  2  0
 17 19  1  0
 19 20  1  0
 20 21  1  0
 21 22  1  0
 22 23  2  0
 22 24  1  0
 24 25  1  0
 25 26  1  0
 15 27  2  0
  4 28  1  0
 28 29  1  0
 29  2  2  0
 27 11  1  0
 25 20  2  0
M  CHG  4   6  -1  16  -1  24  -1  26  -1
M  END
>  <UniqueID>  (2699) 
1

>  <SMILES>  (2699) 
Cc1cc(C[N-]C(=O)CCc2cccc([N-]C(=O)Cc3sc(=O)[n-]c3[O-])c2)on1

>  <Energy>  (2699) 
99.0767523685263

>  <Genealogy>  (2699) 
Cc1cc(C[N-]C(=O)CCc2cccc([N-]C(=O)Cc3sc(=O)[n-]c3[O-])c2)on1 (protonated)
Cc1cc(C[N-]C(=O)CCc2cccc([N-]C(=O)Cc3sc(=O)[n-]c3[O-])c2)on1 (3D coordinates assigned)
Cc1cc(C[N-]C(=O)CCc2cccc([N-]C(=O)Cc3sc(=O)[n-]c3[O-])c2)on1 (optimized conformer: 99.0767523685263 kcal/mol)

>  <smiles>  (2699) 
Cc1cc(CNC(=O)CCc2cccc(NC(=O)Cc3sc(=O)[nH]c3O)c2)on1

>  <score_type>  (2699) 
oracle

>  <origin>  (2699) 
adg

>  <m_score__min__energy>  (2699) 
-18.75

>  <m_primary>  (2699) 
energy

$$$$
4:0
     RDKit          3D

 32 35  0  0  0  0  0  0  0  0999 V2000
   51.3790   32.7030   49.8880 O   0  0  0  0  0  0  0  0  0  0  0  0
   51.2500   32.2690   51.2030 C   0  0  0  0  0  0  0  0  0  0  0  0
   50.3220   32.7280   52.0600 N   0  0  0  0  0  0  0  0  0  0  0  0
   50.6060   32.0520   53.1930 C   0  0  0  0  0  0  0  0  0  0  0  0
   49.9530   32.2070   54.2570 O   0  0  0  0  0  0  0  0  0  0  0  0
   51.6540   31.2050   53.1000 N   0  0  0  0  0  0  0  0  0  0  0  0
   52.0400   31.3290   51.8170 C   0  0  0  0  0  0  0  0  0  0  0  0
   53.2450   30.7090   51.2420 C   0  0  0  0  0  0  0  0  0  0  0  0
   54.3750   30.4220   51.9140 C   0  0  0  0  0  0  0  0  0  0  0  0
   55.5870   31.0400   51.6570 C   0  0  0  0  0  0  0  0  0  0  0  0
   56.4780   30.5390   52.5880 C   0  0  0  0  0  0  0  0  0  0  0  0
   57.8770   30.9590   52.7840 C   0  0  0  0  0  0  0  0  0  0  0  0
   58.5840   31.7660   51.9600 C   0  0  0  0  0  0  0  0  0  0  0  0
   59.1010   33.0990   52.3560 C   0  0  0  0  0  0  0  0  0  0  0  0
   58.6690   33.6950   53.3770 O   0  0  0  0  0  0  0  0  0  0  0  0
   60.0470   33.7660   51.5240 N   0  0  0  0  0  0  0  0  0  0  0  0
   60.4200   33.2450   50.2510 C   0  0  0  0  0  0  0  0  0  0  0  0
   61.2990   33.8490   49.5790 O   0  0  0  0  0  0  0  0  0  0  0  0
   59.7920   32.0530   49.7380 N   0  0  0  0  0  0  0  0  0  0  0  0
   60.1830   31.5090   48.4270 C   0  0  0  0  0  0  0  0  0  0  0  0
   58.9850   31.4540   47.4680 C   0  0  0  0  0  0  0  0  0  0  0  0
   58.9130   32.6800   46.5970 C   0  0  0  0  0  0  0  0  0  0  0  0
   59.5360   33.8720   47.0010 C   0  0  0  0  0  0  0  0  0  0  0  0
   59.5080   34.9980   46.1710 C   0  0  0  0  0  0  0  0  0  0  0  0
   58.8650   34.9390   44.9320 C   0  0  0  0  0  0  0  0  0  0  0  0
   58.2510   33.7530   44.5190 C   0  0  0  0  0  0  0  0  0  0  0  0
   58.2750   32.6270   45.3460 C   0  0  0  0  0  0  0  0  0  0  0  0
   58.8440   31.3370   50.5600 C   0  0  0  0  0  0  0  0  0  0  0  0
   58.2500   30.3270   50.0900 O   0  0  0  0  0  0  0  0  0  0  0  0
   55.8770   29.6610   53.3560 O   0  0  0  0  0  0  0  0  0  0  0  0
   54.6290   29.5330   52.9670 C   0  0  0  0  0  0  0  0  0  0  0  0
   53.8210   28.6140   53.5000 C   0  0  0  0  0  0  0  0  0  0  0  0
  1  2  1  0
  2  3  1  0
  3  4  1  0
  4  5  2  0
  4  6  1  0
  6  7  1  0
  7  8  1  0
  8  9  2  3
  9 10  1  0
 10 11  2  0
 11 12  1  0
 12 13  2  0
 13 14  1  0
 14 15  2  0
 14 16  1  0
 16 17  1  0
 17 18  2  0
 17 19  1  0
 19 20  1  0
 20 21  1  0
 21 22  1  0
 22 23  2  0
 23 24  1  0
 24 25  2  0
 25 26  1  0
 26 27  2  0
 19 28  1  0
 28 29  2  0
 11 30  1  0
 30 31  1  0
 31 32  2  0
  7  2  2  0
 31  9  1  0
 28 13  1  0
 27 22  1  0
M  CHG  3   3  -1   6  -1  16  -1
M  END
>  <UniqueID>  (2700) 
4

>  <SMILES>  (2700) 
C=c1oc(/C=C2\C(=O)[N-]C(=O)N(CCc3ccccc3)C2=O)cc1=Cc1[n-]c(=O)[n-]c1O

>  <Energy>  (2700) 
123.10223285813919

>  <Genealogy>  (2700) 
C=c1oc(C=C2C(=O)[N-]C(=O)N(CCc3ccccc3)C2=O)cc1=Cc1[n-]c(=O)[n-]c1O (protonated)
C=c1oc(/C=C2\C(=O)[N-]C(=O)N(CCc3ccccc3)C2=O)cc1=Cc1[n-]c(=O)[n-]c1O (cis-trans isomerization)
C=c1oc(/C=C2\C(=O)[N-]C(=O)N(CCc3ccccc3)C2=O)cc1=Cc1[n-]c(=O)[n-]c1O (3D coordinates assigned)
C=c1oc(/C=C2\C(=O)[N-]C(=O)N(CCc3ccccc3)C2=O)cc1=Cc1[n-]c(=O)[n-]c1O (nonaromatic ring conformer: 123.10223285813919 kcal/mol)

>  <smiles>  (2700) 
C=c1oc(C=C2C(=O)NC(=O)N(CCc3ccccc3)C2=O)cc1=Cc1[nH]c(=O)[nH]c1O

>  <score_type>  (2700) 
oracle

>  <origin>  (2700) 
adg

>  <m_score__min__energy>  (2700) 
-15.390000000000001

>  <m_primary>  (2700) 
energy

$$$$
7:0
     RDKit          3D

 24 26  0  0  0  0  0  0  0  0999 V2000
   57.9360   30.3370   44.0590 C   0  0  0  0  0  0  0  0  0  0  0  0
   58.3460   30.2500   45.3360 C   0  0  0  0  0  0  0  0  0  0  0  0
   58.6400   29.0680   46.0250 C   0  0  0  0  0  0  0  0  0  0  0  0
   58.4930   27.8040   45.5810 C   0  0  0  0  0  0  0  0  0  0  0  0
   57.2850   26.9880   45.8010 C   0  0  0  0  0  0  0  0  0  0  0  0
   57.3140   25.7620   46.3500 N   0  0  0  0  0  0  0  0  0  0  0  0
   56.0080   25.4270   46.4420 C   0  0  0  0  0  0  0  0  0  0  0  0
   55.6220   24.3220   46.9040 O   0  0  0  0  0  0  0  0  0  0  0  0
   55.1490   26.3740   46.0100 N   0  0  0  0  0  0  0  0  0  0  0  0
   55.9710   27.3620   45.6180 C   0  0  0  0  0  0  0  0  0  0  0  0
   55.5250   28.5910   45.1510 O   0  0  0  0  0  0  0  0  0  0  0  0
   59.0730   29.4500   47.2850 C   0  0  0  0  0  0  0  0  0  0  0  0
   59.0240   30.8270   47.3190 C   0  0  0  0  0  0  0  0  0  0  0  0
   59.4230   31.6260   48.4930 C   0  0  0  0  0  0  0  0  0  0  0  0
   58.5550   32.3600   49.0380 O   0  0  0  0  0  0  0  0  0  0  0  0
   60.8080   31.6680   48.9220 N   0  0  0  0  0  0  0  0  0  0  0  0
   61.7300   31.5770   47.7690 C   0  0  0  0  0  0  0  0  0  0  0  0
   61.9100   32.9290   47.0650 C   0  0  0  0  0  0  0  0  0  0  0  0
   62.3540   33.9080   47.9810 O   0  0  0  0  0  0  0  0  0  0  0  0
   61.3580   34.1220   48.9590 C   0  0  0  0  0  0  0  0  0  0  0  0
   61.1000   32.8420   49.7770 C   0  0  0  0  0  0  0  0  0  0  0  0
   58.5780   31.3220   46.1400 N   0  0  0  0  0  0  0  0  0  0  0  0
   58.5410   32.7430   45.7570 C   0  0  0  0  0  0  0  0  0  0  0  0
   57.2980   33.4160   46.3270 C   0  0  0  0  0  0  0  0  0  0  0  0
  1  2  2  0
  2  3  1  0
  3  4  2  0
  4  5  1  0
  5  6  1  0
  6  7  1  0
  7  8  2  0
  7  9  1  0
  9 10  1  0
 10 11  1  0
  3 12  1  0
 12 13  2  0
 13 14  1  0
 14 15  2  0
 14 16  1  0
 16 17  1  0
 17 18  1  0
 18 19  1  0
 19 20  1  0
 20 21  1  0
 13 22  1  0
 22 23  1  0
 23 24  1  0
 22  2  1  0
 10  5  2  0
 21 16  1  0
M  CHG  4   6  -1   9  -1  11  -1  16   1
M  END
>  <UniqueID>  (2701) 
7

>  <SMILES>  (2701) 
C=c1/c(=C/c2[n-]c(=O)[n-]c2[O-])cc(C(=O)[NH+]2CCOCC2)n1CC

>  <Energy>  (2701) 
118.91787564708758

>  <Genealogy>  (2701) 
C=c1c(=Cc2[n-]c(=O)[n-]c2[O-])cc(C(=O)[NH+]2CCOCC2)n1CC (protonated)
C=c1/c(=C/c2[n-]c(=O)[n-]c2[O-])cc(C(=O)[NH+]2CCOCC2)n1CC (cis-trans isomerization)
C=c1/c(=C/c2[n-]c(=O)[n-]c2[O-])cc(C(=O)[NH+]2CCOCC2)n1CC (3D coordinates assigned)
C=c1/c(=C/c2[n-]c(=O)[n-]c2[O-])cc(C(=O)[NH+]2CCOCC2)n1CC (nonaromatic ring conformer: 118.91787564708758 kcal/mol)

>  <smiles>  (2701) 
C=c1c(=Cc2[nH]c(=O)[nH]c2O)cc(C(=O)N2CCOCC2)n1CC

>  <score_type>  (2701) 
oracle

>  <origin>  (2701) 
adg

>  <m_score__min__energy>  (2701) 
-15.06

>  <m_primary>  (2701) 
energy

$$$$
13:0
     RDKit          3D

 39 42  0  0  0  0  0  0  0  0999 V2000
   58.8980   28.1860   47.1660 C   0  0  0  0  0  0  0  0  0  0  0  0
   58.5870   28.7730   45.9930 C   0  0  0  0  0  0  0  0  0  0  0  0
   58.8570   30.1570   45.8450 C   0  0  0  0  0  0  0  0  0  0  0  0
   59.6770   30.8030   46.7920 O   0  0  0  0  0  0  0  0  0  0  0  0
   59.2240   31.4680   47.9740 C   0  0  0  0  0  0  0  0  0  0  0  0
   59.8470   30.8650   49.2000 C   0  0  0  0  0  0  0  0  0  0  0  0
   59.4000   31.1810   50.3380 O   0  0  0  0  0  0  0  0  0  0  0  0
   60.9420   29.9400   49.0800 N   0  0  0  0  0  0  0  0  0  0  0  0
   61.5020   29.2420   50.2000 C   0  0  0  0  0  0  0  0  0  0  0  0
   61.1040   27.9310   50.5100 C   0  0  0  0  0  0  0  0  0  0  0  0
   61.6630   27.2660   51.6040 C   0  0  0  0  0  0  0  0  0  0  0  0
   62.6350   27.8960   52.3950 C   0  0  0  0  0  0  0  0  0  0  0  0
   63.2510   27.1730   53.5250 C   0  0  0  0  0  0  0  0  0  0  0  0
   62.5270   26.4100   54.2200 O   0  0  0  0  0  0  0  0  0  0  0  0
   64.6610   27.2930   53.8170 N   0  0  0  0  0  0  0  0  0  0  0  0
   65.1820   26.9180   55.1380 C   0  0  0  0  0  0  0  0  0  0  0  0
   66.1870   25.7730   54.9840 C   0  0  0  0  0  0  0  0  0  0  0  0
   67.1450   26.0320   53.8960 N   0  0  0  0  0  0  0  0  0  0  0  0
   68.1970   25.0680   53.6630 C   0  0  0  0  0  0  0  0  0  0  0  0
   69.2090   25.2400   52.5680 C   0  0  0  0  0  0  0  0  0  0  0  0
   68.2750   24.0390   54.3890 O   0  0  0  0  0  0  0  0  0  0  0  0
   67.0630   27.2980   53.1450 C   0  0  0  0  0  0  0  0  0  0  0  0
   65.6130   27.5780   52.7280 C   0  0  0  0  0  0  0  0  0  0  0  0
   62.9960   29.2230   52.1140 C   0  0  0  0  0  0  0  0  0  0  0  0
   62.4300   29.8920   51.0260 C   0  0  0  0  0  0  0  0  0  0  0  0
   58.2740   30.8700   44.7840 C   0  0  0  0  0  0  0  0  0  0  0  0
   57.4070   30.2410   43.8890 C   0  0  0  0  0  0  0  0  0  0  0  0
   56.6820   31.0460   42.8430 C   0  0  0  0  0  0  0  0  0  0  0  0
   57.6330   32.0380   42.1780 C   0  0  0  0  0  0  0  0  0  0  0  0
   57.1860   28.8670   43.9970 C   0  0  0  0  0  0  0  0  0  0  0  0
   57.8450   28.0900   44.9720 C   0  0  0  0  0  0  0  0  0  0  0  0
   57.7350   26.7420   44.8530 C   0  0  0  0  0  0  0  0  0  0  0  0
   57.1990   25.8170   45.8740 C   0  0  0  0  0  0  0  0  0  0  0  0
   57.8660   24.7760   46.4060 N   0  0  0  0  0  0  0  0  0  0  0  0
   56.9480   24.1950   47.2080 C   0  0  0  0  0  0  0  0  0  0  0  0
   57.2020   23.1800   47.9040 O   0  0  0  0  0  0  0  0  0  0  0  0
   55.7330   24.7830   47.1980 N   0  0  0  0  0  0  0  0  0  0  0  0
   55.9080   25.8020   46.3420 C   0  0  0  0  0  0  0  0  0  0  0  0
   54.9070   26.7010   45.9970 O   0  0  0  0  0  0  0  0  0  0  0  0
  1  2  2  0
  2  3  1  0
  3  4  1  0
  4  5  1  0
  5  6  1  0
  6  7  2  0
  6  8  1  0
  8  9  1  0
  9 10  2  0
 10 11  1  0
 11 12  2  0
 12 13  1  0
 13 14  2  0
 13 15  1  0
 15 16  1  0
 16 17  1  0
 17 18  1  0
 18 19  1  0
 19 20  1  0
 19 21  2  0
 18 22  1  0
 22 23  1  0
 12 24  1  0
 24 25  2  0
  3 26  2  0
 26 27  1  0
 27 28  1  0
 28 29  1  0
 27 30  2  0
 30 31  1  0
 31 32  2  3
 32 33  1  0
 33 34  1  0
 34 35  1  0
 35 36  2  0
 35 37  1  0
 37 38  1  0
 38 39  1  0
 31  2  1  0
 38 33  2  0
 25  9  1  0
 23 15  1  0
M  CHG  3  34  -1  37  -1  39  -1
M  END
>  <UniqueID>  (2702) 
13

>  <SMILES>  (2702) 
C=c1c(OCC(=O)Nc2ccc(C(=O)N3CCN(C(C)=O)CC3)cc2)cc(CC)cc1=Cc1[n-]c(=O)[n-]c1[O-]

>  <Energy>  (2702) 
126.24359452138268

>  <Genealogy>  (2702) 
C=c1c(OCC(=O)Nc2ccc(C(=O)N3CCN(C(C)=O)CC3)cc2)cc(CC)cc1=Cc1[n-]c(=O)[n-]c1[O-] (protonated)
C=c1c(OCC(=O)Nc2ccc(C(=O)N3CCN(C(C)=O)CC3)cc2)cc(CC)cc1=Cc1[n-]c(=O)[n-]c1[O-] (3D coordinates assigned)
C=c1c(OCC(=O)Nc2ccc(C(=O)N3CCN(C(C)=O)CC3)cc2)cc(CC)cc1=Cc1[n-]c(=O)[n-]c1[O-] (nonaromatic ring conformer: 126.24359452138268 kcal/mol)

>  <smiles>  (2702) 
C=c1c(OCC(=O)Nc2ccc(C(=O)N3CCN(C(C)=O)CC3)cc2)cc(CC)cc1=Cc1[nH]c(=O)[nH]c1O

>  <score_type>  (2702) 
oracle

>  <origin>  (2702) 
adg

>  <m_score__min__energy>  (2702) 
-18.920000000000002

>  <m_primary>  (2702) 
energy

$$$$
26:0
     RDKit          3D

 27 30  0  0  0  0  0  0  0  0999 V2000
   53.2990   28.5900   52.9270 C   0  0  0  0  0  0  0  0  0  0  0  0
   54.3290   29.4530   52.8650 C   0  0  0  0  0  0  0  0  0  0  0  0
   55.4520   29.1760   53.6680 C   0  0  0  0  0  0  0  0  0  0  0  0
   56.6530   29.8540   53.4790 C   0  0  0  0  0  0  0  0  0  0  0  0
   56.7730   30.7990   52.4600 C   0  0  0  0  0  0  0  0  0  0  0  0
   58.0650   31.4830   52.2480 C   0  0  0  0  0  0  0  0  0  0  0  0
   58.1420   32.6900   52.6060 O   0  0  0  0  0  0  0  0  0  0  0  0
   59.2360   30.8470   51.6560 N   0  0  0  0  0  0  0  0  0  0  0  0
   60.4110   31.7220   51.4240 C   0  0  0  0  0  0  0  0  0  0  0  0
   60.2420   32.6490   50.2050 C   0  0  0  0  0  0  0  0  0  0  0  0
   59.9030   31.8560   49.0000 N   0  0  0  0  0  0  0  0  0  0  0  0
   59.7970   32.6030   47.7150 C   0  0  0  0  0  0  0  0  0  0  0  0
   58.4940   33.3750   47.4750 C   0  0  0  0  0  0  0  0  0  0  0  0
   59.2750   34.6840   47.5060 C   0  0  0  0  0  0  0  0  0  0  0  0
   60.5830   33.9150   47.6680 C   0  0  0  0  0  0  0  0  0  0  0  0
   58.6740   31.0800   49.2340 C   0  0  0  0  0  0  0  0  0  0  0  0
   58.8760   30.1230   50.4160 C   0  0  0  0  0  0  0  0  0  0  0  0
   55.6430   31.1600   51.7180 C   0  0  0  0  0  0  0  0  0  0  0  0
   54.3890   30.5520   51.9440 C   0  0  0  0  0  0  0  0  0  0  0  0
   53.3270   31.0780   51.2810 C   0  0  0  0  0  0  0  0  0  0  0  0
   52.1270   31.6800   51.8900 C   0  0  0  0  0  0  0  0  0  0  0  0
   51.7940   31.5200   53.1820 N   0  0  0  0  0  0  0  0  0  0  0  0
   50.5950   32.1370   53.2750 C   0  0  0  0  0  0  0  0  0  0  0  0
   49.9550   32.2130   54.3560 O   0  0  0  0  0  0  0  0  0  0  0  0
   50.1320   32.6540   52.1170 N   0  0  0  0  0  0  0  0  0  0  0  0
   51.1050   32.3450   51.2470 C   0  0  0  0  0  0  0  0  0  0  0  0
   51.0440   32.6350   49.8890 O   0  0  0  0  0  0  0  0  0  0  0  0
  1  2  2  0
  2  3  1  0
  3  4  2  0
  4  5  1  0
  5  6  1  0
  6  7  2  0
  6  8  1  0
  8  9  1  0
  9 10  1  0
 10 11  1  0
 11 12  1  0
 12 13  1  0
 13 14  1  0
 14 15  1  0
 11 16  1  0
 16 17  1  0
  5 18  2  0
 18 19  1  0
 19 20  2  0
 20 21  1  0
 21 22  1  0
 22 23  1  0
 23 24  2  0
 23 25  1  0
 25 26  1  0
 26 27  1  0
 19  2  1  0
 26 21  2  0
 17  8  1  0
 15 12  1  0
M  CHG  4   8   1  22  -1  25  -1  27  -1
M  END
>  <UniqueID>  (2703) 
26

>  <SMILES>  (2703) 
C=c1ccc(C(=O)[NH+]2CCN(C3CCC3)CC2)c/c1=C/c1[n-]c(=O)[n-]c1[O-]

>  <Energy>  (2703) 
184.2862959853967

>  <Genealogy>  (2703) 
C=c1ccc(C(=O)[NH+]2CCN(C3CCC3)CC2)cc1=Cc1[n-]c(=O)[n-]c1[O-] (protonated)
C=c1ccc(C(=O)[NH+]2CCN(C3CCC3)CC2)c/c1=C/c1[n-]c(=O)[n-]c1[O-] (cis-trans isomerization)
C=c1ccc(C(=O)[NH+]2CCN(C3CCC3)CC2)c/c1=C/c1[n-]c(=O)[n-]c1[O-] (3D coordinates assigned)
C=c1ccc(C(=O)[NH+]2CCN(C3CCC3)CC2)c/c1=C/c1[n-]c(=O)[n-]c1[O-] (nonaromatic ring conformer: 184.2862959853967 kcal/mol)

>  <smiles>  (2703) 
C=c1ccc(C(=O)N2CCN(C3CCC3)CC2)cc1=Cc1[nH]c(=O)[nH]c1O

>  <score_type>  (2703) 
oracle

>  <origin>  (2703) 
adg

>  <m_score__min__energy>  (2703) 
-16.75

>  <m_primary>  (2703) 
energy

$$$$
31:0
     RDKit          3D

 28 30  0  0  0  0  0  0  0  0999 V2000
   59.2980   29.1850   44.4540 C   0  0  0  0  0  0  0  0  0  0  0  0
   59.2040   28.8230   45.7430 C   0  0  0  0  0  0  0  0  0  0  0  0
   58.7140   27.6050   46.2430 C   0  0  0  0  0  0  0  0  0  0  0  0
   58.0520   26.6010   45.6350 C   0  0  0  0  0  0  0  0  0  0  0  0
   57.3150   25.5260   46.3190 C   0  0  0  0  0  0  0  0  0  0  0  0
   57.8740   24.3860   46.7650 N   0  0  0  0  0  0  0  0  0  0  0  0
   56.8130   23.6590   47.1800 C   0  0  0  0  0  0  0  0  0  0  0  0
   56.9340   22.5140   47.6850 O   0  0  0  0  0  0  0  0  0  0  0  0
   55.6150   24.2540   47.0010 N   0  0  0  0  0  0  0  0  0  0  0  0
   55.9470   25.4300   46.4430 C   0  0  0  0  0  0  0  0  0  0  0  0
   55.0120   26.3860   46.0580 O   0  0  0  0  0  0  0  0  0  0  0  0
   59.0030   27.5960   47.5960 C   0  0  0  0  0  0  0  0  0  0  0  0
   59.5800   28.8130   47.8900 C   0  0  0  0  0  0  0  0  0  0  0  0
   60.0130   29.2330   49.2630 C   0  0  0  0  0  0  0  0  0  0  0  0
   59.7080   29.5610   46.7690 N   0  0  0  0  0  0  0  0  0  0  0  0
   60.2670   30.9200   46.7030 C   0  0  0  0  0  0  0  0  0  0  0  0
   59.3350   31.9340   47.3710 C   0  0  0  0  0  0  0  0  0  0  0  0
   59.9810   33.1990   47.4990 O   0  0  0  0  0  0  0  0  0  0  0  0
   59.5720   34.3570   46.8260 C   0  0  0  0  0  0  0  0  0  0  0  0
   59.3450   35.4170   47.4690 O   0  0  0  0  0  0  0  0  0  0  0  0
   59.4450   34.3820   45.3560 C   0  0  0  0  0  0  0  0  0  0  0  0
   58.3030   34.2430   44.6650 C   0  0  0  0  0  0  0  0  0  0  0  0
   57.7760   32.9680   44.1400 C   0  0  0  0  0  0  0  0  0  0  0  0
   57.0910   32.0690   44.9770 C   0  0  0  0  0  0  0  0  0  0  0  0
   56.5710   30.8820   44.4540 C   0  0  0  0  0  0  0  0  0  0  0  0
   56.7140   30.5920   43.0950 C   0  0  0  0  0  0  0  0  0  0  0  0
   57.3690   31.4970   42.2530 C   0  0  0  0  0  0  0  0  0  0  0  0
   57.8890   32.6870   42.7710 C   0  0  0  0  0  0  0  0  0  0  0  0
  1  2  2  0
  2  3  1  0
  3  4  2  3
  4  5  1  0
  5  6  1  0
  6  7  1  0
  7  8  2  0
  7  9  1  0
  9 10  1  0
 10 11  1  0
  3 12  1  0
 12 13  2  0
 13 14  1  0
 13 15  1  0
 15 16  1  0
 16 17  1  0
 17 18  1  0
 18 19  1  0
 19 20  2  0
 19 21  1  0
 21 22  2  3
 22 23  1  0
 23 24  2  0
 24 25  1  0
 25 26  2  0
 26 27  1  0
 27 28  2  0
 15  2  1  0
 28 23  1  0
 10  5  2  0
M  CHG  2   6  -1   9  -1
M  END
>  <UniqueID>  (2704) 
31

>  <SMILES>  (2704) 
C=c1c(=Cc2[n-]c(=O)[n-]c2O)cc(C)n1CCOC(=O)C=Cc1ccccc1

>  <Energy>  (2704) 
118.64453815019995

>  <Genealogy>  (2704) 
C=c1c(=Cc2[n-]c(=O)[n-]c2O)cc(C)n1CCOC(=O)C=Cc1ccccc1 (protonated)
C=c1c(=Cc2[n-]c(=O)[n-]c2O)cc(C)n1CCOC(=O)C=Cc1ccccc1 (3D coordinates assigned)
C=c1c(=Cc2[n-]c(=O)[n-]c2O)cc(C)n1CCOC(=O)C=Cc1ccccc1 (optimized conformer: 118.64453815019995 kcal/mol)

>  <smiles>  (2704) 
C=c1c(=Cc2[nH]c(=O)[nH]c2O)cc(C)n1CCOC(=O)C=Cc1ccccc1

>  <score_type>  (2704) 
oracle

>  <origin>  (2704) 
adg

>  <m_score__min__energy>  (2704) 
-14.119999999999999

>  <m_primary>  (2704) 
energy

$$$$
32:0
     RDKit          3D

 23 25  0  0  0  0  0  0  0  0999 V2000
   57.8800   32.7420   43.4940 C   0  0  0  0  0  0  0  0  0  0  0  0
   58.0570   31.7410   44.3580 C   0  0  0  0  0  0  0  0  0  0  0  0
   58.0890   30.1250   43.9000 S   0  0  0  0  0  0  0  0  0  0  0  0
   58.3450   29.5440   45.4580 C   0  0  0  0  0  0  0  0  0  0  0  0
   58.4480   28.2330   45.7360 C   0  0  0  0  0  0  0  0  0  0  0  0
   57.3310   27.3170   46.0340 C   0  0  0  0  0  0  0  0  0  0  0  0
   57.4470   26.0970   46.5880 N   0  0  0  0  0  0  0  0  0  0  0  0
   56.1890   25.6090   46.5460 C   0  0  0  0  0  0  0  0  0  0  0  0
   55.8870   24.4720   46.9930 O   0  0  0  0  0  0  0  0  0  0  0  0
   55.2820   26.4330   45.9780 N   0  0  0  0  0  0  0  0  0  0  0  0
   56.0240   27.5030   45.6490 C   0  0  0  0  0  0  0  0  0  0  0  0
   55.5180   28.6240   45.0060 O   0  0  0  0  0  0  0  0  0  0  0  0
   58.3750   30.6550   46.3180 C   0  0  0  0  0  0  0  0  0  0  0  0
   58.4810   30.5550   47.5690 O   0  0  0  0  0  0  0  0  0  0  0  0
   58.2290   31.8710   45.7040 N   0  0  0  0  0  0  0  0  0  0  0  0
   58.2040   33.1490   46.4400 C   0  0  0  0  0  0  0  0  0  0  0  0
   59.5330   33.4080   47.1060 C   0  0  0  0  0  0  0  0  0  0  0  0
   59.6100   33.5480   48.5020 C   0  0  0  0  0  0  0  0  0  0  0  0
   60.8410   33.7860   49.1220 C   0  0  0  0  0  0  0  0  0  0  0  0
   62.0040   33.8790   48.3530 C   0  0  0  0  0  0  0  0  0  0  0  0
   63.1980   34.1090   48.9550 F   0  0  0  0  0  0  0  0  0  0  0  0
   61.9390   33.7300   46.9650 C   0  0  0  0  0  0  0  0  0  0  0  0
   60.7100   33.4920   46.3430 C   0  0  0  0  0  0  0  0  0  0  0  0
  1  2  2  0
  2  3  1  0
  3  4  1  0
  4  5  2  0
  5  6  1  0
  6  7  1  0
  7  8  1  0
  8  9  2  0
  8 10  1  0
 10 11  1  0
 11 12  1  0
  4 13  1  0
 13 14  2  0
 13 15  1  0
 15 16  1  0
 16 17  1  0
 17 18  2  0
 18 19  1  0
 19 20  2  0
 20 21  1  0
 20 22  1  0
 22 23  2  0
 15  2  1  0
 23 17  1  0
 11  6  2  0
M  CHG  3   7  -1  10  -1  12  -1
M  END
>  <UniqueID>  (2705) 
32

>  <SMILES>  (2705) 
C=c1s/c(=C/c2[n-]c(=O)[n-]c2[O-])c(=O)n1Cc1ccc(F)cc1

>  <Energy>  (2705) 
102.25734614686091

>  <Genealogy>  (2705) 
C=c1sc(=Cc2[n-]c(=O)[n-]c2[O-])c(=O)n1Cc1ccc(F)cc1 (protonated)
C=c1s/c(=C/c2[n-]c(=O)[n-]c2[O-])c(=O)n1Cc1ccc(F)cc1 (cis-trans isomerization)
C=c1s/c(=C/c2[n-]c(=O)[n-]c2[O-])c(=O)n1Cc1ccc(F)cc1 (3D coordinates assigned)
C=c1s/c(=C/c2[n-]c(=O)[n-]c2[O-])c(=O)n1Cc1ccc(F)cc1 (optimized conformer: 102.25734614686091 kcal/mol)

>  <smiles>  (2705) 
C=c1sc(=Cc2[nH]c(=O)[nH]c2O)c(=O)n1Cc1ccc(F)cc1

>  <score_type>  (2705) 
oracle

>  <origin>  (2705) 
adg

>  <m_score__min__energy>  (2705) 
-15.550000000000001

>  <m_primary>  (2705) 
energy

$$$$
36:0
     RDKit          3D

 29 32  0  0  0  0  0  0  0  0999 V2000
   56.0480   29.0950   44.8490 C   0  0  0  0  0  0  0  0  0  0  0  0
   57.3760   28.9710   44.9950 C   0  0  0  0  0  0  0  0  0  0  0  0
   58.1200   27.7780   45.0420 C   0  0  0  0  0  0  0  0  0  0  0  0
   57.7840   26.5070   44.7490 C   0  0  0  0  0  0  0  0  0  0  0  0
   57.2610   25.5020   45.6940 C   0  0  0  0  0  0  0  0  0  0  0  0
   57.9830   24.5080   46.2440 N   0  0  0  0  0  0  0  0  0  0  0  0
   57.1300   23.9630   47.1390 C   0  0  0  0  0  0  0  0  0  0  0  0
   57.4330   22.9700   47.8490 O   0  0  0  0  0  0  0  0  0  0  0  0
   55.9270   24.5700   47.2180 N   0  0  0  0  0  0  0  0  0  0  0  0
   56.0320   25.5520   46.3050 C   0  0  0  0  0  0  0  0  0  0  0  0
   55.0300   26.4830   46.0460 O   0  0  0  0  0  0  0  0  0  0  0  0
   59.3860   28.1330   45.4760 C   0  0  0  0  0  0  0  0  0  0  0  0
   59.3980   29.5050   45.6120 C   0  0  0  0  0  0  0  0  0  0  0  0
   60.5610   30.3050   46.1110 C   0  0  0  0  0  0  0  0  0  0  0  0
   58.1810   30.0120   45.3230 N   0  0  0  0  0  0  0  0  0  0  0  0
   57.7940   31.3790   45.5260 C   0  0  0  0  0  0  0  0  0  0  0  0
   57.0410   31.9380   44.6860 O   0  0  0  0  0  0  0  0  0  0  0  0
   58.2660   32.1040   46.6770 N   0  0  0  0  0  0  0  0  0  0  0  0
   58.2410   33.5710   46.7020 C   0  0  0  0  0  0  0  0  0  0  0  0
   59.5000   34.1230   47.4080 C   0  0  0  0  0  0  0  0  0  0  0  0
   59.9590   33.3290   48.5890 N   0  0  0  0  0  0  0  0  0  0  0  0
   61.3480   32.8050   48.4060 C   0  0  0  0  0  0  0  0  0  0  0  0
   61.8920   33.2690   47.0260 C   0  0  0  0  0  0  0  0  0  0  0  0
   63.4250   33.3550   46.9900 C   0  0  0  0  0  0  0  0  0  0  0  0
   63.9850   32.3910   47.8520 O   0  0  0  0  0  0  0  0  0  0  0  0
   63.7810   32.7660   49.2030 C   0  0  0  0  0  0  0  0  0  0  0  0
   62.3420   33.2470   49.5090 C   0  0  0  0  0  0  0  0  0  0  0  0
   58.9480   32.3420   49.0300 C   0  0  0  0  0  0  0  0  0  0  0  0
   58.5990   31.3700   47.9010 C   0  0  0  0  0  0  0  0  0  0  0  0
  1  2  2  0
  2  3  1  0
  3  4  2  3
  4  5  1  0
  5  6  1  0
  6  7  1  0
  7  8  2  0
  7  9  1  0
  9 10  1  0
 10 11  1  0
  3 12  1  0
 12 13  2  0
 13 14  1  0
 13 15  1  0
 15 16  1  0
 16 17  2  0
 16 18  1  0
 18 19  1  0
 19 20  1  0
 20 21  1  0
 21 22  1  0
 22 23  1  0
 23 24  1  0
 24 25  1  0
 25 26  1  0
 26 27  1  0
 21 28  1  0
 28 29  1  0
 15  2  1  0
 29 18  1  0
 10  5  2  0
 27 22  1  0
M  CHG  2   6  -1   9  -1
M  END
>  <UniqueID>  (2706) 
36

>  <SMILES>  (2706) 
C=c1c(=Cc2[n-]c(=O)[n-]c2O)cc(C)n1C(=O)N1CCN(C2CCOCC2)CC1

>  <Energy>  (2706) 
150.21134445812922

>  <Genealogy>  (2706) 
C=c1c(=Cc2[n-]c(=O)[n-]c2O)cc(C)n1C(=O)N1CCN(C2CCOCC2)CC1 (protonated)
C=c1c(=Cc2[n-]c(=O)[n-]c2O)cc(C)n1C(=O)N1CCN(C2CCOCC2)CC1 (3D coordinates assigned)
C=c1c(=Cc2[n-]c(=O)[n-]c2O)cc(C)n1C(=O)N1CCN(C2CCOCC2)CC1 (nonaromatic ring conformer: 150.21134445812922 kcal/mol)

>  <smiles>  (2706) 
C=c1c(=Cc2[nH]c(=O)[nH]c2O)cc(C)n1C(=O)N1CCN(C2CCOCC2)CC1

>  <score_type>  (2706) 
oracle

>  <origin>  (2706) 
adg

>  <m_score__min__energy>  (2706) 
-14.039999999999999

>  <m_primary>  (2706) 
energy

$$$$
37:0
     RDKit          3D

 27 29  0  0  0  0  0  0  0  0999 V2000
   60.0130   30.4330   46.0140 C   0  0  0  0  0  0  0  0  0  0  0  0
   59.1840   31.2750   45.3760 C   0  0  0  0  0  0  0  0  0  0  0  0
   58.1040   30.9170   44.5530 C   0  0  0  0  0  0  0  0  0  0  0  0
   57.7580   29.7310   44.0140 C   0  0  0  0  0  0  0  0  0  0  0  0
   57.5150   28.4850   44.7700 C   0  0  0  0  0  0  0  0  0  0  0  0
   56.2350   28.1580   45.2520 C   0  0  0  0  0  0  0  0  0  0  0  0
   55.1520   28.9960   45.0060 O   0  0  0  0  0  0  0  0  0  0  0  0
   56.0500   27.0180   45.9700 N   0  0  0  0  0  0  0  0  0  0  0  0
   57.0950   26.1940   46.2530 C   0  0  0  0  0  0  0  0  0  0  0  0
   56.8620   24.8270   47.1210 S   0  0  0  0  0  0  0  0  0  0  0  0
   58.3440   26.5080   45.8250 N   0  0  0  0  0  0  0  0  0  0  0  0
   58.5780   27.6330   45.1010 C   0  0  0  0  0  0  0  0  0  0  0  0
   59.7530   27.8930   44.7250 O   0  0  0  0  0  0  0  0  0  0  0  0
   57.3780   32.0740   44.3450 C   0  0  0  0  0  0  0  0  0  0  0  0
   58.0580   33.0930   44.9750 C   0  0  0  0  0  0  0  0  0  0  0  0
   57.5760   34.5140   45.0320 C   0  0  0  0  0  0  0  0  0  0  0  0
   59.1850   32.6240   45.5640 N   0  0  0  0  0  0  0  0  0  0  0  0
   60.1350   33.4310   46.3540 C   0  0  0  0  0  0  0  0  0  0  0  0
   60.5660   32.7350   47.6470 C   0  0  0  0  0  0  0  0  0  0  0  0
   59.5980   32.3450   48.6170 C   0  0  0  0  0  0  0  0  0  0  0  0
   58.1290   32.6530   48.4570 C   0  0  0  0  0  0  0  0  0  0  0  0
   60.0030   31.6420   49.7630 C   0  0  0  0  0  0  0  0  0  0  0  0
   61.3500   31.3600   49.9960 C   0  0  0  0  0  0  0  0  0  0  0  0
   61.7570   30.5650   51.2010 C   0  0  0  0  0  0  0  0  0  0  0  0
   62.3090   31.7820   49.0740 C   0  0  0  0  0  0  0  0  0  0  0  0
   61.9430   32.4980   47.9240 C   0  0  0  0  0  0  0  0  0  0  0  0
   63.0440   32.9650   47.0080 C   0  0  0  0  0  0  0  0  0  0  0  0
  1  2  2  0
  2  3  1  0
  3  4  2  0
  4  5  1  0
  5  6  2  0
  6  7  1  0
  6  8  1  0
  8  9  1  0
  9 10  2  0
  9 11  1  0
 11 12  1  0
 12 13  2  0
  3 14  1  0
 14 15  2  0
 15 16  1  0
 15 17  1  0
 17 18  1  0
 18 19  1  0
 19 20  2  0
 20 21  1  0
 20 22  1  0
 22 23  2  0
 23 24  1  0
 23 25  1  0
 25 26  2  0
 26 27  1  0
 17  2  1  0
 26 19  1  0
 12  5  1  0
M  CHG  2   7  -1  11  -1
M  END
>  <UniqueID>  (2707) 
37

>  <SMILES>  (2707) 
C=c1/c(=C\c2c([O-])[nH]c(=S)[n-]c2=O)cc(C)n1Cc1c(C)cc(C)cc1C

>  <Energy>  (2707) 
95.91459223155582

>  <Genealogy>  (2707) 
C=c1c(=Cc2c([O-])[nH]c(=S)[n-]c2=O)cc(C)n1Cc1c(C)cc(C)cc1C (protonated)
C=c1/c(=C\c2c([O-])[nH]c(=S)[n-]c2=O)cc(C)n1Cc1c(C)cc(C)cc1C (cis-trans isomerization)
C=c1/c(=C\c2c([O-])[nH]c(=S)[n-]c2=O)cc(C)n1Cc1c(C)cc(C)cc1C (3D coordinates assigned)
C=c1/c(=C\c2c([O-])[nH]c(=S)[n-]c2=O)cc(C)n1Cc1c(C)cc(C)cc1C (optimized conformer: 95.91459223155582 kcal/mol)

>  <smiles>  (2707) 
C=c1c(=Cc2c(O)[nH]c(=S)[nH]c2=O)cc(C)n1Cc1c(C)cc(C)cc1C

>  <score_type>  (2707) 
oracle

>  <origin>  (2707) 
adg

>  <m_score__min__energy>  (2707) 
-14.119999999999999

>  <m_primary>  (2707) 
energy

$$$$
42:0
     RDKit          3D

 27 29  0  0  0  0  0  0  0  0999 V2000
   59.1070   27.5740   46.5340 O   0  0  0  0  0  0  0  0  0  0  0  0
   57.9120   27.1750   46.5740 C   0  0  0  0  0  0  0  0  0  0  0  0
   57.5890   25.8680   47.2220 C   0  0  0  0  0  0  0  0  0  0  0  0
   56.7490   25.0400   46.3020 C   0  0  0  0  0  0  0  0  0  0  0  0
   57.2070   23.5620   45.6340 S   0  0  0  0  0  0  0  0  0  0  0  0
   55.8060   23.4530   44.7110 C   0  0  0  0  0  0  0  0  0  0  0  0
   55.5430   22.5000   43.9320 O   0  0  0  0  0  0  0  0  0  0  0  0
   54.9910   24.5170   44.8720 N   0  0  0  0  0  0  0  0  0  0  0  0
   55.5210   25.4070   45.7540 C   0  0  0  0  0  0  0  0  0  0  0  0
   54.8770   26.5990   46.0720 O   0  0  0  0  0  0  0  0  0  0  0  0
   56.8570   27.9540   45.9960 N   0  0  0  0  0  0  0  0  0  0  0  0
   56.9400   29.3350   45.6130 C   0  0  0  0  0  0  0  0  0  0  0  0
   57.9890   30.1630   46.0560 C   0  0  0  0  0  0  0  0  0  0  0  0
   58.0360   31.5130   45.6790 C   0  0  0  0  0  0  0  0  0  0  0  0
   59.3720   32.5370   46.2010 S   0  0  0  0  0  0  0  0  0  0  0  0
   59.6980   33.5240   45.1150 O   0  0  0  0  0  0  0  0  0  0  0  0
   60.5790   31.6670   46.4240 O   0  0  0  0  0  0  0  0  0  0  0  0
   58.9550   33.3490   47.6970 N   0  0  0  0  0  0  0  0  0  0  0  0
   59.7720   34.5530   47.9550 C   0  0  0  0  0  0  0  0  0  0  0  0
   61.1780   34.2210   48.4720 C   0  0  0  0  0  0  0  0  0  0  0  0
   61.1000   33.3260   49.7080 C   0  0  0  0  0  0  0  0  0  0  0  0
   60.2810   32.0700   49.4120 C   0  0  0  0  0  0  0  0  0  0  0  0
   58.8950   32.4290   48.8520 C   0  0  0  0  0  0  0  0  0  0  0  0
   57.0280   32.0390   44.8630 C   0  0  0  0  0  0  0  0  0  0  0  0
   55.9680   31.2300   44.4450 C   0  0  0  0  0  0  0  0  0  0  0  0
   55.9190   29.8860   44.8230 C   0  0  0  0  0  0  0  0  0  0  0  0
   54.8550   29.0940   44.4050 O   0  0  0  0  0  0  0  0  0  0  0  0
  1  2  2  0
  2  3  1  0
  3  4  1  0
  4  5  1  0
  5  6  1  0
  6  7  2  0
  6  8  1  0
  8  9  1  0
  9 10  1  0
  2 11  1  0
 11 12  1  0
 12 13  2  0
 13 14  1  0
 14 15  1  0
 15 16  2  0
 15 17  2  0
 15 18  1  0
 18 19  1  0
 19 20  1  0
 20 21  1  0
 21 22  1  0
 22 23  1  0
 14 24  2  0
 24 25  1  0
 25 26  2  0
 26 27  1  0
  9  4  2  0
 26 12  1  0
 23 18  1  0
M  CHG  3   8  -1  11  -1  27  -1
M  END
>  <UniqueID>  (2708) 
42

>  <SMILES>  (2708) 
O=C(Cc1sc(=O)[n-]c1O)[N-]c1cc(S(=O)(=O)N2CCCCC2)ccc1[O-]

>  <Energy>  (2708) 
74.59657434835302

>  <Genealogy>  (2708) 
O=C(Cc1sc(=O)[n-]c1O)[N-]c1cc(S(=O)(=O)N2CCCCC2)ccc1[O-] (protonated)
O=C(Cc1sc(=O)[n-]c1O)[N-]c1cc(S(=O)(=O)N2CCCCC2)ccc1[O-] (3D coordinates assigned)
O=C(Cc1sc(=O)[n-]c1O)[N-]c1cc(S(=O)(=O)N2CCCCC2)ccc1[O-] (nonaromatic ring conformer: 74.59657434835302 kcal/mol)

>  <smiles>  (2708) 
O=C(Cc1sc(=O)[nH]c1O)Nc1cc(S(=O)(=O)N2CCCCC2)ccc1O

>  <score_type>  (2708) 
oracle

>  <origin>  (2708) 
adg

>  <m_score__min__energy>  (2708) 
-14.68

>  <m_primary>  (2708) 
energy

$$$$
72:0
     RDKit          3D

 33 36  0  0  0  0  0  0  0  0999 V2000
   59.7590   29.3090   44.6290 C   0  0  0  0  0  0  0  0  0  0  0  0
   58.4220   29.3230   44.5400 C   0  0  0  0  0  0  0  0  0  0  0  0
   57.5310   28.2440   44.6500 C   0  0  0  0  0  0  0  0  0  0  0  0
   57.7700   26.9230   44.7220 C   0  0  0  0  0  0  0  0  0  0  0  0
   57.3830   26.0420   45.8330 C   0  0  0  0  0  0  0  0  0  0  0  0
   58.3630   24.8430   46.5080 S   0  0  0  0  0  0  0  0  0  0  0  0
   57.1190   24.2580   47.4760 C   0  0  0  0  0  0  0  0  0  0  0  0
   57.2390   23.3000   48.2830 O   0  0  0  0  0  0  0  0  0  0  0  0
   55.9590   24.9210   47.2900 N   0  0  0  0  0  0  0  0  0  0  0  0
   56.0980   25.9050   46.3620 C   0  0  0  0  0  0  0  0  0  0  0  0
   55.0210   26.7040   45.9880 O   0  0  0  0  0  0  0  0  0  0  0  0
   56.2670   28.7210   44.6710 N   0  0  0  0  0  0  0  0  0  0  0  0
   56.4060   30.0530   44.5360 C   0  0  0  0  0  0  0  0  0  0  0  0
   55.4220   30.8400   44.5050 O   0  0  0  0  0  0  0  0  0  0  0  0
   57.6880   30.4570   44.4480 N   0  0  0  0  0  0  0  0  0  0  0  0
   58.1620   31.8440   44.3330 C   0  0  0  0  0  0  0  0  0  0  0  0
   57.7990   32.6430   45.5610 C   0  0  0  0  0  0  0  0  0  0  0  0
   56.5810   32.7810   45.8590 O   0  0  0  0  0  0  0  0  0  0  0  0
   58.8140   33.1770   46.4400 N   0  0  0  0  0  0  0  0  0  0  0  0
   60.1600   33.4750   45.9240 C   0  0  0  0  0  0  0  0  0  0  0  0
   60.9980   34.2650   46.9330 C   0  0  0  0  0  0  0  0  0  0  0  0
   60.9100   33.6410   48.2580 N   0  0  0  0  0  0  0  0  0  0  0  0
   62.0550   33.6520   49.1300 C   0  0  0  0  0  0  0  0  0  0  0  0
   62.8960   34.5880   49.0460 O   0  0  0  0  0  0  0  0  0  0  0  0
   62.2540   32.5970   50.1450 C   0  0  0  0  0  0  0  0  0  0  0  0
   62.7220   32.9560   51.4200 C   0  0  0  0  0  0  0  0  0  0  0  0
   62.9100   31.9820   52.4040 C   0  0  0  0  0  0  0  0  0  0  0  0
   62.6430   30.6400   52.1210 C   0  0  0  0  0  0  0  0  0  0  0  0
   62.1990   30.2680   50.8500 C   0  0  0  0  0  0  0  0  0  0  0  0
   62.0080   31.2360   49.8550 C   0  0  0  0  0  0  0  0  0  0  0  0
   61.5350   30.6970   48.2460 Cl  0  0  0  0  0  0  0  0  0  0  0  0
   59.6080   33.1900   48.7760 C   0  0  0  0  0  0  0  0  0  0  0  0
   58.4640   33.5470   47.8200 C   0  0  0  0  0  0  0  0  0  0  0  0
  1  2  2  0
  2  3  1  0
  3  4  2  3
  4  5  1  0
  5  6  1  0
  6  7  1  0
  7  8  2  0
  7  9  1  0
  9 10  1  0
 10 11  1  0
  3 12  1  0
 12 13  1  0
 13 14  2  0
 13 15  1  0
 15 16  1  0
 16 17  1  0
 17 18  2  0
 17 19  1  0
 19 20  1  0
 20 21  1  0
 21 22  1  0
 22 23  1  0
 23 24  2  0
 23 25  1  0
 25 26  2  0
 26 27  1  0
 27 28  2  0
 28 29  1  0
 29 30  2  0
 30 31  1  0
 22 32  1  0
 32 33  1  0
 15  2  1  0
 33 19  1  0
 10  5  2  0
 30 25  1  0
M  CHG  2   9  -1  12  -1
M  END
>  <UniqueID>  (2709) 
70

>  <SMILES>  (2709) 
C=c1c(=Cc2sc(=O)[n-]c2O)[n-]c(=O)n1CC(=O)N1CCN(C(=O)c2ccccc2Cl)CC1

>  <Energy>  (2709) 
137.3681748954975

>  <Genealogy>  (2709) 
C=c1c(=Cc2sc(=O)[n-]c2O)[n-]c(=O)n1CC(=O)N1CCN(C(=O)c2ccccc2Cl)CC1 (protonated)
C=c1c(=Cc2sc(=O)[n-]c2O)[n-]c(=O)n1CC(=O)N1CCN(C(=O)c2ccccc2Cl)CC1 (3D coordinates assigned)
C=c1c(=Cc2sc(=O)[n-]c2O)[n-]c(=O)n1CC(=O)N1CCN(C(=O)c2ccccc2Cl)CC1 (nonaromatic ring conformer: 137.3681748954975 kcal/mol)

>  <smiles>  (2709) 
C=c1c(=Cc2sc(=O)[nH]c2O)[nH]c(=O)n1CC(=O)N1CCN(C(=O)c2ccccc2Cl)CC1

>  <score_type>  (2709) 
oracle

>  <origin>  (2709) 
adg

>  <m_score__min__energy>  (2709) 
-14.1

>  <m_primary>  (2709) 
energy

$$$$
75:0
     RDKit          3D

 25 27  0  0  0  0  0  0  0  0999 V2000
   53.6700   28.3690   54.0770 C   0  0  0  0  0  0  0  0  0  0  0  0
   54.2940   29.2120   53.2500 C   0  0  0  0  0  0  0  0  0  0  0  0
   55.9680   29.2530   53.0810 S   0  0  0  0  0  0  0  0  0  0  0  0
   56.0080   30.4750   51.9320 C   0  0  0  0  0  0  0  0  0  0  0  0
   57.2270   31.0390   51.3370 C   0  0  0  0  0  0  0  0  0  0  0  0
   57.5440   32.2350   51.5770 O   0  0  0  0  0  0  0  0  0  0  0  0
   58.0500   30.2300   50.4900 N   0  0  0  0  0  0  0  0  0  0  0  0
   59.2070   30.7380   49.7640 C   0  0  0  0  0  0  0  0  0  0  0  0
   58.8630   30.9470   48.3150 C   0  0  0  0  0  0  0  0  0  0  0  0
   58.8670   29.8670   47.4160 C   0  0  0  0  0  0  0  0  0  0  0  0
   58.5680   30.0760   46.0660 C   0  0  0  0  0  0  0  0  0  0  0  0
   58.2710   31.3600   45.6030 C   0  0  0  0  0  0  0  0  0  0  0  0
   58.2720   32.4410   46.4900 C   0  0  0  0  0  0  0  0  0  0  0  0
   57.9030   34.0550   45.9080 Cl  0  0  0  0  0  0  0  0  0  0  0  0
   58.5680   32.2370   47.8430 C   0  0  0  0  0  0  0  0  0  0  0  0
   54.7060   30.8780   51.6580 C   0  0  0  0  0  0  0  0  0  0  0  0
   53.7240   30.1700   52.3860 C   0  0  0  0  0  0  0  0  0  0  0  0
   52.3990   30.4190   52.2960 C   0  0  0  0  0  0  0  0  0  0  0  0
   51.7070   30.8130   51.0540 C   0  0  0  0  0  0  0  0  0  0  0  0
   51.6840   30.0500   49.9480 N   0  0  0  0  0  0  0  0  0  0  0  0
   51.0410   30.8230   49.0470 C   0  0  0  0  0  0  0  0  0  0  0  0
   50.8080   30.4420   47.8700 O   0  0  0  0  0  0  0  0  0  0  0  0
   50.6760   32.0410   49.5010 N   0  0  0  0  0  0  0  0  0  0  0  0
   51.1170   32.0260   50.7700 C   0  0  0  0  0  0  0  0  0  0  0  0
   51.0190   33.1110   51.6310 O   0  0  0  0  0  0  0  0  0  0  0  0
  1  2  2  0
  2  3  1  0
  3  4  1  0
  4  5  1  0
  5  6  2  0
  5  7  1  0
  7  8  1  0
  8  9  1  0
  9 10  2  0
 10 11  1  0
 11 12  2  0
 12 13  1  0
 13 14  1  0
 13 15  2  0
  4 16  2  0
 16 17  1  0
 17 18  2  3
 18 19  1  0
 19 20  1  0
 20 21  1  0
 21 22  2  0
 21 23  1  0
 23 24  1  0
 24 25  1  0
 17  2  1  0
 24 19  2  0
 15  9  1  0
M  CHG  4   7  -1  20  -1  23  -1  25  -1
M  END
>  <UniqueID>  (2710) 
73

>  <SMILES>  (2710) 
C=c1sc(C(=O)[N-]Cc2cccc(Cl)c2)cc1=Cc1[n-]c(=O)[n-]c1[O-]

>  <Energy>  (2710) 
99.082813738598

>  <Genealogy>  (2710) 
C=c1sc(C(=O)[N-]Cc2cccc(Cl)c2)cc1=Cc1[n-]c(=O)[n-]c1[O-] (protonated)
C=c1sc(C(=O)[N-]Cc2cccc(Cl)c2)cc1=Cc1[n-]c(=O)[n-]c1[O-] (3D coordinates assigned)
C=c1sc(C(=O)[N-]Cc2cccc(Cl)c2)cc1=Cc1[n-]c(=O)[n-]c1[O-] (optimized conformer: 99.082813738598 kcal/mol)

>  <smiles>  (2710) 
C=c1sc(C(=O)NCc2cccc(Cl)c2)cc1=Cc1[nH]c(=O)[nH]c1O

>  <score_type>  (2710) 
oracle

>  <origin>  (2710) 
adg

>  <m_score__min__energy>  (2710) 
-18.199999999999999

>  <m_primary>  (2710) 
energy

$$$$
89:0
     RDKit          3D

 32 35  0  0  0  0  0  0  0  0999 V2000
   56.1210   29.8150   43.3650 C   0  0  0  0  0  0  0  0  0  0  0  0
   56.8280   29.4490   44.4360 C   0  0  0  0  0  0  0  0  0  0  0  0
   57.6410   30.2640   45.2170 C   0  0  0  0  0  0  0  0  0  0  0  0
   57.8500   31.7230   45.1070 C   0  0  0  0  0  0  0  0  0  0  0  0
   57.2200   32.3720   44.2290 O   0  0  0  0  0  0  0  0  0  0  0  0
   58.7400   32.4180   46.0030 N   0  0  0  0  0  0  0  0  0  0  0  0
   60.0130   31.7860   46.3900 C   0  0  0  0  0  0  0  0  0  0  0  0
   60.9730   32.8000   47.0150 C   0  0  0  0  0  0  0  0  0  0  0  0
   60.2620   33.5800   48.0340 N   0  0  0  0  0  0  0  0  0  0  0  0
   60.7760   33.6730   49.3770 C   0  0  0  0  0  0  0  0  0  0  0  0
   62.1570   33.7740   49.6030 C   0  0  0  0  0  0  0  0  0  0  0  0
   62.6540   33.8670   50.9040 C   0  0  0  0  0  0  0  0  0  0  0  0
   61.7800   33.8460   51.9930 C   0  0  0  0  0  0  0  0  0  0  0  0
   60.3960   33.7140   51.7900 C   0  0  0  0  0  0  0  0  0  0  0  0
   59.4460   33.7410   52.9610 C   0  0  0  0  0  0  0  0  0  0  0  0
   59.9480   34.5850   53.9350 F   0  0  0  0  0  0  0  0  0  0  0  0
   59.2920   32.4750   53.4980 F   0  0  0  0  0  0  0  0  0  0  0  0
   58.2000   34.1980   52.5680 F   0  0  0  0  0  0  0  0  0  0  0  0
   59.9000   33.6490   50.4750 C   0  0  0  0  0  0  0  0  0  0  0  0
   58.9640   34.1910   47.7120 C   0  0  0  0  0  0  0  0  0  0  0  0
   58.5070   33.8420   46.2880 C   0  0  0  0  0  0  0  0  0  0  0  0
   58.1700   29.4540   46.2040 C   0  0  0  0  0  0  0  0  0  0  0  0
   57.6770   28.1820   45.9740 C   0  0  0  0  0  0  0  0  0  0  0  0
   57.9410   27.1170   46.7480 C   0  0  0  0  0  0  0  0  0  0  0  0
   57.1690   25.8640   46.7210 C   0  0  0  0  0  0  0  0  0  0  0  0
   57.7160   24.6560   46.9370 N   0  0  0  0  0  0  0  0  0  0  0  0
   56.6880   23.8030   46.7310 C   0  0  0  0  0  0  0  0  0  0  0  0
   56.8060   22.5570   46.8540 O   0  0  0  0  0  0  0  0  0  0  0  0
   55.5280   24.3920   46.3720 N   0  0  0  0  0  0  0  0  0  0  0  0
   55.8510   25.6960   46.3580 C   0  0  0  0  0  0  0  0  0  0  0  0
   54.9700   26.7000   45.9730 O   0  0  0  0  0  0  0  0  0  0  0  0
   56.8540   28.1840   44.9020 N   0  0  0  0  0  0  0  0  0  0  0  0
  1  2  2  0
  2  3  1  0
  3  4  1  0
  4  5  2  0
  4  6  1  0
  6  7  1  0
  7  8  1  0
  8  9  1  0
  9 10  1  0
 10 11  2  0
 11 12  1  0
 12 13  2  0
 13 14  1  0
 14 15  1  0
 15 16  1  0
 15 17  1  0
 15 18  1  0
 14 19  2  0
  9 20  1  0
 20 21  1  0
  3 22  2  0
 22 23  1  0
 23 24  2  0
 24 25  1  0
 25 26  1  0
 26 27  1  0
 27 28  2  0
 27 29  1  0
 29 30  1  0
 30 31  1  0
 23 32  1  0
 32  2  1  0
 21  6  1  0
 30 25  2  0
 19 10  1  0
M  CHG  3  26  -1  29  -1  31  -1
M  END
>  <UniqueID>  (2711) 
86

>  <SMILES>  (2711) 
C=c1[nH]/c(=C\c2[n-]c(=O)[n-]c2[O-])cc1C(=O)N1CCN(c2cccc(C(F)(F)F)c2)CC1

>  <Energy>  (2711) 
123.61293914338918

>  <Genealogy>  (2711) 
C=c1[nH]c(=Cc2[n-]c(=O)[n-]c2[O-])cc1C(=O)N1CCN(c2cccc(C(F)(F)F)c2)CC1 (protonated)
C=c1[nH]/c(=C\c2[n-]c(=O)[n-]c2[O-])cc1C(=O)N1CCN(c2cccc(C(F)(F)F)c2)CC1 (cis-trans isomerization)
C=c1[nH]/c(=C\c2[n-]c(=O)[n-]c2[O-])cc1C(=O)N1CCN(c2cccc(C(F)(F)F)c2)CC1 (3D coordinates assigned)
C=c1[nH]/c(=C\c2[n-]c(=O)[n-]c2[O-])cc1C(=O)N1CCN(c2cccc(C(F)(F)F)c2)CC1 (nonaromatic ring conformer: 123.61293914338918 kcal/mol)

>  <smiles>  (2711) 
C=c1[nH]c(=Cc2[nH]c(=O)[nH]c2O)cc1C(=O)N1CCN(c2cccc(C(F)(F)F)c2)CC1

>  <score_type>  (2711) 
oracle

>  <origin>  (2711) 
adg

>  <m_score__min__energy>  (2711) 
-18.219999999999999

>  <m_primary>  (2711) 
energy

$$$$
13:0
     RDKit          3D

 25 27  0  0  0  0  0  0  0  0999 V2000
   55.8220   28.5840   45.1830 O   0  0  0  0  0  0  0  0  0  0  0  0
   57.0230   28.3380   45.4820 C   0  0  0  0  0  0  0  0  0  0  0  0
   57.6390   27.0380   45.0800 C   0  0  0  0  0  0  0  0  0  0  0  0
   57.1070   25.9240   45.9310 C   0  0  0  0  0  0  0  0  0  0  0  0
   57.8850   25.0200   46.5510 N   0  0  0  0  0  0  0  0  0  0  0  0
   56.9950   24.2080   47.1610 C   0  0  0  0  0  0  0  0  0  0  0  0
   57.3440   23.2210   47.8600 O   0  0  0  0  0  0  0  0  0  0  0  0
   55.7010   24.5360   46.9630 N   0  0  0  0  0  0  0  0  0  0  0  0
   55.7850   25.6220   46.1780 C   0  0  0  0  0  0  0  0  0  0  0  0
   54.6730   26.3080   45.6990 O   0  0  0  0  0  0  0  0  0  0  0  0
   57.7900   29.2870   46.2260 N   0  0  0  0  0  0  0  0  0  0  0  0
   59.0710   29.8050   45.7670 C   0  0  0  0  0  0  0  0  0  0  0  0
   59.5210   30.9650   46.6560 C   0  0  0  0  0  0  0  0  0  0  0  0
   59.0290   32.2950   46.1230 C   0  0  0  0  0  0  0  0  0  0  0  0
   57.8930   32.2960   45.2930 C   0  0  0  0  0  0  0  0  0  0  0  0
   57.4360   33.4780   44.7090 C   0  0  0  0  0  0  0  0  0  0  0  0
   58.1120   34.6760   44.9330 C   0  0  0  0  0  0  0  0  0  0  0  0
   59.2440   34.6970   45.7460 C   0  0  0  0  0  0  0  0  0  0  0  0
   59.7140   33.5190   46.3520 C   0  0  0  0  0  0  0  0  0  0  0  0
   60.9160   33.6110   47.2090 C   0  0  0  0  0  0  0  0  0  0  0  0
   60.7980   33.9150   48.5750 C   0  0  0  0  0  0  0  0  0  0  0  0
   61.9420   34.0380   49.3700 C   0  0  0  0  0  0  0  0  0  0  0  0
   63.2090   33.8780   48.8040 C   0  0  0  0  0  0  0  0  0  0  0  0
   63.3350   33.5980   47.4400 C   0  0  0  0  0  0  0  0  0  0  0  0
   62.1930   33.4700   46.6430 C   0  0  0  0  0  0  0  0  0  0  0  0
  1  2  2  0
  2  3  1  0
  3  4  1  0
  4  5  1  0
  5  6  1  0
  6  7  2  0
  6  8  1  0
  8  9  1  0
  9 10  1  0
  2 11  1  0
 11 12  1  0
 12 13  1  0
 13 14  1  0
 14 15  2  0
 15 16  1  0
 16 17  2  0
 17 18  1  0
 18 19  2  0
 19 20  1  0
 20 21  2  0
 21 22  1  0
 22 23  2  0
 23 24  1  0
 24 25  2  0
  9  4  2  0
 19 14  1  0
 25 20  1  0
M  CHG  3   5  -1   8  -1  11  -1
M  END
>  <UniqueID>  (2712) 
14

>  <SMILES>  (2712) 
O=C(Cc1[n-]c(=O)[n-]c1O)[N-]CCc1ccccc1-c1ccccc1

>  <Energy>  (2712) 
71.38736733414402

>  <Genealogy>  (2712) 
O=C(Cc1[n-]c(=O)[n-]c1O)[N-]CCc1ccccc1-c1ccccc1 (protonated)
O=C(Cc1[n-]c(=O)[n-]c1O)[N-]CCc1ccccc1-c1ccccc1 (3D coordinates assigned)
O=C(Cc1[n-]c(=O)[n-]c1O)[N-]CCc1ccccc1-c1ccccc1 (optimized conformer: 71.38736733414402 kcal/mol)

>  <smiles>  (2712) 
O=C(Cc1[nH]c(=O)[nH]c1O)NCCc1ccccc1-c1ccccc1

>  <score_type>  (2712) 
oracle

>  <origin>  (2712) 
adg

>  <m_score__min__energy>  (2712) 
-14.6

>  <m_primary>  (2712) 
energy

$$$$
20:0
     RDKit          3D

 28 30  0  0  0  0  0  0  0  0999 V2000
   56.4990   29.7620   51.6590 O   0  0  0  0  0  0  0  0  0  0  0  0
   55.8850   30.6150   52.3630 C   0  0  0  0  0  0  0  0  0  0  0  0
   54.5810   30.2540   52.9960 C   0  0  0  0  0  0  0  0  0  0  0  0
   53.4610   30.7830   52.1520 C   0  0  0  0  0  0  0  0  0  0  0  0
   53.1380   30.3370   50.8810 C   0  0  0  0  0  0  0  0  0  0  0  0
   51.9970   31.0190   50.5130 C   0  0  0  0  0  0  0  0  0  0  0  0
   51.6910   31.8350   51.5800 C   0  0  0  0  0  0  0  0  0  0  0  0
   50.6000   32.6980   51.6330 O   0  0  0  0  0  0  0  0  0  0  0  0
   52.5710   31.6990   52.5910 N   0  0  0  0  0  0  0  0  0  0  0  0
   56.3680   31.9570   52.4620 N   0  0  0  0  0  0  0  0  0  0  0  0
   57.7640   32.2800   52.7350 C   0  0  0  0  0  0  0  0  0  0  0  0
   58.4600   32.6040   51.4380 C   0  0  0  0  0  0  0  0  0  0  0  0
   59.1310   33.8260   51.2840 C   0  0  0  0  0  0  0  0  0  0  0  0
   59.7140   34.1600   50.0600 C   0  0  0  0  0  0  0  0  0  0  0  0
   59.6040   33.2990   48.9650 C   0  0  0  0  0  0  0  0  0  0  0  0
   58.9080   32.0890   49.0950 C   0  0  0  0  0  0  0  0  0  0  0  0
   58.7480   31.1650   47.9220 C   0  0  0  0  0  0  0  0  0  0  0  0
   59.3960   31.7540   46.7520 N   0  0  0  0  0  0  0  0  0  0  0  0
   58.2460   32.6990   45.8570 S   0  0  0  0  0  0  0  0  0  0  0  0
   58.9500   33.8560   45.2060 O   0  0  0  0  0  0  0  0  0  0  0  0
   57.1940   33.2290   46.7940 O   0  0  0  0  0  0  0  0  0  0  0  0
   57.4840   31.7140   44.6160 C   0  0  0  0  0  0  0  0  0  0  0  0
   57.6530   32.0250   43.2600 C   0  0  0  0  0  0  0  0  0  0  0  0
   57.0710   31.2030   42.2920 C   0  0  0  0  0  0  0  0  0  0  0  0
   56.3280   30.0890   42.6840 C   0  0  0  0  0  0  0  0  0  0  0  0
   56.1900   29.8030   44.0460 C   0  0  0  0  0  0  0  0  0  0  0  0
   56.7690   30.6130   44.9730 N   0  0  0  0  0  0  0  0  0  0  0  0
   58.3490   31.7390   50.3390 C   0  0  0  0  0  0  0  0  0  0  0  0
  1  2  2  0
  2  3  1  0
  3  4  1  0
  4  5  2  0
  5  6  1  0
  6  7  2  0
  7  8  1  0
  7  9  1  0
  2 10  1  0
 10 11  1  0
 11 12  1  0
 12 13  2  0
 13 14  1  0
 14 15  2  0
 15 16  1  0
 16 17  1  0
 17 18  1  0
 18 19  1  0
 19 20  2  0
 19 21  2  0
 19 22  1  0
 22 23  2  0
 23 24  1  0
 24 25  2  0
 25 26  1  0
 26 27  2  0
 16 28  2  0
  9  4  1  0
 28 12  1  0
 27 22  1  0
M  CHG  4   8  -1   9  -1  10  -1  18  -1
M  END
>  <UniqueID>  (2713) 
20

>  <SMILES>  (2713) 
O=C(Cc1ccc([O-])[n-]1)[N-]Cc1cccc(C[N-]S(=O)(=O)c2ccccn2)c1

>  <Energy>  (2713) 
63.284524848084864

>  <Genealogy>  (2713) 
O=C(Cc1ccc([O-])[n-]1)[N-]Cc1cccc(C[N-]S(=O)(=O)c2ccccn2)c1 (protonated)
O=C(Cc1ccc([O-])[n-]1)[N-]Cc1cccc(C[N-]S(=O)(=O)c2ccccn2)c1 (3D coordinates assigned)
O=C(Cc1ccc([O-])[n-]1)[N-]Cc1cccc(C[N-]S(=O)(=O)c2ccccn2)c1 (optimized conformer: 63.284524848084864 kcal/mol)

>  <smiles>  (2713) 
O=C(Cc1ccc(O)[nH]1)NCc1cccc(CNS(=O)(=O)c2ccccn2)c1

>  <score_type>  (2713) 
oracle

>  <origin>  (2713) 
adg

>  <m_score__min__energy>  (2713) 
-17.260000000000002

>  <m_primary>  (2713) 
energy

$$$$
22:0
     RDKit          3D

 25 27  0  0  0  0  0  0  0  0999 V2000
   55.4780   30.2380   43.6640 O   0  0  0  0  0  0  0  0  0  0  0  0
   56.3350   29.6420   44.3710 C   0  0  0  0  0  0  0  0  0  0  0  0
   57.7820   30.0580   44.2760 C   0  0  0  0  0  0  0  0  0  0  0  0
   57.9390   31.4810   44.5700 N   0  0  0  0  0  0  0  0  0  0  0  0
   57.8930   32.5600   43.5900 C   0  0  0  0  0  0  0  0  0  0  0  0
   58.1560   33.8640   44.3870 C   0  0  0  0  0  0  0  0  0  0  0  0
   58.3820   33.4450   45.7670 N   0  0  0  0  0  0  0  0  0  0  0  0
   58.6740   34.3350   46.8870 C   0  0  0  0  0  0  0  0  0  0  0  0
   60.0570   34.0680   47.4120 C   0  0  0  0  0  0  0  0  0  0  0  0
   60.2930   33.9850   48.7950 C   0  0  0  0  0  0  0  0  0  0  0  0
   61.5760   33.7030   49.2750 C   0  0  0  0  0  0  0  0  0  0  0  0
   62.6300   33.4950   48.3790 C   0  0  0  0  0  0  0  0  0  0  0  0
   64.2380   33.1390   48.9830 Cl  0  0  0  0  0  0  0  0  0  0  0  0
   62.4000   33.5680   47.0010 C   0  0  0  0  0  0  0  0  0  0  0  0
   61.1180   33.8490   46.5180 C   0  0  0  0  0  0  0  0  0  0  0  0
   58.2380   32.0420   45.8290 C   0  0  0  0  0  0  0  0  0  0  0  0
   58.3590   31.3690   46.8880 O   0  0  0  0  0  0  0  0  0  0  0  0
   55.8860   28.5920   45.2450 N   0  0  0  0  0  0  0  0  0  0  0  0
   56.5500   27.5520   45.6630 C   0  0  0  0  0  0  0  0  0  0  0  0
   57.9130   27.5580   45.7310 N   0  0  0  0  0  0  0  0  0  0  0  0
   58.6210   26.4750   46.1470 C   0  0  0  0  0  0  0  0  0  0  0  0
   57.9560   25.3050   46.5150 C   0  0  0  0  0  0  0  0  0  0  0  0
   56.5630   25.2630   46.4470 C   0  0  0  0  0  0  0  0  0  0  0  0
   55.8530   26.3860   46.0180 C   0  0  0  0  0  0  0  0  0  0  0  0
   54.4640   26.3400   45.9470 O   0  0  0  0  0  0  0  0  0  0  0  0
  1  2  2  0
  2  3  1  0
  3  4  1  0
  4  5  1  0
  5  6  1  0
  6  7  1  0
  7  8  1  0
  8  9  1  0
  9 10  2  0
 10 11  1  0
 11 12  2  0
 12 13  1  0
 12 14  1  0
 14 15  2  0
  7 16  1  0
 16 17  2  0
  2 18  1  0
 18 19  2  3
 19 20  1  0
 20 21  1  0
 21 22  2  0
 22 23  1  0
 23 24  2  0
 24 25  1  0
 16  4  1  0
 24 19  1  0
 15  9  1  0
M  CHG  2  20  -1  25  -1
M  END
>  <UniqueID>  (2714) 
22

>  <SMILES>  (2714) 
O=C(CN1CCN(Cc2ccc(Cl)cc2)C1=O)N=c1[n-]cccc1[O-]

>  <Energy>  (2714) 
56.39305703480461

>  <Genealogy>  (2714) 
O=C(CN1CCN(Cc2ccc(Cl)cc2)C1=O)N=c1[n-]cccc1[O-] (protonated)
O=C(CN1CCN(Cc2ccc(Cl)cc2)C1=O)N=c1[n-]cccc1[O-] (3D coordinates assigned)
O=C(CN1CCN(Cc2ccc(Cl)cc2)C1=O)N=c1[n-]cccc1[O-] (nonaromatic ring conformer: 56.39305703480461 kcal/mol)

>  <smiles>  (2714) 
O=C(CN1CCN(Cc2ccc(Cl)cc2)C1=O)N=c1[nH]cccc1O

>  <score_type>  (2714) 
oracle

>  <origin>  (2714) 
adg

>  <m_score__min__energy>  (2714) 
-14.34

>  <m_primary>  (2714) 
energy

$$$$
25:0
     RDKit          3D

 32 34  0  0  0  0  0  0  0  0999 V2000
   57.2550   33.7800   45.6430 C   0  0  0  0  0  0  0  0  0  0  0  0
   58.5050   34.3410   44.9810 C   0  0  0  0  0  0  0  0  0  0  0  0
   59.5870   35.1000   46.1850 S   0  0  0  0  0  0  0  0  0  0  0  0
   60.0250   36.4380   45.6640 O   0  0  0  0  0  0  0  0  0  0  0  0
   58.8550   35.3020   47.4810 O   0  0  0  0  0  0  0  0  0  0  0  0
   60.9950   34.1200   46.4530 N   0  0  0  0  0  0  0  0  0  0  0  0
   61.0190   32.8680   47.1530 C   0  0  0  0  0  0  0  0  0  0  0  0
   61.3710   32.8660   48.5080 C   0  0  0  0  0  0  0  0  0  0  0  0
   61.4500   31.6660   49.2170 C   0  0  0  0  0  0  0  0  0  0  0  0
   61.1770   30.4540   48.5780 C   0  0  0  0  0  0  0  0  0  0  0  0
   60.7990   30.4390   47.2270 C   0  0  0  0  0  0  0  0  0  0  0  0
   60.5630   29.1340   46.5160 C   0  0  0  0  0  0  0  0  0  0  0  0
   59.1460   29.0680   46.0410 C   0  0  0  0  0  0  0  0  0  0  0  0
   58.5760   30.1460   45.4410 N   0  0  0  0  0  0  0  0  0  0  0  0
   57.2760   30.1240   45.0540 C   0  0  0  0  0  0  0  0  0  0  0  0
   56.7760   31.1350   44.4920 O   0  0  0  0  0  0  0  0  0  0  0  0
   56.4950   28.9860   45.2830 C   0  0  0  0  0  0  0  0  0  0  0  0
   55.1630   28.9650   44.8840 O   0  0  0  0  0  0  0  0  0  0  0  0
   57.0920   27.8800   45.9200 C   0  0  0  0  0  0  0  0  0  0  0  0
   56.3470   26.6420   46.2280 C   0  0  0  0  0  0  0  0  0  0  0  0
   55.1270   26.5290   45.9280 O   0  0  0  0  0  0  0  0  0  0  0  0
   57.0220   25.5660   46.8910 N   0  0  0  0  0  0  0  0  0  0  0  0
   56.4470   24.2390   47.0770 C   0  0  0  0  0  0  0  0  0  0  0  0
   56.5640   23.4350   45.8120 C   0  0  0  0  0  0  0  0  0  0  0  0
   55.7740   23.7420   44.6930 C   0  0  0  0  0  0  0  0  0  0  0  0
   55.9010   22.9980   43.5150 C   0  0  0  0  0  0  0  0  0  0  0  0
   56.8180   21.9450   43.4470 C   0  0  0  0  0  0  0  0  0  0  0  0
   56.9390   21.2240   42.3050 F   0  0  0  0  0  0  0  0  0  0  0  0
   57.6120   21.6370   44.5560 C   0  0  0  0  0  0  0  0  0  0  0  0
   57.4880   22.3800   45.7340 C   0  0  0  0  0  0  0  0  0  0  0  0
   58.4010   27.9560   46.2800 N   0  0  0  0  0  0  0  0  0  0  0  0
   60.7210   31.6490   46.5190 C   0  0  0  0  0  0  0  0  0  0  0  0
  1  2  1  0
  2  3  1  0
  3  4  2  0
  3  5  2  0
  3  6  1  0
  6  7  1  0
  7  8  2  0
  8  9  1  0
  9 10  2  0
 10 11  1  0
 11 12  1  0
 12 13  1  0
 13 14  2  0
 14 15  1  0
 15 16  2  0
 15 17  1  0
 17 18  1  0
 17 19  2  0
 19 20  1  0
 20 21  2  0
 20 22  1  0
 22 23  1  0
 23 24  1  0
 24 25  2  0
 25 26  1  0
 26 27  2  0
 27 28  1  0
 27 29  1  0
 29 30  2  0
 19 31  1  0
 11 32  2  0
 32  7  1  0
 31 13  1  0
 30 24  1  0
M  CHG  4   6  -1  18  -1  22  -1  31  -1
M  END
>  <UniqueID>  (2715) 
24

>  <SMILES>  (2715) 
CCS(=O)(=O)[N-]c1cccc(Cc2nc(=O)c([O-])c(C(=O)[N-]Cc3ccc(F)cc3)[n-]2)c1

>  <Energy>  (2715) 
43.532696420233016

>  <Genealogy>  (2715) 
CCS(=O)(=O)[N-]c1cccc(Cc2nc(=O)c([O-])c(C(=O)[N-]Cc3ccc(F)cc3)[n-]2)c1 (protonated)
CCS(=O)(=O)[N-]c1cccc(Cc2nc(=O)c([O-])c(C(=O)[N-]Cc3ccc(F)cc3)[n-]2)c1 (3D coordinates assigned)
CCS(=O)(=O)[N-]c1cccc(Cc2nc(=O)c([O-])c(C(=O)[N-]Cc3ccc(F)cc3)[n-]2)c1 (optimized conformer: 43.532696420233016 kcal/mol)

>  <smiles>  (2715) 
CCS(=O)(=O)Nc1cccc(Cc2nc(=O)c(O)c(C(=O)NCc3ccc(F)cc3)[nH]2)c1

>  <score_type>  (2715) 
oracle

>  <origin>  (2715) 
adg

>  <m_score__min__energy>  (2715) 
-16.48

>  <m_primary>  (2715) 
energy

$$$$
30:0
     RDKit          3D

 25 27  0  0  0  0  0  0  0  0999 V2000
   55.7000   28.6380   44.9830 O   0  0  0  0  0  0  0  0  0  0  0  0
   56.8400   28.4590   45.4850 C   0  0  0  0  0  0  0  0  0  0  0  0
   57.5750   27.1790   45.1820 C   0  0  0  0  0  0  0  0  0  0  0  0
   57.1020   26.0320   46.0280 C   0  0  0  0  0  0  0  0  0  0  0  0
   57.9090   25.1570   46.6590 N   0  0  0  0  0  0  0  0  0  0  0  0
   57.0440   24.2860   47.2230 C   0  0  0  0  0  0  0  0  0  0  0  0
   57.4230   23.3110   47.9230 O   0  0  0  0  0  0  0  0  0  0  0  0
   55.7410   24.5390   46.9740 N   0  0  0  0  0  0  0  0  0  0  0  0
   55.7970   25.6410   46.2070 C   0  0  0  0  0  0  0  0  0  0  0  0
   54.6810   26.2690   45.6660 O   0  0  0  0  0  0  0  0  0  0  0  0
   57.4120   29.5050   46.2830 N   0  0  0  0  0  0  0  0  0  0  0  0
   57.8300   30.7970   45.8250 C   0  0  0  0  0  0  0  0  0  0  0  0
   57.3900   31.2440   44.5750 C   0  0  0  0  0  0  0  0  0  0  0  0
   57.7210   32.5230   44.1260 C   0  0  0  0  0  0  0  0  0  0  0  0
   58.4730   33.3780   44.9350 C   0  0  0  0  0  0  0  0  0  0  0  0
   58.7760   34.6220   44.4820 F   0  0  0  0  0  0  0  0  0  0  0  0
   58.9110   32.9510   46.2010 C   0  0  0  0  0  0  0  0  0  0  0  0
   59.6390   33.8840   47.0860 C   0  0  0  0  0  0  0  0  0  0  0  0
   59.1030   34.9880   47.3790 O   0  0  0  0  0  0  0  0  0  0  0  0
   60.9450   33.5740   47.6030 N   0  0  0  0  0  0  0  0  0  0  0  0
   61.6130   34.3980   48.5950 C   0  0  0  0  0  0  0  0  0  0  0  0
   62.9780   33.7610   48.8060 C   0  0  0  0  0  0  0  0  0  0  0  0
   63.2080   32.8690   47.5890 C   0  0  0  0  0  0  0  0  0  0  0  0
   61.8240   32.5650   47.0360 C   0  0  0  0  0  0  0  0  0  0  0  0
   58.5810   31.6580   46.6440 C   0  0  0  0  0  0  0  0  0  0  0  0
  1  2  2  0
  2  3  1  0
  3  4  1  0
  4  5  1  0
  5  6  1  0
  6  7  2  0
  6  8  1  0
  8  9  1  0
  9 10  1  0
  2 11  1  0
 11 12  1  0
 12 13  2  0
 13 14  1  0
 14 15  2  0
 15 16  1  0
 15 17  1  0
 17 18  1  0
 18 19  2  0
 18 20  1  0
 20 21  1  0
 21 22  1  0
 22 23  1  0
 23 24  1  0
 17 25  2  0
  9  4  2  0
 25 12  1  0
 24 20  1  0
M  CHG  3   5  -1   8  -1  11  -1
M  END
>  <UniqueID>  (2716) 
29

>  <SMILES>  (2716) 
O=C(Cc1[n-]c(=O)[n-]c1O)[N-]c1ccc(F)c(C(=O)N2CCCC2)c1

>  <Energy>  (2716) 
75.45779269455203

>  <Genealogy>  (2716) 
O=C(Cc1[n-]c(=O)[n-]c1O)[N-]c1ccc(F)c(C(=O)N2CCCC2)c1 (protonated)
O=C(Cc1[n-]c(=O)[n-]c1O)[N-]c1ccc(F)c(C(=O)N2CCCC2)c1 (3D coordinates assigned)
O=C(Cc1[n-]c(=O)[n-]c1O)[N-]c1ccc(F)c(C(=O)N2CCCC2)c1 (nonaromatic ring conformer: 75.45779269455203 kcal/mol)

>  <smiles>  (2716) 
O=C(Cc1[nH]c(=O)[nH]c1O)Nc1ccc(F)c(C(=O)N2CCCC2)c1

>  <score_type>  (2716) 
oracle

>  <origin>  (2716) 
adg

>  <m_score__min__energy>  (2716) 
-14.119999999999999

>  <m_primary>  (2716) 
energy

$$$$
40:0
     RDKit          3D

 26 28  0  0  0  0  0  0  0  0999 V2000
   58.0780   29.7990   50.6290 O   0  0  0  0  0  0  0  0  0  0  0  0
   58.1320   30.9010   51.2410 C   0  0  0  0  0  0  0  0  0  0  0  0
   59.3200   31.7930   51.0470 C   0  0  0  0  0  0  0  0  0  0  0  0
   59.2080   32.5960   49.7510 C   0  0  0  0  0  0  0  0  0  0  0  0
   58.8730   31.5000   48.3290 S   0  0  0  0  0  0  0  0  0  0  0  0
   58.8790   32.8430   47.1380 C   0  0  0  0  0  0  0  0  0  0  0  0
   59.6410   33.9910   47.3880 C   0  0  0  0  0  0  0  0  0  0  0  0
   59.6510   35.0410   46.4640 C   0  0  0  0  0  0  0  0  0  0  0  0
   58.8980   34.9470   45.2900 C   0  0  0  0  0  0  0  0  0  0  0  0
   58.1330   33.8050   45.0390 C   0  0  0  0  0  0  0  0  0  0  0  0
   58.1200   32.7520   45.9610 C   0  0  0  0  0  0  0  0  0  0  0  0
   57.3750   31.6470   45.7060 F   0  0  0  0  0  0  0  0  0  0  0  0
   57.0940   31.2990   52.1510 N   0  0  0  0  0  0  0  0  0  0  0  0
   55.9610   30.6890   52.3310 C   0  0  0  0  0  0  0  0  0  0  0  0
   54.8510   30.9040   51.5900 N   0  0  0  0  0  0  0  0  0  0  0  0
   53.8170   30.1220   52.0040 C   0  0  0  0  0  0  0  0  0  0  0  0
   52.4640   30.2110   51.3730 C   0  0  0  0  0  0  0  0  0  0  0  0
   51.6550   31.2720   52.0490 C   0  0  0  0  0  0  0  0  0  0  0  0
   51.3690   31.2830   53.3630 N   0  0  0  0  0  0  0  0  0  0  0  0
   50.5760   32.3670   53.5000 C   0  0  0  0  0  0  0  0  0  0  0  0
   50.0980   32.7220   54.6090 O   0  0  0  0  0  0  0  0  0  0  0  0
   50.3290   33.0380   52.3540 N   0  0  0  0  0  0  0  0  0  0  0  0
   51.0140   32.3270   51.4450 C   0  0  0  0  0  0  0  0  0  0  0  0
   51.0490   32.6330   50.0900 O   0  0  0  0  0  0  0  0  0  0  0  0
   54.1000   29.2930   53.0890 C   0  0  0  0  0  0  0  0  0  0  0  0
   55.7070   29.5400   53.5270 S   0  0  0  0  0  0  0  0  0  0  0  0
  1  2  2  0
  2  3  1  0
  3  4  1  0
  4  5  1  0
  5  6  1  0
  6  7  2  0
  7  8  1  0
  8  9  2  0
  9 10  1  0
 10 11  2  0
 11 12  1  0
  2 13  1  0
 13 14  2  3
 14 15  1  0
 15 16  1  0
 16 17  1  0
 17 18  1  0
 18 19  1  0
 19 20  1  0
 20 21  2  0
 20 22  1  0
 22 23  1  0
 23 24  1  0
 16 25  2  0
 25 26  1  0
 11  6  1  0
 26 14  1  0
 23 18  2  0
M  CHG  4  15  -1  19  -1  22  -1  24  -1
M  END
>  <UniqueID>  (2717) 
39

>  <SMILES>  (2717) 
O=C(CCSc1ccccc1F)N=c1[n-]c(Cc2[n-]c(=O)[n-]c2[O-])cs1

>  <Energy>  (2717) 
91.11222959373463

>  <Genealogy>  (2717) 
O=C(CCSc1ccccc1F)N=c1[n-]c(Cc2[n-]c(=O)[n-]c2[O-])cs1 (protonated)
O=C(CCSc1ccccc1F)N=c1[n-]c(Cc2[n-]c(=O)[n-]c2[O-])cs1 (3D coordinates assigned)
O=C(CCSc1ccccc1F)N=c1[n-]c(Cc2[n-]c(=O)[n-]c2[O-])cs1 (optimized conformer: 91.11222959373463 kcal/mol)

>  <smiles>  (2717) 
O=C(CCSc1ccccc1F)N=c1[nH]c(Cc2[nH]c(=O)[nH]c2O)cs1

>  <score_type>  (2717) 
oracle

>  <origin>  (2717) 
adg

>  <m_score__min__energy>  (2717) 
-18.690000000000001

>  <m_primary>  (2717) 
energy

$$$$
41:0
     RDKit          3D

 34 37  0  0  0  0  0  0  0  0999 V2000
   58.5530   28.4930   47.7620 C   0  0  0  0  0  0  0  0  0  0  0  0
   58.1250   29.0550   46.6260 C   0  0  0  0  0  0  0  0  0  0  0  0
   58.0110   30.3920   46.4900 N   0  0  0  0  0  0  0  0  0  0  0  0
   57.7150   30.6340   45.1990 C   0  0  0  0  0  0  0  0  0  0  0  0
   57.4510   32.0060   44.6440 C   0  0  0  0  0  0  0  0  0  0  0  0
   58.4620   33.0090   45.1430 C   0  0  0  0  0  0  0  0  0  0  0  0
   58.2960   34.3780   44.8750 C   0  0  0  0  0  0  0  0  0  0  0  0
   59.2260   35.3070   45.3490 C   0  0  0  0  0  0  0  0  0  0  0  0
   60.3180   34.8840   46.1100 C   0  0  0  0  0  0  0  0  0  0  0  0
   60.4900   33.5220   46.3990 C   0  0  0  0  0  0  0  0  0  0  0  0
   61.6060   33.0810   47.2610 C   0  0  0  0  0  0  0  0  0  0  0  0
   62.7830   33.3990   46.9390 O   0  0  0  0  0  0  0  0  0  0  0  0
   61.3680   32.3410   48.4790 N   0  0  0  0  0  0  0  0  0  0  0  0
   60.1280   32.5640   49.2440 C   0  0  0  0  0  0  0  0  0  0  0  0
   60.2240   32.0070   50.6720 C   0  0  0  0  0  0  0  0  0  0  0  0
   61.5360   32.3170   51.2580 N   0  0  0  0  0  0  0  0  0  0  0  0
   61.6430   32.7390   52.6300 C   0  0  0  0  0  0  0  0  0  0  0  0
   62.7740   33.0200   53.1150 O   0  0  0  0  0  0  0  0  0  0  0  0
   60.4960   32.8260   53.4310 O   0  0  0  0  0  0  0  0  0  0  0  0
   59.7690   34.0350   53.6390 C   0  0  0  0  0  0  0  0  0  0  0  0
   58.5670   34.1090   52.7050 C   0  0  0  0  0  0  0  0  0  0  0  0
   62.7620   32.0860   50.4760 C   0  0  0  0  0  0  0  0  0  0  0  0
   62.4420   31.5420   49.0820 C   0  0  0  0  0  0  0  0  0  0  0  0
   59.5890   32.5860   45.8700 C   0  0  0  0  0  0  0  0  0  0  0  0
   57.6440   29.4520   44.4880 C   0  0  0  0  0  0  0  0  0  0  0  0
   57.8510   28.4290   45.4000 C   0  0  0  0  0  0  0  0  0  0  0  0
   57.7440   27.1260   45.0770 C   0  0  0  0  0  0  0  0  0  0  0  0
   57.2090   26.0680   45.9460 C   0  0  0  0  0  0  0  0  0  0  0  0
   57.9340   25.0170   46.3660 N   0  0  0  0  0  0  0  0  0  0  0  0
   57.0260   24.2450   47.0030 C   0  0  0  0  0  0  0  0  0  0  0  0
   57.3320   23.1580   47.5590 O   0  0  0  0  0  0  0  0  0  0  0  0
   55.7640   24.7230   46.9870 N   0  0  0  0  0  0  0  0  0  0  0  0
   55.8930   25.8700   46.3020 C   0  0  0  0  0  0  0  0  0  0  0  0
   54.8270   26.7020   45.9850 O   0  0  0  0  0  0  0  0  0  0  0  0
  1  2  2  0
  2  3  1  0
  3  4  1  0
  4  5  1  0
  5  6  1  0
  6  7  2  0
  7  8  1  0
  8  9  2  0
  9 10  1  0
 10 11  1  0
 11 12  2  0
 11 13  1  0
 13 14  1  0
 14 15  1  0
 15 16  1  0
 16 17  1  0
 17 18  2  0
 17 19  1  0
 19 20  1  0
 20 21  1  0
 16 22  1  0
 22 23  1  0
 10 24  2  0
  4 25  2  0
 25 26  1  0
 26 27  2  3
 27 28  1  0
 28 29  1  0
 29 30  1  0
 30 31  2  0
 30 32  1  0
 32 33  1  0
 33 34  1  0
 26  2  1  0
 33 28  2  0
 24  6  1  0
 23 13  1  0
M  CHG  3  29  -1  32  -1  34  -1
M  END
>  <UniqueID>  (2718) 
40

>  <SMILES>  (2718) 
C=c1[nH]c(Cc2cccc(C(=O)N3CCN(C(=O)OCC)CC3)c2)cc1=Cc1[n-]c(=O)[n-]c1[O-]

>  <Energy>  (2718) 
127.3864480940765

>  <Genealogy>  (2718) 
C=c1[nH]c(Cc2cccc(C(=O)N3CCN(C(=O)OCC)CC3)c2)cc1=Cc1[n-]c(=O)[n-]c1[O-] (protonated)
C=c1[nH]c(Cc2cccc(C(=O)N3CCN(C(=O)OCC)CC3)c2)cc1=Cc1[n-]c(=O)[n-]c1[O-] (3D coordinates assigned)
C=c1[nH]c(Cc2cccc(C(=O)N3CCN(C(=O)OCC)CC3)c2)cc1=Cc1[n-]c(=O)[n-]c1[O-] (nonaromatic ring conformer: 127.3864480940765 kcal/mol)

>  <smiles>  (2718) 
C=c1[nH]c(Cc2cccc(C(=O)N3CCN(C(=O)OCC)CC3)c2)cc1=Cc1[nH]c(=O)[nH]c1O

>  <score_type>  (2718) 
oracle

>  <origin>  (2718) 
adg

>  <m_score__min__energy>  (2718) 
-18.390000000000001

>  <m_primary>  (2718) 
energy

$$$$
62:0
     RDKit          3D

 30 33  0  0  0  0  0  0  0  0999 V2000
   56.2720   29.5190   42.7850 C   0  0  0  0  0  0  0  0  0  0  0  0
   56.9180   29.4070   43.9480 C   0  0  0  0  0  0  0  0  0  0  0  0
   57.7100   30.3750   44.5620 C   0  0  0  0  0  0  0  0  0  0  0  0
   58.1220   31.6990   44.0480 C   0  0  0  0  0  0  0  0  0  0  0  0
   58.5260   31.8090   42.8590 O   0  0  0  0  0  0  0  0  0  0  0  0
   58.1400   32.8510   44.9080 N   0  0  0  0  0  0  0  0  0  0  0  0
   56.9770   33.2000   45.7260 C   0  0  0  0  0  0  0  0  0  0  0  0
   57.4380   33.6060   47.1290 C   0  0  0  0  0  0  0  0  0  0  0  0
   58.5690   34.5670   47.1210 N   0  0  0  0  0  0  0  0  0  0  0  0
   59.5800   34.3500   48.1810 C   0  0  0  0  0  0  0  0  0  0  0  0
   60.5720   33.2530   47.8580 C   0  0  0  0  0  0  0  0  0  0  0  0
   61.8790   33.5770   47.4510 C   0  0  0  0  0  0  0  0  0  0  0  0
   62.7870   32.5690   47.1200 C   0  0  0  0  0  0  0  0  0  0  0  0
   62.4070   31.2270   47.2030 C   0  0  0  0  0  0  0  0  0  0  0  0
   61.1210   30.8910   47.6360 C   0  0  0  0  0  0  0  0  0  0  0  0
   60.6460   29.2060   47.7540 Cl  0  0  0  0  0  0  0  0  0  0  0  0
   60.2120   31.8990   47.9770 C   0  0  0  0  0  0  0  0  0  0  0  0
   59.0990   34.9650   45.7980 C   0  0  0  0  0  0  0  0  0  0  0  0
   59.2780   33.7710   44.8430 C   0  0  0  0  0  0  0  0  0  0  0  0
   58.1280   29.8270   45.7630 C   0  0  0  0  0  0  0  0  0  0  0  0
   57.5880   28.5550   45.8240 C   0  0  0  0  0  0  0  0  0  0  0  0
   57.7590   27.7140   46.8550 C   0  0  0  0  0  0  0  0  0  0  0  0
   57.2240   26.3430   46.9000 C   0  0  0  0  0  0  0  0  0  0  0  0
   57.9660   25.2720   47.2330 N   0  0  0  0  0  0  0  0  0  0  0  0
   57.1180   24.2360   47.0560 C   0  0  0  0  0  0  0  0  0  0  0  0
   57.4500   23.0430   47.2840 O   0  0  0  0  0  0  0  0  0  0  0  0
   55.8920   24.5770   46.6060 N   0  0  0  0  0  0  0  0  0  0  0  0
   55.9780   25.9120   46.4980 C   0  0  0  0  0  0  0  0  0  0  0  0
   54.9560   26.7100   46.0000 O   0  0  0  0  0  0  0  0  0  0  0  0
   56.8460   28.3060   44.7250 N   0  0  0  0  0  0  0  0  0  0  0  0
  1  2  2  0
  2  3  1  0
  3  4  1  0
  4  5  2  0
  4  6  1  0
  6  7  1  0
  7  8  1  0
  8  9  1  0
  9 10  1  0
 10 11  1  0
 11 12  2  0
 12 13  1  0
 13 14  2  0
 14 15  1  0
 15 16  1  0
 15 17  2  0
  9 18  1  0
 18 19  1  0
  3 20  2  0
 20 21  1  0
 21 22  2  0
 22 23  1  0
 23 24  1  0
 24 25  1  0
 25 26  2  0
 25 27  1  0
 27 28  1  0
 28 29  1  0
 21 30  1  0
 30  2  1  0
 19  6  1  0
 28 23  2  0
 17 11  1  0
M  CHG  3  24  -1  27  -1  29  -1
M  END
>  <UniqueID>  (2719) 
60

>  <SMILES>  (2719) 
C=c1[nH]/c(=C\c2[n-]c(=O)[n-]c2[O-])cc1C(=O)N1CCN(Cc2cccc(Cl)c2)CC1

>  <Energy>  (2719) 
127.35803728829207

>  <Genealogy>  (2719) 
C=c1[nH]c(=Cc2[n-]c(=O)[n-]c2[O-])cc1C(=O)N1CCN(Cc2cccc(Cl)c2)CC1 (protonated)
C=c1[nH]/c(=C\c2[n-]c(=O)[n-]c2[O-])cc1C(=O)N1CCN(Cc2cccc(Cl)c2)CC1 (cis-trans isomerization)
C=c1[nH]/c(=C\c2[n-]c(=O)[n-]c2[O-])cc1C(=O)N1CCN(Cc2cccc(Cl)c2)CC1 (3D coordinates assigned)
C=c1[nH]/c(=C\c2[n-]c(=O)[n-]c2[O-])cc1C(=O)N1CCN(Cc2cccc(Cl)c2)CC1 (nonaromatic ring conformer: 127.35803728829207 kcal/mol)

>  <smiles>  (2719) 
C=c1[nH]c(=Cc2[nH]c(=O)[nH]c2O)cc1C(=O)N1CCN(Cc2cccc(Cl)c2)CC1

>  <score_type>  (2719) 
oracle

>  <origin>  (2719) 
adg

>  <m_score__min__energy>  (2719) 
-18.420000000000002

>  <m_primary>  (2719) 
energy

$$$$
73:0
     RDKit          3D

 26 28  0  0  0  0  0  0  0  0999 V2000
   57.1490   31.6520   42.8320 C   0  0  0  0  0  0  0  0  0  0  0  0
   57.6250   30.9090   43.8320 C   0  0  0  0  0  0  0  0  0  0  0  0
   57.8180   29.5770   43.7400 N   0  0  0  0  0  0  0  0  0  0  0  0
   58.3000   29.1640   44.9330 C   0  0  0  0  0  0  0  0  0  0  0  0
   58.5740   27.8850   45.2440 C   0  0  0  0  0  0  0  0  0  0  0  0
   57.5390   26.8900   45.6030 C   0  0  0  0  0  0  0  0  0  0  0  0
   56.1870   27.2630   45.6290 C   0  0  0  0  0  0  0  0  0  0  0  0
   55.8010   28.5540   45.2820 O   0  0  0  0  0  0  0  0  0  0  0  0
   55.2400   26.3580   45.9850 N   0  0  0  0  0  0  0  0  0  0  0  0
   55.5770   25.0900   46.3350 C   0  0  0  0  0  0  0  0  0  0  0  0
   54.6810   24.2670   46.6560 O   0  0  0  0  0  0  0  0  0  0  0  0
   56.8810   24.7120   46.3450 N   0  0  0  0  0  0  0  0  0  0  0  0
   57.8670   25.5800   45.9980 C   0  0  0  0  0  0  0  0  0  0  0  0
   59.0670   25.2030   46.0530 O   0  0  0  0  0  0  0  0  0  0  0  0
   58.4000   30.2460   45.8050 C   0  0  0  0  0  0  0  0  0  0  0  0
   58.8920   30.2230   47.1970 C   0  0  0  0  0  0  0  0  0  0  0  0
   58.1480   29.7460   48.0960 O   0  0  0  0  0  0  0  0  0  0  0  0
   60.1890   30.7480   47.5370 N   0  0  0  0  0  0  0  0  0  0  0  0
   60.9170   30.2350   48.7060 C   0  0  0  0  0  0  0  0  0  0  0  0
   61.3140   31.4050   49.6080 C   0  0  0  0  0  0  0  0  0  0  0  0
   62.1450   32.4820   48.8570 C   0  0  0  0  0  0  0  0  0  0  0  0
   61.7090   33.8940   49.2700 C   0  0  0  0  0  0  0  0  0  0  0  0
   62.1090   32.3190   47.3170 C   0  0  0  0  0  0  0  0  0  0  0  0
   60.7220   31.9080   46.8020 C   0  0  0  0  0  0  0  0  0  0  0  0
   57.9850   31.3650   45.0930 C   0  0  0  0  0  0  0  0  0  0  0  0
   57.9550   32.7870   45.5750 C   0  0  0  0  0  0  0  0  0  0  0  0
  1  2  2  0
  2  3  1  0
  3  4  1  0
  4  5  2  3
  5  6  1  0
  6  7  2  0
  7  8  1  0
  7  9  1  0
  9 10  1  0
 10 11  2  0
 10 12  1  0
 12 13  1  0
 13 14  2  0
  4 15  1  0
 15 16  1  0
 16 17  2  0
 16 18  1  0
 18 19  1  0
 19 20  1  0
 20 21  1  0
 21 22  1  0
 21 23  1  0
 23 24  1  0
 15 25  2  0
 25 26  1  0
 25  2  1  0
 13  6  1  0
 24 18  1  0
M  CHG  3   8  -1   9  -1  12  -1
M  END
>  <UniqueID>  (2720) 
71

>  <SMILES>  (2720) 
C=c1[nH]c(=Cc2c([O-])[n-]c(=O)[n-]c2=O)c(C(=O)N2CCC(C)CC2)c1C

>  <Energy>  (2720) 
88.38009980095516

>  <Genealogy>  (2720) 
C=c1[nH]c(=Cc2c([O-])[n-]c(=O)[n-]c2=O)c(C(=O)N2CCC(C)CC2)c1C (protonated)
C=c1[nH]c(=Cc2c([O-])[n-]c(=O)[n-]c2=O)c(C(=O)N2CCC(C)CC2)c1C (3D coordinates assigned)
C=c1[nH]c(=Cc2c([O-])[n-]c(=O)[n-]c2=O)c(C(=O)N2CCC(C)CC2)c1C (nonaromatic ring conformer: 88.38009980095516 kcal/mol)

>  <smiles>  (2720) 
C=c1[nH]c(=Cc2c(O)[nH]c(=O)[nH]c2=O)c(C(=O)N2CCC(C)CC2)c1C

>  <score_type>  (2720) 
oracle

>  <origin>  (2720) 
adg

>  <m_score__min__energy>  (2720) 
-15.4

>  <m_primary>  (2720) 
energy

$$$$
97:0
     RDKit          3D

 25 27  0  0  0  0  0  0  0  0999 V2000
   53.1550   31.2300   52.2760 C   0  0  0  0  0  0  0  0  0  0  0  0
   53.9390   30.2180   52.4610 N   0  0  0  0  0  0  0  0  0  0  0  0
   55.0910   30.0820   51.7200 O   0  0  0  0  0  0  0  0  0  0  0  0
   56.3460   30.1130   52.3290 C   0  0  0  0  0  0  0  0  0  0  0  0
   56.4460   30.4130   53.5490 O   0  0  0  0  0  0  0  0  0  0  0  0
   57.5350   29.8080   51.5880 N   0  0  0  0  0  0  0  0  0  0  0  0
   58.0940   30.5730   50.6990 C   0  0  0  0  0  0  0  0  0  0  0  0
   58.6300   30.1280   49.5380 N   0  0  0  0  0  0  0  0  0  0  0  0
   59.1470   31.1490   48.8060 C   0  0  0  0  0  0  0  0  0  0  0  0
   59.0110   32.4070   49.3830 C   0  0  0  0  0  0  0  0  0  0  0  0
   59.5540   33.6870   48.8330 C   0  0  0  0  0  0  0  0  0  0  0  0
   59.0430   33.9050   47.4340 C   0  0  0  0  0  0  0  0  0  0  0  0
   57.7630   33.4550   47.0690 C   0  0  0  0  0  0  0  0  0  0  0  0
   57.2750   33.6890   45.7800 C   0  0  0  0  0  0  0  0  0  0  0  0
   58.0570   34.3810   44.8510 C   0  0  0  0  0  0  0  0  0  0  0  0
   59.3270   34.8420   45.2110 C   0  0  0  0  0  0  0  0  0  0  0  0
   59.8170   34.6100   46.4990 C   0  0  0  0  0  0  0  0  0  0  0  0
   58.2410   32.2380   50.8710 S   0  0  0  0  0  0  0  0  0  0  0  0
   52.2760   31.2790   51.1030 C   0  0  0  0  0  0  0  0  0  0  0  0
   52.2740   30.3710   50.1110 N   0  0  0  0  0  0  0  0  0  0  0  0
   51.3170   30.8290   49.2740 C   0  0  0  0  0  0  0  0  0  0  0  0
   51.0110   30.2380   48.2060 O   0  0  0  0  0  0  0  0  0  0  0  0
   50.7120   31.9690   49.6730 N   0  0  0  0  0  0  0  0  0  0  0  0
   51.3320   32.2400   50.8320 C   0  0  0  0  0  0  0  0  0  0  0  0
   51.0410   33.3420   51.6270 O   0  0  0  0  0  0  0  0  0  0  0  0
  1  2  2  0
  2  3  1  0
  3  4  1  0
  4  5  2  0
  4  6  1  0
  6  7  2  3
  7  8  1  0
  8  9  1  0
  9 10  2  0
 10 11  1  0
 11 12  1  0
 12 13  2  0
 13 14  1  0
 14 15  2  0
 15 16  1  0
 16 17  2  0
 10 18  1  0
  1 19  1  0
 19 20  1  0
 20 21  1  0
 21 22  2  0
 21 23  1  0
 23 24  1  0
 24 25  1  0
 18  7  1  0
 24 19  2  0
 17 12  1  0
M  CHG  4   8  -1  20  -1  23  -1  25  -1
M  END
>  <UniqueID>  (2721) 
95

>  <SMILES>  (2721) 
O=C(N=c1[n-]cc(Cc2ccccc2)s1)O/N=C/c1[n-]c(=O)[n-]c1[O-]

>  <Energy>  (2721) 
91.38467254465593

>  <Genealogy>  (2721) 
O=C(N=c1[n-]cc(Cc2ccccc2)s1)ON=Cc1[n-]c(=O)[n-]c1[O-] (protonated)
O=C(N=c1[n-]cc(Cc2ccccc2)s1)O/N=C/c1[n-]c(=O)[n-]c1[O-] (cis-trans isomerization)
O=C(N=c1[n-]cc(Cc2ccccc2)s1)O/N=C/c1[n-]c(=O)[n-]c1[O-] (3D coordinates assigned)
O=C(N=c1[n-]cc(Cc2ccccc2)s1)O/N=C/c1[n-]c(=O)[n-]c1[O-] (optimized conformer: 91.38467254465593 kcal/mol)

>  <smiles>  (2721) 
O=C(N=c1[nH]cc(Cc2ccccc2)s1)ON=Cc1[nH]c(=O)[nH]c1O

>  <score_type>  (2721) 
oracle

>  <origin>  (2721) 
adg

>  <m_score__min__energy>  (2721) 
-18.84

>  <m_primary>  (2721) 
energy

$$$$
5:0
     RDKit          3D

 30 32  0  0  0  0  0  0  0  0999 V2000
   54.2320   28.3810   53.7160 C   0  0  0  0  0  0  0  0  0  0  0  0
   54.6420   29.5440   53.1860 C   0  0  0  0  0  0  0  0  0  0  0  0
   53.8660   30.4520   52.4430 C   0  0  0  0  0  0  0  0  0  0  0  0
   52.5400   30.5020   52.2070 C   0  0  0  0  0  0  0  0  0  0  0  0
   51.9060   30.8940   50.9370 C   0  0  0  0  0  0  0  0  0  0  0  0
   51.7850   30.0950   49.8620 N   0  0  0  0  0  0  0  0  0  0  0  0
   51.0320   30.8280   49.0130 C   0  0  0  0  0  0  0  0  0  0  0  0
   50.7090   30.4180   47.8670 O   0  0  0  0  0  0  0  0  0  0  0  0
   50.6400   32.0270   49.4930 N   0  0  0  0  0  0  0  0  0  0  0  0
   51.1900   32.0450   50.7180 C   0  0  0  0  0  0  0  0  0  0  0  0
   51.0330   33.0900   51.6200 O   0  0  0  0  0  0  0  0  0  0  0  0
   54.7420   31.4080   51.9620 C   0  0  0  0  0  0  0  0  0  0  0  0
   55.9870   31.0970   52.4620 C   0  0  0  0  0  0  0  0  0  0  0  0
   57.2100   31.8530   52.1390 C   0  0  0  0  0  0  0  0  0  0  0  0
   57.2310   33.0910   52.3790 O   0  0  0  0  0  0  0  0  0  0  0  0
   58.3420   31.2160   51.5070 N   0  0  0  0  0  0  0  0  0  0  0  0
   58.1440   29.9520   50.7840 C   0  0  0  0  0  0  0  0  0  0  0  0
   59.4370   29.4880   50.1020 C   0  0  0  0  0  0  0  0  0  0  0  0
   60.6090   29.6720   50.9790 N   0  0  0  0  0  0  0  0  0  0  0  0
   60.5590   28.7940   52.1620 C   0  0  0  0  0  0  0  0  0  0  0  0
   60.8340   31.0890   51.3530 C   0  0  0  0  0  0  0  0  0  0  0  0
   59.5750   31.9820   51.2820 C   0  0  0  0  0  0  0  0  0  0  0  0
   55.9340   29.9720   53.2110 N   0  0  0  0  0  0  0  0  0  0  0  0
   57.0430   29.3980   53.9270 C   0  0  0  0  0  0  0  0  0  0  0  0
   57.6960   28.4410   53.4300 O   0  0  0  0  0  0  0  0  0  0  0  0
   57.4080   29.9200   55.2080 N   0  0  0  0  0  0  0  0  0  0  0  0
   58.5940   30.7420   55.4180 C   0  0  0  0  0  0  0  0  0  0  0  0
   58.2030   32.2210   55.4990 C   0  0  0  0  0  0  0  0  0  0  0  0
   59.1860   33.1460   54.7650 C   0  0  0  0  0  0  0  0  0  0  0  0
   60.5550   32.4980   54.5590 C   0  0  0  0  0  0  0  0  0  0  0  0
  1  2  2  0
  2  3  1  0
  3  4  2  3
  4  5  1  0
  5  6  1  0
  6  7  1  0
  7  8  2  0
  7  9  1  0
  9 10  1  0
 10 11  1  0
  3 12  1  0
 12 13  2  0
 13 14  1  0
 14 15  2  0
 14 16  1  0
 16 17  1  0
 17 18  1  0
 18 19  1  0
 19 20  1  0
 19 21  1  0
 21 22  1  0
 13 23  1  0
 23 24  1  0
 24 25  2  0
 24 26  1  0
 26 27  1  0
 27 28  1  0
 28 29  1  0
 29 30  1  0
 23  2  1  0
 10  5  2  0
 22 16  1  0
M  CHG  4   6  -1   9  -1  11  -1  26  -1
M  END
>  <UniqueID>  (2722) 
6

>  <SMILES>  (2722) 
C=c1c(=Cc2[n-]c(=O)[n-]c2[O-])cc(C(=O)N2CCN(C)CC2)n1C(=O)[N-]CCCC

>  <Energy>  (2722) 
131.59867333613462

>  <Genealogy>  (2722) 
C=c1c(=Cc2[n-]c(=O)[n-]c2[O-])cc(C(=O)N2CCN(C)CC2)n1C(=O)[N-]CCCC (protonated)
C=c1c(=Cc2[n-]c(=O)[n-]c2[O-])cc(C(=O)N2CCN(C)CC2)n1C(=O)[N-]CCCC (3D coordinates assigned)
C=c1c(=Cc2[n-]c(=O)[n-]c2[O-])cc(C(=O)N2CCN(C)CC2)n1C(=O)[N-]CCCC (nonaromatic ring conformer: 131.59867333613462 kcal/mol)

>  <smiles>  (2722) 
C=c1c(=Cc2[nH]c(=O)[nH]c2O)cc(C(=O)N2CCN(C)CC2)n1C(=O)NCCCC

>  <score_type>  (2722) 
oracle

>  <origin>  (2722) 
adg

>  <m_score__min__energy>  (2722) 
-16.350000000000001

>  <m_primary>  (2722) 
energy

$$$$
7:0
     RDKit          3D

 30 33  0  0  0  0  0  0  0  0999 V2000
   56.9020   30.0370   44.2400 C   0  0  0  0  0  0  0  0  0  0  0  0
   57.7380   29.7070   45.2400 C   0  0  0  0  0  0  0  0  0  0  0  0
   58.1230   28.4120   45.6010 C   0  0  0  0  0  0  0  0  0  0  0  0
   57.6900   27.2480   45.0740 C   0  0  0  0  0  0  0  0  0  0  0  0
   57.1700   26.1240   45.8750 C   0  0  0  0  0  0  0  0  0  0  0  0
   57.9580   25.1870   46.4280 N   0  0  0  0  0  0  0  0  0  0  0  0
   57.0960   24.4210   47.1280 C   0  0  0  0  0  0  0  0  0  0  0  0
   57.4620   23.4110   47.7830 O   0  0  0  0  0  0  0  0  0  0  0  0
   55.8080   24.8240   47.0760 N   0  0  0  0  0  0  0  0  0  0  0  0
   55.8730   25.9100   46.2890 C   0  0  0  0  0  0  0  0  0  0  0  0
   54.7750   26.7110   45.9990 O   0  0  0  0  0  0  0  0  0  0  0  0
   59.0100   28.5520   46.6550 C   0  0  0  0  0  0  0  0  0  0  0  0
   59.1470   29.9060   46.8880 C   0  0  0  0  0  0  0  0  0  0  0  0
   60.0810   30.4630   47.8880 C   0  0  0  0  0  0  0  0  0  0  0  0
   61.3200   30.4720   47.6630 O   0  0  0  0  0  0  0  0  0  0  0  0
   59.5910   30.8900   49.1670 N   0  0  0  0  0  0  0  0  0  0  0  0
   58.5240   31.8990   49.2420 C   0  0  0  0  0  0  0  0  0  0  0  0
   57.9540   32.0100   50.6620 C   0  0  0  0  0  0  0  0  0  0  0  0
   57.7720   30.6690   51.2390 N   0  0  0  0  0  0  0  0  0  0  0  0
   56.5900   30.3650   52.0080 C   0  0  0  0  0  0  0  0  0  0  0  0
   56.6700   29.5310   53.1360 C   0  0  0  0  0  0  0  0  0  0  0  0
   55.5250   29.2320   53.8780 C   0  0  0  0  0  0  0  0  0  0  0  0
   54.2860   29.7470   53.4920 C   0  0  0  0  0  0  0  0  0  0  0  0
   54.1830   30.5660   52.3590 C   0  0  0  0  0  0  0  0  0  0  0  0
   52.8510   31.1350   51.9680 C   0  0  0  0  0  0  0  0  0  0  0  0
   55.3390   30.8840   51.6270 C   0  0  0  0  0  0  0  0  0  0  0  0
   58.8560   29.6760   51.1540 C   0  0  0  0  0  0  0  0  0  0  0  0
   60.0610   30.2220   50.3840 C   0  0  0  0  0  0  0  0  0  0  0  0
   58.3580   30.6130   46.0390 N   0  0  0  0  0  0  0  0  0  0  0  0
   58.1810   32.0690   46.0050 C   0  0  0  0  0  0  0  0  0  0  0  0
  1  2  2  0
  2  3  1  0
  3  4  2  0
  4  5  1  0
  5  6  1  0
  6  7  1  0
  7  8  2  0
  7  9  1  0
  9 10  1  0
 10 11  1  0
  3 12  1  0
 12 13  2  0
 13 14  1  0
 14 15  2  0
 14 16  1  0
 16 17  1  0
 17 18  1  0
 18 19  1  0
 19 20  1  0
 20 21  2  0
 21 22  1  0
 22 23  2  0
 23 24  1  0
 24 25  1  0
 24 26  2  0
 19 27  1  0
 27 28  1  0
 13 29  1  0
 29 30  1  0
 29  2  1  0
 10  5  2  0
 28 16  1  0
 26 20  1  0
M  CHG  3   6  -1   9  -1  11  -1
M  END
>  <UniqueID>  (2723) 
8

>  <SMILES>  (2723) 
C=c1/c(=C/c2[n-]c(=O)[n-]c2[O-])cc(C(=O)N2CCN(c3cccc(C)c3)CC2)n1C

>  <Energy>  (2723) 
128.38909404002166

>  <Genealogy>  (2723) 
C=c1c(=Cc2[n-]c(=O)[n-]c2[O-])cc(C(=O)N2CCN(c3cccc(C)c3)CC2)n1C (protonated)
C=c1/c(=C/c2[n-]c(=O)[n-]c2[O-])cc(C(=O)N2CCN(c3cccc(C)c3)CC2)n1C (cis-trans isomerization)
C=c1/c(=C/c2[n-]c(=O)[n-]c2[O-])cc(C(=O)N2CCN(c3cccc(C)c3)CC2)n1C (3D coordinates assigned)
C=c1/c(=C/c2[n-]c(=O)[n-]c2[O-])cc(C(=O)N2CCN(c3cccc(C)c3)CC2)n1C (nonaromatic ring conformer: 128.38909404002166 kcal/mol)

>  <smiles>  (2723) 
C=c1c(=Cc2[nH]c(=O)[nH]c2O)cc(C(=O)N2CCN(c3cccc(C)c3)CC2)n1C

>  <score_type>  (2723) 
oracle

>  <origin>  (2723) 
adg

>  <m_score__min__energy>  (2723) 
-18.420000000000002

>  <m_primary>  (2723) 
energy

$$$$
31:0
     RDKit          3D

 29 31  0  0  0  0  0  0  0  0999 V2000
   55.9080   29.3750   51.6220 H   0  0  0  0  0  0  0  0  0  0  0  0
   56.7250   29.3250   52.2690 N   0  0  0  0  0  0  0  0  0  0  0  0
   57.5090   30.3310   52.4940 C   0  0  0  0  0  0  0  0  0  0  0  0
   57.1540   31.7130   52.1120 C   0  0  0  0  0  0  0  0  0  0  0  0
   55.9730   32.1040   52.3170 O   0  0  0  0  0  0  0  0  0  0  0  0
   58.1130   32.6190   51.5270 N   0  0  0  0  0  0  0  0  0  0  0  0
   59.0020   32.1710   50.4840 C   0  0  0  0  0  0  0  0  0  0  0  0
   60.3630   32.5150   50.5130 C   0  0  0  0  0  0  0  0  0  0  0  0
   61.2170   32.1070   49.4840 C   0  0  0  0  0  0  0  0  0  0  0  0
   60.7250   31.3510   48.4170 C   0  0  0  0  0  0  0  0  0  0  0  0
   61.8150   30.9030   47.1130 Cl  0  0  0  0  0  0  0  0  0  0  0  0
   59.3660   30.9930   48.3830 C   0  0  0  0  0  0  0  0  0  0  0  0
   58.8320   30.2320   47.2870 N   0  0  0  0  0  0  0  0  0  0  0  0
   58.3160   30.7450   46.1490 C   0  0  0  0  0  0  0  0  0  0  0  0
   58.2160   32.2070   45.8390 C   0  0  0  0  0  0  0  0  0  0  0  0
   57.8600   29.7300   45.3320 C   0  0  0  0  0  0  0  0  0  0  0  0
   58.1550   28.5360   45.9720 C   0  0  0  0  0  0  0  0  0  0  0  0
   57.9160   27.3330   45.4160 C   0  0  0  0  0  0  0  0  0  0  0  0
   57.3710   26.1600   46.1200 C   0  0  0  0  0  0  0  0  0  0  0  0
   56.0390   25.8760   46.3190 C   0  0  0  0  0  0  0  0  0  0  0  0
   54.9770   26.7100   45.9980 O   0  0  0  0  0  0  0  0  0  0  0  0
   55.8920   24.6550   46.8680 N   0  0  0  0  0  0  0  0  0  0  0  0
   57.1650   24.2160   46.9660 C   0  0  0  0  0  0  0  0  0  0  0  0
   57.4650   23.0850   47.4280 O   0  0  0  0  0  0  0  0  0  0  0  0
   58.0850   25.0900   46.5110 N   0  0  0  0  0  0  0  0  0  0  0  0
   58.7230   28.8830   47.2090 C   0  0  0  0  0  0  0  0  0  0  0  0
   58.9950   28.0670   48.2400 C   0  0  0  0  0  0  0  0  0  0  0  0
   58.5120   31.4050   49.4140 C   0  0  0  0  0  0  0  0  0  0  0  0
   58.4060   33.8750   52.2230 C   0  0  0  0  0  0  0  0  0  0  0  0
  1  2  1  0
  2  3  2  0
  3  4  1  0
  4  5  2  0
  4  6  1  0
  6  7  1  0
  7  8  2  0
  8  9  1  0
  9 10  2  0
 10 11  1  0
 10 12  1  0
 12 13  1  0
 13 14  1  0
 14 15  1  0
 14 16  2  0
 16 17  1  0
 17 18  2  3
 18 19  1  0
 19 20  2  0
 20 21  1  0
 20 22  1  0
 22 23  1  0
 23 24  2  0
 23 25  1  0
 17 26  1  0
 26 27  2  0
 12 28  2  0
  6 29  1  0
 28  7  1  0
 26 13  1  0
 25 19  1  0
M  CHG  2  21  -1  22  -1
M  END
>  <UniqueID>  (2724) 
31

>  <SMILES>  (2724) 
[H]/N=C\C(=O)N(C)c1ccc(Cl)c(-n2c(C)cc(=Cc3[nH]c(=O)[n-]c3[O-])c2=C)c1

>  <Energy>  (2724) 
129.43909614566027

>  <Genealogy>  (2724) 
C=c1c(=Cc2[nH]c(=O)[n-]c2[O-])cc(C)n1-c1cc(N(C)C(=O)C=N)ccc1Cl (protonated)
[H]/N=C\C(=O)N(C)c1ccc(Cl)c(-n2c(C)cc(=Cc3[nH]c(=O)[n-]c3[O-])c2=C)c1 (cis-trans isomerization)
[H]/N=C\C(=O)N(C)c1ccc(Cl)c(-n2c(C)cc(=Cc3[nH]c(=O)[n-]c3[O-])c2=C)c1 (3D coordinates assigned)
[H]/N=C\C(=O)N(C)c1ccc(Cl)c(-n2c(C)cc(=Cc3[nH]c(=O)[n-]c3[O-])c2=C)c1 (optimized conformer: 129.43909614566027 kcal/mol)

>  <smiles>  (2724) 
C=c1c(=Cc2[nH]c(=O)[nH]c2O)cc(C)n1-c1cc(N(C)C(=O)C=N)ccc1Cl

>  <score_type>  (2724) 
oracle

>  <origin>  (2724) 
adg

>  <m_score__min__energy>  (2724) 
-14.25

>  <m_primary>  (2724) 
energy

$$$$
35:0
     RDKit          3D

 30 33  0  0  0  0  0  0  0  0999 V2000
   56.9030   31.5410   44.0060 C   0  0  0  0  0  0  0  0  0  0  0  0
   57.7290   32.5510   43.9840 N   0  0  0  0  0  0  0  0  0  0  0  0
   58.3330   33.1850   45.1110 C   0  0  0  0  0  0  0  0  0  0  0  0
   58.8800   34.4680   44.9870 C   0  0  0  0  0  0  0  0  0  0  0  0
   59.5530   35.0450   46.0670 C   0  0  0  0  0  0  0  0  0  0  0  0
   59.6590   34.3550   47.2800 C   0  0  0  0  0  0  0  0  0  0  0  0
   59.0600   33.0900   47.4320 C   0  0  0  0  0  0  0  0  0  0  0  0
   59.1410   32.3440   48.7100 C   0  0  0  0  0  0  0  0  0  0  0  0
   58.1220   32.3470   49.4620 O   0  0  0  0  0  0  0  0  0  0  0  0
   60.3340   31.5870   49.0660 N   0  0  0  0  0  0  0  0  0  0  0  0
   61.1380   31.2640   47.8660 C   0  0  0  0  0  0  0  0  0  0  0  0
   60.5050   30.1180   47.0670 C   0  0  0  0  0  0  0  0  0  0  0  0
   60.3940   28.9610   47.8700 O   0  0  0  0  0  0  0  0  0  0  0  0
   59.5150   29.2160   48.9480 C   0  0  0  0  0  0  0  0  0  0  0  0
   60.0440   30.3560   49.8420 C   0  0  0  0  0  0  0  0  0  0  0  0
   58.3900   32.5150   46.3400 C   0  0  0  0  0  0  0  0  0  0  0  0
   57.2420   30.1220   44.3150 C   0  0  0  0  0  0  0  0  0  0  0  0
   57.3710   29.6510   45.6100 C   0  0  0  0  0  0  0  0  0  0  0  0
   57.7040   28.3030   45.5200 C   0  0  0  0  0  0  0  0  0  0  0  0
   57.9650   27.4590   46.5370 C   0  0  0  0  0  0  0  0  0  0  0  0
   57.2550   26.1910   46.7930 C   0  0  0  0  0  0  0  0  0  0  0  0
   57.8870   25.0840   47.2230 N   0  0  0  0  0  0  0  0  0  0  0  0
   56.9120   24.1500   47.2470 C   0  0  0  0  0  0  0  0  0  0  0  0
   57.1250   22.9610   47.6030 O   0  0  0  0  0  0  0  0  0  0  0  0
   55.7000   24.5830   46.8340 N   0  0  0  0  0  0  0  0  0  0  0  0
   55.9350   25.8730   46.5360 C   0  0  0  0  0  0  0  0  0  0  0  0
   54.9740   26.7140   45.9850 O   0  0  0  0  0  0  0  0  0  0  0  0
   57.7850   28.0230   44.1570 C   0  0  0  0  0  0  0  0  0  0  0  0
   58.1160   26.8570   43.5870 C   0  0  0  0  0  0  0  0  0  0  0  0
   57.4940   29.1230   43.4370 N   0  0  0  0  0  0  0  0  0  0  0  0
  1  2  2  3
  2  3  1  0
  3  4  2  0
  4  5  1  0
  5  6  2  0
  6  7  1  0
  7  8  1  0
  8  9  2  0
  8 10  1  0
 10 11  1  0
 11 12  1  0
 12 13  1  0
 13 14  1  0
 14 15  1  0
  7 16  2  0
  1 17  1  0
 17 18  2  0
 18 19  1  0
 19 20  2  0
 20 21  1  0
 21 22  1  0
 22 23  1  0
 23 24  2  0
 23 25  1  0
 25 26  1  0
 26 27  1  0
 19 28  1  0
 28 29  2  0
 28 30  1  0
 16  3  1  0
 30 17  1  0
 15 10  1  0
 26 21  2  0
M  CHG  4  10   1  22  -1  25  -1  27  -1
M  END
>  <UniqueID>  (2725) 
35

>  <SMILES>  (2725) 
C=c1[nH]c(C=Nc2cccc(C(=O)[NH+]3CCOCC3)c2)c/c1=C\c1[n-]c(=O)[n-]c1[O-]

>  <Energy>  (2725) 
140.82733867610722

>  <Genealogy>  (2725) 
C=c1[nH]c(C=Nc2cccc(C(=O)[NH+]3CCOCC3)c2)cc1=Cc1[n-]c(=O)[n-]c1[O-] (protonated)
C=c1[nH]c(C=Nc2cccc(C(=O)[NH+]3CCOCC3)c2)c/c1=C\c1[n-]c(=O)[n-]c1[O-] (cis-trans isomerization)
C=c1[nH]c(C=Nc2cccc(C(=O)[NH+]3CCOCC3)c2)c/c1=C\c1[n-]c(=O)[n-]c1[O-] (3D coordinates assigned)
C=c1[nH]c(C=Nc2cccc(C(=O)[NH+]3CCOCC3)c2)c/c1=C\c1[n-]c(=O)[n-]c1[O-] (nonaromatic ring conformer: 140.82733867610722 kcal/mol)

>  <smiles>  (2725) 
C=c1[nH]c(C=Nc2cccc(C(=O)N3CCOCC3)c2)cc1=Cc1[nH]c(=O)[nH]c1O

>  <score_type>  (2725) 
oracle

>  <origin>  (2725) 
adg

>  <m_score__min__energy>  (2725) 
-16.140000000000001

>  <m_primary>  (2725) 
energy

$$$$
44:0
     RDKit          3D

 31 34  0  0  0  0  0  0  0  0999 V2000
   63.2390   31.9020   50.1850 O   0  0  0  0  0  0  0  0  0  0  0  0
   64.3070   32.5620   49.5650 C   0  0  0  0  0  0  0  0  0  0  0  0
   63.8180   33.2780   48.2920 C   0  0  1  0  0  0  0  0  0  0  0  0
   63.6680   32.2860   47.1150 C   0  0  0  0  0  0  0  0  0  0  0  0
   62.3830   31.4450   47.2120 C   0  0  0  0  0  0  0  0  0  0  0  0
   61.0800   32.2680   47.5130 C   0  0  1  0  0  0  0  0  0  0  0  0
   60.3940   31.7440   48.7450 N   0  0  2  0  0  0  0  0  0  0  0  0
   60.0030   30.3540   48.5420 C   0  0  0  0  0  0  0  0  0  0  0  0
   60.3650   29.4720   49.3690 O   0  0  0  0  0  0  0  0  0  0  0  0
   59.1920   29.9250   47.3810 C   0  0  0  0  0  0  0  0  0  0  0  0
   58.4890   30.9760   46.2770 S   0  0  0  0  0  0  0  0  0  0  0  0
   57.7960   29.7970   45.2970 C   0  0  0  0  0  0  0  0  0  0  0  0
   57.0680   30.0860   44.2150 C   0  0  0  0  0  0  0  0  0  0  0  0
   58.1080   28.5290   45.8240 C   0  0  0  0  0  0  0  0  0  0  0  0
   57.7410   27.3570   45.2630 C   0  0  0  0  0  0  0  0  0  0  0  0
   57.2140   26.2030   46.0180 C   0  0  0  0  0  0  0  0  0  0  0  0
   57.9770   25.1740   46.4260 N   0  0  0  0  0  0  0  0  0  0  0  0
   57.0910   24.3340   47.0010 C   0  0  0  0  0  0  0  0  0  0  0  0
   57.4340   23.2420   47.5240 O   0  0  0  0  0  0  0  0  0  0  0  0
   55.8080   24.7500   46.9630 N   0  0  0  0  0  0  0  0  0  0  0  0
   55.8990   25.9290   46.3280 C   0  0  0  0  0  0  0  0  0  0  0  0
   54.8000   26.7150   46.0050 O   0  0  0  0  0  0  0  0  0  0  0  0
   58.9040   28.6200   46.9870 C   0  0  0  0  0  0  0  0  0  0  0  0
   59.2500   32.5620   49.2740 C   0  0  0  0  0  0  0  0  0  0  0  0
   58.1490   31.7520   50.0140 C   0  0  0  0  0  0  0  0  0  0  0  0
   58.3970   31.5810   51.5320 C   0  0  0  0  0  0  0  0  0  0  0  0
   59.5440   32.2670   51.9970 O   0  0  0  0  0  0  0  0  0  0  0  0
   59.4710   33.6230   51.6200 C   0  0  0  0  0  0  0  0  0  0  0  0
   59.7270   33.7860   50.1160 C   0  0  0  0  0  0  0  0  0  0  0  0
   61.4020   33.7880   47.5570 C   0  0  0  0  0  0  0  0  0  0  0  0
   62.5220   34.0990   48.5570 C   0  0  0  0  0  0  0  0  0  0  0  0
  1  2  1  0
  3  2  1  1
  3  4  1  0
  4  5  1  0
  6  5  1  1
  6  7  1  0
  7  8  1  0
  8  9  2  0
  8 10  1  0
 10 11  1  0
 11 12  1  0
 12 13  2  0
 12 14  1  0
 14 15  2  0
 15 16  1  0
 16 17  1  0
 17 18  1  0
 18 19  2  0
 18 20  1  0
 20 21  1  0
 21 22  1  0
 14 23  1  0
  7 24  1  6
 24 25  1  0
 25 26  1  0
 26 27  1  0
 27 28  1  0
 28 29  1  0
  6 30  1  0
 30 31  1  0
 31  3  1  0
 23 10  2  0
 29 24  1  0
 21 16  2  0
M  CHG  4   7   1  17  -1  20  -1  22  -1
M  END
>  <UniqueID>  (2726) 
44

>  <SMILES>  (2726) 
C=c1sc(C(=O)[N@H+](C2CCOCC2)C2CCC(CO)CC2)c/c1=C\c1[n-]c(=O)[n-]c1[O-]

>  <Energy>  (2726) 
151.94616830081702

>  <Genealogy>  (2726) 
C=c1sc(C(=O)[NH+](C2CCOCC2)C2CCC(CO)CC2)cc1=Cc1[n-]c(=O)[n-]c1[O-] (protonated)
C=c1sc(C(=O)[N@H+](C2CCOCC2)C2CCC(CO)CC2)cc1=Cc1[n-]c(=O)[n-]c1[O-] (chirality)
C=c1sc(C(=O)[N@H+](C2CCOCC2)C2CCC(CO)CC2)c/c1=C\c1[n-]c(=O)[n-]c1[O-] (cis-trans isomerization)
C=c1sc(C(=O)[N@H+](C2CCOCC2)C2CCC(CO)CC2)c/c1=C\c1[n-]c(=O)[n-]c1[O-] (3D coordinates assigned)
C=c1sc(C(=O)[N@H+](C2CCOCC2)C2CCC(CO)CC2)c/c1=C\c1[n-]c(=O)[n-]c1[O-] (nonaromatic ring conformer: 151.94616830081702 kcal/mol)

>  <smiles>  (2726) 
C=c1sc(C(=O)N(C2CCOCC2)C2CCC(CO)CC2)cc1=Cc1[nH]c(=O)[nH]c1O

>  <score_type>  (2726) 
oracle

>  <origin>  (2726) 
adg

>  <m_score__min__energy>  (2726) 
-16.140000000000001

>  <m_primary>  (2726) 
energy

$$$$
54:0
     RDKit          3D

 30 33  0  0  0  0  0  0  0  0999 V2000
   52.5620   28.2300   53.4210 C   0  0  0  0  0  0  0  0  0  0  0  0
   53.7130   28.8810   53.1910 C   0  0  0  0  0  0  0  0  0  0  0  0
   53.8660   30.2410   52.8680 C   0  0  0  0  0  0  0  0  0  0  0  0
   52.9600   31.1820   52.5430 C   0  0  0  0  0  0  0  0  0  0  0  0
   52.2510   31.2870   51.2590 C   0  0  0  0  0  0  0  0  0  0  0  0
   52.2520   30.3180   50.3280 N   0  0  0  0  0  0  0  0  0  0  0  0
   51.3840   30.7770   49.4000 C   0  0  0  0  0  0  0  0  0  0  0  0
   51.1250   30.1440   48.3430 O   0  0  0  0  0  0  0  0  0  0  0  0
   50.8080   31.9610   49.6970 N   0  0  0  0  0  0  0  0  0  0  0  0
   51.3540   32.2630   50.8850 C   0  0  0  0  0  0  0  0  0  0  0  0
   51.0210   33.3930   51.6240 O   0  0  0  0  0  0  0  0  0  0  0  0
   55.2250   30.4980   52.9180 C   0  0  0  0  0  0  0  0  0  0  0  0
   55.8520   29.3000   53.1870 C   0  0  0  0  0  0  0  0  0  0  0  0
   57.3200   29.1380   53.2420 C   0  0  0  0  0  0  0  0  0  0  0  0
   57.8180   28.4040   54.1370 O   0  0  0  0  0  0  0  0  0  0  0  0
   58.1840   29.8170   52.3130 N   0  0  0  0  0  0  0  0  0  0  0  0
   57.9280   31.2130   51.9320 C   0  0  0  0  0  0  0  0  0  0  0  0
   58.2250   31.4490   50.4360 C   0  0  0  0  0  0  0  0  0  0  0  0
   58.9090   30.2940   49.8080 N   0  0  0  0  0  0  0  0  0  0  0  0
   59.3810   30.6270   48.4500 C   0  0  0  0  0  0  0  0  0  0  0  0
   59.5700   29.3730   47.6380 C   0  0  0  0  0  0  0  0  0  0  0  0
   60.0930   29.4560   46.3380 C   0  0  0  0  0  0  0  0  0  0  0  0
   60.3060   28.2860   45.6080 C   0  0  0  0  0  0  0  0  0  0  0  0
   60.0020   27.0490   46.1760 C   0  0  0  0  0  0  0  0  0  0  0  0
   59.4900   27.0010   47.4740 C   0  0  0  0  0  0  0  0  0  0  0  0
   59.2880   28.1500   48.1760 N   0  0  0  0  0  0  0  0  0  0  0  0
   60.0220   29.8410   50.6590 C   0  0  0  0  0  0  0  0  0  0  0  0
   59.4500   29.1850   51.9210 C   0  0  0  0  0  0  0  0  0  0  0  0
   54.9360   28.3170   53.3690 N   0  0  0  0  0  0  0  0  0  0  0  0
   55.2010   26.9430   53.8160 C   0  0  0  0  0  0  0  0  0  0  0  0
  1  2  2  0
  2  3  1  0
  3  4  2  3
  4  5  1  0
  5  6  1  0
  6  7  1  0
  7  8  2  0
  7  9  1  0
  9 10  1  0
 10 11  1  0
  3 12  1  0
 12 13  2  0
 13 14  1  0
 14 15  2  0
 14 16  1  0
 16 17  1  0
 17 18  1  0
 18 19  1  0
 19 20  1  0
 20 21  1  0
 21 22  2  0
 22 23  1  0
 23 24  2  0
 24 25  1  0
 25 26  2  0
 19 27  1  0
 27 28  1  0
 13 29  1  0
 29 30  1  0
 29  2  1  0
 10  5  2  0
 28 16  1  0
 26 21  1  0
M  CHG  4   6  -1   9  -1  11  -1  26   1
M  END
>  <UniqueID>  (2727) 
53

>  <SMILES>  (2727) 
C=c1c(=Cc2[n-]c(=O)[n-]c2[O-])cc(C(=O)N2CCN(Cc3cccc[nH+]3)CC2)n1C

>  <Energy>  (2727) 
135.08044528440044

>  <Genealogy>  (2727) 
C=c1c(=Cc2[n-]c(=O)[n-]c2[O-])cc(C(=O)N2CCN(Cc3cccc[nH+]3)CC2)n1C (protonated)
C=c1c(=Cc2[n-]c(=O)[n-]c2[O-])cc(C(=O)N2CCN(Cc3cccc[nH+]3)CC2)n1C (3D coordinates assigned)
C=c1c(=Cc2[n-]c(=O)[n-]c2[O-])cc(C(=O)N2CCN(Cc3cccc[nH+]3)CC2)n1C (nonaromatic ring conformer: 135.08044528440044 kcal/mol)

>  <smiles>  (2727) 
C=c1c(=Cc2[nH]c(=O)[nH]c2O)cc(C(=O)N2CCN(Cc3ccccn3)CC2)n1C

>  <score_type>  (2727) 
oracle

>  <origin>  (2727) 
adg

>  <m_score__min__energy>  (2727) 
-16.199999999999999

>  <m_primary>  (2727) 
energy

$$$$
75:0
     RDKit          3D

 28 30  0  0  0  0  0  0  0  0999 V2000
   55.5270   29.5820   43.0060 O   0  0  0  0  0  0  0  0  0  0  0  0
   56.3280   29.5050   43.9750 C   0  0  0  0  0  0  0  0  0  0  0  0
   57.7260   30.0450   43.8230 C   0  0  0  0  0  0  0  0  0  0  0  0
   57.9350   31.2030   44.7140 N   0  0  0  0  0  0  0  0  0  0  0  0
   56.9860   32.1930   44.6930 C   0  0  0  0  0  0  0  0  0  0  0  0
   57.0990   33.3140   45.5130 C   0  0  0  0  0  0  0  0  0  0  0  0
   58.1840   33.4270   46.3730 C   0  0  0  0  0  0  0  0  0  0  0  0
   59.1430   32.4180   46.4150 C   0  0  0  0  0  0  0  0  0  0  0  0
   60.2190   32.5390   47.2900 O   0  0  0  0  0  0  0  0  0  0  0  0
   59.0100   31.2940   45.5770 C   0  0  0  0  0  0  0  0  0  0  0  0
   60.1510   30.1070   45.6720 S   0  0  0  0  0  0  0  0  0  0  0  0
   55.8890   28.8650   45.1810 N   0  0  0  0  0  0  0  0  0  0  0  0
   56.6090   27.8740   45.9310 C   0  0  0  0  0  0  0  0  0  0  0  0
   57.8580   28.1590   46.5080 C   0  0  0  0  0  0  0  0  0  0  0  0
   58.5310   27.1860   47.2610 C   0  0  0  0  0  0  0  0  0  0  0  0
   60.1040   27.5480   47.9760 S   0  0  0  0  0  0  0  0  0  0  0  0
   61.0920   27.8290   46.8770 O   0  0  0  0  0  0  0  0  0  0  0  0
   60.5870   26.3430   48.7370 O   0  0  0  0  0  0  0  0  0  0  0  0
   60.0310   28.9190   49.0550 N   0  0  0  0  0  0  0  0  0  0  0  0
   58.9000   29.7900   48.7060 C   0  0  0  0  0  0  0  0  0  0  0  0
   58.8410   30.9890   49.6770 C   0  0  0  0  0  0  0  0  0  0  0  0
   59.9610   31.0320   50.5450 O   0  0  0  0  0  0  0  0  0  0  0  0
   61.1550   31.0040   49.7870 C   0  0  0  0  0  0  0  0  0  0  0  0
   61.2900   29.6800   49.0070 C   0  0  0  0  0  0  0  0  0  0  0  0
   57.9420   25.9300   47.4520 C   0  0  0  0  0  0  0  0  0  0  0  0
   56.6860   25.6530   46.9060 C   0  0  0  0  0  0  0  0  0  0  0  0
   56.0170   26.6230   46.1540 C   0  0  0  0  0  0  0  0  0  0  0  0
   54.7640   26.3350   45.6230 O   0  0  0  0  0  0  0  0  0  0  0  0
  1  2  2  0
  2  3  1  0
  3  4  1  0
  4  5  1  0
  5  6  2  0
  6  7  1  0
  7  8  2  0
  8  9  1  0
  8 10  1  0
 10 11  2  0
  2 12  1  0
 12 13  1  0
 13 14  2  0
 14 15  1  0
 15 16  1  0
 16 17  2  0
 16 18  2  0
 16 19  1  0
 19 20  1  0
 20 21  1  0
 21 22  1  0
 22 23  1  0
 23 24  1  0
 15 25  2  0
 25 26  1  0
 26 27  2  0
 27 28  1  0
 10  4  1  0
 27 13  1  0
 24 19  1  0
M  CHG  3   9  -1  12  -1  28  -1
M  END
>  <UniqueID>  (2728) 
73

>  <SMILES>  (2728) 
O=C(Cn1cccc([O-])c1=S)[N-]c1cc(S(=O)(=O)N2CCOCC2)ccc1[O-]

>  <Energy>  (2728) 
62.79652075957358

>  <Genealogy>  (2728) 
O=C(Cn1cccc([O-])c1=S)[N-]c1cc(S(=O)(=O)N2CCOCC2)ccc1[O-] (protonated)
O=C(Cn1cccc([O-])c1=S)[N-]c1cc(S(=O)(=O)N2CCOCC2)ccc1[O-] (3D coordinates assigned)
O=C(Cn1cccc([O-])c1=S)[N-]c1cc(S(=O)(=O)N2CCOCC2)ccc1[O-] (nonaromatic ring conformer: 62.79652075957358 kcal/mol)

>  <smiles>  (2728) 
O=C(Cn1cccc(O)c1=S)Nc1cc(S(=O)(=O)N2CCOCC2)ccc1O

>  <score_type>  (2728) 
oracle

>  <origin>  (2728) 
adg

>  <m_score__min__energy>  (2728) 
-14.24

>  <m_primary>  (2728) 
energy

$$$$
80:0
     RDKit          3D

 26 28  0  0  0  0  0  0  0  0999 V2000
   59.2020   33.7200   52.2040 C   0  0  0  0  0  0  0  0  0  0  0  0
   59.8260   33.3220   53.3170 C   0  0  0  0  0  0  0  0  0  0  0  0
   60.3110   31.9040   53.4950 C   0  0  0  0  0  0  0  0  0  0  0  0
   60.2260   31.4530   54.9070 N   0  0  0  0  0  0  0  0  0  0  0  0
   58.9670   31.8500   55.5770 C   0  0  0  0  0  0  0  0  0  0  0  0
   57.7430   31.2170   54.9050 C   0  0  0  0  0  0  0  0  0  0  0  0
   58.0020   29.8190   54.5390 N   0  0  0  0  0  0  0  0  0  0  0  0
   56.9640   29.0670   53.8790 C   0  0  0  0  0  0  0  0  0  0  0  0
   56.9730   27.8070   53.9090 O   0  0  0  0  0  0  0  0  0  0  0  0
   55.8980   29.7410   53.1920 N   0  0  0  0  0  0  0  0  0  0  0  0
   56.0560   30.6060   52.1680 C   0  0  0  0  0  0  0  0  0  0  0  0
   57.3790   31.0350   51.6100 C   0  0  0  0  0  0  0  0  0  0  0  0
   54.8290   30.9570   51.6460 C   0  0  0  0  0  0  0  0  0  0  0  0
   53.8660   30.3200   52.4140 C   0  0  0  0  0  0  0  0  0  0  0  0
   52.5460   30.5010   52.2210 C   0  0  0  0  0  0  0  0  0  0  0  0
   51.9110   30.9000   50.9550 C   0  0  0  0  0  0  0  0  0  0  0  0
   51.8010   30.1130   49.8700 N   0  0  0  0  0  0  0  0  0  0  0  0
   51.0390   30.8460   49.0290 C   0  0  0  0  0  0  0  0  0  0  0  0
   50.7230   30.4460   47.8780 O   0  0  0  0  0  0  0  0  0  0  0  0
   50.6330   32.0360   49.5220 N   0  0  0  0  0  0  0  0  0  0  0  0
   51.1820   32.0460   50.7480 C   0  0  0  0  0  0  0  0  0  0  0  0
   51.0180   33.0810   51.6600 O   0  0  0  0  0  0  0  0  0  0  0  0
   54.5660   29.5370   53.3470 C   0  0  0  0  0  0  0  0  0  0  0  0
   54.0600   28.6240   54.1910 C   0  0  0  0  0  0  0  0  0  0  0  0
   59.1710   29.1300   55.1010 C   0  0  0  0  0  0  0  0  0  0  0  0
   60.4580   29.9860   55.0130 C   0  0  0  0  0  0  0  0  0  0  0  0
  1  2  2  0
  2  3  1  0
  3  4  1  0
  4  5  1  0
  5  6  1  0
  6  7  1  0
  7  8  1  0
  8  9  2  0
  8 10  1  0
 10 11  1  0
 11 12  1  0
 11 13  2  0
 13 14  1  0
 14 15  2  0
 15 16  1  0
 16 17  1  0
 17 18  1  0
 18 19  2  0
 18 20  1  0
 20 21  1  0
 21 22  1  0
 14 23  1  0
 23 24  2  0
  7 25  1  0
 25 26  1  0
 26  4  1  0
 23 10  1  0
 21 16  2  0
M  CHG  4   4   1  17  -1  20  -1  22  -1
M  END
>  <UniqueID>  (2729) 
78

>  <SMILES>  (2729) 
C=CC[NH+]1CCN(C(=O)n2c(C)c/c(=C/c3[n-]c(=O)[n-]c3[O-])c2=C)CC1

>  <Energy>  (2729) 
128.89387623185684

>  <Genealogy>  (2729) 
C=CC[NH+]1CCN(C(=O)n2c(C)cc(=Cc3[n-]c(=O)[n-]c3[O-])c2=C)CC1 (protonated)
C=CC[NH+]1CCN(C(=O)n2c(C)c/c(=C/c3[n-]c(=O)[n-]c3[O-])c2=C)CC1 (cis-trans isomerization)
C=CC[NH+]1CCN(C(=O)n2c(C)c/c(=C/c3[n-]c(=O)[n-]c3[O-])c2=C)CC1 (3D coordinates assigned)
C=CC[NH+]1CCN(C(=O)n2c(C)c/c(=C/c3[n-]c(=O)[n-]c3[O-])c2=C)CC1 (nonaromatic ring conformer: 128.89387623185684 kcal/mol)

>  <smiles>  (2729) 
C=CCN1CCN(C(=O)n2c(C)cc(=Cc3[nH]c(=O)[nH]c3O)c2=C)CC1

>  <score_type>  (2729) 
oracle

>  <origin>  (2729) 
adg

>  <m_score__min__energy>  (2729) 
-14.640000000000001

>  <m_primary>  (2729) 
energy

$$$$
85:0
     RDKit          3D

 31 34  0  0  0  0  0  0  0  0999 V2000
   56.3460   31.2200   43.3360 O   0  0  0  0  0  0  0  0  0  0  0  0
   56.8690   31.2730   44.4820 C   0  0  0  0  0  0  0  0  0  0  0  0
   56.8020   32.4820   45.2500 N   0  0  0  0  0  0  0  0  0  0  0  0
   57.8810   33.3870   45.5270 C   0  0  0  0  0  0  0  0  0  0  0  0
   58.2140   34.4410   44.6570 C   0  0  0  0  0  0  0  0  0  0  0  0
   59.2570   35.3130   44.9790 C   0  0  0  0  0  0  0  0  0  0  0  0
   59.9690   35.1490   46.1690 C   0  0  0  0  0  0  0  0  0  0  0  0
   59.6430   34.1080   47.0520 C   0  0  0  0  0  0  0  0  0  0  0  0
   60.3760   33.9420   48.3280 C   0  0  0  0  0  0  0  0  0  0  0  0
   59.7220   33.8920   49.4060 O   0  0  0  0  0  0  0  0  0  0  0  0
   61.8120   33.8260   48.3670 N   0  0  0  0  0  0  0  0  0  0  0  0
   62.5820   34.4790   49.4290 C   0  0  0  0  0  0  0  0  0  0  0  0
   63.7310   33.5640   49.8660 C   0  0  0  0  0  0  0  0  0  0  0  0
   64.4940   33.1430   48.7500 O   0  0  0  0  0  0  0  0  0  0  0  0
   63.6980   32.3390   47.8990 C   0  0  0  0  0  0  0  0  0  0  0  0
   62.5530   33.1580   47.2940 C   0  0  0  0  0  0  0  0  0  0  0  0
   58.5810   33.2450   46.7320 C   0  0  0  0  0  0  0  0  0  0  0  0
   57.6040   30.0990   45.0110 C   0  0  0  0  0  0  0  0  0  0  0  0
   58.5670   30.2580   46.0250 C   0  0  0  0  0  0  0  0  0  0  0  0
   59.2540   29.1520   46.5290 C   0  0  0  0  0  0  0  0  0  0  0  0
   58.9920   27.8760   46.0300 C   0  0  0  0  0  0  0  0  0  0  0  0
   58.0480   27.6960   45.0090 C   0  0  0  0  0  0  0  0  0  0  0  0
   57.7370   26.3170   44.4960 C   0  0  0  0  0  0  0  0  0  0  0  0
   57.1940   25.4650   45.6010 C   0  0  0  0  0  0  0  0  0  0  0  0
   57.9140   24.0560   46.1810 S   0  0  0  0  0  0  0  0  0  0  0  0
   56.6500   23.7540   47.2480 C   0  0  0  0  0  0  0  0  0  0  0  0
   56.6010   22.7690   48.0280 O   0  0  0  0  0  0  0  0  0  0  0  0
   55.6750   24.6850   47.1790 N   0  0  0  0  0  0  0  0  0  0  0  0
   55.9750   25.6350   46.2540 C   0  0  0  0  0  0  0  0  0  0  0  0
   55.1140   26.6920   45.9880 O   0  0  0  0  0  0  0  0  0  0  0  0
   57.3500   28.8090   44.5110 C   0  0  0  0  0  0  0  0  0  0  0  0
  1  2  2  0
  2  3  1  0
  3  4  1  0
  4  5  2  0
  5  6  1  0
  6  7  2  0
  7  8  1  0
  8  9  1  0
  9 10  2  0
  9 11  1  0
 11 12  1  0
 12 13  1  0
 13 14  1  0
 14 15  1  0
 15 16  1  0
  8 17  2  0
  2 18  1  0
 18 19  2  0
 19 20  1  0
 20 21  2  0
 21 22  1  0
 22 23  1  0
 23 24  1  0
 24 25  1  0
 25 26  1  0
 26 27  2  0
 26 28  1  0
 28 29  1  0
 29 30  1  0
 22 31  2  0
 17  4  1  0
 31 18  1  0
 16 11  1  0
 29 24  2  0
M  CHG  3   3  -1  28  -1  30  -1
M  END
>  <UniqueID>  (2730) 
82

>  <SMILES>  (2730) 
O=C([N-]c1cccc(C(=O)N2CCOCC2)c1)c1cccc(Cc2sc(=O)[n-]c2[O-])c1

>  <Energy>  (2730) 
92.73974177179488

>  <Genealogy>  (2730) 
O=C([N-]c1cccc(C(=O)N2CCOCC2)c1)c1cccc(Cc2sc(=O)[n-]c2[O-])c1 (protonated)
O=C([N-]c1cccc(C(=O)N2CCOCC2)c1)c1cccc(Cc2sc(=O)[n-]c2[O-])c1 (3D coordinates assigned)
O=C([N-]c1cccc(C(=O)N2CCOCC2)c1)c1cccc(Cc2sc(=O)[n-]c2[O-])c1 (nonaromatic ring conformer: 92.73974177179488 kcal/mol)

>  <smiles>  (2730) 
O=C(Nc1cccc(C(=O)N2CCOCC2)c1)c1cccc(Cc2sc(=O)[nH]c2O)c1

>  <score_type>  (2730) 
oracle

>  <origin>  (2730) 
adg

>  <m_score__min__energy>  (2730) 
-17.489999999999998

>  <m_primary>  (2730) 
energy

$$$$
9:0
     RDKit          3D

 31 34  0  0  0  0  0  0  0  0999 V2000
   58.0240   27.2610   43.1620 C   0  0  0  0  0  0  0  0  0  0  0  0
   58.2760   26.9530   44.4450 C   0  0  0  0  0  0  0  0  0  0  0  0
   57.8030   25.8300   45.1350 C   0  0  0  0  0  0  0  0  0  0  0  0
   57.0510   24.8250   44.6350 C   0  0  0  0  0  0  0  0  0  0  0  0
   55.6560   24.5210   45.0280 C   0  0  0  0  0  0  0  0  0  0  0  0
   55.0340   23.3370   44.8850 N   0  0  0  0  0  0  0  0  0  0  0  0
   53.8110   23.5530   45.4150 C   0  0  0  0  0  0  0  0  0  0  0  0
   52.9230   22.6610   45.4590 O   0  0  0  0  0  0  0  0  0  0  0  0
   53.6160   24.7970   45.8990 N   0  0  0  0  0  0  0  0  0  0  0  0
   54.7940   25.3950   45.6520 C   0  0  0  0  0  0  0  0  0  0  0  0
   55.0740   26.7150   45.9870 O   0  0  0  0  0  0  0  0  0  0  0  0
   58.2890   25.9480   46.4290 C   0  0  0  0  0  0  0  0  0  0  0  0
   59.0260   27.1170   46.4860 C   0  0  0  0  0  0  0  0  0  0  0  0
   59.7870   27.5720   47.6790 C   0  0  0  0  0  0  0  0  0  0  0  0
   60.1470   26.7240   48.5400 O   0  0  0  0  0  0  0  0  0  0  0  0
   60.0360   28.9830   47.9050 N   0  0  0  0  0  0  0  0  0  0  0  0
   60.8550   29.1950   49.1140 C   0  0  0  0  0  0  0  0  0  0  0  0
   61.2400   30.6860   49.2690 C   0  0  0  0  0  0  0  0  0  0  0  0
   60.2570   31.6210   48.6560 N   0  0  0  0  0  0  0  0  0  0  0  0
   60.7260   32.1870   47.3510 C   0  0  0  0  0  0  0  0  0  0  0  0
   59.6080   32.5940   46.3430 C   0  0  0  0  0  0  0  0  0  0  0  0
   58.9400   33.9610   46.6410 C   0  0  0  0  0  0  0  0  0  0  0  0
   59.2740   34.5110   48.0370 C   0  0  0  0  0  0  0  0  0  0  0  0
   60.7940   34.5780   48.2900 C   0  0  0  0  0  0  0  0  0  0  0  0
   61.5900   33.4390   47.6160 C   0  0  0  0  0  0  0  0  0  0  0  0
   58.8860   31.0690   48.7230 C   0  0  0  0  0  0  0  0  0  0  0  0
   58.7500   29.7160   47.9900 C   0  0  0  0  0  0  0  0  0  0  0  0
   59.0160   27.7280   45.2780 N   0  0  0  0  0  0  0  0  0  0  0  0
   59.6210   28.9930   44.9560 C   0  0  0  0  0  0  0  0  0  0  0  0
   58.7970   30.1250   44.4320 C   0  0  0  0  0  0  0  0  0  0  0  0
   60.8670   29.1430   45.0840 O   0  0  0  0  0  0  0  0  0  0  0  0
  1  2  2  0
  2  3  1  0
  3  4  2  3
  4  5  1  0
  5  6  1  0
  6  7  1  0
  7  8  2  0
  7  9  1  0
  9 10  1  0
 10 11  1  0
  3 12  1  0
 12 13  2  0
 13 14  1  0
 14 15  2  0
 14 16  1  0
 16 17  1  0
 17 18  1  0
 18 19  1  0
 19 20  1  0
 20 21  1  0
 21 22  1  0
 22 23  1  0
 23 24  1  0
 24 25  1  0
 19 26  1  0
 26 27  1  0
 13 28  1  0
 28 29  1  0
 29 30  1  0
 29 31  2  0
 28  2  1  0
 10  5  2  0
 27 16  1  0
 25 20  1  0
M  CHG  4   6  -1   9  -1  11  -1  16   1
M  END
>  <UniqueID>  (2731) 
10

>  <SMILES>  (2731) 
C=c1c(=Cc2[n-]c(=O)[n-]c2[O-])cc(C(=O)[NH+]2CCN(C3CCCCC3)CC2)n1C(C)=O

>  <Energy>  (2731) 
154.15157705696592

>  <Genealogy>  (2731) 
C=c1c(=Cc2[n-]c(=O)[n-]c2[O-])cc(C(=O)[NH+]2CCN(C3CCCCC3)CC2)n1C(C)=O (protonated)
C=c1c(=Cc2[n-]c(=O)[n-]c2[O-])cc(C(=O)[NH+]2CCN(C3CCCCC3)CC2)n1C(C)=O (3D coordinates assigned)
C=c1c(=Cc2[n-]c(=O)[n-]c2[O-])cc(C(=O)[NH+]2CCN(C3CCCCC3)CC2)n1C(C)=O (nonaromatic ring conformer: 154.15157705696592 kcal/mol)

>  <smiles>  (2731) 
C=c1c(=Cc2[nH]c(=O)[nH]c2O)cc(C(=O)N2CCN(C3CCCCC3)CC2)n1C(C)=O

>  <score_type>  (2731) 
oracle

>  <origin>  (2731) 
adg

>  <m_score__min__energy>  (2731) 
-17.18

>  <m_primary>  (2731) 
energy

$$$$
20:0
     RDKit          3D

 23 25  0  0  0  0  0  0  0  0999 V2000
   60.1850   26.4880   46.5980 C   0  0  0  0  0  0  0  0  0  0  0  0
   59.6280   27.5530   46.0180 C   0  0  0  0  0  0  0  0  0  0  0  0
   60.1090   28.7620   46.1760 O   0  0  0  0  0  0  0  0  0  0  0  0
   59.3760   29.6080   45.4950 C   0  0  0  0  0  0  0  0  0  0  0  0
   58.3450   28.9410   44.8560 C   0  0  0  0  0  0  0  0  0  0  0  0
   57.5300   29.5840   43.7580 C   0  0  0  0  0  0  0  0  0  0  0  0
   56.5610   30.6380   44.3120 C   0  0  0  0  0  0  0  0  0  0  0  0
   57.2840   31.8760   44.7600 C   0  0  0  0  0  0  0  0  0  0  0  0
   57.3830   32.1530   46.0900 N   0  0  0  0  0  0  0  0  0  0  0  0
   58.0660   33.2350   46.5510 C   0  0  0  0  0  0  0  0  0  0  0  0
   58.1340   33.4530   47.7890 O   0  0  0  0  0  0  0  0  0  0  0  0
   58.6920   34.1010   45.6500 C   0  0  0  0  0  0  0  0  0  0  0  0
   58.6090   33.8380   44.2800 C   0  0  0  0  0  0  0  0  0  0  0  0
   57.9080   32.7180   43.8280 C   0  0  0  0  0  0  0  0  0  0  0  0
   58.4960   27.5900   45.1980 C   0  0  0  0  0  0  0  0  0  0  0  0
   57.7650   26.5190   44.8180 C   0  0  0  0  0  0  0  0  0  0  0  0
   57.1050   25.5730   45.7280 C   0  0  0  0  0  0  0  0  0  0  0  0
   57.7360   24.5370   46.3070 N   0  0  0  0  0  0  0  0  0  0  0  0
   56.8130   24.0500   47.1640 C   0  0  0  0  0  0  0  0  0  0  0  0
   57.0260   23.0430   47.8880 O   0  0  0  0  0  0  0  0  0  0  0  0
   55.6500   24.7360   47.1960 N   0  0  0  0  0  0  0  0  0  0  0  0
   55.8590   25.7080   46.2940 C   0  0  0  0  0  0  0  0  0  0  0  0
   54.9380   26.7080   46.0100 O   0  0  0  0  0  0  0  0  0  0  0  0
  1  2  2  0
  2  3  1  0
  3  4  1  0
  4  5  2  0
  5  6  1  0
  6  7  1  0
  7  8  1  0
  8  9  1  0
  9 10  1  0
 10 11  2  0
 10 12  1  0
 12 13  2  0
 13 14  1  0
  5 15  1  0
 15 16  2  0
 16 17  1  0
 17 18  1  0
 18 19  1  0
 19 20  2  0
 19 21  1  0
 21 22  1  0
 22 23  1  0
 15  2  1  0
 22 17  2  0
 14  8  2  0
M  CHG  4   9  -1  18  -1  21  -1  23  -1
M  END
>  <UniqueID>  (2732) 
21

>  <SMILES>  (2732) 
C=c1occ(CCc2cccc(=O)[n-]2)/c1=C\c1[n-]c(=O)[n-]c1[O-]

>  <Energy>  (2732) 
101.6442530865557

>  <Genealogy>  (2732) 
C=c1occ(CCc2cccc(=O)[n-]2)c1=Cc1[n-]c(=O)[n-]c1[O-] (protonated)
C=c1occ(CCc2cccc(=O)[n-]2)/c1=C\c1[n-]c(=O)[n-]c1[O-] (cis-trans isomerization)
C=c1occ(CCc2cccc(=O)[n-]2)/c1=C\c1[n-]c(=O)[n-]c1[O-] (3D coordinates assigned)
C=c1occ(CCc2cccc(=O)[n-]2)/c1=C\c1[n-]c(=O)[n-]c1[O-] (optimized conformer: 101.6442530865557 kcal/mol)

>  <smiles>  (2732) 
C=c1occ(CCc2cccc(=O)[nH]2)c1=Cc1[nH]c(=O)[nH]c1O

>  <score_type>  (2732) 
oracle

>  <origin>  (2732) 
adg

>  <m_score__min__energy>  (2732) 
-16.829999999999998

>  <m_primary>  (2732) 
energy

$$$$
36:0
     RDKit          3D

 37 40  0  0  0  0  0  0  0  0999 V2000
   57.1140   28.3140   56.1160 C   0  0  0  0  0  0  0  0  0  0  0  0
   57.0420   29.1430   55.0830 C   0  0  0  0  0  0  0  0  0  0  0  0
   57.7250   30.2350   54.6920 N   0  0  0  0  0  0  0  0  0  0  0  0
   56.9300   30.3500   53.6100 C   0  0  0  0  0  0  0  0  0  0  0  0
   56.8410   31.1940   52.5800 C   0  0  0  0  0  0  0  0  0  0  0  0
   57.9580   31.4270   51.6360 C   0  0  0  0  0  0  0  0  0  0  0  0
   58.3920   30.4330   50.7470 C   0  0  0  0  0  0  0  0  0  0  0  0
   57.7830   29.1790   50.7650 O   0  0  0  0  0  0  0  0  0  0  0  0
   59.4340   30.6740   49.8940 N   0  0  0  0  0  0  0  0  0  0  0  0
   59.8800   29.6030   48.9820 C   0  0  0  0  0  0  0  0  0  0  0  0
   59.7500   30.0560   47.5520 C   0  0  0  0  0  0  0  0  0  0  0  0
   60.5290   29.5760   46.6870 O   0  0  0  0  0  0  0  0  0  0  0  0
   58.6990   30.9320   47.1260 N   0  0  0  0  0  0  0  0  0  0  0  0
   58.8670   32.2470   46.5800 C   0  0  0  0  0  0  0  0  0  0  0  0
   60.1040   32.9120   46.6340 C   0  0  0  0  0  0  0  0  0  0  0  0
   60.2470   34.1820   46.0670 C   0  0  0  0  0  0  0  0  0  0  0  0
   59.1610   34.7870   45.4260 C   0  0  0  0  0  0  0  0  0  0  0  0
   59.3000   36.0190   44.8760 F   0  0  0  0  0  0  0  0  0  0  0  0
   57.9360   34.1190   45.3460 C   0  0  0  0  0  0  0  0  0  0  0  0
   57.7920   32.8490   45.9130 C   0  0  0  0  0  0  0  0  0  0  0  0
   60.0960   31.8760   49.9380 C   0  0  0  0  0  0  0  0  0  0  0  0
   61.0940   32.0680   49.1870 O   0  0  0  0  0  0  0  0  0  0  0  0
   59.6910   32.8660   50.7980 N   0  0  0  0  0  0  0  0  0  0  0  0
   60.4270   34.1430   50.8480 C   0  0  0  0  0  0  0  0  0  0  0  0
   58.6530   32.6420   51.6620 C   0  0  0  0  0  0  0  0  0  0  0  0
   58.3100   33.5350   52.4880 O   0  0  0  0  0  0  0  0  0  0  0  0
   56.2590   29.2420   53.9890 N   0  0  0  0  0  0  0  0  0  0  0  0
   55.1090   28.5100   53.4740 C   0  0  0  0  0  0  0  0  0  0  0  0
   54.1060   29.4760   52.9130 C   0  0  0  0  0  0  0  0  0  0  0  0
   53.1180   30.0310   53.7390 C   0  0  0  0  0  0  0  0  0  0  0  0
   52.2160   30.9690   53.2300 C   0  0  0  0  0  0  0  0  0  0  0  0
   52.2940   31.3760   51.8850 C   0  0  0  0  0  0  0  0  0  0  0  0
   51.3420   32.3700   51.3410 C   0  0  0  0  0  0  0  0  0  0  0  0
   51.4020   32.7200   50.1320 O   0  0  0  0  0  0  0  0  0  0  0  0
   50.3670   32.9310   52.1580 O   0  0  0  0  0  0  0  0  0  0  0  0
   53.2950   30.8290   51.0640 C   0  0  0  0  0  0  0  0  0  0  0  0
   54.1960   29.8900   51.5750 C   0  0  0  0  0  0  0  0  0  0  0  0
  1  2  2  0
  2  3  1  0
  3  4  1  0
  4  5  2  0
  5  6  1  0
  6  7  2  0
  7  8  1  0
  7  9  1  0
  9 10  1  0
 10 11  1  0
 11 12  2  0
 11 13  1  0
 13 14  1  0
 14 15  2  0
 15 16  1  0
 16 17  2  0
 17 18  1  0
 17 19  1  0
 19 20  2  0
  9 21  1  0
 21 22  2  0
 21 23  1  0
 23 24  1  0
 23 25  1  0
 25 26  2  0
  4 27  1  0
 27 28  1  0
 28 29  1  0
 29 30  2  0
 30 31  1  0
 31 32  2  0
 32 33  1  0
 33 34  2  0
 33 35  1  0
 32 36  1  0
 36 37  2  0
 27  2  1  0
 37 29  1  0
 25  6  1  0
 20 14  1  0
M  CHG  4   3  -1   8  -1  13  -1  35  -1
M  END
>  <UniqueID>  (2733) 
37

>  <SMILES>  (2733) 
C=c1[n-]/c(=C\c2c([O-])n(CC(=O)[N-]c3ccc(F)cc3)c(=O)n(C)c2=O)n1Cc1ccc(C(=O)[O-])cc1

>  <Energy>  (2733) 
65.35611250030989

>  <Genealogy>  (2733) 
C=c1[n-]c(=Cc2c([O-])n(CC(=O)[N-]c3ccc(F)cc3)c(=O)n(C)c2=O)n1Cc1ccc(C(=O)[O-])cc1 (protonated)
C=c1[n-]/c(=C\c2c([O-])n(CC(=O)[N-]c3ccc(F)cc3)c(=O)n(C)c2=O)n1Cc1ccc(C(=O)[O-])cc1 (cis-trans isomerization)
C=c1[n-]/c(=C\c2c([O-])n(CC(=O)[N-]c3ccc(F)cc3)c(=O)n(C)c2=O)n1Cc1ccc(C(=O)[O-])cc1 (3D coordinates assigned)
C=c1[n-]/c(=C\c2c([O-])n(CC(=O)[N-]c3ccc(F)cc3)c(=O)n(C)c2=O)n1Cc1ccc(C(=O)[O-])cc1 (optimized conformer: 65.35611250030989 kcal/mol)

>  <smiles>  (2733) 
C=c1[nH]c(=Cc2c(O)n(CC(=O)Nc3ccc(F)cc3)c(=O)n(C)c2=O)n1Cc1ccc(C(=O)O)cc1

>  <score_type>  (2733) 
oracle

>  <origin>  (2733) 
adg

>  <m_score__min__energy>  (2733) 
-14.800000000000001

>  <m_primary>  (2733) 
energy

$$$$
40:0
     RDKit          3D

 32 35  0  0  0  0  0  0  0  0999 V2000
   56.6940   29.4350   43.5070 C   0  0  0  0  0  0  0  0  0  0  0  0
   57.5220   29.2340   44.5490 C   0  0  0  0  0  0  0  0  0  0  0  0
   58.1660   27.9760   44.8200 C   0  0  0  0  0  0  0  0  0  0  0  0
   57.7330   26.7850   44.3240 C   0  0  0  0  0  0  0  0  0  0  0  0
   57.2950   25.6330   45.1400 C   0  0  0  0  0  0  0  0  0  0  0  0
   57.9560   24.4600   45.2090 N   0  0  0  0  0  0  0  0  0  0  0  0
   57.1910   23.6430   45.9650 C   0  0  0  0  0  0  0  0  0  0  0  0
   57.5840   22.2300   46.2620 C   0  0  0  0  0  0  0  0  0  0  0  0
   56.0120   24.2770   46.3540 C   0  0  0  0  0  0  0  0  0  0  0  0
   54.8910   23.7020   47.1360 C   0  0  0  0  0  0  0  0  0  0  0  0
   53.7200   23.7390   46.6760 O   0  0  0  0  0  0  0  0  0  0  0  0
   55.1090   23.1000   48.4890 C   0  0  0  0  0  0  0  0  0  0  0  0
   56.0970   25.5460   45.8130 C   0  0  0  0  0  0  0  0  0  0  0  0
   55.1490   26.5610   45.9120 O   0  0  0  0  0  0  0  0  0  0  0  0
   59.3070   28.0030   45.6960 C   0  0  0  0  0  0  0  0  0  0  0  0
   60.1410   26.7840   45.9860 C   0  0  0  0  0  0  0  0  0  0  0  0
   59.6290   29.1440   46.3690 N   0  0  0  0  0  0  0  0  0  0  0  0
   58.8940   30.2590   46.1870 C   0  0  0  0  0  0  0  0  0  0  0  0
   59.0980   31.4980   46.7430 C   0  0  0  0  0  0  0  0  0  0  0  0
   58.1290   32.2840   46.1210 C   0  0  0  0  0  0  0  0  0  0  0  0
   57.9560   33.7390   46.3180 C   0  0  0  0  0  0  0  0  0  0  0  0
   56.8730   34.2730   45.9620 O   0  0  0  0  0  0  0  0  0  0  0  0
   58.9580   34.5710   46.9260 N   0  0  0  0  0  0  0  0  0  0  0  0
   59.5770   34.3980   48.2380 C   0  0  0  0  0  0  0  0  0  0  0  0
   61.0360   34.0500   48.0960 C   0  0  0  0  0  0  0  0  0  0  0  0
   61.8340   33.8980   49.2440 C   0  0  0  0  0  0  0  0  0  0  0  0
   63.1880   33.5720   49.1250 C   0  0  0  0  0  0  0  0  0  0  0  0
   63.7570   33.3960   47.8600 C   0  0  0  0  0  0  0  0  0  0  0  0
   62.9700   33.5400   46.7130 C   0  0  0  0  0  0  0  0  0  0  0  0
   61.6120   33.8560   46.8290 C   0  0  0  0  0  0  0  0  0  0  0  0
   57.4200   31.5380   45.2430 N   0  0  0  0  0  0  0  0  0  0  0  0
   57.8910   30.3040   45.3080 N   0  0  0  0  0  0  0  0  0  0  0  0
  1  2  2  0
  2  3  1  0
  3  4  2  0
  4  5  1  0
  5  6  1  0
  6  7  1  0
  7  8  1  0
  7  9  2  0
  9 10  1  0
 10 11  2  0
 10 12  1  0
  9 13  1  0
 13 14  1  0
  3 15  1  0
 15 16  1  0
 15 17  2  0
 17 18  1  0
 18 19  2  0
 19 20  1  0
 20 21  1  0
 21 22  2  0
 21 23  1  0
 23 24  1  0
 24 25  1  0
 25 26  2  0
 26 27  1  0
 27 28  2  0
 28 29  1  0
 29 30  2  0
 20 31  2  0
 31 32  1  0
 32  2  1  0
 13  5  2  0
 32 18  1  0
 30 25  1  0
M  CHG  3   6  -1  14  -1  23  -1
M  END
>  <UniqueID>  (2734) 
41

>  <SMILES>  (2734) 
C=c1/c(=C\c2[n-]c(C)c(C(C)=O)c2[O-])c(C)nc2cc(C(=O)[N-]Cc3ccccc3)nn12

>  <Energy>  (2734) 
139.302228593735

>  <Genealogy>  (2734) 
C=c1c(=Cc2[n-]c(C)c(C(C)=O)c2[O-])c(C)nc2cc(C(=O)[N-]Cc3ccccc3)nn12 (protonated)
C=c1/c(=C\c2[n-]c(C)c(C(C)=O)c2[O-])c(C)nc2cc(C(=O)[N-]Cc3ccccc3)nn12 (cis-trans isomerization)
C=c1/c(=C\c2[n-]c(C)c(C(C)=O)c2[O-])c(C)nc2cc(C(=O)[N-]Cc3ccccc3)nn12 (3D coordinates assigned)
C=c1/c(=C\c2[n-]c(C)c(C(C)=O)c2[O-])c(C)nc2cc(C(=O)[N-]Cc3ccccc3)nn12 (optimized conformer: 139.302228593735 kcal/mol)

>  <smiles>  (2734) 
C=c1c(=Cc2[nH]c(C)c(C(C)=O)c2O)c(C)nc2cc(C(=O)NCc3ccccc3)nn12

>  <score_type>  (2734) 
oracle

>  <origin>  (2734) 
adg

>  <m_score__min__energy>  (2734) 
-14.52

>  <m_primary>  (2734) 
energy

$$$$
45:0
     RDKit          3D

 25 27  0  0  0  0  0  0  0  0999 V2000
   60.2240   28.0610   45.5020 C   0  0  0  0  0  0  0  0  0  0  0  0
   59.1150   28.8180   45.4370 C   0  0  0  0  0  0  0  0  0  0  0  0
   59.2320   30.1730   45.8010 C   0  0  0  0  0  0  0  0  0  0  0  0
   58.2000   31.0810   45.5510 C   0  0  0  0  0  0  0  0  0  0  0  0
   58.3570   32.4680   45.9010 N   0  0  0  0  0  0  0  0  0  0  0  0
   57.9480   32.9490   47.2230 C   0  0  0  0  0  0  0  0  0  0  0  0
   58.9690   33.9570   47.7920 C   0  0  0  0  0  0  0  0  0  0  0  0
   59.7050   34.7380   46.7580 N   0  0  0  0  0  0  0  0  0  0  0  0
   61.0760   34.2250   46.5690 C   0  0  0  0  0  0  0  0  0  0  0  0
   58.9740   34.8230   45.4730 C   0  0  0  0  0  0  0  0  0  0  0  0
   58.7320   33.4340   44.8640 C   0  0  0  0  0  0  0  0  0  0  0  0
   57.0380   30.6180   44.9240 C   0  0  0  0  0  0  0  0  0  0  0  0
   56.1100   31.4140   44.6200 O   0  0  0  0  0  0  0  0  0  0  0  0
   56.9040   29.3000   44.6370 N   0  0  0  0  0  0  0  0  0  0  0  0
   57.8590   28.3680   44.9130 C   0  0  0  0  0  0  0  0  0  0  0  0
   57.5100   27.0810   44.6840 C   0  0  0  0  0  0  0  0  0  0  0  0
   57.3110   26.0190   45.6970 C   0  0  0  0  0  0  0  0  0  0  0  0
   56.0700   25.8830   46.3380 C   0  0  0  0  0  0  0  0  0  0  0  0
   55.0040   26.7070   45.9960 O   0  0  0  0  0  0  0  0  0  0  0  0
   55.9000   24.9330   47.2930 N   0  0  0  0  0  0  0  0  0  0  0  0
   56.9180   24.1150   47.6580 C   0  0  0  0  0  0  0  0  0  0  0  0
   56.7350   23.2380   48.5410 O   0  0  0  0  0  0  0  0  0  0  0  0
   58.1370   24.2450   47.0760 N   0  0  0  0  0  0  0  0  0  0  0  0
   58.3610   25.1800   46.1160 C   0  0  0  0  0  0  0  0  0  0  0  0
   59.5140   25.2920   45.6210 O   0  0  0  0  0  0  0  0  0  0  0  0
  1  2  2  0
  2  3  1  0
  3  4  2  0
  4  5  1  0
  5  6  1  0
  6  7  1  0
  7  8  1  0
  8  9  1  0
  8 10  1  0
 10 11  1  0
  4 12  1  0
 12 13  2  0
 12 14  1  0
 14 15  1  0
 15 16  2  3
 16 17  1  0
 17 18  2  0
 18 19  1  0
 18 20  1  0
 20 21  1  0
 21 22  2  0
 21 23  1  0
 23 24  1  0
 24 25  2  0
 15  2  1  0
 24 17  1  0
 11  5  1  0
M  CHG  5   8   1  14  -1  19  -1  20  -1  23  -1
M  END
>  <UniqueID>  (2735) 
46

>  <SMILES>  (2735) 
C=c1cc(N2CC[NH+](C)CC2)c(=O)[n-]c1=Cc1c([O-])[n-]c(=O)[n-]c1=O

>  <Energy>  (2735) 
79.18965744695498

>  <Genealogy>  (2735) 
C=c1cc(N2CC[NH+](C)CC2)c(=O)[n-]c1=Cc1c([O-])[n-]c(=O)[n-]c1=O (protonated)
C=c1cc(N2CC[NH+](C)CC2)c(=O)[n-]c1=Cc1c([O-])[n-]c(=O)[n-]c1=O (3D coordinates assigned)
C=c1cc(N2CC[NH+](C)CC2)c(=O)[n-]c1=Cc1c([O-])[n-]c(=O)[n-]c1=O (nonaromatic ring conformer: 79.18965744695498 kcal/mol)

>  <smiles>  (2735) 
C=c1cc(N2CCN(C)CC2)c(=O)[nH]c1=Cc1c(O)[nH]c(=O)[nH]c1=O

>  <score_type>  (2735) 
oracle

>  <origin>  (2735) 
adg

>  <m_score__min__energy>  (2735) 
-15.18

>  <m_primary>  (2735) 
energy

$$$$
49:0
     RDKit          3D

 37 41  0  0  0  0  0  0  0  0999 V2000
   51.9090   29.8100   49.7440 O   0  0  0  0  0  0  0  0  0  0  0  0
   52.3610   30.1330   50.8750 C   0  0  0  0  0  0  0  0  0  0  0  0
   53.4530   29.4100   51.4650 N   0  0  0  0  0  0  0  0  0  0  0  0
   54.5430   29.8810   52.0070 C   0  0  0  0  0  0  0  0  0  0  0  0
   55.4830   29.0670   52.6740 C   0  0  0  0  0  0  0  0  0  0  0  0
   56.6500   29.6400   53.2020 C   0  0  0  0  0  0  0  0  0  0  0  0
   57.6950   28.7710   53.8510 C   0  0  0  0  0  0  0  0  0  0  0  0
   59.0670   29.3170   53.5610 C   0  0  0  0  0  0  0  0  0  0  0  0
   59.8260   29.9090   54.5830 C   0  0  0  0  0  0  0  0  0  0  0  0
   61.0770   30.4630   54.2990 C   0  0  0  0  0  0  0  0  0  0  0  0
   61.5670   30.4560   52.9900 C   0  0  0  0  0  0  0  0  0  0  0  0
   60.8030   29.9000   51.9520 C   0  0  0  0  0  0  0  0  0  0  0  0
   61.3040   29.9280   50.5620 C   0  0  0  0  0  0  0  0  0  0  0  0
   62.5440   29.8240   50.3600 O   0  0  0  0  0  0  0  0  0  0  0  0
   60.4090   30.0990   49.4450 N   0  0  0  0  0  0  0  0  0  0  0  0
   60.7470   29.5480   48.1300 C   0  0  0  0  0  0  0  0  0  0  0  0
   60.7520   30.6860   47.1100 C   0  0  0  0  0  0  0  0  0  0  0  0
   59.4480   31.3920   47.0430 N   0  0  0  0  0  0  0  0  0  0  0  0
   59.5770   32.7840   46.5360 C   0  0  0  0  0  0  0  0  0  0  0  0
   58.6240   33.0380   45.3490 C   0  0  0  0  0  0  0  0  0  0  0  0
   58.3840   34.5440   45.1380 C   0  0  0  0  0  0  0  0  0  0  0  0
   59.4930   35.2940   45.5920 O   0  0  0  0  0  0  0  0  0  0  0  0
   59.5500   35.2820   47.0110 C   0  0  0  0  0  0  0  0  0  0  0  0
   59.3970   33.8670   47.6220 C   0  0  0  0  0  0  0  0  0  0  0  0
   58.5440   31.1960   48.2070 C   0  0  0  0  0  0  0  0  0  0  0  0
   59.2930   31.0520   49.5450 C   0  0  0  0  0  0  0  0  0  0  0  0
   59.5660   29.3100   52.2480 C   0  0  0  0  0  0  0  0  0  0  0  0
   56.8730   31.0130   53.0410 C   0  0  0  0  0  0  0  0  0  0  0  0
   55.9260   31.7880   52.3710 C   0  0  0  0  0  0  0  0  0  0  0  0
   54.8020   31.2100   51.8720 N   0  0  0  0  0  0  0  0  0  0  0  0
   51.7020   31.2080   51.6300 C   0  0  0  0  0  0  0  0  0  0  0  0
   51.5610   31.2030   52.9670 N   0  0  0  0  0  0  0  0  0  0  0  0
   50.8850   32.3450   53.2140 C   0  0  0  0  0  0  0  0  0  0  0  0
   50.5510   32.6980   54.3740 O   0  0  0  0  0  0  0  0  0  0  0  0
   50.5840   33.0740   52.1180 N   0  0  0  0  0  0  0  0  0  0  0  0
   51.1040   32.3400   51.1230 C   0  0  0  0  0  0  0  0  0  0  0  0
   51.0340   32.7000   49.7830 O   0  0  0  0  0  0  0  0  0  0  0  0
  1  2  2  0
  2  3  1  0
  3  4  2  3
  4  5  1  0
  5  6  2  0
  6  7  1  0
  7  8  1  0
  8  9  2  0
  9 10  1  0
 10 11  2  0
 11 12  1  0
 12 13  1  0
 13 14  2  0
 13 15  1  0
 15 16  1  0
 16 17  1  0
 17 18  1  0
 18 19  1  0
 19 20  1  0
 20 21  1  0
 21 22  1  0
 22 23  1  0
 23 24  1  0
 18 25  1  0
 25 26  1  0
 12 27  2  0
  6 28  1  0
 28 29  2  0
 29 30  1  0
  2 31  1  0
 31 32  1  0
 32 33  1  0
 33 34  2  0
 33 35  1  0
 35 36  1  0
 36 37  1  0
 30  4  1  0
 36 31  2  0
 27  8  1  0
 26 15  1  0
 24 19  1  0
M  CHG  4  30  -1  32  -1  35  -1  37  -1
M  END
>  <UniqueID>  (2736) 
50

>  <SMILES>  (2736) 
O=C(N=c1cc(Cc2cccc(C(=O)N3CCN(C4CCOCC4)CC3)c2)cc[n-]1)c1[n-]c(=O)[n-]c1[O-]

>  <Energy>  (2736) 
123.04648456867167

>  <Genealogy>  (2736) 
O=C(N=c1cc(Cc2cccc(C(=O)N3CCN(C4CCOCC4)CC3)c2)cc[n-]1)c1[n-]c(=O)[n-]c1[O-] (protonated)
O=C(N=c1cc(Cc2cccc(C(=O)N3CCN(C4CCOCC4)CC3)c2)cc[n-]1)c1[n-]c(=O)[n-]c1[O-] (3D coordinates assigned)
O=C(N=c1cc(Cc2cccc(C(=O)N3CCN(C4CCOCC4)CC3)c2)cc[n-]1)c1[n-]c(=O)[n-]c1[O-] (nonaromatic ring conformer: 123.04648456867167 kcal/mol)

>  <smiles>  (2736) 
O=C(N=c1cc(Cc2cccc(C(=O)N3CCN(C4CCOCC4)CC3)c2)cc[nH]1)c1[nH]c(=O)[nH]c1O

>  <score_type>  (2736) 
oracle

>  <origin>  (2736) 
adg

>  <m_score__min__energy>  (2736) 
-20.109999999999999

>  <m_primary>  (2736) 
energy

$$$$
50:0
     RDKit          3D

 29 32  0  0  0  0  0  0  0  0999 V2000
   54.9020   26.7050   46.0830 O   0  0  0  0  0  0  0  0  0  0  0  0
   55.9990   25.9060   46.3880 C   0  0  0  0  0  0  0  0  0  0  0  0
   55.9720   24.5630   46.3670 N   0  0  0  0  0  0  0  0  0  0  0  0
   57.2510   24.2370   46.6540 C   0  0  0  0  0  0  0  0  0  0  0  0
   57.6460   23.0430   46.7250 O   0  0  0  0  0  0  0  0  0  0  0  0
   58.0740   25.2890   46.8490 N   0  0  0  0  0  0  0  0  0  0  0  0
   57.2640   26.3510   46.7020 C   0  0  0  0  0  0  0  0  0  0  0  0
   57.7420   27.7450   46.7520 C   0  0  0  0  0  0  0  0  0  0  0  0
   57.4850   28.6680   45.8140 C   0  0  0  0  0  0  0  0  0  0  0  0
   57.9610   29.9710   45.7720 C   0  0  0  0  0  0  0  0  0  0  0  0
   57.4700   30.5270   44.6050 C   0  0  0  0  0  0  0  0  0  0  0  0
   57.7410   31.9050   44.1460 C   0  0  0  0  0  0  0  0  0  0  0  0
   57.5400   32.1830   42.9320 O   0  0  0  0  0  0  0  0  0  0  0  0
   58.2010   32.9320   45.0470 N   0  0  0  0  0  0  0  0  0  0  0  0
   57.6830   33.0170   46.4180 C   0  0  0  0  0  0  0  0  0  0  0  0
   58.7950   33.4510   47.3910 C   0  0  0  0  0  0  0  0  0  0  0  0
   59.7340   34.4690   46.8420 N   0  0  0  0  0  0  0  0  0  0  0  0
   61.1120   33.9550   46.6980 C   0  0  0  0  0  0  0  0  0  0  0  0
   61.3680   32.8400   47.6780 C   0  0  0  0  0  0  0  0  0  0  0  0
   61.7980   33.1210   48.9870 C   0  0  0  0  0  0  0  0  0  0  0  0
   62.0440   32.0770   49.8850 C   0  0  0  0  0  0  0  0  0  0  0  0
   61.8630   30.7510   49.4850 C   0  0  0  0  0  0  0  0  0  0  0  0
   61.4360   30.4650   48.1860 C   0  0  0  0  0  0  0  0  0  0  0  0
   61.1900   31.5040   47.2840 C   0  0  0  0  0  0  0  0  0  0  0  0
   59.2530   35.1070   45.5980 C   0  0  0  0  0  0  0  0  0  0  0  0
   58.9570   34.0670   44.5070 C   0  0  0  0  0  0  0  0  0  0  0  0
   56.6980   29.5460   43.9950 C   0  0  0  0  0  0  0  0  0  0  0  0
   55.9740   29.6780   42.8820 C   0  0  0  0  0  0  0  0  0  0  0  0
   56.7280   28.4140   44.7250 N   0  0  0  0  0  0  0  0  0  0  0  0
  1  2  1  0
  2  3  1  0
  3  4  1  0
  4  5  2  0
  4  6  1  0
  6  7  1  0
  7  8  1  0
  8  9  2  0
  9 10  1  0
 10 11  2  0
 11 12  1  0
 12 13  2  0
 12 14  1  0
 14 15  1  0
 15 16  1  0
 16 17  1  0
 17 18  1  0
 18 19  1  0
 19 20  2  0
 20 21  1  0
 21 22  2  0
 22 23  1  0
 23 24  2  0
 17 25  1  0
 25 26  1  0
 11 27  1  0
 27 28  2  0
 27 29  1  0
  7  2  2  0
 29  9  1  0
 26 14  1  0
 24 19  1  0
M  CHG  2   3  -1   6  -1
M  END
>  <UniqueID>  (2737) 
51

>  <SMILES>  (2737) 
C=c1[nH]/c(=C/c2[n-]c(=O)[n-]c2O)cc1C(=O)N1CCN(Cc2ccccc2)CC1

>  <Energy>  (2737) 
126.18951195806882

>  <Genealogy>  (2737) 
C=c1[nH]c(=Cc2[n-]c(=O)[n-]c2O)cc1C(=O)N1CCN(Cc2ccccc2)CC1 (protonated)
C=c1[nH]/c(=C/c2[n-]c(=O)[n-]c2O)cc1C(=O)N1CCN(Cc2ccccc2)CC1 (cis-trans isomerization)
C=c1[nH]/c(=C/c2[n-]c(=O)[n-]c2O)cc1C(=O)N1CCN(Cc2ccccc2)CC1 (3D coordinates assigned)
C=c1[nH]/c(=C/c2[n-]c(=O)[n-]c2O)cc1C(=O)N1CCN(Cc2ccccc2)CC1 (nonaromatic ring conformer: 126.18951195806882 kcal/mol)

>  <smiles>  (2737) 
C=c1[nH]c(=Cc2[nH]c(=O)[nH]c2O)cc1C(=O)N1CCN(Cc2ccccc2)CC1

>  <score_type>  (2737) 
oracle

>  <origin>  (2737) 
adg

>  <m_score__min__energy>  (2737) 
-15.050000000000001

>  <m_primary>  (2737) 
energy

$$$$
65:0
     RDKit          3D

 25 27  0  0  0  0  0  0  0  0999 V2000
   60.2160   26.9680   48.8090 O   0  0  0  0  0  0  0  0  0  0  0  0
   59.8680   27.3810   47.6710 C   0  0  0  0  0  0  0  0  0  0  0  0
   59.3080   26.4020   46.6690 C   0  0  0  0  0  0  0  0  0  0  0  0
   57.9020   26.7530   46.2760 C   0  0  0  0  0  0  0  0  0  0  0  0
   56.7830   25.9690   46.4590 C   0  0  0  0  0  0  0  0  0  0  0  0
   55.7260   26.7280   45.9990 C   0  0  0  0  0  0  0  0  0  0  0  0
   54.4030   26.3120   45.9960 O   0  0  0  0  0  0  0  0  0  0  0  0
   56.1200   27.9370   45.5510 N   0  0  0  0  0  0  0  0  0  0  0  0
   57.4560   27.9420   45.7320 C   0  0  0  0  0  0  0  0  0  0  0  0
   58.2650   29.0250   45.4060 O   0  0  0  0  0  0  0  0  0  0  0  0
   60.1910   28.7290   47.3060 N   0  0  0  0  0  0  0  0  0  0  0  0
   59.7840   29.9210   47.9880 C   0  0  0  0  0  0  0  0  0  0  0  0
   59.1320   29.8100   49.2210 C   0  0  0  0  0  0  0  0  0  0  0  0
   58.6900   30.9540   49.8920 C   0  0  0  0  0  0  0  0  0  0  0  0
   58.8850   32.2160   49.3260 C   0  0  0  0  0  0  0  0  0  0  0  0
   59.5150   32.3410   48.0810 C   0  0  0  0  0  0  0  0  0  0  0  0
   59.7750   33.9350   47.3710 S   0  0  0  0  0  0  0  0  0  0  0  0
   59.8820   34.9550   48.4720 O   0  0  0  0  0  0  0  0  0  0  0  0
   61.0740   33.9330   46.6150 O   0  0  0  0  0  0  0  0  0  0  0  0
   58.4700   34.3930   46.2950 N   0  0  0  0  0  0  0  0  0  0  0  0
   57.3450   33.4600   46.4030 C   0  0  0  0  0  0  0  0  0  0  0  0
   57.4550   32.4500   45.2730 C   0  0  0  0  0  0  0  0  0  0  0  0
   58.3920   33.0730   44.2580 C   0  0  0  0  0  0  0  0  0  0  0  0
   58.8980   34.3620   44.8930 C   0  0  0  0  0  0  0  0  0  0  0  0
   59.9440   31.1890   47.4060 C   0  0  0  0  0  0  0  0  0  0  0  0
  1  2  2  0
  2  3  1  0
  3  4  1  0
  4  5  1  0
  5  6  2  0
  6  7  1  0
  6  8  1  0
  8  9  1  0
  9 10  1  0
  2 11  1  0
 11 12  1  0
 12 13  2  0
 13 14  1  0
 14 15  2  0
 15 16  1  0
 16 17  1  0
 17 18  2  0
 17 19  2  0
 17 20  1  0
 20 21  1  0
 21 22  1  0
 22 23  1  0
 23 24  1  0
 16 25  2  0
  9  4  2  0
 25 12  1  0
 24 20  1  0
M  CHG  3   7  -1   8  -1  11  -1
M  END
>  <UniqueID>  (2738) 
66

>  <SMILES>  (2738) 
O=C(Cc1cc([O-])[n-]c1O)[N-]c1cccc(S(=O)(=O)N2CCCC2)c1

>  <Energy>  (2738) 
70.65103455002134

>  <Genealogy>  (2738) 
O=C(Cc1cc([O-])[n-]c1O)[N-]c1cccc(S(=O)(=O)N2CCCC2)c1 (protonated)
O=C(Cc1cc([O-])[n-]c1O)[N-]c1cccc(S(=O)(=O)N2CCCC2)c1 (3D coordinates assigned)
O=C(Cc1cc([O-])[n-]c1O)[N-]c1cccc(S(=O)(=O)N2CCCC2)c1 (nonaromatic ring conformer: 70.65103455002134 kcal/mol)

>  <smiles>  (2738) 
O=C(Cc1cc(O)[nH]c1O)Nc1cccc(S(=O)(=O)N2CCCC2)c1

>  <score_type>  (2738) 
oracle

>  <origin>  (2738) 
adg

>  <m_score__min__energy>  (2738) 
-16.75

>  <m_primary>  (2738) 
energy

$$$$
67:0
     RDKit          3D

 35 39  0  0  0  0  0  0  0  0999 V2000
   51.8050   30.3400   49.6140 O   0  0  0  0  0  0  0  0  0  0  0  0
   51.5100   31.0890   50.7520 C   0  0  0  0  0  0  0  0  0  0  0  0
   51.0210   32.3390   50.7020 N   0  0  0  0  0  0  0  0  0  0  0  0
   50.9600   32.6910   52.0030 C   0  0  0  0  0  0  0  0  0  0  0  0
   50.5530   33.8190   52.3820 O   0  0  0  0  0  0  0  0  0  0  0  0
   51.3810   31.7400   52.8670 N   0  0  0  0  0  0  0  0  0  0  0  0
   51.7100   30.7130   52.0650 C   0  0  0  0  0  0  0  0  0  0  0  0
   52.2700   29.4460   52.5680 C   0  0  0  0  0  0  0  0  0  0  0  0
   53.5830   29.2530   52.8010 C   0  0  0  0  0  0  0  0  0  0  0  0
   54.6300   29.9020   52.1640 C   0  0  0  0  0  0  0  0  0  0  0  0
   55.7980   29.3710   52.6750 C   0  0  0  0  0  0  0  0  0  0  0  0
   57.1730   29.8230   52.2590 C   0  0  0  0  0  0  0  0  0  0  0  0
   57.3040   31.3210   52.3620 C   0  0  0  0  0  0  0  0  0  0  0  0
   56.3010   31.9980   52.7230 O   0  0  0  0  0  0  0  0  0  0  0  0
   58.5570   31.9890   52.1090 N   0  0  0  0  0  0  0  0  0  0  0  0
   59.8290   31.2850   52.3300 C   0  0  0  0  0  0  0  0  0  0  0  0
   61.0170   32.2490   52.2200 C   0  0  0  0  0  0  0  0  0  0  0  0
   60.9340   33.0680   50.9930 N   0  0  0  0  0  0  0  0  0  0  0  0
   61.2320   32.2730   49.7800 C   0  0  0  0  0  0  0  0  0  0  0  0
   60.6060   32.9090   48.5670 C   0  0  0  0  0  0  0  0  0  0  0  0
   61.2370   33.9870   47.9220 C   0  0  0  0  0  0  0  0  0  0  0  0
   60.6550   34.5750   46.7940 C   0  0  0  0  0  0  0  0  0  0  0  0
   59.4370   34.0910   46.3000 C   0  0  0  0  0  0  0  0  0  0  0  0
   58.8290   34.6610   45.1740 C   0  0  0  0  0  0  0  0  0  0  0  0
   57.6140   34.1530   44.7090 C   0  0  0  0  0  0  0  0  0  0  0  0
   57.0170   33.0780   45.3730 C   0  0  0  0  0  0  0  0  0  0  0  0
   57.6170   32.5320   46.4650 N   0  0  0  0  0  0  0  0  0  0  0  0
   58.8000   33.0050   46.9430 C   0  0  0  0  0  0  0  0  0  0  0  0
   59.3880   32.4210   48.0700 C   0  0  0  0  0  0  0  0  0  0  0  0
   59.6600   33.8320   50.8700 C   0  0  0  0  0  0  0  0  0  0  0  0
   58.5780   33.4420   51.8960 C   0  0  0  0  0  0  0  0  0  0  0  0
   55.5210   28.4390   53.6180 N   0  0  0  0  0  0  0  0  0  0  0  0
   56.4940   27.6420   54.3730 C   0  0  0  0  0  0  0  0  0  0  0  0
   54.1670   28.3370   53.6810 C   0  0  0  0  0  0  0  0  0  0  0  0
   53.5140   27.4730   54.4740 C   0  0  0  0  0  0  0  0  0  0  0  0
  1  2  1  0
  2  3  1  0
  3  4  1  0
  4  5  2  0
  4  6  1  0
  6  7  1  0
  7  8  1  0
  8  9  2  0
  9 10  1  0
 10 11  2  0
 11 12  1  0
 12 13  1  0
 13 14  2  0
 13 15  1  0
 15 16  1  0
 16 17  1  0
 17 18  1  0
 18 19  1  0
 19 20  1  0
 20 21  2  0
 21 22  1  0
 22 23  2  0
 23 24  1  0
 24 25  2  0
 25 26  1  0
 26 27  2  0
 27 28  1  0
 28 29  2  0
 18 30  1  0
 30 31  1  0
 11 32  1  0
 32 33  1  0
 32 34  1  0
 34 35  2  0
  7  2  2  0
 34  9  1  0
 31 15  1  0
 29 20  1  0
 28 23  1  0
M  CHG  2   3  -1   6  -1
M  END
>  <UniqueID>  (2739) 
68

>  <SMILES>  (2739) 
C=c1/c(=C/c2[n-]c(=O)[n-]c2O)cc(CC(=O)N2CCN(Cc3ccc4cccnc4c3)CC2)n1C

>  <Energy>  (2739) 
142.62406995008706

>  <Genealogy>  (2739) 
C=c1c(=Cc2[n-]c(=O)[n-]c2O)cc(CC(=O)N2CCN(Cc3ccc4cccnc4c3)CC2)n1C (protonated)
C=c1/c(=C/c2[n-]c(=O)[n-]c2O)cc(CC(=O)N2CCN(Cc3ccc4cccnc4c3)CC2)n1C (cis-trans isomerization)
C=c1/c(=C/c2[n-]c(=O)[n-]c2O)cc(CC(=O)N2CCN(Cc3ccc4cccnc4c3)CC2)n1C (3D coordinates assigned)
C=c1/c(=C/c2[n-]c(=O)[n-]c2O)cc(CC(=O)N2CCN(Cc3ccc4cccnc4c3)CC2)n1C (nonaromatic ring conformer: 142.62406995008706 kcal/mol)

>  <smiles>  (2739) 
C=c1c(=Cc2[nH]c(=O)[nH]c2O)cc(CC(=O)N2CCN(Cc3ccc4cccnc4c3)CC2)n1C

>  <score_type>  (2739) 
oracle

>  <origin>  (2739) 
adg

>  <m_score__min__energy>  (2739) 
-15.25

>  <m_primary>  (2739) 
energy

$$$$
74:0
     RDKit          3D

 30 33  0  0  0  0  0  0  0  0999 V2000
   58.2250   27.0780   42.6660 C   0  0  0  0  0  0  0  0  0  0  0  0
   58.4300   28.0450   43.7630 N   0  0  0  0  0  0  0  0  0  0  0  0
   57.3010   28.9980   43.8240 C   0  0  0  0  0  0  0  0  0  0  0  0
   57.7570   30.3270   44.3690 C   0  0  0  0  0  0  0  0  0  0  0  0
   58.1880   30.4460   45.6990 C   0  0  0  0  0  0  0  0  0  0  0  0
   58.5950   31.6850   46.2010 C   0  0  0  0  0  0  0  0  0  0  0  0
   58.5860   32.8230   45.3770 C   0  0  0  0  0  0  0  0  0  0  0  0
   59.0180   34.1640   45.9170 C   0  0  0  0  0  0  0  0  0  0  0  0
   59.6830   34.0250   47.2650 C   0  0  0  0  0  0  0  0  0  0  0  0
   58.8930   34.0930   48.3710 N   0  0  0  0  0  0  0  0  0  0  0  0
   59.3870   34.0100   49.6050 N   0  0  0  0  0  0  0  0  0  0  0  0
   60.7130   33.8580   49.8330 C   0  0  0  0  0  0  0  0  0  0  0  0
   61.1300   33.7860   51.0220 O   0  0  0  0  0  0  0  0  0  0  0  0
   61.6010   33.7850   48.7480 C   0  0  0  0  0  0  0  0  0  0  0  0
   62.9860   33.6320   48.9430 C   0  0  0  0  0  0  0  0  0  0  0  0
   63.8480   33.5640   47.8490 C   0  0  0  0  0  0  0  0  0  0  0  0
   63.3430   33.6440   46.5520 C   0  0  0  0  0  0  0  0  0  0  0  0
   61.9710   33.7940   46.3390 C   0  0  0  0  0  0  0  0  0  0  0  0
   61.0810   33.8690   47.4310 C   0  0  0  0  0  0  0  0  0  0  0  0
   58.1370   32.7060   44.0520 C   0  0  0  0  0  0  0  0  0  0  0  0
   57.7290   31.4660   43.5500 C   0  0  0  0  0  0  0  0  0  0  0  0
   58.5740   27.3360   45.0530 C   0  0  0  0  0  0  0  0  0  0  0  0
   57.3600   26.4820   45.3290 C   0  0  0  0  0  0  0  0  0  0  0  0
   56.1670   27.0820   45.7530 C   0  0  0  0  0  0  0  0  0  0  0  0
   55.0750   26.3200   46.0180 N   0  0  0  0  0  0  0  0  0  0  0  0
   55.1150   24.9700   45.8810 C   0  0  0  0  0  0  0  0  0  0  0  0
   54.0920   24.2830   46.1300 O   0  0  0  0  0  0  0  0  0  0  0  0
   56.2600   24.3620   45.4760 N   0  0  0  0  0  0  0  0  0  0  0  0
   57.3780   25.0810   45.2000 C   0  0  0  0  0  0  0  0  0  0  0  0
   58.4240   24.4800   44.8330 O   0  0  0  0  0  0  0  0  0  0  0  0
  1  2  1  0
  2  3  1  0
  3  4  1  0
  4  5  2  0
  5  6  1  0
  6  7  2  0
  7  8  1  0
  8  9  1  0
  9 10  2  0
 10 11  1  0
 11 12  1  0
 12 13  2  0
 12 14  1  0
 14 15  2  0
 15 16  1  0
 16 17  2  0
 17 18  1  0
 18 19  2  0
  7 20  1  0
 20 21  2  0
  2 22  1  0
 22 23  1  0
 23 24  2  0
 24 25  1  0
 25 26  1  0
 26 27  2  0
 26 28  1  0
 28 29  1  0
 29 30  2  0
 21  4  1  0
 29 23  1  0
 19  9  1  0
 19 14  1  0
M  CHG  3  11  -1  25  -1  28  -1
M  END
>  <UniqueID>  (2740) 
75

>  <SMILES>  (2740) 
CN(Cc1ccc(Cc2n[n-]c(=O)c3ccccc23)cc1)Cc1c[n-]c(=O)[n-]c1=O

>  <Energy>  (2740) 
62.634212865939354

>  <Genealogy>  (2740) 
CN(Cc1ccc(Cc2n[n-]c(=O)c3ccccc23)cc1)Cc1c[n-]c(=O)[n-]c1=O (protonated)
CN(Cc1ccc(Cc2n[n-]c(=O)c3ccccc23)cc1)Cc1c[n-]c(=O)[n-]c1=O (3D coordinates assigned)
CN(Cc1ccc(Cc2n[n-]c(=O)c3ccccc23)cc1)Cc1c[n-]c(=O)[n-]c1=O (optimized conformer: 62.634212865939354 kcal/mol)

>  <smiles>  (2740) 
CN(Cc1ccc(Cc2n[nH]c(=O)c3ccccc23)cc1)Cc1c[nH]c(=O)[nH]c1=O

>  <score_type>  (2740) 
oracle

>  <origin>  (2740) 
adg

>  <m_score__min__energy>  (2740) 
-14.65

>  <m_primary>  (2740) 
energy

$$$$
80:0
     RDKit          3D

 28 31  0  0  0  0  0  0  0  0999 V2000
   59.2820   35.8840   46.2920 O   0  0  0  0  0  0  0  0  0  0  0  0
   59.2310   34.4900   46.2190 C   0  0  0  0  0  0  0  0  0  0  0  0
   58.6630   33.9100   45.0790 C   0  0  0  0  0  0  0  0  0  0  0  0
   58.5380   32.5250   44.9740 C   0  0  0  0  0  0  0  0  0  0  0  0
   58.9880   31.6960   46.0090 C   0  0  0  0  0  0  0  0  0  0  0  0
   58.8620   30.2670   45.9020 N   0  0  0  0  0  0  0  0  0  0  0  0
   59.7480   29.3590   46.3700 C   0  0  0  0  0  0  0  0  0  0  0  0
   61.0460   29.6900   47.0440 C   0  0  0  0  0  0  0  0  0  0  0  0
   59.3110   28.0780   46.1040 C   0  0  0  0  0  0  0  0  0  0  0  0
   58.0870   28.1990   45.4590 C   0  0  0  0  0  0  0  0  0  0  0  0
   57.3270   27.1910   44.9890 C   0  0  0  0  0  0  0  0  0  0  0  0
   56.8610   26.0580   45.8090 C   0  0  0  0  0  0  0  0  0  0  0  0
   57.6900   25.1350   46.3280 N   0  0  0  0  0  0  0  0  0  0  0  0
   56.8500   24.2560   46.9180 C   0  0  0  0  0  0  0  0  0  0  0  0
   57.2590   23.2380   47.5360 O   0  0  0  0  0  0  0  0  0  0  0  0
   55.5390   24.5480   46.7860 N   0  0  0  0  0  0  0  0  0  0  0  0
   55.5610   25.6850   46.0710 C   0  0  0  0  0  0  0  0  0  0  0  0
   54.4160   26.3350   45.6290 O   0  0  0  0  0  0  0  0  0  0  0  0
   57.8410   29.5720   45.3410 C   0  0  0  0  0  0  0  0  0  0  0  0
   56.7800   30.1430   44.7490 C   0  0  0  0  0  0  0  0  0  0  0  0
   59.5780   32.2680   47.1430 C   0  0  0  0  0  0  0  0  0  0  0  0
   59.7040   33.6610   47.2640 C   0  0  0  0  0  0  0  0  0  0  0  0
   60.3490   34.2160   48.4690 C   0  0  0  0  0  0  0  0  0  0  0  0
   59.6940   34.9500   49.2550 O   0  0  0  0  0  0  0  0  0  0  0  0
   61.7240   33.9410   48.7470 N   0  0  0  0  0  0  0  0  0  0  0  0
   62.7000   34.2880   49.7950 C   0  0  0  0  0  0  0  0  0  0  0  0
   63.8100   33.4430   49.2640 C   0  0  0  0  0  0  0  0  0  0  0  0
   62.8110   33.1030   48.2080 C   0  0  0  0  0  0  0  0  0  0  0  0
  1  2  1  0
  2  3  2  0
  3  4  1  0
  4  5  2  0
  5  6  1  0
  6  7  1  0
  7  8  1  0
  7  9  2  0
  9 10  1  0
 10 11  2  0
 11 12  1  0
 12 13  1  0
 13 14  1  0
 14 15  2  0
 14 16  1  0
 16 17  1  0
 17 18  1  0
 10 19  1  0
 19 20  2  0
  5 21  1  0
 21 22  2  0
 22 23  1  0
 23 24  2  0
 23 25  1  0
 25 26  1  0
 26 27  1  0
 27 28  1  0
 22  2  1  0
 28 25  1  0
 19  6  1  0
 17 12  2  0
M  CHG  3  13  -1  16  -1  18  -1
M  END
>  <UniqueID>  (2741) 
80

>  <SMILES>  (2741) 
C=c1/c(=C/c2[n-]c(=O)[n-]c2[O-])cc(C)n1-c1ccc(O)c(C(=O)N2CCC2)c1

>  <Energy>  (2741) 
167.1614384220502

>  <Genealogy>  (2741) 
C=c1c(=Cc2[n-]c(=O)[n-]c2[O-])cc(C)n1-c1ccc(O)c(C(=O)N2CCC2)c1 (protonated)
C=c1/c(=C/c2[n-]c(=O)[n-]c2[O-])cc(C)n1-c1ccc(O)c(C(=O)N2CCC2)c1 (cis-trans isomerization)
C=c1/c(=C/c2[n-]c(=O)[n-]c2[O-])cc(C)n1-c1ccc(O)c(C(=O)N2CCC2)c1 (3D coordinates assigned)
C=c1/c(=C/c2[n-]c(=O)[n-]c2[O-])cc(C)n1-c1ccc(O)c(C(=O)N2CCC2)c1 (nonaromatic ring conformer: 167.1614384220502 kcal/mol)

>  <smiles>  (2741) 
C=c1c(=Cc2[nH]c(=O)[nH]c2O)cc(C)n1-c1ccc(O)c(C(=O)N2CCC2)c1

>  <score_type>  (2741) 
oracle

>  <origin>  (2741) 
adg

>  <m_score__min__energy>  (2741) 
-15.630000000000001

>  <m_primary>  (2741) 
energy

$$$$
84:0
     RDKit          3D

 35 38  0  0  0  0  0  0  0  0999 V2000
   58.8550   30.5770   47.5900 C   0  0  0  0  0  0  0  0  0  0  0  0
   58.7730   30.4420   46.2480 C   0  0  0  0  0  0  0  0  0  0  0  0
   58.8060   29.2300   45.5460 C   0  0  0  0  0  0  0  0  0  0  0  0
   58.7880   27.9780   46.0480 C   0  0  0  0  0  0  0  0  0  0  0  0
   57.5440   27.2030   46.0150 C   0  0  0  0  0  0  0  0  0  0  0  0
   57.4750   25.9080   46.3890 N   0  0  0  0  0  0  0  0  0  0  0  0
   56.1500   25.6610   46.3590 C   0  0  0  0  0  0  0  0  0  0  0  0
   55.6640   24.5290   46.6190 O   0  0  0  0  0  0  0  0  0  0  0  0
   55.3900   26.7180   45.9790 N   0  0  0  0  0  0  0  0  0  0  0  0
   56.2830   27.6810   45.7510 C   0  0  0  0  0  0  0  0  0  0  0  0
   55.9680   28.9640   45.3210 O   0  0  0  0  0  0  0  0  0  0  0  0
   58.5780   29.5590   44.2170 C   0  0  0  0  0  0  0  0  0  0  0  0
   58.3260   30.9200   44.1630 C   0  0  0  0  0  0  0  0  0  0  0  0
   57.5900   31.5430   42.9990 C   0  0  0  0  0  0  0  0  0  0  0  0
   58.4080   31.4670   45.4160 N   0  0  0  0  0  0  0  0  0  0  0  0
   57.9290   32.7680   45.8160 C   0  0  0  0  0  0  0  0  0  0  0  0
   56.7090   33.0590   45.6010 O   0  0  0  0  0  0  0  0  0  0  0  0
   58.8090   33.7810   46.3920 N   0  0  0  0  0  0  0  0  0  0  0  0
   59.2810   34.8750   45.5330 C   0  0  0  0  0  0  0  0  0  0  0  0
   59.2150   33.7770   47.8150 C   0  0  0  0  0  0  0  0  0  0  0  0
   60.7100   33.6000   47.9110 C   0  0  0  0  0  0  0  0  0  0  0  0
   61.4200   33.0330   46.8440 C   0  0  0  0  0  0  0  0  0  0  0  0
   62.8010   32.8640   46.9400 C   0  0  0  0  0  0  0  0  0  0  0  0
   63.4790   33.2510   48.0980 C   0  0  0  0  0  0  0  0  0  0  0  0
   62.7860   33.8240   49.1790 C   0  0  0  0  0  0  0  0  0  0  0  0
   63.5280   34.2050   50.4020 C   0  0  0  0  0  0  0  0  0  0  0  0
   63.3920   35.3730   50.8770 O   0  0  0  0  0  0  0  0  0  0  0  0
   64.4160   33.2810   51.0480 N   0  0  0  0  0  0  0  0  0  0  0  0
   65.8340   33.6670   51.1540 C   0  0  0  0  0  0  0  0  0  0  0  0
   66.7350   32.4460   51.4310 C   0  0  0  0  0  0  0  0  0  0  0  0
   66.0680   31.2320   50.9250 N   0  0  0  0  0  0  0  0  0  0  0  0
   66.9950   30.0980   50.9050 C   0  0  0  0  0  0  0  0  0  0  0  0
   64.8830   30.9330   51.7590 C   0  0  0  0  0  0  0  0  0  0  0  0
   63.9030   32.1330   51.8250 C   0  0  0  0  0  0  0  0  0  0  0  0
   61.3870   33.9520   49.0870 C   0  0  0  0  0  0  0  0  0  0  0  0
  1  2  2  0
  2  3  1  0
  3  4  2  3
  4  5  1  0
  5  6  1  0
  6  7  1  0
  7  8  2  0
  7  9  1  0
  9 10  1  0
 10 11  1  0
  3 12  1  0
 12 13  2  0
 13 14  1  0
 13 15  1  0
 15 16  1  0
 16 17  2  0
 16 18  1  0
 18 19  1  0
 18 20  1  0
 20 21  1  0
 21 22  2  0
 22 23  1  0
 23 24  2  0
 24 25  1  0
 25 26  1  0
 26 27  2  0
 26 28  1  0
 28 29  1  0
 29 30  1  0
 30 31  1  0
 31 32  1  0
 31 33  1  0
 33 34  1  0
 25 35  2  0
 15  2  1  0
 35 21  1  0
 10  5  2  0
 34 28  1  0
M  CHG  2   6  -1   9  -1
M  END
>  <UniqueID>  (2742) 
84

>  <SMILES>  (2742) 
C=c1c(=Cc2[n-]c(=O)[n-]c2O)cc(C)n1C(=O)N(C)Cc1cccc(C(=O)N2CCN(C)CC2)c1

>  <Energy>  (2742) 
160.77538902697412

>  <Genealogy>  (2742) 
C=c1c(=Cc2[n-]c(=O)[n-]c2O)cc(C)n1C(=O)N(C)Cc1cccc(C(=O)N2CCN(C)CC2)c1 (protonated)
C=c1c(=Cc2[n-]c(=O)[n-]c2O)cc(C)n1C(=O)N(C)Cc1cccc(C(=O)N2CCN(C)CC2)c1 (3D coordinates assigned)
C=c1c(=Cc2[n-]c(=O)[n-]c2O)cc(C)n1C(=O)N(C)Cc1cccc(C(=O)N2CCN(C)CC2)c1 (nonaromatic ring conformer: 160.77538902697412 kcal/mol)

>  <smiles>  (2742) 
C=c1c(=Cc2[nH]c(=O)[nH]c2O)cc(C)n1C(=O)N(C)Cc1cccc(C(=O)N2CCN(C)CC2)c1

>  <score_type>  (2742) 
oracle

>  <origin>  (2742) 
adg

>  <m_score__min__energy>  (2742) 
-14.539999999999999

>  <m_primary>  (2742) 
energy

$$$$
2:0
     RDKit          3D

 29 32  0  0  0  0  0  0  0  0999 V2000
   55.6590   27.4090   53.5370 C   0  0  0  0  0  0  0  0  0  0  0  0
   55.0550   28.5890   53.3750 C   0  0  0  0  0  0  0  0  0  0  0  0
   53.7340   28.7190   53.1330 N   0  0  0  0  0  0  0  0  0  0  0  0
   53.4910   30.0440   53.0080 C   0  0  0  0  0  0  0  0  0  0  0  0
   52.3010   30.6160   52.7470 C   0  0  0  0  0  0  0  0  0  0  0  0
   51.7600   30.9430   51.4070 C   0  0  0  0  0  0  0  0  0  0  0  0
   51.8550   30.1780   50.3040 N   0  0  0  0  0  0  0  0  0  0  0  0
   51.1760   30.8790   49.3710 C   0  0  0  0  0  0  0  0  0  0  0  0
   51.0410   30.4790   48.1860 O   0  0  0  0  0  0  0  0  0  0  0  0
   50.6490   32.0410   49.8100 N   0  0  0  0  0  0  0  0  0  0  0  0
   51.0240   32.0640   51.0990 C   0  0  0  0  0  0  0  0  0  0  0  0
   50.6940   33.0860   51.9790 O   0  0  0  0  0  0  0  0  0  0  0  0
   54.6660   30.7630   53.1650 C   0  0  0  0  0  0  0  0  0  0  0  0
   55.6620   29.8370   53.4120 C   0  0  0  0  0  0  0  0  0  0  0  0
   57.1220   30.1570   53.5880 C   0  0  0  0  0  0  0  0  0  0  0  0
   57.7200   30.6220   52.2860 C   0  0  0  0  0  0  0  0  0  0  0  0
   57.3670   31.8720   51.7540 C   0  0  0  0  0  0  0  0  0  0  0  0
   57.8910   32.2910   50.5290 C   0  0  0  0  0  0  0  0  0  0  0  0
   58.7580   31.4580   49.8080 C   0  0  0  0  0  0  0  0  0  0  0  0
   59.3140   31.9210   48.5210 C   0  0  0  0  0  0  0  0  0  0  0  0
   58.7450   31.5150   47.4710 O   0  0  0  0  0  0  0  0  0  0  0  0
   60.4460   32.8370   48.4090 N   0  0  0  0  0  0  0  0  0  0  0  0
   60.0450   34.2170   48.7570 C   0  0  0  0  0  0  0  0  0  0  0  0
   59.2440   34.8630   47.6170 C   0  0  0  0  0  0  0  0  0  0  0  0
   60.0190   34.9090   46.4360 O   0  0  0  0  0  0  0  0  0  0  0  0
   60.3290   33.5940   46.0180 C   0  0  0  0  0  0  0  0  0  0  0  0
   61.1360   32.8420   47.0960 C   0  0  0  0  0  0  0  0  0  0  0  0
   59.1510   30.2300   50.3590 C   0  0  0  0  0  0  0  0  0  0  0  0
   58.6280   29.8090   51.5860 C   0  0  0  0  0  0  0  0  0  0  0  0
  1  2  2  0
  2  3  1  0
  3  4  1  0
  4  5  2  3
  5  6  1  0
  6  7  1  0
  7  8  1  0
  8  9  2  0
  8 10  1  0
 10 11  1  0
 11 12  1  0
  4 13  1  0
 13 14  2  0
 14 15  1  0
 15 16  1  0
 16 17  2  0
 17 18  1  0
 18 19  2  0
 19 20  1  0
 20 21  2  0
 20 22  1  0
 22 23  1  0
 23 24  1  0
 24 25  1  0
 25 26  1  0
 26 27  1  0
 19 28  1  0
 28 29  2  0
 14  2  1  0
 29 16  1  0
 11  6  2  0
 27 22  1  0
M  CHG  4   7  -1  10  -1  12  -1  22   1
M  END
>  <UniqueID>  (2743) 
3

>  <SMILES>  (2743) 
C=c1[nH]c(=Cc2[n-]c(=O)[n-]c2[O-])cc1Cc1ccc(C(=O)[NH+]2CCOCC2)cc1

>  <Energy>  (2743) 
126.00411763106133

>  <Genealogy>  (2743) 
C=c1[nH]c(=Cc2[n-]c(=O)[n-]c2[O-])cc1Cc1ccc(C(=O)[NH+]2CCOCC2)cc1 (protonated)
C=c1[nH]c(=Cc2[n-]c(=O)[n-]c2[O-])cc1Cc1ccc(C(=O)[NH+]2CCOCC2)cc1 (3D coordinates assigned)
C=c1[nH]c(=Cc2[n-]c(=O)[n-]c2[O-])cc1Cc1ccc(C(=O)[NH+]2CCOCC2)cc1 (nonaromatic ring conformer: 126.00411763106133 kcal/mol)

>  <smiles>  (2743) 
C=c1[nH]c(=Cc2[nH]c(=O)[nH]c2O)cc1Cc1ccc(C(=O)N2CCOCC2)cc1

>  <score_type>  (2743) 
oracle

>  <origin>  (2743) 
adg

>  <m_score__min__energy>  (2743) 
-16.420000000000002

>  <m_primary>  (2743) 
energy

$$$$
7:0
     RDKit          3D

 30 32  0  0  0  0  0  0  0  0999 V2000
   56.9680   32.4730   44.8530 C   0  0  0  0  0  0  0  0  0  0  0  0
   57.3900   33.8340   45.3970 C   0  0  0  0  0  0  0  0  0  0  0  0
   58.6320   33.7090   46.2390 C   0  0  0  0  0  0  0  0  0  0  0  0
   59.9000   33.8810   45.6610 C   0  0  0  0  0  0  0  0  0  0  0  0
   61.0510   33.7950   46.4490 C   0  0  0  0  0  0  0  0  0  0  0  0
   60.9490   33.5430   47.8230 C   0  0  0  0  0  0  0  0  0  0  0  0
   62.4050   33.4490   48.8060 S   0  0  0  0  0  0  0  0  0  0  0  0
   62.2670   34.3210   50.0220 O   0  0  0  0  0  0  0  0  0  0  0  0
   63.5690   33.9160   47.9790 O   0  0  0  0  0  0  0  0  0  0  0  0
   62.6400   31.8030   49.3060 N   0  0  0  0  0  0  0  0  0  0  0  0
   61.5910   30.8510   49.5170 C   0  0  0  0  0  0  0  0  0  0  0  0
   61.3470   30.4740   50.6950 O   0  0  0  0  0  0  0  0  0  0  0  0
   60.7880   30.2980   48.4080 C   0  0  0  0  0  0  0  0  0  0  0  0
   61.2400   30.4270   47.0860 C   0  0  0  0  0  0  0  0  0  0  0  0
   60.4810   29.9200   46.0270 C   0  0  0  0  0  0  0  0  0  0  0  0
   59.2530   29.2850   46.2740 C   0  0  0  0  0  0  0  0  0  0  0  0
   58.4180   28.7680   45.1320 C   0  0  0  0  0  0  0  0  0  0  0  0
   57.6000   27.5740   45.5680 C   0  0  0  0  0  0  0  0  0  0  0  0
   56.1960   27.6390   45.6210 C   0  0  0  0  0  0  0  0  0  0  0  0
   55.5220   28.7920   45.2360 O   0  0  0  0  0  0  0  0  0  0  0  0
   55.4810   26.5670   46.0480 N   0  0  0  0  0  0  0  0  0  0  0  0
   56.0960   25.4200   46.4340 C   0  0  0  0  0  0  0  0  0  0  0  0
   55.4120   24.4410   46.8260 O   0  0  0  0  0  0  0  0  0  0  0  0
   57.4490   25.3320   46.3990 N   0  0  0  0  0  0  0  0  0  0  0  0
   58.2120   26.3750   45.9810 C   0  0  0  0  0  0  0  0  0  0  0  0
   59.4660   26.2510   45.9650 O   0  0  0  0  0  0  0  0  0  0  0  0
   58.7900   29.1800   47.5950 C   0  0  0  0  0  0  0  0  0  0  0  0
   59.5490   29.6880   48.6540 C   0  0  0  0  0  0  0  0  0  0  0  0
   59.6830   33.3890   48.4070 C   0  0  0  0  0  0  0  0  0  0  0  0
   58.5310   33.4740   47.6200 C   0  0  0  0  0  0  0  0  0  0  0  0
  1  2  1  0
  2  3  1  0
  3  4  2  0
  4  5  1  0
  5  6  2  0
  6  7  1  0
  7  8  2  0
  7  9  2  0
  7 10  1  0
 10 11  1  0
 11 12  2  0
 11 13  1  0
 13 14  2  0
 14 15  1  0
 15 16  2  0
 16 17  1  0
 17 18  1  0
 18 19  2  0
 19 20  1  0
 19 21  1  0
 21 22  1  0
 22 23  2  0
 22 24  1  0
 24 25  1  0
 25 26  2  0
 16 27  1  0
 27 28  2  0
  6 29  1  0
 29 30  2  0
 30  3  1  0
 28 13  1  0
 25 18  1  0
M  CHG  4  10  -1  20  -1  21  -1  24  -1
M  END
>  <UniqueID>  (2744) 
8

>  <SMILES>  (2744) 
CCc1ccc(S(=O)(=O)[N-]C(=O)c2ccc(Cc3c([O-])[n-]c(=O)[n-]c3=O)cc2)cc1

>  <Energy>  (2744) 
54.553324885631

>  <Genealogy>  (2744) 
CCc1ccc(S(=O)(=O)[N-]C(=O)c2ccc(Cc3c([O-])[n-]c(=O)[n-]c3=O)cc2)cc1 (protonated)
CCc1ccc(S(=O)(=O)[N-]C(=O)c2ccc(Cc3c([O-])[n-]c(=O)[n-]c3=O)cc2)cc1 (3D coordinates assigned)
CCc1ccc(S(=O)(=O)[N-]C(=O)c2ccc(Cc3c([O-])[n-]c(=O)[n-]c3=O)cc2)cc1 (optimized conformer: 54.553324885631 kcal/mol)

>  <smiles>  (2744) 
CCc1ccc(S(=O)(=O)NC(=O)c2ccc(Cc3c(O)[nH]c(=O)[nH]c3=O)cc2)cc1

>  <score_type>  (2744) 
oracle

>  <origin>  (2744) 
adg

>  <m_score__min__energy>  (2744) 
-17.27

>  <m_primary>  (2744) 
energy

$$$$
19:0
     RDKit          3D

 30 32  0  0  0  0  0  0  0  0999 V2000
   57.8760   24.8260   45.2410 C   0  0  0  0  0  0  0  0  0  0  0  0
   56.5810   24.4770   45.0680 C   0  0  0  0  0  0  0  0  0  0  0  0
   56.1290   23.4270   44.1100 C   0  0  0  0  0  0  0  0  0  0  0  0
   56.9280   22.8900   43.2960 O   0  0  0  0  0  0  0  0  0  0  0  0
   54.7540   23.0400   44.0690 N   0  0  0  0  0  0  0  0  0  0  0  0
   53.7760   23.6910   44.8770 C   0  0  0  0  0  0  0  0  0  0  0  0
   52.5740   23.3260   44.8250 O   0  0  0  0  0  0  0  0  0  0  0  0
   54.1590   24.7630   45.7370 N   0  0  0  0  0  0  0  0  0  0  0  0
   55.5220   25.1770   45.8420 C   0  0  0  0  0  0  0  0  0  0  0  0
   55.8080   26.1350   46.6100 O   0  0  0  0  0  0  0  0  0  0  0  0
   58.3850   26.2110   45.2690 C   0  0  0  0  0  0  0  0  0  0  0  0
   57.6810   27.2130   44.5840 C   0  0  0  0  0  0  0  0  0  0  0  0
   58.1210   28.5510   44.6190 C   0  0  0  0  0  0  0  0  0  0  0  0
   57.4290   29.6440   43.8920 C   0  0  0  0  0  0  0  0  0  0  0  0
   56.9190   30.7330   44.4830 C   0  0  0  0  0  0  0  0  0  0  0  0
   57.4250   32.0870   44.1950 C   0  0  0  0  0  0  0  0  0  0  0  0
   58.2090   32.2410   43.2230 O   0  0  0  0  0  0  0  0  0  0  0  0
   57.0140   33.2430   44.9370 N   0  0  0  0  0  0  0  0  0  0  0  0
   57.2050   33.4350   46.3710 C   0  0  0  0  0  0  0  0  0  0  0  0
   58.5700   32.9350   46.7620 C   0  0  0  0  0  0  0  0  0  0  0  0
   58.7060   31.6450   47.3050 C   0  0  0  0  0  0  0  0  0  0  0  0
   59.9680   31.1530   47.6540 C   0  0  0  0  0  0  0  0  0  0  0  0
   61.1040   31.9390   47.4570 C   0  0  0  0  0  0  0  0  0  0  0  0
   60.9850   33.2160   46.9050 C   0  0  0  0  0  0  0  0  0  0  0  0
   59.7260   33.7180   46.5520 C   0  0  0  0  0  0  0  0  0  0  0  0
   59.6370   35.3280   45.8390 Cl  0  0  0  0  0  0  0  0  0  0  0  0
   59.2800   28.8650   45.3490 C   0  0  0  0  0  0  0  0  0  0  0  0
   59.9650   27.8760   46.0550 C   0  0  0  0  0  0  0  0  0  0  0  0
   59.5170   26.5530   46.0310 C   0  0  0  0  0  0  0  0  0  0  0  0
   60.1970   25.5870   46.7640 O   0  0  0  0  0  0  0  0  0  0  0  0
  1  2  2  3
  2  3  1  0
  3  4  2  0
  3  5  1  0
  5  6  1  0
  6  7  2  0
  6  8  1  0
  8  9  1  0
  9 10  2  0
  1 11  1  0
 11 12  2  0
 12 13  1  0
 13 14  1  0
 14 15  2  0
 15 16  1  0
 16 17  2  0
 16 18  1  0
 18 19  1  0
 19 20  1  0
 20 21  2  0
 21 22  1  0
 22 23  2  0
 23 24  1  0
 24 25  2  0
 25 26  1  0
 13 27  2  0
 27 28  1  0
 28 29  2  0
 29 30  1  0
  9  2  1  0
 29 11  1  0
 25 20  1  0
M  CHG  4   5  -1   8  -1  18  -1  30  -1
M  END
>  <UniqueID>  (2745) 
20

>  <SMILES>  (2745) 
O=C(/C=C/c1ccc([O-])c(C=C2C(=O)[N-]C(=O)[N-]C2=O)c1)[N-]Cc1ccccc1Cl

>  <Energy>  (2745) 
59.756513816624164

>  <Genealogy>  (2745) 
O=C(C=Cc1ccc([O-])c(C=C2C(=O)[N-]C(=O)[N-]C2=O)c1)[N-]Cc1ccccc1Cl (protonated)
O=C(/C=C/c1ccc([O-])c(C=C2C(=O)[N-]C(=O)[N-]C2=O)c1)[N-]Cc1ccccc1Cl (cis-trans isomerization)
O=C(/C=C/c1ccc([O-])c(C=C2C(=O)[N-]C(=O)[N-]C2=O)c1)[N-]Cc1ccccc1Cl (3D coordinates assigned)
O=C(/C=C/c1ccc([O-])c(C=C2C(=O)[N-]C(=O)[N-]C2=O)c1)[N-]Cc1ccccc1Cl (nonaromatic ring conformer: 59.756513816624164 kcal/mol)

>  <smiles>  (2745) 
O=C(C=Cc1ccc(O)c(C=C2C(=O)NC(=O)NC2=O)c1)NCc1ccccc1Cl

>  <score_type>  (2745) 
oracle

>  <origin>  (2745) 
adg

>  <m_score__min__energy>  (2745) 
-16.030000000000001

>  <m_primary>  (2745) 
energy

$$$$
20:0
     RDKit          3D

 37 41  0  0  0  0  0  0  0  0999 V2000
   60.9320   27.1140   51.2920 O   0  0  0  0  0  0  0  0  0  0  0  0
   60.7400   27.5410   50.1220 C   0  0  0  0  0  0  0  0  0  0  0  0
   60.7250   26.6510   49.1010 N   0  0  0  0  0  0  0  0  0  0  0  0
   60.5680   27.0420   47.8170 C   0  0  0  0  0  0  0  0  0  0  0  0
   60.5800   26.0820   46.8130 O   0  0  0  0  0  0  0  0  0  0  0  0
   60.4150   28.4020   47.5170 C   0  0  0  0  0  0  0  0  0  0  0  0
   60.2810   28.8660   46.0810 C   0  0  0  0  0  0  0  0  0  0  0  0
   58.8420   28.8890   45.6420 C   0  0  0  0  0  0  0  0  0  0  0  0
   58.3420   29.9810   44.9130 C   0  0  0  0  0  0  0  0  0  0  0  0
   56.9990   30.0180   44.5270 C   0  0  0  0  0  0  0  0  0  0  0  0
   56.1400   28.9740   44.8770 C   0  0  0  0  0  0  0  0  0  0  0  0
   54.8050   29.0180   44.4940 O   0  0  0  0  0  0  0  0  0  0  0  0
   56.6250   27.8880   45.6130 C   0  0  0  0  0  0  0  0  0  0  0  0
   55.7930   26.8760   45.9580 F   0  0  0  0  0  0  0  0  0  0  0  0
   57.9750   27.8370   45.9820 C   0  0  0  0  0  0  0  0  0  0  0  0
   60.4090   29.3190   48.5850 C   0  0  0  0  0  0  0  0  0  0  0  0
   60.2690   30.5490   48.3380 O   0  0  0  0  0  0  0  0  0  0  0  0
   60.5670   28.8830   49.8820 N   0  0  0  0  0  0  0  0  0  0  0  0
   60.6280   29.8440   51.0060 C   0  0  0  0  0  0  0  0  0  0  0  0
   59.2460   30.3200   51.4090 C   0  0  0  0  0  0  0  0  0  0  0  0
   58.4170   29.4700   52.1670 C   0  0  0  0  0  0  0  0  0  0  0  0
   57.1270   29.8680   52.5260 C   0  0  0  0  0  0  0  0  0  0  0  0
   56.6480   31.1210   52.1450 C   0  0  0  0  0  0  0  0  0  0  0  0
   57.4640   31.9830   51.4120 C   0  0  0  0  0  0  0  0  0  0  0  0
   58.7600   31.5940   51.0390 C   0  0  0  0  0  0  0  0  0  0  0  0
   59.5910   32.5370   50.3500 N   0  0  0  0  0  0  0  0  0  0  0  0
   60.6510   33.1700   50.8870 C   0  0  0  0  0  0  0  0  0  0  0  0
   61.0890   34.1570   50.0280 C   0  0  0  0  0  0  0  0  0  0  0  0
   60.2490   34.1320   48.9300 C   0  0  0  0  0  0  0  0  0  0  0  0
   59.3440   33.1140   49.1540 C   0  0  0  0  0  0  0  0  0  0  0  0
   58.2420   32.7100   48.2170 C   0  0  0  0  0  0  0  0  0  0  0  0
   58.2800   33.5450   47.0020 N   0  0  0  0  0  0  0  0  0  0  0  0
   57.0270   33.4200   46.2380 C   0  0  0  0  0  0  0  0  0  0  0  0
   57.0910   34.2910   44.9640 C   0  0  0  0  0  0  0  0  0  0  0  0
   58.3380   34.9490   44.8320 O   0  0  0  0  0  0  0  0  0  0  0  0
   59.3820   33.9940   44.8220 C   0  0  0  0  0  0  0  0  0  0  0  0
   59.4310   33.2010   46.1440 C   0  0  0  0  0  0  0  0  0  0  0  0
  1  2  2  0
  2  3  1  0
  3  4  1  0
  4  5  1  0
  4  6  2  0
  6  7  1  0
  7  8  1  0
  8  9  2  0
  9 10  1  0
 10 11  2  0
 11 12  1  0
 11 13  1  0
 13 14  1  0
 13 15  2  0
  6 16  1  0
 16 17  2  0
 16 18  1  0
 18 19  1  0
 19 20  1  0
 20 21  2  0
 21 22  1  0
 22 23  2  0
 23 24  1  0
 24 25  2  0
 25 26  1  0
 26 27  1  0
 27 28  2  0
 28 29  1  0
 29 30  2  0
 30 31  1  0
 31 32  1  0
 32 33  1  0
 33 34  1  0
 34 35  1  0
 35 36  1  0
 36 37  1  0
 18  2  1  0
 25 20  1  0
 30 26  1  0
 37 32  1  0
 15  8  1  0
M  CHG  3   3  -1   5  -1  12  -1
M  END
>  <UniqueID>  (2746) 
21

>  <SMILES>  (2746) 
O=c1[n-]c([O-])c(Cc2ccc([O-])c(F)c2)c(=O)n1Cc1ccccc1-n1cccc1CN1CCOCC1

>  <Energy>  (2746) 
107.3783939725021

>  <Genealogy>  (2746) 
O=c1[n-]c([O-])c(Cc2ccc([O-])c(F)c2)c(=O)n1Cc1ccccc1-n1cccc1CN1CCOCC1 (protonated)
O=c1[n-]c([O-])c(Cc2ccc([O-])c(F)c2)c(=O)n1Cc1ccccc1-n1cccc1CN1CCOCC1 (3D coordinates assigned)
O=c1[n-]c([O-])c(Cc2ccc([O-])c(F)c2)c(=O)n1Cc1ccccc1-n1cccc1CN1CCOCC1 (nonaromatic ring conformer: 107.3783939725021 kcal/mol)

>  <smiles>  (2746) 
O=c1[nH]c(O)c(Cc2ccc(O)c(F)c2)c(=O)n1Cc1ccccc1-n1cccc1CN1CCOCC1

>  <score_type>  (2746) 
oracle

>  <origin>  (2746) 
adg

>  <m_score__min__energy>  (2746) 
-17.300000000000001

>  <m_primary>  (2746) 
energy

$$$$
30:0
     RDKit          3D

 33 36  0  0  0  0  0  0  0  0999 V2000
   53.6530   28.1630   53.0520 C   0  0  0  0  0  0  0  0  0  0  0  0
   54.5310   29.1740   52.9180 C   0  0  0  0  0  0  0  0  0  0  0  0
   55.8910   28.8790   53.1280 C   0  0  0  0  0  0  0  0  0  0  0  0
   56.8890   29.7800   52.7650 C   0  0  0  0  0  0  0  0  0  0  0  0
   56.5590   30.9970   52.1600 C   0  0  0  0  0  0  0  0  0  0  0  0
   57.6180   31.9430   51.7330 C   0  0  0  0  0  0  0  0  0  0  0  0
   57.9220   32.9150   52.4790 O   0  0  0  0  0  0  0  0  0  0  0  0
   58.2950   31.7750   50.4770 N   0  0  0  0  0  0  0  0  0  0  0  0
   59.5670   32.4500   50.1770 C   0  0  0  0  0  0  0  0  0  0  0  0
   59.3250   33.7330   49.3470 C   0  0  0  0  0  0  0  0  0  0  0  0
   59.4320   33.5240   47.8210 C   0  0  0  0  0  0  0  0  0  0  0  0
   59.1560   32.1300   47.4360 N   0  0  0  0  0  0  0  0  0  0  0  0
   58.3440   31.8410   46.2800 C   0  0  0  0  0  0  0  0  0  0  0  0
   57.8600   30.6120   45.9940 N   0  0  0  0  0  0  0  0  0  0  0  0
   57.1280   30.6070   44.8470 C   0  0  0  0  0  0  0  0  0  0  0  0
   56.4670   29.3660   44.3310 C   0  0  0  0  0  0  0  0  0  0  0  0
   57.1250   28.2540   44.8260 F   0  0  0  0  0  0  0  0  0  0  0  0
   56.5080   29.3380   42.9490 F   0  0  0  0  0  0  0  0  0  0  0  0
   55.1470   29.3340   44.7410 F   0  0  0  0  0  0  0  0  0  0  0  0
   57.0120   31.8430   44.2130 C   0  0  0  0  0  0  0  0  0  0  0  0
   57.8680   32.9690   45.1200 S   0  0  0  0  0  0  0  0  0  0  0  0
   59.8610   31.0310   48.1160 C   0  0  0  0  0  0  0  0  0  0  0  0
   60.5090   31.4950   49.4280 C   0  0  0  0  0  0  0  0  0  0  0  0
   55.2050   31.3370   52.0100 C   0  0  0  0  0  0  0  0  0  0  0  0
   54.1720   30.4810   52.4510 C   0  0  0  0  0  0  0  0  0  0  0  0
   52.9080   30.9780   52.4130 C   0  0  0  0  0  0  0  0  0  0  0  0
   52.0670   31.1340   51.2110 C   0  0  0  0  0  0  0  0  0  0  0  0
   52.0870   30.2760   50.1760 N   0  0  0  0  0  0  0  0  0  0  0  0
   51.2560   30.8490   49.2790 C   0  0  0  0  0  0  0  0  0  0  0  0
   50.9990   30.3260   48.1640 O   0  0  0  0  0  0  0  0  0  0  0  0
   50.7270   32.0290   49.6680 N   0  0  0  0  0  0  0  0  0  0  0  0
   51.2600   32.2030   50.8880 C   0  0  0  0  0  0  0  0  0  0  0  0
   51.0360   33.3270   51.6740 O   0  0  0  0  0  0  0  0  0  0  0  0
  1  2  2  0
  2  3  1  0
  3  4  2  0
  4  5  1  0
  5  6  1  0
  6  7  2  0
  6  8  1  0
  8  9  1  0
  9 10  1  0
 10 11  1  0
 11 12  1  0
 12 13  1  0
 13 14  2  0
 14 15  1  0
 15 16  1  0
 16 17  1  0
 16 18  1  0
 16 19  1  0
 15 20  2  0
 20 21  1  0
 12 22  1  0
 22 23  1  0
  5 24  2  0
 24 25  1  0
 25 26  2  0
 26 27  1  0
 27 28  1  0
 28 29  1  0
 29 30  2  0
 29 31  1  0
 31 32  1  0
 32 33  1  0
 25  2  1  0
 32 27  2  0
 23  9  1  0
 21 13  1  0
M  CHG  3  28  -1  31  -1  33  -1
M  END
>  <UniqueID>  (2747) 
30

>  <SMILES>  (2747) 
C=c1ccc(C(=O)NC2CCN(c3nc(C(F)(F)F)cs3)CC2)c/c1=C/c1[n-]c(=O)[n-]c1[O-]

>  <Energy>  (2747) 
135.9418002083071

>  <Genealogy>  (2747) 
C=c1ccc(C(=O)NC2CCN(c3nc(C(F)(F)F)cs3)CC2)cc1=Cc1[n-]c(=O)[n-]c1[O-] (protonated)
C=c1ccc(C(=O)NC2CCN(c3nc(C(F)(F)F)cs3)CC2)c/c1=C/c1[n-]c(=O)[n-]c1[O-] (cis-trans isomerization)
C=c1ccc(C(=O)NC2CCN(c3nc(C(F)(F)F)cs3)CC2)c/c1=C/c1[n-]c(=O)[n-]c1[O-] (3D coordinates assigned)
C=c1ccc(C(=O)NC2CCN(c3nc(C(F)(F)F)cs3)CC2)c/c1=C/c1[n-]c(=O)[n-]c1[O-] (nonaromatic ring conformer: 135.9418002083071 kcal/mol)

>  <smiles>  (2747) 
C=c1ccc(C(=O)NC2CCN(c3nc(C(F)(F)F)cs3)CC2)cc1=Cc1[nH]c(=O)[nH]c1O

>  <score_type>  (2747) 
oracle

>  <origin>  (2747) 
adg

>  <m_score__min__energy>  (2747) 
-18.640000000000001

>  <m_primary>  (2747) 
energy

$$$$
50:0
     RDKit          3D

 28 31  0  0  0  0  0  0  0  0999 V2000
   57.6920   31.1810   52.4350 C   0  0  0  0  0  0  0  0  0  0  0  0
   56.4050   30.8310   52.4860 C   0  0  0  0  0  0  0  0  0  0  0  0
   55.5000   31.2230   51.5660 N   0  0  0  0  0  0  0  0  0  0  0  0
   54.3020   30.7500   51.9730 C   0  0  0  0  0  0  0  0  0  0  0  0
   53.1420   30.9040   51.3160 C   0  0  0  0  0  0  0  0  0  0  0  0
   51.9400   31.5230   51.8980 C   0  0  0  0  0  0  0  0  0  0  0  0
   51.6450   31.4730   53.2090 N   0  0  0  0  0  0  0  0  0  0  0  0
   50.5300   32.2290   53.3090 C   0  0  0  0  0  0  0  0  0  0  0  0
   49.9350   32.4170   54.4020 O   0  0  0  0  0  0  0  0  0  0  0  0
   50.1130   32.7790   52.1500 N   0  0  0  0  0  0  0  0  0  0  0  0
   51.0210   32.3340   51.2680 C   0  0  0  0  0  0  0  0  0  0  0  0
   51.0360   32.7000   49.9270 O   0  0  0  0  0  0  0  0  0  0  0  0
   54.4400   30.0340   53.1510 C   0  0  0  0  0  0  0  0  0  0  0  0
   55.7840   30.0770   53.4770 C   0  0  0  0  0  0  0  0  0  0  0  0
   56.3870   29.4260   54.6570 C   0  0  0  0  0  0  0  0  0  0  0  0
   55.7500   29.4280   55.7450 O   0  0  0  0  0  0  0  0  0  0  0  0
   57.6640   28.7670   54.5800 N   0  0  0  0  0  0  0  0  0  0  0  0
   57.8980   27.7750   53.5220 C   0  0  0  0  0  0  0  0  0  0  0  0
   59.3790   27.7330   53.1370 C   0  0  0  0  0  0  0  0  0  0  0  0
   60.2130   27.6790   54.3420 N   0  0  0  0  0  0  0  0  0  0  0  0
   61.4170   26.8860   54.3620 C   0  0  0  0  0  0  0  0  0  0  0  0
   62.0340   26.5120   53.1570 C   0  0  0  0  0  0  0  0  0  0  0  0
   63.2040   25.7460   53.1710 C   0  0  0  0  0  0  0  0  0  0  0  0
   63.7660   25.3480   54.3870 C   0  0  0  0  0  0  0  0  0  0  0  0
   63.1600   25.7160   55.5910 C   0  0  0  0  0  0  0  0  0  0  0  0
   61.9910   26.4840   55.5810 C   0  0  0  0  0  0  0  0  0  0  0  0
   59.9840   28.6890   55.3790 C   0  0  0  0  0  0  0  0  0  0  0  0
   58.5080   28.7030   55.7770 C   0  0  0  0  0  0  0  0  0  0  0  0
  1  2  2  0
  2  3  1  0
  3  4  1  0
  4  5  2  3
  5  6  1  0
  6  7  1  0
  7  8  1  0
  8  9  2  0
  8 10  1  0
 10 11  1  0
 11 12  1  0
  4 13  1  0
 13 14  2  0
 14 15  1  0
 15 16  2  0
 15 17  1  0
 17 18  1  0
 18 19  1  0
 19 20  1  0
 20 21  1  0
 21 22  2  0
 22 23  1  0
 23 24  2  0
 24 25  1  0
 25 26  2  0
 20 27  1  0
 27 28  1  0
 14  2  1  0
 28 17  1  0
 11  6  2  0
 26 21  1  0
M  CHG  3   7  -1  10  -1  12  -1
M  END
>  <UniqueID>  (2748) 
49

>  <SMILES>  (2748) 
C=c1[nH]c(=Cc2[n-]c(=O)[n-]c2[O-])cc1C(=O)N1CCN(c2ccccc2)CC1

>  <Energy>  (2748) 
118.73005770041323

>  <Genealogy>  (2748) 
C=c1[nH]c(=Cc2[n-]c(=O)[n-]c2[O-])cc1C(=O)N1CCN(c2ccccc2)CC1 (protonated)
C=c1[nH]c(=Cc2[n-]c(=O)[n-]c2[O-])cc1C(=O)N1CCN(c2ccccc2)CC1 (3D coordinates assigned)
C=c1[nH]c(=Cc2[n-]c(=O)[n-]c2[O-])cc1C(=O)N1CCN(c2ccccc2)CC1 (nonaromatic ring conformer: 118.73005770041323 kcal/mol)

>  <smiles>  (2748) 
C=c1[nH]c(=Cc2[nH]c(=O)[nH]c2O)cc1C(=O)N1CCN(c2ccccc2)CC1

>  <score_type>  (2748) 
oracle

>  <origin>  (2748) 
adg

>  <m_score__min__energy>  (2748) 
-17.719999999999999

>  <m_primary>  (2748) 
energy

$$$$
75:0
     RDKit          3D

 25 27  0  0  0  0  0  0  0  0999 V2000
   59.4680   25.6250   46.6720 C   0  0  0  0  0  0  0  0  0  0  0  0
   58.7710   26.7290   46.3700 C   0  0  0  0  0  0  0  0  0  0  0  0
   59.0510   27.8440   47.1000 N   0  0  0  0  0  0  0  0  0  0  0  0
   58.5800   29.0740   46.7780 C   0  0  0  0  0  0  0  0  0  0  0  0
   57.8070   29.2500   45.6310 C   0  0  0  0  0  0  0  0  0  0  0  0
   57.3530   30.6010   45.2350 C   0  0  0  0  0  0  0  0  0  0  0  0
   56.4580   30.7140   44.3530 O   0  0  0  0  0  0  0  0  0  0  0  0
   57.9150   31.7860   45.8290 N   0  0  0  0  0  0  0  0  0  0  0  0
   57.0680   32.9600   46.0740 C   0  0  0  0  0  0  0  0  0  0  0  0
   57.5730   34.1700   45.2740 C   0  0  0  0  0  0  0  0  0  0  0  0
   59.1260   34.2660   45.2130 C   0  0  0  0  0  0  0  0  0  0  0  0
   59.6210   35.7170   45.3520 C   0  0  0  0  0  0  0  0  0  0  0  0
   59.6830   36.1030   46.7020 O   0  0  0  0  0  0  0  0  0  0  0  0
   59.8140   33.3400   46.2380 C   0  0  0  0  0  0  0  0  0  0  0  0
   59.3710   31.8860   46.0260 C   0  0  0  0  0  0  0  0  0  0  0  0
   57.4950   28.1290   44.8530 C   0  0  0  0  0  0  0  0  0  0  0  0
   57.8870   26.8340   45.2500 C   0  0  0  0  0  0  0  0  0  0  0  0
   57.3700   25.7920   44.5490 C   0  0  0  0  0  0  0  0  0  0  0  0
   56.2160   24.9640   44.9470 C   0  0  0  0  0  0  0  0  0  0  0  0
   56.1500   23.6240   44.8240 N   0  0  0  0  0  0  0  0  0  0  0  0
   54.9790   23.3130   45.4210 C   0  0  0  0  0  0  0  0  0  0  0  0
   54.5490   22.1330   45.4980 O   0  0  0  0  0  0  0  0  0  0  0  0
   54.3090   24.3660   45.9360 N   0  0  0  0  0  0  0  0  0  0  0  0
   55.1120   25.3990   45.6380 C   0  0  0  0  0  0  0  0  0  0  0  0
   54.8440   26.7150   45.9950 O   0  0  0  0  0  0  0  0  0  0  0  0
  1  2  2  0
  2  3  1  0
  3  4  2  0
  4  5  1  0
  5  6  1  0
  6  7  2  0
  6  8  1  0
  8  9  1  0
  9 10  1  0
 10 11  1  0
 11 12  1  0
 12 13  1  0
 11 14  1  0
 14 15  1  0
  5 16  2  0
 16 17  1  0
 17 18  2  3
 18 19  1  0
 19 20  1  0
 20 21  1  0
 21 22  2  0
 21 23  1  0
 23 24  1  0
 24 25  1  0
 17  2  1  0
 24 19  2  0
 15  8  1  0
M  CHG  3  20  -1  23  -1  25  -1
M  END
>  <UniqueID>  (2749) 
74

>  <SMILES>  (2749) 
C=c1ncc(C(=O)N2CCC(CO)CC2)cc1=Cc1[n-]c(=O)[n-]c1[O-]

>  <Energy>  (2749) 
99.06069940418888

>  <Genealogy>  (2749) 
C=c1ncc(C(=O)N2CCC(CO)CC2)cc1=Cc1[n-]c(=O)[n-]c1[O-] (protonated)
C=c1ncc(C(=O)N2CCC(CO)CC2)cc1=Cc1[n-]c(=O)[n-]c1[O-] (3D coordinates assigned)
C=c1ncc(C(=O)N2CCC(CO)CC2)cc1=Cc1[n-]c(=O)[n-]c1[O-] (nonaromatic ring conformer: 99.06069940418888 kcal/mol)

>  <smiles>  (2749) 
C=c1ncc(C(=O)N2CCC(CO)CC2)cc1=Cc1[nH]c(=O)[nH]c1O

>  <score_type>  (2749) 
oracle

>  <origin>  (2749) 
adg

>  <m_score__min__energy>  (2749) 
-16.469999999999999

>  <m_primary>  (2749) 
energy

$$$$
76:0
     RDKit          3D

 25 27  0  0  0  0  0  0  0  0999 V2000
   58.1490   26.9280   43.1700 C   0  0  0  0  0  0  0  0  0  0  0  0
   58.2690   26.7450   44.4950 C   0  0  0  0  0  0  0  0  0  0  0  0
   57.8140   25.6520   45.2520 C   0  0  0  0  0  0  0  0  0  0  0  0
   57.0490   24.5950   44.9160 C   0  0  0  0  0  0  0  0  0  0  0  0
   55.5900   24.5060   45.0770 C   0  0  0  0  0  0  0  0  0  0  0  0
   54.8890   23.3760   44.8800 N   0  0  0  0  0  0  0  0  0  0  0  0
   53.6390   23.7140   45.2650 C   0  0  0  0  0  0  0  0  0  0  0  0
   52.6720   22.9090   45.2110 O   0  0  0  0  0  0  0  0  0  0  0  0
   53.5090   24.9770   45.7250 N   0  0  0  0  0  0  0  0  0  0  0  0
   54.7560   25.4600   45.6140 C   0  0  0  0  0  0  0  0  0  0  0  0
   55.1290   26.7350   46.0190 O   0  0  0  0  0  0  0  0  0  0  0  0
   58.3060   25.8400   46.5350 C   0  0  0  0  0  0  0  0  0  0  0  0
   58.9800   27.0440   46.5350 C   0  0  0  0  0  0  0  0  0  0  0  0
   59.6800   27.6370   47.7180 C   0  0  0  0  0  0  0  0  0  0  0  0
   58.9610   27.5900   45.3000 N   0  0  0  0  0  0  0  0  0  0  0  0
   59.6210   28.8090   44.9250 C   0  0  0  0  0  0  0  0  0  0  0  0
   60.8220   28.7640   44.5420 O   0  0  0  0  0  0  0  0  0  0  0  0
   58.9190   30.0680   44.9590 N   0  0  0  0  0  0  0  0  0  0  0  0
   59.1160   30.9650   46.1140 C   0  0  0  0  0  0  0  0  0  0  0  0
   57.9710   31.9690   46.2600 C   0  0  0  0  0  0  0  0  0  0  0  0
   57.7420   32.6490   44.9850 N   0  0  0  0  0  0  0  0  0  0  0  0
   57.5950   34.1040   44.9090 C   0  0  0  0  0  0  0  0  0  0  0  0
   57.6820   31.8470   43.7980 C   0  0  0  0  0  0  0  0  0  0  0  0
   57.3680   32.3620   42.6910 O   0  0  0  0  0  0  0  0  0  0  0  0
   57.9600   30.3750   43.8840 C   0  0  0  0  0  0  0  0  0  0  0  0
  1  2  2  0
  2  3  1  0
  3  4  2  3
  4  5  1  0
  5  6  1  0
  6  7  1  0
  7  8  2  0
  7  9  1  0
  9 10  1  0
 10 11  1  0
  3 12  1  0
 12 13  2  0
 13 14  1  0
 13 15  1  0
 15 16  1  0
 16 17  2  0
 16 18  1  0
 18 19  1  0
 19 20  1  0
 20 21  1  0
 21 22  1  0
 21 23  1  0
 23 24  2  0
 23 25  1  0
 15  2  1  0
 25 18  1  0
 10  5  2  0
M  CHG  3   6  -1   9  -1  11  -1
M  END
>  <UniqueID>  (2750) 
75

>  <SMILES>  (2750) 
C=c1c(=Cc2[n-]c(=O)[n-]c2[O-])cc(C)n1C(=O)N1CCN(C)C(=O)C1

>  <Energy>  (2750) 
115.42538222047175

>  <Genealogy>  (2750) 
C=c1c(=Cc2[n-]c(=O)[n-]c2[O-])cc(C)n1C(=O)N1CCN(C)C(=O)C1 (protonated)
C=c1c(=Cc2[n-]c(=O)[n-]c2[O-])cc(C)n1C(=O)N1CCN(C)C(=O)C1 (3D coordinates assigned)
C=c1c(=Cc2[n-]c(=O)[n-]c2[O-])cc(C)n1C(=O)N1CCN(C)C(=O)C1 (nonaromatic ring conformer: 115.42538222047175 kcal/mol)

>  <smiles>  (2750) 
C=c1c(=Cc2[nH]c(=O)[nH]c2O)cc(C)n1C(=O)N1CCN(C)C(=O)C1

>  <score_type>  (2750) 
oracle

>  <origin>  (2750) 
adg

>  <m_score__min__energy>  (2750) 
-15.81

>  <m_primary>  (2750) 
energy

$$$$
4:0
     RDKit          3D

 24 26  0  0  0  0  0  0  0  0999 V2000
   54.6730   31.1480   51.4010 C   0  0  0  0  0  0  0  0  0  0  0  0
   54.3900   30.2400   52.3500 C   0  0  0  0  0  0  0  0  0  0  0  0
   53.1120   29.7890   52.7170 C   0  0  0  0  0  0  0  0  0  0  0  0
   51.8890   30.2840   52.4470 C   0  0  0  0  0  0  0  0  0  0  0  0
   51.4190   30.7350   51.1260 C   0  0  0  0  0  0  0  0  0  0  0  0
   51.4170   29.9780   50.0120 N   0  0  0  0  0  0  0  0  0  0  0  0
   51.0380   30.8440   49.0470 C   0  0  0  0  0  0  0  0  0  0  0  0
   50.9030   30.5020   47.8440 O   0  0  0  0  0  0  0  0  0  0  0  0
   50.8260   32.1090   49.4720 N   0  0  0  0  0  0  0  0  0  0  0  0
   51.0860   32.0230   50.7870 C   0  0  0  0  0  0  0  0  0  0  0  0
   51.0240   33.1030   51.6590 O   0  0  0  0  0  0  0  0  0  0  0  0
   53.3070   28.6550   53.4860 C   0  0  0  0  0  0  0  0  0  0  0  0
   54.6700   28.4990   53.6310 C   0  0  0  0  0  0  0  0  0  0  0  0
   55.3170   27.4130   54.4360 C   0  0  0  0  0  0  0  0  0  0  0  0
   55.3320   29.4660   52.9520 N   0  0  0  0  0  0  0  0  0  0  0  0
   56.7620   29.6140   52.8930 C   0  0  0  0  0  0  0  0  0  0  0  0
   57.4150   29.0370   51.9810 O   0  0  0  0  0  0  0  0  0  0  0  0
   57.4380   30.4280   53.8610 N   0  0  0  0  0  0  0  0  0  0  0  0
   57.9120   31.7690   53.6710 C   0  0  0  0  0  0  0  0  0  0  0  0
   58.7090   32.3470   54.6680 C   0  0  0  0  0  0  0  0  0  0  0  0
   59.2070   33.6440   54.5120 C   0  0  0  0  0  0  0  0  0  0  0  0
   58.9280   34.3670   53.3500 C   0  0  0  0  0  0  0  0  0  0  0  0
   58.1550   33.7890   52.3380 C   0  0  0  0  0  0  0  0  0  0  0  0
   57.6530   32.4930   52.4920 C   0  0  0  0  0  0  0  0  0  0  0  0
  1  2  2  0
  2  3  1  0
  3  4  2  3
  4  5  1  0
  5  6  1  0
  6  7  1  0
  7  8  2  0
  7  9  1  0
  9 10  1  0
 10 11  1  0
  3 12  1  0
 12 13  2  0
 13 14  1  0
 13 15  1  0
 15 16  1  0
 16 17  2  0
 16 18  1  0
 18 19  1  0
 19 20  2  0
 20 21  1  0
 21 22  2  0
 22 23  1  0
 23 24  2  0
 15  2  1  0
 24 19  1  0
 10  5  2  0
M  CHG  4   6  -1   9  -1  11  -1  18  -1
M  END
>  <UniqueID>  (2751) 
5

>  <SMILES>  (2751) 
C=c1c(=Cc2[n-]c(=O)[n-]c2[O-])cc(C)n1C(=O)[N-]c1ccccc1

>  <Energy>  (2751) 
115.11003999767546

>  <Genealogy>  (2751) 
C=c1c(=Cc2[n-]c(=O)[n-]c2[O-])cc(C)n1C(=O)[N-]c1ccccc1 (protonated)
C=c1c(=Cc2[n-]c(=O)[n-]c2[O-])cc(C)n1C(=O)[N-]c1ccccc1 (3D coordinates assigned)
C=c1c(=Cc2[n-]c(=O)[n-]c2[O-])cc(C)n1C(=O)[N-]c1ccccc1 (optimized conformer: 115.11003999767546 kcal/mol)

>  <smiles>  (2751) 
C=c1c(=Cc2[nH]c(=O)[nH]c2O)cc(C)n1C(=O)Nc1ccccc1

>  <score_type>  (2751) 
oracle

>  <origin>  (2751) 
adg

>  <m_score__min__energy>  (2751) 
-16.969999999999999

>  <m_primary>  (2751) 
energy

$$$$
17:0
     RDKit          3D

 30 33  0  0  0  0  0  0  0  0999 V2000
   59.2960   27.0870   48.2680 C   0  0  0  0  0  0  0  0  0  0  0  0
   59.5460   28.2000   47.5580 C   0  0  0  0  0  0  0  0  0  0  0  0
   59.2110   28.4220   46.2110 C   0  0  0  0  0  0  0  0  0  0  0  0
   58.4380   27.7180   45.3610 C   0  0  0  0  0  0  0  0  0  0  0  0
   57.2690   26.9100   45.7320 C   0  0  0  0  0  0  0  0  0  0  0  0
   57.3290   25.2770   46.1340 S   0  0  0  0  0  0  0  0  0  0  0  0
   55.6540   25.1470   46.2090 C   0  0  0  0  0  0  0  0  0  0  0  0
   55.0370   24.0920   46.5020 O   0  0  0  0  0  0  0  0  0  0  0  0
   55.0290   26.3040   45.9060 N   0  0  0  0  0  0  0  0  0  0  0  0
   55.9280   27.2830   45.6230 C   0  0  0  0  0  0  0  0  0  0  0  0
   55.5220   28.5530   45.2320 O   0  0  0  0  0  0  0  0  0  0  0  0
   59.8250   29.6050   45.8500 C   0  0  0  0  0  0  0  0  0  0  0  0
   60.4520   30.0970   46.9750 C   0  0  0  0  0  0  0  0  0  0  0  0
   61.1800   31.3840   47.0200 C   0  0  0  0  0  0  0  0  0  0  0  0
   62.4370   31.3780   47.1110 O   0  0  0  0  0  0  0  0  0  0  0  0
   60.4790   32.6430   46.9980 N   0  0  0  0  0  0  0  0  0  0  0  0
   61.1200   33.8330   47.5750 C   0  0  0  0  0  0  0  0  0  0  0  0
   60.0720   34.8940   47.9320 C   0  0  0  0  0  0  0  0  0  0  0  0
   59.1910   35.2880   46.7220 C   0  0  0  0  0  0  0  0  0  0  0  0
   59.7010   36.4430   46.1100 O   0  0  0  0  0  0  0  0  0  0  0  0
   59.0760   34.1710   45.6640 C   0  0  0  0  0  0  0  0  0  0  0  0
   59.2000   32.7750   46.2830 C   0  0  0  0  0  0  0  0  0  0  0  0
   60.2800   29.2500   48.0220 N   0  0  0  0  0  0  0  0  0  0  0  0
   60.8490   29.4310   49.3700 C   0  0  0  0  0  0  0  0  0  0  0  0
   60.3450   30.7010   50.0140 C   0  0  0  0  0  0  0  0  0  0  0  0
   58.9670   30.9520   50.1380 C   0  0  0  0  0  0  0  0  0  0  0  0
   58.5130   32.1190   50.7600 C   0  0  0  0  0  0  0  0  0  0  0  0
   59.4280   33.0380   51.2780 C   0  0  0  0  0  0  0  0  0  0  0  0
   60.7990   32.7890   51.1800 C   0  0  0  0  0  0  0  0  0  0  0  0
   61.2570   31.6230   50.5580 C   0  0  0  0  0  0  0  0  0  0  0  0
  1  2  2  0
  2  3  1  0
  3  4  2  3
  4  5  1  0
  5  6  1  0
  6  7  1  0
  7  8  2  0
  7  9  1  0
  9 10  1  0
 10 11  1  0
  3 12  1  0
 12 13  2  0
 13 14  1  0
 14 15  2  0
 14 16  1  0
 16 17  1  0
 17 18  1  0
 18 19  1  0
 19 20  1  0
 19 21  1  0
 21 22  1  0
 13 23  1  0
 23 24  1  0
 24 25  1  0
 25 26  2  0
 26 27  1  0
 27 28  2  0
 28 29  1  0
 29 30  2  0
 23  2  1  0
 30 25  1  0
 10  5  2  0
 22 16  1  0
M  CHG  2   9  -1  11  -1
M  END
>  <UniqueID>  (2752) 
17

>  <SMILES>  (2752) 
C=c1c(=Cc2sc(=O)[n-]c2[O-])cc(C(=O)N2CCC(O)CC2)n1Cc1ccccc1

>  <Energy>  (2752) 
132.9289378251122

>  <Genealogy>  (2752) 
C=c1c(=Cc2sc(=O)[n-]c2[O-])cc(C(=O)N2CCC(O)CC2)n1Cc1ccccc1 (protonated)
C=c1c(=Cc2sc(=O)[n-]c2[O-])cc(C(=O)N2CCC(O)CC2)n1Cc1ccccc1 (3D coordinates assigned)
C=c1c(=Cc2sc(=O)[n-]c2[O-])cc(C(=O)N2CCC(O)CC2)n1Cc1ccccc1 (nonaromatic ring conformer: 132.9289378251122 kcal/mol)

>  <smiles>  (2752) 
C=c1c(=Cc2sc(=O)[nH]c2O)cc(C(=O)N2CCC(O)CC2)n1Cc1ccccc1

>  <score_type>  (2752) 
oracle

>  <origin>  (2752) 
adg

>  <m_score__min__energy>  (2752) 
-14.41

>  <m_primary>  (2752) 
energy

$$$$
29:0
     RDKit          3D

 31 34  0  0  0  0  0  0  0  0999 V2000
   55.8980   31.9610   52.3540 C   0  0  0  0  0  0  0  0  0  0  0  0
   55.4040   30.7650   52.7100 C   0  0  0  0  0  0  0  0  0  0  0  0
   54.0530   30.4220   52.8200 C   0  0  0  0  0  0  0  0  0  0  0  0
   52.9890   31.2190   52.6110 C   0  0  0  0  0  0  0  0  0  0  0  0
   52.2470   31.2800   51.3390 C   0  0  0  0  0  0  0  0  0  0  0  0
   52.2510   30.2860   50.4340 N   0  0  0  0  0  0  0  0  0  0  0  0
   51.3900   30.7210   49.4870 C   0  0  0  0  0  0  0  0  0  0  0  0
   51.1310   30.0570   48.4500 O   0  0  0  0  0  0  0  0  0  0  0  0
   50.8180   31.9170   49.7470 N   0  0  0  0  0  0  0  0  0  0  0  0
   51.3620   32.2530   50.9280 C   0  0  0  0  0  0  0  0  0  0  0  0
   51.0200   33.4000   51.6330 O   0  0  0  0  0  0  0  0  0  0  0  0
   54.0200   29.0990   53.2450 C   0  0  0  0  0  0  0  0  0  0  0  0
   55.3340   28.6920   53.3720 C   0  0  0  0  0  0  0  0  0  0  0  0
   55.7700   27.3160   53.7740 C   0  0  0  0  0  0  0  0  0  0  0  0
   56.1720   29.6960   53.0350 N   0  0  0  0  0  0  0  0  0  0  0  0
   57.6060   29.6190   53.0190 C   0  0  0  0  0  0  0  0  0  0  0  0
   58.2010   28.9910   53.9370 O   0  0  0  0  0  0  0  0  0  0  0  0
   58.3600   30.2380   51.9600 N   0  0  0  0  0  0  0  0  0  0  0  0
   59.8040   30.4580   52.1190 C   0  0  0  0  0  0  0  0  0  0  0  0
   60.2380   31.7200   51.3640 C   0  0  0  0  0  0  0  0  0  0  0  0
   59.7120   31.7370   49.9940 N   0  0  0  0  0  0  0  0  0  0  0  0
   60.0920   32.8170   49.1220 C   0  0  0  0  0  0  0  0  0  0  0  0
   60.0410   34.0020   49.5460 O   0  0  0  0  0  0  0  0  0  0  0  0
   60.5600   32.5820   47.7860 N   0  0  0  0  0  0  0  0  0  0  0  0
   59.8460   32.9300   46.5600 C   0  0  0  0  0  0  0  0  0  0  0  0
   58.3560   33.0540   46.8310 C   0  0  0  0  0  0  0  0  0  0  0  0
   57.8340   34.0290   45.7840 C   0  0  0  0  0  0  0  0  0  0  0  0
   59.0330   34.8510   45.3150 C   0  0  0  0  0  0  0  0  0  0  0  0
   60.2580   34.3000   46.0330 C   0  0  0  0  0  0  0  0  0  0  0  0
   58.7400   30.7300   49.5560 C   0  0  0  0  0  0  0  0  0  0  0  0
   57.7120   30.4710   50.6600 C   0  0  0  0  0  0  0  0  0  0  0  0
  1  2  2  0
  2  3  1  0
  3  4  2  0
  4  5  1  0
  5  6  1  0
  6  7  1  0
  7  8  2  0
  7  9  1  0
  9 10  1  0
 10 11  1  0
  3 12  1  0
 12 13  2  0
 13 14  1  0
 13 15  1  0
 15 16  1  0
 16 17  2  0
 16 18  1  0
 18 19  1  0
 19 20  1  0
 20 21  1  0
 21 22  1  0
 22 23  2  0
 22 24  1  0
 24 25  1  0
 25 26  1  0
 26 27  1  0
 27 28  1  0
 28 29  1  0
 21 30  1  0
 30 31  1  0
 15  2  1  0
 31 18  1  0
 10  5  2  0
 29 25  1  0
M  CHG  4   6  -1   9  -1  11  -1  24  -1
M  END
>  <UniqueID>  (2753) 
27

>  <SMILES>  (2753) 
C=c1/c(=C/c2[n-]c(=O)[n-]c2[O-])cc(C)n1C(=O)N1CCN(C(=O)[N-]C2CCCC2)CC1

>  <Energy>  (2753) 
128.03136557366068

>  <Genealogy>  (2753) 
C=c1c(=Cc2[n-]c(=O)[n-]c2[O-])cc(C)n1C(=O)N1CCN(C(=O)[N-]C2CCCC2)CC1 (protonated)
C=c1/c(=C/c2[n-]c(=O)[n-]c2[O-])cc(C)n1C(=O)N1CCN(C(=O)[N-]C2CCCC2)CC1 (cis-trans isomerization)
C=c1/c(=C/c2[n-]c(=O)[n-]c2[O-])cc(C)n1C(=O)N1CCN(C(=O)[N-]C2CCCC2)CC1 (3D coordinates assigned)
C=c1/c(=C/c2[n-]c(=O)[n-]c2[O-])cc(C)n1C(=O)N1CCN(C(=O)[N-]C2CCCC2)CC1 (nonaromatic ring conformer: 128.03136557366068 kcal/mol)

>  <smiles>  (2753) 
C=c1c(=Cc2[nH]c(=O)[nH]c2O)cc(C)n1C(=O)N1CCN(C(=O)NC2CCCC2)CC1

>  <score_type>  (2753) 
oracle

>  <origin>  (2753) 
adg

>  <m_score__min__energy>  (2753) 
-18.550000000000001

>  <m_primary>  (2753) 
energy

$$$$
30:0
     RDKit          3D

 21 22  0  0  0  0  0  0  0  0999 V2000
   57.4270   34.1790   44.8790 C   0  0  0  0  0  0  0  0  0  0  0  0
   58.5870   34.2300   46.2830 S   0  0  0  0  0  0  0  0  0  0  0  0
   57.9630   32.7160   47.0920 C   0  0  0  0  0  0  0  0  0  0  0  0
   58.2460   31.5160   46.2500 C   0  0  0  0  0  0  0  0  0  0  0  0
   57.3590   30.9930   45.3740 N   0  0  0  0  0  0  0  0  0  0  0  0
   57.8510   29.8910   44.7510 C   0  0  0  0  0  0  0  0  0  0  0  0
   59.1450   29.5420   45.1220 C   0  0  0  0  0  0  0  0  0  0  0  0
   59.8620   28.2960   44.7090 C   0  0  0  0  0  0  0  0  0  0  0  0
   58.9500   27.1510   44.8140 N   0  0  0  0  0  0  0  0  0  0  0  0
   57.9950   26.8700   43.7380 C   0  0  0  0  0  0  0  0  0  0  0  0
   58.9340   26.3710   46.0260 C   0  0  0  0  0  0  0  0  0  0  0  0
   59.8480   25.5280   46.2390 O   0  0  0  0  0  0  0  0  0  0  0  0
   57.9130   26.6170   47.0980 C   0  0  0  0  0  0  0  0  0  0  0  0
   56.6250   25.9530   46.7190 C   0  0  0  0  0  0  0  0  0  0  0  0
   56.3580   24.6500   46.9200 N   0  0  0  0  0  0  0  0  0  0  0  0
   55.1510   24.4860   46.3370 C   0  0  0  0  0  0  0  0  0  0  0  0
   54.5530   23.3790   46.3180 O   0  0  0  0  0  0  0  0  0  0  0  0
   54.6410   25.5980   45.7650 N   0  0  0  0  0  0  0  0  0  0  0  0
   55.5910   26.5150   46.0090 C   0  0  0  0  0  0  0  0  0  0  0  0
   55.5200   27.8340   45.5790 O   0  0  0  0  0  0  0  0  0  0  0  0
   59.6750   30.6270   46.2920 S   0  0  0  0  0  0  0  0  0  0  0  0
  1  2  1  0
  2  3  1  0
  3  4  1  0
  4  5  2  0
  5  6  1  0
  6  7  2  0
  7  8  1  0
  8  9  1  0
  9 10  1  0
  9 11  1  0
 11 12  2  0
 11 13  1  0
 13 14  1  0
 14 15  1  0
 15 16  1  0
 16 17  2  0
 16 18  1  0
 18 19  1  0
 19 20  1  0
  7 21  1  0
 21  4  1  0
 19 14  2  0
M  CHG  3  15  -1  18  -1  20  -1
M  END
>  <UniqueID>  (2754) 
28

>  <SMILES>  (2754) 
CSCc1ncc(CN(C)C(=O)Cc2[n-]c(=O)[n-]c2[O-])s1

>  <Energy>  (2754) 
81.21890992924159

>  <Genealogy>  (2754) 
CSCc1ncc(CN(C)C(=O)Cc2[n-]c(=O)[n-]c2[O-])s1 (protonated)
CSCc1ncc(CN(C)C(=O)Cc2[n-]c(=O)[n-]c2[O-])s1 (3D coordinates assigned)
CSCc1ncc(CN(C)C(=O)Cc2[n-]c(=O)[n-]c2[O-])s1 (optimized conformer: 81.21890992924159 kcal/mol)

>  <smiles>  (2754) 
CSCc1ncc(CN(C)C(=O)Cc2[nH]c(=O)[nH]c2O)s1

>  <score_type>  (2754) 
oracle

>  <origin>  (2754) 
adg

>  <m_score__min__energy>  (2754) 
-14.84

>  <m_primary>  (2754) 
energy

$$$$
37:0
     RDKit          3D

 26 28  0  0  0  0  0  0  0  0999 V2000
   55.5950   31.9080   52.1460 C   0  0  0  0  0  0  0  0  0  0  0  0
   55.1990   30.7410   52.6780 C   0  0  0  0  0  0  0  0  0  0  0  0
   53.8830   30.3610   52.9630 C   0  0  0  0  0  0  0  0  0  0  0  0
   52.7630   31.0840   52.7630 C   0  0  0  0  0  0  0  0  0  0  0  0
   52.0390   31.1430   51.4800 C   0  0  0  0  0  0  0  0  0  0  0  0
   52.1360   30.1930   50.5350 N   0  0  0  0  0  0  0  0  0  0  0  0
   51.3950   30.6860   49.5180 C   0  0  0  0  0  0  0  0  0  0  0  0
   51.2300   30.0640   48.4360 O   0  0  0  0  0  0  0  0  0  0  0  0
   50.8540   31.9000   49.7480 N   0  0  0  0  0  0  0  0  0  0  0  0
   51.2800   32.1840   50.9890 C   0  0  0  0  0  0  0  0  0  0  0  0
   51.0200   33.3860   51.6340 O   0  0  0  0  0  0  0  0  0  0  0  0
   53.9490   29.0580   53.4370 C   0  0  0  0  0  0  0  0  0  0  0  0
   55.2820   28.7000   53.4270 C   0  0  0  0  0  0  0  0  0  0  0  0
   55.7980   27.3520   53.8290 C   0  0  0  0  0  0  0  0  0  0  0  0
   56.0460   29.7330   53.0070 N   0  0  0  0  0  0  0  0  0  0  0  0
   57.4700   29.7080   52.7970 C   0  0  0  0  0  0  0  0  0  0  0  0
   58.2260   29.6660   53.8050 O   0  0  0  0  0  0  0  0  0  0  0  0
   58.0590   29.7500   51.4690 N   0  0  0  0  0  0  0  0  0  0  0  0
   59.3390   28.9860   51.4420 C   0  0  0  0  0  0  0  0  0  0  0  0
   60.4230   29.6350   50.5760 C   0  0  0  0  0  0  0  0  0  0  0  0
   60.6170   31.0250   51.0070 N   0  0  0  0  0  0  0  0  0  0  0  0
   61.9440   31.5800   51.1270 C   0  0  0  0  0  0  0  0  0  0  0  0
   62.9390   30.9470   50.6760 O   0  0  0  0  0  0  0  0  0  0  0  0
   62.1740   32.9140   51.7700 C   0  0  0  0  0  0  0  0  0  0  0  0
   59.4350   31.8600   51.2530 C   0  0  0  0  0  0  0  0  0  0  0  0
   58.1390   31.1190   50.8920 C   0  0  0  0  0  0  0  0  0  0  0  0
  1  2  2  0
  2  3  1  0
  3  4  2  0
  4  5  1  0
  5  6  1  0
  6  7  1  0
  7  8  2  0
  7  9  1  0
  9 10  1  0
 10 11  1  0
  3 12  1  0
 12 13  2  0
 13 14  1  0
 13 15  1  0
 15 16  1  0
 16 17  2  0
 16 18  1  0
 18 19  1  0
 19 20  1  0
 20 21  1  0
 21 22  1  0
 22 23  2  0
 22 24  1  0
 21 25  1  0
 25 26  1  0
 15  2  1  0
 26 18  1  0
 10  5  2  0
M  CHG  4   6  -1   9  -1  11  -1  18   1
M  END
>  <UniqueID>  (2755) 
35

>  <SMILES>  (2755) 
C=c1/c(=C/c2[n-]c(=O)[n-]c2[O-])cc(C)n1C(=O)[NH+]1CCN(C(C)=O)CC1

>  <Energy>  (2755) 
126.52357178959353

>  <Genealogy>  (2755) 
C=c1c(=Cc2[n-]c(=O)[n-]c2[O-])cc(C)n1C(=O)[NH+]1CCN(C(C)=O)CC1 (protonated)
C=c1/c(=C/c2[n-]c(=O)[n-]c2[O-])cc(C)n1C(=O)[NH+]1CCN(C(C)=O)CC1 (cis-trans isomerization)
C=c1/c(=C/c2[n-]c(=O)[n-]c2[O-])cc(C)n1C(=O)[NH+]1CCN(C(C)=O)CC1 (3D coordinates assigned)
C=c1/c(=C/c2[n-]c(=O)[n-]c2[O-])cc(C)n1C(=O)[NH+]1CCN(C(C)=O)CC1 (nonaromatic ring conformer: 126.52357178959353 kcal/mol)

>  <smiles>  (2755) 
C=c1c(=Cc2[nH]c(=O)[nH]c2O)cc(C)n1C(=O)N1CCN(C(C)=O)CC1

>  <score_type>  (2755) 
oracle

>  <origin>  (2755) 
adg

>  <m_score__min__energy>  (2755) 
-14.94

>  <m_primary>  (2755) 
energy

$$$$
38:0
     RDKit          3D

 29 31  0  0  0  0  0  0  0  0999 V2000
   61.4160   30.8230   49.5070 C   0  0  0  0  0  0  0  0  0  0  0  0
   60.5280   29.8120   49.3230 N   0  0  0  0  0  0  0  0  0  0  0  0
   60.1460   29.3940   48.0820 C   0  0  0  0  0  0  0  0  0  0  0  0
   59.3030   28.4100   47.9380 N   0  0  0  0  0  0  0  0  0  0  0  0
   59.6090   27.0530   47.5830 C   0  0  0  0  0  0  0  0  0  0  0  0
   60.3320   26.3750   48.3600 O   0  0  0  0  0  0  0  0  0  0  0  0
   59.2130   26.4570   46.2590 C   0  0  0  0  0  0  0  0  0  0  0  0
   57.7190   26.3940   46.1360 C   0  0  0  0  0  0  0  0  0  0  0  0
   57.0220   25.2440   46.1840 N   0  0  0  0  0  0  0  0  0  0  0  0
   55.7430   25.6490   46.0400 C   0  0  0  0  0  0  0  0  0  0  0  0
   54.7740   24.8460   46.0330 O   0  0  0  0  0  0  0  0  0  0  0  0
   55.5840   26.9820   45.9000 N   0  0  0  0  0  0  0  0  0  0  0  0
   56.8420   27.4540   45.9620 C   0  0  0  0  0  0  0  0  0  0  0  0
   57.1810   28.9130   45.8230 C   0  0  0  0  0  0  0  0  0  0  0  0
   56.2980   29.6110   44.8330 C   0  0  0  0  0  0  0  0  0  0  0  0
   55.1380   29.1680   44.6230 O   0  0  0  0  0  0  0  0  0  0  0  0
   56.7820   30.7620   44.1280 N   0  0  0  0  0  0  0  0  0  0  0  0
   57.5680   31.8370   44.6660 C   0  0  0  0  0  0  0  0  0  0  0  0
   57.7990   31.9530   46.0500 C   0  0  0  0  0  0  0  0  0  0  0  0
   58.5850   32.9970   46.5480 C   0  0  0  0  0  0  0  0  0  0  0  0
   58.8650   33.1340   48.2750 Cl  0  0  0  0  0  0  0  0  0  0  0  0
   59.1580   33.9230   45.6720 C   0  0  0  0  0  0  0  0  0  0  0  0
   58.9540   33.8050   44.2960 C   0  0  0  0  0  0  0  0  0  0  0  0
   58.1630   32.7640   43.7820 C   0  0  0  0  0  0  0  0  0  0  0  0
   57.9490   32.6460   42.2960 C   0  0  0  0  0  0  0  0  0  0  0  0
   60.7000   30.0130   46.9430 C   0  0  0  0  0  0  0  0  0  0  0  0
   60.3090   29.5800   45.5540 C   0  0  0  0  0  0  0  0  0  0  0  0
   61.6250   31.0550   47.1210 C   0  0  0  0  0  0  0  0  0  0  0  0
   61.9820   31.4630   48.4060 C   0  0  0  0  0  0  0  0  0  0  0  0
  1  2  1  0
  2  3  1  0
  3  4  2  0
  4  5  1  0
  5  6  2  0
  5  7  1  0
  7  8  1  0
  8  9  1  0
  9 10  1  0
 10 11  2  0
 10 12  1  0
 12 13  1  0
 13 14  1  0
 14 15  1  0
 15 16  2  0
 15 17  1  0
 17 18  1  0
 18 19  2  0
 19 20  1  0
 20 21  1  0
 20 22  2  0
 22 23  1  0
 23 24  2  0
 24 25  1  0
  3 26  1  0
 26 27  1  0
 26 28  2  0
 28 29  1  0
 29  1  2  0
 13  8  2  0
 24 18  1  0
M  CHG  4   2  -1   9  -1  12  -1  17  -1
M  END
>  <UniqueID>  (2756) 
36

>  <SMILES>  (2756) 
Cc1ccc(Cl)cc1[N-]C(=O)Cc1[n-]c(=O)[n-]c1CC(=O)/N=c1\[n-]cccc1C

>  <Energy>  (2756) 
80.28479959660143

>  <Genealogy>  (2756) 
Cc1ccc(Cl)cc1[N-]C(=O)Cc1[n-]c(=O)[n-]c1CC(=O)N=c1[n-]cccc1C (protonated)
Cc1ccc(Cl)cc1[N-]C(=O)Cc1[n-]c(=O)[n-]c1CC(=O)/N=c1\[n-]cccc1C (cis-trans isomerization)
Cc1ccc(Cl)cc1[N-]C(=O)Cc1[n-]c(=O)[n-]c1CC(=O)/N=c1\[n-]cccc1C (3D coordinates assigned)
Cc1ccc(Cl)cc1[N-]C(=O)Cc1[n-]c(=O)[n-]c1CC(=O)/N=c1\[n-]cccc1C (optimized conformer: 80.28479959660143 kcal/mol)

>  <smiles>  (2756) 
Cc1ccc(Cl)cc1NC(=O)Cc1[nH]c(=O)[nH]c1CC(=O)N=c1[nH]cccc1C

>  <score_type>  (2756) 
oracle

>  <origin>  (2756) 
adg

>  <m_score__min__energy>  (2756) 
-15.050000000000001

>  <m_primary>  (2756) 
energy

$$$$
52:0
     RDKit          3D

 26 28  0  0  0  0  0  0  0  0999 V2000
   59.6820   26.8150   47.1710 C   0  0  0  0  0  0  0  0  0  0  0  0
   58.7890   27.3390   46.3150 C   0  0  0  0  0  0  0  0  0  0  0  0
   57.7550   26.6430   45.6730 C   0  0  0  0  0  0  0  0  0  0  0  0
   57.4980   25.3180   45.7540 C   0  0  0  0  0  0  0  0  0  0  0  0
   56.1600   24.6900   45.6780 C   0  0  0  0  0  0  0  0  0  0  0  0
   55.9050   23.3940   45.4220 N   0  0  0  0  0  0  0  0  0  0  0  0
   54.5580   23.3290   45.4200 C   0  0  0  0  0  0  0  0  0  0  0  0
   53.9310   22.2570   45.2160 O   0  0  0  0  0  0  0  0  0  0  0  0
   53.9340   24.5030   45.6490 N   0  0  0  0  0  0  0  0  0  0  0  0
   54.9620   25.3530   45.8060 C   0  0  0  0  0  0  0  0  0  0  0  0
   54.8060   26.7100   46.0620 O   0  0  0  0  0  0  0  0  0  0  0  0
   57.0580   27.5900   44.9350 C   0  0  0  0  0  0  0  0  0  0  0  0
   57.6900   28.8000   45.1340 C   0  0  0  0  0  0  0  0  0  0  0  0
   57.2100   30.0700   44.5570 C   0  0  0  0  0  0  0  0  0  0  0  0
   56.0280   30.4410   44.7890 O   0  0  0  0  0  0  0  0  0  0  0  0
   58.0510   30.8510   43.6980 N   0  0  0  0  0  0  0  0  0  0  0  0
   57.7680   32.2500   43.3870 C   0  0  0  0  0  0  0  0  0  0  0  0
   58.1280   33.1170   44.5620 C   0  0  0  0  0  0  0  0  0  0  0  0
   57.4060   33.0300   45.7630 C   0  0  0  0  0  0  0  0  0  0  0  0
   57.7760   33.8080   46.8640 C   0  0  0  0  0  0  0  0  0  0  0  0
   58.8740   34.6690   46.7760 C   0  0  0  0  0  0  0  0  0  0  0  0
   59.6040   34.7520   45.5880 C   0  0  0  0  0  0  0  0  0  0  0  0
   59.2360   33.9770   44.4830 C   0  0  0  0  0  0  0  0  0  0  0  0
   58.7420   28.6560   45.9770 N   0  0  0  0  0  0  0  0  0  0  0  0
   59.5920   29.7360   46.5060 C   0  0  0  0  0  0  0  0  0  0  0  0
   58.9140   30.4480   47.6750 C   0  0  0  0  0  0  0  0  0  0  0  0
  1  2  2  0
  2  3  1  0
  3  4  2  3
  4  5  1  0
  5  6  1  0
  6  7  1  0
  7  8  2  0
  7  9  1  0
  9 10  1  0
 10 11  1  0
  3 12  1  0
 12 13  2  0
 13 14  1  0
 14 15  2  0
 14 16  1  0
 16 17  1  0
 17 18  1  0
 18 19  2  0
 19 20  1  0
 20 21  2  0
 21 22  1  0
 22 23  2  0
 13 24  1  0
 24 25  1  0
 25 26  1  0
 24  2  1  0
 10  5  2  0
 23 18  1  0
M  CHG  3   6  -1   9  -1  11  -1
M  END
>  <UniqueID>  (2757) 
50

>  <SMILES>  (2757) 
C=c1c(=Cc2[n-]c(=O)[n-]c2[O-])cc(C(=O)NCc2ccccc2)n1CC

>  <Energy>  (2757) 
106.77134181589665

>  <Genealogy>  (2757) 
C=c1c(=Cc2[n-]c(=O)[n-]c2[O-])cc(C(=O)NCc2ccccc2)n1CC (protonated)
C=c1c(=Cc2[n-]c(=O)[n-]c2[O-])cc(C(=O)NCc2ccccc2)n1CC (3D coordinates assigned)
C=c1c(=Cc2[n-]c(=O)[n-]c2[O-])cc(C(=O)NCc2ccccc2)n1CC (optimized conformer: 106.77134181589665 kcal/mol)

>  <smiles>  (2757) 
C=c1c(=Cc2[nH]c(=O)[nH]c2O)cc(C(=O)NCc2ccccc2)n1CC

>  <score_type>  (2757) 
oracle

>  <origin>  (2757) 
adg

>  <m_score__min__energy>  (2757) 
-17.620000000000001

>  <m_primary>  (2757) 
energy

$$$$
78:0
     RDKit          3D

 31 34  0  0  0  0  0  0  0  0999 V2000
   60.3350   28.0490   45.8360 C   0  0  0  0  0  0  0  0  0  0  0  0
   59.2090   28.7530   45.6260 C   0  0  0  0  0  0  0  0  0  0  0  0
   58.0210   28.2610   45.0590 C   0  0  0  0  0  0  0  0  0  0  0  0
   57.6180   27.0010   44.8030 C   0  0  0  0  0  0  0  0  0  0  0  0
   57.1480   26.0280   45.8010 C   0  0  0  0  0  0  0  0  0  0  0  0
   57.8960   25.0060   46.2510 N   0  0  0  0  0  0  0  0  0  0  0  0
   57.0430   24.3160   47.0380 C   0  0  0  0  0  0  0  0  0  0  0  0
   57.3840   23.2780   47.6630 O   0  0  0  0  0  0  0  0  0  0  0  0
   55.7900   24.8170   47.0930 N   0  0  0  0  0  0  0  0  0  0  0  0
   55.8680   25.8930   46.2930 C   0  0  0  0  0  0  0  0  0  0  0  0
   54.7880   26.7140   45.9960 O   0  0  0  0  0  0  0  0  0  0  0  0
   57.2360   29.3630   44.7850 C   0  0  0  0  0  0  0  0  0  0  0  0
   57.9210   30.4670   45.2430 C   0  0  0  0  0  0  0  0  0  0  0  0
   57.3960   31.8690   45.1560 C   0  0  0  0  0  0  0  0  0  0  0  0
   59.1060   30.1040   45.7940 N   0  0  0  0  0  0  0  0  0  0  0  0
   60.0990   31.0340   46.3680 C   0  0  0  0  0  0  0  0  0  0  0  0
   60.0680   31.0300   47.8850 C   0  0  0  0  0  0  0  0  0  0  0  0
   60.3960   29.8370   48.5510 C   0  0  0  0  0  0  0  0  0  0  0  0
   60.4340   29.7860   49.9410 C   0  0  0  0  0  0  0  0  0  0  0  0
   60.1140   30.9110   50.6920 C   0  0  0  0  0  0  0  0  0  0  0  0
   59.7070   32.0950   50.0650 C   0  0  0  0  0  0  0  0  0  0  0  0
   59.3040   33.5080   51.1190 S   0  0  0  0  0  0  0  0  0  0  0  0
   57.8400   32.8200   52.0100 C   0  0  1  0  0  0  0  0  0  0  0  0
   57.1430   31.6790   51.2420 C   0  0  0  0  0  0  0  0  0  0  0  0
   56.1460   30.9630   52.1630 C   0  0  0  0  0  0  0  0  0  0  0  0
   56.8030   30.3330   53.3460 N   0  0  1  0  0  0  0  0  0  0  0  0
   56.9460   28.8790   53.1550 C   0  0  0  0  0  0  0  0  0  0  0  0
   58.1220   30.9250   53.6980 C   0  0  0  0  0  0  0  0  0  0  0  0
   58.1450   32.4450   53.4800 C   0  0  0  0  0  0  0  0  0  0  0  0
   59.7060   32.1780   48.6450 C   0  0  0  0  0  0  0  0  0  0  0  0
   59.4040   33.4890   47.9510 C   0  0  0  0  0  0  0  0  0  0  0  0
  1  2  2  0
  2  3  1  0
  3  4  2  0
  4  5  1  0
  5  6  1  0
  6  7  1  0
  7  8  2  0
  7  9  1  0
  9 10  1  0
 10 11  1  0
  3 12  1  0
 12 13  2  0
 13 14  1  0
 13 15  1  0
 15 16  1  0
 16 17  1  0
 17 18  2  0
 18 19  1  0
 19 20  2  0
 20 21  1  0
 21 22  1  0
 23 22  1  6
 23 24  1  0
 24 25  1  0
 25 26  1  0
 26 27  1  6
 26 28  1  0
 28 29  1  0
 21 30  2  0
 30 31  1  0
 15  2  1  0
 30 17  1  0
 10  5  2  0
 29 23  1  0
M  CHG  4   6  -1   9  -1  11  -1  26   1
M  END
>  <UniqueID>  (2758) 
74

>  <SMILES>  (2758) 
C=c1/c(=C\c2[n-]c(=O)[n-]c2[O-])cc(C)n1Cc1cccc(SC2CC[NH+](C)CC2)c1C

>  <Energy>  (2758) 
141.32444155412756

>  <Genealogy>  (2758) 
C=c1c(=Cc2[n-]c(=O)[n-]c2[O-])cc(C)n1Cc1cccc(SC2CC[NH+](C)CC2)c1C (protonated)
C=c1/c(=C\c2[n-]c(=O)[n-]c2[O-])cc(C)n1Cc1cccc(SC2CC[NH+](C)CC2)c1C (cis-trans isomerization)
C=c1/c(=C\c2[n-]c(=O)[n-]c2[O-])cc(C)n1Cc1cccc(SC2CC[NH+](C)CC2)c1C (3D coordinates assigned)
C=c1/c(=C\c2[n-]c(=O)[n-]c2[O-])cc(C)n1Cc1cccc(SC2CC[NH+](C)CC2)c1C (nonaromatic ring conformer: 141.32444155412756 kcal/mol)

>  <smiles>  (2758) 
C=c1c(=Cc2[nH]c(=O)[nH]c2O)cc(C)n1Cc1cccc(SC2CCN(C)CC2)c1C

>  <score_type>  (2758) 
oracle

>  <origin>  (2758) 
adg

>  <m_score__min__energy>  (2758) 
-15.82

>  <m_primary>  (2758) 
energy

$$$$
0:0
     RDKit          3D

 27 30  0  0  0  0  0  0  0  0999 V2000
   55.8420   30.4500   44.0610 C   0  0  0  0  0  0  0  0  0  0  0  0
   56.7430   29.7850   44.7880 C   0  0  0  0  0  0  0  0  0  0  0  0
   56.8450   28.4390   44.7530 N   0  0  0  0  0  0  0  0  0  0  0  0
   57.8350   28.0970   45.5960 C   0  0  0  0  0  0  0  0  0  0  0  0
   58.2190   26.8310   45.7920 C   0  0  0  0  0  0  0  0  0  0  0  0
   57.3550   25.8280   46.4280 C   0  0  0  0  0  0  0  0  0  0  0  0
   57.8140   24.7110   47.0160 N   0  0  0  0  0  0  0  0  0  0  0  0
   56.6850   24.0350   47.3300 C   0  0  0  0  0  0  0  0  0  0  0  0
   56.6990   22.9130   47.8980 O   0  0  0  0  0  0  0  0  0  0  0  0
   55.5380   24.6480   46.9620 N   0  0  0  0  0  0  0  0  0  0  0  0
   55.9810   25.7780   46.3830 C   0  0  0  0  0  0  0  0  0  0  0  0
   55.1460   26.7260   45.8030 O   0  0  0  0  0  0  0  0  0  0  0  0
   58.3820   29.2270   46.1840 C   0  0  0  0  0  0  0  0  0  0  0  0
   57.6900   30.3170   45.6710 C   0  0  0  0  0  0  0  0  0  0  0  0
   57.9740   31.7430   45.9940 C   0  0  0  0  0  0  0  0  0  0  0  0
   57.3310   32.6530   45.4000 O   0  0  0  0  0  0  0  0  0  0  0  0
   59.0460   32.0960   46.9090 N   0  0  0  0  0  0  0  0  0  0  0  0
   60.3140   31.5030   46.4410 C   0  0  0  0  0  0  0  0  0  0  0  0
   61.4660   31.8590   47.3930 C   0  0  0  0  0  0  0  0  0  0  0  0
   61.5860   33.3240   47.5010 N   0  0  0  0  0  0  0  0  0  0  0  0
   62.8240   33.7260   48.2290 C   0  0  0  0  0  0  0  0  0  0  0  0
   63.9610   32.7020   48.2840 C   0  0  0  0  0  0  0  0  0  0  0  0
   64.8050   33.1580   49.4610 C   0  0  0  0  0  0  0  0  0  0  0  0
   63.8380   33.8230   50.4420 C   0  0  0  0  0  0  0  0  0  0  0  0
   62.5290   34.0650   49.6880 C   0  0  0  0  0  0  0  0  0  0  0  0
   60.3250   33.9090   48.0070 C   0  0  0  0  0  0  0  0  0  0  0  0
   59.1710   33.5630   47.0600 C   0  0  0  0  0  0  0  0  0  0  0  0
  1  2  2  0
  2  3  1  0
  3  4  1  0
  4  5  2  3
  5  6  1  0
  6  7  1  0
  7  8  1  0
  8  9  2  0
  8 10  1  0
 10 11  1  0
 11 12  1  0
  4 13  1  0
 13 14  2  0
 14 15  1  0
 15 16  2  0
 15 17  1  0
 17 18  1  0
 18 19  1  0
 19 20  1  0
 20 21  1  0
 21 22  1  0
 22 23  1  0
 23 24  1  0
 24 25  1  0
 20 26  1  0
 26 27  1  0
 14  2  1  0
 27 17  1  0
 11  6  2  0
 25 21  1  0
M  CHG  4   7  -1  10  -1  12  -1  17   1
M  END
>  <UniqueID>  (2759) 
1

>  <SMILES>  (2759) 
C=c1[nH]c(=Cc2[n-]c(=O)[n-]c2[O-])cc1C(=O)[NH+]1CCN(C2CCCC2)CC1

>  <Energy>  (2759) 
129.80391671491347

>  <Genealogy>  (2759) 
C=c1[nH]c(=Cc2[n-]c(=O)[n-]c2[O-])cc1C(=O)[NH+]1CCN(C2CCCC2)CC1 (protonated)
C=c1[nH]c(=Cc2[n-]c(=O)[n-]c2[O-])cc1C(=O)[NH+]1CCN(C2CCCC2)CC1 (3D coordinates assigned)
C=c1[nH]c(=Cc2[n-]c(=O)[n-]c2[O-])cc1C(=O)[NH+]1CCN(C2CCCC2)CC1 (nonaromatic ring conformer: 129.80391671491347 kcal/mol)

>  <smiles>  (2759) 
C=c1[nH]c(=Cc2[nH]c(=O)[nH]c2O)cc1C(=O)N1CCN(C2CCCC2)CC1

>  <score_type>  (2759) 
oracle

>  <origin>  (2759) 
adg

>  <m_score__min__energy>  (2759) 
-16.449999999999999

>  <m_primary>  (2759) 
energy

$$$$
3:0
     RDKit          3D

 29 32  0  0  0  0  0  0  0  0999 V2000
   53.3890   28.5590   53.4730 C   0  0  0  0  0  0  0  0  0  0  0  0
   54.3240   29.2600   52.8120 C   0  0  0  0  0  0  0  0  0  0  0  0
   54.1040   30.2820   51.8760 C   0  0  0  0  0  0  0  0  0  0  0  0
   52.9780   30.6870   51.2550 C   0  0  0  0  0  0  0  0  0  0  0  0
   51.8590   31.4040   51.8860 C   0  0  0  0  0  0  0  0  0  0  0  0
   51.6040   31.3680   53.2050 N   0  0  0  0  0  0  0  0  0  0  0  0
   50.5920   32.2510   53.3510 C   0  0  0  0  0  0  0  0  0  0  0  0
   50.0560   32.4890   54.4640 O   0  0  0  0  0  0  0  0  0  0  0  0
   50.2100   32.8700   52.2130 N   0  0  0  0  0  0  0  0  0  0  0  0
   51.0330   32.3340   51.2970 C   0  0  0  0  0  0  0  0  0  0  0  0
   51.0450   32.7080   49.9600 O   0  0  0  0  0  0  0  0  0  0  0  0
   55.3320   30.8780   51.6590 C   0  0  0  0  0  0  0  0  0  0  0  0
   56.2650   30.1760   52.4030 C   0  0  0  0  0  0  0  0  0  0  0  0
   57.7090   30.5170   52.5180 C   0  0  0  0  0  0  0  0  0  0  0  0
   58.2520   30.4300   53.6530 O   0  0  0  0  0  0  0  0  0  0  0  0
   58.5080   30.9870   51.4000 N   0  0  0  0  0  0  0  0  0  0  0  0
   58.1000   32.3530   50.9950 C   0  0  0  0  0  0  0  0  0  0  0  0
   58.5480   32.6990   49.5610 C   0  0  0  0  0  0  0  0  0  0  0  0
   59.7710   31.9500   49.2180 N   0  0  0  0  0  0  0  0  0  0  0  0
   60.4910   32.4120   47.9970 C   0  0  0  0  0  0  0  0  0  0  0  0
   59.8920   31.9110   46.6550 C   0  0  0  0  0  0  0  0  0  0  0  0
   58.9380   32.9230   46.0090 C   0  0  0  0  0  0  0  0  0  0  0  0
   59.5530   34.1880   45.9000 O   0  0  0  0  0  0  0  0  0  0  0  0
   59.7180   34.7440   47.1880 C   0  0  0  0  0  0  0  0  0  0  0  0
   60.7320   33.9420   48.0180 C   0  0  0  0  0  0  0  0  0  0  0  0
   59.5290   30.4870   49.1930 C   0  0  0  0  0  0  0  0  0  0  0  0
   58.5130   30.0420   50.2650 C   0  0  0  0  0  0  0  0  0  0  0  0
   55.6530   29.1750   53.0820 N   0  0  0  0  0  0  0  0  0  0  0  0
   56.3030   28.2240   53.9920 C   0  0  0  0  0  0  0  0  0  0  0  0
  1  2  2  0
  2  3  1  0
  3  4  2  3
  4  5  1  0
  5  6  1  0
  6  7  1  0
  7  8  2  0
  7  9  1  0
  9 10  1  0
 10 11  1  0
  3 12  1  0
 12 13  2  0
 13 14  1  0
 14 15  2  0
 14 16  1  0
 16 17  1  0
 17 18  1  0
 18 19  1  0
 19 20  1  0
 20 21  1  0
 21 22  1  0
 22 23  1  0
 23 24  1  0
 24 25  1  0
 19 26  1  0
 26 27  1  0
 13 28  1  0
 28 29  1  0
 28  2  1  0
 10  5  2  0
 27 16  1  0
 25 20  1  0
M  CHG  4   6  -1   9  -1  11  -1  16   1
M  END
>  <UniqueID>  (2760) 
4

>  <SMILES>  (2760) 
C=c1c(=Cc2[n-]c(=O)[n-]c2[O-])cc(C(=O)[NH+]2CCN(C3CCOCC3)CC2)n1C

>  <Energy>  (2760) 
152.40772064177673

>  <Genealogy>  (2760) 
C=c1c(=Cc2[n-]c(=O)[n-]c2[O-])cc(C(=O)[NH+]2CCN(C3CCOCC3)CC2)n1C (protonated)
C=c1c(=Cc2[n-]c(=O)[n-]c2[O-])cc(C(=O)[NH+]2CCN(C3CCOCC3)CC2)n1C (3D coordinates assigned)
C=c1c(=Cc2[n-]c(=O)[n-]c2[O-])cc(C(=O)[NH+]2CCN(C3CCOCC3)CC2)n1C (nonaromatic ring conformer: 152.40772064177673 kcal/mol)

>  <smiles>  (2760) 
C=c1c(=Cc2[nH]c(=O)[nH]c2O)cc(C(=O)N2CCN(C3CCOCC3)CC2)n1C

>  <score_type>  (2760) 
oracle

>  <origin>  (2760) 
adg

>  <m_score__min__energy>  (2760) 
-17.379999999999999

>  <m_primary>  (2760) 
energy

$$$$
12:0
     RDKit          3D

 24 26  0  0  0  0  0  0  0  0999 V2000
   60.4800   27.4450   45.6600 C   0  0  0  0  0  0  0  0  0  0  0  0
   59.4460   28.2880   45.5770 C   0  0  0  0  0  0  0  0  0  0  0  0
   58.1290   28.0280   45.1590 C   0  0  0  0  0  0  0  0  0  0  0  0
   57.5030   26.8840   44.8200 C   0  0  0  0  0  0  0  0  0  0  0  0
   57.1580   25.7960   45.7530 C   0  0  0  0  0  0  0  0  0  0  0  0
   55.8840   25.7370   46.3310 C   0  0  0  0  0  0  0  0  0  0  0  0
   54.9090   26.6710   45.9960 O   0  0  0  0  0  0  0  0  0  0  0  0
   55.5880   24.7550   47.2230 N   0  0  0  0  0  0  0  0  0  0  0  0
   56.5150   23.8310   47.5790 C   0  0  0  0  0  0  0  0  0  0  0  0
   56.2170   22.9280   48.4040 O   0  0  0  0  0  0  0  0  0  0  0  0
   57.7660   23.8820   47.0530 N   0  0  0  0  0  0  0  0  0  0  0  0
   58.1110   24.8440   46.1590 C   0  0  0  0  0  0  0  0  0  0  0  0
   59.2850   24.8750   45.7030 O   0  0  0  0  0  0  0  0  0  0  0  0
   57.5360   29.2830   45.1630 C   0  0  0  0  0  0  0  0  0  0  0  0
   56.3450   29.5370   44.8370 O   0  0  0  0  0  0  0  0  0  0  0  0
   58.4210   30.2110   45.5720 N   0  0  0  0  0  0  0  0  0  0  0  0
   58.1790   31.6170   45.7500 C   0  0  0  0  0  0  0  0  0  0  0  0
   58.2140   32.1700   47.0410 C   0  0  0  0  0  0  0  0  0  0  0  0
   57.9980   33.5380   47.2310 C   0  0  0  0  0  0  0  0  0  0  0  0
   57.7410   34.3640   46.1350 C   0  0  0  0  0  0  0  0  0  0  0  0
   57.6950   33.8240   44.8480 C   0  0  0  0  0  0  0  0  0  0  0  0
   57.9100   32.4540   44.6470 C   0  0  0  0  0  0  0  0  0  0  0  0
   57.7660   31.8130   43.0160 Cl  0  0  0  0  0  0  0  0  0  0  0  0
   59.5710   29.6080   45.8320 N   0  0  0  0  0  0  0  0  0  0  0  0
  1  2  2  0
  2  3  1  0
  3  4  2  0
  4  5  1  0
  5  6  2  0
  6  7  1  0
  6  8  1  0
  8  9  1  0
  9 10  2  0
  9 11  1  0
 11 12  1  0
 12 13  2  0
  3 14  1  0
 14 15  2  0
 14 16  1  0
 16 17  1  0
 17 18  2  0
 18 19  1  0
 19 20  2  0
 20 21  1  0
 21 22  2  0
 22 23  1  0
 16 24  1  0
 24  2  1  0
 12  5  1  0
 22 17  1  0
M  CHG  3   7  -1   8  -1  11  -1
M  END
>  <UniqueID>  (2761) 
13

>  <SMILES>  (2761) 
C=c1[nH]n(-c2ccccc2Cl)c(=O)/c1=C/c1c([O-])[n-]c(=O)[n-]c1=O

>  <Energy>  (2761) 
90.23600944689059

>  <Genealogy>  (2761) 
C=c1[nH]n(-c2ccccc2Cl)c(=O)c1=Cc1c([O-])[n-]c(=O)[n-]c1=O (protonated)
C=c1[nH]n(-c2ccccc2Cl)c(=O)/c1=C/c1c([O-])[n-]c(=O)[n-]c1=O (cis-trans isomerization)
C=c1[nH]n(-c2ccccc2Cl)c(=O)/c1=C/c1c([O-])[n-]c(=O)[n-]c1=O (3D coordinates assigned)
C=c1[nH]n(-c2ccccc2Cl)c(=O)/c1=C/c1c([O-])[n-]c(=O)[n-]c1=O (optimized conformer: 90.23600944689059 kcal/mol)

>  <smiles>  (2761) 
C=c1[nH]n(-c2ccccc2Cl)c(=O)c1=Cc1c(O)[nH]c(=O)[nH]c1=O

>  <score_type>  (2761) 
oracle

>  <origin>  (2761) 
adg

>  <m_score__min__energy>  (2761) 
-15.609999999999999

>  <m_primary>  (2761) 
energy

$$$$
16:0
     RDKit          3D

 24 25  0  0  0  0  0  0  0  0999 V2000
   59.9920   34.5840   47.7210 C   0  0  0  0  0  0  0  0  0  0  0  0
   59.5500   33.3760   47.3670 C   0  0  0  0  0  0  0  0  0  0  0  0
   59.8020   32.8130   45.9950 C   0  0  0  0  0  0  0  0  0  0  0  0
   58.7900   31.7870   45.6530 N   0  0  0  0  0  0  0  0  0  0  0  0
   57.5130   32.1440   45.2780 C   0  0  0  0  0  0  0  0  0  0  0  0
   57.0080   33.7080   45.2550 S   0  0  0  0  0  0  0  0  0  0  0  0
   56.6250   31.1950   44.8960 N   0  0  0  0  0  0  0  0  0  0  0  0
   56.9290   29.8770   44.8950 C   0  0  0  0  0  0  0  0  0  0  0  0
   55.9760   28.9820   44.4100 O   0  0  0  0  0  0  0  0  0  0  0  0
   58.1900   29.4600   45.3580 C   0  0  0  0  0  0  0  0  0  0  0  0
   58.5490   28.0220   45.4670 C   0  0  0  0  0  0  0  0  0  0  0  0
   58.8850   27.4030   44.4220 O   0  0  0  0  0  0  0  0  0  0  0  0
   58.4960   27.2620   46.7390 C   0  0  0  0  0  0  0  0  0  0  0  0
   57.5020   26.4480   47.1250 C   0  0  0  0  0  0  0  0  0  0  0  0
   56.8940   25.4030   46.2810 C   0  0  0  0  0  0  0  0  0  0  0  0
   57.5960   24.2100   46.0550 C   0  0  0  0  0  0  0  0  0  0  0  0
   57.0420   23.2070   45.2550 C   0  0  0  0  0  0  0  0  0  0  0  0
   55.7680   23.3740   44.7050 C   0  0  0  0  0  0  0  0  0  0  0  0
   55.2170   22.3760   43.9100 O   0  0  0  0  0  0  0  0  0  0  0  0
   55.0450   24.5420   44.9600 C   0  0  0  0  0  0  0  0  0  0  0  0
   55.6020   25.5580   45.7440 C   0  0  0  0  0  0  0  0  0  0  0  0
   54.8620   26.7090   45.9950 O   0  0  0  0  0  0  0  0  0  0  0  0
   59.1220   30.4540   45.7180 C   0  0  0  0  0  0  0  0  0  0  0  0
   60.2680   30.1040   46.1160 O   0  0  0  0  0  0  0  0  0  0  0  0
  1  2  2  0
  2  3  1  0
  3  4  1  0
  4  5  1  0
  5  6  2  0
  5  7  1  0
  7  8  1  0
  8  9  1  0
  8 10  2  0
 10 11  1  0
 11 12  2  0
 11 13  1  0
 13 14  2  3
 14 15  1  0
 15 16  2  0
 16 17  1  0
 17 18  2  0
 18 19  1  0
 18 20  1  0
 20 21  2  0
 21 22  1  0
 10 23  1  0
 23 24  2  0
 23  4  1  0
 21 15  1  0
M  CHG  3   7  -1  19  -1  22  -1
M  END
>  <UniqueID>  (2762) 
17

>  <SMILES>  (2762) 
C=CCn1c(=S)[n-]c(O)c(C(=O)C=Cc2ccc([O-])cc2[O-])c1=O

>  <Energy>  (2762) 
53.5223912396672

>  <Genealogy>  (2762) 
C=CCn1c(=S)[n-]c(O)c(C(=O)C=Cc2ccc([O-])cc2[O-])c1=O (protonated)
C=CCn1c(=S)[n-]c(O)c(C(=O)C=Cc2ccc([O-])cc2[O-])c1=O (3D coordinates assigned)
C=CCn1c(=S)[n-]c(O)c(C(=O)C=Cc2ccc([O-])cc2[O-])c1=O (optimized conformer: 53.5223912396672 kcal/mol)

>  <smiles>  (2762) 
C=CCn1c(=S)[nH]c(O)c(C(=O)C=Cc2ccc(O)cc2O)c1=O

>  <score_type>  (2762) 
oracle

>  <origin>  (2762) 
adg

>  <m_score__min__energy>  (2762) 
-14.76

>  <m_primary>  (2762) 
energy

$$$$
17:0
     RDKit          3D

 26 28  0  0  0  0  0  0  0  0999 V2000
   59.2970   29.4640   47.8260 C   0  0  0  0  0  0  0  0  0  0  0  0
   58.7350   30.2370   46.8830 C   0  0  0  0  0  0  0  0  0  0  0  0
   58.3420   29.8190   45.6080 C   0  0  0  0  0  0  0  0  0  0  0  0
   58.4260   28.5790   45.0870 C   0  0  0  0  0  0  0  0  0  0  0  0
   57.6290   27.4320   45.5770 C   0  0  0  0  0  0  0  0  0  0  0  0
   56.2240   27.4690   45.6080 C   0  0  0  0  0  0  0  0  0  0  0  0
   55.5310   28.5910   45.1710 O   0  0  0  0  0  0  0  0  0  0  0  0
   55.5280   26.4050   46.0870 N   0  0  0  0  0  0  0  0  0  0  0  0
   56.1680   25.3050   46.5600 C   0  0  0  0  0  0  0  0  0  0  0  0
   55.5020   24.3300   46.9960 O   0  0  0  0  0  0  0  0  0  0  0  0
   57.5240   25.2560   46.5680 N   0  0  0  0  0  0  0  0  0  0  0  0
   58.2660   26.2930   46.0970 C   0  0  0  0  0  0  0  0  0  0  0  0
   59.5230   26.2150   46.1230 O   0  0  0  0  0  0  0  0  0  0  0  0
   57.8910   30.9520   44.9480 C   0  0  0  0  0  0  0  0  0  0  0  0
   58.0100   32.0010   45.8360 C   0  0  0  0  0  0  0  0  0  0  0  0
   57.6950   33.4270   45.4940 C   0  0  0  0  0  0  0  0  0  0  0  0
   58.4950   31.5690   47.0260 N   0  0  0  0  0  0  0  0  0  0  0  0
   58.7550   32.4050   48.2090 C   0  0  0  0  0  0  0  0  0  0  0  0
   59.8080   33.4490   47.9310 C   0  0  0  0  0  0  0  0  0  0  0  0
   59.5000   34.6650   48.0600 O   0  0  0  0  0  0  0  0  0  0  0  0
   61.1430   33.0970   47.5200 N   0  0  0  0  0  0  0  0  0  0  0  0
   61.7510   31.8270   47.9280 C   0  0  0  0  0  0  0  0  0  0  0  0
   63.2760   31.9650   47.9710 C   0  0  0  0  0  0  0  0  0  0  0  0
   63.7660   32.4980   46.7560 O   0  0  0  0  0  0  0  0  0  0  0  0
   63.3010   33.8240   46.5960 C   0  0  0  0  0  0  0  0  0  0  0  0
   61.7780   33.8510   46.4350 C   0  0  0  0  0  0  0  0  0  0  0  0
  1  2  2  0
  2  3  1  0
  3  4  2  0
  4  5  1  0
  5  6  2  0
  6  7  1  0
  6  8  1  0
  8  9  1  0
  9 10  2  0
  9 11  1  0
 11 12  1  0
 12 13  2  0
  3 14  1  0
 14 15  2  0
 15 16  1  0
 15 17  1  0
 17 18  1  0
 18 19  1  0
 19 20  2  0
 19 21  1  0
 21 22  1  0
 22 23  1  0
 23 24  1  0
 24 25  1  0
 25 26  1  0
 17  2  1  0
 26 21  1  0
 12  5  1  0
M  CHG  3   7  -1   8  -1  11  -1
M  END
>  <UniqueID>  (2763) 
18

>  <SMILES>  (2763) 
C=c1/c(=C/c2c([O-])[n-]c(=O)[n-]c2=O)cc(C)n1CC(=O)N1CCOCC1

>  <Energy>  (2763) 
84.8939446577192

>  <Genealogy>  (2763) 
C=c1c(=Cc2c([O-])[n-]c(=O)[n-]c2=O)cc(C)n1CC(=O)N1CCOCC1 (protonated)
C=c1/c(=C/c2c([O-])[n-]c(=O)[n-]c2=O)cc(C)n1CC(=O)N1CCOCC1 (cis-trans isomerization)
C=c1/c(=C/c2c([O-])[n-]c(=O)[n-]c2=O)cc(C)n1CC(=O)N1CCOCC1 (3D coordinates assigned)
C=c1/c(=C/c2c([O-])[n-]c(=O)[n-]c2=O)cc(C)n1CC(=O)N1CCOCC1 (nonaromatic ring conformer: 84.8939446577192 kcal/mol)

>  <smiles>  (2763) 
C=c1c(=Cc2c(O)[nH]c(=O)[nH]c2=O)cc(C)n1CC(=O)N1CCOCC1

>  <score_type>  (2763) 
oracle

>  <origin>  (2763) 
adg

>  <m_score__min__energy>  (2763) 
-15.789999999999999

>  <m_primary>  (2763) 
energy

$$$$
25:0
     RDKit          3D

 27 30  0  0  0  0  0  0  0  0999 V2000
   56.3660   29.5330   44.7040 C   0  0  0  0  0  0  0  0  0  0  0  0
   57.5950   29.2240   45.1450 C   0  0  0  0  0  0  0  0  0  0  0  0
   58.1820   27.9500   45.1450 C   0  0  0  0  0  0  0  0  0  0  0  0
   57.5950   26.7900   44.7760 C   0  0  0  0  0  0  0  0  0  0  0  0
   57.0570   25.7620   45.6960 C   0  0  0  0  0  0  0  0  0  0  0  0
   57.7080   24.6640   46.1220 N   0  0  0  0  0  0  0  0  0  0  0  0
   56.7960   24.0360   46.8960 C   0  0  0  0  0  0  0  0  0  0  0  0
   57.0410   22.9520   47.4880 O   0  0  0  0  0  0  0  0  0  0  0  0
   55.6030   24.6590   46.9840 N   0  0  0  0  0  0  0  0  0  0  0  0
   55.7840   25.7460   46.2170 C   0  0  0  0  0  0  0  0  0  0  0  0
   54.8030   26.7040   45.9940 O   0  0  0  0  0  0  0  0  0  0  0  0
   59.4790   28.1240   45.6130 C   0  0  0  0  0  0  0  0  0  0  0  0
   59.6290   29.4700   45.8800 C   0  0  0  0  0  0  0  0  0  0  0  0
   60.8820   30.0990   46.4080 C   0  0  0  0  0  0  0  0  0  0  0  0
   58.4870   30.1380   45.6050 N   0  0  0  0  0  0  0  0  0  0  0  0
   58.2850   31.5490   45.8050 C   0  0  0  0  0  0  0  0  0  0  0  0
   57.3650   32.1340   45.1650 O   0  0  0  0  0  0  0  0  0  0  0  0
   59.2150   32.3160   46.6060 N   0  0  0  0  0  0  0  0  0  0  0  0
   58.9410   32.1650   48.0600 C   0  0  0  0  0  0  0  0  0  0  0  0
   59.2900   33.4300   48.8760 C   0  0  0  0  0  0  0  0  0  0  0  0
   60.4600   34.1550   48.3350 N   0  0  0  0  0  0  0  0  0  0  0  0
   61.7270   33.4170   48.5590 C   0  0  0  0  0  0  0  0  0  0  0  0
   62.9200   34.3360   48.8430 C   0  0  0  0  0  0  0  0  0  0  0  0
   63.6040   33.8550   47.5740 C   0  0  0  0  0  0  0  0  0  0  0  0
   62.4060   32.9760   47.2580 C   0  0  0  0  0  0  0  0  0  0  0  0
   60.2660   34.5400   46.9100 C   0  0  0  0  0  0  0  0  0  0  0  0
   59.1760   33.7270   46.1830 C   0  0  0  0  0  0  0  0  0  0  0  0
  1  2  2  0
  2  3  1  0
  3  4  2  0
  4  5  1  0
  5  6  1  0
  6  7  1  0
  7  8  2  0
  7  9  1  0
  9 10  1  0
 10 11  1  0
  3 12  1  0
 12 13  2  0
 13 14  1  0
 13 15  1  0
 15 16  1  0
 16 17  2  0
 16 18  1  0
 18 19  1  0
 19 20  1  0
 20 21  1  0
 21 22  1  0
 22 23  1  0
 23 24  1  0
 24 25  1  0
 21 26  1  0
 26 27  1  0
 15  2  1  0
 27 18  1  0
 10  5  2  0
 25 22  1  0
M  CHG  4   6  -1   9  -1  11  -1  18   1
M  END
>  <UniqueID>  (2764) 
26

>  <SMILES>  (2764) 
C=c1/c(=C/c2[n-]c(=O)[n-]c2[O-])cc(C)n1C(=O)[NH+]1CCN(C2CCC2)CC1

>  <Energy>  (2764) 
194.148505642829

>  <Genealogy>  (2764) 
C=c1c(=Cc2[n-]c(=O)[n-]c2[O-])cc(C)n1C(=O)[NH+]1CCN(C2CCC2)CC1 (protonated)
C=c1/c(=C/c2[n-]c(=O)[n-]c2[O-])cc(C)n1C(=O)[NH+]1CCN(C2CCC2)CC1 (cis-trans isomerization)
C=c1/c(=C/c2[n-]c(=O)[n-]c2[O-])cc(C)n1C(=O)[NH+]1CCN(C2CCC2)CC1 (3D coordinates assigned)
C=c1/c(=C/c2[n-]c(=O)[n-]c2[O-])cc(C)n1C(=O)[NH+]1CCN(C2CCC2)CC1 (nonaromatic ring conformer: 194.148505642829 kcal/mol)

>  <smiles>  (2764) 
C=c1c(=Cc2[nH]c(=O)[nH]c2O)cc(C)n1C(=O)N1CCN(C2CCC2)CC1

>  <score_type>  (2764) 
oracle

>  <origin>  (2764) 
adg

>  <m_score__min__energy>  (2764) 
-14.77

>  <m_primary>  (2764) 
energy

$$$$
32:0
     RDKit          3D

 28 30  0  0  0  0  0  0  0  0999 V2000
   57.5280   29.0660   44.2060 C   0  0  0  0  0  0  0  0  0  0  0  0
   56.3590   29.8850   44.6390 C   0  0  0  0  0  0  0  0  0  0  0  0
   55.3110   29.3070   45.0340 O   0  0  0  0  0  0  0  0  0  0  0  0
   56.4060   31.3110   44.4980 N   0  0  0  0  0  0  0  0  0  0  0  0
   57.3800   32.1900   45.0790 C   0  0  0  0  0  0  0  0  0  0  0  0
   57.2140   33.5710   44.9270 C   0  0  0  0  0  0  0  0  0  0  0  0
   58.1320   34.4590   45.4890 C   0  0  0  0  0  0  0  0  0  0  0  0
   59.2260   33.9750   46.2110 C   0  0  0  0  0  0  0  0  0  0  0  0
   59.4180   32.5920   46.3660 C   0  0  0  0  0  0  0  0  0  0  0  0
   60.5790   32.0870   47.1430 C   0  0  0  0  0  0  0  0  0  0  0  0
   61.6570   32.7390   47.1320 O   0  0  0  0  0  0  0  0  0  0  0  0
   60.5330   30.8550   47.8790 N   0  0  0  0  0  0  0  0  0  0  0  0
   60.1470   29.5710   47.3680 C   0  0  0  0  0  0  0  0  0  0  0  0
   59.1860   28.8270   48.0600 C   0  0  0  0  0  0  0  0  0  0  0  0
   58.8280   27.5480   47.6190 C   0  0  0  0  0  0  0  0  0  0  0  0
   59.4370   26.9960   46.4860 C   0  0  0  0  0  0  0  0  0  0  0  0
   59.0750   25.6660   46.0790 N   0  0  0  0  0  0  0  0  0  0  0  0
   57.8930   25.1330   46.1880 C   0  0  0  0  0  0  0  0  0  0  0  0
   57.7860   23.8200   46.5230 N   0  0  0  0  0  0  0  0  0  0  0  0
   56.5730   23.2130   46.6220 C   0  0  0  0  0  0  0  0  0  0  0  0
   56.4910   21.7650   46.9880 C   0  0  0  0  0  0  0  0  0  0  0  0
   55.4100   23.9440   46.3590 C   0  0  0  0  0  0  0  0  0  0  0  0
   55.5350   25.2880   46.0060 C   0  0  0  0  0  0  0  0  0  0  0  0
   54.5120   25.9760   45.7590 O   0  0  0  0  0  0  0  0  0  0  0  0
   56.7660   25.8530   45.9250 N   0  0  0  0  0  0  0  0  0  0  0  0
   60.3450   27.7730   45.7450 C   0  0  0  0  0  0  0  0  0  0  0  0
   60.6930   29.0540   46.1800 C   0  0  0  0  0  0  0  0  0  0  0  0
   58.5090   31.7030   45.7620 C   0  0  0  0  0  0  0  0  0  0  0  0
  1  2  1  0
  2  3  2  0
  2  4  1  0
  4  5  1  0
  5  6  2  0
  6  7  1  0
  7  8  2  0
  8  9  1  0
  9 10  1  0
 10 11  2  0
 10 12  1  0
 12 13  1  0
 13 14  2  0
 14 15  1  0
 15 16  2  0
 16 17  1  0
 17 18  2  3
 18 19  1  0
 19 20  1  0
 20 21  1  0
 20 22  2  0
 22 23  1  0
 23 24  2  0
 23 25  1  0
 16 26  1  0
 26 27  2  0
  9 28  2  0
 28  5  1  0
 27 13  1  0
 25 18  1  0
M  CHG  4   4  -1  12  -1  19  -1  25  -1
M  END
>  <UniqueID>  (2765) 
33

>  <SMILES>  (2765) 
CC(=O)[N-]c1cccc(C(=O)[N-]c2ccc(N=c3[n-]c(C)cc(=O)[n-]3)cc2)c1

>  <Energy>  (2765) 
58.35519921482473

>  <Genealogy>  (2765) 
CC(=O)[N-]c1cccc(C(=O)[N-]c2ccc(N=c3[n-]c(C)cc(=O)[n-]3)cc2)c1 (protonated)
CC(=O)[N-]c1cccc(C(=O)[N-]c2ccc(N=c3[n-]c(C)cc(=O)[n-]3)cc2)c1 (3D coordinates assigned)
CC(=O)[N-]c1cccc(C(=O)[N-]c2ccc(N=c3[n-]c(C)cc(=O)[n-]3)cc2)c1 (optimized conformer: 58.35519921482473 kcal/mol)

>  <smiles>  (2765) 
CC(=O)Nc1cccc(C(=O)Nc2ccc(N=c3[nH]c(C)cc(=O)[nH]3)cc2)c1

>  <score_type>  (2765) 
oracle

>  <origin>  (2765) 
adg

>  <m_score__min__energy>  (2765) 
-14.050000000000001

>  <m_primary>  (2765) 
energy

$$$$
37:0
     RDKit          3D

 31 34  0  0  0  0  0  0  0  0999 V2000
   55.4330   26.3760   46.0190 N   0  0  0  0  0  0  0  0  0  0  0  0
   56.6780   26.7580   45.4360 C   0  0  0  0  0  0  0  0  0  0  0  0
   57.4600   25.8640   45.0110 O   0  0  0  0  0  0  0  0  0  0  0  0
   57.0800   28.2210   45.4060 C   0  0  0  0  0  0  0  0  0  0  0  0
   57.4860   28.6430   46.7530 N   0  0  0  0  0  0  0  0  0  0  0  0
   58.8060   28.5530   47.3060 C   0  0  0  0  0  0  0  0  0  0  0  0
   59.6510   27.7500   46.8270 O   0  0  0  0  0  0  0  0  0  0  0  0
   59.1720   29.4210   48.4310 C   0  0  0  0  0  0  0  0  0  0  0  0
   60.2000   29.1830   49.3280 C   0  0  0  0  0  0  0  0  0  0  0  0
   60.1970   30.2440   50.2070 C   0  0  0  0  0  0  0  0  0  0  0  0
   59.1670   31.0640   49.7990 C   0  0  0  0  0  0  0  0  0  0  0  0
   58.8180   32.2580   50.4200 O   0  0  0  0  0  0  0  0  0  0  0  0
   58.5320   30.5740   48.7170 N   0  0  0  0  0  0  0  0  0  0  0  0
   55.9280   29.1330   44.8900 C   0  0  0  0  0  0  0  0  0  0  0  0
   56.4080   30.5480   44.4910 C   0  0  0  0  0  0  0  0  0  0  0  0
   57.7910   30.7860   44.9430 N   0  0  0  0  0  0  0  0  0  0  0  0
   58.2070   32.2030   44.8480 C   0  0  0  0  0  0  0  0  0  0  0  0
   59.2430   32.6080   45.8740 C   0  0  0  0  0  0  0  0  0  0  0  0
   59.2880   33.9220   46.3620 C   0  0  0  0  0  0  0  0  0  0  0  0
   60.2530   34.2970   47.2990 C   0  0  0  0  0  0  0  0  0  0  0  0
   61.1870   33.3610   47.7770 C   0  0  0  0  0  0  0  0  0  0  0  0
   62.2160   33.7800   48.8110 C   0  0  0  0  0  0  0  0  0  0  0  0
   61.6270   33.7650   50.2370 C   0  0  0  0  0  0  0  0  0  0  0  0
   62.7400   33.7750   51.3020 C   0  0  0  0  0  0  0  0  0  0  0  0
   63.9520   34.2750   50.7710 O   0  0  0  0  0  0  0  0  0  0  0  0
   64.4970   33.3470   49.8420 C   0  0  0  0  0  0  0  0  0  0  0  0
   63.4900   32.9210   48.7470 C   0  0  0  0  0  0  0  0  0  0  0  0
   61.1220   32.0370   47.3070 C   0  0  0  0  0  0  0  0  0  0  0  0
   60.1630   31.6670   46.3620 C   0  0  0  0  0  0  0  0  0  0  0  0
   58.7380   29.8530   44.2990 C   0  0  0  0  0  0  0  0  0  0  0  0
   58.2940   28.3780   44.4650 C   0  0  0  0  0  0  0  0  0  0  0  0
  1  2  1  0
  2  3  2  0
  2  4  1  0
  4  5  1  0
  5  6  1  0
  6  7  2  0
  6  8  1  0
  8  9  2  0
  9 10  1  0
 10 11  2  0
 11 12  1  0
 11 13  1  0
  4 14  1  0
 14 15  1  0
 15 16  1  0
 16 17  1  0
 17 18  1  0
 18 19  2  0
 19 20  1  0
 20 21  2  0
 21 22  1  0
 22 23  1  0
 23 24  1  0
 24 25  1  0
 25 26  1  0
 26 27  1  0
 21 28  1  0
 28 29  2  0
 16 30  1  0
 30 31  1  0
 31  4  1  0
 13  8  1  0
 29 18  1  0
 27 22  1  0
M  CHG  3   1  -1   5  -1  13  -1
M  END
>  <UniqueID>  (2766) 
38

>  <SMILES>  (2766) 
[NH-]C(=O)C1([N-]C(=O)c2ccc(O)[n-]2)CCN(Cc2ccc(C3CCOCC3)cc2)CC1

>  <Energy>  (2766) 
100.5460088134098

>  <Genealogy>  (2766) 
[NH-]C(=O)C1([N-]C(=O)c2ccc(O)[n-]2)CCN(Cc2ccc(C3CCOCC3)cc2)CC1 (protonated)
[NH-]C(=O)C1([N-]C(=O)c2ccc(O)[n-]2)CCN(Cc2ccc(C3CCOCC3)cc2)CC1 (3D coordinates assigned)
[NH-]C(=O)C1([N-]C(=O)c2ccc(O)[n-]2)CCN(Cc2ccc(C3CCOCC3)cc2)CC1 (nonaromatic ring conformer: 100.5460088134098 kcal/mol)

>  <smiles>  (2766) 
NC(=O)C1(NC(=O)c2ccc(O)[nH]2)CCN(Cc2ccc(C3CCOCC3)cc2)CC1

>  <score_type>  (2766) 
oracle

>  <origin>  (2766) 
adg

>  <m_score__min__energy>  (2766) 
-14.15

>  <m_primary>  (2766) 
energy

$$$$
41:0
     RDKit          3D

 29 31  0  0  0  0  0  0  0  0999 V2000
   66.3700   31.3780   50.8630 C   0  0  0  0  0  0  0  0  0  0  0  0
   66.1090   32.6940   50.3850 O   0  0  0  0  0  0  0  0  0  0  0  0
   64.8390   33.1670   50.0220 C   0  0  0  0  0  0  0  0  0  0  0  0
   63.9730   33.7930   50.9400 C   0  0  0  0  0  0  0  0  0  0  0  0
   62.7100   34.2290   50.5320 C   0  0  0  0  0  0  0  0  0  0  0  0
   62.2870   34.0430   49.2090 C   0  0  0  0  0  0  0  0  0  0  0  0
   60.9620   34.4500   48.8430 N   0  0  0  0  0  0  0  0  0  0  0  0
   60.2160   34.0880   47.3190 S   0  0  0  0  0  0  0  0  0  0  0  0
   61.1710   34.4050   46.2020 O   0  0  0  0  0  0  0  0  0  0  0  0
   58.9730   34.9160   47.1570 O   0  0  0  0  0  0  0  0  0  0  0  0
   59.7790   32.3900   47.2860 C   0  0  0  0  0  0  0  0  0  0  0  0
   60.3390   31.4170   48.1030 C   0  0  0  0  0  0  0  0  0  0  0  0
   60.0230   30.1150   47.7050 C   0  0  0  0  0  0  0  0  0  0  0  0
   59.2000   30.0780   46.5810 C   0  0  0  0  0  0  0  0  0  0  0  0
   58.8870   28.9210   45.8000 N   0  0  0  0  0  0  0  0  0  0  0  0
   57.5680   28.5220   45.4150 C   0  0  0  0  0  0  0  0  0  0  0  0
   56.5870   29.2930   45.5910 O   0  0  0  0  0  0  0  0  0  0  0  0
   57.3590   27.1880   44.7660 C   0  0  0  0  0  0  0  0  0  0  0  0
   56.9900   26.1560   45.7970 C   0  0  0  0  0  0  0  0  0  0  0  0
   55.7130   25.7710   46.1510 C   0  0  0  0  0  0  0  0  0  0  0  0
   54.5360   26.3340   45.6730 O   0  0  0  0  0  0  0  0  0  0  0  0
   55.7490   24.7460   47.0250 N   0  0  0  0  0  0  0  0  0  0  0  0
   57.0720   24.5230   47.1780 C   0  0  0  0  0  0  0  0  0  0  0  0
   57.5280   23.6020   47.9070 O   0  0  0  0  0  0  0  0  0  0  0  0
   57.8540   25.3630   46.4640 N   0  0  0  0  0  0  0  0  0  0  0  0
   59.3070   25.2950   46.3170 C   0  0  0  0  0  0  0  0  0  0  0  0
   58.8980   31.6470   46.0620 S   0  0  0  0  0  0  0  0  0  0  0  0
   63.1640   33.4470   48.2880 C   0  0  0  0  0  0  0  0  0  0  0  0
   64.4250   33.0070   48.6960 C   0  0  0  0  0  0  0  0  0  0  0  0
  1  2  1  0
  2  3  1  0
  3  4  2  0
  4  5  1  0
  5  6  2  0
  6  7  1  0
  7  8  1  0
  8  9  2  0
  8 10  2  0
  8 11  1  0
 11 12  2  0
 12 13  1  0
 13 14  2  0
 14 15  1  0
 15 16  1  0
 16 17  2  0
 16 18  1  0
 18 19  1  0
 19 20  2  0
 20 21  1  0
 20 22  1  0
 22 23  1  0
 23 24  2  0
 23 25  1  0
 25 26  1  0
 14 27  1  0
  6 28  1  0
 28 29  2  0
 29  3  1  0
 27 11  1  0
 25 19  1  0
M  CHG  4   7  -1  15  -1  21  -1  22  -1
M  END
>  <UniqueID>  (2767) 
42

>  <SMILES>  (2767) 
COc1ccc([N-]S(=O)(=O)c2ccc([N-]C(=O)Cc3c([O-])[n-]c(=O)n3C)s2)cc1

>  <Energy>  (2767) 
106.41425406845578

>  <Genealogy>  (2767) 
COc1ccc([N-]S(=O)(=O)c2ccc([N-]C(=O)Cc3c([O-])[n-]c(=O)n3C)s2)cc1 (protonated)
COc1ccc([N-]S(=O)(=O)c2ccc([N-]C(=O)Cc3c([O-])[n-]c(=O)n3C)s2)cc1 (3D coordinates assigned)
COc1ccc([N-]S(=O)(=O)c2ccc([N-]C(=O)Cc3c([O-])[n-]c(=O)n3C)s2)cc1 (optimized conformer: 106.41425406845578 kcal/mol)

>  <smiles>  (2767) 
COc1ccc(NS(=O)(=O)c2ccc(NC(=O)Cc3c(O)[nH]c(=O)n3C)s2)cc1

>  <score_type>  (2767) 
oracle

>  <origin>  (2767) 
adg

>  <m_score__min__energy>  (2767) 
-16.210000000000001

>  <m_primary>  (2767) 
energy

$$$$
55:0
     RDKit          3D

 33 36  0  0  0  0  0  0  0  0999 V2000
   58.4600   30.5680   47.5790 C   0  0  0  0  0  0  0  0  0  0  0  0
   58.2780   30.6040   46.2490 C   0  0  0  0  0  0  0  0  0  0  0  0
   58.3550   29.5140   45.3630 C   0  0  0  0  0  0  0  0  0  0  0  0
   58.4770   28.1890   45.5810 C   0  0  0  0  0  0  0  0  0  0  0  0
   57.3820   27.2430   45.8180 C   0  0  0  0  0  0  0  0  0  0  0  0
   57.5160   26.0530   46.4290 N   0  0  0  0  0  0  0  0  0  0  0  0
   56.2420   25.6150   46.5410 C   0  0  0  0  0  0  0  0  0  0  0  0
   55.9470   24.5060   47.0570 O   0  0  0  0  0  0  0  0  0  0  0  0
   55.3090   26.4640   46.0640 N   0  0  0  0  0  0  0  0  0  0  0  0
   56.0500   27.4950   45.6240 C   0  0  0  0  0  0  0  0  0  0  0  0
   55.5150   28.6480   45.0670 O   0  0  0  0  0  0  0  0  0  0  0  0
   58.3030   30.0470   44.0910 C   0  0  0  0  0  0  0  0  0  0  0  0
   58.1470   31.4080   44.2280 C   0  0  0  0  0  0  0  0  0  0  0  0
   58.0850   32.3670   43.0800 C   0  0  0  0  0  0  0  0  0  0  0  0
   58.1290   31.7570   45.5350 N   0  0  0  0  0  0  0  0  0  0  0  0
   58.0910   33.1400   46.0380 C   0  0  0  0  0  0  0  0  0  0  0  0
   59.4340   33.5490   46.5730 C   0  0  0  0  0  0  0  0  0  0  0  0
   59.7180   34.7740   46.6570 O   0  0  0  0  0  0  0  0  0  0  0  0
   60.4080   32.5510   46.9240 N   0  0  0  0  0  0  0  0  0  0  0  0
   61.6010   32.8230   47.6930 C   0  0  0  0  0  0  0  0  0  0  0  0
   62.8730   32.6970   47.1010 C   0  0  0  0  0  0  0  0  0  0  0  0
   64.0190   33.0680   47.7980 C   0  0  0  0  0  0  0  0  0  0  0  0
   63.9120   33.6130   49.0780 C   0  0  0  0  0  0  0  0  0  0  0  0
   62.6580   33.7510   49.6810 C   0  0  0  0  0  0  0  0  0  0  0  0
   61.5030   33.3410   49.0050 C   0  0  0  0  0  0  0  0  0  0  0  0
   60.2020   33.4090   49.7040 C   0  0  0  0  0  0  0  0  0  0  0  0
   59.6650   34.5410   49.8780 O   0  0  0  0  0  0  0  0  0  0  0  0
   59.5500   32.2160   50.1910 N   0  0  0  0  0  0  0  0  0  0  0  0
   60.3040   30.9670   50.3530 C   0  0  0  0  0  0  0  0  0  0  0  0
   59.6360   30.0850   51.4090 C   0  0  0  0  0  0  0  0  0  0  0  0
   58.2660   29.9010   51.1050 O   0  0  0  0  0  0  0  0  0  0  0  0
   57.5880   31.1380   51.2280 C   0  0  0  0  0  0  0  0  0  0  0  0
   58.0820   32.1380   50.1780 C   0  0  0  0  0  0  0  0  0  0  0  0
  1  2  2  0
  2  3  1  0
  3  4  2  3
  4  5  1  0
  5  6  1  0
  6  7  1  0
  7  8  2  0
  7  9  1  0
  9 10  1  0
 10 11  1  0
  3 12  1  0
 12 13  2  0
 13 14  1  0
 13 15  1  0
 15 16  1  0
 16 17  1  0
 17 18  2  0
 17 19  1  0
 19 20  1  0
 20 21  2  0
 21 22  1  0
 22 23  2  0
 23 24  1  0
 24 25  2  0
 25 26  1  0
 26 27  2  0
 26 28  1  0
 28 29  1  0
 29 30  1  0
 30 31  1  0
 31 32  1  0
 32 33  1  0
 15  2  1  0
 25 20  1  0
 33 28  1  0
 10  5  2  0
M  CHG  3   6  -1   9  -1  11  -1
M  END
>  <UniqueID>  (2768) 
55

>  <SMILES>  (2768) 
C=c1c(=Cc2[n-]c(=O)[n-]c2[O-])cc(C)n1CC(=O)Nc1ccccc1C(=O)N1CCOCC1

>  <Energy>  (2768) 
133.75854051876348

>  <Genealogy>  (2768) 
C=c1c(=Cc2[n-]c(=O)[n-]c2[O-])cc(C)n1CC(=O)Nc1ccccc1C(=O)N1CCOCC1 (protonated)
C=c1c(=Cc2[n-]c(=O)[n-]c2[O-])cc(C)n1CC(=O)Nc1ccccc1C(=O)N1CCOCC1 (3D coordinates assigned)
C=c1c(=Cc2[n-]c(=O)[n-]c2[O-])cc(C)n1CC(=O)Nc1ccccc1C(=O)N1CCOCC1 (nonaromatic ring conformer: 133.75854051876348 kcal/mol)

>  <smiles>  (2768) 
C=c1c(=Cc2[nH]c(=O)[nH]c2O)cc(C)n1CC(=O)Nc1ccccc1C(=O)N1CCOCC1

>  <score_type>  (2768) 
oracle

>  <origin>  (2768) 
adg

>  <m_score__min__energy>  (2768) 
-17.219999999999999

>  <m_primary>  (2768) 
energy

$$$$
70:0
     RDKit          3D

 35 38  0  0  0  0  0  0  0  0999 V2000
   60.0760   29.9310   47.3860 C   0  0  0  0  0  0  0  0  0  0  0  0
   59.2010   30.2970   46.4350 C   0  0  0  0  0  0  0  0  0  0  0  0
   58.6640   29.4720   45.4350 C   0  0  0  0  0  0  0  0  0  0  0  0
   58.6570   28.1320   45.3020 C   0  0  0  0  0  0  0  0  0  0  0  0
   57.5640   27.2350   45.7130 C   0  0  0  0  0  0  0  0  0  0  0  0
   57.7260   26.0930   46.4080 N   0  0  0  0  0  0  0  0  0  0  0  0
   56.4600   25.7020   46.6650 C   0  0  0  0  0  0  0  0  0  0  0  0
   56.1920   24.6460   47.2960 O   0  0  0  0  0  0  0  0  0  0  0  0
   55.5050   26.5360   46.2040 N   0  0  0  0  0  0  0  0  0  0  0  0
   56.2210   27.5080   45.6160 C   0  0  0  0  0  0  0  0  0  0  0  0
   55.6630   28.6260   45.0060 O   0  0  0  0  0  0  0  0  0  0  0  0
   58.0670   30.3170   44.5150 C   0  0  0  0  0  0  0  0  0  0  0  0
   58.1850   31.5980   45.0120 C   0  0  0  0  0  0  0  0  0  0  0  0
   57.6260   32.8170   44.3410 C   0  0  0  0  0  0  0  0  0  0  0  0
   58.8670   31.5910   46.1810 N   0  0  0  0  0  0  0  0  0  0  0  0
   59.1770   32.7520   46.9770 C   0  0  0  0  0  0  0  0  0  0  0  0
   58.4010   33.1010   47.9070 O   0  0  0  0  0  0  0  0  0  0  0  0
   60.3860   33.4820   46.7310 N   0  0  0  0  0  0  0  0  0  0  0  0
   61.6490   33.2960   47.3850 C   0  0  0  0  0  0  0  0  0  0  0  0
   62.8680   33.6080   46.7590 C   0  0  0  0  0  0  0  0  0  0  0  0
   64.0770   33.3870   47.4230 C   0  0  0  0  0  0  0  0  0  0  0  0
   64.0830   32.8440   48.7100 C   0  0  0  0  0  0  0  0  0  0  0  0
   62.8750   32.5140   49.3450 C   0  0  0  0  0  0  0  0  0  0  0  0
   62.8760   31.9100   50.6980 C   0  0  0  0  0  0  0  0  0  0  0  0
   63.9460   31.8990   51.3670 O   0  0  0  0  0  0  0  0  0  0  0  0
   61.6780   31.3560   51.2730 N   0  0  0  0  0  0  0  0  0  0  0  0
   60.8450   30.4240   50.5050 C   0  0  0  0  0  0  0  0  0  0  0  0
   59.3630   30.7010   50.7770 C   0  0  0  0  0  0  0  0  0  0  0  0
   59.0910   30.8530   52.2170 N   0  0  0  0  0  0  0  0  0  0  0  0
   57.7270   30.9570   52.6840 C   0  0  0  0  0  0  0  0  0  0  0  0
   56.5930   31.2090   51.7360 C   0  0  0  0  0  0  0  0  0  0  0  0
   57.4660   30.8220   53.9110 O   0  0  0  0  0  0  0  0  0  0  0  0
   60.1970   30.7640   53.1840 C   0  0  0  0  0  0  0  0  0  0  0  0
   61.4040   31.5790   52.7000 C   0  0  0  0  0  0  0  0  0  0  0  0
   61.6630   32.7260   48.6660 C   0  0  0  0  0  0  0  0  0  0  0  0
  1  2  2  0
  2  3  1  0
  3  4  2  3
  4  5  1  0
  5  6  1  0
  6  7  1  0
  7  8  2  0
  7  9  1  0
  9 10  1  0
 10 11  1  0
  3 12  1  0
 12 13  2  0
 13 14  1  0
 13 15  1  0
 15 16  1  0
 16 17  2  0
 16 18  1  0
 18 19  1  0
 19 20  2  0
 20 21  1  0
 21 22  2  0
 22 23  1  0
 23 24  1  0
 24 25  2  0
 24 26  1  0
 26 27  1  0
 27 28  1  0
 28 29  1  0
 29 30  1  0
 30 31  1  0
 30 32  2  0
 29 33  1  0
 33 34  1  0
 23 35  2  0
 15  2  1  0
 35 19  1  0
 10  5  2  0
 34 26  1  0
M  CHG  3   6  -1   9  -1  18  -1
M  END
>  <UniqueID>  (2769) 
70

>  <SMILES>  (2769) 
C=c1c(=Cc2[n-]c(=O)[n-]c2O)cc(C)n1C(=O)[N-]c1cccc(C(=O)N2CCN(C(C)=O)CC2)c1

>  <Energy>  (2769) 
140.64011765607725

>  <Genealogy>  (2769) 
C=c1c(=Cc2[n-]c(=O)[n-]c2O)cc(C)n1C(=O)[N-]c1cccc(C(=O)N2CCN(C(C)=O)CC2)c1 (protonated)
C=c1c(=Cc2[n-]c(=O)[n-]c2O)cc(C)n1C(=O)[N-]c1cccc(C(=O)N2CCN(C(C)=O)CC2)c1 (3D coordinates assigned)
C=c1c(=Cc2[n-]c(=O)[n-]c2O)cc(C)n1C(=O)[N-]c1cccc(C(=O)N2CCN(C(C)=O)CC2)c1 (nonaromatic ring conformer: 140.64011765607725 kcal/mol)

>  <smiles>  (2769) 
C=c1c(=Cc2[nH]c(=O)[nH]c2O)cc(C)n1C(=O)Nc1cccc(C(=O)N2CCN(C(C)=O)CC2)c1

>  <score_type>  (2769) 
oracle

>  <origin>  (2769) 
adg

>  <m_score__min__energy>  (2769) 
-15.49

>  <m_primary>  (2769) 
energy

$$$$
78:0
     RDKit          3D

 32 34  0  0  0  0  0  0  0  0999 V2000
   57.6860   26.6260   47.7610 O   0  0  0  0  0  0  0  0  0  0  0  0
   57.3380   26.7910   46.5590 C   0  0  0  0  0  0  0  0  0  0  0  0
   57.4200   28.0960   45.9780 N   0  0  0  0  0  0  0  0  0  0  0  0
   57.9760   28.3380   44.6520 C   0  0  0  0  0  0  0  0  0  0  0  0
   58.3890   29.8000   44.5100 C   0  0  0  0  0  0  0  0  0  0  0  0
   56.9790   30.9000   44.3950 S   0  0  0  0  0  0  0  0  0  0  0  0
   55.6940   30.1220   44.4540 O   0  0  0  0  0  0  0  0  0  0  0  0
   57.0380   31.5980   43.0660 O   0  0  0  0  0  0  0  0  0  0  0  0
   57.0180   32.1140   45.6410 N   0  0  0  0  0  0  0  0  0  0  0  0
   57.9570   33.1950   45.7790 C   0  0  0  0  0  0  0  0  0  0  0  0
   58.2710   34.0600   44.7210 C   0  0  0  0  0  0  0  0  0  0  0  0
   59.1840   35.0920   44.9120 C   0  0  0  0  0  0  0  0  0  0  0  0
   59.8000   35.2450   46.1510 C   0  0  0  0  0  0  0  0  0  0  0  0
   59.5060   34.4010   47.1900 N   0  0  0  0  0  0  0  0  0  0  0  0
   60.2160   34.5770   48.4700 C   0  0  0  0  0  0  0  0  0  0  0  0
   61.5680   33.8980   48.4460 C   0  0  0  0  0  0  0  0  0  0  0  0
   62.2320   33.7540   47.2130 C   0  0  0  0  0  0  0  0  0  0  0  0
   63.4570   33.0900   47.1400 C   0  0  0  0  0  0  0  0  0  0  0  0
   64.0360   32.5590   48.2930 C   0  0  0  0  0  0  0  0  0  0  0  0
   63.4000   32.7080   49.5250 C   0  0  0  0  0  0  0  0  0  0  0  0
   62.1710   33.3710   49.6150 C   0  0  0  0  0  0  0  0  0  0  0  0
   61.4140   33.4680   51.2010 Cl  0  0  0  0  0  0  0  0  0  0  0  0
   58.5840   33.3950   47.0210 C   0  0  0  0  0  0  0  0  0  0  0  0
   58.3010   32.6220   47.9770 O   0  0  0  0  0  0  0  0  0  0  0  0
   56.8390   25.6320   45.7700 C   0  0  0  0  0  0  0  0  0  0  0  0
   57.7640   24.6950   45.2670 C   0  0  0  0  0  0  0  0  0  0  0  0
   57.3280   23.5580   44.5780 C   0  0  0  0  0  0  0  0  0  0  0  0
   55.9670   23.3360   44.3790 C   0  0  0  0  0  0  0  0  0  0  0  0
   55.5470   22.1710   43.7370 O   0  0  0  0  0  0  0  0  0  0  0  0
   55.0360   24.2730   44.8400 C   0  0  0  0  0  0  0  0  0  0  0  0
   55.4610   25.4170   45.5300 C   0  0  0  0  0  0  0  0  0  0  0  0
   54.4980   26.3170   45.9770 O   0  0  0  0  0  0  0  0  0  0  0  0
  1  2  2  0
  2  3  1  0
  3  4  1  0
  4  5  1  0
  5  6  1  0
  6  7  2  0
  6  8  2  0
  6  9  1  0
  9 10  1  0
 10 11  2  0
 11 12  1  0
 12 13  2  0
 13 14  1  0
 14 15  1  0
 15 16  1  0
 16 17  2  0
 17 18  1  0
 18 19  2  0
 19 20  1  0
 20 21  2  0
 21 22  1  0
 14 23  1  0
 23 24  2  0
  2 25  1  0
 25 26  2  0
 26 27  1  0
 27 28  2  0
 28 29  1  0
 28 30  1  0
 30 31  2  0
 31 32  1  0
 23 10  1  0
 31 25  1  0
 21 16  1  0
M  CHG  3   3  -1   9  -1  32  -1
M  END
>  <UniqueID>  (2770) 
78

>  <SMILES>  (2770) 
O=C([N-]CCS(=O)(=O)[N-]c1cccn(Cc2ccccc2Cl)c1=O)c1ccc(O)cc1[O-]

>  <Energy>  (2770) 
49.22818671741423

>  <Genealogy>  (2770) 
O=C([N-]CCS(=O)(=O)[N-]c1cccn(Cc2ccccc2Cl)c1=O)c1ccc(O)cc1[O-] (protonated)
O=C([N-]CCS(=O)(=O)[N-]c1cccn(Cc2ccccc2Cl)c1=O)c1ccc(O)cc1[O-] (3D coordinates assigned)
O=C([N-]CCS(=O)(=O)[N-]c1cccn(Cc2ccccc2Cl)c1=O)c1ccc(O)cc1[O-] (optimized conformer: 49.22818671741423 kcal/mol)

>  <smiles>  (2770) 
O=C(NCCS(=O)(=O)Nc1cccn(Cc2ccccc2Cl)c1=O)c1ccc(O)cc1O

>  <score_type>  (2770) 
oracle

>  <origin>  (2770) 
adg

>  <m_score__min__energy>  (2770) 
-16.890000000000001

>  <m_primary>  (2770) 
energy

$$$$
92:0
     RDKit          3D

 30 32  0  0  0  0  0  0  0  0999 V2000
   60.9690   29.3800   45.3950 C   0  0  0  0  0  0  0  0  0  0  0  0
   60.2310   29.0950   46.4820 C   0  0  0  0  0  0  0  0  0  0  0  0
   59.0340   28.3590   46.5190 C   0  0  0  0  0  0  0  0  0  0  0  0
   58.4360   27.5960   45.5830 C   0  0  0  0  0  0  0  0  0  0  0  0
   57.2160   26.7960   45.7840 C   0  0  0  0  0  0  0  0  0  0  0  0
   57.1920   25.5380   46.2670 N   0  0  0  0  0  0  0  0  0  0  0  0
   55.8690   25.2670   46.3570 C   0  0  0  0  0  0  0  0  0  0  0  0
   55.4310   24.1570   46.7600 O   0  0  0  0  0  0  0  0  0  0  0  0
   55.0550   26.2810   45.9900 N   0  0  0  0  0  0  0  0  0  0  0  0
   55.9250   27.2440   45.6440 C   0  0  0  0  0  0  0  0  0  0  0  0
   55.5440   28.5090   45.2110 O   0  0  0  0  0  0  0  0  0  0  0  0
   58.5070   28.5370   47.7870 C   0  0  0  0  0  0  0  0  0  0  0  0
   59.4100   29.3060   48.4930 C   0  0  0  0  0  0  0  0  0  0  0  0
   59.2420   29.7110   49.9290 C   0  0  0  0  0  0  0  0  0  0  0  0
   60.4680   29.6290   47.7110 N   0  0  0  0  0  0  0  0  0  0  0  0
   61.5890   30.4940   48.1070 C   0  0  0  0  0  0  0  0  0  0  0  0
   61.0670   31.8080   48.7030 C   0  0  0  0  0  0  0  0  0  0  0  0
   61.1840   32.9020   47.7340 N   0  0  0  0  0  0  0  0  0  0  0  0
   59.6400   33.6340   47.3930 S   0  0  0  0  0  0  0  0  0  0  0  0
   59.8460   35.0980   47.1130 O   0  0  0  0  0  0  0  0  0  0  0  0
   58.7310   33.4990   48.5880 O   0  0  0  0  0  0  0  0  0  0  0  0
   58.9110   32.8880   45.9740 C   0  0  0  0  0  0  0  0  0  0  0  0
   58.3410   31.6150   46.0840 C   0  0  0  0  0  0  0  0  0  0  0  0
   57.7170   31.0210   44.9810 C   0  0  0  0  0  0  0  0  0  0  0  0
   57.6650   31.6910   43.7400 C   0  0  0  0  0  0  0  0  0  0  0  0
   57.0060   31.0740   42.5580 C   0  0  0  0  0  0  0  0  0  0  0  0
   57.0360   31.6630   41.4400 O   0  0  0  0  0  0  0  0  0  0  0  0
   56.2940   29.7570   42.6490 C   0  0  0  0  0  0  0  0  0  0  0  0
   58.2520   32.9670   43.6380 C   0  0  0  0  0  0  0  0  0  0  0  0
   58.8660   33.5630   44.7450 C   0  0  0  0  0  0  0  0  0  0  0  0
  1  2  2  0
  2  3  1  0
  3  4  2  0
  4  5  1  0
  5  6  1  0
  6  7  1  0
  7  8  2  0
  7  9  1  0
  9 10  1  0
 10 11  1  0
  3 12  1  0
 12 13  2  0
 13 14  1  0
 13 15  1  0
 15 16  1  0
 16 17  1  0
 17 18  1  0
 18 19  1  0
 19 20  2  0
 19 21  2  0
 19 22  1  0
 22 23  2  0
 23 24  1  0
 24 25  2  0
 25 26  1  0
 26 27  2  0
 26 28  1  0
 25 29  1  0
 29 30  2  0
 15  2  1  0
 30 22  1  0
 10  5  2  0
M  CHG  4   6  -1   9  -1  11  -1  18  -1
M  END
>  <UniqueID>  (2771) 
92

>  <SMILES>  (2771) 
C=c1/c(=C\c2[n-]c(=O)[n-]c2[O-])cc(C)n1CC[N-]S(=O)(=O)c1ccc(C(C)=O)cc1

>  <Energy>  (2771) 
115.08248911984862

>  <Genealogy>  (2771) 
C=c1c(=Cc2[n-]c(=O)[n-]c2[O-])cc(C)n1CC[N-]S(=O)(=O)c1ccc(C(C)=O)cc1 (protonated)
C=c1/c(=C\c2[n-]c(=O)[n-]c2[O-])cc(C)n1CC[N-]S(=O)(=O)c1ccc(C(C)=O)cc1 (cis-trans isomerization)
C=c1/c(=C\c2[n-]c(=O)[n-]c2[O-])cc(C)n1CC[N-]S(=O)(=O)c1ccc(C(C)=O)cc1 (3D coordinates assigned)
C=c1/c(=C\c2[n-]c(=O)[n-]c2[O-])cc(C)n1CC[N-]S(=O)(=O)c1ccc(C(C)=O)cc1 (optimized conformer: 115.08248911984862 kcal/mol)

>  <smiles>  (2771) 
C=c1c(=Cc2[nH]c(=O)[nH]c2O)cc(C)n1CCNS(=O)(=O)c1ccc(C(C)=O)cc1

>  <score_type>  (2771) 
oracle

>  <origin>  (2771) 
adg

>  <m_score__min__energy>  (2771) 
-18.350000000000001

>  <m_primary>  (2771) 
energy

$$$$
4:0
     RDKit          3D

 36 40  0  0  0  0  0  0  0  0999 V2000
   58.5580   30.4930   47.7400 C   0  0  0  0  0  0  0  0  0  0  0  0
   58.4960   30.5360   46.4000 C   0  0  0  0  0  0  0  0  0  0  0  0
   58.3660   29.4410   45.5280 C   0  0  0  0  0  0  0  0  0  0  0  0
   58.4570   28.1150   45.7530 C   0  0  0  0  0  0  0  0  0  0  0  0
   57.3220   27.2120   46.0030 C   0  0  0  0  0  0  0  0  0  0  0  0
   57.4320   25.9700   46.5110 N   0  0  0  0  0  0  0  0  0  0  0  0
   56.1680   25.4960   46.4470 C   0  0  0  0  0  0  0  0  0  0  0  0
   55.8560   24.3470   46.8530 O   0  0  0  0  0  0  0  0  0  0  0  0
   55.2680   26.3480   45.9110 N   0  0  0  0  0  0  0  0  0  0  0  0
   56.0180   27.4250   45.6250 C   0  0  0  0  0  0  0  0  0  0  0  0
   55.5200   28.5820   45.0340 O   0  0  0  0  0  0  0  0  0  0  0  0
   58.1370   29.9720   44.2710 C   0  0  0  0  0  0  0  0  0  0  0  0
   58.1940   31.3450   44.3980 C   0  0  0  0  0  0  0  0  0  0  0  0
   58.0810   32.3040   43.2510 C   0  0  0  0  0  0  0  0  0  0  0  0
   58.4160   31.6940   45.6880 N   0  0  0  0  0  0  0  0  0  0  0  0
   58.4540   33.0690   46.2170 C   0  0  0  0  0  0  0  0  0  0  0  0
   59.7150   33.3070   47.0110 C   0  0  0  0  0  0  0  0  0  0  0  0
   60.9590   32.9080   46.5010 C   0  0  0  0  0  0  0  0  0  0  0  0
   62.1180   33.0560   47.2670 C   0  0  0  0  0  0  0  0  0  0  0  0
   62.0540   33.6340   48.5450 C   0  0  0  0  0  0  0  0  0  0  0  0
   63.2290   33.6890   49.3730 N   0  0  0  0  0  0  0  0  0  0  0  0
   63.1520   34.1830   50.7500 C   0  0  0  0  0  0  0  0  0  0  0  0
   63.6520   33.0990   51.6970 C   0  0  0  0  0  0  0  0  0  0  0  0
   65.1100   32.6540   51.3740 C   0  0  0  0  0  0  0  0  0  0  0  0
   65.3440   31.2210   51.7420 N   0  0  2  0  0  0  0  0  0  0  0  0
   65.2430   31.0170   53.2200 C   0  0  0  0  0  0  0  0  0  0  0  0
   65.8680   29.7270   53.6650 C   0  0  0  0  0  0  0  0  0  0  0  0
   65.3380   29.0450   54.5810 O   0  0  0  0  0  0  0  0  0  0  0  0
   67.1080   29.3290   53.0730 N   0  0  0  0  0  0  0  0  0  0  0  0
   67.7530   28.0710   53.4450 C   0  0  0  0  0  0  0  0  0  0  0  0
   67.6620   30.2110   52.0460 C   0  0  0  0  0  0  0  0  0  0  0  0
   66.5450   30.6170   51.0760 C   0  0  0  0  0  0  0  0  0  0  0  0
   65.5830   33.0350   49.9290 C   0  0  0  0  0  0  0  0  0  0  0  0
   64.4780   33.1110   48.8600 C   0  0  0  0  0  0  0  0  0  0  0  0
   60.8180   34.0790   49.0350 C   0  0  0  0  0  0  0  0  0  0  0  0
   59.6570   33.9180   48.2750 C   0  0  0  0  0  0  0  0  0  0  0  0
  1  2  2  0
  2  3  1  0
  3  4  2  0
  4  5  1  0
  5  6  1  0
  6  7  1  0
  7  8  2  0
  7  9  1  0
  9 10  1  0
 10 11  1  0
  3 12  1  0
 12 13  2  0
 13 14  1  0
 13 15  1  0
 15 16  1  0
 16 17  1  0
 17 18  2  0
 18 19  1  0
 19 20  2  0
 20 21  1  0
 21 22  1  0
 22 23  1  0
 23 24  1  0
 25 24  1  1
 25 26  1  0
 26 27  1  0
 27 28  2  0
 27 29  1  0
 29 30  1  0
 29 31  1  0
 31 32  1  0
 24 33  1  0
 33 34  1  0
 20 35  1  0
 35 36  2  0
 15  2  1  0
 36 17  1  0
 10  5  2  0
 34 21  1  0
 32 25  1  0
M  CHG  4   6  -1   9  -1  11  -1  25   1
M  END
>  <UniqueID>  (2772) 
5

>  <SMILES>  (2772) 
C=c1/c(=C\c2[n-]c(=O)[n-]c2[O-])cc(C)n1Cc1ccc(N2CCC([N@H+]3CCN(C)C(=O)C3)CC2)cc1

>  <Energy>  (2772) 
162.47766415612037

>  <Genealogy>  (2772) 
C=c1c(=Cc2[n-]c(=O)[n-]c2[O-])cc(C)n1Cc1ccc(N2CCC([NH+]3CCN(C)C(=O)C3)CC2)cc1 (protonated)
C=c1c(=Cc2[n-]c(=O)[n-]c2[O-])cc(C)n1Cc1ccc(N2CCC([N@H+]3CCN(C)C(=O)C3)CC2)cc1 (chirality)
C=c1/c(=C\c2[n-]c(=O)[n-]c2[O-])cc(C)n1Cc1ccc(N2CCC([N@H+]3CCN(C)C(=O)C3)CC2)cc1 (cis-trans isomerization)
C=c1/c(=C\c2[n-]c(=O)[n-]c2[O-])cc(C)n1Cc1ccc(N2CCC([N@H+]3CCN(C)C(=O)C3)CC2)cc1 (3D coordinates assigned)
C=c1/c(=C\c2[n-]c(=O)[n-]c2[O-])cc(C)n1Cc1ccc(N2CCC([N@H+]3CCN(C)C(=O)C3)CC2)cc1 (nonaromatic ring conformer: 162.47766415612037 kcal/mol)

>  <smiles>  (2772) 
C=c1c(=Cc2[nH]c(=O)[nH]c2O)cc(C)n1Cc1ccc(N2CCC(N3CCN(C)C(=O)C3)CC2)cc1

>  <score_type>  (2772) 
oracle

>  <origin>  (2772) 
adg

>  <m_score__min__energy>  (2772) 
-15.99

>  <m_primary>  (2772) 
energy

$$$$
7:0
     RDKit          3D

 31 34  0  0  0  0  0  0  0  0999 V2000
   56.3620   29.3640   44.8150 C   0  0  0  0  0  0  0  0  0  0  0  0
   57.6410   28.9860   44.9770 C   0  0  0  0  0  0  0  0  0  0  0  0
   58.1500   27.6860   44.8570 C   0  0  0  0  0  0  0  0  0  0  0  0
   57.4520   26.5680   44.5580 C   0  0  0  0  0  0  0  0  0  0  0  0
   56.9210   25.5930   45.5370 C   0  0  0  0  0  0  0  0  0  0  0  0
   57.5560   24.4950   45.9840 N   0  0  0  0  0  0  0  0  0  0  0  0
   56.6900   23.9680   46.8750 C   0  0  0  0  0  0  0  0  0  0  0  0
   56.9320   22.9110   47.5140 O   0  0  0  0  0  0  0  0  0  0  0  0
   55.5440   24.6650   47.0300 N   0  0  0  0  0  0  0  0  0  0  0  0
   55.7090   25.6900   46.1800 C   0  0  0  0  0  0  0  0  0  0  0  0
   54.7700   26.6970   45.9970 O   0  0  0  0  0  0  0  0  0  0  0  0
   59.5200   27.7890   45.0850 C   0  0  0  0  0  0  0  0  0  0  0  0
   59.7810   29.1190   45.3440 C   0  0  0  0  0  0  0  0  0  0  0  0
   61.1420   29.6800   45.6260 C   0  0  0  0  0  0  0  0  0  0  0  0
   58.6470   29.8470   45.2680 N   0  0  0  0  0  0  0  0  0  0  0  0
   58.5420   31.2650   45.4830 C   0  0  0  0  0  0  0  0  0  0  0  0
   59.1570   31.8510   46.5990 C   0  0  0  0  0  0  0  0  0  0  0  0
   59.0790   33.2390   46.8160 C   0  0  0  0  0  0  0  0  0  0  0  0
   59.7340   33.8310   48.0130 C   0  0  0  0  0  0  0  0  0  0  0  0
   59.3570   34.9710   48.4080 O   0  0  0  0  0  0  0  0  0  0  0  0
   60.7990   33.1500   48.7250 N   0  0  0  0  0  0  0  0  0  0  0  0
   61.2810   33.9760   49.8760 C   0  0  0  0  0  0  0  0  0  0  0  0
   62.6760   34.5830   49.6670 C   0  0  0  0  0  0  0  0  0  0  0  0
   63.6340   33.4870   49.3080 C   0  0  0  0  0  0  0  0  0  0  0  0
   64.7890   33.5170   49.7080 O   0  0  0  0  0  0  0  0  0  0  0  0
   63.1640   32.3580   48.4410 C   0  0  0  0  0  0  0  0  0  0  0  0
   61.8500   32.7500   47.7530 C   0  0  0  0  0  0  0  0  0  0  0  0
   58.3580   34.0290   45.9020 C   0  0  0  0  0  0  0  0  0  0  0  0
   57.7440   33.4450   44.7910 C   0  0  0  0  0  0  0  0  0  0  0  0
   57.8360   32.0690   44.5770 C   0  0  0  0  0  0  0  0  0  0  0  0
   57.2190   31.5140   43.5040 F   0  0  0  0  0  0  0  0  0  0  0  0
  1  2  2  0
  2  3  1  0
  3  4  2  3
  4  5  1  0
  5  6  1  0
  6  7  1  0
  7  8  2  0
  7  9  1  0
  9 10  1  0
 10 11  1  0
  3 12  1  0
 12 13  2  0
 13 14  1  0
 13 15  1  0
 15 16  1  0
 16 17  2  0
 17 18  1  0
 18 19  1  0
 19 20  2  0
 19 21  1  0
 21 22  1  0
 22 23  1  0
 23 24  1  0
 24 25  2  0
 24 26  1  0
 26 27  1  0
 18 28  2  0
 28 29  1  0
 29 30  2  0
 30 31  1  0
 15  2  1  0
 30 16  1  0
 10  5  2  0
 27 21  1  0
M  CHG  4   6  -1   9  -1  11  -1  21   1
M  END
>  <UniqueID>  (2773) 
8

>  <SMILES>  (2773) 
C=c1c(=Cc2[n-]c(=O)[n-]c2[O-])cc(C)n1-c1cc(C(=O)[NH+]2CCC(=O)CC2)ccc1F

>  <Energy>  (2773) 
132.9297656662429

>  <Genealogy>  (2773) 
C=c1c(=Cc2[n-]c(=O)[n-]c2[O-])cc(C)n1-c1cc(C(=O)[NH+]2CCC(=O)CC2)ccc1F (protonated)
C=c1c(=Cc2[n-]c(=O)[n-]c2[O-])cc(C)n1-c1cc(C(=O)[NH+]2CCC(=O)CC2)ccc1F (3D coordinates assigned)
C=c1c(=Cc2[n-]c(=O)[n-]c2[O-])cc(C)n1-c1cc(C(=O)[NH+]2CCC(=O)CC2)ccc1F (nonaromatic ring conformer: 132.9297656662429 kcal/mol)

>  <smiles>  (2773) 
C=c1c(=Cc2[nH]c(=O)[nH]c2O)cc(C)n1-c1cc(C(=O)N2CCC(=O)CC2)ccc1F

>  <score_type>  (2773) 
oracle

>  <origin>  (2773) 
adg

>  <m_score__min__energy>  (2773) 
-15.74

>  <m_primary>  (2773) 
energy

$$$$
28:0
     RDKit          3D

 30 33  0  0  0  0  0  0  0  0999 V2000
   56.1100   30.2580   44.0010 C   0  0  0  0  0  0  0  0  0  0  0  0
   56.8410   29.5460   44.8630 C   0  0  0  0  0  0  0  0  0  0  0  0
   56.7400   28.2000   44.9630 N   0  0  0  0  0  0  0  0  0  0  0  0
   57.6100   27.8570   45.9400 C   0  0  0  0  0  0  0  0  0  0  0  0
   57.8180   26.5780   46.2940 C   0  0  0  0  0  0  0  0  0  0  0  0
   56.9050   25.4520   46.0210 C   0  0  0  0  0  0  0  0  0  0  0  0
   57.2670   24.1540   45.9400 N   0  0  0  0  0  0  0  0  0  0  0  0
   56.0960   23.5020   45.7590 C   0  0  0  0  0  0  0  0  0  0  0  0
   56.0220   22.2510   45.6370 O   0  0  0  0  0  0  0  0  0  0  0  0
   55.0240   24.3170   45.7220 N   0  0  0  0  0  0  0  0  0  0  0  0
   53.6170   23.9420   45.6160 C   0  0  0  0  0  0  0  0  0  0  0  0
   55.5340   25.5440   45.9170 C   0  0  0  0  0  0  0  0  0  0  0  0
   54.7810   26.7130   45.9960 O   0  0  0  0  0  0  0  0  0  0  0  0
   58.2260   29.0130   46.4000 C   0  0  0  0  0  0  0  0  0  0  0  0
   59.1560   29.0920   47.2460 O   0  0  0  0  0  0  0  0  0  0  0  0
   57.7380   30.0720   45.7320 N   0  0  0  0  0  0  0  0  0  0  0  0
   58.1680   31.4370   45.8700 C   0  0  0  0  0  0  0  0  0  0  0  0
   57.2800   32.4900   45.5990 C   0  0  0  0  0  0  0  0  0  0  0  0
   57.7170   33.8160   45.6800 C   0  0  0  0  0  0  0  0  0  0  0  0
   59.0390   34.0980   46.0350 C   0  0  0  0  0  0  0  0  0  0  0  0
   59.9270   33.0510   46.3300 C   0  0  0  0  0  0  0  0  0  0  0  0
   61.3090   33.3520   46.7390 C   0  0  0  0  0  0  0  0  0  0  0  0
   61.9700   34.1880   46.0570 O   0  0  0  0  0  0  0  0  0  0  0  0
   61.9060   32.7130   47.8930 N   0  0  0  0  0  0  0  0  0  0  0  0
   63.2980   33.0390   48.2360 C   0  0  0  0  0  0  0  0  0  0  0  0
   63.8880   31.9880   49.1870 C   0  0  0  0  0  0  0  0  0  0  0  0
   63.0250   31.7490   50.2810 O   0  0  0  0  0  0  0  0  0  0  0  0
   61.8230   31.1710   49.8150 C   0  0  0  0  0  0  0  0  0  0  0  0
   61.0470   32.1680   48.9530 C   0  0  0  0  0  0  0  0  0  0  0  0
   59.4920   31.7210   46.2330 C   0  0  0  0  0  0  0  0  0  0  0  0
  1  2  2  0
  2  3  1  0
  3  4  1  0
  4  5  2  0
  5  6  1  0
  6  7  1  0
  7  8  1  0
  8  9  2  0
  8 10  1  0
 10 11  1  0
 10 12  1  0
 12 13  1  0
  4 14  1  0
 14 15  2  0
 14 16  1  0
 16 17  1  0
 17 18  2  0
 18 19  1  0
 19 20  2  0
 20 21  1  0
 21 22  1  0
 22 23  2  0
 22 24  1  0
 24 25  1  0
 25 26  1  0
 26 27  1  0
 27 28  1  0
 28 29  1  0
 21 30  2  0
 16  2  1  0
 30 17  1  0
 12  6  2  0
 29 24  1  0
M  CHG  3   3  -1   7  -1  13  -1
M  END
>  <UniqueID>  (2774) 
27

>  <SMILES>  (2774) 
C=c1[n-]/c(=C/c2[n-]c(=O)n(C)c2[O-])c(=O)n1-c1cccc(C(=O)N2CCOCC2)c1

>  <Energy>  (2774) 
136.5535673206246

>  <Genealogy>  (2774) 
C=c1[n-]c(=Cc2[n-]c(=O)n(C)c2[O-])c(=O)n1-c1cccc(C(=O)N2CCOCC2)c1 (protonated)
C=c1[n-]/c(=C/c2[n-]c(=O)n(C)c2[O-])c(=O)n1-c1cccc(C(=O)N2CCOCC2)c1 (cis-trans isomerization)
C=c1[n-]/c(=C/c2[n-]c(=O)n(C)c2[O-])c(=O)n1-c1cccc(C(=O)N2CCOCC2)c1 (3D coordinates assigned)
C=c1[n-]/c(=C/c2[n-]c(=O)n(C)c2[O-])c(=O)n1-c1cccc(C(=O)N2CCOCC2)c1 (nonaromatic ring conformer: 136.5535673206246 kcal/mol)

>  <smiles>  (2774) 
C=c1[nH]c(=Cc2[nH]c(=O)n(C)c2O)c(=O)n1-c1cccc(C(=O)N2CCOCC2)c1

>  <score_type>  (2774) 
oracle

>  <origin>  (2774) 
adg

>  <m_score__min__energy>  (2774) 
-16.170000000000002

>  <m_primary>  (2774) 
energy

$$$$
32:0
     RDKit          3D

 29 31  0  0  0  0  0  0  0  0999 V2000
   58.5420   30.6720   47.3750 C   0  0  0  0  0  0  0  0  0  0  0  0
   58.0670   31.3320   46.3050 C   0  0  0  0  0  0  0  0  0  0  0  0
   57.8610   30.8090   45.0150 C   0  0  0  0  0  0  0  0  0  0  0  0
   57.9760   29.5570   44.5290 C   0  0  0  0  0  0  0  0  0  0  0  0
   57.4090   28.3410   45.1390 C   0  0  0  0  0  0  0  0  0  0  0  0
   56.0210   28.1730   45.2680 C   0  0  0  0  0  0  0  0  0  0  0  0
   55.1450   29.1720   44.8560 O   0  0  0  0  0  0  0  0  0  0  0  0
   55.5230   27.0270   45.7990 N   0  0  0  0  0  0  0  0  0  0  0  0
   56.3480   26.0240   46.1990 C   0  0  0  0  0  0  0  0  0  0  0  0
   55.8660   24.9720   46.6930 O   0  0  0  0  0  0  0  0  0  0  0  0
   57.6930   26.1550   46.0640 N   0  0  0  0  0  0  0  0  0  0  0  0
   58.2390   27.2820   45.5390 C   0  0  0  0  0  0  0  0  0  0  0  0
   59.4910   27.3680   45.4210 O   0  0  0  0  0  0  0  0  0  0  0  0
   57.4720   31.8750   44.2230 C   0  0  0  0  0  0  0  0  0  0  0  0
   57.4150   32.9820   45.0380 C   0  0  0  0  0  0  0  0  0  0  0  0
   57.0220   34.3520   44.5700 C   0  0  0  0  0  0  0  0  0  0  0  0
   57.7790   32.6640   46.3030 N   0  0  0  0  0  0  0  0  0  0  0  0
   57.9330   33.6280   47.4040 C   0  0  0  0  0  0  0  0  0  0  0  0
   59.3800   33.7300   47.8230 C   0  0  0  0  0  0  0  0  0  0  0  0
   59.7200   33.2320   48.8890 O   0  0  0  0  0  0  0  0  0  0  0  0
   60.3560   34.4070   46.9880 N   0  0  2  0  0  0  0  0  0  0  0  0
   59.6970   35.1960   45.9340 C   0  0  0  0  0  0  0  0  0  0  0  0
   61.3790   33.4770   46.4470 C   0  0  0  0  0  0  0  0  0  0  0  0
   62.3540   32.9490   47.4760 C   0  0  0  0  0  0  0  0  0  0  0  0
   62.0890   31.7440   48.1490 C   0  0  0  0  0  0  0  0  0  0  0  0
   62.9900   31.2520   49.0980 C   0  0  0  0  0  0  0  0  0  0  0  0
   64.1560   31.9630   49.3910 C   0  0  0  0  0  0  0  0  0  0  0  0
   64.4190   33.1710   48.7400 C   0  0  0  0  0  0  0  0  0  0  0  0
   63.5210   33.6650   47.7900 C   0  0  0  0  0  0  0  0  0  0  0  0
  1  2  2  0
  2  3  1  0
  3  4  2  0
  4  5  1  0
  5  6  2  0
  6  7  1  0
  6  8  1  0
  8  9  1  0
  9 10  2  0
  9 11  1  0
 11 12  1  0
 12 13  2  0
  3 14  1  0
 14 15  2  0
 15 16  1  0
 15 17  1  0
 17 18  1  0
 18 19  1  0
 19 20  2  0
 19 21  1  0
 21 22  1  6
 21 23  1  0
 23 24  1  0
 24 25  2  0
 25 26  1  0
 26 27  2  0
 27 28  1  0
 28 29  2  0
 17  2  1  0
 29 24  1  0
 12  5  1  0
M  CHG  4   7  -1   8  -1  11  -1  21   1
M  END
>  <UniqueID>  (2775) 
31

>  <SMILES>  (2775) 
C=c1/c(=C\c2c([O-])[n-]c(=O)[n-]c2=O)cc(C)n1CC(=O)[N@H+](C)Cc1ccccc1

>  <Energy>  (2775) 
95.14908296211513

>  <Genealogy>  (2775) 
C=c1c(=Cc2c([O-])[n-]c(=O)[n-]c2=O)cc(C)n1CC(=O)[NH+](C)Cc1ccccc1 (protonated)
C=c1c(=Cc2c([O-])[n-]c(=O)[n-]c2=O)cc(C)n1CC(=O)[N@H+](C)Cc1ccccc1 (chirality)
C=c1/c(=C\c2c([O-])[n-]c(=O)[n-]c2=O)cc(C)n1CC(=O)[N@H+](C)Cc1ccccc1 (cis-trans isomerization)
C=c1/c(=C\c2c([O-])[n-]c(=O)[n-]c2=O)cc(C)n1CC(=O)[N@H+](C)Cc1ccccc1 (3D coordinates assigned)
C=c1/c(=C\c2c([O-])[n-]c(=O)[n-]c2=O)cc(C)n1CC(=O)[N@H+](C)Cc1ccccc1 (optimized conformer: 95.14908296211513 kcal/mol)

>  <smiles>  (2775) 
C=c1c(=Cc2c(O)[nH]c(=O)[nH]c2=O)cc(C)n1CC(=O)N(C)Cc1ccccc1

>  <score_type>  (2775) 
oracle

>  <origin>  (2775) 
adg

>  <m_score__min__energy>  (2775) 
-15.039999999999999

>  <m_primary>  (2775) 
energy

$$$$
35:0
     RDKit          3D

 32 35  0  0  0  0  0  0  0  0999 V2000
   56.4150   29.6960   44.4120 C   0  0  0  0  0  0  0  0  0  0  0  0
   57.6540   29.4210   44.8520 C   0  0  0  0  0  0  0  0  0  0  0  0
   58.1870   28.1510   45.1310 C   0  0  0  0  0  0  0  0  0  0  0  0
   57.7140   26.9160   44.8750 C   0  0  0  0  0  0  0  0  0  0  0  0
   57.2070   25.9650   45.8760 C   0  0  0  0  0  0  0  0  0  0  0  0
   57.9250   24.9340   46.3530 N   0  0  0  0  0  0  0  0  0  0  0  0
   57.0400   24.2670   47.1260 C   0  0  0  0  0  0  0  0  0  0  0  0
   57.3480   23.2300   47.7670 O   0  0  0  0  0  0  0  0  0  0  0  0
   55.7960   24.7920   47.1460 N   0  0  0  0  0  0  0  0  0  0  0  0
   55.9140   25.8570   46.3380 C   0  0  0  0  0  0  0  0  0  0  0  0
   54.8560   26.6960   46.0070 O   0  0  0  0  0  0  0  0  0  0  0  0
   59.3980   28.3700   45.7650 C   0  0  0  0  0  0  0  0  0  0  0  0
   59.5900   29.7350   45.8020 C   0  0  0  0  0  0  0  0  0  0  0  0
   60.8020   30.4050   46.3760 C   0  0  0  0  0  0  0  0  0  0  0  0
   58.5470   30.3770   45.2280 N   0  0  0  0  0  0  0  0  0  0  0  0
   58.3800   31.8360   45.1530 C   0  0  0  0  0  0  0  0  0  0  0  0
   57.7610   32.3700   46.4490 C   0  0  0  0  0  0  0  0  0  0  0  0
   58.8320   32.6880   47.4550 C   0  0  0  0  0  0  0  0  0  0  0  0
   58.9960   31.8840   48.5940 C   0  0  0  0  0  0  0  0  0  0  0  0
   59.9710   32.1980   49.5430 C   0  0  0  0  0  0  0  0  0  0  0  0
   60.7850   33.3260   49.3750 C   0  0  0  0  0  0  0  0  0  0  0  0
   62.0280   33.6940   50.5670 S   0  0  0  0  0  0  0  0  0  0  0  0
   62.7400   34.9640   50.1870 O   0  0  0  0  0  0  0  0  0  0  0  0
   61.3710   33.8960   51.9040 O   0  0  0  0  0  0  0  0  0  0  0  0
   63.1640   32.3720   50.6600 N   0  0  0  0  0  0  0  0  0  0  0  0
   63.0500   31.6970   51.9670 C   0  0  0  0  0  0  0  0  0  0  0  0
   64.1950   30.6820   52.1770 C   0  0  0  0  0  0  0  0  0  0  0  0
   64.9500   30.5040   50.9960 O   0  0  0  0  0  0  0  0  0  0  0  0
   65.5670   31.7260   50.6370 C   0  0  0  0  0  0  0  0  0  0  0  0
   64.5370   32.8610   50.4440 C   0  0  0  0  0  0  0  0  0  0  0  0
   60.6180   34.1360   48.2420 C   0  0  0  0  0  0  0  0  0  0  0  0
   59.6420   33.8240   47.2920 C   0  0  0  0  0  0  0  0  0  0  0  0
  1  2  2  0
  2  3  1  0
  3  4  2  3
  4  5  1  0
  5  6  1  0
  6  7  1  0
  7  8  2  0
  7  9  1  0
  9 10  1  0
 10 11  1  0
  3 12  1  0
 12 13  2  0
 13 14  1  0
 13 15  1  0
 15 16  1  0
 16 17  1  0
 17 18  1  0
 18 19  2  0
 19 20  1  0
 20 21  2  0
 21 22  1  0
 22 23  2  0
 22 24  2  0
 22 25  1  0
 25 26  1  0
 26 27  1  0
 27 28  1  0
 28 29  1  0
 29 30  1  0
 21 31  1  0
 31 32  2  0
 15  2  1  0
 32 18  1  0
 10  5  2  0
 30 25  1  0
M  CHG  4   6  -1   9  -1  11  -1  25   1
M  END
>  <UniqueID>  (2776) 
34

>  <SMILES>  (2776) 
C=c1c(=Cc2[n-]c(=O)[n-]c2[O-])cc(C)n1CCc1ccc(S(=O)(=O)[NH+]2CCOCC2)cc1

>  <Energy>  (2776) 
132.03070971718685

>  <Genealogy>  (2776) 
C=c1c(=Cc2[n-]c(=O)[n-]c2[O-])cc(C)n1CCc1ccc(S(=O)(=O)[NH+]2CCOCC2)cc1 (protonated)
C=c1c(=Cc2[n-]c(=O)[n-]c2[O-])cc(C)n1CCc1ccc(S(=O)(=O)[NH+]2CCOCC2)cc1 (3D coordinates assigned)
C=c1c(=Cc2[n-]c(=O)[n-]c2[O-])cc(C)n1CCc1ccc(S(=O)(=O)[NH+]2CCOCC2)cc1 (nonaromatic ring conformer: 132.03070971718685 kcal/mol)

>  <smiles>  (2776) 
C=c1c(=Cc2[nH]c(=O)[nH]c2O)cc(C)n1CCc1ccc(S(=O)(=O)N2CCOCC2)cc1

>  <score_type>  (2776) 
oracle

>  <origin>  (2776) 
adg

>  <m_score__min__energy>  (2776) 
-16.719999999999999

>  <m_primary>  (2776) 
energy

$$$$
44:0
     RDKit          3D

 26 28  0  0  0  0  0  0  0  0999 V2000
   54.2480   28.2140   53.1280 C   0  0  0  0  0  0  0  0  0  0  0  0
   54.7000   29.4310   52.7810 C   0  0  0  0  0  0  0  0  0  0  0  0
   53.9300   30.5010   52.3070 C   0  0  0  0  0  0  0  0  0  0  0  0
   52.5870   30.5290   52.1560 C   0  0  0  0  0  0  0  0  0  0  0  0
   51.8690   30.8780   50.9100 C   0  0  0  0  0  0  0  0  0  0  0  0
   51.7740   30.1100   49.8110 N   0  0  0  0  0  0  0  0  0  0  0  0
   51.0130   30.8490   48.9750 C   0  0  0  0  0  0  0  0  0  0  0  0
   50.6890   30.4510   47.8250 O   0  0  0  0  0  0  0  0  0  0  0  0
   50.6110   32.0360   49.4740 N   0  0  0  0  0  0  0  0  0  0  0  0
   51.1580   32.0370   50.6990 C   0  0  0  0  0  0  0  0  0  0  0  0
   51.0190   33.0820   51.6050 O   0  0  0  0  0  0  0  0  0  0  0  0
   54.8260   31.5330   52.0460 C   0  0  0  0  0  0  0  0  0  0  0  0
   56.0790   31.0560   52.3610 C   0  0  0  0  0  0  0  0  0  0  0  0
   57.3240   31.8300   52.1870 C   0  0  0  0  0  0  0  0  0  0  0  0
   57.7920   32.4200   53.1990 O   0  0  0  0  0  0  0  0  0  0  0  0
   57.9680   32.0120   50.8940 N   0  0  0  0  0  0  0  0  0  0  0  0
   58.9750   33.0980   50.9810 C   0  0  0  0  0  0  0  0  0  0  0  0
   60.0220   33.0530   49.8460 C   0  0  0  0  0  0  0  0  0  0  0  0
   59.5250   32.3660   48.6390 N   0  0  0  0  0  0  0  0  0  0  0  0
   58.5290   33.1640   47.8820 C   0  0  0  0  0  0  0  0  0  0  0  0
   59.1550   34.4560   47.3410 C   0  0  0  0  0  0  0  0  0  0  0  0
   58.9880   34.5860   45.8270 C   0  0  0  0  0  0  0  0  0  0  0  0
   59.0980   30.9770   48.9270 C   0  0  0  0  0  0  0  0  0  0  0  0
   58.5740   30.7730   50.3650 C   0  0  0  0  0  0  0  0  0  0  0  0
   56.0080   29.7880   52.8230 N   0  0  0  0  0  0  0  0  0  0  0  0
   57.1380   28.9530   53.2410 C   0  0  0  0  0  0  0  0  0  0  0  0
  1  2  2  0
  2  3  1  0
  3  4  2  0
  4  5  1  0
  5  6  1  0
  6  7  1  0
  7  8  2  0
  7  9  1  0
  9 10  1  0
 10 11  1  0
  3 12  1  0
 12 13  2  0
 13 14  1  0
 14 15  2  0
 14 16  1  0
 16 17  1  0
 17 18  1  0
 18 19  1  0
 19 20  1  0
 20 21  1  0
 21 22  1  0
 19 23  1  0
 23 24  1  0
 13 25  1  0
 25 26  1  0
 25  2  1  0
 10  5  2  0
 24 16  1  0
M  CHG  4   6  -1   9  -1  11  -1  16   1
M  END
>  <UniqueID>  (2777) 
43

>  <SMILES>  (2777) 
C=c1/c(=C/c2[n-]c(=O)[n-]c2[O-])cc(C(=O)[NH+]2CCN(CCC)CC2)n1C

>  <Energy>  (2777) 
133.72270355558854

>  <Genealogy>  (2777) 
C=c1c(=Cc2[n-]c(=O)[n-]c2[O-])cc(C(=O)[NH+]2CCN(CCC)CC2)n1C (protonated)
C=c1/c(=C/c2[n-]c(=O)[n-]c2[O-])cc(C(=O)[NH+]2CCN(CCC)CC2)n1C (cis-trans isomerization)
C=c1/c(=C/c2[n-]c(=O)[n-]c2[O-])cc(C(=O)[NH+]2CCN(CCC)CC2)n1C (3D coordinates assigned)
C=c1/c(=C/c2[n-]c(=O)[n-]c2[O-])cc(C(=O)[NH+]2CCN(CCC)CC2)n1C (nonaromatic ring conformer: 133.72270355558854 kcal/mol)

>  <smiles>  (2777) 
C=c1c(=Cc2[nH]c(=O)[nH]c2O)cc(C(=O)N2CCN(CCC)CC2)n1C

>  <score_type>  (2777) 
oracle

>  <origin>  (2777) 
adg

>  <m_score__min__energy>  (2777) 
-15.85

>  <m_primary>  (2777) 
energy

$$$$
47:0
     RDKit          3D

 29 32  0  0  0  0  0  0  0  0999 V2000
   56.0360   29.7670   43.0320 C   0  0  0  0  0  0  0  0  0  0  0  0
   56.7060   29.5680   44.1680 C   0  0  0  0  0  0  0  0  0  0  0  0
   56.6990   28.3990   44.8370 N   0  0  0  0  0  0  0  0  0  0  0  0
   57.5020   28.5610   45.9130 C   0  0  0  0  0  0  0  0  0  0  0  0
   57.7970   27.6110   46.8130 C   0  0  0  0  0  0  0  0  0  0  0  0
   57.2460   26.2460   46.7810 C   0  0  0  0  0  0  0  0  0  0  0  0
   57.9150   25.1700   47.2310 N   0  0  0  0  0  0  0  0  0  0  0  0
   57.0220   24.1660   47.0950 C   0  0  0  0  0  0  0  0  0  0  0  0
   57.2870   22.9760   47.4060 O   0  0  0  0  0  0  0  0  0  0  0  0
   55.8190   24.5400   46.6110 N   0  0  0  0  0  0  0  0  0  0  0  0
   55.9720   25.8610   46.4290 C   0  0  0  0  0  0  0  0  0  0  0  0
   54.9530   26.7010   45.9950 O   0  0  0  0  0  0  0  0  0  0  0  0
   58.0350   29.8390   45.9270 C   0  0  0  0  0  0  0  0  0  0  0  0
   57.5140   30.4900   44.8230 C   0  0  0  0  0  0  0  0  0  0  0  0
   57.8720   31.8840   44.3900 C   0  0  0  0  0  0  0  0  0  0  0  0
   58.5320   32.6320   45.5180 C   0  0  0  0  0  0  0  0  0  0  0  0
   57.9190   33.7600   46.0840 C   0  0  0  0  0  0  0  0  0  0  0  0
   58.5500   34.4630   47.1140 C   0  0  0  0  0  0  0  0  0  0  0  0
   59.7950   34.0430   47.5900 C   0  0  0  0  0  0  0  0  0  0  0  0
   60.4090   32.9080   47.0470 C   0  0  0  0  0  0  0  0  0  0  0  0
   61.7330   32.4840   47.5400 C   0  0  0  0  0  0  0  0  0  0  0  0
   62.7400   33.1390   47.1600 O   0  0  0  0  0  0  0  0  0  0  0  0
   61.9130   31.3400   48.4200 N   0  0  0  0  0  0  0  0  0  0  0  0
   61.7550   31.6890   49.8510 C   0  0  0  0  0  0  0  0  0  0  0  0
   60.2750   31.7390   50.3090 C   0  0  0  0  0  0  0  0  0  0  0  0
   59.3720   31.2240   49.3510 O   0  0  0  0  0  0  0  0  0  0  0  0
   59.8370   29.9840   48.8760 C   0  0  0  0  0  0  0  0  0  0  0  0
   61.0910   30.1750   48.0050 C   0  0  0  0  0  0  0  0  0  0  0  0
   59.7860   32.2170   45.9980 C   0  0  0  0  0  0  0  0  0  0  0  0
  1  2  2  0
  2  3  1  0
  3  4  1  0
  4  5  2  3
  5  6  1  0
  6  7  1  0
  7  8  1  0
  8  9  2  0
  8 10  1  0
 10 11  1  0
 11 12  1  0
  4 13  1  0
 13 14  2  0
 14 15  1  0
 15 16  1  0
 16 17  2  0
 17 18  1  0
 18 19  2  0
 19 20  1  0
 20 21  1  0
 21 22  2  0
 21 23  1  0
 23 24  1  0
 24 25  1  0
 25 26  1  0
 26 27  1  0
 27 28  1  0
 20 29  2  0
 14  2  1  0
 29 16  1  0
 11  6  2  0
 28 23  1  0
M  CHG  4   7  -1  10  -1  12  -1  23   1
M  END
>  <UniqueID>  (2778) 
45

>  <SMILES>  (2778) 
C=c1[nH]c(=Cc2[n-]c(=O)[n-]c2[O-])cc1Cc1cccc(C(=O)[NH+]2CCOCC2)c1

>  <Energy>  (2778) 
133.47528342755902

>  <Genealogy>  (2778) 
C=c1[nH]c(=Cc2[n-]c(=O)[n-]c2[O-])cc1Cc1cccc(C(=O)[NH+]2CCOCC2)c1 (protonated)
C=c1[nH]c(=Cc2[n-]c(=O)[n-]c2[O-])cc1Cc1cccc(C(=O)[NH+]2CCOCC2)c1 (3D coordinates assigned)
C=c1[nH]c(=Cc2[n-]c(=O)[n-]c2[O-])cc1Cc1cccc(C(=O)[NH+]2CCOCC2)c1 (nonaromatic ring conformer: 133.47528342755902 kcal/mol)

>  <smiles>  (2778) 
C=c1[nH]c(=Cc2[nH]c(=O)[nH]c2O)cc1Cc1cccc(C(=O)N2CCOCC2)c1

>  <score_type>  (2778) 
oracle

>  <origin>  (2778) 
adg

>  <m_score__min__energy>  (2778) 
-16.34

>  <m_primary>  (2778) 
energy

$$$$
49:0
     RDKit          3D

 35 39  0  0  0  0  0  0  0  0999 V2000
   59.6790   29.3860   47.8610 C   0  0  0  0  0  0  0  0  0  0  0  0
   59.0970   29.8850   46.7590 C   0  0  0  0  0  0  0  0  0  0  0  0
   58.5470   29.1470   45.7060 C   0  0  0  0  0  0  0  0  0  0  0  0
   58.4740   27.8060   45.5990 C   0  0  0  0  0  0  0  0  0  0  0  0
   57.2550   27.0230   45.8740 C   0  0  0  0  0  0  0  0  0  0  0  0
   57.2770   25.7510   46.3130 N   0  0  0  0  0  0  0  0  0  0  0  0
   55.9710   25.4100   46.3510 C   0  0  0  0  0  0  0  0  0  0  0  0
   55.5790   24.2750   46.7280 O   0  0  0  0  0  0  0  0  0  0  0  0
   55.1190   26.3760   45.9410 N   0  0  0  0  0  0  0  0  0  0  0  0
   55.9470   27.3860   45.6300 C   0  0  0  0  0  0  0  0  0  0  0  0
   55.5190   28.5910   45.0860 O   0  0  0  0  0  0  0  0  0  0  0  0
   58.0220   30.0740   44.8130 C   0  0  0  0  0  0  0  0  0  0  0  0
   58.2840   31.3230   45.3400 C   0  0  0  0  0  0  0  0  0  0  0  0
   57.8540   32.6160   44.7160 C   0  0  0  0  0  0  0  0  0  0  0  0
   58.9300   31.2100   46.5220 N   0  0  0  0  0  0  0  0  0  0  0  0
   59.3460   32.3030   47.3590 C   0  0  0  0  0  0  0  0  0  0  0  0
   59.9960   33.4120   46.8010 C   0  0  0  0  0  0  0  0  0  0  0  0
   60.3990   34.4740   47.6150 C   0  0  0  0  0  0  0  0  0  0  0  0
   60.1620   34.4310   48.9910 C   0  0  0  0  0  0  0  0  0  0  0  0
   59.5220   33.3210   49.5660 C   0  0  0  0  0  0  0  0  0  0  0  0
   59.2720   33.2650   51.0210 C   0  0  0  0  0  0  0  0  0  0  0  0
   59.7850   34.1490   51.7630 O   0  0  0  0  0  0  0  0  0  0  0  0
   58.4430   32.2390   51.6040 N   0  0  0  0  0  0  0  0  0  0  0  0
   57.2730   31.7420   50.8630 C   0  0  0  0  0  0  0  0  0  0  0  0
   56.2230   31.1370   51.8000 C   0  0  0  0  0  0  0  0  0  0  0  0
   56.8420   30.1800   52.7290 N   0  0  0  0  0  0  0  0  0  0  0  0
   56.0890   29.0420   53.2050 C   0  0  0  0  0  0  0  0  0  0  0  0
   54.6950   28.9790   53.0170 C   0  0  0  0  0  0  0  0  0  0  0  0
   53.9840   27.8720   53.4800 C   0  0  0  0  0  0  0  0  0  0  0  0
   54.6560   26.8360   54.1260 C   0  0  0  0  0  0  0  0  0  0  0  0
   56.0380   26.9210   54.2980 C   0  0  0  0  0  0  0  0  0  0  0  0
   56.7210   28.0060   53.8400 N   0  0  0  0  0  0  0  0  0  0  0  0
   58.1790   30.4530   53.2800 C   0  0  0  0  0  0  0  0  0  0  0  0
   58.6120   31.9000   53.0220 C   0  0  0  0  0  0  0  0  0  0  0  0
   59.1010   32.2660   48.7400 C   0  0  0  0  0  0  0  0  0  0  0  0
  1  2  2  0
  2  3  1  0
  3  4  2  0
  4  5  1  0
  5  6  1  0
  6  7  1  0
  7  8  2  0
  7  9  1  0
  9 10  1  0
 10 11  1  0
  3 12  1  0
 12 13  2  0
 13 14  1  0
 13 15  1  0
 15 16  1  0
 16 17  2  0
 17 18  1  0
 18 19  2  0
 19 20  1  0
 20 21  1  0
 21 22  2  0
 21 23  1  0
 23 24  1  0
 24 25  1  0
 25 26  1  0
 26 27  1  0
 27 28  2  0
 28 29  1  0
 29 30  2  0
 30 31  1  0
 31 32  2  0
 26 33  1  0
 33 34  1  0
 20 35  2  0
 15  2  1  0
 35 16  1  0
 10  5  2  0
 34 23  1  0
 32 27  1  0
M  CHG  4   6  -1   9  -1  11  -1  32   1
M  END
>  <UniqueID>  (2779) 
47

>  <SMILES>  (2779) 
C=c1/c(=C/c2[n-]c(=O)[n-]c2[O-])cc(C)n1-c1cccc(C(=O)N2CCN(c3cccc[nH+]3)CC2)c1

>  <Energy>  (2779) 
143.3034625335366

>  <Genealogy>  (2779) 
C=c1c(=Cc2[n-]c(=O)[n-]c2[O-])cc(C)n1-c1cccc(C(=O)N2CCN(c3cccc[nH+]3)CC2)c1 (protonated)
C=c1/c(=C/c2[n-]c(=O)[n-]c2[O-])cc(C)n1-c1cccc(C(=O)N2CCN(c3cccc[nH+]3)CC2)c1 (cis-trans isomerization)
C=c1/c(=C/c2[n-]c(=O)[n-]c2[O-])cc(C)n1-c1cccc(C(=O)N2CCN(c3cccc[nH+]3)CC2)c1 (3D coordinates assigned)
C=c1/c(=C/c2[n-]c(=O)[n-]c2[O-])cc(C)n1-c1cccc(C(=O)N2CCN(c3cccc[nH+]3)CC2)c1 (nonaromatic ring conformer: 143.3034625335366 kcal/mol)

>  <smiles>  (2779) 
C=c1c(=Cc2[nH]c(=O)[nH]c2O)cc(C)n1-c1cccc(C(=O)N2CCN(c3ccccn3)CC2)c1

>  <score_type>  (2779) 
oracle

>  <origin>  (2779) 
adg

>  <m_score__min__energy>  (2779) 
-16.920000000000002

>  <m_primary>  (2779) 
energy

$$$$
59:0
     RDKit          3D

 30 32  0  0  0  0  0  0  0  0999 V2000
   55.7120   25.8320   54.3370 O   0  0  0  0  0  0  0  0  0  0  0  0
   54.6430   26.4190   55.0260 C   0  0  0  0  0  0  0  0  0  0  0  0
   55.0510   27.7990   55.5390 C   0  0  0  0  0  0  0  0  0  0  0  0
   54.5050   28.8600   54.6740 N   0  0  0  0  0  0  0  0  0  0  0  0
   55.1110   29.3960   53.5890 C   0  0  0  0  0  0  0  0  0  0  0  0
   56.4850   29.1030   53.1400 C   0  0  0  0  0  0  0  0  0  0  0  0
   56.9490   27.9500   53.3460 O   0  0  0  0  0  0  0  0  0  0  0  0
   57.2870   30.0900   52.4570 N   0  0  0  0  0  0  0  0  0  0  0  0
   56.6620   31.1230   51.6170 C   0  0  0  0  0  0  0  0  0  0  0  0
   57.4020   32.4540   51.7760 C   0  0  0  0  0  0  0  0  0  0  0  0
   58.8610   32.2900   51.6720 N   0  0  0  0  0  0  0  0  0  0  0  0
   59.6830   33.4740   51.5970 C   0  0  0  0  0  0  0  0  0  0  0  0
   59.2230   34.5750   52.0100 O   0  0  0  0  0  0  0  0  0  0  0  0
   61.0880   33.4270   51.0660 C   0  0  0  0  0  0  0  0  0  0  0  0
   61.1750   34.1760   49.8710 O   0  0  0  0  0  0  0  0  0  0  0  0
   60.0260   33.9420   49.0870 C   0  0  0  0  0  0  0  0  0  0  0  0
   59.4390   30.9440   51.5300 C   0  0  0  0  0  0  0  0  0  0  0  0
   58.7500   29.9520   52.4770 C   0  0  0  0  0  0  0  0  0  0  0  0
   54.2630   30.2660   52.9390 C   0  0  0  0  0  0  0  0  0  0  0  0
   53.0680   30.2590   53.6360 C   0  0  0  0  0  0  0  0  0  0  0  0
   51.9850   30.9480   53.2250 C   0  0  0  0  0  0  0  0  0  0  0  0
   51.5600   31.1280   51.8270 C   0  0  0  0  0  0  0  0  0  0  0  0
   51.8160   30.2600   50.8310 N   0  0  0  0  0  0  0  0  0  0  0  0
   51.3700   30.9070   49.7320 C   0  0  0  0  0  0  0  0  0  0  0  0
   51.4210   30.4020   48.5800 O   0  0  0  0  0  0  0  0  0  0  0  0
   50.8750   32.1420   49.9640 N   0  0  0  0  0  0  0  0  0  0  0  0
   51.0170   32.2700   51.2920 C   0  0  0  0  0  0  0  0  0  0  0  0
   50.6630   33.4100   52.0020 O   0  0  0  0  0  0  0  0  0  0  0  0
   53.2600   29.4090   54.7370 C   0  0  0  0  0  0  0  0  0  0  0  0
   52.4310   29.2430   55.7800 C   0  0  0  0  0  0  0  0  0  0  0  0
  1  2  1  0
  2  3  1  0
  3  4  1  0
  4  5  1  0
  5  6  1  0
  6  7  2  0
  6  8  1  0
  8  9  1  0
  9 10  1  0
 10 11  1  0
 11 12  1  0
 12 13  2  0
 12 14  1  0
 14 15  1  0
 15 16  1  0
 11 17  1  0
 17 18  1  0
  5 19  2  0
 19 20  1  0
 20 21  2  0
 21 22  1  0
 22 23  1  0
 23 24  1  0
 24 25  2  0
 24 26  1  0
 26 27  1  0
 27 28  1  0
 20 29  1  0
 29 30  2  0
 29  4  1  0
 18  8  1  0
 27 22  2  0
M  CHG  3  23  -1  26  -1  28  -1
M  END
>  <UniqueID>  (2780) 
55

>  <SMILES>  (2780) 
C=c1/c(=C\c2[n-]c(=O)[n-]c2[O-])cc(C(=O)N2CCN(C(=O)COC)CC2)n1CCO

>  <Energy>  (2780) 
126.39013585430753

>  <Genealogy>  (2780) 
C=c1c(=Cc2[n-]c(=O)[n-]c2[O-])cc(C(=O)N2CCN(C(=O)COC)CC2)n1CCO (protonated)
C=c1/c(=C\c2[n-]c(=O)[n-]c2[O-])cc(C(=O)N2CCN(C(=O)COC)CC2)n1CCO (cis-trans isomerization)
C=c1/c(=C\c2[n-]c(=O)[n-]c2[O-])cc(C(=O)N2CCN(C(=O)COC)CC2)n1CCO (3D coordinates assigned)
C=c1/c(=C\c2[n-]c(=O)[n-]c2[O-])cc(C(=O)N2CCN(C(=O)COC)CC2)n1CCO (nonaromatic ring conformer: 126.39013585430753 kcal/mol)

>  <smiles>  (2780) 
C=c1c(=Cc2[nH]c(=O)[nH]c2O)cc(C(=O)N2CCN(C(=O)COC)CC2)n1CCO

>  <score_type>  (2780) 
oracle

>  <origin>  (2780) 
adg

>  <m_score__min__energy>  (2780) 
-15.35

>  <m_primary>  (2780) 
energy

$$$$
60:0
     RDKit          3D

 26 28  0  0  0  0  0  0  0  0999 V2000
   59.2740   35.0710   45.4390 C   0  0  0  0  0  0  0  0  0  0  0  0
   58.8750   33.7960   45.4230 C   0  0  0  0  0  0  0  0  0  0  0  0
   58.4250   32.9880   44.0180 S   0  0  0  0  0  0  0  0  0  0  0  0
   58.0560   31.5480   44.8150 C   0  0  0  0  0  0  0  0  0  0  0  0
   57.5750   30.4260   44.2560 C   0  0  0  0  0  0  0  0  0  0  0  0
   57.5690   29.1190   44.9440 C   0  0  0  0  0  0  0  0  0  0  0  0
   58.7930   28.5210   45.2780 C   0  0  0  0  0  0  0  0  0  0  0  0
   58.8210   27.2880   45.9370 C   0  0  0  0  0  0  0  0  0  0  0  0
   57.6280   26.6320   46.2520 C   0  0  0  0  0  0  0  0  0  0  0  0
   57.6740   25.4090   46.9130 O   0  0  0  0  0  0  0  0  0  0  0  0
   56.3950   27.2050   45.8950 C   0  0  0  0  0  0  0  0  0  0  0  0
   55.1930   26.5590   46.1870 O   0  0  0  0  0  0  0  0  0  0  0  0
   56.3670   28.4400   45.2300 C   0  0  0  0  0  0  0  0  0  0  0  0
   55.1440   28.9780   44.8390 O   0  0  0  0  0  0  0  0  0  0  0  0
   58.2890   31.7470   46.1780 C   0  0  0  0  0  0  0  0  0  0  0  0
   58.0800   30.8490   47.0400 O   0  0  0  0  0  0  0  0  0  0  0  0
   58.7580   32.9870   46.5160 N   0  0  0  0  0  0  0  0  0  0  0  0
   59.0460   33.3970   47.8990 C   0  0  0  0  0  0  0  0  0  0  0  0
   60.1560   32.5570   48.4760 C   0  0  0  0  0  0  0  0  0  0  0  0
   59.8480   31.5420   49.1640 O   0  0  0  0  0  0  0  0  0  0  0  0
   61.5480   32.8620   48.2410 N   0  0  0  0  0  0  0  0  0  0  0  0
   61.9510   33.7630   47.1530 C   0  0  0  0  0  0  0  0  0  0  0  0
   63.3840   33.4490   46.7060 C   0  0  0  0  0  0  0  0  0  0  0  0
   64.2600   33.4210   47.8160 O   0  0  0  0  0  0  0  0  0  0  0  0
   63.9190   32.3410   48.6620 C   0  0  0  0  0  0  0  0  0  0  0  0
   62.5340   32.5510   49.2830 C   0  0  0  0  0  0  0  0  0  0  0  0
  1  2  2  0
  2  3  1  0
  3  4  1  0
  4  5  2  3
  5  6  1  0
  6  7  2  0
  7  8  1  0
  8  9  2  0
  9 10  1  0
  9 11  1  0
 11 12  1  0
 11 13  2  0
 13 14  1  0
  4 15  1  0
 15 16  2  0
 15 17  1  0
 17 18  1  0
 18 19  1  0
 19 20  2  0
 19 21  1  0
 21 22  1  0
 22 23  1  0
 23 24  1  0
 24 25  1  0
 25 26  1  0
 17  2  1  0
 26 21  1  0
 13  6  1  0
M  CHG  2  10  -1  14  -1
M  END
>  <UniqueID>  (2781) 
56

>  <SMILES>  (2781) 
C=c1sc(=Cc2ccc([O-])c(O)c2[O-])c(=O)n1CC(=O)N1CCOCC1

>  <Energy>  (2781) 
86.06155136558627

>  <Genealogy>  (2781) 
C=c1sc(=Cc2ccc([O-])c(O)c2[O-])c(=O)n1CC(=O)N1CCOCC1 (protonated)
C=c1sc(=Cc2ccc([O-])c(O)c2[O-])c(=O)n1CC(=O)N1CCOCC1 (3D coordinates assigned)
C=c1sc(=Cc2ccc([O-])c(O)c2[O-])c(=O)n1CC(=O)N1CCOCC1 (nonaromatic ring conformer: 86.06155136558627 kcal/mol)

>  <smiles>  (2781) 
C=c1sc(=Cc2ccc(O)c(O)c2O)c(=O)n1CC(=O)N1CCOCC1

>  <score_type>  (2781) 
oracle

>  <origin>  (2781) 
adg

>  <m_score__min__energy>  (2781) 
-14.49

>  <m_primary>  (2781) 
energy

$$$$
79:0
     RDKit          3D

 31 34  0  0  0  0  0  0  0  0999 V2000
   55.3930   31.6400   52.0780 C   0  0  0  0  0  0  0  0  0  0  0  0
   54.9990   30.4950   52.6560 C   0  0  0  0  0  0  0  0  0  0  0  0
   53.6840   30.1420   53.0110 C   0  0  0  0  0  0  0  0  0  0  0  0
   52.5070   30.7730   52.8260 C   0  0  0  0  0  0  0  0  0  0  0  0
   51.8190   30.9660   51.5420 C   0  0  0  0  0  0  0  0  0  0  0  0
   52.0350   30.2000   50.4590 N   0  0  0  0  0  0  0  0  0  0  0  0
   51.3210   30.8170   49.4930 C   0  0  0  0  0  0  0  0  0  0  0  0
   51.2570   30.3810   48.3140 O   0  0  0  0  0  0  0  0  0  0  0  0
   50.6900   31.9440   49.8860 N   0  0  0  0  0  0  0  0  0  0  0  0
   51.0290   32.0340   51.1810 C   0  0  0  0  0  0  0  0  0  0  0  0
   50.6450   33.0820   52.0100 O   0  0  0  0  0  0  0  0  0  0  0  0
   53.7660   28.8960   53.6040 C   0  0  0  0  0  0  0  0  0  0  0  0
   55.0860   28.5080   53.5470 C   0  0  0  0  0  0  0  0  0  0  0  0
   55.5860   27.1750   54.0170 C   0  0  0  0  0  0  0  0  0  0  0  0
   55.8490   29.4910   53.0140 N   0  0  0  0  0  0  0  0  0  0  0  0
   57.2900   29.4450   52.9050 C   0  0  0  0  0  0  0  0  0  0  0  0
   57.7910   28.9800   51.8430 O   0  0  0  0  0  0  0  0  0  0  0  0
   58.1600   29.9630   53.9620 N   0  0  0  0  0  0  0  0  0  0  0  0
   57.9230   31.3970   54.2820 C   0  0  0  0  0  0  0  0  0  0  0  0
   58.6780   32.3820   53.3620 C   0  0  0  0  0  0  0  0  0  0  0  0
   59.2840   31.7000   52.2160 N   0  0  0  0  0  0  0  0  0  0  0  0
   59.3640   32.3770   50.9470 C   0  0  0  0  0  0  0  0  0  0  0  0
   58.4830   32.0360   49.9080 C   0  0  0  0  0  0  0  0  0  0  0  0
   58.5520   32.6890   48.6770 C   0  0  0  0  0  0  0  0  0  0  0  0
   59.4980   33.6920   48.4700 C   0  0  0  0  0  0  0  0  0  0  0  0
   60.3770   34.0480   49.4950 C   0  0  0  0  0  0  0  0  0  0  0  0
   60.3150   33.4000   50.7450 C   0  0  0  0  0  0  0  0  0  0  0  0
   61.1620   33.7560   51.8060 O   0  0  0  0  0  0  0  0  0  0  0  0
   62.5790   33.6170   51.7920 C   0  0  0  0  0  0  0  0  0  0  0  0
   60.0870   30.4940   52.4520 C   0  0  0  0  0  0  0  0  0  0  0  0
   59.5950   29.7300   53.6920 C   0  0  0  0  0  0  0  0  0  0  0  0
  1  2  2  0
  2  3  1  0
  3  4  2  3
  4  5  1  0
  5  6  1  0
  6  7  1  0
  7  8  2  0
  7  9  1  0
  9 10  1  0
 10 11  1  0
  3 12  1  0
 12 13  2  0
 13 14  1  0
 13 15  1  0
 15 16  1  0
 16 17  2  0
 16 18  1  0
 18 19  1  0
 19 20  1  0
 20 21  1  0
 21 22  1  0
 22 23  2  0
 23 24  1  0
 24 25  2  0
 25 26  1  0
 26 27  2  0
 27 28  1  0
 28 29  1  0
 21 30  1  0
 30 31  1  0
 15  2  1  0
 31 18  1  0
 10  5  2  0
 27 22  1  0
M  CHG  4   6  -1   9  -1  11  -1  18   1
M  END
>  <UniqueID>  (2782) 
75

>  <SMILES>  (2782) 
C=c1c(=Cc2[n-]c(=O)[n-]c2[O-])cc(C)n1C(=O)[NH+]1CCN(c2ccccc2OC)CC1

>  <Energy>  (2782) 
149.1544104268078

>  <Genealogy>  (2782) 
C=c1c(=Cc2[n-]c(=O)[n-]c2[O-])cc(C)n1C(=O)[NH+]1CCN(c2ccccc2OC)CC1 (protonated)
C=c1c(=Cc2[n-]c(=O)[n-]c2[O-])cc(C)n1C(=O)[NH+]1CCN(c2ccccc2OC)CC1 (3D coordinates assigned)
C=c1c(=Cc2[n-]c(=O)[n-]c2[O-])cc(C)n1C(=O)[NH+]1CCN(c2ccccc2OC)CC1 (nonaromatic ring conformer: 149.1544104268078 kcal/mol)

>  <smiles>  (2782) 
C=c1c(=Cc2[nH]c(=O)[nH]c2O)cc(C)n1C(=O)N1CCN(c2ccccc2OC)CC1

>  <score_type>  (2782) 
oracle

>  <origin>  (2782) 
adg

>  <m_score__min__energy>  (2782) 
-15.35

>  <m_primary>  (2782) 
energy

$$$$
80:0
     RDKit          3D

 34 37  0  0  0  0  0  0  0  0999 V2000
   52.9220   25.1410   45.2440 O   0  0  0  0  0  0  0  0  0  0  0  0
   54.1110   25.1090   45.6590 C   0  0  0  0  0  0  0  0  0  0  0  0
   54.8360   26.3270   45.8640 N   0  0  0  0  0  0  0  0  0  0  0  0
   56.1830   26.3820   46.4180 C   0  0  0  0  0  0  0  0  0  0  0  0
   57.0420   27.3120   45.6120 C   0  0  0  0  0  0  0  0  0  0  0  0
   58.2520   26.8750   45.0520 C   0  0  0  0  0  0  0  0  0  0  0  0
   59.0210   27.7650   44.3000 C   0  0  0  0  0  0  0  0  0  0  0  0
   58.5800   29.0760   44.1140 C   0  0  0  0  0  0  0  0  0  0  0  0
   57.3710   29.4810   44.6900 C   0  0  0  0  0  0  0  0  0  0  0  0
   56.7870   31.1580   44.4800 S   0  0  0  0  0  0  0  0  0  0  0  0
   57.8090   31.7720   45.8220 C   0  0  0  0  0  0  0  0  0  0  0  0
   58.1670   33.0420   46.0320 C   0  0  0  0  0  0  0  0  0  0  0  0
   57.8210   34.1780   45.1540 C   0  0  0  0  0  0  0  0  0  0  0  0
   56.6170   34.4530   44.9160 O   0  0  0  0  0  0  0  0  0  0  0  0
   58.8190   34.9190   44.5380 O   0  0  0  0  0  0  0  0  0  0  0  0
   59.0270   33.0980   47.1720 N   0  0  0  0  0  0  0  0  0  0  0  0
   59.5520   34.1840   47.8150 C   0  0  0  0  0  0  0  0  0  0  0  0
   59.3070   35.3580   47.4330 O   0  0  0  0  0  0  0  0  0  0  0  0
   60.3570   33.9740   48.9400 C   0  0  0  0  0  0  0  0  0  0  0  0
   60.5710   32.6710   49.3990 C   0  0  0  0  0  0  0  0  0  0  0  0
   59.9730   31.6030   48.7270 C   0  0  0  0  0  0  0  0  0  0  0  0
   60.1290   30.4220   49.1370 O   0  0  0  0  0  0  0  0  0  0  0  0
   59.2130   31.8650   47.6290 N   0  0  0  0  0  0  0  0  0  0  0  0
   58.4830   30.8920   46.8290 C   0  0  0  0  0  0  0  0  0  0  0  0
   56.6360   28.5950   45.4150 N   0  0  0  0  0  0  0  0  0  0  0  0
   54.7050   23.8470   45.9700 N   0  0  0  0  0  0  0  0  0  0  0  0
   55.7810   23.2370   45.2440 C   0  0  0  0  0  0  0  0  0  0  0  0
   55.6270   23.0100   43.8680 C   0  0  0  0  0  0  0  0  0  0  0  0
   54.4650   23.3360   43.2490 F   0  0  0  0  0  0  0  0  0  0  0  0
   56.6640   22.4350   43.1290 C   0  0  0  0  0  0  0  0  0  0  0  0
   57.8660   22.0970   43.7530 C   0  0  0  0  0  0  0  0  0  0  0  0
   58.0420   22.3500   45.1150 C   0  0  0  0  0  0  0  0  0  0  0  0
   57.0110   22.9290   45.8610 C   0  0  0  0  0  0  0  0  0  0  0  0
   57.2370   23.2370   47.1600 F   0  0  0  0  0  0  0  0  0  0  0  0
  1  2  2  0
  2  3  1  0
  3  4  1  0
  4  5  1  0
  5  6  2  0
  6  7  1  0
  7  8  2  0
  8  9  1  0
  9 10  1  0
 10 11  1  0
 11 12  2  0
 12 13  1  0
 13 14  2  0
 13 15  1  0
 12 16  1  0
 16 17  1  0
 17 18  2  0
 17 19  1  0
 19 20  2  0
 20 21  1  0
 21 22  2  0
 21 23  1  0
 23 24  1  0
  9 25  2  0
  2 26  1  0
 26 27  1  0
 27 28  2  0
 28 29  1  0
 28 30  1  0
 30 31  2  0
 31 32  1  0
 32 33  2  0
 33 34  1  0
 25  5  1  0
 33 27  1  0
 24 11  1  0
 23 16  1  0
M  CHG  3   3  -1  15  -1  26  -1
M  END
>  <UniqueID>  (2783) 
76

>  <SMILES>  (2783) 
O=C([N-]Cc1cccc(SC2=C(C(=O)[O-])n3c(=O)ccc(=O)n3C2)n1)[N-]c1c(F)cccc1F

>  <Energy>  (2783) 
78.38909412739162

>  <Genealogy>  (2783) 
O=C([N-]Cc1cccc(SC2=C(C(=O)[O-])n3c(=O)ccc(=O)n3C2)n1)[N-]c1c(F)cccc1F (protonated)
O=C([N-]Cc1cccc(SC2=C(C(=O)[O-])n3c(=O)ccc(=O)n3C2)n1)[N-]c1c(F)cccc1F (3D coordinates assigned)
O=C([N-]Cc1cccc(SC2=C(C(=O)[O-])n3c(=O)ccc(=O)n3C2)n1)[N-]c1c(F)cccc1F (nonaromatic ring conformer: 78.38909412739162 kcal/mol)

>  <smiles>  (2783) 
O=C(NCc1cccc(SC2=C(C(=O)O)n3c(=O)ccc(=O)n3C2)n1)Nc1c(F)cccc1F

>  <score_type>  (2783) 
oracle

>  <origin>  (2783) 
adg

>  <m_score__min__energy>  (2783) 
-14.279999999999999

>  <m_primary>  (2783) 
energy

$$$$
84:0
     RDKit          3D

 25 27  0  0  0  0  0  0  0  0999 V2000
   55.2570   26.6170   46.1270 N   0  0  0  0  0  0  0  0  0  0  0  0
   56.8770   26.0290   46.2470 S   0  0  0  0  0  0  0  0  0  0  0  0
   57.1860   25.1880   45.0400 O   0  0  0  0  0  0  0  0  0  0  0  0
   57.0220   25.1850   47.4840 O   0  0  0  0  0  0  0  0  0  0  0  0
   57.9900   27.3900   46.3220 C   0  0  0  0  0  0  0  0  0  0  0  0
   58.1420   28.1100   47.5190 C   0  0  0  0  0  0  0  0  0  0  0  0
   59.0100   29.2050   47.5760 C   0  0  0  0  0  0  0  0  0  0  0  0
   59.7290   29.6020   46.4320 C   0  0  0  0  0  0  0  0  0  0  0  0
   60.6130   30.8200   46.4850 C   0  0  0  0  0  0  0  0  0  0  0  0
   59.8440   32.0430   46.1970 N   0  0  0  0  0  0  0  0  0  0  0  0
   58.4050   31.9590   46.2090 C   0  0  0  0  0  0  0  0  0  0  0  0
   57.7730   32.2910   47.2470 O   0  0  0  0  0  0  0  0  0  0  0  0
   57.6520   31.4460   45.0460 C   0  0  0  0  0  0  0  0  0  0  0  0
   57.9050   31.9070   43.7440 C   0  0  0  0  0  0  0  0  0  0  0  0
   57.1620   31.3680   42.6910 C   0  0  0  0  0  0  0  0  0  0  0  0
   57.3650   31.7580   41.5110 O   0  0  0  0  0  0  0  0  0  0  0  0
   56.2200   30.4200   42.9420 N   0  0  0  0  0  0  0  0  0  0  0  0
   55.9750   29.9920   44.2100 C   0  0  0  0  0  0  0  0  0  0  0  0
   55.0950   29.1140   44.4230 O   0  0  0  0  0  0  0  0  0  0  0  0
   56.6840   30.5070   45.2460 N   0  0  0  0  0  0  0  0  0  0  0  0
   60.4350   33.3980   46.2230 C   0  0  0  0  0  0  0  0  0  0  0  0
   59.9280   34.1920   47.4250 C   0  0  0  0  0  0  0  0  0  0  0  0
   59.5200   34.6050   46.0140 C   0  0  0  0  0  0  0  0  0  0  0  0
   59.6000   28.8620   45.2440 C   0  0  0  0  0  0  0  0  0  0  0  0
   58.7360   27.7620   45.1900 C   0  0  0  0  0  0  0  0  0  0  0  0
  1  2  1  0
  2  3  2  0
  2  4  2  0
  2  5  1  0
  5  6  2  0
  6  7  1  0
  7  8  2  0
  8  9  1  0
  9 10  1  0
 10 11  1  0
 11 12  2  0
 11 13  1  0
 13 14  2  0
 14 15  1  0
 15 16  2  0
 15 17  1  0
 17 18  1  0
 18 19  2  0
 18 20  1  0
 10 21  1  0
 21 22  1  0
 22 23  1  0
  8 24  1  0
 24 25  2  0
 25  5  1  0
 20 13  1  0
 23 21  1  0
M  CHG  3   1  -1  17  -1  20  -1
M  END
>  <UniqueID>  (2784) 
79

>  <SMILES>  (2784) 
[NH-]S(=O)(=O)c1ccc(CN(C(=O)c2cc(=O)[n-]c(=O)[n-]2)C2CC2)cc1

>  <Energy>  (2784) 
312.3725322945818

>  <Genealogy>  (2784) 
[NH-]S(=O)(=O)c1ccc(CN(C(=O)c2cc(=O)[n-]c(=O)[n-]2)C2CC2)cc1 (protonated)
[NH-]S(=O)(=O)c1ccc(CN(C(=O)c2cc(=O)[n-]c(=O)[n-]2)C2CC2)cc1 (3D coordinates assigned)
[NH-]S(=O)(=O)c1ccc(CN(C(=O)c2cc(=O)[n-]c(=O)[n-]2)C2CC2)cc1 (nonaromatic ring conformer: 312.3725322945818 kcal/mol)

>  <smiles>  (2784) 
NS(=O)(=O)c1ccc(CN(C(=O)c2cc(=O)[nH]c(=O)[nH]2)C2CC2)cc1

>  <score_type>  (2784) 
oracle

>  <origin>  (2784) 
adg

>  <m_score__min__energy>  (2784) 
-14.32

>  <m_primary>  (2784) 
energy

$$$$
0:0
     RDKit          3D

 26 28  0  0  0  0  0  0  0  0999 V2000
   57.0490   31.7680   51.9380 C   0  0  0  0  0  0  0  0  0  0  0  0
   55.9790   31.0150   52.1990 C   0  0  0  0  0  0  0  0  0  0  0  0
   55.9680   29.7680   52.8130 C   0  0  0  0  0  0  0  0  0  0  0  0
   57.1280   28.9630   53.3440 C   0  0  0  0  0  0  0  0  0  0  0  0
   58.3320   29.8250   53.7040 C   0  0  0  0  0  0  0  0  0  0  0  0
   58.3780   30.5610   54.9180 C   0  0  0  0  0  0  0  0  0  0  0  0
   57.2830   30.5070   55.9440 C   0  0  0  0  0  0  0  0  0  0  0  0
   59.4600   31.3350   55.1930 N   0  0  0  0  0  0  0  0  0  0  0  0
   60.5210   31.4170   54.3520 C   0  0  0  0  0  0  0  0  0  0  0  0
   61.6440   32.2590   54.6750 N   0  0  0  0  0  0  0  0  0  0  0  0
   62.0090   33.3620   53.7800 C   0  0  0  0  0  0  0  0  0  0  0  0
   62.4110   32.0070   55.8990 C   0  0  0  0  0  0  0  0  0  0  0  0
   60.5200   30.6840   53.2100 N   0  0  0  0  0  0  0  0  0  0  0  0
   59.4790   29.8800   52.8710 C   0  0  0  0  0  0  0  0  0  0  0  0
   59.5960   29.0980   51.5940 C   0  0  0  0  0  0  0  0  0  0  0  0
   54.6390   29.3880   52.8960 C   0  0  0  0  0  0  0  0  0  0  0  0
   53.8980   30.4100   52.3140 C   0  0  0  0  0  0  0  0  0  0  0  0
   52.5640   30.4720   52.1500 C   0  0  0  0  0  0  0  0  0  0  0  0
   51.8570   30.8510   50.9070 C   0  0  0  0  0  0  0  0  0  0  0  0
   51.7490   30.1000   49.7960 N   0  0  0  0  0  0  0  0  0  0  0  0
   51.0080   30.8650   48.9660 C   0  0  0  0  0  0  0  0  0  0  0  0
   50.6920   30.4950   47.8060 O   0  0  0  0  0  0  0  0  0  0  0  0
   50.6330   32.0550   49.4780 N   0  0  0  0  0  0  0  0  0  0  0  0
   51.1760   32.0290   50.7060 C   0  0  0  0  0  0  0  0  0  0  0  0
   51.0530   33.0640   51.6260 O   0  0  0  0  0  0  0  0  0  0  0  0
   54.7230   31.3920   51.8940 N   0  0  0  0  0  0  0  0  0  0  0  0
  1  2  2  0
  2  3  1  0
  3  4  1  0
  4  5  1  0
  5  6  2  0
  6  7  1  0
  6  8  1  0
  8  9  2  0
  9 10  1  0
 10 11  1  0
 10 12  1  0
  9 13  1  0
 13 14  2  0
 14 15  1  0
  3 16  2  0
 16 17  1  0
 17 18  2  0
 18 19  1  0
 19 20  1  0
 20 21  1  0
 21 22  2  0
 21 23  1  0
 23 24  1  0
 24 25  1  0
 17 26  1  0
 26  2  1  0
 14  5  1  0
 24 19  2  0
M  CHG  3  20  -1  23  -1  25  -1
M  END
>  <UniqueID>  (2785) 
1

>  <SMILES>  (2785) 
C=c1[nH]/c(=C/c2[n-]c(=O)[n-]c2[O-])cc1Cc1c(C)nc(N(C)C)nc1C

>  <Energy>  (2785) 
104.4417817120618

>  <Genealogy>  (2785) 
C=c1[nH]c(=Cc2[n-]c(=O)[n-]c2[O-])cc1Cc1c(C)nc(N(C)C)nc1C (protonated)
C=c1[nH]/c(=C/c2[n-]c(=O)[n-]c2[O-])cc1Cc1c(C)nc(N(C)C)nc1C (cis-trans isomerization)
C=c1[nH]/c(=C/c2[n-]c(=O)[n-]c2[O-])cc1Cc1c(C)nc(N(C)C)nc1C (3D coordinates assigned)
C=c1[nH]/c(=C/c2[n-]c(=O)[n-]c2[O-])cc1Cc1c(C)nc(N(C)C)nc1C (optimized conformer: 104.4417817120618 kcal/mol)

>  <smiles>  (2785) 
C=c1[nH]c(=Cc2[nH]c(=O)[nH]c2O)cc1Cc1c(C)nc(N(C)C)nc1C

>  <score_type>  (2785) 
oracle

>  <origin>  (2785) 
adg

>  <m_score__min__energy>  (2785) 
-16.710000000000001

>  <m_primary>  (2785) 
energy

$$$$
7:0
     RDKit          3D

 30 32  0  0  0  0  0  0  0  0999 V2000
   52.8580   28.3660   53.3060 C   0  0  0  0  0  0  0  0  0  0  0  0
   53.9800   29.0860   53.1340 C   0  0  0  0  0  0  0  0  0  0  0  0
   54.0550   30.4320   52.7470 C   0  0  0  0  0  0  0  0  0  0  0  0
   53.0180   31.2570   52.4870 C   0  0  0  0  0  0  0  0  0  0  0  0
   52.2390   31.2990   51.2280 C   0  0  0  0  0  0  0  0  0  0  0  0
   52.2540   30.3700   50.2560 N   0  0  0  0  0  0  0  0  0  0  0  0
   51.3600   30.8360   49.3570 C   0  0  0  0  0  0  0  0  0  0  0  0
   51.0990   30.2310   48.2850 O   0  0  0  0  0  0  0  0  0  0  0  0
   50.7720   32.0020   49.6970 N   0  0  0  0  0  0  0  0  0  0  0  0
   51.3350   32.2780   50.8850 C   0  0  0  0  0  0  0  0  0  0  0  0
   51.0260   33.4020   51.6410 O   0  0  0  0  0  0  0  0  0  0  0  0
   55.4080   30.7420   52.7080 C   0  0  0  0  0  0  0  0  0  0  0  0
   56.0930   29.5920   53.0470 C   0  0  0  0  0  0  0  0  0  0  0  0
   57.5640   29.5010   53.1080 C   0  0  0  0  0  0  0  0  0  0  0  0
   58.1010   29.1890   54.2050 O   0  0  0  0  0  0  0  0  0  0  0  0
   58.3890   29.7760   51.9600 N   0  0  0  0  0  0  0  0  0  0  0  0
   58.0140   30.8190   50.9930 C   0  0  0  0  0  0  0  0  0  0  0  0
   58.2970   30.3420   49.5630 C   0  0  0  0  0  0  0  0  0  0  0  0
   59.7210   29.7350   49.3730 C   0  0  0  0  0  0  0  0  0  0  0  0
   59.6680   28.3290   48.7220 C   0  0  0  0  0  0  0  0  0  0  0  0
   59.9920   28.3150   47.2150 C   0  0  0  0  0  0  0  0  0  0  0  0
   58.7870   27.9290   46.3250 C   0  0  0  0  0  0  0  0  0  0  0  0
   58.5380   28.9170   45.1740 C   0  0  0  0  0  0  0  0  0  0  0  0
   57.1110   29.3740   45.1280 C   0  0  0  0  0  0  0  0  0  0  0  0
   56.0540   28.4210   45.2240 N   0  0  0  0  0  0  0  0  0  0  0  0
   56.8410   30.5970   44.9960 O   0  0  0  0  0  0  0  0  0  0  0  0
   60.5280   29.6950   50.6920 C   0  0  0  0  0  0  0  0  0  0  0  0
   59.7080   29.1310   51.8590 C   0  0  0  0  0  0  0  0  0  0  0  0
   55.2280   28.5880   53.3190 N   0  0  0  0  0  0  0  0  0  0  0  0
   55.5620   27.2540   53.8300 C   0  0  0  0  0  0  0  0  0  0  0  0
  1  2  2  0
  2  3  1  0
  3  4  2  3
  4  5  1  0
  5  6  1  0
  6  7  1  0
  7  8  2  0
  7  9  1  0
  9 10  1  0
 10 11  1  0
  3 12  1  0
 12 13  2  0
 13 14  1  0
 14 15  2  0
 14 16  1  0
 16 17  1  0
 17 18  1  0
 18 19  1  0
 19 20  1  0
 20 21  1  0
 21 22  1  0
 22 23  1  0
 23 24  1  0
 24 25  1  0
 24 26  2  0
 19 27  1  0
 27 28  1  0
 13 29  1  0
 29 30  1  0
 29  2  1  0
 10  5  2  0
 28 16  1  0
M  CHG  4   6  -1   9  -1  11  -1  25  -1
M  END
>  <UniqueID>  (2786) 
7

>  <SMILES>  (2786) 
C=c1c(=Cc2[n-]c(=O)[n-]c2[O-])cc(C(=O)N2CCC(CCCCC([NH-])=O)CC2)n1C

>  <Energy>  (2786) 
121.77759427626503

>  <Genealogy>  (2786) 
C=c1c(=Cc2[n-]c(=O)[n-]c2[O-])cc(C(=O)N2CCC(CCCCC([NH-])=O)CC2)n1C (protonated)
C=c1c(=Cc2[n-]c(=O)[n-]c2[O-])cc(C(=O)N2CCC(CCCCC([NH-])=O)CC2)n1C (3D coordinates assigned)
C=c1c(=Cc2[n-]c(=O)[n-]c2[O-])cc(C(=O)N2CCC(CCCCC([NH-])=O)CC2)n1C (nonaromatic ring conformer: 121.77759427626503 kcal/mol)

>  <smiles>  (2786) 
C=c1c(=Cc2[nH]c(=O)[nH]c2O)cc(C(=O)N2CCC(CCCCC(N)=O)CC2)n1C

>  <score_type>  (2786) 
oracle

>  <origin>  (2786) 
adg

>  <m_score__min__energy>  (2786) 
-20.73

>  <m_primary>  (2786) 
energy

$$$$
8:0
     RDKit          3D

 27 30  0  0  0  0  0  0  0  0999 V2000
   56.4750   28.3110   53.6530 C   0  0  0  0  0  0  0  0  0  0  0  0
   55.8590   29.3490   53.0790 C   0  0  0  0  0  0  0  0  0  0  0  0
   54.5330   29.5610   53.1890 N   0  0  0  0  0  0  0  0  0  0  0  0
   54.2520   30.7000   52.5220 C   0  0  0  0  0  0  0  0  0  0  0  0
   53.0020   31.1870   52.4290 C   0  0  0  0  0  0  0  0  0  0  0  0
   52.1770   31.2340   51.2010 C   0  0  0  0  0  0  0  0  0  0  0  0
   52.1900   30.3310   50.2050 N   0  0  0  0  0  0  0  0  0  0  0  0
   51.3070   30.8310   49.3130 C   0  0  0  0  0  0  0  0  0  0  0  0
   51.0280   30.2480   48.2330 O   0  0  0  0  0  0  0  0  0  0  0  0
   50.7430   32.0050   49.6730 N   0  0  0  0  0  0  0  0  0  0  0  0
   51.3030   32.2440   50.8690 C   0  0  0  0  0  0  0  0  0  0  0  0
   51.0250   33.3680   51.6390 O   0  0  0  0  0  0  0  0  0  0  0  0
   55.4160   31.2240   51.9720 C   0  0  0  0  0  0  0  0  0  0  0  0
   56.4430   30.3630   52.3250 C   0  0  0  0  0  0  0  0  0  0  0  0
   57.8590   30.4970   51.9040 C   0  0  0  0  0  0  0  0  0  0  0  0
   58.7750   30.2100   52.7250 O   0  0  0  0  0  0  0  0  0  0  0  0
   58.1990   30.8560   50.5400 N   0  0  0  0  0  0  0  0  0  0  0  0
   58.2690   32.3290   50.4030 C   0  0  0  0  0  0  0  0  0  0  0  0
   58.8740   32.7370   49.0560 C   0  0  0  0  0  0  0  0  0  0  0  0
   60.2020   32.1340   48.8810 N   0  0  0  0  0  0  0  0  0  0  0  0
   61.0990   32.6760   47.8830 C   0  0  0  0  0  0  0  0  0  0  0  0
   60.7100   33.6190   47.1390 O   0  0  0  0  0  0  0  0  0  0  0  0
   62.5110   32.1700   47.7380 C   0  0  0  0  0  0  0  0  0  0  0  0
   63.4420   33.1450   47.0310 C   0  0  0  0  0  0  0  0  0  0  0  0
   63.5810   32.9160   48.5270 C   0  0  0  0  0  0  0  0  0  0  0  0
   60.6190   31.0610   49.7960 C   0  0  0  0  0  0  0  0  0  0  0  0
   59.4310   30.1340   50.0990 C   0  0  0  0  0  0  0  0  0  0  0  0
  1  2  2  0
  2  3  1  0
  3  4  1  0
  4  5  2  3
  5  6  1  0
  6  7  1  0
  7  8  1  0
  8  9  2  0
  8 10  1  0
 10 11  1  0
 11 12  1  0
  4 13  1  0
 13 14  2  0
 14 15  1  0
 15 16  2  0
 15 17  1  0
 17 18  1  0
 18 19  1  0
 19 20  1  0
 20 21  1  0
 21 22  2  0
 21 23  1  0
 23 24  1  0
 24 25  1  0
 20 26  1  0
 26 27  1  0
 14  2  1  0
 27 17  1  0
 11  6  2  0
 25 23  1  0
M  CHG  4   7  -1  10  -1  12  -1  17   1
M  END
>  <UniqueID>  (2787) 
8

>  <SMILES>  (2787) 
C=c1[nH]c(=Cc2[n-]c(=O)[n-]c2[O-])cc1C(=O)[NH+]1CCN(C(=O)C2CC2)CC1

>  <Energy>  (2787) 
382.1229348964994

>  <Genealogy>  (2787) 
C=c1[nH]c(=Cc2[n-]c(=O)[n-]c2[O-])cc1C(=O)[NH+]1CCN(C(=O)C2CC2)CC1 (protonated)
C=c1[nH]c(=Cc2[n-]c(=O)[n-]c2[O-])cc1C(=O)[NH+]1CCN(C(=O)C2CC2)CC1 (3D coordinates assigned)
C=c1[nH]c(=Cc2[n-]c(=O)[n-]c2[O-])cc1C(=O)[NH+]1CCN(C(=O)C2CC2)CC1 (nonaromatic ring conformer: 382.1229348964994 kcal/mol)

>  <smiles>  (2787) 
C=c1[nH]c(=Cc2[nH]c(=O)[nH]c2O)cc1C(=O)N1CCN(C(=O)C2CC2)CC1

>  <score_type>  (2787) 
oracle

>  <origin>  (2787) 
adg

>  <m_score__min__energy>  (2787) 
-16.32

>  <m_primary>  (2787) 
energy

$$$$
18:0
     RDKit          3D

 33 36  0  0  0  0  0  0  0  0999 V2000
   54.1720   28.1040   53.1120 C   0  0  0  0  0  0  0  0  0  0  0  0
   54.6550   29.2890   52.7070 C   0  0  0  0  0  0  0  0  0  0  0  0
   53.9020   30.3950   52.2960 C   0  0  0  0  0  0  0  0  0  0  0  0
   52.5600   30.4970   52.2390 C   0  0  0  0  0  0  0  0  0  0  0  0
   51.8150   30.8640   51.0210 C   0  0  0  0  0  0  0  0  0  0  0  0
   51.7970   30.1070   49.9110 N   0  0  0  0  0  0  0  0  0  0  0  0
   51.0800   30.8460   49.0380 C   0  0  0  0  0  0  0  0  0  0  0  0
   50.8330   30.4590   47.8660 O   0  0  0  0  0  0  0  0  0  0  0  0
   50.6610   32.0380   49.5140 N   0  0  0  0  0  0  0  0  0  0  0  0
   51.1450   32.0400   50.7660 C   0  0  0  0  0  0  0  0  0  0  0  0
   51.0180   33.1170   51.6360 O   0  0  0  0  0  0  0  0  0  0  0  0
   54.8160   31.4010   52.0100 C   0  0  0  0  0  0  0  0  0  0  0  0
   56.0680   30.8690   52.2290 C   0  0  0  0  0  0  0  0  0  0  0  0
   57.3220   31.6140   52.0400 C   0  0  0  0  0  0  0  0  0  0  0  0
   57.2750   32.8510   51.8160 O   0  0  0  0  0  0  0  0  0  0  0  0
   58.5930   30.9620   52.1220 N   0  0  0  0  0  0  0  0  0  0  0  0
   59.7280   31.2760   51.2560 C   0  0  0  0  0  0  0  0  0  0  0  0
   59.4640   30.7860   49.8430 C   0  0  0  0  0  0  0  0  0  0  0  0
   59.4090   29.3950   49.6340 C   0  0  0  0  0  0  0  0  0  0  0  0
   59.2110   28.8690   48.3610 C   0  0  0  0  0  0  0  0  0  0  0  0
   59.0530   29.7210   47.2750 C   0  0  0  0  0  0  0  0  0  0  0  0
   59.0700   31.1030   47.4560 C   0  0  0  0  0  0  0  0  0  0  0  0
   59.2530   31.6670   48.7420 C   0  0  0  0  0  0  0  0  0  0  0  0
   59.2600   33.1770   48.9490 C   0  0  0  0  0  0  0  0  0  0  0  0
   60.2440   33.9730   48.0740 C   0  0  0  0  0  0  0  0  0  0  0  0
   61.5220   33.2410   47.9360 N   0  0  0  0  0  0  0  0  0  0  0  0
   62.3860   33.8510   46.9060 C   0  0  0  0  0  0  0  0  0  0  0  0
   63.6890   33.0380   46.7550 C   0  0  0  0  0  0  0  0  0  0  0  0
   63.8490   32.0760   47.7840 O   0  0  0  0  0  0  0  0  0  0  0  0
   63.6860   32.6950   49.0450 C   0  0  0  0  0  0  0  0  0  0  0  0
   62.2390   33.1970   49.2270 C   0  0  0  0  0  0  0  0  0  0  0  0
   55.9780   29.5860   52.6480 N   0  0  0  0  0  0  0  0  0  0  0  0
   57.0920   28.7120   53.0260 C   0  0  0  0  0  0  0  0  0  0  0  0
  1  2  2  0
  2  3  1  0
  3  4  2  0
  4  5  1  0
  5  6  1  0
  6  7  1  0
  7  8  2  0
  7  9  1  0
  9 10  1  0
 10 11  1  0
  3 12  1  0
 12 13  2  0
 13 14  1  0
 14 15  2  0
 14 16  1  0
 16 17  1  0
 17 18  1  0
 18 19  2  0
 19 20  1  0
 20 21  2  0
 21 22  1  0
 22 23  2  0
 23 24  1  0
 24 25  1  0
 25 26  1  0
 26 27  1  0
 27 28  1  0
 28 29  1  0
 29 30  1  0
 30 31  1  0
 13 32  1  0
 32 33  1  0
 32  2  1  0
 10  5  2  0
 23 18  1  0
 31 26  1  0
M  CHG  4   6  -1   9  -1  11  -1  16  -1
M  END
>  <UniqueID>  (2788) 
17

>  <SMILES>  (2788) 
C=c1/c(=C/c2[n-]c(=O)[n-]c2[O-])cc(C(=O)[N-]Cc2ccccc2CCN2CCOCC2)n1C

>  <Energy>  (2788) 
139.6199834545449

>  <Genealogy>  (2788) 
C=c1c(=Cc2[n-]c(=O)[n-]c2[O-])cc(C(=O)[N-]Cc2ccccc2CCN2CCOCC2)n1C (protonated)
C=c1/c(=C/c2[n-]c(=O)[n-]c2[O-])cc(C(=O)[N-]Cc2ccccc2CCN2CCOCC2)n1C (cis-trans isomerization)
C=c1/c(=C/c2[n-]c(=O)[n-]c2[O-])cc(C(=O)[N-]Cc2ccccc2CCN2CCOCC2)n1C (3D coordinates assigned)
C=c1/c(=C/c2[n-]c(=O)[n-]c2[O-])cc(C(=O)[N-]Cc2ccccc2CCN2CCOCC2)n1C (nonaromatic ring conformer: 139.6199834545449 kcal/mol)

>  <smiles>  (2788) 
C=c1c(=Cc2[nH]c(=O)[nH]c2O)cc(C(=O)NCc2ccccc2CCN2CCOCC2)n1C

>  <score_type>  (2788) 
oracle

>  <origin>  (2788) 
adg

>  <m_score__min__energy>  (2788) 
-20.66

>  <m_primary>  (2788) 
energy

$$$$
31:0
     RDKit          3D

 30 33  0  0  0  0  0  0  0  0999 V2000
   60.4000   27.3830   48.0350 C   0  0  0  0  0  0  0  0  0  0  0  0
   59.6920   28.4730   47.6980 C   0  0  0  0  0  0  0  0  0  0  0  0
   58.8790   28.6310   46.5650 C   0  0  0  0  0  0  0  0  0  0  0  0
   58.4310   27.7320   45.6660 C   0  0  0  0  0  0  0  0  0  0  0  0
   57.2250   26.9030   45.8170 C   0  0  0  0  0  0  0  0  0  0  0  0
   57.2150   25.6480   46.3040 N   0  0  0  0  0  0  0  0  0  0  0  0
   55.8990   25.3570   46.3840 C   0  0  0  0  0  0  0  0  0  0  0  0
   55.4760   24.2420   46.7880 O   0  0  0  0  0  0  0  0  0  0  0  0
   55.0720   26.3520   45.9990 N   0  0  0  0  0  0  0  0  0  0  0  0
   55.9290   27.3290   45.6580 C   0  0  0  0  0  0  0  0  0  0  0  0
   55.5330   28.5860   45.2220 O   0  0  0  0  0  0  0  0  0  0  0  0
   58.5160   29.9660   46.5310 C   0  0  0  0  0  0  0  0  0  0  0  0
   59.0580   30.5560   47.6510 C   0  0  0  0  0  0  0  0  0  0  0  0
   58.8190   31.9610   48.0330 C   0  0  0  0  0  0  0  0  0  0  0  0
   58.3220   32.2040   49.1660 O   0  0  0  0  0  0  0  0  0  0  0  0
   59.0990   33.0440   47.1280 N   0  0  0  0  0  0  0  0  0  0  0  0
   59.6790   34.2870   47.6470 C   0  0  0  0  0  0  0  0  0  0  0  0
   59.2970   35.4660   46.7450 C   0  0  0  0  0  0  0  0  0  0  0  0
   59.5820   35.1790   45.3900 O   0  0  0  0  0  0  0  0  0  0  0  0
   58.7510   34.1230   44.9470 C   0  0  0  0  0  0  0  0  0  0  0  0
   59.0930   32.8220   45.6770 C   0  0  0  0  0  0  0  0  0  0  0  0
   59.7680   29.6530   48.3710 N   0  0  0  0  0  0  0  0  0  0  0  0
   60.3250   29.8670   49.7180 C   0  0  0  0  0  0  0  0  0  0  0  0
   61.8260   30.1440   49.6420 C   0  0  0  0  0  0  0  0  0  0  0  0
   62.0480   31.4700   49.0240 N   0  0  0  0  0  0  0  0  0  0  0  0
   62.9060   32.3340   49.8510 C   0  0  0  0  0  0  0  0  0  0  0  0
   62.9980   33.7410   49.2220 C   0  0  0  0  0  0  0  0  0  0  0  0
   62.4700   33.7850   47.9060 O   0  0  0  0  0  0  0  0  0  0  0  0
   63.0300   32.7450   47.1290 C   0  0  0  0  0  0  0  0  0  0  0  0
   62.5750   31.3670   47.6490 C   0  0  0  0  0  0  0  0  0  0  0  0
  1  2  2  0
  2  3  1  0
  3  4  2  3
  4  5  1  0
  5  6  1  0
  6  7  1  0
  7  8  2  0
  7  9  1  0
  9 10  1  0
 10 11  1  0
  3 12  1  0
 12 13  2  0
 13 14  1  0
 14 15  2  0
 14 16  1  0
 16 17  1  0
 17 18  1  0
 18 19  1  0
 19 20  1  0
 20 21  1  0
 13 22  1  0
 22 23  1  0
 23 24  1  0
 24 25  1  0
 25 26  1  0
 26 27  1  0
 27 28  1  0
 28 29  1  0
 29 30  1  0
 22  2  1  0
 30 25  1  0
 10  5  2  0
 21 16  1  0
M  CHG  3   6  -1   9  -1  11  -1
M  END
>  <UniqueID>  (2789) 
30

>  <SMILES>  (2789) 
C=c1c(=Cc2[n-]c(=O)[n-]c2[O-])cc(C(=O)N2CCOCC2)n1CCN1CCOCC1

>  <Energy>  (2789) 
139.76001380843164

>  <Genealogy>  (2789) 
C=c1c(=Cc2[n-]c(=O)[n-]c2[O-])cc(C(=O)N2CCOCC2)n1CCN1CCOCC1 (protonated)
C=c1c(=Cc2[n-]c(=O)[n-]c2[O-])cc(C(=O)N2CCOCC2)n1CCN1CCOCC1 (3D coordinates assigned)
C=c1c(=Cc2[n-]c(=O)[n-]c2[O-])cc(C(=O)N2CCOCC2)n1CCN1CCOCC1 (nonaromatic ring conformer: 139.76001380843164 kcal/mol)

>  <smiles>  (2789) 
C=c1c(=Cc2[nH]c(=O)[nH]c2O)cc(C(=O)N2CCOCC2)n1CCN1CCOCC1

>  <score_type>  (2789) 
oracle

>  <origin>  (2789) 
adg

>  <m_score__min__energy>  (2789) 
-16.280000000000001

>  <m_primary>  (2789) 
energy

$$$$
38:0
     RDKit          3D

 27 29  0  0  0  0  0  0  0  0999 V2000
   56.8400   29.4040   43.6810 C   0  0  0  0  0  0  0  0  0  0  0  0
   57.4480   29.3920   44.8810 C   0  0  0  0  0  0  0  0  0  0  0  0
   58.0470   28.2830   45.4930 C   0  0  0  0  0  0  0  0  0  0  0  0
   58.0030   26.9700   45.1880 C   0  0  0  0  0  0  0  0  0  0  0  0
   57.3700   25.9180   45.9970 C   0  0  0  0  0  0  0  0  0  0  0  0
   58.0590   24.9540   46.6330 N   0  0  0  0  0  0  0  0  0  0  0  0
   57.1080   24.3040   47.3390 C   0  0  0  0  0  0  0  0  0  0  0  0
   57.3640   23.3080   48.0630 O   0  0  0  0  0  0  0  0  0  0  0  0
   55.8630   24.8130   47.2160 N   0  0  0  0  0  0  0  0  0  0  0  0
   56.0480   25.8430   46.3760 C   0  0  0  0  0  0  0  0  0  0  0  0
   55.0370   26.7120   45.9860 O   0  0  0  0  0  0  0  0  0  0  0  0
   58.7560   28.7730   46.5690 C   0  0  0  0  0  0  0  0  0  0  0  0
   58.5200   30.1340   46.6360 C   0  0  0  0  0  0  0  0  0  0  0  0
   59.1050   31.0220   47.6830 C   0  0  0  0  0  0  0  0  0  0  0  0
   58.5170   31.1450   48.7910 O   0  0  0  0  0  0  0  0  0  0  0  0
   60.3360   31.7550   47.4280 N   0  0  0  0  0  0  0  0  0  0  0  0
   60.4710   32.8650   48.3950 C   0  0  0  0  0  0  0  0  0  0  0  0
   61.8820   33.4880   48.3500 C   0  0  0  0  0  0  0  0  0  0  0  0
   62.5720   33.0990   47.1800 O   0  0  0  0  0  0  0  0  0  0  0  0
   62.8140   31.7030   47.2060 C   0  0  0  0  0  0  0  0  0  0  0  0
   61.5300   30.8860   47.4840 C   0  0  0  0  0  0  0  0  0  0  0  0
   57.7050   30.5150   45.6120 N   0  0  0  0  0  0  0  0  0  0  0  0
   57.3210   31.8910   45.2430 C   0  0  0  0  0  0  0  0  0  0  0  0
   58.5430   32.7030   44.7960 C   0  0  0  0  0  0  0  0  0  0  0  0
   58.9160   33.6920   45.8300 N   0  0  0  0  0  0  0  0  0  0  0  0
   59.3090   34.9700   45.2120 C   0  0  0  0  0  0  0  0  0  0  0  0
   57.8060   33.9170   46.7710 C   0  0  0  0  0  0  0  0  0  0  0  0
  1  2  2  0
  2  3  1  0
  3  4  2  0
  4  5  1  0
  5  6  1  0
  6  7  1  0
  7  8  2  0
  7  9  1  0
  9 10  1  0
 10 11  1  0
  3 12  1  0
 12 13  2  0
 13 14  1  0
 14 15  2  0
 14 16  1  0
 16 17  1  0
 17 18  1  0
 18 19  1  0
 19 20  1  0
 20 21  1  0
 13 22  1  0
 22 23  1  0
 23 24  1  0
 24 25  1  0
 25 26  1  0
 25 27  1  0
 22  2  1  0
 10  5  2  0
 21 16  1  0
M  CHG  4   6  -1   9  -1  11  -1  16   1
M  END
>  <UniqueID>  (2790) 
36

>  <SMILES>  (2790) 
C=c1/c(=C\c2[n-]c(=O)[n-]c2[O-])cc(C(=O)[NH+]2CCOCC2)n1CCN(C)C

>  <Energy>  (2790) 
134.38485142284276

>  <Genealogy>  (2790) 
C=c1c(=Cc2[n-]c(=O)[n-]c2[O-])cc(C(=O)[NH+]2CCOCC2)n1CCN(C)C (protonated)
C=c1/c(=C\c2[n-]c(=O)[n-]c2[O-])cc(C(=O)[NH+]2CCOCC2)n1CCN(C)C (cis-trans isomerization)
C=c1/c(=C\c2[n-]c(=O)[n-]c2[O-])cc(C(=O)[NH+]2CCOCC2)n1CCN(C)C (3D coordinates assigned)
C=c1/c(=C\c2[n-]c(=O)[n-]c2[O-])cc(C(=O)[NH+]2CCOCC2)n1CCN(C)C (nonaromatic ring conformer: 134.38485142284276 kcal/mol)

>  <smiles>  (2790) 
C=c1c(=Cc2[nH]c(=O)[nH]c2O)cc(C(=O)N2CCOCC2)n1CCN(C)C

>  <score_type>  (2790) 
oracle

>  <origin>  (2790) 
adg

>  <m_score__min__energy>  (2790) 
-14.82

>  <m_primary>  (2790) 
energy

$$$$
43:0
     RDKit          3D

 36 39  0  0  0  0  0  0  0  0999 V2000
   51.4390   32.2460   51.2160 N   0  0  0  0  0  0  0  0  0  0  0  0
   51.8090   30.5610   51.3130 S   0  0  0  0  0  0  0  0  0  0  0  0
   50.8360   29.8850   52.2410 O   0  0  0  0  0  0  0  0  0  0  0  0
   51.6850   29.9390   49.9500 O   0  0  0  0  0  0  0  0  0  0  0  0
   53.4520   30.3570   51.9180 C   0  0  0  0  0  0  0  0  0  0  0  0
   53.8820   29.1070   52.3820 C   0  0  0  0  0  0  0  0  0  0  0  0
   55.1920   28.9420   52.8400 C   0  0  0  0  0  0  0  0  0  0  0  0
   56.0800   30.0240   52.8360 C   0  0  0  0  0  0  0  0  0  0  0  0
   55.6600   31.2800   52.3740 C   0  0  0  0  0  0  0  0  0  0  0  0
   56.6030   32.4560   52.3700 C   0  0  0  0  0  0  0  0  0  0  0  0
   57.9510   32.0330   51.9890 N   0  0  0  0  0  0  0  0  0  0  0  0
   58.5070   32.2790   50.8400 C   0  0  0  0  0  0  0  0  0  0  0  0
   58.3610   31.4210   49.7920 N   0  0  0  0  0  0  0  0  0  0  0  0
   58.9340   31.6650   48.5830 C   0  0  0  0  0  0  0  0  0  0  0  0
   58.7450   30.7270   47.5040 N   0  0  0  0  0  0  0  0  0  0  0  0
   58.8110   29.2740   47.7320 C   0  0  0  0  0  0  0  0  0  0  0  0
   59.6230   28.5690   46.6290 C   0  0  0  0  0  0  0  0  0  0  0  0
   59.4320   29.1690   45.2110 C   0  0  0  0  0  0  0  0  0  0  0  0
   59.2950   28.0980   44.2180 N   0  0  0  0  0  0  0  0  0  0  0  0
   58.1470   27.2330   44.1970 C   0  0  0  0  0  0  0  0  0  0  0  0
   57.3750   27.1960   45.1930 O   0  0  0  0  0  0  0  0  0  0  0  0
   57.8440   26.3590   43.0450 C   0  0  0  0  0  0  0  0  0  0  0  0
   57.3980   25.1010   43.1750 C   0  0  0  0  0  0  0  0  0  0  0  0
   57.0100   24.4890   44.4720 C   0  0  0  0  0  0  0  0  0  0  0  0
   55.6450   24.4200   44.7980 C   0  0  0  0  0  0  0  0  0  0  0  0
   55.2320   23.8720   46.0160 C   0  0  0  0  0  0  0  0  0  0  0  0
   56.1770   23.3910   46.9250 C   0  0  0  0  0  0  0  0  0  0  0  0
   55.7730   22.8640   48.1060 F   0  0  0  0  0  0  0  0  0  0  0  0
   57.5370   23.4660   46.6200 C   0  0  0  0  0  0  0  0  0  0  0  0
   57.9560   24.0150   45.4040 C   0  0  0  0  0  0  0  0  0  0  0  0
   58.2270   30.1210   45.1490 C   0  0  0  0  0  0  0  0  0  0  0  0
   58.4030   31.2480   46.1710 C   0  0  0  0  0  0  0  0  0  0  0  0
   59.7150   32.8210   48.4250 C   0  0  0  0  0  0  0  0  0  0  0  0
   59.8530   33.6910   49.5050 C   0  0  0  0  0  0  0  0  0  0  0  0
   59.2470   33.4070   50.6860 N   0  0  0  0  0  0  0  0  0  0  0  0
   54.3450   31.4370   51.9060 C   0  0  0  0  0  0  0  0  0  0  0  0
  1  2  1  0
  2  3  2  0
  2  4  2  0
  2  5  1  0
  5  6  2  0
  6  7  1  0
  7  8  2  0
  8  9  1  0
  9 10  1  0
 10 11  1  0
 11 12  2  3
 12 13  1  0
 13 14  2  0
 14 15  1  0
 15 16  1  0
 16 17  1  0
 17 18  1  0
 18 19  1  0
 19 20  1  0
 20 21  2  0
 20 22  1  0
 22 23  2  0
 23 24  1  0
 24 25  2  0
 25 26  1  0
 26 27  2  0
 27 28  1  0
 27 29  1  0
 29 30  2  0
 18 31  1  0
 31 32  1  0
 14 33  1  0
 33 34  2  0
 34 35  1  0
  9 36  2  0
 36  5  1  0
 35 12  1  0
 32 15  1  0
 30 24  1  0
M  CHG  2   1  -1  35  -1
M  END
>  <UniqueID>  (2791) 
41

>  <SMILES>  (2791) 
[NH-]S(=O)(=O)c1cccc(CN=c2nc(N3CCC(NC(=O)/C=C/c4ccc(F)cc4)CC3)cc[n-]2)c1

>  <Energy>  (2791) 
69.12333651750336

>  <Genealogy>  (2791) 
[NH-]S(=O)(=O)c1cccc(CN=c2nc(N3CCC(NC(=O)C=Cc4ccc(F)cc4)CC3)cc[n-]2)c1 (protonated)
[NH-]S(=O)(=O)c1cccc(CN=c2nc(N3CCC(NC(=O)/C=C/c4ccc(F)cc4)CC3)cc[n-]2)c1 (cis-trans isomerization)
[NH-]S(=O)(=O)c1cccc(CN=c2nc(N3CCC(NC(=O)/C=C/c4ccc(F)cc4)CC3)cc[n-]2)c1 (3D coordinates assigned)
[NH-]S(=O)(=O)c1cccc(CN=c2nc(N3CCC(NC(=O)/C=C/c4ccc(F)cc4)CC3)cc[n-]2)c1 (nonaromatic ring conformer: 69.12333651750336 kcal/mol)

>  <smiles>  (2791) 
NS(=O)(=O)c1cccc(CN=c2nc(N3CCC(NC(=O)C=Cc4ccc(F)cc4)CC3)cc[nH]2)c1

>  <score_type>  (2791) 
oracle

>  <origin>  (2791) 
adg

>  <m_score__min__energy>  (2791) 
-14.6

>  <m_primary>  (2791) 
energy

$$$$
46:0
     RDKit          3D

 27 29  0  0  0  0  0  0  0  0999 V2000
   59.5880   29.4950   47.6210 C   0  0  0  0  0  0  0  0  0  0  0  0
   58.9690   29.9610   46.5220 C   0  0  0  0  0  0  0  0  0  0  0  0
   58.5930   29.1250   45.4220 C   0  0  0  0  0  0  0  0  0  0  0  0
   58.4870   27.7710   45.4590 C   0  0  0  0  0  0  0  0  0  0  0  0
   57.2810   26.9980   45.8090 C   0  0  0  0  0  0  0  0  0  0  0  0
   57.3170   25.7220   46.2320 N   0  0  0  0  0  0  0  0  0  0  0  0
   56.0120   25.3870   46.3300 C   0  0  0  0  0  0  0  0  0  0  0  0
   55.6310   24.2520   46.7160 O   0  0  0  0  0  0  0  0  0  0  0  0
   55.1480   26.3600   45.9700 N   0  0  0  0  0  0  0  0  0  0  0  0
   55.9660   27.3680   45.6300 C   0  0  0  0  0  0  0  0  0  0  0  0
   55.5200   28.5890   45.1370 O   0  0  0  0  0  0  0  0  0  0  0  0
   58.2840   29.7550   44.2020 C   0  0  0  0  0  0  0  0  0  0  0  0
   58.1930   31.1440   44.1110 C   0  0  0  0  0  0  0  0  0  0  0  0
   57.8080   31.7440   42.8570 C   0  0  0  0  0  0  0  0  0  0  0  0
   57.5010   32.2250   41.8500 N   0  0  0  0  0  0  0  0  0  0  0  0
   58.4370   31.9190   45.2490 C   0  0  0  0  0  0  0  0  0  0  0  0
   58.3120   33.7170   45.1990 S   0  0  0  0  0  0  0  0  0  0  0  0
   59.4630   33.9320   46.5580 C   0  0  0  0  0  0  0  0  0  0  0  0
   58.9980   34.3580   47.8050 C   0  0  0  0  0  0  0  0  0  0  0  0
   59.8910   34.5170   48.8660 C   0  0  0  0  0  0  0  0  0  0  0  0
   61.2530   34.2590   48.6850 C   0  0  0  0  0  0  0  0  0  0  0  0
   61.7400   33.8370   47.4310 C   0  0  0  0  0  0  0  0  0  0  0  0
   63.1860   33.5570   47.2160 C   0  0  0  0  0  0  0  0  0  0  0  0
   63.6900   33.7100   46.0710 O   0  0  0  0  0  0  0  0  0  0  0  0
   64.0760   33.0900   48.3290 C   0  0  0  0  0  0  0  0  0  0  0  0
   60.8280   33.6820   46.3690 C   0  0  0  0  0  0  0  0  0  0  0  0
   58.8100   31.3170   46.4110 N   0  0  0  0  0  0  0  0  0  0  0  0
  1  2  2  0
  2  3  1  0
  3  4  2  0
  4  5  1  0
  5  6  1  0
  6  7  1  0
  7  8  2  0
  7  9  1  0
  9 10  1  0
 10 11  1  0
  3 12  1  0
 12 13  2  0
 13 14  1  0
 14 15  3  0
 13 16  1  0
 16 17  1  0
 17 18  1  0
 18 19  2  0
 19 20  1  0
 20 21  2  0
 21 22  1  0
 22 23  1  0
 23 24  2  0
 23 25  1  0
 22 26  2  0
 16 27  2  0
 27  2  1  0
 10  5  2  0
 26 18  1  0
M  CHG  4   6  -1   9  -1  11  -1  27   1
M  END
>  <UniqueID>  (2792) 
44

>  <SMILES>  (2792) 
C=c1[nH+]c(Sc2cccc(C(C)=O)c2)c(C#N)c/c1=C/c1[n-]c(=O)[n-]c1[O-]

>  <Energy>  (2792) 
88.14815060960866

>  <Genealogy>  (2792) 
C=c1[nH+]c(Sc2cccc(C(C)=O)c2)c(C#N)cc1=Cc1[n-]c(=O)[n-]c1[O-] (protonated)
C=c1[nH+]c(Sc2cccc(C(C)=O)c2)c(C#N)c/c1=C/c1[n-]c(=O)[n-]c1[O-] (cis-trans isomerization)
C=c1[nH+]c(Sc2cccc(C(C)=O)c2)c(C#N)c/c1=C/c1[n-]c(=O)[n-]c1[O-] (3D coordinates assigned)
C=c1[nH+]c(Sc2cccc(C(C)=O)c2)c(C#N)c/c1=C/c1[n-]c(=O)[n-]c1[O-] (optimized conformer: 88.14815060960866 kcal/mol)

>  <smiles>  (2792) 
C=c1nc(Sc2cccc(C(C)=O)c2)c(C#N)cc1=Cc1[nH]c(=O)[nH]c1O

>  <score_type>  (2792) 
oracle

>  <origin>  (2792) 
adg

>  <m_score__min__energy>  (2792) 
-15.539999999999999

>  <m_primary>  (2792) 
energy

$$$$
59:0
     RDKit          3D

 44 49  0  0  0  0  0  0  0  0999 V2000
   58.8970   27.2510   47.9400 C   0  0  0  0  0  0  0  0  0  0  0  0
   58.8790   28.5950   47.9030 C   0  0  0  0  0  0  0  0  0  0  0  0
   58.7880   29.3800   46.7480 C   0  0  0  0  0  0  0  0  0  0  0  0
   58.5920   28.9450   45.4850 C   0  0  0  0  0  0  0  0  0  0  0  0
   57.6750   29.5890   44.5300 C   0  0  0  0  0  0  0  0  0  0  0  0
   58.0590   30.5380   43.6540 N   0  0  0  0  0  0  0  0  0  0  0  0
   56.9070   30.8840   43.0400 C   0  0  0  0  0  0  0  0  0  0  0  0
   56.8580   31.7580   42.1330 O   0  0  0  0  0  0  0  0  0  0  0  0
   55.8090   30.2330   43.4880 N   0  0  0  0  0  0  0  0  0  0  0  0
   56.3100   29.4240   44.4410 C   0  0  0  0  0  0  0  0  0  0  0  0
   55.5310   28.6030   45.2470 O   0  0  0  0  0  0  0  0  0  0  0  0
   58.8190   30.7020   47.1710 C   0  0  0  0  0  0  0  0  0  0  0  0
   58.9150   30.6780   48.5510 C   0  0  0  0  0  0  0  0  0  0  0  0
   58.8430   31.9000   49.4190 C   0  0  0  0  0  0  0  0  0  0  0  0
   58.9390   29.3970   49.0000 N   0  0  0  0  0  0  0  0  0  0  0  0
   58.9630   28.9600   50.4050 C   0  0  0  0  0  0  0  0  0  0  0  0
   60.2500   29.3960   51.0910 C   0  0  0  0  0  0  0  0  0  0  0  0
   61.4730   28.8610   50.6370 C   0  0  0  0  0  0  0  0  0  0  0  0
   62.6820   29.2050   51.2510 C   0  0  0  0  0  0  0  0  0  0  0  0
   62.7110   30.0900   52.3380 C   0  0  0  0  0  0  0  0  0  0  0  0
   63.9600   30.4340   53.0820 C   0  0  0  0  0  0  0  0  0  0  0  0
   64.1710   29.8210   54.1670 O   0  0  0  0  0  0  0  0  0  0  0  0
   64.9520   31.4050   52.6510 N   0  0  0  0  0  0  0  0  0  0  0  0
   66.0510   30.8300   51.8340 C   0  0  0  0  0  0  0  0  0  0  0  0
   67.3310   31.7030   51.8500 C   0  0  0  0  0  0  0  0  0  0  0  0
   67.0350   33.1410   52.0210 N   0  0  0  0  0  0  0  0  0  0  0  0
   66.4430   33.7300   50.7920 C   0  0  0  0  0  0  0  0  0  0  0  0
   65.8390   32.7300   49.7710 C   0  0  0  0  0  0  0  0  0  0  0  0
   64.3780   32.5100   49.9230 N   0  0  0  0  0  0  0  0  0  0  0  0
   63.7510   33.7790   50.3740 C   0  0  0  0  0  0  0  0  0  0  0  0
   62.2350   33.8160   50.0950 C   0  0  0  0  0  0  0  0  0  0  0  0
   61.7240   32.5010   50.0000 O   0  0  0  0  0  0  0  0  0  0  0  0
   62.2320   31.8820   48.8280 C   0  0  0  0  0  0  0  0  0  0  0  0
   63.7630   32.0400   48.6670 C   0  0  0  0  0  0  0  0  0  0  0  0
   66.3200   33.3920   53.3010 C   0  0  0  0  0  0  0  0  0  0  0  0
   65.4320   32.2150   53.7790 C   0  0  0  0  0  0  0  0  0  0  0  0
   61.4960   30.6390   52.7840 C   0  0  0  0  0  0  0  0  0  0  0  0
   60.2720   30.3180   52.1700 C   0  0  0  0  0  0  0  0  0  0  0  0
   59.0610   30.9900   52.6890 C   0  0  0  0  0  0  0  0  0  0  0  0
   58.0870   30.3070   53.1100 O   0  0  0  0  0  0  0  0  0  0  0  0
   58.9700   32.4130   52.6850 N   0  0  0  0  0  0  0  0  0  0  0  0
   59.8580   33.5570   52.4240 C   0  0  0  0  0  0  0  0  0  0  0  0
   58.8430   34.6130   52.7080 C   0  0  0  0  0  0  0  0  0  0  0  0
   57.9560   33.4400   52.9730 C   0  0  0  0  0  0  0  0  0  0  0  0
  1  2  2  0
  2  3  1  0
  3  4  2  0
  4  5  1  0
  5  6  1  0
  6  7  1  0
  7  8  2  0
  7  9  1  0
  9 10  1  0
 10 11  1  0
  3 12  1  0
 12 13  2  0
 13 14  1  0
 13 15  1  0
 15 16  1  0
 16 17  1  0
 17 18  2  0
 18 19  1  0
 19 20  2  0
 20 21  1  0
 21 22  2  0
 21 23  1  0
 23 24  1  0
 24 25  1  0
 25 26  1  0
 26 27  1  0
 27 28  1  0
 28 29  1  0
 29 30  1  0
 30 31  1  0
 31 32  1  0
 32 33  1  0
 33 34  1  0
 26 35  1  0
 35 36  1  0
 20 37  1  0
 37 38  2  0
 38 39  1  0
 39 40  2  0
 39 41  1  0
 41 42  1  0
 42 43  1  0
 43 44  1  0
 15  2  1  0
 38 17  1  0
 44 41  1  0
 10  5  2  0
 36 23  1  0
 34 29  1  0
M  CHG  4   6  -1   9  -1  11  -1  23   1
M  END
>  <UniqueID>  (2793) 
55

>  <SMILES>  (2793) 
C=c1/c(=C/c2[n-]c(=O)[n-]c2[O-])cc(C)n1Cc1ccc(C(=O)[NH+]2CCN(CCN3CCOCC3)CC2)cc1C(=O)N1CCC1

>  <Energy>  (2793) 
241.96025756355087

>  <Genealogy>  (2793) 
C=c1c(=Cc2[n-]c(=O)[n-]c2[O-])cc(C)n1Cc1ccc(C(=O)[NH+]2CCN(CCN3CCOCC3)CC2)cc1C(=O)N1CCC1 (protonated)
C=c1/c(=C/c2[n-]c(=O)[n-]c2[O-])cc(C)n1Cc1ccc(C(=O)[NH+]2CCN(CCN3CCOCC3)CC2)cc1C(=O)N1CCC1 (cis-trans isomerization)
C=c1/c(=C/c2[n-]c(=O)[n-]c2[O-])cc(C)n1Cc1ccc(C(=O)[NH+]2CCN(CCN3CCOCC3)CC2)cc1C(=O)N1CCC1 (3D coordinates assigned)
C=c1/c(=C/c2[n-]c(=O)[n-]c2[O-])cc(C)n1Cc1ccc(C(=O)[NH+]2CCN(CCN3CCOCC3)CC2)cc1C(=O)N1CCC1 (nonaromatic ring conformer: 241.96025756355087 kcal/mol)

>  <smiles>  (2793) 
C=c1c(=Cc2[nH]c(=O)[nH]c2O)cc(C)n1Cc1ccc(C(=O)N2CCN(CCN3CCOCC3)CC2)cc1C(=O)N1CCC1

>  <score_type>  (2793) 
oracle

>  <origin>  (2793) 
adg

>  <m_score__min__energy>  (2793) 
-17.27

>  <m_primary>  (2793) 
energy

$$$$
67:0
     RDKit          3D

 29 32  0  0  0  0  0  0  0  0999 V2000
   60.5270   27.4240   48.0370 C   0  0  0  0  0  0  0  0  0  0  0  0
   59.8020   28.5120   47.7330 C   0  0  0  0  0  0  0  0  0  0  0  0
   58.6790   28.5680   46.8910 C   0  0  0  0  0  0  0  0  0  0  0  0
   58.1620   27.6570   46.0440 C   0  0  0  0  0  0  0  0  0  0  0  0
   57.4930   26.4060   46.4330 C   0  0  0  0  0  0  0  0  0  0  0  0
   58.1300   25.3720   47.0110 N   0  0  0  0  0  0  0  0  0  0  0  0
   57.1280   24.5150   47.3060 C   0  0  0  0  0  0  0  0  0  0  0  0
   57.3300   23.4000   47.8530 O   0  0  0  0  0  0  0  0  0  0  0  0
   55.8930   24.9500   46.9790 N   0  0  0  0  0  0  0  0  0  0  0  0
   56.1400   26.1560   46.4420 C   0  0  0  0  0  0  0  0  0  0  0  0
   55.1470   27.0190   45.9950 O   0  0  0  0  0  0  0  0  0  0  0  0
   58.1400   29.8320   47.0500 C   0  0  0  0  0  0  0  0  0  0  0  0
   58.9650   30.5160   47.9160 C   0  0  0  0  0  0  0  0  0  0  0  0
   58.7870   31.9350   48.2840 C   0  0  0  0  0  0  0  0  0  0  0  0
   58.2170   32.2150   49.3730 O   0  0  0  0  0  0  0  0  0  0  0  0
   59.2570   32.9960   47.4340 N   0  0  0  0  0  0  0  0  0  0  0  0
   59.2120   34.3930   47.8280 C   0  0  0  0  0  0  0  0  0  0  0  0
   59.4470   35.1930   46.5540 C   0  0  0  0  0  0  0  0  0  0  0  0
   60.0060   34.2050   45.5330 C   0  0  0  0  0  0  0  0  0  0  0  0
   59.6320   32.8190   46.0410 C   0  0  0  0  0  0  0  0  0  0  0  0
   59.9870   29.7240   48.3210 N   0  0  0  0  0  0  0  0  0  0  0  0
   61.0420   30.0860   49.2830 C   0  0  0  0  0  0  0  0  0  0  0  0
   61.8120   31.3050   48.8140 C   0  0  0  0  0  0  0  0  0  0  0  0
   62.5070   31.2520   47.5900 C   0  0  0  0  0  0  0  0  0  0  0  0
   63.2100   32.3640   47.1230 C   0  0  0  0  0  0  0  0  0  0  0  0
   63.2190   33.5470   47.8600 C   0  0  0  0  0  0  0  0  0  0  0  0
   62.5170   33.6250   49.0630 C   0  0  0  0  0  0  0  0  0  0  0  0
   61.8050   32.5170   49.5450 C   0  0  0  0  0  0  0  0  0  0  0  0
   60.9220   32.7030   51.0570 Cl  0  0  0  0  0  0  0  0  0  0  0  0
  1  2  2  0
  2  3  1  0
  3  4  2  0
  4  5  1  0
  5  6  1  0
  6  7  1  0
  7  8  2  0
  7  9  1  0
  9 10  1  0
 10 11  1  0
  3 12  1  0
 12 13  2  0
 13 14  1  0
 14 15  2  0
 14 16  1  0
 16 17  1  0
 17 18  1  0
 18 19  1  0
 19 20  1  0
 13 21  1  0
 21 22  1  0
 22 23  1  0
 23 24  2  0
 24 25  1  0
 25 26  2  0
 26 27  1  0
 27 28  2  0
 28 29  1  0
 21  2  1  0
 28 23  1  0
 10  5  2  0
 20 16  1  0
M  CHG  3   6  -1   9  -1  11  -1
M  END
>  <UniqueID>  (2794) 
63

>  <SMILES>  (2794) 
C=c1/c(=C\c2[n-]c(=O)[n-]c2[O-])cc(C(=O)N2CCCC2)n1Cc1ccccc1Cl

>  <Energy>  (2794) 
126.20621432603583

>  <Genealogy>  (2794) 
C=c1c(=Cc2[n-]c(=O)[n-]c2[O-])cc(C(=O)N2CCCC2)n1Cc1ccccc1Cl (protonated)
C=c1/c(=C\c2[n-]c(=O)[n-]c2[O-])cc(C(=O)N2CCCC2)n1Cc1ccccc1Cl (cis-trans isomerization)
C=c1/c(=C\c2[n-]c(=O)[n-]c2[O-])cc(C(=O)N2CCCC2)n1Cc1ccccc1Cl (3D coordinates assigned)
C=c1/c(=C\c2[n-]c(=O)[n-]c2[O-])cc(C(=O)N2CCCC2)n1Cc1ccccc1Cl (nonaromatic ring conformer: 126.20621432603583 kcal/mol)

>  <smiles>  (2794) 
C=c1c(=Cc2[nH]c(=O)[nH]c2O)cc(C(=O)N2CCCC2)n1Cc1ccccc1Cl

>  <score_type>  (2794) 
oracle

>  <origin>  (2794) 
adg

>  <m_score__min__energy>  (2794) 
-16.879999999999999

>  <m_primary>  (2794) 
energy

$$$$
72:0
     RDKit          3D

 33 36  0  0  0  0  0  0  0  0999 V2000
   57.5320   30.3060   44.3840 C   0  0  0  0  0  0  0  0  0  0  0  0
   58.0750   29.8220   45.5120 C   0  0  0  0  0  0  0  0  0  0  0  0
   58.0530   28.4910   45.9450 C   0  0  0  0  0  0  0  0  0  0  0  0
   57.4440   27.4500   45.3380 C   0  0  0  0  0  0  0  0  0  0  0  0
   57.1210   26.1610   45.9900 C   0  0  0  0  0  0  0  0  0  0  0  0
   58.0240   25.2320   46.3540 N   0  0  0  0  0  0  0  0  0  0  0  0
   57.2650   24.2190   46.8260 C   0  0  0  0  0  0  0  0  0  0  0  0
   57.7620   23.1520   47.2740 O   0  0  0  0  0  0  0  0  0  0  0  0
   55.9360   24.4380   46.7750 N   0  0  0  0  0  0  0  0  0  0  0  0
   55.8560   25.6670   46.2380 C   0  0  0  0  0  0  0  0  0  0  0  0
   54.6460   26.3130   45.9960 O   0  0  0  0  0  0  0  0  0  0  0  0
   58.7470   28.4660   47.1500 C   0  0  0  0  0  0  0  0  0  0  0  0
   59.1740   29.7570   47.3920 C   0  0  0  0  0  0  0  0  0  0  0  0
   59.8510   30.2020   48.6580 C   0  0  0  0  0  0  0  0  0  0  0  0
   58.9030   31.0210   49.4920 C   0  0  0  0  0  0  0  0  0  0  0  0
   59.2860   31.9690   50.3590 C   0  0  0  0  0  0  0  0  0  0  0  0
   60.5910   32.6520   50.3150 C   0  0  0  0  0  0  0  0  0  0  0  0
   61.1190   33.2510   51.4670 C   0  0  0  0  0  0  0  0  0  0  0  0
   62.3670   33.8730   51.4260 C   0  0  0  0  0  0  0  0  0  0  0  0
   63.1080   33.8810   50.2420 C   0  0  0  0  0  0  0  0  0  0  0  0
   62.6090   33.2570   49.0830 C   0  0  0  0  0  0  0  0  0  0  0  0
   63.3990   33.2530   47.8300 C   0  0  0  0  0  0  0  0  0  0  0  0
   63.7700   32.0230   47.2110 N   0  0  0  0  0  0  0  0  0  0  0  0
   63.7520   34.3390   47.2970 O   0  0  0  0  0  0  0  0  0  0  0  0
   61.3460   32.6350   49.1350 C   0  0  0  0  0  0  0  0  0  0  0  0
   58.7580   30.5810   46.4050 N   0  0  0  0  0  0  0  0  0  0  0  0
   58.9820   31.9990   46.3420 C   0  0  0  0  0  0  0  0  0  0  0  0
   60.2890   32.5050   46.2890 C   0  0  0  0  0  0  0  0  0  0  0  0
   60.5060   33.8850   46.2240 C   0  0  0  0  0  0  0  0  0  0  0  0
   59.4190   34.7640   46.2140 C   0  0  0  0  0  0  0  0  0  0  0  0
   59.6300   36.1020   46.1470 F   0  0  0  0  0  0  0  0  0  0  0  0
   58.1140   34.2640   46.2700 C   0  0  0  0  0  0  0  0  0  0  0  0
   57.8950   32.8850   46.3340 C   0  0  0  0  0  0  0  0  0  0  0  0
  1  2  2  0
  2  3  1  0
  3  4  2  3
  4  5  1  0
  5  6  1  0
  6  7  1  0
  7  8  2  0
  7  9  1  0
  9 10  1  0
 10 11  1  0
  3 12  1  0
 12 13  2  0
 13 14  1  0
 14 15  1  0
 15 16  2  3
 16 17  1  0
 17 18  2  0
 18 19  1  0
 19 20  2  0
 20 21  1  0
 21 22  1  0
 22 23  1  0
 22 24  2  0
 21 25  2  0
 13 26  1  0
 26 27  1  0
 27 28  2  0
 28 29  1  0
 29 30  2  0
 30 31  1  0
 30 32  1  0
 32 33  2  0
 26  2  1  0
 33 27  1  0
 10  5  2  0
 25 17  1  0
M  CHG  3   6  -1   9  -1  23  -1
M  END
>  <UniqueID>  (2795) 
68

>  <SMILES>  (2795) 
C=c1c(=Cc2[n-]c(=O)[n-]c2O)cc(CC=Cc2cccc(C([NH-])=O)c2)n1-c1ccc(F)cc1

>  <Energy>  (2795) 
128.3579712456417

>  <Genealogy>  (2795) 
C=c1c(=Cc2[n-]c(=O)[n-]c2O)cc(CC=Cc2cccc(C([NH-])=O)c2)n1-c1ccc(F)cc1 (protonated)
C=c1c(=Cc2[n-]c(=O)[n-]c2O)cc(CC=Cc2cccc(C([NH-])=O)c2)n1-c1ccc(F)cc1 (3D coordinates assigned)
C=c1c(=Cc2[n-]c(=O)[n-]c2O)cc(CC=Cc2cccc(C([NH-])=O)c2)n1-c1ccc(F)cc1 (optimized conformer: 128.3579712456417 kcal/mol)

>  <smiles>  (2795) 
C=c1c(=Cc2[nH]c(=O)[nH]c2O)cc(CC=Cc2cccc(C(N)=O)c2)n1-c1ccc(F)cc1

>  <score_type>  (2795) 
oracle

>  <origin>  (2795) 
adg

>  <m_score__min__energy>  (2795) 
-16.43

>  <m_primary>  (2795) 
energy

$$$$
74:0
     RDKit          3D

 28 31  0  0  0  0  0  0  0  0999 V2000
   58.4840   28.9870   46.6010 C   0  0  0  0  0  0  0  0  0  0  0  0
   57.9300   28.9450   45.3800 C   0  0  0  0  0  0  0  0  0  0  0  0
   57.8270   27.8320   44.5280 C   0  0  0  0  0  0  0  0  0  0  0  0
   58.0560   26.5230   44.7500 C   0  0  0  0  0  0  0  0  0  0  0  0
   57.4070   25.7000   45.7830 C   0  0  0  0  0  0  0  0  0  0  0  0
   58.0420   24.7980   46.5550 N   0  0  0  0  0  0  0  0  0  0  0  0
   57.0890   24.4130   47.4320 C   0  0  0  0  0  0  0  0  0  0  0  0
   57.2970   23.5490   48.3240 O   0  0  0  0  0  0  0  0  0  0  0  0
   55.8990   25.0330   47.2840 N   0  0  0  0  0  0  0  0  0  0  0  0
   56.1240   25.8540   46.2460 C   0  0  0  0  0  0  0  0  0  0  0  0
   55.1760   26.7330   45.7350 O   0  0  0  0  0  0  0  0  0  0  0  0
   57.3860   28.3190   43.3080 C   0  0  0  0  0  0  0  0  0  0  0  0
   57.1680   29.6700   43.4700 C   0  0  0  0  0  0  0  0  0  0  0  0
   56.6550   30.5850   42.4000 C   0  0  0  0  0  0  0  0  0  0  0  0
   57.5100   30.0530   44.7190 N   0  0  0  0  0  0  0  0  0  0  0  0
   57.4490   31.3940   45.2410 C   0  0  0  0  0  0  0  0  0  0  0  0
   56.3420   31.9970   45.2250 O   0  0  0  0  0  0  0  0  0  0  0  0
   58.6070   32.0470   45.8190 N   0  0  0  0  0  0  0  0  0  0  0  0
   58.5010   32.0510   47.3010 C   0  0  0  0  0  0  0  0  0  0  0  0
   59.4320   33.0880   47.9570 C   0  0  0  0  0  0  0  0  0  0  0  0
   60.5820   33.3430   47.0670 N   0  0  0  0  0  0  0  0  0  0  0  0
   61.7530   34.0180   47.6860 C   0  0  0  0  0  0  0  0  0  0  0  0
   62.0760   33.5690   49.1240 C   0  0  0  0  0  0  0  0  0  0  0  0
   63.5840   33.3860   49.1760 C   0  0  0  0  0  0  0  0  0  0  0  0
   64.0060   33.0710   47.7530 C   0  0  0  0  0  0  0  0  0  0  0  0
   63.0330   33.8260   46.8610 C   0  0  0  0  0  0  0  0  0  0  0  0
   60.1460   34.0130   45.8250 C   0  0  0  0  0  0  0  0  0  0  0  0
   58.8280   33.4120   45.2860 C   0  0  0  0  0  0  0  0  0  0  0  0
  1  2  2  0
  2  3  1  0
  3  4  2  0
  4  5  1  0
  5  6  1  0
  6  7  1  0
  7  8  2  0
  7  9  1  0
  9 10  1  0
 10 11  1  0
  3 12  1  0
 12 13  2  0
 13 14  1  0
 13 15  1  0
 15 16  1  0
 16 17  2  0
 16 18  1  0
 18 19  1  0
 19 20  1  0
 20 21  1  0
 21 22  1  0
 22 23  1  0
 23 24  1  0
 24 25  1  0
 25 26  1  0
 21 27  1  0
 27 28  1  0
 15  2  1  0
 28 18  1  0
 10  5  2  0
 26 22  1  0
M  CHG  4   6  -1   9  -1  11  -1  18   1
M  END
>  <UniqueID>  (2796) 
70

>  <SMILES>  (2796) 
C=c1/c(=C\c2[n-]c(=O)[n-]c2[O-])cc(C)n1C(=O)[NH+]1CCN(C2CCCC2)CC1

>  <Energy>  (2796) 
147.4390155673101

>  <Genealogy>  (2796) 
C=c1c(=Cc2[n-]c(=O)[n-]c2[O-])cc(C)n1C(=O)[NH+]1CCN(C2CCCC2)CC1 (protonated)
C=c1/c(=C\c2[n-]c(=O)[n-]c2[O-])cc(C)n1C(=O)[NH+]1CCN(C2CCCC2)CC1 (cis-trans isomerization)
C=c1/c(=C\c2[n-]c(=O)[n-]c2[O-])cc(C)n1C(=O)[NH+]1CCN(C2CCCC2)CC1 (3D coordinates assigned)
C=c1/c(=C\c2[n-]c(=O)[n-]c2[O-])cc(C)n1C(=O)[NH+]1CCN(C2CCCC2)CC1 (nonaromatic ring conformer: 147.4390155673101 kcal/mol)

>  <smiles>  (2796) 
C=c1c(=Cc2[nH]c(=O)[nH]c2O)cc(C)n1C(=O)N1CCN(C2CCCC2)CC1

>  <score_type>  (2796) 
oracle

>  <origin>  (2796) 
adg

>  <m_score__min__energy>  (2796) 
-15.74

>  <m_primary>  (2796) 
energy

$$$$
0:0
     RDKit          3D

 32 35  0  0  0  0  0  0  0  0999 V2000
   57.2150   23.1190   46.0640 C   0  0  0  0  0  0  0  0  0  0  0  0
   58.3440   23.8310   46.0570 C   0  0  0  0  0  0  0  0  0  0  0  0
   59.4760   23.3150   45.6310 O   0  0  0  0  0  0  0  0  0  0  0  0
   60.4020   24.2430   45.6260 C   0  0  0  0  0  0  0  0  0  0  0  0
   59.8700   25.4330   46.0780 C   0  0  0  0  0  0  0  0  0  0  0  0
   60.6240   26.7310   46.1940 C   0  0  0  0  0  0  0  0  0  0  0  0
   60.8100   27.1570   47.6300 C   0  0  0  0  0  0  0  0  0  0  0  0
   61.2480   26.3230   48.4730 O   0  0  0  0  0  0  0  0  0  0  0  0
   60.5440   28.5140   48.0440 N   0  0  0  0  0  0  0  0  0  0  0  0
   60.4730   29.5910   47.0420 C   0  0  0  0  0  0  0  0  0  0  0  0
   60.5570   30.9800   47.6850 C   0  0  0  0  0  0  0  0  0  0  0  0
   59.6260   31.0840   48.8170 N   0  0  0  0  0  0  0  0  0  0  0  0
   58.9250   32.3140   49.1010 C   0  0  0  0  0  0  0  0  0  0  0  0
   57.8730   32.2790   49.7980 O   0  0  0  0  0  0  0  0  0  0  0  0
   59.3940   33.6330   48.5410 C   0  0  0  0  0  0  0  0  0  0  0  0
   58.8510   33.8740   47.1560 C   0  0  0  0  0  0  0  0  0  0  0  0
   57.6210   33.3150   46.7710 C   0  0  0  0  0  0  0  0  0  0  0  0
   57.1290   33.5150   45.4780 C   0  0  0  0  0  0  0  0  0  0  0  0
   57.8650   34.2670   44.5580 C   0  0  0  0  0  0  0  0  0  0  0  0
   59.0960   34.8170   44.9290 C   0  0  0  0  0  0  0  0  0  0  0  0
   59.5910   34.6180   46.2220 C   0  0  0  0  0  0  0  0  0  0  0  0
   59.4440   29.9430   49.7280 C   0  0  0  0  0  0  0  0  0  0  0  0
   60.4790   28.8420   49.4750 C   0  0  0  0  0  0  0  0  0  0  0  0
   58.5360   25.1810   46.3900 C   0  0  0  0  0  0  0  0  0  0  0  0
   57.6800   26.0970   46.8900 C   0  0  0  0  0  0  0  0  0  0  0  0
   57.1560   27.2620   46.1630 C   0  0  0  0  0  0  0  0  0  0  0  0
   57.8080   28.4330   46.0680 N   0  0  0  0  0  0  0  0  0  0  0  0
   56.9150   29.2370   45.4490 C   0  0  0  0  0  0  0  0  0  0  0  0
   57.1690   30.4350   45.1600 O   0  0  0  0  0  0  0  0  0  0  0  0
   55.7260   28.6590   45.1750 N   0  0  0  0  0  0  0  0  0  0  0  0
   55.8890   27.4140   45.6480 C   0  0  0  0  0  0  0  0  0  0  0  0
   54.8920   26.4460   45.6320 O   0  0  0  0  0  0  0  0  0  0  0  0
  1  2  2  0
  2  3  1  0
  3  4  1  0
  4  5  2  0
  5  6  1  0
  6  7  1  0
  7  8  2  0
  7  9  1  0
  9 10  1  0
 10 11  1  0
 11 12  1  0
 12 13  1  0
 13 14  2  0
 13 15  1  0
 15 16  1  0
 16 17  2  0
 17 18  1  0
 18 19  2  0
 19 20  1  0
 20 21  2  0
 12 22  1  0
 22 23  1  0
  5 24  1  0
 24 25  2  3
 25 26  1  0
 26 27  1  0
 27 28  1  0
 28 29  2  0
 28 30  1  0
 30 31  1  0
 31 32  1  0
 24  2  1  0
 31 26  2  0
 23  9  1  0
 21 16  1  0
M  CHG  3  27  -1  30  -1  32  -1
M  END
>  <UniqueID>  (2797) 
1

>  <SMILES>  (2797) 
C=c1occ(CC(=O)N2CCN(C(=O)Cc3ccccc3)CC2)c1=Cc1[n-]c(=O)[n-]c1[O-]

>  <Energy>  (2797) 
126.37737761045217

>  <Genealogy>  (2797) 
C=c1occ(CC(=O)N2CCN(C(=O)Cc3ccccc3)CC2)c1=Cc1[n-]c(=O)[n-]c1[O-] (protonated)
C=c1occ(CC(=O)N2CCN(C(=O)Cc3ccccc3)CC2)c1=Cc1[n-]c(=O)[n-]c1[O-] (3D coordinates assigned)
C=c1occ(CC(=O)N2CCN(C(=O)Cc3ccccc3)CC2)c1=Cc1[n-]c(=O)[n-]c1[O-] (nonaromatic ring conformer: 126.37737761045217 kcal/mol)

>  <smiles>  (2797) 
C=c1occ(CC(=O)N2CCN(C(=O)Cc3ccccc3)CC2)c1=Cc1[nH]c(=O)[nH]c1O

>  <score_type>  (2797) 
oracle

>  <origin>  (2797) 
adg

>  <m_score__min__energy>  (2797) 
-18.280000000000001

>  <m_primary>  (2797) 
energy

$$$$
25:0
     RDKit          3D

 27 29  0  0  0  0  0  0  0  0999 V2000
   52.8370   27.9650   53.4700 C   0  0  0  0  0  0  0  0  0  0  0  0
   54.1530   28.7340   53.3670 C   0  0  0  0  0  0  0  0  0  0  0  0
   54.0410   29.9100   52.4860 N   0  0  0  0  0  0  0  0  0  0  0  0
   52.9270   30.0390   51.5340 C   0  0  0  0  0  0  0  0  0  0  0  0
   51.9800   31.1310   51.9510 C   0  0  0  0  0  0  0  0  0  0  0  0
   51.8190   31.4830   53.2410 N   0  0  0  0  0  0  0  0  0  0  0  0
   50.8710   32.4380   53.1960 C   0  0  0  0  0  0  0  0  0  0  0  0
   50.4460   33.0230   54.2260 O   0  0  0  0  0  0  0  0  0  0  0  0
   50.4140   32.7150   51.9610 N   0  0  0  0  0  0  0  0  0  0  0  0
   51.1160   31.8870   51.1650 C   0  0  0  0  0  0  0  0  0  0  0  0
   50.9400   31.8730   49.6990 C   0  0  0  0  0  0  0  0  0  0  0  0
   51.0190   30.7810   49.0780 O   0  0  0  0  0  0  0  0  0  0  0  0
   50.6690   33.0330   48.9870 O   0  0  0  0  0  0  0  0  0  0  0  0
   55.2080   30.7290   52.2950 C   0  0  0  0  0  0  0  0  0  0  0  0
   55.0810   31.9770   52.1790 O   0  0  0  0  0  0  0  0  0  0  0  0
   56.5540   30.1350   52.2220 C   0  0  0  0  0  0  0  0  0  0  0  0
   57.1080   29.3450   53.2290 C   0  0  0  0  0  0  0  0  0  0  0  0
   58.6630   28.9170   52.7550 S   0  0  0  0  0  0  0  0  0  0  0  0
   58.5630   29.7390   51.2920 C   0  0  0  0  0  0  0  0  0  0  0  0
   59.6800   29.8730   50.3090 C   0  0  0  0  0  0  0  0  0  0  0  0
   59.4690   31.0920   49.4550 C   0  0  0  0  0  0  0  0  0  0  0  0
   59.7850   32.3680   49.9510 C   0  0  0  0  0  0  0  0  0  0  0  0
   59.5550   33.5040   49.1690 C   0  0  0  0  0  0  0  0  0  0  0  0
   59.0000   33.3750   47.8920 C   0  0  0  0  0  0  0  0  0  0  0  0
   58.6710   32.1110   47.3980 C   0  0  0  0  0  0  0  0  0  0  0  0
   58.8990   30.9720   48.1770 C   0  0  0  0  0  0  0  0  0  0  0  0
   57.3720   30.3610   51.1570 N   0  0  0  0  0  0  0  0  0  0  0  0
  1  2  1  0
  2  3  1  0
  3  4  1  0
  4  5  1  0
  5  6  1  0
  6  7  1  0
  7  8  2  0
  7  9  1  0
  9 10  1  0
 10 11  1  0
 11 12  2  0
 11 13  1  0
  3 14  1  0
 14 15  2  0
 14 16  1  0
 16 17  2  0
 17 18  1  0
 18 19  1  0
 19 20  1  0
 20 21  1  0
 21 22  2  0
 22 23  1  0
 23 24  2  0
 24 25  1  0
 25 26  2  0
 19 27  2  0
 10  5  2  0
 27 16  1  0
 26 21  1  0
M  CHG  3   6  -1   9  -1  13  -1
M  END
>  <UniqueID>  (2798) 
24

>  <SMILES>  (2798) 
CCN(Cc1[n-]c(=O)[n-]c1C(=O)[O-])C(=O)c1csc(Cc2ccccc2)n1

>  <Energy>  (2798) 
102.18014802478852

>  <Genealogy>  (2798) 
CCN(Cc1[n-]c(=O)[n-]c1C(=O)[O-])C(=O)c1csc(Cc2ccccc2)n1 (protonated)
CCN(Cc1[n-]c(=O)[n-]c1C(=O)[O-])C(=O)c1csc(Cc2ccccc2)n1 (3D coordinates assigned)
CCN(Cc1[n-]c(=O)[n-]c1C(=O)[O-])C(=O)c1csc(Cc2ccccc2)n1 (optimized conformer: 102.18014802478852 kcal/mol)

>  <smiles>  (2798) 
CCN(Cc1[nH]c(=O)[nH]c1C(=O)O)C(=O)c1csc(Cc2ccccc2)n1

>  <score_type>  (2798) 
oracle

>  <origin>  (2798) 
adg

>  <m_score__min__energy>  (2798) 
-15.34

>  <m_primary>  (2798) 
energy

$$$$
29:0
     RDKit          3D

 27 29  0  0  0  0  0  0  0  0999 V2000
   59.3490   24.5940   45.9820 C   0  0  0  0  0  0  0  0  0  0  0  0
   58.9110   25.8350   45.7160 C   0  0  0  0  0  0  0  0  0  0  0  0
   59.6480   26.8600   46.2280 N   0  0  0  0  0  0  0  0  0  0  0  0
   59.3120   28.1630   46.0790 C   0  0  0  0  0  0  0  0  0  0  0  0
   58.1680   28.5120   45.3650 C   0  0  0  0  0  0  0  0  0  0  0  0
   57.7950   29.9300   45.1790 C   0  0  0  0  0  0  0  0  0  0  0  0
   56.5900   30.2130   44.9370 O   0  0  0  0  0  0  0  0  0  0  0  0
   58.7680   30.9890   45.3130 N   0  0  0  0  0  0  0  0  0  0  0  0
   59.9150   30.8330   46.2180 C   0  0  0  0  0  0  0  0  0  0  0  0
   60.3060   32.1720   46.8780 C   0  0  0  0  0  0  0  0  0  0  0  0
   59.1450   33.0560   47.1380 N   0  0  0  0  0  0  0  0  0  0  0  0
   58.5190   32.9080   48.4700 C   0  0  0  0  0  0  0  0  0  0  0  0
   59.4780   33.1820   49.6370 C   0  0  0  0  0  0  0  0  0  0  0  0
   59.3020   32.1900   50.6250 O   0  0  0  0  0  0  0  0  0  0  0  0
   57.9230   31.9720   50.8270 C   0  0  0  0  0  0  0  0  0  0  0  0
   58.1830   33.2440   46.0210 C   0  0  0  0  0  0  0  0  0  0  0  0
   58.4710   32.3350   44.8250 C   0  0  0  0  0  0  0  0  0  0  0  0
   57.3900   27.4960   44.8000 C   0  0  0  0  0  0  0  0  0  0  0  0
   57.7220   26.1300   44.9690 C   0  0  0  0  0  0  0  0  0  0  0  0
   56.9560   25.1600   44.4000 C   0  0  0  0  0  0  0  0  0  0  0  0
   55.6810   24.6380   44.9410 C   0  0  0  0  0  0  0  0  0  0  0  0
   55.1890   23.4040   44.7150 N   0  0  0  0  0  0  0  0  0  0  0  0
   53.9730   23.4400   45.3010 C   0  0  0  0  0  0  0  0  0  0  0  0
   53.1960   22.4500   45.3120 O   0  0  0  0  0  0  0  0  0  0  0  0
   53.6490   24.6240   45.8620 N   0  0  0  0  0  0  0  0  0  0  0  0
   54.7350   25.3720   45.6140 C   0  0  0  0  0  0  0  0  0  0  0  0
   54.8580   26.7030   45.9930 O   0  0  0  0  0  0  0  0  0  0  0  0
  1  2  2  0
  2  3  1  0
  3  4  2  0
  4  5  1  0
  5  6  1  0
  6  7  2  0
  6  8  1  0
  8  9  1  0
  9 10  1  0
 10 11  1  0
 11 12  1  0
 12 13  1  0
 13 14  1  0
 14 15  1  0
 11 16  1  0
 16 17  1  0
  5 18  2  0
 18 19  1  0
 19 20  2  3
 20 21  1  0
 21 22  1  0
 22 23  1  0
 23 24  2  0
 23 25  1  0
 25 26  1  0
 26 27  1  0
 19  2  1  0
 26 21  2  0
 17  8  1  0
M  CHG  3  22  -1  25  -1  27  -1
M  END
>  <UniqueID>  (2799) 
28

>  <SMILES>  (2799) 
C=c1ncc(C(=O)N2CCN(CCOC)CC2)cc1=Cc1[n-]c(=O)[n-]c1[O-]

>  <Energy>  (2799) 
107.40307590265746

>  <Genealogy>  (2799) 
C=c1ncc(C(=O)N2CCN(CCOC)CC2)cc1=Cc1[n-]c(=O)[n-]c1[O-] (protonated)
C=c1ncc(C(=O)N2CCN(CCOC)CC2)cc1=Cc1[n-]c(=O)[n-]c1[O-] (3D coordinates assigned)
C=c1ncc(C(=O)N2CCN(CCOC)CC2)cc1=Cc1[n-]c(=O)[n-]c1[O-] (nonaromatic ring conformer: 107.40307590265746 kcal/mol)

>  <smiles>  (2799) 
C=c1ncc(C(=O)N2CCN(CCOC)CC2)cc1=Cc1[nH]c(=O)[nH]c1O

>  <score_type>  (2799) 
oracle

>  <origin>  (2799) 
adg

>  <m_score__min__energy>  (2799) 
-16.059999999999999

>  <m_primary>  (2799) 
energy

$$$$
34:0
     RDKit          3D

 33 36  0  0  0  0  0  0  0  0999 V2000
   57.6920   24.6860   47.3110 C   0  0  0  0  0  0  0  0  0  0  0  0
   57.9160   25.6150   46.3670 C   0  0  0  0  0  0  0  0  0  0  0  0
   57.5250   25.5450   45.0220 C   0  0  0  0  0  0  0  0  0  0  0  0
   56.6590   24.7250   44.3940 C   0  0  0  0  0  0  0  0  0  0  0  0
   55.2930   24.4110   44.8470 C   0  0  0  0  0  0  0  0  0  0  0  0
   54.6980   23.2110   44.7200 N   0  0  0  0  0  0  0  0  0  0  0  0
   53.5330   23.3690   45.3840 C   0  0  0  0  0  0  0  0  0  0  0  0
   52.6770   22.4520   45.4780 O   0  0  0  0  0  0  0  0  0  0  0  0
   53.3620   24.5850   45.9490 N   0  0  0  0  0  0  0  0  0  0  0  0
   54.4920   25.2260   45.6090 C   0  0  0  0  0  0  0  0  0  0  0  0
   54.7860   26.5280   45.9940 O   0  0  0  0  0  0  0  0  0  0  0  0
   58.2170   26.5450   44.3670 C   0  0  0  0  0  0  0  0  0  0  0  0
   58.9480   27.2310   45.3200 C   0  0  0  0  0  0  0  0  0  0  0  0
   59.8730   28.3570   45.0170 C   0  0  0  0  0  0  0  0  0  0  0  0
   61.1190   28.1890   45.0910 O   0  0  0  0  0  0  0  0  0  0  0  0
   59.3580   29.6970   44.5670 C   0  0  0  0  0  0  0  0  0  0  0  0
   57.9110   29.9500   45.0230 C   0  0  0  0  0  0  0  0  0  0  0  0
   57.7640   31.1680   45.9490 C   0  0  0  0  0  0  0  0  0  0  0  0
   57.1940   32.3240   45.2190 N   0  0  0  0  0  0  0  0  0  0  0  0
   56.8430   33.4410   46.1190 C   0  0  0  0  0  0  0  0  0  0  0  0
   58.0920   34.1200   46.7260 C   0  0  0  0  0  0  0  0  0  0  0  0
   59.3040   33.8440   45.9280 N   0  0  0  0  0  0  0  0  0  0  0  0
   60.4790   34.6430   46.3450 C   0  0  0  0  0  0  0  0  0  0  0  0
   61.5730   33.8320   47.0100 C   0  0  0  0  0  0  0  0  0  0  0  0
   61.2950   33.0660   48.1550 C   0  0  0  0  0  0  0  0  0  0  0  0
   62.3080   32.3210   48.7690 C   0  0  0  0  0  0  0  0  0  0  0  0
   63.6050   32.3420   48.2500 C   0  0  0  0  0  0  0  0  0  0  0  0
   63.8940   33.1110   47.1200 C   0  0  0  0  0  0  0  0  0  0  0  0
   62.8840   33.8570   46.5040 C   0  0  0  0  0  0  0  0  0  0  0  0
   59.0290   33.9010   44.4840 C   0  0  0  0  0  0  0  0  0  0  0  0
   58.0490   32.7740   44.0920 C   0  0  0  0  0  0  0  0  0  0  0  0
   58.7310   26.6900   46.5460 N   0  0  0  0  0  0  0  0  0  0  0  0
   59.3230   27.1440   47.8120 C   0  0  0  0  0  0  0  0  0  0  0  0
  1  2  2  0
  2  3  1  0
  3  4  2  0
  4  5  1  0
  5  6  1  0
  6  7  1  0
  7  8  2  0
  7  9  1  0
  9 10  1  0
 10 11  1  0
  3 12  1  0
 12 13  2  0
 13 14  1  0
 14 15  2  0
 14 16  1  0
 16 17  1  0
 17 18  1  0
 18 19  1  0
 19 20  1  0
 20 21  1  0
 21 22  1  0
 22 23  1  0
 23 24  1  0
 24 25  2  0
 25 26  1  0
 26 27  2  0
 27 28  1  0
 28 29  2  0
 22 30  1  0
 30 31  1  0
 13 32  1  0
 32 33  1  0
 32  2  1  0
 10  5  2  0
 31 19  1  0
 29 24  1  0
M  CHG  3   6  -1   9  -1  11  -1
M  END
>  <UniqueID>  (2800) 
32

>  <SMILES>  (2800) 
C=c1/c(=C\c2[n-]c(=O)[n-]c2[O-])cc(C(=O)CCCN2CCN(Cc3ccccc3)CC2)n1C

>  <Energy>  (2800) 
146.10455516041563

>  <Genealogy>  (2800) 
C=c1c(=Cc2[n-]c(=O)[n-]c2[O-])cc(C(=O)CCCN2CCN(Cc3ccccc3)CC2)n1C (protonated)
C=c1/c(=C\c2[n-]c(=O)[n-]c2[O-])cc(C(=O)CCCN2CCN(Cc3ccccc3)CC2)n1C (cis-trans isomerization)
C=c1/c(=C\c2[n-]c(=O)[n-]c2[O-])cc(C(=O)CCCN2CCN(Cc3ccccc3)CC2)n1C (3D coordinates assigned)
C=c1/c(=C\c2[n-]c(=O)[n-]c2[O-])cc(C(=O)CCCN2CCN(Cc3ccccc3)CC2)n1C (nonaromatic ring conformer: 146.10455516041563 kcal/mol)

>  <smiles>  (2800) 
C=c1c(=Cc2[nH]c(=O)[nH]c2O)cc(C(=O)CCCN2CCN(Cc3ccccc3)CC2)n1C

>  <score_type>  (2800) 
oracle

>  <origin>  (2800) 
adg

>  <m_score__min__energy>  (2800) 
-19.239999999999998

>  <m_primary>  (2800) 
energy

$$$$
46:0
     RDKit          3D

 31 35  0  0  0  0  0  0  0  0999 V2000
   54.4930   28.2810   53.1650 C   0  0  0  0  0  0  0  0  0  0  0  0
   54.8280   29.5580   52.9190 C   0  0  0  0  0  0  0  0  0  0  0  0
   53.9880   30.5330   52.3570 C   0  0  0  0  0  0  0  0  0  0  0  0
   52.6550   30.5460   52.1560 C   0  0  0  0  0  0  0  0  0  0  0  0
   51.9800   30.9290   50.9050 C   0  0  0  0  0  0  0  0  0  0  0  0
   51.8640   30.1380   49.8220 N   0  0  0  0  0  0  0  0  0  0  0  0
   51.0660   30.8520   48.9990 C   0  0  0  0  0  0  0  0  0  0  0  0
   50.7320   30.4430   47.8560 O   0  0  0  0  0  0  0  0  0  0  0  0
   50.6450   32.0330   49.5010 N   0  0  0  0  0  0  0  0  0  0  0  0
   51.2220   32.0580   50.7130 C   0  0  0  0  0  0  0  0  0  0  0  0
   51.0540   33.0890   51.6280 O   0  0  0  0  0  0  0  0  0  0  0  0
   54.8000   31.5960   52.0190 C   0  0  0  0  0  0  0  0  0  0  0  0
   56.0720   31.2820   52.4460 C   0  0  0  0  0  0  0  0  0  0  0  0
   57.2430   32.1570   52.2250 C   0  0  0  0  0  0  0  0  0  0  0  0
   57.3990   33.1640   52.9680 O   0  0  0  0  0  0  0  0  0  0  0  0
   58.2330   31.8500   51.2200 N   0  0  0  0  0  0  0  0  0  0  0  0
   58.0330   30.7150   50.3030 C   0  0  0  0  0  0  0  0  0  0  0  0
   58.5990   31.0280   48.9210 C   0  0  0  0  0  0  0  0  0  0  0  0
   60.0380   31.4330   49.0400 C   0  0  0  0  0  0  0  0  0  0  0  0
   60.9590   31.0860   48.0380 C   0  0  0  0  0  0  0  0  0  0  0  0
   62.2930   31.4910   48.1410 C   0  0  0  0  0  0  0  0  0  0  0  0
   62.7100   32.2550   49.2330 C   0  0  0  0  0  0  0  0  0  0  0  0
   61.7950   32.6180   50.2250 C   0  0  0  0  0  0  0  0  0  0  0  0
   60.4550   32.2050   50.1390 C   0  0  0  0  0  0  0  0  0  0  0  0
   59.4680   32.6560   51.1910 C   0  0  0  0  0  0  0  0  0  0  0  0
   56.1000   30.0500   53.0180 N   0  0  0  0  0  0  0  0  0  0  0  0
   57.2980   29.4260   53.6270 C   0  0  0  0  0  0  0  0  0  0  0  0
   58.0170   30.3510   54.6130 C   0  0  0  0  0  0  0  0  0  0  0  0
   59.5020   30.2940   54.2600 C   0  0  0  0  0  0  0  0  0  0  0  0
   59.6760   29.1480   53.2700 C   0  0  0  0  0  0  0  0  0  0  0  0
   58.3280   28.9650   52.5940 C   0  0  0  0  0  0  0  0  0  0  0  0
  1  2  2  0
  2  3  1  0
  3  4  2  3
  4  5  1  0
  5  6  1  0
  6  7  1  0
  7  8  2  0
  7  9  1  0
  9 10  1  0
 10 11  1  0
  3 12  1  0
 12 13  2  0
 13 14  1  0
 14 15  2  0
 14 16  1  0
 16 17  1  0
 17 18  1  0
 18 19  1  0
 19 20  2  0
 20 21  1  0
 21 22  2  0
 22 23  1  0
 23 24  2  0
 24 25  1  0
 13 26  1  0
 26 27  1  0
 27 28  1  0
 28 29  1  0
 29 30  1  0
 30 31  1  0
 26  2  1  0
 31 27  1  0
 10  5  2  0
 25 16  1  0
 24 19  1  0
M  CHG  3   6  -1   9  -1  11  -1
M  END
>  <UniqueID>  (2801) 
43

>  <SMILES>  (2801) 
C=c1c(=Cc2[n-]c(=O)[n-]c2[O-])cc(C(=O)N2CCc3ccccc3C2)n1C1CCCC1

>  <Energy>  (2801) 
139.20493030529616

>  <Genealogy>  (2801) 
C=c1c(=Cc2[n-]c(=O)[n-]c2[O-])cc(C(=O)N2CCc3ccccc3C2)n1C1CCCC1 (protonated)
C=c1c(=Cc2[n-]c(=O)[n-]c2[O-])cc(C(=O)N2CCc3ccccc3C2)n1C1CCCC1 (3D coordinates assigned)
C=c1c(=Cc2[n-]c(=O)[n-]c2[O-])cc(C(=O)N2CCc3ccccc3C2)n1C1CCCC1 (nonaromatic ring conformer: 139.20493030529616 kcal/mol)

>  <smiles>  (2801) 
C=c1c(=Cc2[nH]c(=O)[nH]c2O)cc(C(=O)N2CCc3ccccc3C2)n1C1CCCC1

>  <score_type>  (2801) 
oracle

>  <origin>  (2801) 
adg

>  <m_score__min__energy>  (2801) 
-17.629999999999999

>  <m_primary>  (2801) 
energy

$$$$
60:0
     RDKit          3D

 31 34  0  0  0  0  0  0  0  0999 V2000
   58.4370   29.9240   47.2010 C   0  0  0  0  0  0  0  0  0  0  0  0
   58.0180   30.5650   46.0980 C   0  0  0  0  0  0  0  0  0  0  0  0
   57.2920   30.0170   45.0280 C   0  0  0  0  0  0  0  0  0  0  0  0
   56.6400   28.8430   44.9120 C   0  0  0  0  0  0  0  0  0  0  0  0
   57.0260   27.5820   45.5650 C   0  0  0  0  0  0  0  0  0  0  0  0
   58.2840   27.2460   45.9010 N   0  0  0  0  0  0  0  0  0  0  0  0
   58.1260   26.0920   46.5880 C   0  0  0  0  0  0  0  0  0  0  0  0
   59.0970   25.4480   47.0630 O   0  0  0  0  0  0  0  0  0  0  0  0
   56.8450   25.6900   46.7320 N   0  0  0  0  0  0  0  0  0  0  0  0
   56.1620   26.6530   46.0910 C   0  0  0  0  0  0  0  0  0  0  0  0
   54.7760   26.6830   45.9940 O   0  0  0  0  0  0  0  0  0  0  0  0
   57.3280   30.9590   44.0130 C   0  0  0  0  0  0  0  0  0  0  0  0
   57.9900   32.0610   44.5130 C   0  0  0  0  0  0  0  0  0  0  0  0
   58.2240   33.3290   43.7480 C   0  0  0  0  0  0  0  0  0  0  0  0
   58.4100   31.8260   45.7760 N   0  0  0  0  0  0  0  0  0  0  0  0
   59.1520   32.7410   46.6020 C   0  0  0  0  0  0  0  0  0  0  0  0
   58.5260   33.4130   47.6580 C   0  0  0  0  0  0  0  0  0  0  0  0
   59.2670   34.2890   48.4500 C   0  0  0  0  0  0  0  0  0  0  0  0
   60.5880   34.4870   48.1950 N   0  0  0  0  0  0  0  0  0  0  0  0
   61.2360   33.8540   47.1790 C   0  0  0  0  0  0  0  0  0  0  0  0
   62.5030   34.1040   47.0000 N   0  0  0  0  0  0  0  0  0  0  0  0
   63.6020   33.1370   46.9640 C   0  0  0  0  0  0  0  0  0  0  0  0
   64.3340   33.0950   48.3140 C   0  0  0  0  0  0  0  0  0  0  0  0
   63.7220   32.0930   49.3140 C   0  0  0  0  0  0  0  0  0  0  0  0
   62.2420   32.1860   49.3970 N   0  0  2  0  0  0  0  0  0  0  0  0
   61.7380   32.2450   50.7850 C   0  0  0  0  0  0  0  0  0  0  0  0
   60.5540   31.2800   50.9120 C   0  0  0  0  0  0  0  0  0  0  0  0
   60.6850   30.3080   49.7570 C   0  0  0  0  0  0  0  0  0  0  0  0
   61.6290   31.0040   48.8590 C   0  0  0  0  0  0  0  0  0  0  0  0
   61.8230   30.6330   47.7110 O   0  0  0  0  0  0  0  0  0  0  0  0
   60.5150   32.9620   46.3580 C   0  0  0  0  0  0  0  0  0  0  0  0
  1  2  2  0
  2  3  1  0
  3  4  2  3
  4  5  1  0
  5  6  1  0
  6  7  1  0
  7  8  2  0
  7  9  1  0
  9 10  1  0
 10 11  1  0
  3 12  1  0
 12 13  2  0
 13 14  1  0
 13 15  1  0
 15 16  1  0
 16 17  1  0
 17 18  2  0
 18 19  1  0
 19 20  1  0
 20 21  2  3
 21 22  1  0
 22 23  1  0
 23 24  1  0
 25 24  1  1
 25 26  1  0
 26 27  1  0
 27 28  1  0
 28 29  1  0
 29 30  2  0
 20 31  1  0
 15  2  1  0
 31 16  2  0
 10  5  2  0
 29 25  1  0
M  CHG  5   6  -1   9  -1  11  -1  19  -1  25   1
M  END
>  <UniqueID>  (2802) 
56

>  <SMILES>  (2802) 
C=c1c(=Cc2[n-]c(=O)[n-]c2[O-])cc(C)n1-c1cc[n-]c(=NCCC[N@@H+]2CCCC2=O)c1

>  <Energy>  (2802) 
136.55390741639428

>  <Genealogy>  (2802) 
C=c1c(=Cc2[n-]c(=O)[n-]c2[O-])cc(C)n1-c1cc[n-]c(=NCCC[NH+]2CCCC2=O)c1 (protonated)
C=c1c(=Cc2[n-]c(=O)[n-]c2[O-])cc(C)n1-c1cc[n-]c(=NCCC[N@@H+]2CCCC2=O)c1 (chirality)
C=c1c(=Cc2[n-]c(=O)[n-]c2[O-])cc(C)n1-c1cc[n-]c(=NCCC[N@@H+]2CCCC2=O)c1 (3D coordinates assigned)
C=c1c(=Cc2[n-]c(=O)[n-]c2[O-])cc(C)n1-c1cc[n-]c(=NCCC[N@@H+]2CCCC2=O)c1 (nonaromatic ring conformer: 136.55390741639428 kcal/mol)

>  <smiles>  (2802) 
C=c1c(=Cc2[nH]c(=O)[nH]c2O)cc(C)n1-c1cc[nH]c(=NCCCN2CCCC2=O)c1

>  <score_type>  (2802) 
oracle

>  <origin>  (2802) 
adg

>  <m_score__min__energy>  (2802) 
-15.390000000000001

>  <m_primary>  (2802) 
energy

$$$$
63:0
     RDKit          3D

 37 41  0  0  0  0  0  0  0  0999 V2000
   60.7340   28.5760   49.3560 O   0  0  0  0  0  0  0  0  0  0  0  0
   60.0080   28.6690   48.3310 C   0  0  0  0  0  0  0  0  0  0  0  0
   59.2480   27.4670   47.8510 C   0  0  0  0  0  0  0  0  0  0  0  0
   59.2860   27.3610   46.3240 C   0  0  0  0  0  0  0  0  0  0  0  0
   58.0710   27.9370   45.7510 N   0  0  0  0  0  0  0  0  0  0  0  0
   57.9310   29.1330   45.1590 C   0  0  0  0  0  0  0  0  0  0  0  0
   58.9740   30.0170   44.9040 O   0  0  0  0  0  0  0  0  0  0  0  0
   56.6010   29.3290   44.8530 C   0  0  0  0  0  0  0  0  0  0  0  0
   56.0160   30.5010   44.1320 C   0  0  0  0  0  0  0  0  0  0  0  0
   57.0690   31.5410   43.9090 C   0  0  0  0  0  0  0  0  0  0  0  0
   57.6260   31.9120   42.6880 C   0  0  0  0  0  0  0  0  0  0  0  0
   58.4850   32.9430   42.8560 N   0  0  0  0  0  0  0  0  0  0  0  0
   58.4660   33.2330   44.1690 C   0  0  0  0  0  0  0  0  0  0  0  0
   59.1750   34.2400   44.8230 C   0  0  0  0  0  0  0  0  0  0  0  0
   58.9880   34.3810   46.2110 C   0  0  0  0  0  0  0  0  0  0  0  0
   58.1010   33.5280   46.9030 C   0  0  0  0  0  0  0  0  0  0  0  0
   57.3950   32.5240   46.2170 C   0  0  0  0  0  0  0  0  0  0  0  0
   57.6080   32.4030   44.8440 C   0  0  0  0  0  0  0  0  0  0  0  0
   55.8860   28.2520   45.2470 N   0  0  0  0  0  0  0  0  0  0  0  0
   56.8150   27.4380   45.7960 C   0  0  0  0  0  0  0  0  0  0  0  0
   56.5290   26.3220   46.3080 O   0  0  0  0  0  0  0  0  0  0  0  0
   59.8920   29.9220   47.6410 N   0  0  0  0  0  0  0  0  0  0  0  0
   60.6390   31.1030   48.0710 C   0  0  0  0  0  0  0  0  0  0  0  0
   59.9180   31.8080   49.1970 C   0  0  0  0  0  0  0  0  0  0  0  0
   58.6720   31.3100   49.6220 C   0  0  0  0  0  0  0  0  0  0  0  0
   57.9710   31.9340   50.6560 C   0  0  0  0  0  0  0  0  0  0  0  0
   58.5060   33.0560   51.2870 C   0  0  0  0  0  0  0  0  0  0  0  0
   59.7500   33.5510   50.8930 C   0  0  0  0  0  0  0  0  0  0  0  0
   60.4710   32.9380   49.8540 C   0  0  0  0  0  0  0  0  0  0  0  0
   61.7950   33.4920   49.4880 C   0  0  0  0  0  0  0  0  0  0  0  0
   61.8510   34.5940   48.8800 O   0  0  0  0  0  0  0  0  0  0  0  0
   63.0150   32.7890   49.8030 N   0  0  0  0  0  0  0  0  0  0  0  0
   63.0560   31.7990   50.8850 C   0  0  0  0  0  0  0  0  0  0  0  0
   64.4510   31.7760   51.5200 C   0  0  0  0  0  0  0  0  0  0  0  0
   65.4510   31.6220   50.5310 O   0  0  0  0  0  0  0  0  0  0  0  0
   65.4630   32.7580   49.6860 C   0  0  0  0  0  0  0  0  0  0  0  0
   64.1590   32.8560   48.8900 C   0  0  0  0  0  0  0  0  0  0  0  0
  1  2  2  0
  2  3  1  0
  3  4  1  0
  4  5  1  0
  5  6  1  0
  6  7  1  0
  6  8  2  0
  8  9  1  0
  9 10  1  0
 10 11  2  0
 11 12  1  0
 12 13  1  0
 13 14  2  0
 14 15  1  0
 15 16  2  0
 16 17  1  0
 17 18  2  0
  8 19  1  0
 19 20  1  0
 20 21  2  0
  2 22  1  0
 22 23  1  0
 23 24  1  0
 24 25  2  0
 25 26  1  0
 26 27  2  0
 27 28  1  0
 28 29  2  0
 29 30  1  0
 30 31  2  0
 30 32  1  0
 32 33  1  0
 33 34  1  0
 34 35  1  0
 35 36  1  0
 36 37  1  0
 20  5  1  0
 29 24  1  0
 37 32  1  0
 18 10  1  0
 18 13  1  0
M  CHG  2   7  -1  19  -1
M  END
>  <UniqueID>  (2803) 
59

>  <SMILES>  (2803) 
O=C(CCn1c([O-])c(Cc2c[nH]c3ccccc23)[n-]c1=O)NCc1ccccc1C(=O)N1CCOCC1

>  <Energy>  (2803) 
135.12475572072165

>  <Genealogy>  (2803) 
O=C(CCn1c([O-])c(Cc2c[nH]c3ccccc23)[n-]c1=O)NCc1ccccc1C(=O)N1CCOCC1 (protonated)
O=C(CCn1c([O-])c(Cc2c[nH]c3ccccc23)[n-]c1=O)NCc1ccccc1C(=O)N1CCOCC1 (3D coordinates assigned)
O=C(CCn1c([O-])c(Cc2c[nH]c3ccccc23)[n-]c1=O)NCc1ccccc1C(=O)N1CCOCC1 (nonaromatic ring conformer: 135.12475572072165 kcal/mol)

>  <smiles>  (2803) 
O=C(CCn1c(O)c(Cc2c[nH]c3ccccc23)[nH]c1=O)NCc1ccccc1C(=O)N1CCOCC1

>  <score_type>  (2803) 
oracle

>  <origin>  (2803) 
adg

>  <m_score__min__energy>  (2803) 
-14.300000000000001

>  <m_primary>  (2803) 
energy

$$$$
86:0
     RDKit          3D

 28 31  0  0  0  0  0  0  0  0999 V2000
   56.2360   28.9130   45.1240 O   0  0  0  0  0  0  0  0  0  0  0  0
   57.2860   28.9360   45.8210 C   0  0  0  0  0  0  0  0  0  0  0  0
   57.5290   27.8530   46.8220 C   0  0  0  0  0  0  0  0  0  0  0  0
   57.2760   26.5500   46.2090 N   0  0  0  0  0  0  0  0  0  0  0  0
   58.2010   25.6550   45.7940 C   0  0  0  0  0  0  0  0  0  0  0  0
   59.5740   25.8110   45.9650 O   0  0  0  0  0  0  0  0  0  0  0  0
   57.5890   24.5880   45.1640 C   0  0  0  0  0  0  0  0  0  0  0  0
   56.2400   24.8460   45.1770 C   0  0  0  0  0  0  0  0  0  0  0  0
   56.0770   26.0610   45.8140 C   0  0  0  0  0  0  0  0  0  0  0  0
   54.8620   26.7110   46.0090 O   0  0  0  0  0  0  0  0  0  0  0  0
   55.2110   23.9690   44.5400 C   0  0  0  0  0  0  0  0  0  0  0  0
   55.8270   22.7030   43.9740 C   0  0  0  0  0  0  0  0  0  0  0  0
   57.1550   22.4500   43.9590 C   0  0  0  0  0  0  0  0  0  0  0  0
   58.2070   23.3990   44.5000 C   0  0  0  0  0  0  0  0  0  0  0  0
   58.3050   29.9180   45.5920 N   0  0  0  0  0  0  0  0  0  0  0  0
   58.1600   31.3470   45.6210 C   0  0  0  0  0  0  0  0  0  0  0  0
   57.2170   32.0080   44.8120 C   0  0  0  0  0  0  0  0  0  0  0  0
   57.0730   33.3960   44.8830 C   0  0  0  0  0  0  0  0  0  0  0  0
   57.8590   34.1370   45.7660 C   0  0  0  0  0  0  0  0  0  0  0  0
   58.7860   33.4920   46.5910 C   0  0  0  0  0  0  0  0  0  0  0  0
   58.9320   32.0980   46.5360 C   0  0  0  0  0  0  0  0  0  0  0  0
   59.9330   31.4320   47.3970 C   0  0  0  0  0  0  0  0  0  0  0  0
   59.5550   30.4960   48.1550 O   0  0  0  0  0  0  0  0  0  0  0  0
   61.3110   31.8530   47.4160 N   0  0  0  0  0  0  0  0  0  0  0  0
   61.8070   33.0490   46.7530 C   0  0  0  0  0  0  0  0  0  0  0  0
   63.2890   33.1240   47.0930 C   0  0  0  0  0  0  0  0  0  0  0  0
   63.4850   32.2060   48.2960 C   0  0  0  0  0  0  0  0  0  0  0  0
   62.3080   31.2370   48.2760 C   0  0  0  0  0  0  0  0  0  0  0  0
  1  2  2  0
  2  3  1  0
  3  4  1  0
  4  5  1  0
  5  6  1  0
  5  7  2  0
  7  8  1  0
  8  9  2  0
  9 10  1  0
  8 11  1  0
 11 12  1  0
 12 13  2  0
 13 14  1  0
  2 15  1  0
 15 16  1  0
 16 17  2  0
 17 18  1  0
 18 19  2  0
 19 20  1  0
 20 21  2  0
 21 22  1  0
 22 23  2  0
 22 24  1  0
 24 25  1  0
 25 26  1  0
 26 27  1  0
 27 28  1  0
  9  4  1  0
 21 16  1  0
 28 24  1  0
 14  7  1  0
M  CHG  3   6  -1  10  -1  15  -1
M  END
>  <UniqueID>  (2804) 
79

>  <SMILES>  (2804) 
O=C(Cn1c([O-])c2c(c1[O-])CC=CC2)[N-]c1ccccc1C(=O)N1CCCC1

>  <Energy>  (2804) 
89.54181538454615

>  <Genealogy>  (2804) 
O=C(Cn1c([O-])c2c(c1[O-])CC=CC2)[N-]c1ccccc1C(=O)N1CCCC1 (protonated)
O=C(Cn1c([O-])c2c(c1[O-])CC=CC2)[N-]c1ccccc1C(=O)N1CCCC1 (3D coordinates assigned)
O=C(Cn1c([O-])c2c(c1[O-])CC=CC2)[N-]c1ccccc1C(=O)N1CCCC1 (nonaromatic ring conformer: 89.54181538454615 kcal/mol)

>  <smiles>  (2804) 
O=C(Cn1c(O)c2c(c1O)CC=CC2)Nc1ccccc1C(=O)N1CCCC1

>  <score_type>  (2804) 
oracle

>  <origin>  (2804) 
adg

>  <m_score__min__energy>  (2804) 
-14.470000000000001

>  <m_primary>  (2804) 
energy

$$$$
3:0
     RDKit          3D

 29 32  0  0  0  0  0  0  0  0999 V2000
   52.7230   30.9090   54.8450 C   0  0  0  0  0  0  0  0  0  0  0  0
   52.2590   29.7740   54.3020 C   0  0  0  0  0  0  0  0  0  0  0  0
   51.0550   29.5900   53.5990 C   0  0  0  0  0  0  0  0  0  0  0  0
   50.0150   30.4210   53.3890 C   0  0  0  0  0  0  0  0  0  0  0  0
   50.0670   31.8890   53.4170 C   0  0  0  0  0  0  0  0  0  0  0  0
   49.9660   32.6150   54.5430 N   0  0  0  0  0  0  0  0  0  0  0  0
   50.1930   33.8790   54.1190 C   0  0  0  0  0  0  0  0  0  0  0  0
   50.1670   34.8690   54.8960 O   0  0  0  0  0  0  0  0  0  0  0  0
   50.4620   33.9960   52.8010 N   0  0  0  0  0  0  0  0  0  0  0  0
   50.3940   32.7250   52.3740 C   0  0  0  0  0  0  0  0  0  0  0  0
   50.6470   32.3350   51.0640 O   0  0  0  0  0  0  0  0  0  0  0  0
   51.0840   28.2940   53.1120 C   0  0  0  0  0  0  0  0  0  0  0  0
   52.2550   27.7210   53.5640 C   0  0  0  0  0  0  0  0  0  0  0  0
   52.6950   26.3200   53.2660 C   0  0  0  0  0  0  0  0  0  0  0  0
   52.9680   28.6140   54.2800 N   0  0  0  0  0  0  0  0  0  0  0  0
   54.2780   28.3820   54.8260 C   0  0  0  0  0  0  0  0  0  0  0  0
   54.3950   27.6700   55.8580 O   0  0  0  0  0  0  0  0  0  0  0  0
   55.4510   28.9320   54.1960 N   0  0  0  0  0  0  0  0  0  0  0  0
   55.4800   29.1850   52.7460 C   0  0  0  0  0  0  0  0  0  0  0  0
   56.1300   30.5450   52.4570 C   0  0  0  0  0  0  0  0  0  0  0  0
   57.2970   30.7840   53.3200 N   0  0  0  0  0  0  0  0  0  0  0  0
   57.8590   32.1090   53.4020 C   0  0  0  0  0  0  0  0  0  0  0  0
   57.8340   32.9620   52.2860 C   0  0  0  0  0  0  0  0  0  0  0  0
   58.4000   34.2340   52.3770 C   0  0  0  0  0  0  0  0  0  0  0  0
   58.9930   34.6440   53.5690 C   0  0  0  0  0  0  0  0  0  0  0  0
   59.0170   33.7710   54.6560 C   0  0  0  0  0  0  0  0  0  0  0  0
   58.4590   32.5330   54.5540 N   0  0  0  0  0  0  0  0  0  0  0  0
   57.8140   29.6870   54.1500 C   0  0  0  0  0  0  0  0  0  0  0  0
   56.6770   29.1050   54.9930 C   0  0  0  0  0  0  0  0  0  0  0  0
  1  2  2  0
  2  3  1  0
  3  4  2  3
  4  5  1  0
  5  6  1  0
  6  7  1  0
  7  8  2  0
  7  9  1  0
  9 10  1  0
 10 11  1  0
  3 12  1  0
 12 13  2  0
 13 14  1  0
 13 15  1  0
 15 16  1  0
 16 17  2  0
 16 18  1  0
 18 19  1  0
 19 20  1  0
 20 21  1  0
 21 22  1  0
 22 23  2  0
 23 24  1  0
 24 25  2  0
 25 26  1  0
 26 27  2  0
 21 28  1  0
 28 29  1  0
 15  2  1  0
 29 18  1  0
 10  5  2  0
 27 22  1  0
M  CHG  4   6  -1   9  -1  11  -1  27   1
M  END
>  <UniqueID>  (2805) 
4

>  <SMILES>  (2805) 
C=c1c(=Cc2[n-]c(=O)[n-]c2[O-])cc(C)n1C(=O)N1CCN(c2cccc[nH+]2)CC1

>  <Energy>  (2805) 
131.66606213495695

>  <Genealogy>  (2805) 
C=c1c(=Cc2[n-]c(=O)[n-]c2[O-])cc(C)n1C(=O)N1CCN(c2cccc[nH+]2)CC1 (protonated)
C=c1c(=Cc2[n-]c(=O)[n-]c2[O-])cc(C)n1C(=O)N1CCN(c2cccc[nH+]2)CC1 (3D coordinates assigned)
C=c1c(=Cc2[n-]c(=O)[n-]c2[O-])cc(C)n1C(=O)N1CCN(c2cccc[nH+]2)CC1 (nonaromatic ring conformer: 131.66606213495695 kcal/mol)

>  <smiles>  (2805) 
C=c1c(=Cc2[nH]c(=O)[nH]c2O)cc(C)n1C(=O)N1CCN(c2ccccn2)CC1

>  <score_type>  (2805) 
oracle

>  <origin>  (2805) 
adg

>  <m_score__min__energy>  (2805) 
-14.859999999999999

>  <m_primary>  (2805) 
energy

$$$$
7:0
     RDKit          3D

 33 36  0  0  0  0  0  0  0  0999 V2000
   59.1990   29.6760   44.6070 C   0  0  0  0  0  0  0  0  0  0  0  0
   58.9950   29.4070   45.9070 C   0  0  0  0  0  0  0  0  0  0  0  0
   58.3860   28.2520   46.4120 C   0  0  0  0  0  0  0  0  0  0  0  0
   57.9340   27.1900   45.7150 C   0  0  0  0  0  0  0  0  0  0  0  0
   57.2400   26.0400   46.3220 C   0  0  0  0  0  0  0  0  0  0  0  0
   57.8780   24.9400   46.7580 N   0  0  0  0  0  0  0  0  0  0  0  0
   56.8730   24.1280   47.1480 C   0  0  0  0  0  0  0  0  0  0  0  0
   57.0740   22.9860   47.6360 O   0  0  0  0  0  0  0  0  0  0  0  0
   55.6330   24.6310   46.9650 N   0  0  0  0  0  0  0  0  0  0  0  0
   55.8810   25.8370   46.4300 C   0  0  0  0  0  0  0  0  0  0  0  0
   54.8840   26.7090   46.0070 O   0  0  0  0  0  0  0  0  0  0  0  0
   58.3980   28.3750   47.7900 C   0  0  0  0  0  0  0  0  0  0  0  0
   58.9710   29.5970   48.0790 C   0  0  0  0  0  0  0  0  0  0  0  0
   59.2280   30.0990   49.4440 C   0  0  0  0  0  0  0  0  0  0  0  0
   58.2550   30.5730   50.0930 O   0  0  0  0  0  0  0  0  0  0  0  0
   60.5360   30.0440   50.0620 N   0  0  0  0  0  0  0  0  0  0  0  0
   61.2060   28.7420   50.1610 C   0  0  0  0  0  0  0  0  0  0  0  0
   61.2150   31.2410   50.5860 C   0  0  0  0  0  0  0  0  0  0  0  0
   62.0070   31.9300   49.5150 C   0  0  0  0  0  0  0  0  0  0  0  0
   62.6590   31.1920   48.5740 N   0  0  0  0  0  0  0  0  0  0  0  0
   63.3620   31.7710   47.5660 C   0  0  0  0  0  0  0  0  0  0  0  0
   63.4180   33.1630   47.4630 C   0  0  0  0  0  0  0  0  0  0  0  0
   62.7620   33.9440   48.4160 C   0  0  0  0  0  0  0  0  0  0  0  0
   62.0600   33.3310   49.4550 C   0  0  0  0  0  0  0  0  0  0  0  0
   59.3590   30.2210   46.9370 N   0  0  0  0  0  0  0  0  0  0  0  0
   60.0700   31.5120   46.8700 C   0  0  0  0  0  0  0  0  0  0  0  0
   59.2160   32.5770   46.2270 C   0  0  0  0  0  0  0  0  0  0  0  0
   57.8310   32.3800   46.0900 C   0  0  0  0  0  0  0  0  0  0  0  0
   57.0260   33.3790   45.5340 C   0  0  0  0  0  0  0  0  0  0  0  0
   57.5930   34.5850   45.1220 C   0  0  0  0  0  0  0  0  0  0  0  0
   58.9690   34.7910   45.2490 C   0  0  0  0  0  0  0  0  0  0  0  0
   59.7820   33.7900   45.7910 C   0  0  0  0  0  0  0  0  0  0  0  0
   61.1140   34.0170   45.9050 F   0  0  0  0  0  0  0  0  0  0  0  0
  1  2  2  0
  2  3  1  0
  3  4  2  0
  4  5  1  0
  5  6  1  0
  6  7  1  0
  7  8  2  0
  7  9  1  0
  9 10  1  0
 10 11  1  0
  3 12  1  0
 12 13  2  0
 13 14  1  0
 14 15  2  0
 14 16  1  0
 16 17  1  0
 16 18  1  0
 18 19  1  0
 19 20  2  0
 20 21  1  0
 21 22  2  0
 22 23  1  0
 23 24  2  0
 13 25  1  0
 25 26  1  0
 26 27  1  0
 27 28  2  0
 28 29  1  0
 29 30  2  0
 30 31  1  0
 31 32  2  0
 32 33  1  0
 25  2  1  0
 32 27  1  0
 10  5  2  0
 24 19  1  0
M  CHG  3   6  -1   9  -1  11  -1
M  END
>  <UniqueID>  (2806) 
8

>  <SMILES>  (2806) 
C=c1/c(=C/c2[n-]c(=O)[n-]c2[O-])cc(C(=O)N(C)Cc2ccccn2)n1Cc1ccccc1F

>  <Energy>  (2806) 
121.4271575387473

>  <Genealogy>  (2806) 
C=c1c(=Cc2[n-]c(=O)[n-]c2[O-])cc(C(=O)N(C)Cc2ccccn2)n1Cc1ccccc1F (protonated)
C=c1/c(=C/c2[n-]c(=O)[n-]c2[O-])cc(C(=O)N(C)Cc2ccccn2)n1Cc1ccccc1F (cis-trans isomerization)
C=c1/c(=C/c2[n-]c(=O)[n-]c2[O-])cc(C(=O)N(C)Cc2ccccn2)n1Cc1ccccc1F (3D coordinates assigned)
C=c1/c(=C/c2[n-]c(=O)[n-]c2[O-])cc(C(=O)N(C)Cc2ccccn2)n1Cc1ccccc1F (optimized conformer: 121.4271575387473 kcal/mol)

>  <smiles>  (2806) 
C=c1c(=Cc2[nH]c(=O)[nH]c2O)cc(C(=O)N(C)Cc2ccccn2)n1Cc1ccccc1F

>  <score_type>  (2806) 
oracle

>  <origin>  (2806) 
adg

>  <m_score__min__energy>  (2806) 
-17.120000000000001

>  <m_primary>  (2806) 
energy

$$$$
23:0
     RDKit          3D

 32 35  0  0  0  0  0  0  0  0999 V2000
   56.6210   29.8250   42.8700 C   0  0  0  0  0  0  0  0  0  0  0  0
   57.0930   30.4030   43.9820 C   0  0  0  0  0  0  0  0  0  0  0  0
   57.9050   29.8250   44.9600 C   0  0  0  0  0  0  0  0  0  0  0  0
   58.3780   28.5610   44.9520 C   0  0  0  0  0  0  0  0  0  0  0  0
   57.6610   27.4040   45.5250 C   0  0  0  0  0  0  0  0  0  0  0  0
   56.2700   27.4360   45.6910 C   0  0  0  0  0  0  0  0  0  0  0  0
   55.5290   28.5250   45.2490 O   0  0  0  0  0  0  0  0  0  0  0  0
   55.6340   26.3880   46.2800 N   0  0  0  0  0  0  0  0  0  0  0  0
   56.3250   25.3110   46.7300 C   0  0  0  0  0  0  0  0  0  0  0  0
   55.5360   24.0730   47.4430 S   0  0  0  0  0  0  0  0  0  0  0  0
   57.6770   25.2730   46.6150 N   0  0  0  0  0  0  0  0  0  0  0  0
   58.3590   26.2950   46.0350 C   0  0  0  0  0  0  0  0  0  0  0  0
   59.6180   26.2460   45.9810 O   0  0  0  0  0  0  0  0  0  0  0  0
   58.1110   30.8230   45.9260 C   0  0  0  0  0  0  0  0  0  0  0  0
   59.1340   30.8430   46.9940 C   0  0  0  0  0  0  0  0  0  0  0  0
   58.9040   30.2520   48.0810 O   0  0  0  0  0  0  0  0  0  0  0  0
   60.4050   31.4780   46.7930 N   0  0  0  0  0  0  0  0  0  0  0  0
   61.6300   30.8310   47.2650 C   0  0  0  0  0  0  0  0  0  0  0  0
   62.2220   31.6500   48.4200 C   0  0  0  0  0  0  0  0  0  0  0  0
   62.1760   33.1260   48.2020 N   0  0  0  0  0  0  0  0  0  0  0  0
   61.3460   33.8130   49.2170 C   0  0  0  0  0  0  0  0  0  0  0  0
   60.4850   32.8170   49.9480 C   0  0  0  0  0  0  0  0  0  0  0  0
   59.1220   32.6980   49.6260 C   0  0  0  0  0  0  0  0  0  0  0  0
   58.3130   31.7830   50.3080 C   0  0  0  0  0  0  0  0  0  0  0  0
   58.8610   30.9760   51.3090 C   0  0  0  0  0  0  0  0  0  0  0  0
   60.2160   31.0880   51.6340 C   0  0  0  0  0  0  0  0  0  0  0  0
   61.0250   32.0090   50.9630 C   0  0  0  0  0  0  0  0  0  0  0  0
   61.7960   33.5200   46.8240 C   0  0  0  0  0  0  0  0  0  0  0  0
   60.4570   32.8910   46.4010 C   0  0  0  0  0  0  0  0  0  0  0  0
   57.4140   31.9410   45.4780 C   0  0  0  0  0  0  0  0  0  0  0  0
   57.3400   33.2820   46.1440 C   0  0  0  0  0  0  0  0  0  0  0  0
   56.7900   31.6730   44.3170 N   0  0  0  0  0  0  0  0  0  0  0  0
  1  2  2  0
  2  3  1  0
  3  4  2  0
  4  5  1  0
  5  6  2  0
  6  7  1  0
  6  8  1  0
  8  9  1  0
  9 10  2  0
  9 11  1  0
 11 12  1  0
 12 13  2  0
  3 14  1  0
 14 15  1  0
 15 16  2  0
 15 17  1  0
 17 18  1  0
 18 19  1  0
 19 20  1  0
 20 21  1  0
 21 22  1  0
 22 23  2  0
 23 24  1  0
 24 25  2  0
 25 26  1  0
 26 27  2  0
 20 28  1  0
 28 29  1  0
 14 30  2  0
 30 31  1  0
 30 32  1  0
 32  2  1  0
 12  5  1  0
 29 17  1  0
 27 22  1  0
M  CHG  3   7  -1   8  -1  11  -1
M  END
>  <UniqueID>  (2807) 
24

>  <SMILES>  (2807) 
C=c1[nH]c(C)c(C(=O)N2CCN(Cc3ccccc3)CC2)/c1=C\c1c([O-])[n-]c(=S)[n-]c1=O

>  <Energy>  (2807) 
110.43691750540052

>  <Genealogy>  (2807) 
C=c1[nH]c(C)c(C(=O)N2CCN(Cc3ccccc3)CC2)c1=Cc1c([O-])[n-]c(=S)[n-]c1=O (protonated)
C=c1[nH]c(C)c(C(=O)N2CCN(Cc3ccccc3)CC2)/c1=C\c1c([O-])[n-]c(=S)[n-]c1=O (cis-trans isomerization)
C=c1[nH]c(C)c(C(=O)N2CCN(Cc3ccccc3)CC2)/c1=C\c1c([O-])[n-]c(=S)[n-]c1=O (3D coordinates assigned)
C=c1[nH]c(C)c(C(=O)N2CCN(Cc3ccccc3)CC2)/c1=C\c1c([O-])[n-]c(=S)[n-]c1=O (nonaromatic ring conformer: 110.43691750540052 kcal/mol)

>  <smiles>  (2807) 
C=c1[nH]c(C)c(C(=O)N2CCN(Cc3ccccc3)CC2)c1=Cc1c(O)[nH]c(=S)[nH]c1=O

>  <score_type>  (2807) 
oracle

>  <origin>  (2807) 
adg

>  <m_score__min__energy>  (2807) 
-16.399999999999999

>  <m_primary>  (2807) 
energy

$$$$
24:0
     RDKit          3D

 37 41  0  0  0  0  0  0  0  0999 V2000
   59.8160   29.0510   48.3210 C   0  0  0  0  0  0  0  0  0  0  0  0
   59.0580   29.7130   47.4340 C   0  0  0  0  0  0  0  0  0  0  0  0
   58.5100   29.2180   46.2380 C   0  0  0  0  0  0  0  0  0  0  0  0
   58.4330   27.9650   45.7510 C   0  0  0  0  0  0  0  0  0  0  0  0
   57.2730   27.0670   45.8760 C   0  0  0  0  0  0  0  0  0  0  0  0
   57.3120   25.8350   46.4160 N   0  0  0  0  0  0  0  0  0  0  0  0
   56.0130   25.4630   46.4350 C   0  0  0  0  0  0  0  0  0  0  0  0
   55.6350   24.3420   46.8640 O   0  0  0  0  0  0  0  0  0  0  0  0
   55.1500   26.3920   45.9710 N   0  0  0  0  0  0  0  0  0  0  0  0
   55.9640   27.4060   45.6360 C   0  0  0  0  0  0  0  0  0  0  0  0
   55.5190   28.6180   45.1240 O   0  0  0  0  0  0  0  0  0  0  0  0
   57.9800   30.3140   45.5730 C   0  0  0  0  0  0  0  0  0  0  0  0
   58.1620   31.4080   46.3940 C   0  0  0  0  0  0  0  0  0  0  0  0
   57.6960   32.8000   46.0950 C   0  0  0  0  0  0  0  0  0  0  0  0
   58.8140   31.0450   47.5180 N   0  0  0  0  0  0  0  0  0  0  0  0
   59.1680   31.9270   48.5950 C   0  0  0  0  0  0  0  0  0  0  0  0
   58.3940   31.9090   49.7630 C   0  0  0  0  0  0  0  0  0  0  0  0
   58.7130   32.7370   50.8490 C   0  0  0  0  0  0  0  0  0  0  0  0
   57.8770   32.7120   52.0710 C   0  0  0  0  0  0  0  0  0  0  0  0
   57.3650   33.7900   52.4830 O   0  0  0  0  0  0  0  0  0  0  0  0
   57.6230   31.4910   52.7910 N   0  0  0  0  0  0  0  0  0  0  0  0
   57.4590   30.2110   52.0940 C   0  0  0  0  0  0  0  0  0  0  0  0
   56.3300   29.4140   52.7520 C   0  0  0  0  0  0  0  0  0  0  0  0
   56.5430   29.2990   54.1470 O   0  0  0  0  0  0  0  0  0  0  0  0
   56.4730   30.5780   54.7510 C   0  0  0  0  0  0  0  0  0  0  0  0
   57.6100   31.4780   54.2560 C   0  0  0  0  0  0  0  0  0  0  0  0
   59.8070   33.6080   50.7450 C   0  0  0  0  0  0  0  0  0  0  0  0
   60.5830   33.6330   49.5850 C   0  0  0  0  0  0  0  0  0  0  0  0
   60.2700   32.8040   48.4970 C   0  0  0  0  0  0  0  0  0  0  0  0
   61.2840   32.8840   47.0480 S   0  0  0  0  0  0  0  0  0  0  0  0
   60.5030   33.3950   45.8690 O   0  0  0  0  0  0  0  0  0  0  0  0
   61.7990   31.5080   46.7350 O   0  0  0  0  0  0  0  0  0  0  0  0
   62.6350   33.9390   47.3260 N   0  0  0  0  0  0  0  0  0  0  0  0
   63.7940   33.1600   47.7690 C   0  0  0  0  0  0  0  0  0  0  0  0
   63.8960   33.0520   49.3020 C   0  0  0  0  0  0  0  0  0  0  0  0
   65.0600   32.2570   49.8790 C   0  0  0  0  0  0  0  0  0  0  0  0
   63.6480   31.6800   49.9150 C   0  0  0  0  0  0  0  0  0  0  0  0
  1  2  2  0
  2  3  1  0
  3  4  2  3
  4  5  1  0
  5  6  1  0
  6  7  1  0
  7  8  2  0
  7  9  1  0
  9 10  1  0
 10 11  1  0
  3 12  1  0
 12 13  2  0
 13 14  1  0
 13 15  1  0
 15 16  1  0
 16 17  2  0
 17 18  1  0
 18 19  1  0
 19 20  2  0
 19 21  1  0
 21 22  1  0
 22 23  1  0
 23 24  1  0
 24 25  1  0
 25 26  1  0
 18 27  2  0
 27 28  1  0
 28 29  2  0
 29 30  1  0
 30 31  2  0
 30 32  2  0
 30 33  1  0
 33 34  1  0
 34 35  1  0
 35 36  1  0
 36 37  1  0
 15  2  1  0
 29 16  1  0
 37 35  1  0
 10  5  2  0
 26 21  1  0
M  CHG  4   6  -1   9  -1  11  -1  33  -1
M  END
>  <UniqueID>  (2808) 
25

>  <SMILES>  (2808) 
C=c1c(=Cc2[n-]c(=O)[n-]c2[O-])cc(C)n1-c1cc(C(=O)N2CCOCC2)ccc1S(=O)(=O)[N-]CC1CC1

>  <Energy>  (2808) 
411.3006209837322

>  <Genealogy>  (2808) 
C=c1c(=Cc2[n-]c(=O)[n-]c2[O-])cc(C)n1-c1cc(C(=O)N2CCOCC2)ccc1S(=O)(=O)[N-]CC1CC1 (protonated)
C=c1c(=Cc2[n-]c(=O)[n-]c2[O-])cc(C)n1-c1cc(C(=O)N2CCOCC2)ccc1S(=O)(=O)[N-]CC1CC1 (3D coordinates assigned)
C=c1c(=Cc2[n-]c(=O)[n-]c2[O-])cc(C)n1-c1cc(C(=O)N2CCOCC2)ccc1S(=O)(=O)[N-]CC1CC1 (nonaromatic ring conformer: 411.3006209837322 kcal/mol)

>  <smiles>  (2808) 
C=c1c(=Cc2[nH]c(=O)[nH]c2O)cc(C)n1-c1cc(C(=O)N2CCOCC2)ccc1S(=O)(=O)NCC1CC1

>  <score_type>  (2808) 
oracle

>  <origin>  (2808) 
adg

>  <m_score__min__energy>  (2808) 
-18.719999999999999

>  <m_primary>  (2808) 
energy

$$$$
26:0
     RDKit          3D

 31 33  0  0  0  0  0  0  0  0999 V2000
   64.1910   33.0790   48.5330 C   0  0  0  0  0  0  0  0  0  0  0  0
   63.7210   32.7240   47.1190 C   0  0  0  0  0  0  0  0  0  0  0  0
   63.1640   33.9420   46.3710 C   0  0  0  0  0  0  0  0  0  0  0  0
   61.7210   33.8220   46.1530 N   0  0  0  0  0  0  0  0  0  0  0  0
   60.8310   33.0150   46.9350 C   0  0  0  0  0  0  0  0  0  0  0  0
   59.8840   32.4200   46.3590 O   0  0  0  0  0  0  0  0  0  0  0  0
   60.9900   32.8800   48.3530 N   0  0  0  0  0  0  0  0  0  0  0  0
   61.0400   31.5340   48.9440 C   0  0  0  0  0  0  0  0  0  0  0  0
   61.0240   31.6080   50.4730 C   0  0  0  0  0  0  0  0  0  0  0  0
   59.9580   32.5240   50.9000 N   0  0  0  0  0  0  0  0  0  0  0  0
   58.8590   32.0590   51.7110 C   0  0  0  0  0  0  0  0  0  0  0  0
   57.5300   32.2540   51.2920 C   0  0  0  0  0  0  0  0  0  0  0  0
   56.4660   31.7350   52.0370 C   0  0  0  0  0  0  0  0  0  0  0  0
   56.7080   31.0090   53.2130 C   0  0  0  0  0  0  0  0  0  0  0  0
   55.5640   30.4060   53.9870 C   0  0  0  0  0  0  0  0  0  0  0  0
   54.9590   29.2460   53.2430 C   0  0  0  0  0  0  0  0  0  0  0  0
   55.6230   28.6950   52.3270 O   0  0  0  0  0  0  0  0  0  0  0  0
   53.6650   28.7230   53.5620 N   0  0  0  0  0  0  0  0  0  0  0  0
   52.5030   29.5370   53.9100 C   0  0  0  0  0  0  0  0  0  0  0  0
   52.1010   30.3680   52.7300 C   0  0  0  0  0  0  0  0  0  0  0  0
   52.3060   29.8940   51.4240 C   0  0  0  0  0  0  0  0  0  0  0  0
   51.9420   30.6780   50.3250 C   0  0  0  0  0  0  0  0  0  0  0  0
   51.3820   31.9450   50.5200 C   0  0  0  0  0  0  0  0  0  0  0  0
   51.0130   32.7120   49.4230 O   0  0  0  0  0  0  0  0  0  0  0  0
   51.1940   32.4340   51.8170 C   0  0  0  0  0  0  0  0  0  0  0  0
   50.6460   33.6960   52.0160 O   0  0  0  0  0  0  0  0  0  0  0  0
   51.5580   31.6510   52.9190 C   0  0  0  0  0  0  0  0  0  0  0  0
   58.0300   30.8430   53.6540 C   0  0  0  0  0  0  0  0  0  0  0  0
   59.0940   31.3530   52.9050 C   0  0  0  0  0  0  0  0  0  0  0  0
   59.9020   33.8790   50.3230 C   0  0  0  0  0  0  0  0  0  0  0  0
   60.9500   34.0680   49.2150 C   0  0  0  0  0  0  0  0  0  0  0  0
  1  2  1  0
  2  3  1  0
  3  4  1  0
  4  5  1  0
  5  6  2  0
  5  7  1  0
  7  8  1  0
  8  9  1  0
  9 10  1  0
 10 11  1  0
 11 12  2  0
 12 13  1  0
 13 14  2  0
 14 15  1  0
 15 16  1  0
 16 17  2  0
 16 18  1  0
 18 19  1  0
 19 20  1  0
 20 21  2  0
 21 22  1  0
 22 23  2  0
 23 24  1  0
 23 25  1  0
 25 26  1  0
 25 27  2  0
 14 28  1  0
 28 29  2  0
 10 30  1  0
 30 31  1  0
 31  7  1  0
 29 11  1  0
 27 20  1  0
M  CHG  4   4  -1  18  -1  24  -1  26  -1
M  END
>  <UniqueID>  (2809) 
27

>  <SMILES>  (2809) 
CCC[N-]C(=O)N1CCN(c2ccc(CC(=O)[N-]Cc3ccc([O-])c([O-])c3)cc2)CC1

>  <Energy>  (2809) 
57.2795116943553

>  <Genealogy>  (2809) 
CCC[N-]C(=O)N1CCN(c2ccc(CC(=O)[N-]Cc3ccc([O-])c([O-])c3)cc2)CC1 (protonated)
CCC[N-]C(=O)N1CCN(c2ccc(CC(=O)[N-]Cc3ccc([O-])c([O-])c3)cc2)CC1 (3D coordinates assigned)
CCC[N-]C(=O)N1CCN(c2ccc(CC(=O)[N-]Cc3ccc([O-])c([O-])c3)cc2)CC1 (nonaromatic ring conformer: 57.2795116943553 kcal/mol)

>  <smiles>  (2809) 
CCCNC(=O)N1CCN(c2ccc(CC(=O)NCc3ccc(O)c(O)c3)cc2)CC1

>  <score_type>  (2809) 
oracle

>  <origin>  (2809) 
adg

>  <m_score__min__energy>  (2809) 
-19.399999999999999

>  <m_primary>  (2809) 
energy

$$$$
34:0
     RDKit          3D

 30 33  0  0  0  0  0  0  0  0999 V2000
   58.1420   27.2700   43.3780 C   0  0  0  0  0  0  0  0  0  0  0  0
   58.2850   26.7900   44.6230 C   0  0  0  0  0  0  0  0  0  0  0  0
   57.7880   25.5780   45.1310 C   0  0  0  0  0  0  0  0  0  0  0  0
   56.9180   24.6910   44.6110 C   0  0  0  0  0  0  0  0  0  0  0  0
   55.5310   24.4850   45.0610 C   0  0  0  0  0  0  0  0  0  0  0  0
   54.7980   23.3850   44.8060 N   0  0  0  0  0  0  0  0  0  0  0  0
   53.5740   23.7110   45.2770 C   0  0  0  0  0  0  0  0  0  0  0  0
   52.5980   22.9180   45.2330 O   0  0  0  0  0  0  0  0  0  0  0  0
   53.4780   24.9560   45.7910 N   0  0  0  0  0  0  0  0  0  0  0  0
   54.7220   25.4350   45.6320 C   0  0  0  0  0  0  0  0  0  0  0  0
   55.1070   26.7200   45.9940 O   0  0  0  0  0  0  0  0  0  0  0  0
   58.3730   25.4120   46.3760 C   0  0  0  0  0  0  0  0  0  0  0  0
   59.1270   26.5420   46.6190 C   0  0  0  0  0  0  0  0  0  0  0  0
   60.0080   26.7330   47.8160 C   0  0  0  0  0  0  0  0  0  0  0  0
   59.0740   27.3750   45.5580 N   0  0  0  0  0  0  0  0  0  0  0  0
   59.8260   28.5910   45.4180 C   0  0  0  0  0  0  0  0  0  0  0  0
   60.5130   28.7700   44.3760 O   0  0  0  0  0  0  0  0  0  0  0  0
   59.8180   29.5900   46.4590 N   0  0  0  0  0  0  0  0  0  0  0  0
   60.8340   30.6540   46.4340 C   0  0  0  0  0  0  0  0  0  0  0  0
   60.6370   31.6600   47.5730 C   0  0  0  0  0  0  0  0  0  0  0  0
   60.3380   30.9550   48.8260 N   0  0  0  0  0  0  0  0  0  0  0  0
   60.8720   31.4350   50.0710 C   0  0  0  0  0  0  0  0  0  0  0  0
   60.0910   31.6620   51.0340 O   0  0  0  0  0  0  0  0  0  0  0  0
   62.3240   31.6440   50.2540 C   0  0  0  0  0  0  0  0  0  0  0  0
   63.0500   32.6700   49.6250 C   0  0  0  0  0  0  0  0  0  0  0  0
   64.4050   32.6560   49.9230 C   0  0  0  0  0  0  0  0  0  0  0  0
   64.7000   31.3660   50.9570 S   0  0  0  0  0  0  0  0  0  0  0  0
   63.1160   30.8110   51.0390 C   0  0  0  0  0  0  0  0  0  0  0  0
   59.3110   29.9030   48.8530 C   0  0  0  0  0  0  0  0  0  0  0  0
   58.7380   29.6330   47.4570 C   0  0  0  0  0  0  0  0  0  0  0  0
  1  2  2  0
  2  3  1  0
  3  4  2  3
  4  5  1  0
  5  6  1  0
  6  7  1  0
  7  8  2  0
  7  9  1  0
  9 10  1  0
 10 11  1  0
  3 12  1  0
 12 13  2  0
 13 14  1  0
 13 15  1  0
 15 16  1  0
 16 17  2  0
 16 18  1  0
 18 19  1  0
 19 20  1  0
 20 21  1  0
 21 22  1  0
 22 23  2  0
 22 24  1  0
 24 25  1  0
 25 26  2  0
 26 27  1  0
 27 28  1  0
 21 29  1  0
 29 30  1  0
 15  2  1  0
 30 18  1  0
 10  5  2  0
 28 24  2  0
M  CHG  3   6  -1   9  -1  11  -1
M  END
>  <UniqueID>  (2810) 
35

>  <SMILES>  (2810) 
C=c1c(=Cc2[n-]c(=O)[n-]c2[O-])cc(C)n1C(=O)N1CCN(C(=O)c2ccsc2)CC1

>  <Energy>  (2810) 
154.9387453008278

>  <Genealogy>  (2810) 
C=c1c(=Cc2[n-]c(=O)[n-]c2[O-])cc(C)n1C(=O)N1CCN(C(=O)c2ccsc2)CC1 (protonated)
C=c1c(=Cc2[n-]c(=O)[n-]c2[O-])cc(C)n1C(=O)N1CCN(C(=O)c2ccsc2)CC1 (3D coordinates assigned)
C=c1c(=Cc2[n-]c(=O)[n-]c2[O-])cc(C)n1C(=O)N1CCN(C(=O)c2ccsc2)CC1 (nonaromatic ring conformer: 154.9387453008278 kcal/mol)

>  <smiles>  (2810) 
C=c1c(=Cc2[nH]c(=O)[nH]c2O)cc(C)n1C(=O)N1CCN(C(=O)c2ccsc2)CC1

>  <score_type>  (2810) 
oracle

>  <origin>  (2810) 
adg

>  <m_score__min__energy>  (2810) 
-15.98

>  <m_primary>  (2810) 
energy

$$$$
40:0
     RDKit          3D

 33 36  0  0  0  0  0  0  0  0999 V2000
   53.4040   28.4050   52.8380 C   0  0  0  0  0  0  0  0  0  0  0  0
   54.3430   29.3580   52.7250 C   0  0  0  0  0  0  0  0  0  0  0  0
   54.2840   30.5180   51.9350 C   0  0  0  0  0  0  0  0  0  0  0  0
   53.2610   31.0790   51.2640 C   0  0  0  0  0  0  0  0  0  0  0  0
   52.0140   31.5720   51.8690 C   0  0  0  0  0  0  0  0  0  0  0  0
   51.7180   31.4970   53.1790 N   0  0  0  0  0  0  0  0  0  0  0  0
   50.5550   32.1790   53.2710 C   0  0  0  0  0  0  0  0  0  0  0  0
   49.9400   32.3250   54.3620 O   0  0  0  0  0  0  0  0  0  0  0  0
   50.1080   32.6990   52.1090 N   0  0  0  0  0  0  0  0  0  0  0  0
   51.0510   32.3170   51.2340 C   0  0  0  0  0  0  0  0  0  0  0  0
   51.0300   32.6400   49.8830 O   0  0  0  0  0  0  0  0  0  0  0  0
   55.5620   31.0530   51.9390 C   0  0  0  0  0  0  0  0  0  0  0  0
   56.3270   30.2540   52.7610 C   0  0  0  0  0  0  0  0  0  0  0  0
   57.7760   30.4130   52.9610 C   0  0  0  0  0  0  0  0  0  0  0  0
   58.3920   29.5870   53.6870 O   0  0  0  0  0  0  0  0  0  0  0  0
   58.4930   31.4750   52.3080 N   0  0  0  0  0  0  0  0  0  0  0  0
   57.8120   32.7440   52.0460 C   0  0  0  0  0  0  0  0  0  0  0  0
   58.8170   33.8970   51.9700 C   0  0  0  0  0  0  0  0  0  0  0  0
   59.9720   33.5910   51.1040 N   0  0  0  0  0  0  0  0  0  0  0  0
   59.8870   34.0080   49.6840 C   0  0  0  0  0  0  0  0  0  0  0  0
   59.8560   32.8560   48.7110 C   0  0  0  0  0  0  0  0  0  0  0  0
   58.6370   32.2540   48.3670 C   0  0  0  0  0  0  0  0  0  0  0  0
   58.6130   31.1180   47.5550 C   0  0  0  0  0  0  0  0  0  0  0  0
   59.8080   30.5700   47.0460 C   0  0  0  0  0  0  0  0  0  0  0  0
   59.7950   29.3240   46.3010 N   0  0  0  0  0  0  0  0  0  0  0  0
   60.0170   28.0460   46.9880 C   0  0  0  0  0  0  0  0  0  0  0  0
   59.6320   29.3240   44.8430 C   0  0  0  0  0  0  0  0  0  0  0  0
   61.0180   31.2440   47.3150 C   0  0  0  0  0  0  0  0  0  0  0  0
   61.0380   32.3740   48.1380 C   0  0  0  0  0  0  0  0  0  0  0  0
   60.6380   32.3050   51.3930 C   0  0  0  0  0  0  0  0  0  0  0  0
   59.6600   31.1300   51.4920 C   0  0  0  0  0  0  0  0  0  0  0  0
   55.5870   29.2410   53.2580 N   0  0  0  0  0  0  0  0  0  0  0  0
   56.0800   28.1580   54.1150 C   0  0  0  0  0  0  0  0  0  0  0  0
  1  2  2  0
  2  3  1  0
  3  4  2  0
  4  5  1  0
  5  6  1  0
  6  7  1  0
  7  8  2  0
  7  9  1  0
  9 10  1  0
 10 11  1  0
  3 12  1  0
 12 13  2  0
 13 14  1  0
 14 15  2  0
 14 16  1  0
 16 17  1  0
 17 18  1  0
 18 19  1  0
 19 20  1  0
 20 21  1  0
 21 22  2  0
 22 23  1  0
 23 24  2  0
 24 25  1  0
 25 26  1  0
 25 27  1  0
 24 28  1  0
 28 29  2  0
 19 30  1  0
 30 31  1  0
 13 32  1  0
 32 33  1  0
 32  2  1  0
 10  5  2  0
 31 16  1  0
 29 21  1  0
M  CHG  3   6  -1   9  -1  11  -1
M  END
>  <UniqueID>  (2811) 
41

>  <SMILES>  (2811) 
C=c1/c(=C\c2[n-]c(=O)[n-]c2[O-])cc(C(=O)N2CCN(Cc3ccc(N(C)C)cc3)CC2)n1C

>  <Energy>  (2811) 
148.13427555986215

>  <Genealogy>  (2811) 
C=c1c(=Cc2[n-]c(=O)[n-]c2[O-])cc(C(=O)N2CCN(Cc3ccc(N(C)C)cc3)CC2)n1C (protonated)
C=c1/c(=C\c2[n-]c(=O)[n-]c2[O-])cc(C(=O)N2CCN(Cc3ccc(N(C)C)cc3)CC2)n1C (cis-trans isomerization)
C=c1/c(=C\c2[n-]c(=O)[n-]c2[O-])cc(C(=O)N2CCN(Cc3ccc(N(C)C)cc3)CC2)n1C (3D coordinates assigned)
C=c1/c(=C\c2[n-]c(=O)[n-]c2[O-])cc(C(=O)N2CCN(Cc3ccc(N(C)C)cc3)CC2)n1C (nonaromatic ring conformer: 148.13427555986215 kcal/mol)

>  <smiles>  (2811) 
C=c1c(=Cc2[nH]c(=O)[nH]c2O)cc(C(=O)N2CCN(Cc3ccc(N(C)C)cc3)CC2)n1C

>  <score_type>  (2811) 
oracle

>  <origin>  (2811) 
adg

>  <m_score__min__energy>  (2811) 
-18.370000000000001

>  <m_primary>  (2811) 
energy

$$$$
42:0
     RDKit          3D

 34 37  0  0  0  0  0  0  0  0999 V2000
   55.3460   26.6790   45.9930 N   0  0  0  0  0  0  0  0  0  0  0  0
   56.3670   25.7850   46.4360 C   0  0  0  0  0  0  0  0  0  0  0  0
   56.0280   24.6960   46.9780 O   0  0  0  0  0  0  0  0  0  0  0  0
   57.8010   26.1320   46.2510 C   0  0  0  0  0  0  0  0  0  0  0  0
   58.7890   25.2330   46.7000 C   0  0  0  0  0  0  0  0  0  0  0  0
   60.1430   25.5420   46.5790 C   0  0  0  0  0  0  0  0  0  0  0  0
   60.5410   26.7470   46.0000 C   0  0  0  0  0  0  0  0  0  0  0  0
   59.5810   27.6500   45.5430 C   0  0  0  0  0  0  0  0  0  0  0  0
   58.2090   27.3580   45.6650 C   0  0  0  0  0  0  0  0  0  0  0  0
   57.2290   28.2680   45.1410 N   0  0  0  0  0  0  0  0  0  0  0  0
   57.1420   29.6750   45.3960 C   0  0  0  0  0  0  0  0  0  0  0  0
   56.2300   30.3310   44.8260 O   0  0  0  0  0  0  0  0  0  0  0  0
   58.0430   30.3640   46.3550 C   0  0  0  0  0  0  0  0  0  0  0  0
   58.3860   29.7740   47.5870 C   0  0  0  0  0  0  0  0  0  0  0  0
   59.2120   30.4470   48.4900 C   0  0  0  0  0  0  0  0  0  0  0  0
   59.6810   31.7280   48.1940 C   0  0  0  0  0  0  0  0  0  0  0  0
   59.3270   32.3440   46.9850 C   0  0  0  0  0  0  0  0  0  0  0  0
   59.8810   33.9750   46.6120 S   0  0  0  0  0  0  0  0  0  0  0  0
   58.9210   34.9860   47.1790 O   0  0  0  0  0  0  0  0  0  0  0  0
   59.9180   34.1390   45.1170 O   0  0  0  0  0  0  0  0  0  0  0  0
   61.4750   34.2270   47.2800 N   0  0  0  0  0  0  0  0  0  0  0  0
   62.4470   33.2450   46.7350 C   0  0  0  0  0  0  0  0  0  0  0  0
   62.8620   32.1630   47.7460 C   0  0  0  0  0  0  0  0  0  0  0  0
   63.3420   32.7840   48.9850 N   0  0  0  0  0  0  0  0  0  0  0  0
   64.3360   32.1250   49.8050 C   0  0  0  0  0  0  0  0  0  0  0  0
   65.6790   32.5490   49.7830 C   0  0  0  0  0  0  0  0  0  0  0  0
   66.6420   31.9070   50.5690 C   0  0  0  0  0  0  0  0  0  0  0  0
   66.2780   30.8390   51.3910 C   0  0  0  0  0  0  0  0  0  0  0  0
   67.2470   30.2100   52.1670 O   0  0  0  0  0  0  0  0  0  0  0  0
   64.9440   30.4120   51.4240 C   0  0  0  0  0  0  0  0  0  0  0  0
   63.9790   31.0490   50.6380 C   0  0  0  0  0  0  0  0  0  0  0  0
   62.7690   34.0710   49.4020 C   0  0  0  0  0  0  0  0  0  0  0  0
   61.3950   34.2690   48.7550 C   0  0  0  0  0  0  0  0  0  0  0  0
   58.5190   31.6580   46.0670 C   0  0  0  0  0  0  0  0  0  0  0  0
  1  2  1  0
  2  3  2  0
  2  4  1  0
  4  5  2  0
  5  6  1  0
  6  7  2  0
  7  8  1  0
  8  9  2  0
  9 10  1  0
 10 11  1  0
 11 12  2  0
 11 13  1  0
 13 14  2  0
 14 15  1  0
 15 16  2  0
 16 17  1  0
 17 18  1  0
 18 19  2  0
 18 20  2  0
 18 21  1  0
 21 22  1  0
 22 23  1  0
 23 24  1  0
 24 25  1  0
 25 26  2  0
 26 27  1  0
 27 28  2  0
 28 29  1  0
 28 30  1  0
 30 31  2  0
 24 32  1  0
 32 33  1  0
 17 34  2  0
  9  4  1  0
 34 13  1  0
 33 21  1  0
 31 25  1  0
M  CHG  2   1  -1  10  -1
M  END
>  <UniqueID>  (2812) 
43

>  <SMILES>  (2812) 
[NH-]C(=O)c1ccccc1[N-]C(=O)c1cccc(S(=O)(=O)N2CCN(c3ccc(O)cc3)CC2)c1

>  <Energy>  (2812) 
77.96365960746459

>  <Genealogy>  (2812) 
[NH-]C(=O)c1ccccc1[N-]C(=O)c1cccc(S(=O)(=O)N2CCN(c3ccc(O)cc3)CC2)c1 (protonated)
[NH-]C(=O)c1ccccc1[N-]C(=O)c1cccc(S(=O)(=O)N2CCN(c3ccc(O)cc3)CC2)c1 (3D coordinates assigned)
[NH-]C(=O)c1ccccc1[N-]C(=O)c1cccc(S(=O)(=O)N2CCN(c3ccc(O)cc3)CC2)c1 (nonaromatic ring conformer: 77.96365960746459 kcal/mol)

>  <smiles>  (2812) 
NC(=O)c1ccccc1NC(=O)c1cccc(S(=O)(=O)N2CCN(c3ccc(O)cc3)CC2)c1

>  <score_type>  (2812) 
oracle

>  <origin>  (2812) 
adg

>  <m_score__min__energy>  (2812) 
-15.869999999999999

>  <m_primary>  (2812) 
energy

$$$$
64:0
     RDKit          3D

 27 29  0  0  0  0  0  0  0  0999 V2000
   58.9380   30.3440   47.1390 C   0  0  0  0  0  0  0  0  0  0  0  0
   58.2830   31.0390   46.1950 C   0  0  0  0  0  0  0  0  0  0  0  0
   57.9350   30.5810   44.9140 C   0  0  0  0  0  0  0  0  0  0  0  0
   57.9400   29.3410   44.3850 C   0  0  0  0  0  0  0  0  0  0  0  0
   57.3940   28.1290   45.0300 C   0  0  0  0  0  0  0  0  0  0  0  0
   56.0170   28.0180   45.2690 C   0  0  0  0  0  0  0  0  0  0  0  0
   55.1440   29.0210   44.8620 O   0  0  0  0  0  0  0  0  0  0  0  0
   55.5240   26.9180   45.8950 N   0  0  0  0  0  0  0  0  0  0  0  0
   56.3450   25.9210   46.3130 C   0  0  0  0  0  0  0  0  0  0  0  0
   55.8640   24.9100   46.8860 O   0  0  0  0  0  0  0  0  0  0  0  0
   57.6850   26.0180   46.1180 N   0  0  0  0  0  0  0  0  0  0  0  0
   58.2280   27.0970   45.4980 C   0  0  0  0  0  0  0  0  0  0  0  0
   59.4790   27.1640   45.3580 O   0  0  0  0  0  0  0  0  0  0  0  0
   57.5580   31.6980   44.1930 C   0  0  0  0  0  0  0  0  0  0  0  0
   57.6210   32.7720   45.0550 C   0  0  0  0  0  0  0  0  0  0  0  0
   57.3920   34.1950   44.6360 C   0  0  0  0  0  0  0  0  0  0  0  0
   58.0120   32.3720   46.2900 N   0  0  0  0  0  0  0  0  0  0  0  0
   58.2200   33.2620   47.4500 C   0  0  0  0  0  0  0  0  0  0  0  0
   59.6920   33.4810   47.7600 C   0  0  0  0  0  0  0  0  0  0  0  0
   60.5720   33.7130   46.6870 C   0  0  0  0  0  0  0  0  0  0  0  0
   61.9450   33.8490   46.9030 C   0  0  0  0  0  0  0  0  0  0  0  0
   62.4590   33.7640   48.1950 C   0  0  0  0  0  0  0  0  0  0  0  0
   61.6020   33.5650   49.2770 C   0  0  0  0  0  0  0  0  0  0  0  0
   60.2150   33.4410   49.0810 C   0  0  0  0  0  0  0  0  0  0  0  0
   59.3530   33.3050   50.2720 C   0  0  0  0  0  0  0  0  0  0  0  0
   59.3740   34.1890   51.1670 O   0  0  0  0  0  0  0  0  0  0  0  0
   58.5220   32.1560   50.4410 N   0  0  0  0  0  0  0  0  0  0  0  0
  1  2  2  0
  2  3  1  0
  3  4  2  0
  4  5  1  0
  5  6  2  0
  6  7  1  0
  6  8  1  0
  8  9  1  0
  9 10  2  0
  9 11  1  0
 11 12  1  0
 12 13  2  0
  3 14  1  0
 14 15  2  0
 15 16  1  0
 15 17  1  0
 17 18  1  0
 18 19  1  0
 19 20  2  0
 20 21  1  0
 21 22  2  0
 22 23  1  0
 23 24  2  0
 24 25  1  0
 25 26  2  0
 25 27  1  0
 17  2  1  0
 24 19  1  0
 12  5  1  0
M  CHG  3   7  -1   8  -1  11  -1
M  END
>  <UniqueID>  (2813) 
65

>  <SMILES>  (2813) 
C=c1/c(=C\c2c([O-])[n-]c(=O)[n-]c2=O)cc(C)n1Cc1ccccc1C(N)=O

>  <Energy>  (2813) 
93.20497174938949

>  <Genealogy>  (2813) 
C=c1c(=Cc2c([O-])[n-]c(=O)[n-]c2=O)cc(C)n1Cc1ccccc1C(N)=O (protonated)
C=c1/c(=C\c2c([O-])[n-]c(=O)[n-]c2=O)cc(C)n1Cc1ccccc1C(N)=O (cis-trans isomerization)
C=c1/c(=C\c2c([O-])[n-]c(=O)[n-]c2=O)cc(C)n1Cc1ccccc1C(N)=O (3D coordinates assigned)
C=c1/c(=C\c2c([O-])[n-]c(=O)[n-]c2=O)cc(C)n1Cc1ccccc1C(N)=O (optimized conformer: 93.20497174938949 kcal/mol)

>  <smiles>  (2813) 
C=c1c(=Cc2c(O)[nH]c(=O)[nH]c2=O)cc(C)n1Cc1ccccc1C(N)=O

>  <score_type>  (2813) 
oracle

>  <origin>  (2813) 
adg

>  <m_score__min__energy>  (2813) 
-15.91

>  <m_primary>  (2813) 
energy

$$$$
66:0
     RDKit          3D

 25 27  0  0  0  0  0  0  0  0999 V2000
   58.1570   26.5860   47.4430 O   0  0  0  0  0  0  0  0  0  0  0  0
   57.2950   27.1810   46.7410 C   0  0  0  0  0  0  0  0  0  0  0  0
   56.1250   26.4770   46.3010 N   0  0  0  0  0  0  0  0  0  0  0  0
   56.0910   25.3060   45.4730 C   0  0  0  0  0  0  0  0  0  0  0  0
   57.1420   24.9820   44.5930 C   0  0  0  0  0  0  0  0  0  0  0  0
   57.0780   23.8180   43.8210 C   0  0  0  0  0  0  0  0  0  0  0  0
   55.9790   22.9620   43.9300 C   0  0  0  0  0  0  0  0  0  0  0  0
   55.9170   21.8060   43.1610 O   0  0  0  0  0  0  0  0  0  0  0  0
   54.9430   23.2670   44.8180 C   0  0  0  0  0  0  0  0  0  0  0  0
   55.0040   24.4300   45.5920 C   0  0  0  0  0  0  0  0  0  0  0  0
   57.5220   28.5910   46.3200 C   0  0  0  0  0  0  0  0  0  0  0  0
   56.6420   29.2330   45.4310 C   0  0  0  0  0  0  0  0  0  0  0  0
   55.5190   28.5830   44.9320 O   0  0  0  0  0  0  0  0  0  0  0  0
   56.8700   30.5140   45.0590 N   0  0  0  0  0  0  0  0  0  0  0  0
   57.9310   31.2160   45.5260 C   0  0  0  0  0  0  0  0  0  0  0  0
   58.0830   32.4110   45.1560 O   0  0  0  0  0  0  0  0  0  0  0  0
   58.8120   30.6340   46.3970 N   0  0  0  0  0  0  0  0  0  0  0  0
   59.9400   31.3860   46.8910 C   0  0  0  0  0  0  0  0  0  0  0  0
   61.2370   30.8510   46.8180 C   0  0  0  0  0  0  0  0  0  0  0  0
   62.3280   31.5810   47.2970 C   0  0  0  0  0  0  0  0  0  0  0  0
   62.1320   32.8500   47.8520 C   0  0  0  0  0  0  0  0  0  0  0  0
   60.8450   33.3890   47.9290 C   0  0  0  0  0  0  0  0  0  0  0  0
   59.7510   32.6610   47.4490 C   0  0  0  0  0  0  0  0  0  0  0  0
   58.6250   29.3340   46.7960 C   0  0  0  0  0  0  0  0  0  0  0  0
   59.4590   28.7900   47.5740 O   0  0  0  0  0  0  0  0  0  0  0  0
  1  2  2  0
  2  3  1  0
  3  4  1  0
  4  5  2  0
  5  6  1  0
  6  7  2  0
  7  8  1  0
  7  9  1  0
  9 10  2  0
  2 11  1  0
 11 12  2  0
 12 13  1  0
 12 14  1  0
 14 15  1  0
 15 16  2  0
 15 17  1  0
 17 18  1  0
 18 19  2  0
 19 20  1  0
 20 21  2  0
 21 22  1  0
 22 23  2  0
 17 24  1  0
 24 25  2  0
 10  4  1  0
 24 11  1  0
 23 18  1  0
M  CHG  4   3  -1   8  -1  13  -1  14  -1
M  END
>  <UniqueID>  (2814) 
67

>  <SMILES>  (2814) 
O=C([N-]c1ccc([O-])cc1)c1c([O-])[n-]c(=O)n(-c2ccccc2)c1=O

>  <Energy>  (2814) 
56.67625346926639

>  <Genealogy>  (2814) 
O=C([N-]c1ccc([O-])cc1)c1c([O-])[n-]c(=O)n(-c2ccccc2)c1=O (protonated)
O=C([N-]c1ccc([O-])cc1)c1c([O-])[n-]c(=O)n(-c2ccccc2)c1=O (3D coordinates assigned)
O=C([N-]c1ccc([O-])cc1)c1c([O-])[n-]c(=O)n(-c2ccccc2)c1=O (optimized conformer: 56.67625346926639 kcal/mol)

>  <smiles>  (2814) 
O=C(Nc1ccc(O)cc1)c1c(O)[nH]c(=O)n(-c2ccccc2)c1=O

>  <score_type>  (2814) 
oracle

>  <origin>  (2814) 
adg

>  <m_score__min__energy>  (2814) 
-15.26

>  <m_primary>  (2814) 
energy

$$$$
72:0
     RDKit          3D

 24 26  0  0  0  0  0  0  0  0999 V2000
   58.7250   27.2860   44.0630 C   0  0  0  0  0  0  0  0  0  0  0  0
   58.5430   27.2090   45.3910 C   0  0  0  0  0  0  0  0  0  0  0  0
   58.0340   26.1230   46.1220 C   0  0  0  0  0  0  0  0  0  0  0  0
   57.4570   24.9760   45.7140 C   0  0  0  0  0  0  0  0  0  0  0  0
   56.0110   24.7050   45.7060 C   0  0  0  0  0  0  0  0  0  0  0  0
   55.4600   23.4990   45.4710 N   0  0  0  0  0  0  0  0  0  0  0  0
   54.1380   23.7670   45.4150 C   0  0  0  0  0  0  0  0  0  0  0  0
   53.2730   22.8740   45.2170 O   0  0  0  0  0  0  0  0  0  0  0  0
   53.8160   25.0690   45.5720 N   0  0  0  0  0  0  0  0  0  0  0  0
   55.0150   25.6500   45.7410 C   0  0  0  0  0  0  0  0  0  0  0  0
   55.1950   27.0150   45.9240 O   0  0  0  0  0  0  0  0  0  0  0  0
   58.2090   26.4380   47.4590 C   0  0  0  0  0  0  0  0  0  0  0  0
   58.7660   27.6990   47.5040 C   0  0  0  0  0  0  0  0  0  0  0  0
   59.1050   28.4350   48.7640 C   0  0  0  0  0  0  0  0  0  0  0  0
   58.9530   28.1730   46.2540 N   0  0  0  0  0  0  0  0  0  0  0  0
   59.5850   29.4200   45.9220 C   0  0  0  0  0  0  0  0  0  0  0  0
   60.8330   29.4660   45.7630 O   0  0  0  0  0  0  0  0  0  0  0  0
   58.7580   30.6470   45.6840 C   0  0  0  0  0  0  0  0  0  0  0  0
   57.6270   30.3240   44.7470 C   0  0  0  0  0  0  0  0  0  0  0  0
   57.5840   30.8890   43.4630 C   0  0  0  0  0  0  0  0  0  0  0  0
   56.5150   30.6050   42.6120 C   0  0  0  0  0  0  0  0  0  0  0  0
   55.4940   29.7600   43.0540 C   0  0  0  0  0  0  0  0  0  0  0  0
   55.5440   29.2210   44.3040 N   0  0  0  0  0  0  0  0  0  0  0  0
   56.5730   29.4890   45.1530 C   0  0  0  0  0  0  0  0  0  0  0  0
  1  2  2  0
  2  3  1  0
  3  4  2  3
  4  5  1  0
  5  6  1  0
  6  7  1  0
  7  8  2  0
  7  9  1  0
  9 10  1  0
 10 11  1  0
  3 12  1  0
 12 13  2  0
 13 14  1  0
 13 15  1  0
 15 16  1  0
 16 17  2  0
 16 18  1  0
 18 19  1  0
 19 20  2  0
 20 21  1  0
 21 22  2  0
 22 23  1  0
 23 24  2  0
 15  2  1  0
 24 19  1  0
 10  5  2  0
M  CHG  4   6  -1   9  -1  11  -1  23   1
M  END
>  <UniqueID>  (2815) 
73

>  <SMILES>  (2815) 
C=c1c(=Cc2[n-]c(=O)[n-]c2[O-])cc(C)n1C(=O)Cc1ccc[nH+]c1

>  <Energy>  (2815) 
112.53245574127442

>  <Genealogy>  (2815) 
C=c1c(=Cc2[n-]c(=O)[n-]c2[O-])cc(C)n1C(=O)Cc1ccc[nH+]c1 (protonated)
C=c1c(=Cc2[n-]c(=O)[n-]c2[O-])cc(C)n1C(=O)Cc1ccc[nH+]c1 (3D coordinates assigned)
C=c1c(=Cc2[n-]c(=O)[n-]c2[O-])cc(C)n1C(=O)Cc1ccc[nH+]c1 (optimized conformer: 112.53245574127442 kcal/mol)

>  <smiles>  (2815) 
C=c1c(=Cc2[nH]c(=O)[nH]c2O)cc(C)n1C(=O)Cc1cccnc1

>  <score_type>  (2815) 
oracle

>  <origin>  (2815) 
adg

>  <m_score__min__energy>  (2815) 
-14.19

>  <m_primary>  (2815) 
energy

$$$$
91:0
     RDKit          3D

 23 24  0  0  0  0  0  0  0  0999 V2000
   56.2670   29.7190   42.7010 C   0  0  0  0  0  0  0  0  0  0  0  0
   55.8660   30.2480   44.0450 C   0  0  0  0  0  0  0  0  0  0  0  0
   55.1550   29.5330   44.7990 O   0  0  0  0  0  0  0  0  0  0  0  0
   56.2900   31.5350   44.5090 N   0  0  0  0  0  0  0  0  0  0  0  0
   57.7420   31.8230   45.4100 S   0  0  0  0  0  0  0  0  0  0  0  0
   57.4260   32.7060   46.5840 O   0  0  0  0  0  0  0  0  0  0  0  0
   58.7390   32.5250   44.5310 O   0  0  0  0  0  0  0  0  0  0  0  0
   58.3950   30.3010   46.0080 C   0  0  0  0  0  0  0  0  0  0  0  0
   58.5620   30.0850   47.3830 C   0  0  0  0  0  0  0  0  0  0  0  0
   59.0900   28.8770   47.8450 C   0  0  0  0  0  0  0  0  0  0  0  0
   59.4460   27.8640   46.9390 C   0  0  0  0  0  0  0  0  0  0  0  0
   60.0260   26.5660   47.4370 C   0  0  0  0  0  0  0  0  0  0  0  0
   60.1380   25.5900   46.3550 N   0  0  0  0  0  0  0  0  0  0  0  0
   59.1750   24.5880   45.9920 C   0  0  0  0  0  0  0  0  0  0  0  0
   59.6000   23.4810   45.5660 O   0  0  0  0  0  0  0  0  0  0  0  0
   57.7160   24.7950   46.0980 C   0  0  0  0  0  0  0  0  0  0  0  0
   56.7920   23.7900   46.3340 C   0  0  0  0  0  0  0  0  0  0  0  0
   55.5540   24.3910   46.3330 C   0  0  0  0  0  0  0  0  0  0  0  0
   55.7910   25.7240   46.0880 C   0  0  0  0  0  0  0  0  0  0  0  0
   54.8050   26.6980   46.0010 O   0  0  0  0  0  0  0  0  0  0  0  0
   57.1020   25.9840   45.9360 N   0  0  0  0  0  0  0  0  0  0  0  0
   59.2930   28.0930   45.5610 C   0  0  0  0  0  0  0  0  0  0  0  0
   58.7630   29.3020   45.1010 C   0  0  0  0  0  0  0  0  0  0  0  0
  1  2  1  0
  2  3  2  0
  2  4  1  0
  4  5  1  0
  5  6  2  0
  5  7  2  0
  5  8  1  0
  8  9  2  0
  9 10  1  0
 10 11  2  0
 11 12  1  0
 12 13  1  0
 13 14  1  0
 14 15  2  0
 14 16  1  0
 16 17  2  0
 17 18  1  0
 18 19  2  0
 19 20  1  0
 19 21  1  0
 11 22  1  0
 22 23  2  0
 23  8  1  0
 21 16  1  0
M  CHG  4   4  -1  13  -1  20  -1  21  -1
M  END
>  <UniqueID>  (2816) 
91

>  <SMILES>  (2816) 
CC(=O)[N-]S(=O)(=O)c1ccc(C[N-]C(=O)c2ccc([O-])[n-]2)cc1

>  <Energy>  (2816) 
59.450272708787914

>  <Genealogy>  (2816) 
CC(=O)[N-]S(=O)(=O)c1ccc(C[N-]C(=O)c2ccc([O-])[n-]2)cc1 (protonated)
CC(=O)[N-]S(=O)(=O)c1ccc(C[N-]C(=O)c2ccc([O-])[n-]2)cc1 (3D coordinates assigned)
CC(=O)[N-]S(=O)(=O)c1ccc(C[N-]C(=O)c2ccc([O-])[n-]2)cc1 (optimized conformer: 59.450272708787914 kcal/mol)

>  <smiles>  (2816) 
CC(=O)NS(=O)(=O)c1ccc(CNC(=O)c2ccc(O)[nH]2)cc1

>  <score_type>  (2816) 
oracle

>  <origin>  (2816) 
adg

>  <m_score__min__energy>  (2816) 
-15.109999999999999

>  <m_primary>  (2816) 
energy

$$$$
8:0
     RDKit          3D

 27 30  0  0  0  0  0  0  0  0999 V2000
   53.5800   28.4670   52.7230 C   0  0  0  0  0  0  0  0  0  0  0  0
   54.5970   29.3380   52.7540 C   0  0  0  0  0  0  0  0  0  0  0  0
   55.8300   28.8250   53.0170 N   0  0  0  0  0  0  0  0  0  0  0  0
   56.9720   29.5440   52.8880 C   0  0  0  0  0  0  0  0  0  0  0  0
   56.9260   30.8540   52.4090 C   0  0  0  0  0  0  0  0  0  0  0  0
   58.1750   31.6280   52.2220 C   0  0  0  0  0  0  0  0  0  0  0  0
   58.9690   31.7510   53.1950 O   0  0  0  0  0  0  0  0  0  0  0  0
   58.5010   32.2500   50.9630 N   0  0  0  0  0  0  0  0  0  0  0  0
   58.1320   31.6280   49.6860 C   0  0  0  0  0  0  0  0  0  0  0  0
   59.3170   31.6680   48.7070 C   0  0  0  0  0  0  0  0  0  0  0  0
   60.0740   32.9560   48.7170 N   0  0  0  0  0  0  0  0  0  0  0  0
   60.4900   33.4910   47.3930 C   0  0  0  0  0  0  0  0  0  0  0  0
   59.6970   32.9600   46.1970 C   0  0  0  0  0  0  0  0  0  0  0  0
   59.2330   34.3810   45.8860 C   0  0  0  0  0  0  0  0  0  0  0  0
   60.0210   34.9140   47.0790 C   0  0  0  0  0  0  0  0  0  0  0  0
   59.4570   34.0190   49.5340 C   0  0  0  0  0  0  0  0  0  0  0  0
   59.2320   33.5200   50.9620 C   0  0  0  0  0  0  0  0  0  0  0  0
   55.6740   31.4350   52.1720 C   0  0  0  0  0  0  0  0  0  0  0  0
   54.4790   30.7220   52.4070 C   0  0  0  0  0  0  0  0  0  0  0  0
   53.3170   31.4170   52.3080 C   0  0  0  0  0  0  0  0  0  0  0  0
   52.3370   31.3330   51.2100 C   0  0  0  0  0  0  0  0  0  0  0  0
   52.3920   30.4060   50.2380 N   0  0  0  0  0  0  0  0  0  0  0  0
   51.3900   30.7650   49.4070 C   0  0  0  0  0  0  0  0  0  0  0  0
   51.1110   30.1170   48.3640 O   0  0  0  0  0  0  0  0  0  0  0  0
   50.7200   31.8770   49.7720 N   0  0  0  0  0  0  0  0  0  0  0  0
   51.3400   32.2340   50.9080 C   0  0  0  0  0  0  0  0  0  0  0  0
   51.0200   33.3760   51.6350 O   0  0  0  0  0  0  0  0  0  0  0  0
  1  2  2  0
  2  3  1  0
  3  4  2  0
  4  5  1  0
  5  6  1  0
  6  7  2  0
  6  8  1  0
  8  9  1  0
  9 10  1  0
 10 11  1  0
 11 12  1  0
 12 13  1  0
 13 14  1  0
 14 15  1  0
 11 16  1  0
 16 17  1  0
  5 18  2  0
 18 19  1  0
 19 20  2  3
 20 21  1  0
 21 22  1  0
 22 23  1  0
 23 24  2  0
 23 25  1  0
 25 26  1  0
 26 27  1  0
 19  2  1  0
 26 21  2  0
 17  8  1  0
 15 12  1  0
M  CHG  3  22  -1  25  -1  27  -1
M  END
>  <UniqueID>  (2817) 
9

>  <SMILES>  (2817) 
C=c1ncc(C(=O)N2CCN(C3CCC3)CC2)cc1=Cc1[n-]c(=O)[n-]c1[O-]

>  <Energy>  (2817) 
175.55883197154415

>  <Genealogy>  (2817) 
C=c1ncc(C(=O)N2CCN(C3CCC3)CC2)cc1=Cc1[n-]c(=O)[n-]c1[O-] (protonated)
C=c1ncc(C(=O)N2CCN(C3CCC3)CC2)cc1=Cc1[n-]c(=O)[n-]c1[O-] (3D coordinates assigned)
C=c1ncc(C(=O)N2CCN(C3CCC3)CC2)cc1=Cc1[n-]c(=O)[n-]c1[O-] (nonaromatic ring conformer: 175.55883197154415 kcal/mol)

>  <smiles>  (2817) 
C=c1ncc(C(=O)N2CCN(C3CCC3)CC2)cc1=Cc1[nH]c(=O)[nH]c1O

>  <score_type>  (2817) 
oracle

>  <origin>  (2817) 
adg

>  <m_score__min__energy>  (2817) 
-17.719999999999999

>  <m_primary>  (2817) 
energy

$$$$
10:0
     RDKit          3D

 42 46  0  0  0  0  0  0  0  0999 V2000
   55.2180   26.2950   46.0380 O   0  0  0  0  0  0  0  0  0  0  0  0
   56.2360   27.1980   45.7350 C   0  0  0  0  0  0  0  0  0  0  0  0
   55.8970   28.4170   45.2500 N   0  0  0  0  0  0  0  0  0  0  0  0
   56.8300   29.3420   44.9170 C   0  0  0  0  0  0  0  0  0  0  0  0
   56.4500   30.4680   44.4960 O   0  0  0  0  0  0  0  0  0  0  0  0
   58.1650   29.0540   45.0420 N   0  0  0  0  0  0  0  0  0  0  0  0
   59.1780   30.0860   44.7370 C   0  0  0  0  0  0  0  0  0  0  0  0
   59.3960   31.0480   45.8890 C   0  0  0  0  0  0  0  0  0  0  0  0
   60.5300   30.8810   46.7010 C   0  0  0  0  0  0  0  0  0  0  0  0
   60.7690   31.7400   47.7780 C   0  0  0  0  0  0  0  0  0  0  0  0
   59.8830   32.7930   48.0560 C   0  0  0  0  0  0  0  0  0  0  0  0
   60.1350   33.7100   49.1900 C   0  0  0  0  0  0  0  0  0  0  0  0
   59.6060   34.8540   49.2010 O   0  0  0  0  0  0  0  0  0  0  0  0
   60.9750   33.3100   50.2860 N   0  0  0  0  0  0  0  0  0  0  0  0
   60.7320   32.0880   51.0320 C   0  0  0  0  0  0  0  0  0  0  0  0
   62.0250   31.2750   51.1940 C   0  0  0  0  0  0  0  0  0  0  0  0
   63.2930   32.0420   51.1000 N   0  0  0  0  0  0  0  0  0  0  0  0
   64.5570   31.3100   51.1870 C   0  0  0  0  0  0  0  0  0  0  0  0
   64.6110   29.9950   51.7150 C   0  0  0  0  0  0  0  0  0  0  0  0
   65.8210   29.2970   51.7830 C   0  0  0  0  0  0  0  0  0  0  0  0
   67.0010   29.8850   51.3320 C   0  0  0  0  0  0  0  0  0  0  0  0
   66.9770   31.1770   50.8100 C   0  0  0  0  0  0  0  0  0  0  0  0
   65.7730   31.8830   50.7350 C   0  0  0  0  0  0  0  0  0  0  0  0
   63.3380   33.4840   50.7600 C   0  0  0  0  0  0  0  0  0  0  0  0
   61.9920   34.1910   50.8260 C   0  0  0  0  0  0  0  0  0  0  0  0
   58.7370   32.9510   47.2590 C   0  0  0  0  0  0  0  0  0  0  0  0
   58.4960   32.0890   46.1880 C   0  0  0  0  0  0  0  0  0  0  0  0
   58.5530   27.8340   45.5410 C   0  0  0  0  0  0  0  0  0  0  0  0
   59.7780   27.5660   45.6850 O   0  0  0  0  0  0  0  0  0  0  0  0
   57.5920   26.8840   45.9200 C   0  0  0  0  0  0  0  0  0  0  0  0
   58.0250   25.5950   46.5030 C   0  0  0  0  0  0  0  0  0  0  0  0
   58.9860   24.8060   45.9950 C   0  0  0  0  0  0  0  0  0  0  0  0
   58.7730   23.5160   45.3020 C   0  0  0  0  0  0  0  0  0  0  0  0
   59.6330   22.6080   45.4530 O   0  0  0  0  0  0  0  0  0  0  0  0
   57.5690   23.2530   44.5620 N   0  0  0  0  0  0  0  0  0  0  0  0
   56.3430   23.2330   45.0060 C   0  0  0  0  0  0  0  0  0  0  0  0
   55.3610   23.7250   44.2030 N   0  0  0  0  0  0  0  0  0  0  0  0
   54.0490   23.7070   44.5580 C   0  0  0  0  0  0  0  0  0  0  0  0
   53.6620   23.1720   45.7920 C   0  0  0  0  0  0  0  0  0  0  0  0
   52.2120   23.0830   46.1650 C   0  0  0  0  0  0  0  0  0  0  0  0
   54.6470   22.6370   46.6300 C   0  0  0  0  0  0  0  0  0  0  0  0
   55.9880   22.6630   46.2460 C   0  0  0  0  0  0  0  0  0  0  0  0
  1  2  1  0
  2  3  1  0
  3  4  1  0
  4  5  2  0
  4  6  1  0
  6  7  1  0
  7  8  1  0
  8  9  2  0
  9 10  1  0
 10 11  2  0
 11 12  1  0
 12 13  2  0
 12 14  1  0
 14 15  1  0
 15 16  1  0
 16 17  1  0
 17 18  1  0
 18 19  2  0
 19 20  1  0
 20 21  2  0
 21 22  1  0
 22 23  2  0
 17 24  1  0
 24 25  1  0
 11 26  1  0
 26 27  2  0
  6 28  1  0
 28 29  2  0
 28 30  1  0
 30 31  1  0
 31 32  2  0
 32 33  1  0
 33 34  2  0
 33 35  1  0
 35 36  2  0
 36 37  1  0
 37 38  1  0
 38 39  2  0
 39 40  1  0
 39 41  1  0
 41 42  2  0
 30  2  2  0
 42 36  1  0
 27  8  1  0
 25 14  1  0
 23 18  1  0
M  CHG  2   3  -1  37  -1
M  END
>  <UniqueID>  (2818) 
11

>  <SMILES>  (2818) 
Cc1cc/c(=N\C(=O)/C=C\c2c(O)[n-]c(=O)n(Cc3ccc(C(=O)N4CCN(c5ccccc5)CC4)cc3)c2=O)[n-]c1

>  <Energy>  (2818) 
106.3243372263854

>  <Genealogy>  (2818) 
Cc1ccc(=NC(=O)C=Cc2c(O)[n-]c(=O)n(Cc3ccc(C(=O)N4CCN(c5ccccc5)CC4)cc3)c2=O)[n-]c1 (protonated)
Cc1cc/c(=N\C(=O)/C=C\c2c(O)[n-]c(=O)n(Cc3ccc(C(=O)N4CCN(c5ccccc5)CC4)cc3)c2=O)[n-]c1 (cis-trans isomerization)
Cc1cc/c(=N\C(=O)/C=C\c2c(O)[n-]c(=O)n(Cc3ccc(C(=O)N4CCN(c5ccccc5)CC4)cc3)c2=O)[n-]c1 (3D coordinates assigned)
Cc1cc/c(=N\C(=O)/C=C\c2c(O)[n-]c(=O)n(Cc3ccc(C(=O)N4CCN(c5ccccc5)CC4)cc3)c2=O)[n-]c1 (nonaromatic ring conformer: 106.3243372263854 kcal/mol)

>  <smiles>  (2818) 
Cc1ccc(=NC(=O)C=Cc2c(O)[nH]c(=O)n(Cc3ccc(C(=O)N4CCN(c5ccccc5)CC4)cc3)c2=O)[nH]c1

>  <score_type>  (2818) 
oracle

>  <origin>  (2818) 
adg

>  <m_score__min__energy>  (2818) 
-14.039999999999999

>  <m_primary>  (2818) 
energy

$$$$
11:0
     RDKit          3D

 31 34  0  0  0  0  0  0  0  0999 V2000
   56.3150   29.3850   44.3870 C   0  0  0  0  0  0  0  0  0  0  0  0
   57.5660   29.1310   44.8060 C   0  0  0  0  0  0  0  0  0  0  0  0
   58.1650   27.8670   44.8640 C   0  0  0  0  0  0  0  0  0  0  0  0
   57.6020   26.6780   44.5730 C   0  0  0  0  0  0  0  0  0  0  0  0
   57.0750   25.7450   45.5870 C   0  0  0  0  0  0  0  0  0  0  0  0
   57.8110   24.7620   46.1380 N   0  0  0  0  0  0  0  0  0  0  0  0
   56.9790   24.2240   47.0540 C   0  0  0  0  0  0  0  0  0  0  0  0
   57.3090   23.2500   47.7800 O   0  0  0  0  0  0  0  0  0  0  0  0
   55.7700   24.8170   47.1410 N   0  0  0  0  0  0  0  0  0  0  0  0
   55.8500   25.7870   46.2140 C   0  0  0  0  0  0  0  0  0  0  0  0
   54.8420   26.7150   45.9850 O   0  0  0  0  0  0  0  0  0  0  0  0
   59.4540   28.0690   45.3350 C   0  0  0  0  0  0  0  0  0  0  0  0
   59.5940   29.4240   45.5410 C   0  0  0  0  0  0  0  0  0  0  0  0
   60.8580   30.0770   46.0150 C   0  0  0  0  0  0  0  0  0  0  0  0
   58.4510   30.0780   45.2210 N   0  0  0  0  0  0  0  0  0  0  0  0
   58.2630   31.5380   45.2760 C   0  0  0  0  0  0  0  0  0  0  0  0
   58.7470   32.0860   46.5940 C   0  0  0  0  0  0  0  0  0  0  0  0
   58.5240   31.3750   47.7820 C   0  0  0  0  0  0  0  0  0  0  0  0
   58.9580   31.8890   49.0060 C   0  0  0  0  0  0  0  0  0  0  0  0
   59.6350   33.1190   49.0650 C   0  0  0  0  0  0  0  0  0  0  0  0
   60.0790   33.6550   50.3790 C   0  0  0  0  0  0  0  0  0  0  0  0
   59.2320   34.2410   51.1100 O   0  0  0  0  0  0  0  0  0  0  0  0
   61.4640   33.5720   50.8050 N   0  0  0  0  0  0  0  0  0  0  0  0
   61.8750   32.1500   50.9700 C   0  0  0  0  0  0  0  0  0  0  0  0
   62.6970   31.6340   49.7760 C   0  0  0  0  0  0  0  0  0  0  0  0
   63.9170   32.4460   49.5370 N   0  0  0  0  0  0  0  0  0  0  0  0
   65.1070   31.8160   50.1290 C   0  0  0  0  0  0  0  0  0  0  0  0
   63.7960   33.8520   49.9880 C   0  0  0  0  0  0  0  0  0  0  0  0
   62.3460   34.3420   49.8910 C   0  0  0  0  0  0  0  0  0  0  0  0
   59.8490   33.8350   47.8740 C   0  0  0  0  0  0  0  0  0  0  0  0
   59.4140   33.3190   46.6500 C   0  0  0  0  0  0  0  0  0  0  0  0
  1  2  2  0
  2  3  1  0
  3  4  2  0
  4  5  1  0
  5  6  1  0
  6  7  1  0
  7  8  2  0
  7  9  1  0
  9 10  1  0
 10 11  1  0
  3 12  1  0
 12 13  2  0
 13 14  1  0
 13 15  1  0
 15 16  1  0
 16 17  1  0
 17 18  2  0
 18 19  1  0
 19 20  2  0
 20 21  1  0
 21 22  2  0
 21 23  1  0
 23 24  1  0
 24 25  1  0
 25 26  1  0
 26 27  1  0
 26 28  1  0
 28 29  1  0
 20 30  1  0
 30 31  2  0
 15  2  1  0
 31 17  1  0
 10  5  2  0
 29 23  1  0
M  CHG  4   6  -1   9  -1  11  -1  23   1
M  END
>  <UniqueID>  (2819) 
12

>  <SMILES>  (2819) 
C=c1/c(=C/c2[n-]c(=O)[n-]c2[O-])cc(C)n1Cc1ccc(C(=O)[NH+]2CCN(C)CC2)cc1

>  <Energy>  (2819) 
140.49030333744946

>  <Genealogy>  (2819) 
C=c1c(=Cc2[n-]c(=O)[n-]c2[O-])cc(C)n1Cc1ccc(C(=O)[NH+]2CCN(C)CC2)cc1 (protonated)
C=c1/c(=C/c2[n-]c(=O)[n-]c2[O-])cc(C)n1Cc1ccc(C(=O)[NH+]2CCN(C)CC2)cc1 (cis-trans isomerization)
C=c1/c(=C/c2[n-]c(=O)[n-]c2[O-])cc(C)n1Cc1ccc(C(=O)[NH+]2CCN(C)CC2)cc1 (3D coordinates assigned)
C=c1/c(=C/c2[n-]c(=O)[n-]c2[O-])cc(C)n1Cc1ccc(C(=O)[NH+]2CCN(C)CC2)cc1 (nonaromatic ring conformer: 140.49030333744946 kcal/mol)

>  <smiles>  (2819) 
C=c1c(=Cc2[nH]c(=O)[nH]c2O)cc(C)n1Cc1ccc(C(=O)N2CCN(C)CC2)cc1

>  <score_type>  (2819) 
oracle

>  <origin>  (2819) 
adg

>  <m_score__min__energy>  (2819) 
-16.100000000000001

>  <m_primary>  (2819) 
energy

$$$$
19:0
     RDKit          3D

 29 31  0  0  0  0  0  0  0  0999 V2000
   57.7800   27.0230   44.1120 C   0  0  0  0  0  0  0  0  0  0  0  0
   58.0970   27.5160   45.3200 C   0  0  0  0  0  0  0  0  0  0  0  0
   57.7840   26.9460   46.5660 C   0  0  0  0  0  0  0  0  0  0  0  0
   57.2730   25.7420   46.8910 C   0  0  0  0  0  0  0  0  0  0  0  0
   56.4260   24.9040   46.0280 C   0  0  0  0  0  0  0  0  0  0  0  0
   56.7450   23.6570   45.6160 N   0  0  0  0  0  0  0  0  0  0  0  0
   55.6310   23.2370   44.9770 C   0  0  0  0  0  0  0  0  0  0  0  0
   55.5340   22.0960   44.4510 O   0  0  0  0  0  0  0  0  0  0  0  0
   54.6320   24.1450   44.9730 N   0  0  0  0  0  0  0  0  0  0  0  0
   53.2720   23.9770   44.4720 C   0  0  0  0  0  0  0  0  0  0  0  0
   55.1250   25.1800   45.6700 C   0  0  0  0  0  0  0  0  0  0  0  0
   54.4110   26.3300   45.9890 O   0  0  0  0  0  0  0  0  0  0  0  0
   58.1380   27.8830   47.5200 C   0  0  0  0  0  0  0  0  0  0  0  0
   58.6980   28.9490   46.8490 C   0  0  0  0  0  0  0  0  0  0  0  0
   59.3100   30.1400   47.5240 C   0  0  0  0  0  0  0  0  0  0  0  0
   58.6840   28.7310   45.5120 N   0  0  0  0  0  0  0  0  0  0  0  0
   59.1400   29.6930   44.4930 C   0  0  0  0  0  0  0  0  0  0  0  0
   57.9560   30.3400   43.7570 C   0  0  0  0  0  0  0  0  0  0  0  0
   56.8930   30.8220   44.7070 C   0  0  0  0  0  0  0  0  0  0  0  0
   56.1000   29.9820   45.2130 O   0  0  0  0  0  0  0  0  0  0  0  0
   56.6740   32.2160   44.9600 N   0  0  0  0  0  0  0  0  0  0  0  0
   57.6580   33.1460   45.4250 C   0  0  0  0  0  0  0  0  0  0  0  0
   58.2760   34.0480   44.5440 C   0  0  0  0  0  0  0  0  0  0  0  0
   59.2580   34.9270   45.0130 C   0  0  0  0  0  0  0  0  0  0  0  0
   59.6420   34.8950   46.3560 C   0  0  0  0  0  0  0  0  0  0  0  0
   59.0500   33.9770   47.2340 C   0  0  0  0  0  0  0  0  0  0  0  0
   59.4560   33.9340   48.6140 C   0  0  0  0  0  0  0  0  0  0  0  0
   59.7820   33.9000   49.7250 N   0  0  0  0  0  0  0  0  0  0  0  0
   58.0670   33.0960   46.7630 C   0  0  0  0  0  0  0  0  0  0  0  0
  1  2  2  0
  2  3  1  0
  3  4  2  0
  4  5  1  0
  5  6  1  0
  6  7  1  0
  7  8  2  0
  7  9  1  0
  9 10  1  0
  9 11  1  0
 11 12  1  0
  3 13  1  0
 13 14  2  0
 14 15  1  0
 14 16  1  0
 16 17  1  0
 17 18  1  0
 18 19  1  0
 19 20  2  0
 19 21  1  0
 21 22  1  0
 22 23  2  0
 23 24  1  0
 24 25  2  0
 25 26  1  0
 26 27  1  0
 27 28  3  0
 26 29  2  0
 16  2  1  0
 29 22  1  0
 11  5  2  0
M  CHG  3   6  -1  12  -1  21  -1
M  END
>  <UniqueID>  (2820) 
20

>  <SMILES>  (2820) 
C=c1/c(=C\c2[n-]c(=O)n(C)c2[O-])cc(C)n1CCC(=O)[N-]c1cccc(C#N)c1

>  <Energy>  (2820) 
121.75416835612121

>  <Genealogy>  (2820) 
C=c1c(=Cc2[n-]c(=O)n(C)c2[O-])cc(C)n1CCC(=O)[N-]c1cccc(C#N)c1 (protonated)
C=c1/c(=C\c2[n-]c(=O)n(C)c2[O-])cc(C)n1CCC(=O)[N-]c1cccc(C#N)c1 (cis-trans isomerization)
C=c1/c(=C\c2[n-]c(=O)n(C)c2[O-])cc(C)n1CCC(=O)[N-]c1cccc(C#N)c1 (3D coordinates assigned)
C=c1/c(=C\c2[n-]c(=O)n(C)c2[O-])cc(C)n1CCC(=O)[N-]c1cccc(C#N)c1 (optimized conformer: 121.75416835612121 kcal/mol)

>  <smiles>  (2820) 
C=c1c(=Cc2[nH]c(=O)n(C)c2O)cc(C)n1CCC(=O)Nc1cccc(C#N)c1

>  <score_type>  (2820) 
oracle

>  <origin>  (2820) 
adg

>  <m_score__min__energy>  (2820) 
-15.609999999999999

>  <m_primary>  (2820) 
energy

$$$$
25:0
     RDKit          3D

 28 30  0  0  0  0  0  0  0  0999 V2000
   58.2160   29.1540   47.5260 O   0  0  0  0  0  0  0  0  0  0  0  0
   58.3480   29.3800   46.2900 C   0  0  0  0  0  0  0  0  0  0  0  0
   58.4170   28.2100   45.3380 C   0  0  0  0  0  0  0  0  0  0  0  0
   57.5320   27.0700   45.7940 C   0  0  0  0  0  0  0  0  0  0  0  0
   56.1310   27.1820   45.7440 C   0  0  0  0  0  0  0  0  0  0  0  0
   55.5250   28.3300   45.2460 O   0  0  0  0  0  0  0  0  0  0  0  0
   55.3510   26.1620   46.1870 N   0  0  0  0  0  0  0  0  0  0  0  0
   55.8990   25.0240   46.6830 C   0  0  0  0  0  0  0  0  0  0  0  0
   55.1560   24.0940   47.0880 O   0  0  0  0  0  0  0  0  0  0  0  0
   57.2480   24.8880   46.7410 N   0  0  0  0  0  0  0  0  0  0  0  0
   58.0730   25.8780   46.3110 C   0  0  0  0  0  0  0  0  0  0  0  0
   59.3190   25.7100   46.3760 O   0  0  0  0  0  0  0  0  0  0  0  0
   58.3660   30.7450   45.8130 N   0  0  0  0  0  0  0  0  0  0  0  0
   58.6860   31.8290   46.7110 C   0  0  0  0  0  0  0  0  0  0  0  0
   57.7600   32.4220   47.3290 O   0  0  0  0  0  0  0  0  0  0  0  0
   60.0840   32.2500   46.9520 C   0  0  0  0  0  0  0  0  0  0  0  0
   60.9760   31.3350   47.5350 C   0  0  0  0  0  0  0  0  0  0  0  0
   62.3100   31.6860   47.7520 C   0  0  0  0  0  0  0  0  0  0  0  0
   62.7640   32.9580   47.3990 C   0  0  0  0  0  0  0  0  0  0  0  0
   61.8820   33.8860   46.8400 C   0  0  0  0  0  0  0  0  0  0  0  0
   60.5420   33.5450   46.6190 C   0  0  0  0  0  0  0  0  0  0  0  0
   59.4340   34.8080   45.9900 S   0  0  0  0  0  0  0  0  0  0  0  0
   57.9220   31.0610   44.4780 C   0  0  0  0  0  0  0  0  0  0  0  0
   56.9930   30.2310   43.8280 C   0  0  0  0  0  0  0  0  0  0  0  0
   56.5650   30.5320   42.5310 C   0  0  0  0  0  0  0  0  0  0  0  0
   57.0650   31.6590   41.8720 C   0  0  0  0  0  0  0  0  0  0  0  0
   57.9960   32.4840   42.5080 C   0  0  0  0  0  0  0  0  0  0  0  0
   58.4270   32.1860   43.8040 C   0  0  0  0  0  0  0  0  0  0  0  0
  1  2  2  0
  2  3  1  0
  3  4  1  0
  4  5  2  0
  5  6  1  0
  5  7  1  0
  7  8  1  0
  8  9  2  0
  8 10  1  0
 10 11  1  0
 11 12  2  0
  2 13  1  0
 13 14  1  0
 14 15  2  0
 14 16  1  0
 16 17  2  0
 17 18  1  0
 18 19  2  0
 19 20  1  0
 20 21  2  0
 21 22  1  0
 13 23  1  0
 23 24  2  0
 24 25  1  0
 25 26  2  0
 26 27  1  0
 27 28  2  0
 11  4  1  0
 21 16  1  0
 28 23  1  0
M  CHG  3   6  -1   7  -1  10  -1
M  END
>  <UniqueID>  (2821) 
26

>  <SMILES>  (2821) 
O=C(Cc1c([O-])[n-]c(=O)[n-]c1=O)N(C(=O)c1ccccc1S)c1ccccc1

>  <Energy>  (2821) 
58.25868569196152

>  <Genealogy>  (2821) 
O=C(Cc1c([O-])[n-]c(=O)[n-]c1=O)N(C(=O)c1ccccc1S)c1ccccc1 (protonated)
O=C(Cc1c([O-])[n-]c(=O)[n-]c1=O)N(C(=O)c1ccccc1S)c1ccccc1 (3D coordinates assigned)
O=C(Cc1c([O-])[n-]c(=O)[n-]c1=O)N(C(=O)c1ccccc1S)c1ccccc1 (optimized conformer: 58.25868569196152 kcal/mol)

>  <smiles>  (2821) 
O=C(Cc1c(O)[nH]c(=O)[nH]c1=O)N(C(=O)c1ccccc1S)c1ccccc1

>  <score_type>  (2821) 
oracle

>  <origin>  (2821) 
adg

>  <m_score__min__energy>  (2821) 
-15.83

>  <m_primary>  (2821) 
energy

$$$$
26:0
     RDKit          3D

 31 34  0  0  0  0  0  0  0  0999 V2000
   60.4150   28.0510   47.7230 O   0  0  0  0  0  0  0  0  0  0  0  0
   59.7550   28.3190   46.6850 C   0  0  0  0  0  0  0  0  0  0  0  0
   60.2040   29.3850   45.8370 N   0  0  0  0  0  0  0  0  0  0  0  0
   59.5260   30.6310   45.6260 C   0  0  0  0  0  0  0  0  0  0  0  0
   58.4360   30.7350   44.7450 C   0  0  0  0  0  0  0  0  0  0  0  0
   57.7900   31.9620   44.5690 C   0  0  0  0  0  0  0  0  0  0  0  0
   58.2140   33.0860   45.2800 C   0  0  0  0  0  0  0  0  0  0  0  0
   59.2810   32.9870   46.1830 C   0  0  0  0  0  0  0  0  0  0  0  0
   59.8240   34.4190   47.0520 S   0  0  0  0  0  0  0  0  0  0  0  0
   58.9580   34.6460   48.2610 O   0  0  0  0  0  0  0  0  0  0  0  0
   59.7010   35.6100   46.1430 O   0  0  0  0  0  0  0  0  0  0  0  0
   61.4900   34.2130   47.5330 N   0  0  0  0  0  0  0  0  0  0  0  0
   62.2940   33.7680   46.3850 C   0  0  0  0  0  0  0  0  0  0  0  0
   63.7520   33.5100   46.8200 C   0  0  0  0  0  0  0  0  0  0  0  0
   63.9350   33.7140   48.2090 O   0  0  0  0  0  0  0  0  0  0  0  0
   63.0470   32.8830   48.9320 C   0  0  0  0  0  0  0  0  0  0  0  0
   61.5760   33.2300   48.6270 C   0  0  0  0  0  0  0  0  0  0  0  0
   59.9310   31.7560   46.3560 C   0  0  0  0  0  0  0  0  0  0  0  0
   58.5790   27.4960   46.3440 C   0  0  0  0  0  0  0  0  0  0  0  0
   57.2460   27.8380   46.5050 C   0  0  0  0  0  0  0  0  0  0  0  0
   56.5270   26.7720   46.0120 C   0  0  0  0  0  0  0  0  0  0  0  0
   55.1400   26.7200   45.9510 O   0  0  0  0  0  0  0  0  0  0  0  0
   57.3480   25.8000   45.5580 N   0  0  0  0  0  0  0  0  0  0  0  0
   56.9740   24.5420   44.9660 C   0  0  0  0  0  0  0  0  0  0  0  0
   56.9440   24.3950   43.5680 C   0  0  0  0  0  0  0  0  0  0  0  0
   56.5870   23.1730   42.9910 C   0  0  0  0  0  0  0  0  0  0  0  0
   56.2630   22.0830   43.8030 C   0  0  0  0  0  0  0  0  0  0  0  0
   55.9090   20.8690   43.2280 O   0  0  0  0  0  0  0  0  0  0  0  0
   56.2980   22.2140   45.1930 C   0  0  0  0  0  0  0  0  0  0  0  0
   56.6520   23.4360   45.7740 C   0  0  0  0  0  0  0  0  0  0  0  0
   58.6080   26.2460   45.7470 C   0  0  0  0  0  0  0  0  0  0  0  0
  1  2  2  0
  2  3  1  0
  3  4  1  0
  4  5  2  0
  5  6  1  0
  6  7  2  0
  7  8  1  0
  8  9  1  0
  9 10  2  0
  9 11  2  0
  9 12  1  0
 12 13  1  0
 13 14  1  0
 14 15  1  0
 15 16  1  0
 16 17  1  0
  8 18  2  0
  2 19  1  0
 19 20  1  0
 20 21  2  0
 21 22  1  0
 21 23  1  0
 23 24  1  0
 24 25  2  0
 25 26  1  0
 26 27  2  0
 27 28  1  0
 27 29  1  0
 29 30  2  0
 23 31  1  0
 18  4  1  0
 31 19  2  0
 17 12  1  0
 30 24  1  0
M  CHG  3   3  -1  22  -1  28  -1
M  END
>  <UniqueID>  (2822) 
27

>  <SMILES>  (2822) 
O=C([N-]c1cccc(S(=O)(=O)N2CCOCC2)c1)c1cc([O-])n(-c2ccc([O-])cc2)c1

>  <Energy>  (2822) 
96.69636782272599

>  <Genealogy>  (2822) 
O=C([N-]c1cccc(S(=O)(=O)N2CCOCC2)c1)c1cc([O-])n(-c2ccc([O-])cc2)c1 (protonated)
O=C([N-]c1cccc(S(=O)(=O)N2CCOCC2)c1)c1cc([O-])n(-c2ccc([O-])cc2)c1 (3D coordinates assigned)
O=C([N-]c1cccc(S(=O)(=O)N2CCOCC2)c1)c1cc([O-])n(-c2ccc([O-])cc2)c1 (nonaromatic ring conformer: 96.69636782272599 kcal/mol)

>  <smiles>  (2822) 
O=C(Nc1cccc(S(=O)(=O)N2CCOCC2)c1)c1cc(O)n(-c2ccc(O)cc2)c1

>  <score_type>  (2822) 
oracle

>  <origin>  (2822) 
adg

>  <m_score__min__energy>  (2822) 
-15.23

>  <m_primary>  (2822) 
energy

$$$$
33:0
     RDKit          3D

 33 36  0  0  0  0  0  0  0  0999 V2000
   58.8670   30.1440   48.0300 C   0  0  0  0  0  0  0  0  0  0  0  0
   58.5860   30.4410   46.7520 C   0  0  0  0  0  0  0  0  0  0  0  0
   58.3770   29.5260   45.7160 C   0  0  0  0  0  0  0  0  0  0  0  0
   58.5130   28.1870   45.7720 C   0  0  0  0  0  0  0  0  0  0  0  0
   57.3900   27.2480   45.9370 C   0  0  0  0  0  0  0  0  0  0  0  0
   57.5050   26.0670   46.5700 N   0  0  0  0  0  0  0  0  0  0  0  0
   56.2420   25.5840   46.5670 C   0  0  0  0  0  0  0  0  0  0  0  0
   55.9420   24.4700   47.0690 O   0  0  0  0  0  0  0  0  0  0  0  0
   55.3270   26.3960   45.9950 N   0  0  0  0  0  0  0  0  0  0  0  0
   56.0650   27.4500   45.6140 C   0  0  0  0  0  0  0  0  0  0  0  0
   55.5280   28.5930   45.0320 O   0  0  0  0  0  0  0  0  0  0  0  0
   58.0480   30.2760   44.5930 C   0  0  0  0  0  0  0  0  0  0  0  0
   58.0680   31.6010   44.9830 C   0  0  0  0  0  0  0  0  0  0  0  0
   57.7920   32.7640   44.0790 C   0  0  0  0  0  0  0  0  0  0  0  0
   58.4040   31.7030   46.2870 N   0  0  0  0  0  0  0  0  0  0  0  0
   58.5540   32.9310   47.0210 C   0  0  0  0  0  0  0  0  0  0  0  0
   57.5270   33.5770   47.3670 O   0  0  0  0  0  0  0  0  0  0  0  0
   59.8580   33.4170   47.3780 N   0  0  0  0  0  0  0  0  0  0  0  0
   60.0370   34.1320   48.6500 C   0  0  0  0  0  0  0  0  0  0  0  0
   61.5170   34.4060   48.9360 C   0  0  0  0  0  0  0  0  0  0  0  0
   62.3200   33.2320   48.5650 N   0  0  0  0  0  0  0  0  0  0  0  0
   63.1680   32.5780   49.5260 C   0  0  0  0  0  0  0  0  0  0  0  0
   63.9050   31.6180   49.1660 O   0  0  0  0  0  0  0  0  0  0  0  0
   63.1510   32.9790   50.8680 O   0  0  0  0  0  0  0  0  0  0  0  0
   62.4490   32.2670   51.8870 C   0  0  0  0  0  0  0  0  0  0  0  0
   60.9640   32.4180   51.6880 C   0  0  0  0  0  0  0  0  0  0  0  0
   60.2820   33.5380   52.1960 C   0  0  0  0  0  0  0  0  0  0  0  0
   58.8950   33.6430   52.0520 C   0  0  0  0  0  0  0  0  0  0  0  0
   58.1780   32.6310   51.4060 C   0  0  0  0  0  0  0  0  0  0  0  0
   58.8490   31.5140   50.9000 C   0  0  0  0  0  0  0  0  0  0  0  0
   60.2370   31.4050   51.0420 C   0  0  0  0  0  0  0  0  0  0  0  0
   62.1940   32.6650   47.2130 C   0  0  0  0  0  0  0  0  0  0  0  0
   60.9950   33.2570   46.4620 C   0  0  0  0  0  0  0  0  0  0  0  0
  1  2  2  0
  2  3  1  0
  3  4  2  0
  4  5  1  0
  5  6  1  0
  6  7  1  0
  7  8  2  0
  7  9  1  0
  9 10  1  0
 10 11  1  0
  3 12  1  0
 12 13  2  0
 13 14  1  0
 13 15  1  0
 15 16  1  0
 16 17  2  0
 16 18  1  0
 18 19  1  0
 19 20  1  0
 20 21  1  0
 21 22  1  0
 22 23  2  0
 22 24  1  0
 24 25  1  0
 25 26  1  0
 26 27  2  0
 27 28  1  0
 28 29  2  0
 29 30  1  0
 30 31  2  0
 21 32  1  0
 32 33  1  0
 15  2  1  0
 33 18  1  0
 10  5  2  0
 31 26  1  0
M  CHG  3   6  -1   9  -1  11  -1
M  END
>  <UniqueID>  (2823) 
33

>  <SMILES>  (2823) 
C=c1/c(=C/c2[n-]c(=O)[n-]c2[O-])cc(C)n1C(=O)N1CCN(C(=O)OCc2ccccc2)CC1

>  <Energy>  (2823) 
126.54577166524224

>  <Genealogy>  (2823) 
C=c1c(=Cc2[n-]c(=O)[n-]c2[O-])cc(C)n1C(=O)N1CCN(C(=O)OCc2ccccc2)CC1 (protonated)
C=c1/c(=C/c2[n-]c(=O)[n-]c2[O-])cc(C)n1C(=O)N1CCN(C(=O)OCc2ccccc2)CC1 (cis-trans isomerization)
C=c1/c(=C/c2[n-]c(=O)[n-]c2[O-])cc(C)n1C(=O)N1CCN(C(=O)OCc2ccccc2)CC1 (3D coordinates assigned)
C=c1/c(=C/c2[n-]c(=O)[n-]c2[O-])cc(C)n1C(=O)N1CCN(C(=O)OCc2ccccc2)CC1 (nonaromatic ring conformer: 126.54577166524224 kcal/mol)

>  <smiles>  (2823) 
C=c1c(=Cc2[nH]c(=O)[nH]c2O)cc(C)n1C(=O)N1CCN(C(=O)OCc2ccccc2)CC1

>  <score_type>  (2823) 
oracle

>  <origin>  (2823) 
adg

>  <m_score__min__energy>  (2823) 
-17.75

>  <m_primary>  (2823) 
energy

$$$$
35:0
     RDKit          3D

 32 36  0  0  0  0  0  0  0  0999 V2000
   59.5030   28.6280   48.6790 C   0  0  0  0  0  0  0  0  0  0  0  0
   59.0470   29.5680   47.8300 C   0  0  0  0  0  0  0  0  0  0  0  0
   58.6410   29.3250   46.5140 C   0  0  0  0  0  0  0  0  0  0  0  0
   58.5220   28.1320   45.8950 C   0  0  0  0  0  0  0  0  0  0  0  0
   57.3790   27.2200   46.0780 C   0  0  0  0  0  0  0  0  0  0  0  0
   57.4980   25.9800   46.5830 N   0  0  0  0  0  0  0  0  0  0  0  0
   56.2440   25.4850   46.4990 C   0  0  0  0  0  0  0  0  0  0  0  0
   55.9440   24.3290   46.8940 O   0  0  0  0  0  0  0  0  0  0  0  0
   55.3400   26.3240   45.9500 N   0  0  0  0  0  0  0  0  0  0  0  0
   56.0760   27.4140   45.6760 C   0  0  0  0  0  0  0  0  0  0  0  0
   55.5760   28.5430   45.0370 O   0  0  0  0  0  0  0  0  0  0  0  0
   58.3350   30.5540   45.9720 C   0  0  0  0  0  0  0  0  0  0  0  0
   58.5500   31.4920   46.9560 C   0  0  0  0  0  0  0  0  0  0  0  0
   58.3340   32.9200   46.7100 C   0  0  0  0  0  0  0  0  0  0  0  0
   57.2730   33.4590   47.1170 O   0  0  0  0  0  0  0  0  0  0  0  0
   59.3430   33.7340   46.0970 N   0  0  0  0  0  0  0  0  0  0  0  0
   60.5320   34.2420   46.7830 C   0  0  0  0  0  0  0  0  0  0  0  0
   60.2920   34.1990   48.3030 C   0  0  0  0  0  0  0  0  0  0  0  0
   61.6280   34.2180   49.0570 C   0  0  0  0  0  0  0  0  0  0  0  0
   62.4860   33.0480   48.7430 N   0  0  0  0  0  0  0  0  0  0  0  0
   63.9030   33.3910   49.0530 C   0  0  0  0  0  0  0  0  0  0  0  0
   64.2230   33.4430   50.5400 C   0  0  0  0  0  0  0  0  0  0  0  0
   64.8390   32.3530   49.6680 C   0  0  0  0  0  0  0  0  0  0  0  0
   62.1710   32.4030   47.4370 C   0  0  0  0  0  0  0  0  0  0  0  0
   61.7820   33.4300   46.3660 C   0  0  0  0  0  0  0  0  0  0  0  0
   58.9690   30.9050   48.1140 N   0  0  0  0  0  0  0  0  0  0  0  0
   59.3600   31.5240   49.4130 C   0  0  0  0  0  0  0  0  0  0  0  0
   58.1630   31.5980   50.3870 C   0  0  0  0  0  0  0  0  0  0  0  0
   58.0780   30.3970   51.3260 C   0  0  0  0  0  0  0  0  0  0  0  0
   59.3720   30.2620   52.1220 C   0  0  0  0  0  0  0  0  0  0  0  0
   60.5480   29.9750   51.1900 C   0  0  0  0  0  0  0  0  0  0  0  0
   60.6840   31.0100   50.0540 C   0  0  0  0  0  0  0  0  0  0  0  0
  1  2  2  0
  2  3  1  0
  3  4  2  3
  4  5  1  0
  5  6  1  0
  6  7  1  0
  7  8  2  0
  7  9  1  0
  9 10  1  0
 10 11  1  0
  3 12  1  0
 12 13  2  0
 13 14  1  0
 14 15  2  0
 14 16  1  0
 16 17  1  0
 17 18  1  0
 18 19  1  0
 19 20  1  0
 20 21  1  0
 21 22  1  0
 22 23  1  0
 20 24  1  0
 24 25  1  0
 13 26  1  0
 26 27  1  0
 27 28  1  0
 28 29  1  0
 29 30  1  0
 30 31  1  0
 31 32  1  0
 26  2  1  0
 32 27  1  0
 10  5  2  0
 25 17  1  0
 23 21  1  0
M  CHG  3   6  -1   9  -1  16  -1
M  END
>  <UniqueID>  (2824) 
35

>  <SMILES>  (2824) 
C=c1c(=Cc2[n-]c(=O)[n-]c2O)cc(C(=O)[N-]C2CCN(C3CC3)CC2)n1C1CCCCC1

>  <Energy>  (2824) 
425.8031684367641

>  <Genealogy>  (2824) 
C=c1c(=Cc2[n-]c(=O)[n-]c2O)cc(C(=O)[N-]C2CCN(C3CC3)CC2)n1C1CCCCC1 (protonated)
C=c1c(=Cc2[n-]c(=O)[n-]c2O)cc(C(=O)[N-]C2CCN(C3CC3)CC2)n1C1CCCCC1 (3D coordinates assigned)
C=c1c(=Cc2[n-]c(=O)[n-]c2O)cc(C(=O)[N-]C2CCN(C3CC3)CC2)n1C1CCCCC1 (nonaromatic ring conformer: 425.8031684367641 kcal/mol)

>  <smiles>  (2824) 
C=c1c(=Cc2[nH]c(=O)[nH]c2O)cc(C(=O)NC2CCN(C3CC3)CC2)n1C1CCCCC1

>  <score_type>  (2824) 
oracle

>  <origin>  (2824) 
adg

>  <m_score__min__energy>  (2824) 
-15.19

>  <m_primary>  (2824) 
energy

$$$$
59:0
     RDKit          3D

 30 33  0  0  0  0  0  0  0  0999 V2000
   54.2680   28.6050   53.7100 C   0  0  0  0  0  0  0  0  0  0  0  0
   54.8380   29.6130   53.0270 C   0  0  0  0  0  0  0  0  0  0  0  0
   54.1640   30.7150   52.4820 C   0  0  0  0  0  0  0  0  0  0  0  0
   52.8370   30.9610   52.5090 C   0  0  0  0  0  0  0  0  0  0  0  0
   51.9880   31.0980   51.3070 C   0  0  0  0  0  0  0  0  0  0  0  0
   52.0360   30.2420   50.2700 N   0  0  0  0  0  0  0  0  0  0  0  0
   51.2500   30.8260   49.3410 C   0  0  0  0  0  0  0  0  0  0  0  0
   51.0550   30.3240   48.2050 O   0  0  0  0  0  0  0  0  0  0  0  0
   50.7290   32.0160   49.7070 N   0  0  0  0  0  0  0  0  0  0  0  0
   51.2150   32.1830   50.9480 C   0  0  0  0  0  0  0  0  0  0  0  0
   51.0230   33.3420   51.6950 O   0  0  0  0  0  0  0  0  0  0  0  0
   55.1410   31.5640   51.9940 C   0  0  0  0  0  0  0  0  0  0  0  0
   56.3550   30.9500   52.2250 C   0  0  0  0  0  0  0  0  0  0  0  0
   57.6440   31.6440   52.0420 C   0  0  0  0  0  0  0  0  0  0  0  0
   58.3990   31.7710   53.0470 O   0  0  0  0  0  0  0  0  0  0  0  0
   57.9580   32.3270   50.8050 N   0  0  0  0  0  0  0  0  0  0  0  0
   58.8890   33.4590   51.0690 C   0  0  0  0  0  0  0  0  0  0  0  0
   60.3500   33.1530   50.6990 C   0  0  0  0  0  0  0  0  0  0  0  0
   60.4520   32.6680   49.3150 N   0  0  0  0  0  0  0  0  0  0  0  0
   61.6990   32.7510   48.5890 C   0  0  0  0  0  0  0  0  0  0  0  0
   61.7670   32.3220   47.4050 O   0  0  0  0  0  0  0  0  0  0  0  0
   62.9280   33.3500   49.2290 C   0  0  0  0  0  0  0  0  0  0  0  0
   64.1050   33.4670   48.2680 C   0  0  0  0  0  0  0  0  0  0  0  0
   64.1420   32.4400   49.3910 C   0  0  0  0  0  0  0  0  0  0  0  0
   59.2770   32.0330   48.6980 C   0  0  0  0  0  0  0  0  0  0  0  0
   58.4300   31.3580   49.7810 C   0  0  0  0  0  0  0  0  0  0  0  0
   56.1800   29.7520   52.8400 N   0  0  0  0  0  0  0  0  0  0  0  0
   57.2420   28.8810   53.3730 C   0  0  0  0  0  0  0  0  0  0  0  0
   58.4860   28.8560   52.4680 C   0  0  0  0  0  0  0  0  0  0  0  0
   59.7890   28.9200   53.2540 C   0  0  0  0  0  0  0  0  0  0  0  0
  1  2  2  0
  2  3  1  0
  3  4  2  3
  4  5  1  0
  5  6  1  0
  6  7  1  0
  7  8  2  0
  7  9  1  0
  9 10  1  0
 10 11  1  0
  3 12  1  0
 12 13  2  0
 13 14  1  0
 14 15  2  0
 14 16  1  0
 16 17  1  0
 17 18  1  0
 18 19  1  0
 19 20  1  0
 20 21  2  0
 20 22  1  0
 22 23  1  0
 23 24  1  0
 19 25  1  0
 25 26  1  0
 13 27  1  0
 27 28  1  0
 28 29  1  0
 29 30  1  0
 27  2  1  0
 10  5  2  0
 26 16  1  0
 24 22  1  0
M  CHG  4   6  -1   9  -1  11  -1  16   1
M  END
>  <UniqueID>  (2825) 
58

>  <SMILES>  (2825) 
C=c1c(=Cc2[n-]c(=O)[n-]c2[O-])cc(C(=O)[NH+]2CCN(C(=O)C3CC3)CC2)n1CCC

>  <Energy>  (2825) 
399.26281060011854

>  <Genealogy>  (2825) 
C=c1c(=Cc2[n-]c(=O)[n-]c2[O-])cc(C(=O)[NH+]2CCN(C(=O)C3CC3)CC2)n1CCC (protonated)
C=c1c(=Cc2[n-]c(=O)[n-]c2[O-])cc(C(=O)[NH+]2CCN(C(=O)C3CC3)CC2)n1CCC (3D coordinates assigned)
C=c1c(=Cc2[n-]c(=O)[n-]c2[O-])cc(C(=O)[NH+]2CCN(C(=O)C3CC3)CC2)n1CCC (nonaromatic ring conformer: 399.26281060011854 kcal/mol)

>  <smiles>  (2825) 
C=c1c(=Cc2[nH]c(=O)[nH]c2O)cc(C(=O)N2CCN(C(=O)C3CC3)CC2)n1CCC

>  <score_type>  (2825) 
oracle

>  <origin>  (2825) 
adg

>  <m_score__min__energy>  (2825) 
-15.449999999999999

>  <m_primary>  (2825) 
energy

$$$$
76:0
     RDKit          3D

 28 30  0  0  0  0  0  0  0  0999 V2000
   58.4400   28.2650   47.2610 C   0  0  0  0  0  0  0  0  0  0  0  0
   58.0070   28.8580   46.1470 C   0  0  0  0  0  0  0  0  0  0  0  0
   57.9020   30.1610   46.0390 O   0  0  0  0  0  0  0  0  0  0  0  0
   57.4590   30.4470   44.8380 C   0  0  0  0  0  0  0  0  0  0  0  0
   57.2230   31.8430   44.3490 C   0  0  0  0  0  0  0  0  0  0  0  0
   58.4150   32.7590   44.6390 C   0  0  0  0  0  0  0  0  0  0  0  0
   58.1050   33.7340   45.7460 C   0  0  0  0  0  0  0  0  0  0  0  0
   56.9160   33.8010   46.1650 O   0  0  0  0  0  0  0  0  0  0  0  0
   59.1340   34.4870   46.4210 N   0  0  0  0  0  0  0  0  0  0  0  0
   59.6460   35.6950   45.7680 C   0  0  0  0  0  0  0  0  0  0  0  0
   59.6780   34.0870   47.7280 C   0  0  0  0  0  0  0  0  0  0  0  0
   61.0350   33.4480   47.5670 C   0  0  0  0  0  0  0  0  0  0  0  0
   62.0680   34.2330   47.1510 N   0  0  0  0  0  0  0  0  0  0  0  0
   63.3220   33.7460   46.9600 C   0  0  0  0  0  0  0  0  0  0  0  0
   63.5870   32.3970   47.1870 C   0  0  0  0  0  0  0  0  0  0  0  0
   62.5550   31.5600   47.6090 C   0  0  0  0  0  0  0  0  0  0  0  0
   61.2600   32.0710   47.8030 C   0  0  0  0  0  0  0  0  0  0  0  0
   60.1710   31.1600   48.3010 C   0  0  0  0  0  0  0  0  0  0  0  0
   57.2620   29.2930   44.1070 C   0  0  0  0  0  0  0  0  0  0  0  0
   57.6170   28.2520   44.9520 C   0  0  0  0  0  0  0  0  0  0  0  0
   57.5520   26.9330   44.6900 C   0  0  0  0  0  0  0  0  0  0  0  0
   57.1040   25.9180   45.6630 C   0  0  0  0  0  0  0  0  0  0  0  0
   57.8800   24.9540   46.1910 N   0  0  0  0  0  0  0  0  0  0  0  0
   57.0590   24.3340   47.0660 C   0  0  0  0  0  0  0  0  0  0  0  0
   57.4290   23.3600   47.7720 O   0  0  0  0  0  0  0  0  0  0  0  0
   55.8130   24.8480   47.1330 N   0  0  0  0  0  0  0  0  0  0  0  0
   55.8640   25.8550   46.2450 C   0  0  0  0  0  0  0  0  0  0  0  0
   54.7950   26.6990   45.9730 O   0  0  0  0  0  0  0  0  0  0  0  0
  1  2  2  0
  2  3  1  0
  3  4  1  0
  4  5  1  0
  5  6  1  0
  6  7  1  0
  7  8  2  0
  7  9  1  0
  9 10  1  0
  9 11  1  0
 11 12  1  0
 12 13  2  0
 13 14  1  0
 14 15  2  0
 15 16  1  0
 16 17  2  0
 17 18  1  0
  4 19  2  0
 19 20  1  0
 20 21  2  0
 21 22  1  0
 22 23  1  0
 23 24  1  0
 24 25  2  0
 24 26  1  0
 26 27  1  0
 27 28  1  0
 20  2  1  0
 27 22  2  0
 17 12  1  0
M  CHG  3  23  -1  26  -1  28  -1
M  END
>  <UniqueID>  (2826) 
72

>  <SMILES>  (2826) 
C=c1oc(CCC(=O)N(C)Cc2ncccc2C)c/c1=C\c1[n-]c(=O)[n-]c1[O-]

>  <Energy>  (2826) 
106.16846219111386

>  <Genealogy>  (2826) 
C=c1oc(CCC(=O)N(C)Cc2ncccc2C)cc1=Cc1[n-]c(=O)[n-]c1[O-] (protonated)
C=c1oc(CCC(=O)N(C)Cc2ncccc2C)c/c1=C\c1[n-]c(=O)[n-]c1[O-] (cis-trans isomerization)
C=c1oc(CCC(=O)N(C)Cc2ncccc2C)c/c1=C\c1[n-]c(=O)[n-]c1[O-] (3D coordinates assigned)
C=c1oc(CCC(=O)N(C)Cc2ncccc2C)c/c1=C\c1[n-]c(=O)[n-]c1[O-] (optimized conformer: 106.16846219111386 kcal/mol)

>  <smiles>  (2826) 
C=c1oc(CCC(=O)N(C)Cc2ncccc2C)cc1=Cc1[nH]c(=O)[nH]c1O

>  <score_type>  (2826) 
oracle

>  <origin>  (2826) 
adg

>  <m_score__min__energy>  (2826) 
-17.690000000000001

>  <m_primary>  (2826) 
energy

$$$$
4:0
     RDKit          3D

 30 33  0  0  0  0  0  0  0  0999 V2000
   55.8060   31.4940   51.9840 C   0  0  0  0  0  0  0  0  0  0  0  0
   55.1910   30.4240   52.5140 C   0  0  0  0  0  0  0  0  0  0  0  0
   53.8380   30.3220   52.8790 C   0  0  0  0  0  0  0  0  0  0  0  0
   52.7930   31.1390   52.6430 C   0  0  0  0  0  0  0  0  0  0  0  0
   52.0300   31.2190   51.3880 C   0  0  0  0  0  0  0  0  0  0  0  0
   52.1100   30.3020   50.4100 N   0  0  0  0  0  0  0  0  0  0  0  0
   51.3590   30.8350   49.4220 C   0  0  0  0  0  0  0  0  0  0  0  0
   51.1750   30.2500   48.3220 O   0  0  0  0  0  0  0  0  0  0  0  0
   50.8310   32.0450   49.6980 N   0  0  0  0  0  0  0  0  0  0  0  0
   51.2780   32.2820   50.9420 C   0  0  0  0  0  0  0  0  0  0  0  0
   51.0250   33.4560   51.6420 O   0  0  0  0  0  0  0  0  0  0  0  0
   53.7150   29.1360   53.5820 C   0  0  0  0  0  0  0  0  0  0  0  0
   54.9560   28.5330   53.5720 C   0  0  0  0  0  0  0  0  0  0  0  0
   55.2600   27.2090   54.2030 C   0  0  0  0  0  0  0  0  0  0  0  0
   55.8510   29.3020   52.9080 N   0  0  0  0  0  0  0  0  0  0  0  0
   57.2840   29.0130   52.7480 C   0  0  0  0  0  0  0  0  0  0  0  0
   58.0950   30.2600   52.9820 C   0  0  0  0  0  0  0  0  0  0  0  0
   58.2720   30.6430   54.1710 O   0  0  0  0  0  0  0  0  0  0  0  0
   58.6790   31.0130   51.8950 N   0  0  0  0  0  0  0  0  0  0  0  0
   58.9660   30.3560   50.6070 C   0  0  0  0  0  0  0  0  0  0  0  0
   59.8610   31.2250   49.7220 C   0  0  0  0  0  0  0  0  0  0  0  0
   59.3110   32.5860   49.6640 N   0  0  0  0  0  0  0  0  0  0  0  0
   59.1750   33.2900   48.4160 C   0  0  0  0  0  0  0  0  0  0  0  0
   58.1310   32.9980   47.5890 N   0  0  0  0  0  0  0  0  0  0  0  0
   57.9630   33.6190   46.3900 C   0  0  0  0  0  0  0  0  0  0  0  0
   58.8800   34.5810   45.9670 C   0  0  0  0  0  0  0  0  0  0  0  0
   59.9700   34.8890   46.7820 C   0  0  0  0  0  0  0  0  0  0  0  0
   60.1270   34.2410   48.0090 C   0  0  0  0  0  0  0  0  0  0  0  0
   58.9430   33.2700   50.9120 C   0  0  0  0  0  0  0  0  0  0  0  0
   59.1640   32.3810   52.1430 C   0  0  0  0  0  0  0  0  0  0  0  0
  1  2  2  0
  2  3  1  0
  3  4  2  0
  4  5  1  0
  5  6  1  0
  6  7  1  0
  7  8  2  0
  7  9  1  0
  9 10  1  0
 10 11  1  0
  3 12  1  0
 12 13  2  0
 13 14  1  0
 13 15  1  0
 15 16  1  0
 16 17  1  0
 17 18  2  0
 17 19  1  0
 19 20  1  0
 20 21  1  0
 21 22  1  0
 22 23  1  0
 23 24  2  0
 24 25  1  0
 25 26  2  0
 26 27  1  0
 27 28  2  0
 22 29  1  0
 29 30  1  0
 15  2  1  0
 30 19  1  0
 10  5  2  0
 28 23  1  0
M  CHG  3   6  -1   9  -1  11  -1
M  END
>  <UniqueID>  (2827) 
5

>  <SMILES>  (2827) 
C=c1/c(=C\c2[n-]c(=O)[n-]c2[O-])cc(C)n1CC(=O)N1CCN(c2ccccn2)CC1

>  <Energy>  (2827) 
127.67687813200696

>  <Genealogy>  (2827) 
C=c1c(=Cc2[n-]c(=O)[n-]c2[O-])cc(C)n1CC(=O)N1CCN(c2ccccn2)CC1 (protonated)
C=c1/c(=C\c2[n-]c(=O)[n-]c2[O-])cc(C)n1CC(=O)N1CCN(c2ccccn2)CC1 (cis-trans isomerization)
C=c1/c(=C\c2[n-]c(=O)[n-]c2[O-])cc(C)n1CC(=O)N1CCN(c2ccccn2)CC1 (3D coordinates assigned)
C=c1/c(=C\c2[n-]c(=O)[n-]c2[O-])cc(C)n1CC(=O)N1CCN(c2ccccn2)CC1 (nonaromatic ring conformer: 127.67687813200696 kcal/mol)

>  <smiles>  (2827) 
C=c1c(=Cc2[nH]c(=O)[nH]c2O)cc(C)n1CC(=O)N1CCN(c2ccccn2)CC1

>  <score_type>  (2827) 
oracle

>  <origin>  (2827) 
adg

>  <m_score__min__energy>  (2827) 
-17.600000000000001

>  <m_primary>  (2827) 
energy

$$$$
14:0
     RDKit          3D

 32 35  0  0  0  0  0  0  0  0999 V2000
   54.0420   28.8760   54.3900 C   0  0  0  0  0  0  0  0  0  0  0  0
   54.4220   29.8350   53.5300 C   0  0  0  0  0  0  0  0  0  0  0  0
   53.6370   30.4360   52.5330 C   0  0  0  0  0  0  0  0  0  0  0  0
   52.3150   30.3640   52.2790 C   0  0  0  0  0  0  0  0  0  0  0  0
   51.6550   30.7850   51.0340 C   0  0  0  0  0  0  0  0  0  0  0  0
   51.6420   30.0440   49.9130 N   0  0  0  0  0  0  0  0  0  0  0  0
   51.0570   30.8580   49.0070 C   0  0  0  0  0  0  0  0  0  0  0  0
   50.8470   30.5080   47.8170 O   0  0  0  0  0  0  0  0  0  0  0  0
   50.7240   32.0810   49.4750 N   0  0  0  0  0  0  0  0  0  0  0  0
   51.1230   32.0230   50.7560 C   0  0  0  0  0  0  0  0  0  0  0  0
   51.0290   33.0910   51.6410 O   0  0  0  0  0  0  0  0  0  0  0  0
   54.5010   31.2070   51.7740 C   0  0  0  0  0  0  0  0  0  0  0  0
   55.7430   31.1160   52.3640 C   0  0  0  0  0  0  0  0  0  0  0  0
   56.9320   31.8490   51.8900 C   0  0  0  0  0  0  0  0  0  0  0  0
   56.9780   33.0980   52.0590 O   0  0  0  0  0  0  0  0  0  0  0  0
   58.0470   31.1700   51.2780 N   0  0  0  0  0  0  0  0  0  0  0  0
   58.8920   31.9120   50.3280 C   0  0  0  0  0  0  0  0  0  0  0  0
   59.9780   31.0140   49.7300 C   0  0  0  0  0  0  0  0  0  0  0  0
   60.6440   30.2690   50.8060 N   0  0  0  0  0  0  0  0  0  0  0  0
   62.0770   30.3030   50.9400 C   0  0  0  0  0  0  0  0  0  0  0  0
   62.7420   29.3270   51.6990 C   0  0  0  0  0  0  0  0  0  0  0  0
   64.1290   29.3660   51.8380 C   0  0  0  0  0  0  0  0  0  0  0  0
   64.8690   30.3810   51.2260 C   0  0  0  0  0  0  0  0  0  0  0  0
   64.2250   31.3720   50.4670 C   0  0  0  0  0  0  0  0  0  0  0  0
   65.0090   32.4500   49.8260 C   0  0  0  0  0  0  0  0  0  0  0  0
   66.2370   32.5830   50.0720 O   0  0  0  0  0  0  0  0  0  0  0  0
   64.4000   33.3350   48.9440 O   0  0  0  0  0  0  0  0  0  0  0  0
   62.8240   31.3260   50.3310 C   0  0  0  0  0  0  0  0  0  0  0  0
   59.8390   29.5550   51.8070 C   0  0  0  0  0  0  0  0  0  0  0  0
   58.3350   29.7580   51.5790 C   0  0  0  0  0  0  0  0  0  0  0  0
   55.7030   30.2750   53.4260 N   0  0  0  0  0  0  0  0  0  0  0  0
   56.8500   29.8050   54.2120 C   0  0  0  0  0  0  0  0  0  0  0  0
  1  2  2  0
  2  3  1  0
  3  4  2  0
  4  5  1  0
  5  6  1  0
  6  7  1  0
  7  8  2  0
  7  9  1  0
  9 10  1  0
 10 11  1  0
  3 12  1  0
 12 13  2  0
 13 14  1  0
 14 15  2  0
 14 16  1  0
 16 17  1  0
 17 18  1  0
 18 19  1  0
 19 20  1  0
 20 21  2  0
 21 22  1  0
 22 23  2  0
 23 24  1  0
 24 25  1  0
 25 26  2  0
 25 27  1  0
 24 28  2  0
 19 29  1  0
 29 30  1  0
 13 31  1  0
 31 32  1  0
 31  2  1  0
 10  5  2  0
 30 16  1  0
 28 20  1  0
M  CHG  4   6  -1   9  -1  11  -1  27  -1
M  END
>  <UniqueID>  (2828) 
15

>  <SMILES>  (2828) 
C=c1/c(=C\c2[n-]c(=O)[n-]c2[O-])cc(C(=O)N2CCN(c3cccc(C(=O)[O-])c3)CC2)n1C

>  <Energy>  (2828) 
135.1432875106872

>  <Genealogy>  (2828) 
C=c1c(=Cc2[n-]c(=O)[n-]c2[O-])cc(C(=O)N2CCN(c3cccc(C(=O)[O-])c3)CC2)n1C (protonated)
C=c1/c(=C\c2[n-]c(=O)[n-]c2[O-])cc(C(=O)N2CCN(c3cccc(C(=O)[O-])c3)CC2)n1C (cis-trans isomerization)
C=c1/c(=C\c2[n-]c(=O)[n-]c2[O-])cc(C(=O)N2CCN(c3cccc(C(=O)[O-])c3)CC2)n1C (3D coordinates assigned)
C=c1/c(=C\c2[n-]c(=O)[n-]c2[O-])cc(C(=O)N2CCN(c3cccc(C(=O)[O-])c3)CC2)n1C (nonaromatic ring conformer: 135.1432875106872 kcal/mol)

>  <smiles>  (2828) 
C=c1c(=Cc2[nH]c(=O)[nH]c2O)cc(C(=O)N2CCN(c3cccc(C(=O)O)c3)CC2)n1C

>  <score_type>  (2828) 
oracle

>  <origin>  (2828) 
adg

>  <m_score__min__energy>  (2828) 
-18.379999999999999

>  <m_primary>  (2828) 
energy

$$$$
17:0
     RDKit          3D

 32 35  0  0  0  0  0  0  0  0999 V2000
   57.4730   29.8470   43.8850 C   0  0  0  0  0  0  0  0  0  0  0  0
   57.7540   29.6240   45.1850 C   0  0  0  0  0  0  0  0  0  0  0  0
   57.9050   30.7410   46.0390 C   0  0  0  0  0  0  0  0  0  0  0  0
   57.4220   31.9860   45.6440 O   0  0  0  0  0  0  0  0  0  0  0  0
   58.5430   30.6200   47.2850 C   0  0  0  0  0  0  0  0  0  0  0  0
   58.7910   32.1080   48.2910 S   0  0  0  0  0  0  0  0  0  0  0  0
   60.5960   31.9850   48.3530 C   0  0  0  0  0  0  0  0  0  0  0  0
   61.3130   32.0320   47.1470 C   0  0  0  0  0  0  0  0  0  0  0  0
   62.7020   31.8960   47.1380 C   0  0  0  0  0  0  0  0  0  0  0  0
   63.3970   31.7420   48.3350 C   0  0  0  0  0  0  0  0  0  0  0  0
   62.7050   31.7460   49.5470 C   0  0  0  0  0  0  0  0  0  0  0  0
   61.3050   31.8810   49.5750 C   0  0  0  0  0  0  0  0  0  0  0  0
   60.6350   31.9960   50.8460 N   0  0  0  0  0  0  0  0  0  0  0  0
   60.2560   33.3160   51.3710 C   0  0  0  0  0  0  0  0  0  0  0  0
   58.7640   33.4910   51.2970 C   0  0  0  0  0  0  0  0  0  0  0  0
   57.9400   32.4400   51.3640 C   0  0  0  0  0  0  0  0  0  0  0  0
   58.4690   31.0650   51.4170 C   0  0  0  0  0  0  0  0  0  0  0  0
   57.6750   30.0900   51.4980 O   0  0  0  0  0  0  0  0  0  0  0  0
   59.9520   30.8300   51.4200 C   0  0  0  0  0  0  0  0  0  0  0  0
   58.9530   29.3460   47.7330 C   0  0  0  0  0  0  0  0  0  0  0  0
   59.4860   29.1110   49.1260 C   0  0  0  0  0  0  0  0  0  0  0  0
   60.5210   27.9880   49.1350 C   0  0  0  0  0  0  0  0  0  0  0  0
   58.7180   28.2240   46.9260 C   0  0  0  0  0  0  0  0  0  0  0  0
   58.0450   28.3210   45.6930 C   0  0  0  0  0  0  0  0  0  0  0  0
   57.6780   27.1500   45.1080 C   0  0  0  0  0  0  0  0  0  0  0  0
   57.1330   25.9590   45.7950 C   0  0  0  0  0  0  0  0  0  0  0  0
   57.8120   24.8220   46.0400 N   0  0  0  0  0  0  0  0  0  0  0  0
   56.8790   24.0050   46.5720 C   0  0  0  0  0  0  0  0  0  0  0  0
   57.1390   22.8370   46.9600 O   0  0  0  0  0  0  0  0  0  0  0  0
   55.6410   24.5380   46.6570 N   0  0  0  0  0  0  0  0  0  0  0  0
   55.8190   25.7700   46.1500 C   0  0  0  0  0  0  0  0  0  0  0  0
   54.7970   26.6980   46.0060 O   0  0  0  0  0  0  0  0  0  0  0  0
  1  2  2  0
  2  3  1  0
  3  4  1  0
  3  5  2  0
  5  6  1  0
  6  7  1  0
  7  8  2  0
  8  9  1  0
  9 10  2  0
 10 11  1  0
 11 12  2  0
 12 13  1  0
 13 14  1  0
 14 15  1  0
 15 16  2  0
 16 17  1  0
 17 18  2  0
 17 19  1  0
  5 20  1  0
 20 21  1  0
 21 22  1  0
 20 23  2  0
 23 24  1  0
 24 25  2  3
 25 26  1  0
 26 27  1  0
 27 28  1  0
 28 29  2  0
 28 30  1  0
 30 31  1  0
 31 32  1  0
 24  2  1  0
 31 26  2  0
 12  7  1  0
 19 13  1  0
M  CHG  4   4  -1  27  -1  30  -1  32  -1
M  END
>  <UniqueID>  (2829) 
18

>  <SMILES>  (2829) 
C=c1c([O-])c(Sc2ccccc2N2CC=CC(=O)C2)c(CC)cc1=Cc1[n-]c(=O)[n-]c1[O-]

>  <Energy>  (2829) 
109.2310574003579

>  <Genealogy>  (2829) 
C=c1c([O-])c(Sc2ccccc2N2CC=CC(=O)C2)c(CC)cc1=Cc1[n-]c(=O)[n-]c1[O-] (protonated)
C=c1c([O-])c(Sc2ccccc2N2CC=CC(=O)C2)c(CC)cc1=Cc1[n-]c(=O)[n-]c1[O-] (3D coordinates assigned)
C=c1c([O-])c(Sc2ccccc2N2CC=CC(=O)C2)c(CC)cc1=Cc1[n-]c(=O)[n-]c1[O-] (nonaromatic ring conformer: 109.2310574003579 kcal/mol)

>  <smiles>  (2829) 
C=c1c(O)c(Sc2ccccc2N2CC=CC(=O)C2)c(CC)cc1=Cc1[nH]c(=O)[nH]c1O

>  <score_type>  (2829) 
oracle

>  <origin>  (2829) 
adg

>  <m_score__min__energy>  (2829) 
-17.309999999999999

>  <m_primary>  (2829) 
energy

$$$$
28:0
     RDKit          3D

 37 40  0  0  0  0  0  0  0  0999 V2000
   58.8820   33.1970   47.9610 C   0  0  0  0  0  0  0  0  0  0  0  0
   58.7670   32.0180   48.5930 C   0  0  0  0  0  0  0  0  0  0  0  0
   58.3490   32.0710   49.8850 N   0  0  0  0  0  0  0  0  0  0  0  0
   58.2000   30.9900   50.6900 C   0  0  0  0  0  0  0  0  0  0  0  0
   57.7190   31.2160   52.1310 C   0  0  0  0  0  0  0  0  0  0  0  0
   57.8120   29.9460   53.0080 C   0  0  0  0  0  0  0  0  0  0  0  0
   58.5920   32.3090   52.7790 C   0  0  0  0  0  0  0  0  0  0  0  0
   56.2350   31.6700   52.1170 C   0  0  0  0  0  0  0  0  0  0  0  0
   55.3710   30.5900   51.7640 O   0  0  0  0  0  0  0  0  0  0  0  0
   53.9760   30.6060   51.8980 C   0  0  0  0  0  0  0  0  0  0  0  0
   53.3550   29.5010   52.4960 C   0  0  0  0  0  0  0  0  0  0  0  0
   51.9670   29.4700   52.6560 C   0  0  0  0  0  0  0  0  0  0  0  0
   51.1880   30.5430   52.2150 C   0  0  0  0  0  0  0  0  0  0  0  0
   51.7950   31.6510   51.6170 C   0  0  0  0  0  0  0  0  0  0  0  0
   51.0180   32.7170   51.1810 O   0  0  0  0  0  0  0  0  0  0  0  0
   53.1870   31.6870   51.4580 C   0  0  0  0  0  0  0  0  0  0  0  0
   58.5350   29.7320   50.1720 C   0  0  0  0  0  0  0  0  0  0  0  0
   58.9600   29.6060   48.8500 C   0  0  0  0  0  0  0  0  0  0  0  0
   59.2490   28.3210   48.4000 O   0  0  0  0  0  0  0  0  0  0  0  0
   59.0730   30.7480   48.0040 C   0  0  0  0  0  0  0  0  0  0  0  0
   59.4210   30.6330   46.6910 C   0  0  0  0  0  0  0  0  0  0  0  0
   58.6970   29.8480   45.6790 C   0  0  0  0  0  0  0  0  0  0  0  0
   59.0250   28.5730   45.2440 C   0  0  0  0  0  0  0  0  0  0  0  0
   60.1670   27.7260   45.7230 C   0  0  0  0  0  0  0  0  0  0  0  0
   58.1380   28.2720   44.2210 C   0  0  0  0  0  0  0  0  0  0  0  0
   58.1280   27.0380   43.4080 C   0  0  0  0  0  0  0  0  0  0  0  0
   58.4800   27.0990   42.1990 O   0  0  0  0  0  0  0  0  0  0  0  0
   57.7410   25.7710   43.9710 N   0  0  0  0  0  0  0  0  0  0  0  0
   58.0040   25.4520   45.3800 C   0  0  0  0  0  0  0  0  0  0  0  0
   58.5790   24.0300   45.5170 C   0  0  0  0  0  0  0  0  0  0  0  0
   57.9770   23.0340   44.5830 N   0  0  0  0  0  0  0  0  0  0  0  0
   57.7130   21.7590   45.2730 C   0  0  0  0  0  0  0  0  0  0  0  0
   56.7540   23.5120   43.9130 C   0  0  0  0  0  0  0  0  0  0  0  0
   57.0640   24.7840   43.1230 C   0  0  0  0  0  0  0  0  0  0  0  0
   57.3220   29.3900   44.0700 C   0  0  0  0  0  0  0  0  0  0  0  0
   56.2500   29.5930   43.0450 C   0  0  0  0  0  0  0  0  0  0  0  0
   57.6670   30.3390   44.9640 N   0  0  0  0  0  0  0  0  0  0  0  0
  1  2  2  0
  2  3  1  0
  3  4  2  0
  4  5  1  0
  5  6  1  0
  5  7  1  0
  5  8  1  0
  8  9  1  0
  9 10  1  0
 10 11  2  0
 11 12  1  0
 12 13  2  0
 13 14  1  0
 14 15  1  0
 14 16  2  0
  4 17  1  0
 17 18  2  0
 18 19  1  0
 18 20  1  0
 20 21  2  0
 21 22  1  0
 22 23  2  0
 23 24  1  0
 23 25  1  0
 25 26  1  0
 26 27  2  0
 26 28  1  0
 28 29  1  0
 29 30  1  0
 30 31  1  0
 31 32  1  0
 31 33  1  0
 33 34  1  0
 25 35  2  0
 35 36  1  0
 35 37  1  0
 20  2  1  0
 37 22  1  0
 16 10  1  0
 34 28  1  0
M  CHG  2  15  -1  19  -1
M  END
>  <UniqueID>  (2830) 
28

>  <SMILES>  (2830) 
C=c1nc(C(C)(C)COc2cccc([O-])c2)cc([O-])/c1=C\c1[nH]c(C)c(C(=O)N2CCN(C)CC2)c1C

>  <Energy>  (2830) 
129.20855802196635

>  <Genealogy>  (2830) 
C=c1nc(C(C)(C)COc2cccc([O-])c2)cc([O-])c1=Cc1[nH]c(C)c(C(=O)N2CCN(C)CC2)c1C (protonated)
C=c1nc(C(C)(C)COc2cccc([O-])c2)cc([O-])/c1=C\c1[nH]c(C)c(C(=O)N2CCN(C)CC2)c1C (cis-trans isomerization)
C=c1nc(C(C)(C)COc2cccc([O-])c2)cc([O-])/c1=C\c1[nH]c(C)c(C(=O)N2CCN(C)CC2)c1C (3D coordinates assigned)
C=c1nc(C(C)(C)COc2cccc([O-])c2)cc([O-])/c1=C\c1[nH]c(C)c(C(=O)N2CCN(C)CC2)c1C (nonaromatic ring conformer: 129.20855802196635 kcal/mol)

>  <smiles>  (2830) 
C=c1nc(C(C)(C)COc2cccc(O)c2)cc(O)c1=Cc1[nH]c(C)c(C(=O)N2CCN(C)CC2)c1C

>  <score_type>  (2830) 
oracle

>  <origin>  (2830) 
adg

>  <m_score__min__energy>  (2830) 
-15.16

>  <m_primary>  (2830) 
energy

$$$$
30:0
     RDKit          3D

 32 35  0  0  0  0  0  0  0  0999 V2000
   53.7540   29.6940   54.9340 C   0  0  0  0  0  0  0  0  0  0  0  0
   54.3640   30.0360   53.7870 C   0  0  0  0  0  0  0  0  0  0  0  0
   53.7280   30.3730   52.5880 C   0  0  0  0  0  0  0  0  0  0  0  0
   52.4060   30.3560   52.3300 C   0  0  0  0  0  0  0  0  0  0  0  0
   51.4960   31.4710   52.6450 C   0  0  0  0  0  0  0  0  0  0  0  0
   51.2450   31.8910   53.8990 N   0  0  0  0  0  0  0  0  0  0  0  0
   50.4480   32.9660   53.7140 C   0  0  0  0  0  0  0  0  0  0  0  0
   49.9880   33.6400   54.6720 O   0  0  0  0  0  0  0  0  0  0  0  0
   50.1920   33.2680   52.4230 N   0  0  0  0  0  0  0  0  0  0  0  0
   50.8750   32.3220   51.7580 C   0  0  0  0  0  0  0  0  0  0  0  0
   50.9700   32.2670   50.3740 O   0  0  0  0  0  0  0  0  0  0  0  0
   54.7380   30.6560   51.6810 C   0  0  0  0  0  0  0  0  0  0  0  0
   55.9320   30.4930   52.3500 C   0  0  0  0  0  0  0  0  0  0  0  0
   57.2520   30.6330   51.6960 C   0  0  0  0  0  0  0  0  0  0  0  0
   57.9560   29.5930   51.5870 O   0  0  0  0  0  0  0  0  0  0  0  0
   57.7800   31.9170   51.2460 N   0  0  2  0  0  0  0  0  0  0  0  0
   59.1140   31.8360   50.6150 C   0  0  0  0  0  0  0  0  0  0  0  0
   60.2330   31.5030   51.6200 C   0  0  0  0  0  0  0  0  0  0  0  0
   59.7470   31.4510   53.0160 N   0  0  0  0  0  0  0  0  0  0  0  0
   60.8750   31.1360   53.9200 C   0  0  0  0  0  0  0  0  0  0  0  0
   58.9250   32.6390   53.4150 C   0  0  0  0  0  0  0  0  0  0  0  0
   59.7880   33.9160   53.6020 C   0  0  0  0  0  0  0  0  0  0  0  0
   58.2070   32.3470   54.7570 C   0  0  0  0  0  0  0  0  0  0  0  0
   57.8220   32.9270   52.3280 C   0  0  0  0  0  0  0  0  0  0  0  0
   55.7120   30.1070   53.6320 N   0  0  0  0  0  0  0  0  0  0  0  0
   56.7320   29.7190   54.6220 C   0  0  0  0  0  0  0  0  0  0  0  0
   57.2010   28.3060   54.3830 C   0  0  0  0  0  0  0  0  0  0  0  0
   58.5350   28.0460   54.0240 C   0  0  0  0  0  0  0  0  0  0  0  0
   58.9600   26.7320   53.7920 C   0  0  0  0  0  0  0  0  0  0  0  0
   58.0560   25.6730   53.9050 C   0  0  0  0  0  0  0  0  0  0  0  0
   56.7260   25.9210   54.2550 C   0  0  0  0  0  0  0  0  0  0  0  0
   56.3000   27.2320   54.4930 C   0  0  0  0  0  0  0  0  0  0  0  0
  1  2  2  0
  2  3  1  0
  3  4  2  0
  4  5  1  0
  5  6  1  0
  6  7  1  0
  7  8  2  0
  7  9  1  0
  9 10  1  0
 10 11  1  0
  3 12  1  0
 12 13  2  0
 13 14  1  0
 14 15  2  0
 16 14  1  1
 16 17  1  0
 17 18  1  0
 18 19  1  0
 19 20  1  0
 19 21  1  0
 21 22  1  0
 21 23  1  0
 21 24  1  0
 13 25  1  0
 25 26  1  0
 26 27  1  0
 27 28  2  0
 28 29  1  0
 29 30  2  0
 30 31  1  0
 31 32  2  0
 25  2  1  0
 32 27  1  0
 10  5  2  0
 24 16  1  0
M  CHG  4   6  -1   9  -1  11  -1  16   1
M  END
>  <UniqueID>  (2831) 
29

>  <SMILES>  (2831) 
C=c1/c(=C/c2[n-]c(=O)[n-]c2[O-])cc(C(=O)[N@@H+]2CCN(C)C(C)(C)C2)n1Cc1ccccc1

>  <Energy>  (2831) 
153.06929766709717

>  <Genealogy>  (2831) 
C=c1c(=Cc2[n-]c(=O)[n-]c2[O-])cc(C(=O)[NH+]2CCN(C)C(C)(C)C2)n1Cc1ccccc1 (protonated)
C=c1c(=Cc2[n-]c(=O)[n-]c2[O-])cc(C(=O)[N@@H+]2CCN(C)C(C)(C)C2)n1Cc1ccccc1 (chirality)
C=c1/c(=C/c2[n-]c(=O)[n-]c2[O-])cc(C(=O)[N@@H+]2CCN(C)C(C)(C)C2)n1Cc1ccccc1 (cis-trans isomerization)
C=c1/c(=C/c2[n-]c(=O)[n-]c2[O-])cc(C(=O)[N@@H+]2CCN(C)C(C)(C)C2)n1Cc1ccccc1 (3D coordinates assigned)
C=c1/c(=C/c2[n-]c(=O)[n-]c2[O-])cc(C(=O)[N@@H+]2CCN(C)C(C)(C)C2)n1Cc1ccccc1 (nonaromatic ring conformer: 153.06929766709717 kcal/mol)

>  <smiles>  (2831) 
C=c1c(=Cc2[nH]c(=O)[nH]c2O)cc(C(=O)N2CCN(C)C(C)(C)C2)n1Cc1ccccc1

>  <score_type>  (2831) 
oracle

>  <origin>  (2831) 
adg

>  <m_score__min__energy>  (2831) 
-15.26

>  <m_primary>  (2831) 
energy

$$$$
41:0
     RDKit          3D

 26 29  0  0  0  0  0  0  0  0999 V2000
   57.9590   26.6100   43.5860 C   0  0  0  0  0  0  0  0  0  0  0  0
   57.7870   27.8040   44.1840 C   0  0  0  0  0  0  0  0  0  0  0  0
   57.4710   28.8730   43.3870 N   0  0  0  0  0  0  0  0  0  0  0  0
   57.5000   30.1530   43.8410 C   0  0  0  0  0  0  0  0  0  0  0  0
   57.8640   30.4290   45.1580 C   0  0  0  0  0  0  0  0  0  0  0  0
   57.9440   31.8310   45.6330 C   0  0  0  0  0  0  0  0  0  0  0  0
   56.9030   32.5440   45.5980 O   0  0  0  0  0  0  0  0  0  0  0  0
   59.1750   32.3990   46.1220 N   0  0  0  0  0  0  0  0  0  0  0  0
   59.4400   33.8250   45.9020 C   0  0  0  0  0  0  0  0  0  0  0  0
   60.8380   34.1990   46.3950 C   0  0  0  0  0  0  0  0  0  0  0  0
   61.0120   33.7700   47.7940 N   0  0  0  0  0  0  0  0  0  0  0  0
   62.3580   34.1410   48.2540 C   0  0  0  0  0  0  0  0  0  0  0  0
   63.4550   33.8240   47.2490 C   0  0  0  0  0  0  0  0  0  0  0  0
   63.2720   32.9460   48.4760 C   0  0  0  0  0  0  0  0  0  0  0  0
   60.7600   32.3210   48.0220 C   0  0  0  0  0  0  0  0  0  0  0  0
   60.1790   31.5750   46.8070 C   0  0  0  0  0  0  0  0  0  0  0  0
   58.1670   29.3620   46.0080 C   0  0  0  0  0  0  0  0  0  0  0  0
   58.0440   28.0270   45.5760 C   0  0  0  0  0  0  0  0  0  0  0  0
   58.1630   27.0610   46.5230 C   0  0  0  0  0  0  0  0  0  0  0  0
   57.3470   25.8380   46.6310 C   0  0  0  0  0  0  0  0  0  0  0  0
   57.8140   24.6770   47.1240 N   0  0  0  0  0  0  0  0  0  0  0  0
   56.7210   23.8840   47.1450 C   0  0  0  0  0  0  0  0  0  0  0  0
   56.7590   22.6900   47.5400 O   0  0  0  0  0  0  0  0  0  0  0  0
   55.5820   24.4750   46.7230 N   0  0  0  0  0  0  0  0  0  0  0  0
   55.9920   25.7140   46.4140 C   0  0  0  0  0  0  0  0  0  0  0  0
   55.1370   26.7200   45.9770 O   0  0  0  0  0  0  0  0  0  0  0  0
  1  2  2  0
  2  3  1  0
  3  4  2  0
  4  5  1  0
  5  6  1  0
  6  7  2  0
  6  8  1  0
  8  9  1  0
  9 10  1  0
 10 11  1  0
 11 12  1  0
 12 13  1  0
 13 14  1  0
 11 15  1  0
 15 16  1  0
  5 17  2  0
 17 18  1  0
 18 19  2  3
 19 20  1  0
 20 21  1  0
 21 22  1  0
 22 23  2  0
 22 24  1  0
 24 25  1  0
 25 26  1  0
 18  2  1  0
 25 20  2  0
 16  8  1  0
 14 12  1  0
M  CHG  4   3   1  21  -1  24  -1  26  -1
M  END
>  <UniqueID>  (2832) 
39

>  <SMILES>  (2832) 
C=c1[nH+]cc(C(=O)N2CCN(C3CC3)CC2)cc1=Cc1[n-]c(=O)[n-]c1[O-]

>  <Energy>  (2832) 
372.0216716061755

>  <Genealogy>  (2832) 
C=c1[nH+]cc(C(=O)N2CCN(C3CC3)CC2)cc1=Cc1[n-]c(=O)[n-]c1[O-] (protonated)
C=c1[nH+]cc(C(=O)N2CCN(C3CC3)CC2)cc1=Cc1[n-]c(=O)[n-]c1[O-] (3D coordinates assigned)
C=c1[nH+]cc(C(=O)N2CCN(C3CC3)CC2)cc1=Cc1[n-]c(=O)[n-]c1[O-] (nonaromatic ring conformer: 372.0216716061755 kcal/mol)

>  <smiles>  (2832) 
C=c1ncc(C(=O)N2CCN(C3CC3)CC2)cc1=Cc1[nH]c(=O)[nH]c1O

>  <score_type>  (2832) 
oracle

>  <origin>  (2832) 
adg

>  <m_score__min__energy>  (2832) 
-15.710000000000001

>  <m_primary>  (2832) 
energy

$$$$
56:0
     RDKit          3D

 33 36  0  0  0  0  0  0  0  0999 V2000
   52.6750   30.8140   55.2130 C   0  0  0  0  0  0  0  0  0  0  0  0
   53.4960   30.4740   54.2060 C   0  0  0  0  0  0  0  0  0  0  0  0
   53.1110   30.1910   52.8920 C   0  0  0  0  0  0  0  0  0  0  0  0
   51.8630   30.1930   52.3830 C   0  0  0  0  0  0  0  0  0  0  0  0
   51.5130   30.7350   51.0580 C   0  0  0  0  0  0  0  0  0  0  0  0
   51.4210   29.9760   49.9520 N   0  0  0  0  0  0  0  0  0  0  0  0
   51.0200   30.8500   49.0040 C   0  0  0  0  0  0  0  0  0  0  0  0
   50.8330   30.5120   47.8070 O   0  0  0  0  0  0  0  0  0  0  0  0
   50.8270   32.1120   49.4410 N   0  0  0  0  0  0  0  0  0  0  0  0
   51.1310   32.0220   50.7450 C   0  0  0  0  0  0  0  0  0  0  0  0
   51.0120   33.0820   51.6360 O   0  0  0  0  0  0  0  0  0  0  0  0
   54.2660   29.8260   52.2220 C   0  0  0  0  0  0  0  0  0  0  0  0
   55.3050   29.9110   53.1260 C   0  0  0  0  0  0  0  0  0  0  0  0
   56.6860   29.4550   52.8400 C   0  0  0  0  0  0  0  0  0  0  0  0
   56.9640   28.2300   52.9480 O   0  0  0  0  0  0  0  0  0  0  0  0
   57.6960   30.3640   52.3570 N   0  0  0  0  0  0  0  0  0  0  0  0
   57.8390   31.7150   52.9090 C   0  0  0  0  0  0  0  0  0  0  0  0
   58.0450   32.7330   51.7750 C   0  0  0  0  0  0  0  0  0  0  0  0
   58.8700   32.2060   50.6590 N   0  0  0  0  0  0  0  0  0  0  0  0
   58.2830   32.3150   49.3040 C   0  0  0  0  0  0  0  0  0  0  0  0
   59.0640   31.5970   48.2360 C   0  0  0  0  0  0  0  0  0  0  0  0
   60.3790   31.8800   48.0190 N   0  0  0  0  0  0  0  0  0  0  0  0
   60.8500   30.8250   46.8280 S   0  0  0  0  0  0  0  0  0  0  0  0
   59.3880   30.0570   46.6140 C   0  0  0  0  0  0  0  0  0  0  0  0
   59.0980   28.9020   45.6760 C   0  0  0  0  0  0  0  0  0  0  0  0
   60.3660   28.5800   44.8680 C   0  0  0  0  0  0  0  0  0  0  0  0
   58.6740   27.6530   46.4750 C   0  0  0  0  0  0  0  0  0  0  0  0
   57.9570   29.2890   44.7160 C   0  0  0  0  0  0  0  0  0  0  0  0
   58.5100   30.5910   47.4930 N   0  0  0  0  0  0  0  0  0  0  0  0
   59.6400   30.9760   50.9370 C   0  0  0  0  0  0  0  0  0  0  0  0
   58.7650   29.8450   51.4990 C   0  0  0  0  0  0  0  0  0  0  0  0
   54.8420   30.3300   54.3300 N   0  0  0  0  0  0  0  0  0  0  0  0
   55.6440   30.5390   55.5420 C   0  0  0  0  0  0  0  0  0  0  0  0
  1  2  2  0
  2  3  1  0
  3  4  2  3
  4  5  1  0
  5  6  1  0
  6  7  1  0
  7  8  2  0
  7  9  1  0
  9 10  1  0
 10 11  1  0
  3 12  1  0
 12 13  2  0
 13 14  1  0
 14 15  2  0
 14 16  1  0
 16 17  1  0
 17 18  1  0
 18 19  1  0
 19 20  1  0
 20 21  1  0
 21 22  2  0
 22 23  1  0
 23 24  1  0
 24 25  1  0
 25 26  1  0
 25 27  1  0
 25 28  1  0
 24 29  2  0
 19 30  1  0
 30 31  1  0
 13 32  1  0
 32 33  1  0
 32  2  1  0
 10  5  2  0
 31 16  1  0
 29 21  1  0
M  CHG  3   6  -1   9  -1  11  -1
M  END
>  <UniqueID>  (2833) 
54

>  <SMILES>  (2833) 
C=c1c(=Cc2[n-]c(=O)[n-]c2[O-])cc(C(=O)N2CCN(Cc3nsc(C(C)(C)C)n3)CC2)n1C

>  <Energy>  (2833) 
168.55553281265642

>  <Genealogy>  (2833) 
C=c1c(=Cc2[n-]c(=O)[n-]c2[O-])cc(C(=O)N2CCN(Cc3nsc(C(C)(C)C)n3)CC2)n1C (protonated)
C=c1c(=Cc2[n-]c(=O)[n-]c2[O-])cc(C(=O)N2CCN(Cc3nsc(C(C)(C)C)n3)CC2)n1C (3D coordinates assigned)
C=c1c(=Cc2[n-]c(=O)[n-]c2[O-])cc(C(=O)N2CCN(Cc3nsc(C(C)(C)C)n3)CC2)n1C (nonaromatic ring conformer: 168.55553281265642 kcal/mol)

>  <smiles>  (2833) 
C=c1c(=Cc2[nH]c(=O)[nH]c2O)cc(C(=O)N2CCN(Cc3nsc(C(C)(C)C)n3)CC2)n1C

>  <score_type>  (2833) 
oracle

>  <origin>  (2833) 
adg

>  <m_score__min__energy>  (2833) 
-17.91

>  <m_primary>  (2833) 
energy

$$$$
64:0
     RDKit          3D

 31 34  0  0  0  0  0  0  0  0999 V2000
   60.5290   27.2670   48.0740 C   0  0  0  0  0  0  0  0  0  0  0  0
   59.8270   28.3880   47.8400 C   0  0  0  0  0  0  0  0  0  0  0  0
   58.8680   28.5550   46.8340 C   0  0  0  0  0  0  0  0  0  0  0  0
   58.4330   27.6300   45.9550 C   0  0  0  0  0  0  0  0  0  0  0  0
   57.1960   26.8460   46.1250 C   0  0  0  0  0  0  0  0  0  0  0  0
   57.1880   25.5620   46.5290 N   0  0  0  0  0  0  0  0  0  0  0  0
   55.8840   25.2170   46.4500 C   0  0  0  0  0  0  0  0  0  0  0  0
   55.4670   24.0710   46.7610 O   0  0  0  0  0  0  0  0  0  0  0  0
   55.0660   26.1900   45.9980 N   0  0  0  0  0  0  0  0  0  0  0  0
   55.9120   27.2110   45.7840 C   0  0  0  0  0  0  0  0  0  0  0  0
   55.5230   28.4290   45.2400 O   0  0  0  0  0  0  0  0  0  0  0  0
   58.4030   29.8550   46.9510 C   0  0  0  0  0  0  0  0  0  0  0  0
   59.0800   30.4240   48.0080 C   0  0  0  0  0  0  0  0  0  0  0  0
   58.8560   31.8060   48.4700 C   0  0  0  0  0  0  0  0  0  0  0  0
   58.6550   31.9980   49.7010 O   0  0  0  0  0  0  0  0  0  0  0  0
   58.8990   32.9300   47.5650 N   0  0  0  0  0  0  0  0  0  0  0  0
   59.8780   34.0100   47.7760 C   0  0  0  0  0  0  0  0  0  0  0  0
   60.3390   34.5710   46.4350 C   0  0  0  0  0  0  0  0  0  0  0  0
   59.1880   34.9740   45.6400 N   0  0  0  0  0  0  0  0  0  0  0  0
   57.9620   34.2430   45.6760 C   0  0  0  0  0  0  0  0  0  0  0  0
   57.0470   34.5320   44.8600 O   0  0  0  0  0  0  0  0  0  0  0  0
   57.7280   33.1690   46.7030 C   0  0  0  0  0  0  0  0  0  0  0  0
   59.9560   29.5440   48.5500 N   0  0  0  0  0  0  0  0  0  0  0  0
   60.9750   29.8680   49.5630 C   0  0  0  0  0  0  0  0  0  0  0  0
   61.9560   30.8730   49.0160 C   0  0  0  0  0  0  0  0  0  0  0  0
   61.9540   31.1910   47.6470 C   0  0  0  0  0  0  0  0  0  0  0  0
   62.8900   32.0920   47.1300 C   0  0  0  0  0  0  0  0  0  0  0  0
   63.8380   32.6770   47.9740 C   0  0  0  0  0  0  0  0  0  0  0  0
   63.8540   32.3610   49.3360 C   0  0  0  0  0  0  0  0  0  0  0  0
   65.1580   33.1530   50.4870 Br  0  0  0  0  0  0  0  0  0  0  0  0
   62.9170   31.4620   49.8560 C   0  0  0  0  0  0  0  0  0  0  0  0
  1  2  2  0
  2  3  1  0
  3  4  2  3
  4  5  1  0
  5  6  1  0
  6  7  1  0
  7  8  2  0
  7  9  1  0
  9 10  1  0
 10 11  1  0
  3 12  1  0
 12 13  2  0
 13 14  1  0
 14 15  2  0
 14 16  1  0
 16 17  1  0
 17 18  1  0
 18 19  1  0
 19 20  1  0
 20 21  2  0
 20 22  1  0
 13 23  1  0
 23 24  1  0
 24 25  1  0
 25 26  2  0
 26 27  1  0
 27 28  2  0
 28 29  1  0
 29 30  1  0
 29 31  2  0
 23  2  1  0
 31 25  1  0
 10  5  2  0
 22 16  1  0
M  CHG  4   6  -1   9  -1  11  -1  19  -1
M  END
>  <UniqueID>  (2834) 
61

>  <SMILES>  (2834) 
C=c1c(=Cc2[n-]c(=O)[n-]c2[O-])cc(C(=O)N2CC[N-]C(=O)C2)n1Cc1cccc(Br)c1

>  <Energy>  (2834) 
120.50031355598793

>  <Genealogy>  (2834) 
C=c1c(=Cc2[n-]c(=O)[n-]c2[O-])cc(C(=O)N2CC[N-]C(=O)C2)n1Cc1cccc(Br)c1 (protonated)
C=c1c(=Cc2[n-]c(=O)[n-]c2[O-])cc(C(=O)N2CC[N-]C(=O)C2)n1Cc1cccc(Br)c1 (3D coordinates assigned)
C=c1c(=Cc2[n-]c(=O)[n-]c2[O-])cc(C(=O)N2CC[N-]C(=O)C2)n1Cc1cccc(Br)c1 (nonaromatic ring conformer: 120.50031355598793 kcal/mol)

>  <smiles>  (2834) 
C=c1c(=Cc2[nH]c(=O)[nH]c2O)cc(C(=O)N2CCNC(=O)C2)n1Cc1cccc(Br)c1

>  <score_type>  (2834) 
oracle

>  <origin>  (2834) 
adg

>  <m_score__min__energy>  (2834) 
-17.129999999999999

>  <m_primary>  (2834) 
energy

$$$$
80:0
     RDKit          3D

 29 32  0  0  0  0  0  0  0  0999 V2000
   56.8220   28.7930   52.9740 C   0  0  0  0  0  0  0  0  0  0  0  0
   55.8410   29.6570   52.7090 C   0  0  0  0  0  0  0  0  0  0  0  0
   54.5380   29.3110   52.6810 N   0  0  0  0  0  0  0  0  0  0  0  0
   53.8480   30.4040   52.2980 C   0  0  0  0  0  0  0  0  0  0  0  0
   52.5090   30.4170   52.1880 C   0  0  0  0  0  0  0  0  0  0  0  0
   51.7760   30.8320   50.9780 C   0  0  0  0  0  0  0  0  0  0  0  0
   51.7390   30.0970   49.8520 N   0  0  0  0  0  0  0  0  0  0  0  0
   51.0360   30.8710   48.9960 C   0  0  0  0  0  0  0  0  0  0  0  0
   50.7770   30.5140   47.8180 O   0  0  0  0  0  0  0  0  0  0  0  0
   50.6440   32.0620   49.4980 N   0  0  0  0  0  0  0  0  0  0  0  0
   51.1290   32.0270   50.7500 C   0  0  0  0  0  0  0  0  0  0  0  0
   51.0190   33.0850   51.6440 O   0  0  0  0  0  0  0  0  0  0  0  0
   54.7130   31.4710   52.0930 C   0  0  0  0  0  0  0  0  0  0  0  0
   55.9830   30.9970   52.3680 C   0  0  0  0  0  0  0  0  0  0  0  0
   57.2190   31.8010   52.3020 C   0  0  0  0  0  0  0  0  0  0  0  0
   57.6010   32.4140   53.3340 O   0  0  0  0  0  0  0  0  0  0  0  0
   58.0060   31.8740   51.0990 N   0  0  0  0  0  0  0  0  0  0  0  0
   58.1250   30.7110   50.2060 C   0  0  0  0  0  0  0  0  0  0  0  0
   59.5850   30.5330   49.7820 C   0  0  0  0  0  0  0  0  0  0  0  0
   60.1770   31.8030   49.1070 C   0  0  0  0  0  0  0  0  0  0  0  0
   60.3470   31.5870   47.5850 C   0  0  0  0  0  0  0  0  0  0  0  0
   59.5100   32.5490   46.7800 C   0  0  0  0  0  0  0  0  0  0  0  0
   58.1940   32.2110   46.4220 C   0  0  0  0  0  0  0  0  0  0  0  0
   57.4250   33.0900   45.6530 C   0  0  0  0  0  0  0  0  0  0  0  0
   57.9640   34.3080   45.2320 C   0  0  0  0  0  0  0  0  0  0  0  0
   59.2740   34.6500   45.5780 C   0  0  0  0  0  0  0  0  0  0  0  0
   60.0460   33.7740   46.3480 C   0  0  0  0  0  0  0  0  0  0  0  0
   59.3440   33.0790   49.4000 C   0  0  0  0  0  0  0  0  0  0  0  0
   58.7900   33.0870   50.8280 C   0  0  0  0  0  0  0  0  0  0  0  0
  1  2  2  0
  2  3  1  0
  3  4  1  0
  4  5  2  3
  5  6  1  0
  6  7  1  0
  7  8  1  0
  8  9  2  0
  8 10  1  0
 10 11  1  0
 11 12  1  0
  4 13  1  0
 13 14  2  0
 14 15  1  0
 15 16  2  0
 15 17  1  0
 17 18  1  0
 18 19  1  0
 19 20  1  0
 20 21  1  0
 21 22  1  0
 22 23  2  0
 23 24  1  0
 24 25  2  0
 25 26  1  0
 26 27  2  0
 20 28  1  0
 28 29  1  0
 14  2  1  0
 29 17  1  0
 11  6  2  0
 27 22  1  0
M  CHG  3   7  -1  10  -1  12  -1
M  END
>  <UniqueID>  (2835) 
77

>  <SMILES>  (2835) 
C=c1[nH]c(=Cc2[n-]c(=O)[n-]c2[O-])cc1C(=O)N1CCC(Cc2ccccc2)CC1

>  <Energy>  (2835) 
120.18950559400224

>  <Genealogy>  (2835) 
C=c1[nH]c(=Cc2[n-]c(=O)[n-]c2[O-])cc1C(=O)N1CCC(Cc2ccccc2)CC1 (protonated)
C=c1[nH]c(=Cc2[n-]c(=O)[n-]c2[O-])cc1C(=O)N1CCC(Cc2ccccc2)CC1 (3D coordinates assigned)
C=c1[nH]c(=Cc2[n-]c(=O)[n-]c2[O-])cc1C(=O)N1CCC(Cc2ccccc2)CC1 (nonaromatic ring conformer: 120.18950559400224 kcal/mol)

>  <smiles>  (2835) 
C=c1[nH]c(=Cc2[nH]c(=O)[nH]c2O)cc1C(=O)N1CCC(Cc2ccccc2)CC1

>  <score_type>  (2835) 
oracle

>  <origin>  (2835) 
adg

>  <m_score__min__energy>  (2835) 
-18.530000000000001

>  <m_primary>  (2835) 
energy

$$$$
84:0
     RDKit          3D

 32 35  0  0  0  0  0  0  0  0999 V2000
   57.8640   25.4080   47.6030 C   0  0  0  0  0  0  0  0  0  0  0  0
   57.8800   26.2940   46.5910 C   0  0  0  0  0  0  0  0  0  0  0  0
   57.4650   26.0670   45.2700 C   0  0  0  0  0  0  0  0  0  0  0  0
   56.8390   25.0170   44.7040 C   0  0  0  0  0  0  0  0  0  0  0  0
   55.6340   24.3560   45.2340 C   0  0  0  0  0  0  0  0  0  0  0  0
   55.3770   23.0410   45.0920 N   0  0  0  0  0  0  0  0  0  0  0  0
   54.1260   22.9130   45.5840 C   0  0  0  0  0  0  0  0  0  0  0  0
   53.5300   21.8050   45.6500 O   0  0  0  0  0  0  0  0  0  0  0  0
   53.5580   24.0670   45.9960 N   0  0  0  0  0  0  0  0  0  0  0  0
   54.5200   24.9740   45.7550 C   0  0  0  0  0  0  0  0  0  0  0  0
   54.3660   26.3400   45.9590 O   0  0  0  0  0  0  0  0  0  0  0  0
   57.8010   27.2060   44.5600 C   0  0  0  0  0  0  0  0  0  0  0  0
   58.3370   28.1070   45.4590 C   0  0  0  0  0  0  0  0  0  0  0  0
   58.7300   29.4870   45.0930 C   0  0  0  0  0  0  0  0  0  0  0  0
   59.8720   29.7220   44.6190 O   0  0  0  0  0  0  0  0  0  0  0  0
   57.8210   30.5680   45.3450 N   0  0  0  0  0  0  0  0  0  0  0  0
   58.1810   31.9390   45.5770 C   0  0  0  0  0  0  0  0  0  0  0  0
   57.7720   32.9070   44.6500 C   0  0  0  0  0  0  0  0  0  0  0  0
   58.1140   34.2480   44.8290 C   0  0  0  0  0  0  0  0  0  0  0  0
   58.8960   34.6330   45.9210 C   0  0  0  0  0  0  0  0  0  0  0  0
   59.3570   33.6690   46.8370 C   0  0  0  0  0  0  0  0  0  0  0  0
   60.2100   34.0820   47.9720 C   0  0  0  0  0  0  0  0  0  0  0  0
   59.6740   34.7070   48.9350 O   0  0  0  0  0  0  0  0  0  0  0  0
   61.6260   33.7890   48.0110 N   0  0  0  0  0  0  0  0  0  0  0  0
   62.3520   33.9850   49.2710 C   0  0  0  0  0  0  0  0  0  0  0  0
   63.6590   33.1930   49.2610 C   0  0  0  0  0  0  0  0  0  0  0  0
   64.4190   33.5010   48.1120 O   0  0  0  0  0  0  0  0  0  0  0  0
   63.7330   33.0660   46.9540 C   0  0  0  0  0  0  0  0  0  0  0  0
   62.4190   33.8360   46.7730 C   0  0  0  0  0  0  0  0  0  0  0  0
   58.9800   32.3230   46.6700 C   0  0  0  0  0  0  0  0  0  0  0  0
   58.4150   27.5430   46.6930 N   0  0  0  0  0  0  0  0  0  0  0  0
   59.0070   28.1440   47.9010 C   0  0  0  0  0  0  0  0  0  0  0  0
  1  2  2  0
  2  3  1  0
  3  4  2  3
  4  5  1  0
  5  6  1  0
  6  7  1  0
  7  8  2  0
  7  9  1  0
  9 10  1  0
 10 11  1  0
  3 12  1  0
 12 13  2  0
 13 14  1  0
 14 15  2  0
 14 16  1  0
 16 17  1  0
 17 18  2  0
 18 19  1  0
 19 20  2  0
 20 21  1  0
 21 22  1  0
 22 23  2  0
 22 24  1  0
 24 25  1  0
 25 26  1  0
 26 27  1  0
 27 28  1  0
 28 29  1  0
 21 30  2  0
 13 31  1  0
 31 32  1  0
 31  2  1  0
 10  5  2  0
 30 17  1  0
 29 24  1  0
M  CHG  4   6  -1   9  -1  11  -1  16  -1
M  END
>  <UniqueID>  (2836) 
81

>  <SMILES>  (2836) 
C=c1c(=Cc2[n-]c(=O)[n-]c2[O-])cc(C(=O)[N-]c2cccc(C(=O)N3CCOCC3)c2)n1C

>  <Energy>  (2836) 
138.32489895728423

>  <Genealogy>  (2836) 
C=c1c(=Cc2[n-]c(=O)[n-]c2[O-])cc(C(=O)[N-]c2cccc(C(=O)N3CCOCC3)c2)n1C (protonated)
C=c1c(=Cc2[n-]c(=O)[n-]c2[O-])cc(C(=O)[N-]c2cccc(C(=O)N3CCOCC3)c2)n1C (3D coordinates assigned)
C=c1c(=Cc2[n-]c(=O)[n-]c2[O-])cc(C(=O)[N-]c2cccc(C(=O)N3CCOCC3)c2)n1C (nonaromatic ring conformer: 138.32489895728423 kcal/mol)

>  <smiles>  (2836) 
C=c1c(=Cc2[nH]c(=O)[nH]c2O)cc(C(=O)Nc2cccc(C(=O)N3CCOCC3)c2)n1C

>  <score_type>  (2836) 
oracle

>  <origin>  (2836) 
adg

>  <m_score__min__energy>  (2836) 
-19.170000000000002

>  <m_primary>  (2836) 
energy

$$$$
87:0
     RDKit          3D

 29 31  0  0  0  0  0  0  0  0999 V2000
   58.1470   27.3300   43.4380 C   0  0  0  0  0  0  0  0  0  0  0  0
   58.3400   26.8830   44.6900 C   0  0  0  0  0  0  0  0  0  0  0  0
   57.7860   25.7220   45.2500 C   0  0  0  0  0  0  0  0  0  0  0  0
   56.9860   24.8270   44.6310 C   0  0  0  0  0  0  0  0  0  0  0  0
   55.5970   24.4960   45.0220 C   0  0  0  0  0  0  0  0  0  0  0  0
   54.9690   23.3270   44.7980 N   0  0  0  0  0  0  0  0  0  0  0  0
   53.7290   23.5340   45.2910 C   0  0  0  0  0  0  0  0  0  0  0  0
   52.8350   22.6490   45.2690 O   0  0  0  0  0  0  0  0  0  0  0  0
   53.5220   24.7640   45.8070 N   0  0  0  0  0  0  0  0  0  0  0  0
   54.7120   25.3600   45.6230 C   0  0  0  0  0  0  0  0  0  0  0  0
   54.9830   26.6710   45.9980 O   0  0  0  0  0  0  0  0  0  0  0  0
   58.2010   25.7000   46.5770 C   0  0  0  0  0  0  0  0  0  0  0  0
   58.9870   26.8180   46.7670 C   0  0  0  0  0  0  0  0  0  0  0  0
   59.6530   27.1740   48.0640 C   0  0  0  0  0  0  0  0  0  0  0  0
   59.0760   27.5370   45.6260 N   0  0  0  0  0  0  0  0  0  0  0  0
   59.8480   28.7410   45.4600 C   0  0  0  0  0  0  0  0  0  0  0  0
   60.5790   28.8810   44.4430 O   0  0  0  0  0  0  0  0  0  0  0  0
   59.7480   29.7950   46.4230 N   0  0  0  0  0  0  0  0  0  0  0  0
   58.4970   30.4600   46.7700 C   0  0  0  0  0  0  0  0  0  0  0  0
   58.4210   31.8140   46.0990 C   0  0  0  0  0  0  0  0  0  0  0  0
   59.3190   32.8320   46.4910 C   0  0  0  0  0  0  0  0  0  0  0  0
   60.2770   32.5470   47.4790 O   0  0  0  0  0  0  0  0  0  0  0  0
   61.3310   33.4250   47.8610 C   0  0  0  0  0  0  0  0  0  0  0  0
   59.2360   34.0990   45.8870 C   0  0  0  0  0  0  0  0  0  0  0  0
   58.2710   34.3560   44.9150 C   0  0  0  0  0  0  0  0  0  0  0  0
   57.3780   33.3580   44.5310 C   0  0  0  0  0  0  0  0  0  0  0  0
   57.4390   32.0800   45.1180 C   0  0  0  0  0  0  0  0  0  0  0  0
   56.5440   31.0610   44.7490 O   0  0  0  0  0  0  0  0  0  0  0  0
   56.6750   30.2450   43.5900 C   0  0  0  0  0  0  0  0  0  0  0  0
  1  2  2  0
  2  3  1  0
  3  4  2  3
  4  5  1  0
  5  6  1  0
  6  7  1  0
  7  8  2  0
  7  9  1  0
  9 10  1  0
 10 11  1  0
  3 12  1  0
 12 13  2  0
 13 14  1  0
 13 15  1  0
 15 16  1  0
 16 17  2  0
 16 18  1  0
 18 19  1  0
 19 20  1  0
 20 21  2  0
 21 22  1  0
 22 23  1  0
 21 24  1  0
 24 25  2  0
 25 26  1  0
 26 27  2  0
 27 28  1  0
 28 29  1  0
 15  2  1  0
 27 20  1  0
 10  5  2  0
M  CHG  4   6  -1   9  -1  11  -1  18  -1
M  END
>  <UniqueID>  (2837) 
84

>  <SMILES>  (2837) 
C=c1c(=Cc2[n-]c(=O)[n-]c2[O-])cc(C)n1C(=O)[N-]Cc1c(OC)cccc1OC

>  <Energy>  (2837) 
113.61236992709088

>  <Genealogy>  (2837) 
C=c1c(=Cc2[n-]c(=O)[n-]c2[O-])cc(C)n1C(=O)[N-]Cc1c(OC)cccc1OC (protonated)
C=c1c(=Cc2[n-]c(=O)[n-]c2[O-])cc(C)n1C(=O)[N-]Cc1c(OC)cccc1OC (3D coordinates assigned)
C=c1c(=Cc2[n-]c(=O)[n-]c2[O-])cc(C)n1C(=O)[N-]Cc1c(OC)cccc1OC (optimized conformer: 113.61236992709088 kcal/mol)

>  <smiles>  (2837) 
C=c1c(=Cc2[nH]c(=O)[nH]c2O)cc(C)n1C(=O)NCc1c(OC)cccc1OC

>  <score_type>  (2837) 
oracle

>  <origin>  (2837) 
adg

>  <m_score__min__energy>  (2837) 
-16.75

>  <m_primary>  (2837) 
energy

$$$$
3:0
     RDKit          3D

 37 40  0  0  0  0  0  0  0  0999 V2000
   57.2850   28.9400   43.5820 C   0  0  0  0  0  0  0  0  0  0  0  0
   57.8100   29.0040   44.8190 C   0  0  0  0  0  0  0  0  0  0  0  0
   58.2610   27.9210   45.5750 C   0  0  0  0  0  0  0  0  0  0  0  0
   58.1670   26.6150   45.2660 C   0  0  0  0  0  0  0  0  0  0  0  0
   57.3810   25.6480   46.0560 C   0  0  0  0  0  0  0  0  0  0  0  0
   57.9160   24.5640   46.6430 N   0  0  0  0  0  0  0  0  0  0  0  0
   56.8610   23.9930   47.2650 C   0  0  0  0  0  0  0  0  0  0  0  0
   56.9660   22.9240   47.9190 O   0  0  0  0  0  0  0  0  0  0  0  0
   55.6920   24.6580   47.1310 N   0  0  0  0  0  0  0  0  0  0  0  0
   56.0420   25.7080   46.3700 C   0  0  0  0  0  0  0  0  0  0  0  0
   55.1610   26.7150   45.9900 O   0  0  0  0  0  0  0  0  0  0  0  0
   58.7640   28.4530   46.7540 C   0  0  0  0  0  0  0  0  0  0  0  0
   58.5890   29.8250   46.6920 C   0  0  0  0  0  0  0  0  0  0  0  0
   59.0370   30.7310   47.7980 C   0  0  0  0  0  0  0  0  0  0  0  0
   58.6780   30.4320   48.9760 O   0  0  0  0  0  0  0  0  0  0  0  0
   59.9830   31.8210   47.6040 N   0  0  0  0  0  0  0  0  0  0  0  0
   60.1370   32.5950   48.8640 C   0  0  0  0  0  0  0  0  0  0  0  0
   61.4420   33.3920   48.8680 C   0  0  0  0  0  0  0  0  0  0  0  0
   62.6050   32.4800   48.8350 N   0  0  0  0  0  0  0  0  0  0  0  0
   63.8730   33.1630   48.5010 C   0  0  0  0  0  0  0  0  0  0  0  0
   64.8710   33.2480   49.6880 C   0  0  0  0  0  0  0  0  0  0  0  0
   65.3040   31.9370   50.2200 N   0  0  0  0  0  0  0  0  0  0  0  0
   64.4520   31.4130   51.2990 C   0  0  0  0  0  0  0  0  0  0  0  0
   64.9150   29.9990   51.6630 C   0  0  0  0  0  0  0  0  0  0  0  0
   66.2730   30.0050   52.0630 O   0  0  0  0  0  0  0  0  0  0  0  0
   67.0880   30.4580   50.9980 C   0  0  0  0  0  0  0  0  0  0  0  0
   66.7240   31.8960   50.6040 C   0  0  0  0  0  0  0  0  0  0  0  0
   62.3780   31.1910   48.1370 C   0  0  0  0  0  0  0  0  0  0  0  0
   61.2750   31.2970   47.0650 C   0  0  0  0  0  0  0  0  0  0  0  0
   57.9840   30.1560   45.5170 N   0  0  0  0  0  0  0  0  0  0  0  0
   57.5330   31.4540   45.1000 C   0  0  0  0  0  0  0  0  0  0  0  0
   56.3180   31.6250   44.8170 O   0  0  0  0  0  0  0  0  0  0  0  0
   58.5030   32.5920   44.9240 C   0  0  0  0  0  0  0  0  0  0  0  0
   58.0850   33.9230   45.6160 C   0  0  0  0  0  0  0  0  0  0  0  0
   56.9180   34.5860   44.8510 C   0  0  0  0  0  0  0  0  0  0  0  0
   57.6080   33.5920   47.0490 C   0  0  0  0  0  0  0  0  0  0  0  0
   59.2700   34.9120   45.7030 C   0  0  0  0  0  0  0  0  0  0  0  0
  1  2  2  0
  2  3  1  0
  3  4  2  0
  4  5  1  0
  5  6  1  0
  6  7  1  0
  7  8  2  0
  7  9  1  0
  9 10  1  0
 10 11  1  0
  3 12  1  0
 12 13  2  0
 13 14  1  0
 14 15  2  0
 14 16  1  0
 16 17  1  0
 17 18  1  0
 18 19  1  0
 19 20  1  0
 20 21  1  0
 21 22  1  0
 22 23  1  0
 23 24  1  0
 24 25  1  0
 25 26  1  0
 26 27  1  0
 19 28  1  0
 28 29  1  0
 13 30  1  0
 30 31  1  0
 31 32  2  0
 31 33  1  0
 33 34  1  0
 34 35  1  0
 34 36  1  0
 34 37  1  0
 30  2  1  0
 10  5  2  0
 29 16  1  0
 27 22  1  0
M  CHG  4   6  -1   9  -1  11  -1  16   1
M  END
>  <UniqueID>  (2838) 
3

>  <SMILES>  (2838) 
C=c1/c(=C/c2[n-]c(=O)[n-]c2[O-])cc(C(=O)[NH+]2CCN(CCN3CCOCC3)CC2)n1C(=O)CC(C)(C)C

>  <Energy>  (2838) 
169.50666086209463

>  <Genealogy>  (2838) 
C=c1c(=Cc2[n-]c(=O)[n-]c2[O-])cc(C(=O)[NH+]2CCN(CCN3CCOCC3)CC2)n1C(=O)CC(C)(C)C (protonated)
C=c1/c(=C/c2[n-]c(=O)[n-]c2[O-])cc(C(=O)[NH+]2CCN(CCN3CCOCC3)CC2)n1C(=O)CC(C)(C)C (cis-trans isomerization)
C=c1/c(=C/c2[n-]c(=O)[n-]c2[O-])cc(C(=O)[NH+]2CCN(CCN3CCOCC3)CC2)n1C(=O)CC(C)(C)C (3D coordinates assigned)
C=c1/c(=C/c2[n-]c(=O)[n-]c2[O-])cc(C(=O)[NH+]2CCN(CCN3CCOCC3)CC2)n1C(=O)CC(C)(C)C (nonaromatic ring conformer: 169.50666086209463 kcal/mol)

>  <smiles>  (2838) 
C=c1c(=Cc2[nH]c(=O)[nH]c2O)cc(C(=O)N2CCN(CCN3CCOCC3)CC2)n1C(=O)CC(C)(C)C

>  <score_type>  (2838) 
oracle

>  <origin>  (2838) 
adg

>  <m_score__min__energy>  (2838) 
-15.92

>  <m_primary>  (2838) 
energy

$$$$
4:0
     RDKit          3D

 41 45  0  0  0  0  0  0  0  0999 V2000
   60.1560   28.6280   45.8760 C   0  0  0  0  0  0  0  0  0  0  0  0
   58.9060   28.8760   45.4570 C   0  0  0  0  0  0  0  0  0  0  0  0
   57.9880   27.9290   44.9660 C   0  0  0  0  0  0  0  0  0  0  0  0
   58.0310   26.5830   44.9210 C   0  0  0  0  0  0  0  0  0  0  0  0
   57.3840   25.6540   45.8630 C   0  0  0  0  0  0  0  0  0  0  0  0
   58.0210   24.6790   46.5420 N   0  0  0  0  0  0  0  0  0  0  0  0
   57.0790   24.2340   47.4030 C   0  0  0  0  0  0  0  0  0  0  0  0
   57.2920   23.2940   48.2140 O   0  0  0  0  0  0  0  0  0  0  0  0
   55.8980   24.8840   47.3370 N   0  0  0  0  0  0  0  0  0  0  0  0
   56.1140   25.7880   46.3670 C   0  0  0  0  0  0  0  0  0  0  0  0
   55.1710   26.7230   45.9580 O   0  0  0  0  0  0  0  0  0  0  0  0
   56.9140   28.6500   44.4800 C   0  0  0  0  0  0  0  0  0  0  0  0
   57.1670   29.9790   44.7410 C   0  0  0  0  0  0  0  0  0  0  0  0
   56.2510   31.0910   44.3240 C   0  0  0  0  0  0  0  0  0  0  0  0
   58.3820   30.1290   45.3270 N   0  0  0  0  0  0  0  0  0  0  0  0
   59.0490   31.4210   45.5760 C   0  0  0  0  0  0  0  0  0  0  0  0
   59.5750   31.4800   46.9910 C   0  0  0  0  0  0  0  0  0  0  0  0
   60.9480   31.6140   47.2330 C   0  0  0  0  0  0  0  0  0  0  0  0
   61.4480   31.6010   48.5430 C   0  0  0  0  0  0  0  0  0  0  0  0
   62.9050   31.7010   48.7800 C   0  0  0  0  0  0  0  0  0  0  0  0
   63.6990   31.5620   47.8090 O   0  0  0  0  0  0  0  0  0  0  0  0
   63.4330   31.9700   50.0920 N   0  0  0  0  0  0  0  0  0  0  0  0
   62.8710   33.0760   50.8840 C   0  0  0  0  0  0  0  0  0  0  0  0
   63.8140   33.4990   52.0200 C   0  0  0  0  0  0  0  0  0  0  0  0
   65.2050   33.5550   51.5400 N   0  0  0  0  0  0  0  0  0  0  0  0
   66.0680   34.6450   51.9280 C   0  0  0  0  0  0  0  0  0  0  0  0
   67.3950   34.8650   51.2640 C   0  0  0  0  0  0  0  0  0  0  0  0
   65.7160   35.4360   52.8440 O   0  0  0  0  0  0  0  0  0  0  0  0
   65.7450   32.4390   50.7430 C   0  0  0  0  0  0  0  0  0  0  0  0
   64.6940   31.3510   50.5150 C   0  0  0  0  0  0  0  0  0  0  0  0
   60.5600   31.4340   49.6170 C   0  0  0  0  0  0  0  0  0  0  0  0
   59.1770   31.3060   49.3980 C   0  0  0  0  0  0  0  0  0  0  0  0
   58.2580   31.1370   50.5610 C   0  0  0  0  0  0  0  0  0  0  0  0
   57.9470   29.9650   50.9210 O   0  0  0  0  0  0  0  0  0  0  0  0
   57.7580   32.2700   51.3220 N   0  0  0  0  0  0  0  0  0  0  0  0
   58.8330   33.2800   51.4670 C   0  0  0  0  0  0  0  0  0  0  0  0
   58.5860   34.1760   52.6930 C   0  0  0  0  0  0  0  0  0  0  0  0
   58.5400   33.4670   53.9260 O   0  0  0  0  0  0  0  0  0  0  0  0
   58.1720   32.1010   53.7900 C   0  0  0  0  0  0  0  0  0  0  0  0
   57.1900   31.8470   52.6310 C   0  0  0  0  0  0  0  0  0  0  0  0
   58.6970   31.3520   48.0760 C   0  0  0  0  0  0  0  0  0  0  0  0
  1  2  2  0
  2  3  1  0
  3  4  2  3
  4  5  1  0
  5  6  1  0
  6  7  1  0
  7  8  2  0
  7  9  1  0
  9 10  1  0
 10 11  1  0
  3 12  1  0
 12 13  2  0
 13 14  1  0
 13 15  1  0
 15 16  1  0
 16 17  1  0
 17 18  2  0
 18 19  1  0
 19 20  1  0
 20 21  2  0
 20 22  1  0
 22 23  1  0
 23 24  1  0
 24 25  1  0
 25 26  1  0
 26 27  1  0
 26 28  2  0
 25 29  1  0
 29 30  1  0
 19 31  2  0
 31 32  1  0
 32 33  1  0
 33 34  2  0
 33 35  1  0
 35 36  1  0
 36 37  1  0
 37 38  1  0
 38 39  1  0
 39 40  1  0
 32 41  2  0
 15  2  1  0
 41 17  1  0
 10  5  2  0
 30 22  1  0
 40 35  1  0
M  CHG  4   6  -1   9  -1  11  -1  35   1
M  END
>  <UniqueID>  (2839) 
4

>  <SMILES>  (2839) 
C=c1c(=Cc2[n-]c(=O)[n-]c2[O-])cc(C)n1Cc1cc(C(=O)N2CCN(C(C)=O)CC2)cc(C(=O)[NH+]2CCOCC2)c1

>  <Energy>  (2839) 
168.5865805122616

>  <Genealogy>  (2839) 
C=c1c(=Cc2[n-]c(=O)[n-]c2[O-])cc(C)n1Cc1cc(C(=O)N2CCN(C(C)=O)CC2)cc(C(=O)[NH+]2CCOCC2)c1 (protonated)
C=c1c(=Cc2[n-]c(=O)[n-]c2[O-])cc(C)n1Cc1cc(C(=O)N2CCN(C(C)=O)CC2)cc(C(=O)[NH+]2CCOCC2)c1 (3D coordinates assigned)
C=c1c(=Cc2[n-]c(=O)[n-]c2[O-])cc(C)n1Cc1cc(C(=O)N2CCN(C(C)=O)CC2)cc(C(=O)[NH+]2CCOCC2)c1 (nonaromatic ring conformer: 168.5865805122616 kcal/mol)

>  <smiles>  (2839) 
C=c1c(=Cc2[nH]c(=O)[nH]c2O)cc(C)n1Cc1cc(C(=O)N2CCOCC2)cc(C(=O)N2CCN(C(C)=O)CC2)c1

>  <score_type>  (2839) 
oracle

>  <origin>  (2839) 
adg

>  <m_score__min__energy>  (2839) 
-17.93

>  <m_primary>  (2839) 
energy

$$$$
15:0
     RDKit          3D

 27 30  0  0  0  0  0  0  0  0999 V2000
   53.9040   28.7440   54.2360 C   0  0  0  0  0  0  0  0  0  0  0  0
   54.4710   29.6600   53.4270 C   0  0  0  0  0  0  0  0  0  0  0  0
   53.7740   30.4680   52.5210 C   0  0  0  0  0  0  0  0  0  0  0  0
   52.4480   30.4580   52.2620 C   0  0  0  0  0  0  0  0  0  0  0  0
   51.8240   30.8510   50.9790 C   0  0  0  0  0  0  0  0  0  0  0  0
   51.7330   30.0830   49.8790 N   0  0  0  0  0  0  0  0  0  0  0  0
   51.0360   30.8480   49.0130 C   0  0  0  0  0  0  0  0  0  0  0  0
   50.7500   30.4680   47.8480 O   0  0  0  0  0  0  0  0  0  0  0  0
   50.6640   32.0530   49.4960 N   0  0  0  0  0  0  0  0  0  0  0  0
   51.1650   32.0350   50.7420 C   0  0  0  0  0  0  0  0  0  0  0  0
   51.0220   33.0810   51.6450 O   0  0  0  0  0  0  0  0  0  0  0  0
   54.7120   31.3250   51.9800 C   0  0  0  0  0  0  0  0  0  0  0  0
   55.9340   30.9910   52.5230 C   0  0  0  0  0  0  0  0  0  0  0  0
   57.1420   31.8060   52.2760 C   0  0  0  0  0  0  0  0  0  0  0  0
   57.5810   32.5130   53.2220 O   0  0  0  0  0  0  0  0  0  0  0  0
   57.7680   31.9110   50.9670 N   0  0  0  0  0  0  0  0  0  0  0  0
   58.8400   32.9400   50.8950 C   0  0  0  0  0  0  0  0  0  0  0  0
   60.2400   32.4470   51.3320 C   0  0  0  0  0  0  0  0  0  0  0  0
   60.4280   30.9890   51.1740 N   0  0  0  0  0  0  0  0  0  0  0  0
   61.8500   30.6610   50.9970 C   0  0  0  0  0  0  0  0  0  0  0  0
   59.6300   30.4630   50.0630 C   0  0  0  0  0  0  0  0  0  0  0  0
   58.1450   30.5750   50.4230 C   0  0  0  0  0  0  0  0  0  0  0  0
   55.8040   29.9620   53.4120 N   0  0  0  0  0  0  0  0  0  0  0  0
   56.8170   29.3260   54.3000 C   0  0  0  0  0  0  0  0  0  0  0  0
   57.4860   30.3140   55.2480 C   0  0  0  0  0  0  0  0  0  0  0  0
   58.8510   29.9030   54.7060 C   0  0  0  0  0  0  0  0  0  0  0  0
   58.1820   28.9580   53.7140 C   0  0  0  0  0  0  0  0  0  0  0  0
  1  2  2  0
  2  3  1  0
  3  4  2  3
  4  5  1  0
  5  6  1  0
  6  7  1  0
  7  8  2  0
  7  9  1  0
  9 10  1  0
 10 11  1  0
  3 12  1  0
 12 13  2  0
 13 14  1  0
 14 15  2  0
 14 16  1  0
 16 17  1  0
 17 18  1  0
 18 19  1  0
 19 20  1  0
 19 21  1  0
 21 22  1  0
 13 23  1  0
 23 24  1  0
 24 25  1  0
 25 26  1  0
 26 27  1  0
 23  2  1  0
 27 24  1  0
 10  5  2  0
 22 16  1  0
M  CHG  4   6  -1   9  -1  11  -1  16   1
M  END
>  <UniqueID>  (2840) 
15

>  <SMILES>  (2840) 
C=c1c(=Cc2[n-]c(=O)[n-]c2[O-])cc(C(=O)[NH+]2CCN(C)CC2)n1C1CCC1

>  <Energy>  (2840) 
203.60957139755666

>  <Genealogy>  (2840) 
C=c1c(=Cc2[n-]c(=O)[n-]c2[O-])cc(C(=O)[NH+]2CCN(C)CC2)n1C1CCC1 (protonated)
C=c1c(=Cc2[n-]c(=O)[n-]c2[O-])cc(C(=O)[NH+]2CCN(C)CC2)n1C1CCC1 (3D coordinates assigned)
C=c1c(=Cc2[n-]c(=O)[n-]c2[O-])cc(C(=O)[NH+]2CCN(C)CC2)n1C1CCC1 (nonaromatic ring conformer: 203.60957139755666 kcal/mol)

>  <smiles>  (2840) 
C=c1c(=Cc2[nH]c(=O)[nH]c2O)cc(C(=O)N2CCN(C)CC2)n1C1CCC1

>  <score_type>  (2840) 
oracle

>  <origin>  (2840) 
adg

>  <m_score__min__energy>  (2840) 
-15.289999999999999

>  <m_primary>  (2840) 
energy

$$$$
16:0
     RDKit          3D

 33 36  0  0  0  0  0  0  0  0999 V2000
   57.4040   29.5090   43.9390 C   0  0  0  0  0  0  0  0  0  0  0  0
   57.9050   29.3120   45.1680 C   0  0  0  0  0  0  0  0  0  0  0  0
   58.0910   28.0830   45.8240 C   0  0  0  0  0  0  0  0  0  0  0  0
   58.0020   26.8160   45.3750 C   0  0  0  0  0  0  0  0  0  0  0  0
   57.2730   25.7200   46.0350 C   0  0  0  0  0  0  0  0  0  0  0  0
   57.8530   24.6390   46.5900 N   0  0  0  0  0  0  0  0  0  0  0  0
   56.8200   24.0060   47.1890 C   0  0  0  0  0  0  0  0  0  0  0  0
   56.9620   22.9230   47.8140 O   0  0  0  0  0  0  0  0  0  0  0  0
   55.6290   24.6310   47.0750 N   0  0  0  0  0  0  0  0  0  0  0  0
   55.9380   25.7210   46.3560 C   0  0  0  0  0  0  0  0  0  0  0  0
   55.0180   26.7020   46.0040 O   0  0  0  0  0  0  0  0  0  0  0  0
   58.4430   28.3900   47.1290 C   0  0  0  0  0  0  0  0  0  0  0  0
   58.5180   29.7640   47.2110 C   0  0  0  0  0  0  0  0  0  0  0  0
   58.8960   30.5300   48.4430 C   0  0  0  0  0  0  0  0  0  0  0  0
   58.2050   30.3240   46.0220 N   0  0  0  0  0  0  0  0  0  0  0  0
   58.1200   31.7370   45.7680 C   0  0  0  0  0  0  0  0  0  0  0  0
   57.0800   32.2470   44.9800 C   0  0  0  0  0  0  0  0  0  0  0  0
   57.0030   33.6170   44.7230 C   0  0  0  0  0  0  0  0  0  0  0  0
   57.9680   34.4850   45.2410 C   0  0  0  0  0  0  0  0  0  0  0  0
   59.0300   33.9870   46.0160 C   0  0  0  0  0  0  0  0  0  0  0  0
   60.0540   34.9000   46.5750 C   0  0  0  0  0  0  0  0  0  0  0  0
   60.0100   36.1270   46.2810 O   0  0  0  0  0  0  0  0  0  0  0  0
   61.0980   34.4190   47.4430 N   0  0  0  0  0  0  0  0  0  0  0  0
   60.9250   34.4390   48.8960 C   0  0  0  0  0  0  0  0  0  0  0  0
   60.7570   33.0070   49.3930 C   0  0  0  0  0  0  0  0  0  0  0  0
   61.8500   32.1500   48.9090 N   0  0  0  0  0  0  0  0  0  0  0  0
   62.2160   30.9600   49.6880 C   0  0  0  0  0  0  0  0  0  0  0  0
   63.4680   31.2180   50.4690 C   0  0  0  0  0  0  0  0  0  0  0  0
   64.2810   32.0420   50.0820 O   0  0  0  0  0  0  0  0  0  0  0  0
   62.4580   32.3940   47.6200 C   0  0  0  0  0  0  0  0  0  0  0  0
   63.2170   31.5310   47.1020 O   0  0  0  0  0  0  0  0  0  0  0  0
   62.2590   33.7030   46.9050 C   0  0  0  0  0  0  0  0  0  0  0  0
   59.0930   32.6080   46.2830 C   0  0  0  0  0  0  0  0  0  0  0  0
  1  2  2  0
  2  3  1  0
  3  4  2  3
  4  5  1  0
  5  6  1  0
  6  7  1  0
  7  8  2  0
  7  9  1  0
  9 10  1  0
 10 11  1  0
  3 12  1  0
 12 13  2  0
 13 14  1  0
 13 15  1  0
 15 16  1  0
 16 17  2  0
 17 18  1  0
 18 19  2  0
 19 20  1  0
 20 21  1  0
 21 22  2  0
 21 23  1  0
 23 24  1  0
 24 25  1  0
 25 26  1  0
 26 27  1  0
 27 28  1  0
 28 29  2  0
 26 30  1  0
 30 31  2  0
 30 32  1  0
 20 33  2  0
 15  2  1  0
 33 16  1  0
 10  5  2  0
 32 23  1  0
M  CHG  3   6  -1   9  -1  11  -1
M  END
>  <UniqueID>  (2841) 
16

>  <SMILES>  (2841) 
C=c1c(=Cc2[n-]c(=O)[n-]c2[O-])cc(C)n1-c1cccc(C(=O)N2CCN(CC=O)C(=O)C2)c1

>  <Energy>  (2841) 
134.44930152267534

>  <Genealogy>  (2841) 
C=c1c(=Cc2[n-]c(=O)[n-]c2[O-])cc(C)n1-c1cccc(C(=O)N2CCN(CC=O)C(=O)C2)c1 (protonated)
C=c1c(=Cc2[n-]c(=O)[n-]c2[O-])cc(C)n1-c1cccc(C(=O)N2CCN(CC=O)C(=O)C2)c1 (3D coordinates assigned)
C=c1c(=Cc2[n-]c(=O)[n-]c2[O-])cc(C)n1-c1cccc(C(=O)N2CCN(CC=O)C(=O)C2)c1 (nonaromatic ring conformer: 134.44930152267534 kcal/mol)

>  <smiles>  (2841) 
C=c1c(=Cc2[nH]c(=O)[nH]c2O)cc(C)n1-c1cccc(C(=O)N2CCN(CC=O)C(=O)C2)c1

>  <score_type>  (2841) 
oracle

>  <origin>  (2841) 
adg

>  <m_score__min__energy>  (2841) 
-17.109999999999999

>  <m_primary>  (2841) 
energy

$$$$
20:0
     RDKit          3D

 33 36  0  0  0  0  0  0  0  0999 V2000
   58.4560   26.1220   47.7810 C   0  0  0  0  0  0  0  0  0  0  0  0
   58.1990   27.0940   46.8920 C   0  0  0  0  0  0  0  0  0  0  0  0
   57.7090   26.9220   45.5910 C   0  0  0  0  0  0  0  0  0  0  0  0
   57.4350   25.7540   44.9740 C   0  0  0  0  0  0  0  0  0  0  0  0
   56.2270   24.9380   45.2140 C   0  0  0  0  0  0  0  0  0  0  0  0
   56.0870   23.6350   44.9070 N   0  0  0  0  0  0  0  0  0  0  0  0
   54.8080   23.3670   45.2430 C   0  0  0  0  0  0  0  0  0  0  0  0
   54.2950   22.2270   45.1070 O   0  0  0  0  0  0  0  0  0  0  0  0
   54.1190   24.4200   45.7370 N   0  0  0  0  0  0  0  0  0  0  0  0
   55.0300   25.4060   45.7020 C   0  0  0  0  0  0  0  0  0  0  0  0
   54.7710   26.7080   46.1100 O   0  0  0  0  0  0  0  0  0  0  0  0
   57.6170   28.1950   45.0430 C   0  0  0  0  0  0  0  0  0  0  0  0
   58.0600   29.0770   46.0070 C   0  0  0  0  0  0  0  0  0  0  0  0
   58.2100   30.5280   45.7850 C   0  0  0  0  0  0  0  0  0  0  0  0
   57.3150   31.1260   45.1290 O   0  0  0  0  0  0  0  0  0  0  0  0
   59.3680   31.2580   46.2510 N   0  0  0  0  0  0  0  0  0  0  0  0
   59.3510   32.7240   46.1660 C   0  0  0  0  0  0  0  0  0  0  0  0
   60.6470   33.3460   46.7160 C   0  0  0  0  0  0  0  0  0  0  0  0
   61.1550   32.6380   48.0140 C   0  0  0  0  0  0  0  0  0  0  0  0
   62.4770   33.3840   48.4240 C   0  0  0  0  0  0  0  0  0  0  0  0
   63.5380   32.4770   48.9360 N   0  0  0  0  0  0  0  0  0  0  0  0
   63.1640   31.8400   50.2210 C   0  0  0  0  0  0  0  0  0  0  0  0
   63.1440   32.8400   51.3930 C   0  0  0  0  0  0  0  0  0  0  0  0
   64.2140   33.9330   51.2600 C   0  0  0  0  0  0  0  0  0  0  0  0
   65.3810   33.4560   50.3990 C   0  0  0  0  0  0  0  0  0  0  0  0
   64.8980   33.0870   48.9810 C   0  0  0  0  0  0  0  0  0  0  0  0
   60.0430   32.7070   49.1540 C   0  0  0  0  0  0  0  0  0  0  0  0
   59.9790   31.5040   50.1260 C   0  0  0  0  0  0  0  0  0  0  0  0
   60.0840   34.0010   49.9970 C   0  0  0  0  0  0  0  0  0  0  0  0
   61.4680   31.1470   47.6160 C   0  0  0  0  0  0  0  0  0  0  0  0
   60.6600   30.5800   46.4250 C   0  0  0  0  0  0  0  0  0  0  0  0
   58.3850   28.4150   47.1410 N   0  0  0  0  0  0  0  0  0  0  0  0
   58.8280   29.0180   48.4020 C   0  0  0  0  0  0  0  0  0  0  0  0
  1  2  2  0
  2  3  1  0
  3  4  2  3
  4  5  1  0
  5  6  1  0
  6  7  1  0
  7  8  2  0
  7  9  1  0
  9 10  1  0
 10 11  1  0
  3 12  1  0
 12 13  2  0
 13 14  1  0
 14 15  2  0
 14 16  1  0
 16 17  1  0
 17 18  1  0
 18 19  1  0
 19 20  1  0
 20 21  1  0
 21 22  1  0
 22 23  1  0
 23 24  1  0
 24 25  1  0
 25 26  1  0
 19 27  1  0
 27 28  1  0
 27 29  1  0
 19 30  1  0
 30 31  1  0
 13 32  1  0
 32 33  1  0
 32  2  1  0
 10  5  2  0
 31 16  1  0
 26 21  1  0
M  CHG  3   6  -1   9  -1  11  -1
M  END
>  <UniqueID>  (2842) 
19

>  <SMILES>  (2842) 
C=c1c(=Cc2[n-]c(=O)[n-]c2[O-])cc(C(=O)N2CCC(CN3CCCCC3)(C(C)C)CC2)n1C

>  <Energy>  (2842) 
158.95333513185486

>  <Genealogy>  (2842) 
C=c1c(=Cc2[n-]c(=O)[n-]c2[O-])cc(C(=O)N2CCC(CN3CCCCC3)(C(C)C)CC2)n1C (protonated)
C=c1c(=Cc2[n-]c(=O)[n-]c2[O-])cc(C(=O)N2CCC(CN3CCCCC3)(C(C)C)CC2)n1C (3D coordinates assigned)
C=c1c(=Cc2[n-]c(=O)[n-]c2[O-])cc(C(=O)N2CCC(CN3CCCCC3)(C(C)C)CC2)n1C (nonaromatic ring conformer: 158.95333513185486 kcal/mol)

>  <smiles>  (2842) 
C=c1c(=Cc2[nH]c(=O)[nH]c2O)cc(C(=O)N2CCC(CN3CCCCC3)(C(C)C)CC2)n1C

>  <score_type>  (2842) 
oracle

>  <origin>  (2842) 
adg

>  <m_score__min__energy>  (2842) 
-18.609999999999999

>  <m_primary>  (2842) 
energy

$$$$
28:0
     RDKit          3D

 33 36  0  0  0  0  0  0  0  0999 V2000
   57.5000   25.6360   43.0610 C   0  0  0  0  0  0  0  0  0  0  0  0
   57.8470   25.8720   44.3360 C   0  0  0  0  0  0  0  0  0  0  0  0
   57.4010   25.1810   45.4770 C   0  0  0  0  0  0  0  0  0  0  0  0
   56.7040   24.0340   45.6070 C   0  0  0  0  0  0  0  0  0  0  0  0
   55.2410   23.8980   45.5010 C   0  0  0  0  0  0  0  0  0  0  0  0
   54.5910   22.7280   45.3700 N   0  0  0  0  0  0  0  0  0  0  0  0
   53.2890   23.0830   45.4530 C   0  0  0  0  0  0  0  0  0  0  0  0
   52.3520   22.2490   45.3590 O   0  0  0  0  0  0  0  0  0  0  0  0
   53.0740   24.4010   45.6570 N   0  0  0  0  0  0  0  0  0  0  0  0
   54.3190   24.9020   45.6990 C   0  0  0  0  0  0  0  0  0  0  0  0
   54.5970   26.2500   45.9140 O   0  0  0  0  0  0  0  0  0  0  0  0
   57.8380   25.9130   46.5670 C   0  0  0  0  0  0  0  0  0  0  0  0
   58.5870   26.9610   46.0710 C   0  0  0  0  0  0  0  0  0  0  0  0
   59.2860   27.9400   46.9240 C   0  0  0  0  0  0  0  0  0  0  0  0
   60.3210   27.5700   47.5400 O   0  0  0  0  0  0  0  0  0  0  0  0
   58.8380   29.3060   47.0390 N   0  0  0  0  0  0  0  0  0  0  0  0
   58.0190   29.9320   45.9910 C   0  0  0  0  0  0  0  0  0  0  0  0
   58.5700   31.3210   45.6500 C   0  0  0  0  0  0  0  0  0  0  0  0
   58.9010   32.1030   46.8550 N   0  0  0  0  0  0  0  0  0  0  0  0
   59.3720   33.4600   46.6820 C   0  0  0  0  0  0  0  0  0  0  0  0
   59.2550   34.0170   45.5570 O   0  0  0  0  0  0  0  0  0  0  0  0
   60.0100   34.2530   47.7940 C   0  0  0  0  0  0  0  0  0  0  0  0
   61.4470   33.8500   48.0070 C   0  0  0  0  0  0  0  0  0  0  0  0
   62.3310   33.7840   46.9150 C   0  0  0  0  0  0  0  0  0  0  0  0
   63.6580   33.3880   47.1040 C   0  0  0  0  0  0  0  0  0  0  0  0
   64.1140   33.0460   48.3790 C   0  0  0  0  0  0  0  0  0  0  0  0
   63.2370   33.0910   49.4690 C   0  0  0  0  0  0  0  0  0  0  0  0
   63.6850   32.7360   50.7350 O   0  0  0  0  0  0  0  0  0  0  0  0
   61.9090   33.4880   49.2840 C   0  0  0  0  0  0  0  0  0  0  0  0
   58.6660   31.5040   48.1780 C   0  0  0  0  0  0  0  0  0  0  0  0
   59.2410   30.0880   48.2170 C   0  0  0  0  0  0  0  0  0  0  0  0
   58.5910   26.9450   44.7170 N   0  0  0  0  0  0  0  0  0  0  0  0
   59.1700   27.9650   43.8340 C   0  0  0  0  0  0  0  0  0  0  0  0
  1  2  2  0
  2  3  1  0
  3  4  2  3
  4  5  1  0
  5  6  1  0
  6  7  1  0
  7  8  2  0
  7  9  1  0
  9 10  1  0
 10 11  1  0
  3 12  1  0
 12 13  2  0
 13 14  1  0
 14 15  2  0
 14 16  1  0
 16 17  1  0
 17 18  1  0
 18 19  1  0
 19 20  1  0
 20 21  2  0
 20 22  1  0
 22 23  1  0
 23 24  2  0
 24 25  1  0
 25 26  2  0
 26 27  1  0
 27 28  1  0
 27 29  2  0
 19 30  1  0
 30 31  1  0
 13 32  1  0
 32 33  1  0
 32  2  1  0
 10  5  2  0
 31 16  1  0
 29 23  1  0
M  CHG  3   6  -1   9  -1  28  -1
M  END
>  <UniqueID>  (2843) 
27

>  <SMILES>  (2843) 
C=c1c(=Cc2[n-]c(=O)[n-]c2O)cc(C(=O)N2CCN(C(=O)Cc3cccc([O-])c3)CC2)n1C

>  <Energy>  (2843) 
133.04928460222388

>  <Genealogy>  (2843) 
C=c1c(=Cc2[n-]c(=O)[n-]c2O)cc(C(=O)N2CCN(C(=O)Cc3cccc([O-])c3)CC2)n1C (protonated)
C=c1c(=Cc2[n-]c(=O)[n-]c2O)cc(C(=O)N2CCN(C(=O)Cc3cccc([O-])c3)CC2)n1C (3D coordinates assigned)
C=c1c(=Cc2[n-]c(=O)[n-]c2O)cc(C(=O)N2CCN(C(=O)Cc3cccc([O-])c3)CC2)n1C (nonaromatic ring conformer: 133.04928460222388 kcal/mol)

>  <smiles>  (2843) 
C=c1c(=Cc2[nH]c(=O)[nH]c2O)cc(C(=O)N2CCN(C(=O)Cc3cccc(O)c3)CC2)n1C

>  <score_type>  (2843) 
oracle

>  <origin>  (2843) 
adg

>  <m_score__min__energy>  (2843) 
-14.23

>  <m_primary>  (2843) 
energy

$$$$
30:0
     RDKit          3D

 31 34  0  0  0  0  0  0  0  0999 V2000
   59.7100   27.5700   46.9570 C   0  0  0  0  0  0  0  0  0  0  0  0
   59.1790   28.3820   46.0280 C   0  0  0  0  0  0  0  0  0  0  0  0
   58.1820   28.0610   45.0910 C   0  0  0  0  0  0  0  0  0  0  0  0
   57.6450   26.8780   44.7390 C   0  0  0  0  0  0  0  0  0  0  0  0
   57.1260   25.8600   45.6660 C   0  0  0  0  0  0  0  0  0  0  0  0
   57.8870   24.8940   46.2100 N   0  0  0  0  0  0  0  0  0  0  0  0
   57.0460   24.2860   47.0760 C   0  0  0  0  0  0  0  0  0  0  0  0
   57.3940   23.3030   47.7790 O   0  0  0  0  0  0  0  0  0  0  0  0
   55.8090   24.8240   47.1380 N   0  0  0  0  0  0  0  0  0  0  0  0
   55.8800   25.8280   46.2500 C   0  0  0  0  0  0  0  0  0  0  0  0
   54.8380   26.7140   46.0010 O   0  0  0  0  0  0  0  0  0  0  0  0
   57.7970   29.2600   44.5130 C   0  0  0  0  0  0  0  0  0  0  0  0
   58.5990   30.2430   45.0520 C   0  0  0  0  0  0  0  0  0  0  0  0
   58.5470   31.6890   44.6610 C   0  0  0  0  0  0  0  0  0  0  0  0
   59.4350   29.7140   45.9740 N   0  0  0  0  0  0  0  0  0  0  0  0
   60.3920   30.4400   46.7660 C   0  0  0  0  0  0  0  0  0  0  0  0
   61.5960   30.4860   46.3870 O   0  0  0  0  0  0  0  0  0  0  0  0
   60.0030   31.0360   48.0250 N   0  0  0  0  0  0  0  0  0  0  0  0
   59.7290   29.9910   49.0530 C   0  0  0  0  0  0  0  0  0  0  0  0
   58.5560   30.3260   49.9970 C   0  0  0  0  0  0  0  0  0  0  0  0
   58.4650   31.7730   50.2330 N   0  0  0  0  0  0  0  0  0  0  0  0
   58.2850   32.3040   51.5600 C   0  0  0  0  0  0  0  0  0  0  0  0
   58.8460   33.3900   51.8720 O   0  0  0  0  0  0  0  0  0  0  0  0
   57.4510   31.6120   52.5700 C   0  0  0  0  0  0  0  0  0  0  0  0
   57.8960   31.5070   53.9000 C   0  0  0  0  0  0  0  0  0  0  0  0
   57.1070   30.8670   54.8610 C   0  0  0  0  0  0  0  0  0  0  0  0
   55.8630   30.3370   54.5060 C   0  0  0  0  0  0  0  0  0  0  0  0
   55.4040   30.4530   53.1930 C   0  0  0  0  0  0  0  0  0  0  0  0
   56.1900   31.0920   52.2280 C   0  0  0  0  0  0  0  0  0  0  0  0
   58.5330   32.6980   49.0970 C   0  0  0  0  0  0  0  0  0  0  0  0
   58.8640   31.9490   47.8020 C   0  0  0  0  0  0  0  0  0  0  0  0
  1  2  2  0
  2  3  1  0
  3  4  2  3
  4  5  1  0
  5  6  1  0
  6  7  1  0
  7  8  2  0
  7  9  1  0
  9 10  1  0
 10 11  1  0
  3 12  1  0
 12 13  2  0
 13 14  1  0
 13 15  1  0
 15 16  1  0
 16 17  2  0
 16 18  1  0
 18 19  1  0
 19 20  1  0
 20 21  1  0
 21 22  1  0
 22 23  2  0
 22 24  1  0
 24 25  2  0
 25 26  1  0
 26 27  2  0
 27 28  1  0
 28 29  2  0
 21 30  1  0
 30 31  1  0
 15  2  1  0
 31 18  1  0
 10  5  2  0
 29 24  1  0
M  CHG  4   6  -1   9  -1  11  -1  18   1
M  END
>  <UniqueID>  (2844) 
28

>  <SMILES>  (2844) 
C=c1c(=Cc2[n-]c(=O)[n-]c2[O-])cc(C)n1C(=O)[NH+]1CCN(C(=O)c2ccccc2)CC1

>  <Energy>  (2844) 
142.56278422656783

>  <Genealogy>  (2844) 
C=c1c(=Cc2[n-]c(=O)[n-]c2[O-])cc(C)n1C(=O)[NH+]1CCN(C(=O)c2ccccc2)CC1 (protonated)
C=c1c(=Cc2[n-]c(=O)[n-]c2[O-])cc(C)n1C(=O)[NH+]1CCN(C(=O)c2ccccc2)CC1 (3D coordinates assigned)
C=c1c(=Cc2[n-]c(=O)[n-]c2[O-])cc(C)n1C(=O)[NH+]1CCN(C(=O)c2ccccc2)CC1 (nonaromatic ring conformer: 142.56278422656783 kcal/mol)

>  <smiles>  (2844) 
C=c1c(=Cc2[nH]c(=O)[nH]c2O)cc(C)n1C(=O)N1CCN(C(=O)c2ccccc2)CC1

>  <score_type>  (2844) 
oracle

>  <origin>  (2844) 
adg

>  <m_score__min__energy>  (2844) 
-16.109999999999999

>  <m_primary>  (2844) 
energy

$$$$
38:0
     RDKit          3D

 23 25  0  0  0  0  0  0  0  0999 V2000
   55.9890   30.0920   43.4860 C   0  0  0  0  0  0  0  0  0  0  0  0
   56.7840   29.6980   44.4830 C   0  0  0  0  0  0  0  0  0  0  0  0
   56.6190   28.5300   45.1370 N   0  0  0  0  0  0  0  0  0  0  0  0
   57.6130   28.4510   46.0490 C   0  0  0  0  0  0  0  0  0  0  0  0
   57.8230   27.4200   46.8810 C   0  0  0  0  0  0  0  0  0  0  0  0
   57.2100   26.0890   46.7190 C   0  0  0  0  0  0  0  0  0  0  0  0
   57.8150   24.9410   47.0600 N   0  0  0  0  0  0  0  0  0  0  0  0
   56.8890   23.9870   46.8410 C   0  0  0  0  0  0  0  0  0  0  0  0
   57.1030   22.7640   47.0420 O   0  0  0  0  0  0  0  0  0  0  0  0
   55.7040   24.4600   46.3980 N   0  0  0  0  0  0  0  0  0  0  0  0
   55.9170   25.7900   46.3370 C   0  0  0  0  0  0  0  0  0  0  0  0
   54.9340   26.7080   45.9880 O   0  0  0  0  0  0  0  0  0  0  0  0
   58.4260   29.5660   45.9730 C   0  0  0  0  0  0  0  0  0  0  0  0
   57.8920   30.3770   44.9870 C   0  0  0  0  0  0  0  0  0  0  0  0
   58.4670   31.7040   44.5430 C   0  0  0  0  0  0  0  0  0  0  0  0
   58.1270   32.9180   45.4670 C   0  0  0  0  0  0  0  0  0  0  0  0
   56.6590   33.3530   45.2470 C   0  0  0  0  0  0  0  0  0  0  0  0
   58.2810   32.4460   46.9570 C   0  0  0  0  0  0  0  0  0  0  0  0
   58.8070   33.5390   47.8970 C   0  0  0  0  0  0  0  0  0  0  0  0
   60.1330   34.0330   47.3910 C   0  0  0  0  0  0  0  0  0  0  0  0
   60.9990   34.3800   48.1790 O   0  0  0  0  0  0  0  0  0  0  0  0
   60.3870   34.1060   45.9110 C   0  0  0  0  0  0  0  0  0  0  0  0
   59.0560   34.1400   45.1500 C   0  0  0  0  0  0  0  0  0  0  0  0
  1  2  2  0
  2  3  1  0
  3  4  1  0
  4  5  2  3
  5  6  1  0
  6  7  1  0
  7  8  1  0
  8  9  2  0
  8 10  1  0
 10 11  1  0
 11 12  1  0
  4 13  1  0
 13 14  2  0
 14 15  1  0
 15 16  1  0
 16 17  1  0
 16 18  1  0
 18 19  1  0
 19 20  1  0
 20 21  2  0
 20 22  1  0
 22 23  1  0
 14  2  1  0
 23 16  1  0
 11  6  2  0
M  CHG  2  10  -1  12  -1
M  END
>  <UniqueID>  (2845) 
36

>  <SMILES>  (2845) 
C=c1[nH]c(=Cc2[nH]c(=O)[n-]c2[O-])cc1CC1(C)CCC(=O)CC1

>  <Energy>  (2845) 
108.05386047624219

>  <Genealogy>  (2845) 
C=c1[nH]c(=Cc2[nH]c(=O)[n-]c2[O-])cc1CC1(C)CCC(=O)CC1 (protonated)
C=c1[nH]c(=Cc2[nH]c(=O)[n-]c2[O-])cc1CC1(C)CCC(=O)CC1 (3D coordinates assigned)
C=c1[nH]c(=Cc2[nH]c(=O)[n-]c2[O-])cc1CC1(C)CCC(=O)CC1 (nonaromatic ring conformer: 108.05386047624219 kcal/mol)

>  <smiles>  (2845) 
C=c1[nH]c(=Cc2[nH]c(=O)[nH]c2O)cc1CC1(C)CCC(=O)CC1

>  <score_type>  (2845) 
oracle

>  <origin>  (2845) 
adg

>  <m_score__min__energy>  (2845) 
-14.699999999999999

>  <m_primary>  (2845) 
energy

$$$$
42:0
     RDKit          3D

 26 28  0  0  0  0  0  0  0  0999 V2000
   60.5050   26.9280   48.3510 C   0  0  0  0  0  0  0  0  0  0  0  0
   59.7510   28.0150   48.1230 C   0  0  0  0  0  0  0  0  0  0  0  0
   58.8600   28.2150   47.0570 C   0  0  0  0  0  0  0  0  0  0  0  0
   58.3850   27.3660   46.1250 C   0  0  0  0  0  0  0  0  0  0  0  0
   57.1140   26.6290   46.2010 C   0  0  0  0  0  0  0  0  0  0  0  0
   57.0270   25.3350   46.5540 N   0  0  0  0  0  0  0  0  0  0  0  0
   55.7200   25.0470   46.3590 C   0  0  0  0  0  0  0  0  0  0  0  0
   55.2350   23.9100   46.5990 O   0  0  0  0  0  0  0  0  0  0  0  0
   54.9790   26.0660   45.8780 N   0  0  0  0  0  0  0  0  0  0  0  0
   55.8790   27.0560   45.7690 C   0  0  0  0  0  0  0  0  0  0  0  0
   55.5840   28.3130   45.2560 O   0  0  0  0  0  0  0  0  0  0  0  0
   58.5000   29.5510   47.1010 C   0  0  0  0  0  0  0  0  0  0  0  0
   59.1200   30.1010   48.2040 C   0  0  0  0  0  0  0  0  0  0  0  0
   59.0350   31.5280   48.5780 C   0  0  0  0  0  0  0  0  0  0  0  0
   58.1440   31.8960   49.3910 O   0  0  0  0  0  0  0  0  0  0  0  0
   59.9580   32.4950   48.0390 N   0  0  0  0  0  0  0  0  0  0  0  0
   60.2180   33.7560   48.7360 C   0  0  0  0  0  0  0  0  0  0  0  0
   59.7130   34.9390   47.8890 C   0  0  0  0  0  0  0  0  0  0  0  0
   59.7980   34.7180   46.4120 N   0  0  0  0  0  0  0  0  0  0  0  0
   58.4570   34.5080   45.7820 C   0  0  0  0  0  0  0  0  0  0  0  0
   58.6170   33.7490   44.4480 C   0  0  0  0  0  0  0  0  0  0  0  0
   57.4910   33.6850   46.6650 C   0  0  0  0  0  0  0  0  0  0  0  0
   60.8300   33.7050   46.0730 C   0  0  0  0  0  0  0  0  0  0  0  0
   60.5000   32.3330   46.6860 C   0  0  0  0  0  0  0  0  0  0  0  0
   59.8610   29.1630   48.8420 N   0  0  0  0  0  0  0  0  0  0  0  0
   60.6610   29.3660   50.0570 C   0  0  0  0  0  0  0  0  0  0  0  0
  1  2  2  0
  2  3  1  0
  3  4  2  3
  4  5  1  0
  5  6  1  0
  6  7  1  0
  7  8  2  0
  7  9  1  0
  9 10  1  0
 10 11  1  0
  3 12  1  0
 12 13  2  0
 13 14  1  0
 14 15  2  0
 14 16  1  0
 16 17  1  0
 17 18  1  0
 18 19  1  0
 19 20  1  0
 20 21  1  0
 20 22  1  0
 19 23  1  0
 23 24  1  0
 13 25  1  0
 25 26  1  0
 25  2  1  0
 10  5  2  0
 24 16  1  0
M  CHG  3   6  -1   9  -1  11  -1
M  END
>  <UniqueID>  (2846) 
39

>  <SMILES>  (2846) 
C=c1c(=Cc2[n-]c(=O)[n-]c2[O-])cc(C(=O)N2CCN(C(C)C)CC2)n1C

>  <Energy>  (2846) 
135.91820042784445

>  <Genealogy>  (2846) 
C=c1c(=Cc2[n-]c(=O)[n-]c2[O-])cc(C(=O)N2CCN(C(C)C)CC2)n1C (protonated)
C=c1c(=Cc2[n-]c(=O)[n-]c2[O-])cc(C(=O)N2CCN(C(C)C)CC2)n1C (3D coordinates assigned)
C=c1c(=Cc2[n-]c(=O)[n-]c2[O-])cc(C(=O)N2CCN(C(C)C)CC2)n1C (nonaromatic ring conformer: 135.91820042784445 kcal/mol)

>  <smiles>  (2846) 
C=c1c(=Cc2[nH]c(=O)[nH]c2O)cc(C(=O)N2CCN(C(C)C)CC2)n1C

>  <score_type>  (2846) 
oracle

>  <origin>  (2846) 
adg

>  <m_score__min__energy>  (2846) 
-16.550000000000001

>  <m_primary>  (2846) 
energy

$$$$
47:0
     RDKit          3D

 33 36  0  0  0  0  0  0  0  0999 V2000
   57.4060   25.3040   43.4400 C   0  0  0  0  0  0  0  0  0  0  0  0
   57.5270   25.6450   44.7350 C   0  0  0  0  0  0  0  0  0  0  0  0
   57.0380   24.9250   45.8390 C   0  0  0  0  0  0  0  0  0  0  0  0
   56.2060   23.8670   45.9170 C   0  0  0  0  0  0  0  0  0  0  0  0
   54.7550   23.8910   45.6770 C   0  0  0  0  0  0  0  0  0  0  0  0
   54.0120   22.8190   45.3480 N   0  0  0  0  0  0  0  0  0  0  0  0
   52.7830   23.3460   45.1490 C   0  0  0  0  0  0  0  0  0  0  0  0
   51.7890   22.6420   44.8320 O   0  0  0  0  0  0  0  0  0  0  0  0
   52.7050   24.6880   45.3050 N   0  0  0  0  0  0  0  0  0  0  0  0
   53.9670   25.0170   45.6270 C   0  0  0  0  0  0  0  0  0  0  0  0
   54.3890   26.3210   45.8660 O   0  0  0  0  0  0  0  0  0  0  0  0
   57.6110   25.5030   46.9570 C   0  0  0  0  0  0  0  0  0  0  0  0
   58.3720   26.5660   46.5200 C   0  0  0  0  0  0  0  0  0  0  0  0
   59.1800   27.4450   47.4290 C   0  0  0  0  0  0  0  0  0  0  0  0
   58.3060   26.6730   45.1700 N   0  0  0  0  0  0  0  0  0  0  0  0
   58.9960   27.6840   44.3450 C   0  0  0  0  0  0  0  0  0  0  0  0
   58.1440   28.9210   44.1870 C   0  0  0  0  0  0  0  0  0  0  0  0
   57.0490   28.9180   43.3050 C   0  0  0  0  0  0  0  0  0  0  0  0
   56.2670   30.0660   43.1420 C   0  0  0  0  0  0  0  0  0  0  0  0
   56.5600   31.2200   43.8710 C   0  0  0  0  0  0  0  0  0  0  0  0
   57.6340   31.2340   44.7780 C   0  0  0  0  0  0  0  0  0  0  0  0
   57.9420   32.4550   45.5550 C   0  0  0  0  0  0  0  0  0  0  0  0
   57.1470   33.4350   45.4970 O   0  0  0  0  0  0  0  0  0  0  0  0
   59.1510   32.5630   46.3260 N   0  0  0  0  0  0  0  0  0  0  0  0
   59.5680   31.4610   47.2030 C   0  0  0  0  0  0  0  0  0  0  0  0
   61.0940   31.3420   47.2070 C   0  0  0  0  0  0  0  0  0  0  0  0
   61.7300   32.6360   47.5090 N   0  0  0  0  0  0  0  0  0  0  0  0
   63.0970   32.6400   47.9760 C   0  0  0  0  0  0  0  0  0  0  0  0
   63.8040   31.6000   47.8430 O   0  0  0  0  0  0  0  0  0  0  0  0
   63.7180   33.8530   48.5970 C   0  0  0  0  0  0  0  0  0  0  0  0
   60.9460   33.8800   47.4430 C   0  0  0  0  0  0  0  0  0  0  0  0
   59.8950   33.8260   46.3220 C   0  0  0  0  0  0  0  0  0  0  0  0
   58.4210   30.0770   44.9340 C   0  0  0  0  0  0  0  0  0  0  0  0
  1  2  2  0
  2  3  1  0
  3  4  2  0
  4  5  1  0
  5  6  1  0
  6  7  1  0
  7  8  2  0
  7  9  1  0
  9 10  1  0
 10 11  1  0
  3 12  1  0
 12 13  2  0
 13 14  1  0
 13 15  1  0
 15 16  1  0
 16 17  1  0
 17 18  2  0
 18 19  1  0
 19 20  2  0
 20 21  1  0
 21 22  1  0
 22 23  2  0
 22 24  1  0
 24 25  1  0
 25 26  1  0
 26 27  1  0
 27 28  1  0
 28 29  2  0
 28 30  1  0
 27 31  1  0
 31 32  1  0
 21 33  2  0
 15  2  1  0
 33 17  1  0
 10  5  2  0
 32 24  1  0
M  CHG  3   6  -1   9  -1  11  -1
M  END
>  <UniqueID>  (2847) 
44

>  <SMILES>  (2847) 
C=c1/c(=C\c2[n-]c(=O)[n-]c2[O-])cc(C)n1Cc1cccc(C(=O)N2CCN(C(C)=O)CC2)c1

>  <Energy>  (2847) 
133.3192671851131

>  <Genealogy>  (2847) 
C=c1c(=Cc2[n-]c(=O)[n-]c2[O-])cc(C)n1Cc1cccc(C(=O)N2CCN(C(C)=O)CC2)c1 (protonated)
C=c1/c(=C\c2[n-]c(=O)[n-]c2[O-])cc(C)n1Cc1cccc(C(=O)N2CCN(C(C)=O)CC2)c1 (cis-trans isomerization)
C=c1/c(=C\c2[n-]c(=O)[n-]c2[O-])cc(C)n1Cc1cccc(C(=O)N2CCN(C(C)=O)CC2)c1 (3D coordinates assigned)
C=c1/c(=C\c2[n-]c(=O)[n-]c2[O-])cc(C)n1Cc1cccc(C(=O)N2CCN(C(C)=O)CC2)c1 (nonaromatic ring conformer: 133.3192671851131 kcal/mol)

>  <smiles>  (2847) 
C=c1c(=Cc2[nH]c(=O)[nH]c2O)cc(C)n1Cc1cccc(C(=O)N2CCN(C(C)=O)CC2)c1

>  <score_type>  (2847) 
oracle

>  <origin>  (2847) 
adg

>  <m_score__min__energy>  (2847) 
-17.899999999999999

>  <m_primary>  (2847) 
energy

$$$$
52:0
     RDKit          3D

 32 34  0  0  0  0  0  0  0  0999 V2000
   51.0290   32.3230   50.1870 N   0  0  0  0  0  0  0  0  0  0  0  0
   51.0940   32.0300   51.5810 C   0  0  0  0  0  0  0  0  0  0  0  0
   50.9130   32.9470   52.4250 O   0  0  0  0  0  0  0  0  0  0  0  0
   51.3400   30.6290   52.0400 C   0  0  0  0  0  0  0  0  0  0  0  0
   52.7990   30.4320   52.3440 C   0  0  0  0  0  0  0  0  0  0  0  0
   53.7690   31.2080   51.6920 C   0  0  0  0  0  0  0  0  0  0  0  0
   55.1240   31.0510   51.9990 C   0  0  0  0  0  0  0  0  0  0  0  0
   55.5270   30.1160   52.9650 C   0  0  0  0  0  0  0  0  0  0  0  0
   56.9780   29.9840   53.3400 C   0  0  0  0  0  0  0  0  0  0  0  0
   57.8020   30.9320   52.5250 C   0  0  0  0  0  0  0  0  0  0  0  0
   57.8420   32.2650   52.7300 N   0  0  0  0  0  0  0  0  0  0  0  0
   58.5890   32.7240   51.7010 C   0  0  0  0  0  0  0  0  0  0  0  0
   58.8360   33.9470   51.5290 O   0  0  0  0  0  0  0  0  0  0  0  0
   59.0170   31.7540   50.8660 N   0  0  0  0  0  0  0  0  0  0  0  0
   59.7040   31.9150   49.5850 C   0  0  0  0  0  0  0  0  0  0  0  0
   58.9940   32.9330   48.7500 C   0  0  0  0  0  0  0  0  0  0  0  0
   59.3090   34.1500   48.8470 O   0  0  0  0  0  0  0  0  0  0  0  0
   58.0170   32.5020   47.7950 N   0  0  0  0  0  0  0  0  0  0  0  0
   58.2090   31.5440   46.7420 C   0  0  0  0  0  0  0  0  0  0  0  0
   58.5550   30.2090   47.0280 C   0  0  0  0  0  0  0  0  0  0  0  0
   58.7450   29.2900   45.9970 C   0  0  0  0  0  0  0  0  0  0  0  0
   58.6010   29.6900   44.6690 C   0  0  0  0  0  0  0  0  0  0  0  0
   58.2870   31.0160   44.3660 C   0  0  0  0  0  0  0  0  0  0  0  0
   58.1050   31.9620   45.3950 C   0  0  0  0  0  0  0  0  0  0  0  0
   57.7670   33.3990   45.0660 C   0  0  0  0  0  0  0  0  0  0  0  0
   56.6850   33.8090   45.8220 F   0  0  0  0  0  0  0  0  0  0  0  0
   58.8270   34.2510   45.3290 F   0  0  0  0  0  0  0  0  0  0  0  0
   57.4460   33.5010   43.7250 F   0  0  0  0  0  0  0  0  0  0  0  0
   58.5020   30.6250   51.3790 C   0  0  0  0  0  0  0  0  0  0  0  0
   58.6320   29.3640   50.8070 O   0  0  0  0  0  0  0  0  0  0  0  0
   54.5560   29.3530   53.6330 C   0  0  0  0  0  0  0  0  0  0  0  0
   53.2010   29.5110   53.3260 C   0  0  0  0  0  0  0  0  0  0  0  0
  1  2  1  0
  2  3  2  0
  2  4  1  0
  4  5  1  0
  5  6  2  0
  6  7  1  0
  7  8  2  0
  8  9  1  0
  9 10  1  0
 10 11  1  0
 11 12  1  0
 12 13  2  0
 12 14  1  0
 14 15  1  0
 15 16  1  0
 16 17  2  0
 16 18  1  0
 18 19  1  0
 19 20  2  0
 20 21  1  0
 21 22  2  0
 22 23  1  0
 23 24  2  0
 24 25  1  0
 25 26  1  0
 25 27  1  0
 25 28  1  0
 14 29  1  0
 29 30  1  0
  8 31  1  0
 31 32  2  0
 32  5  1  0
 29 10  2  0
 24 19  1  0
M  CHG  4   1  -1  11  -1  18  -1  30  -1
M  END
>  <UniqueID>  (2848) 
49

>  <SMILES>  (2848) 
[NH-]C(=O)Cc1ccc(Cc2[n-]c(=O)n(CC(=O)[N-]c3ccccc3C(F)(F)F)c2[O-])cc1

>  <Energy>  (2848) 
76.6302680132513

>  <Genealogy>  (2848) 
[NH-]C(=O)Cc1ccc(Cc2[n-]c(=O)n(CC(=O)[N-]c3ccccc3C(F)(F)F)c2[O-])cc1 (protonated)
[NH-]C(=O)Cc1ccc(Cc2[n-]c(=O)n(CC(=O)[N-]c3ccccc3C(F)(F)F)c2[O-])cc1 (3D coordinates assigned)
[NH-]C(=O)Cc1ccc(Cc2[n-]c(=O)n(CC(=O)[N-]c3ccccc3C(F)(F)F)c2[O-])cc1 (optimized conformer: 76.6302680132513 kcal/mol)

>  <smiles>  (2848) 
NC(=O)Cc1ccc(Cc2[nH]c(=O)n(CC(=O)Nc3ccccc3C(F)(F)F)c2O)cc1

>  <score_type>  (2848) 
oracle

>  <origin>  (2848) 
adg

>  <m_score__min__energy>  (2848) 
-14.58

>  <m_primary>  (2848) 
energy

$$$$
55:0
     RDKit          3D

 27 29  0  0  0  0  0  0  0  0999 V2000
   57.1290   32.8980   45.5700 C   0  0  0  0  0  0  0  0  0  0  0  0
   57.7550   31.7440   45.8090 C   0  0  0  0  0  0  0  0  0  0  0  0
   57.6040   30.6500   45.0370 N   0  0  0  0  0  0  0  0  0  0  0  0
   58.3440   29.6660   45.5930 C   0  0  0  0  0  0  0  0  0  0  0  0
   58.4090   28.4050   45.1290 C   0  0  0  0  0  0  0  0  0  0  0  0
   57.5230   27.3160   45.5950 C   0  0  0  0  0  0  0  0  0  0  0  0
   56.1260   27.4650   45.6290 C   0  0  0  0  0  0  0  0  0  0  0  0
   55.5260   28.6540   45.2280 O   0  0  0  0  0  0  0  0  0  0  0  0
   55.3430   26.4330   46.0400 N   0  0  0  0  0  0  0  0  0  0  0  0
   55.8870   25.2430   46.4040 C   0  0  0  0  0  0  0  0  0  0  0  0
   55.1430   24.3030   46.7840 O   0  0  0  0  0  0  0  0  0  0  0  0
   57.2320   25.0660   46.3510 N   0  0  0  0  0  0  0  0  0  0  0  0
   58.0570   26.0660   45.9500 C   0  0  0  0  0  0  0  0  0  0  0  0
   59.3000   25.8630   45.9100 O   0  0  0  0  0  0  0  0  0  0  0  0
   58.9850   30.1400   46.7350 C   0  0  0  0  0  0  0  0  0  0  0  0
   59.9170   29.3730   47.6290 C   0  0  0  0  0  0  0  0  0  0  0  0
   58.5980   31.4680   46.8780 C   0  0  0  0  0  0  0  0  0  0  0  0
   58.9950   32.4020   47.9550 C   0  0  0  0  0  0  0  0  0  0  0  0
   58.6590   32.1360   49.1430 O   0  0  0  0  0  0  0  0  0  0  0  0
   59.8140   33.5660   47.6730 N   0  0  1  0  0  0  0  0  0  0  0  0
   60.1940   34.2800   48.9330 C   0  0  0  0  0  0  0  0  0  0  0  0
   61.6890   34.1860   49.3170 C   0  0  0  0  0  0  0  0  0  0  0  0
   62.2540   32.8920   48.9330 N   0  0  0  0  0  0  0  0  0  0  0  0
   63.0610   32.0920   49.8540 C   0  0  0  0  0  0  0  0  0  0  0  0
   61.9900   32.4430   47.6020 C   0  0  0  0  0  0  0  0  0  0  0  0
   62.6060   31.4590   47.1100 O   0  0  0  0  0  0  0  0  0  0  0  0
   60.9550   33.1770   46.8100 C   0  0  0  0  0  0  0  0  0  0  0  0
  1  2  2  0
  2  3  1  0
  3  4  1  0
  4  5  2  3
  5  6  1  0
  6  7  2  0
  7  8  1  0
  7  9  1  0
  9 10  1  0
 10 11  2  0
 10 12  1  0
 12 13  1  0
 13 14  2  0
  4 15  1  0
 15 16  1  0
 15 17  2  0
 17 18  1  0
 18 19  2  0
 20 18  1  1
 20 21  1  0
 21 22  1  0
 22 23  1  0
 23 24  1  0
 23 25  1  0
 25 26  2  0
 25 27  1  0
 17  2  1  0
 27 20  1  0
 13  6  1  0
M  CHG  4   8  -1   9  -1  12  -1  20   1
M  END
>  <UniqueID>  (2849) 
52

>  <SMILES>  (2849) 
C=c1[nH]c(=Cc2c([O-])[n-]c(=O)[n-]c2=O)c(C)c1C(=O)[N@H+]1CCN(C)C(=O)C1

>  <Energy>  (2849) 
95.31393614925035

>  <Genealogy>  (2849) 
C=c1[nH]c(=Cc2c([O-])[n-]c(=O)[n-]c2=O)c(C)c1C(=O)[NH+]1CCN(C)C(=O)C1 (protonated)
C=c1[nH]c(=Cc2c([O-])[n-]c(=O)[n-]c2=O)c(C)c1C(=O)[N@H+]1CCN(C)C(=O)C1 (chirality)
C=c1[nH]c(=Cc2c([O-])[n-]c(=O)[n-]c2=O)c(C)c1C(=O)[N@H+]1CCN(C)C(=O)C1 (3D coordinates assigned)
C=c1[nH]c(=Cc2c([O-])[n-]c(=O)[n-]c2=O)c(C)c1C(=O)[N@H+]1CCN(C)C(=O)C1 (nonaromatic ring conformer: 95.31393614925035 kcal/mol)

>  <smiles>  (2849) 
C=c1[nH]c(=Cc2c(O)[nH]c(=O)[nH]c2=O)c(C)c1C(=O)N1CCN(C)C(=O)C1

>  <score_type>  (2849) 
oracle

>  <origin>  (2849) 
adg

>  <m_score__min__energy>  (2849) 
-14.19

>  <m_primary>  (2849) 
energy

$$$$
57:0
     RDKit          3D

 32 35  0  0  0  0  0  0  0  0999 V2000
   56.6060   31.8100   51.6690 C   0  0  0  0  0  0  0  0  0  0  0  0
   55.8680   30.8270   52.2130 C   0  0  0  0  0  0  0  0  0  0  0  0
   54.5140   30.5540   51.9600 C   0  0  0  0  0  0  0  0  0  0  0  0
   53.5690   31.2740   51.3240 C   0  0  0  0  0  0  0  0  0  0  0  0
   52.3250   31.7780   51.9290 C   0  0  0  0  0  0  0  0  0  0  0  0
   51.8840   31.4570   53.1590 N   0  0  0  0  0  0  0  0  0  0  0  0
   50.6630   32.0320   53.2140 C   0  0  0  0  0  0  0  0  0  0  0  0
   49.9270   31.9660   54.2310 O   0  0  0  0  0  0  0  0  0  0  0  0
   50.2890   32.6750   52.0860 N   0  0  0  0  0  0  0  0  0  0  0  0
   51.3470   32.4920   51.2800 C   0  0  0  0  0  0  0  0  0  0  0  0
   51.4150   32.9630   49.9750 O   0  0  0  0  0  0  0  0  0  0  0  0
   54.2570   29.3210   52.5300 C   0  0  0  0  0  0  0  0  0  0  0  0
   55.4160   28.9160   53.1570 C   0  0  0  0  0  0  0  0  0  0  0  0
   55.5640   27.6380   53.9250 C   0  0  0  0  0  0  0  0  0  0  0  0
   56.3930   29.8380   52.9860 N   0  0  0  0  0  0  0  0  0  0  0  0
   57.7850   29.7070   53.4400 C   0  0  0  0  0  0  0  0  0  0  0  0
   58.6680   29.3150   52.2970 C   0  0  0  0  0  0  0  0  0  0  0  0
   58.3210   29.4380   51.0020 N   0  0  0  0  0  0  0  0  0  0  0  0
   59.3400   28.9980   50.2820 N   0  0  0  0  0  0  0  0  0  0  0  0
   59.3290   28.9110   48.8270 C   0  0  0  0  0  0  0  0  0  0  0  0
   60.2870   29.8670   48.2730 N   0  0  0  0  0  0  0  0  0  0  0  0
   59.4620   31.3240   47.8070 S   0  0  0  0  0  0  0  0  0  0  0  0
   60.4630   32.4260   47.5950 O   0  0  0  0  0  0  0  0  0  0  0  0
   58.5280   31.7370   48.9090 O   0  0  0  0  0  0  0  0  0  0  0  0
   58.5320   31.0590   46.3340 C   0  0  0  0  0  0  0  0  0  0  0  0
   58.2410   29.7510   45.9200 C   0  0  0  0  0  0  0  0  0  0  0  0
   57.5200   29.5310   44.7410 C   0  0  0  0  0  0  0  0  0  0  0  0
   57.0900   30.6150   43.9710 C   0  0  0  0  0  0  0  0  0  0  0  0
   57.3830   31.9200   44.3770 C   0  0  0  0  0  0  0  0  0  0  0  0
   58.1040   32.1440   45.5550 C   0  0  0  0  0  0  0  0  0  0  0  0
   60.3290   28.5720   51.0920 C   0  0  0  0  0  0  0  0  0  0  0  0
   59.9340   28.7670   52.3990 C   0  0  0  0  0  0  0  0  0  0  0  0
  1  2  2  0
  2  3  1  0
  3  4  2  0
  4  5  1  0
  5  6  1  0
  6  7  1  0
  7  8  2  0
  7  9  1  0
  9 10  1  0
 10 11  1  0
  3 12  1  0
 12 13  2  0
 13 14  1  0
 13 15  1  0
 15 16  1  0
 16 17  1  0
 17 18  2  0
 18 19  1  0
 19 20  1  0
 20 21  1  0
 21 22  1  0
 22 23  2  0
 22 24  2  0
 22 25  1  0
 25 26  2  0
 26 27  1  0
 27 28  2  0
 28 29  1  0
 29 30  2  0
 19 31  1  0
 31 32  2  0
 15  2  1  0
 32 17  1  0
 10  5  2  0
 30 25  1  0
M  CHG  3   6  -1   9  -1  11  -1
M  END
>  <UniqueID>  (2850) 
54

>  <SMILES>  (2850) 
C=c1/c(=C\c2[n-]c(=O)[n-]c2[O-])cc(C)n1Cc1ccn(CNS(=O)(=O)c2ccccc2)n1

>  <Energy>  (2850) 
147.76052797322583

>  <Genealogy>  (2850) 
C=c1c(=Cc2[n-]c(=O)[n-]c2[O-])cc(C)n1Cc1ccn(CNS(=O)(=O)c2ccccc2)n1 (protonated)
C=c1/c(=C\c2[n-]c(=O)[n-]c2[O-])cc(C)n1Cc1ccn(CNS(=O)(=O)c2ccccc2)n1 (cis-trans isomerization)
C=c1/c(=C\c2[n-]c(=O)[n-]c2[O-])cc(C)n1Cc1ccn(CNS(=O)(=O)c2ccccc2)n1 (3D coordinates assigned)
C=c1/c(=C\c2[n-]c(=O)[n-]c2[O-])cc(C)n1Cc1ccn(CNS(=O)(=O)c2ccccc2)n1 (optimized conformer: 147.76052797322583 kcal/mol)

>  <smiles>  (2850) 
C=c1c(=Cc2[nH]c(=O)[nH]c2O)cc(C)n1Cc1ccn(CNS(=O)(=O)c2ccccc2)n1

>  <score_type>  (2850) 
oracle

>  <origin>  (2850) 
adg

>  <m_score__min__energy>  (2850) 
-16.91

>  <m_primary>  (2850) 
energy

$$$$
68:0
     RDKit          3D

 28 30  0  0  0  0  0  0  0  0999 V2000
   57.0330   34.2050   45.2530 C   0  0  0  0  0  0  0  0  0  0  0  0
   57.9630   33.0310   45.1990 C   0  0  0  0  0  0  0  0  0  0  0  0
   57.7120   32.1000   44.3870 O   0  0  0  0  0  0  0  0  0  0  0  0
   59.1430   32.9660   46.0290 N   0  0  0  0  0  0  0  0  0  0  0  0
   59.8860   31.7070   46.1540 C   0  0  0  0  0  0  0  0  0  0  0  0
   60.4760   31.6050   47.5600 C   0  0  0  0  0  0  0  0  0  0  0  0
   61.3890   32.7270   47.8680 N   0  0  0  0  0  0  0  0  0  0  0  0
   61.5090   32.9750   49.5960 S   0  0  0  0  0  0  0  0  0  0  0  0
   61.7070   34.4400   49.8670 O   0  0  0  0  0  0  0  0  0  0  0  0
   62.7000   32.2340   50.1380 O   0  0  0  0  0  0  0  0  0  0  0  0
   60.0520   32.4200   50.4270 C   0  0  0  0  0  0  0  0  0  0  0  0
   60.1510   31.7300   51.6410 C   0  0  0  0  0  0  0  0  0  0  0  0
   59.0030   31.2340   52.2650 C   0  0  0  0  0  0  0  0  0  0  0  0
   57.7380   31.4250   51.6850 C   0  0  0  0  0  0  0  0  0  0  0  0
   56.5280   30.8790   52.3460 C   0  0  0  0  0  0  0  0  0  0  0  0
   56.4930   30.8040   53.6030 O   0  0  0  0  0  0  0  0  0  0  0  0
   55.3660   30.4790   51.6070 N   0  0  0  0  0  0  0  0  0  0  0  0
   53.9960   30.6560   52.0000 C   0  0  0  0  0  0  0  0  0  0  0  0
   53.4630   29.8170   52.9870 C   0  0  0  0  0  0  0  0  0  0  0  0
   52.1330   29.9590   53.3920 C   0  0  0  0  0  0  0  0  0  0  0  0
   51.3210   30.9310   52.8020 C   0  0  0  0  0  0  0  0  0  0  0  0
   51.8360   31.7580   51.7990 C   0  0  0  0  0  0  0  0  0  0  0  0
   51.0240   32.7160   51.2070 O   0  0  0  0  0  0  0  0  0  0  0  0
   53.1670   31.6160   51.3900 C   0  0  0  0  0  0  0  0  0  0  0  0
   57.6410   32.1600   50.4910 C   0  0  0  0  0  0  0  0  0  0  0  0
   58.7910   32.6440   49.8620 C   0  0  0  0  0  0  0  0  0  0  0  0
   61.0980   33.9920   47.1530 C   0  0  0  0  0  0  0  0  0  0  0  0
   59.6190   34.1500   46.7600 C   0  0  0  0  0  0  0  0  0  0  0  0
  1  2  1  0
  2  3  2  0
  2  4  1  0
  4  5  1  0
  5  6  1  0
  6  7  1  0
  7  8  1  0
  8  9  2  0
  8 10  2  0
  8 11  1  0
 11 12  2  0
 12 13  1  0
 13 14  2  0
 14 15  1  0
 15 16  2  0
 15 17  1  0
 17 18  1  0
 18 19  2  0
 19 20  1  0
 20 21  2  0
 21 22  1  0
 22 23  1  0
 22 24  2  0
 14 25  1  0
 25 26  2  0
  7 27  1  0
 27 28  1  0
 28  4  1  0
 26 11  1  0
 24 18  1  0
M  CHG  2  17  -1  23  -1
M  END
>  <UniqueID>  (2851) 
65

>  <SMILES>  (2851) 
CC(=O)N1CCN(S(=O)(=O)c2ccc(C(=O)[N-]c3cccc([O-])c3)cc2)CC1

>  <Energy>  (2851) 
57.684804876422

>  <Genealogy>  (2851) 
CC(=O)N1CCN(S(=O)(=O)c2ccc(C(=O)[N-]c3cccc([O-])c3)cc2)CC1 (protonated)
CC(=O)N1CCN(S(=O)(=O)c2ccc(C(=O)[N-]c3cccc([O-])c3)cc2)CC1 (3D coordinates assigned)
CC(=O)N1CCN(S(=O)(=O)c2ccc(C(=O)[N-]c3cccc([O-])c3)cc2)CC1 (nonaromatic ring conformer: 57.684804876422 kcal/mol)

>  <smiles>  (2851) 
CC(=O)N1CCN(S(=O)(=O)c2ccc(C(=O)Nc3cccc(O)c3)cc2)CC1

>  <score_type>  (2851) 
oracle

>  <origin>  (2851) 
adg

>  <m_score__min__energy>  (2851) 
-14.08

>  <m_primary>  (2851) 
energy

$$$$
71:0
     RDKit          3D

 34 37  0  0  0  0  0  0  0  0999 V2000
   57.1780   29.3960   44.0130 C   0  0  0  0  0  0  0  0  0  0  0  0
   57.6780   29.3730   45.2610 C   0  0  0  0  0  0  0  0  0  0  0  0
   57.7730   30.6050   45.9430 C   0  0  0  0  0  0  0  0  0  0  0  0
   58.5200   30.7210   47.1140 C   0  0  0  0  0  0  0  0  0  0  0  0
   59.2170   29.6170   47.6180 C   0  0  0  0  0  0  0  0  0  0  0  0
   60.0510   29.7540   48.8670 C   0  0  0  0  0  0  0  0  0  0  0  0
   59.2770   30.4560   49.9570 C   0  0  0  0  0  0  0  0  0  0  0  0
   58.4540   29.7090   50.8190 C   0  0  0  0  0  0  0  0  0  0  0  0
   57.7380   30.3400   51.8360 C   0  0  0  0  0  0  0  0  0  0  0  0
   57.8420   31.7210   52.0110 C   0  0  0  0  0  0  0  0  0  0  0  0
   58.6610   32.4760   51.1690 C   0  0  0  0  0  0  0  0  0  0  0  0
   59.3800   31.8530   50.1300 C   0  0  0  0  0  0  0  0  0  0  0  0
   60.2450   32.5770   49.2940 O   0  0  0  0  0  0  0  0  0  0  0  0
   61.6060   32.8070   49.5190 C   0  0  0  0  0  0  0  0  0  0  0  0
   61.9930   33.6470   50.3770 O   0  0  0  0  0  0  0  0  0  0  0  0
   62.6090   32.0480   48.7110 C   0  0  0  0  0  0  0  0  0  0  0  0
   62.2510   32.1140   47.2230 C   0  0  0  0  0  0  0  0  0  0  0  0
   61.5710   33.4520   46.8650 C   0  0  0  0  0  0  0  0  0  0  0  0
   60.0870   33.3780   46.9240 N   0  0  0  0  0  0  0  0  0  0  0  0
   59.4630   34.5610   47.5610 C   0  0  0  0  0  0  0  0  0  0  0  0
   59.6150   35.8290   46.6870 C   0  0  0  0  0  0  0  0  0  0  0  0
   59.8770   35.5410   45.3220 O   0  0  0  0  0  0  0  0  0  0  0  0
   59.0760   34.4670   44.8840 C   0  0  0  0  0  0  0  0  0  0  0  0
   59.5050   33.1540   45.5730 C   0  0  0  0  0  0  0  0  0  0  0  0
   59.0870   28.3710   46.9840 C   0  0  0  0  0  0  0  0  0  0  0  0
   58.2470   28.2000   45.8630 C   0  0  0  0  0  0  0  0  0  0  0  0
   58.0230   26.9220   45.4600 C   0  0  0  0  0  0  0  0  0  0  0  0
   57.3250   25.8740   46.2310 C   0  0  0  0  0  0  0  0  0  0  0  0
   57.9060   24.7650   46.7290 N   0  0  0  0  0  0  0  0  0  0  0  0
   56.8640   24.0720   47.2430 C   0  0  0  0  0  0  0  0  0  0  0  0
   57.0060   22.9620   47.8190 O   0  0  0  0  0  0  0  0  0  0  0  0
   55.6570   24.6550   47.0770 N   0  0  0  0  0  0  0  0  0  0  0  0
   55.9660   25.7860   46.4220 C   0  0  0  0  0  0  0  0  0  0  0  0
   55.0240   26.7120   45.9960 O   0  0  0  0  0  0  0  0  0  0  0  0
  1  2  2  0
  2  3  1  0
  3  4  2  0
  4  5  1  0
  5  6  1  0
  6  7  1  0
  7  8  2  0
  8  9  1  0
  9 10  2  0
 10 11  1  0
 11 12  2  0
 12 13  1  0
 13 14  1  0
 14 15  2  0
 14 16  1  0
 16 17  1  0
 17 18  1  0
 18 19  1  0
 19 20  1  0
 20 21  1  0
 21 22  1  0
 22 23  1  0
 23 24  1  0
  5 25  2  0
 25 26  1  0
 26 27  2  0
 27 28  1  0
 28 29  1  0
 29 30  1  0
 30 31  2  0
 30 32  1  0
 32 33  1  0
 33 34  1  0
 26  2  1  0
 33 28  2  0
 12  7  1  0
 24 19  1  0
M  CHG  4  19   1  29  -1  32  -1  34  -1
M  END
>  <UniqueID>  (2852) 
68

>  <SMILES>  (2852) 
C=c1ccc(Cc2ccccc2OC(=O)CCC[NH+]2CCOCC2)c/c1=C/c1[n-]c(=O)[n-]c1[O-]

>  <Energy>  (2852) 
122.05660149685134

>  <Genealogy>  (2852) 
C=c1ccc(Cc2ccccc2OC(=O)CCC[NH+]2CCOCC2)cc1=Cc1[n-]c(=O)[n-]c1[O-] (protonated)
C=c1ccc(Cc2ccccc2OC(=O)CCC[NH+]2CCOCC2)c/c1=C/c1[n-]c(=O)[n-]c1[O-] (cis-trans isomerization)
C=c1ccc(Cc2ccccc2OC(=O)CCC[NH+]2CCOCC2)c/c1=C/c1[n-]c(=O)[n-]c1[O-] (3D coordinates assigned)
C=c1ccc(Cc2ccccc2OC(=O)CCC[NH+]2CCOCC2)c/c1=C/c1[n-]c(=O)[n-]c1[O-] (nonaromatic ring conformer: 122.05660149685134 kcal/mol)

>  <smiles>  (2852) 
C=c1ccc(Cc2ccccc2OC(=O)CCCN2CCOCC2)cc1=Cc1[nH]c(=O)[nH]c1O

>  <score_type>  (2852) 
oracle

>  <origin>  (2852) 
adg

>  <m_score__min__energy>  (2852) 
-16.510000000000002

>  <m_primary>  (2852) 
energy

$$$$
72:0
     RDKit          3D

 25 27  0  0  0  0  0  0  0  0999 V2000
   56.1730   29.5740   43.6850 C   0  0  0  0  0  0  0  0  0  0  0  0
   57.0910   29.5900   44.6640 C   0  0  0  0  0  0  0  0  0  0  0  0
   57.6670   28.4760   45.2950 C   0  0  0  0  0  0  0  0  0  0  0  0
   57.6490   27.1680   44.9740 C   0  0  0  0  0  0  0  0  0  0  0  0
   57.1820   26.0770   45.8460 C   0  0  0  0  0  0  0  0  0  0  0  0
   57.9830   25.1680   46.4340 N   0  0  0  0  0  0  0  0  0  0  0  0
   57.1380   24.4780   47.2300 C   0  0  0  0  0  0  0  0  0  0  0  0
   57.5170   23.5140   47.9460 O   0  0  0  0  0  0  0  0  0  0  0  0
   55.8590   24.9080   47.2070 N   0  0  0  0  0  0  0  0  0  0  0  0
   55.9090   25.9290   46.3380 C   0  0  0  0  0  0  0  0  0  0  0  0
   54.8130   26.7150   46.0040 O   0  0  0  0  0  0  0  0  0  0  0  0
   58.3400   28.9650   46.4020 C   0  0  0  0  0  0  0  0  0  0  0  0
   58.2040   30.3380   46.3830 C   0  0  0  0  0  0  0  0  0  0  0  0
   58.7720   31.2290   47.4120 C   0  0  0  0  0  0  0  0  0  0  0  0
   58.8770   30.8070   48.5960 O   0  0  0  0  0  0  0  0  0  0  0  0
   59.1460   32.5780   47.0950 N   0  0  0  0  0  0  0  0  0  0  0  0
   59.7810   33.4640   48.0670 C   0  0  0  0  0  0  0  0  0  0  0  0
   61.2760   33.3280   47.9990 C   0  0  0  0  0  0  0  0  0  0  0  0
   62.0200   32.9950   49.1450 C   0  0  0  0  0  0  0  0  0  0  0  0
   63.4120   32.8910   49.0750 C   0  0  0  0  0  0  0  0  0  0  0  0
   64.0730   33.1200   47.8650 C   0  0  0  0  0  0  0  0  0  0  0  0
   63.3410   33.4560   46.7220 C   0  0  0  0  0  0  0  0  0  0  0  0
   61.9480   33.5620   46.7880 C   0  0  0  0  0  0  0  0  0  0  0  0
   57.4770   30.7240   45.3050 N   0  0  0  0  0  0  0  0  0  0  0  0
   57.1570   32.1020   44.9160 C   0  0  0  0  0  0  0  0  0  0  0  0
  1  2  2  0
  2  3  1  0
  3  4  2  3
  4  5  1  0
  5  6  1  0
  6  7  1  0
  7  8  2  0
  7  9  1  0
  9 10  1  0
 10 11  1  0
  3 12  1  0
 12 13  2  0
 13 14  1  0
 14 15  2  0
 14 16  1  0
 16 17  1  0
 17 18  1  0
 18 19  2  0
 19 20  1  0
 20 21  2  0
 21 22  1  0
 22 23  2  0
 13 24  1  0
 24 25  1  0
 24  2  1  0
 10  5  2  0
 23 18  1  0
M  CHG  3   6  -1   9  -1  11  -1
M  END
>  <UniqueID>  (2853) 
69

>  <SMILES>  (2853) 
C=c1c(=Cc2[n-]c(=O)[n-]c2[O-])cc(C(=O)NCc2ccccc2)n1C

>  <Energy>  (2853) 
113.00374465052334

>  <Genealogy>  (2853) 
C=c1c(=Cc2[n-]c(=O)[n-]c2[O-])cc(C(=O)NCc2ccccc2)n1C (protonated)
C=c1c(=Cc2[n-]c(=O)[n-]c2[O-])cc(C(=O)NCc2ccccc2)n1C (3D coordinates assigned)
C=c1c(=Cc2[n-]c(=O)[n-]c2[O-])cc(C(=O)NCc2ccccc2)n1C (optimized conformer: 113.00374465052334 kcal/mol)

>  <smiles>  (2853) 
C=c1c(=Cc2[nH]c(=O)[nH]c2O)cc(C(=O)NCc2ccccc2)n1C

>  <score_type>  (2853) 
oracle

>  <origin>  (2853) 
adg

>  <m_score__min__energy>  (2853) 
-17.739999999999998

>  <m_primary>  (2853) 
energy

$$$$
76:0
     RDKit          3D

 28 30  0  0  0  0  0  0  0  0999 V2000
   57.8830   31.3140   44.1660 C   0  0  0  0  0  0  0  0  0  0  0  0
   58.1440   30.9580   45.4340 C   0  0  0  0  0  0  0  0  0  0  0  0
   58.4280   29.6670   45.9120 C   0  0  0  0  0  0  0  0  0  0  0  0
   58.3710   28.4630   45.3080 C   0  0  0  0  0  0  0  0  0  0  0  0
   57.5110   27.3340   45.7170 C   0  0  0  0  0  0  0  0  0  0  0  0
   56.1170   27.4350   45.6160 C   0  0  0  0  0  0  0  0  0  0  0  0
   55.5210   28.6120   45.1790 O   0  0  0  0  0  0  0  0  0  0  0  0
   55.3340   26.3770   45.9550 N   0  0  0  0  0  0  0  0  0  0  0  0
   55.8800   25.2080   46.3780 C   0  0  0  0  0  0  0  0  0  0  0  0
   55.1360   24.2440   46.6910 O   0  0  0  0  0  0  0  0  0  0  0  0
   57.2290   25.0770   46.4570 N   0  0  0  0  0  0  0  0  0  0  0  0
   58.0540   26.1040   46.1290 C   0  0  0  0  0  0  0  0  0  0  0  0
   59.3020   25.9410   46.1940 O   0  0  0  0  0  0  0  0  0  0  0  0
   58.7900   29.8170   47.2400 C   0  0  0  0  0  0  0  0  0  0  0  0
   58.6740   31.1580   47.5390 C   0  0  0  0  0  0  0  0  0  0  0  0
   58.9170   31.7440   48.8980 C   0  0  0  0  0  0  0  0  0  0  0  0
   58.2720   31.8530   46.4500 N   0  0  0  0  0  0  0  0  0  0  0  0
   58.0700   33.3090   46.3830 C   0  0  0  0  0  0  0  0  0  0  0  0
   59.3800   34.0420   46.4480 C   0  0  0  0  0  0  0  0  0  0  0  0
   59.3890   35.2510   46.8060 O   0  0  0  0  0  0  0  0  0  0  0  0
   60.6140   33.3630   46.1700 N   0  0  0  0  0  0  0  0  0  0  0  0
   61.9170   33.9970   46.3570 C   0  0  0  0  0  0  0  0  0  0  0  0
   62.4890   33.6110   47.6920 C   0  0  0  0  0  0  0  0  0  0  0  0
   61.8850   34.0470   48.8840 C   0  0  0  0  0  0  0  0  0  0  0  0
   62.4050   33.6550   50.1210 C   0  0  0  0  0  0  0  0  0  0  0  0
   63.5250   32.8210   50.1780 C   0  0  0  0  0  0  0  0  0  0  0  0
   64.1260   32.3760   48.9970 C   0  0  0  0  0  0  0  0  0  0  0  0
   63.6090   32.7660   47.7580 C   0  0  0  0  0  0  0  0  0  0  0  0
  1  2  2  0
  2  3  1  0
  3  4  2  0
  4  5  1  0
  5  6  2  0
  6  7  1  0
  6  8  1  0
  8  9  1  0
  9 10  2  0
  9 11  1  0
 11 12  1  0
 12 13  2  0
  3 14  1  0
 14 15  2  0
 15 16  1  0
 15 17  1  0
 17 18  1  0
 18 19  1  0
 19 20  2  0
 19 21  1  0
 21 22  1  0
 22 23  1  0
 23 24  2  0
 24 25  1  0
 25 26  2  0
 26 27  1  0
 27 28  2  0
 17  2  1  0
 28 23  1  0
 12  5  1  0
M  CHG  3   7  -1   8  -1  11  -1
M  END
>  <UniqueID>  (2854) 
73

>  <SMILES>  (2854) 
C=c1/c(=C\c2c([O-])[n-]c(=O)[n-]c2=O)cc(C)n1CC(=O)NCc1ccccc1

>  <Energy>  (2854) 
86.1563250521952

>  <Genealogy>  (2854) 
C=c1c(=Cc2c([O-])[n-]c(=O)[n-]c2=O)cc(C)n1CC(=O)NCc1ccccc1 (protonated)
C=c1/c(=C\c2c([O-])[n-]c(=O)[n-]c2=O)cc(C)n1CC(=O)NCc1ccccc1 (cis-trans isomerization)
C=c1/c(=C\c2c([O-])[n-]c(=O)[n-]c2=O)cc(C)n1CC(=O)NCc1ccccc1 (3D coordinates assigned)
C=c1/c(=C\c2c([O-])[n-]c(=O)[n-]c2=O)cc(C)n1CC(=O)NCc1ccccc1 (optimized conformer: 86.1563250521952 kcal/mol)

>  <smiles>  (2854) 
C=c1c(=Cc2c(O)[nH]c(=O)[nH]c2=O)cc(C)n1CC(=O)NCc1ccccc1

>  <score_type>  (2854) 
oracle

>  <origin>  (2854) 
adg

>  <m_score__min__energy>  (2854) 
-16.390000000000001

>  <m_primary>  (2854) 
energy

$$$$
8:0
     RDKit          3D

 29 32  0  0  0  0  0  0  0  0999 V2000
   58.1690   28.9660   47.7510 O   0  0  0  0  0  0  0  0  0  0  0  0
   58.7690   28.6130   46.6990 C   0  0  0  0  0  0  0  0  0  0  0  0
   58.9260   27.1580   46.3950 C   0  0  0  0  0  0  0  0  0  0  0  0
   57.5800   26.5090   46.2820 C   0  0  0  0  0  0  0  0  0  0  0  0
   57.2650   24.8950   46.6490 S   0  0  0  0  0  0  0  0  0  0  0  0
   55.6200   25.0590   46.3510 C   0  0  0  0  0  0  0  0  0  0  0  0
   54.7840   24.1240   46.4560 O   0  0  0  0  0  0  0  0  0  0  0  0
   55.2800   26.3120   45.9890 N   0  0  0  0  0  0  0  0  0  0  0  0
   56.3670   27.1270   45.9560 C   0  0  0  0  0  0  0  0  0  0  0  0
   56.2450   28.4750   45.6210 O   0  0  0  0  0  0  0  0  0  0  0  0
   59.2120   29.5860   45.7440 N   0  0  0  0  0  0  0  0  0  0  0  0
   58.7310   30.9310   45.6060 C   0  0  0  0  0  0  0  0  0  0  0  0
   57.4730   31.1360   45.0280 C   0  0  0  0  0  0  0  0  0  0  0  0
   56.9720   32.4290   44.8640 C   0  0  0  0  0  0  0  0  0  0  0  0
   57.7270   33.5310   45.2730 C   0  0  0  0  0  0  0  0  0  0  0  0
   58.9940   33.3470   45.8490 C   0  0  0  0  0  0  0  0  0  0  0  0
   59.8190   34.5370   46.2770 C   0  0  0  0  0  0  0  0  0  0  0  0
   61.0450   34.1080   47.0420 C   0  0  0  0  0  0  0  0  0  0  0  0
   62.1840   33.8620   46.3400 N   0  0  0  0  0  0  0  0  0  0  0  0
   63.3060   33.4490   46.9300 N   0  0  0  0  0  0  0  0  0  0  0  0
   63.3710   33.2430   48.2680 C   0  0  0  0  0  0  0  0  0  0  0  0
   64.4550   32.8650   48.7840 O   0  0  0  0  0  0  0  0  0  0  0  0
   62.2300   33.4550   49.0550 C   0  0  0  0  0  0  0  0  0  0  0  0
   61.0500   33.9020   48.4410 C   0  0  0  0  0  0  0  0  0  0  0  0
   59.8610   34.1750   49.3340 C   0  0  0  0  0  0  0  0  0  0  0  0
   59.6700   33.0180   50.3250 C   0  0  0  0  0  0  0  0  0  0  0  0
   60.9660   32.6030   51.0660 C   0  0  0  0  0  0  0  0  0  0  0  0
   62.2480   33.2900   50.5570 C   0  0  0  0  0  0  0  0  0  0  0  0
   59.5040   32.0430   45.9860 C   0  0  0  0  0  0  0  0  0  0  0  0
  1  2  2  0
  2  3  1  0
  3  4  1  0
  4  5  1  0
  5  6  1  0
  6  7  2  0
  6  8  1  0
  8  9  1  0
  9 10  1  0
  2 11  1  0
 11 12  1  0
 12 13  2  0
 13 14  1  0
 14 15  2  0
 15 16  1  0
 16 17  1  0
 17 18  1  0
 18 19  2  0
 19 20  1  0
 20 21  1  0
 21 22  2  0
 21 23  1  0
 23 24  2  0
 24 25  1  0
 25 26  1  0
 26 27  1  0
 27 28  1  0
 16 29  2  0
  9  4  2  0
 29 12  1  0
 24 18  1  0
 28 23  1  0
M  CHG  3   8  -1  11  -1  20  -1
M  END
>  <UniqueID>  (2855) 
9

>  <SMILES>  (2855) 
O=C(Cc1sc(=O)[n-]c1O)[N-]c1cccc(Cc2n[n-]c(=O)c3c2CCCC3)c1

>  <Energy>  (2855) 
88.2865751538968

>  <Genealogy>  (2855) 
O=C(Cc1sc(=O)[n-]c1O)[N-]c1cccc(Cc2n[n-]c(=O)c3c2CCCC3)c1 (protonated)
O=C(Cc1sc(=O)[n-]c1O)[N-]c1cccc(Cc2n[n-]c(=O)c3c2CCCC3)c1 (3D coordinates assigned)
O=C(Cc1sc(=O)[n-]c1O)[N-]c1cccc(Cc2n[n-]c(=O)c3c2CCCC3)c1 (nonaromatic ring conformer: 88.2865751538968 kcal/mol)

>  <smiles>  (2855) 
O=C(Cc1sc(=O)[nH]c1O)Nc1cccc(Cc2n[nH]c(=O)c3c2CCCC3)c1

>  <score_type>  (2855) 
oracle

>  <origin>  (2855) 
adg

>  <m_score__min__energy>  (2855) 
-14.59

>  <m_primary>  (2855) 
energy

$$$$
12:0
     RDKit          3D

 33 36  0  0  0  0  0  0  0  0999 V2000
   54.1510   28.2540   53.0050 C   0  0  0  0  0  0  0  0  0  0  0  0
   54.7810   29.3400   52.5510 C   0  0  0  0  0  0  0  0  0  0  0  0
   56.0800   29.3460   52.3460 O   0  0  0  0  0  0  0  0  0  0  0  0
   56.4550   30.5600   52.0180 C   0  0  0  0  0  0  0  0  0  0  0  0
   57.8440   30.9410   51.7200 C   0  0  0  0  0  0  0  0  0  0  0  0
   58.7790   30.1310   51.9640 O   0  0  0  0  0  0  0  0  0  0  0  0
   58.1340   32.2260   51.1540 N   0  0  0  0  0  0  0  0  0  0  0  0
   59.5060   32.6290   50.8430 C   0  0  0  0  0  0  0  0  0  0  0  0
   59.5280   33.6280   49.6680 C   0  0  0  0  0  0  0  0  0  0  0  0
   59.0420   33.0640   48.3890 N   0  0  0  0  0  0  0  0  0  0  0  0
   59.7950   31.8630   47.9530 C   0  0  0  0  0  0  0  0  0  0  0  0
   59.7500   31.6290   46.4300 C   0  0  0  0  0  0  0  0  0  0  0  0
   58.4930   32.1250   45.8560 N   0  0  0  0  0  0  0  0  0  0  0  0
   57.8230   31.3830   44.8210 C   0  0  0  0  0  0  0  0  0  0  0  0
   57.6980   31.9410   43.5390 C   0  0  0  0  0  0  0  0  0  0  0  0
   57.0430   31.2420   42.5230 C   0  0  0  0  0  0  0  0  0  0  0  0
   56.5100   29.9800   42.7770 C   0  0  0  0  0  0  0  0  0  0  0  0
   56.6300   29.4090   44.0460 C   0  0  0  0  0  0  0  0  0  0  0  0
   57.2920   30.1020   45.0800 C   0  0  0  0  0  0  0  0  0  0  0  0
   57.4520   29.5460   46.3580 O   0  0  0  0  0  0  0  0  0  0  0  0
   58.2950   28.4380   46.6590 C   0  0  0  0  0  0  0  0  0  0  0  0
   57.9960   33.4580   46.2190 C   0  0  0  0  0  0  0  0  0  0  0  0
   58.8470   34.0700   47.3310 C   0  0  0  0  0  0  0  0  0  0  0  0
   55.3630   31.4050   52.0010 C   0  0  0  0  0  0  0  0  0  0  0  0
   54.2650   30.6190   52.3030 C   0  0  0  0  0  0  0  0  0  0  0  0
   53.0030   31.0870   52.3150 C   0  0  0  0  0  0  0  0  0  0  0  0
   52.1050   31.1640   51.1540 C   0  0  0  0  0  0  0  0  0  0  0  0
   52.1090   30.2970   50.1230 N   0  0  0  0  0  0  0  0  0  0  0  0
   51.2390   30.8480   49.2490 C   0  0  0  0  0  0  0  0  0  0  0  0
   50.9550   30.3120   48.1470 O   0  0  0  0  0  0  0  0  0  0  0  0
   50.7070   32.0240   49.6440 N   0  0  0  0  0  0  0  0  0  0  0  0
   51.2790   32.2160   50.8440 C   0  0  0  0  0  0  0  0  0  0  0  0
   51.0540   33.3330   51.6370 O   0  0  0  0  0  0  0  0  0  0  0  0
  1  2  2  0
  2  3  1  0
  3  4  1  0
  4  5  1  0
  5  6  2  0
  5  7  1  0
  7  8  1  0
  8  9  1  0
  9 10  1  0
 10 11  1  0
 11 12  1  0
 12 13  1  0
 13 14  1  0
 14 15  2  0
 15 16  1  0
 16 17  2  0
 17 18  1  0
 18 19  2  0
 19 20  1  0
 20 21  1  0
 13 22  1  0
 22 23  1  0
  4 24  2  0
 24 25  1  0
 25 26  2  3
 26 27  1  0
 27 28  1  0
 28 29  1  0
 29 30  2  0
 29 31  1  0
 31 32  1  0
 32 33  1  0
 25  2  1  0
 32 27  2  0
 23 10  1  0
 19 14  1  0
M  CHG  3  28  -1  31  -1  33  -1
M  END
>  <UniqueID>  (2856) 
13

>  <SMILES>  (2856) 
C=c1oc(C(=O)NCCN2CCN(c3ccccc3OC)CC2)cc1=Cc1[n-]c(=O)[n-]c1[O-]

>  <Energy>  (2856) 
135.88392373281957

>  <Genealogy>  (2856) 
C=c1oc(C(=O)NCCN2CCN(c3ccccc3OC)CC2)cc1=Cc1[n-]c(=O)[n-]c1[O-] (protonated)
C=c1oc(C(=O)NCCN2CCN(c3ccccc3OC)CC2)cc1=Cc1[n-]c(=O)[n-]c1[O-] (3D coordinates assigned)
C=c1oc(C(=O)NCCN2CCN(c3ccccc3OC)CC2)cc1=Cc1[n-]c(=O)[n-]c1[O-] (nonaromatic ring conformer: 135.88392373281957 kcal/mol)

>  <smiles>  (2856) 
C=c1oc(C(=O)NCCN2CCN(c3ccccc3OC)CC2)cc1=Cc1[nH]c(=O)[nH]c1O

>  <score_type>  (2856) 
oracle

>  <origin>  (2856) 
adg

>  <m_score__min__energy>  (2856) 
-19.280000000000001

>  <m_primary>  (2856) 
energy

$$$$
16:0
     RDKit          3D

 28 30  0  0  0  0  0  0  0  0999 V2000
   58.8360   31.6440   45.0110 N   0  0  0  0  0  0  0  0  0  0  0  0
   57.4730   32.0660   45.0330 C   0  0  0  0  0  0  0  0  0  0  0  0
   56.5600   31.2330   44.7850 O   0  0  0  0  0  0  0  0  0  0  0  0
   57.1230   33.4730   45.4140 C   0  0  0  0  0  0  0  0  0  0  0  0
   58.3220   34.2750   45.6440 N   0  0  0  0  0  0  0  0  0  0  0  0
   59.1500   34.2710   46.8180 C   0  0  0  0  0  0  0  0  0  0  0  0
   59.2760   35.3390   47.4700 O   0  0  0  0  0  0  0  0  0  0  0  0
   59.8680   33.1090   47.2570 N   0  0  0  0  0  0  0  0  0  0  0  0
   61.2600   33.0390   47.5900 C   0  0  0  0  0  0  0  0  0  0  0  0
   61.8770   34.2000   48.0710 C   0  0  0  0  0  0  0  0  0  0  0  0
   63.2420   34.2130   48.3610 C   0  0  0  0  0  0  0  0  0  0  0  0
   64.0020   33.0580   48.1850 C   0  0  0  0  0  0  0  0  0  0  0  0
   63.3950   31.8800   47.7480 C   0  0  0  0  0  0  0  0  0  0  0  0
   62.0110   31.8370   47.4870 C   0  0  0  0  0  0  0  0  0  0  0  0
   61.3810   30.5210   47.0790 C   0  0  0  0  0  0  0  0  0  0  0  0
   60.4910   29.9980   48.1410 N   0  0  0  0  0  0  0  0  0  0  0  0
   59.0540   30.2400   47.8760 C   0  0  0  0  0  0  0  0  0  0  0  0
   58.4870   29.3300   46.7750 C   0  0  0  0  0  0  0  0  0  0  0  0
   58.8610   27.9350   47.0210 N   0  0  0  0  0  0  0  0  0  0  0  0
   57.9780   26.8760   46.6000 C   0  0  0  0  0  0  0  0  0  0  0  0
   58.4830   25.5840   46.3790 C   0  0  0  0  0  0  0  0  0  0  0  0
   57.6310   24.5530   45.9720 C   0  0  0  0  0  0  0  0  0  0  0  0
   56.2690   24.8040   45.7800 C   0  0  0  0  0  0  0  0  0  0  0  0
   55.7580   26.0870   45.9930 C   0  0  0  0  0  0  0  0  0  0  0  0
   54.4040   26.3350   45.8020 O   0  0  0  0  0  0  0  0  0  0  0  0
   56.6080   27.1210   46.4000 C   0  0  0  0  0  0  0  0  0  0  0  0
   60.2610   27.6420   47.3380 C   0  0  0  0  0  0  0  0  0  0  0  0
   60.7520   28.5770   48.4490 C   0  0  0  0  0  0  0  0  0  0  0  0
  1  2  1  0
  2  3  2  0
  2  4  1  0
  4  5  1  0
  5  6  1  0
  6  7  2  0
  6  8  1  0
  8  9  1  0
  9 10  2  0
 10 11  1  0
 11 12  2  0
 12 13  1  0
 13 14  2  0
 14 15  1  0
 15 16  1  0
 16 17  1  0
 17 18  1  0
 18 19  1  0
 19 20  1  0
 20 21  2  0
 21 22  1  0
 22 23  2  0
 23 24  1  0
 24 25  1  0
 24 26  2  0
 19 27  1  0
 27 28  1  0
 14  9  1  0
 28 16  1  0
 26 20  1  0
M  CHG  3   5  -1   8  -1  25  -1
M  END
>  <UniqueID>  (2857) 
17

>  <SMILES>  (2857) 
NC(=O)C[N-]C(=O)[N-]c1ccccc1CN1CCN(c2cccc([O-])c2)CC1

>  <Energy>  (2857) 
64.76976194061272

>  <Genealogy>  (2857) 
NC(=O)C[N-]C(=O)[N-]c1ccccc1CN1CCN(c2cccc([O-])c2)CC1 (protonated)
NC(=O)C[N-]C(=O)[N-]c1ccccc1CN1CCN(c2cccc([O-])c2)CC1 (3D coordinates assigned)
NC(=O)C[N-]C(=O)[N-]c1ccccc1CN1CCN(c2cccc([O-])c2)CC1 (nonaromatic ring conformer: 64.76976194061272 kcal/mol)

>  <smiles>  (2857) 
NC(=O)CNC(=O)Nc1ccccc1CN1CCN(c2cccc(O)c2)CC1

>  <score_type>  (2857) 
oracle

>  <origin>  (2857) 
adg

>  <m_score__min__energy>  (2857) 
-14.1

>  <m_primary>  (2857) 
energy

$$$$
19:0
     RDKit          3D

 31 34  0  0  0  0  0  0  0  0999 V2000
   55.4660   31.3800   51.9890 C   0  0  0  0  0  0  0  0  0  0  0  0
   54.9630   30.2570   52.5250 C   0  0  0  0  0  0  0  0  0  0  0  0
   53.6410   29.8010   52.4280 C   0  0  0  0  0  0  0  0  0  0  0  0
   52.6270   30.4000   51.7650 C   0  0  0  0  0  0  0  0  0  0  0  0
   51.7020   31.4070   52.3310 C   0  0  0  0  0  0  0  0  0  0  0  0
   51.4180   31.5800   53.6340 N   0  0  0  0  0  0  0  0  0  0  0  0
   50.5540   32.6180   53.6360 C   0  0  0  0  0  0  0  0  0  0  0  0
   50.0440   33.0730   54.6920 O   0  0  0  0  0  0  0  0  0  0  0  0
   50.2740   33.1240   52.4160 N   0  0  0  0  0  0  0  0  0  0  0  0
   51.0110   32.3480   51.6040 C   0  0  0  0  0  0  0  0  0  0  0  0
   51.0390   32.4900   50.2220 O   0  0  0  0  0  0  0  0  0  0  0  0
   53.5970   28.6020   53.1330 C   0  0  0  0  0  0  0  0  0  0  0  0
   54.8680   28.3790   53.6210 C   0  0  0  0  0  0  0  0  0  0  0  0
   55.2720   27.1940   54.4420 C   0  0  0  0  0  0  0  0  0  0  0  0
   55.6910   29.3880   53.2650 N   0  0  0  0  0  0  0  0  0  0  0  0
   57.0930   29.4870   53.5810 C   0  0  0  0  0  0  0  0  0  0  0  0
   57.4790   29.1460   54.7300 O   0  0  0  0  0  0  0  0  0  0  0  0
   58.0660   29.9500   52.6100 N   0  0  0  0  0  0  0  0  0  0  0  0
   58.5320   31.3250   52.8840 C   0  0  0  0  0  0  0  0  0  0  0  0
   59.4690   31.8300   51.7650 C   0  0  0  0  0  0  0  0  0  0  0  0
   60.3330   30.7690   51.1920 N   0  0  0  0  0  0  0  0  0  0  0  0
   59.9010   30.3330   49.8450 C   0  0  0  0  0  0  0  0  0  0  0  0
   59.8250   31.5240   48.9300 C   0  0  0  0  0  0  0  0  0  0  0  0
   61.0070   32.1480   48.4930 C   0  0  0  0  0  0  0  0  0  0  0  0
   60.9460   33.2710   47.6640 C   0  0  0  0  0  0  0  0  0  0  0  0
   59.7060   33.7870   47.2710 C   0  0  0  0  0  0  0  0  0  0  0  0
   59.6310   35.2000   46.2310 Cl  0  0  0  0  0  0  0  0  0  0  0  0
   58.5240   33.1780   47.7100 C   0  0  0  0  0  0  0  0  0  0  0  0
   58.5810   32.0520   48.5380 C   0  0  0  0  0  0  0  0  0  0  0  0
   60.5270   29.6400   52.1190 C   0  0  0  0  0  0  0  0  0  0  0  0
   59.1900   28.9830   52.5190 C   0  0  0  0  0  0  0  0  0  0  0  0
  1  2  2  0
  2  3  1  0
  3  4  2  0
  4  5  1  0
  5  6  1  0
  6  7  1  0
  7  8  2  0
  7  9  1  0
  9 10  1  0
 10 11  1  0
  3 12  1  0
 12 13  2  0
 13 14  1  0
 13 15  1  0
 15 16  1  0
 16 17  2  0
 16 18  1  0
 18 19  1  0
 19 20  1  0
 20 21  1  0
 21 22  1  0
 22 23  1  0
 23 24  2  0
 24 25  1  0
 25 26  2  0
 26 27  1  0
 26 28  1  0
 28 29  2  0
 21 30  1  0
 30 31  1  0
 15  2  1  0
 31 18  1  0
 10  5  2  0
 29 23  1  0
M  CHG  4   6  -1   9  -1  11  -1  18   1
M  END
>  <UniqueID>  (2858) 
20

>  <SMILES>  (2858) 
C=c1/c(=C/c2[n-]c(=O)[n-]c2[O-])cc(C)n1C(=O)[NH+]1CCN(Cc2ccc(Cl)cc2)CC1

>  <Energy>  (2858) 
139.7994721619739

>  <Genealogy>  (2858) 
C=c1c(=Cc2[n-]c(=O)[n-]c2[O-])cc(C)n1C(=O)[NH+]1CCN(Cc2ccc(Cl)cc2)CC1 (protonated)
C=c1/c(=C/c2[n-]c(=O)[n-]c2[O-])cc(C)n1C(=O)[NH+]1CCN(Cc2ccc(Cl)cc2)CC1 (cis-trans isomerization)
C=c1/c(=C/c2[n-]c(=O)[n-]c2[O-])cc(C)n1C(=O)[NH+]1CCN(Cc2ccc(Cl)cc2)CC1 (3D coordinates assigned)
C=c1/c(=C/c2[n-]c(=O)[n-]c2[O-])cc(C)n1C(=O)[NH+]1CCN(Cc2ccc(Cl)cc2)CC1 (nonaromatic ring conformer: 139.7994721619739 kcal/mol)

>  <smiles>  (2858) 
C=c1c(=Cc2[nH]c(=O)[nH]c2O)cc(C)n1C(=O)N1CCN(Cc2ccc(Cl)cc2)CC1

>  <score_type>  (2858) 
oracle

>  <origin>  (2858) 
adg

>  <m_score__min__energy>  (2858) 
-16.52

>  <m_primary>  (2858) 
energy

$$$$
55:0
     RDKit          3D

 34 37  0  0  0  0  0  0  0  0999 V2000
   57.0310   25.5460   47.4960 C   0  0  0  0  0  0  0  0  0  0  0  0
   57.4360   25.8840   46.2610 C   0  0  0  0  0  0  0  0  0  0  0  0
   57.1380   25.2000   45.0770 C   0  0  0  0  0  0  0  0  0  0  0  0
   56.3930   24.0860   44.9410 C   0  0  0  0  0  0  0  0  0  0  0  0
   54.9380   24.0310   45.1800 C   0  0  0  0  0  0  0  0  0  0  0  0
   54.1760   22.9720   44.8560 N   0  0  0  0  0  0  0  0  0  0  0  0
   52.9220   23.3840   45.1470 C   0  0  0  0  0  0  0  0  0  0  0  0
   51.9120   22.6500   44.9860 O   0  0  0  0  0  0  0  0  0  0  0  0
   52.8340   24.6490   45.6090 N   0  0  0  0  0  0  0  0  0  0  0  0
   54.1160   25.0500   45.6120 C   0  0  0  0  0  0  0  0  0  0  0  0
   54.5150   26.3380   45.9520 O   0  0  0  0  0  0  0  0  0  0  0  0
   57.7250   25.9270   44.0490 C   0  0  0  0  0  0  0  0  0  0  0  0
   58.3690   26.9970   44.6380 C   0  0  0  0  0  0  0  0  0  0  0  0
   59.1570   28.0290   43.8890 C   0  0  0  0  0  0  0  0  0  0  0  0
   58.1930   26.9760   45.9790 N   0  0  0  0  0  0  0  0  0  0  0  0
   58.7860   27.8930   46.9130 C   0  0  0  0  0  0  0  0  0  0  0  0
   59.7380   27.5110   47.6490 O   0  0  0  0  0  0  0  0  0  0  0  0
   58.2810   29.2330   47.0260 N   0  0  0  0  0  0  0  0  0  0  0  0
   59.0150   30.3040   47.6390 C   0  0  0  0  0  0  0  0  0  0  0  0
   59.2690   30.3090   49.0220 C   0  0  0  0  0  0  0  0  0  0  0  0
   59.9910   31.3560   49.6020 C   0  0  0  0  0  0  0  0  0  0  0  0
   60.4640   32.4150   48.8130 C   0  0  0  0  0  0  0  0  0  0  0  0
   61.2140   33.5280   49.4340 C   0  0  0  0  0  0  0  0  0  0  0  0
   60.6000   34.5900   49.7300 O   0  0  0  0  0  0  0  0  0  0  0  0
   62.6220   33.4170   49.7230 N   0  0  0  0  0  0  0  0  0  0  0  0
   63.5400   32.7920   48.7620 C   0  0  0  0  0  0  0  0  0  0  0  0
   64.6010   31.9530   49.4950 C   0  0  0  0  0  0  0  0  0  0  0  0
   65.0310   32.5430   50.7910 N   0  0  0  0  0  0  0  0  0  0  0  0
   66.4350   32.2270   51.1370 C   0  0  0  0  0  0  0  0  0  0  0  0
   67.4640   33.1760   50.4990 C   0  0  0  0  0  0  0  0  0  0  0  0
   64.6940   33.9690   50.9550 C   0  0  0  0  0  0  0  0  0  0  0  0
   63.1770   34.1470   50.8710 C   0  0  0  0  0  0  0  0  0  0  0  0
   60.2430   32.3880   47.4260 C   0  0  0  0  0  0  0  0  0  0  0  0
   59.5300   31.3360   46.8440 C   0  0  0  0  0  0  0  0  0  0  0  0
  1  2  2  0
  2  3  1  0
  3  4  2  0
  4  5  1  0
  5  6  1  0
  6  7  1  0
  7  8  2  0
  7  9  1  0
  9 10  1  0
 10 11  1  0
  3 12  1  0
 12 13  2  0
 13 14  1  0
 13 15  1  0
 15 16  1  0
 16 17  2  0
 16 18  1  0
 18 19  1  0
 19 20  2  0
 20 21  1  0
 21 22  2  0
 22 23  1  0
 23 24  2  0
 23 25  1  0
 25 26  1  0
 26 27  1  0
 27 28  1  0
 28 29  1  0
 29 30  1  0
 28 31  1  0
 31 32  1  0
 22 33  1  0
 33 34  2  0
 15  2  1  0
 34 19  1  0
 10  5  2  0
 32 25  1  0
M  CHG  3   6  -1   9  -1  11  -1
M  END
>  <UniqueID>  (2859) 
56

>  <SMILES>  (2859) 
C=c1/c(=C/c2[n-]c(=O)[n-]c2[O-])cc(C)n1C(=O)Nc1ccc(C(=O)N2CCN(CC)CC2)cc1

>  <Energy>  (2859) 
146.66376605470788

>  <Genealogy>  (2859) 
C=c1c(=Cc2[n-]c(=O)[n-]c2[O-])cc(C)n1C(=O)Nc1ccc(C(=O)N2CCN(CC)CC2)cc1 (protonated)
C=c1/c(=C/c2[n-]c(=O)[n-]c2[O-])cc(C)n1C(=O)Nc1ccc(C(=O)N2CCN(CC)CC2)cc1 (cis-trans isomerization)
C=c1/c(=C/c2[n-]c(=O)[n-]c2[O-])cc(C)n1C(=O)Nc1ccc(C(=O)N2CCN(CC)CC2)cc1 (3D coordinates assigned)
C=c1/c(=C/c2[n-]c(=O)[n-]c2[O-])cc(C)n1C(=O)Nc1ccc(C(=O)N2CCN(CC)CC2)cc1 (nonaromatic ring conformer: 146.66376605470788 kcal/mol)

>  <smiles>  (2859) 
C=c1c(=Cc2[nH]c(=O)[nH]c2O)cc(C)n1C(=O)Nc1ccc(C(=O)N2CCN(CC)CC2)cc1

>  <score_type>  (2859) 
oracle

>  <origin>  (2859) 
adg

>  <m_score__min__energy>  (2859) 
-16.43

>  <m_primary>  (2859) 
energy

$$$$
59:0
     RDKit          3D

 26 27  0  0  0  0  0  0  0  0999 V2000
   56.5740   28.3370   53.2590 C   0  0  0  0  0  0  0  0  0  0  0  0
   55.7540   29.2800   52.7880 C   0  0  0  0  0  0  0  0  0  0  0  0
   54.4140   29.1460   52.7820 N   0  0  0  0  0  0  0  0  0  0  0  0
   53.8970   30.3060   52.3260 C   0  0  0  0  0  0  0  0  0  0  0  0
   52.5720   30.5040   52.2000 C   0  0  0  0  0  0  0  0  0  0  0  0
   51.8570   30.8460   50.9520 C   0  0  0  0  0  0  0  0  0  0  0  0
   51.7880   30.0840   49.8460 N   0  0  0  0  0  0  0  0  0  0  0  0
   51.0530   30.8290   48.9930 C   0  0  0  0  0  0  0  0  0  0  0  0
   50.7640   30.4420   47.8310 O   0  0  0  0  0  0  0  0  0  0  0  0
   50.6520   32.0210   49.4840 N   0  0  0  0  0  0  0  0  0  0  0  0
   51.1700   32.0160   50.7210 C   0  0  0  0  0  0  0  0  0  0  0  0
   51.0240   33.0650   51.6200 O   0  0  0  0  0  0  0  0  0  0  0  0
   54.9240   31.1960   52.0310 C   0  0  0  0  0  0  0  0  0  0  0  0
   56.1080   30.5360   52.3100 C   0  0  0  0  0  0  0  0  0  0  0  0
   57.4510   31.1160   52.1120 C   0  0  0  0  0  0  0  0  0  0  0  0
   58.4180   30.6510   52.7750 O   0  0  0  0  0  0  0  0  0  0  0  0
   57.6870   32.2590   51.1640 C   0  0  0  0  0  0  0  0  0  0  0  0
   58.8630   31.9740   50.2700 C   0  0  0  0  0  0  0  0  0  0  0  0
   59.1370   30.7770   49.9900 O   0  0  0  0  0  0  0  0  0  0  0  0
   59.6570   33.0750   49.6730 C   0  0  0  0  0  0  0  0  0  0  0  0
   59.5820   34.2280   50.1810 O   0  0  0  0  0  0  0  0  0  0  0  0
   60.4530   32.8530   48.4780 N   0  0  0  0  0  0  0  0  0  0  0  0
   59.7050   33.2820   47.2700 C   0  0  0  0  0  0  0  0  0  0  0  0
   59.5710   34.8030   47.1080 C   0  0  0  0  0  0  0  0  0  0  0  0
   61.8010   33.4590   48.6190 C   0  0  0  0  0  0  0  0  0  0  0  0
   62.7580   33.0530   47.4930 C   0  0  0  0  0  0  0  0  0  0  0  0
  1  2  2  0
  2  3  1  0
  3  4  1  0
  4  5  2  3
  5  6  1  0
  6  7  1  0
  7  8  1  0
  8  9  2  0
  8 10  1  0
 10 11  1  0
 11 12  1  0
  4 13  1  0
 13 14  2  0
 14 15  1  0
 15 16  2  0
 15 17  1  0
 17 18  1  0
 18 19  2  0
 18 20  1  0
 20 21  2  0
 20 22  1  0
 22 23  1  0
 23 24  1  0
 22 25  1  0
 25 26  1  0
 14  2  1  0
 11  6  2  0
M  CHG  4   7  -1  10  -1  12  -1  22   1
M  END
>  <UniqueID>  (2860) 
60

>  <SMILES>  (2860) 
C=c1[nH]c(=Cc2[n-]c(=O)[n-]c2[O-])cc1C(=O)CC(=O)C(=O)[NH+](CC)CC

>  <Energy>  (2860) 
107.78611464441443

>  <Genealogy>  (2860) 
C=c1[nH]c(=Cc2[n-]c(=O)[n-]c2[O-])cc1C(=O)CC(=O)C(=O)[NH+](CC)CC (protonated)
C=c1[nH]c(=Cc2[n-]c(=O)[n-]c2[O-])cc1C(=O)CC(=O)C(=O)[NH+](CC)CC (3D coordinates assigned)
C=c1[nH]c(=Cc2[n-]c(=O)[n-]c2[O-])cc1C(=O)CC(=O)C(=O)[NH+](CC)CC (optimized conformer: 107.78611464441443 kcal/mol)

>  <smiles>  (2860) 
C=c1[nH]c(=Cc2[nH]c(=O)[nH]c2O)cc1C(=O)CC(=O)C(=O)N(CC)CC

>  <score_type>  (2860) 
oracle

>  <origin>  (2860) 
adg

>  <m_score__min__energy>  (2860) 
-14.74

>  <m_primary>  (2860) 
energy

$$$$
61:0
     RDKit          3D

 37 41  0  0  0  0  0  0  0  0999 V2000
   54.7890   29.4770   44.1820 N   0  0  0  0  0  0  0  0  0  0  0  0
   56.2360   30.3900   43.9490 S   0  0  0  0  0  0  0  0  0  0  0  0
   56.3100   30.8620   42.5240 O   0  0  0  0  0  0  0  0  0  0  0  0
   56.2180   31.5890   44.8550 O   0  0  0  0  0  0  0  0  0  0  0  0
   57.6320   29.3810   44.3110 C   0  0  0  0  0  0  0  0  0  0  0  0
   58.8950   29.9640   44.4710 C   0  0  0  0  0  0  0  0  0  0  0  0
   60.0060   29.1650   44.7580 C   0  0  0  0  0  0  0  0  0  0  0  0
   59.8620   27.7800   44.8800 C   0  0  0  0  0  0  0  0  0  0  0  0
   58.6050   27.1810   44.7020 C   0  0  0  0  0  0  0  0  0  0  0  0
   58.4520   25.7130   44.8400 C   0  0  0  0  0  0  0  0  0  0  0  0
   57.4480   25.0760   44.0910 C   0  0  0  0  0  0  0  0  0  0  0  0
   57.3040   23.6890   44.1320 C   0  0  0  0  0  0  0  0  0  0  0  0
   58.1560   22.9200   44.9200 C   0  0  0  0  0  0  0  0  0  0  0  0
   59.1510   23.5350   45.6810 C   0  0  0  0  0  0  0  0  0  0  0  0
   59.3140   24.9330   45.6580 C   0  0  0  0  0  0  0  0  0  0  0  0
   60.3420   25.5470   46.5400 C   0  0  0  0  0  0  0  0  0  0  0  0
   61.4810   25.8140   46.0740 O   0  0  0  0  0  0  0  0  0  0  0  0
   60.0360   25.9770   47.8770 N   0  0  0  0  0  0  0  0  0  0  0  0
   59.7980   27.1880   48.2990 C   0  0  0  0  0  0  0  0  0  0  0  0
   60.5340   27.7950   49.3350 C   0  0  0  0  0  0  0  0  0  0  0  0
   60.2320   29.1010   49.7220 C   0  0  0  0  0  0  0  0  0  0  0  0
   59.2000   29.8050   49.0880 C   0  0  0  0  0  0  0  0  0  0  0  0
   58.8850   31.1980   49.4800 C   0  0  0  0  0  0  0  0  0  0  0  0
   58.1850   31.4050   50.5090 O   0  0  0  0  0  0  0  0  0  0  0  0
   59.3750   32.3190   48.7250 N   0  0  0  0  0  0  0  0  0  0  0  0
   59.2110   32.3760   47.2710 C   0  0  0  0  0  0  0  0  0  0  0  0
   60.4770   32.9620   46.6280 C   0  0  0  0  0  0  0  0  0  0  0  0
   61.0190   34.1710   47.3150 N   0  0  0  0  0  0  0  0  0  0  0  0
   62.4360   33.9900   47.7150 C   0  0  0  0  0  0  0  0  0  0  0  0
   62.7300   32.5930   48.2720 C   0  0  0  0  0  0  0  0  0  0  0  0
   63.6830   32.3250   47.1200 C   0  0  0  0  0  0  0  0  0  0  0  0
   63.3640   33.6910   46.5350 C   0  0  0  0  0  0  0  0  0  0  0  0
   60.1830   34.6410   48.4480 C   0  0  0  0  0  0  0  0  0  0  0  0
   59.8420   33.5140   49.4330 C   0  0  0  0  0  0  0  0  0  0  0  0
   58.5090   29.1770   48.0430 C   0  0  0  0  0  0  0  0  0  0  0  0
   58.8220   27.9060   47.6800 N   0  0  0  0  0  0  0  0  0  0  0  0
   57.4900   27.9900   44.4240 C   0  0  0  0  0  0  0  0  0  0  0  0
  1  2  1  0
  2  3  2  0
  2  4  2  0
  2  5  1  0
  5  6  2  0
  6  7  1  0
  7  8  2  0
  8  9  1  0
  9 10  1  0
 10 11  2  0
 11 12  1  0
 12 13  2  0
 13 14  1  0
 14 15  2  0
 15 16  1  0
 16 17  2  0
 16 18  1  0
 18 19  2  3
 19 20  1  0
 20 21  2  0
 21 22  1  0
 22 23  1  0
 23 24  2  0
 23 25  1  0
 25 26  1  0
 26 27  1  0
 27 28  1  0
 28 29  1  0
 29 30  1  0
 30 31  1  0
 31 32  1  0
 28 33  1  0
 33 34  1  0
 22 35  2  0
 35 36  1  0
  9 37  2  0
 37  5  1  0
 15 10  1  0
 36 19  1  0
 34 25  1  0
 32 29  1  0
M  CHG  2   1  -1  36  -1
M  END
>  <UniqueID>  (2861) 
62

>  <SMILES>  (2861) 
[NH-]S(=O)(=O)c1cccc(-c2ccccc2C(=O)N=c2ccc(C(=O)N3CCN(C4CCC4)CC3)c[n-]2)c1

>  <Energy>  (2861) 
160.81501603760773

>  <Genealogy>  (2861) 
[NH-]S(=O)(=O)c1cccc(-c2ccccc2C(=O)N=c2ccc(C(=O)N3CCN(C4CCC4)CC3)c[n-]2)c1 (protonated)
[NH-]S(=O)(=O)c1cccc(-c2ccccc2C(=O)N=c2ccc(C(=O)N3CCN(C4CCC4)CC3)c[n-]2)c1 (3D coordinates assigned)
[NH-]S(=O)(=O)c1cccc(-c2ccccc2C(=O)N=c2ccc(C(=O)N3CCN(C4CCC4)CC3)c[n-]2)c1 (nonaromatic ring conformer: 160.81501603760773 kcal/mol)

>  <smiles>  (2861) 
NS(=O)(=O)c1cccc(-c2ccccc2C(=O)N=c2ccc(C(=O)N3CCN(C4CCC4)CC3)c[nH]2)c1

>  <score_type>  (2861) 
oracle

>  <origin>  (2861) 
adg

>  <m_score__min__energy>  (2861) 
-14.01

>  <m_primary>  (2861) 
energy

$$$$
1:0
     RDKit          3D

 25 27  0  0  0  0  0  0  0  0999 V2000
   56.6390   30.1530   42.8660 C   0  0  0  0  0  0  0  0  0  0  0  0
   57.2350   30.5750   43.9870 C   0  0  0  0  0  0  0  0  0  0  0  0
   57.1050   31.8470   44.4200 N   0  0  0  0  0  0  0  0  0  0  0  0
   57.7060   31.9320   45.6190 C   0  0  0  0  0  0  0  0  0  0  0  0
   57.7780   33.2030   46.4070 C   0  0  0  0  0  0  0  0  0  0  0  0
   58.2290   30.6990   45.9800 C   0  0  0  0  0  0  0  0  0  0  0  0
   58.9960   30.4050   47.2070 C   0  0  0  0  0  0  0  0  0  0  0  0
   58.4910   29.6310   48.0650 O   0  0  0  0  0  0  0  0  0  0  0  0
   60.2910   30.9920   47.4430 N   0  0  0  0  0  0  0  0  0  0  0  0
   61.3010   30.2630   48.2190 C   0  0  0  0  0  0  0  0  0  0  0  0
   62.1660   31.2510   49.0070 C   0  0  0  0  0  0  0  0  0  0  0  0
   62.6810   32.2590   48.1570 O   0  0  0  0  0  0  0  0  0  0  0  0
   61.6180   33.0430   47.6490 C   0  0  0  0  0  0  0  0  0  0  0  0
   60.7130   32.2080   46.7400 C   0  0  0  0  0  0  0  0  0  0  0  0
   57.9700   29.8250   44.9240 C   0  0  0  0  0  0  0  0  0  0  0  0
   58.3630   28.5330   44.8950 C   0  0  0  0  0  0  0  0  0  0  0  0
   57.6210   27.3970   45.4740 C   0  0  0  0  0  0  0  0  0  0  0  0
   56.2280   27.4620   45.6180 C   0  0  0  0  0  0  0  0  0  0  0  0
   55.5210   28.5710   45.1700 O   0  0  0  0  0  0  0  0  0  0  0  0
   55.5580   26.4300   46.1920 N   0  0  0  0  0  0  0  0  0  0  0  0
   56.2160   25.3340   46.6500 C   0  0  0  0  0  0  0  0  0  0  0  0
   55.5720   24.3880   47.1740 O   0  0  0  0  0  0  0  0  0  0  0  0
   57.5670   25.2590   46.5460 N   0  0  0  0  0  0  0  0  0  0  0  0
   58.2840   26.2650   45.9800 C   0  0  0  0  0  0  0  0  0  0  0  0
   59.5390   26.1720   45.9210 O   0  0  0  0  0  0  0  0  0  0  0  0
  1  2  2  0
  2  3  1  0
  3  4  1  0
  4  5  1  0
  4  6  2  0
  6  7  1  0
  7  8  2  0
  7  9  1  0
  9 10  1  0
 10 11  1  0
 11 12  1  0
 12 13  1  0
 13 14  1  0
  6 15  1  0
 15 16  2  3
 16 17  1  0
 17 18  2  0
 18 19  1  0
 18 20  1  0
 20 21  1  0
 21 22  2  0
 21 23  1  0
 23 24  1  0
 24 25  2  0
 15  2  1  0
 24 17  1  0
 14  9  1  0
M  CHG  3  19  -1  20  -1  23  -1
M  END
>  <UniqueID>  (2862) 
2

>  <SMILES>  (2862) 
C=c1[nH]c(C)c(C(=O)N2CCOCC2)c1=Cc1c([O-])[n-]c(=O)[n-]c1=O

>  <Energy>  (2862) 
90.53116175588235

>  <Genealogy>  (2862) 
C=c1[nH]c(C)c(C(=O)N2CCOCC2)c1=Cc1c([O-])[n-]c(=O)[n-]c1=O (protonated)
C=c1[nH]c(C)c(C(=O)N2CCOCC2)c1=Cc1c([O-])[n-]c(=O)[n-]c1=O (3D coordinates assigned)
C=c1[nH]c(C)c(C(=O)N2CCOCC2)c1=Cc1c([O-])[n-]c(=O)[n-]c1=O (nonaromatic ring conformer: 90.53116175588235 kcal/mol)

>  <smiles>  (2862) 
C=c1[nH]c(C)c(C(=O)N2CCOCC2)c1=Cc1c(O)[nH]c(=O)[nH]c1=O

>  <score_type>  (2862) 
oracle

>  <origin>  (2862) 
adg

>  <m_score__min__energy>  (2862) 
-14.789999999999999

>  <m_primary>  (2862) 
energy

$$$$
28:0
     RDKit          3D

 32 35  0  0  0  0  0  0  0  0999 V2000
   60.3440   29.3480   46.8770 C   0  0  0  0  0  0  0  0  0  0  0  0
   59.2830   29.6960   46.1320 C   0  0  0  0  0  0  0  0  0  0  0  0
   58.5020   28.8380   45.3410 C   0  0  0  0  0  0  0  0  0  0  0  0
   58.4070   27.4960   45.3400 C   0  0  0  0  0  0  0  0  0  0  0  0
   57.1830   26.7310   45.6490 C   0  0  0  0  0  0  0  0  0  0  0  0
   57.1700   25.4970   46.1900 N   0  0  0  0  0  0  0  0  0  0  0  0
   55.8610   25.2870   46.4520 C   0  0  0  0  0  0  0  0  0  0  0  0
   55.4370   24.2200   46.9740 O   0  0  0  0  0  0  0  0  0  0  0  0
   55.0450   26.3150   46.1390 N   0  0  0  0  0  0  0  0  0  0  0  0
   55.9010   27.2270   45.6470 C   0  0  0  0  0  0  0  0  0  0  0  0
   55.5250   28.4960   45.2220 O   0  0  0  0  0  0  0  0  0  0  0  0
   57.7510   29.6500   44.5120 C   0  0  0  0  0  0  0  0  0  0  0  0
   58.0070   30.9520   44.8910 C   0  0  0  0  0  0  0  0  0  0  0  0
   57.3780   32.1540   44.2510 C   0  0  0  0  0  0  0  0  0  0  0  0
   58.9420   30.9860   45.8730 N   0  0  0  0  0  0  0  0  0  0  0  0
   59.4820   32.1690   46.4940 C   0  0  0  0  0  0  0  0  0  0  0  0
   60.8700   32.3110   46.6470 C   0  0  0  0  0  0  0  0  0  0  0  0
   61.4030   33.4100   47.3360 C   0  0  0  0  0  0  0  0  0  0  0  0
   62.8600   33.5970   47.4030 C   0  0  0  0  0  0  0  0  0  0  0  0
   63.3530   34.4970   46.6680 O   0  0  0  0  0  0  0  0  0  0  0  0
   63.6860   32.8870   48.3780 N   0  0  0  0  0  0  0  0  0  0  0  0
   63.0770   31.6020   48.7990 C   0  0  0  0  0  0  0  0  0  0  0  0
   61.8250   31.8200   49.6610 C   0  0  0  0  0  0  0  0  0  0  0  0
   62.1610   32.6220   50.8560 N   0  0  0  0  0  0  0  0  0  0  0  0
   60.9650   32.8250   51.7060 C   0  0  0  0  0  0  0  0  0  0  0  0
   59.8330   33.4550   50.8920 C   0  0  0  0  0  0  0  0  0  0  0  0
   62.7530   33.9170   50.4600 C   0  0  0  0  0  0  0  0  0  0  0  0
   63.9950   33.7030   49.5810 C   0  0  0  0  0  0  0  0  0  0  0  0
   60.5440   34.3910   47.8490 C   0  0  0  0  0  0  0  0  0  0  0  0
   59.1620   34.2760   47.6650 C   0  0  0  0  0  0  0  0  0  0  0  0
   58.6300   33.1730   46.9880 C   0  0  0  0  0  0  0  0  0  0  0  0
   57.2890   33.1070   46.7790 F   0  0  0  0  0  0  0  0  0  0  0  0
  1  2  2  0
  2  3  1  0
  3  4  2  3
  4  5  1  0
  5  6  1  0
  6  7  1  0
  7  8  2  0
  7  9  1  0
  9 10  1  0
 10 11  1  0
  3 12  1  0
 12 13  2  0
 13 14  1  0
 13 15  1  0
 15 16  1  0
 16 17  2  0
 17 18  1  0
 18 19  1  0
 19 20  2  0
 19 21  1  0
 21 22  1  0
 22 23  1  0
 23 24  1  0
 24 25  1  0
 25 26  1  0
 24 27  1  0
 27 28  1  0
 18 29  2  0
 29 30  1  0
 30 31  2  0
 31 32  1  0
 15  2  1  0
 31 16  1  0
 10  5  2  0
 28 21  1  0
M  CHG  4   6  -1   9  -1  11  -1  21   1
M  END
>  <UniqueID>  (2863) 
27

>  <SMILES>  (2863) 
C=c1c(=Cc2[n-]c(=O)[n-]c2[O-])cc(C)n1-c1cc(C(=O)[NH+]2CCN(CC)CC2)ccc1F

>  <Energy>  (2863) 
150.637452239156

>  <Genealogy>  (2863) 
C=c1c(=Cc2[n-]c(=O)[n-]c2[O-])cc(C)n1-c1cc(C(=O)[NH+]2CCN(CC)CC2)ccc1F (protonated)
C=c1c(=Cc2[n-]c(=O)[n-]c2[O-])cc(C)n1-c1cc(C(=O)[NH+]2CCN(CC)CC2)ccc1F (3D coordinates assigned)
C=c1c(=Cc2[n-]c(=O)[n-]c2[O-])cc(C)n1-c1cc(C(=O)[NH+]2CCN(CC)CC2)ccc1F (nonaromatic ring conformer: 150.637452239156 kcal/mol)

>  <smiles>  (2863) 
C=c1c(=Cc2[nH]c(=O)[nH]c2O)cc(C)n1-c1cc(C(=O)N2CCN(CC)CC2)ccc1F

>  <score_type>  (2863) 
oracle

>  <origin>  (2863) 
adg

>  <m_score__min__energy>  (2863) 
-15.630000000000001

>  <m_primary>  (2863) 
energy

$$$$
36:0
     RDKit          3D

 34 37  0  0  0  0  0  0  0  0999 V2000
   59.1130   28.6780   47.1440 C   0  0  0  0  0  0  0  0  0  0  0  0
   58.4350   29.0520   46.0470 C   0  0  0  0  0  0  0  0  0  0  0  0
   57.7740   28.2150   45.1350 C   0  0  0  0  0  0  0  0  0  0  0  0
   57.8230   26.8790   44.9670 C   0  0  0  0  0  0  0  0  0  0  0  0
   57.2780   25.8810   45.9010 C   0  0  0  0  0  0  0  0  0  0  0  0
   57.9480   24.8060   46.3520 N   0  0  0  0  0  0  0  0  0  0  0  0
   57.0160   24.1340   47.0630 C   0  0  0  0  0  0  0  0  0  0  0  0
   57.2670   23.0580   47.6640 O   0  0  0  0  0  0  0  0  0  0  0  0
   55.7920   24.7030   47.0710 N   0  0  0  0  0  0  0  0  0  0  0  0
   55.9720   25.8000   46.3190 C   0  0  0  0  0  0  0  0  0  0  0  0
   54.9660   26.7120   46.0180 O   0  0  0  0  0  0  0  0  0  0  0  0
   56.9970   29.0430   44.3400 C   0  0  0  0  0  0  0  0  0  0  0  0
   57.2640   30.3390   44.7320 C   0  0  0  0  0  0  0  0  0  0  0  0
   56.6470   31.5580   44.1170 C   0  0  0  0  0  0  0  0  0  0  0  0
   58.1360   30.3470   45.7660 N   0  0  0  0  0  0  0  0  0  0  0  0
   58.6120   31.5160   46.4550 C   0  0  0  0  0  0  0  0  0  0  0  0
   59.1120   32.6060   45.7290 C   0  0  0  0  0  0  0  0  0  0  0  0
   59.6020   33.7300   46.3970 C   0  0  0  0  0  0  0  0  0  0  0  0
   59.5830   33.7780   47.7940 C   0  0  0  0  0  0  0  0  0  0  0  0
   59.0520   32.7080   48.5310 C   0  0  0  0  0  0  0  0  0  0  0  0
   59.0640   32.7120   49.9630 N   0  0  0  0  0  0  0  0  0  0  0  0
   59.6480   33.7160   50.8040 C   0  0  0  0  0  0  0  0  0  0  0  0
   58.8960   34.6120   51.2700 O   0  0  0  0  0  0  0  0  0  0  0  0
   61.1440   33.7810   51.0140 C   0  0  0  0  0  0  0  0  0  0  0  0
   61.9700   34.1810   49.7690 C   0  0  0  0  0  0  0  0  0  0  0  0
   62.9170   33.1510   49.2800 N   0  0  0  0  0  0  0  0  0  0  0  0
   63.5400   32.2710   50.2880 C   0  0  0  0  0  0  0  0  0  0  0  0
   63.0360   30.8190   50.2120 C   0  0  0  0  0  0  0  0  0  0  0  0
   61.7310   30.7570   49.5310 N   0  0  0  0  0  0  0  0  0  0  0  0
   61.1560   29.3950   49.6040 C   0  0  0  0  0  0  0  0  0  0  0  0
   59.8340   29.3970   50.3710 C   0  0  0  0  0  0  0  0  0  0  0  0
   61.8970   31.1600   48.1200 C   0  0  0  0  0  0  0  0  0  0  0  0
   62.6140   32.5220   47.9810 C   0  0  0  0  0  0  0  0  0  0  0  0
   58.5940   31.5690   47.8580 C   0  0  0  0  0  0  0  0  0  0  0  0
  1  2  2  0
  2  3  1  0
  3  4  2  3
  4  5  1  0
  5  6  1  0
  6  7  1  0
  7  8  2  0
  7  9  1  0
  9 10  1  0
 10 11  1  0
  3 12  1  0
 12 13  2  0
 13 14  1  0
 13 15  1  0
 15 16  1  0
 16 17  2  0
 17 18  1  0
 18 19  2  0
 19 20  1  0
 20 21  1  0
 21 22  1  0
 22 23  2  0
 22 24  1  0
 24 25  1  0
 25 26  1  0
 26 27  1  0
 27 28  1  0
 28 29  1  0
 29 30  1  0
 30 31  1  0
 29 32  1  0
 32 33  1  0
 20 34  2  0
 15  2  1  0
 34 16  1  0
 10  5  2  0
 33 26  1  0
M  CHG  3   6  -1   9  -1  21  -1
M  END
>  <UniqueID>  (2864) 
34

>  <SMILES>  (2864) 
C=c1c(=Cc2[n-]c(=O)[n-]c2O)cc(C)n1-c1cccc([N-]C(=O)CCN2CCN(CC)CC2)c1

>  <Energy>  (2864) 
159.93524779262262

>  <Genealogy>  (2864) 
C=c1c(=Cc2[n-]c(=O)[n-]c2O)cc(C)n1-c1cccc([N-]C(=O)CCN2CCN(CC)CC2)c1 (protonated)
C=c1c(=Cc2[n-]c(=O)[n-]c2O)cc(C)n1-c1cccc([N-]C(=O)CCN2CCN(CC)CC2)c1 (3D coordinates assigned)
C=c1c(=Cc2[n-]c(=O)[n-]c2O)cc(C)n1-c1cccc([N-]C(=O)CCN2CCN(CC)CC2)c1 (nonaromatic ring conformer: 159.93524779262262 kcal/mol)

>  <smiles>  (2864) 
C=c1c(=Cc2[nH]c(=O)[nH]c2O)cc(C)n1-c1cccc(NC(=O)CCN2CCN(CC)CC2)c1

>  <score_type>  (2864) 
oracle

>  <origin>  (2864) 
adg

>  <m_score__min__energy>  (2864) 
-14.789999999999999

>  <m_primary>  (2864) 
energy

$$$$
51:0
     RDKit          3D

 26 27  0  0  0  0  0  0  0  0999 V2000
   55.1390   29.3740   44.8410 O   0  0  0  0  0  0  0  0  0  0  0  0
   56.3600   29.0720   44.9020 C   0  0  0  0  0  0  0  0  0  0  0  0
   57.3980   30.0950   44.5670 C   0  0  0  0  0  0  0  0  0  0  0  0
   56.9140   31.4290   44.9060 N   0  0  0  0  0  0  0  0  0  0  0  0
   57.6140   32.6300   44.5670 C   0  0  0  0  0  0  0  0  0  0  0  0
   58.4480   32.6320   43.6210 O   0  0  0  0  0  0  0  0  0  0  0  0
   57.3440   33.8700   45.3150 C   0  0  0  0  0  0  0  0  0  0  0  0
   56.6410   34.7700   44.7840 O   0  0  0  0  0  0  0  0  0  0  0  0
   57.9020   34.1040   46.6160 N   0  0  0  0  0  0  0  0  0  0  0  0
   59.2670   33.8730   46.9910 C   0  0  0  0  0  0  0  0  0  0  0  0
   60.2750   34.0340   46.0320 C   0  0  0  0  0  0  0  0  0  0  0  0
   61.6160   33.8290   46.3750 C   0  0  0  0  0  0  0  0  0  0  0  0
   61.9590   33.4810   47.6850 C   0  0  0  0  0  0  0  0  0  0  0  0
   63.7880   33.2000   48.1550 Br  0  0  0  0  0  0  0  0  0  0  0  0
   60.9620   33.3470   48.6550 C   0  0  0  0  0  0  0  0  0  0  0  0
   59.6200   33.5520   48.3130 C   0  0  0  0  0  0  0  0  0  0  0  0
   56.7630   27.7430   45.2480 N   0  0  0  0  0  0  0  0  0  0  0  0
   57.5640   27.4320   46.4270 C   0  0  0  0  0  0  0  0  0  0  0  0
   57.1780   26.0580   46.9780 C   0  0  0  0  0  0  0  0  0  0  0  0
   55.9380   25.5810   46.3640 N   0  0  0  0  0  0  0  0  0  0  0  0
   55.7770   24.5060   45.6420 C   0  0  0  0  0  0  0  0  0  0  0  0
   54.9550   23.4330   46.0430 C   0  0  0  0  0  0  0  0  0  0  0  0
   54.8290   22.3140   45.2150 C   0  0  0  0  0  0  0  0  0  0  0  0
   55.4940   22.2620   44.0310 N   0  0  0  0  0  0  0  0  0  0  0  0
   56.2910   23.2820   43.6170 C   0  0  0  0  0  0  0  0  0  0  0  0
   56.4450   24.4190   44.4140 C   0  0  0  0  0  0  0  0  0  0  0  0
  1  2  2  0
  2  3  1  0
  3  4  1  0
  4  5  1  0
  5  6  2  0
  5  7  1  0
  7  8  2  0
  7  9  1  0
  9 10  1  0
 10 11  2  0
 11 12  1  0
 12 13  2  0
 13 14  1  0
 13 15  1  0
 15 16  2  0
  2 17  1  0
 17 18  1  0
 18 19  1  0
 19 20  1  0
 20 21  2  3
 21 22  1  0
 22 23  2  0
 23 24  1  0
 24 25  1  0
 25 26  2  0
 16 10  1  0
 26 21  1  0
M  CHG  4   4  -1   9  -1  17  -1  24  -1
M  END
>  <UniqueID>  (2865) 
49

>  <SMILES>  (2865) 
O=C(C[N-]C(=O)C(=O)[N-]c1ccc(Br)cc1)[N-]CCN=c1cc[n-]cc1

>  <Energy>  (2865) 
38.73867334230478

>  <Genealogy>  (2865) 
O=C(C[N-]C(=O)C(=O)[N-]c1ccc(Br)cc1)[N-]CCN=c1cc[n-]cc1 (protonated)
O=C(C[N-]C(=O)C(=O)[N-]c1ccc(Br)cc1)[N-]CCN=c1cc[n-]cc1 (3D coordinates assigned)
O=C(C[N-]C(=O)C(=O)[N-]c1ccc(Br)cc1)[N-]CCN=c1cc[n-]cc1 (optimized conformer: 38.73867334230478 kcal/mol)

>  <smiles>  (2865) 
O=C(CNC(=O)C(=O)Nc1ccc(Br)cc1)NCCN=c1cc[nH]cc1

>  <score_type>  (2865) 
oracle

>  <origin>  (2865) 
adg

>  <m_score__min__energy>  (2865) 
-14.35

>  <m_primary>  (2865) 
energy

$$$$
57:0
     RDKit          3D

 28 30  0  0  0  0  0  0  0  0999 V2000
   58.2750   27.1270   43.3190 C   0  0  0  0  0  0  0  0  0  0  0  0
   58.4270   27.1350   44.6570 C   0  0  0  0  0  0  0  0  0  0  0  0
   58.0620   26.0940   45.5150 C   0  0  0  0  0  0  0  0  0  0  0  0
   57.5700   24.8840   45.1780 C   0  0  0  0  0  0  0  0  0  0  0  0
   56.1760   24.4650   45.4120 C   0  0  0  0  0  0  0  0  0  0  0  0
   55.7320   23.2180   45.1840 N   0  0  0  0  0  0  0  0  0  0  0  0
   54.4100   23.3010   45.4460 C   0  0  0  0  0  0  0  0  0  0  0  0
   53.6370   22.3120   45.3550 O   0  0  0  0  0  0  0  0  0  0  0  0
   53.9790   24.5300   45.8010 N   0  0  0  0  0  0  0  0  0  0  0  0
   55.1060   25.2610   45.7620 C   0  0  0  0  0  0  0  0  0  0  0  0
   55.1480   26.6300   46.0000 O   0  0  0  0  0  0  0  0  0  0  0  0
   58.3530   26.5250   46.7960 C   0  0  0  0  0  0  0  0  0  0  0  0
   58.8630   27.8020   46.6850 C   0  0  0  0  0  0  0  0  0  0  0  0
   59.2310   28.6250   47.8600 C   0  0  0  0  0  0  0  0  0  0  0  0
   60.1290   28.2400   48.6550 O   0  0  0  0  0  0  0  0  0  0  0  0
   58.6170   29.9070   48.0360 N   0  0  0  0  0  0  0  0  0  0  0  0
   59.2220   31.1830   47.7770 C   0  0  0  0  0  0  0  0  0  0  0  0
   60.5730   31.2230   47.4050 C   0  0  0  0  0  0  0  0  0  0  0  0
   61.1930   32.4440   47.1230 C   0  0  0  0  0  0  0  0  0  0  0  0
   60.4620   33.6320   47.1940 C   0  0  0  0  0  0  0  0  0  0  0  0
   59.1090   33.6000   47.5390 C   0  0  0  0  0  0  0  0  0  0  0  0
   58.4850   32.3810   47.8230 C   0  0  0  0  0  0  0  0  0  0  0  0
   58.9420   28.1730   45.3790 N   0  0  0  0  0  0  0  0  0  0  0  0
   59.4880   29.4470   44.8680 C   0  0  0  0  0  0  0  0  0  0  0  0
   58.4470   30.2730   44.0710 C   0  0  0  0  0  0  0  0  0  0  0  0
   57.2280   30.6660   44.8140 N   0  0  0  0  0  0  0  0  0  0  0  0
   56.0170   29.9440   44.3950 C   0  0  0  0  0  0  0  0  0  0  0  0
   57.0090   32.1180   44.8790 C   0  0  0  0  0  0  0  0  0  0  0  0
  1  2  2  0
  2  3  1  0
  3  4  2  3
  4  5  1  0
  5  6  1  0
  6  7  1  0
  7  8  2  0
  7  9  1  0
  9 10  1  0
 10 11  1  0
  3 12  1  0
 12 13  2  0
 13 14  1  0
 14 15  2  0
 14 16  1  0
 16 17  1  0
 17 18  2  0
 18 19  1  0
 19 20  2  0
 20 21  1  0
 21 22  2  0
 13 23  1  0
 23 24  1  0
 24 25  1  0
 25 26  1  0
 26 27  1  0
 26 28  1  0
 23  2  1  0
 10  5  2  0
 22 17  1  0
M  CHG  3   6  -1   9  -1  16  -1
M  END
>  <UniqueID>  (2866) 
55

>  <SMILES>  (2866) 
C=c1c(=Cc2[n-]c(=O)[n-]c2O)cc(C(=O)[N-]c2ccccc2)n1CCN(C)C

>  <Energy>  (2866) 
124.91774453857515

>  <Genealogy>  (2866) 
C=c1c(=Cc2[n-]c(=O)[n-]c2O)cc(C(=O)[N-]c2ccccc2)n1CCN(C)C (protonated)
C=c1c(=Cc2[n-]c(=O)[n-]c2O)cc(C(=O)[N-]c2ccccc2)n1CCN(C)C (3D coordinates assigned)
C=c1c(=Cc2[n-]c(=O)[n-]c2O)cc(C(=O)[N-]c2ccccc2)n1CCN(C)C (optimized conformer: 124.91774453857515 kcal/mol)

>  <smiles>  (2866) 
C=c1c(=Cc2[nH]c(=O)[nH]c2O)cc(C(=O)Nc2ccccc2)n1CCN(C)C

>  <score_type>  (2866) 
oracle

>  <origin>  (2866) 
adg

>  <m_score__min__energy>  (2866) 
-14.119999999999999

>  <m_primary>  (2866) 
energy

$$$$
63:0
     RDKit          3D

 34 38  0  0  0  0  0  0  0  0999 V2000
   60.4800   26.3550   46.4160 C   0  0  0  0  0  0  0  0  0  0  0  0
   59.3760   27.0150   46.0610 C   0  0  0  0  0  0  0  0  0  0  0  0
   59.4350   28.1550   45.4110 O   0  0  0  0  0  0  0  0  0  0  0  0
   58.2240   28.6510   45.2870 C   0  0  0  0  0  0  0  0  0  0  0  0
   57.9350   29.9360   44.6080 C   0  0  0  0  0  0  0  0  0  0  0  0
   57.2840   29.9790   43.3610 C   0  0  0  0  0  0  0  0  0  0  0  0
   57.0210   31.2030   42.7440 C   0  0  0  0  0  0  0  0  0  0  0  0
   57.4040   32.3970   43.3570 C   0  0  0  0  0  0  0  0  0  0  0  0
   58.0690   32.3790   44.5940 C   0  0  0  0  0  0  0  0  0  0  0  0
   58.4700   33.6430   45.2530 C   0  0  0  0  0  0  0  0  0  0  0  0
   58.2910   34.7410   44.6580 O   0  0  0  0  0  0  0  0  0  0  0  0
   59.0740   33.6440   46.5570 N   0  0  0  0  0  0  0  0  0  0  0  0
   60.3330   34.3630   46.7740 C   0  0  0  0  0  0  0  0  0  0  0  0
   60.5630   34.6470   48.2670 C   0  0  0  0  0  0  0  0  0  0  0  0
   60.3950   33.4470   49.1290 N   0  0  0  0  0  0  0  0  0  0  0  0
   61.6460   32.8330   49.6470 C   0  0  0  0  0  0  0  0  0  0  0  0
   62.8800   33.3200   48.8530 C   0  0  0  0  0  0  0  0  0  0  0  0
   64.0560   32.3380   48.9910 C   0  0  0  0  0  0  0  0  0  0  0  0
   64.0060   31.6760   50.2410 O   0  0  0  0  0  0  0  0  0  0  0  0
   62.9410   30.7350   50.2650 C   0  0  0  0  0  0  0  0  0  0  0  0
   61.6060   31.2890   49.7080 C   0  0  0  0  0  0  0  0  0  0  0  0
   59.4250   32.4340   48.6450 C   0  0  0  0  0  0  0  0  0  0  0  0
   58.3850   33.0290   47.6950 C   0  0  0  0  0  0  0  0  0  0  0  0
   58.3210   31.1440   45.2170 C   0  0  0  0  0  0  0  0  0  0  0  0
   57.3110   27.7970   45.8850 C   0  0  0  0  0  0  0  0  0  0  0  0
   58.0390   26.7170   46.3540 C   0  0  0  0  0  0  0  0  0  0  0  0
   57.4760   25.6460   46.9430 C   0  0  0  0  0  0  0  0  0  0  0  0
   56.3510   24.8670   46.4010 C   0  0  0  0  0  0  0  0  0  0  0  0
   56.4000   23.5540   46.1100 N   0  0  0  0  0  0  0  0  0  0  0  0
   55.2060   23.3220   45.5220 C   0  0  0  0  0  0  0  0  0  0  0  0
   54.8630   22.1830   45.1120 O   0  0  0  0  0  0  0  0  0  0  0  0
   54.4150   24.4090   45.3940 N   0  0  0  0  0  0  0  0  0  0  0  0
   55.1620   25.3810   45.9430 C   0  0  0  0  0  0  0  0  0  0  0  0
   54.7680   26.7110   46.0190 O   0  0  0  0  0  0  0  0  0  0  0  0
  1  2  2  0
  2  3  1  0
  3  4  1  0
  4  5  1  0
  5  6  2  0
  6  7  1  0
  7  8  2  0
  8  9  1  0
  9 10  1  0
 10 11  2  0
 10 12  1  0
 12 13  1  0
 13 14  1  0
 14 15  1  0
 15 16  1  0
 16 17  1  0
 17 18  1  0
 18 19  1  0
 19 20  1  0
 20 21  1  0
 15 22  1  0
 22 23  1  0
  9 24  2  0
  4 25  2  0
 25 26  1  0
 26 27  2  3
 27 28  1  0
 28 29  1  0
 29 30  1  0
 30 31  2  0
 30 32  1  0
 32 33  1  0
 33 34  1  0
 26  2  1  0
 33 28  2  0
 24  5  1  0
 23 12  1  0
 21 16  1  0
M  CHG  3  29  -1  32  -1  34  -1
M  END
>  <UniqueID>  (2867) 
61

>  <SMILES>  (2867) 
C=c1oc(-c2cccc(C(=O)N3CCN(C4CCOCC4)CC3)c2)cc1=Cc1[n-]c(=O)[n-]c1[O-]

>  <Energy>  (2867) 
155.9379825631414

>  <Genealogy>  (2867) 
C=c1oc(-c2cccc(C(=O)N3CCN(C4CCOCC4)CC3)c2)cc1=Cc1[n-]c(=O)[n-]c1[O-] (protonated)
C=c1oc(-c2cccc(C(=O)N3CCN(C4CCOCC4)CC3)c2)cc1=Cc1[n-]c(=O)[n-]c1[O-] (3D coordinates assigned)
C=c1oc(-c2cccc(C(=O)N3CCN(C4CCOCC4)CC3)c2)cc1=Cc1[n-]c(=O)[n-]c1[O-] (nonaromatic ring conformer: 155.9379825631414 kcal/mol)

>  <smiles>  (2867) 
C=c1oc(-c2cccc(C(=O)N3CCN(C4CCOCC4)CC3)c2)cc1=Cc1[nH]c(=O)[nH]c1O

>  <score_type>  (2867) 
oracle

>  <origin>  (2867) 
adg

>  <m_score__min__energy>  (2867) 
-20.050000000000001

>  <m_primary>  (2867) 
energy

$$$$
66:0
     RDKit          3D

 24 26  0  0  0  0  0  0  0  0999 V2000
   61.1750   32.8910   52.4150 C   0  0  0  0  0  0  0  0  0  0  0  0
   60.8210   33.2250   50.9920 C   0  0  0  0  0  0  0  0  0  0  0  0
   61.7560   33.8840   50.1790 C   0  0  0  0  0  0  0  0  0  0  0  0
   61.4420   34.2080   48.8560 C   0  0  0  0  0  0  0  0  0  0  0  0
   60.1850   33.8870   48.3360 C   0  0  0  0  0  0  0  0  0  0  0  0
   59.7930   34.2980   46.6760 Cl  0  0  0  0  0  0  0  0  0  0  0  0
   59.2390   33.2460   49.1410 C   0  0  0  0  0  0  0  0  0  0  0  0
   59.5440   32.9200   50.4700 C   0  0  0  0  0  0  0  0  0  0  0  0
   58.5520   32.2740   51.2810 N   0  0  0  0  0  0  0  0  0  0  0  0
   58.6580   30.8380   51.5560 C   0  0  0  0  0  0  0  0  0  0  0  0
   57.2730   30.1830   51.4680 C   0  0  0  0  0  0  0  0  0  0  0  0
   56.2310   31.0080   52.1010 N   0  0  0  0  0  0  0  0  0  0  0  0
   54.8630   30.5550   52.0480 C   0  0  0  0  0  0  0  0  0  0  0  0
   54.6240   29.3200   51.9390 O   0  0  0  0  0  0  0  0  0  0  0  0
   53.7110   31.5240   52.1460 C   0  0  0  0  0  0  0  0  0  0  0  0
   52.6980   31.2980   51.0630 C   0  0  0  0  0  0  0  0  0  0  0  0
   52.7630   30.2980   50.1660 N   0  0  0  0  0  0  0  0  0  0  0  0
   51.6310   30.4570   49.4440 C   0  0  0  0  0  0  0  0  0  0  0  0
   51.3290   29.7000   48.4850 O   0  0  0  0  0  0  0  0  0  0  0  0
   50.8480   31.4860   49.8340 N   0  0  0  0  0  0  0  0  0  0  0  0
   51.5360   32.0030   50.8640 C   0  0  0  0  0  0  0  0  0  0  0  0
   51.1060   33.0930   51.6120 O   0  0  0  0  0  0  0  0  0  0  0  0
   56.6170   32.2320   52.8220 C   0  0  0  0  0  0  0  0  0  0  0  0
   57.5210   33.0910   51.9350 C   0  0  0  0  0  0  0  0  0  0  0  0
  1  2  1  0
  2  3  2  0
  3  4  1  0
  4  5  2  0
  5  6  1  0
  5  7  1  0
  7  8  2  0
  8  9  1  0
  9 10  1  0
 10 11  1  0
 11 12  1  0
 12 13  1  0
 13 14  2  0
 13 15  1  0
 15 16  1  0
 16 17  1  0
 17 18  1  0
 18 19  2  0
 18 20  1  0
 20 21  1  0
 21 22  1  0
 12 23  1  0
 23 24  1  0
  8  2  1  0
 24  9  1  0
 21 16  2  0
M  CHG  3  17  -1  20  -1  22  -1
M  END
>  <UniqueID>  (2868) 
64

>  <SMILES>  (2868) 
Cc1ccc(Cl)cc1N1CCN(C(=O)Cc2[n-]c(=O)[n-]c2[O-])CC1

>  <Energy>  (2868) 
76.34614758687268

>  <Genealogy>  (2868) 
Cc1ccc(Cl)cc1N1CCN(C(=O)Cc2[n-]c(=O)[n-]c2[O-])CC1 (protonated)
Cc1ccc(Cl)cc1N1CCN(C(=O)Cc2[n-]c(=O)[n-]c2[O-])CC1 (3D coordinates assigned)
Cc1ccc(Cl)cc1N1CCN(C(=O)Cc2[n-]c(=O)[n-]c2[O-])CC1 (nonaromatic ring conformer: 76.34614758687268 kcal/mol)

>  <smiles>  (2868) 
Cc1ccc(Cl)cc1N1CCN(C(=O)Cc2[nH]c(=O)[nH]c2O)CC1

>  <score_type>  (2868) 
oracle

>  <origin>  (2868) 
adg

>  <m_score__min__energy>  (2868) 
-15.44

>  <m_primary>  (2868) 
energy

$$$$
72:0
     RDKit          3D

 32 35  0  0  0  0  0  0  0  0999 V2000
   54.7050   26.3210   45.8780 O   0  0  0  0  0  0  0  0  0  0  0  0
   54.3880   25.0100   45.5410 C   0  0  0  0  0  0  0  0  0  0  0  0
   53.1600   24.4810   45.6790 N   0  0  0  0  0  0  0  0  0  0  0  0
   53.3470   23.1980   45.3030 C   0  0  0  0  0  0  0  0  0  0  0  0
   52.4160   22.3500   45.2980 O   0  0  0  0  0  0  0  0  0  0  0  0
   54.6120   22.8900   44.9430 N   0  0  0  0  0  0  0  0  0  0  0  0
   55.2660   24.0580   45.0730 C   0  0  0  0  0  0  0  0  0  0  0  0
   56.7190   24.1970   44.8640 C   0  0  0  0  0  0  0  0  0  0  0  0
   57.4420   25.2620   45.2680 C   0  0  0  0  0  0  0  0  0  0  0  0
   57.7640   25.5840   46.5760 C   0  0  0  0  0  0  0  0  0  0  0  0
   58.4640   26.7750   46.5370 C   0  0  0  0  0  0  0  0  0  0  0  0
   58.9320   27.4810   47.7500 C   0  0  0  0  0  0  0  0  0  0  0  0
   59.6970   26.8880   48.5580 O   0  0  0  0  0  0  0  0  0  0  0  0
   58.4840   28.8070   48.0380 N   0  0  0  0  0  0  0  0  0  0  0  0
   59.0410   29.6270   49.1050 C   0  0  0  0  0  0  0  0  0  0  0  0
   59.7050   30.8300   48.5000 C   0  0  0  0  0  0  0  0  0  0  0  0
   59.0650   32.0800   48.5280 C   0  0  0  0  0  0  0  0  0  0  0  0
   59.7050   33.2110   48.0110 C   0  0  0  0  0  0  0  0  0  0  0  0
   60.9900   33.1030   47.4720 C   0  0  0  0  0  0  0  0  0  0  0  0
   61.6120   34.2020   46.9770 F   0  0  0  0  0  0  0  0  0  0  0  0
   61.6400   31.8650   47.4570 C   0  0  0  0  0  0  0  0  0  0  0  0
   61.0040   30.7330   47.9760 C   0  0  0  0  0  0  0  0  0  0  0  0
   58.6070   27.1960   45.2540 N   0  0  0  0  0  0  0  0  0  0  0  0
   59.3820   28.3640   44.7990 C   0  0  0  0  0  0  0  0  0  0  0  0
   58.5470   29.6220   44.7140 C   0  0  0  0  0  0  0  0  0  0  0  0
   59.0660   30.8150   45.2460 C   0  0  0  0  0  0  0  0  0  0  0  0
   58.3380   32.0050   45.1630 C   0  0  0  0  0  0  0  0  0  0  0  0
   57.0860   32.0190   44.5460 C   0  0  0  0  0  0  0  0  0  0  0  0
   56.5680   30.8450   43.9950 C   0  0  0  0  0  0  0  0  0  0  0  0
   57.2970   29.6530   44.0670 C   0  0  0  0  0  0  0  0  0  0  0  0
   57.9590   26.2890   44.4720 C   0  0  0  0  0  0  0  0  0  0  0  0
   57.8270   26.3940   43.1390 C   0  0  0  0  0  0  0  0  0  0  0  0
  1  2  1  0
  2  3  1  0
  3  4  1  0
  4  5  2  0
  4  6  1  0
  6  7  1  0
  7  8  1  0
  8  9  2  0
  9 10  1  0
 10 11  2  0
 11 12  1  0
 12 13  2  0
 12 14  1  0
 14 15  1  0
 15 16  1  0
 16 17  2  0
 17 18  1  0
 18 19  2  0
 19 20  1  0
 19 21  1  0
 21 22  2  0
 11 23  1  0
 23 24  1  0
 24 25  1  0
 25 26  2  0
 26 27  1  0
 27 28  2  0
 28 29  1  0
 29 30  2  0
 23 31  1  0
 31 32  2  0
  7  2  2  0
 31  9  1  0
 22 16  1  0
 30 25  1  0
M  CHG  3   3  -1   6  -1  14  -1
M  END
>  <UniqueID>  (2869) 
70

>  <SMILES>  (2869) 
C=c1/c(=C/c2[n-]c(=O)[n-]c2O)cc(C(=O)[N-]Cc2ccc(F)cc2)n1Cc1ccccc1

>  <Energy>  (2869) 
115.69003658238869

>  <Genealogy>  (2869) 
C=c1c(=Cc2[n-]c(=O)[n-]c2O)cc(C(=O)[N-]Cc2ccc(F)cc2)n1Cc1ccccc1 (protonated)
C=c1/c(=C/c2[n-]c(=O)[n-]c2O)cc(C(=O)[N-]Cc2ccc(F)cc2)n1Cc1ccccc1 (cis-trans isomerization)
C=c1/c(=C/c2[n-]c(=O)[n-]c2O)cc(C(=O)[N-]Cc2ccc(F)cc2)n1Cc1ccccc1 (3D coordinates assigned)
C=c1/c(=C/c2[n-]c(=O)[n-]c2O)cc(C(=O)[N-]Cc2ccc(F)cc2)n1Cc1ccccc1 (optimized conformer: 115.69003658238869 kcal/mol)

>  <smiles>  (2869) 
C=c1c(=Cc2[nH]c(=O)[nH]c2O)cc(C(=O)NCc2ccc(F)cc2)n1Cc1ccccc1

>  <score_type>  (2869) 
oracle

>  <origin>  (2869) 
adg

>  <m_score__min__energy>  (2869) 
-14.789999999999999

>  <m_primary>  (2869) 
energy

$$$$
1:0
     RDKit          3D

 35 39  0  0  0  0  0  0  0  0999 V2000
   55.9300   22.1410   43.8580 O   0  0  0  0  0  0  0  0  0  0  0  0
   55.1830   23.0930   44.5480 C   0  0  0  0  0  0  0  0  0  0  0  0
   53.8950   22.8190   44.8860 N   0  0  0  0  0  0  0  0  0  0  0  0
   53.1410   23.7200   45.5630 C   0  0  0  0  0  0  0  0  0  0  0  0
   51.9490   23.4450   45.8610 O   0  0  0  0  0  0  0  0  0  0  0  0
   53.6720   24.9140   45.9280 N   0  0  0  0  0  0  0  0  0  0  0  0
   54.9540   25.2360   45.6170 C   0  0  0  0  0  0  0  0  0  0  0  0
   55.4240   26.3380   46.0060 O   0  0  0  0  0  0  0  0  0  0  0  0
   55.7480   24.3290   44.8890 C   0  0  0  0  0  0  0  0  0  0  0  0
   57.1640   24.6120   44.5600 C   0  0  0  0  0  0  0  0  0  0  0  0
   57.8120   25.7270   44.9520 C   0  0  0  0  0  0  0  0  0  0  0  0
   58.1500   26.8070   44.1460 C   0  0  0  0  0  0  0  0  0  0  0  0
   58.8270   27.7030   44.9500 C   0  0  0  0  0  0  0  0  0  0  0  0
   59.3600   29.0240   44.4900 C   0  0  0  0  0  0  0  0  0  0  0  0
   58.9110   27.2310   46.2140 N   0  0  0  0  0  0  0  0  0  0  0  0
   59.5290   27.9060   47.3230 C   0  0  0  0  0  0  0  0  0  0  0  0
   60.0630   27.1710   48.3880 C   0  0  0  0  0  0  0  0  0  0  0  0
   60.6580   27.8300   49.4650 C   0  0  0  0  0  0  0  0  0  0  0  0
   60.7270   29.2250   49.4850 C   0  0  0  0  0  0  0  0  0  0  0  0
   60.2060   29.9780   48.4180 C   0  0  0  0  0  0  0  0  0  0  0  0
   60.2720   31.4190   48.4420 N   0  0  0  0  0  0  0  0  0  0  0  0
   60.7770   32.1430   47.2650 C   0  0  0  0  0  0  0  0  0  0  0  0
   61.1760   33.5730   47.6340 C   0  0  0  0  0  0  0  0  0  0  0  0
   59.9860   34.3540   48.2680 C   0  0  0  0  0  0  0  0  0  0  0  0
   58.9860   34.8270   47.2630 N   0  0  0  0  0  0  0  0  0  0  0  0
   59.6320   35.3010   46.0060 C   0  0  0  0  0  0  0  0  0  0  0  0
   59.4440   34.3150   44.8400 C   0  0  0  0  0  0  0  0  0  0  0  0
   58.0820   34.0770   44.5200 O   0  0  0  0  0  0  0  0  0  0  0  0
   57.2170   34.1340   45.6440 C   0  0  0  0  0  0  0  0  0  0  0  0
   57.9120   33.8420   46.9840 C   0  0  0  0  0  0  0  0  0  0  0  0
   59.2780   33.4790   49.3570 C   0  0  0  0  0  0  0  0  0  0  0  0
   59.9890   32.1590   49.6810 C   0  0  0  0  0  0  0  0  0  0  0  0
   59.6050   29.3060   47.3390 C   0  0  0  0  0  0  0  0  0  0  0  0
   58.2990   26.0200   46.2290 C   0  0  0  0  0  0  0  0  0  0  0  0
   58.1570   25.2620   47.3280 C   0  0  0  0  0  0  0  0  0  0  0  0
  1  2  1  0
  2  3  1  0
  3  4  1  0
  4  5  2  0
  4  6  1  0
  6  7  1  0
  7  8  2  0
  7  9  1  0
  9 10  1  0
 10 11  2  0
 11 12  1  0
 12 13  2  0
 13 14  1  0
 13 15  1  0
 15 16  1  0
 16 17  2  0
 17 18  1  0
 18 19  2  0
 19 20  1  0
 20 21  1  0
 21 22  1  0
 22 23  1  0
 23 24  1  0
 24 25  1  0
 25 26  1  0
 26 27  1  0
 27 28  1  0
 28 29  1  0
 29 30  1  0
 24 31  1  0
 31 32  1  0
 20 33  2  0
 15 34  1  0
 34 35  2  0
  9  2  2  0
 34 11  1  0
 33 16  1  0
 32 21  1  0
 30 25  1  0
M  CHG  2   3  -1   6  -1
M  END
>  <UniqueID>  (2870) 
2

>  <SMILES>  (2870) 
C=c1/c(=C/c2c(O)[n-]c(=O)[n-]c2=O)cc(C)n1-c1cccc(N2CCC(N3CCOCC3)CC2)c1

>  <Energy>  (2870) 
138.6350173387464

>  <Genealogy>  (2870) 
C=c1c(=Cc2c(O)[n-]c(=O)[n-]c2=O)cc(C)n1-c1cccc(N2CCC(N3CCOCC3)CC2)c1 (protonated)
C=c1/c(=C/c2c(O)[n-]c(=O)[n-]c2=O)cc(C)n1-c1cccc(N2CCC(N3CCOCC3)CC2)c1 (cis-trans isomerization)
C=c1/c(=C/c2c(O)[n-]c(=O)[n-]c2=O)cc(C)n1-c1cccc(N2CCC(N3CCOCC3)CC2)c1 (3D coordinates assigned)
C=c1/c(=C/c2c(O)[n-]c(=O)[n-]c2=O)cc(C)n1-c1cccc(N2CCC(N3CCOCC3)CC2)c1 (nonaromatic ring conformer: 138.6350173387464 kcal/mol)

>  <smiles>  (2870) 
C=c1c(=Cc2c(O)[nH]c(=O)[nH]c2=O)cc(C)n1-c1cccc(N2CCC(N3CCOCC3)CC2)c1

>  <score_type>  (2870) 
oracle

>  <origin>  (2870) 
adg

>  <m_score__min__energy>  (2870) 
-15

>  <m_primary>  (2870) 
energy

$$$$
2:0
     RDKit          3D

 29 31  0  0  0  0  0  0  0  0999 V2000
   56.6480   24.3870   45.2180 C   0  0  0  0  0  0  0  0  0  0  0  0
   57.6970   25.6900   45.0590 S   0  0  0  0  0  0  0  0  0  0  0  0
   56.5810   26.8090   45.6480 C   0  0  0  0  0  0  0  0  0  0  0  0
   56.7700   28.0840   45.8480 N   0  0  0  0  0  0  0  0  0  0  0  0
   56.3700   29.2070   45.0430 C   0  0  0  0  0  0  0  0  0  0  0  0
   55.1470   29.3390   44.7710 O   0  0  0  0  0  0  0  0  0  0  0  0
   57.3360   30.2020   44.4710 C   0  0  0  0  0  0  0  0  0  0  0  0
   56.9470   31.5460   44.8740 N   0  0  0  0  0  0  0  0  0  0  0  0
   57.4010   32.7200   44.1930 C   0  0  0  0  0  0  0  0  0  0  0  0
   57.6930   32.6750   42.9680 O   0  0  0  0  0  0  0  0  0  0  0  0
   57.5690   33.9990   44.9520 C   0  0  0  0  0  0  0  0  0  0  0  0
   58.7280   33.8830   45.9050 C   0  0  0  0  0  0  0  0  0  0  0  0
   60.0240   34.2210   45.4880 C   0  0  0  0  0  0  0  0  0  0  0  0
   61.0940   34.1640   46.3890 C   0  0  0  0  0  0  0  0  0  0  0  0
   60.8900   33.7630   47.7220 C   0  0  0  0  0  0  0  0  0  0  0  0
   62.0080   33.6750   48.6350 N   0  0  0  0  0  0  0  0  0  0  0  0
   63.3230   33.2330   48.3330 C   0  0  0  0  0  0  0  0  0  0  0  0
   63.6450   32.6970   47.2390 O   0  0  0  0  0  0  0  0  0  0  0  0
   64.2630   33.3930   49.4590 C   0  0  0  0  0  0  0  0  0  0  0  0
   63.4070   34.0620   50.5410 C   0  0  0  0  0  0  0  0  0  0  0  0
   61.9540   34.0520   50.0390 C   0  0  0  0  0  0  0  0  0  0  0  0
   59.5890   33.4090   48.1300 C   0  0  0  0  0  0  0  0  0  0  0  0
   58.5170   33.4850   47.2340 C   0  0  0  0  0  0  0  0  0  0  0  0
   55.4180   26.2100   45.9760 N   0  0  0  0  0  0  0  0  0  0  0  0
   55.4500   24.8690   45.7410 C   0  0  0  0  0  0  0  0  0  0  0  0
   54.2580   23.9970   45.9970 C   0  0  0  0  0  0  0  0  0  0  0  0
   53.8070   23.3540   44.7230 C   0  0  0  0  0  0  0  0  0  0  0  0
   52.5920   23.0730   44.5520 O   0  0  0  0  0  0  0  0  0  0  0  0
   54.7310   23.0490   43.7300 O   0  0  0  0  0  0  0  0  0  0  0  0
  1  2  1  0
  2  3  1  0
  3  4  2  0
  4  5  1  0
  5  6  2  0
  5  7  1  0
  7  8  1  0
  8  9  1  0
  9 10  2  0
  9 11  1  0
 11 12  1  0
 12 13  2  0
 13 14  1  0
 14 15  2  0
 15 16  1  0
 16 17  1  0
 17 18  2  0
 17 19  1  0
 19 20  1  0
 20 21  1  0
 15 22  1  0
 22 23  2  0
  3 24  1  0
 24 25  1  0
 25 26  1  0
 26 27  1  0
 27 28  2  0
 27 29  1  0
 25  1  2  0
 23 12  1  0
 21 16  1  0
M  CHG  3   8  -1  24  -1  29  -1
M  END
>  <UniqueID>  (2871) 
3

>  <SMILES>  (2871) 
O=C([O-])Cc1cs/c(=N\C(=O)C[N-]C(=O)Cc2ccc(N3CCCC3=O)cc2)[n-]1

>  <Energy>  (2871) 
85.32247451282163

>  <Genealogy>  (2871) 
O=C([O-])Cc1csc(=NC(=O)C[N-]C(=O)Cc2ccc(N3CCCC3=O)cc2)[n-]1 (protonated)
O=C([O-])Cc1cs/c(=N\C(=O)C[N-]C(=O)Cc2ccc(N3CCCC3=O)cc2)[n-]1 (cis-trans isomerization)
O=C([O-])Cc1cs/c(=N\C(=O)C[N-]C(=O)Cc2ccc(N3CCCC3=O)cc2)[n-]1 (3D coordinates assigned)
O=C([O-])Cc1cs/c(=N\C(=O)C[N-]C(=O)Cc2ccc(N3CCCC3=O)cc2)[n-]1 (nonaromatic ring conformer: 85.32247451282163 kcal/mol)

>  <smiles>  (2871) 
O=C(O)Cc1csc(=NC(=O)CNC(=O)Cc2ccc(N3CCCC3=O)cc2)[nH]1

>  <score_type>  (2871) 
oracle

>  <origin>  (2871) 
adg

>  <m_score__min__energy>  (2871) 
-15.01

>  <m_primary>  (2871) 
energy

$$$$
5:0
     RDKit          3D

 24 26  0  0  0  0  0  0  0  0999 V2000
   56.2410   28.5210   54.5430 C   0  0  0  0  0  0  0  0  0  0  0  0
   55.6300   29.3650   53.7090 C   0  0  0  0  0  0  0  0  0  0  0  0
   56.1710   29.9170   52.5550 C   0  0  0  0  0  0  0  0  0  0  0  0
   57.5420   29.6520   51.9810 C   0  0  0  0  0  0  0  0  0  0  0  0
   58.1280   30.8760   51.2920 C   0  0  0  0  0  0  0  0  0  0  0  0
   58.6290   30.7800   49.9650 C   0  0  0  0  0  0  0  0  0  0  0  0
   58.5830   29.4860   49.1910 C   0  0  0  0  0  0  0  0  0  0  0  0
   59.1600   31.9170   49.3380 C   0  0  0  0  0  0  0  0  0  0  0  0
   59.2200   33.1430   50.0050 C   0  0  0  0  0  0  0  0  0  0  0  0
   59.8280   34.3410   49.3330 C   0  0  0  0  0  0  0  0  0  0  0  0
   58.7810   33.2300   51.3280 C   0  0  0  0  0  0  0  0  0  0  0  0
   58.2440   32.1120   51.9850 C   0  0  0  0  0  0  0  0  0  0  0  0
   57.7870   32.2690   53.4140 C   0  0  0  0  0  0  0  0  0  0  0  0
   55.1650   30.6840   51.9880 C   0  0  0  0  0  0  0  0  0  0  0  0
   54.0720   30.5900   52.8340 C   0  0  0  0  0  0  0  0  0  0  0  0
   52.8980   31.2020   52.6020 C   0  0  0  0  0  0  0  0  0  0  0  0
   52.1980   31.2670   51.3010 C   0  0  0  0  0  0  0  0  0  0  0  0
   52.2190   30.3190   50.3460 N   0  0  0  0  0  0  0  0  0  0  0  0
   51.3930   30.8100   49.3960 C   0  0  0  0  0  0  0  0  0  0  0  0
   51.1560   30.1970   48.3230 O   0  0  0  0  0  0  0  0  0  0  0  0
   50.8390   32.0040   49.6910 N   0  0  0  0  0  0  0  0  0  0  0  0
   51.3550   32.2760   50.9000 C   0  0  0  0  0  0  0  0  0  0  0  0
   51.0580   33.4250   51.6240 O   0  0  0  0  0  0  0  0  0  0  0  0
   54.3600   29.7830   53.8800 N   0  0  0  0  0  0  0  0  0  0  0  0
  1  2  2  0
  2  3  1  0
  3  4  1  0
  4  5  1  0
  5  6  2  0
  6  7  1  0
  6  8  1  0
  8  9  2  0
  9 10  1  0
  9 11  1  0
 11 12  2  0
 12 13  1  0
  3 14  2  0
 14 15  1  0
 15 16  2  0
 16 17  1  0
 17 18  1  0
 18 19  1  0
 19 20  2  0
 19 21  1  0
 21 22  1  0
 22 23  1  0
 15 24  1  0
 24  2  1  0
 12  5  1  0
 22 17  2  0
M  CHG  3  18  -1  21  -1  23  -1
M  END
>  <UniqueID>  (2872) 
6

>  <SMILES>  (2872) 
C=c1[nH]/c(=C\c2[n-]c(=O)[n-]c2[O-])cc1Cc1c(C)cc(C)cc1C

>  <Energy>  (2872) 
103.99845789604299

>  <Genealogy>  (2872) 
C=c1[nH]c(=Cc2[n-]c(=O)[n-]c2[O-])cc1Cc1c(C)cc(C)cc1C (protonated)
C=c1[nH]/c(=C\c2[n-]c(=O)[n-]c2[O-])cc1Cc1c(C)cc(C)cc1C (cis-trans isomerization)
C=c1[nH]/c(=C\c2[n-]c(=O)[n-]c2[O-])cc1Cc1c(C)cc(C)cc1C (3D coordinates assigned)
C=c1[nH]/c(=C\c2[n-]c(=O)[n-]c2[O-])cc1Cc1c(C)cc(C)cc1C (optimized conformer: 103.99845789604299 kcal/mol)

>  <smiles>  (2872) 
C=c1[nH]c(=Cc2[nH]c(=O)[nH]c2O)cc1Cc1c(C)cc(C)cc1C

>  <score_type>  (2872) 
oracle

>  <origin>  (2872) 
adg

>  <m_score__min__energy>  (2872) 
-16.629999999999999

>  <m_primary>  (2872) 
energy

$$$$
12:0
     RDKit          3D

 30 33  0  0  0  0  0  0  0  0999 V2000
   59.8720   28.5660   44.9640 C   0  0  0  0  0  0  0  0  0  0  0  0
   58.5670   28.3110   45.1520 C   0  0  0  0  0  0  0  0  0  0  0  0
   58.0240   27.1660   45.7520 C   0  0  0  0  0  0  0  0  0  0  0  0
   58.6960   26.1280   46.2890 C   0  0  0  0  0  0  0  0  0  0  0  0
   58.0470   24.8840   46.7390 C   0  0  0  0  0  0  0  0  0  0  0  0
   57.0860   24.8560   47.6780 N   0  0  0  0  0  0  0  0  0  0  0  0
   56.8140   23.5400   47.8100 C   0  0  0  0  0  0  0  0  0  0  0  0
   55.9400   23.1050   48.6030 O   0  0  0  0  0  0  0  0  0  0  0  0
   57.5580   22.7280   47.0300 N   0  0  0  0  0  0  0  0  0  0  0  0
   58.3460   23.5880   46.3670 C   0  0  0  0  0  0  0  0  0  0  0  0
   59.3400   23.1840   45.4790 O   0  0  0  0  0  0  0  0  0  0  0  0
   56.6440   27.3260   45.7290 C   0  0  0  0  0  0  0  0  0  0  0  0
   56.4090   28.5350   45.1150 C   0  0  0  0  0  0  0  0  0  0  0  0
   55.1450   29.0690   44.8830 O   0  0  0  0  0  0  0  0  0  0  0  0
   57.5630   29.1410   44.7650 N   0  0  0  0  0  0  0  0  0  0  0  0
   57.6680   30.4110   44.0340 C   0  0  0  0  0  0  0  0  0  0  0  0
   57.8550   31.5570   44.9950 C   0  0  0  0  0  0  0  0  0  0  0  0
   57.0780   32.7210   44.8810 C   0  0  0  0  0  0  0  0  0  0  0  0
   57.2410   33.7670   45.7920 C   0  0  0  0  0  0  0  0  0  0  0  0
   58.1840   33.6650   46.8180 C   0  0  0  0  0  0  0  0  0  0  0  0
   58.9850   32.5180   46.9340 C   0  0  0  0  0  0  0  0  0  0  0  0
   59.9790   32.3940   48.0250 C   0  0  0  0  0  0  0  0  0  0  0  0
   59.7350   31.6150   48.9880 O   0  0  0  0  0  0  0  0  0  0  0  0
   61.2200   33.1280   48.0090 N   0  0  0  0  0  0  0  0  0  0  0  0
   61.9280   33.4140   46.7590 C   0  0  0  0  0  0  0  0  0  0  0  0
   63.4270   33.1690   46.9560 C   0  0  0  0  0  0  0  0  0  0  0  0
   63.9110   33.8850   48.0770 O   0  0  0  0  0  0  0  0  0  0  0  0
   63.3090   33.3920   49.2610 C   0  0  0  0  0  0  0  0  0  0  0  0
   61.7970   33.6490   49.2530 C   0  0  0  0  0  0  0  0  0  0  0  0
   58.8070   31.4620   46.0240 C   0  0  0  0  0  0  0  0  0  0  0  0
  1  2  2  0
  2  3  1  0
  3  4  2  3
  4  5  1  0
  5  6  1  0
  6  7  1  0
  7  8  2  0
  7  9  1  0
  9 10  1  0
 10 11  1  0
  3 12  1  0
 12 13  2  0
 13 14  1  0
 13 15  1  0
 15 16  1  0
 16 17  1  0
 17 18  2  0
 18 19  1  0
 19 20  2  0
 20 21  1  0
 21 22  1  0
 22 23  2  0
 22 24  1  0
 24 25  1  0
 25 26  1  0
 26 27  1  0
 27 28  1  0
 28 29  1  0
 21 30  2  0
 15  2  1  0
 30 17  1  0
 10  5  2  0
 29 24  1  0
M  CHG  3   6  -1   9  -1  14  -1
M  END
>  <UniqueID>  (2873) 
13

>  <SMILES>  (2873) 
C=c1c(=Cc2[n-]c(=O)[n-]c2O)cc([O-])n1Cc1cccc(C(=O)N2CCOCC2)c1

>  <Energy>  (2873) 
124.06600705387714

>  <Genealogy>  (2873) 
C=c1c(=Cc2[n-]c(=O)[n-]c2O)cc([O-])n1Cc1cccc(C(=O)N2CCOCC2)c1 (protonated)
C=c1c(=Cc2[n-]c(=O)[n-]c2O)cc([O-])n1Cc1cccc(C(=O)N2CCOCC2)c1 (3D coordinates assigned)
C=c1c(=Cc2[n-]c(=O)[n-]c2O)cc([O-])n1Cc1cccc(C(=O)N2CCOCC2)c1 (nonaromatic ring conformer: 124.06600705387714 kcal/mol)

>  <smiles>  (2873) 
C=c1c(=Cc2[nH]c(=O)[nH]c2O)cc(O)n1Cc1cccc(C(=O)N2CCOCC2)c1

>  <score_type>  (2873) 
oracle

>  <origin>  (2873) 
adg

>  <m_score__min__energy>  (2873) 
-15.199999999999999

>  <m_primary>  (2873) 
energy

$$$$
13:0
     RDKit          3D

 34 37  0  0  0  0  0  0  0  0999 V2000
   63.1120   34.2020   46.3740 C   0  0  0  0  0  0  0  0  0  0  0  0
   62.0330   33.9910   47.3460 N   0  0  0  0  0  0  0  0  0  0  0  0
   62.4040   33.6930   48.7410 C   0  0  0  0  0  0  0  0  0  0  0  0
   61.2540   34.0160   49.6970 C   0  0  0  0  0  0  0  0  0  0  0  0
   60.0400   33.3340   49.2330 N   0  0  0  0  0  0  0  0  0  0  0  0
   59.4440   32.2440   49.9810 C   0  0  0  0  0  0  0  0  0  0  0  0
   58.6770   32.4830   50.9590 O   0  0  0  0  0  0  0  0  0  0  0  0
   59.6820   30.8380   49.6230 C   0  0  0  0  0  0  0  0  0  0  0  0
   60.8480   30.1940   50.0560 C   0  0  0  0  0  0  0  0  0  0  0  0
   61.0480   28.8400   49.7700 C   0  0  0  0  0  0  0  0  0  0  0  0
   60.0870   28.1170   49.0400 C   0  0  0  0  0  0  0  0  0  0  0  0
   60.2840   26.6450   48.7790 C   0  0  0  0  0  0  0  0  0  0  0  0
   60.6800   26.3840   47.3960 N   0  0  0  0  0  0  0  0  0  0  0  0
   59.7950   26.2780   46.2720 C   0  0  0  0  0  0  0  0  0  0  0  0
   59.6580   25.1590   45.7100 O   0  0  0  0  0  0  0  0  0  0  0  0
   59.0150   27.4300   45.7770 C   0  0  0  0  0  0  0  0  0  0  0  0
   59.7120   28.5740   45.3580 C   0  0  0  0  0  0  0  0  0  0  0  0
   59.0230   29.6950   44.8970 C   0  0  0  0  0  0  0  0  0  0  0  0
   57.6300   29.6840   44.8390 C   0  0  0  0  0  0  0  0  0  0  0  0
   56.9150   28.5520   45.2400 C   0  0  0  0  0  0  0  0  0  0  0  0
   55.5280   28.5820   45.1680 O   0  0  0  0  0  0  0  0  0  0  0  0
   57.5940   27.4090   45.7170 C   0  0  0  0  0  0  0  0  0  0  0  0
   56.6570   25.9720   46.1980 S   0  0  0  0  0  0  0  0  0  0  0  0
   54.9690   26.3410   46.1240 N   0  0  0  0  0  0  0  0  0  0  0  0
   56.9570   24.8090   45.2960 O   0  0  0  0  0  0  0  0  0  0  0  0
   57.0050   25.5660   47.6000 O   0  0  0  0  0  0  0  0  0  0  0  0
   58.9190   28.7690   48.6080 C   0  0  0  0  0  0  0  0  0  0  0  0
   58.7200   30.1240   48.8940 C   0  0  0  0  0  0  0  0  0  0  0  0
   59.6430   33.6140   47.8770 C   0  0  0  0  0  0  0  0  0  0  0  0
   58.2880   33.6240   47.5000 C   0  0  0  0  0  0  0  0  0  0  0  0
   57.9250   33.8970   46.1810 C   0  0  0  0  0  0  0  0  0  0  0  0
   58.9070   34.1840   45.2320 C   0  0  0  0  0  0  0  0  0  0  0  0
   60.2560   34.2100   45.5990 C   0  0  0  0  0  0  0  0  0  0  0  0
   60.6430   33.9320   46.9260 C   0  0  0  0  0  0  0  0  0  0  0  0
  1  2  1  0
  2  3  1  0
  3  4  1  0
  4  5  1  0
  5  6  1  0
  6  7  2  0
  6  8  1  0
  8  9  2  0
  9 10  1  0
 10 11  2  0
 11 12  1  0
 12 13  1  0
 13 14  1  0
 14 15  2  0
 14 16  1  0
 16 17  2  0
 17 18  1  0
 18 19  2  0
 19 20  1  0
 20 21  1  0
 20 22  2  0
 22 23  1  0
 23 24  1  0
 23 25  2  0
 23 26  2  0
 11 27  1  0
 27 28  2  0
  5 29  1  0
 29 30  2  0
 30 31  1  0
 31 32  2  0
 32 33  1  0
 33 34  2  0
 34  2  1  0
 28  8  1  0
 34 29  1  0
 22 16  1  0
M  CHG  3  13  -1  21  -1  24  -1
M  END
>  <UniqueID>  (2874) 
14

>  <SMILES>  (2874) 
CN1CCN(C(=O)c2ccc(C[N-]C(=O)c3cccc([O-])c3S([NH-])(=O)=O)cc2)c2ccccc21

>  <Energy>  (2874) 
77.91250286185908

>  <Genealogy>  (2874) 
CN1CCN(C(=O)c2ccc(C[N-]C(=O)c3cccc([O-])c3S([NH-])(=O)=O)cc2)c2ccccc21 (protonated)
CN1CCN(C(=O)c2ccc(C[N-]C(=O)c3cccc([O-])c3S([NH-])(=O)=O)cc2)c2ccccc21 (3D coordinates assigned)
CN1CCN(C(=O)c2ccc(C[N-]C(=O)c3cccc([O-])c3S([NH-])(=O)=O)cc2)c2ccccc21 (nonaromatic ring conformer: 77.91250286185908 kcal/mol)

>  <smiles>  (2874) 
CN1CCN(C(=O)c2ccc(CNC(=O)c3cccc(O)c3S(N)(=O)=O)cc2)c2ccccc21

>  <score_type>  (2874) 
oracle

>  <origin>  (2874) 
adg

>  <m_score__min__energy>  (2874) 
-17.260000000000002

>  <m_primary>  (2874) 
energy

$$$$
18:0
     RDKit          3D

 34 37  0  0  0  0  0  0  0  0999 V2000
   59.4860   29.6390   51.7960 O   0  0  0  0  0  0  0  0  0  0  0  0
   58.4550   29.9880   52.4280 C   0  0  0  0  0  0  0  0  0  0  0  0
   58.5570   31.1160   53.4210 C   0  0  0  0  0  0  0  0  0  0  0  0
   59.1980   32.3030   52.8140 N   0  0  0  0  0  0  0  0  0  0  0  0
   58.6380   32.5670   51.4750 C   0  0  0  0  0  0  0  0  0  0  0  0
   59.2640   33.8260   50.8610 C   0  0  0  0  0  0  0  0  0  0  0  0
   60.7390   33.8040   50.8840 N   0  0  0  0  0  0  0  0  0  0  0  0
   61.4150   33.3720   49.6410 C   0  0  0  0  0  0  0  0  0  0  0  0
   60.4660   32.9780   48.5330 C   0  0  0  0  0  0  0  0  0  0  0  0
   59.8950   31.6950   48.5160 C   0  0  0  0  0  0  0  0  0  0  0  0
   59.0040   31.3340   47.5040 C   0  0  0  0  0  0  0  0  0  0  0  0
   58.6800   32.2450   46.4970 C   0  0  0  0  0  0  0  0  0  0  0  0
   59.2620   33.5220   46.4800 C   0  0  0  0  0  0  0  0  0  0  0  0
   58.8660   34.4950   45.3980 C   0  0  0  0  0  0  0  0  0  0  0  0
   59.4270   35.7290   45.6700 F   0  0  0  0  0  0  0  0  0  0  0  0
   59.2950   34.0760   44.1500 F   0  0  0  0  0  0  0  0  0  0  0  0
   57.4890   34.6220   45.3690 F   0  0  0  0  0  0  0  0  0  0  0  0
   60.1660   33.8790   47.4980 C   0  0  0  0  0  0  0  0  0  0  0  0
   61.3370   33.3430   52.1520 C   0  0  0  0  0  0  0  0  0  0  0  0
   60.6500   32.0860   52.7010 C   0  0  0  0  0  0  0  0  0  0  0  0
   57.1890   29.4370   52.0420 N   0  0  0  0  0  0  0  0  0  0  0  0
   56.0230   29.7660   52.5120 C   0  0  0  0  0  0  0  0  0  0  0  0
   55.8360   30.0560   53.8180 N   0  0  0  0  0  0  0  0  0  0  0  0
   54.5580   30.4470   54.0730 C   0  0  0  0  0  0  0  0  0  0  0  0
   53.7220   30.4680   52.9620 C   0  0  0  0  0  0  0  0  0  0  0  0
   52.3120   30.9630   52.9360 C   0  0  0  0  0  0  0  0  0  0  0  0
   51.8490   31.1110   51.5210 C   0  0  0  0  0  0  0  0  0  0  0  0
   51.8760   29.8900   50.3590 S   0  0  0  0  0  0  0  0  0  0  0  0
   51.1280   30.8610   49.2070 C   0  0  0  0  0  0  0  0  0  0  0  0
   50.8560   30.4890   48.0360 O   0  0  0  0  0  0  0  0  0  0  0  0
   50.8370   32.0940   49.6730 N   0  0  0  0  0  0  0  0  0  0  0  0
   51.2340   32.2310   50.9650 C   0  0  0  0  0  0  0  0  0  0  0  0
   51.0250   33.4100   51.6710 O   0  0  0  0  0  0  0  0  0  0  0  0
   54.6140   30.0060   51.6130 S   0  0  0  0  0  0  0  0  0  0  0  0
  1  2  2  0
  2  3  1  0
  3  4  1  0
  4  5  1  0
  5  6  1  0
  6  7  1  0
  7  8  1  0
  8  9  1  0
  9 10  2  0
 10 11  1  0
 11 12  2  0
 12 13  1  0
 13 14  1  0
 14 15  1  0
 14 16  1  0
 14 17  1  0
 13 18  2  0
  7 19  1  0
 19 20  1  0
  2 21  1  0
 21 22  2  3
 22 23  1  0
 23 24  1  0
 24 25  2  0
 25 26  1  0
 26 27  1  0
 27 28  1  0
 28 29  1  0
 29 30  2  0
 29 31  1  0
 31 32  1  0
 32 33  1  0
 25 34  1  0
 20  4  1  0
 34 22  1  0
 18  9  1  0
 32 27  2  0
M  CHG  3  23  -1  31  -1  33  -1
M  END
>  <UniqueID>  (2875) 
19

>  <SMILES>  (2875) 
O=C(CN1CCN(Cc2cccc(C(F)(F)F)c2)CC1)N=c1[n-]cc(Cc2sc(=O)[n-]c2[O-])s1

>  <Energy>  (2875) 
128.82155419022175

>  <Genealogy>  (2875) 
O=C(CN1CCN(Cc2cccc(C(F)(F)F)c2)CC1)N=c1[n-]cc(Cc2sc(=O)[n-]c2[O-])s1 (protonated)
O=C(CN1CCN(Cc2cccc(C(F)(F)F)c2)CC1)N=c1[n-]cc(Cc2sc(=O)[n-]c2[O-])s1 (3D coordinates assigned)
O=C(CN1CCN(Cc2cccc(C(F)(F)F)c2)CC1)N=c1[n-]cc(Cc2sc(=O)[n-]c2[O-])s1 (nonaromatic ring conformer: 128.82155419022175 kcal/mol)

>  <smiles>  (2875) 
O=C(CN1CCN(Cc2cccc(C(F)(F)F)c2)CC1)N=c1[nH]cc(Cc2sc(=O)[nH]c2O)s1

>  <score_type>  (2875) 
oracle

>  <origin>  (2875) 
adg

>  <m_score__min__energy>  (2875) 
-17.940000000000001

>  <m_primary>  (2875) 
energy

$$$$
21:0
     RDKit          3D

 31 34  0  0  0  0  0  0  0  0999 V2000
   53.9760   28.3970   53.8180 C   0  0  0  0  0  0  0  0  0  0  0  0
   54.5290   29.4170   53.1430 C   0  0  0  0  0  0  0  0  0  0  0  0
   53.8500   30.3750   52.3800 C   0  0  0  0  0  0  0  0  0  0  0  0
   52.5130   30.4820   52.2170 C   0  0  0  0  0  0  0  0  0  0  0  0
   51.8290   30.8600   50.9610 C   0  0  0  0  0  0  0  0  0  0  0  0
   51.7420   30.1060   49.8500 N   0  0  0  0  0  0  0  0  0  0  0  0
   51.0210   30.8730   49.0040 C   0  0  0  0  0  0  0  0  0  0  0  0
   50.7320   30.5060   47.8360 O   0  0  0  0  0  0  0  0  0  0  0  0
   50.6390   32.0670   49.5050 N   0  0  0  0  0  0  0  0  0  0  0  0
   51.1550   32.0400   50.7450 C   0  0  0  0  0  0  0  0  0  0  0  0
   51.0200   33.0800   51.6590 O   0  0  0  0  0  0  0  0  0  0  0  0
   54.8270   31.2210   51.8700 C   0  0  0  0  0  0  0  0  0  0  0  0
   56.0430   30.7510   52.3250 C   0  0  0  0  0  0  0  0  0  0  0  0
   57.3550   31.4440   52.0680 C   0  0  0  0  0  0  0  0  0  0  0  0
   58.2870   30.5930   51.2370 C   0  0  0  0  0  0  0  0  0  0  0  0
   58.0680   29.3930   51.1160 O   0  0  0  0  0  0  0  0  0  0  0  0
   59.4210   31.2030   50.5610 N   0  0  2  0  0  0  0  0  0  0  0  0
   59.0320   32.4040   49.7690 C   0  0  0  0  0  0  0  0  0  0  0  0
   59.1560   32.2270   48.2410 C   0  0  0  0  0  0  0  0  0  0  0  0
   58.6340   30.8460   47.7720 C   0  0  1  0  0  0  0  0  0  0  0  0
   58.7800   30.6430   46.2980 N   0  0  0  0  0  0  0  0  0  0  0  0
   58.5120   29.2310   45.8930 C   0  0  0  0  0  0  0  0  0  0  0  0
   57.2200   29.0730   45.0790 C   0  0  0  0  0  0  0  0  0  0  0  0
   57.2760   29.8730   43.8380 N   0  0  0  0  0  0  0  0  0  0  0  0
   55.9290   30.0170   43.2660 C   0  0  0  0  0  0  0  0  0  0  0  0
   57.9380   31.1900   44.0130 C   0  0  0  0  0  0  0  0  0  0  0  0
   58.0160   31.6230   45.4850 C   0  0  0  0  0  0  0  0  0  0  0  0
   59.3860   29.7160   48.5370 C   0  0  0  0  0  0  0  0  0  0  0  0
   60.1620   30.1950   49.7770 C   0  0  0  0  0  0  0  0  0  0  0  0
   55.8640   29.6640   53.1140 N   0  0  0  0  0  0  0  0  0  0  0  0
   56.8990   28.9210   53.8430 C   0  0  0  0  0  0  0  0  0  0  0  0
  1  2  2  0
  2  3  1  0
  3  4  2  3
  4  5  1  0
  5  6  1  0
  6  7  1  0
  7  8  2  0
  7  9  1  0
  9 10  1  0
 10 11  1  0
  3 12  1  0
 12 13  2  0
 13 14  1  0
 14 15  1  0
 15 16  2  0
 17 15  1  6
 17 18  1  0
 18 19  1  0
 19 20  1  0
 20 21  1  6
 21 22  1  0
 22 23  1  0
 23 24  1  0
 24 25  1  0
 24 26  1  0
 26 27  1  0
 20 28  1  0
 28 29  1  0
 13 30  1  0
 30 31  1  0
 30  2  1  0
 10  5  2  0
 29 17  1  0
 27 21  1  0
M  CHG  4   6  -1   9  -1  11  -1  17   1
M  END
>  <UniqueID>  (2876) 
22

>  <SMILES>  (2876) 
C=c1c(=Cc2[n-]c(=O)[n-]c2[O-])cc(CC(=O)[NH+]2CCC(N3CCN(C)CC3)CC2)n1C

>  <Energy>  (2876) 
153.02447355084175

>  <Genealogy>  (2876) 
C=c1c(=Cc2[n-]c(=O)[n-]c2[O-])cc(CC(=O)[NH+]2CCC(N3CCN(C)CC3)CC2)n1C (protonated)
C=c1c(=Cc2[n-]c(=O)[n-]c2[O-])cc(CC(=O)[NH+]2CCC(N3CCN(C)CC3)CC2)n1C (3D coordinates assigned)
C=c1c(=Cc2[n-]c(=O)[n-]c2[O-])cc(CC(=O)[NH+]2CCC(N3CCN(C)CC3)CC2)n1C (nonaromatic ring conformer: 153.02447355084175 kcal/mol)

>  <smiles>  (2876) 
C=c1c(=Cc2[nH]c(=O)[nH]c2O)cc(CC(=O)N2CCC(N3CCN(C)CC3)CC2)n1C

>  <score_type>  (2876) 
oracle

>  <origin>  (2876) 
adg

>  <m_score__min__energy>  (2876) 
-17.66

>  <m_primary>  (2876) 
energy

$$$$
43:0
     RDKit          3D

 37 41  0  0  0  0  0  0  0  0999 V2000
   54.1230   24.9950   45.5040 C   0  0  0  0  0  0  0  0  0  0  0  0
   55.3470   25.4930   45.6920 C   0  0  0  0  0  0  0  0  0  0  0  0
   56.5480   24.8360   45.4590 C   0  0  0  0  0  0  0  0  0  0  0  0
   56.7240   23.4840   44.8980 C   0  0  0  0  0  0  0  0  0  0  0  0
   57.1000   23.3630   43.6990 O   0  0  0  0  0  0  0  0  0  0  0  0
   56.4860   22.3110   45.7000 N   0  0  0  0  0  0  0  0  0  0  0  0
   55.4440   22.3330   46.7330 C   0  0  0  0  0  0  0  0  0  0  0  0
   55.2350   20.9370   47.3330 C   0  0  0  0  0  0  0  0  0  0  0  0
   56.5140   20.3030   47.7200 N   0  0  0  0  0  0  0  0  0  0  0  0
   57.0280   20.8520   48.9880 C   0  0  0  0  0  0  0  0  0  0  0  0
   57.5570   20.3150   46.6560 C   0  0  0  0  0  0  0  0  0  0  0  0
   57.1350   21.0410   45.3670 C   0  0  0  0  0  0  0  0  0  0  0  0
   57.5540   25.7210   45.8230 C   0  0  0  0  0  0  0  0  0  0  0  0
   59.0330   25.5160   45.6560 C   0  0  0  0  0  0  0  0  0  0  0  0
   56.9180   26.8870   46.2390 C   0  0  0  0  0  0  0  0  0  0  0  0
   57.5380   28.0260   46.5960 C   0  0  0  0  0  0  0  0  0  0  0  0
   57.3320   29.3140   45.9120 C   0  0  0  0  0  0  0  0  0  0  0  0
   56.2610   29.7120   45.1180 C   0  0  0  0  0  0  0  0  0  0  0  0
   55.1580   28.9220   44.8180 O   0  0  0  0  0  0  0  0  0  0  0  0
   56.3900   30.9890   44.6850 N   0  0  0  0  0  0  0  0  0  0  0  0
   57.5520   31.4020   45.2280 C   0  0  0  0  0  0  0  0  0  0  0  0
   58.1470   32.6510   45.0680 C   0  0  0  0  0  0  0  0  0  0  0  0
   59.3790   32.8840   45.7060 C   0  0  0  0  0  0  0  0  0  0  0  0
   59.9880   31.8740   46.4900 C   0  0  0  0  0  0  0  0  0  0  0  0
   61.5520   32.1690   47.2560 S   0  0  0  0  0  0  0  0  0  0  0  0
   62.4040   30.9390   47.1240 O   0  0  0  0  0  0  0  0  0  0  0  0
   62.2470   33.2970   46.5480 O   0  0  0  0  0  0  0  0  0  0  0  0
   61.3720   32.5660   48.9470 N   0  0  0  0  0  0  0  0  0  0  0  0
   62.5360   33.3240   49.4240 C   0  0  0  0  0  0  0  0  0  0  0  0
   62.2650   33.8600   50.8440 C   0  0  0  0  0  0  0  0  0  0  0  0
   61.3420   33.0030   51.6290 N   0  0  0  0  0  0  0  0  0  0  0  0
   59.9520   33.4910   51.5820 C   0  0  0  0  0  0  0  0  0  0  0  0
   61.4400   31.5790   51.2520 C   0  0  0  0  0  0  0  0  0  0  0  0
   61.1720   31.3430   49.7480 C   0  0  0  0  0  0  0  0  0  0  0  0
   59.3550   30.6240   46.6420 C   0  0  0  0  0  0  0  0  0  0  0  0
   58.1400   30.4230   45.9890 C   0  0  0  0  0  0  0  0  0  0  0  0
   55.5760   26.7350   46.1610 N   0  0  0  0  0  0  0  0  0  0  0  0
  1  2  2  0
  2  3  1  0
  3  4  1  0
  4  5  2  0
  4  6  1  0
  6  7  1  0
  7  8  1  0
  8  9  1  0
  9 10  1  0
  9 11  1  0
 11 12  1  0
  3 13  2  0
 13 14  1  0
 13 15  1  0
 15 16  2  0
 16 17  1  0
 17 18  2  0
 18 19  1  0
 18 20  1  0
 20 21  1  0
 21 22  2  0
 22 23  1  0
 23 24  2  0
 24 25  1  0
 25 26  2  0
 25 27  2  0
 25 28  1  0
 28 29  1  0
 29 30  1  0
 30 31  1  0
 31 32  1  0
 31 33  1  0
 33 34  1  0
 24 35  1  0
 35 36  2  0
 15 37  1  0
 37  2  1  0
 12  6  1  0
 36 17  1  0
 36 21  1  0
 34 28  1  0
M  CHG  2  19  -1  20  -1
M  END
>  <UniqueID>  (2877) 
42

>  <SMILES>  (2877) 
C=c1[nH]/c(=C\c2c([O-])[n-]c3ccc(S(=O)(=O)N4CCN(C)CC4)cc23)c(C)c1C(=O)N1CCN(C)CC1

>  <Energy>  (2877) 
158.71849156212585

>  <Genealogy>  (2877) 
C=c1[nH]c(=Cc2c([O-])[n-]c3ccc(S(=O)(=O)N4CCN(C)CC4)cc23)c(C)c1C(=O)N1CCN(C)CC1 (protonated)
C=c1[nH]/c(=C\c2c([O-])[n-]c3ccc(S(=O)(=O)N4CCN(C)CC4)cc23)c(C)c1C(=O)N1CCN(C)CC1 (cis-trans isomerization)
C=c1[nH]/c(=C\c2c([O-])[n-]c3ccc(S(=O)(=O)N4CCN(C)CC4)cc23)c(C)c1C(=O)N1CCN(C)CC1 (3D coordinates assigned)
C=c1[nH]/c(=C\c2c([O-])[n-]c3ccc(S(=O)(=O)N4CCN(C)CC4)cc23)c(C)c1C(=O)N1CCN(C)CC1 (nonaromatic ring conformer: 158.71849156212585 kcal/mol)

>  <smiles>  (2877) 
C=c1[nH]c(=Cc2c(O)[nH]c3ccc(S(=O)(=O)N4CCN(C)CC4)cc23)c(C)c1C(=O)N1CCN(C)CC1

>  <score_type>  (2877) 
oracle

>  <origin>  (2877) 
adg

>  <m_score__min__energy>  (2877) 
-14.44

>  <m_primary>  (2877) 
energy

$$$$
51:0
     RDKit          3D

 33 36  0  0  0  0  0  0  0  0999 V2000
   59.4610   29.7910   44.8760 C   0  0  0  0  0  0  0  0  0  0  0  0
   59.4310   29.3190   46.1320 C   0  0  0  0  0  0  0  0  0  0  0  0
   58.6600   28.2460   46.5930 C   0  0  0  0  0  0  0  0  0  0  0  0
   57.8570   27.4430   45.8670 C   0  0  0  0  0  0  0  0  0  0  0  0
   57.2360   26.2130   46.3880 C   0  0  0  0  0  0  0  0  0  0  0  0
   57.9450   25.1530   46.8130 N   0  0  0  0  0  0  0  0  0  0  0  0
   56.9960   24.2520   47.1430 C   0  0  0  0  0  0  0  0  0  0  0  0
   57.2720   23.1150   47.6080 O   0  0  0  0  0  0  0  0  0  0  0  0
   55.7270   24.6620   46.9320 N   0  0  0  0  0  0  0  0  0  0  0  0
   55.8960   25.9010   46.4440 C   0  0  0  0  0  0  0  0  0  0  0  0
   54.8470   26.7100   46.0190 O   0  0  0  0  0  0  0  0  0  0  0  0
   58.9340   28.1220   47.9480 C   0  0  0  0  0  0  0  0  0  0  0  0
   59.8430   29.1130   48.2560 C   0  0  0  0  0  0  0  0  0  0  0  0
   60.4020   29.3290   49.6040 C   0  0  0  0  0  0  0  0  0  0  0  0
   61.1620   28.4360   50.0690 O   0  0  0  0  0  0  0  0  0  0  0  0
   59.9860   30.4380   50.4520 N   0  0  0  0  0  0  0  0  0  0  0  0
   58.5640   30.7650   50.2260 C   0  0  0  0  0  0  0  0  0  0  0  0
   58.2450   32.1340   50.8330 C   0  0  0  0  0  0  0  0  0  0  0  0
   58.9160   32.3250   52.1260 N   0  0  0  0  0  0  0  0  0  0  0  0
   58.8280   33.6190   52.7600 C   0  0  0  0  0  0  0  0  0  0  0  0
   59.0660   33.7960   54.2300 C   0  0  0  0  0  0  0  0  0  0  0  0
   58.5640   34.6380   52.0680 O   0  0  0  0  0  0  0  0  0  0  0  0
   59.4940   31.1730   52.8380 C   0  0  0  0  0  0  0  0  0  0  0  0
   60.2190   30.1780   51.8950 C   0  0  0  0  0  0  0  0  0  0  0  0
   60.1550   29.8370   47.1570 N   0  0  0  0  0  0  0  0  0  0  0  0
   61.1330   30.9360   47.0950 C   0  0  0  0  0  0  0  0  0  0  0  0
   60.4520   32.2730   47.2650 C   0  0  0  0  0  0  0  0  0  0  0  0
   59.5910   32.7540   46.2620 C   0  0  0  0  0  0  0  0  0  0  0  0
   58.9560   33.9910   46.4060 C   0  0  0  0  0  0  0  0  0  0  0  0
   59.1770   34.7620   47.5490 C   0  0  0  0  0  0  0  0  0  0  0  0
   60.0440   34.3040   48.5440 C   0  0  0  0  0  0  0  0  0  0  0  0
   60.6880   33.0680   48.4020 C   0  0  0  0  0  0  0  0  0  0  0  0
   61.5320   32.6510   49.3810 F   0  0  0  0  0  0  0  0  0  0  0  0
  1  2  2  0
  2  3  1  0
  3  4  2  3
  4  5  1  0
  5  6  1  0
  6  7  1  0
  7  8  2  0
  7  9  1  0
  9 10  1  0
 10 11  1  0
  3 12  1  0
 12 13  2  0
 13 14  1  0
 14 15  2  0
 14 16  1  0
 16 17  1  0
 17 18  1  0
 18 19  1  0
 19 20  1  0
 20 21  1  0
 20 22  2  0
 19 23  1  0
 23 24  1  0
 13 25  1  0
 25 26  1  0
 26 27  1  0
 27 28  2  0
 28 29  1  0
 29 30  2  0
 30 31  1  0
 31 32  2  0
 32 33  1  0
 25  2  1  0
 32 27  1  0
 10  5  2  0
 24 16  1  0
M  CHG  4   6  -1   9  -1  11  -1  16   1
M  END
>  <UniqueID>  (2878) 
50

>  <SMILES>  (2878) 
C=c1c(=Cc2[n-]c(=O)[n-]c2[O-])cc(C(=O)[NH+]2CCN(C(C)=O)CC2)n1Cc1ccccc1F

>  <Energy>  (2878) 
141.29678587550504

>  <Genealogy>  (2878) 
C=c1c(=Cc2[n-]c(=O)[n-]c2[O-])cc(C(=O)[NH+]2CCN(C(C)=O)CC2)n1Cc1ccccc1F (protonated)
C=c1c(=Cc2[n-]c(=O)[n-]c2[O-])cc(C(=O)[NH+]2CCN(C(C)=O)CC2)n1Cc1ccccc1F (3D coordinates assigned)
C=c1c(=Cc2[n-]c(=O)[n-]c2[O-])cc(C(=O)[NH+]2CCN(C(C)=O)CC2)n1Cc1ccccc1F (nonaromatic ring conformer: 141.29678587550504 kcal/mol)

>  <smiles>  (2878) 
C=c1c(=Cc2[nH]c(=O)[nH]c2O)cc(C(=O)N2CCN(C(C)=O)CC2)n1Cc1ccccc1F

>  <score_type>  (2878) 
oracle

>  <origin>  (2878) 
adg

>  <m_score__min__energy>  (2878) 
-14.67

>  <m_primary>  (2878) 
energy

$$$$
53:0
     RDKit          3D

 34 38  0  0  0  0  0  0  0  0999 V2000
   55.0530   31.1620   52.0270 C   0  0  0  0  0  0  0  0  0  0  0  0
   54.9430   29.9320   52.5560 C   0  0  0  0  0  0  0  0  0  0  0  0
   53.7590   29.2220   52.8180 C   0  0  0  0  0  0  0  0  0  0  0  0
   52.4830   29.4650   52.4580 C   0  0  0  0  0  0  0  0  0  0  0  0
   51.9500   30.7590   52.0060 C   0  0  0  0  0  0  0  0  0  0  0  0
   51.5980   31.7520   52.8410 N   0  0  0  0  0  0  0  0  0  0  0  0
   51.0570   32.6760   52.0170 C   0  0  0  0  0  0  0  0  0  0  0  0
   50.6150   33.7770   52.4330 O   0  0  0  0  0  0  0  0  0  0  0  0
   51.0160   32.3210   50.7150 N   0  0  0  0  0  0  0  0  0  0  0  0
   51.5710   31.0980   50.7260 C   0  0  0  0  0  0  0  0  0  0  0  0
   51.7100   30.2980   49.5960 O   0  0  0  0  0  0  0  0  0  0  0  0
   54.1280   28.1190   53.5700 C   0  0  0  0  0  0  0  0  0  0  0  0
   55.5020   28.1490   53.6800 C   0  0  0  0  0  0  0  0  0  0  0  0
   56.3190   27.1100   54.3880 C   0  0  0  0  0  0  0  0  0  0  0  0
   55.9970   29.2500   53.0710 N   0  0  0  0  0  0  0  0  0  0  0  0
   57.3820   29.6260   53.0170 C   0  0  0  0  0  0  0  0  0  0  0  0
   58.1430   29.3310   53.9760 O   0  0  0  0  0  0  0  0  0  0  0  0
   57.9020   30.2970   51.8590 N   0  0  0  0  0  0  0  0  0  0  0  0
   58.3090   29.6020   50.6390 C   0  0  0  0  0  0  0  0  0  0  0  0
   59.0640   30.6450   49.7840 C   0  0  0  0  0  0  0  0  0  0  0  0
   59.0160   31.8860   50.6140 C   0  0  0  0  0  0  0  0  0  0  0  0
   59.4890   33.1720   50.2950 C   0  0  0  0  0  0  0  0  0  0  0  0
   60.2070   33.4440   49.0280 C   0  0  0  0  0  0  0  0  0  0  0  0
   61.4670   33.4530   49.0270 O   0  0  0  0  0  0  0  0  0  0  0  0
   59.4970   33.7170   47.8030 N   0  0  0  0  0  0  0  0  0  0  0  0
   58.1860   33.1070   47.5340 C   0  0  0  0  0  0  0  0  0  0  0  0
   58.1200   32.6300   46.0800 C   0  0  0  0  0  0  0  0  0  0  0  0
   58.4290   33.7560   45.0700 C   0  0  0  0  0  0  0  0  0  0  0  0
   59.1460   34.9680   45.6900 C   0  0  0  0  0  0  0  0  0  0  0  0
   60.1430   34.5500   46.7760 C   0  0  0  0  0  0  0  0  0  0  0  0
   59.2730   34.2040   51.2320 C   0  0  0  0  0  0  0  0  0  0  0  0
   58.5760   33.9510   52.4260 C   0  0  0  0  0  0  0  0  0  0  0  0
   58.0950   32.6650   52.7070 C   0  0  0  0  0  0  0  0  0  0  0  0
   58.3460   31.6430   51.7860 C   0  0  0  0  0  0  0  0  0  0  0  0
  1  2  2  0
  2  3  1  0
  3  4  2  3
  4  5  1  0
  5  6  1  0
  6  7  1  0
  7  8  2  0
  7  9  1  0
  9 10  1  0
 10 11  1  0
  3 12  1  0
 12 13  2  0
 13 14  1  0
 13 15  1  0
 15 16  1  0
 16 17  2  0
 16 18  1  0
 18 19  1  0
 19 20  1  0
 20 21  1  0
 21 22  2  0
 22 23  1  0
 23 24  2  0
 23 25  1  0
 25 26  1  0
 26 27  1  0
 27 28  1  0
 28 29  1  0
 29 30  1  0
 22 31  1  0
 31 32  2  0
 32 33  1  0
 33 34  2  0
 15  2  1  0
 34 18  1  0
 10  5  2  0
 34 21  1  0
 30 25  1  0
M  CHG  2   6  -1   9  -1
M  END
>  <UniqueID>  (2879) 
52

>  <SMILES>  (2879) 
C=c1c(=Cc2[n-]c(=O)[n-]c2O)cc(C)n1C(=O)N1CCc2c(C(=O)N3CCCCC3)cccc21

>  <Energy>  (2879) 
159.02280002281438

>  <Genealogy>  (2879) 
C=c1c(=Cc2[n-]c(=O)[n-]c2O)cc(C)n1C(=O)N1CCc2c(C(=O)N3CCCCC3)cccc21 (protonated)
C=c1c(=Cc2[n-]c(=O)[n-]c2O)cc(C)n1C(=O)N1CCc2c(C(=O)N3CCCCC3)cccc21 (3D coordinates assigned)
C=c1c(=Cc2[n-]c(=O)[n-]c2O)cc(C)n1C(=O)N1CCc2c(C(=O)N3CCCCC3)cccc21 (nonaromatic ring conformer: 159.02280002281438 kcal/mol)

>  <smiles>  (2879) 
C=c1c(=Cc2[nH]c(=O)[nH]c2O)cc(C)n1C(=O)N1CCc2c(C(=O)N3CCCCC3)cccc21

>  <score_type>  (2879) 
oracle

>  <origin>  (2879) 
adg

>  <m_score__min__energy>  (2879) 
-15.039999999999999

>  <m_primary>  (2879) 
energy

$$$$
55:0
     RDKit          3D

 25 27  0  0  0  0  0  0  0  0999 V2000
   60.4850   27.2120   46.3790 C   0  0  0  0  0  0  0  0  0  0  0  0
   59.6810   28.0570   45.7110 C   0  0  0  0  0  0  0  0  0  0  0  0
   60.0730   29.4070   45.6470 C   0  0  0  0  0  0  0  0  0  0  0  0
   59.1860   30.3930   45.2240 C   0  0  0  0  0  0  0  0  0  0  0  0
   57.8730   30.0620   44.8730 C   0  0  0  0  0  0  0  0  0  0  0  0
   56.9110   31.1160   44.4700 C   0  0  0  0  0  0  0  0  0  0  0  0
   56.2670   30.9860   43.3950 O   0  0  0  0  0  0  0  0  0  0  0  0
   56.7260   32.3120   45.2400 N   0  0  0  0  0  0  0  0  0  0  0  0
   57.7450   33.2580   45.5950 C   0  0  0  0  0  0  0  0  0  0  0  0
   58.2820   34.1520   44.6490 C   0  0  0  0  0  0  0  0  0  0  0  0
   59.2840   35.0520   45.0230 C   0  0  0  0  0  0  0  0  0  0  0  0
   59.7700   35.0570   46.3330 C   0  0  0  0  0  0  0  0  0  0  0  0
   59.2570   34.1560   47.2700 C   0  0  0  0  0  0  0  0  0  0  0  0
   58.2540   33.2540   46.9020 C   0  0  0  0  0  0  0  0  0  0  0  0
   57.7660   32.3830   47.8200 F   0  0  0  0  0  0  0  0  0  0  0  0
   57.4910   28.7130   44.8580 C   0  0  0  0  0  0  0  0  0  0  0  0
   58.3970   27.6830   45.1920 C   0  0  0  0  0  0  0  0  0  0  0  0
   57.9830   26.4090   44.9740 C   0  0  0  0  0  0  0  0  0  0  0  0
   57.2810   25.5460   45.9450 C   0  0  0  0  0  0  0  0  0  0  0  0
   57.7790   24.4080   46.4660 N   0  0  0  0  0  0  0  0  0  0  0  0
   56.7490   23.9220   47.1920 C   0  0  0  0  0  0  0  0  0  0  0  0
   56.8310   22.8540   47.8540 O   0  0  0  0  0  0  0  0  0  0  0  0
   55.6220   24.6650   47.1470 N   0  0  0  0  0  0  0  0  0  0  0  0
   55.9730   25.6810   46.3430 C   0  0  0  0  0  0  0  0  0  0  0  0
   55.1140   26.7100   45.9780 O   0  0  0  0  0  0  0  0  0  0  0  0
  1  2  2  0
  2  3  1  0
  3  4  2  0
  4  5  1  0
  5  6  1  0
  6  7  2  0
  6  8  1  0
  8  9  1  0
  9 10  2  0
 10 11  1  0
 11 12  2  0
 12 13  1  0
 13 14  2  0
 14 15  1  0
  5 16  2  0
 16 17  1  0
 17 18  2  0
 18 19  1  0
 19 20  1  0
 20 21  1  0
 21 22  2  0
 21 23  1  0
 23 24  1  0
 24 25  1  0
 17  2  1  0
 24 19  2  0
 14  9  1  0
M  CHG  4   8  -1  20  -1  23  -1  25  -1
M  END
>  <UniqueID>  (2880) 
54

>  <SMILES>  (2880) 
C=c1ccc(C(=O)[N-]c2ccccc2F)c/c1=C/c1[n-]c(=O)[n-]c1[O-]

>  <Energy>  (2880) 
94.45942375509321

>  <Genealogy>  (2880) 
C=c1ccc(C(=O)[N-]c2ccccc2F)cc1=Cc1[n-]c(=O)[n-]c1[O-] (protonated)
C=c1ccc(C(=O)[N-]c2ccccc2F)c/c1=C/c1[n-]c(=O)[n-]c1[O-] (cis-trans isomerization)
C=c1ccc(C(=O)[N-]c2ccccc2F)c/c1=C/c1[n-]c(=O)[n-]c1[O-] (3D coordinates assigned)
C=c1ccc(C(=O)[N-]c2ccccc2F)c/c1=C/c1[n-]c(=O)[n-]c1[O-] (optimized conformer: 94.45942375509321 kcal/mol)

>  <smiles>  (2880) 
C=c1ccc(C(=O)Nc2ccccc2F)cc1=Cc1[nH]c(=O)[nH]c1O

>  <score_type>  (2880) 
oracle

>  <origin>  (2880) 
adg

>  <m_score__min__energy>  (2880) 
-17.550000000000001

>  <m_primary>  (2880) 
energy

$$$$
62:0
     RDKit          3D

 33 36  0  0  0  0  0  0  0  0999 V2000
   59.3260   27.7850   47.2170 C   0  0  0  0  0  0  0  0  0  0  0  0
   58.8270   28.6020   46.2750 C   0  0  0  0  0  0  0  0  0  0  0  0
   57.9630   28.2550   45.2240 C   0  0  0  0  0  0  0  0  0  0  0  0
   57.5670   27.0520   44.7630 C   0  0  0  0  0  0  0  0  0  0  0  0
   57.0740   25.9380   45.5860 C   0  0  0  0  0  0  0  0  0  0  0  0
   57.8570   24.9380   46.0280 N   0  0  0  0  0  0  0  0  0  0  0  0
   57.0340   24.2310   46.8350 C   0  0  0  0  0  0  0  0  0  0  0  0
   57.4040   23.1880   47.4330 O   0  0  0  0  0  0  0  0  0  0  0  0
   55.7880   24.7360   46.9570 N   0  0  0  0  0  0  0  0  0  0  0  0
   55.8330   25.8260   46.1730 C   0  0  0  0  0  0  0  0  0  0  0  0
   54.7740   26.7100   46.0210 O   0  0  0  0  0  0  0  0  0  0  0  0
   57.5380   29.4470   44.6630 C   0  0  0  0  0  0  0  0  0  0  0  0
   58.1960   30.4610   45.3270 C   0  0  0  0  0  0  0  0  0  0  0  0
   58.0550   31.9170   44.9960 C   0  0  0  0  0  0  0  0  0  0  0  0
   58.9730   29.9520   46.3100 N   0  0  0  0  0  0  0  0  0  0  0  0
   59.7910   30.7080   47.2200 C   0  0  0  0  0  0  0  0  0  0  0  0
   59.2480   31.5560   47.9790 O   0  0  0  0  0  0  0  0  0  0  0  0
   61.2090   30.4790   47.2770 N   0  0  0  0  0  0  0  0  0  0  0  0
   62.1150   31.2250   48.1050 C   0  0  0  0  0  0  0  0  0  0  0  0
   62.9420   32.1930   47.5190 C   0  0  0  0  0  0  0  0  0  0  0  0
   63.8150   32.9500   48.3030 C   0  0  0  0  0  0  0  0  0  0  0  0
   63.8570   32.7700   49.6950 C   0  0  0  0  0  0  0  0  0  0  0  0
   64.7900   33.5690   50.5200 C   0  0  0  0  0  0  0  0  0  0  0  0
   64.3550   34.5930   51.1170 O   0  0  0  0  0  0  0  0  0  0  0  0
   66.1710   33.1910   50.6740 N   0  0  0  0  0  0  0  0  0  0  0  0
   66.5410   31.7780   50.8270 C   0  0  0  0  0  0  0  0  0  0  0  0
   67.8370   31.6380   51.6450 C   0  0  0  0  0  0  0  0  0  0  0  0
   67.8930   32.6100   52.7580 N   0  0  0  0  0  0  0  0  0  0  0  0
   66.8940   32.3080   53.7980 C   0  0  0  0  0  0  0  0  0  0  0  0
   67.8150   34.0260   52.3120 C   0  0  0  0  0  0  0  0  0  0  0  0
   67.1990   34.2090   50.9120 C   0  0  0  0  0  0  0  0  0  0  0  0
   63.0240   31.8050   50.2850 C   0  0  0  0  0  0  0  0  0  0  0  0
   62.1520   31.0470   49.4990 C   0  0  0  0  0  0  0  0  0  0  0  0
  1  2  2  0
  2  3  1  0
  3  4  2  3
  4  5  1  0
  5  6  1  0
  6  7  1  0
  7  8  2  0
  7  9  1  0
  9 10  1  0
 10 11  1  0
  3 12  1  0
 12 13  2  0
 13 14  1  0
 13 15  1  0
 15 16  1  0
 16 17  2  0
 16 18  1  0
 18 19  1  0
 19 20  2  0
 20 21  1  0
 21 22  2  0
 22 23  1  0
 23 24  2  0
 23 25  1  0
 25 26  1  0
 26 27  1  0
 27 28  1  0
 28 29  1  0
 28 30  1  0
 30 31  1  0
 22 32  1  0
 32 33  2  0
 15  2  1  0
 33 19  1  0
 10  5  2  0
 31 25  1  0
M  CHG  3   6  -1   9  -1  11  -1
M  END
>  <UniqueID>  (2881) 
60

>  <SMILES>  (2881) 
C=c1c(=Cc2[n-]c(=O)[n-]c2[O-])cc(C)n1C(=O)Nc1ccc(C(=O)N2CCN(C)CC2)cc1

>  <Energy>  (2881) 
150.44851781204912

>  <Genealogy>  (2881) 
C=c1c(=Cc2[n-]c(=O)[n-]c2[O-])cc(C)n1C(=O)Nc1ccc(C(=O)N2CCN(C)CC2)cc1 (protonated)
C=c1c(=Cc2[n-]c(=O)[n-]c2[O-])cc(C)n1C(=O)Nc1ccc(C(=O)N2CCN(C)CC2)cc1 (3D coordinates assigned)
C=c1c(=Cc2[n-]c(=O)[n-]c2[O-])cc(C)n1C(=O)Nc1ccc(C(=O)N2CCN(C)CC2)cc1 (nonaromatic ring conformer: 150.44851781204912 kcal/mol)

>  <smiles>  (2881) 
C=c1c(=Cc2[nH]c(=O)[nH]c2O)cc(C)n1C(=O)Nc1ccc(C(=O)N2CCN(C)CC2)cc1

>  <score_type>  (2881) 
oracle

>  <origin>  (2881) 
adg

>  <m_score__min__energy>  (2881) 
-16.77

>  <m_primary>  (2881) 
energy

$$$$
71:0
     RDKit          3D

 30 33  0  0  0  0  0  0  0  0999 V2000
   57.5920   29.8350   43.8540 C   0  0  0  0  0  0  0  0  0  0  0  0
   57.9470   29.5610   45.1200 C   0  0  0  0  0  0  0  0  0  0  0  0
   58.1180   28.2840   45.6810 C   0  0  0  0  0  0  0  0  0  0  0  0
   57.7750   27.0630   45.2260 C   0  0  0  0  0  0  0  0  0  0  0  0
   57.1910   25.9790   46.0330 C   0  0  0  0  0  0  0  0  0  0  0  0
   57.8590   24.8880   46.4510 N   0  0  0  0  0  0  0  0  0  0  0  0
   56.8950   24.1310   47.0180 C   0  0  0  0  0  0  0  0  0  0  0  0
   57.1340   23.0150   47.5490 O   0  0  0  0  0  0  0  0  0  0  0  0
   55.6540   24.6580   46.9620 N   0  0  0  0  0  0  0  0  0  0  0  0
   55.8580   25.8210   46.3210 C   0  0  0  0  0  0  0  0  0  0  0  0
   54.8450   26.7160   46.0030 O   0  0  0  0  0  0  0  0  0  0  0  0
   58.7350   28.4790   46.9020 C   0  0  0  0  0  0  0  0  0  0  0  0
   58.8540   29.8410   47.0800 C   0  0  0  0  0  0  0  0  0  0  0  0
   59.4400   30.4660   48.2850 C   0  0  0  0  0  0  0  0  0  0  0  0
   58.8810   30.2790   49.3980 O   0  0  0  0  0  0  0  0  0  0  0  0
   60.6780   31.2840   48.2160 C   0  0  0  0  0  0  0  0  0  0  0  0
   61.6180   31.0570   47.1930 C   0  0  0  0  0  0  0  0  0  0  0  0
   62.8000   31.8010   47.1370 C   0  0  0  0  0  0  0  0  0  0  0  0
   63.0630   32.7730   48.1050 C   0  0  0  0  0  0  0  0  0  0  0  0
   62.1450   33.0010   49.1310 C   0  0  0  0  0  0  0  0  0  0  0  0
   60.9590   32.2630   49.1900 C   0  0  0  0  0  0  0  0  0  0  0  0
   58.3600   30.5070   46.0070 N   0  0  0  0  0  0  0  0  0  0  0  0
   58.4570   31.9590   45.7760 C   0  0  0  0  0  0  0  0  0  0  0  0
   57.9220   32.7430   46.9810 C   0  0  0  0  0  0  0  0  0  0  0  0
   57.8860   34.1930   46.6800 N   0  0  0  0  0  0  0  0  0  0  0  0
   58.9430   34.9380   47.3910 C   0  0  0  0  0  0  0  0  0  0  0  0
   60.3450   34.6320   46.8140 C   0  0  0  0  0  0  0  0  0  0  0  0
   60.2970   34.0090   45.5420 O   0  0  0  0  0  0  0  0  0  0  0  0
   59.3710   34.6750   44.7090 C   0  0  0  0  0  0  0  0  0  0  0  0
   57.9310   34.4750   45.2260 C   0  0  0  0  0  0  0  0  0  0  0  0
  1  2  2  0
  2  3  1  0
  3  4  2  3
  4  5  1  0
  5  6  1  0
  6  7  1  0
  7  8  2  0
  7  9  1  0
  9 10  1  0
 10 11  1  0
  3 12  1  0
 12 13  2  0
 13 14  1  0
 14 15  2  0
 14 16  1  0
 16 17  2  0
 17 18  1  0
 18 19  2  0
 19 20  1  0
 20 21  2  0
 13 22  1  0
 22 23  1  0
 23 24  1  0
 24 25  1  0
 25 26  1  0
 26 27  1  0
 27 28  1  0
 28 29  1  0
 29 30  1  0
 22  2  1  0
 30 25  1  0
 10  5  2  0
 21 16  1  0
M  CHG  3   6  -1   9  -1  11  -1
M  END
>  <UniqueID>  (2882) 
69

>  <SMILES>  (2882) 
C=c1c(=Cc2[n-]c(=O)[n-]c2[O-])cc(C(=O)c2ccccc2)n1CCN1CCOCC1

>  <Energy>  (2882) 
137.77520878638478

>  <Genealogy>  (2882) 
C=c1c(=Cc2[n-]c(=O)[n-]c2[O-])cc(C(=O)c2ccccc2)n1CCN1CCOCC1 (protonated)
C=c1c(=Cc2[n-]c(=O)[n-]c2[O-])cc(C(=O)c2ccccc2)n1CCN1CCOCC1 (3D coordinates assigned)
C=c1c(=Cc2[n-]c(=O)[n-]c2[O-])cc(C(=O)c2ccccc2)n1CCN1CCOCC1 (nonaromatic ring conformer: 137.77520878638478 kcal/mol)

>  <smiles>  (2882) 
C=c1c(=Cc2[nH]c(=O)[nH]c2O)cc(C(=O)c2ccccc2)n1CCN1CCOCC1

>  <score_type>  (2882) 
oracle

>  <origin>  (2882) 
adg

>  <m_score__min__energy>  (2882) 
-16.739999999999998

>  <m_primary>  (2882) 
energy

$$$$
79:0
     RDKit          3D

 28 31  0  0  0  0  0  0  0  0999 V2000
   59.8820   27.8220   48.5660 C   0  0  0  0  0  0  0  0  0  0  0  0
   59.4720   28.9590   47.9820 C   0  0  0  0  0  0  0  0  0  0  0  0
   58.7720   29.0830   46.7690 C   0  0  0  0  0  0  0  0  0  0  0  0
   58.4690   28.1740   45.8220 C   0  0  0  0  0  0  0  0  0  0  0  0
   57.3970   27.1720   45.9050 C   0  0  0  0  0  0  0  0  0  0  0  0
   57.5880   25.6220   46.5290 S   0  0  0  0  0  0  0  0  0  0  0  0
   55.9440   25.2860   46.4200 C   0  0  0  0  0  0  0  0  0  0  0  0
   55.4220   24.1880   46.7470 O   0  0  0  0  0  0  0  0  0  0  0  0
   55.2290   26.3300   45.9510 N   0  0  0  0  0  0  0  0  0  0  0  0
   56.0360   27.3890   45.6800 C   0  0  0  0  0  0  0  0  0  0  0  0
   55.5220   28.6000   45.2330 O   0  0  0  0  0  0  0  0  0  0  0  0
   58.4210   30.4170   46.6590 C   0  0  0  0  0  0  0  0  0  0  0  0
   58.9450   31.0610   47.7590 C   0  0  0  0  0  0  0  0  0  0  0  0
   58.8120   32.5030   48.0030 C   0  0  0  0  0  0  0  0  0  0  0  0
   58.5750   32.9200   49.1680 O   0  0  0  0  0  0  0  0  0  0  0  0
   59.0080   33.4380   46.9440 N   0  0  0  0  0  0  0  0  0  0  0  0
   59.5300   33.4360   45.5640 C   0  0  0  0  0  0  0  0  0  0  0  0
   59.4190   34.9100   45.3520 C   0  0  0  0  0  0  0  0  0  0  0  0
   58.8990   34.8940   46.7520 C   0  0  0  0  0  0  0  0  0  0  0  0
   59.5940   30.1840   48.5620 N   0  0  0  0  0  0  0  0  0  0  0  0
   60.3990   30.5310   49.7430 C   0  0  0  0  0  0  0  0  0  0  0  0
   61.8920   30.4380   49.4130 C   0  0  0  0  0  0  0  0  0  0  0  0
   62.3540   31.6830   48.7040 C   0  0  0  0  0  0  0  0  0  0  0  0
   63.0530   31.5870   47.4890 C   0  0  0  0  0  0  0  0  0  0  0  0
   63.5110   32.7430   46.8490 C   0  0  0  0  0  0  0  0  0  0  0  0
   63.2860   33.9970   47.4220 C   0  0  0  0  0  0  0  0  0  0  0  0
   62.6040   34.0990   48.6380 C   0  0  0  0  0  0  0  0  0  0  0  0
   62.1420   32.9460   49.2810 C   0  0  0  0  0  0  0  0  0  0  0  0
  1  2  2  0
  2  3  1  0
  3  4  2  3
  4  5  1  0
  5  6  1  0
  6  7  1  0
  7  8  2  0
  7  9  1  0
  9 10  1  0
 10 11  1  0
  3 12  1  0
 12 13  2  0
 13 14  1  0
 14 15  2  0
 14 16  1  0
 16 17  1  0
 17 18  1  0
 18 19  1  0
 13 20  1  0
 20 21  1  0
 21 22  1  0
 22 23  1  0
 23 24  2  0
 24 25  1  0
 25 26  2  0
 26 27  1  0
 27 28  2  0
 20  2  1  0
 28 23  1  0
 10  5  2  0
 19 16  1  0
M  CHG  2   9  -1  11  -1
M  END
>  <UniqueID>  (2883) 
77

>  <SMILES>  (2883) 
C=c1c(=Cc2sc(=O)[n-]c2[O-])cc(C(=O)N2CCC2)n1CCc1ccccc1

>  <Energy>  (2883) 
167.2259352464418

>  <Genealogy>  (2883) 
C=c1c(=Cc2sc(=O)[n-]c2[O-])cc(C(=O)N2CCC2)n1CCc1ccccc1 (protonated)
C=c1c(=Cc2sc(=O)[n-]c2[O-])cc(C(=O)N2CCC2)n1CCc1ccccc1 (3D coordinates assigned)
C=c1c(=Cc2sc(=O)[n-]c2[O-])cc(C(=O)N2CCC2)n1CCc1ccccc1 (nonaromatic ring conformer: 167.2259352464418 kcal/mol)

>  <smiles>  (2883) 
C=c1c(=Cc2sc(=O)[nH]c2O)cc(C(=O)N2CCC2)n1CCc1ccccc1

>  <score_type>  (2883) 
oracle

>  <origin>  (2883) 
adg

>  <m_score__min__energy>  (2883) 
-14.6

>  <m_primary>  (2883) 
energy

$$$$
86:0
     RDKit          3D

 28 31  0  0  0  0  0  0  0  0999 V2000
   56.5710   29.1650   42.2620 C   0  0  0  0  0  0  0  0  0  0  0  0
   56.8210   30.2550   43.0080 C   0  0  0  0  0  0  0  0  0  0  0  0
   57.2330   31.4200   42.3300 C   0  0  0  0  0  0  0  0  0  0  0  0
   57.7660   32.5030   43.0230 C   0  0  0  0  0  0  0  0  0  0  0  0
   57.9070   32.4550   44.4120 C   0  0  0  0  0  0  0  0  0  0  0  0
   58.5280   33.5810   45.1470 C   0  0  0  0  0  0  0  0  0  0  0  0
   58.3640   34.7550   44.7150 O   0  0  0  0  0  0  0  0  0  0  0  0
   59.3070   33.3710   46.3420 N   0  0  0  0  0  0  0  0  0  0  0  0
   60.1340   32.1630   46.5030 C   0  0  0  0  0  0  0  0  0  0  0  0
   61.5130   32.4860   47.1230 C   0  0  0  0  0  0  0  0  0  0  0  0
   61.5370   33.7740   47.8500 N   0  0  0  0  0  0  0  0  0  0  0  0
   62.7510   33.9190   48.6940 C   0  0  0  0  0  0  0  0  0  0  0  0
   63.9950   33.1780   48.1660 C   0  0  0  0  0  0  0  0  0  0  0  0
   64.6350   32.5240   49.3800 C   0  0  0  0  0  0  0  0  0  0  0  0
   63.5000   32.2890   50.3610 C   0  0  0  0  0  0  0  0  0  0  0  0
   62.5170   33.4260   50.1310 C   0  0  0  0  0  0  0  0  0  0  0  0
   60.2500   34.0580   48.5150 C   0  0  0  0  0  0  0  0  0  0  0  0
   59.2220   34.3580   47.4280 C   0  0  0  0  0  0  0  0  0  0  0  0
   57.4650   31.3210   45.1080 C   0  0  0  0  0  0  0  0  0  0  0  0
   56.8340   30.2470   44.4410 C   0  0  0  0  0  0  0  0  0  0  0  0
   56.2630   29.2950   45.2230 C   0  0  0  0  0  0  0  0  0  0  0  0
   56.8810   28.0140   45.6220 C   0  0  0  0  0  0  0  0  0  0  0  0
   58.2020   27.7550   45.6000 N   0  0  0  0  0  0  0  0  0  0  0  0
   58.2690   26.4480   45.9290 C   0  0  0  0  0  0  0  0  0  0  0  0
   59.3600   25.8280   46.0270 O   0  0  0  0  0  0  0  0  0  0  0  0
   57.0740   25.8520   46.1360 N   0  0  0  0  0  0  0  0  0  0  0  0
   56.2070   26.8570   45.9250 C   0  0  0  0  0  0  0  0  0  0  0  0
   54.8280   26.7150   46.0050 O   0  0  0  0  0  0  0  0  0  0  0  0
  1  2  2  0
  2  3  1  0
  3  4  2  0
  4  5  1  0
  5  6  1  0
  6  7  2  0
  6  8  1  0
  8  9  1  0
  9 10  1  0
 10 11  1  0
 11 12  1  0
 12 13  1  0
 13 14  1  0
 14 15  1  0
 15 16  1  0
 11 17  1  0
 17 18  1  0
  5 19  2  0
 19 20  1  0
 20 21  2  0
 21 22  1  0
 22 23  1  0
 23 24  1  0
 24 25  2  0
 24 26  1  0
 26 27  1  0
 27 28  1  0
 20  2  1  0
 27 22  2  0
 18  8  1  0
 16 12  1  0
M  CHG  3  23  -1  26  -1  28  -1
M  END
>  <UniqueID>  (2884) 
84

>  <SMILES>  (2884) 
C=c1ccc(C(=O)N2CCN(C3CCCC3)CC2)c/c1=C/c1[n-]c(=O)[n-]c1[O-]

>  <Energy>  (2884) 
118.89387398729639

>  <Genealogy>  (2884) 
C=c1ccc(C(=O)N2CCN(C3CCCC3)CC2)cc1=Cc1[n-]c(=O)[n-]c1[O-] (protonated)
C=c1ccc(C(=O)N2CCN(C3CCCC3)CC2)c/c1=C/c1[n-]c(=O)[n-]c1[O-] (cis-trans isomerization)
C=c1ccc(C(=O)N2CCN(C3CCCC3)CC2)c/c1=C/c1[n-]c(=O)[n-]c1[O-] (3D coordinates assigned)
C=c1ccc(C(=O)N2CCN(C3CCCC3)CC2)c/c1=C/c1[n-]c(=O)[n-]c1[O-] (nonaromatic ring conformer: 118.89387398729639 kcal/mol)

>  <smiles>  (2884) 
C=c1ccc(C(=O)N2CCN(C3CCCC3)CC2)cc1=Cc1[nH]c(=O)[nH]c1O

>  <score_type>  (2884) 
oracle

>  <origin>  (2884) 
adg

>  <m_score__min__energy>  (2884) 
-18.02

>  <m_primary>  (2884) 
energy

$$$$
0:0
     RDKit          3D

 30 33  0  0  0  0  0  0  0  0999 V2000
   58.1700   29.3370   46.9890 C   0  0  0  0  0  0  0  0  0  0  0  0
   57.9560   29.7010   45.7140 C   0  0  0  0  0  0  0  0  0  0  0  0
   57.4850   28.8980   44.6580 C   0  0  0  0  0  0  0  0  0  0  0  0
   57.2290   27.5760   44.5930 C   0  0  0  0  0  0  0  0  0  0  0  0
   57.3000   26.6290   45.7220 C   0  0  0  0  0  0  0  0  0  0  0  0
   56.1280   26.2060   46.3640 C   0  0  0  0  0  0  0  0  0  0  0  0
   54.8900   26.7090   45.9830 O   0  0  0  0  0  0  0  0  0  0  0  0
   56.1980   25.3000   47.3740 N   0  0  0  0  0  0  0  0  0  0  0  0
   57.3900   24.7800   47.7690 C   0  0  0  0  0  0  0  0  0  0  0  0
   57.4310   23.9460   48.7100 O   0  0  0  0  0  0  0  0  0  0  0  0
   58.5350   25.1560   47.1440 N   0  0  0  0  0  0  0  0  0  0  0  0
   58.5180   26.0570   46.1280 C   0  0  0  0  0  0  0  0  0  0  0  0
   59.5980   26.3670   45.5590 O   0  0  0  0  0  0  0  0  0  0  0  0
   57.3240   29.7430   43.5720 C   0  0  0  0  0  0  0  0  0  0  0  0
   57.7250   30.9980   43.9760 C   0  0  0  0  0  0  0  0  0  0  0  0
   57.7530   32.2130   43.0980 C   0  0  0  0  0  0  0  0  0  0  0  0
   58.1150   30.9740   45.2680 N   0  0  0  0  0  0  0  0  0  0  0  0
   58.5700   32.1110   46.0190 C   0  0  0  0  0  0  0  0  0  0  0  0
   59.9000   32.1690   46.4610 C   0  0  0  0  0  0  0  0  0  0  0  0
   60.3660   33.2830   47.1820 C   0  0  0  0  0  0  0  0  0  0  0  0
   61.7360   33.3430   47.6340 N   0  0  0  0  0  0  0  0  0  0  0  0
   62.7920   33.8110   46.7270 C   0  0  0  0  0  0  0  0  0  0  0  0
   64.1330   33.0940   46.9960 C   0  0  0  0  0  0  0  0  0  0  0  0
   64.3250   32.6650   48.3990 N   0  0  0  0  0  0  0  0  0  0  0  0
   63.5100   33.4270   49.3530 C   0  0  0  0  0  0  0  0  0  0  0  0
   62.0240   33.1970   49.0680 C   0  0  0  0  0  0  0  0  0  0  0  0
   59.4810   34.3410   47.4500 C   0  0  0  0  0  0  0  0  0  0  0  0
   58.1570   34.2860   47.0060 C   0  0  0  0  0  0  0  0  0  0  0  0
   57.7010   33.1770   46.2900 C   0  0  0  0  0  0  0  0  0  0  0  0
   56.4180   33.1450   45.8480 F   0  0  0  0  0  0  0  0  0  0  0  0
  1  2  2  0
  2  3  1  0
  3  4  2  3
  4  5  1  0
  5  6  2  0
  6  7  1  0
  6  8  1  0
  8  9  1  0
  9 10  2  0
  9 11  1  0
 11 12  1  0
 12 13  2  0
  3 14  1  0
 14 15  2  0
 15 16  1  0
 15 17  1  0
 17 18  1  0
 18 19  2  0
 19 20  1  0
 20 21  1  0
 21 22  1  0
 22 23  1  0
 23 24  1  0
 24 25  1  0
 25 26  1  0
 20 27  2  0
 27 28  1  0
 28 29  2  0
 29 30  1  0
 17  2  1  0
 29 18  1  0
 12  5  1  0
 26 21  1  0
M  CHG  4   7  -1   8  -1  11  -1  24   1
M  END
>  <UniqueID>  (2885) 
1

>  <SMILES>  (2885) 
C=c1c(=Cc2c([O-])[n-]c(=O)[n-]c2=O)cc(C)n1-c1cc(N2CC[NH2+]CC2)ccc1F

>  <Energy>  (2885) 
110.70900053968036

>  <Genealogy>  (2885) 
C=c1c(=Cc2c([O-])[n-]c(=O)[n-]c2=O)cc(C)n1-c1cc(N2CC[NH2+]CC2)ccc1F (protonated)
C=c1c(=Cc2c([O-])[n-]c(=O)[n-]c2=O)cc(C)n1-c1cc(N2CC[NH2+]CC2)ccc1F (3D coordinates assigned)
C=c1c(=Cc2c([O-])[n-]c(=O)[n-]c2=O)cc(C)n1-c1cc(N2CC[NH2+]CC2)ccc1F (nonaromatic ring conformer: 110.70900053968036 kcal/mol)

>  <smiles>  (2885) 
C=c1c(=Cc2c(O)[nH]c(=O)[nH]c2=O)cc(C)n1-c1cc(N2CCNCC2)ccc1F

>  <score_type>  (2885) 
oracle

>  <origin>  (2885) 
adg

>  <m_score__min__energy>  (2885) 
-15.550000000000001

>  <m_primary>  (2885) 
energy

$$$$
4:0
     RDKit          3D

 31 34  0  0  0  0  0  0  0  0999 V2000
   66.4690   32.9370   49.7340 N   0  0  0  0  0  0  0  0  0  0  0  0
   64.9440   32.6910   50.5070 S   0  0  0  0  0  0  0  0  0  0  0  0
   64.7380   33.7430   51.5600 O   0  0  0  0  0  0  0  0  0  0  0  0
   64.9250   31.3390   51.1640 O   0  0  0  0  0  0  0  0  0  0  0  0
   63.6590   32.7880   49.3070 C   0  0  0  0  0  0  0  0  0  0  0  0
   63.8140   32.1730   48.0580 C   0  0  0  0  0  0  0  0  0  0  0  0
   62.7930   32.2480   47.1080 C   0  0  0  0  0  0  0  0  0  0  0  0
   61.6100   32.9320   47.4000 C   0  0  0  0  0  0  0  0  0  0  0  0
   61.4380   33.5400   48.6520 C   0  0  0  0  0  0  0  0  0  0  0  0
   60.1820   34.3080   48.9670 C   0  0  0  0  0  0  0  0  0  0  0  0
   59.2470   34.2270   47.8340 N   0  0  0  0  0  0  0  0  0  0  0  0
   59.1080   35.3640   46.9250 C   0  0  0  0  0  0  0  0  0  0  0  0
   59.7390   35.0250   45.5800 C   0  0  0  0  0  0  0  0  0  0  0  0
   58.8850   34.1680   44.8360 O   0  0  0  0  0  0  0  0  0  0  0  0
   58.6120   32.8140   45.0980 C   0  0  0  0  0  0  0  0  0  0  0  0
   58.5310   31.9800   43.9770 C   0  0  0  0  0  0  0  0  0  0  0  0
   58.2640   30.6190   44.1070 C   0  0  0  0  0  0  0  0  0  0  0  0
   58.0670   30.0530   45.3720 C   0  0  0  0  0  0  0  0  0  0  0  0
   57.7830   28.6020   45.5130 C   0  0  0  0  0  0  0  0  0  0  0  0
   58.8350   27.6660   45.5280 C   0  0  0  0  0  0  0  0  0  0  0  0
   58.5670   26.3000   45.6630 C   0  0  0  0  0  0  0  0  0  0  0  0
   57.2490   25.8520   45.7840 C   0  0  0  0  0  0  0  0  0  0  0  0
   56.9900   24.4940   45.9180 O   0  0  0  0  0  0  0  0  0  0  0  0
   56.1950   26.7730   45.7690 C   0  0  0  0  0  0  0  0  0  0  0  0
   54.8810   26.3310   45.8860 O   0  0  0  0  0  0  0  0  0  0  0  0
   56.4590   28.1400   45.6360 C   0  0  0  0  0  0  0  0  0  0  0  0
   58.1420   30.8800   46.5040 C   0  0  0  0  0  0  0  0  0  0  0  0
   58.4190   32.2580   46.3950 C   0  0  0  0  0  0  0  0  0  0  0  0
   58.4450   33.0380   47.6620 C   0  0  0  0  0  0  0  0  0  0  0  0
   57.7830   32.5990   48.6420 O   0  0  0  0  0  0  0  0  0  0  0  0
   62.4680   33.4650   49.6040 C   0  0  0  0  0  0  0  0  0  0  0  0
  1  2  1  0
  2  3  2  0
  2  4  2  0
  2  5  1  0
  5  6  2  0
  6  7  1  0
  7  8  2  0
  8  9  1  0
  9 10  1  0
 10 11  1  0
 11 12  1  0
 12 13  1  0
 13 14  1  0
 14 15  1  0
 15 16  2  0
 16 17  1  0
 17 18  2  0
 18 19  1  0
 19 20  2  0
 20 21  1  0
 21 22  2  0
 22 23  1  0
 22 24  1  0
 24 25  1  0
 24 26  2  0
 18 27  1  0
 27 28  2  0
 28 29  1  0
 29 30  2  0
  9 31  2  0
 31  5  1  0
 29 11  1  0
 28 15  1  0
 26 19  1  0
M  CHG  3   1  -1  23  -1  25  -1
M  END
>  <UniqueID>  (2886) 
5

>  <SMILES>  (2886) 
[NH-]S(=O)(=O)c1cccc(CN2CCOc3ccc(-c4ccc([O-])c([O-])c4)cc3C2=O)c1

>  <Energy>  (2886) 
66.86617479974225

>  <Genealogy>  (2886) 
[NH-]S(=O)(=O)c1cccc(CN2CCOc3ccc(-c4ccc([O-])c([O-])c4)cc3C2=O)c1 (protonated)
[NH-]S(=O)(=O)c1cccc(CN2CCOc3ccc(-c4ccc([O-])c([O-])c4)cc3C2=O)c1 (3D coordinates assigned)
[NH-]S(=O)(=O)c1cccc(CN2CCOc3ccc(-c4ccc([O-])c([O-])c4)cc3C2=O)c1 (nonaromatic ring conformer: 66.86617479974225 kcal/mol)

>  <smiles>  (2886) 
NS(=O)(=O)c1cccc(CN2CCOc3ccc(-c4ccc(O)c(O)c4)cc3C2=O)c1

>  <score_type>  (2886) 
oracle

>  <origin>  (2886) 
adg

>  <m_score__min__energy>  (2886) 
-14.93

>  <m_primary>  (2886) 
energy

$$$$
13:0
     RDKit          3D

 34 37  0  0  0  0  0  0  0  0999 V2000
   55.1370   30.0990   43.6060 C   0  0  0  0  0  0  0  0  0  0  0  0
   56.1600   29.6600   44.3430 C   0  0  0  0  0  0  0  0  0  0  0  0
   56.1150   28.5190   45.0600 N   0  0  0  0  0  0  0  0  0  0  0  0
   57.3200   28.3880   45.6610 C   0  0  0  0  0  0  0  0  0  0  0  0
   57.7020   27.3880   46.4780 C   0  0  0  0  0  0  0  0  0  0  0  0
   57.0930   26.0420   46.5580 C   0  0  0  0  0  0  0  0  0  0  0  0
   57.7330   24.8970   46.8600 N   0  0  0  0  0  0  0  0  0  0  0  0
   56.7570   23.9650   46.8090 C   0  0  0  0  0  0  0  0  0  0  0  0
   56.9740   22.7450   47.0260 O   0  0  0  0  0  0  0  0  0  0  0  0
   55.5340   24.4430   46.5020 N   0  0  0  0  0  0  0  0  0  0  0  0
   55.7640   25.7570   46.3490 C   0  0  0  0  0  0  0  0  0  0  0  0
   54.7770   26.6790   46.0230 O   0  0  0  0  0  0  0  0  0  0  0  0
   58.1370   29.4560   45.3260 C   0  0  0  0  0  0  0  0  0  0  0  0
   57.3970   30.2730   44.4920 C   0  0  0  0  0  0  0  0  0  0  0  0
   57.8980   31.5430   43.8580 C   0  0  0  0  0  0  0  0  0  0  0  0
   58.4060   32.4980   44.9070 C   0  0  0  0  0  0  0  0  0  0  0  0
   58.8730   33.7680   44.5380 C   0  0  0  0  0  0  0  0  0  0  0  0
   59.3500   34.6530   45.5080 C   0  0  0  0  0  0  0  0  0  0  0  0
   59.3580   34.2810   46.8540 C   0  0  0  0  0  0  0  0  0  0  0  0
   58.8920   33.0150   47.2440 C   0  0  0  0  0  0  0  0  0  0  0  0
   58.8640   32.6340   48.6740 C   0  0  0  0  0  0  0  0  0  0  0  0
   57.7830   32.7090   49.3190 O   0  0  0  0  0  0  0  0  0  0  0  0
   60.0550   32.1950   49.3420 N   0  0  0  0  0  0  0  0  0  0  0  0
   60.3580   32.7140   50.6820 C   0  0  0  0  0  0  0  0  0  0  0  0
   61.8810   32.7560   50.9480 C   0  0  0  0  0  0  0  0  0  0  0  0
   62.6640   32.0340   49.9210 N   0  0  0  0  0  0  0  0  0  0  0  0
   64.0720   31.8690   50.3440 C   0  0  0  0  0  0  0  0  0  0  0  0
   64.8980   33.0930   49.9400 C   0  0  0  0  0  0  0  0  0  0  0  0
   64.5710   34.1670   50.7500 F   0  0  0  0  0  0  0  0  0  0  0  0
   64.6610   33.4330   48.6230 F   0  0  0  0  0  0  0  0  0  0  0  0
   66.6350   32.7450   50.1300 Cl  0  0  0  0  0  0  0  0  0  0  0  0
   62.0300   30.7380   49.6240 C   0  0  0  0  0  0  0  0  0  0  0  0
   60.7330   30.9890   48.8520 C   0  0  0  0  0  0  0  0  0  0  0  0
   58.4130   32.1280   46.2630 C   0  0  0  0  0  0  0  0  0  0  0  0
  1  2  2  0
  2  3  1  0
  3  4  1  0
  4  5  2  3
  5  6  1  0
  6  7  1  0
  7  8  1  0
  8  9  2  0
  8 10  1  0
 10 11  1  0
 11 12  1  0
  4 13  1  0
 13 14  2  0
 14 15  1  0
 15 16  1  0
 16 17  2  0
 17 18  1  0
 18 19  2  0
 19 20  1  0
 20 21  1  0
 21 22  2  0
 21 23  1  0
 23 24  1  0
 24 25  1  0
 25 26  1  0
 26 27  1  0
 27 28  1  0
 28 29  1  0
 28 30  1  0
 28 31  1  0
 26 32  1  0
 32 33  1  0
 20 34  2  0
 14  2  1  0
 34 16  1  0
 11  6  2  0
 33 23  1  0
M  CHG  3   7  -1  10  -1  12  -1
M  END
>  <UniqueID>  (2887) 
14

>  <SMILES>  (2887) 
C=c1[nH]c(=Cc2[n-]c(=O)[n-]c2[O-])cc1Cc1cccc(C(=O)N2CCN(CC(F)(F)Cl)CC2)c1

>  <Energy>  (2887) 
126.02200705022788

>  <Genealogy>  (2887) 
C=c1[nH]c(=Cc2[n-]c(=O)[n-]c2[O-])cc1Cc1cccc(C(=O)N2CCN(CC(F)(F)Cl)CC2)c1 (protonated)
C=c1[nH]c(=Cc2[n-]c(=O)[n-]c2[O-])cc1Cc1cccc(C(=O)N2CCN(CC(F)(F)Cl)CC2)c1 (3D coordinates assigned)
C=c1[nH]c(=Cc2[n-]c(=O)[n-]c2[O-])cc1Cc1cccc(C(=O)N2CCN(CC(F)(F)Cl)CC2)c1 (nonaromatic ring conformer: 126.02200705022788 kcal/mol)

>  <smiles>  (2887) 
C=c1[nH]c(=Cc2[nH]c(=O)[nH]c2O)cc1Cc1cccc(C(=O)N2CCN(CC(F)(F)Cl)CC2)c1

>  <score_type>  (2887) 
oracle

>  <origin>  (2887) 
adg

>  <m_score__min__energy>  (2887) 
-19.120000000000001

>  <m_primary>  (2887) 
energy

$$$$
37:0
     RDKit          3D

 35 39  0  0  0  0  0  0  0  0999 V2000
   58.1220   27.2650   43.0170 C   0  0  0  0  0  0  0  0  0  0  0  0
   58.3740   26.8310   44.2640 C   0  0  0  0  0  0  0  0  0  0  0  0
   57.8160   25.7010   44.8740 C   0  0  0  0  0  0  0  0  0  0  0  0
   56.9160   24.8480   44.3390 C   0  0  0  0  0  0  0  0  0  0  0  0
   55.5900   24.5300   44.9130 C   0  0  0  0  0  0  0  0  0  0  0  0
   54.9340   23.3630   44.7850 N   0  0  0  0  0  0  0  0  0  0  0  0
   53.7710   23.5810   45.4350 C   0  0  0  0  0  0  0  0  0  0  0  0
   52.8780   22.7000   45.5400 O   0  0  0  0  0  0  0  0  0  0  0  0
   53.6390   24.8160   45.9630 N   0  0  0  0  0  0  0  0  0  0  0  0
   54.7950   25.4050   45.6180 C   0  0  0  0  0  0  0  0  0  0  0  0
   55.1190   26.7170   45.9440 O   0  0  0  0  0  0  0  0  0  0  0  0
   58.3390   25.6630   46.1590 C   0  0  0  0  0  0  0  0  0  0  0  0
   59.1870   26.7460   46.2850 C   0  0  0  0  0  0  0  0  0  0  0  0
   59.8940   27.1050   47.5320 C   0  0  0  0  0  0  0  0  0  0  0  0
   60.8330   26.3790   47.9570 O   0  0  0  0  0  0  0  0  0  0  0  0
   59.5350   28.2760   48.2680 N   0  0  0  0  0  0  0  0  0  0  0  0
   59.9310   28.8970   49.5440 C   0  0  0  0  0  0  0  0  0  0  0  0
   58.9200   29.9960   49.5080 C   0  0  0  0  0  0  0  0  0  0  0  0
   58.5370   29.3600   48.2130 C   0  0  0  0  0  0  0  0  0  0  0  0
   59.2190   27.4520   45.1270 N   0  0  0  0  0  0  0  0  0  0  0  0
   60.0140   28.6630   44.8630 C   0  0  0  0  0  0  0  0  0  0  0  0
   59.1770   29.9000   45.0190 C   0  0  0  0  0  0  0  0  0  0  0  0
   57.8910   30.1040   44.5450 C   0  0  0  0  0  0  0  0  0  0  0  0
   57.4960   31.3390   45.0180 C   0  0  0  0  0  0  0  0  0  0  0  0
   58.4830   31.8800   45.7590 N   0  0  0  0  0  0  0  0  0  0  0  0
   58.4170   33.1390   46.5000 C   0  0  0  0  0  0  0  0  0  0  0  0
   59.2300   33.0690   47.7700 C   0  0  0  0  0  0  0  0  0  0  0  0
   58.6280   32.9850   48.8780 O   0  0  0  0  0  0  0  0  0  0  0  0
   60.6750   33.1360   47.7460 N   0  0  0  0  0  0  0  0  0  0  0  0
   61.3990   33.2850   46.4740 C   0  0  0  0  0  0  0  0  0  0  0  0
   62.7990   33.8620   46.7090 C   0  0  0  0  0  0  0  0  0  0  0  0
   63.4810   33.1400   47.7150 O   0  0  0  0  0  0  0  0  0  0  0  0
   62.8200   33.3230   48.9510 C   0  0  0  0  0  0  0  0  0  0  0  0
   61.4300   32.6830   48.9230 C   0  0  0  0  0  0  0  0  0  0  0  0
   59.5060   31.0030   45.7790 C   0  0  0  0  0  0  0  0  0  0  0  0
  1  2  2  0
  2  3  1  0
  3  4  2  0
  4  5  1  0
  5  6  1  0
  6  7  1  0
  7  8  2  0
  7  9  1  0
  9 10  1  0
 10 11  1  0
  3 12  1  0
 12 13  2  0
 13 14  1  0
 14 15  2  0
 14 16  1  0
 16 17  1  0
 17 18  1  0
 18 19  1  0
 13 20  1  0
 20 21  1  0
 21 22  1  0
 22 23  1  0
 23 24  2  0
 24 25  1  0
 25 26  1  0
 26 27  1  0
 27 28  2  0
 27 29  1  0
 29 30  1  0
 30 31  1  0
 31 32  1  0
 32 33  1  0
 33 34  1  0
 25 35  1  0
 20  2  1  0
 35 22  2  0
 10  5  2  0
 19 16  1  0
 34 29  1  0
M  CHG  3   6  -1   9  -1  11  -1
M  END
>  <UniqueID>  (2888) 
37

>  <SMILES>  (2888) 
C=c1/c(=C/c2[n-]c(=O)[n-]c2[O-])cc(C(=O)N2CCC2)n1Cc1ccn(CC(=O)N2CCOCC2)c1

>  <Energy>  (2888) 
198.47348637687182

>  <Genealogy>  (2888) 
C=c1c(=Cc2[n-]c(=O)[n-]c2[O-])cc(C(=O)N2CCC2)n1Cc1ccn(CC(=O)N2CCOCC2)c1 (protonated)
C=c1/c(=C/c2[n-]c(=O)[n-]c2[O-])cc(C(=O)N2CCC2)n1Cc1ccn(CC(=O)N2CCOCC2)c1 (cis-trans isomerization)
C=c1/c(=C/c2[n-]c(=O)[n-]c2[O-])cc(C(=O)N2CCC2)n1Cc1ccn(CC(=O)N2CCOCC2)c1 (3D coordinates assigned)
C=c1/c(=C/c2[n-]c(=O)[n-]c2[O-])cc(C(=O)N2CCC2)n1Cc1ccn(CC(=O)N2CCOCC2)c1 (nonaromatic ring conformer: 198.47348637687182 kcal/mol)

>  <smiles>  (2888) 
C=c1c(=Cc2[nH]c(=O)[nH]c2O)cc(C(=O)N2CCC2)n1Cc1ccn(CC(=O)N2CCOCC2)c1

>  <score_type>  (2888) 
oracle

>  <origin>  (2888) 
adg

>  <m_score__min__energy>  (2888) 
-17.09

>  <m_primary>  (2888) 
energy

$$$$
44:0
     RDKit          3D

 25 27  0  0  0  0  0  0  0  0999 V2000
   59.0630   26.2440   46.6890 C   0  0  0  0  0  0  0  0  0  0  0  0
   58.6290   27.1260   45.7510 N   0  0  0  0  0  0  0  0  0  0  0  0
   57.3100   27.2950   45.4570 C   0  0  0  0  0  0  0  0  0  0  0  0
   57.0010   28.1610   44.5300 N   0  0  0  0  0  0  0  0  0  0  0  0
   56.3550   29.4310   44.6880 C   0  0  0  0  0  0  0  0  0  0  0  0
   55.2040   29.4640   45.2000 O   0  0  0  0  0  0  0  0  0  0  0  0
   57.0460   30.6980   44.3390 C   0  0  0  0  0  0  0  0  0  0  0  0
   57.1260   31.1300   43.0040 C   0  0  0  0  0  0  0  0  0  0  0  0
   57.7710   32.3260   42.6840 C   0  0  0  0  0  0  0  0  0  0  0  0
   58.3520   33.1010   43.6890 C   0  0  0  0  0  0  0  0  0  0  0  0
   58.3030   32.6820   45.0280 C   0  0  0  0  0  0  0  0  0  0  0  0
   58.9190   33.5120   46.0910 C   0  0  0  0  0  0  0  0  0  0  0  0
   58.2340   33.8370   47.0980 O   0  0  0  0  0  0  0  0  0  0  0  0
   60.2990   33.9040   46.0470 N   0  0  0  0  0  0  0  0  0  0  0  0
   61.1750   33.7070   46.9890 C   0  0  0  0  0  0  0  0  0  0  0  0
   62.8390   33.4980   46.7770 S   0  0  0  0  0  0  0  0  0  0  0  0
   63.1240   33.3670   48.4310 C   0  0  0  0  0  0  0  0  0  0  0  0
   64.4680   33.2330   49.0650 C   0  0  0  0  0  0  0  0  0  0  0  0
   61.9180   33.5250   49.1070 C   0  0  0  0  0  0  0  0  0  0  0  0
   60.8420   33.7090   48.2980 N   0  0  0  0  0  0  0  0  0  0  0  0
   57.6360   31.4850   45.3450 C   0  0  0  0  0  0  0  0  0  0  0  0
   56.3480   26.5440   46.1830 C   0  0  0  0  0  0  0  0  0  0  0  0
   54.9800   26.7090   45.9980 O   0  0  0  0  0  0  0  0  0  0  0  0
   56.7850   25.6270   47.1430 C   0  0  0  0  0  0  0  0  0  0  0  0
   58.1450   25.4710   47.3980 C   0  0  0  0  0  0  0  0  0  0  0  0
  1  2  1  0
  2  3  1  0
  3  4  2  3
  4  5  1  0
  5  6  2  0
  5  7  1  0
  7  8  2  0
  8  9  1  0
  9 10  2  0
 10 11  1  0
 11 12  1  0
 12 13  2  0
 12 14  1  0
 14 15  2  0
 15 16  1  0
 16 17  1  0
 17 18  1  0
 17 19  2  0
 19 20  1  0
 11 21  2  0
  3 22  1  0
 22 23  1  0
 22 24  2  0
 24 25  1  0
 25  1  2  0
 21  7  1  0
 20 15  1  0
M  CHG  2   2  -1  23  -1
M  END
>  <UniqueID>  (2889) 
43

>  <SMILES>  (2889) 
Cc1c[nH]/c(=N/C(=O)c2cccc(C(=O)N=c3[n-]cccc3[O-])c2)s1

>  <Energy>  (2889) 
91.37770664149315

>  <Genealogy>  (2889) 
Cc1c[nH]c(=NC(=O)c2cccc(C(=O)N=c3[n-]cccc3[O-])c2)s1 (protonated)
Cc1c[nH]/c(=N/C(=O)c2cccc(C(=O)N=c3[n-]cccc3[O-])c2)s1 (cis-trans isomerization)
Cc1c[nH]/c(=N/C(=O)c2cccc(C(=O)N=c3[n-]cccc3[O-])c2)s1 (3D coordinates assigned)
Cc1c[nH]/c(=N/C(=O)c2cccc(C(=O)N=c3[n-]cccc3[O-])c2)s1 (optimized conformer: 91.37770664149315 kcal/mol)

>  <smiles>  (2889) 
Cc1c[nH]c(=NC(=O)c2cccc(C(=O)N=c3[nH]cccc3O)c2)s1

>  <score_type>  (2889) 
oracle

>  <origin>  (2889) 
adg

>  <m_score__min__energy>  (2889) 
-14.199999999999999

>  <m_primary>  (2889) 
energy

$$$$
45:0
     RDKit          3D

 31 34  0  0  0  0  0  0  0  0999 V2000
   59.2510   29.8070   46.9780 C   0  0  0  0  0  0  0  0  0  0  0  0
   58.4580   29.3010   46.0160 C   0  0  0  0  0  0  0  0  0  0  0  0
   57.9650   27.9840   45.9310 C   0  0  0  0  0  0  0  0  0  0  0  0
   58.0800   26.9340   46.7660 C   0  0  0  0  0  0  0  0  0  0  0  0
   57.2530   25.7280   46.7280 C   0  0  0  0  0  0  0  0  0  0  0  0
   57.6890   24.5010   47.0680 N   0  0  0  0  0  0  0  0  0  0  0  0
   56.5900   23.7330   46.9130 C   0  0  0  0  0  0  0  0  0  0  0  0
   56.5960   22.4940   47.1340 O   0  0  0  0  0  0  0  0  0  0  0  0
   55.4870   24.3960   46.5010 N   0  0  0  0  0  0  0  0  0  0  0  0
   55.9240   25.6600   46.3970 C   0  0  0  0  0  0  0  0  0  0  0  0
   55.1270   26.7280   45.9970 O   0  0  0  0  0  0  0  0  0  0  0  0
   57.2610   27.9120   44.7440 C   0  0  0  0  0  0  0  0  0  0  0  0
   57.3250   29.1560   44.1580 C   0  0  0  0  0  0  0  0  0  0  0  0
   56.6270   29.5130   42.8770 C   0  0  0  0  0  0  0  0  0  0  0  0
   58.0480   30.0090   44.9250 N   0  0  0  0  0  0  0  0  0  0  0  0
   58.3060   31.4290   44.6100 C   0  0  0  0  0  0  0  0  0  0  0  0
   57.0230   32.2670   44.6870 C   0  0  0  0  0  0  0  0  0  0  0  0
   57.2880   33.6590   45.1940 C   0  0  0  0  0  0  0  0  0  0  0  0
   56.9070   34.6440   44.5040 O   0  0  0  0  0  0  0  0  0  0  0  0
   58.0300   33.8900   46.4060 N   0  0  0  0  0  0  0  0  0  0  0  0
   59.0420   34.9580   46.4310 C   0  0  0  0  0  0  0  0  0  0  0  0
   59.8130   34.9660   47.7570 C   0  0  0  0  0  0  0  0  0  0  0  0
   60.1220   33.5860   48.1550 N   0  0  0  0  0  0  0  0  0  0  0  0
   61.4840   33.1610   48.3310 C   0  0  0  0  0  0  0  0  0  0  0  0
   61.8680   32.4870   49.5020 C   0  0  0  0  0  0  0  0  0  0  0  0
   63.2060   32.1360   49.7040 C   0  0  0  0  0  0  0  0  0  0  0  0
   64.1640   32.4380   48.7300 C   0  0  0  0  0  0  0  0  0  0  0  0
   63.7860   33.0920   47.5560 C   0  0  0  0  0  0  0  0  0  0  0  0
   62.4510   33.4570   47.3580 C   0  0  0  0  0  0  0  0  0  0  0  0
   59.0470   32.5840   48.2130 C   0  0  0  0  0  0  0  0  0  0  0  0
   57.7410   33.1390   47.6360 C   0  0  0  0  0  0  0  0  0  0  0  0
  1  2  2  0
  2  3  1  0
  3  4  2  3
  4  5  1  0
  5  6  1  0
  6  7  1  0
  7  8  2  0
  7  9  1  0
  9 10  1  0
 10 11  1  0
  3 12  1  0
 12 13  2  0
 13 14  1  0
 13 15  1  0
 15 16  1  0
 16 17  1  0
 17 18  1  0
 18 19  2  0
 18 20  1  0
 20 21  1  0
 21 22  1  0
 22 23  1  0
 23 24  1  0
 24 25  2  0
 25 26  1  0
 26 27  2  0
 27 28  1  0
 28 29  2  0
 23 30  1  0
 30 31  1  0
 15  2  1  0
 31 20  1  0
 10  5  2  0
 29 24  1  0
M  CHG  3   6  -1   9  -1  11  -1
M  END
>  <UniqueID>  (2890) 
44

>  <SMILES>  (2890) 
C=c1c(=Cc2[n-]c(=O)[n-]c2[O-])cc(C)n1CCC(=O)N1CCN(c2ccccc2)CC1

>  <Energy>  (2890) 
128.8707512741676

>  <Genealogy>  (2890) 
C=c1c(=Cc2[n-]c(=O)[n-]c2[O-])cc(C)n1CCC(=O)N1CCN(c2ccccc2)CC1 (protonated)
C=c1c(=Cc2[n-]c(=O)[n-]c2[O-])cc(C)n1CCC(=O)N1CCN(c2ccccc2)CC1 (3D coordinates assigned)
C=c1c(=Cc2[n-]c(=O)[n-]c2[O-])cc(C)n1CCC(=O)N1CCN(c2ccccc2)CC1 (nonaromatic ring conformer: 128.8707512741676 kcal/mol)

>  <smiles>  (2890) 
C=c1c(=Cc2[nH]c(=O)[nH]c2O)cc(C)n1CCC(=O)N1CCN(c2ccccc2)CC1

>  <score_type>  (2890) 
oracle

>  <origin>  (2890) 
adg

>  <m_score__min__energy>  (2890) 
-17.989999999999998

>  <m_primary>  (2890) 
energy

$$$$
46:0
     RDKit          3D

 28 31  0  0  0  0  0  0  0  0999 V2000
   56.1840   32.2510   52.2640 C   0  0  0  0  0  0  0  0  0  0  0  0
   55.6840   31.0380   52.5560 C   0  0  0  0  0  0  0  0  0  0  0  0
   54.4870   30.4930   52.0590 C   0  0  0  0  0  0  0  0  0  0  0  0
   53.4680   31.0590   51.3820 C   0  0  0  0  0  0  0  0  0  0  0  0
   52.2650   31.6590   51.9810 C   0  0  0  0  0  0  0  0  0  0  0  0
   51.8230   31.4090   53.2280 N   0  0  0  0  0  0  0  0  0  0  0  0
   50.6390   32.0590   53.2740 C   0  0  0  0  0  0  0  0  0  0  0  0
   49.9150   32.0740   54.3030 O   0  0  0  0  0  0  0  0  0  0  0  0
   50.2880   32.6790   52.1280 N   0  0  0  0  0  0  0  0  0  0  0  0
   51.3210   32.4030   51.3170 C   0  0  0  0  0  0  0  0  0  0  0  0
   51.3980   32.8200   49.9940 O   0  0  0  0  0  0  0  0  0  0  0  0
   54.4870   29.1600   52.4230 C   0  0  0  0  0  0  0  0  0  0  0  0
   55.6150   28.9530   53.1860 C   0  0  0  0  0  0  0  0  0  0  0  0
   55.9910   27.6290   53.7830 C   0  0  0  0  0  0  0  0  0  0  0  0
   56.3530   30.0870   53.2680 N   0  0  0  0  0  0  0  0  0  0  0  0
   57.6350   30.2090   53.9870 C   0  0  0  0  0  0  0  0  0  0  0  0
   58.7190   30.7540   53.0850 C   0  0  0  0  0  0  0  0  0  0  0  0
   59.5780   31.7610   53.5520 C   0  0  0  0  0  0  0  0  0  0  0  0
   60.5890   32.2680   52.7330 C   0  0  0  0  0  0  0  0  0  0  0  0
   60.7630   31.7870   51.4220 C   0  0  0  0  0  0  0  0  0  0  0  0
   61.8120   32.3100   50.5740 N   0  0  0  0  0  0  0  0  0  0  0  0
   61.8440   33.6740   50.0670 C   0  0  0  0  0  0  0  0  0  0  0  0
   63.1910   33.8300   49.3750 C   0  0  0  0  0  0  0  0  0  0  0  0
   63.6970   32.4130   49.1300 C   0  0  0  0  0  0  0  0  0  0  0  0
   62.9590   31.5320   50.1270 C   0  0  0  0  0  0  0  0  0  0  0  0
   59.8910   30.7840   50.9550 C   0  0  0  0  0  0  0  0  0  0  0  0
   58.8790   30.2750   51.7740 C   0  0  0  0  0  0  0  0  0  0  0  0
   58.0570   29.3170   51.2810 F   0  0  0  0  0  0  0  0  0  0  0  0
  1  2  2  0
  2  3  1  0
  3  4  2  3
  4  5  1  0
  5  6  1  0
  6  7  1  0
  7  8  2  0
  7  9  1  0
  9 10  1  0
 10 11  1  0
  3 12  1  0
 12 13  2  0
 13 14  1  0
 13 15  1  0
 15 16  1  0
 16 17  1  0
 17 18  2  0
 18 19  1  0
 19 20  2  0
 20 21  1  0
 21 22  1  0
 22 23  1  0
 23 24  1  0
 24 25  1  0
 20 26  1  0
 26 27  2  0
 27 28  1  0
 15  2  1  0
 27 17  1  0
 10  5  2  0
 25 21  1  0
M  CHG  3   6  -1   9  -1  11  -1
M  END
>  <UniqueID>  (2891) 
45

>  <SMILES>  (2891) 
C=c1c(=Cc2[n-]c(=O)[n-]c2[O-])cc(C)n1Cc1ccc(N2CCCC2)cc1F

>  <Energy>  (2891) 
121.93853940761632

>  <Genealogy>  (2891) 
C=c1c(=Cc2[n-]c(=O)[n-]c2[O-])cc(C)n1Cc1ccc(N2CCCC2)cc1F (protonated)
C=c1c(=Cc2[n-]c(=O)[n-]c2[O-])cc(C)n1Cc1ccc(N2CCCC2)cc1F (3D coordinates assigned)
C=c1c(=Cc2[n-]c(=O)[n-]c2[O-])cc(C)n1Cc1ccc(N2CCCC2)cc1F (nonaromatic ring conformer: 121.93853940761632 kcal/mol)

>  <smiles>  (2891) 
C=c1c(=Cc2[nH]c(=O)[nH]c2O)cc(C)n1Cc1ccc(N2CCCC2)cc1F

>  <score_type>  (2891) 
oracle

>  <origin>  (2891) 
adg

>  <m_score__min__energy>  (2891) 
-16.489999999999998

>  <m_primary>  (2891) 
energy

$$$$
49:0
     RDKit          3D

 23 25  0  0  0  0  0  0  0  0999 V2000
   58.8360   30.2660   44.5480 C   0  0  0  0  0  0  0  0  0  0  0  0
   59.0200   29.7320   45.7680 C   0  0  0  0  0  0  0  0  0  0  0  0
   58.4150   28.5610   46.2570 C   0  0  0  0  0  0  0  0  0  0  0  0
   57.6940   27.6040   45.6370 C   0  0  0  0  0  0  0  0  0  0  0  0
   57.2030   26.3610   46.2470 C   0  0  0  0  0  0  0  0  0  0  0  0
   58.0050   25.3500   46.6210 N   0  0  0  0  0  0  0  0  0  0  0  0
   57.1350   24.3900   47.0080 C   0  0  0  0  0  0  0  0  0  0  0  0
   57.5110   23.2730   47.4490 O   0  0  0  0  0  0  0  0  0  0  0  0
   55.8320   24.7180   46.8740 N   0  0  0  0  0  0  0  0  0  0  0  0
   55.8920   25.9630   46.3770 C   0  0  0  0  0  0  0  0  0  0  0  0
   54.7740   26.7060   46.0200 O   0  0  0  0  0  0  0  0  0  0  0  0
   58.6700   28.5340   47.6110 C   0  0  0  0  0  0  0  0  0  0  0  0
   59.4390   29.6390   47.9030 C   0  0  0  0  0  0  0  0  0  0  0  0
   59.9000   29.9620   49.2970 C   0  0  0  0  0  0  0  0  0  0  0  0
   59.7040   30.3520   46.7760 N   0  0  0  0  0  0  0  0  0  0  0  0
   60.4380   31.6350   46.7110 C   0  0  0  0  0  0  0  0  0  0  0  0
   59.5930   32.8120   47.0120 N   0  0  0  0  0  0  0  0  0  0  0  0
   59.9710   34.1010   46.4020 C   0  0  0  0  0  0  0  0  0  0  0  0
   59.2410   34.3640   45.0780 C   0  0  0  0  0  0  0  0  0  0  0  0
   57.7780   34.1030   45.2430 C   0  0  0  0  0  0  0  0  0  0  0  0
   56.9530   34.8740   44.7750 O   0  0  0  0  0  0  0  0  0  0  0  0
   57.3440   32.8320   45.9000 C   0  0  0  0  0  0  0  0  0  0  0  0
   58.1420   32.5980   47.1890 C   0  0  0  0  0  0  0  0  0  0  0  0
  1  2  2  0
  2  3  1  0
  3  4  2  3
  4  5  1  0
  5  6  1  0
  6  7  1  0
  7  8  2  0
  7  9  1  0
  9 10  1  0
 10 11  1  0
  3 12  1  0
 12 13  2  0
 13 14  1  0
 13 15  1  0
 15 16  1  0
 16 17  1  0
 17 18  1  0
 18 19  1  0
 19 20  1  0
 20 21  2  0
 20 22  1  0
 22 23  1  0
 15  2  1  0
 23 17  1  0
 10  5  2  0
M  CHG  3   6  -1   9  -1  11  -1
M  END
>  <UniqueID>  (2892) 
48

>  <SMILES>  (2892) 
C=c1c(=Cc2[n-]c(=O)[n-]c2[O-])cc(C)n1CN1CCC(=O)CC1

>  <Energy>  (2892) 
121.41183754885094

>  <Genealogy>  (2892) 
C=c1c(=Cc2[n-]c(=O)[n-]c2[O-])cc(C)n1CN1CCC(=O)CC1 (protonated)
C=c1c(=Cc2[n-]c(=O)[n-]c2[O-])cc(C)n1CN1CCC(=O)CC1 (3D coordinates assigned)
C=c1c(=Cc2[n-]c(=O)[n-]c2[O-])cc(C)n1CN1CCC(=O)CC1 (nonaromatic ring conformer: 121.41183754885094 kcal/mol)

>  <smiles>  (2892) 
C=c1c(=Cc2[nH]c(=O)[nH]c2O)cc(C)n1CN1CCC(=O)CC1

>  <score_type>  (2892) 
oracle

>  <origin>  (2892) 
adg

>  <m_score__min__energy>  (2892) 
-15.26

>  <m_primary>  (2892) 
energy

$$$$
58:0
     RDKit          3D

 31 34  0  0  0  0  0  0  0  0999 V2000
   54.5720   26.1470   45.9630 O   0  0  0  0  0  0  0  0  0  0  0  0
   55.6930   25.4130   46.3390 C   0  0  0  0  0  0  0  0  0  0  0  0
   55.6460   24.3050   47.0970 N   0  0  0  0  0  0  0  0  0  0  0  0
   56.9500   23.9730   47.2140 C   0  0  0  0  0  0  0  0  0  0  0  0
   57.3380   22.9700   47.8690 O   0  0  0  0  0  0  0  0  0  0  0  0
   57.8070   24.8050   46.5830 N   0  0  0  0  0  0  0  0  0  0  0  0
   56.9920   25.7060   46.0020 C   0  0  0  0  0  0  0  0  0  0  0  0
   57.4470   26.9140   45.2960 C   0  0  0  0  0  0  0  0  0  0  0  0
   57.8970   28.0440   45.8770 C   0  0  0  0  0  0  0  0  0  0  0  0
   58.5290   28.0460   47.1060 C   0  0  0  0  0  0  0  0  0  0  0  0
   58.9290   29.3420   47.3540 C   0  0  0  0  0  0  0  0  0  0  0  0
   59.7380   29.7270   48.5310 C   0  0  0  0  0  0  0  0  0  0  0  0
   60.8650   30.2570   48.3470 O   0  0  0  0  0  0  0  0  0  0  0  0
   59.2680   29.5470   49.8730 N   0  0  0  0  0  0  0  0  0  0  0  0
   58.6540   30.4250   50.6160 C   0  0  0  0  0  0  0  0  0  0  0  0
   57.4880   30.0640   51.2140 N   0  0  0  0  0  0  0  0  0  0  0  0
   56.7870   30.9100   52.0120 C   0  0  0  0  0  0  0  0  0  0  0  0
   57.2540   32.2040   52.2420 C   0  0  0  0  0  0  0  0  0  0  0  0
   58.4500   32.6200   51.6440 C   0  0  0  0  0  0  0  0  0  0  0  0
   58.9480   34.0220   51.8350 C   0  0  0  0  0  0  0  0  0  0  0  0
   59.1450   31.7350   50.8080 C   0  0  0  0  0  0  0  0  0  0  0  0
   58.5550   30.1560   46.3360 N   0  0  0  0  0  0  0  0  0  0  0  0
   58.8600   31.5920   46.2060 C   0  0  0  0  0  0  0  0  0  0  0  0
   58.1700   32.4070   47.3280 C   0  0  0  0  0  0  0  0  0  0  0  0
   58.0240   33.8530   47.0390 N   0  0  0  0  0  0  0  0  0  0  0  0
   57.6500   34.1480   45.6500 C   0  0  0  0  0  0  0  0  0  0  0  0
   58.8750   34.7160   44.9590 C   0  0  0  0  0  0  0  0  0  0  0  0
   59.7060   35.3150   46.0720 C   0  0  0  0  0  0  0  0  0  0  0  0
   59.2210   34.6490   47.3560 C   0  0  0  0  0  0  0  0  0  0  0  0
   57.8950   29.3780   45.4350 C   0  0  0  0  0  0  0  0  0  0  0  0
   57.2640   29.8640   44.3530 C   0  0  0  0  0  0  0  0  0  0  0  0
  1  2  1  0
  2  3  1  0
  3  4  1  0
  4  5  2  0
  4  6  1  0
  6  7  1  0
  7  8  1  0
  8  9  2  0
  9 10  1  0
 10 11  2  0
 11 12  1  0
 12 13  2  0
 12 14  1  0
 14 15  2  3
 15 16  1  0
 16 17  1  0
 17 18  2  0
 18 19  1  0
 19 20  1  0
 19 21  2  0
 11 22  1  0
 22 23  1  0
 23 24  1  0
 24 25  1  0
 25 26  1  0
 26 27  1  0
 27 28  1  0
 28 29  1  0
 22 30  1  0
 30 31  2  0
  7  2  2  0
 30  9  1  0
 21 15  1  0
 29 25  1  0
M  CHG  3   3  -1   6  -1  16  -1
M  END
>  <UniqueID>  (2893) 
56

>  <SMILES>  (2893) 
C=c1/c(=C\c2[n-]c(=O)[n-]c2O)cc(C(=O)N=c2cc(C)cc[n-]2)n1CCN1CCCC1

>  <Energy>  (2893) 
140.75895592115987

>  <Genealogy>  (2893) 
C=c1c(=Cc2[n-]c(=O)[n-]c2O)cc(C(=O)N=c2cc(C)cc[n-]2)n1CCN1CCCC1 (protonated)
C=c1/c(=C\c2[n-]c(=O)[n-]c2O)cc(C(=O)N=c2cc(C)cc[n-]2)n1CCN1CCCC1 (cis-trans isomerization)
C=c1/c(=C\c2[n-]c(=O)[n-]c2O)cc(C(=O)N=c2cc(C)cc[n-]2)n1CCN1CCCC1 (3D coordinates assigned)
C=c1/c(=C\c2[n-]c(=O)[n-]c2O)cc(C(=O)N=c2cc(C)cc[n-]2)n1CCN1CCCC1 (nonaromatic ring conformer: 140.75895592115987 kcal/mol)

>  <smiles>  (2893) 
C=c1c(=Cc2[nH]c(=O)[nH]c2O)cc(C(=O)N=c2cc(C)cc[nH]2)n1CCN1CCCC1

>  <score_type>  (2893) 
oracle

>  <origin>  (2893) 
adg

>  <m_score__min__energy>  (2893) 
-14.83

>  <m_primary>  (2893) 
energy

$$$$
62:0
     RDKit          3D

 31 34  0  0  0  0  0  0  0  0999 V2000
   65.1850   33.4440   50.4650 C   0  0  0  0  0  0  0  0  0  0  0  0
   64.7920   32.4550   49.3690 C   0  0  0  0  0  0  0  0  0  0  0  0
   63.4500   32.7780   48.8390 N   0  0  0  0  0  0  0  0  0  0  0  0
   63.5140   33.2200   47.4330 C   0  0  0  0  0  0  0  0  0  0  0  0
   62.0990   33.2180   46.8450 C   0  0  0  0  0  0  0  0  0  0  0  0
   61.1180   33.6590   47.8490 N   0  0  0  0  0  0  0  0  0  0  0  0
   59.7620   33.1710   47.8120 C   0  0  0  0  0  0  0  0  0  0  0  0
   59.1610   32.9240   48.8930 O   0  0  0  0  0  0  0  0  0  0  0  0
   59.0620   32.9260   46.5320 C   0  0  0  0  0  0  0  0  0  0  0  0
   59.2110   33.8280   45.4650 C   0  0  0  0  0  0  0  0  0  0  0  0
   58.5510   33.6020   44.2550 C   0  0  0  0  0  0  0  0  0  0  0  0
   57.7360   32.4790   44.0990 C   0  0  0  0  0  0  0  0  0  0  0  0
   57.5710   31.5740   45.1600 C   0  0  0  0  0  0  0  0  0  0  0  0
   56.7010   30.4400   45.0480 N   0  0  0  0  0  0  0  0  0  0  0  0
   57.1600   29.0870   45.0040 C   0  0  0  0  0  0  0  0  0  0  0  0
   57.5050   28.5850   43.9010 O   0  0  0  0  0  0  0  0  0  0  0  0
   57.3340   28.2970   46.2720 C   0  0  0  0  0  0  0  0  0  0  0  0
   57.2010   26.8630   46.0180 N   0  0  0  0  0  0  0  0  0  0  0  0
   58.1990   26.0020   45.7210 C   0  0  0  0  0  0  0  0  0  0  0  0
   59.5480   26.3400   45.7150 O   0  0  0  0  0  0  0  0  0  0  0  0
   57.6840   24.7660   45.3890 C   0  0  0  0  0  0  0  0  0  0  0  0
   56.3150   24.8630   45.5160 C   0  0  0  0  0  0  0  0  0  0  0  0
   56.0500   26.1680   45.8800 C   0  0  0  0  0  0  0  0  0  0  0  0
   54.7810   26.7140   46.0420 O   0  0  0  0  0  0  0  0  0  0  0  0
   55.3610   23.7920   45.0860 C   0  0  0  0  0  0  0  0  0  0  0  0
   56.0870   22.4350   44.9980 C   0  0  0  0  0  0  0  0  0  0  0  0
   57.4350   22.5580   44.2550 C   0  0  0  0  0  0  0  0  0  0  0  0
   58.4020   23.5170   44.9770 C   0  0  0  0  0  0  0  0  0  0  0  0
   58.2610   31.7850   46.3600 C   0  0  0  0  0  0  0  0  0  0  0  0
   61.5870   34.4740   48.9770 C   0  0  0  0  0  0  0  0  0  0  0  0
   62.7840   33.8000   49.6820 C   0  0  0  0  0  0  0  0  0  0  0  0
  1  2  1  0
  2  3  1  0
  3  4  1  0
  4  5  1  0
  5  6  1  0
  6  7  1  0
  7  8  2  0
  7  9  1  0
  9 10  2  0
 10 11  1  0
 11 12  2  0
 12 13  1  0
 13 14  1  0
 14 15  1  0
 15 16  2  0
 15 17  1  0
 17 18  1  0
 18 19  1  0
 19 20  1  0
 19 21  2  0
 21 22  1  0
 22 23  2  0
 23 24  1  0
 22 25  1  0
 25 26  1  0
 26 27  1  0
 27 28  1  0
 13 29  2  0
  6 30  1  0
 30 31  1  0
 31  3  1  0
 29  9  1  0
 23 18  1  0
 28 21  1  0
M  CHG  3  14  -1  20  -1  24  -1
M  END
>  <UniqueID>  (2894) 
60

>  <SMILES>  (2894) 
CCN1CCN(C(=O)c2cccc([N-]C(=O)Cn3c([O-])c4c(c3[O-])CCCC4)c2)CC1

>  <Energy>  (2894) 
100.68459032653442

>  <Genealogy>  (2894) 
CCN1CCN(C(=O)c2cccc([N-]C(=O)Cn3c([O-])c4c(c3[O-])CCCC4)c2)CC1 (protonated)
CCN1CCN(C(=O)c2cccc([N-]C(=O)Cn3c([O-])c4c(c3[O-])CCCC4)c2)CC1 (3D coordinates assigned)
CCN1CCN(C(=O)c2cccc([N-]C(=O)Cn3c([O-])c4c(c3[O-])CCCC4)c2)CC1 (nonaromatic ring conformer: 100.68459032653442 kcal/mol)

>  <smiles>  (2894) 
CCN1CCN(C(=O)c2cccc(NC(=O)Cn3c(O)c4c(c3O)CCCC4)c2)CC1

>  <score_type>  (2894) 
oracle

>  <origin>  (2894) 
adg

>  <m_score__min__energy>  (2894) 
-15.69

>  <m_primary>  (2894) 
energy

$$$$
66:0
     RDKit          3D

 35 38  0  0  0  0  0  0  0  0999 V2000
   54.9810   26.7060   45.9890 O   0  0  0  0  0  0  0  0  0  0  0  0
   56.0350   25.8670   46.3380 C   0  0  0  0  0  0  0  0  0  0  0  0
   55.9950   25.0040   47.3670 N   0  0  0  0  0  0  0  0  0  0  0  0
   57.2330   24.4650   47.3460 C   0  0  0  0  0  0  0  0  0  0  0  0
   57.6120   23.6060   48.1850 O   0  0  0  0  0  0  0  0  0  0  0  0
   58.0440   24.9360   46.3740 N   0  0  0  0  0  0  0  0  0  0  0  0
   57.2620   25.8090   45.7150 C   0  0  0  0  0  0  0  0  0  0  0  0
   57.7640   26.7160   44.6740 C   0  0  0  0  0  0  0  0  0  0  0  0
   57.9630   28.0410   44.8090 C   0  0  0  0  0  0  0  0  0  0  0  0
   57.7330   28.9400   43.7780 C   0  0  0  0  0  0  0  0  0  0  0  0
   58.1120   30.1840   44.2380 C   0  0  0  0  0  0  0  0  0  0  0  0
   57.9830   31.4620   43.4650 C   0  0  0  0  0  0  0  0  0  0  0  0
   58.5190   30.1010   45.5210 N   0  0  0  0  0  0  0  0  0  0  0  0
   58.9000   31.2220   46.3330 C   0  0  0  0  0  0  0  0  0  0  0  0
   59.6010   31.0260   47.3610 O   0  0  0  0  0  0  0  0  0  0  0  0
   58.4630   32.5500   45.9920 N   0  0  0  0  0  0  0  0  0  0  0  0
   57.0290   32.8590   45.9980 C   0  0  0  0  0  0  0  0  0  0  0  0
   59.4450   33.5930   45.6700 C   0  0  0  0  0  0  0  0  0  0  0  0
   60.4620   33.7290   46.7720 C   0  0  0  0  0  0  0  0  0  0  0  0
   60.0570   34.0460   48.0780 C   0  0  0  0  0  0  0  0  0  0  0  0
   61.0070   34.2050   49.0900 C   0  0  0  0  0  0  0  0  0  0  0  0
   62.3720   34.0310   48.8170 C   0  0  0  0  0  0  0  0  0  0  0  0
   63.3680   34.2010   49.8950 C   0  0  0  0  0  0  0  0  0  0  0  0
   63.3050   35.2300   50.6220 O   0  0  0  0  0  0  0  0  0  0  0  0
   64.3960   33.2200   50.1400 N   0  0  0  0  0  0  0  0  0  0  0  0
   64.1670   31.8010   49.8370 C   0  0  0  0  0  0  0  0  0  0  0  0
   64.9050   30.9250   50.8520 C   0  0  0  0  0  0  0  0  0  0  0  0
   66.3610   31.1900   50.8460 N   0  0  0  0  0  0  0  0  0  0  0  0
   66.9820   30.6530   52.0670 C   0  0  0  0  0  0  0  0  0  0  0  0
   66.7350   32.6140   50.6320 C   0  0  0  0  0  0  0  0  0  0  0  0
   65.5880   33.5970   50.9090 C   0  0  0  0  0  0  0  0  0  0  0  0
   62.7760   33.7190   47.5100 C   0  0  0  0  0  0  0  0  0  0  0  0
   61.8290   33.5710   46.4950 C   0  0  0  0  0  0  0  0  0  0  0  0
   58.4210   28.8040   45.8980 C   0  0  0  0  0  0  0  0  0  0  0  0
   58.6460   28.3860   47.1540 C   0  0  0  0  0  0  0  0  0  0  0  0
  1  2  1  0
  2  3  1  0
  3  4  1  0
  4  5  2  0
  4  6  1  0
  6  7  1  0
  7  8  1  0
  8  9  2  0
  9 10  1  0
 10 11  2  0
 11 12  1  0
 11 13  1  0
 13 14  1  0
 14 15  2  0
 14 16  1  0
 16 17  1  0
 16 18  1  0
 18 19  1  0
 19 20  2  0
 20 21  1  0
 21 22  2  0
 22 23  1  0
 23 24  2  0
 23 25  1  0
 25 26  1  0
 26 27  1  0
 27 28  1  0
 28 29  1  0
 28 30  1  0
 30 31  1  0
 22 32  1  0
 32 33  2  0
 13 34  1  0
 34 35  2  0
  7  2  2  0
 34  9  1  0
 33 19  1  0
 31 25  1  0
M  CHG  2   3  -1   6  -1
M  END
>  <UniqueID>  (2895) 
64

>  <SMILES>  (2895) 
C=c1/c(=C\c2[n-]c(=O)[n-]c2O)cc(C)n1C(=O)N(C)Cc1ccc(C(=O)N2CCN(C)CC2)cc1

>  <Energy>  (2895) 
148.75012914372442

>  <Genealogy>  (2895) 
C=c1c(=Cc2[n-]c(=O)[n-]c2O)cc(C)n1C(=O)N(C)Cc1ccc(C(=O)N2CCN(C)CC2)cc1 (protonated)
C=c1/c(=C\c2[n-]c(=O)[n-]c2O)cc(C)n1C(=O)N(C)Cc1ccc(C(=O)N2CCN(C)CC2)cc1 (cis-trans isomerization)
C=c1/c(=C\c2[n-]c(=O)[n-]c2O)cc(C)n1C(=O)N(C)Cc1ccc(C(=O)N2CCN(C)CC2)cc1 (3D coordinates assigned)
C=c1/c(=C\c2[n-]c(=O)[n-]c2O)cc(C)n1C(=O)N(C)Cc1ccc(C(=O)N2CCN(C)CC2)cc1 (nonaromatic ring conformer: 148.75012914372442 kcal/mol)

>  <smiles>  (2895) 
C=c1c(=Cc2[nH]c(=O)[nH]c2O)cc(C)n1C(=O)N(C)Cc1ccc(C(=O)N2CCN(C)CC2)cc1

>  <score_type>  (2895) 
oracle

>  <origin>  (2895) 
adg

>  <m_score__min__energy>  (2895) 
-14.24

>  <m_primary>  (2895) 
energy

$$$$
68:0
     RDKit          3D

 29 32  0  0  0  0  0  0  0  0999 V2000
   55.3870   29.3540   44.8990 O   0  0  0  0  0  0  0  0  0  0  0  0
   56.1150   28.2270   45.2720 C   0  0  0  0  0  0  0  0  0  0  0  0
   55.5460   27.0980   45.7230 N   0  0  0  0  0  0  0  0  0  0  0  0
   56.6110   26.3180   46.0070 C   0  0  0  0  0  0  0  0  0  0  0  0
   56.4950   25.1530   46.4710 O   0  0  0  0  0  0  0  0  0  0  0  0
   57.8120   26.8870   45.7670 N   0  0  0  0  0  0  0  0  0  0  0  0
   57.4900   28.0950   45.2720 C   0  0  0  0  0  0  0  0  0  0  0  0
   58.4860   29.1260   44.9450 C   0  0  0  0  0  0  0  0  0  0  0  0
   58.5180   30.3780   45.4450 C   0  0  0  0  0  0  0  0  0  0  0  0
   58.1320   31.4810   44.7070 C   0  0  0  0  0  0  0  0  0  0  0  0
   58.3850   32.5910   45.4810 C   0  0  0  0  0  0  0  0  0  0  0  0
   58.2060   34.0030   45.0070 C   0  0  0  0  0  0  0  0  0  0  0  0
   58.8880   32.2290   46.6870 N   0  0  0  0  0  0  0  0  0  0  0  0
   59.3440   33.1610   47.7310 C   0  0  0  0  0  0  0  0  0  0  0  0
   60.8490   33.2340   47.7490 C   0  0  0  0  0  0  0  0  0  0  0  0
   61.5550   33.5850   46.5870 C   0  0  0  0  0  0  0  0  0  0  0  0
   62.9470   33.6720   46.6090 C   0  0  0  0  0  0  0  0  0  0  0  0
   63.6490   33.4170   47.7900 C   0  0  0  0  0  0  0  0  0  0  0  0
   62.9600   33.0760   48.9650 C   0  0  0  0  0  0  0  0  0  0  0  0
   63.6810   32.8090   50.1830 N   0  0  0  0  0  0  0  0  0  0  0  0
   63.9320   31.4370   50.6310 C   0  0  0  0  0  0  0  0  0  0  0  0
   65.4430   31.2080   50.8310 C   0  0  0  0  0  0  0  0  0  0  0  0
   66.1840   32.4230   51.2630 N   0  0  0  0  0  0  0  0  0  0  0  0
   66.9680   33.0070   50.1590 C   0  0  0  0  0  0  0  0  0  0  0  0
   65.3250   33.4310   51.9200 C   0  0  0  0  0  0  0  0  0  0  0  0
   64.1980   33.9170   50.9920 C   0  0  0  0  0  0  0  0  0  0  0  0
   61.5580   32.9750   48.9330 C   0  0  0  0  0  0  0  0  0  0  0  0
   58.9480   30.8680   46.6910 C   0  0  0  0  0  0  0  0  0  0  0  0
   59.2690   30.1340   47.7700 C   0  0  0  0  0  0  0  0  0  0  0  0
  1  2  1  0
  2  3  1  0
  3  4  1  0
  4  5  2  0
  4  6  1  0
  6  7  1  0
  7  8  1  0
  8  9  2  0
  9 10  1  0
 10 11  2  0
 11 12  1  0
 11 13  1  0
 13 14  1  0
 14 15  1  0
 15 16  2  0
 16 17  1  0
 17 18  2  0
 18 19  1  0
 19 20  1  0
 20 21  1  0
 21 22  1  0
 22 23  1  0
 23 24  1  0
 23 25  1  0
 25 26  1  0
 19 27  2  0
 13 28  1  0
 28 29  2  0
  7  2  2  0
 28  9  1  0
 27 15  1  0
 26 20  1  0
M  CHG  2   3  -1   6  -1
M  END
>  <UniqueID>  (2896) 
66

>  <SMILES>  (2896) 
C=c1/c(=C\c2[n-]c(=O)[n-]c2O)cc(C)n1Cc1cccc(N2CCN(C)CC2)c1

>  <Energy>  (2896) 
136.14203385497726

>  <Genealogy>  (2896) 
C=c1c(=Cc2[n-]c(=O)[n-]c2O)cc(C)n1Cc1cccc(N2CCN(C)CC2)c1 (protonated)
C=c1/c(=C\c2[n-]c(=O)[n-]c2O)cc(C)n1Cc1cccc(N2CCN(C)CC2)c1 (cis-trans isomerization)
C=c1/c(=C\c2[n-]c(=O)[n-]c2O)cc(C)n1Cc1cccc(N2CCN(C)CC2)c1 (3D coordinates assigned)
C=c1/c(=C\c2[n-]c(=O)[n-]c2O)cc(C)n1Cc1cccc(N2CCN(C)CC2)c1 (nonaromatic ring conformer: 136.14203385497726 kcal/mol)

>  <smiles>  (2896) 
C=c1c(=Cc2[nH]c(=O)[nH]c2O)cc(C)n1Cc1cccc(N2CCN(C)CC2)c1

>  <score_type>  (2896) 
oracle

>  <origin>  (2896) 
adg

>  <m_score__min__energy>  (2896) 
-14.33

>  <m_primary>  (2896) 
energy

$$$$
72:0
     RDKit          3D

 29 32  0  0  0  0  0  0  0  0999 V2000
   53.7840   29.6170   54.8430 C   0  0  0  0  0  0  0  0  0  0  0  0
   54.3270   30.2410   53.7970 C   0  0  0  0  0  0  0  0  0  0  0  0
   55.5910   30.5970   53.7650 O   0  0  0  0  0  0  0  0  0  0  0  0
   55.8370   31.1840   52.6160 C   0  0  0  0  0  0  0  0  0  0  0  0
   57.1580   31.7080   52.2200 C   0  0  0  0  0  0  0  0  0  0  0  0
   57.8590   32.3130   53.0790 O   0  0  0  0  0  0  0  0  0  0  0  0
   57.6250   31.5850   50.8550 N   0  0  0  0  0  0  0  0  0  0  0  0
   58.2510   30.2680   50.6370 C   0  0  0  0  0  0  0  0  0  0  0  0
   58.5210   30.0730   49.1420 C   0  0  0  0  0  0  0  0  0  0  0  0
   59.1430   31.2690   48.5530 N   0  0  0  0  0  0  0  0  0  0  0  0
   59.6550   31.2170   47.2040 C   0  0  0  0  0  0  0  0  0  0  0  0
   60.7000   31.8600   46.9110 O   0  0  0  0  0  0  0  0  0  0  0  0
   58.9890   30.4380   46.1410 C   0  0  0  0  0  0  0  0  0  0  0  0
   57.7190   30.5370   45.8200 O   0  0  0  0  0  0  0  0  0  0  0  0
   57.4670   29.7170   44.8260 C   0  0  0  0  0  0  0  0  0  0  0  0
   58.6210   29.0470   44.4740 C   0  0  0  0  0  0  0  0  0  0  0  0
   59.6050   29.5120   45.3190 C   0  0  0  0  0  0  0  0  0  0  0  0
   59.5810   32.3670   49.4310 C   0  0  0  0  0  0  0  0  0  0  0  0
   58.5460   32.7020   50.5300 C   0  0  0  0  0  0  0  0  0  0  0  0
   54.6900   31.2220   51.8460 C   0  0  0  0  0  0  0  0  0  0  0  0
   53.7020   30.6170   52.6090 C   0  0  0  0  0  0  0  0  0  0  0  0
   52.4230   30.3950   52.2510 C   0  0  0  0  0  0  0  0  0  0  0  0
   51.8280   30.8610   50.9870 C   0  0  0  0  0  0  0  0  0  0  0  0
   51.7170   30.0860   49.8940 N   0  0  0  0  0  0  0  0  0  0  0  0
   51.0500   30.8700   49.0200 C   0  0  0  0  0  0  0  0  0  0  0  0
   50.7640   30.4920   47.8530 O   0  0  0  0  0  0  0  0  0  0  0  0
   50.7060   32.0850   49.4950 N   0  0  0  0  0  0  0  0  0  0  0  0
   51.1940   32.0610   50.7460 C   0  0  0  0  0  0  0  0  0  0  0  0
   51.0160   33.0940   51.6580 O   0  0  0  0  0  0  0  0  0  0  0  0
  1  2  2  0
  2  3  1  0
  3  4  1  0
  4  5  1  0
  5  6  2  0
  5  7  1  0
  7  8  1  0
  8  9  1  0
  9 10  1  0
 10 11  1  0
 11 12  2  0
 11 13  1  0
 13 14  1  0
 14 15  1  0
 15 16  2  0
 16 17  1  0
 10 18  1  0
 18 19  1  0
  4 20  2  0
 20 21  1  0
 21 22  2  0
 22 23  1  0
 23 24  1  0
 24 25  1  0
 25 26  2  0
 25 27  1  0
 27 28  1  0
 28 29  1  0
 21  2  1  0
 28 23  2  0
 19  7  1  0
 17 13  2  0
M  CHG  4   7   1  24  -1  27  -1  29  -1
M  END
>  <UniqueID>  (2897) 
70

>  <SMILES>  (2897) 
C=c1oc(C(=O)[NH+]2CCN(C(=O)c3ccco3)CC2)c/c1=C\c1[n-]c(=O)[n-]c1[O-]

>  <Energy>  (2897) 
147.08030380555743

>  <Genealogy>  (2897) 
C=c1oc(C(=O)[NH+]2CCN(C(=O)c3ccco3)CC2)cc1=Cc1[n-]c(=O)[n-]c1[O-] (protonated)
C=c1oc(C(=O)[NH+]2CCN(C(=O)c3ccco3)CC2)c/c1=C\c1[n-]c(=O)[n-]c1[O-] (cis-trans isomerization)
C=c1oc(C(=O)[NH+]2CCN(C(=O)c3ccco3)CC2)c/c1=C\c1[n-]c(=O)[n-]c1[O-] (3D coordinates assigned)
C=c1oc(C(=O)[NH+]2CCN(C(=O)c3ccco3)CC2)c/c1=C\c1[n-]c(=O)[n-]c1[O-] (nonaromatic ring conformer: 147.08030380555743 kcal/mol)

>  <smiles>  (2897) 
C=c1oc(C(=O)N2CCN(C(=O)c3ccco3)CC2)cc1=Cc1[nH]c(=O)[nH]c1O

>  <score_type>  (2897) 
oracle

>  <origin>  (2897) 
adg

>  <m_score__min__energy>  (2897) 
-17.16

>  <m_primary>  (2897) 
energy

$$$$
77:0
     RDKit          3D

 28 30  0  0  0  0  0  0  0  0999 V2000
   54.2720   29.0110   52.0790 O   0  0  0  0  0  0  0  0  0  0  0  0
   54.1590   30.2410   51.8170 C   0  0  0  0  0  0  0  0  0  0  0  0
   53.0980   30.7070   50.8690 C   0  0  0  0  0  0  0  0  0  0  0  0
   52.0040   31.4170   51.6080 C   0  0  0  0  0  0  0  0  0  0  0  0
   51.7420   31.2520   52.9180 N   0  0  0  0  0  0  0  0  0  0  0  0
   50.6780   32.0580   53.1260 C   0  0  0  0  0  0  0  0  0  0  0  0
   50.1350   32.1850   54.2530 O   0  0  0  0  0  0  0  0  0  0  0  0
   50.2440   32.7190   52.0310 N   0  0  0  0  0  0  0  0  0  0  0  0
   51.0920   32.2990   51.0780 C   0  0  0  0  0  0  0  0  0  0  0  0
   51.0340   32.7180   49.7540 O   0  0  0  0  0  0  0  0  0  0  0  0
   55.0130   31.1990   52.4520 N   0  0  0  0  0  0  0  0  0  0  0  0
   56.3690   30.8980   52.8940 C   0  0  0  0  0  0  0  0  0  0  0  0
   57.3480   31.7900   52.1810 C   0  0  0  0  0  0  0  0  0  0  0  0
   57.8160   32.9550   52.8070 C   0  0  0  0  0  0  0  0  0  0  0  0
   58.6860   33.8160   52.1350 C   0  0  0  0  0  0  0  0  0  0  0  0
   59.0890   33.5270   50.8280 C   0  0  0  0  0  0  0  0  0  0  0  0
   58.6450   32.3560   50.1880 C   0  0  0  0  0  0  0  0  0  0  0  0
   59.0370   32.0410   48.7900 C   0  0  0  0  0  0  0  0  0  0  0  0
   58.7940   30.8840   48.3590 O   0  0  0  0  0  0  0  0  0  0  0  0
   59.7240   33.0450   47.9260 C   0  0  0  0  0  0  0  0  0  0  0  0
   59.0170   33.9400   47.3850 O   0  0  0  0  0  0  0  0  0  0  0  0
   61.1580   33.0600   47.6940 N   0  0  0  0  0  0  0  0  0  0  0  0
   62.0900   32.5270   48.7070 C   0  0  0  0  0  0  0  0  0  0  0  0
   63.5710   32.7150   48.3420 C   0  0  0  0  0  0  0  0  0  0  0  0
   63.7890   33.9110   47.6330 O   0  0  0  0  0  0  0  0  0  0  0  0
   63.1490   33.8090   46.3830 C   0  0  0  0  0  0  0  0  0  0  0  0
   61.6350   33.8780   46.5640 C   0  0  0  0  0  0  0  0  0  0  0  0
   57.7570   31.5020   50.8690 C   0  0  0  0  0  0  0  0  0  0  0  0
  1  2  2  0
  2  3  1  0
  3  4  1  0
  4  5  1  0
  5  6  1  0
  6  7  2  0
  6  8  1  0
  8  9  1  0
  9 10  1  0
  2 11  1  0
 11 12  1  0
 12 13  1  0
 13 14  2  0
 14 15  1  0
 15 16  2  0
 16 17  1  0
 17 18  1  0
 18 19  2  0
 18 20  1  0
 20 21  2  0
 20 22  1  0
 22 23  1  0
 23 24  1  0
 24 25  1  0
 25 26  1  0
 26 27  1  0
 17 28  2  0
  9  4  2  0
 28 13  1  0
 27 22  1  0
M  CHG  4   5  -1   8  -1  10  -1  11  -1
M  END
>  <UniqueID>  (2898) 
75

>  <SMILES>  (2898) 
O=C(Cc1[n-]c(=O)[n-]c1[O-])[N-]Cc1cccc(C(=O)C(=O)N2CCOCC2)c1

>  <Energy>  (2898) 
82.66609413385736

>  <Genealogy>  (2898) 
O=C(Cc1[n-]c(=O)[n-]c1[O-])[N-]Cc1cccc(C(=O)C(=O)N2CCOCC2)c1 (protonated)
O=C(Cc1[n-]c(=O)[n-]c1[O-])[N-]Cc1cccc(C(=O)C(=O)N2CCOCC2)c1 (3D coordinates assigned)
O=C(Cc1[n-]c(=O)[n-]c1[O-])[N-]Cc1cccc(C(=O)C(=O)N2CCOCC2)c1 (nonaromatic ring conformer: 82.66609413385736 kcal/mol)

>  <smiles>  (2898) 
O=C(Cc1[nH]c(=O)[nH]c1O)NCc1cccc(C(=O)C(=O)N2CCOCC2)c1

>  <score_type>  (2898) 
oracle

>  <origin>  (2898) 
adg

>  <m_score__min__energy>  (2898) 
-18.43

>  <m_primary>  (2898) 
energy

$$$$
7:0
     RDKit          3D

 37 41  0  0  0  0  0  0  0  0999 V2000
   59.7260   29.4560   47.5620 C   0  0  0  0  0  0  0  0  0  0  0  0
   59.0360   29.8860   46.4970 C   0  0  0  0  0  0  0  0  0  0  0  0
   58.5360   29.1080   45.4380 C   0  0  0  0  0  0  0  0  0  0  0  0
   58.4530   27.7740   45.2760 C   0  0  0  0  0  0  0  0  0  0  0  0
   57.2890   26.9340   45.5960 C   0  0  0  0  0  0  0  0  0  0  0  0
   57.3610   25.6980   46.1260 N   0  0  0  0  0  0  0  0  0  0  0  0
   56.0740   25.4190   46.4370 C   0  0  0  0  0  0  0  0  0  0  0  0
   55.7250   24.3350   46.9760 O   0  0  0  0  0  0  0  0  0  0  0  0
   55.1960   26.4040   46.1550 N   0  0  0  0  0  0  0  0  0  0  0  0
   55.9850   27.3600   45.6370 C   0  0  0  0  0  0  0  0  0  0  0  0
   55.5240   28.6070   45.2290 O   0  0  0  0  0  0  0  0  0  0  0  0
   58.1060   29.9980   44.4690 C   0  0  0  0  0  0  0  0  0  0  0  0
   58.2940   31.2640   44.9790 C   0  0  0  0  0  0  0  0  0  0  0  0
   57.9540   32.5280   44.2490 C   0  0  0  0  0  0  0  0  0  0  0  0
   58.8620   31.2010   46.2050 N   0  0  0  0  0  0  0  0  0  0  0  0
   59.2550   32.3370   46.9970 C   0  0  0  0  0  0  0  0  0  0  0  0
   59.6620   33.5240   46.3710 C   0  0  0  0  0  0  0  0  0  0  0  0
   59.9600   34.6530   47.1340 C   0  0  0  0  0  0  0  0  0  0  0  0
   59.8280   34.6160   48.5230 C   0  0  0  0  0  0  0  0  0  0  0  0
   59.4110   33.4380   49.1720 C   0  0  0  0  0  0  0  0  0  0  0  0
   59.2740   33.4280   50.6530 C   0  0  0  0  0  0  0  0  0  0  0  0
   59.2470   34.5350   51.2610 O   0  0  0  0  0  0  0  0  0  0  0  0
   59.2020   32.2080   51.4250 N   0  0  0  0  0  0  0  0  0  0  0  0
   59.6410   32.2250   52.8260 C   0  0  0  0  0  0  0  0  0  0  0  0
   59.8360   30.7920   53.3520 C   0  0  0  0  0  0  0  0  0  0  0  0
   60.3670   29.9030   52.2960 N   0  0  0  0  0  0  0  0  0  0  0  0
   61.7170   30.3310   51.8550 C   0  0  0  0  0  0  0  0  0  0  0  0
   61.8300   30.3140   50.3170 C   0  0  0  0  0  0  0  0  0  0  0  0
   62.2080   31.6170   49.7190 N   0  0  0  0  0  0  0  0  0  0  0  0
   62.6350   31.5120   48.3110 C   0  0  0  0  0  0  0  0  0  0  0  0
   63.0700   32.8900   47.7730 C   0  0  0  0  0  0  0  0  0  0  0  0
   62.7050   33.9270   48.6630 O   0  0  0  0  0  0  0  0  0  0  0  0
   63.3990   33.7770   49.8910 C   0  0  0  0  0  0  0  0  0  0  0  0
   63.1830   32.3820   50.5150 C   0  0  0  0  0  0  0  0  0  0  0  0
   59.4100   29.7600   51.1640 C   0  0  0  0  0  0  0  0  0  0  0  0
   58.5180   31.0030   50.9420 C   0  0  0  0  0  0  0  0  0  0  0  0
   59.1700   32.2860   48.3970 C   0  0  0  0  0  0  0  0  0  0  0  0
  1  2  2  0
  2  3  1  0
  3  4  2  3
  4  5  1  0
  5  6  1  0
  6  7  1  0
  7  8  2  0
  7  9  1  0
  9 10  1  0
 10 11  1  0
  3 12  1  0
 12 13  2  0
 13 14  1  0
 13 15  1  0
 15 16  1  0
 16 17  2  0
 17 18  1  0
 18 19  2  0
 19 20  1  0
 20 21  1  0
 21 22  2  0
 21 23  1  0
 23 24  1  0
 24 25  1  0
 25 26  1  0
 26 27  1  0
 27 28  1  0
 28 29  1  0
 29 30  1  0
 30 31  1  0
 31 32  1  0
 32 33  1  0
 33 34  1  0
 26 35  1  0
 35 36  1  0
 20 37  2  0
 15  2  1  0
 37 16  1  0
 10  5  2  0
 36 23  1  0
 34 29  1  0
M  CHG  3   6  -1   9  -1  11  -1
M  END
>  <UniqueID>  (2899) 
8

>  <SMILES>  (2899) 
C=c1c(=Cc2[n-]c(=O)[n-]c2[O-])cc(C)n1-c1cccc(C(=O)N2CCN(CCN3CCOCC3)CC2)c1

>  <Energy>  (2899) 
168.4615320656423

>  <Genealogy>  (2899) 
C=c1c(=Cc2[n-]c(=O)[n-]c2[O-])cc(C)n1-c1cccc(C(=O)N2CCN(CCN3CCOCC3)CC2)c1 (protonated)
C=c1c(=Cc2[n-]c(=O)[n-]c2[O-])cc(C)n1-c1cccc(C(=O)N2CCN(CCN3CCOCC3)CC2)c1 (3D coordinates assigned)
C=c1c(=Cc2[n-]c(=O)[n-]c2[O-])cc(C)n1-c1cccc(C(=O)N2CCN(CCN3CCOCC3)CC2)c1 (nonaromatic ring conformer: 168.4615320656423 kcal/mol)

>  <smiles>  (2899) 
C=c1c(=Cc2[nH]c(=O)[nH]c2O)cc(C)n1-c1cccc(C(=O)N2CCN(CCN3CCOCC3)CC2)c1

>  <score_type>  (2899) 
oracle

>  <origin>  (2899) 
adg

>  <m_score__min__energy>  (2899) 
-17.559999999999999

>  <m_primary>  (2899) 
energy

$$$$
21:0
     RDKit          3D

 26 28  0  0  0  0  0  0  0  0999 V2000
   58.0100   31.1100   45.9850 C   0  0  0  0  0  0  0  0  0  0  0  0
   57.5780   31.1480   44.7150 C   0  0  0  0  0  0  0  0  0  0  0  0
   56.8500   30.1520   44.0400 C   0  0  0  0  0  0  0  0  0  0  0  0
   56.2550   29.0300   44.4910 C   0  0  0  0  0  0  0  0  0  0  0  0
   56.8690   28.0200   45.3650 C   0  0  0  0  0  0  0  0  0  0  0  0
   56.2450   26.9630   45.9940 C   0  0  0  0  0  0  0  0  0  0  0  0
   54.8790   26.7120   45.9980 O   0  0  0  0  0  0  0  0  0  0  0  0
   57.1530   26.1700   46.5940 N   0  0  0  0  0  0  0  0  0  0  0  0
   58.3250   26.7660   46.2850 C   0  0  0  0  0  0  0  0  0  0  0  0
   59.4390   26.3170   46.6600 O   0  0  0  0  0  0  0  0  0  0  0  0
   58.1940   27.8740   45.5320 N   0  0  0  0  0  0  0  0  0  0  0  0
   56.8170   30.5310   42.7090 C   0  0  0  0  0  0  0  0  0  0  0  0
   57.4610   31.7470   42.6220 C   0  0  0  0  0  0  0  0  0  0  0  0
   57.6160   32.5330   41.3530 C   0  0  0  0  0  0  0  0  0  0  0  0
   57.9100   32.1360   43.8380 N   0  0  0  0  0  0  0  0  0  0  0  0
   58.6990   33.3470   44.1120 C   0  0  0  0  0  0  0  0  0  0  0  0
   58.1070   34.1090   45.2570 C   0  0  0  0  0  0  0  0  0  0  0  0
   56.8930   34.4460   45.2210 O   0  0  0  0  0  0  0  0  0  0  0  0
   58.9560   34.5800   46.3110 N   0  0  0  0  0  0  0  0  0  0  0  0
   60.0130   34.0330   46.8520 C   0  0  0  0  0  0  0  0  0  0  0  0
   61.1970   34.2270   46.2090 N   0  0  0  0  0  0  0  0  0  0  0  0
   62.3840   33.7700   46.6840 C   0  0  0  0  0  0  0  0  0  0  0  0
   62.4270   33.0720   47.8850 C   0  0  0  0  0  0  0  0  0  0  0  0
   61.2390   32.8080   48.5620 C   0  0  0  0  0  0  0  0  0  0  0  0
   60.0040   33.2440   48.0470 C   0  0  0  0  0  0  0  0  0  0  0  0
   58.7580   32.7540   48.7440 C   0  0  0  0  0  0  0  0  0  0  0  0
  1  2  2  0
  2  3  1  0
  3  4  2  0
  4  5  1  0
  5  6  2  0
  6  7  1  0
  6  8  1  0
  8  9  1  0
  9 10  2  0
  9 11  1  0
  3 12  1  0
 12 13  2  0
 13 14  1  0
 13 15  1  0
 15 16  1  0
 16 17  1  0
 17 18  2  0
 17 19  1  0
 19 20  2  3
 20 21  1  0
 21 22  1  0
 22 23  2  0
 23 24  1  0
 24 25  2  0
 25 26  1  0
 15  2  1  0
 25 20  1  0
 11  5  1  0
M  CHG  3   7  -1   8  -1  21  -1
M  END
>  <UniqueID>  (2900) 
22

>  <SMILES>  (2900) 
C=c1/c(=C\c2[nH]c(=O)[n-]c2[O-])cc(C)n1CC(=O)N=c1[n-]cccc1C

>  <Energy>  (2900) 
130.60375817586643

>  <Genealogy>  (2900) 
C=c1c(=Cc2[nH]c(=O)[n-]c2[O-])cc(C)n1CC(=O)N=c1[n-]cccc1C (protonated)
C=c1/c(=C\c2[nH]c(=O)[n-]c2[O-])cc(C)n1CC(=O)N=c1[n-]cccc1C (cis-trans isomerization)
C=c1/c(=C\c2[nH]c(=O)[n-]c2[O-])cc(C)n1CC(=O)N=c1[n-]cccc1C (3D coordinates assigned)
C=c1/c(=C\c2[nH]c(=O)[n-]c2[O-])cc(C)n1CC(=O)N=c1[n-]cccc1C (optimized conformer: 130.60375817586643 kcal/mol)

>  <smiles>  (2900) 
C=c1c(=Cc2[nH]c(=O)[nH]c2O)cc(C)n1CC(=O)N=c1[nH]cccc1C

>  <score_type>  (2900) 
oracle

>  <origin>  (2900) 
adg

>  <m_score__min__energy>  (2900) 
-14.85

>  <m_primary>  (2900) 
energy

$$$$
22:0
     RDKit          3D

 35 39  0  0  0  0  0  0  0  0999 V2000
   56.5710   29.3950   44.6850 C   0  0  0  0  0  0  0  0  0  0  0  0
   57.8030   29.1170   45.1430 C   0  0  0  0  0  0  0  0  0  0  0  0
   58.4080   27.8530   45.1910 C   0  0  0  0  0  0  0  0  0  0  0  0
   57.8390   26.6720   44.8610 C   0  0  0  0  0  0  0  0  0  0  0  0
   57.2520   25.6980   45.8120 C   0  0  0  0  0  0  0  0  0  0  0  0
   57.8860   24.6240   46.3180 N   0  0  0  0  0  0  0  0  0  0  0  0
   56.9510   24.0320   47.0890 C   0  0  0  0  0  0  0  0  0  0  0  0
   57.1770   22.9800   47.7410 O   0  0  0  0  0  0  0  0  0  0  0  0
   55.7560   24.6540   47.1040 N   0  0  0  0  0  0  0  0  0  0  0  0
   55.9550   25.7050   46.2910 C   0  0  0  0  0  0  0  0  0  0  0  0
   54.9600   26.6360   46.0030 O   0  0  0  0  0  0  0  0  0  0  0  0
   59.7010   28.0660   45.6550 C   0  0  0  0  0  0  0  0  0  0  0  0
   59.8260   29.4200   45.8840 C   0  0  0  0  0  0  0  0  0  0  0  0
   61.0840   30.0880   46.3530 C   0  0  0  0  0  0  0  0  0  0  0  0
   58.6720   30.0590   45.5870 N   0  0  0  0  0  0  0  0  0  0  0  0
   58.4410   31.4770   45.7140 C   0  0  0  0  0  0  0  0  0  0  0  0
   58.0740   32.2130   44.5750 C   0  0  0  0  0  0  0  0  0  0  0  0
   57.8020   33.5780   44.6710 C   0  0  0  0  0  0  0  0  0  0  0  0
   57.8850   34.2230   45.9050 C   0  0  0  0  0  0  0  0  0  0  0  0
   58.2470   33.5060   47.0470 C   0  0  0  0  0  0  0  0  0  0  0  0
   58.5460   32.1360   46.9640 C   0  0  0  0  0  0  0  0  0  0  0  0
   58.9290   31.4160   48.1990 C   0  0  0  0  0  0  0  0  0  0  0  0
   58.5080   30.2380   48.3670 O   0  0  0  0  0  0  0  0  0  0  0  0
   59.7570   32.0270   49.2070 N   0  0  0  0  0  0  0  0  0  0  0  0
   59.6460   33.4560   49.5180 C   0  0  0  0  0  0  0  0  0  0  0  0
   59.3340   33.6680   51.0170 C   0  0  0  0  0  0  0  0  0  0  0  0
   59.8070   32.5670   51.9060 N   0  0  0  0  0  0  0  0  0  0  0  0
   58.7030   31.6460   52.3260 C   0  0  0  0  0  0  0  0  0  0  0  0
   58.2270   31.8940   53.7810 C   0  0  0  0  0  0  0  0  0  0  0  0
   57.0060   31.0170   54.1480 C   0  0  0  0  0  0  0  0  0  0  0  0
   56.3270   30.4830   53.0240 O   0  0  0  0  0  0  0  0  0  0  0  0
   56.1450   31.4850   52.0500 C   0  0  0  0  0  0  0  0  0  0  0  0
   57.4850   31.8070   51.3700 C   0  0  0  0  0  0  0  0  0  0  0  0
   61.0040   31.9060   51.3320 C   0  0  0  0  0  0  0  0  0  0  0  0
   60.6680   31.2030   50.0080 C   0  0  0  0  0  0  0  0  0  0  0  0
  1  2  2  0
  2  3  1  0
  3  4  2  3
  4  5  1  0
  5  6  1  0
  6  7  1  0
  7  8  2  0
  7  9  1  0
  9 10  1  0
 10 11  1  0
  3 12  1  0
 12 13  2  0
 13 14  1  0
 13 15  1  0
 15 16  1  0
 16 17  2  0
 17 18  1  0
 18 19  2  0
 19 20  1  0
 20 21  2  0
 21 22  1  0
 22 23  2  0
 22 24  1  0
 24 25  1  0
 25 26  1  0
 26 27  1  0
 27 28  1  0
 28 29  1  0
 29 30  1  0
 30 31  1  0
 31 32  1  0
 32 33  1  0
 27 34  1  0
 34 35  1  0
 15  2  1  0
 21 16  1  0
 35 24  1  0
 10  5  2  0
 33 28  1  0
M  CHG  2   6  -1   9  -1
M  END
>  <UniqueID>  (2901) 
23

>  <SMILES>  (2901) 
C=c1c(=Cc2[n-]c(=O)[n-]c2O)cc(C)n1-c1ccccc1C(=O)N1CCN(C2CCOCC2)CC1

>  <Energy>  (2901) 
161.34450363148403

>  <Genealogy>  (2901) 
C=c1c(=Cc2[n-]c(=O)[n-]c2O)cc(C)n1-c1ccccc1C(=O)N1CCN(C2CCOCC2)CC1 (protonated)
C=c1c(=Cc2[n-]c(=O)[n-]c2O)cc(C)n1-c1ccccc1C(=O)N1CCN(C2CCOCC2)CC1 (3D coordinates assigned)
C=c1c(=Cc2[n-]c(=O)[n-]c2O)cc(C)n1-c1ccccc1C(=O)N1CCN(C2CCOCC2)CC1 (nonaromatic ring conformer: 161.34450363148403 kcal/mol)

>  <smiles>  (2901) 
C=c1c(=Cc2[nH]c(=O)[nH]c2O)cc(C)n1-c1ccccc1C(=O)N1CCN(C2CCOCC2)CC1

>  <score_type>  (2901) 
oracle

>  <origin>  (2901) 
adg

>  <m_score__min__energy>  (2901) 
-14.58

>  <m_primary>  (2901) 
energy

$$$$
35:0
     RDKit          3D

 29 31  0  0  0  0  0  0  0  0999 V2000
   64.2650   33.4250   49.1170 C   0  0  0  0  0  0  0  0  0  0  0  0
   63.4080   32.2800   48.7630 N   0  0  0  0  0  0  0  0  0  0  0  0
   63.0350   32.2710   47.3320 C   0  0  0  0  0  0  0  0  0  0  0  0
   61.9870   33.3380   46.9890 C   0  0  0  0  0  0  0  0  0  0  0  0
   60.8580   33.2510   47.9180 N   0  0  0  0  0  0  0  0  0  0  0  0
   59.5440   33.6440   47.4820 C   0  0  0  0  0  0  0  0  0  0  0  0
   58.9110   34.5200   48.1320 O   0  0  0  0  0  0  0  0  0  0  0  0
   58.9130   33.0220   46.2930 C   0  0  0  0  0  0  0  0  0  0  0  0
   59.1160   31.6620   46.0110 C   0  0  0  0  0  0  0  0  0  0  0  0
   58.5230   31.0730   44.8900 C   0  0  0  0  0  0  0  0  0  0  0  0
   57.7150   31.8320   44.0250 C   0  0  0  0  0  0  0  0  0  0  0  0
   57.0870   31.1870   42.8410 C   0  0  0  0  0  0  0  0  0  0  0  0
   57.3870   31.5980   41.6860 O   0  0  0  0  0  0  0  0  0  0  0  0
   56.0550   30.0970   42.9930 C   0  0  0  0  0  0  0  0  0  0  0  0
   56.3010   29.2620   44.2130 C   0  0  0  0  0  0  0  0  0  0  0  0
   55.7340   29.5610   45.2990 O   0  0  0  0  0  0  0  0  0  0  0  0
   57.2350   28.1790   44.1540 N   0  0  0  0  0  0  0  0  0  0  0  0
   58.0190   27.7300   45.2650 C   0  0  0  0  0  0  0  0  0  0  0  0
   59.6160   28.1840   45.5060 S   0  0  0  0  0  0  0  0  0  0  0  0
   59.8160   27.3690   46.9620 C   0  0  0  0  0  0  0  0  0  0  0  0
   58.6280   26.7160   47.2700 C   0  0  0  0  0  0  0  0  0  0  0  0
   57.6120   26.8970   46.3150 C   0  0  0  0  0  0  0  0  0  0  0  0
   56.3200   26.1830   46.3950 C   0  0  0  0  0  0  0  0  0  0  0  0
   55.1710   26.7130   45.7380 N   0  0  0  0  0  0  0  0  0  0  0  0
   56.2120   25.1260   47.0700 O   0  0  0  0  0  0  0  0  0  0  0  0
   57.5310   33.2000   44.2980 C   0  0  0  0  0  0  0  0  0  0  0  0
   58.1260   33.7880   45.4160 C   0  0  0  0  0  0  0  0  0  0  0  0
   61.1580   33.2230   49.3520 C   0  0  0  0  0  0  0  0  0  0  0  0
   62.2280   32.1610   49.6450 C   0  0  0  0  0  0  0  0  0  0  0  0
  1  2  1  0
  2  3  1  0
  3  4  1  0
  4  5  1  0
  5  6  1  0
  6  7  2  0
  6  8  1  0
  8  9  2  0
  9 10  1  0
 10 11  2  0
 11 12  1  0
 12 13  2  0
 12 14  1  0
 14 15  1  0
 15 16  2  0
 15 17  1  0
 17 18  1  0
 18 19  1  0
 19 20  1  0
 20 21  2  0
 21 22  1  0
 22 23  1  0
 23 24  1  0
 23 25  2  0
 11 26  1  0
 26 27  2  0
  5 28  1  0
 28 29  1  0
 29  2  1  0
 27  8  1  0
 22 18  2  0
M  CHG  2  17  -1  24  -1
M  END
>  <UniqueID>  (2902) 
36

>  <SMILES>  (2902) 
CN1CCN(C(=O)c2ccc(C(=O)CC(=O)[N-]c3sccc3C([NH-])=O)cc2)CC1

>  <Energy>  (2902) 
91.08990538315167

>  <Genealogy>  (2902) 
CN1CCN(C(=O)c2ccc(C(=O)CC(=O)[N-]c3sccc3C([NH-])=O)cc2)CC1 (protonated)
CN1CCN(C(=O)c2ccc(C(=O)CC(=O)[N-]c3sccc3C([NH-])=O)cc2)CC1 (3D coordinates assigned)
CN1CCN(C(=O)c2ccc(C(=O)CC(=O)[N-]c3sccc3C([NH-])=O)cc2)CC1 (nonaromatic ring conformer: 91.08990538315167 kcal/mol)

>  <smiles>  (2902) 
CN1CCN(C(=O)c2ccc(C(=O)CC(=O)Nc3sccc3C(N)=O)cc2)CC1

>  <score_type>  (2902) 
oracle

>  <origin>  (2902) 
adg

>  <m_score__min__energy>  (2902) 
-15.140000000000001

>  <m_primary>  (2902) 
energy

$$$$
41:0
     RDKit          3D

 30 32  0  0  0  0  0  0  0  0999 V2000
   59.1060   34.2000   45.2450 C   0  0  0  0  0  0  0  0  0  0  0  0
   57.3760   33.7950   45.3470 S   0  0  0  0  0  0  0  0  0  0  0  0
   56.5380   34.9420   44.8550 O   0  0  0  0  0  0  0  0  0  0  0  0
   57.0290   33.5240   46.7840 O   0  0  0  0  0  0  0  0  0  0  0  0
   57.0400   32.3710   44.4150 N   0  0  0  0  0  0  0  0  0  0  0  0
   57.3880   31.0280   44.7770 C   0  0  0  0  0  0  0  0  0  0  0  0
   58.5020   30.8260   45.5980 C   0  0  0  0  0  0  0  0  0  0  0  0
   58.8830   29.5350   45.9760 C   0  0  0  0  0  0  0  0  0  0  0  0
   58.1490   28.4180   45.5380 C   0  0  0  0  0  0  0  0  0  0  0  0
   58.5490   27.0490   45.9390 C   0  0  0  0  0  0  0  0  0  0  0  0
   59.7370   26.6620   45.7620 O   0  0  0  0  0  0  0  0  0  0  0  0
   57.6020   26.1790   46.5720 N   0  0  0  0  0  0  0  0  0  0  0  0
   56.7050   25.2880   45.8940 C   0  0  0  0  0  0  0  0  0  0  0  0
   57.2120   24.0840   45.3910 C   0  0  0  0  0  0  0  0  0  0  0  0
   56.3720   23.1720   44.7380 C   0  0  0  0  0  0  0  0  0  0  0  0
   57.0220   21.6540   44.1120 S   0  0  0  0  0  0  0  0  0  0  0  0
   56.2780   21.2750   42.8600 O   0  0  0  0  0  0  0  0  0  0  0  0
   58.4680   21.8450   43.7530 O   0  0  0  0  0  0  0  0  0  0  0  0
   56.8830   20.3640   45.2850 N   0  0  0  0  0  0  0  0  0  0  0  0
   57.5590   20.7100   46.5600 C   0  0  0  0  0  0  0  0  0  0  0  0
   56.5770   21.1130   47.6710 C   0  0  0  0  0  0  0  0  0  0  0  0
   55.5700   19.9860   47.9570 C   0  0  0  0  0  0  0  0  0  0  0  0
   55.2510   19.1410   46.7100 C   0  0  0  0  0  0  0  0  0  0  0  0
   55.4700   19.9480   45.4270 C   0  0  0  0  0  0  0  0  0  0  0  0
   55.0100   23.4700   44.5920 C   0  0  0  0  0  0  0  0  0  0  0  0
   54.4900   24.6540   45.1190 C   0  0  0  0  0  0  0  0  0  0  0  0
   55.3250   25.5560   45.7850 C   0  0  0  0  0  0  0  0  0  0  0  0
   54.7690   26.6930   46.3600 O   0  0  0  0  0  0  0  0  0  0  0  0
   57.0280   28.6240   44.7150 C   0  0  0  0  0  0  0  0  0  0  0  0
   56.6500   29.9160   44.3380 C   0  0  0  0  0  0  0  0  0  0  0  0
  1  2  1  0
  2  3  2  0
  2  4  2  0
  2  5  1  0
  5  6  1  0
  6  7  2  0
  7  8  1  0
  8  9  2  0
  9 10  1  0
 10 11  2  0
 10 12  1  0
 12 13  1  0
 13 14  2  0
 14 15  1  0
 15 16  1  0
 16 17  2  0
 16 18  2  0
 16 19  1  0
 19 20  1  0
 20 21  1  0
 21 22  1  0
 22 23  1  0
 23 24  1  0
 15 25  2  0
 25 26  1  0
 26 27  2  0
 27 28  1  0
  9 29  1  0
 29 30  2  0
 30  6  1  0
 27 13  1  0
 24 19  1  0
M  CHG  3   5  -1  12  -1  28  -1
M  END
>  <UniqueID>  (2903) 
42

>  <SMILES>  (2903) 
CS(=O)(=O)[N-]c1ccc(C(=O)[N-]c2cc(S(=O)(=O)N3CCCCC3)ccc2[O-])cc1

>  <Energy>  (2903) 
61.13796766397847

>  <Genealogy>  (2903) 
CS(=O)(=O)[N-]c1ccc(C(=O)[N-]c2cc(S(=O)(=O)N3CCCCC3)ccc2[O-])cc1 (protonated)
CS(=O)(=O)[N-]c1ccc(C(=O)[N-]c2cc(S(=O)(=O)N3CCCCC3)ccc2[O-])cc1 (3D coordinates assigned)
CS(=O)(=O)[N-]c1ccc(C(=O)[N-]c2cc(S(=O)(=O)N3CCCCC3)ccc2[O-])cc1 (nonaromatic ring conformer: 61.13796766397847 kcal/mol)

>  <smiles>  (2903) 
CS(=O)(=O)Nc1ccc(C(=O)Nc2cc(S(=O)(=O)N3CCCCC3)ccc2O)cc1

>  <score_type>  (2903) 
oracle

>  <origin>  (2903) 
adg

>  <m_score__min__energy>  (2903) 
-15.869999999999999

>  <m_primary>  (2903) 
energy

$$$$
43:0
     RDKit          3D

 29 31  0  0  0  0  0  0  0  0999 V2000
   57.5590   32.3460   50.3300 O   0  0  0  0  0  0  0  0  0  0  0  0
   58.1890   31.7460   51.2410 C   0  0  0  0  0  0  0  0  0  0  0  0
   57.6020   31.7100   52.6310 C   0  0  0  0  0  0  0  0  0  0  0  0
   56.4920   30.7400   52.7240 N   0  0  0  0  0  0  0  0  0  0  0  0
   55.2090   31.1900   52.5490 C   0  0  0  0  0  0  0  0  0  0  0  0
   54.1110   30.3180   52.6470 C   0  0  0  0  0  0  0  0  0  0  0  0
   52.7240   30.7980   52.4280 C   0  0  0  0  0  0  0  0  0  0  0  0
   52.0620   31.2230   53.4150 O   0  0  0  0  0  0  0  0  0  0  0  0
   52.0960   30.8110   51.0840 C   0  0  0  0  0  0  0  0  0  0  0  0
   52.3370   29.7580   50.1830 C   0  0  0  0  0  0  0  0  0  0  0  0
   51.7710   29.7730   48.9070 C   0  0  0  0  0  0  0  0  0  0  0  0
   50.9650   30.8420   48.5110 C   0  0  0  0  0  0  0  0  0  0  0  0
   50.7230   31.9000   49.3910 C   0  0  0  0  0  0  0  0  0  0  0  0
   49.9200   32.9610   48.9880 O   0  0  0  0  0  0  0  0  0  0  0  0
   51.2850   31.8910   50.6750 C   0  0  0  0  0  0  0  0  0  0  0  0
   51.0230   32.9480   51.5400 O   0  0  0  0  0  0  0  0  0  0  0  0
   54.3550   28.9690   52.9240 C   0  0  0  0  0  0  0  0  0  0  0  0
   55.6550   28.5240   53.1350 C   0  0  0  0  0  0  0  0  0  0  0  0
   56.7200   29.4230   53.0440 C   0  0  0  0  0  0  0  0  0  0  0  0
   57.8890   29.0020   53.2640 O   0  0  0  0  0  0  0  0  0  0  0  0
   59.4180   31.0870   50.9060 N   0  0  0  0  0  0  0  0  0  0  0  0
   60.3370   31.4840   49.8450 C   0  0  0  0  0  0  0  0  0  0  0  0
   59.7840   31.0750   48.4780 C   0  0  0  0  0  0  0  0  0  0  0  0
   59.3830   32.2900   47.6860 C   0  0  0  0  0  0  0  0  0  0  0  0
   59.8940   33.5550   48.0210 C   0  0  0  0  0  0  0  0  0  0  0  0
   59.4880   34.6890   47.3090 C   0  0  0  0  0  0  0  0  0  0  0  0
   58.5690   34.5680   46.2650 C   0  0  0  0  0  0  0  0  0  0  0  0
   58.0470   33.3140   45.9330 C   0  0  0  0  0  0  0  0  0  0  0  0
   58.4480   32.1780   46.6440 C   0  0  0  0  0  0  0  0  0  0  0  0
  1  2  2  0
  2  3  1  0
  3  4  1  0
  4  5  1  0
  5  6  2  0
  6  7  1  0
  7  8  2  0
  7  9  1  0
  9 10  2  0
 10 11  1  0
 11 12  2  0
 12 13  1  0
 13 14  1  0
 13 15  2  0
 15 16  1  0
  6 17  1  0
 17 18  2  0
 18 19  1  0
 19 20  2  0
  2 21  1  0
 21 22  1  0
 22 23  1  0
 23 24  1  0
 24 25  2  0
 25 26  1  0
 26 27  2  0
 27 28  1  0
 28 29  2  0
 19  4  1  0
 29 24  1  0
 15  9  1  0
M  CHG  3  14  -1  16  -1  21  -1
M  END
>  <UniqueID>  (2904) 
44

>  <SMILES>  (2904) 
O=C(Cn1cc(C(=O)c2cccc([O-])c2[O-])ccc1=O)[N-]CCc1ccccc1

>  <Energy>  (2904) 
54.715565060808835

>  <Genealogy>  (2904) 
O=C(Cn1cc(C(=O)c2cccc([O-])c2[O-])ccc1=O)[N-]CCc1ccccc1 (protonated)
O=C(Cn1cc(C(=O)c2cccc([O-])c2[O-])ccc1=O)[N-]CCc1ccccc1 (3D coordinates assigned)
O=C(Cn1cc(C(=O)c2cccc([O-])c2[O-])ccc1=O)[N-]CCc1ccccc1 (optimized conformer: 54.715565060808835 kcal/mol)

>  <smiles>  (2904) 
O=C(Cn1cc(C(=O)c2cccc(O)c2O)ccc1=O)NCCc1ccccc1

>  <score_type>  (2904) 
oracle

>  <origin>  (2904) 
adg

>  <m_score__min__energy>  (2904) 
-17.609999999999999

>  <m_primary>  (2904) 
energy

$$$$
54:0
     RDKit          3D

 33 36  0  0  0  0  0  0  0  0999 V2000
   57.6570   27.0120   44.4450 C   0  0  0  0  0  0  0  0  0  0  0  0
   58.1560   27.2040   45.6760 C   0  0  0  0  0  0  0  0  0  0  0  0
   57.8320   26.4990   46.8470 C   0  0  0  0  0  0  0  0  0  0  0  0
   57.1300   25.3640   47.0330 C   0  0  0  0  0  0  0  0  0  0  0  0
   56.2510   24.7170   46.0460 C   0  0  0  0  0  0  0  0  0  0  0  0
   56.6140   23.6430   45.3250 N   0  0  0  0  0  0  0  0  0  0  0  0
   55.5840   23.4770   44.4650 C   0  0  0  0  0  0  0  0  0  0  0  0
   55.5470   22.5430   43.6190 O   0  0  0  0  0  0  0  0  0  0  0  0
   54.6010   24.3980   44.5720 N   0  0  0  0  0  0  0  0  0  0  0  0
   55.0470   25.1870   45.5630 C   0  0  0  0  0  0  0  0  0  0  0  0
   54.3900   26.3370   45.9860 O   0  0  0  0  0  0  0  0  0  0  0  0
   58.3980   27.2140   47.8950 C   0  0  0  0  0  0  0  0  0  0  0  0
   59.1110   28.2530   47.3330 C   0  0  0  0  0  0  0  0  0  0  0  0
   59.8130   29.3280   48.1060 C   0  0  0  0  0  0  0  0  0  0  0  0
   58.9710   28.2400   45.9920 N   0  0  0  0  0  0  0  0  0  0  0  0
   59.5240   29.2150   45.0950 C   0  0  0  0  0  0  0  0  0  0  0  0
   60.4890   28.8820   44.3540 O   0  0  0  0  0  0  0  0  0  0  0  0
   58.9680   30.5890   45.0310 C   0  0  0  0  0  0  0  0  0  0  0  0
   58.0140   30.9260   44.0530 C   0  0  0  0  0  0  0  0  0  0  0  0
   57.4650   32.2110   44.0120 C   0  0  0  0  0  0  0  0  0  0  0  0
   57.8550   33.1770   44.9480 C   0  0  0  0  0  0  0  0  0  0  0  0
   57.2820   34.4490   44.9200 O   0  0  0  0  0  0  0  0  0  0  0  0
   58.8170   32.8590   45.9250 C   0  0  0  0  0  0  0  0  0  0  0  0
   59.2410   33.8780   46.9040 C   0  0  0  0  0  0  0  0  0  0  0  0
   58.3480   34.5870   47.4510 O   0  0  0  0  0  0  0  0  0  0  0  0
   60.6190   34.0050   47.3240 N   0  0  0  0  0  0  0  0  0  0  0  0
   60.9410   34.5940   48.6310 C   0  0  0  0  0  0  0  0  0  0  0  0
   61.9990   33.7250   49.3210 C   0  0  0  0  0  0  0  0  0  0  0  0
   63.2330   33.5460   48.5070 N   0  0  0  0  0  0  0  0  0  0  0  0
   63.8030   32.2020   48.7030 C   0  0  0  0  0  0  0  0  0  0  0  0
   63.0850   33.8690   47.0650 C   0  0  0  0  0  0  0  0  0  0  0  0
   61.7150   33.4750   46.4980 C   0  0  0  0  0  0  0  0  0  0  0  0
   59.3810   31.5710   45.9470 C   0  0  0  0  0  0  0  0  0  0  0  0
  1  2  2  0
  2  3  1  0
  3  4  2  3
  4  5  1  0
  5  6  1  0
  6  7  1  0
  7  8  2  0
  7  9  1  0
  9 10  1  0
 10 11  1  0
  3 12  1  0
 12 13  2  0
 13 14  1  0
 13 15  1  0
 15 16  1  0
 16 17  2  0
 16 18  1  0
 18 19  2  0
 19 20  1  0
 20 21  2  0
 21 22  1  0
 21 23  1  0
 23 24  1  0
 24 25  2  0
 24 26  1  0
 26 27  1  0
 27 28  1  0
 28 29  1  0
 29 30  1  0
 29 31  1  0
 31 32  1  0
 23 33  2  0
 15  2  1  0
 33 18  1  0
 10  5  2  0
 32 26  1  0
M  CHG  3   6  -1   9  -1  11  -1
M  END
>  <UniqueID>  (2905) 
55

>  <SMILES>  (2905) 
C=c1c(=Cc2[n-]c(=O)[n-]c2[O-])cc(C)n1C(=O)c1ccc(O)c(C(=O)N2CCN(C)CC2)c1

>  <Energy>  (2905) 
148.96382134291346

>  <Genealogy>  (2905) 
C=c1c(=Cc2[n-]c(=O)[n-]c2[O-])cc(C)n1C(=O)c1ccc(O)c(C(=O)N2CCN(C)CC2)c1 (protonated)
C=c1c(=Cc2[n-]c(=O)[n-]c2[O-])cc(C)n1C(=O)c1ccc(O)c(C(=O)N2CCN(C)CC2)c1 (3D coordinates assigned)
C=c1c(=Cc2[n-]c(=O)[n-]c2[O-])cc(C)n1C(=O)c1ccc(O)c(C(=O)N2CCN(C)CC2)c1 (nonaromatic ring conformer: 148.96382134291346 kcal/mol)

>  <smiles>  (2905) 
C=c1c(=Cc2[nH]c(=O)[nH]c2O)cc(C)n1C(=O)c1ccc(O)c(C(=O)N2CCN(C)CC2)c1

>  <score_type>  (2905) 
oracle

>  <origin>  (2905) 
adg

>  <m_score__min__energy>  (2905) 
-16.77

>  <m_primary>  (2905) 
energy

$$$$
59:0
     RDKit          3D

 27 29  0  0  0  0  0  0  0  0999 V2000
   65.2990   33.1720   50.0350 C   0  0  0  0  0  0  0  0  0  0  0  0
   63.9710   33.3340   49.3580 C   0  0  0  0  0  0  0  0  0  0  0  0
   63.8350   33.0530   47.9890 C   0  0  0  0  0  0  0  0  0  0  0  0
   62.6060   33.2410   47.3490 C   0  0  0  0  0  0  0  0  0  0  0  0
   61.5030   33.7210   48.0680 C   0  0  0  0  0  0  0  0  0  0  0  0
   59.9520   33.9820   47.2720 S   0  0  0  0  0  0  0  0  0  0  0  0
   59.8970   35.4030   46.7840 O   0  0  0  0  0  0  0  0  0  0  0  0
   58.8290   33.7670   48.2500 O   0  0  0  0  0  0  0  0  0  0  0  0
   59.7870   32.8820   45.9240 N   0  0  0  0  0  0  0  0  0  0  0  0
   59.7760   31.4680   46.3830 C   0  0  0  0  0  0  0  0  0  0  0  0
   58.3530   30.8890   46.4720 C   0  0  0  0  0  0  0  0  0  0  0  0
   57.6270   30.9630   45.1760 N   0  0  0  0  0  0  0  0  0  0  0  0
   57.6450   29.6740   44.4540 C   0  0  0  0  0  0  0  0  0  0  0  0
   56.6650   28.7020   45.0620 C   0  0  0  0  0  0  0  0  0  0  0  0
   55.4500   29.0320   45.1370 O   0  0  0  0  0  0  0  0  0  0  0  0
   57.0910   27.3540   45.5170 C   0  0  0  0  0  0  0  0  0  0  0  0
   58.4480   26.9860   45.4970 C   0  0  0  0  0  0  0  0  0  0  0  0
   58.8400   25.7140   45.9160 C   0  0  0  0  0  0  0  0  0  0  0  0
   57.8730   24.8080   46.3520 C   0  0  0  0  0  0  0  0  0  0  0  0
   58.2100   23.6560   46.7320 O   0  0  0  0  0  0  0  0  0  0  0  0
   56.5640   25.1700   46.3670 N   0  0  0  0  0  0  0  0  0  0  0  0
   56.1500   26.4010   45.9660 C   0  0  0  0  0  0  0  0  0  0  0  0
   54.7940   26.7060   46.0220 O   0  0  0  0  0  0  0  0  0  0  0  0
   58.0990   32.0580   44.2970 C   0  0  0  0  0  0  0  0  0  0  0  0
   58.6000   33.2520   45.1180 C   0  0  0  0  0  0  0  0  0  0  0  0
   61.6420   34.0220   49.4290 C   0  0  0  0  0  0  0  0  0  0  0  0
   62.8710   33.8350   50.0710 C   0  0  0  0  0  0  0  0  0  0  0  0
  1  2  1  0
  2  3  2  0
  3  4  1  0
  4  5  2  0
  5  6  1  0
  6  7  2  0
  6  8  2  0
  6  9  1  0
  9 10  1  0
 10 11  1  0
 11 12  1  0
 12 13  1  0
 13 14  1  0
 14 15  2  0
 14 16  1  0
 16 17  1  0
 17 18  2  0
 18 19  1  0
 19 20  2  0
 19 21  1  0
 21 22  1  0
 22 23  1  0
 12 24  1  0
 24 25  1  0
  5 26  1  0
 26 27  2  0
 27  2  1  0
 25  9  1  0
 22 16  2  0
M  CHG  3   9   1  21  -1  23  -1
M  END
>  <UniqueID>  (2906) 
59

>  <SMILES>  (2906) 
Cc1ccc(S(=O)(=O)[NH+]2CCN(CC(=O)c3ccc(=O)[n-]c3[O-])CC2)cc1

>  <Energy>  (2906) 
63.1227617425404

>  <Genealogy>  (2906) 
Cc1ccc(S(=O)(=O)[NH+]2CCN(CC(=O)c3ccc(=O)[n-]c3[O-])CC2)cc1 (protonated)
Cc1ccc(S(=O)(=O)[NH+]2CCN(CC(=O)c3ccc(=O)[n-]c3[O-])CC2)cc1 (3D coordinates assigned)
Cc1ccc(S(=O)(=O)[NH+]2CCN(CC(=O)c3ccc(=O)[n-]c3[O-])CC2)cc1 (nonaromatic ring conformer: 63.1227617425404 kcal/mol)

>  <smiles>  (2906) 
Cc1ccc(S(=O)(=O)N2CCN(CC(=O)c3ccc(=O)[nH]c3O)CC2)cc1

>  <score_type>  (2906) 
oracle

>  <origin>  (2906) 
adg

>  <m_score__min__energy>  (2906) 
-14.130000000000001

>  <m_primary>  (2906) 
energy

$$$$
67:0
     RDKit          3D

 33 36  0  0  0  0  0  0  0  0999 V2000
   51.3030   31.9040   53.8990 O   0  0  0  0  0  0  0  0  0  0  0  0
   51.4030   31.7020   52.5240 C   0  0  0  0  0  0  0  0  0  0  0  0
   50.6600   32.3740   51.6290 N   0  0  0  0  0  0  0  0  0  0  0  0
   51.1390   31.9310   50.4470 C   0  0  0  0  0  0  0  0  0  0  0  0
   50.7070   32.3450   49.3400 O   0  0  0  0  0  0  0  0  0  0  0  0
   52.1360   31.0260   50.5430 N   0  0  0  0  0  0  0  0  0  0  0  0
   52.2860   30.8640   51.8700 C   0  0  0  0  0  0  0  0  0  0  0  0
   53.3320   30.0060   52.4560 C   0  0  0  0  0  0  0  0  0  0  0  0
   54.6470   30.2910   52.4180 C   0  0  0  0  0  0  0  0  0  0  0  0
   55.2190   31.4890   52.0080 C   0  0  0  0  0  0  0  0  0  0  0  0
   56.5810   31.3680   52.2120 C   0  0  0  0  0  0  0  0  0  0  0  0
   57.5560   32.4130   51.8520 C   0  0  0  0  0  0  0  0  0  0  0  0
   57.6300   33.4320   52.5930 O   0  0  0  0  0  0  0  0  0  0  0  0
   58.4500   32.2770   50.7220 N   0  0  0  0  0  0  0  0  0  0  0  0
   59.3400   33.4000   50.3950 C   0  0  0  0  0  0  0  0  0  0  0  0
   60.2110   33.0850   49.1710 C   0  0  0  0  0  0  0  0  0  0  0  0
   59.4210   32.4350   48.1080 N   0  0  0  0  0  0  0  0  0  0  0  0
   58.4100   33.3460   47.5270 C   0  0  0  0  0  0  0  0  0  0  0  0
   58.2650   33.0880   46.0230 C   0  0  0  0  0  0  0  0  0  0  0  0
   59.1750   32.0720   45.5940 O   0  0  0  0  0  0  0  0  0  0  0  0
   58.8270   30.7570   45.2420 C   0  0  0  0  0  0  0  0  0  0  0  0
   57.6170   30.4320   44.5920 C   0  0  0  0  0  0  0  0  0  0  0  0
   57.3190   29.0990   44.2820 C   0  0  0  0  0  0  0  0  0  0  0  0
   58.2190   28.0820   44.6160 C   0  0  0  0  0  0  0  0  0  0  0  0
   57.8410   26.4130   44.2290 Cl  0  0  0  0  0  0  0  0  0  0  0  0
   59.4240   28.3990   45.2520 C   0  0  0  0  0  0  0  0  0  0  0  0
   59.7260   29.7300   45.5580 C   0  0  0  0  0  0  0  0  0  0  0  0
   58.8400   31.1360   48.5400 C   0  0  0  0  0  0  0  0  0  0  0  0
   58.6800   30.9790   50.0690 C   0  0  0  0  0  0  0  0  0  0  0  0
   56.8800   30.1470   52.7190 N   0  0  0  0  0  0  0  0  0  0  0  0
   58.2200   29.6130   52.9880 C   0  0  0  0  0  0  0  0  0  0  0  0
   55.7030   29.4790   52.8460 C   0  0  0  0  0  0  0  0  0  0  0  0
   55.6030   28.2190   53.3030 C   0  0  0  0  0  0  0  0  0  0  0  0
  1  2  1  0
  2  3  1  0
  3  4  1  0
  4  5  2  0
  4  6  1  0
  6  7  1  0
  7  8  1  0
  8  9  2  0
  9 10  1  0
 10 11  2  0
 11 12  1  0
 12 13  2  0
 12 14  1  0
 14 15  1  0
 15 16  1  0
 16 17  1  0
 17 18  1  0
 18 19  1  0
 19 20  1  0
 20 21  1  0
 21 22  2  0
 22 23  1  0
 23 24  2  0
 24 25  1  0
 24 26  1  0
 26 27  2  0
 17 28  1  0
 28 29  1  0
 11 30  1  0
 30 31  1  0
 30 32  1  0
 32 33  2  0
  7  2  2  0
 32  9  1  0
 29 14  1  0
 27 21  1  0
M  CHG  2   3  -1   6  -1
M  END
>  <UniqueID>  (2907) 
67

>  <SMILES>  (2907) 
C=c1/c(=C/c2[n-]c(=O)[n-]c2O)cc(C(=O)N2CCN(CCOc3ccc(Cl)cc3)CC2)n1C

>  <Energy>  (2907) 
138.41449370909797

>  <Genealogy>  (2907) 
C=c1c(=Cc2[n-]c(=O)[n-]c2O)cc(C(=O)N2CCN(CCOc3ccc(Cl)cc3)CC2)n1C (protonated)
C=c1/c(=C/c2[n-]c(=O)[n-]c2O)cc(C(=O)N2CCN(CCOc3ccc(Cl)cc3)CC2)n1C (cis-trans isomerization)
C=c1/c(=C/c2[n-]c(=O)[n-]c2O)cc(C(=O)N2CCN(CCOc3ccc(Cl)cc3)CC2)n1C (3D coordinates assigned)
C=c1/c(=C/c2[n-]c(=O)[n-]c2O)cc(C(=O)N2CCN(CCOc3ccc(Cl)cc3)CC2)n1C (nonaromatic ring conformer: 138.41449370909797 kcal/mol)

>  <smiles>  (2907) 
C=c1c(=Cc2[nH]c(=O)[nH]c2O)cc(C(=O)N2CCN(CCOc3ccc(Cl)cc3)CC2)n1C

>  <score_type>  (2907) 
oracle

>  <origin>  (2907) 
adg

>  <m_score__min__energy>  (2907) 
-14.25

>  <m_primary>  (2907) 
energy

$$$$
69:0
     RDKit          3D

 29 31  0  0  0  0  0  0  0  0999 V2000
   57.4970   30.0840   43.7580 C   0  0  0  0  0  0  0  0  0  0  0  0
   58.1060   30.2720   44.9400 C   0  0  0  0  0  0  0  0  0  0  0  0
   58.4270   29.2610   45.8620 C   0  0  0  0  0  0  0  0  0  0  0  0
   58.4420   27.9180   45.7380 C   0  0  0  0  0  0  0  0  0  0  0  0
   57.2730   27.0330   45.8610 C   0  0  0  0  0  0  0  0  0  0  0  0
   57.3010   25.7890   46.3730 N   0  0  0  0  0  0  0  0  0  0  0  0
   55.9980   25.4340   46.4010 C   0  0  0  0  0  0  0  0  0  0  0  0
   55.6120   24.3090   46.8120 O   0  0  0  0  0  0  0  0  0  0  0  0
   55.1420   26.3830   45.9650 N   0  0  0  0  0  0  0  0  0  0  0  0
   55.9650   27.3930   45.6410 C   0  0  0  0  0  0  0  0  0  0  0  0
   55.5300   28.6200   45.1560 O   0  0  0  0  0  0  0  0  0  0  0  0
   58.7860   29.9000   47.0310 C   0  0  0  0  0  0  0  0  0  0  0  0
   58.7550   31.2510   46.7700 C   0  0  0  0  0  0  0  0  0  0  0  0
   59.1110   32.2790   47.7650 C   0  0  0  0  0  0  0  0  0  0  0  0
   58.4260   32.3530   48.8200 O   0  0  0  0  0  0  0  0  0  0  0  0
   60.2280   33.1700   47.5540 N   0  0  0  0  0  0  0  0  0  0  0  0
   61.1050   33.0090   46.3850 C   0  0  0  0  0  0  0  0  0  0  0  0
   62.4380   33.7450   46.5930 C   0  0  0  0  0  0  0  0  0  0  0  0
   62.9290   33.5840   47.9780 N   0  0  0  0  0  0  0  0  0  0  0  0
   63.2910   32.1800   48.2720 C   0  0  0  0  0  0  0  0  0  0  0  0
   62.8090   31.7930   49.6390 C   0  0  0  0  0  0  0  0  0  0  0  0
   61.4320   31.4810   49.8610 N   0  0  0  0  0  0  0  0  0  0  0  0
   63.6230   31.7470   50.5990 O   0  0  0  0  0  0  0  0  0  0  0  0
   61.9940   34.1520   48.9860 C   0  0  0  0  0  0  0  0  0  0  0  0
   60.5300   34.2450   48.5070 C   0  0  0  0  0  0  0  0  0  0  0  0
   58.3540   31.4970   45.4970 N   0  0  0  0  0  0  0  0  0  0  0  0
   58.1260   32.8540   44.9440 C   0  0  0  0  0  0  0  0  0  0  0  0
   58.1500   32.8670   43.4100 C   0  0  0  0  0  0  0  0  0  0  0  0
   56.8740   33.5130   45.5350 C   0  0  0  0  0  0  0  0  0  0  0  0
  1  2  2  0
  2  3  1  0
  3  4  2  3
  4  5  1  0
  5  6  1  0
  6  7  1  0
  7  8  2  0
  7  9  1  0
  9 10  1  0
 10 11  1  0
  3 12  1  0
 12 13  2  0
 13 14  1  0
 14 15  2  0
 14 16  1  0
 16 17  1  0
 17 18  1  0
 18 19  1  0
 19 20  1  0
 20 21  1  0
 21 22  1  0
 21 23  2  0
 19 24  1  0
 24 25  1  0
 13 26  1  0
 26 27  1  0
 27 28  1  0
 27 29  1  0
 26  2  1  0
 10  5  2  0
 25 16  1  0
M  CHG  3   6  -1   9  -1  11  -1
M  END
>  <UniqueID>  (2908) 
68

>  <SMILES>  (2908) 
C=c1c(=Cc2[n-]c(=O)[n-]c2[O-])cc(C(=O)N2CCN(CC(N)=O)CC2)n1C(C)C

>  <Energy>  (2908) 
134.231155932837

>  <Genealogy>  (2908) 
C=c1c(=Cc2[n-]c(=O)[n-]c2[O-])cc(C(=O)N2CCN(CC(N)=O)CC2)n1C(C)C (protonated)
C=c1c(=Cc2[n-]c(=O)[n-]c2[O-])cc(C(=O)N2CCN(CC(N)=O)CC2)n1C(C)C (3D coordinates assigned)
C=c1c(=Cc2[n-]c(=O)[n-]c2[O-])cc(C(=O)N2CCN(CC(N)=O)CC2)n1C(C)C (nonaromatic ring conformer: 134.231155932837 kcal/mol)

>  <smiles>  (2908) 
C=c1c(=Cc2[nH]c(=O)[nH]c2O)cc(C(=O)N2CCN(CC(N)=O)CC2)n1C(C)C

>  <score_type>  (2908) 
oracle

>  <origin>  (2908) 
adg

>  <m_score__min__energy>  (2908) 
-15.67

>  <m_primary>  (2908) 
energy

$$$$
72:0
     RDKit          3D

 34 37  0  0  0  0  0  0  0  0999 V2000
   57.2930   29.2600   43.2240 C   0  0  0  0  0  0  0  0  0  0  0  0
   57.8730   29.9840   44.1940 C   0  0  0  0  0  0  0  0  0  0  0  0
   58.2910   29.5290   45.4560 C   0  0  0  0  0  0  0  0  0  0  0  0
   58.4210   28.2810   45.9490 C   0  0  0  0  0  0  0  0  0  0  0  0
   57.3590   27.2650   46.0060 C   0  0  0  0  0  0  0  0  0  0  0  0
   57.4850   26.0550   46.5810 N   0  0  0  0  0  0  0  0  0  0  0  0
   56.2350   25.5460   46.5140 C   0  0  0  0  0  0  0  0  0  0  0  0
   55.9450   24.4000   46.9460 O   0  0  0  0  0  0  0  0  0  0  0  0
   55.3180   26.3690   45.9610 N   0  0  0  0  0  0  0  0  0  0  0  0
   56.0440   27.4570   45.6590 C   0  0  0  0  0  0  0  0  0  0  0  0
   55.5150   28.6040   45.0820 O   0  0  0  0  0  0  0  0  0  0  0  0
   58.6060   30.6590   46.1890 C   0  0  0  0  0  0  0  0  0  0  0  0
   58.4220   31.7420   45.3570 C   0  0  0  0  0  0  0  0  0  0  0  0
   58.6650   33.1400   45.7590 C   0  0  0  0  0  0  0  0  0  0  0  0
   58.1340   34.0670   45.0920 O   0  0  0  0  0  0  0  0  0  0  0  0
   59.5230   33.4580   46.8700 N   0  0  0  0  0  0  0  0  0  0  0  0
   59.3490   34.7220   47.5900 C   0  0  0  0  0  0  0  0  0  0  0  0
   59.8710   34.5670   49.0220 C   0  0  0  0  0  0  0  0  0  0  0  0
   61.3000   34.1560   49.0740 N   0  0  0  0  0  0  0  0  0  0  0  0
   61.6020   33.4030   50.3110 C   0  0  0  0  0  0  0  0  0  0  0  0
   60.6790   32.2190   50.4590 C   0  0  0  0  0  0  0  0  0  0  0  0
   61.0660   30.9520   50.0010 C   0  0  0  0  0  0  0  0  0  0  0  0
   60.1930   29.8680   50.1120 C   0  0  0  0  0  0  0  0  0  0  0  0
   58.9300   30.0380   50.6830 C   0  0  0  0  0  0  0  0  0  0  0  0
   58.5250   31.3000   51.1560 C   0  0  0  0  0  0  0  0  0  0  0  0
   57.1820   31.5000   51.7520 C   0  0  0  0  0  0  0  0  0  0  0  0
   56.8700   32.6370   52.2040 O   0  0  0  0  0  0  0  0  0  0  0  0
   56.2370   30.4220   51.8420 N   0  0  0  0  0  0  0  0  0  0  0  0
   54.8690   30.6430   52.2930 C   0  0  0  0  0  0  0  0  0  0  0  0
   59.4060   32.3900   51.0270 C   0  0  0  0  0  0  0  0  0  0  0  0
   61.7770   33.4310   47.8680 C   0  0  0  0  0  0  0  0  0  0  0  0
   60.6750   32.6060   47.1910 C   0  0  0  0  0  0  0  0  0  0  0  0
   58.0030   31.3350   44.1350 N   0  0  0  0  0  0  0  0  0  0  0  0
   57.7580   32.1820   42.9630 C   0  0  0  0  0  0  0  0  0  0  0  0
  1  2  2  0
  2  3  1  0
  3  4  2  3
  4  5  1  0
  5  6  1  0
  6  7  1  0
  7  8  2  0
  7  9  1  0
  9 10  1  0
 10 11  1  0
  3 12  1  0
 12 13  2  0
 13 14  1  0
 14 15  2  0
 14 16  1  0
 16 17  1  0
 17 18  1  0
 18 19  1  0
 19 20  1  0
 20 21  1  0
 21 22  2  0
 22 23  1  0
 23 24  2  0
 24 25  1  0
 25 26  1  0
 26 27  2  0
 26 28  1  0
 28 29  1  0
 25 30  2  0
 19 31  1  0
 31 32  1  0
 13 33  1  0
 33 34  1  0
 33  2  1  0
 10  5  2  0
 32 16  1  0
 30 21  1  0
M  CHG  3   6  -1   9  -1  11  -1
M  END
>  <UniqueID>  (2909) 
71

>  <SMILES>  (2909) 
C=c1c(=Cc2[n-]c(=O)[n-]c2[O-])cc(C(=O)N2CCN(Cc3cccc(C(=O)NC)c3)CC2)n1C

>  <Energy>  (2909) 
143.26371286080752

>  <Genealogy>  (2909) 
C=c1c(=Cc2[n-]c(=O)[n-]c2[O-])cc(C(=O)N2CCN(Cc3cccc(C(=O)NC)c3)CC2)n1C (protonated)
C=c1c(=Cc2[n-]c(=O)[n-]c2[O-])cc(C(=O)N2CCN(Cc3cccc(C(=O)NC)c3)CC2)n1C (3D coordinates assigned)
C=c1c(=Cc2[n-]c(=O)[n-]c2[O-])cc(C(=O)N2CCN(Cc3cccc(C(=O)NC)c3)CC2)n1C (nonaromatic ring conformer: 143.26371286080752 kcal/mol)

>  <smiles>  (2909) 
C=c1c(=Cc2[nH]c(=O)[nH]c2O)cc(C(=O)N2CCN(Cc3cccc(C(=O)NC)c3)CC2)n1C

>  <score_type>  (2909) 
oracle

>  <origin>  (2909) 
adg

>  <m_score__min__energy>  (2909) 
-18.77

>  <m_primary>  (2909) 
energy

$$$$
82:0
     RDKit          3D

 26 27  0  0  0  0  0  0  0  0999 V2000
   59.1080   27.9320   47.2330 C   0  0  0  0  0  0  0  0  0  0  0  0
   58.3510   28.6100   46.3490 C   0  0  0  0  0  0  0  0  0  0  0  0
   58.1490   29.9950   46.5580 C   0  0  0  0  0  0  0  0  0  0  0  0
   58.4970   30.5860   47.7830 O   0  0  0  0  0  0  0  0  0  0  0  0
   59.7950   31.1010   48.0820 C   0  0  0  0  0  0  0  0  0  0  0  0
   59.8350   32.6190   47.8880 C   0  0  0  0  0  0  0  0  0  0  0  0
   58.5260   33.1370   47.4860 N   0  0  0  0  0  0  0  0  0  0  0  0
   58.6070   33.9670   45.9590 S   0  0  0  0  0  0  0  0  0  0  0  0
   59.2460   35.3100   46.1700 O   0  0  0  0  0  0  0  0  0  0  0  0
   59.4320   33.1810   44.9770 O   0  0  0  0  0  0  0  0  0  0  0  0
   56.9710   34.2120   45.3010 C   0  0  0  0  0  0  0  0  0  0  0  0
   57.6360   30.7640   45.5620 N   0  0  0  0  0  0  0  0  0  0  0  0
   57.3100   30.2630   44.3460 C   0  0  0  0  0  0  0  0  0  0  0  0
   56.7400   31.1810   43.3010 C   0  0  0  0  0  0  0  0  0  0  0  0
   57.8380   31.9730   42.5780 C   0  0  0  0  0  0  0  0  0  0  0  0
   57.4470   32.3370   41.1460 C   0  0  0  0  0  0  0  0  0  0  0  0
   57.4300   28.8920   44.1100 C   0  0  0  0  0  0  0  0  0  0  0  0
   57.8680   28.0270   45.1320 C   0  0  0  0  0  0  0  0  0  0  0  0
   57.7650   26.6950   44.8880 C   0  0  0  0  0  0  0  0  0  0  0  0
   57.1640   25.6930   45.7900 C   0  0  0  0  0  0  0  0  0  0  0  0
   57.8260   24.6630   46.3500 N   0  0  0  0  0  0  0  0  0  0  0  0
   56.9070   24.1070   47.1670 C   0  0  0  0  0  0  0  0  0  0  0  0
   57.1490   23.0900   47.8690 O   0  0  0  0  0  0  0  0  0  0  0  0
   55.7090   24.7310   47.1820 N   0  0  0  0  0  0  0  0  0  0  0  0
   55.8950   25.7390   46.3130 C   0  0  0  0  0  0  0  0  0  0  0  0
   54.9230   26.6840   46.0080 O   0  0  0  0  0  0  0  0  0  0  0  0
  1  2  2  0
  2  3  1  0
  3  4  1  0
  4  5  1  0
  5  6  1  0
  6  7  1  0
  7  8  1  0
  8  9  2  0
  8 10  2  0
  8 11  1  0
  3 12  2  0
 12 13  1  0
 13 14  1  0
 14 15  1  0
 15 16  1  0
 13 17  2  0
 17 18  1  0
 18 19  2  0
 19 20  1  0
 20 21  1  0
 21 22  1  0
 22 23  2  0
 22 24  1  0
 24 25  1  0
 25 26  1  0
 18  2  1  0
 25 20  2  0
M  CHG  4   7  -1  21  -1  24  -1  26  -1
M  END
>  <UniqueID>  (2910) 
80

>  <SMILES>  (2910) 
C=c1c(OCC[N-]S(C)(=O)=O)nc(CCC)c/c1=C/c1[n-]c(=O)[n-]c1[O-]

>  <Energy>  (2910) 
80.87566297987934

>  <Genealogy>  (2910) 
C=c1c(OCC[N-]S(C)(=O)=O)nc(CCC)cc1=Cc1[n-]c(=O)[n-]c1[O-] (protonated)
C=c1c(OCC[N-]S(C)(=O)=O)nc(CCC)c/c1=C/c1[n-]c(=O)[n-]c1[O-] (cis-trans isomerization)
C=c1c(OCC[N-]S(C)(=O)=O)nc(CCC)c/c1=C/c1[n-]c(=O)[n-]c1[O-] (3D coordinates assigned)
C=c1c(OCC[N-]S(C)(=O)=O)nc(CCC)c/c1=C/c1[n-]c(=O)[n-]c1[O-] (optimized conformer: 80.87566297987934 kcal/mol)

>  <smiles>  (2910) 
C=c1c(OCCNS(C)(=O)=O)nc(CCC)cc1=Cc1[nH]c(=O)[nH]c1O

>  <score_type>  (2910) 
oracle

>  <origin>  (2910) 
adg

>  <m_score__min__energy>  (2910) 
-16.059999999999999

>  <m_primary>  (2910) 
energy

$$$$
86:0
     RDKit          3D

 31 34  0  0  0  0  0  0  0  0999 V2000
   54.9940   26.4010   46.0020 O   0  0  0  0  0  0  0  0  0  0  0  0
   56.0240   25.5960   46.4800 C   0  0  0  0  0  0  0  0  0  0  0  0
   55.8280   24.5810   47.3390 N   0  0  0  0  0  0  0  0  0  0  0  0
   57.0640   24.0560   47.4700 C   0  0  0  0  0  0  0  0  0  0  0  0
   57.3040   23.0630   48.2030 O   0  0  0  0  0  0  0  0  0  0  0  0
   58.0230   24.6730   46.7480 N   0  0  0  0  0  0  0  0  0  0  0  0
   57.3610   25.6710   46.1390 C   0  0  0  0  0  0  0  0  0  0  0  0
   57.9970   26.5980   45.1860 C   0  0  0  0  0  0  0  0  0  0  0  0
   58.1870   27.9320   45.3560 C   0  0  0  0  0  0  0  0  0  0  0  0
   57.3990   28.7960   44.5670 C   0  0  0  0  0  0  0  0  0  0  0  0
   57.3980   30.1820   44.7730 C   0  0  0  0  0  0  0  0  0  0  0  0
   56.5110   31.0600   43.9150 C   0  0  0  0  0  0  0  0  0  0  0  0
   56.9140   30.9970   42.4650 C   0  0  0  0  0  0  0  0  0  0  0  0
   57.5120   32.0220   41.8540 C   0  0  0  0  0  0  0  0  0  0  0  0
   58.1970   30.7030   45.8020 C   0  0  0  0  0  0  0  0  0  0  0  0
   58.1790   32.0960   46.1320 N   0  0  0  0  0  0  0  0  0  0  0  0
   58.1740   32.5180   47.5320 C   0  0  0  0  0  0  0  0  0  0  0  0
   59.2750   33.5670   47.8010 C   0  0  0  0  0  0  0  0  0  0  0  0
   59.6770   34.3540   46.6070 N   0  0  0  0  0  0  0  0  0  0  0  0
   60.9550   33.8740   46.0290 C   0  0  0  0  0  0  0  0  0  0  0  0
   61.8240   33.2290   47.0800 C   0  0  0  0  0  0  0  0  0  0  0  0
   62.7290   34.0010   47.8290 C   0  0  0  0  0  0  0  0  0  0  0  0
   63.5180   33.3990   48.8140 C   0  0  0  0  0  0  0  0  0  0  0  0
   63.4100   32.0270   49.0570 C   0  0  0  0  0  0  0  0  0  0  0  0
   62.5080   31.2550   48.3180 C   0  0  0  0  0  0  0  0  0  0  0  0
   61.7230   31.8510   47.3280 C   0  0  0  0  0  0  0  0  0  0  0  0
   58.5900   34.4690   45.6090 C   0  0  0  0  0  0  0  0  0  0  0  0
   58.1710   33.0970   45.0630 C   0  0  0  0  0  0  0  0  0  0  0  0
   59.0230   29.8790   46.4930 N   0  0  0  0  0  0  0  0  0  0  0  0
   59.0920   28.5370   46.2840 C   0  0  0  0  0  0  0  0  0  0  0  0
   60.0900   27.8900   46.9010 C   0  0  0  0  0  0  0  0  0  0  0  0
  1  2  1  0
  2  3  1  0
  3  4  1  0
  4  5  2  0
  4  6  1  0
  6  7  1  0
  7  8  1  0
  8  9  2  0
  9 10  1  0
 10 11  2  0
 11 12  1  0
 12 13  1  0
 13 14  2  0
 11 15  1  0
 15 16  1  0
 16 17  1  0
 17 18  1  0
 18 19  1  0
 19 20  1  0
 20 21  1  0
 21 22  2  0
 22 23  1  0
 23 24  2  0
 24 25  1  0
 25 26  2  0
 19 27  1  0
 27 28  1  0
 15 29  2  0
 29 30  1  0
 30 31  2  0
  7  2  2  0
 30  9  1  0
 28 16  1  0
 26 21  1  0
M  CHG  2   3  -1   6  -1
M  END
>  <UniqueID>  (2911) 
84

>  <SMILES>  (2911) 
C=CCc1c/c(=C/c2[n-]c(=O)[n-]c2O)c(=C)nc1N1CCN(Cc2ccccc2)CC1

>  <Energy>  (2911) 
120.52426456769892

>  <Genealogy>  (2911) 
C=CCc1cc(=Cc2[n-]c(=O)[n-]c2O)c(=C)nc1N1CCN(Cc2ccccc2)CC1 (protonated)
C=CCc1c/c(=C/c2[n-]c(=O)[n-]c2O)c(=C)nc1N1CCN(Cc2ccccc2)CC1 (cis-trans isomerization)
C=CCc1c/c(=C/c2[n-]c(=O)[n-]c2O)c(=C)nc1N1CCN(Cc2ccccc2)CC1 (3D coordinates assigned)
C=CCc1c/c(=C/c2[n-]c(=O)[n-]c2O)c(=C)nc1N1CCN(Cc2ccccc2)CC1 (nonaromatic ring conformer: 120.52426456769892 kcal/mol)

>  <smiles>  (2911) 
C=CCc1cc(=Cc2[nH]c(=O)[nH]c2O)c(=C)nc1N1CCN(Cc2ccccc2)CC1

>  <score_type>  (2911) 
oracle

>  <origin>  (2911) 
adg

>  <m_score__min__energy>  (2911) 
-14.93

>  <m_primary>  (2911) 
energy

$$$$
10:0
     RDKit          3D

 31 34  0  0  0  0  0  0  0  0999 V2000
   64.0720   33.1190   47.0930 C   0  0  0  0  0  0  0  0  0  0  0  0
   63.2930   34.1900   46.3380 C   0  0  0  0  0  0  0  0  0  0  0  0
   61.8900   34.0340   46.5510 O   0  0  0  0  0  0  0  0  0  0  0  0
   61.2970   33.2820   47.5790 C   0  0  0  0  0  0  0  0  0  0  0  0
   61.3790   33.7640   48.8870 C   0  0  0  0  0  0  0  0  0  0  0  0
   60.8220   33.0440   49.9430 C   0  0  0  0  0  0  0  0  0  0  0  0
   60.1480   31.8410   49.6780 C   0  0  0  0  0  0  0  0  0  0  0  0
   59.5590   31.0620   50.7380 N   0  0  0  0  0  0  0  0  0  0  0  0
   58.5800   30.0000   50.4630 C   0  0  0  0  0  0  0  0  0  0  0  0
   57.3770   30.1530   51.3990 C   0  0  0  0  0  0  0  0  0  0  0  0
   57.8070   30.4240   52.7820 N   0  0  0  0  0  0  0  0  0  0  0  0
   56.8400   30.8610   53.7560 C   0  0  0  0  0  0  0  0  0  0  0  0
   57.1130   31.8380   54.5060 O   0  0  0  0  0  0  0  0  0  0  0  0
   55.5250   30.1940   53.8880 C   0  0  0  0  0  0  0  0  0  0  0  0
   55.3030   29.2670   54.9210 C   0  0  0  0  0  0  0  0  0  0  0  0
   54.0620   28.6370   55.0470 C   0  0  0  0  0  0  0  0  0  0  0  0
   53.0320   28.9240   54.1460 C   0  0  0  0  0  0  0  0  0  0  0  0
   53.2410   29.8380   53.1040 C   0  0  0  0  0  0  0  0  0  0  0  0
   52.1380   30.1280   52.1230 C   0  0  0  0  0  0  0  0  0  0  0  0
   51.3940   31.3660   52.5170 C   0  0  0  0  0  0  0  0  0  0  0  0
   51.0720   31.6780   53.7850 N   0  0  0  0  0  0  0  0  0  0  0  0
   50.3870   32.8360   53.6580 C   0  0  0  0  0  0  0  0  0  0  0  0
   49.9120   33.4540   54.6450 O   0  0  0  0  0  0  0  0  0  0  0  0
   50.2550   33.2780   52.3890 N   0  0  0  0  0  0  0  0  0  0  0  0
   50.8970   32.3350   51.6800 C   0  0  0  0  0  0  0  0  0  0  0  0
   51.0150   32.3550   50.2960 O   0  0  0  0  0  0  0  0  0  0  0  0
   54.4960   30.4550   52.9670 C   0  0  0  0  0  0  0  0  0  0  0  0
   59.2360   30.4160   53.1180 C   0  0  0  0  0  0  0  0  0  0  0  0
   60.0160   31.2800   52.1190 C   0  0  0  0  0  0  0  0  0  0  0  0
   60.0840   31.3860   48.3960 N   0  0  0  0  0  0  0  0  0  0  0  0
   60.6240   32.0700   47.3530 C   0  0  0  0  0  0  0  0  0  0  0  0
  1  2  1  0
  2  3  1  0
  3  4  1  0
  4  5  2  0
  5  6  1  0
  6  7  2  0
  7  8  1  0
  8  9  1  0
  9 10  1  0
 10 11  1  0
 11 12  1  0
 12 13  2  0
 12 14  1  0
 14 15  2  0
 15 16  1  0
 16 17  2  0
 17 18  1  0
 18 19  1  0
 19 20  1  0
 20 21  1  0
 21 22  1  0
 22 23  2  0
 22 24  1  0
 24 25  1  0
 25 26  1  0
 18 27  2  0
 11 28  1  0
 28 29  1  0
  7 30  1  0
 30 31  2  0
 31  4  1  0
 29  8  1  0
 27 14  1  0
 25 20  2  0
M  CHG  3  21  -1  24  -1  26  -1
M  END
>  <UniqueID>  (2912) 
11

>  <SMILES>  (2912) 
CCOc1ccc(N2CCN(C(=O)c3cccc(Cc4[n-]c(=O)[n-]c4[O-])c3)CC2)nc1

>  <Energy>  (2912) 
92.1867362765697

>  <Genealogy>  (2912) 
CCOc1ccc(N2CCN(C(=O)c3cccc(Cc4[n-]c(=O)[n-]c4[O-])c3)CC2)nc1 (protonated)
CCOc1ccc(N2CCN(C(=O)c3cccc(Cc4[n-]c(=O)[n-]c4[O-])c3)CC2)nc1 (3D coordinates assigned)
CCOc1ccc(N2CCN(C(=O)c3cccc(Cc4[n-]c(=O)[n-]c4[O-])c3)CC2)nc1 (nonaromatic ring conformer: 92.1867362765697 kcal/mol)

>  <smiles>  (2912) 
CCOc1ccc(N2CCN(C(=O)c3cccc(Cc4[nH]c(=O)[nH]c4O)c3)CC2)nc1

>  <score_type>  (2912) 
oracle

>  <origin>  (2912) 
adg

>  <m_score__min__energy>  (2912) 
-16.489999999999998

>  <m_primary>  (2912) 
energy

$$$$
17:0
     RDKit          3D

 27 29  0  0  0  0  0  0  0  0999 V2000
   58.1370   30.3320   46.2060 C   0  0  0  0  0  0  0  0  0  0  0  0
   58.7990   29.4440   46.9660 C   0  0  0  0  0  0  0  0  0  0  0  0
   58.6360   28.0530   46.9420 C   0  0  0  0  0  0  0  0  0  0  0  0
   57.8500   27.3420   46.1050 C   0  0  0  0  0  0  0  0  0  0  0  0
   57.2040   26.0490   46.4230 C   0  0  0  0  0  0  0  0  0  0  0  0
   57.8300   24.9350   46.8460 N   0  0  0  0  0  0  0  0  0  0  0  0
   56.8240   24.0540   47.0210 C   0  0  0  0  0  0  0  0  0  0  0  0
   57.0180   22.8720   47.4120 O   0  0  0  0  0  0  0  0  0  0  0  0
   55.5940   24.5360   46.7470 N   0  0  0  0  0  0  0  0  0  0  0  0
   55.8530   25.8010   46.3750 C   0  0  0  0  0  0  0  0  0  0  0  0
   54.8720   26.7080   45.9950 O   0  0  0  0  0  0  0  0  0  0  0  0
   59.4750   27.5520   47.9290 C   0  0  0  0  0  0  0  0  0  0  0  0
   60.1230   28.6330   48.4900 C   0  0  0  0  0  0  0  0  0  0  0  0
   61.1130   28.5290   49.6100 C   0  0  0  0  0  0  0  0  0  0  0  0
   59.7190   29.7860   47.9060 N   0  0  0  0  0  0  0  0  0  0  0  0
   60.2310   31.1330   48.2150 C   0  0  0  0  0  0  0  0  0  0  0  0
   61.4850   31.4740   47.3940 C   0  0  0  0  0  0  0  0  0  0  0  0
   62.3010   32.5550   48.0300 C   0  0  0  0  0  0  0  0  0  0  0  0
   63.3650   32.2640   48.6410 O   0  0  0  0  0  0  0  0  0  0  0  0
   61.8660   33.9150   47.9320 N   0  0  0  0  0  0  0  0  0  0  0  0
   60.5590   34.3840   48.3770 C   0  0  0  0  0  0  0  0  0  0  0  0
   59.5590   34.2590   47.2620 C   0  0  0  0  0  0  0  0  0  0  0  0
   59.8640   34.7250   45.9740 C   0  0  0  0  0  0  0  0  0  0  0  0
   58.9300   34.6010   44.9410 C   0  0  0  0  0  0  0  0  0  0  0  0
   57.6870   34.0100   45.1860 C   0  0  0  0  0  0  0  0  0  0  0  0
   57.3820   33.5310   46.4630 C   0  0  0  0  0  0  0  0  0  0  0  0
   58.3170   33.6440   47.4960 C   0  0  0  0  0  0  0  0  0  0  0  0
  1  2  2  0
  2  3  1  0
  3  4  2  3
  4  5  1  0
  5  6  1  0
  6  7  1  0
  7  8  2  0
  7  9  1  0
  9 10  1  0
 10 11  1  0
  3 12  1  0
 12 13  2  0
 13 14  1  0
 13 15  1  0
 15 16  1  0
 16 17  1  0
 17 18  1  0
 18 19  2  0
 18 20  1  0
 20 21  1  0
 21 22  1  0
 22 23  2  0
 23 24  1  0
 24 25  2  0
 25 26  1  0
 26 27  2  0
 15  2  1  0
 27 22  1  0
 10  5  2  0
M  CHG  4   6  -1   9  -1  11  -1  20  -1
M  END
>  <UniqueID>  (2913) 
18

>  <SMILES>  (2913) 
C=c1c(=Cc2[n-]c(=O)[n-]c2[O-])cc(C)n1CCC(=O)[N-]Cc1ccccc1

>  <Energy>  (2913) 
97.34290686651192

>  <Genealogy>  (2913) 
C=c1c(=Cc2[n-]c(=O)[n-]c2[O-])cc(C)n1CCC(=O)[N-]Cc1ccccc1 (protonated)
C=c1c(=Cc2[n-]c(=O)[n-]c2[O-])cc(C)n1CCC(=O)[N-]Cc1ccccc1 (3D coordinates assigned)
C=c1c(=Cc2[n-]c(=O)[n-]c2[O-])cc(C)n1CCC(=O)[N-]Cc1ccccc1 (optimized conformer: 97.34290686651192 kcal/mol)

>  <smiles>  (2913) 
C=c1c(=Cc2[nH]c(=O)[nH]c2O)cc(C)n1CCC(=O)NCc1ccccc1

>  <score_type>  (2913) 
oracle

>  <origin>  (2913) 
adg

>  <m_score__min__energy>  (2913) 
-16.460000000000001

>  <m_primary>  (2913) 
energy

$$$$
20:0
     RDKit          3D

 34 37  0  0  0  0  0  0  0  0999 V2000
   56.6090   29.3700   43.0040 C   0  0  0  0  0  0  0  0  0  0  0  0
   57.3370   29.3340   44.1320 C   0  0  0  0  0  0  0  0  0  0  0  0
   57.6430   28.2020   44.9040 C   0  0  0  0  0  0  0  0  0  0  0  0
   57.5010   26.8880   44.6420 C   0  0  0  0  0  0  0  0  0  0  0  0
   57.0470   25.8670   45.6000 C   0  0  0  0  0  0  0  0  0  0  0  0
   57.8230   24.8950   46.1130 N   0  0  0  0  0  0  0  0  0  0  0  0
   57.0160   24.2960   47.0160 C   0  0  0  0  0  0  0  0  0  0  0  0
   57.3850   23.3130   47.7080 O   0  0  0  0  0  0  0  0  0  0  0  0
   55.7850   24.8400   47.1240 N   0  0  0  0  0  0  0  0  0  0  0  0
   55.8270   25.8410   46.2310 C   0  0  0  0  0  0  0  0  0  0  0  0
   54.7730   26.7160   45.9990 O   0  0  0  0  0  0  0  0  0  0  0  0
   58.1500   28.6790   46.1030 C   0  0  0  0  0  0  0  0  0  0  0  0
   58.1980   30.0540   46.0000 C   0  0  0  0  0  0  0  0  0  0  0  0
   58.6550   30.9770   47.0870 C   0  0  0  0  0  0  0  0  0  0  0  0
   57.7180   30.4510   44.8020 N   0  0  0  0  0  0  0  0  0  0  0  0
   57.5050   31.8070   44.3890 C   0  0  0  0  0  0  0  0  0  0  0  0
   57.8080   32.1590   43.2180 O   0  0  0  0  0  0  0  0  0  0  0  0
   56.8590   32.7250   45.2750 N   0  0  0  0  0  0  0  0  0  0  0  0
   57.2820   34.1150   45.4020 C   0  0  0  0  0  0  0  0  0  0  0  0
   58.6180   34.1680   46.0950 C   0  0  0  0  0  0  0  0  0  0  0  0
   58.6910   34.2650   47.4940 C   0  0  0  0  0  0  0  0  0  0  0  0
   59.9230   34.1500   48.1450 C   0  0  0  0  0  0  0  0  0  0  0  0
   61.0940   33.9280   47.4060 C   0  0  0  0  0  0  0  0  0  0  0  0
   62.6360   33.7010   48.2330 S   0  0  0  0  0  0  0  0  0  0  0  0
   63.7470   33.7310   47.2210 O   0  0  0  0  0  0  0  0  0  0  0  0
   62.8540   34.8350   49.1960 O   0  0  0  0  0  0  0  0  0  0  0  0
   62.6910   32.1860   49.1030 N   0  0  0  0  0  0  0  0  0  0  0  0
   61.4500   31.4250   48.8980 C   0  0  0  0  0  0  0  0  0  0  0  0
   61.5230   30.0850   49.6630 C   0  0  0  0  0  0  0  0  0  0  0  0
   62.6830   29.9900   50.4700 O   0  0  0  0  0  0  0  0  0  0  0  0
   62.7630   31.1080   51.3340 C   0  0  0  0  0  0  0  0  0  0  0  0
   62.9070   32.4220   50.5400 C   0  0  0  0  0  0  0  0  0  0  0  0
   61.0270   33.8580   46.0080 C   0  0  0  0  0  0  0  0  0  0  0  0
   59.7960   33.9740   45.3570 C   0  0  0  0  0  0  0  0  0  0  0  0
  1  2  2  0
  2  3  1  0
  3  4  2  3
  4  5  1  0
  5  6  1  0
  6  7  1  0
  7  8  2  0
  7  9  1  0
  9 10  1  0
 10 11  1  0
  3 12  1  0
 12 13  2  0
 13 14  1  0
 13 15  1  0
 15 16  1  0
 16 17  2  0
 16 18  1  0
 18 19  1  0
 19 20  1  0
 20 21  2  0
 21 22  1  0
 22 23  2  0
 23 24  1  0
 24 25  2  0
 24 26  2  0
 24 27  1  0
 27 28  1  0
 28 29  1  0
 29 30  1  0
 30 31  1  0
 31 32  1  0
 23 33  1  0
 33 34  2  0
 15  2  1  0
 34 20  1  0
 10  5  2  0
 32 27  1  0
M  CHG  4   6  -1   9  -1  11  -1  18  -1
M  END
>  <UniqueID>  (2914) 
21

>  <SMILES>  (2914) 
C=c1c(=Cc2[n-]c(=O)[n-]c2[O-])cc(C)n1C(=O)[N-]Cc1ccc(S(=O)(=O)N2CCOCC2)cc1

>  <Energy>  (2914) 
133.35425799038705

>  <Genealogy>  (2914) 
C=c1c(=Cc2[n-]c(=O)[n-]c2[O-])cc(C)n1C(=O)[N-]Cc1ccc(S(=O)(=O)N2CCOCC2)cc1 (protonated)
C=c1c(=Cc2[n-]c(=O)[n-]c2[O-])cc(C)n1C(=O)[N-]Cc1ccc(S(=O)(=O)N2CCOCC2)cc1 (3D coordinates assigned)
C=c1c(=Cc2[n-]c(=O)[n-]c2[O-])cc(C)n1C(=O)[N-]Cc1ccc(S(=O)(=O)N2CCOCC2)cc1 (nonaromatic ring conformer: 133.35425799038705 kcal/mol)

>  <smiles>  (2914) 
C=c1c(=Cc2[nH]c(=O)[nH]c2O)cc(C)n1C(=O)NCc1ccc(S(=O)(=O)N2CCOCC2)cc1

>  <score_type>  (2914) 
oracle

>  <origin>  (2914) 
adg

>  <m_score__min__energy>  (2914) 
-19.609999999999999

>  <m_primary>  (2914) 
energy

$$$$
25:0
     RDKit          3D

 29 32  0  0  0  0  0  0  0  0999 V2000
   57.7910   26.2660   43.1640 C   0  0  0  0  0  0  0  0  0  0  0  0
   57.8660   26.1860   44.5040 C   0  0  0  0  0  0  0  0  0  0  0  0
   57.3690   25.1420   45.3030 C   0  0  0  0  0  0  0  0  0  0  0  0
   56.5480   24.1130   45.0090 C   0  0  0  0  0  0  0  0  0  0  0  0
   55.0960   24.0830   45.2370 C   0  0  0  0  0  0  0  0  0  0  0  0
   54.2910   23.0510   44.9250 N   0  0  0  0  0  0  0  0  0  0  0  0
   53.0560   23.5290   45.1900 C   0  0  0  0  0  0  0  0  0  0  0  0
   52.0150   22.8380   45.0360 O   0  0  0  0  0  0  0  0  0  0  0  0
   53.0220   24.8070   45.6240 N   0  0  0  0  0  0  0  0  0  0  0  0
   54.3210   25.1460   45.6330 C   0  0  0  0  0  0  0  0  0  0  0  0
   54.7890   26.4040   45.9930 O   0  0  0  0  0  0  0  0  0  0  0  0
   57.8820   25.3460   46.5700 C   0  0  0  0  0  0  0  0  0  0  0  0
   58.5920   26.5260   46.5310 C   0  0  0  0  0  0  0  0  0  0  0  0
   59.3400   27.0940   47.6990 C   0  0  0  0  0  0  0  0  0  0  0  0
   58.5860   27.0450   45.2780 N   0  0  0  0  0  0  0  0  0  0  0  0
   59.3290   28.2480   44.8610 C   0  0  0  0  0  0  0  0  0  0  0  0
   58.3970   29.4220   44.7030 C   0  0  0  0  0  0  0  0  0  0  0  0
   57.1300   29.2520   44.1200 C   0  0  0  0  0  0  0  0  0  0  0  0
   56.2510   30.3320   44.0150 C   0  0  0  0  0  0  0  0  0  0  0  0
   56.6260   31.5900   44.4930 C   0  0  0  0  0  0  0  0  0  0  0  0
   57.8890   31.7790   45.0720 C   0  0  0  0  0  0  0  0  0  0  0  0
   58.2800   33.1350   45.6130 C   0  0  0  0  0  0  0  0  0  0  0  0
   59.2310   33.0270   46.7450 N   0  0  2  0  0  0  0  0  0  0  0  0
   58.5750   32.4050   47.9100 C   0  0  0  0  0  0  0  0  0  0  0  0
   59.3150   33.0380   49.4480 S   0  0  0  0  0  0  0  0  0  0  0  0
   59.6640   34.6120   48.6350 C   0  0  0  0  0  0  0  0  0  0  0  0
   59.7110   34.3120   47.1820 C   0  0  0  0  0  0  0  0  0  0  0  0
   60.2210   35.1050   46.4040 O   0  0  0  0  0  0  0  0  0  0  0  0
   58.7750   30.6930   45.1640 C   0  0  0  0  0  0  0  0  0  0  0  0
  1  2  2  0
  2  3  1  0
  3  4  2  3
  4  5  1  0
  5  6  1  0
  6  7  1  0
  7  8  2  0
  7  9  1  0
  9 10  1  0
 10 11  1  0
  3 12  1  0
 12 13  2  0
 13 14  1  0
 13 15  1  0
 15 16  1  0
 16 17  1  0
 17 18  2  0
 18 19  1  0
 19 20  2  0
 20 21  1  0
 21 22  1  0
 23 22  1  6
 23 24  1  0
 24 25  1  0
 25 26  1  0
 26 27  1  0
 27 28  2  0
 21 29  2  0
 15  2  1  0
 29 17  1  0
 10  5  2  0
 27 23  1  0
M  CHG  4   6  -1   9  -1  11  -1  23   1
M  END
>  <UniqueID>  (2915) 
26

>  <SMILES>  (2915) 
C=c1c(=Cc2[n-]c(=O)[n-]c2[O-])cc(C)n1Cc1cccc(C[N@@H+]2CSCC2=O)c1

>  <Energy>  (2915) 
118.96597376513199

>  <Genealogy>  (2915) 
C=c1c(=Cc2[n-]c(=O)[n-]c2[O-])cc(C)n1Cc1cccc(C[NH+]2CSCC2=O)c1 (protonated)
C=c1c(=Cc2[n-]c(=O)[n-]c2[O-])cc(C)n1Cc1cccc(C[N@@H+]2CSCC2=O)c1 (chirality)
C=c1c(=Cc2[n-]c(=O)[n-]c2[O-])cc(C)n1Cc1cccc(C[N@@H+]2CSCC2=O)c1 (3D coordinates assigned)
C=c1c(=Cc2[n-]c(=O)[n-]c2[O-])cc(C)n1Cc1cccc(C[N@@H+]2CSCC2=O)c1 (nonaromatic ring conformer: 118.96597376513199 kcal/mol)

>  <smiles>  (2915) 
C=c1c(=Cc2[nH]c(=O)[nH]c2O)cc(C)n1Cc1cccc(CN2CSCC2=O)c1

>  <score_type>  (2915) 
oracle

>  <origin>  (2915) 
adg

>  <m_score__min__energy>  (2915) 
-15.19

>  <m_primary>  (2915) 
energy

$$$$
27:0
     RDKit          3D

 26 28  0  0  0  0  0  0  0  0999 V2000
   56.7640   30.7430   44.8570 O   0  0  0  0  0  0  0  0  0  0  0  0
   57.3800   29.7250   45.2720 C   0  0  0  0  0  0  0  0  0  0  0  0
   58.7730   29.9110   45.8150 C   0  0  0  0  0  0  0  0  0  0  0  0
   58.7630   30.4330   47.2280 C   0  0  0  0  0  0  0  0  0  0  0  0
   58.6090   29.6530   48.3160 N   0  0  0  0  0  0  0  0  0  0  0  0
   58.5200   30.5370   49.3280 C   0  0  0  0  0  0  0  0  0  0  0  0
   58.3770   30.1840   50.5280 O   0  0  0  0  0  0  0  0  0  0  0  0
   58.5860   31.8300   48.9530 N   0  0  0  0  0  0  0  0  0  0  0  0
   58.7390   31.7610   47.6190 C   0  0  0  0  0  0  0  0  0  0  0  0
   58.8170   32.9530   46.7500 C   0  0  0  0  0  0  0  0  0  0  0  0
   57.8040   33.1940   45.8070 C   0  0  0  0  0  0  0  0  0  0  0  0
   57.8700   34.3050   44.9630 C   0  0  0  0  0  0  0  0  0  0  0  0
   58.9520   35.1810   45.0450 C   0  0  0  0  0  0  0  0  0  0  0  0
   59.9750   34.9480   45.9670 C   0  0  0  0  0  0  0  0  0  0  0  0
   59.9220   33.8300   46.8260 C   0  0  0  0  0  0  0  0  0  0  0  0
   60.9560   33.5770   47.7940 N   0  0  0  0  0  0  0  0  0  0  0  0
   62.1770   33.3680   47.4970 C   0  0  0  0  0  0  0  0  0  0  0  0
   63.7210   33.1030   47.1200 S   0  0  0  0  0  0  0  0  0  0  0  0
   56.7180   28.4500   45.1870 N   0  0  0  0  0  0  0  0  0  0  0  0
   57.0980   27.2880   45.6430 C   0  0  0  0  0  0  0  0  0  0  0  0
   58.4170   26.9560   45.7410 N   0  0  0  0  0  0  0  0  0  0  0  0
   58.8290   25.7570   46.2290 C   0  0  0  0  0  0  0  0  0  0  0  0
   57.8890   24.8160   46.6540 C   0  0  0  0  0  0  0  0  0  0  0  0
   56.5310   25.1260   46.5700 C   0  0  0  0  0  0  0  0  0  0  0  0
   56.1280   26.3660   46.0670 C   0  0  0  0  0  0  0  0  0  0  0  0
   54.7740   26.6730   45.9880 O   0  0  0  0  0  0  0  0  0  0  0  0
  1  2  2  0
  2  3  1  0
  3  4  1  0
  4  5  1  0
  5  6  1  0
  6  7  2  0
  6  8  1  0
  8  9  1  0
  9 10  1  0
 10 11  2  0
 11 12  1  0
 12 13  2  0
 13 14  1  0
 14 15  2  0
 15 16  1  0
 16 17  2  0
 17 18  2  0
  2 19  1  0
 19 20  2  3
 20 21  1  0
 21 22  1  0
 22 23  2  0
 23 24  1  0
 24 25  2  0
 25 26  1  0
  9  4  2  0
 15 10  1  0
 25 20  1  0
M  CHG  4   5  -1   8  -1  21  -1  26  -1
M  END
>  <UniqueID>  (2916) 
28

>  <SMILES>  (2916) 
O=C(Cc1[n-]c(=O)[n-]c1-c1ccccc1N=C=S)N=c1[n-]cccc1[O-]

>  <Energy>  (2916) 
77.88474279017774

>  <Genealogy>  (2916) 
O=C(Cc1[n-]c(=O)[n-]c1-c1ccccc1N=C=S)N=c1[n-]cccc1[O-] (protonated)
O=C(Cc1[n-]c(=O)[n-]c1-c1ccccc1N=C=S)N=c1[n-]cccc1[O-] (3D coordinates assigned)
O=C(Cc1[n-]c(=O)[n-]c1-c1ccccc1N=C=S)N=c1[n-]cccc1[O-] (optimized conformer: 77.88474279017774 kcal/mol)

>  <smiles>  (2916) 
O=C(Cc1[nH]c(=O)[nH]c1-c1ccccc1N=C=S)N=c1[nH]cccc1O

>  <score_type>  (2916) 
oracle

>  <origin>  (2916) 
adg

>  <m_score__min__energy>  (2916) 
-16.260000000000002

>  <m_primary>  (2916) 
energy

$$$$
37:0
     RDKit          3D

 28 31  0  0  0  0  0  0  0  0999 V2000
   56.7200   31.0400   44.2520 C   0  0  0  0  0  0  0  0  0  0  0  0
   57.3590   29.9270   44.6190 C   0  0  0  0  0  0  0  0  0  0  0  0
   56.9720   28.6970   44.2230 N   0  0  0  0  0  0  0  0  0  0  0  0
   57.7900   27.8130   44.8400 C   0  0  0  0  0  0  0  0  0  0  0  0
   57.7380   26.4730   44.7350 C   0  0  0  0  0  0  0  0  0  0  0  0
   57.1370   25.5500   45.7220 C   0  0  0  0  0  0  0  0  0  0  0  0
   57.7350   24.4750   46.2650 N   0  0  0  0  0  0  0  0  0  0  0  0
   56.8130   24.0040   47.1320 C   0  0  0  0  0  0  0  0  0  0  0  0
   57.0080   22.9810   47.8390 O   0  0  0  0  0  0  0  0  0  0  0  0
   55.6680   24.7170   47.1830 N   0  0  0  0  0  0  0  0  0  0  0  0
   55.8920   25.6940   46.2890 C   0  0  0  0  0  0  0  0  0  0  0  0
   54.9770   26.6970   45.9980 O   0  0  0  0  0  0  0  0  0  0  0  0
   58.7020   28.4840   45.6370 C   0  0  0  0  0  0  0  0  0  0  0  0
   58.4450   29.8330   45.4810 C   0  0  0  0  0  0  0  0  0  0  0  0
   59.2140   30.9070   46.1500 C   0  0  0  0  0  0  0  0  0  0  0  0
   60.4440   30.6990   46.3450 O   0  0  0  0  0  0  0  0  0  0  0  0
   58.5950   32.1510   46.5990 N   0  0  0  0  0  0  0  0  0  0  0  0
   58.6140   32.3010   48.0750 C   0  0  0  0  0  0  0  0  0  0  0  0
   60.0320   32.5650   48.6080 C   0  0  0  0  0  0  0  0  0  0  0  0
   60.5990   33.7640   47.9630 N   0  0  0  0  0  0  0  0  0  0  0  0
   61.9070   34.2140   48.5150 C   0  0  0  0  0  0  0  0  0  0  0  0
   62.0650   33.7720   49.9930 C   0  0  0  0  0  0  0  0  0  0  0  0
   63.2390   32.8110   50.1960 C   0  0  0  0  0  0  0  0  0  0  0  0
   63.2710   31.8680   49.1500 O   0  0  0  0  0  0  0  0  0  0  0  0
   63.7690   32.4660   47.9680 C   0  0  0  0  0  0  0  0  0  0  0  0
   63.1390   33.8440   47.6380 C   0  0  0  0  0  0  0  0  0  0  0  0
   60.6230   33.6090   46.4950 C   0  0  0  0  0  0  0  0  0  0  0  0
   59.2010   33.3540   45.9770 C   0  0  0  0  0  0  0  0  0  0  0  0
  1  2  2  0
  2  3  1  0
  3  4  1  0
  4  5  2  3
  5  6  1  0
  6  7  1  0
  7  8  1  0
  8  9  2  0
  8 10  1  0
 10 11  1  0
 11 12  1  0
  4 13  1  0
 13 14  2  0
 14 15  1  0
 15 16  2  0
 15 17  1  0
 17 18  1  0
 18 19  1  0
 19 20  1  0
 20 21  1  0
 21 22  1  0
 22 23  1  0
 23 24  1  0
 24 25  1  0
 25 26  1  0
 20 27  1  0
 27 28  1  0
 14  2  1  0
 28 17  1  0
 11  6  2  0
 26 21  1  0
M  CHG  4   7  -1  10  -1  12  -1  17   1
M  END
>  <UniqueID>  (2917) 
38

>  <SMILES>  (2917) 
C=c1[nH]c(=Cc2[n-]c(=O)[n-]c2[O-])cc1C(=O)[NH+]1CCN(C2CCOCC2)CC1

>  <Energy>  (2917) 
139.70860026078986

>  <Genealogy>  (2917) 
C=c1[nH]c(=Cc2[n-]c(=O)[n-]c2[O-])cc1C(=O)[NH+]1CCN(C2CCOCC2)CC1 (protonated)
C=c1[nH]c(=Cc2[n-]c(=O)[n-]c2[O-])cc1C(=O)[NH+]1CCN(C2CCOCC2)CC1 (3D coordinates assigned)
C=c1[nH]c(=Cc2[n-]c(=O)[n-]c2[O-])cc1C(=O)[NH+]1CCN(C2CCOCC2)CC1 (nonaromatic ring conformer: 139.70860026078986 kcal/mol)

>  <smiles>  (2917) 
C=c1[nH]c(=Cc2[nH]c(=O)[nH]c2O)cc1C(=O)N1CCN(C2CCOCC2)CC1

>  <score_type>  (2917) 
oracle

>  <origin>  (2917) 
adg

>  <m_score__min__energy>  (2917) 
-16.030000000000001

>  <m_primary>  (2917) 
energy

$$$$
43:0
     RDKit          3D

 27 29  0  0  0  0  0  0  0  0999 V2000
   59.4930   27.9700   47.1610 C   0  0  0  0  0  0  0  0  0  0  0  0
   58.8250   28.7050   46.2580 C   0  0  0  0  0  0  0  0  0  0  0  0
   58.0380   28.2270   45.1950 C   0  0  0  0  0  0  0  0  0  0  0  0
   57.6410   26.9810   44.8700 C   0  0  0  0  0  0  0  0  0  0  0  0
   57.1350   25.9660   45.8050 C   0  0  0  0  0  0  0  0  0  0  0  0
   57.8460   24.8950   46.1970 N   0  0  0  0  0  0  0  0  0  0  0  0
   56.9600   24.1820   46.9250 C   0  0  0  0  0  0  0  0  0  0  0  0
   57.2620   23.0980   47.4880 O   0  0  0  0  0  0  0  0  0  0  0  0
   55.7220   24.7170   46.9950 N   0  0  0  0  0  0  0  0  0  0  0  0
   55.8450   25.8380   46.2670 C   0  0  0  0  0  0  0  0  0  0  0  0
   54.7950   26.7110   46.0100 O   0  0  0  0  0  0  0  0  0  0  0  0
   57.6650   29.3380   44.4610 C   0  0  0  0  0  0  0  0  0  0  0  0
   58.1900   30.4390   45.1000 C   0  0  0  0  0  0  0  0  0  0  0  0
   57.9440   31.8550   44.6730 C   0  0  0  0  0  0  0  0  0  0  0  0
   58.8950   30.0630   46.1930 N   0  0  0  0  0  0  0  0  0  0  0  0
   59.6410   30.9680   47.0870 C   0  0  0  0  0  0  0  0  0  0  0  0
   58.9330   31.1680   48.4360 C   0  0  0  0  0  0  0  0  0  0  0  0
   58.8350   32.6110   48.8230 C   0  0  0  0  0  0  0  0  0  0  0  0
   58.8480   32.9390   50.0410 O   0  0  0  0  0  0  0  0  0  0  0  0
   58.7310   33.6090   47.8010 N   0  0  0  0  0  0  0  0  0  0  0  0
   59.6630   34.7190   47.6530 C   0  0  0  0  0  0  0  0  0  0  0  0
   61.0730   34.2290   47.7800 C   0  0  0  0  0  0  0  0  0  0  0  0
   61.7140   34.1910   49.0280 C   0  0  0  0  0  0  0  0  0  0  0  0
   63.0340   33.7450   49.1050 C   0  0  0  0  0  0  0  0  0  0  0  0
   63.7030   33.3470   47.9470 C   0  0  0  0  0  0  0  0  0  0  0  0
   63.0370   33.4060   46.7190 C   0  0  0  0  0  0  0  0  0  0  0  0
   61.7520   33.8450   46.6640 N   0  0  0  0  0  0  0  0  0  0  0  0
  1  2  2  0
  2  3  1  0
  3  4  2  3
  4  5  1  0
  5  6  1  0
  6  7  1  0
  7  8  2  0
  7  9  1  0
  9 10  1  0
 10 11  1  0
  3 12  1  0
 12 13  2  0
 13 14  1  0
 13 15  1  0
 15 16  1  0
 16 17  1  0
 17 18  1  0
 18 19  2  0
 18 20  1  0
 20 21  1  0
 21 22  1  0
 22 23  2  0
 23 24  1  0
 24 25  2  0
 25 26  1  0
 26 27  2  0
 15  2  1  0
 27 22  1  0
 10  5  2  0
M  CHG  4   6  -1   9  -1  11  -1  20  -1
M  END
>  <UniqueID>  (2918) 
43

>  <SMILES>  (2918) 
C=c1c(=Cc2[n-]c(=O)[n-]c2[O-])cc(C)n1CCC(=O)[N-]Cc1ccccn1

>  <Energy>  (2918) 
106.48261163775875

>  <Genealogy>  (2918) 
C=c1c(=Cc2[n-]c(=O)[n-]c2[O-])cc(C)n1CCC(=O)[N-]Cc1ccccn1 (protonated)
C=c1c(=Cc2[n-]c(=O)[n-]c2[O-])cc(C)n1CCC(=O)[N-]Cc1ccccn1 (3D coordinates assigned)
C=c1c(=Cc2[n-]c(=O)[n-]c2[O-])cc(C)n1CCC(=O)[N-]Cc1ccccn1 (optimized conformer: 106.48261163775875 kcal/mol)

>  <smiles>  (2918) 
C=c1c(=Cc2[nH]c(=O)[nH]c2O)cc(C)n1CCC(=O)NCc1ccccn1

>  <score_type>  (2918) 
oracle

>  <origin>  (2918) 
adg

>  <m_score__min__energy>  (2918) 
-17.079999999999998

>  <m_primary>  (2918) 
energy

$$$$
49:0
     RDKit          3D

 31 34  0  0  0  0  0  0  0  0999 V2000
   55.6160   29.2710   44.7470 O   0  0  0  0  0  0  0  0  0  0  0  0
   56.8380   29.3780   44.4470 C   0  0  0  0  0  0  0  0  0  0  0  0
   57.6430   28.1400   44.1640 C   0  0  0  0  0  0  0  0  0  0  0  0
   57.8570   27.3450   45.4140 C   0  0  0  0  0  0  0  0  0  0  0  0
   59.0610   27.1010   45.9540 N   0  0  0  0  0  0  0  0  0  0  0  0
   58.7640   26.4180   47.0800 C   0  0  0  0  0  0  0  0  0  0  0  0
   59.6460   26.0020   47.8700 O   0  0  0  0  0  0  0  0  0  0  0  0
   57.4460   26.2230   47.2940 N   0  0  0  0  0  0  0  0  0  0  0  0
   56.8850   26.8230   46.2320 C   0  0  0  0  0  0  0  0  0  0  0  0
   55.5130   26.9070   46.0150 O   0  0  0  0  0  0  0  0  0  0  0  0
   57.4250   30.6860   44.3080 N   0  0  0  0  0  0  0  0  0  0  0  0
   57.2640   31.3670   43.0130 C   0  0  0  0  0  0  0  0  0  0  0  0
   58.1010   32.6460   42.9250 C   0  0  0  0  0  0  0  0  0  0  0  0
   57.8200   33.5450   44.1310 C   0  0  0  0  0  0  0  0  0  0  0  0
   58.1100   32.8030   45.4060 C   0  0  0  0  0  0  0  0  0  0  0  0
   58.5680   33.5060   46.5310 C   0  0  0  0  0  0  0  0  0  0  0  0
   58.8810   32.8310   47.7140 C   0  0  0  0  0  0  0  0  0  0  0  0
   59.3990   33.5870   48.8170 N   0  0  0  0  0  0  0  0  0  0  0  0
   59.4720   33.0350   50.4570 S   0  0  0  0  0  0  0  0  0  0  0  0
   58.4240   31.9790   50.6850 O   0  0  0  0  0  0  0  0  0  0  0  0
   59.2510   34.1900   51.3980 O   0  0  0  0  0  0  0  0  0  0  0  0
   61.0830   32.3190   50.7550 C   0  0  0  0  0  0  0  0  0  0  0  0
   61.9400   32.4570   49.5230 C   0  0  0  0  0  0  0  0  0  0  0  0
   62.0220   31.4070   48.5880 C   0  0  0  0  0  0  0  0  0  0  0  0
   62.7470   31.5740   47.3990 C   0  0  0  0  0  0  0  0  0  0  0  0
   63.3850   32.7900   47.1330 C   0  0  0  0  0  0  0  0  0  0  0  0
   63.3140   33.8360   48.0600 C   0  0  0  0  0  0  0  0  0  0  0  0
   62.5960   33.6710   49.2540 C   0  0  0  0  0  0  0  0  0  0  0  0
   58.6990   31.4410   47.7820 C   0  0  0  0  0  0  0  0  0  0  0  0
   58.2190   30.7370   46.6730 C   0  0  0  0  0  0  0  0  0  0  0  0
   57.8990   31.4100   45.4760 C   0  0  0  0  0  0  0  0  0  0  0  0
  1  2  2  0
  2  3  1  0
  3  4  1  0
  4  5  1  0
  5  6  1  0
  6  7  2  0
  6  8  1  0
  8  9  1  0
  9 10  1  0
  2 11  1  0
 11 12  1  0
 12 13  1  0
 13 14  1  0
 14 15  1  0
 15 16  2  0
 16 17  1  0
 17 18  1  0
 18 19  1  0
 19 20  2  0
 19 21  2  0
 19 22  1  0
 22 23  1  0
 23 24  2  0
 24 25  1  0
 25 26  2  0
 26 27  1  0
 27 28  2  0
 17 29  2  0
 29 30  1  0
 30 31  2  0
  9  4  2  0
 31 11  1  0
 31 15  1  0
 28 23  1  0
M  CHG  3   5  -1   8  -1  18  -1
M  END
>  <UniqueID>  (2919) 
49

>  <SMILES>  (2919) 
O=C(Cc1[n-]c(=O)[n-]c1O)N1CCCc2cc([N-]S(=O)(=O)Cc3ccccc3)ccc21

>  <Energy>  (2919) 
85.9479958498876

>  <Genealogy>  (2919) 
O=C(Cc1[n-]c(=O)[n-]c1O)N1CCCc2cc([N-]S(=O)(=O)Cc3ccccc3)ccc21 (protonated)
O=C(Cc1[n-]c(=O)[n-]c1O)N1CCCc2cc([N-]S(=O)(=O)Cc3ccccc3)ccc21 (3D coordinates assigned)
O=C(Cc1[n-]c(=O)[n-]c1O)N1CCCc2cc([N-]S(=O)(=O)Cc3ccccc3)ccc21 (nonaromatic ring conformer: 85.9479958498876 kcal/mol)

>  <smiles>  (2919) 
O=C(Cc1[nH]c(=O)[nH]c1O)N1CCCc2cc(NS(=O)(=O)Cc3ccccc3)ccc21

>  <score_type>  (2919) 
oracle

>  <origin>  (2919) 
adg

>  <m_score__min__energy>  (2919) 
-14.93

>  <m_primary>  (2919) 
energy

$$$$
58:0
     RDKit          3D

 30 33  0  0  0  0  0  0  0  0999 V2000
   55.9060   31.9950   52.3580 C   0  0  0  0  0  0  0  0  0  0  0  0
   55.3390   30.8670   52.8150 C   0  0  0  0  0  0  0  0  0  0  0  0
   54.1250   30.3110   52.3780 C   0  0  0  0  0  0  0  0  0  0  0  0
   53.1450   30.8170   51.6030 C   0  0  0  0  0  0  0  0  0  0  0  0
   52.0170   31.6380   52.0720 C   0  0  0  0  0  0  0  0  0  0  0  0
   51.6890   31.8260   53.3640 N   0  0  0  0  0  0  0  0  0  0  0  0
   50.5290   32.5150   53.2940 C   0  0  0  0  0  0  0  0  0  0  0  0
   49.9050   32.8980   54.3180 O   0  0  0  0  0  0  0  0  0  0  0  0
   50.0840   32.7510   52.0410 N   0  0  0  0  0  0  0  0  0  0  0  0
   51.0300   32.1760   51.2820 C   0  0  0  0  0  0  0  0  0  0  0  0
   50.9920   32.1400   49.8930 O   0  0  0  0  0  0  0  0  0  0  0  0
   54.0590   29.0440   52.9280 C   0  0  0  0  0  0  0  0  0  0  0  0
   55.1670   28.8960   53.7320 C   0  0  0  0  0  0  0  0  0  0  0  0
   55.4900   27.6480   54.4980 C   0  0  0  0  0  0  0  0  0  0  0  0
   55.9490   30.0010   53.6730 N   0  0  0  0  0  0  0  0  0  0  0  0
   57.2450   30.1560   54.3570 C   0  0  0  0  0  0  0  0  0  0  0  0
   58.3120   30.6090   53.3920 C   0  0  0  0  0  0  0  0  0  0  0  0
   58.4800   29.9570   52.1600 C   0  0  0  0  0  0  0  0  0  0  0  0
   59.4590   30.3840   51.2600 C   0  0  0  0  0  0  0  0  0  0  0  0
   60.2960   31.4680   51.5770 C   0  0  0  0  0  0  0  0  0  0  0  0
   61.3020   31.9140   50.6430 N   0  0  0  0  0  0  0  0  0  0  0  0
   62.7150   31.9650   51.0690 C   0  0  0  0  0  0  0  0  0  0  0  0
   63.6450   31.4690   49.9620 C   0  0  0  0  0  0  0  0  0  0  0  0
   63.4680   32.5020   48.5230 S   0  0  0  0  0  0  0  0  0  0  0  0
   63.5140   31.6590   47.2790 O   0  0  0  0  0  0  0  0  0  0  0  0
   64.5680   33.5240   48.4820 O   0  0  0  0  0  0  0  0  0  0  0  0
   61.8910   33.3170   48.6500 C   0  0  0  0  0  0  0  0  0  0  0  0
   60.8730   32.3850   49.3110 C   0  0  0  0  0  0  0  0  0  0  0  0
   60.1280   32.1170   52.8120 C   0  0  0  0  0  0  0  0  0  0  0  0
   59.1470   31.6910   53.7110 C   0  0  0  0  0  0  0  0  0  0  0  0
  1  2  2  0
  2  3  1  0
  3  4  2  3
  4  5  1  0
  5  6  1  0
  6  7  1  0
  7  8  2  0
  7  9  1  0
  9 10  1  0
 10 11  1  0
  3 12  1  0
 12 13  2  0
 13 14  1  0
 13 15  1  0
 15 16  1  0
 16 17  1  0
 17 18  2  0
 18 19  1  0
 19 20  2  0
 20 21  1  0
 21 22  1  0
 22 23  1  0
 23 24  1  0
 24 25  2  0
 24 26  2  0
 24 27  1  0
 27 28  1  0
 20 29  1  0
 29 30  2  0
 15  2  1  0
 30 17  1  0
 10  5  2  0
 28 21  1  0
M  CHG  3   6  -1   9  -1  11  -1
M  END
>  <UniqueID>  (2920) 
58

>  <SMILES>  (2920) 
C=c1c(=Cc2[n-]c(=O)[n-]c2[O-])cc(C)n1Cc1ccc(N2CCS(=O)(=O)CC2)cc1

>  <Energy>  (2920) 
121.46488748268668

>  <Genealogy>  (2920) 
C=c1c(=Cc2[n-]c(=O)[n-]c2[O-])cc(C)n1Cc1ccc(N2CCS(=O)(=O)CC2)cc1 (protonated)
C=c1c(=Cc2[n-]c(=O)[n-]c2[O-])cc(C)n1Cc1ccc(N2CCS(=O)(=O)CC2)cc1 (3D coordinates assigned)
C=c1c(=Cc2[n-]c(=O)[n-]c2[O-])cc(C)n1Cc1ccc(N2CCS(=O)(=O)CC2)cc1 (nonaromatic ring conformer: 121.46488748268668 kcal/mol)

>  <smiles>  (2920) 
C=c1c(=Cc2[nH]c(=O)[nH]c2O)cc(C)n1Cc1ccc(N2CCS(=O)(=O)CC2)cc1

>  <score_type>  (2920) 
oracle

>  <origin>  (2920) 
adg

>  <m_score__min__energy>  (2920) 
-17.32

>  <m_primary>  (2920) 
energy

$$$$
61:0
     RDKit          3D

 32 35  0  0  0  0  0  0  0  0999 V2000
   58.6610   27.7160   47.8790 C   0  0  0  0  0  0  0  0  0  0  0  0
   58.4010   27.1120   46.7180 C   0  0  0  0  0  0  0  0  0  0  0  0
   58.8620   27.4910   45.4640 C   0  0  0  0  0  0  0  0  0  0  0  0
   59.6770   28.7000   45.0980 C   0  0  0  0  0  0  0  0  0  0  0  0
   58.7770   29.8810   44.8520 C   0  0  0  0  0  0  0  0  0  0  0  0
   57.7060   29.7730   43.9510 C   0  0  0  0  0  0  0  0  0  0  0  0
   56.8520   30.8570   43.7400 C   0  0  0  0  0  0  0  0  0  0  0  0
   57.0520   32.0540   44.4300 C   0  0  0  0  0  0  0  0  0  0  0  0
   58.1090   32.1770   45.3490 C   0  0  0  0  0  0  0  0  0  0  0  0
   58.3290   33.4480   46.0790 C   0  0  0  0  0  0  0  0  0  0  0  0
   57.4560   34.3570   46.0200 O   0  0  0  0  0  0  0  0  0  0  0  0
   59.5130   33.6580   46.8680 N   0  0  0  0  0  0  0  0  0  0  0  0
   59.4260   34.4360   48.1070 C   0  0  0  0  0  0  0  0  0  0  0  0
   60.4340   33.9080   49.1280 C   0  0  0  0  0  0  0  0  0  0  0  0
   61.7640   33.7640   48.5150 N   0  0  0  0  0  0  0  0  0  0  0  0
   62.9440   34.0580   49.2970 C   0  0  0  0  0  0  0  0  0  0  0  0
   62.8730   34.8660   50.2620 O   0  0  0  0  0  0  0  0  0  0  0  0
   64.2770   33.4510   48.9790 C   0  0  0  0  0  0  0  0  0  0  0  0
   61.8530   33.0070   47.2560 C   0  0  0  0  0  0  0  0  0  0  0  0
   60.8330   33.5320   46.2430 C   0  0  0  0  0  0  0  0  0  0  0  0
   58.9730   31.0860   45.5470 C   0  0  0  0  0  0  0  0  0  0  0  0
   58.3170   26.5960   44.5600 C   0  0  0  0  0  0  0  0  0  0  0  0
   57.5670   25.6960   45.3050 C   0  0  0  0  0  0  0  0  0  0  0  0
   56.8390   24.6710   44.8360 C   0  0  0  0  0  0  0  0  0  0  0  0
   55.4040   24.4740   45.1110 C   0  0  0  0  0  0  0  0  0  0  0  0
   54.7360   23.3590   44.7700 N   0  0  0  0  0  0  0  0  0  0  0  0
   53.4620   23.6360   45.1230 C   0  0  0  0  0  0  0  0  0  0  0  0
   52.5220   22.8130   44.9700 O   0  0  0  0  0  0  0  0  0  0  0  0
   53.2730   24.8670   45.6410 N   0  0  0  0  0  0  0  0  0  0  0  0
   54.5080   25.3920   45.6160 C   0  0  0  0  0  0  0  0  0  0  0  0
   54.7960   26.6960   45.9980 O   0  0  0  0  0  0  0  0  0  0  0  0
   57.6180   26.0200   46.6130 N   0  0  0  0  0  0  0  0  0  0  0  0
  1  2  2  0
  2  3  1  0
  3  4  1  0
  4  5  1  0
  5  6  2  0
  6  7  1  0
  7  8  2  0
  8  9  1  0
  9 10  1  0
 10 11  2  0
 10 12  1  0
 12 13  1  0
 13 14  1  0
 14 15  1  0
 15 16  1  0
 16 17  2  0
 16 18  1  0
 15 19  1  0
 19 20  1  0
  9 21  2  0
  3 22  2  0
 22 23  1  0
 23 24  2  0
 24 25  1  0
 25 26  1  0
 26 27  1  0
 27 28  2  0
 27 29  1  0
 29 30  1  0
 30 31  1  0
 23 32  1  0
 32  2  1  0
 21  5  1  0
 30 25  2  0
 20 12  1  0
M  CHG  3  26  -1  29  -1  31  -1
M  END
>  <UniqueID>  (2921) 
60

>  <SMILES>  (2921) 
C=c1[nH]/c(=C/c2[n-]c(=O)[n-]c2[O-])cc1Cc1cccc(C(=O)N2CCN(C(C)=O)CC2)c1

>  <Energy>  (2921) 
120.35763628988808

>  <Genealogy>  (2921) 
C=c1[nH]c(=Cc2[n-]c(=O)[n-]c2[O-])cc1Cc1cccc(C(=O)N2CCN(C(C)=O)CC2)c1 (protonated)
C=c1[nH]/c(=C/c2[n-]c(=O)[n-]c2[O-])cc1Cc1cccc(C(=O)N2CCN(C(C)=O)CC2)c1 (cis-trans isomerization)
C=c1[nH]/c(=C/c2[n-]c(=O)[n-]c2[O-])cc1Cc1cccc(C(=O)N2CCN(C(C)=O)CC2)c1 (3D coordinates assigned)
C=c1[nH]/c(=C/c2[n-]c(=O)[n-]c2[O-])cc1Cc1cccc(C(=O)N2CCN(C(C)=O)CC2)c1 (nonaromatic ring conformer: 120.35763628988808 kcal/mol)

>  <smiles>  (2921) 
C=c1[nH]c(=Cc2[nH]c(=O)[nH]c2O)cc1Cc1cccc(C(=O)N2CCN(C(C)=O)CC2)c1

>  <score_type>  (2921) 
oracle

>  <origin>  (2921) 
adg

>  <m_score__min__energy>  (2921) 
-18.460000000000001

>  <m_primary>  (2921) 
energy

$$$$
76:0
     RDKit          3D

 24 26  0  0  0  0  0  0  0  0999 V2000
   58.8340   30.1640   47.9750 C   0  0  0  0  0  0  0  0  0  0  0  0
   58.4930   30.4010   46.6960 C   0  0  0  0  0  0  0  0  0  0  0  0
   58.3900   29.4580   45.6580 C   0  0  0  0  0  0  0  0  0  0  0  0
   58.4710   28.1160   45.6730 C   0  0  0  0  0  0  0  0  0  0  0  0
   57.3420   27.1950   45.8460 C   0  0  0  0  0  0  0  0  0  0  0  0
   57.4440   25.9720   46.3970 N   0  0  0  0  0  0  0  0  0  0  0  0
   56.1610   25.5530   46.4460 C   0  0  0  0  0  0  0  0  0  0  0  0
   55.8370   24.4250   46.8900 O   0  0  0  0  0  0  0  0  0  0  0  0
   55.2540   26.4380   45.9820 N   0  0  0  0  0  0  0  0  0  0  0  0
   56.0180   27.4790   45.6200 C   0  0  0  0  0  0  0  0  0  0  0  0
   55.5230   28.6510   45.0710 O   0  0  0  0  0  0  0  0  0  0  0  0
   58.1660   30.1780   44.4990 C   0  0  0  0  0  0  0  0  0  0  0  0
   58.1090   31.5070   44.8590 C   0  0  0  0  0  0  0  0  0  0  0  0
   57.8280   32.6290   43.9090 C   0  0  0  0  0  0  0  0  0  0  0  0
   58.2960   31.6480   46.1940 N   0  0  0  0  0  0  0  0  0  0  0  0
   58.4200   32.9290   46.9100 C   0  0  0  0  0  0  0  0  0  0  0  0
   59.6900   33.6200   46.4940 C   0  0  0  0  0  0  0  0  0  0  0  0
   59.7250   34.2200   45.3860 O   0  0  0  0  0  0  0  0  0  0  0  0
   60.8720   33.5640   47.3100 N   0  0  0  0  0  0  0  0  0  0  0  0
   60.7850   33.7610   48.7590 C   0  0  0  0  0  0  0  0  0  0  0  0
   62.1300   34.2530   49.3120 C   0  0  0  0  0  0  0  0  0  0  0  0
   63.2030   33.4610   48.8380 O   0  0  0  0  0  0  0  0  0  0  0  0
   63.3210   33.6010   47.4330 C   0  0  0  0  0  0  0  0  0  0  0  0
   62.0990   33.0120   46.7320 C   0  0  0  0  0  0  0  0  0  0  0  0
  1  2  2  0
  2  3  1  0
  3  4  2  0
  4  5  1  0
  5  6  1  0
  6  7  1  0
  7  8  2  0
  7  9  1  0
  9 10  1  0
 10 11  1  0
  3 12  1  0
 12 13  2  0
 13 14  1  0
 13 15  1  0
 15 16  1  0
 16 17  1  0
 17 18  2  0
 17 19  1  0
 19 20  1  0
 20 21  1  0
 21 22  1  0
 22 23  1  0
 23 24  1  0
 15  2  1  0
 24 19  1  0
 10  5  2  0
M  CHG  3   6  -1   9  -1  11  -1
M  END
>  <UniqueID>  (2922) 
75

>  <SMILES>  (2922) 
C=c1/c(=C\c2[n-]c(=O)[n-]c2[O-])cc(C)n1CC(=O)N1CCOCC1

>  <Energy>  (2922) 
113.95411174354349

>  <Genealogy>  (2922) 
C=c1c(=Cc2[n-]c(=O)[n-]c2[O-])cc(C)n1CC(=O)N1CCOCC1 (protonated)
C=c1/c(=C\c2[n-]c(=O)[n-]c2[O-])cc(C)n1CC(=O)N1CCOCC1 (cis-trans isomerization)
C=c1/c(=C\c2[n-]c(=O)[n-]c2[O-])cc(C)n1CC(=O)N1CCOCC1 (3D coordinates assigned)
C=c1/c(=C\c2[n-]c(=O)[n-]c2[O-])cc(C)n1CC(=O)N1CCOCC1 (nonaromatic ring conformer: 113.95411174354349 kcal/mol)

>  <smiles>  (2922) 
C=c1c(=Cc2[nH]c(=O)[nH]c2O)cc(C)n1CC(=O)N1CCOCC1

>  <score_type>  (2922) 
oracle

>  <origin>  (2922) 
adg

>  <m_score__min__energy>  (2922) 
-15.52

>  <m_primary>  (2922) 
energy

$$$$
9:0
     RDKit          3D

 33 36  0  0  0  0  0  0  0  0999 V2000
   54.5830   30.9780   51.5930 C   0  0  0  0  0  0  0  0  0  0  0  0
   54.6370   29.9030   52.3960 C   0  0  0  0  0  0  0  0  0  0  0  0
   53.5390   29.2190   52.9280 C   0  0  0  0  0  0  0  0  0  0  0  0
   52.2320   29.4980   52.7480 C   0  0  0  0  0  0  0  0  0  0  0  0
   51.7390   30.7680   52.1880 C   0  0  0  0  0  0  0  0  0  0  0  0
   51.3290   31.7970   52.9500 N   0  0  0  0  0  0  0  0  0  0  0  0
   50.9220   32.7140   52.0460 C   0  0  0  0  0  0  0  0  0  0  0  0
   50.4710   33.8400   52.3790 O   0  0  0  0  0  0  0  0  0  0  0  0
   51.0260   32.3240   50.7580 N   0  0  0  0  0  0  0  0  0  0  0  0
   51.5320   31.0850   50.8610 C   0  0  0  0  0  0  0  0  0  0  0  0
   51.7490   30.2570   49.7610 O   0  0  0  0  0  0  0  0  0  0  0  0
   54.0550   28.1470   53.6430 C   0  0  0  0  0  0  0  0  0  0  0  0
   55.4290   28.2260   53.5370 C   0  0  0  0  0  0  0  0  0  0  0  0
   56.3790   27.2590   54.1790 C   0  0  0  0  0  0  0  0  0  0  0  0
   55.7880   29.2900   52.7810 N   0  0  0  0  0  0  0  0  0  0  0  0
   57.1380   29.6910   52.4790 C   0  0  0  0  0  0  0  0  0  0  0  0
   57.8050   29.0520   51.6230 O   0  0  0  0  0  0  0  0  0  0  0  0
   57.6910   30.8590   53.0990 N   0  0  0  0  0  0  0  0  0  0  0  0
   58.4170   31.9070   52.4410 C   0  0  0  0  0  0  0  0  0  0  0  0
   59.1470   32.8110   53.2230 C   0  0  0  0  0  0  0  0  0  0  0  0
   59.8820   33.8350   52.6190 C   0  0  0  0  0  0  0  0  0  0  0  0
   59.9090   33.9520   51.2280 C   0  0  0  0  0  0  0  0  0  0  0  0
   59.2080   33.0350   50.4320 C   0  0  0  0  0  0  0  0  0  0  0  0
   59.2380   33.1590   48.6740 S   0  0  0  0  0  0  0  0  0  0  0  0
   59.4590   34.5990   48.3030 O   0  0  0  0  0  0  0  0  0  0  0  0
   57.9180   32.7120   48.1090 O   0  0  0  0  0  0  0  0  0  0  0  0
   60.5420   32.1680   48.0550 N   0  0  0  0  0  0  0  0  0  0  0  0
   61.1040   32.7150   46.8000 C   0  0  0  0  0  0  0  0  0  0  0  0
   62.4010   33.5150   47.0280 C   0  0  0  0  0  0  0  0  0  0  0  0
   62.3720   34.1480   48.2870 O   0  0  0  0  0  0  0  0  0  0  0  0
   62.4550   33.1830   49.3220 C   0  0  0  0  0  0  0  0  0  0  0  0
   61.5780   31.9310   49.0750 C   0  0  0  0  0  0  0  0  0  0  0  0
   58.4660   32.0130   51.0390 C   0  0  0  0  0  0  0  0  0  0  0  0
  1  2  2  0
  2  3  1  0
  3  4  2  3
  4  5  1  0
  5  6  1  0
  6  7  1  0
  7  8  2  0
  7  9  1  0
  9 10  1  0
 10 11  1  0
  3 12  1  0
 12 13  2  0
 13 14  1  0
 13 15  1  0
 15 16  1  0
 16 17  2  0
 16 18  1  0
 18 19  1  0
 19 20  2  0
 20 21  1  0
 21 22  2  0
 22 23  1  0
 23 24  1  0
 24 25  2  0
 24 26  2  0
 24 27  1  0
 27 28  1  0
 28 29  1  0
 29 30  1  0
 30 31  1  0
 31 32  1  0
 23 33  2  0
 15  2  1  0
 33 19  1  0
 10  5  2  0
 32 27  1  0
M  CHG  3   6  -1   9  -1  18  -1
M  END
>  <UniqueID>  (2923) 
10

>  <SMILES>  (2923) 
C=c1c(=Cc2[n-]c(=O)[n-]c2O)cc(C)n1C(=O)[N-]c1cccc(S(=O)(=O)N2CCOCC2)c1

>  <Energy>  (2923) 
139.5364932430451

>  <Genealogy>  (2923) 
C=c1c(=Cc2[n-]c(=O)[n-]c2O)cc(C)n1C(=O)[N-]c1cccc(S(=O)(=O)N2CCOCC2)c1 (protonated)
C=c1c(=Cc2[n-]c(=O)[n-]c2O)cc(C)n1C(=O)[N-]c1cccc(S(=O)(=O)N2CCOCC2)c1 (3D coordinates assigned)
C=c1c(=Cc2[n-]c(=O)[n-]c2O)cc(C)n1C(=O)[N-]c1cccc(S(=O)(=O)N2CCOCC2)c1 (nonaromatic ring conformer: 139.5364932430451 kcal/mol)

>  <smiles>  (2923) 
C=c1c(=Cc2[nH]c(=O)[nH]c2O)cc(C)n1C(=O)Nc1cccc(S(=O)(=O)N2CCOCC2)c1

>  <score_type>  (2923) 
oracle

>  <origin>  (2923) 
adg

>  <m_score__min__energy>  (2923) 
-15.619999999999999

>  <m_primary>  (2923) 
energy

$$$$
13:0
     RDKit          3D

 28 31  0  0  0  0  0  0  0  0999 V2000
   55.4520   31.4090   51.9900 C   0  0  0  0  0  0  0  0  0  0  0  0
   54.9980   30.3460   52.6740 C   0  0  0  0  0  0  0  0  0  0  0  0
   53.6830   30.1170   53.1100 C   0  0  0  0  0  0  0  0  0  0  0  0
   52.5310   30.7610   52.8330 C   0  0  0  0  0  0  0  0  0  0  0  0
   51.9020   30.8640   51.5080 C   0  0  0  0  0  0  0  0  0  0  0  0
   52.0200   29.9240   50.5550 N   0  0  0  0  0  0  0  0  0  0  0  0
   51.4090   30.4840   49.4870 C   0  0  0  0  0  0  0  0  0  0  0  0
   51.2970   29.8920   48.3830 O   0  0  0  0  0  0  0  0  0  0  0  0
   50.9380   31.7330   49.6940 N   0  0  0  0  0  0  0  0  0  0  0  0
   51.2720   31.9650   50.9720 C   0  0  0  0  0  0  0  0  0  0  0  0
   51.0300   33.1660   51.6270 O   0  0  0  0  0  0  0  0  0  0  0  0
   53.7410   29.0150   53.9440 C   0  0  0  0  0  0  0  0  0  0  0  0
   55.0510   28.5860   53.9570 C   0  0  0  0  0  0  0  0  0  0  0  0
   55.5230   27.4160   54.7240 C   0  0  0  0  0  0  0  0  0  0  0  0
   54.7580   26.9250   55.5990 O   0  0  0  0  0  0  0  0  0  0  0  0
   56.8350   26.8510   54.5250 N   0  0  0  0  0  0  0  0  0  0  0  0
   56.9330   25.5360   53.8740 C   0  0  0  0  0  0  0  0  0  0  0  0
   58.3460   25.1660   53.4910 C   0  0  0  0  0  0  0  0  0  0  0  0
   58.5680   23.9520   52.8200 C   0  0  0  0  0  0  0  0  0  0  0  0
   59.8620   23.5650   52.4610 C   0  0  0  0  0  0  0  0  0  0  0  0
   60.0680   22.3620   51.7960 O   0  0  0  0  0  0  0  0  0  0  0  0
   60.9480   24.3870   52.7700 C   0  0  0  0  0  0  0  0  0  0  0  0
   60.7420   25.5950   53.4400 C   0  0  0  0  0  0  0  0  0  0  0  0
   59.4470   25.9870   53.8200 C   0  0  0  0  0  0  0  0  0  0  0  0
   59.2460   27.3180   54.4850 C   0  0  0  0  0  0  0  0  0  0  0  0
   57.9690   27.3350   55.3220 C   0  0  0  0  0  0  0  0  0  0  0  0
   55.8120   29.3760   53.1620 N   0  0  0  0  0  0  0  0  0  0  0  0
   57.2410   29.2120   52.8710 C   0  0  0  0  0  0  0  0  0  0  0  0
  1  2  2  0
  2  3  1  0
  3  4  2  0
  4  5  1  0
  5  6  1  0
  6  7  1  0
  7  8  2  0
  7  9  1  0
  9 10  1  0
 10 11  1  0
  3 12  1  0
 12 13  2  0
 13 14  1  0
 14 15  2  0
 14 16  1  0
 16 17  1  0
 17 18  1  0
 18 19  2  0
 19 20  1  0
 20 21  1  0
 20 22  2  0
 22 23  1  0
 23 24  2  0
 24 25  1  0
 25 26  1  0
 13 27  1  0
 27 28  1  0
 27  2  1  0
 10  5  2  0
 26 16  1  0
 24 18  1  0
M  CHG  4   6  -1   9  -1  11  -1  21  -1
M  END
>  <UniqueID>  (2924) 
14

>  <SMILES>  (2924) 
C=c1/c(=C\c2[n-]c(=O)[n-]c2[O-])cc(C(=O)N2CCc3ccc([O-])cc3C2)n1C

>  <Energy>  (2924) 
125.15974486086648

>  <Genealogy>  (2924) 
C=c1c(=Cc2[n-]c(=O)[n-]c2[O-])cc(C(=O)N2CCc3ccc([O-])cc3C2)n1C (protonated)
C=c1/c(=C\c2[n-]c(=O)[n-]c2[O-])cc(C(=O)N2CCc3ccc([O-])cc3C2)n1C (cis-trans isomerization)
C=c1/c(=C\c2[n-]c(=O)[n-]c2[O-])cc(C(=O)N2CCc3ccc([O-])cc3C2)n1C (3D coordinates assigned)
C=c1/c(=C\c2[n-]c(=O)[n-]c2[O-])cc(C(=O)N2CCc3ccc([O-])cc3C2)n1C (nonaromatic ring conformer: 125.15974486086648 kcal/mol)

>  <smiles>  (2924) 
C=c1c(=Cc2[nH]c(=O)[nH]c2O)cc(C(=O)N2CCc3ccc(O)cc3C2)n1C

>  <score_type>  (2924) 
oracle

>  <origin>  (2924) 
adg

>  <m_score__min__energy>  (2924) 
-18.18

>  <m_primary>  (2924) 
energy

$$$$
21:0
     RDKit          3D

 29 32  0  0  0  0  0  0  0  0999 V2000
   53.4230   28.5660   54.4180 C   0  0  0  0  0  0  0  0  0  0  0  0
   54.1100   29.3720   53.5870 C   0  0  0  0  0  0  0  0  0  0  0  0
   53.5360   30.2060   52.6210 C   0  0  0  0  0  0  0  0  0  0  0  0
   52.2270   30.3560   52.3340 C   0  0  0  0  0  0  0  0  0  0  0  0
   51.7220   30.8260   51.0320 C   0  0  0  0  0  0  0  0  0  0  0  0
   51.6280   30.0370   49.9470 N   0  0  0  0  0  0  0  0  0  0  0  0
   51.0550   30.8400   49.0240 C   0  0  0  0  0  0  0  0  0  0  0  0
   50.8080   30.4560   47.8520 O   0  0  0  0  0  0  0  0  0  0  0  0
   50.7560   32.0830   49.4610 N   0  0  0  0  0  0  0  0  0  0  0  0
   51.1750   32.0560   50.7370 C   0  0  0  0  0  0  0  0  0  0  0  0
   51.0170   33.1170   51.6190 O   0  0  0  0  0  0  0  0  0  0  0  0
   54.5860   30.7920   51.9440 C   0  0  0  0  0  0  0  0  0  0  0  0
   55.7470   30.3130   52.5110 C   0  0  0  0  0  0  0  0  0  0  0  0
   57.0820   30.6520   51.9780 C   0  0  0  0  0  0  0  0  0  0  0  0
   57.4150   30.1900   50.8540 O   0  0  0  0  0  0  0  0  0  0  0  0
   58.0320   31.3910   52.7920 N   0  0  0  0  0  0  0  0  0  0  0  0
   57.9310   32.8580   52.6060 C   0  0  0  0  0  0  0  0  0  0  0  0
   58.6290   33.3580   51.3290 C   0  0  0  0  0  0  0  0  0  0  0  0
   60.0270   32.8940   51.2860 N   0  0  0  0  0  0  0  0  0  0  0  0
   60.7050   33.4110   50.0790 C   0  0  0  0  0  0  0  0  0  0  0  0
   59.6990   34.1580   49.1900 C   0  0  0  0  0  0  0  0  0  0  0  0
   60.2050   34.4960   47.7960 C   0  0  0  0  0  0  0  0  0  0  0  0
   59.1800   33.3880   47.9840 C   0  0  0  0  0  0  0  0  0  0  0  0
   60.0580   31.4180   51.3140 C   0  0  0  0  0  0  0  0  0  0  0  0
   59.4160   30.9010   52.6080 C   0  0  0  0  0  0  0  0  0  0  0  0
   55.4720   29.4640   53.5400 N   0  0  0  0  0  0  0  0  0  0  0  0
   56.4300   28.6340   54.3130 C   0  0  0  0  0  0  0  0  0  0  0  0
   56.4870   29.1090   55.7670 C   0  0  0  0  0  0  0  0  0  0  0  0
   56.1450   27.1280   54.2230 C   0  0  0  0  0  0  0  0  0  0  0  0
  1  2  2  0
  2  3  1  0
  3  4  2  3
  4  5  1  0
  5  6  1  0
  6  7  1  0
  7  8  2  0
  7  9  1  0
  9 10  1  0
 10 11  1  0
  3 12  1  0
 12 13  2  0
 13 14  1  0
 14 15  2  0
 14 16  1  0
 16 17  1  0
 17 18  1  0
 18 19  1  0
 19 20  1  0
 20 21  1  0
 21 22  1  0
 22 23  1  0
 19 24  1  0
 24 25  1  0
 13 26  1  0
 26 27  1  0
 27 28  1  0
 27 29  1  0
 26  2  1  0
 10  5  2  0
 25 16  1  0
 23 21  1  0
M  CHG  4   6  -1   9  -1  11  -1  16   1
M  END
>  <UniqueID>  (2925) 
22

>  <SMILES>  (2925) 
C=c1c(=Cc2[n-]c(=O)[n-]c2[O-])cc(C(=O)[NH+]2CCN(CC3CC3)CC2)n1C(C)C

>  <Energy>  (2925) 
400.51286552388643

>  <Genealogy>  (2925) 
C=c1c(=Cc2[n-]c(=O)[n-]c2[O-])cc(C(=O)[NH+]2CCN(CC3CC3)CC2)n1C(C)C (protonated)
C=c1c(=Cc2[n-]c(=O)[n-]c2[O-])cc(C(=O)[NH+]2CCN(CC3CC3)CC2)n1C(C)C (3D coordinates assigned)
C=c1c(=Cc2[n-]c(=O)[n-]c2[O-])cc(C(=O)[NH+]2CCN(CC3CC3)CC2)n1C(C)C (nonaromatic ring conformer: 400.51286552388643 kcal/mol)

>  <smiles>  (2925) 
C=c1c(=Cc2[nH]c(=O)[nH]c2O)cc(C(=O)N2CCN(CC3CC3)CC2)n1C(C)C

>  <score_type>  (2925) 
oracle

>  <origin>  (2925) 
adg

>  <m_score__min__energy>  (2925) 
-15.880000000000001

>  <m_primary>  (2925) 
energy

$$$$
40:0
     RDKit          3D

 31 34  0  0  0  0  0  0  0  0999 V2000
   53.9630   28.8400   54.1490 C   0  0  0  0  0  0  0  0  0  0  0  0
   54.4300   29.7690   53.2990 C   0  0  0  0  0  0  0  0  0  0  0  0
   53.6990   30.3970   52.2870 C   0  0  0  0  0  0  0  0  0  0  0  0
   52.4250   30.1560   51.9180 C   0  0  0  0  0  0  0  0  0  0  0  0
   51.7980   30.7440   50.7210 C   0  0  0  0  0  0  0  0  0  0  0  0
   51.6610   30.0870   49.5560 N   0  0  0  0  0  0  0  0  0  0  0  0
   50.9940   30.9660   48.7770 C   0  0  0  0  0  0  0  0  0  0  0  0
   50.6850   30.7140   47.5830 O   0  0  0  0  0  0  0  0  0  0  0  0
   50.6770   32.1310   49.3800 N   0  0  0  0  0  0  0  0  0  0  0  0
   51.1820   31.9710   50.6130 C   0  0  0  0  0  0  0  0  0  0  0  0
   51.0420   32.9090   51.6300 O   0  0  0  0  0  0  0  0  0  0  0  0
   54.5590   31.3070   51.6960 C   0  0  0  0  0  0  0  0  0  0  0  0
   55.7620   31.2130   52.3630 C   0  0  0  0  0  0  0  0  0  0  0  0
   56.9200   32.0800   52.0690 C   0  0  0  0  0  0  0  0  0  0  0  0
   56.8710   33.3150   52.3140 O   0  0  0  0  0  0  0  0  0  0  0  0
   58.0730   31.5340   51.4160 N   0  0  0  0  0  0  0  0  0  0  0  0
   58.4320   32.0170   50.0790 C   0  0  0  0  0  0  0  0  0  0  0  0
   59.4890   31.1200   49.4220 C   0  0  0  0  0  0  0  0  0  0  0  0
   59.2260   29.7070   49.7320 N   0  0  0  0  0  0  0  0  0  0  0  0
   59.3750   28.7050   48.7150 C   0  0  0  0  0  0  0  0  0  0  0  0
   60.1880   27.7590   48.8950 O   0  0  0  0  0  0  0  0  0  0  0  0
   58.5640   28.7480   47.4760 C   0  0  0  0  0  0  0  0  0  0  0  0
   57.8340   27.6220   47.0580 C   0  0  0  0  0  0  0  0  0  0  0  0
   57.0740   27.6780   45.9320 N   0  0  0  0  0  0  0  0  0  0  0  0
   56.9870   28.8070   45.1820 C   0  0  0  0  0  0  0  0  0  0  0  0
   57.6850   29.9530   45.5620 C   0  0  0  0  0  0  0  0  0  0  0  0
   58.4730   29.9230   46.7140 C   0  0  0  0  0  0  0  0  0  0  0  0
   59.0030   29.2770   51.1190 C   0  0  0  0  0  0  0  0  0  0  0  0
   58.8530   30.4730   52.0630 C   0  0  0  0  0  0  0  0  0  0  0  0
   55.6960   30.2640   53.3270 N   0  0  0  0  0  0  0  0  0  0  0  0
   56.7790   29.8680   54.2350 C   0  0  0  0  0  0  0  0  0  0  0  0
  1  2  2  0
  2  3  1  0
  3  4  2  0
  4  5  1  0
  5  6  1  0
  6  7  1  0
  7  8  2  0
  7  9  1  0
  9 10  1  0
 10 11  1  0
  3 12  1  0
 12 13  2  0
 13 14  1  0
 14 15  2  0
 14 16  1  0
 16 17  1  0
 17 18  1  0
 18 19  1  0
 19 20  1  0
 20 21  2  0
 20 22  1  0
 22 23  2  0
 23 24  1  0
 24 25  2  0
 25 26  1  0
 26 27  2  0
 19 28  1  0
 28 29  1  0
 13 30  1  0
 30 31  1  0
 30  2  1  0
 10  5  2  0
 29 16  1  0
 27 22  1  0
M  CHG  3   6  -1   9  -1  11  -1
M  END
>  <UniqueID>  (2926) 
40

>  <SMILES>  (2926) 
C=c1/c(=C/c2[n-]c(=O)[n-]c2[O-])cc(C(=O)N2CCN(C(=O)c3cccnc3)CC2)n1C

>  <Energy>  (2926) 
129.17911711906441

>  <Genealogy>  (2926) 
C=c1c(=Cc2[n-]c(=O)[n-]c2[O-])cc(C(=O)N2CCN(C(=O)c3cccnc3)CC2)n1C (protonated)
C=c1/c(=C/c2[n-]c(=O)[n-]c2[O-])cc(C(=O)N2CCN(C(=O)c3cccnc3)CC2)n1C (cis-trans isomerization)
C=c1/c(=C/c2[n-]c(=O)[n-]c2[O-])cc(C(=O)N2CCN(C(=O)c3cccnc3)CC2)n1C (3D coordinates assigned)
C=c1/c(=C/c2[n-]c(=O)[n-]c2[O-])cc(C(=O)N2CCN(C(=O)c3cccnc3)CC2)n1C (nonaromatic ring conformer: 129.17911711906441 kcal/mol)

>  <smiles>  (2926) 
C=c1c(=Cc2[nH]c(=O)[nH]c2O)cc(C(=O)N2CCN(C(=O)c3cccnc3)CC2)n1C

>  <score_type>  (2926) 
oracle

>  <origin>  (2926) 
adg

>  <m_score__min__energy>  (2926) 
-18.43

>  <m_primary>  (2926) 
energy

$$$$
46:0
     RDKit          3D

 30 32  0  0  0  0  0  0  0  0999 V2000
   59.5650   34.7590   45.2650 O   0  0  0  0  0  0  0  0  0  0  0  0
   58.9670   33.7960   45.8130 C   0  0  0  0  0  0  0  0  0  0  0  0
   57.4800   33.6750   45.6750 C   0  0  0  0  0  0  0  0  0  0  0  0
   57.1180   32.3590   45.1530 N   0  0  0  0  0  0  0  0  0  0  0  0
   57.3800   31.9700   43.7970 C   0  0  0  0  0  0  0  0  0  0  0  0
   57.9750   32.7580   43.0120 O   0  0  0  0  0  0  0  0  0  0  0  0
   56.9810   30.6090   43.3140 C   0  0  0  0  0  0  0  0  0  0  0  0
   57.4440   29.5540   44.2860 C   0  0  0  0  0  0  0  0  0  0  0  0
   58.8210   29.3530   44.4860 C   0  0  0  0  0  0  0  0  0  0  0  0
   59.2710   28.3960   45.4000 C   0  0  0  0  0  0  0  0  0  0  0  0
   58.3530   27.6360   46.1260 C   0  0  0  0  0  0  0  0  0  0  0  0
   56.9810   27.8340   45.9440 C   0  0  0  0  0  0  0  0  0  0  0  0
   56.5220   28.7900   45.0310 C   0  0  0  0  0  0  0  0  0  0  0  0
   55.1520   28.9720   44.8710 O   0  0  0  0  0  0  0  0  0  0  0  0
   59.7030   32.7650   46.4850 N   0  0  0  0  0  0  0  0  0  0  0  0
   59.3520   32.1390   47.7270 C   0  0  0  0  0  0  0  0  0  0  0  0
   59.2130   30.7440   47.8470 C   0  0  0  0  0  0  0  0  0  0  0  0
   58.9030   30.1710   49.0840 C   0  0  0  0  0  0  0  0  0  0  0  0
   58.7410   30.9810   50.2180 C   0  0  0  0  0  0  0  0  0  0  0  0
   58.3540   30.2570   51.7800 S   0  0  0  0  0  0  0  0  0  0  0  0
   58.7500   31.2070   52.8750 O   0  0  0  0  0  0  0  0  0  0  0  0
   59.1500   28.9930   51.9510 O   0  0  0  0  0  0  0  0  0  0  0  0
   56.6530   29.8860   51.9230 N   0  0  0  0  0  0  0  0  0  0  0  0
   56.4000   29.0730   53.1210 C   0  0  0  0  0  0  0  0  0  0  0  0
   54.8880   28.8060   53.2760 C   0  0  0  0  0  0  0  0  0  0  0  0
   54.1380   29.4010   52.2340 O   0  0  0  0  0  0  0  0  0  0  0  0
   54.3700   30.7970   52.2150 C   0  0  0  0  0  0  0  0  0  0  0  0
   55.8590   31.1240   51.9780 C   0  0  0  0  0  0  0  0  0  0  0  0
   58.9050   32.3690   50.1040 C   0  0  0  0  0  0  0  0  0  0  0  0
   59.2120   32.9410   48.8670 C   0  0  0  0  0  0  0  0  0  0  0  0
  1  2  2  0
  2  3  1  0
  3  4  1  0
  4  5  1  0
  5  6  2  0
  5  7  1  0
  7  8  1  0
  8  9  2  0
  9 10  1  0
 10 11  2  0
 11 12  1  0
 12 13  2  0
 13 14  1  0
  2 15  1  0
 15 16  1  0
 16 17  2  0
 17 18  1  0
 18 19  2  0
 19 20  1  0
 20 21  2  0
 20 22  2  0
 20 23  1  0
 23 24  1  0
 24 25  1  0
 25 26  1  0
 26 27  1  0
 27 28  1  0
 19 29  1  0
 29 30  2  0
 13  8  1  0
 30 16  1  0
 28 23  1  0
M  CHG  2  14  -1  15  -1
M  END
>  <UniqueID>  (2927) 
45

>  <SMILES>  (2927) 
O=C(CNC(=O)Cc1ccccc1[O-])[N-]c1ccc(S(=O)(=O)N2CCOCC2)cc1

>  <Energy>  (2927) 
58.23022037701478

>  <Genealogy>  (2927) 
O=C(CNC(=O)Cc1ccccc1[O-])[N-]c1ccc(S(=O)(=O)N2CCOCC2)cc1 (protonated)
O=C(CNC(=O)Cc1ccccc1[O-])[N-]c1ccc(S(=O)(=O)N2CCOCC2)cc1 (3D coordinates assigned)
O=C(CNC(=O)Cc1ccccc1[O-])[N-]c1ccc(S(=O)(=O)N2CCOCC2)cc1 (nonaromatic ring conformer: 58.23022037701478 kcal/mol)

>  <smiles>  (2927) 
O=C(Cc1ccccc1O)NCC(=O)Nc1ccc(S(=O)(=O)N2CCOCC2)cc1

>  <score_type>  (2927) 
oracle

>  <origin>  (2927) 
adg

>  <m_score__min__energy>  (2927) 
-14.710000000000001

>  <m_primary>  (2927) 
energy

$$$$
52:0
     RDKit          3D

 31 34  0  0  0  0  0  0  0  0999 V2000
   67.0840   30.5930   53.1440 C   0  0  0  0  0  0  0  0  0  0  0  0
   66.5280   31.7090   52.3620 N   0  0  0  0  0  0  0  0  0  0  0  0
   66.9400   31.5890   50.9460 C   0  0  0  0  0  0  0  0  0  0  0  0
   66.3870   32.7510   50.1140 C   0  0  0  0  0  0  0  0  0  0  0  0
   64.9410   32.8490   50.3180 N   0  0  0  0  0  0  0  0  0  0  0  0
   64.0470   32.7060   49.2040 C   0  0  0  0  0  0  0  0  0  0  0  0
   64.0630   31.6360   48.5390 O   0  0  0  0  0  0  0  0  0  0  0  0
   63.0910   33.8060   48.7990 C   0  0  0  0  0  0  0  0  0  0  0  0
   61.6880   33.6110   49.4140 C   0  0  0  0  0  0  0  0  0  0  0  0
   60.6980   34.5900   48.7690 C   0  0  0  0  0  0  0  0  0  0  0  0
   60.5830   34.4030   47.2990 N   0  0  0  0  0  0  0  0  0  0  0  0
   59.2380   33.9810   46.8430 C   0  0  0  0  0  0  0  0  0  0  0  0
   58.9970   32.4880   46.9590 C   0  0  0  0  0  0  0  0  0  0  0  0
   59.4490   31.7840   48.0880 C   0  0  0  0  0  0  0  0  0  0  0  0
   59.2050   30.4160   48.2120 C   0  0  0  0  0  0  0  0  0  0  0  0
   58.5200   29.7320   47.2070 C   0  0  0  0  0  0  0  0  0  0  0  0
   58.0730   30.4180   46.0650 C   0  0  0  0  0  0  0  0  0  0  0  0
   57.4010   29.7360   44.9970 N   0  0  0  0  0  0  0  0  0  0  0  0
   56.2610   28.8810   45.1420 C   0  0  0  0  0  0  0  0  0  0  0  0
   55.1170   29.3440   44.8930 O   0  0  0  0  0  0  0  0  0  0  0  0
   56.3840   27.4940   45.6270 C   0  0  0  0  0  0  0  0  0  0  0  0
   57.5540   26.8100   45.8870 C   0  0  0  0  0  0  0  0  0  0  0  0
   57.2530   25.5820   46.3430 N   0  0  0  0  0  0  0  0  0  0  0  0
   55.9050   25.5690   46.3470 C   0  0  0  0  0  0  0  0  0  0  0  0
   55.2370   24.5690   46.7130 O   0  0  0  0  0  0  0  0  0  0  0  0
   55.3300   26.7130   45.9260 N   0  0  0  0  0  0  0  0  0  0  0  0
   58.3380   31.7860   45.9360 C   0  0  0  0  0  0  0  0  0  0  0  0
   61.6810   33.6360   46.6650 C   0  0  0  0  0  0  0  0  0  0  0  0
   63.0450   34.0090   47.2610 C   0  0  0  0  0  0  0  0  0  0  0  0
   64.4440   32.8910   51.6920 C   0  0  0  0  0  0  0  0  0  0  0  0
   65.0520   31.7300   52.4880 C   0  0  0  0  0  0  0  0  0  0  0  0
  1  2  1  0
  2  3  1  0
  3  4  1  0
  4  5  1  0
  5  6  1  0
  6  7  2  0
  6  8  1  0
  8  9  1  0
  9 10  1  0
 10 11  1  0
 11 12  1  0
 12 13  1  0
 13 14  2  0
 14 15  1  0
 15 16  2  0
 16 17  1  0
 17 18  1  0
 18 19  1  0
 19 20  2  0
 19 21  1  0
 21 22  2  0
 22 23  1  0
 23 24  1  0
 24 25  2  0
 24 26  1  0
 17 27  2  0
 11 28  1  0
 28 29  1  0
  5 30  1  0
 30 31  1  0
 31  2  1  0
 29  8  1  0
 27 13  1  0
 26 21  1  0
M  CHG  4   2   1  18  -1  23  -1  26  -1
M  END
>  <UniqueID>  (2928) 
50

>  <SMILES>  (2928) 
C[NH+]1CCN(C(=O)C2CCN(Cc3cccc([N-]C(=O)c4c[n-]c(=O)[n-]4)c3)CC2)CC1

>  <Energy>  (2928) 
105.96060402407667

>  <Genealogy>  (2928) 
C[NH+]1CCN(C(=O)C2CCN(Cc3cccc([N-]C(=O)c4c[n-]c(=O)[n-]4)c3)CC2)CC1 (protonated)
C[NH+]1CCN(C(=O)C2CCN(Cc3cccc([N-]C(=O)c4c[n-]c(=O)[n-]4)c3)CC2)CC1 (3D coordinates assigned)
C[NH+]1CCN(C(=O)C2CCN(Cc3cccc([N-]C(=O)c4c[n-]c(=O)[n-]4)c3)CC2)CC1 (nonaromatic ring conformer: 105.96060402407667 kcal/mol)

>  <smiles>  (2928) 
CN1CCN(C(=O)C2CCN(Cc3cccc(NC(=O)c4c[nH]c(=O)[nH]4)c3)CC2)CC1

>  <score_type>  (2928) 
oracle

>  <origin>  (2928) 
adg

>  <m_score__min__energy>  (2928) 
-14.039999999999999

>  <m_primary>  (2928) 
energy

$$$$
66:0
     RDKit          3D

 37 41  0  0  0  0  0  0  0  0999 V2000
   57.9360   29.2870   46.5920 C   0  0  0  0  0  0  0  0  0  0  0  0
   58.0940   27.9650   46.4900 C   0  0  0  0  0  0  0  0  0  0  0  0
   57.3630   27.2030   45.6520 N   0  0  0  0  0  0  0  0  0  0  0  0
   57.7310   25.9210   45.8610 C   0  0  0  0  0  0  0  0  0  0  0  0
   57.1700   24.8900   45.2130 C   0  0  0  0  0  0  0  0  0  0  0  0
   55.7380   24.5470   45.2790 C   0  0  0  0  0  0  0  0  0  0  0  0
   55.2710   23.2980   45.1110 N   0  0  0  0  0  0  0  0  0  0  0  0
   53.9440   23.4250   45.3330 C   0  0  0  0  0  0  0  0  0  0  0  0
   53.1470   22.4540   45.2520 O   0  0  0  0  0  0  0  0  0  0  0  0
   53.5410   24.6720   45.6560 N   0  0  0  0  0  0  0  0  0  0  0  0
   54.6890   25.3690   45.6310 C   0  0  0  0  0  0  0  0  0  0  0  0
   54.7780   26.7130   45.9710 O   0  0  0  0  0  0  0  0  0  0  0  0
   58.7010   25.8580   46.8520 C   0  0  0  0  0  0  0  0  0  0  0  0
   58.9490   27.1630   47.2400 C   0  0  0  0  0  0  0  0  0  0  0  0
   59.9240   27.5610   48.2770 C   0  0  0  0  0  0  0  0  0  0  0  0
   60.5050   26.6620   48.9440 O   0  0  0  0  0  0  0  0  0  0  0  0
   60.2430   28.9430   48.5170 N   0  0  0  0  0  0  0  0  0  0  0  0
   60.6300   29.7990   47.3880 C   0  0  0  0  0  0  0  0  0  0  0  0
   60.2700   31.2450   47.6350 C   0  0  0  0  0  0  0  0  0  0  0  0
   60.4350   32.1160   46.6170 C   0  0  0  0  0  0  0  0  0  0  0  0
   59.3620   32.9210   45.9950 C   0  0  0  0  0  0  0  0  0  0  0  0
   59.6740   34.1740   45.4450 C   0  0  0  0  0  0  0  0  0  0  0  0
   58.6650   34.9720   44.8960 C   0  0  0  0  0  0  0  0  0  0  0  0
   57.3390   34.5330   44.9110 C   0  0  0  0  0  0  0  0  0  0  0  0
   57.0160   33.3000   45.4840 C   0  0  0  0  0  0  0  0  0  0  0  0
   58.0220   32.4990   46.0350 C   0  0  0  0  0  0  0  0  0  0  0  0
   59.7600   31.6360   48.9780 C   0  0  0  0  0  0  0  0  0  0  0  0
   59.0700   32.6840   49.1160 O   0  0  0  0  0  0  0  0  0  0  0  0
   60.0040   30.7480   50.1410 C   0  0  0  0  0  0  0  0  0  0  0  0
   59.7060   31.1730   51.3890 C   0  0  0  0  0  0  0  0  0  0  0  0
   58.3990   30.9840   52.0530 C   0  0  0  0  0  0  0  0  0  0  0  0
   58.3110   30.5350   53.3840 C   0  0  0  0  0  0  0  0  0  0  0  0
   57.0620   30.3960   53.9980 C   0  0  0  0  0  0  0  0  0  0  0  0
   55.8970   30.7210   53.2990 C   0  0  0  0  0  0  0  0  0  0  0  0
   55.9790   31.1970   51.9880 C   0  0  0  0  0  0  0  0  0  0  0  0
   57.2260   31.3370   51.3700 C   0  0  0  0  0  0  0  0  0  0  0  0
   60.5840   29.3790   49.8740 C   0  0  0  0  0  0  0  0  0  0  0  0
  1  2  2  0
  2  3  1  0
  3  4  1  0
  4  5  2  3
  5  6  1  0
  6  7  1  0
  7  8  1  0
  8  9  2  0
  8 10  1  0
 10 11  1  0
 11 12  1  0
  4 13  1  0
 13 14  2  0
 14 15  1  0
 15 16  2  0
 15 17  1  0
 17 18  1  0
 18 19  1  0
 19 20  2  3
 20 21  1  0
 21 22  2  0
 22 23  1  0
 23 24  2  0
 24 25  1  0
 25 26  2  0
 19 27  1  0
 27 28  2  0
 27 29  1  0
 29 30  2  3
 30 31  1  0
 31 32  2  0
 32 33  1  0
 33 34  2  0
 34 35  1  0
 35 36  2  0
 29 37  1  0
 14  2  1  0
 37 17  1  0
 11  6  2  0
 26 21  1  0
 36 31  1  0
M  CHG  3   7  -1  10  -1  12  -1
M  END
>  <UniqueID>  (2929) 
64

>  <SMILES>  (2929) 
C=c1[nH]c(=Cc2[n-]c(=O)[n-]c2[O-])cc1C(=O)N1CC(=Cc2ccccc2)C(=O)C(=Cc2ccccc2)C1

>  <Energy>  (2929) 
148.51079644930337

>  <Genealogy>  (2929) 
C=c1[nH]c(=Cc2[n-]c(=O)[n-]c2[O-])cc1C(=O)N1CC(=Cc2ccccc2)C(=O)C(=Cc2ccccc2)C1 (protonated)
C=c1[nH]c(=Cc2[n-]c(=O)[n-]c2[O-])cc1C(=O)N1CC(=Cc2ccccc2)C(=O)C(=Cc2ccccc2)C1 (3D coordinates assigned)
C=c1[nH]c(=Cc2[n-]c(=O)[n-]c2[O-])cc1C(=O)N1CC(=Cc2ccccc2)C(=O)C(=Cc2ccccc2)C1 (nonaromatic ring conformer: 148.51079644930337 kcal/mol)

>  <smiles>  (2929) 
C=c1[nH]c(=Cc2[nH]c(=O)[nH]c2O)cc1C(=O)N1CC(=Cc2ccccc2)C(=O)C(=Cc2ccccc2)C1

>  <score_type>  (2929) 
oracle

>  <origin>  (2929) 
adg

>  <m_score__min__energy>  (2929) 
-20.879999999999999

>  <m_primary>  (2929) 
energy

$$$$
74:0
     RDKit          3D

 27 29  0  0  0  0  0  0  0  0999 V2000
   55.3320   29.2300   45.1920 O   0  0  0  0  0  0  0  0  0  0  0  0
   56.5100   28.8290   44.9870 C   0  0  0  0  0  0  0  0  0  0  0  0
   57.3980   29.5960   44.1610 N   0  0  0  0  0  0  0  0  0  0  0  0
   57.8210   30.9500   44.3890 C   0  0  0  0  0  0  0  0  0  0  0  0
   58.2440   31.3910   45.6550 C   0  0  0  0  0  0  0  0  0  0  0  0
   58.6310   32.7260   45.8490 C   0  0  0  0  0  0  0  0  0  0  0  0
   59.1440   33.2860   47.4390 S   0  0  0  0  0  0  0  0  0  0  0  0
   58.8410   34.7530   47.5850 O   0  0  0  0  0  0  0  0  0  0  0  0
   58.3740   32.5330   48.4880 O   0  0  0  0  0  0  0  0  0  0  0  0
   60.8530   32.9990   47.6420 N   0  0  0  0  0  0  0  0  0  0  0  0
   61.1590   31.5820   47.3890 C   0  0  0  0  0  0  0  0  0  0  0  0
   62.6800   31.3360   47.4810 C   0  0  0  0  0  0  0  0  0  0  0  0
   63.3940   32.5290   47.7470 O   0  0  0  0  0  0  0  0  0  0  0  0
   63.1140   33.4840   46.7410 C   0  0  0  0  0  0  0  0  0  0  0  0
   61.6160   33.8560   46.7190 C   0  0  0  0  0  0  0  0  0  0  0  0
   58.5670   33.6280   44.7810 C   0  0  0  0  0  0  0  0  0  0  0  0
   58.1230   33.2010   43.5280 C   0  0  0  0  0  0  0  0  0  0  0  0
   57.7470   31.8690   43.3310 C   0  0  0  0  0  0  0  0  0  0  0  0
   57.3010   31.4620   42.0780 O   0  0  0  0  0  0  0  0  0  0  0  0
   57.0120   27.5980   45.6340 C   0  0  0  0  0  0  0  0  0  0  0  0
   58.3610   27.4350   45.7570 N   0  0  0  0  0  0  0  0  0  0  0  0
   58.9090   26.3340   46.3350 C   0  0  0  0  0  0  0  0  0  0  0  0
   58.0880   25.3210   46.8280 C   0  0  0  0  0  0  0  0  0  0  0  0
   56.7030   25.4510   46.7200 C   0  0  0  0  0  0  0  0  0  0  0  0
   55.9520   24.5400   47.1630 O   0  0  0  0  0  0  0  0  0  0  0  0
   56.1510   26.5910   46.1200 C   0  0  0  0  0  0  0  0  0  0  0  0
   54.7680   26.7090   46.0140 O   0  0  0  0  0  0  0  0  0  0  0  0
  1  2  2  0
  2  3  1  0
  3  4  1  0
  4  5  2  0
  5  6  1  0
  6  7  1  0
  7  8  2  0
  7  9  2  0
  7 10  1  0
 10 11  1  0
 11 12  1  0
 12 13  1  0
 13 14  1  0
 14 15  1  0
  6 16  2  0
 16 17  1  0
 17 18  2  0
 18 19  1  0
  2 20  1  0
 20 21  1  0
 21 22  1  0
 22 23  2  0
 23 24  1  0
 24 25  2  0
 24 26  1  0
 26 27  1  0
 18  4  1  0
 26 20  2  0
 15 10  1  0
M  CHG  4   3  -1  19  -1  21  -1  27  -1
M  END
>  <UniqueID>  (2930) 
72

>  <SMILES>  (2930) 
O=C([N-]c1cc(S(=O)(=O)N2CCOCC2)ccc1[O-])c1[n-]ccc(=O)c1[O-]

>  <Energy>  (2930) 
55.42167544117069

>  <Genealogy>  (2930) 
O=C([N-]c1cc(S(=O)(=O)N2CCOCC2)ccc1[O-])c1[n-]ccc(=O)c1[O-] (protonated)
O=C([N-]c1cc(S(=O)(=O)N2CCOCC2)ccc1[O-])c1[n-]ccc(=O)c1[O-] (3D coordinates assigned)
O=C([N-]c1cc(S(=O)(=O)N2CCOCC2)ccc1[O-])c1[n-]ccc(=O)c1[O-] (nonaromatic ring conformer: 55.42167544117069 kcal/mol)

>  <smiles>  (2930) 
O=C(Nc1cc(S(=O)(=O)N2CCOCC2)ccc1O)c1[nH]ccc(=O)c1O

>  <score_type>  (2930) 
oracle

>  <origin>  (2930) 
adg

>  <m_score__min__energy>  (2930) 
-16.260000000000002

>  <m_primary>  (2930) 
energy

$$$$
79:0
     RDKit          3D

 33 37  0  0  0  0  0  0  0  0999 V2000
   56.4390   29.4530   44.3940 C   0  0  0  0  0  0  0  0  0  0  0  0
   57.6300   29.0560   44.8680 C   0  0  0  0  0  0  0  0  0  0  0  0
   58.1350   27.7450   44.9140 C   0  0  0  0  0  0  0  0  0  0  0  0
   57.5440   26.5520   44.6990 C   0  0  0  0  0  0  0  0  0  0  0  0
   57.0070   25.6510   45.7310 C   0  0  0  0  0  0  0  0  0  0  0  0
   57.6110   24.5270   46.1570 N   0  0  0  0  0  0  0  0  0  0  0  0
   56.6870   23.9620   46.9650 C   0  0  0  0  0  0  0  0  0  0  0  0
   56.8920   22.8830   47.5780 O   0  0  0  0  0  0  0  0  0  0  0  0
   55.5220   24.6400   47.0530 N   0  0  0  0  0  0  0  0  0  0  0  0
   55.7370   25.6970   46.2530 C   0  0  0  0  0  0  0  0  0  0  0  0
   54.7880   26.6780   45.9980 O   0  0  0  0  0  0  0  0  0  0  0  0
   59.4760   27.8580   45.2430 C   0  0  0  0  0  0  0  0  0  0  0  0
   59.7270   29.1980   45.4480 C   0  0  0  0  0  0  0  0  0  0  0  0
   61.0670   29.7690   45.8020 C   0  0  0  0  0  0  0  0  0  0  0  0
   58.6120   29.9250   45.2210 N   0  0  0  0  0  0  0  0  0  0  0  0
   58.5450   31.3620   45.2340 C   0  0  0  0  0  0  0  0  0  0  0  0
   58.0090   32.0510   44.1370 C   0  0  0  0  0  0  0  0  0  0  0  0
   57.9980   33.4470   44.1230 C   0  0  0  0  0  0  0  0  0  0  0  0
   58.5440   34.1650   45.1910 C   0  0  0  0  0  0  0  0  0  0  0  0
   59.1030   33.4880   46.2900 C   0  0  0  0  0  0  0  0  0  0  0  0
   59.7070   34.2570   47.4050 C   0  0  0  0  0  0  0  0  0  0  0  0
   59.1890   35.3560   47.7460 O   0  0  0  0  0  0  0  0  0  0  0  0
   60.8500   33.7640   48.1290 N   0  0  0  0  0  0  0  0  0  0  0  0
   61.9860   33.1310   47.4470 C   0  0  0  0  0  0  0  0  0  0  0  0
   62.3510   31.8000   48.1380 C   0  0  0  0  0  0  0  0  0  0  0  0
   61.6380   31.6430   49.4270 N   0  0  0  0  0  0  0  0  0  0  0  0
   62.0700   30.4300   50.1500 C   0  0  0  0  0  0  0  0  0  0  0  0
   60.8830   29.4620   50.2360 C   0  0  0  0  0  0  0  0  0  0  0  0
   60.6000   28.7250   48.9350 C   0  0  0  0  0  0  0  0  0  0  0  0
   59.6480   29.8090   49.4180 C   0  0  0  0  0  0  0  0  0  0  0  0
   61.7610   32.8670   50.2400 C   0  0  0  0  0  0  0  0  0  0  0  0
   60.9500   33.9920   49.5760 C   0  0  0  0  0  0  0  0  0  0  0  0
   59.0660   32.0820   46.3180 C   0  0  0  0  0  0  0  0  0  0  0  0
  1  2  2  0
  2  3  1  0
  3  4  2  3
  4  5  1  0
  5  6  1  0
  6  7  1  0
  7  8  2  0
  7  9  1  0
  9 10  1  0
 10 11  1  0
  3 12  1  0
 12 13  2  0
 13 14  1  0
 13 15  1  0
 15 16  1  0
 16 17  2  0
 17 18  1  0
 18 19  2  0
 19 20  1  0
 20 21  1  0
 21 22  2  0
 21 23  1  0
 23 24  1  0
 24 25  1  0
 25 26  1  0
 26 27  1  0
 27 28  1  0
 28 29  1  0
 29 30  1  0
 26 31  1  0
 31 32  1  0
 20 33  2  0
 15  2  1  0
 33 16  1  0
 10  5  2  0
 32 23  1  0
 30 28  1  0
M  CHG  3   6  -1   9  -1  11  -1
M  END
>  <UniqueID>  (2931) 
77

>  <SMILES>  (2931) 
C=c1c(=Cc2[n-]c(=O)[n-]c2[O-])cc(C)n1-c1cccc(C(=O)N2CCN(CC3CC3)CC2)c1

>  <Energy>  (2931) 
410.24855210611054

>  <Genealogy>  (2931) 
C=c1c(=Cc2[n-]c(=O)[n-]c2[O-])cc(C)n1-c1cccc(C(=O)N2CCN(CC3CC3)CC2)c1 (protonated)
C=c1c(=Cc2[n-]c(=O)[n-]c2[O-])cc(C)n1-c1cccc(C(=O)N2CCN(CC3CC3)CC2)c1 (3D coordinates assigned)
C=c1c(=Cc2[n-]c(=O)[n-]c2[O-])cc(C)n1-c1cccc(C(=O)N2CCN(CC3CC3)CC2)c1 (nonaromatic ring conformer: 410.24855210611054 kcal/mol)

>  <smiles>  (2931) 
C=c1c(=Cc2[nH]c(=O)[nH]c2O)cc(C)n1-c1cccc(C(=O)N2CCN(CC3CC3)CC2)c1

>  <score_type>  (2931) 
oracle

>  <origin>  (2931) 
adg

>  <m_score__min__energy>  (2931) 
-17.260000000000002

>  <m_primary>  (2931) 
energy

$$$$
84:0
     RDKit          3D

 27 29  0  0  0  0  0  0  0  0999 V2000
   60.1230   26.6360   48.0940 C   0  0  0  0  0  0  0  0  0  0  0  0
   59.7620   27.8990   47.8110 C   0  0  0  0  0  0  0  0  0  0  0  0
   58.9510   28.3130   46.7460 C   0  0  0  0  0  0  0  0  0  0  0  0
   58.4000   27.5280   45.7930 C   0  0  0  0  0  0  0  0  0  0  0  0
   57.1780   26.7080   45.9500 C   0  0  0  0  0  0  0  0  0  0  0  0
   57.1250   25.4380   46.3890 N   0  0  0  0  0  0  0  0  0  0  0  0
   55.8050   25.1540   46.3890 C   0  0  0  0  0  0  0  0  0  0  0  0
   55.3520   24.0330   46.7390 O   0  0  0  0  0  0  0  0  0  0  0  0
   55.0100   26.1660   45.9850 N   0  0  0  0  0  0  0  0  0  0  0  0
   55.8930   27.1380   45.7090 C   0  0  0  0  0  0  0  0  0  0  0  0
   55.5330   28.3960   45.2430 O   0  0  0  0  0  0  0  0  0  0  0  0
   58.8180   29.6890   46.8810 C   0  0  0  0  0  0  0  0  0  0  0  0
   59.5550   30.0600   47.9880 C   0  0  0  0  0  0  0  0  0  0  0  0
   59.6170   31.4370   48.5190 C   0  0  0  0  0  0  0  0  0  0  0  0
   59.7600   31.5990   49.7610 O   0  0  0  0  0  0  0  0  0  0  0  0
   59.4900   32.5860   47.6540 N   0  0  0  0  0  0  0  0  0  0  0  0
   58.9430   33.8230   48.2460 C   0  0  0  0  0  0  0  0  0  0  0  0
   58.9010   35.0450   47.3060 C   0  0  0  0  0  0  0  0  0  0  0  0
   58.9190   34.7020   45.8790 N   0  0  0  0  0  0  0  0  0  0  0  0
   57.6220   34.4680   45.1970 C   0  0  0  0  0  0  0  0  0  0  0  0
   57.5260   33.1760   44.3670 C   0  0  0  0  0  0  0  0  0  0  0  0
   56.9560   32.1450   45.1420 O   0  0  0  0  0  0  0  0  0  0  0  0
   56.9950   30.9370   44.4200 C   0  0  0  0  0  0  0  0  0  0  0  0
   60.0170   33.7970   45.5330 C   0  0  0  0  0  0  0  0  0  0  0  0
   59.8910   32.4580   46.2440 C   0  0  0  0  0  0  0  0  0  0  0  0
   60.1360   28.9760   48.5510 N   0  0  0  0  0  0  0  0  0  0  0  0
   60.9960   28.9670   49.7400 C   0  0  0  0  0  0  0  0  0  0  0  0
  1  2  2  0
  2  3  1  0
  3  4  2  3
  4  5  1  0
  5  6  1  0
  6  7  1  0
  7  8  2  0
  7  9  1  0
  9 10  1  0
 10 11  1  0
  3 12  1  0
 12 13  2  0
 13 14  1  0
 14 15  2  0
 14 16  1  0
 16 17  1  0
 17 18  1  0
 18 19  1  0
 19 20  1  0
 20 21  1  0
 21 22  1  0
 22 23  1  0
 19 24  1  0
 24 25  1  0
 13 26  1  0
 26 27  1  0
 26  2  1  0
 10  5  2  0
 25 16  1  0
M  CHG  3   6  -1   9  -1  11  -1
M  END
>  <UniqueID>  (2932) 
82

>  <SMILES>  (2932) 
C=c1c(=Cc2[n-]c(=O)[n-]c2[O-])cc(C(=O)N2CCN(CCOC)CC2)n1C

>  <Energy>  (2932) 
130.10929822330448

>  <Genealogy>  (2932) 
C=c1c(=Cc2[n-]c(=O)[n-]c2[O-])cc(C(=O)N2CCN(CCOC)CC2)n1C (protonated)
C=c1c(=Cc2[n-]c(=O)[n-]c2[O-])cc(C(=O)N2CCN(CCOC)CC2)n1C (3D coordinates assigned)
C=c1c(=Cc2[n-]c(=O)[n-]c2[O-])cc(C(=O)N2CCN(CCOC)CC2)n1C (nonaromatic ring conformer: 130.10929822330448 kcal/mol)

>  <smiles>  (2932) 
C=c1c(=Cc2[nH]c(=O)[nH]c2O)cc(C(=O)N2CCN(CCOC)CC2)n1C

>  <score_type>  (2932) 
oracle

>  <origin>  (2932) 
adg

>  <m_score__min__energy>  (2932) 
-16.77

>  <m_primary>  (2932) 
energy

$$$$
6:0
     RDKit          3D

 30 33  0  0  0  0  0  0  0  0999 V2000
   51.2290   33.1120   51.6340 O   0  0  0  0  0  0  0  0  0  0  0  0
   51.4980   32.0210   50.8150 C   0  0  0  0  0  0  0  0  0  0  0  0
   50.7450   31.6680   49.7590 N   0  0  0  0  0  0  0  0  0  0  0  0
   51.3990   30.5910   49.2770 C   0  0  0  0  0  0  0  0  0  0  0  0
   51.0030   29.9550   48.2660 O   0  0  0  0  0  0  0  0  0  0  0  0
   52.5130   30.2520   49.9600 N   0  0  0  0  0  0  0  0  0  0  0  0
   52.5550   31.1560   50.9550 C   0  0  0  0  0  0  0  0  0  0  0  0
   53.6390   31.2710   51.9470 C   0  0  0  0  0  0  0  0  0  0  0  0
   54.3580   30.2400   52.4570 C   0  0  0  0  0  0  0  0  0  0  0  0
   55.7690   30.2360   52.6890 C   0  0  0  0  0  0  0  0  0  0  0  0
   56.7470   31.2140   52.1600 C   0  0  0  0  0  0  0  0  0  0  0  0
   56.9990   32.4070   52.8550 C   0  0  0  0  0  0  0  0  0  0  0  0
   57.9350   33.3200   52.3660 C   0  0  0  0  0  0  0  0  0  0  0  0
   58.6400   33.0420   51.1930 C   0  0  0  0  0  0  0  0  0  0  0  0
   58.4210   31.8460   50.5000 C   0  0  0  0  0  0  0  0  0  0  0  0
   59.1800   31.5930   49.3100 N   0  0  0  0  0  0  0  0  0  0  0  0
   60.0890   32.7820   48.4320 S   0  0  0  0  0  0  0  0  0  0  0  0
   60.4380   33.9130   49.3590 O   0  0  0  0  0  0  0  0  0  0  0  0
   61.3560   32.1570   47.9220 O   0  0  0  0  0  0  0  0  0  0  0  0
   59.1510   33.3680   47.0620 C   0  0  0  0  0  0  0  0  0  0  0  0
   57.7940   33.0360   46.9500 C   0  0  0  0  0  0  0  0  0  0  0  0
   57.0380   33.5230   45.8790 C   0  0  0  0  0  0  0  0  0  0  0  0
   57.6340   34.3420   44.9160 C   0  0  0  0  0  0  0  0  0  0  0  0
   58.9880   34.6730   45.0210 C   0  0  0  0  0  0  0  0  0  0  0  0
   59.7470   34.1860   46.0900 C   0  0  0  0  0  0  0  0  0  0  0  0
   57.4740   30.9300   50.9920 C   0  0  0  0  0  0  0  0  0  0  0  0
   56.2310   29.0710   53.2970 C   0  0  0  0  0  0  0  0  0  0  0  0
   54.9500   28.0170   53.4930 S   0  0  0  0  0  0  0  0  0  0  0  0
   53.7700   29.0130   52.8370 C   0  0  0  0  0  0  0  0  0  0  0  0
   52.4860   28.6450   52.7590 C   0  0  0  0  0  0  0  0  0  0  0  0
  1  2  1  0
  2  3  1  0
  3  4  1  0
  4  5  2  0
  4  6  1  0
  6  7  1  0
  7  8  1  0
  8  9  2  0
  9 10  1  0
 10 11  1  0
 11 12  2  0
 12 13  1  0
 13 14  2  0
 14 15  1  0
 15 16  1  0
 16 17  1  0
 17 18  2  0
 17 19  2  0
 17 20  1  0
 20 21  2  0
 21 22  1  0
 22 23  2  0
 23 24  1  0
 24 25  2  0
 15 26  2  0
 10 27  2  0
 27 28  1  0
 28 29  1  0
 29 30  2  0
  7  2  2  0
 29  9  1  0
 26 11  1  0
 25 20  1  0
M  CHG  3   3  -1   6  -1  16  -1
M  END
>  <UniqueID>  (2933) 
7

>  <SMILES>  (2933) 
C=c1scc(-c2cccc([N-]S(=O)(=O)c3ccccc3)c2)/c1=C\c1[n-]c(=O)[n-]c1O

>  <Energy>  (2933) 
122.18466570865218

>  <Genealogy>  (2933) 
C=c1scc(-c2cccc([N-]S(=O)(=O)c3ccccc3)c2)c1=Cc1[n-]c(=O)[n-]c1O (protonated)
C=c1scc(-c2cccc([N-]S(=O)(=O)c3ccccc3)c2)/c1=C\c1[n-]c(=O)[n-]c1O (cis-trans isomerization)
C=c1scc(-c2cccc([N-]S(=O)(=O)c3ccccc3)c2)/c1=C\c1[n-]c(=O)[n-]c1O (3D coordinates assigned)
C=c1scc(-c2cccc([N-]S(=O)(=O)c3ccccc3)c2)/c1=C\c1[n-]c(=O)[n-]c1O (optimized conformer: 122.18466570865218 kcal/mol)

>  <smiles>  (2933) 
C=c1scc(-c2cccc(NS(=O)(=O)c3ccccc3)c2)c1=Cc1[nH]c(=O)[nH]c1O

>  <score_type>  (2933) 
oracle

>  <origin>  (2933) 
adg

>  <m_score__min__energy>  (2933) 
-15.720000000000001

>  <m_primary>  (2933) 
energy

$$$$
12:0
     RDKit          3D

 36 39  0  0  0  0  0  0  0  0999 V2000
   57.0220   23.7710   47.5940 C   0  0  0  0  0  0  0  0  0  0  0  0
   57.6080   24.8680   47.0880 C   0  0  0  0  0  0  0  0  0  0  0  0
   58.3730   25.6530   47.9730 C   0  0  0  0  0  0  0  0  0  0  0  0
   59.2490   26.6210   47.4950 C   0  0  0  0  0  0  0  0  0  0  0  0
   59.3960   26.8220   46.1200 C   0  0  0  0  0  0  0  0  0  0  0  0
   60.3630   27.8550   45.6030 C   0  0  0  0  0  0  0  0  0  0  0  0
   59.9100   28.4450   44.2610 C   0  0  0  0  0  0  0  0  0  0  0  0
   58.7790   29.4260   44.4310 C   0  0  0  0  0  0  0  0  0  0  0  0
   58.9510   30.5800   45.2070 C   0  0  0  0  0  0  0  0  0  0  0  0
   57.8730   31.4590   45.3950 C   0  0  0  0  0  0  0  0  0  0  0  0
   57.9740   32.6750   46.2260 C   0  0  0  0  0  0  0  0  0  0  0  0
   57.1260   33.5860   46.0300 O   0  0  0  0  0  0  0  0  0  0  0  0
   59.0850   32.9210   47.1170 N   0  0  0  0  0  0  0  0  0  0  0  0
   59.7160   31.8340   47.8780 C   0  0  0  0  0  0  0  0  0  0  0  0
   60.7620   32.3550   48.8750 C   0  0  0  0  0  0  0  0  0  0  0  0
   61.6410   33.3520   48.2470 N   0  0  0  0  0  0  0  0  0  0  0  0
   63.0290   33.4870   48.6290 C   0  0  0  0  0  0  0  0  0  0  0  0
   63.8100   34.1670   47.9080 O   0  0  0  0  0  0  0  0  0  0  0  0
   63.5870   32.8500   49.8740 C   0  0  0  0  0  0  0  0  0  0  0  0
   65.1000   32.6910   49.7790 C   0  0  0  0  0  0  0  0  0  0  0  0
   61.0730   34.3430   47.3220 C   0  0  0  0  0  0  0  0  0  0  0  0
   59.5450   34.3010   47.3180 C   0  0  0  0  0  0  0  0  0  0  0  0
   56.6600   31.1460   44.8640 N   0  0  0  0  0  0  0  0  0  0  0  0
   56.4580   30.0300   44.1170 C   0  0  0  0  0  0  0  0  0  0  0  0
   55.0910   29.7220   43.5910 C   0  0  0  0  0  0  0  0  0  0  0  0
   57.5180   29.1470   43.8880 C   0  0  0  0  0  0  0  0  0  0  0  0
   58.5780   26.1150   45.2300 C   0  0  0  0  0  0  0  0  0  0  0  0
   57.6180   25.1890   45.6910 C   0  0  0  0  0  0  0  0  0  0  0  0
   56.7560   24.6960   44.7650 C   0  0  0  0  0  0  0  0  0  0  0  0
   55.3000   24.5070   44.9380 C   0  0  0  0  0  0  0  0  0  0  0  0
   54.6310   23.3700   44.6730 N   0  0  0  0  0  0  0  0  0  0  0  0
   53.3730   23.6440   45.0800 C   0  0  0  0  0  0  0  0  0  0  0  0
   52.4290   22.8150   44.9780 O   0  0  0  0  0  0  0  0  0  0  0  0
   53.2080   24.8680   45.6220 N   0  0  0  0  0  0  0  0  0  0  0  0
   54.4400   25.3990   45.5330 C   0  0  0  0  0  0  0  0  0  0  0  0
   54.7740   26.6640   45.9970 O   0  0  0  0  0  0  0  0  0  0  0  0
  1  2  2  0
  2  3  1  0
  3  4  2  0
  4  5  1  0
  5  6  1  0
  6  7  1  0
  7  8  1  0
  8  9  2  0
  9 10  1  0
 10 11  1  0
 11 12  2  0
 11 13  1  0
 13 14  1  0
 14 15  1  0
 15 16  1  0
 16 17  1  0
 17 18  2  0
 17 19  1  0
 19 20  1  0
 16 21  1  0
 21 22  1  0
 10 23  2  0
 23 24  1  0
 24 25  1  0
 24 26  2  0
  5 27  2  0
 27 28  1  0
 28 29  2  0
 29 30  1  0
 30 31  1  0
 31 32  1  0
 32 33  2  0
 32 34  1  0
 34 35  1  0
 35 36  1  0
 28  2  1  0
 35 30  2  0
 26  8  1  0
 22 13  1  0
M  CHG  3  31  -1  34  -1  36  -1
M  END
>  <UniqueID>  (2934) 
13

>  <SMILES>  (2934) 
C=c1ccc(CCc2cc(C)nc(C(=O)N3CCN(C(=O)CC)CC3)c2)c/c1=C/c1[n-]c(=O)[n-]c1[O-]

>  <Energy>  (2934) 
117.6399598635768

>  <Genealogy>  (2934) 
C=c1ccc(CCc2cc(C)nc(C(=O)N3CCN(C(=O)CC)CC3)c2)cc1=Cc1[n-]c(=O)[n-]c1[O-] (protonated)
C=c1ccc(CCc2cc(C)nc(C(=O)N3CCN(C(=O)CC)CC3)c2)c/c1=C/c1[n-]c(=O)[n-]c1[O-] (cis-trans isomerization)
C=c1ccc(CCc2cc(C)nc(C(=O)N3CCN(C(=O)CC)CC3)c2)c/c1=C/c1[n-]c(=O)[n-]c1[O-] (3D coordinates assigned)
C=c1ccc(CCc2cc(C)nc(C(=O)N3CCN(C(=O)CC)CC3)c2)c/c1=C/c1[n-]c(=O)[n-]c1[O-] (nonaromatic ring conformer: 117.6399598635768 kcal/mol)

>  <smiles>  (2934) 
C=c1ccc(CCc2cc(C)nc(C(=O)N3CCN(C(=O)CC)CC3)c2)cc1=Cc1[nH]c(=O)[nH]c1O

>  <score_type>  (2934) 
oracle

>  <origin>  (2934) 
adg

>  <m_score__min__energy>  (2934) 
-20.829999999999998

>  <m_primary>  (2934) 
energy

$$$$
17:0
     RDKit          3D

 27 29  0  0  0  0  0  0  0  0999 V2000
   54.1520   28.1540   53.4490 C   0  0  0  0  0  0  0  0  0  0  0  0
   54.6450   29.2310   52.8130 C   0  0  0  0  0  0  0  0  0  0  0  0
   53.9080   30.3190   52.3190 C   0  0  0  0  0  0  0  0  0  0  0  0
   52.5810   30.4860   52.1480 C   0  0  0  0  0  0  0  0  0  0  0  0
   51.9210   30.9050   50.9020 C   0  0  0  0  0  0  0  0  0  0  0  0
   51.7950   30.1080   49.8260 N   0  0  0  0  0  0  0  0  0  0  0  0
   51.0310   30.8390   48.9850 C   0  0  0  0  0  0  0  0  0  0  0  0
   50.7000   30.4300   47.8420 O   0  0  0  0  0  0  0  0  0  0  0  0
   50.6360   32.0360   49.4710 N   0  0  0  0  0  0  0  0  0  0  0  0
   51.1960   32.0560   50.6910 C   0  0  0  0  0  0  0  0  0  0  0  0
   51.0230   33.0900   51.6020 O   0  0  0  0  0  0  0  0  0  0  0  0
   54.8300   31.2970   52.0000 C   0  0  0  0  0  0  0  0  0  0  0  0
   56.0830   30.7710   52.2440 C   0  0  0  0  0  0  0  0  0  0  0  0
   57.3360   31.5360   52.0720 C   0  0  0  0  0  0  0  0  0  0  0  0
   57.9140   32.0540   53.0650 O   0  0  0  0  0  0  0  0  0  0  0  0
   57.8700   31.7240   50.7530 N   0  0  0  0  0  0  0  0  0  0  0  0
   59.2640   32.0360   50.4290 C   0  0  0  0  0  0  0  0  0  0  0  0
   60.0120   30.7900   49.8850 C   0  0  0  0  0  0  0  0  0  0  0  0
   60.6330   31.0120   48.4990 C   0  0  0  0  0  0  0  0  0  0  0  0
   61.3870   32.2760   48.4700 N   0  0  0  0  0  0  0  0  0  0  0  0
   62.6640   32.3450   47.7970 C   0  0  0  0  0  0  0  0  0  0  0  0
   63.5280   33.5670   47.8870 C   0  0  0  0  0  0  0  0  0  0  0  0
   63.0670   31.3730   47.1030 O   0  0  0  0  0  0  0  0  0  0  0  0
   60.7850   33.4970   49.0350 C   0  0  0  0  0  0  0  0  0  0  0  0
   59.3440   33.2600   49.4980 C   0  0  0  0  0  0  0  0  0  0  0  0
   55.9750   29.4980   52.7020 N   0  0  0  0  0  0  0  0  0  0  0  0
   57.0860   28.6110   53.0680 C   0  0  0  0  0  0  0  0  0  0  0  0
  1  2  2  0
  2  3  1  0
  3  4  2  3
  4  5  1  0
  5  6  1  0
  6  7  1  0
  7  8  2  0
  7  9  1  0
  9 10  1  0
 10 11  1  0
  3 12  1  0
 12 13  2  0
 13 14  1  0
 14 15  2  0
 14 16  1  0
 16 17  1  0
 17 18  1  0
 18 19  1  0
 19 20  1  0
 20 21  1  0
 21 22  1  0
 21 23  2  0
 20 24  1  0
 24 25  1  0
 13 26  1  0
 26 27  1  0
 26  2  1  0
 10  5  2  0
 25 17  1  0
M  CHG  4   6  -1   9  -1  11  -1  16  -1
M  END
>  <UniqueID>  (2935) 
18

>  <SMILES>  (2935) 
C=c1c(=Cc2[n-]c(=O)[n-]c2[O-])cc(C(=O)[N-]C2CCN(C(C)=O)CC2)n1C

>  <Energy>  (2935) 
119.8702299962448

>  <Genealogy>  (2935) 
C=c1c(=Cc2[n-]c(=O)[n-]c2[O-])cc(C(=O)[N-]C2CCN(C(C)=O)CC2)n1C (protonated)
C=c1c(=Cc2[n-]c(=O)[n-]c2[O-])cc(C(=O)[N-]C2CCN(C(C)=O)CC2)n1C (3D coordinates assigned)
C=c1c(=Cc2[n-]c(=O)[n-]c2[O-])cc(C(=O)[N-]C2CCN(C(C)=O)CC2)n1C (nonaromatic ring conformer: 119.8702299962448 kcal/mol)

>  <smiles>  (2935) 
C=c1c(=Cc2[nH]c(=O)[nH]c2O)cc(C(=O)NC2CCN(C(C)=O)CC2)n1C

>  <score_type>  (2935) 
oracle

>  <origin>  (2935) 
adg

>  <m_score__min__energy>  (2935) 
-18.210000000000001

>  <m_primary>  (2935) 
energy

$$$$
19:0
     RDKit          3D

 34 37  0  0  0  0  0  0  0  0999 V2000
   57.5450   29.3490   44.2450 C   0  0  0  0  0  0  0  0  0  0  0  0
   57.9800   28.2250   44.8180 C   0  0  0  0  0  0  0  0  0  0  0  0
   57.2440   27.1000   44.8870 N   0  0  0  0  0  0  0  0  0  0  0  0
   57.9750   26.1760   45.5460 C   0  0  0  0  0  0  0  0  0  0  0  0
   57.5110   24.9290   45.7510 C   0  0  0  0  0  0  0  0  0  0  0  0
   56.1650   24.4540   45.3810 C   0  0  0  0  0  0  0  0  0  0  0  0
   55.0300   25.2340   45.6450 C   0  0  0  0  0  0  0  0  0  0  0  0
   55.1580   26.4940   46.2280 O   0  0  0  0  0  0  0  0  0  0  0  0
   53.7960   24.7580   45.3320 N   0  0  0  0  0  0  0  0  0  0  0  0
   53.6370   23.5270   44.7820 C   0  0  0  0  0  0  0  0  0  0  0  0
   52.4850   23.1100   44.4990 O   0  0  0  0  0  0  0  0  0  0  0  0
   54.7210   22.7440   44.5420 N   0  0  0  0  0  0  0  0  0  0  0  0
   55.9750   23.1750   44.8350 C   0  0  0  0  0  0  0  0  0  0  0  0
   56.9590   22.4200   44.6070 O   0  0  0  0  0  0  0  0  0  0  0  0
   59.2020   26.7340   45.9330 C   0  0  0  0  0  0  0  0  0  0  0  0
   60.3320   26.0760   46.6760 C   0  0  0  0  0  0  0  0  0  0  0  0
   59.2030   28.0370   45.4470 C   0  0  0  0  0  0  0  0  0  0  0  0
   60.2920   29.0280   45.5700 C   0  0  0  0  0  0  0  0  0  0  0  0
   61.1680   29.0930   44.6650 O   0  0  0  0  0  0  0  0  0  0  0  0
   60.3620   29.9210   46.6980 N   0  0  0  0  0  0  0  0  0  0  0  0
   59.1400   30.3150   47.4120 C   0  0  0  0  0  0  0  0  0  0  0  0
   59.2720   31.7500   47.9230 C   0  0  0  0  0  0  0  0  0  0  0  0
   60.5150   31.8940   48.7050 N   0  0  0  0  0  0  0  0  0  0  0  0
   60.6010   33.2300   49.3280 C   0  0  0  0  0  0  0  0  0  0  0  0
   59.3420   34.0170   49.0760 C   0  0  0  0  0  0  0  0  0  0  0  0
   59.1820   34.8450   48.0350 C   0  0  0  0  0  0  0  0  0  0  0  0
   58.7380   34.3890   46.7080 C   0  0  0  0  0  0  0  0  0  0  0  0
   57.4530   33.8460   46.5390 C   0  0  0  0  0  0  0  0  0  0  0  0
   57.0300   33.4310   45.2740 C   0  0  0  0  0  0  0  0  0  0  0  0
   57.8890   33.5430   44.1750 C   0  0  0  0  0  0  0  0  0  0  0  0
   59.1760   34.0640   44.3440 C   0  0  0  0  0  0  0  0  0  0  0  0
   59.6020   34.4830   45.6090 C   0  0  0  0  0  0  0  0  0  0  0  0
   61.6860   31.6490   47.8420 C   0  0  0  0  0  0  0  0  0  0  0  0
   61.6580   30.2110   47.3190 C   0  0  0  0  0  0  0  0  0  0  0  0
  1  2  2  0
  2  3  1  0
  3  4  1  0
  4  5  2  3
  5  6  1  0
  6  7  2  0
  7  8  1  0
  7  9  1  0
  9 10  1  0
 10 11  2  0
 10 12  1  0
 12 13  1  0
 13 14  2  0
  4 15  1  0
 15 16  1  0
 15 17  2  0
 17 18  1  0
 18 19  2  0
 18 20  1  0
 20 21  1  0
 21 22  1  0
 22 23  1  0
 23 24  1  0
 24 25  1  0
 25 26  2  3
 26 27  1  0
 27 28  2  0
 28 29  1  0
 29 30  2  0
 30 31  1  0
 31 32  2  0
 23 33  1  0
 33 34  1  0
 17  2  1  0
 34 20  1  0
 13  6  1  0
 32 27  1  0
M  CHG  2   9  -1  12  -1
M  END
>  <UniqueID>  (2936) 
20

>  <SMILES>  (2936) 
C=c1[nH]c(=Cc2c(O)[n-]c(=O)[n-]c2=O)c(C)c1C(=O)N1CCN(CC=Cc2ccccc2)CC1

>  <Energy>  (2936) 
111.18656642878803

>  <Genealogy>  (2936) 
C=c1[nH]c(=Cc2c(O)[n-]c(=O)[n-]c2=O)c(C)c1C(=O)N1CCN(CC=Cc2ccccc2)CC1 (protonated)
C=c1[nH]c(=Cc2c(O)[n-]c(=O)[n-]c2=O)c(C)c1C(=O)N1CCN(CC=Cc2ccccc2)CC1 (3D coordinates assigned)
C=c1[nH]c(=Cc2c(O)[n-]c(=O)[n-]c2=O)c(C)c1C(=O)N1CCN(CC=Cc2ccccc2)CC1 (nonaromatic ring conformer: 111.18656642878803 kcal/mol)

>  <smiles>  (2936) 
C=c1[nH]c(=Cc2c(O)[nH]c(=O)[nH]c2=O)c(C)c1C(=O)N1CCN(CC=Cc2ccccc2)CC1

>  <score_type>  (2936) 
oracle

>  <origin>  (2936) 
adg

>  <m_score__min__energy>  (2936) 
-14.699999999999999

>  <m_primary>  (2936) 
energy

$$$$
36:0
     RDKit          3D

 31 34  0  0  0  0  0  0  0  0999 V2000
   54.3670   28.3390   53.4010 C   0  0  0  0  0  0  0  0  0  0  0  0
   54.7070   29.5530   52.9340 C   0  0  0  0  0  0  0  0  0  0  0  0
   53.8350   30.4670   52.3320 C   0  0  0  0  0  0  0  0  0  0  0  0
   52.5280   30.2900   52.0510 C   0  0  0  0  0  0  0  0  0  0  0  0
   51.8710   30.7950   50.8320 C   0  0  0  0  0  0  0  0  0  0  0  0
   51.7420   30.0670   49.7090 N   0  0  0  0  0  0  0  0  0  0  0  0
   51.0200   30.8670   48.8960 C   0  0  0  0  0  0  0  0  0  0  0  0
   50.7010   30.5330   47.7250 O   0  0  0  0  0  0  0  0  0  0  0  0
   50.6580   32.0490   49.4390 N   0  0  0  0  0  0  0  0  0  0  0  0
   51.1930   31.9830   50.6690 C   0  0  0  0  0  0  0  0  0  0  0  0
   51.0220   32.9690   51.6330 O   0  0  0  0  0  0  0  0  0  0  0  0
   54.5960   31.5810   52.0150 C   0  0  0  0  0  0  0  0  0  0  0  0
   55.8810   31.3200   52.4430 C   0  0  0  0  0  0  0  0  0  0  0  0
   57.0310   32.2630   52.2450 C   0  0  0  0  0  0  0  0  0  0  0  0
   55.9610   30.0820   52.9930 N   0  0  0  0  0  0  0  0  0  0  0  0
   57.1940   29.4470   53.4970 C   0  0  0  0  0  0  0  0  0  0  0  0
   58.4480   29.9800   52.7780 C   0  0  0  0  0  0  0  0  0  0  0  0
   59.0980   28.9750   51.8030 C   0  0  0  0  0  0  0  0  0  0  0  0
   58.9980   29.3810   50.3770 N   0  0  0  0  0  0  0  0  0  0  0  0
   59.0720   30.8560   50.2740 C   0  0  0  0  0  0  0  0  0  0  0  0
   58.8720   31.3360   48.8180 C   0  0  0  0  0  0  0  0  0  0  0  0
   59.0480   30.2270   47.8590 N   0  0  0  0  0  0  0  0  0  0  0  0
   58.9880   30.6620   46.4460 C   0  0  0  0  0  0  0  0  0  0  0  0
   59.0670   32.1630   46.2570 C   0  0  0  0  0  0  0  0  0  0  0  0
   57.9560   32.8800   45.7810 C   0  0  0  0  0  0  0  0  0  0  0  0
   58.0320   34.2650   45.6010 C   0  0  0  0  0  0  0  0  0  0  0  0
   59.2200   34.9430   45.8870 C   0  0  0  0  0  0  0  0  0  0  0  0
   60.3340   34.2370   46.3490 C   0  0  0  0  0  0  0  0  0  0  0  0
   60.2610   32.8530   46.5310 C   0  0  0  0  0  0  0  0  0  0  0  0
   60.2420   29.4340   48.1830 C   0  0  0  0  0  0  0  0  0  0  0  0
   60.0590   28.7440   49.5520 C   0  0  0  0  0  0  0  0  0  0  0  0
  1  2  2  0
  2  3  1  0
  3  4  2  0
  4  5  1  0
  5  6  1  0
  6  7  1  0
  7  8  2  0
  7  9  1  0
  9 10  1  0
 10 11  1  0
  3 12  1  0
 12 13  2  0
 13 14  1  0
 13 15  1  0
 15 16  1  0
 16 17  1  0
 17 18  1  0
 18 19  1  0
 19 20  1  0
 20 21  1  0
 21 22  1  0
 22 23  1  0
 23 24  1  0
 24 25  2  0
 25 26  1  0
 26 27  2  0
 27 28  1  0
 28 29  2  0
 22 30  1  0
 30 31  1  0
 15  2  1  0
 31 19  1  0
 10  5  2  0
 29 24  1  0
M  CHG  4   6  -1   9  -1  11  -1  19   1
M  END
>  <UniqueID>  (2937) 
37

>  <SMILES>  (2937) 
C=c1/c(=C/c2[n-]c(=O)[n-]c2[O-])cc(C)n1CCC[NH+]1CCN(Cc2ccccc2)CC1

>  <Energy>  (2937) 
138.62039083001002

>  <Genealogy>  (2937) 
C=c1c(=Cc2[n-]c(=O)[n-]c2[O-])cc(C)n1CCC[NH+]1CCN(Cc2ccccc2)CC1 (protonated)
C=c1/c(=C/c2[n-]c(=O)[n-]c2[O-])cc(C)n1CCC[NH+]1CCN(Cc2ccccc2)CC1 (cis-trans isomerization)
C=c1/c(=C/c2[n-]c(=O)[n-]c2[O-])cc(C)n1CCC[NH+]1CCN(Cc2ccccc2)CC1 (3D coordinates assigned)
C=c1/c(=C/c2[n-]c(=O)[n-]c2[O-])cc(C)n1CCC[NH+]1CCN(Cc2ccccc2)CC1 (nonaromatic ring conformer: 138.62039083001002 kcal/mol)

>  <smiles>  (2937) 
C=c1c(=Cc2[nH]c(=O)[nH]c2O)cc(C)n1CCCN1CCN(Cc2ccccc2)CC1

>  <score_type>  (2937) 
oracle

>  <origin>  (2937) 
adg

>  <m_score__min__energy>  (2937) 
-16.879999999999999

>  <m_primary>  (2937) 
energy

$$$$
53:0
     RDKit          3D

 30 32  0  0  0  0  0  0  0  0999 V2000
   53.5620   27.9250   53.2360 C   0  0  0  0  0  0  0  0  0  0  0  0
   54.3610   28.9610   52.8900 C   0  0  0  0  0  0  0  0  0  0  0  0
   53.8370   30.1910   52.3660 C   0  0  0  0  0  0  0  0  0  0  0  0
   52.5020   30.4550   52.2930 C   0  0  0  0  0  0  0  0  0  0  0  0
   51.7690   30.8270   51.0670 C   0  0  0  0  0  0  0  0  0  0  0  0
   51.7620   30.0760   49.9520 N   0  0  0  0  0  0  0  0  0  0  0  0
   51.0750   30.8310   49.0670 C   0  0  0  0  0  0  0  0  0  0  0  0
   50.8400   30.4530   47.8900 O   0  0  0  0  0  0  0  0  0  0  0  0
   50.6670   32.0280   49.5410 N   0  0  0  0  0  0  0  0  0  0  0  0
   51.1260   32.0170   50.8030 C   0  0  0  0  0  0  0  0  0  0  0  0
   50.9900   33.0860   51.6810 O   0  0  0  0  0  0  0  0  0  0  0  0
   54.7620   31.1800   51.9700 C   0  0  0  0  0  0  0  0  0  0  0  0
   56.1350   30.9910   52.1090 C   0  0  0  0  0  0  0  0  0  0  0  0
   57.0880   32.0750   51.6580 C   0  0  0  0  0  0  0  0  0  0  0  0
   58.0660   31.5350   50.6200 C   0  0  0  0  0  0  0  0  0  0  0  0
   56.6010   29.7820   52.6320 C   0  0  0  0  0  0  0  0  0  0  0  0
   57.8420   29.6020   52.7780 O   0  0  0  0  0  0  0  0  0  0  0  0
   55.7270   28.8000   52.9980 N   0  0  0  0  0  0  0  0  0  0  0  0
   56.2430   27.6220   53.5130 O   0  0  0  0  0  0  0  0  0  0  0  0
   56.9090   27.5910   54.7700 C   0  0  0  0  0  0  0  0  0  0  0  0
   58.3100   27.1100   54.5740 C   0  0  0  0  0  0  0  0  0  0  0  0
   58.8950   26.5040   55.5120 O   0  0  0  0  0  0  0  0  0  0  0  0
   58.9590   27.3030   53.3070 N   0  0  0  0  0  0  0  0  0  0  0  0
   60.3590   27.0730   53.0730 C   0  0  0  0  0  0  0  0  0  0  0  0
   60.8060   25.7690   52.8090 C   0  0  0  0  0  0  0  0  0  0  0  0
   62.1590   25.5220   52.5550 C   0  0  0  0  0  0  0  0  0  0  0  0
   63.0740   26.5770   52.5460 C   0  0  0  0  0  0  0  0  0  0  0  0
   64.9210   26.2390   52.1940 Br  0  0  0  0  0  0  0  0  0  0  0  0
   62.6350   27.8840   52.7840 C   0  0  0  0  0  0  0  0  0  0  0  0
   61.2830   28.1340   53.0390 C   0  0  0  0  0  0  0  0  0  0  0  0
  1  2  2  0
  2  3  1  0
  3  4  2  3
  4  5  1  0
  5  6  1  0
  6  7  1  0
  7  8  2  0
  7  9  1  0
  9 10  1  0
 10 11  1  0
  3 12  1  0
 12 13  2  0
 13 14  1  0
 14 15  1  0
 13 16  1  0
 16 17  2  0
 16 18  1  0
 18 19  1  0
 19 20  1  0
 20 21  1  0
 21 22  2  0
 21 23  1  0
 23 24  1  0
 24 25  2  0
 25 26  1  0
 26 27  2  0
 27 28  1  0
 27 29  1  0
 29 30  2  0
 18  2  1  0
 30 24  1  0
 10  5  2  0
M  CHG  3   6  -1   9  -1  11  -1
M  END
>  <UniqueID>  (2938) 
54

>  <SMILES>  (2938) 
C=c1c(=Cc2[n-]c(=O)[n-]c2[O-])cc(CC)c(=O)n1OCC(=O)Nc1ccc(Br)cc1

>  <Energy>  (2938) 
103.36469518066583

>  <Genealogy>  (2938) 
C=c1c(=Cc2[n-]c(=O)[n-]c2[O-])cc(CC)c(=O)n1OCC(=O)Nc1ccc(Br)cc1 (protonated)
C=c1c(=Cc2[n-]c(=O)[n-]c2[O-])cc(CC)c(=O)n1OCC(=O)Nc1ccc(Br)cc1 (3D coordinates assigned)
C=c1c(=Cc2[n-]c(=O)[n-]c2[O-])cc(CC)c(=O)n1OCC(=O)Nc1ccc(Br)cc1 (optimized conformer: 103.36469518066583 kcal/mol)

>  <smiles>  (2938) 
C=c1c(=Cc2[nH]c(=O)[nH]c2O)cc(CC)c(=O)n1OCC(=O)Nc1ccc(Br)cc1

>  <score_type>  (2938) 
oracle

>  <origin>  (2938) 
adg

>  <m_score__min__energy>  (2938) 
-17.25

>  <m_primary>  (2938) 
energy

$$$$
58:0
     RDKit          3D

 26 28  0  0  0  0  0  0  0  0999 V2000
   60.6090   30.5350   46.7400 C   0  0  0  0  0  0  0  0  0  0  0  0
   59.4280   30.2790   46.1350 C   0  0  0  0  0  0  0  0  0  0  0  0
   59.0870   28.9440   45.8070 C   0  0  0  0  0  0  0  0  0  0  0  0
   59.8990   28.0070   46.0460 O   0  0  0  0  0  0  0  0  0  0  0  0
   57.8430   28.6860   45.1830 C   0  0  0  0  0  0  0  0  0  0  0  0
   57.4000   27.4580   44.8400 C   0  0  0  0  0  0  0  0  0  0  0  0
   57.2510   26.3030   45.7510 C   0  0  0  0  0  0  0  0  0  0  0  0
   56.0000   25.9560   46.2870 C   0  0  0  0  0  0  0  0  0  0  0  0
   54.8700   26.7140   46.0010 O   0  0  0  0  0  0  0  0  0  0  0  0
   55.8850   24.8660   47.0890 N   0  0  0  0  0  0  0  0  0  0  0  0
   56.9620   24.0890   47.3720 C   0  0  0  0  0  0  0  0  0  0  0  0
   56.8330   23.0860   48.1210 O   0  0  0  0  0  0  0  0  0  0  0  0
   58.1760   24.3900   46.8460 N   0  0  0  0  0  0  0  0  0  0  0  0
   58.3440   25.4700   46.0390 C   0  0  0  0  0  0  0  0  0  0  0  0
   59.4830   25.7170   45.5620 O   0  0  0  0  0  0  0  0  0  0  0  0
   57.0410   29.7380   44.8840 N   0  0  0  0  0  0  0  0  0  0  0  0
   57.3700   31.0160   45.1870 C   0  0  0  0  0  0  0  0  0  0  0  0
   56.5660   31.9390   44.8810 O   0  0  0  0  0  0  0  0  0  0  0  0
   58.5510   31.2980   45.8200 N   0  0  0  0  0  0  0  0  0  0  0  0
   58.8420   32.6750   46.1360 C   0  0  0  0  0  0  0  0  0  0  0  0
   58.9600   33.0770   47.4750 C   0  0  0  0  0  0  0  0  0  0  0  0
   59.2400   34.4110   47.7840 C   0  0  0  0  0  0  0  0  0  0  0  0
   59.4060   35.3480   46.7600 C   0  0  0  0  0  0  0  0  0  0  0  0
   59.2920   34.9510   45.4240 C   0  0  0  0  0  0  0  0  0  0  0  0
   59.0110   33.6180   45.1090 C   0  0  0  0  0  0  0  0  0  0  0  0
   58.9030   33.2400   43.8110 F   0  0  0  0  0  0  0  0  0  0  0  0
  1  2  2  0
  2  3  1  0
  3  4  2  0
  3  5  1  0
  5  6  2  3
  6  7  1  0
  7  8  2  0
  8  9  1  0
  8 10  1  0
 10 11  1  0
 11 12  2  0
 11 13  1  0
 13 14  1  0
 14 15  2  0
  5 16  1  0
 16 17  1  0
 17 18  2  0
 17 19  1  0
 19 20  1  0
 20 21  2  0
 21 22  1  0
 22 23  2  0
 23 24  1  0
 24 25  2  0
 25 26  1  0
 19  2  1  0
 25 20  1  0
 14  7  1  0
M  CHG  4   9  -1  10  -1  13  -1  16  -1
M  END
>  <UniqueID>  (2939) 
58

>  <SMILES>  (2939) 
C=c1c(=O)c(=Cc2c([O-])[n-]c(=O)[n-]c2=O)[n-]c(=O)n1-c1ccccc1F

>  <Energy>  (2939) 
67.64744971767024

>  <Genealogy>  (2939) 
C=c1c(=O)c(=Cc2c([O-])[n-]c(=O)[n-]c2=O)[n-]c(=O)n1-c1ccccc1F (protonated)
C=c1c(=O)c(=Cc2c([O-])[n-]c(=O)[n-]c2=O)[n-]c(=O)n1-c1ccccc1F (3D coordinates assigned)
C=c1c(=O)c(=Cc2c([O-])[n-]c(=O)[n-]c2=O)[n-]c(=O)n1-c1ccccc1F (optimized conformer: 67.64744971767024 kcal/mol)

>  <smiles>  (2939) 
C=c1c(=O)c(=Cc2c(O)[nH]c(=O)[nH]c2=O)[nH]c(=O)n1-c1ccccc1F

>  <score_type>  (2939) 
oracle

>  <origin>  (2939) 
adg

>  <m_score__min__energy>  (2939) 
-17.149999999999999

>  <m_primary>  (2939) 
energy

$$$$
73:0
     RDKit          3D

 31 34  0  0  0  0  0  0  0  0999 V2000
   53.6060   28.3010   53.9630 C   0  0  0  0  0  0  0  0  0  0  0  0
   54.2650   29.2570   53.2870 C   0  0  0  0  0  0  0  0  0  0  0  0
   53.6860   30.2440   52.4730 C   0  0  0  0  0  0  0  0  0  0  0  0
   52.3650   30.4470   52.2630 C   0  0  0  0  0  0  0  0  0  0  0  0
   51.7390   30.8350   50.9790 C   0  0  0  0  0  0  0  0  0  0  0  0
   51.6650   30.0800   49.8690 N   0  0  0  0  0  0  0  0  0  0  0  0
   51.0180   30.8710   48.9880 C   0  0  0  0  0  0  0  0  0  0  0  0
   50.7560   30.5030   47.8140 O   0  0  0  0  0  0  0  0  0  0  0  0
   50.6720   32.0840   49.4650 N   0  0  0  0  0  0  0  0  0  0  0  0
   51.1360   32.0450   50.7240 C   0  0  0  0  0  0  0  0  0  0  0  0
   51.0120   33.0980   51.6230 O   0  0  0  0  0  0  0  0  0  0  0  0
   54.7450   30.9640   51.9340 C   0  0  0  0  0  0  0  0  0  0  0  0
   55.9020   30.4030   52.4290 C   0  0  0  0  0  0  0  0  0  0  0  0
   57.2590   30.8360   52.0300 C   0  0  0  0  0  0  0  0  0  0  0  0
   57.9480   31.4700   52.8770 O   0  0  0  0  0  0  0  0  0  0  0  0
   57.7990   30.6140   50.6990 N   0  0  0  0  0  0  0  0  0  0  0  0
   58.0450   31.9140   50.0160 C   0  0  0  0  0  0  0  0  0  0  0  0
   59.1940   31.8740   48.9880 C   0  0  0  0  0  0  0  0  0  0  0  0
   59.3110   30.5430   48.3840 N   0  0  0  0  0  0  0  0  0  0  0  0
   59.6510   30.3980   46.9940 C   0  0  0  0  0  0  0  0  0  0  0  0
   60.5930   29.6290   46.6620 O   0  0  0  0  0  0  0  0  0  0  0  0
   58.9030   31.1090   45.9410 C   0  0  0  0  0  0  0  0  0  0  0  0
   58.4560   32.4180   46.0040 C   0  0  0  0  0  0  0  0  0  0  0  0
   57.7570   32.6470   44.8360 C   0  0  0  0  0  0  0  0  0  0  0  0
   57.8120   31.4690   44.1120 C   0  0  0  0  0  0  0  0  0  0  0  0
   57.1120   31.2160   42.8190 C   0  0  0  0  0  0  0  0  0  0  0  0
   58.4930   30.5300   44.7950 N   0  0  0  0  0  0  0  0  0  0  0  0
   59.3800   29.3670   49.2590 C   0  0  0  0  0  0  0  0  0  0  0  0
   58.9860   29.7280   50.6970 C   0  0  0  0  0  0  0  0  0  0  0  0
   55.6180   29.3870   53.2750 N   0  0  0  0  0  0  0  0  0  0  0  0
   56.6070   28.6040   54.0250 C   0  0  0  0  0  0  0  0  0  0  0  0
  1  2  2  0
  2  3  1  0
  3  4  2  0
  4  5  1  0
  5  6  1  0
  6  7  1  0
  7  8  2  0
  7  9  1  0
  9 10  1  0
 10 11  1  0
  3 12  1  0
 12 13  2  0
 13 14  1  0
 14 15  2  0
 14 16  1  0
 16 17  1  0
 17 18  1  0
 18 19  1  0
 19 20  1  0
 20 21  2  0
 20 22  1  0
 22 23  2  0
 23 24  1  0
 24 25  2  0
 25 26  1  0
 25 27  1  0
 19 28  1  0
 28 29  1  0
 13 30  1  0
 30 31  1  0
 30  2  1  0
 10  5  2  0
 29 16  1  0
 27 22  1  0
M  CHG  4   6  -1   9  -1  11  -1  16   1
M  END
>  <UniqueID>  (2940) 
72

>  <SMILES>  (2940) 
C=c1/c(=C/c2[n-]c(=O)[n-]c2[O-])cc(C(=O)[NH+]2CCN(C(=O)c3ccc(C)[nH]3)CC2)n1C

>  <Energy>  (2940) 
163.07534078309624

>  <Genealogy>  (2940) 
C=c1c(=Cc2[n-]c(=O)[n-]c2[O-])cc(C(=O)[NH+]2CCN(C(=O)c3ccc(C)[nH]3)CC2)n1C (protonated)
C=c1/c(=C/c2[n-]c(=O)[n-]c2[O-])cc(C(=O)[NH+]2CCN(C(=O)c3ccc(C)[nH]3)CC2)n1C (cis-trans isomerization)
C=c1/c(=C/c2[n-]c(=O)[n-]c2[O-])cc(C(=O)[NH+]2CCN(C(=O)c3ccc(C)[nH]3)CC2)n1C (3D coordinates assigned)
C=c1/c(=C/c2[n-]c(=O)[n-]c2[O-])cc(C(=O)[NH+]2CCN(C(=O)c3ccc(C)[nH]3)CC2)n1C (nonaromatic ring conformer: 163.07534078309624 kcal/mol)

>  <smiles>  (2940) 
C=c1c(=Cc2[nH]c(=O)[nH]c2O)cc(C(=O)N2CCN(C(=O)c3ccc(C)[nH]3)CC2)n1C

>  <score_type>  (2940) 
oracle

>  <origin>  (2940) 
adg

>  <m_score__min__energy>  (2940) 
-16.899999999999999

>  <m_primary>  (2940) 
energy

$$$$
79:0
     RDKit          3D

 36 39  0  0  0  0  0  0  0  0999 V2000
   60.3260   27.5680   45.9460 C   0  0  0  0  0  0  0  0  0  0  0  0
   59.2920   28.3550   45.5960 C   0  0  0  0  0  0  0  0  0  0  0  0
   58.0890   27.9100   45.0340 C   0  0  0  0  0  0  0  0  0  0  0  0
   57.7660   26.6510   44.6800 C   0  0  0  0  0  0  0  0  0  0  0  0
   57.1740   25.6580   45.5960 C   0  0  0  0  0  0  0  0  0  0  0  0
   57.8480   24.5950   46.0650 N   0  0  0  0  0  0  0  0  0  0  0  0
   56.9730   24.0180   46.9170 C   0  0  0  0  0  0  0  0  0  0  0  0
   57.2420   22.9680   47.5550 O   0  0  0  0  0  0  0  0  0  0  0  0
   55.7930   24.6630   47.0400 N   0  0  0  0  0  0  0  0  0  0  0  0
   55.9400   25.7070   46.2080 C   0  0  0  0  0  0  0  0  0  0  0  0
   54.9870   26.7090   46.0490 O   0  0  0  0  0  0  0  0  0  0  0  0
   57.3030   29.0360   44.8540 C   0  0  0  0  0  0  0  0  0  0  0  0
   58.0330   30.1080   45.3210 C   0  0  0  0  0  0  0  0  0  0  0  0
   57.5470   31.5260   45.2870 C   0  0  0  0  0  0  0  0  0  0  0  0
   59.2550   29.7080   45.7520 N   0  0  0  0  0  0  0  0  0  0  0  0
   60.2860   30.5980   46.3170 C   0  0  0  0  0  0  0  0  0  0  0  0
   59.8230   31.2390   47.6100 C   0  0  0  0  0  0  0  0  0  0  0  0
   59.2290   30.4300   48.5980 C   0  0  0  0  0  0  0  0  0  0  0  0
   58.7480   30.9900   49.7830 C   0  0  0  0  0  0  0  0  0  0  0  0
   58.8510   32.3620   50.0010 C   0  0  0  0  0  0  0  0  0  0  0  0
   59.4490   33.1790   49.0410 C   0  0  0  0  0  0  0  0  0  0  0  0
   59.9580   32.6290   47.8560 C   0  0  0  0  0  0  0  0  0  0  0  0
   60.6300   33.5300   46.9050 C   0  0  0  0  0  0  0  0  0  0  0  0
   60.0570   34.5990   46.5660 O   0  0  0  0  0  0  0  0  0  0  0  0
   61.9390   33.2470   46.3960 N   0  0  0  0  0  0  0  0  0  0  0  0
   63.1870   33.4370   47.1310 C   0  0  0  0  0  0  0  0  0  0  0  0
   62.9730   33.2450   48.6090 C   0  0  0  0  0  0  0  0  0  0  0  0
   62.9690   34.3490   49.4780 C   0  0  0  0  0  0  0  0  0  0  0  0
   62.7950   34.1620   50.8520 C   0  0  0  0  0  0  0  0  0  0  0  0
   62.6180   32.8760   51.3680 C   0  0  0  0  0  0  0  0  0  0  0  0
   62.6140   31.7670   50.5110 C   0  0  0  0  0  0  0  0  0  0  0  0
   62.3720   30.1510   51.1650 S   0  0  0  0  0  0  0  0  0  0  0  0
   63.9420   29.4660   51.6380 C   0  0  0  0  0  0  0  0  0  0  0  0
   61.4720   30.2120   52.3680 O   0  0  0  0  0  0  0  0  0  0  0  0
   61.7300   29.2750   50.1260 O   0  0  0  0  0  0  0  0  0  0  0  0
   62.7830   31.9550   49.1310 C   0  0  0  0  0  0  0  0  0  0  0  0
  1  2  2  0
  2  3  1  0
  3  4  2  3
  4  5  1  0
  5  6  1  0
  6  7  1  0
  7  8  2  0
  7  9  1  0
  9 10  1  0
 10 11  1  0
  3 12  1  0
 12 13  2  0
 13 14  1  0
 13 15  1  0
 15 16  1  0
 16 17  1  0
 17 18  2  0
 18 19  1  0
 19 20  2  0
 20 21  1  0
 21 22  2  0
 22 23  1  0
 23 24  2  0
 23 25  1  0
 25 26  1  0
 26 27  1  0
 27 28  2  0
 28 29  1  0
 29 30  2  0
 30 31  1  0
 31 32  1  0
 32 33  1  0
 32 34  2  0
 32 35  2  0
 31 36  2  0
 15  2  1  0
 22 17  1  0
 36 27  1  0
 10  5  2  0
M  CHG  3   6  -1   9  -1  25  -1
M  END
>  <UniqueID>  (2941) 
78

>  <SMILES>  (2941) 
C=c1c(=Cc2[n-]c(=O)[n-]c2O)cc(C)n1Cc1ccccc1C(=O)[N-]Cc1cccc(S(C)(=O)=O)c1

>  <Energy>  (2941) 
128.07856287232897

>  <Genealogy>  (2941) 
C=c1c(=Cc2[n-]c(=O)[n-]c2O)cc(C)n1Cc1ccccc1C(=O)[N-]Cc1cccc(S(C)(=O)=O)c1 (protonated)
C=c1c(=Cc2[n-]c(=O)[n-]c2O)cc(C)n1Cc1ccccc1C(=O)[N-]Cc1cccc(S(C)(=O)=O)c1 (3D coordinates assigned)
C=c1c(=Cc2[n-]c(=O)[n-]c2O)cc(C)n1Cc1ccccc1C(=O)[N-]Cc1cccc(S(C)(=O)=O)c1 (optimized conformer: 128.07856287232897 kcal/mol)

>  <smiles>  (2941) 
C=c1c(=Cc2[nH]c(=O)[nH]c2O)cc(C)n1Cc1ccccc1C(=O)NCc1cccc(S(C)(=O)=O)c1

>  <score_type>  (2941) 
oracle

>  <origin>  (2941) 
adg

>  <m_score__min__energy>  (2941) 
-16.5

>  <m_primary>  (2941) 
energy

$$$$
6:0
     RDKit          3D

 36 39  0  0  0  0  0  0  0  0999 V2000
   59.8650   29.8340   47.0370 C   0  0  0  0  0  0  0  0  0  0  0  0
   59.0540   30.3470   46.0970 C   0  0  0  0  0  0  0  0  0  0  0  0
   58.3150   29.6430   45.1300 C   0  0  0  0  0  0  0  0  0  0  0  0
   58.3270   28.3410   44.7780 C   0  0  0  0  0  0  0  0  0  0  0  0
   57.5560   27.2660   45.4340 C   0  0  0  0  0  0  0  0  0  0  0  0
   56.1730   27.4010   45.6200 C   0  0  0  0  0  0  0  0  0  0  0  0
   55.5220   28.5690   45.2360 O   0  0  0  0  0  0  0  0  0  0  0  0
   55.4620   26.3890   46.1860 N   0  0  0  0  0  0  0  0  0  0  0  0
   56.0700   25.2320   46.5610 C   0  0  0  0  0  0  0  0  0  0  0  0
   55.3980   24.3070   47.0870 O   0  0  0  0  0  0  0  0  0  0  0  0
   57.4030   25.0680   46.3630 N   0  0  0  0  0  0  0  0  0  0  0  0
   58.1540   26.0480   45.8000 C   0  0  0  0  0  0  0  0  0  0  0  0
   59.3830   25.8500   45.6050 O   0  0  0  0  0  0  0  0  0  0  0  0
   57.4880   30.5740   44.5230 C   0  0  0  0  0  0  0  0  0  0  0  0
   57.7830   31.8010   45.0820 C   0  0  0  0  0  0  0  0  0  0  0  0
   57.1050   33.0870   44.7150 C   0  0  0  0  0  0  0  0  0  0  0  0
   58.7280   31.6640   46.0380 N   0  0  0  0  0  0  0  0  0  0  0  0
   59.2240   32.7180   46.8830 C   0  0  0  0  0  0  0  0  0  0  0  0
   59.8780   33.8190   46.3120 C   0  0  0  0  0  0  0  0  0  0  0  0
   60.3660   34.8460   47.1240 C   0  0  0  0  0  0  0  0  0  0  0  0
   60.2050   34.7800   48.5110 C   0  0  0  0  0  0  0  0  0  0  0  0
   59.5590   33.6840   49.0910 C   0  0  0  0  0  0  0  0  0  0  0  0
   59.0680   32.6400   48.2800 C   0  0  0  0  0  0  0  0  0  0  0  0
   58.4310   31.5130   48.8180 O   0  0  0  0  0  0  0  0  0  0  0  0
   58.4530   31.1410   50.1940 C   0  0  0  0  0  0  0  0  0  0  0  0
   59.3910   30.1100   50.3840 O   0  0  0  0  0  0  0  0  0  0  0  0
   60.7990   30.7480   51.0900 S   0  0  0  0  0  0  0  0  0  0  0  0
   60.6750   32.2430   51.1330 O   0  0  0  0  0  0  0  0  0  0  0  0
   60.9780   30.2410   52.4950 O   0  0  0  0  0  0  0  0  0  0  0  0
   62.2270   30.3080   50.1100 C   0  0  0  0  0  0  0  0  0  0  0  0
   62.7010   31.4970   49.3210 C   0  0  0  0  0  0  0  0  0  0  0  0
   62.5510   31.5270   47.9240 C   0  0  0  0  0  0  0  0  0  0  0  0
   62.9620   32.6470   47.1940 C   0  0  0  0  0  0  0  0  0  0  0  0
   63.5240   33.7440   47.8540 C   0  0  0  0  0  0  0  0  0  0  0  0
   63.6770   33.7230   49.2440 C   0  0  0  0  0  0  0  0  0  0  0  0
   63.2610   32.6060   49.9780 C   0  0  0  0  0  0  0  0  0  0  0  0
  1  2  2  0
  2  3  1  0
  3  4  2  0
  4  5  1  0
  5  6  2  0
  6  7  1  0
  6  8  1  0
  8  9  1  0
  9 10  2  0
  9 11  1  0
 11 12  1  0
 12 13  2  0
  3 14  1  0
 14 15  2  0
 15 16  1  0
 15 17  1  0
 17 18  1  0
 18 19  2  0
 19 20  1  0
 20 21  2  0
 21 22  1  0
 22 23  2  0
 23 24  1  0
 24 25  1  0
 25 26  1  0
 26 27  1  0
 27 28  2  0
 27 29  2  0
 27 30  1  0
 30 31  1  0
 31 32  2  0
 32 33  1  0
 33 34  2  0
 34 35  1  0
 35 36  2  0
 17  2  1  0
 23 18  1  0
 36 31  1  0
 12  5  1  0
M  CHG  2   7  -1  11  -1
M  END
>  <UniqueID>  (2942) 
7

>  <SMILES>  (2942) 
C=c1/c(=C\c2c([O-])[nH]c(=O)[n-]c2=O)cc(C)n1-c1ccccc1OCOS(=O)(=O)Cc1ccccc1

>  <Energy>  (2942) 
106.51271457811373

>  <Genealogy>  (2942) 
C=c1c(=Cc2c([O-])[nH]c(=O)[n-]c2=O)cc(C)n1-c1ccccc1OCOS(=O)(=O)Cc1ccccc1 (protonated)
C=c1/c(=C\c2c([O-])[nH]c(=O)[n-]c2=O)cc(C)n1-c1ccccc1OCOS(=O)(=O)Cc1ccccc1 (cis-trans isomerization)
C=c1/c(=C\c2c([O-])[nH]c(=O)[n-]c2=O)cc(C)n1-c1ccccc1OCOS(=O)(=O)Cc1ccccc1 (3D coordinates assigned)
C=c1/c(=C\c2c([O-])[nH]c(=O)[n-]c2=O)cc(C)n1-c1ccccc1OCOS(=O)(=O)Cc1ccccc1 (optimized conformer: 106.51271457811373 kcal/mol)

>  <smiles>  (2942) 
C=c1c(=Cc2c(O)[nH]c(=O)[nH]c2=O)cc(C)n1-c1ccccc1OCOS(=O)(=O)Cc1ccccc1

>  <score_type>  (2942) 
oracle

>  <origin>  (2942) 
adg

>  <m_score__min__energy>  (2942) 
-14.9

>  <m_primary>  (2942) 
energy

$$$$
14:0
     RDKit          3D

 27 29  0  0  0  0  0  0  0  0999 V2000
   56.8480   29.2670   43.0850 C   0  0  0  0  0  0  0  0  0  0  0  0
   57.5010   29.4260   44.2470 C   0  0  0  0  0  0  0  0  0  0  0  0
   57.9330   28.4120   45.1160 C   0  0  0  0  0  0  0  0  0  0  0  0
   58.0270   27.0790   44.9420 C   0  0  0  0  0  0  0  0  0  0  0  0
   57.3870   26.0580   45.7880 C   0  0  0  0  0  0  0  0  0  0  0  0
   58.0250   25.0080   46.3390 N   0  0  0  0  0  0  0  0  0  0  0  0
   57.0800   24.4480   47.1270 C   0  0  0  0  0  0  0  0  0  0  0  0
   57.2930   23.4130   47.8090 O   0  0  0  0  0  0  0  0  0  0  0  0
   55.8920   25.0910   47.1320 N   0  0  0  0  0  0  0  0  0  0  0  0
   56.1090   26.1150   46.2910 C   0  0  0  0  0  0  0  0  0  0  0  0
   55.1620   27.0860   45.9930 O   0  0  0  0  0  0  0  0  0  0  0  0
   58.2940   29.0400   46.2940 C   0  0  0  0  0  0  0  0  0  0  0  0
   58.1430   30.3970   46.0900 C   0  0  0  0  0  0  0  0  0  0  0  0
   58.3810   31.4270   47.1220 C   0  0  0  0  0  0  0  0  0  0  0  0
   57.7670   32.5250   47.0350 O   0  0  0  0  0  0  0  0  0  0  0  0
   59.2980   31.2010   48.2140 N   0  0  0  0  0  0  0  0  0  0  0  0
   59.2470   32.0280   49.4250 C   0  0  0  0  0  0  0  0  0  0  0  0
   60.5840   32.7690   49.6330 C   0  0  0  0  0  0  0  0  0  0  0  0
   61.7550   32.0660   49.0360 N   0  0  0  0  0  0  0  0  0  0  0  0
   62.4410   32.7510   47.8850 C   0  0  0  0  0  0  0  0  0  0  0  0
   63.3160   33.9000   48.4410 C   0  0  0  0  0  0  0  0  0  0  0  0
   61.4470   33.3350   46.8490 C   0  0  0  0  0  0  0  0  0  0  0  0
   63.4010   31.7920   47.1380 C   0  0  0  0  0  0  0  0  0  0  0  0
   61.5650   30.5950   48.9880 C   0  0  0  0  0  0  0  0  0  0  0  0
   60.3730   30.2050   48.1040 C   0  0  0  0  0  0  0  0  0  0  0  0
   57.6840   30.6360   44.8390 N   0  0  0  0  0  0  0  0  0  0  0  0
   57.3710   31.9530   44.2710 C   0  0  0  0  0  0  0  0  0  0  0  0
  1  2  2  0
  2  3  1  0
  3  4  2  3
  4  5  1  0
  5  6  1  0
  6  7  1  0
  7  8  2  0
  7  9  1  0
  9 10  1  0
 10 11  1  0
  3 12  1  0
 12 13  2  0
 13 14  1  0
 14 15  2  0
 14 16  1  0
 16 17  1  0
 17 18  1  0
 18 19  1  0
 19 20  1  0
 20 21  1  0
 20 22  1  0
 20 23  1  0
 19 24  1  0
 24 25  1  0
 13 26  1  0
 26 27  1  0
 26  2  1  0
 10  5  2  0
 25 16  1  0
M  CHG  3   6  -1   9  -1  11  -1
M  END
>  <UniqueID>  (2943) 
14

>  <SMILES>  (2943) 
C=c1c(=Cc2[n-]c(=O)[n-]c2[O-])cc(C(=O)N2CCN(C(C)(C)C)CC2)n1C

>  <Energy>  (2943) 
142.0234578668855

>  <Genealogy>  (2943) 
C=c1c(=Cc2[n-]c(=O)[n-]c2[O-])cc(C(=O)N2CCN(C(C)(C)C)CC2)n1C (protonated)
C=c1c(=Cc2[n-]c(=O)[n-]c2[O-])cc(C(=O)N2CCN(C(C)(C)C)CC2)n1C (3D coordinates assigned)
C=c1c(=Cc2[n-]c(=O)[n-]c2[O-])cc(C(=O)N2CCN(C(C)(C)C)CC2)n1C (nonaromatic ring conformer: 142.0234578668855 kcal/mol)

>  <smiles>  (2943) 
C=c1c(=Cc2[nH]c(=O)[nH]c2O)cc(C(=O)N2CCN(C(C)(C)C)CC2)n1C

>  <score_type>  (2943) 
oracle

>  <origin>  (2943) 
adg

>  <m_score__min__energy>  (2943) 
-16.989999999999998

>  <m_primary>  (2943) 
energy

$$$$
20:0
     RDKit          3D

 28 30  0  0  0  0  0  0  0  0999 V2000
   59.6250   35.3420   46.7690 C   0  0  0  0  0  0  0  0  0  0  0  0
   58.8670   34.0820   46.7150 N   0  0  0  0  0  0  0  0  0  0  0  0
   57.7350   34.1710   45.7570 C   0  0  0  0  0  0  0  0  0  0  0  0
   58.0600   33.5200   44.4010 C   0  0  0  0  0  0  0  0  0  0  0  0
   58.4610   32.0990   44.5310 N   0  0  0  0  0  0  0  0  0  0  0  0
   57.1340   31.0280   44.1390 S   0  0  0  0  0  0  0  0  0  0  0  0
   56.8960   31.0590   42.6540 O   0  0  0  0  0  0  0  0  0  0  0  0
   55.8900   31.4830   44.8510 O   0  0  0  0  0  0  0  0  0  0  0  0
   57.5060   29.3800   44.6530 C   0  0  0  0  0  0  0  0  0  0  0  0
   58.8270   28.9160   44.6000 C   0  0  0  0  0  0  0  0  0  0  0  0
   59.1340   27.6130   44.9940 C   0  0  0  0  0  0  0  0  0  0  0  0
   58.1280   26.7650   45.4600 C   0  0  0  0  0  0  0  0  0  0  0  0
   56.8030   27.2260   45.5590 C   0  0  0  0  0  0  0  0  0  0  0  0
   55.7410   26.3790   46.0250 N   0  0  0  0  0  0  0  0  0  0  0  0
   55.8830   25.1400   46.7330 C   0  0  0  0  0  0  0  0  0  0  0  0
   56.4090   25.1130   47.8770 O   0  0  0  0  0  0  0  0  0  0  0  0
   55.4380   23.9110   46.1470 N   0  0  0  0  0  0  0  0  0  0  0  0
   56.1700   23.0930   45.2220 C   0  0  0  0  0  0  0  0  0  0  0  0
   55.8680   23.0810   43.8470 C   0  0  0  0  0  0  0  0  0  0  0  0
   56.5810   22.2500   42.9770 C   0  0  0  0  0  0  0  0  0  0  0  0
   57.5850   21.4150   43.4710 C   0  0  0  0  0  0  0  0  0  0  0  0
   57.8730   21.4020   44.8390 C   0  0  0  0  0  0  0  0  0  0  0  0
   57.1650   22.2340   45.7130 C   0  0  0  0  0  0  0  0  0  0  0  0
   57.4600   22.2080   47.0720 O   0  0  0  0  0  0  0  0  0  0  0  0
   56.4940   28.5310   45.1410 C   0  0  0  0  0  0  0  0  0  0  0  0
   55.1810   28.9850   45.2320 O   0  0  0  0  0  0  0  0  0  0  0  0
   59.0130   31.7550   45.8580 C   0  0  0  0  0  0  0  0  0  0  0  0
   59.7730   32.9410   46.4600 C   0  0  0  0  0  0  0  0  0  0  0  0
  1  2  1  0
  2  3  1  0
  3  4  1  0
  4  5  1  0
  5  6  1  0
  6  7  2  0
  6  8  2  0
  6  9  1  0
  9 10  2  0
 10 11  1  0
 11 12  2  0
 12 13  1  0
 13 14  1  0
 14 15  1  0
 15 16  2  0
 15 17  1  0
 17 18  1  0
 18 19  2  0
 19 20  1  0
 20 21  2  0
 21 22  1  0
 22 23  2  0
 23 24  1  0
 13 25  2  0
 25 26  1  0
  5 27  1  0
 27 28  1  0
 28  2  1  0
 25  9  1  0
 23 18  1  0
M  CHG  4  14  -1  17  -1  24  -1  26  -1
M  END
>  <UniqueID>  (2944) 
20

>  <SMILES>  (2944) 
CN1CCN(S(=O)(=O)c2cccc([N-]C(=O)[N-]c3ccccc3[O-])c2[O-])CC1

>  <Energy>  (2944) 
66.46162187161738

>  <Genealogy>  (2944) 
CN1CCN(S(=O)(=O)c2cccc([N-]C(=O)[N-]c3ccccc3[O-])c2[O-])CC1 (protonated)
CN1CCN(S(=O)(=O)c2cccc([N-]C(=O)[N-]c3ccccc3[O-])c2[O-])CC1 (3D coordinates assigned)
CN1CCN(S(=O)(=O)c2cccc([N-]C(=O)[N-]c3ccccc3[O-])c2[O-])CC1 (nonaromatic ring conformer: 66.46162187161738 kcal/mol)

>  <smiles>  (2944) 
CN1CCN(S(=O)(=O)c2cccc(NC(=O)Nc3ccccc3O)c2O)CC1

>  <score_type>  (2944) 
oracle

>  <origin>  (2944) 
adg

>  <m_score__min__energy>  (2944) 
-19.039999999999999

>  <m_primary>  (2944) 
energy

$$$$
38:0
     RDKit          3D

 31 34  0  0  0  0  0  0  0  0999 V2000
   56.2110   31.8640   52.3340 C   0  0  0  0  0  0  0  0  0  0  0  0
   55.5890   30.7140   52.6390 C   0  0  0  0  0  0  0  0  0  0  0  0
   54.2090   30.5120   52.7400 C   0  0  0  0  0  0  0  0  0  0  0  0
   53.2340   31.4070   52.4940 C   0  0  0  0  0  0  0  0  0  0  0  0
   52.3090   31.3220   51.3500 C   0  0  0  0  0  0  0  0  0  0  0  0
   52.3800   30.3590   50.4140 N   0  0  0  0  0  0  0  0  0  0  0  0
   51.4150   30.7070   49.5350 C   0  0  0  0  0  0  0  0  0  0  0  0
   51.1590   30.0270   48.5070 O   0  0  0  0  0  0  0  0  0  0  0  0
   50.7520   31.8430   49.8390 N   0  0  0  0  0  0  0  0  0  0  0  0
   51.3370   32.2280   50.9840 C   0  0  0  0  0  0  0  0  0  0  0  0
   51.0200   33.4040   51.6510 O   0  0  0  0  0  0  0  0  0  0  0  0
   54.0360   29.1780   53.0930 C   0  0  0  0  0  0  0  0  0  0  0  0
   55.2990   28.6310   53.2010 C   0  0  0  0  0  0  0  0  0  0  0  0
   55.5910   27.1960   53.5150 C   0  0  0  0  0  0  0  0  0  0  0  0
   56.2370   29.5570   52.9190 N   0  0  0  0  0  0  0  0  0  0  0  0
   57.6550   29.3330   52.9150 C   0  0  0  0  0  0  0  0  0  0  0  0
   58.1920   28.8110   53.9290 O   0  0  0  0  0  0  0  0  0  0  0  0
   58.4480   29.6750   51.7610 N   0  0  0  0  0  0  0  0  0  0  0  0
   59.9170   29.6210   51.8090 C   0  0  0  0  0  0  0  0  0  0  0  0
   60.4950   28.9460   50.5470 C   0  0  0  0  0  0  0  0  0  0  0  0
   59.5710   28.9740   49.3840 N   0  0  0  0  0  0  0  0  0  0  0  0
   60.3000   28.8080   48.1110 C   0  0  0  0  0  0  0  0  0  0  0  0
   59.3680   28.9860   46.9410 C   0  0  0  0  0  0  0  0  0  0  0  0
   59.6570   29.9190   45.9310 C   0  0  0  0  0  0  0  0  0  0  0  0
   58.8000   30.0580   44.8370 C   0  0  0  0  0  0  0  0  0  0  0  0
   57.6530   29.2650   44.7390 C   0  0  0  0  0  0  0  0  0  0  0  0
   57.3640   28.3280   45.7340 C   0  0  0  0  0  0  0  0  0  0  0  0
   56.2520   27.5560   45.6360 F   0  0  0  0  0  0  0  0  0  0  0  0
   58.2200   28.1850   46.8310 C   0  0  0  0  0  0  0  0  0  0  0  0
   58.7660   30.2070   49.3670 C   0  0  0  0  0  0  0  0  0  0  0  0
   57.7910   30.1730   50.5450 C   0  0  0  0  0  0  0  0  0  0  0  0
  1  2  2  0
  2  3  1  0
  3  4  2  0
  4  5  1  0
  5  6  1  0
  6  7  1  0
  7  8  2  0
  7  9  1  0
  9 10  1  0
 10 11  1  0
  3 12  1  0
 12 13  2  0
 13 14  1  0
 13 15  1  0
 15 16  1  0
 16 17  2  0
 16 18  1  0
 18 19  1  0
 19 20  1  0
 20 21  1  0
 21 22  1  0
 22 23  1  0
 23 24  2  0
 24 25  1  0
 25 26  2  0
 26 27  1  0
 27 28  1  0
 27 29  2  0
 21 30  1  0
 30 31  1  0
 15  2  1  0
 31 18  1  0
 10  5  2  0
 29 23  1  0
M  CHG  3   6  -1   9  -1  11  -1
M  END
>  <UniqueID>  (2945) 
35

>  <SMILES>  (2945) 
C=c1/c(=C/c2[n-]c(=O)[n-]c2[O-])cc(C)n1C(=O)N1CCN(Cc2cccc(F)c2)CC1

>  <Energy>  (2945) 
131.21276087210583

>  <Genealogy>  (2945) 
C=c1c(=Cc2[n-]c(=O)[n-]c2[O-])cc(C)n1C(=O)N1CCN(Cc2cccc(F)c2)CC1 (protonated)
C=c1/c(=C/c2[n-]c(=O)[n-]c2[O-])cc(C)n1C(=O)N1CCN(Cc2cccc(F)c2)CC1 (cis-trans isomerization)
C=c1/c(=C/c2[n-]c(=O)[n-]c2[O-])cc(C)n1C(=O)N1CCN(Cc2cccc(F)c2)CC1 (3D coordinates assigned)
C=c1/c(=C/c2[n-]c(=O)[n-]c2[O-])cc(C)n1C(=O)N1CCN(Cc2cccc(F)c2)CC1 (nonaromatic ring conformer: 131.21276087210583 kcal/mol)

>  <smiles>  (2945) 
C=c1c(=Cc2[nH]c(=O)[nH]c2O)cc(C)n1C(=O)N1CCN(Cc2cccc(F)c2)CC1

>  <score_type>  (2945) 
oracle

>  <origin>  (2945) 
adg

>  <m_score__min__energy>  (2945) 
-17.77

>  <m_primary>  (2945) 
energy

$$$$
45:0
     RDKit          3D

 33 36  0  0  0  0  0  0  0  0999 V2000
   65.9130   31.4240   50.8400 O   0  0  0  0  0  0  0  0  0  0  0  0
   65.1640   32.3490   51.5690 C   0  0  0  0  0  0  0  0  0  0  0  0
   65.3200   32.3940   52.9590 C   0  0  0  0  0  0  0  0  0  0  0  0
   64.5850   33.3040   53.7260 C   0  0  0  0  0  0  0  0  0  0  0  0
   64.7440   33.3390   55.0720 F   0  0  0  0  0  0  0  0  0  0  0  0
   63.6910   34.1800   53.1050 C   0  0  0  0  0  0  0  0  0  0  0  0
   63.5310   34.1480   51.7170 C   0  0  0  0  0  0  0  0  0  0  0  0
   64.2560   33.2310   50.9410 C   0  0  0  0  0  0  0  0  0  0  0  0
   64.0750   33.2340   49.4790 C   0  0  0  0  0  0  0  0  0  0  0  0
   65.1040   33.2080   48.7500 O   0  0  0  0  0  0  0  0  0  0  0  0
   62.7590   33.2840   48.8820 N   0  0  0  0  0  0  0  0  0  0  0  0
   62.6160   33.3460   47.4220 C   0  0  0  0  0  0  0  0  0  0  0  0
   61.3890   32.5480   46.9730 C   0  0  0  0  0  0  0  0  0  0  0  0
   60.1880   32.9440   47.7230 N   0  0  0  0  0  0  0  0  0  0  0  0
   58.8900   32.7570   47.1240 C   0  0  0  0  0  0  0  0  0  0  0  0
   57.9600   33.5690   47.3770 O   0  0  0  0  0  0  0  0  0  0  0  0
   58.6280   31.6280   46.2090 C   0  0  0  0  0  0  0  0  0  0  0  0
   58.8250   30.3000   46.5390 C   0  0  0  0  0  0  0  0  0  0  0  0
   58.4370   29.5500   45.4430 C   0  0  0  0  0  0  0  0  0  0  0  0
   58.5380   28.2070   45.4070 C   0  0  0  0  0  0  0  0  0  0  0  0
   57.4650   27.2640   45.7600 C   0  0  0  0  0  0  0  0  0  0  0  0
   57.6520   26.0900   46.3910 N   0  0  0  0  0  0  0  0  0  0  0  0
   56.3920   25.6310   46.5670 C   0  0  0  0  0  0  0  0  0  0  0  0
   56.1440   24.5290   47.1220 O   0  0  0  0  0  0  0  0  0  0  0  0
   55.4200   26.4490   46.1090 N   0  0  0  0  0  0  0  0  0  0  0  0
   56.1170   27.4840   45.6110 C   0  0  0  0  0  0  0  0  0  0  0  0
   55.5340   28.6030   45.0230 O   0  0  0  0  0  0  0  0  0  0  0  0
   57.9630   30.4680   44.4880 C   0  0  0  0  0  0  0  0  0  0  0  0
   57.3130   30.1860   43.3500 C   0  0  0  0  0  0  0  0  0  0  0  0
   58.1270   31.7330   44.9570 N   0  0  0  0  0  0  0  0  0  0  0  0
   57.7820   32.9790   44.2600 C   0  0  0  0  0  0  0  0  0  0  0  0
   60.3080   33.7510   48.9430 C   0  0  0  0  0  0  0  0  0  0  0  0
   61.5640   33.3670   49.7390 C   0  0  0  0  0  0  0  0  0  0  0  0
  1  2  1  0
  2  3  2  0
  3  4  1  0
  4  5  1  0
  4  6  2  0
  6  7  1  0
  7  8  2  0
  8  9  1  0
  9 10  2  0
  9 11  1  0
 11 12  1  0
 12 13  1  0
 13 14  1  0
 14 15  1  0
 15 16  2  0
 15 17  1  0
 17 18  2  0
 18 19  1  0
 19 20  2  0
 20 21  1  0
 21 22  1  0
 22 23  1  0
 23 24  2  0
 23 25  1  0
 25 26  1  0
 26 27  1  0
 19 28  1  0
 28 29  2  0
 28 30  1  0
 30 31  1  0
 14 32  1  0
 32 33  1  0
  8  2  1  0
 33 11  1  0
 30 17  1  0
 26 21  2  0
M  CHG  3  22  -1  25  -1  27  -1
M  END
>  <UniqueID>  (2946) 
41

>  <SMILES>  (2946) 
C=c1/c(=C\c2[n-]c(=O)[n-]c2[O-])cc(C(=O)N2CCN(C(=O)c3ccc(F)cc3O)CC2)n1C

>  <Energy>  (2946) 
138.21063613672678

>  <Genealogy>  (2946) 
C=c1c(=Cc2[n-]c(=O)[n-]c2[O-])cc(C(=O)N2CCN(C(=O)c3ccc(F)cc3O)CC2)n1C (protonated)
C=c1/c(=C\c2[n-]c(=O)[n-]c2[O-])cc(C(=O)N2CCN(C(=O)c3ccc(F)cc3O)CC2)n1C (cis-trans isomerization)
C=c1/c(=C\c2[n-]c(=O)[n-]c2[O-])cc(C(=O)N2CCN(C(=O)c3ccc(F)cc3O)CC2)n1C (3D coordinates assigned)
C=c1/c(=C\c2[n-]c(=O)[n-]c2[O-])cc(C(=O)N2CCN(C(=O)c3ccc(F)cc3O)CC2)n1C (nonaromatic ring conformer: 138.21063613672678 kcal/mol)

>  <smiles>  (2946) 
C=c1c(=Cc2[nH]c(=O)[nH]c2O)cc(C(=O)N2CCN(C(=O)c3ccc(F)cc3O)CC2)n1C

>  <score_type>  (2946) 
oracle

>  <origin>  (2946) 
adg

>  <m_score__min__energy>  (2946) 
-17.170000000000002

>  <m_primary>  (2946) 
energy

$$$$
46:0
     RDKit          3D

 25 27  0  0  0  0  0  0  0  0999 V2000
   58.4120   31.1330   47.1680 C   0  0  0  0  0  0  0  0  0  0  0  0
   58.2290   30.8670   45.8660 C   0  0  0  0  0  0  0  0  0  0  0  0
   58.2740   29.6060   45.2600 C   0  0  0  0  0  0  0  0  0  0  0  0
   58.5070   28.4220   45.8600 C   0  0  0  0  0  0  0  0  0  0  0  0
   57.5090   27.3410   45.9730 C   0  0  0  0  0  0  0  0  0  0  0  0
   57.7340   26.1100   46.4680 N   0  0  0  0  0  0  0  0  0  0  0  0
   56.5220   25.5200   46.4740 C   0  0  0  0  0  0  0  0  0  0  0  0
   56.3340   24.3430   46.8800 O   0  0  0  0  0  0  0  0  0  0  0  0
   55.5230   26.3070   46.0220 N   0  0  0  0  0  0  0  0  0  0  0  0
   56.1600   27.4550   45.7220 C   0  0  0  0  0  0  0  0  0  0  0  0
   55.5210   28.5870   45.2320 O   0  0  0  0  0  0  0  0  0  0  0  0
   57.9630   29.8070   43.9200 C   0  0  0  0  0  0  0  0  0  0  0  0
   57.7640   31.1640   43.7600 C   0  0  0  0  0  0  0  0  0  0  0  0
   57.3750   31.8270   42.4740 C   0  0  0  0  0  0  0  0  0  0  0  0
   57.9280   31.8070   44.9370 N   0  0  0  0  0  0  0  0  0  0  0  0
   57.8080   33.2250   45.1320 C   0  0  0  0  0  0  0  0  0  0  0  0
   56.6620   33.7410   45.2360 O   0  0  0  0  0  0  0  0  0  0  0  0
   59.0250   34.1050   45.0610 C   0  0  0  0  0  0  0  0  0  0  0  0
   59.8270   34.0590   46.3380 C   0  0  0  0  0  0  0  0  0  0  0  0
   61.1320   33.5400   46.3440 C   0  0  0  0  0  0  0  0  0  0  0  0
   61.8670   33.4920   47.5330 C   0  0  0  0  0  0  0  0  0  0  0  0
   61.3060   33.9630   48.7240 C   0  0  0  0  0  0  0  0  0  0  0  0
   62.2280   33.9010   50.2150 Cl  0  0  0  0  0  0  0  0  0  0  0  0
   60.0090   34.4860   48.7250 C   0  0  0  0  0  0  0  0  0  0  0  0
   59.2720   34.5370   47.5380 C   0  0  0  0  0  0  0  0  0  0  0  0
  1  2  2  0
  2  3  1  0
  3  4  2  3
  4  5  1  0
  5  6  1  0
  6  7  1  0
  7  8  2  0
  7  9  1  0
  9 10  1  0
 10 11  1  0
  3 12  1  0
 12 13  2  0
 13 14  1  0
 13 15  1  0
 15 16  1  0
 16 17  2  0
 16 18  1  0
 18 19  1  0
 19 20  2  0
 20 21  1  0
 21 22  2  0
 22 23  1  0
 22 24  1  0
 24 25  2  0
 15  2  1  0
 25 19  1  0
 10  5  2  0
M  CHG  2   9  -1  11  -1
M  END
>  <UniqueID>  (2947) 
42

>  <SMILES>  (2947) 
C=c1c(=Cc2[nH]c(=O)[n-]c2[O-])cc(C)n1C(=O)Cc1ccc(Cl)cc1

>  <Energy>  (2947) 
111.46297281396532

>  <Genealogy>  (2947) 
C=c1c(=Cc2[nH]c(=O)[n-]c2[O-])cc(C)n1C(=O)Cc1ccc(Cl)cc1 (protonated)
C=c1c(=Cc2[nH]c(=O)[n-]c2[O-])cc(C)n1C(=O)Cc1ccc(Cl)cc1 (3D coordinates assigned)
C=c1c(=Cc2[nH]c(=O)[n-]c2[O-])cc(C)n1C(=O)Cc1ccc(Cl)cc1 (optimized conformer: 111.46297281396532 kcal/mol)

>  <smiles>  (2947) 
C=c1c(=Cc2[nH]c(=O)[nH]c2O)cc(C)n1C(=O)Cc1ccc(Cl)cc1

>  <score_type>  (2947) 
oracle

>  <origin>  (2947) 
adg

>  <m_score__min__energy>  (2947) 
-14.109999999999999

>  <m_primary>  (2947) 
energy

$$$$
65:0
     RDKit          3D

 25 26  0  0  0  0  0  0  0  0999 V2000
   59.2940   34.4500   48.2190 C   0  0  0  0  0  0  0  0  0  0  0  0
   60.0820   34.3610   46.9870 N   0  0  0  0  0  0  0  0  0  0  0  0
   59.4880   34.7040   45.6920 C   0  0  0  0  0  0  0  0  0  0  0  0
   61.4520   33.9250   47.0480 C   0  0  0  0  0  0  0  0  0  0  0  0
   62.1380   33.8460   45.9910 O   0  0  0  0  0  0  0  0  0  0  0  0
   62.0430   33.5870   48.3100 N   0  0  0  0  0  0  0  0  0  0  0  0
   63.0330   32.5290   48.4900 C   0  0  0  0  0  0  0  0  0  0  0  0
   62.4070   31.3120   49.1670 C   0  0  0  0  0  0  0  0  0  0  0  0
   60.9960   31.3130   48.9660 O   0  0  0  0  0  0  0  0  0  0  0  0
   60.3400   30.6200   47.9370 C   0  0  0  0  0  0  0  0  0  0  0  0
   60.6370   29.2660   47.7540 C   0  0  0  0  0  0  0  0  0  0  0  0
   60.0110   28.5310   46.7440 C   0  0  0  0  0  0  0  0  0  0  0  0
   59.0760   29.1450   45.8960 C   0  0  0  0  0  0  0  0  0  0  0  0
   58.3750   28.3460   44.8290 C   0  0  0  0  0  0  0  0  0  0  0  0
   57.5210   27.2640   45.4500 C   0  0  0  0  0  0  0  0  0  0  0  0
   56.1360   27.4430   45.6230 C   0  0  0  0  0  0  0  0  0  0  0  0
   55.5220   28.6360   45.2620 O   0  0  0  0  0  0  0  0  0  0  0  0
   55.3820   26.4440   46.1520 N   0  0  0  0  0  0  0  0  0  0  0  0
   55.9390   25.2620   46.5180 C   0  0  0  0  0  0  0  0  0  0  0  0
   55.2210   24.3530   47.0060 O   0  0  0  0  0  0  0  0  0  0  0  0
   57.2710   25.0610   46.3550 N   0  0  0  0  0  0  0  0  0  0  0  0
   58.0710   26.0250   45.8320 C   0  0  0  0  0  0  0  0  0  0  0  0
   59.3020   25.7970   45.6960 O   0  0  0  0  0  0  0  0  0  0  0  0
   58.7720   30.5030   46.0800 C   0  0  0  0  0  0  0  0  0  0  0  0
   59.3990   31.2380   47.0910 C   0  0  0  0  0  0  0  0  0  0  0  0
  1  2  1  0
  2  3  1  0
  2  4  1  0
  4  5  2  0
  4  6  1  0
  6  7  1  0
  7  8  1  0
  8  9  1  0
  9 10  1  0
 10 11  2  0
 11 12  1  0
 12 13  2  0
 13 14  1  0
 14 15  1  0
 15 16  2  0
 16 17  1  0
 16 18  1  0
 18 19  1  0
 19 20  2  0
 19 21  1  0
 21 22  1  0
 22 23  2  0
 13 24  1  0
 24 25  2  0
 25 10  1  0
 22 15  1  0
M  CHG  4   6  -1  17  -1  18  -1  21  -1
M  END
>  <UniqueID>  (2948) 
59

>  <SMILES>  (2948) 
CN(C)C(=O)[N-]CCOc1ccc(Cc2c([O-])[n-]c(=O)[n-]c2=O)cc1

>  <Energy>  (2948) 
35.245322429094124

>  <Genealogy>  (2948) 
CN(C)C(=O)[N-]CCOc1ccc(Cc2c([O-])[n-]c(=O)[n-]c2=O)cc1 (protonated)
CN(C)C(=O)[N-]CCOc1ccc(Cc2c([O-])[n-]c(=O)[n-]c2=O)cc1 (3D coordinates assigned)
CN(C)C(=O)[N-]CCOc1ccc(Cc2c([O-])[n-]c(=O)[n-]c2=O)cc1 (optimized conformer: 35.245322429094124 kcal/mol)

>  <smiles>  (2948) 
CN(C)C(=O)NCCOc1ccc(Cc2c(O)[nH]c(=O)[nH]c2=O)cc1

>  <score_type>  (2948) 
oracle

>  <origin>  (2948) 
adg

>  <m_score__min__energy>  (2948) 
-15.039999999999999

>  <m_primary>  (2948) 
energy

$$$$
80:0
     RDKit          3D

 34 37  0  0  0  0  0  0  0  0999 V2000
   57.8250   32.1210   43.6640 C   0  0  0  0  0  0  0  0  0  0  0  0
   57.8660   33.4650   44.2630 N   0  0  0  0  0  0  0  0  0  0  0  0
   59.2640   33.8560   44.5500 C   0  0  0  0  0  0  0  0  0  0  0  0
   59.3200   35.0130   45.5570 C   0  0  0  0  0  0  0  0  0  0  0  0
   58.6990   34.6590   46.8610 N   0  0  0  0  0  0  0  0  0  0  0  0
   59.7210   34.4070   47.8990 C   0  0  0  0  0  0  0  0  0  0  0  0
   59.7040   32.9600   48.3260 C   0  0  0  0  0  0  0  0  0  0  0  0
   58.9030   32.5370   49.3980 C   0  0  0  0  0  0  0  0  0  0  0  0
   58.9130   31.2000   49.8040 C   0  0  0  0  0  0  0  0  0  0  0  0
   59.7390   30.2680   49.1500 C   0  0  0  0  0  0  0  0  0  0  0  0
   59.7580   28.8800   49.5150 N   0  0  0  0  0  0  0  0  0  0  0  0
   59.9690   27.7690   48.6350 C   0  0  0  0  0  0  0  0  0  0  0  0
   60.5820   26.7460   49.0410 O   0  0  0  0  0  0  0  0  0  0  0  0
   59.5250   27.8500   47.2230 C   0  0  0  0  0  0  0  0  0  0  0  0
   60.4670   27.8520   46.1790 C   0  0  0  0  0  0  0  0  0  0  0  0
   60.0520   27.9780   44.8520 C   0  0  0  0  0  0  0  0  0  0  0  0
   58.6950   28.0900   44.5470 C   0  0  0  0  0  0  0  0  0  0  0  0
   57.7340   28.0570   45.5700 C   0  0  0  0  0  0  0  0  0  0  0  0
   56.2670   28.1790   45.2430 C   0  0  0  0  0  0  0  0  0  0  0  0
   55.5180   27.0710   45.8270 N   0  0  0  0  0  0  0  0  0  0  0  0
   56.0990   25.8090   46.1800 C   0  0  0  0  0  0  0  0  0  0  0  0
   56.5930   25.6450   47.3300 O   0  0  0  0  0  0  0  0  0  0  0  0
   56.1240   24.7000   45.1990 C   0  0  0  0  0  0  0  0  0  0  0  0
   57.3370   24.2670   44.6340 C   0  0  0  0  0  0  0  0  0  0  0  0
   57.3510   23.2110   43.7200 C   0  0  0  0  0  0  0  0  0  0  0  0
   56.1480   22.5890   43.3770 C   0  0  0  0  0  0  0  0  0  0  0  0
   56.1420   21.6310   42.5570 O   0  0  0  0  0  0  0  0  0  0  0  0
   54.9810   23.0150   43.9260 N   0  0  0  0  0  0  0  0  0  0  0  0
   54.9400   24.0420   44.8180 C   0  0  0  0  0  0  0  0  0  0  0  0
   58.1560   27.9490   46.9050 C   0  0  0  0  0  0  0  0  0  0  0  0
   60.5250   30.6900   48.0710 C   0  0  0  0  0  0  0  0  0  0  0  0
   60.5170   32.0280   47.6670 C   0  0  0  0  0  0  0  0  0  0  0  0
   57.7380   33.5330   46.7680 C   0  0  0  0  0  0  0  0  0  0  0  0
   56.9670   33.5620   45.4400 C   0  0  0  0  0  0  0  0  0  0  0  0
  1  2  1  0
  2  3  1  0
  3  4  1  0
  4  5  1  0
  5  6  1  0
  6  7  1  0
  7  8  2  0
  8  9  1  0
  9 10  2  0
 10 11  1  0
 11 12  1  0
 12 13  2  0
 12 14  1  0
 14 15  2  0
 15 16  1  0
 16 17  2  0
 17 18  1  0
 18 19  1  0
 19 20  1  0
 20 21  1  0
 21 22  2  0
 21 23  1  0
 23 24  1  0
 24 25  2  0
 25 26  1  0
 26 27  2  0
 26 28  1  0
 28 29  1  0
 18 30  2  0
 10 31  1  0
 31 32  2  0
  5 33  1  0
 33 34  1  0
 34  2  1  0
 32  7  1  0
 30 14  1  0
 29 23  2  0
M  CHG  3  11  -1  20  -1  28  -1
M  END
>  <UniqueID>  (2949) 
74

>  <SMILES>  (2949) 
CN1CCN(Cc2ccc([N-]C(=O)c3cccc(C[N-]C(=O)c4ccc(=O)[n-]c4)c3)cc2)CC1

>  <Energy>  (2949) 
81.59606579409046

>  <Genealogy>  (2949) 
CN1CCN(Cc2ccc([N-]C(=O)c3cccc(C[N-]C(=O)c4ccc(=O)[n-]c4)c3)cc2)CC1 (protonated)
CN1CCN(Cc2ccc([N-]C(=O)c3cccc(C[N-]C(=O)c4ccc(=O)[n-]c4)c3)cc2)CC1 (3D coordinates assigned)
CN1CCN(Cc2ccc([N-]C(=O)c3cccc(C[N-]C(=O)c4ccc(=O)[n-]c4)c3)cc2)CC1 (nonaromatic ring conformer: 81.59606579409046 kcal/mol)

>  <smiles>  (2949) 
CN1CCN(Cc2ccc(NC(=O)c3cccc(CNC(=O)c4ccc(=O)[nH]c4)c3)cc2)CC1

>  <score_type>  (2949) 
oracle

>  <origin>  (2949) 
adg

>  <m_score__min__energy>  (2949) 
-16.370000000000001

>  <m_primary>  (2949) 
energy

$$$$
15:0
     RDKit          3D

 35 39  0  0  0  0  0  0  0  0999 V2000
   58.1520   28.9150   47.0260 C   0  0  0  0  0  0  0  0  0  0  0  0
   57.8980   28.9730   45.7080 C   0  0  0  0  0  0  0  0  0  0  0  0
   57.8250   27.8850   44.8150 C   0  0  0  0  0  0  0  0  0  0  0  0
   58.0620   26.5690   44.9850 C   0  0  0  0  0  0  0  0  0  0  0  0
   57.3230   25.6660   45.8760 C   0  0  0  0  0  0  0  0  0  0  0  0
   57.8790   24.6050   46.4910 N   0  0  0  0  0  0  0  0  0  0  0  0
   56.8740   24.1330   47.2620 C   0  0  0  0  0  0  0  0  0  0  0  0
   57.0030   23.1140   47.9930 O   0  0  0  0  0  0  0  0  0  0  0  0
   55.7220   24.8430   47.1930 N   0  0  0  0  0  0  0  0  0  0  0  0
   56.0270   25.8180   46.3190 C   0  0  0  0  0  0  0  0  0  0  0  0
   55.1440   26.8270   45.9450 O   0  0  0  0  0  0  0  0  0  0  0  0
   57.3990   28.4060   43.6070 C   0  0  0  0  0  0  0  0  0  0  0  0
   57.2680   29.7670   43.7750 C   0  0  0  0  0  0  0  0  0  0  0  0
   56.7420   30.6910   42.7190 C   0  0  0  0  0  0  0  0  0  0  0  0
   57.5680   30.1220   45.0490 N   0  0  0  0  0  0  0  0  0  0  0  0
   57.4080   31.4780   45.6070 C   0  0  0  0  0  0  0  0  0  0  0  0
   58.5660   31.8240   46.5080 C   0  0  0  0  0  0  0  0  0  0  0  0
   58.3610   32.5790   47.6750 C   0  0  0  0  0  0  0  0  0  0  0  0
   59.4310   32.8730   48.5260 C   0  0  0  0  0  0  0  0  0  0  0  0
   60.7260   32.4140   48.2280 C   0  0  0  0  0  0  0  0  0  0  0  0
   61.8300   32.7010   49.1130 N   0  0  0  0  0  0  0  0  0  0  0  0
   63.0950   31.9600   48.9750 C   0  0  0  0  0  0  0  0  0  0  0  0
   63.8250   31.8710   50.3200 C   0  0  0  0  0  0  0  0  0  0  0  0
   64.0690   33.2670   50.9740 C   0  0  0  0  0  0  0  0  0  0  0  0
   65.5010   33.6940   50.8880 N   0  0  0  0  0  0  0  0  0  0  0  0
   66.1150   34.0260   52.2040 C   0  0  0  0  0  0  0  0  0  0  0  0
   67.6450   34.1230   52.0940 C   0  0  0  0  0  0  0  0  0  0  0  0
   68.2620   32.8530   51.6360 N   0  0  0  0  0  0  0  0  0  0  0  0
   68.9070   32.1350   52.7480 C   0  0  0  0  0  0  0  0  0  0  0  0
   67.3280   31.9570   50.9200 C   0  0  0  0  0  0  0  0  0  0  0  0
   66.3290   32.7570   50.0700 C   0  0  0  0  0  0  0  0  0  0  0  0
   63.0540   34.3460   50.4890 C   0  0  0  0  0  0  0  0  0  0  0  0
   61.6910   33.7280   50.1580 C   0  0  0  0  0  0  0  0  0  0  0  0
   60.9280   31.6620   47.0570 C   0  0  0  0  0  0  0  0  0  0  0  0
   59.8600   31.3740   46.2040 C   0  0  0  0  0  0  0  0  0  0  0  0
  1  2  2  0
  2  3  1  0
  3  4  2  3
  4  5  1  0
  5  6  1  0
  6  7  1  0
  7  8  2  0
  7  9  1  0
  9 10  1  0
 10 11  1  0
  3 12  1  0
 12 13  2  0
 13 14  1  0
 13 15  1  0
 15 16  1  0
 16 17  1  0
 17 18  2  0
 18 19  1  0
 19 20  2  0
 20 21  1  0
 21 22  1  0
 22 23  1  0
 23 24  1  0
 24 25  1  0
 25 26  1  0
 26 27  1  0
 27 28  1  0
 28 29  1  0
 28 30  1  0
 30 31  1  0
 24 32  1  0
 32 33  1  0
 20 34  1  0
 34 35  2  0
 15  2  1  0
 35 17  1  0
 10  5  2  0
 33 21  1  0
 31 25  1  0
M  CHG  4   6  -1   9  -1  11  -1  25   1
M  END
>  <UniqueID>  (2950) 
14

>  <SMILES>  (2950) 
C=c1c(=Cc2[n-]c(=O)[n-]c2[O-])cc(C)n1Cc1ccc(N2CCC([NH+]3CCN(C)CC3)CC2)cc1

>  <Energy>  (2950) 
166.8795198090631

>  <Genealogy>  (2950) 
C=c1c(=Cc2[n-]c(=O)[n-]c2[O-])cc(C)n1Cc1ccc(N2CCC([NH+]3CCN(C)CC3)CC2)cc1 (protonated)
C=c1c(=Cc2[n-]c(=O)[n-]c2[O-])cc(C)n1Cc1ccc(N2CCC([NH+]3CCN(C)CC3)CC2)cc1 (3D coordinates assigned)
C=c1c(=Cc2[n-]c(=O)[n-]c2[O-])cc(C)n1Cc1ccc(N2CCC([NH+]3CCN(C)CC3)CC2)cc1 (nonaromatic ring conformer: 166.8795198090631 kcal/mol)

>  <smiles>  (2950) 
C=c1c(=Cc2[nH]c(=O)[nH]c2O)cc(C)n1Cc1ccc(N2CCC(N3CCN(C)CC3)CC2)cc1

>  <score_type>  (2950) 
oracle

>  <origin>  (2950) 
adg

>  <m_score__min__energy>  (2950) 
-15.220000000000001

>  <m_primary>  (2950) 
energy

$$$$
20:0
     RDKit          3D

 31 34  0  0  0  0  0  0  0  0999 V2000
   54.3590   28.2780   53.4820 C   0  0  0  0  0  0  0  0  0  0  0  0
   54.6210   29.5310   53.0740 C   0  0  0  0  0  0  0  0  0  0  0  0
   53.7330   30.3980   52.4170 C   0  0  0  0  0  0  0  0  0  0  0  0
   52.4020   30.3130   52.2160 C   0  0  0  0  0  0  0  0  0  0  0  0
   51.6910   30.7400   51.0020 C   0  0  0  0  0  0  0  0  0  0  0  0
   51.6550   30.0170   49.8680 N   0  0  0  0  0  0  0  0  0  0  0  0
   51.0180   30.8300   48.9990 C   0  0  0  0  0  0  0  0  0  0  0  0
   50.7740   30.4950   47.8110 O   0  0  0  0  0  0  0  0  0  0  0  0
   50.6730   32.0370   49.4980 N   0  0  0  0  0  0  0  0  0  0  0  0
   51.1190   31.9710   50.7620 C   0  0  0  0  0  0  0  0  0  0  0  0
   51.0320   33.0210   51.6670 O   0  0  0  0  0  0  0  0  0  0  0  0
   54.4820   31.4820   52.0010 C   0  0  0  0  0  0  0  0  0  0  0  0
   55.7630   31.2860   52.4710 C   0  0  0  0  0  0  0  0  0  0  0  0
   56.8800   32.2740   52.3140 C   0  0  0  0  0  0  0  0  0  0  0  0
   55.8550   30.1060   53.1270 N   0  0  0  0  0  0  0  0  0  0  0  0
   57.0570   29.6190   53.8260 C   0  0  0  0  0  0  0  0  0  0  0  0
   58.1180   29.2200   52.8310 C   0  0  0  0  0  0  0  0  0  0  0  0
   58.0860   29.7150   51.5180 C   0  0  0  0  0  0  0  0  0  0  0  0
   59.0790   29.3550   50.6060 C   0  0  0  0  0  0  0  0  0  0  0  0
   60.1160   28.5030   50.9950 C   0  0  0  0  0  0  0  0  0  0  0  0
   60.1710   28.0050   52.3070 C   0  0  0  0  0  0  0  0  0  0  0  0
   61.2370   27.1230   52.7100 N   0  0  0  0  0  0  0  0  0  0  0  0
   61.2110   26.4840   54.0300 C   0  0  0  0  0  0  0  0  0  0  0  0
   62.1120   25.2380   54.0430 C   0  0  0  0  0  0  0  0  0  0  0  0
   62.0920   24.5310   52.7420 N   0  0  0  0  0  0  0  0  0  0  0  0
   60.7680   23.9650   52.3850 C   0  0  0  0  0  0  0  0  0  0  0  0
   60.8330   22.4500   52.1480 C   0  0  0  0  0  0  0  0  0  0  0  0
   62.1470   22.0600   51.8560 O   0  0  0  0  0  0  0  0  0  0  0  0
   62.6410   25.3780   51.6490 C   0  0  0  0  0  0  0  0  0  0  0  0
   62.3990   26.8910   51.8450 C   0  0  0  0  0  0  0  0  0  0  0  0
   59.1580   28.3560   53.2140 C   0  0  0  0  0  0  0  0  0  0  0  0
  1  2  2  0
  2  3  1  0
  3  4  2  3
  4  5  1  0
  5  6  1  0
  6  7  1  0
  7  8  2  0
  7  9  1  0
  9 10  1  0
 10 11  1  0
  3 12  1  0
 12 13  2  0
 13 14  1  0
 13 15  1  0
 15 16  1  0
 16 17  1  0
 17 18  2  0
 18 19  1  0
 19 20  2  0
 20 21  1  0
 21 22  1  0
 22 23  1  0
 23 24  1  0
 24 25  1  0
 25 26  1  0
 26 27  1  0
 27 28  1  0
 25 29  1  0
 29 30  1  0
 21 31  2  0
 15  2  1  0
 31 17  1  0
 10  5  2  0
 30 22  1  0
M  CHG  3   6  -1   9  -1  11  -1
M  END
>  <UniqueID>  (2951) 
18

>  <SMILES>  (2951) 
C=c1c(=Cc2[n-]c(=O)[n-]c2[O-])cc(C)n1Cc1cccc(N2CCN(CCO)CC2)c1

>  <Energy>  (2951) 
140.21353947663133

>  <Genealogy>  (2951) 
C=c1c(=Cc2[n-]c(=O)[n-]c2[O-])cc(C)n1Cc1cccc(N2CCN(CCO)CC2)c1 (protonated)
C=c1c(=Cc2[n-]c(=O)[n-]c2[O-])cc(C)n1Cc1cccc(N2CCN(CCO)CC2)c1 (3D coordinates assigned)
C=c1c(=Cc2[n-]c(=O)[n-]c2[O-])cc(C)n1Cc1cccc(N2CCN(CCO)CC2)c1 (nonaromatic ring conformer: 140.21353947663133 kcal/mol)

>  <smiles>  (2951) 
C=c1c(=Cc2[nH]c(=O)[nH]c2O)cc(C)n1Cc1cccc(N2CCN(CCO)CC2)c1

>  <score_type>  (2951) 
oracle

>  <origin>  (2951) 
adg

>  <m_score__min__energy>  (2951) 
-16.41

>  <m_primary>  (2951) 
energy

$$$$
51:0
     RDKit          3D

 33 36  0  0  0  0  0  0  0  0999 V2000
   57.7690   26.3740   43.1830 C   0  0  0  0  0  0  0  0  0  0  0  0
   58.0660   26.2640   44.4870 C   0  0  0  0  0  0  0  0  0  0  0  0
   57.5060   25.3600   45.4030 C   0  0  0  0  0  0  0  0  0  0  0  0
   56.7450   24.2640   45.2130 C   0  0  0  0  0  0  0  0  0  0  0  0
   55.2720   24.2310   45.2180 C   0  0  0  0  0  0  0  0  0  0  0  0
   54.5290   23.1310   44.9950 N   0  0  0  0  0  0  0  0  0  0  0  0
   53.2690   23.5530   45.2400 C   0  0  0  0  0  0  0  0  0  0  0  0
   52.2670   22.8000   45.1210 O   0  0  0  0  0  0  0  0  0  0  0  0
   53.1680   24.8410   45.6300 N   0  0  0  0  0  0  0  0  0  0  0  0
   54.4470   25.2500   45.6250 C   0  0  0  0  0  0  0  0  0  0  0  0
   54.8530   26.5270   45.9890 O   0  0  0  0  0  0  0  0  0  0  0  0
   57.8980   25.7890   46.6580 C   0  0  0  0  0  0  0  0  0  0  0  0
   58.7160   26.8850   46.4730 C   0  0  0  0  0  0  0  0  0  0  0  0
   59.3270   27.6470   47.5810 C   0  0  0  0  0  0  0  0  0  0  0  0
   60.4840   27.3350   47.9740 O   0  0  0  0  0  0  0  0  0  0  0  0
   58.5830   28.6620   48.2720 N   0  0  0  0  0  0  0  0  0  0  0  0
   59.1900   29.6850   49.0810 C   0  0  0  0  0  0  0  0  0  0  0  0
   59.5780   29.3850   50.3950 C   0  0  0  0  0  0  0  0  0  0  0  0
   60.1620   30.3650   51.2010 C   0  0  0  0  0  0  0  0  0  0  0  0
   60.3530   31.6570   50.7050 C   0  0  0  0  0  0  0  0  0  0  0  0
   59.9490   31.9790   49.4030 C   0  0  0  0  0  0  0  0  0  0  0  0
   60.1860   33.6110   48.7720 S   0  0  0  0  0  0  0  0  0  0  0  0
   61.6590   33.9090   48.6980 O   0  0  0  0  0  0  0  0  0  0  0  0
   59.5580   34.5990   49.7140 O   0  0  0  0  0  0  0  0  0  0  0  0
   59.4770   33.7930   47.1850 N   0  0  0  0  0  0  0  0  0  0  0  0
   59.6700   35.1660   46.6920 C   0  0  0  0  0  0  0  0  0  0  0  0
   59.2750   35.2610   45.2060 C   0  0  0  0  0  0  0  0  0  0  0  0
   58.2670   34.1730   44.7960 C   0  0  0  0  0  0  0  0  0  0  0  0
   57.2960   33.8620   45.9390 C   0  0  0  0  0  0  0  0  0  0  0  0
   58.0420   33.4420   47.2250 C   0  0  0  0  0  0  0  0  0  0  0  0
   59.3600   30.9950   48.5980 C   0  0  0  0  0  0  0  0  0  0  0  0
   58.8520   27.1520   45.1510 N   0  0  0  0  0  0  0  0  0  0  0  0
   59.6720   28.2130   44.5540 C   0  0  0  0  0  0  0  0  0  0  0  0
  1  2  2  0
  2  3  1  0
  3  4  2  3
  4  5  1  0
  5  6  1  0
  6  7  1  0
  7  8  2  0
  7  9  1  0
  9 10  1  0
 10 11  1  0
  3 12  1  0
 12 13  2  0
 13 14  1  0
 14 15  2  0
 14 16  1  0
 16 17  1  0
 17 18  2  0
 18 19  1  0
 19 20  2  0
 20 21  1  0
 21 22  1  0
 22 23  2  0
 22 24  2  0
 22 25  1  0
 25 26  1  0
 26 27  1  0
 27 28  1  0
 28 29  1  0
 29 30  1  0
 21 31  2  0
 13 32  1  0
 32 33  1  0
 32  2  1  0
 10  5  2  0
 31 17  1  0
 30 25  1  0
M  CHG  3   6  -1   9  -1  11  -1
M  END
>  <UniqueID>  (2952) 
49

>  <SMILES>  (2952) 
C=c1c(=Cc2[n-]c(=O)[n-]c2[O-])cc(C(=O)Nc2cccc(S(=O)(=O)N3CCCCC3)c2)n1C

>  <Energy>  (2952) 
135.85431070326482

>  <Genealogy>  (2952) 
C=c1c(=Cc2[n-]c(=O)[n-]c2[O-])cc(C(=O)Nc2cccc(S(=O)(=O)N3CCCCC3)c2)n1C (protonated)
C=c1c(=Cc2[n-]c(=O)[n-]c2[O-])cc(C(=O)Nc2cccc(S(=O)(=O)N3CCCCC3)c2)n1C (3D coordinates assigned)
C=c1c(=Cc2[n-]c(=O)[n-]c2[O-])cc(C(=O)Nc2cccc(S(=O)(=O)N3CCCCC3)c2)n1C (nonaromatic ring conformer: 135.85431070326482 kcal/mol)

>  <smiles>  (2952) 
C=c1c(=Cc2[nH]c(=O)[nH]c2O)cc(C(=O)Nc2cccc(S(=O)(=O)N3CCCCC3)c2)n1C

>  <score_type>  (2952) 
oracle

>  <origin>  (2952) 
adg

>  <m_score__min__energy>  (2952) 
-20.030000000000001

>  <m_primary>  (2952) 
energy

$$$$
58:0
     RDKit          3D

 25 26  0  0  0  0  0  0  0  0999 V2000
   54.8580   24.0850   44.8630 C   0  0  0  0  0  0  0  0  0  0  0  0
   55.2440   24.9260   46.0140 C   0  0  0  0  0  0  0  0  0  0  0  0
   55.4530   24.3750   47.1260 O   0  0  0  0  0  0  0  0  0  0  0  0
   55.3710   26.3510   45.9110 N   0  0  0  0  0  0  0  0  0  0  0  0
   56.6060   27.0800   45.8100 C   0  0  0  0  0  0  0  0  0  0  0  0
   56.5770   28.4040   45.3480 C   0  0  0  0  0  0  0  0  0  0  0  0
   55.3630   28.9680   44.9670 O   0  0  0  0  0  0  0  0  0  0  0  0
   57.7670   29.1520   45.2700 C   0  0  0  0  0  0  0  0  0  0  0  0
   57.7640   30.5710   44.8410 C   0  0  0  0  0  0  0  0  0  0  0  0
   57.7170   30.9040   43.4750 C   0  0  0  0  0  0  0  0  0  0  0  0
   57.7020   32.2440   43.0750 C   0  0  0  0  0  0  0  0  0  0  0  0
   57.7300   33.2610   44.0320 C   0  0  0  0  0  0  0  0  0  0  0  0
   57.7700   32.9400   45.3920 C   0  0  0  0  0  0  0  0  0  0  0  0
   57.7840   31.6020   45.7960 C   0  0  0  0  0  0  0  0  0  0  0  0
   58.9750   28.5290   45.6200 C   0  0  0  0  0  0  0  0  0  0  0  0
   58.9870   27.2320   46.0220 N   0  0  0  0  0  0  0  0  0  0  0  0
   57.8490   26.4960   46.1190 C   0  0  0  0  0  0  0  0  0  0  0  0
   57.9290   25.2860   46.4580 O   0  0  0  0  0  0  0  0  0  0  0  0
   55.1790   22.7840   44.7270 C   0  0  0  0  0  0  0  0  0  0  0  0
   56.0740   22.3700   43.6190 C   0  0  0  0  0  0  0  0  0  0  0  0
   55.5980   22.2550   42.4550 O   0  0  0  0  0  0  0  0  0  0  0  0
   57.4690   22.0850   43.8410 N   0  0  0  0  0  0  0  0  0  0  0  0
   58.1360   21.0850   43.0070 C   0  0  0  0  0  0  0  0  0  0  0  0
   58.2310   22.7750   44.8860 C   0  0  0  0  0  0  0  0  0  0  0  0
   54.6100   21.7180   45.6320 C   0  0  0  0  0  0  0  0  0  0  0  0
  1  2  1  0
  2  3  2  0
  2  4  1  0
  4  5  1  0
  5  6  2  0
  6  7  1  0
  6  8  1  0
  8  9  1  0
  9 10  2  0
 10 11  1  0
 11 12  2  0
 12 13  1  0
 13 14  2  0
  8 15  2  0
 15 16  1  0
 16 17  1  0
 17 18  2  0
  1 19  2  0
 19 20  1  0
 20 21  2  0
 20 22  1  0
 22 23  1  0
 22 24  1  0
 19 25  1  0
 17  5  1  0
 14  9  1  0
M  CHG  3   4  -1   7  -1  16  -1
M  END
>  <UniqueID>  (2953) 
55

>  <SMILES>  (2953) 
C/C(=C\C(=O)[N-]c1c([O-])c(-c2ccccc2)c[n-]c1=O)C(=O)N(C)C

>  <Energy>  (2953) 
60.91162010669236

>  <Genealogy>  (2953) 
CC(=CC(=O)[N-]c1c([O-])c(-c2ccccc2)c[n-]c1=O)C(=O)N(C)C (protonated)
C/C(=C\C(=O)[N-]c1c([O-])c(-c2ccccc2)c[n-]c1=O)C(=O)N(C)C (cis-trans isomerization)
C/C(=C\C(=O)[N-]c1c([O-])c(-c2ccccc2)c[n-]c1=O)C(=O)N(C)C (3D coordinates assigned)
C/C(=C\C(=O)[N-]c1c([O-])c(-c2ccccc2)c[n-]c1=O)C(=O)N(C)C (optimized conformer: 60.91162010669236 kcal/mol)

>  <smiles>  (2953) 
CC(=CC(=O)Nc1c(O)c(-c2ccccc2)c[nH]c1=O)C(=O)N(C)C

>  <score_type>  (2953) 
oracle

>  <origin>  (2953) 
adg

>  <m_score__min__energy>  (2953) 
-15.01

>  <m_primary>  (2953) 
energy

$$$$
72:0
     RDKit          3D

 30 33  0  0  0  0  0  0  0  0999 V2000
   57.3760   28.3440   43.0190 C   0  0  0  0  0  0  0  0  0  0  0  0
   57.4710   29.5060   43.6890 C   0  0  0  0  0  0  0  0  0  0  0  0
   57.1550   30.6840   42.9830 C   0  0  0  0  0  0  0  0  0  0  0  0
   57.4650   31.9370   43.5040 C   0  0  0  0  0  0  0  0  0  0  0  0
   58.1300   32.0460   44.7280 C   0  0  0  0  0  0  0  0  0  0  0  0
   58.4560   33.3690   45.2950 C   0  0  0  0  0  0  0  0  0  0  0  0
   58.6180   33.6240   46.6080 C   0  0  0  0  0  0  0  0  0  0  0  0
   57.7120   33.0850   47.6880 C   0  0  0  0  0  0  0  0  0  0  0  0
   58.5370   32.5060   48.8540 C   0  0  0  0  0  0  0  0  0  0  0  0
   59.8070   33.2350   49.1390 N   0  0  0  0  0  0  0  0  0  0  0  0
   61.0040   32.4480   48.7710 C   0  0  0  0  0  0  0  0  0  0  0  0
   60.7380   30.9780   48.9520 C   0  0  0  0  0  0  0  0  0  0  0  0
   60.4680   30.4500   50.2260 C   0  0  0  0  0  0  0  0  0  0  0  0
   60.2340   29.0800   50.3850 C   0  0  0  0  0  0  0  0  0  0  0  0
   60.2700   28.2300   49.2770 C   0  0  0  0  0  0  0  0  0  0  0  0
   60.5390   28.7480   48.0060 C   0  0  0  0  0  0  0  0  0  0  0  0
   60.5750   27.9220   46.9310 F   0  0  0  0  0  0  0  0  0  0  0  0
   60.7720   30.1170   47.8430 C   0  0  0  0  0  0  0  0  0  0  0  0
   59.8440   34.5990   48.5650 C   0  0  0  0  0  0  0  0  0  0  0  0
   59.7020   34.5780   47.0350 C   0  0  0  0  0  0  0  0  0  0  0  0
   58.3720   30.8950   45.4850 C   0  0  0  0  0  0  0  0  0  0  0  0
   57.9900   29.6150   45.0220 C   0  0  0  0  0  0  0  0  0  0  0  0
   58.1270   28.5850   45.8970 C   0  0  0  0  0  0  0  0  0  0  0  0
   57.1490   27.5090   46.1380 C   0  0  0  0  0  0  0  0  0  0  0  0
   55.9200   27.4890   45.5910 N   0  0  0  0  0  0  0  0  0  0  0  0
   55.4210   26.2970   45.9850 C   0  0  0  0  0  0  0  0  0  0  0  0
   54.2630   25.9120   45.6770 O   0  0  0  0  0  0  0  0  0  0  0  0
   56.2640   25.5450   46.7250 N   0  0  0  0  0  0  0  0  0  0  0  0
   57.3590   26.3200   46.8010 C   0  0  0  0  0  0  0  0  0  0  0  0
   58.5350   25.9360   47.4380 O   0  0  0  0  0  0  0  0  0  0  0  0
  1  2  2  0
  2  3  1  0
  3  4  2  0
  4  5  1  0
  5  6  1  0
  6  7  2  3
  7  8  1  0
  8  9  1  0
  9 10  1  0
 10 11  1  0
 11 12  1  0
 12 13  2  0
 13 14  1  0
 14 15  2  0
 15 16  1  0
 16 17  1  0
 16 18  2  0
 10 19  1  0
 19 20  1  0
  5 21  2  0
 21 22  1  0
 22 23  2  3
 23 24  1  0
 24 25  1  0
 25 26  1  0
 26 27  2  0
 26 28  1  0
 28 29  1  0
 29 30  1  0
 22  2  1  0
 29 24  2  0
 20  7  1  0
 18 12  1  0
M  CHG  2  25  -1  28  -1
M  END
>  <UniqueID>  (2954) 
69

>  <SMILES>  (2954) 
C=c1ccc(C=C2CCN(Cc3cccc(F)c3)CC2)cc1=Cc1[n-]c(=O)[n-]c1O

>  <Energy>  (2954) 
119.86775503186867

>  <Genealogy>  (2954) 
C=c1ccc(C=C2CCN(Cc3cccc(F)c3)CC2)cc1=Cc1[n-]c(=O)[n-]c1O (protonated)
C=c1ccc(C=C2CCN(Cc3cccc(F)c3)CC2)cc1=Cc1[n-]c(=O)[n-]c1O (3D coordinates assigned)
C=c1ccc(C=C2CCN(Cc3cccc(F)c3)CC2)cc1=Cc1[n-]c(=O)[n-]c1O (nonaromatic ring conformer: 119.86775503186867 kcal/mol)

>  <smiles>  (2954) 
C=c1ccc(C=C2CCN(Cc3cccc(F)c3)CC2)cc1=Cc1[nH]c(=O)[nH]c1O

>  <score_type>  (2954) 
oracle

>  <origin>  (2954) 
adg

>  <m_score__min__energy>  (2954) 
-14.44

>  <m_primary>  (2954) 
energy

$$$$
73:0
     RDKit          3D

 23 25  0  0  0  0  0  0  0  0999 V2000
   58.9390   29.7620   48.3480 C   0  0  0  0  0  0  0  0  0  0  0  0
   58.6270   30.2860   47.1520 C   0  0  0  0  0  0  0  0  0  0  0  0
   58.4250   29.5730   45.9650 C   0  0  0  0  0  0  0  0  0  0  0  0
   58.5310   28.2430   45.7830 C   0  0  0  0  0  0  0  0  0  0  0  0
   57.4130   27.2960   45.9500 C   0  0  0  0  0  0  0  0  0  0  0  0
   57.5360   26.1140   46.5800 N   0  0  0  0  0  0  0  0  0  0  0  0
   56.2780   25.6250   46.5780 C   0  0  0  0  0  0  0  0  0  0  0  0
   55.9850   24.5070   47.0760 O   0  0  0  0  0  0  0  0  0  0  0  0
   55.3570   26.4310   46.0100 N   0  0  0  0  0  0  0  0  0  0  0  0
   56.0880   27.4910   45.6280 C   0  0  0  0  0  0  0  0  0  0  0  0
   55.5440   28.6280   45.0440 O   0  0  0  0  0  0  0  0  0  0  0  0
   58.1550   30.5170   44.9840 C   0  0  0  0  0  0  0  0  0  0  0  0
   58.1950   31.7520   45.6010 C   0  0  0  0  0  0  0  0  0  0  0  0
   57.9750   33.0570   44.8990 C   0  0  0  0  0  0  0  0  0  0  0  0
   58.4630   31.6160   46.9210 N   0  0  0  0  0  0  0  0  0  0  0  0
   58.6250   32.7180   47.8800 C   0  0  0  0  0  0  0  0  0  0  0  0
   59.6080   33.7570   47.3340 C   0  0  0  0  0  0  0  0  0  0  0  0
   61.0120   33.2190   47.3540 C   0  0  0  0  0  0  0  0  0  0  0  0
   61.3300   32.0960   48.1300 C   0  0  0  0  0  0  0  0  0  0  0  0
   62.6470   31.6320   48.1620 C   0  0  0  0  0  0  0  0  0  0  0  0
   63.6170   32.2720   47.4520 N   0  0  0  0  0  0  0  0  0  0  0  0
   63.3360   33.3730   46.7020 C   0  0  0  0  0  0  0  0  0  0  0  0
   62.0310   33.8690   46.6440 C   0  0  0  0  0  0  0  0  0  0  0  0
  1  2  2  0
  2  3  1  0
  3  4  2  0
  4  5  1  0
  5  6  1  0
  6  7  1  0
  7  8  2  0
  7  9  1  0
  9 10  1  0
 10 11  1  0
  3 12  1  0
 12 13  2  0
 13 14  1  0
 13 15  1  0
 15 16  1  0
 16 17  1  0
 17 18  1  0
 18 19  2  0
 19 20  1  0
 20 21  2  0
 21 22  1  0
 22 23  2  0
 15  2  1  0
 23 18  1  0
 10  5  2  0
M  CHG  4   6  -1   9  -1  11  -1  21   1
M  END
>  <UniqueID>  (2955) 
70

>  <SMILES>  (2955) 
C=c1/c(=C/c2[n-]c(=O)[n-]c2[O-])cc(C)n1CCc1cc[nH+]cc1

>  <Energy>  (2955) 
102.34828610906203

>  <Genealogy>  (2955) 
C=c1c(=Cc2[n-]c(=O)[n-]c2[O-])cc(C)n1CCc1cc[nH+]cc1 (protonated)
C=c1/c(=C/c2[n-]c(=O)[n-]c2[O-])cc(C)n1CCc1cc[nH+]cc1 (cis-trans isomerization)
C=c1/c(=C/c2[n-]c(=O)[n-]c2[O-])cc(C)n1CCc1cc[nH+]cc1 (3D coordinates assigned)
C=c1/c(=C/c2[n-]c(=O)[n-]c2[O-])cc(C)n1CCc1cc[nH+]cc1 (optimized conformer: 102.34828610906203 kcal/mol)

>  <smiles>  (2955) 
C=c1c(=Cc2[nH]c(=O)[nH]c2O)cc(C)n1CCc1ccncc1

>  <score_type>  (2955) 
oracle

>  <origin>  (2955) 
adg

>  <m_score__min__energy>  (2955) 
-14.210000000000001

>  <m_primary>  (2955) 
energy

$$$$
4:0
     RDKit          3D

 30 33  0  0  0  0  0  0  0  0999 V2000
   57.4470   31.8730   42.7220 C   0  0  0  0  0  0  0  0  0  0  0  0
   57.7880   31.1750   43.8070 C   0  0  0  0  0  0  0  0  0  0  0  0
   57.8970   29.8310   43.8160 N   0  0  0  0  0  0  0  0  0  0  0  0
   58.2490   29.4780   45.0740 C   0  0  0  0  0  0  0  0  0  0  0  0
   58.4780   28.2270   45.5050 C   0  0  0  0  0  0  0  0  0  0  0  0
   57.4350   27.2500   45.8770 C   0  0  0  0  0  0  0  0  0  0  0  0
   57.6720   25.6710   46.4300 S   0  0  0  0  0  0  0  0  0  0  0  0
   56.0310   25.3180   46.4000 C   0  0  0  0  0  0  0  0  0  0  0  0
   55.5370   24.2120   46.7420 O   0  0  0  0  0  0  0  0  0  0  0  0
   55.2870   26.3510   45.9580 N   0  0  0  0  0  0  0  0  0  0  0  0
   56.0700   27.4200   45.6540 C   0  0  0  0  0  0  0  0  0  0  0  0
   55.5280   28.5990   45.1540 O   0  0  0  0  0  0  0  0  0  0  0  0
   58.3820   30.6040   45.8680 C   0  0  0  0  0  0  0  0  0  0  0  0
   58.0900   31.6890   45.0620 C   0  0  0  0  0  0  0  0  0  0  0  0
   58.0250   33.1170   45.5240 C   0  0  0  0  0  0  0  0  0  0  0  0
   59.0470   33.3640   46.6000 C   0  0  0  0  0  0  0  0  0  0  0  0
   60.3760   33.6500   46.2550 C   0  0  0  0  0  0  0  0  0  0  0  0
   61.3350   33.8490   47.2490 C   0  0  0  0  0  0  0  0  0  0  0  0
   60.9800   33.7540   48.5970 C   0  0  0  0  0  0  0  0  0  0  0  0
   59.6570   33.4480   48.9650 C   0  0  0  0  0  0  0  0  0  0  0  0
   59.2570   33.3440   50.3920 C   0  0  0  0  0  0  0  0  0  0  0  0
   59.2870   34.3870   51.1040 O   0  0  0  0  0  0  0  0  0  0  0  0
   58.8660   32.0790   50.9830 N   0  0  0  0  0  0  0  0  0  0  0  0
   57.3990   32.0200   51.1050 C   0  0  0  0  0  0  0  0  0  0  0  0
   56.9710   30.7540   51.8750 C   0  0  0  0  0  0  0  0  0  0  0  0
   57.7770   29.5550   51.5370 N   0  0  0  0  0  0  0  0  0  0  0  0
   58.6630   29.1380   52.6370 C   0  0  0  0  0  0  0  0  0  0  0  0
   58.5040   29.6790   50.2590 C   0  0  0  0  0  0  0  0  0  0  0  0
   59.4050   30.9340   50.2020 C   0  0  0  0  0  0  0  0  0  0  0  0
   58.6930   33.2660   47.9570 C   0  0  0  0  0  0  0  0  0  0  0  0
  1  2  2  0
  2  3  1  0
  3  4  1  0
  4  5  2  3
  5  6  1  0
  6  7  1  0
  7  8  1  0
  8  9  2  0
  8 10  1  0
 10 11  1  0
 11 12  1  0
  4 13  1  0
 13 14  2  0
 14 15  1  0
 15 16  1  0
 16 17  2  0
 17 18  1  0
 18 19  2  0
 19 20  1  0
 20 21  1  0
 21 22  2  0
 21 23  1  0
 23 24  1  0
 24 25  1  0
 25 26  1  0
 26 27  1  0
 26 28  1  0
 28 29  1  0
 20 30  2  0
 14  2  1  0
 30 16  1  0
 11  6  2  0
 29 23  1  0
M  CHG  3  10  -1  12  -1  23   1
M  END
>  <UniqueID>  (2956) 
4

>  <SMILES>  (2956) 
C=c1[nH]c(=Cc2sc(=O)[n-]c2[O-])cc1Cc1cccc(C(=O)[NH+]2CCN(C)CC2)c1

>  <Energy>  (2956) 
133.60588055413862

>  <Genealogy>  (2956) 
C=c1[nH]c(=Cc2sc(=O)[n-]c2[O-])cc1Cc1cccc(C(=O)[NH+]2CCN(C)CC2)c1 (protonated)
C=c1[nH]c(=Cc2sc(=O)[n-]c2[O-])cc1Cc1cccc(C(=O)[NH+]2CCN(C)CC2)c1 (3D coordinates assigned)
C=c1[nH]c(=Cc2sc(=O)[n-]c2[O-])cc1Cc1cccc(C(=O)[NH+]2CCN(C)CC2)c1 (nonaromatic ring conformer: 133.60588055413862 kcal/mol)

>  <smiles>  (2956) 
C=c1[nH]c(=Cc2sc(=O)[nH]c2O)cc1Cc1cccc(C(=O)N2CCN(C)CC2)c1

>  <score_type>  (2956) 
oracle

>  <origin>  (2956) 
adg

>  <m_score__min__energy>  (2956) 
-14.970000000000001

>  <m_primary>  (2956) 
energy

$$$$
8:0
     RDKit          3D

 30 33  0  0  0  0  0  0  0  0999 V2000
   57.0540   32.8360   45.0250 C   0  0  0  0  0  0  0  0  0  0  0  0
   57.6880   31.7320   45.4240 C   0  0  0  0  0  0  0  0  0  0  0  0
   58.5970   31.6370   46.4600 C   0  0  0  0  0  0  0  0  0  0  0  0
   58.9430   32.7180   47.4030 C   0  0  0  0  0  0  0  0  0  0  0  0
   58.0110   33.4190   47.8870 O   0  0  0  0  0  0  0  0  0  0  0  0
   60.3160   32.9790   47.7690 N   0  0  0  0  0  0  0  0  0  0  0  0
   60.6160   33.8120   48.9420 C   0  0  0  0  0  0  0  0  0  0  0  0
   61.9840   33.4320   49.5140 C   0  0  0  0  0  0  0  0  0  0  0  0
   63.0500   33.6060   48.5040 N   0  0  0  0  0  0  0  0  0  0  0  0
   64.4290   33.1960   48.8760 C   0  0  0  0  0  0  0  0  0  0  0  0
   64.9130   33.3590   50.3180 C   0  0  0  0  0  0  0  0  0  0  0  0
   64.4990   31.9890   49.8040 C   0  0  0  0  0  0  0  0  0  0  0  0
   62.6930   33.2190   47.1150 C   0  0  0  0  0  0  0  0  0  0  0  0
   61.4240   32.3580   47.0260 C   0  0  0  0  0  0  0  0  0  0  0  0
   59.0010   30.3030   46.5470 C   0  0  0  0  0  0  0  0  0  0  0  0
   59.6970   29.7460   47.7910 C   0  0  0  0  0  0  0  0  0  0  0  0
   60.3520   28.3750   47.5720 C   0  0  0  0  0  0  0  0  0  0  0  0
   58.8280   29.8060   49.0540 C   0  0  0  0  0  0  0  0  0  0  0  0
   58.3250   29.6510   45.4870 C   0  0  0  0  0  0  0  0  0  0  0  0
   58.3880   28.3740   45.0700 C   0  0  0  0  0  0  0  0  0  0  0  0
   57.5160   27.2630   45.4930 C   0  0  0  0  0  0  0  0  0  0  0  0
   56.1270   27.4490   45.6250 C   0  0  0  0  0  0  0  0  0  0  0  0
   55.5290   28.6410   45.2360 O   0  0  0  0  0  0  0  0  0  0  0  0
   55.3530   26.4560   46.1390 N   0  0  0  0  0  0  0  0  0  0  0  0
   55.9040   25.2930   46.5700 C   0  0  0  0  0  0  0  0  0  0  0  0
   55.1640   24.3800   47.0280 O   0  0  0  0  0  0  0  0  0  0  0  0
   57.2510   25.1180   46.5150 N   0  0  0  0  0  0  0  0  0  0  0  0
   58.0680   26.0810   46.0100 C   0  0  0  0  0  0  0  0  0  0  0  0
   59.3160   25.9030   46.0040 O   0  0  0  0  0  0  0  0  0  0  0  0
   57.5170   30.5310   44.8540 N   0  0  0  0  0  0  0  0  0  0  0  0
  1  2  2  0
  2  3  1  0
  3  4  1  0
  4  5  2  0
  4  6  1  0
  6  7  1  0
  7  8  1  0
  8  9  1  0
  9 10  1  0
 10 11  1  0
 11 12  1  0
  9 13  1  0
 13 14  1  0
  3 15  2  0
 15 16  1  0
 16 17  1  0
 16 18  1  0
 15 19  1  0
 19 20  2  0
 20 21  1  0
 21 22  2  0
 22 23  1  0
 22 24  1  0
 24 25  1  0
 25 26  2  0
 25 27  1  0
 27 28  1  0
 28 29  2  0
 19 30  1  0
 30  2  1  0
 14  6  1  0
 28 21  1  0
 12 10  1  0
M  CHG  3  23  -1  24  -1  27  -1
M  END
>  <UniqueID>  (2957) 
8

>  <SMILES>  (2957) 
C=c1[nH]/c(=C/c2c([O-])[n-]c(=O)[n-]c2=O)c(C(C)C)c1C(=O)N1CCN(C2CC2)CC1

>  <Energy>  (2957) 
389.50906076090956

>  <Genealogy>  (2957) 
C=c1[nH]c(=Cc2c([O-])[n-]c(=O)[n-]c2=O)c(C(C)C)c1C(=O)N1CCN(C2CC2)CC1 (protonated)
C=c1[nH]/c(=C/c2c([O-])[n-]c(=O)[n-]c2=O)c(C(C)C)c1C(=O)N1CCN(C2CC2)CC1 (cis-trans isomerization)
C=c1[nH]/c(=C/c2c([O-])[n-]c(=O)[n-]c2=O)c(C(C)C)c1C(=O)N1CCN(C2CC2)CC1 (3D coordinates assigned)
C=c1[nH]/c(=C/c2c([O-])[n-]c(=O)[n-]c2=O)c(C(C)C)c1C(=O)N1CCN(C2CC2)CC1 (nonaromatic ring conformer: 389.50906076090956 kcal/mol)

>  <smiles>  (2957) 
C=c1[nH]c(=Cc2c(O)[nH]c(=O)[nH]c2=O)c(C(C)C)c1C(=O)N1CCN(C2CC2)CC1

>  <score_type>  (2957) 
oracle

>  <origin>  (2957) 
adg

>  <m_score__min__energy>  (2957) 
-16.48

>  <m_primary>  (2957) 
energy

$$$$
32:0
     RDKit          3D

 25 28  0  0  0  0  0  0  0  0999 V2000
   57.7870   26.6790   42.8370 C   0  0  0  0  0  0  0  0  0  0  0  0
   58.0560   27.1670   44.0530 C   0  0  0  0  0  0  0  0  0  0  0  0
   58.0610   26.4870   45.2800 C   0  0  0  0  0  0  0  0  0  0  0  0
   57.6460   25.2480   45.6070 C   0  0  0  0  0  0  0  0  0  0  0  0
   56.2450   24.8000   45.6480 C   0  0  0  0  0  0  0  0  0  0  0  0
   55.1360   25.6050   45.7690 C   0  0  0  0  0  0  0  0  0  0  0  0
   55.1520   26.9750   46.0020 O   0  0  0  0  0  0  0  0  0  0  0  0
   54.0080   24.8850   45.6200 N   0  0  0  0  0  0  0  0  0  0  0  0
   54.4770   23.6410   45.3840 C   0  0  0  0  0  0  0  0  0  0  0  0
   53.7240   22.6540   45.1740 O   0  0  0  0  0  0  0  0  0  0  0  0
   55.8220   23.5520   45.3780 N   0  0  0  0  0  0  0  0  0  0  0  0
   58.6150   27.3640   46.2010 C   0  0  0  0  0  0  0  0  0  0  0  0
   58.8570   28.5420   45.5250 C   0  0  0  0  0  0  0  0  0  0  0  0
   59.5120   29.7570   46.1050 C   0  0  0  0  0  0  0  0  0  0  0  0
   58.6830   30.9740   45.8160 C   0  0  0  0  0  0  0  0  0  0  0  0
   59.0260   32.2510   45.9270 C   0  0  0  0  0  0  0  0  0  0  0  0
   60.2080   32.8110   46.4210 C   0  0  0  0  0  0  0  0  0  0  0  0
   60.3300   34.2100   46.4250 C   0  0  0  0  0  0  0  0  0  0  0  0
   59.2860   35.0200   45.9370 C   0  0  0  0  0  0  0  0  0  0  0  0
   58.1070   34.4410   45.4360 C   0  0  0  0  0  0  0  0  0  0  0  0
   58.0000   33.0500   45.4380 C   0  0  0  0  0  0  0  0  0  0  0  0
   56.9830   32.3830   44.9880 N   0  0  0  0  0  0  0  0  0  0  0  0
   57.3690   31.0280   45.1960 C   0  0  0  0  0  0  0  0  0  0  0  0
   56.6630   30.0380   44.8710 O   0  0  0  0  0  0  0  0  0  0  0  0
   58.5210   28.4210   44.2280 N   0  0  0  0  0  0  0  0  0  0  0  0
  1  2  2  0
  2  3  1  0
  3  4  2  0
  4  5  1  0
  5  6  2  0
  6  7  1  0
  6  8  1  0
  8  9  1  0
  9 10  2  0
  9 11  1  0
  3 12  1  0
 12 13  2  0
 13 14  1  0
 14 15  1  0
 15 16  2  0
 16 17  1  0
 17 18  2  0
 18 19  1  0
 19 20  2  0
 20 21  1  0
 21 22  2  0
 22 23  1  0
 23 24  2  0
 13 25  1  0
 25  2  1  0
 11  5  1  0
 23 15  1  0
 21 16  1  0
M  CHG  2   7  -1   8  -1
M  END
>  <UniqueID>  (2958) 
30

>  <SMILES>  (2958) 
C=c1[nH]c(CC2=c3ccccc3=NC2=O)c/c1=C/c1[nH]c(=O)[n-]c1[O-]

>  <Energy>  (2958) 
139.24314981665142

>  <Genealogy>  (2958) 
C=c1[nH]c(CC2=c3ccccc3=NC2=O)cc1=Cc1[nH]c(=O)[n-]c1[O-] (protonated)
C=c1[nH]c(CC2=c3ccccc3=NC2=O)c/c1=C/c1[nH]c(=O)[n-]c1[O-] (cis-trans isomerization)
C=c1[nH]c(CC2=c3ccccc3=NC2=O)c/c1=C/c1[nH]c(=O)[n-]c1[O-] (3D coordinates assigned)
C=c1[nH]c(CC2=c3ccccc3=NC2=O)c/c1=C/c1[nH]c(=O)[n-]c1[O-] (nonaromatic ring conformer: 139.24314981665142 kcal/mol)

>  <smiles>  (2958) 
C=c1[nH]c(CC2=c3ccccc3=NC2=O)cc1=Cc1[nH]c(=O)[nH]c1O

>  <score_type>  (2958) 
oracle

>  <origin>  (2958) 
adg

>  <m_score__min__energy>  (2958) 
-14.970000000000001

>  <m_primary>  (2958) 
energy

$$$$
34:0
     RDKit          3D

 27 29  0  0  0  0  0  0  0  0999 V2000
   57.4420   28.7000   43.7420 C   0  0  0  0  0  0  0  0  0  0  0  0
   56.7390   29.8800   44.3470 C   0  0  0  0  0  0  0  0  0  0  0  0
   55.5980   29.7010   44.8550 O   0  0  0  0  0  0  0  0  0  0  0  0
   57.3480   31.2370   44.3620 C   0  0  0  0  0  0  0  0  0  0  0  0
   57.8840   31.7830   43.1800 C   0  0  0  0  0  0  0  0  0  0  0  0
   58.4790   33.0470   43.1860 C   0  0  0  0  0  0  0  0  0  0  0  0
   58.5490   33.7850   44.3680 C   0  0  0  0  0  0  0  0  0  0  0  0
   58.0080   33.2700   45.5550 C   0  0  0  0  0  0  0  0  0  0  0  0
   58.1320   34.0420   46.8440 C   0  0  0  0  0  0  0  0  0  0  0  0
   59.2540   33.4840   47.7290 C   0  0  0  0  0  0  0  0  0  0  0  0
   59.7220   32.1880   47.2390 N   0  0  0  0  0  0  0  0  0  0  0  0
   59.3420   30.9480   47.8530 C   0  0  0  0  0  0  0  0  0  0  0  0
   58.8030   30.9440   48.9920 O   0  0  0  0  0  0  0  0  0  0  0  0
   59.5570   29.6770   47.1470 C   0  0  0  0  0  0  0  0  0  0  0  0
   59.3560   28.4090   47.6500 C   0  0  0  0  0  0  0  0  0  0  0  0
   59.6400   27.5650   46.6440 N   0  0  0  0  0  0  0  0  0  0  0  0
   59.6360   26.1090   46.7010 C   0  0  0  0  0  0  0  0  0  0  0  0
   58.3000   25.5840   46.2550 C   0  0  0  0  0  0  0  0  0  0  0  0
   58.1990   24.3140   45.6650 C   0  0  0  0  0  0  0  0  0  0  0  0
   56.9610   23.8450   45.2130 C   0  0  0  0  0  0  0  0  0  0  0  0
   55.8200   24.6420   45.3390 C   0  0  0  0  0  0  0  0  0  0  0  0
   55.9160   25.9140   45.9110 C   0  0  0  0  0  0  0  0  0  0  0  0
   54.7840   26.7100   46.0280 O   0  0  0  0  0  0  0  0  0  0  0  0
   57.1530   26.3880   46.3640 C   0  0  0  0  0  0  0  0  0  0  0  0
   60.0100   28.2720   45.5880 N   0  0  0  0  0  0  0  0  0  0  0  0
   59.9610   29.5680   45.8650 N   0  0  0  0  0  0  0  0  0  0  0  0
   57.4110   31.9970   45.5470 C   0  0  0  0  0  0  0  0  0  0  0  0
  1  2  1  0
  2  3  2  0
  2  4  1  0
  4  5  2  0
  5  6  1  0
  6  7  2  0
  7  8  1  0
  8  9  1  0
  9 10  1  0
 10 11  1  0
 11 12  1  0
 12 13  2  0
 12 14  1  0
 14 15  2  0
 15 16  1  0
 16 17  1  0
 17 18  1  0
 18 19  2  0
 19 20  1  0
 20 21  2  0
 21 22  1  0
 22 23  1  0
 22 24  2  0
 16 25  1  0
 25 26  2  0
  8 27  2  0
 27  4  1  0
 26 14  1  0
 24 18  1  0
M  CHG  1  23  -1
M  END
>  <UniqueID>  (2959) 
32

>  <SMILES>  (2959) 
CC(=O)c1cccc(CCNC(=O)c2cn(Cc3cccc([O-])c3)nn2)c1

>  <Energy>  (2959) 
74.60304421824334

>  <Genealogy>  (2959) 
CC(=O)c1cccc(CCNC(=O)c2cn(Cc3cccc([O-])c3)nn2)c1 (protonated)
CC(=O)c1cccc(CCNC(=O)c2cn(Cc3cccc([O-])c3)nn2)c1 (3D coordinates assigned)
CC(=O)c1cccc(CCNC(=O)c2cn(Cc3cccc([O-])c3)nn2)c1 (optimized conformer: 74.60304421824334 kcal/mol)

>  <smiles>  (2959) 
CC(=O)c1cccc(CCNC(=O)c2cn(Cc3cccc(O)c3)nn2)c1

>  <score_type>  (2959) 
oracle

>  <origin>  (2959) 
adg

>  <m_score__min__energy>  (2959) 
-14.449999999999999

>  <m_primary>  (2959) 
energy

$$$$
75:0
     RDKit          3D

 28 30  0  0  0  0  0  0  0  0999 V2000
   60.6480   33.4410   47.9290 C   0  0  0  0  0  0  0  0  0  0  0  0
   59.7620   32.7080   48.9100 C   0  0  0  0  0  0  0  0  0  0  0  0
   59.3590   33.3880   50.0650 C   0  0  0  0  0  0  0  0  0  0  0  0
   58.5400   32.7610   50.9920 C   0  0  0  0  0  0  0  0  0  0  0  0
   58.1040   31.4500   50.7820 C   0  0  0  0  0  0  0  0  0  0  0  0
   57.2250   30.8200   51.8090 C   0  0  0  0  0  0  0  0  0  0  0  0
   57.6950   29.9150   52.5510 O   0  0  0  0  0  0  0  0  0  0  0  0
   55.7900   31.2140   52.0020 C   0  0  0  0  0  0  0  0  0  0  0  0
   54.9470   30.1390   51.5990 O   0  0  0  0  0  0  0  0  0  0  0  0
   53.6220   30.0190   52.0230 C   0  0  0  0  0  0  0  0  0  0  0  0
   53.2870   29.1130   52.8350 O   0  0  0  0  0  0  0  0  0  0  0  0
   52.6120   30.9570   51.5220 C   0  0  0  0  0  0  0  0  0  0  0  0
   52.0140   31.9640   52.2460 C   0  0  0  0  0  0  0  0  0  0  0  0
   51.1390   32.6100   51.4560 N   0  0  0  0  0  0  0  0  0  0  0  0
   51.2420   31.9640   50.2770 C   0  0  0  0  0  0  0  0  0  0  0  0
   50.5660   32.2850   49.2660 O   0  0  0  0  0  0  0  0  0  0  0  0
   52.1270   30.9470   50.2680 N   0  0  0  0  0  0  0  0  0  0  0  0
   58.5370   30.7770   49.6160 C   0  0  0  0  0  0  0  0  0  0  0  0
   58.1940   29.5770   49.4310 O   0  0  0  0  0  0  0  0  0  0  0  0
   59.3470   31.4090   48.6940 N   0  0  0  0  0  0  0  0  0  0  0  0
   59.7900   30.6690   47.4880 C   0  0  0  0  0  0  0  0  0  0  0  0
   58.6270   30.3420   46.5820 C   0  0  0  0  0  0  0  0  0  0  0  0
   58.0970   29.0390   46.5540 C   0  0  0  0  0  0  0  0  0  0  0  0
   57.0350   28.7270   45.7000 C   0  0  0  0  0  0  0  0  0  0  0  0
   56.5010   29.7050   44.8580 C   0  0  0  0  0  0  0  0  0  0  0  0
   55.4450   29.3930   44.0100 O   0  0  0  0  0  0  0  0  0  0  0  0
   57.0310   30.9980   44.8650 C   0  0  0  0  0  0  0  0  0  0  0  0
   58.0940   31.3150   45.7180 C   0  0  0  0  0  0  0  0  0  0  0  0
  1  2  1  0
  2  3  2  0
  3  4  1  0
  4  5  2  0
  5  6  1  0
  6  7  2  0
  6  8  1  0
  8  9  1  0
  9 10  1  0
 10 11  2  0
 10 12  1  0
 12 13  2  0
 13 14  1  0
 14 15  1  0
 15 16  2  0
 15 17  1  0
  5 18  1  0
 18 19  2  0
 18 20  1  0
 20 21  1  0
 21 22  1  0
 22 23  2  0
 23 24  1  0
 24 25  2  0
 25 26  1  0
 25 27  1  0
 27 28  2  0
 20  2  1  0
 28 22  1  0
 17 12  1  0
M  CHG  3  14  -1  17  -1  26  -1
M  END
>  <UniqueID>  (2960) 
71

>  <SMILES>  (2960) 
Cc1ccc(C(=O)COC(=O)c2c[n-]c(=O)[n-]2)c(=O)n1Cc1ccc([O-])cc1

>  <Energy>  (2960) 
78.52782078476477

>  <Genealogy>  (2960) 
Cc1ccc(C(=O)COC(=O)c2c[n-]c(=O)[n-]2)c(=O)n1Cc1ccc([O-])cc1 (protonated)
Cc1ccc(C(=O)COC(=O)c2c[n-]c(=O)[n-]2)c(=O)n1Cc1ccc([O-])cc1 (3D coordinates assigned)
Cc1ccc(C(=O)COC(=O)c2c[n-]c(=O)[n-]2)c(=O)n1Cc1ccc([O-])cc1 (optimized conformer: 78.52782078476477 kcal/mol)

>  <smiles>  (2960) 
Cc1ccc(C(=O)COC(=O)c2c[nH]c(=O)[nH]2)c(=O)n1Cc1ccc(O)cc1

>  <score_type>  (2960) 
oracle

>  <origin>  (2960) 
adg

>  <m_score__min__energy>  (2960) 
-14.74

>  <m_primary>  (2960) 
energy

$$$$
91:0
     RDKit          3D

 30 32  0  0  0  0  0  0  0  0999 V2000
   61.8260   32.6840   46.7760 C   0  0  0  0  0  0  0  0  0  0  0  0
   62.3040   32.8960   48.1820 C   0  0  0  0  0  0  0  0  0  0  0  0
   62.9410   33.9540   48.4460 O   0  0  0  0  0  0  0  0  0  0  0  0
   62.0420   31.9280   49.2220 N   0  0  0  0  0  0  0  0  0  0  0  0
   62.4780   32.1760   50.6020 C   0  0  0  0  0  0  0  0  0  0  0  0
   61.3940   31.7540   51.6160 C   0  0  0  0  0  0  0  0  0  0  0  0
   60.5560   30.6110   51.1780 N   0  0  0  0  0  0  0  0  0  0  0  0
   58.9470   31.1340   50.7240 S   0  0  0  0  0  0  0  0  0  0  0  0
   58.2120   31.6580   51.9280 O   0  0  0  0  0  0  0  0  0  0  0  0
   58.1840   29.9600   50.1800 O   0  0  0  0  0  0  0  0  0  0  0  0
   59.0150   32.3760   49.4730 C   0  0  0  0  0  0  0  0  0  0  0  0
   59.5790   33.6220   49.7670 C   0  0  0  0  0  0  0  0  0  0  0  0
   59.6490   34.6100   48.7830 C   0  0  0  0  0  0  0  0  0  0  0  0
   59.1480   34.3630   47.5030 C   0  0  0  0  0  0  0  0  0  0  0  0
   58.5520   33.1260   47.2000 C   0  0  0  0  0  0  0  0  0  0  0  0
   58.0140   32.8460   45.8480 C   0  0  0  0  0  0  0  0  0  0  0  0
   57.0200   33.5000   45.4350 O   0  0  0  0  0  0  0  0  0  0  0  0
   58.5770   31.8440   44.9880 N   0  0  0  0  0  0  0  0  0  0  0  0
   58.6760   30.4420   45.2760 C   0  0  0  0  0  0  0  0  0  0  0  0
   59.8350   29.9870   45.9210 C   0  0  0  0  0  0  0  0  0  0  0  0
   60.0360   28.6250   46.1420 C   0  0  0  0  0  0  0  0  0  0  0  0
   59.0750   27.7020   45.7310 C   0  0  0  0  0  0  0  0  0  0  0  0
   57.8960   28.1400   45.1240 C   0  0  0  0  0  0  0  0  0  0  0  0
   57.6660   29.5130   44.9100 C   0  0  0  0  0  0  0  0  0  0  0  0
   56.3480   29.9360   44.3780 C   0  0  0  0  0  0  0  0  0  0  0  0
   55.1520   29.3230   44.8540 N   0  0  0  0  0  0  0  0  0  0  0  0
   56.2670   30.8660   43.5320 O   0  0  0  0  0  0  0  0  0  0  0  0
   58.5020   32.1310   48.1920 C   0  0  0  0  0  0  0  0  0  0  0  0
   61.1930   29.7840   50.1350 C   0  0  0  0  0  0  0  0  0  0  0  0
   61.5160   30.6000   48.8770 C   0  0  0  0  0  0  0  0  0  0  0  0
  1  2  1  0
  2  3  2  0
  2  4  1  0
  4  5  1  0
  5  6  1  0
  6  7  1  0
  7  8  1  0
  8  9  2  0
  8 10  2  0
  8 11  1  0
 11 12  2  0
 12 13  1  0
 13 14  2  0
 14 15  1  0
 15 16  1  0
 16 17  2  0
 16 18  1  0
 18 19  1  0
 19 20  2  0
 20 21  1  0
 21 22  2  0
 22 23  1  0
 23 24  2  0
 24 25  1  0
 25 26  1  0
 25 27  2  0
 15 28  2  0
  7 29  1  0
 29 30  1  0
 30  4  1  0
 28 11  1  0
 24 19  1  0
M  CHG  2  18  -1  26  -1
M  END
>  <UniqueID>  (2961) 
87

>  <SMILES>  (2961) 
CC(=O)N1CCN(S(=O)(=O)c2cccc(C(=O)[N-]c3ccccc3C([NH-])=O)c2)CC1

>  <Energy>  (2961) 
67.88935520816915

>  <Genealogy>  (2961) 
CC(=O)N1CCN(S(=O)(=O)c2cccc(C(=O)[N-]c3ccccc3C([NH-])=O)c2)CC1 (protonated)
CC(=O)N1CCN(S(=O)(=O)c2cccc(C(=O)[N-]c3ccccc3C([NH-])=O)c2)CC1 (3D coordinates assigned)
CC(=O)N1CCN(S(=O)(=O)c2cccc(C(=O)[N-]c3ccccc3C([NH-])=O)c2)CC1 (nonaromatic ring conformer: 67.88935520816915 kcal/mol)

>  <smiles>  (2961) 
CC(=O)N1CCN(S(=O)(=O)c2cccc(C(=O)Nc3ccccc3C(N)=O)c2)CC1

>  <score_type>  (2961) 
oracle

>  <origin>  (2961) 
adg

>  <m_score__min__energy>  (2961) 
-15.529999999999999

>  <m_primary>  (2961) 
energy

$$$$
13:0
     RDKit          3D

 24 25  0  0  0  0  0  0  0  0999 V2000
   58.7730   28.9390   48.7710 C   0  0  0  0  0  0  0  0  0  0  0  0
   59.9500   28.0460   48.3820 C   0  0  0  0  0  0  0  0  0  0  0  0
   59.9600   27.7700   46.9330 N   0  0  0  0  0  0  0  0  0  0  0  0
   60.6640   28.6870   46.0140 C   0  0  0  0  0  0  0  0  0  0  0  0
   60.5720   30.1340   46.4280 C   0  0  0  0  0  0  0  0  0  0  0  0
   61.6320   30.7670   46.6790 O   0  0  0  0  0  0  0  0  0  0  0  0
   59.3280   30.8440   46.4410 N   0  0  0  0  0  0  0  0  0  0  0  0
   58.3120   30.7950   45.4330 C   0  0  0  0  0  0  0  0  0  0  0  0
   58.4540   31.4880   44.2200 C   0  0  0  0  0  0  0  0  0  0  0  0
   57.4810   31.3680   43.2230 C   0  0  0  0  0  0  0  0  0  0  0  0
   56.3730   30.5410   43.4210 C   0  0  0  0  0  0  0  0  0  0  0  0
   56.2390   29.8260   44.6160 C   0  0  0  0  0  0  0  0  0  0  0  0
   55.1430   28.9950   44.8100 O   0  0  0  0  0  0  0  0  0  0  0  0
   57.2120   29.9460   45.6150 C   0  0  0  0  0  0  0  0  0  0  0  0
   59.6990   26.4110   46.5070 C   0  0  0  0  0  0  0  0  0  0  0  0
   60.6360   25.7310   46.0020 O   0  0  0  0  0  0  0  0  0  0  0  0
   58.3690   25.7740   46.6560 C   0  0  0  0  0  0  0  0  0  0  0  0
   57.2100   26.4340   46.2200 C   0  0  0  0  0  0  0  0  0  0  0  0
   55.9790   25.7910   46.3600 C   0  0  0  0  0  0  0  0  0  0  0  0
   54.9210   26.3600   45.9840 O   0  0  0  0  0  0  0  0  0  0  0  0
   55.9220   24.5490   46.9030 N   0  0  0  0  0  0  0  0  0  0  0  0
   57.0510   23.9150   47.3120 C   0  0  0  0  0  0  0  0  0  0  0  0
   56.9770   22.7650   47.8150 O   0  0  0  0  0  0  0  0  0  0  0  0
   58.2590   24.5240   47.1810 N   0  0  0  0  0  0  0  0  0  0  0  0
  1  2  1  0
  2  3  1  0
  3  4  1  0
  4  5  1  0
  5  6  2  0
  5  7  1  0
  7  8  1  0
  8  9  2  0
  9 10  1  0
 10 11  2  0
 11 12  1  0
 12 13  1  0
 12 14  2  0
  3 15  1  0
 15 16  2  0
 15 17  1  0
 17 18  2  0
 18 19  1  0
 19 20  2  0
 19 21  1  0
 21 22  1  0
 22 23  2  0
 22 24  1  0
 14  8  1  0
 24 17  1  0
M  CHG  4   7  -1  13  -1  21  -1  24  -1
M  END
>  <UniqueID>  (2962) 
13

>  <SMILES>  (2962) 
CCN(CC(=O)[N-]c1cccc([O-])c1)C(=O)c1cc(=O)[n-]c(=O)[n-]1

>  <Energy>  (2962) 
44.34566853962886

>  <Genealogy>  (2962) 
CCN(CC(=O)[N-]c1cccc([O-])c1)C(=O)c1cc(=O)[n-]c(=O)[n-]1 (protonated)
CCN(CC(=O)[N-]c1cccc([O-])c1)C(=O)c1cc(=O)[n-]c(=O)[n-]1 (3D coordinates assigned)
CCN(CC(=O)[N-]c1cccc([O-])c1)C(=O)c1cc(=O)[n-]c(=O)[n-]1 (optimized conformer: 44.34566853962886 kcal/mol)

>  <smiles>  (2962) 
CCN(CC(=O)Nc1cccc(O)c1)C(=O)c1cc(=O)[nH]c(=O)[nH]1

>  <score_type>  (2962) 
oracle

>  <origin>  (2962) 
adg

>  <m_score__min__energy>  (2962) 
-14.779999999999999

>  <m_primary>  (2962) 
energy

$$$$
16:0
     RDKit          3D

 24 25  0  0  0  0  0  0  0  0999 V2000
   57.1610   31.0140   42.7550 O   0  0  0  0  0  0  0  0  0  0  0  0
   57.0940   30.8980   44.0070 C   0  0  0  0  0  0  0  0  0  0  0  0
   56.8800   32.0710   44.8040 N   0  0  0  0  0  0  0  0  0  0  0  0
   57.8420   32.6070   45.7630 C   0  0  0  0  0  0  0  0  0  0  0  0
   58.2770   34.0120   45.3460 C   0  0  0  0  0  0  0  0  0  0  0  0
   59.4750   34.7090   46.4760 S   0  0  0  0  0  0  0  0  0  0  0  0
   59.8530   36.0730   45.9700 O   0  0  0  0  0  0  0  0  0  0  0  0
   58.9060   34.8650   47.8590 O   0  0  0  0  0  0  0  0  0  0  0  0
   60.9080   33.7290   46.4990 N   0  0  0  0  0  0  0  0  0  0  0  0
   61.8760   33.6200   47.5520 C   0  0  0  0  0  0  0  0  0  0  0  0
   63.1560   33.1480   47.2280 C   0  0  0  0  0  0  0  0  0  0  0  0
   64.1400   33.0280   48.2130 C   0  0  0  0  0  0  0  0  0  0  0  0
   63.8550   33.3850   49.5330 C   0  0  0  0  0  0  0  0  0  0  0  0
   62.5860   33.8630   49.8670 C   0  0  0  0  0  0  0  0  0  0  0  0
   62.3100   34.2100   51.1480 F   0  0  0  0  0  0  0  0  0  0  0  0
   61.5990   33.9860   48.8830 C   0  0  0  0  0  0  0  0  0  0  0  0
   57.2450   29.5610   44.6160 C   0  0  0  0  0  0  0  0  0  0  0  0
   58.5260   29.0230   44.8130 C   0  0  0  0  0  0  0  0  0  0  0  0
   58.6800   27.7630   45.3960 C   0  0  0  0  0  0  0  0  0  0  0  0
   57.5570   27.0290   45.7840 C   0  0  0  0  0  0  0  0  0  0  0  0
   56.2770   27.5590   45.6020 C   0  0  0  0  0  0  0  0  0  0  0  0
   55.1630   26.8250   45.9940 O   0  0  0  0  0  0  0  0  0  0  0  0
   56.1160   28.8270   45.0250 C   0  0  0  0  0  0  0  0  0  0  0  0
   54.8370   29.3450   44.8480 O   0  0  0  0  0  0  0  0  0  0  0  0
  1  2  2  0
  2  3  1  0
  3  4  1  0
  4  5  1  0
  5  6  1  0
  6  7  2  0
  6  8  2  0
  6  9  1  0
  9 10  1  0
 10 11  2  0
 11 12  1  0
 12 13  2  0
 13 14  1  0
 14 15  1  0
 14 16  2  0
  2 17  1  0
 17 18  2  0
 18 19  1  0
 19 20  2  0
 20 21  1  0
 21 22  1  0
 21 23  2  0
 23 24  1  0
 16 10  1  0
 23 17  1  0
M  CHG  4   3  -1   9  -1  22  -1  24  -1
M  END
>  <UniqueID>  (2963) 
16

>  <SMILES>  (2963) 
O=C([N-]CCS(=O)(=O)[N-]c1cccc(F)c1)c1cccc([O-])c1[O-]

>  <Energy>  (2963) 
36.42614628933469

>  <Genealogy>  (2963) 
O=C([N-]CCS(=O)(=O)[N-]c1cccc(F)c1)c1cccc([O-])c1[O-] (protonated)
O=C([N-]CCS(=O)(=O)[N-]c1cccc(F)c1)c1cccc([O-])c1[O-] (3D coordinates assigned)
O=C([N-]CCS(=O)(=O)[N-]c1cccc(F)c1)c1cccc([O-])c1[O-] (optimized conformer: 36.42614628933469 kcal/mol)

>  <smiles>  (2963) 
O=C(NCCS(=O)(=O)Nc1cccc(F)c1)c1cccc(O)c1O

>  <score_type>  (2963) 
oracle

>  <origin>  (2963) 
adg

>  <m_score__min__energy>  (2963) 
-17.449999999999999

>  <m_primary>  (2963) 
energy

$$$$
26:0
     RDKit          3D

 29 32  0  0  0  0  0  0  0  0999 V2000
   54.1070   29.2640   54.6120 C   0  0  0  0  0  0  0  0  0  0  0  0
   54.4580   30.1200   53.6390 C   0  0  0  0  0  0  0  0  0  0  0  0
   53.6830   30.5120   52.5350 C   0  0  0  0  0  0  0  0  0  0  0  0
   52.3850   30.3010   52.2430 C   0  0  0  0  0  0  0  0  0  0  0  0
   51.6950   30.7500   51.0240 C   0  0  0  0  0  0  0  0  0  0  0  0
   51.6730   30.0440   49.8810 N   0  0  0  0  0  0  0  0  0  0  0  0
   51.0560   30.8760   49.0130 C   0  0  0  0  0  0  0  0  0  0  0  0
   50.8290   30.5590   47.8160 O   0  0  0  0  0  0  0  0  0  0  0  0
   50.7140   32.0780   49.5240 N   0  0  0  0  0  0  0  0  0  0  0  0
   51.1400   31.9880   50.7940 C   0  0  0  0  0  0  0  0  0  0  0  0
   51.0470   33.0260   51.7140 O   0  0  0  0  0  0  0  0  0  0  0  0
   54.5270   31.2320   51.7080 C   0  0  0  0  0  0  0  0  0  0  0  0
   55.7410   31.3230   52.3540 C   0  0  0  0  0  0  0  0  0  0  0  0
   56.9010   32.0650   51.8200 C   0  0  0  0  0  0  0  0  0  0  0  0
   57.0270   33.2810   52.1280 O   0  0  0  0  0  0  0  0  0  0  0  0
   57.8940   31.4300   50.9890 N   0  0  0  0  0  0  0  0  0  0  0  0
   58.2400   30.0120   51.1740 C   0  0  0  0  0  0  0  0  0  0  0  0
   58.5010   29.3530   49.8160 C   0  0  0  0  0  0  0  0  0  0  0  0
   59.4040   30.1590   48.9790 N   0  0  0  0  0  0  0  0  0  0  0  0
   59.9840   29.5900   47.7840 C   0  0  0  0  0  0  0  0  0  0  0  0
   61.0250   30.1060   47.2900 O   0  0  0  0  0  0  0  0  0  0  0  0
   59.4020   28.3390   47.1540 C   0  0  0  0  0  0  0  0  0  0  0  0
   60.1790   27.8830   45.9220 C   0  0  0  0  0  0  0  0  0  0  0  0
   58.9420   28.1010   45.0590 C   0  0  0  0  0  0  0  0  0  0  0  0
   58.1610   28.5550   46.2840 C   0  0  0  0  0  0  0  0  0  0  0  0
   59.8550   31.4770   49.4510 C   0  0  0  0  0  0  0  0  0  0  0  0
   58.6900   32.2590   50.0720 C   0  0  0  0  0  0  0  0  0  0  0  0
   55.7080   30.6410   53.5230 N   0  0  0  0  0  0  0  0  0  0  0  0
   56.8440   30.3780   54.4140 C   0  0  0  0  0  0  0  0  0  0  0  0
  1  2  2  0
  2  3  1  0
  3  4  2  3
  4  5  1  0
  5  6  1  0
  6  7  1  0
  7  8  2  0
  7  9  1  0
  9 10  1  0
 10 11  1  0
  3 12  1  0
 12 13  2  0
 13 14  1  0
 14 15  2  0
 14 16  1  0
 16 17  1  0
 17 18  1  0
 18 19  1  0
 19 20  1  0
 20 21  2  0
 20 22  1  0
 22 23  1  0
 23 24  1  0
 24 25  1  0
 19 26  1  0
 26 27  1  0
 13 28  1  0
 28 29  1  0
 28  2  1  0
 10  5  2  0
 27 16  1  0
 25 22  1  0
M  CHG  3   6  -1   9  -1  11  -1
M  END
>  <UniqueID>  (2964) 
26

>  <SMILES>  (2964) 
C=c1c(=Cc2[n-]c(=O)[n-]c2[O-])cc(C(=O)N2CCN(C(=O)C3CCC3)CC2)n1C

>  <Energy>  (2964) 
189.4053700634431

>  <Genealogy>  (2964) 
C=c1c(=Cc2[n-]c(=O)[n-]c2[O-])cc(C(=O)N2CCN(C(=O)C3CCC3)CC2)n1C (protonated)
C=c1c(=Cc2[n-]c(=O)[n-]c2[O-])cc(C(=O)N2CCN(C(=O)C3CCC3)CC2)n1C (3D coordinates assigned)
C=c1c(=Cc2[n-]c(=O)[n-]c2[O-])cc(C(=O)N2CCN(C(=O)C3CCC3)CC2)n1C (nonaromatic ring conformer: 189.4053700634431 kcal/mol)

>  <smiles>  (2964) 
C=c1c(=Cc2[nH]c(=O)[nH]c2O)cc(C(=O)N2CCN(C(=O)C3CCC3)CC2)n1C

>  <score_type>  (2964) 
oracle

>  <origin>  (2964) 
adg

>  <m_score__min__energy>  (2964) 
-17.59

>  <m_primary>  (2964) 
energy

$$$$
32:0
     RDKit          3D

 31 34  0  0  0  0  0  0  0  0999 V2000
   53.6530   28.2660   53.1580 C   0  0  0  0  0  0  0  0  0  0  0  0
   54.5110   29.2860   52.9990 C   0  0  0  0  0  0  0  0  0  0  0  0
   54.1990   30.5740   52.5360 C   0  0  0  0  0  0  0  0  0  0  0  0
   53.0150   31.1940   52.3910 C   0  0  0  0  0  0  0  0  0  0  0  0
   52.2630   31.3240   51.1300 C   0  0  0  0  0  0  0  0  0  0  0  0
   52.2390   30.3980   50.1540 N   0  0  0  0  0  0  0  0  0  0  0  0
   51.2990   30.8650   49.3040 C   0  0  0  0  0  0  0  0  0  0  0  0
   50.9960   30.2680   48.2380 O   0  0  0  0  0  0  0  0  0  0  0  0
   50.7090   32.0150   49.6890 N   0  0  0  0  0  0  0  0  0  0  0  0
   51.3250   32.2820   50.8530 C   0  0  0  0  0  0  0  0  0  0  0  0
   51.0200   33.3770   51.6520 O   0  0  0  0  0  0  0  0  0  0  0  0
   55.4020   31.1860   52.2390 C   0  0  0  0  0  0  0  0  0  0  0  0
   56.3910   30.3030   52.6050 C   0  0  0  0  0  0  0  0  0  0  0  0
   57.8340   30.5580   52.4240 C   0  0  0  0  0  0  0  0  0  0  0  0
   58.5500   30.6360   53.4600 O   0  0  0  0  0  0  0  0  0  0  0  0
   58.4440   30.7600   51.1230 N   0  0  0  0  0  0  0  0  0  0  0  0
   59.9190   30.8060   51.1720 C   0  0  0  0  0  0  0  0  0  0  0  0
   60.5270   30.8870   49.7590 C   0  0  0  0  0  0  0  0  0  0  0  0
   59.6320   31.5140   48.7550 N   0  0  0  0  0  0  0  0  0  0  0  0
   58.8940   30.5490   47.9070 C   0  0  0  0  0  0  0  0  0  0  0  0
   59.0050   30.9300   46.4550 C   0  0  0  0  0  0  0  0  0  0  0  0
   59.9340   30.4220   45.7670 O   0  0  0  0  0  0  0  0  0  0  0  0
   58.0410   31.7960   45.8170 N   0  0  0  0  0  0  0  0  0  0  0  0
   57.4560   31.3800   44.5360 C   0  0  0  0  0  0  0  0  0  0  0  0
   57.7740   33.1510   46.3180 C   0  0  0  0  0  0  0  0  0  0  0  0
   57.4590   34.1560   45.2170 C   0  0  0  0  0  0  0  0  0  0  0  0
   58.8010   34.2070   45.9220 C   0  0  0  0  0  0  0  0  0  0  0  0
   58.7580   32.5370   49.3490 C   0  0  0  0  0  0  0  0  0  0  0  0
   57.8880   31.9850   50.5020 C   0  0  0  0  0  0  0  0  0  0  0  0
   55.8620   29.1600   53.0970 N   0  0  0  0  0  0  0  0  0  0  0  0
   56.6410   27.9860   53.5050 C   0  0  0  0  0  0  0  0  0  0  0  0
  1  2  2  0
  2  3  1  0
  3  4  2  3
  4  5  1  0
  5  6  1  0
  6  7  1  0
  7  8  2  0
  7  9  1  0
  9 10  1  0
 10 11  1  0
  3 12  1  0
 12 13  2  0
 13 14  1  0
 14 15  2  0
 14 16  1  0
 16 17  1  0
 17 18  1  0
 18 19  1  0
 19 20  1  0
 20 21  1  0
 21 22  2  0
 21 23  1  0
 23 24  1  0
 23 25  1  0
 25 26  1  0
 26 27  1  0
 19 28  1  0
 28 29  1  0
 13 30  1  0
 30 31  1  0
 30  2  1  0
 10  5  2  0
 29 16  1  0
 27 25  1  0
M  CHG  4   6  -1   9  -1  11  -1  16   1
M  END
>  <UniqueID>  (2965) 
32

>  <SMILES>  (2965) 
C=c1c(=Cc2[n-]c(=O)[n-]c2[O-])cc(C(=O)[NH+]2CCN(CC(=O)N(C)C3CC3)CC2)n1C

>  <Energy>  (2965) 
417.06150797637537

>  <Genealogy>  (2965) 
C=c1c(=Cc2[n-]c(=O)[n-]c2[O-])cc(C(=O)[NH+]2CCN(CC(=O)N(C)C3CC3)CC2)n1C (protonated)
C=c1c(=Cc2[n-]c(=O)[n-]c2[O-])cc(C(=O)[NH+]2CCN(CC(=O)N(C)C3CC3)CC2)n1C (3D coordinates assigned)
C=c1c(=Cc2[n-]c(=O)[n-]c2[O-])cc(C(=O)[NH+]2CCN(CC(=O)N(C)C3CC3)CC2)n1C (nonaromatic ring conformer: 417.06150797637537 kcal/mol)

>  <smiles>  (2965) 
C=c1c(=Cc2[nH]c(=O)[nH]c2O)cc(C(=O)N2CCN(CC(=O)N(C)C3CC3)CC2)n1C

>  <score_type>  (2965) 
oracle

>  <origin>  (2965) 
adg

>  <m_score__min__energy>  (2965) 
-16.68

>  <m_primary>  (2965) 
energy

$$$$
46:0
     RDKit          3D

 33 36  0  0  0  0  0  0  0  0999 V2000
   59.9020   27.8160   46.4860 C   0  0  0  0  0  0  0  0  0  0  0  0
   58.9190   28.5730   45.9730 C   0  0  0  0  0  0  0  0  0  0  0  0
   57.9150   28.1620   45.0800 C   0  0  0  0  0  0  0  0  0  0  0  0
   57.5270   26.9320   44.6900 C   0  0  0  0  0  0  0  0  0  0  0  0
   57.0480   25.8640   45.5830 C   0  0  0  0  0  0  0  0  0  0  0  0
   57.8120   24.8660   46.0650 N   0  0  0  0  0  0  0  0  0  0  0  0
   56.9880   24.2320   46.9280 C   0  0  0  0  0  0  0  0  0  0  0  0
   57.3410   23.2150   47.5800 O   0  0  0  0  0  0  0  0  0  0  0  0
   55.7600   24.7800   47.0450 N   0  0  0  0  0  0  0  0  0  0  0  0
   55.8200   25.8200   46.1980 C   0  0  0  0  0  0  0  0  0  0  0  0
   54.7780   26.7140   45.9950 O   0  0  0  0  0  0  0  0  0  0  0  0
   57.3100   29.3190   44.6200 C   0  0  0  0  0  0  0  0  0  0  0  0
   57.8930   30.3720   45.2940 C   0  0  0  0  0  0  0  0  0  0  0  0
   57.5150   31.8110   45.1150 C   0  0  0  0  0  0  0  0  0  0  0  0
   58.8690   29.9220   46.1160 N   0  0  0  0  0  0  0  0  0  0  0  0
   59.7150   30.7380   46.9450 C   0  0  0  0  0  0  0  0  0  0  0  0
   61.1010   30.7540   46.7350 C   0  0  0  0  0  0  0  0  0  0  0  0
   61.9260   31.5490   47.5360 C   0  0  0  0  0  0  0  0  0  0  0  0
   61.3750   32.3480   48.5530 C   0  0  0  0  0  0  0  0  0  0  0  0
   62.2560   33.1840   49.3980 C   0  0  0  0  0  0  0  0  0  0  0  0
   61.8390   34.3080   49.7880 O   0  0  0  0  0  0  0  0  0  0  0  0
   63.5730   32.7440   49.7870 N   0  0  0  0  0  0  0  0  0  0  0  0
   63.8530   31.3260   50.0410 C   0  0  0  0  0  0  0  0  0  0  0  0
   64.8090   31.1940   51.2300 C   0  0  0  0  0  0  0  0  0  0  0  0
   66.0960   31.9060   51.0080 N   0  0  0  0  0  0  0  0  0  0  0  0
   66.9520   32.0780   52.2310 C   0  0  0  0  0  0  0  0  0  0  0  0
   67.4600   30.7070   52.7520 C   0  0  0  0  0  0  0  0  0  0  0  0
   68.2150   32.9000   51.8720 C   0  0  0  0  0  0  0  0  0  0  0  0
   66.1890   32.7830   53.3770 C   0  0  0  0  0  0  0  0  0  0  0  0
   65.9920   33.0980   50.1170 C   0  0  0  0  0  0  0  0  0  0  0  0
   64.5960   33.7380   50.1210 C   0  0  0  0  0  0  0  0  0  0  0  0
   59.9870   32.3120   48.7740 C   0  0  0  0  0  0  0  0  0  0  0  0
   59.1630   31.5180   47.9710 C   0  0  0  0  0  0  0  0  0  0  0  0
  1  2  2  0
  2  3  1  0
  3  4  2  3
  4  5  1  0
  5  6  1  0
  6  7  1  0
  7  8  2  0
  7  9  1  0
  9 10  1  0
 10 11  1  0
  3 12  1  0
 12 13  2  0
 13 14  1  0
 13 15  1  0
 15 16  1  0
 16 17  2  0
 17 18  1  0
 18 19  2  0
 19 20  1  0
 20 21  2  0
 20 22  1  0
 22 23  1  0
 23 24  1  0
 24 25  1  0
 25 26  1  0
 26 27  1  0
 26 28  1  0
 26 29  1  0
 25 30  1  0
 30 31  1  0
 19 32  1  0
 32 33  2  0
 15  2  1  0
 33 16  1  0
 10  5  2  0
 31 22  1  0
M  CHG  3   6  -1   9  -1  11  -1
M  END
>  <UniqueID>  (2966) 
45

>  <SMILES>  (2966) 
C=c1c(=Cc2[n-]c(=O)[n-]c2[O-])cc(C)n1-c1ccc(C(=O)N2CCN(C(C)(C)C)CC2)cc1

>  <Energy>  (2966) 
155.11243834617198

>  <Genealogy>  (2966) 
C=c1c(=Cc2[n-]c(=O)[n-]c2[O-])cc(C)n1-c1ccc(C(=O)N2CCN(C(C)(C)C)CC2)cc1 (protonated)
C=c1c(=Cc2[n-]c(=O)[n-]c2[O-])cc(C)n1-c1ccc(C(=O)N2CCN(C(C)(C)C)CC2)cc1 (3D coordinates assigned)
C=c1c(=Cc2[n-]c(=O)[n-]c2[O-])cc(C)n1-c1ccc(C(=O)N2CCN(C(C)(C)C)CC2)cc1 (nonaromatic ring conformer: 155.11243834617198 kcal/mol)

>  <smiles>  (2966) 
C=c1c(=Cc2[nH]c(=O)[nH]c2O)cc(C)n1-c1ccc(C(=O)N2CCN(C(C)(C)C)CC2)cc1

>  <score_type>  (2966) 
oracle

>  <origin>  (2966) 
adg

>  <m_score__min__energy>  (2966) 
-16.66

>  <m_primary>  (2966) 
energy

$$$$
49:0
     RDKit          3D

 31 34  0  0  0  0  0  0  0  0999 V2000
   59.8170   29.3920   44.7140 C   0  0  0  0  0  0  0  0  0  0  0  0
   59.5470   29.1110   45.9980 C   0  0  0  0  0  0  0  0  0  0  0  0
   58.7800   28.0380   46.4810 C   0  0  0  0  0  0  0  0  0  0  0  0
   57.9650   27.1740   45.8430 C   0  0  0  0  0  0  0  0  0  0  0  0
   57.2700   26.0350   46.4650 C   0  0  0  0  0  0  0  0  0  0  0  0
   57.8790   24.9460   46.9680 N   0  0  0  0  0  0  0  0  0  0  0  0
   56.8490   24.1340   47.2900 C   0  0  0  0  0  0  0  0  0  0  0  0
   57.0160   23.0020   47.8130 O   0  0  0  0  0  0  0  0  0  0  0  0
   55.6260   24.6260   46.9980 N   0  0  0  0  0  0  0  0  0  0  0  0
   55.9130   25.8240   46.4630 C   0  0  0  0  0  0  0  0  0  0  0  0
   54.9540   26.7030   45.9770 O   0  0  0  0  0  0  0  0  0  0  0  0
   58.9790   28.0060   47.8500 C   0  0  0  0  0  0  0  0  0  0  0  0
   59.7830   29.0820   48.1640 C   0  0  0  0  0  0  0  0  0  0  0  0
   60.2310   29.4260   49.5520 C   0  0  0  0  0  0  0  0  0  0  0  0
   60.1240   29.7610   47.0430 N   0  0  0  0  0  0  0  0  0  0  0  0
   60.9900   30.9510   46.9800 C   0  0  0  0  0  0  0  0  0  0  0  0
   60.1650   32.2060   46.7720 C   0  0  0  0  0  0  0  0  0  0  0  0
   58.7750   32.0730   46.5930 C   0  0  0  0  0  0  0  0  0  0  0  0
   57.9770   33.1930   46.3490 C   0  0  0  0  0  0  0  0  0  0  0  0
   58.5510   34.4600   46.2860 C   0  0  0  0  0  0  0  0  0  0  0  0
   59.9230   34.6160   46.4860 C   0  0  0  0  0  0  0  0  0  0  0  0
   60.7390   33.5050   46.7540 C   0  0  0  0  0  0  0  0  0  0  0  0
   62.1790   33.7430   46.9970 C   0  0  0  0  0  0  0  0  0  0  0  0
   62.8970   34.1120   46.0270 O   0  0  0  0  0  0  0  0  0  0  0  0
   62.7710   33.5780   48.3040 N   0  0  0  0  0  0  0  0  0  0  0  0
   62.1720   34.2310   49.4800 C   0  0  0  0  0  0  0  0  0  0  0  0
   62.3120   33.3310   50.7010 C   0  0  0  0  0  0  0  0  0  0  0  0
   63.7100   32.9910   50.9020 N   0  0  0  0  0  0  0  0  0  0  0  0
   64.5790   32.7500   49.7950 C   0  0  0  0  0  0  0  0  0  0  0  0
   65.7490   32.3350   50.0060 O   0  0  0  0  0  0  0  0  0  0  0  0
   64.1270   33.0050   48.3820 C   0  0  0  0  0  0  0  0  0  0  0  0
  1  2  2  0
  2  3  1  0
  3  4  2  3
  4  5  1  0
  5  6  1  0
  6  7  1  0
  7  8  2  0
  7  9  1  0
  9 10  1  0
 10 11  1  0
  3 12  1  0
 12 13  2  0
 13 14  1  0
 13 15  1  0
 15 16  1  0
 16 17  1  0
 17 18  2  0
 18 19  1  0
 19 20  2  0
 20 21  1  0
 21 22  2  0
 22 23  1  0
 23 24  2  0
 23 25  1  0
 25 26  1  0
 26 27  1  0
 27 28  1  0
 28 29  1  0
 29 30  2  0
 29 31  1  0
 15  2  1  0
 22 17  1  0
 31 25  1  0
 10  5  2  0
M  CHG  4   6  -1   9  -1  11  -1  28  -1
M  END
>  <UniqueID>  (2967) 
48

>  <SMILES>  (2967) 
C=c1c(=Cc2[n-]c(=O)[n-]c2[O-])cc(C)n1Cc1ccccc1C(=O)N1CC[N-]C(=O)C1

>  <Energy>  (2967) 
128.05142795146344

>  <Genealogy>  (2967) 
C=c1c(=Cc2[n-]c(=O)[n-]c2[O-])cc(C)n1Cc1ccccc1C(=O)N1CC[N-]C(=O)C1 (protonated)
C=c1c(=Cc2[n-]c(=O)[n-]c2[O-])cc(C)n1Cc1ccccc1C(=O)N1CC[N-]C(=O)C1 (3D coordinates assigned)
C=c1c(=Cc2[n-]c(=O)[n-]c2[O-])cc(C)n1Cc1ccccc1C(=O)N1CC[N-]C(=O)C1 (nonaromatic ring conformer: 128.05142795146344 kcal/mol)

>  <smiles>  (2967) 
C=c1c(=Cc2[nH]c(=O)[nH]c2O)cc(C)n1Cc1ccccc1C(=O)N1CCNC(=O)C1

>  <score_type>  (2967) 
oracle

>  <origin>  (2967) 
adg

>  <m_score__min__energy>  (2967) 
-17.02

>  <m_primary>  (2967) 
energy

$$$$
51:0
     RDKit          3D

 33 37  0  0  0  0  0  0  0  0999 V2000
   54.7910   31.2160   52.2940 C   0  0  0  0  0  0  0  0  0  0  0  0
   54.7120   29.9900   52.8330 C   0  0  0  0  0  0  0  0  0  0  0  0
   53.5530   29.2220   53.0360 C   0  0  0  0  0  0  0  0  0  0  0  0
   52.2490   29.5390   52.9250 C   0  0  0  0  0  0  0  0  0  0  0  0
   51.7080   30.7250   52.2430 C   0  0  0  0  0  0  0  0  0  0  0  0
   51.9680   31.0600   50.9660 N   0  0  0  0  0  0  0  0  0  0  0  0
   51.3880   32.2740   50.8370 C   0  0  0  0  0  0  0  0  0  0  0  0
   51.4040   32.9210   49.7580 O   0  0  0  0  0  0  0  0  0  0  0  0
   50.8030   32.7430   51.9590 N   0  0  0  0  0  0  0  0  0  0  0  0
   51.0270   31.7560   52.8430 C   0  0  0  0  0  0  0  0  0  0  0  0
   50.6230   31.7950   54.1740 O   0  0  0  0  0  0  0  0  0  0  0  0
   53.9860   27.9670   53.4340 C   0  0  0  0  0  0  0  0  0  0  0  0
   55.3620   28.0240   53.5170 C   0  0  0  0  0  0  0  0  0  0  0  0
   56.2410   26.8900   53.9480 C   0  0  0  0  0  0  0  0  0  0  0  0
   55.8030   29.2510   53.1650 N   0  0  0  0  0  0  0  0  0  0  0  0
   57.1840   29.6430   53.0830 C   0  0  0  0  0  0  0  0  0  0  0  0
   57.9430   29.8050   54.2500 C   0  0  0  0  0  0  0  0  0  0  0  0
   59.2750   30.2120   54.1680 C   0  0  0  0  0  0  0  0  0  0  0  0
   59.8590   30.4600   52.9220 C   0  0  0  0  0  0  0  0  0  0  0  0
   59.1140   30.2900   51.7430 C   0  0  0  0  0  0  0  0  0  0  0  0
   59.7200   30.5590   50.4190 C   0  0  0  0  0  0  0  0  0  0  0  0
   59.8380   29.6120   49.5950 O   0  0  0  0  0  0  0  0  0  0  0  0
   60.1740   31.8760   50.0460 N   0  0  0  0  0  0  0  0  0  0  0  0
   60.7820   32.7780   51.0290 C   0  0  0  0  0  0  0  0  0  0  0  0
   62.0470   33.4030   50.4330 C   0  0  0  0  0  0  0  0  0  0  0  0
   61.8100   34.0630   49.1190 N   0  0  0  0  0  0  0  0  0  0  0  0
   62.9340   34.0760   48.1430 C   0  0  0  0  0  0  0  0  0  0  0  0
   62.6120   33.5770   46.7490 C   0  0  0  0  0  0  0  0  0  0  0  0
   63.4770   32.4720   46.8740 O   0  0  0  0  0  0  0  0  0  0  0  0
   63.8500   32.8690   48.1760 C   0  0  0  0  0  0  0  0  0  0  0  0
   60.5110   33.7580   48.4720 C   0  0  0  0  0  0  0  0  0  0  0  0
   60.0960   32.2900   48.6410 C   0  0  0  0  0  0  0  0  0  0  0  0
   57.7690   29.8960   51.8340 C   0  0  0  0  0  0  0  0  0  0  0  0
  1  2  2  0
  2  3  1  0
  3  4  2  3
  4  5  1  0
  5  6  1  0
  6  7  1  0
  7  8  2  0
  7  9  1  0
  9 10  1  0
 10 11  1  0
  3 12  1  0
 12 13  2  0
 13 14  1  0
 13 15  1  0
 15 16  1  0
 16 17  2  0
 17 18  1  0
 18 19  2  0
 19 20  1  0
 20 21  1  0
 21 22  2  0
 21 23  1  0
 23 24  1  0
 24 25  1  0
 25 26  1  0
 26 27  1  0
 27 28  1  0
 28 29  1  0
 29 30  1  0
 26 31  1  0
 31 32  1  0
 20 33  2  0
 15  2  1  0
 33 16  1  0
 10  5  2  0
 32 23  1  0
 30 27  1  0
M  CHG  2   6  -1   9  -1
M  END
>  <UniqueID>  (2968) 
49

>  <SMILES>  (2968) 
C=c1c(=Cc2[n-]c(=O)[n-]c2O)cc(C)n1-c1cccc(C(=O)N2CCN(C3COC3)CC2)c1

>  <Energy>  (2968) 
219.01207634225906

>  <Genealogy>  (2968) 
C=c1c(=Cc2[n-]c(=O)[n-]c2O)cc(C)n1-c1cccc(C(=O)N2CCN(C3COC3)CC2)c1 (protonated)
C=c1c(=Cc2[n-]c(=O)[n-]c2O)cc(C)n1-c1cccc(C(=O)N2CCN(C3COC3)CC2)c1 (3D coordinates assigned)
C=c1c(=Cc2[n-]c(=O)[n-]c2O)cc(C)n1-c1cccc(C(=O)N2CCN(C3COC3)CC2)c1 (nonaromatic ring conformer: 219.01207634225906 kcal/mol)

>  <smiles>  (2968) 
C=c1c(=Cc2[nH]c(=O)[nH]c2O)cc(C)n1-c1cccc(C(=O)N2CCN(C3COC3)CC2)c1

>  <score_type>  (2968) 
oracle

>  <origin>  (2968) 
adg

>  <m_score__min__energy>  (2968) 
-15.029999999999999

>  <m_primary>  (2968) 
energy

$$$$
54:0
     RDKit          3D

 29 32  0  0  0  0  0  0  0  0999 V2000
   56.2470   30.0580   43.1830 C   0  0  0  0  0  0  0  0  0  0  0  0
   56.8890   29.8160   44.3260 C   0  0  0  0  0  0  0  0  0  0  0  0
   56.9520   28.5950   44.8930 N   0  0  0  0  0  0  0  0  0  0  0  0
   57.6400   28.7380   46.0460 C   0  0  0  0  0  0  0  0  0  0  0  0
   57.9040   27.7690   46.9390 C   0  0  0  0  0  0  0  0  0  0  0  0
   57.3560   26.3960   46.9210 C   0  0  0  0  0  0  0  0  0  0  0  0
   57.9800   25.2910   47.3660 N   0  0  0  0  0  0  0  0  0  0  0  0
   57.0730   24.3130   47.1680 C   0  0  0  0  0  0  0  0  0  0  0  0
   57.2990   23.1090   47.4540 O   0  0  0  0  0  0  0  0  0  0  0  0
   55.9020   24.7260   46.6370 N   0  0  0  0  0  0  0  0  0  0  0  0
   56.0990   26.0460   46.4910 C   0  0  0  0  0  0  0  0  0  0  0  0
   55.1450   26.9150   45.9770 O   0  0  0  0  0  0  0  0  0  0  0  0
   58.0200   30.0590   46.2140 C   0  0  0  0  0  0  0  0  0  0  0  0
   57.5550   30.7460   45.1110 C   0  0  0  0  0  0  0  0  0  0  0  0
   57.6570   32.2300   44.9120 C   0  0  0  0  0  0  0  0  0  0  0  0
   58.5840   32.8270   45.9230 C   0  0  0  0  0  0  0  0  0  0  0  0
   59.8480   33.3470   45.6660 C   0  0  0  0  0  0  0  0  0  0  0  0
   60.4930   33.8290   46.8130 C   0  0  0  0  0  0  0  0  0  0  0  0
   59.7440   33.6690   47.9730 C   0  0  0  0  0  0  0  0  0  0  0  0
   60.1410   34.0990   49.3240 C   0  0  0  0  0  0  0  0  0  0  0  0
   59.2760   34.5770   50.1050 O   0  0  0  0  0  0  0  0  0  0  0  0
   61.4940   33.9450   49.7730 N   0  0  0  0  0  0  0  0  0  0  0  0
   61.7500   33.3930   51.1050 C   0  0  0  0  0  0  0  0  0  0  0  0
   63.2450   33.0770   51.2830 C   0  0  0  0  0  0  0  0  0  0  0  0
   63.8530   32.5600   50.0370 N   0  0  0  0  0  0  0  0  0  0  0  0
   63.3260   31.2330   49.6720 C   0  0  0  0  0  0  0  0  0  0  0  0
   63.7760   33.5240   48.9080 C   0  0  0  0  0  0  0  0  0  0  0  0
   62.6040   34.5200   49.0090 C   0  0  0  0  0  0  0  0  0  0  0  0
   58.2730   32.9560   47.5700 S   0  0  0  0  0  0  0  0  0  0  0  0
  1  2  2  0
  2  3  1  0
  3  4  1  0
  4  5  2  3
  5  6  1  0
  6  7  1  0
  7  8  1  0
  8  9  2  0
  8 10  1  0
 10 11  1  0
 11 12  1  0
  4 13  1  0
 13 14  2  0
 14 15  1  0
 15 16  1  0
 16 17  2  0
 17 18  1  0
 18 19  2  0
 19 20  1  0
 20 21  2  0
 20 22  1  0
 22 23  1  0
 23 24  1  0
 24 25  1  0
 25 26  1  0
 25 27  1  0
 27 28  1  0
 19 29  1  0
 14  2  1  0
 29 16  1  0
 11  6  2  0
 28 22  1  0
M  CHG  3   7  -1  10  -1  12  -1
M  END
>  <UniqueID>  (2969) 
52

>  <SMILES>  (2969) 
C=c1[nH]c(=Cc2[n-]c(=O)[n-]c2[O-])cc1Cc1ccc(C(=O)N2CCN(C)CC2)s1

>  <Energy>  (2969) 
144.39715743929005

>  <Genealogy>  (2969) 
C=c1[nH]c(=Cc2[n-]c(=O)[n-]c2[O-])cc1Cc1ccc(C(=O)N2CCN(C)CC2)s1 (protonated)
C=c1[nH]c(=Cc2[n-]c(=O)[n-]c2[O-])cc1Cc1ccc(C(=O)N2CCN(C)CC2)s1 (3D coordinates assigned)
C=c1[nH]c(=Cc2[n-]c(=O)[n-]c2[O-])cc1Cc1ccc(C(=O)N2CCN(C)CC2)s1 (nonaromatic ring conformer: 144.39715743929005 kcal/mol)

>  <smiles>  (2969) 
C=c1[nH]c(=Cc2[nH]c(=O)[nH]c2O)cc1Cc1ccc(C(=O)N2CCN(C)CC2)s1

>  <score_type>  (2969) 
oracle

>  <origin>  (2969) 
adg

>  <m_score__min__energy>  (2969) 
-17.620000000000001

>  <m_primary>  (2969) 
energy

$$$$
74:0
     RDKit          3D

 32 35  0  0  0  0  0  0  0  0999 V2000
   57.4080   25.1340   43.3860 C   0  0  0  0  0  0  0  0  0  0  0  0
   57.5380   25.5310   44.6630 C   0  0  0  0  0  0  0  0  0  0  0  0
   57.0380   24.8660   45.7960 C   0  0  0  0  0  0  0  0  0  0  0  0
   56.1720   23.8400   45.9130 C   0  0  0  0  0  0  0  0  0  0  0  0
   54.7220   23.9090   45.6680 C   0  0  0  0  0  0  0  0  0  0  0  0
   53.9600   22.8700   45.2800 N   0  0  0  0  0  0  0  0  0  0  0  0
   52.7540   23.4350   45.0570 C   0  0  0  0  0  0  0  0  0  0  0  0
   51.7520   22.7700   44.6860 O   0  0  0  0  0  0  0  0  0  0  0  0
   52.7090   24.7710   45.2540 N   0  0  0  0  0  0  0  0  0  0  0  0
   53.9670   25.0550   45.6250 C   0  0  0  0  0  0  0  0  0  0  0  0
   54.4170   26.3380   45.9110 O   0  0  0  0  0  0  0  0  0  0  0  0
   57.5930   25.5000   46.8940 C   0  0  0  0  0  0  0  0  0  0  0  0
   58.3410   26.5520   46.4120 C   0  0  0  0  0  0  0  0  0  0  0  0
   59.0610   27.5400   47.2810 C   0  0  0  0  0  0  0  0  0  0  0  0
   58.3120   26.5800   45.0590 N   0  0  0  0  0  0  0  0  0  0  0  0
   58.9780   27.5910   44.2190 C   0  0  0  0  0  0  0  0  0  0  0  0
   58.1820   28.8700   44.2020 C   0  0  0  0  0  0  0  0  0  0  0  0
   57.0760   29.0010   43.3500 C   0  0  0  0  0  0  0  0  0  0  0  0
   56.3240   30.1770   43.3480 C   0  0  0  0  0  0  0  0  0  0  0  0
   56.6730   31.2360   44.1890 C   0  0  0  0  0  0  0  0  0  0  0  0
   57.7880   31.1330   45.0410 C   0  0  0  0  0  0  0  0  0  0  0  0
   58.1740   32.2440   45.9490 C   0  0  0  0  0  0  0  0  0  0  0  0
   57.2660   32.9960   46.4040 O   0  0  0  0  0  0  0  0  0  0  0  0
   59.5610   32.5020   46.2900 N   0  0  0  0  0  0  0  0  0  0  0  0
   59.8720   32.0070   47.6510 C   0  0  0  0  0  0  0  0  0  0  0  0
   61.2620   32.4800   48.1340 C   0  0  0  0  0  0  0  0  0  0  0  0
   62.0370   33.0640   47.0210 N   0  0  0  0  0  0  0  0  0  0  0  0
   63.4050   33.4280   47.4480 C   0  0  0  0  0  0  0  0  0  0  0  0
   63.7680   32.7210   48.7510 C   0  0  0  0  0  0  0  0  0  0  0  0
   61.3320   34.2480   46.4830 C   0  0  0  0  0  0  0  0  0  0  0  0
   59.8450   33.9460   46.1850 C   0  0  0  0  0  0  0  0  0  0  0  0
   58.5320   29.9390   45.0440 C   0  0  0  0  0  0  0  0  0  0  0  0
  1  2  2  0
  2  3  1  0
  3  4  2  0
  4  5  1  0
  5  6  1  0
  6  7  1  0
  7  8  2  0
  7  9  1  0
  9 10  1  0
 10 11  1  0
  3 12  1  0
 12 13  2  0
 13 14  1  0
 13 15  1  0
 15 16  1  0
 16 17  1  0
 17 18  2  0
 18 19  1  0
 19 20  2  0
 20 21  1  0
 21 22  1  0
 22 23  2  0
 22 24  1  0
 24 25  1  0
 25 26  1  0
 26 27  1  0
 27 28  1  0
 28 29  1  0
 27 30  1  0
 30 31  1  0
 21 32  2  0
 15  2  1  0
 32 17  1  0
 10  5  2  0
 31 24  1  0
M  CHG  4   6  -1   9  -1  11  -1  24   1
M  END
>  <UniqueID>  (2970) 
69

>  <SMILES>  (2970) 
C=c1/c(=C\c2[n-]c(=O)[n-]c2[O-])cc(C)n1Cc1cccc(C(=O)[NH+]2CCN(CC)CC2)c1

>  <Energy>  (2970) 
142.1036676284528

>  <Genealogy>  (2970) 
C=c1c(=Cc2[n-]c(=O)[n-]c2[O-])cc(C)n1Cc1cccc(C(=O)[NH+]2CCN(CC)CC2)c1 (protonated)
C=c1/c(=C\c2[n-]c(=O)[n-]c2[O-])cc(C)n1Cc1cccc(C(=O)[NH+]2CCN(CC)CC2)c1 (cis-trans isomerization)
C=c1/c(=C\c2[n-]c(=O)[n-]c2[O-])cc(C)n1Cc1cccc(C(=O)[NH+]2CCN(CC)CC2)c1 (3D coordinates assigned)
C=c1/c(=C\c2[n-]c(=O)[n-]c2[O-])cc(C)n1Cc1cccc(C(=O)[NH+]2CCN(CC)CC2)c1 (nonaromatic ring conformer: 142.1036676284528 kcal/mol)

>  <smiles>  (2970) 
C=c1c(=Cc2[nH]c(=O)[nH]c2O)cc(C)n1Cc1cccc(C(=O)N2CCN(CC)CC2)c1

>  <score_type>  (2970) 
oracle

>  <origin>  (2970) 
adg

>  <m_score__min__energy>  (2970) 
-16.399999999999999

>  <m_primary>  (2970) 
energy

$$$$
79:0
     RDKit          3D

 23 25  0  0  0  0  0  0  0  0999 V2000
   54.4280   28.9320   52.5360 C   0  0  0  0  0  0  0  0  0  0  0  0
   55.1400   29.7900   53.5050 C   0  0  0  0  0  0  0  0  0  0  0  0
   54.8380   29.7410   54.7270 O   0  0  0  0  0  0  0  0  0  0  0  0
   56.1570   30.7050   53.0800 N   0  0  0  0  0  0  0  0  0  0  0  0
   56.4320   31.0470   51.6860 C   0  0  0  0  0  0  0  0  0  0  0  0
   57.5440   32.0600   51.6050 C   0  0  0  0  0  0  0  0  0  0  0  0
   57.8460   32.8810   52.7010 C   0  0  0  0  0  0  0  0  0  0  0  0
   58.8480   33.8480   52.5810 C   0  0  0  0  0  0  0  0  0  0  0  0
   59.5180   33.9920   51.4080 N   0  0  0  0  0  0  0  0  0  0  0  0
   59.2510   33.2070   50.3310 C   0  0  0  0  0  0  0  0  0  0  0  0
   59.9570   33.4110   49.1130 N   0  0  0  0  0  0  0  0  0  0  0  0
   60.8100   34.2250   48.1960 C   0  0  0  0  0  0  0  0  0  0  0  0
   60.4040   32.9840   47.7550 C   0  0  0  0  0  0  0  0  0  0  0  0
   58.2660   32.2180   50.4130 C   0  0  0  0  0  0  0  0  0  0  0  0
   53.1170   29.0170   52.2690 C   0  0  0  0  0  0  0  0  0  0  0  0
   52.3410   30.2750   52.2190 C   0  0  0  0  0  0  0  0  0  0  0  0
   51.9950   30.9160   53.4180 C   0  0  0  0  0  0  0  0  0  0  0  0
   51.3020   32.1310   53.3940 C   0  0  0  0  0  0  0  0  0  0  0  0
   50.9700   32.7270   52.1740 C   0  0  0  0  0  0  0  0  0  0  0  0
   50.2810   33.9340   52.1580 O   0  0  0  0  0  0  0  0  0  0  0  0
   51.3380   32.1100   50.9720 C   0  0  0  0  0  0  0  0  0  0  0  0
   51.0260   32.7060   49.7560 O   0  0  0  0  0  0  0  0  0  0  0  0
   52.0260   30.8930   50.9950 C   0  0  0  0  0  0  0  0  0  0  0  0
  1  2  1  0
  2  3  2  0
  2  4  1  0
  4  5  1  0
  5  6  1  0
  6  7  2  0
  7  8  1  0
  8  9  2  0
  9 10  1  0
 10 11  1  0
 11 12  1  0
 12 13  1  0
 10 14  2  0
  1 15  2  0
 15 16  1  0
 16 17  2  0
 17 18  1  0
 18 19  2  0
 19 20  1  0
 19 21  1  0
 21 22  1  0
 21 23  2  0
 14  6  1  0
 23 16  1  0
 13 11  1  0
M  CHG  3   4  -1  20  -1  22  -1
M  END
>  <UniqueID>  (2971) 
73

>  <SMILES>  (2971) 
O=C(/C=C\c1ccc([O-])c([O-])c1)[N-]Cc1ccnc(N2CC2)c1

>  <Energy>  (2971) 
275.0071467548061

>  <Genealogy>  (2971) 
O=C(C=Cc1ccc([O-])c([O-])c1)[N-]Cc1ccnc(N2CC2)c1 (protonated)
O=C(/C=C\c1ccc([O-])c([O-])c1)[N-]Cc1ccnc(N2CC2)c1 (cis-trans isomerization)
O=C(/C=C\c1ccc([O-])c([O-])c1)[N-]Cc1ccnc(N2CC2)c1 (3D coordinates assigned)
O=C(/C=C\c1ccc([O-])c([O-])c1)[N-]Cc1ccnc(N2CC2)c1 (nonaromatic ring conformer: 275.0071467548061 kcal/mol)

>  <smiles>  (2971) 
O=C(C=Cc1ccc(O)c(O)c1)NCc1ccnc(N2CC2)c1

>  <score_type>  (2971) 
oracle

>  <origin>  (2971) 
adg

>  <m_score__min__energy>  (2971) 
-16.649999999999999

>  <m_primary>  (2971) 
energy

$$$$
13:0
     RDKit          3D

 28 30  0  0  0  0  0  0  0  0999 V2000
   57.6960   28.2170   43.2850 C   0  0  0  0  0  0  0  0  0  0  0  0
   57.9710   29.2940   44.0440 C   0  0  0  0  0  0  0  0  0  0  0  0
   58.0580   30.5050   43.4120 N   0  0  0  0  0  0  0  0  0  0  0  0
   58.1000   31.6800   44.0880 C   0  0  0  0  0  0  0  0  0  0  0  0
   58.0450   31.6950   45.4830 C   0  0  0  0  0  0  0  0  0  0  0  0
   58.0670   32.9760   46.2240 C   0  0  0  0  0  0  0  0  0  0  0  0
   57.0100   33.6610   46.3060 O   0  0  0  0  0  0  0  0  0  0  0  0
   59.2700   33.4520   46.8530 N   0  0  0  0  0  0  0  0  0  0  0  0
   60.5100   33.5090   46.0710 C   0  0  0  0  0  0  0  0  0  0  0  0
   61.6320   34.1790   46.8660 C   0  0  0  0  0  0  0  0  0  0  0  0
   61.6550   33.6090   48.2300 N   0  0  0  0  0  0  0  0  0  0  0  0
   62.9080   33.9530   48.9710 C   0  0  0  0  0  0  0  0  0  0  0  0
   62.7800   33.6330   50.4770 C   0  0  0  0  0  0  0  0  0  0  0  0
   64.1230   33.1680   48.4250 C   0  0  0  0  0  0  0  0  0  0  0  0
   60.4360   34.0270   48.9810 C   0  0  0  0  0  0  0  0  0  0  0  0
   59.1740   34.2080   48.1050 C   0  0  0  0  0  0  0  0  0  0  0  0
   58.0310   30.4760   46.1650 C   0  0  0  0  0  0  0  0  0  0  0  0
   58.0600   29.2480   45.4750 C   0  0  0  0  0  0  0  0  0  0  0  0
   58.1970   28.1260   46.2300 C   0  0  0  0  0  0  0  0  0  0  0  0
   57.2830   26.9610   46.2590 C   0  0  0  0  0  0  0  0  0  0  0  0
   55.9660   27.0900   45.7930 C   0  0  0  0  0  0  0  0  0  0  0  0
   55.5200   28.2920   45.2550 O   0  0  0  0  0  0  0  0  0  0  0  0
   55.1160   26.0320   45.8550 N   0  0  0  0  0  0  0  0  0  0  0  0
   55.5130   24.8430   46.3790 C   0  0  0  0  0  0  0  0  0  0  0  0
   54.7110   23.8740   46.4200 O   0  0  0  0  0  0  0  0  0  0  0  0
   56.7720   24.7020   46.8670 N   0  0  0  0  0  0  0  0  0  0  0  0
   57.6590   25.7310   46.8310 C   0  0  0  0  0  0  0  0  0  0  0  0
   58.8080   25.5710   47.3230 O   0  0  0  0  0  0  0  0  0  0  0  0
  1  2  2  0
  2  3  1  0
  3  4  2  0
  4  5  1  0
  5  6  1  0
  6  7  2  0
  6  8  1  0
  8  9  1  0
  9 10  1  0
 10 11  1  0
 11 12  1  0
 12 13  1  0
 12 14  1  0
 11 15  1  0
 15 16  1  0
  5 17  2  0
 17 18  1  0
 18 19  2  3
 19 20  1  0
 20 21  2  0
 21 22  1  0
 21 23  1  0
 23 24  1  0
 24 25  2  0
 24 26  1  0
 26 27  1  0
 27 28  2  0
 18  2  1  0
 27 20  1  0
 16  8  1  0
M  CHG  4   3   1  22  -1  23  -1  26  -1
M  END
>  <UniqueID>  (2972) 
14

>  <SMILES>  (2972) 
C=c1[nH+]cc(C(=O)N2CCN(C(C)C)CC2)cc1=Cc1c([O-])[n-]c(=O)[n-]c1=O

>  <Energy>  (2972) 
88.02453507211115

>  <Genealogy>  (2972) 
C=c1[nH+]cc(C(=O)N2CCN(C(C)C)CC2)cc1=Cc1c([O-])[n-]c(=O)[n-]c1=O (protonated)
C=c1[nH+]cc(C(=O)N2CCN(C(C)C)CC2)cc1=Cc1c([O-])[n-]c(=O)[n-]c1=O (3D coordinates assigned)
C=c1[nH+]cc(C(=O)N2CCN(C(C)C)CC2)cc1=Cc1c([O-])[n-]c(=O)[n-]c1=O (nonaromatic ring conformer: 88.02453507211115 kcal/mol)

>  <smiles>  (2972) 
C=c1ncc(C(=O)N2CCN(C(C)C)CC2)cc1=Cc1c(O)[nH]c(=O)[nH]c1=O

>  <score_type>  (2972) 
oracle

>  <origin>  (2972) 
adg

>  <m_score__min__energy>  (2972) 
-14.970000000000001

>  <m_primary>  (2972) 
energy

$$$$
17:0
     RDKit          3D

 28 31  0  0  0  0  0  0  0  0999 V2000
   58.7610   30.6120   47.8280 C   0  0  0  0  0  0  0  0  0  0  0  0
   58.5560   30.7710   46.5110 C   0  0  0  0  0  0  0  0  0  0  0  0
   58.3350   29.7480   45.5730 C   0  0  0  0  0  0  0  0  0  0  0  0
   58.4780   28.4120   45.6700 C   0  0  0  0  0  0  0  0  0  0  0  0
   57.4120   27.4560   46.0200 C   0  0  0  0  0  0  0  0  0  0  0  0
   57.6150   26.2710   46.6240 N   0  0  0  0  0  0  0  0  0  0  0  0
   56.3900   25.7000   46.6080 C   0  0  0  0  0  0  0  0  0  0  0  0
   56.1630   24.5670   47.1060 O   0  0  0  0  0  0  0  0  0  0  0  0
   55.4310   26.4350   46.0060 N   0  0  0  0  0  0  0  0  0  0  0  0
   56.0990   27.5370   45.6270 C   0  0  0  0  0  0  0  0  0  0  0  0
   55.5220   28.5910   44.9320 O   0  0  0  0  0  0  0  0  0  0  0  0
   57.9460   30.3700   44.4020 C   0  0  0  0  0  0  0  0  0  0  0  0
   58.0090   31.7280   44.6310 C   0  0  0  0  0  0  0  0  0  0  0  0
   57.7450   32.7700   43.5850 C   0  0  0  0  0  0  0  0  0  0  0  0
   58.3830   31.9810   45.9080 N   0  0  0  0  0  0  0  0  0  0  0  0
   58.5940   33.3220   46.4800 C   0  0  0  0  0  0  0  0  0  0  0  0
   59.8640   33.3560   47.2900 C   0  0  0  0  0  0  0  0  0  0  0  0
   59.8490   33.8060   48.6190 C   0  0  0  0  0  0  0  0  0  0  0  0
   61.0310   33.8550   49.3630 C   0  0  0  0  0  0  0  0  0  0  0  0
   62.2490   33.4480   48.7930 C   0  0  0  0  0  0  0  0  0  0  0  0
   63.4710   33.5130   49.5540 N   0  0  0  0  0  0  0  0  0  0  0  0
   63.5140   34.1740   50.8630 C   0  0  0  0  0  0  0  0  0  0  0  0
   64.1570   33.2490   51.9170 C   0  0  0  0  0  0  0  0  0  0  0  0
   65.1120   32.2740   51.3520 N   0  0  0  0  0  0  0  0  0  0  0  0
   65.7530   32.7580   50.1230 C   0  0  0  0  0  0  0  0  0  0  0  0
   64.7100   32.9430   49.0110 C   0  0  0  0  0  0  0  0  0  0  0  0
   62.2630   33.0030   47.4600 C   0  0  0  0  0  0  0  0  0  0  0  0
   61.0810   32.9550   46.7170 C   0  0  0  0  0  0  0  0  0  0  0  0
  1  2  2  0
  2  3  1  0
  3  4  2  0
  4  5  1  0
  5  6  1  0
  6  7  1  0
  7  8  2  0
  7  9  1  0
  9 10  1  0
 10 11  1  0
  3 12  1  0
 12 13  2  0
 13 14  1  0
 13 15  1  0
 15 16  1  0
 16 17  1  0
 17 18  2  0
 18 19  1  0
 19 20  2  0
 20 21  1  0
 21 22  1  0
 22 23  1  0
 23 24  1  0
 24 25  1  0
 25 26  1  0
 20 27  1  0
 27 28  2  0
 15  2  1  0
 28 17  1  0
 10  5  2  0
 26 21  1  0
M  CHG  3   6  -1   9  -1  11  -1
M  END
>  <UniqueID>  (2973) 
17

>  <SMILES>  (2973) 
C=c1/c(=C\c2[n-]c(=O)[n-]c2[O-])cc(C)n1Cc1ccc(N2CCNCC2)cc1

>  <Energy>  (2973) 
129.7631251256937

>  <Genealogy>  (2973) 
C=c1c(=Cc2[n-]c(=O)[n-]c2[O-])cc(C)n1Cc1ccc(N2CCNCC2)cc1 (protonated)
C=c1/c(=C\c2[n-]c(=O)[n-]c2[O-])cc(C)n1Cc1ccc(N2CCNCC2)cc1 (cis-trans isomerization)
C=c1/c(=C\c2[n-]c(=O)[n-]c2[O-])cc(C)n1Cc1ccc(N2CCNCC2)cc1 (3D coordinates assigned)
C=c1/c(=C\c2[n-]c(=O)[n-]c2[O-])cc(C)n1Cc1ccc(N2CCNCC2)cc1 (nonaromatic ring conformer: 129.7631251256937 kcal/mol)

>  <smiles>  (2973) 
C=c1c(=Cc2[nH]c(=O)[nH]c2O)cc(C)n1Cc1ccc(N2CCNCC2)cc1

>  <score_type>  (2973) 
oracle

>  <origin>  (2973) 
adg

>  <m_score__min__energy>  (2973) 
-16.699999999999999

>  <m_primary>  (2973) 
energy

$$$$
20:0
     RDKit          3D

 33 36  0  0  0  0  0  0  0  0999 V2000
   52.2760   29.8470   54.0340 C   0  0  0  0  0  0  0  0  0  0  0  0
   53.5880   29.8550   53.7640 C   0  0  0  0  0  0  0  0  0  0  0  0
   54.3710   29.0340   54.5180 N   0  0  0  0  0  0  0  0  0  0  0  0
   55.6730   28.7890   54.2350 C   0  0  0  0  0  0  0  0  0  0  0  0
   56.2570   29.3390   53.0910 C   0  0  0  0  0  0  0  0  0  0  0  0
   57.6660   29.0380   52.7520 C   0  0  0  0  0  0  0  0  0  0  0  0
   58.1690   27.9470   53.1400 O   0  0  0  0  0  0  0  0  0  0  0  0
   58.4790   29.9610   52.0020 N   0  0  0  0  0  0  0  0  0  0  0  0
   57.8990   30.7810   50.9310 C   0  0  0  0  0  0  0  0  0  0  0  0
   58.8190   30.7800   49.7060 C   0  0  0  0  0  0  0  0  0  0  0  0
   60.2110   31.0910   50.0710 N   0  0  0  0  0  0  0  0  0  0  0  0
   61.1560   31.4920   49.0560 C   0  0  0  0  0  0  0  0  0  0  0  0
   62.1770   32.1580   49.3830 O   0  0  0  0  0  0  0  0  0  0  0  0
   60.9140   31.1950   47.5960 C   0  0  0  0  0  0  0  0  0  0  0  0
   59.8510   32.0940   47.0180 C   0  0  0  0  0  0  0  0  0  0  0  0
   58.8970   31.5830   46.1210 C   0  0  0  0  0  0  0  0  0  0  0  0
   57.8940   32.4130   45.6110 C   0  0  0  0  0  0  0  0  0  0  0  0
   57.8300   33.7590   45.9980 C   0  0  0  0  0  0  0  0  0  0  0  0
   56.8350   34.5940   45.4960 O   0  0  0  0  0  0  0  0  0  0  0  0
   58.7700   34.2680   46.9000 C   0  0  0  0  0  0  0  0  0  0  0  0
   59.7740   33.4400   47.4120 C   0  0  0  0  0  0  0  0  0  0  0  0
   60.6010   31.1500   51.4880 C   0  0  0  0  0  0  0  0  0  0  0  0
   59.9210   30.0270   52.2810 C   0  0  0  0  0  0  0  0  0  0  0  0
   55.5010   30.2260   52.3150 C   0  0  0  0  0  0  0  0  0  0  0  0
   54.1780   30.5650   52.6690 C   0  0  0  0  0  0  0  0  0  0  0  0
   53.5830   31.5560   51.9560 C   0  0  0  0  0  0  0  0  0  0  0  0
   52.4880   31.3970   50.9830 C   0  0  0  0  0  0  0  0  0  0  0  0
   52.5110   30.5020   49.9810 N   0  0  0  0  0  0  0  0  0  0  0  0
   51.3840   30.7760   49.2880 C   0  0  0  0  0  0  0  0  0  0  0  0
   51.0410   30.1260   48.2660 O   0  0  0  0  0  0  0  0  0  0  0  0
   50.6590   31.8070   49.7700 N   0  0  0  0  0  0  0  0  0  0  0  0
   51.3780   32.1990   50.8350 C   0  0  0  0  0  0  0  0  0  0  0  0
   51.0410   33.2870   51.6330 O   0  0  0  0  0  0  0  0  0  0  0  0
  1  2  2  0
  2  3  1  0
  3  4  2  0
  4  5  1  0
  5  6  1  0
  6  7  2  0
  6  8  1  0
  8  9  1  0
  9 10  1  0
 10 11  1  0
 11 12  1  0
 12 13  2  0
 12 14  1  0
 14 15  1  0
 15 16  2  0
 16 17  1  0
 17 18  2  0
 18 19  1  0
 18 20  1  0
 20 21  2  0
 11 22  1  0
 22 23  1  0
  5 24  2  0
 24 25  1  0
 25 26  2  3
 26 27  1  0
 27 28  1  0
 28 29  1  0
 29 30  2  0
 29 31  1  0
 31 32  1  0
 32 33  1  0
 25  2  1  0
 32 27  2  0
 23  8  1  0
 21 15  1  0
M  CHG  3  28  -1  31  -1  33  -1
M  END
>  <UniqueID>  (2974) 
20

>  <SMILES>  (2974) 
C=c1ncc(C(=O)N2CCN(C(=O)Cc3ccc(O)cc3)CC2)cc1=Cc1[n-]c(=O)[n-]c1[O-]

>  <Energy>  (2974) 
110.99022523653379

>  <Genealogy>  (2974) 
C=c1ncc(C(=O)N2CCN(C(=O)Cc3ccc(O)cc3)CC2)cc1=Cc1[n-]c(=O)[n-]c1[O-] (protonated)
C=c1ncc(C(=O)N2CCN(C(=O)Cc3ccc(O)cc3)CC2)cc1=Cc1[n-]c(=O)[n-]c1[O-] (3D coordinates assigned)
C=c1ncc(C(=O)N2CCN(C(=O)Cc3ccc(O)cc3)CC2)cc1=Cc1[n-]c(=O)[n-]c1[O-] (nonaromatic ring conformer: 110.99022523653379 kcal/mol)

>  <smiles>  (2974) 
C=c1ncc(C(=O)N2CCN(C(=O)Cc3ccc(O)cc3)CC2)cc1=Cc1[nH]c(=O)[nH]c1O

>  <score_type>  (2974) 
oracle

>  <origin>  (2974) 
adg

>  <m_score__min__energy>  (2974) 
-18.73

>  <m_primary>  (2974) 
energy

$$$$
26:0
     RDKit          3D

 32 35  0  0  0  0  0  0  0  0999 V2000
   54.4400   30.2170   55.0290 C   0  0  0  0  0  0  0  0  0  0  0  0
   54.9220   30.3830   53.7860 C   0  0  0  0  0  0  0  0  0  0  0  0
   54.1830   30.7770   52.6630 C   0  0  0  0  0  0  0  0  0  0  0  0
   52.8710   31.0810   52.6120 C   0  0  0  0  0  0  0  0  0  0  0  0
   52.0970   31.1810   51.3620 C   0  0  0  0  0  0  0  0  0  0  0  0
   52.1850   30.2820   50.3660 N   0  0  0  0  0  0  0  0  0  0  0  0
   51.3920   30.8000   49.4040 C   0  0  0  0  0  0  0  0  0  0  0  0
   51.2050   30.2260   48.2990 O   0  0  0  0  0  0  0  0  0  0  0  0
   50.8260   31.9860   49.7130 N   0  0  0  0  0  0  0  0  0  0  0  0
   51.2910   32.2210   50.9500 C   0  0  0  0  0  0  0  0  0  0  0  0
   51.0220   33.3820   51.6640 O   0  0  0  0  0  0  0  0  0  0  0  0
   55.0850   30.8620   51.6140 C   0  0  0  0  0  0  0  0  0  0  0  0
   56.3150   30.4960   52.1190 C   0  0  0  0  0  0  0  0  0  0  0  0
   57.5570   30.4900   51.3270 C   0  0  0  0  0  0  0  0  0  0  0  0
   57.8270   29.4720   50.6340 O   0  0  0  0  0  0  0  0  0  0  0  0
   58.4810   31.5950   51.3760 N   0  0  0  0  0  0  0  0  0  0  0  0
   59.3510   31.8860   50.2300 C   0  0  0  0  0  0  0  0  0  0  0  0
   60.7890   32.0990   50.7100 C   0  0  0  0  0  0  0  0  0  0  0  0
   60.8490   33.0610   51.8230 N   0  0  0  0  0  0  0  0  0  0  0  0
   62.1190   33.6480   52.1850 C   0  0  0  0  0  0  0  0  0  0  0  0
   62.4460   33.8680   53.5340 C   0  0  0  0  0  0  0  0  0  0  0  0
   63.6760   34.4310   53.8850 C   0  0  0  0  0  0  0  0  0  0  0  0
   64.6060   34.7800   52.9000 C   0  0  0  0  0  0  0  0  0  0  0  0
   65.8260   35.3420   53.3040 O   0  0  0  0  0  0  0  0  0  0  0  0
   66.7770   35.9200   52.4170 C   0  0  0  0  0  0  0  0  0  0  0  0
   64.2870   34.5580   51.5480 C   0  0  0  0  0  0  0  0  0  0  0  0
   63.0570   33.9960   51.1960 C   0  0  0  0  0  0  0  0  0  0  0  0
   59.6070   33.5400   52.4490 C   0  0  0  0  0  0  0  0  0  0  0  0
   58.5980   32.3960   52.6050 C   0  0  0  0  0  0  0  0  0  0  0  0
   56.2240   30.2010   53.4390 N   0  0  0  0  0  0  0  0  0  0  0  0
   57.3550   29.9350   54.3440 C   0  0  0  0  0  0  0  0  0  0  0  0
   57.9280   28.5460   54.0850 C   0  0  0  0  0  0  0  0  0  0  0  0
  1  2  2  0
  2  3  1  0
  3  4  2  3
  4  5  1  0
  5  6  1  0
  6  7  1  0
  7  8  2  0
  7  9  1  0
  9 10  1  0
 10 11  1  0
  3 12  1  0
 12 13  2  0
 13 14  1  0
 14 15  2  0
 14 16  1  0
 16 17  1  0
 17 18  1  0
 18 19  1  0
 19 20  1  0
 20 21  2  0
 21 22  1  0
 22 23  2  0
 23 24  1  0
 24 25  1  0
 23 26  1  0
 26 27  2  0
 19 28  1  0
 28 29  1  0
 13 30  1  0
 30 31  1  0
 31 32  1  0
 30  2  1  0
 10  5  2  0
 29 16  1  0
 27 20  1  0
M  CHG  3   6  -1   9  -1  11  -1
M  END
>  <UniqueID>  (2975) 
26

>  <SMILES>  (2975) 
C=c1c(=Cc2[n-]c(=O)[n-]c2[O-])cc(C(=O)N2CCN(c3ccc(OC)cc3)CC2)n1CC

>  <Energy>  (2975) 
130.93224750413663

>  <Genealogy>  (2975) 
C=c1c(=Cc2[n-]c(=O)[n-]c2[O-])cc(C(=O)N2CCN(c3ccc(OC)cc3)CC2)n1CC (protonated)
C=c1c(=Cc2[n-]c(=O)[n-]c2[O-])cc(C(=O)N2CCN(c3ccc(OC)cc3)CC2)n1CC (3D coordinates assigned)
C=c1c(=Cc2[n-]c(=O)[n-]c2[O-])cc(C(=O)N2CCN(c3ccc(OC)cc3)CC2)n1CC (nonaromatic ring conformer: 130.93224750413663 kcal/mol)

>  <smiles>  (2975) 
C=c1c(=Cc2[nH]c(=O)[nH]c2O)cc(C(=O)N2CCN(c3ccc(OC)cc3)CC2)n1CC

>  <score_type>  (2975) 
oracle

>  <origin>  (2975) 
adg

>  <m_score__min__energy>  (2975) 
-16.140000000000001

>  <m_primary>  (2975) 
energy

$$$$
44:0
     RDKit          3D

 33 37  0  0  0  0  0  0  0  0999 V2000
   56.6450   24.2370   47.2730 C   0  0  0  0  0  0  0  0  0  0  0  0
   56.7010   23.3440   46.2720 C   0  0  0  0  0  0  0  0  0  0  0  0
   55.6400   22.5460   45.8270 C   0  0  0  0  0  0  0  0  0  0  0  0
   54.3960   22.4770   46.3420 C   0  0  0  0  0  0  0  0  0  0  0  0
   53.1870   22.9550   45.6460 C   0  0  0  0  0  0  0  0  0  0  0  0
   52.1590   22.1530   45.3190 N   0  0  0  0  0  0  0  0  0  0  0  0
   51.2550   23.0040   44.7870 C   0  0  0  0  0  0  0  0  0  0  0  0
   50.1420   22.6180   44.3430 O   0  0  0  0  0  0  0  0  0  0  0  0
   51.6330   24.2990   44.7770 N   0  0  0  0  0  0  0  0  0  0  0  0
   52.8530   24.2550   45.3350 C   0  0  0  0  0  0  0  0  0  0  0  0
   53.6200   25.3850   45.5970 O   0  0  0  0  0  0  0  0  0  0  0  0
   56.1340   21.7860   44.7780 C   0  0  0  0  0  0  0  0  0  0  0  0
   57.4560   22.1460   44.6180 C   0  0  0  0  0  0  0  0  0  0  0  0
   58.3740   21.5500   43.5940 C   0  0  0  0  0  0  0  0  0  0  0  0
   57.8100   23.0860   45.5260 N   0  0  0  0  0  0  0  0  0  0  0  0
   59.1430   23.7060   45.6280 C   0  0  0  0  0  0  0  0  0  0  0  0
   59.0370   25.2090   45.6070 C   0  0  0  0  0  0  0  0  0  0  0  0
   58.1900   25.8500   44.6900 C   0  0  0  0  0  0  0  0  0  0  0  0
   58.0900   27.2430   44.6710 C   0  0  0  0  0  0  0  0  0  0  0  0
   58.8360   28.0260   45.5700 C   0  0  0  0  0  0  0  0  0  0  0  0
   58.7270   29.4660   45.5540 N   0  0  0  0  0  0  0  0  0  0  0  0
   57.8820   30.1140   44.5370 C   0  0  0  0  0  0  0  0  0  0  0  0
   57.5650   31.5650   44.9110 C   0  0  0  0  0  0  0  0  0  0  0  0
   58.8630   32.3560   45.1740 C   0  0  0  0  0  0  0  0  0  0  0  0
   58.5480   33.7310   45.6400 N   0  0  0  0  0  0  0  0  0  0  0  0
   59.2810   34.7820   44.9140 C   0  0  0  0  0  0  0  0  0  0  0  0
   60.0150   35.6310   45.9400 C   0  0  0  0  0  0  0  0  0  0  0  0
   59.3060   35.3590   47.2450 C   0  0  0  0  0  0  0  0  0  0  0  0
   58.7330   33.9630   47.0820 C   0  0  0  0  0  0  0  0  0  0  0  0
   59.8700   31.5920   46.0920 C   0  0  0  0  0  0  0  0  0  0  0  0
   59.3180   30.2680   46.6370 C   0  0  0  0  0  0  0  0  0  0  0  0
   59.6770   27.3810   46.4940 C   0  0  0  0  0  0  0  0  0  0  0  0
   59.7760   25.9880   46.5130 C   0  0  0  0  0  0  0  0  0  0  0  0
  1  2  2  0
  2  3  1  0
  3  4  2  3
  4  5  1  0
  5  6  1  0
  6  7  1  0
  7  8  2  0
  7  9  1  0
  9 10  1  0
 10 11  1  0
  3 12  1  0
 12 13  2  0
 13 14  1  0
 13 15  1  0
 15 16  1  0
 16 17  1  0
 17 18  2  0
 18 19  1  0
 19 20  2  0
 20 21  1  0
 21 22  1  0
 22 23  1  0
 23 24  1  0
 24 25  1  0
 25 26  1  0
 26 27  1  0
 27 28  1  0
 28 29  1  0
 24 30  1  0
 30 31  1  0
 20 32  1  0
 32 33  2  0
 15  2  1  0
 33 17  1  0
 10  5  2  0
 31 21  1  0
 29 25  1  0
M  CHG  3   6  -1   9  -1  11  -1
M  END
>  <UniqueID>  (2976) 
43

>  <SMILES>  (2976) 
C=c1c(=Cc2[n-]c(=O)[n-]c2[O-])cc(C)n1Cc1ccc(N2CCC(N3CCCC3)CC2)cc1

>  <Energy>  (2976) 
143.0448930751853

>  <Genealogy>  (2976) 
C=c1c(=Cc2[n-]c(=O)[n-]c2[O-])cc(C)n1Cc1ccc(N2CCC(N3CCCC3)CC2)cc1 (protonated)
C=c1c(=Cc2[n-]c(=O)[n-]c2[O-])cc(C)n1Cc1ccc(N2CCC(N3CCCC3)CC2)cc1 (3D coordinates assigned)
C=c1c(=Cc2[n-]c(=O)[n-]c2[O-])cc(C)n1Cc1ccc(N2CCC(N3CCCC3)CC2)cc1 (nonaromatic ring conformer: 143.0448930751853 kcal/mol)

>  <smiles>  (2976) 
C=c1c(=Cc2[nH]c(=O)[nH]c2O)cc(C)n1Cc1ccc(N2CCC(N3CCCC3)CC2)cc1

>  <score_type>  (2976) 
oracle

>  <origin>  (2976) 
adg

>  <m_score__min__energy>  (2976) 
-16.530000000000001

>  <m_primary>  (2976) 
energy

$$$$
77:0
     RDKit          3D

 27 29  0  0  0  0  0  0  0  0999 V2000
   60.1120   27.6460   46.1560 C   0  0  0  0  0  0  0  0  0  0  0  0
   59.1460   28.3080   45.4970 C   0  0  0  0  0  0  0  0  0  0  0  0
   58.0630   27.7200   44.8320 C   0  0  0  0  0  0  0  0  0  0  0  0
   57.8100   26.4060   44.6800 C   0  0  0  0  0  0  0  0  0  0  0  0
   57.2320   25.5490   45.7350 C   0  0  0  0  0  0  0  0  0  0  0  0
   55.9760   25.6760   46.2830 C   0  0  0  0  0  0  0  0  0  0  0  0
   55.0690   26.6910   46.0030 O   0  0  0  0  0  0  0  0  0  0  0  0
   55.7290   24.6700   47.1420 N   0  0  0  0  0  0  0  0  0  0  0  0
   56.8600   23.9340   47.0730 C   0  0  0  0  0  0  0  0  0  0  0  0
   57.0260   22.8720   47.7280 O   0  0  0  0  0  0  0  0  0  0  0  0
   57.7860   24.4270   46.2270 N   0  0  0  0  0  0  0  0  0  0  0  0
   57.3110   28.7630   44.3200 C   0  0  0  0  0  0  0  0  0  0  0  0
   57.9320   29.9360   44.7030 C   0  0  0  0  0  0  0  0  0  0  0  0
   57.4080   31.2860   44.3740 C   0  0  0  0  0  0  0  0  0  0  0  0
   57.0860   31.5620   43.1900 O   0  0  0  0  0  0  0  0  0  0  0  0
   57.1630   32.2690   45.3920 N   0  0  0  0  0  0  0  0  0  0  0  0
   57.9640   33.2360   45.7400 C   0  0  0  0  0  0  0  0  0  0  0  0
   58.4800   34.0930   44.8130 N   0  0  0  0  0  0  0  0  0  0  0  0
   59.3140   35.1100   45.1560 C   0  0  0  0  0  0  0  0  0  0  0  0
   59.6590   35.3080   46.4930 C   0  0  0  0  0  0  0  0  0  0  0  0
   59.1350   34.4570   47.4660 C   0  0  0  0  0  0  0  0  0  0  0  0
   58.2790   33.4170   47.0940 C   0  0  0  0  0  0  0  0  0  0  0  0
   57.7700   32.5890   48.0410 F   0  0  0  0  0  0  0  0  0  0  0  0
   59.0600   29.6650   45.4110 N   0  0  0  0  0  0  0  0  0  0  0  0
   59.9810   30.6620   45.9870 C   0  0  0  0  0  0  0  0  0  0  0  0
   60.0200   30.5770   47.5210 C   0  0  0  0  0  0  0  0  0  0  0  0
   61.1370   31.4160   48.1340 C   0  0  0  0  0  0  0  0  0  0  0  0
  1  2  2  0
  2  3  1  0
  3  4  2  0
  4  5  1  0
  5  6  2  0
  6  7  1  0
  6  8  1  0
  8  9  1  0
  9 10  2  0
  9 11  1  0
  3 12  1  0
 12 13  2  0
 13 14  1  0
 14 15  2  0
 14 16  1  0
 16 17  2  3
 17 18  1  0
 18 19  1  0
 19 20  2  0
 20 21  1  0
 21 22  2  0
 22 23  1  0
 13 24  1  0
 24 25  1  0
 25 26  1  0
 26 27  1  0
 24  2  1  0
 11  5  1  0
 22 17  1  0
M  CHG  3   7  -1   8  -1  18  -1
M  END
>  <UniqueID>  (2977) 
74

>  <SMILES>  (2977) 
C=c1/c(=C/c2[nH]c(=O)[n-]c2[O-])cc(C(=O)N=c2[n-]cccc2F)n1CCC

>  <Energy>  (2977) 
114.47738733234452

>  <Genealogy>  (2977) 
C=c1c(=Cc2[nH]c(=O)[n-]c2[O-])cc(C(=O)N=c2[n-]cccc2F)n1CCC (protonated)
C=c1/c(=C/c2[nH]c(=O)[n-]c2[O-])cc(C(=O)N=c2[n-]cccc2F)n1CCC (cis-trans isomerization)
C=c1/c(=C/c2[nH]c(=O)[n-]c2[O-])cc(C(=O)N=c2[n-]cccc2F)n1CCC (3D coordinates assigned)
C=c1/c(=C/c2[nH]c(=O)[n-]c2[O-])cc(C(=O)N=c2[n-]cccc2F)n1CCC (optimized conformer: 114.47738733234452 kcal/mol)

>  <smiles>  (2977) 
C=c1c(=Cc2[nH]c(=O)[nH]c2O)cc(C(=O)N=c2[nH]cccc2F)n1CCC

>  <score_type>  (2977) 
oracle

>  <origin>  (2977) 
adg

>  <m_score__min__energy>  (2977) 
-14.640000000000001

>  <m_primary>  (2977) 
energy

$$$$
80:0
     RDKit          3D

 24 26  0  0  0  0  0  0  0  0999 V2000
   58.5090   27.6270   43.6340 C   0  0  0  0  0  0  0  0  0  0  0  0
   58.0600   28.7210   44.2560 C   0  0  0  0  0  0  0  0  0  0  0  0
   57.7330   29.8480   43.5930 N   0  0  0  0  0  0  0  0  0  0  0  0
   57.4450   30.7390   44.5560 C   0  0  0  0  0  0  0  0  0  0  0  0
   57.0650   32.0570   44.2920 O   0  0  0  0  0  0  0  0  0  0  0  0
   56.6860   32.9660   45.3210 C   0  0  0  0  0  0  0  0  0  0  0  0
   57.9060   33.5300   45.9990 C   0  0  0  0  0  0  0  0  0  0  0  0
   58.7070   34.4850   45.3510 C   0  0  0  0  0  0  0  0  0  0  0  0
   59.8550   34.9810   45.9760 C   0  0  0  0  0  0  0  0  0  0  0  0
   60.2130   34.5240   47.2480 C   0  0  0  0  0  0  0  0  0  0  0  0
   59.4230   33.5700   47.8960 C   0  0  0  0  0  0  0  0  0  0  0  0
   58.2740   33.0720   47.2730 C   0  0  0  0  0  0  0  0  0  0  0  0
   57.5660   30.2310   45.7620 O   0  0  0  0  0  0  0  0  0  0  0  0
   57.9280   28.9740   45.6290 C   0  0  0  0  0  0  0  0  0  0  0  0
   58.1030   28.1760   46.6950 C   0  0  0  0  0  0  0  0  0  0  0  0
   57.4490   26.8700   46.9040 C   0  0  0  0  0  0  0  0  0  0  0  0
   56.1930   26.6080   46.3390 C   0  0  0  0  0  0  0  0  0  0  0  0
   55.5230   27.5890   45.6170 O   0  0  0  0  0  0  0  0  0  0  0  0
   55.6170   25.3890   46.5030 N   0  0  0  0  0  0  0  0  0  0  0  0
   56.2450   24.4050   47.1970 C   0  0  0  0  0  0  0  0  0  0  0  0
   55.5270   22.9510   47.3780 S   0  0  0  0  0  0  0  0  0  0  0  0
   57.4740   24.6250   47.7300 N   0  0  0  0  0  0  0  0  0  0  0  0
   58.0920   25.8270   47.5930 C   0  0  0  0  0  0  0  0  0  0  0  0
   59.2410   25.9910   48.0840 O   0  0  0  0  0  0  0  0  0  0  0  0
  1  2  2  0
  2  3  1  0
  3  4  2  0
  4  5  1  0
  5  6  1  0
  6  7  1  0
  7  8  2  0
  8  9  1  0
  9 10  2  0
 10 11  1  0
 11 12  2  0
  4 13  1  0
 13 14  1  0
 14 15  2  3
 15 16  1  0
 16 17  2  0
 17 18  1  0
 17 19  1  0
 19 20  1  0
 20 21  2  0
 20 22  1  0
 22 23  1  0
 23 24  2  0
 14  2  1  0
 23 16  1  0
 12  7  1  0
M  CHG  4   3   1  18  -1  19  -1  22  -1
M  END
>  <UniqueID>  (2978) 
77

>  <SMILES>  (2978) 
C=c1[nH+]c(OCc2ccccc2)oc1=Cc1c([O-])[n-]c(=S)[n-]c1=O

>  <Energy>  (2978) 
81.06735519251897

>  <Genealogy>  (2978) 
C=c1[nH+]c(OCc2ccccc2)oc1=Cc1c([O-])[n-]c(=S)[n-]c1=O (protonated)
C=c1[nH+]c(OCc2ccccc2)oc1=Cc1c([O-])[n-]c(=S)[n-]c1=O (3D coordinates assigned)
C=c1[nH+]c(OCc2ccccc2)oc1=Cc1c([O-])[n-]c(=S)[n-]c1=O (optimized conformer: 81.06735519251897 kcal/mol)

>  <smiles>  (2978) 
C=c1nc(OCc2ccccc2)oc1=Cc1c(O)[nH]c(=S)[nH]c1=O

>  <score_type>  (2978) 
oracle

>  <origin>  (2978) 
adg

>  <m_score__min__energy>  (2978) 
-14.25

>  <m_primary>  (2978) 
energy

$$$$
90:0
     RDKit          3D

 30 32  0  0  0  0  0  0  0  0999 V2000
   60.2850   26.0130   46.8980 O   0  0  0  0  0  0  0  0  0  0  0  0
   59.1850   26.6300   46.9160 C   0  0  0  0  0  0  0  0  0  0  0  0
   58.1580   26.3380   45.8660 C   0  0  0  0  0  0  0  0  0  0  0  0
   57.3830   27.5770   45.5460 C   0  0  0  0  0  0  0  0  0  0  0  0
   58.0440   29.0140   44.9630 S   0  0  0  0  0  0  0  0  0  0  0  0
   56.5360   29.7480   44.8330 C   0  0  0  0  0  0  0  0  0  0  0  0
   56.3540   30.9250   44.4270 O   0  0  0  0  0  0  0  0  0  0  0  0
   55.5260   28.9350   45.2090 N   0  0  0  0  0  0  0  0  0  0  0  0
   55.9990   27.7230   45.6010 C   0  0  0  0  0  0  0  0  0  0  0  0
   55.1470   26.7090   46.0200 O   0  0  0  0  0  0  0  0  0  0  0  0
   58.9300   27.6280   47.9150 N   0  0  0  0  0  0  0  0  0  0  0  0
   59.8810   27.9330   48.9790 C   0  0  0  0  0  0  0  0  0  0  0  0
   60.5740   29.2390   48.6970 C   0  0  0  0  0  0  0  0  0  0  0  0
   60.4230   29.8740   47.4560 C   0  0  0  0  0  0  0  0  0  0  0  0
   61.0900   31.0730   47.1930 C   0  0  0  0  0  0  0  0  0  0  0  0
   61.9230   31.6540   48.1620 C   0  0  0  0  0  0  0  0  0  0  0  0
   62.7470   33.1740   47.8030 S   0  0  0  0  0  0  0  0  0  0  0  0
   62.9260   33.9510   49.0770 O   0  0  0  0  0  0  0  0  0  0  0  0
   64.1000   32.8960   47.2100 O   0  0  0  0  0  0  0  0  0  0  0  0
   61.7900   34.0730   46.6590 N   0  0  0  0  0  0  0  0  0  0  0  0
   60.5670   34.5860   47.2800 C   0  0  0  0  0  0  0  0  0  0  0  0
   59.3520   34.1920   46.4850 C   0  0  0  0  0  0  0  0  0  0  0  0
   59.3990   34.1850   45.0810 C   0  0  0  0  0  0  0  0  0  0  0  0
   58.2680   33.8300   44.3390 C   0  0  0  0  0  0  0  0  0  0  0  0
   57.0830   33.4780   44.9940 C   0  0  0  0  0  0  0  0  0  0  0  0
   57.0290   33.4810   46.3900 C   0  0  0  0  0  0  0  0  0  0  0  0
   58.1570   33.8370   47.1350 C   0  0  0  0  0  0  0  0  0  0  0  0
   62.0780   31.0150   49.4110 C   0  0  0  0  0  0  0  0  0  0  0  0
   63.1890   31.7320   50.8010 Br  0  0  0  0  0  0  0  0  0  0  0  0
   61.4080   29.8130   49.6670 C   0  0  0  0  0  0  0  0  0  0  0  0
  1  2  2  0
  2  3  1  0
  3  4  1  0
  4  5  1  0
  5  6  1  0
  6  7  2  0
  6  8  1  0
  8  9  1  0
  9 10  1  0
  2 11  1  0
 11 12  1  0
 12 13  1  0
 13 14  2  0
 14 15  1  0
 15 16  2  0
 16 17  1  0
 17 18  2  0
 17 19  2  0
 17 20  1  0
 20 21  1  0
 21 22  1  0
 22 23  2  0
 23 24  1  0
 24 25  2  0
 25 26  1  0
 26 27  2  0
 16 28  1  0
 28 29  1  0
 28 30  2  0
  9  4  2  0
 30 13  1  0
 27 22  1  0
M  CHG  3   8  -1  10  -1  20  -1
M  END
>  <UniqueID>  (2979) 
86

>  <SMILES>  (2979) 
O=C(Cc1sc(=O)[n-]c1[O-])NCc1ccc(S(=O)(=O)[N-]Cc2ccccc2)c(Br)c1

>  <Energy>  (2979) 
74.08371563694287

>  <Genealogy>  (2979) 
O=C(Cc1sc(=O)[n-]c1[O-])NCc1ccc(S(=O)(=O)[N-]Cc2ccccc2)c(Br)c1 (protonated)
O=C(Cc1sc(=O)[n-]c1[O-])NCc1ccc(S(=O)(=O)[N-]Cc2ccccc2)c(Br)c1 (3D coordinates assigned)
O=C(Cc1sc(=O)[n-]c1[O-])NCc1ccc(S(=O)(=O)[N-]Cc2ccccc2)c(Br)c1 (optimized conformer: 74.08371563694287 kcal/mol)

>  <smiles>  (2979) 
O=C(Cc1sc(=O)[nH]c1O)NCc1ccc(S(=O)(=O)NCc2ccccc2)c(Br)c1

>  <score_type>  (2979) 
oracle

>  <origin>  (2979) 
adg

>  <m_score__min__energy>  (2979) 
-17.780000000000001

>  <m_primary>  (2979) 
energy

$$$$
2:0
     RDKit          3D

 29 31  0  0  0  0  0  0  0  0999 V2000
   56.6300   29.3350   43.3750 C   0  0  0  0  0  0  0  0  0  0  0  0
   57.3800   29.2650   44.4870 C   0  0  0  0  0  0  0  0  0  0  0  0
   57.9560   28.1080   45.0380 C   0  0  0  0  0  0  0  0  0  0  0  0
   57.7480   26.8030   44.7720 C   0  0  0  0  0  0  0  0  0  0  0  0
   57.1950   25.8140   45.7090 C   0  0  0  0  0  0  0  0  0  0  0  0
   57.9270   24.8430   46.2810 N   0  0  0  0  0  0  0  0  0  0  0  0
   57.0610   24.2650   47.1430 C   0  0  0  0  0  0  0  0  0  0  0  0
   57.3780   23.2850   47.8660 O   0  0  0  0  0  0  0  0  0  0  0  0
   55.8330   24.8270   47.1770 N   0  0  0  0  0  0  0  0  0  0  0  0
   55.9390   25.8160   46.2740 C   0  0  0  0  0  0  0  0  0  0  0  0
   54.9180   26.7160   45.9950 O   0  0  0  0  0  0  0  0  0  0  0  0
   58.8590   28.5410   45.9930 C   0  0  0  0  0  0  0  0  0  0  0  0
   58.7560   29.9160   46.0470 C   0  0  0  0  0  0  0  0  0  0  0  0
   59.5380   30.7870   46.9830 C   0  0  0  0  0  0  0  0  0  0  0  0
   57.8530   30.3580   45.1430 N   0  0  0  0  0  0  0  0  0  0  0  0
   57.4890   31.7340   44.9270 C   0  0  0  0  0  0  0  0  0  0  0  0
   56.2940   32.1020   45.0840 O   0  0  0  0  0  0  0  0  0  0  0  0
   58.4790   32.6770   44.5020 N   0  0  0  0  0  0  0  0  0  0  0  0
   58.5970   34.0240   45.0490 C   0  0  0  0  0  0  0  0  0  0  0  0
   59.5130   34.0180   46.2410 C   0  0  0  0  0  0  0  0  0  0  0  0
   60.8970   33.8800   46.0620 C   0  0  0  0  0  0  0  0  0  0  0  0
   61.7510   33.8440   47.1680 C   0  0  0  0  0  0  0  0  0  0  0  0
   61.2360   33.9260   48.4670 C   0  0  0  0  0  0  0  0  0  0  0  0
   62.1340   33.8930   49.5450 O   0  0  0  0  0  0  0  0  0  0  0  0
   63.1490   32.9430   49.7250 C   0  0  0  0  0  0  0  0  0  0  0  0
   62.9550   31.9070   50.4170 O   0  0  0  0  0  0  0  0  0  0  0  0
   64.4360   33.1040   48.9900 C   0  0  0  0  0  0  0  0  0  0  0  0
   59.8480   34.0760   48.6480 C   0  0  0  0  0  0  0  0  0  0  0  0
   58.9940   34.1150   47.5410 C   0  0  0  0  0  0  0  0  0  0  0  0
  1  2  2  0
  2  3  1  0
  3  4  2  0
  4  5  1  0
  5  6  1  0
  6  7  1  0
  7  8  2  0
  7  9  1  0
  9 10  1  0
 10 11  1  0
  3 12  1  0
 12 13  2  0
 13 14  1  0
 13 15  1  0
 15 16  1  0
 16 17  2  0
 16 18  1  0
 18 19  1  0
 19 20  1  0
 20 21  2  0
 21 22  1  0
 22 23  2  0
 23 24  1  0
 24 25  1  0
 25 26  2  0
 25 27  1  0
 23 28  1  0
 28 29  2  0
 15  2  1  0
 29 20  1  0
 10  5  2  0
M  CHG  4   6  -1   9  -1  11  -1  18  -1
M  END
>  <UniqueID>  (2980) 
3

>  <SMILES>  (2980) 
C=c1/c(=C\c2[n-]c(=O)[n-]c2[O-])cc(C)n1C(=O)[N-]Cc1ccc(OC(C)=O)cc1

>  <Energy>  (2980) 
121.08331240660661

>  <Genealogy>  (2980) 
C=c1c(=Cc2[n-]c(=O)[n-]c2[O-])cc(C)n1C(=O)[N-]Cc1ccc(OC(C)=O)cc1 (protonated)
C=c1/c(=C\c2[n-]c(=O)[n-]c2[O-])cc(C)n1C(=O)[N-]Cc1ccc(OC(C)=O)cc1 (cis-trans isomerization)
C=c1/c(=C\c2[n-]c(=O)[n-]c2[O-])cc(C)n1C(=O)[N-]Cc1ccc(OC(C)=O)cc1 (3D coordinates assigned)
C=c1/c(=C\c2[n-]c(=O)[n-]c2[O-])cc(C)n1C(=O)[N-]Cc1ccc(OC(C)=O)cc1 (optimized conformer: 121.08331240660661 kcal/mol)

>  <smiles>  (2980) 
C=c1c(=Cc2[nH]c(=O)[nH]c2O)cc(C)n1C(=O)NCc1ccc(OC(C)=O)cc1

>  <score_type>  (2980) 
oracle

>  <origin>  (2980) 
adg

>  <m_score__min__energy>  (2980) 
-17.5

>  <m_primary>  (2980) 
energy

$$$$
16:0
     RDKit          3D

 23 25  0  0  0  0  0  0  0  0999 V2000
   57.3520   30.5530   42.9390 O   0  0  0  0  0  0  0  0  0  0  0  0
   56.9860   30.5080   44.1430 C   0  0  0  0  0  0  0  0  0  0  0  0
   56.6680   31.7340   44.8130 N   0  0  0  0  0  0  0  0  0  0  0  0
   57.6080   32.7240   45.2540 C   0  0  0  0  0  0  0  0  0  0  0  0
   57.8170   33.9110   44.5320 C   0  0  0  0  0  0  0  0  0  0  0  0
   58.7160   34.8700   45.0030 C   0  0  0  0  0  0  0  0  0  0  0  0
   59.4040   34.6600   46.2000 C   0  0  0  0  0  0  0  0  0  0  0  0
   59.1970   33.4850   46.9420 C   0  0  0  0  0  0  0  0  0  0  0  0
   59.9050   33.2680   48.2250 C   0  0  0  0  0  0  0  0  0  0  0  0
   59.2520   33.2800   49.3050 O   0  0  0  0  0  0  0  0  0  0  0  0
   61.3290   33.0670   48.2640 N   0  0  0  0  0  0  0  0  0  0  0  0
   61.9290   31.9740   47.4950 C   0  0  0  0  0  0  0  0  0  0  0  0
   63.3950   32.3010   47.2010 C   0  0  0  0  0  0  0  0  0  0  0  0
   64.0870   32.6240   48.3930 O   0  0  0  0  0  0  0  0  0  0  0  0
   63.5580   33.8120   48.9500 C   0  0  0  0  0  0  0  0  0  0  0  0
   62.1010   33.6110   49.3830 C   0  0  0  0  0  0  0  0  0  0  0  0
   58.2790   32.5290   46.4680 C   0  0  0  0  0  0  0  0  0  0  0  0
   56.8270   29.1970   44.8020 C   0  0  0  0  0  0  0  0  0  0  0  0
   57.8680   28.3880   45.2270 C   0  0  0  0  0  0  0  0  0  0  0  0
   57.2870   27.2580   45.7550 C   0  0  0  0  0  0  0  0  0  0  0  0
   55.9290   27.4390   45.6150 C   0  0  0  0  0  0  0  0  0  0  0  0
   54.9650   26.5250   46.0200 O   0  0  0  0  0  0  0  0  0  0  0  0
   55.6330   28.6130   45.0320 N   0  0  0  0  0  0  0  0  0  0  0  0
  1  2  2  0
  2  3  1  0
  3  4  1  0
  4  5  2  0
  5  6  1  0
  6  7  2  0
  7  8  1  0
  8  9  1  0
  9 10  2  0
  9 11  1  0
 11 12  1  0
 12 13  1  0
 13 14  1  0
 14 15  1  0
 15 16  1  0
  8 17  2  0
  2 18  1  0
 18 19  2  0
 19 20  1  0
 20 21  2  0
 21 22  1  0
 21 23  1  0
 17  4  1  0
 23 18  1  0
 16 11  1  0
M  CHG  3   3  -1  22  -1  23  -1
M  END
>  <UniqueID>  (2981) 
15

>  <SMILES>  (2981) 
O=C([N-]c1cccc(C(=O)N2CCOCC2)c1)c1ccc([O-])[n-]1

>  <Energy>  (2981) 
74.00886745275344

>  <Genealogy>  (2981) 
O=C([N-]c1cccc(C(=O)N2CCOCC2)c1)c1ccc([O-])[n-]1 (protonated)
O=C([N-]c1cccc(C(=O)N2CCOCC2)c1)c1ccc([O-])[n-]1 (3D coordinates assigned)
O=C([N-]c1cccc(C(=O)N2CCOCC2)c1)c1ccc([O-])[n-]1 (nonaromatic ring conformer: 74.00886745275344 kcal/mol)

>  <smiles>  (2981) 
O=C(Nc1cccc(C(=O)N2CCOCC2)c1)c1ccc(O)[nH]1

>  <score_type>  (2981) 
oracle

>  <origin>  (2981) 
adg

>  <m_score__min__energy>  (2981) 
-15.15

>  <m_primary>  (2981) 
energy

$$$$
17:0
     RDKit          3D

 30 33  0  0  0  0  0  0  0  0999 V2000
   55.8210   31.6030   51.9720 C   0  0  0  0  0  0  0  0  0  0  0  0
   55.3470   30.4350   52.4370 C   0  0  0  0  0  0  0  0  0  0  0  0
   54.0440   29.9430   52.2690 C   0  0  0  0  0  0  0  0  0  0  0  0
   53.0330   30.5420   51.6000 C   0  0  0  0  0  0  0  0  0  0  0  0
   51.9770   31.3900   52.1990 C   0  0  0  0  0  0  0  0  0  0  0  0
   51.5510   31.3470   53.4740 N   0  0  0  0  0  0  0  0  0  0  0  0
   50.5790   32.2820   53.5170 C   0  0  0  0  0  0  0  0  0  0  0  0
   49.9330   32.5410   54.5650 O   0  0  0  0  0  0  0  0  0  0  0  0
   50.3540   32.9180   52.3490 N   0  0  0  0  0  0  0  0  0  0  0  0
   51.2450   32.3400   51.5250 C   0  0  0  0  0  0  0  0  0  0  0  0
   51.3890   32.6740   50.1820 O   0  0  0  0  0  0  0  0  0  0  0  0
   54.0050   28.7270   52.9420 C   0  0  0  0  0  0  0  0  0  0  0  0
   55.2590   28.5290   53.4830 C   0  0  0  0  0  0  0  0  0  0  0  0
   55.6510   27.3340   54.2990 C   0  0  0  0  0  0  0  0  0  0  0  0
   56.0820   29.5540   53.1650 N   0  0  0  0  0  0  0  0  0  0  0  0
   57.4790   29.6980   53.6030 C   0  0  0  0  0  0  0  0  0  0  0  0
   58.4320   29.3290   52.4640 C   0  0  0  0  0  0  0  0  0  0  0  0
   58.7310   30.5340   51.6140 C   0  0  0  0  0  0  0  0  0  0  0  0
   59.1430   31.7350   52.2120 C   0  0  0  0  0  0  0  0  0  0  0  0
   59.3890   32.8610   51.4260 C   0  0  0  0  0  0  0  0  0  0  0  0
   59.2160   32.8030   50.0410 C   0  0  0  0  0  0  0  0  0  0  0  0
   58.7860   31.6140   49.4250 C   0  0  0  0  0  0  0  0  0  0  0  0
   58.5860   31.5570   47.9980 N   0  0  0  0  0  0  0  0  0  0  0  0
   59.1550   30.4430   47.2240 C   0  0  0  0  0  0  0  0  0  0  0  0
   58.3030   30.0980   45.9810 C   0  0  0  0  0  0  0  0  0  0  0  0
   57.3860   31.1860   45.5700 N   0  0  0  0  0  0  0  0  0  0  0  0
   56.9990   31.0310   44.1600 C   0  0  0  0  0  0  0  0  0  0  0  0
   57.9860   32.5090   45.7970 C   0  0  0  0  0  0  0  0  0  0  0  0
   58.0760   32.7480   47.3030 C   0  0  0  0  0  0  0  0  0  0  0  0
   58.5440   30.4820   50.2240 C   0  0  0  0  0  0  0  0  0  0  0  0
  1  2  2  0
  2  3  1  0
  3  4  2  3
  4  5  1  0
  5  6  1  0
  6  7  1  0
  7  8  2  0
  7  9  1  0
  9 10  1  0
 10 11  1  0
  3 12  1  0
 12 13  2  0
 13 14  1  0
 13 15  1  0
 15 16  1  0
 16 17  1  0
 17 18  1  0
 18 19  2  0
 19 20  1  0
 20 21  2  0
 21 22  1  0
 22 23  1  0
 23 24  1  0
 24 25  1  0
 25 26  1  0
 26 27  1  0
 26 28  1  0
 28 29  1  0
 22 30  2  0
 15  2  1  0
 30 18  1  0
 10  5  2  0
 29 23  1  0
M  CHG  2   6  -1   9  -1
M  END
>  <UniqueID>  (2982) 
16

>  <SMILES>  (2982) 
C=c1c(=Cc2[n-]c(=O)[n-]c2O)cc(C)n1CCc1cccc(N2CCN(C)CC2)c1

>  <Energy>  (2982) 
125.8709642466388

>  <Genealogy>  (2982) 
C=c1c(=Cc2[n-]c(=O)[n-]c2O)cc(C)n1CCc1cccc(N2CCN(C)CC2)c1 (protonated)
C=c1c(=Cc2[n-]c(=O)[n-]c2O)cc(C)n1CCc1cccc(N2CCN(C)CC2)c1 (3D coordinates assigned)
C=c1c(=Cc2[n-]c(=O)[n-]c2O)cc(C)n1CCc1cccc(N2CCN(C)CC2)c1 (nonaromatic ring conformer: 125.8709642466388 kcal/mol)

>  <smiles>  (2982) 
C=c1c(=Cc2[nH]c(=O)[nH]c2O)cc(C)n1CCc1cccc(N2CCN(C)CC2)c1

>  <score_type>  (2982) 
oracle

>  <origin>  (2982) 
adg

>  <m_score__min__energy>  (2982) 
-14.039999999999999

>  <m_primary>  (2982) 
energy

$$$$
30:0
     RDKit          3D

 28 30  0  0  0  0  0  0  0  0999 V2000
   64.1660   33.1320   48.3090 C   0  0  0  0  0  0  0  0  0  0  0  0
   62.9760   33.9180   47.9390 N   0  0  0  0  0  0  0  0  0  0  0  0
   62.2390   33.3290   46.8060 C   0  0  0  0  0  0  0  0  0  0  0  0
   61.4230   32.0880   47.2100 C   0  0  0  0  0  0  0  0  0  0  0  0
   60.5540   32.3270   48.3770 N   0  0  0  0  0  0  0  0  0  0  0  0
   59.0770   33.1740   47.9690 S   0  0  0  0  0  0  0  0  0  0  0  0
   59.2370   34.6570   48.1420 O   0  0  0  0  0  0  0  0  0  0  0  0
   57.9640   32.7100   48.8670 O   0  0  0  0  0  0  0  0  0  0  0  0
   58.6290   32.8120   46.3000 C   0  0  0  0  0  0  0  0  0  0  0  0
   57.7730   31.7400   46.0130 C   0  0  0  0  0  0  0  0  0  0  0  0
   57.4090   31.4490   44.6890 C   0  0  0  0  0  0  0  0  0  0  0  0
   56.5160   30.2970   44.4290 C   0  0  0  0  0  0  0  0  0  0  0  0
   55.2700   30.4760   44.4580 O   0  0  0  0  0  0  0  0  0  0  0  0
   57.0160   28.9840   44.1220 N   0  0  0  0  0  0  0  0  0  0  0  0
   57.6450   28.1780   44.9300 C   0  0  0  0  0  0  0  0  0  0  0  0
   59.0040   28.2120   45.0430 N   0  0  0  0  0  0  0  0  0  0  0  0
   59.6800   27.3870   45.8870 C   0  0  0  0  0  0  0  0  0  0  0  0
   58.9810   26.4740   46.6770 C   0  0  0  0  0  0  0  0  0  0  0  0
   57.5890   26.4210   46.5920 C   0  0  0  0  0  0  0  0  0  0  0  0
   56.9120   27.2770   45.7180 C   0  0  0  0  0  0  0  0  0  0  0  0
   55.5250   27.2250   45.6350 O   0  0  0  0  0  0  0  0  0  0  0  0
   57.8820   32.2730   43.6460 C   0  0  0  0  0  0  0  0  0  0  0  0
   57.3870   32.0340   41.9720 Cl  0  0  0  0  0  0  0  0  0  0  0  0
   58.7300   33.3470   43.9380 C   0  0  0  0  0  0  0  0  0  0  0  0
   59.1040   33.6160   45.2550 C   0  0  0  0  0  0  0  0  0  0  0  0
   59.9170   34.6720   45.5130 F   0  0  0  0  0  0  0  0  0  0  0  0
   61.2730   32.9450   49.5050 C   0  0  0  0  0  0  0  0  0  0  0  0
   62.0920   34.1810   49.0910 C   0  0  0  0  0  0  0  0  0  0  0  0
  1  2  1  0
  2  3  1  0
  3  4  1  0
  4  5  1  0
  5  6  1  0
  6  7  2  0
  6  8  2  0
  6  9  1  0
  9 10  2  0
 10 11  1  0
 11 12  1  0
 12 13  2  0
 12 14  1  0
 14 15  2  3
 15 16  1  0
 16 17  1  0
 17 18  2  0
 18 19  1  0
 19 20  2  0
 20 21  1  0
 11 22  2  0
 22 23  1  0
 22 24  1  0
 24 25  2  0
 25 26  1  0
  5 27  1  0
 27 28  1  0
 28  2  1  0
 25  9  1  0
 20 15  1  0
M  CHG  2  16  -1  21  -1
M  END
>  <UniqueID>  (2983) 
29

>  <SMILES>  (2983) 
CN1CCN(S(=O)(=O)c2cc(C(=O)N=c3[n-]cccc3[O-])c(Cl)cc2F)CC1

>  <Energy>  (2983) 
63.52851283253541

>  <Genealogy>  (2983) 
CN1CCN(S(=O)(=O)c2cc(C(=O)N=c3[n-]cccc3[O-])c(Cl)cc2F)CC1 (protonated)
CN1CCN(S(=O)(=O)c2cc(C(=O)N=c3[n-]cccc3[O-])c(Cl)cc2F)CC1 (3D coordinates assigned)
CN1CCN(S(=O)(=O)c2cc(C(=O)N=c3[n-]cccc3[O-])c(Cl)cc2F)CC1 (nonaromatic ring conformer: 63.52851283253541 kcal/mol)

>  <smiles>  (2983) 
CN1CCN(S(=O)(=O)c2cc(C(=O)N=c3[nH]cccc3O)c(Cl)cc2F)CC1

>  <score_type>  (2983) 
oracle

>  <origin>  (2983) 
adg

>  <m_score__min__energy>  (2983) 
-14.529999999999999

>  <m_primary>  (2983) 
energy

$$$$
32:0
     RDKit          3D

 31 34  0  0  0  0  0  0  0  0999 V2000
   56.3000   29.3740   44.3010 C   0  0  0  0  0  0  0  0  0  0  0  0
   57.5190   28.9800   44.7050 C   0  0  0  0  0  0  0  0  0  0  0  0
   58.0320   27.6710   44.7120 C   0  0  0  0  0  0  0  0  0  0  0  0
   57.4310   26.4840   44.5040 C   0  0  0  0  0  0  0  0  0  0  0  0
   56.9320   25.5830   45.5550 C   0  0  0  0  0  0  0  0  0  0  0  0
   57.5340   24.4410   45.9320 N   0  0  0  0  0  0  0  0  0  0  0  0
   56.6550   23.8980   46.8030 C   0  0  0  0  0  0  0  0  0  0  0  0
   56.8720   22.8090   47.3940 O   0  0  0  0  0  0  0  0  0  0  0  0
   55.5220   24.6100   46.9810 N   0  0  0  0  0  0  0  0  0  0  0  0
   55.7080   25.6650   46.1730 C   0  0  0  0  0  0  0  0  0  0  0  0
   54.7770   26.6810   45.9990 O   0  0  0  0  0  0  0  0  0  0  0  0
   59.3770   27.7850   45.0250 C   0  0  0  0  0  0  0  0  0  0  0  0
   59.6250   29.1230   45.2510 C   0  0  0  0  0  0  0  0  0  0  0  0
   60.9510   29.6920   45.6570 C   0  0  0  0  0  0  0  0  0  0  0  0
   58.4990   29.8460   45.0680 N   0  0  0  0  0  0  0  0  0  0  0  0
   58.4090   31.2780   45.1600 C   0  0  0  0  0  0  0  0  0  0  0  0
   57.8050   32.0140   44.1330 C   0  0  0  0  0  0  0  0  0  0  0  0
   57.7320   33.4050   44.2180 C   0  0  0  0  0  0  0  0  0  0  0  0
   58.2570   34.0700   45.3290 C   0  0  0  0  0  0  0  0  0  0  0  0
   58.8610   33.3450   46.3740 C   0  0  0  0  0  0  0  0  0  0  0  0
   59.4320   34.0330   47.5590 C   0  0  0  0  0  0  0  0  0  0  0  0
   59.2540   35.2780   47.6790 O   0  0  0  0  0  0  0  0  0  0  0  0
   60.1320   33.3020   48.5980 N   0  0  2  0  0  0  0  0  0  0  0  0
   60.6790   34.2430   49.6200 C   0  0  0  0  0  0  0  0  0  0  0  0
   62.2000   34.4180   49.5200 C   0  0  0  0  0  0  0  0  0  0  0  0
   62.9140   33.0600   49.7130 C   0  0  2  0  0  0  0  0  0  0  0  0
   64.3870   33.1160   49.2590 C   0  0  0  0  0  0  0  0  0  0  0  0
   64.5060   33.0830   47.8010 N   0  0  0  0  0  0  0  0  0  0  0  0
   62.1370   31.8870   49.0570 C   0  0  0  0  0  0  0  0  0  0  0  0
   61.1440   32.3890   48.0010 C   0  0  0  0  0  0  0  0  0  0  0  0
   58.9440   31.9450   46.2710 C   0  0  0  0  0  0  0  0  0  0  0  0
  1  2  2  0
  2  3  1  0
  3  4  2  3
  4  5  1  0
  5  6  1  0
  6  7  1  0
  7  8  2  0
  7  9  1  0
  9 10  1  0
 10 11  1  0
  3 12  1  0
 12 13  2  0
 13 14  1  0
 13 15  1  0
 15 16  1  0
 16 17  2  0
 17 18  1  0
 18 19  2  0
 19 20  1  0
 20 21  1  0
 21 22  2  0
 23 21  1  6
 23 24  1  0
 24 25  1  0
 25 26  1  0
 26 27  1  6
 27 28  1  0
 26 29  1  0
 29 30  1  0
 20 31  2  0
 15  2  1  0
 31 16  1  0
 10  5  2  0
 30 23  1  0
M  CHG  4   6  -1   9  -1  11  -1  23   1
M  END
>  <UniqueID>  (2984) 
30

>  <SMILES>  (2984) 
C=c1c(=Cc2[n-]c(=O)[n-]c2[O-])cc(C)n1-c1cccc(C(=O)[NH+]2CCC(CN)CC2)c1

>  <Energy>  (2984) 
145.62234664101166

>  <Genealogy>  (2984) 
C=c1c(=Cc2[n-]c(=O)[n-]c2[O-])cc(C)n1-c1cccc(C(=O)[NH+]2CCC(CN)CC2)c1 (protonated)
C=c1c(=Cc2[n-]c(=O)[n-]c2[O-])cc(C)n1-c1cccc(C(=O)[NH+]2CCC(CN)CC2)c1 (3D coordinates assigned)
C=c1c(=Cc2[n-]c(=O)[n-]c2[O-])cc(C)n1-c1cccc(C(=O)[NH+]2CCC(CN)CC2)c1 (nonaromatic ring conformer: 145.62234664101166 kcal/mol)

>  <smiles>  (2984) 
C=c1c(=Cc2[nH]c(=O)[nH]c2O)cc(C)n1-c1cccc(C(=O)N2CCC(CN)CC2)c1

>  <score_type>  (2984) 
oracle

>  <origin>  (2984) 
adg

>  <m_score__min__energy>  (2984) 
-16.23

>  <m_primary>  (2984) 
energy

$$$$
45:0
     RDKit          3D

 38 42  0  0  0  0  0  0  0  0999 V2000
   56.5140   29.4050   43.3240 C   0  0  0  0  0  0  0  0  0  0  0  0
   57.3150   29.3580   44.4000 C   0  0  0  0  0  0  0  0  0  0  0  0
   57.8860   28.2140   44.9810 C   0  0  0  0  0  0  0  0  0  0  0  0
   57.6210   26.9050   44.8000 C   0  0  0  0  0  0  0  0  0  0  0  0
   57.1770   25.9690   45.8470 C   0  0  0  0  0  0  0  0  0  0  0  0
   57.9150   24.9540   46.3330 N   0  0  0  0  0  0  0  0  0  0  0  0
   57.0530   24.3030   47.1430 C   0  0  0  0  0  0  0  0  0  0  0  0
   57.3840   23.2850   47.8050 O   0  0  0  0  0  0  0  0  0  0  0  0
   55.8070   24.8220   47.1810 N   0  0  0  0  0  0  0  0  0  0  0  0
   55.9000   25.8670   46.3450 C   0  0  0  0  0  0  0  0  0  0  0  0
   54.8360   26.7040   46.0340 O   0  0  0  0  0  0  0  0  0  0  0  0
   58.8250   28.6690   45.8910 C   0  0  0  0  0  0  0  0  0  0  0  0
   58.7450   30.0440   45.8900 C   0  0  0  0  0  0  0  0  0  0  0  0
   59.5160   30.9160   46.7900 C   0  0  0  0  0  0  0  0  0  0  0  0
   60.0900   31.9260   46.3020 O   0  0  0  0  0  0  0  0  0  0  0  0
   59.6290   30.6170   48.1990 N   0  0  0  0  0  0  0  0  0  0  0  0
   58.8270   29.5270   48.7830 C   0  0  0  0  0  0  0  0  0  0  0  0
   59.1050   29.3700   50.2800 C   0  0  0  0  0  0  0  0  0  0  0  0
   60.5560   29.3850   50.5090 N   0  0  0  0  0  0  0  0  0  0  0  0
   61.1970   28.2090   51.0520 C   0  0  0  0  0  0  0  0  0  0  0  0
   60.7470   27.0700   50.7500 O   0  0  0  0  0  0  0  0  0  0  0  0
   62.2820   28.2970   51.9980 N   0  0  0  0  0  0  0  0  0  0  0  0
   63.5210   29.0210   51.6800 C   0  0  0  0  0  0  0  0  0  0  0  0
   64.7170   28.4070   52.4180 C   0  0  0  0  0  0  0  0  0  0  0  0
   64.6030   26.9360   52.3710 N   0  0  0  0  0  0  0  0  0  0  0  0
   65.8530   26.2830   52.8120 C   0  0  0  0  0  0  0  0  0  0  0  0
   67.0000   26.6730   51.9170 C   0  0  0  0  0  0  0  0  0  0  0  0
   66.9650   26.3510   50.5490 C   0  0  0  0  0  0  0  0  0  0  0  0
   68.0270   26.7090   49.7150 C   0  0  0  0  0  0  0  0  0  0  0  0
   69.1290   27.3930   50.2370 C   0  0  0  0  0  0  0  0  0  0  0  0
   69.1670   27.7250   51.5940 C   0  0  0  0  0  0  0  0  0  0  0  0
   68.1070   27.3690   52.4320 C   0  0  0  0  0  0  0  0  0  0  0  0
   63.4540   26.4550   53.1800 C   0  0  0  0  0  0  0  0  0  0  0  0
   62.2620   27.4370   53.1890 C   0  0  0  0  0  0  0  0  0  0  0  0
   61.3440   30.5070   49.9740 C   0  0  0  0  0  0  0  0  0  0  0  0
   60.5020   31.4220   49.0700 C   0  0  0  0  0  0  0  0  0  0  0  0
   57.8210   30.4680   44.9990 N   0  0  0  0  0  0  0  0  0  0  0  0
   57.5120   31.8630   44.6670 C   0  0  0  0  0  0  0  0  0  0  0  0
  1  2  2  0
  2  3  1  0
  3  4  2  0
  4  5  1  0
  5  6  1  0
  6  7  1  0
  7  8  2  0
  7  9  1  0
  9 10  1  0
 10 11  1  0
  3 12  1  0
 12 13  2  0
 13 14  1  0
 14 15  2  0
 14 16  1  0
 16 17  1  0
 17 18  1  0
 18 19  1  0
 19 20  1  0
 20 21  2  0
 20 22  1  0
 22 23  1  0
 23 24  1  0
 24 25  1  0
 25 26  1  0
 26 27  1  0
 27 28  2  0
 28 29  1  0
 29 30  2  0
 30 31  1  0
 31 32  2  0
 25 33  1  0
 33 34  1  0
 19 35  1  0
 35 36  1  0
 13 37  1  0
 37 38  1  0
 37  2  1  0
 10  5  2  0
 36 16  1  0
 34 22  1  0
 32 27  1  0
M  CHG  3   6  -1   9  -1  11  -1
M  END
>  <UniqueID>  (2985) 
42

>  <SMILES>  (2985) 
C=c1/c(=C\c2[n-]c(=O)[n-]c2[O-])cc(C(=O)N2CCN(C(=O)N3CCN(Cc4ccccc4)CC3)CC2)n1C

>  <Energy>  (2985) 
163.57949964607315

>  <Genealogy>  (2985) 
C=c1c(=Cc2[n-]c(=O)[n-]c2[O-])cc(C(=O)N2CCN(C(=O)N3CCN(Cc4ccccc4)CC3)CC2)n1C (protonated)
C=c1/c(=C\c2[n-]c(=O)[n-]c2[O-])cc(C(=O)N2CCN(C(=O)N3CCN(Cc4ccccc4)CC3)CC2)n1C (cis-trans isomerization)
C=c1/c(=C\c2[n-]c(=O)[n-]c2[O-])cc(C(=O)N2CCN(C(=O)N3CCN(Cc4ccccc4)CC3)CC2)n1C (3D coordinates assigned)
C=c1/c(=C\c2[n-]c(=O)[n-]c2[O-])cc(C(=O)N2CCN(C(=O)N3CCN(Cc4ccccc4)CC3)CC2)n1C (nonaromatic ring conformer: 163.57949964607315 kcal/mol)

>  <smiles>  (2985) 
C=c1c(=Cc2[nH]c(=O)[nH]c2O)cc(C(=O)N2CCN(C(=O)N3CCN(Cc4ccccc4)CC3)CC2)n1C

>  <score_type>  (2985) 
oracle

>  <origin>  (2985) 
adg

>  <m_score__min__energy>  (2985) 
-16.5

>  <m_primary>  (2985) 
energy

$$$$
67:0
     RDKit          3D

 28 30  0  0  0  0  0  0  0  0999 V2000
   58.0470   32.7040   43.6670 C   0  0  0  0  0  0  0  0  0  0  0  0
   58.1590   31.5770   44.3750 C   0  0  0  0  0  0  0  0  0  0  0  0
   58.1330   30.3520   43.8230 N   0  0  0  0  0  0  0  0  0  0  0  0
   58.2610   29.4520   44.8200 C   0  0  0  0  0  0  0  0  0  0  0  0
   58.2970   28.1300   44.5610 C   0  0  0  0  0  0  0  0  0  0  0  0
   57.5490   27.0920   45.2920 C   0  0  0  0  0  0  0  0  0  0  0  0
   56.1970   27.2780   45.6100 C   0  0  0  0  0  0  0  0  0  0  0  0
   55.5250   28.4240   45.2020 O   0  0  0  0  0  0  0  0  0  0  0  0
   55.5310   26.3300   46.3200 N   0  0  0  0  0  0  0  0  0  0  0  0
   56.1600   25.2070   46.7510 C   0  0  0  0  0  0  0  0  0  0  0  0
   55.5220   24.3400   47.4020 O   0  0  0  0  0  0  0  0  0  0  0  0
   57.4790   25.0220   46.4860 N   0  0  0  0  0  0  0  0  0  0  0  0
   58.1870   25.9390   45.7780 C   0  0  0  0  0  0  0  0  0  0  0  0
   59.4130   25.7410   45.5610 O   0  0  0  0  0  0  0  0  0  0  0  0
   58.3720   30.1220   46.0530 C   0  0  0  0  0  0  0  0  0  0  0  0
   58.8160   29.5680   47.3880 C   0  0  0  0  0  0  0  0  0  0  0  0
   60.2210   28.9680   47.2820 C   0  0  0  0  0  0  0  0  0  0  0  0
   60.3090   27.6380   48.0250 C   0  0  0  0  0  0  0  0  0  0  0  0
   58.3070   31.4820   45.7490 C   0  0  0  0  0  0  0  0  0  0  0  0
   58.4640   32.6120   46.6890 C   0  0  0  0  0  0  0  0  0  0  0  0
   57.4410   33.2720   47.0240 O   0  0  0  0  0  0  0  0  0  0  0  0
   59.7440   32.8860   47.3060 N   0  0  0  0  0  0  0  0  0  0  0  0
   59.5450   33.5480   48.6210 C   0  0  0  0  0  0  0  0  0  0  0  0
   60.7140   34.4800   49.0170 C   0  0  0  0  0  0  0  0  0  0  0  0
   62.0130   34.0320   48.4770 N   0  0  0  0  0  0  0  0  0  0  0  0
   62.5330   32.8580   49.1990 C   0  0  0  0  0  0  0  0  0  0  0  0
   62.0070   33.8420   47.0050 C   0  0  0  0  0  0  0  0  0  0  0  0
   60.5930   33.6940   46.4110 C   0  0  0  0  0  0  0  0  0  0  0  0
  1  2  2  0
  2  3  1  0
  3  4  1  0
  4  5  2  3
  5  6  1  0
  6  7  2  0
  7  8  1  0
  7  9  1  0
  9 10  1  0
 10 11  2  0
 10 12  1  0
 12 13  1  0
 13 14  2  0
  4 15  1  0
 15 16  1  0
 16 17  1  0
 17 18  1  0
 15 19  2  0
 19 20  1  0
 20 21  2  0
 20 22  1  0
 22 23  1  0
 23 24  1  0
 24 25  1  0
 25 26  1  0
 25 27  1  0
 27 28  1  0
 19  2  1  0
 28 22  1  0
 13  6  1  0
M  CHG  4   8  -1   9  -1  12  -1  22   1
M  END
>  <UniqueID>  (2986) 
64

>  <SMILES>  (2986) 
C=c1[nH]c(=Cc2c([O-])[n-]c(=O)[n-]c2=O)c(CCC)c1C(=O)[NH+]1CCN(C)CC1

>  <Energy>  (2986) 
105.01266351676152

>  <Genealogy>  (2986) 
C=c1[nH]c(=Cc2c([O-])[n-]c(=O)[n-]c2=O)c(CCC)c1C(=O)[NH+]1CCN(C)CC1 (protonated)
C=c1[nH]c(=Cc2c([O-])[n-]c(=O)[n-]c2=O)c(CCC)c1C(=O)[NH+]1CCN(C)CC1 (3D coordinates assigned)
C=c1[nH]c(=Cc2c([O-])[n-]c(=O)[n-]c2=O)c(CCC)c1C(=O)[NH+]1CCN(C)CC1 (nonaromatic ring conformer: 105.01266351676152 kcal/mol)

>  <smiles>  (2986) 
C=c1[nH]c(=Cc2c(O)[nH]c(=O)[nH]c2=O)c(CCC)c1C(=O)N1CCN(C)CC1

>  <score_type>  (2986) 
oracle

>  <origin>  (2986) 
adg

>  <m_score__min__energy>  (2986) 
-14.380000000000001

>  <m_primary>  (2986) 
energy

$$$$
79:0
     RDKit          3D

 28 31  0  0  0  0  0  0  0  0999 V2000
   54.2260   27.8950   52.7280 C   0  0  0  0  0  0  0  0  0  0  0  0
   54.6370   29.1590   52.5880 C   0  0  0  0  0  0  0  0  0  0  0  0
   55.9350   29.5040   52.7200 N   0  0  0  0  0  0  0  0  0  0  0  0
   55.9960   30.8490   52.6880 C   0  0  0  0  0  0  0  0  0  0  0  0
   57.2380   31.6270   52.8520 C   0  0  0  0  0  0  0  0  0  0  0  0
   57.4590   32.2120   53.9480 O   0  0  0  0  0  0  0  0  0  0  0  0
   58.2040   31.7110   51.7920 N   0  0  0  0  0  0  0  0  0  0  0  0
   59.6320   31.7410   52.1230 C   0  0  0  0  0  0  0  0  0  0  0  0
   60.4440   31.0640   51.0160 C   0  0  0  0  0  0  0  0  0  0  0  0
   60.0290   31.5630   49.7020 N   0  0  0  0  0  0  0  0  0  0  0  0
   60.9770   31.5730   48.6220 C   0  0  0  0  0  0  0  0  0  0  0  0
   60.9090   30.6810   47.7360 O   0  0  0  0  0  0  0  0  0  0  0  0
   62.0450   32.6370   48.4980 C   0  0  0  0  0  0  0  0  0  0  0  0
   63.3980   32.1830   47.9460 C   0  0  0  0  0  0  0  0  0  0  0  0
   63.2090   33.0990   46.7440 C   0  0  0  0  0  0  0  0  0  0  0  0
   61.8590   33.5490   47.2890 C   0  0  0  0  0  0  0  0  0  0  0  0
   58.6020   31.5320   49.3760 C   0  0  0  0  0  0  0  0  0  0  0  0
   57.7980   32.2230   50.4780 C   0  0  0  0  0  0  0  0  0  0  0  0
   54.7320   31.3840   52.5360 C   0  0  0  0  0  0  0  0  0  0  0  0
   53.8560   30.3150   52.4300 C   0  0  0  0  0  0  0  0  0  0  0  0
   52.5350   30.4680   52.2160 C   0  0  0  0  0  0  0  0  0  0  0  0
   51.9160   30.8860   50.9500 C   0  0  0  0  0  0  0  0  0  0  0  0
   51.8110   30.0860   49.8740 N   0  0  0  0  0  0  0  0  0  0  0  0
   51.0740   30.8180   49.0110 C   0  0  0  0  0  0  0  0  0  0  0  0
   50.7700   30.4070   47.8610 O   0  0  0  0  0  0  0  0  0  0  0  0
   50.6760   32.0200   49.4820 N   0  0  0  0  0  0  0  0  0  0  0  0
   51.2050   32.0410   50.7160 C   0  0  0  0  0  0  0  0  0  0  0  0
   51.0180   33.0810   51.6180 O   0  0  0  0  0  0  0  0  0  0  0  0
  1  2  2  0
  2  3  1  0
  3  4  1  0
  4  5  1  0
  5  6  2  0
  5  7  1  0
  7  8  1  0
  8  9  1  0
  9 10  1  0
 10 11  1  0
 11 12  2  0
 11 13  1  0
 13 14  1  0
 14 15  1  0
 15 16  1  0
 10 17  1  0
 17 18  1  0
  4 19  2  0
 19 20  1  0
 20 21  2  3
 21 22  1  0
 22 23  1  0
 23 24  1  0
 24 25  2  0
 24 26  1  0
 26 27  1  0
 27 28  1  0
 20  2  1  0
 27 22  2  0
 18  7  1  0
 16 13  1  0
M  CHG  3  23  -1  26  -1  28  -1
M  END
>  <UniqueID>  (2987) 
76

>  <SMILES>  (2987) 
C=c1[nH]c(C(=O)N2CCN(C(=O)C3CCC3)CC2)cc1=Cc1[n-]c(=O)[n-]c1[O-]

>  <Energy>  (2987) 
183.979616480056

>  <Genealogy>  (2987) 
C=c1[nH]c(C(=O)N2CCN(C(=O)C3CCC3)CC2)cc1=Cc1[n-]c(=O)[n-]c1[O-] (protonated)
C=c1[nH]c(C(=O)N2CCN(C(=O)C3CCC3)CC2)cc1=Cc1[n-]c(=O)[n-]c1[O-] (3D coordinates assigned)
C=c1[nH]c(C(=O)N2CCN(C(=O)C3CCC3)CC2)cc1=Cc1[n-]c(=O)[n-]c1[O-] (nonaromatic ring conformer: 183.979616480056 kcal/mol)

>  <smiles>  (2987) 
C=c1[nH]c(C(=O)N2CCN(C(=O)C3CCC3)CC2)cc1=Cc1[nH]c(=O)[nH]c1O

>  <score_type>  (2987) 
oracle

>  <origin>  (2987) 
adg

>  <m_score__min__energy>  (2987) 
-17.579999999999998

>  <m_primary>  (2987) 
energy

$$$$
81:0
     RDKit          3D

 26 29  0  0  0  0  0  0  0  0999 V2000
   53.8300   28.8190   54.1600 C   0  0  0  0  0  0  0  0  0  0  0  0
   54.5820   29.5640   53.3460 C   0  0  0  0  0  0  0  0  0  0  0  0
   55.8750   29.3700   53.2070 O   0  0  0  0  0  0  0  0  0  0  0  0
   56.3400   30.2400   52.3440 C   0  0  0  0  0  0  0  0  0  0  0  0
   57.7440   30.3340   51.8900 C   0  0  0  0  0  0  0  0  0  0  0  0
   58.1960   29.3640   51.2210 O   0  0  0  0  0  0  0  0  0  0  0  0
   58.5910   31.4980   52.1100 N   0  0  0  0  0  0  0  0  0  0  0  0
   58.1910   32.6670   51.3040 C   0  0  0  0  0  0  0  0  0  0  0  0
   58.7420   32.6130   49.8830 C   0  0  0  0  0  0  0  0  0  0  0  0
   60.2090   32.4940   49.8780 N   0  0  0  0  0  0  0  0  0  0  0  0
   60.9320   33.7970   49.8540 C   0  0  0  0  0  0  0  0  0  0  0  0
   62.3830   33.7750   50.3340 C   0  0  0  0  0  0  0  0  0  0  0  0
   62.8510   34.1140   48.9230 C   0  0  0  0  0  0  0  0  0  0  0  0
   61.4010   34.2150   48.4580 C   0  0  0  0  0  0  0  0  0  0  0  0
   60.7270   31.3760   50.7030 C   0  0  0  0  0  0  0  0  0  0  0  0
   60.0460   31.2070   52.0810 C   0  0  0  0  0  0  0  0  0  0  0  0
   55.3190   31.0450   51.8780 C   0  0  0  0  0  0  0  0  0  0  0  0
   54.1700   30.6240   52.5320 C   0  0  0  0  0  0  0  0  0  0  0  0
   52.9250   31.1350   52.4320 C   0  0  0  0  0  0  0  0  0  0  0  0
   52.1320   31.2280   51.1850 C   0  0  0  0  0  0  0  0  0  0  0  0
   52.1070   30.3200   50.1930 N   0  0  0  0  0  0  0  0  0  0  0  0
   51.2500   30.8510   49.2970 C   0  0  0  0  0  0  0  0  0  0  0  0
   50.9640   30.2820   48.2100 O   0  0  0  0  0  0  0  0  0  0  0  0
   50.7130   32.0360   49.6570 N   0  0  0  0  0  0  0  0  0  0  0  0
   51.2800   32.2590   50.8540 C   0  0  0  0  0  0  0  0  0  0  0  0
   51.0230   33.3810   51.6310 O   0  0  0  0  0  0  0  0  0  0  0  0
  1  2  2  0
  2  3  1  0
  3  4  1  0
  4  5  1  0
  5  6  2  0
  5  7  1  0
  7  8  1  0
  8  9  1  0
  9 10  1  0
 10 11  1  0
 11 12  1  0
 12 13  1  0
 13 14  1  0
 10 15  1  0
 15 16  1  0
  4 17  2  0
 17 18  1  0
 18 19  2  3
 19 20  1  0
 20 21  1  0
 21 22  1  0
 22 23  2  0
 22 24  1  0
 24 25  1  0
 25 26  1  0
 18  2  1  0
 25 20  2  0
 16  7  1  0
 14 11  1  0
M  CHG  4   7   1  21  -1  24  -1  26  -1
M  END
>  <UniqueID>  (2988) 
78

>  <SMILES>  (2988) 
C=c1oc(C(=O)[NH+]2CCN(C3CCC3)CC2)cc1=Cc1[n-]c(=O)[n-]c1[O-]

>  <Energy>  (2988) 
197.74919461686818

>  <Genealogy>  (2988) 
C=c1oc(C(=O)[NH+]2CCN(C3CCC3)CC2)cc1=Cc1[n-]c(=O)[n-]c1[O-] (protonated)
C=c1oc(C(=O)[NH+]2CCN(C3CCC3)CC2)cc1=Cc1[n-]c(=O)[n-]c1[O-] (3D coordinates assigned)
C=c1oc(C(=O)[NH+]2CCN(C3CCC3)CC2)cc1=Cc1[n-]c(=O)[n-]c1[O-] (nonaromatic ring conformer: 197.74919461686818 kcal/mol)

>  <smiles>  (2988) 
C=c1oc(C(=O)N2CCN(C3CCC3)CC2)cc1=Cc1[nH]c(=O)[nH]c1O

>  <score_type>  (2988) 
oracle

>  <origin>  (2988) 
adg

>  <m_score__min__energy>  (2988) 
-16.260000000000002

>  <m_primary>  (2988) 
energy

$$$$
87:0
     RDKit          3D

 29 32  0  0  0  0  0  0  0  0999 V2000
   52.9350   29.1050   53.0550 C   0  0  0  0  0  0  0  0  0  0  0  0
   52.6230   30.2860   52.2580 N   0  0  0  0  0  0  0  0  0  0  0  0
   51.4710   30.5390   51.6140 C   0  0  0  0  0  0  0  0  0  0  0  0
   51.6370   31.7190   50.9280 C   0  0  0  0  0  0  0  0  0  0  0  0
   50.6710   32.3320   50.1410 O   0  0  0  0  0  0  0  0  0  0  0  0
   52.8770   32.2150   51.1120 N   0  0  0  0  0  0  0  0  0  0  0  0
   53.4540   31.2970   51.9220 C   0  0  0  0  0  0  0  0  0  0  0  0
   54.6750   31.3850   52.3640 N   0  0  0  0  0  0  0  0  0  0  0  0
   55.7560   30.5050   52.0160 C   0  0  0  0  0  0  0  0  0  0  0  0
   55.5410   29.2650   52.0110 O   0  0  0  0  0  0  0  0  0  0  0  0
   57.0890   31.0110   51.6080 C   0  0  0  0  0  0  0  0  0  0  0  0
   57.4170   32.3690   51.7590 C   0  0  0  0  0  0  0  0  0  0  0  0
   58.6700   32.8390   51.3620 C   0  0  0  0  0  0  0  0  0  0  0  0
   59.6020   31.9660   50.7980 C   0  0  0  0  0  0  0  0  0  0  0  0
   59.2840   30.6100   50.6120 C   0  0  0  0  0  0  0  0  0  0  0  0
   60.2730   29.6790   50.0180 C   0  0  0  0  0  0  0  0  0  0  0  0
   61.0790   29.0670   50.7730 O   0  0  0  0  0  0  0  0  0  0  0  0
   60.3380   29.4640   48.5970 N   0  0  0  0  0  0  0  0  0  0  0  0
   61.1080   30.3690   47.7410 C   0  0  0  0  0  0  0  0  0  0  0  0
   60.1450   31.3160   47.0240 C   0  0  0  0  0  0  0  0  0  0  0  0
   58.9560   30.5860   46.4400 C   0  0  0  0  0  0  0  0  0  0  0  0
   58.1760   31.2290   45.4660 C   0  0  0  0  0  0  0  0  0  0  0  0
   57.0370   30.6080   44.9470 C   0  0  0  0  0  0  0  0  0  0  0  0
   56.6600   29.3440   45.4030 C   0  0  0  0  0  0  0  0  0  0  0  0
   55.5290   28.7270   44.8800 O   0  0  0  0  0  0  0  0  0  0  0  0
   57.4190   28.6970   46.3810 C   0  0  0  0  0  0  0  0  0  0  0  0
   58.5580   29.3140   46.9200 C   0  0  0  0  0  0  0  0  0  0  0  0
   59.3890   28.5650   47.9330 C   0  0  0  0  0  0  0  0  0  0  0  0
   58.0250   30.1400   51.0240 C   0  0  0  0  0  0  0  0  0  0  0  0
  1  2  1  0
  2  3  1  0
  3  4  2  0
  4  5  1  0
  4  6  1  0
  6  7  1  0
  7  8  2  3
  8  9  1  0
  9 10  2  0
  9 11  1  0
 11 12  2  0
 12 13  1  0
 13 14  2  0
 14 15  1  0
 15 16  1  0
 16 17  2  0
 16 18  1  0
 18 19  1  0
 19 20  1  0
 20 21  1  0
 21 22  2  0
 22 23  1  0
 23 24  2  0
 24 25  1  0
 24 26  1  0
 26 27  2  0
 27 28  1  0
 15 29  2  0
  7  2  1  0
 29 11  1  0
 28 18  1  0
 27 21  1  0
M  CHG  3   5  -1   6  -1  25  -1
M  END
>  <UniqueID>  (2989) 
84

>  <SMILES>  (2989) 
Cn1cc([O-])[n-]c1=NC(=O)c1cccc(C(=O)N2CCc3ccc([O-])cc3C2)c1

>  <Energy>  (2989) 
95.42922297910333

>  <Genealogy>  (2989) 
Cn1cc([O-])[n-]c1=NC(=O)c1cccc(C(=O)N2CCc3ccc([O-])cc3C2)c1 (protonated)
Cn1cc([O-])[n-]c1=NC(=O)c1cccc(C(=O)N2CCc3ccc([O-])cc3C2)c1 (3D coordinates assigned)
Cn1cc([O-])[n-]c1=NC(=O)c1cccc(C(=O)N2CCc3ccc([O-])cc3C2)c1 (nonaromatic ring conformer: 95.42922297910333 kcal/mol)

>  <smiles>  (2989) 
Cn1cc(O)[nH]c1=NC(=O)c1cccc(C(=O)N2CCc3ccc(O)cc3C2)c1

>  <score_type>  (2989) 
oracle

>  <origin>  (2989) 
adg

>  <m_score__min__energy>  (2989) 
-16.829999999999998

>  <m_primary>  (2989) 
energy

$$$$
12:0
     RDKit          3D

 28 30  0  0  0  0  0  0  0  0999 V2000
   58.1110   29.8330   50.4100 O   0  0  0  0  0  0  0  0  0  0  0  0
   59.1090   30.6050   51.0180 C   0  0  0  0  0  0  0  0  0  0  0  0
   60.2170   30.9260   50.0170 C   0  0  0  0  0  0  0  0  0  0  0  0
   59.6930   30.8460   48.7080 O   0  0  0  0  0  0  0  0  0  0  0  0
   60.6740   30.3570   47.8110 C   0  0  0  0  0  0  0  0  0  0  0  0
   60.3690   30.8330   46.3890 C   0  0  0  0  0  0  0  0  0  0  0  0
   59.3150   30.0070   45.7790 N   0  0  0  0  0  0  0  0  0  0  0  0
   58.2580   30.4560   45.0560 C   0  0  0  0  0  0  0  0  0  0  0  0
   57.9470   31.8710   44.7490 C   0  0  0  0  0  0  0  0  0  0  0  0
   57.3990   32.1700   43.6550 O   0  0  0  0  0  0  0  0  0  0  0  0
   58.3270   32.9200   45.6590 N   0  0  0  0  0  0  0  0  0  0  0  0
   57.9670   32.8260   47.0780 C   0  0  0  0  0  0  0  0  0  0  0  0
   58.9520   33.6500   47.9110 C   0  0  0  0  0  0  0  0  0  0  0  0
   59.0390   34.9750   47.4200 O   0  0  0  0  0  0  0  0  0  0  0  0
   59.5890   34.9690   46.1170 C   0  0  0  0  0  0  0  0  0  0  0  0
   58.6610   34.2460   45.1350 C   0  0  0  0  0  0  0  0  0  0  0  0
   57.4660   29.3970   44.6590 C   0  0  0  0  0  0  0  0  0  0  0  0
   58.0660   28.2430   45.1240 C   0  0  0  0  0  0  0  0  0  0  0  0
   57.5930   27.0130   44.8420 C   0  0  0  0  0  0  0  0  0  0  0  0
   57.1430   26.0190   45.8290 C   0  0  0  0  0  0  0  0  0  0  0  0
   57.8900   24.9940   46.2820 N   0  0  0  0  0  0  0  0  0  0  0  0
   57.0240   24.2880   47.0410 C   0  0  0  0  0  0  0  0  0  0  0  0
   57.3590   23.2440   47.6580 O   0  0  0  0  0  0  0  0  0  0  0  0
   55.7680   24.7820   47.0740 N   0  0  0  0  0  0  0  0  0  0  0  0
   55.8590   25.8680   46.2910 C   0  0  0  0  0  0  0  0  0  0  0  0
   54.7870   26.7020   45.9980 O   0  0  0  0  0  0  0  0  0  0  0  0
   59.1860   28.6540   45.8630 C   0  0  0  0  0  0  0  0  0  0  0  0
   59.9430   27.8870   46.6640 C   0  0  0  0  0  0  0  0  0  0  0  0
  1  2  1  0
  2  3  1  0
  3  4  1  0
  4  5  1  0
  5  6  1  0
  6  7  1  0
  7  8  1  0
  8  9  1  0
  9 10  2  0
  9 11  1  0
 11 12  1  0
 12 13  1  0
 13 14  1  0
 14 15  1  0
 15 16  1  0
  8 17  2  0
 17 18  1  0
 18 19  2  0
 19 20  1  0
 20 21  1  0
 21 22  1  0
 22 23  2  0
 22 24  1  0
 24 25  1  0
 25 26  1  0
 18 27  1  0
 27 28  2  0
 27  7  1  0
 16 11  1  0
 25 20  2  0
M  CHG  3  21  -1  24  -1  26  -1
M  END
>  <UniqueID>  (2990) 
10

>  <SMILES>  (2990) 
C=c1/c(=C\c2[n-]c(=O)[n-]c2[O-])cc(C(=O)N2CCOCC2)n1CCOCCO

>  <Energy>  (2990) 
122.34805741735487

>  <Genealogy>  (2990) 
C=c1c(=Cc2[n-]c(=O)[n-]c2[O-])cc(C(=O)N2CCOCC2)n1CCOCCO (protonated)
C=c1/c(=C\c2[n-]c(=O)[n-]c2[O-])cc(C(=O)N2CCOCC2)n1CCOCCO (cis-trans isomerization)
C=c1/c(=C\c2[n-]c(=O)[n-]c2[O-])cc(C(=O)N2CCOCC2)n1CCOCCO (3D coordinates assigned)
C=c1/c(=C\c2[n-]c(=O)[n-]c2[O-])cc(C(=O)N2CCOCC2)n1CCOCCO (nonaromatic ring conformer: 122.34805741735487 kcal/mol)

>  <smiles>  (2990) 
C=c1c(=Cc2[nH]c(=O)[nH]c2O)cc(C(=O)N2CCOCC2)n1CCOCCO

>  <score_type>  (2990) 
oracle

>  <origin>  (2990) 
adg

>  <m_score__min__energy>  (2990) 
-14.68

>  <m_primary>  (2990) 
energy

$$$$
19:0
     RDKit          3D

 34 38  0  0  0  0  0  0  0  0999 V2000
   53.9820   25.9780   45.6350 O   0  0  0  0  0  0  0  0  0  0  0  0
   53.6000   24.6420   45.5840 C   0  0  0  0  0  0  0  0  0  0  0  0
   52.4080   24.2210   45.1260 N   0  0  0  0  0  0  0  0  0  0  0  0
   52.4700   22.8880   45.3260 C   0  0  0  0  0  0  0  0  0  0  0  0
   51.5220   22.1140   45.0270 O   0  0  0  0  0  0  0  0  0  0  0  0
   53.6180   22.4490   45.8850 N   0  0  0  0  0  0  0  0  0  0  0  0
   54.3480   23.5700   46.0170 C   0  0  0  0  0  0  0  0  0  0  0  0
   55.6490   23.6170   46.7010 C   0  0  0  0  0  0  0  0  0  0  0  0
   56.6580   24.4650   46.4190 C   0  0  0  0  0  0  0  0  0  0  0  0
   57.4410   25.0430   47.4030 C   0  0  0  0  0  0  0  0  0  0  0  0
   58.2940   25.9220   46.7730 C   0  0  0  0  0  0  0  0  0  0  0  0
   59.3000   26.7830   47.4770 C   0  0  0  0  0  0  0  0  0  0  0  0
   58.1170   25.8790   45.4320 N   0  0  0  0  0  0  0  0  0  0  0  0
   58.8560   26.7020   44.4600 C   0  0  0  0  0  0  0  0  0  0  0  0
   58.6160   28.1760   44.6880 C   0  0  0  0  0  0  0  0  0  0  0  0
   57.3920   28.7750   44.3420 C   0  0  0  0  0  0  0  0  0  0  0  0
   57.2000   30.1470   44.5270 C   0  0  0  0  0  0  0  0  0  0  0  0
   58.2310   30.9470   45.0370 C   0  0  0  0  0  0  0  0  0  0  0  0
   58.0420   32.3650   45.1830 N   0  0  0  0  0  0  0  0  0  0  0  0
   57.1240   32.9030   46.1900 C   0  0  0  0  0  0  0  0  0  0  0  0
   57.9030   33.8440   47.1060 C   0  0  0  0  0  0  0  0  0  0  0  0
   58.6250   34.9020   46.3530 N   0  0  0  0  0  0  0  0  0  0  0  0
   59.8870   35.3300   46.9930 C   0  0  0  0  0  0  0  0  0  0  0  0
   60.8370   34.1940   47.2590 C   0  0  0  0  0  0  0  0  0  0  0  0
   62.2350   33.8470   46.3860 S   0  0  0  0  0  0  0  0  0  0  0  0
   62.6790   32.4910   47.2760 C   0  0  0  0  0  0  0  0  0  0  0  0
   61.7310   32.2930   48.2720 C   0  0  0  0  0  0  0  0  0  0  0  0
   60.7000   33.2420   48.2640 C   0  0  0  0  0  0  0  0  0  0  0  0
   58.6960   34.7450   44.8800 C   0  0  0  0  0  0  0  0  0  0  0  0
   58.9040   33.2860   44.4360 C   0  0  0  0  0  0  0  0  0  0  0  0
   59.4630   30.3570   45.3520 C   0  0  0  0  0  0  0  0  0  0  0  0
   59.6540   28.9840   45.1770 C   0  0  0  0  0  0  0  0  0  0  0  0
   57.1280   24.9710   45.1960 C   0  0  0  0  0  0  0  0  0  0  0  0
   56.7610   24.5670   43.9680 C   0  0  0  0  0  0  0  0  0  0  0  0
  1  2  1  0
  2  3  1  0
  3  4  1  0
  4  5  2  0
  4  6  1  0
  6  7  1  0
  7  8  1  0
  8  9  2  0
  9 10  1  0
 10 11  2  0
 11 12  1  0
 11 13  1  0
 13 14  1  0
 14 15  1  0
 15 16  2  0
 16 17  1  0
 17 18  2  0
 18 19  1  0
 19 20  1  0
 20 21  1  0
 21 22  1  0
 22 23  1  0
 23 24  1  0
 24 25  1  0
 25 26  1  0
 26 27  2  0
 27 28  1  0
 22 29  1  0
 29 30  1  0
 18 31  1  0
 31 32  2  0
 13 33  1  0
 33 34  2  0
  7  2  2  0
 33  9  1  0
 32 15  1  0
 30 19  1  0
 28 24  2  0
M  CHG  2   3  -1   6  -1
M  END
>  <UniqueID>  (2991) 
17

>  <SMILES>  (2991) 
C=c1/c(=C\c2[n-]c(=O)[n-]c2O)cc(C)n1Cc1ccc(N2CCN(Cc3cccs3)CC2)cc1

>  <Energy>  (2991) 
173.65770404912908

>  <Genealogy>  (2991) 
C=c1c(=Cc2[n-]c(=O)[n-]c2O)cc(C)n1Cc1ccc(N2CCN(Cc3cccs3)CC2)cc1 (protonated)
C=c1/c(=C\c2[n-]c(=O)[n-]c2O)cc(C)n1Cc1ccc(N2CCN(Cc3cccs3)CC2)cc1 (cis-trans isomerization)
C=c1/c(=C\c2[n-]c(=O)[n-]c2O)cc(C)n1Cc1ccc(N2CCN(Cc3cccs3)CC2)cc1 (3D coordinates assigned)
C=c1/c(=C\c2[n-]c(=O)[n-]c2O)cc(C)n1Cc1ccc(N2CCN(Cc3cccs3)CC2)cc1 (nonaromatic ring conformer: 173.65770404912908 kcal/mol)

>  <smiles>  (2991) 
C=c1c(=Cc2[nH]c(=O)[nH]c2O)cc(C)n1Cc1ccc(N2CCN(Cc3cccs3)CC2)cc1

>  <score_type>  (2991) 
oracle

>  <origin>  (2991) 
adg

>  <m_score__min__energy>  (2991) 
-14.06

>  <m_primary>  (2991) 
energy

$$$$
20:0
     RDKit          3D

 29 32  0  0  0  0  0  0  0  0999 V2000
   59.9950   26.0370   45.9620 O   0  0  0  0  0  0  0  0  0  0  0  0
   58.7530   26.1480   45.7870 C   0  0  0  0  0  0  0  0  0  0  0  0
   57.8080   26.0180   46.9540 C   0  0  0  0  0  0  0  0  0  0  0  0
   56.7020   25.1110   46.6460 N   0  0  0  0  0  0  0  0  0  0  0  0
   55.5040   25.4450   46.1160 C   0  0  0  0  0  0  0  0  0  0  0  0
   55.1520   26.7310   45.7270 O   0  0  0  0  0  0  0  0  0  0  0  0
   54.6890   24.3330   46.0350 C   0  0  0  0  0  0  0  0  0  0  0  0
   55.4080   23.2810   46.5470 C   0  0  0  0  0  0  0  0  0  0  0  0
   56.6360   23.7900   46.9210 C   0  0  0  0  0  0  0  0  0  0  0  0
   57.6610   23.0620   47.5130 O   0  0  0  0  0  0  0  0  0  0  0  0
   54.8780   21.8910   46.6830 C   0  0  0  0  0  0  0  0  0  0  0  0
   53.4820   21.7640   46.1080 C   0  0  0  0  0  0  0  0  0  0  0  0
   52.7730   22.7990   45.6050 C   0  0  0  0  0  0  0  0  0  0  0  0
   53.2800   24.2280   45.5470 C   0  0  0  0  0  0  0  0  0  0  0  0
   58.2630   26.3940   44.4650 N   0  0  0  0  0  0  0  0  0  0  0  0
   58.2460   27.7080   43.8340 C   0  0  0  0  0  0  0  0  0  0  0  0
   57.1160   28.5460   44.4260 C   0  0  0  0  0  0  0  0  0  0  0  0
   57.6520   29.8220   45.0070 C   0  0  0  0  0  0  0  0  0  0  0  0
   58.8160   29.8210   45.7850 C   0  0  0  0  0  0  0  0  0  0  0  0
   59.2690   31.0180   46.3410 C   0  0  0  0  0  0  0  0  0  0  0  0
   58.5660   32.2120   46.1180 C   0  0  0  0  0  0  0  0  0  0  0  0
   59.0490   33.4780   46.7120 C   0  0  0  0  0  0  0  0  0  0  0  0
   58.9900   34.5410   46.0370 O   0  0  0  0  0  0  0  0  0  0  0  0
   59.5410   33.5410   48.0530 N   0  0  0  0  0  0  0  0  0  0  0  0
   60.0310   34.6020   48.9500 C   0  0  0  0  0  0  0  0  0  0  0  0
   60.1100   33.7560   50.1760 C   0  0  0  0  0  0  0  0  0  0  0  0
   59.6230   32.6880   49.2550 C   0  0  0  0  0  0  0  0  0  0  0  0
   57.3890   32.1620   45.3560 C   0  0  0  0  0  0  0  0  0  0  0  0
   56.9640   30.9820   44.8290 N   0  0  0  0  0  0  0  0  0  0  0  0
  1  2  2  0
  2  3  1  0
  3  4  1  0
  4  5  1  0
  5  6  1  0
  5  7  2  0
  7  8  1  0
  8  9  2  0
  9 10  1  0
  8 11  1  0
 11 12  1  0
 12 13  2  0
 13 14  1  0
  2 15  1  0
 15 16  1  0
 16 17  1  0
 17 18  1  0
 18 19  2  0
 19 20  1  0
 20 21  2  0
 21 22  1  0
 22 23  2  0
 22 24  1  0
 24 25  1  0
 25 26  1  0
 26 27  1  0
 21 28  1  0
 28 29  2  0
  9  4  1  0
 29 18  1  0
 14  7  1  0
 27 24  1  0
M  CHG  3   6  -1  10  -1  15  -1
M  END
>  <UniqueID>  (2992) 
18

>  <SMILES>  (2992) 
O=C(Cn1c([O-])c2c(c1[O-])CC=CC2)[N-]CCc1ccc(C(=O)N2CCC2)cn1

>  <Energy>  (2992) 
126.24704919278915

>  <Genealogy>  (2992) 
O=C(Cn1c([O-])c2c(c1[O-])CC=CC2)[N-]CCc1ccc(C(=O)N2CCC2)cn1 (protonated)
O=C(Cn1c([O-])c2c(c1[O-])CC=CC2)[N-]CCc1ccc(C(=O)N2CCC2)cn1 (3D coordinates assigned)
O=C(Cn1c([O-])c2c(c1[O-])CC=CC2)[N-]CCc1ccc(C(=O)N2CCC2)cn1 (nonaromatic ring conformer: 126.24704919278915 kcal/mol)

>  <smiles>  (2992) 
O=C(Cn1c(O)c2c(c1O)CC=CC2)NCCc1ccc(C(=O)N2CCC2)cn1

>  <score_type>  (2992) 
oracle

>  <origin>  (2992) 
adg

>  <m_score__min__energy>  (2992) 
-14.73

>  <m_primary>  (2992) 
energy

$$$$
53:0
     RDKit          3D

 36 39  0  0  0  0  0  0  0  0999 V2000
   54.9320   26.3690   45.9440 O   0  0  0  0  0  0  0  0  0  0  0  0
   55.9160   25.4230   46.2230 C   0  0  0  0  0  0  0  0  0  0  0  0
   55.7390   24.4130   47.0890 N   0  0  0  0  0  0  0  0  0  0  0  0
   56.8960   23.7260   46.9910 C   0  0  0  0  0  0  0  0  0  0  0  0
   57.1190   22.6780   47.6510 O   0  0  0  0  0  0  0  0  0  0  0  0
   57.7880   24.2410   46.1190 N   0  0  0  0  0  0  0  0  0  0  0  0
   57.1720   25.3420   45.6530 C   0  0  0  0  0  0  0  0  0  0  0  0
   57.7230   26.1810   44.5770 C   0  0  0  0  0  0  0  0  0  0  0  0
   58.2290   27.4220   44.7220 C   0  0  0  0  0  0  0  0  0  0  0  0
   57.6580   28.5280   44.1200 C   0  0  0  0  0  0  0  0  0  0  0  0
   58.3630   29.6290   44.5550 C   0  0  0  0  0  0  0  0  0  0  0  0
   58.0720   31.0340   44.1190 C   0  0  0  0  0  0  0  0  0  0  0  0
   59.3770   29.2560   45.3720 N   0  0  0  0  0  0  0  0  0  0  0  0
   60.3540   30.1730   45.9850 C   0  0  0  0  0  0  0  0  0  0  0  0
   60.0480   30.3920   47.4440 C   0  0  0  0  0  0  0  0  0  0  0  0
   60.8860   31.1860   48.2410 C   0  0  0  0  0  0  0  0  0  0  0  0
   60.6060   31.3700   49.5600 N   0  0  0  0  0  0  0  0  0  0  0  0
   59.5140   30.8140   50.1520 C   0  0  0  0  0  0  0  0  0  0  0  0
   59.2850   31.0380   51.5940 C   0  0  0  0  0  0  0  0  0  0  0  0
   60.2630   31.3380   52.3300 O   0  0  0  0  0  0  0  0  0  0  0  0
   57.9770   30.9030   52.1770 N   0  0  0  0  0  0  0  0  0  0  0  0
   57.8480   30.2490   53.4830 C   0  0  0  0  0  0  0  0  0  0  0  0
   56.3770   30.0120   53.8340 C   0  0  0  0  0  0  0  0  0  0  0  0
   55.6380   29.6680   52.6050 N   0  0  0  0  0  0  0  0  0  0  0  0
   54.3060   29.1270   52.9420 C   0  0  0  0  0  0  0  0  0  0  0  0
   53.2950   30.2390   53.0860 C   0  0  0  0  0  0  0  0  0  0  0  0
   53.2100   30.8170   54.2050 O   0  0  0  0  0  0  0  0  0  0  0  0
   52.4310   30.6570   52.0010 N   0  0  0  0  0  0  0  0  0  0  0  0
   51.4270   31.6940   52.2600 C   0  0  0  0  0  0  0  0  0  0  0  0
   52.5500   30.0730   50.6610 C   0  0  0  0  0  0  0  0  0  0  0  0
   55.5300   30.8520   51.7180 C   0  0  0  0  0  0  0  0  0  0  0  0
   56.8420   31.6630   51.6340 C   0  0  0  0  0  0  0  0  0  0  0  0
   58.6560   30.0060   49.3920 C   0  0  0  0  0  0  0  0  0  0  0  0
   58.9240   29.8000   48.0380 C   0  0  0  0  0  0  0  0  0  0  0  0
   59.3280   27.8970   45.4600 C   0  0  0  0  0  0  0  0  0  0  0  0
   60.2650   27.1490   46.0680 C   0  0  0  0  0  0  0  0  0  0  0  0
  1  2  1  0
  2  3  1  0
  3  4  1  0
  4  5  2  0
  4  6  1  0
  6  7  1  0
  7  8  1  0
  8  9  2  0
  9 10  1  0
 10 11  2  0
 11 12  1  0
 11 13  1  0
 13 14  1  0
 14 15  1  0
 15 16  2  0
 16 17  1  0
 17 18  2  0
 18 19  1  0
 19 20  2  0
 19 21  1  0
 21 22  1  0
 22 23  1  0
 23 24  1  0
 24 25  1  0
 25 26  1  0
 26 27  2  0
 26 28  1  0
 28 29  1  0
 28 30  1  0
 24 31  1  0
 31 32  1  0
 18 33  1  0
 33 34  2  0
 13 35  1  0
 35 36  2  0
  7  2  2  0
 35  9  1  0
 34 15  1  0
 32 21  1  0
M  CHG  2   3  -1   6  -1
M  END
>  <UniqueID>  (2993) 
48

>  <SMILES>  (2993) 
C=c1/c(=C\c2[n-]c(=O)[n-]c2O)cc(C)n1Cc1ccc(C(=O)N2CCN(CC(=O)N(C)C)CC2)nc1

>  <Energy>  (2993) 
144.51481665519523

>  <Genealogy>  (2993) 
C=c1c(=Cc2[n-]c(=O)[n-]c2O)cc(C)n1Cc1ccc(C(=O)N2CCN(CC(=O)N(C)C)CC2)nc1 (protonated)
C=c1/c(=C\c2[n-]c(=O)[n-]c2O)cc(C)n1Cc1ccc(C(=O)N2CCN(CC(=O)N(C)C)CC2)nc1 (cis-trans isomerization)
C=c1/c(=C\c2[n-]c(=O)[n-]c2O)cc(C)n1Cc1ccc(C(=O)N2CCN(CC(=O)N(C)C)CC2)nc1 (3D coordinates assigned)
C=c1/c(=C\c2[n-]c(=O)[n-]c2O)cc(C)n1Cc1ccc(C(=O)N2CCN(CC(=O)N(C)C)CC2)nc1 (nonaromatic ring conformer: 144.51481665519523 kcal/mol)

>  <smiles>  (2993) 
C=c1c(=Cc2[nH]c(=O)[nH]c2O)cc(C)n1Cc1ccc(C(=O)N2CCN(CC(=O)N(C)C)CC2)nc1

>  <score_type>  (2993) 
oracle

>  <origin>  (2993) 
adg

>  <m_score__min__energy>  (2993) 
-15.24

>  <m_primary>  (2993) 
energy

$$$$
55:0
     RDKit          3D

 23 25  0  0  0  0  0  0  0  0999 V2000
   55.9310   30.0900   43.7990 C   0  0  0  0  0  0  0  0  0  0  0  0
   56.7750   29.5780   44.6980 C   0  0  0  0  0  0  0  0  0  0  0  0
   57.5850   30.2850   45.5840 C   0  0  0  0  0  0  0  0  0  0  0  0
   57.7840   31.7490   45.6800 C   0  0  0  0  0  0  0  0  0  0  0  0
   57.0180   32.5180   45.0370 O   0  0  0  0  0  0  0  0  0  0  0  0
   58.8890   32.3350   46.4780 C   0  0  0  0  0  0  0  0  0  0  0  0
   58.6450   33.4410   47.3130 C   0  0  0  0  0  0  0  0  0  0  0  0
   59.6770   33.9960   48.0740 C   0  0  0  0  0  0  0  0  0  0  0  0
   60.9620   33.4480   48.0190 C   0  0  0  0  0  0  0  0  0  0  0  0
   62.3720   34.2080   49.0600 Br  0  0  0  0  0  0  0  0  0  0  0  0
   61.2130   32.3400   47.2050 C   0  0  0  0  0  0  0  0  0  0  0  0
   60.1830   31.7810   46.4430 C   0  0  0  0  0  0  0  0  0  0  0  0
   58.2610   29.3350   46.3310 C   0  0  0  0  0  0  0  0  0  0  0  0
   57.8250   28.0960   45.8840 C   0  0  0  0  0  0  0  0  0  0  0  0
   58.2350   26.8930   46.3140 C   0  0  0  0  0  0  0  0  0  0  0  0
   57.3320   25.7650   46.6110 C   0  0  0  0  0  0  0  0  0  0  0  0
   55.9640   25.6980   46.4320 C   0  0  0  0  0  0  0  0  0  0  0  0
   55.1490   26.7170   45.9560 O   0  0  0  0  0  0  0  0  0  0  0  0
   55.5090   24.4660   46.7360 N   0  0  0  0  0  0  0  0  0  0  0  0
   56.6370   23.8060   47.0760 C   0  0  0  0  0  0  0  0  0  0  0  0
   56.6410   22.5970   47.4270 O   0  0  0  0  0  0  0  0  0  0  0  0
   57.7560   24.5520   46.9980 N   0  0  0  0  0  0  0  0  0  0  0  0
   56.9320   28.2530   44.8850 N   0  0  0  0  0  0  0  0  0  0  0  0
  1  2  2  0
  2  3  1  0
  3  4  1  0
  4  5  2  0
  4  6  1  0
  6  7  2  0
  7  8  1  0
  8  9  2  0
  9 10  1  0
  9 11  1  0
 11 12  2  0
  3 13  2  0
 13 14  1  0
 14 15  2  0
 15 16  1  0
 16 17  2  0
 17 18  1  0
 17 19  1  0
 19 20  1  0
 20 21  2  0
 20 22  1  0
 14 23  1  0
 23  2  1  0
 12  6  1  0
 22 16  1  0
M  CHG  2  18  -1  19  -1
M  END
>  <UniqueID>  (2994) 
50

>  <SMILES>  (2994) 
C=c1[nH]/c(=C/c2[nH]c(=O)[n-]c2[O-])cc1C(=O)c1ccc(Br)cc1

>  <Energy>  (2994) 
103.98542813443055

>  <Genealogy>  (2994) 
C=c1[nH]c(=Cc2[nH]c(=O)[n-]c2[O-])cc1C(=O)c1ccc(Br)cc1 (protonated)
C=c1[nH]/c(=C/c2[nH]c(=O)[n-]c2[O-])cc1C(=O)c1ccc(Br)cc1 (cis-trans isomerization)
C=c1[nH]/c(=C/c2[nH]c(=O)[n-]c2[O-])cc1C(=O)c1ccc(Br)cc1 (3D coordinates assigned)
C=c1[nH]/c(=C/c2[nH]c(=O)[n-]c2[O-])cc1C(=O)c1ccc(Br)cc1 (optimized conformer: 103.98542813443055 kcal/mol)

>  <smiles>  (2994) 
C=c1[nH]c(=Cc2[nH]c(=O)[nH]c2O)cc1C(=O)c1ccc(Br)cc1

>  <score_type>  (2994) 
oracle

>  <origin>  (2994) 
adg

>  <m_score__min__energy>  (2994) 
-14.449999999999999

>  <m_primary>  (2994) 
energy

$$$$
57:0
     RDKit          3D

 34 37  0  0  0  0  0  0  0  0999 V2000
   54.2810   28.2510   53.2260 C   0  0  0  0  0  0  0  0  0  0  0  0
   54.8860   29.3990   52.8830 C   0  0  0  0  0  0  0  0  0  0  0  0
   54.2470   30.5970   52.5410 C   0  0  0  0  0  0  0  0  0  0  0  0
   52.9220   30.8360   52.5010 C   0  0  0  0  0  0  0  0  0  0  0  0
   52.1410   30.9620   51.2580 C   0  0  0  0  0  0  0  0  0  0  0  0
   52.2280   30.0860   50.2440 N   0  0  0  0  0  0  0  0  0  0  0  0
   51.3990   30.6030   49.3100 C   0  0  0  0  0  0  0  0  0  0  0  0
   51.1920   30.0420   48.2010 O   0  0  0  0  0  0  0  0  0  0  0  0
   50.8080   31.7650   49.6560 N   0  0  0  0  0  0  0  0  0  0  0  0
   51.2960   31.9870   50.8860 C   0  0  0  0  0  0  0  0  0  0  0  0
   51.0150   33.1250   51.6280 O   0  0  0  0  0  0  0  0  0  0  0  0
   55.2540   31.5230   52.3180 C   0  0  0  0  0  0  0  0  0  0  0  0
   56.4520   30.8650   52.5230 C   0  0  0  0  0  0  0  0  0  0  0  0
   57.7650   31.5410   52.5030 C   0  0  0  0  0  0  0  0  0  0  0  0
   58.2260   32.0660   53.5510 O   0  0  0  0  0  0  0  0  0  0  0  0
   58.4730   31.6900   51.2650 N   0  0  0  0  0  0  0  0  0  0  0  0
   58.8570   30.5070   50.4850 C   0  0  0  0  0  0  0  0  0  0  0  0
   58.5890   30.7220   48.9800 C   0  0  0  0  0  0  0  0  0  0  0  0
   58.1570   32.1050   48.6920 N   0  0  0  0  0  0  0  0  0  0  0  0
   58.0220   32.3330   47.2400 C   0  0  0  0  0  0  0  0  0  0  0  0
   59.3730   32.3400   46.5850 C   0  0  0  0  0  0  0  0  0  0  0  0
   60.0450   31.2770   46.5340 O   0  0  0  0  0  0  0  0  0  0  0  0
   59.8760   33.5400   45.9930 N   0  0  0  0  0  0  0  0  0  0  0  0
   60.6010   34.5620   46.7330 C   0  0  0  0  0  0  0  0  0  0  0  0
   61.7470   33.9210   47.4620 C   0  0  0  0  0  0  0  0  0  0  0  0
   61.9600   34.1710   48.8290 C   0  0  0  0  0  0  0  0  0  0  0  0
   63.0500   33.5920   49.4870 C   0  0  0  0  0  0  0  0  0  0  0  0
   63.9360   32.7690   48.7860 C   0  0  0  0  0  0  0  0  0  0  0  0
   63.7360   32.5250   47.4230 C   0  0  0  0  0  0  0  0  0  0  0  0
   62.6450   33.0970   46.7630 C   0  0  0  0  0  0  0  0  0  0  0  0
   59.0860   33.0680   49.3150 C   0  0  0  0  0  0  0  0  0  0  0  0
   58.9120   33.0230   50.8380 C   0  0  0  0  0  0  0  0  0  0  0  0
   56.2330   29.5670   52.8430 N   0  0  0  0  0  0  0  0  0  0  0  0
   57.2590   28.5570   53.1200 C   0  0  0  0  0  0  0  0  0  0  0  0
  1  2  2  0
  2  3  1  0
  3  4  2  0
  4  5  1  0
  5  6  1  0
  6  7  1  0
  7  8  2  0
  7  9  1  0
  9 10  1  0
 10 11  1  0
  3 12  1  0
 12 13  2  0
 13 14  1  0
 14 15  2  0
 14 16  1  0
 16 17  1  0
 17 18  1  0
 18 19  1  0
 19 20  1  0
 20 21  1  0
 21 22  2  0
 21 23  1  0
 23 24  1  0
 24 25  1  0
 25 26  2  0
 26 27  1  0
 27 28  2  0
 28 29  1  0
 29 30  2  0
 19 31  1  0
 31 32  1  0
 13 33  1  0
 33 34  1  0
 33  2  1  0
 10  5  2  0
 32 16  1  0
 30 25  1  0
M  CHG  4   6  -1   9  -1  11  -1  23  -1
M  END
>  <UniqueID>  (2995) 
52

>  <SMILES>  (2995) 
C=c1/c(=C/c2[n-]c(=O)[n-]c2[O-])cc(C(=O)N2CCN(CC(=O)[N-]Cc3ccccc3)CC2)n1C

>  <Energy>  (2995) 
130.89282031612947

>  <Genealogy>  (2995) 
C=c1c(=Cc2[n-]c(=O)[n-]c2[O-])cc(C(=O)N2CCN(CC(=O)[N-]Cc3ccccc3)CC2)n1C (protonated)
C=c1/c(=C/c2[n-]c(=O)[n-]c2[O-])cc(C(=O)N2CCN(CC(=O)[N-]Cc3ccccc3)CC2)n1C (cis-trans isomerization)
C=c1/c(=C/c2[n-]c(=O)[n-]c2[O-])cc(C(=O)N2CCN(CC(=O)[N-]Cc3ccccc3)CC2)n1C (3D coordinates assigned)
C=c1/c(=C/c2[n-]c(=O)[n-]c2[O-])cc(C(=O)N2CCN(CC(=O)[N-]Cc3ccccc3)CC2)n1C (nonaromatic ring conformer: 130.89282031612947 kcal/mol)

>  <smiles>  (2995) 
C=c1c(=Cc2[nH]c(=O)[nH]c2O)cc(C(=O)N2CCN(CC(=O)NCc3ccccc3)CC2)n1C

>  <score_type>  (2995) 
oracle

>  <origin>  (2995) 
adg

>  <m_score__min__energy>  (2995) 
-20.260000000000002

>  <m_primary>  (2995) 
energy

$$$$
63:0
     RDKit          3D

 30 32  0  0  0  0  0  0  0  0999 V2000
   62.5260   34.5610   49.4210 C   0  0  0  0  0  0  0  0  0  0  0  0
   61.3620   33.6650   49.7210 C   0  0  0  0  0  0  0  0  0  0  0  0
   61.3550   33.0270   50.8060 O   0  0  0  0  0  0  0  0  0  0  0  0
   60.2540   33.5440   48.8030 N   0  0  0  0  0  0  0  0  0  0  0  0
   59.9940   34.6110   47.8240 C   0  0  0  0  0  0  0  0  0  0  0  0
   58.6380   34.4230   47.1410 C   0  0  0  0  0  0  0  0  0  0  0  0
   58.5190   33.0380   46.6580 N   0  0  0  0  0  0  0  0  0  0  0  0
   58.2500   32.7570   45.2650 C   0  0  0  0  0  0  0  0  0  0  0  0
   58.2870   33.6850   44.4090 O   0  0  0  0  0  0  0  0  0  0  0  0
   57.9890   31.3820   44.8010 C   0  0  0  0  0  0  0  0  0  0  0  0
   56.6980   30.9940   44.4160 C   0  0  0  0  0  0  0  0  0  0  0  0
   56.4470   29.6700   44.0420 C   0  0  0  0  0  0  0  0  0  0  0  0
   57.4730   28.7220   44.0930 C   0  0  0  0  0  0  0  0  0  0  0  0
   58.7610   29.0900   44.5070 C   0  0  0  0  0  0  0  0  0  0  0  0
   59.7560   28.0660   44.6580 N   0  0  0  0  0  0  0  0  0  0  0  0
   59.8880   26.9800   46.0150 S   0  0  0  0  0  0  0  0  0  0  0  0
   59.6340   27.7340   47.2970 O   0  0  0  0  0  0  0  0  0  0  0  0
   61.2890   26.4260   46.0490 O   0  0  0  0  0  0  0  0  0  0  0  0
   58.7730   25.6190   45.8650 C   0  0  0  0  0  0  0  0  0  0  0  0
   59.2560   24.3130   45.7250 C   0  0  0  0  0  0  0  0  0  0  0  0
   58.3700   23.2340   45.7140 C   0  0  0  0  0  0  0  0  0  0  0  0
   56.9900   23.4590   45.7920 C   0  0  0  0  0  0  0  0  0  0  0  0
   56.4850   24.7650   45.8990 C   0  0  0  0  0  0  0  0  0  0  0  0
   55.0200   24.9940   45.9890 C   0  0  0  0  0  0  0  0  0  0  0  0
   54.5010   26.3300   45.9950 N   0  0  0  0  0  0  0  0  0  0  0  0
   54.2250   24.0200   46.0530 O   0  0  0  0  0  0  0  0  0  0  0  0
   57.3880   25.8450   45.9400 C   0  0  0  0  0  0  0  0  0  0  0  0
   59.0280   30.4380   44.7990 C   0  0  0  0  0  0  0  0  0  0  0  0
   58.8260   31.9320   47.5830 C   0  0  0  0  0  0  0  0  0  0  0  0
   59.2950   32.4350   48.9570 C   0  0  0  0  0  0  0  0  0  0  0  0
  1  2  1  0
  2  3  2  0
  2  4  1  0
  4  5  1  0
  5  6  1  0
  6  7  1  0
  7  8  1  0
  8  9  2  0
  8 10  1  0
 10 11  2  0
 11 12  1  0
 12 13  2  0
 13 14  1  0
 14 15  1  0
 15 16  1  0
 16 17  2  0
 16 18  2  0
 16 19  1  0
 19 20  2  0
 20 21  1  0
 21 22  2  0
 22 23  1  0
 23 24  1  0
 24 25  1  0
 24 26  2  0
 23 27  2  0
 14 28  2  0
  7 29  1  0
 29 30  1  0
 30  4  1  0
 28 10  1  0
 27 19  1  0
M  CHG  2  15  -1  25  -1
M  END
>  <UniqueID>  (2996) 
58

>  <SMILES>  (2996) 
CC(=O)N1CCN(C(=O)c2cccc([N-]S(=O)(=O)c3cccc(C([NH-])=O)c3)c2)CC1

>  <Energy>  (2996) 
58.98501863400156

>  <Genealogy>  (2996) 
CC(=O)N1CCN(C(=O)c2cccc([N-]S(=O)(=O)c3cccc(C([NH-])=O)c3)c2)CC1 (protonated)
CC(=O)N1CCN(C(=O)c2cccc([N-]S(=O)(=O)c3cccc(C([NH-])=O)c3)c2)CC1 (3D coordinates assigned)
CC(=O)N1CCN(C(=O)c2cccc([N-]S(=O)(=O)c3cccc(C([NH-])=O)c3)c2)CC1 (nonaromatic ring conformer: 58.98501863400156 kcal/mol)

>  <smiles>  (2996) 
CC(=O)N1CCN(C(=O)c2cccc(NS(=O)(=O)c3cccc(C(N)=O)c3)c2)CC1

>  <score_type>  (2996) 
oracle

>  <origin>  (2996) 
adg

>  <m_score__min__energy>  (2996) 
-14.57

>  <m_primary>  (2996) 
energy

$$$$
64:0
     RDKit          3D

 31 34  0  0  0  0  0  0  0  0999 V2000
   55.2800   29.1230   44.9120 O   0  0  0  0  0  0  0  0  0  0  0  0
   56.1100   28.0660   45.2760 C   0  0  0  0  0  0  0  0  0  0  0  0
   55.5820   26.9810   45.9020 N   0  0  0  0  0  0  0  0  0  0  0  0
   56.3610   25.9310   46.2670 C   0  0  0  0  0  0  0  0  0  0  0  0
   55.8500   24.9410   46.8500 O   0  0  0  0  0  0  0  0  0  0  0  0
   57.6910   25.9470   45.9970 N   0  0  0  0  0  0  0  0  0  0  0  0
   58.2680   27.0060   45.3720 C   0  0  0  0  0  0  0  0  0  0  0  0
   59.5000   26.9700   45.1080 O   0  0  0  0  0  0  0  0  0  0  0  0
   57.4860   28.1180   45.0110 C   0  0  0  0  0  0  0  0  0  0  0  0
   58.0600   29.2880   44.3100 C   0  0  0  0  0  0  0  0  0  0  0  0
   58.1160   30.5170   44.8390 C   0  0  0  0  0  0  0  0  0  0  0  0
   57.4850   31.8890   44.1000 S   0  0  0  0  0  0  0  0  0  0  0  0
   57.8930   32.9630   45.3280 C   0  0  0  0  0  0  0  0  0  0  0  0
   57.6000   34.2630   45.3050 C   0  0  0  0  0  0  0  0  0  0  0  0
   58.5300   32.2540   46.3550 C   0  0  0  0  0  0  0  0  0  0  0  0
   59.0620   32.8530   47.5970 C   0  0  0  0  0  0  0  0  0  0  0  0
   58.3760   32.7820   48.6530 O   0  0  0  0  0  0  0  0  0  0  0  0
   60.3400   33.5220   47.6180 N   0  0  0  0  0  0  0  0  0  0  0  0
   60.6270   34.5480   48.6280 C   0  0  0  0  0  0  0  0  0  0  0  0
   61.8150   34.1310   49.5120 C   0  0  0  0  0  0  0  0  0  0  0  0
   62.8610   33.2530   48.7690 C   0  0  0  0  0  0  0  0  0  0  0  0
   64.2920   33.4910   49.2980 C   0  0  0  0  0  0  0  0  0  0  0  0
   64.7970   32.3140   50.0940 C   0  0  0  0  0  0  0  0  0  0  0  0
   66.1720   32.1550   50.3410 C   0  0  0  0  0  0  0  0  0  0  0  0
   66.6300   31.0760   51.1030 C   0  0  0  0  0  0  0  0  0  0  0  0
   65.7220   30.1520   51.6280 C   0  0  0  0  0  0  0  0  0  0  0  0
   64.3540   30.3070   51.3910 C   0  0  0  0  0  0  0  0  0  0  0  0
   63.8910   31.3830   50.6300 C   0  0  0  0  0  0  0  0  0  0  0  0
   62.8010   33.4840   47.2490 C   0  0  0  0  0  0  0  0  0  0  0  0
   61.4160   33.0930   46.7090 C   0  0  0  0  0  0  0  0  0  0  0  0
   58.6520   30.8830   46.0750 C   0  0  0  0  0  0  0  0  0  0  0  0
  1  2  1  0
  2  3  1  0
  3  4  1  0
  4  5  2  0
  4  6  1  0
  6  7  1  0
  7  8  2  0
  7  9  1  0
  9 10  1  0
 10 11  2  0
 11 12  1  0
 12 13  1  0
 13 14  2  0
 13 15  1  0
 15 16  1  0
 16 17  2  0
 16 18  1  0
 18 19  1  0
 19 20  1  0
 20 21  1  0
 21 22  1  0
 22 23  1  0
 23 24  2  0
 24 25  1  0
 25 26  2  0
 26 27  1  0
 27 28  2  0
 21 29  1  0
 29 30  1  0
 15 31  2  0
  9  2  2  0
 31 11  1  0
 30 18  1  0
 28 23  1  0
M  CHG  2   3  -1   6  -1
M  END
>  <UniqueID>  (2997) 
59

>  <SMILES>  (2997) 
C=c1s/c(=C/c2c(O)[n-]c(=O)[n-]c2=O)cc1C(=O)N1CCC(Cc2ccccc2)CC1

>  <Energy>  (2997) 
96.31157635699022

>  <Genealogy>  (2997) 
C=c1sc(=Cc2c(O)[n-]c(=O)[n-]c2=O)cc1C(=O)N1CCC(Cc2ccccc2)CC1 (protonated)
C=c1s/c(=C/c2c(O)[n-]c(=O)[n-]c2=O)cc1C(=O)N1CCC(Cc2ccccc2)CC1 (cis-trans isomerization)
C=c1s/c(=C/c2c(O)[n-]c(=O)[n-]c2=O)cc1C(=O)N1CCC(Cc2ccccc2)CC1 (3D coordinates assigned)
C=c1s/c(=C/c2c(O)[n-]c(=O)[n-]c2=O)cc1C(=O)N1CCC(Cc2ccccc2)CC1 (nonaromatic ring conformer: 96.31157635699022 kcal/mol)

>  <smiles>  (2997) 
C=c1sc(=Cc2c(O)[nH]c(=O)[nH]c2=O)cc1C(=O)N1CCC(Cc2ccccc2)CC1

>  <score_type>  (2997) 
oracle

>  <origin>  (2997) 
adg

>  <m_score__min__energy>  (2997) 
-14.6

>  <m_primary>  (2997) 
energy

$$$$
74:0
     RDKit          3D

 23 24  0  0  0  0  0  0  0  0999 V2000
   58.7570   28.1380   47.2050 C   0  0  0  0  0  0  0  0  0  0  0  0
   58.2060   28.6180   46.0780 C   0  0  0  0  0  0  0  0  0  0  0  0
   57.8590   27.8780   44.9380 C   0  0  0  0  0  0  0  0  0  0  0  0
   57.7350   26.5510   44.7500 C   0  0  0  0  0  0  0  0  0  0  0  0
   57.1310   25.6050   45.7040 C   0  0  0  0  0  0  0  0  0  0  0  0
   57.7810   24.5770   46.2790 N   0  0  0  0  0  0  0  0  0  0  0  0
   56.8810   24.0940   47.1620 C   0  0  0  0  0  0  0  0  0  0  0  0
   57.1170   23.0990   47.8960 O   0  0  0  0  0  0  0  0  0  0  0  0
   55.7110   24.7670   47.2050 N   0  0  0  0  0  0  0  0  0  0  0  0
   55.8940   25.7290   46.2850 C   0  0  0  0  0  0  0  0  0  0  0  0
   54.9490   26.7030   45.9880 O   0  0  0  0  0  0  0  0  0  0  0  0
   57.6030   28.8020   43.9410 C   0  0  0  0  0  0  0  0  0  0  0  0
   57.7070   30.0500   44.5160 C   0  0  0  0  0  0  0  0  0  0  0  0
   57.4870   31.3370   43.7790 C   0  0  0  0  0  0  0  0  0  0  0  0
   58.0680   29.9470   45.8170 N   0  0  0  0  0  0  0  0  0  0  0  0
   58.3490   31.0700   46.7270 C   0  0  0  0  0  0  0  0  0  0  0  0
   59.7730   31.6200   46.5440 C   0  0  0  0  0  0  0  0  0  0  0  0
   60.1290   32.7490   47.5240 C   0  0  0  0  0  0  0  0  0  0  0  0
   59.6530   34.1000   47.0760 C   0  0  0  0  0  0  0  0  0  0  0  0
   59.3150   34.9660   47.9290 O   0  0  0  0  0  0  0  0  0  0  0  0
   59.6930   34.4190   45.7140 O   0  0  0  0  0  0  0  0  0  0  0  0
   58.5250   34.6240   44.9200 C   0  0  0  0  0  0  0  0  0  0  0  0
   57.2830   34.0990   45.6300 C   0  0  0  0  0  0  0  0  0  0  0  0
  1  2  2  0
  2  3  1  0
  3  4  2  3
  4  5  1  0
  5  6  1  0
  6  7  1  0
  7  8  2  0
  7  9  1  0
  9 10  1  0
 10 11  1  0
  3 12  1  0
 12 13  2  0
 13 14  1  0
 13 15  1  0
 15 16  1  0
 16 17  1  0
 17 18  1  0
 18 19  1  0
 19 20  2  0
 19 21  1  0
 21 22  1  0
 22 23  1  0
 15  2  1  0
 10  5  2  0
M  CHG  3   6  -1   9  -1  11  -1
M  END
>  <UniqueID>  (2998) 
68

>  <SMILES>  (2998) 
C=c1c(=Cc2[n-]c(=O)[n-]c2[O-])cc(C)n1CCCC(=O)OCC

>  <Energy>  (2998) 
98.5051137047759

>  <Genealogy>  (2998) 
C=c1c(=Cc2[n-]c(=O)[n-]c2[O-])cc(C)n1CCCC(=O)OCC (protonated)
C=c1c(=Cc2[n-]c(=O)[n-]c2[O-])cc(C)n1CCCC(=O)OCC (3D coordinates assigned)
C=c1c(=Cc2[n-]c(=O)[n-]c2[O-])cc(C)n1CCCC(=O)OCC (optimized conformer: 98.5051137047759 kcal/mol)

>  <smiles>  (2998) 
C=c1c(=Cc2[nH]c(=O)[nH]c2O)cc(C)n1CCCC(=O)OCC

>  <score_type>  (2998) 
oracle

>  <origin>  (2998) 
adg

>  <m_score__min__energy>  (2998) 
-14.609999999999999

>  <m_primary>  (2998) 
energy

$$$$
75:0
     RDKit          3D

 29 32  0  0  0  0  0  0  0  0999 V2000
   60.3340   28.1850   44.9780 C   0  0  0  0  0  0  0  0  0  0  0  0
   59.2330   27.5850   45.4490 C   0  0  0  0  0  0  0  0  0  0  0  0
   59.3800   26.3280   45.8510 O   0  0  0  0  0  0  0  0  0  0  0  0
   58.3710   25.5290   46.1650 C   0  0  0  0  0  0  0  0  0  0  0  0
   58.6250   24.3510   46.5320 O   0  0  0  0  0  0  0  0  0  0  0  0
   57.0430   25.9750   46.0460 C   0  0  0  0  0  0  0  0  0  0  0  0
   55.9000   25.0640   46.3240 C   0  0  0  0  0  0  0  0  0  0  0  0
   55.7390   24.5930   47.4820 O   0  0  0  0  0  0  0  0  0  0  0  0
   54.9860   24.7120   45.2750 N   0  0  0  0  0  0  0  0  0  0  0  0
   55.0550   23.5170   44.4300 C   0  0  1  0  0  0  0  0  0  0  0  0
   56.1590   23.6580   43.3640 C   0  0  0  0  0  0  0  0  0  0  0  0
   56.3490   22.3320   42.6220 C   0  0  0  0  0  0  0  0  0  0  0  0
   56.7510   21.1680   43.5650 C   0  0  2  0  0  0  0  0  0  0  0  0
   56.0560   20.0010   43.2060 O   0  0  0  0  0  0  0  0  0  0  0  0
   56.4940   21.4720   45.0550 C   0  0  0  0  0  0  0  0  0  0  0  0
   55.1710   22.2190   45.2770 C   0  0  0  0  0  0  0  0  0  0  0  0
   56.8330   27.3180   45.6800 C   0  0  0  0  0  0  0  0  0  0  0  0
   55.5310   27.8120   45.6140 O   0  0  0  0  0  0  0  0  0  0  0  0
   57.9330   28.1810   45.4510 C   0  0  0  0  0  0  0  0  0  0  0  0
   57.6850   29.5070   45.2720 C   0  0  0  0  0  0  0  0  0  0  0  0
   58.2890   30.6140   46.0420 C   0  0  0  0  0  0  0  0  0  0  0  0
   58.8030   30.5620   47.3380 C   0  0  0  0  0  0  0  0  0  0  0  0
   59.1440   31.8000   47.7610 N   0  0  0  0  0  0  0  0  0  0  0  0
   58.8290   32.6360   46.7570 C   0  0  0  0  0  0  0  0  0  0  0  0
   58.9730   34.0230   46.7340 C   0  0  0  0  0  0  0  0  0  0  0  0
   58.5510   34.7090   45.5810 C   0  0  0  0  0  0  0  0  0  0  0  0
   57.9980   34.0030   44.4910 C   0  0  0  0  0  0  0  0  0  0  0  0
   57.8600   32.6030   44.5420 C   0  0  0  0  0  0  0  0  0  0  0  0
   58.2920   31.9500   45.6980 C   0  0  0  0  0  0  0  0  0  0  0  0
  1  2  2  0
  2  3  1  0
  3  4  1  0
  4  5  2  0
  4  6  1  0
  6  7  1  0
  7  8  2  0
  7  9  1  0
 10  9  1  1
 10 11  1  0
 11 12  1  0
 12 13  1  0
 13 14  1  6
 13 15  1  0
 15 16  1  0
  6 17  2  0
 17 18  1  0
 17 19  1  0
 19 20  2  3
 20 21  1  0
 21 22  2  0
 22 23  1  0
 23 24  1  0
 24 25  2  0
 25 26  1  0
 26 27  2  0
 27 28  1  0
 28 29  2  0
 19  2  1  0
 29 21  1  0
 16 10  1  0
 29 24  1  0
M  CHG  2   9  -1  18  -1
M  END
>  <UniqueID>  (2999) 
69

>  <SMILES>  (2999) 
C=c1oc(=O)c(C(=O)[N-]C2CCC(O)CC2)c([O-])c1=Cc1c[nH]c2ccccc12

>  <Energy>  (2999) 
116.06020995598409

>  <Genealogy>  (2999) 
C=c1oc(=O)c(C(=O)[N-]C2CCC(O)CC2)c([O-])c1=Cc1c[nH]c2ccccc12 (protonated)
C=c1oc(=O)c(C(=O)[N-]C2CCC(O)CC2)c([O-])c1=Cc1c[nH]c2ccccc12 (3D coordinates assigned)
C=c1oc(=O)c(C(=O)[N-]C2CCC(O)CC2)c([O-])c1=Cc1c[nH]c2ccccc12 (nonaromatic ring conformer: 116.06020995598409 kcal/mol)

>  <smiles>  (2999) 
C=c1oc(=O)c(C(=O)NC2CCC(O)CC2)c(O)c1=Cc1c[nH]c2ccccc12

>  <score_type>  (2999) 
oracle

>  <origin>  (2999) 
adg

>  <m_score__min__energy>  (2999) 
-15.31

>  <m_primary>  (2999) 
energy

$$$$
78:0
     RDKit          3D

 30 32  0  0  0  0  0  0  0  0999 V2000
   54.8370   26.3450   45.9990 N   0  0  0  0  0  0  0  0  0  0  0  0
   56.2470   26.2860   45.7880 C   0  0  0  0  0  0  0  0  0  0  0  0
   56.7670   25.2010   45.4100 O   0  0  0  0  0  0  0  0  0  0  0  0
   57.0910   27.4840   46.0070 C   0  0  0  0  0  0  0  0  0  0  0  0
   56.9900   28.5940   45.1500 C   0  0  0  0  0  0  0  0  0  0  0  0
   57.7830   29.7260   45.3610 C   0  0  0  0  0  0  0  0  0  0  0  0
   58.7030   29.7660   46.4170 C   0  0  0  0  0  0  0  0  0  0  0  0
   59.4840   30.9540   46.6290 N   0  0  0  0  0  0  0  0  0  0  0  0
   59.0250   32.2790   46.3230 C   0  0  0  0  0  0  0  0  0  0  0  0
   57.7920   32.5190   46.2210 O   0  0  0  0  0  0  0  0  0  0  0  0
   60.0150   33.4010   46.1430 C   0  0  0  0  0  0  0  0  0  0  0  0
   61.0790   33.4160   47.1690 N   0  0  0  0  0  0  0  0  0  0  0  0
   60.8930   34.4580   48.1900 C   0  0  0  0  0  0  0  0  0  0  0  0
   61.8250   34.1900   49.3910 C   0  0  0  0  0  0  0  0  0  0  0  0
   63.0480   33.4320   49.0240 N   0  0  0  0  0  0  0  0  0  0  0  0
   62.8970   31.9730   49.2270 C   0  0  0  0  0  0  0  0  0  0  0  0
   61.6190   31.6890   49.9700 C   0  0  0  0  0  0  0  0  0  0  0  0
   60.5160   31.1580   49.2850 C   0  0  0  0  0  0  0  0  0  0  0  0
   59.3290   30.8780   49.9680 C   0  0  0  0  0  0  0  0  0  0  0  0
   59.2330   31.1220   51.3430 C   0  0  0  0  0  0  0  0  0  0  0  0
   57.7380   30.7480   52.1940 S   0  0  0  0  0  0  0  0  0  0  0  0
   56.6210   32.0520   51.9960 N   0  0  0  0  0  0  0  0  0  0  0  0
   58.0280   30.5520   53.6550 O   0  0  0  0  0  0  0  0  0  0  0  0
   57.1290   29.4860   51.6480 O   0  0  0  0  0  0  0  0  0  0  0  0
   60.3370   31.6410   52.0330 C   0  0  0  0  0  0  0  0  0  0  0  0
   61.5240   31.9260   51.3510 C   0  0  0  0  0  0  0  0  0  0  0  0
   63.5090   33.7610   47.6610 C   0  0  0  0  0  0  0  0  0  0  0  0
   62.4390   33.4540   46.5900 C   0  0  0  0  0  0  0  0  0  0  0  0
   58.7920   28.6660   47.2860 C   0  0  0  0  0  0  0  0  0  0  0  0
   57.9980   27.5340   47.0800 C   0  0  0  0  0  0  0  0  0  0  0  0
  1  2  1  0
  2  3  2  0
  2  4  1  0
  4  5  2  0
  5  6  1  0
  6  7  2  0
  7  8  1  0
  8  9  1  0
  9 10  2  0
  9 11  1  0
 11 12  1  0
 12 13  1  0
 13 14  1  0
 14 15  1  0
 15 16  1  0
 16 17  1  0
 17 18  2  0
 18 19  1  0
 19 20  2  0
 20 21  1  0
 21 22  1  0
 21 23  2  0
 21 24  2  0
 20 25  1  0
 25 26  2  0
 15 27  1  0
 27 28  1  0
  7 29  1  0
 29 30  2  0
 30  4  1  0
 28 12  1  0
 26 17  1  0
M  CHG  2   1  -1  22  -1
M  END
>  <UniqueID>  (3000) 
72

>  <SMILES>  (3000) 
[NH-]C(=O)c1ccc(NC(=O)CN2CCN(Cc3ccc(S([NH-])(=O)=O)cc3)CC2)cc1

>  <Energy>  (3000) 
69.96873107245939

>  <Genealogy>  (3000) 
[NH-]C(=O)c1ccc(NC(=O)CN2CCN(Cc3ccc(S([NH-])(=O)=O)cc3)CC2)cc1 (protonated)
[NH-]C(=O)c1ccc(NC(=O)CN2CCN(Cc3ccc(S([NH-])(=O)=O)cc3)CC2)cc1 (3D coordinates assigned)
[NH-]C(=O)c1ccc(NC(=O)CN2CCN(Cc3ccc(S([NH-])(=O)=O)cc3)CC2)cc1 (nonaromatic ring conformer: 69.96873107245939 kcal/mol)

>  <smiles>  (3000) 
NC(=O)c1ccc(NC(=O)CN2CCN(Cc3ccc(S(N)(=O)=O)cc3)CC2)cc1

>  <score_type>  (3000) 
oracle

>  <origin>  (3000) 
adg

>  <m_score__min__energy>  (3000) 
-14.08

>  <m_primary>  (3000) 
energy

$$$$
84:0
     RDKit          3D

 30 33  0  0  0  0  0  0  0  0999 V2000
   58.6880   30.8760   45.6810 C   0  0  0  0  0  0  0  0  0  0  0  0
   58.7570   30.1510   46.8110 C   0  0  0  0  0  0  0  0  0  0  0  0
   58.7100   28.7500   46.9070 C   0  0  0  0  0  0  0  0  0  0  0  0
   58.4120   27.8070   45.9920 C   0  0  0  0  0  0  0  0  0  0  0  0
   57.2230   26.9380   46.0090 C   0  0  0  0  0  0  0  0  0  0  0  0
   57.2180   25.6960   46.5220 N   0  0  0  0  0  0  0  0  0  0  0  0
   55.9180   25.3360   46.4530 C   0  0  0  0  0  0  0  0  0  0  0  0
   55.5050   24.2110   46.8380 O   0  0  0  0  0  0  0  0  0  0  0  0
   55.0920   26.2810   45.9570 N   0  0  0  0  0  0  0  0  0  0  0  0
   55.9310   27.2960   45.6950 C   0  0  0  0  0  0  0  0  0  0  0  0
   55.5200   28.5330   45.2100 O   0  0  0  0  0  0  0  0  0  0  0  0
   59.0390   28.4400   48.2140 C   0  0  0  0  0  0  0  0  0  0  0  0
   59.1970   29.6340   48.8830 C   0  0  0  0  0  0  0  0  0  0  0  0
   59.5840   29.7430   50.3280 C   0  0  0  0  0  0  0  0  0  0  0  0
   59.0250   30.6800   48.0380 N   0  0  0  0  0  0  0  0  0  0  0  0
   59.1850   32.0980   48.4060 C   0  0  0  0  0  0  0  0  0  0  0  0
   60.5970   32.5620   48.1490 C   0  0  0  0  0  0  0  0  0  0  0  0
   60.8960   33.3240   47.0120 C   0  0  0  0  0  0  0  0  0  0  0  0
   62.2040   33.7440   46.7680 C   0  0  0  0  0  0  0  0  0  0  0  0
   63.2290   33.4080   47.6560 C   0  0  0  0  0  0  0  0  0  0  0  0
   64.4850   33.8570   47.4110 F   0  0  0  0  0  0  0  0  0  0  0  0
   62.9490   32.6430   48.8040 C   0  0  0  0  0  0  0  0  0  0  0  0
   63.9960   32.2860   49.7280 N   0  0  0  0  0  0  0  0  0  0  0  0
   63.8900   31.0440   50.5020 C   0  0  0  0  0  0  0  0  0  0  0  0
   64.9300   31.0210   51.6250 C   0  0  0  0  0  0  0  0  0  0  0  0
   66.2870   31.2290   51.0810 N   0  0  0  0  0  0  0  0  0  0  0  0
   67.2680   31.2840   52.1760 C   0  0  0  0  0  0  0  0  0  0  0  0
   66.4170   32.4060   50.1760 C   0  0  0  0  0  0  0  0  0  0  0  0
   65.1140   33.1990   49.9800 C   0  0  0  0  0  0  0  0  0  0  0  0
   61.6270   32.2300   49.0460 C   0  0  0  0  0  0  0  0  0  0  0  0
  1  2  2  0
  2  3  1  0
  3  4  2  0
  4  5  1  0
  5  6  1  0
  6  7  1  0
  7  8  2  0
  7  9  1  0
  9 10  1  0
 10 11  1  0
  3 12  1  0
 12 13  2  0
 13 14  1  0
 13 15  1  0
 15 16  1  0
 16 17  1  0
 17 18  2  0
 18 19  1  0
 19 20  2  0
 20 21  1  0
 20 22  1  0
 22 23  1  0
 23 24  1  0
 24 25  1  0
 25 26  1  0
 26 27  1  0
 26 28  1  0
 28 29  1  0
 22 30  2  0
 15  2  1  0
 30 17  1  0
 10  5  2  0
 29 23  1  0
M  CHG  3   6  -1   9  -1  11  -1
M  END
>  <UniqueID>  (3001) 
78

>  <SMILES>  (3001) 
C=c1/c(=C\c2[n-]c(=O)[n-]c2[O-])cc(C)n1Cc1ccc(F)c(N2CCN(C)CC2)c1

>  <Energy>  (3001) 
135.56760393041282

>  <Genealogy>  (3001) 
C=c1c(=Cc2[n-]c(=O)[n-]c2[O-])cc(C)n1Cc1ccc(F)c(N2CCN(C)CC2)c1 (protonated)
C=c1/c(=C\c2[n-]c(=O)[n-]c2[O-])cc(C)n1Cc1ccc(F)c(N2CCN(C)CC2)c1 (cis-trans isomerization)
C=c1/c(=C\c2[n-]c(=O)[n-]c2[O-])cc(C)n1Cc1ccc(F)c(N2CCN(C)CC2)c1 (3D coordinates assigned)
C=c1/c(=C\c2[n-]c(=O)[n-]c2[O-])cc(C)n1Cc1ccc(F)c(N2CCN(C)CC2)c1 (nonaromatic ring conformer: 135.56760393041282 kcal/mol)

>  <smiles>  (3001) 
C=c1c(=Cc2[nH]c(=O)[nH]c2O)cc(C)n1Cc1ccc(F)c(N2CCN(C)CC2)c1

>  <score_type>  (3001) 
oracle

>  <origin>  (3001) 
adg

>  <m_score__min__energy>  (3001) 
-17.02

>  <m_primary>  (3001) 
energy

$$$$
87:0
     RDKit          3D

 32 35  0  0  0  0  0  0  0  0999 V2000
   55.6470   27.7650   53.5500 C   0  0  0  0  0  0  0  0  0  0  0  0
   54.8420   28.8040   53.3140 C   0  0  0  0  0  0  0  0  0  0  0  0
   53.5510   28.6670   52.9520 N   0  0  0  0  0  0  0  0  0  0  0  0
   53.0710   29.9070   52.7250 C   0  0  0  0  0  0  0  0  0  0  0  0
   51.7980   30.1420   52.3690 C   0  0  0  0  0  0  0  0  0  0  0  0
   51.3900   30.6810   51.0600 C   0  0  0  0  0  0  0  0  0  0  0  0
   51.4010   29.9560   49.9270 N   0  0  0  0  0  0  0  0  0  0  0  0
   51.0330   30.8470   48.9810 C   0  0  0  0  0  0  0  0  0  0  0  0
   50.9120   30.5370   47.7670 O   0  0  0  0  0  0  0  0  0  0  0  0
   50.8130   32.0990   49.4370 N   0  0  0  0  0  0  0  0  0  0  0  0
   51.0540   31.9810   50.7530 C   0  0  0  0  0  0  0  0  0  0  0  0
   51.0120   33.0490   51.6400 O   0  0  0  0  0  0  0  0  0  0  0  0
   54.0600   30.8540   52.9550 C   0  0  0  0  0  0  0  0  0  0  0  0
   55.1870   30.1510   53.3440 C   0  0  0  0  0  0  0  0  0  0  0  0
   56.4750   30.7650   53.7200 C   0  0  0  0  0  0  0  0  0  0  0  0
   56.9040   30.6060   54.8950 O   0  0  0  0  0  0  0  0  0  0  0  0
   57.2600   31.5080   52.7710 N   0  0  0  0  0  0  0  0  0  0  0  0
   57.5500   30.9070   51.4570 C   0  0  0  0  0  0  0  0  0  0  0  0
   57.7690   31.9950   50.4020 C   0  0  0  0  0  0  0  0  0  0  0  0
   58.7150   32.9890   50.9210 N   0  0  0  0  0  0  0  0  0  0  0  0
   60.0660   33.0750   50.4250 C   0  0  0  0  0  0  0  0  0  0  0  0
   61.0100   33.3120   51.2280 O   0  0  0  0  0  0  0  0  0  0  0  0
   60.3740   32.8340   48.9690 C   0  0  0  0  0  0  0  0  0  0  0  0
   60.4450   34.1410   48.1670 C   0  0  0  0  0  0  0  0  0  0  0  0
   59.4270   34.1390   47.0580 C   0  0  0  0  0  0  0  0  0  0  0  0
   59.6560   34.8800   45.8830 C   0  0  0  0  0  0  0  0  0  0  0  0
   58.7200   34.8560   44.8420 C   0  0  0  0  0  0  0  0  0  0  0  0
   57.5590   34.0880   44.9620 C   0  0  0  0  0  0  0  0  0  0  0  0
   57.3320   33.3360   46.1200 C   0  0  0  0  0  0  0  0  0  0  0  0
   58.2640   33.3560   47.1630 C   0  0  0  0  0  0  0  0  0  0  0  0
   58.3390   33.6400   52.1800 C   0  0  0  0  0  0  0  0  0  0  0  0
   58.1450   32.5750   53.2610 C   0  0  0  0  0  0  0  0  0  0  0  0
  1  2  2  0
  2  3  1  0
  3  4  1  0
  4  5  2  3
  5  6  1  0
  6  7  1  0
  7  8  1  0
  8  9  2  0
  8 10  1  0
 10 11  1  0
 11 12  1  0
  4 13  1  0
 13 14  2  0
 14 15  1  0
 15 16  2  0
 15 17  1  0
 17 18  1  0
 18 19  1  0
 19 20  1  0
 20 21  1  0
 21 22  2  0
 21 23  1  0
 23 24  1  0
 24 25  1  0
 25 26  2  0
 26 27  1  0
 27 28  2  0
 28 29  1  0
 29 30  2  0
 20 31  1  0
 31 32  1  0
 14  2  1  0
 32 17  1  0
 11  6  2  0
 30 25  1  0
M  CHG  3   7  -1  10  -1  12  -1
M  END
>  <UniqueID>  (3002) 
81

>  <SMILES>  (3002) 
C=c1[nH]c(=Cc2[n-]c(=O)[n-]c2[O-])cc1C(=O)N1CCN(C(=O)CCc2ccccc2)CC1

>  <Energy>  (3002) 
122.4262220335243

>  <Genealogy>  (3002) 
C=c1[nH]c(=Cc2[n-]c(=O)[n-]c2[O-])cc1C(=O)N1CCN(C(=O)CCc2ccccc2)CC1 (protonated)
C=c1[nH]c(=Cc2[n-]c(=O)[n-]c2[O-])cc1C(=O)N1CCN(C(=O)CCc2ccccc2)CC1 (3D coordinates assigned)
C=c1[nH]c(=Cc2[n-]c(=O)[n-]c2[O-])cc1C(=O)N1CCN(C(=O)CCc2ccccc2)CC1 (nonaromatic ring conformer: 122.4262220335243 kcal/mol)

>  <smiles>  (3002) 
C=c1[nH]c(=Cc2[nH]c(=O)[nH]c2O)cc1C(=O)N1CCN(C(=O)CCc2ccccc2)CC1

>  <score_type>  (3002) 
oracle

>  <origin>  (3002) 
adg

>  <m_score__min__energy>  (3002) 
-18.370000000000001

>  <m_primary>  (3002) 
energy

$$$$
8:0
     RDKit          3D

 30 33  0  0  0  0  0  0  0  0999 V2000
   56.9080   29.5720   43.4300 C   0  0  0  0  0  0  0  0  0  0  0  0
   57.4390   29.5420   44.6650 C   0  0  0  0  0  0  0  0  0  0  0  0
   57.7930   28.3910   45.3800 C   0  0  0  0  0  0  0  0  0  0  0  0
   57.6590   27.1090   44.9750 C   0  0  0  0  0  0  0  0  0  0  0  0
   57.1650   25.9900   45.8090 C   0  0  0  0  0  0  0  0  0  0  0  0
   57.9060   24.9780   46.2960 N   0  0  0  0  0  0  0  0  0  0  0  0
   57.0230   24.2570   47.0200 C   0  0  0  0  0  0  0  0  0  0  0  0
   57.3460   23.2090   47.6360 O   0  0  0  0  0  0  0  0  0  0  0  0
   55.7670   24.7520   47.0350 N   0  0  0  0  0  0  0  0  0  0  0  0
   55.8760   25.8490   46.2690 C   0  0  0  0  0  0  0  0  0  0  0  0
   54.8160   26.7060   45.9960 O   0  0  0  0  0  0  0  0  0  0  0  0
   58.3580   28.8370   46.5670 C   0  0  0  0  0  0  0  0  0  0  0  0
   58.3310   30.2180   46.5350 C   0  0  0  0  0  0  0  0  0  0  0  0
   58.9830   31.0700   47.5560 C   0  0  0  0  0  0  0  0  0  0  0  0
   60.2020   30.9100   47.8350 O   0  0  0  0  0  0  0  0  0  0  0  0
   58.2200   32.0540   48.2690 N   0  0  0  0  0  0  0  0  0  0  0  0
   58.5780   32.4990   49.5870 C   0  0  0  0  0  0  0  0  0  0  0  0
   57.8330   32.0460   50.6850 C   0  0  0  0  0  0  0  0  0  0  0  0
   58.1320   32.4900   51.9750 C   0  0  0  0  0  0  0  0  0  0  0  0
   59.1870   33.3820   52.1810 C   0  0  0  0  0  0  0  0  0  0  0  0
   59.9560   33.8170   51.1000 C   0  0  0  0  0  0  0  0  0  0  0  0
   59.6720   33.3710   49.8000 C   0  0  0  0  0  0  0  0  0  0  0  0
   60.5300   33.7590   48.7150 N   0  0  0  0  0  0  0  0  0  0  0  0
   61.9790   33.5660   48.8460 C   0  0  0  0  0  0  0  0  0  0  0  0
   62.6780   33.8530   47.5150 C   0  0  0  0  0  0  0  0  0  0  0  0
   61.8590   33.4240   46.4480 O   0  0  0  0  0  0  0  0  0  0  0  0
   60.7610   34.3070   46.2970 C   0  0  0  0  0  0  0  0  0  0  0  0
   59.9950   34.5700   47.6160 C   0  0  0  0  0  0  0  0  0  0  0  0
   57.7440   30.6510   45.3920 N   0  0  0  0  0  0  0  0  0  0  0  0
   57.5300   32.0500   45.0030 C   0  0  0  0  0  0  0  0  0  0  0  0
  1  2  2  0
  2  3  1  0
  3  4  2  0
  4  5  1  0
  5  6  1  0
  6  7  1  0
  7  8  2  0
  7  9  1  0
  9 10  1  0
 10 11  1  0
  3 12  1  0
 12 13  2  0
 13 14  1  0
 14 15  2  0
 14 16  1  0
 16 17  1  0
 17 18  2  0
 18 19  1  0
 19 20  2  0
 20 21  1  0
 21 22  2  0
 22 23  1  0
 23 24  1  0
 24 25  1  0
 25 26  1  0
 26 27  1  0
 27 28  1  0
 13 29  1  0
 29 30  1  0
 29  2  1  0
 10  5  2  0
 22 17  1  0
 28 23  1  0
M  CHG  3   6  -1   9  -1  11  -1
M  END
>  <UniqueID>  (3003) 
8

>  <SMILES>  (3003) 
C=c1/c(=C/c2[n-]c(=O)[n-]c2[O-])cc(C(=O)Nc2ccccc2N2CCOCC2)n1C

>  <Energy>  (3003) 
132.11906222392676

>  <Genealogy>  (3003) 
C=c1c(=Cc2[n-]c(=O)[n-]c2[O-])cc(C(=O)Nc2ccccc2N2CCOCC2)n1C (protonated)
C=c1/c(=C/c2[n-]c(=O)[n-]c2[O-])cc(C(=O)Nc2ccccc2N2CCOCC2)n1C (cis-trans isomerization)
C=c1/c(=C/c2[n-]c(=O)[n-]c2[O-])cc(C(=O)Nc2ccccc2N2CCOCC2)n1C (3D coordinates assigned)
C=c1/c(=C/c2[n-]c(=O)[n-]c2[O-])cc(C(=O)Nc2ccccc2N2CCOCC2)n1C (nonaromatic ring conformer: 132.11906222392676 kcal/mol)

>  <smiles>  (3003) 
C=c1c(=Cc2[nH]c(=O)[nH]c2O)cc(C(=O)Nc2ccccc2N2CCOCC2)n1C

>  <score_type>  (3003) 
oracle

>  <origin>  (3003) 
adg

>  <m_score__min__energy>  (3003) 
-17.75

>  <m_primary>  (3003) 
energy

$$$$
12:0
     RDKit          3D

 26 28  0  0  0  0  0  0  0  0999 V2000
   55.3660   31.5510   52.2680 C   0  0  0  0  0  0  0  0  0  0  0  0
   54.9650   30.3380   52.6800 C   0  0  0  0  0  0  0  0  0  0  0  0
   53.6450   29.9440   52.9280 C   0  0  0  0  0  0  0  0  0  0  0  0
   52.5250   30.6600   52.7080 C   0  0  0  0  0  0  0  0  0  0  0  0
   51.9200   30.8570   51.3790 C   0  0  0  0  0  0  0  0  0  0  0  0
   52.0420   29.9720   50.3740 N   0  0  0  0  0  0  0  0  0  0  0  0
   51.4220   30.5810   49.3410 C   0  0  0  0  0  0  0  0  0  0  0  0
   51.3140   30.0490   48.2050 O   0  0  0  0  0  0  0  0  0  0  0  0
   50.9350   31.8110   49.6170 N   0  0  0  0  0  0  0  0  0  0  0  0
   51.2690   31.9760   50.9060 C   0  0  0  0  0  0  0  0  0  0  0  0
   51.0260   33.1450   51.6180 O   0  0  0  0  0  0  0  0  0  0  0  0
   53.7100   28.6410   53.4070 C   0  0  0  0  0  0  0  0  0  0  0  0
   55.0470   28.2970   53.4330 C   0  0  0  0  0  0  0  0  0  0  0  0
   55.5770   26.9640   53.8680 C   0  0  0  0  0  0  0  0  0  0  0  0
   55.8090   29.3200   52.9870 N   0  0  0  0  0  0  0  0  0  0  0  0
   57.2400   29.2960   52.8550 C   0  0  0  0  0  0  0  0  0  0  0  0
   57.9520   29.1030   53.8760 O   0  0  0  0  0  0  0  0  0  0  0  0
   57.8460   29.4850   51.5660 N   0  0  0  0  0  0  0  0  0  0  0  0
   59.2650   29.4570   51.3380 C   0  0  0  0  0  0  0  0  0  0  0  0
   60.1600   29.2250   52.3980 C   0  0  0  0  0  0  0  0  0  0  0  0
   61.5350   29.1720   52.1630 C   0  0  0  0  0  0  0  0  0  0  0  0
   62.0310   29.3370   50.8690 C   0  0  0  0  0  0  0  0  0  0  0  0
   61.1530   29.5480   49.8050 C   0  0  0  0  0  0  0  0  0  0  0  0
   59.7620   29.6050   50.0280 C   0  0  0  0  0  0  0  0  0  0  0  0
   58.8520   29.8180   48.9800 O   0  0  0  0  0  0  0  0  0  0  0  0
   59.1160   29.5370   47.6100 C   0  0  0  0  0  0  0  0  0  0  0  0
  1  2  2  0
  2  3  1  0
  3  4  2  0
  4  5  1  0
  5  6  1  0
  6  7  1  0
  7  8  2  0
  7  9  1  0
  9 10  1  0
 10 11  1  0
  3 12  1  0
 12 13  2  0
 13 14  1  0
 13 15  1  0
 15 16  1  0
 16 17  2  0
 16 18  1  0
 18 19  1  0
 19 20  2  0
 20 21  1  0
 21 22  2  0
 22 23  1  0
 23 24  2  0
 24 25  1  0
 25 26  1  0
 15  2  1  0
 24 19  1  0
 10  5  2  0
M  CHG  3   6  -1   9  -1  11  -1
M  END
>  <UniqueID>  (3004) 
12

>  <SMILES>  (3004) 
C=c1/c(=C/c2[n-]c(=O)[n-]c2[O-])cc(C)n1C(=O)Nc1ccccc1OC

>  <Energy>  (3004) 
116.68851350096139

>  <Genealogy>  (3004) 
C=c1c(=Cc2[n-]c(=O)[n-]c2[O-])cc(C)n1C(=O)Nc1ccccc1OC (protonated)
C=c1/c(=C/c2[n-]c(=O)[n-]c2[O-])cc(C)n1C(=O)Nc1ccccc1OC (cis-trans isomerization)
C=c1/c(=C/c2[n-]c(=O)[n-]c2[O-])cc(C)n1C(=O)Nc1ccccc1OC (3D coordinates assigned)
C=c1/c(=C/c2[n-]c(=O)[n-]c2[O-])cc(C)n1C(=O)Nc1ccccc1OC (optimized conformer: 116.68851350096139 kcal/mol)

>  <smiles>  (3004) 
C=c1c(=Cc2[nH]c(=O)[nH]c2O)cc(C)n1C(=O)Nc1ccccc1OC

>  <score_type>  (3004) 
oracle

>  <origin>  (3004) 
adg

>  <m_score__min__energy>  (3004) 
-15.06

>  <m_primary>  (3004) 
energy

$$$$
18:0
     RDKit          3D

 26 29  0  0  0  0  0  0  0  0999 V2000
   51.2770   31.2330   54.2940 C   0  0  0  0  0  0  0  0  0  0  0  0
   52.5160   30.7390   54.2460 C   0  0  0  0  0  0  0  0  0  0  0  0
   52.9930   29.9910   55.2160 O   0  0  0  0  0  0  0  0  0  0  0  0
   54.1750   29.5360   54.8730 C   0  0  0  0  0  0  0  0  0  0  0  0
   54.4970   29.9920   53.6120 C   0  0  0  0  0  0  0  0  0  0  0  0
   55.7470   29.6730   52.8950 C   0  0  0  0  0  0  0  0  0  0  0  0
   55.8700   28.5350   52.3680 O   0  0  0  0  0  0  0  0  0  0  0  0
   56.8080   30.6390   52.7630 N   0  0  0  0  0  0  0  0  0  0  0  0
   56.5260   32.0780   52.7170 C   0  0  0  0  0  0  0  0  0  0  0  0
   57.3690   32.7510   51.6220 C   0  0  0  0  0  0  0  0  0  0  0  0
   58.7930   32.3050   51.5880 N   0  0  0  0  0  0  0  0  0  0  0  0
   59.8210   33.3730   51.4640 C   0  0  0  0  0  0  0  0  0  0  0  0
   61.2700   32.8860   51.4950 C   0  0  0  0  0  0  0  0  0  0  0  0
   61.4770   33.4430   50.0890 C   0  0  0  0  0  0  0  0  0  0  0  0
   60.0300   33.9270   50.0530 C   0  0  0  0  0  0  0  0  0  0  0  0
   59.1650   31.3550   52.6550 C   0  0  0  0  0  0  0  0  0  0  0  0
   58.1940   30.1730   52.6800 C   0  0  0  0  0  0  0  0  0  0  0  0
   53.4590   30.8310   53.2120 C   0  0  0  0  0  0  0  0  0  0  0  0
   53.4690   31.5910   52.0970 C   0  0  0  0  0  0  0  0  0  0  0  0
   52.5110   31.4970   50.9850 C   0  0  0  0  0  0  0  0  0  0  0  0
   52.4960   30.5150   50.0660 N   0  0  0  0  0  0  0  0  0  0  0  0
   51.3700   30.7650   49.3620 C   0  0  0  0  0  0  0  0  0  0  0  0
   51.0120   30.0580   48.3850 O   0  0  0  0  0  0  0  0  0  0  0  0
   50.6540   31.8240   49.7950 N   0  0  0  0  0  0  0  0  0  0  0  0
   51.3830   32.2660   50.8330 C   0  0  0  0  0  0  0  0  0  0  0  0
   51.0210   33.3450   51.6280 O   0  0  0  0  0  0  0  0  0  0  0  0
  1  2  2  0
  2  3  1  0
  3  4  1  0
  4  5  2  0
  5  6  1  0
  6  7  2  0
  6  8  1  0
  8  9  1  0
  9 10  1  0
 10 11  1  0
 11 12  1  0
 12 13  1  0
 13 14  1  0
 14 15  1  0
 11 16  1  0
 16 17  1  0
  5 18  1  0
 18 19  2  3
 19 20  1  0
 20 21  1  0
 21 22  1  0
 22 23  2  0
 22 24  1  0
 24 25  1  0
 25 26  1  0
 18  2  1  0
 25 20  2  0
 17  8  1  0
 15 12  1  0
M  CHG  3  21  -1  24  -1  26  -1
M  END
>  <UniqueID>  (3005) 
18

>  <SMILES>  (3005) 
C=c1occ(C(=O)N2CCN(C3CCC3)CC2)c1=Cc1[n-]c(=O)[n-]c1[O-]

>  <Energy>  (3005) 
192.24551867991025

>  <Genealogy>  (3005) 
C=c1occ(C(=O)N2CCN(C3CCC3)CC2)c1=Cc1[n-]c(=O)[n-]c1[O-] (protonated)
C=c1occ(C(=O)N2CCN(C3CCC3)CC2)c1=Cc1[n-]c(=O)[n-]c1[O-] (3D coordinates assigned)
C=c1occ(C(=O)N2CCN(C3CCC3)CC2)c1=Cc1[n-]c(=O)[n-]c1[O-] (nonaromatic ring conformer: 192.24551867991025 kcal/mol)

>  <smiles>  (3005) 
C=c1occ(C(=O)N2CCN(C3CCC3)CC2)c1=Cc1[nH]c(=O)[nH]c1O

>  <score_type>  (3005) 
oracle

>  <origin>  (3005) 
adg

>  <m_score__min__energy>  (3005) 
-16.219999999999999

>  <m_primary>  (3005) 
energy

$$$$
32:0
     RDKit          3D

 26 28  0  0  0  0  0  0  0  0999 V2000
   53.9340   29.5070   54.8300 C   0  0  0  0  0  0  0  0  0  0  0  0
   54.3990   30.0750   53.7050 C   0  0  0  0  0  0  0  0  0  0  0  0
   53.6520   30.4210   52.5650 C   0  0  0  0  0  0  0  0  0  0  0  0
   52.3230   30.4370   52.3440 C   0  0  0  0  0  0  0  0  0  0  0  0
   51.6640   30.8200   51.0870 C   0  0  0  0  0  0  0  0  0  0  0  0
   51.6650   30.0540   49.9830 N   0  0  0  0  0  0  0  0  0  0  0  0
   51.0760   30.8410   49.0570 C   0  0  0  0  0  0  0  0  0  0  0  0
   50.8760   30.4610   47.8730 O   0  0  0  0  0  0  0  0  0  0  0  0
   50.7280   32.0700   49.4940 N   0  0  0  0  0  0  0  0  0  0  0  0
   51.1220   32.0470   50.7780 C   0  0  0  0  0  0  0  0  0  0  0  0
   51.0130   33.1330   51.6370 O   0  0  0  0  0  0  0  0  0  0  0  0
   54.5710   30.8090   51.6060 C   0  0  0  0  0  0  0  0  0  0  0  0
   55.8150   30.7410   52.1920 C   0  0  0  0  0  0  0  0  0  0  0  0
   57.0630   31.1130   51.5060 C   0  0  0  0  0  0  0  0  0  0  0  0
   57.0980   32.2000   50.8670 O   0  0  0  0  0  0  0  0  0  0  0  0
   58.1850   30.1930   51.4710 N   0  0  1  0  0  0  0  0  0  0  0  0
   58.5130   29.7870   50.0900 C   0  0  0  0  0  0  0  0  0  0  0  0
   59.0290   30.9540   49.2350 C   0  0  0  0  0  0  0  0  0  0  0  0
   60.0510   31.7390   49.9350 N   0  0  0  0  0  0  0  0  0  0  0  0
   60.8720   32.6810   49.1700 C   0  0  0  0  0  0  0  0  0  0  0  0
   60.1300   31.7350   51.3720 C   0  0  0  0  0  0  0  0  0  0  0  0
   60.8900   32.5450   51.9690 O   0  0  0  0  0  0  0  0  0  0  0  0
   59.3700   30.7200   52.1820 C   0  0  0  0  0  0  0  0  0  0  0  0
   55.7200   30.2990   53.4680 N   0  0  0  0  0  0  0  0  0  0  0  0
   56.8260   30.2100   54.4340 C   0  0  0  0  0  0  0  0  0  0  0  0
   57.5130   28.8530   54.3310 C   0  0  0  0  0  0  0  0  0  0  0  0
  1  2  2  0
  2  3  1  0
  3  4  2  3
  4  5  1  0
  5  6  1  0
  6  7  1  0
  7  8  2  0
  7  9  1  0
  9 10  1  0
 10 11  1  0
  3 12  1  0
 12 13  2  0
 13 14  1  0
 14 15  2  0
 16 14  1  6
 16 17  1  0
 17 18  1  0
 18 19  1  0
 19 20  1  0
 19 21  1  0
 21 22  2  0
 21 23  1  0
 13 24  1  0
 24 25  1  0
 25 26  1  0
 24  2  1  0
 10  5  2  0
 23 16  1  0
M  CHG  4   6  -1   9  -1  11  -1  16   1
M  END
>  <UniqueID>  (3006) 
31

>  <SMILES>  (3006) 
C=c1c(=Cc2[n-]c(=O)[n-]c2[O-])cc(C(=O)[N@H+]2CCN(C)C(=O)C2)n1CC

>  <Energy>  (3006) 
124.18826393467873

>  <Genealogy>  (3006) 
C=c1c(=Cc2[n-]c(=O)[n-]c2[O-])cc(C(=O)[NH+]2CCN(C)C(=O)C2)n1CC (protonated)
C=c1c(=Cc2[n-]c(=O)[n-]c2[O-])cc(C(=O)[N@H+]2CCN(C)C(=O)C2)n1CC (chirality)
C=c1c(=Cc2[n-]c(=O)[n-]c2[O-])cc(C(=O)[N@H+]2CCN(C)C(=O)C2)n1CC (3D coordinates assigned)
C=c1c(=Cc2[n-]c(=O)[n-]c2[O-])cc(C(=O)[N@H+]2CCN(C)C(=O)C2)n1CC (nonaromatic ring conformer: 124.18826393467873 kcal/mol)

>  <smiles>  (3006) 
C=c1c(=Cc2[nH]c(=O)[nH]c2O)cc(C(=O)N2CCN(C)C(=O)C2)n1CC

>  <score_type>  (3006) 
oracle

>  <origin>  (3006) 
adg

>  <m_score__min__energy>  (3006) 
-14.98

>  <m_primary>  (3006) 
energy

$$$$
44:0
     RDKit          3D

 32 35  0  0  0  0  0  0  0  0999 V2000
   56.6160   23.7650   42.9140 C   0  0  0  0  0  0  0  0  0  0  0  0
   56.3330   22.7140   43.6970 C   0  0  0  0  0  0  0  0  0  0  0  0
   56.3770   21.4890   43.1020 N   0  0  0  0  0  0  0  0  0  0  0  0
   56.3150   20.3320   43.7980 C   0  0  0  0  0  0  0  0  0  0  0  0
   56.2580   20.3590   45.1840 C   0  0  0  0  0  0  0  0  0  0  0  0
   56.1780   21.5820   45.8520 C   0  0  0  0  0  0  0  0  0  0  0  0
   56.0290   21.4820   47.7710 Br  0  0  0  0  0  0  0  0  0  0  0  0
   56.1250   22.7990   45.1170 C   0  0  0  0  0  0  0  0  0  0  0  0
   55.8590   23.9540   45.7840 C   0  0  0  0  0  0  0  0  0  0  0  0
   56.7800   25.0940   45.9390 C   0  0  0  0  0  0  0  0  0  0  0  0
   58.1150   24.9580   46.0850 N   0  0  0  0  0  0  0  0  0  0  0  0
   58.5530   26.2290   46.2240 C   0  0  0  0  0  0  0  0  0  0  0  0
   59.7720   26.5200   46.3560 O   0  0  0  0  0  0  0  0  0  0  0  0
   57.5650   27.1500   46.1980 N   0  0  0  0  0  0  0  0  0  0  0  0
   57.6870   28.6090   46.2480 C   0  0  0  0  0  0  0  0  0  0  0  0
   57.7390   29.2100   44.8370 C   0  0  0  0  0  0  0  0  0  0  0  0
   56.7340   30.3570   44.6560 C   0  0  0  0  0  0  0  0  0  0  0  0
   57.4400   31.6550   44.6070 N   0  0  0  0  0  0  0  0  0  0  0  0
   56.6540   32.7500   45.2360 C   0  0  0  0  0  0  0  0  0  0  0  0
   57.2230   33.1750   46.5970 C   0  0  0  0  0  0  0  0  0  0  0  0
   58.6170   33.6580   46.4670 N   0  0  0  0  0  0  0  0  0  0  0  0
   59.2740   33.6970   47.7890 C   0  0  0  0  0  0  0  0  0  0  0  0
   60.6620   33.1170   47.7040 C   0  0  0  0  0  0  0  0  0  0  0  0
   60.8960   31.7680   48.0200 C   0  0  0  0  0  0  0  0  0  0  0  0
   62.1870   31.2380   47.9310 C   0  0  0  0  0  0  0  0  0  0  0  0
   63.2510   32.0480   47.5250 C   0  0  0  0  0  0  0  0  0  0  0  0
   63.0250   33.3910   47.2100 C   0  0  0  0  0  0  0  0  0  0  0  0
   61.7370   33.9250   47.2980 C   0  0  0  0  0  0  0  0  0  0  0  0
   59.4130   32.9020   45.4640 C   0  0  0  0  0  0  0  0  0  0  0  0
   58.8110   31.5270   45.1490 C   0  0  0  0  0  0  0  0  0  0  0  0
   56.4450   26.4300   46.0340 C   0  0  0  0  0  0  0  0  0  0  0  0
   55.1620   26.9650   45.9850 O   0  0  0  0  0  0  0  0  0  0  0  0
  1  2  2  0
  2  3  1  0
  3  4  2  0
  4  5  1  0
  5  6  2  0
  6  7  1  0
  6  8  1  0
  8  9  2  0
  9 10  1  0
 10 11  1  0
 11 12  1  0
 12 13  2  0
 12 14  1  0
 14 15  1  0
 15 16  1  0
 16 17  1  0
 17 18  1  0
 18 19  1  0
 19 20  1  0
 20 21  1  0
 21 22  1  0
 22 23  1  0
 23 24  2  0
 24 25  1  0
 25 26  2  0
 26 27  1  0
 27 28  2  0
 21 29  1  0
 29 30  1  0
 14 31  1  0
 31 32  1  0
  8  2  1  0
 31 10  2  0
 30 18  1  0
 28 23  1  0
M  CHG  2  11  -1  32  -1
M  END
>  <UniqueID>  (3007) 
43

>  <SMILES>  (3007) 
C=c1nccc(Br)/c1=C/c1[n-]c(=O)n(CCCN2CCN(Cc3ccccc3)CC2)c1[O-]

>  <Energy>  (3007) 
125.6049286018442

>  <Genealogy>  (3007) 
C=c1nccc(Br)c1=Cc1[n-]c(=O)n(CCCN2CCN(Cc3ccccc3)CC2)c1[O-] (protonated)
C=c1nccc(Br)/c1=C/c1[n-]c(=O)n(CCCN2CCN(Cc3ccccc3)CC2)c1[O-] (cis-trans isomerization)
C=c1nccc(Br)/c1=C/c1[n-]c(=O)n(CCCN2CCN(Cc3ccccc3)CC2)c1[O-] (3D coordinates assigned)
C=c1nccc(Br)/c1=C/c1[n-]c(=O)n(CCCN2CCN(Cc3ccccc3)CC2)c1[O-] (nonaromatic ring conformer: 125.6049286018442 kcal/mol)

>  <smiles>  (3007) 
C=c1nccc(Br)c1=Cc1[nH]c(=O)n(CCCN2CCN(Cc3ccccc3)CC2)c1O

>  <score_type>  (3007) 
oracle

>  <origin>  (3007) 
adg

>  <m_score__min__energy>  (3007) 
-15.300000000000001

>  <m_primary>  (3007) 
energy

$$$$
57:0
     RDKit          3D

 32 35  0  0  0  0  0  0  0  0999 V2000
   58.5940   29.9160   44.6130 C   0  0  0  0  0  0  0  0  0  0  0  0
   58.6360   29.5160   45.8950 C   0  0  0  0  0  0  0  0  0  0  0  0
   58.2650   28.2590   46.3920 C   0  0  0  0  0  0  0  0  0  0  0  0
   57.7600   27.2270   45.6810 C   0  0  0  0  0  0  0  0  0  0  0  0
   57.1290   26.0110   46.2430 C   0  0  0  0  0  0  0  0  0  0  0  0
   57.7730   24.9200   46.6970 N   0  0  0  0  0  0  0  0  0  0  0  0
   56.7720   24.0980   47.0810 C   0  0  0  0  0  0  0  0  0  0  0  0
   56.9820   22.9580   47.5710 O   0  0  0  0  0  0  0  0  0  0  0  0
   55.5310   24.5930   46.8960 N   0  0  0  0  0  0  0  0  0  0  0  0
   55.7740   25.8010   46.3630 C   0  0  0  0  0  0  0  0  0  0  0  0
   54.7770   26.6950   45.9950 O   0  0  0  0  0  0  0  0  0  0  0  0
   58.5270   28.2960   47.7600 C   0  0  0  0  0  0  0  0  0  0  0  0
   59.0260   29.5530   48.0360 C   0  0  0  0  0  0  0  0  0  0  0  0
   59.4770   30.0190   49.3870 C   0  0  0  0  0  0  0  0  0  0  0  0
   59.0940   30.2900   46.9080 N   0  0  0  0  0  0  0  0  0  0  0  0
   59.5920   31.6340   46.8150 C   0  0  0  0  0  0  0  0  0  0  0  0
   60.9430   31.8960   47.0780 C   0  0  0  0  0  0  0  0  0  0  0  0
   61.4550   33.1930   46.9320 C   0  0  0  0  0  0  0  0  0  0  0  0
   63.1810   33.4940   47.1400 S   0  0  0  0  0  0  0  0  0  0  0  0
   63.9480   32.2520   46.7840 O   0  0  0  0  0  0  0  0  0  0  0  0
   63.6090   34.5910   46.2040 O   0  0  0  0  0  0  0  0  0  0  0  0
   63.5540   33.9460   48.7890 N   0  0  0  0  0  0  0  0  0  0  0  0
   64.6230   33.0920   49.3580 C   0  0  0  0  0  0  0  0  0  0  0  0
   64.0680   31.9970   50.2820 C   0  0  0  0  0  0  0  0  0  0  0  0
   63.3140   32.5720   51.4200 N   0  0  0  0  0  0  0  0  0  0  0  0
   62.3590   31.5860   51.9500 C   0  0  0  0  0  0  0  0  0  0  0  0
   62.6400   33.8570   51.1020 C   0  0  0  0  0  0  0  0  0  0  0  0
   62.3230   33.9870   49.6060 C   0  0  0  0  0  0  0  0  0  0  0  0
   60.5940   34.2370   46.5610 C   0  0  0  0  0  0  0  0  0  0  0  0
   59.2420   33.9820   46.3190 C   0  0  0  0  0  0  0  0  0  0  0  0
   58.7400   32.6830   46.4370 C   0  0  0  0  0  0  0  0  0  0  0  0
   57.4290   32.4430   46.1880 F   0  0  0  0  0  0  0  0  0  0  0  0
  1  2  2  0
  2  3  1  0
  3  4  2  0
  4  5  1  0
  5  6  1  0
  6  7  1  0
  7  8  2  0
  7  9  1  0
  9 10  1  0
 10 11  1  0
  3 12  1  0
 12 13  2  0
 13 14  1  0
 13 15  1  0
 15 16  1  0
 16 17  2  0
 17 18  1  0
 18 19  1  0
 19 20  2  0
 19 21  2  0
 19 22  1  0
 22 23  1  0
 23 24  1  0
 24 25  1  0
 25 26  1  0
 25 27  1  0
 27 28  1  0
 18 29  2  0
 29 30  1  0
 30 31  2  0
 31 32  1  0
 15  2  1  0
 31 16  1  0
 10  5  2  0
 28 22  1  0
M  CHG  3   6  -1   9  -1  11  -1
M  END
>  <UniqueID>  (3008) 
56

>  <SMILES>  (3008) 
C=c1/c(=C/c2[n-]c(=O)[n-]c2[O-])cc(C)n1-c1cc(S(=O)(=O)N2CCN(C)CC2)ccc1F

>  <Energy>  (3008) 
132.87546918259662

>  <Genealogy>  (3008) 
C=c1c(=Cc2[n-]c(=O)[n-]c2[O-])cc(C)n1-c1cc(S(=O)(=O)N2CCN(C)CC2)ccc1F (protonated)
C=c1/c(=C/c2[n-]c(=O)[n-]c2[O-])cc(C)n1-c1cc(S(=O)(=O)N2CCN(C)CC2)ccc1F (cis-trans isomerization)
C=c1/c(=C/c2[n-]c(=O)[n-]c2[O-])cc(C)n1-c1cc(S(=O)(=O)N2CCN(C)CC2)ccc1F (3D coordinates assigned)
C=c1/c(=C/c2[n-]c(=O)[n-]c2[O-])cc(C)n1-c1cc(S(=O)(=O)N2CCN(C)CC2)ccc1F (nonaromatic ring conformer: 132.87546918259662 kcal/mol)

>  <smiles>  (3008) 
C=c1c(=Cc2[nH]c(=O)[nH]c2O)cc(C)n1-c1cc(S(=O)(=O)N2CCN(C)CC2)ccc1F

>  <score_type>  (3008) 
oracle

>  <origin>  (3008) 
adg

>  <m_score__min__energy>  (3008) 
-16.960000000000001

>  <m_primary>  (3008) 
energy

$$$$
59:0
     RDKit          3D

 37 41  0  0  0  0  0  0  0  0999 V2000
   56.4830   29.4160   44.2250 C   0  0  0  0  0  0  0  0  0  0  0  0
   57.6970   29.0990   44.7080 C   0  0  0  0  0  0  0  0  0  0  0  0
   58.1920   27.8050   44.9020 C   0  0  0  0  0  0  0  0  0  0  0  0
   57.5800   26.6460   44.5800 C   0  0  0  0  0  0  0  0  0  0  0  0
   57.0030   25.6850   45.5390 C   0  0  0  0  0  0  0  0  0  0  0  0
   57.7280   24.7040   46.0950 N   0  0  0  0  0  0  0  0  0  0  0  0
   56.8970   24.1760   47.0170 C   0  0  0  0  0  0  0  0  0  0  0  0
   57.2300   23.2170   47.7550 O   0  0  0  0  0  0  0  0  0  0  0  0
   55.6980   24.7850   47.1140 N   0  0  0  0  0  0  0  0  0  0  0  0
   55.7840   25.7500   46.1860 C   0  0  0  0  0  0  0  0  0  0  0  0
   54.7980   26.7090   45.9950 O   0  0  0  0  0  0  0  0  0  0  0  0
   59.4220   27.9510   45.5260 C   0  0  0  0  0  0  0  0  0  0  0  0
   59.6560   29.3070   45.6310 C   0  0  0  0  0  0  0  0  0  0  0  0
   60.9030   29.9010   46.2160 C   0  0  0  0  0  0  0  0  0  0  0  0
   58.6090   30.0110   45.1410 N   0  0  0  0  0  0  0  0  0  0  0  0
   58.5240   31.4490   45.0480 C   0  0  0  0  0  0  0  0  0  0  0  0
   57.9020   32.0570   43.9420 C   0  0  0  0  0  0  0  0  0  0  0  0
   57.7960   33.4490   43.8680 C   0  0  0  0  0  0  0  0  0  0  0  0
   58.3180   34.2470   44.8910 C   0  0  0  0  0  0  0  0  0  0  0  0
   58.9650   33.6560   45.9860 C   0  0  0  0  0  0  0  0  0  0  0  0
   59.5930   34.4910   47.0270 C   0  0  0  0  0  0  0  0  0  0  0  0
   59.2770   35.7090   47.1230 O   0  0  0  0  0  0  0  0  0  0  0  0
   60.5550   33.9300   47.9310 N   0  0  0  0  0  0  0  0  0  0  0  0
   60.4830   34.2250   49.3680 C   0  0  0  0  0  0  0  0  0  0  0  0
   60.4950   32.9090   50.1630 C   0  0  0  0  0  0  0  0  0  0  0  0
   61.4030   31.9200   49.5530 N   0  0  0  0  0  0  0  0  0  0  0  0
   61.3300   30.5310   49.9250 C   0  0  0  0  0  0  0  0  0  0  0  0
   60.4030   29.6820   49.3020 C   0  0  0  0  0  0  0  0  0  0  0  0
   60.2980   28.3420   49.6890 C   0  0  0  0  0  0  0  0  0  0  0  0
   61.1200   27.8300   50.7100 C   0  0  0  0  0  0  0  0  0  0  0  0
   61.0540   26.4940   51.1360 O   0  0  0  0  0  0  0  0  0  0  0  0
   62.1630   25.7590   51.6440 C   0  0  0  0  0  0  0  0  0  0  0  0
   62.0400   28.6790   51.3350 C   0  0  0  0  0  0  0  0  0  0  0  0
   62.1480   30.0180   50.9450 C   0  0  0  0  0  0  0  0  0  0  0  0
   62.3770   32.3590   48.5420 C   0  0  0  0  0  0  0  0  0  0  0  0
   61.6490   33.0940   47.4100 C   0  0  0  0  0  0  0  0  0  0  0  0
   59.0420   32.2560   46.0720 C   0  0  0  0  0  0  0  0  0  0  0  0
  1  2  2  0
  2  3  1  0
  3  4  2  0
  4  5  1  0
  5  6  1  0
  6  7  1  0
  7  8  2  0
  7  9  1  0
  9 10  1  0
 10 11  1  0
  3 12  1  0
 12 13  2  0
 13 14  1  0
 13 15  1  0
 15 16  1  0
 16 17  2  0
 17 18  1  0
 18 19  2  0
 19 20  1  0
 20 21  1  0
 21 22  2  0
 21 23  1  0
 23 24  1  0
 24 25  1  0
 25 26  1  0
 26 27  1  0
 27 28  2  0
 28 29  1  0
 29 30  2  0
 30 31  1  0
 31 32  1  0
 30 33  1  0
 33 34  2  0
 26 35  1  0
 35 36  1  0
 20 37  2  0
 15  2  1  0
 37 16  1  0
 10  5  2  0
 36 23  1  0
 34 27  1  0
M  CHG  3   6  -1   9  -1  11  -1
M  END
>  <UniqueID>  (3009) 
58

>  <SMILES>  (3009) 
C=c1/c(=C/c2[n-]c(=O)[n-]c2[O-])cc(C)n1-c1cccc(C(=O)N2CCN(c3ccc(OC)cc3)CC2)c1

>  <Energy>  (3009) 
147.68658164848063

>  <Genealogy>  (3009) 
C=c1c(=Cc2[n-]c(=O)[n-]c2[O-])cc(C)n1-c1cccc(C(=O)N2CCN(c3ccc(OC)cc3)CC2)c1 (protonated)
C=c1/c(=C/c2[n-]c(=O)[n-]c2[O-])cc(C)n1-c1cccc(C(=O)N2CCN(c3ccc(OC)cc3)CC2)c1 (cis-trans isomerization)
C=c1/c(=C/c2[n-]c(=O)[n-]c2[O-])cc(C)n1-c1cccc(C(=O)N2CCN(c3ccc(OC)cc3)CC2)c1 (3D coordinates assigned)
C=c1/c(=C/c2[n-]c(=O)[n-]c2[O-])cc(C)n1-c1cccc(C(=O)N2CCN(c3ccc(OC)cc3)CC2)c1 (nonaromatic ring conformer: 147.68658164848063 kcal/mol)

>  <smiles>  (3009) 
C=c1c(=Cc2[nH]c(=O)[nH]c2O)cc(C)n1-c1cccc(C(=O)N2CCN(c3ccc(OC)cc3)CC2)c1

>  <score_type>  (3009) 
oracle

>  <origin>  (3009) 
adg

>  <m_score__min__energy>  (3009) 
-17.57

>  <m_primary>  (3009) 
energy

$$$$
64:0
     RDKit          3D

 28 30  0  0  0  0  0  0  0  0999 V2000
   59.4840   27.7010   46.9280 C   0  0  0  0  0  0  0  0  0  0  0  0
   58.7530   28.4000   46.0300 C   0  0  0  0  0  0  0  0  0  0  0  0
   58.7380   29.8170   46.1460 C   0  0  0  0  0  0  0  0  0  0  0  0
   59.4190   30.4300   47.2190 O   0  0  0  0  0  0  0  0  0  0  0  0
   58.8350   31.2740   48.2150 C   0  0  0  0  0  0  0  0  0  0  0  0
   58.7990   32.7210   47.7650 C   0  0  0  0  0  0  0  0  0  0  0  0
   57.7170   33.2280   47.5010 O   0  0  0  0  0  0  0  0  0  0  0  0
   60.0040   33.5320   47.6860 N   0  0  1  0  0  0  0  0  0  0  0  0
   60.8370   33.4170   48.9180 C   0  0  0  0  0  0  0  0  0  0  0  0
   62.0960   32.5620   48.7110 C   0  0  0  0  0  0  0  0  0  0  0  0
   62.9880   33.1500   47.5970 C   0  0  1  0  0  0  0  0  0  0  0  0
   63.8610   32.1020   47.0630 N   0  0  0  0  0  0  0  0  0  0  0  0
   62.1590   33.8230   46.4700 C   0  0  0  0  0  0  0  0  0  0  0  0
   60.7330   33.2640   46.4200 C   0  0  0  0  0  0  0  0  0  0  0  0
   58.0610   30.5890   45.1910 C   0  0  0  0  0  0  0  0  0  0  0  0
   57.3750   29.9910   44.1380 C   0  0  0  0  0  0  0  0  0  0  0  0
   56.6670   30.8450   43.1170 C   0  0  0  0  0  0  0  0  0  0  0  0
   57.6030   31.9160   42.5700 C   0  0  0  0  0  0  0  0  0  0  0  0
   57.3740   28.6000   44.0170 C   0  0  0  0  0  0  0  0  0  0  0  0
   58.0420   27.7710   44.9470 C   0  0  0  0  0  0  0  0  0  0  0  0
   57.9450   26.4160   44.8290 C   0  0  0  0  0  0  0  0  0  0  0  0
   57.2570   25.5110   45.7770 C   0  0  0  0  0  0  0  0  0  0  0  0
   57.8170   24.4400   46.3720 N   0  0  0  0  0  0  0  0  0  0  0  0
   56.8560   24.0160   47.2220 C   0  0  0  0  0  0  0  0  0  0  0  0
   57.0030   23.0080   47.9620 O   0  0  0  0  0  0  0  0  0  0  0  0
   55.7320   24.7630   47.2240 N   0  0  0  0  0  0  0  0  0  0  0  0
   56.0080   25.7100   46.3140 C   0  0  0  0  0  0  0  0  0  0  0  0
   55.1360   26.7400   45.9830 O   0  0  0  0  0  0  0  0  0  0  0  0
  1  2  2  0
  2  3  1  0
  3  4  1  0
  4  5  1  0
  5  6  1  0
  6  7  2  0
  8  6  1  1
  8  9  1  0
  9 10  1  0
 10 11  1  0
 11 12  1  6
 11 13  1  0
 13 14  1  0
  3 15  2  0
 15 16  1  0
 16 17  1  0
 17 18  1  0
 16 19  2  0
 19 20  1  0
 20 21  2  3
 21 22  1  0
 22 23  1  0
 23 24  1  0
 24 25  2  0
 24 26  1  0
 26 27  1  0
 27 28  1  0
 20  2  1  0
 27 22  2  0
 14  8  1  0
M  CHG  4   8   1  23  -1  26  -1  28  -1
M  END
>  <UniqueID>  (3010) 
63

>  <SMILES>  (3010) 
C=c1c(OCC(=O)[NH+]2CCC(N)CC2)cc(CC)cc1=Cc1[n-]c(=O)[n-]c1[O-]

>  <Energy>  (3010) 
106.36868920411489

>  <Genealogy>  (3010) 
C=c1c(OCC(=O)[NH+]2CCC(N)CC2)cc(CC)cc1=Cc1[n-]c(=O)[n-]c1[O-] (protonated)
C=c1c(OCC(=O)[NH+]2CCC(N)CC2)cc(CC)cc1=Cc1[n-]c(=O)[n-]c1[O-] (3D coordinates assigned)
C=c1c(OCC(=O)[NH+]2CCC(N)CC2)cc(CC)cc1=Cc1[n-]c(=O)[n-]c1[O-] (nonaromatic ring conformer: 106.36868920411489 kcal/mol)

>  <smiles>  (3010) 
C=c1c(OCC(=O)N2CCC(N)CC2)cc(CC)cc1=Cc1[nH]c(=O)[nH]c1O

>  <score_type>  (3010) 
oracle

>  <origin>  (3010) 
adg

>  <m_score__min__energy>  (3010) 
-14.92

>  <m_primary>  (3010) 
energy

$$$$
65:0
     RDKit          3D

 33 36  0  0  0  0  0  0  0  0999 V2000
   57.5010   33.0730   46.6170 C   0  0  0  0  0  0  0  0  0  0  0  0
   58.1570   31.9230   46.4610 C   0  0  0  0  0  0  0  0  0  0  0  0
   57.5800   30.8110   45.9560 N   0  0  0  0  0  0  0  0  0  0  0  0
   58.5610   29.8970   45.8240 C   0  0  0  0  0  0  0  0  0  0  0  0
   58.4120   28.7130   45.1970 C   0  0  0  0  0  0  0  0  0  0  0  0
   57.5280   27.6210   45.6870 C   0  0  0  0  0  0  0  0  0  0  0  0
   56.1280   27.7230   45.6180 C   0  0  0  0  0  0  0  0  0  0  0  0
   55.5250   28.8860   45.1750 O   0  0  0  0  0  0  0  0  0  0  0  0
   55.3500   26.6500   45.9350 N   0  0  0  0  0  0  0  0  0  0  0  0
   55.9050   25.4780   46.3280 C   0  0  0  0  0  0  0  0  0  0  0  0
   55.1640   24.4860   46.5740 O   0  0  0  0  0  0  0  0  0  0  0  0
   57.2520   25.3440   46.3910 N   0  0  0  0  0  0  0  0  0  0  0  0
   58.0750   26.3970   46.1070 C   0  0  0  0  0  0  0  0  0  0  0  0
   59.3230   26.2420   46.2150 O   0  0  0  0  0  0  0  0  0  0  0  0
   59.7660   30.4030   46.3100 C   0  0  0  0  0  0  0  0  0  0  0  0
   61.1090   29.7300   46.3150 C   0  0  0  0  0  0  0  0  0  0  0  0
   59.5090   31.7140   46.6930 C   0  0  0  0  0  0  0  0  0  0  0  0
   60.5270   32.7750   46.7410 C   0  0  0  0  0  0  0  0  0  0  0  0
   60.5020   33.6490   45.8250 O   0  0  0  0  0  0  0  0  0  0  0  0
   61.4800   32.8430   47.8510 N   0  0  0  0  0  0  0  0  0  0  0  0
   61.2980   34.1500   48.5440 C   0  0  0  0  0  0  0  0  0  0  0  0
   62.5420   34.6250   49.3280 C   0  0  0  0  0  0  0  0  0  0  0  0
   63.4570   33.5320   49.6740 N   0  0  0  0  0  0  0  0  0  0  0  0
   63.0030   32.7040   50.8180 C   0  0  0  0  0  0  0  0  0  0  0  0
   62.7780   31.2840   50.2990 C   0  0  0  0  0  0  0  0  0  0  0  0
   61.3980   31.0530   49.8230 N   0  0  0  0  0  0  0  0  0  0  0  0
   61.1230   29.6170   49.5810 C   0  0  0  0  0  0  0  0  0  0  0  0
   59.6390   29.2670   49.8100 C   0  0  0  0  0  0  0  0  0  0  0  0
   58.8100   30.3510   49.4400 O   0  0  0  0  0  0  0  0  0  0  0  0
   59.0170   31.4830   50.2730 C   0  0  0  0  0  0  0  0  0  0  0  0
   60.4570   31.6030   50.8120 C   0  0  0  0  0  0  0  0  0  0  0  0
   63.9050   32.7380   48.5000 C   0  0  0  0  0  0  0  0  0  0  0  0
   62.8710   32.7230   47.3440 C   0  0  0  0  0  0  0  0  0  0  0  0
  1  2  2  0
  2  3  1  0
  3  4  1  0
  4  5  2  3
  5  6  1  0
  6  7  2  0
  7  8  1  0
  7  9  1  0
  9 10  1  0
 10 11  2  0
 10 12  1  0
 12 13  1  0
 13 14  2  0
  4 15  1  0
 15 16  1  0
 15 17  2  0
 17 18  1  0
 18 19  2  0
 18 20  1  0
 20 21  1  0
 21 22  1  0
 22 23  1  0
 23 24  1  0
 24 25  1  0
 25 26  1  0
 26 27  1  0
 27 28  1  0
 28 29  1  0
 29 30  1  0
 30 31  1  0
 23 32  1  0
 32 33  1  0
 17  2  1  0
 33 20  1  0
 13  6  1  0
 31 26  1  0
M  CHG  4   8  -1   9  -1  12  -1  20   1
M  END
>  <UniqueID>  (3011) 
64

>  <SMILES>  (3011) 
C=c1[nH]c(=Cc2c([O-])[n-]c(=O)[n-]c2=O)c(C)c1C(=O)[NH+]1CCN(CCN2CCOCC2)CC1

>  <Energy>  (3011) 
142.30127433249964

>  <Genealogy>  (3011) 
C=c1[nH]c(=Cc2c([O-])[n-]c(=O)[n-]c2=O)c(C)c1C(=O)[NH+]1CCN(CCN2CCOCC2)CC1 (protonated)
C=c1[nH]c(=Cc2c([O-])[n-]c(=O)[n-]c2=O)c(C)c1C(=O)[NH+]1CCN(CCN2CCOCC2)CC1 (3D coordinates assigned)
C=c1[nH]c(=Cc2c([O-])[n-]c(=O)[n-]c2=O)c(C)c1C(=O)[NH+]1CCN(CCN2CCOCC2)CC1 (nonaromatic ring conformer: 142.30127433249964 kcal/mol)

>  <smiles>  (3011) 
C=c1[nH]c(=Cc2c(O)[nH]c(=O)[nH]c2=O)c(C)c1C(=O)N1CCN(CCN2CCOCC2)CC1

>  <score_type>  (3011) 
oracle

>  <origin>  (3011) 
adg

>  <m_score__min__energy>  (3011) 
-15.41

>  <m_primary>  (3011) 
energy

$$$$
79:0
     RDKit          3D

 34 37  0  0  0  0  0  0  0  0999 V2000
   57.6700   24.2490   45.9640 O   0  0  0  0  0  0  0  0  0  0  0  0
   56.4100   24.8280   45.8560 C   0  0  0  0  0  0  0  0  0  0  0  0
   55.2850   24.1400   45.5940 N   0  0  0  0  0  0  0  0  0  0  0  0
   54.3380   25.1040   45.6460 C   0  0  0  0  0  0  0  0  0  0  0  0
   53.1170   24.8630   45.4600 O   0  0  0  0  0  0  0  0  0  0  0  0
   54.8000   26.3430   45.9300 N   0  0  0  0  0  0  0  0  0  0  0  0
   56.1300   26.1630   46.0200 C   0  0  0  0  0  0  0  0  0  0  0  0
   57.0490   27.1410   46.6100 C   0  0  0  0  0  0  0  0  0  0  0  0
   58.1860   27.6520   46.0580 C   0  0  0  0  0  0  0  0  0  0  0  0
   58.1690   28.6230   44.9920 C   0  0  0  0  0  0  0  0  0  0  0  0
   56.6990   29.4300   44.2980 S   0  0  0  0  0  0  0  0  0  0  0  0
   57.3080   31.1280   44.3330 C   0  0  0  0  0  0  0  0  0  0  0  0
   57.7780   31.7770   43.1790 C   0  0  0  0  0  0  0  0  0  0  0  0
   58.2690   33.0840   43.2610 C   0  0  0  0  0  0  0  0  0  0  0  0
   58.3120   33.7420   44.4940 C   0  0  0  0  0  0  0  0  0  0  0  0
   57.8690   33.0910   45.6550 C   0  0  0  0  0  0  0  0  0  0  0  0
   57.9730   33.7100   46.9440 N   0  0  0  0  0  0  0  0  0  0  0  0
   59.1490   33.7620   47.7620 C   0  0  0  0  0  0  0  0  0  0  0  0
   59.9920   34.6740   47.5420 O   0  0  0  0  0  0  0  0  0  0  0  0
   59.4870   32.6510   48.7320 C   0  0  0  0  0  0  0  0  0  0  0  0
   60.6320   33.0130   49.6920 C   0  0  0  0  0  0  0  0  0  0  0  0
   61.7020   31.9860   49.6630 N   0  0  0  0  0  0  0  0  0  0  0  0
   63.0550   32.5450   49.8940 C   0  0  0  0  0  0  0  0  0  0  0  0
   63.7240   33.0800   48.6070 C   0  0  0  0  0  0  0  0  0  0  0  0
   62.7420   33.2140   47.5180 N   0  0  0  0  0  0  0  0  0  0  0  0
   63.3700   33.8120   46.3290 C   0  0  0  0  0  0  0  0  0  0  0  0
   62.1660   31.8970   47.1840 C   0  0  0  0  0  0  0  0  0  0  0  0
   61.6710   31.1480   48.4460 C   0  0  0  0  0  0  0  0  0  0  0  0
   57.4090   31.7740   45.5720 C   0  0  0  0  0  0  0  0  0  0  0  0
   59.3700   29.1850   44.5350 C   0  0  0  0  0  0  0  0  0  0  0  0
   60.5930   28.8140   45.0690 C   0  0  0  0  0  0  0  0  0  0  0  0
   60.6500   27.8740   46.0840 C   0  0  0  0  0  0  0  0  0  0  0  0
   59.4800   27.2640   46.5840 C   0  0  0  0  0  0  0  0  0  0  0  0
   59.6670   26.3050   47.5180 C   0  0  0  0  0  0  0  0  0  0  0  0
  1  2  1  0
  2  3  1  0
  3  4  1  0
  4  5  2  0
  4  6  1  0
  6  7  1  0
  7  8  1  0
  8  9  2  0
  9 10  1  0
 10 11  1  0
 11 12  1  0
 12 13  2  0
 13 14  1  0
 14 15  2  0
 15 16  1  0
 16 17  1  0
 17 18  1  0
 18 19  2  0
 18 20  1  0
 20 21  1  0
 21 22  1  0
 22 23  1  0
 23 24  1  0
 24 25  1  0
 25 26  1  0
 25 27  1  0
 27 28  1  0
 16 29  2  0
 10 30  2  0
 30 31  1  0
 31 32  2  0
 32 33  1  0
 33 34  2  0
  7  2  2  0
 33  9  1  0
 29 12  1  0
 28 22  1  0
M  CHG  3   3  -1   6  -1  17  -1
M  END
>  <UniqueID>  (3012) 
77

>  <SMILES>  (3012) 
C=c1cccc(Sc2cccc([N-]C(=O)CCN3CCN(C)CC3)c2)/c1=C\c1[n-]c(=O)[n-]c1O

>  <Energy>  (3012) 
137.60948083440607

>  <Genealogy>  (3012) 
C=c1cccc(Sc2cccc([N-]C(=O)CCN3CCN(C)CC3)c2)c1=Cc1[n-]c(=O)[n-]c1O (protonated)
C=c1cccc(Sc2cccc([N-]C(=O)CCN3CCN(C)CC3)c2)/c1=C\c1[n-]c(=O)[n-]c1O (cis-trans isomerization)
C=c1cccc(Sc2cccc([N-]C(=O)CCN3CCN(C)CC3)c2)/c1=C\c1[n-]c(=O)[n-]c1O (3D coordinates assigned)
C=c1cccc(Sc2cccc([N-]C(=O)CCN3CCN(C)CC3)c2)/c1=C\c1[n-]c(=O)[n-]c1O (nonaromatic ring conformer: 137.60948083440607 kcal/mol)

>  <smiles>  (3012) 
C=c1cccc(Sc2cccc(NC(=O)CCN3CCN(C)CC3)c2)c1=Cc1[nH]c(=O)[nH]c1O

>  <score_type>  (3012) 
oracle

>  <origin>  (3012) 
adg

>  <m_score__min__energy>  (3012) 
-16.129999999999999

>  <m_primary>  (3012) 
energy

$$$$
7:0
     RDKit          3D

 27 29  0  0  0  0  0  0  0  0999 V2000
   58.6490   25.1820   45.9850 C   0  0  0  0  0  0  0  0  0  0  0  0
   58.4310   26.5170   45.8390 N   0  0  0  0  0  0  0  0  0  0  0  0
   57.1760   27.0500   45.8480 C   0  0  0  0  0  0  0  0  0  0  0  0
   56.9840   28.3310   45.7070 N   0  0  0  0  0  0  0  0  0  0  0  0
   57.7950   29.3980   46.2260 C   0  0  0  0  0  0  0  0  0  0  0  0
   58.5070   29.2150   47.2530 O   0  0  0  0  0  0  0  0  0  0  0  0
   57.8230   30.7210   45.5450 C   0  0  0  0  0  0  0  0  0  0  0  0
   57.6700   30.7740   44.1450 C   0  0  0  0  0  0  0  0  0  0  0  0
   57.6630   31.9960   43.4720 C   0  0  0  0  0  0  0  0  0  0  0  0
   57.4450   32.0410   41.5740 Br  0  0  0  0  0  0  0  0  0  0  0  0
   57.8100   33.1850   44.1830 C   0  0  0  0  0  0  0  0  0  0  0  0
   57.9720   33.1570   45.5680 C   0  0  0  0  0  0  0  0  0  0  0  0
   57.9860   31.9310   46.2650 C   0  0  0  0  0  0  0  0  0  0  0  0
   58.1740   31.8880   47.6580 O   0  0  0  0  0  0  0  0  0  0  0  0
   58.9040   32.8420   48.4290 C   0  0  0  0  0  0  0  0  0  0  0  0
   60.3000   32.9260   47.9670 N   0  0  0  0  0  0  0  0  0  0  0  0
   61.1300   31.8600   48.1810 C   0  0  0  0  0  0  0  0  0  0  0  0
   62.4530   31.8910   47.7440 C   0  0  0  0  0  0  0  0  0  0  0  0
   62.9040   33.0230   47.0730 C   0  0  0  0  0  0  0  0  0  0  0  0
   64.0940   33.0870   46.6650 O   0  0  0  0  0  0  0  0  0  0  0  0
   62.0560   34.0570   46.8520 N   0  0  0  0  0  0  0  0  0  0  0  0
   60.7680   34.0200   47.2820 C   0  0  0  0  0  0  0  0  0  0  0  0
   60.0160   35.0020   47.0380 O   0  0  0  0  0  0  0  0  0  0  0  0
   56.0690   26.2020   46.0110 C   0  0  0  0  0  0  0  0  0  0  0  0
   54.7760   26.7150   46.0260 O   0  0  0  0  0  0  0  0  0  0  0  0
   56.2730   24.8270   46.1620 C   0  0  0  0  0  0  0  0  0  0  0  0
   57.5690   24.3120   46.1480 C   0  0  0  0  0  0  0  0  0  0  0  0
  1  2  1  0
  2  3  1  0
  3  4  2  0
  4  5  1  0
  5  6  2  0
  5  7  1  0
  7  8  2  0
  8  9  1  0
  9 10  1  0
  9 11  2  0
 11 12  1  0
 12 13  2  0
 13 14  1  0
 14 15  1  0
 15 16  1  0
 16 17  1  0
 17 18  2  0
 18 19  1  0
 19 20  2  0
 19 21  1  0
 21 22  1  0
 22 23  2  0
  3 24  1  0
 24 25  1  0
 24 26  2  0
 26 27  1  0
 27  1  2  0
 13  7  1  0
 22 16  1  0
M  CHG  3   2  -1  21  -1  25  -1
M  END
>  <UniqueID>  (3013) 
8

>  <SMILES>  (3013) 
O=C(/N=c1\[n-]cccc1[O-])c1cc(Br)ccc1OCn1ccc(=O)[n-]c1=O

>  <Energy>  (3013) 
49.171874840905055

>  <Genealogy>  (3013) 
O=C(N=c1[n-]cccc1[O-])c1cc(Br)ccc1OCn1ccc(=O)[n-]c1=O (protonated)
O=C(/N=c1\[n-]cccc1[O-])c1cc(Br)ccc1OCn1ccc(=O)[n-]c1=O (cis-trans isomerization)
O=C(/N=c1\[n-]cccc1[O-])c1cc(Br)ccc1OCn1ccc(=O)[n-]c1=O (3D coordinates assigned)
O=C(/N=c1\[n-]cccc1[O-])c1cc(Br)ccc1OCn1ccc(=O)[n-]c1=O (optimized conformer: 49.171874840905055 kcal/mol)

>  <smiles>  (3013) 
O=C(N=c1[nH]cccc1O)c1cc(Br)ccc1OCn1ccc(=O)[nH]c1=O

>  <score_type>  (3013) 
oracle

>  <origin>  (3013) 
adg

>  <m_score__min__energy>  (3013) 
-14.59

>  <m_primary>  (3013) 
energy

$$$$
16:0
     RDKit          3D

 30 33  0  0  0  0  0  0  0  0999 V2000
   53.6300   28.6790   53.1660 C   0  0  0  0  0  0  0  0  0  0  0  0
   54.5710   29.4640   52.6060 C   0  0  0  0  0  0  0  0  0  0  0  0
   54.3530   30.5560   51.7480 C   0  0  0  0  0  0  0  0  0  0  0  0
   53.2420   30.9720   51.1110 C   0  0  0  0  0  0  0  0  0  0  0  0
   52.0480   31.5380   51.7540 C   0  0  0  0  0  0  0  0  0  0  0  0
   51.7940   31.4420   53.0710 N   0  0  0  0  0  0  0  0  0  0  0  0
   50.6610   32.1620   53.2230 C   0  0  0  0  0  0  0  0  0  0  0  0
   50.0890   32.2980   54.3350 O   0  0  0  0  0  0  0  0  0  0  0  0
   50.1930   32.7320   52.0880 N   0  0  0  0  0  0  0  0  0  0  0  0
   51.0890   32.3370   51.1700 C   0  0  0  0  0  0  0  0  0  0  0  0
   51.0420   32.7150   49.8330 O   0  0  0  0  0  0  0  0  0  0  0  0
   55.5690   31.2090   51.6380 C   0  0  0  0  0  0  0  0  0  0  0  0
   56.4940   30.4700   52.3510 C   0  0  0  0  0  0  0  0  0  0  0  0
   57.9270   30.9050   52.5400 C   0  0  0  0  0  0  0  0  0  0  0  0
   58.8480   30.0850   51.6720 C   0  0  0  0  0  0  0  0  0  0  0  0
   59.3420   29.0620   52.1290 O   0  0  0  0  0  0  0  0  0  0  0  0
   59.1360   30.4960   50.3100 N   0  0  1  0  0  0  0  0  0  0  0  0
   60.3680   31.3190   50.2670 C   0  0  0  0  0  0  0  0  0  0  0  0
   61.0350   31.3800   48.8680 C   0  0  0  0  0  0  0  0  0  0  0  0
   60.1360   30.9700   47.6720 C   0  0  2  0  0  0  0  0  0  0  0  0
   59.3500   32.1250   47.0600 C   0  0  0  0  0  0  0  0  0  0  0  0
   59.6040   33.4750   47.3840 C   0  0  0  0  0  0  0  0  0  0  0  0
   58.8250   34.4980   46.8300 C   0  0  0  0  0  0  0  0  0  0  0  0
   57.7700   34.1890   45.9700 C   0  0  0  0  0  0  0  0  0  0  0  0
   57.4880   32.8540   45.6600 C   0  0  0  0  0  0  0  0  0  0  0  0
   58.2690   31.8280   46.2040 C   0  0  0  0  0  0  0  0  0  0  0  0
   59.2220   29.7510   47.9600 C   0  0  0  0  0  0  0  0  0  0  0  0
   59.2350   29.3170   49.4320 C   0  0  0  0  0  0  0  0  0  0  0  0
   55.8910   29.3940   52.9260 N   0  0  0  0  0  0  0  0  0  0  0  0
   56.5130   28.3780   53.7920 C   0  0  0  0  0  0  0  0  0  0  0  0
  1  2  2  0
  2  3  1  0
  3  4  2  3
  4  5  1  0
  5  6  1  0
  6  7  1  0
  7  8  2  0
  7  9  1  0
  9 10  1  0
 10 11  1  0
  3 12  1  0
 12 13  2  0
 13 14  1  0
 14 15  1  0
 15 16  2  0
 17 15  1  1
 17 18  1  0
 18 19  1  0
 19 20  1  0
 20 21  1  1
 21 22  2  0
 22 23  1  0
 23 24  2  0
 24 25  1  0
 25 26  2  0
 20 27  1  0
 27 28  1  0
 13 29  1  0
 29 30  1  0
 29  2  1  0
 10  5  2  0
 28 17  1  0
 26 21  1  0
M  CHG  4   6  -1   9  -1  11  -1  17   1
M  END
>  <UniqueID>  (3014) 
15

>  <SMILES>  (3014) 
C=c1c(=Cc2[n-]c(=O)[n-]c2[O-])cc(CC(=O)[NH+]2CCC(c3ccccc3)CC2)n1C

>  <Energy>  (3014) 
138.525786174303

>  <Genealogy>  (3014) 
C=c1c(=Cc2[n-]c(=O)[n-]c2[O-])cc(CC(=O)[NH+]2CCC(c3ccccc3)CC2)n1C (protonated)
C=c1c(=Cc2[n-]c(=O)[n-]c2[O-])cc(CC(=O)[NH+]2CCC(c3ccccc3)CC2)n1C (3D coordinates assigned)
C=c1c(=Cc2[n-]c(=O)[n-]c2[O-])cc(CC(=O)[NH+]2CCC(c3ccccc3)CC2)n1C (nonaromatic ring conformer: 138.525786174303 kcal/mol)

>  <smiles>  (3014) 
C=c1c(=Cc2[nH]c(=O)[nH]c2O)cc(CC(=O)N2CCC(c3ccccc3)CC2)n1C

>  <score_type>  (3014) 
oracle

>  <origin>  (3014) 
adg

>  <m_score__min__energy>  (3014) 
-18.120000000000001

>  <m_primary>  (3014) 
energy

$$$$
18:0
     RDKit          3D

 25 27  0  0  0  0  0  0  0  0999 V2000
   61.1310   34.1550   49.1170 C   0  0  0  0  0  0  0  0  0  0  0  0
   59.6580   33.8770   49.4090 C   0  0  0  0  0  0  0  0  0  0  0  0
   59.0430   32.8930   48.4950 N   0  0  0  0  0  0  0  0  0  0  0  0
   59.4150   31.4790   48.6990 C   0  0  0  0  0  0  0  0  0  0  0  0
   60.4580   30.9770   47.6890 C   0  0  0  0  0  0  0  0  0  0  0  0
   60.1320   31.3290   46.2990 N   0  0  0  0  0  0  0  0  0  0  0  0
   58.8690   30.3370   45.6020 S   0  0  0  0  0  0  0  0  0  0  0  0
   57.5880   30.4960   46.3740 O   0  0  0  0  0  0  0  0  0  0  0  0
   58.5930   30.7740   44.1900 O   0  0  0  0  0  0  0  0  0  0  0  0
   59.3270   28.6160   45.6050 C   0  0  0  0  0  0  0  0  0  0  0  0
   60.7060   28.3490   45.6090 C   0  0  0  0  0  0  0  0  0  0  0  0
   61.1940   27.0900   45.9430 C   0  0  0  0  0  0  0  0  0  0  0  0
   60.3180   26.0830   46.3280 C   0  0  0  0  0  0  0  0  0  0  0  0
   58.9330   26.3000   46.2970 C   0  0  0  0  0  0  0  0  0  0  0  0
   58.0750   25.2840   46.7340 C   0  0  0  0  0  0  0  0  0  0  0  0
   56.6980   25.4610   46.6950 C   0  0  0  0  0  0  0  0  0  0  0  0
   56.1550   26.6120   46.1290 C   0  0  0  0  0  0  0  0  0  0  0  0
   54.7720   26.7070   46.0070 O   0  0  0  0  0  0  0  0  0  0  0  0
   56.9920   27.6380   45.6480 C   0  0  0  0  0  0  0  0  0  0  0  0
   56.3770   28.6340   44.7510 C   0  0  0  0  0  0  0  0  0  0  0  0
   56.8910   28.8670   43.6260 O   0  0  0  0  0  0  0  0  0  0  0  0
   55.1820   29.2520   45.1000 O   0  0  0  0  0  0  0  0  0  0  0  0
   58.4060   27.5420   45.8340 C   0  0  0  0  0  0  0  0  0  0  0  0
   59.8970   32.7700   46.1310 C   0  0  0  0  0  0  0  0  0  0  0  0
   58.8390   33.3250   47.0990 C   0  0  0  0  0  0  0  0  0  0  0  0
  1  2  1  0
  2  3  1  0
  3  4  1  0
  4  5  1  0
  5  6  1  0
  6  7  1  0
  7  8  2  0
  7  9  2  0
  7 10  1  0
 10 11  2  0
 11 12  1  0
 12 13  2  0
 13 14  1  0
 14 15  2  0
 15 16  1  0
 16 17  2  0
 17 18  1  0
 17 19  1  0
 19 20  1  0
 20 21  2  0
 20 22  1  0
 19 23  2  0
  6 24  1  0
 24 25  1  0
 25  3  1  0
 23 10  1  0
 23 14  1  0
M  CHG  2  18  -1  22  -1
M  END
>  <UniqueID>  (3015) 
17

>  <SMILES>  (3015) 
CCN1CCN(S(=O)(=O)c2cccc3ccc([O-])c(C(=O)[O-])c23)CC1

>  <Energy>  (3015) 
80.33168862546415

>  <Genealogy>  (3015) 
CCN1CCN(S(=O)(=O)c2cccc3ccc([O-])c(C(=O)[O-])c23)CC1 (protonated)
CCN1CCN(S(=O)(=O)c2cccc3ccc([O-])c(C(=O)[O-])c23)CC1 (3D coordinates assigned)
CCN1CCN(S(=O)(=O)c2cccc3ccc([O-])c(C(=O)[O-])c23)CC1 (nonaromatic ring conformer: 80.33168862546415 kcal/mol)

>  <smiles>  (3015) 
CCN1CCN(S(=O)(=O)c2cccc3ccc(O)c(C(=O)O)c23)CC1

>  <score_type>  (3015) 
oracle

>  <origin>  (3015) 
adg

>  <m_score__min__energy>  (3015) 
-14.199999999999999

>  <m_primary>  (3015) 
energy

$$$$
21:0
     RDKit          3D

 27 29  0  0  0  0  0  0  0  0999 V2000
   53.3000   28.8820   52.3210 O   0  0  0  0  0  0  0  0  0  0  0  0
   53.9410   29.9640   52.4170 C   0  0  0  0  0  0  0  0  0  0  0  0
   53.2330   31.2880   52.2630 C   0  0  0  0  0  0  0  0  0  0  0  0
   52.2810   31.2980   51.1050 C   0  0  0  0  0  0  0  0  0  0  0  0
   52.2920   30.3920   50.1090 N   0  0  0  0  0  0  0  0  0  0  0  0
   51.3180   30.8300   49.2810 C   0  0  0  0  0  0  0  0  0  0  0  0
   51.0140   30.2320   48.2160 O   0  0  0  0  0  0  0  0  0  0  0  0
   50.6980   31.9620   49.6830 N   0  0  0  0  0  0  0  0  0  0  0  0
   51.3240   32.2470   50.8350 C   0  0  0  0  0  0  0  0  0  0  0  0
   51.0310   33.3540   51.6210 O   0  0  0  0  0  0  0  0  0  0  0  0
   55.3440   29.9080   52.6980 N   0  0  0  0  0  0  0  0  0  0  0  0
   56.3720   30.4900   51.8450 C   0  0  0  0  0  0  0  0  0  0  0  0
   57.1580   31.4990   52.6310 C   0  0  0  0  0  0  0  0  0  0  0  0
   56.9340   31.6040   53.8680 O   0  0  0  0  0  0  0  0  0  0  0  0
   58.1770   32.3140   52.0090 N   0  0  0  0  0  0  0  0  0  0  0  0
   59.1190   33.0810   52.8440 C   0  0  0  0  0  0  0  0  0  0  0  0
   60.5350   33.0060   52.2570 C   0  0  0  0  0  0  0  0  0  0  0  0
   60.5300   33.2090   50.8010 N   0  0  0  0  0  0  0  0  0  0  0  0
   61.7410   33.0060   50.0550 C   0  0  0  0  0  0  0  0  0  0  0  0
   62.7030   32.0920   50.5150 C   0  0  0  0  0  0  0  0  0  0  0  0
   63.8890   31.8960   49.8010 C   0  0  0  0  0  0  0  0  0  0  0  0
   64.1230   32.6110   48.6240 C   0  0  0  0  0  0  0  0  0  0  0  0
   63.1690   33.5190   48.1560 C   0  0  0  0  0  0  0  0  0  0  0  0
   61.9810   33.7190   48.8660 C   0  0  0  0  0  0  0  0  0  0  0  0
   61.0530   34.5800   48.3780 F   0  0  0  0  0  0  0  0  0  0  0  0
   59.2700   33.4810   50.1020 C   0  0  0  0  0  0  0  0  0  0  0  0
   58.2070   32.4700   50.5430 C   0  0  0  0  0  0  0  0  0  0  0  0
  1  2  2  0
  2  3  1  0
  3  4  1  0
  4  5  1  0
  5  6  1  0
  6  7  2  0
  6  8  1  0
  8  9  1  0
  9 10  1  0
  2 11  1  0
 11 12  1  0
 12 13  1  0
 13 14  2  0
 13 15  1  0
 15 16  1  0
 16 17  1  0
 17 18  1  0
 18 19  1  0
 19 20  2  0
 20 21  1  0
 21 22  2  0
 22 23  1  0
 23 24  2  0
 24 25  1  0
 18 26  1  0
 26 27  1  0
  9  4  2  0
 27 15  1  0
 24 19  1  0
M  CHG  4   5  -1   8  -1  10  -1  11  -1
M  END
>  <UniqueID>  (3016) 
20

>  <SMILES>  (3016) 
O=C(Cc1[n-]c(=O)[n-]c1[O-])[N-]CC(=O)N1CCN(c2ccccc2F)CC1

>  <Energy>  (3016) 
76.00390779179479

>  <Genealogy>  (3016) 
O=C(Cc1[n-]c(=O)[n-]c1[O-])[N-]CC(=O)N1CCN(c2ccccc2F)CC1 (protonated)
O=C(Cc1[n-]c(=O)[n-]c1[O-])[N-]CC(=O)N1CCN(c2ccccc2F)CC1 (3D coordinates assigned)
O=C(Cc1[n-]c(=O)[n-]c1[O-])[N-]CC(=O)N1CCN(c2ccccc2F)CC1 (nonaromatic ring conformer: 76.00390779179479 kcal/mol)

>  <smiles>  (3016) 
O=C(Cc1[nH]c(=O)[nH]c1O)NCC(=O)N1CCN(c2ccccc2F)CC1

>  <score_type>  (3016) 
oracle

>  <origin>  (3016) 
adg

>  <m_score__min__energy>  (3016) 
-19.079999999999998

>  <m_primary>  (3016) 
energy

$$$$
23:0
     RDKit          3D

 26 28  0  0  0  0  0  0  0  0999 V2000
   53.8460   28.6920   54.1310 C   0  0  0  0  0  0  0  0  0  0  0  0
   54.7200   29.4590   53.4480 C   0  0  0  0  0  0  0  0  0  0  0  0
   56.0880   29.1480   53.5890 C   0  0  0  0  0  0  0  0  0  0  0  0
   57.0640   29.8470   52.8880 C   0  0  0  0  0  0  0  0  0  0  0  0
   56.7070   30.8930   52.0390 C   0  0  0  0  0  0  0  0  0  0  0  0
   57.7580   31.6290   51.3040 C   0  0  0  0  0  0  0  0  0  0  0  0
   58.1560   31.3540   50.0080 C   0  0  0  0  0  0  0  0  0  0  0  0
   59.1340   32.2730   49.6940 C   0  0  0  0  0  0  0  0  0  0  0  0
   59.3580   33.0880   50.7420 N   0  0  0  0  0  0  0  0  0  0  0  0
   58.5320   32.7040   51.7340 C   0  0  0  0  0  0  0  0  0  0  0  0
   58.5600   33.3080   53.0790 C   0  0  0  0  0  0  0  0  0  0  0  0
   59.1630   34.4020   53.2560 O   0  0  0  0  0  0  0  0  0  0  0  0
   57.9490   32.6570   54.1570 O   0  0  0  0  0  0  0  0  0  0  0  0
   58.6630   32.0240   55.2170 C   0  0  0  0  0  0  0  0  0  0  0  0
   59.7690   31.1600   54.6110 C   0  0  0  0  0  0  0  0  0  0  0  0
   57.7170   31.1630   56.0600 C   0  0  0  0  0  0  0  0  0  0  0  0
   55.3560   31.2150   51.8690 C   0  0  0  0  0  0  0  0  0  0  0  0
   54.3320   30.5270   52.5680 C   0  0  0  0  0  0  0  0  0  0  0  0
   53.0370   30.9240   52.4380 C   0  0  0  0  0  0  0  0  0  0  0  0
   52.2960   31.0310   51.1620 C   0  0  0  0  0  0  0  0  0  0  0  0
   51.3680   31.9970   50.8450 C   0  0  0  0  0  0  0  0  0  0  0  0
   51.0460   33.0990   51.6270 O   0  0  0  0  0  0  0  0  0  0  0  0
   50.8000   31.7340   49.6520 N   0  0  0  0  0  0  0  0  0  0  0  0
   51.3970   30.5800   49.2850 C   0  0  0  0  0  0  0  0  0  0  0  0
   51.1260   29.9810   48.2110 O   0  0  0  0  0  0  0  0  0  0  0  0
   52.2970   30.1170   50.1750 N   0  0  0  0  0  0  0  0  0  0  0  0
  1  2  2  0
  2  3  1  0
  3  4  2  0
  4  5  1  0
  5  6  1  0
  6  7  1  0
  7  8  2  0
  8  9  1  0
  9 10  1  0
 10 11  1  0
 11 12  2  0
 11 13  1  0
 13 14  1  0
 14 15  1  0
 14 16  1  0
  5 17  2  0
 17 18  1  0
 18 19  2  0
 19 20  1  0
 20 21  2  0
 21 22  1  0
 21 23  1  0
 23 24  1  0
 24 25  2  0
 24 26  1  0
 18  2  1  0
 26 20  1  0
 10  6  2  0
M  CHG  2  22  -1  23  -1
M  END
>  <UniqueID>  (3017) 
22

>  <SMILES>  (3017) 
C=c1ccc(-c2cc[nH]c2C(=O)OC(C)C)c/c1=C\c1[nH]c(=O)[n-]c1[O-]

>  <Energy>  (3017) 
113.54576280709307

>  <Genealogy>  (3017) 
C=c1ccc(-c2cc[nH]c2C(=O)OC(C)C)cc1=Cc1[nH]c(=O)[n-]c1[O-] (protonated)
C=c1ccc(-c2cc[nH]c2C(=O)OC(C)C)c/c1=C\c1[nH]c(=O)[n-]c1[O-] (cis-trans isomerization)
C=c1ccc(-c2cc[nH]c2C(=O)OC(C)C)c/c1=C\c1[nH]c(=O)[n-]c1[O-] (3D coordinates assigned)
C=c1ccc(-c2cc[nH]c2C(=O)OC(C)C)c/c1=C\c1[nH]c(=O)[n-]c1[O-] (optimized conformer: 113.54576280709307 kcal/mol)

>  <smiles>  (3017) 
C=c1ccc(-c2cc[nH]c2C(=O)OC(C)C)cc1=Cc1[nH]c(=O)[nH]c1O

>  <score_type>  (3017) 
oracle

>  <origin>  (3017) 
adg

>  <m_score__min__energy>  (3017) 
-14.199999999999999

>  <m_primary>  (3017) 
energy

$$$$
33:0
     RDKit          3D

 31 34  0  0  0  0  0  0  0  0999 V2000
   58.1490   26.8650   44.1660 C   0  0  0  0  0  0  0  0  0  0  0  0
   58.5700   27.3010   45.3700 C   0  0  0  0  0  0  0  0  0  0  0  0
   59.3380   28.4820   45.3890 C   0  0  0  0  0  0  0  0  0  0  0  0
   59.7660   29.0460   46.5870 C   0  0  0  0  0  0  0  0  0  0  0  0
   59.4460   28.4440   47.8040 C   0  0  0  0  0  0  0  0  0  0  0  0
   59.9690   29.0220   49.0960 C   0  0  0  0  0  0  0  0  0  0  0  0
   59.1240   30.2130   49.5720 C   0  0  0  0  0  0  0  0  0  0  0  0
   59.4390   31.4630   48.7980 C   0  0  0  0  0  0  0  0  0  0  0  0
   60.5460   32.1870   49.1160 N   0  0  0  0  0  0  0  0  0  0  0  0
   60.9090   33.2890   48.4090 C   0  0  0  0  0  0  0  0  0  0  0  0
   60.1500   33.6990   47.3120 C   0  0  0  0  0  0  0  0  0  0  0  0
   59.0150   32.9630   46.9410 C   0  0  0  0  0  0  0  0  0  0  0  0
   58.1960   33.3680   45.7750 C   0  0  0  0  0  0  0  0  0  0  0  0
   57.7230   34.5370   45.7380 O   0  0  0  0  0  0  0  0  0  0  0  0
   57.9310   32.4620   44.6870 N   0  0  0  0  0  0  0  0  0  0  0  0
   57.7500   31.0230   44.9280 C   0  0  0  0  0  0  0  0  0  0  0  0
   56.5540   30.5050   44.1240 C   0  0  0  0  0  0  0  0  0  0  0  0
   56.6710   30.8150   42.6160 C   0  0  0  0  0  0  0  0  0  0  0  0
   57.7130   31.8980   42.2820 C   0  0  0  0  0  0  0  0  0  0  0  0
   57.7380   33.0110   43.3360 C   0  0  0  0  0  0  0  0  0  0  0  0
   58.6490   31.8440   47.7030 C   0  0  0  0  0  0  0  0  0  0  0  0
   58.7090   27.2540   47.8120 C   0  0  0  0  0  0  0  0  0  0  0  0
   58.2490   26.6540   46.6130 C   0  0  0  0  0  0  0  0  0  0  0  0
   57.5800   25.4700   46.6650 C   0  0  0  0  0  0  0  0  0  0  0  0
   56.1430   25.2890   46.3820 C   0  0  0  0  0  0  0  0  0  0  0  0
   55.5240   24.0960   46.4260 N   0  0  0  0  0  0  0  0  0  0  0  0
   54.2720   24.3750   46.0020 C   0  0  0  0  0  0  0  0  0  0  0  0
   53.3740   23.4970   45.9190 O   0  0  0  0  0  0  0  0  0  0  0  0
   54.0630   25.6650   45.6650 N   0  0  0  0  0  0  0  0  0  0  0  0
   55.2580   26.2280   45.8970 C   0  0  0  0  0  0  0  0  0  0  0  0
   55.5440   27.5630   45.6380 O   0  0  0  0  0  0  0  0  0  0  0  0
  1  2  2  0
  2  3  1  0
  3  4  2  0
  4  5  1  0
  5  6  1  0
  6  7  1  0
  7  8  1  0
  8  9  2  0
  9 10  1  0
 10 11  2  0
 11 12  1  0
 12 13  1  0
 13 14  2  0
 13 15  1  0
 15 16  1  0
 16 17  1  0
 17 18  1  0
 18 19  1  0
 19 20  1  0
 12 21  2  0
  5 22  2  0
 22 23  1  0
 23 24  2  0
 24 25  1  0
 25 26  1  0
 26 27  1  0
 27 28  2  0
 27 29  1  0
 29 30  1  0
 30 31  1  0
 23  2  1  0
 30 25  2  0
 21  8  1  0
 20 15  1  0
M  CHG  3  26  -1  29  -1  31  -1
M  END
>  <UniqueID>  (3018) 
31

>  <SMILES>  (3018) 
C=c1ccc(CCc2cc(C(=O)N3CCCCC3)ccn2)c/c1=C\c1[n-]c(=O)[n-]c1[O-]

>  <Energy>  (3018) 
104.95537751111405

>  <Genealogy>  (3018) 
C=c1ccc(CCc2cc(C(=O)N3CCCCC3)ccn2)cc1=Cc1[n-]c(=O)[n-]c1[O-] (protonated)
C=c1ccc(CCc2cc(C(=O)N3CCCCC3)ccn2)c/c1=C\c1[n-]c(=O)[n-]c1[O-] (cis-trans isomerization)
C=c1ccc(CCc2cc(C(=O)N3CCCCC3)ccn2)c/c1=C\c1[n-]c(=O)[n-]c1[O-] (3D coordinates assigned)
C=c1ccc(CCc2cc(C(=O)N3CCCCC3)ccn2)c/c1=C\c1[n-]c(=O)[n-]c1[O-] (nonaromatic ring conformer: 104.95537751111405 kcal/mol)

>  <smiles>  (3018) 
C=c1ccc(CCc2cc(C(=O)N3CCCCC3)ccn2)cc1=Cc1[nH]c(=O)[nH]c1O

>  <score_type>  (3018) 
oracle

>  <origin>  (3018) 
adg

>  <m_score__min__energy>  (3018) 
-19.16

>  <m_primary>  (3018) 
energy

$$$$
46:0
     RDKit          3D

 28 30  0  0  0  0  0  0  0  0999 V2000
   60.9490   29.3470   45.6070 C   0  0  0  0  0  0  0  0  0  0  0  0
   60.4000   30.2720   46.6260 C   0  0  0  0  0  0  0  0  0  0  0  0
   59.4990   31.0760   46.2650 O   0  0  0  0  0  0  0  0  0  0  0  0
   60.8900   30.3320   48.0290 C   0  0  0  0  0  0  0  0  0  0  0  0
   60.3880   29.4470   48.9920 C   0  0  0  0  0  0  0  0  0  0  0  0
   59.3940   28.5290   48.6690 O   0  0  0  0  0  0  0  0  0  0  0  0
   60.8850   29.4620   50.2520 N   0  0  0  0  0  0  0  0  0  0  0  0
   61.8650   30.3260   50.6180 C   0  0  0  0  0  0  0  0  0  0  0  0
   62.2940   30.2940   51.8040 O   0  0  0  0  0  0  0  0  0  0  0  0
   62.3650   31.2260   49.7150 N   0  0  0  0  0  0  0  0  0  0  0  0
   63.4230   32.1250   50.1040 C   0  0  0  0  0  0  0  0  0  0  0  0
   63.1340   33.2690   50.8660 C   0  0  0  0  0  0  0  0  0  0  0  0
   64.1620   34.1330   51.2550 C   0  0  0  0  0  0  0  0  0  0  0  0
   65.4830   33.8630   50.8850 C   0  0  0  0  0  0  0  0  0  0  0  0
   65.7770   32.7270   50.1250 C   0  0  0  0  0  0  0  0  0  0  0  0
   64.7520   31.8600   49.7350 C   0  0  0  0  0  0  0  0  0  0  0  0
   61.8730   31.2570   48.4350 C   0  0  0  0  0  0  0  0  0  0  0  0
   62.3050   32.1130   47.6120 O   0  0  0  0  0  0  0  0  0  0  0  0
   60.3780   28.2100   45.1750 C   0  0  0  0  0  0  0  0  0  0  0  0
   58.9610   27.8380   45.3700 C   0  0  0  0  0  0  0  0  0  0  0  0
   58.6550   26.5800   45.9040 C   0  0  0  0  0  0  0  0  0  0  0  0
   57.3250   26.2120   46.1170 C   0  0  0  0  0  0  0  0  0  0  0  0
   56.2910   27.0850   45.7730 C   0  0  0  0  0  0  0  0  0  0  0  0
   54.9710   26.7080   45.9990 O   0  0  0  0  0  0  0  0  0  0  0  0
   56.5760   28.3310   45.1990 C   0  0  0  0  0  0  0  0  0  0  0  0
   55.5050   29.1680   44.8500 O   0  0  0  0  0  0  0  0  0  0  0  0
   55.5310   30.1080   43.7790 C   0  0  0  0  0  0  0  0  0  0  0  0
   57.9200   28.7010   44.9890 C   0  0  0  0  0  0  0  0  0  0  0  0
  1  2  1  0
  2  3  2  0
  2  4  1  0
  4  5  2  0
  5  6  1  0
  5  7  1  0
  7  8  1  0
  8  9  2  0
  8 10  1  0
 10 11  1  0
 11 12  2  0
 12 13  1  0
 13 14  2  0
 14 15  1  0
 15 16  2  0
 10 17  1  0
 17 18  2  0
  1 19  2  0
 19 20  1  0
 20 21  2  0
 21 22  1  0
 22 23  2  0
 23 24  1  0
 23 25  1  0
 25 26  1  0
 26 27  1  0
 25 28  2  0
 17  4  1  0
 28 20  1  0
 16 11  1  0
M  CHG  3   6  -1   7  -1  24  -1
M  END
>  <UniqueID>  (3019) 
44

>  <SMILES>  (3019) 
COc1cc(/C=C\C(=O)c2c([O-])[n-]c(=O)n(-c3ccccc3)c2=O)ccc1[O-]

>  <Energy>  (3019) 
65.36913918745827

>  <Genealogy>  (3019) 
COc1cc(C=CC(=O)c2c([O-])[n-]c(=O)n(-c3ccccc3)c2=O)ccc1[O-] (protonated)
COc1cc(/C=C\C(=O)c2c([O-])[n-]c(=O)n(-c3ccccc3)c2=O)ccc1[O-] (cis-trans isomerization)
COc1cc(/C=C\C(=O)c2c([O-])[n-]c(=O)n(-c3ccccc3)c2=O)ccc1[O-] (3D coordinates assigned)
COc1cc(/C=C\C(=O)c2c([O-])[n-]c(=O)n(-c3ccccc3)c2=O)ccc1[O-] (optimized conformer: 65.36913918745827 kcal/mol)

>  <smiles>  (3019) 
COc1cc(C=CC(=O)c2c(O)[nH]c(=O)n(-c3ccccc3)c2=O)ccc1O

>  <score_type>  (3019) 
oracle

>  <origin>  (3019) 
adg

>  <m_score__min__energy>  (3019) 
-14.42

>  <m_primary>  (3019) 
energy

$$$$
48:0
     RDKit          3D

 30 33  0  0  0  0  0  0  0  0999 V2000
   58.5550   30.4060   47.4100 C   0  0  0  0  0  0  0  0  0  0  0  0
   59.2630   29.4160   47.9650 C   0  0  0  0  0  0  0  0  0  0  0  0
   59.2330   28.0580   47.5920 C   0  0  0  0  0  0  0  0  0  0  0  0
   58.6770   27.4370   46.5310 C   0  0  0  0  0  0  0  0  0  0  0  0
   57.3940   26.7190   46.5310 C   0  0  0  0  0  0  0  0  0  0  0  0
   57.2360   25.4780   47.0080 N   0  0  0  0  0  0  0  0  0  0  0  0
   55.9550   25.1730   46.6970 C   0  0  0  0  0  0  0  0  0  0  0  0
   55.4140   24.0790   47.0110 O   0  0  0  0  0  0  0  0  0  0  0  0
   55.2940   26.1310   46.0290 N   0  0  0  0  0  0  0  0  0  0  0  0
   56.2210   27.1010   45.9190 C   0  0  0  0  0  0  0  0  0  0  0  0
   55.9910   28.2900   45.2450 O   0  0  0  0  0  0  0  0  0  0  0  0
   59.9840   27.3890   48.5350 C   0  0  0  0  0  0  0  0  0  0  0  0
   60.4830   28.3420   49.4100 C   0  0  0  0  0  0  0  0  0  0  0  0
   61.4590   28.0390   50.5080 C   0  0  0  0  0  0  0  0  0  0  0  0
   60.0600   29.5800   49.0640 N   0  0  0  0  0  0  0  0  0  0  0  0
   60.4670   30.8310   49.7320 C   0  0  0  0  0  0  0  0  0  0  0  0
   61.3900   31.6300   48.8440 C   0  0  0  0  0  0  0  0  0  0  0  0
   62.7860   31.4960   48.9620 C   0  0  0  0  0  0  0  0  0  0  0  0
   63.6370   32.2630   48.1630 C   0  0  0  0  0  0  0  0  0  0  0  0
   63.1100   33.1600   47.2300 C   0  0  0  0  0  0  0  0  0  0  0  0
   61.7130   33.2820   47.0770 C   0  0  0  0  0  0  0  0  0  0  0  0
   61.1200   34.1120   46.0670 N   0  0  0  0  0  0  0  0  0  0  0  0
   59.4770   34.6710   46.0270 S   0  0  0  0  0  0  0  0  0  0  0  0
   59.2370   35.3680   44.7120 O   0  0  0  0  0  0  0  0  0  0  0  0
   59.2020   35.6480   47.1390 O   0  0  0  0  0  0  0  0  0  0  0  0
   58.3890   33.2640   46.1520 C   0  0  0  0  0  0  0  0  0  0  0  0
   57.4910   33.1870   44.9080 C   0  0  0  0  0  0  0  0  0  0  0  0
   57.0800   31.7870   44.4780 C   0  0  0  0  0  0  0  0  0  0  0  0
   58.1270   32.5460   43.6790 C   0  0  0  0  0  0  0  0  0  0  0  0
   60.8610   32.5110   47.8850 C   0  0  0  0  0  0  0  0  0  0  0  0
  1  2  2  0
  2  3  1  0
  3  4  2  3
  4  5  1  0
  5  6  1  0
  6  7  1  0
  7  8  2  0
  7  9  1  0
  9 10  1  0
 10 11  1  0
  3 12  1  0
 12 13  2  0
 13 14  1  0
 13 15  1  0
 15 16  1  0
 16 17  1  0
 17 18  2  0
 18 19  1  0
 19 20  2  0
 20 21  1  0
 21 22  1  0
 22 23  1  0
 23 24  2  0
 23 25  2  0
 23 26  1  0
 26 27  1  0
 27 28  1  0
 28 29  1  0
 21 30  2  0
 15  2  1  0
 30 17  1  0
 10  5  2  0
 29 27  1  0
M  CHG  3   6  -1   9  -1  22  -1
M  END
>  <UniqueID>  (3020) 
45

>  <SMILES>  (3020) 
C=c1c(=Cc2[n-]c(=O)[n-]c2O)cc(C)n1Cc1cccc([N-]S(=O)(=O)CC2CC2)c1

>  <Energy>  (3020) 
386.0770933426878

>  <Genealogy>  (3020) 
C=c1c(=Cc2[n-]c(=O)[n-]c2O)cc(C)n1Cc1cccc([N-]S(=O)(=O)CC2CC2)c1 (protonated)
C=c1c(=Cc2[n-]c(=O)[n-]c2O)cc(C)n1Cc1cccc([N-]S(=O)(=O)CC2CC2)c1 (3D coordinates assigned)
C=c1c(=Cc2[n-]c(=O)[n-]c2O)cc(C)n1Cc1cccc([N-]S(=O)(=O)CC2CC2)c1 (nonaromatic ring conformer: 386.0770933426878 kcal/mol)

>  <smiles>  (3020) 
C=c1c(=Cc2[nH]c(=O)[nH]c2O)cc(C)n1Cc1cccc(NS(=O)(=O)CC2CC2)c1

>  <score_type>  (3020) 
oracle

>  <origin>  (3020) 
adg

>  <m_score__min__energy>  (3020) 
-14.390000000000001

>  <m_primary>  (3020) 
energy

$$$$
56:0
     RDKit          3D

 30 33  0  0  0  0  0  0  0  0999 V2000
   59.0330   29.1120   48.2950 C   0  0  0  0  0  0  0  0  0  0  0  0
   58.7980   29.6640   47.0990 C   0  0  0  0  0  0  0  0  0  0  0  0
   58.7970   30.9660   46.9100 O   0  0  0  0  0  0  0  0  0  0  0  0
   58.5010   31.2160   45.6540 C   0  0  0  0  0  0  0  0  0  0  0  0
   58.3620   32.5690   45.0550 C   0  0  0  0  0  0  0  0  0  0  0  0
   57.8740   32.6500   43.8920 O   0  0  0  0  0  0  0  0  0  0  0  0
   58.8270   33.7880   45.7010 N   0  0  0  0  0  0  0  0  0  0  0  0
   58.2400   34.0280   47.0530 C   0  0  0  0  0  0  0  0  0  0  0  0
   59.2780   34.1150   48.1970 C   0  0  0  0  0  0  0  0  0  0  0  0
   60.3930   33.1840   47.9980 N   0  0  0  0  0  0  0  0  0  0  0  0
   60.9880   32.5420   49.1340 C   0  0  0  0  0  0  0  0  0  0  0  0
   60.3430   31.6420   49.7350 O   0  0  0  0  0  0  0  0  0  0  0  0
   62.3460   32.9130   49.6020 C   0  0  0  0  0  0  0  0  0  0  0  0
   63.4830   32.4160   48.9370 C   0  0  0  0  0  0  0  0  0  0  0  0
   64.7650   32.7630   49.3730 C   0  0  0  0  0  0  0  0  0  0  0  0
   64.9290   33.6080   50.4750 C   0  0  0  0  0  0  0  0  0  0  0  0
   63.8070   34.0970   51.1510 C   0  0  0  0  0  0  0  0  0  0  0  0
   62.5220   33.7510   50.7210 C   0  0  0  0  0  0  0  0  0  0  0  0
   60.9860   32.9940   46.6740 C   0  0  0  0  0  0  0  0  0  0  0  0
   60.3010   33.8880   45.6380 C   0  0  0  0  0  0  0  0  0  0  0  0
   58.3130   30.0270   44.9700 C   0  0  0  0  0  0  0  0  0  0  0  0
   58.5070   29.0110   45.8990 C   0  0  0  0  0  0  0  0  0  0  0  0
   58.4250   27.6780   45.7030 C   0  0  0  0  0  0  0  0  0  0  0  0
   57.2220   26.8410   45.9220 C   0  0  0  0  0  0  0  0  0  0  0  0
   57.2090   25.5670   46.3540 N   0  0  0  0  0  0  0  0  0  0  0  0
   55.8950   25.2520   46.3710 C   0  0  0  0  0  0  0  0  0  0  0  0
   55.4740   24.1180   46.7230 O   0  0  0  0  0  0  0  0  0  0  0  0
   55.0680   26.2420   45.9730 N   0  0  0  0  0  0  0  0  0  0  0  0
   55.9240   27.2410   45.6930 C   0  0  0  0  0  0  0  0  0  0  0  0
   55.5240   28.4890   45.2240 O   0  0  0  0  0  0  0  0  0  0  0  0
  1  2  2  0
  2  3  1  0
  3  4  1  0
  4  5  1  0
  5  6  2  0
  5  7  1  0
  7  8  1  0
  8  9  1  0
  9 10  1  0
 10 11  1  0
 11 12  2  0
 11 13  1  0
 13 14  2  0
 14 15  1  0
 15 16  2  0
 16 17  1  0
 17 18  2  0
 10 19  1  0
 19 20  1  0
  4 21  2  0
 21 22  1  0
 22 23  2  0
 23 24  1  0
 24 25  1  0
 25 26  1  0
 26 27  2  0
 26 28  1  0
 28 29  1  0
 29 30  1  0
 22  2  1  0
 29 24  2  0
 20  7  1  0
 18 13  1  0
M  CHG  4   7   1  25  -1  28  -1  30  -1
M  END
>  <UniqueID>  (3021) 
53

>  <SMILES>  (3021) 
C=c1oc(C(=O)[NH+]2CCN(C(=O)c3ccccc3)CC2)c/c1=C\c1[n-]c(=O)[n-]c1[O-]

>  <Energy>  (3021) 
130.3983155614893

>  <Genealogy>  (3021) 
C=c1oc(C(=O)[NH+]2CCN(C(=O)c3ccccc3)CC2)cc1=Cc1[n-]c(=O)[n-]c1[O-] (protonated)
C=c1oc(C(=O)[NH+]2CCN(C(=O)c3ccccc3)CC2)c/c1=C\c1[n-]c(=O)[n-]c1[O-] (cis-trans isomerization)
C=c1oc(C(=O)[NH+]2CCN(C(=O)c3ccccc3)CC2)c/c1=C\c1[n-]c(=O)[n-]c1[O-] (3D coordinates assigned)
C=c1oc(C(=O)[NH+]2CCN(C(=O)c3ccccc3)CC2)c/c1=C\c1[n-]c(=O)[n-]c1[O-] (nonaromatic ring conformer: 130.3983155614893 kcal/mol)

>  <smiles>  (3021) 
C=c1oc(C(=O)N2CCN(C(=O)c3ccccc3)CC2)cc1=Cc1[nH]c(=O)[nH]c1O

>  <score_type>  (3021) 
oracle

>  <origin>  (3021) 
adg

>  <m_score__min__energy>  (3021) 
-16.949999999999999

>  <m_primary>  (3021) 
energy

$$$$
64:0
     RDKit          3D

 37 41  0  0  0  0  0  0  0  0999 V2000
   54.9330   26.3300   46.0410 O   0  0  0  0  0  0  0  0  0  0  0  0
   55.9820   25.4840   46.3870 C   0  0  0  0  0  0  0  0  0  0  0  0
   55.8130   24.2660   46.9290 N   0  0  0  0  0  0  0  0  0  0  0  0
   57.0790   23.8070   47.0260 C   0  0  0  0  0  0  0  0  0  0  0  0
   57.3530   22.6700   47.4920 O   0  0  0  0  0  0  0  0  0  0  0  0
   58.0270   24.6570   46.5760 N   0  0  0  0  0  0  0  0  0  0  0  0
   57.3220   25.7350   46.1920 C   0  0  0  0  0  0  0  0  0  0  0  0
   57.9340   26.9150   45.5550 C   0  0  0  0  0  0  0  0  0  0  0  0
   58.4170   27.9730   46.2350 C   0  0  0  0  0  0  0  0  0  0  0  0
   58.1990   28.2550   47.5750 C   0  0  0  0  0  0  0  0  0  0  0  0
   58.9220   29.3930   47.8620 C   0  0  0  0  0  0  0  0  0  0  0  0
   58.8720   30.1020   49.1840 C   0  0  0  0  0  0  0  0  0  0  0  0
   59.6190   29.8070   46.7750 N   0  0  0  0  0  0  0  0  0  0  0  0
   60.5130   30.9800   46.7180 C   0  0  0  0  0  0  0  0  0  0  0  0
   59.7860   32.2400   46.2760 C   0  0  0  0  0  0  0  0  0  0  0  0
   58.4650   32.1280   45.8040 C   0  0  0  0  0  0  0  0  0  0  0  0
   57.7720   33.2520   45.3480 C   0  0  0  0  0  0  0  0  0  0  0  0
   58.3800   34.5050   45.3690 C   0  0  0  0  0  0  0  0  0  0  0  0
   59.6790   34.6430   45.8590 C   0  0  0  0  0  0  0  0  0  0  0  0
   60.3870   33.5230   46.3250 C   0  0  0  0  0  0  0  0  0  0  0  0
   61.7280   33.7370   46.8970 C   0  0  0  0  0  0  0  0  0  0  0  0
   62.7010   33.8520   46.1050 O   0  0  0  0  0  0  0  0  0  0  0  0
   61.9570   33.7560   48.3240 N   0  0  0  0  0  0  0  0  0  0  0  0
   63.3330   33.7940   48.8300 C   0  0  0  0  0  0  0  0  0  0  0  0
   63.3730   33.4690   50.3320 C   0  0  0  0  0  0  0  0  0  0  0  0
   62.3950   32.4170   50.6940 N   0  0  0  0  0  0  0  0  0  0  0  0
   62.7140   31.0940   50.1080 C   0  0  0  0  0  0  0  0  0  0  0  0
   62.0230   29.9800   50.8530 C   0  0  0  0  0  0  0  0  0  0  0  0
   61.5240   28.8620   50.1630 C   0  0  0  0  0  0  0  0  0  0  0  0
   60.8960   27.8280   50.8630 C   0  0  0  0  0  0  0  0  0  0  0  0
   60.7620   27.9000   52.2520 C   0  0  0  0  0  0  0  0  0  0  0  0
   61.2580   29.0090   52.9450 C   0  0  0  0  0  0  0  0  0  0  0  0
   61.8880   30.0460   52.2490 C   0  0  0  0  0  0  0  0  0  0  0  0
   60.9930   32.8240   50.4050 C   0  0  0  0  0  0  0  0  0  0  0  0
   60.8610   33.8850   49.2950 C   0  0  0  0  0  0  0  0  0  0  0  0
   59.2790   28.9660   45.7600 C   0  0  0  0  0  0  0  0  0  0  0  0
   59.6740   29.1160   44.4850 C   0  0  0  0  0  0  0  0  0  0  0  0
  1  2  1  0
  2  3  1  0
  3  4  1  0
  4  5  2  0
  4  6  1  0
  6  7  1  0
  7  8  1  0
  8  9  2  0
  9 10  1  0
 10 11  2  0
 11 12  1  0
 11 13  1  0
 13 14  1  0
 14 15  1  0
 15 16  2  0
 16 17  1  0
 17 18  2  0
 18 19  1  0
 19 20  2  0
 20 21  1  0
 21 22  2  0
 21 23  1  0
 23 24  1  0
 24 25  1  0
 25 26  1  0
 26 27  1  0
 27 28  1  0
 28 29  2  0
 29 30  1  0
 30 31  2  0
 31 32  1  0
 32 33  2  0
 26 34  1  0
 34 35  1  0
 13 36  1  0
 36 37  2  0
  7  2  2  0
 36  9  1  0
 20 15  1  0
 35 23  1  0
 33 28  1  0
M  CHG  2   3  -1   6  -1
M  END
>  <UniqueID>  (3022) 
61

>  <SMILES>  (3022) 
C=c1/c(=C/c2[n-]c(=O)[n-]c2O)cc(C)n1Cc1ccccc1C(=O)N1CCN(Cc2ccccc2)CC1

>  <Energy>  (3022) 
148.83140474498236

>  <Genealogy>  (3022) 
C=c1c(=Cc2[n-]c(=O)[n-]c2O)cc(C)n1Cc1ccccc1C(=O)N1CCN(Cc2ccccc2)CC1 (protonated)
C=c1/c(=C/c2[n-]c(=O)[n-]c2O)cc(C)n1Cc1ccccc1C(=O)N1CCN(Cc2ccccc2)CC1 (cis-trans isomerization)
C=c1/c(=C/c2[n-]c(=O)[n-]c2O)cc(C)n1Cc1ccccc1C(=O)N1CCN(Cc2ccccc2)CC1 (3D coordinates assigned)
C=c1/c(=C/c2[n-]c(=O)[n-]c2O)cc(C)n1Cc1ccccc1C(=O)N1CCN(Cc2ccccc2)CC1 (nonaromatic ring conformer: 148.83140474498236 kcal/mol)

>  <smiles>  (3022) 
C=c1c(=Cc2[nH]c(=O)[nH]c2O)cc(C)n1Cc1ccccc1C(=O)N1CCN(Cc2ccccc2)CC1

>  <score_type>  (3022) 
oracle

>  <origin>  (3022) 
adg

>  <m_score__min__energy>  (3022) 
-14.66

>  <m_primary>  (3022) 
energy

$$$$
78:0
     RDKit          3D

 38 42  0  0  0  0  0  0  0  0999 V2000
   58.2920   27.9070   47.4720 C   0  0  0  0  0  0  0  0  0  0  0  0
   58.1770   28.5300   46.2890 C   0  0  0  0  0  0  0  0  0  0  0  0
   57.9980   27.9130   45.0440 C   0  0  0  0  0  0  0  0  0  0  0  0
   57.8190   26.5960   44.8050 C   0  0  0  0  0  0  0  0  0  0  0  0
   57.2160   25.6550   45.7680 C   0  0  0  0  0  0  0  0  0  0  0  0
   57.8420   24.5980   46.3180 N   0  0  0  0  0  0  0  0  0  0  0  0
   56.9110   24.0840   47.1550 C   0  0  0  0  0  0  0  0  0  0  0  0
   57.1260   23.0650   47.8670 O   0  0  0  0  0  0  0  0  0  0  0  0
   55.7350   24.7490   47.1760 N   0  0  0  0  0  0  0  0  0  0  0  0
   55.9500   25.7460   46.3010 C   0  0  0  0  0  0  0  0  0  0  0  0
   55.0030   26.7140   45.9870 O   0  0  0  0  0  0  0  0  0  0  0  0
   57.9190   28.9370   44.1140 C   0  0  0  0  0  0  0  0  0  0  0  0
   58.0370   30.1210   44.8170 C   0  0  0  0  0  0  0  0  0  0  0  0
   57.9750   31.4830   44.1890 C   0  0  0  0  0  0  0  0  0  0  0  0
   58.1930   29.8830   46.1370 N   0  0  0  0  0  0  0  0  0  0  0  0
   58.1880   30.8940   47.2080 C   0  0  0  0  0  0  0  0  0  0  0  0
   59.3560   30.6800   48.1400 C   0  0  0  0  0  0  0  0  0  0  0  0
   60.6780   30.8360   47.6820 C   0  0  0  0  0  0  0  0  0  0  0  0
   61.7540   30.6830   48.5620 C   0  0  0  0  0  0  0  0  0  0  0  0
   61.5230   30.3630   49.9050 C   0  0  0  0  0  0  0  0  0  0  0  0
   62.6520   30.2920   50.8460 C   0  0  0  0  0  0  0  0  0  0  0  0
   63.3550   29.2440   50.8630 O   0  0  0  0  0  0  0  0  0  0  0  0
   62.9650   31.4090   51.7190 N   0  0  0  0  0  0  0  0  0  0  0  0
   61.7620   31.8610   52.4750 C   0  0  0  0  0  0  0  0  0  0  0  0
   61.3420   33.3110   52.1780 C   0  0  0  0  0  0  0  0  0  0  0  0
   61.4350   33.5810   50.7400 N   0  0  0  0  0  0  0  0  0  0  0  0
   60.2980   34.1030   50.0170 C   0  0  0  0  0  0  0  0  0  0  0  0
   59.3190   34.5820   50.6500 O   0  0  0  0  0  0  0  0  0  0  0  0
   60.2110   34.0480   48.5450 C   0  0  0  0  0  0  0  0  0  0  0  0
   58.9700   33.9650   47.8900 C   0  0  0  0  0  0  0  0  0  0  0  0
   58.9140   33.8890   46.4930 C   0  0  0  0  0  0  0  0  0  0  0  0
   60.0960   33.8890   45.7440 C   0  0  0  0  0  0  0  0  0  0  0  0
   61.3370   33.9520   46.3890 C   0  0  0  0  0  0  0  0  0  0  0  0
   61.3950   34.0230   47.7860 C   0  0  0  0  0  0  0  0  0  0  0  0
   62.7040   33.2860   50.0610 C   0  0  0  0  0  0  0  0  0  0  0  0
   63.6580   32.4860   50.9720 C   0  0  0  0  0  0  0  0  0  0  0  0
   60.2100   30.1740   50.3570 C   0  0  0  0  0  0  0  0  0  0  0  0
   59.1350   30.3280   49.4790 C   0  0  0  0  0  0  0  0  0  0  0  0
  1  2  2  0
  2  3  1  0
  3  4  2  3
  4  5  1  0
  5  6  1  0
  6  7  1  0
  7  8  2  0
  7  9  1  0
  9 10  1  0
 10 11  1  0
  3 12  1  0
 12 13  2  0
 13 14  1  0
 13 15  1  0
 15 16  1  0
 16 17  1  0
 17 18  2  0
 18 19  1  0
 19 20  2  0
 20 21  1  0
 21 22  2  0
 21 23  1  0
 23 24  1  0
 24 25  1  0
 25 26  1  0
 26 27  1  0
 27 28  2  0
 27 29  1  0
 29 30  2  0
 30 31  1  0
 31 32  2  0
 32 33  1  0
 33 34  2  0
 26 35  1  0
 35 36  1  0
 20 37  1  0
 37 38  2  0
 15  2  1  0
 38 17  1  0
 10  5  2  0
 36 23  1  0
 34 29  1  0
M  CHG  4   6  -1   9  -1  11  -1  23   1
M  END
>  <UniqueID>  (3023) 
72

>  <SMILES>  (3023) 
C=c1c(=Cc2[n-]c(=O)[n-]c2[O-])cc(C)n1Cc1ccc(C(=O)[NH+]2CCN(C(=O)c3ccccc3)CC2)cc1

>  <Energy>  (3023) 
157.7823971092982

>  <Genealogy>  (3023) 
C=c1c(=Cc2[n-]c(=O)[n-]c2[O-])cc(C)n1Cc1ccc(C(=O)[NH+]2CCN(C(=O)c3ccccc3)CC2)cc1 (protonated)
C=c1c(=Cc2[n-]c(=O)[n-]c2[O-])cc(C)n1Cc1ccc(C(=O)[NH+]2CCN(C(=O)c3ccccc3)CC2)cc1 (3D coordinates assigned)
C=c1c(=Cc2[n-]c(=O)[n-]c2[O-])cc(C)n1Cc1ccc(C(=O)[NH+]2CCN(C(=O)c3ccccc3)CC2)cc1 (nonaromatic ring conformer: 157.7823971092982 kcal/mol)

>  <smiles>  (3023) 
C=c1c(=Cc2[nH]c(=O)[nH]c2O)cc(C)n1Cc1ccc(C(=O)N2CCN(C(=O)c3ccccc3)CC2)cc1

>  <score_type>  (3023) 
oracle

>  <origin>  (3023) 
adg

>  <m_score__min__energy>  (3023) 
-16.41

>  <m_primary>  (3023) 
energy

$$$$
80:0
     RDKit          3D

 33 36  0  0  0  0  0  0  0  0999 V2000
   54.4560   26.2300   45.8650 O   0  0  0  0  0  0  0  0  0  0  0  0
   53.9280   24.9600   45.6550 C   0  0  0  0  0  0  0  0  0  0  0  0
   52.7880   24.7350   44.9810 N   0  0  0  0  0  0  0  0  0  0  0  0
   52.6550   23.3920   45.0550 C   0  0  0  0  0  0  0  0  0  0  0  0
   51.6920   22.7750   44.5270 O   0  0  0  0  0  0  0  0  0  0  0  0
   53.6360   22.7610   45.7360 N   0  0  0  0  0  0  0  0  0  0  0  0
   54.4530   23.7650   46.1030 C   0  0  0  0  0  0  0  0  0  0  0  0
   55.6670   23.5720   46.9200 C   0  0  0  0  0  0  0  0  0  0  0  0
   56.9060   24.0110   46.5720 C   0  0  0  0  0  0  0  0  0  0  0  0
   57.3050   25.3310   46.8940 C   0  0  0  0  0  0  0  0  0  0  0  0
   58.5320   25.8460   46.4700 C   0  0  0  0  0  0  0  0  0  0  0  0
   58.9060   27.2400   46.7930 C   0  0  0  0  0  0  0  0  0  0  0  0
   59.4530   27.4760   47.9060 O   0  0  0  0  0  0  0  0  0  0  0  0
   58.6490   28.3240   45.8770 N   0  0  0  0  0  0  0  0  0  0  0  0
   59.5200   29.5130   45.8980 C   0  0  0  0  0  0  0  0  0  0  0  0
   58.7560   30.7840   45.5050 C   0  0  0  0  0  0  0  0  0  0  0  0
   58.0140   30.5930   44.2480 N   0  0  0  0  0  0  0  0  0  0  0  0
   57.7290   31.6980   43.3620 C   0  0  0  0  0  0  0  0  0  0  0  0
   57.3820   31.4640   42.1710 O   0  0  0  0  0  0  0  0  0  0  0  0
   57.8170   33.1380   43.8050 C   0  0  0  0  0  0  0  0  0  0  0  0
   57.1180   33.3660   45.1540 C   0  0  0  0  0  0  0  0  0  0  0  0
   58.0910   33.7660   46.2330 C   0  0  0  0  0  0  0  0  0  0  0  0
   58.0380   33.1480   47.4940 C   0  0  0  0  0  0  0  0  0  0  0  0
   58.9860   33.4660   48.4740 C   0  0  0  0  0  0  0  0  0  0  0  0
   59.9950   34.3920   48.1970 C   0  0  0  0  0  0  0  0  0  0  0  0
   60.0560   35.0070   46.9440 C   0  0  0  0  0  0  0  0  0  0  0  0
   59.1080   34.6980   45.9630 C   0  0  0  0  0  0  0  0  0  0  0  0
   57.5250   29.2540   43.8870 C   0  0  0  0  0  0  0  0  0  0  0  0
   57.3830   28.3660   45.1280 C   0  0  0  0  0  0  0  0  0  0  0  0
   59.3950   25.0210   45.7500 C   0  0  0  0  0  0  0  0  0  0  0  0
   59.0290   23.7490   45.4550 N   0  0  0  0  0  0  0  0  0  0  0  0
   57.8330   23.2110   45.8290 C   0  0  0  0  0  0  0  0  0  0  0  0
   57.6190   21.9280   45.4960 C   0  0  0  0  0  0  0  0  0  0  0  0
  1  2  1  0
  2  3  1  0
  3  4  1  0
  4  5  2  0
  4  6  1  0
  6  7  1  0
  7  8  1  0
  8  9  2  0
  9 10  1  0
 10 11  2  0
 11 12  1  0
 12 13  2  0
 12 14  1  0
 14 15  1  0
 15 16  1  0
 16 17  1  0
 17 18  1  0
 18 19  2  0
 18 20  1  0
 20 21  1  0
 21 22  1  0
 22 23  2  0
 23 24  1  0
 24 25  2  0
 25 26  1  0
 26 27  2  0
 17 28  1  0
 28 29  1  0
 11 30  1  0
 30 31  2  0
 31 32  1  0
 32 33  2  0
  7  2  2  0
 32  9  1  0
 29 14  1  0
 27 22  1  0
M  CHG  2   3  -1   6  -1
M  END
>  <UniqueID>  (3024) 
74

>  <SMILES>  (3024) 
C=c1ncc(C(=O)N2CCN(C(=O)CCc3ccccc3)CC2)c/c1=C\c1[n-]c(=O)[n-]c1O

>  <Energy>  (3024) 
108.23869126920718

>  <Genealogy>  (3024) 
C=c1ncc(C(=O)N2CCN(C(=O)CCc3ccccc3)CC2)cc1=Cc1[n-]c(=O)[n-]c1O (protonated)
C=c1ncc(C(=O)N2CCN(C(=O)CCc3ccccc3)CC2)c/c1=C\c1[n-]c(=O)[n-]c1O (cis-trans isomerization)
C=c1ncc(C(=O)N2CCN(C(=O)CCc3ccccc3)CC2)c/c1=C\c1[n-]c(=O)[n-]c1O (3D coordinates assigned)
C=c1ncc(C(=O)N2CCN(C(=O)CCc3ccccc3)CC2)c/c1=C\c1[n-]c(=O)[n-]c1O (nonaromatic ring conformer: 108.23869126920718 kcal/mol)

>  <smiles>  (3024) 
C=c1ncc(C(=O)N2CCN(C(=O)CCc3ccccc3)CC2)cc1=Cc1[nH]c(=O)[nH]c1O

>  <score_type>  (3024) 
oracle

>  <origin>  (3024) 
adg

>  <m_score__min__energy>  (3024) 
-14.609999999999999

>  <m_primary>  (3024) 
energy

$$$$
86:0
     RDKit          3D

 36 39  0  0  0  0  0  0  0  0999 V2000
   57.3420   31.9960   41.6720 C   0  0  0  0  0  0  0  0  0  0  0  0
   57.4480   31.7650   43.4390 S   0  0  0  0  0  0  0  0  0  0  0  0
   58.6990   30.9890   43.7610 O   0  0  0  0  0  0  0  0  0  0  0  0
   56.2580   30.9850   43.9350 O   0  0  0  0  0  0  0  0  0  0  0  0
   57.5300   33.3090   44.2320 N   0  0  0  0  0  0  0  0  0  0  0  0
   58.1930   33.5300   45.4910 C   0  0  0  0  0  0  0  0  0  0  0  0
   59.2660   34.4290   45.6190 C   0  0  0  0  0  0  0  0  0  0  0  0
   59.8710   34.6360   46.8590 C   0  0  0  0  0  0  0  0  0  0  0  0
   59.4070   33.9640   48.0000 C   0  0  0  0  0  0  0  0  0  0  0  0
   60.0150   34.2390   49.3620 C   0  0  0  0  0  0  0  0  0  0  0  0
   60.2040   33.0230   50.1900 N   0  0  0  0  0  0  0  0  0  0  0  0
   60.7220   31.8590   49.4320 C   0  0  0  0  0  0  0  0  0  0  0  0
   60.5470   30.5530   50.2150 C   0  0  0  0  0  0  0  0  0  0  0  0
   59.0540   30.2570   50.4730 C   0  0  0  0  0  0  0  0  0  0  0  0
   58.5360   29.4320   49.3760 N   0  0  0  0  0  0  0  0  0  0  0  0
   59.2720   28.4940   48.5740 C   0  0  0  0  0  0  0  0  0  0  0  0
   60.3680   28.0540   49.0120 O   0  0  0  0  0  0  0  0  0  0  0  0
   58.8120   28.0610   47.2420 C   0  0  0  0  0  0  0  0  0  0  0  0
   58.3340   29.0090   46.3240 C   0  0  0  0  0  0  0  0  0  0  0  0
   57.8150   28.6000   45.0940 C   0  0  0  0  0  0  0  0  0  0  0  0
   57.7710   27.2430   44.7700 C   0  0  0  0  0  0  0  0  0  0  0  0
   58.2790   26.2860   45.6620 C   0  0  0  0  0  0  0  0  0  0  0  0
   58.1480   24.8160   45.3660 C   0  0  0  0  0  0  0  0  0  0  0  0
   56.6940   24.4700   45.1530 C   0  0  0  0  0  0  0  0  0  0  0  0
   56.3290   23.4800   44.2320 C   0  0  0  0  0  0  0  0  0  0  0  0
   55.0270   23.1230   44.0930 N   0  0  0  0  0  0  0  0  0  0  0  0
   54.0600   23.7110   44.8400 C   0  0  0  0  0  0  0  0  0  0  0  0
   52.8590   23.3680   44.6950 O   0  0  0  0  0  0  0  0  0  0  0  0
   54.3870   24.6660   45.7460 N   0  0  0  0  0  0  0  0  0  0  0  0
   55.6760   25.0560   45.9230 C   0  0  0  0  0  0  0  0  0  0  0  0
   55.9440   25.9360   46.7820 O   0  0  0  0  0  0  0  0  0  0  0  0
   58.8240   26.7060   46.8850 C   0  0  0  0  0  0  0  0  0  0  0  0
   58.2210   31.5560   50.6240 C   0  0  0  0  0  0  0  0  0  0  0  0
   59.0810   32.7270   51.1130 C   0  0  0  0  0  0  0  0  0  0  0  0
   58.3730   33.0230   47.8610 C   0  0  0  0  0  0  0  0  0  0  0  0
   57.7740   32.8090   46.6190 C   0  0  0  0  0  0  0  0  0  0  0  0
  1  2  1  0
  2  3  2  0
  2  4  2  0
  2  5  1  0
  5  6  1  0
  6  7  2  0
  7  8  1  0
  8  9  2  0
  9 10  1  0
 10 11  1  0
 11 12  1  0
 12 13  1  0
 13 14  1  0
 14 15  1  0
 15 16  1  0
 16 17  2  0
 16 18  1  0
 18 19  2  0
 19 20  1  0
 20 21  2  0
 21 22  1  0
 22 23  1  0
 23 24  1  0
 24 25  2  0
 25 26  1  0
 26 27  1  0
 27 28  2  0
 27 29  1  0
 29 30  1  0
 30 31  2  0
 22 32  2  0
 14 33  1  0
 33 34  1  0
  9 35  1  0
 35 36  2  0
 36  6  1  0
 34 11  1  0
 32 18  1  0
 30 24  1  0
M  CHG  3  15  -1  26  -1  29  -1
M  END
>  <UniqueID>  (3025) 
80

>  <SMILES>  (3025) 
CS(=O)(=O)Nc1ccc(CN2CCC([N-]C(=O)c3cccc(Cc4c[n-]c(=O)[n-]c4=O)c3)CC2)cc1

>  <Energy>  (3025) 
76.66577808561678

>  <Genealogy>  (3025) 
CS(=O)(=O)Nc1ccc(CN2CCC([N-]C(=O)c3cccc(Cc4c[n-]c(=O)[n-]c4=O)c3)CC2)cc1 (protonated)
CS(=O)(=O)Nc1ccc(CN2CCC([N-]C(=O)c3cccc(Cc4c[n-]c(=O)[n-]c4=O)c3)CC2)cc1 (3D coordinates assigned)
CS(=O)(=O)Nc1ccc(CN2CCC([N-]C(=O)c3cccc(Cc4c[n-]c(=O)[n-]c4=O)c3)CC2)cc1 (nonaromatic ring conformer: 76.66577808561678 kcal/mol)

>  <smiles>  (3025) 
CS(=O)(=O)Nc1ccc(CN2CCC(NC(=O)c3cccc(Cc4c[nH]c(=O)[nH]c4=O)c3)CC2)cc1

>  <score_type>  (3025) 
oracle

>  <origin>  (3025) 
adg

>  <m_score__min__energy>  (3025) 
-16.25

>  <m_primary>  (3025) 
energy

$$$$
88:0
     RDKit          3D

 26 28  0  0  0  0  0  0  0  0999 V2000
   59.0950   28.9240   48.8790 C   0  0  0  0  0  0  0  0  0  0  0  0
   58.8500   29.6890   47.8010 C   0  0  0  0  0  0  0  0  0  0  0  0
   58.4570   29.2390   46.5310 C   0  0  0  0  0  0  0  0  0  0  0  0
   58.4290   28.0020   45.9970 C   0  0  0  0  0  0  0  0  0  0  0  0
   57.2760   27.0890   46.0050 C   0  0  0  0  0  0  0  0  0  0  0  0
   57.3060   25.8580   46.5470 N   0  0  0  0  0  0  0  0  0  0  0  0
   56.0250   25.4410   46.4470 C   0  0  0  0  0  0  0  0  0  0  0  0
   55.6500   24.3060   46.8400 O   0  0  0  0  0  0  0  0  0  0  0  0
   55.1760   26.3390   45.9030 N   0  0  0  0  0  0  0  0  0  0  0  0
   55.9800   27.3830   45.6430 C   0  0  0  0  0  0  0  0  0  0  0  0
   55.5330   28.5870   45.1140 O   0  0  0  0  0  0  0  0  0  0  0  0
   58.0570   30.3630   45.8310 C   0  0  0  0  0  0  0  0  0  0  0  0
   58.2690   31.4510   46.6540 C   0  0  0  0  0  0  0  0  0  0  0  0
   57.9100   32.8360   46.2770 C   0  0  0  0  0  0  0  0  0  0  0  0
   57.0230   33.0280   45.4000 O   0  0  0  0  0  0  0  0  0  0  0  0
   58.5200   33.9560   46.9270 N   0  0  0  0  0  0  0  0  0  0  0  0
   59.7080   34.6370   46.4230 C   0  0  0  0  0  0  0  0  0  0  0  0
   60.9400   34.1250   47.1200 C   0  0  0  0  0  0  0  0  0  0  0  0
   61.9780   33.5310   46.3830 C   0  0  0  0  0  0  0  0  0  0  0  0
   63.1300   33.0750   47.0300 C   0  0  0  0  0  0  0  0  0  0  0  0
   63.2580   33.2130   48.4150 C   0  0  0  0  0  0  0  0  0  0  0  0
   62.2330   33.8090   49.1550 C   0  0  0  0  0  0  0  0  0  0  0  0
   61.0780   34.2670   48.5140 C   0  0  0  0  0  0  0  0  0  0  0  0
   60.0960   34.8480   49.2480 F   0  0  0  0  0  0  0  0  0  0  0  0
   58.7900   31.0480   47.8400 N   0  0  0  0  0  0  0  0  0  0  0  0
   59.1720   31.9160   48.9610 C   0  0  0  0  0  0  0  0  0  0  0  0
  1  2  2  0
  2  3  1  0
  3  4  2  3
  4  5  1  0
  5  6  1  0
  6  7  1  0
  7  8  2  0
  7  9  1  0
  9 10  1  0
 10 11  1  0
  3 12  1  0
 12 13  2  0
 13 14  1  0
 14 15  2  0
 14 16  1  0
 16 17  1  0
 17 18  1  0
 18 19  2  0
 19 20  1  0
 20 21  2  0
 21 22  1  0
 22 23  2  0
 23 24  1  0
 13 25  1  0
 25 26  1  0
 25  2  1  0
 10  5  2  0
 23 18  1  0
M  CHG  4   6  -1   9  -1  11  -1  16  -1
M  END
>  <UniqueID>  (3026) 
82

>  <SMILES>  (3026) 
C=c1c(=Cc2[n-]c(=O)[n-]c2[O-])cc(C(=O)[N-]Cc2ccccc2F)n1C

>  <Energy>  (3026) 
112.49955824720176

>  <Genealogy>  (3026) 
C=c1c(=Cc2[n-]c(=O)[n-]c2[O-])cc(C(=O)[N-]Cc2ccccc2F)n1C (protonated)
C=c1c(=Cc2[n-]c(=O)[n-]c2[O-])cc(C(=O)[N-]Cc2ccccc2F)n1C (3D coordinates assigned)
C=c1c(=Cc2[n-]c(=O)[n-]c2[O-])cc(C(=O)[N-]Cc2ccccc2F)n1C (optimized conformer: 112.49955824720176 kcal/mol)

>  <smiles>  (3026) 
C=c1c(=Cc2[nH]c(=O)[nH]c2O)cc(C(=O)NCc2ccccc2F)n1C

>  <score_type>  (3026) 
oracle

>  <origin>  (3026) 
adg

>  <m_score__min__energy>  (3026) 
-17.710000000000001

>  <m_primary>  (3026) 
energy

$$$$
4:0
     RDKit          3D

 27 29  0  0  0  0  0  0  0  0999 V2000
   53.2130   28.8370   52.9630 O   0  0  0  0  0  0  0  0  0  0  0  0
   53.8950   29.7740   52.4690 C   0  0  0  0  0  0  0  0  0  0  0  0
   53.2670   31.1300   52.2960 C   0  0  0  0  0  0  0  0  0  0  0  0
   52.3500   31.1380   51.1120 C   0  0  0  0  0  0  0  0  0  0  0  0
   52.4020   30.0360   49.8390 S   0  0  0  0  0  0  0  0  0  0  0  0
   51.1690   30.8170   49.0050 C   0  0  0  0  0  0  0  0  0  0  0  0
   50.7140   30.4390   47.8940 O   0  0  0  0  0  0  0  0  0  0  0  0
   50.7130   31.9100   49.6530 N   0  0  0  0  0  0  0  0  0  0  0  0
   51.3760   32.0920   50.8250 C   0  0  0  0  0  0  0  0  0  0  0  0
   51.0920   33.1630   51.6630 O   0  0  0  0  0  0  0  0  0  0  0  0
   55.2660   29.5260   52.1340 N   0  0  0  0  0  0  0  0  0  0  0  0
   56.3510   30.4580   52.2530 C   0  0  0  0  0  0  0  0  0  0  0  0
   56.4940   31.2800   53.3830 C   0  0  0  0  0  0  0  0  0  0  0  0
   57.5490   32.1940   53.4590 C   0  0  0  0  0  0  0  0  0  0  0  0
   58.4570   32.3140   52.3990 C   0  0  0  0  0  0  0  0  0  0  0  0
   59.8010   33.4460   52.5250 S   0  0  0  0  0  0  0  0  0  0  0  0
   60.7800   32.9050   53.5300 O   0  0  0  0  0  0  0  0  0  0  0  0
   59.3010   34.7780   53.0110 O   0  0  0  0  0  0  0  0  0  0  0  0
   60.5790   33.6240   50.9680 N   0  0  0  0  0  0  0  0  0  0  0  0
   61.3360   32.3980   50.6470 C   0  0  0  0  0  0  0  0  0  0  0  0
   62.5180   32.6480   49.6920 C   0  0  0  0  0  0  0  0  0  0  0  0
   62.3230   33.7710   48.6470 C   0  0  0  0  0  0  0  0  0  0  0  0
   61.0580   33.6470   47.7830 C   0  0  0  0  0  0  0  0  0  0  0  0
   59.7460   33.3720   48.5610 C   0  0  0  0  0  0  0  0  0  0  0  0
   59.6080   34.0650   49.9360 C   0  0  0  0  0  0  0  0  0  0  0  0
   58.3010   31.5110   51.2600 C   0  0  0  0  0  0  0  0  0  0  0  0
   57.2450   30.5970   51.1850 C   0  0  0  0  0  0  0  0  0  0  0  0
  1  2  2  0
  2  3  1  0
  3  4  1  0
  4  5  1  0
  5  6  1  0
  6  7  2  0
  6  8  1  0
  8  9  1  0
  9 10  1  0
  2 11  1  0
 11 12  1  0
 12 13  2  0
 13 14  1  0
 14 15  2  0
 15 16  1  0
 16 17  2  0
 16 18  2  0
 16 19  1  0
 19 20  1  0
 20 21  1  0
 21 22  1  0
 22 23  1  0
 23 24  1  0
 24 25  1  0
 15 26  1  0
 26 27  2  0
  9  4  2  0
 27 12  1  0
 25 19  1  0
M  CHG  3   8  -1  10  -1  11  -1
M  END
>  <UniqueID>  (3027) 
4

>  <SMILES>  (3027) 
O=C(Cc1sc(=O)[n-]c1[O-])[N-]c1ccc(S(=O)(=O)N2CCCCCC2)cc1

>  <Energy>  (3027) 
93.22574178747678

>  <Genealogy>  (3027) 
O=C(Cc1sc(=O)[n-]c1[O-])[N-]c1ccc(S(=O)(=O)N2CCCCCC2)cc1 (protonated)
O=C(Cc1sc(=O)[n-]c1[O-])[N-]c1ccc(S(=O)(=O)N2CCCCCC2)cc1 (3D coordinates assigned)
O=C(Cc1sc(=O)[n-]c1[O-])[N-]c1ccc(S(=O)(=O)N2CCCCCC2)cc1 (nonaromatic ring conformer: 93.22574178747678 kcal/mol)

>  <smiles>  (3027) 
O=C(Cc1sc(=O)[nH]c1O)Nc1ccc(S(=O)(=O)N2CCCCCC2)cc1

>  <score_type>  (3027) 
oracle

>  <origin>  (3027) 
adg

>  <m_score__min__energy>  (3027) 
-14.210000000000001

>  <m_primary>  (3027) 
energy

$$$$
10:0
     RDKit          3D

 27 29  0  0  0  0  0  0  0  0999 V2000
   55.0690   21.1310   46.1100 C   0  0  0  0  0  0  0  0  0  0  0  0
   55.1250   22.6010   46.0470 N   0  0  0  0  0  0  0  0  0  0  0  0
   54.0010   23.3200   45.7300 C   0  0  0  0  0  0  0  0  0  0  0  0
   52.9150   22.7380   45.4640 O   0  0  0  0  0  0  0  0  0  0  0  0
   54.0410   24.6750   45.7030 N   0  0  0  0  0  0  0  0  0  0  0  0
   55.1710   25.3600   45.9930 C   0  0  0  0  0  0  0  0  0  0  0  0
   55.1430   26.7500   45.9770 O   0  0  0  0  0  0  0  0  0  0  0  0
   56.3400   24.6660   46.3340 C   0  0  0  0  0  0  0  0  0  0  0  0
   57.5920   25.3930   46.6620 C   0  0  0  0  0  0  0  0  0  0  0  0
   58.7010   24.8200   46.4920 O   0  0  0  0  0  0  0  0  0  0  0  0
   57.5800   26.7150   47.2180 N   0  0  0  0  0  0  0  0  0  0  0  0
   58.3710   27.8280   46.7760 C   0  0  0  0  0  0  0  0  0  0  0  0
   59.7750   27.7920   46.7980 C   0  0  0  0  0  0  0  0  0  0  0  0
   60.5130   28.8970   46.3690 C   0  0  0  0  0  0  0  0  0  0  0  0
   59.8590   30.0530   45.9330 C   0  0  0  0  0  0  0  0  0  0  0  0
   58.4560   30.1200   45.9410 C   0  0  0  0  0  0  0  0  0  0  0  0
   57.7560   31.3410   45.4780 C   0  0  0  0  0  0  0  0  0  0  0  0
   56.6750   31.2330   44.8360 O   0  0  0  0  0  0  0  0  0  0  0  0
   58.2990   32.6480   45.7270 N   0  0  0  0  0  0  0  0  0  0  0  0
   58.1390   33.6980   44.7190 C   0  0  0  0  0  0  0  0  0  0  0  0
   59.2410   34.7480   44.8910 C   0  0  0  0  0  0  0  0  0  0  0  0
   59.2850   35.2180   46.2270 O   0  0  0  0  0  0  0  0  0  0  0  0
   59.6510   34.1630   47.0960 C   0  0  0  0  0  0  0  0  0  0  0  0
   58.5780   33.0700   47.1040 C   0  0  0  0  0  0  0  0  0  0  0  0
   57.7200   28.9980   46.3630 C   0  0  0  0  0  0  0  0  0  0  0  0
   56.2840   23.2610   46.3740 C   0  0  0  0  0  0  0  0  0  0  0  0
   57.3140   22.6060   46.7030 O   0  0  0  0  0  0  0  0  0  0  0  0
  1  2  1  0
  2  3  1  0
  3  4  2  0
  3  5  1  0
  5  6  1  0
  6  7  1  0
  6  8  2  0
  8  9  1  0
  9 10  2  0
  9 11  1  0
 11 12  1  0
 12 13  2  0
 13 14  1  0
 14 15  2  0
 15 16  1  0
 16 17  1  0
 17 18  2  0
 17 19  1  0
 19 20  1  0
 20 21  1  0
 21 22  1  0
 22 23  1  0
 23 24  1  0
 16 25  2  0
  8 26  1  0
 26 27  2  0
 26  2  1  0
 25 12  1  0
 24 19  1  0
M  CHG  3   5  -1   7  -1  11  -1
M  END
>  <UniqueID>  (3028) 
10

>  <SMILES>  (3028) 
Cn1c(=O)[n-]c([O-])c(C(=O)[N-]c2cccc(C(=O)N3CCOCC3)c2)c1=O

>  <Energy>  (3028) 
63.26683668520617

>  <Genealogy>  (3028) 
Cn1c(=O)[n-]c([O-])c(C(=O)[N-]c2cccc(C(=O)N3CCOCC3)c2)c1=O (protonated)
Cn1c(=O)[n-]c([O-])c(C(=O)[N-]c2cccc(C(=O)N3CCOCC3)c2)c1=O (3D coordinates assigned)
Cn1c(=O)[n-]c([O-])c(C(=O)[N-]c2cccc(C(=O)N3CCOCC3)c2)c1=O (nonaromatic ring conformer: 63.26683668520617 kcal/mol)

>  <smiles>  (3028) 
Cn1c(=O)[nH]c(O)c(C(=O)Nc2cccc(C(=O)N3CCOCC3)c2)c1=O

>  <score_type>  (3028) 
oracle

>  <origin>  (3028) 
adg

>  <m_score__min__energy>  (3028) 
-15.369999999999999

>  <m_primary>  (3028) 
energy

$$$$
14:0
     RDKit          3D

 29 32  0  0  0  0  0  0  0  0999 V2000
   58.4320   29.6930   47.3410 C   0  0  0  0  0  0  0  0  0  0  0  0
   58.0250   29.5350   46.0720 C   0  0  0  0  0  0  0  0  0  0  0  0
   58.0170   28.3360   45.3520 C   0  0  0  0  0  0  0  0  0  0  0  0
   58.4600   27.1320   45.7630 C   0  0  0  0  0  0  0  0  0  0  0  0
   57.5810   26.0510   46.2460 C   0  0  0  0  0  0  0  0  0  0  0  0
   58.0300   24.9180   46.8100 N   0  0  0  0  0  0  0  0  0  0  0  0
   56.9170   24.2570   47.1840 C   0  0  0  0  0  0  0  0  0  0  0  0
   56.9450   23.1300   47.7450 O   0  0  0  0  0  0  0  0  0  0  0  0
   55.7690   24.9150   46.9170 N   0  0  0  0  0  0  0  0  0  0  0  0
   56.2030   26.0510   46.3370 C   0  0  0  0  0  0  0  0  0  0  0  0
   55.3580   27.0810   45.9460 O   0  0  0  0  0  0  0  0  0  0  0  0
   57.5090   28.6400   44.0970 C   0  0  0  0  0  0  0  0  0  0  0  0
   57.2270   29.9910   44.1000 C   0  0  0  0  0  0  0  0  0  0  0  0
   56.6400   30.7330   42.9360 C   0  0  0  0  0  0  0  0  0  0  0  0
   57.5380   30.5390   45.2980 N   0  0  0  0  0  0  0  0  0  0  0  0
   57.3990   31.9580   45.6670 C   0  0  0  0  0  0  0  0  0  0  0  0
   58.6180   32.4410   46.4130 C   0  0  0  0  0  0  0  0  0  0  0  0
   59.8990   31.9950   46.0510 C   0  0  0  0  0  0  0  0  0  0  0  0
   61.0270   32.4510   46.7370 C   0  0  0  0  0  0  0  0  0  0  0  0
   60.8980   33.3760   47.7870 C   0  0  0  0  0  0  0  0  0  0  0  0
   62.0600   33.8350   48.5050 N   0  0  0  0  0  0  0  0  0  0  0  0
   61.9460   34.2030   49.9250 C   0  0  0  0  0  0  0  0  0  0  0  0
   63.3210   34.2360   50.6120 C   0  0  0  0  0  0  0  0  0  0  0  0
   64.1810   33.0500   50.1330 C   0  0  0  0  0  0  0  0  0  0  0  0
   65.5100   33.0030   50.8960 C   0  0  0  0  0  0  0  0  0  0  0  0
   64.4180   33.0920   48.6000 C   0  0  0  0  0  0  0  0  0  0  0  0
   63.3690   33.9250   47.8440 C   0  0  0  0  0  0  0  0  0  0  0  0
   59.6160   33.8250   48.1440 C   0  0  0  0  0  0  0  0  0  0  0  0
   58.4880   33.3690   47.4580 C   0  0  0  0  0  0  0  0  0  0  0  0
  1  2  2  0
  2  3  1  0
  3  4  2  3
  4  5  1  0
  5  6  1  0
  6  7  1  0
  7  8  2  0
  7  9  1  0
  9 10  1  0
 10 11  1  0
  3 12  1  0
 12 13  2  0
 13 14  1  0
 13 15  1  0
 15 16  1  0
 16 17  1  0
 17 18  2  0
 18 19  1  0
 19 20  2  0
 20 21  1  0
 21 22  1  0
 22 23  1  0
 23 24  1  0
 24 25  1  0
 24 26  1  0
 26 27  1  0
 20 28  1  0
 28 29  2  0
 15  2  1  0
 29 17  1  0
 10  5  2  0
 27 21  1  0
M  CHG  2   9  -1  11  -1
M  END
>  <UniqueID>  (3029) 
13

>  <SMILES>  (3029) 
C=c1c(=Cc2[nH]c(=O)[n-]c2[O-])cc(C)n1Cc1ccc(N2CCC(C)CC2)cc1

>  <Energy>  (3029) 
126.88992085715302

>  <Genealogy>  (3029) 
C=c1c(=Cc2[nH]c(=O)[n-]c2[O-])cc(C)n1Cc1ccc(N2CCC(C)CC2)cc1 (protonated)
C=c1c(=Cc2[nH]c(=O)[n-]c2[O-])cc(C)n1Cc1ccc(N2CCC(C)CC2)cc1 (3D coordinates assigned)
C=c1c(=Cc2[nH]c(=O)[n-]c2[O-])cc(C)n1Cc1ccc(N2CCC(C)CC2)cc1 (nonaromatic ring conformer: 126.88992085715302 kcal/mol)

>  <smiles>  (3029) 
C=c1c(=Cc2[nH]c(=O)[nH]c2O)cc(C)n1Cc1ccc(N2CCC(C)CC2)cc1

>  <score_type>  (3029) 
oracle

>  <origin>  (3029) 
adg

>  <m_score__min__energy>  (3029) 
-14.289999999999999

>  <m_primary>  (3029) 
energy

$$$$
16:0
     RDKit          3D

 32 35  0  0  0  0  0  0  0  0999 V2000
   53.9970   28.4810   52.9790 C   0  0  0  0  0  0  0  0  0  0  0  0
   54.7150   29.6100   52.8600 C   0  0  0  0  0  0  0  0  0  0  0  0
   54.4240   30.6990   52.0240 C   0  0  0  0  0  0  0  0  0  0  0  0
   53.3140   31.0090   51.3260 C   0  0  0  0  0  0  0  0  0  0  0  0
   52.0570   31.5190   51.8950 C   0  0  0  0  0  0  0  0  0  0  0  0
   51.7030   31.4170   53.1900 N   0  0  0  0  0  0  0  0  0  0  0  0
   50.5640   32.1400   53.2610 C   0  0  0  0  0  0  0  0  0  0  0  0
   49.9120   32.2740   54.3280 O   0  0  0  0  0  0  0  0  0  0  0  0
   50.1870   32.7170   52.1000 N   0  0  0  0  0  0  0  0  0  0  0  0
   51.1510   32.3270   51.2510 C   0  0  0  0  0  0  0  0  0  0  0  0
   51.2040   32.7040   49.9150 O   0  0  0  0  0  0  0  0  0  0  0  0
   55.5470   31.5040   52.0360 C   0  0  0  0  0  0  0  0  0  0  0  0
   56.4520   30.9320   52.9080 C   0  0  0  0  0  0  0  0  0  0  0  0
   57.7810   31.5210   53.1960 C   0  0  0  0  0  0  0  0  0  0  0  0
   58.0570   31.8560   54.3800 O   0  0  0  0  0  0  0  0  0  0  0  0
   58.7040   31.8010   52.1380 N   0  0  0  0  0  0  0  0  0  0  0  0
   58.7810   31.1400   50.8680 C   0  0  0  0  0  0  0  0  0  0  0  0
   58.9080   29.7440   50.7600 C   0  0  0  0  0  0  0  0  0  0  0  0
   58.9550   29.1360   49.5010 C   0  0  0  0  0  0  0  0  0  0  0  0
   58.8610   29.9090   48.3330 C   0  0  0  0  0  0  0  0  0  0  0  0
   58.8990   29.2740   47.0410 N   0  0  0  0  0  0  0  0  0  0  0  0
   59.0800   30.0830   45.8330 C   0  0  0  0  0  0  0  0  0  0  0  0
   59.9000   29.3050   44.7960 C   0  0  0  0  0  0  0  0  0  0  0  0
   59.3720   27.9450   44.5590 N   0  0  0  0  0  0  0  0  0  0  0  0
   58.1290   27.9480   43.7700 C   0  0  0  0  0  0  0  0  0  0  0  0
   59.2480   27.1720   45.8120 C   0  0  0  0  0  0  0  0  0  0  0  0
   58.4170   27.8990   46.8770 C   0  0  0  0  0  0  0  0  0  0  0  0
   58.7080   31.3010   48.4460 C   0  0  0  0  0  0  0  0  0  0  0  0
   58.6600   31.9080   49.7040 C   0  0  0  0  0  0  0  0  0  0  0  0
   55.9380   29.7880   53.4330 N   0  0  0  0  0  0  0  0  0  0  0  0
   56.5820   28.9020   54.4170 C   0  0  0  0  0  0  0  0  0  0  0  0
   57.7360   28.1330   53.7800 C   0  0  0  0  0  0  0  0  0  0  0  0
  1  2  2  0
  2  3  1  0
  3  4  2  3
  4  5  1  0
  5  6  1  0
  6  7  1  0
  7  8  2  0
  7  9  1  0
  9 10  1  0
 10 11  1  0
  3 12  1  0
 12 13  2  0
 13 14  1  0
 14 15  2  0
 14 16  1  0
 16 17  1  0
 17 18  2  0
 18 19  1  0
 19 20  2  0
 20 21  1  0
 21 22  1  0
 22 23  1  0
 23 24  1  0
 24 25  1  0
 24 26  1  0
 26 27  1  0
 20 28  1  0
 28 29  2  0
 13 30  1  0
 30 31  1  0
 31 32  1  0
 30  2  1  0
 10  5  2  0
 29 17  1  0
 27 21  1  0
M  CHG  4   6  -1   9  -1  11  -1  16  -1
M  END
>  <UniqueID>  (3030) 
15

>  <SMILES>  (3030) 
C=c1c(=Cc2[n-]c(=O)[n-]c2[O-])cc(C(=O)[N-]c2ccc(N3CCN(C)CC3)cc2)n1CC

>  <Energy>  (3030) 
138.03243849248014

>  <Genealogy>  (3030) 
C=c1c(=Cc2[n-]c(=O)[n-]c2[O-])cc(C(=O)[N-]c2ccc(N3CCN(C)CC3)cc2)n1CC (protonated)
C=c1c(=Cc2[n-]c(=O)[n-]c2[O-])cc(C(=O)[N-]c2ccc(N3CCN(C)CC3)cc2)n1CC (3D coordinates assigned)
C=c1c(=Cc2[n-]c(=O)[n-]c2[O-])cc(C(=O)[N-]c2ccc(N3CCN(C)CC3)cc2)n1CC (nonaromatic ring conformer: 138.03243849248014 kcal/mol)

>  <smiles>  (3030) 
C=c1c(=Cc2[nH]c(=O)[nH]c2O)cc(C(=O)Nc2ccc(N3CCN(C)CC3)cc2)n1CC

>  <score_type>  (3030) 
oracle

>  <origin>  (3030) 
adg

>  <m_score__min__energy>  (3030) 
-18.420000000000002

>  <m_primary>  (3030) 
energy

$$$$
35:0
     RDKit          3D

 28 31  0  0  0  0  0  0  0  0999 V2000
   53.9270   28.3440   52.9350 C   0  0  0  0  0  0  0  0  0  0  0  0
   54.7750   29.3860   52.8560 C   0  0  0  0  0  0  0  0  0  0  0  0
   54.3700   30.6990   52.4460 C   0  0  0  0  0  0  0  0  0  0  0  0
   53.0940   31.1590   52.4120 C   0  0  0  0  0  0  0  0  0  0  0  0
   52.2070   31.1970   51.2320 C   0  0  0  0  0  0  0  0  0  0  0  0
   52.2660   30.2970   50.2330 N   0  0  0  0  0  0  0  0  0  0  0  0
   51.3700   30.7660   49.3370 C   0  0  0  0  0  0  0  0  0  0  0  0
   51.1260   30.1760   48.2520 O   0  0  0  0  0  0  0  0  0  0  0  0
   50.7660   31.9230   49.6880 N   0  0  0  0  0  0  0  0  0  0  0  0
   51.3160   32.1900   50.8830 C   0  0  0  0  0  0  0  0  0  0  0  0
   51.0340   33.3340   51.6210 O   0  0  0  0  0  0  0  0  0  0  0  0
   55.3810   31.5990   52.0560 C   0  0  0  0  0  0  0  0  0  0  0  0
   56.7320   31.2760   52.2000 C   0  0  0  0  0  0  0  0  0  0  0  0
   57.7790   32.2430   51.8130 C   0  0  0  0  0  0  0  0  0  0  0  0
   57.7660   33.3930   52.3330 O   0  0  0  0  0  0  0  0  0  0  0  0
   58.7830   31.9130   50.8310 N   0  0  0  0  0  0  0  0  0  0  0  0
   60.0880   32.5850   50.8390 C   0  0  0  0  0  0  0  0  0  0  0  0
   60.3350   33.3070   49.4990 C   0  0  0  0  0  0  0  0  0  0  0  0
   59.6090   32.6890   48.3630 N   0  0  0  0  0  0  0  0  0  0  0  0
   60.1770   33.1000   47.0500 C   0  0  0  0  0  0  0  0  0  0  0  0
   60.5130   34.5970   47.0310 C   0  0  0  0  0  0  0  0  0  0  0  0
   59.6190   35.2500   45.9820 C   0  0  0  0  0  0  0  0  0  0  0  0
   58.6380   34.1920   45.4990 C   0  0  0  0  0  0  0  0  0  0  0  0
   59.2490   32.8490   45.8540 C   0  0  0  0  0  0  0  0  0  0  0  0
   59.4050   31.2340   48.5380 C   0  0  0  0  0  0  0  0  0  0  0  0
   58.4610   31.0030   49.7200 C   0  0  0  0  0  0  0  0  0  0  0  0
   57.0700   30.0420   52.7560 C   0  0  0  0  0  0  0  0  0  0  0  0
   56.1050   29.1370   53.0630 N   0  0  0  0  0  0  0  0  0  0  0  0
  1  2  2  0
  2  3  1  0
  3  4  2  0
  4  5  1  0
  5  6  1  0
  6  7  1  0
  7  8  2  0
  7  9  1  0
  9 10  1  0
 10 11  1  0
  3 12  1  0
 12 13  2  0
 13 14  1  0
 14 15  2  0
 14 16  1  0
 16 17  1  0
 17 18  1  0
 18 19  1  0
 19 20  1  0
 20 21  1  0
 21 22  1  0
 22 23  1  0
 23 24  1  0
 19 25  1  0
 25 26  1  0
 13 27  1  0
 27 28  2  0
 28  2  1  0
 10  5  2  0
 26 16  1  0
 24 20  1  0
M  CHG  4   6  -1   9  -1  11  -1  28   1
M  END
>  <UniqueID>  (3031) 
33

>  <SMILES>  (3031) 
C=c1[nH+]cc(C(=O)N2CCN(C3CCCC3)CC2)c/c1=C/c1[n-]c(=O)[n-]c1[O-]

>  <Energy>  (3031) 
120.55097885493511

>  <Genealogy>  (3031) 
C=c1[nH+]cc(C(=O)N2CCN(C3CCCC3)CC2)cc1=Cc1[n-]c(=O)[n-]c1[O-] (protonated)
C=c1[nH+]cc(C(=O)N2CCN(C3CCCC3)CC2)c/c1=C/c1[n-]c(=O)[n-]c1[O-] (cis-trans isomerization)
C=c1[nH+]cc(C(=O)N2CCN(C3CCCC3)CC2)c/c1=C/c1[n-]c(=O)[n-]c1[O-] (3D coordinates assigned)
C=c1[nH+]cc(C(=O)N2CCN(C3CCCC3)CC2)c/c1=C/c1[n-]c(=O)[n-]c1[O-] (nonaromatic ring conformer: 120.55097885493511 kcal/mol)

>  <smiles>  (3031) 
C=c1ncc(C(=O)N2CCN(C3CCCC3)CC2)cc1=Cc1[nH]c(=O)[nH]c1O

>  <score_type>  (3031) 
oracle

>  <origin>  (3031) 
adg

>  <m_score__min__energy>  (3031) 
-17.260000000000002

>  <m_primary>  (3031) 
energy

$$$$
37:0
     RDKit          3D

 27 29  0  0  0  0  0  0  0  0999 V2000
   58.0020   27.2850   43.0910 C   0  0  0  0  0  0  0  0  0  0  0  0
   58.2120   27.5310   44.3950 C   0  0  0  0  0  0  0  0  0  0  0  0
   58.5000   26.5860   45.3960 C   0  0  0  0  0  0  0  0  0  0  0  0
   58.4760   25.2380   45.3790 C   0  0  0  0  0  0  0  0  0  0  0  0
   57.6270   24.3810   46.2190 C   0  0  0  0  0  0  0  0  0  0  0  0
   58.0560   23.2390   46.7810 N   0  0  0  0  0  0  0  0  0  0  0  0
   57.0040   22.8440   47.5310 C   0  0  0  0  0  0  0  0  0  0  0  0
   57.0150   21.7860   48.2090 O   0  0  0  0  0  0  0  0  0  0  0  0
   55.9420   23.6790   47.5010 N   0  0  0  0  0  0  0  0  0  0  0  0
   56.3550   24.6570   46.6790 C   0  0  0  0  0  0  0  0  0  0  0  0
   55.5880   25.7820   46.3850 O   0  0  0  0  0  0  0  0  0  0  0  0
   58.8310   27.3100   46.5280 C   0  0  0  0  0  0  0  0  0  0  0  0
   58.6880   28.6430   46.2090 C   0  0  0  0  0  0  0  0  0  0  0  0
   58.9240   29.7730   47.1660 C   0  0  0  0  0  0  0  0  0  0  0  0
   58.2920   28.7840   44.9220 N   0  0  0  0  0  0  0  0  0  0  0  0
   58.1030   30.0680   44.2290 C   0  0  0  0  0  0  0  0  0  0  0  0
   56.7580   30.6390   44.5490 C   0  0  0  0  0  0  0  0  0  0  0  0
   55.7410   29.8950   44.5320 O   0  0  0  0  0  0  0  0  0  0  0  0
   56.6370   32.0220   44.8960 N   0  0  0  0  0  0  0  0  0  0  0  0
   57.5920   33.0440   44.4850 C   0  0  0  0  0  0  0  0  0  0  0  0
   58.3590   33.5500   45.6760 C   0  0  0  0  0  0  0  0  0  0  0  0
   59.2870   34.5960   45.5380 C   0  0  0  0  0  0  0  0  0  0  0  0
   60.0120   35.0430   46.6460 C   0  0  0  0  0  0  0  0  0  0  0  0
   59.8210   34.4480   47.8970 C   0  0  0  0  0  0  0  0  0  0  0  0
   60.5260   34.8820   48.9700 F   0  0  0  0  0  0  0  0  0  0  0  0
   58.9030   33.4030   48.0400 C   0  0  0  0  0  0  0  0  0  0  0  0
   58.1760   32.9520   46.9350 C   0  0  0  0  0  0  0  0  0  0  0  0
  1  2  2  0
  2  3  1  0
  3  4  2  3
  4  5  1  0
  5  6  1  0
  6  7  1  0
  7  8  2  0
  7  9  1  0
  9 10  1  0
 10 11  1  0
  3 12  1  0
 12 13  2  0
 13 14  1  0
 13 15  1  0
 15 16  1  0
 16 17  1  0
 17 18  2  0
 17 19  1  0
 19 20  1  0
 20 21  1  0
 21 22  2  0
 22 23  1  0
 23 24  2  0
 24 25  1  0
 24 26  1  0
 26 27  2  0
 15  2  1  0
 27 21  1  0
 10  5  2  0
M  CHG  3   6  -1   9  -1  19  -1
M  END
>  <UniqueID>  (3032) 
35

>  <SMILES>  (3032) 
C=c1c(=Cc2[n-]c(=O)[n-]c2O)cc(C)n1CC(=O)[N-]Cc1ccc(F)cc1

>  <Energy>  (3032) 
110.13229515199843

>  <Genealogy>  (3032) 
C=c1c(=Cc2[n-]c(=O)[n-]c2O)cc(C)n1CC(=O)[N-]Cc1ccc(F)cc1 (protonated)
C=c1c(=Cc2[n-]c(=O)[n-]c2O)cc(C)n1CC(=O)[N-]Cc1ccc(F)cc1 (3D coordinates assigned)
C=c1c(=Cc2[n-]c(=O)[n-]c2O)cc(C)n1CC(=O)[N-]Cc1ccc(F)cc1 (optimized conformer: 110.13229515199843 kcal/mol)

>  <smiles>  (3032) 
C=c1c(=Cc2[nH]c(=O)[nH]c2O)cc(C)n1CC(=O)NCc1ccc(F)cc1

>  <score_type>  (3032) 
oracle

>  <origin>  (3032) 
adg

>  <m_score__min__energy>  (3032) 
-14.09

>  <m_primary>  (3032) 
energy

$$$$
58:0
     RDKit          3D

 31 35  0  0  0  0  0  0  0  0999 V2000
   59.5250   28.7110   47.7940 C   0  0  0  0  0  0  0  0  0  0  0  0
   59.2270   29.4180   46.6920 C   0  0  0  0  0  0  0  0  0  0  0  0
   58.7440   28.9070   45.4820 C   0  0  0  0  0  0  0  0  0  0  0  0
   58.4680   27.6210   45.1910 C   0  0  0  0  0  0  0  0  0  0  0  0
   57.2560   26.9150   45.6470 C   0  0  0  0  0  0  0  0  0  0  0  0
   57.2600   25.6350   46.0560 N   0  0  0  0  0  0  0  0  0  0  0  0
   55.9560   25.3760   46.2930 C   0  0  0  0  0  0  0  0  0  0  0  0
   55.5500   24.2610   46.7120 O   0  0  0  0  0  0  0  0  0  0  0  0
   55.1190   26.4040   46.0350 N   0  0  0  0  0  0  0  0  0  0  0  0
   55.9550   27.3670   45.6150 C   0  0  0  0  0  0  0  0  0  0  0  0
   55.5290   28.6110   45.1690 O   0  0  0  0  0  0  0  0  0  0  0  0
   58.5390   30.0030   44.6510 C   0  0  0  0  0  0  0  0  0  0  0  0
   58.9190   31.1190   45.3690 C   0  0  0  0  0  0  0  0  0  0  0  0
   58.8240   32.5270   44.8650 C   0  0  0  0  0  0  0  0  0  0  0  0
   59.3330   30.7670   46.6070 N   0  0  0  0  0  0  0  0  0  0  0  0
   59.7810   31.6730   47.6290 C   0  0  0  0  0  0  0  0  0  0  0  0
   61.0750   31.5510   48.1560 C   0  0  0  0  0  0  0  0  0  0  0  0
   61.5240   32.4200   49.1670 C   0  0  0  0  0  0  0  0  0  0  0  0
   62.8550   32.2900   49.7120 N   0  0  0  0  0  0  0  0  0  0  0  0
   64.0350   32.4920   48.8620 C   0  0  0  0  0  0  0  0  0  0  0  0
   65.1700   33.1180   49.6840 C   0  0  0  0  0  0  0  0  0  0  0  0
   65.4940   32.3480   50.9210 N   0  0  0  0  0  0  0  0  0  0  0  0
   66.0300   33.2290   52.0060 C   0  0  0  0  0  0  0  0  0  0  0  0
   65.6570   34.7170   52.0410 C   0  0  0  0  0  0  0  0  0  0  0  0
   67.0420   34.2970   51.5870 C   0  0  0  0  0  0  0  0  0  0  0  0
   64.4810   31.3300   51.3090 C   0  0  0  0  0  0  0  0  0  0  0  0
   63.0400   31.8100   51.0880 C   0  0  0  0  0  0  0  0  0  0  0  0
   60.6490   33.4110   49.6480 C   0  0  0  0  0  0  0  0  0  0  0  0
   59.3590   33.5320   49.1270 C   0  0  0  0  0  0  0  0  0  0  0  0
   58.9220   32.6670   48.1220 C   0  0  0  0  0  0  0  0  0  0  0  0
   57.6610   32.7840   47.6380 F   0  0  0  0  0  0  0  0  0  0  0  0
  1  2  2  0
  2  3  1  0
  3  4  2  0
  4  5  1  0
  5  6  1  0
  6  7  1  0
  7  8  2  0
  7  9  1  0
  9 10  1  0
 10 11  1  0
  3 12  1  0
 12 13  2  0
 13 14  1  0
 13 15  1  0
 15 16  1  0
 16 17  2  0
 17 18  1  0
 18 19  1  0
 19 20  1  0
 20 21  1  0
 21 22  1  0
 22 23  1  0
 23 24  1  0
 24 25  1  0
 22 26  1  0
 26 27  1  0
 18 28  2  0
 28 29  1  0
 29 30  2  0
 30 31  1  0
 15  2  1  0
 30 16  1  0
 10  5  2  0
 27 19  1  0
 25 23  1  0
M  CHG  4   6  -1   9  -1  11  -1  22   1
M  END
>  <UniqueID>  (3033) 
55

>  <SMILES>  (3033) 
C=c1/c(=C/c2[n-]c(=O)[n-]c2[O-])cc(C)n1-c1cc(N2CC[NH+](C3CC3)CC2)ccc1F

>  <Energy>  (3033) 
418.82245731435717

>  <Genealogy>  (3033) 
C=c1c(=Cc2[n-]c(=O)[n-]c2[O-])cc(C)n1-c1cc(N2CC[NH+](C3CC3)CC2)ccc1F (protonated)
C=c1/c(=C/c2[n-]c(=O)[n-]c2[O-])cc(C)n1-c1cc(N2CC[NH+](C3CC3)CC2)ccc1F (cis-trans isomerization)
C=c1/c(=C/c2[n-]c(=O)[n-]c2[O-])cc(C)n1-c1cc(N2CC[NH+](C3CC3)CC2)ccc1F (3D coordinates assigned)
C=c1/c(=C/c2[n-]c(=O)[n-]c2[O-])cc(C)n1-c1cc(N2CC[NH+](C3CC3)CC2)ccc1F (nonaromatic ring conformer: 418.82245731435717 kcal/mol)

>  <smiles>  (3033) 
C=c1c(=Cc2[nH]c(=O)[nH]c2O)cc(C)n1-c1cc(N2CCN(C3CC3)CC2)ccc1F

>  <score_type>  (3033) 
oracle

>  <origin>  (3033) 
adg

>  <m_score__min__energy>  (3033) 
-15.59

>  <m_primary>  (3033) 
energy

$$$$
63:0
     RDKit          3D

 27 30  0  0  0  0  0  0  0  0999 V2000
   58.1940   32.6800   43.0150 C   0  0  0  0  0  0  0  0  0  0  0  0
   57.9610   31.6420   43.8220 C   0  0  0  0  0  0  0  0  0  0  0  0
   57.9910   31.6460   45.2120 C   0  0  0  0  0  0  0  0  0  0  0  0
   58.3240   32.7600   46.1210 C   0  0  0  0  0  0  0  0  0  0  0  0
   57.3920   33.4850   46.5620 O   0  0  0  0  0  0  0  0  0  0  0  0
   59.6760   33.0020   46.5440 N   0  0  0  0  0  0  0  0  0  0  0  0
   60.5220   31.8710   46.9580 C   0  0  0  0  0  0  0  0  0  0  0  0
   61.8620   32.3470   47.5300 C   0  0  0  0  0  0  0  0  0  0  0  0
   61.6480   33.4370   48.6030 C   0  0  0  0  0  0  0  0  0  0  0  0
   62.9590   33.9220   49.1030 N   0  0  0  0  0  0  0  0  0  0  0  0
   63.1000   33.9740   50.5700 C   0  0  0  0  0  0  0  0  0  0  0  0
   64.3580   33.2050   50.9430 C   0  0  0  0  0  0  0  0  0  0  0  0
   65.1510   33.1160   49.6600 C   0  0  0  0  0  0  0  0  0  0  0  0
   64.1030   33.1690   48.5670 C   0  0  0  0  0  0  0  0  0  0  0  0
   60.6880   34.5810   48.1360 C   0  0  0  0  0  0  0  0  0  0  0  0
   60.1600   34.3790   46.7120 C   0  0  0  0  0  0  0  0  0  0  0  0
   57.6090   30.3800   45.6160 C   0  0  0  0  0  0  0  0  0  0  0  0
   57.3790   29.6550   44.4590 C   0  0  0  0  0  0  0  0  0  0  0  0
   57.0240   28.3620   44.4380 C   0  0  0  0  0  0  0  0  0  0  0  0
   57.2420   27.4270   45.5560 C   0  0  0  0  0  0  0  0  0  0  0  0
   58.4360   27.2530   46.1490 N   0  0  0  0  0  0  0  0  0  0  0  0
   58.1650   26.3970   47.1570 C   0  0  0  0  0  0  0  0  0  0  0  0
   59.0490   25.9760   47.9460 O   0  0  0  0  0  0  0  0  0  0  0  0
   56.8680   26.0350   47.2590 N   0  0  0  0  0  0  0  0  0  0  0  0
   56.2940   26.7050   46.2470 C   0  0  0  0  0  0  0  0  0  0  0  0
   54.9280   26.6930   45.9940 O   0  0  0  0  0  0  0  0  0  0  0  0
   57.6040   30.4230   43.3690 N   0  0  0  0  0  0  0  0  0  0  0  0
  1  2  2  0
  2  3  1  0
  3  4  1  0
  4  5  2  0
  4  6  1  0
  6  7  1  0
  7  8  1  0
  8  9  1  0
  9 10  1  0
 10 11  1  0
 11 12  1  0
 12 13  1  0
 13 14  1  0
  9 15  1  0
 15 16  1  0
  3 17  2  0
 17 18  1  0
 18 19  2  0
 19 20  1  0
 20 21  1  0
 21 22  1  0
 22 23  2  0
 22 24  1  0
 24 25  1  0
 25 26  1  0
 18 27  1  0
 27  2  1  0
 16  6  1  0
 25 20  2  0
 14 10  1  0
M  CHG  3  21  -1  24  -1  26  -1
M  END
>  <UniqueID>  (3034) 
60

>  <SMILES>  (3034) 
C=c1[nH]/c(=C\c2[n-]c(=O)[n-]c2[O-])cc1C(=O)N1CCC(N2CCCC2)CC1

>  <Energy>  (3034) 
126.44746711883624

>  <Genealogy>  (3034) 
C=c1[nH]c(=Cc2[n-]c(=O)[n-]c2[O-])cc1C(=O)N1CCC(N2CCCC2)CC1 (protonated)
C=c1[nH]/c(=C\c2[n-]c(=O)[n-]c2[O-])cc1C(=O)N1CCC(N2CCCC2)CC1 (cis-trans isomerization)
C=c1[nH]/c(=C\c2[n-]c(=O)[n-]c2[O-])cc1C(=O)N1CCC(N2CCCC2)CC1 (3D coordinates assigned)
C=c1[nH]/c(=C\c2[n-]c(=O)[n-]c2[O-])cc1C(=O)N1CCC(N2CCCC2)CC1 (nonaromatic ring conformer: 126.44746711883624 kcal/mol)

>  <smiles>  (3034) 
C=c1[nH]c(=Cc2[nH]c(=O)[nH]c2O)cc1C(=O)N1CCC(N2CCCC2)CC1

>  <score_type>  (3034) 
oracle

>  <origin>  (3034) 
adg

>  <m_score__min__energy>  (3034) 
-17.25

>  <m_primary>  (3034) 
energy

$$$$
72:0
     RDKit          3D

 29 32  0  0  0  0  0  0  0  0999 V2000
   57.7640   25.1170   47.7500 C   0  0  0  0  0  0  0  0  0  0  0  0
   57.6270   26.1550   46.9240 C   0  0  0  0  0  0  0  0  0  0  0  0
   57.9470   27.3750   47.2930 O   0  0  0  0  0  0  0  0  0  0  0  0
   57.7780   28.1910   46.2780 C   0  0  0  0  0  0  0  0  0  0  0  0
   58.0680   29.6340   46.3440 C   0  0  0  0  0  0  0  0  0  0  0  0
   57.3810   30.4190   45.6360 O   0  0  0  0  0  0  0  0  0  0  0  0
   59.0960   30.1700   47.1980 N   0  0  0  0  0  0  0  0  0  0  0  0
   60.3860   29.4810   47.3540 C   0  0  0  0  0  0  0  0  0  0  0  0
   61.5420   30.4810   47.2180 C   0  0  0  0  0  0  0  0  0  0  0  0
   61.3000   31.7160   47.9840 N   0  0  0  0  0  0  0  0  0  0  0  0
   62.3310   32.7270   48.0140 C   0  0  0  0  0  0  0  0  0  0  0  0
   63.4940   32.4460   47.6130 O   0  0  0  0  0  0  0  0  0  0  0  0
   62.0670   34.1110   48.5360 C   0  0  0  0  0  0  0  0  0  0  0  0
   62.9540   34.5230   49.7030 C   0  0  0  0  0  0  0  0  0  0  0  0
   61.4970   34.1730   49.9470 C   0  0  0  0  0  0  0  0  0  0  0  0
   60.0500   31.8560   48.7470 C   0  0  0  0  0  0  0  0  0  0  0  0
   58.8600   31.4560   47.8700 C   0  0  0  0  0  0  0  0  0  0  0  0
   57.3340   27.4860   45.1750 C   0  0  0  0  0  0  0  0  0  0  0  0
   57.2030   26.1710   45.5870 C   0  0  0  0  0  0  0  0  0  0  0  0
   56.7520   25.1880   44.7840 C   0  0  0  0  0  0  0  0  0  0  0  0
   55.5230   24.4050   45.0030 C   0  0  0  0  0  0  0  0  0  0  0  0
   54.4060   24.9940   45.6120 C   0  0  0  0  0  0  0  0  0  0  0  0
   54.4210   26.3360   45.9710 O   0  0  0  0  0  0  0  0  0  0  0  0
   53.2930   24.2520   45.8490 N   0  0  0  0  0  0  0  0  0  0  0  0
   53.2450   22.9350   45.5180 C   0  0  0  0  0  0  0  0  0  0  0  0
   52.2010   22.2690   45.7430 O   0  0  0  0  0  0  0  0  0  0  0  0
   54.3230   22.3370   44.9500 N   0  0  0  0  0  0  0  0  0  0  0  0
   55.4590   23.0350   44.6940 C   0  0  0  0  0  0  0  0  0  0  0  0
   56.4480   22.4430   44.1830 O   0  0  0  0  0  0  0  0  0  0  0  0
  1  2  2  0
  2  3  1  0
  3  4  1  0
  4  5  1  0
  5  6  2  0
  5  7  1  0
  7  8  1  0
  8  9  1  0
  9 10  1  0
 10 11  1  0
 11 12  2  0
 11 13  1  0
 13 14  1  0
 14 15  1  0
 10 16  1  0
 16 17  1  0
  4 18  2  0
 18 19  1  0
 19 20  2  0
 20 21  1  0
 21 22  2  0
 22 23  1  0
 22 24  1  0
 24 25  1  0
 25 26  2  0
 25 27  1  0
 27 28  1  0
 28 29  2  0
 19  2  1  0
 28 21  1  0
 17  7  1  0
 15 13  1  0
M  CHG  3  23  -1  24  -1  27  -1
M  END
>  <UniqueID>  (3035) 
69

>  <SMILES>  (3035) 
C=c1oc(C(=O)N2CCN(C(=O)C3CC3)CC2)c/c1=C/c1c([O-])[n-]c(=O)[n-]c1=O

>  <Energy>  (3035) 
356.48737471579176

>  <Genealogy>  (3035) 
C=c1oc(C(=O)N2CCN(C(=O)C3CC3)CC2)cc1=Cc1c([O-])[n-]c(=O)[n-]c1=O (protonated)
C=c1oc(C(=O)N2CCN(C(=O)C3CC3)CC2)c/c1=C/c1c([O-])[n-]c(=O)[n-]c1=O (cis-trans isomerization)
C=c1oc(C(=O)N2CCN(C(=O)C3CC3)CC2)c/c1=C/c1c([O-])[n-]c(=O)[n-]c1=O (3D coordinates assigned)
C=c1oc(C(=O)N2CCN(C(=O)C3CC3)CC2)c/c1=C/c1c([O-])[n-]c(=O)[n-]c1=O (nonaromatic ring conformer: 356.48737471579176 kcal/mol)

>  <smiles>  (3035) 
C=c1oc(C(=O)N2CCN(C(=O)C3CC3)CC2)cc1=Cc1c(O)[nH]c(=O)[nH]c1=O

>  <score_type>  (3035) 
oracle

>  <origin>  (3035) 
adg

>  <m_score__min__energy>  (3035) 
-15.390000000000001

>  <m_primary>  (3035) 
energy

$$$$
85:0
     RDKit          3D

 32 35  0  0  0  0  0  0  0  0999 V2000
   55.1410   27.8370   53.7310 C   0  0  0  0  0  0  0  0  0  0  0  0
   55.4310   29.0780   53.3080 C   0  0  0  0  0  0  0  0  0  0  0  0
   54.5430   29.9770   52.6940 C   0  0  0  0  0  0  0  0  0  0  0  0
   53.2000   29.9570   52.5780 C   0  0  0  0  0  0  0  0  0  0  0  0
   52.3630   31.0590   52.0750 C   0  0  0  0  0  0  0  0  0  0  0  0
   51.8120   31.9930   52.8710 N   0  0  0  0  0  0  0  0  0  0  0  0
   51.0280   32.7020   52.0290 C   0  0  0  0  0  0  0  0  0  0  0  0
   50.3440   33.6890   52.4080 O   0  0  0  0  0  0  0  0  0  0  0  0
   51.0210   32.2600   50.7540 N   0  0  0  0  0  0  0  0  0  0  0  0
   51.8580   31.2080   50.8010 C   0  0  0  0  0  0  0  0  0  0  0  0
   52.1360   30.3890   49.7130 O   0  0  0  0  0  0  0  0  0  0  0  0
   55.3220   30.9940   52.1760 C   0  0  0  0  0  0  0  0  0  0  0  0
   56.6280   30.7350   52.5460 C   0  0  0  0  0  0  0  0  0  0  0  0
   57.7820   31.5730   52.1430 C   0  0  0  0  0  0  0  0  0  0  0  0
   57.9460   32.7070   52.6640 O   0  0  0  0  0  0  0  0  0  0  0  0
   58.7470   31.0860   51.1910 N   0  0  0  0  0  0  0  0  0  0  0  0
   60.1590   31.4390   51.3390 C   0  0  0  0  0  0  0  0  0  0  0  0
   61.0430   30.2670   50.8850 C   0  0  0  0  0  0  0  0  0  0  0  0
   60.6550   29.7280   49.5620 N   0  0  0  0  0  0  0  0  0  0  0  0
   61.0680   30.5900   48.4330 C   0  0  0  0  0  0  0  0  0  0  0  0
   59.9570   30.7320   47.4180 C   0  0  0  0  0  0  0  0  0  0  0  0
   59.6100   29.6430   46.5930 C   0  0  0  0  0  0  0  0  0  0  0  0
   58.5630   29.7570   45.6730 C   0  0  0  0  0  0  0  0  0  0  0  0
   57.8380   30.9520   45.5810 C   0  0  0  0  0  0  0  0  0  0  0  0
   56.7950   31.0580   44.6710 O   0  0  0  0  0  0  0  0  0  0  0  0
   58.1600   32.0310   46.4080 C   0  0  0  0  0  0  0  0  0  0  0  0
   59.2130   31.9260   47.3240 C   0  0  0  0  0  0  0  0  0  0  0  0
   59.5040   32.9930   48.1150 F   0  0  0  0  0  0  0  0  0  0  0  0
   59.2220   29.3680   49.5130 C   0  0  0  0  0  0  0  0  0  0  0  0
   58.3170   30.5420   49.9020 C   0  0  0  0  0  0  0  0  0  0  0  0
   56.6940   29.5860   53.2610 N   0  0  0  0  0  0  0  0  0  0  0  0
   57.9160   28.9820   53.8030 C   0  0  0  0  0  0  0  0  0  0  0  0
  1  2  2  0
  2  3  1  0
  3  4  2  3
  4  5  1  0
  5  6  1  0
  6  7  1  0
  7  8  2  0
  7  9  1  0
  9 10  1  0
 10 11  1  0
  3 12  1  0
 12 13  2  0
 13 14  1  0
 14 15  2  0
 14 16  1  0
 16 17  1  0
 17 18  1  0
 18 19  1  0
 19 20  1  0
 20 21  1  0
 21 22  2  0
 22 23  1  0
 23 24  2  0
 24 25  1  0
 24 26  1  0
 26 27  2  0
 27 28  1  0
 19 29  1  0
 29 30  1  0
 13 31  1  0
 31 32  1  0
 31  2  1  0
 10  5  2  0
 30 16  1  0
 27 21  1  0
M  CHG  3   6  -1   9  -1  25  -1
M  END
>  <UniqueID>  (3036) 
81

>  <SMILES>  (3036) 
C=c1c(=Cc2[n-]c(=O)[n-]c2O)cc(C(=O)N2CCN(Cc3ccc([O-])cc3F)CC2)n1C

>  <Energy>  (3036) 
135.1337535615277

>  <Genealogy>  (3036) 
C=c1c(=Cc2[n-]c(=O)[n-]c2O)cc(C(=O)N2CCN(Cc3ccc([O-])cc3F)CC2)n1C (protonated)
C=c1c(=Cc2[n-]c(=O)[n-]c2O)cc(C(=O)N2CCN(Cc3ccc([O-])cc3F)CC2)n1C (3D coordinates assigned)
C=c1c(=Cc2[n-]c(=O)[n-]c2O)cc(C(=O)N2CCN(Cc3ccc([O-])cc3F)CC2)n1C (nonaromatic ring conformer: 135.1337535615277 kcal/mol)

>  <smiles>  (3036) 
C=c1c(=Cc2[nH]c(=O)[nH]c2O)cc(C(=O)N2CCN(Cc3ccc(O)cc3F)CC2)n1C

>  <score_type>  (3036) 
oracle

>  <origin>  (3036) 
adg

>  <m_score__min__energy>  (3036) 
-14.18

>  <m_primary>  (3036) 
energy

$$$$
9:0
     RDKit          3D

 30 32  0  0  0  0  0  0  0  0999 V2000
   52.1530   28.3700   54.0490 C   0  0  0  0  0  0  0  0  0  0  0  0
   53.3510   28.8040   53.6080 C   0  0  0  0  0  0  0  0  0  0  0  0
   54.4550   27.9550   53.8160 C   0  0  0  0  0  0  0  0  0  0  0  0
   55.7430   28.3390   53.4600 C   0  0  0  0  0  0  0  0  0  0  0  0
   55.9790   29.5850   52.8660 C   0  0  0  0  0  0  0  0  0  0  0  0
   57.3550   30.0160   52.4770 C   0  0  0  0  0  0  0  0  0  0  0  0
   58.2410   29.1440   52.2650 O   0  0  0  0  0  0  0  0  0  0  0  0
   57.7320   31.4610   52.2870 C   0  0  0  0  0  0  0  0  0  0  0  0
   57.3900   31.9300   50.8690 C   0  0  0  0  0  0  0  0  0  0  0  0
   58.6110   32.4840   50.1870 C   0  0  0  0  0  0  0  0  0  0  0  0
   58.6170   32.6920   48.8000 C   0  0  0  0  0  0  0  0  0  0  0  0
   59.7630   33.1760   48.1610 C   0  0  0  0  0  0  0  0  0  0  0  0
   60.9290   33.4540   48.9010 C   0  0  0  0  0  0  0  0  0  0  0  0
   62.1300   33.9510   48.2830 N   0  0  0  0  0  0  0  0  0  0  0  0
   63.5090   32.9770   47.8740 S   0  0  0  0  0  0  0  0  0  0  0  0
   64.7310   33.0720   49.1640 C   0  0  0  0  0  0  0  0  0  0  0  0
   63.0680   31.5470   47.7370 O   0  0  0  0  0  0  0  0  0  0  0  0
   64.0890   33.4290   46.5640 O   0  0  0  0  0  0  0  0  0  0  0  0
   60.9190   33.2310   50.2870 C   0  0  0  0  0  0  0  0  0  0  0  0
   59.7740   32.7470   50.9250 C   0  0  0  0  0  0  0  0  0  0  0  0
   54.8860   30.4360   52.6280 C   0  0  0  0  0  0  0  0  0  0  0  0
   53.5610   30.0800   52.9870 C   0  0  0  0  0  0  0  0  0  0  0  0
   52.5320   30.9180   52.6860 C   0  0  0  0  0  0  0  0  0  0  0  0
   52.0000   31.1670   51.3310 C   0  0  0  0  0  0  0  0  0  0  0  0
   51.9940   30.2390   50.3560 N   0  0  0  0  0  0  0  0  0  0  0  0
   51.3310   30.8470   49.3490 C   0  0  0  0  0  0  0  0  0  0  0  0
   51.1280   30.2900   48.2390 O   0  0  0  0  0  0  0  0  0  0  0  0
   50.8870   32.0910   49.6300 N   0  0  0  0  0  0  0  0  0  0  0  0
   51.3070   32.2750   50.8920 C   0  0  0  0  0  0  0  0  0  0  0  0
   51.0280   33.4140   51.6370 O   0  0  0  0  0  0  0  0  0  0  0  0
  1  2  2  0
  2  3  1  0
  3  4  2  0
  4  5  1  0
  5  6  1  0
  6  7  2  0
  6  8  1  0
  8  9  1  0
  9 10  1  0
 10 11  2  0
 11 12  1  0
 12 13  2  0
 13 14  1  0
 14 15  1  0
 15 16  1  0
 15 17  2  0
 15 18  2  0
 13 19  1  0
 19 20  2  0
  5 21  2  0
 21 22  1  0
 22 23  2  3
 23 24  1  0
 24 25  1  0
 25 26  1  0
 26 27  2  0
 26 28  1  0
 28 29  1  0
 29 30  1  0
 22  2  1  0
 29 24  2  0
 20 10  1  0
M  CHG  3  25  -1  28  -1  30  -1
M  END
>  <UniqueID>  (3037) 
10

>  <SMILES>  (3037) 
C=c1ccc(C(=O)CCc2ccc(NS(C)(=O)=O)cc2)cc1=Cc1[n-]c(=O)[n-]c1[O-]

>  <Energy>  (3037) 
94.0760113753547

>  <Genealogy>  (3037) 
C=c1ccc(C(=O)CCc2ccc(NS(C)(=O)=O)cc2)cc1=Cc1[n-]c(=O)[n-]c1[O-] (protonated)
C=c1ccc(C(=O)CCc2ccc(NS(C)(=O)=O)cc2)cc1=Cc1[n-]c(=O)[n-]c1[O-] (3D coordinates assigned)
C=c1ccc(C(=O)CCc2ccc(NS(C)(=O)=O)cc2)cc1=Cc1[n-]c(=O)[n-]c1[O-] (optimized conformer: 94.0760113753547 kcal/mol)

>  <smiles>  (3037) 
C=c1ccc(C(=O)CCc2ccc(NS(C)(=O)=O)cc2)cc1=Cc1[nH]c(=O)[nH]c1O

>  <score_type>  (3037) 
oracle

>  <origin>  (3037) 
adg

>  <m_score__min__energy>  (3037) 
-18.91

>  <m_primary>  (3037) 
energy

$$$$
27:0
     RDKit          3D

 33 36  0  0  0  0  0  0  0  0999 V2000
   56.4070   29.2370   43.5900 C   0  0  0  0  0  0  0  0  0  0  0  0
   57.2470   29.3860   44.6270 C   0  0  0  0  0  0  0  0  0  0  0  0
   57.8880   28.3660   45.3500 C   0  0  0  0  0  0  0  0  0  0  0  0
   57.9860   27.0420   45.1170 C   0  0  0  0  0  0  0  0  0  0  0  0
   57.3980   25.9820   45.9480 C   0  0  0  0  0  0  0  0  0  0  0  0
   58.0800   24.9050   46.3780 N   0  0  0  0  0  0  0  0  0  0  0  0
   57.1380   24.1700   47.0090 C   0  0  0  0  0  0  0  0  0  0  0  0
   57.3970   23.0750   47.5710 O   0  0  0  0  0  0  0  0  0  0  0  0
   55.8950   24.6980   46.9810 N   0  0  0  0  0  0  0  0  0  0  0  0
   56.0740   25.8380   46.2940 C   0  0  0  0  0  0  0  0  0  0  0  0
   55.0450   26.7160   45.9700 O   0  0  0  0  0  0  0  0  0  0  0  0
   58.4510   28.9730   46.4590 C   0  0  0  0  0  0  0  0  0  0  0  0
   58.1880   30.3240   46.3580 C   0  0  0  0  0  0  0  0  0  0  0  0
   58.5380   31.3130   47.4000 C   0  0  0  0  0  0  0  0  0  0  0  0
   58.1480   32.5060   47.2740 O   0  0  0  0  0  0  0  0  0  0  0  0
   59.2630   30.9260   48.5820 N   0  0  0  0  0  0  0  0  0  0  0  0
   60.3060   29.8930   48.5140 C   0  0  0  0  0  0  0  0  0  0  0  0
   61.5070   30.2950   49.3780 C   0  0  0  0  0  0  0  0  0  0  0  0
   61.0840   30.6790   50.7340 N   0  0  0  0  0  0  0  0  0  0  0  0
   62.0320   30.6480   51.8150 C   0  0  0  0  0  0  0  0  0  0  0  0
   61.6940   30.1590   52.9260 O   0  0  0  0  0  0  0  0  0  0  0  0
   63.4170   31.2130   51.6520 C   0  0  0  0  0  0  0  0  0  0  0  0
   63.4160   32.2810   50.5800 C   0  0  0  0  0  0  0  0  0  0  0  0
   64.1480   32.0390   49.4030 C   0  0  0  0  0  0  0  0  0  0  0  0
   64.1440   32.9670   48.3590 C   0  0  0  0  0  0  0  0  0  0  0  0
   63.4110   34.1460   48.4740 C   0  0  0  0  0  0  0  0  0  0  0  0
   62.6730   34.4010   49.6320 C   0  0  0  0  0  0  0  0  0  0  0  0
   62.6550   33.4760   50.6910 C   0  0  0  0  0  0  0  0  0  0  0  0
   61.8370   33.7830   51.9190 C   0  0  0  0  0  0  0  0  0  0  0  0
   59.6670   30.9180   51.0310 C   0  0  0  0  0  0  0  0  0  0  0  0
   58.9820   31.6130   49.8500 C   0  0  0  0  0  0  0  0  0  0  0  0
   57.4810   30.5820   45.2310 N   0  0  0  0  0  0  0  0  0  0  0  0
   57.0070   31.8970   44.7860 C   0  0  0  0  0  0  0  0  0  0  0  0
  1  2  2  0
  2  3  1  0
  3  4  2  3
  4  5  1  0
  5  6  1  0
  6  7  1  0
  7  8  2  0
  7  9  1  0
  9 10  1  0
 10 11  1  0
  3 12  1  0
 12 13  2  0
 13 14  1  0
 14 15  2  0
 14 16  1  0
 16 17  1  0
 17 18  1  0
 18 19  1  0
 19 20  1  0
 20 21  2  0
 20 22  1  0
 22 23  1  0
 23 24  2  0
 24 25  1  0
 25 26  2  0
 26 27  1  0
 27 28  2  0
 28 29  1  0
 19 30  1  0
 30 31  1  0
 13 32  1  0
 32 33  1  0
 32  2  1  0
 10  5  2  0
 31 16  1  0
 28 23  1  0
M  CHG  3   6  -1   9  -1  11  -1
M  END
>  <UniqueID>  (3038) 
28

>  <SMILES>  (3038) 
C=c1c(=Cc2[n-]c(=O)[n-]c2[O-])cc(C(=O)N2CCN(C(=O)Cc3ccccc3C)CC2)n1C

>  <Energy>  (3038) 
137.48468073778568

>  <Genealogy>  (3038) 
C=c1c(=Cc2[n-]c(=O)[n-]c2[O-])cc(C(=O)N2CCN(C(=O)Cc3ccccc3C)CC2)n1C (protonated)
C=c1c(=Cc2[n-]c(=O)[n-]c2[O-])cc(C(=O)N2CCN(C(=O)Cc3ccccc3C)CC2)n1C (3D coordinates assigned)
C=c1c(=Cc2[n-]c(=O)[n-]c2[O-])cc(C(=O)N2CCN(C(=O)Cc3ccccc3C)CC2)n1C (nonaromatic ring conformer: 137.48468073778568 kcal/mol)

>  <smiles>  (3038) 
C=c1c(=Cc2[nH]c(=O)[nH]c2O)cc(C(=O)N2CCN(C(=O)Cc3ccccc3C)CC2)n1C

>  <score_type>  (3038) 
oracle

>  <origin>  (3038) 
adg

>  <m_score__min__energy>  (3038) 
-18.420000000000002

>  <m_primary>  (3038) 
energy

$$$$
38:0
     RDKit          3D

 33 36  0  0  0  0  0  0  0  0999 V2000
   55.7800   28.3770   45.2370 O   0  0  0  0  0  0  0  0  0  0  0  0
   56.0010   27.0880   45.7280 C   0  0  0  0  0  0  0  0  0  0  0  0
   55.0320   26.1660   45.8350 N   0  0  0  0  0  0  0  0  0  0  0  0
   55.6860   25.1110   46.3610 C   0  0  0  0  0  0  0  0  0  0  0  0
   55.1140   24.0230   46.6230 O   0  0  0  0  0  0  0  0  0  0  0  0
   57.0030   25.3140   46.5930 N   0  0  0  0  0  0  0  0  0  0  0  0
   57.2000   26.5710   46.1630 C   0  0  0  0  0  0  0  0  0  0  0  0
   58.4730   27.2990   46.2770 C   0  0  0  0  0  0  0  0  0  0  0  0
   58.9640   27.8460   47.4060 C   0  0  0  0  0  0  0  0  0  0  0  0
   58.5070   29.0490   47.9080 C   0  0  0  0  0  0  0  0  0  0  0  0
   59.1790   29.2790   49.0890 C   0  0  0  0  0  0  0  0  0  0  0  0
   58.9440   30.4470   49.9600 C   0  0  0  0  0  0  0  0  0  0  0  0
   57.9020   30.4700   50.6620 O   0  0  0  0  0  0  0  0  0  0  0  0
   59.8680   31.5590   50.0020 N   0  0  0  0  0  0  0  0  0  0  0  0
   59.5160   32.7740   50.7440 C   0  0  0  0  0  0  0  0  0  0  0  0
   60.0420   34.0320   50.0370 C   0  0  0  0  0  0  0  0  0  0  0  0
   61.3420   33.8380   49.3560 N   0  0  0  0  0  0  0  0  0  0  0  0
   61.3800   34.2200   47.9270 C   0  0  0  0  0  0  0  0  0  0  0  0
   60.0840   33.8980   47.1570 C   0  0  0  0  0  0  0  0  0  0  0  0
   60.0990   32.5050   46.5550 C   0  0  0  0  0  0  0  0  0  0  0  0
   61.1220   31.7830   46.7190 O   0  0  0  0  0  0  0  0  0  0  0  0
   58.9490   31.9570   45.8610 N   0  0  0  0  0  0  0  0  0  0  0  0
   57.6120   32.5510   46.0150 C   0  0  0  0  0  0  0  0  0  0  0  0
   56.6990   32.1460   44.8540 C   0  0  0  0  0  0  0  0  0  0  0  0
   56.7090   30.7480   44.6700 O   0  0  0  0  0  0  0  0  0  0  0  0
   57.9950   30.3410   44.2480 C   0  0  0  0  0  0  0  0  0  0  0  0
   59.0300   30.5760   45.3540 C   0  0  0  0  0  0  0  0  0  0  0  0
   62.1040   32.6330   49.7340 C   0  0  0  0  0  0  0  0  0  0  0  0
   61.2730   31.3470   49.6280 C   0  0  0  0  0  0  0  0  0  0  0  0
   60.0480   28.2700   49.3400 N   0  0  0  0  0  0  0  0  0  0  0  0
   61.0170   28.2080   50.4390 C   0  0  0  0  0  0  0  0  0  0  0  0
   59.9580   27.4040   48.2960 C   0  0  0  0  0  0  0  0  0  0  0  0
   60.8130   26.3850   48.1120 C   0  0  0  0  0  0  0  0  0  0  0  0
  1  2  1  0
  2  3  1  0
  3  4  1  0
  4  5  2  0
  4  6  1  0
  6  7  1  0
  7  8  1  0
  8  9  2  0
  9 10  1  0
 10 11  2  0
 11 12  1  0
 12 13  2  0
 12 14  1  0
 14 15  1  0
 15 16  1  0
 16 17  1  0
 17 18  1  0
 18 19  1  0
 19 20  1  0
 20 21  2  0
 20 22  1  0
 22 23  1  0
 23 24  1  0
 24 25  1  0
 25 26  1  0
 26 27  1  0
 17 28  1  0
 28 29  1  0
 11 30  1  0
 30 31  1  0
 30 32  1  0
 32 33  2  0
  7  2  2  0
 32  9  1  0
 29 14  1  0
 27 22  1  0
M  CHG  2   3  -1   6  -1
M  END
>  <UniqueID>  (3039) 
38

>  <SMILES>  (3039) 
C=c1/c(=C\c2[n-]c(=O)[n-]c2O)cc(C(=O)N2CCN(CCC(=O)N3CCOCC3)CC2)n1C

>  <Energy>  (3039) 
150.60209909680623

>  <Genealogy>  (3039) 
C=c1c(=Cc2[n-]c(=O)[n-]c2O)cc(C(=O)N2CCN(CCC(=O)N3CCOCC3)CC2)n1C (protonated)
C=c1/c(=C\c2[n-]c(=O)[n-]c2O)cc(C(=O)N2CCN(CCC(=O)N3CCOCC3)CC2)n1C (cis-trans isomerization)
C=c1/c(=C\c2[n-]c(=O)[n-]c2O)cc(C(=O)N2CCN(CCC(=O)N3CCOCC3)CC2)n1C (3D coordinates assigned)
C=c1/c(=C\c2[n-]c(=O)[n-]c2O)cc(C(=O)N2CCN(CCC(=O)N3CCOCC3)CC2)n1C (nonaromatic ring conformer: 150.60209909680623 kcal/mol)

>  <smiles>  (3039) 
C=c1c(=Cc2[nH]c(=O)[nH]c2O)cc(C(=O)N2CCN(CCC(=O)N3CCOCC3)CC2)n1C

>  <score_type>  (3039) 
oracle

>  <origin>  (3039) 
adg

>  <m_score__min__energy>  (3039) 
-14.380000000000001

>  <m_primary>  (3039) 
energy

$$$$
41:0
     RDKit          3D

 34 38  0  0  0  0  0  0  0  0999 V2000
   60.5140   26.1780   46.4720 C   0  0  0  0  0  0  0  0  0  0  0  0
   60.0780   27.0020   47.4430 C   0  0  0  0  0  0  0  0  0  0  0  0
   61.0210   27.4160   48.4030 C   0  0  0  0  0  0  0  0  0  0  0  0
   60.7280   28.4240   49.3180 C   0  0  0  0  0  0  0  0  0  0  0  0
   59.4790   29.0520   49.3080 C   0  0  0  0  0  0  0  0  0  0  0  0
   59.1620   30.0990   50.3060 C   0  0  0  0  0  0  0  0  0  0  0  0
   58.0230   30.1370   50.8450 O   0  0  0  0  0  0  0  0  0  0  0  0
   60.1520   31.0680   50.6700 N   0  0  0  0  0  0  0  0  0  0  0  0
   60.5140   32.2020   49.8270 C   0  0  0  0  0  0  0  0  0  0  0  0
   59.6050   32.5830   48.6970 C   0  0  0  0  0  0  0  0  0  0  0  0
   58.4860   33.1080   48.9410 O   0  0  0  0  0  0  0  0  0  0  0  0
   59.9940   32.3260   47.3410 N   0  0  0  0  0  0  0  0  0  0  0  0
   59.8990   33.3950   46.3460 C   0  0  0  0  0  0  0  0  0  0  0  0
   58.6200   33.2220   45.5250 C   0  0  0  0  0  0  0  0  0  0  0  0
   58.4730   31.8260   45.0600 N   0  0  0  0  0  0  0  0  0  0  0  0
   57.7760   31.5720   43.8170 C   0  0  0  0  0  0  0  0  0  0  0  0
   57.3940   32.5380   43.1010 O   0  0  0  0  0  0  0  0  0  0  0  0
   57.4370   30.1750   43.3720 C   0  0  0  0  0  0  0  0  0  0  0  0
   56.5270   29.3960   44.3140 C   0  0  0  0  0  0  0  0  0  0  0  0
   55.9730   29.9530   43.0120 C   0  0  0  0  0  0  0  0  0  0  0  0
   58.6650   30.7440   46.0480 C   0  0  0  0  0  0  0  0  0  0  0  0
   59.9650   30.9560   46.8290 C   0  0  0  0  0  0  0  0  0  0  0  0
   62.0070   32.3200   49.5610 C   0  0  0  0  0  0  0  0  0  0  0  0
   61.3180   33.2920   50.5160 C   0  0  0  0  0  0  0  0  0  0  0  0
   58.5120   28.6280   48.3780 C   0  0  0  0  0  0  0  0  0  0  0  0
   58.7580   27.5630   47.4820 C   0  0  0  0  0  0  0  0  0  0  0  0
   57.7040   27.1380   46.7390 C   0  0  0  0  0  0  0  0  0  0  0  0
   57.1500   25.7730   46.7220 C   0  0  0  0  0  0  0  0  0  0  0  0
   57.8820   24.6660   46.9350 N   0  0  0  0  0  0  0  0  0  0  0  0
   56.9970   23.6650   46.7320 C   0  0  0  0  0  0  0  0  0  0  0  0
   57.3080   22.4510   46.8480 O   0  0  0  0  0  0  0  0  0  0  0  0
   55.7550   24.0660   46.3770 N   0  0  0  0  0  0  0  0  0  0  0  0
   55.8710   25.4050   46.3670 C   0  0  0  0  0  0  0  0  0  0  0  0
   54.8380   26.2730   46.0260 O   0  0  0  0  0  0  0  0  0  0  0  0
  1  2  2  0
  2  3  1  0
  3  4  2  0
  4  5  1  0
  5  6  1  0
  6  7  2  0
  6  8  1  0
  8  9  1  0
  9 10  1  0
 10 11  2  0
 10 12  1  0
 12 13  1  0
 13 14  1  0
 14 15  1  0
 15 16  1  0
 16 17  2  0
 16 18  1  0
 18 19  1  0
 19 20  1  0
 15 21  1  0
 21 22  1  0
  9 23  1  0
 23 24  1  0
  5 25  2  0
 25 26  1  0
 26 27  2  3
 27 28  1  0
 28 29  1  0
 29 30  1  0
 30 31  2  0
 30 32  1  0
 32 33  1  0
 33 34  1  0
 26  2  1  0
 33 28  2  0
 24  9  1  0
 22 12  1  0
 20 18  1  0
M  CHG  3   8  -1  29  -1  32  -1
M  END
>  <UniqueID>  (3040) 
41

>  <SMILES>  (3040) 
C=c1ccc(C(=O)[N-]C2(C(=O)N3CCN(C(=O)C4CC4)CC3)CC2)cc1=Cc1[n-]c(=O)[n-]c1O

>  <Energy>  (3040) 
646.2732243797335

>  <Genealogy>  (3040) 
C=c1ccc(C(=O)[N-]C2(C(=O)N3CCN(C(=O)C4CC4)CC3)CC2)cc1=Cc1[n-]c(=O)[n-]c1O (protonated)
C=c1ccc(C(=O)[N-]C2(C(=O)N3CCN(C(=O)C4CC4)CC3)CC2)cc1=Cc1[n-]c(=O)[n-]c1O (3D coordinates assigned)
C=c1ccc(C(=O)[N-]C2(C(=O)N3CCN(C(=O)C4CC4)CC3)CC2)cc1=Cc1[n-]c(=O)[n-]c1O (nonaromatic ring conformer: 646.2732243797335 kcal/mol)

>  <smiles>  (3040) 
C=c1ccc(C(=O)NC2(C(=O)N3CCN(C(=O)C4CC4)CC3)CC2)cc1=Cc1[nH]c(=O)[nH]c1O

>  <score_type>  (3040) 
oracle

>  <origin>  (3040) 
adg

>  <m_score__min__energy>  (3040) 
-16.359999999999999

>  <m_primary>  (3040) 
energy

$$$$
49:0
     RDKit          3D

 30 32  0  0  0  0  0  0  0  0999 V2000
   54.7730   26.3230   45.9960 N   0  0  0  0  0  0  0  0  0  0  0  0
   56.3500   25.6590   46.2380 S   0  0  0  0  0  0  0  0  0  0  0  0
   56.3650   24.8600   47.5100 O   0  0  0  0  0  0  0  0  0  0  0  0
   56.6950   24.7470   45.0930 O   0  0  0  0  0  0  0  0  0  0  0  0
   57.5290   26.9620   46.3300 C   0  0  0  0  0  0  0  0  0  0  0  0
   58.5400   26.9380   47.3020 C   0  0  0  0  0  0  0  0  0  0  0  0
   59.4640   27.9830   47.3800 C   0  0  0  0  0  0  0  0  0  0  0  0
   59.3840   29.0570   46.4910 C   0  0  0  0  0  0  0  0  0  0  0  0
   58.3790   29.0930   45.5120 C   0  0  0  0  0  0  0  0  0  0  0  0
   58.2680   30.2700   44.5830 C   0  0  0  0  0  0  0  0  0  0  0  0
   56.9470   30.9450   44.7700 C   0  0  0  0  0  0  0  0  0  0  0  0
   55.8830   30.3120   44.5320 O   0  0  0  0  0  0  0  0  0  0  0  0
   56.9010   32.2790   45.2910 N   0  0  0  0  0  0  0  0  0  0  0  0
   57.9710   32.9080   46.0070 C   0  0  0  0  0  0  0  0  0  0  0  0
   58.5650   32.2050   47.0620 C   0  0  0  0  0  0  0  0  0  0  0  0
   59.5820   32.7920   47.8270 C   0  0  0  0  0  0  0  0  0  0  0  0
   60.3070   31.9180   49.1730 S   0  0  0  0  0  0  0  0  0  0  0  0
   60.3920   32.8180   50.3750 O   0  0  0  0  0  0  0  0  0  0  0  0
   59.4280   30.7470   49.5140 O   0  0  0  0  0  0  0  0  0  0  0  0
   61.9030   31.3690   48.7050 N   0  0  0  0  0  0  0  0  0  0  0  0
   62.2040   31.6830   47.2830 C   0  0  0  0  0  0  0  0  0  0  0  0
   63.3660   32.6750   47.0900 C   0  0  0  0  0  0  0  0  0  0  0  0
   63.2700   33.8250   48.0920 C   0  0  0  0  0  0  0  0  0  0  0  0
   63.2380   33.3230   49.5470 C   0  0  0  0  0  0  0  0  0  0  0  0
   62.9380   31.8150   49.6580 C   0  0  0  0  0  0  0  0  0  0  0  0
   60.0070   34.0910   47.5300 C   0  0  0  0  0  0  0  0  0  0  0  0
   59.4480   34.7850   46.4550 C   0  0  0  0  0  0  0  0  0  0  0  0
   58.4520   34.1940   45.6700 C   0  0  0  0  0  0  0  0  0  0  0  0
   57.9930   34.8890   44.5510 O   0  0  0  0  0  0  0  0  0  0  0  0
   57.4440   28.0460   45.4460 C   0  0  0  0  0  0  0  0  0  0  0  0
  1  2  1  0
  2  3  2  0
  2  4  2  0
  2  5  1  0
  5  6  2  0
  6  7  1  0
  7  8  2  0
  8  9  1  0
  9 10  1  0
 10 11  1  0
 11 12  2  0
 11 13  1  0
 13 14  1  0
 14 15  2  0
 15 16  1  0
 16 17  1  0
 17 18  2  0
 17 19  2  0
 17 20  1  0
 20 21  1  0
 21 22  1  0
 22 23  1  0
 23 24  1  0
 24 25  1  0
 16 26  2  0
 26 27  1  0
 27 28  2  0
 28 29  1  0
  9 30  2  0
 30  5  1  0
 28 14  1  0
 25 20  1  0
M  CHG  2   1  -1  13  -1
M  END
>  <UniqueID>  (3041) 
48

>  <SMILES>  (3041) 
[NH-]S(=O)(=O)c1cccc(CC(=O)[N-]c2cc(S(=O)(=O)N3CCCCC3)ccc2O)c1

>  <Energy>  (3041) 
63.68760221265007

>  <Genealogy>  (3041) 
[NH-]S(=O)(=O)c1cccc(CC(=O)[N-]c2cc(S(=O)(=O)N3CCCCC3)ccc2O)c1 (protonated)
[NH-]S(=O)(=O)c1cccc(CC(=O)[N-]c2cc(S(=O)(=O)N3CCCCC3)ccc2O)c1 (3D coordinates assigned)
[NH-]S(=O)(=O)c1cccc(CC(=O)[N-]c2cc(S(=O)(=O)N3CCCCC3)ccc2O)c1 (nonaromatic ring conformer: 63.68760221265007 kcal/mol)

>  <smiles>  (3041) 
NS(=O)(=O)c1cccc(CC(=O)Nc2cc(S(=O)(=O)N3CCCCC3)ccc2O)c1

>  <score_type>  (3041) 
oracle

>  <origin>  (3041) 
adg

>  <m_score__min__energy>  (3041) 
-14.09

>  <m_primary>  (3041) 
energy

$$$$
51:0
     RDKit          3D

 31 33  0  0  0  0  0  0  0  0999 V2000
   53.0030   31.0920   55.2280 C   0  0  0  0  0  0  0  0  0  0  0  0
   53.6560   30.5600   54.1830 C   0  0  0  0  0  0  0  0  0  0  0  0
   53.1310   30.2890   52.9100 C   0  0  0  0  0  0  0  0  0  0  0  0
   51.8610   30.2730   52.4610 C   0  0  0  0  0  0  0  0  0  0  0  0
   51.4150   30.7280   51.1340 C   0  0  0  0  0  0  0  0  0  0  0  0
   51.4440   29.9780   50.0160 N   0  0  0  0  0  0  0  0  0  0  0  0
   51.1030   30.8520   49.0450 C   0  0  0  0  0  0  0  0  0  0  0  0
   51.0050   30.5170   47.8350 O   0  0  0  0  0  0  0  0  0  0  0  0
   50.8860   32.1140   49.4700 N   0  0  0  0  0  0  0  0  0  0  0  0
   51.1020   32.0200   50.7930 C   0  0  0  0  0  0  0  0  0  0  0  0
   51.0210   33.0960   51.6680 O   0  0  0  0  0  0  0  0  0  0  0  0
   54.2120   29.9830   52.1040 C   0  0  0  0  0  0  0  0  0  0  0  0
   55.3300   29.9900   52.9110 C   0  0  0  0  0  0  0  0  0  0  0  0
   56.6830   29.6420   52.4380 C   0  0  0  0  0  0  0  0  0  0  0  0
   57.0140   28.4250   52.4130 O   0  0  0  0  0  0  0  0  0  0  0  0
   57.6370   30.6500   52.0430 N   0  0  0  0  0  0  0  0  0  0  0  0
   58.7360   30.2650   51.1420 C   0  0  0  0  0  0  0  0  0  0  0  0
   59.7300   31.4130   50.9450 C   0  0  0  0  0  0  0  0  0  0  0  0
   58.9960   32.6590   50.7070 N   0  0  0  0  0  0  0  0  0  0  0  0
   59.2970   33.5000   49.5850 C   0  0  0  0  0  0  0  0  0  0  0  0
   59.4480   34.7400   49.7600 O   0  0  0  0  0  0  0  0  0  0  0  0
   59.2790   32.9570   48.1850 C   0  0  0  0  0  0  0  0  0  0  0  0
   57.8330   32.7670   47.7150 C   0  0  0  0  0  0  0  0  0  0  0  0
   57.7110   32.9600   45.9440 S   0  0  0  0  0  0  0  0  0  0  0  0
   56.6570   33.9830   45.6180 O   0  0  0  0  0  0  0  0  0  0  0  0
   57.3440   31.6450   45.3100 O   0  0  0  0  0  0  0  0  0  0  0  0
   59.2800   33.5020   45.3010 C   0  0  0  0  0  0  0  0  0  0  0  0
   57.9390   33.0720   51.6390 C   0  0  0  0  0  0  0  0  0  0  0  0
   57.6400   31.9800   52.6770 C   0  0  0  0  0  0  0  0  0  0  0  0
   54.9990   30.3500   54.1740 N   0  0  0  0  0  0  0  0  0  0  0  0
   55.9310   30.6400   55.2720 C   0  0  0  0  0  0  0  0  0  0  0  0
  1  2  2  0
  2  3  1  0
  3  4  2  0
  4  5  1  0
  5  6  1  0
  6  7  1  0
  7  8  2  0
  7  9  1  0
  9 10  1  0
 10 11  1  0
  3 12  1  0
 12 13  2  0
 13 14  1  0
 14 15  2  0
 14 16  1  0
 16 17  1  0
 17 18  1  0
 18 19  1  0
 19 20  1  0
 20 21  2  0
 20 22  1  0
 22 23  1  0
 23 24  1  0
 24 25  2  0
 24 26  2  0
 24 27  1  0
 19 28  1  0
 28 29  1  0
 13 30  1  0
 30 31  1  0
 30  2  1  0
 10  5  2  0
 29 16  1  0
M  CHG  3   6  -1   9  -1  11  -1
M  END
>  <UniqueID>  (3042) 
50

>  <SMILES>  (3042) 
C=c1/c(=C\c2[n-]c(=O)[n-]c2[O-])cc(C(=O)N2CCN(C(=O)CCS(C)(=O)=O)CC2)n1C

>  <Energy>  (3042) 
120.98053527629224

>  <Genealogy>  (3042) 
C=c1c(=Cc2[n-]c(=O)[n-]c2[O-])cc(C(=O)N2CCN(C(=O)CCS(C)(=O)=O)CC2)n1C (protonated)
C=c1/c(=C\c2[n-]c(=O)[n-]c2[O-])cc(C(=O)N2CCN(C(=O)CCS(C)(=O)=O)CC2)n1C (cis-trans isomerization)
C=c1/c(=C\c2[n-]c(=O)[n-]c2[O-])cc(C(=O)N2CCN(C(=O)CCS(C)(=O)=O)CC2)n1C (3D coordinates assigned)
C=c1/c(=C\c2[n-]c(=O)[n-]c2[O-])cc(C(=O)N2CCN(C(=O)CCS(C)(=O)=O)CC2)n1C (nonaromatic ring conformer: 120.98053527629224 kcal/mol)

>  <smiles>  (3042) 
C=c1c(=Cc2[nH]c(=O)[nH]c2O)cc(C(=O)N2CCN(C(=O)CCS(C)(=O)=O)CC2)n1C

>  <score_type>  (3042) 
oracle

>  <origin>  (3042) 
adg

>  <m_score__min__energy>  (3042) 
-17.309999999999999

>  <m_primary>  (3042) 
energy

$$$$
61:0
     RDKit          3D

 31 34  0  0  0  0  0  0  0  0999 V2000
   58.5140   27.8150   48.3650 C   0  0  0  0  0  0  0  0  0  0  0  0
   59.3100   28.4890   47.5180 C   0  0  0  0  0  0  0  0  0  0  0  0
   59.2230   28.4930   46.1150 C   0  0  0  0  0  0  0  0  0  0  0  0
   58.5000   27.7340   45.2670 C   0  0  0  0  0  0  0  0  0  0  0  0
   57.2810   26.9870   45.6080 C   0  0  0  0  0  0  0  0  0  0  0  0
   57.2890   25.7390   46.1090 N   0  0  0  0  0  0  0  0  0  0  0  0
   55.9850   25.4990   46.3700 C   0  0  0  0  0  0  0  0  0  0  0  0
   55.5790   24.4060   46.8440 O   0  0  0  0  0  0  0  0  0  0  0  0
   55.1520   26.5260   46.0920 N   0  0  0  0  0  0  0  0  0  0  0  0
   55.9900   27.4660   45.6250 C   0  0  0  0  0  0  0  0  0  0  0  0
   55.5860   28.7410   45.2450 O   0  0  0  0  0  0  0  0  0  0  0  0
   60.0840   29.4830   45.6770 C   0  0  0  0  0  0  0  0  0  0  0  0
   60.7070   29.9960   46.7940 C   0  0  0  0  0  0  0  0  0  0  0  0
   61.7510   31.0720   46.7600 C   0  0  0  0  0  0  0  0  0  0  0  0
   60.2500   29.3930   47.9160 N   0  0  0  0  0  0  0  0  0  0  0  0
   60.6870   29.7180   49.2850 C   0  0  0  0  0  0  0  0  0  0  0  0
   59.6300   30.5150   50.0270 C   0  0  0  0  0  0  0  0  0  0  0  0
   58.8120   29.8390   50.9520 C   0  0  0  0  0  0  0  0  0  0  0  0
   57.8490   30.5240   51.6940 C   0  0  0  0  0  0  0  0  0  0  0  0
   57.6960   31.8980   51.5400 C   0  0  0  0  0  0  0  0  0  0  0  0
   58.5040   32.5940   50.6420 C   0  0  0  0  0  0  0  0  0  0  0  0
   59.4730   31.9230   49.8730 C   0  0  0  0  0  0  0  0  0  0  0  0
   60.3320   32.7450   48.9320 C   0  0  0  0  0  0  0  0  0  0  0  0
   59.5220   33.7130   48.1020 C   0  0  0  0  0  0  0  0  0  0  0  0
   59.5670   34.9470   48.3730 O   0  0  0  0  0  0  0  0  0  0  0  0
   58.6700   33.2500   47.0310 N   0  0  0  0  0  0  0  0  0  0  0  0
   58.1310   31.8810   47.0380 C   0  0  0  0  0  0  0  0  0  0  0  0
   57.7340   31.4530   45.6220 C   0  0  0  0  0  0  0  0  0  0  0  0
   56.8990   32.4200   45.0170 O   0  0  0  0  0  0  0  0  0  0  0  0
   57.6280   33.6180   44.8310 C   0  0  0  0  0  0  0  0  0  0  0  0
   57.9970   34.2400   46.1800 C   0  0  0  0  0  0  0  0  0  0  0  0
  1  2  2  0
  2  3  1  0
  3  4  2  0
  4  5  1  0
  5  6  1  0
  6  7  1  0
  7  8  2  0
  7  9  1  0
  9 10  1  0
 10 11  1  0
  3 12  1  0
 12 13  2  0
 13 14  1  0
 13 15  1  0
 15 16  1  0
 16 17  1  0
 17 18  2  0
 18 19  1  0
 19 20  2  0
 20 21  1  0
 21 22  2  0
 22 23  1  0
 23 24  1  0
 24 25  2  0
 24 26  1  0
 26 27  1  0
 27 28  1  0
 28 29  1  0
 29 30  1  0
 30 31  1  0
 15  2  1  0
 22 17  1  0
 31 26  1  0
 10  5  2  0
M  CHG  3   6  -1   9  -1  11  -1
M  END
>  <UniqueID>  (3043) 
57

>  <SMILES>  (3043) 
C=c1/c(=C\c2[n-]c(=O)[n-]c2[O-])cc(C)n1Cc1ccccc1CC(=O)N1CCOCC1

>  <Energy>  (3043) 
131.43279194889004

>  <Genealogy>  (3043) 
C=c1c(=Cc2[n-]c(=O)[n-]c2[O-])cc(C)n1Cc1ccccc1CC(=O)N1CCOCC1 (protonated)
C=c1/c(=C\c2[n-]c(=O)[n-]c2[O-])cc(C)n1Cc1ccccc1CC(=O)N1CCOCC1 (cis-trans isomerization)
C=c1/c(=C\c2[n-]c(=O)[n-]c2[O-])cc(C)n1Cc1ccccc1CC(=O)N1CCOCC1 (3D coordinates assigned)
C=c1/c(=C\c2[n-]c(=O)[n-]c2[O-])cc(C)n1Cc1ccccc1CC(=O)N1CCOCC1 (nonaromatic ring conformer: 131.43279194889004 kcal/mol)

>  <smiles>  (3043) 
C=c1c(=Cc2[nH]c(=O)[nH]c2O)cc(C)n1Cc1ccccc1CC(=O)N1CCOCC1

>  <score_type>  (3043) 
oracle

>  <origin>  (3043) 
adg

>  <m_score__min__energy>  (3043) 
-16.399999999999999

>  <m_primary>  (3043) 
energy

$$$$
62:0
     RDKit          3D

 32 35  0  0  0  0  0  0  0  0999 V2000
   56.0170   31.9090   51.9990 C   0  0  0  0  0  0  0  0  0  0  0  0
   55.4760   30.7420   52.3870 C   0  0  0  0  0  0  0  0  0  0  0  0
   54.1260   30.4840   52.6750 C   0  0  0  0  0  0  0  0  0  0  0  0
   53.0150   31.2140   52.4530 C   0  0  0  0  0  0  0  0  0  0  0  0
   52.2800   31.3160   51.1780 C   0  0  0  0  0  0  0  0  0  0  0  0
   52.2690   30.3680   50.2180 N   0  0  0  0  0  0  0  0  0  0  0  0
   51.3430   30.8240   49.3430 C   0  0  0  0  0  0  0  0  0  0  0  0
   51.0570   30.2090   48.2800 O   0  0  0  0  0  0  0  0  0  0  0  0
   50.7470   31.9790   49.6980 N   0  0  0  0  0  0  0  0  0  0  0  0
   51.3410   32.2670   50.8670 C   0  0  0  0  0  0  0  0  0  0  0  0
   51.0190   33.3750   51.6450 O   0  0  0  0  0  0  0  0  0  0  0  0
   54.0940   29.2330   53.2780 C   0  0  0  0  0  0  0  0  0  0  0  0
   55.3850   28.7490   53.2670 C   0  0  0  0  0  0  0  0  0  0  0  0
   55.8190   27.4440   53.8640 C   0  0  0  0  0  0  0  0  0  0  0  0
   56.2190   29.6580   52.7240 N   0  0  0  0  0  0  0  0  0  0  0  0
   57.6480   29.5330   52.6530 C   0  0  0  0  0  0  0  0  0  0  0  0
   58.3810   29.2540   53.8100 C   0  0  0  0  0  0  0  0  0  0  0  0
   59.7650   29.0980   53.7390 C   0  0  0  0  0  0  0  0  0  0  0  0
   60.4220   29.2200   52.5100 C   0  0  0  0  0  0  0  0  0  0  0  0
   59.7010   29.5070   51.3360 C   0  0  0  0  0  0  0  0  0  0  0  0
   60.4160   29.5870   50.0350 C   0  0  0  0  0  0  0  0  0  0  0  0
   60.6940   28.5110   49.4310 O   0  0  0  0  0  0  0  0  0  0  0  0
   60.7690   30.8550   49.4250 N   0  0  2  0  0  0  0  0  0  0  0  0
   59.9910   31.9300   50.0840 C   0  0  0  0  0  0  0  0  0  0  0  0
   60.1970   33.2660   49.3720 C   0  0  0  0  0  0  0  0  0  0  0  0
   59.6660   33.1640   48.0140 N   0  0  0  0  0  0  0  0  0  0  0  0
   58.8880   34.2660   47.4230 C   0  0  0  0  0  0  0  0  0  0  0  0
   59.6680   34.9150   46.2840 C   0  0  0  0  0  0  0  0  0  0  0  0
   59.8210   31.9120   47.3240 C   0  0  0  0  0  0  0  0  0  0  0  0
   59.2720   31.7320   46.2010 O   0  0  0  0  0  0  0  0  0  0  0  0
   60.6290   30.7890   47.9350 C   0  0  0  0  0  0  0  0  0  0  0  0
   58.3030   29.6600   51.4200 C   0  0  0  0  0  0  0  0  0  0  0  0
  1  2  2  0
  2  3  1  0
  3  4  2  3
  4  5  1  0
  5  6  1  0
  6  7  1  0
  7  8  2  0
  7  9  1  0
  9 10  1  0
 10 11  1  0
  3 12  1  0
 12 13  2  0
 13 14  1  0
 13 15  1  0
 15 16  1  0
 16 17  2  0
 17 18  1  0
 18 19  2  0
 19 20  1  0
 20 21  1  0
 21 22  2  0
 23 21  1  1
 23 24  1  0
 24 25  1  0
 25 26  1  0
 26 27  1  0
 27 28  1  0
 26 29  1  0
 29 30  2  0
 29 31  1  0
 20 32  2  0
 15  2  1  0
 32 16  1  0
 10  5  2  0
 31 23  1  0
M  CHG  4   6  -1   9  -1  11  -1  23   1
M  END
>  <UniqueID>  (3044) 
58

>  <SMILES>  (3044) 
C=c1c(=Cc2[n-]c(=O)[n-]c2[O-])cc(C)n1-c1cccc(C(=O)[N@@H+]2CCN(CC)C(=O)C2)c1

>  <Energy>  (3044) 
142.8664530304229

>  <Genealogy>  (3044) 
C=c1c(=Cc2[n-]c(=O)[n-]c2[O-])cc(C)n1-c1cccc(C(=O)[NH+]2CCN(CC)C(=O)C2)c1 (protonated)
C=c1c(=Cc2[n-]c(=O)[n-]c2[O-])cc(C)n1-c1cccc(C(=O)[N@@H+]2CCN(CC)C(=O)C2)c1 (chirality)
C=c1c(=Cc2[n-]c(=O)[n-]c2[O-])cc(C)n1-c1cccc(C(=O)[N@@H+]2CCN(CC)C(=O)C2)c1 (3D coordinates assigned)
C=c1c(=Cc2[n-]c(=O)[n-]c2[O-])cc(C)n1-c1cccc(C(=O)[N@@H+]2CCN(CC)C(=O)C2)c1 (nonaromatic ring conformer: 142.8664530304229 kcal/mol)

>  <smiles>  (3044) 
C=c1c(=Cc2[nH]c(=O)[nH]c2O)cc(C)n1-c1cccc(C(=O)N2CCN(CC)C(=O)C2)c1

>  <score_type>  (3044) 
oracle

>  <origin>  (3044) 
adg

>  <m_score__min__energy>  (3044) 
-15.84

>  <m_primary>  (3044) 
energy

$$$$
68:0
     RDKit          3D

 22 23  0  0  0  0  0  0  0  0999 V2000
   56.3030   29.7130   44.1940 C   0  0  0  0  0  0  0  0  0  0  0  0
   57.4030   29.6470   44.9740 C   0  0  0  0  0  0  0  0  0  0  0  0
   58.0040   30.8610   45.4060 C   0  0  0  0  0  0  0  0  0  0  0  0
   57.6090   32.1100   44.8090 N   0  0  0  0  0  0  0  0  0  0  0  0
   57.5790   33.6530   45.6000 S   0  0  0  0  0  0  0  0  0  0  0  0
   59.2080   34.3610   45.5410 C   0  0  0  0  0  0  0  0  0  0  0  0
   57.1690   33.4840   47.0360 O   0  0  0  0  0  0  0  0  0  0  0  0
   56.6190   34.5710   44.8960 O   0  0  0  0  0  0  0  0  0  0  0  0
   58.9440   30.8390   46.4490 C   0  0  0  0  0  0  0  0  0  0  0  0
   59.2960   29.6400   47.0720 C   0  0  0  0  0  0  0  0  0  0  0  0
   60.2380   29.6480   48.2470 C   0  0  0  0  0  0  0  0  0  0  0  0
   60.3410   28.2570   48.8640 C   0  0  0  0  0  0  0  0  0  0  0  0
   58.7540   28.4380   46.6110 C   0  0  0  0  0  0  0  0  0  0  0  0
   57.8880   28.4030   45.5000 C   0  0  0  0  0  0  0  0  0  0  0  0
   57.6000   27.1750   44.9950 C   0  0  0  0  0  0  0  0  0  0  0  0
   57.1220   26.0110   45.7690 C   0  0  0  0  0  0  0  0  0  0  0  0
   57.9040   25.0140   46.2260 N   0  0  0  0  0  0  0  0  0  0  0  0
   57.0520   24.2600   46.9550 C   0  0  0  0  0  0  0  0  0  0  0  0
   57.4140   23.2090   47.5440 O   0  0  0  0  0  0  0  0  0  0  0  0
   55.7860   24.7250   47.0080 N   0  0  0  0  0  0  0  0  0  0  0  0
   55.8510   25.8400   46.2620 C   0  0  0  0  0  0  0  0  0  0  0  0
   54.7710   26.6850   46.0400 O   0  0  0  0  0  0  0  0  0  0  0  0
  1  2  2  0
  2  3  1  0
  3  4  1  0
  4  5  1  0
  5  6  1  0
  5  7  2  0
  5  8  2  0
  3  9  2  0
  9 10  1  0
 10 11  1  0
 11 12  1  0
 10 13  2  0
 13 14  1  0
 14 15  2  3
 15 16  1  0
 16 17  1  0
 17 18  1  0
 18 19  2  0
 18 20  1  0
 20 21  1  0
 21 22  1  0
 14  2  1  0
 21 16  2  0
M  CHG  4   4  -1  17  -1  20  -1  22  -1
M  END
>  <UniqueID>  (3045) 
64

>  <SMILES>  (3045) 
C=c1c([N-]S(C)(=O)=O)cc(CC)cc1=Cc1[n-]c(=O)[n-]c1[O-]

>  <Energy>  (3045) 
82.74663620518942

>  <Genealogy>  (3045) 
C=c1c([N-]S(C)(=O)=O)cc(CC)cc1=Cc1[n-]c(=O)[n-]c1[O-] (protonated)
C=c1c([N-]S(C)(=O)=O)cc(CC)cc1=Cc1[n-]c(=O)[n-]c1[O-] (3D coordinates assigned)
C=c1c([N-]S(C)(=O)=O)cc(CC)cc1=Cc1[n-]c(=O)[n-]c1[O-] (optimized conformer: 82.74663620518942 kcal/mol)

>  <smiles>  (3045) 
C=c1c(NS(C)(=O)=O)cc(CC)cc1=Cc1[nH]c(=O)[nH]c1O

>  <score_type>  (3045) 
oracle

>  <origin>  (3045) 
adg

>  <m_score__min__energy>  (3045) 
-16.09

>  <m_primary>  (3045) 
energy

$$$$
72:0
     RDKit          3D

 33 37  0  0  0  0  0  0  0  0999 V2000
   60.5110   30.3620   45.9800 C   0  0  0  0  0  0  0  0  0  0  0  0
   59.8960   29.9030   47.0800 C   0  0  0  0  0  0  0  0  0  0  0  0
   58.8930   28.9270   47.1340 C   0  0  0  0  0  0  0  0  0  0  0  0
   58.4310   28.1800   46.1130 C   0  0  0  0  0  0  0  0  0  0  0  0
   57.2810   27.2610   46.2070 C   0  0  0  0  0  0  0  0  0  0  0  0
   57.3700   26.0160   46.7100 N   0  0  0  0  0  0  0  0  0  0  0  0
   56.1250   25.5200   46.5540 C   0  0  0  0  0  0  0  0  0  0  0  0
   55.8010   24.3630   46.9310 O   0  0  0  0  0  0  0  0  0  0  0  0
   55.2550   26.3630   45.9590 N   0  0  0  0  0  0  0  0  0  0  0  0
   56.0030   27.4550   45.7340 C   0  0  0  0  0  0  0  0  0  0  0  0
   55.5370   28.5860   45.0740 O   0  0  0  0  0  0  0  0  0  0  0  0
   58.5280   28.8180   48.4680 C   0  0  0  0  0  0  0  0  0  0  0  0
   59.3140   29.7160   49.1640 C   0  0  0  0  0  0  0  0  0  0  0  0
   59.2610   29.9240   50.6500 C   0  0  0  0  0  0  0  0  0  0  0  0
   60.1610   30.3540   48.3280 N   0  0  0  0  0  0  0  0  0  0  0  0
   61.1630   31.3080   48.7250 C   0  0  0  0  0  0  0  0  0  0  0  0
   62.3690   30.8270   49.2660 C   0  0  0  0  0  0  0  0  0  0  0  0
   63.3440   31.7120   49.7260 C   0  0  0  0  0  0  0  0  0  0  0  0
   63.1220   33.0860   49.6590 C   0  0  0  0  0  0  0  0  0  0  0  0
   61.9230   33.5820   49.1360 C   0  0  0  0  0  0  0  0  0  0  0  0
   60.9350   32.7070   48.6480 C   0  0  0  0  0  0  0  0  0  0  0  0
   59.6860   33.2880   48.0930 C   0  0  0  0  0  0  0  0  0  0  0  0
   58.9590   33.9860   48.8550 O   0  0  0  0  0  0  0  0  0  0  0  0
   59.3250   33.1400   46.6980 N   0  0  1  0  0  0  0  0  0  0  0  0
   57.9930   32.5110   46.5650 C   0  0  0  0  0  0  0  0  0  0  0  0
   57.7420   32.1840   45.1280 C   0  0  0  0  0  0  0  0  0  0  0  0
   57.0370   31.0310   44.7560 C   0  0  0  0  0  0  0  0  0  0  0  0
   56.8770   30.7090   43.4060 C   0  0  0  0  0  0  0  0  0  0  0  0
   57.4040   31.5450   42.4210 C   0  0  0  0  0  0  0  0  0  0  0  0
   58.0780   32.7180   42.7810 C   0  0  0  0  0  0  0  0  0  0  0  0
   58.2560   33.0450   44.1360 C   0  0  0  0  0  0  0  0  0  0  0  0
   58.9530   34.3400   44.5090 C   0  0  0  0  0  0  0  0  0  0  0  0
   59.3350   34.4490   46.0140 C   0  0  0  0  0  0  0  0  0  0  0  0
  1  2  2  0
  2  3  1  0
  3  4  2  0
  4  5  1  0
  5  6  1  0
  6  7  1  0
  7  8  2  0
  7  9  1  0
  9 10  1  0
 10 11  1  0
  3 12  1  0
 12 13  2  0
 13 14  1  0
 13 15  1  0
 15 16  1  0
 16 17  2  0
 17 18  1  0
 18 19  2  0
 19 20  1  0
 20 21  2  0
 21 22  1  0
 22 23  2  0
 24 22  1  1
 24 25  1  0
 25 26  1  0
 26 27  2  0
 27 28  1  0
 28 29  2  0
 29 30  1  0
 30 31  2  0
 31 32  1  0
 32 33  1  0
 15  2  1  0
 21 16  1  0
 33 24  1  0
 10  5  2  0
 31 26  1  0
M  CHG  4   6  -1   9  -1  11  -1  24   1
M  END
>  <UniqueID>  (3046) 
68

>  <SMILES>  (3046) 
C=c1/c(=C/c2[n-]c(=O)[n-]c2[O-])cc(C)n1-c1ccccc1C(=O)[N@@H+]1CCc2ccccc2C1

>  <Energy>  (3046) 
141.32379555337266

>  <Genealogy>  (3046) 
C=c1c(=Cc2[n-]c(=O)[n-]c2[O-])cc(C)n1-c1ccccc1C(=O)[NH+]1CCc2ccccc2C1 (protonated)
C=c1c(=Cc2[n-]c(=O)[n-]c2[O-])cc(C)n1-c1ccccc1C(=O)[N@@H+]1CCc2ccccc2C1 (chirality)
C=c1/c(=C/c2[n-]c(=O)[n-]c2[O-])cc(C)n1-c1ccccc1C(=O)[N@@H+]1CCc2ccccc2C1 (cis-trans isomerization)
C=c1/c(=C/c2[n-]c(=O)[n-]c2[O-])cc(C)n1-c1ccccc1C(=O)[N@@H+]1CCc2ccccc2C1 (3D coordinates assigned)
C=c1/c(=C/c2[n-]c(=O)[n-]c2[O-])cc(C)n1-c1ccccc1C(=O)[N@@H+]1CCc2ccccc2C1 (nonaromatic ring conformer: 141.32379555337266 kcal/mol)

>  <smiles>  (3046) 
C=c1c(=Cc2[nH]c(=O)[nH]c2O)cc(C)n1-c1ccccc1C(=O)N1CCc2ccccc2C1

>  <score_type>  (3046) 
oracle

>  <origin>  (3046) 
adg

>  <m_score__min__energy>  (3046) 
-16.02

>  <m_primary>  (3046) 
energy

$$$$
79:0
     RDKit          3D

 24 26  0  0  0  0  0  0  0  0999 V2000
   60.4790   29.1160   47.9340 O   0  0  0  0  0  0  0  0  0  0  0  0
   60.0480   30.2480   47.5830 C   0  0  0  0  0  0  0  0  0  0  0  0
   58.5900   30.4120   47.2360 C   0  0  0  0  0  0  0  0  0  0  0  0
   58.3940   30.7450   45.8120 N   0  0  0  0  0  0  0  0  0  0  0  0
   58.3060   32.1440   45.4660 C   0  0  0  0  0  0  0  0  0  0  0  0
   57.6740   32.5390   44.3570 C   0  0  0  0  0  0  0  0  0  0  0  0
   57.0590   31.5550   43.4510 C   0  0  0  0  0  0  0  0  0  0  0  0
   57.2140   30.2460   43.6550 C   0  0  0  0  0  0  0  0  0  0  0  0
   58.0260   29.7690   44.7960 C   0  0  0  0  0  0  0  0  0  0  0  0
   58.3900   28.4700   44.8150 C   0  0  0  0  0  0  0  0  0  0  0  0
   57.6170   27.3660   45.4100 C   0  0  0  0  0  0  0  0  0  0  0  0
   58.2930   26.2430   45.9050 C   0  0  0  0  0  0  0  0  0  0  0  0
   57.5840   25.2200   46.5360 C   0  0  0  0  0  0  0  0  0  0  0  0
   58.2360   24.1220   46.9930 F   0  0  0  0  0  0  0  0  0  0  0  0
   56.2000   25.3410   46.6910 C   0  0  0  0  0  0  0  0  0  0  0  0
   55.5410   24.4260   47.2510 O   0  0  0  0  0  0  0  0  0  0  0  0
   55.5620   26.4540   46.2400 N   0  0  0  0  0  0  0  0  0  0  0  0
   56.2290   27.4650   45.6220 C   0  0  0  0  0  0  0  0  0  0  0  0
   55.5270   28.5920   45.2100 O   0  0  0  0  0  0  0  0  0  0  0  0
   60.9420   31.3750   47.5760 N   0  0  0  0  0  0  0  0  0  0  0  0
   62.3830   31.2360   47.6830 C   0  0  0  0  0  0  0  0  0  0  0  0
   62.9430   32.6380   47.4850 C   0  0  0  0  0  0  0  0  0  0  0  0
   61.7720   33.5920   47.7120 C   0  0  0  0  0  0  0  0  0  0  0  0
   60.5110   32.7610   47.5090 C   0  0  0  0  0  0  0  0  0  0  0  0
  1  2  2  0
  2  3  1  0
  3  4  1  0
  4  5  1  0
  5  6  2  0
  6  7  1  0
  7  8  2  0
  8  9  1  0
  9 10  2  3
 10 11  1  0
 11 12  1  0
 12 13  2  0
 13 14  1  0
 13 15  1  0
 15 16  2  0
 15 17  1  0
 17 18  1  0
 18 19  1  0
  2 20  1  0
 20 21  1  0
 21 22  1  0
 22 23  1  0
 23 24  1  0
  9  4  1  0
 18 11  2  0
 24 20  1  0
M  CHG  2  17  -1  19  -1
M  END
>  <UniqueID>  (3047) 
75

>  <SMILES>  (3047) 
O=C(CN1C=CC=CC1=Cc1cc(F)c(=O)[n-]c1[O-])N1CCCC1

>  <Energy>  (3047) 
51.579211088018326

>  <Genealogy>  (3047) 
O=C(CN1C=CC=CC1=Cc1cc(F)c(=O)[n-]c1[O-])N1CCCC1 (protonated)
O=C(CN1C=CC=CC1=Cc1cc(F)c(=O)[n-]c1[O-])N1CCCC1 (3D coordinates assigned)
O=C(CN1C=CC=CC1=Cc1cc(F)c(=O)[n-]c1[O-])N1CCCC1 (nonaromatic ring conformer: 51.579211088018326 kcal/mol)

>  <smiles>  (3047) 
O=C(CN1C=CC=CC1=Cc1cc(F)c(=O)[nH]c1O)N1CCCC1

>  <score_type>  (3047) 
oracle

>  <origin>  (3047) 
adg

>  <m_score__min__energy>  (3047) 
-14.02

>  <m_primary>  (3047) 
energy

$$$$
85:0
     RDKit          3D

 28 31  0  0  0  0  0  0  0  0999 V2000
   60.1670   28.5480   51.2110 O   0  0  0  0  0  0  0  0  0  0  0  0
   61.3220   29.0030   50.5640 C   0  0  0  0  0  0  0  0  0  0  0  0
   61.2050   30.5130   50.3240 C   0  0  0  0  0  0  0  0  0  0  0  0
   59.9380   31.1570   50.7780 N   0  0  0  0  0  0  0  0  0  0  0  0
   60.1890   32.1870   51.8130 C   0  0  0  0  0  0  0  0  0  0  0  0
   59.0070   33.1580   52.0020 C   0  0  0  0  0  0  0  0  0  0  0  0
   57.6990   32.5590   51.6730 N   0  0  0  0  0  0  0  0  0  0  0  0
   57.2390   31.6400   52.7020 C   0  0  0  0  0  0  0  0  0  0  0  0
   57.9590   31.4440   53.7190 O   0  0  0  0  0  0  0  0  0  0  0  0
   55.9880   30.8590   52.5870 C   0  0  0  0  0  0  0  0  0  0  0  0
   54.7530   31.3830   52.2560 C   0  0  0  0  0  0  0  0  0  0  0  0
   53.8280   30.3540   52.3880 C   0  0  0  0  0  0  0  0  0  0  0  0
   52.4950   30.4220   52.1810 C   0  0  0  0  0  0  0  0  0  0  0  0
   51.8350   30.8160   50.9160 C   0  0  0  0  0  0  0  0  0  0  0  0
   51.7400   30.0660   49.8050 N   0  0  0  0  0  0  0  0  0  0  0  0
   51.0200   30.8380   48.9620 C   0  0  0  0  0  0  0  0  0  0  0  0
   50.7220   30.4720   47.7960 O   0  0  0  0  0  0  0  0  0  0  0  0
   50.6420   32.0290   49.4680 N   0  0  0  0  0  0  0  0  0  0  0  0
   51.1620   31.9980   50.7040 C   0  0  0  0  0  0  0  0  0  0  0  0
   51.0160   33.0260   51.6270 O   0  0  0  0  0  0  0  0  0  0  0  0
   54.5540   29.2350   52.8110 C   0  0  0  0  0  0  0  0  0  0  0  0
   54.0610   28.0110   53.0620 C   0  0  0  0  0  0  0  0  0  0  0  0
   55.8650   29.5570   52.9360 N   0  0  0  0  0  0  0  0  0  0  0  0
   56.9460   28.6650   53.3720 C   0  0  0  0  0  0  0  0  0  0  0  0
   57.6410   31.9900   50.3020 C   0  0  0  0  0  0  0  0  0  0  0  0
   59.0170   31.6110   49.7210 C   0  0  0  0  0  0  0  0  0  0  0  0
   62.4830   31.3430   50.4730 C   0  0  0  0  0  0  0  0  0  0  0  0
   61.9420   31.0410   49.0820 C   0  0  0  0  0  0  0  0  0  0  0  0
  1  2  1  0
  2  3  1  0
  3  4  1  0
  4  5  1  0
  5  6  1  0
  6  7  1  0
  7  8  1  0
  8  9  2  0
  8 10  1  0
 10 11  2  0
 11 12  1  0
 12 13  2  0
 13 14  1  0
 14 15  1  0
 15 16  1  0
 16 17  2  0
 16 18  1  0
 18 19  1  0
 19 20  1  0
 12 21  1  0
 21 22  2  0
 21 23  1  0
 23 24  1  0
  7 25  1  0
 25 26  1  0
  3 27  1  0
 27 28  1  0
 28  3  1  0
 26  4  1  0
 23 10  1  0
 19 14  2  0
M  CHG  4   7   1  15  -1  18  -1  20  -1
M  END
>  <UniqueID>  (3048) 
81

>  <SMILES>  (3048) 
C=c1/c(=C/c2[n-]c(=O)[n-]c2[O-])cc(C(=O)[NH+]2CCN(C3(CO)CC3)CC2)n1C

>  <Energy>  (3048) 
409.3701645469052

>  <Genealogy>  (3048) 
C=c1c(=Cc2[n-]c(=O)[n-]c2[O-])cc(C(=O)[NH+]2CCN(C3(CO)CC3)CC2)n1C (protonated)
C=c1/c(=C/c2[n-]c(=O)[n-]c2[O-])cc(C(=O)[NH+]2CCN(C3(CO)CC3)CC2)n1C (cis-trans isomerization)
C=c1/c(=C/c2[n-]c(=O)[n-]c2[O-])cc(C(=O)[NH+]2CCN(C3(CO)CC3)CC2)n1C (3D coordinates assigned)
C=c1/c(=C/c2[n-]c(=O)[n-]c2[O-])cc(C(=O)[NH+]2CCN(C3(CO)CC3)CC2)n1C (nonaromatic ring conformer: 409.3701645469052 kcal/mol)

>  <smiles>  (3048) 
C=c1c(=Cc2[nH]c(=O)[nH]c2O)cc(C(=O)N2CCN(C3(CO)CC3)CC2)n1C

>  <score_type>  (3048) 
oracle

>  <origin>  (3048) 
adg

>  <m_score__min__energy>  (3048) 
-15.26

>  <m_primary>  (3048) 
energy

$$$$
90:0
     RDKit          3D

 31 33  0  0  0  0  0  0  0  0999 V2000
   62.2450   33.8680   48.8850 C   0  0  0  0  0  0  0  0  0  0  0  0
   60.9720   34.5010   48.8610 O   0  0  0  0  0  0  0  0  0  0  0  0
   60.0070   34.2300   47.8870 C   0  0  0  0  0  0  0  0  0  0  0  0
   60.0920   34.8600   46.6440 C   0  0  0  0  0  0  0  0  0  0  0  0
   59.1300   34.5920   45.6700 C   0  0  0  0  0  0  0  0  0  0  0  0
   58.0860   33.6960   45.9410 C   0  0  0  0  0  0  0  0  0  0  0  0
   57.0470   33.3820   44.8980 C   0  0  0  0  0  0  0  0  0  0  0  0
   56.7330   31.9560   44.8850 N   0  0  0  0  0  0  0  0  0  0  0  0
   57.5530   30.9670   44.2510 C   0  0  0  0  0  0  0  0  0  0  0  0
   58.4710   31.3150   43.4630 O   0  0  0  0  0  0  0  0  0  0  0  0
   57.2690   29.5090   44.4510 C   0  0  0  0  0  0  0  0  0  0  0  0
   58.2450   28.8540   45.4060 C   0  0  0  0  0  0  0  0  0  0  0  0
   58.8880   29.6630   46.3630 C   0  0  0  0  0  0  0  0  0  0  0  0
   59.7610   29.1060   47.2970 C   0  0  0  0  0  0  0  0  0  0  0  0
   60.0110   27.7350   47.2910 C   0  0  0  0  0  0  0  0  0  0  0  0
   59.3930   26.9170   46.3450 C   0  0  0  0  0  0  0  0  0  0  0  0
   58.5050   27.4560   45.3950 C   0  0  0  0  0  0  0  0  0  0  0  0
   57.9610   26.5280   44.3280 C   0  0  0  0  0  0  0  0  0  0  0  0
   57.6860   25.1510   44.8810 C   0  0  0  0  0  0  0  0  0  0  0  0
   58.6320   24.4560   45.3400 O   0  0  0  0  0  0  0  0  0  0  0  0
   56.3080   24.6090   44.9340 C   0  0  0  0  0  0  0  0  0  0  0  0
   55.9640   23.4210   44.2510 C   0  0  0  0  0  0  0  0  0  0  0  0
   56.9800   22.6180   43.4890 C   0  0  0  0  0  0  0  0  0  0  0  0
   54.6810   22.9740   44.2850 N   0  0  0  0  0  0  0  0  0  0  0  0
   53.7160   23.6420   44.9670 C   0  0  0  0  0  0  0  0  0  0  0  0
   52.5380   23.2020   44.9800 O   0  0  0  0  0  0  0  0  0  0  0  0
   54.0230   24.7820   45.6320 N   0  0  0  0  0  0  0  0  0  0  0  0
   55.2850   25.2810   45.6300 C   0  0  0  0  0  0  0  0  0  0  0  0
   55.5150   26.3600   46.2360 O   0  0  0  0  0  0  0  0  0  0  0  0
   58.0370   33.0840   47.2030 C   0  0  0  0  0  0  0  0  0  0  0  0
   58.9860   33.3620   48.1360 N   0  0  0  0  0  0  0  0  0  0  0  0
  1  2  1  0
  2  3  1  0
  3  4  2  0
  4  5  1  0
  5  6  2  0
  6  7  1  0
  7  8  1  0
  8  9  1  0
  9 10  2  0
  9 11  1  0
 11 12  1  0
 12 13  2  0
 13 14  1  0
 14 15  2  0
 15 16  1  0
 16 17  2  0
 17 18  1  0
 18 19  1  0
 19 20  2  0
 19 21  1  0
 21 22  2  0
 22 23  1  0
 22 24  1  0
 24 25  1  0
 25 26  2  0
 25 27  1  0
 27 28  1  0
 28 29  2  0
  6 30  1  0
 30 31  2  0
 31  3  1  0
 17 12  1  0
 28 21  1  0
M  CHG  3   8  -1  24  -1  27  -1
M  END
>  <UniqueID>  (3049) 
86

>  <SMILES>  (3049) 
COc1ccc(C[N-]C(=O)Cc2ccccc2CC(=O)c2c(C)[n-]c(=O)[n-]c2=O)cn1

>  <Energy>  (3049) 
51.40692643127848

>  <Genealogy>  (3049) 
COc1ccc(C[N-]C(=O)Cc2ccccc2CC(=O)c2c(C)[n-]c(=O)[n-]c2=O)cn1 (protonated)
COc1ccc(C[N-]C(=O)Cc2ccccc2CC(=O)c2c(C)[n-]c(=O)[n-]c2=O)cn1 (3D coordinates assigned)
COc1ccc(C[N-]C(=O)Cc2ccccc2CC(=O)c2c(C)[n-]c(=O)[n-]c2=O)cn1 (optimized conformer: 51.40692643127848 kcal/mol)

>  <smiles>  (3049) 
COc1ccc(CNC(=O)Cc2ccccc2CC(=O)c2c(C)[nH]c(=O)[nH]c2=O)cn1

>  <score_type>  (3049) 
oracle

>  <origin>  (3049) 
adg

>  <m_score__min__energy>  (3049) 
-15.210000000000001

>  <m_primary>  (3049) 
energy

$$$$
2:0
     RDKit          3D

 29 32  0  0  0  0  0  0  0  0999 V2000
   57.0840   30.3640   52.6320 C   0  0  0  0  0  0  0  0  0  0  0  0
   57.3890   29.7590   51.5720 O   0  0  0  0  0  0  0  0  0  0  0  0
   55.7280   30.2980   53.2130 C   0  0  0  0  0  0  0  0  0  0  0  0
   54.6150   30.7510   52.5390 C   0  0  0  0  0  0  0  0  0  0  0  0
   53.5180   30.4750   53.3310 C   0  0  0  0  0  0  0  0  0  0  0  0
   52.2550   30.7070   52.9230 C   0  0  0  0  0  0  0  0  0  0  0  0
   51.8410   31.0560   51.5560 C   0  0  0  0  0  0  0  0  0  0  0  0
   52.0070   30.2420   50.4990 N   0  0  0  0  0  0  0  0  0  0  0  0
   51.3780   30.8980   49.4990 C   0  0  0  0  0  0  0  0  0  0  0  0
   51.3270   30.4520   48.3230 O   0  0  0  0  0  0  0  0  0  0  0  0
   50.7960   32.0610   49.8610 N   0  0  0  0  0  0  0  0  0  0  0  0
   51.0860   32.1410   51.1690 C   0  0  0  0  0  0  0  0  0  0  0  0
   50.6440   33.1660   51.9960 O   0  0  0  0  0  0  0  0  0  0  0  0
   54.0210   29.9180   54.5180 C   0  0  0  0  0  0  0  0  0  0  0  0
   53.3130   29.6440   55.6280 C   0  0  0  0  0  0  0  0  0  0  0  0
   55.3770   29.7940   54.4260 N   0  0  0  0  0  0  0  0  0  0  0  0
   56.2990   29.2310   55.4310 C   0  0  0  0  0  0  0  0  0  0  0  0
   57.0200   28.0220   54.8900 C   0  0  0  0  0  0  0  0  0  0  0  0
   58.4140   28.0200   54.7590 C   0  0  0  0  0  0  0  0  0  0  0  0
   59.0800   26.9070   54.2400 C   0  0  0  0  0  0  0  0  0  0  0  0
   58.3670   25.7590   53.8180 C   0  0  0  0  0  0  0  0  0  0  0  0
   59.0610   24.5920   53.2770 N   0  0  0  0  0  0  0  0  0  0  0  0
   60.4690   24.7210   52.8480 C   0  0  0  0  0  0  0  0  0  0  0  0
   61.0900   23.4050   52.3730 C   0  0  0  0  0  0  0  0  0  0  0  0
   60.1590   22.6420   51.6450 O   0  0  0  0  0  0  0  0  0  0  0  0
   59.1670   22.1870   52.5350 C   0  0  0  0  0  0  0  0  0  0  0  0
   58.3000   23.3480   53.0300 C   0  0  0  0  0  0  0  0  0  0  0  0
   56.9580   25.7830   53.9430 C   0  0  0  0  0  0  0  0  0  0  0  0
   56.2990   26.9000   54.4630 C   0  0  0  0  0  0  0  0  0  0  0  0
  1  2  2  0
  1  3  1  0
  3  4  2  0
  4  5  1  0
  5  6  2  0
  6  7  1  0
  7  8  1  0
  8  9  1  0
  9 10  2  0
  9 11  1  0
 11 12  1  0
 12 13  1  0
  5 14  1  0
 14 15  2  0
 14 16  1  0
 16 17  1  0
 17 18  1  0
 18 19  2  0
 19 20  1  0
 20 21  2  0
 21 22  1  0
 22 23  1  0
 23 24  1  0
 24 25  1  0
 25 26  1  0
 26 27  1  0
 21 28  1  0
 28 29  2  0
 16  3  1  0
 29 18  1  0
 12  7  2  0
 27 22  1  0
M  CHG  3   8  -1  11  -1  13  -1
M  END
>  <UniqueID>  (3050) 
3

>  <SMILES>  (3050) 
C=c1/c(=C\c2[n-]c(=O)[n-]c2[O-])cc(C=O)n1Cc1ccc(N2CCOCC2)cc1

>  <Energy>  (3050) 
131.86254021600737

>  <Genealogy>  (3050) 
C=c1c(=Cc2[n-]c(=O)[n-]c2[O-])cc(C=O)n1Cc1ccc(N2CCOCC2)cc1 (protonated)
C=c1/c(=C\c2[n-]c(=O)[n-]c2[O-])cc(C=O)n1Cc1ccc(N2CCOCC2)cc1 (cis-trans isomerization)
C=c1/c(=C\c2[n-]c(=O)[n-]c2[O-])cc(C=O)n1Cc1ccc(N2CCOCC2)cc1 (3D coordinates assigned)
C=c1/c(=C\c2[n-]c(=O)[n-]c2[O-])cc(C=O)n1Cc1ccc(N2CCOCC2)cc1 (nonaromatic ring conformer: 131.86254021600737 kcal/mol)

>  <smiles>  (3050) 
C=c1c(=Cc2[nH]c(=O)[nH]c2O)cc(C=O)n1Cc1ccc(N2CCOCC2)cc1

>  <score_type>  (3050) 
oracle

>  <origin>  (3050) 
adg

>  <m_score__min__energy>  (3050) 
-16.16

>  <m_primary>  (3050) 
energy

$$$$
4:0
     RDKit          3D

 33 36  0  0  0  0  0  0  0  0999 V2000
   53.9640   28.0910   53.3800 C   0  0  0  0  0  0  0  0  0  0  0  0
   54.5560   29.1670   52.8370 C   0  0  0  0  0  0  0  0  0  0  0  0
   53.9090   30.2850   52.2990 C   0  0  0  0  0  0  0  0  0  0  0  0
   52.5790   30.4880   52.1890 C   0  0  0  0  0  0  0  0  0  0  0  0
   51.9070   30.9230   50.9490 C   0  0  0  0  0  0  0  0  0  0  0  0
   51.7800   30.1340   49.8670 N   0  0  0  0  0  0  0  0  0  0  0  0
   51.0310   30.8770   49.0210 C   0  0  0  0  0  0  0  0  0  0  0  0
   50.6970   30.4740   47.8780 O   0  0  0  0  0  0  0  0  0  0  0  0
   50.6520   32.0790   49.5050 N   0  0  0  0  0  0  0  0  0  0  0  0
   51.2020   32.0890   50.7310 C   0  0  0  0  0  0  0  0  0  0  0  0
   51.0160   33.1170   51.6470 O   0  0  0  0  0  0  0  0  0  0  0  0
   54.9090   31.1180   51.8180 C   0  0  0  0  0  0  0  0  0  0  0  0
   56.1130   30.4980   52.0940 C   0  0  0  0  0  0  0  0  0  0  0  0
   57.4300   30.9930   51.6370 C   0  0  0  0  0  0  0  0  0  0  0  0
   57.4800   32.0080   50.8960 O   0  0  0  0  0  0  0  0  0  0  0  0
   58.6580   30.3580   52.0160 N   0  0  0  0  0  0  0  0  0  0  0  0
   59.9310   30.4950   51.3170 C   0  0  0  0  0  0  0  0  0  0  0  0
   59.8130   29.8750   49.9510 C   0  0  0  0  0  0  0  0  0  0  0  0
   60.2660   28.5590   49.7210 C   0  0  0  0  0  0  0  0  0  0  0  0
   60.0810   27.9590   48.4700 C   0  0  0  0  0  0  0  0  0  0  0  0
   59.4260   28.6530   47.4490 C   0  0  0  0  0  0  0  0  0  0  0  0
   58.9490   29.9580   47.6720 C   0  0  0  0  0  0  0  0  0  0  0  0
   58.2040   30.6730   46.6180 C   0  0  0  0  0  0  0  0  0  0  0  0
   57.3680   30.0220   45.9220 O   0  0  0  0  0  0  0  0  0  0  0  0
   58.4330   32.0800   46.3500 N   0  0  0  0  0  0  0  0  0  0  0  0
   59.7520   32.6690   46.6490 C   0  0  0  0  0  0  0  0  0  0  0  0
   59.6940   34.2040   46.6100 C   0  0  0  0  0  0  0  0  0  0  0  0
   59.0670   34.6560   45.4240 O   0  0  0  0  0  0  0  0  0  0  0  0
   57.7040   34.2810   45.4530 C   0  0  0  0  0  0  0  0  0  0  0  0
   57.5620   32.7550   45.3710 C   0  0  0  0  0  0  0  0  0  0  0  0
   59.1690   30.5760   48.9170 C   0  0  0  0  0  0  0  0  0  0  0  0
   55.9010   29.3140   52.7200 N   0  0  0  0  0  0  0  0  0  0  0  0
   56.9300   28.3600   53.1550 C   0  0  0  0  0  0  0  0  0  0  0  0
  1  2  2  0
  2  3  1  0
  3  4  2  3
  4  5  1  0
  5  6  1  0
  6  7  1  0
  7  8  2  0
  7  9  1  0
  9 10  1  0
 10 11  1  0
  3 12  1  0
 12 13  2  0
 13 14  1  0
 14 15  2  0
 14 16  1  0
 16 17  1  0
 17 18  1  0
 18 19  2  0
 19 20  1  0
 20 21  2  0
 21 22  1  0
 22 23  1  0
 23 24  2  0
 23 25  1  0
 25 26  1  0
 26 27  1  0
 27 28  1  0
 28 29  1  0
 29 30  1  0
 22 31  2  0
 13 32  1  0
 32 33  1  0
 32  2  1  0
 10  5  2  0
 31 18  1  0
 30 25  1  0
M  CHG  4   6  -1   9  -1  11  -1  16  -1
M  END
>  <UniqueID>  (3051) 
5

>  <SMILES>  (3051) 
C=c1c(=Cc2[n-]c(=O)[n-]c2[O-])cc(C(=O)[N-]Cc2cccc(C(=O)N3CCOCC3)c2)n1C

>  <Energy>  (3051) 
133.65405987556565

>  <Genealogy>  (3051) 
C=c1c(=Cc2[n-]c(=O)[n-]c2[O-])cc(C(=O)[N-]Cc2cccc(C(=O)N3CCOCC3)c2)n1C (protonated)
C=c1c(=Cc2[n-]c(=O)[n-]c2[O-])cc(C(=O)[N-]Cc2cccc(C(=O)N3CCOCC3)c2)n1C (3D coordinates assigned)
C=c1c(=Cc2[n-]c(=O)[n-]c2[O-])cc(C(=O)[N-]Cc2cccc(C(=O)N3CCOCC3)c2)n1C (nonaromatic ring conformer: 133.65405987556565 kcal/mol)

>  <smiles>  (3051) 
C=c1c(=Cc2[nH]c(=O)[nH]c2O)cc(C(=O)NCc2cccc(C(=O)N3CCOCC3)c2)n1C

>  <score_type>  (3051) 
oracle

>  <origin>  (3051) 
adg

>  <m_score__min__energy>  (3051) 
-20.170000000000002

>  <m_primary>  (3051) 
energy

$$$$
26:0
     RDKit          3D

 34 38  0  0  0  0  0  0  0  0999 V2000
   59.9990   27.1190   45.9610 C   0  0  0  0  0  0  0  0  0  0  0  0
   59.1130   27.8350   45.2500 C   0  0  0  0  0  0  0  0  0  0  0  0
   58.0820   27.3320   44.4400 C   0  0  0  0  0  0  0  0  0  0  0  0
   57.5770   26.0880   44.3140 C   0  0  0  0  0  0  0  0  0  0  0  0
   57.0170   25.2710   45.4040 C   0  0  0  0  0  0  0  0  0  0  0  0
   57.6020   24.1720   45.9180 N   0  0  0  0  0  0  0  0  0  0  0  0
   56.8090   23.8580   46.9650 C   0  0  0  0  0  0  0  0  0  0  0  0
   57.0210   22.8590   47.6980 O   0  0  0  0  0  0  0  0  0  0  0  0
   55.7780   24.7060   47.1700 N   0  0  0  0  0  0  0  0  0  0  0  0
   55.9370   25.6030   46.1840 C   0  0  0  0  0  0  0  0  0  0  0  0
   55.1150   26.7090   46.0050 O   0  0  0  0  0  0  0  0  0  0  0  0
   57.5750   28.4150   43.7440 C   0  0  0  0  0  0  0  0  0  0  0  0
   58.2520   29.5310   44.1880 C   0  0  0  0  0  0  0  0  0  0  0  0
   57.9250   30.9340   43.7650 C   0  0  0  0  0  0  0  0  0  0  0  0
   59.1800   29.1870   45.1120 N   0  0  0  0  0  0  0  0  0  0  0  0
   60.1100   30.1060   45.7920 C   0  0  0  0  0  0  0  0  0  0  0  0
   59.6710   30.3750   47.2120 C   0  0  0  0  0  0  0  0  0  0  0  0
   59.4090   29.3110   48.0910 C   0  0  0  0  0  0  0  0  0  0  0  0
   59.0260   29.5630   49.4120 C   0  0  0  0  0  0  0  0  0  0  0  0
   58.8930   30.8810   49.8750 C   0  0  0  0  0  0  0  0  0  0  0  0
   58.5270   31.1410   51.2440 N   0  0  0  0  0  0  0  0  0  0  0  0
   58.9760   30.2620   52.3280 C   0  0  0  0  0  0  0  0  0  0  0  0
   57.7670   29.6680   53.0640 C   0  0  0  0  0  0  0  0  0  0  0  0
   56.5610   30.6500   53.2350 C   0  0  0  0  0  0  0  0  0  0  0  0
   55.9510   30.4800   54.5880 N   0  0  0  0  0  0  0  0  0  0  0  0
   54.4670   30.4680   54.5660 C   0  0  0  0  0  0  0  0  0  0  0  0
   53.8980   29.8450   55.8520 C   0  0  0  0  0  0  0  0  0  0  0  0
   54.2770   28.4900   56.0520 O   0  0  0  0  0  0  0  0  0  0  0  0
   55.4870   28.1390   55.3970 C   0  0  0  0  0  0  0  0  0  0  0  0
   56.4970   29.2990   55.3140 C   0  0  0  0  0  0  0  0  0  0  0  0
   57.0180   32.1120   52.9660 C   0  0  0  0  0  0  0  0  0  0  0  0
   57.6190   32.2510   51.5580 C   0  0  0  0  0  0  0  0  0  0  0  0
   59.1610   31.9450   48.9980 C   0  0  0  0  0  0  0  0  0  0  0  0
   59.5530   31.6930   47.6790 C   0  0  0  0  0  0  0  0  0  0  0  0
  1  2  2  0
  2  3  1  0
  3  4  2  0
  4  5  1  0
  5  6  1  0
  6  7  1  0
  7  8  2  0
  7  9  1  0
  9 10  1  0
 10 11  1  0
  3 12  1  0
 12 13  2  0
 13 14  1  0
 13 15  1  0
 15 16  1  0
 16 17  1  0
 17 18  2  0
 18 19  1  0
 19 20  2  0
 20 21  1  0
 21 22  1  0
 22 23  1  0
 23 24  1  0
 24 25  1  0
 25 26  1  0
 26 27  1  0
 27 28  1  0
 28 29  1  0
 29 30  1  0
 24 31  1  0
 31 32  1  0
 20 33  1  0
 33 34  2  0
 15  2  1  0
 34 17  1  0
 10  5  2  0
 32 21  1  0
 30 25  1  0
M  CHG  3   6  -1   9  -1  11  -1
M  END
>  <UniqueID>  (3052) 
26

>  <SMILES>  (3052) 
C=c1/c(=C\c2[n-]c(=O)[n-]c2[O-])cc(C)n1Cc1ccc(N2CCC(N3CCOCC3)CC2)cc1

>  <Energy>  (3052) 
161.81811050227319

>  <Genealogy>  (3052) 
C=c1c(=Cc2[n-]c(=O)[n-]c2[O-])cc(C)n1Cc1ccc(N2CCC(N3CCOCC3)CC2)cc1 (protonated)
C=c1/c(=C\c2[n-]c(=O)[n-]c2[O-])cc(C)n1Cc1ccc(N2CCC(N3CCOCC3)CC2)cc1 (cis-trans isomerization)
C=c1/c(=C\c2[n-]c(=O)[n-]c2[O-])cc(C)n1Cc1ccc(N2CCC(N3CCOCC3)CC2)cc1 (3D coordinates assigned)
C=c1/c(=C\c2[n-]c(=O)[n-]c2[O-])cc(C)n1Cc1ccc(N2CCC(N3CCOCC3)CC2)cc1 (nonaromatic ring conformer: 161.81811050227319 kcal/mol)

>  <smiles>  (3052) 
C=c1c(=Cc2[nH]c(=O)[nH]c2O)cc(C)n1Cc1ccc(N2CCC(N3CCOCC3)CC2)cc1

>  <score_type>  (3052) 
oracle

>  <origin>  (3052) 
adg

>  <m_score__min__energy>  (3052) 
-16.699999999999999

>  <m_primary>  (3052) 
energy

$$$$
30:0
     RDKit          3D

 36 40  0  0  0  0  0  0  0  0999 V2000
   56.0670   32.2880   52.3750 C   0  0  0  0  0  0  0  0  0  0  0  0
   55.6380   31.0370   52.6110 C   0  0  0  0  0  0  0  0  0  0  0  0
   54.4580   30.4730   52.1120 C   0  0  0  0  0  0  0  0  0  0  0  0
   53.5190   31.0720   51.3520 C   0  0  0  0  0  0  0  0  0  0  0  0
   52.2010   31.5020   51.8570 C   0  0  0  0  0  0  0  0  0  0  0  0
   51.7880   31.2890   53.1180 N   0  0  0  0  0  0  0  0  0  0  0  0
   50.6170   31.9600   53.1810 C   0  0  0  0  0  0  0  0  0  0  0  0
   49.9130   31.9950   54.2220 O   0  0  0  0  0  0  0  0  0  0  0  0
   50.2780   32.6140   52.0500 N   0  0  0  0  0  0  0  0  0  0  0  0
   51.2940   32.3240   51.2250 C   0  0  0  0  0  0  0  0  0  0  0  0
   51.4150   32.8430   49.9440 O   0  0  0  0  0  0  0  0  0  0  0  0
   54.4240   29.1670   52.5710 C   0  0  0  0  0  0  0  0  0  0  0  0
   55.5670   28.9810   53.3210 C   0  0  0  0  0  0  0  0  0  0  0  0
   55.9570   27.6770   53.9490 C   0  0  0  0  0  0  0  0  0  0  0  0
   56.3140   30.1110   53.3440 N   0  0  0  0  0  0  0  0  0  0  0  0
   57.6540   30.2220   53.9490 C   0  0  0  0  0  0  0  0  0  0  0  0
   58.6680   29.4810   53.1140 C   0  0  0  0  0  0  0  0  0  0  0  0
   58.9330   28.1220   53.3530 C   0  0  0  0  0  0  0  0  0  0  0  0
   59.8020   27.4160   52.5170 C   0  0  0  0  0  0  0  0  0  0  0  0
   60.4040   28.0540   51.4310 C   0  0  0  0  0  0  0  0  0  0  0  0
   60.1640   29.4150   51.1930 C   0  0  0  0  0  0  0  0  0  0  0  0
   60.7510   30.0830   50.0180 C   0  0  0  0  0  0  0  0  0  0  0  0
   61.5920   31.0040   50.2020 O   0  0  0  0  0  0  0  0  0  0  0  0
   60.3470   29.7290   48.6790 N   0  0  0  0  0  0  0  0  0  0  0  0
   59.0000   29.1980   48.4180 C   0  0  0  0  0  0  0  0  0  0  0  0
   58.4140   29.8330   47.1490 C   0  0  0  0  0  0  0  0  0  0  0  0
   58.9280   31.2170   47.0110 N   0  0  0  0  0  0  0  0  0  0  0  0
   58.1120   32.0150   46.0510 C   0  0  0  0  0  0  0  0  0  0  0  0
   58.4990   31.7520   44.5740 C   0  0  0  0  0  0  0  0  0  0  0  0
   57.7480   32.6910   43.6030 C   0  0  0  0  0  0  0  0  0  0  0  0
   57.2370   33.8680   44.2080 O   0  0  0  0  0  0  0  0  0  0  0  0
   58.1850   34.4050   45.1030 C   0  0  0  0  0  0  0  0  0  0  0  0
   58.2800   33.5280   46.3570 C   0  0  0  0  0  0  0  0  0  0  0  0
   60.3790   31.1790   46.6800 C   0  0  0  0  0  0  0  0  0  0  0  0
   61.1490   30.1340   47.5180 C   0  0  0  0  0  0  0  0  0  0  0  0
   59.3170   30.1300   52.0530 C   0  0  0  0  0  0  0  0  0  0  0  0
  1  2  2  0
  2  3  1  0
  3  4  2  0
  4  5  1  0
  5  6  1  0
  6  7  1  0
  7  8  2  0
  7  9  1  0
  9 10  1  0
 10 11  1  0
  3 12  1  0
 12 13  2  0
 13 14  1  0
 13 15  1  0
 15 16  1  0
 16 17  1  0
 17 18  2  0
 18 19  1  0
 19 20  2  0
 20 21  1  0
 21 22  1  0
 22 23  2  0
 22 24  1  0
 24 25  1  0
 25 26  1  0
 26 27  1  0
 27 28  1  0
 28 29  1  0
 29 30  1  0
 30 31  1  0
 31 32  1  0
 32 33  1  0
 27 34  1  0
 34 35  1  0
 21 36  2  0
 15  2  1  0
 36 17  1  0
 10  5  2  0
 35 24  1  0
 33 28  1  0
M  CHG  3   6  -1   9  -1  11  -1
M  END
>  <UniqueID>  (3053) 
30

>  <SMILES>  (3053) 
C=c1/c(=C/c2[n-]c(=O)[n-]c2[O-])cc(C)n1Cc1cccc(C(=O)N2CCN(C3CCOCC3)CC2)c1

>  <Energy>  (3053) 
157.85895219174628

>  <Genealogy>  (3053) 
C=c1c(=Cc2[n-]c(=O)[n-]c2[O-])cc(C)n1Cc1cccc(C(=O)N2CCN(C3CCOCC3)CC2)c1 (protonated)
C=c1/c(=C/c2[n-]c(=O)[n-]c2[O-])cc(C)n1Cc1cccc(C(=O)N2CCN(C3CCOCC3)CC2)c1 (cis-trans isomerization)
C=c1/c(=C/c2[n-]c(=O)[n-]c2[O-])cc(C)n1Cc1cccc(C(=O)N2CCN(C3CCOCC3)CC2)c1 (3D coordinates assigned)
C=c1/c(=C/c2[n-]c(=O)[n-]c2[O-])cc(C)n1Cc1cccc(C(=O)N2CCN(C3CCOCC3)CC2)c1 (nonaromatic ring conformer: 157.85895219174628 kcal/mol)

>  <smiles>  (3053) 
C=c1c(=Cc2[nH]c(=O)[nH]c2O)cc(C)n1Cc1cccc(C(=O)N2CCN(C3CCOCC3)CC2)c1

>  <score_type>  (3053) 
oracle

>  <origin>  (3053) 
adg

>  <m_score__min__energy>  (3053) 
-19.050000000000001

>  <m_primary>  (3053) 
energy

$$$$
42:0
     RDKit          3D

 29 31  0  0  0  0  0  0  0  0999 V2000
   57.4100   23.9830   46.6320 O   0  0  0  0  0  0  0  0  0  0  0  0
   56.2520   24.4050   46.3660 C   0  0  0  0  0  0  0  0  0  0  0  0
   55.2210   23.4890   45.9940 N   0  0  0  0  0  0  0  0  0  0  0  0
   53.6750   24.0340   45.4370 S   0  0  0  0  0  0  0  0  0  0  0  0
   53.5220   23.7080   43.9780 O   0  0  0  0  0  0  0  0  0  0  0  0
   53.5740   25.5200   45.6290 O   0  0  0  0  0  0  0  0  0  0  0  0
   52.4090   23.2200   46.3420 C   0  0  0  0  0  0  0  0  0  0  0  0
   51.0580   23.2440   46.0340 C   0  0  0  0  0  0  0  0  0  0  0  0
   50.2920   22.4340   46.8790 C   0  0  0  0  0  0  0  0  0  0  0  0
   51.0390   21.7730   47.8460 C   0  0  0  0  0  0  0  0  0  0  0  0
   52.6570   22.1920   47.6470 S   0  0  0  0  0  0  0  0  0  0  0  0
   55.9690   25.8080   46.4260 N   0  0  0  0  0  0  0  0  0  0  0  0
   57.0100   26.7930   46.3480 C   0  0  0  0  0  0  0  0  0  0  0  0
   58.2520   26.5240   46.9230 C   0  0  0  0  0  0  0  0  0  0  0  0
   59.2920   27.4440   46.8060 C   0  0  0  0  0  0  0  0  0  0  0  0
   59.1040   28.6510   46.1270 C   0  0  0  0  0  0  0  0  0  0  0  0
   60.5040   29.7100   45.9860 Cl  0  0  0  0  0  0  0  0  0  0  0  0
   57.8370   28.9640   45.5750 C   0  0  0  0  0  0  0  0  0  0  0  0
   57.5250   30.4980   44.7190 S   0  0  0  0  0  0  0  0  0  0  0  0
   56.0830   30.8960   44.8680 O   0  0  0  0  0  0  0  0  0  0  0  0
   57.7650   30.2910   43.2500 O   0  0  0  0  0  0  0  0  0  0  0  0
   58.5300   31.8180   45.2880 N   0  0  0  0  0  0  0  0  0  0  0  0
   58.3810   33.0380   44.4760 C   0  0  0  0  0  0  0  0  0  0  0  0
   57.1650   33.9000   44.8960 C   0  0  0  0  0  0  0  0  0  0  0  0
   56.5460   33.4470   46.0830 O   0  0  0  0  0  0  0  0  0  0  0  0
   57.5200   33.2600   47.0840 C   0  0  0  0  0  0  0  0  0  0  0  0
   58.4200   32.0600   46.7430 C   0  0  0  0  0  0  0  0  0  0  0  0
   56.7900   28.0260   45.7070 C   0  0  0  0  0  0  0  0  0  0  0  0
   55.5220   28.3190   45.2150 O   0  0  0  0  0  0  0  0  0  0  0  0
  1  2  2  0
  2  3  1  0
  3  4  1  0
  4  5  2  0
  4  6  2  0
  4  7  1  0
  7  8  2  0
  8  9  1  0
  9 10  2  0
 10 11  1  0
  2 12  1  0
 12 13  1  0
 13 14  2  0
 14 15  1  0
 15 16  2  0
 16 17  1  0
 16 18  1  0
 18 19  1  0
 19 20  2  0
 19 21  2  0
 19 22  1  0
 22 23  1  0
 23 24  1  0
 24 25  1  0
 25 26  1  0
 26 27  1  0
 18 28  2  0
 28 29  1  0
 11  7  1  0
 28 13  1  0
 27 22  1  0
M  CHG  2   3  -1  29  -1
M  END
>  <UniqueID>  (3054) 
41

>  <SMILES>  (3054) 
O=C([N-]S(=O)(=O)c1cccs1)Nc1ccc(Cl)c(S(=O)(=O)N2CCOCC2)c1[O-]

>  <Energy>  (3054) 
90.3838896805133

>  <Genealogy>  (3054) 
O=C([N-]S(=O)(=O)c1cccs1)Nc1ccc(Cl)c(S(=O)(=O)N2CCOCC2)c1[O-] (protonated)
O=C([N-]S(=O)(=O)c1cccs1)Nc1ccc(Cl)c(S(=O)(=O)N2CCOCC2)c1[O-] (3D coordinates assigned)
O=C([N-]S(=O)(=O)c1cccs1)Nc1ccc(Cl)c(S(=O)(=O)N2CCOCC2)c1[O-] (nonaromatic ring conformer: 90.3838896805133 kcal/mol)

>  <smiles>  (3054) 
O=C(Nc1ccc(Cl)c(S(=O)(=O)N2CCOCC2)c1O)NS(=O)(=O)c1cccs1

>  <score_type>  (3054) 
oracle

>  <origin>  (3054) 
adg

>  <m_score__min__energy>  (3054) 
-14.720000000000001

>  <m_primary>  (3054) 
energy

$$$$
62:0
     RDKit          3D

 32 34  0  0  0  0  0  0  0  0999 V2000
   57.2030   34.1510   44.8090 O   0  0  0  0  0  0  0  0  0  0  0  0
   57.6130   32.9790   45.0290 C   0  0  0  0  0  0  0  0  0  0  0  0
   56.7590   31.8180   44.6140 C   0  0  0  0  0  0  0  0  0  0  0  0
   57.3890   30.5620   45.0130 N   0  0  0  0  0  0  0  0  0  0  0  0
   56.6330   29.3610   45.2400 C   0  0  0  0  0  0  0  0  0  0  0  0
   55.3720   29.3940   45.2020 O   0  0  0  0  0  0  0  0  0  0  0  0
   57.3190   28.0810   45.5380 C   0  0  0  0  0  0  0  0  0  0  0  0
   56.5810   26.9330   45.8830 C   0  0  0  0  0  0  0  0  0  0  0  0
   55.1930   27.0160   45.9720 O   0  0  0  0  0  0  0  0  0  0  0  0
   57.2190   25.7480   46.1530 N   0  0  0  0  0  0  0  0  0  0  0  0
   56.4320   24.5410   46.4760 C   0  0  0  0  0  0  0  0  0  0  0  0
   56.5410   23.5280   45.3650 C   0  0  0  0  0  0  0  0  0  0  0  0
   56.1090   23.8470   44.0660 C   0  0  0  0  0  0  0  0  0  0  0  0
   56.2420   22.9170   43.0300 C   0  0  0  0  0  0  0  0  0  0  0  0
   56.8100   21.6650   43.2800 C   0  0  0  0  0  0  0  0  0  0  0  0
   57.2440   21.3400   44.5670 C   0  0  0  0  0  0  0  0  0  0  0  0
   57.1130   22.2670   45.6070 C   0  0  0  0  0  0  0  0  0  0  0  0
   58.5890   25.6840   46.0820 C   0  0  0  0  0  0  0  0  0  0  0  0
   59.2010   24.6100   46.3310 O   0  0  0  0  0  0  0  0  0  0  0  0
   59.3090   26.7820   45.7430 N   0  0  0  0  0  0  0  0  0  0  0  0
   58.7160   27.9660   45.4640 C   0  0  0  0  0  0  0  0  0  0  0  0
   59.4310   28.9440   45.1180 O   0  0  0  0  0  0  0  0  0  0  0  0
   58.8840   32.7520   45.6590 N   0  0  0  0  0  0  0  0  0  0  0  0
   59.8180   33.7990   45.9690 C   0  0  0  0  0  0  0  0  0  0  0  0
   59.6820   34.9450   45.4570 O   0  0  0  0  0  0  0  0  0  0  0  0
   60.9850   33.5310   46.8360 C   0  0  0  0  0  0  0  0  0  0  0  0
   62.2720   33.8270   46.3540 C   0  0  0  0  0  0  0  0  0  0  0  0
   63.4010   33.5710   47.1380 C   0  0  0  0  0  0  0  0  0  0  0  0
   63.2570   33.0260   48.4150 C   0  0  0  0  0  0  0  0  0  0  0  0
   61.9840   32.7450   48.9150 C   0  0  0  0  0  0  0  0  0  0  0  0
   60.8440   32.9960   48.1390 C   0  0  0  0  0  0  0  0  0  0  0  0
   59.2680   32.7080   48.8700 Cl  0  0  0  0  0  0  0  0  0  0  0  0
  1  2  2  0
  2  3  1  0
  3  4  1  0
  4  5  1  0
  5  6  2  0
  5  7  1  0
  7  8  2  0
  8  9  1  0
  8 10  1  0
 10 11  1  0
 11 12  1  0
 12 13  2  0
 13 14  1  0
 14 15  2  0
 15 16  1  0
 16 17  2  0
 10 18  1  0
 18 19  2  0
 18 20  1  0
 20 21  1  0
 21 22  2  0
  2 23  1  0
 23 24  1  0
 24 25  2  0
 24 26  1  0
 26 27  2  0
 27 28  1  0
 28 29  2  0
 29 30  1  0
 30 31  2  0
 31 32  1  0
 21  7  1  0
 31 26  1  0
 17 12  1  0
M  CHG  2   9  -1  20  -1
M  END
>  <UniqueID>  (3055) 
60

>  <SMILES>  (3055) 
O=C(CNC(=O)c1c([O-])n(Cc2ccccc2)c(=O)[n-]c1=O)NC(=O)c1ccccc1Cl

>  <Energy>  (3055) 
61.85074075959155

>  <Genealogy>  (3055) 
O=C(CNC(=O)c1c([O-])n(Cc2ccccc2)c(=O)[n-]c1=O)NC(=O)c1ccccc1Cl (protonated)
O=C(CNC(=O)c1c([O-])n(Cc2ccccc2)c(=O)[n-]c1=O)NC(=O)c1ccccc1Cl (3D coordinates assigned)
O=C(CNC(=O)c1c([O-])n(Cc2ccccc2)c(=O)[n-]c1=O)NC(=O)c1ccccc1Cl (optimized conformer: 61.85074075959155 kcal/mol)

>  <smiles>  (3055) 
O=C(CNC(=O)c1c(O)n(Cc2ccccc2)c(=O)[nH]c1=O)NC(=O)c1ccccc1Cl

>  <score_type>  (3055) 
oracle

>  <origin>  (3055) 
adg

>  <m_score__min__energy>  (3055) 
-14.81

>  <m_primary>  (3055) 
energy

$$$$
66:0
     RDKit          3D

 31 34  0  0  0  0  0  0  0  0999 V2000
   58.4420   27.6200   45.6580 C   0  0  0  0  0  0  0  0  0  0  0  0
   57.2130   26.8250   45.8140 C   0  0  0  0  0  0  0  0  0  0  0  0
   57.1920   25.5830   46.3270 N   0  0  0  0  0  0  0  0  0  0  0  0
   55.8740   25.2940   46.3940 C   0  0  0  0  0  0  0  0  0  0  0  0
   55.4420   24.1910   46.8170 O   0  0  0  0  0  0  0  0  0  0  0  0
   55.0550   26.2860   45.9850 N   0  0  0  0  0  0  0  0  0  0  0  0
   55.9160   27.2540   45.6350 C   0  0  0  0  0  0  0  0  0  0  0  0
   55.5250   28.5110   45.1890 O   0  0  0  0  0  0  0  0  0  0  0  0
   58.9000   28.5350   46.5350 C   0  0  0  0  0  0  0  0  0  0  0  0
   59.2540   28.2190   47.8320 C   0  0  0  0  0  0  0  0  0  0  0  0
   59.6050   29.3990   48.4550 C   0  0  0  0  0  0  0  0  0  0  0  0
   60.0930   29.4590   49.8470 C   0  0  0  0  0  0  0  0  0  0  0  0
   61.3010   29.7570   50.0570 O   0  0  0  0  0  0  0  0  0  0  0  0
   59.1820   29.2650   50.9410 N   0  0  0  0  0  0  0  0  0  0  0  0
   58.2810   30.1020   51.3680 C   0  0  0  0  0  0  0  0  0  0  0  0
   57.0950   29.6740   51.8840 N   0  0  0  0  0  0  0  0  0  0  0  0
   56.1560   30.5500   52.3240 C   0  0  0  0  0  0  0  0  0  0  0  0
   56.4070   31.9210   52.2460 C   0  0  0  0  0  0  0  0  0  0  0  0
   57.5880   32.3540   51.7310 N   0  0  0  0  0  0  0  0  0  0  0  0
   58.5290   31.4780   51.2900 C   0  0  0  0  0  0  0  0  0  0  0  0
   59.4740   30.4450   47.5980 N   0  0  0  0  0  0  0  0  0  0  0  0
   59.6310   31.8770   47.9180 C   0  0  0  0  0  0  0  0  0  0  0  0
   60.9970   32.3940   47.5160 C   0  0  0  0  0  0  0  0  0  0  0  0
   62.1490   31.7040   47.9420 C   0  0  0  0  0  0  0  0  0  0  0  0
   63.4210   32.1530   47.5810 C   0  0  0  0  0  0  0  0  0  0  0  0
   63.5630   33.3050   46.8060 C   0  0  0  0  0  0  0  0  0  0  0  0
   62.4330   34.0150   46.3990 C   0  0  0  0  0  0  0  0  0  0  0  0
   61.1520   33.5750   46.7540 C   0  0  0  0  0  0  0  0  0  0  0  0
   59.7770   34.5510   46.2520 Cl  0  0  0  0  0  0  0  0  0  0  0  0
   59.1150   29.9130   46.3970 C   0  0  0  0  0  0  0  0  0  0  0  0
   59.1420   30.6020   45.2440 C   0  0  0  0  0  0  0  0  0  0  0  0
  1  2  1  0
  2  3  1  0
  3  4  1  0
  4  5  2  0
  4  6  1  0
  6  7  1  0
  7  8  1  0
  1  9  2  3
  9 10  1  0
 10 11  2  0
 11 12  1  0
 12 13  2  0
 12 14  1  0
 14 15  2  0
 15 16  1  0
 16 17  1  0
 17 18  2  0
 18 19  1  0
 19 20  2  0
 11 21  1  0
 21 22  1  0
 22 23  1  0
 23 24  2  0
 24 25  1  0
 25 26  2  0
 26 27  1  0
 27 28  2  0
 28 29  1  0
 21 30  1  0
 30 31  2  0
  7  2  2  0
 30  9  1  0
 20 15  1  0
 28 23  1  0
M  CHG  4   3  -1   6  -1   8  -1  16  -1
M  END
>  <UniqueID>  (3056) 
64

>  <SMILES>  (3056) 
C=c1c(=Cc2[n-]c(=O)[n-]c2[O-])cc(C(=O)/N=c2/cncc[n-]2)n1Cc1ccccc1Cl

>  <Energy>  (3056) 
129.15399956810225

>  <Genealogy>  (3056) 
C=c1c(=Cc2[n-]c(=O)[n-]c2[O-])cc(C(=O)N=c2cncc[n-]2)n1Cc1ccccc1Cl (protonated)
C=c1c(=Cc2[n-]c(=O)[n-]c2[O-])cc(C(=O)/N=c2/cncc[n-]2)n1Cc1ccccc1Cl (cis-trans isomerization)
C=c1c(=Cc2[n-]c(=O)[n-]c2[O-])cc(C(=O)/N=c2/cncc[n-]2)n1Cc1ccccc1Cl (3D coordinates assigned)
C=c1c(=Cc2[n-]c(=O)[n-]c2[O-])cc(C(=O)/N=c2/cncc[n-]2)n1Cc1ccccc1Cl (optimized conformer: 129.15399956810225 kcal/mol)

>  <smiles>  (3056) 
C=c1c(=Cc2[nH]c(=O)[nH]c2O)cc(C(=O)N=c2cncc[nH]2)n1Cc1ccccc1Cl

>  <score_type>  (3056) 
oracle

>  <origin>  (3056) 
adg

>  <m_score__min__energy>  (3056) 
-17.289999999999999

>  <m_primary>  (3056) 
energy

$$$$
79:0
     RDKit          3D

 35 38  0  0  0  0  0  0  0  0999 V2000
   51.3840   32.7660   49.7550 O   0  0  0  0  0  0  0  0  0  0  0  0
   51.5400   32.3080   50.9170 C   0  0  0  0  0  0  0  0  0  0  0  0
   52.6540   31.3400   51.1980 C   0  0  0  0  0  0  0  0  0  0  0  0
   52.4320   30.5650   52.4310 N   0  0  0  0  0  0  0  0  0  0  0  0
   53.4150   29.5790   52.7950 C   0  0  0  0  0  0  0  0  0  0  0  0
   53.0650   28.3720   52.8950 O   0  0  0  0  0  0  0  0  0  0  0  0
   54.8210   29.9510   53.0810 C   0  0  0  0  0  0  0  0  0  0  0  0
   55.5060   29.3830   54.1680 C   0  0  0  0  0  0  0  0  0  0  0  0
   56.8400   29.7150   54.4150 C   0  0  0  0  0  0  0  0  0  0  0  0
   57.5160   30.5860   53.5590 C   0  0  0  0  0  0  0  0  0  0  0  0
   56.8670   31.1280   52.4390 C   0  0  0  0  0  0  0  0  0  0  0  0
   57.5990   31.9930   51.5550 N   0  0  0  0  0  0  0  0  0  0  0  0
   58.2950   31.5370   50.3790 C   0  0  0  0  0  0  0  0  0  0  0  0
   58.2350   30.3250   50.0360 O   0  0  0  0  0  0  0  0  0  0  0  0
   59.1390   32.4710   49.6020 C   0  0  0  0  0  0  0  0  0  0  0  0
   60.4060   32.8570   50.0670 C   0  0  0  0  0  0  0  0  0  0  0  0
   61.1420   33.7820   49.3270 C   0  0  0  0  0  0  0  0  0  0  0  0
   62.2730   34.1620   49.7310 O   0  0  0  0  0  0  0  0  0  0  0  0
   60.6150   34.2860   48.1390 C   0  0  0  0  0  0  0  0  0  0  0  0
   59.3620   33.8330   47.7080 C   0  0  0  0  0  0  0  0  0  0  0  0
   58.7600   34.3240   46.4580 C   0  0  0  0  0  0  0  0  0  0  0  0
   59.2830   35.3160   45.8850 O   0  0  0  0  0  0  0  0  0  0  0  0
   57.5850   33.7330   45.8820 N   0  0  0  0  0  0  0  0  0  0  0  0
   57.5020   33.0870   44.5720 C   0  0  0  0  0  0  0  0  0  0  0  0
   57.4710   31.5890   44.7230 C   0  0  0  0  0  0  0  0  0  0  0  0
   56.7150   30.7920   43.8420 C   0  0  0  0  0  0  0  0  0  0  0  0
   56.7160   29.4000   43.9750 C   0  0  0  0  0  0  0  0  0  0  0  0
   57.4670   28.7940   44.9860 C   0  0  0  0  0  0  0  0  0  0  0  0
   58.2210   29.5780   45.8640 C   0  0  0  0  0  0  0  0  0  0  0  0
   58.2290   30.9700   45.7310 C   0  0  0  0  0  0  0  0  0  0  0  0
   58.6780   32.9680   48.4530 O   0  0  0  0  0  0  0  0  0  0  0  0
   55.5080   30.8290   52.2240 C   0  0  0  0  0  0  0  0  0  0  0  0
   51.2580   30.7820   53.2940 C   0  0  0  0  0  0  0  0  0  0  0  0
   50.8860   32.2600   53.3250 C   0  0  0  0  0  0  0  0  0  0  0  0
   50.6720   32.7310   51.9670 N   0  0  0  0  0  0  0  0  0  0  0  0
  1  2  2  0
  2  3  1  0
  3  4  1  0
  4  5  1  0
  5  6  2  0
  5  7  1  0
  7  8  2  0
  8  9  1  0
  9 10  2  0
 10 11  1  0
 11 12  1  0
 12 13  1  0
 13 14  2  0
 13 15  1  0
 15 16  2  0
 16 17  1  0
 17 18  2  0
 17 19  1  0
 19 20  2  0
 20 21  1  0
 21 22  2  0
 21 23  1  0
 23 24  1  0
 24 25  1  0
 25 26  2  0
 26 27  1  0
 27 28  2  0
 28 29  1  0
 29 30  2  0
 20 31  1  0
 11 32  2  0
  4 33  1  0
 33 34  1  0
 34 35  1  0
 35  2  1  0
 32  7  1  0
 31 15  1  0
 30 25  1  0
M  CHG  2  23  -1  35  -1
M  END
>  <UniqueID>  (3057) 
77

>  <SMILES>  (3057) 
O=C1CN(C(=O)c2cccc(NC(=O)c3cc(=O)cc(C(=O)[N-]Cc4ccccc4)o3)c2)CC[N-]1

>  <Energy>  (3057) 
71.23668596741042

>  <Genealogy>  (3057) 
O=C1CN(C(=O)c2cccc(NC(=O)c3cc(=O)cc(C(=O)[N-]Cc4ccccc4)o3)c2)CC[N-]1 (protonated)
O=C1CN(C(=O)c2cccc(NC(=O)c3cc(=O)cc(C(=O)[N-]Cc4ccccc4)o3)c2)CC[N-]1 (3D coordinates assigned)
O=C1CN(C(=O)c2cccc(NC(=O)c3cc(=O)cc(C(=O)[N-]Cc4ccccc4)o3)c2)CC[N-]1 (nonaromatic ring conformer: 71.23668596741042 kcal/mol)

>  <smiles>  (3057) 
O=C1CN(C(=O)c2cccc(NC(=O)c3cc(=O)cc(C(=O)NCc4ccccc4)o3)c2)CCN1

>  <score_type>  (3057) 
oracle

>  <origin>  (3057) 
adg

>  <m_score__min__energy>  (3057) 
-14.109999999999999

>  <m_primary>  (3057) 
energy

$$$$
81:0
     RDKit          3D

 36 39  0  0  0  0  0  0  0  0999 V2000
   54.9530   24.4460   45.4950 C   0  0  0  0  0  0  0  0  0  0  0  0
   55.5320   24.8870   46.7600 N   0  0  0  0  0  0  0  0  0  0  0  0
   57.1270   24.2220   46.9310 S   0  0  0  0  0  0  0  0  0  0  0  0
   57.0890   23.0780   47.9060 O   0  0  0  0  0  0  0  0  0  0  0  0
   57.6050   23.7300   45.5940 O   0  0  0  0  0  0  0  0  0  0  0  0
   58.1950   25.4730   47.5070 N   0  0  0  0  0  0  0  0  0  0  0  0
   59.1290   25.9080   46.4630 C   0  0  0  0  0  0  0  0  0  0  0  0
   58.6090   27.1250   45.7480 C   0  0  0  0  0  0  0  0  0  0  0  0
   57.2270   27.3340   45.6280 C   0  0  0  0  0  0  0  0  0  0  0  0
   56.7400   28.5330   45.1080 C   0  0  0  0  0  0  0  0  0  0  0  0
   57.6270   29.5320   44.6790 C   0  0  0  0  0  0  0  0  0  0  0  0
   57.1000   30.8430   44.2600 C   0  0  0  0  0  0  0  0  0  0  0  0
   56.8450   31.0630   43.0460 O   0  0  0  0  0  0  0  0  0  0  0  0
   56.8600   31.8670   45.2320 N   0  0  0  0  0  0  0  0  0  0  0  0
   57.8340   32.8830   45.5010 C   0  0  0  0  0  0  0  0  0  0  0  0
   58.4100   33.6060   44.4460 C   0  0  0  0  0  0  0  0  0  0  0  0
   59.3980   34.5590   44.7030 C   0  0  0  0  0  0  0  0  0  0  0  0
   59.8430   34.7690   46.0110 C   0  0  0  0  0  0  0  0  0  0  0  0
   59.3010   34.0240   47.0700 C   0  0  0  0  0  0  0  0  0  0  0  0
   59.8470   34.1750   48.4340 C   0  0  0  0  0  0  0  0  0  0  0  0
   59.2840   34.9750   49.2330 O   0  0  0  0  0  0  0  0  0  0  0  0
   61.0230   33.4540   48.8550 N   0  0  0  0  0  0  0  0  0  0  0  0
   61.1650   33.0050   50.2460 C   0  0  0  0  0  0  0  0  0  0  0  0
   62.5410   33.3970   50.7800 C   0  0  0  0  0  0  0  0  0  0  0  0
   63.5790   32.9870   49.8290 N   0  0  0  0  0  0  0  0  0  0  0  0
   64.8060   32.3960   50.2980 C   0  0  0  0  0  0  0  0  0  0  0  0
   64.7970   31.1530   50.9530 C   0  0  0  0  0  0  0  0  0  0  0  0
   65.9920   30.5870   51.4100 C   0  0  0  0  0  0  0  0  0  0  0  0
   67.2020   31.2580   51.2200 C   0  0  0  0  0  0  0  0  0  0  0  0
   67.2200   32.4960   50.5730 C   0  0  0  0  0  0  0  0  0  0  0  0
   66.0290   33.0640   50.1120 C   0  0  0  0  0  0  0  0  0  0  0  0
   63.4490   33.4330   48.4370 C   0  0  0  0  0  0  0  0  0  0  0  0
   62.0650   33.0630   47.8960 C   0  0  0  0  0  0  0  0  0  0  0  0
   58.2670   33.1080   46.8130 C   0  0  0  0  0  0  0  0  0  0  0  0
   59.0090   29.3010   44.7380 C   0  0  0  0  0  0  0  0  0  0  0  0
   59.4980   28.1090   45.2830 C   0  0  0  0  0  0  0  0  0  0  0  0
  1  2  1  0
  2  3  1  0
  3  4  2  0
  3  5  2  0
  3  6  1  0
  6  7  1  0
  7  8  1  0
  8  9  2  0
  9 10  1  0
 10 11  2  0
 11 12  1  0
 12 13  2  0
 12 14  1  0
 14 15  1  0
 15 16  2  0
 16 17  1  0
 17 18  2  0
 18 19  1  0
 19 20  1  0
 20 21  2  0
 20 22  1  0
 22 23  1  0
 23 24  1  0
 24 25  1  0
 25 26  1  0
 26 27  2  0
 27 28  1  0
 28 29  2  0
 29 30  1  0
 30 31  2  0
 25 32  1  0
 32 33  1  0
 19 34  2  0
 11 35  1  0
 35 36  2  0
 36  8  1  0
 34 15  1  0
 33 22  1  0
 31 26  1  0
M  CHG  3   2  -1   6  -1  14  -1
M  END
>  <UniqueID>  (3058) 
79

>  <SMILES>  (3058) 
C[N-]S(=O)(=O)[N-]Cc1ccc(C(=O)[N-]c2cccc(C(=O)N3CCN(c4ccccc4)CC3)c2)cc1

>  <Energy>  (3058) 
76.91695726030282

>  <Genealogy>  (3058) 
C[N-]S(=O)(=O)[N-]Cc1ccc(C(=O)[N-]c2cccc(C(=O)N3CCN(c4ccccc4)CC3)c2)cc1 (protonated)
C[N-]S(=O)(=O)[N-]Cc1ccc(C(=O)[N-]c2cccc(C(=O)N3CCN(c4ccccc4)CC3)c2)cc1 (3D coordinates assigned)
C[N-]S(=O)(=O)[N-]Cc1ccc(C(=O)[N-]c2cccc(C(=O)N3CCN(c4ccccc4)CC3)c2)cc1 (nonaromatic ring conformer: 76.91695726030282 kcal/mol)

>  <smiles>  (3058) 
CNS(=O)(=O)NCc1ccc(C(=O)Nc2cccc(C(=O)N3CCN(c4ccccc4)CC3)c2)cc1

>  <score_type>  (3058) 
oracle

>  <origin>  (3058) 
adg

>  <m_score__min__energy>  (3058) 
-14.75

>  <m_primary>  (3058) 
energy

$$$$
8:0
     RDKit          3D

 32 35  0  0  0  0  0  0  0  0999 V2000
   58.7960   23.8270   46.1620 C   0  0  0  0  0  0  0  0  0  0  0  0
   58.5430   24.9800   45.5230 C   0  0  0  0  0  0  0  0  0  0  0  0
   57.4170   25.2790   44.7410 C   0  0  0  0  0  0  0  0  0  0  0  0
   56.4520   24.4830   44.2410 C   0  0  0  0  0  0  0  0  0  0  0  0
   55.1540   24.2100   44.8800 C   0  0  0  0  0  0  0  0  0  0  0  0
   54.4180   23.1010   44.6780 N   0  0  0  0  0  0  0  0  0  0  0  0
   53.2720   23.3610   45.3410 C   0  0  0  0  0  0  0  0  0  0  0  0
   52.3180   22.5410   45.3970 O   0  0  0  0  0  0  0  0  0  0  0  0
   53.2210   24.5770   45.9290 N   0  0  0  0  0  0  0  0  0  0  0  0
   54.4150   25.1050   45.6140 C   0  0  0  0  0  0  0  0  0  0  0  0
   54.8180   26.3810   45.9850 O   0  0  0  0  0  0  0  0  0  0  0  0
   57.4490   26.6450   44.5220 C   0  0  0  0  0  0  0  0  0  0  0  0
   58.6140   27.1190   45.0960 C   0  0  0  0  0  0  0  0  0  0  0  0
   59.0520   28.5350   45.1070 C   0  0  0  0  0  0  0  0  0  0  0  0
   59.8810   28.9040   44.2290 O   0  0  0  0  0  0  0  0  0  0  0  0
   58.5720   29.5080   46.0730 N   0  0  0  0  0  0  0  0  0  0  0  0
   58.8850   29.1490   47.4860 C   0  0  0  0  0  0  0  0  0  0  0  0
   59.9420   30.0720   48.1190 C   0  0  0  0  0  0  0  0  0  0  0  0
   59.5560   31.5050   48.0520 N   0  0  0  0  0  0  0  0  0  0  0  0
   58.8930   31.9500   49.2990 C   0  0  0  0  0  0  0  0  0  0  0  0
   59.3080   33.3790   49.6960 C   0  0  0  0  0  0  0  0  0  0  0  0
   60.7610   33.4830   50.1880 C   0  0  0  0  0  0  0  0  0  0  0  0
   61.7540   33.3490   49.0620 C   0  0  0  0  0  0  0  0  0  0  0  0
   61.4490   33.8500   47.7850 C   0  0  0  0  0  0  0  0  0  0  0  0
   62.3840   33.7540   46.7490 C   0  0  0  0  0  0  0  0  0  0  0  0
   63.6300   33.1650   46.9810 C   0  0  0  0  0  0  0  0  0  0  0  0
   63.9440   32.6700   48.2500 C   0  0  0  0  0  0  0  0  0  0  0  0
   63.0120   32.7620   49.2890 C   0  0  0  0  0  0  0  0  0  0  0  0
   58.7570   31.8520   46.8490 C   0  0  0  0  0  0  0  0  0  0  0  0
   58.9970   30.8720   45.6940 C   0  0  0  0  0  0  0  0  0  0  0  0
   59.2870   26.1040   45.6890 N   0  0  0  0  0  0  0  0  0  0  0  0
   60.5380   26.2260   46.4470 C   0  0  0  0  0  0  0  0  0  0  0  0
  1  2  2  0
  2  3  1  0
  3  4  2  0
  4  5  1  0
  5  6  1  0
  6  7  1  0
  7  8  2  0
  7  9  1  0
  9 10  1  0
 10 11  1  0
  3 12  1  0
 12 13  2  0
 13 14  1  0
 14 15  2  0
 14 16  1  0
 16 17  1  0
 17 18  1  0
 18 19  1  0
 19 20  1  0
 20 21  1  0
 21 22  1  0
 22 23  1  0
 23 24  2  0
 24 25  1  0
 25 26  2  0
 26 27  1  0
 27 28  2  0
 19 29  1  0
 29 30  1  0
 13 31  1  0
 31 32  1  0
 31  2  1  0
 10  5  2  0
 30 16  1  0
 28 23  1  0
M  CHG  4   6  -1   9  -1  11  -1  16   1
M  END
>  <UniqueID>  (3059) 
9

>  <SMILES>  (3059) 
C=c1/c(=C\c2[n-]c(=O)[n-]c2[O-])cc(C(=O)[NH+]2CCN(CCCc3ccccc3)CC2)n1C

>  <Energy>  (3059) 
149.06235466371785

>  <Genealogy>  (3059) 
C=c1c(=Cc2[n-]c(=O)[n-]c2[O-])cc(C(=O)[NH+]2CCN(CCCc3ccccc3)CC2)n1C (protonated)
C=c1/c(=C\c2[n-]c(=O)[n-]c2[O-])cc(C(=O)[NH+]2CCN(CCCc3ccccc3)CC2)n1C (cis-trans isomerization)
C=c1/c(=C\c2[n-]c(=O)[n-]c2[O-])cc(C(=O)[NH+]2CCN(CCCc3ccccc3)CC2)n1C (3D coordinates assigned)
C=c1/c(=C\c2[n-]c(=O)[n-]c2[O-])cc(C(=O)[NH+]2CCN(CCCc3ccccc3)CC2)n1C (nonaromatic ring conformer: 149.06235466371785 kcal/mol)

>  <smiles>  (3059) 
C=c1c(=Cc2[nH]c(=O)[nH]c2O)cc(C(=O)N2CCN(CCCc3ccccc3)CC2)n1C

>  <score_type>  (3059) 
oracle

>  <origin>  (3059) 
adg

>  <m_score__min__energy>  (3059) 
-16.989999999999998

>  <m_primary>  (3059) 
energy

$$$$
10:0
     RDKit          3D

 28 30  0  0  0  0  0  0  0  0999 V2000
   54.2590   29.4060   54.5680 C   0  0  0  0  0  0  0  0  0  0  0  0
   54.8380   29.9410   53.4790 C   0  0  0  0  0  0  0  0  0  0  0  0
   54.2020   30.7380   52.5240 C   0  0  0  0  0  0  0  0  0  0  0  0
   52.8920   31.0510   52.4580 C   0  0  0  0  0  0  0  0  0  0  0  0
   52.1520   31.2320   51.1960 C   0  0  0  0  0  0  0  0  0  0  0  0
   52.1100   30.3030   50.2260 N   0  0  0  0  0  0  0  0  0  0  0  0
   51.2700   30.8390   49.3140 C   0  0  0  0  0  0  0  0  0  0  0  0
   50.9830   30.2600   48.2340 O   0  0  0  0  0  0  0  0  0  0  0  0
   50.7560   32.0400   49.6540 N   0  0  0  0  0  0  0  0  0  0  0  0
   51.3120   32.2700   50.8540 C   0  0  0  0  0  0  0  0  0  0  0  0
   51.0210   33.3810   51.6360 O   0  0  0  0  0  0  0  0  0  0  0  0
   55.1800   31.1160   51.6200 C   0  0  0  0  0  0  0  0  0  0  0  0
   56.3720   30.5640   52.0550 C   0  0  0  0  0  0  0  0  0  0  0  0
   57.7000   30.7960   51.4170 C   0  0  0  0  0  0  0  0  0  0  0  0
   58.6090   29.9340   51.5760 O   0  0  0  0  0  0  0  0  0  0  0  0
   57.9580   31.9710   50.6000 N   0  0  2  0  0  0  0  0  0  0  0  0
   58.6720   31.5590   49.3650 C   0  0  0  0  0  0  0  0  0  0  0  0
   58.7610   32.6740   48.3470 C   0  0  0  0  0  0  0  0  0  0  0  0
   57.7870   32.8010   47.3420 C   0  0  0  0  0  0  0  0  0  0  0  0
   57.8850   33.8210   46.3920 C   0  0  0  0  0  0  0  0  0  0  0  0
   58.9540   34.7200   46.4350 C   0  0  0  0  0  0  0  0  0  0  0  0
   59.9280   34.5990   47.4310 C   0  0  0  0  0  0  0  0  0  0  0  0
   59.8330   33.5800   48.3840 C   0  0  0  0  0  0  0  0  0  0  0  0
   58.6450   33.0690   51.3560 C   0  0  0  0  0  0  0  0  0  0  0  0
   57.8500   33.4750   52.6100 C   0  0  0  0  0  0  0  0  0  0  0  0
   60.1080   32.7680   51.7450 C   0  0  0  0  0  0  0  0  0  0  0  0
   56.1570   29.8190   53.1720 N   0  0  0  0  0  0  0  0  0  0  0  0
   57.1630   29.0360   53.9000 C   0  0  0  0  0  0  0  0  0  0  0  0
  1  2  2  0
  2  3  1  0
  3  4  2  0
  4  5  1  0
  5  6  1  0
  6  7  1  0
  7  8  2  0
  7  9  1  0
  9 10  1  0
 10 11  1  0
  3 12  1  0
 12 13  2  0
 13 14  1  0
 14 15  2  0
 14 16  1  0
 16 17  1  6
 17 18  1  0
 18 19  2  0
 19 20  1  0
 20 21  2  0
 21 22  1  0
 22 23  2  0
 16 24  1  0
 24 25  1  0
 24 26  1  0
 13 27  1  0
 27 28  1  0
 27  2  1  0
 10  5  2  0
 23 18  1  0
M  CHG  4   6  -1   9  -1  11  -1  16   1
M  END
>  <UniqueID>  (3060) 
10

>  <SMILES>  (3060) 
C=c1/c(=C/c2[n-]c(=O)[n-]c2[O-])cc(C(=O)[N@H+](Cc2ccccc2)C(C)C)n1C

>  <Energy>  (3060) 
125.65293382534651

>  <Genealogy>  (3060) 
C=c1c(=Cc2[n-]c(=O)[n-]c2[O-])cc(C(=O)[NH+](Cc2ccccc2)C(C)C)n1C (protonated)
C=c1c(=Cc2[n-]c(=O)[n-]c2[O-])cc(C(=O)[N@H+](Cc2ccccc2)C(C)C)n1C (chirality)
C=c1/c(=C/c2[n-]c(=O)[n-]c2[O-])cc(C(=O)[N@H+](Cc2ccccc2)C(C)C)n1C (cis-trans isomerization)
C=c1/c(=C/c2[n-]c(=O)[n-]c2[O-])cc(C(=O)[N@H+](Cc2ccccc2)C(C)C)n1C (3D coordinates assigned)
C=c1/c(=C/c2[n-]c(=O)[n-]c2[O-])cc(C(=O)[N@H+](Cc2ccccc2)C(C)C)n1C (optimized conformer: 125.65293382534651 kcal/mol)

>  <smiles>  (3060) 
C=c1c(=Cc2[nH]c(=O)[nH]c2O)cc(C(=O)N(Cc2ccccc2)C(C)C)n1C

>  <score_type>  (3060) 
oracle

>  <origin>  (3060) 
adg

>  <m_score__min__energy>  (3060) 
-16.949999999999999

>  <m_primary>  (3060) 
energy

$$$$
22:0
     RDKit          3D

 30 32  0  0  0  0  0  0  0  0999 V2000
   56.2340   25.2440   45.6740 C   0  0  0  0  0  0  0  0  0  0  0  0
   57.2130   25.8760   46.3250 C   0  0  0  0  0  0  0  0  0  0  0  0
   57.6650   25.4500   47.4800 O   0  0  0  0  0  0  0  0  0  0  0  0
   58.6410   26.2310   47.8730 C   0  0  0  0  0  0  0  0  0  0  0  0
   58.8490   27.2400   46.9450 C   0  0  0  0  0  0  0  0  0  0  0  0
   59.9070   28.3020   47.1080 C   0  0  0  0  0  0  0  0  0  0  0  0
   59.3800   29.6320   47.6180 C   0  0  0  0  0  0  0  0  0  0  0  0
   58.5320   29.5800   48.4970 O   0  0  0  0  0  0  0  0  0  0  0  0
   59.7220   30.9470   47.0680 N   0  0  0  0  0  0  0  0  0  0  0  0
   58.9630   32.0160   47.7490 C   0  0  0  0  0  0  0  0  0  0  0  0
   59.4510   32.2140   49.1840 C   0  0  0  0  0  0  0  0  0  0  0  0
   60.9110   32.3220   49.2370 N   0  0  0  0  0  0  0  0  0  0  0  0
   61.5280   32.7660   50.4600 C   0  0  0  0  0  0  0  0  0  0  0  0
   60.8520   32.8140   51.5250 O   0  0  0  0  0  0  0  0  0  0  0  0
   62.8700   33.1690   50.4610 O   0  0  0  0  0  0  0  0  0  0  0  0
   63.9690   32.2650   50.5450 C   0  0  0  0  0  0  0  0  0  0  0  0
   65.1600   32.7790   49.7500 C   0  0  0  0  0  0  0  0  0  0  0  0
   61.7030   32.2940   47.9990 C   0  0  0  0  0  0  0  0  0  0  0  0
   61.1690   31.2840   46.9540 C   0  0  0  0  0  0  0  0  0  0  0  0
   57.9250   27.0090   45.9140 C   0  0  0  0  0  0  0  0  0  0  0  0
   57.7220   27.6830   44.7590 C   0  0  0  0  0  0  0  0  0  0  0  0
   57.5570   29.1410   44.6250 C   0  0  0  0  0  0  0  0  0  0  0  0
   56.2970   29.7410   44.7840 C   0  0  0  0  0  0  0  0  0  0  0  0
   55.1590   28.9640   44.9670 O   0  0  0  0  0  0  0  0  0  0  0  0
   56.1820   31.0930   44.7600 N   0  0  0  0  0  0  0  0  0  0  0  0
   57.2750   31.8860   44.6230 C   0  0  0  0  0  0  0  0  0  0  0  0
   57.1450   33.1380   44.5940 O   0  0  0  0  0  0  0  0  0  0  0  0
   58.5110   31.3310   44.5220 N   0  0  0  0  0  0  0  0  0  0  0  0
   58.6770   29.9830   44.5390 C   0  0  0  0  0  0  0  0  0  0  0  0
   59.8400   29.5020   44.4610 O   0  0  0  0  0  0  0  0  0  0  0  0
  1  2  2  0
  2  3  1  0
  3  4  1  0
  4  5  2  0
  5  6  1  0
  6  7  1  0
  7  8  2  0
  7  9  1  0
  9 10  1  0
 10 11  1  0
 11 12  1  0
 12 13  1  0
 13 14  2  0
 13 15  1  0
 15 16  1  0
 16 17  1  0
 12 18  1  0
 18 19  1  0
  5 20  1  0
 20 21  2  0
 21 22  1  0
 22 23  2  0
 23 24  1  0
 23 25  1  0
 25 26  1  0
 26 27  2  0
 26 28  1  0
 28 29  1  0
 29 30  2  0
 20  2  1  0
 29 22  1  0
 19  9  1  0
M  CHG  4   9   1  24  -1  25  -1  28  -1
M  END
>  <UniqueID>  (3061) 
22

>  <SMILES>  (3061) 
C=c1occ(CC(=O)[NH+]2CCN(C(=O)OCC)CC2)/c1=C\c1c([O-])[n-]c(=O)[n-]c1=O

>  <Energy>  (3061) 
100.43113861974979

>  <Genealogy>  (3061) 
C=c1occ(CC(=O)[NH+]2CCN(C(=O)OCC)CC2)c1=Cc1c([O-])[n-]c(=O)[n-]c1=O (protonated)
C=c1occ(CC(=O)[NH+]2CCN(C(=O)OCC)CC2)/c1=C\c1c([O-])[n-]c(=O)[n-]c1=O (cis-trans isomerization)
C=c1occ(CC(=O)[NH+]2CCN(C(=O)OCC)CC2)/c1=C\c1c([O-])[n-]c(=O)[n-]c1=O (3D coordinates assigned)
C=c1occ(CC(=O)[NH+]2CCN(C(=O)OCC)CC2)/c1=C\c1c([O-])[n-]c(=O)[n-]c1=O (nonaromatic ring conformer: 100.43113861974979 kcal/mol)

>  <smiles>  (3061) 
C=c1occ(CC(=O)N2CCN(C(=O)OCC)CC2)c1=Cc1c(O)[nH]c(=O)[nH]c1=O

>  <score_type>  (3061) 
oracle

>  <origin>  (3061) 
adg

>  <m_score__min__energy>  (3061) 
-14.390000000000001

>  <m_primary>  (3061) 
energy

$$$$
27:0
     RDKit          3D

 35 38  0  0  0  0  0  0  0  0999 V2000
   54.8850   26.6930   46.0100 O   0  0  0  0  0  0  0  0  0  0  0  0
   55.9410   25.8110   46.2030 C   0  0  0  0  0  0  0  0  0  0  0  0
   55.8370   24.6560   46.8800 N   0  0  0  0  0  0  0  0  0  0  0  0
   57.0750   24.1320   46.7610 C   0  0  0  0  0  0  0  0  0  0  0  0
   57.3940   23.0250   47.2690 O   0  0  0  0  0  0  0  0  0  0  0  0
   57.9430   24.8810   46.0500 N   0  0  0  0  0  0  0  0  0  0  0  0
   57.2190   25.9620   45.7160 C   0  0  0  0  0  0  0  0  0  0  0  0
   57.7160   27.0300   44.8300 C   0  0  0  0  0  0  0  0  0  0  0  0
   58.0500   28.2970   45.1940 C   0  0  0  0  0  0  0  0  0  0  0  0
   59.2980   28.4540   45.8380 C   0  0  0  0  0  0  0  0  0  0  0  0
   59.8110   29.7260   46.0890 C   0  0  0  0  0  0  0  0  0  0  0  0
   61.1400   29.9100   46.7690 C   0  0  0  0  0  0  0  0  0  0  0  0
   61.3550   31.3780   47.1350 C   0  0  0  0  0  0  0  0  0  0  0  0
   59.0810   30.8180   45.7660 N   0  0  0  0  0  0  0  0  0  0  0  0
   57.8420   30.7410   45.2210 C   0  0  0  0  0  0  0  0  0  0  0  0
   56.9980   32.3110   44.9470 S   0  0  0  0  0  0  0  0  0  0  0  0
   58.1930   33.2340   45.9200 C   0  0  0  0  0  0  0  0  0  0  0  0
   58.9620   34.2380   45.3180 C   0  0  0  0  0  0  0  0  0  0  0  0
   59.8820   34.9620   46.0800 C   0  0  0  0  0  0  0  0  0  0  0  0
   60.0310   34.6950   47.4450 C   0  0  0  0  0  0  0  0  0  0  0  0
   59.2630   33.6930   48.0630 C   0  0  0  0  0  0  0  0  0  0  0  0
   59.3750   33.4470   49.5230 C   0  0  0  0  0  0  0  0  0  0  0  0
   59.3040   34.4110   50.3320 O   0  0  0  0  0  0  0  0  0  0  0  0
   59.5590   32.1170   50.0330 N   0  0  0  0  0  0  0  0  0  0  0  0
   58.4760   31.1450   49.9180 C   0  0  0  0  0  0  0  0  0  0  0  0
   57.8050   30.9650   51.2830 C   0  0  0  0  0  0  0  0  0  0  0  0
   58.8180   30.7400   52.3290 N   0  0  0  0  0  0  0  0  0  0  0  0
   58.5540   29.8530   53.4370 C   0  0  0  0  0  0  0  0  0  0  0  0
   59.5080   29.4500   54.1560 O   0  0  0  0  0  0  0  0  0  0  0  0
   57.1690   29.3520   53.7360 C   0  0  0  0  0  0  0  0  0  0  0  0
   59.9630   31.6700   52.4020 C   0  0  0  0  0  0  0  0  0  0  0  0
   60.6000   31.8420   51.0220 C   0  0  0  0  0  0  0  0  0  0  0  0
   58.3550   32.9520   47.2840 C   0  0  0  0  0  0  0  0  0  0  0  0
   57.2520   29.4710   44.9640 C   0  0  0  0  0  0  0  0  0  0  0  0
   55.9460   29.4040   44.6280 C   0  0  0  0  0  0  0  0  0  0  0  0
  1  2  1  0
  2  3  1  0
  3  4  1  0
  4  5  2  0
  4  6  1  0
  6  7  1  0
  7  8  1  0
  8  9  2  0
  9 10  1  0
 10 11  2  0
 11 12  1  0
 12 13  1  0
 11 14  1  0
 14 15  2  0
 15 16  1  0
 16 17  1  0
 17 18  2  0
 18 19  1  0
 19 20  2  0
 20 21  1  0
 21 22  1  0
 22 23  2  0
 22 24  1  0
 24 25  1  0
 25 26  1  0
 26 27  1  0
 27 28  1  0
 28 29  2  0
 28 30  1  0
 27 31  1  0
 31 32  1  0
 21 33  2  0
 15 34  1  0
 34 35  2  0
  7  2  2  0
 34  9  1  0
 33 17  1  0
 32 24  1  0
M  CHG  2   3  -1   6  -1
M  END
>  <UniqueID>  (3062) 
26

>  <SMILES>  (3062) 
C=c1c(Sc2cccc(C(=O)N3CCN(C(C)=O)CC3)c2)nc(CC)c/c1=C/c1[n-]c(=O)[n-]c1O

>  <Energy>  (3062) 
112.97603147340551

>  <Genealogy>  (3062) 
C=c1c(Sc2cccc(C(=O)N3CCN(C(C)=O)CC3)c2)nc(CC)cc1=Cc1[n-]c(=O)[n-]c1O (protonated)
C=c1c(Sc2cccc(C(=O)N3CCN(C(C)=O)CC3)c2)nc(CC)c/c1=C/c1[n-]c(=O)[n-]c1O (cis-trans isomerization)
C=c1c(Sc2cccc(C(=O)N3CCN(C(C)=O)CC3)c2)nc(CC)c/c1=C/c1[n-]c(=O)[n-]c1O (3D coordinates assigned)
C=c1c(Sc2cccc(C(=O)N3CCN(C(C)=O)CC3)c2)nc(CC)c/c1=C/c1[n-]c(=O)[n-]c1O (nonaromatic ring conformer: 112.97603147340551 kcal/mol)

>  <smiles>  (3062) 
C=c1c(Sc2cccc(C(=O)N3CCN(C(C)=O)CC3)c2)nc(CC)cc1=Cc1[nH]c(=O)[nH]c1O

>  <score_type>  (3062) 
oracle

>  <origin>  (3062) 
adg

>  <m_score__min__energy>  (3062) 
-14.699999999999999

>  <m_primary>  (3062) 
energy

$$$$
33:0
     RDKit          3D

 24 26  0  0  0  0  0  0  0  0999 V2000
   57.7320   30.7240   53.7760 C   0  0  0  0  0  0  0  0  0  0  0  0
   56.5480   30.5230   53.1930 C   0  0  0  0  0  0  0  0  0  0  0  0
   55.6840   31.7410   52.4200 S   0  0  0  0  0  0  0  0  0  0  0  0
   54.3820   30.7470   52.0210 C   0  0  0  0  0  0  0  0  0  0  0  0
   53.2640   31.0940   51.3590 C   0  0  0  0  0  0  0  0  0  0  0  0
   52.0500   31.6560   51.9870 C   0  0  0  0  0  0  0  0  0  0  0  0
   51.7330   31.5850   53.2940 N   0  0  0  0  0  0  0  0  0  0  0  0
   50.5520   32.2350   53.3670 C   0  0  0  0  0  0  0  0  0  0  0  0
   49.9250   32.3800   54.4480 O   0  0  0  0  0  0  0  0  0  0  0  0
   50.0950   32.7160   52.1920 N   0  0  0  0  0  0  0  0  0  0  0  0
   51.0540   32.3420   51.3310 C   0  0  0  0  0  0  0  0  0  0  0  0
   51.0210   32.6210   49.9690 O   0  0  0  0  0  0  0  0  0  0  0  0
   54.6670   29.4690   52.5140 C   0  0  0  0  0  0  0  0  0  0  0  0
   53.8690   28.4990   52.3850 O   0  0  0  0  0  0  0  0  0  0  0  0
   55.8710   29.3410   53.1530 N   0  0  0  0  0  0  0  0  0  0  0  0
   56.3290   28.0780   53.7600 C   0  0  0  0  0  0  0  0  0  0  0  0
   55.4710   27.6960   54.9510 C   0  0  0  0  0  0  0  0  0  0  0  0
   56.0080   27.2000   55.9330 O   0  0  0  0  0  0  0  0  0  0  0  0
   54.0370   27.9340   54.9750 N   0  0  0  0  0  0  0  0  0  0  0  0
   53.7220   29.2310   55.6080 C   0  0  0  0  0  0  0  0  0  0  0  0
   52.2070   29.3710   55.8730 C   0  0  0  0  0  0  0  0  0  0  0  0
   51.4700   28.4080   55.1450 O   0  0  0  0  0  0  0  0  0  0  0  0
   51.7830   27.1070   55.6130 C   0  0  0  0  0  0  0  0  0  0  0  0
   53.3070   26.8360   55.6360 C   0  0  0  0  0  0  0  0  0  0  0  0
  1  2  2  0
  2  3  1  0
  3  4  1  0
  4  5  2  3
  5  6  1  0
  6  7  1  0
  7  8  1  0
  8  9  2  0
  8 10  1  0
 10 11  1  0
 11 12  1  0
  4 13  1  0
 13 14  2  0
 13 15  1  0
 15 16  1  0
 16 17  1  0
 17 18  2  0
 17 19  1  0
 19 20  1  0
 20 21  1  0
 21 22  1  0
 22 23  1  0
 23 24  1  0
 15  2  1  0
 24 19  1  0
 11  6  2  0
M  CHG  4   7  -1  10  -1  12  -1  19   1
M  END
>  <UniqueID>  (3063) 
31

>  <SMILES>  (3063) 
C=c1sc(=Cc2[n-]c(=O)[n-]c2[O-])c(=O)n1CC(=O)[NH+]1CCOCC1

>  <Energy>  (3063) 
115.07687345162704

>  <Genealogy>  (3063) 
C=c1sc(=Cc2[n-]c(=O)[n-]c2[O-])c(=O)n1CC(=O)[NH+]1CCOCC1 (protonated)
C=c1sc(=Cc2[n-]c(=O)[n-]c2[O-])c(=O)n1CC(=O)[NH+]1CCOCC1 (3D coordinates assigned)
C=c1sc(=Cc2[n-]c(=O)[n-]c2[O-])c(=O)n1CC(=O)[NH+]1CCOCC1 (nonaromatic ring conformer: 115.07687345162704 kcal/mol)

>  <smiles>  (3063) 
C=c1sc(=Cc2[nH]c(=O)[nH]c2O)c(=O)n1CC(=O)N1CCOCC1

>  <score_type>  (3063) 
oracle

>  <origin>  (3063) 
adg

>  <m_score__min__energy>  (3063) 
-14.09

>  <m_primary>  (3063) 
energy

$$$$
41:0
     RDKit          3D

 29 32  0  0  0  0  0  0  0  0999 V2000
   57.7140   31.8490   43.2040 C   0  0  0  0  0  0  0  0  0  0  0  0
   57.3810   30.7470   43.8770 C   0  0  0  0  0  0  0  0  0  0  0  0
   56.1300   30.1390   43.7000 C   0  0  0  0  0  0  0  0  0  0  0  0
   55.8270   29.0170   44.4030 N   0  0  0  0  0  0  0  0  0  0  0  0
   56.7100   28.4660   45.2780 C   0  0  0  0  0  0  0  0  0  0  0  0
   56.3710   27.3110   45.9880 C   0  0  0  0  0  0  0  0  0  0  0  0
   55.1280   26.7130   45.8090 O   0  0  0  0  0  0  0  0  0  0  0  0
   57.2830   26.7530   46.8830 C   0  0  0  0  0  0  0  0  0  0  0  0
   58.5370   27.3380   47.0750 C   0  0  0  0  0  0  0  0  0  0  0  0
   58.9100   28.5090   46.3710 C   0  0  0  0  0  0  0  0  0  0  0  0
   60.1240   29.0860   46.5510 C   0  0  0  0  0  0  0  0  0  0  0  0
   60.8980   29.0800   47.8460 C   0  0  0  0  0  0  0  0  0  0  0  0
   60.3430   30.0830   48.8280 C   0  0  0  0  0  0  0  0  0  0  0  0
   59.5010   29.6860   49.6820 O   0  0  0  0  0  0  0  0  0  0  0  0
   60.6950   31.4850   48.7660 N   0  0  0  0  0  0  0  0  0  0  0  0
   61.3770   32.0370   47.5830 C   0  0  0  0  0  0  0  0  0  0  0  0
   61.4000   33.5730   47.5910 C   0  0  0  0  0  0  0  0  0  0  0  0
   60.0540   34.1820   48.0370 C   0  0  0  0  0  0  0  0  0  0  0  0
   59.0700   34.1380   46.9390 N   0  0  0  0  0  0  0  0  0  0  0  0
   59.0400   34.9490   45.8660 C   0  0  0  0  0  0  0  0  0  0  0  0
   59.9120   36.0100   45.6490 O   0  0  0  0  0  0  0  0  0  0  0  0
   58.0290   34.5620   45.0180 C   0  0  0  0  0  0  0  0  0  0  0  0
   57.4130   33.4820   45.5390 N   0  0  0  0  0  0  0  0  0  0  0  0
   58.0740   33.2530   46.6950 C   0  0  0  0  0  0  0  0  0  0  0  0
   57.7800   32.2970   47.4600 O   0  0  0  0  0  0  0  0  0  0  0  0
   59.4980   33.5600   49.3490 C   0  0  0  0  0  0  0  0  0  0  0  0
   60.3450   32.3920   49.8710 C   0  0  0  0  0  0  0  0  0  0  0  0
   57.9750   29.0700   45.4630 C   0  0  0  0  0  0  0  0  0  0  0  0
   58.2650   30.1960   44.7510 N   0  0  0  0  0  0  0  0  0  0  0  0
  1  2  2  0
  2  3  1  0
  3  4  2  0
  4  5  1  0
  5  6  2  0
  6  7  1  0
  6  8  1  0
  8  9  2  0
  9 10  1  0
 10 11  2  3
 11 12  1  0
 12 13  1  0
 13 14  2  0
 13 15  1  0
 15 16  1  0
 16 17  1  0
 17 18  1  0
 18 19  1  0
 19 20  1  0
 20 21  1  0
 20 22  2  0
 22 23  1  0
 23 24  1  0
 24 25  2  0
 18 26  1  0
 26 27  1  0
 10 28  1  0
 28 29  2  0
 29  2  1  0
 28  5  1  0
 27 15  1  0
 24 19  1  0
M  CHG  3   7  -1  21  -1  23  -1
M  END
>  <UniqueID>  (3064) 
39

>  <SMILES>  (3064) 
C=c1cnc2c([O-])ccc(=CCC(=O)N3CCC(n4c([O-])c[n-]c4=O)CC3)c2n1

>  <Energy>  (3064) 
95.28977759042525

>  <Genealogy>  (3064) 
C=c1cnc2c([O-])ccc(=CCC(=O)N3CCC(n4c([O-])c[n-]c4=O)CC3)c2n1 (protonated)
C=c1cnc2c([O-])ccc(=CCC(=O)N3CCC(n4c([O-])c[n-]c4=O)CC3)c2n1 (3D coordinates assigned)
C=c1cnc2c([O-])ccc(=CCC(=O)N3CCC(n4c([O-])c[n-]c4=O)CC3)c2n1 (nonaromatic ring conformer: 95.28977759042525 kcal/mol)

>  <smiles>  (3064) 
C=c1cnc2c(O)ccc(=CCC(=O)N3CCC(n4c(O)c[nH]c4=O)CC3)c2n1

>  <score_type>  (3064) 
oracle

>  <origin>  (3064) 
adg

>  <m_score__min__energy>  (3064) 
-14.119999999999999

>  <m_primary>  (3064) 
energy

$$$$
44:0
     RDKit          3D

 30 33  0  0  0  0  0  0  0  0999 V2000
   52.5920   28.3620   53.0810 C   0  0  0  0  0  0  0  0  0  0  0  0
   53.8040   28.9480   52.9920 C   0  0  0  0  0  0  0  0  0  0  0  0
   54.9300   28.1180   53.1660 C   0  0  0  0  0  0  0  0  0  0  0  0
   56.2200   28.6360   53.1470 C   0  0  0  0  0  0  0  0  0  0  0  0
   56.4340   29.9990   52.9340 C   0  0  0  0  0  0  0  0  0  0  0  0
   57.8110   30.5460   52.9220 C   0  0  0  0  0  0  0  0  0  0  0  0
   58.4260   30.7210   54.0090 O   0  0  0  0  0  0  0  0  0  0  0  0
   58.4490   30.9090   51.6890 N   0  0  0  0  0  0  0  0  0  0  0  0
   58.7110   29.8700   50.6820 C   0  0  0  0  0  0  0  0  0  0  0  0
   59.2890   30.4680   49.3930 C   0  0  0  0  0  0  0  0  0  0  0  0
   58.5620   31.7820   49.0520 C   0  0  0  0  0  0  0  0  0  0  0  0
   59.0170   32.3330   47.6850 C   0  0  0  0  0  0  0  0  0  0  0  0
   58.4690   33.6910   47.4600 N   0  0  0  0  0  0  0  0  0  0  0  0
   59.5230   34.7000   47.1660 C   0  0  0  0  0  0  0  0  0  0  0  0
   59.5590   35.1680   45.6970 C   0  0  0  0  0  0  0  0  0  0  0  0
   59.2400   34.0130   44.7470 C   0  0  0  0  0  0  0  0  0  0  0  0
   57.8640   33.3930   45.0470 C   0  0  0  0  0  0  0  0  0  0  0  0
   57.3690   33.6970   46.4740 C   0  0  0  0  0  0  0  0  0  0  0  0
   58.7690   32.8410   50.1670 C   0  0  0  0  0  0  0  0  0  0  0  0
   59.0590   32.2360   51.5540 C   0  0  0  0  0  0  0  0  0  0  0  0
   55.3290   30.8440   52.7530 C   0  0  0  0  0  0  0  0  0  0  0  0
   53.9990   30.3540   52.7720 C   0  0  0  0  0  0  0  0  0  0  0  0
   52.9640   31.2040   52.5310 C   0  0  0  0  0  0  0  0  0  0  0  0
   52.2350   31.3330   51.2530 C   0  0  0  0  0  0  0  0  0  0  0  0
   52.2210   30.3720   50.3130 N   0  0  0  0  0  0  0  0  0  0  0  0
   51.3510   30.8430   49.3930 C   0  0  0  0  0  0  0  0  0  0  0  0
   51.0750   30.2160   48.3370 O   0  0  0  0  0  0  0  0  0  0  0  0
   50.7900   32.0320   49.7000 N   0  0  0  0  0  0  0  0  0  0  0  0
   51.3470   32.3230   50.8870 C   0  0  0  0  0  0  0  0  0  0  0  0
   51.0200   33.4470   51.6350 O   0  0  0  0  0  0  0  0  0  0  0  0
  1  2  2  0
  2  3  1  0
  3  4  2  0
  4  5  1  0
  5  6  1  0
  6  7  2  0
  6  8  1  0
  8  9  1  0
  9 10  1  0
 10 11  1  0
 11 12  1  0
 12 13  1  0
 13 14  1  0
 14 15  1  0
 15 16  1  0
 16 17  1  0
 17 18  1  0
 11 19  1  0
 19 20  1  0
  5 21  2  0
 21 22  1  0
 22 23  2  0
 23 24  1  0
 24 25  1  0
 25 26  1  0
 26 27  2  0
 26 28  1  0
 28 29  1  0
 29 30  1  0
 22  2  1  0
 29 24  2  0
 20  8  1  0
 18 13  1  0
M  CHG  3  25  -1  28  -1  30  -1
M  END
>  <UniqueID>  (3065) 
42

>  <SMILES>  (3065) 
C=c1ccc(C(=O)N2CCC(CN3CCCCC3)CC2)c/c1=C\c1[n-]c(=O)[n-]c1[O-]

>  <Energy>  (3065) 
116.57583805605057

>  <Genealogy>  (3065) 
C=c1ccc(C(=O)N2CCC(CN3CCCCC3)CC2)cc1=Cc1[n-]c(=O)[n-]c1[O-] (protonated)
C=c1ccc(C(=O)N2CCC(CN3CCCCC3)CC2)c/c1=C\c1[n-]c(=O)[n-]c1[O-] (cis-trans isomerization)
C=c1ccc(C(=O)N2CCC(CN3CCCCC3)CC2)c/c1=C\c1[n-]c(=O)[n-]c1[O-] (3D coordinates assigned)
C=c1ccc(C(=O)N2CCC(CN3CCCCC3)CC2)c/c1=C\c1[n-]c(=O)[n-]c1[O-] (nonaromatic ring conformer: 116.57583805605057 kcal/mol)

>  <smiles>  (3065) 
C=c1ccc(C(=O)N2CCC(CN3CCCCC3)CC2)cc1=Cc1[nH]c(=O)[nH]c1O

>  <score_type>  (3065) 
oracle

>  <origin>  (3065) 
adg

>  <m_score__min__energy>  (3065) 
-18.98

>  <m_primary>  (3065) 
energy

$$$$
51:0
     RDKit          3D

 31 34  0  0  0  0  0  0  0  0999 V2000
   60.7030   28.1960   50.4290 C   0  0  0  0  0  0  0  0  0  0  0  0
   61.0670   29.1390   49.5480 C   0  0  0  0  0  0  0  0  0  0  0  0
   61.6360   30.2560   50.0620 N   0  0  0  0  0  0  0  0  0  0  0  0
   61.8620   31.3670   49.3250 C   0  0  0  0  0  0  0  0  0  0  0  0
   62.4090   32.3600   49.8780 O   0  0  0  0  0  0  0  0  0  0  0  0
   61.4780   31.4150   48.0130 N   0  0  0  0  0  0  0  0  0  0  0  0
   61.6340   32.6650   47.2380 C   0  0  0  0  0  0  0  0  0  0  0  0
   60.2850   33.2240   46.8650 C   0  0  0  0  0  0  0  0  0  0  0  0
   59.1280   32.7830   47.5280 C   0  0  0  0  0  0  0  0  0  0  0  0
   57.8730   33.2790   47.1610 C   0  0  0  0  0  0  0  0  0  0  0  0
   57.7620   34.2140   46.1290 C   0  0  0  0  0  0  0  0  0  0  0  0
   58.9080   34.6540   45.4600 C   0  0  0  0  0  0  0  0  0  0  0  0
   60.1650   34.1620   45.8240 C   0  0  0  0  0  0  0  0  0  0  0  0
   60.9260   30.3040   47.4250 C   0  0  0  0  0  0  0  0  0  0  0  0
   60.5830   30.3530   46.2090 O   0  0  0  0  0  0  0  0  0  0  0  0
   60.7750   29.0910   48.1510 C   0  0  0  0  0  0  0  0  0  0  0  0
   60.3930   27.9690   47.4770 C   0  0  0  0  0  0  0  0  0  0  0  0
   59.0230   27.6390   47.0290 C   0  0  0  0  0  0  0  0  0  0  0  0
   58.4760   26.3630   47.2470 C   0  0  0  0  0  0  0  0  0  0  0  0
   57.1920   26.0580   46.7870 C   0  0  0  0  0  0  0  0  0  0  0  0
   56.5160   24.4680   47.1090 Cl  0  0  0  0  0  0  0  0  0  0  0  0
   56.4530   27.0140   46.0760 C   0  0  0  0  0  0  0  0  0  0  0  0
   55.1600   26.7180   45.6600 O   0  0  0  0  0  0  0  0  0  0  0  0
   57.0170   28.2750   45.8040 C   0  0  0  0  0  0  0  0  0  0  0  0
   56.2740   29.2870   45.0310 C   0  0  0  0  0  0  0  0  0  0  0  0
   55.1480   28.9910   44.5500 O   0  0  0  0  0  0  0  0  0  0  0  0
   56.7790   30.6150   44.8500 N   0  0  0  0  0  0  0  0  0  0  0  0
   57.8250   30.9600   43.8940 C   0  0  0  0  0  0  0  0  0  0  0  0
   57.7800   32.4070   43.4370 C   0  0  0  0  0  0  0  0  0  0  0  0
   57.2780   31.3010   42.5210 C   0  0  0  0  0  0  0  0  0  0  0  0
   58.2960   28.5820   46.2880 C   0  0  0  0  0  0  0  0  0  0  0  0
  1  2  2  0
  2  3  1  0
  3  4  1  0
  4  5  2  0
  4  6  1  0
  6  7  1  0
  7  8  1  0
  8  9  2  0
  9 10  1  0
 10 11  2  0
 11 12  1  0
 12 13  2  0
  6 14  1  0
 14 15  2  0
 14 16  1  0
 16 17  2  3
 17 18  1  0
 18 19  2  0
 19 20  1  0
 20 21  1  0
 20 22  2  0
 22 23  1  0
 22 24  1  0
 24 25  1  0
 25 26  2  0
 25 27  1  0
 27 28  1  0
 28 29  1  0
 29 30  1  0
 24 31  2  0
 16  2  1  0
 31 18  1  0
 13  8  1  0
 30 28  1  0
M  CHG  3   3  -1  23  -1  27  -1
M  END
>  <UniqueID>  (3066) 
47

>  <SMILES>  (3066) 
C=c1[n-]c(=O)n(Cc2ccccc2)c(=O)c1=Cc1cc(Cl)c([O-])c(C(=O)[N-]C2CC2)c1

>  <Energy>  (3066) 
347.9084217960006

>  <Genealogy>  (3066) 
C=c1[n-]c(=O)n(Cc2ccccc2)c(=O)c1=Cc1cc(Cl)c([O-])c(C(=O)[N-]C2CC2)c1 (protonated)
C=c1[n-]c(=O)n(Cc2ccccc2)c(=O)c1=Cc1cc(Cl)c([O-])c(C(=O)[N-]C2CC2)c1 (3D coordinates assigned)
C=c1[n-]c(=O)n(Cc2ccccc2)c(=O)c1=Cc1cc(Cl)c([O-])c(C(=O)[N-]C2CC2)c1 (nonaromatic ring conformer: 347.9084217960006 kcal/mol)

>  <smiles>  (3066) 
C=c1[nH]c(=O)n(Cc2ccccc2)c(=O)c1=Cc1cc(Cl)c(O)c(C(=O)NC2CC2)c1

>  <score_type>  (3066) 
oracle

>  <origin>  (3066) 
adg

>  <m_score__min__energy>  (3066) 
-15.51

>  <m_primary>  (3066) 
energy

$$$$
54:0
     RDKit          3D

 28 31  0  0  0  0  0  0  0  0999 V2000
   56.7830   24.7170   44.1340 C   0  0  0  0  0  0  0  0  0  0  0  0
   57.7720   25.1590   44.9150 C   0  0  0  0  0  0  0  0  0  0  0  0
   58.2780   24.4250   45.8770 O   0  0  0  0  0  0  0  0  0  0  0  0
   59.2240   25.1000   46.4810 C   0  0  0  0  0  0  0  0  0  0  0  0
   59.3660   26.3460   45.8950 C   0  0  0  0  0  0  0  0  0  0  0  0
   60.4890   27.2910   46.2470 C   0  0  0  0  0  0  0  0  0  0  0  0
   60.2210   28.0840   47.5000 C   0  0  0  0  0  0  0  0  0  0  0  0
   60.7760   27.7190   48.5710 O   0  0  0  0  0  0  0  0  0  0  0  0
   59.3930   29.2650   47.4970 N   0  0  0  0  0  0  0  0  0  0  0  0
   58.6160   29.6260   48.6880 C   0  0  0  0  0  0  0  0  0  0  0  0
   58.8890   31.0890   49.1010 C   0  0  0  0  0  0  0  0  0  0  0  0
   59.4650   31.9140   48.0070 N   0  0  0  0  0  0  0  0  0  0  0  0
   59.3500   33.3850   48.2350 C   0  0  0  0  0  0  0  0  0  0  0  0
   60.6500   34.1730   47.9970 C   0  0  0  0  0  0  0  0  0  0  0  0
   60.7260   34.3810   46.4970 C   0  0  0  0  0  0  0  0  0  0  0  0
   59.2800   34.4580   46.0210 C   0  0  0  0  0  0  0  0  0  0  0  0
   58.4070   34.0030   47.1910 C   0  0  0  0  0  0  0  0  0  0  0  0
   58.8400   31.5370   46.7180 C   0  0  0  0  0  0  0  0  0  0  0  0
   59.3180   30.1390   46.3190 C   0  0  0  0  0  0  0  0  0  0  0  0
   58.4020   26.4070   44.8780 C   0  0  0  0  0  0  0  0  0  0  0  0
   58.1300   27.3990   44.0030 C   0  0  0  0  0  0  0  0  0  0  0  0
   57.2850   28.5710   44.2750 C   0  0  0  0  0  0  0  0  0  0  0  0
   57.6050   29.8370   43.9530 N   0  0  0  0  0  0  0  0  0  0  0  0
   56.6200   30.5620   44.5270 C   0  0  0  0  0  0  0  0  0  0  0  0
   56.5590   31.8160   44.4370 O   0  0  0  0  0  0  0  0  0  0  0  0
   55.7110   29.8380   45.2150 N   0  0  0  0  0  0  0  0  0  0  0  0
   56.1570   28.5820   45.0570 C   0  0  0  0  0  0  0  0  0  0  0  0
   55.5470   27.4670   45.6200 O   0  0  0  0  0  0  0  0  0  0  0  0
  1  2  2  0
  2  3  1  0
  3  4  1  0
  4  5  2  0
  5  6  1  0
  6  7  1  0
  7  8  2  0
  7  9  1  0
  9 10  1  0
 10 11  1  0
 11 12  1  0
 12 13  1  0
 13 14  1  0
 14 15  1  0
 15 16  1  0
 16 17  1  0
 12 18  1  0
 18 19  1  0
  5 20  1  0
 20 21  2  0
 21 22  1  0
 22 23  1  0
 23 24  1  0
 24 25  2  0
 24 26  1  0
 26 27  1  0
 27 28  1  0
 20  2  1  0
 27 22  2  0
 19  9  1  0
 17 13  1  0
M  CHG  3  23  -1  26  -1  28  -1
M  END
>  <UniqueID>  (3067) 
50

>  <SMILES>  (3067) 
C=c1occ(CC(=O)N2CCN(C3CCCC3)CC2)/c1=C\c1[n-]c(=O)[n-]c1[O-]

>  <Energy>  (3067) 
133.1665148670863

>  <Genealogy>  (3067) 
C=c1occ(CC(=O)N2CCN(C3CCCC3)CC2)c1=Cc1[n-]c(=O)[n-]c1[O-] (protonated)
C=c1occ(CC(=O)N2CCN(C3CCCC3)CC2)/c1=C\c1[n-]c(=O)[n-]c1[O-] (cis-trans isomerization)
C=c1occ(CC(=O)N2CCN(C3CCCC3)CC2)/c1=C\c1[n-]c(=O)[n-]c1[O-] (3D coordinates assigned)
C=c1occ(CC(=O)N2CCN(C3CCCC3)CC2)/c1=C\c1[n-]c(=O)[n-]c1[O-] (nonaromatic ring conformer: 133.1665148670863 kcal/mol)

>  <smiles>  (3067) 
C=c1occ(CC(=O)N2CCN(C3CCCC3)CC2)c1=Cc1[nH]c(=O)[nH]c1O

>  <score_type>  (3067) 
oracle

>  <origin>  (3067) 
adg

>  <m_score__min__energy>  (3067) 
-18.140000000000001

>  <m_primary>  (3067) 
energy

$$$$
57:0
     RDKit          3D

 26 28  0  0  0  0  0  0  0  0999 V2000
   51.5160   32.6770   50.2100 O   0  0  0  0  0  0  0  0  0  0  0  0
   51.2330   32.3830   51.5410 C   0  0  0  0  0  0  0  0  0  0  0  0
   50.4530   33.1530   52.3170 N   0  0  0  0  0  0  0  0  0  0  0  0
   50.5050   32.5250   53.5110 C   0  0  0  0  0  0  0  0  0  0  0  0
   49.8950   32.9490   54.5280 O   0  0  0  0  0  0  0  0  0  0  0  0
   51.2700   31.4120   53.5340 N   0  0  0  0  0  0  0  0  0  0  0  0
   51.7100   31.3110   52.2680 C   0  0  0  0  0  0  0  0  0  0  0  0
   52.6670   30.2870   51.8240 C   0  0  0  0  0  0  0  0  0  0  0  0
   53.9590   30.2040   52.1970 C   0  0  0  0  0  0  0  0  0  0  0  0
   54.8500   31.2510   52.0410 C   0  0  0  0  0  0  0  0  0  0  0  0
   56.0840   30.8020   52.4650 C   0  0  0  0  0  0  0  0  0  0  0  0
   57.3050   31.6310   52.5340 C   0  0  0  0  0  0  0  0  0  0  0  0
   57.4750   32.3810   53.5320 O   0  0  0  0  0  0  0  0  0  0  0  0
   58.3180   31.6020   51.5190 N   0  0  0  0  0  0  0  0  0  0  0  0
   58.1200   31.2820   50.1070 C   0  0  0  0  0  0  0  0  0  0  0  0
   58.4910   32.4890   49.2190 C   0  0  0  0  0  0  0  0  0  0  0  0
   58.0740   32.3700   47.8030 N   0  0  0  0  0  0  0  0  0  0  0  0
   58.6390   31.1870   47.1220 C   0  0  0  0  0  0  0  0  0  0  0  0
   58.3690   31.2460   45.6070 C   0  0  0  0  0  0  0  0  0  0  0  0
   57.2640   32.0850   45.3340 O   0  0  0  0  0  0  0  0  0  0  0  0
   57.5920   33.4330   45.6300 C   0  0  0  0  0  0  0  0  0  0  0  0
   58.2570   33.5990   47.0130 C   0  0  0  0  0  0  0  0  0  0  0  0
   55.9910   29.5230   52.9000 N   0  0  0  0  0  0  0  0  0  0  0  0
   57.0830   28.7210   53.4640 C   0  0  0  0  0  0  0  0  0  0  0  0
   54.6880   29.1540   52.7800 C   0  0  0  0  0  0  0  0  0  0  0  0
   54.1980   28.0070   53.2770 C   0  0  0  0  0  0  0  0  0  0  0  0
  1  2  1  0
  2  3  1  0
  3  4  1  0
  4  5  2  0
  4  6  1  0
  6  7  1  0
  7  8  1  0
  8  9  2  0
  9 10  1  0
 10 11  2  0
 11 12  1  0
 12 13  2  0
 12 14  1  0
 14 15  1  0
 15 16  1  0
 16 17  1  0
 17 18  1  0
 18 19  1  0
 19 20  1  0
 20 21  1  0
 21 22  1  0
 11 23  1  0
 23 24  1  0
 23 25  1  0
 25 26  2  0
  7  2  2  0
 25  9  1  0
 22 17  1  0
M  CHG  3   3  -1   6  -1  14  -1
M  END
>  <UniqueID>  (3068) 
53

>  <SMILES>  (3068) 
C=c1/c(=C\c2[n-]c(=O)[n-]c2O)cc(C(=O)[N-]CCN2CCOCC2)n1C

>  <Energy>  (3068) 
134.50076318856136

>  <Genealogy>  (3068) 
C=c1c(=Cc2[n-]c(=O)[n-]c2O)cc(C(=O)[N-]CCN2CCOCC2)n1C (protonated)
C=c1/c(=C\c2[n-]c(=O)[n-]c2O)cc(C(=O)[N-]CCN2CCOCC2)n1C (cis-trans isomerization)
C=c1/c(=C\c2[n-]c(=O)[n-]c2O)cc(C(=O)[N-]CCN2CCOCC2)n1C (3D coordinates assigned)
C=c1/c(=C\c2[n-]c(=O)[n-]c2O)cc(C(=O)[N-]CCN2CCOCC2)n1C (nonaromatic ring conformer: 134.50076318856136 kcal/mol)

>  <smiles>  (3068) 
C=c1c(=Cc2[nH]c(=O)[nH]c2O)cc(C(=O)NCCN2CCOCC2)n1C

>  <score_type>  (3068) 
oracle

>  <origin>  (3068) 
adg

>  <m_score__min__energy>  (3068) 
-14.01

>  <m_primary>  (3068) 
energy

$$$$
59:0
     RDKit          3D

 27 29  0  0  0  0  0  0  0  0999 V2000
   57.7740   32.7880   43.6160 C   0  0  0  0  0  0  0  0  0  0  0  0
   57.9830   31.6860   44.3400 C   0  0  0  0  0  0  0  0  0  0  0  0
   57.9700   30.4470   43.8150 N   0  0  0  0  0  0  0  0  0  0  0  0
   58.2480   29.5800   44.8130 C   0  0  0  0  0  0  0  0  0  0  0  0
   58.3160   28.2530   44.5970 C   0  0  0  0  0  0  0  0  0  0  0  0
   57.5950   27.2330   45.3810 C   0  0  0  0  0  0  0  0  0  0  0  0
   56.2210   27.3630   45.6240 C   0  0  0  0  0  0  0  0  0  0  0  0
   55.5250   28.4780   45.1710 O   0  0  0  0  0  0  0  0  0  0  0  0
   55.5610   26.3990   46.3180 N   0  0  0  0  0  0  0  0  0  0  0  0
   56.2090   25.2950   46.7700 C   0  0  0  0  0  0  0  0  0  0  0  0
   55.5790   24.4160   47.4130 O   0  0  0  0  0  0  0  0  0  0  0  0
   57.5340   25.1340   46.5230 N   0  0  0  0  0  0  0  0  0  0  0  0
   58.2380   26.0690   45.8340 C   0  0  0  0  0  0  0  0  0  0  0  0
   59.4630   25.8810   45.6080 O   0  0  0  0  0  0  0  0  0  0  0  0
   58.4190   30.2830   46.0130 C   0  0  0  0  0  0  0  0  0  0  0  0
   58.5790   29.7260   47.4020 C   0  0  0  0  0  0  0  0  0  0  0  0
   58.2680   31.6300   45.6960 C   0  0  0  0  0  0  0  0  0  0  0  0
   58.3440   32.7670   46.6360 C   0  0  0  0  0  0  0  0  0  0  0  0
   57.2900   33.3910   46.9320 O   0  0  0  0  0  0  0  0  0  0  0  0
   59.6000   33.1660   47.2150 N   0  0  0  0  0  0  0  0  0  0  0  0
   60.8270   33.0890   46.4040 C   0  0  0  0  0  0  0  0  0  0  0  0
   61.9910   33.8390   47.0600 C   0  0  0  0  0  0  0  0  0  0  0  0
   62.0800   33.4910   48.4840 N   0  0  0  0  0  0  0  0  0  0  0  0
   63.3520   33.3160   49.1290 C   0  0  0  0  0  0  0  0  0  0  0  0
   64.4290   33.4560   48.4910 O   0  0  0  0  0  0  0  0  0  0  0  0
   60.8670   33.4150   49.3090 C   0  0  0  0  0  0  0  0  0  0  0  0
   59.6200   33.8310   48.5220 C   0  0  0  0  0  0  0  0  0  0  0  0
  1  2  2  0
  2  3  1  0
  3  4  1  0
  4  5  2  3
  5  6  1  0
  6  7  2  0
  7  8  1  0
  7  9  1  0
  9 10  1  0
 10 11  2  0
 10 12  1  0
 12 13  1  0
 13 14  2  0
  4 15  1  0
 15 16  1  0
 15 17  2  0
 17 18  1  0
 18 19  2  0
 18 20  1  0
 20 21  1  0
 21 22  1  0
 22 23  1  0
 23 24  1  0
 24 25  2  0
 23 26  1  0
 26 27  1  0
 17  2  1  0
 27 20  1  0
 13  6  1  0
M  CHG  3   8  -1   9  -1  12  -1
M  END
>  <UniqueID>  (3069) 
55

>  <SMILES>  (3069) 
C=c1[nH]c(=Cc2c([O-])[n-]c(=O)[n-]c2=O)c(C)c1C(=O)N1CCN(C=O)CC1

>  <Energy>  (3069) 
87.12420385944377

>  <Genealogy>  (3069) 
C=c1[nH]c(=Cc2c([O-])[n-]c(=O)[n-]c2=O)c(C)c1C(=O)N1CCN(C=O)CC1 (protonated)
C=c1[nH]c(=Cc2c([O-])[n-]c(=O)[n-]c2=O)c(C)c1C(=O)N1CCN(C=O)CC1 (3D coordinates assigned)
C=c1[nH]c(=Cc2c([O-])[n-]c(=O)[n-]c2=O)c(C)c1C(=O)N1CCN(C=O)CC1 (nonaromatic ring conformer: 87.12420385944377 kcal/mol)

>  <smiles>  (3069) 
C=c1[nH]c(=Cc2c(O)[nH]c(=O)[nH]c2=O)c(C)c1C(=O)N1CCN(C=O)CC1

>  <score_type>  (3069) 
oracle

>  <origin>  (3069) 
adg

>  <m_score__min__energy>  (3069) 
-15.880000000000001

>  <m_primary>  (3069) 
energy

$$$$
61:0
     RDKit          3D

 27 30  0  0  0  0  0  0  0  0999 V2000
   63.5020   32.3960   47.3440 O   0  0  0  0  0  0  0  0  0  0  0  0
   62.5430   32.3540   48.3530 C   0  0  0  0  0  0  0  0  0  0  0  0
   62.2560   33.5130   49.0790 C   0  0  0  0  0  0  0  0  0  0  0  0
   61.3030   33.4870   50.1000 C   0  0  0  0  0  0  0  0  0  0  0  0
   60.6170   32.2970   50.4000 C   0  0  0  0  0  0  0  0  0  0  0  0
   60.8950   31.1290   49.6590 C   0  0  0  0  0  0  0  0  0  0  0  0
   61.8680   31.1620   48.6480 C   0  0  0  0  0  0  0  0  0  0  0  0
   60.2300   29.8230   50.0170 C   0  0  0  0  0  0  0  0  0  0  0  0
   58.7930   30.0360   50.5100 C   0  0  0  0  0  0  0  0  0  0  0  0
   58.7470   31.0500   51.6360 C   0  0  0  0  0  0  0  0  0  0  0  0
   57.8660   30.9770   52.6560 C   0  0  0  0  0  0  0  0  0  0  0  0
   56.4350   30.6600   52.5220 C   0  0  0  0  0  0  0  0  0  0  0  0
   55.8380   29.7200   53.2170 O   0  0  0  0  0  0  0  0  0  0  0  0
   54.5830   29.6370   52.8370 C   0  0  0  0  0  0  0  0  0  0  0  0
   53.7710   28.6910   53.3110 C   0  0  0  0  0  0  0  0  0  0  0  0
   54.3300   30.6000   51.8500 C   0  0  0  0  0  0  0  0  0  0  0  0
   53.1990   30.9370   51.2020 C   0  0  0  0  0  0  0  0  0  0  0  0
   51.9820   31.4740   51.8300 C   0  0  0  0  0  0  0  0  0  0  0  0
   51.6870   31.3760   53.1390 N   0  0  0  0  0  0  0  0  0  0  0  0
   50.5760   32.1330   53.2670 C   0  0  0  0  0  0  0  0  0  0  0  0
   49.9770   32.2790   54.3640 O   0  0  0  0  0  0  0  0  0  0  0  0
   50.1640   32.7300   52.1290 N   0  0  0  0  0  0  0  0  0  0  0  0
   51.0740   32.3140   51.2330 C   0  0  0  0  0  0  0  0  0  0  0  0
   51.0790   32.7010   49.8990 O   0  0  0  0  0  0  0  0  0  0  0  0
   55.5470   31.2170   51.6210 C   0  0  0  0  0  0  0  0  0  0  0  0
   59.6010   32.2570   51.4780 C   0  0  0  0  0  0  0  0  0  0  0  0
   59.4690   33.2420   52.2560 O   0  0  0  0  0  0  0  0  0  0  0  0
  1  2  1  0
  2  3  2  0
  3  4  1  0
  4  5  2  0
  5  6  1  0
  6  7  2  0
  6  8  1  0
  8  9  1  0
  9 10  1  0
 10 11  2  0
 11 12  1  0
 12 13  1  0
 13 14  1  0
 14 15  2  0
 14 16  1  0
 16 17  2  0
 17 18  1  0
 18 19  1  0
 19 20  1  0
 20 21  2  0
 20 22  1  0
 22 23  1  0
 23 24  1  0
 16 25  1  0
 10 26  1  0
 26 27  2  0
  7  2  1  0
 25 12  2  0
 26  5  1  0
 23 18  2  0
M  CHG  3  19  -1  22  -1  24  -1
M  END
>  <UniqueID>  (3070) 
57

>  <SMILES>  (3070) 
C=c1oc(/C=C2\CCc3cc(O)ccc3C2=O)c/c1=C/c1[n-]c(=O)[n-]c1[O-]

>  <Energy>  (3070) 
121.36250430802457

>  <Genealogy>  (3070) 
C=c1oc(C=C2CCc3cc(O)ccc3C2=O)cc1=Cc1[n-]c(=O)[n-]c1[O-] (protonated)
C=c1oc(/C=C2\CCc3cc(O)ccc3C2=O)c/c1=C/c1[n-]c(=O)[n-]c1[O-] (cis-trans isomerization)
C=c1oc(/C=C2\CCc3cc(O)ccc3C2=O)c/c1=C/c1[n-]c(=O)[n-]c1[O-] (3D coordinates assigned)
C=c1oc(/C=C2\CCc3cc(O)ccc3C2=O)c/c1=C/c1[n-]c(=O)[n-]c1[O-] (nonaromatic ring conformer: 121.36250430802457 kcal/mol)

>  <smiles>  (3070) 
C=c1oc(C=C2CCc3cc(O)ccc3C2=O)cc1=Cc1[nH]c(=O)[nH]c1O

>  <score_type>  (3070) 
oracle

>  <origin>  (3070) 
adg

>  <m_score__min__energy>  (3070) 
-17.390000000000001

>  <m_primary>  (3070) 
energy

$$$$
68:0
     RDKit          3D

 23 25  0  0  0  0  0  0  0  0999 V2000
   56.0880   29.8120   43.1280 C   0  0  0  0  0  0  0  0  0  0  0  0
   56.7970   29.5510   44.2280 C   0  0  0  0  0  0  0  0  0  0  0  0
   56.6730   28.4110   44.9370 N   0  0  0  0  0  0  0  0  0  0  0  0
   57.5980   28.4550   45.9180 C   0  0  0  0  0  0  0  0  0  0  0  0
   57.7390   27.4810   46.8300 C   0  0  0  0  0  0  0  0  0  0  0  0
   57.1490   26.1360   46.7080 C   0  0  0  0  0  0  0  0  0  0  0  0
   57.7960   25.0130   47.0640 N   0  0  0  0  0  0  0  0  0  0  0  0
   56.8750   24.0440   46.8690 C   0  0  0  0  0  0  0  0  0  0  0  0
   57.1140   22.8280   47.0840 O   0  0  0  0  0  0  0  0  0  0  0  0
   55.6730   24.4830   46.4350 N   0  0  0  0  0  0  0  0  0  0  0  0
   55.8590   25.8100   46.3490 C   0  0  0  0  0  0  0  0  0  0  0  0
   54.8530   26.7040   46.0000 O   0  0  0  0  0  0  0  0  0  0  0  0
   58.3140   29.6440   45.8490 C   0  0  0  0  0  0  0  0  0  0  0  0
   57.7920   30.3470   44.7790 C   0  0  0  0  0  0  0  0  0  0  0  0
   58.2500   31.6720   44.3300 C   0  0  0  0  0  0  0  0  0  0  0  0
   58.1600   31.9660   43.1080 O   0  0  0  0  0  0  0  0  0  0  0  0
   58.8190   32.6140   45.2520 N   0  0  0  0  0  0  0  0  0  0  0  0
   59.6600   32.2050   46.3720 C   0  0  0  0  0  0  0  0  0  0  0  0
   59.9820   33.4510   47.2250 C   0  0  0  0  0  0  0  0  0  0  0  0
   58.8430   34.4710   47.1030 C   0  0  0  0  0  0  0  0  0  0  0  0
   58.1550   34.1760   45.5090 S   0  0  0  0  0  0  0  0  0  0  0  0
   58.6550   35.1710   44.5020 O   0  0  0  0  0  0  0  0  0  0  0  0
   56.6530   34.1380   45.5510 O   0  0  0  0  0  0  0  0  0  0  0  0
  1  2  2  0
  2  3  1  0
  3  4  1  0
  4  5  2  3
  5  6  1  0
  6  7  1  0
  7  8  1  0
  8  9  2  0
  8 10  1  0
 10 11  1  0
 11 12  1  0
  4 13  1  0
 13 14  2  0
 14 15  1  0
 15 16  2  0
 15 17  1  0
 17 18  1  0
 18 19  1  0
 19 20  1  0
 20 21  1  0
 21 22  2  0
 21 23  2  0
 14  2  1  0
 21 17  1  0
 11  6  2  0
M  CHG  3   7  -1  10  -1  12  -1
M  END
>  <UniqueID>  (3071) 
63

>  <SMILES>  (3071) 
C=c1[nH]c(=Cc2[n-]c(=O)[n-]c2[O-])cc1C(=O)N1CCCS1(=O)=O

>  <Energy>  (3071) 
106.47232585360622

>  <Genealogy>  (3071) 
C=c1[nH]c(=Cc2[n-]c(=O)[n-]c2[O-])cc1C(=O)N1CCCS1(=O)=O (protonated)
C=c1[nH]c(=Cc2[n-]c(=O)[n-]c2[O-])cc1C(=O)N1CCCS1(=O)=O (3D coordinates assigned)
C=c1[nH]c(=Cc2[n-]c(=O)[n-]c2[O-])cc1C(=O)N1CCCS1(=O)=O (nonaromatic ring conformer: 106.47232585360622 kcal/mol)

>  <smiles>  (3071) 
C=c1[nH]c(=Cc2[nH]c(=O)[nH]c2O)cc1C(=O)N1CCCS1(=O)=O

>  <score_type>  (3071) 
oracle

>  <origin>  (3071) 
adg

>  <m_score__min__energy>  (3071) 
-16.359999999999999

>  <m_primary>  (3071) 
energy

$$$$
75:0
     RDKit          3D

 26 28  0  0  0  0  0  0  0  0999 V2000
   61.6170   29.9650   46.0580 O   0  0  0  0  0  0  0  0  0  0  0  0
   60.5730   30.5750   46.4180 C   0  0  0  0  0  0  0  0  0  0  0  0
   60.6880   31.8510   47.1670 C   0  0  0  0  0  0  0  0  0  0  0  0
   61.9470   32.4490   47.3640 C   0  0  0  0  0  0  0  0  0  0  0  0
   62.0570   33.6510   48.0700 C   0  0  0  0  0  0  0  0  0  0  0  0
   60.9150   34.2710   48.5810 C   0  0  0  0  0  0  0  0  0  0  0  0
   59.6590   33.6930   48.3840 C   0  0  0  0  0  0  0  0  0  0  0  0
   59.5430   32.4920   47.6780 C   0  0  0  0  0  0  0  0  0  0  0  0
   59.2850   30.0220   46.0790 N   0  0  0  0  0  0  0  0  0  0  0  0
   58.4860   30.6620   45.1700 C   0  0  0  0  0  0  0  0  0  0  0  0
   58.8670   31.7290   44.6160 O   0  0  0  0  0  0  0  0  0  0  0  0
   57.2630   30.1630   44.8630 N   0  0  0  0  0  0  0  0  0  0  0  0
   56.7930   29.0280   45.4370 C   0  0  0  0  0  0  0  0  0  0  0  0
   55.5250   28.5650   45.1000 O   0  0  0  0  0  0  0  0  0  0  0  0
   57.5860   28.3330   46.3630 C   0  0  0  0  0  0  0  0  0  0  0  0
   57.0550   27.1000   47.0620 C   0  0  0  0  0  0  0  0  0  0  0  0
   56.8640   25.9710   46.0750 C   0  0  0  0  0  0  0  0  0  0  0  0
   57.9810   25.2330   45.6430 C   0  0  0  0  0  0  0  0  0  0  0  0
   57.8260   24.1640   44.7560 C   0  0  0  0  0  0  0  0  0  0  0  0
   56.5550   23.8220   44.2880 C   0  0  0  0  0  0  0  0  0  0  0  0
   56.4020   22.7590   43.4070 O   0  0  0  0  0  0  0  0  0  0  0  0
   55.4380   24.5490   44.7070 C   0  0  0  0  0  0  0  0  0  0  0  0
   55.5850   25.6200   45.5970 C   0  0  0  0  0  0  0  0  0  0  0  0
   54.4550   26.3280   45.9910 O   0  0  0  0  0  0  0  0  0  0  0  0
   58.8600   28.8550   46.6610 C   0  0  0  0  0  0  0  0  0  0  0  0
   59.6170   28.2360   47.4610 O   0  0  0  0  0  0  0  0  0  0  0  0
  1  2  2  0
  2  3  1  0
  3  4  2  0
  4  5  1  0
  5  6  2  0
  6  7  1  0
  7  8  2  0
  2  9  1  0
  9 10  1  0
 10 11  2  0
 10 12  1  0
 12 13  1  0
 13 14  1  0
 13 15  2  0
 15 16  1  0
 16 17  1  0
 17 18  2  0
 18 19  1  0
 19 20  2  0
 20 21  1  0
 20 22  1  0
 22 23  2  0
 23 24  1  0
 15 25  1  0
 25 26  2  0
  8  3  1  0
 25  9  1  0
 23 17  1  0
M  CHG  3  12  -1  21  -1  24  -1
M  END
>  <UniqueID>  (3072) 
69

>  <SMILES>  (3072) 
O=C(c1ccccc1)n1c(=O)[n-]c(O)c(Cc2ccc([O-])cc2[O-])c1=O

>  <Energy>  (3072) 
51.93194013703227

>  <Genealogy>  (3072) 
O=C(c1ccccc1)n1c(=O)[n-]c(O)c(Cc2ccc([O-])cc2[O-])c1=O (protonated)
O=C(c1ccccc1)n1c(=O)[n-]c(O)c(Cc2ccc([O-])cc2[O-])c1=O (3D coordinates assigned)
O=C(c1ccccc1)n1c(=O)[n-]c(O)c(Cc2ccc([O-])cc2[O-])c1=O (optimized conformer: 51.93194013703227 kcal/mol)

>  <smiles>  (3072) 
O=C(c1ccccc1)n1c(=O)[nH]c(O)c(Cc2ccc(O)cc2O)c1=O

>  <score_type>  (3072) 
oracle

>  <origin>  (3072) 
adg

>  <m_score__min__energy>  (3072) 
-14.289999999999999

>  <m_primary>  (3072) 
energy

$$$$
31:0
     RDKit          3D

 30 33  0  0  0  0  0  0  0  0999 V2000
   57.4060   32.2990   45.7930 C   0  0  0  0  0  0  0  0  0  0  0  0
   58.1440   31.1850   45.8380 C   0  0  0  0  0  0  0  0  0  0  0  0
   59.4580   31.0510   46.2960 C   0  0  0  0  0  0  0  0  0  0  0  0
   60.3840   32.0930   46.8190 C   0  0  0  0  0  0  0  0  0  0  0  0
   60.6290   33.1090   46.1160 O   0  0  0  0  0  0  0  0  0  0  0  0
   61.0580   31.9110   48.0950 N   0  0  0  0  0  0  0  0  0  0  0  0
   61.2220   33.2010   48.8060 C   0  0  0  0  0  0  0  0  0  0  0  0
   59.9110   33.6960   49.4250 C   0  0  0  0  0  0  0  0  0  0  0  0
   59.3590   32.6460   50.2840 N   0  0  0  0  0  0  0  0  0  0  0  0
   58.8590   32.9550   51.6000 C   0  0  0  0  0  0  0  0  0  0  0  0
   59.2100   34.0240   52.1730 O   0  0  0  0  0  0  0  0  0  0  0  0
   58.0160   32.0320   52.3000 N   0  0  0  0  0  0  0  0  0  0  0  0
   56.6010   31.9440   51.9020 C   0  0  0  0  0  0  0  0  0  0  0  0
   55.8720   30.7960   52.6170 C   0  0  0  0  0  0  0  0  0  0  0  0
   56.2430   30.7100   53.9790 O   0  0  0  0  0  0  0  0  0  0  0  0
   57.6100   30.3650   54.0690 C   0  0  0  0  0  0  0  0  0  0  0  0
   58.4810   31.5250   53.5970 C   0  0  0  0  0  0  0  0  0  0  0  0
   59.1550   31.3270   49.6750 C   0  0  0  0  0  0  0  0  0  0  0  0
   60.4370   30.8660   48.9480 C   0  0  0  0  0  0  0  0  0  0  0  0
   59.7640   29.7010   46.1710 C   0  0  0  0  0  0  0  0  0  0  0  0
   58.6470   29.0810   45.6360 C   0  0  0  0  0  0  0  0  0  0  0  0
   58.4950   27.7690   45.3900 C   0  0  0  0  0  0  0  0  0  0  0  0
   57.2850   27.0010   45.7410 C   0  0  0  0  0  0  0  0  0  0  0  0
   57.3250   25.7940   46.3310 N   0  0  0  0  0  0  0  0  0  0  0  0
   56.0220   25.4880   46.5090 C   0  0  0  0  0  0  0  0  0  0  0  0
   55.6450   24.4040   47.0280 O   0  0  0  0  0  0  0  0  0  0  0  0
   55.1550   26.4350   46.0970 N   0  0  0  0  0  0  0  0  0  0  0  0
   55.9700   27.3920   45.6210 C   0  0  0  0  0  0  0  0  0  0  0  0
   55.5200   28.6140   45.1330 O   0  0  0  0  0  0  0  0  0  0  0  0
   57.6660   29.9850   45.4460 N   0  0  0  0  0  0  0  0  0  0  0  0
  1  2  2  0
  2  3  1  0
  3  4  1  0
  4  5  2  0
  4  6  1  0
  6  7  1  0
  7  8  1  0
  8  9  1  0
  9 10  1  0
 10 11  2  0
 10 12  1  0
 12 13  1  0
 13 14  1  0
 14 15  1  0
 15 16  1  0
 16 17  1  0
  9 18  1  0
 18 19  1  0
  3 20  2  0
 20 21  1  0
 21 22  2  0
 22 23  1  0
 23 24  1  0
 24 25  1  0
 25 26  2  0
 25 27  1  0
 27 28  1  0
 28 29  1  0
 21 30  1  0
 30  2  1  0
 19  6  1  0
 28 23  2  0
 17 12  1  0
M  CHG  4   6   1  24  -1  27  -1  29  -1
M  END
>  <UniqueID>  (3073) 
31

>  <SMILES>  (3073) 
C=c1[nH]/c(=C/c2[n-]c(=O)[n-]c2[O-])cc1C(=O)[NH+]1CCN(C(=O)N2CCOCC2)CC1

>  <Energy>  (3073) 
131.33658312319625

>  <Genealogy>  (3073) 
C=c1[nH]c(=Cc2[n-]c(=O)[n-]c2[O-])cc1C(=O)[NH+]1CCN(C(=O)N2CCOCC2)CC1 (protonated)
C=c1[nH]/c(=C/c2[n-]c(=O)[n-]c2[O-])cc1C(=O)[NH+]1CCN(C(=O)N2CCOCC2)CC1 (cis-trans isomerization)
C=c1[nH]/c(=C/c2[n-]c(=O)[n-]c2[O-])cc1C(=O)[NH+]1CCN(C(=O)N2CCOCC2)CC1 (3D coordinates assigned)
C=c1[nH]/c(=C/c2[n-]c(=O)[n-]c2[O-])cc1C(=O)[NH+]1CCN(C(=O)N2CCOCC2)CC1 (nonaromatic ring conformer: 131.33658312319625 kcal/mol)

>  <smiles>  (3073) 
C=c1[nH]c(=Cc2[nH]c(=O)[nH]c2O)cc1C(=O)N1CCN(C(=O)N2CCOCC2)CC1

>  <score_type>  (3073) 
oracle

>  <origin>  (3073) 
adg

>  <m_score__min__energy>  (3073) 
-16.859999999999999

>  <m_primary>  (3073) 
energy

$$$$
37:0
     RDKit          3D

 26 28  0  0  0  0  0  0  0  0999 V2000
   53.5520   28.5950   53.8430 C   0  0  0  0  0  0  0  0  0  0  0  0
   54.4360   29.3080   53.1290 C   0  0  0  0  0  0  0  0  0  0  0  0
   54.2430   30.5850   52.5770 C   0  0  0  0  0  0  0  0  0  0  0  0
   53.1270   31.3240   52.4240 C   0  0  0  0  0  0  0  0  0  0  0  0
   52.2200   31.2790   51.2660 C   0  0  0  0  0  0  0  0  0  0  0  0
   52.2650   30.3500   50.2920 N   0  0  0  0  0  0  0  0  0  0  0  0
   51.3570   30.7940   49.3960 C   0  0  0  0  0  0  0  0  0  0  0  0
   51.0960   30.1750   48.3320 O   0  0  0  0  0  0  0  0  0  0  0  0
   50.7590   31.9600   49.7240 N   0  0  0  0  0  0  0  0  0  0  0  0
   51.3280   32.2590   50.9040 C   0  0  0  0  0  0  0  0  0  0  0  0
   51.0430   33.4080   51.6310 O   0  0  0  0  0  0  0  0  0  0  0  0
   55.4870   31.0120   52.1470 C   0  0  0  0  0  0  0  0  0  0  0  0
   56.3660   29.9730   52.3670 C   0  0  0  0  0  0  0  0  0  0  0  0
   57.7930   30.0130   51.9900 C   0  0  0  0  0  0  0  0  0  0  0  0
   58.3090   28.9760   51.4890 O   0  0  0  0  0  0  0  0  0  0  0  0
   58.6080   31.1850   52.2060 N   0  0  0  0  0  0  0  0  0  0  0  0
   59.8680   31.3190   51.4670 C   0  0  0  0  0  0  0  0  0  0  0  0
   60.6320   32.5800   51.8960 C   0  0  0  0  0  0  0  0  0  0  0  0
   59.7400   33.7560   51.9750 N   0  0  0  0  0  0  0  0  0  0  0  0
   59.3270   34.2220   50.6340 C   0  0  0  0  0  0  0  0  0  0  0  0
   60.4700   34.1220   49.6690 C   0  0  0  0  0  0  0  0  0  0  0  0
   60.3670   34.5800   48.5420 O   0  0  0  0  0  0  0  0  0  0  0  0
   58.5840   33.5640   52.8950 C   0  0  0  0  0  0  0  0  0  0  0  0
   58.3420   32.1030   53.3200 C   0  0  0  0  0  0  0  0  0  0  0  0
   55.7340   28.9390   52.9720 N   0  0  0  0  0  0  0  0  0  0  0  0
   56.3630   27.7270   53.5080 C   0  0  0  0  0  0  0  0  0  0  0  0
  1  2  2  0
  2  3  1  0
  3  4  2  3
  4  5  1  0
  5  6  1  0
  6  7  1  0
  7  8  2  0
  7  9  1  0
  9 10  1  0
 10 11  1  0
  3 12  1  0
 12 13  2  0
 13 14  1  0
 14 15  2  0
 14 16  1  0
 16 17  1  0
 17 18  1  0
 18 19  1  0
 19 20  1  0
 20 21  1  0
 21 22  2  0
 19 23  1  0
 23 24  1  0
 13 25  1  0
 25 26  1  0
 25  2  1  0
 10  5  2  0
 24 16  1  0
M  CHG  3   6  -1   9  -1  11  -1
M  END
>  <UniqueID>  (3074) 
36

>  <SMILES>  (3074) 
C=c1c(=Cc2[n-]c(=O)[n-]c2[O-])cc(C(=O)N2CCN(CC=O)CC2)n1C

>  <Energy>  (3074) 
125.72149508363655

>  <Genealogy>  (3074) 
C=c1c(=Cc2[n-]c(=O)[n-]c2[O-])cc(C(=O)N2CCN(CC=O)CC2)n1C (protonated)
C=c1c(=Cc2[n-]c(=O)[n-]c2[O-])cc(C(=O)N2CCN(CC=O)CC2)n1C (3D coordinates assigned)
C=c1c(=Cc2[n-]c(=O)[n-]c2[O-])cc(C(=O)N2CCN(CC=O)CC2)n1C (nonaromatic ring conformer: 125.72149508363655 kcal/mol)

>  <smiles>  (3074) 
C=c1c(=Cc2[nH]c(=O)[nH]c2O)cc(C(=O)N2CCN(CC=O)CC2)n1C

>  <score_type>  (3074) 
oracle

>  <origin>  (3074) 
adg

>  <m_score__min__energy>  (3074) 
-15.710000000000001

>  <m_primary>  (3074) 
energy

$$$$
47:0
     RDKit          3D

 31 34  0  0  0  0  0  0  0  0999 V2000
   55.2230   29.9160   43.6640 C   0  0  0  0  0  0  0  0  0  0  0  0
   56.2160   29.4010   44.3910 C   0  0  0  0  0  0  0  0  0  0  0  0
   57.5420   29.8130   44.3900 C   0  0  0  0  0  0  0  0  0  0  0  0
   58.1580   30.9680   43.6490 C   0  0  0  0  0  0  0  0  0  0  0  0
   58.2580   32.1710   44.5480 C   0  0  0  0  0  0  0  0  0  0  0  0
   57.8380   33.4280   44.0860 C   0  0  0  0  0  0  0  0  0  0  0  0
   57.9550   34.5510   44.9030 C   0  0  0  0  0  0  0  0  0  0  0  0
   58.5020   34.4380   46.1840 C   0  0  0  0  0  0  0  0  0  0  0  0
   58.9460   33.1900   46.6620 C   0  0  0  0  0  0  0  0  0  0  0  0
   59.5290   33.0400   48.0230 C   0  0  0  0  0  0  0  0  0  0  0  0
   58.7540   33.0710   49.0210 O   0  0  0  0  0  0  0  0  0  0  0  0
   60.9580   32.8970   48.2310 N   0  0  0  0  0  0  0  0  0  0  0  0
   61.3780   31.4980   47.9590 C   0  0  0  0  0  0  0  0  0  0  0  0
   62.8320   31.3900   47.4450 C   0  0  0  0  0  0  0  0  0  0  0  0
   63.7050   32.4350   48.0130 N   0  0  0  0  0  0  0  0  0  0  0  0
   63.9970   32.2120   49.4470 C   0  0  0  0  0  0  0  0  0  0  0  0
   65.3590   32.7960   49.8020 C   0  0  0  0  0  0  0  0  0  0  0  0
   63.2130   33.8070   47.7220 C   0  0  0  0  0  0  0  0  0  0  0  0
   61.7040   33.8650   47.4030 C   0  0  0  0  0  0  0  0  0  0  0  0
   58.8120   32.0600   45.8340 C   0  0  0  0  0  0  0  0  0  0  0  0
   58.2010   29.0090   45.2980 C   0  0  0  0  0  0  0  0  0  0  0  0
   57.2550   28.1340   45.8110 C   0  0  0  0  0  0  0  0  0  0  0  0
   57.5360   27.1880   46.7250 C   0  0  0  0  0  0  0  0  0  0  0  0
   56.9830   25.8180   46.7550 C   0  0  0  0  0  0  0  0  0  0  0  0
   57.6500   24.7000   47.0960 N   0  0  0  0  0  0  0  0  0  0  0  0
   56.7410   23.7190   46.9170 C   0  0  0  0  0  0  0  0  0  0  0  0
   56.9980   22.5070   47.1400 O   0  0  0  0  0  0  0  0  0  0  0  0
   55.5370   24.1380   46.4730 N   0  0  0  0  0  0  0  0  0  0  0  0
   55.7090   25.4660   46.3720 C   0  0  0  0  0  0  0  0  0  0  0  0
   54.7230   26.3390   45.9340 O   0  0  0  0  0  0  0  0  0  0  0  0
   56.0480   28.3750   45.2500 N   0  0  0  0  0  0  0  0  0  0  0  0
  1  2  2  0
  2  3  1  0
  3  4  1  0
  4  5  1  0
  5  6  2  0
  6  7  1  0
  7  8  2  0
  8  9  1  0
  9 10  1  0
 10 11  2  0
 10 12  1  0
 12 13  1  0
 13 14  1  0
 14 15  1  0
 15 16  1  0
 16 17  1  0
 15 18  1  0
 18 19  1  0
  9 20  2  0
  3 21  2  0
 21 22  1  0
 22 23  2  0
 23 24  1  0
 24 25  1  0
 25 26  1  0
 26 27  2  0
 26 28  1  0
 28 29  1  0
 29 30  1  0
 22 31  1  0
 31  2  1  0
 20  5  1  0
 29 24  2  0
 19 12  1  0
M  CHG  4  12   1  25  -1  28  -1  30  -1
M  END
>  <UniqueID>  (3075) 
46

>  <SMILES>  (3075) 
C=c1[nH]/c(=C\c2[n-]c(=O)[n-]c2[O-])cc1Cc1cccc(C(=O)[NH+]2CCN(CC)CC2)c1

>  <Energy>  (3075) 
131.13330292941632

>  <Genealogy>  (3075) 
C=c1[nH]c(=Cc2[n-]c(=O)[n-]c2[O-])cc1Cc1cccc(C(=O)[NH+]2CCN(CC)CC2)c1 (protonated)
C=c1[nH]/c(=C\c2[n-]c(=O)[n-]c2[O-])cc1Cc1cccc(C(=O)[NH+]2CCN(CC)CC2)c1 (cis-trans isomerization)
C=c1[nH]/c(=C\c2[n-]c(=O)[n-]c2[O-])cc1Cc1cccc(C(=O)[NH+]2CCN(CC)CC2)c1 (3D coordinates assigned)
C=c1[nH]/c(=C\c2[n-]c(=O)[n-]c2[O-])cc1Cc1cccc(C(=O)[NH+]2CCN(CC)CC2)c1 (nonaromatic ring conformer: 131.13330292941632 kcal/mol)

>  <smiles>  (3075) 
C=c1[nH]c(=Cc2[nH]c(=O)[nH]c2O)cc1Cc1cccc(C(=O)N2CCN(CC)CC2)c1

>  <score_type>  (3075) 
oracle

>  <origin>  (3075) 
adg

>  <m_score__min__energy>  (3075) 
-17.09

>  <m_primary>  (3075) 
energy

$$$$
63:0
     RDKit          3D

 33 37  0  0  0  0  0  0  0  0999 V2000
   53.8820   29.1810   54.6000 C   0  0  0  0  0  0  0  0  0  0  0  0
   54.3930   29.9160   53.6110 C   0  0  0  0  0  0  0  0  0  0  0  0
   55.6740   30.1980   53.5310 O   0  0  0  0  0  0  0  0  0  0  0  0
   55.8860   30.9320   52.4600 C   0  0  0  0  0  0  0  0  0  0  0  0
   57.2250   31.4170   52.0570 C   0  0  0  0  0  0  0  0  0  0  0  0
   57.5180   32.7880   52.1300 C   0  0  0  0  0  0  0  0  0  0  0  0
   58.7790   33.2650   51.7610 C   0  0  0  0  0  0  0  0  0  0  0  0
   59.7750   32.3840   51.3110 C   0  0  0  0  0  0  0  0  0  0  0  0
   61.1050   32.9130   50.9170 C   0  0  0  0  0  0  0  0  0  0  0  0
   61.9650   33.1160   51.8210 O   0  0  0  0  0  0  0  0  0  0  0  0
   61.4200   33.2430   49.5390 N   0  0  0  0  0  0  0  0  0  0  0  0
   61.6190   32.0000   48.7450 C   0  0  0  0  0  0  0  0  0  0  0  0
   60.3700   31.5840   47.9530 C   0  0  0  0  0  0  0  0  0  0  0  0
   59.9060   32.6870   47.0990 N   0  0  0  0  0  0  0  0  0  0  0  0
   59.1200   32.3990   45.9210 C   0  0  0  0  0  0  0  0  0  0  0  0
   58.8000   31.2060   45.6600 O   0  0  0  0  0  0  0  0  0  0  0  0
   58.7120   33.4870   44.9620 C   0  0  0  0  0  0  0  0  0  0  0  0
   57.4180   33.2440   44.1920 C   0  0  0  0  0  0  0  0  0  0  0  0
   57.4360   34.2200   45.3540 C   0  0  0  0  0  0  0  0  0  0  0  0
   60.2820   34.0630   47.4570 C   0  0  0  0  0  0  0  0  0  0  0  0
   60.4090   34.1810   48.9800 C   0  0  0  0  0  0  0  0  0  0  0  0
   59.4720   31.0140   51.2120 C   0  0  0  0  0  0  0  0  0  0  0  0
   58.2140   30.5340   51.5870 C   0  0  0  0  0  0  0  0  0  0  0  0
   54.6890   31.1460   51.7950 C   0  0  0  0  0  0  0  0  0  0  0  0
   53.7170   30.4930   52.5380 C   0  0  0  0  0  0  0  0  0  0  0  0
   52.4070   30.3870   52.2460 C   0  0  0  0  0  0  0  0  0  0  0  0
   51.8050   30.8510   50.9830 C   0  0  0  0  0  0  0  0  0  0  0  0
   51.6930   30.0720   49.8910 N   0  0  0  0  0  0  0  0  0  0  0  0
   51.0320   30.8570   49.0130 C   0  0  0  0  0  0  0  0  0  0  0  0
   50.7480   30.4770   47.8460 O   0  0  0  0  0  0  0  0  0  0  0  0
   50.6950   32.0770   49.4830 N   0  0  0  0  0  0  0  0  0  0  0  0
   51.1810   32.0540   50.7350 C   0  0  0  0  0  0  0  0  0  0  0  0
   51.0110   33.0920   51.6430 O   0  0  0  0  0  0  0  0  0  0  0  0
  1  2  2  0
  2  3  1  0
  3  4  1  0
  4  5  1  0
  5  6  2  0
  6  7  1  0
  7  8  2  0
  8  9  1  0
  9 10  2  0
  9 11  1  0
 11 12  1  0
 12 13  1  0
 13 14  1  0
 14 15  1  0
 15 16  2  0
 15 17  1  0
 17 18  1  0
 18 19  1  0
 14 20  1  0
 20 21  1  0
  8 22  1  0
 22 23  2  0
  4 24  2  0
 24 25  1  0
 25 26  2  0
 26 27  1  0
 27 28  1  0
 28 29  1  0
 29 30  2  0
 29 31  1  0
 31 32  1  0
 32 33  1  0
 25  2  1  0
 32 27  2  0
 23  5  1  0
 21 11  1  0
 19 17  1  0
M  CHG  4  11   1  28  -1  31  -1  33  -1
M  END
>  <UniqueID>  (3076) 
62

>  <SMILES>  (3076) 
C=c1oc(-c2ccc(C(=O)[NH+]3CCN(C(=O)C4CC4)CC3)cc2)c/c1=C\c1[n-]c(=O)[n-]c1[O-]

>  <Energy>  (3076) 
400.65853495125225

>  <Genealogy>  (3076) 
C=c1oc(-c2ccc(C(=O)[NH+]3CCN(C(=O)C4CC4)CC3)cc2)cc1=Cc1[n-]c(=O)[n-]c1[O-] (protonated)
C=c1oc(-c2ccc(C(=O)[NH+]3CCN(C(=O)C4CC4)CC3)cc2)c/c1=C\c1[n-]c(=O)[n-]c1[O-] (cis-trans isomerization)
C=c1oc(-c2ccc(C(=O)[NH+]3CCN(C(=O)C4CC4)CC3)cc2)c/c1=C\c1[n-]c(=O)[n-]c1[O-] (3D coordinates assigned)
C=c1oc(-c2ccc(C(=O)[NH+]3CCN(C(=O)C4CC4)CC3)cc2)c/c1=C\c1[n-]c(=O)[n-]c1[O-] (nonaromatic ring conformer: 400.65853495125225 kcal/mol)

>  <smiles>  (3076) 
C=c1oc(-c2ccc(C(=O)N3CCN(C(=O)C4CC4)CC3)cc2)cc1=Cc1[nH]c(=O)[nH]c1O

>  <score_type>  (3076) 
oracle

>  <origin>  (3076) 
adg

>  <m_score__min__energy>  (3076) 
-17.530000000000001

>  <m_primary>  (3076) 
energy

$$$$
76:0
     RDKit          3D

 32 35  0  0  0  0  0  0  0  0999 V2000
   51.7270   30.1200   49.6230 O   0  0  0  0  0  0  0  0  0  0  0  0
   51.5980   30.9590   50.7270 C   0  0  0  0  0  0  0  0  0  0  0  0
   50.7180   31.9730   50.7770 N   0  0  0  0  0  0  0  0  0  0  0  0
   50.9370   32.5000   52.0000 C   0  0  0  0  0  0  0  0  0  0  0  0
   50.2970   33.4930   52.4350 O   0  0  0  0  0  0  0  0  0  0  0  0
   51.8940   31.8780   52.7200 N   0  0  0  0  0  0  0  0  0  0  0  0
   52.3220   30.8980   51.9020 C   0  0  0  0  0  0  0  0  0  0  0  0
   53.3350   29.8760   52.2530 C   0  0  0  0  0  0  0  0  0  0  0  0
   54.6690   30.0860   52.2980 C   0  0  0  0  0  0  0  0  0  0  0  0
   55.3880   31.0610   51.6160 C   0  0  0  0  0  0  0  0  0  0  0  0
   56.7170   30.8660   51.9290 C   0  0  0  0  0  0  0  0  0  0  0  0
   57.8160   31.6920   51.3990 C   0  0  0  0  0  0  0  0  0  0  0  0
   58.7080   32.1010   52.1870 O   0  0  0  0  0  0  0  0  0  0  0  0
   57.8880   32.0570   50.0150 N   0  0  0  0  0  0  0  0  0  0  0  0
   59.0680   31.9080   49.1660 C   0  0  0  0  0  0  0  0  0  0  0  0
   58.9650   32.8140   47.9660 C   0  0  0  0  0  0  0  0  0  0  0  0
   57.7110   33.0310   47.3670 C   0  0  0  0  0  0  0  0  0  0  0  0
   57.5860   33.8850   46.2690 C   0  0  0  0  0  0  0  0  0  0  0  0
   58.7120   34.5270   45.7510 C   0  0  0  0  0  0  0  0  0  0  0  0
   59.9660   34.3170   46.3300 C   0  0  0  0  0  0  0  0  0  0  0  0
   60.1020   33.4720   47.4400 C   0  0  0  0  0  0  0  0  0  0  0  0
   61.4050   33.2690   48.0050 N   0  0  0  0  0  0  0  0  0  0  0  0
   61.6560   33.5610   49.4180 C   0  0  0  0  0  0  0  0  0  0  0  0
   63.0470   34.1910   49.5700 C   0  0  0  0  0  0  0  0  0  0  0  0
   64.1360   33.3800   48.9560 N   0  0  0  0  0  0  0  0  0  0  0  0
   64.9940   32.7690   49.9840 C   0  0  0  0  0  0  0  0  0  0  0  0
   63.6830   32.3490   47.9920 C   0  0  0  0  0  0  0  0  0  0  0  0
   62.5080   32.8430   47.1410 C   0  0  0  0  0  0  0  0  0  0  0  0
   56.8570   29.8340   52.7930 N   0  0  0  0  0  0  0  0  0  0  0  0
   58.0990   29.3920   53.4400 C   0  0  0  0  0  0  0  0  0  0  0  0
   55.6120   29.3430   53.0190 C   0  0  0  0  0  0  0  0  0  0  0  0
   55.3590   28.3040   53.8320 C   0  0  0  0  0  0  0  0  0  0  0  0
  1  2  1  0
  2  3  1  0
  3  4  1  0
  4  5  2  0
  4  6  1  0
  6  7  1  0
  7  8  1  0
  8  9  2  0
  9 10  1  0
 10 11  2  0
 11 12  1  0
 12 13  2  0
 12 14  1  0
 14 15  1  0
 15 16  1  0
 16 17  2  0
 17 18  1  0
 18 19  2  0
 19 20  1  0
 20 21  2  0
 21 22  1  0
 22 23  1  0
 23 24  1  0
 24 25  1  0
 25 26  1  0
 25 27  1  0
 27 28  1  0
 11 29  1  0
 29 30  1  0
 29 31  1  0
 31 32  2  0
  7  2  2  0
 31  9  1  0
 21 16  1  0
 28 22  1  0
M  CHG  3   3  -1   6  -1  14  -1
M  END
>  <UniqueID>  (3077) 
75

>  <SMILES>  (3077) 
C=c1/c(=C/c2[n-]c(=O)[n-]c2O)cc(C(=O)[N-]Cc2ccccc2N2CCN(C)CC2)n1C

>  <Energy>  (3077) 
137.1369110716721

>  <Genealogy>  (3077) 
C=c1c(=Cc2[n-]c(=O)[n-]c2O)cc(C(=O)[N-]Cc2ccccc2N2CCN(C)CC2)n1C (protonated)
C=c1/c(=C/c2[n-]c(=O)[n-]c2O)cc(C(=O)[N-]Cc2ccccc2N2CCN(C)CC2)n1C (cis-trans isomerization)
C=c1/c(=C/c2[n-]c(=O)[n-]c2O)cc(C(=O)[N-]Cc2ccccc2N2CCN(C)CC2)n1C (3D coordinates assigned)
C=c1/c(=C/c2[n-]c(=O)[n-]c2O)cc(C(=O)[N-]Cc2ccccc2N2CCN(C)CC2)n1C (nonaromatic ring conformer: 137.1369110716721 kcal/mol)

>  <smiles>  (3077) 
C=c1c(=Cc2[nH]c(=O)[nH]c2O)cc(C(=O)NCc2ccccc2N2CCN(C)CC2)n1C

>  <score_type>  (3077) 
oracle

>  <origin>  (3077) 
adg

>  <m_score__min__energy>  (3077) 
-15.140000000000001

>  <m_primary>  (3077) 
energy

$$$$
85:0
     RDKit          3D

 33 36  0  0  0  0  0  0  0  0999 V2000
   58.6030   28.8200   47.1530 C   0  0  0  0  0  0  0  0  0  0  0  0
   58.1260   28.9530   45.9050 C   0  0  0  0  0  0  0  0  0  0  0  0
   57.9540   27.9170   44.9780 C   0  0  0  0  0  0  0  0  0  0  0  0
   58.2070   26.6060   45.1550 C   0  0  0  0  0  0  0  0  0  0  0  0
   57.4040   25.7320   46.0290 C   0  0  0  0  0  0  0  0  0  0  0  0
   57.9060   24.6480   46.6470 N   0  0  0  0  0  0  0  0  0  0  0  0
   56.8390   24.1320   47.2940 C   0  0  0  0  0  0  0  0  0  0  0  0
   56.9120   23.0990   48.0090 O   0  0  0  0  0  0  0  0  0  0  0  0
   55.6840   24.8090   47.1110 N   0  0  0  0  0  0  0  0  0  0  0  0
   56.0510   25.8120   46.2970 C   0  0  0  0  0  0  0  0  0  0  0  0
   55.1510   26.7430   45.7840 O   0  0  0  0  0  0  0  0  0  0  0  0
   57.4280   28.4970   43.8350 C   0  0  0  0  0  0  0  0  0  0  0  0
   57.3110   29.8460   44.0940 C   0  0  0  0  0  0  0  0  0  0  0  0
   56.7320   30.8410   43.1310 C   0  0  0  0  0  0  0  0  0  0  0  0
   57.7400   30.1330   45.3470 N   0  0  0  0  0  0  0  0  0  0  0  0
   57.7580   31.4770   45.9510 C   0  0  0  0  0  0  0  0  0  0  0  0
   59.1260   32.1590   45.7790 C   0  0  0  0  0  0  0  0  0  0  0  0
   59.4150   33.5200   46.9140 S   0  0  0  0  0  0  0  0  0  0  0  0
   58.1050   33.9630   47.5040 O   0  0  0  0  0  0  0  0  0  0  0  0
   59.9730   34.6660   46.1180 O   0  0  0  0  0  0  0  0  0  0  0  0
   60.5520   33.1690   48.2580 C   0  0  0  0  0  0  0  0  0  0  0  0
   60.2560   31.8860   48.9900 C   0  0  0  0  0  0  0  0  0  0  0  0
   60.5190   30.8010   48.4040 O   0  0  0  0  0  0  0  0  0  0  0  0
   59.6580   31.8450   50.3050 N   0  0  0  0  0  0  0  0  0  0  0  0
   58.9560   33.0040   50.8820 C   0  0  0  0  0  0  0  0  0  0  0  0
   57.6700   32.5840   51.6170 C   0  0  0  0  0  0  0  0  0  0  0  0
   57.7620   31.2190   52.3580 C   0  0  0  0  0  0  0  0  0  0  0  0
   59.2200   30.7570   52.5010 C   0  0  0  0  0  0  0  0  0  0  0  0
   59.8840   30.6430   51.1240 C   0  0  0  0  0  0  0  0  0  0  0  0
   57.0510   30.2460   51.6140 O   0  0  0  0  0  0  0  0  0  0  0  0
   55.9260   29.9280   52.3710 C   0  0  0  0  0  0  0  0  0  0  0  0
   56.2180   30.3960   53.7630 C   0  0  0  0  0  0  0  0  0  0  0  0
   57.2130   31.3640   53.6540 O   0  0  0  0  0  0  0  0  0  0  0  0
  1  2  2  0
  2  3  1  0
  3  4  2  3
  4  5  1  0
  5  6  1  0
  6  7  1  0
  7  8  2  0
  7  9  1  0
  9 10  1  0
 10 11  1  0
  3 12  1  0
 12 13  2  0
 13 14  1  0
 13 15  1  0
 15 16  1  0
 16 17  1  0
 17 18  1  0
 18 19  2  0
 18 20  2  0
 18 21  1  0
 21 22  1  0
 22 23  2  0
 22 24  1  0
 24 25  1  0
 25 26  1  0
 26 27  1  0
 27 28  1  0
 28 29  1  0
 27 30  1  0
 30 31  1  0
 31 32  1  0
 32 33  1  0
 15  2  1  0
 29 24  1  0
 10  5  2  0
 33 27  1  0
M  CHG  2   6  -1   9  -1
M  END
>  <UniqueID>  (3078) 
81

>  <SMILES>  (3078) 
C=c1c(=Cc2[n-]c(=O)[n-]c2O)cc(C)n1CCS(=O)(=O)CC(=O)N1CCC2(CC1)OCCO2

>  <Energy>  (3078) 
116.53077257095075

>  <Genealogy>  (3078) 
C=c1c(=Cc2[n-]c(=O)[n-]c2O)cc(C)n1CCS(=O)(=O)CC(=O)N1CCC2(CC1)OCCO2 (protonated)
C=c1c(=Cc2[n-]c(=O)[n-]c2O)cc(C)n1CCS(=O)(=O)CC(=O)N1CCC2(CC1)OCCO2 (3D coordinates assigned)
C=c1c(=Cc2[n-]c(=O)[n-]c2O)cc(C)n1CCS(=O)(=O)CC(=O)N1CCC2(CC1)OCCO2 (nonaromatic ring conformer: 116.53077257095075 kcal/mol)

>  <smiles>  (3078) 
C=c1c(=Cc2[nH]c(=O)[nH]c2O)cc(C)n1CCS(=O)(=O)CC(=O)N1CCC2(CC1)OCCO2

>  <score_type>  (3078) 
oracle

>  <origin>  (3078) 
adg

>  <m_score__min__energy>  (3078) 
-15.24

>  <m_primary>  (3078) 
energy

$$$$
5:0
     RDKit          3D

 30 33  0  0  0  0  0  0  0  0999 V2000
   57.1900   29.6350   43.3720 C   0  0  0  0  0  0  0  0  0  0  0  0
   58.0250   29.8770   44.3940 C   0  0  0  0  0  0  0  0  0  0  0  0
   58.4910   28.9500   45.3400 C   0  0  0  0  0  0  0  0  0  0  0  0
   58.4280   27.6050   45.3640 C   0  0  0  0  0  0  0  0  0  0  0  0
   57.2150   26.8100   45.6170 C   0  0  0  0  0  0  0  0  0  0  0  0
   57.2100   25.5530   46.0980 N   0  0  0  0  0  0  0  0  0  0  0  0
   55.9000   25.3060   46.3190 C   0  0  0  0  0  0  0  0  0  0  0  0
   55.4820   24.2070   46.7650 O   0  0  0  0  0  0  0  0  0  0  0  0
   55.0760   26.3360   46.0360 N   0  0  0  0  0  0  0  0  0  0  0  0
   55.9260   27.2840   45.6070 C   0  0  0  0  0  0  0  0  0  0  0  0
   55.5320   28.5600   45.2240 O   0  0  0  0  0  0  0  0  0  0  0  0
   59.1000   29.6880   46.3390 C   0  0  0  0  0  0  0  0  0  0  0  0
   59.0760   31.0050   45.9300 C   0  0  0  0  0  0  0  0  0  0  0  0
   59.6340   32.1240   46.7140 C   0  0  0  0  0  0  0  0  0  0  0  0
   60.7780   32.5470   46.3950 O   0  0  0  0  0  0  0  0  0  0  0  0
   58.9160   32.7750   47.7990 N   0  0  0  0  0  0  0  0  0  0  0  0
   59.1360   32.0940   49.0830 C   0  0  0  0  0  0  0  0  0  0  0  0
   60.5980   32.1680   49.5280 C   0  0  0  0  0  0  0  0  0  0  0  0
   61.2140   33.4840   49.2960 N   0  0  0  0  0  0  0  0  0  0  0  0
   62.5780   33.7310   49.7150 C   0  0  0  0  0  0  0  0  0  0  0  0
   62.9990   34.9210   49.7730 O   0  0  0  0  0  0  0  0  0  0  0  0
   63.5080   32.6620   49.9760 N   0  0  0  0  0  0  0  0  0  0  0  0
   64.9020   32.7680   49.5750 C   0  0  0  0  0  0  0  0  0  0  0  0
   65.6040   31.5740   50.2010 C   0  0  0  0  0  0  0  0  0  0  0  0
   64.7030   31.1340   51.3490 C   0  0  0  0  0  0  0  0  0  0  0  0
   63.3100   31.6250   50.9810 C   0  0  0  0  0  0  0  0  0  0  0  0
   60.5520   34.5660   48.5400 C   0  0  0  0  0  0  0  0  0  0  0  0
   59.1640   34.2210   47.9640 C   0  0  0  0  0  0  0  0  0  0  0  0
   58.4120   31.1270   44.7580 N   0  0  0  0  0  0  0  0  0  0  0  0
   58.0480   32.3830   44.0940 C   0  0  0  0  0  0  0  0  0  0  0  0
  1  2  2  0
  2  3  1  0
  3  4  2  0
  4  5  1  0
  5  6  1  0
  6  7  1  0
  7  8  2  0
  7  9  1  0
  9 10  1  0
 10 11  1  0
  3 12  1  0
 12 13  2  0
 13 14  1  0
 14 15  2  0
 14 16  1  0
 16 17  1  0
 17 18  1  0
 18 19  1  0
 19 20  1  0
 20 21  2  0
 20 22  1  0
 22 23  1  0
 23 24  1  0
 24 25  1  0
 25 26  1  0
 19 27  1  0
 27 28  1  0
 13 29  1  0
 29 30  1  0
 29  2  1  0
 10  5  2  0
 28 16  1  0
 26 22  1  0
M  CHG  4   6  -1   9  -1  11  -1  16   1
M  END
>  <UniqueID>  (3079) 
6

>  <SMILES>  (3079) 
C=c1/c(=C\c2[n-]c(=O)[n-]c2[O-])cc(C(=O)[NH+]2CCN(C(=O)N3CCCC3)CC2)n1C

>  <Energy>  (3079) 
145.66986861858217

>  <Genealogy>  (3079) 
C=c1c(=Cc2[n-]c(=O)[n-]c2[O-])cc(C(=O)[NH+]2CCN(C(=O)N3CCCC3)CC2)n1C (protonated)
C=c1/c(=C\c2[n-]c(=O)[n-]c2[O-])cc(C(=O)[NH+]2CCN(C(=O)N3CCCC3)CC2)n1C (cis-trans isomerization)
C=c1/c(=C\c2[n-]c(=O)[n-]c2[O-])cc(C(=O)[NH+]2CCN(C(=O)N3CCCC3)CC2)n1C (3D coordinates assigned)
C=c1/c(=C\c2[n-]c(=O)[n-]c2[O-])cc(C(=O)[NH+]2CCN(C(=O)N3CCCC3)CC2)n1C (nonaromatic ring conformer: 145.66986861858217 kcal/mol)

>  <smiles>  (3079) 
C=c1c(=Cc2[nH]c(=O)[nH]c2O)cc(C(=O)N2CCN(C(=O)N3CCCC3)CC2)n1C

>  <score_type>  (3079) 
oracle

>  <origin>  (3079) 
adg

>  <m_score__min__energy>  (3079) 
-17.149999999999999

>  <m_primary>  (3079) 
energy

$$$$
14:0
     RDKit          3D

 25 27  0  0  0  0  0  0  0  0999 V2000
   54.0710   28.7780   54.0690 C   0  0  0  0  0  0  0  0  0  0  0  0
   54.7200   29.5250   53.1610 C   0  0  0  0  0  0  0  0  0  0  0  0
   54.2260   30.6680   52.5120 C   0  0  0  0  0  0  0  0  0  0  0  0
   52.9860   31.1950   52.4610 C   0  0  0  0  0  0  0  0  0  0  0  0
   52.1070   31.2120   51.2810 C   0  0  0  0  0  0  0  0  0  0  0  0
   52.1280   30.2970   50.2940 N   0  0  0  0  0  0  0  0  0  0  0  0
   51.2670   30.7990   49.3830 C   0  0  0  0  0  0  0  0  0  0  0  0
   51.0010   30.2090   48.3050 O   0  0  0  0  0  0  0  0  0  0  0  0
   50.7220   31.9890   49.7150 N   0  0  0  0  0  0  0  0  0  0  0  0
   51.2760   32.2420   50.9120 C   0  0  0  0  0  0  0  0  0  0  0  0
   51.0320   33.3930   51.6490 O   0  0  0  0  0  0  0  0  0  0  0  0
   55.2940   31.2160   51.8290 C   0  0  0  0  0  0  0  0  0  0  0  0
   56.3700   30.3710   52.0070 C   0  0  0  0  0  0  0  0  0  0  0  0
   57.6730   30.5710   51.3350 C   0  0  0  0  0  0  0  0  0  0  0  0
   58.2270   29.5940   50.7620 O   0  0  0  0  0  0  0  0  0  0  0  0
   58.3370   31.8380   51.3800 N   0  0  0  0  0  0  0  0  0  0  0  0
   59.5200   32.1590   50.5930 C   0  0  0  0  0  0  0  0  0  0  0  0
   59.1220   32.7880   49.2960 C   0  0  0  0  0  0  0  0  0  0  0  0
   58.1500   32.3470   48.5310 O   0  0  0  0  0  0  0  0  0  0  0  0
   58.0790   33.1100   47.4650 C   0  0  0  0  0  0  0  0  0  0  0  0
   59.0470   34.0920   47.5310 C   0  0  0  0  0  0  0  0  0  0  0  0
   59.7240   33.8850   48.7140 C   0  0  0  0  0  0  0  0  0  0  0  0
   56.0310   29.3470   52.8340 N   0  0  0  0  0  0  0  0  0  0  0  0
   56.9300   28.2980   53.3440 C   0  0  0  0  0  0  0  0  0  0  0  0
   57.9240   28.8850   54.3400 C   0  0  0  0  0  0  0  0  0  0  0  0
  1  2  2  0
  2  3  1  0
  3  4  2  0
  4  5  1  0
  5  6  1  0
  6  7  1  0
  7  8  2  0
  7  9  1  0
  9 10  1  0
 10 11  1  0
  3 12  1  0
 12 13  2  0
 13 14  1  0
 14 15  2  0
 14 16  1  0
 16 17  1  0
 17 18  1  0
 18 19  1  0
 19 20  1  0
 20 21  2  0
 21 22  1  0
 13 23  1  0
 23 24  1  0
 24 25  1  0
 23  2  1  0
 10  5  2  0
 22 18  2  0
M  CHG  4   6  -1   9  -1  11  -1  16  -1
M  END
>  <UniqueID>  (3080) 
15

>  <SMILES>  (3080) 
C=c1/c(=C\c2[n-]c(=O)[n-]c2[O-])cc(C(=O)[N-]Cc2ccco2)n1CC

>  <Energy>  (3080) 
133.5143085858816

>  <Genealogy>  (3080) 
C=c1c(=Cc2[n-]c(=O)[n-]c2[O-])cc(C(=O)[N-]Cc2ccco2)n1CC (protonated)
C=c1/c(=C\c2[n-]c(=O)[n-]c2[O-])cc(C(=O)[N-]Cc2ccco2)n1CC (cis-trans isomerization)
C=c1/c(=C\c2[n-]c(=O)[n-]c2[O-])cc(C(=O)[N-]Cc2ccco2)n1CC (3D coordinates assigned)
C=c1/c(=C\c2[n-]c(=O)[n-]c2[O-])cc(C(=O)[N-]Cc2ccco2)n1CC (optimized conformer: 133.5143085858816 kcal/mol)

>  <smiles>  (3080) 
C=c1c(=Cc2[nH]c(=O)[nH]c2O)cc(C(=O)NCc2ccco2)n1CC

>  <score_type>  (3080) 
oracle

>  <origin>  (3080) 
adg

>  <m_score__min__energy>  (3080) 
-16.850000000000001

>  <m_primary>  (3080) 
energy

$$$$
21:0
     RDKit          3D

 27 29  0  0  0  0  0  0  0  0999 V2000
   56.0640   30.0600   43.0960 C   0  0  0  0  0  0  0  0  0  0  0  0
   56.8390   29.7820   44.1460 C   0  0  0  0  0  0  0  0  0  0  0  0
   57.7160   30.6550   44.7700 C   0  0  0  0  0  0  0  0  0  0  0  0
   57.9930   32.0580   44.3900 C   0  0  0  0  0  0  0  0  0  0  0  0
   58.4850   32.2680   43.2480 O   0  0  0  0  0  0  0  0  0  0  0  0
   57.6410   33.1900   45.2330 N   0  0  0  0  0  0  0  0  0  0  0  0
   58.4160   34.4230   44.9320 C   0  0  0  0  0  0  0  0  0  0  0  0
   59.5800   34.6740   45.9100 C   0  0  0  0  0  0  0  0  0  0  0  0
   60.0750   33.4010   46.4370 N   0  0  0  0  0  0  0  0  0  0  0  0
   61.5760   33.6130   47.3060 S   0  0  0  0  0  0  0  0  0  0  0  0
   61.3460   34.5660   48.4450 O   0  0  0  0  0  0  0  0  0  0  0  0
   62.5930   34.2220   46.3800 O   0  0  0  0  0  0  0  0  0  0  0  0
   62.2310   32.0590   47.9260 C   0  0  0  0  0  0  0  0  0  0  0  0
   63.7240   32.1510   48.2270 C   0  0  0  0  0  0  0  0  0  0  0  0
   59.0660   32.7410   47.2800 C   0  0  0  0  0  0  0  0  0  0  0  0
   57.6470   32.8310   46.6700 C   0  0  0  0  0  0  0  0  0  0  0  0
   58.3060   29.9460   45.8010 C   0  0  0  0  0  0  0  0  0  0  0  0
   57.7390   28.6830   45.7810 C   0  0  0  0  0  0  0  0  0  0  0  0
   58.0470   27.7200   46.6700 C   0  0  0  0  0  0  0  0  0  0  0  0
   57.3690   26.4130   46.8180 C   0  0  0  0  0  0  0  0  0  0  0  0
   57.9220   25.2790   47.2830 N   0  0  0  0  0  0  0  0  0  0  0  0
   56.9110   24.3860   47.2250 C   0  0  0  0  0  0  0  0  0  0  0  0
   57.0450   23.1860   47.5830 O   0  0  0  0  0  0  0  0  0  0  0  0
   55.7480   24.8790   46.7530 N   0  0  0  0  0  0  0  0  0  0  0  0
   56.0550   26.1610   46.5010 C   0  0  0  0  0  0  0  0  0  0  0  0
   55.1500   27.0840   45.9900 O   0  0  0  0  0  0  0  0  0  0  0  0
   56.8480   28.5850   44.7670 N   0  0  0  0  0  0  0  0  0  0  0  0
  1  2  2  0
  2  3  1  0
  3  4  1  0
  4  5  2  0
  4  6  1  0
  6  7  1  0
  7  8  1  0
  8  9  1  0
  9 10  1  0
 10 11  2  0
 10 12  2  0
 10 13  1  0
 13 14  1  0
  9 15  1  0
 15 16  1  0
  3 17  2  0
 17 18  1  0
 18 19  2  0
 19 20  1  0
 20 21  1  0
 21 22  1  0
 22 23  2  0
 22 24  1  0
 24 25  1  0
 25 26  1  0
 18 27  1  0
 27  2  1  0
 16  6  1  0
 25 20  2  0
M  CHG  4   6   1  21  -1  24  -1  26  -1
M  END
>  <UniqueID>  (3081) 
22

>  <SMILES>  (3081) 
C=c1[nH]/c(=C\c2[n-]c(=O)[n-]c2[O-])cc1C(=O)[NH+]1CCN(S(=O)(=O)CC)CC1

>  <Energy>  (3081) 
117.53420245978734

>  <Genealogy>  (3081) 
C=c1[nH]c(=Cc2[n-]c(=O)[n-]c2[O-])cc1C(=O)[NH+]1CCN(S(=O)(=O)CC)CC1 (protonated)
C=c1[nH]/c(=C\c2[n-]c(=O)[n-]c2[O-])cc1C(=O)[NH+]1CCN(S(=O)(=O)CC)CC1 (cis-trans isomerization)
C=c1[nH]/c(=C\c2[n-]c(=O)[n-]c2[O-])cc1C(=O)[NH+]1CCN(S(=O)(=O)CC)CC1 (3D coordinates assigned)
C=c1[nH]/c(=C\c2[n-]c(=O)[n-]c2[O-])cc1C(=O)[NH+]1CCN(S(=O)(=O)CC)CC1 (nonaromatic ring conformer: 117.53420245978734 kcal/mol)

>  <smiles>  (3081) 
C=c1[nH]c(=Cc2[nH]c(=O)[nH]c2O)cc1C(=O)N1CCN(S(=O)(=O)CC)CC1

>  <score_type>  (3081) 
oracle

>  <origin>  (3081) 
adg

>  <m_score__min__energy>  (3081) 
-15.789999999999999

>  <m_primary>  (3081) 
energy

$$$$
30:0
     RDKit          3D

 31 33  0  0  0  0  0  0  0  0999 V2000
   58.6640   23.3300   44.8890 N   0  0  0  0  0  0  0  0  0  0  0  0
   58.8390   24.2720   45.5390 C   0  0  0  0  0  0  0  0  0  0  0  0
   59.0550   25.4430   46.3480 C   0  0  0  0  0  0  0  0  0  0  0  0
   60.3550   25.9040   46.5800 C   0  0  0  0  0  0  0  0  0  0  0  0
   60.5670   27.0420   47.3640 C   0  0  0  0  0  0  0  0  0  0  0  0
   59.4790   27.7350   47.9260 C   0  0  0  0  0  0  0  0  0  0  0  0
   59.6950   28.9150   48.7340 N   0  0  0  0  0  0  0  0  0  0  0  0
   61.0450   29.2510   49.2100 C   0  0  0  0  0  0  0  0  0  0  0  0
   61.2340   30.7710   49.2450 C   0  0  0  0  0  0  0  0  0  0  0  0
   60.1260   31.4370   49.9470 N   0  0  0  0  0  0  0  0  0  0  0  0
   60.3220   32.7360   50.5340 C   0  0  0  0  0  0  0  0  0  0  0  0
   60.0680   32.9100   51.7560 O   0  0  0  0  0  0  0  0  0  0  0  0
   60.7500   33.8600   49.7530 N   0  0  0  0  0  0  0  0  0  0  0  0
   59.8950   34.5780   48.8180 C   0  0  0  0  0  0  0  0  0  0  0  0
   60.0120   33.9910   47.4420 C   0  0  0  0  0  0  0  0  0  0  0  0
   61.0900   34.1270   46.8040 O   0  0  0  0  0  0  0  0  0  0  0  0
   58.9270   33.2850   46.8230 N   0  0  0  0  0  0  0  0  0  0  0  0
   58.9680   31.9590   46.2730 C   0  0  0  0  0  0  0  0  0  0  0  0
   60.1770   31.2520   46.2980 C   0  0  0  0  0  0  0  0  0  0  0  0
   60.2540   29.9660   45.7560 C   0  0  0  0  0  0  0  0  0  0  0  0
   59.1200   29.3710   45.1970 C   0  0  0  0  0  0  0  0  0  0  0  0
   57.8960   30.0510   45.2010 C   0  0  0  0  0  0  0  0  0  0  0  0
   56.4680   29.3140   44.4800 S   0  0  0  0  0  0  0  0  0  0  0  0
   56.0000   27.9340   45.4090 N   0  0  0  0  0  0  0  0  0  0  0  0
   55.3390   30.3060   44.4560 O   0  0  0  0  0  0  0  0  0  0  0  0
   56.7690   28.8920   43.0690 O   0  0  0  0  0  0  0  0  0  0  0  0
   57.8180   31.3360   45.7540 C   0  0  0  0  0  0  0  0  0  0  0  0
   58.9200   30.6800   50.3020 C   0  0  0  0  0  0  0  0  0  0  0  0
   58.5430   29.7220   49.1680 C   0  0  0  0  0  0  0  0  0  0  0  0
   58.1760   27.2590   47.6910 C   0  0  0  0  0  0  0  0  0  0  0  0
   57.9670   26.1210   46.9050 C   0  0  0  0  0  0  0  0  0  0  0  0
  1  2  3  0
  2  3  1  0
  3  4  2  0
  4  5  1  0
  5  6  2  0
  6  7  1  0
  7  8  1  0
  8  9  1  0
  9 10  1  0
 10 11  1  0
 11 12  2  0
 11 13  1  0
 13 14  1  0
 14 15  1  0
 15 16  2  0
 15 17  1  0
 17 18  1  0
 18 19  2  0
 19 20  1  0
 20 21  2  0
 21 22  1  0
 22 23  1  0
 23 24  1  0
 23 25  2  0
 23 26  2  0
 22 27  2  0
 10 28  1  0
 28 29  1  0
  6 30  1  0
 30 31  2  0
 31  3  1  0
 29  7  1  0
 27 18  1  0
M  CHG  3  13  -1  17  -1  24  -1
M  END
>  <UniqueID>  (3082) 
31

>  <SMILES>  (3082) 
N#Cc1ccc(N2CCN(C(=O)[N-]CC(=O)[N-]c3cccc(S([NH-])(=O)=O)c3)CC2)cc1

>  <Energy>  (3082) 
57.64644052343676

>  <Genealogy>  (3082) 
N#Cc1ccc(N2CCN(C(=O)[N-]CC(=O)[N-]c3cccc(S([NH-])(=O)=O)c3)CC2)cc1 (protonated)
N#Cc1ccc(N2CCN(C(=O)[N-]CC(=O)[N-]c3cccc(S([NH-])(=O)=O)c3)CC2)cc1 (3D coordinates assigned)
N#Cc1ccc(N2CCN(C(=O)[N-]CC(=O)[N-]c3cccc(S([NH-])(=O)=O)c3)CC2)cc1 (nonaromatic ring conformer: 57.64644052343676 kcal/mol)

>  <smiles>  (3082) 
N#Cc1ccc(N2CCN(C(=O)NCC(=O)Nc3cccc(S(N)(=O)=O)c3)CC2)cc1

>  <score_type>  (3082) 
oracle

>  <origin>  (3082) 
adg

>  <m_score__min__energy>  (3082) 
-14.779999999999999

>  <m_primary>  (3082) 
energy

$$$$
44:0
     RDKit          3D

 29 32  0  0  0  0  0  0  0  0999 V2000
   57.3040   29.3660   43.3430 C   0  0  0  0  0  0  0  0  0  0  0  0
   58.0000   29.8470   44.3850 C   0  0  0  0  0  0  0  0  0  0  0  0
   58.4070   29.1420   45.5280 C   0  0  0  0  0  0  0  0  0  0  0  0
   58.4140   27.8220   45.8000 C   0  0  0  0  0  0  0  0  0  0  0  0
   57.2260   26.9580   45.8860 C   0  0  0  0  0  0  0  0  0  0  0  0
   57.2240   25.7000   46.3660 N   0  0  0  0  0  0  0  0  0  0  0  0
   55.9140   25.3730   46.3780 C   0  0  0  0  0  0  0  0  0  0  0  0
   55.5000   24.2460   46.7560 O   0  0  0  0  0  0  0  0  0  0  0  0
   55.0810   26.3520   45.9640 N   0  0  0  0  0  0  0  0  0  0  0  0
   55.9280   27.3520   45.6700 C   0  0  0  0  0  0  0  0  0  0  0  0
   55.5210   28.6020   45.2210 O   0  0  0  0  0  0  0  0  0  0  0  0
   58.8650   30.0910   46.4260 C   0  0  0  0  0  0  0  0  0  0  0  0
   58.7740   31.3150   45.7960 C   0  0  0  0  0  0  0  0  0  0  0  0
   59.1710   32.5920   46.4180 C   0  0  0  0  0  0  0  0  0  0  0  0
   58.8300   33.6710   45.8630 O   0  0  0  0  0  0  0  0  0  0  0  0
   59.9760   32.6240   47.6110 N   0  0  0  0  0  0  0  0  0  0  0  0
   59.7470   33.6580   48.6260 C   0  0  0  0  0  0  0  0  0  0  0  0
   61.0800   34.2740   49.0560 C   0  0  0  0  0  0  0  0  0  0  0  0
   62.0640   33.2390   49.4120 N   0  0  0  0  0  0  0  0  0  0  0  0
   63.2450   33.6100   50.1530 C   0  0  0  0  0  0  0  0  0  0  0  0
   63.2620   34.4550   51.1720 C   0  0  0  0  0  0  0  0  0  0  0  0
   64.6380   34.6350   51.7370 C   0  0  0  0  0  0  0  0  0  0  0  0
   65.5410   33.7230   50.8880 C   0  0  0  0  0  0  0  0  0  0  0  0
   64.5890   33.1100   49.9290 C   0  0  0  0  0  0  0  0  0  0  0  0
   64.9080   32.2390   49.0780 O   0  0  0  0  0  0  0  0  0  0  0  0
   61.7870   31.8240   49.1190 C   0  0  0  0  0  0  0  0  0  0  0  0
   61.0890   31.6750   47.7620 C   0  0  0  0  0  0  0  0  0  0  0  0
   58.2820   31.1670   44.5440 N   0  0  0  0  0  0  0  0  0  0  0  0
   58.0810   32.2290   43.5500 C   0  0  0  0  0  0  0  0  0  0  0  0
  1  2  2  0
  2  3  1  0
  3  4  2  3
  4  5  1  0
  5  6  1  0
  6  7  1  0
  7  8  2  0
  7  9  1  0
  9 10  1  0
 10 11  1  0
  3 12  1  0
 12 13  2  0
 13 14  1  0
 14 15  2  0
 14 16  1  0
 16 17  1  0
 17 18  1  0
 18 19  1  0
 19 20  1  0
 20 21  2  0
 21 22  1  0
 22 23  1  0
 23 24  1  0
 24 25  2  0
 19 26  1  0
 26 27  1  0
 13 28  1  0
 28 29  1  0
 28  2  1  0
 10  5  2  0
 27 16  1  0
 24 20  1  0
M  CHG  3   6  -1   9  -1  11  -1
M  END
>  <UniqueID>  (3083) 
45

>  <SMILES>  (3083) 
C=c1c(=Cc2[n-]c(=O)[n-]c2[O-])cc(C(=O)N2CCN(C3=CCCC3=O)CC2)n1C

>  <Energy>  (3083) 
138.10021361571904

>  <Genealogy>  (3083) 
C=c1c(=Cc2[n-]c(=O)[n-]c2[O-])cc(C(=O)N2CCN(C3=CCCC3=O)CC2)n1C (protonated)
C=c1c(=Cc2[n-]c(=O)[n-]c2[O-])cc(C(=O)N2CCN(C3=CCCC3=O)CC2)n1C (3D coordinates assigned)
C=c1c(=Cc2[n-]c(=O)[n-]c2[O-])cc(C(=O)N2CCN(C3=CCCC3=O)CC2)n1C (nonaromatic ring conformer: 138.10021361571904 kcal/mol)

>  <smiles>  (3083) 
C=c1c(=Cc2[nH]c(=O)[nH]c2O)cc(C(=O)N2CCN(C3=CCCC3=O)CC2)n1C

>  <score_type>  (3083) 
oracle

>  <origin>  (3083) 
adg

>  <m_score__min__energy>  (3083) 
-17.280000000000001

>  <m_primary>  (3083) 
energy

$$$$
48:0
     RDKit          3D

 25 27  0  0  0  0  0  0  0  0999 V2000
   57.7590   23.3950   44.8130 C   0  0  0  0  0  0  0  0  0  0  0  0
   56.5860   24.1870   45.2900 C   0  0  0  0  0  0  0  0  0  0  0  0
   55.3110   23.9010   44.9680 N   0  0  0  0  0  0  0  0  0  0  0  0
   54.6060   24.8360   45.6370 C   0  0  0  0  0  0  0  0  0  0  0  0
   53.3490   24.9000   45.5910 O   0  0  0  0  0  0  0  0  0  0  0  0
   55.3510   25.6940   46.3630 N   0  0  0  0  0  0  0  0  0  0  0  0
   56.6100   25.2800   46.1330 C   0  0  0  0  0  0  0  0  0  0  0  0
   57.8170   25.9140   46.7570 C   0  0  0  0  0  0  0  0  0  0  0  0
   58.2580   27.1120   45.9630 C   0  0  0  0  0  0  0  0  0  0  0  0
   59.6230   27.3320   45.7180 C   0  0  0  0  0  0  0  0  0  0  0  0
   60.0360   28.4540   44.9950 C   0  0  0  0  0  0  0  0  0  0  0  0
   59.0930   29.3620   44.5070 C   0  0  0  0  0  0  0  0  0  0  0  0
   57.7270   29.1410   44.7260 C   0  0  0  0  0  0  0  0  0  0  0  0
   56.5230   30.2590   44.0900 S   0  0  0  0  0  0  0  0  0  0  0  0
   55.1390   29.7010   44.2830 O   0  0  0  0  0  0  0  0  0  0  0  0
   56.7600   30.4360   42.6180 O   0  0  0  0  0  0  0  0  0  0  0  0
   56.6460   31.8080   44.8730 N   0  0  0  0  0  0  0  0  0  0  0  0
   57.7380   32.6060   44.3090 C   0  0  0  0  0  0  0  0  0  0  0  0
   58.4160   33.4170   45.3810 C   0  0  0  0  0  0  0  0  0  0  0  0
   59.1500   34.5680   45.0490 C   0  0  0  0  0  0  0  0  0  0  0  0
   59.7760   35.3180   46.0490 C   0  0  0  0  0  0  0  0  0  0  0  0
   59.6950   34.9110   47.3820 C   0  0  0  0  0  0  0  0  0  0  0  0
   58.9870   33.7550   47.7180 C   0  0  0  0  0  0  0  0  0  0  0  0
   58.3450   33.0110   46.7240 C   0  0  0  0  0  0  0  0  0  0  0  0
   57.3120   28.0140   45.4490 C   0  0  0  0  0  0  0  0  0  0  0  0
  1  2  1  0
  2  3  1  0
  3  4  1  0
  4  5  2  0
  4  6  1  0
  6  7  1  0
  7  8  1  0
  8  9  1  0
  9 10  2  0
 10 11  1  0
 11 12  2  0
 12 13  1  0
 13 14  1  0
 14 15  2  0
 14 16  2  0
 14 17  1  0
 17 18  1  0
 18 19  1  0
 19 20  2  0
 20 21  1  0
 21 22  2  0
 22 23  1  0
 23 24  2  0
 13 25  2  0
  7  2  2  0
 25  9  1  0
 24 19  1  0
M  CHG  3   3  -1   6  -1  17  -1
M  END
>  <UniqueID>  (3084) 
49

>  <SMILES>  (3084) 
Cc1[n-]c(=O)[n-]c1Cc1cccc(S(=O)(=O)[N-]Cc2ccccc2)c1

>  <Energy>  (3084) 
61.574656651688095

>  <Genealogy>  (3084) 
Cc1[n-]c(=O)[n-]c1Cc1cccc(S(=O)(=O)[N-]Cc2ccccc2)c1 (protonated)
Cc1[n-]c(=O)[n-]c1Cc1cccc(S(=O)(=O)[N-]Cc2ccccc2)c1 (3D coordinates assigned)
Cc1[n-]c(=O)[n-]c1Cc1cccc(S(=O)(=O)[N-]Cc2ccccc2)c1 (optimized conformer: 61.574656651688095 kcal/mol)

>  <smiles>  (3084) 
Cc1[nH]c(=O)[nH]c1Cc1cccc(S(=O)(=O)NCc2ccccc2)c1

>  <score_type>  (3084) 
oracle

>  <origin>  (3084) 
adg

>  <m_score__min__energy>  (3084) 
-14.210000000000001

>  <m_primary>  (3084) 
energy

$$$$
51:0
     RDKit          3D

 37 41  0  0  0  0  0  0  0  0999 V2000
   57.2440   32.6580   52.7540 O   0  0  0  0  0  0  0  0  0  0  0  0
   58.4940   32.8170   52.7210 C   0  0  0  0  0  0  0  0  0  0  0  0
   59.0670   34.1140   52.2300 C   0  0  0  0  0  0  0  0  0  0  0  0
   59.8920   33.9470   50.9870 C   0  0  0  0  0  0  0  0  0  0  0  0
   61.2200   33.6600   51.0630 N   0  0  0  0  0  0  0  0  0  0  0  0
   61.9580   33.4650   49.9430 C   0  0  0  0  0  0  0  0  0  0  0  0
   63.1890   33.2180   50.0380 O   0  0  0  0  0  0  0  0  0  0  0  0
   61.3530   33.5350   48.6860 C   0  0  0  0  0  0  0  0  0  0  0  0
   59.9730   33.8010   48.6110 C   0  0  0  0  0  0  0  0  0  0  0  0
   59.2640   33.8430   47.3460 N   0  0  0  0  0  0  0  0  0  0  0  0
   59.7070   34.8280   46.3410 C   0  0  0  0  0  0  0  0  0  0  0  0
   59.0190   34.6440   44.9870 C   0  0  0  0  0  0  0  0  0  0  0  0
   57.6460   34.3780   45.1560 O   0  0  0  0  0  0  0  0  0  0  0  0
   57.5040   33.0960   45.7250 C   0  0  0  0  0  0  0  0  0  0  0  0
   58.0180   33.0740   47.1690 C   0  0  0  0  0  0  0  0  0  0  0  0
   59.2860   33.9940   49.7720 N   0  0  0  0  0  0  0  0  0  0  0  0
   59.3840   31.7850   53.1670 N   0  0  0  0  0  0  0  0  0  0  0  0
   60.3600   31.0630   52.3960 C   0  0  0  0  0  0  0  0  0  0  0  0
   61.6450   30.7700   52.8850 C   0  0  0  0  0  0  0  0  0  0  0  0
   62.5450   30.0410   52.1050 C   0  0  0  0  0  0  0  0  0  0  0  0
   62.1670   29.5760   50.8450 C   0  0  0  0  0  0  0  0  0  0  0  0
   60.8770   29.8270   50.3520 C   0  0  0  0  0  0  0  0  0  0  0  0
   60.4560   29.2820   49.0840 N   0  0  0  0  0  0  0  0  0  0  0  0
   60.0810   30.2080   48.0060 C   0  0  0  0  0  0  0  0  0  0  0  0
   59.3020   29.4820   46.9110 C   0  0  0  0  0  0  0  0  0  0  0  0
   60.0700   28.3060   46.4700 N   0  0  0  0  0  0  0  0  0  0  0  0
   59.5550   27.6930   45.2250 C   0  0  0  0  0  0  0  0  0  0  0  0
   58.4260   26.7050   45.4480 C   0  0  0  0  0  0  0  0  0  0  0  0
   58.6880   25.3240   45.4920 C   0  0  0  0  0  0  0  0  0  0  0  0
   57.6440   24.4140   45.6860 C   0  0  0  0  0  0  0  0  0  0  0  0
   56.3350   24.8730   45.8560 C   0  0  0  0  0  0  0  0  0  0  0  0
   56.0680   26.2440   45.8410 C   0  0  0  0  0  0  0  0  0  0  0  0
   54.7700   26.7000   46.0240 O   0  0  0  0  0  0  0  0  0  0  0  0
   57.1100   27.1580   45.6440 C   0  0  0  0  0  0  0  0  0  0  0  0
   60.3690   27.3250   47.5440 C   0  0  0  0  0  0  0  0  0  0  0  0
   60.1190   27.8560   48.9700 C   0  0  0  0  0  0  0  0  0  0  0  0
   59.9800   30.5750   51.1370 C   0  0  0  0  0  0  0  0  0  0  0  0
  1  2  2  0
  2  3  1  0
  3  4  1  0
  4  5  2  0
  5  6  1  0
  6  7  2  0
  6  8  1  0
  8  9  2  0
  9 10  1  0
 10 11  1  0
 11 12  1  0
 12 13  1  0
 13 14  1  0
 14 15  1  0
  9 16  1  0
  2 17  1  0
 17 18  1  0
 18 19  2  0
 19 20  1  0
 20 21  2  0
 21 22  1  0
 22 23  1  0
 23 24  1  0
 24 25  1  0
 25 26  1  0
 26 27  1  0
 27 28  1  0
 28 29  2  0
 29 30  1  0
 30 31  2  0
 31 32  1  0
 32 33  1  0
 32 34  2  0
 26 35  1  0
 35 36  1  0
 22 37  2  0
 16  4  1  0
 37 18  1  0
 15 10  1  0
 36 23  1  0
 34 28  1  0
M  CHG  3  16  -1  17  -1  33  -1
M  END
>  <UniqueID>  (3085) 
52

>  <SMILES>  (3085) 
O=C(Cc1nc(=O)cc(N2CCOCC2)[n-]1)[N-]c1cccc(N2CCN(Cc3cccc([O-])c3)CC2)c1

>  <Energy>  (3085) 
92.03129987045253

>  <Genealogy>  (3085) 
O=C(Cc1nc(=O)cc(N2CCOCC2)[n-]1)[N-]c1cccc(N2CCN(Cc3cccc([O-])c3)CC2)c1 (protonated)
O=C(Cc1nc(=O)cc(N2CCOCC2)[n-]1)[N-]c1cccc(N2CCN(Cc3cccc([O-])c3)CC2)c1 (3D coordinates assigned)
O=C(Cc1nc(=O)cc(N2CCOCC2)[n-]1)[N-]c1cccc(N2CCN(Cc3cccc([O-])c3)CC2)c1 (nonaromatic ring conformer: 92.03129987045253 kcal/mol)

>  <smiles>  (3085) 
O=C(Cc1nc(=O)cc(N2CCOCC2)[nH]1)Nc1cccc(N2CCN(Cc3cccc(O)c3)CC2)c1

>  <score_type>  (3085) 
oracle

>  <origin>  (3085) 
adg

>  <m_score__min__energy>  (3085) 
-16.079999999999998

>  <m_primary>  (3085) 
energy

$$$$
52:0
     RDKit          3D

 30 33  0  0  0  0  0  0  0  0999 V2000
   59.3730   29.6420   46.3150 C   0  0  0  0  0  0  0  0  0  0  0  0
   59.5530   29.4270   47.6210 C   0  0  0  0  0  0  0  0  0  0  0  0
   60.0190   28.2490   48.0890 N   0  0  0  0  0  0  0  0  0  0  0  0
   60.0390   28.4260   49.4200 C   0  0  0  0  0  0  0  0  0  0  0  0
   60.4050   27.5320   50.2300 O   0  0  0  0  0  0  0  0  0  0  0  0
   59.5620   29.6750   49.7590 C   0  0  0  0  0  0  0  0  0  0  0  0
   59.3480   30.0830   51.0270 C   0  0  0  0  0  0  0  0  0  0  0  0
   58.1000   30.6800   51.5240 C   0  0  0  0  0  0  0  0  0  0  0  0
   58.0020   31.8880   52.1840 C   0  0  0  0  0  0  0  0  0  0  0  0
   56.6680   32.0350   52.5010 C   0  0  0  0  0  0  0  0  0  0  0  0
   56.0340   30.8980   52.0220 C   0  0  0  0  0  0  0  0  0  0  0  0
   54.5900   30.5830   52.0910 C   0  0  0  0  0  0  0  0  0  0  0  0
   54.1290   29.3660   52.6220 C   0  0  0  0  0  0  0  0  0  0  0  0
   52.7600   29.0950   52.6840 C   0  0  0  0  0  0  0  0  0  0  0  0
   51.8360   30.0320   52.2180 C   0  0  0  0  0  0  0  0  0  0  0  0
   52.2730   31.2550   51.6850 C   0  0  0  0  0  0  0  0  0  0  0  0
   51.2910   32.2510   51.2020 C   0  0  0  0  0  0  0  0  0  0  0  0
   50.6980   33.0130   52.0120 O   0  0  0  0  0  0  0  0  0  0  0  0
   51.0080   32.3600   49.8450 O   0  0  0  0  0  0  0  0  0  0  0  0
   53.6540   31.5220   51.6240 C   0  0  0  0  0  0  0  0  0  0  0  0
   56.9190   30.1090   51.4580 O   0  0  0  0  0  0  0  0  0  0  0  0
   59.3020   30.3420   48.6020 N   0  0  0  0  0  0  0  0  0  0  0  0
   59.1010   31.7930   48.3950 C   0  0  0  0  0  0  0  0  0  0  0  0
   60.3270   32.4590   47.7950 C   0  0  0  0  0  0  0  0  0  0  0  0
   60.1560   33.5690   46.9410 C   0  0  0  0  0  0  0  0  0  0  0  0
   61.2590   34.2180   46.3830 C   0  0  0  0  0  0  0  0  0  0  0  0
   62.5470   33.7580   46.6460 C   0  0  0  0  0  0  0  0  0  0  0  0
   62.7350   32.6320   47.4460 C   0  0  0  0  0  0  0  0  0  0  0  0
   61.6400   31.9580   48.0020 C   0  0  0  0  0  0  0  0  0  0  0  0
   61.9010   30.7970   48.7330 O   0  0  0  0  0  0  0  0  0  0  0  0
  1  2  2  0
  2  3  1  0
  3  4  1  0
  4  5  2  0
  4  6  1  0
  6  7  2  3
  7  8  1  0
  8  9  2  0
  9 10  1  0
 10 11  2  0
 11 12  1  0
 12 13  2  0
 13 14  1  0
 14 15  2  0
 15 16  1  0
 16 17  1  0
 17 18  2  0
 17 19  1  0
 16 20  2  0
 11 21  1  0
  6 22  1  0
 22 23  1  0
 23 24  1  0
 24 25  2  0
 25 26  1  0
 26 27  2  0
 27 28  1  0
 28 29  2  0
 29 30  1  0
 22  2  1  0
 29 24  1  0
 21  8  1  0
 20 12  1  0
M  CHG  2   3  -1  19  -1
M  END
>  <UniqueID>  (3086) 
53

>  <SMILES>  (3086) 
C=c1[n-]c(=O)c(=Cc2ccc(-c3cccc(C(=O)[O-])c3)o2)n1Cc1ccccc1O

>  <Energy>  (3086) 
126.27956519764876

>  <Genealogy>  (3086) 
C=c1[n-]c(=O)c(=Cc2ccc(-c3cccc(C(=O)[O-])c3)o2)n1Cc1ccccc1O (protonated)
C=c1[n-]c(=O)c(=Cc2ccc(-c3cccc(C(=O)[O-])c3)o2)n1Cc1ccccc1O (3D coordinates assigned)
C=c1[n-]c(=O)c(=Cc2ccc(-c3cccc(C(=O)[O-])c3)o2)n1Cc1ccccc1O (optimized conformer: 126.27956519764876 kcal/mol)

>  <smiles>  (3086) 
C=c1[nH]c(=O)c(=Cc2ccc(-c3cccc(C(=O)O)c3)o2)n1Cc1ccccc1O

>  <score_type>  (3086) 
oracle

>  <origin>  (3086) 
adg

>  <m_score__min__energy>  (3086) 
-14.220000000000001

>  <m_primary>  (3086) 
energy

$$$$
59:0
     RDKit          3D

 29 32  0  0  0  0  0  0  0  0999 V2000
   56.8180   29.6220   42.9060 C   0  0  0  0  0  0  0  0  0  0  0  0
   57.4680   30.4470   43.7450 C   0  0  0  0  0  0  0  0  0  0  0  0
   57.4770   31.8190   43.4240 C   0  0  0  0  0  0  0  0  0  0  0  0
   57.8790   32.7710   44.3560 C   0  0  0  0  0  0  0  0  0  0  0  0
   58.2620   32.3850   45.6430 C   0  0  0  0  0  0  0  0  0  0  0  0
   58.6570   33.4040   46.6430 C   0  0  0  0  0  0  0  0  0  0  0  0
   57.8280   34.2920   46.9830 O   0  0  0  0  0  0  0  0  0  0  0  0
   59.9640   33.3910   47.2430 N   0  0  0  0  0  0  0  0  0  0  0  0
   60.1060   33.7490   48.6600 C   0  0  0  0  0  0  0  0  0  0  0  0
   61.2840   33.0010   49.3210 C   0  0  0  0  0  0  0  0  0  0  0  0
   62.2780   32.4960   48.3430 N   0  0  0  0  0  0  0  0  0  0  0  0
   63.5470   32.0860   49.0000 C   0  0  0  0  0  0  0  0  0  0  0  0
   63.3660   31.4520   50.3990 C   0  0  0  0  0  0  0  0  0  0  0  0
   64.7380   31.0500   50.9910 C   0  0  0  0  0  0  0  0  0  0  0  0
   65.8420   31.6500   50.3290 O   0  0  0  0  0  0  0  0  0  0  0  0
   65.6130   33.0340   50.1440 C   0  0  0  0  0  0  0  0  0  0  0  0
   64.5360   33.2700   49.0710 C   0  0  0  0  0  0  0  0  0  0  0  0
   62.4330   33.4120   47.1980 C   0  0  0  0  0  0  0  0  0  0  0  0
   61.1480   33.3760   46.3720 C   0  0  0  0  0  0  0  0  0  0  0  0
   58.3310   31.0200   45.9560 C   0  0  0  0  0  0  0  0  0  0  0  0
   58.0160   30.0270   45.0010 C   0  0  0  0  0  0  0  0  0  0  0  0
   58.2860   28.7420   45.3460 C   0  0  0  0  0  0  0  0  0  0  0  0
   57.2870   27.6930   45.6360 C   0  0  0  0  0  0  0  0  0  0  0  0
   57.5670   26.4870   46.1650 N   0  0  0  0  0  0  0  0  0  0  0  0
   56.3470   25.9390   46.3510 C   0  0  0  0  0  0  0  0  0  0  0  0
   56.1880   24.7840   46.8280 O   0  0  0  0  0  0  0  0  0  0  0  0
   55.3100   26.7280   45.9970 N   0  0  0  0  0  0  0  0  0  0  0  0
   55.9240   27.8380   45.5580 C   0  0  0  0  0  0  0  0  0  0  0  0
   55.2510   28.9630   45.0980 O   0  0  0  0  0  0  0  0  0  0  0  0
  1  2  2  0
  2  3  1  0
  3  4  2  0
  4  5  1  0
  5  6  1  0
  6  7  2  0
  6  8  1  0
  8  9  1  0
  9 10  1  0
 10 11  1  0
 11 12  1  0
 12 13  1  0
 13 14  1  0
 14 15  1  0
 15 16  1  0
 16 17  1  0
 11 18  1  0
 18 19  1  0
  5 20  2  0
 20 21  1  0
 21 22  2  3
 22 23  1  0
 23 24  1  0
 24 25  1  0
 25 26  2  0
 25 27  1  0
 27 28  1  0
 28 29  1  0
 21  2  1  0
 28 23  2  0
 19  8  1  0
 17 12  1  0
M  CHG  3  24  -1  27  -1  29  -1
M  END
>  <UniqueID>  (3087) 
60

>  <SMILES>  (3087) 
C=c1ccc(C(=O)N2CCN(C3CCOCC3)CC2)cc1=Cc1[n-]c(=O)[n-]c1[O-]

>  <Energy>  (3087) 
125.61153046905424

>  <Genealogy>  (3087) 
C=c1ccc(C(=O)N2CCN(C3CCOCC3)CC2)cc1=Cc1[n-]c(=O)[n-]c1[O-] (protonated)
C=c1ccc(C(=O)N2CCN(C3CCOCC3)CC2)cc1=Cc1[n-]c(=O)[n-]c1[O-] (3D coordinates assigned)
C=c1ccc(C(=O)N2CCN(C3CCOCC3)CC2)cc1=Cc1[n-]c(=O)[n-]c1[O-] (nonaromatic ring conformer: 125.61153046905424 kcal/mol)

>  <smiles>  (3087) 
C=c1ccc(C(=O)N2CCN(C3CCOCC3)CC2)cc1=Cc1[nH]c(=O)[nH]c1O

>  <score_type>  (3087) 
oracle

>  <origin>  (3087) 
adg

>  <m_score__min__energy>  (3087) 
-17.920000000000002

>  <m_primary>  (3087) 
energy

$$$$
67:0
     RDKit          3D

 32 35  0  0  0  0  0  0  0  0999 V2000
   56.4310   29.6530   42.2450 C   0  0  0  0  0  0  0  0  0  0  0  0
   56.8250   30.4470   43.2530 C   0  0  0  0  0  0  0  0  0  0  0  0
   56.7980   30.1410   44.6210 C   0  0  0  0  0  0  0  0  0  0  0  0
   56.2060   29.1360   45.2950 C   0  0  0  0  0  0  0  0  0  0  0  0
   56.8210   27.8380   45.6190 C   0  0  0  0  0  0  0  0  0  0  0  0
   58.1240   27.5420   45.4450 N   0  0  0  0  0  0  0  0  0  0  0  0
   58.1790   26.2170   45.6970 C   0  0  0  0  0  0  0  0  0  0  0  0
   59.2530   25.5590   45.6350 O   0  0  0  0  0  0  0  0  0  0  0  0
   56.9920   25.6450   45.9870 N   0  0  0  0  0  0  0  0  0  0  0  0
   56.1400   26.6830   45.9150 C   0  0  0  0  0  0  0  0  0  0  0  0
   54.7700   26.5720   46.1090 O   0  0  0  0  0  0  0  0  0  0  0  0
   57.5440   31.1220   45.2500 C   0  0  0  0  0  0  0  0  0  0  0  0
   57.9390   32.0180   44.2750 C   0  0  0  0  0  0  0  0  0  0  0  0
   58.8420   33.1620   44.5250 C   0  0  0  0  0  0  0  0  0  0  0  0
   59.2190   33.8780   43.5570 O   0  0  0  0  0  0  0  0  0  0  0  0
   59.3480   33.4280   45.8440 N   0  0  0  0  0  0  0  0  0  0  0  0
   58.4280   33.3980   46.9940 C   0  0  0  0  0  0  0  0  0  0  0  0
   59.0700   34.0030   48.2460 C   0  0  0  0  0  0  0  0  0  0  0  0
   60.4250   33.4680   48.4150 N   0  0  0  0  0  0  0  0  0  0  0  0
   60.8830   33.0950   49.7150 C   0  0  0  0  0  0  0  0  0  0  0  0
   61.1340   33.9860   50.5710 O   0  0  0  0  0  0  0  0  0  0  0  0
   60.9520   31.6490   50.0960 C   0  0  0  0  0  0  0  0  0  0  0  0
   60.4130   30.8050   48.9700 C   0  0  0  0  0  0  0  0  0  0  0  0
   61.2440   30.4510   47.8950 C   0  0  0  0  0  0  0  0  0  0  0  0
   60.7510   29.6170   46.8850 C   0  0  0  0  0  0  0  0  0  0  0  0
   59.4740   29.1490   46.9490 N   0  0  0  0  0  0  0  0  0  0  0  0
   58.6510   29.4680   47.9870 C   0  0  0  0  0  0  0  0  0  0  0  0
   59.1040   30.2980   49.0180 C   0  0  0  0  0  0  0  0  0  0  0  0
   61.3480   33.3750   47.2760 C   0  0  0  0  0  0  0  0  0  0  0  0
   60.7150   33.9430   46.0010 C   0  0  0  0  0  0  0  0  0  0  0  0
   57.4800   31.6240   43.0640 N   0  0  0  0  0  0  0  0  0  0  0  0
   57.7210   32.3030   41.7850 C   0  0  0  0  0  0  0  0  0  0  0  0
  1  2  2  0
  2  3  1  0
  3  4  2  3
  4  5  1  0
  5  6  1  0
  6  7  1  0
  7  8  2  0
  7  9  1  0
  9 10  1  0
 10 11  1  0
  3 12  1  0
 12 13  2  0
 13 14  1  0
 14 15  2  0
 14 16  1  0
 16 17  1  0
 17 18  1  0
 18 19  1  0
 19 20  1  0
 20 21  2  0
 20 22  1  0
 22 23  1  0
 23 24  2  0
 24 25  1  0
 25 26  2  0
 26 27  1  0
 27 28  2  0
 19 29  1  0
 29 30  1  0
 13 31  1  0
 31 32  1  0
 31  2  1  0
 10  5  2  0
 30 16  1  0
 28 23  1  0
M  CHG  4   6  -1   9  -1  11  -1  26   1
M  END
>  <UniqueID>  (3088) 
68

>  <SMILES>  (3088) 
C=c1c(=Cc2[n-]c(=O)[n-]c2[O-])cc(C(=O)N2CCN(C(=O)Cc3cc[nH+]cc3)CC2)n1C

>  <Energy>  (3088) 
132.81550091487256

>  <Genealogy>  (3088) 
C=c1c(=Cc2[n-]c(=O)[n-]c2[O-])cc(C(=O)N2CCN(C(=O)Cc3cc[nH+]cc3)CC2)n1C (protonated)
C=c1c(=Cc2[n-]c(=O)[n-]c2[O-])cc(C(=O)N2CCN(C(=O)Cc3cc[nH+]cc3)CC2)n1C (3D coordinates assigned)
C=c1c(=Cc2[n-]c(=O)[n-]c2[O-])cc(C(=O)N2CCN(C(=O)Cc3cc[nH+]cc3)CC2)n1C (nonaromatic ring conformer: 132.81550091487256 kcal/mol)

>  <smiles>  (3088) 
C=c1c(=Cc2[nH]c(=O)[nH]c2O)cc(C(=O)N2CCN(C(=O)Cc3ccncc3)CC2)n1C

>  <score_type>  (3088) 
oracle

>  <origin>  (3088) 
adg

>  <m_score__min__energy>  (3088) 
-16.789999999999999

>  <m_primary>  (3088) 
energy

$$$$
69:0
     RDKit          3D

 22 23  0  0  0  0  0  0  0  0999 V2000
   60.5530   26.3870   47.9960 O   0  0  0  0  0  0  0  0  0  0  0  0
   59.3920   26.8650   47.8860 C   0  0  0  0  0  0  0  0  0  0  0  0
   58.2630   25.9690   47.4700 C   0  0  0  0  0  0  0  0  0  0  0  0
   57.9770   26.0810   45.9660 C   0  0  0  0  0  0  0  0  0  0  0  0
   57.4280   27.4420   45.5950 C   0  0  0  0  0  0  0  0  0  0  0  0
   56.0440   27.6990   45.6100 C   0  0  0  0  0  0  0  0  0  0  0  0
   55.1420   26.7170   45.9990 O   0  0  0  0  0  0  0  0  0  0  0  0
   55.5760   28.9180   45.2370 N   0  0  0  0  0  0  0  0  0  0  0  0
   56.4200   29.9020   44.8390 C   0  0  0  0  0  0  0  0  0  0  0  0
   55.9610   31.0240   44.4990 O   0  0  0  0  0  0  0  0  0  0  0  0
   57.7570   29.6790   44.8050 N   0  0  0  0  0  0  0  0  0  0  0  0
   58.2790   28.4780   45.1680 C   0  0  0  0  0  0  0  0  0  0  0  0
   59.5250   28.3080   45.1170 O   0  0  0  0  0  0  0  0  0  0  0  0
   59.1600   28.2640   48.1010 N   0  0  0  0  0  0  0  0  0  0  0  0
   60.2320   29.1940   48.4440 C   0  0  0  0  0  0  0  0  0  0  0  0
   59.9950   30.5280   47.7920 C   0  0  0  0  0  0  0  0  0  0  0  0
   61.0850   31.3260   47.4080 C   0  0  0  0  0  0  0  0  0  0  0  0
   60.8720   32.5580   46.7840 C   0  0  0  0  0  0  0  0  0  0  0  0
   59.5690   33.0010   46.5320 C   0  0  0  0  0  0  0  0  0  0  0  0
   59.2790   34.6840   45.6770 Br  0  0  0  0  0  0  0  0  0  0  0  0
   58.4780   32.2090   46.9070 C   0  0  0  0  0  0  0  0  0  0  0  0
   58.6890   30.9760   47.5330 C   0  0  0  0  0  0  0  0  0  0  0  0
  1  2  2  0
  2  3  1  0
  3  4  1  0
  4  5  1  0
  5  6  2  0
  6  7  1  0
  6  8  1  0
  8  9  1  0
  9 10  2  0
  9 11  1  0
 11 12  1  0
 12 13  2  0
  2 14  1  0
 14 15  1  0
 15 16  1  0
 16 17  2  0
 17 18  1  0
 18 19  2  0
 19 20  1  0
 19 21  1  0
 21 22  2  0
 12  5  1  0
 22 16  1  0
M  CHG  3   7  -1   8  -1  11  -1
M  END
>  <UniqueID>  (3089) 
70

>  <SMILES>  (3089) 
O=C(CCc1c([O-])[n-]c(=O)[n-]c1=O)NCc1ccc(Br)cc1

>  <Energy>  (3089) 
29.157517075916118

>  <Genealogy>  (3089) 
O=C(CCc1c([O-])[n-]c(=O)[n-]c1=O)NCc1ccc(Br)cc1 (protonated)
O=C(CCc1c([O-])[n-]c(=O)[n-]c1=O)NCc1ccc(Br)cc1 (3D coordinates assigned)
O=C(CCc1c([O-])[n-]c(=O)[n-]c1=O)NCc1ccc(Br)cc1 (optimized conformer: 29.157517075916118 kcal/mol)

>  <smiles>  (3089) 
O=C(CCc1c(O)[nH]c(=O)[nH]c1=O)NCc1ccc(Br)cc1

>  <score_type>  (3089) 
oracle

>  <origin>  (3089) 
adg

>  <m_score__min__energy>  (3089) 
-15.66

>  <m_primary>  (3089) 
energy

$$$$
2:0
     RDKit          3D

 26 28  0  0  0  0  0  0  0  0999 V2000
   53.7360   28.3170   53.2310 C   0  0  0  0  0  0  0  0  0  0  0  0
   54.6000   29.3140   52.9740 C   0  0  0  0  0  0  0  0  0  0  0  0
   54.2750   30.5850   52.4760 C   0  0  0  0  0  0  0  0  0  0  0  0
   53.0900   31.2130   52.3530 C   0  0  0  0  0  0  0  0  0  0  0  0
   52.2890   31.3030   51.1210 C   0  0  0  0  0  0  0  0  0  0  0  0
   52.2620   30.3660   50.1530 N   0  0  0  0  0  0  0  0  0  0  0  0
   51.3020   30.8140   49.3150 C   0  0  0  0  0  0  0  0  0  0  0  0
   50.9870   30.2050   48.2590 O   0  0  0  0  0  0  0  0  0  0  0  0
   50.6990   31.9580   49.7010 N   0  0  0  0  0  0  0  0  0  0  0  0
   51.3280   32.2450   50.8530 C   0  0  0  0  0  0  0  0  0  0  0  0
   51.0230   33.3440   51.6470 O   0  0  0  0  0  0  0  0  0  0  0  0
   55.4710   31.1680   52.1030 C   0  0  0  0  0  0  0  0  0  0  0  0
   56.4800   30.2870   52.4400 C   0  0  0  0  0  0  0  0  0  0  0  0
   57.9120   30.5620   52.1760 C   0  0  0  0  0  0  0  0  0  0  0  0
   58.5280   31.4550   52.8160 O   0  0  0  0  0  0  0  0  0  0  0  0
   58.5910   29.8130   51.1590 N   0  0  0  0  0  0  0  0  0  0  0  0
   58.8130   30.2190   49.8000 C   0  0  0  0  0  0  0  0  0  0  0  0
   58.9090   29.2870   48.7490 C   0  0  0  0  0  0  0  0  0  0  0  0
   59.1030   29.7270   47.4350 C   0  0  0  0  0  0  0  0  0  0  0  0
   59.1870   31.0940   47.1590 C   0  0  0  0  0  0  0  0  0  0  0  0
   59.0680   32.0260   48.1940 C   0  0  0  0  0  0  0  0  0  0  0  0
   59.1580   33.7420   47.8450 Cl  0  0  0  0  0  0  0  0  0  0  0  0
   58.8740   31.5880   49.5090 C   0  0  0  0  0  0  0  0  0  0  0  0
   55.9530   29.1650   53.0010 N   0  0  0  0  0  0  0  0  0  0  0  0
   56.6950   27.9880   53.4810 C   0  0  0  0  0  0  0  0  0  0  0  0
   57.3510   28.2740   54.8260 C   0  0  0  0  0  0  0  0  0  0  0  0
  1  2  2  0
  2  3  1  0
  3  4  2  3
  4  5  1  0
  5  6  1  0
  6  7  1  0
  7  8  2  0
  7  9  1  0
  9 10  1  0
 10 11  1  0
  3 12  1  0
 12 13  2  0
 13 14  1  0
 14 15  2  0
 14 16  1  0
 16 17  1  0
 17 18  2  0
 18 19  1  0
 19 20  2  0
 20 21  1  0
 21 22  1  0
 21 23  2  0
 13 24  1  0
 24 25  1  0
 25 26  1  0
 24  2  1  0
 10  5  2  0
 23 17  1  0
M  CHG  4   6  -1   9  -1  11  -1  16  -1
M  END
>  <UniqueID>  (3090) 
3

>  <SMILES>  (3090) 
C=c1c(=Cc2[n-]c(=O)[n-]c2[O-])cc(C(=O)[N-]c2cccc(Cl)c2)n1CC

>  <Energy>  (3090) 
113.68576675232666

>  <Genealogy>  (3090) 
C=c1c(=Cc2[n-]c(=O)[n-]c2[O-])cc(C(=O)[N-]c2cccc(Cl)c2)n1CC (protonated)
C=c1c(=Cc2[n-]c(=O)[n-]c2[O-])cc(C(=O)[N-]c2cccc(Cl)c2)n1CC (3D coordinates assigned)
C=c1c(=Cc2[n-]c(=O)[n-]c2[O-])cc(C(=O)[N-]c2cccc(Cl)c2)n1CC (optimized conformer: 113.68576675232666 kcal/mol)

>  <smiles>  (3090) 
C=c1c(=Cc2[nH]c(=O)[nH]c2O)cc(C(=O)Nc2cccc(Cl)c2)n1CC

>  <score_type>  (3090) 
oracle

>  <origin>  (3090) 
adg

>  <m_score__min__energy>  (3090) 
-17.850000000000001

>  <m_primary>  (3090) 
energy

$$$$
56:0
     RDKit          3D

 34 37  0  0  0  0  0  0  0  0999 V2000
   57.1200   24.0460   47.3100 C   0  0  0  0  0  0  0  0  0  0  0  0
   57.4450   25.1740   46.6710 C   0  0  0  0  0  0  0  0  0  0  0  0
   57.5530   26.3630   47.2930 N   0  0  0  0  0  0  0  0  0  0  0  0
   57.8470   27.2920   46.3590 C   0  0  0  0  0  0  0  0  0  0  0  0
   58.0060   28.5870   46.6910 C   0  0  0  0  0  0  0  0  0  0  0  0
   57.4200   29.7220   45.9680 C   0  0  0  0  0  0  0  0  0  0  0  0
   56.3270   29.6970   45.1170 C   0  0  0  0  0  0  0  0  0  0  0  0
   55.5190   28.5880   44.9020 O   0  0  0  0  0  0  0  0  0  0  0  0
   56.1250   30.8870   44.5040 N   0  0  0  0  0  0  0  0  0  0  0  0
   57.1290   31.6620   44.9580 C   0  0  0  0  0  0  0  0  0  0  0  0
   57.3760   32.9890   44.6150 C   0  0  0  0  0  0  0  0  0  0  0  0
   58.4980   33.6210   45.1790 C   0  0  0  0  0  0  0  0  0  0  0  0
   59.3560   32.9180   46.0610 C   0  0  0  0  0  0  0  0  0  0  0  0
   60.7610   33.7270   46.7490 S   0  0  0  0  0  0  0  0  0  0  0  0
   61.8390   33.8500   45.7060 O   0  0  0  0  0  0  0  0  0  0  0  0
   60.3580   35.1120   47.1780 O   0  0  0  0  0  0  0  0  0  0  0  0
   61.3490   32.8270   48.1260 N   0  0  0  0  0  0  0  0  0  0  0  0
   61.4370   33.7130   49.2990 C   0  0  0  0  0  0  0  0  0  0  0  0
   61.8110   32.9060   50.5570 C   0  0  0  0  0  0  0  0  0  0  0  0
   62.8160   31.8420   50.3010 N   0  0  0  0  0  0  0  0  0  0  0  0
   62.2390   30.4860   50.3790 C   0  0  0  0  0  0  0  0  0  0  0  0
   63.5710   32.0420   49.0490 C   0  0  0  0  0  0  0  0  0  0  0  0
   62.6530   32.1870   47.8140 C   0  0  0  0  0  0  0  0  0  0  0  0
   59.0750   31.5790   46.3960 C   0  0  0  0  0  0  0  0  0  0  0  0
   57.9470   30.9860   45.8280 C   0  0  0  0  0  0  0  0  0  0  0  0
   57.9530   26.6770   45.1000 C   0  0  0  0  0  0  0  0  0  0  0  0
   58.4780   27.2570   43.8070 C   0  0  0  0  0  0  0  0  0  0  0  0
   59.6160   28.2340   44.0740 C   0  0  0  0  0  0  0  0  0  0  0  0
   57.7090   25.3180   45.3150 C   0  0  0  0  0  0  0  0  0  0  0  0
   57.7050   24.2340   44.2630 C   0  0  0  0  0  0  0  0  0  0  0  0
   56.3310   24.0950   43.6050 C   0  0  0  0  0  0  0  0  0  0  0  0
   55.8260   22.6870   43.6670 C   0  0  0  0  0  0  0  0  0  0  0  0
   55.9530   21.9220   42.6760 O   0  0  0  0  0  0  0  0  0  0  0  0
   55.1730   22.2340   44.8070 O   0  0  0  0  0  0  0  0  0  0  0  0
  1  2  2  0
  2  3  1  0
  3  4  1  0
  4  5  2  3
  5  6  1  0
  6  7  2  0
  7  8  1  0
  7  9  1  0
  9 10  1  0
 10 11  2  0
 11 12  1  0
 12 13  2  0
 13 14  1  0
 14 15  2  0
 14 16  2  0
 14 17  1  0
 17 18  1  0
 18 19  1  0
 19 20  1  0
 20 21  1  0
 20 22  1  0
 22 23  1  0
 13 24  1  0
 24 25  2  0
  4 26  1  0
 26 27  1  0
 27 28  1  0
 26 29  2  0
 29 30  1  0
 30 31  1  0
 31 32  1  0
 32 33  2  0
 32 34  1  0
 29  2  1  0
 25  6  1  0
 25 10  1  0
 23 17  1  0
M  CHG  4   8  -1   9  -1  17   1  34  -1
M  END
>  <UniqueID>  (3091) 
54

>  <SMILES>  (3091) 
C=c1[nH]c(=Cc2c([O-])[n-]c3ccc(S(=O)(=O)[NH+]4CCN(C)CC4)cc23)c(CC)c1CCC(=O)[O-]

>  <Energy>  (3091) 
134.9305812939377

>  <Genealogy>  (3091) 
C=c1[nH]c(=Cc2c([O-])[n-]c3ccc(S(=O)(=O)[NH+]4CCN(C)CC4)cc23)c(CC)c1CCC(=O)[O-] (protonated)
C=c1[nH]c(=Cc2c([O-])[n-]c3ccc(S(=O)(=O)[NH+]4CCN(C)CC4)cc23)c(CC)c1CCC(=O)[O-] (3D coordinates assigned)
C=c1[nH]c(=Cc2c([O-])[n-]c3ccc(S(=O)(=O)[NH+]4CCN(C)CC4)cc23)c(CC)c1CCC(=O)[O-] (nonaromatic ring conformer: 134.9305812939377 kcal/mol)

>  <smiles>  (3091) 
C=c1[nH]c(=Cc2c(O)[nH]c3ccc(S(=O)(=O)N4CCN(C)CC4)cc23)c(CC)c1CCC(=O)O

>  <score_type>  (3091) 
oracle

>  <origin>  (3091) 
adg

>  <m_score__min__energy>  (3091) 
-14.92

>  <m_primary>  (3091) 
energy

$$$$
77:0
     RDKit          3D

 30 32  0  0  0  0  0  0  0  0999 V2000
   60.2390   26.7830   46.4300 C   0  0  0  0  0  0  0  0  0  0  0  0
   59.1090   27.4600   46.1640 C   0  0  0  0  0  0  0  0  0  0  0  0
   57.8090   26.9330   46.1630 C   0  0  0  0  0  0  0  0  0  0  0  0
   57.3290   25.7590   46.6180 C   0  0  0  0  0  0  0  0  0  0  0  0
   56.3830   24.8850   45.9050 C   0  0  0  0  0  0  0  0  0  0  0  0
   56.6470   23.6240   45.5160 N   0  0  0  0  0  0  0  0  0  0  0  0
   55.4600   23.1910   45.0380 C   0  0  0  0  0  0  0  0  0  0  0  0
   55.3020   22.0380   44.5610 O   0  0  0  0  0  0  0  0  0  0  0  0
   54.4530   24.0860   45.1240 N   0  0  0  0  0  0  0  0  0  0  0  0
   55.0530   25.1480   45.6880 C   0  0  0  0  0  0  0  0  0  0  0  0
   54.3980   26.3350   45.9920 O   0  0  0  0  0  0  0  0  0  0  0  0
   57.0050   27.8900   45.5760 C   0  0  0  0  0  0  0  0  0  0  0  0
   57.8000   28.9860   45.3050 C   0  0  0  0  0  0  0  0  0  0  0  0
   57.3120   30.2100   44.6200 C   0  0  0  0  0  0  0  0  0  0  0  0
   56.1430   30.6300   44.8270 O   0  0  0  0  0  0  0  0  0  0  0  0
   58.1790   30.9490   43.7460 N   0  0  0  0  0  0  0  0  0  0  0  0
   57.9230   32.3460   43.4040 C   0  0  0  0  0  0  0  0  0  0  0  0
   58.2540   33.2300   44.5760 C   0  0  0  0  0  0  0  0  0  0  0  0
   59.2950   34.1690   44.4760 C   0  0  0  0  0  0  0  0  0  0  0  0
   59.6430   34.9560   45.5780 C   0  0  0  0  0  0  0  0  0  0  0  0
   58.9620   34.8040   46.7900 C   0  0  0  0  0  0  0  0  0  0  0  0
   57.9320   33.8650   46.9000 C   0  0  0  0  0  0  0  0  0  0  0  0
   57.5790   33.0790   45.7990 C   0  0  0  0  0  0  0  0  0  0  0  0
   59.0850   28.7340   45.6790 N   0  0  0  0  0  0  0  0  0  0  0  0
   60.2310   29.6430   45.5110 C   0  0  0  0  0  0  0  0  0  0  0  0
   60.6990   30.1730   46.8370 C   0  0  0  0  0  0  0  0  0  0  0  0
   61.7900   30.8010   46.9070 O   0  0  0  0  0  0  0  0  0  0  0  0
   59.9000   30.0150   48.0130 N   0  0  0  0  0  0  0  0  0  0  0  0
   58.9070   31.0320   48.3540 C   0  0  0  0  0  0  0  0  0  0  0  0
   60.2870   29.0080   49.0000 C   0  0  0  0  0  0  0  0  0  0  0  0
  1  2  2  0
  2  3  1  0
  3  4  2  3
  4  5  1  0
  5  6  1  0
  6  7  1  0
  7  8  2  0
  7  9  1  0
  9 10  1  0
 10 11  1  0
  3 12  1  0
 12 13  2  0
 13 14  1  0
 14 15  2  0
 14 16  1  0
 16 17  1  0
 17 18  1  0
 18 19  2  0
 19 20  1  0
 20 21  2  0
 21 22  1  0
 22 23  2  0
 13 24  1  0
 24 25  1  0
 25 26  1  0
 26 27  2  0
 26 28  1  0
 28 29  1  0
 28 30  1  0
 24  2  1  0
 10  5  2  0
 23 18  1  0
M  CHG  3   6  -1   9  -1  11  -1
M  END
>  <UniqueID>  (3092) 
73

>  <SMILES>  (3092) 
C=c1c(=Cc2[n-]c(=O)[n-]c2[O-])cc(C(=O)NCc2ccccc2)n1CC(=O)N(C)C

>  <Energy>  (3092) 
122.77754410421838

>  <Genealogy>  (3092) 
C=c1c(=Cc2[n-]c(=O)[n-]c2[O-])cc(C(=O)NCc2ccccc2)n1CC(=O)N(C)C (protonated)
C=c1c(=Cc2[n-]c(=O)[n-]c2[O-])cc(C(=O)NCc2ccccc2)n1CC(=O)N(C)C (3D coordinates assigned)
C=c1c(=Cc2[n-]c(=O)[n-]c2[O-])cc(C(=O)NCc2ccccc2)n1CC(=O)N(C)C (optimized conformer: 122.77754410421838 kcal/mol)

>  <smiles>  (3092) 
C=c1c(=Cc2[nH]c(=O)[nH]c2O)cc(C(=O)NCc2ccccc2)n1CC(=O)N(C)C

>  <score_type>  (3092) 
oracle

>  <origin>  (3092) 
adg

>  <m_score__min__energy>  (3092) 
-17.199999999999999

>  <m_primary>  (3092) 
energy

$$$$
81:0
     RDKit          3D

 32 35  0  0  0  0  0  0  0  0999 V2000
   55.5670   28.8830   45.0150 O   0  0  0  0  0  0  0  0  0  0  0  0
   56.6760   28.3540   45.3040 C   0  0  0  0  0  0  0  0  0  0  0  0
   56.8090   26.8690   45.2830 C   0  0  0  0  0  0  0  0  0  0  0  0
   55.7790   26.2850   46.1380 N   0  0  0  0  0  0  0  0  0  0  0  0
   56.2650   24.6970   46.6460 S   0  0  0  0  0  0  0  0  0  0  0  0
   55.1680   24.0870   47.4740 O   0  0  0  0  0  0  0  0  0  0  0  0
   57.5110   24.7990   47.4830 O   0  0  0  0  0  0  0  0  0  0  0  0
   56.5590   23.6760   45.2420 C   0  0  0  0  0  0  0  0  0  0  0  0
   57.6170   22.7560   45.2380 C   0  0  0  0  0  0  0  0  0  0  0  0
   57.8450   21.9510   44.1170 C   0  0  0  0  0  0  0  0  0  0  0  0
   57.0140   22.0610   42.9970 C   0  0  0  0  0  0  0  0  0  0  0  0
   55.9550   22.9730   42.9980 C   0  0  0  0  0  0  0  0  0  0  0  0
   55.7250   23.7780   44.1190 C   0  0  0  0  0  0  0  0  0  0  0  0
   57.8310   29.1550   45.6050 N   0  0  0  0  0  0  0  0  0  0  0  0
   58.4370   29.2530   46.7520 C   0  0  0  0  0  0  0  0  0  0  0  0
   59.0120   28.1110   47.3220 C   0  0  0  0  0  0  0  0  0  0  0  0
   59.6750   28.2130   48.5470 C   0  0  0  0  0  0  0  0  0  0  0  0
   59.7520   29.4450   49.1950 C   0  0  0  0  0  0  0  0  0  0  0  0
   59.1460   30.5660   48.6130 C   0  0  0  0  0  0  0  0  0  0  0  0
   59.2390   31.8880   49.2490 C   0  0  0  0  0  0  0  0  0  0  0  0
   58.9150   31.9670   50.4640 O   0  0  0  0  0  0  0  0  0  0  0  0
   59.6650   33.0730   48.5230 N   0  0  0  0  0  0  0  0  0  0  0  0
   60.9060   33.7830   48.8560 C   0  0  0  0  0  0  0  0  0  0  0  0
   61.8860   33.6170   47.6970 C   0  0  0  0  0  0  0  0  0  0  0  0
   61.3090   34.2290   46.4090 C   0  0  0  0  0  0  0  0  0  0  0  0
   59.8280   33.9680   46.2240 C   0  0  0  0  0  0  0  0  0  0  0  0
   59.2220   34.3350   45.0130 C   0  0  0  0  0  0  0  0  0  0  0  0
   57.8400   34.2230   44.8500 C   0  0  0  0  0  0  0  0  0  0  0  0
   57.0470   33.7720   45.9050 C   0  0  0  0  0  0  0  0  0  0  0  0
   57.6330   33.4060   47.1190 C   0  0  0  0  0  0  0  0  0  0  0  0
   59.0310   33.4660   47.2830 C   0  0  0  0  0  0  0  0  0  0  0  0
   58.5240   30.4450   47.4100 N   0  0  0  0  0  0  0  0  0  0  0  0
  1  2  2  0
  2  3  1  0
  3  4  1  0
  4  5  1  0
  5  6  2  0
  5  7  2  0
  5  8  1  0
  8  9  2  0
  9 10  1  0
 10 11  2  0
 11 12  1  0
 12 13  2  0
  2 14  1  0
 14 15  2  3
 15 16  1  0
 16 17  2  0
 17 18  1  0
 18 19  2  0
 19 20  1  0
 20 21  2  0
 20 22  1  0
 22 23  1  0
 23 24  1  0
 24 25  1  0
 25 26  1  0
 26 27  2  0
 27 28  1  0
 28 29  2  0
 29 30  1  0
 30 31  2  0
 19 32  1  0
 13  8  1  0
 32 15  1  0
 31 22  1  0
 31 26  1  0
M  CHG  2   4  -1  32  -1
M  END
>  <UniqueID>  (3093) 
77

>  <SMILES>  (3093) 
O=C(C[N-]S(=O)(=O)c1ccccc1)N=c1cccc(C(=O)N2CCCc3ccccc32)[n-]1

>  <Energy>  (3093) 
70.70758417473053

>  <Genealogy>  (3093) 
O=C(C[N-]S(=O)(=O)c1ccccc1)N=c1cccc(C(=O)N2CCCc3ccccc32)[n-]1 (protonated)
O=C(C[N-]S(=O)(=O)c1ccccc1)N=c1cccc(C(=O)N2CCCc3ccccc32)[n-]1 (3D coordinates assigned)
O=C(C[N-]S(=O)(=O)c1ccccc1)N=c1cccc(C(=O)N2CCCc3ccccc32)[n-]1 (nonaromatic ring conformer: 70.70758417473053 kcal/mol)

>  <smiles>  (3093) 
O=C(CNS(=O)(=O)c1ccccc1)N=c1cccc(C(=O)N2CCCc3ccccc32)[nH]1

>  <score_type>  (3093) 
oracle

>  <origin>  (3093) 
adg

>  <m_score__min__energy>  (3093) 
-14.15

>  <m_primary>  (3093) 
energy

$$$$
83:0
     RDKit          3D

 26 28  0  0  0  0  0  0  0  0999 V2000
   59.5620   29.1120   45.0390 O   0  0  0  0  0  0  0  0  0  0  0  0
   58.4070   29.2000   45.5400 C   0  0  0  0  0  0  0  0  0  0  0  0
   57.7780   30.4880   45.6550 N   0  0  0  0  0  0  0  0  0  0  0  0
   58.5010   31.7300   45.6830 C   0  0  0  0  0  0  0  0  0  0  0  0
   57.9350   32.8710   45.0940 C   0  0  0  0  0  0  0  0  0  0  0  0
   58.6080   34.0950   45.1320 C   0  0  0  0  0  0  0  0  0  0  0  0
   59.8470   34.1940   45.7690 C   0  0  0  0  0  0  0  0  0  0  0  0
   60.4190   33.0690   46.3740 C   0  0  0  0  0  0  0  0  0  0  0  0
   61.9640   33.2200   47.2070 S   0  0  0  0  0  0  0  0  0  0  0  0
   62.8060   34.2260   46.4710 O   0  0  0  0  0  0  0  0  0  0  0  0
   62.6800   31.8970   47.1960 O   0  0  0  0  0  0  0  0  0  0  0  0
   61.6800   33.7550   48.8500 N   0  0  0  0  0  0  0  0  0  0  0  0
   60.2870   34.2160   49.0480 C   0  0  0  0  0  0  0  0  0  0  0  0
   59.3950   33.1500   49.7100 C   0  0  0  0  0  0  0  0  0  0  0  0
   59.8070   31.8590   49.3230 O   0  0  0  0  0  0  0  0  0  0  0  0
   61.0690   31.5550   49.8920 C   0  0  0  0  0  0  0  0  0  0  0  0
   62.0740   32.7310   49.8320 C   0  0  0  0  0  0  0  0  0  0  0  0
   59.7420   31.8410   46.3400 C   0  0  0  0  0  0  0  0  0  0  0  0
   57.6970   27.9670   45.9560 C   0  0  0  0  0  0  0  0  0  0  0  0
   56.3600   27.7400   45.5830 C   0  0  0  0  0  0  0  0  0  0  0  0
   55.7140   26.5730   45.9970 C   0  0  0  0  0  0  0  0  0  0  0  0
   54.3940   26.3410   45.6330 O   0  0  0  0  0  0  0  0  0  0  0  0
   56.3730   25.6610   46.7600 N   0  0  0  0  0  0  0  0  0  0  0  0
   57.6620   25.8530   47.1450 C   0  0  0  0  0  0  0  0  0  0  0  0
   58.2380   24.9870   47.8540 O   0  0  0  0  0  0  0  0  0  0  0  0
   58.3460   27.0090   46.7550 C   0  0  0  0  0  0  0  0  0  0  0  0
  1  2  2  0
  2  3  1  0
  3  4  1  0
  4  5  2  0
  5  6  1  0
  6  7  2  0
  7  8  1  0
  8  9  1  0
  9 10  2  0
  9 11  2  0
  9 12  1  0
 12 13  1  0
 13 14  1  0
 14 15  1  0
 15 16  1  0
 16 17  1  0
  8 18  2  0
  2 19  1  0
 19 20  1  0
 20 21  2  0
 21 22  1  0
 21 23  1  0
 23 24  1  0
 24 25  2  0
 24 26  1  0
 18  4  1  0
 26 19  2  0
 17 12  1  0
M  CHG  2  22  -1  23  -1
M  END
>  <UniqueID>  (3094) 
79

>  <SMILES>  (3094) 
O=C(Nc1cccc(S(=O)(=O)N2CCOCC2)c1)c1cc([O-])[n-]c(=O)c1

>  <Energy>  (3094) 
59.894924089906496

>  <Genealogy>  (3094) 
O=C(Nc1cccc(S(=O)(=O)N2CCOCC2)c1)c1cc([O-])[n-]c(=O)c1 (protonated)
O=C(Nc1cccc(S(=O)(=O)N2CCOCC2)c1)c1cc([O-])[n-]c(=O)c1 (3D coordinates assigned)
O=C(Nc1cccc(S(=O)(=O)N2CCOCC2)c1)c1cc([O-])[n-]c(=O)c1 (nonaromatic ring conformer: 59.894924089906496 kcal/mol)

>  <smiles>  (3094) 
O=C(Nc1cccc(S(=O)(=O)N2CCOCC2)c1)c1cc(O)[nH]c(=O)c1

>  <score_type>  (3094) 
oracle

>  <origin>  (3094) 
adg

>  <m_score__min__energy>  (3094) 
-14.25

>  <m_primary>  (3094) 
energy

$$$$
0:0
     RDKit          3D

 28 31  0  0  0  0  0  0  0  0999 V2000
   56.0740   30.4640   55.2620 C   0  0  0  0  0  0  0  0  0  0  0  0
   55.5690   30.4010   54.0260 C   0  0  0  0  0  0  0  0  0  0  0  0
   56.2730   30.2250   52.8320 C   0  0  0  0  0  0  0  0  0  0  0  0
   57.7360   29.9600   52.6680 C   0  0  0  0  0  0  0  0  0  0  0  0
   58.2420   28.9830   53.2950 O   0  0  0  0  0  0  0  0  0  0  0  0
   58.5820   30.6960   51.7460 N   0  0  0  0  0  0  0  0  0  0  0  0
   58.0110   32.0110   51.3310 C   0  0  0  0  0  0  0  0  0  0  0  0
   58.1810   32.3210   49.8320 C   0  0  0  0  0  0  0  0  0  0  0  0
   59.4960   31.8730   49.3600 N   0  0  0  0  0  0  0  0  0  0  0  0
   60.3100   32.7260   48.5510 C   0  0  0  0  0  0  0  0  0  0  0  0
   61.3850   33.1850   49.0260 O   0  0  0  0  0  0  0  0  0  0  0  0
   59.8820   33.1340   47.1600 C   0  0  0  0  0  0  0  0  0  0  0  0
   58.7650   34.1860   47.1700 C   0  0  0  0  0  0  0  0  0  0  0  0
   59.6680   35.1560   46.4240 C   0  0  0  0  0  0  0  0  0  0  0  0
   60.8000   34.1320   46.4460 C   0  0  0  0  0  0  0  0  0  0  0  0
   60.0050   30.5520   49.7350 C   0  0  0  0  0  0  0  0  0  0  0  0
   58.9970   29.8250   50.6310 C   0  0  0  0  0  0  0  0  0  0  0  0
   55.3230   30.3120   51.8210 C   0  0  0  0  0  0  0  0  0  0  0  0
   54.1020   30.5200   52.4330 C   0  0  0  0  0  0  0  0  0  0  0  0
   52.9430   30.7040   51.7770 C   0  0  0  0  0  0  0  0  0  0  0  0
   51.8450   31.5410   52.2810 C   0  0  0  0  0  0  0  0  0  0  0  0
   51.5510   31.6670   53.5870 N   0  0  0  0  0  0  0  0  0  0  0  0
   50.5320   32.5500   53.5930 C   0  0  0  0  0  0  0  0  0  0  0  0
   49.9740   32.9290   54.6580 O   0  0  0  0  0  0  0  0  0  0  0  0
   50.1670   33.0030   52.3720 N   0  0  0  0  0  0  0  0  0  0  0  0
   51.0170   32.3650   51.5560 C   0  0  0  0  0  0  0  0  0  0  0  0
   51.0720   32.5820   50.1890 O   0  0  0  0  0  0  0  0  0  0  0  0
   54.2560   30.5710   53.7740 N   0  0  0  0  0  0  0  0  0  0  0  0
  1  2  2  0
  2  3  1  0
  3  4  1  0
  4  5  2  0
  4  6  1  0
  6  7  1  0
  7  8  1  0
  8  9  1  0
  9 10  1  0
 10 11  2  0
 10 12  1  0
 12 13  1  0
 13 14  1  0
 14 15  1  0
  9 16  1  0
 16 17  1  0
  3 18  2  0
 18 19  1  0
 19 20  2  0
 20 21  1  0
 21 22  1  0
 22 23  1  0
 23 24  2  0
 23 25  1  0
 25 26  1  0
 26 27  1  0
 19 28  1  0
 28  2  1  0
 17  6  1  0
 26 21  2  0
 15 12  1  0
M  CHG  4   6   1  22  -1  25  -1  27  -1
M  END
>  <UniqueID>  (3095) 
1

>  <SMILES>  (3095) 
C=c1[nH]/c(=C\c2[n-]c(=O)[n-]c2[O-])cc1C(=O)[NH+]1CCN(C(=O)C2CCC2)CC1

>  <Energy>  (3095) 
190.85117983788047

>  <Genealogy>  (3095) 
C=c1[nH]c(=Cc2[n-]c(=O)[n-]c2[O-])cc1C(=O)[NH+]1CCN(C(=O)C2CCC2)CC1 (protonated)
C=c1[nH]/c(=C\c2[n-]c(=O)[n-]c2[O-])cc1C(=O)[NH+]1CCN(C(=O)C2CCC2)CC1 (cis-trans isomerization)
C=c1[nH]/c(=C\c2[n-]c(=O)[n-]c2[O-])cc1C(=O)[NH+]1CCN(C(=O)C2CCC2)CC1 (3D coordinates assigned)
C=c1[nH]/c(=C\c2[n-]c(=O)[n-]c2[O-])cc1C(=O)[NH+]1CCN(C(=O)C2CCC2)CC1 (nonaromatic ring conformer: 190.85117983788047 kcal/mol)

>  <smiles>  (3095) 
C=c1[nH]c(=Cc2[nH]c(=O)[nH]c2O)cc1C(=O)N1CCN(C(=O)C2CCC2)CC1

>  <score_type>  (3095) 
oracle

>  <origin>  (3095) 
adg

>  <m_score__min__energy>  (3095) 
-16.68

>  <m_primary>  (3095) 
energy

$$$$
16:0
     RDKit          3D

 31 34  0  0  0  0  0  0  0  0999 V2000
   52.9970   28.5500   54.1510 C   0  0  0  0  0  0  0  0  0  0  0  0
   53.9860   29.1450   53.4640 C   0  0  0  0  0  0  0  0  0  0  0  0
   53.9470   30.4080   52.8520 C   0  0  0  0  0  0  0  0  0  0  0  0
   52.9170   31.2400   52.6030 C   0  0  0  0  0  0  0  0  0  0  0  0
   52.1110   31.2580   51.3720 C   0  0  0  0  0  0  0  0  0  0  0  0
   52.1820   30.3350   50.3960 N   0  0  0  0  0  0  0  0  0  0  0  0
   51.3760   30.8350   49.4340 C   0  0  0  0  0  0  0  0  0  0  0  0
   51.1670   30.2390   48.3460 O   0  0  0  0  0  0  0  0  0  0  0  0
   50.8210   32.0310   49.7270 N   0  0  0  0  0  0  0  0  0  0  0  0
   51.3070   32.2900   50.9510 C   0  0  0  0  0  0  0  0  0  0  0  0
   51.0270   33.4470   51.6670 O   0  0  0  0  0  0  0  0  0  0  0  0
   55.2500   30.6970   52.4840 C   0  0  0  0  0  0  0  0  0  0  0  0
   56.0110   29.5930   52.7990 C   0  0  0  0  0  0  0  0  0  0  0  0
   57.4520   29.4790   52.5070 C   0  0  0  0  0  0  0  0  0  0  0  0
   58.1870   28.8470   53.3140 O   0  0  0  0  0  0  0  0  0  0  0  0
   58.0370   30.0960   51.3440 N   0  0  0  0  0  0  0  0  0  0  0  0
   59.2330   29.4870   50.7430 C   0  0  0  0  0  0  0  0  0  0  0  0
   59.5850   30.1420   49.4050 C   0  0  0  0  0  0  0  0  0  0  0  0
   59.5830   31.6020   49.5460 N   0  0  0  0  0  0  0  0  0  0  0  0
   60.6070   32.3880   48.9160 C   0  0  0  0  0  0  0  0  0  0  0  0
   61.9180   32.3260   49.4120 C   0  0  0  0  0  0  0  0  0  0  0  0
   62.9410   33.0620   48.8080 C   0  0  0  0  0  0  0  0  0  0  0  0
   64.5780   32.9680   49.4330 Cl  0  0  0  0  0  0  0  0  0  0  0  0
   62.6610   33.8650   47.7000 C   0  0  0  0  0  0  0  0  0  0  0  0
   61.3570   33.9420   47.2010 C   0  0  0  0  0  0  0  0  0  0  0  0
   60.3170   33.2210   47.8110 C   0  0  0  0  0  0  0  0  0  0  0  0
   58.9220   33.3300   47.2590 C   0  0  0  0  0  0  0  0  0  0  0  0
   58.5340   32.2810   50.3140 C   0  0  0  0  0  0  0  0  0  0  0  0
   57.4380   31.3030   50.7530 C   0  0  0  0  0  0  0  0  0  0  0  0
   55.2490   28.6490   53.4020 N   0  0  0  0  0  0  0  0  0  0  0  0
   55.7280   27.4140   54.0370 C   0  0  0  0  0  0  0  0  0  0  0  0
  1  2  2  0
  2  3  1  0
  3  4  2  3
  4  5  1  0
  5  6  1  0
  6  7  1  0
  7  8  2  0
  7  9  1  0
  9 10  1  0
 10 11  1  0
  3 12  1  0
 12 13  2  0
 13 14  1  0
 14 15  2  0
 14 16  1  0
 16 17  1  0
 17 18  1  0
 18 19  1  0
 19 20  1  0
 20 21  2  0
 21 22  1  0
 22 23  1  0
 22 24  2  0
 24 25  1  0
 25 26  2  0
 26 27  1  0
 19 28  1  0
 28 29  1  0
 13 30  1  0
 30 31  1  0
 30  2  1  0
 10  5  2  0
 29 16  1  0
 26 20  1  0
M  CHG  3   6  -1   9  -1  11  -1
M  END
>  <UniqueID>  (3096) 
15

>  <SMILES>  (3096) 
C=c1c(=Cc2[n-]c(=O)[n-]c2[O-])cc(C(=O)N2CCN(c3cc(Cl)ccc3C)CC2)n1C

>  <Energy>  (3096) 
134.321631680866

>  <Genealogy>  (3096) 
C=c1c(=Cc2[n-]c(=O)[n-]c2[O-])cc(C(=O)N2CCN(c3cc(Cl)ccc3C)CC2)n1C (protonated)
C=c1c(=Cc2[n-]c(=O)[n-]c2[O-])cc(C(=O)N2CCN(c3cc(Cl)ccc3C)CC2)n1C (3D coordinates assigned)
C=c1c(=Cc2[n-]c(=O)[n-]c2[O-])cc(C(=O)N2CCN(c3cc(Cl)ccc3C)CC2)n1C (nonaromatic ring conformer: 134.321631680866 kcal/mol)

>  <smiles>  (3096) 
C=c1c(=Cc2[nH]c(=O)[nH]c2O)cc(C(=O)N2CCN(c3cc(Cl)ccc3C)CC2)n1C

>  <score_type>  (3096) 
oracle

>  <origin>  (3096) 
adg

>  <m_score__min__energy>  (3096) 
-17.949999999999999

>  <m_primary>  (3096) 
energy

$$$$
22:0
     RDKit          3D

 39 43  0  0  0  0  0  0  0  0999 V2000
   57.7640   28.7320   43.6700 C   0  0  0  0  0  0  0  0  0  0  0  0
   57.9460   29.4670   44.7790 C   0  0  0  0  0  0  0  0  0  0  0  0
   58.2470   28.9930   46.0670 C   0  0  0  0  0  0  0  0  0  0  0  0
   58.2170   27.7500   46.5830 C   0  0  0  0  0  0  0  0  0  0  0  0
   57.0590   26.8400   46.5700 C   0  0  0  0  0  0  0  0  0  0  0  0
   57.0800   25.5640   47.0010 N   0  0  0  0  0  0  0  0  0  0  0  0
   55.8840   25.0800   46.6060 C   0  0  0  0  0  0  0  0  0  0  0  0
   55.5200   23.8980   46.8440 O   0  0  0  0  0  0  0  0  0  0  0  0
   55.1180   25.9550   45.9200 N   0  0  0  0  0  0  0  0  0  0  0  0
   55.8840   27.0580   45.8940 C   0  0  0  0  0  0  0  0  0  0  0  0
   55.5210   28.2380   45.2550 O   0  0  0  0  0  0  0  0  0  0  0  0
   58.5840   30.1050   46.8190 C   0  0  0  0  0  0  0  0  0  0  0  0
   58.4180   31.2040   46.0030 C   0  0  0  0  0  0  0  0  0  0  0  0
   58.6130   32.5980   46.4370 C   0  0  0  0  0  0  0  0  0  0  0  0
   57.5940   33.2770   46.7410 O   0  0  0  0  0  0  0  0  0  0  0  0
   59.9340   33.1830   46.5260 N   0  0  0  0  0  0  0  0  0  0  0  0
   61.1130   32.3350   46.7450 C   0  0  0  0  0  0  0  0  0  0  0  0
   61.4500   32.3030   48.2490 C   0  0  0  0  0  0  0  0  0  0  0  0
   60.5770   33.2260   49.0140 N   0  0  0  0  0  0  0  0  0  0  0  0
   60.9160   33.2210   50.4500 C   0  0  0  0  0  0  0  0  0  0  0  0
   62.3380   32.7600   50.6170 C   0  0  0  0  0  0  0  0  0  0  0  0
   63.4130   33.5890   50.2600 C   0  0  0  0  0  0  0  0  0  0  0  0
   64.7250   33.1110   50.3360 C   0  0  0  0  0  0  0  0  0  0  0  0
   64.9740   31.8060   50.7690 C   0  0  0  0  0  0  0  0  0  0  0  0
   63.9100   30.9690   51.1450 C   0  0  0  0  0  0  0  0  0  0  0  0
   64.1670   29.5780   51.5680 C   0  0  0  0  0  0  0  0  0  0  0  0
   63.2080   28.7550   51.5880 O   0  0  0  0  0  0  0  0  0  0  0  0
   65.4840   29.1440   51.9660 N   0  0  0  0  0  0  0  0  0  0  0  0
   66.6700   29.6030   51.2310 C   0  0  0  0  0  0  0  0  0  0  0  0
   67.8780   28.7010   51.5250 C   0  0  0  0  0  0  0  0  0  0  0  0
   67.5030   27.2700   51.5370 N   0  0  0  0  0  0  0  0  0  0  0  0
   67.1620   26.7820   50.1890 C   0  0  0  0  0  0  0  0  0  0  0  0
   66.4440   26.9390   52.5290 C   0  0  0  0  0  0  0  0  0  0  0  0
   65.6530   28.1600   53.0370 C   0  0  0  0  0  0  0  0  0  0  0  0
   62.5940   31.4500   51.0510 C   0  0  0  0  0  0  0  0  0  0  0  0
   60.6110   34.5860   48.4390 C   0  0  0  0  0  0  0  0  0  0  0  0
   60.1010   34.5700   46.9800 C   0  0  0  0  0  0  0  0  0  0  0  0
   58.0140   30.8230   44.7690 N   0  0  0  0  0  0  0  0  0  0  0  0
   57.7560   31.7130   43.6290 C   0  0  0  0  0  0  0  0  0  0  0  0
  1  2  2  0
  2  3  1  0
  3  4  2  0
  4  5  1  0
  5  6  1  0
  6  7  1  0
  7  8  2  0
  7  9  1  0
  9 10  1  0
 10 11  1  0
  3 12  1  0
 12 13  2  0
 13 14  1  0
 14 15  2  0
 14 16  1  0
 16 17  1  0
 17 18  1  0
 18 19  1  0
 19 20  1  0
 20 21  1  0
 21 22  2  0
 22 23  1  0
 23 24  2  0
 24 25  1  0
 25 26  1  0
 26 27  2  0
 26 28  1  0
 28 29  1  0
 29 30  1  0
 30 31  1  0
 31 32  1  0
 31 33  1  0
 33 34  1  0
 25 35  2  0
 19 36  1  0
 36 37  1  0
 13 38  1  0
 38 39  1  0
 38  2  1  0
 10  5  2  0
 37 16  1  0
 35 21  1  0
 34 28  1  0
M  CHG  3   6  -1   9  -1  11  -1
M  END
>  <UniqueID>  (3097) 
21

>  <SMILES>  (3097) 
C=c1/c(=C\c2[n-]c(=O)[n-]c2[O-])cc(C(=O)N2CCN(Cc3cccc(C(=O)N4CCN(C)CC4)c3)CC2)n1C

>  <Energy>  (3097) 
170.24600757993298

>  <Genealogy>  (3097) 
C=c1c(=Cc2[n-]c(=O)[n-]c2[O-])cc(C(=O)N2CCN(Cc3cccc(C(=O)N4CCN(C)CC4)c3)CC2)n1C (protonated)
C=c1/c(=C\c2[n-]c(=O)[n-]c2[O-])cc(C(=O)N2CCN(Cc3cccc(C(=O)N4CCN(C)CC4)c3)CC2)n1C (cis-trans isomerization)
C=c1/c(=C\c2[n-]c(=O)[n-]c2[O-])cc(C(=O)N2CCN(Cc3cccc(C(=O)N4CCN(C)CC4)c3)CC2)n1C (3D coordinates assigned)
C=c1/c(=C\c2[n-]c(=O)[n-]c2[O-])cc(C(=O)N2CCN(Cc3cccc(C(=O)N4CCN(C)CC4)c3)CC2)n1C (nonaromatic ring conformer: 170.24600757993298 kcal/mol)

>  <smiles>  (3097) 
C=c1c(=Cc2[nH]c(=O)[nH]c2O)cc(C(=O)N2CCN(Cc3cccc(C(=O)N4CCN(C)CC4)c3)CC2)n1C

>  <score_type>  (3097) 
oracle

>  <origin>  (3097) 
adg

>  <m_score__min__energy>  (3097) 
-17.84

>  <m_primary>  (3097) 
energy

$$$$
32:0
     RDKit          3D

 25 27  0  0  0  0  0  0  0  0999 V2000
   61.2420   30.4710   47.5910 C   0  0  0  0  0  0  0  0  0  0  0  0
   60.2210   29.6030   47.5940 C   0  0  0  0  0  0  0  0  0  0  0  0
   59.9010   28.7750   48.6580 C   0  0  0  0  0  0  0  0  0  0  0  0
   60.5980   28.6760   49.9810 C   0  0  0  0  0  0  0  0  0  0  0  0
   58.8870   27.9490   48.2300 C   0  0  0  0  0  0  0  0  0  0  0  0
   58.6030   28.3100   46.9190 C   0  0  0  0  0  0  0  0  0  0  0  0
   57.7410   27.6550   46.1130 C   0  0  0  0  0  0  0  0  0  0  0  0
   57.2300   26.2950   46.3740 C   0  0  0  0  0  0  0  0  0  0  0  0
   55.9100   25.9090   46.3610 C   0  0  0  0  0  0  0  0  0  0  0  0
   54.8340   26.7140   46.0070 O   0  0  0  0  0  0  0  0  0  0  0  0
   55.7870   24.6260   46.7500 N   0  0  0  0  0  0  0  0  0  0  0  0
   57.0630   24.2700   47.0120 C   0  0  0  0  0  0  0  0  0  0  0  0
   57.3810   23.1250   47.4280 O   0  0  0  0  0  0  0  0  0  0  0  0
   57.9610   25.2530   46.8070 N   0  0  0  0  0  0  0  0  0  0  0  0
   59.3970   29.3550   46.5390 N   0  0  0  0  0  0  0  0  0  0  0  0
   59.3800   30.0830   45.2510 C   0  0  0  0  0  0  0  0  0  0  0  0
   58.7640   31.4660   45.3890 C   0  0  0  0  0  0  0  0  0  0  0  0
   59.5380   32.4910   45.9680 C   0  0  0  0  0  0  0  0  0  0  0  0
   58.9910   33.7530   46.2040 C   0  0  0  0  0  0  0  0  0  0  0  0
   57.6680   34.0170   45.8580 C   0  0  0  0  0  0  0  0  0  0  0  0
   56.8940   33.0280   45.2500 C   0  0  0  0  0  0  0  0  0  0  0  0
   57.4340   31.7580   44.9830 C   0  0  0  0  0  0  0  0  0  0  0  0
   56.5970   30.7890   44.2500 C   0  0  0  0  0  0  0  0  0  0  0  0
   55.7660   30.0730   44.8690 O   0  0  0  0  0  0  0  0  0  0  0  0
   56.6620   30.7090   42.8650 O   0  0  0  0  0  0  0  0  0  0  0  0
  1  2  2  0
  2  3  1  0
  3  4  1  0
  3  5  2  0
  5  6  1  0
  6  7  2  0
  7  8  1  0
  8  9  2  0
  9 10  1  0
  9 11  1  0
 11 12  1  0
 12 13  2  0
 12 14  1  0
  6 15  1  0
 15 16  1  0
 16 17  1  0
 17 18  2  0
 18 19  1  0
 19 20  2  0
 20 21  1  0
 21 22  2  0
 22 23  1  0
 23 24  2  0
 23 25  1  0
 15  2  1  0
 22 17  1  0
 14  8  1  0
M  CHG  3  10  -1  11  -1  25  -1
M  END
>  <UniqueID>  (3098) 
31

>  <SMILES>  (3098) 
C=c1c(C)c/c(=C\c2[nH]c(=O)[n-]c2[O-])n1Cc1ccccc1C(=O)[O-]

>  <Energy>  (3098) 
114.54504807741608

>  <Genealogy>  (3098) 
C=c1c(C)cc(=Cc2[nH]c(=O)[n-]c2[O-])n1Cc1ccccc1C(=O)[O-] (protonated)
C=c1c(C)c/c(=C\c2[nH]c(=O)[n-]c2[O-])n1Cc1ccccc1C(=O)[O-] (cis-trans isomerization)
C=c1c(C)c/c(=C\c2[nH]c(=O)[n-]c2[O-])n1Cc1ccccc1C(=O)[O-] (3D coordinates assigned)
C=c1c(C)c/c(=C\c2[nH]c(=O)[n-]c2[O-])n1Cc1ccccc1C(=O)[O-] (optimized conformer: 114.54504807741608 kcal/mol)

>  <smiles>  (3098) 
C=c1c(C)cc(=Cc2[nH]c(=O)[nH]c2O)n1Cc1ccccc1C(=O)O

>  <score_type>  (3098) 
oracle

>  <origin>  (3098) 
adg

>  <m_score__min__energy>  (3098) 
-15.65

>  <m_primary>  (3098) 
energy

$$$$
47:0
     RDKit          3D

 28 31  0  0  0  0  0  0  0  0999 V2000
   56.1970   29.9600   55.0070 C   0  0  0  0  0  0  0  0  0  0  0  0
   55.7270   30.2180   53.7840 C   0  0  0  0  0  0  0  0  0  0  0  0
   54.4140   30.3550   53.5130 N   0  0  0  0  0  0  0  0  0  0  0  0
   54.3190   30.6830   52.2050 C   0  0  0  0  0  0  0  0  0  0  0  0
   53.1750   30.8870   51.5360 C   0  0  0  0  0  0  0  0  0  0  0  0
   52.0220   31.6270   52.0780 C   0  0  0  0  0  0  0  0  0  0  0  0
   51.6740   31.6010   53.3760 N   0  0  0  0  0  0  0  0  0  0  0  0
   50.5350   32.3270   53.4100 C   0  0  0  0  0  0  0  0  0  0  0  0
   49.9020   32.5450   54.4760 O   0  0  0  0  0  0  0  0  0  0  0  0
   50.1230   32.7920   52.2120 N   0  0  0  0  0  0  0  0  0  0  0  0
   51.0670   32.3290   51.3760 C   0  0  0  0  0  0  0  0  0  0  0  0
   51.0280   32.5060   49.9990 O   0  0  0  0  0  0  0  0  0  0  0  0
   55.5780   30.7390   51.6300 C   0  0  0  0  0  0  0  0  0  0  0  0
   56.4770   30.4320   52.6330 C   0  0  0  0  0  0  0  0  0  0  0  0
   57.9430   30.3830   52.4690 C   0  0  0  0  0  0  0  0  0  0  0  0
   58.6100   29.5810   53.1780 O   0  0  0  0  0  0  0  0  0  0  0  0
   58.6220   31.2520   51.5470 N   0  0  0  0  0  0  0  0  0  0  0  0
   58.2530   32.6770   51.4960 C   0  0  0  0  0  0  0  0  0  0  0  0
   59.2410   33.4790   50.6470 C   0  0  0  0  0  0  0  0  0  0  0  0
   59.5040   32.7600   49.3930 N   0  0  0  0  0  0  0  0  0  0  0  0
   59.4420   33.4250   48.1170 C   0  0  0  0  0  0  0  0  0  0  0  0
   58.2550   33.4510   47.3650 C   0  0  0  0  0  0  0  0  0  0  0  0
   58.2410   34.0870   46.1220 C   0  0  0  0  0  0  0  0  0  0  0  0
   59.4050   34.6810   45.6320 C   0  0  0  0  0  0  0  0  0  0  0  0
   60.5730   34.6230   46.3940 C   0  0  0  0  0  0  0  0  0  0  0  0
   60.5670   33.9990   47.6020 N   0  0  0  0  0  0  0  0  0  0  0  0
   59.8950   31.3430   49.4380 C   0  0  0  0  0  0  0  0  0  0  0  0
   59.8320   30.7780   50.8640 C   0  0  0  0  0  0  0  0  0  0  0  0
  1  2  2  0
  2  3  1  0
  3  4  1  0
  4  5  2  3
  5  6  1  0
  6  7  1  0
  7  8  1  0
  8  9  2  0
  8 10  1  0
 10 11  1  0
 11 12  1  0
  4 13  1  0
 13 14  2  0
 14 15  1  0
 15 16  2  0
 15 17  1  0
 17 18  1  0
 18 19  1  0
 19 20  1  0
 20 21  1  0
 21 22  2  0
 22 23  1  0
 23 24  2  0
 24 25  1  0
 25 26  2  0
 20 27  1  0
 27 28  1  0
 14  2  1  0
 28 17  1  0
 11  6  2  0
 26 21  1  0
M  CHG  3   7  -1  10  -1  12  -1
M  END
>  <UniqueID>  (3099) 
44

>  <SMILES>  (3099) 
C=c1[nH]c(=Cc2[n-]c(=O)[n-]c2[O-])cc1C(=O)N1CCN(c2ccccn2)CC1

>  <Energy>  (3099) 
119.17128656755666

>  <Genealogy>  (3099) 
C=c1[nH]c(=Cc2[n-]c(=O)[n-]c2[O-])cc1C(=O)N1CCN(c2ccccn2)CC1 (protonated)
C=c1[nH]c(=Cc2[n-]c(=O)[n-]c2[O-])cc1C(=O)N1CCN(c2ccccn2)CC1 (3D coordinates assigned)
C=c1[nH]c(=Cc2[n-]c(=O)[n-]c2[O-])cc1C(=O)N1CCN(c2ccccn2)CC1 (nonaromatic ring conformer: 119.17128656755666 kcal/mol)

>  <smiles>  (3099) 
C=c1[nH]c(=Cc2[nH]c(=O)[nH]c2O)cc1C(=O)N1CCN(c2ccccn2)CC1

>  <score_type>  (3099) 
oracle

>  <origin>  (3099) 
adg

>  <m_score__min__energy>  (3099) 
-17.649999999999999

>  <m_primary>  (3099) 
energy

$$$$
49:0
     RDKit          3D

 24 26  0  0  0  0  0  0  0  0999 V2000
   53.8370   28.5930   54.1170 C   0  0  0  0  0  0  0  0  0  0  0  0
   54.4710   29.3870   53.2370 C   0  0  0  0  0  0  0  0  0  0  0  0
   53.8680   30.2880   52.3490 C   0  0  0  0  0  0  0  0  0  0  0  0
   52.5450   30.5270   52.2090 C   0  0  0  0  0  0  0  0  0  0  0  0
   51.8630   30.8870   50.9460 C   0  0  0  0  0  0  0  0  0  0  0  0
   51.7660   30.1110   49.8510 N   0  0  0  0  0  0  0  0  0  0  0  0
   51.0240   30.8540   49.0010 C   0  0  0  0  0  0  0  0  0  0  0  0
   50.7170   30.4600   47.8470 O   0  0  0  0  0  0  0  0  0  0  0  0
   50.6340   32.0510   49.4880 N   0  0  0  0  0  0  0  0  0  0  0  0
   51.1690   32.0530   50.7200 C   0  0  0  0  0  0  0  0  0  0  0  0
   51.0260   33.1010   51.6210 O   0  0  0  0  0  0  0  0  0  0  0  0
   54.9100   30.9040   51.6660 C   0  0  0  0  0  0  0  0  0  0  0  0
   56.0840   30.3730   52.1600 C   0  0  0  0  0  0  0  0  0  0  0  0
   57.4240   30.8160   51.7290 C   0  0  0  0  0  0  0  0  0  0  0  0
   58.0900   31.5760   52.4830 O   0  0  0  0  0  0  0  0  0  0  0  0
   57.9960   30.3430   50.5000 N   0  0  0  0  0  0  0  0  0  0  0  0
   59.2830   30.8180   50.0040 C   0  0  0  0  0  0  0  0  0  0  0  0
   59.5580   30.2420   48.6510 C   0  0  0  0  0  0  0  0  0  0  0  0
   60.6370   30.5440   47.8460 C   0  0  0  0  0  0  0  0  0  0  0  0
   60.4840   29.7660   46.7170 C   0  0  0  0  0  0  0  0  0  0  0  0
   59.3250   29.0410   46.9050 C   0  0  0  0  0  0  0  0  0  0  0  0
   58.7960   29.3460   48.0680 O   0  0  0  0  0  0  0  0  0  0  0  0
   55.8210   29.4280   53.0930 N   0  0  0  0  0  0  0  0  0  0  0  0
   56.8010   28.5800   53.7820 C   0  0  0  0  0  0  0  0  0  0  0  0
  1  2  2  0
  2  3  1  0
  3  4  2  3
  4  5  1  0
  5  6  1  0
  6  7  1  0
  7  8  2  0
  7  9  1  0
  9 10  1  0
 10 11  1  0
  3 12  1  0
 12 13  2  0
 13 14  1  0
 14 15  2  0
 14 16  1  0
 16 17  1  0
 17 18  1  0
 18 19  2  0
 19 20  1  0
 20 21  2  0
 21 22  1  0
 13 23  1  0
 23 24  1  0
 23  2  1  0
 10  5  2  0
 22 18  1  0
M  CHG  3   6  -1   9  -1  11  -1
M  END
>  <UniqueID>  (3100) 
46

>  <SMILES>  (3100) 
C=c1c(=Cc2[n-]c(=O)[n-]c2[O-])cc(C(=O)NCc2ccco2)n1C

>  <Energy>  (3100) 
128.67268772751004

>  <Genealogy>  (3100) 
C=c1c(=Cc2[n-]c(=O)[n-]c2[O-])cc(C(=O)NCc2ccco2)n1C (protonated)
C=c1c(=Cc2[n-]c(=O)[n-]c2[O-])cc(C(=O)NCc2ccco2)n1C (3D coordinates assigned)
C=c1c(=Cc2[n-]c(=O)[n-]c2[O-])cc(C(=O)NCc2ccco2)n1C (optimized conformer: 128.67268772751004 kcal/mol)

>  <smiles>  (3100) 
C=c1c(=Cc2[nH]c(=O)[nH]c2O)cc(C(=O)NCc2ccco2)n1C

>  <score_type>  (3100) 
oracle

>  <origin>  (3100) 
adg

>  <m_score__min__energy>  (3100) 
-16.73

>  <m_primary>  (3100) 
energy

$$$$
62:0
     RDKit          3D

 24 25  0  0  0  0  0  0  0  0999 V2000
   63.1210   31.7710   47.1350 N   0  0  0  0  0  0  0  0  0  0  0  0
   62.6920   33.4450   47.1650 S   0  0  0  0  0  0  0  0  0  0  0  0
   63.1500   34.0650   48.4550 O   0  0  0  0  0  0  0  0  0  0  0  0
   63.3760   34.1460   46.0250 O   0  0  0  0  0  0  0  0  0  0  0  0
   60.9350   33.6050   47.0190 C   0  0  0  0  0  0  0  0  0  0  0  0
   60.4020   34.3960   45.9870 C   0  0  0  0  0  0  0  0  0  0  0  0
   59.0200   34.5480   45.8520 C   0  0  0  0  0  0  0  0  0  0  0  0
   58.1560   33.9080   46.7380 C   0  0  0  0  0  0  0  0  0  0  0  0
   58.6690   33.1140   47.7640 C   0  0  0  0  0  0  0  0  0  0  0  0
   60.0590   32.9670   47.9270 C   0  0  0  0  0  0  0  0  0  0  0  0
   60.5720   32.0790   48.9930 C   0  0  0  0  0  0  0  0  0  0  0  0
   60.2360   30.7890   49.1440 C   0  0  0  0  0  0  0  0  0  0  0  0
   60.0580   29.8150   48.0450 C   0  0  0  0  0  0  0  0  0  0  0  0
   59.4820   28.7130   48.2470 O   0  0  0  0  0  0  0  0  0  0  0  0
   60.5960   30.1130   46.7490 N   0  0  0  0  0  0  0  0  0  0  0  0
   60.4110   29.2310   45.5970 C   0  0  0  0  0  0  0  0  0  0  0  0
   58.9490   29.2240   45.1330 C   0  0  0  0  0  0  0  0  0  0  0  0
   58.2380   27.9700   45.5720 C   0  0  0  0  0  0  0  0  0  0  0  0
   58.9730   26.8220   45.9120 C   0  0  0  0  0  0  0  0  0  0  0  0
   58.3140   25.6480   46.2880 C   0  0  0  0  0  0  0  0  0  0  0  0
   56.9170   25.6100   46.3180 C   0  0  0  0  0  0  0  0  0  0  0  0
   56.1770   26.7440   45.9710 C   0  0  0  0  0  0  0  0  0  0  0  0
   54.7890   26.7030   45.9950 O   0  0  0  0  0  0  0  0  0  0  0  0
   56.8340   27.9200   45.5960 C   0  0  0  0  0  0  0  0  0  0  0  0
  1  2  1  0
  2  3  2  0
  2  4  2  0
  2  5  1  0
  5  6  2  0
  6  7  1  0
  7  8  2  0
  8  9  1  0
  9 10  2  0
 10 11  1  0
 11 12  2  3
 12 13  1  0
 13 14  2  0
 13 15  1  0
 15 16  1  0
 16 17  1  0
 17 18  1  0
 18 19  2  0
 19 20  1  0
 20 21  2  0
 21 22  1  0
 22 23  1  0
 22 24  2  0
 10  5  1  0
 24 18  1  0
M  CHG  2   1  -1  23  -1
M  END
>  <UniqueID>  (3101) 
58

>  <SMILES>  (3101) 
[NH-]S(=O)(=O)c1ccccc1C=CC(=O)NCCc1cccc([O-])c1

>  <Energy>  (3101) 
43.47508931876113

>  <Genealogy>  (3101) 
[NH-]S(=O)(=O)c1ccccc1C=CC(=O)NCCc1cccc([O-])c1 (protonated)
[NH-]S(=O)(=O)c1ccccc1C=CC(=O)NCCc1cccc([O-])c1 (3D coordinates assigned)
[NH-]S(=O)(=O)c1ccccc1C=CC(=O)NCCc1cccc([O-])c1 (optimized conformer: 43.47508931876113 kcal/mol)

>  <smiles>  (3101) 
NS(=O)(=O)c1ccccc1C=CC(=O)NCCc1cccc(O)c1

>  <score_type>  (3101) 
oracle

>  <origin>  (3101) 
adg

>  <m_score__min__energy>  (3101) 
-14.9

>  <m_primary>  (3101) 
energy

$$$$
67:0
     RDKit          3D

 33 36  0  0  0  0  0  0  0  0999 V2000
   53.8190   28.7100   54.2450 C   0  0  0  0  0  0  0  0  0  0  0  0
   54.4490   29.4260   53.2990 C   0  0  0  0  0  0  0  0  0  0  0  0
   53.9300   30.5320   52.6090 C   0  0  0  0  0  0  0  0  0  0  0  0
   52.6720   31.0110   52.5210 C   0  0  0  0  0  0  0  0  0  0  0  0
   51.8910   31.1510   51.2810 C   0  0  0  0  0  0  0  0  0  0  0  0
   51.8900   30.2650   50.2680 N   0  0  0  0  0  0  0  0  0  0  0  0
   51.1550   30.8810   49.3160 C   0  0  0  0  0  0  0  0  0  0  0  0
   50.9140   30.3530   48.2000 O   0  0  0  0  0  0  0  0  0  0  0  0
   50.7140   32.1130   49.6490 N   0  0  0  0  0  0  0  0  0  0  0  0
   51.2000   32.2720   50.8910 C   0  0  0  0  0  0  0  0  0  0  0  0
   51.0200   33.4220   51.6490 O   0  0  0  0  0  0  0  0  0  0  0  0
   54.9990   31.1210   51.9610 C   0  0  0  0  0  0  0  0  0  0  0  0
   56.1090   30.3340   52.2070 C   0  0  0  0  0  0  0  0  0  0  0  0
   57.4750   30.6510   51.7190 C   0  0  0  0  0  0  0  0  0  0  0  0
   58.0340   29.8960   50.8790 O   0  0  0  0  0  0  0  0  0  0  0  0
   58.1820   31.7970   52.2190 N   0  0  0  0  0  0  0  0  0  0  0  0
   59.5920   32.0350   51.9170 C   0  0  0  0  0  0  0  0  0  0  0  0
   59.7500   32.4750   50.4870 C   0  0  0  0  0  0  0  0  0  0  0  0
   60.0810   31.5460   49.4840 C   0  0  0  0  0  0  0  0  0  0  0  0
   60.2620   31.9710   48.1650 C   0  0  0  0  0  0  0  0  0  0  0  0
   60.1190   33.3230   47.8370 C   0  0  0  0  0  0  0  0  0  0  0  0
   59.7960   34.2530   48.8300 C   0  0  0  0  0  0  0  0  0  0  0  0
   59.6130   33.8320   50.1510 C   0  0  0  0  0  0  0  0  0  0  0  0
   55.7700   29.2860   53.0010 N   0  0  0  0  0  0  0  0  0  0  0  0
   56.6840   28.2420   53.4960 C   0  0  0  0  0  0  0  0  0  0  0  0
   57.7080   28.8260   54.4370 C   0  0  0  0  0  0  0  0  0  0  0  0
   57.3510   29.1410   55.6050 O   0  0  0  0  0  0  0  0  0  0  0  0
   59.0870   29.0010   54.0420 N   0  0  0  0  0  0  0  0  0  0  0  0
   59.8680   30.0960   54.6290 C   0  0  0  0  0  0  0  0  0  0  0  0
   61.3620   29.7570   54.6060 C   0  0  0  0  0  0  0  0  0  0  0  0
   61.7670   29.3670   53.3090 O   0  0  0  0  0  0  0  0  0  0  0  0
   61.1300   28.1520   52.9610 C   0  0  0  0  0  0  0  0  0  0  0  0
   59.6150   28.3450   52.8400 C   0  0  0  0  0  0  0  0  0  0  0  0
  1  2  2  0
  2  3  1  0
  3  4  2  3
  4  5  1  0
  5  6  1  0
  6  7  1  0
  7  8  2  0
  7  9  1  0
  9 10  1  0
 10 11  1  0
  3 12  1  0
 12 13  2  0
 13 14  1  0
 14 15  2  0
 14 16  1  0
 16 17  1  0
 17 18  1  0
 18 19  2  0
 19 20  1  0
 20 21  2  0
 21 22  1  0
 22 23  2  0
 13 24  1  0
 24 25  1  0
 25 26  1  0
 26 27  2  0
 26 28  1  0
 28 29  1  0
 29 30  1  0
 30 31  1  0
 31 32  1  0
 32 33  1  0
 24  2  1  0
 33 28  1  0
 10  5  2  0
 23 18  1  0
M  CHG  3   6  -1   9  -1  11  -1
M  END
>  <UniqueID>  (3102) 
63

>  <SMILES>  (3102) 
C=c1c(=Cc2[n-]c(=O)[n-]c2[O-])cc(C(=O)NCc2ccccc2)n1CC(=O)N1CCOCC1

>  <Energy>  (3102) 
128.90983198004312

>  <Genealogy>  (3102) 
C=c1c(=Cc2[n-]c(=O)[n-]c2[O-])cc(C(=O)NCc2ccccc2)n1CC(=O)N1CCOCC1 (protonated)
C=c1c(=Cc2[n-]c(=O)[n-]c2[O-])cc(C(=O)NCc2ccccc2)n1CC(=O)N1CCOCC1 (3D coordinates assigned)
C=c1c(=Cc2[n-]c(=O)[n-]c2[O-])cc(C(=O)NCc2ccccc2)n1CC(=O)N1CCOCC1 (nonaromatic ring conformer: 128.90983198004312 kcal/mol)

>  <smiles>  (3102) 
C=c1c(=Cc2[nH]c(=O)[nH]c2O)cc(C(=O)NCc2ccccc2)n1CC(=O)N1CCOCC1

>  <score_type>  (3102) 
oracle

>  <origin>  (3102) 
adg

>  <m_score__min__energy>  (3102) 
-17.34

>  <m_primary>  (3102) 
energy

$$$$
71:0
     RDKit          3D

 31 34  0  0  0  0  0  0  0  0999 V2000
   53.9520   28.5120   54.1100 C   0  0  0  0  0  0  0  0  0  0  0  0
   54.4760   29.2650   53.1290 C   0  0  0  0  0  0  0  0  0  0  0  0
   53.8110   30.2690   52.4080 C   0  0  0  0  0  0  0  0  0  0  0  0
   52.5010   30.5700   52.3120 C   0  0  0  0  0  0  0  0  0  0  0  0
   51.7840   30.8780   51.0620 C   0  0  0  0  0  0  0  0  0  0  0  0
   51.7830   30.0960   49.9660 N   0  0  0  0  0  0  0  0  0  0  0  0
   51.1240   30.8420   49.0540 C   0  0  0  0  0  0  0  0  0  0  0  0
   50.9050   30.4400   47.8810 O   0  0  0  0  0  0  0  0  0  0  0  0
   50.7300   32.0570   49.4910 N   0  0  0  0  0  0  0  0  0  0  0  0
   51.1700   32.0680   50.7600 C   0  0  0  0  0  0  0  0  0  0  0  0
   51.0180   33.1470   51.6210 O   0  0  0  0  0  0  0  0  0  0  0  0
   54.7890   30.9680   51.7270 C   0  0  0  0  0  0  0  0  0  0  0  0
   55.9850   30.3290   51.9730 C   0  0  0  0  0  0  0  0  0  0  0  0
   57.2780   30.7770   51.4190 C   0  0  0  0  0  0  0  0  0  0  0  0
   57.9730   29.9490   50.7690 O   0  0  0  0  0  0  0  0  0  0  0  0
   57.7780   32.1090   51.6440 N   0  0  0  0  0  0  0  0  0  0  0  0
   58.8080   32.6760   50.7640 C   0  0  0  0  0  0  0  0  0  0  0  0
   60.1680   32.6330   51.4660 C   0  0  0  0  0  0  0  0  0  0  0  0
   60.0460   33.1770   52.8660 C   0  0  0  0  0  0  0  0  0  0  0  0
   60.9130   33.9060   53.3190 O   0  0  0  0  0  0  0  0  0  0  0  0
   58.8940   32.7390   53.7360 C   0  0  0  0  0  0  0  0  0  0  0  0
   57.5860   32.7760   52.9400 C   0  0  0  0  0  0  0  0  0  0  0  0
   55.8010   29.2800   52.8160 N   0  0  0  0  0  0  0  0  0  0  0  0
   56.8700   28.4890   53.4480 C   0  0  0  0  0  0  0  0  0  0  0  0
   57.9370   29.4110   54.0430 C   0  0  0  0  0  0  0  0  0  0  0  0
   59.2340   28.8350   53.8960 O   0  0  0  0  0  0  0  0  0  0  0  0
   60.3350   29.5380   53.3890 C   0  0  0  0  0  0  0  0  0  0  0  0
   61.0010   30.3070   54.1340 O   0  0  0  0  0  0  0  0  0  0  0  0
   60.7380   29.3960   51.9510 C   0  0  0  0  0  0  0  0  0  0  0  0
   60.4310   28.0210   51.3750 C   0  0  0  0  0  0  0  0  0  0  0  0
   61.8750   28.4280   51.6410 C   0  0  0  0  0  0  0  0  0  0  0  0
  1  2  2  0
  2  3  1  0
  3  4  2  3
  4  5  1  0
  5  6  1  0
  6  7  1  0
  7  8  2  0
  7  9  1  0
  9 10  1  0
 10 11  1  0
  3 12  1  0
 12 13  2  0
 13 14  1  0
 14 15  2  0
 14 16  1  0
 16 17  1  0
 17 18  1  0
 18 19  1  0
 19 20  2  0
 19 21  1  0
 21 22  1  0
 13 23  1  0
 23 24  1  0
 24 25  1  0
 25 26  1  0
 26 27  1  0
 27 28  2  0
 27 29  1  0
 29 30  1  0
 30 31  1  0
 23  2  1  0
 31 29  1  0
 10  5  2  0
 22 16  1  0
M  CHG  3   6  -1   9  -1  11  -1
M  END
>  <UniqueID>  (3103) 
67

>  <SMILES>  (3103) 
C=c1c(=Cc2[n-]c(=O)[n-]c2[O-])cc(C(=O)N2CCC(=O)CC2)n1CCOC(=O)C1CC1

>  <Energy>  (3103) 
387.16780736256345

>  <Genealogy>  (3103) 
C=c1c(=Cc2[n-]c(=O)[n-]c2[O-])cc(C(=O)N2CCC(=O)CC2)n1CCOC(=O)C1CC1 (protonated)
C=c1c(=Cc2[n-]c(=O)[n-]c2[O-])cc(C(=O)N2CCC(=O)CC2)n1CCOC(=O)C1CC1 (3D coordinates assigned)
C=c1c(=Cc2[n-]c(=O)[n-]c2[O-])cc(C(=O)N2CCC(=O)CC2)n1CCOC(=O)C1CC1 (nonaromatic ring conformer: 387.16780736256345 kcal/mol)

>  <smiles>  (3103) 
C=c1c(=Cc2[nH]c(=O)[nH]c2O)cc(C(=O)N2CCC(=O)CC2)n1CCOC(=O)C1CC1

>  <score_type>  (3103) 
oracle

>  <origin>  (3103) 
adg

>  <m_score__min__energy>  (3103) 
-15.970000000000001

>  <m_primary>  (3103) 
energy

$$$$
78:0
     RDKit          3D

 30 33  0  0  0  0  0  0  0  0999 V2000
   53.9090   28.7040   54.0840 C   0  0  0  0  0  0  0  0  0  0  0  0
   54.6440   29.4170   53.2150 C   0  0  0  0  0  0  0  0  0  0  0  0
   54.2700   30.6110   52.5790 C   0  0  0  0  0  0  0  0  0  0  0  0
   53.0740   31.2230   52.4730 C   0  0  0  0  0  0  0  0  0  0  0  0
   52.1950   31.1930   51.2900 C   0  0  0  0  0  0  0  0  0  0  0  0
   52.2630   30.2760   50.3070 N   0  0  0  0  0  0  0  0  0  0  0  0
   51.3920   30.7410   49.3850 C   0  0  0  0  0  0  0  0  0  0  0  0
   51.1590   30.1380   48.3050 O   0  0  0  0  0  0  0  0  0  0  0  0
   50.7960   31.9100   49.7080 N   0  0  0  0  0  0  0  0  0  0  0  0
   51.3260   32.1870   50.9100 C   0  0  0  0  0  0  0  0  0  0  0  0
   51.0240   33.3270   51.6460 O   0  0  0  0  0  0  0  0  0  0  0  0
   55.4230   31.1200   52.0050 C   0  0  0  0  0  0  0  0  0  0  0  0
   56.4270   30.2000   52.2330 C   0  0  0  0  0  0  0  0  0  0  0  0
   57.8550   30.3910   51.7870 C   0  0  0  0  0  0  0  0  0  0  0  0
   58.0110   31.5540   50.8380 C   0  0  0  0  0  0  0  0  0  0  0  0
   57.7070   32.7180   51.2260 O   0  0  0  0  0  0  0  0  0  0  0  0
   58.5090   31.3650   49.4970 N   0  0  0  0  0  0  0  0  0  0  0  0
   58.2050   32.3870   48.4790 C   0  0  0  0  0  0  0  0  0  0  0  0
   58.7470   31.9950   47.0980 C   0  0  0  0  0  0  0  0  0  0  0  0
   58.4630   30.5760   46.8410 N   0  0  0  0  0  0  0  0  0  0  0  0
   57.8890   30.1330   45.5940 C   0  0  0  0  0  0  0  0  0  0  0  0
   56.9650   30.9140   44.9660 N   0  0  0  0  0  0  0  0  0  0  0  0
   56.4120   30.5610   43.7740 C   0  0  0  0  0  0  0  0  0  0  0  0
   56.7940   29.3720   43.1500 C   0  0  0  0  0  0  0  0  0  0  0  0
   57.7480   28.5570   43.7630 C   0  0  0  0  0  0  0  0  0  0  0  0
   58.3030   28.9330   44.9890 C   0  0  0  0  0  0  0  0  0  0  0  0
   58.8330   29.5680   47.8480 C   0  0  0  0  0  0  0  0  0  0  0  0
   59.3600   30.2210   49.1320 C   0  0  0  0  0  0  0  0  0  0  0  0
   55.9540   29.1580   52.9590 N   0  0  0  0  0  0  0  0  0  0  0  0
   56.7400   28.0420   53.4980 C   0  0  0  0  0  0  0  0  0  0  0  0
  1  2  2  0
  2  3  1  0
  3  4  2  0
  4  5  1  0
  5  6  1  0
  6  7  1  0
  7  8  2  0
  7  9  1  0
  9 10  1  0
 10 11  1  0
  3 12  1  0
 12 13  2  0
 13 14  1  0
 14 15  1  0
 15 16  2  0
 15 17  1  0
 17 18  1  0
 18 19  1  0
 19 20  1  0
 20 21  1  0
 21 22  2  0
 22 23  1  0
 23 24  2  0
 24 25  1  0
 25 26  2  0
 20 27  1  0
 27 28  1  0
 13 29  1  0
 29 30  1  0
 29  2  1  0
 10  5  2  0
 28 17  1  0
 26 21  1  0
M  CHG  3   6  -1   9  -1  11  -1
M  END
>  <UniqueID>  (3104) 
73

>  <SMILES>  (3104) 
C=c1/c(=C\c2[n-]c(=O)[n-]c2[O-])cc(CC(=O)N2CCN(c3ccccn3)CC2)n1C

>  <Energy>  (3104) 
129.21606404924503

>  <Genealogy>  (3104) 
C=c1c(=Cc2[n-]c(=O)[n-]c2[O-])cc(CC(=O)N2CCN(c3ccccn3)CC2)n1C (protonated)
C=c1/c(=C\c2[n-]c(=O)[n-]c2[O-])cc(CC(=O)N2CCN(c3ccccn3)CC2)n1C (cis-trans isomerization)
C=c1/c(=C\c2[n-]c(=O)[n-]c2[O-])cc(CC(=O)N2CCN(c3ccccn3)CC2)n1C (3D coordinates assigned)
C=c1/c(=C\c2[n-]c(=O)[n-]c2[O-])cc(CC(=O)N2CCN(c3ccccn3)CC2)n1C (nonaromatic ring conformer: 129.21606404924503 kcal/mol)

>  <smiles>  (3104) 
C=c1c(=Cc2[nH]c(=O)[nH]c2O)cc(CC(=O)N2CCN(c3ccccn3)CC2)n1C

>  <score_type>  (3104) 
oracle

>  <origin>  (3104) 
adg

>  <m_score__min__energy>  (3104) 
-18.620000000000001

>  <m_primary>  (3104) 
energy

$$$$
80:0
     RDKit          3D

 31 34  0  0  0  0  0  0  0  0999 V2000
   55.9060   30.9120   44.4620 C   0  0  0  0  0  0  0  0  0  0  0  0
   56.8220   29.9710   44.7040 C   0  0  0  0  0  0  0  0  0  0  0  0
   58.1130   30.1770   45.1680 C   0  0  0  0  0  0  0  0  0  0  0  0
   58.7260   31.4700   45.5410 C   0  0  0  0  0  0  0  0  0  0  0  0
   58.8890   32.3440   44.6460 O   0  0  0  0  0  0  0  0  0  0  0  0
   59.1290   31.7520   46.8950 N   0  0  0  0  0  0  0  0  0  0  0  0
   59.1850   33.1440   47.3530 C   0  0  0  0  0  0  0  0  0  0  0  0
   59.7030   33.2150   48.7930 C   0  0  0  0  0  0  0  0  0  0  0  0
   60.9530   32.4330   48.9540 N   0  0  0  0  0  0  0  0  0  0  0  0
   62.1670   33.0060   48.2890 C   0  0  0  0  0  0  0  0  0  0  0  0
   62.7280   34.2810   48.9640 C   0  0  0  0  0  0  0  0  0  0  0  0
   63.2540   33.9820   50.3880 C   0  0  0  0  0  0  0  0  0  0  0  0
   63.4100   32.5950   50.6380 O   0  0  0  0  0  0  0  0  0  0  0  0
   64.1400   31.9910   49.5890 C   0  0  0  0  0  0  0  0  0  0  0  0
   63.3180   31.9620   48.2830 C   0  0  0  0  0  0  0  0  0  0  0  0
   60.7550   30.9920   48.5990 C   0  0  0  0  0  0  0  0  0  0  0  0
   59.4470   30.6770   47.8450 C   0  0  0  0  0  0  0  0  0  0  0  0
   58.7050   28.9190   45.2570 C   0  0  0  0  0  0  0  0  0  0  0  0
   60.0530   28.6310   45.8600 C   0  0  0  0  0  0  0  0  0  0  0  0
   57.7440   28.0050   44.8060 C   0  0  0  0  0  0  0  0  0  0  0  0
   57.8440   26.6680   44.6890 C   0  0  0  0  0  0  0  0  0  0  0  0
   57.3450   25.6950   45.6800 C   0  0  0  0  0  0  0  0  0  0  0  0
   56.0260   25.7580   46.1530 C   0  0  0  0  0  0  0  0  0  0  0  0
   55.1440   26.7190   45.6710 O   0  0  0  0  0  0  0  0  0  0  0  0
   55.6010   24.8740   47.0930 N   0  0  0  0  0  0  0  0  0  0  0  0
   56.4400   23.9330   47.6000 C   0  0  0  0  0  0  0  0  0  0  0  0
   56.0230   23.1220   48.4660 O   0  0  0  0  0  0  0  0  0  0  0  0
   57.7280   23.8710   47.1750 N   0  0  0  0  0  0  0  0  0  0  0  0
   58.2010   24.7330   46.2370 C   0  0  0  0  0  0  0  0  0  0  0  0
   59.4030   24.6520   45.8710 O   0  0  0  0  0  0  0  0  0  0  0  0
   56.6050   28.6600   44.4920 N   0  0  0  0  0  0  0  0  0  0  0  0
  1  2  2  0
  2  3  1  0
  3  4  1  0
  4  5  2  0
  4  6  1  0
  6  7  1  0
  7  8  1  0
  8  9  1  0
  9 10  1  0
 10 11  1  0
 11 12  1  0
 12 13  1  0
 13 14  1  0
 14 15  1  0
  9 16  1  0
 16 17  1  0
  3 18  2  0
 18 19  1  0
 18 20  1  0
 20 21  2  0
 21 22  1  0
 22 23  2  0
 23 24  1  0
 23 25  1  0
 25 26  1  0
 26 27  2  0
 26 28  1  0
 28 29  1  0
 29 30  2  0
 20 31  1  0
 31  2  1  0
 17  6  1  0
 29 22  1  0
 15 10  1  0
M  CHG  3  24  -1  25  -1  28  -1
M  END
>  <UniqueID>  (3105) 
75

>  <SMILES>  (3105) 
C=c1[nH]/c(=C/c2c([O-])[n-]c(=O)[n-]c2=O)c(C)c1C(=O)N1CCN(C2CCOCC2)CC1

>  <Energy>  (3105) 
124.07870529737393

>  <Genealogy>  (3105) 
C=c1[nH]c(=Cc2c([O-])[n-]c(=O)[n-]c2=O)c(C)c1C(=O)N1CCN(C2CCOCC2)CC1 (protonated)
C=c1[nH]/c(=C/c2c([O-])[n-]c(=O)[n-]c2=O)c(C)c1C(=O)N1CCN(C2CCOCC2)CC1 (cis-trans isomerization)
C=c1[nH]/c(=C/c2c([O-])[n-]c(=O)[n-]c2=O)c(C)c1C(=O)N1CCN(C2CCOCC2)CC1 (3D coordinates assigned)
C=c1[nH]/c(=C/c2c([O-])[n-]c(=O)[n-]c2=O)c(C)c1C(=O)N1CCN(C2CCOCC2)CC1 (nonaromatic ring conformer: 124.07870529737393 kcal/mol)

>  <smiles>  (3105) 
C=c1[nH]c(=Cc2c(O)[nH]c(=O)[nH]c2=O)c(C)c1C(=O)N1CCN(C2CCOCC2)CC1

>  <score_type>  (3105) 
oracle

>  <origin>  (3105) 
adg

>  <m_score__min__energy>  (3105) 
-16.219999999999999

>  <m_primary>  (3105) 
energy

$$$$
7:0
     RDKit          3D

 26 27  0  0  0  0  0  0  0  0999 V2000
   60.7250   29.2050   47.5410 C   0  0  0  0  0  0  0  0  0  0  0  0
   60.2620   27.8160   47.4760 N   0  0  0  0  0  0  0  0  0  0  0  0
   61.1350   26.7190   47.9070 C   0  0  0  0  0  0  0  0  0  0  0  0
   58.9350   27.5270   46.9940 C   0  0  0  0  0  0  0  0  0  0  0  0
   58.3690   26.3130   47.2290 N   0  0  0  0  0  0  0  0  0  0  0  0
   57.1140   26.0280   46.7980 C   0  0  0  0  0  0  0  0  0  0  0  0
   56.6150   24.8960   47.0350 O   0  0  0  0  0  0  0  0  0  0  0  0
   56.3810   26.9900   46.0980 C   0  0  0  0  0  0  0  0  0  0  0  0
   55.0890   26.7050   45.6660 O   0  0  0  0  0  0  0  0  0  0  0  0
   56.9730   28.2410   45.8560 C   0  0  0  0  0  0  0  0  0  0  0  0
   56.2770   29.2880   45.0730 C   0  0  0  0  0  0  0  0  0  0  0  0
   55.1890   29.0090   44.5010 O   0  0  0  0  0  0  0  0  0  0  0  0
   56.8040   30.6140   44.9140 N   0  0  0  0  0  0  0  0  0  0  0  0
   58.1550   30.9650   44.4830 C   0  0  0  0  0  0  0  0  0  0  0  0
   58.6310   32.2090   45.1860 C   0  0  0  0  0  0  0  0  0  0  0  0
   58.0700   33.4520   44.8560 C   0  0  0  0  0  0  0  0  0  0  0  0
   58.5130   34.6140   45.4900 C   0  0  0  0  0  0  0  0  0  0  0  0
   59.5220   34.5460   46.4530 C   0  0  0  0  0  0  0  0  0  0  0  0
   60.0920   33.3160   46.7980 C   0  0  0  0  0  0  0  0  0  0  0  0
   61.1330   33.2970   47.7850 N   0  0  0  0  0  0  0  0  0  0  0  0
   62.8160   33.0370   47.4620 S   0  0  0  0  0  0  0  0  0  0  0  0
   63.7510   33.4500   48.9160 C   0  0  0  0  0  0  0  0  0  0  0  0
   63.0490   31.5940   47.1240 O   0  0  0  0  0  0  0  0  0  0  0  0
   63.2650   33.9140   46.3270 O   0  0  0  0  0  0  0  0  0  0  0  0
   59.6390   32.1440   46.1620 C   0  0  0  0  0  0  0  0  0  0  0  0
   58.2350   28.4700   46.3070 N   0  0  0  0  0  0  0  0  0  0  0  0
  1  2  1  0
  2  3  1  0
  2  4  1  0
  4  5  2  0
  5  6  1  0
  6  7  2  0
  6  8  1  0
  8  9  1  0
  8 10  2  0
 10 11  1  0
 11 12  2  0
 11 13  1  0
 13 14  1  0
 14 15  1  0
 15 16  2  0
 16 17  1  0
 17 18  2  0
 18 19  1  0
 19 20  1  0
 20 21  1  0
 21 22  1  0
 21 23  2  0
 21 24  2  0
 19 25  2  0
 10 26  1  0
 26  4  1  0
 25 15  1  0
M  CHG  4   9  -1  13  -1  20  -1  26  -1
M  END
>  <UniqueID>  (3106) 
7

>  <SMILES>  (3106) 
CN(C)c1nc(=O)c([O-])c(C(=O)[N-]Cc2cccc([N-]S(C)(=O)=O)c2)[n-]1

>  <Energy>  (3106) 
37.54409428455241

>  <Genealogy>  (3106) 
CN(C)c1nc(=O)c([O-])c(C(=O)[N-]Cc2cccc([N-]S(C)(=O)=O)c2)[n-]1 (protonated)
CN(C)c1nc(=O)c([O-])c(C(=O)[N-]Cc2cccc([N-]S(C)(=O)=O)c2)[n-]1 (3D coordinates assigned)
CN(C)c1nc(=O)c([O-])c(C(=O)[N-]Cc2cccc([N-]S(C)(=O)=O)c2)[n-]1 (optimized conformer: 37.54409428455241 kcal/mol)

>  <smiles>  (3106) 
CN(C)c1nc(=O)c(O)c(C(=O)NCc2cccc(NS(C)(=O)=O)c2)[nH]1

>  <score_type>  (3106) 
oracle

>  <origin>  (3106) 
adg

>  <m_score__min__energy>  (3106) 
-14.800000000000001

>  <m_primary>  (3106) 
energy

$$$$
17:0
     RDKit          3D

 32 34  0  0  0  0  0  0  0  0999 V2000
   59.3980   26.8810   48.1160 C   0  0  0  0  0  0  0  0  0  0  0  0
   59.5740   28.0840   47.5420 C   0  0  0  0  0  0  0  0  0  0  0  0
   59.1150   28.4720   46.2740 C   0  0  0  0  0  0  0  0  0  0  0  0
   58.4470   27.7110   45.3800 C   0  0  0  0  0  0  0  0  0  0  0  0
   57.2510   26.8890   45.6760 C   0  0  0  0  0  0  0  0  0  0  0  0
   57.2560   25.6400   46.1800 N   0  0  0  0  0  0  0  0  0  0  0  0
   55.9540   25.3810   46.4070 C   0  0  0  0  0  0  0  0  0  0  0  0
   55.5550   24.2920   46.8950 O   0  0  0  0  0  0  0  0  0  0  0  0
   55.1160   26.3880   46.0890 N   0  0  0  0  0  0  0  0  0  0  0  0
   55.9480   27.3310   45.6260 C   0  0  0  0  0  0  0  0  0  0  0  0
   55.5340   28.5830   45.1930 O   0  0  0  0  0  0  0  0  0  0  0  0
   59.4920   29.8000   46.1240 C   0  0  0  0  0  0  0  0  0  0  0  0
   60.1680   30.1580   47.2750 C   0  0  0  0  0  0  0  0  0  0  0  0
   60.7980   31.4780   47.4750 C   0  0  0  0  0  0  0  0  0  0  0  0
   61.2290   32.0740   46.4500 O   0  0  0  0  0  0  0  0  0  0  0  0
   60.6300   32.1920   48.7350 N   0  0  2  0  0  0  0  0  0  0  0  0
   59.3430   32.9630   48.7050 C   0  0  0  0  0  0  0  0  0  0  0  0
   58.8540   33.2530   47.2970 C   0  0  0  0  0  0  0  0  0  0  0  0
   59.3110   34.3900   46.6050 C   0  0  0  0  0  0  0  0  0  0  0  0
   58.8640   34.6540   45.3070 C   0  0  0  0  0  0  0  0  0  0  0  0
   57.9480   33.7970   44.6910 C   0  0  0  0  0  0  0  0  0  0  0  0
   57.4510   32.6750   45.3850 C   0  0  0  0  0  0  0  0  0  0  0  0
   56.5170   31.7910   44.8290 O   0  0  0  0  0  0  0  0  0  0  0  0
   56.8250   30.7850   43.8650 C   0  0  0  0  0  0  0  0  0  0  0  0
   57.8940   32.4230   46.6890 C   0  0  0  0  0  0  0  0  0  0  0  0
   61.8630   32.9540   49.1920 C   0  0  0  0  0  0  0  0  0  0  0  0
   61.6590   34.4860   49.0380 C   0  0  0  0  0  0  0  0  0  0  0  0
   62.0740   32.7130   50.7230 C   0  0  0  0  0  0  0  0  0  0  0  0
   63.2200   32.5360   48.5120 C   0  0  0  0  0  0  0  0  0  0  0  0
   63.7320   33.3770   47.3430 C   0  0  0  0  0  0  0  0  0  0  0  0
   60.2660   29.1010   48.1150 N   0  0  0  0  0  0  0  0  0  0  0  0
   61.0090   29.0830   49.3810 C   0  0  0  0  0  0  0  0  0  0  0  0
  1  2  2  0
  2  3  1  0
  3  4  2  0
  4  5  1  0
  5  6  1  0
  6  7  1  0
  7  8  2  0
  7  9  1  0
  9 10  1  0
 10 11  1  0
  3 12  1  0
 12 13  2  0
 13 14  1  0
 14 15  2  0
 14 16  1  0
 16 17  1  6
 17 18  1  0
 18 19  2  0
 19 20  1  0
 20 21  2  0
 21 22  1  0
 22 23  1  0
 23 24  1  0
 22 25  2  0
 16 26  1  0
 26 27  1  0
 26 28  1  0
 26 29  1  0
 29 30  1  0
 13 31  1  0
 31 32  1  0
 31  2  1  0
 10  5  2  0
 25 18  1  0
M  CHG  4   6  -1   9  -1  11  -1  16   1
M  END
>  <UniqueID>  (3107) 
17

>  <SMILES>  (3107) 
C=c1/c(=C/c2[n-]c(=O)[n-]c2[O-])cc(C(=O)[N@H+](Cc2cccc(OC)c2)C(C)(C)CC)n1C

>  <Energy>  (3107) 
153.7818327211946

>  <Genealogy>  (3107) 
C=c1c(=Cc2[n-]c(=O)[n-]c2[O-])cc(C(=O)[NH+](Cc2cccc(OC)c2)C(C)(C)CC)n1C (protonated)
C=c1c(=Cc2[n-]c(=O)[n-]c2[O-])cc(C(=O)[N@H+](Cc2cccc(OC)c2)C(C)(C)CC)n1C (chirality)
C=c1/c(=C/c2[n-]c(=O)[n-]c2[O-])cc(C(=O)[N@H+](Cc2cccc(OC)c2)C(C)(C)CC)n1C (cis-trans isomerization)
C=c1/c(=C/c2[n-]c(=O)[n-]c2[O-])cc(C(=O)[N@H+](Cc2cccc(OC)c2)C(C)(C)CC)n1C (3D coordinates assigned)
C=c1/c(=C/c2[n-]c(=O)[n-]c2[O-])cc(C(=O)[N@H+](Cc2cccc(OC)c2)C(C)(C)CC)n1C (optimized conformer: 153.7818327211946 kcal/mol)

>  <smiles>  (3107) 
C=c1c(=Cc2[nH]c(=O)[nH]c2O)cc(C(=O)N(Cc2cccc(OC)c2)C(C)(C)CC)n1C

>  <score_type>  (3107) 
oracle

>  <origin>  (3107) 
adg

>  <m_score__min__energy>  (3107) 
-16.690000000000001

>  <m_primary>  (3107) 
energy

$$$$
29:0
     RDKit          3D

 26 28  0  0  0  0  0  0  0  0999 V2000
   60.6510   26.6300   47.1690 C   0  0  0  0  0  0  0  0  0  0  0  0
   59.8400   27.3690   46.3900 C   0  0  0  0  0  0  0  0  0  0  0  0
   60.4450   28.3150   45.5430 C   0  0  0  0  0  0  0  0  0  0  0  0
   59.6910   29.2900   44.8960 C   0  0  0  0  0  0  0  0  0  0  0  0
   58.3040   29.3620   45.0860 C   0  0  0  0  0  0  0  0  0  0  0  0
   57.4920   30.4280   44.4390 C   0  0  0  0  0  0  0  0  0  0  0  0
   56.2770   30.5580   44.7590 O   0  0  0  0  0  0  0  0  0  0  0  0
   58.0790   31.3290   43.3760 C   0  0  0  0  0  0  0  0  0  0  0  0
   57.6770   32.8000   43.5520 C   0  0  0  0  0  0  0  0  0  0  0  0
   58.2310   33.3490   44.8400 C   0  0  0  0  0  0  0  0  0  0  0  0
   57.6450   33.0020   46.0690 C   0  0  0  0  0  0  0  0  0  0  0  0
   58.1390   33.5400   47.2610 C   0  0  0  0  0  0  0  0  0  0  0  0
   59.2150   34.4320   47.2360 C   0  0  0  0  0  0  0  0  0  0  0  0
   59.6930   34.9530   48.3920 F   0  0  0  0  0  0  0  0  0  0  0  0
   59.7950   34.7920   46.0140 C   0  0  0  0  0  0  0  0  0  0  0  0
   59.3030   34.2570   44.8200 C   0  0  0  0  0  0  0  0  0  0  0  0
   57.6790   28.3840   45.8790 C   0  0  0  0  0  0  0  0  0  0  0  0
   58.4090   27.3310   46.4750 C   0  0  0  0  0  0  0  0  0  0  0  0
   57.6860   26.3480   47.0700 C   0  0  0  0  0  0  0  0  0  0  0  0
   56.8220   25.3640   46.3890 C   0  0  0  0  0  0  0  0  0  0  0  0
   57.1450   24.0720   46.2220 N   0  0  0  0  0  0  0  0  0  0  0  0
   56.0510   23.5140   45.6660 C   0  0  0  0  0  0  0  0  0  0  0  0
   55.9850   22.2980   45.3510 O   0  0  0  0  0  0  0  0  0  0  0  0
   55.0240   24.3750   45.4860 N   0  0  0  0  0  0  0  0  0  0  0  0
   55.5210   25.5340   45.9590 C   0  0  0  0  0  0  0  0  0  0  0  0
   54.7870   26.7110   46.0270 O   0  0  0  0  0  0  0  0  0  0  0  0
  1  2  2  0
  2  3  1  0
  3  4  2  0
  4  5  1  0
  5  6  1  0
  6  7  2  0
  6  8  1  0
  8  9  1  0
  9 10  1  0
 10 11  2  0
 11 12  1  0
 12 13  2  0
 13 14  1  0
 13 15  1  0
 15 16  2  0
  5 17  2  0
 17 18  1  0
 18 19  2  3
 19 20  1  0
 20 21  1  0
 21 22  1  0
 22 23  2  0
 22 24  1  0
 24 25  1  0
 25 26  1  0
 18  2  1  0
 25 20  2  0
 16 10  1  0
M  CHG  2  24  -1  26  -1
M  END
>  <UniqueID>  (3108) 
29

>  <SMILES>  (3108) 
C=c1ccc(C(=O)CCc2ccc(F)cc2)cc1=Cc1[nH]c(=O)[n-]c1[O-]

>  <Energy>  (3108) 
95.73044511523874

>  <Genealogy>  (3108) 
C=c1ccc(C(=O)CCc2ccc(F)cc2)cc1=Cc1[nH]c(=O)[n-]c1[O-] (protonated)
C=c1ccc(C(=O)CCc2ccc(F)cc2)cc1=Cc1[nH]c(=O)[n-]c1[O-] (3D coordinates assigned)
C=c1ccc(C(=O)CCc2ccc(F)cc2)cc1=Cc1[nH]c(=O)[n-]c1[O-] (optimized conformer: 95.73044511523874 kcal/mol)

>  <smiles>  (3108) 
C=c1ccc(C(=O)CCc2ccc(F)cc2)cc1=Cc1[nH]c(=O)[nH]c1O

>  <score_type>  (3108) 
oracle

>  <origin>  (3108) 
adg

>  <m_score__min__energy>  (3108) 
-15.609999999999999

>  <m_primary>  (3108) 
energy

$$$$
46:0
     RDKit          3D

 37 40  0  0  0  0  0  0  0  0999 V2000
   57.0600   21.5650   43.2190 C   0  0  0  0  0  0  0  0  0  0  0  0
   55.8260   22.2720   43.3040 O   0  0  0  0  0  0  0  0  0  0  0  0
   55.5710   23.3140   44.2060 C   0  0  0  0  0  0  0  0  0  0  0  0
   54.2810   23.4400   44.7310 C   0  0  0  0  0  0  0  0  0  0  0  0
   53.9940   24.4690   45.6290 C   0  0  0  0  0  0  0  0  0  0  0  0
   54.9670   25.3450   45.9930 N   0  0  0  0  0  0  0  0  0  0  0  0
   56.2380   25.2500   45.5110 C   0  0  0  0  0  0  0  0  0  0  0  0
   57.2580   26.2690   45.9150 C   0  0  0  0  0  0  0  0  0  0  0  0
   56.6490   27.5950   45.8930 N   0  0  0  0  0  0  0  0  0  0  0  0
   57.3810   28.8250   45.9570 C   0  0  0  0  0  0  0  0  0  0  0  0
   58.0950   29.0550   46.9690 O   0  0  0  0  0  0  0  0  0  0  0  0
   57.3520   29.8130   44.8590 C   0  0  0  0  0  0  0  0  0  0  0  0
   56.6670   29.5170   43.6700 C   0  0  0  0  0  0  0  0  0  0  0  0
   56.6580   30.4340   42.6180 C   0  0  0  0  0  0  0  0  0  0  0  0
   57.3510   31.6410   42.7330 C   0  0  0  0  0  0  0  0  0  0  0  0
   58.0770   31.9340   43.9000 C   0  0  0  0  0  0  0  0  0  0  0  0
   58.8400   33.1460   44.0200 N   0  0  0  0  0  0  0  0  0  0  0  0
   58.6060   34.2680   45.3230 S   0  0  0  0  0  0  0  0  0  0  0  0
   57.1710   34.2280   45.7670 O   0  0  0  0  0  0  0  0  0  0  0  0
   58.9220   35.6630   44.8590 O   0  0  0  0  0  0  0  0  0  0  0  0
   59.6340   33.8110   46.6800 C   0  0  0  0  0  0  0  0  0  0  0  0
   61.0260   33.8290   46.5330 C   0  0  0  0  0  0  0  0  0  0  0  0
   61.8500   33.5380   47.6210 C   0  0  0  0  0  0  0  0  0  0  0  0
   61.2920   33.2360   48.8670 C   0  0  0  0  0  0  0  0  0  0  0  0
   59.8970   33.2090   49.0310 C   0  0  0  0  0  0  0  0  0  0  0  0
   59.3060   32.9490   50.3670 C   0  0  0  0  0  0  0  0  0  0  0  0
   59.6220   33.6890   51.3400 O   0  0  0  0  0  0  0  0  0  0  0  0
   58.3550   31.8880   50.5690 N   0  0  0  0  0  0  0  0  0  0  0  0
   57.1720   32.0940   51.4070 C   0  0  0  0  0  0  0  0  0  0  0  0
   57.1830   31.0860   52.5580 C   0  0  0  0  0  0  0  0  0  0  0  0
   57.3180   29.7130   52.0300 N   0  0  0  0  0  0  0  0  0  0  0  0
   57.2670   28.7440   53.1360 C   0  0  0  0  0  0  0  0  0  0  0  0
   58.5880   29.5640   51.2880 C   0  0  0  0  0  0  0  0  0  0  0  0
   58.6220   30.5270   50.0980 C   0  0  0  0  0  0  0  0  0  0  0  0
   59.0730   33.4950   47.9270 C   0  0  0  0  0  0  0  0  0  0  0  0
   58.0610   31.0190   44.9650 C   0  0  0  0  0  0  0  0  0  0  0  0
   56.5590   24.2360   44.5960 C   0  0  0  0  0  0  0  0  0  0  0  0
  1  2  1  0
  2  3  1  0
  3  4  2  0
  4  5  1  0
  5  6  2  0
  6  7  1  0
  7  8  1  0
  8  9  1  0
  9 10  1  0
 10 11  2  0
 10 12  1  0
 12 13  2  0
 13 14  1  0
 14 15  2  0
 15 16  1  0
 16 17  1  0
 17 18  1  0
 18 19  2  0
 18 20  2  0
 18 21  1  0
 21 22  2  0
 22 23  1  0
 23 24  2  0
 24 25  1  0
 25 26  1  0
 26 27  2  0
 26 28  1  0
 28 29  1  0
 29 30  1  0
 30 31  1  0
 31 32  1  0
 31 33  1  0
 33 34  1  0
 25 35  2  0
 16 36  2  0
  7 37  2  0
 37  3  1  0
 36 12  1  0
 35 21  1  0
 34 28  1  0
M  CHG  1   9  -1
M  END
>  <UniqueID>  (3109) 
45

>  <SMILES>  (3109) 
COc1ccnc(C[N-]C(=O)c2cccc(NS(=O)(=O)c3cccc(C(=O)N4CCN(C)CC4)c3)c2)c1

>  <Energy>  (3109) 
78.48593512076532

>  <Genealogy>  (3109) 
COc1ccnc(C[N-]C(=O)c2cccc(NS(=O)(=O)c3cccc(C(=O)N4CCN(C)CC4)c3)c2)c1 (protonated)
COc1ccnc(C[N-]C(=O)c2cccc(NS(=O)(=O)c3cccc(C(=O)N4CCN(C)CC4)c3)c2)c1 (3D coordinates assigned)
COc1ccnc(C[N-]C(=O)c2cccc(NS(=O)(=O)c3cccc(C(=O)N4CCN(C)CC4)c3)c2)c1 (nonaromatic ring conformer: 78.48593512076532 kcal/mol)

>  <smiles>  (3109) 
COc1ccnc(CNC(=O)c2cccc(NS(=O)(=O)c3cccc(C(=O)N4CCN(C)CC4)c3)c2)c1

>  <score_type>  (3109) 
oracle

>  <origin>  (3109) 
adg

>  <m_score__min__energy>  (3109) 
-14.16

>  <m_primary>  (3109) 
energy

$$$$
47:0
     RDKit          3D

 29 31  0  0  0  0  0  0  0  0999 V2000
   52.1150   22.2120   45.2760 O   0  0  0  0  0  0  0  0  0  0  0  0
   52.1460   23.4380   44.9840 C   0  0  0  0  0  0  0  0  0  0  0  0
   51.0200   24.2230   45.1910 O   0  0  0  0  0  0  0  0  0  0  0  0
   53.3720   24.0320   44.3690 C   0  0  0  0  0  0  0  0  0  0  0  0
   54.5330   23.8980   45.3010 C   0  0  0  0  0  0  0  0  0  0  0  0
   55.1980   22.7420   45.5200 N   0  0  0  0  0  0  0  0  0  0  0  0
   56.1890   23.1000   46.3680 C   0  0  0  0  0  0  0  0  0  0  0  0
   57.0420   22.2810   46.8030 O   0  0  0  0  0  0  0  0  0  0  0  0
   56.1810   24.4120   46.6910 N   0  0  0  0  0  0  0  0  0  0  0  0
   57.1430   25.1430   47.5140 C   0  0  0  0  0  0  0  0  0  0  0  0
   57.7200   26.2860   46.7350 C   0  0  0  0  0  0  0  0  0  0  0  0
   58.9450   26.2710   46.4370 O   0  0  0  0  0  0  0  0  0  0  0  0
   56.9000   27.4210   46.4150 N   0  0  0  0  0  0  0  0  0  0  0  0
   57.3050   28.4900   45.5410 C   0  0  0  0  0  0  0  0  0  0  0  0
   58.5950   29.0240   45.6620 C   0  0  0  0  0  0  0  0  0  0  0  0
   59.0070   30.0810   44.8470 C   0  0  0  0  0  0  0  0  0  0  0  0
   58.1240   30.6310   43.8990 C   0  0  0  0  0  0  0  0  0  0  0  0
   58.4850   31.6910   43.0510 O   0  0  0  0  0  0  0  0  0  0  0  0
   58.1550   33.0650   43.2610 C   0  0  0  0  0  0  0  0  0  0  0  0
   58.4190   33.4660   44.6890 C   0  0  0  0  0  0  0  0  0  0  0  0
   59.5530   34.2320   45.0070 C   0  0  0  0  0  0  0  0  0  0  0  0
   59.7980   34.6130   46.3300 C   0  0  0  0  0  0  0  0  0  0  0  0
   58.9100   34.2380   47.3430 C   0  0  0  0  0  0  0  0  0  0  0  0
   57.7740   33.4860   47.0330 C   0  0  0  0  0  0  0  0  0  0  0  0
   57.5240   33.1040   45.7110 C   0  0  0  0  0  0  0  0  0  0  0  0
   56.8270   30.1150   43.7960 C   0  0  0  0  0  0  0  0  0  0  0  0
   56.4160   29.0560   44.6110 C   0  0  0  0  0  0  0  0  0  0  0  0
   55.1450   24.9160   46.0010 C   0  0  0  0  0  0  0  0  0  0  0  0
   54.7760   26.2560   45.9940 O   0  0  0  0  0  0  0  0  0  0  0  0
  1  2  2  0
  2  3  1  0
  2  4  1  0
  4  5  1  0
  5  6  1  0
  6  7  1  0
  7  8  2  0
  7  9  1  0
  9 10  1  0
 10 11  1  0
 11 12  2  0
 11 13  1  0
 13 14  1  0
 14 15  2  0
 15 16  1  0
 16 17  2  0
 17 18  1  0
 18 19  1  0
 19 20  1  0
 20 21  2  0
 21 22  1  0
 22 23  2  0
 23 24  1  0
 24 25  2  0
 17 26  1  0
 26 27  2  0
  9 28  1  0
 28 29  1  0
 28  5  2  0
 27 14  1  0
 25 20  1  0
M  CHG  3   3  -1   6  -1  29  -1
M  END
>  <UniqueID>  (3110) 
46

>  <SMILES>  (3110) 
O=C([O-])Cc1[n-]c(=O)n(CC(=O)Nc2ccc(OCc3ccccc3)cc2)c1[O-]

>  <Energy>  (3110) 
78.58459746381183

>  <Genealogy>  (3110) 
O=C([O-])Cc1[n-]c(=O)n(CC(=O)Nc2ccc(OCc3ccccc3)cc2)c1[O-] (protonated)
O=C([O-])Cc1[n-]c(=O)n(CC(=O)Nc2ccc(OCc3ccccc3)cc2)c1[O-] (3D coordinates assigned)
O=C([O-])Cc1[n-]c(=O)n(CC(=O)Nc2ccc(OCc3ccccc3)cc2)c1[O-] (optimized conformer: 78.58459746381183 kcal/mol)

>  <smiles>  (3110) 
O=C(O)Cc1[nH]c(=O)n(CC(=O)Nc2ccc(OCc3ccccc3)cc2)c1O

>  <score_type>  (3110) 
oracle

>  <origin>  (3110) 
adg

>  <m_score__min__energy>  (3110) 
-15.41

>  <m_primary>  (3110) 
energy

$$$$
52:0
     RDKit          3D

 32 35  0  0  0  0  0  0  0  0999 V2000
   58.0060   30.1610   44.8150 C   0  0  0  0  0  0  0  0  0  0  0  0
   58.3670   29.6070   45.9830 C   0  0  0  0  0  0  0  0  0  0  0  0
   58.2230   28.2650   46.3710 C   0  0  0  0  0  0  0  0  0  0  0  0
   57.8790   27.1720   45.6640 C   0  0  0  0  0  0  0  0  0  0  0  0
   57.1980   25.9830   46.1990 C   0  0  0  0  0  0  0  0  0  0  0  0
   57.8300   24.8360   46.4990 N   0  0  0  0  0  0  0  0  0  0  0  0
   56.8190   23.9970   46.8180 C   0  0  0  0  0  0  0  0  0  0  0  0
   57.0140   22.8090   47.1780 O   0  0  0  0  0  0  0  0  0  0  0  0
   55.5840   24.5310   46.7090 N   0  0  0  0  0  0  0  0  0  0  0  0
   55.8390   25.7840   46.3010 C   0  0  0  0  0  0  0  0  0  0  0  0
   54.8520   26.7130   46.0020 O   0  0  0  0  0  0  0  0  0  0  0  0
   58.5210   28.2180   47.7230 C   0  0  0  0  0  0  0  0  0  0  0  0
   58.8920   29.4930   48.0970 C   0  0  0  0  0  0  0  0  0  0  0  0
   59.3180   29.8950   49.4750 C   0  0  0  0  0  0  0  0  0  0  0  0
   58.8010   30.3340   47.0440 N   0  0  0  0  0  0  0  0  0  0  0  0
   59.0520   31.7480   47.0760 C   0  0  0  0  0  0  0  0  0  0  0  0
   58.0920   32.5360   47.2900 O   0  0  0  0  0  0  0  0  0  0  0  0
   60.3880   32.2620   46.8980 N   0  0  0  0  0  0  0  0  0  0  0  0
   60.6140   33.7000   46.7630 C   0  0  0  0  0  0  0  0  0  0  0  0
   60.9730   34.2840   48.1310 C   0  0  0  0  0  0  0  0  0  0  0  0
   62.0140   33.4790   48.7960 N   0  0  0  0  0  0  0  0  0  0  0  0
   62.8450   34.1070   49.7920 C   0  0  0  0  0  0  0  0  0  0  0  0
   63.0300   35.3550   49.7630 O   0  0  0  0  0  0  0  0  0  0  0  0
   63.4040   33.3250   50.8570 N   0  0  0  0  0  0  0  0  0  0  0  0
   64.6880   32.6860   50.8680 C   0  0  0  0  0  0  0  0  0  0  0  0
   65.8560   33.3490   50.4460 C   0  0  0  0  0  0  0  0  0  0  0  0
   67.0860   32.6820   50.4560 C   0  0  0  0  0  0  0  0  0  0  0  0
   67.1590   31.3500   50.8750 C   0  0  0  0  0  0  0  0  0  0  0  0
   65.9980   30.6790   51.2710 C   0  0  0  0  0  0  0  0  0  0  0  0
   64.7670   31.3430   51.2590 C   0  0  0  0  0  0  0  0  0  0  0  0
   61.9100   32.0090   48.7790 C   0  0  0  0  0  0  0  0  0  0  0  0
   61.5360   31.5000   47.3880 C   0  0  0  0  0  0  0  0  0  0  0  0
  1  2  2  0
  2  3  1  0
  3  4  2  3
  4  5  1  0
  5  6  1  0
  6  7  1  0
  7  8  2  0
  7  9  1  0
  9 10  1  0
 10 11  1  0
  3 12  1  0
 12 13  2  0
 13 14  1  0
 13 15  1  0
 15 16  1  0
 16 17  2  0
 16 18  1  0
 18 19  1  0
 19 20  1  0
 20 21  1  0
 21 22  1  0
 22 23  2  0
 22 24  1  0
 24 25  1  0
 25 26  2  0
 26 27  1  0
 27 28  2  0
 28 29  1  0
 29 30  2  0
 21 31  1  0
 31 32  1  0
 15  2  1  0
 32 18  1  0
 10  5  2  0
 30 25  1  0
M  CHG  4   6  -1   9  -1  11  -1  24  -1
M  END
>  <UniqueID>  (3111) 
51

>  <SMILES>  (3111) 
C=c1c(=Cc2[n-]c(=O)[n-]c2[O-])cc(C)n1C(=O)N1CCN(C(=O)[N-]c2ccccc2)CC1

>  <Energy>  (3111) 
134.6655013640949

>  <Genealogy>  (3111) 
C=c1c(=Cc2[n-]c(=O)[n-]c2[O-])cc(C)n1C(=O)N1CCN(C(=O)[N-]c2ccccc2)CC1 (protonated)
C=c1c(=Cc2[n-]c(=O)[n-]c2[O-])cc(C)n1C(=O)N1CCN(C(=O)[N-]c2ccccc2)CC1 (3D coordinates assigned)
C=c1c(=Cc2[n-]c(=O)[n-]c2[O-])cc(C)n1C(=O)N1CCN(C(=O)[N-]c2ccccc2)CC1 (nonaromatic ring conformer: 134.6655013640949 kcal/mol)

>  <smiles>  (3111) 
C=c1c(=Cc2[nH]c(=O)[nH]c2O)cc(C)n1C(=O)N1CCN(C(=O)Nc2ccccc2)CC1

>  <score_type>  (3111) 
oracle

>  <origin>  (3111) 
adg

>  <m_score__min__energy>  (3111) 
-19.050000000000001

>  <m_primary>  (3111) 
energy

$$$$
72:0
     RDKit          3D

 33 37  0  0  0  0  0  0  0  0999 V2000
   56.2230   30.6460   44.3020 C   0  0  0  0  0  0  0  0  0  0  0  0
   56.9340   29.8360   45.0910 C   0  0  0  0  0  0  0  0  0  0  0  0
   56.7840   28.4970   45.1170 N   0  0  0  0  0  0  0  0  0  0  0  0
   57.6620   28.0280   46.0350 C   0  0  0  0  0  0  0  0  0  0  0  0
   57.8530   26.7350   46.3340 C   0  0  0  0  0  0  0  0  0  0  0  0
   56.9940   25.6460   45.8350 C   0  0  0  0  0  0  0  0  0  0  0  0
   55.6080   25.6320   45.7170 C   0  0  0  0  0  0  0  0  0  0  0  0
   54.7750   26.7080   46.0010 O   0  0  0  0  0  0  0  0  0  0  0  0
   55.1350   24.4240   45.3280 N   0  0  0  0  0  0  0  0  0  0  0  0
   56.2410   23.6630   45.2200 C   0  0  0  0  0  0  0  0  0  0  0  0
   56.2890   22.3170   44.8620 C   0  0  0  0  0  0  0  0  0  0  0  0
   57.5470   21.6850   44.8260 C   0  0  0  0  0  0  0  0  0  0  0  0
   58.7190   22.4070   45.1480 C   0  0  0  0  0  0  0  0  0  0  0  0
   58.6430   23.7640   45.5090 C   0  0  0  0  0  0  0  0  0  0  0  0
   57.3810   24.3610   45.5340 C   0  0  0  0  0  0  0  0  0  0  0  0
   58.3830   29.0720   46.5940 C   0  0  0  0  0  0  0  0  0  0  0  0
   57.9110   30.2230   45.9930 C   0  0  0  0  0  0  0  0  0  0  0  0
   58.3790   31.5870   46.2760 C   0  0  0  0  0  0  0  0  0  0  0  0
   57.5260   32.5060   46.3800 O   0  0  0  0  0  0  0  0  0  0  0  0
   59.7820   31.8870   46.4260 N   0  0  0  0  0  0  0  0  0  0  0  0
   60.7740   30.8210   46.6330 C   0  0  0  0  0  0  0  0  0  0  0  0
   61.7830   31.2480   47.7060 C   0  0  0  0  0  0  0  0  0  0  0  0
   62.2840   32.6100   47.4670 N   0  0  0  0  0  0  0  0  0  0  0  0
   63.4920   33.0420   48.1150 C   0  0  0  0  0  0  0  0  0  0  0  0
   64.4420   33.4820   47.4110 O   0  0  0  0  0  0  0  0  0  0  0  0
   63.6260   33.0080   49.5510 N   0  0  0  0  0  0  0  0  0  0  0  0
   64.9460   32.8800   50.1780 C   0  0  0  0  0  0  0  0  0  0  0  0
   64.9980   33.7430   51.4430 C   0  0  0  0  0  0  0  0  0  0  0  0
   63.9120   33.4500   52.3010 O   0  0  0  0  0  0  0  0  0  0  0  0
   62.6950   33.8030   51.6700 C   0  0  0  0  0  0  0  0  0  0  0  0
   62.4540   32.9390   50.4300 C   0  0  0  0  0  0  0  0  0  0  0  0
   61.7480   33.4070   46.3590 C   0  0  0  0  0  0  0  0  0  0  0  0
   60.2220   33.2860   46.3150 C   0  0  0  0  0  0  0  0  0  0  0  0
  1  2  2  0
  2  3  1  0
  3  4  1  0
  4  5  2  3
  5  6  1  0
  6  7  2  0
  7  8  1  0
  7  9  1  0
  9 10  1  0
 10 11  2  0
 11 12  1  0
 12 13  2  0
 13 14  1  0
 14 15  2  0
  4 16  1  0
 16 17  2  0
 17 18  1  0
 18 19  2  0
 18 20  1  0
 20 21  1  0
 21 22  1  0
 22 23  1  0
 23 24  1  0
 24 25  2  0
 24 26  1  0
 26 27  1  0
 27 28  1  0
 28 29  1  0
 29 30  1  0
 30 31  1  0
 23 32  1  0
 32 33  1  0
 17  2  1  0
 33 20  1  0
 15  6  1  0
 31 26  1  0
 15 10  1  0
M  CHG  2   8  -1   9  -1
M  END
>  <UniqueID>  (3112) 
70

>  <SMILES>  (3112) 
C=c1[nH]c(=Cc2c([O-])[n-]c3ccccc23)cc1C(=O)N1CCN(C(=O)N2CCOCC2)CC1

>  <Energy>  (3112) 
140.30352255887436

>  <Genealogy>  (3112) 
C=c1[nH]c(=Cc2c([O-])[n-]c3ccccc23)cc1C(=O)N1CCN(C(=O)N2CCOCC2)CC1 (protonated)
C=c1[nH]c(=Cc2c([O-])[n-]c3ccccc23)cc1C(=O)N1CCN(C(=O)N2CCOCC2)CC1 (3D coordinates assigned)
C=c1[nH]c(=Cc2c([O-])[n-]c3ccccc23)cc1C(=O)N1CCN(C(=O)N2CCOCC2)CC1 (nonaromatic ring conformer: 140.30352255887436 kcal/mol)

>  <smiles>  (3112) 
C=c1[nH]c(=Cc2c(O)[nH]c3ccccc23)cc1C(=O)N1CCN(C(=O)N2CCOCC2)CC1

>  <score_type>  (3112) 
oracle

>  <origin>  (3112) 
adg

>  <m_score__min__energy>  (3112) 
-15.130000000000001

>  <m_primary>  (3112) 
energy

$$$$
14:0
     RDKit          3D

 31 34  0  0  0  0  0  0  0  0999 V2000
   57.4680   25.1180   47.5020 C   0  0  0  0  0  0  0  0  0  0  0  0
   57.9040   25.9830   46.5780 C   0  0  0  0  0  0  0  0  0  0  0  0
   58.6980   27.0250   46.9010 N   0  0  0  0  0  0  0  0  0  0  0  0
   58.8540   27.7680   45.7890 C   0  0  0  0  0  0  0  0  0  0  0  0
   59.6810   28.9880   45.7310 C   0  0  0  0  0  0  0  0  0  0  0  0
   60.3470   29.2260   44.6890 O   0  0  0  0  0  0  0  0  0  0  0  0
   59.7450   29.9030   46.8390 N   0  0  0  0  0  0  0  0  0  0  0  0
   60.0690   29.3940   48.1820 C   0  0  0  0  0  0  0  0  0  0  0  0
   60.4510   30.5340   49.1330 C   0  0  0  0  0  0  0  0  0  0  0  0
   61.3660   31.4610   48.4510 N   0  0  0  0  0  0  0  0  0  0  0  0
   62.6410   31.7950   49.0320 C   0  0  0  0  0  0  0  0  0  0  0  0
   63.0700   31.1710   50.2170 C   0  0  0  0  0  0  0  0  0  0  0  0
   64.3030   31.5050   50.7860 C   0  0  0  0  0  0  0  0  0  0  0  0
   65.1150   32.4680   50.1800 C   0  0  0  0  0  0  0  0  0  0  0  0
   66.3090   32.7920   50.7350 F   0  0  0  0  0  0  0  0  0  0  0  0
   64.6950   33.0980   49.0070 C   0  0  0  0  0  0  0  0  0  0  0  0
   63.4630   32.7660   48.4340 C   0  0  0  0  0  0  0  0  0  0  0  0
   61.0100   31.9920   47.1250 C   0  0  0  0  0  0  0  0  0  0  0  0
   59.7230   31.3510   46.5900 C   0  0  0  0  0  0  0  0  0  0  0  0
   58.1790   27.1930   44.7300 C   0  0  0  0  0  0  0  0  0  0  0  0
   57.5820   26.0400   45.2130 C   0  0  0  0  0  0  0  0  0  0  0  0
   56.8720   25.2020   44.4340 C   0  0  0  0  0  0  0  0  0  0  0  0
   55.6540   24.4770   44.8430 C   0  0  0  0  0  0  0  0  0  0  0  0
   54.6560   25.1050   45.6060 C   0  0  0  0  0  0  0  0  0  0  0  0
   54.7730   26.4440   45.9640 O   0  0  0  0  0  0  0  0  0  0  0  0
   53.5650   24.4010   46.0050 N   0  0  0  0  0  0  0  0  0  0  0  0
   53.4260   23.0880   45.6920 C   0  0  0  0  0  0  0  0  0  0  0  0
   52.4050   22.4570   46.0690 O   0  0  0  0  0  0  0  0  0  0  0  0
   54.3900   22.4530   44.9780 N   0  0  0  0  0  0  0  0  0  0  0  0
   55.5000   23.1120   44.5550 C   0  0  0  0  0  0  0  0  0  0  0  0
   56.3790   22.4900   43.9010 O   0  0  0  0  0  0  0  0  0  0  0  0
  1  2  2  0
  2  3  1  0
  3  4  1  0
  4  5  1  0
  5  6  2  0
  5  7  1  0
  7  8  1  0
  8  9  1  0
  9 10  1  0
 10 11  1  0
 11 12  2  0
 12 13  1  0
 13 14  2  0
 14 15  1  0
 14 16  1  0
 16 17  2  0
 10 18  1  0
 18 19  1  0
  4 20  2  0
 20 21  1  0
 21 22  2  3
 22 23  1  0
 23 24  2  0
 24 25  1  0
 24 26  1  0
 26 27  1  0
 27 28  2  0
 27 29  1  0
 29 30  1  0
 30 31  2  0
 21  2  1  0
 30 23  1  0
 19  7  1  0
 17 11  1  0
M  CHG  3  25  -1  26  -1  29  -1
M  END
>  <UniqueID>  (3113) 
15

>  <SMILES>  (3113) 
C=c1[nH]c(C(=O)N2CCN(c3ccc(F)cc3)CC2)cc1=Cc1c([O-])[n-]c(=O)[n-]c1=O

>  <Energy>  (3113) 
101.99604245418553

>  <Genealogy>  (3113) 
C=c1[nH]c(C(=O)N2CCN(c3ccc(F)cc3)CC2)cc1=Cc1c([O-])[n-]c(=O)[n-]c1=O (protonated)
C=c1[nH]c(C(=O)N2CCN(c3ccc(F)cc3)CC2)cc1=Cc1c([O-])[n-]c(=O)[n-]c1=O (3D coordinates assigned)
C=c1[nH]c(C(=O)N2CCN(c3ccc(F)cc3)CC2)cc1=Cc1c([O-])[n-]c(=O)[n-]c1=O (nonaromatic ring conformer: 101.99604245418553 kcal/mol)

>  <smiles>  (3113) 
C=c1[nH]c(C(=O)N2CCN(c3ccc(F)cc3)CC2)cc1=Cc1c(O)[nH]c(=O)[nH]c1=O

>  <score_type>  (3113) 
oracle

>  <origin>  (3113) 
adg

>  <m_score__min__energy>  (3113) 
-15.630000000000001

>  <m_primary>  (3113) 
energy

$$$$
41:0
     RDKit          3D

 27 29  0  0  0  0  0  0  0  0999 V2000
   63.6190   31.8840   47.1180 N   0  0  0  0  0  0  0  0  0  0  0  0
   63.0450   33.5140   47.1470 S   0  0  0  0  0  0  0  0  0  0  0  0
   63.4920   34.2210   45.8980 O   0  0  0  0  0  0  0  0  0  0  0  0
   63.6190   34.2270   48.3380 O   0  0  0  0  0  0  0  0  0  0  0  0
   61.2860   33.5150   47.2400 C   0  0  0  0  0  0  0  0  0  0  0  0
   60.5370   34.3840   46.4350 C   0  0  0  0  0  0  0  0  0  0  0  0
   59.1410   34.3820   46.5120 C   0  0  0  0  0  0  0  0  0  0  0  0
   58.4870   33.5100   47.3870 C   0  0  0  0  0  0  0  0  0  0  0  0
   59.2270   32.6220   48.1830 C   0  0  0  0  0  0  0  0  0  0  0  0
   58.5240   31.7310   49.1730 C   0  0  0  0  0  0  0  0  0  0  0  0
   59.1010   30.3800   49.1260 N   0  0  0  0  0  0  0  0  0  0  0  0
   59.7460   29.8710   50.2180 C   0  0  0  0  0  0  0  0  0  0  0  0
   60.3310   28.6040   50.1660 C   0  0  0  0  0  0  0  0  0  0  0  0
   60.2820   27.8670   48.9820 C   0  0  0  0  0  0  0  0  0  0  0  0
   60.8350   26.7350   48.9350 O   0  0  0  0  0  0  0  0  0  0  0  0
   59.6370   28.4030   47.8530 C   0  0  0  0  0  0  0  0  0  0  0  0
   59.5950   27.6740   46.5630 C   0  0  0  0  0  0  0  0  0  0  0  0
   60.5270   27.8460   45.7310 O   0  0  0  0  0  0  0  0  0  0  0  0
   58.4870   26.7450   46.2280 C   0  0  0  0  0  0  0  0  0  0  0  0
   58.7680   25.4300   45.8170 C   0  0  0  0  0  0  0  0  0  0  0  0
   57.7280   24.5490   45.4990 C   0  0  0  0  0  0  0  0  0  0  0  0
   56.4000   24.9760   45.5750 C   0  0  0  0  0  0  0  0  0  0  0  0
   56.1080   26.2860   45.9640 C   0  0  0  0  0  0  0  0  0  0  0  0
   54.7880   26.7150   46.0220 O   0  0  0  0  0  0  0  0  0  0  0  0
   57.1440   27.1660   46.2880 C   0  0  0  0  0  0  0  0  0  0  0  0
   59.0260   29.6630   47.9650 C   0  0  0  0  0  0  0  0  0  0  0  0
   60.6290   32.6340   48.1080 C   0  0  0  0  0  0  0  0  0  0  0  0
  1  2  1  0
  2  3  2  0
  2  4  2  0
  2  5  1  0
  5  6  2  0
  6  7  1  0
  7  8  2  0
  8  9  1  0
  9 10  1  0
 10 11  1  0
 11 12  1  0
 12 13  2  0
 13 14  1  0
 14 15  2  0
 14 16  1  0
 16 17  1  0
 17 18  2  0
 17 19  1  0
 19 20  2  0
 20 21  1  0
 21 22  2  0
 22 23  1  0
 23 24  1  0
 23 25  2  0
 16 26  2  0
  9 27  2  0
 27  5  1  0
 26 11  1  0
 25 19  1  0
M  CHG  2   1  -1  24  -1
M  END
>  <UniqueID>  (3114) 
42

>  <SMILES>  (3114) 
[NH-]S(=O)(=O)c1cccc(Cn2ccc(=O)c(C(=O)c3cccc([O-])c3)c2)c1

>  <Energy>  (3114) 
48.93337811334622

>  <Genealogy>  (3114) 
[NH-]S(=O)(=O)c1cccc(Cn2ccc(=O)c(C(=O)c3cccc([O-])c3)c2)c1 (protonated)
[NH-]S(=O)(=O)c1cccc(Cn2ccc(=O)c(C(=O)c3cccc([O-])c3)c2)c1 (3D coordinates assigned)
[NH-]S(=O)(=O)c1cccc(Cn2ccc(=O)c(C(=O)c3cccc([O-])c3)c2)c1 (optimized conformer: 48.93337811334622 kcal/mol)

>  <smiles>  (3114) 
NS(=O)(=O)c1cccc(Cn2ccc(=O)c(C(=O)c3cccc(O)c3)c2)c1

>  <score_type>  (3114) 
oracle

>  <origin>  (3114) 
adg

>  <m_score__min__energy>  (3114) 
-15.17

>  <m_primary>  (3114) 
energy

$$$$
49:0
     RDKit          3D

 30 33  0  0  0  0  0  0  0  0999 V2000
   51.6320   29.0990   53.9740 C   0  0  0  0  0  0  0  0  0  0  0  0
   52.9310   29.1680   53.6750 C   0  0  0  0  0  0  0  0  0  0  0  0
   53.7860   28.2870   54.1460 O   0  0  0  0  0  0  0  0  0  0  0  0
   55.0050   28.6440   53.8160 C   0  0  0  0  0  0  0  0  0  0  0  0
   54.9640   29.8100   53.0800 C   0  0  0  0  0  0  0  0  0  0  0  0
   56.1550   30.4620   52.4950 C   0  0  0  0  0  0  0  0  0  0  0  0
   56.1780   30.6630   51.2480 O   0  0  0  0  0  0  0  0  0  0  0  0
   57.2390   30.9460   53.3260 N   0  0  0  0  0  0  0  0  0  0  0  0
   57.8070   32.1820   52.7340 C   0  0  0  0  0  0  0  0  0  0  0  0
   59.2090   32.4670   53.2910 C   0  0  0  0  0  0  0  0  0  0  0  0
   60.1690   31.3670   53.0080 N   0  0  0  0  0  0  0  0  0  0  0  0
   61.1250   31.7220   51.9400 C   0  0  0  0  0  0  0  0  0  0  0  0
   60.3930   32.2120   50.7180 C   0  0  0  0  0  0  0  0  0  0  0  0
   60.3190   33.5850   50.4290 C   0  0  0  0  0  0  0  0  0  0  0  0
   59.6430   34.0280   49.2870 C   0  0  0  0  0  0  0  0  0  0  0  0
   59.0400   33.1060   48.4280 C   0  0  0  0  0  0  0  0  0  0  0  0
   59.1100   31.7380   48.7090 C   0  0  0  0  0  0  0  0  0  0  0  0
   58.5250   30.8440   47.8740 F   0  0  0  0  0  0  0  0  0  0  0  0
   59.7840   31.2910   49.8490 C   0  0  0  0  0  0  0  0  0  0  0  0
   59.5130   30.0740   52.7040 C   0  0  0  0  0  0  0  0  0  0  0  0
   58.2510   29.8780   53.5570 C   0  0  0  0  0  0  0  0  0  0  0  0
   53.6190   30.1550   52.9520 C   0  0  0  0  0  0  0  0  0  0  0  0
   53.1570   31.2480   52.3110 C   0  0  0  0  0  0  0  0  0  0  0  0
   52.2090   31.2420   51.1860 C   0  0  0  0  0  0  0  0  0  0  0  0
   52.2290   30.3550   50.1730 N   0  0  0  0  0  0  0  0  0  0  0  0
   51.2900   30.8310   49.3250 C   0  0  0  0  0  0  0  0  0  0  0  0
   50.9990   30.2540   48.2450 O   0  0  0  0  0  0  0  0  0  0  0  0
   50.6980   31.9770   49.7210 N   0  0  0  0  0  0  0  0  0  0  0  0
   51.3020   32.2300   50.8920 C   0  0  0  0  0  0  0  0  0  0  0  0
   51.0350   33.3470   51.6740 O   0  0  0  0  0  0  0  0  0  0  0  0
  1  2  2  0
  2  3  1  0
  3  4  1  0
  4  5  2  0
  5  6  1  0
  6  7  2  0
  6  8  1  0
  8  9  1  0
  9 10  1  0
 10 11  1  0
 11 12  1  0
 12 13  1  0
 13 14  2  0
 14 15  1  0
 15 16  2  0
 16 17  1  0
 17 18  1  0
 17 19  2  0
 11 20  1  0
 20 21  1  0
  5 22  1  0
 22 23  2  3
 23 24  1  0
 24 25  1  0
 25 26  1  0
 26 27  2  0
 26 28  1  0
 28 29  1  0
 29 30  1  0
 22  2  1  0
 29 24  2  0
 21  8  1  0
 19 13  1  0
M  CHG  4   8   1  25  -1  28  -1  30  -1
M  END
>  <UniqueID>  (3115) 
49

>  <SMILES>  (3115) 
C=c1occ(C(=O)[NH+]2CCN(Cc3cccc(F)c3)CC2)c1=Cc1[n-]c(=O)[n-]c1[O-]

>  <Energy>  (3115) 
139.80329279614978

>  <Genealogy>  (3115) 
C=c1occ(C(=O)[NH+]2CCN(Cc3cccc(F)c3)CC2)c1=Cc1[n-]c(=O)[n-]c1[O-] (protonated)
C=c1occ(C(=O)[NH+]2CCN(Cc3cccc(F)c3)CC2)c1=Cc1[n-]c(=O)[n-]c1[O-] (3D coordinates assigned)
C=c1occ(C(=O)[NH+]2CCN(Cc3cccc(F)c3)CC2)c1=Cc1[n-]c(=O)[n-]c1[O-] (nonaromatic ring conformer: 139.80329279614978 kcal/mol)

>  <smiles>  (3115) 
C=c1occ(C(=O)N2CCN(Cc3cccc(F)c3)CC2)c1=Cc1[nH]c(=O)[nH]c1O

>  <score_type>  (3115) 
oracle

>  <origin>  (3115) 
adg

>  <m_score__min__energy>  (3115) 
-15.65

>  <m_primary>  (3115) 
energy

$$$$
50:0
     RDKit          3D

 27 29  0  0  0  0  0  0  0  0999 V2000
   59.1520   30.2500   46.5310 C   0  0  0  0  0  0  0  0  0  0  0  0
   58.2430   29.7840   45.6590 C   0  0  0  0  0  0  0  0  0  0  0  0
   57.5280   28.5830   45.7670 C   0  0  0  0  0  0  0  0  0  0  0  0
   57.6200   27.6730   46.7620 C   0  0  0  0  0  0  0  0  0  0  0  0
   57.1530   26.2700   46.6960 C   0  0  0  0  0  0  0  0  0  0  0  0
   57.8820   25.1780   46.9910 N   0  0  0  0  0  0  0  0  0  0  0  0
   57.0100   24.1600   46.8210 C   0  0  0  0  0  0  0  0  0  0  0  0
   57.3300   22.9570   47.0040 O   0  0  0  0  0  0  0  0  0  0  0  0
   55.7700   24.5330   46.4440 N   0  0  0  0  0  0  0  0  0  0  0  0
   55.8770   25.8700   46.3750 C   0  0  0  0  0  0  0  0  0  0  0  0
   54.8260   26.7100   46.0240 O   0  0  0  0  0  0  0  0  0  0  0  0
   56.6880   28.5350   44.6610 C   0  0  0  0  0  0  0  0  0  0  0  0
   56.9190   29.6840   43.9350 C   0  0  0  0  0  0  0  0  0  0  0  0
   56.2120   30.0390   42.6610 C   0  0  0  0  0  0  0  0  0  0  0  0
   57.8750   30.4380   44.5250 N   0  0  0  0  0  0  0  0  0  0  0  0
   58.3470   31.7470   44.0510 C   0  0  0  0  0  0  0  0  0  0  0  0
   57.7850   32.8650   44.9320 C   0  0  0  0  0  0  0  0  0  0  0  0
   58.8760   33.4920   45.7450 C   0  0  0  0  0  0  0  0  0  0  0  0
   59.5250   34.4590   45.2640 O   0  0  0  0  0  0  0  0  0  0  0  0
   59.1110   33.0470   47.0900 N   0  0  0  0  0  0  0  0  0  0  0  0
   60.2280   33.4640   47.8950 C   0  0  0  0  0  0  0  0  0  0  0  0
   60.0140   33.8150   49.2380 C   0  0  0  0  0  0  0  0  0  0  0  0
   61.0870   34.2030   50.0480 C   0  0  0  0  0  0  0  0  0  0  0  0
   62.3830   34.2300   49.5260 C   0  0  0  0  0  0  0  0  0  0  0  0
   63.4230   34.6050   50.3130 F   0  0  0  0  0  0  0  0  0  0  0  0
   62.6100   33.8620   48.1980 C   0  0  0  0  0  0  0  0  0  0  0  0
   61.5400   33.4750   47.3850 C   0  0  0  0  0  0  0  0  0  0  0  0
  1  2  2  0
  2  3  1  0
  3  4  2  0
  4  5  1  0
  5  6  1  0
  6  7  1  0
  7  8  2  0
  7  9  1  0
  9 10  1  0
 10 11  1  0
  3 12  1  0
 12 13  2  0
 13 14  1  0
 13 15  1  0
 15 16  1  0
 16 17  1  0
 17 18  1  0
 18 19  2  0
 18 20  1  0
 20 21  1  0
 21 22  2  0
 22 23  1  0
 23 24  2  0
 24 25  1  0
 24 26  1  0
 26 27  2  0
 15  2  1  0
 27 21  1  0
 10  5  2  0
M  CHG  3   6  -1   9  -1  11  -1
M  END
>  <UniqueID>  (3116) 
50

>  <SMILES>  (3116) 
C=c1/c(=C/c2[n-]c(=O)[n-]c2[O-])cc(C)n1CCC(=O)Nc1ccc(F)cc1

>  <Energy>  (3116) 
106.33952594981996

>  <Genealogy>  (3116) 
C=c1c(=Cc2[n-]c(=O)[n-]c2[O-])cc(C)n1CCC(=O)Nc1ccc(F)cc1 (protonated)
C=c1/c(=C/c2[n-]c(=O)[n-]c2[O-])cc(C)n1CCC(=O)Nc1ccc(F)cc1 (cis-trans isomerization)
C=c1/c(=C/c2[n-]c(=O)[n-]c2[O-])cc(C)n1CCC(=O)Nc1ccc(F)cc1 (3D coordinates assigned)
C=c1/c(=C/c2[n-]c(=O)[n-]c2[O-])cc(C)n1CCC(=O)Nc1ccc(F)cc1 (optimized conformer: 106.33952594981996 kcal/mol)

>  <smiles>  (3116) 
C=c1c(=Cc2[nH]c(=O)[nH]c2O)cc(C)n1CCC(=O)Nc1ccc(F)cc1

>  <score_type>  (3116) 
oracle

>  <origin>  (3116) 
adg

>  <m_score__min__energy>  (3116) 
-15.949999999999999

>  <m_primary>  (3116) 
energy

$$$$
62:0
     RDKit          3D

 28 31  0  0  0  0  0  0  0  0999 V2000
   57.3030   23.3530   45.7220 C   0  0  0  0  0  0  0  0  0  0  0  0
   57.8420   24.5600   46.0380 N   0  0  0  0  0  0  0  0  0  0  0  0
   57.0880   25.6830   46.2010 C   0  0  0  0  0  0  0  0  0  0  0  0
   57.7110   26.7870   46.5140 N   0  0  0  0  0  0  0  0  0  0  0  0
   58.5200   27.6380   45.6900 C   0  0  0  0  0  0  0  0  0  0  0  0
   59.7660   27.4570   45.6170 O   0  0  0  0  0  0  0  0  0  0  0  0
   57.8920   28.7010   44.8770 C   0  0  0  0  0  0  0  0  0  0  0  0
   57.3910   28.3450   43.6120 C   0  0  0  0  0  0  0  0  0  0  0  0
   56.8710   29.3140   42.7540 C   0  0  0  0  0  0  0  0  0  0  0  0
   56.8520   30.6510   43.1410 C   0  0  0  0  0  0  0  0  0  0  0  0
   57.3220   31.0220   44.4000 C   0  0  0  0  0  0  0  0  0  0  0  0
   57.8080   30.0550   45.3040 C   0  0  0  0  0  0  0  0  0  0  0  0
   58.2330   30.4960   46.6950 C   0  0  0  0  0  0  0  0  0  0  0  0
   58.7780   31.9050   46.7110 C   0  0  0  0  0  0  0  0  0  0  0  0
   57.9020   32.9300   46.5300 N   0  0  0  0  0  0  0  0  0  0  0  0
   58.2860   34.2050   46.5480 N   0  0  0  0  0  0  0  0  0  0  0  0
   59.5800   34.5580   46.7510 C   0  0  0  0  0  0  0  0  0  0  0  0
   59.8910   35.7790   46.7590 O   0  0  0  0  0  0  0  0  0  0  0  0
   60.5480   33.5610   46.9490 C   0  0  0  0  0  0  0  0  0  0  0  0
   61.9000   33.8840   47.1670 C   0  0  0  0  0  0  0  0  0  0  0  0
   62.8440   32.8750   47.3620 C   0  0  0  0  0  0  0  0  0  0  0  0
   62.4520   31.5370   47.3420 C   0  0  0  0  0  0  0  0  0  0  0  0
   61.1160   31.1970   47.1260 C   0  0  0  0  0  0  0  0  0  0  0  0
   60.1440   32.2020   46.9290 C   0  0  0  0  0  0  0  0  0  0  0  0
   55.6870   25.5980   45.9830 C   0  0  0  0  0  0  0  0  0  0  0  0
   54.8580   26.7130   46.0090 O   0  0  0  0  0  0  0  0  0  0  0  0
   55.1200   24.3580   45.6770 C   0  0  0  0  0  0  0  0  0  0  0  0
   55.9270   23.2280   45.5480 C   0  0  0  0  0  0  0  0  0  0  0  0
  1  2  1  0
  2  3  1  0
  3  4  2  0
  4  5  1  0
  5  6  2  0
  5  7  1  0
  7  8  2  0
  8  9  1  0
  9 10  2  0
 10 11  1  0
 11 12  2  0
 12 13  1  0
 13 14  1  0
 14 15  2  0
 15 16  1  0
 16 17  1  0
 17 18  2  0
 17 19  1  0
 19 20  2  0
 20 21  1  0
 21 22  2  0
 22 23  1  0
 23 24  2  0
  3 25  1  0
 25 26  1  0
 25 27  2  0
 27 28  1  0
 28  1  2  0
 12  7  1  0
 24 14  1  0
 24 19  1  0
M  CHG  3   2  -1  16  -1  26  -1
M  END
>  <UniqueID>  (3117) 
62

>  <SMILES>  (3117) 
O=C(/N=c1/[n-]cccc1[O-])c1ccccc1Cc1n[n-]c(=O)c2ccccc12

>  <Energy>  (3117) 
73.24963654504472

>  <Genealogy>  (3117) 
O=C(N=c1[n-]cccc1[O-])c1ccccc1Cc1n[n-]c(=O)c2ccccc12 (protonated)
O=C(/N=c1/[n-]cccc1[O-])c1ccccc1Cc1n[n-]c(=O)c2ccccc12 (cis-trans isomerization)
O=C(/N=c1/[n-]cccc1[O-])c1ccccc1Cc1n[n-]c(=O)c2ccccc12 (3D coordinates assigned)
O=C(/N=c1/[n-]cccc1[O-])c1ccccc1Cc1n[n-]c(=O)c2ccccc12 (optimized conformer: 73.24963654504472 kcal/mol)

>  <smiles>  (3117) 
O=C(N=c1[nH]cccc1O)c1ccccc1Cc1n[nH]c(=O)c2ccccc12

>  <score_type>  (3117) 
oracle

>  <origin>  (3117) 
adg

>  <m_score__min__energy>  (3117) 
-14.890000000000001

>  <m_primary>  (3117) 
energy

$$$$
82:0
     RDKit          3D

 27 29  0  0  0  0  0  0  0  0999 V2000
   57.1110   29.6000   43.2460 C   0  0  0  0  0  0  0  0  0  0  0  0
   57.1640   30.8020   43.8780 N   0  0  0  0  0  0  0  0  0  0  0  0
   57.3830   30.9110   45.2150 C   0  0  0  0  0  0  0  0  0  0  0  0
   57.4140   32.1040   45.7450 N   0  0  0  0  0  0  0  0  0  0  0  0
   58.4510   33.0970   45.6430 C   0  0  0  0  0  0  0  0  0  0  0  0
   58.1940   34.1750   45.0440 O   0  0  0  0  0  0  0  0  0  0  0  0
   59.7860   32.9210   46.2650 C   0  0  0  0  0  0  0  0  0  0  0  0
   60.6790   34.0030   46.3710 C   0  0  0  0  0  0  0  0  0  0  0  0
   61.9000   33.8480   47.0340 C   0  0  0  0  0  0  0  0  0  0  0  0
   62.2470   32.6130   47.5870 C   0  0  0  0  0  0  0  0  0  0  0  0
   63.7730   32.4240   48.4300 Cl  0  0  0  0  0  0  0  0  0  0  0  0
   61.3760   31.5260   47.4680 C   0  0  0  0  0  0  0  0  0  0  0  0
   60.1530   31.6760   46.8060 C   0  0  0  0  0  0  0  0  0  0  0  0
   57.5950   29.7380   45.9670 C   0  0  0  0  0  0  0  0  0  0  0  0
   57.5070   28.4760   45.3540 C   0  0  0  0  0  0  0  0  0  0  0  0
   57.5990   27.2220   46.1540 C   0  0  0  0  0  0  0  0  0  0  0  0
   58.2140   27.2250   47.2550 O   0  0  0  0  0  0  0  0  0  0  0  0
   57.0580   25.9380   45.6610 C   0  0  0  0  0  0  0  0  0  0  0  0
   55.6750   25.7160   45.6280 C   0  0  0  0  0  0  0  0  0  0  0  0
   54.7860   26.7100   46.0280 O   0  0  0  0  0  0  0  0  0  0  0  0
   55.1820   24.4820   45.2100 C   0  0  0  0  0  0  0  0  0  0  0  0
   56.0720   23.4720   44.8340 C   0  0  0  0  0  0  0  0  0  0  0  0
   55.6130   22.3500   44.4830 O   0  0  0  0  0  0  0  0  0  0  0  0
   57.4250   23.6990   44.8500 N   0  0  0  0  0  0  0  0  0  0  0  0
   58.3540   22.6220   44.4850 C   0  0  0  0  0  0  0  0  0  0  0  0
   57.9190   24.9120   45.2460 C   0  0  0  0  0  0  0  0  0  0  0  0
   57.2700   28.4190   43.9720 C   0  0  0  0  0  0  0  0  0  0  0  0
  1  2  1  0
  2  3  1  0
  3  4  2  0
  4  5  1  0
  5  6  2  0
  5  7  1  0
  7  8  2  0
  8  9  1  0
  9 10  2  0
 10 11  1  0
 10 12  1  0
 12 13  2  0
  3 14  1  0
 14 15  2  0
 15 16  1  0
 16 17  2  0
 16 18  1  0
 18 19  1  0
 19 20  1  0
 19 21  2  0
 21 22  1  0
 22 23  2  0
 22 24  1  0
 24 25  1  0
 24 26  1  0
 15 27  1  0
 27  1  2  0
 13  7  1  0
 26 18  2  0
M  CHG  2   2  -1  20  -1
M  END
>  <UniqueID>  (3118) 
81

>  <SMILES>  (3118) 
Cn1cc(C(=O)c2cc[n-]/c(=N/C(=O)c3ccc(Cl)cc3)c2)c([O-])cc1=O

>  <Energy>  (3118) 
60.72003610347336

>  <Genealogy>  (3118) 
Cn1cc(C(=O)c2cc[n-]c(=NC(=O)c3ccc(Cl)cc3)c2)c([O-])cc1=O (protonated)
Cn1cc(C(=O)c2cc[n-]/c(=N/C(=O)c3ccc(Cl)cc3)c2)c([O-])cc1=O (cis-trans isomerization)
Cn1cc(C(=O)c2cc[n-]/c(=N/C(=O)c3ccc(Cl)cc3)c2)c([O-])cc1=O (3D coordinates assigned)
Cn1cc(C(=O)c2cc[n-]/c(=N/C(=O)c3ccc(Cl)cc3)c2)c([O-])cc1=O (optimized conformer: 60.72003610347336 kcal/mol)

>  <smiles>  (3118) 
Cn1cc(C(=O)c2cc[nH]c(=NC(=O)c3ccc(Cl)cc3)c2)c(O)cc1=O

>  <score_type>  (3118) 
oracle

>  <origin>  (3118) 
adg

>  <m_score__min__energy>  (3118) 
-14.1

>  <m_primary>  (3118) 
energy

$$$$
89:0
     RDKit          3D

 30 32  0  0  0  0  0  0  0  0999 V2000
   60.2550   27.5370   45.9990 C   0  0  0  0  0  0  0  0  0  0  0  0
   59.1800   28.1530   45.4810 C   0  0  0  0  0  0  0  0  0  0  0  0
   58.1210   27.5540   44.7790 C   0  0  0  0  0  0  0  0  0  0  0  0
   57.7850   26.2600   44.6120 C   0  0  0  0  0  0  0  0  0  0  0  0
   57.1520   25.3960   45.6230 C   0  0  0  0  0  0  0  0  0  0  0  0
   57.7360   24.3260   46.1950 N   0  0  0  0  0  0  0  0  0  0  0  0
   56.8470   23.9590   47.1450 C   0  0  0  0  0  0  0  0  0  0  0  0
   57.0330   22.9690   47.8990 O   0  0  0  0  0  0  0  0  0  0  0  0
   55.7510   24.7440   47.2320 N   0  0  0  0  0  0  0  0  0  0  0  0
   55.9700   25.6570   46.2710 C   0  0  0  0  0  0  0  0  0  0  0  0
   55.1090   26.7130   45.9970 O   0  0  0  0  0  0  0  0  0  0  0  0
   57.3720   28.5910   44.2500 C   0  0  0  0  0  0  0  0  0  0  0  0
   57.9460   29.7620   44.6900 C   0  0  0  0  0  0  0  0  0  0  0  0
   57.3920   31.1010   44.4340 C   0  0  0  0  0  0  0  0  0  0  0  0
   56.2130   31.3620   44.7890 O   0  0  0  0  0  0  0  0  0  0  0  0
   58.1720   32.1200   43.7920 N   0  0  0  0  0  0  0  0  0  0  0  0
   58.1100   33.5410   44.1320 C   0  0  0  0  0  0  0  0  0  0  0  0
   58.6570   33.7720   45.5180 C   0  0  0  0  0  0  0  0  0  0  0  0
   59.8800   34.4460   45.6810 C   0  0  0  0  0  0  0  0  0  0  0  0
   60.4290   34.6040   46.9580 C   0  0  0  0  0  0  0  0  0  0  0  0
   59.7590   34.1010   48.0800 C   0  0  0  0  0  0  0  0  0  0  0  0
   60.2980   34.2540   49.3170 F   0  0  0  0  0  0  0  0  0  0  0  0
   58.5400   33.4330   47.9250 C   0  0  0  0  0  0  0  0  0  0  0  0
   57.9830   33.2780   46.6500 C   0  0  0  0  0  0  0  0  0  0  0  0
   59.0340   29.5040   45.4530 N   0  0  0  0  0  0  0  0  0  0  0  0
   59.8880   30.5130   46.0950 C   0  0  0  0  0  0  0  0  0  0  0  0
   59.8770   30.3310   47.6150 C   0  0  0  0  0  0  0  0  0  0  0  0
   61.1480   30.9090   48.2500 C   0  0  0  0  0  0  0  0  0  0  0  0
   62.1360   31.3690   47.1720 C   0  0  0  0  0  0  0  0  0  0  0  0
   63.0590   32.4670   47.6970 C   0  0  0  0  0  0  0  0  0  0  0  0
  1  2  2  0
  2  3  1  0
  3  4  2  0
  4  5  1  0
  5  6  1  0
  6  7  1  0
  7  8  2  0
  7  9  1  0
  9 10  1  0
 10 11  1  0
  3 12  1  0
 12 13  2  0
 13 14  1  0
 14 15  2  0
 14 16  1  0
 16 17  1  0
 17 18  1  0
 18 19  2  0
 19 20  1  0
 20 21  2  0
 21 22  1  0
 21 23  1  0
 23 24  2  0
 13 25  1  0
 25 26  1  0
 26 27  1  0
 27 28  1  0
 28 29  1  0
 29 30  1  0
 25  2  1  0
 10  5  2  0
 24 18  1  0
M  CHG  4   6  -1   9  -1  11  -1  16  -1
M  END
>  <UniqueID>  (3119) 
88

>  <SMILES>  (3119) 
C=c1/c(=C\c2[n-]c(=O)[n-]c2[O-])cc(C(=O)[N-]Cc2ccc(F)cc2)n1CCCCC

>  <Energy>  (3119) 
113.32309228668785

>  <Genealogy>  (3119) 
C=c1c(=Cc2[n-]c(=O)[n-]c2[O-])cc(C(=O)[N-]Cc2ccc(F)cc2)n1CCCCC (protonated)
C=c1/c(=C\c2[n-]c(=O)[n-]c2[O-])cc(C(=O)[N-]Cc2ccc(F)cc2)n1CCCCC (cis-trans isomerization)
C=c1/c(=C\c2[n-]c(=O)[n-]c2[O-])cc(C(=O)[N-]Cc2ccc(F)cc2)n1CCCCC (3D coordinates assigned)
C=c1/c(=C\c2[n-]c(=O)[n-]c2[O-])cc(C(=O)[N-]Cc2ccc(F)cc2)n1CCCCC (optimized conformer: 113.32309228668785 kcal/mol)

>  <smiles>  (3119) 
C=c1c(=Cc2[nH]c(=O)[nH]c2O)cc(C(=O)NCc2ccc(F)cc2)n1CCCCC

>  <score_type>  (3119) 
oracle

>  <origin>  (3119) 
adg

>  <m_score__min__energy>  (3119) 
-17.52

>  <m_primary>  (3119) 
energy

$$$$
1:0
     RDKit          3D

 29 32  0  0  0  0  0  0  0  0999 V2000
   56.9670   31.4580   44.0540 C   0  0  0  0  0  0  0  0  0  0  0  0
   57.4810   30.5540   44.8940 C   0  0  0  0  0  0  0  0  0  0  0  0
   57.3780   29.2360   44.5770 N   0  0  0  0  0  0  0  0  0  0  0  0
   57.8620   28.2440   45.3730 C   0  0  0  0  0  0  0  0  0  0  0  0
   57.7510   26.9550   45.0080 C   0  0  0  0  0  0  0  0  0  0  0  0
   57.1340   25.9030   45.8390 C   0  0  0  0  0  0  0  0  0  0  0  0
   57.8390   24.8950   46.3840 N   0  0  0  0  0  0  0  0  0  0  0  0
   56.9200   24.2140   47.1000 C   0  0  0  0  0  0  0  0  0  0  0  0
   57.2030   23.1790   47.7570 O   0  0  0  0  0  0  0  0  0  0  0  0
   55.6760   24.7340   47.0630 N   0  0  0  0  0  0  0  0  0  0  0  0
   55.8260   25.8080   46.2700 C   0  0  0  0  0  0  0  0  0  0  0  0
   54.8000   26.7040   45.9970 O   0  0  0  0  0  0  0  0  0  0  0  0
   58.5130   28.5850   46.5690 C   0  0  0  0  0  0  0  0  0  0  0  0
   58.6540   29.9320   46.9330 C   0  0  0  0  0  0  0  0  0  0  0  0
   59.3250   30.2750   48.2090 C   0  0  0  0  0  0  0  0  0  0  0  0
   58.6340   30.3770   49.2600 O   0  0  0  0  0  0  0  0  0  0  0  0
   60.7470   30.4930   48.2710 N   0  0  0  0  0  0  0  0  0  0  0  0
   61.4070   31.2880   47.2230 C   0  0  0  0  0  0  0  0  0  0  0  0
   62.8700   31.5930   47.5730 C   0  0  0  0  0  0  0  0  0  0  0  0
   62.9880   32.0180   48.9770 N   0  0  0  0  0  0  0  0  0  0  0  0
   63.9310   33.0470   49.3420 C   0  0  0  0  0  0  0  0  0  0  0  0
   64.8090   33.4220   48.5170 O   0  0  0  0  0  0  0  0  0  0  0  0
   63.9240   33.6540   50.7190 C   0  0  0  0  0  0  0  0  0  0  0  0
   64.5530   32.7970   51.8080 C   0  0  0  0  0  0  0  0  0  0  0  0
   65.3030   33.9970   51.2610 C   0  0  0  0  0  0  0  0  0  0  0  0
   62.2590   31.2880   50.0280 C   0  0  0  0  0  0  0  0  0  0  0  0
   61.5050   30.0840   49.4580 C   0  0  0  0  0  0  0  0  0  0  0  0
   58.1250   30.9300   46.0920 C   0  0  0  0  0  0  0  0  0  0  0  0
   58.2430   32.1490   46.4030 O   0  0  0  0  0  0  0  0  0  0  0  0
  1  2  2  0
  2  3  1  0
  3  4  1  0
  4  5  2  3
  5  6  1  0
  6  7  1  0
  7  8  1  0
  8  9  2  0
  8 10  1  0
 10 11  1  0
 11 12  1  0
  4 13  1  0
 13 14  2  0
 14 15  1  0
 15 16  2  0
 15 17  1  0
 17 18  1  0
 18 19  1  0
 19 20  1  0
 20 21  1  0
 21 22  2  0
 21 23  1  0
 23 24  1  0
 24 25  1  0
 20 26  1  0
 26 27  1  0
 14 28  1  0
 28 29  2  0
 28  2  1  0
 11  6  2  0
 27 17  1  0
 25 23  1  0
M  CHG  4   3  -1   7  -1  10  -1  12  -1
M  END
>  <UniqueID>  (3120) 
2

>  <SMILES>  (3120) 
C=c1[n-]c(=Cc2[n-]c(=O)[n-]c2[O-])cc(C(=O)N2CCN(C(=O)C3CC3)CC2)c1=O

>  <Energy>  (3120) 
355.26244804088975

>  <Genealogy>  (3120) 
C=c1[n-]c(=Cc2[n-]c(=O)[n-]c2[O-])cc(C(=O)N2CCN(C(=O)C3CC3)CC2)c1=O (protonated)
C=c1[n-]c(=Cc2[n-]c(=O)[n-]c2[O-])cc(C(=O)N2CCN(C(=O)C3CC3)CC2)c1=O (3D coordinates assigned)
C=c1[n-]c(=Cc2[n-]c(=O)[n-]c2[O-])cc(C(=O)N2CCN(C(=O)C3CC3)CC2)c1=O (nonaromatic ring conformer: 355.26244804088975 kcal/mol)

>  <smiles>  (3120) 
C=c1[nH]c(=Cc2[nH]c(=O)[nH]c2O)cc(C(=O)N2CCN(C(=O)C3CC3)CC2)c1=O

>  <score_type>  (3120) 
oracle

>  <origin>  (3120) 
adg

>  <m_score__min__energy>  (3120) 
-18.390000000000001

>  <m_primary>  (3120) 
energy

$$$$
8:0
     RDKit          3D

 29 31  0  0  0  0  0  0  0  0999 V2000
   55.4180   26.3530   45.9800 N   0  0  0  0  0  0  0  0  0  0  0  0
   55.1630   24.9710   45.7320 C   0  0  0  0  0  0  0  0  0  0  0  0
   54.0540   24.4810   46.0750 O   0  0  0  0  0  0  0  0  0  0  0  0
   56.1580   24.1240   45.0270 C   0  0  0  0  0  0  0  0  0  0  0  0
   57.4320   23.9550   45.4590 C   0  0  0  0  0  0  0  0  0  0  0  0
   57.9130   24.4360   46.7790 C   0  0  0  0  0  0  0  0  0  0  0  0
   57.4030   23.9700   47.8320 O   0  0  0  0  0  0  0  0  0  0  0  0
   59.0230   25.3380   46.8960 N   0  0  0  0  0  0  0  0  0  0  0  0
   59.0060   26.7420   46.6090 C   0  0  0  0  0  0  0  0  0  0  0  0
   57.8240   27.4600   46.8340 C   0  0  0  0  0  0  0  0  0  0  0  0
   57.7680   28.8310   46.5710 C   0  0  0  0  0  0  0  0  0  0  0  0
   58.8870   29.4970   46.0510 C   0  0  0  0  0  0  0  0  0  0  0  0
   58.8280   30.9470   45.7820 C   0  0  0  0  0  0  0  0  0  0  0  0
   59.6230   31.8030   46.5620 C   0  0  0  0  0  0  0  0  0  0  0  0
   59.6250   33.1780   46.3280 C   0  0  0  0  0  0  0  0  0  0  0  0
   58.8330   33.7140   45.3140 C   0  0  0  0  0  0  0  0  0  0  0  0
   58.0280   32.8790   44.5370 C   0  0  0  0  0  0  0  0  0  0  0  0
   58.0040   31.4930   44.7670 C   0  0  0  0  0  0  0  0  0  0  0  0
   56.9200   30.4900   43.7890 S   0  0  0  0  0  0  0  0  0  0  0  0
   55.4310   30.2440   44.6300 N   0  0  0  0  0  0  0  0  0  0  0  0
   57.5590   29.1560   43.5230 O   0  0  0  0  0  0  0  0  0  0  0  0
   56.6490   31.1540   42.4680 O   0  0  0  0  0  0  0  0  0  0  0  0
   60.0670   28.7780   45.8090 C   0  0  0  0  0  0  0  0  0  0  0  0
   60.1250   27.4060   46.0710 C   0  0  0  0  0  0  0  0  0  0  0  0
   61.2570   26.7270   45.7610 F   0  0  0  0  0  0  0  0  0  0  0  0
   58.3910   23.1860   44.5760 C   0  0  0  0  0  0  0  0  0  0  0  0
   57.7510   21.8870   44.0590 C   0  0  0  0  0  0  0  0  0  0  0  0
   56.2750   22.0470   43.6220 C   0  0  0  0  0  0  0  0  0  0  0  0
   55.7620   23.4930   43.7110 C   0  0  0  0  0  0  0  0  0  0  0  0
  1  2  1  0
  2  3  2  0
  2  4  1  0
  4  5  2  0
  5  6  1  0
  6  7  2  0
  6  8  1  0
  8  9  1  0
  9 10  2  0
 10 11  1  0
 11 12  2  0
 12 13  1  0
 13 14  2  0
 14 15  1  0
 15 16  2  0
 16 17  1  0
 17 18  2  0
 18 19  1  0
 19 20  1  0
 19 21  2  0
 19 22  2  0
 12 23  1  0
 23 24  2  0
 24 25  1  0
  5 26  1  0
 26 27  1  0
 27 28  1  0
 28 29  1  0
 29  4  1  0
 24  9  1  0
 18 13  1  0
M  CHG  3   1  -1   8  -1  20  -1
M  END
>  <UniqueID>  (3121) 
9

>  <SMILES>  (3121) 
[NH-]C(=O)C1=C(C(=O)[N-]c2ccc(-c3ccccc3S([NH-])(=O)=O)cc2F)CCCC1

>  <Energy>  (3121) 
72.30541971659406

>  <Genealogy>  (3121) 
[NH-]C(=O)C1=C(C(=O)[N-]c2ccc(-c3ccccc3S([NH-])(=O)=O)cc2F)CCCC1 (protonated)
[NH-]C(=O)C1=C(C(=O)[N-]c2ccc(-c3ccccc3S([NH-])(=O)=O)cc2F)CCCC1 (3D coordinates assigned)
[NH-]C(=O)C1=C(C(=O)[N-]c2ccc(-c3ccccc3S([NH-])(=O)=O)cc2F)CCCC1 (nonaromatic ring conformer: 72.30541971659406 kcal/mol)

>  <smiles>  (3121) 
NC(=O)C1=C(C(=O)Nc2ccc(-c3ccccc3S(N)(=O)=O)cc2F)CCCC1

>  <score_type>  (3121) 
oracle

>  <origin>  (3121) 
adg

>  <m_score__min__energy>  (3121) 
-16.77

>  <m_primary>  (3121) 
energy

$$$$
19:0
     RDKit          3D

 26 28  0  0  0  0  0  0  0  0999 V2000
   56.7740   30.6170   43.3770 C   0  0  0  0  0  0  0  0  0  0  0  0
   57.3600   30.7580   44.5690 C   0  0  0  0  0  0  0  0  0  0  0  0
   57.3220   31.8970   45.2240 O   0  0  0  0  0  0  0  0  0  0  0  0
   58.0360   31.7860   46.3190 C   0  0  0  0  0  0  0  0  0  0  0  0
   58.1940   32.8720   47.2980 C   0  0  0  0  0  0  0  0  0  0  0  0
   57.7660   32.6930   48.4690 O   0  0  0  0  0  0  0  0  0  0  0  0
   58.7720   34.1400   46.9620 N   0  0  0  0  0  0  0  0  0  0  0  0
   59.9920   34.3430   46.1820 C   0  0  0  0  0  0  0  0  0  0  0  0
   61.2230   34.0440   46.9950 C   0  0  0  0  0  0  0  0  0  0  0  0
   61.1420   33.9730   48.3970 C   0  0  0  0  0  0  0  0  0  0  0  0
   62.2780   33.6700   49.1540 C   0  0  0  0  0  0  0  0  0  0  0  0
   63.4960   33.4160   48.5210 C   0  0  0  0  0  0  0  0  0  0  0  0
   63.5810   33.4570   47.1260 C   0  0  0  0  0  0  0  0  0  0  0  0
   62.4480   33.7620   46.3630 C   0  0  0  0  0  0  0  0  0  0  0  0
   58.5580   30.5120   46.4160 C   0  0  0  0  0  0  0  0  0  0  0  0
   58.1150   29.8280   45.2980 C   0  0  0  0  0  0  0  0  0  0  0  0
   58.3950   28.5320   45.0700 C   0  0  0  0  0  0  0  0  0  0  0  0
   57.6030   27.3880   45.5570 C   0  0  0  0  0  0  0  0  0  0  0  0
   56.2020   27.4500   45.6190 C   0  0  0  0  0  0  0  0  0  0  0  0
   55.5220   28.5810   45.1810 O   0  0  0  0  0  0  0  0  0  0  0  0
   55.4980   26.3980   46.1130 N   0  0  0  0  0  0  0  0  0  0  0  0
   56.1310   25.2850   46.5670 C   0  0  0  0  0  0  0  0  0  0  0  0
   55.4580   24.3210   47.0170 O   0  0  0  0  0  0  0  0  0  0  0  0
   57.4860   25.2130   46.5420 N   0  0  0  0  0  0  0  0  0  0  0  0
   58.2340   26.2380   46.0560 C   0  0  0  0  0  0  0  0  0  0  0  0
   59.4900   26.1410   46.0540 O   0  0  0  0  0  0  0  0  0  0  0  0
  1  2  2  0
  2  3  1  0
  3  4  1  0
  4  5  1  0
  5  6  2  0
  5  7  1  0
  7  8  1  0
  8  9  1  0
  9 10  2  0
 10 11  1  0
 11 12  2  0
 12 13  1  0
 13 14  2  0
  4 15  2  0
 15 16  1  0
 16 17  2  0
 17 18  1  0
 18 19  2  0
 19 20  1  0
 19 21  1  0
 21 22  1  0
 22 23  2  0
 22 24  1  0
 24 25  1  0
 25 26  2  0
 16  2  1  0
 25 18  1  0
 14  9  1  0
M  CHG  4   7  -1  20  -1  21  -1  24  -1
M  END
>  <UniqueID>  (3122) 
20

>  <SMILES>  (3122) 
C=c1oc(C(=O)[N-]Cc2ccccc2)c/c1=C/c1c([O-])[n-]c(=O)[n-]c1=O

>  <Energy>  (3122) 
84.85568480972819

>  <Genealogy>  (3122) 
C=c1oc(C(=O)[N-]Cc2ccccc2)cc1=Cc1c([O-])[n-]c(=O)[n-]c1=O (protonated)
C=c1oc(C(=O)[N-]Cc2ccccc2)c/c1=C/c1c([O-])[n-]c(=O)[n-]c1=O (cis-trans isomerization)
C=c1oc(C(=O)[N-]Cc2ccccc2)c/c1=C/c1c([O-])[n-]c(=O)[n-]c1=O (3D coordinates assigned)
C=c1oc(C(=O)[N-]Cc2ccccc2)c/c1=C/c1c([O-])[n-]c(=O)[n-]c1=O (optimized conformer: 84.85568480972819 kcal/mol)

>  <smiles>  (3122) 
C=c1oc(C(=O)NCc2ccccc2)cc1=Cc1c(O)[nH]c(=O)[nH]c1=O

>  <score_type>  (3122) 
oracle

>  <origin>  (3122) 
adg

>  <m_score__min__energy>  (3122) 
-16.850000000000001

>  <m_primary>  (3122) 
energy

$$$$
30:0
     RDKit          3D

 32 35  0  0  0  0  0  0  0  0999 V2000
   57.6820   31.0240   43.7850 C   0  0  0  0  0  0  0  0  0  0  0  0
   58.0760   31.2050   45.0570 C   0  0  0  0  0  0  0  0  0  0  0  0
   58.6130   30.2290   45.9140 C   0  0  0  0  0  0  0  0  0  0  0  0
   58.6900   28.8860   45.8040 C   0  0  0  0  0  0  0  0  0  0  0  0
   57.5820   27.9350   46.0020 C   0  0  0  0  0  0  0  0  0  0  0  0
   57.7250   26.6700   46.4430 N   0  0  0  0  0  0  0  0  0  0  0  0
   56.4780   26.1620   46.3350 C   0  0  0  0  0  0  0  0  0  0  0  0
   56.1970   24.9860   46.6770 O   0  0  0  0  0  0  0  0  0  0  0  0
   55.5640   27.0070   45.8160 N   0  0  0  0  0  0  0  0  0  0  0  0
   56.2850   28.1180   45.5960 C   0  0  0  0  0  0  0  0  0  0  0  0
   55.7610   29.2840   45.0460 O   0  0  0  0  0  0  0  0  0  0  0  0
   59.0610   30.9040   47.0330 C   0  0  0  0  0  0  0  0  0  0  0  0
   58.7250   32.2310   46.8660 C   0  0  0  0  0  0  0  0  0  0  0  0
   58.9690   33.2650   47.8930 C   0  0  0  0  0  0  0  0  0  0  0  0
   59.1270   34.4650   47.5480 O   0  0  0  0  0  0  0  0  0  0  0  0
   59.1000   32.8990   49.2810 N   0  0  0  0  0  0  0  0  0  0  0  0
   60.1010   33.5660   50.1130 C   0  0  0  0  0  0  0  0  0  0  0  0
   60.1170   32.9680   51.5230 C   0  0  0  0  0  0  0  0  0  0  0  0
   60.1010   31.4880   51.5000 N   0  0  0  0  0  0  0  0  0  0  0  0
   61.4290   30.9320   51.1690 C   0  0  0  0  0  0  0  0  0  0  0  0
   61.6190   30.8000   49.6470 C   0  0  0  0  0  0  0  0  0  0  0  0
   62.3730   31.9510   49.1020 N   0  0  0  0  0  0  0  0  0  0  0  0
   62.2760   32.0180   47.6240 C   0  0  0  0  0  0  0  0  0  0  0  0
   63.3660   32.9210   47.0340 C   0  0  0  0  0  0  0  0  0  0  0  0
   63.8290   33.8440   47.9980 O   0  0  0  0  0  0  0  0  0  0  0  0
   64.5240   33.1650   49.0270 C   0  0  0  0  0  0  0  0  0  0  0  0
   63.7830   31.8990   49.5200 C   0  0  0  0  0  0  0  0  0  0  0  0
   59.0110   30.8940   50.6820 C   0  0  0  0  0  0  0  0  0  0  0  0
   58.1950   31.9250   49.8950 C   0  0  0  0  0  0  0  0  0  0  0  0
   58.1290   32.4260   45.6620 N   0  0  0  0  0  0  0  0  0  0  0  0
   57.5030   33.6790   45.2000 C   0  0  0  0  0  0  0  0  0  0  0  0
   58.5730   34.7030   44.8360 C   0  0  0  0  0  0  0  0  0  0  0  0
  1  2  2  0
  2  3  1  0
  3  4  2  3
  4  5  1  0
  5  6  1  0
  6  7  1  0
  7  8  2  0
  7  9  1  0
  9 10  1  0
 10 11  1  0
  3 12  1  0
 12 13  2  0
 13 14  1  0
 14 15  2  0
 14 16  1  0
 16 17  1  0
 17 18  1  0
 18 19  1  0
 19 20  1  0
 20 21  1  0
 21 22  1  0
 22 23  1  0
 23 24  1  0
 24 25  1  0
 25 26  1  0
 26 27  1  0
 19 28  1  0
 28 29  1  0
 13 30  1  0
 30 31  1  0
 31 32  1  0
 30  2  1  0
 10  5  2  0
 29 16  1  0
 27 22  1  0
M  CHG  2   6  -1   9  -1
M  END
>  <UniqueID>  (3123) 
31

>  <SMILES>  (3123) 
C=c1c(=Cc2[n-]c(=O)[n-]c2O)cc(C(=O)N2CCN(CCN3CCOCC3)CC2)n1CC

>  <Energy>  (3123) 
152.4987515094007

>  <Genealogy>  (3123) 
C=c1c(=Cc2[n-]c(=O)[n-]c2O)cc(C(=O)N2CCN(CCN3CCOCC3)CC2)n1CC (protonated)
C=c1c(=Cc2[n-]c(=O)[n-]c2O)cc(C(=O)N2CCN(CCN3CCOCC3)CC2)n1CC (3D coordinates assigned)
C=c1c(=Cc2[n-]c(=O)[n-]c2O)cc(C(=O)N2CCN(CCN3CCOCC3)CC2)n1CC (nonaromatic ring conformer: 152.4987515094007 kcal/mol)

>  <smiles>  (3123) 
C=c1c(=Cc2[nH]c(=O)[nH]c2O)cc(C(=O)N2CCN(CCN3CCOCC3)CC2)n1CC

>  <score_type>  (3123) 
oracle

>  <origin>  (3123) 
adg

>  <m_score__min__energy>  (3123) 
-14.210000000000001

>  <m_primary>  (3123) 
energy

$$$$
32:0
     RDKit          3D

 31 34  0  0  0  0  0  0  0  0999 V2000
   58.2140   27.0440   42.9210 C   0  0  0  0  0  0  0  0  0  0  0  0
   58.2210   26.7990   44.2410 C   0  0  0  0  0  0  0  0  0  0  0  0
   57.5500   25.7550   44.8960 C   0  0  0  0  0  0  0  0  0  0  0  0
   56.7640   24.8170   44.3250 C   0  0  0  0  0  0  0  0  0  0  0  0
   55.5200   24.2590   44.9030 C   0  0  0  0  0  0  0  0  0  0  0  0
   55.1210   22.9760   44.8380 N   0  0  0  0  0  0  0  0  0  0  0  0
   53.9490   22.9730   45.5060 C   0  0  0  0  0  0  0  0  0  0  0  0
   53.2610   21.9310   45.6640 O   0  0  0  0  0  0  0  0  0  0  0  0
   53.5690   24.1750   45.9920 N   0  0  0  0  0  0  0  0  0  0  0  0
   54.5760   24.9770   45.6010 C   0  0  0  0  0  0  0  0  0  0  0  0
   54.6360   26.3380   45.8820 O   0  0  0  0  0  0  0  0  0  0  0  0
   57.8500   25.8980   46.2470 C   0  0  0  0  0  0  0  0  0  0  0  0
   58.6720   27.0010   46.3610 C   0  0  0  0  0  0  0  0  0  0  0  0
   59.2600   27.4850   47.6550 C   0  0  0  0  0  0  0  0  0  0  0  0
   58.9020   27.5510   45.1460 N   0  0  0  0  0  0  0  0  0  0  0  0
   59.6930   28.7640   44.8780 C   0  0  0  0  0  0  0  0  0  0  0  0
   58.8110   29.9850   44.8920 C   0  0  0  0  0  0  0  0  0  0  0  0
   57.8490   30.1850   43.8890 C   0  0  0  0  0  0  0  0  0  0  0  0
   57.0400   31.3240   43.9080 C   0  0  0  0  0  0  0  0  0  0  0  0
   57.1860   32.2730   44.9220 C   0  0  0  0  0  0  0  0  0  0  0  0
   58.1270   32.0770   45.9420 C   0  0  0  0  0  0  0  0  0  0  0  0
   58.2460   33.0590   46.9810 N   0  0  0  0  0  0  0  0  0  0  0  0
   59.3750   33.9190   47.1920 C   0  0  0  0  0  0  0  0  0  0  0  0
   59.1750   35.1580   47.2900 O   0  0  0  0  0  0  0  0  0  0  0  0
   60.7520   33.3880   47.3500 C   0  0  0  0  0  0  0  0  0  0  0  0
   61.0340   32.3820   48.2960 C   0  0  0  0  0  0  0  0  0  0  0  0
   62.3410   31.9100   48.4590 C   0  0  0  0  0  0  0  0  0  0  0  0
   63.3790   32.4440   47.6910 C   0  0  0  0  0  0  0  0  0  0  0  0
   63.1120   33.4380   46.7460 C   0  0  0  0  0  0  0  0  0  0  0  0
   61.8060   33.9140   46.5790 C   0  0  0  0  0  0  0  0  0  0  0  0
   58.9530   30.9430   45.9090 C   0  0  0  0  0  0  0  0  0  0  0  0
  1  2  2  0
  2  3  1  0
  3  4  2  3
  4  5  1  0
  5  6  1  0
  6  7  1  0
  7  8  2  0
  7  9  1  0
  9 10  1  0
 10 11  1  0
  3 12  1  0
 12 13  2  0
 13 14  1  0
 13 15  1  0
 15 16  1  0
 16 17  1  0
 17 18  2  0
 18 19  1  0
 19 20  2  0
 20 21  1  0
 21 22  1  0
 22 23  1  0
 23 24  2  0
 23 25  1  0
 25 26  2  0
 26 27  1  0
 27 28  2  0
 28 29  1  0
 29 30  2  0
 21 31  2  0
 15  2  1  0
 31 17  1  0
 10  5  2  0
 30 25  1  0
M  CHG  3   6  -1   9  -1  22  -1
M  END
>  <UniqueID>  (3124) 
33

>  <SMILES>  (3124) 
C=c1c(=Cc2[n-]c(=O)[n-]c2O)cc(C)n1Cc1cccc([N-]C(=O)c2ccccc2)c1

>  <Energy>  (3124) 
115.9388464842096

>  <Genealogy>  (3124) 
C=c1c(=Cc2[n-]c(=O)[n-]c2O)cc(C)n1Cc1cccc([N-]C(=O)c2ccccc2)c1 (protonated)
C=c1c(=Cc2[n-]c(=O)[n-]c2O)cc(C)n1Cc1cccc([N-]C(=O)c2ccccc2)c1 (3D coordinates assigned)
C=c1c(=Cc2[n-]c(=O)[n-]c2O)cc(C)n1Cc1cccc([N-]C(=O)c2ccccc2)c1 (optimized conformer: 115.9388464842096 kcal/mol)

>  <smiles>  (3124) 
C=c1c(=Cc2[nH]c(=O)[nH]c2O)cc(C)n1Cc1cccc(NC(=O)c2ccccc2)c1

>  <score_type>  (3124) 
oracle

>  <origin>  (3124) 
adg

>  <m_score__min__energy>  (3124) 
-15.470000000000001

>  <m_primary>  (3124) 
energy

$$$$
37:0
     RDKit          3D

 27 29  0  0  0  0  0  0  0  0999 V2000
   54.0430   28.4010   52.6490 C   0  0  0  0  0  0  0  0  0  0  0  0
   54.8260   29.4680   52.4750 C   0  0  0  0  0  0  0  0  0  0  0  0
   56.1310   29.3800   52.3890 O   0  0  0  0  0  0  0  0  0  0  0  0
   56.6400   30.5810   52.2170 C   0  0  0  0  0  0  0  0  0  0  0  0
   58.1000   30.7870   52.0450 C   0  0  0  0  0  0  0  0  0  0  0  0
   58.8620   29.9150   52.5470 O   0  0  0  0  0  0  0  0  0  0  0  0
   58.7000   31.9240   51.3650 N   0  0  0  0  0  0  0  0  0  0  0  0
   60.1530   31.7520   51.1250 C   0  0  0  0  0  0  0  0  0  0  0  0
   60.6040   32.4560   49.8520 C   0  0  0  0  0  0  0  0  0  0  0  0
   59.9030   31.8550   48.7090 N   0  0  0  0  0  0  0  0  0  0  0  0
   60.4270   32.3810   47.4310 C   0  0  0  0  0  0  0  0  0  0  0  0
   59.7720   33.7320   47.0980 C   0  0  0  0  0  0  0  0  0  0  0  0
   58.8890   33.6840   45.8320 C   0  0  0  0  0  0  0  0  0  0  0  0
   57.3920   33.7500   46.1690 C   0  0  0  0  0  0  0  0  0  0  0  0
   59.2610   34.8390   44.8930 C   0  0  0  0  0  0  0  0  0  0  0  0
   58.4240   31.9810   48.8100 C   0  0  0  0  0  0  0  0  0  0  0  0
   57.8910   32.3880   50.2040 C   0  0  0  0  0  0  0  0  0  0  0  0
   55.6140   31.5170   52.1960 C   0  0  0  0  0  0  0  0  0  0  0  0
   54.4390   30.7990   52.3610 C   0  0  0  0  0  0  0  0  0  0  0  0
   53.1830   31.2840   52.3430 C   0  0  0  0  0  0  0  0  0  0  0  0
   52.3520   31.3530   51.1300 C   0  0  0  0  0  0  0  0  0  0  0  0
   52.3360   30.3990   50.1840 N   0  0  0  0  0  0  0  0  0  0  0  0
   51.3690   30.8140   49.3370 C   0  0  0  0  0  0  0  0  0  0  0  0
   51.0620   30.1800   48.2950 O   0  0  0  0  0  0  0  0  0  0  0  0
   50.7500   31.9580   49.7020 N   0  0  0  0  0  0  0  0  0  0  0  0
   51.3760   32.2800   50.8440 C   0  0  0  0  0  0  0  0  0  0  0  0
   51.0260   33.3670   51.6340 O   0  0  0  0  0  0  0  0  0  0  0  0
  1  2  2  0
  2  3  1  0
  3  4  1  0
  4  5  1  0
  5  6  2  0
  5  7  1  0
  7  8  1  0
  8  9  1  0
  9 10  1  0
 10 11  1  0
 11 12  1  0
 12 13  1  0
 13 14  1  0
 13 15  1  0
 10 16  1  0
 16 17  1  0
  4 18  2  0
 18 19  1  0
 19 20  2  0
 20 21  1  0
 21 22  1  0
 22 23  1  0
 23 24  2  0
 23 25  1  0
 25 26  1  0
 26 27  1  0
 19  2  1  0
 26 21  2  0
 17  7  1  0
M  CHG  4   7   1  22  -1  25  -1  27  -1
M  END
>  <UniqueID>  (3125) 
38

>  <SMILES>  (3125) 
C=c1oc(C(=O)[NH+]2CCN(CCC(C)C)CC2)c/c1=C\c1[n-]c(=O)[n-]c1[O-]

>  <Energy>  (3125) 
128.1296955702392

>  <Genealogy>  (3125) 
C=c1oc(C(=O)[NH+]2CCN(CCC(C)C)CC2)cc1=Cc1[n-]c(=O)[n-]c1[O-] (protonated)
C=c1oc(C(=O)[NH+]2CCN(CCC(C)C)CC2)c/c1=C\c1[n-]c(=O)[n-]c1[O-] (cis-trans isomerization)
C=c1oc(C(=O)[NH+]2CCN(CCC(C)C)CC2)c/c1=C\c1[n-]c(=O)[n-]c1[O-] (3D coordinates assigned)
C=c1oc(C(=O)[NH+]2CCN(CCC(C)C)CC2)c/c1=C\c1[n-]c(=O)[n-]c1[O-] (nonaromatic ring conformer: 128.1296955702392 kcal/mol)

>  <smiles>  (3125) 
C=c1oc(C(=O)N2CCN(CCC(C)C)CC2)cc1=Cc1[nH]c(=O)[nH]c1O

>  <score_type>  (3125) 
oracle

>  <origin>  (3125) 
adg

>  <m_score__min__energy>  (3125) 
-16.050000000000001

>  <m_primary>  (3125) 
energy

$$$$
47:0
     RDKit          3D

 28 31  0  0  0  0  0  0  0  0999 V2000
   54.2860   28.0270   53.1060 C   0  0  0  0  0  0  0  0  0  0  0  0
   54.6940   29.1850   52.5740 C   0  0  0  0  0  0  0  0  0  0  0  0
   55.9690   29.4190   52.3510 O   0  0  0  0  0  0  0  0  0  0  0  0
   56.1050   30.6850   52.0160 C   0  0  0  0  0  0  0  0  0  0  0  0
   57.4030   31.3020   51.7390 C   0  0  0  0  0  0  0  0  0  0  0  0
   57.4890   32.5610   51.8900 O   0  0  0  0  0  0  0  0  0  0  0  0
   58.5680   30.5450   51.3100 N   0  0  0  0  0  0  0  0  0  0  0  0
   58.6010   30.2160   49.8560 C   0  0  0  0  0  0  0  0  0  0  0  0
   59.1190   31.3600   48.9640 C   0  0  0  0  0  0  0  0  0  0  0  0
   60.3120   31.9740   49.5490 N   0  0  0  0  0  0  0  0  0  0  0  0
   61.3400   32.5010   48.6820 C   0  0  0  0  0  0  0  0  0  0  0  0
   60.9850   33.2940   47.5730 C   0  0  0  0  0  0  0  0  0  0  0  0
   61.9690   33.7880   46.7090 C   0  0  0  0  0  0  0  0  0  0  0  0
   63.3180   33.5060   46.9510 C   0  0  0  0  0  0  0  0  0  0  0  0
   63.6840   32.7310   48.0590 C   0  0  0  0  0  0  0  0  0  0  0  0
   62.6990   32.2280   48.9240 C   0  0  0  0  0  0  0  0  0  0  0  0
   60.2740   32.3590   50.9550 C   0  0  0  0  0  0  0  0  0  0  0  0
   59.8310   31.1550   51.7980 C   0  0  0  0  0  0  0  0  0  0  0  0
   54.8790   31.3250   52.0010 C   0  0  0  0  0  0  0  0  0  0  0  0
   53.9420   30.3460   52.2850 C   0  0  0  0  0  0  0  0  0  0  0  0
   52.6120   30.5680   52.2050 C   0  0  0  0  0  0  0  0  0  0  0  0
   51.8340   30.8630   50.9800 C   0  0  0  0  0  0  0  0  0  0  0  0
   51.7860   30.1030   49.8630 N   0  0  0  0  0  0  0  0  0  0  0  0
   51.0150   30.8230   49.0100 C   0  0  0  0  0  0  0  0  0  0  0  0
   50.7070   30.4220   47.8450 O   0  0  0  0  0  0  0  0  0  0  0  0
   50.6050   32.0140   49.4950 N   0  0  0  0  0  0  0  0  0  0  0  0
   51.1480   32.0280   50.7330 C   0  0  0  0  0  0  0  0  0  0  0  0
   51.0210   33.0880   51.6280 O   0  0  0  0  0  0  0  0  0  0  0  0
  1  2  2  0
  2  3  1  0
  3  4  1  0
  4  5  1  0
  5  6  2  0
  5  7  1  0
  7  8  1  0
  8  9  1  0
  9 10  1  0
 10 11  1  0
 11 12  2  0
 12 13  1  0
 13 14  2  0
 14 15  1  0
 15 16  2  0
 10 17  1  0
 17 18  1  0
  4 19  2  0
 19 20  1  0
 20 21  2  0
 21 22  1  0
 22 23  1  0
 23 24  1  0
 24 25  2  0
 24 26  1  0
 26 27  1  0
 27 28  1  0
 20  2  1  0
 27 22  2  0
 18  7  1  0
 16 11  1  0
M  CHG  4   7   1  23  -1  26  -1  28  -1
M  END
>  <UniqueID>  (3126) 
48

>  <SMILES>  (3126) 
C=c1oc(C(=O)[NH+]2CCN(c3ccccc3)CC2)c/c1=C/c1[n-]c(=O)[n-]c1[O-]

>  <Energy>  (3126) 
137.58948657139538

>  <Genealogy>  (3126) 
C=c1oc(C(=O)[NH+]2CCN(c3ccccc3)CC2)cc1=Cc1[n-]c(=O)[n-]c1[O-] (protonated)
C=c1oc(C(=O)[NH+]2CCN(c3ccccc3)CC2)c/c1=C/c1[n-]c(=O)[n-]c1[O-] (cis-trans isomerization)
C=c1oc(C(=O)[NH+]2CCN(c3ccccc3)CC2)c/c1=C/c1[n-]c(=O)[n-]c1[O-] (3D coordinates assigned)
C=c1oc(C(=O)[NH+]2CCN(c3ccccc3)CC2)c/c1=C/c1[n-]c(=O)[n-]c1[O-] (nonaromatic ring conformer: 137.58948657139538 kcal/mol)

>  <smiles>  (3126) 
C=c1oc(C(=O)N2CCN(c3ccccc3)CC2)cc1=Cc1[nH]c(=O)[nH]c1O

>  <score_type>  (3126) 
oracle

>  <origin>  (3126) 
adg

>  <m_score__min__energy>  (3126) 
-16.77

>  <m_primary>  (3126) 
energy

$$$$
52:0
     RDKit          3D

 25 27  0  0  0  0  0  0  0  0999 V2000
   54.0500   28.8790   54.2730 C   0  0  0  0  0  0  0  0  0  0  0  0
   54.7340   29.8300   53.6140 C   0  0  0  0  0  0  0  0  0  0  0  0
   54.1380   30.7760   52.7680 C   0  0  0  0  0  0  0  0  0  0  0  0
   52.8600   31.1930   52.6670 C   0  0  0  0  0  0  0  0  0  0  0  0
   52.0750   31.2550   51.4220 C   0  0  0  0  0  0  0  0  0  0  0  0
   52.1530   30.3290   50.4500 N   0  0  0  0  0  0  0  0  0  0  0  0
   51.3670   30.8330   49.4730 C   0  0  0  0  0  0  0  0  0  0  0  0
   51.1720   30.2330   48.3840 O   0  0  0  0  0  0  0  0  0  0  0  0
   50.8160   32.0330   49.7510 N   0  0  0  0  0  0  0  0  0  0  0  0
   51.2840   32.2940   50.9820 C   0  0  0  0  0  0  0  0  0  0  0  0
   51.0210   33.4710   51.6730 O   0  0  0  0  0  0  0  0  0  0  0  0
   55.1370   31.2410   51.9510 C   0  0  0  0  0  0  0  0  0  0  0  0
   56.3080   30.6590   52.3760 C   0  0  0  0  0  0  0  0  0  0  0  0
   57.5430   30.7620   51.5810 C   0  0  0  0  0  0  0  0  0  0  0  0
   57.9080   29.7710   50.8940 O   0  0  0  0  0  0  0  0  0  0  0  0
   58.3150   31.9750   51.5550 N   0  0  0  0  0  0  0  0  0  0  0  0
   59.5630   32.0950   50.8240 C   0  0  0  0  0  0  0  0  0  0  0  0
   60.1870   33.4060   51.2870 C   0  0  0  0  0  0  0  0  0  0  0  0
   59.0680   34.1860   51.9710 C   0  0  0  0  0  0  0  0  0  0  0  0
   58.0040   33.1600   52.3390 C   0  0  0  0  0  0  0  0  0  0  0  0
   56.0980   29.8420   53.4530 N   0  0  0  0  0  0  0  0  0  0  0  0
   57.1380   29.1830   54.3210 C   0  0  0  0  0  0  0  0  0  0  0  0
   56.6750   29.1440   55.8080 C   0  0  0  0  0  0  0  0  0  0  0  0
   58.4780   29.9710   54.3280 C   0  0  0  0  0  0  0  0  0  0  0  0
   57.4220   27.7590   53.8090 C   0  0  0  0  0  0  0  0  0  0  0  0
  1  2  2  0
  2  3  1  0
  3  4  2  0
  4  5  1  0
  5  6  1  0
  6  7  1  0
  7  8  2  0
  7  9  1  0
  9 10  1  0
 10 11  1  0
  3 12  1  0
 12 13  2  0
 13 14  1  0
 14 15  2  0
 14 16  1  0
 16 17  1  0
 17 18  1  0
 18 19  1  0
 19 20  1  0
 13 21  1  0
 21 22  1  0
 22 23  1  0
 22 24  1  0
 22 25  1  0
 21  2  1  0
 10  5  2  0
 20 16  1  0
M  CHG  3   6  -1   9  -1  11  -1
M  END
>  <UniqueID>  (3127) 
53

>  <SMILES>  (3127) 
C=c1/c(=C\c2[n-]c(=O)[n-]c2[O-])cc(C(=O)N2CCCC2)n1C(C)(C)C

>  <Energy>  (3127) 
134.36777564248476

>  <Genealogy>  (3127) 
C=c1c(=Cc2[n-]c(=O)[n-]c2[O-])cc(C(=O)N2CCCC2)n1C(C)(C)C (protonated)
C=c1/c(=C\c2[n-]c(=O)[n-]c2[O-])cc(C(=O)N2CCCC2)n1C(C)(C)C (cis-trans isomerization)
C=c1/c(=C\c2[n-]c(=O)[n-]c2[O-])cc(C(=O)N2CCCC2)n1C(C)(C)C (3D coordinates assigned)
C=c1/c(=C\c2[n-]c(=O)[n-]c2[O-])cc(C(=O)N2CCCC2)n1C(C)(C)C (nonaromatic ring conformer: 134.36777564248476 kcal/mol)

>  <smiles>  (3127) 
C=c1c(=Cc2[nH]c(=O)[nH]c2O)cc(C(=O)N2CCCC2)n1C(C)(C)C

>  <score_type>  (3127) 
oracle

>  <origin>  (3127) 
adg

>  <m_score__min__energy>  (3127) 
-16.469999999999999

>  <m_primary>  (3127) 
energy

$$$$
60:0
     RDKit          3D

 29 32  0  0  0  0  0  0  0  0999 V2000
   53.1290   28.7790   54.7740 C   0  0  0  0  0  0  0  0  0  0  0  0
   54.0520   29.3920   54.0170 C   0  0  0  0  0  0  0  0  0  0  0  0
   53.8330   30.4260   53.0930 C   0  0  0  0  0  0  0  0  0  0  0  0
   52.7480   31.1900   52.8600 C   0  0  0  0  0  0  0  0  0  0  0  0
   51.9780   31.2280   51.6070 C   0  0  0  0  0  0  0  0  0  0  0  0
   52.1990   30.3990   50.5730 N   0  0  0  0  0  0  0  0  0  0  0  0
   51.3700   30.8670   49.6140 C   0  0  0  0  0  0  0  0  0  0  0  0
   51.2760   30.3320   48.4790 O   0  0  0  0  0  0  0  0  0  0  0  0
   50.6580   31.9600   49.9640 N   0  0  0  0  0  0  0  0  0  0  0  0
   51.0660   32.1860   51.2230 C   0  0  0  0  0  0  0  0  0  0  0  0
   50.6340   33.2580   51.9930 O   0  0  0  0  0  0  0  0  0  0  0  0
   55.0100   30.5600   52.3770 C   0  0  0  0  0  0  0  0  0  0  0  0
   55.9150   29.6710   52.9180 C   0  0  0  0  0  0  0  0  0  0  0  0
   57.2790   29.4550   52.3920 C   0  0  0  0  0  0  0  0  0  0  0  0
   57.9250   28.4380   52.7630 O   0  0  0  0  0  0  0  0  0  0  0  0
   57.8670   30.3700   51.4470 N   0  0  0  0  0  0  0  0  0  0  0  0
   57.5970   31.8130   51.5740 C   0  0  0  0  0  0  0  0  0  0  0  0
   58.5820   32.6400   50.7460 C   0  0  0  0  0  0  0  0  0  0  0  0
   58.6660   32.0840   49.3910 N   0  0  0  0  0  0  0  0  0  0  0  0
   58.5980   32.9310   48.2290 C   0  0  0  0  0  0  0  0  0  0  0  0
   57.7500   32.6140   47.2120 N   0  0  0  0  0  0  0  0  0  0  0  0
   57.6520   33.3940   46.1070 C   0  0  0  0  0  0  0  0  0  0  0  0
   58.4240   34.5480   46.0010 C   0  0  0  0  0  0  0  0  0  0  0  0
   59.2770   34.8740   47.0540 C   0  0  0  0  0  0  0  0  0  0  0  0
   59.3470   34.0700   48.1480 N   0  0  0  0  0  0  0  0  0  0  0  0
   58.8890   30.6420   49.2110 C   0  0  0  0  0  0  0  0  0  0  0  0
   58.9350   29.8960   50.5520 C   0  0  0  0  0  0  0  0  0  0  0  0
   55.3430   28.9750   53.9300 N   0  0  0  0  0  0  0  0  0  0  0  0
   55.9830   27.9190   54.7220 C   0  0  0  0  0  0  0  0  0  0  0  0
  1  2  2  0
  2  3  1  0
  3  4  2  0
  4  5  1  0
  5  6  1  0
  6  7  1  0
  7  8  2  0
  7  9  1  0
  9 10  1  0
 10 11  1  0
  3 12  1  0
 12 13  2  0
 13 14  1  0
 14 15  2  0
 14 16  1  0
 16 17  1  0
 17 18  1  0
 18 19  1  0
 19 20  1  0
 20 21  2  0
 21 22  1  0
 22 23  2  0
 23 24  1  0
 24 25  2  0
 19 26  1  0
 26 27  1  0
 13 28  1  0
 28 29  1  0
 28  2  1  0
 10  5  2  0
 27 16  1  0
 25 20  1  0
M  CHG  4   6  -1   9  -1  11  -1  25   1
M  END
>  <UniqueID>  (3128) 
61

>  <SMILES>  (3128) 
C=c1/c(=C\c2[n-]c(=O)[n-]c2[O-])cc(C(=O)N2CCN(c3nccc[nH+]3)CC2)n1C

>  <Energy>  (3128) 
130.23733999748856

>  <Genealogy>  (3128) 
C=c1c(=Cc2[n-]c(=O)[n-]c2[O-])cc(C(=O)N2CCN(c3nccc[nH+]3)CC2)n1C (protonated)
C=c1/c(=C\c2[n-]c(=O)[n-]c2[O-])cc(C(=O)N2CCN(c3nccc[nH+]3)CC2)n1C (cis-trans isomerization)
C=c1/c(=C\c2[n-]c(=O)[n-]c2[O-])cc(C(=O)N2CCN(c3nccc[nH+]3)CC2)n1C (3D coordinates assigned)
C=c1/c(=C\c2[n-]c(=O)[n-]c2[O-])cc(C(=O)N2CCN(c3nccc[nH+]3)CC2)n1C (nonaromatic ring conformer: 130.23733999748856 kcal/mol)

>  <smiles>  (3128) 
C=c1c(=Cc2[nH]c(=O)[nH]c2O)cc(C(=O)N2CCN(c3ncccn3)CC2)n1C

>  <score_type>  (3128) 
oracle

>  <origin>  (3128) 
adg

>  <m_score__min__energy>  (3128) 
-16.359999999999999

>  <m_primary>  (3128) 
energy

$$$$
67:0
     RDKit          3D

 33 36  0  0  0  0  0  0  0  0999 V2000
   58.8550   29.3570   48.3740 C   0  0  0  0  0  0  0  0  0  0  0  0
   58.6930   29.9550   47.1770 C   0  0  0  0  0  0  0  0  0  0  0  0
   58.4490   29.2850   45.9800 C   0  0  0  0  0  0  0  0  0  0  0  0
   58.4160   27.9480   45.7800 C   0  0  0  0  0  0  0  0  0  0  0  0
   57.2340   27.0840   45.9870 C   0  0  0  0  0  0  0  0  0  0  0  0
   57.2560   25.8220   46.4570 N   0  0  0  0  0  0  0  0  0  0  0  0
   55.9630   25.4390   46.3930 C   0  0  0  0  0  0  0  0  0  0  0  0
   55.5750   24.2990   46.7600 O   0  0  0  0  0  0  0  0  0  0  0  0
   55.1190   26.3710   45.8990 N   0  0  0  0  0  0  0  0  0  0  0  0
   55.9420   27.4010   45.6380 C   0  0  0  0  0  0  0  0  0  0  0  0
   55.5180   28.6070   45.0940 O   0  0  0  0  0  0  0  0  0  0  0  0
   58.2590   30.2660   45.0290 C   0  0  0  0  0  0  0  0  0  0  0  0
   58.4030   31.5050   45.6460 C   0  0  0  0  0  0  0  0  0  0  0  0
   58.1020   32.8370   44.9090 C   0  0  0  0  0  0  0  0  0  0  0  0
   57.7890   32.5680   43.4120 C   0  0  0  0  0  0  0  0  0  0  0  0
   56.8570   33.4920   45.5380 C   0  0  0  0  0  0  0  0  0  0  0  0
   59.2830   33.8360   44.9360 C   0  0  0  0  0  0  0  0  0  0  0  0
   58.6720   31.3070   46.9770 N   0  0  0  0  0  0  0  0  0  0  0  0
   58.8830   32.3260   48.0260 C   0  0  0  0  0  0  0  0  0  0  0  0
   60.3200   32.3900   48.4830 C   0  0  0  0  0  0  0  0  0  0  0  0
   61.3690   31.9680   47.6450 C   0  0  0  0  0  0  0  0  0  0  0  0
   62.6960   32.0590   48.0710 C   0  0  0  0  0  0  0  0  0  0  0  0
   62.9980   32.6190   49.3210 C   0  0  0  0  0  0  0  0  0  0  0  0
   64.3940   32.7130   49.7920 C   0  0  0  0  0  0  0  0  0  0  0  0
   65.2680   33.1000   48.9670 O   0  0  0  0  0  0  0  0  0  0  0  0
   64.7960   32.3500   51.1420 N   0  0  0  0  0  0  0  0  0  0  0  0
   66.0350   33.0410   51.5700 C   0  0  0  0  0  0  0  0  0  0  0  0
   67.3250   32.3600   51.0470 C   0  0  0  0  0  0  0  0  0  0  0  0
   67.1070   31.0730   50.5010 O   0  0  0  0  0  0  0  0  0  0  0  0
   66.2770   30.3210   51.3560 C   0  0  0  0  0  0  0  0  0  0  0  0
   64.8430   30.8800   51.3520 C   0  0  0  0  0  0  0  0  0  0  0  0
   61.9580   33.0500   50.1540 C   0  0  0  0  0  0  0  0  0  0  0  0
   60.6290   32.9480   49.7340 C   0  0  0  0  0  0  0  0  0  0  0  0
  1  2  2  0
  2  3  1  0
  3  4  2  0
  4  5  1  0
  5  6  1  0
  6  7  1  0
  7  8  2  0
  7  9  1  0
  9 10  1  0
 10 11  1  0
  3 12  1  0
 12 13  2  0
 13 14  1  0
 14 15  1  0
 14 16  1  0
 14 17  1  0
 13 18  1  0
 18 19  1  0
 19 20  1  0
 20 21  2  0
 21 22  1  0
 22 23  2  0
 23 24  1  0
 24 25  2  0
 24 26  1  0
 26 27  1  0
 27 28  1  0
 28 29  1  0
 29 30  1  0
 30 31  1  0
 23 32  1  0
 32 33  2  0
 18  2  1  0
 33 20  1  0
 10  5  2  0
 31 26  1  0
M  CHG  4   6  -1   9  -1  11  -1  26   1
M  END
>  <UniqueID>  (3129) 
68

>  <SMILES>  (3129) 
C=c1/c(=C/c2[n-]c(=O)[n-]c2[O-])cc(C(C)(C)C)n1Cc1ccc(C(=O)[NH+]2CCOCC2)cc1

>  <Energy>  (3129) 
155.85110638547525

>  <Genealogy>  (3129) 
C=c1c(=Cc2[n-]c(=O)[n-]c2[O-])cc(C(C)(C)C)n1Cc1ccc(C(=O)[NH+]2CCOCC2)cc1 (protonated)
C=c1/c(=C/c2[n-]c(=O)[n-]c2[O-])cc(C(C)(C)C)n1Cc1ccc(C(=O)[NH+]2CCOCC2)cc1 (cis-trans isomerization)
C=c1/c(=C/c2[n-]c(=O)[n-]c2[O-])cc(C(C)(C)C)n1Cc1ccc(C(=O)[NH+]2CCOCC2)cc1 (3D coordinates assigned)
C=c1/c(=C/c2[n-]c(=O)[n-]c2[O-])cc(C(C)(C)C)n1Cc1ccc(C(=O)[NH+]2CCOCC2)cc1 (nonaromatic ring conformer: 155.85110638547525 kcal/mol)

>  <smiles>  (3129) 
C=c1c(=Cc2[nH]c(=O)[nH]c2O)cc(C(C)(C)C)n1Cc1ccc(C(=O)N2CCOCC2)cc1

>  <score_type>  (3129) 
oracle

>  <origin>  (3129) 
adg

>  <m_score__min__energy>  (3129) 
-15.56

>  <m_primary>  (3129) 
energy

$$$$
73:0
     RDKit          3D

 28 31  0  0  0  0  0  0  0  0999 V2000
   51.0200   32.3090   50.2730 N   0  0  0  0  0  0  0  0  0  0  0  0
   51.0470   32.2420   51.6980 C   0  0  0  0  0  0  0  0  0  0  0  0
   50.1780   32.8730   52.3580 O   0  0  0  0  0  0  0  0  0  0  0  0
   52.0820   31.4410   52.3960 C   0  0  0  0  0  0  0  0  0  0  0  0
   51.7540   30.7120   53.5520 C   0  0  0  0  0  0  0  0  0  0  0  0
   52.7260   29.9580   54.2110 C   0  0  0  0  0  0  0  0  0  0  0  0
   54.0350   29.9210   53.7280 C   0  0  0  0  0  0  0  0  0  0  0  0
   54.3880   30.6400   52.5760 C   0  0  0  0  0  0  0  0  0  0  0  0
   55.7850   30.5860   52.0830 C   0  0  0  0  0  0  0  0  0  0  0  0
   56.5660   31.6370   51.6380 C   0  0  0  0  0  0  0  0  0  0  0  0
   57.7680   31.0390   51.2990 C   0  0  0  0  0  0  0  0  0  0  0  0
   58.9810   31.7030   50.7620 C   0  0  0  0  0  0  0  0  0  0  0  0
   60.0490   32.0660   51.6030 C   0  0  0  0  0  0  0  0  0  0  0  0
   61.1820   32.6920   51.0790 C   0  0  0  0  0  0  0  0  0  0  0  0
   61.2680   32.9600   49.7120 C   0  0  0  0  0  0  0  0  0  0  0  0
   60.2190   32.5990   48.8530 C   0  0  0  0  0  0  0  0  0  0  0  0
   60.3140   32.8830   47.3680 C   0  0  0  0  0  0  0  0  0  0  0  0
   59.0090   32.8800   46.6710 N   0  0  0  0  0  0  0  0  0  0  0  0
   58.7950   34.0780   45.8370 C   0  0  0  0  0  0  0  0  0  0  0  0
   57.3100   34.1850   45.4860 C   0  0  0  0  0  0  0  0  0  0  0  0
   56.8210   32.9310   44.9230 N   0  0  0  0  0  0  0  0  0  0  0  0
   57.4220   31.6750   45.2490 C   0  0  0  0  0  0  0  0  0  0  0  0
   56.8610   30.6050   44.8970 O   0  0  0  0  0  0  0  0  0  0  0  0
   58.7720   31.6390   45.9040 C   0  0  0  0  0  0  0  0  0  0  0  0
   59.0760   31.9800   49.3860 C   0  0  0  0  0  0  0  0  0  0  0  0
   57.6830   29.7150   51.5370 N   0  0  0  0  0  0  0  0  0  0  0  0
   56.4910   29.4820   52.0020 O   0  0  0  0  0  0  0  0  0  0  0  0
   53.4040   31.4000   51.9150 C   0  0  0  0  0  0  0  0  0  0  0  0
  1  2  1  0
  2  3  2  0
  2  4  1  0
  4  5  2  0
  5  6  1  0
  6  7  2  0
  7  8  1  0
  8  9  1  0
  9 10  2  0
 10 11  1  0
 11 12  1  0
 12 13  2  0
 13 14  1  0
 14 15  2  0
 15 16  1  0
 16 17  1  0
 17 18  1  0
 18 19  1  0
 19 20  1  0
 20 21  1  0
 21 22  1  0
 22 23  2  0
 22 24  1  0
 16 25  2  0
 11 26  2  0
 26 27  1  0
  8 28  2  0
 28  4  1  0
 27  9  1  0
 25 12  1  0
 24 18  1  0
M  CHG  2   1  -1  21  -1
M  END
>  <UniqueID>  (3130) 
74

>  <SMILES>  (3130) 
[NH-]C(=O)c1cccc(-c2cc(-c3cccc(CN4CC[N-]C(=O)C4)c3)no2)c1

>  <Energy>  (3130) 
86.40756033895404

>  <Genealogy>  (3130) 
[NH-]C(=O)c1cccc(-c2cc(-c3cccc(CN4CC[N-]C(=O)C4)c3)no2)c1 (protonated)
[NH-]C(=O)c1cccc(-c2cc(-c3cccc(CN4CC[N-]C(=O)C4)c3)no2)c1 (3D coordinates assigned)
[NH-]C(=O)c1cccc(-c2cc(-c3cccc(CN4CC[N-]C(=O)C4)c3)no2)c1 (nonaromatic ring conformer: 86.40756033895404 kcal/mol)

>  <smiles>  (3130) 
NC(=O)c1cccc(-c2cc(-c3cccc(CN4CCNC(=O)C4)c3)no2)c1

>  <score_type>  (3130) 
oracle

>  <origin>  (3130) 
adg

>  <m_score__min__energy>  (3130) 
-14.82

>  <m_primary>  (3130) 
energy

$$$$
78:0
     RDKit          3D

 30 33  0  0  0  0  0  0  0  0999 V2000
   53.3930   28.4000   53.2880 C   0  0  0  0  0  0  0  0  0  0  0  0
   54.3740   29.2550   52.9820 C   0  0  0  0  0  0  0  0  0  0  0  0
   56.0000   28.8310   53.0510 S   0  0  0  0  0  0  0  0  0  0  0  0
   56.6020   30.3190   52.5790 C   0  0  0  0  0  0  0  0  0  0  0  0
   58.0280   30.5910   52.3240 C   0  0  0  0  0  0  0  0  0  0  0  0
   58.6530   30.4590   51.1320 C   0  0  0  0  0  0  0  0  0  0  0  0
   59.5980   29.3570   50.8170 C   0  0  0  0  0  0  0  0  0  0  0  0
   59.6570   28.3230   51.5350 O   0  0  0  0  0  0  0  0  0  0  0  0
   60.4020   29.4240   49.6390 N   0  0  0  0  0  0  0  0  0  0  0  0
   60.1770   30.4240   48.6430 C   0  0  0  0  0  0  0  0  0  0  0  0
   60.8770   30.4150   47.5940 O   0  0  0  0  0  0  0  0  0  0  0  0
   59.1390   31.4050   48.8210 N   0  0  0  0  0  0  0  0  0  0  0  0
   58.8700   32.3650   47.7810 C   0  0  0  0  0  0  0  0  0  0  0  0
   59.3280   33.6880   47.9020 C   0  0  0  0  0  0  0  0  0  0  0  0
   59.0640   34.6180   46.8920 C   0  0  0  0  0  0  0  0  0  0  0  0
   58.3430   34.2360   45.7580 C   0  0  0  0  0  0  0  0  0  0  0  0
   57.8840   32.9210   45.6310 C   0  0  0  0  0  0  0  0  0  0  0  0
   58.1450   31.9880   46.6380 C   0  0  0  0  0  0  0  0  0  0  0  0
   58.3760   31.4340   50.0440 C   0  0  0  0  0  0  0  0  0  0  0  0
   57.4870   32.3180   50.2030 O   0  0  0  0  0  0  0  0  0  0  0  0
   55.5350   31.1700   52.3070 C   0  0  0  0  0  0  0  0  0  0  0  0
   54.2650   30.5920   52.5420 C   0  0  0  0  0  0  0  0  0  0  0  0
   53.0890   31.2440   52.3880 C   0  0  0  0  0  0  0  0  0  0  0  0
   52.2820   31.2970   51.1500 C   0  0  0  0  0  0  0  0  0  0  0  0
   52.2710   30.3640   50.1790 N   0  0  0  0  0  0  0  0  0  0  0  0
   51.3260   30.8100   49.3230 C   0  0  0  0  0  0  0  0  0  0  0  0
   51.0290   30.2000   48.2640 O   0  0  0  0  0  0  0  0  0  0  0  0
   50.7210   31.9580   49.6970 N   0  0  0  0  0  0  0  0  0  0  0  0
   51.3310   32.2450   50.8580 C   0  0  0  0  0  0  0  0  0  0  0  0
   51.0220   33.3530   51.6380 O   0  0  0  0  0  0  0  0  0  0  0  0
  1  2  2  0
  2  3  1  0
  3  4  1  0
  4  5  1  0
  5  6  2  3
  6  7  1  0
  7  8  2  0
  7  9  1  0
  9 10  1  0
 10 11  2  0
 10 12  1  0
 12 13  1  0
 13 14  2  0
 14 15  1  0
 15 16  2  0
 16 17  1  0
 17 18  2  0
 12 19  1  0
 19 20  2  0
  4 21  2  0
 21 22  1  0
 22 23  2  3
 23 24  1  0
 24 25  1  0
 25 26  1  0
 26 27  2  0
 26 28  1  0
 28 29  1  0
 29 30  1  0
 22  2  1  0
 29 24  2  0
 19  6  1  0
 18 13  1  0
M  CHG  3  25  -1  28  -1  30  -1
M  END
>  <UniqueID>  (3131) 
79

>  <SMILES>  (3131) 
C=c1sc(C=C2C(=O)NC(=O)N(c3ccccc3)C2=O)cc1=Cc1[n-]c(=O)[n-]c1[O-]

>  <Energy>  (3131) 
123.27741276694029

>  <Genealogy>  (3131) 
C=c1sc(C=C2C(=O)NC(=O)N(c3ccccc3)C2=O)cc1=Cc1[n-]c(=O)[n-]c1[O-] (protonated)
C=c1sc(C=C2C(=O)NC(=O)N(c3ccccc3)C2=O)cc1=Cc1[n-]c(=O)[n-]c1[O-] (3D coordinates assigned)
C=c1sc(C=C2C(=O)NC(=O)N(c3ccccc3)C2=O)cc1=Cc1[n-]c(=O)[n-]c1[O-] (nonaromatic ring conformer: 123.27741276694029 kcal/mol)

>  <smiles>  (3131) 
C=c1sc(C=C2C(=O)NC(=O)N(c3ccccc3)C2=O)cc1=Cc1[nH]c(=O)[nH]c1O

>  <score_type>  (3131) 
oracle

>  <origin>  (3131) 
adg

>  <m_score__min__energy>  (3131) 
-18.149999999999999

>  <m_primary>  (3131) 
energy

$$$$
86:0
     RDKit          3D

 28 31  0  0  0  0  0  0  0  0999 V2000
   56.2210   29.4140   43.8010 C   0  0  0  0  0  0  0  0  0  0  0  0
   57.0610   29.4510   44.8440 C   0  0  0  0  0  0  0  0  0  0  0  0
   57.2320   30.6610   45.4400 N   0  0  0  0  0  0  0  0  0  0  0  0
   58.1960   30.9020   46.3590 C   0  0  0  0  0  0  0  0  0  0  0  0
   59.1180   29.9090   46.6870 C   0  0  0  0  0  0  0  0  0  0  0  0
   60.2160   30.2210   47.6320 C   0  0  0  0  0  0  0  0  0  0  0  0
   60.3510   29.5100   48.6650 O   0  0  0  0  0  0  0  0  0  0  0  0
   61.1240   31.3170   47.4020 N   0  0  0  0  0  0  0  0  0  0  0  0
   62.4890   31.2410   47.9320 C   0  0  0  0  0  0  0  0  0  0  0  0
   63.3140   32.4670   47.5210 C   0  0  0  0  0  0  0  0  0  0  0  0
   62.6110   33.7430   47.7940 N   0  0  0  0  0  0  0  0  0  0  0  0
   63.0070   34.3450   49.0960 C   0  0  0  0  0  0  0  0  0  0  0  0
   64.0350   33.5580   49.9120 C   0  0  0  0  0  0  0  0  0  0  0  0
   63.0110   33.4000   51.0320 C   0  0  0  0  0  0  0  0  0  0  0  0
   61.9820   34.1800   50.2200 C   0  0  0  0  0  0  0  0  0  0  0  0
   61.1620   33.7680   47.4480 C   0  0  0  0  0  0  0  0  0  0  0  0
   60.6980   32.5220   46.6830 C   0  0  0  0  0  0  0  0  0  0  0  0
   58.9440   28.6190   46.1520 C   0  0  0  0  0  0  0  0  0  0  0  0
   59.7250   27.6960   46.5190 O   0  0  0  0  0  0  0  0  0  0  0  0
   57.8660   28.3410   45.2660 C   0  0  0  0  0  0  0  0  0  0  0  0
   57.6500   27.0480   44.8980 C   0  0  0  0  0  0  0  0  0  0  0  0
   57.1160   25.9740   45.7560 C   0  0  0  0  0  0  0  0  0  0  0  0
   57.8800   25.0100   46.2970 N   0  0  0  0  0  0  0  0  0  0  0  0
   57.0160   24.3240   47.0770 C   0  0  0  0  0  0  0  0  0  0  0  0
   57.3620   23.3180   47.7490 O   0  0  0  0  0  0  0  0  0  0  0  0
   55.7560   24.8080   47.0880 N   0  0  0  0  0  0  0  0  0  0  0  0
   55.8380   25.8610   46.2580 C   0  0  0  0  0  0  0  0  0  0  0  0
   54.7750   26.7160   45.9930 O   0  0  0  0  0  0  0  0  0  0  0  0
  1  2  2  0
  2  3  1  0
  3  4  1  0
  4  5  2  0
  5  6  1  0
  6  7  2  0
  6  8  1  0
  8  9  1  0
  9 10  1  0
 10 11  1  0
 11 12  1  0
 12 13  1  0
 13 14  1  0
 14 15  1  0
 11 16  1  0
 16 17  1  0
  5 18  1  0
 18 19  2  0
 18 20  1  0
 20 21  2  0
 21 22  1  0
 22 23  1  0
 23 24  1  0
 24 25  2  0
 24 26  1  0
 26 27  1  0
 27 28  1  0
 20  2  1  0
 27 22  2  0
 17  8  1  0
 15 12  1  0
M  CHG  4   3  -1  23  -1  26  -1  28  -1
M  END
>  <UniqueID>  (3132) 
87

>  <SMILES>  (3132) 
C=c1[n-]cc(C(=O)N2CCN(C3CCC3)CC2)c(=O)/c1=C/c1[n-]c(=O)[n-]c1[O-]

>  <Energy>  (3132) 
182.09628124329635

>  <Genealogy>  (3132) 
C=c1[n-]cc(C(=O)N2CCN(C3CCC3)CC2)c(=O)c1=Cc1[n-]c(=O)[n-]c1[O-] (protonated)
C=c1[n-]cc(C(=O)N2CCN(C3CCC3)CC2)c(=O)/c1=C/c1[n-]c(=O)[n-]c1[O-] (cis-trans isomerization)
C=c1[n-]cc(C(=O)N2CCN(C3CCC3)CC2)c(=O)/c1=C/c1[n-]c(=O)[n-]c1[O-] (3D coordinates assigned)
C=c1[n-]cc(C(=O)N2CCN(C3CCC3)CC2)c(=O)/c1=C/c1[n-]c(=O)[n-]c1[O-] (nonaromatic ring conformer: 182.09628124329635 kcal/mol)

>  <smiles>  (3132) 
C=c1[nH]cc(C(=O)N2CCN(C3CCC3)CC2)c(=O)c1=Cc1[nH]c(=O)[nH]c1O

>  <score_type>  (3132) 
oracle

>  <origin>  (3132) 
adg

>  <m_score__min__energy>  (3132) 
-17.77

>  <m_primary>  (3132) 
energy

$$$$
0:0
     RDKit          3D

 26 28  0  0  0  0  0  0  0  0999 V2000
   51.0190   33.1840   51.9440 O   0  0  0  0  0  0  0  0  0  0  0  0
   51.2800   32.0960   51.1160 C   0  0  0  0  0  0  0  0  0  0  0  0
   50.7930   31.9850   49.8700 N   0  0  0  0  0  0  0  0  0  0  0  0
   51.3370   30.8270   49.4380 C   0  0  0  0  0  0  0  0  0  0  0  0
   51.1250   30.3670   48.2860 O   0  0  0  0  0  0  0  0  0  0  0  0
   52.1370   30.2080   50.3320 N   0  0  0  0  0  0  0  0  0  0  0  0
   52.0760   31.0080   51.4110 C   0  0  0  0  0  0  0  0  0  0  0  0
   52.8700   30.7840   52.6280 C   0  0  0  0  0  0  0  0  0  0  0  0
   54.1900   30.5150   52.6700 C   0  0  0  0  0  0  0  0  0  0  0  0
   55.0540   30.8630   51.6490 C   0  0  0  0  0  0  0  0  0  0  0  0
   56.3230   30.4900   52.0420 C   0  0  0  0  0  0  0  0  0  0  0  0
   57.5190   30.6420   51.1830 C   0  0  0  0  0  0  0  0  0  0  0  0
   58.2410   29.6350   50.9460 O   0  0  0  0  0  0  0  0  0  0  0  0
   57.8900   31.9220   50.6620 N   0  0  0  0  0  0  0  0  0  0  0  0
   59.1500   32.1830   49.9760 C   0  0  0  0  0  0  0  0  0  0  0  0
   59.0440   31.7950   48.5210 C   0  0  0  0  0  0  0  0  0  0  0  0
   58.9040   30.4410   48.1730 C   0  0  0  0  0  0  0  0  0  0  0  0
   58.8250   30.0600   46.8300 C   0  0  0  0  0  0  0  0  0  0  0  0
   58.8880   31.0240   45.8230 C   0  0  0  0  0  0  0  0  0  0  0  0
   59.0330   32.3730   46.1570 C   0  0  0  0  0  0  0  0  0  0  0  0
   59.1130   32.7660   47.4990 C   0  0  0  0  0  0  0  0  0  0  0  0
   59.3050   34.4790   47.8600 Cl  0  0  0  0  0  0  0  0  0  0  0  0
   56.2840   29.9290   53.2780 N   0  0  0  0  0  0  0  0  0  0  0  0
   57.4350   29.4300   54.0420 C   0  0  0  0  0  0  0  0  0  0  0  0
   54.9740   29.8820   53.6480 C   0  0  0  0  0  0  0  0  0  0  0  0
   54.5280   29.2020   54.7180 C   0  0  0  0  0  0  0  0  0  0  0  0
  1  2  1  0
  2  3  1  0
  3  4  1  0
  4  5  2  0
  4  6  1  0
  6  7  1  0
  7  8  1  0
  8  9  2  0
  9 10  1  0
 10 11  2  0
 11 12  1  0
 12 13  2  0
 12 14  1  0
 14 15  1  0
 15 16  1  0
 16 17  2  0
 17 18  1  0
 18 19  2  0
 19 20  1  0
 20 21  2  0
 21 22  1  0
 11 23  1  0
 23 24  1  0
 23 25  1  0
 25 26  2  0
  7  2  2  0
 25  9  1  0
 21 16  1  0
M  CHG  3   3  -1   6  -1  14  -1
M  END
>  <UniqueID>  (3133) 
1

>  <SMILES>  (3133) 
C=c1/c(=C\c2[n-]c(=O)[n-]c2O)cc(C(=O)[N-]Cc2ccccc2Cl)n1C

>  <Energy>  (3133) 
113.40607128907897

>  <Genealogy>  (3133) 
C=c1c(=Cc2[n-]c(=O)[n-]c2O)cc(C(=O)[N-]Cc2ccccc2Cl)n1C (protonated)
C=c1/c(=C\c2[n-]c(=O)[n-]c2O)cc(C(=O)[N-]Cc2ccccc2Cl)n1C (cis-trans isomerization)
C=c1/c(=C\c2[n-]c(=O)[n-]c2O)cc(C(=O)[N-]Cc2ccccc2Cl)n1C (3D coordinates assigned)
C=c1/c(=C\c2[n-]c(=O)[n-]c2O)cc(C(=O)[N-]Cc2ccccc2Cl)n1C (optimized conformer: 113.40607128907897 kcal/mol)

>  <smiles>  (3133) 
C=c1c(=Cc2[nH]c(=O)[nH]c2O)cc(C(=O)NCc2ccccc2Cl)n1C

>  <score_type>  (3133) 
oracle

>  <origin>  (3133) 
adg

>  <m_score__min__energy>  (3133) 
-14.24

>  <m_primary>  (3133) 
energy

$$$$
3:0
     RDKit          3D

 28 30  0  0  0  0  0  0  0  0999 V2000
   58.4650   34.2770   45.0100 C   0  0  0  0  0  0  0  0  0  0  0  0
   58.1190   32.8320   44.8020 C   0  0  0  0  0  0  0  0  0  0  0  0
   58.0970   31.9470   45.8910 C   0  0  0  0  0  0  0  0  0  0  0  0
   57.7400   30.6090   45.7030 C   0  0  0  0  0  0  0  0  0  0  0  0
   57.3750   30.1440   44.4300 C   0  0  0  0  0  0  0  0  0  0  0  0
   57.0150   28.7010   44.2310 C   0  0  0  0  0  0  0  0  0  0  0  0
   56.0640   28.2940   45.2580 N   0  0  0  0  0  0  0  0  0  0  0  0
   56.1210   27.0500   45.9660 C   0  0  0  0  0  0  0  0  0  0  0  0
   55.1050   26.3060   45.9660 O   0  0  0  0  0  0  0  0  0  0  0  0
   57.3350   26.6540   46.7630 C   0  0  0  0  0  0  0  0  0  0  0  0
   58.5290   26.5850   45.9240 N   0  0  0  0  0  0  0  0  0  0  0  0
   59.6630   27.4620   46.0000 C   0  0  0  0  0  0  0  0  0  0  0  0
   60.0340   28.0610   44.9570 O   0  0  0  0  0  0  0  0  0  0  0  0
   60.4190   27.6940   47.2840 C   0  0  0  0  0  0  0  0  0  0  0  0
   60.0930   28.9980   47.8830 N   0  0  0  0  0  0  0  0  0  0  0  0
   59.2620   29.0300   48.9300 N   0  0  0  0  0  0  0  0  0  0  0  0
   58.9140   30.1820   49.5540 C   0  0  0  0  0  0  0  0  0  0  0  0
   58.1150   30.1400   50.5280 O   0  0  0  0  0  0  0  0  0  0  0  0
   59.4460   31.3980   49.1070 C   0  0  0  0  0  0  0  0  0  0  0  0
   59.1040   32.6230   49.7110 C   0  0  0  0  0  0  0  0  0  0  0  0
   59.6590   33.8160   49.2440 C   0  0  0  0  0  0  0  0  0  0  0  0
   60.5600   33.8020   48.1790 C   0  0  0  0  0  0  0  0  0  0  0  0
   60.9120   32.5940   47.5720 C   0  0  0  0  0  0  0  0  0  0  0  0
   60.3540   31.3820   48.0250 C   0  0  0  0  0  0  0  0  0  0  0  0
   60.6790   30.1510   47.4270 C   0  0  0  0  0  0  0  0  0  0  0  0
   61.5040   30.1130   46.4710 O   0  0  0  0  0  0  0  0  0  0  0  0
   57.3960   31.0300   43.3420 C   0  0  0  0  0  0  0  0  0  0  0  0
   57.7550   32.3690   43.5290 C   0  0  0  0  0  0  0  0  0  0  0  0
  1  2  1  0
  2  3  2  0
  3  4  1  0
  4  5  2  0
  5  6  1  0
  6  7  1  0
  7  8  1  0
  8  9  2  0
  8 10  1  0
 10 11  1  0
 11 12  1  0
 12 13  2  0
 12 14  1  0
 14 15  1  0
 15 16  1  0
 16 17  1  0
 17 18  2  0
 17 19  1  0
 19 20  2  0
 20 21  1  0
 21 22  2  0
 22 23  1  0
 23 24  2  0
 24 25  1  0
 25 26  2  0
  5 27  1  0
 27 28  2  0
 28  2  1  0
 25 15  1  0
 24 19  1  0
M  CHG  3   7  -1  11  -1  16  -1
M  END
>  <UniqueID>  (3134) 
4

>  <SMILES>  (3134) 
Cc1ccc(C[N-]C(=O)C[N-]C(=O)Cn2[n-]c(=O)c3ccccc3c2=O)cc1

>  <Energy>  (3134) 
47.24341364976087

>  <Genealogy>  (3134) 
Cc1ccc(C[N-]C(=O)C[N-]C(=O)Cn2[n-]c(=O)c3ccccc3c2=O)cc1 (protonated)
Cc1ccc(C[N-]C(=O)C[N-]C(=O)Cn2[n-]c(=O)c3ccccc3c2=O)cc1 (3D coordinates assigned)
Cc1ccc(C[N-]C(=O)C[N-]C(=O)Cn2[n-]c(=O)c3ccccc3c2=O)cc1 (optimized conformer: 47.24341364976087 kcal/mol)

>  <smiles>  (3134) 
Cc1ccc(CNC(=O)CNC(=O)Cn2[nH]c(=O)c3ccccc3c2=O)cc1

>  <score_type>  (3134) 
oracle

>  <origin>  (3134) 
adg

>  <m_score__min__energy>  (3134) 
-14.34

>  <m_primary>  (3134) 
energy

$$$$
9:0
     RDKit          3D

 33 36  0  0  0  0  0  0  0  0999 V2000
   51.9600   29.0850   55.5210 C   0  0  0  0  0  0  0  0  0  0  0  0
   52.9020   29.3840   54.6140 C   0  0  0  0  0  0  0  0  0  0  0  0
   52.6870   29.9420   53.3490 C   0  0  0  0  0  0  0  0  0  0  0  0
   51.5030   30.2320   52.7760 C   0  0  0  0  0  0  0  0  0  0  0  0
   51.3640   30.8150   51.4290 C   0  0  0  0  0  0  0  0  0  0  0  0
   51.4510   30.0910   50.2970 N   0  0  0  0  0  0  0  0  0  0  0  0
   51.1940   30.9940   49.3260 C   0  0  0  0  0  0  0  0  0  0  0  0
   51.1970   30.6960   48.1040 O   0  0  0  0  0  0  0  0  0  0  0  0
   50.9260   32.2410   49.7700 N   0  0  0  0  0  0  0  0  0  0  0  0
   51.0270   32.1080   51.1030 C   0  0  0  0  0  0  0  0  0  0  0  0
   50.7720   33.1390   51.9980 O   0  0  0  0  0  0  0  0  0  0  0  0
   53.9390   30.0780   52.7670 C   0  0  0  0  0  0  0  0  0  0  0  0
   54.8550   29.5950   53.6790 C   0  0  0  0  0  0  0  0  0  0  0  0
   56.3040   29.5040   53.4170 C   0  0  0  0  0  0  0  0  0  0  0  0
   57.0080   28.7710   54.1620 O   0  0  0  0  0  0  0  0  0  0  0  0
   56.9270   30.2570   52.3570 N   0  0  0  0  0  0  0  0  0  0  0  0
   56.3660   31.5400   51.9160 C   0  0  0  0  0  0  0  0  0  0  0  0
   57.4910   32.5500   51.6900 C   0  0  0  0  0  0  0  0  0  0  0  0
   58.5290   32.0040   50.8080 N   0  0  0  0  0  0  0  0  0  0  0  0
   59.4230   32.9290   50.1650 C   0  0  0  0  0  0  0  0  0  0  0  0
   59.9310   33.8630   50.8420 O   0  0  0  0  0  0  0  0  0  0  0  0
   59.6450   32.8900   48.7450 N   0  0  0  0  0  0  0  0  0  0  0  0
   59.4430   34.1140   47.9680 C   0  0  0  0  0  0  0  0  0  0  0  0
   60.7980   34.5940   47.4540 C   0  0  0  0  0  0  0  0  0  0  0  0
   61.5120   33.5460   46.6840 N   0  0  0  0  0  0  0  0  0  0  0  0
   62.9850   33.6330   46.7770 C   0  0  0  0  0  0  0  0  0  0  0  0
   63.5840   32.7580   47.8840 C   0  0  0  0  0  0  0  0  0  0  0  0
   60.9600   32.1710   46.7510 C   0  0  0  0  0  0  0  0  0  0  0  0
   60.4180   31.7970   48.1460 C   0  0  0  0  0  0  0  0  0  0  0  0
   58.5920   30.5640   50.5320 C   0  0  0  0  0  0  0  0  0  0  0  0
   58.1720   29.7510   51.7630 C   0  0  0  0  0  0  0  0  0  0  0  0
   54.2310   29.1890   54.8100 N   0  0  0  0  0  0  0  0  0  0  0  0
   54.8660   28.7010   56.0380 C   0  0  0  0  0  0  0  0  0  0  0  0
  1  2  2  0
  2  3  1  0
  3  4  2  3
  4  5  1  0
  5  6  1  0
  6  7  1  0
  7  8  2  0
  7  9  1  0
  9 10  1  0
 10 11  1  0
  3 12  1  0
 12 13  2  0
 13 14  1  0
 14 15  2  0
 14 16  1  0
 16 17  1  0
 17 18  1  0
 18 19  1  0
 19 20  1  0
 20 21  2  0
 20 22  1  0
 22 23  1  0
 23 24  1  0
 24 25  1  0
 25 26  1  0
 26 27  1  0
 25 28  1  0
 28 29  1  0
 19 30  1  0
 30 31  1  0
 13 32  1  0
 32 33  1  0
 32  2  1  0
 10  5  2  0
 31 16  1  0
 29 22  1  0
M  CHG  3   6  -1   9  -1  11  -1
M  END
>  <UniqueID>  (3135) 
10

>  <SMILES>  (3135) 
C=c1c(=Cc2[n-]c(=O)[n-]c2[O-])cc(C(=O)N2CCN(C(=O)N3CCN(CC)CC3)CC2)n1C

>  <Energy>  (3135) 
151.37814477668164

>  <Genealogy>  (3135) 
C=c1c(=Cc2[n-]c(=O)[n-]c2[O-])cc(C(=O)N2CCN(C(=O)N3CCN(CC)CC3)CC2)n1C (protonated)
C=c1c(=Cc2[n-]c(=O)[n-]c2[O-])cc(C(=O)N2CCN(C(=O)N3CCN(CC)CC3)CC2)n1C (3D coordinates assigned)
C=c1c(=Cc2[n-]c(=O)[n-]c2[O-])cc(C(=O)N2CCN(C(=O)N3CCN(CC)CC3)CC2)n1C (nonaromatic ring conformer: 151.37814477668164 kcal/mol)

>  <smiles>  (3135) 
C=c1c(=Cc2[nH]c(=O)[nH]c2O)cc(C(=O)N2CCN(C(=O)N3CCN(CC)CC3)CC2)n1C

>  <score_type>  (3135) 
oracle

>  <origin>  (3135) 
adg

>  <m_score__min__energy>  (3135) 
-17.870000000000001

>  <m_primary>  (3135) 
energy

$$$$
33:0
     RDKit          3D

 28 30  0  0  0  0  0  0  0  0999 V2000
   54.5380   28.9200   54.2280 C   0  0  0  0  0  0  0  0  0  0  0  0
   55.0930   29.6110   53.2170 C   0  0  0  0  0  0  0  0  0  0  0  0
   54.4790   30.6150   52.4540 C   0  0  0  0  0  0  0  0  0  0  0  0
   53.1940   31.0160   52.3820 C   0  0  0  0  0  0  0  0  0  0  0  0
   52.3780   31.0710   51.1590 C   0  0  0  0  0  0  0  0  0  0  0  0
   52.3630   30.1120   50.2190 N   0  0  0  0  0  0  0  0  0  0  0  0
   51.3940   30.4880   49.3620 C   0  0  0  0  0  0  0  0  0  0  0  0
   51.0970   29.8290   48.3320 O   0  0  0  0  0  0  0  0  0  0  0  0
   50.7590   31.6270   49.7120 N   0  0  0  0  0  0  0  0  0  0  0  0
   51.3800   31.9760   50.8560 C   0  0  0  0  0  0  0  0  0  0  0  0
   51.0230   33.0790   51.6200 O   0  0  0  0  0  0  0  0  0  0  0  0
   55.4810   31.1920   51.6970 C   0  0  0  0  0  0  0  0  0  0  0  0
   56.6470   30.5060   51.9700 C   0  0  0  0  0  0  0  0  0  0  0  0
   57.9460   30.8400   51.3410 C   0  0  0  0  0  0  0  0  0  0  0  0
   58.2330   32.0530   51.1420 O   0  0  0  0  0  0  0  0  0  0  0  0
   58.8880   29.8090   51.0090 N   0  0  0  0  0  0  0  0  0  0  0  0
   59.1760   29.3860   49.8160 C   0  0  0  0  0  0  0  0  0  0  0  0
   58.7830   30.0100   48.6560 C   0  0  0  0  0  0  0  0  0  0  0  0
   59.3240   29.2040   47.6660 C   0  0  0  0  0  0  0  0  0  0  0  0
   59.2070   29.3680   46.1620 C   0  0  0  0  0  0  0  0  0  0  0  0
   58.0750   28.4930   45.5800 C   0  0  0  0  0  0  0  0  0  0  0  0
   60.5440   28.9600   45.5170 C   0  0  0  0  0  0  0  0  0  0  0  0
   58.9110   30.8460   45.8410 C   0  0  0  0  0  0  0  0  0  0  0  0
   59.9630   28.2060   48.2420 O   0  0  0  0  0  0  0  0  0  0  0  0
   59.8990   28.2830   49.5390 N   0  0  0  0  0  0  0  0  0  0  0  0
   56.4100   29.5220   52.8780 N   0  0  0  0  0  0  0  0  0  0  0  0
   57.3850   28.5520   53.4040 C   0  0  0  0  0  0  0  0  0  0  0  0
   58.3730   29.2330   54.3480 C   0  0  0  0  0  0  0  0  0  0  0  0
  1  2  2  0
  2  3  1  0
  3  4  2  3
  4  5  1  0
  5  6  1  0
  6  7  1  0
  7  8  2  0
  7  9  1  0
  9 10  1  0
 10 11  1  0
  3 12  1  0
 12 13  2  0
 13 14  1  0
 14 15  2  0
 14 16  1  0
 16 17  2  3
 17 18  1  0
 18 19  2  0
 19 20  1  0
 20 21  1  0
 20 22  1  0
 20 23  1  0
 19 24  1  0
 24 25  1  0
 13 26  1  0
 26 27  1  0
 27 28  1  0
 26  2  1  0
 10  5  2  0
 25 17  1  0
M  CHG  3   9  -1  11  -1  25  -1
M  END
>  <UniqueID>  (3136) 
32

>  <SMILES>  (3136) 
C=c1c(=Cc2[nH]c(=O)[n-]c2[O-])cc(C(=O)N=c2cc(C(C)(C)C)o[n-]2)n1CC

>  <Energy>  (3136) 
150.22627394617317

>  <Genealogy>  (3136) 
C=c1c(=Cc2[nH]c(=O)[n-]c2[O-])cc(C(=O)N=c2cc(C(C)(C)C)o[n-]2)n1CC (protonated)
C=c1c(=Cc2[nH]c(=O)[n-]c2[O-])cc(C(=O)N=c2cc(C(C)(C)C)o[n-]2)n1CC (3D coordinates assigned)
C=c1c(=Cc2[nH]c(=O)[n-]c2[O-])cc(C(=O)N=c2cc(C(C)(C)C)o[n-]2)n1CC (optimized conformer: 150.22627394617317 kcal/mol)

>  <smiles>  (3136) 
C=c1c(=Cc2[nH]c(=O)[nH]c2O)cc(C(=O)N=c2cc(C(C)(C)C)o[nH]2)n1CC

>  <score_type>  (3136) 
oracle

>  <origin>  (3136) 
adg

>  <m_score__min__energy>  (3136) 
-16.039999999999999

>  <m_primary>  (3136) 
energy

$$$$
40:0
     RDKit          3D

 25 27  0  0  0  0  0  0  0  0999 V2000
   57.0190   29.4400   43.3800 C   0  0  0  0  0  0  0  0  0  0  0  0
   57.7060   29.3020   44.5190 C   0  0  0  0  0  0  0  0  0  0  0  0
   58.3740   30.6100   45.3390 S   0  0  0  0  0  0  0  0  0  0  0  0
   59.0340   29.7270   46.6020 C   0  0  0  0  0  0  0  0  0  0  0  0
   59.8030   30.3080   47.7180 C   0  0  0  0  0  0  0  0  0  0  0  0
   60.8850   29.7600   48.0640 O   0  0  0  0  0  0  0  0  0  0  0  0
   59.3460   31.5710   48.4040 C   0  0  0  0  0  0  0  0  0  0  0  0
   59.3500   32.7600   47.4710 C   0  0  0  0  0  0  0  0  0  0  0  0
   58.1310   33.2560   46.9790 C   0  0  0  0  0  0  0  0  0  0  0  0
   58.1110   34.3400   46.0960 C   0  0  0  0  0  0  0  0  0  0  0  0
   59.3080   34.9330   45.6890 C   0  0  0  0  0  0  0  0  0  0  0  0
   59.2860   35.9830   44.8310 F   0  0  0  0  0  0  0  0  0  0  0  0
   60.5270   34.4420   46.1600 C   0  0  0  0  0  0  0  0  0  0  0  0
   60.5590   33.3560   47.0440 C   0  0  0  0  0  0  0  0  0  0  0  0
   62.1250   32.7640   47.5880 Cl  0  0  0  0  0  0  0  0  0  0  0  0
   58.7380   28.3800   46.4050 C   0  0  0  0  0  0  0  0  0  0  0  0
   57.9830   28.1200   45.2380 C   0  0  0  0  0  0  0  0  0  0  0  0
   57.6010   26.8860   44.8350 C   0  0  0  0  0  0  0  0  0  0  0  0
   57.0790   25.8150   45.7130 C   0  0  0  0  0  0  0  0  0  0  0  0
   57.7930   24.7860   46.2050 N   0  0  0  0  0  0  0  0  0  0  0  0
   56.9160   24.1500   47.0120 C   0  0  0  0  0  0  0  0  0  0  0  0
   57.2160   23.1110   47.6550 O   0  0  0  0  0  0  0  0  0  0  0  0
   55.6940   24.7190   47.0800 N   0  0  0  0  0  0  0  0  0  0  0  0
   55.8180   25.7750   46.2600 C   0  0  0  0  0  0  0  0  0  0  0  0
   54.8000   26.6890   46.0190 O   0  0  0  0  0  0  0  0  0  0  0  0
  1  2  2  0
  2  3  1  0
  3  4  1  0
  4  5  1  0
  5  6  2  0
  5  7  1  0
  7  8  1  0
  8  9  2  0
  9 10  1  0
 10 11  2  0
 11 12  1  0
 11 13  1  0
 13 14  2  0
 14 15  1  0
  4 16  2  0
 16 17  1  0
 17 18  2  0
 18 19  1  0
 19 20  1  0
 20 21  1  0
 21 22  2  0
 21 23  1  0
 23 24  1  0
 24 25  1  0
 17  2  1  0
 24 19  2  0
 14  8  1  0
M  CHG  3  20  -1  23  -1  25  -1
M  END
>  <UniqueID>  (3137) 
39

>  <SMILES>  (3137) 
C=c1sc(C(=O)Cc2ccc(F)cc2Cl)c/c1=C\c1[n-]c(=O)[n-]c1[O-]

>  <Energy>  (3137) 
100.21259967567964

>  <Genealogy>  (3137) 
C=c1sc(C(=O)Cc2ccc(F)cc2Cl)cc1=Cc1[n-]c(=O)[n-]c1[O-] (protonated)
C=c1sc(C(=O)Cc2ccc(F)cc2Cl)c/c1=C\c1[n-]c(=O)[n-]c1[O-] (cis-trans isomerization)
C=c1sc(C(=O)Cc2ccc(F)cc2Cl)c/c1=C\c1[n-]c(=O)[n-]c1[O-] (3D coordinates assigned)
C=c1sc(C(=O)Cc2ccc(F)cc2Cl)c/c1=C\c1[n-]c(=O)[n-]c1[O-] (optimized conformer: 100.21259967567964 kcal/mol)

>  <smiles>  (3137) 
C=c1sc(C(=O)Cc2ccc(F)cc2Cl)cc1=Cc1[nH]c(=O)[nH]c1O

>  <score_type>  (3137) 
oracle

>  <origin>  (3137) 
adg

>  <m_score__min__energy>  (3137) 
-17.079999999999998

>  <m_primary>  (3137) 
energy

$$$$
71:0
     RDKit          3D

 29 31  0  0  0  0  0  0  0  0999 V2000
   57.2260   28.7180   45.4470 C   0  0  0  0  0  0  0  0  0  0  0  0
   56.5580   29.8820   45.2310 N   0  0  0  0  0  0  0  0  0  0  0  0
   57.4020   30.9280   45.1160 C   0  0  0  0  0  0  0  0  0  0  0  0
   56.9820   32.1270   44.8340 N   0  0  0  0  0  0  0  0  0  0  0  0
   57.3740   33.3350   45.5020 C   0  0  0  0  0  0  0  0  0  0  0  0
   56.8620   34.4230   45.1320 O   0  0  0  0  0  0  0  0  0  0  0  0
   58.3180   33.3310   46.6400 C   0  0  0  0  0  0  0  0  0  0  0  0
   59.4200   34.2010   46.6410 C   0  0  0  0  0  0  0  0  0  0  0  0
   60.3100   34.2090   47.7160 C   0  0  0  0  0  0  0  0  0  0  0  0
   60.0960   33.3670   48.8080 C   0  0  0  0  0  0  0  0  0  0  0  0
   58.9860   32.5080   48.8370 C   0  0  0  0  0  0  0  0  0  0  0  0
   58.7370   31.6580   50.0530 C   0  0  0  0  0  0  0  0  0  0  0  0
   57.3590   31.8060   50.5090 N   0  0  0  0  0  0  0  0  0  0  0  0
   56.8240   31.5790   51.8230 C   0  0  0  0  0  0  0  0  0  0  0  0
   57.4550   32.0540   52.8040 O   0  0  0  0  0  0  0  0  0  0  0  0
   55.5520   30.8630   52.0800 C   0  0  0  0  0  0  0  0  0  0  0  0
   54.3430   31.3140   51.6480 N   0  0  0  0  0  0  0  0  0  0  0  0
   53.3300   30.5180   52.0510 C   0  0  0  0  0  0  0  0  0  0  0  0
   51.9830   30.7240   51.7320 O   0  0  0  0  0  0  0  0  0  0  0  0
   51.4000   31.9790   51.5180 C   0  0  0  0  0  0  0  0  0  0  0  0
   50.8580   32.6150   52.4610 O   0  0  0  0  0  0  0  0  0  0  0  0
   51.3960   32.5410   50.2070 N   0  0  0  0  0  0  0  0  0  0  0  0
   50.3490   32.3470   49.3640 O   0  0  0  0  0  0  0  0  0  0  0  0
   50.6610   31.2080   48.6040 C   0  0  0  0  0  0  0  0  0  0  0  0
   53.8800   29.2310   52.9730 S   0  0  0  0  0  0  0  0  0  0  0  0
   55.4920   29.6950   52.8440 C   0  0  0  0  0  0  0  0  0  0  0  0
   58.1030   32.4880   47.7440 C   0  0  0  0  0  0  0  0  0  0  0  0
   59.0130   30.4460   45.2650 S   0  0  0  0  0  0  0  0  0  0  0  0
   58.6110   28.8300   45.5000 C   0  0  0  0  0  0  0  0  0  0  0  0
  1  2  1  0
  2  3  1  0
  3  4  2  0
  4  5  1  0
  5  6  2  0
  5  7  1  0
  7  8  2  0
  8  9  1  0
  9 10  2  0
 10 11  1  0
 11 12  1  0
 12 13  1  0
 13 14  1  0
 14 15  2  0
 14 16  1  0
 16 17  1  0
 17 18  2  0
 18 19  1  0
 19 20  1  0
 20 21  2  0
 20 22  1  0
 22 23  1  0
 23 24  1  0
 18 25  1  0
 25 26  1  0
 11 27  2  0
  3 28  1  0
 28 29  1  0
 29  1  2  0
 27  7  1  0
 26 16  2  0
M  CHG  3   2  -1  13  -1  22  -1
M  END
>  <UniqueID>  (3138) 
68

>  <SMILES>  (3138) 
CO[N-]C(=O)Oc1nc(C(=O)[N-]Cc2cccc(C(=O)/N=c3/[n-]ccs3)c2)cs1

>  <Energy>  (3138) 
106.32275038899002

>  <Genealogy>  (3138) 
CO[N-]C(=O)Oc1nc(C(=O)[N-]Cc2cccc(C(=O)N=c3[n-]ccs3)c2)cs1 (protonated)
CO[N-]C(=O)Oc1nc(C(=O)[N-]Cc2cccc(C(=O)/N=c3/[n-]ccs3)c2)cs1 (cis-trans isomerization)
CO[N-]C(=O)Oc1nc(C(=O)[N-]Cc2cccc(C(=O)/N=c3/[n-]ccs3)c2)cs1 (3D coordinates assigned)
CO[N-]C(=O)Oc1nc(C(=O)[N-]Cc2cccc(C(=O)/N=c3/[n-]ccs3)c2)cs1 (optimized conformer: 106.32275038899002 kcal/mol)

>  <smiles>  (3138) 
CONC(=O)Oc1nc(C(=O)NCc2cccc(C(=O)N=c3[nH]ccs3)c2)cs1

>  <score_type>  (3138) 
oracle

>  <origin>  (3138) 
adg

>  <m_score__min__energy>  (3138) 
-14.1

>  <m_primary>  (3138) 
energy

$$$$
80:0
     RDKit          3D

 38 42  0  0  0  0  0  0  0  0999 V2000
   52.0820   21.1640   47.2650 C   0  0  0  0  0  0  0  0  0  0  0  0
   53.0280   22.1170   47.2250 C   0  0  0  0  0  0  0  0  0  0  0  0
   54.1910   22.1860   48.0150 C   0  0  0  0  0  0  0  0  0  0  0  0
   54.5780   21.4680   49.0880 C   0  0  0  0  0  0  0  0  0  0  0  0
   55.8430   21.6390   49.8100 C   0  0  0  0  0  0  0  0  0  0  0  0
   55.9510   21.8250   51.1400 N   0  0  0  0  0  0  0  0  0  0  0  0
   57.2800   21.9850   51.3230 C   0  0  0  0  0  0  0  0  0  0  0  0
   57.7910   22.1580   52.4600 O   0  0  0  0  0  0  0  0  0  0  0  0
   58.0210   21.9260   50.1950 N   0  0  0  0  0  0  0  0  0  0  0  0
   57.0950   21.7180   49.2460 C   0  0  0  0  0  0  0  0  0  0  0  0
   57.3860   21.6100   47.8930 O   0  0  0  0  0  0  0  0  0  0  0  0
   54.9740   23.1830   47.4570 C   0  0  0  0  0  0  0  0  0  0  0  0
   54.2680   23.7080   46.3930 C   0  0  0  0  0  0  0  0  0  0  0  0
   54.8140   24.7240   45.4680 C   0  0  0  0  0  0  0  0  0  0  0  0
   54.5860   25.9470   45.6630 O   0  0  0  0  0  0  0  0  0  0  0  0
   55.5640   24.3160   44.3220 N   0  0  0  0  0  0  0  0  0  0  0  0
   57.0250   24.2630   44.3080 C   0  0  0  0  0  0  0  0  0  0  0  0
   57.6390   25.6110   44.5800 C   0  0  0  0  0  0  0  0  0  0  0  0
   57.7890   26.5190   43.5180 C   0  0  0  0  0  0  0  0  0  0  0  0
   58.1880   27.8350   43.7610 C   0  0  0  0  0  0  0  0  0  0  0  0
   58.4290   28.2770   45.0740 C   0  0  0  0  0  0  0  0  0  0  0  0
   58.7470   29.6560   45.3350 N   0  0  0  0  0  0  0  0  0  0  0  0
   59.8850   29.9980   46.2010 C   0  0  0  0  0  0  0  0  0  0  0  0
   59.5830   31.2270   47.0900 C   0  0  0  0  0  0  0  0  0  0  0  0
   58.5850   32.1720   46.5200 N   0  0  0  0  0  0  0  0  0  0  0  0
   58.8620   33.5510   46.9770 C   0  0  0  0  0  0  0  0  0  0  0  0
   60.3110   33.7170   47.3650 C   0  0  0  0  0  0  0  0  0  0  0  0
   60.6610   33.9250   48.7090 C   0  0  0  0  0  0  0  0  0  0  0  0
   62.0000   34.0760   49.0730 C   0  0  0  0  0  0  0  0  0  0  0  0
   63.0000   34.0350   48.0980 C   0  0  0  0  0  0  0  0  0  0  0  0
   62.6610   33.8410   46.7570 C   0  0  0  0  0  0  0  0  0  0  0  0
   61.3210   33.6820   46.3880 C   0  0  0  0  0  0  0  0  0  0  0  0
   58.5250   32.0980   45.0460 C   0  0  0  0  0  0  0  0  0  0  0  0
   58.0160   30.7180   44.6300 C   0  0  0  0  0  0  0  0  0  0  0  0
   58.2970   27.3690   46.1350 C   0  0  0  0  0  0  0  0  0  0  0  0
   57.8980   26.0480   45.8950 C   0  0  0  0  0  0  0  0  0  0  0  0
   53.0670   23.0880   46.2750 N   0  0  0  0  0  0  0  0  0  0  0  0
   52.0400   23.3660   45.2600 C   0  0  0  0  0  0  0  0  0  0  0  0
  1  2  2  0
  2  3  1  0
  3  4  2  3
  4  5  1  0
  5  6  1  0
  6  7  1  0
  7  8  2  0
  7  9  1  0
  9 10  1  0
 10 11  1  0
  3 12  1  0
 12 13  2  0
 13 14  1  0
 14 15  2  0
 14 16  1  0
 16 17  1  0
 17 18  1  0
 18 19  2  0
 19 20  1  0
 20 21  2  0
 21 22  1  0
 22 23  1  0
 23 24  1  0
 24 25  1  0
 25 26  1  0
 26 27  1  0
 27 28  2  0
 28 29  1  0
 29 30  2  0
 30 31  1  0
 31 32  2  0
 25 33  1  0
 33 34  1  0
 21 35  1  0
 35 36  2  0
 13 37  1  0
 37 38  1  0
 37  2  1  0
 10  5  2  0
 36 18  1  0
 34 22  1  0
 32 27  1  0
M  CHG  4   6  -1   9  -1  11  -1  16  -1
M  END
>  <UniqueID>  (3139) 
77

>  <SMILES>  (3139) 
C=c1c(=Cc2[n-]c(=O)[n-]c2[O-])cc(C(=O)[N-]Cc2ccc(N3CCN(Cc4ccccc4)CC3)cc2)n1C

>  <Energy>  (3139) 
155.2268433449276

>  <Genealogy>  (3139) 
C=c1c(=Cc2[n-]c(=O)[n-]c2[O-])cc(C(=O)[N-]Cc2ccc(N3CCN(Cc4ccccc4)CC3)cc2)n1C (protonated)
C=c1c(=Cc2[n-]c(=O)[n-]c2[O-])cc(C(=O)[N-]Cc2ccc(N3CCN(Cc4ccccc4)CC3)cc2)n1C (3D coordinates assigned)
C=c1c(=Cc2[n-]c(=O)[n-]c2[O-])cc(C(=O)[N-]Cc2ccc(N3CCN(Cc4ccccc4)CC3)cc2)n1C (nonaromatic ring conformer: 155.2268433449276 kcal/mol)

>  <smiles>  (3139) 
C=c1c(=Cc2[nH]c(=O)[nH]c2O)cc(C(=O)NCc2ccc(N3CCN(Cc4ccccc4)CC3)cc2)n1C

>  <score_type>  (3139) 
oracle

>  <origin>  (3139) 
adg

>  <m_score__min__energy>  (3139) 
-19.649999999999999

>  <m_primary>  (3139) 
energy

$$$$
6:0
     RDKit          3D

 38 42  0  0  0  0  0  0  0  0999 V2000
   52.9610   31.1810   52.4760 C   0  0  0  0  0  0  0  0  0  0  0  0
   52.2300   31.3190   51.2070 C   0  0  0  0  0  0  0  0  0  0  0  0
   52.2120   30.3720   50.2520 N   0  0  0  0  0  0  0  0  0  0  0  0
   51.3300   30.8560   49.3500 C   0  0  0  0  0  0  0  0  0  0  0  0
   51.0500   30.2490   48.2830 O   0  0  0  0  0  0  0  0  0  0  0  0
   50.7640   32.0370   49.6860 N   0  0  0  0  0  0  0  0  0  0  0  0
   51.3330   32.3090   50.8710 C   0  0  0  0  0  0  0  0  0  0  0  0
   51.0250   33.4270   51.6380 O   0  0  0  0  0  0  0  0  0  0  0  0
   54.1110   30.5020   52.6470 C   0  0  0  0  0  0  0  0  0  0  0  0
   55.3530   31.1180   52.6630 C   0  0  0  0  0  0  0  0  0  0  0  0
   56.2900   30.1130   52.7980 C   0  0  0  0  0  0  0  0  0  0  0  0
   57.7730   30.3130   52.9050 C   0  0  0  0  0  0  0  0  0  0  0  0
   58.2610   31.3890   51.9680 C   0  0  0  0  0  0  0  0  0  0  0  0
   57.6240   32.4760   51.8900 O   0  0  0  0  0  0  0  0  0  0  0  0
   59.4120   31.1740   51.1220 N   0  0  0  0  0  0  0  0  0  0  0  0
   60.0740   32.3130   50.4760 C   0  0  0  0  0  0  0  0  0  0  0  0
   59.6440   32.3910   49.0280 C   0  0  0  0  0  0  0  0  0  0  0  0
   59.6170   33.5600   48.3510 C   0  0  0  0  0  0  0  0  0  0  0  0
   58.9870   33.7540   47.0300 C   0  0  0  0  0  0  0  0  0  0  0  0
   59.7710   34.1970   45.9530 C   0  0  0  0  0  0  0  0  0  0  0  0
   59.1880   34.4250   44.7020 C   0  0  0  0  0  0  0  0  0  0  0  0
   57.8150   34.2320   44.5240 C   0  0  0  0  0  0  0  0  0  0  0  0
   57.0220   33.8190   45.5980 C   0  0  0  0  0  0  0  0  0  0  0  0
   57.6020   33.5880   46.8500 C   0  0  0  0  0  0  0  0  0  0  0  0
   59.2640   31.1220   48.3450 C   0  0  0  0  0  0  0  0  0  0  0  0
   58.9180   31.1400   47.1300 O   0  0  0  0  0  0  0  0  0  0  0  0
   59.2810   29.8300   49.0920 C   0  0  0  0  0  0  0  0  0  0  0  0
   59.0580   28.6710   48.4380 C   0  0  0  0  0  0  0  0  0  0  0  0
   59.0470   28.5380   46.9700 C   0  0  0  0  0  0  0  0  0  0  0  0
   57.8400   28.2780   46.3050 C   0  0  0  0  0  0  0  0  0  0  0  0
   57.8230   28.1170   44.9170 C   0  0  0  0  0  0  0  0  0  0  0  0
   59.0140   28.1950   44.1870 C   0  0  0  0  0  0  0  0  0  0  0  0
   60.2230   28.4270   44.8470 C   0  0  0  0  0  0  0  0  0  0  0  0
   60.2440   28.5880   46.2360 C   0  0  0  0  0  0  0  0  0  0  0  0
   59.7000   29.8550   50.5480 C   0  0  0  0  0  0  0  0  0  0  0  0
   55.6850   28.9160   52.9080 N   0  0  0  0  0  0  0  0  0  0  0  0
   54.3560   29.1340   52.8400 C   0  0  0  0  0  0  0  0  0  0  0  0
   53.4690   28.1580   53.0600 C   0  0  0  0  0  0  0  0  0  0  0  0
  1  2  1  0
  2  3  1  0
  3  4  1  0
  4  5  2  0
  4  6  1  0
  6  7  1  0
  7  8  1  0
  1  9  2  3
  9 10  1  0
 10 11  2  0
 11 12  1  0
 12 13  1  0
 13 14  2  0
 13 15  1  0
 15 16  1  0
 16 17  1  0
 17 18  2  0
 18 19  1  0
 19 20  2  0
 20 21  1  0
 21 22  2  0
 22 23  1  0
 23 24  2  0
 17 25  1  0
 25 26  2  0
 25 27  1  0
 27 28  2  0
 28 29  1  0
 29 30  2  0
 30 31  1  0
 31 32  2  0
 32 33  1  0
 33 34  2  0
 27 35  1  0
 11 36  1  0
 36 37  1  0
 37 38  2  0
  7  2  2  0
 37  9  1  0
 35 15  1  0
 24 19  1  0
 34 29  1  0
M  CHG  3   3  -1   6  -1   8  -1
M  END
>  <UniqueID>  (3140) 
7

>  <SMILES>  (3140) 
C=c1[nH]c(CC(=O)N2C/C(=C\c3ccccc3)C(=O)/C(=C/c3ccccc3)C2)cc1=Cc1[n-]c(=O)[n-]c1[O-]

>  <Energy>  (3140) 
153.38836209108362

>  <Genealogy>  (3140) 
C=c1[nH]c(CC(=O)N2CC(=Cc3ccccc3)C(=O)C(=Cc3ccccc3)C2)cc1=Cc1[n-]c(=O)[n-]c1[O-] (protonated)
C=c1[nH]c(CC(=O)N2C/C(=C\c3ccccc3)C(=O)/C(=C/c3ccccc3)C2)cc1=Cc1[n-]c(=O)[n-]c1[O-] (cis-trans isomerization)
C=c1[nH]c(CC(=O)N2C/C(=C\c3ccccc3)C(=O)/C(=C/c3ccccc3)C2)cc1=Cc1[n-]c(=O)[n-]c1[O-] (3D coordinates assigned)
C=c1[nH]c(CC(=O)N2C/C(=C\c3ccccc3)C(=O)/C(=C/c3ccccc3)C2)cc1=Cc1[n-]c(=O)[n-]c1[O-] (nonaromatic ring conformer: 153.38836209108362 kcal/mol)

>  <smiles>  (3140) 
C=c1[nH]c(CC(=O)N2CC(=Cc3ccccc3)C(=O)C(=Cc3ccccc3)C2)cc1=Cc1[nH]c(=O)[nH]c1O

>  <score_type>  (3140) 
oracle

>  <origin>  (3140) 
adg

>  <m_score__min__energy>  (3140) 
-20.77

>  <m_primary>  (3140) 
energy

$$$$
14:0
     RDKit          3D

 28 31  0  0  0  0  0  0  0  0999 V2000
   52.4030   29.4040   54.3390 C   0  0  0  0  0  0  0  0  0  0  0  0
   53.6430   29.4590   53.8120 C   0  0  0  0  0  0  0  0  0  0  0  0
   54.6520   28.8510   54.5080 N   0  0  0  0  0  0  0  0  0  0  0  0
   55.9470   28.8910   54.1060 C   0  0  0  0  0  0  0  0  0  0  0  0
   56.3050   29.5500   52.9330 C   0  0  0  0  0  0  0  0  0  0  0  0
   57.7170   29.5990   52.4880 C   0  0  0  0  0  0  0  0  0  0  0  0
   58.5920   28.9880   53.1610 O   0  0  0  0  0  0  0  0  0  0  0  0
   58.1110   30.3110   51.2990 N   0  0  0  0  0  0  0  0  0  0  0  0
   59.1390   29.7270   50.4310 C   0  0  0  0  0  0  0  0  0  0  0  0
   59.4300   30.6190   49.2190 C   0  0  0  0  0  0  0  0  0  0  0  0
   59.6990   32.0750   49.6690 C   0  0  0  0  0  0  0  0  0  0  0  0
   59.9720   32.9590   48.5020 N   0  0  0  0  0  0  0  0  0  0  0  0
   58.9210   33.9620   48.2830 C   0  0  0  0  0  0  0  0  0  0  0  0
   58.9880   34.3480   46.8210 C   0  0  0  0  0  0  0  0  0  0  0  0
   59.5280   33.1180   46.1230 C   0  0  0  0  0  0  0  0  0  0  0  0
   60.0530   32.2140   47.2330 C   0  0  0  0  0  0  0  0  0  0  0  0
   58.5030   32.6270   50.5080 C   0  0  0  0  0  0  0  0  0  0  0  0
   57.4640   31.5730   50.9250 C   0  0  0  0  0  0  0  0  0  0  0  0
   55.3060   30.1860   52.1910 C   0  0  0  0  0  0  0  0  0  0  0  0
   53.9520   30.1560   52.5960 C   0  0  0  0  0  0  0  0  0  0  0  0
   52.9960   30.7230   51.8110 C   0  0  0  0  0  0  0  0  0  0  0  0
   51.8990   31.5870   52.2920 C   0  0  0  0  0  0  0  0  0  0  0  0
   51.6820   31.8540   53.5920 N   0  0  0  0  0  0  0  0  0  0  0  0
   50.6720   32.7500   53.5630 C   0  0  0  0  0  0  0  0  0  0  0  0
   50.1680   33.2370   54.6080 O   0  0  0  0  0  0  0  0  0  0  0  0
   50.2500   33.0900   52.3260 N   0  0  0  0  0  0  0  0  0  0  0  0
   51.0450   32.3560   51.5320 C   0  0  0  0  0  0  0  0  0  0  0  0
   51.0160   32.4160   50.1440 O   0  0  0  0  0  0  0  0  0  0  0  0
  1  2  2  0
  2  3  1  0
  3  4  2  0
  4  5  1  0
  5  6  1  0
  6  7  2  0
  6  8  1  0
  8  9  1  0
  9 10  1  0
 10 11  1  0
 11 12  1  0
 12 13  1  0
 13 14  1  0
 14 15  1  0
 15 16  1  0
 11 17  1  0
 17 18  1  0
  5 19  2  0
 19 20  1  0
 20 21  2  3
 21 22  1  0
 22 23  1  0
 23 24  1  0
 24 25  2  0
 24 26  1  0
 26 27  1  0
 27 28  1  0
 20  2  1  0
 27 22  2  0
 18  8  1  0
 16 12  1  0
M  CHG  4   3   1  23  -1  26  -1  28  -1
M  END
>  <UniqueID>  (3141) 
15

>  <SMILES>  (3141) 
C=c1[nH+]cc(C(=O)N2CCC(N3CCCC3)CC2)cc1=Cc1[n-]c(=O)[n-]c1[O-]

>  <Energy>  (3141) 
111.67769533967996

>  <Genealogy>  (3141) 
C=c1[nH+]cc(C(=O)N2CCC(N3CCCC3)CC2)cc1=Cc1[n-]c(=O)[n-]c1[O-] (protonated)
C=c1[nH+]cc(C(=O)N2CCC(N3CCCC3)CC2)cc1=Cc1[n-]c(=O)[n-]c1[O-] (3D coordinates assigned)
C=c1[nH+]cc(C(=O)N2CCC(N3CCCC3)CC2)cc1=Cc1[n-]c(=O)[n-]c1[O-] (nonaromatic ring conformer: 111.67769533967996 kcal/mol)

>  <smiles>  (3141) 
C=c1ncc(C(=O)N2CCC(N3CCCC3)CC2)cc1=Cc1[nH]c(=O)[nH]c1O

>  <score_type>  (3141) 
oracle

>  <origin>  (3141) 
adg

>  <m_score__min__energy>  (3141) 
-17.059999999999999

>  <m_primary>  (3141) 
energy

$$$$
17:0
     RDKit          3D

 26 28  0  0  0  0  0  0  0  0999 V2000
   56.2550   29.6660   42.8450 C   0  0  0  0  0  0  0  0  0  0  0  0
   56.9220   29.5270   43.9910 C   0  0  0  0  0  0  0  0  0  0  0  0
   56.9380   28.3850   44.7050 N   0  0  0  0  0  0  0  0  0  0  0  0
   57.6890   28.6050   45.8060 C   0  0  0  0  0  0  0  0  0  0  0  0
   57.8780   27.6500   46.7360 C   0  0  0  0  0  0  0  0  0  0  0  0
   57.4040   26.2580   46.6390 C   0  0  0  0  0  0  0  0  0  0  0  0
   58.1210   25.1730   47.0050 N   0  0  0  0  0  0  0  0  0  0  0  0
   57.2530   24.1480   46.8590 C   0  0  0  0  0  0  0  0  0  0  0  0
   57.5580   22.9540   47.1150 O   0  0  0  0  0  0  0  0  0  0  0  0
   56.0310   24.5310   46.4330 N   0  0  0  0  0  0  0  0  0  0  0  0
   54.8380   23.7060   46.2820 C   0  0  0  0  0  0  0  0  0  0  0  0
   56.1210   25.8660   46.3270 C   0  0  0  0  0  0  0  0  0  0  0  0
   55.0680   26.7040   45.9740 O   0  0  0  0  0  0  0  0  0  0  0  0
   58.1830   29.9140   45.7790 C   0  0  0  0  0  0  0  0  0  0  0  0
   59.2170   30.5110   46.6470 C   0  0  0  0  0  0  0  0  0  0  0  0
   60.2510   29.8330   46.8990 O   0  0  0  0  0  0  0  0  0  0  0  0
   59.0790   31.8390   47.1930 N   0  0  0  0  0  0  0  0  0  0  0  0
   60.2350   32.4620   47.8490 C   0  0  0  0  0  0  0  0  0  0  0  0
   59.8890   33.8640   48.3690 C   0  0  0  0  0  0  0  0  0  0  0  0
   59.1370   34.6420   47.3610 N   0  0  0  0  0  0  0  0  0  0  0  0
   59.9870   35.0280   46.2130 C   0  0  0  0  0  0  0  0  0  0  0  0
   59.2080   34.9040   44.9060 C   0  0  0  0  0  0  0  0  0  0  0  0
   57.8680   33.9840   46.9390 C   0  0  0  0  0  0  0  0  0  0  0  0
   57.7680   32.4930   47.3130 C   0  0  0  0  0  0  0  0  0  0  0  0
   57.6930   30.4950   44.6150 C   0  0  0  0  0  0  0  0  0  0  0  0
   57.9800   31.8770   44.1030 C   0  0  0  0  0  0  0  0  0  0  0  0
  1  2  2  0
  2  3  1  0
  3  4  1  0
  4  5  2  3
  5  6  1  0
  6  7  1  0
  7  8  1  0
  8  9  2  0
  8 10  1  0
 10 11  1  0
 10 12  1  0
 12 13  1  0
  4 14  1  0
 14 15  1  0
 15 16  2  0
 15 17  1  0
 17 18  1  0
 18 19  1  0
 19 20  1  0
 20 21  1  0
 21 22  1  0
 20 23  1  0
 23 24  1  0
 14 25  2  0
 25 26  1  0
 25  2  1  0
 12  6  2  0
 24 17  1  0
M  CHG  2   7  -1  13  -1
M  END
>  <UniqueID>  (3142) 
18

>  <SMILES>  (3142) 
C=c1[nH]c(=Cc2[n-]c(=O)n(C)c2[O-])c(C(=O)N2CCN(CC)CC2)c1C

>  <Energy>  (3142) 
125.33038936118295

>  <Genealogy>  (3142) 
C=c1[nH]c(=Cc2[n-]c(=O)n(C)c2[O-])c(C(=O)N2CCN(CC)CC2)c1C (protonated)
C=c1[nH]c(=Cc2[n-]c(=O)n(C)c2[O-])c(C(=O)N2CCN(CC)CC2)c1C (3D coordinates assigned)
C=c1[nH]c(=Cc2[n-]c(=O)n(C)c2[O-])c(C(=O)N2CCN(CC)CC2)c1C (nonaromatic ring conformer: 125.33038936118295 kcal/mol)

>  <smiles>  (3142) 
C=c1[nH]c(=Cc2[nH]c(=O)n(C)c2O)c(C(=O)N2CCN(CC)CC2)c1C

>  <score_type>  (3142) 
oracle

>  <origin>  (3142) 
adg

>  <m_score__min__energy>  (3142) 
-14.31

>  <m_primary>  (3142) 
energy

$$$$
26:0
     RDKit          3D

 29 31  0  0  0  0  0  0  0  0999 V2000
   53.4540   28.5920   53.2520 C   0  0  0  0  0  0  0  0  0  0  0  0
   54.4330   29.3380   52.7110 C   0  0  0  0  0  0  0  0  0  0  0  0
   54.2820   30.4290   51.8360 C   0  0  0  0  0  0  0  0  0  0  0  0
   53.2000   30.8970   51.1810 C   0  0  0  0  0  0  0  0  0  0  0  0
   52.0070   31.4820   51.8120 C   0  0  0  0  0  0  0  0  0  0  0  0
   51.7400   31.3940   53.1260 N   0  0  0  0  0  0  0  0  0  0  0  0
   50.6310   32.1580   53.2690 C   0  0  0  0  0  0  0  0  0  0  0  0
   50.0540   32.3120   54.3760 O   0  0  0  0  0  0  0  0  0  0  0  0
   50.1970   32.7490   52.1330 N   0  0  0  0  0  0  0  0  0  0  0  0
   51.0880   32.3240   51.2230 C   0  0  0  0  0  0  0  0  0  0  0  0
   51.0710   32.7100   49.8870 O   0  0  0  0  0  0  0  0  0  0  0  0
   55.5360   31.0010   51.7130 C   0  0  0  0  0  0  0  0  0  0  0  0
   56.4080   30.2300   52.4570 C   0  0  0  0  0  0  0  0  0  0  0  0
   57.8970   30.4550   52.4960 C   0  0  0  0  0  0  0  0  0  0  0  0
   58.3800   30.9970   51.1730 C   0  0  0  0  0  0  0  0  0  0  0  0
   58.8140   32.1410   51.1300 O   0  0  0  0  0  0  0  0  0  0  0  0
   58.3690   30.1770   49.9740 N   0  0  0  0  0  0  0  0  0  0  0  0
   58.5170   31.0230   48.7650 C   0  0  0  0  0  0  0  0  0  0  0  0
   58.8720   30.1940   47.5110 C   0  0  0  0  0  0  0  0  0  0  0  0
   58.5620   28.7700   47.7330 N   0  0  0  0  0  0  0  0  0  0  0  0
   58.5810   27.9410   46.5040 C   0  0  0  0  0  0  0  0  0  0  0  0
   57.6300   26.7210   46.5230 C   0  0  0  0  0  0  0  0  0  0  0  0
   56.2690   27.0580   45.9920 C   0  0  0  0  0  0  0  0  0  0  0  0
   55.2980   26.2780   46.1940 O   0  0  0  0  0  0  0  0  0  0  0  0
   56.0660   28.2450   45.2890 O   0  0  0  0  0  0  0  0  0  0  0  0
   59.3590   28.1930   48.8390 C   0  0  0  0  0  0  0  0  0  0  0  0
   59.4370   29.1580   50.0430 C   0  0  0  0  0  0  0  0  0  0  0  0
   55.7430   29.2070   53.0500 N   0  0  0  0  0  0  0  0  0  0  0  0
   56.3050   28.2100   53.9720 C   0  0  0  0  0  0  0  0  0  0  0  0
  1  2  2  0
  2  3  1  0
  3  4  2  3
  4  5  1  0
  5  6  1  0
  6  7  1  0
  7  8  2  0
  7  9  1  0
  9 10  1  0
 10 11  1  0
  3 12  1  0
 12 13  2  0
 13 14  1  0
 14 15  1  0
 15 16  2  0
 15 17  1  0
 17 18  1  0
 18 19  1  0
 19 20  1  0
 20 21  1  0
 21 22  1  0
 22 23  1  0
 23 24  2  0
 23 25  1  0
 20 26  1  0
 26 27  1  0
 13 28  1  0
 28 29  1  0
 28  2  1  0
 10  5  2  0
 27 17  1  0
M  CHG  5   6  -1   9  -1  11  -1  17   1  25  -1
M  END
>  <UniqueID>  (3143) 
26

>  <SMILES>  (3143) 
C=c1c(=Cc2[n-]c(=O)[n-]c2[O-])cc(CC(=O)[NH+]2CCN(CCC(=O)[O-])CC2)n1C

>  <Energy>  (3143) 
132.13815910859788

>  <Genealogy>  (3143) 
C=c1c(=Cc2[n-]c(=O)[n-]c2[O-])cc(CC(=O)[NH+]2CCN(CCC(=O)[O-])CC2)n1C (protonated)
C=c1c(=Cc2[n-]c(=O)[n-]c2[O-])cc(CC(=O)[NH+]2CCN(CCC(=O)[O-])CC2)n1C (3D coordinates assigned)
C=c1c(=Cc2[n-]c(=O)[n-]c2[O-])cc(CC(=O)[NH+]2CCN(CCC(=O)[O-])CC2)n1C (nonaromatic ring conformer: 132.13815910859788 kcal/mol)

>  <smiles>  (3143) 
C=c1c(=Cc2[nH]c(=O)[nH]c2O)cc(CC(=O)N2CCN(CCC(=O)O)CC2)n1C

>  <score_type>  (3143) 
oracle

>  <origin>  (3143) 
adg

>  <m_score__min__energy>  (3143) 
-18.27

>  <m_primary>  (3143) 
energy

$$$$
47:0
     RDKit          3D

 26 28  0  0  0  0  0  0  0  0999 V2000
   53.9410   29.1200   54.4990 C   0  0  0  0  0  0  0  0  0  0  0  0
   54.5470   29.7520   53.4810 C   0  0  0  0  0  0  0  0  0  0  0  0
   53.9150   30.5380   52.5100 C   0  0  0  0  0  0  0  0  0  0  0  0
   52.5970   30.7990   52.3970 C   0  0  0  0  0  0  0  0  0  0  0  0
   51.9270   31.1230   51.1240 C   0  0  0  0  0  0  0  0  0  0  0  0
   51.8180   30.2500   50.1070 N   0  0  0  0  0  0  0  0  0  0  0  0
   51.0740   30.9180   49.1990 C   0  0  0  0  0  0  0  0  0  0  0  0
   50.7640   30.4260   48.0830 O   0  0  0  0  0  0  0  0  0  0  0  0
   50.6810   32.1510   49.5840 N   0  0  0  0  0  0  0  0  0  0  0  0
   51.2170   32.2610   50.8100 C   0  0  0  0  0  0  0  0  0  0  0  0
   51.0200   33.3590   51.6390 O   0  0  0  0  0  0  0  0  0  0  0  0
   54.9080   30.9420   51.6320 C   0  0  0  0  0  0  0  0  0  0  0  0
   56.0930   30.4230   52.1050 C   0  0  0  0  0  0  0  0  0  0  0  0
   57.3850   30.5900   51.4110 C   0  0  0  0  0  0  0  0  0  0  0  0
   58.0760   29.5610   51.1760 O   0  0  0  0  0  0  0  0  0  0  0  0
   57.7610   31.8670   50.8400 N   0  0  0  0  0  0  0  0  0  0  0  0
   58.5490   31.6600   49.5920 C   0  0  0  0  0  0  0  0  0  0  0  0
   60.0450   31.9360   49.7900 C   0  0  0  0  0  0  0  0  0  0  0  0
   60.2540   33.3330   50.2250 N   0  0  0  0  0  0  0  0  0  0  0  0
   61.6540   33.6310   50.5980 C   0  0  0  0  0  0  0  0  0  0  0  0
   62.5040   34.1930   49.4500 C   0  0  0  0  0  0  0  0  0  0  0  0
   59.2430   33.8450   51.1830 C   0  0  0  0  0  0  0  0  0  0  0  0
   58.4520   32.7100   51.8510 C   0  0  0  0  0  0  0  0  0  0  0  0
   55.8850   29.7030   53.2350 N   0  0  0  0  0  0  0  0  0  0  0  0
   56.8810   28.8750   53.9300 C   0  0  0  0  0  0  0  0  0  0  0  0
   57.7600   29.7400   54.8270 C   0  0  0  0  0  0  0  0  0  0  0  0
  1  2  2  0
  2  3  1  0
  3  4  2  3
  4  5  1  0
  5  6  1  0
  6  7  1  0
  7  8  2  0
  7  9  1  0
  9 10  1  0
 10 11  1  0
  3 12  1  0
 12 13  2  0
 13 14  1  0
 14 15  2  0
 14 16  1  0
 16 17  1  0
 17 18  1  0
 18 19  1  0
 19 20  1  0
 20 21  1  0
 19 22  1  0
 22 23  1  0
 13 24  1  0
 24 25  1  0
 25 26  1  0
 24  2  1  0
 10  5  2  0
 23 16  1  0
M  CHG  4   6  -1   9  -1  11  -1  16   1
M  END
>  <UniqueID>  (3144) 
44

>  <SMILES>  (3144) 
C=c1c(=Cc2[n-]c(=O)[n-]c2[O-])cc(C(=O)[NH+]2CCN(CC)CC2)n1CC

>  <Energy>  (3144) 
133.936545942804

>  <Genealogy>  (3144) 
C=c1c(=Cc2[n-]c(=O)[n-]c2[O-])cc(C(=O)[NH+]2CCN(CC)CC2)n1CC (protonated)
C=c1c(=Cc2[n-]c(=O)[n-]c2[O-])cc(C(=O)[NH+]2CCN(CC)CC2)n1CC (3D coordinates assigned)
C=c1c(=Cc2[n-]c(=O)[n-]c2[O-])cc(C(=O)[NH+]2CCN(CC)CC2)n1CC (nonaromatic ring conformer: 133.936545942804 kcal/mol)

>  <smiles>  (3144) 
C=c1c(=Cc2[nH]c(=O)[nH]c2O)cc(C(=O)N2CCN(CC)CC2)n1CC

>  <score_type>  (3144) 
oracle

>  <origin>  (3144) 
adg

>  <m_score__min__energy>  (3144) 
-15.550000000000001

>  <m_primary>  (3144) 
energy

$$$$
73:0
     RDKit          3D

 32 35  0  0  0  0  0  0  0  0999 V2000
   55.7440   27.9470   45.2810 O   0  0  0  0  0  0  0  0  0  0  0  0
   56.0660   26.7500   45.9140 C   0  0  0  0  0  0  0  0  0  0  0  0
   55.1570   25.8320   46.2830 N   0  0  0  0  0  0  0  0  0  0  0  0
   55.9240   24.8390   46.7790 C   0  0  0  0  0  0  0  0  0  0  0  0
   55.4380   23.7690   47.2320 O   0  0  0  0  0  0  0  0  0  0  0  0
   57.2540   25.0740   46.7400 N   0  0  0  0  0  0  0  0  0  0  0  0
   57.3370   26.3070   46.2110 C   0  0  0  0  0  0  0  0  0  0  0  0
   58.6140   26.9670   45.8890 C   0  0  0  0  0  0  0  0  0  0  0  0
   59.1290   27.9920   46.5970 C   0  0  0  0  0  0  0  0  0  0  0  0
   58.7230   28.4020   47.8570 C   0  0  0  0  0  0  0  0  0  0  0  0
   59.5300   29.4650   48.2110 C   0  0  0  0  0  0  0  0  0  0  0  0
   59.3650   30.2240   49.4660 C   0  0  0  0  0  0  0  0  0  0  0  0
   58.9740   29.6210   50.5010 O   0  0  0  0  0  0  0  0  0  0  0  0
   59.5880   31.6380   49.5030 N   0  0  0  0  0  0  0  0  0  0  0  0
   58.5340   32.6280   49.3140 C   0  0  0  0  0  0  0  0  0  0  0  0
   58.7430   33.3530   48.0130 C   0  0  0  0  0  0  0  0  0  0  0  0
   59.8090   34.2560   47.8720 C   0  0  0  0  0  0  0  0  0  0  0  0
   60.0630   34.8590   46.6380 C   0  0  0  0  0  0  0  0  0  0  0  0
   59.2720   34.5490   45.5280 C   0  0  0  0  0  0  0  0  0  0  0  0
   58.2070   33.6430   45.6520 C   0  0  0  0  0  0  0  0  0  0  0  0
   57.4170   33.2360   44.4360 C   0  0  0  0  0  0  0  0  0  0  0  0
   58.0820   32.1230   43.7160 N   0  0  0  0  0  0  0  0  0  0  0  0
   57.2230   31.5620   42.6460 C   0  0  0  0  0  0  0  0  0  0  0  0
   56.4180   30.3310   43.1130 C   0  0  0  0  0  0  0  0  0  0  0  0
   56.1780   30.3910   44.5010 O   0  0  0  0  0  0  0  0  0  0  0  0
   57.3940   30.2320   45.2150 C   0  0  0  0  0  0  0  0  0  0  0  0
   58.5620   31.0530   44.6180 C   0  0  0  0  0  0  0  0  0  0  0  0
   57.9380   33.0590   46.9000 C   0  0  0  0  0  0  0  0  0  0  0  0
   60.4440   29.7090   47.2390 N   0  0  0  0  0  0  0  0  0  0  0  0
   61.4930   30.7350   47.2700 C   0  0  0  0  0  0  0  0  0  0  0  0
   60.1920   28.8260   46.2360 C   0  0  0  0  0  0  0  0  0  0  0  0
   60.8490   28.8010   45.0630 C   0  0  0  0  0  0  0  0  0  0  0  0
  1  2  1  0
  2  3  1  0
  3  4  1  0
  4  5  2  0
  4  6  1  0
  6  7  1  0
  7  8  1  0
  8  9  2  0
  9 10  1  0
 10 11  2  0
 11 12  1  0
 12 13  2  0
 12 14  1  0
 14 15  1  0
 15 16  1  0
 16 17  2  0
 17 18  1  0
 18 19  2  0
 19 20  1  0
 20 21  1  0
 21 22  1  0
 22 23  1  0
 23 24  1  0
 24 25  1  0
 25 26  1  0
 26 27  1  0
 20 28  2  0
 11 29  1  0
 29 30  1  0
 29 31  1  0
 31 32  2  0
  7  2  2  0
 31  9  1  0
 28 16  1  0
 27 22  1  0
M  CHG  3   3  -1   6  -1  14  -1
M  END
>  <UniqueID>  (3145) 
70

>  <SMILES>  (3145) 
C=c1/c(=C/c2[n-]c(=O)[n-]c2O)cc(C(=O)[N-]Cc2cccc(CN3CCOCC3)c2)n1C

>  <Energy>  (3145) 
134.27430417108536

>  <Genealogy>  (3145) 
C=c1c(=Cc2[n-]c(=O)[n-]c2O)cc(C(=O)[N-]Cc2cccc(CN3CCOCC3)c2)n1C (protonated)
C=c1/c(=C/c2[n-]c(=O)[n-]c2O)cc(C(=O)[N-]Cc2cccc(CN3CCOCC3)c2)n1C (cis-trans isomerization)
C=c1/c(=C/c2[n-]c(=O)[n-]c2O)cc(C(=O)[N-]Cc2cccc(CN3CCOCC3)c2)n1C (3D coordinates assigned)
C=c1/c(=C/c2[n-]c(=O)[n-]c2O)cc(C(=O)[N-]Cc2cccc(CN3CCOCC3)c2)n1C (nonaromatic ring conformer: 134.27430417108536 kcal/mol)

>  <smiles>  (3145) 
C=c1c(=Cc2[nH]c(=O)[nH]c2O)cc(C(=O)NCc2cccc(CN3CCOCC3)c2)n1C

>  <score_type>  (3145) 
oracle

>  <origin>  (3145) 
adg

>  <m_score__min__energy>  (3145) 
-16.190000000000001

>  <m_primary>  (3145) 
energy

$$$$
77:0
     RDKit          3D

 31 34  0  0  0  0  0  0  0  0999 V2000
   57.3560   28.5810   43.1040 C   0  0  0  0  0  0  0  0  0  0  0  0
   57.7400   29.4730   44.0310 C   0  0  0  0  0  0  0  0  0  0  0  0
   58.3490   29.2000   45.2660 C   0  0  0  0  0  0  0  0  0  0  0  0
   58.5320   28.0390   45.9270 C   0  0  0  0  0  0  0  0  0  0  0  0
   57.5230   26.9840   46.1040 C   0  0  0  0  0  0  0  0  0  0  0  0
   57.7650   25.8250   46.7400 N   0  0  0  0  0  0  0  0  0  0  0  0
   56.5500   25.2340   46.7830 C   0  0  0  0  0  0  0  0  0  0  0  0
   56.3680   24.1000   47.2980 O   0  0  0  0  0  0  0  0  0  0  0  0
   55.5460   25.9570   46.2440 N   0  0  0  0  0  0  0  0  0  0  0  0
   56.1750   27.0700   45.8320 C   0  0  0  0  0  0  0  0  0  0  0  0
   55.5270   28.1500   45.2470 O   0  0  0  0  0  0  0  0  0  0  0  0
   58.7710   30.4190   45.7660 C   0  0  0  0  0  0  0  0  0  0  0  0
   58.3660   31.3850   44.8680 C   0  0  0  0  0  0  0  0  0  0  0  0
   58.5840   32.8600   45.0600 C   0  0  0  0  0  0  0  0  0  0  0  0
   58.5110   33.2170   46.5220 C   0  0  0  0  0  0  0  0  0  0  0  0
   57.4000   33.5830   46.9970 O   0  0  0  0  0  0  0  0  0  0  0  0
   59.6670   33.1480   47.3820 N   0  0  0  0  0  0  0  0  0  0  0  0
   59.6700   33.9000   48.6430 C   0  0  0  0  0  0  0  0  0  0  0  0
   61.0930   34.3400   49.0010 C   0  0  0  0  0  0  0  0  0  0  0  0
   62.0350   33.2110   48.9590 N   0  0  0  0  0  0  0  0  0  0  0  0
   63.2950   33.3060   49.6630 C   0  0  0  0  0  0  0  0  0  0  0  0
   64.4480   32.6720   49.1600 C   0  0  0  0  0  0  0  0  0  0  0  0
   65.6620   32.7580   49.8480 C   0  0  0  0  0  0  0  0  0  0  0  0
   65.7410   33.4750   51.0440 C   0  0  0  0  0  0  0  0  0  0  0  0
   66.9200   33.5560   51.7090 F   0  0  0  0  0  0  0  0  0  0  0  0
   64.6050   34.1060   51.5540 C   0  0  0  0  0  0  0  0  0  0  0  0
   63.3880   34.0220   50.8710 C   0  0  0  0  0  0  0  0  0  0  0  0
   61.6440   31.9530   48.3060 C   0  0  0  0  0  0  0  0  0  0  0  0
   60.7720   32.2260   47.0750 C   0  0  0  0  0  0  0  0  0  0  0  0
   57.7140   30.8160   43.8270 N   0  0  0  0  0  0  0  0  0  0  0  0
   57.1870   31.5110   42.6470 C   0  0  0  0  0  0  0  0  0  0  0  0
  1  2  2  0
  2  3  1  0
  3  4  2  3
  4  5  1  0
  5  6  1  0
  6  7  1  0
  7  8  2  0
  7  9  1  0
  9 10  1  0
 10 11  1  0
  3 12  1  0
 12 13  2  0
 13 14  1  0
 14 15  1  0
 15 16  2  0
 15 17  1  0
 17 18  1  0
 18 19  1  0
 19 20  1  0
 20 21  1  0
 21 22  2  0
 22 23  1  0
 23 24  2  0
 24 25  1  0
 24 26  1  0
 26 27  2  0
 20 28  1  0
 28 29  1  0
 13 30  1  0
 30 31  1  0
 30  2  1  0
 10  5  2  0
 29 17  1  0
 27 21  1  0
M  CHG  3   6  -1   9  -1  11  -1
M  END
>  <UniqueID>  (3146) 
74

>  <SMILES>  (3146) 
C=c1c(=Cc2[n-]c(=O)[n-]c2[O-])cc(CC(=O)N2CCN(c3ccc(F)cc3)CC2)n1C

>  <Energy>  (3146) 
128.13776154887222

>  <Genealogy>  (3146) 
C=c1c(=Cc2[n-]c(=O)[n-]c2[O-])cc(CC(=O)N2CCN(c3ccc(F)cc3)CC2)n1C (protonated)
C=c1c(=Cc2[n-]c(=O)[n-]c2[O-])cc(CC(=O)N2CCN(c3ccc(F)cc3)CC2)n1C (3D coordinates assigned)
C=c1c(=Cc2[n-]c(=O)[n-]c2[O-])cc(CC(=O)N2CCN(c3ccc(F)cc3)CC2)n1C (nonaromatic ring conformer: 128.13776154887222 kcal/mol)

>  <smiles>  (3146) 
C=c1c(=Cc2[nH]c(=O)[nH]c2O)cc(CC(=O)N2CCN(c3ccc(F)cc3)CC2)n1C

>  <score_type>  (3146) 
oracle

>  <origin>  (3146) 
adg

>  <m_score__min__energy>  (3146) 
-17.649999999999999

>  <m_primary>  (3146) 
energy

$$$$
9:0
     RDKit          3D

 27 29  0  0  0  0  0  0  0  0999 V2000
   62.2160   33.9350   48.4630 C   0  0  0  0  0  0  0  0  0  0  0  0
   61.0350   33.8660   47.8320 C   0  0  0  0  0  0  0  0  0  0  0  0
   61.0410   34.1770   46.5100 N   0  0  0  0  0  0  0  0  0  0  0  0
   59.9830   33.9620   45.6940 C   0  0  0  0  0  0  0  0  0  0  0  0
   58.8280   33.3410   46.1780 C   0  0  0  0  0  0  0  0  0  0  0  0
   57.7050   33.0600   45.2430 C   0  0  0  0  0  0  0  0  0  0  0  0
   57.2390   33.9710   44.5060 O   0  0  0  0  0  0  0  0  0  0  0  0
   57.1510   31.7400   45.1670 N   0  0  0  0  0  0  0  0  0  0  0  0
   57.6860   30.6820   44.3150 C   0  0  0  0  0  0  0  0  0  0  0  0
   58.7000   29.8210   45.0780 C   0  0  0  0  0  0  0  0  0  0  0  0
   58.1790   28.4250   45.3020 C   0  0  0  0  0  0  0  0  0  0  0  0
   59.0640   27.3340   45.3470 C   0  0  0  0  0  0  0  0  0  0  0  0
   58.5840   26.0460   45.5970 C   0  0  0  0  0  0  0  0  0  0  0  0
   57.2180   25.8360   45.8090 C   0  0  0  0  0  0  0  0  0  0  0  0
   56.3310   26.9170   45.7760 C   0  0  0  0  0  0  0  0  0  0  0  0
   54.9750   26.7080   45.9920 O   0  0  0  0  0  0  0  0  0  0  0  0
   56.8090   28.2080   45.5270 C   0  0  0  0  0  0  0  0  0  0  0  0
   58.7590   33.0340   47.5550 C   0  0  0  0  0  0  0  0  0  0  0  0
   57.7190   32.4830   48.0140 O   0  0  0  0  0  0  0  0  0  0  0  0
   59.8320   33.3700   48.4300 C   0  0  0  0  0  0  0  0  0  0  0  0
   59.6420   33.2230   49.7720 C   0  0  0  0  0  0  0  0  0  0  0  0
   58.9020   32.1290   50.4390 C   0  0  0  0  0  0  0  0  0  0  0  0
   57.8050   32.3960   51.2740 C   0  0  0  0  0  0  0  0  0  0  0  0
   57.1010   31.3330   51.8460 C   0  0  0  0  0  0  0  0  0  0  0  0
   57.4640   30.0510   51.5740 N   0  0  0  0  0  0  0  0  0  0  0  0
   58.5050   29.7650   50.7480 C   0  0  0  0  0  0  0  0  0  0  0  0
   59.2340   30.7980   50.1560 C   0  0  0  0  0  0  0  0  0  0  0  0
  1  2  2  0
  2  3  1  0
  3  4  1  0
  4  5  2  0
  5  6  1  0
  6  7  2  0
  6  8  1  0
  8  9  1  0
  9 10  1  0
 10 11  1  0
 11 12  2  0
 12 13  1  0
 13 14  2  0
 14 15  1  0
 15 16  1  0
 15 17  2  0
  5 18  1  0
 18 19  2  0
 18 20  1  0
 20 21  2  3
 21 22  1  0
 22 23  2  0
 23 24  1  0
 24 25  2  0
 25 26  1  0
 26 27  2  0
 20  2  1  0
 27 22  1  0
 17 11  1  0
M  CHG  3   3  -1   8  -1  16  -1
M  END
>  <UniqueID>  (3147) 
10

>  <SMILES>  (3147) 
C=c1[n-]cc(C(=O)[N-]CCc2cccc([O-])c2)c(=O)c1=Cc1ccncc1

>  <Energy>  (3147) 
68.5600568671642

>  <Genealogy>  (3147) 
C=c1[n-]cc(C(=O)[N-]CCc2cccc([O-])c2)c(=O)c1=Cc1ccncc1 (protonated)
C=c1[n-]cc(C(=O)[N-]CCc2cccc([O-])c2)c(=O)c1=Cc1ccncc1 (3D coordinates assigned)
C=c1[n-]cc(C(=O)[N-]CCc2cccc([O-])c2)c(=O)c1=Cc1ccncc1 (optimized conformer: 68.5600568671642 kcal/mol)

>  <smiles>  (3147) 
C=c1[nH]cc(C(=O)NCCc2cccc(O)c2)c(=O)c1=Cc1ccncc1

>  <score_type>  (3147) 
oracle

>  <origin>  (3147) 
adg

>  <m_score__min__energy>  (3147) 
-14.44

>  <m_primary>  (3147) 
energy

$$$$
16:0
     RDKit          3D

 30 32  0  0  0  0  0  0  0  0999 V2000
   57.2290   31.2450   42.6760 O   0  0  0  0  0  0  0  0  0  0  0  0
   56.6540   30.8350   43.7190 C   0  0  0  0  0  0  0  0  0  0  0  0
   56.0210   29.4760   43.7200 C   0  0  0  0  0  0  0  0  0  0  0  0
   55.9780   28.8940   45.0610 N   0  0  0  0  0  0  0  0  0  0  0  0
   57.0810   28.3490   45.8020 C   0  0  0  0  0  0  0  0  0  0  0  0
   58.0000   29.1280   46.1700 O   0  0  0  0  0  0  0  0  0  0  0  0
   57.1920   26.9110   46.1300 C   0  0  0  0  0  0  0  0  0  0  0  0
   58.4420   26.2760   46.1650 C   0  0  0  0  0  0  0  0  0  0  0  0
   58.5290   24.9130   46.4550 C   0  0  0  0  0  0  0  0  0  0  0  0
   57.3580   24.1870   46.6840 C   0  0  0  0  0  0  0  0  0  0  0  0
   57.4170   22.9550   46.9360 O   0  0  0  0  0  0  0  0  0  0  0  0
   56.1510   24.8070   46.6240 N   0  0  0  0  0  0  0  0  0  0  0  0
   56.0390   26.1340   46.3480 C   0  0  0  0  0  0  0  0  0  0  0  0
   54.7750   26.7100   46.2930 O   0  0  0  0  0  0  0  0  0  0  0  0
   56.6370   31.6440   44.9010 N   0  0  0  0  0  0  0  0  0  0  0  0
   57.6360   32.5970   45.2890 C   0  0  0  0  0  0  0  0  0  0  0  0
   57.8120   33.7430   44.5040 C   0  0  0  0  0  0  0  0  0  0  0  0
   58.7180   34.7320   44.8920 C   0  0  0  0  0  0  0  0  0  0  0  0
   59.4430   34.5930   46.0770 C   0  0  0  0  0  0  0  0  0  0  0  0
   59.2670   33.4580   46.8830 C   0  0  0  0  0  0  0  0  0  0  0  0
   60.1400   33.3070   48.4110 S   0  0  0  0  0  0  0  0  0  0  0  0
   59.2380   33.7280   49.5390 O   0  0  0  0  0  0  0  0  0  0  0  0
   61.3240   34.2340   48.3930 O   0  0  0  0  0  0  0  0  0  0  0  0
   60.6680   31.6640   48.6980 N   0  0  0  0  0  0  0  0  0  0  0  0
   60.6060   30.8690   47.4510 C   0  0  0  0  0  0  0  0  0  0  0  0
   60.6440   29.3670   47.7420 C   0  0  0  0  0  0  0  0  0  0  0  0
   59.4210   28.9370   48.5720 C   0  0  0  0  0  0  0  0  0  0  0  0
   58.8620   30.0760   49.4440 C   0  0  0  0  0  0  0  0  0  0  0  0
   59.9710   31.0570   49.8580 C   0  0  0  0  0  0  0  0  0  0  0  0
   58.3680   32.4590   46.4820 C   0  0  0  0  0  0  0  0  0  0  0  0
  1  2  2  0
  2  3  1  0
  3  4  1  0
  4  5  1  0
  5  6  2  0
  5  7  1  0
  7  8  1  0
  8  9  2  0
  9 10  1  0
 10 11  2  0
 10 12  1  0
 12 13  1  0
 13 14  1  0
  2 15  1  0
 15 16  1  0
 16 17  2  0
 17 18  1  0
 18 19  2  0
 19 20  1  0
 20 21  1  0
 21 22  2  0
 21 23  2  0
 21 24  1  0
 24 25  1  0
 25 26  1  0
 26 27  1  0
 27 28  1  0
 28 29  1  0
 20 30  2  0
 13  7  2  0
 30 16  1  0
 29 24  1  0
M  CHG  4   4  -1  12  -1  14  -1  15  -1
M  END
>  <UniqueID>  (3148) 
17

>  <SMILES>  (3148) 
O=C(C[N-]C(=O)c1ccc(=O)[n-]c1[O-])[N-]c1cccc(S(=O)(=O)N2CCCCC2)c1

>  <Energy>  (3148) 
60.644173889709975

>  <Genealogy>  (3148) 
O=C(C[N-]C(=O)c1ccc(=O)[n-]c1[O-])[N-]c1cccc(S(=O)(=O)N2CCCCC2)c1 (protonated)
O=C(C[N-]C(=O)c1ccc(=O)[n-]c1[O-])[N-]c1cccc(S(=O)(=O)N2CCCCC2)c1 (3D coordinates assigned)
O=C(C[N-]C(=O)c1ccc(=O)[n-]c1[O-])[N-]c1cccc(S(=O)(=O)N2CCCCC2)c1 (nonaromatic ring conformer: 60.644173889709975 kcal/mol)

>  <smiles>  (3148) 
O=C(CNC(=O)c1ccc(=O)[nH]c1O)Nc1cccc(S(=O)(=O)N2CCCCC2)c1

>  <score_type>  (3148) 
oracle

>  <origin>  (3148) 
adg

>  <m_score__min__energy>  (3148) 
-19.16

>  <m_primary>  (3148) 
energy

$$$$
26:0
     RDKit          3D

 30 32  0  0  0  0  0  0  0  0999 V2000
   59.4380   28.0910   47.2510 C   0  0  0  0  0  0  0  0  0  0  0  0
   58.8790   28.8990   46.3350 C   0  0  0  0  0  0  0  0  0  0  0  0
   57.9340   28.5200   45.3690 C   0  0  0  0  0  0  0  0  0  0  0  0
   57.5350   27.3030   44.9490 C   0  0  0  0  0  0  0  0  0  0  0  0
   57.1600   26.1750   45.8180 C   0  0  0  0  0  0  0  0  0  0  0  0
   57.9760   25.1560   46.1490 N   0  0  0  0  0  0  0  0  0  0  0  0
   57.1640   24.3180   46.8300 C   0  0  0  0  0  0  0  0  0  0  0  0
   57.5720   23.2340   47.3260 O   0  0  0  0  0  0  0  0  0  0  0  0
   55.8820   24.7260   46.9300 N   0  0  0  0  0  0  0  0  0  0  0  0
   55.8940   25.8960   46.2720 C   0  0  0  0  0  0  0  0  0  0  0  0
   54.7700   26.6900   46.0860 O   0  0  0  0  0  0  0  0  0  0  0  0
   57.4220   29.6910   44.8480 C   0  0  0  0  0  0  0  0  0  0  0  0
   58.1170   30.7300   45.4290 C   0  0  0  0  0  0  0  0  0  0  0  0
   57.8170   32.1500   45.1690 C   0  0  0  0  0  0  0  0  0  0  0  0
   56.6290   32.5690   45.1800 O   0  0  0  0  0  0  0  0  0  0  0  0
   58.8880   33.0530   44.8770 N   0  0  0  0  0  0  0  0  0  0  0  0
   59.0170   34.3610   45.5070 C   0  0  0  0  0  0  0  0  0  0  0  0
   60.0250   34.2870   46.6220 C   0  0  0  0  0  0  0  0  0  0  0  0
   61.3380   33.8530   46.3710 C   0  0  0  0  0  0  0  0  0  0  0  0
   62.2450   33.7090   47.4250 C   0  0  0  0  0  0  0  0  0  0  0  0
   61.8490   33.9930   48.7350 C   0  0  0  0  0  0  0  0  0  0  0  0
   62.7280   33.8460   49.7560 F   0  0  0  0  0  0  0  0  0  0  0  0
   60.5450   34.4230   48.9930 C   0  0  0  0  0  0  0  0  0  0  0  0
   59.6330   34.5650   47.9420 C   0  0  0  0  0  0  0  0  0  0  0  0
   59.0170   30.2570   46.3300 N   0  0  0  0  0  0  0  0  0  0  0  0
   59.8270   31.0800   47.2490 C   0  0  0  0  0  0  0  0  0  0  0  0
   59.0290   31.4610   48.5030 C   0  0  0  0  0  0  0  0  0  0  0  0
   59.1870   30.4300   49.5520 N   0  0  0  0  0  0  0  0  0  0  0  0
   58.4610   30.8120   50.7740 C   0  0  0  0  0  0  0  0  0  0  0  0
   60.6090   30.2110   49.8670 C   0  0  0  0  0  0  0  0  0  0  0  0
  1  2  2  0
  2  3  1  0
  3  4  2  3
  4  5  1  0
  5  6  1  0
  6  7  1  0
  7  8  2  0
  7  9  1  0
  9 10  1  0
 10 11  1  0
  3 12  1  0
 12 13  2  0
 13 14  1  0
 14 15  2  0
 14 16  1  0
 16 17  1  0
 17 18  1  0
 18 19  2  0
 19 20  1  0
 20 21  2  0
 21 22  1  0
 21 23  1  0
 23 24  2  0
 13 25  1  0
 25 26  1  0
 26 27  1  0
 27 28  1  0
 28 29  1  0
 28 30  1  0
 25  2  1  0
 10  5  2  0
 24 18  1  0
M  CHG  4   6  -1   9  -1  11  -1  16  -1
M  END
>  <UniqueID>  (3149) 
27

>  <SMILES>  (3149) 
C=c1c(=Cc2[n-]c(=O)[n-]c2[O-])cc(C(=O)[N-]Cc2ccc(F)cc2)n1CCN(C)C

>  <Energy>  (3149) 
118.67763916268257

>  <Genealogy>  (3149) 
C=c1c(=Cc2[n-]c(=O)[n-]c2[O-])cc(C(=O)[N-]Cc2ccc(F)cc2)n1CCN(C)C (protonated)
C=c1c(=Cc2[n-]c(=O)[n-]c2[O-])cc(C(=O)[N-]Cc2ccc(F)cc2)n1CCN(C)C (3D coordinates assigned)
C=c1c(=Cc2[n-]c(=O)[n-]c2[O-])cc(C(=O)[N-]Cc2ccc(F)cc2)n1CCN(C)C (optimized conformer: 118.67763916268257 kcal/mol)

>  <smiles>  (3149) 
C=c1c(=Cc2[nH]c(=O)[nH]c2O)cc(C(=O)NCc2ccc(F)cc2)n1CCN(C)C

>  <score_type>  (3149) 
oracle

>  <origin>  (3149) 
adg

>  <m_score__min__energy>  (3149) 
-17.109999999999999

>  <m_primary>  (3149) 
energy

$$$$
27:0
     RDKit          3D

 27 28  0  0  0  0  0  0  0  0999 V2000
   55.4970   29.5100   44.9280 N   0  0  0  0  0  0  0  0  0  0  0  0
   56.2160   29.9480   43.7770 C   0  0  0  0  0  0  0  0  0  0  0  0
   55.9780   29.4210   42.6570 O   0  0  0  0  0  0  0  0  0  0  0  0
   57.2320   31.0070   43.9040 C   0  0  0  0  0  0  0  0  0  0  0  0
   57.2730   31.9310   43.0480 O   0  0  0  0  0  0  0  0  0  0  0  0
   58.1950   31.0380   45.0620 C   0  0  0  0  0  0  0  0  0  0  0  0
   58.5380   32.4720   45.4810 C   0  0  0  0  0  0  0  0  0  0  0  0
   58.1210   32.7490   46.8930 C   0  0  0  0  0  0  0  0  0  0  0  0
   57.1190   33.4830   47.1120 O   0  0  0  0  0  0  0  0  0  0  0  0
   58.8040   32.0920   47.9680 N   0  0  0  0  0  0  0  0  0  0  0  0
   58.7420   32.4120   49.3650 C   0  0  0  0  0  0  0  0  0  0  0  0
   59.6570   33.2880   49.9780 C   0  0  0  0  0  0  0  0  0  0  0  0
   59.5460   33.5760   51.3400 C   0  0  0  0  0  0  0  0  0  0  0  0
   58.5430   32.9790   52.1060 C   0  0  0  0  0  0  0  0  0  0  0  0
   57.6580   32.0660   51.5230 C   0  0  0  0  0  0  0  0  0  0  0  0
   56.6360   31.4750   52.3370 N   0  0  0  0  0  0  0  0  0  0  0  0
   56.3780   30.0710   52.4710 C   0  0  0  0  0  0  0  0  0  0  0  0
   57.1790   29.2210   51.9970 O   0  0  0  0  0  0  0  0  0  0  0  0
   55.1540   29.6090   53.1950 C   0  0  0  0  0  0  0  0  0  0  0  0
   53.9710   30.4500   52.7940 C   0  0  0  0  0  0  0  0  0  0  0  0
   53.8550   30.9310   51.4790 C   0  0  0  0  0  0  0  0  0  0  0  0
   52.7380   31.6830   51.0990 C   0  0  0  0  0  0  0  0  0  0  0  0
   51.7240   31.9480   52.0250 C   0  0  0  0  0  0  0  0  0  0  0  0
   50.6140   32.6930   51.6450 O   0  0  0  0  0  0  0  0  0  0  0  0
   51.8260   31.4590   53.3320 C   0  0  0  0  0  0  0  0  0  0  0  0
   52.9430   30.7090   53.7150 C   0  0  0  0  0  0  0  0  0  0  0  0
   57.7560   31.7960   50.1450 C   0  0  0  0  0  0  0  0  0  0  0  0
  1  2  1  0
  2  3  2  0
  2  4  1  0
  4  5  2  0
  4  6  1  0
  6  7  1  0
  7  8  1  0
  8  9  2  0
  8 10  1  0
 10 11  1  0
 11 12  2  0
 12 13  1  0
 13 14  2  0
 14 15  1  0
 15 16  1  0
 16 17  1  0
 17 18  2  0
 17 19  1  0
 19 20  1  0
 20 21  2  0
 21 22  1  0
 22 23  2  0
 23 24  1  0
 23 25  1  0
 25 26  2  0
 15 27  2  0
 27 11  1  0
 26 20  1  0
M  CHG  4   1  -1  10  -1  16  -1  24  -1
M  END
>  <UniqueID>  (3150) 
28

>  <SMILES>  (3150) 
[NH-]C(=O)C(=O)CCC(=O)[N-]c1cccc([N-]C(=O)Cc2ccc([O-])cc2)c1

>  <Energy>  (3150) 
41.54833072449508

>  <Genealogy>  (3150) 
[NH-]C(=O)C(=O)CCC(=O)[N-]c1cccc([N-]C(=O)Cc2ccc([O-])cc2)c1 (protonated)
[NH-]C(=O)C(=O)CCC(=O)[N-]c1cccc([N-]C(=O)Cc2ccc([O-])cc2)c1 (3D coordinates assigned)
[NH-]C(=O)C(=O)CCC(=O)[N-]c1cccc([N-]C(=O)Cc2ccc([O-])cc2)c1 (optimized conformer: 41.54833072449508 kcal/mol)

>  <smiles>  (3150) 
NC(=O)C(=O)CCC(=O)Nc1cccc(NC(=O)Cc2ccc(O)cc2)c1

>  <score_type>  (3150) 
oracle

>  <origin>  (3150) 
adg

>  <m_score__min__energy>  (3150) 
-16.460000000000001

>  <m_primary>  (3150) 
energy

$$$$
52:0
     RDKit          3D

 26 28  0  0  0  0  0  0  0  0999 V2000
   53.7190   30.4010   54.9180 C   0  0  0  0  0  0  0  0  0  0  0  0
   54.3500   30.3940   53.7320 C   0  0  0  0  0  0  0  0  0  0  0  0
   53.7310   30.4320   52.4780 C   0  0  0  0  0  0  0  0  0  0  0  0
   52.4090   30.3910   52.2160 C   0  0  0  0  0  0  0  0  0  0  0  0
   51.8020   30.8500   50.9540 C   0  0  0  0  0  0  0  0  0  0  0  0
   51.6720   30.0660   49.8690 N   0  0  0  0  0  0  0  0  0  0  0  0
   50.9990   30.8450   48.9950 C   0  0  0  0  0  0  0  0  0  0  0  0
   50.6960   30.4590   47.8350 O   0  0  0  0  0  0  0  0  0  0  0  0
   50.6670   32.0660   49.4640 N   0  0  0  0  0  0  0  0  0  0  0  0
   51.1700   32.0500   50.7100 C   0  0  0  0  0  0  0  0  0  0  0  0
   51.0080   33.0910   51.6170 O   0  0  0  0  0  0  0  0  0  0  0  0
   54.7510   30.4730   51.5410 C   0  0  0  0  0  0  0  0  0  0  0  0
   55.9410   30.4740   52.2420 C   0  0  0  0  0  0  0  0  0  0  0  0
   57.2670   30.5880   51.5920 C   0  0  0  0  0  0  0  0  0  0  0  0
   57.6180   31.6950   51.1000 O   0  0  0  0  0  0  0  0  0  0  0  0
   58.1610   29.4730   51.5440 N   0  0  0  0  0  0  0  0  0  0  0  0
   59.5450   29.5650   51.0930 C   0  0  0  0  0  0  0  0  0  0  0  0
   59.5920   29.8040   49.6080 C   0  0  0  0  0  0  0  0  0  0  0  0
   60.3490   30.8640   49.0780 C   0  0  0  0  0  0  0  0  0  0  0  0
   60.3980   31.0690   47.6950 C   0  0  0  0  0  0  0  0  0  0  0  0
   59.7020   30.2150   46.8330 C   0  0  0  0  0  0  0  0  0  0  0  0
   58.9560   29.1520   47.3520 C   0  0  0  0  0  0  0  0  0  0  0  0
   58.0700   28.0870   46.2720 Cl  0  0  0  0  0  0  0  0  0  0  0  0
   58.9020   28.9440   48.7370 C   0  0  0  0  0  0  0  0  0  0  0  0
   55.7030   30.3940   53.5770 N   0  0  0  0  0  0  0  0  0  0  0  0
   56.7190   30.3210   54.6330 C   0  0  0  0  0  0  0  0  0  0  0  0
  1  2  2  0
  2  3  1  0
  3  4  2  3
  4  5  1  0
  5  6  1  0
  6  7  1  0
  7  8  2  0
  7  9  1  0
  9 10  1  0
 10 11  1  0
  3 12  1  0
 12 13  2  0
 13 14  1  0
 14 15  2  0
 14 16  1  0
 16 17  1  0
 17 18  1  0
 18 19  2  0
 19 20  1  0
 20 21  2  0
 21 22  1  0
 22 23  1  0
 22 24  2  0
 13 25  1  0
 25 26  1  0
 25  2  1  0
 10  5  2  0
 24 18  1  0
M  CHG  4   6  -1   9  -1  11  -1  16  -1
M  END
>  <UniqueID>  (3151) 
50

>  <SMILES>  (3151) 
C=c1c(=Cc2[n-]c(=O)[n-]c2[O-])cc(C(=O)[N-]Cc2cccc(Cl)c2)n1C

>  <Energy>  (3151) 
107.3704881838278

>  <Genealogy>  (3151) 
C=c1c(=Cc2[n-]c(=O)[n-]c2[O-])cc(C(=O)[N-]Cc2cccc(Cl)c2)n1C (protonated)
C=c1c(=Cc2[n-]c(=O)[n-]c2[O-])cc(C(=O)[N-]Cc2cccc(Cl)c2)n1C (3D coordinates assigned)
C=c1c(=Cc2[n-]c(=O)[n-]c2[O-])cc(C(=O)[N-]Cc2cccc(Cl)c2)n1C (optimized conformer: 107.3704881838278 kcal/mol)

>  <smiles>  (3151) 
C=c1c(=Cc2[nH]c(=O)[nH]c2O)cc(C(=O)NCc2cccc(Cl)c2)n1C

>  <score_type>  (3151) 
oracle

>  <origin>  (3151) 
adg

>  <m_score__min__energy>  (3151) 
-18.739999999999998

>  <m_primary>  (3151) 
energy

$$$$
54:0
     RDKit          3D

 26 28  0  0  0  0  0  0  0  0999 V2000
   54.3010   29.2720   54.5170 C   0  0  0  0  0  0  0  0  0  0  0  0
   54.9280   29.9680   53.5570 C   0  0  0  0  0  0  0  0  0  0  0  0
   54.3250   30.7530   52.5600 C   0  0  0  0  0  0  0  0  0  0  0  0
   53.0620   31.2030   52.4310 C   0  0  0  0  0  0  0  0  0  0  0  0
   52.3030   31.2790   51.1710 C   0  0  0  0  0  0  0  0  0  0  0  0
   52.3070   30.3320   50.2150 N   0  0  0  0  0  0  0  0  0  0  0  0
   51.3770   30.7720   49.3380 C   0  0  0  0  0  0  0  0  0  0  0  0
   51.0980   30.1520   48.2790 O   0  0  0  0  0  0  0  0  0  0  0  0
   50.7640   31.9210   49.6920 N   0  0  0  0  0  0  0  0  0  0  0  0
   51.3520   32.2210   50.8610 C   0  0  0  0  0  0  0  0  0  0  0  0
   51.0240   33.3290   51.6310 O   0  0  0  0  0  0  0  0  0  0  0  0
   55.3170   31.0350   51.6380 C   0  0  0  0  0  0  0  0  0  0  0  0
   56.4830   30.4760   52.1180 C   0  0  0  0  0  0  0  0  0  0  0  0
   57.7670   30.5160   51.3820 C   0  0  0  0  0  0  0  0  0  0  0  0
   57.9710   29.6140   50.5220 O   0  0  0  0  0  0  0  0  0  0  0  0
   58.7610   31.5580   51.6210 N   0  0  2  0  0  0  0  0  0  0  0  0
   58.5600   32.7640   50.7810 C   0  0  0  0  0  0  0  0  0  0  0  0
   58.8840   32.5180   49.2930 C   0  0  0  0  0  0  0  0  0  0  0  0
   60.2950   31.9340   49.0900 C   0  0  1  0  0  0  0  0  0  0  0  0
   61.3900   33.0090   49.2420 C   0  0  0  0  0  0  0  0  0  0  0  0
   62.6490   32.4500   48.9270 O   0  0  0  0  0  0  0  0  0  0  0  0
   63.2320   33.1740   47.8670 C   0  0  0  0  0  0  0  0  0  0  0  0
   60.5110   30.7270   50.0250 C   0  0  0  0  0  0  0  0  0  0  0  0
   60.1510   31.0580   51.4830 C   0  0  0  0  0  0  0  0  0  0  0  0
   56.2600   29.8640   53.3050 N   0  0  0  0  0  0  0  0  0  0  0  0
   57.2670   29.1950   54.1370 C   0  0  0  0  0  0  0  0  0  0  0  0
  1  2  2  0
  2  3  1  0
  3  4  2  0
  4  5  1  0
  5  6  1  0
  6  7  1  0
  7  8  2  0
  7  9  1  0
  9 10  1  0
 10 11  1  0
  3 12  1  0
 12 13  2  0
 13 14  1  0
 14 15  2  0
 16 14  1  6
 16 17  1  0
 17 18  1  0
 18 19  1  0
 19 20  1  1
 20 21  1  0
 21 22  1  0
 19 23  1  0
 23 24  1  0
 13 25  1  0
 25 26  1  0
 25  2  1  0
 10  5  2  0
 24 16  1  0
M  CHG  4   6  -1   9  -1  11  -1  16   1
M  END
>  <UniqueID>  (3152) 
52

>  <SMILES>  (3152) 
C=c1/c(=C\c2[n-]c(=O)[n-]c2[O-])cc(C(=O)[NH+]2CCC(COC)CC2)n1C

>  <Energy>  (3152) 
128.35445452376462

>  <Genealogy>  (3152) 
C=c1c(=Cc2[n-]c(=O)[n-]c2[O-])cc(C(=O)[NH+]2CCC(COC)CC2)n1C (protonated)
C=c1/c(=C\c2[n-]c(=O)[n-]c2[O-])cc(C(=O)[NH+]2CCC(COC)CC2)n1C (cis-trans isomerization)
C=c1/c(=C\c2[n-]c(=O)[n-]c2[O-])cc(C(=O)[NH+]2CCC(COC)CC2)n1C (3D coordinates assigned)
C=c1/c(=C\c2[n-]c(=O)[n-]c2[O-])cc(C(=O)[NH+]2CCC(COC)CC2)n1C (nonaromatic ring conformer: 128.35445452376462 kcal/mol)

>  <smiles>  (3152) 
C=c1c(=Cc2[nH]c(=O)[nH]c2O)cc(C(=O)N2CCC(COC)CC2)n1C

>  <score_type>  (3152) 
oracle

>  <origin>  (3152) 
adg

>  <m_score__min__energy>  (3152) 
-15.44

>  <m_primary>  (3152) 
energy

$$$$
57:0
     RDKit          3D

 25 27  0  0  0  0  0  0  0  0999 V2000
   57.4190   32.2570   41.3960 C   0  0  0  0  0  0  0  0  0  0  0  0
   57.3130   31.6720   42.5920 C   0  0  0  0  0  0  0  0  0  0  0  0
   56.5850   30.5440   42.7680 N   0  0  0  0  0  0  0  0  0  0  0  0
   56.7040   30.2560   44.0800 C   0  0  0  0  0  0  0  0  0  0  0  0
   56.0960   29.2020   44.6440 C   0  0  0  0  0  0  0  0  0  0  0  0
   56.7940   28.0990   45.3250 C   0  0  0  0  0  0  0  0  0  0  0  0
   58.1280   28.0820   45.5350 N   0  0  0  0  0  0  0  0  0  0  0  0
   58.3240   26.9570   46.2580 C   0  0  0  0  0  0  0  0  0  0  0  0
   59.4650   26.5760   46.6310 O   0  0  0  0  0  0  0  0  0  0  0  0
   57.1870   26.2900   46.5420 N   0  0  0  0  0  0  0  0  0  0  0  0
   57.0440   25.0180   47.2430 C   0  0  0  0  0  0  0  0  0  0  0  0
   56.2200   27.0110   45.9530 C   0  0  0  0  0  0  0  0  0  0  0  0
   54.8630   26.7130   46.0160 O   0  0  0  0  0  0  0  0  0  0  0  0
   57.4830   31.2330   44.6750 C   0  0  0  0  0  0  0  0  0  0  0  0
   57.7330   31.3450   45.9050 O   0  0  0  0  0  0  0  0  0  0  0  0
   57.8920   32.1140   43.7420 N   0  0  0  0  0  0  0  0  0  0  0  0
   58.6890   33.3250   43.9890 C   0  0  0  0  0  0  0  0  0  0  0  0
   58.2680   33.9970   45.2700 C   0  0  0  0  0  0  0  0  0  0  0  0
   57.1470   34.5760   45.3010 O   0  0  0  0  0  0  0  0  0  0  0  0
   59.1040   33.9930   46.4480 N   0  0  0  0  0  0  0  0  0  0  0  0
   60.4600   34.5700   46.3640 C   0  0  0  0  0  0  0  0  0  0  0  0
   61.3840   33.9120   47.3520 C   0  0  0  0  0  0  0  0  0  0  0  0
   60.9270   33.5590   48.5560 C   0  0  0  0  0  0  0  0  0  0  0  0
   59.4990   33.8390   48.9150 C   0  0  0  0  0  0  0  0  0  0  0  0
   58.5750   33.4990   47.7360 C   0  0  0  0  0  0  0  0  0  0  0  0
  1  2  2  0
  2  3  1  0
  3  4  1  0
  4  5  2  3
  5  6  1  0
  6  7  1  0
  7  8  1  0
  8  9  2  0
  8 10  1  0
 10 11  1  0
 10 12  1  0
 12 13  1  0
  4 14  1  0
 14 15  2  0
 14 16  1  0
 16 17  1  0
 17 18  1  0
 18 19  2  0
 18 20  1  0
 20 21  1  0
 21 22  1  0
 22 23  2  0
 23 24  1  0
 24 25  1  0
 16  2  1  0
 25 20  1  0
 12  6  2  0
M  CHG  3   3  -1   7  -1  13  -1
M  END
>  <UniqueID>  (3153) 
54

>  <SMILES>  (3153) 
C=c1[n-]c(=Cc2[n-]c(=O)n(C)c2[O-])c(=O)n1CC(=O)N1CC=CCC1

>  <Energy>  (3153) 
114.24458483861255

>  <Genealogy>  (3153) 
C=c1[n-]c(=Cc2[n-]c(=O)n(C)c2[O-])c(=O)n1CC(=O)N1CC=CCC1 (protonated)
C=c1[n-]c(=Cc2[n-]c(=O)n(C)c2[O-])c(=O)n1CC(=O)N1CC=CCC1 (3D coordinates assigned)
C=c1[n-]c(=Cc2[n-]c(=O)n(C)c2[O-])c(=O)n1CC(=O)N1CC=CCC1 (nonaromatic ring conformer: 114.24458483861255 kcal/mol)

>  <smiles>  (3153) 
C=c1[nH]c(=Cc2[nH]c(=O)n(C)c2O)c(=O)n1CC(=O)N1CC=CCC1

>  <score_type>  (3153) 
oracle

>  <origin>  (3153) 
adg

>  <m_score__min__energy>  (3153) 
-15.109999999999999

>  <m_primary>  (3153) 
energy

$$$$
63:0
     RDKit          3D

 29 32  0  0  0  0  0  0  0  0999 V2000
   53.4780   27.9850   53.5490 C   0  0  0  0  0  0  0  0  0  0  0  0
   54.2210   29.0480   53.2180 C   0  0  0  0  0  0  0  0  0  0  0  0
   55.5430   28.9920   53.5360 N   0  0  0  0  0  0  0  0  0  0  0  0
   56.4510   29.8890   53.0800 C   0  0  0  0  0  0  0  0  0  0  0  0
   56.0590   30.8910   52.1900 C   0  0  0  0  0  0  0  0  0  0  0  0
   57.0550   31.8400   51.6460 C   0  0  0  0  0  0  0  0  0  0  0  0
   57.1310   32.9980   52.1410 O   0  0  0  0  0  0  0  0  0  0  0  0
   57.9520   31.4610   50.5820 N   0  0  0  0  0  0  0  0  0  0  0  0
   58.5390   30.1110   50.5590 C   0  0  0  0  0  0  0  0  0  0  0  0
   59.8850   30.0940   49.8200 C   0  0  0  0  0  0  0  0  0  0  0  0
   60.7330   31.3250   50.2070 C   0  0  0  0  0  0  0  0  0  0  0  0
   62.1490   31.2430   49.5460 C   0  0  0  0  0  0  0  0  0  0  0  0
   62.8170   32.5490   49.3240 N   0  0  0  0  0  0  0  0  0  0  0  0
   64.0740   32.4540   48.5650 C   0  0  0  0  0  0  0  0  0  0  0  0
   65.1890   33.0610   49.4100 C   0  0  0  0  0  0  0  0  0  0  0  0
   64.5850   33.2990   50.7790 C   0  0  0  0  0  0  0  0  0  0  0  0
   63.0860   33.3140   50.5470 C   0  0  0  0  0  0  0  0  0  0  0  0
   59.9890   32.6530   49.8660 C   0  0  0  0  0  0  0  0  0  0  0  0
   58.4770   32.4760   49.6620 C   0  0  0  0  0  0  0  0  0  0  0  0
   54.7000   31.0130   51.8770 C   0  0  0  0  0  0  0  0  0  0  0  0
   53.7390   30.1490   52.4400 C   0  0  0  0  0  0  0  0  0  0  0  0
   52.4330   30.4510   52.2230 C   0  0  0  0  0  0  0  0  0  0  0  0
   51.8400   30.8680   50.9380 C   0  0  0  0  0  0  0  0  0  0  0  0
   51.7350   30.0850   49.8480 N   0  0  0  0  0  0  0  0  0  0  0  0
   51.0340   30.8480   48.9810 C   0  0  0  0  0  0  0  0  0  0  0  0
   50.7400   30.4600   47.8210 O   0  0  0  0  0  0  0  0  0  0  0  0
   50.6670   32.0560   49.4600 N   0  0  0  0  0  0  0  0  0  0  0  0
   51.1740   32.0460   50.7030 C   0  0  0  0  0  0  0  0  0  0  0  0
   51.0290   33.0910   51.6050 O   0  0  0  0  0  0  0  0  0  0  0  0
  1  2  2  0
  2  3  1  0
  3  4  2  0
  4  5  1  0
  5  6  1  0
  6  7  2  0
  6  8  1  0
  8  9  1  0
  9 10  1  0
 10 11  1  0
 11 12  1  0
 12 13  1  0
 13 14  1  0
 14 15  1  0
 15 16  1  0
 16 17  1  0
 11 18  1  0
 18 19  1  0
  5 20  2  0
 20 21  1  0
 21 22  2  3
 22 23  1  0
 23 24  1  0
 24 25  1  0
 25 26  2  0
 25 27  1  0
 27 28  1  0
 28 29  1  0
 21  2  1  0
 28 23  2  0
 19  8  1  0
 17 13  1  0
M  CHG  3  24  -1  27  -1  29  -1
M  END
>  <UniqueID>  (3154) 
60

>  <SMILES>  (3154) 
C=c1ncc(C(=O)N2CCC(CN3CCCC3)CC2)cc1=Cc1[n-]c(=O)[n-]c1[O-]

>  <Energy>  (3154) 
119.43618944092118

>  <Genealogy>  (3154) 
C=c1ncc(C(=O)N2CCC(CN3CCCC3)CC2)cc1=Cc1[n-]c(=O)[n-]c1[O-] (protonated)
C=c1ncc(C(=O)N2CCC(CN3CCCC3)CC2)cc1=Cc1[n-]c(=O)[n-]c1[O-] (3D coordinates assigned)
C=c1ncc(C(=O)N2CCC(CN3CCCC3)CC2)cc1=Cc1[n-]c(=O)[n-]c1[O-] (nonaromatic ring conformer: 119.43618944092118 kcal/mol)

>  <smiles>  (3154) 
C=c1ncc(C(=O)N2CCC(CN3CCCC3)CC2)cc1=Cc1[nH]c(=O)[nH]c1O

>  <score_type>  (3154) 
oracle

>  <origin>  (3154) 
adg

>  <m_score__min__energy>  (3154) 
-17.809999999999999

>  <m_primary>  (3154) 
energy

$$$$
72:0
     RDKit          3D

 24 26  0  0  0  0  0  0  0  0999 V2000
   55.8220   30.4790   44.0840 C   0  0  0  0  0  0  0  0  0  0  0  0
   56.7570   29.8290   44.7840 C   0  0  0  0  0  0  0  0  0  0  0  0
   57.7770   30.3410   45.6140 C   0  0  0  0  0  0  0  0  0  0  0  0
   58.2160   31.7270   46.0010 C   0  0  0  0  0  0  0  0  0  0  0  0
   57.3030   32.5800   46.1960 O   0  0  0  0  0  0  0  0  0  0  0  0
   59.5910   32.1610   46.1720 N   0  0  0  0  0  0  0  0  0  0  0  0
   60.2240   31.5520   47.3690 C   0  0  0  0  0  0  0  0  0  0  0  0
   61.5600   32.2150   47.7610 C   0  0  0  0  0  0  0  0  0  0  0  0
   62.0240   33.1550   46.7250 N   0  0  0  0  0  0  0  0  0  0  0  0
   63.3330   33.7340   47.1040 C   0  0  0  0  0  0  0  0  0  0  0  0
   63.9060   33.0160   48.3210 C   0  0  0  0  0  0  0  0  0  0  0  0
   61.0080   34.2110   46.5660 C   0  0  0  0  0  0  0  0  0  0  0  0
   59.7080   33.6290   45.9890 C   0  0  0  0  0  0  0  0  0  0  0  0
   58.4640   29.2210   46.0710 C   0  0  0  0  0  0  0  0  0  0  0  0
   57.8590   28.1020   45.5270 C   0  0  0  0  0  0  0  0  0  0  0  0
   58.1920   26.8090   45.7000 C   0  0  0  0  0  0  0  0  0  0  0  0
   57.3580   25.7730   46.3500 C   0  0  0  0  0  0  0  0  0  0  0  0
   57.8070   24.6680   46.9690 N   0  0  0  0  0  0  0  0  0  0  0  0
   56.6770   24.0400   47.3580 C   0  0  0  0  0  0  0  0  0  0  0  0
   56.6890   22.9500   47.9880 O   0  0  0  0  0  0  0  0  0  0  0  0
   55.5340   24.6740   47.0240 N   0  0  0  0  0  0  0  0  0  0  0  0
   55.9820   25.7660   46.3850 C   0  0  0  0  0  0  0  0  0  0  0  0
   55.1500   26.7340   45.8370 O   0  0  0  0  0  0  0  0  0  0  0  0
   56.8260   28.4810   44.7530 N   0  0  0  0  0  0  0  0  0  0  0  0
  1  2  2  0
  2  3  1  0
  3  4  1  0
  4  5  2  0
  4  6  1  0
  6  7  1  0
  7  8  1  0
  8  9  1  0
  9 10  1  0
 10 11  1  0
  9 12  1  0
 12 13  1  0
  3 14  2  0
 14 15  1  0
 15 16  2  0
 16 17  1  0
 17 18  1  0
 18 19  1  0
 19 20  2  0
 19 21  1  0
 21 22  1  0
 22 23  1  0
 15 24  1  0
 24  2  1  0
 13  6  1  0
 22 17  2  0
M  CHG  4   6   1  18  -1  21  -1  23  -1
M  END
>  <UniqueID>  (3155) 
69

>  <SMILES>  (3155) 
C=c1[nH]/c(=C/c2[n-]c(=O)[n-]c2[O-])cc1C(=O)[NH+]1CCN(CC)CC1

>  <Energy>  (3155) 
127.270772626092

>  <Genealogy>  (3155) 
C=c1[nH]c(=Cc2[n-]c(=O)[n-]c2[O-])cc1C(=O)[NH+]1CCN(CC)CC1 (protonated)
C=c1[nH]/c(=C/c2[n-]c(=O)[n-]c2[O-])cc1C(=O)[NH+]1CCN(CC)CC1 (cis-trans isomerization)
C=c1[nH]/c(=C/c2[n-]c(=O)[n-]c2[O-])cc1C(=O)[NH+]1CCN(CC)CC1 (3D coordinates assigned)
C=c1[nH]/c(=C/c2[n-]c(=O)[n-]c2[O-])cc1C(=O)[NH+]1CCN(CC)CC1 (nonaromatic ring conformer: 127.270772626092 kcal/mol)

>  <smiles>  (3155) 
C=c1[nH]c(=Cc2[nH]c(=O)[nH]c2O)cc1C(=O)N1CCN(CC)CC1

>  <score_type>  (3155) 
oracle

>  <origin>  (3155) 
adg

>  <m_score__min__energy>  (3155) 
-15.52

>  <m_primary>  (3155) 
energy

$$$$
80:0
     RDKit          3D

 34 37  0  0  0  0  0  0  0  0999 V2000
   60.3340   27.7160   45.9780 C   0  0  0  0  0  0  0  0  0  0  0  0
   59.2240   28.4020   45.6630 C   0  0  0  0  0  0  0  0  0  0  0  0
   58.0860   27.9010   45.0070 C   0  0  0  0  0  0  0  0  0  0  0  0
   57.7040   26.6390   44.7330 C   0  0  0  0  0  0  0  0  0  0  0  0
   57.1560   25.6750   45.7010 C   0  0  0  0  0  0  0  0  0  0  0  0
   57.8610   24.6890   46.2890 N   0  0  0  0  0  0  0  0  0  0  0  0
   56.9940   24.1830   47.1940 C   0  0  0  0  0  0  0  0  0  0  0  0
   57.2840   23.2150   47.9440 O   0  0  0  0  0  0  0  0  0  0  0  0
   55.7960   24.8040   47.2390 N   0  0  0  0  0  0  0  0  0  0  0  0
   55.9220   25.7540   46.2990 C   0  0  0  0  0  0  0  0  0  0  0  0
   54.9330   26.6830   46.0000 O   0  0  0  0  0  0  0  0  0  0  0  0
   57.3310   29.0030   44.6490 C   0  0  0  0  0  0  0  0  0  0  0  0
   57.9830   30.1170   45.1360 C   0  0  0  0  0  0  0  0  0  0  0  0
   57.4960   31.4980   44.9470 C   0  0  0  0  0  0  0  0  0  0  0  0
   56.2580   31.7100   44.8450 O   0  0  0  0  0  0  0  0  0  0  0  0
   58.4220   32.5840   44.8240 N   0  0  0  0  0  0  0  0  0  0  0  0
   58.3420   33.8040   45.6180 C   0  0  0  0  0  0  0  0  0  0  0  0
   59.3810   33.7700   46.7030 C   0  0  0  0  0  0  0  0  0  0  0  0
   60.7200   34.0680   46.4090 C   0  0  0  0  0  0  0  0  0  0  0  0
   61.6690   34.1250   47.4330 C   0  0  0  0  0  0  0  0  0  0  0  0
   61.2920   33.8730   48.7540 C   0  0  0  0  0  0  0  0  0  0  0  0
   59.9620   33.5390   49.0640 C   0  0  0  0  0  0  0  0  0  0  0  0
   59.5580   33.2480   50.4600 C   0  0  0  0  0  0  0  0  0  0  0  0
   59.2840   34.2080   51.2320 O   0  0  0  0  0  0  0  0  0  0  0  0
   59.4500   31.8970   50.9470 N   0  0  0  0  0  0  0  0  0  0  0  0
   59.6560   31.6000   52.3680 C   0  0  0  0  0  0  0  0  0  0  0  0
   58.3420   31.1090   53.0080 C   0  0  0  0  0  0  0  0  0  0  0  0
   57.4890   30.3010   52.0910 N   0  0  0  0  0  0  0  0  0  0  0  0
   56.2840   31.0380   51.6710 C   0  0  0  0  0  0  0  0  0  0  0  0
   58.2260   29.7410   50.9370 C   0  0  0  0  0  0  0  0  0  0  0  0
   58.8840   30.8430   50.0890 C   0  0  0  0  0  0  0  0  0  0  0  0
   59.0060   33.5190   48.0340 C   0  0  0  0  0  0  0  0  0  0  0  0
   59.1150   29.7530   45.7870 N   0  0  0  0  0  0  0  0  0  0  0  0
   60.0510   30.6590   46.4640 C   0  0  0  0  0  0  0  0  0  0  0  0
  1  2  2  0
  2  3  1  0
  3  4  2  3
  4  5  1  0
  5  6  1  0
  6  7  1  0
  7  8  2  0
  7  9  1  0
  9 10  1  0
 10 11  1  0
  3 12  1  0
 12 13  2  0
 13 14  1  0
 14 15  2  0
 14 16  1  0
 16 17  1  0
 17 18  1  0
 18 19  2  0
 19 20  1  0
 20 21  2  0
 21 22  1  0
 22 23  1  0
 23 24  2  0
 23 25  1  0
 25 26  1  0
 26 27  1  0
 27 28  1  0
 28 29  1  0
 28 30  1  0
 30 31  1  0
 22 32  2  0
 13 33  1  0
 33 34  1  0
 33  2  1  0
 10  5  2  0
 32 18  1  0
 31 25  1  0
M  CHG  4   6  -1   9  -1  11  -1  16  -1
M  END
>  <UniqueID>  (3156) 
77

>  <SMILES>  (3156) 
C=c1c(=Cc2[n-]c(=O)[n-]c2[O-])cc(C(=O)[N-]Cc2cccc(C(=O)N3CCN(C)CC3)c2)n1C

>  <Energy>  (3156) 
143.95617736989766

>  <Genealogy>  (3156) 
C=c1c(=Cc2[n-]c(=O)[n-]c2[O-])cc(C(=O)[N-]Cc2cccc(C(=O)N3CCN(C)CC3)c2)n1C (protonated)
C=c1c(=Cc2[n-]c(=O)[n-]c2[O-])cc(C(=O)[N-]Cc2cccc(C(=O)N3CCN(C)CC3)c2)n1C (3D coordinates assigned)
C=c1c(=Cc2[n-]c(=O)[n-]c2[O-])cc(C(=O)[N-]Cc2cccc(C(=O)N3CCN(C)CC3)c2)n1C (nonaromatic ring conformer: 143.95617736989766 kcal/mol)

>  <smiles>  (3156) 
C=c1c(=Cc2[nH]c(=O)[nH]c2O)cc(C(=O)NCc2cccc(C(=O)N3CCN(C)CC3)c2)n1C

>  <score_type>  (3156) 
oracle

>  <origin>  (3156) 
adg

>  <m_score__min__energy>  (3156) 
-20.030000000000001

>  <m_primary>  (3156) 
energy

$$$$
90:0
     RDKit          3D

 30 33  0  0  0  0  0  0  0  0999 V2000
   52.6770   30.6840   55.3280 C   0  0  0  0  0  0  0  0  0  0  0  0
   53.5230   30.4640   54.3170 C   0  0  0  0  0  0  0  0  0  0  0  0
   55.1820   30.3270   54.5360 S   0  0  0  0  0  0  0  0  0  0  0  0
   55.5720   30.0690   52.9240 C   0  0  0  0  0  0  0  0  0  0  0  0
   56.9200   29.7980   52.3820 C   0  0  0  0  0  0  0  0  0  0  0  0
   57.3460   28.6110   52.3900 O   0  0  0  0  0  0  0  0  0  0  0  0
   57.7700   30.8490   51.8820 N   0  0  0  0  0  0  0  0  0  0  0  0
   57.2130   31.9960   51.1510 C   0  0  0  0  0  0  0  0  0  0  0  0
   58.0730   32.3150   49.9270 C   0  0  0  0  0  0  0  0  0  0  0  0
   59.5040   32.3930   50.2690 N   0  0  0  0  0  0  0  0  0  0  0  0
   60.4170   33.0280   49.3480 C   0  0  0  0  0  0  0  0  0  0  0  0
   61.5860   33.3330   49.7170 O   0  0  0  0  0  0  0  0  0  0  0  0
   60.0060   33.3220   48.0070 N   0  0  0  0  0  0  0  0  0  0  0  0
   59.9430   32.2350   47.0290 C   0  0  0  0  0  0  0  0  0  0  0  0
   58.9480   32.6130   45.9280 C   0  0  0  0  0  0  0  0  0  0  0  0
   59.2760   33.8760   45.3750 O   0  0  0  0  0  0  0  0  0  0  0  0
   59.1160   34.8880   46.3530 C   0  0  0  0  0  0  0  0  0  0  0  0
   60.1060   34.6920   47.5080 C   0  0  0  0  0  0  0  0  0  0  0  0
   59.9620   31.9870   51.6050 C   0  0  0  0  0  0  0  0  0  0  0  0
   59.2240   30.7270   52.0630 C   0  0  0  0  0  0  0  0  0  0  0  0
   54.3950   30.0620   52.1830 C   0  0  0  0  0  0  0  0  0  0  0  0
   53.2240   30.2820   52.9480 C   0  0  0  0  0  0  0  0  0  0  0  0
   51.9690   30.3260   52.4370 C   0  0  0  0  0  0  0  0  0  0  0  0
   51.5870   30.7820   51.0800 C   0  0  0  0  0  0  0  0  0  0  0  0
   51.5140   30.0130   49.9790 N   0  0  0  0  0  0  0  0  0  0  0  0
   51.0340   30.8490   49.0320 C   0  0  0  0  0  0  0  0  0  0  0  0
   50.8310   30.4860   47.8440 O   0  0  0  0  0  0  0  0  0  0  0  0
   50.7840   32.1030   49.4620 N   0  0  0  0  0  0  0  0  0  0  0  0
   51.1280   32.0390   50.7600 C   0  0  0  0  0  0  0  0  0  0  0  0
   51.0110   33.1080   51.6410 O   0  0  0  0  0  0  0  0  0  0  0  0
  1  2  2  0
  2  3  1  0
  3  4  1  0
  4  5  1  0
  5  6  2  0
  5  7  1  0
  7  8  1  0
  8  9  1  0
  9 10  1  0
 10 11  1  0
 11 12  2  0
 11 13  1  0
 13 14  1  0
 14 15  1  0
 15 16  1  0
 16 17  1  0
 17 18  1  0
 10 19  1  0
 19 20  1  0
  4 21  2  0
 21 22  1  0
 22 23  2  0
 23 24  1  0
 24 25  1  0
 25 26  1  0
 26 27  2  0
 26 28  1  0
 28 29  1  0
 29 30  1  0
 22  2  1  0
 29 24  2  0
 20  7  1  0
 18 13  1  0
M  CHG  3  25  -1  28  -1  30  -1
M  END
>  <UniqueID>  (3157) 
86

>  <SMILES>  (3157) 
C=c1sc(C(=O)N2CCN(C(=O)N3CCOCC3)CC2)c/c1=C\c1[n-]c(=O)[n-]c1[O-]

>  <Energy>  (3157) 
123.00710149426905

>  <Genealogy>  (3157) 
C=c1sc(C(=O)N2CCN(C(=O)N3CCOCC3)CC2)cc1=Cc1[n-]c(=O)[n-]c1[O-] (protonated)
C=c1sc(C(=O)N2CCN(C(=O)N3CCOCC3)CC2)c/c1=C\c1[n-]c(=O)[n-]c1[O-] (cis-trans isomerization)
C=c1sc(C(=O)N2CCN(C(=O)N3CCOCC3)CC2)c/c1=C\c1[n-]c(=O)[n-]c1[O-] (3D coordinates assigned)
C=c1sc(C(=O)N2CCN(C(=O)N3CCOCC3)CC2)c/c1=C\c1[n-]c(=O)[n-]c1[O-] (nonaromatic ring conformer: 123.00710149426905 kcal/mol)

>  <smiles>  (3157) 
C=c1sc(C(=O)N2CCN(C(=O)N3CCOCC3)CC2)cc1=Cc1[nH]c(=O)[nH]c1O

>  <score_type>  (3157) 
oracle

>  <origin>  (3157) 
adg

>  <m_score__min__energy>  (3157) 
-17.710000000000001

>  <m_primary>  (3157) 
energy

$$$$
12:0
     RDKit          3D

 27 29  0  0  0  0  0  0  0  0999 V2000
   58.0870   28.7860   46.3160 O   0  0  0  0  0  0  0  0  0  0  0  0
   57.0990   28.2960   45.7000 C   0  0  0  0  0  0  0  0  0  0  0  0
   56.4080   29.0790   44.7110 N   0  0  0  0  0  0  0  0  0  0  0  0
   56.9240   30.3010   44.1530 C   0  0  0  0  0  0  0  0  0  0  0  0
   57.0260   30.4850   42.7630 C   0  0  0  0  0  0  0  0  0  0  0  0
   57.5100   31.6880   42.2460 C   0  0  0  0  0  0  0  0  0  0  0  0
   57.8880   32.7210   43.1070 C   0  0  0  0  0  0  0  0  0  0  0  0
   57.7780   32.5630   44.4940 C   0  0  0  0  0  0  0  0  0  0  0  0
   58.1820   33.6470   45.3410 N   0  0  0  0  0  0  0  0  0  0  0  0
   59.5490   33.6240   46.4080 S   0  0  0  0  0  0  0  0  0  0  0  0
   60.8000   33.8460   45.6090 O   0  0  0  0  0  0  0  0  0  0  0  0
   59.4050   34.7330   47.4130 O   0  0  0  0  0  0  0  0  0  0  0  0
   59.6570   32.0620   47.2140 C   0  0  0  0  0  0  0  0  0  0  0  0
   60.5580   31.0880   46.7600 C   0  0  0  0  0  0  0  0  0  0  0  0
   60.6470   29.8550   47.4140 C   0  0  0  0  0  0  0  0  0  0  0  0
   59.8380   29.5910   48.5230 C   0  0  0  0  0  0  0  0  0  0  0  0
   58.9350   30.5580   48.9760 C   0  0  0  0  0  0  0  0  0  0  0  0
   58.8440   31.7910   48.3230 C   0  0  0  0  0  0  0  0  0  0  0  0
   57.2820   31.3520   45.0110 C   0  0  0  0  0  0  0  0  0  0  0  0
   56.6350   26.9310   46.0290 C   0  0  0  0  0  0  0  0  0  0  0  0
   57.4720   26.0200   46.6910 C   0  0  0  0  0  0  0  0  0  0  0  0
   56.9800   24.7440   46.9740 C   0  0  0  0  0  0  0  0  0  0  0  0
   57.7050   23.9030   47.5680 O   0  0  0  0  0  0  0  0  0  0  0  0
   55.7160   24.4070   46.6070 N   0  0  0  0  0  0  0  0  0  0  0  0
   54.9170   25.2980   45.9650 C   0  0  0  0  0  0  0  0  0  0  0  0
   53.7500   24.9680   45.6320 O   0  0  0  0  0  0  0  0  0  0  0  0
   55.3770   26.5440   45.6810 N   0  0  0  0  0  0  0  0  0  0  0  0
  1  2  2  0
  2  3  1  0
  3  4  1  0
  4  5  2  0
  5  6  1  0
  6  7  2  0
  7  8  1  0
  8  9  1  0
  9 10  1  0
 10 11  2  0
 10 12  2  0
 10 13  1  0
 13 14  2  0
 14 15  1  0
 15 16  2  0
 16 17  1  0
 17 18  2  0
  8 19  2  0
  2 20  1  0
 20 21  2  0
 21 22  1  0
 22 23  2  0
 22 24  1  0
 24 25  1  0
 25 26  2  0
 25 27  1  0
 19  4  1  0
 27 20  1  0
 18 13  1  0
M  CHG  3   9  -1  24  -1  27  -1
M  END
>  <UniqueID>  (3158) 
13

>  <SMILES>  (3158) 
O=C(Nc1cccc([N-]S(=O)(=O)c2ccccc2)c1)c1cc(=O)[n-]c(=O)[n-]1

>  <Energy>  (3158) 
48.804096947993585

>  <Genealogy>  (3158) 
O=C(Nc1cccc([N-]S(=O)(=O)c2ccccc2)c1)c1cc(=O)[n-]c(=O)[n-]1 (protonated)
O=C(Nc1cccc([N-]S(=O)(=O)c2ccccc2)c1)c1cc(=O)[n-]c(=O)[n-]1 (3D coordinates assigned)
O=C(Nc1cccc([N-]S(=O)(=O)c2ccccc2)c1)c1cc(=O)[n-]c(=O)[n-]1 (optimized conformer: 48.804096947993585 kcal/mol)

>  <smiles>  (3158) 
O=C(Nc1cccc(NS(=O)(=O)c2ccccc2)c1)c1cc(=O)[nH]c(=O)[nH]1

>  <score_type>  (3158) 
oracle

>  <origin>  (3158) 
adg

>  <m_score__min__energy>  (3158) 
-14.25

>  <m_primary>  (3158) 
energy

$$$$
20:0
     RDKit          3D

 26 29  0  0  0  0  0  0  0  0999 V2000
   53.8410   28.3240   52.8070 C   0  0  0  0  0  0  0  0  0  0  0  0
   54.7030   29.3080   52.5440 C   0  0  0  0  0  0  0  0  0  0  0  0
   55.9980   29.0930   52.4880 O   0  0  0  0  0  0  0  0  0  0  0  0
   56.6040   30.1960   52.1150 C   0  0  0  0  0  0  0  0  0  0  0  0
   58.0640   30.3360   51.9480 C   0  0  0  0  0  0  0  0  0  0  0  0
   58.8230   29.8120   52.8080 O   0  0  0  0  0  0  0  0  0  0  0  0
   58.6390   31.0370   50.8270 N   0  0  0  0  0  0  0  0  0  0  0  0
   57.9080   32.1130   50.1440 C   0  0  0  0  0  0  0  0  0  0  0  0
   58.8870   33.0900   49.4780 C   0  0  0  0  0  0  0  0  0  0  0  0
   59.8260   32.4190   48.5410 N   0  0  0  0  0  0  0  0  0  0  0  0
   59.3330   32.4710   47.1480 C   0  0  0  0  0  0  0  0  0  0  0  0
   58.6720   33.8280   46.8500 C   0  0  0  0  0  0  0  0  0  0  0  0
   58.7310   34.2890   45.4010 C   0  0  0  0  0  0  0  0  0  0  0  0
   57.4260   33.7640   45.9810 C   0  0  0  0  0  0  0  0  0  0  0  0
   60.2050   31.0370   48.9410 C   0  0  0  0  0  0  0  0  0  0  0  0
   60.0310   30.7770   50.4410 C   0  0  0  0  0  0  0  0  0  0  0  0
   55.6730   31.1990   51.9170 C   0  0  0  0  0  0  0  0  0  0  0  0
   54.4410   30.6480   52.2240 C   0  0  0  0  0  0  0  0  0  0  0  0
   53.2910   31.3460   52.1930 C   0  0  0  0  0  0  0  0  0  0  0  0
   52.2970   31.3110   51.1120 C   0  0  0  0  0  0  0  0  0  0  0  0
   52.3240   30.4250   50.1030 N   0  0  0  0  0  0  0  0  0  0  0  0
   51.3290   30.8440   49.2920 C   0  0  0  0  0  0  0  0  0  0  0  0
   51.0270   30.2490   48.2260 O   0  0  0  0  0  0  0  0  0  0  0  0
   50.6910   31.9610   49.7060 N   0  0  0  0  0  0  0  0  0  0  0  0
   51.3270   32.2530   50.8520 C   0  0  0  0  0  0  0  0  0  0  0  0
   51.0430   33.3690   51.6290 O   0  0  0  0  0  0  0  0  0  0  0  0
  1  2  2  0
  2  3  1  0
  3  4  1  0
  4  5  1  0
  5  6  2  0
  5  7  1  0
  7  8  1  0
  8  9  1  0
  9 10  1  0
 10 11  1  0
 11 12  1  0
 12 13  1  0
 13 14  1  0
 10 15  1  0
 15 16  1  0
  4 17  2  0
 17 18  1  0
 18 19  2  3
 19 20  1  0
 20 21  1  0
 21 22  1  0
 22 23  2  0
 22 24  1  0
 24 25  1  0
 25 26  1  0
 18  2  1  0
 25 20  2  0
 16  7  1  0
 14 12  1  0
M  CHG  3  21  -1  24  -1  26  -1
M  END
>  <UniqueID>  (3159) 
21

>  <SMILES>  (3159) 
C=c1oc(C(=O)N2CCN(CC3CC3)CC2)cc1=Cc1[n-]c(=O)[n-]c1[O-]

>  <Energy>  (3159) 
387.49965845725677

>  <Genealogy>  (3159) 
C=c1oc(C(=O)N2CCN(CC3CC3)CC2)cc1=Cc1[n-]c(=O)[n-]c1[O-] (protonated)
C=c1oc(C(=O)N2CCN(CC3CC3)CC2)cc1=Cc1[n-]c(=O)[n-]c1[O-] (3D coordinates assigned)
C=c1oc(C(=O)N2CCN(CC3CC3)CC2)cc1=Cc1[n-]c(=O)[n-]c1[O-] (nonaromatic ring conformer: 387.49965845725677 kcal/mol)

>  <smiles>  (3159) 
C=c1oc(C(=O)N2CCN(CC3CC3)CC2)cc1=Cc1[nH]c(=O)[nH]c1O

>  <score_type>  (3159) 
oracle

>  <origin>  (3159) 
adg

>  <m_score__min__energy>  (3159) 
-17.050000000000001

>  <m_primary>  (3159) 
energy

$$$$
37:0
     RDKit          3D

 25 27  0  0  0  0  0  0  0  0999 V2000
   60.0380   35.3220   46.3960 O   0  0  0  0  0  0  0  0  0  0  0  0
   59.1870   34.5640   45.9570 C   0  0  0  0  0  0  0  0  0  0  0  0
   59.1940   34.1950   44.5000 C   0  0  0  0  0  0  0  0  0  0  0  0
   57.9400   33.3970   44.1240 C   0  0  0  0  0  0  0  0  0  0  0  0
   57.7040   32.3130   45.0900 N   0  0  0  0  0  0  0  0  0  0  0  0
   57.0990   31.0880   44.6360 C   0  0  0  0  0  0  0  0  0  0  0  0
   56.2880   31.1130   43.6710 O   0  0  0  0  0  0  0  0  0  0  0  0
   57.3930   29.7970   45.2920 C   0  0  0  0  0  0  0  0  0  0  0  0
   58.6440   29.5840   45.8870 C   0  0  0  0  0  0  0  0  0  0  0  0
   58.9410   28.3620   46.5060 C   0  0  0  0  0  0  0  0  0  0  0  0
   60.2860   28.1600   47.1620 C   0  0  0  0  0  0  0  0  0  0  0  0
   60.6990   29.4040   47.9000 C   0  0  0  0  0  0  0  0  0  0  0  0
   60.4480   29.5270   49.2770 C   0  0  0  0  0  0  0  0  0  0  0  0
   60.8620   30.6680   49.9700 C   0  0  0  0  0  0  0  0  0  0  0  0
   61.5370   31.6900   49.2980 C   0  0  0  0  0  0  0  0  0  0  0  0
   61.8000   31.5730   47.9280 C   0  0  0  0  0  0  0  0  0  0  0  0
   62.6530   32.8530   47.0870 Cl  0  0  0  0  0  0  0  0  0  0  0  0
   61.3860   30.4320   47.2320 C   0  0  0  0  0  0  0  0  0  0  0  0
   57.9440   27.3700   46.5470 C   0  0  0  0  0  0  0  0  0  0  0  0
   58.1610   26.2600   47.1040 O   0  0  0  0  0  0  0  0  0  0  0  0
   56.7290   27.6030   45.9850 N   0  0  0  0  0  0  0  0  0  0  0  0
   56.4290   28.7780   45.3710 C   0  0  0  0  0  0  0  0  0  0  0  0
   55.1520   28.9640   44.8520 O   0  0  0  0  0  0  0  0  0  0  0  0
   57.8420   32.5500   46.5400 C   0  0  0  0  0  0  0  0  0  0  0  0
   58.1190   34.0250   46.8660 C   0  0  0  0  0  0  0  0  0  0  0  0
  1  2  2  0
  2  3  1  0
  3  4  1  0
  4  5  1  0
  5  6  1  0
  6  7  2  0
  6  8  1  0
  8  9  1  0
  9 10  2  0
 10 11  1  0
 11 12  1  0
 12 13  2  0
 13 14  1  0
 14 15  2  0
 15 16  1  0
 16 17  1  0
 16 18  2  0
 10 19  1  0
 19 20  2  0
 19 21  1  0
 21 22  1  0
 22 23  1  0
  5 24  1  0
 24 25  1  0
 25  2  1  0
 22  8  2  0
 18 12  1  0
M  CHG  2  21  -1  23  -1
M  END
>  <UniqueID>  (3160) 
37

>  <SMILES>  (3160) 
O=C1CCN(C(=O)c2cc(Cc3cccc(Cl)c3)c(=O)[n-]c2[O-])CC1

>  <Energy>  (3160) 
46.76321666952932

>  <Genealogy>  (3160) 
O=C1CCN(C(=O)c2cc(Cc3cccc(Cl)c3)c(=O)[n-]c2[O-])CC1 (protonated)
O=C1CCN(C(=O)c2cc(Cc3cccc(Cl)c3)c(=O)[n-]c2[O-])CC1 (3D coordinates assigned)
O=C1CCN(C(=O)c2cc(Cc3cccc(Cl)c3)c(=O)[n-]c2[O-])CC1 (nonaromatic ring conformer: 46.76321666952932 kcal/mol)

>  <smiles>  (3160) 
O=C1CCN(C(=O)c2cc(Cc3cccc(Cl)c3)c(=O)[nH]c2O)CC1

>  <score_type>  (3160) 
oracle

>  <origin>  (3160) 
adg

>  <m_score__min__energy>  (3160) 
-15.57

>  <m_primary>  (3160) 
energy

$$$$
49:0
     RDKit          3D

 28 30  0  0  0  0  0  0  0  0999 V2000
   57.8730   26.5900   42.7260 C   0  0  0  0  0  0  0  0  0  0  0  0
   57.8390   27.5800   43.8480 C   0  0  0  0  0  0  0  0  0  0  0  0
   57.9010   28.9120   43.6710 N   0  0  0  0  0  0  0  0  0  0  0  0
   57.8350   29.4750   44.8940 C   0  0  0  0  0  0  0  0  0  0  0  0
   57.8560   30.9310   45.1220 C   0  0  0  0  0  0  0  0  0  0  0  0
   57.6780   31.8770   44.1110 C   0  0  0  0  0  0  0  0  0  0  0  0
   57.7550   33.4060   44.8090 S   0  0  0  0  0  0  0  0  0  0  0  0
   58.0220   32.8010   46.3510 C   0  0  0  0  0  0  0  0  0  0  0  0
   58.1480   33.5560   47.4020 N   0  0  0  0  0  0  0  0  0  0  0  0
   59.2810   34.3550   47.7830 C   0  0  0  0  0  0  0  0  0  0  0  0
   59.5970   35.3330   47.0550 O   0  0  0  0  0  0  0  0  0  0  0  0
   60.1270   34.0580   48.9880 C   0  0  0  0  0  0  0  0  0  0  0  0
   61.4840   34.5500   48.7640 N   0  0  0  0  0  0  0  0  0  0  0  0
   62.3650   33.4170   47.7840 S   0  0  0  0  0  0  0  0  0  0  0  0
   62.3580   33.8840   46.3560 O   0  0  0  0  0  0  0  0  0  0  0  0
   63.7880   33.3260   48.2600 O   0  0  0  0  0  0  0  0  0  0  0  0
   61.6080   31.8380   47.8740 C   0  0  0  0  0  0  0  0  0  0  0  0
   61.1300   31.1000   46.8020 C   0  0  0  0  0  0  0  0  0  0  0  0
   60.6000   29.8630   47.1850 C   0  0  0  0  0  0  0  0  0  0  0  0
   60.6620   29.6300   48.5540 C   0  0  0  0  0  0  0  0  0  0  0  0
   61.3800   30.9620   49.2890 S   0  0  0  0  0  0  0  0  0  0  0  0
   58.0430   31.4510   46.3650 N   0  0  0  0  0  0  0  0  0  0  0  0
   57.7340   28.4940   45.8680 C   0  0  0  0  0  0  0  0  0  0  0  0
   57.7470   27.2850   45.1980 C   0  0  0  0  0  0  0  0  0  0  0  0
   57.5960   25.9330   45.8270 C   0  0  0  0  0  0  0  0  0  0  0  0
   56.2040   25.7550   46.3380 C   0  0  0  0  0  0  0  0  0  0  0  0
   55.1940   26.7050   46.0060 N   0  0  0  0  0  0  0  0  0  0  0  0
   55.9270   24.7840   47.0940 O   0  0  0  0  0  0  0  0  0  0  0  0
  1  2  1  0
  2  3  1  0
  3  4  1  0
  4  5  1  0
  5  6  2  0
  6  7  1  0
  7  8  1  0
  8  9  2  3
  9 10  1  0
 10 11  2  0
 10 12  1  0
 12 13  1  0
 13 14  1  0
 14 15  2  0
 14 16  2  0
 14 17  1  0
 17 18  2  0
 18 19  1  0
 19 20  2  0
 20 21  1  0
  8 22  1  0
  4 23  2  0
 23 24  1  0
 24 25  1  0
 25 26  1  0
 26 27  1  0
 26 28  2  0
 24  2  2  0
 22  5  1  0
 21 17  1  0
M  CHG  3  13  -1  22  -1  27  -1
M  END
>  <UniqueID>  (3161) 
47

>  <SMILES>  (3161) 
Cc1[nH]c(-c2csc(=NC(=O)C[N-]S(=O)(=O)c3cccs3)[n-]2)cc1CC([NH-])=O

>  <Energy>  (3161) 
120.56052625737058

>  <Genealogy>  (3161) 
Cc1[nH]c(-c2csc(=NC(=O)C[N-]S(=O)(=O)c3cccs3)[n-]2)cc1CC([NH-])=O (protonated)
Cc1[nH]c(-c2csc(=NC(=O)C[N-]S(=O)(=O)c3cccs3)[n-]2)cc1CC([NH-])=O (3D coordinates assigned)
Cc1[nH]c(-c2csc(=NC(=O)C[N-]S(=O)(=O)c3cccs3)[n-]2)cc1CC([NH-])=O (optimized conformer: 120.56052625737058 kcal/mol)

>  <smiles>  (3161) 
Cc1[nH]c(-c2csc(=NC(=O)CNS(=O)(=O)c3cccs3)[nH]2)cc1CC(N)=O

>  <score_type>  (3161) 
oracle

>  <origin>  (3161) 
adg

>  <m_score__min__energy>  (3161) 
-14.279999999999999

>  <m_primary>  (3161) 
energy

$$$$
51:0
     RDKit          3D

 30 33  0  0  0  0  0  0  0  0999 V2000
   59.6890   28.3000   45.6070 O   0  0  0  0  0  0  0  0  0  0  0  0
   58.5080   28.4860   46.0000 C   0  0  0  0  0  0  0  0  0  0  0  0
   58.0730   29.8270   46.2600 N   0  0  0  0  0  0  0  0  0  0  0  0
   58.0970   30.9240   45.3320 C   0  0  0  0  0  0  0  0  0  0  0  0
   57.8500   30.7190   43.9630 C   0  0  0  0  0  0  0  0  0  0  0  0
   57.8340   31.7990   43.0760 C   0  0  0  0  0  0  0  0  0  0  0  0
   58.0500   33.0930   43.5480 C   0  0  0  0  0  0  0  0  0  0  0  0
   58.2760   33.3140   44.9090 C   0  0  0  0  0  0  0  0  0  0  0  0
   58.2890   32.2370   45.8100 C   0  0  0  0  0  0  0  0  0  0  0  0
   58.5450   32.4930   47.2440 C   0  0  0  0  0  0  0  0  0  0  0  0
   57.8680   33.3810   47.8310 O   0  0  0  0  0  0  0  0  0  0  0  0
   59.5650   31.7690   47.9650 N   0  0  0  0  0  0  0  0  0  0  0  0
   59.6010   31.7780   49.4320 C   0  0  0  0  0  0  0  0  0  0  0  0
   60.9150   32.4100   49.9240 C   0  0  0  0  0  0  0  0  0  0  0  0
   62.1020   32.0390   49.1010 N   0  0  0  0  0  0  0  0  0  0  0  0
   62.8610   33.1440   48.4510 C   0  0  0  0  0  0  0  0  0  0  0  0
   61.9800   34.1540   47.7180 C   0  0  0  0  0  0  0  0  0  0  0  0
   62.7000   33.8260   46.4130 C   0  0  0  0  0  0  0  0  0  0  0  0
   63.5730   32.8070   47.1370 C   0  0  0  0  0  0  0  0  0  0  0  0
   61.8750   30.8990   48.1880 C   0  0  0  0  0  0  0  0  0  0  0  0
   60.6930   31.1600   47.2450 C   0  0  0  0  0  0  0  0  0  0  0  0
   57.5940   27.3240   46.1320 C   0  0  0  0  0  0  0  0  0  0  0  0
   56.2390   27.4160   45.7670 C   0  0  0  0  0  0  0  0  0  0  0  0
   55.7220   28.5970   45.2400 O   0  0  0  0  0  0  0  0  0  0  0  0
   55.4240   26.3370   45.9080 N   0  0  0  0  0  0  0  0  0  0  0  0
   55.8960   25.1580   46.3860 C   0  0  0  0  0  0  0  0  0  0  0  0
   55.1210   24.1750   46.5090 O   0  0  0  0  0  0  0  0  0  0  0  0
   57.2030   25.0380   46.7280 N   0  0  0  0  0  0  0  0  0  0  0  0
   58.0600   26.0840   46.6100 C   0  0  0  0  0  0  0  0  0  0  0  0
   59.2640   25.9350   46.9490 O   0  0  0  0  0  0  0  0  0  0  0  0
  1  2  2  0
  2  3  1  0
  3  4  1  0
  4  5  2  0
  5  6  1  0
  6  7  2  0
  7  8  1  0
  8  9  2  0
  9 10  1  0
 10 11  2  0
 10 12  1  0
 12 13  1  0
 13 14  1  0
 14 15  1  0
 15 16  1  0
 16 17  1  0
 17 18  1  0
 18 19  1  0
 15 20  1  0
 20 21  1  0
  2 22  1  0
 22 23  2  0
 23 24  1  0
 23 25  1  0
 25 26  1  0
 26 27  2  0
 26 28  1  0
 28 29  1  0
 29 30  2  0
  9  4  1  0
 21 12  1  0
 29 22  1  0
 19 16  1  0
M  CHG  3   3  -1  25  -1  28  -1
M  END
>  <UniqueID>  (3162) 
49

>  <SMILES>  (3162) 
O=C([N-]c1ccccc1C(=O)N1CCN(C2CCC2)CC1)c1c(O)[n-]c(=O)[n-]c1=O

>  <Energy>  (3162) 
142.01385496811636

>  <Genealogy>  (3162) 
O=C([N-]c1ccccc1C(=O)N1CCN(C2CCC2)CC1)c1c(O)[n-]c(=O)[n-]c1=O (protonated)
O=C([N-]c1ccccc1C(=O)N1CCN(C2CCC2)CC1)c1c(O)[n-]c(=O)[n-]c1=O (3D coordinates assigned)
O=C([N-]c1ccccc1C(=O)N1CCN(C2CCC2)CC1)c1c(O)[n-]c(=O)[n-]c1=O (nonaromatic ring conformer: 142.01385496811636 kcal/mol)

>  <smiles>  (3162) 
O=C(Nc1ccccc1C(=O)N1CCN(C2CCC2)CC1)c1c(O)[nH]c(=O)[nH]c1=O

>  <score_type>  (3162) 
oracle

>  <origin>  (3162) 
adg

>  <m_score__min__energy>  (3162) 
-14.880000000000001

>  <m_primary>  (3162) 
energy

$$$$
52:0
     RDKit          3D

 30 33  0  0  0  0  0  0  0  0999 V2000
   53.6920   30.2600   55.6450 C   0  0  0  0  0  0  0  0  0  0  0  0
   54.3240   30.2550   54.4600 C   0  0  0  0  0  0  0  0  0  0  0  0
   53.7450   30.5080   53.2120 C   0  0  0  0  0  0  0  0  0  0  0  0
   52.4510   30.7730   52.9500 C   0  0  0  0  0  0  0  0  0  0  0  0
   51.9240   31.0550   51.6020 C   0  0  0  0  0  0  0  0  0  0  0  0
   52.0920   30.2260   50.5580 N   0  0  0  0  0  0  0  0  0  0  0  0
   51.3900   30.8200   49.5680 C   0  0  0  0  0  0  0  0  0  0  0  0
   51.3180   30.3420   48.4050 O   0  0  0  0  0  0  0  0  0  0  0  0
   50.7660   31.9630   49.9220 N   0  0  0  0  0  0  0  0  0  0  0  0
   51.1030   32.0930   51.2160 C   0  0  0  0  0  0  0  0  0  0  0  0
   50.6320   33.1120   52.0330 O   0  0  0  0  0  0  0  0  0  0  0  0
   54.7610   30.3700   52.2760 C   0  0  0  0  0  0  0  0  0  0  0  0
   55.9030   30.0460   52.9800 C   0  0  0  0  0  0  0  0  0  0  0  0
   57.2040   29.7530   52.3390 C   0  0  0  0  0  0  0  0  0  0  0  0
   57.9800   28.9530   52.9290 O   0  0  0  0  0  0  0  0  0  0  0  0
   57.6530   30.4050   51.1190 N   0  0  0  0  0  0  0  0  0  0  0  0
   57.5170   31.8860   51.2380 C   0  0  0  0  0  0  0  0  0  0  0  0
   58.6510   32.6850   50.5660 C   0  0  0  0  0  0  0  0  0  0  0  0
   59.0880   32.0270   49.3360 N   0  0  0  0  0  0  0  0  0  0  0  0
   59.5370   32.8190   48.2280 C   0  0  0  0  0  0  0  0  0  0  0  0
   58.5900   33.3880   47.3620 C   0  0  0  0  0  0  0  0  0  0  0  0
   59.0030   34.1840   46.2930 C   0  0  0  0  0  0  0  0  0  0  0  0
   60.3630   34.4180   46.0780 C   0  0  0  0  0  0  0  0  0  0  0  0
   61.3150   33.8520   46.9300 C   0  0  0  0  0  0  0  0  0  0  0  0
   60.9140   33.0350   48.0000 C   0  0  0  0  0  0  0  0  0  0  0  0
   61.9580   32.4520   48.9140 C   0  0  0  0  0  0  0  0  0  0  0  0
   59.3680   30.5880   49.3390 C   0  0  0  0  0  0  0  0  0  0  0  0
   59.0050   29.9690   50.6940 C   0  0  0  0  0  0  0  0  0  0  0  0
   55.6460   29.9930   54.3080 N   0  0  0  0  0  0  0  0  0  0  0  0
   56.6060   29.6820   55.3720 C   0  0  0  0  0  0  0  0  0  0  0  0
  1  2  2  0
  2  3  1  0
  3  4  2  3
  4  5  1  0
  5  6  1  0
  6  7  1  0
  7  8  2  0
  7  9  1  0
  9 10  1  0
 10 11  1  0
  3 12  1  0
 12 13  2  0
 13 14  1  0
 14 15  2  0
 14 16  1  0
 16 17  1  0
 17 18  1  0
 18 19  1  0
 19 20  1  0
 20 21  2  0
 21 22  1  0
 22 23  2  0
 23 24  1  0
 24 25  2  0
 25 26  1  0
 19 27  1  0
 27 28  1  0
 13 29  1  0
 29 30  1  0
 29  2  1  0
 10  5  2  0
 28 16  1  0
 25 20  1  0
M  CHG  4   6  -1   9  -1  11  -1  16   1
M  END
>  <UniqueID>  (3163) 
50

>  <SMILES>  (3163) 
C=c1c(=Cc2[n-]c(=O)[n-]c2[O-])cc(C(=O)[NH+]2CCN(c3ccccc3C)CC2)n1C

>  <Energy>  (3163) 
144.08182695204613

>  <Genealogy>  (3163) 
C=c1c(=Cc2[n-]c(=O)[n-]c2[O-])cc(C(=O)[NH+]2CCN(c3ccccc3C)CC2)n1C (protonated)
C=c1c(=Cc2[n-]c(=O)[n-]c2[O-])cc(C(=O)[NH+]2CCN(c3ccccc3C)CC2)n1C (3D coordinates assigned)
C=c1c(=Cc2[n-]c(=O)[n-]c2[O-])cc(C(=O)[NH+]2CCN(c3ccccc3C)CC2)n1C (nonaromatic ring conformer: 144.08182695204613 kcal/mol)

>  <smiles>  (3163) 
C=c1c(=Cc2[nH]c(=O)[nH]c2O)cc(C(=O)N2CCN(c3ccccc3C)CC2)n1C

>  <score_type>  (3163) 
oracle

>  <origin>  (3163) 
adg

>  <m_score__min__energy>  (3163) 
-17

>  <m_primary>  (3163) 
energy

$$$$
53:0
     RDKit          3D

 26 28  0  0  0  0  0  0  0  0999 V2000
   54.0590   28.3290   53.7560 C   0  0  0  0  0  0  0  0  0  0  0  0
   54.5870   29.3710   53.0990 C   0  0  0  0  0  0  0  0  0  0  0  0
   53.8970   30.3220   52.3280 C   0  0  0  0  0  0  0  0  0  0  0  0
   52.5790   30.5470   52.1640 C   0  0  0  0  0  0  0  0  0  0  0  0
   51.9220   30.9370   50.9060 C   0  0  0  0  0  0  0  0  0  0  0  0
   51.7980   30.1400   49.8290 N   0  0  0  0  0  0  0  0  0  0  0  0
   51.0130   30.8600   48.9980 C   0  0  0  0  0  0  0  0  0  0  0  0
   50.6770   30.4500   47.8570 O   0  0  0  0  0  0  0  0  0  0  0  0
   50.6070   32.0500   49.4920 N   0  0  0  0  0  0  0  0  0  0  0  0
   51.1800   32.0750   50.7060 C   0  0  0  0  0  0  0  0  0  0  0  0
   51.0220   33.1130   51.6150 O   0  0  0  0  0  0  0  0  0  0  0  0
   54.8650   31.1030   51.7220 C   0  0  0  0  0  0  0  0  0  0  0  0
   56.0880   30.6620   52.1830 C   0  0  0  0  0  0  0  0  0  0  0  0
   57.4070   31.2910   51.8070 C   0  0  0  0  0  0  0  0  0  0  0  0
   57.5200   32.7330   52.3220 C   0  0  0  0  0  0  0  0  0  0  0  0
   58.8370   33.3930   51.9220 C   0  0  0  0  0  0  0  0  0  0  0  0
   55.9230   29.6050   53.0130 N   0  0  0  0  0  0  0  0  0  0  0  0
   56.9880   28.8290   53.5980 C   0  0  0  0  0  0  0  0  0  0  0  0
   57.2320   27.6810   53.1360 O   0  0  0  0  0  0  0  0  0  0  0  0
   57.6720   29.3010   54.7870 N   0  0  0  0  0  0  0  0  0  0  0  0
   57.1110   30.5980   55.2530 C   0  0  0  0  0  0  0  0  0  0  0  0
   58.1520   31.4120   56.0310 C   0  0  0  0  0  0  0  0  0  0  0  0
   59.3010   31.7720   55.1680 N   0  0  0  0  0  0  0  0  0  0  0  0
   60.4740   32.1050   55.9890 C   0  0  0  0  0  0  0  0  0  0  0  0
   59.6260   30.7420   54.1480 C   0  0  0  0  0  0  0  0  0  0  0  0
   59.1400   29.3410   54.5570 C   0  0  0  0  0  0  0  0  0  0  0  0
  1  2  2  0
  2  3  1  0
  3  4  2  0
  4  5  1  0
  5  6  1  0
  6  7  1  0
  7  8  2  0
  7  9  1  0
  9 10  1  0
 10 11  1  0
  3 12  1  0
 12 13  2  0
 13 14  1  0
 14 15  1  0
 15 16  1  0
 13 17  1  0
 17 18  1  0
 18 19  2  0
 18 20  1  0
 20 21  1  0
 21 22  1  0
 22 23  1  0
 23 24  1  0
 23 25  1  0
 25 26  1  0
 17  2  1  0
 26 20  1  0
 10  5  2  0
M  CHG  4   6  -1   9  -1  11  -1  20   1
M  END
>  <UniqueID>  (3164) 
51

>  <SMILES>  (3164) 
C=c1/c(=C\c2[n-]c(=O)[n-]c2[O-])cc(CCC)n1C(=O)[NH+]1CCN(C)CC1

>  <Energy>  (3164) 
134.11403516916334

>  <Genealogy>  (3164) 
C=c1c(=Cc2[n-]c(=O)[n-]c2[O-])cc(CCC)n1C(=O)[NH+]1CCN(C)CC1 (protonated)
C=c1/c(=C\c2[n-]c(=O)[n-]c2[O-])cc(CCC)n1C(=O)[NH+]1CCN(C)CC1 (cis-trans isomerization)
C=c1/c(=C\c2[n-]c(=O)[n-]c2[O-])cc(CCC)n1C(=O)[NH+]1CCN(C)CC1 (3D coordinates assigned)
C=c1/c(=C\c2[n-]c(=O)[n-]c2[O-])cc(CCC)n1C(=O)[NH+]1CCN(C)CC1 (nonaromatic ring conformer: 134.11403516916334 kcal/mol)

>  <smiles>  (3164) 
C=c1c(=Cc2[nH]c(=O)[nH]c2O)cc(CCC)n1C(=O)N1CCN(C)CC1

>  <score_type>  (3164) 
oracle

>  <origin>  (3164) 
adg

>  <m_score__min__energy>  (3164) 
-14.52

>  <m_primary>  (3164) 
energy

$$$$
65:0
     RDKit          3D

 29 32  0  0  0  0  0  0  0  0999 V2000
   54.1140   27.9630   53.0880 C   0  0  0  0  0  0  0  0  0  0  0  0
   54.5340   29.2100   52.8210 C   0  0  0  0  0  0  0  0  0  0  0  0
   53.7550   30.2800   52.3510 C   0  0  0  0  0  0  0  0  0  0  0  0
   52.4210   30.4170   52.2270 C   0  0  0  0  0  0  0  0  0  0  0  0
   51.7070   30.8120   51.0030 C   0  0  0  0  0  0  0  0  0  0  0  0
   51.6890   30.0720   49.8830 N   0  0  0  0  0  0  0  0  0  0  0  0
   51.0420   30.8600   48.9980 C   0  0  0  0  0  0  0  0  0  0  0  0
   50.8080   30.5020   47.8140 O   0  0  0  0  0  0  0  0  0  0  0  0
   50.6740   32.0690   49.4760 N   0  0  0  0  0  0  0  0  0  0  0  0
   51.1160   32.0280   50.7430 C   0  0  0  0  0  0  0  0  0  0  0  0
   51.0080   33.0900   51.6320 O   0  0  0  0  0  0  0  0  0  0  0  0
   54.6450   31.2770   51.9960 C   0  0  0  0  0  0  0  0  0  0  0  0
   55.9100   30.8180   52.2990 C   0  0  0  0  0  0  0  0  0  0  0  0
   57.1420   31.5890   52.0230 C   0  0  0  0  0  0  0  0  0  0  0  0
   57.3980   32.5890   52.7490 O   0  0  0  0  0  0  0  0  0  0  0  0
   57.9450   31.3210   50.8470 N   0  0  0  0  0  0  0  0  0  0  0  0
   58.8690   30.1760   51.0750 C   0  0  0  0  0  0  0  0  0  0  0  0
   60.0640   30.1660   50.0990 C   0  0  0  0  0  0  0  0  0  0  0  0
   59.7630   30.9650   48.9090 N   0  0  0  0  0  0  0  0  0  0  0  0
   59.9270   30.4260   47.5900 C   0  0  0  0  0  0  0  0  0  0  0  0
   60.4770   31.1190   46.6930 O   0  0  0  0  0  0  0  0  0  0  0  0
   59.4090   29.1360   47.2610 N   0  0  0  0  0  0  0  0  0  0  0  0
   58.5190   28.1220   47.8580 C   0  0  0  0  0  0  0  0  0  0  0  0
   58.4410   27.2480   46.6510 C   0  0  0  0  0  0  0  0  0  0  0  0
   59.3440   28.2820   46.0610 C   0  0  0  0  0  0  0  0  0  0  0  0
   59.3330   32.3550   49.0800 C   0  0  0  0  0  0  0  0  0  0  0  0
   58.6770   32.5460   50.4590 C   0  0  0  0  0  0  0  0  0  0  0  0
   55.8430   29.5760   52.8340 N   0  0  0  0  0  0  0  0  0  0  0  0
   56.9690   28.7770   53.3310 C   0  0  0  0  0  0  0  0  0  0  0  0
  1  2  2  0
  2  3  1  0
  3  4  2  0
  4  5  1  0
  5  6  1  0
  6  7  1  0
  7  8  2  0
  7  9  1  0
  9 10  1  0
 10 11  1  0
  3 12  1  0
 12 13  2  0
 13 14  1  0
 14 15  2  0
 14 16  1  0
 16 17  1  0
 17 18  1  0
 18 19  1  0
 19 20  1  0
 20 21  2  0
 20 22  1  0
 22 23  1  0
 23 24  1  0
 24 25  1  0
 19 26  1  0
 26 27  1  0
 13 28  1  0
 28 29  1  0
 28  2  1  0
 10  5  2  0
 27 16  1  0
 25 22  1  0
M  CHG  4   6  -1   9  -1  11  -1  16   1
M  END
>  <UniqueID>  (3165) 
62

>  <SMILES>  (3165) 
C=c1/c(=C\c2[n-]c(=O)[n-]c2[O-])cc(C(=O)[NH+]2CCN(C(=O)N3CCC3)CC2)n1C

>  <Energy>  (3165) 
181.2874333486873

>  <Genealogy>  (3165) 
C=c1c(=Cc2[n-]c(=O)[n-]c2[O-])cc(C(=O)[NH+]2CCN(C(=O)N3CCC3)CC2)n1C (protonated)
C=c1/c(=C\c2[n-]c(=O)[n-]c2[O-])cc(C(=O)[NH+]2CCN(C(=O)N3CCC3)CC2)n1C (cis-trans isomerization)
C=c1/c(=C\c2[n-]c(=O)[n-]c2[O-])cc(C(=O)[NH+]2CCN(C(=O)N3CCC3)CC2)n1C (3D coordinates assigned)
C=c1/c(=C\c2[n-]c(=O)[n-]c2[O-])cc(C(=O)[NH+]2CCN(C(=O)N3CCC3)CC2)n1C (nonaromatic ring conformer: 181.2874333486873 kcal/mol)

>  <smiles>  (3165) 
C=c1c(=Cc2[nH]c(=O)[nH]c2O)cc(C(=O)N2CCN(C(=O)N3CCC3)CC2)n1C

>  <score_type>  (3165) 
oracle

>  <origin>  (3165) 
adg

>  <m_score__min__energy>  (3165) 
-16.140000000000001

>  <m_primary>  (3165) 
energy

$$$$
73:0
     RDKit          3D

 31 34  0  0  0  0  0  0  0  0999 V2000
   58.9130   26.4180   47.8490 C   0  0  0  0  0  0  0  0  0  0  0  0
   58.5520   27.2490   46.8690 C   0  0  0  0  0  0  0  0  0  0  0  0
   58.6310   28.5530   47.0110 O   0  0  0  0  0  0  0  0  0  0  0  0
   58.1760   29.1410   45.9270 C   0  0  0  0  0  0  0  0  0  0  0  0
   58.1180   30.6150   45.7490 C   0  0  0  0  0  0  0  0  0  0  0  0
   59.1070   31.4430   46.3130 C   0  0  0  0  0  0  0  0  0  0  0  0
   59.0680   32.8370   46.1430 C   0  0  0  0  0  0  0  0  0  0  0  0
   60.1100   33.7010   46.7410 C   0  0  0  0  0  0  0  0  0  0  0  0
   60.0280   34.9510   46.5890 O   0  0  0  0  0  0  0  0  0  0  0  0
   61.2190   33.1520   47.4810 N   0  0  0  0  0  0  0  0  0  0  0  0
   61.7170   33.8260   48.6840 C   0  0  0  0  0  0  0  0  0  0  0  0
   63.2470   33.7470   48.7190 C   0  0  0  0  0  0  0  0  0  0  0  0
   63.6870   32.4100   48.5620 O   0  0  0  0  0  0  0  0  0  0  0  0
   63.3320   31.9360   47.2770 C   0  0  0  0  0  0  0  0  0  0  0  0
   61.8110   31.8580   47.1280 C   0  0  0  0  0  0  0  0  0  0  0  0
   58.0050   33.4090   45.4300 C   0  0  0  0  0  0  0  0  0  0  0  0
   57.0140   32.6000   44.8730 C   0  0  0  0  0  0  0  0  0  0  0  0
   57.0660   31.2120   45.0230 C   0  0  0  0  0  0  0  0  0  0  0  0
   56.0670   30.4390   44.4400 O   0  0  0  0  0  0  0  0  0  0  0  0
   57.7720   28.1790   45.0160 C   0  0  0  0  0  0  0  0  0  0  0  0
   58.0250   26.9530   45.6040 C   0  0  0  0  0  0  0  0  0  0  0  0
   57.7850   25.7780   44.9930 C   0  0  0  0  0  0  0  0  0  0  0  0
   56.4920   25.0700   44.9870 C   0  0  0  0  0  0  0  0  0  0  0  0
   55.3960   25.5240   45.7480 C   0  0  0  0  0  0  0  0  0  0  0  0
   55.4680   26.6800   46.5270 O   0  0  0  0  0  0  0  0  0  0  0  0
   54.2320   24.8240   45.7290 N   0  0  0  0  0  0  0  0  0  0  0  0
   54.1060   23.6840   45.0050 C   0  0  0  0  0  0  0  0  0  0  0  0
   53.0150   23.0560   45.0040 O   0  0  0  0  0  0  0  0  0  0  0  0
   55.1560   23.2160   44.2830 N   0  0  0  0  0  0  0  0  0  0  0  0
   56.3420   23.8770   44.2630 C   0  0  0  0  0  0  0  0  0  0  0  0
   57.2970   23.4110   43.5860 O   0  0  0  0  0  0  0  0  0  0  0  0
  1  2  2  0
  2  3  1  0
  3  4  1  0
  4  5  1  0
  5  6  2  0
  6  7  1  0
  7  8  1  0
  8  9  2  0
  8 10  1  0
 10 11  1  0
 11 12  1  0
 12 13  1  0
 13 14  1  0
 14 15  1  0
  7 16  2  0
 16 17  1  0
 17 18  2  0
 18 19  1  0
  4 20  2  0
 20 21  1  0
 21 22  2  3
 22 23  1  0
 23 24  2  0
 24 25  1  0
 24 26  1  0
 26 27  1  0
 27 28  2  0
 27 29  1  0
 29 30  1  0
 30 31  2  0
 21  2  1  0
 30 23  1  0
 18  5  1  0
 15 10  1  0
M  CHG  3  19  -1  26  -1  29  -1
M  END
>  <UniqueID>  (3166) 
69

>  <SMILES>  (3166) 
C=c1oc(-c2cc(C(=O)N3CCOCC3)ccc2[O-])cc1=Cc1c(O)[n-]c(=O)[n-]c1=O

>  <Energy>  (3166) 
101.83967539214412

>  <Genealogy>  (3166) 
C=c1oc(-c2cc(C(=O)N3CCOCC3)ccc2[O-])cc1=Cc1c(O)[n-]c(=O)[n-]c1=O (protonated)
C=c1oc(-c2cc(C(=O)N3CCOCC3)ccc2[O-])cc1=Cc1c(O)[n-]c(=O)[n-]c1=O (3D coordinates assigned)
C=c1oc(-c2cc(C(=O)N3CCOCC3)ccc2[O-])cc1=Cc1c(O)[n-]c(=O)[n-]c1=O (nonaromatic ring conformer: 101.83967539214412 kcal/mol)

>  <smiles>  (3166) 
C=c1oc(-c2cc(C(=O)N3CCOCC3)ccc2O)cc1=Cc1c(O)[nH]c(=O)[nH]c1=O

>  <score_type>  (3166) 
oracle

>  <origin>  (3166) 
adg

>  <m_score__min__energy>  (3166) 
-15.25

>  <m_primary>  (3166) 
energy

$$$$
75:0
     RDKit          3D

 28 31  0  0  0  0  0  0  0  0999 V2000
   54.1040   28.3540   53.0790 C   0  0  0  0  0  0  0  0  0  0  0  0
   54.7850   29.4990   52.9180 C   0  0  0  0  0  0  0  0  0  0  0  0
   54.2550   30.7630   52.6050 C   0  0  0  0  0  0  0  0  0  0  0  0
   52.9820   31.2020   52.5390 C   0  0  0  0  0  0  0  0  0  0  0  0
   52.1410   31.2240   51.3350 C   0  0  0  0  0  0  0  0  0  0  0  0
   52.2170   30.3030   50.3580 N   0  0  0  0  0  0  0  0  0  0  0  0
   51.3790   30.7800   49.4120 C   0  0  0  0  0  0  0  0  0  0  0  0
   51.1650   30.1770   48.3290 O   0  0  0  0  0  0  0  0  0  0  0  0
   50.7980   31.9620   49.7130 N   0  0  0  0  0  0  0  0  0  0  0  0
   51.3030   32.2360   50.9260 C   0  0  0  0  0  0  0  0  0  0  0  0
   51.0240   33.4000   51.6330 O   0  0  0  0  0  0  0  0  0  0  0  0
   55.3400   31.5890   52.3730 C   0  0  0  0  0  0  0  0  0  0  0  0
   56.4760   30.8410   52.6060 C   0  0  0  0  0  0  0  0  0  0  0  0
   57.8480   31.3910   52.5740 C   0  0  0  0  0  0  0  0  0  0  0  0
   58.5450   31.3580   53.6240 O   0  0  0  0  0  0  0  0  0  0  0  0
   58.3820   32.0110   51.3860 N   0  0  0  0  0  0  0  0  0  0  0  0
   59.4600   33.0030   51.5180 C   0  0  0  0  0  0  0  0  0  0  0  0
   59.5990   33.8360   50.2400 C   0  0  0  0  0  0  0  0  0  0  0  0
   59.8320   32.9460   48.9980 C   0  0  0  0  0  0  0  0  0  0  0  0
   59.4690   33.7040   47.7500 C   0  0  0  0  0  0  0  0  0  0  0  0
   60.1530   34.7770   47.2960 N   0  0  0  0  0  0  0  0  0  0  0  0
   59.6300   35.2590   46.1380 C   0  0  0  0  0  0  0  0  0  0  0  0
   58.5250   34.5670   45.6570 C   0  0  0  0  0  0  0  0  0  0  0  0
   58.1970   33.3090   46.7220 S   0  0  0  0  0  0  0  0  0  0  0  0
   59.0830   31.5900   49.0630 C   0  0  0  0  0  0  0  0  0  0  0  0
   57.9120   31.6120   50.0500 C   0  0  0  0  0  0  0  0  0  0  0  0
   56.1420   29.5690   52.9320 N   0  0  0  0  0  0  0  0  0  0  0  0
   57.0710   28.4570   53.1770 C   0  0  0  0  0  0  0  0  0  0  0  0
  1  2  2  0
  2  3  1  0
  3  4  2  0
  4  5  1  0
  5  6  1  0
  6  7  1  0
  7  8  2  0
  7  9  1  0
  9 10  1  0
 10 11  1  0
  3 12  1  0
 12 13  2  0
 13 14  1  0
 14 15  2  0
 14 16  1  0
 16 17  1  0
 17 18  1  0
 18 19  1  0
 19 20  1  0
 20 21  2  0
 21 22  1  0
 22 23  2  0
 23 24  1  0
 19 25  1  0
 25 26  1  0
 13 27  1  0
 27 28  1  0
 27  2  1  0
 10  5  2  0
 26 16  1  0
 24 20  1  0
M  CHG  3   6  -1   9  -1  11  -1
M  END
>  <UniqueID>  (3167) 
71

>  <SMILES>  (3167) 
C=c1/c(=C\c2[n-]c(=O)[n-]c2[O-])cc(C(=O)N2CCC(c3nccs3)CC2)n1C

>  <Energy>  (3167) 
155.36033797339638

>  <Genealogy>  (3167) 
C=c1c(=Cc2[n-]c(=O)[n-]c2[O-])cc(C(=O)N2CCC(c3nccs3)CC2)n1C (protonated)
C=c1/c(=C\c2[n-]c(=O)[n-]c2[O-])cc(C(=O)N2CCC(c3nccs3)CC2)n1C (cis-trans isomerization)
C=c1/c(=C\c2[n-]c(=O)[n-]c2[O-])cc(C(=O)N2CCC(c3nccs3)CC2)n1C (3D coordinates assigned)
C=c1/c(=C\c2[n-]c(=O)[n-]c2[O-])cc(C(=O)N2CCC(c3nccs3)CC2)n1C (nonaromatic ring conformer: 155.36033797339638 kcal/mol)

>  <smiles>  (3167) 
C=c1c(=Cc2[nH]c(=O)[nH]c2O)cc(C(=O)N2CCC(c3nccs3)CC2)n1C

>  <score_type>  (3167) 
oracle

>  <origin>  (3167) 
adg

>  <m_score__min__energy>  (3167) 
-17.649999999999999

>  <m_primary>  (3167) 
energy

$$$$
82:0
     RDKit          3D

 29 32  0  0  0  0  0  0  0  0999 V2000
   53.6860   28.4410   53.4330 C   0  0  0  0  0  0  0  0  0  0  0  0
   54.6060   29.3540   53.0610 C   0  0  0  0  0  0  0  0  0  0  0  0
   55.9250   28.9920   53.1490 N   0  0  0  0  0  0  0  0  0  0  0  0
   56.9350   29.8000   52.7430 C   0  0  0  0  0  0  0  0  0  0  0  0
   56.6650   31.0620   52.2140 C   0  0  0  0  0  0  0  0  0  0  0  0
   57.7690   31.9580   51.7890 C   0  0  0  0  0  0  0  0  0  0  0  0
   57.7840   33.1550   52.1890 O   0  0  0  0  0  0  0  0  0  0  0  0
   58.8280   31.4870   50.9350 N   0  0  0  0  0  0  0  0  0  0  0  0
   58.5270   30.7300   49.7110 C   0  0  0  0  0  0  0  0  0  0  0  0
   58.9390   31.5560   48.4890 C   0  0  0  0  0  0  0  0  0  0  0  0
   60.3110   32.0440   48.6650 N   0  0  0  0  0  0  0  0  0  0  0  0
   61.3800   31.4260   47.9290 C   0  0  0  0  0  0  0  0  0  0  0  0
   61.4800   30.1690   47.9300 O   0  0  0  0  0  0  0  0  0  0  0  0
   62.3780   32.2250   47.1210 C   0  0  0  0  0  0  0  0  0  0  0  0
   62.1110   33.7240   46.9820 C   0  0  0  0  0  0  0  0  0  0  0  0
   63.4080   34.0190   47.7250 C   0  0  0  0  0  0  0  0  0  0  0  0
   63.6730   32.5260   47.8720 C   0  0  0  0  0  0  0  0  0  0  0  0
   60.5960   32.8130   49.8820 C   0  0  0  0  0  0  0  0  0  0  0  0
   60.1980   31.9860   51.1060 C   0  0  0  0  0  0  0  0  0  0  0  0
   55.3350   31.4850   52.1380 C   0  0  0  0  0  0  0  0  0  0  0  0
   54.2690   30.6500   52.5480 C   0  0  0  0  0  0  0  0  0  0  0  0
   52.9900   31.1110   52.5000 C   0  0  0  0  0  0  0  0  0  0  0  0
   52.1490   31.1730   51.2880 C   0  0  0  0  0  0  0  0  0  0  0  0
   52.2180   30.2710   50.2930 N   0  0  0  0  0  0  0  0  0  0  0  0
   51.3740   30.7650   49.3620 C   0  0  0  0  0  0  0  0  0  0  0  0
   51.1540   30.1820   48.2690 O   0  0  0  0  0  0  0  0  0  0  0  0
   50.7920   31.9390   49.6900 N   0  0  0  0  0  0  0  0  0  0  0  0
   51.3030   32.1900   50.9050 C   0  0  0  0  0  0  0  0  0  0  0  0
   51.0280   33.3440   51.6320 O   0  0  0  0  0  0  0  0  0  0  0  0
  1  2  2  0
  2  3  1  0
  3  4  2  0
  4  5  1  0
  5  6  1  0
  6  7  2  0
  6  8  1  0
  8  9  1  0
  9 10  1  0
 10 11  1  0
 11 12  1  0
 12 13  2  0
 12 14  1  0
 14 15  1  0
 15 16  1  0
 16 17  1  0
 11 18  1  0
 18 19  1  0
  5 20  2  0
 20 21  1  0
 21 22  2  3
 22 23  1  0
 23 24  1  0
 24 25  1  0
 25 26  2  0
 25 27  1  0
 27 28  1  0
 28 29  1  0
 21  2  1  0
 28 23  2  0
 19  8  1  0
 17 14  1  0
M  CHG  4   3   1  24  -1  27  -1  29  -1
M  END
>  <UniqueID>  (3168) 
76

>  <SMILES>  (3168) 
C=c1[nH+]cc(C(=O)N2CCN(C(=O)C3CCC3)CC2)cc1=Cc1[n-]c(=O)[n-]c1[O-]

>  <Energy>  (3168) 
168.26612490308352

>  <Genealogy>  (3168) 
C=c1[nH+]cc(C(=O)N2CCN(C(=O)C3CCC3)CC2)cc1=Cc1[n-]c(=O)[n-]c1[O-] (protonated)
C=c1[nH+]cc(C(=O)N2CCN(C(=O)C3CCC3)CC2)cc1=Cc1[n-]c(=O)[n-]c1[O-] (3D coordinates assigned)
C=c1[nH+]cc(C(=O)N2CCN(C(=O)C3CCC3)CC2)cc1=Cc1[n-]c(=O)[n-]c1[O-] (nonaromatic ring conformer: 168.26612490308352 kcal/mol)

>  <smiles>  (3168) 
C=c1ncc(C(=O)N2CCN(C(=O)C3CCC3)CC2)cc1=Cc1[nH]c(=O)[nH]c1O

>  <score_type>  (3168) 
oracle

>  <origin>  (3168) 
adg

>  <m_score__min__energy>  (3168) 
-17.079999999999998

>  <m_primary>  (3168) 
energy

$$$$
7:0
     RDKit          3D

 22 24  0  0  0  0  0  0  0  0999 V2000
   55.5690   29.7750   44.9100 O   0  0  0  0  0  0  0  0  0  0  0  0
   56.8270   29.7780   44.8350 C   0  0  0  0  0  0  0  0  0  0  0  0
   57.5810   28.4720   44.7980 C   0  0  0  0  0  0  0  0  0  0  0  0
   57.5870   27.7540   46.1520 C   0  0  0  0  0  0  0  0  0  0  0  0
   57.1760   26.3610   45.9800 N   0  0  0  0  0  0  0  0  0  0  0  0
   57.9820   25.2780   45.9470 C   0  0  0  0  0  0  0  0  0  0  0  0
   59.3700   25.3350   46.0030 O   0  0  0  0  0  0  0  0  0  0  0  0
   57.2310   24.1220   45.8690 C   0  0  0  0  0  0  0  0  0  0  0  0
   55.9140   24.5100   45.8730 C   0  0  0  0  0  0  0  0  0  0  0  0
   55.9100   25.8880   45.9530 C   0  0  0  0  0  0  0  0  0  0  0  0
   54.7740   26.6870   46.0180 O   0  0  0  0  0  0  0  0  0  0  0  0
   54.7620   23.5600   45.8580 C   0  0  0  0  0  0  0  0  0  0  0  0
   55.2230   22.1220   45.7210 C   0  0  0  0  0  0  0  0  0  0  0  0
   56.5190   21.7400   45.7170 C   0  0  0  0  0  0  0  0  0  0  0  0
   57.6860   22.6990   45.8490 C   0  0  0  0  0  0  0  0  0  0  0  0
   57.5020   31.0380   44.7130 N   0  0  0  0  0  0  0  0  0  0  0  0
   56.8890   32.3510   44.8950 C   0  0  0  0  0  0  0  0  0  0  0  0
   57.8470   33.2970   45.5480 C   0  0  0  0  0  0  0  0  0  0  0  0
   58.6620   34.2120   44.8950 C   0  0  0  0  0  0  0  0  0  0  0  0
   59.4500   34.9700   45.7690 C   0  0  0  0  0  0  0  0  0  0  0  0
   59.2600   34.6500   47.1080 C   0  0  0  0  0  0  0  0  0  0  0  0
   58.1110   33.4270   47.2030 S   0  0  0  0  0  0  0  0  0  0  0  0
  1  2  2  0
  2  3  1  0
  3  4  1  0
  4  5  1  0
  5  6  1  0
  6  7  1  0
  6  8  2  0
  8  9  1  0
  9 10  2  0
 10 11  1  0
  9 12  1  0
 12 13  1  0
 13 14  2  0
 14 15  1  0
  2 16  1  0
 16 17  1  0
 17 18  1  0
 18 19  2  0
 19 20  1  0
 20 21  2  0
 21 22  1  0
 10  5  1  0
 22 18  1  0
 15  8  1  0
M  CHG  3   7  -1  11  -1  16  -1
M  END
>  <UniqueID>  (3169) 
8

>  <SMILES>  (3169) 
O=C(CCn1c([O-])c2c(c1[O-])CC=CC2)[N-]Cc1cccs1

>  <Energy>  (3169) 
91.18040925875115

>  <Genealogy>  (3169) 
O=C(CCn1c([O-])c2c(c1[O-])CC=CC2)[N-]Cc1cccs1 (protonated)
O=C(CCn1c([O-])c2c(c1[O-])CC=CC2)[N-]Cc1cccs1 (3D coordinates assigned)
O=C(CCn1c([O-])c2c(c1[O-])CC=CC2)[N-]Cc1cccs1 (nonaromatic ring conformer: 91.18040925875115 kcal/mol)

>  <smiles>  (3169) 
O=C(CCn1c(O)c2c(c1O)CC=CC2)NCc1cccs1

>  <score_type>  (3169) 
oracle

>  <origin>  (3169) 
adg

>  <m_score__min__energy>  (3169) 
-14.460000000000001

>  <m_primary>  (3169) 
energy

$$$$
8:0
     RDKit          3D

 29 31  0  0  0  0  0  0  0  0999 V2000
   59.3340   28.2070   48.6380 C   0  0  0  0  0  0  0  0  0  0  0  0
   59.1090   29.6880   48.5440 C   0  0  0  0  0  0  0  0  0  0  0  0
   58.8540   30.5530   49.5950 C   0  0  0  0  0  0  0  0  0  0  0  0
   58.6280   30.2410   50.9730 N   0  0  0  0  0  0  0  0  0  0  0  0
   57.8490   31.0280   51.8860 C   0  0  0  0  0  0  0  0  0  0  0  0
   58.4520   31.7640   52.7110 O   0  0  0  0  0  0  0  0  0  0  0  0
   56.3410   31.0200   51.8920 C   0  0  0  0  0  0  0  0  0  0  0  0
   55.8070   29.6640   51.9600 N   0  0  0  0  0  0  0  0  0  0  0  0
   54.5340   29.3280   52.5260 C   0  0  0  0  0  0  0  0  0  0  0  0
   54.3930   28.2360   53.1410 O   0  0  0  0  0  0  0  0  0  0  0  0
   53.4020   30.2800   52.4060 C   0  0  0  0  0  0  0  0  0  0  0  0
   53.1960   30.9630   51.1930 C   0  0  0  0  0  0  0  0  0  0  0  0
   52.1460   31.8740   51.0570 C   0  0  0  0  0  0  0  0  0  0  0  0
   51.3000   32.1340   52.1360 C   0  0  0  0  0  0  0  0  0  0  0  0
   50.2670   33.0540   52.0030 O   0  0  0  0  0  0  0  0  0  0  0  0
   51.4930   31.4700   53.3490 C   0  0  0  0  0  0  0  0  0  0  0  0
   52.5380   30.5440   53.4930 C   0  0  0  0  0  0  0  0  0  0  0  0
   52.7220   29.9060   54.7210 O   0  0  0  0  0  0  0  0  0  0  0  0
   58.7810   31.8010   49.0260 C   0  0  0  0  0  0  0  0  0  0  0  0
   58.5240   32.8740   49.6370 O   0  0  0  0  0  0  0  0  0  0  0  0
   58.9640   31.7000   47.6940 N   0  0  0  0  0  0  0  0  0  0  0  0
   58.8610   32.7830   46.7500 C   0  0  0  0  0  0  0  0  0  0  0  0
   57.8130   32.8180   45.8170 C   0  0  0  0  0  0  0  0  0  0  0  0
   57.6880   33.8970   44.9360 C   0  0  0  0  0  0  0  0  0  0  0  0
   58.6070   34.9480   44.9820 C   0  0  0  0  0  0  0  0  0  0  0  0
   59.6510   34.9230   45.9090 C   0  0  0  0  0  0  0  0  0  0  0  0
   59.7770   33.8470   46.7930 C   0  0  0  0  0  0  0  0  0  0  0  0
   59.1810   30.4170   47.4010 N   0  0  0  0  0  0  0  0  0  0  0  0
   59.4410   29.8830   46.0610 C   0  0  0  0  0  0  0  0  0  0  0  0
  1  2  1  0
  2  3  2  0
  3  4  1  0
  4  5  1  0
  5  6  2  0
  5  7  1  0
  7  8  1  0
  8  9  1  0
  9 10  2  0
  9 11  1  0
 11 12  2  0
 12 13  1  0
 13 14  2  0
 14 15  1  0
 14 16  1  0
 16 17  2  0
 17 18  1  0
  3 19  1  0
 19 20  2  0
 19 21  1  0
 21 22  1  0
 22 23  2  0
 23 24  1  0
 24 25  2  0
 25 26  1  0
 26 27  2  0
 21 28  1  0
 28 29  1  0
 28  2  1  0
 17 11  1  0
 27 22  1  0
M  CHG  3   4  -1   8  -1  15  -1
M  END
>  <UniqueID>  (3170) 
9

>  <SMILES>  (3170) 
Cc1c([N-]C(=O)C[N-]C(=O)c2ccc([O-])cc2O)c(=O)n(-c2ccccc2)n1C

>  <Energy>  (3170) 
91.38310727469036

>  <Genealogy>  (3170) 
Cc1c([N-]C(=O)C[N-]C(=O)c2ccc([O-])cc2O)c(=O)n(-c2ccccc2)n1C (protonated)
Cc1c([N-]C(=O)C[N-]C(=O)c2ccc([O-])cc2O)c(=O)n(-c2ccccc2)n1C (3D coordinates assigned)
Cc1c([N-]C(=O)C[N-]C(=O)c2ccc([O-])cc2O)c(=O)n(-c2ccccc2)n1C (optimized conformer: 91.38310727469036 kcal/mol)

>  <smiles>  (3170) 
Cc1c(NC(=O)CNC(=O)c2ccc(O)cc2O)c(=O)n(-c2ccccc2)n1C

>  <score_type>  (3170) 
oracle

>  <origin>  (3170) 
adg

>  <m_score__min__energy>  (3170) 
-14.550000000000001

>  <m_primary>  (3170) 
energy

$$$$
16:0
     RDKit          3D

 32 35  0  0  0  0  0  0  0  0999 V2000
   57.0050   34.2000   45.9760 O   0  0  0  0  0  0  0  0  0  0  0  0
   57.9380   33.5750   45.4070 C   0  0  0  0  0  0  0  0  0  0  0  0
   59.2930   33.8780   45.7670 N   0  0  0  0  0  0  0  0  0  0  0  0
   59.7950   33.7990   46.9650 C   0  0  0  0  0  0  0  0  0  0  0  0
   61.0740   34.1420   47.2300 N   0  0  0  0  0  0  0  0  0  0  0  0
   61.3670   34.0170   48.5510 C   0  0  0  0  0  0  0  0  0  0  0  0
   60.3120   33.5710   49.3420 C   0  0  0  0  0  0  0  0  0  0  0  0
   60.3370   33.4030   50.8270 C   0  0  0  0  0  0  0  0  0  0  0  0
   59.1280   32.6480   51.2800 C   0  0  0  0  0  0  0  0  0  0  0  0
   58.7900   31.0420   50.9000 S   0  0  0  0  0  0  0  0  0  0  0  0
   57.4030   31.0240   51.8480 C   0  0  0  0  0  0  0  0  0  0  0  0
   56.6500   30.0270   51.9840 O   0  0  0  0  0  0  0  0  0  0  0  0
   57.1820   32.2010   52.4690 N   0  0  0  0  0  0  0  0  0  0  0  0
   58.1500   33.1060   52.1590 C   0  0  0  0  0  0  0  0  0  0  0  0
   58.1540   34.3910   52.6910 O   0  0  0  0  0  0  0  0  0  0  0  0
   58.9600   33.3510   48.3640 S   0  0  0  0  0  0  0  0  0  0  0  0
   57.6040   32.5870   44.3590 C   0  0  0  0  0  0  0  0  0  0  0  0
   58.0990   32.7140   43.0520 C   0  0  0  0  0  0  0  0  0  0  0  0
   57.7560   31.7580   42.0940 C   0  0  0  0  0  0  0  0  0  0  0  0
   56.9290   30.6890   42.4410 C   0  0  0  0  0  0  0  0  0  0  0  0
   56.4530   30.5870   43.7560 C   0  0  0  0  0  0  0  0  0  0  0  0
   55.5650   29.4860   44.1660 C   0  0  0  0  0  0  0  0  0  0  0  0
   54.4640   29.3410   43.5740 O   0  0  0  0  0  0  0  0  0  0  0  0
   55.8870   28.6080   45.2520 N   0  0  0  0  0  0  0  0  0  0  0  0
   57.0510   27.7310   45.3010 C   0  0  0  0  0  0  0  0  0  0  0  0
   58.2580   28.5310   45.6890 C   0  0  0  0  0  0  0  0  0  0  0  0
   58.2160   29.3880   46.8030 C   0  0  0  0  0  0  0  0  0  0  0  0
   59.3320   30.1610   47.1390 C   0  0  0  0  0  0  0  0  0  0  0  0
   60.4910   30.0930   46.3610 C   0  0  0  0  0  0  0  0  0  0  0  0
   60.5350   29.2560   45.2430 C   0  0  0  0  0  0  0  0  0  0  0  0
   59.4220   28.4810   44.9040 C   0  0  0  0  0  0  0  0  0  0  0  0
   56.7860   31.5430   44.6660 N   0  0  0  0  0  0  0  0  0  0  0  0
  1  2  2  0
  2  3  1  0
  3  4  2  3
  4  5  1  0
  5  6  1  0
  6  7  2  0
  7  8  1  0
  8  9  1  0
  9 10  1  0
 10 11  1  0
 11 12  2  0
 11 13  1  0
 13 14  1  0
 14 15  1  0
  7 16  1  0
  2 17  1  0
 17 18  2  0
 18 19  1  0
 19 20  2  0
 20 21  1  0
 21 22  1  0
 22 23  2  0
 22 24  1  0
 24 25  1  0
 25 26  1  0
 26 27  2  0
 27 28  1  0
 28 29  2  0
 29 30  1  0
 30 31  2  0
 21 32  2  0
 16  4  1  0
 32 17  1  0
 14  9  2  0
 31 26  1  0
M  CHG  3   5  -1  13  -1  24  -1
M  END
>  <UniqueID>  (3171) 
15

>  <SMILES>  (3171) 
O=C(N=c1[n-]cc(Cc2sc(=O)[n-]c2O)s1)c1cccc(C(=O)[N-]Cc2ccccc2)n1

>  <Energy>  (3171) 
119.70601859860284

>  <Genealogy>  (3171) 
O=C(N=c1[n-]cc(Cc2sc(=O)[n-]c2O)s1)c1cccc(C(=O)[N-]Cc2ccccc2)n1 (protonated)
O=C(N=c1[n-]cc(Cc2sc(=O)[n-]c2O)s1)c1cccc(C(=O)[N-]Cc2ccccc2)n1 (3D coordinates assigned)
O=C(N=c1[n-]cc(Cc2sc(=O)[n-]c2O)s1)c1cccc(C(=O)[N-]Cc2ccccc2)n1 (optimized conformer: 119.70601859860284 kcal/mol)

>  <smiles>  (3171) 
O=C(N=c1[nH]cc(Cc2sc(=O)[nH]c2O)s1)c1cccc(C(=O)NCc2ccccc2)n1

>  <score_type>  (3171) 
oracle

>  <origin>  (3171) 
adg

>  <m_score__min__energy>  (3171) 
-14.720000000000001

>  <m_primary>  (3171) 
energy

$$$$
25:0
     RDKit          3D

 23 25  0  0  0  0  0  0  0  0999 V2000
   60.3720   28.5630   49.1050 C   0  0  0  0  0  0  0  0  0  0  0  0
   59.7800   28.7020   47.9130 C   0  0  0  0  0  0  0  0  0  0  0  0
   59.7650   29.8120   47.0430 C   0  0  0  0  0  0  0  0  0  0  0  0
   60.3110   31.0440   47.1270 C   0  0  0  0  0  0  0  0  0  0  0  0
   59.7460   32.2430   47.8340 C   0  0  0  0  0  0  0  0  0  0  0  0
   58.2330   32.3660   47.6090 C   0  0  0  0  0  0  0  0  0  0  0  0
   57.8880   33.7540   47.2300 N   0  0  0  0  0  0  0  0  0  0  0  0
   59.0780   34.6420   47.1240 C   0  0  0  0  0  0  0  0  0  0  0  0
   59.4790   34.9890   45.6750 C   0  0  0  0  0  0  0  0  0  0  0  0
   59.2260   33.8120   44.7330 C   0  0  0  0  0  0  0  0  0  0  0  0
   57.7510   33.3740   44.7570 C   0  0  0  0  0  0  0  0  0  0  0  0
   57.0160   33.8140   46.0390 C   0  0  0  0  0  0  0  0  0  0  0  0
   59.0120   29.4170   45.9460 C   0  0  0  0  0  0  0  0  0  0  0  0
   58.6130   28.1180   46.1770 C   0  0  0  0  0  0  0  0  0  0  0  0
   57.7160   27.3150   45.2900 C   0  0  0  0  0  0  0  0  0  0  0  0
   57.1800   26.1360   46.0390 C   0  0  0  0  0  0  0  0  0  0  0  0
   57.9490   25.1780   46.5890 N   0  0  0  0  0  0  0  0  0  0  0  0
   57.0530   24.3800   47.2090 C   0  0  0  0  0  0  0  0  0  0  0  0
   57.3900   23.3480   47.8450 O   0  0  0  0  0  0  0  0  0  0  0  0
   55.7660   24.7780   47.1000 N   0  0  0  0  0  0  0  0  0  0  0  0
   55.8660   25.8940   46.3610 C   0  0  0  0  0  0  0  0  0  0  0  0
   54.7820   26.6810   45.9950 O   0  0  0  0  0  0  0  0  0  0  0  0
   59.0680   27.6930   47.3670 N   0  0  0  0  0  0  0  0  0  0  0  0
  1  2  2  0
  2  3  1  0
  3  4  2  0
  4  5  1  0
  5  6  1  0
  6  7  1  0
  7  8  1  0
  8  9  1  0
  9 10  1  0
 10 11  1  0
 11 12  1  0
  3 13  1  0
 13 14  2  0
 14 15  1  0
 15 16  1  0
 16 17  1  0
 17 18  1  0
 18 19  2  0
 18 20  1  0
 20 21  1  0
 21 22  1  0
 14 23  1  0
 23  2  1  0
 12  7  1  0
 21 16  2  0
M  CHG  3  17  -1  20  -1  22  -1
M  END
>  <UniqueID>  (3172) 
24

>  <SMILES>  (3172) 
C=c1[nH]c(Cc2[n-]c(=O)[n-]c2[O-])c/c1=C/CCN1CCCCC1

>  <Energy>  (3172) 
111.04200443146958

>  <Genealogy>  (3172) 
C=c1[nH]c(Cc2[n-]c(=O)[n-]c2[O-])cc1=CCCN1CCCCC1 (protonated)
C=c1[nH]c(Cc2[n-]c(=O)[n-]c2[O-])c/c1=C/CCN1CCCCC1 (cis-trans isomerization)
C=c1[nH]c(Cc2[n-]c(=O)[n-]c2[O-])c/c1=C/CCN1CCCCC1 (3D coordinates assigned)
C=c1[nH]c(Cc2[n-]c(=O)[n-]c2[O-])c/c1=C/CCN1CCCCC1 (nonaromatic ring conformer: 111.04200443146958 kcal/mol)

>  <smiles>  (3172) 
C=c1[nH]c(Cc2[nH]c(=O)[nH]c2O)cc1=CCCN1CCCCC1

>  <score_type>  (3172) 
oracle

>  <origin>  (3172) 
adg

>  <m_score__min__energy>  (3172) 
-16.329999999999998

>  <m_primary>  (3172) 
energy

$$$$
29:0
     RDKit          3D

 34 38  0  0  0  0  0  0  0  0999 V2000
   54.8010   26.3510   45.7430 O   0  0  0  0  0  0  0  0  0  0  0  0
   56.1090   26.4540   46.2050 C   0  0  0  0  0  0  0  0  0  0  0  0
   56.6330   25.6630   47.1560 N   0  0  0  0  0  0  0  0  0  0  0  0
   57.9110   26.0940   47.2280 C   0  0  0  0  0  0  0  0  0  0  0  0
   58.7520   25.5890   48.0150 O   0  0  0  0  0  0  0  0  0  0  0  0
   58.2200   27.0980   46.3790 N   0  0  0  0  0  0  0  0  0  0  0  0
   57.0570   27.3430   45.7510 C   0  0  0  0  0  0  0  0  0  0  0  0
   56.9210   28.2910   44.6350 C   0  0  0  0  0  0  0  0  0  0  0  0
   57.4000   29.5490   44.6100 C   0  0  0  0  0  0  0  0  0  0  0  0
   57.3830   30.3370   43.4700 C   0  0  0  0  0  0  0  0  0  0  0  0
   57.8740   31.5740   43.8310 C   0  0  0  0  0  0  0  0  0  0  0  0
   58.0230   32.7370   42.8960 C   0  0  0  0  0  0  0  0  0  0  0  0
   58.2370   31.5750   45.1320 N   0  0  0  0  0  0  0  0  0  0  0  0
   58.8320   32.6800   45.8360 C   0  0  0  0  0  0  0  0  0  0  0  0
   60.2180   32.7160   46.0430 C   0  0  0  0  0  0  0  0  0  0  0  0
   60.8110   33.8000   46.7120 C   0  0  0  0  0  0  0  0  0  0  0  0
   62.2720   33.8220   46.9380 C   0  0  0  0  0  0  0  0  0  0  0  0
   63.0380   34.0750   45.9680 O   0  0  0  0  0  0  0  0  0  0  0  0
   62.8350   33.5710   48.2390 N   0  0  0  0  0  0  0  0  0  0  0  0
   62.2010   34.1490   49.4330 C   0  0  0  0  0  0  0  0  0  0  0  0
   63.2070   34.2560   50.5810 C   0  0  0  0  0  0  0  0  0  0  0  0
   63.8280   32.9430   50.8490 N   0  0  0  0  0  0  0  0  0  0  0  0
   64.8050   32.9970   51.9570 C   0  0  0  0  0  0  0  0  0  0  0  0
   65.9630   33.9790   51.6840 C   0  0  0  0  0  0  0  0  0  0  0  0
   67.0730   33.4020   50.8180 C   0  0  0  0  0  0  0  0  0  0  0  0
   67.3070   33.6220   52.3030 C   0  0  0  0  0  0  0  0  0  0  0  0
   64.3330   32.2180   49.6520 C   0  0  0  0  0  0  0  0  0  0  0  0
   64.1870   33.0100   48.3440 C   0  0  0  0  0  0  0  0  0  0  0  0
   59.9960   34.8350   47.1990 C   0  0  0  0  0  0  0  0  0  0  0  0
   58.6140   34.8000   46.9950 C   0  0  0  0  0  0  0  0  0  0  0  0
   58.0310   33.7300   46.3110 C   0  0  0  0  0  0  0  0  0  0  0  0
   56.6900   33.7160   46.1080 F   0  0  0  0  0  0  0  0  0  0  0  0
   57.9820   30.3330   45.6200 C   0  0  0  0  0  0  0  0  0  0  0  0
   58.3880   29.9240   46.8330 C   0  0  0  0  0  0  0  0  0  0  0  0
  1  2  1  0
  2  3  1  0
  3  4  1  0
  4  5  2  0
  4  6  1  0
  6  7  1  0
  7  8  1  0
  8  9  2  0
  9 10  1  0
 10 11  2  0
 11 12  1  0
 11 13  1  0
 13 14  1  0
 14 15  2  0
 15 16  1  0
 16 17  1  0
 17 18  2  0
 17 19  1  0
 19 20  1  0
 20 21  1  0
 21 22  1  0
 22 23  1  0
 23 24  1  0
 24 25  1  0
 25 26  1  0
 22 27  1  0
 27 28  1  0
 16 29  2  0
 29 30  1  0
 30 31  2  0
 31 32  1  0
 13 33  1  0
 33 34  2  0
  7  2  2  0
 33  9  1  0
 31 14  1  0
 28 19  1  0
 26 24  1  0
M  CHG  2   3  -1   6  -1
M  END
>  <UniqueID>  (3173) 
27

>  <SMILES>  (3173) 
C=c1/c(=C\c2[n-]c(=O)[n-]c2O)cc(C)n1-c1cc(C(=O)N2CCN(CC3CC3)CC2)ccc1F

>  <Energy>  (3173) 
414.4383693941927

>  <Genealogy>  (3173) 
C=c1c(=Cc2[n-]c(=O)[n-]c2O)cc(C)n1-c1cc(C(=O)N2CCN(CC3CC3)CC2)ccc1F (protonated)
C=c1/c(=C\c2[n-]c(=O)[n-]c2O)cc(C)n1-c1cc(C(=O)N2CCN(CC3CC3)CC2)ccc1F (cis-trans isomerization)
C=c1/c(=C\c2[n-]c(=O)[n-]c2O)cc(C)n1-c1cc(C(=O)N2CCN(CC3CC3)CC2)ccc1F (3D coordinates assigned)
C=c1/c(=C\c2[n-]c(=O)[n-]c2O)cc(C)n1-c1cc(C(=O)N2CCN(CC3CC3)CC2)ccc1F (nonaromatic ring conformer: 414.4383693941927 kcal/mol)

>  <smiles>  (3173) 
C=c1c(=Cc2[nH]c(=O)[nH]c2O)cc(C)n1-c1cc(C(=O)N2CCN(CC3CC3)CC2)ccc1F

>  <score_type>  (3173) 
oracle

>  <origin>  (3173) 
adg

>  <m_score__min__energy>  (3173) 
-14.390000000000001

>  <m_primary>  (3173) 
energy

$$$$
40:0
     RDKit          3D

 25 27  0  0  0  0  0  0  0  0999 V2000
   56.2190   28.8190   55.1050 C   0  0  0  0  0  0  0  0  0  0  0  0
   55.3570   29.4260   54.2870 C   0  0  0  0  0  0  0  0  0  0  0  0
   53.7010   29.4690   54.5610 S   0  0  0  0  0  0  0  0  0  0  0  0
   53.3580   30.3700   53.1820 C   0  0  0  0  0  0  0  0  0  0  0  0
   52.1080   30.7300   52.8420 C   0  0  0  0  0  0  0  0  0  0  0  0
   51.6200   30.9850   51.4740 C   0  0  0  0  0  0  0  0  0  0  0  0
   51.6780   30.1160   50.4490 N   0  0  0  0  0  0  0  0  0  0  0  0
   51.2320   30.8370   49.3980 C   0  0  0  0  0  0  0  0  0  0  0  0
   51.1280   30.3550   48.2400 O   0  0  0  0  0  0  0  0  0  0  0  0
   50.9150   32.1180   49.6830 N   0  0  0  0  0  0  0  0  0  0  0  0
   51.1780   32.1970   50.9980 C   0  0  0  0  0  0  0  0  0  0  0  0
   51.0210   33.3560   51.7480 O   0  0  0  0  0  0  0  0  0  0  0  0
   54.5740   30.5940   52.5150 C   0  0  0  0  0  0  0  0  0  0  0  0
   54.6540   31.1860   51.4070 O   0  0  0  0  0  0  0  0  0  0  0  0
   55.6790   30.0810   53.1380 N   0  0  0  0  0  0  0  0  0  0  0  0
   57.3050   30.2520   52.5220 S   0  0  0  0  0  0  0  0  0  0  0  0
   57.3290   30.1280   51.0240 O   0  0  0  0  0  0  0  0  0  0  0  0
   58.1640   29.1620   53.1020 O   0  0  0  0  0  0  0  0  0  0  0  0
   57.9350   31.8390   52.9580 C   0  0  0  0  0  0  0  0  0  0  0  0
   57.9740   32.8730   52.0100 C   0  0  0  0  0  0  0  0  0  0  0  0
   58.4830   34.1280   52.3570 C   0  0  0  0  0  0  0  0  0  0  0  0
   58.9530   34.3590   53.6530 C   0  0  0  0  0  0  0  0  0  0  0  0
   58.9130   33.3350   54.6030 C   0  0  0  0  0  0  0  0  0  0  0  0
   58.4050   32.0770   54.2600 C   0  0  0  0  0  0  0  0  0  0  0  0
   58.3700   31.0970   55.1980 F   0  0  0  0  0  0  0  0  0  0  0  0
  1  2  2  0
  2  3  1  0
  3  4  1  0
  4  5  2  3
  5  6  1  0
  6  7  1  0
  7  8  1  0
  8  9  2  0
  8 10  1  0
 10 11  1  0
 11 12  1  0
  4 13  1  0
 13 14  2  0
 13 15  1  0
 15 16  1  0
 16 17  2  0
 16 18  2  0
 16 19  1  0
 19 20  2  0
 20 21  1  0
 21 22  2  0
 22 23  1  0
 23 24  2  0
 24 25  1  0
 15  2  1  0
 24 19  1  0
 11  6  2  0
M  CHG  3   7  -1  10  -1  12  -1
M  END
>  <UniqueID>  (3174) 
38

>  <SMILES>  (3174) 
C=c1sc(=Cc2[n-]c(=O)[n-]c2[O-])c(=O)n1S(=O)(=O)c1ccccc1F

>  <Energy>  (3174) 
105.79575391349576

>  <Genealogy>  (3174) 
C=c1sc(=Cc2[n-]c(=O)[n-]c2[O-])c(=O)n1S(=O)(=O)c1ccccc1F (protonated)
C=c1sc(=Cc2[n-]c(=O)[n-]c2[O-])c(=O)n1S(=O)(=O)c1ccccc1F (3D coordinates assigned)
C=c1sc(=Cc2[n-]c(=O)[n-]c2[O-])c(=O)n1S(=O)(=O)c1ccccc1F (optimized conformer: 105.79575391349576 kcal/mol)

>  <smiles>  (3174) 
C=c1sc(=Cc2[nH]c(=O)[nH]c2O)c(=O)n1S(=O)(=O)c1ccccc1F

>  <score_type>  (3174) 
oracle

>  <origin>  (3174) 
adg

>  <m_score__min__energy>  (3174) 
-16.18

>  <m_primary>  (3174) 
energy

$$$$
45:0
     RDKit          3D

 29 31  0  0  0  0  0  0  0  0999 V2000
   55.5720   30.6080   51.3050 O   0  0  0  0  0  0  0  0  0  0  0  0
   56.1150   30.8640   52.4110 C   0  0  0  0  0  0  0  0  0  0  0  0
   55.8850   29.9190   53.5640 C   0  0  0  0  0  0  0  0  0  0  0  0
   54.8260   28.9530   53.2780 N   0  0  0  0  0  0  0  0  0  0  0  0
   53.4150   29.1960   53.3590 C   0  0  0  0  0  0  0  0  0  0  0  0
   52.7750   28.7300   54.3390 O   0  0  0  0  0  0  0  0  0  0  0  0
   52.6990   30.0110   52.3610 C   0  0  0  0  0  0  0  0  0  0  0  0
   52.6780   29.6370   51.0090 C   0  0  0  0  0  0  0  0  0  0  0  0
   51.9920   30.4150   50.0730 C   0  0  0  0  0  0  0  0  0  0  0  0
   51.3130   31.5670   50.4790 C   0  0  0  0  0  0  0  0  0  0  0  0
   50.6350   32.3310   49.5360 O   0  0  0  0  0  0  0  0  0  0  0  0
   51.3160   31.9430   51.8330 C   0  0  0  0  0  0  0  0  0  0  0  0
   50.6450   33.0860   52.2670 O   0  0  0  0  0  0  0  0  0  0  0  0
   52.0030   31.1600   52.7680 C   0  0  0  0  0  0  0  0  0  0  0  0
   56.8890   32.0670   52.5340 N   0  0  0  0  0  0  0  0  0  0  0  0
   58.1910   32.3060   51.9850 C   0  0  0  0  0  0  0  0  0  0  0  0
   58.6500   31.4890   50.9460 C   0  0  0  0  0  0  0  0  0  0  0  0
   59.9150   31.6980   50.3890 C   0  0  0  0  0  0  0  0  0  0  0  0
   60.7450   32.7120   50.8860 C   0  0  0  0  0  0  0  0  0  0  0  0
   62.3390   32.9870   50.1710 S   0  0  0  0  0  0  0  0  0  0  0  0
   63.3210   32.0270   50.7850 O   0  0  0  0  0  0  0  0  0  0  0  0
   62.7870   34.3830   50.5000 O   0  0  0  0  0  0  0  0  0  0  0  0
   62.3530   32.7800   48.4360 N   0  0  0  0  0  0  0  0  0  0  0  0
   63.6090   33.2280   47.8390 C   0  0  0  0  0  0  0  0  0  0  0  0
   63.2930   33.5830   46.3950 C   0  0  0  0  0  0  0  0  0  0  0  0
   61.7870   33.8060   46.3570 C   0  0  0  0  0  0  0  0  0  0  0  0
   61.3080   33.5610   47.7800 C   0  0  0  0  0  0  0  0  0  0  0  0
   60.2960   33.5160   51.9420 C   0  0  0  0  0  0  0  0  0  0  0  0
   59.0310   33.3070   52.4980 C   0  0  0  0  0  0  0  0  0  0  0  0
  1  2  2  0
  2  3  1  0
  3  4  1  0
  4  5  1  0
  5  6  2  0
  5  7  1  0
  7  8  2  0
  8  9  1  0
  9 10  2  0
 10 11  1  0
 10 12  1  0
 12 13  1  0
 12 14  2  0
  2 15  1  0
 15 16  1  0
 16 17  2  0
 17 18  1  0
 18 19  2  0
 19 20  1  0
 20 21  2  0
 20 22  2  0
 20 23  1  0
 23 24  1  0
 24 25  1  0
 25 26  1  0
 26 27  1  0
 19 28  1  0
 28 29  2  0
 14  7  1  0
 29 16  1  0
 27 23  1  0
M  CHG  3   4  -1  11  -1  15  -1
M  END
>  <UniqueID>  (3175) 
42

>  <SMILES>  (3175) 
O=C(C[N-]C(=O)c1ccc([O-])c(O)c1)[N-]c1ccc(S(=O)(=O)N2CCCC2)cc1

>  <Energy>  (3175) 
57.27347734946177

>  <Genealogy>  (3175) 
O=C(C[N-]C(=O)c1ccc([O-])c(O)c1)[N-]c1ccc(S(=O)(=O)N2CCCC2)cc1 (protonated)
O=C(C[N-]C(=O)c1ccc([O-])c(O)c1)[N-]c1ccc(S(=O)(=O)N2CCCC2)cc1 (3D coordinates assigned)
O=C(C[N-]C(=O)c1ccc([O-])c(O)c1)[N-]c1ccc(S(=O)(=O)N2CCCC2)cc1 (nonaromatic ring conformer: 57.27347734946177 kcal/mol)

>  <smiles>  (3175) 
O=C(CNC(=O)c1ccc(O)c(O)c1)Nc1ccc(S(=O)(=O)N2CCCC2)cc1

>  <score_type>  (3175) 
oracle

>  <origin>  (3175) 
adg

>  <m_score__min__energy>  (3175) 
-14.85

>  <m_primary>  (3175) 
energy

$$$$
47:0
     RDKit          3D

 27 29  0  0  0  0  0  0  0  0999 V2000
   60.5050   27.4600   51.7670 C   0  0  0  0  0  0  0  0  0  0  0  0
   60.3950   28.3460   50.9570 C   0  0  0  0  0  0  0  0  0  0  0  0
   60.2640   29.4050   49.9900 C   0  0  0  0  0  0  0  0  0  0  0  0
   61.1170   29.4500   48.8820 C   0  0  0  0  0  0  0  0  0  0  0  0
   60.9930   30.4800   47.9440 C   0  0  0  0  0  0  0  0  0  0  0  0
   60.0220   31.4800   48.1100 C   0  0  0  0  0  0  0  0  0  0  0  0
   59.9220   32.5660   47.1110 C   0  0  0  0  0  0  0  0  0  0  0  0
   59.1350   32.6070   46.0310 C   0  0  0  0  0  0  0  0  0  0  0  0
   58.1030   31.6220   45.6350 C   0  0  0  0  0  0  0  0  0  0  0  0
   56.9980   32.0110   44.8580 C   0  0  0  0  0  0  0  0  0  0  0  0
   56.0290   31.0760   44.4900 C   0  0  0  0  0  0  0  0  0  0  0  0
   56.1530   29.7410   44.8860 C   0  0  0  0  0  0  0  0  0  0  0  0
   55.1750   28.8250   44.5100 O   0  0  0  0  0  0  0  0  0  0  0  0
   57.2570   29.3340   45.6530 C   0  0  0  0  0  0  0  0  0  0  0  0
   57.4200   27.6490   46.1520 S   0  0  0  0  0  0  0  0  0  0  0  0
   55.9210   26.8270   45.9070 N   0  0  0  0  0  0  0  0  0  0  0  0
   58.4900   26.9640   45.3500 O   0  0  0  0  0  0  0  0  0  0  0  0
   57.7930   27.5950   47.6080 O   0  0  0  0  0  0  0  0  0  0  0  0
   58.2280   30.2780   46.0200 C   0  0  0  0  0  0  0  0  0  0  0  0
   59.4280   33.8610   45.3320 C   0  0  0  0  0  0  0  0  0  0  0  0
   58.8580   34.2530   44.2800 O   0  0  0  0  0  0  0  0  0  0  0  0
   60.4230   34.6250   46.0020 N   0  0  0  0  0  0  0  0  0  0  0  0
   60.7160   33.7950   47.1190 C   0  0  0  0  0  0  0  0  0  0  0  0
   61.5760   34.0930   47.9890 O   0  0  0  0  0  0  0  0  0  0  0  0
   59.1490   31.4170   49.2150 C   0  0  0  0  0  0  0  0  0  0  0  0
   58.1400   32.3600   49.3800 O   0  0  0  0  0  0  0  0  0  0  0  0
   59.2800   30.3880   50.1530 C   0  0  0  0  0  0  0  0  0  0  0  0
  1  2  3  0
  2  3  1  0
  3  4  2  0
  4  5  1  0
  5  6  2  0
  6  7  1  0
  7  8  2  0
  8  9  1  0
  9 10  2  0
 10 11  1  0
 11 12  2  0
 12 13  1  0
 12 14  1  0
 14 15  1  0
 15 16  1  0
 15 17  2  0
 15 18  2  0
 14 19  2  0
  8 20  1  0
 20 21  2  0
 20 22  1  0
 22 23  1  0
 23 24  2  0
  6 25  1  0
 25 26  1  0
 25 27  2  0
 27  3  1  0
 23  7  1  0
 19  9  1  0
M  CHG  4  13  -1  16  -1  22  -1  26  -1
M  END
>  <UniqueID>  (3176) 
44

>  <SMILES>  (3176) 
C#Cc1ccc(C2=C(c3ccc([O-])c(S([NH-])(=O)=O)c3)C(=O)[N-]C2=O)c([O-])c1

>  <Energy>  (3176) 
71.4733487871752

>  <Genealogy>  (3176) 
C#Cc1ccc(C2=C(c3ccc([O-])c(S([NH-])(=O)=O)c3)C(=O)[N-]C2=O)c([O-])c1 (protonated)
C#Cc1ccc(C2=C(c3ccc([O-])c(S([NH-])(=O)=O)c3)C(=O)[N-]C2=O)c([O-])c1 (3D coordinates assigned)
C#Cc1ccc(C2=C(c3ccc([O-])c(S([NH-])(=O)=O)c3)C(=O)[N-]C2=O)c([O-])c1 (nonaromatic ring conformer: 71.4733487871752 kcal/mol)

>  <smiles>  (3176) 
C#Cc1ccc(C2=C(c3ccc(O)c(S(N)(=O)=O)c3)C(=O)NC2=O)c(O)c1

>  <score_type>  (3176) 
oracle

>  <origin>  (3176) 
adg

>  <m_score__min__energy>  (3176) 
-14.789999999999999

>  <m_primary>  (3176) 
energy

$$$$
57:0
     RDKit          3D

 24 26  0  0  0  0  0  0  0  0999 V2000
   56.6320   29.2780   42.8770 C   0  0  0  0  0  0  0  0  0  0  0  0
   57.3400   29.3560   44.0160 C   0  0  0  0  0  0  0  0  0  0  0  0
   57.7750   28.2760   44.7910 C   0  0  0  0  0  0  0  0  0  0  0  0
   57.5150   26.9690   44.5900 C   0  0  0  0  0  0  0  0  0  0  0  0
   57.1170   26.0320   45.6570 C   0  0  0  0  0  0  0  0  0  0  0  0
   57.9820   25.2010   46.2650 N   0  0  0  0  0  0  0  0  0  0  0  0
   57.2310   24.6090   47.2190 C   0  0  0  0  0  0  0  0  0  0  0  0
   57.6930   23.7420   48.0050 O   0  0  0  0  0  0  0  0  0  0  0  0
   55.9500   25.0310   47.2750 N   0  0  0  0  0  0  0  0  0  0  0  0
   55.8960   25.9410   46.2890 C   0  0  0  0  0  0  0  0  0  0  0  0
   54.7710   26.7090   46.0150 O   0  0  0  0  0  0  0  0  0  0  0  0
   58.5020   28.8180   45.8400 C   0  0  0  0  0  0  0  0  0  0  0  0
   58.5060   30.1850   45.6550 C   0  0  0  0  0  0  0  0  0  0  0  0
   59.2680   31.1190   46.5130 C   0  0  0  0  0  0  0  0  0  0  0  0
   60.5210   31.1540   46.3650 O   0  0  0  0  0  0  0  0  0  0  0  0
   58.6090   31.9590   47.5080 N   0  0  0  0  0  0  0  0  0  0  0  0
   57.6490   32.9140   46.8990 C   0  0  0  0  0  0  0  0  0  0  0  0
   58.3450   33.9860   46.0500 C   0  0  0  0  0  0  0  0  0  0  0  0
   59.4350   34.6350   46.8470 C   0  0  0  0  0  0  0  0  0  0  0  0
   59.6350   35.8360   46.7540 O   0  0  0  0  0  0  0  0  0  0  0  0
   60.3550   33.7770   47.6630 C   0  0  0  0  0  0  0  0  0  0  0  0
   59.5610   32.6770   48.3940 C   0  0  0  0  0  0  0  0  0  0  0  0
   57.7730   30.5200   44.5670 N   0  0  0  0  0  0  0  0  0  0  0  0
   57.4900   31.8800   44.0980 C   0  0  0  0  0  0  0  0  0  0  0  0
  1  2  2  0
  2  3  1  0
  3  4  2  0
  4  5  1  0
  5  6  1  0
  6  7  1  0
  7  8  2  0
  7  9  1  0
  9 10  1  0
 10 11  1  0
  3 12  1  0
 12 13  2  0
 13 14  1  0
 14 15  2  0
 14 16  1  0
 16 17  1  0
 17 18  1  0
 18 19  1  0
 19 20  2  0
 19 21  1  0
 21 22  1  0
 13 23  1  0
 23 24  1  0
 23  2  1  0
 10  5  2  0
 22 16  1  0
M  CHG  4   6  -1   9  -1  11  -1  16   1
M  END
>  <UniqueID>  (3177) 
53

>  <SMILES>  (3177) 
C=c1/c(=C/c2[n-]c(=O)[n-]c2[O-])cc(C(=O)[NH+]2CCC(=O)CC2)n1C

>  <Energy>  (3177) 
118.03894901822814

>  <Genealogy>  (3177) 
C=c1c(=Cc2[n-]c(=O)[n-]c2[O-])cc(C(=O)[NH+]2CCC(=O)CC2)n1C (protonated)
C=c1/c(=C/c2[n-]c(=O)[n-]c2[O-])cc(C(=O)[NH+]2CCC(=O)CC2)n1C (cis-trans isomerization)
C=c1/c(=C/c2[n-]c(=O)[n-]c2[O-])cc(C(=O)[NH+]2CCC(=O)CC2)n1C (3D coordinates assigned)
C=c1/c(=C/c2[n-]c(=O)[n-]c2[O-])cc(C(=O)[NH+]2CCC(=O)CC2)n1C (nonaromatic ring conformer: 118.03894901822814 kcal/mol)

>  <smiles>  (3177) 
C=c1c(=Cc2[nH]c(=O)[nH]c2O)cc(C(=O)N2CCC(=O)CC2)n1C

>  <score_type>  (3177) 
oracle

>  <origin>  (3177) 
adg

>  <m_score__min__energy>  (3177) 
-15.300000000000001

>  <m_primary>  (3177) 
energy

$$$$
63:0
     RDKit          3D

 33 36  0  0  0  0  0  0  0  0999 V2000
   58.7650   29.4460   44.4080 C   0  0  0  0  0  0  0  0  0  0  0  0
   59.0340   29.0450   45.6610 C   0  0  0  0  0  0  0  0  0  0  0  0
   58.7250   27.7950   46.2080 C   0  0  0  0  0  0  0  0  0  0  0  0
   58.1010   26.7670   45.6000 C   0  0  0  0  0  0  0  0  0  0  0  0
   57.2920   25.7610   46.3120 C   0  0  0  0  0  0  0  0  0  0  0  0
   57.8030   24.6250   46.8190 N   0  0  0  0  0  0  0  0  0  0  0  0
   56.7180   23.9790   47.2970 C   0  0  0  0  0  0  0  0  0  0  0  0
   56.7940   22.8600   47.8680 O   0  0  0  0  0  0  0  0  0  0  0  0
   55.5460   24.6180   47.1020 N   0  0  0  0  0  0  0  0  0  0  0  0
   55.9230   25.7390   46.4670 C   0  0  0  0  0  0  0  0  0  0  0  0
   55.0310   26.6950   45.9960 O   0  0  0  0  0  0  0  0  0  0  0  0
   59.2620   27.7860   47.4870 C   0  0  0  0  0  0  0  0  0  0  0  0
   59.8560   29.0170   47.6760 C   0  0  0  0  0  0  0  0  0  0  0  0
   60.6550   29.3890   48.8870 C   0  0  0  0  0  0  0  0  0  0  0  0
   59.6900   29.8010   46.5830 N   0  0  0  0  0  0  0  0  0  0  0  0
   60.2210   31.1650   46.4190 C   0  0  0  0  0  0  0  0  0  0  0  0
   59.1320   32.2030   46.2240 C   0  0  0  0  0  0  0  0  0  0  0  0
   58.8480   32.6280   44.9110 C   0  0  0  0  0  0  0  0  0  0  0  0
   57.9010   33.6250   44.6700 C   0  0  0  0  0  0  0  0  0  0  0  0
   57.2320   34.2260   45.7330 C   0  0  0  0  0  0  0  0  0  0  0  0
   57.5090   33.8330   47.0430 C   0  0  0  0  0  0  0  0  0  0  0  0
   58.4550   32.8300   47.3040 C   0  0  0  0  0  0  0  0  0  0  0  0
   58.6890   32.4690   48.7150 C   0  0  0  0  0  0  0  0  0  0  0  0
   58.1990   31.3930   49.1500 O   0  0  0  0  0  0  0  0  0  0  0  0
   59.3540   33.3780   49.6160 N   0  0  0  0  0  0  0  0  0  0  0  0
   59.2560   33.1760   51.0650 C   0  0  0  0  0  0  0  0  0  0  0  0
   60.1590   34.4880   49.0860 C   0  0  0  0  0  0  0  0  0  0  0  0
   61.4920   33.9920   48.5910 C   0  0  0  0  0  0  0  0  0  0  0  0
   61.7530   33.9250   47.2120 C   0  0  0  0  0  0  0  0  0  0  0  0
   62.9890   33.4640   46.7500 C   0  0  0  0  0  0  0  0  0  0  0  0
   63.9710   33.0640   47.6590 C   0  0  0  0  0  0  0  0  0  0  0  0
   63.7180   33.1200   49.0320 C   0  0  0  0  0  0  0  0  0  0  0  0
   62.4830   33.5790   49.4980 C   0  0  0  0  0  0  0  0  0  0  0  0
  1  2  2  0
  2  3  1  0
  3  4  2  0
  4  5  1  0
  5  6  1  0
  6  7  1  0
  7  8  2  0
  7  9  1  0
  9 10  1  0
 10 11  1  0
  3 12  1  0
 12 13  2  0
 13 14  1  0
 13 15  1  0
 15 16  1  0
 16 17  1  0
 17 18  2  0
 18 19  1  0
 19 20  2  0
 20 21  1  0
 21 22  2  0
 22 23  1  0
 23 24  2  0
 23 25  1  0
 25 26  1  0
 25 27  1  0
 27 28  1  0
 28 29  2  0
 29 30  1  0
 30 31  2  0
 31 32  1  0
 32 33  2  0
 15  2  1  0
 22 17  1  0
 33 28  1  0
 10  5  2  0
M  CHG  3   6  -1   9  -1  11  -1
M  END
>  <UniqueID>  (3178) 
59

>  <SMILES>  (3178) 
C=c1/c(=C/c2[n-]c(=O)[n-]c2[O-])cc(C)n1Cc1ccccc1C(=O)N(C)Cc1ccccc1

>  <Energy>  (3178) 
127.09901445252198

>  <Genealogy>  (3178) 
C=c1c(=Cc2[n-]c(=O)[n-]c2[O-])cc(C)n1Cc1ccccc1C(=O)N(C)Cc1ccccc1 (protonated)
C=c1/c(=C/c2[n-]c(=O)[n-]c2[O-])cc(C)n1Cc1ccccc1C(=O)N(C)Cc1ccccc1 (cis-trans isomerization)
C=c1/c(=C/c2[n-]c(=O)[n-]c2[O-])cc(C)n1Cc1ccccc1C(=O)N(C)Cc1ccccc1 (3D coordinates assigned)
C=c1/c(=C/c2[n-]c(=O)[n-]c2[O-])cc(C)n1Cc1ccccc1C(=O)N(C)Cc1ccccc1 (optimized conformer: 127.09901445252198 kcal/mol)

>  <smiles>  (3178) 
C=c1c(=Cc2[nH]c(=O)[nH]c2O)cc(C)n1Cc1ccccc1C(=O)N(C)Cc1ccccc1

>  <score_type>  (3178) 
oracle

>  <origin>  (3178) 
adg

>  <m_score__min__energy>  (3178) 
-18.010000000000002

>  <m_primary>  (3178) 
energy

$$$$
68:0
     RDKit          3D

 28 30  0  0  0  0  0  0  0  0999 V2000
   54.0150   28.7250   54.2550 C   0  0  0  0  0  0  0  0  0  0  0  0
   54.4380   29.7800   53.5370 C   0  0  0  0  0  0  0  0  0  0  0  0
   53.7140   30.4470   52.5360 C   0  0  0  0  0  0  0  0  0  0  0  0
   52.4090   30.3980   52.2030 C   0  0  0  0  0  0  0  0  0  0  0  0
   51.8340   30.8440   50.9230 C   0  0  0  0  0  0  0  0  0  0  0  0
   51.7230   30.0770   49.8220 N   0  0  0  0  0  0  0  0  0  0  0  0
   51.0220   30.8570   48.9700 C   0  0  0  0  0  0  0  0  0  0  0  0
   50.7240   30.4880   47.8040 O   0  0  0  0  0  0  0  0  0  0  0  0
   50.6570   32.0580   49.4690 N   0  0  0  0  0  0  0  0  0  0  0  0
   51.1670   32.0250   50.7100 C   0  0  0  0  0  0  0  0  0  0  0  0
   51.0220   33.0540   51.6330 O   0  0  0  0  0  0  0  0  0  0  0  0
   54.6230   31.2480   51.8720 C   0  0  0  0  0  0  0  0  0  0  0  0
   55.8270   31.1230   52.5310 C   0  0  0  0  0  0  0  0  0  0  0  0
   57.0680   31.7870   52.0740 C   0  0  0  0  0  0  0  0  0  0  0  0
   57.0650   33.0490   52.0410 O   0  0  0  0  0  0  0  0  0  0  0  0
   58.2410   31.0490   51.6170 N   0  0  0  0  0  0  0  0  0  0  0  0
   59.5270   31.6090   52.0970 C   0  0  0  0  0  0  0  0  0  0  0  0
   59.8450   32.9740   51.4660 C   0  0  0  0  0  0  0  0  0  0  0  0
   59.7180   32.9210   50.0020 N   0  0  0  0  0  0  0  0  0  0  0  0
   60.5160   33.8180   49.1940 C   0  0  0  0  0  0  0  0  0  0  0  0
   60.1810   34.1030   47.7590 C   0  0  0  0  0  0  0  0  0  0  0  0
   61.5370   34.3700   49.6870 O   0  0  0  0  0  0  0  0  0  0  0  0
   58.5330   32.2560   49.4420 C   0  0  0  0  0  0  0  0  0  0  0  0
   58.2830   30.9130   50.1420 C   0  0  0  0  0  0  0  0  0  0  0  0
   55.7210   30.2370   53.5520 N   0  0  0  0  0  0  0  0  0  0  0  0
   56.8370   29.7120   54.3560 C   0  0  0  0  0  0  0  0  0  0  0  0
   57.3480   28.3960   53.7660 C   0  0  0  0  0  0  0  0  0  0  0  0
   58.8700   28.3950   53.6530 C   0  0  0  0  0  0  0  0  0  0  0  0
  1  2  2  0
  2  3  1  0
  3  4  2  3
  4  5  1  0
  5  6  1  0
  6  7  1  0
  7  8  2  0
  7  9  1  0
  9 10  1  0
 10 11  1  0
  3 12  1  0
 12 13  2  0
 13 14  1  0
 14 15  2  0
 14 16  1  0
 16 17  1  0
 17 18  1  0
 18 19  1  0
 19 20  1  0
 20 21  1  0
 20 22  2  0
 19 23  1  0
 23 24  1  0
 13 25  1  0
 25 26  1  0
 26 27  1  0
 27 28  1  0
 25  2  1  0
 10  5  2  0
 24 16  1  0
M  CHG  4   6  -1   9  -1  11  -1  16   1
M  END
>  <UniqueID>  (3179) 
64

>  <SMILES>  (3179) 
C=c1c(=Cc2[n-]c(=O)[n-]c2[O-])cc(C(=O)[NH+]2CCN(C(C)=O)CC2)n1CCC

>  <Energy>  (3179) 
128.81472799022222

>  <Genealogy>  (3179) 
C=c1c(=Cc2[n-]c(=O)[n-]c2[O-])cc(C(=O)[NH+]2CCN(C(C)=O)CC2)n1CCC (protonated)
C=c1c(=Cc2[n-]c(=O)[n-]c2[O-])cc(C(=O)[NH+]2CCN(C(C)=O)CC2)n1CCC (3D coordinates assigned)
C=c1c(=Cc2[n-]c(=O)[n-]c2[O-])cc(C(=O)[NH+]2CCN(C(C)=O)CC2)n1CCC (nonaromatic ring conformer: 128.81472799022222 kcal/mol)

>  <smiles>  (3179) 
C=c1c(=Cc2[nH]c(=O)[nH]c2O)cc(C(=O)N2CCN(C(C)=O)CC2)n1CCC

>  <score_type>  (3179) 
oracle

>  <origin>  (3179) 
adg

>  <m_score__min__energy>  (3179) 
-15.24

>  <m_primary>  (3179) 
energy

$$$$
74:0
     RDKit          3D

 30 33  0  0  0  0  0  0  0  0999 V2000
   59.4710   27.8400   47.0790 C   0  0  0  0  0  0  0  0  0  0  0  0
   58.9120   28.5860   46.1120 C   0  0  0  0  0  0  0  0  0  0  0  0
   58.0030   28.1600   45.1310 C   0  0  0  0  0  0  0  0  0  0  0  0
   57.6090   26.9230   44.7690 C   0  0  0  0  0  0  0  0  0  0  0  0
   57.0900   25.8880   45.6750 C   0  0  0  0  0  0  0  0  0  0  0  0
   57.8530   24.9230   46.2160 N   0  0  0  0  0  0  0  0  0  0  0  0
   57.0080   24.2930   47.0610 C   0  0  0  0  0  0  0  0  0  0  0  0
   57.3560   23.3020   47.7530 O   0  0  0  0  0  0  0  0  0  0  0  0
   55.7650   24.8160   47.1140 N   0  0  0  0  0  0  0  0  0  0  0  0
   55.8360   25.8340   46.2420 C   0  0  0  0  0  0  0  0  0  0  0  0
   54.7880   26.7120   45.9920 O   0  0  0  0  0  0  0  0  0  0  0  0
   57.5340   29.3060   44.5130 C   0  0  0  0  0  0  0  0  0  0  0  0
   58.2070   30.3720   45.0760 C   0  0  0  0  0  0  0  0  0  0  0  0
   58.0500   31.8010   44.6300 C   0  0  0  0  0  0  0  0  0  0  0  0
   57.7820   31.8810   43.1310 C   0  0  0  0  0  0  0  0  0  0  0  0
   59.0460   29.9360   46.0440 N   0  0  0  0  0  0  0  0  0  0  0  0
   59.9270   30.7520   46.8360 C   0  0  0  0  0  0  0  0  0  0  0  0
   61.3160   30.6370   46.7020 C   0  0  0  0  0  0  0  0  0  0  0  0
   62.1650   31.4370   47.4710 C   0  0  0  0  0  0  0  0  0  0  0  0
   61.6300   32.3700   48.3650 C   0  0  0  0  0  0  0  0  0  0  0  0
   60.2380   32.5150   48.4910 C   0  0  0  0  0  0  0  0  0  0  0  0
   59.6750   33.5150   49.4250 C   0  0  0  0  0  0  0  0  0  0  0  0
   59.6490   34.7270   49.0770 O   0  0  0  0  0  0  0  0  0  0  0  0
   59.1480   33.1360   50.7120 N   0  0  0  0  0  0  0  0  0  0  0  0
   59.3610   33.9890   51.8840 C   0  0  0  0  0  0  0  0  0  0  0  0
   58.0950   34.0060   52.7450 C   0  0  0  0  0  0  0  0  0  0  0  0
   57.6700   32.6880   53.0410 O   0  0  0  0  0  0  0  0  0  0  0  0
   57.2830   32.0290   51.8500 C   0  0  0  0  0  0  0  0  0  0  0  0
   58.4840   31.8440   50.9180 C   0  0  0  0  0  0  0  0  0  0  0  0
   59.3930   31.6830   47.7380 C   0  0  0  0  0  0  0  0  0  0  0  0
  1  2  2  0
  2  3  1  0
  3  4  2  3
  4  5  1  0
  5  6  1  0
  6  7  1  0
  7  8  2  0
  7  9  1  0
  9 10  1  0
 10 11  1  0
  3 12  1  0
 12 13  2  0
 13 14  1  0
 14 15  1  0
 13 16  1  0
 16 17  1  0
 17 18  2  0
 18 19  1  0
 19 20  2  0
 20 21  1  0
 21 22  1  0
 22 23  2  0
 22 24  1  0
 24 25  1  0
 25 26  1  0
 26 27  1  0
 27 28  1  0
 28 29  1  0
 21 30  2  0
 16  2  1  0
 30 17  1  0
 10  5  2  0
 29 24  1  0
M  CHG  3   6  -1   9  -1  11  -1
M  END
>  <UniqueID>  (3180) 
70

>  <SMILES>  (3180) 
C=c1c(=Cc2[n-]c(=O)[n-]c2[O-])cc(CC)n1-c1cccc(C(=O)N2CCOCC2)c1

>  <Energy>  (3180) 
133.14690933354524

>  <Genealogy>  (3180) 
C=c1c(=Cc2[n-]c(=O)[n-]c2[O-])cc(CC)n1-c1cccc(C(=O)N2CCOCC2)c1 (protonated)
C=c1c(=Cc2[n-]c(=O)[n-]c2[O-])cc(CC)n1-c1cccc(C(=O)N2CCOCC2)c1 (3D coordinates assigned)
C=c1c(=Cc2[n-]c(=O)[n-]c2[O-])cc(CC)n1-c1cccc(C(=O)N2CCOCC2)c1 (nonaromatic ring conformer: 133.14690933354524 kcal/mol)

>  <smiles>  (3180) 
C=c1c(=Cc2[nH]c(=O)[nH]c2O)cc(CC)n1-c1cccc(C(=O)N2CCOCC2)c1

>  <score_type>  (3180) 
oracle

>  <origin>  (3180) 
adg

>  <m_score__min__energy>  (3180) 
-17.059999999999999

>  <m_primary>  (3180) 
energy

$$$$
79:0
     RDKit          3D

 31 34  0  0  0  0  0  0  0  0999 V2000
   51.2360   32.3160   51.2900 N   0  0  0  0  0  0  0  0  0  0  0  0
   51.6400   30.6760   51.6500 S   0  0  0  0  0  0  0  0  0  0  0  0
   51.4420   29.8400   50.4170 O   0  0  0  0  0  0  0  0  0  0  0  0
   50.7400   30.1630   52.7380 O   0  0  0  0  0  0  0  0  0  0  0  0
   53.3140   30.5890   52.1890 C   0  0  0  0  0  0  0  0  0  0  0  0
   54.3330   31.2430   51.4830 C   0  0  0  0  0  0  0  0  0  0  0  0
   55.6570   31.1610   51.9220 C   0  0  0  0  0  0  0  0  0  0  0  0
   55.9790   30.4250   53.0730 C   0  0  0  0  0  0  0  0  0  0  0  0
   57.4060   30.3060   53.5350 C   0  0  0  0  0  0  0  0  0  0  0  0
   58.3040   30.9280   52.5650 N   0  0  0  0  0  0  0  0  0  0  0  0
   58.4150   30.4590   51.2100 C   0  0  0  0  0  0  0  0  0  0  0  0
   57.7590   29.4430   50.8490 O   0  0  0  0  0  0  0  0  0  0  0  0
   59.3050   31.1320   50.2330 C   0  0  0  0  0  0  0  0  0  0  0  0
   60.3820   31.9270   50.6580 C   0  0  0  0  0  0  0  0  0  0  0  0
   61.2010   32.5660   49.7260 C   0  0  0  0  0  0  0  0  0  0  0  0
   60.9580   32.4370   48.3500 C   0  0  0  0  0  0  0  0  0  0  0  0
   61.8410   33.1820   47.3790 C   0  0  0  0  0  0  0  0  0  0  0  0
   63.0900   33.8190   47.9790 C   0  0  0  0  0  0  0  0  0  0  0  0
   63.2130   32.5580   47.1480 C   0  0  0  0  0  0  0  0  0  0  0  0
   59.9090   31.5950   47.9140 C   0  0  0  0  0  0  0  0  0  0  0  0
   59.6370   31.3780   46.5230 N   0  0  0  0  0  0  0  0  0  0  0  0
   59.1730   30.1380   45.9760 C   0  0  0  0  0  0  0  0  0  0  0  0
   59.9270   29.1290   45.9580 O   0  0  0  0  0  0  0  0  0  0  0  0
   57.8020   30.0370   45.4610 C   0  0  0  0  0  0  0  0  0  0  0  0
   57.0860   31.0040   44.7890 C   0  0  0  0  0  0  0  0  0  0  0  0
   55.8650   30.5170   44.4980 N   0  0  0  0  0  0  0  0  0  0  0  0
   55.7810   29.2780   44.9640 N   0  0  0  0  0  0  0  0  0  0  0  0
   56.9480   28.9610   45.5560 C   0  0  0  0  0  0  0  0  0  0  0  0
   59.0710   30.9870   48.8550 C   0  0  0  0  0  0  0  0  0  0  0  0
   54.9570   29.7690   53.7770 C   0  0  0  0  0  0  0  0  0  0  0  0
   53.6320   29.8530   53.3380 C   0  0  0  0  0  0  0  0  0  0  0  0
  1  2  1  0
  2  3  2  0
  2  4  2  0
  2  5  1  0
  5  6  2  0
  6  7  1  0
  7  8  2  0
  8  9  1  0
  9 10  1  0
 10 11  1  0
 11 12  2  0
 11 13  1  0
 13 14  2  0
 14 15  1  0
 15 16  2  0
 16 17  1  0
 17 18  1  0
 18 19  1  0
 16 20  1  0
 20 21  1  0
 21 22  1  0
 22 23  2  0
 22 24  1  0
 24 25  1  0
 25 26  2  0
 26 27  1  0
 27 28  1  0
 20 29  2  0
  8 30  1  0
 30 31  2  0
 31  5  1  0
 29 13  1  0
 19 17  1  0
 28 24  2  0
M  CHG  3   1  -1  21  -1  27  -1
M  END
>  <UniqueID>  (3181) 
74

>  <SMILES>  (3181) 
[NH-]S(=O)(=O)c1ccc(CNC(=O)c2ccc(C3CC3)c([N-]C(=O)c3cn[n-]c3)c2)cc1

>  <Energy>  (3181) 
351.16348809240003

>  <Genealogy>  (3181) 
[NH-]S(=O)(=O)c1ccc(CNC(=O)c2ccc(C3CC3)c([N-]C(=O)c3cn[n-]c3)c2)cc1 (protonated)
[NH-]S(=O)(=O)c1ccc(CNC(=O)c2ccc(C3CC3)c([N-]C(=O)c3cn[n-]c3)c2)cc1 (3D coordinates assigned)
[NH-]S(=O)(=O)c1ccc(CNC(=O)c2ccc(C3CC3)c([N-]C(=O)c3cn[n-]c3)c2)cc1 (nonaromatic ring conformer: 351.16348809240003 kcal/mol)

>  <smiles>  (3181) 
NS(=O)(=O)c1ccc(CNC(=O)c2ccc(C3CC3)c(NC(=O)c3cn[nH]c3)c2)cc1

>  <score_type>  (3181) 
oracle

>  <origin>  (3181) 
adg

>  <m_score__min__energy>  (3181) 
-14.210000000000001

>  <m_primary>  (3181) 
energy

$$$$
81:0
     RDKit          3D

 31 34  0  0  0  0  0  0  0  0999 V2000
   54.7730   26.3340   45.9820 N   0  0  0  0  0  0  0  0  0  0  0  0
   56.0480   25.1760   46.1310 S   0  0  0  0  0  0  0  0  0  0  0  0
   56.0200   24.2480   44.9500 O   0  0  0  0  0  0  0  0  0  0  0  0
   55.8480   24.3680   47.3830 O   0  0  0  0  0  0  0  0  0  0  0  0
   57.5960   26.0110   46.2030 C   0  0  0  0  0  0  0  0  0  0  0  0
   58.7710   25.2970   46.4720 C   0  0  0  0  0  0  0  0  0  0  0  0
   60.0000   25.9570   46.5020 C   0  0  0  0  0  0  0  0  0  0  0  0
   60.0650   27.3320   46.2650 C   0  0  0  0  0  0  0  0  0  0  0  0
   58.8960   28.0680   46.0010 C   0  0  0  0  0  0  0  0  0  0  0  0
   58.9870   29.5240   45.7450 C   0  0  0  0  0  0  0  0  0  0  0  0
   60.0920   30.0100   45.3780 O   0  0  0  0  0  0  0  0  0  0  0  0
   57.8410   30.3840   45.9000 N   0  0  0  0  0  0  0  0  0  0  0  0
   57.8900   31.8130   45.7580 C   0  0  0  0  0  0  0  0  0  0  0  0
   57.2980   32.4130   44.6370 C   0  0  0  0  0  0  0  0  0  0  0  0
   57.3240   33.8010   44.4800 C   0  0  0  0  0  0  0  0  0  0  0  0
   57.9240   34.6050   45.4510 C   0  0  0  0  0  0  0  0  0  0  0  0
   58.4850   34.0260   46.6000 C   0  0  0  0  0  0  0  0  0  0  0  0
   59.1500   34.8930   47.6410 C   0  0  0  0  0  0  0  0  0  0  0  0
   60.0660   34.1090   48.5550 C   0  0  0  0  0  0  0  0  0  0  0  0
   59.7350   33.9520   49.8670 N   0  0  0  0  0  0  0  0  0  0  0  0
   60.4980   33.2620   50.7150 N   0  0  0  0  0  0  0  0  0  0  0  0
   61.6530   32.6750   50.3150 C   0  0  0  0  0  0  0  0  0  0  0  0
   62.3310   32.0140   51.1450 O   0  0  0  0  0  0  0  0  0  0  0  0
   62.0720   32.8130   48.9840 C   0  0  0  0  0  0  0  0  0  0  0  0
   61.2750   33.5450   48.0900 C   0  0  0  0  0  0  0  0  0  0  0  0
   61.7420   33.6450   46.6550 C   0  0  0  0  0  0  0  0  0  0  0  0
   63.2450   33.9550   46.6010 C   0  0  0  0  0  0  0  0  0  0  0  0
   64.1120   33.0650   47.5270 C   0  0  0  0  0  0  0  0  0  0  0  0
   63.3140   32.1340   48.4580 C   0  0  0  0  0  0  0  0  0  0  0  0
   58.4680   32.6290   46.7480 C   0  0  0  0  0  0  0  0  0  0  0  0
   57.6610   27.3910   45.9590 C   0  0  0  0  0  0  0  0  0  0  0  0
  1  2  1  0
  2  3  2  0
  2  4  2  0
  2  5  1  0
  5  6  2  0
  6  7  1  0
  7  8  2  0
  8  9  1  0
  9 10  1  0
 10 11  2  0
 10 12  1  0
 12 13  1  0
 13 14  2  0
 14 15  1  0
 15 16  2  0
 16 17  1  0
 17 18  1  0
 18 19  1  0
 19 20  2  0
 20 21  1  0
 21 22  1  0
 22 23  2  0
 22 24  1  0
 24 25  2  0
 25 26  1  0
 26 27  1  0
 27 28  1  0
 28 29  1  0
 17 30  2  0
  9 31  2  0
 31  5  1  0
 30 13  1  0
 25 19  1  0
 29 24  1  0
M  CHG  2   1  -1  21  -1
M  END
>  <UniqueID>  (3182) 
76

>  <SMILES>  (3182) 
[NH-]S(=O)(=O)c1cccc(C(=O)Nc2cccc(Cc3n[n-]c(=O)c4c3CCCC4)c2)c1

>  <Energy>  (3182) 
70.07253376499655

>  <Genealogy>  (3182) 
[NH-]S(=O)(=O)c1cccc(C(=O)Nc2cccc(Cc3n[n-]c(=O)c4c3CCCC4)c2)c1 (protonated)
[NH-]S(=O)(=O)c1cccc(C(=O)Nc2cccc(Cc3n[n-]c(=O)c4c3CCCC4)c2)c1 (3D coordinates assigned)
[NH-]S(=O)(=O)c1cccc(C(=O)Nc2cccc(Cc3n[n-]c(=O)c4c3CCCC4)c2)c1 (nonaromatic ring conformer: 70.07253376499655 kcal/mol)

>  <smiles>  (3182) 
NS(=O)(=O)c1cccc(C(=O)Nc2cccc(Cc3n[nH]c(=O)c4c3CCCC4)c2)c1

>  <score_type>  (3182) 
oracle

>  <origin>  (3182) 
adg

>  <m_score__min__energy>  (3182) 
-14.99

>  <m_primary>  (3182) 
energy

$$$$
83:0
     RDKit          3D

 32 35  0  0  0  0  0  0  0  0999 V2000
   57.3260   31.5130   42.5830 C   0  0  0  0  0  0  0  0  0  0  0  0
   56.7230   29.9480   42.7260 S   0  0  0  0  0  0  0  0  0  0  0  0
   56.5610   30.0570   44.3920 C   0  0  0  0  0  0  0  0  0  0  0  0
   56.0790   29.1040   45.1330 N   0  0  0  0  0  0  0  0  0  0  0  0
   56.8070   27.9510   45.5830 C   0  0  0  0  0  0  0  0  0  0  0  0
   58.2010   28.0380   45.6890 C   0  0  0  0  0  0  0  0  0  0  0  0
   58.9450   26.9430   46.1380 C   0  0  0  0  0  0  0  0  0  0  0  0
   58.3000   25.7610   46.5020 C   0  0  0  0  0  0  0  0  0  0  0  0
   56.9090   25.6750   46.4350 C   0  0  0  0  0  0  0  0  0  0  0  0
   56.1570   26.7680   45.9940 C   0  0  0  0  0  0  0  0  0  0  0  0
   54.7710   26.6810   45.9980 O   0  0  0  0  0  0  0  0  0  0  0  0
   56.9370   31.2670   44.8630 N   0  0  0  0  0  0  0  0  0  0  0  0
   57.3770   32.0740   43.8590 C   0  0  0  0  0  0  0  0  0  0  0  0
   57.8350   33.4770   44.1210 C   0  0  0  0  0  0  0  0  0  0  0  0
   58.5650   33.5880   45.4290 C   0  0  0  0  0  0  0  0  0  0  0  0
   59.5860   34.3220   45.5220 O   0  0  0  0  0  0  0  0  0  0  0  0
   58.0270   32.9480   46.5950 N   0  0  0  0  0  0  0  0  0  0  0  0
   58.7280   32.8320   47.8440 C   0  0  0  0  0  0  0  0  0  0  0  0
   59.3140   33.9500   48.4630 C   0  0  0  0  0  0  0  0  0  0  0  0
   60.0260   33.8030   49.6590 C   0  0  0  0  0  0  0  0  0  0  0  0
   60.1680   32.5410   50.2440 C   0  0  0  0  0  0  0  0  0  0  0  0
   61.0600   32.3730   51.7550 S   0  0  0  0  0  0  0  0  0  0  0  0
   61.9200   33.5910   51.9310 O   0  0  0  0  0  0  0  0  0  0  0  0
   61.9570   31.1700   51.6850 O   0  0  0  0  0  0  0  0  0  0  0  0
   59.9680   32.2440   53.1200 N   0  0  0  0  0  0  0  0  0  0  0  0
   59.7820   33.5360   53.8030 C   0  0  0  0  0  0  0  0  0  0  0  0
   58.9020   34.5100   52.9820 C   0  0  0  0  0  0  0  0  0  0  0  0
   58.1030   33.8680   52.0040 O   0  0  0  0  0  0  0  0  0  0  0  0
   57.5640   32.6710   52.5200 C   0  0  0  0  0  0  0  0  0  0  0  0
   58.6790   31.6300   52.7300 C   0  0  0  0  0  0  0  0  0  0  0  0
   59.5910   31.4240   49.6270 C   0  0  0  0  0  0  0  0  0  0  0  0
   58.8860   31.5690   48.4290 C   0  0  0  0  0  0  0  0  0  0  0  0
  1  2  1  0
  2  3  1  0
  3  4  2  0
  4  5  1  0
  5  6  2  0
  6  7  1  0
  7  8  2  0
  8  9  1  0
  9 10  2  0
 10 11  1  0
  3 12  1  0
 12 13  1  0
 13 14  1  0
 14 15  1  0
 15 16  2  0
 15 17  1  0
 17 18  1  0
 18 19  2  0
 19 20  1  0
 20 21  2  0
 21 22  1  0
 22 23  2  0
 22 24  2  0
 22 25  1  0
 25 26  1  0
 26 27  1  0
 27 28  1  0
 28 29  1  0
 29 30  1  0
 21 31  1  0
 31 32  2  0
 13  1  2  0
 32 18  1  0
 10  5  1  0
 30 25  1  0
M  CHG  2  11  -1  12  -1
M  END
>  <UniqueID>  (3183) 
77

>  <SMILES>  (3183) 
O=C(Cc1cs/c(=N/c2ccccc2[O-])[n-]1)Nc1ccc(S(=O)(=O)N2CCOCC2)cc1

>  <Energy>  (3183) 
105.48334441247619

>  <Genealogy>  (3183) 
O=C(Cc1csc(=Nc2ccccc2[O-])[n-]1)Nc1ccc(S(=O)(=O)N2CCOCC2)cc1 (protonated)
O=C(Cc1cs/c(=N/c2ccccc2[O-])[n-]1)Nc1ccc(S(=O)(=O)N2CCOCC2)cc1 (cis-trans isomerization)
O=C(Cc1cs/c(=N/c2ccccc2[O-])[n-]1)Nc1ccc(S(=O)(=O)N2CCOCC2)cc1 (3D coordinates assigned)
O=C(Cc1cs/c(=N/c2ccccc2[O-])[n-]1)Nc1ccc(S(=O)(=O)N2CCOCC2)cc1 (nonaromatic ring conformer: 105.48334441247619 kcal/mol)

>  <smiles>  (3183) 
O=C(Cc1csc(=Nc2ccccc2O)[nH]1)Nc1ccc(S(=O)(=O)N2CCOCC2)cc1

>  <score_type>  (3183) 
oracle

>  <origin>  (3183) 
adg

>  <m_score__min__energy>  (3183) 
-14.800000000000001

>  <m_primary>  (3183) 
energy

$$$$
12:0
     RDKit          3D

 26 27  0  0  0  0  0  0  0  0999 V2000
   55.1470   26.7200   45.9550 O   0  0  0  0  0  0  0  0  0  0  0  0
   55.6140   25.5530   46.0220 C   0  0  0  0  0  0  0  0  0  0  0  0
   54.7500   24.4650   46.0300 O   0  0  0  0  0  0  0  0  0  0  0  0
   57.0830   25.3400   46.1510 C   0  0  0  0  0  0  0  0  0  0  0  0
   57.7080   26.5600   46.6390 N   0  0  0  0  0  0  0  0  0  0  0  0
   58.2720   27.5450   45.7690 C   0  0  0  0  0  0  0  0  0  0  0  0
   59.1260   28.3640   46.2030 O   0  0  0  0  0  0  0  0  0  0  0  0
   57.8260   27.6150   44.3440 C   0  0  0  0  0  0  0  0  0  0  0  0
   57.6610   29.0100   43.9450 N   0  0  0  0  0  0  0  0  0  0  0  0
   56.5770   29.8230   44.4210 C   0  0  0  0  0  0  0  0  0  0  0  0
   55.5380   29.2830   44.8820 O   0  0  0  0  0  0  0  0  0  0  0  0
   56.6320   31.2500   44.3240 N   0  0  0  0  0  0  0  0  0  0  0  0
   57.4860   32.1080   45.0930 C   0  0  0  0  0  0  0  0  0  0  0  0
   58.1370   31.6550   46.2520 C   0  0  0  0  0  0  0  0  0  0  0  0
   58.9370   32.5270   46.9960 C   0  0  0  0  0  0  0  0  0  0  0  0
   59.0880   33.8630   46.6080 C   0  0  0  0  0  0  0  0  0  0  0  0
   59.9110   34.6920   47.3870 O   0  0  0  0  0  0  0  0  0  0  0  0
   60.4010   34.3790   48.6910 C   0  0  0  0  0  0  0  0  0  0  0  0
   61.8320   33.9170   48.6310 C   0  0  0  0  0  0  0  0  0  0  0  0
   62.4230   33.5790   47.4010 C   0  0  0  0  0  0  0  0  0  0  0  0
   63.7560   33.1610   47.3520 C   0  0  0  0  0  0  0  0  0  0  0  0
   64.5120   33.0870   48.5250 C   0  0  0  0  0  0  0  0  0  0  0  0
   63.9350   33.4350   49.7510 C   0  0  0  0  0  0  0  0  0  0  0  0
   62.6020   33.8520   49.8050 C   0  0  0  0  0  0  0  0  0  0  0  0
   58.4100   34.3230   45.4620 C   0  0  0  0  0  0  0  0  0  0  0  0
   57.6100   33.4500   44.7180 C   0  0  0  0  0  0  0  0  0  0  0  0
  1  2  2  0
  2  3  1  0
  2  4  1  0
  4  5  1  0
  5  6  1  0
  6  7  2  0
  6  8  1  0
  8  9  1  0
  9 10  1  0
 10 11  2  0
 10 12  1  0
 12 13  1  0
 13 14  2  0
 14 15  1  0
 15 16  2  0
 16 17  1  0
 17 18  1  0
 18 19  1  0
 19 20  2  0
 20 21  1  0
 21 22  2  0
 22 23  1  0
 23 24  2  0
 16 25  1  0
 25 26  2  0
 26 13  1  0
 24 19  1  0
M  CHG  3   3  -1   5  -1  12  -1
M  END
>  <UniqueID>  (3184) 
13

>  <SMILES>  (3184) 
O=C([O-])C[N-]C(=O)CNC(=O)[N-]c1ccc(OCc2ccccc2)cc1

>  <Energy>  (3184) 
38.998248003351655

>  <Genealogy>  (3184) 
O=C([O-])C[N-]C(=O)CNC(=O)[N-]c1ccc(OCc2ccccc2)cc1 (protonated)
O=C([O-])C[N-]C(=O)CNC(=O)[N-]c1ccc(OCc2ccccc2)cc1 (3D coordinates assigned)
O=C([O-])C[N-]C(=O)CNC(=O)[N-]c1ccc(OCc2ccccc2)cc1 (optimized conformer: 38.998248003351655 kcal/mol)

>  <smiles>  (3184) 
O=C(O)CNC(=O)CNC(=O)Nc1ccc(OCc2ccccc2)cc1

>  <score_type>  (3184) 
oracle

>  <origin>  (3184) 
adg

>  <m_score__min__energy>  (3184) 
-14.44

>  <m_primary>  (3184) 
energy

$$$$
27:0
     RDKit          3D

 30 33  0  0  0  0  0  0  0  0999 V2000
   60.0460   27.2550   46.0580 C   0  0  0  0  0  0  0  0  0  0  0  0
   59.1140   27.9290   45.3620 C   0  0  0  0  0  0  0  0  0  0  0  0
   58.1190   27.3690   44.5470 C   0  0  0  0  0  0  0  0  0  0  0  0
   57.6750   26.1030   44.4340 C   0  0  0  0  0  0  0  0  0  0  0  0
   57.0870   25.3030   45.5230 C   0  0  0  0  0  0  0  0  0  0  0  0
   57.6670   24.2240   46.0810 N   0  0  0  0  0  0  0  0  0  0  0  0
   56.8380   23.9210   47.1040 C   0  0  0  0  0  0  0  0  0  0  0  0
   57.0380   22.9440   47.8720 O   0  0  0  0  0  0  0  0  0  0  0  0
   55.7840   24.7530   47.2460 N   0  0  0  0  0  0  0  0  0  0  0  0
   55.9660   25.6290   46.2440 C   0  0  0  0  0  0  0  0  0  0  0  0
   55.1280   26.7090   46.0000 O   0  0  0  0  0  0  0  0  0  0  0  0
   57.6000   28.4120   43.8030 C   0  0  0  0  0  0  0  0  0  0  0  0
   58.2160   29.5690   44.2390 C   0  0  0  0  0  0  0  0  0  0  0  0
   57.9450   30.9300   43.6470 C   0  0  0  0  0  0  0  0  0  0  0  0
   57.2610   31.8210   44.6490 C   0  0  0  0  0  0  0  0  0  0  0  0
   56.0280   31.6540   44.8590 O   0  0  0  0  0  0  0  0  0  0  0  0
   57.9870   32.8270   45.3890 N   0  0  0  0  0  0  0  0  0  0  0  0
   57.4010   33.4090   46.6080 C   0  0  0  0  0  0  0  0  0  0  0  0
   58.4670   33.5330   47.7040 C   0  0  0  0  0  0  0  0  0  0  0  0
   59.7390   34.0450   47.1700 N   0  0  0  0  0  0  0  0  0  0  0  0
   60.9170   34.0080   47.9970 C   0  0  0  0  0  0  0  0  0  0  0  0
   60.8220   34.2030   49.3840 C   0  0  0  0  0  0  0  0  0  0  0  0
   61.9820   34.1860   50.1630 C   0  0  0  0  0  0  0  0  0  0  0  0
   63.1950   33.9790   49.5830 N   0  0  0  0  0  0  0  0  0  0  0  0
   63.3150   33.7910   48.2400 C   0  0  0  0  0  0  0  0  0  0  0  0
   62.1820   33.8070   47.4240 C   0  0  0  0  0  0  0  0  0  0  0  0
   59.8190   34.4610   45.7650 C   0  0  0  0  0  0  0  0  0  0  0  0
   59.2700   33.3440   44.8770 C   0  0  0  0  0  0  0  0  0  0  0  0
   59.1230   29.2810   45.2070 N   0  0  0  0  0  0  0  0  0  0  0  0
   60.0430   30.2330   45.8440 C   0  0  0  0  0  0  0  0  0  0  0  0
  1  2  2  0
  2  3  1  0
  3  4  2  3
  4  5  1  0
  5  6  1  0
  6  7  1  0
  7  8  2  0
  7  9  1  0
  9 10  1  0
 10 11  1  0
  3 12  1  0
 12 13  2  0
 13 14  1  0
 14 15  1  0
 15 16  2  0
 15 17  1  0
 17 18  1  0
 18 19  1  0
 19 20  1  0
 20 21  1  0
 21 22  2  0
 22 23  1  0
 23 24  2  0
 24 25  1  0
 25 26  2  0
 20 27  1  0
 27 28  1  0
 13 29  1  0
 29 30  1  0
 29  2  1  0
 10  5  2  0
 28 17  1  0
 26 21  1  0
M  CHG  4   6  -1   9  -1  11  -1  24   1
M  END
>  <UniqueID>  (3185) 
28

>  <SMILES>  (3185) 
C=c1c(=Cc2[n-]c(=O)[n-]c2[O-])cc(CC(=O)N2CCN(c3cc[nH+]cc3)CC2)n1C

>  <Energy>  (3185) 
128.096151527623

>  <Genealogy>  (3185) 
C=c1c(=Cc2[n-]c(=O)[n-]c2[O-])cc(CC(=O)N2CCN(c3cc[nH+]cc3)CC2)n1C (protonated)
C=c1c(=Cc2[n-]c(=O)[n-]c2[O-])cc(CC(=O)N2CCN(c3cc[nH+]cc3)CC2)n1C (3D coordinates assigned)
C=c1c(=Cc2[n-]c(=O)[n-]c2[O-])cc(CC(=O)N2CCN(c3cc[nH+]cc3)CC2)n1C (nonaromatic ring conformer: 128.096151527623 kcal/mol)

>  <smiles>  (3185) 
C=c1c(=Cc2[nH]c(=O)[nH]c2O)cc(CC(=O)N2CCN(c3ccncc3)CC2)n1C

>  <score_type>  (3185) 
oracle

>  <origin>  (3185) 
adg

>  <m_score__min__energy>  (3185) 
-17.440000000000001

>  <m_primary>  (3185) 
energy

$$$$
45:0
     RDKit          3D

 26 28  0  0  0  0  0  0  0  0999 V2000
   54.3840   30.0180   55.0060 C   0  0  0  0  0  0  0  0  0  0  0  0
   54.8900   30.3320   53.8000 C   0  0  0  0  0  0  0  0  0  0  0  0
   54.1380   30.6860   52.6740 C   0  0  0  0  0  0  0  0  0  0  0  0
   52.7960   30.7750   52.5780 C   0  0  0  0  0  0  0  0  0  0  0  0
   52.0600   30.8660   51.3010 C   0  0  0  0  0  0  0  0  0  0  0  0
   51.3000   31.9340   50.8810 C   0  0  0  0  0  0  0  0  0  0  0  0
   51.0200   33.0720   51.6270 O   0  0  0  0  0  0  0  0  0  0  0  0
   50.8540   31.7350   49.6260 N   0  0  0  0  0  0  0  0  0  0  0  0
   51.3850   30.5340   49.3090 C   0  0  0  0  0  0  0  0  0  0  0  0
   51.2140   29.9870   48.1880 O   0  0  0  0  0  0  0  0  0  0  0  0
   52.1270   29.9830   50.2900 N   0  0  0  0  0  0  0  0  0  0  0  0
   55.0430   30.8550   51.6430 C   0  0  0  0  0  0  0  0  0  0  0  0
   56.2960   30.6070   52.1630 C   0  0  0  0  0  0  0  0  0  0  0  0
   57.5000   30.5730   51.3180 C   0  0  0  0  0  0  0  0  0  0  0  0
   58.1200   29.4840   51.1860 O   0  0  0  0  0  0  0  0  0  0  0  0
   58.0530   31.8020   50.8220 N   0  0  0  0  0  0  0  0  0  0  0  0
   58.8000   32.0050   49.7710 C   0  0  0  0  0  0  0  0  0  0  0  0
   59.4640   33.2340   49.6610 C   0  0  0  0  0  0  0  0  0  0  0  0
   60.2630   33.4980   48.5470 C   0  0  0  0  0  0  0  0  0  0  0  0
   60.3880   32.5700   47.5610 N   0  0  0  0  0  0  0  0  0  0  0  0
   59.7450   31.3750   47.6250 C   0  0  0  0  0  0  0  0  0  0  0  0
   58.9350   31.0690   48.7230 C   0  0  0  0  0  0  0  0  0  0  0  0
   56.2210   30.3270   53.4940 N   0  0  0  0  0  0  0  0  0  0  0  0
   57.3330   30.1200   54.4560 C   0  0  0  0  0  0  0  0  0  0  0  0
   57.3380   31.2080   55.5320 C   0  0  0  0  0  0  0  0  0  0  0  0
   57.3570   28.7070   55.0600 C   0  0  0  0  0  0  0  0  0  0  0  0
  1  2  2  0
  2  3  1  0
  3  4  2  0
  4  5  1  0
  5  6  2  0
  6  7  1  0
  6  8  1  0
  8  9  1  0
  9 10  2  0
  9 11  1  0
  3 12  1  0
 12 13  2  0
 13 14  1  0
 14 15  2  0
 14 16  1  0
 16 17  2  3
 17 18  1  0
 18 19  2  0
 19 20  1  0
 20 21  1  0
 21 22  2  0
 13 23  1  0
 23 24  1  0
 24 25  1  0
 24 26  1  0
 23  2  1  0
 11  5  1  0
 22 17  1  0
M  CHG  3   7  -1   8  -1  20  -1
M  END
>  <UniqueID>  (3186) 
45

>  <SMILES>  (3186) 
C=c1/c(=C/c2[nH]c(=O)[n-]c2[O-])cc(C(=O)N=c2cc[n-]cc2)n1C(C)C

>  <Energy>  (3186) 
123.92817076723072

>  <Genealogy>  (3186) 
C=c1c(=Cc2[nH]c(=O)[n-]c2[O-])cc(C(=O)N=c2cc[n-]cc2)n1C(C)C (protonated)
C=c1/c(=C/c2[nH]c(=O)[n-]c2[O-])cc(C(=O)N=c2cc[n-]cc2)n1C(C)C (cis-trans isomerization)
C=c1/c(=C/c2[nH]c(=O)[n-]c2[O-])cc(C(=O)N=c2cc[n-]cc2)n1C(C)C (3D coordinates assigned)
C=c1/c(=C/c2[nH]c(=O)[n-]c2[O-])cc(C(=O)N=c2cc[n-]cc2)n1C(C)C (optimized conformer: 123.92817076723072 kcal/mol)

>  <smiles>  (3186) 
C=c1c(=Cc2[nH]c(=O)[nH]c2O)cc(C(=O)N=c2cc[nH]cc2)n1C(C)C

>  <score_type>  (3186) 
oracle

>  <origin>  (3186) 
adg

>  <m_score__min__energy>  (3186) 
-14.449999999999999

>  <m_primary>  (3186) 
energy

$$$$
48:0
     RDKit          3D

 25 27  0  0  0  0  0  0  0  0999 V2000
   57.5590   30.0310   43.7590 C   0  0  0  0  0  0  0  0  0  0  0  0
   58.1910   30.1050   44.9410 C   0  0  0  0  0  0  0  0  0  0  0  0
   58.4820   29.0420   45.8130 C   0  0  0  0  0  0  0  0  0  0  0  0
   58.4150   27.7090   45.6380 C   0  0  0  0  0  0  0  0  0  0  0  0
   57.2070   26.8830   45.7980 C   0  0  0  0  0  0  0  0  0  0  0  0
   57.1930   25.6310   46.2930 N   0  0  0  0  0  0  0  0  0  0  0  0
   55.8770   25.3460   46.3800 C   0  0  0  0  0  0  0  0  0  0  0  0
   55.4500   24.2360   46.7940 O   0  0  0  0  0  0  0  0  0  0  0  0
   55.0520   26.3450   45.9990 N   0  0  0  0  0  0  0  0  0  0  0  0
   55.9120   27.3150   45.6490 C   0  0  0  0  0  0  0  0  0  0  0  0
   55.5200   28.5730   45.2060 O   0  0  0  0  0  0  0  0  0  0  0  0
   58.9030   29.6200   46.9980 C   0  0  0  0  0  0  0  0  0  0  0  0
   58.9080   30.9840   46.7990 C   0  0  0  0  0  0  0  0  0  0  0  0
   59.2670   31.9650   47.8420 C   0  0  0  0  0  0  0  0  0  0  0  0
   58.6380   33.0580   47.8750 O   0  0  0  0  0  0  0  0  0  0  0  0
   60.3390   31.7310   48.7890 N   0  0  1  0  0  0  0  0  0  0  0  0
   61.4150   31.0970   48.1780 O   0  0  0  0  0  0  0  0  0  0  0  0
   62.3970   31.8070   47.4830 C   0  0  0  0  0  0  0  0  0  0  0  0
   63.2590   31.1810   46.8090 O   0  0  0  0  0  0  0  0  0  0  0  0
   62.4240   33.2400   47.5620 N   0  0  0  0  0  0  0  0  0  0  0  0
   63.3210   34.0080   46.7000 C   0  0  0  0  0  0  0  0  0  0  0  0
   61.4430   33.9370   48.4000 C   0  0  0  0  0  0  0  0  0  0  0  0
   60.7910   32.9860   49.4210 C   0  0  0  0  0  0  0  0  0  0  0  0
   58.5050   31.2820   45.5420 N   0  0  0  0  0  0  0  0  0  0  0  0
   58.3800   32.6240   44.9640 C   0  0  0  0  0  0  0  0  0  0  0  0
  1  2  2  0
  2  3  1  0
  3  4  2  0
  4  5  1  0
  5  6  1  0
  6  7  1  0
  7  8  2  0
  7  9  1  0
  9 10  1  0
 10 11  1  0
  3 12  1  0
 12 13  2  0
 13 14  1  0
 14 15  2  0
 16 14  1  6
 16 17  1  0
 17 18  1  0
 18 19  2  0
 18 20  1  0
 20 21  1  0
 20 22  1  0
 22 23  1  0
 13 24  1  0
 24 25  1  0
 24  2  1  0
 10  5  2  0
 23 16  1  0
M  CHG  4   6  -1   9  -1  11  -1  16   1
M  END
>  <UniqueID>  (3187) 
48

>  <SMILES>  (3187) 
C=c1/c(=C\c2[n-]c(=O)[n-]c2[O-])cc(C(=O)[N@@H+]2CCN(C)C(=O)O2)n1C

>  <Energy>  (3187) 
117.9508448014919

>  <Genealogy>  (3187) 
C=c1c(=Cc2[n-]c(=O)[n-]c2[O-])cc(C(=O)[NH+]2CCN(C)C(=O)O2)n1C (protonated)
C=c1c(=Cc2[n-]c(=O)[n-]c2[O-])cc(C(=O)[N@@H+]2CCN(C)C(=O)O2)n1C (chirality)
C=c1/c(=C\c2[n-]c(=O)[n-]c2[O-])cc(C(=O)[N@@H+]2CCN(C)C(=O)O2)n1C (cis-trans isomerization)
C=c1/c(=C\c2[n-]c(=O)[n-]c2[O-])cc(C(=O)[N@@H+]2CCN(C)C(=O)O2)n1C (3D coordinates assigned)
C=c1/c(=C\c2[n-]c(=O)[n-]c2[O-])cc(C(=O)[N@@H+]2CCN(C)C(=O)O2)n1C (nonaromatic ring conformer: 117.9508448014919 kcal/mol)

>  <smiles>  (3187) 
C=c1c(=Cc2[nH]c(=O)[nH]c2O)cc(C(=O)N2CCN(C)C(=O)O2)n1C

>  <score_type>  (3187) 
oracle

>  <origin>  (3187) 
adg

>  <m_score__min__energy>  (3187) 
-15.75

>  <m_primary>  (3187) 
energy

$$$$
58:0
     RDKit          3D

 26 29  0  0  0  0  0  0  0  0999 V2000
   55.5120   30.2990   44.1140 C   0  0  0  0  0  0  0  0  0  0  0  0
   56.5010   29.7090   44.7860 C   0  0  0  0  0  0  0  0  0  0  0  0
   56.6320   28.3720   44.8890 N   0  0  0  0  0  0  0  0  0  0  0  0
   57.7520   28.1470   45.6140 C   0  0  0  0  0  0  0  0  0  0  0  0
   58.2200   26.9400   45.9670 C   0  0  0  0  0  0  0  0  0  0  0  0
   57.3810   25.8560   46.5070 C   0  0  0  0  0  0  0  0  0  0  0  0
   57.8850   24.7100   46.9970 N   0  0  0  0  0  0  0  0  0  0  0  0
   56.7850   23.9840   47.2900 C   0  0  0  0  0  0  0  0  0  0  0  0
   56.8470   22.8310   47.7920 O   0  0  0  0  0  0  0  0  0  0  0  0
   55.6130   24.5850   46.9930 N   0  0  0  0  0  0  0  0  0  0  0  0
   56.0080   25.7630   46.4860 C   0  0  0  0  0  0  0  0  0  0  0  0
   55.1300   26.7110   45.9740 O   0  0  0  0  0  0  0  0  0  0  0  0
   58.3330   29.3470   45.9890 C   0  0  0  0  0  0  0  0  0  0  0  0
   57.5340   30.3430   45.4620 C   0  0  0  0  0  0  0  0  0  0  0  0
   57.7790   31.7930   45.6120 C   0  0  0  0  0  0  0  0  0  0  0  0
   57.0580   32.5790   44.9400 O   0  0  0  0  0  0  0  0  0  0  0  0
   58.8660   32.3340   46.4130 N   0  0  0  0  0  0  0  0  0  0  0  0
   59.1290   33.7400   46.0210 C   0  0  0  0  0  0  0  0  0  0  0  0
   60.0280   34.4780   47.0360 C   0  0  0  0  0  0  0  0  0  0  0  0
   60.7970   33.5110   47.8390 N   0  0  0  0  0  0  0  0  0  0  0  0
   61.7880   34.2130   48.6780 C   0  0  0  0  0  0  0  0  0  0  0  0
   63.2160   33.8920   48.2110 C   0  0  0  0  0  0  0  0  0  0  0  0
   63.3720   32.5180   47.5750 C   0  0  0  0  0  0  0  0  0  0  0  0
   63.4200   33.7670   46.7080 C   0  0  0  0  0  0  0  0  0  0  0  0
   59.8810   32.6910   48.6640 C   0  0  0  0  0  0  0  0  0  0  0  0
   58.6380   32.2280   47.8700 C   0  0  0  0  0  0  0  0  0  0  0  0
  1  2  2  0
  2  3  1  0
  3  4  1  0
  4  5  2  3
  5  6  1  0
  6  7  1  0
  7  8  1  0
  8  9  2  0
  8 10  1  0
 10 11  1  0
 11 12  1  0
  4 13  1  0
 13 14  2  0
 14 15  1  0
 15 16  2  0
 15 17  1  0
 17 18  1  0
 18 19  1  0
 19 20  1  0
 20 21  1  0
 21 22  1  0
 22 23  1  0
 23 24  1  0
 20 25  1  0
 25 26  1  0
 14  2  1  0
 26 17  1  0
 11  6  2  0
 24 22  1  0
M  CHG  4   7  -1  10  -1  12  -1  17   1
M  END
>  <UniqueID>  (3188) 
58

>  <SMILES>  (3188) 
C=c1[nH]c(=Cc2[n-]c(=O)[n-]c2[O-])cc1C(=O)[NH+]1CCN(CC2CC2)CC1

>  <Energy>  (3188) 
393.8098263455442

>  <Genealogy>  (3188) 
C=c1[nH]c(=Cc2[n-]c(=O)[n-]c2[O-])cc1C(=O)[NH+]1CCN(CC2CC2)CC1 (protonated)
C=c1[nH]c(=Cc2[n-]c(=O)[n-]c2[O-])cc1C(=O)[NH+]1CCN(CC2CC2)CC1 (3D coordinates assigned)
C=c1[nH]c(=Cc2[n-]c(=O)[n-]c2[O-])cc1C(=O)[NH+]1CCN(CC2CC2)CC1 (nonaromatic ring conformer: 393.8098263455442 kcal/mol)

>  <smiles>  (3188) 
C=c1[nH]c(=Cc2[nH]c(=O)[nH]c2O)cc1C(=O)N1CCN(CC2CC2)CC1

>  <score_type>  (3188) 
oracle

>  <origin>  (3188) 
adg

>  <m_score__min__energy>  (3188) 
-16.420000000000002

>  <m_primary>  (3188) 
energy

$$$$
63:0
     RDKit          3D

 25 27  0  0  0  0  0  0  0  0999 V2000
   60.1200   27.8740   46.2670 C   0  0  0  0  0  0  0  0  0  0  0  0
   59.0820   28.4510   45.6400 C   0  0  0  0  0  0  0  0  0  0  0  0
   58.0660   27.8070   44.9160 C   0  0  0  0  0  0  0  0  0  0  0  0
   57.7570   26.5010   44.7920 C   0  0  0  0  0  0  0  0  0  0  0  0
   57.1560   25.6590   45.8370 C   0  0  0  0  0  0  0  0  0  0  0  0
   57.7420   24.5540   46.3290 N   0  0  0  0  0  0  0  0  0  0  0  0
   56.7970   24.0380   47.1460 C   0  0  0  0  0  0  0  0  0  0  0  0
   56.9820   22.9890   47.8160 O   0  0  0  0  0  0  0  0  0  0  0  0
   55.6370   24.7280   47.1800 N   0  0  0  0  0  0  0  0  0  0  0  0
   55.8740   25.7420   46.3330 C   0  0  0  0  0  0  0  0  0  0  0  0
   54.9310   26.7080   46.0020 O   0  0  0  0  0  0  0  0  0  0  0  0
   57.3350   28.8080   44.3010 C   0  0  0  0  0  0  0  0  0  0  0  0
   57.8640   30.0090   44.7240 C   0  0  0  0  0  0  0  0  0  0  0  0
   57.2980   31.3260   44.3610 C   0  0  0  0  0  0  0  0  0  0  0  0
   57.0310   31.5580   43.1520 O   0  0  0  0  0  0  0  0  0  0  0  0
   57.0480   32.3550   45.3320 N   0  0  0  0  0  0  0  0  0  0  0  0
   57.8830   33.2730   45.7290 C   0  0  0  0  0  0  0  0  0  0  0  0
   58.3820   34.1990   44.8610 N   0  0  0  0  0  0  0  0  0  0  0  0
   59.2630   35.1560   45.2560 C   0  0  0  0  0  0  0  0  0  0  0  0
   59.6890   35.2090   46.5830 C   0  0  0  0  0  0  0  0  0  0  0  0
   59.1930   34.2760   47.5040 C   0  0  0  0  0  0  0  0  0  0  0  0
   59.6700   34.2880   48.9260 C   0  0  0  0  0  0  0  0  0  0  0  0
   58.2970   33.2900   47.0660 C   0  0  0  0  0  0  0  0  0  0  0  0
   58.9380   29.7980   45.5220 N   0  0  0  0  0  0  0  0  0  0  0  0
   59.8390   30.8220   46.0650 C   0  0  0  0  0  0  0  0  0  0  0  0
  1  2  2  0
  2  3  1  0
  3  4  2  0
  4  5  1  0
  5  6  1  0
  6  7  1  0
  7  8  2  0
  7  9  1  0
  9 10  1  0
 10 11  1  0
  3 12  1  0
 12 13  2  0
 13 14  1  0
 14 15  2  0
 14 16  1  0
 16 17  2  3
 17 18  1  0
 18 19  1  0
 19 20  2  0
 20 21  1  0
 21 22  1  0
 21 23  2  0
 13 24  1  0
 24 25  1  0
 24  2  1  0
 10  5  2  0
 23 17  1  0
M  CHG  4   6  -1   9  -1  11  -1  18  -1
M  END
>  <UniqueID>  (3189) 
62

>  <SMILES>  (3189) 
C=c1/c(=C\c2[n-]c(=O)[n-]c2[O-])cc(C(=O)N=c2cc(C)cc[n-]2)n1C

>  <Energy>  (3189) 
118.77101779454664

>  <Genealogy>  (3189) 
C=c1c(=Cc2[n-]c(=O)[n-]c2[O-])cc(C(=O)N=c2cc(C)cc[n-]2)n1C (protonated)
C=c1/c(=C\c2[n-]c(=O)[n-]c2[O-])cc(C(=O)N=c2cc(C)cc[n-]2)n1C (cis-trans isomerization)
C=c1/c(=C\c2[n-]c(=O)[n-]c2[O-])cc(C(=O)N=c2cc(C)cc[n-]2)n1C (3D coordinates assigned)
C=c1/c(=C\c2[n-]c(=O)[n-]c2[O-])cc(C(=O)N=c2cc(C)cc[n-]2)n1C (optimized conformer: 118.77101779454664 kcal/mol)

>  <smiles>  (3189) 
C=c1c(=Cc2[nH]c(=O)[nH]c2O)cc(C(=O)N=c2cc(C)cc[nH]2)n1C

>  <score_type>  (3189) 
oracle

>  <origin>  (3189) 
adg

>  <m_score__min__energy>  (3189) 
-17.699999999999999

>  <m_primary>  (3189) 
energy

$$$$
70:0
     RDKit          3D

 25 27  0  0  0  0  0  0  0  0999 V2000
   58.0160   22.0910   45.2700 C   0  0  0  0  0  0  0  0  0  0  0  0
   58.3220   23.3850   45.3860 C   0  0  0  0  0  0  0  0  0  0  0  0
   59.3690   23.7970   46.0610 O   0  0  0  0  0  0  0  0  0  0  0  0
   59.4350   25.1050   45.9960 C   0  0  0  0  0  0  0  0  0  0  0  0
   58.3900   25.5940   45.2340 C   0  0  0  0  0  0  0  0  0  0  0  0
   58.3660   26.9770   44.7120 C   0  0  0  0  0  0  0  0  0  0  0  0
   57.8390   27.1950   43.5890 O   0  0  0  0  0  0  0  0  0  0  0  0
   58.8190   28.1490   45.5390 C   0  0  0  0  0  0  0  0  0  0  0  0
   57.4100   29.2120   46.0120 S   0  0  0  0  0  0  0  0  0  0  0  0
   57.4240   30.1750   44.4950 C   0  0  0  0  0  0  0  0  0  0  0  0
   56.6630   29.7570   43.3980 C   0  0  0  0  0  0  0  0  0  0  0  0
   56.6200   30.5360   42.2370 C   0  0  0  0  0  0  0  0  0  0  0  0
   57.3380   31.7400   42.1670 C   0  0  0  0  0  0  0  0  0  0  0  0
   57.2970   32.5700   40.9190 C   0  0  0  0  0  0  0  0  0  0  0  0
   58.1400   32.1280   43.2510 C   0  0  0  0  0  0  0  0  0  0  0  0
   58.1850   31.3460   44.4090 C   0  0  0  0  0  0  0  0  0  0  0  0
   57.6270   24.4800   44.8630 C   0  0  0  0  0  0  0  0  0  0  0  0
   56.4470   24.4330   44.2090 C   0  0  0  0  0  0  0  0  0  0  0  0
   55.1430   24.1590   44.8400 C   0  0  0  0  0  0  0  0  0  0  0  0
   54.4260   23.0320   44.6800 N   0  0  0  0  0  0  0  0  0  0  0  0
   53.2920   23.2830   45.3680 C   0  0  0  0  0  0  0  0  0  0  0  0
   52.3600   22.4430   45.4670 O   0  0  0  0  0  0  0  0  0  0  0  0
   53.2330   24.5050   45.9390 N   0  0  0  0  0  0  0  0  0  0  0  0
   54.4080   25.0490   45.5850 C   0  0  0  0  0  0  0  0  0  0  0  0
   54.8020   26.3340   45.9370 O   0  0  0  0  0  0  0  0  0  0  0  0
  1  2  2  0
  2  3  1  0
  3  4  1  0
  4  5  2  0
  5  6  1  0
  6  7  2  0
  6  8  1  0
  8  9  1  0
  9 10  1  0
 10 11  2  0
 11 12  1  0
 12 13  2  0
 13 14  1  0
 13 15  1  0
 15 16  2  0
  5 17  1  0
 17 18  2  3
 18 19  1  0
 19 20  1  0
 20 21  1  0
 21 22  2  0
 21 23  1  0
 23 24  1  0
 24 25  1  0
 17  2  1  0
 24 19  2  0
 16 10  1  0
M  CHG  3  20  -1  23  -1  25  -1
M  END
>  <UniqueID>  (3190) 
69

>  <SMILES>  (3190) 
C=c1occ(C(=O)CSc2ccc(C)cc2)c1=Cc1[n-]c(=O)[n-]c1[O-]

>  <Energy>  (3190) 
102.99069977478825

>  <Genealogy>  (3190) 
C=c1occ(C(=O)CSc2ccc(C)cc2)c1=Cc1[n-]c(=O)[n-]c1[O-] (protonated)
C=c1occ(C(=O)CSc2ccc(C)cc2)c1=Cc1[n-]c(=O)[n-]c1[O-] (3D coordinates assigned)
C=c1occ(C(=O)CSc2ccc(C)cc2)c1=Cc1[n-]c(=O)[n-]c1[O-] (optimized conformer: 102.99069977478825 kcal/mol)

>  <smiles>  (3190) 
C=c1occ(C(=O)CSc2ccc(C)cc2)c1=Cc1[nH]c(=O)[nH]c1O

>  <score_type>  (3190) 
oracle

>  <origin>  (3190) 
adg

>  <m_score__min__energy>  (3190) 
-16.850000000000001

>  <m_primary>  (3190) 
energy

$$$$
87:0
     RDKit          3D

 32 36  0  0  0  0  0  0  0  0999 V2000
   51.9190   27.3320   52.9970 C   0  0  0  0  0  0  0  0  0  0  0  0
   52.8950   28.2350   53.1480 C   0  0  0  0  0  0  0  0  0  0  0  0
   52.8180   29.6150   52.9270 C   0  0  0  0  0  0  0  0  0  0  0  0
   51.7330   30.3090   52.5230 C   0  0  0  0  0  0  0  0  0  0  0  0
   51.4550   30.7530   51.1390 C   0  0  0  0  0  0  0  0  0  0  0  0
   51.4460   29.9740   50.0430 N   0  0  0  0  0  0  0  0  0  0  0  0
   51.1210   30.8280   49.0480 C   0  0  0  0  0  0  0  0  0  0  0  0
   51.0130   30.4620   47.8490 O   0  0  0  0  0  0  0  0  0  0  0  0
   50.9200   32.1030   49.4420 N   0  0  0  0  0  0  0  0  0  0  0  0
   51.1320   32.0370   50.7660 C   0  0  0  0  0  0  0  0  0  0  0  0
   51.0320   33.1310   51.6160 O   0  0  0  0  0  0  0  0  0  0  0  0
   54.0880   30.1130   53.2130 C   0  0  0  0  0  0  0  0  0  0  0  0
   54.8560   29.0310   53.5950 C   0  0  0  0  0  0  0  0  0  0  0  0
   56.3140   29.0790   53.9360 C   0  0  0  0  0  0  0  0  0  0  0  0
   56.7610   30.5070   54.0580 C   0  0  0  0  0  0  0  0  0  0  0  0
   56.9130   31.2860   52.9800 C   0  0  0  0  0  0  0  0  0  0  0  0
   58.0390   31.1580   52.0230 C   0  0  0  0  0  0  0  0  0  0  0  0
   58.3590   32.2560   51.2080 C   0  0  0  0  0  0  0  0  0  0  0  0
   59.4190   32.1840   50.3010 C   0  0  0  0  0  0  0  0  0  0  0  0
   60.1890   31.0160   50.1990 C   0  0  0  0  0  0  0  0  0  0  0  0
   61.2760   30.9420   49.2610 N   0  0  0  0  0  0  0  0  0  0  0  0
   62.6570   30.7620   49.7190 C   0  0  0  0  0  0  0  0  0  0  0  0
   63.5490   31.7770   48.9950 C   0  0  0  0  0  0  0  0  0  0  0  0
   63.4760   31.6830   47.5050 N   0  0  0  0  0  0  0  0  0  0  0  0
   63.6720   33.0520   46.9370 C   0  0  0  0  0  0  0  0  0  0  0  0
   63.4160   34.3010   47.7810 C   0  0  0  0  0  0  0  0  0  0  0  0
   62.3860   33.8510   46.7520 C   0  0  0  0  0  0  0  0  0  0  0  0
   62.3040   30.8960   47.0160 C   0  0  0  0  0  0  0  0  0  0  0  0
   61.0260   31.1530   47.8300 C   0  0  0  0  0  0  0  0  0  0  0  0
   59.8810   29.9200   51.0180 C   0  0  0  0  0  0  0  0  0  0  0  0
   58.8210   29.9890   51.9260 C   0  0  0  0  0  0  0  0  0  0  0  0
   54.1370   27.8950   53.5460 N   0  0  0  0  0  0  0  0  0  0  0  0
  1  2  2  0
  2  3  1  0
  3  4  2  0
  4  5  1  0
  5  6  1  0
  6  7  1  0
  7  8  2  0
  7  9  1  0
  9 10  1  0
 10 11  1  0
  3 12  1  0
 12 13  2  0
 13 14  1  0
 14 15  1  0
 15 16  2  0
 16 17  1  0
 17 18  2  0
 18 19  1  0
 19 20  2  0
 20 21  1  0
 21 22  1  0
 22 23  1  0
 23 24  1  0
 24 25  1  0
 25 26  1  0
 26 27  1  0
 24 28  1  0
 28 29  1  0
 20 30  1  0
 30 31  2  0
 13 32  1  0
 32  2  1  0
 10  5  2  0
 31 17  1  0
 29 21  1  0
 27 25  1  0
M  CHG  4   6  -1   9  -1  11  -1  24   1
M  END
>  <UniqueID>  (3191) 
86

>  <SMILES>  (3191) 
C=c1[nH]c(C/C=C/c2ccc(N3CC[NH+](C4CC4)CC3)cc2)c/c1=C\c1[n-]c(=O)[n-]c1[O-]

>  <Energy>  (3191) 
411.72898011700914

>  <Genealogy>  (3191) 
C=c1[nH]c(CC=Cc2ccc(N3CC[NH+](C4CC4)CC3)cc2)cc1=Cc1[n-]c(=O)[n-]c1[O-] (protonated)
C=c1[nH]c(C/C=C/c2ccc(N3CC[NH+](C4CC4)CC3)cc2)c/c1=C\c1[n-]c(=O)[n-]c1[O-] (cis-trans isomerization)
C=c1[nH]c(C/C=C/c2ccc(N3CC[NH+](C4CC4)CC3)cc2)c/c1=C\c1[n-]c(=O)[n-]c1[O-] (3D coordinates assigned)
C=c1[nH]c(C/C=C/c2ccc(N3CC[NH+](C4CC4)CC3)cc2)c/c1=C\c1[n-]c(=O)[n-]c1[O-] (nonaromatic ring conformer: 411.72898011700914 kcal/mol)

>  <smiles>  (3191) 
C=c1[nH]c(CC=Cc2ccc(N3CCN(C4CC4)CC3)cc2)cc1=Cc1[nH]c(=O)[nH]c1O

>  <score_type>  (3191) 
oracle

>  <origin>  (3191) 
adg

>  <m_score__min__energy>  (3191) 
-15.92

>  <m_primary>  (3191) 
energy

$$$$
10:0
     RDKit          3D

 23 25  0  0  0  0  0  0  0  0999 V2000
   53.7160   29.6550   54.9620 C   0  0  0  0  0  0  0  0  0  0  0  0
   54.2870   30.0710   53.8200 C   0  0  0  0  0  0  0  0  0  0  0  0
   53.6490   30.3060   52.5910 C   0  0  0  0  0  0  0  0  0  0  0  0
   52.3420   30.3850   52.2730 C   0  0  0  0  0  0  0  0  0  0  0  0
   51.8000   30.8270   50.9770 C   0  0  0  0  0  0  0  0  0  0  0  0
   51.6910   30.0470   49.8850 N   0  0  0  0  0  0  0  0  0  0  0  0
   51.0190   30.8270   49.0100 C   0  0  0  0  0  0  0  0  0  0  0  0
   50.7330   30.4480   47.8460 O   0  0  0  0  0  0  0  0  0  0  0  0
   50.6690   32.0410   49.4870 N   0  0  0  0  0  0  0  0  0  0  0  0
   51.1570   32.0160   50.7380 C   0  0  0  0  0  0  0  0  0  0  0  0
   51.0150   33.0600   51.6440 O   0  0  0  0  0  0  0  0  0  0  0  0
   54.6580   30.4840   51.6600 C   0  0  0  0  0  0  0  0  0  0  0  0
   55.8520   30.4060   52.3430 C   0  0  0  0  0  0  0  0  0  0  0  0
   57.1740   30.5620   51.7070 C   0  0  0  0  0  0  0  0  0  0  0  0
   57.8060   29.5260   51.3670 O   0  0  0  0  0  0  0  0  0  0  0  0
   57.7730   31.8590   51.5180 N   0  0  0  0  0  0  0  0  0  0  0  0
   57.4100   33.0010   52.3650 C   0  0  0  0  0  0  0  0  0  0  0  0
   58.6550   33.8480   52.6430 C   0  0  0  0  0  0  0  0  0  0  0  0
   59.3020   34.2000   51.4340 O   0  0  0  0  0  0  0  0  0  0  0  0
   59.8020   33.0360   50.8020 C   0  0  0  0  0  0  0  0  0  0  0  0
   58.6560   32.1130   50.3750 C   0  0  0  0  0  0  0  0  0  0  0  0
   55.6300   30.1830   53.6600 N   0  0  0  0  0  0  0  0  0  0  0  0
   56.6440   30.0940   54.7170 C   0  0  0  0  0  0  0  0  0  0  0  0
  1  2  2  0
  2  3  1  0
  3  4  2  0
  4  5  1  0
  5  6  1  0
  6  7  1  0
  7  8  2  0
  7  9  1  0
  9 10  1  0
 10 11  1  0
  3 12  1  0
 12 13  2  0
 13 14  1  0
 14 15  2  0
 14 16  1  0
 16 17  1  0
 17 18  1  0
 18 19  1  0
 19 20  1  0
 20 21  1  0
 13 22  1  0
 22 23  1  0
 22  2  1  0
 10  5  2  0
 21 16  1  0
M  CHG  3   6  -1   9  -1  11  -1
M  END
>  <UniqueID>  (3192) 
11

>  <SMILES>  (3192) 
C=c1/c(=C\c2[n-]c(=O)[n-]c2[O-])cc(C(=O)N2CCOCC2)n1C

>  <Energy>  (3192) 
115.82229204998531

>  <Genealogy>  (3192) 
C=c1c(=Cc2[n-]c(=O)[n-]c2[O-])cc(C(=O)N2CCOCC2)n1C (protonated)
C=c1/c(=C\c2[n-]c(=O)[n-]c2[O-])cc(C(=O)N2CCOCC2)n1C (cis-trans isomerization)
C=c1/c(=C\c2[n-]c(=O)[n-]c2[O-])cc(C(=O)N2CCOCC2)n1C (3D coordinates assigned)
C=c1/c(=C\c2[n-]c(=O)[n-]c2[O-])cc(C(=O)N2CCOCC2)n1C (nonaromatic ring conformer: 115.82229204998531 kcal/mol)

>  <smiles>  (3192) 
C=c1c(=Cc2[nH]c(=O)[nH]c2O)cc(C(=O)N2CCOCC2)n1C

>  <score_type>  (3192) 
oracle

>  <origin>  (3192) 
adg

>  <m_score__min__energy>  (3192) 
-16.77

>  <m_primary>  (3192) 
energy

$$$$
13:0
     RDKit          3D

 24 25  0  0  0  0  0  0  0  0999 V2000
   59.2310   34.4510   44.8990 C   0  0  0  0  0  0  0  0  0  0  0  0
   58.3620   33.4320   44.8120 C   0  0  0  0  0  0  0  0  0  0  0  0
   58.1120   32.7900   43.4740 C   0  0  0  0  0  0  0  0  0  0  0  0
   57.6840   32.9000   46.0520 C   0  0  0  0  0  0  0  0  0  0  0  0
   58.1680   31.5150   46.4070 C   0  0  0  0  0  0  0  0  0  0  0  0
   57.8080   30.3840   45.7030 C   0  0  0  0  0  0  0  0  0  0  0  0
   58.4980   29.3230   46.2640 C   0  0  0  0  0  0  0  0  0  0  0  0
   58.4620   28.0420   45.8480 C   0  0  0  0  0  0  0  0  0  0  0  0
   57.2790   27.1710   45.9620 C   0  0  0  0  0  0  0  0  0  0  0  0
   57.3100   25.9590   46.5440 N   0  0  0  0  0  0  0  0  0  0  0  0
   56.0200   25.5600   46.5090 C   0  0  0  0  0  0  0  0  0  0  0  0
   55.6410   24.4470   46.9570 O   0  0  0  0  0  0  0  0  0  0  0  0
   55.1660   26.4530   45.9630 N   0  0  0  0  0  0  0  0  0  0  0  0
   55.9750   27.4720   45.6340 C   0  0  0  0  0  0  0  0  0  0  0  0
   55.5220   28.6690   45.0910 O   0  0  0  0  0  0  0  0  0  0  0  0
   59.2750   29.8620   47.2960 C   0  0  0  0  0  0  0  0  0  0  0  0
   60.1270   29.1750   48.0750 C   0  0  0  0  0  0  0  0  0  0  0  0
   59.0500   31.2020   47.3910 N   0  0  0  0  0  0  0  0  0  0  0  0
   59.6180   32.1440   48.3750 C   0  0  0  0  0  0  0  0  0  0  0  0
   60.7960   32.9410   47.7910 C   0  0  0  0  0  0  0  0  0  0  0  0
   61.8810   32.0420   47.1620 C   0  0  0  0  0  0  0  0  0  0  0  0
   63.2400   32.6290   47.1760 N   0  0  0  0  0  0  0  0  0  0  0  0
   63.3370   33.8790   46.4060 C   0  0  0  0  0  0  0  0  0  0  0  0
   63.7810   32.7960   48.5340 C   0  0  0  0  0  0  0  0  0  0  0  0
  1  2  2  0
  2  3  1  0
  2  4  1  0
  4  5  1  0
  5  6  2  0
  6  7  1  0
  7  8  2  3
  8  9  1  0
  9 10  1  0
 10 11  1  0
 11 12  2  0
 11 13  1  0
 13 14  1  0
 14 15  1  0
  7 16  1  0
 16 17  2  0
 16 18  1  0
 18 19  1  0
 19 20  1  0
 20 21  1  0
 21 22  1  0
 22 23  1  0
 22 24  1  0
 18  5  1  0
 14  9  2  0
M  CHG  3  10  -1  13  -1  15  -1
M  END
>  <UniqueID>  (3193) 
14

>  <SMILES>  (3193) 
C=C(C)Cc1cc(=Cc2[n-]c(=O)[n-]c2[O-])c(=C)n1CCCN(C)C

>  <Energy>  (3193) 
106.69811362792032

>  <Genealogy>  (3193) 
C=C(C)Cc1cc(=Cc2[n-]c(=O)[n-]c2[O-])c(=C)n1CCCN(C)C (protonated)
C=C(C)Cc1cc(=Cc2[n-]c(=O)[n-]c2[O-])c(=C)n1CCCN(C)C (3D coordinates assigned)
C=C(C)Cc1cc(=Cc2[n-]c(=O)[n-]c2[O-])c(=C)n1CCCN(C)C (optimized conformer: 106.69811362792032 kcal/mol)

>  <smiles>  (3193) 
C=C(C)Cc1cc(=Cc2[nH]c(=O)[nH]c2O)c(=C)n1CCCN(C)C

>  <score_type>  (3193) 
oracle

>  <origin>  (3193) 
adg

>  <m_score__min__energy>  (3193) 
-14.75

>  <m_primary>  (3193) 
energy

$$$$
15:0
     RDKit          3D

 38 42  0  0  0  0  0  0  0  0999 V2000
   57.7660   26.3420   42.9800 C   0  0  0  0  0  0  0  0  0  0  0  0
   57.8650   26.2860   44.3190 C   0  0  0  0  0  0  0  0  0  0  0  0
   57.1760   25.4020   45.1660 C   0  0  0  0  0  0  0  0  0  0  0  0
   56.4870   24.2750   44.8970 C   0  0  0  0  0  0  0  0  0  0  0  0
   55.0380   24.0870   45.0870 C   0  0  0  0  0  0  0  0  0  0  0  0
   54.3880   22.9190   44.9410 N   0  0  0  0  0  0  0  0  0  0  0  0
   53.1260   23.2150   45.3230 C   0  0  0  0  0  0  0  0  0  0  0  0
   52.1960   22.3690   45.3030 O   0  0  0  0  0  0  0  0  0  0  0  0
   52.9390   24.4870   45.7330 N   0  0  0  0  0  0  0  0  0  0  0  0
   54.1650   25.0200   45.5910 C   0  0  0  0  0  0  0  0  0  0  0  0
   54.4810   26.3310   45.9240 O   0  0  0  0  0  0  0  0  0  0  0  0
   57.3500   25.8830   46.4490 C   0  0  0  0  0  0  0  0  0  0  0  0
   58.1980   26.9670   46.3600 C   0  0  0  0  0  0  0  0  0  0  0  0
   58.6070   27.8140   47.5290 C   0  0  0  0  0  0  0  0  0  0  0  0
   58.5260   27.2100   45.0690 N   0  0  0  0  0  0  0  0  0  0  0  0
   59.4250   28.2830   44.6090 C   0  0  0  0  0  0  0  0  0  0  0  0
   58.8270   29.6420   44.8630 C   0  0  0  0  0  0  0  0  0  0  0  0
   57.5800   29.9830   44.3160 C   0  0  0  0  0  0  0  0  0  0  0  0
   57.0390   31.2510   44.5390 C   0  0  0  0  0  0  0  0  0  0  0  0
   57.7360   32.1900   45.3050 C   0  0  0  0  0  0  0  0  0  0  0  0
   58.9910   31.8690   45.8510 C   0  0  0  0  0  0  0  0  0  0  0  0
   59.7350   32.8440   46.6810 C   0  0  0  0  0  0  0  0  0  0  0  0
   59.1140   33.8350   47.1570 O   0  0  0  0  0  0  0  0  0  0  0  0
   61.1410   32.6960   46.9590 N   0  0  0  0  0  0  0  0  0  0  0  0
   61.9420   33.9030   47.2140 C   0  0  0  0  0  0  0  0  0  0  0  0
   63.4170   33.5630   47.4530 C   0  0  0  0  0  0  0  0  0  0  0  0
   63.5920   32.4890   48.5510 C   0  0  0  0  0  0  0  0  0  0  0  0
   63.5960   33.1530   49.9230 C   0  0  0  0  0  0  0  0  0  0  0  0
   62.5020   33.5510   50.4140 O   0  0  0  0  0  0  0  0  0  0  0  0
   64.8280   33.4530   50.6260 N   0  0  0  0  0  0  0  0  0  0  0  0
   64.7900   34.5230   51.6410 C   0  0  0  0  0  0  0  0  0  0  0  0
   66.1600   34.8280   52.2710 C   0  0  0  0  0  0  0  0  0  0  0  0
   67.2150   34.5720   51.3710 O   0  0  0  0  0  0  0  0  0  0  0  0
   67.2580   33.1900   51.1140 C   0  0  0  0  0  0  0  0  0  0  0  0
   66.0840   32.7910   50.2260 C   0  0  0  0  0  0  0  0  0  0  0  0
   62.5480   31.3320   48.4420 C   0  0  0  0  0  0  0  0  0  0  0  0
   61.7520   31.3690   47.1330 C   0  0  0  0  0  0  0  0  0  0  0  0
   59.5240   30.5890   45.6320 C   0  0  0  0  0  0  0  0  0  0  0  0
  1  2  2  0
  2  3  1  0
  3  4  2  3
  4  5  1  0
  5  6  1  0
  6  7  1  0
  7  8  2  0
  7  9  1  0
  9 10  1  0
 10 11  1  0
  3 12  1  0
 12 13  2  0
 13 14  1  0
 13 15  1  0
 15 16  1  0
 16 17  1  0
 17 18  2  0
 18 19  1  0
 19 20  2  0
 20 21  1  0
 21 22  1  0
 22 23  2  0
 22 24  1  0
 24 25  1  0
 25 26  1  0
 26 27  1  0
 27 28  1  0
 28 29  2  0
 28 30  1  0
 30 31  1  0
 31 32  1  0
 32 33  1  0
 33 34  1  0
 34 35  1  0
 27 36  1  0
 36 37  1  0
 21 38  2  0
 15  2  1  0
 38 17  1  0
 10  5  2  0
 37 24  1  0
 35 30  1  0
M  CHG  3   6  -1   9  -1  11  -1
M  END
>  <UniqueID>  (3194) 
16

>  <SMILES>  (3194) 
C=c1c(=Cc2[n-]c(=O)[n-]c2[O-])cc(C)n1Cc1cccc(C(=O)N2CCC(C(=O)N3CCOCC3)CC2)c1

>  <Energy>  (3194) 
153.37229530869604

>  <Genealogy>  (3194) 
C=c1c(=Cc2[n-]c(=O)[n-]c2[O-])cc(C)n1Cc1cccc(C(=O)N2CCC(C(=O)N3CCOCC3)CC2)c1 (protonated)
C=c1c(=Cc2[n-]c(=O)[n-]c2[O-])cc(C)n1Cc1cccc(C(=O)N2CCC(C(=O)N3CCOCC3)CC2)c1 (3D coordinates assigned)
C=c1c(=Cc2[n-]c(=O)[n-]c2[O-])cc(C)n1Cc1cccc(C(=O)N2CCC(C(=O)N3CCOCC3)CC2)c1 (nonaromatic ring conformer: 153.37229530869604 kcal/mol)

>  <smiles>  (3194) 
C=c1c(=Cc2[nH]c(=O)[nH]c2O)cc(C)n1Cc1cccc(C(=O)N2CCC(C(=O)N3CCOCC3)CC2)c1

>  <score_type>  (3194) 
oracle

>  <origin>  (3194) 
adg

>  <m_score__min__energy>  (3194) 
-19.210000000000001

>  <m_primary>  (3194) 
energy

$$$$
17:0
     RDKit          3D

 37 41  0  0  0  0  0  0  0  0999 V2000
   57.5860   34.2150   44.8670 C   0  0  0  0  0  0  0  0  0  0  0  0
   57.8600   32.9140   44.9320 C   0  0  0  0  0  0  0  0  0  0  0  0
   57.5070   31.8190   43.7070 S   0  0  0  0  0  0  0  0  0  0  0  0
   58.0000   30.4430   44.5390 C   0  0  0  0  0  0  0  0  0  0  0  0
   57.8910   29.2000   44.0500 C   0  0  0  0  0  0  0  0  0  0  0  0
   57.3300   28.0430   44.7950 C   0  0  0  0  0  0  0  0  0  0  0  0
   56.0050   28.0310   45.2480 C   0  0  0  0  0  0  0  0  0  0  0  0
   55.1460   29.0960   44.9980 O   0  0  0  0  0  0  0  0  0  0  0  0
   55.5330   26.9500   45.9120 N   0  0  0  0  0  0  0  0  0  0  0  0
   56.2940   25.8460   46.1090 C   0  0  0  0  0  0  0  0  0  0  0  0
   55.7970   24.8720   46.7400 O   0  0  0  0  0  0  0  0  0  0  0  0
   57.5740   25.7860   45.6160 N   0  0  0  0  0  0  0  0  0  0  0  0
   58.3450   24.5280   45.7100 C   0  0  0  0  0  0  0  0  0  0  0  0
   57.8050   23.5110   44.7320 C   0  0  0  0  0  0  0  0  0  0  0  0
   56.8510   23.8850   43.7680 C   0  0  0  0  0  0  0  0  0  0  0  0
   56.3120   22.9290   42.8960 C   0  0  0  0  0  0  0  0  0  0  0  0
   56.7120   21.5930   42.9880 C   0  0  0  0  0  0  0  0  0  0  0  0
   57.6540   21.2110   43.9480 C   0  0  0  0  0  0  0  0  0  0  0  0
   58.2000   22.1650   44.8160 C   0  0  0  0  0  0  0  0  0  0  0  0
   58.0970   26.8760   44.9640 C   0  0  0  0  0  0  0  0  0  0  0  0
   59.2760   26.8410   44.5150 O   0  0  0  0  0  0  0  0  0  0  0  0
   58.4970   30.8310   45.7850 C   0  0  0  0  0  0  0  0  0  0  0  0
   58.4120   32.2130   46.0140 C   0  0  0  0  0  0  0  0  0  0  0  0
   58.7410   32.7920   47.3350 C   0  0  0  0  0  0  0  0  0  0  0  0
   57.7730   33.1250   48.0730 O   0  0  0  0  0  0  0  0  0  0  0  0
   60.0940   32.8840   47.8620 N   0  0  0  0  0  0  0  0  0  0  0  0
   60.1370   33.8490   48.9860 C   0  0  0  0  0  0  0  0  0  0  0  0
   61.5680   34.3100   49.3180 C   0  0  0  0  0  0  0  0  0  0  0  0
   62.5460   33.2720   48.9270 N   0  0  0  0  0  0  0  0  0  0  0  0
   63.9050   33.5800   49.4700 C   0  0  0  0  0  0  0  0  0  0  0  0
   63.7960   34.0700   50.9430 C   0  0  0  0  0  0  0  0  0  0  0  0
   65.0980   33.8730   51.7380 C   0  0  0  0  0  0  0  0  0  0  0  0
   66.2060   33.8640   50.8660 O   0  0  0  0  0  0  0  0  0  0  0  0
   66.2160   32.6610   50.1180 C   0  0  0  0  0  0  0  0  0  0  0  0
   64.8590   32.3570   49.4320 C   0  0  0  0  0  0  0  0  0  0  0  0
   62.5350   33.1200   47.4470 C   0  0  0  0  0  0  0  0  0  0  0  0
   61.1140   33.2120   46.8460 C   0  0  0  0  0  0  0  0  0  0  0  0
  1  2  2  0
  2  3  1  0
  3  4  1  0
  4  5  2  3
  5  6  1  0
  6  7  2  0
  7  8  1  0
  7  9  1  0
  9 10  1  0
 10 11  2  0
 10 12  1  0
 12 13  1  0
 13 14  1  0
 14 15  2  0
 15 16  1  0
 16 17  2  0
 17 18  1  0
 18 19  2  0
 12 20  1  0
 20 21  2  0
  4 22  1  0
 22 23  2  0
 23 24  1  0
 24 25  2  0
 24 26  1  0
 26 27  1  0
 27 28  1  0
 28 29  1  0
 29 30  1  0
 30 31  1  0
 31 32  1  0
 32 33  1  0
 33 34  1  0
 34 35  1  0
 29 36  1  0
 36 37  1  0
 23  2  1  0
 37 26  1  0
 20  6  1  0
 35 30  1  0
 19 14  1  0
M  CHG  3   8  -1   9  -1  26   1
M  END
>  <UniqueID>  (3195) 
18

>  <SMILES>  (3195) 
C=c1sc(=Cc2c([O-])[n-]c(=O)n(Cc3ccccc3)c2=O)cc1C(=O)[NH+]1CCN(C2CCOCC2)CC1

>  <Energy>  (3195) 
142.37455574867766

>  <Genealogy>  (3195) 
C=c1sc(=Cc2c([O-])[n-]c(=O)n(Cc3ccccc3)c2=O)cc1C(=O)[NH+]1CCN(C2CCOCC2)CC1 (protonated)
C=c1sc(=Cc2c([O-])[n-]c(=O)n(Cc3ccccc3)c2=O)cc1C(=O)[NH+]1CCN(C2CCOCC2)CC1 (3D coordinates assigned)
C=c1sc(=Cc2c([O-])[n-]c(=O)n(Cc3ccccc3)c2=O)cc1C(=O)[NH+]1CCN(C2CCOCC2)CC1 (nonaromatic ring conformer: 142.37455574867766 kcal/mol)

>  <smiles>  (3195) 
C=c1sc(=Cc2c(O)[nH]c(=O)n(Cc3ccccc3)c2=O)cc1C(=O)N1CCN(C2CCOCC2)CC1

>  <score_type>  (3195) 
oracle

>  <origin>  (3195) 
adg

>  <m_score__min__energy>  (3195) 
-14.76

>  <m_primary>  (3195) 
energy

$$$$
19:0
     RDKit          3D

 28 30  0  0  0  0  0  0  0  0999 V2000
   53.0780   27.9410   53.4240 C   0  0  0  0  0  0  0  0  0  0  0  0
   53.9590   28.8950   53.0950 C   0  0  0  0  0  0  0  0  0  0  0  0
   55.2100   28.7780   53.6170 N   0  0  0  0  0  0  0  0  0  0  0  0
   56.2290   29.5310   53.2070 N   0  0  0  0  0  0  0  0  0  0  0  0
   56.0850   30.4470   52.2180 C   0  0  0  0  0  0  0  0  0  0  0  0
   57.2650   31.2090   51.7620 C   0  0  0  0  0  0  0  0  0  0  0  0
   57.1060   32.1740   50.9670 O   0  0  0  0  0  0  0  0  0  0  0  0
   58.5890   30.8810   52.2110 N   0  0  0  0  0  0  0  0  0  0  0  0
   59.4240   31.9420   52.7900 C   0  0  0  0  0  0  0  0  0  0  0  0
   60.8720   31.4810   52.9870 C   0  0  0  0  0  0  0  0  0  0  0  0
   60.9080   30.1310   53.5700 N   0  0  0  0  0  0  0  0  0  0  0  0
   61.8720   29.7890   54.5830 C   0  0  0  0  0  0  0  0  0  0  0  0
   62.6990   30.6520   54.9910 O   0  0  0  0  0  0  0  0  0  0  0  0
   61.9010   28.4900   55.1040 O   0  0  0  0  0  0  0  0  0  0  0  0
   62.6630   27.4290   54.5320 C   0  0  0  0  0  0  0  0  0  0  0  0
   63.3300   27.8830   53.2380 C   0  0  0  0  0  0  0  0  0  0  0  0
   60.0400   29.0720   53.0360 C   0  0  0  0  0  0  0  0  0  0  0  0
   59.1690   29.5750   51.8800 C   0  0  0  0  0  0  0  0  0  0  0  0
   54.8240   30.6290   51.6430 C   0  0  0  0  0  0  0  0  0  0  0  0
   53.7100   29.9200   52.1310 C   0  0  0  0  0  0  0  0  0  0  0  0
   52.4900   30.2880   51.6600 C   0  0  0  0  0  0  0  0  0  0  0  0
   51.6110   31.3240   52.2350 C   0  0  0  0  0  0  0  0  0  0  0  0
   51.3870   31.5020   53.5500 N   0  0  0  0  0  0  0  0  0  0  0  0
   50.6210   32.6130   53.5870 C   0  0  0  0  0  0  0  0  0  0  0  0
   50.1850   33.0980   54.6630 O   0  0  0  0  0  0  0  0  0  0  0  0
   50.3650   33.1660   52.3830 N   0  0  0  0  0  0  0  0  0  0  0  0
   51.0100   32.3440   51.5410 C   0  0  0  0  0  0  0  0  0  0  0  0
   51.0520   32.5250   50.1640 O   0  0  0  0  0  0  0  0  0  0  0  0
  1  2  2  0
  2  3  1  0
  3  4  2  0
  4  5  1  0
  5  6  1  0
  6  7  2  0
  6  8  1  0
  8  9  1  0
  9 10  1  0
 10 11  1  0
 11 12  1  0
 12 13  2  0
 12 14  1  0
 14 15  1  0
 15 16  1  0
 11 17  1  0
 17 18  1  0
  5 19  2  0
 19 20  1  0
 20 21  2  3
 21 22  1  0
 22 23  1  0
 23 24  1  0
 24 25  2  0
 24 26  1  0
 26 27  1  0
 27 28  1  0
 20  2  1  0
 27 22  2  0
 18  8  1  0
M  CHG  3  23  -1  26  -1  28  -1
M  END
>  <UniqueID>  (3196) 
20

>  <SMILES>  (3196) 
C=c1nnc(C(=O)N2CCN(C(=O)OCC)CC2)cc1=Cc1[n-]c(=O)[n-]c1[O-]

>  <Energy>  (3196) 
94.94741319178797

>  <Genealogy>  (3196) 
C=c1nnc(C(=O)N2CCN(C(=O)OCC)CC2)cc1=Cc1[n-]c(=O)[n-]c1[O-] (protonated)
C=c1nnc(C(=O)N2CCN(C(=O)OCC)CC2)cc1=Cc1[n-]c(=O)[n-]c1[O-] (3D coordinates assigned)
C=c1nnc(C(=O)N2CCN(C(=O)OCC)CC2)cc1=Cc1[n-]c(=O)[n-]c1[O-] (nonaromatic ring conformer: 94.94741319178797 kcal/mol)

>  <smiles>  (3196) 
C=c1nnc(C(=O)N2CCN(C(=O)OCC)CC2)cc1=Cc1[nH]c(=O)[nH]c1O

>  <score_type>  (3196) 
oracle

>  <origin>  (3196) 
adg

>  <m_score__min__energy>  (3196) 
-16.449999999999999

>  <m_primary>  (3196) 
energy

$$$$
37:0
     RDKit          3D

 26 27  0  0  0  0  0  0  0  0999 V2000
   56.8530   30.7560   42.6100 O   0  0  0  0  0  0  0  0  0  0  0  0
   57.0740   31.2130   43.7640 C   0  0  0  0  0  0  0  0  0  0  0  0
   57.8200   32.4990   43.9300 C   0  0  0  0  0  0  0  0  0  0  0  0
   57.1180   33.3610   44.8750 N   0  0  0  0  0  0  0  0  0  0  0  0
   57.6090   33.6600   46.1870 C   0  0  0  0  0  0  0  0  0  0  0  0
   57.0210   33.2060   47.2060 O   0  0  0  0  0  0  0  0  0  0  0  0
   58.7900   34.5140   46.3490 C   0  0  0  0  0  0  0  0  0  0  0  0
   59.2820   35.0990   45.3480 O   0  0  0  0  0  0  0  0  0  0  0  0
   59.3640   34.6910   47.6480 N   0  0  0  0  0  0  0  0  0  0  0  0
   60.5410   33.9660   48.1150 C   0  0  0  0  0  0  0  0  0  0  0  0
   60.2880   32.4820   48.0650 C   0  0  0  0  0  0  0  0  0  0  0  0
   59.1550   31.9520   48.7050 C   0  0  0  0  0  0  0  0  0  0  0  0
   58.9170   30.5740   48.6950 C   0  0  0  0  0  0  0  0  0  0  0  0
   59.8110   29.7150   48.0520 C   0  0  0  0  0  0  0  0  0  0  0  0
   60.9440   30.2310   47.4170 C   0  0  0  0  0  0  0  0  0  0  0  0
   61.1870   31.6090   47.4220 C   0  0  0  0  0  0  0  0  0  0  0  0
   62.2950   32.0850   46.8020 F   0  0  0  0  0  0  0  0  0  0  0  0
   56.5870   30.5270   44.9190 N   0  0  0  0  0  0  0  0  0  0  0  0
   55.9420   29.2240   44.8620 C   0  0  0  0  0  0  0  0  0  0  0  0
   56.9140   28.1730   45.3220 C   0  0  0  0  0  0  0  0  0  0  0  0
   58.2970   28.4090   45.2450 C   0  0  0  0  0  0  0  0  0  0  0  0
   59.2040   27.4470   45.6990 C   0  0  0  0  0  0  0  0  0  0  0  0
   58.7380   26.2460   46.2410 C   0  0  0  0  0  0  0  0  0  0  0  0
   57.3650   26.0060   46.3320 C   0  0  0  0  0  0  0  0  0  0  0  0
   56.4510   26.9640   45.8790 C   0  0  0  0  0  0  0  0  0  0  0  0
   55.0880   26.7120   45.9910 O   0  0  0  0  0  0  0  0  0  0  0  0
  1  2  2  0
  2  3  1  0
  3  4  1  0
  4  5  1  0
  5  6  2  0
  5  7  1  0
  7  8  2  0
  7  9  1  0
  9 10  1  0
 10 11  1  0
 11 12  2  0
 12 13  1  0
 13 14  2  0
 14 15  1  0
 15 16  2  0
 16 17  1  0
  2 18  1  0
 18 19  1  0
 19 20  1  0
 20 21  2  0
 21 22  1  0
 22 23  2  0
 23 24  1  0
 24 25  2  0
 25 26  1  0
 16 11  1  0
 25 20  1  0
M  CHG  4   4  -1   9  -1  18  -1  26  -1
M  END
>  <UniqueID>  (3197) 
35

>  <SMILES>  (3197) 
O=C(C[N-]C(=O)C(=O)[N-]Cc1ccccc1F)[N-]Cc1ccccc1[O-]

>  <Energy>  (3197) 
30.498377561530138

>  <Genealogy>  (3197) 
O=C(C[N-]C(=O)C(=O)[N-]Cc1ccccc1F)[N-]Cc1ccccc1[O-] (protonated)
O=C(C[N-]C(=O)C(=O)[N-]Cc1ccccc1F)[N-]Cc1ccccc1[O-] (3D coordinates assigned)
O=C(C[N-]C(=O)C(=O)[N-]Cc1ccccc1F)[N-]Cc1ccccc1[O-] (optimized conformer: 30.498377561530138 kcal/mol)

>  <smiles>  (3197) 
O=C(CNC(=O)C(=O)NCc1ccccc1F)NCc1ccccc1O

>  <score_type>  (3197) 
oracle

>  <origin>  (3197) 
adg

>  <m_score__min__energy>  (3197) 
-15.25

>  <m_primary>  (3197) 
energy

$$$$
53:0
     RDKit          3D

 31 34  0  0  0  0  0  0  0  0999 V2000
   57.5610   33.6420   44.8310 C   0  0  0  0  0  0  0  0  0  0  0  0
   57.5330   32.3760   45.2540 C   0  0  0  0  0  0  0  0  0  0  0  0
   56.9660   31.3870   44.5270 N   0  0  0  0  0  0  0  0  0  0  0  0
   57.1570   30.2650   45.2540 C   0  0  0  0  0  0  0  0  0  0  0  0
   56.7300   29.0630   44.8310 C   0  0  0  0  0  0  0  0  0  0  0  0
   57.2600   27.7520   45.2500 C   0  0  0  0  0  0  0  0  0  0  0  0
   58.5660   27.4060   45.2790 N   0  0  0  0  0  0  0  0  0  0  0  0
   58.5630   26.1690   45.8220 C   0  0  0  0  0  0  0  0  0  0  0  0
   59.6140   25.4960   45.9930 O   0  0  0  0  0  0  0  0  0  0  0  0
   57.3330   25.7300   46.1610 N   0  0  0  0  0  0  0  0  0  0  0  0
   56.9620   24.4280   46.7140 C   0  0  0  0  0  0  0  0  0  0  0  0
   56.9160   23.3980   45.6200 C   0  0  0  0  0  0  0  0  0  0  0  0
   57.1520   22.0440   45.9110 C   0  0  0  0  0  0  0  0  0  0  0  0
   57.0760   21.0820   44.8980 C   0  0  0  0  0  0  0  0  0  0  0  0
   56.7570   21.4640   43.5930 C   0  0  0  0  0  0  0  0  0  0  0  0
   56.5080   22.8070   43.2980 C   0  0  0  0  0  0  0  0  0  0  0  0
   56.5820   23.7720   44.3070 C   0  0  0  0  0  0  0  0  0  0  0  0
   56.5140   26.7310   45.8010 C   0  0  0  0  0  0  0  0  0  0  0  0
   55.1330   26.7210   45.9650 O   0  0  0  0  0  0  0  0  0  0  0  0
   57.8560   30.6040   46.4040 C   0  0  0  0  0  0  0  0  0  0  0  0
   58.2400   29.8220   47.3130 O   0  0  0  0  0  0  0  0  0  0  0  0
   58.0890   31.9300   46.4080 N   0  0  0  0  0  0  0  0  0  0  0  0
   58.7450   32.6920   47.4370 C   0  0  0  0  0  0  0  0  0  0  0  0
   58.6080   32.3610   48.6470 O   0  0  0  0  0  0  0  0  0  0  0  0
   59.5970   33.8810   47.0960 C   0  0  0  0  0  0  0  0  0  0  0  0
   61.0420   33.5890   47.3980 C   0  0  0  0  0  0  0  0  0  0  0  0
   61.4290   33.1610   48.6790 C   0  0  0  0  0  0  0  0  0  0  0  0
   62.7780   32.9240   48.9640 C   0  0  0  0  0  0  0  0  0  0  0  0
   63.7480   33.1230   47.9780 C   0  0  0  0  0  0  0  0  0  0  0  0
   63.3720   33.5620   46.7050 C   0  0  0  0  0  0  0  0  0  0  0  0
   62.0250   33.7990   46.4150 C   0  0  0  0  0  0  0  0  0  0  0  0
  1  2  2  0
  2  3  1  0
  3  4  1  0
  4  5  2  3
  5  6  1  0
  6  7  1  0
  7  8  1  0
  8  9  2  0
  8 10  1  0
 10 11  1  0
 11 12  1  0
 12 13  2  0
 13 14  1  0
 14 15  2  0
 15 16  1  0
 16 17  2  0
 10 18  1  0
 18 19  1  0
  4 20  1  0
 20 21  2  0
 20 22  1  0
 22 23  1  0
 23 24  2  0
 23 25  1  0
 25 26  1  0
 26 27  2  0
 27 28  1  0
 28 29  2  0
 29 30  1  0
 30 31  2  0
 22  2  1  0
 31 26  1  0
 18  6  2  0
 17 12  1  0
M  CHG  3   3  -1   7  -1  19  -1
M  END
>  <UniqueID>  (3198) 
50

>  <SMILES>  (3198) 
C=c1[n-]c(=Cc2[n-]c(=O)n(Cc3ccccc3)c2[O-])c(=O)n1C(=O)Cc1ccccc1

>  <Energy>  (3198) 
125.66358498853745

>  <Genealogy>  (3198) 
C=c1[n-]c(=Cc2[n-]c(=O)n(Cc3ccccc3)c2[O-])c(=O)n1C(=O)Cc1ccccc1 (protonated)
C=c1[n-]c(=Cc2[n-]c(=O)n(Cc3ccccc3)c2[O-])c(=O)n1C(=O)Cc1ccccc1 (3D coordinates assigned)
C=c1[n-]c(=Cc2[n-]c(=O)n(Cc3ccccc3)c2[O-])c(=O)n1C(=O)Cc1ccccc1 (optimized conformer: 125.66358498853745 kcal/mol)

>  <smiles>  (3198) 
C=c1[nH]c(=Cc2[nH]c(=O)n(Cc3ccccc3)c2O)c(=O)n1C(=O)Cc1ccccc1

>  <score_type>  (3198) 
oracle

>  <origin>  (3198) 
adg

>  <m_score__min__energy>  (3198) 
-15.49

>  <m_primary>  (3198) 
energy

$$$$
66:0
     RDKit          3D

 29 32  0  0  0  0  0  0  0  0999 V2000
   56.9770   31.0560   42.5530 C   0  0  0  0  0  0  0  0  0  0  0  0
   57.3380   31.2410   43.8250 C   0  0  0  0  0  0  0  0  0  0  0  0
   57.1840   32.4040   44.4180 O   0  0  0  0  0  0  0  0  0  0  0  0
   57.7040   32.3510   45.6210 C   0  0  0  0  0  0  0  0  0  0  0  0
   58.2430   31.1010   45.8370 C   0  0  0  0  0  0  0  0  0  0  0  0
   58.9000   30.6750   47.0890 C   0  0  0  0  0  0  0  0  0  0  0  0
   58.2420   29.9930   47.9200 O   0  0  0  0  0  0  0  0  0  0  0  0
   60.2530   31.0610   47.3960 N   0  0  0  0  0  0  0  0  0  0  0  0
   61.1450   30.1250   48.0890 C   0  0  0  0  0  0  0  0  0  0  0  0
   61.8520   30.8370   49.2450 C   0  0  0  0  0  0  0  0  0  0  0  0
   62.4690   32.1000   48.8040 N   0  0  0  0  0  0  0  0  0  0  0  0
   63.4660   32.7310   49.6370 C   0  0  0  0  0  0  0  0  0  0  0  0
   64.8290   32.4110   49.4890 C   0  0  0  0  0  0  0  0  0  0  0  0
   65.7930   33.0270   50.2930 C   0  0  0  0  0  0  0  0  0  0  0  0
   65.4110   33.9690   51.2500 C   0  0  0  0  0  0  0  0  0  0  0  0
   66.3730   34.5780   52.0480 O   0  0  0  0  0  0  0  0  0  0  0  0
   64.0620   34.2980   51.4050 C   0  0  0  0  0  0  0  0  0  0  0  0
   63.0940   33.6860   50.6040 C   0  0  0  0  0  0  0  0  0  0  0  0
   62.1840   32.6280   47.4600 C   0  0  0  0  0  0  0  0  0  0  0  0
   60.7080   32.4280   47.0980 C   0  0  0  0  0  0  0  0  0  0  0  0
   57.9650   30.3430   44.7010 C   0  0  0  0  0  0  0  0  0  0  0  0
   58.2170   29.0230   44.5720 C   0  0  0  0  0  0  0  0  0  0  0  0
   57.4010   27.9390   45.1330 C   0  0  0  0  0  0  0  0  0  0  0  0
   58.0260   26.5770   45.8990 S   0  0  0  0  0  0  0  0  0  0  0  0
   56.5010   26.0380   46.3600 C   0  0  0  0  0  0  0  0  0  0  0  0
   56.2890   24.9750   47.0000 O   0  0  0  0  0  0  0  0  0  0  0  0
   55.5150   26.8770   45.9830 N   0  0  0  0  0  0  0  0  0  0  0  0
   56.0180   27.9470   45.3130 C   0  0  0  0  0  0  0  0  0  0  0  0
   55.2000   28.9760   44.8650 O   0  0  0  0  0  0  0  0  0  0  0  0
  1  2  2  0
  2  3  1  0
  3  4  1  0
  4  5  2  0
  5  6  1  0
  6  7  2  0
  6  8  1  0
  8  9  1  0
  9 10  1  0
 10 11  1  0
 11 12  1  0
 12 13  2  0
 13 14  1  0
 14 15  2  0
 15 16  1  0
 15 17  1  0
 17 18  2  0
 11 19  1  0
 19 20  1  0
  5 21  1  0
 21 22  2  0
 22 23  1  0
 23 24  1  0
 24 25  1  0
 25 26  2  0
 25 27  1  0
 27 28  1  0
 28 29  1  0
 21  2  1  0
 28 23  2  0
 20  8  1  0
 18 12  1  0
M  CHG  3  16  -1  27  -1  29  -1
M  END
>  <UniqueID>  (3199) 
63

>  <SMILES>  (3199) 
C=c1occ(C(=O)N2CCN(c3ccc([O-])cc3)CC2)/c1=C/c1sc(=O)[n-]c1[O-]

>  <Energy>  (3199) 
129.07730090346203

>  <Genealogy>  (3199) 
C=c1occ(C(=O)N2CCN(c3ccc([O-])cc3)CC2)c1=Cc1sc(=O)[n-]c1[O-] (protonated)
C=c1occ(C(=O)N2CCN(c3ccc([O-])cc3)CC2)/c1=C/c1sc(=O)[n-]c1[O-] (cis-trans isomerization)
C=c1occ(C(=O)N2CCN(c3ccc([O-])cc3)CC2)/c1=C/c1sc(=O)[n-]c1[O-] (3D coordinates assigned)
C=c1occ(C(=O)N2CCN(c3ccc([O-])cc3)CC2)/c1=C/c1sc(=O)[n-]c1[O-] (nonaromatic ring conformer: 129.07730090346203 kcal/mol)

>  <smiles>  (3199) 
C=c1occ(C(=O)N2CCN(c3ccc(O)cc3)CC2)c1=Cc1sc(=O)[nH]c1O

>  <score_type>  (3199) 
oracle

>  <origin>  (3199) 
adg

>  <m_score__min__energy>  (3199) 
-15.5

>  <m_primary>  (3199) 
energy

$$$$
71:0
     RDKit          3D

 30 33  0  0  0  0  0  0  0  0999 V2000
   60.0140   29.0230   47.6280 C   0  0  0  0  0  0  0  0  0  0  0  0
   59.5670   30.2220   47.2130 C   0  0  0  0  0  0  0  0  0  0  0  0
   58.6650   30.4570   46.1620 C   0  0  0  0  0  0  0  0  0  0  0  0
   58.1710   29.6360   45.2150 C   0  0  0  0  0  0  0  0  0  0  0  0
   57.4470   28.3790   45.4580 C   0  0  0  0  0  0  0  0  0  0  0  0
   58.0140   27.2910   46.0300 N   0  0  0  0  0  0  0  0  0  0  0  0
   56.9800   26.4330   46.1810 C   0  0  0  0  0  0  0  0  0  0  0  0
   57.1040   25.2850   46.6840 O   0  0  0  0  0  0  0  0  0  0  0  0
   55.8080   26.9350   45.7580 N   0  0  0  0  0  0  0  0  0  0  0  0
   54.5720   26.3370   45.8270 O   0  0  0  0  0  0  0  0  0  0  0  0
   56.0880   28.1670   45.3230 C   0  0  0  0  0  0  0  0  0  0  0  0
   55.1430   29.0740   44.8570 O   0  0  0  0  0  0  0  0  0  0  0  0
   58.3220   31.7940   46.2380 C   0  0  0  0  0  0  0  0  0  0  0  0
   59.0640   32.3420   47.2600 C   0  0  0  0  0  0  0  0  0  0  0  0
   58.9690   33.7740   47.6950 C   0  0  0  0  0  0  0  0  0  0  0  0
   59.8270   31.3940   47.8570 N   0  0  0  0  0  0  0  0  0  0  0  0
   60.6910   31.6210   49.0300 C   0  0  0  0  0  0  0  0  0  0  0  0
   61.9970   32.2510   48.6190 C   0  0  0  0  0  0  0  0  0  0  0  0
   62.1660   32.7540   47.3190 C   0  0  0  0  0  0  0  0  0  0  0  0
   63.3750   33.3430   46.9420 C   0  0  0  0  0  0  0  0  0  0  0  0
   64.4240   33.4410   47.8580 C   0  0  0  0  0  0  0  0  0  0  0  0
   64.2680   32.9570   49.1650 C   0  0  0  0  0  0  0  0  0  0  0  0
   65.3760   33.0470   50.1390 C   0  0  0  0  0  0  0  0  0  0  0  0
   66.3130   32.2060   50.0730 O   0  0  0  0  0  0  0  0  0  0  0  0
   65.3960   34.0520   51.1690 N   0  0  0  0  0  0  0  0  0  0  0  0
   64.2060   34.7100   51.6850 C   0  0  0  0  0  0  0  0  0  0  0  0
   64.6210   35.3210   53.0170 C   0  0  0  0  0  0  0  0  0  0  0  0
   66.1460   35.3690   52.9910 C   0  0  0  0  0  0  0  0  0  0  0  0
   66.5720   34.3140   51.9800 C   0  0  0  0  0  0  0  0  0  0  0  0
   63.0600   32.3450   49.5340 C   0  0  0  0  0  0  0  0  0  0  0  0
  1  2  2  0
  2  3  1  0
  3  4  2  0
  4  5  1  0
  5  6  1  0
  6  7  1  0
  7  8  2  0
  7  9  1  0
  9 10  1  0
  9 11  1  0
 11 12  1  0
  3 13  1  0
 13 14  2  0
 14 15  1  0
 14 16  1  0
 16 17  1  0
 17 18  1  0
 18 19  2  0
 19 20  1  0
 20 21  2  0
 21 22  1  0
 22 23  1  0
 23 24  2  0
 23 25  1  0
 25 26  1  0
 26 27  1  0
 27 28  1  0
 28 29  1  0
 22 30  2  0
 16  2  1  0
 30 18  1  0
 11  5  2  0
 29 25  1  0
M  CHG  3   6  -1  10  -1  12  -1
M  END
>  <UniqueID>  (3200) 
68

>  <SMILES>  (3200) 
C=c1/c(=C\c2[n-]c(=O)n([O-])c2[O-])cc(C)n1Cc1cccc(C(=O)N2CCCC2)c1

>  <Energy>  (3200) 
131.43943894712

>  <Genealogy>  (3200) 
C=c1c(=Cc2[n-]c(=O)n([O-])c2[O-])cc(C)n1Cc1cccc(C(=O)N2CCCC2)c1 (protonated)
C=c1/c(=C\c2[n-]c(=O)n([O-])c2[O-])cc(C)n1Cc1cccc(C(=O)N2CCCC2)c1 (cis-trans isomerization)
C=c1/c(=C\c2[n-]c(=O)n([O-])c2[O-])cc(C)n1Cc1cccc(C(=O)N2CCCC2)c1 (3D coordinates assigned)
C=c1/c(=C\c2[n-]c(=O)n([O-])c2[O-])cc(C)n1Cc1cccc(C(=O)N2CCCC2)c1 (nonaromatic ring conformer: 131.43943894712 kcal/mol)

>  <smiles>  (3200) 
C=c1c(=Cc2[nH]c(=O)n(O)c2O)cc(C)n1Cc1cccc(C(=O)N2CCCC2)c1

>  <score_type>  (3200) 
oracle

>  <origin>  (3200) 
adg

>  <m_score__min__energy>  (3200) 
-19.010000000000002

>  <m_primary>  (3200) 
energy

$$$$
72:0
     RDKit          3D

 33 36  0  0  0  0  0  0  0  0999 V2000
   54.0180   29.1900   54.5160 C   0  0  0  0  0  0  0  0  0  0  0  0
   54.5470   29.8850   53.4960 C   0  0  0  0  0  0  0  0  0  0  0  0
   53.8340   30.4930   52.4560 C   0  0  0  0  0  0  0  0  0  0  0  0
   52.5070   30.4360   52.2330 C   0  0  0  0  0  0  0  0  0  0  0  0
   51.8640   30.8720   50.9810 C   0  0  0  0  0  0  0  0  0  0  0  0
   51.7510   30.0860   49.8960 N   0  0  0  0  0  0  0  0  0  0  0  0
   51.0490   30.8440   49.0290 C   0  0  0  0  0  0  0  0  0  0  0  0
   50.7480   30.4500   47.8710 O   0  0  0  0  0  0  0  0  0  0  0  0
   50.6850   32.0550   49.5010 N   0  0  0  0  0  0  0  0  0  0  0  0
   51.1980   32.0550   50.7420 C   0  0  0  0  0  0  0  0  0  0  0  0
   51.0210   33.0940   51.6480 O   0  0  0  0  0  0  0  0  0  0  0  0
   54.7760   31.1220   51.6570 C   0  0  0  0  0  0  0  0  0  0  0  0
   56.0080   30.8990   52.2390 C   0  0  0  0  0  0  0  0  0  0  0  0
   57.2760   31.4290   51.6970 C   0  0  0  0  0  0  0  0  0  0  0  0
   57.6760   32.5620   52.0800 O   0  0  0  0  0  0  0  0  0  0  0  0
   58.1270   30.6320   50.7930 C   0  0  0  0  0  0  0  0  0  0  0  0
   57.9730   29.3820   50.7480 O   0  0  0  0  0  0  0  0  0  0  0  0
   59.1620   31.2490   50.0020 N   0  0  0  0  0  0  0  0  0  0  0  0
   58.9490   32.5510   49.3550 C   0  0  0  0  0  0  0  0  0  0  0  0
   60.1760   33.4430   49.5690 C   0  0  0  0  0  0  0  0  0  0  0  0
   61.4270   32.7020   49.3440 N   0  0  0  0  0  0  0  0  0  0  0  0
   62.6760   33.4160   49.3880 C   0  0  0  0  0  0  0  0  0  0  0  0
   62.7330   34.5900   48.9270 O   0  0  0  0  0  0  0  0  0  0  0  0
   63.8890   32.8190   49.9920 C   0  0  0  0  0  0  0  0  0  0  0  0
   65.1640   33.1620   49.5070 C   0  0  0  0  0  0  0  0  0  0  0  0
   66.3110   32.6120   50.0870 C   0  0  0  0  0  0  0  0  0  0  0  0
   66.1980   31.7280   51.1630 C   0  0  0  0  0  0  0  0  0  0  0  0
   64.9370   31.3940   51.6610 C   0  0  0  0  0  0  0  0  0  0  0  0
   63.7860   31.9390   51.0830 C   0  0  0  0  0  0  0  0  0  0  0  0
   61.3800   31.3080   48.8770 C   0  0  0  0  0  0  0  0  0  0  0  0
   60.3950   30.4950   49.7270 C   0  0  0  0  0  0  0  0  0  0  0  0
   55.8760   30.1190   53.3400 N   0  0  0  0  0  0  0  0  0  0  0  0
   56.9610   29.5860   54.1740 C   0  0  0  0  0  0  0  0  0  0  0  0
  1  2  2  0
  2  3  1  0
  3  4  2  0
  4  5  1  0
  5  6  1  0
  6  7  1  0
  7  8  2  0
  7  9  1  0
  9 10  1  0
 10 11  1  0
  3 12  1  0
 12 13  2  0
 13 14  1  0
 14 15  2  0
 14 16  1  0
 16 17  2  0
 16 18  1  0
 18 19  1  0
 19 20  1  0
 20 21  1  0
 21 22  1  0
 22 23  2  0
 22 24  1  0
 24 25  2  0
 25 26  1  0
 26 27  2  0
 27 28  1  0
 28 29  2  0
 21 30  1  0
 30 31  1  0
 13 32  1  0
 32 33  1  0
 32  2  1  0
 10  5  2  0
 31 18  1  0
 29 24  1  0
M  CHG  3   6  -1   9  -1  11  -1
M  END
>  <UniqueID>  (3201) 
69

>  <SMILES>  (3201) 
C=c1/c(=C/c2[n-]c(=O)[n-]c2[O-])cc(C(=O)C(=O)N2CCN(C(=O)c3ccccc3)CC2)n1C

>  <Energy>  (3201) 
134.69160674878407

>  <Genealogy>  (3201) 
C=c1c(=Cc2[n-]c(=O)[n-]c2[O-])cc(C(=O)C(=O)N2CCN(C(=O)c3ccccc3)CC2)n1C (protonated)
C=c1/c(=C/c2[n-]c(=O)[n-]c2[O-])cc(C(=O)C(=O)N2CCN(C(=O)c3ccccc3)CC2)n1C (cis-trans isomerization)
C=c1/c(=C/c2[n-]c(=O)[n-]c2[O-])cc(C(=O)C(=O)N2CCN(C(=O)c3ccccc3)CC2)n1C (3D coordinates assigned)
C=c1/c(=C/c2[n-]c(=O)[n-]c2[O-])cc(C(=O)C(=O)N2CCN(C(=O)c3ccccc3)CC2)n1C (nonaromatic ring conformer: 134.69160674878407 kcal/mol)

>  <smiles>  (3201) 
C=c1c(=Cc2[nH]c(=O)[nH]c2O)cc(C(=O)C(=O)N2CCN(C(=O)c3ccccc3)CC2)n1C

>  <score_type>  (3201) 
oracle

>  <origin>  (3201) 
adg

>  <m_score__min__energy>  (3201) 
-18.82

>  <m_primary>  (3201) 
energy

$$$$
74:0
     RDKit          3D

 25 28  0  0  0  0  0  0  0  0999 V2000
   56.0920   23.8750   44.1880 C   0  0  0  0  0  0  0  0  0  0  0  0
   56.0470   24.9540   44.9650 C   0  0  0  0  0  0  0  0  0  0  0  0
   57.1100   25.7350   45.2280 N   0  0  0  0  0  0  0  0  0  0  0  0
   56.6120   26.6920   46.0480 C   0  0  0  0  0  0  0  0  0  0  0  0
   57.3660   27.6920   46.5180 C   0  0  0  0  0  0  0  0  0  0  0  0
   57.2930   29.0730   46.0060 C   0  0  0  0  0  0  0  0  0  0  0  0
   56.2830   29.5950   45.2100 C   0  0  0  0  0  0  0  0  0  0  0  0
   55.1570   28.8920   44.8040 O   0  0  0  0  0  0  0  0  0  0  0  0
   56.5100   30.8850   44.8690 N   0  0  0  0  0  0  0  0  0  0  0  0
   57.6920   31.1730   45.4480 C   0  0  0  0  0  0  0  0  0  0  0  0
   58.3780   32.3820   45.3620 C   0  0  0  0  0  0  0  0  0  0  0  0
   59.6410   32.4820   45.9850 C   0  0  0  0  0  0  0  0  0  0  0  0
   60.3970   33.7820   45.9550 C   0  0  0  0  0  0  0  0  0  0  0  0
   61.4400   33.8000   47.0390 C   0  0  0  0  0  0  0  0  0  0  0  0
   61.0940   34.1740   48.3480 C   0  0  0  0  0  0  0  0  0  0  0  0
   62.0720   34.2260   49.3470 C   0  0  0  0  0  0  0  0  0  0  0  0
   63.4000   33.9120   49.0430 C   0  0  0  0  0  0  0  0  0  0  0  0
   63.7540   33.5500   47.7410 C   0  0  0  0  0  0  0  0  0  0  0  0
   62.7780   33.4980   46.7400 C   0  0  0  0  0  0  0  0  0  0  0  0
   60.1740   31.3650   46.6760 C   0  0  0  0  0  0  0  0  0  0  0  0
   59.4620   30.1560   46.7430 C   0  0  0  0  0  0  0  0  0  0  0  0
   58.2070   30.1010   46.1350 C   0  0  0  0  0  0  0  0  0  0  0  0
   55.2880   26.5610   46.3070 N   0  0  0  0  0  0  0  0  0  0  0  0
   54.9510   25.4580   45.6200 C   0  0  0  0  0  0  0  0  0  0  0  0
   53.7860   24.9790   45.5960 O   0  0  0  0  0  0  0  0  0  0  0  0
  1  2  2  0
  2  3  1  0
  3  4  1  0
  4  5  2  0
  5  6  1  0
  6  7  2  0
  7  8  1  0
  7  9  1  0
  9 10  1  0
 10 11  2  0
 11 12  1  0
 12 13  1  0
 13 14  1  0
 14 15  2  0
 15 16  1  0
 16 17  2  0
 17 18  1  0
 18 19  2  0
 12 20  2  0
 20 21  1  0
 21 22  2  0
  4 23  1  0
 23 24  1  0
 24 25  2  0
 24  2  1  0
 22  6  1  0
 22 10  1  0
 19 14  1  0
M  CHG  4   3  -1   8  -1   9  -1  23  -1
M  END
>  <UniqueID>  (3202) 
71

>  <SMILES>  (3202) 
C=c1[n-]/c(=C/c2c([O-])[n-]c3cc(Cc4ccccc4)ccc23)[n-]c1=O

>  <Energy>  (3202) 
108.13436162619867

>  <Genealogy>  (3202) 
C=c1[n-]c(=Cc2c([O-])[n-]c3cc(Cc4ccccc4)ccc23)[n-]c1=O (protonated)
C=c1[n-]/c(=C/c2c([O-])[n-]c3cc(Cc4ccccc4)ccc23)[n-]c1=O (cis-trans isomerization)
C=c1[n-]/c(=C/c2c([O-])[n-]c3cc(Cc4ccccc4)ccc23)[n-]c1=O (3D coordinates assigned)
C=c1[n-]/c(=C/c2c([O-])[n-]c3cc(Cc4ccccc4)ccc23)[n-]c1=O (optimized conformer: 108.13436162619867 kcal/mol)

>  <smiles>  (3202) 
C=c1[nH]c(=Cc2c(O)[nH]c3cc(Cc4ccccc4)ccc23)[nH]c1=O

>  <score_type>  (3202) 
oracle

>  <origin>  (3202) 
adg

>  <m_score__min__energy>  (3202) 
-17

>  <m_primary>  (3202) 
energy

$$$$
80:0
     RDKit          3D

 36 40  0  0  0  0  0  0  0  0999 V2000
   56.6070   29.6730   43.5160 C   0  0  0  0  0  0  0  0  0  0  0  0
   57.0210   31.0850   43.4400 C   0  0  0  0  0  0  0  0  0  0  0  0
   57.4520   31.5300   42.3440 O   0  0  0  0  0  0  0  0  0  0  0  0
   56.8570   31.9700   44.5600 N   0  0  0  0  0  0  0  0  0  0  0  0
   57.3910   33.3300   44.5760 C   0  0  0  0  0  0  0  0  0  0  0  0
   58.3630   33.4860   45.7110 C   0  0  0  0  0  0  0  0  0  0  0  0
   59.2270   34.5890   45.7540 C   0  0  0  0  0  0  0  0  0  0  0  0
   60.1140   34.7470   46.8200 C   0  0  0  0  0  0  0  0  0  0  0  0
   60.1320   33.8160   47.8620 C   0  0  0  0  0  0  0  0  0  0  0  0
   59.2600   32.7130   47.8490 C   0  0  0  0  0  0  0  0  0  0  0  0
   59.2740   31.7260   48.9570 C   0  0  0  0  0  0  0  0  0  0  0  0
   60.4100   31.0270   49.2400 N   0  0  0  0  0  0  0  0  0  0  0  0
   60.4580   30.1250   50.2550 C   0  0  0  0  0  0  0  0  0  0  0  0
   61.5290   29.5010   50.4800 O   0  0  0  0  0  0  0  0  0  0  0  0
   59.3170   29.9050   51.0370 C   0  0  0  0  0  0  0  0  0  0  0  0
   59.2760   29.0060   52.1090 C   0  0  0  0  0  0  0  0  0  0  0  0
   58.1280   28.8610   52.8210 N   0  0  0  0  0  0  0  0  0  0  0  0
   57.0040   29.5680   52.5150 C   0  0  0  0  0  0  0  0  0  0  0  0
   55.8000   29.3950   53.2910 N   0  0  0  0  0  0  0  0  0  0  0  0
   54.5470   30.0110   52.8380 C   0  0  0  0  0  0  0  0  0  0  0  0
   53.3440   29.2850   53.4460 C   0  0  0  0  0  0  0  0  0  0  0  0
   53.4820   29.1770   54.8490 O   0  0  0  0  0  0  0  0  0  0  0  0
   54.5750   28.3340   55.1500 C   0  0  0  0  0  0  0  0  0  0  0  0
   55.8950   28.9630   54.6920 C   0  0  0  0  0  0  0  0  0  0  0  0
   57.0280   30.4430   51.4700 N   0  0  0  0  0  0  0  0  0  0  0  0
   58.1530   30.6280   50.7330 C   0  0  0  0  0  0  0  0  0  0  0  0
   58.1560   31.5170   49.7070 N   0  0  0  0  0  0  0  0  0  0  0  0
   58.3770   32.5580   46.7640 C   0  0  0  0  0  0  0  0  0  0  0  0
   56.1920   29.0550   44.6320 C   0  0  0  0  0  0  0  0  0  0  0  0
   57.0420   28.2020   45.4920 C   0  0  0  0  0  0  0  0  0  0  0  0
   58.4160   28.4690   45.6380 C   0  0  0  0  0  0  0  0  0  0  0  0
   59.2210   27.6230   46.4070 C   0  0  0  0  0  0  0  0  0  0  0  0
   58.6640   26.5080   47.0390 C   0  0  0  0  0  0  0  0  0  0  0  0
   57.3040   26.2260   46.8870 C   0  0  0  0  0  0  0  0  0  0  0  0
   56.4950   27.0610   46.1070 C   0  0  0  0  0  0  0  0  0  0  0  0
   55.1460   26.7580   45.9580 O   0  0  0  0  0  0  0  0  0  0  0  0
  1  2  1  0
  2  3  2  0
  2  4  1  0
  4  5  1  0
  5  6  1  0
  6  7  2  0
  7  8  1  0
  8  9  2  0
  9 10  1  0
 10 11  1  0
 11 12  2  0
 12 13  1  0
 13 14  2  0
 13 15  1  0
 15 16  2  0
 16 17  1  0
 17 18  2  0
 18 19  1  0
 19 20  1  0
 20 21  1  0
 21 22  1  0
 22 23  1  0
 23 24  1  0
 18 25  1  0
 25 26  2  0
 26 27  1  0
 10 28  2  0
  1 29  2  0
 29 30  1  0
 30 31  2  0
 31 32  1  0
 32 33  2  0
 33 34  1  0
 34 35  2  0
 35 36  1  0
 28  6  1  0
 35 30  1  0
 27 11  1  0
 26 15  1  0
 24 19  1  0
M  CHG  2  27  -1  36  -1
M  END
>  <UniqueID>  (3203) 
76

>  <SMILES>  (3203) 
O=C(/C=C\c1ccccc1[O-])NCc1cccc(-c2nc(=O)c3cnc(N4CCOCC4)nc3[n-]2)c1

>  <Energy>  (3203) 
76.15981930053559

>  <Genealogy>  (3203) 
O=C(C=Cc1ccccc1[O-])NCc1cccc(-c2nc(=O)c3cnc(N4CCOCC4)nc3[n-]2)c1 (protonated)
O=C(/C=C\c1ccccc1[O-])NCc1cccc(-c2nc(=O)c3cnc(N4CCOCC4)nc3[n-]2)c1 (cis-trans isomerization)
O=C(/C=C\c1ccccc1[O-])NCc1cccc(-c2nc(=O)c3cnc(N4CCOCC4)nc3[n-]2)c1 (3D coordinates assigned)
O=C(/C=C\c1ccccc1[O-])NCc1cccc(-c2nc(=O)c3cnc(N4CCOCC4)nc3[n-]2)c1 (nonaromatic ring conformer: 76.15981930053559 kcal/mol)

>  <smiles>  (3203) 
O=C(C=Cc1ccccc1O)NCc1cccc(-c2nc(=O)c3cnc(N4CCOCC4)nc3[nH]2)c1

>  <score_type>  (3203) 
oracle

>  <origin>  (3203) 
adg

>  <m_score__min__energy>  (3203) 
-14.609999999999999

>  <m_primary>  (3203) 
energy

$$$$
87:0
     RDKit          3D

 29 32  0  0  0  0  0  0  0  0999 V2000
   56.1090   30.0490   43.5980 C   0  0  0  0  0  0  0  0  0  0  0  0
   56.8940   29.5810   44.5720 C   0  0  0  0  0  0  0  0  0  0  0  0
   57.0620   28.2690   44.8230 N   0  0  0  0  0  0  0  0  0  0  0  0
   57.8740   28.1690   45.8980 C   0  0  0  0  0  0  0  0  0  0  0  0
   58.2710   26.9840   46.3960 C   0  0  0  0  0  0  0  0  0  0  0  0
   57.3900   25.8210   46.6570 C   0  0  0  0  0  0  0  0  0  0  0  0
   57.7900   24.6500   47.1830 N   0  0  0  0  0  0  0  0  0  0  0  0
   56.6540   23.9240   47.2480 C   0  0  0  0  0  0  0  0  0  0  0  0
   56.6260   22.7470   47.6950 O   0  0  0  0  0  0  0  0  0  0  0  0
   55.5490   24.5620   46.8080 N   0  0  0  0  0  0  0  0  0  0  0  0
   56.0270   25.7620   46.4390 C   0  0  0  0  0  0  0  0  0  0  0  0
   55.2220   26.7640   45.8990 O   0  0  0  0  0  0  0  0  0  0  0  0
   58.2280   29.4400   46.3410 C   0  0  0  0  0  0  0  0  0  0  0  0
   57.6140   30.3350   45.4870 C   0  0  0  0  0  0  0  0  0  0  0  0
   57.7330   31.8010   45.5680 C   0  0  0  0  0  0  0  0  0  0  0  0
   56.6780   32.4940   45.5990 O   0  0  0  0  0  0  0  0  0  0  0  0
   59.0180   32.4440   45.6720 N   0  0  0  0  0  0  0  0  0  0  0  0
   60.0910   31.7870   46.4370 C   0  0  0  0  0  0  0  0  0  0  0  0
   61.2740   32.7350   46.7040 C   0  0  0  0  0  0  0  0  0  0  0  0
   60.8330   34.1390   47.1930 C   0  0  0  0  0  0  0  0  0  0  0  0
   60.6210   34.1730   48.6930 C   0  0  0  0  0  0  0  0  0  0  0  0
   59.5280   34.6030   49.1530 O   0  0  0  0  0  0  0  0  0  0  0  0
   61.6700   33.8040   49.6100 N   0  0  0  0  0  0  0  0  0  0  0  0
   61.5090   33.8850   51.0520 C   0  0  0  0  0  0  0  0  0  0  0  0
   62.7950   33.3230   51.6460 C   0  0  0  0  0  0  0  0  0  0  0  0
   63.8110   33.3070   50.5060 C   0  0  0  0  0  0  0  0  0  0  0  0
   63.0010   33.3730   49.2170 C   0  0  0  0  0  0  0  0  0  0  0  0
   59.5800   34.6880   46.4590 C   0  0  0  0  0  0  0  0  0  0  0  0
   59.1890   33.8390   45.2480 C   0  0  0  0  0  0  0  0  0  0  0  0
  1  2  2  0
  2  3  1  0
  3  4  1  0
  4  5  2  3
  5  6  1  0
  6  7  1  0
  7  8  1  0
  8  9  2  0
  8 10  1  0
 10 11  1  0
 11 12  1  0
  4 13  1  0
 13 14  2  0
 14 15  1  0
 15 16  2  0
 15 17  1  0
 17 18  1  0
 18 19  1  0
 19 20  1  0
 20 21  1  0
 21 22  2  0
 21 23  1  0
 23 24  1  0
 24 25  1  0
 25 26  1  0
 26 27  1  0
 20 28  1  0
 28 29  1  0
 14  2  1  0
 29 17  1  0
 11  6  2  0
 27 23  1  0
M  CHG  2   7  -1  10  -1
M  END
>  <UniqueID>  (3204) 
82

>  <SMILES>  (3204) 
C=c1[nH]c(=Cc2[n-]c(=O)[n-]c2O)cc1C(=O)N1CCC(C(=O)N2CCCC2)CC1

>  <Energy>  (3204) 
120.52007840177977

>  <Genealogy>  (3204) 
C=c1[nH]c(=Cc2[n-]c(=O)[n-]c2O)cc1C(=O)N1CCC(C(=O)N2CCCC2)CC1 (protonated)
C=c1[nH]c(=Cc2[n-]c(=O)[n-]c2O)cc1C(=O)N1CCC(C(=O)N2CCCC2)CC1 (3D coordinates assigned)
C=c1[nH]c(=Cc2[n-]c(=O)[n-]c2O)cc1C(=O)N1CCC(C(=O)N2CCCC2)CC1 (nonaromatic ring conformer: 120.52007840177977 kcal/mol)

>  <smiles>  (3204) 
C=c1[nH]c(=Cc2[nH]c(=O)[nH]c2O)cc1C(=O)N1CCC(C(=O)N2CCCC2)CC1

>  <score_type>  (3204) 
oracle

>  <origin>  (3204) 
adg

>  <m_score__min__energy>  (3204) 
-14.32

>  <m_primary>  (3204) 
energy

$$$$
5:0
     RDKit          3D

 24 26  0  0  0  0  0  0  0  0999 V2000
   60.7200   28.8680   49.1240 C   0  0  0  0  0  0  0  0  0  0  0  0
   59.9950   28.9080   48.0040 C   0  0  0  0  0  0  0  0  0  0  0  0
   59.9030   29.9710   47.1170 C   0  0  0  0  0  0  0  0  0  0  0  0
   60.6430   31.2490   47.1810 C   0  0  0  0  0  0  0  0  0  0  0  0
   61.8980   31.2170   47.2930 O   0  0  0  0  0  0  0  0  0  0  0  0
   59.9620   32.5180   47.0990 N   0  0  0  0  0  0  0  0  0  0  0  0
   60.7290   33.7050   46.7010 C   0  0  0  0  0  0  0  0  0  0  0  0
   59.8570   34.9690   46.7270 C   0  0  0  0  0  0  0  0  0  0  0  0
   58.5170   34.7230   46.1570 N   0  0  0  0  0  0  0  0  0  0  0  0
   58.5720   34.4940   44.7030 C   0  0  0  0  0  0  0  0  0  0  0  0
   57.7610   33.6560   46.8610 C   0  0  0  0  0  0  0  0  0  0  0  0
   58.6350   32.6990   47.7000 C   0  0  0  0  0  0  0  0  0  0  0  0
   59.0360   29.5670   46.1070 C   0  0  0  0  0  0  0  0  0  0  0  0
   58.8210   30.3120   44.8180 C   0  0  0  0  0  0  0  0  0  0  0  0
   58.6030   28.2800   46.4530 C   0  0  0  0  0  0  0  0  0  0  0  0
   57.7450   27.4670   45.8070 C   0  0  0  0  0  0  0  0  0  0  0  0
   57.1810   26.2130   46.3310 C   0  0  0  0  0  0  0  0  0  0  0  0
   57.9030   25.1380   46.6980 N   0  0  0  0  0  0  0  0  0  0  0  0
   56.9620   24.2090   46.9730 C   0  0  0  0  0  0  0  0  0  0  0  0
   57.2500   23.0510   47.3710 O   0  0  0  0  0  0  0  0  0  0  0  0
   55.6890   24.6140   46.7760 N   0  0  0  0  0  0  0  0  0  0  0  0
   55.8480   25.8810   46.3560 C   0  0  0  0  0  0  0  0  0  0  0  0
   54.7960   26.7140   45.9980 O   0  0  0  0  0  0  0  0  0  0  0  0
   59.2160   27.8900   47.5930 N   0  0  0  0  0  0  0  0  0  0  0  0
  1  2  2  0
  2  3  1  0
  3  4  1  0
  4  5  2  0
  4  6  1  0
  6  7  1  0
  7  8  1  0
  8  9  1  0
  9 10  1  0
  9 11  1  0
 11 12  1  0
  3 13  2  0
 13 14  1  0
 13 15  1  0
 15 16  2  0
 16 17  1  0
 17 18  1  0
 18 19  1  0
 19 20  2  0
 19 21  1  0
 21 22  1  0
 22 23  1  0
 15 24  1  0
 24  2  1  0
 12  6  1  0
 22 17  2  0
M  CHG  3  18  -1  21  -1  23  -1
M  END
>  <UniqueID>  (3205) 
6

>  <SMILES>  (3205) 
C=c1[nH]/c(=C/c2[n-]c(=O)[n-]c2[O-])c(C)c1C(=O)N1CCN(C)CC1

>  <Energy>  (3205) 
119.75333468108172

>  <Genealogy>  (3205) 
C=c1[nH]c(=Cc2[n-]c(=O)[n-]c2[O-])c(C)c1C(=O)N1CCN(C)CC1 (protonated)
C=c1[nH]/c(=C/c2[n-]c(=O)[n-]c2[O-])c(C)c1C(=O)N1CCN(C)CC1 (cis-trans isomerization)
C=c1[nH]/c(=C/c2[n-]c(=O)[n-]c2[O-])c(C)c1C(=O)N1CCN(C)CC1 (3D coordinates assigned)
C=c1[nH]/c(=C/c2[n-]c(=O)[n-]c2[O-])c(C)c1C(=O)N1CCN(C)CC1 (nonaromatic ring conformer: 119.75333468108172 kcal/mol)

>  <smiles>  (3205) 
C=c1[nH]c(=Cc2[nH]c(=O)[nH]c2O)c(C)c1C(=O)N1CCN(C)CC1

>  <score_type>  (3205) 
oracle

>  <origin>  (3205) 
adg

>  <m_score__min__energy>  (3205) 
-15.75

>  <m_primary>  (3205) 
energy

$$$$
7:0
     RDKit          3D

 23 25  0  0  0  0  0  0  0  0999 V2000
   60.4170   29.1500   48.5550 C   0  0  0  0  0  0  0  0  0  0  0  0
   59.5340   28.5800   47.7290 C   0  0  0  0  0  0  0  0  0  0  0  0
   59.0510   29.3080   46.7280 O   0  0  0  0  0  0  0  0  0  0  0  0
   58.1770   28.8450   45.8430 C   0  0  0  0  0  0  0  0  0  0  0  0
   57.7220   29.7400   44.7550 C   0  0  0  0  0  0  0  0  0  0  0  0
   58.6460   30.6260   44.1740 C   0  0  0  0  0  0  0  0  0  0  0  0
   58.2560   31.4850   43.1430 C   0  0  0  0  0  0  0  0  0  0  0  0
   56.9350   31.4780   42.6890 C   0  0  0  0  0  0  0  0  0  0  0  0
   56.0010   30.6210   43.2730 C   0  0  0  0  0  0  0  0  0  0  0  0
   56.3820   29.7610   44.3090 C   0  0  0  0  0  0  0  0  0  0  0  0
   55.4150   28.9560   44.9040 O   0  0  0  0  0  0  0  0  0  0  0  0
   57.7260   27.5220   45.9380 C   0  0  0  0  0  0  0  0  0  0  0  0
   58.1620   26.7010   46.9920 C   0  0  0  0  0  0  0  0  0  0  0  0
   57.6720   25.4400   47.0600 C   0  0  0  0  0  0  0  0  0  0  0  0
   56.6290   24.8560   46.1920 C   0  0  0  0  0  0  0  0  0  0  0  0
   56.6400   23.5930   45.7280 N   0  0  0  0  0  0  0  0  0  0  0  0
   55.4410   23.4710   45.1190 C   0  0  0  0  0  0  0  0  0  0  0  0
   55.0800   22.4150   44.5380 O   0  0  0  0  0  0  0  0  0  0  0  0
   54.6560   24.5670   45.1890 N   0  0  0  0  0  0  0  0  0  0  0  0
   55.4160   25.4310   45.8830 C   0  0  0  0  0  0  0  0  0  0  0  0
   54.9990   26.7160   46.2230 O   0  0  0  0  0  0  0  0  0  0  0  0
   59.1200   27.2380   47.8920 C   0  0  0  0  0  0  0  0  0  0  0  0
   59.6390   26.5300   48.7980 O   0  0  0  0  0  0  0  0  0  0  0  0
  1  2  2  0
  2  3  1  0
  3  4  1  0
  4  5  1  0
  5  6  2  0
  6  7  1  0
  7  8  2  0
  8  9  1  0
  9 10  2  0
 10 11  1  0
  4 12  2  0
 12 13  1  0
 13 14  2  3
 14 15  1  0
 15 16  1  0
 16 17  1  0
 17 18  2  0
 17 19  1  0
 19 20  1  0
 20 21  1  0
 13 22  1  0
 22 23  2  0
 22  2  1  0
 10  5  1  0
 20 15  2  0
M  CHG  3  11  -1  16  -1  19  -1
M  END
>  <UniqueID>  (3206) 
8

>  <SMILES>  (3206) 
C=c1oc(-c2ccccc2[O-])cc(=Cc2[n-]c(=O)[n-]c2O)c1=O

>  <Energy>  (3206) 
83.9975451231361

>  <Genealogy>  (3206) 
C=c1oc(-c2ccccc2[O-])cc(=Cc2[n-]c(=O)[n-]c2O)c1=O (protonated)
C=c1oc(-c2ccccc2[O-])cc(=Cc2[n-]c(=O)[n-]c2O)c1=O (3D coordinates assigned)
C=c1oc(-c2ccccc2[O-])cc(=Cc2[n-]c(=O)[n-]c2O)c1=O (optimized conformer: 83.9975451231361 kcal/mol)

>  <smiles>  (3206) 
C=c1oc(-c2ccccc2O)cc(=Cc2[nH]c(=O)[nH]c2O)c1=O

>  <score_type>  (3206) 
oracle

>  <origin>  (3206) 
adg

>  <m_score__min__energy>  (3206) 
-14.92

>  <m_primary>  (3206) 
energy

$$$$
11:0
     RDKit          3D

 25 27  0  0  0  0  0  0  0  0999 V2000
   58.8510   30.0680   47.7130 C   0  0  0  0  0  0  0  0  0  0  0  0
   58.5960   30.2430   46.4060 C   0  0  0  0  0  0  0  0  0  0  0  0
   58.3930   29.2340   45.4540 C   0  0  0  0  0  0  0  0  0  0  0  0
   58.4380   27.9000   45.6660 C   0  0  0  0  0  0  0  0  0  0  0  0
   57.2680   27.0180   45.8730 C   0  0  0  0  0  0  0  0  0  0  0  0
   57.2960   25.7730   46.3830 N   0  0  0  0  0  0  0  0  0  0  0  0
   55.9960   25.4120   46.4080 C   0  0  0  0  0  0  0  0  0  0  0  0
   55.6120   24.2880   46.8250 O   0  0  0  0  0  0  0  0  0  0  0  0
   55.1390   26.3510   45.9560 N   0  0  0  0  0  0  0  0  0  0  0  0
   55.9600   27.3600   45.6260 C   0  0  0  0  0  0  0  0  0  0  0  0
   55.5200   28.5730   45.1100 O   0  0  0  0  0  0  0  0  0  0  0  0
   58.1070   29.8860   44.2590 C   0  0  0  0  0  0  0  0  0  0  0  0
   58.1610   31.2410   44.5210 C   0  0  0  0  0  0  0  0  0  0  0  0
   57.8910   32.3180   43.5160 C   0  0  0  0  0  0  0  0  0  0  0  0
   58.4620   31.4580   45.8190 N   0  0  0  0  0  0  0  0  0  0  0  0
   58.5800   32.7510   46.4400 C   0  0  0  0  0  0  0  0  0  0  0  0
   57.6670   33.6020   46.2610 O   0  0  0  0  0  0  0  0  0  0  0  0
   59.7660   33.1040   47.2590 C   0  0  0  0  0  0  0  0  0  0  0  0
   59.6060   33.6880   48.5270 C   0  0  0  0  0  0  0  0  0  0  0  0
   60.7210   34.0240   49.3000 C   0  0  0  0  0  0  0  0  0  0  0  0
   62.0170   33.7880   48.8150 C   0  0  0  0  0  0  0  0  0  0  0  0
   63.2060   34.1350   49.6150 C   0  0  0  0  0  0  0  0  0  0  0  0
   63.1050   34.8280   50.6630 O   0  0  0  0  0  0  0  0  0  0  0  0
   62.1800   33.2130   47.5470 C   0  0  0  0  0  0  0  0  0  0  0  0
   61.0650   32.8760   46.7730 C   0  0  0  0  0  0  0  0  0  0  0  0
  1  2  2  0
  2  3  1  0
  3  4  2  3
  4  5  1  0
  5  6  1  0
  6  7  1  0
  7  8  2  0
  7  9  1  0
  9 10  1  0
 10 11  1  0
  3 12  1  0
 12 13  2  0
 13 14  1  0
 13 15  1  0
 15 16  1  0
 16 17  2  0
 16 18  1  0
 18 19  2  0
 19 20  1  0
 20 21  2  0
 21 22  1  0
 22 23  2  0
 21 24  1  0
 24 25  2  0
 15  2  1  0
 25 18  1  0
 10  5  2  0
M  CHG  3   6  -1   9  -1  11  -1
M  END
>  <UniqueID>  (3207) 
10

>  <SMILES>  (3207) 
C=c1c(=Cc2[n-]c(=O)[n-]c2[O-])cc(C)n1C(=O)c1ccc(C=O)cc1

>  <Energy>  (3207) 
108.25195784770357

>  <Genealogy>  (3207) 
C=c1c(=Cc2[n-]c(=O)[n-]c2[O-])cc(C)n1C(=O)c1ccc(C=O)cc1 (protonated)
C=c1c(=Cc2[n-]c(=O)[n-]c2[O-])cc(C)n1C(=O)c1ccc(C=O)cc1 (3D coordinates assigned)
C=c1c(=Cc2[n-]c(=O)[n-]c2[O-])cc(C)n1C(=O)c1ccc(C=O)cc1 (optimized conformer: 108.25195784770357 kcal/mol)

>  <smiles>  (3207) 
C=c1c(=Cc2[nH]c(=O)[nH]c2O)cc(C)n1C(=O)c1ccc(C=O)cc1

>  <score_type>  (3207) 
oracle

>  <origin>  (3207) 
adg

>  <m_score__min__energy>  (3207) 
-15.83

>  <m_primary>  (3207) 
energy

$$$$
12:0
     RDKit          3D

 25 27  0  0  0  0  0  0  0  0999 V2000
   60.3110   26.1170   46.0220 C   0  0  0  0  0  0  0  0  0  0  0  0
   59.2440   26.8850   45.7850 C   0  0  0  0  0  0  0  0  0  0  0  0
   59.2730   28.0800   45.0880 C   0  0  0  0  0  0  0  0  0  0  0  0
   57.9700   28.5440   45.0640 C   0  0  0  0  0  0  0  0  0  0  0  0
   57.5340   29.8180   44.4570 C   0  0  0  0  0  0  0  0  0  0  0  0
   56.6870   29.7880   43.5210 O   0  0  0  0  0  0  0  0  0  0  0  0
   58.0630   31.1260   44.9070 C   0  0  0  0  0  0  0  0  0  0  0  0
   58.8090   31.2350   46.0960 C   0  0  0  0  0  0  0  0  0  0  0  0
   59.2940   32.4770   46.5140 C   0  0  0  0  0  0  0  0  0  0  0  0
   59.0290   33.6240   45.7610 C   0  0  0  0  0  0  0  0  0  0  0  0
   59.6930   35.3210   46.3360 Br  0  0  0  0  0  0  0  0  0  0  0  0
   58.2720   33.5290   44.5890 C   0  0  0  0  0  0  0  0  0  0  0  0
   57.7870   32.2880   44.1670 C   0  0  0  0  0  0  0  0  0  0  0  0
   57.1550   27.6960   45.7260 N   0  0  0  0  0  0  0  0  0  0  0  0
   57.9180   26.6690   46.1630 C   0  0  0  0  0  0  0  0  0  0  0  0
   57.4490   25.6310   46.8830 C   0  0  0  0  0  0  0  0  0  0  0  0
   56.3430   24.7590   46.4290 C   0  0  0  0  0  0  0  0  0  0  0  0
   55.1350   25.3240   45.9940 C   0  0  0  0  0  0  0  0  0  0  0  0
   54.9740   26.7050   45.9530 O   0  0  0  0  0  0  0  0  0  0  0  0
   54.1130   24.5230   45.5990 N   0  0  0  0  0  0  0  0  0  0  0  0
   54.2310   23.1710   45.6280 C   0  0  0  0  0  0  0  0  0  0  0  0
   53.2720   22.4480   45.2510 O   0  0  0  0  0  0  0  0  0  0  0  0
   55.3790   22.5980   46.0700 N   0  0  0  0  0  0  0  0  0  0  0  0
   56.4300   23.3550   46.4780 C   0  0  0  0  0  0  0  0  0  0  0  0
   57.4660   22.7870   46.9150 O   0  0  0  0  0  0  0  0  0  0  0  0
  1  2  2  0
  2  3  1  0
  3  4  2  0
  4  5  1  0
  5  6  2  0
  5  7  1  0
  7  8  2  0
  8  9  1  0
  9 10  2  0
 10 11  1  0
 10 12  1  0
 12 13  2  0
  4 14  1  0
 14 15  1  0
 15 16  2  3
 16 17  1  0
 17 18  2  0
 18 19  1  0
 18 20  1  0
 20 21  1  0
 21 22  2  0
 21 23  1  0
 23 24  1  0
 24 25  2  0
 15  2  1  0
 24 17  1  0
 13  7  1  0
M  CHG  3  19  -1  20  -1  23  -1
M  END
>  <UniqueID>  (3208) 
11

>  <SMILES>  (3208) 
C=c1cc(C(=O)c2ccc(Br)cc2)[nH]c1=Cc1c([O-])[n-]c(=O)[n-]c1=O

>  <Energy>  (3208) 
77.56316548434607

>  <Genealogy>  (3208) 
C=c1cc(C(=O)c2ccc(Br)cc2)[nH]c1=Cc1c([O-])[n-]c(=O)[n-]c1=O (protonated)
C=c1cc(C(=O)c2ccc(Br)cc2)[nH]c1=Cc1c([O-])[n-]c(=O)[n-]c1=O (3D coordinates assigned)
C=c1cc(C(=O)c2ccc(Br)cc2)[nH]c1=Cc1c([O-])[n-]c(=O)[n-]c1=O (optimized conformer: 77.56316548434607 kcal/mol)

>  <smiles>  (3208) 
C=c1cc(C(=O)c2ccc(Br)cc2)[nH]c1=Cc1c(O)[nH]c(=O)[nH]c1=O

>  <score_type>  (3208) 
oracle

>  <origin>  (3208) 
adg

>  <m_score__min__energy>  (3208) 
-16.280000000000001

>  <m_primary>  (3208) 
energy

$$$$
28:0
     RDKit          3D

 31 34  0  0  0  0  0  0  0  0999 V2000
   51.4140   31.9070   52.8020 C   0  0  0  0  0  0  0  0  0  0  0  0
   50.7740   32.6290   51.8610 N   0  0  0  0  0  0  0  0  0  0  0  0
   51.3870   32.3190   50.7030 C   0  0  0  0  0  0  0  0  0  0  0  0
   51.0180   32.8590   49.4780 O   0  0  0  0  0  0  0  0  0  0  0  0
   52.4070   31.4100   50.8820 C   0  0  0  0  0  0  0  0  0  0  0  0
   52.4300   31.1560   52.2360 C   0  0  0  0  0  0  0  0  0  0  0  0
   53.3290   30.2060   52.9250 C   0  0  0  0  0  0  0  0  0  0  0  0
   52.9670   29.0090   53.0590 O   0  0  0  0  0  0  0  0  0  0  0  0
   54.5800   30.6150   53.4970 N   0  0  0  0  0  0  0  0  0  0  0  0
   55.7220   30.6270   52.8760 C   0  0  0  0  0  0  0  0  0  0  0  0
   56.2320   31.6930   52.2300 N   0  0  0  0  0  0  0  0  0  0  0  0
   57.3930   31.3190   51.7160 N   0  0  0  0  0  0  0  0  0  0  0  0
   58.1790   32.1820   50.8780 C   0  0  0  0  0  0  0  0  0  0  0  0
   58.9290   33.2190   51.4520 C   0  0  0  0  0  0  0  0  0  0  0  0
   59.6720   34.0820   50.6410 C   0  0  0  0  0  0  0  0  0  0  0  0
   59.6510   33.9300   49.2510 C   0  0  0  0  0  0  0  0  0  0  0  0
   58.8850   32.9160   48.6720 C   0  0  0  0  0  0  0  0  0  0  0  0
   58.1520   32.0420   49.4800 C   0  0  0  0  0  0  0  0  0  0  0  0
   57.6270   30.0200   52.0300 C   0  0  0  0  0  0  0  0  0  0  0  0
   58.8590   29.2630   51.7440 C   0  0  0  0  0  0  0  0  0  0  0  0
   59.4100   28.6150   52.6750 O   0  0  0  0  0  0  0  0  0  0  0  0
   59.4610   29.3140   50.4430 N   0  0  0  0  0  0  0  0  0  0  0  0
   60.5660   28.4420   50.0510 C   0  0  0  0  0  0  0  0  0  0  0  0
   60.3860   28.0100   48.6310 C   0  0  0  0  0  0  0  0  0  0  0  0
   60.3750   28.8360   47.5230 C   0  0  0  0  0  0  0  0  0  0  0  0
   60.0660   28.0220   46.4480 C   0  0  0  0  0  0  0  0  0  0  0  0
   59.9100   28.4870   45.0330 C   0  0  0  0  0  0  0  0  0  0  0  0
   59.8960   26.7480   46.8630 N   0  0  0  0  0  0  0  0  0  0  0  0
   59.4620   25.6130   46.0530 C   0  0  0  0  0  0  0  0  0  0  0  0
   60.0690   26.7370   48.1990 C   0  0  0  0  0  0  0  0  0  0  0  0
   56.5590   29.5370   52.7610 C   0  0  0  0  0  0  0  0  0  0  0  0
  1  2  1  0
  2  3  1  0
  3  4  1  0
  3  5  2  0
  5  6  1  0
  6  7  1  0
  7  8  2  0
  7  9  1  0
  9 10  2  0
 10 11  1  0
 11 12  1  0
 12 13  1  0
 13 14  2  0
 14 15  1  0
 15 16  2  0
 16 17  1  0
 17 18  2  0
 12 19  1  0
 19 20  1  0
 20 21  2  0
 20 22  1  0
 22 23  1  0
 23 24  1  0
 24 25  1  0
 25 26  2  0
 26 27  1  0
 26 28  1  0
 28 29  1  0
 28 30  1  0
 19 31  2  0
  6  1  2  0
 31 10  1  0
 18 13  1  0
 30 24  2  0
M  CHG  3   2  -1   4  -1  11  -1
M  END
>  <UniqueID>  (3209) 
27

>  <SMILES>  (3209) 
Cc1cc(CNC(=O)c2c/c(=N/C(=O)c3c[n-]c([O-])c3)[n-]n2-c2ccccc2)cn1C

>  <Energy>  (3209) 
141.5357905766895

>  <Genealogy>  (3209) 
Cc1cc(CNC(=O)c2cc(=NC(=O)c3c[n-]c([O-])c3)[n-]n2-c2ccccc2)cn1C (protonated)
Cc1cc(CNC(=O)c2c/c(=N/C(=O)c3c[n-]c([O-])c3)[n-]n2-c2ccccc2)cn1C (cis-trans isomerization)
Cc1cc(CNC(=O)c2c/c(=N/C(=O)c3c[n-]c([O-])c3)[n-]n2-c2ccccc2)cn1C (3D coordinates assigned)
Cc1cc(CNC(=O)c2c/c(=N/C(=O)c3c[n-]c([O-])c3)[n-]n2-c2ccccc2)cn1C (optimized conformer: 141.5357905766895 kcal/mol)

>  <smiles>  (3209) 
Cc1cc(CNC(=O)c2cc(=NC(=O)c3c[nH]c(O)c3)[nH]n2-c2ccccc2)cn1C

>  <score_type>  (3209) 
oracle

>  <origin>  (3209) 
adg

>  <m_score__min__energy>  (3209) 
-17.09

>  <m_primary>  (3209) 
energy

$$$$
32:0
     RDKit          3D

 38 41  0  0  0  0  0  0  0  0999 V2000
   53.0070   29.2680   53.7650 C   0  0  0  0  0  0  0  0  0  0  0  0
   54.2020   29.5290   53.1980 C   0  0  0  0  0  0  0  0  0  0  0  0
   55.2440   28.6150   53.4570 C   0  0  0  0  0  0  0  0  0  0  0  0
   56.5290   28.8280   52.9720 C   0  0  0  0  0  0  0  0  0  0  0  0
   56.8080   29.9430   52.1850 C   0  0  0  0  0  0  0  0  0  0  0  0
   58.1480   30.1880   51.7120 N   0  0  0  0  0  0  0  0  0  0  0  0
   58.8620   31.3150   52.2720 C   0  0  0  0  0  0  0  0  0  0  0  0
   58.7980   31.5500   53.5100 O   0  0  0  0  0  0  0  0  0  0  0  0
   59.7050   32.1920   51.4300 C   0  0  0  0  0  0  0  0  0  0  0  0
   59.1490   33.2950   50.7600 C   0  0  0  0  0  0  0  0  0  0  0  0
   59.9530   34.1090   49.9580 C   0  0  0  0  0  0  0  0  0  0  0  0
   61.3170   33.8360   49.8230 C   0  0  0  0  0  0  0  0  0  0  0  0
   61.8810   32.7520   50.4990 C   0  0  0  0  0  0  0  0  0  0  0  0
   61.0820   31.9350   51.3050 C   0  0  0  0  0  0  0  0  0  0  0  0
   58.5930   29.6360   50.4130 C   0  0  0  0  0  0  0  0  0  0  0  0
   58.5650   30.6800   49.2680 C   0  0  0  0  0  0  0  0  0  0  0  0
   59.4370   30.2670   48.0630 C   0  0  0  0  0  0  0  0  0  0  0  0
   59.7090   28.8220   48.0660 N   0  0  0  0  0  0  0  0  0  0  0  0
   59.5660   28.0380   46.8680 C   0  0  0  0  0  0  0  0  0  0  0  0
   60.4710   27.2210   46.5470 O   0  0  0  0  0  0  0  0  0  0  0  0
   58.3410   28.1590   46.0010 C   0  0  0  0  0  0  0  0  0  0  0  0
   58.7100   28.6400   44.5920 C   0  0  0  0  0  0  0  0  0  0  0  0
   57.4550   28.8870   43.7510 C   0  0  0  0  0  0  0  0  0  0  0  0
   56.4440   29.6630   44.5350 C   0  0  0  0  0  0  0  0  0  0  0  0
   56.7200   30.8200   44.9520 O   0  0  0  0  0  0  0  0  0  0  0  0
   55.2170   29.0900   44.8490 O   0  0  0  0  0  0  0  0  0  0  0  0
   60.3160   28.2060   49.2550 C   0  0  0  0  0  0  0  0  0  0  0  0
   59.9900   29.0040   50.5300 C   0  0  0  0  0  0  0  0  0  0  0  0
   55.7920   30.8630   51.9060 C   0  0  0  0  0  0  0  0  0  0  0  0
   54.4750   30.6950   52.4010 C   0  0  0  0  0  0  0  0  0  0  0  0
   53.5090   31.5970   52.0770 C   0  0  0  0  0  0  0  0  0  0  0  0
   52.4510   31.4030   51.0590 C   0  0  0  0  0  0  0  0  0  0  0  0
   52.4670   30.4740   50.0850 N   0  0  0  0  0  0  0  0  0  0  0  0
   51.3720   30.7640   49.3530 C   0  0  0  0  0  0  0  0  0  0  0  0
   51.0330   30.0930   48.3440 O   0  0  0  0  0  0  0  0  0  0  0  0
   50.6710   31.8340   49.7840 N   0  0  0  0  0  0  0  0  0  0  0  0
   51.3740   32.2340   50.8560 C   0  0  0  0  0  0  0  0  0  0  0  0
   51.0400   33.3380   51.6300 O   0  0  0  0  0  0  0  0  0  0  0  0
  1  2  2  0
  2  3  1  0
  3  4  2  0
  4  5  1  0
  5  6  1  0
  6  7  1  0
  7  8  2  0
  7  9  1  0
  9 10  2  0
 10 11  1  0
 11 12  2  0
 12 13  1  0
 13 14  2  0
  6 15  1  0
 15 16  1  0
 16 17  1  0
 17 18  1  0
 18 19  1  0
 19 20  2  0
 19 21  1  0
 21 22  1  0
 22 23  1  0
 23 24  1  0
 24 25  2  0
 24 26  1  0
 18 27  1  0
 27 28  1  0
  5 29  2  0
 29 30  1  0
 30 31  2  0
 31 32  1  0
 32 33  1  0
 33 34  1  0
 34 35  2  0
 34 36  1  0
 36 37  1  0
 37 38  1  0
 30  2  1  0
 37 32  2  0
 14  9  1  0
 28 15  1  0
M  CHG  4  26  -1  33  -1  36  -1  38  -1
M  END
>  <UniqueID>  (3210) 
30

>  <SMILES>  (3210) 
C=c1ccc(N(C(=O)c2ccccc2)C2CCN(C(=O)CCCC(=O)[O-])CC2)c/c1=C\c1[n-]c(=O)[n-]c1[O-]

>  <Energy>  (3210) 
123.91410634057125

>  <Genealogy>  (3210) 
C=c1ccc(N(C(=O)c2ccccc2)C2CCN(C(=O)CCCC(=O)[O-])CC2)cc1=Cc1[n-]c(=O)[n-]c1[O-] (protonated)
C=c1ccc(N(C(=O)c2ccccc2)C2CCN(C(=O)CCCC(=O)[O-])CC2)c/c1=C\c1[n-]c(=O)[n-]c1[O-] (cis-trans isomerization)
C=c1ccc(N(C(=O)c2ccccc2)C2CCN(C(=O)CCCC(=O)[O-])CC2)c/c1=C\c1[n-]c(=O)[n-]c1[O-] (3D coordinates assigned)
C=c1ccc(N(C(=O)c2ccccc2)C2CCN(C(=O)CCCC(=O)[O-])CC2)c/c1=C\c1[n-]c(=O)[n-]c1[O-] (nonaromatic ring conformer: 123.91410634057125 kcal/mol)

>  <smiles>  (3210) 
C=c1ccc(N(C(=O)c2ccccc2)C2CCN(C(=O)CCCC(=O)O)CC2)cc1=Cc1[nH]c(=O)[nH]c1O

>  <score_type>  (3210) 
oracle

>  <origin>  (3210) 
adg

>  <m_score__min__energy>  (3210) 
-21.77

>  <m_primary>  (3210) 
energy

$$$$
33:0
     RDKit          3D

 29 32  0  0  0  0  0  0  0  0999 V2000
   57.1840   30.1360   43.8870 C   0  0  0  0  0  0  0  0  0  0  0  0
   57.6150   29.7580   45.0920 C   0  0  0  0  0  0  0  0  0  0  0  0
   58.0110   30.6170   46.0040 O   0  0  0  0  0  0  0  0  0  0  0  0
   58.3780   29.9630   47.0820 C   0  0  0  0  0  0  0  0  0  0  0  0
   58.8850   30.5780   48.3340 C   0  0  0  0  0  0  0  0  0  0  0  0
   58.9700   29.8340   49.3510 O   0  0  0  0  0  0  0  0  0  0  0  0
   59.2900   31.9690   48.4380 N   0  0  0  0  0  0  0  0  0  0  0  0
   59.2780   32.8380   47.2400 C   0  0  0  0  0  0  0  0  0  0  0  0
   59.7540   34.2880   47.4620 C   0  0  0  0  0  0  0  0  0  0  0  0
   60.6720   34.4390   48.5980 N   0  0  0  0  0  0  0  0  0  0  0  0
   62.1160   34.2200   48.2880 C   0  0  0  0  0  0  0  0  0  0  0  0
   62.4390   33.6540   46.9040 C   0  0  0  0  0  0  0  0  0  0  0  0
   63.8330   33.0380   47.0330 C   0  0  0  0  0  0  0  0  0  0  0  0
   64.1590   32.9790   48.5270 C   0  0  0  0  0  0  0  0  0  0  0  0
   62.8640   33.3040   49.2540 C   0  0  0  0  0  0  0  0  0  0  0  0
   60.0750   33.9020   49.8280 C   0  0  0  0  0  0  0  0  0  0  0  0
   59.8350   32.4010   49.7400 C   0  0  0  0  0  0  0  0  0  0  0  0
   58.2160   28.6030   46.8790 C   0  0  0  0  0  0  0  0  0  0  0  0
   57.7290   28.4630   45.5890 C   0  0  0  0  0  0  0  0  0  0  0  0
   57.4040   27.3130   44.9690 C   0  0  0  0  0  0  0  0  0  0  0  0
   57.0970   26.0560   45.6890 C   0  0  0  0  0  0  0  0  0  0  0  0
   55.8070   25.7830   46.1800 C   0  0  0  0  0  0  0  0  0  0  0  0
   54.7700   26.6920   46.0030 O   0  0  0  0  0  0  0  0  0  0  0  0
   55.5680   24.6290   46.8550 N   0  0  0  0  0  0  0  0  0  0  0  0
   56.5620   23.7330   47.0860 C   0  0  0  0  0  0  0  0  0  0  0  0
   56.3160   22.6700   47.7110 O   0  0  0  0  0  0  0  0  0  0  0  0
   57.8220   23.9870   46.6490 N   0  0  0  0  0  0  0  0  0  0  0  0
   58.1120   25.1250   45.9660 C   0  0  0  0  0  0  0  0  0  0  0  0
   59.2940   25.3290   45.5800 O   0  0  0  0  0  0  0  0  0  0  0  0
  1  2  2  0
  2  3  1  0
  3  4  1  0
  4  5  1  0
  5  6  2  0
  5  7  1  0
  7  8  1  0
  8  9  1  0
  9 10  1  0
 10 11  1  0
 11 12  1  0
 12 13  1  0
 13 14  1  0
 14 15  1  0
 10 16  1  0
 16 17  1  0
  4 18  2  0
 18 19  1  0
 19 20  2  3
 20 21  1  0
 21 22  2  0
 22 23  1  0
 22 24  1  0
 24 25  1  0
 25 26  2  0
 25 27  1  0
 27 28  1  0
 28 29  2  0
 19  2  1  0
 28 21  1  0
 17  7  1  0
 15 11  1  0
M  CHG  3  23  -1  24  -1  27  -1
M  END
>  <UniqueID>  (3211) 
31

>  <SMILES>  (3211) 
C=c1oc(C(=O)N2CCN(C3CCCC3)CC2)cc1=Cc1c([O-])[n-]c(=O)[n-]c1=O

>  <Energy>  (3211) 
110.47266177336053

>  <Genealogy>  (3211) 
C=c1oc(C(=O)N2CCN(C3CCCC3)CC2)cc1=Cc1c([O-])[n-]c(=O)[n-]c1=O (protonated)
C=c1oc(C(=O)N2CCN(C3CCCC3)CC2)cc1=Cc1c([O-])[n-]c(=O)[n-]c1=O (3D coordinates assigned)
C=c1oc(C(=O)N2CCN(C3CCCC3)CC2)cc1=Cc1c([O-])[n-]c(=O)[n-]c1=O (nonaromatic ring conformer: 110.47266177336053 kcal/mol)

>  <smiles>  (3211) 
C=c1oc(C(=O)N2CCN(C3CCCC3)CC2)cc1=Cc1c(O)[nH]c(=O)[nH]c1=O

>  <score_type>  (3211) 
oracle

>  <origin>  (3211) 
adg

>  <m_score__min__energy>  (3211) 
-16.120000000000001

>  <m_primary>  (3211) 
energy

$$$$
44:0
     RDKit          3D

 25 27  0  0  0  0  0  0  0  0999 V2000
   59.6590   29.3550   44.5090 C   0  0  0  0  0  0  0  0  0  0  0  0
   59.3210   29.0710   45.7780 C   0  0  0  0  0  0  0  0  0  0  0  0
   58.5420   27.9870   46.2180 C   0  0  0  0  0  0  0  0  0  0  0  0
   58.1350   26.8730   45.5800 C   0  0  0  0  0  0  0  0  0  0  0  0
   57.3790   25.7650   46.1860 C   0  0  0  0  0  0  0  0  0  0  0  0
   57.9330   24.6870   46.7710 N   0  0  0  0  0  0  0  0  0  0  0  0
   56.8710   24.0360   47.2930 C   0  0  0  0  0  0  0  0  0  0  0  0
   56.9830   22.9490   47.9180 O   0  0  0  0  0  0  0  0  0  0  0  0
   55.6820   24.6460   47.1010 N   0  0  0  0  0  0  0  0  0  0  0  0
   56.0240   25.7460   46.4110 C   0  0  0  0  0  0  0  0  0  0  0  0
   55.1180   26.7140   46.0020 O   0  0  0  0  0  0  0  0  0  0  0  0
   58.2350   28.2470   47.5420 C   0  0  0  0  0  0  0  0  0  0  0  0
   58.8760   29.4190   47.8820 C   0  0  0  0  0  0  0  0  0  0  0  0
   58.8250   30.0540   49.2380 C   0  0  0  0  0  0  0  0  0  0  0  0
   59.5570   29.9100   46.8200 N   0  0  0  0  0  0  0  0  0  0  0  0
   60.3050   31.1790   46.7930 C   0  0  0  0  0  0  0  0  0  0  0  0
   59.4570   32.3010   46.2460 C   0  0  0  0  0  0  0  0  0  0  0  0
   59.9880   33.4220   46.0260 O   0  0  0  0  0  0  0  0  0  0  0  0
   58.0520   32.1490   45.9720 N   0  0  0  0  0  0  0  0  0  0  0  0
   57.4820   31.5240   44.9820 C   0  0  0  0  0  0  0  0  0  0  0  0
   56.6490   30.4650   45.1920 N   0  0  0  0  0  0  0  0  0  0  0  0
   56.0620   29.7950   44.1640 C   0  0  0  0  0  0  0  0  0  0  0  0
   56.3130   30.1800   42.8460 C   0  0  0  0  0  0  0  0  0  0  0  0
   57.1680   31.2540   42.6010 C   0  0  0  0  0  0  0  0  0  0  0  0
   57.7610   31.9300   43.6710 C   0  0  0  0  0  0  0  0  0  0  0  0
  1  2  2  0
  2  3  1  0
  3  4  2  0
  4  5  1  0
  5  6  1  0
  6  7  1  0
  7  8  2  0
  7  9  1  0
  9 10  1  0
 10 11  1  0
  3 12  1  0
 12 13  2  0
 13 14  1  0
 13 15  1  0
 15 16  1  0
 16 17  1  0
 17 18  2  0
 17 19  1  0
 19 20  2  3
 20 21  1  0
 21 22  1  0
 22 23  2  0
 23 24  1  0
 24 25  2  0
 15  2  1  0
 25 20  1  0
 10  5  2  0
M  CHG  4   6  -1   9  -1  11  -1  21  -1
M  END
>  <UniqueID>  (3212) 
41

>  <SMILES>  (3212) 
C=c1/c(=C\c2[n-]c(=O)[n-]c2[O-])cc(C)n1CC(=O)N=c1cccc[n-]1

>  <Energy>  (3212) 
113.5566331487952

>  <Genealogy>  (3212) 
C=c1c(=Cc2[n-]c(=O)[n-]c2[O-])cc(C)n1CC(=O)N=c1cccc[n-]1 (protonated)
C=c1/c(=C\c2[n-]c(=O)[n-]c2[O-])cc(C)n1CC(=O)N=c1cccc[n-]1 (cis-trans isomerization)
C=c1/c(=C\c2[n-]c(=O)[n-]c2[O-])cc(C)n1CC(=O)N=c1cccc[n-]1 (3D coordinates assigned)
C=c1/c(=C\c2[n-]c(=O)[n-]c2[O-])cc(C)n1CC(=O)N=c1cccc[n-]1 (optimized conformer: 113.5566331487952 kcal/mol)

>  <smiles>  (3212) 
C=c1c(=Cc2[nH]c(=O)[nH]c2O)cc(C)n1CC(=O)N=c1cccc[nH]1

>  <score_type>  (3212) 
oracle

>  <origin>  (3212) 
adg

>  <m_score__min__energy>  (3212) 
-16.75

>  <m_primary>  (3212) 
energy

$$$$
46:0
     RDKit          3D

 32 35  0  0  0  0  0  0  0  0999 V2000
   55.1620   29.2250   44.7200 O   0  0  0  0  0  0  0  0  0  0  0  0
   56.2880   29.7890   44.7790 C   0  0  0  0  0  0  0  0  0  0  0  0
   57.4940   29.0000   45.1700 C   0  0  0  0  0  0  0  0  0  0  0  0
   57.0830   27.6170   45.5740 C   0  0  0  0  0  0  0  0  0  0  0  0
   55.8020   27.2100   45.6310 N   0  0  0  0  0  0  0  0  0  0  0  0
   55.9040   25.9110   45.9830 C   0  0  0  0  0  0  0  0  0  0  0  0
   54.8990   25.1720   46.1480 O   0  0  0  0  0  0  0  0  0  0  0  0
   57.1670   25.4680   46.1440 N   0  0  0  0  0  0  0  0  0  0  0  0
   57.9140   26.5530   45.8690 C   0  0  0  0  0  0  0  0  0  0  0  0
   59.4110   26.5720   45.9540 C   0  0  0  0  0  0  0  0  0  0  0  0
   59.8610   27.1700   47.2590 C   0  0  0  0  0  0  0  0  0  0  0  0
   60.3930   26.4280   48.1340 O   0  0  0  0  0  0  0  0  0  0  0  0
   59.7040   28.5760   47.5200 N   0  0  0  0  0  0  0  0  0  0  0  0
   59.4660   29.0570   48.8820 C   0  0  0  0  0  0  0  0  0  0  0  0
   60.7220   29.7560   49.4020 C   0  0  0  0  0  0  0  0  0  0  0  0
   61.1990   30.7350   48.4130 N   0  0  0  0  0  0  0  0  0  0  0  0
   61.8160   31.9630   48.8540 C   0  0  0  0  0  0  0  0  0  0  0  0
   61.0290   33.0510   49.2690 C   0  0  0  0  0  0  0  0  0  0  0  0
   61.6350   34.2400   49.6910 C   0  0  0  0  0  0  0  0  0  0  0  0
   63.0280   34.3510   49.7020 C   0  0  0  0  0  0  0  0  0  0  0  0
   63.8230   33.2740   49.2880 C   0  0  0  0  0  0  0  0  0  0  0  0
   65.2130   33.3750   49.2920 O   0  0  0  0  0  0  0  0  0  0  0  0
   63.2170   32.0850   48.8650 C   0  0  0  0  0  0  0  0  0  0  0  0
   61.3730   30.2920   47.0230 C   0  0  0  0  0  0  0  0  0  0  0  0
   60.1120   29.5770   46.5280 C   0  0  0  0  0  0  0  0  0  0  0  0
   56.4260   31.1800   44.4720 N   0  0  0  0  0  0  0  0  0  0  0  0
   57.3840   32.0810   45.0440 C   0  0  0  0  0  0  0  0  0  0  0  0
   57.9660   33.0560   44.2220 C   0  0  0  0  0  0  0  0  0  0  0  0
   58.9340   33.9270   44.7350 C   0  0  0  0  0  0  0  0  0  0  0  0
   59.3380   33.8180   46.0670 C   0  0  0  0  0  0  0  0  0  0  0  0
   58.7800   32.8340   46.8900 C   0  0  0  0  0  0  0  0  0  0  0  0
   57.8100   31.9640   46.3790 C   0  0  0  0  0  0  0  0  0  0  0  0
  1  2  2  0
  2  3  1  0
  3  4  1  0
  4  5  1  0
  5  6  1  0
  6  7  2  0
  6  8  1  0
  8  9  1  0
  9 10  1  0
 10 11  1  0
 11 12  2  0
 11 13  1  0
 13 14  1  0
 14 15  1  0
 15 16  1  0
 16 17  1  0
 17 18  2  0
 18 19  1  0
 19 20  2  0
 20 21  1  0
 21 22  1  0
 21 23  2  0
 16 24  1  0
 24 25  1  0
  2 26  1  0
 26 27  1  0
 27 28  2  0
 28 29  1  0
 29 30  2  0
 30 31  1  0
 31 32  2  0
  9  4  2  0
 25 13  1  0
 32 27  1  0
 23 17  1  0
M  CHG  3   5  -1   8  -1  26  -1
M  END
>  <UniqueID>  (3213) 
43

>  <SMILES>  (3213) 
O=C(Cc1[n-]c(=O)[n-]c1CC(=O)N1CCN(c2cccc(O)c2)CC1)[N-]c1ccccc1

>  <Energy>  (3213) 
90.3259807786111

>  <Genealogy>  (3213) 
O=C(Cc1[n-]c(=O)[n-]c1CC(=O)N1CCN(c2cccc(O)c2)CC1)[N-]c1ccccc1 (protonated)
O=C(Cc1[n-]c(=O)[n-]c1CC(=O)N1CCN(c2cccc(O)c2)CC1)[N-]c1ccccc1 (3D coordinates assigned)
O=C(Cc1[n-]c(=O)[n-]c1CC(=O)N1CCN(c2cccc(O)c2)CC1)[N-]c1ccccc1 (nonaromatic ring conformer: 90.3259807786111 kcal/mol)

>  <smiles>  (3213) 
O=C(Cc1[nH]c(=O)[nH]c1CC(=O)N1CCN(c2cccc(O)c2)CC1)Nc1ccccc1

>  <score_type>  (3213) 
oracle

>  <origin>  (3213) 
adg

>  <m_score__min__energy>  (3213) 
-14.5

>  <m_primary>  (3213) 
energy

$$$$
56:0
     RDKit          3D

 32 35  0  0  0  0  0  0  0  0999 V2000
   57.2230   23.3220   45.3020 C   0  0  0  0  0  0  0  0  0  0  0  0
   57.5480   24.3990   46.0670 N   0  0  0  0  0  0  0  0  0  0  0  0
   56.6570   25.3900   46.3630 C   0  0  0  0  0  0  0  0  0  0  0  0
   57.0730   26.3700   47.1230 N   0  0  0  0  0  0  0  0  0  0  0  0
   57.8000   27.5500   46.7500 C   0  0  0  0  0  0  0  0  0  0  0  0
   58.6350   28.0730   47.5430 O   0  0  0  0  0  0  0  0  0  0  0  0
   57.6010   28.1340   45.3850 C   0  0  0  0  0  0  0  0  0  0  0  0
   56.2680   28.7170   45.2420 N   0  0  0  0  0  0  0  0  0  0  0  0
   55.8770   29.7060   44.2760 C   0  0  0  0  0  0  0  0  0  0  0  0
   54.7660   29.5790   43.6940 O   0  0  0  0  0  0  0  0  0  0  0  0
   56.7210   30.8730   43.9630 C   0  0  0  0  0  0  0  0  0  0  0  0
   57.0260   31.1770   42.6280 C   0  0  0  0  0  0  0  0  0  0  0  0
   57.8410   32.2720   42.3250 C   0  0  0  0  0  0  0  0  0  0  0  0
   58.3710   33.0600   43.3510 C   0  0  0  0  0  0  0  0  0  0  0  0
   58.0930   32.7520   44.6870 C   0  0  0  0  0  0  0  0  0  0  0  0
   58.8410   33.6990   45.9700 S   0  0  0  0  0  0  0  0  0  0  0  0
   57.8000   34.2660   46.8940 O   0  0  0  0  0  0  0  0  0  0  0  0
   59.6170   34.8340   45.3600 O   0  0  0  0  0  0  0  0  0  0  0  0
   59.9080   32.6780   46.8780 N   0  0  0  0  0  0  0  0  0  0  0  0
   61.2840   32.9270   47.0970 C   0  0  0  0  0  0  0  0  0  0  0  0
   62.0880   33.8660   46.4430 C   0  0  0  0  0  0  0  0  0  0  0  0
   63.4360   33.9680   46.8250 C   0  0  0  0  0  0  0  0  0  0  0  0
   63.9470   33.1470   47.8500 C   0  0  0  0  0  0  0  0  0  0  0  0
   63.1130   32.2160   48.4910 C   0  0  0  0  0  0  0  0  0  0  0  0
   61.7780   32.1320   48.0940 C   0  0  0  0  0  0  0  0  0  0  0  0
   60.7110   31.2420   48.6300 C   0  0  0  0  0  0  0  0  0  0  0  0
   59.4540   31.6670   47.8320 C   0  0  0  0  0  0  0  0  0  0  0  0
   57.2700   31.6560   44.9910 C   0  0  0  0  0  0  0  0  0  0  0  0
   55.3490   25.3190   45.8050 C   0  0  0  0  0  0  0  0  0  0  0  0
   54.4140   26.3400   45.9550 O   0  0  0  0  0  0  0  0  0  0  0  0
   54.9970   24.2070   45.0320 C   0  0  0  0  0  0  0  0  0  0  0  0
   55.9330   23.2010   44.7810 C   0  0  0  0  0  0  0  0  0  0  0  0
  1  2  1  0
  2  3  1  0
  3  4  2  0
  4  5  1  0
  5  6  2  0
  5  7  1  0
  7  8  1  0
  8  9  1  0
  9 10  2  0
  9 11  1  0
 11 12  2  0
 12 13  1  0
 13 14  2  0
 14 15  1  0
 15 16  1  0
 16 17  2  0
 16 18  2  0
 16 19  1  0
 19 20  1  0
 20 21  2  0
 21 22  1  0
 22 23  2  0
 23 24  1  0
 24 25  2  0
 25 26  1  0
 26 27  1  0
 15 28  2  0
  3 29  1  0
 29 30  1  0
 29 31  2  0
 31 32  1  0
 32  1  2  0
 28 11  1  0
 27 19  1  0
 25 20  1  0
M  CHG  3   2  -1   8  -1  30  -1
M  END
>  <UniqueID>  (3214) 
52

>  <SMILES>  (3214) 
O=C(C[N-]C(=O)c1cccc(S(=O)(=O)N2CCc3ccccc32)c1)/N=c1/[n-]cccc1[O-]

>  <Energy>  (3214) 
84.07402364404282

>  <Genealogy>  (3214) 
O=C(C[N-]C(=O)c1cccc(S(=O)(=O)N2CCc3ccccc32)c1)N=c1[n-]cccc1[O-] (protonated)
O=C(C[N-]C(=O)c1cccc(S(=O)(=O)N2CCc3ccccc32)c1)/N=c1/[n-]cccc1[O-] (cis-trans isomerization)
O=C(C[N-]C(=O)c1cccc(S(=O)(=O)N2CCc3ccccc32)c1)/N=c1/[n-]cccc1[O-] (3D coordinates assigned)
O=C(C[N-]C(=O)c1cccc(S(=O)(=O)N2CCc3ccccc32)c1)/N=c1/[n-]cccc1[O-] (nonaromatic ring conformer: 84.07402364404282 kcal/mol)

>  <smiles>  (3214) 
O=C(CNC(=O)c1cccc(S(=O)(=O)N2CCc3ccccc32)c1)N=c1[nH]cccc1O

>  <score_type>  (3214) 
oracle

>  <origin>  (3214) 
adg

>  <m_score__min__energy>  (3214) 
-17.620000000000001

>  <m_primary>  (3214) 
energy

$$$$
61:0
     RDKit          3D

 30 32  0  0  0  0  0  0  0  0999 V2000
   51.4620   32.4840   51.2450 N   0  0  0  0  0  0  0  0  0  0  0  0
   51.6620   30.7700   51.3260 S   0  0  0  0  0  0  0  0  0  0  0  0
   51.4220   30.1670   49.9710 O   0  0  0  0  0  0  0  0  0  0  0  0
   50.6580   30.2030   52.2920 O   0  0  0  0  0  0  0  0  0  0  0  0
   53.2970   30.3900   51.8570 C   0  0  0  0  0  0  0  0  0  0  0  0
   53.5170   29.2880   52.6940 C   0  0  0  0  0  0  0  0  0  0  0  0
   54.8110   28.9800   53.1280 C   0  0  0  0  0  0  0  0  0  0  0  0
   55.8990   29.7650   52.7200 C   0  0  0  0  0  0  0  0  0  0  0  0
   57.2890   29.4660   53.2100 C   0  0  0  0  0  0  0  0  0  0  0  0
   58.2570   29.7210   52.1450 N   0  0  0  0  0  0  0  0  0  0  0  0
   58.7180   31.0460   51.8300 C   0  0  0  0  0  0  0  0  0  0  0  0
   58.3380   32.0260   52.5270 O   0  0  0  0  0  0  0  0  0  0  0  0
   59.5670   31.2760   50.6900 N   0  0  0  0  0  0  0  0  0  0  0  0
   60.5790   30.2980   50.2730 C   0  0  0  0  0  0  0  0  0  0  0  0
   60.3550   29.9310   48.8030 C   0  0  0  0  0  0  0  0  0  0  0  0
   60.0540   31.1200   47.9850 N   0  0  0  0  0  0  0  0  0  0  0  0
   59.6720   30.9230   46.6030 C   0  0  0  0  0  0  0  0  0  0  0  0
   59.9080   29.8140   46.0480 O   0  0  0  0  0  0  0  0  0  0  0  0
   58.9710   31.9830   45.7940 C   0  0  0  0  0  0  0  0  0  0  0  0
   57.9710   31.3830   44.8380 C   0  0  0  0  0  0  0  0  0  0  0  0
   58.0300   31.6880   43.4670 C   0  0  0  0  0  0  0  0  0  0  0  0
   57.1320   31.1000   42.5740 C   0  0  0  0  0  0  0  0  0  0  0  0
   56.1730   30.1970   43.0390 C   0  0  0  0  0  0  0  0  0  0  0  0
   56.1130   29.8770   44.3970 C   0  0  0  0  0  0  0  0  0  0  0  0
   55.1650   28.9720   44.8570 O   0  0  0  0  0  0  0  0  0  0  0  0
   57.0120   30.4630   45.2940 C   0  0  0  0  0  0  0  0  0  0  0  0
   60.1800   32.4540   48.5940 C   0  0  0  0  0  0  0  0  0  0  0  0
   59.3840   32.5040   49.9050 C   0  0  0  0  0  0  0  0  0  0  0  0
   55.6770   30.8690   51.8810 C   0  0  0  0  0  0  0  0  0  0  0  0
   54.3830   31.1760   51.4490 C   0  0  0  0  0  0  0  0  0  0  0  0
  1  2  1  0
  2  3  2  0
  2  4  2  0
  2  5  1  0
  5  6  2  0
  6  7  1  0
  7  8  2  0
  8  9  1  0
  9 10  1  0
 10 11  1  0
 11 12  2  0
 11 13  1  0
 13 14  1  0
 14 15  1  0
 15 16  1  0
 16 17  1  0
 17 18  2  0
 17 19  1  0
 19 20  1  0
 20 21  2  0
 21 22  1  0
 22 23  2  0
 23 24  1  0
 24 25  1  0
 24 26  2  0
 16 27  1  0
 27 28  1  0
  8 29  1  0
 29 30  2  0
 30  5  1  0
 28 13  1  0
 26 20  1  0
M  CHG  2   1  -1  25  -1
M  END
>  <UniqueID>  (3215) 
57

>  <SMILES>  (3215) 
[NH-]S(=O)(=O)c1ccc(CNC(=O)N2CCN(C(=O)Cc3cccc([O-])c3)CC2)cc1

>  <Energy>  (3215) 
54.188411978701545

>  <Genealogy>  (3215) 
[NH-]S(=O)(=O)c1ccc(CNC(=O)N2CCN(C(=O)Cc3cccc([O-])c3)CC2)cc1 (protonated)
[NH-]S(=O)(=O)c1ccc(CNC(=O)N2CCN(C(=O)Cc3cccc([O-])c3)CC2)cc1 (3D coordinates assigned)
[NH-]S(=O)(=O)c1ccc(CNC(=O)N2CCN(C(=O)Cc3cccc([O-])c3)CC2)cc1 (nonaromatic ring conformer: 54.188411978701545 kcal/mol)

>  <smiles>  (3215) 
NS(=O)(=O)c1ccc(CNC(=O)N2CCN(C(=O)Cc3cccc(O)c3)CC2)cc1

>  <score_type>  (3215) 
oracle

>  <origin>  (3215) 
adg

>  <m_score__min__energy>  (3215) 
-15

>  <m_primary>  (3215) 
energy

$$$$
75:0
     RDKit          3D

 28 30  0  0  0  0  0  0  0  0999 V2000
   57.3480   24.8860   46.1380 C   0  0  0  0  0  0  0  0  0  0  0  0
   57.0150   23.6700   45.3670 C   0  0  0  0  0  0  0  0  0  0  0  0
   57.2670   23.6270   43.9850 C   0  0  0  0  0  0  0  0  0  0  0  0
   57.0010   22.4660   43.2540 C   0  0  0  0  0  0  0  0  0  0  0  0
   56.4980   21.3340   43.8990 C   0  0  0  0  0  0  0  0  0  0  0  0
   56.2670   21.3580   45.2770 C   0  0  0  0  0  0  0  0  0  0  0  0
   56.5310   22.5180   46.0180 C   0  0  0  0  0  0  0  0  0  0  0  0
   56.2270   22.5040   47.7510 Cl  0  0  0  0  0  0  0  0  0  0  0  0
   57.1850   26.1570   45.7170 C   0  0  0  0  0  0  0  0  0  0  0  0
   58.2880   26.8190   45.2720 N   0  0  0  0  0  0  0  0  0  0  0  0
   58.2440   28.0970   44.8180 C   0  0  0  0  0  0  0  0  0  0  0  0
   59.3080   28.6430   44.4170 O   0  0  0  0  0  0  0  0  0  0  0  0
   57.0140   28.7820   44.7990 C   0  0  0  0  0  0  0  0  0  0  0  0
   56.9220   30.0560   44.3670 C   0  0  0  0  0  0  0  0  0  0  0  0
   57.6310   31.2020   44.9830 C   0  0  0  0  0  0  0  0  0  0  0  0
   57.6830   32.4630   44.3630 C   0  0  0  0  0  0  0  0  0  0  0  0
   58.3840   33.5150   44.9590 C   0  0  0  0  0  0  0  0  0  0  0  0
   59.0610   33.3200   46.1710 C   0  0  0  0  0  0  0  0  0  0  0  0
   59.9340   34.6580   46.9200 S   0  0  0  0  0  0  0  0  0  0  0  0
   59.9280   35.8460   45.9990 O   0  0  0  0  0  0  0  0  0  0  0  0
   59.2730   35.0490   48.2130 O   0  0  0  0  0  0  0  0  0  0  0  0
   61.6090   34.1630   47.2520 C   0  0  0  0  0  0  0  0  0  0  0  0
   59.0290   32.0550   46.7820 C   0  0  0  0  0  0  0  0  0  0  0  0
   59.6900   31.8330   47.9860 O   0  0  0  0  0  0  0  0  0  0  0  0
   58.3270   31.0030   46.1840 C   0  0  0  0  0  0  0  0  0  0  0  0
   55.9130   28.1350   45.2700 N   0  0  0  0  0  0  0  0  0  0  0  0
   55.9540   26.8580   45.7300 C   0  0  0  0  0  0  0  0  0  0  0  0
   54.8970   26.3450   46.1840 O   0  0  0  0  0  0  0  0  0  0  0  0
  1  2  1  0
  2  3  2  0
  3  4  1  0
  4  5  2  0
  5  6  1  0
  6  7  2  0
  7  8  1  0
  1  9  2  3
  9 10  1  0
 10 11  1  0
 11 12  2  0
 11 13  1  0
 13 14  2  0
 14 15  1  0
 15 16  2  0
 16 17  1  0
 17 18  2  0
 18 19  1  0
 19 20  2  0
 19 21  2  0
 19 22  1  0
 18 23  1  0
 23 24  1  0
 23 25  2  0
 13 26  1  0
 26 27  1  0
 27 28  2  0
  7  2  1  0
 27  9  1  0
 25 15  1  0
M  CHG  3  10  -1  24  -1  26  -1
M  END
>  <UniqueID>  (3216) 
69

>  <SMILES>  (3216) 
CS(=O)(=O)c1ccc(/C=c2\[n-]c(=O)c(=Cc3ccccc3Cl)[n-]c2=O)cc1[O-]

>  <Energy>  (3216) 
63.364030118833654

>  <Genealogy>  (3216) 
CS(=O)(=O)c1ccc(C=c2[n-]c(=O)c(=Cc3ccccc3Cl)[n-]c2=O)cc1[O-] (protonated)
CS(=O)(=O)c1ccc(/C=c2\[n-]c(=O)c(=Cc3ccccc3Cl)[n-]c2=O)cc1[O-] (cis-trans isomerization)
CS(=O)(=O)c1ccc(/C=c2\[n-]c(=O)c(=Cc3ccccc3Cl)[n-]c2=O)cc1[O-] (3D coordinates assigned)
CS(=O)(=O)c1ccc(/C=c2\[n-]c(=O)c(=Cc3ccccc3Cl)[n-]c2=O)cc1[O-] (optimized conformer: 63.364030118833654 kcal/mol)

>  <smiles>  (3216) 
CS(=O)(=O)c1ccc(C=c2[nH]c(=O)c(=Cc3ccccc3Cl)[nH]c2=O)cc1O

>  <score_type>  (3216) 
oracle

>  <origin>  (3216) 
adg

>  <m_score__min__energy>  (3216) 
-14.27

>  <m_primary>  (3216) 
energy

$$$$
83:0
     RDKit          3D

 30 33  0  0  0  0  0  0  0  0999 V2000
   55.9390   28.4030   45.3600 O   0  0  0  0  0  0  0  0  0  0  0  0
   56.0490   27.0830   45.7940 C   0  0  0  0  0  0  0  0  0  0  0  0
   54.9900   26.2710   45.9450 N   0  0  0  0  0  0  0  0  0  0  0  0
   55.5540   25.1220   46.3720 C   0  0  0  0  0  0  0  0  0  0  0  0
   54.8780   24.0930   46.6380 O   0  0  0  0  0  0  0  0  0  0  0  0
   56.8960   25.1640   46.5020 N   0  0  0  0  0  0  0  0  0  0  0  0
   57.2130   26.4150   46.1200 C   0  0  0  0  0  0  0  0  0  0  0  0
   58.5780   26.9910   46.1330 C   0  0  0  0  0  0  0  0  0  0  0  0
   59.0110   27.9380   46.9920 C   0  0  0  0  0  0  0  0  0  0  0  0
   58.5170   29.2280   47.1320 C   0  0  0  0  0  0  0  0  0  0  0  0
   59.2360   29.8240   48.1480 C   0  0  0  0  0  0  0  0  0  0  0  0
   59.0130   31.2080   48.6130 C   0  0  0  0  0  0  0  0  0  0  0  0
   58.1800   31.4120   49.5350 O   0  0  0  0  0  0  0  0  0  0  0  0
   59.7380   32.3170   48.0390 N   0  0  0  0  0  0  0  0  0  0  0  0
   59.7620   33.6260   48.7060 C   0  0  0  0  0  0  0  0  0  0  0  0
   59.0320   34.6860   47.8560 C   0  0  0  0  0  0  0  0  0  0  0  0
   59.0320   34.3670   46.3410 C   0  0  0  0  0  0  0  0  0  0  0  0
   57.8230   33.5990   46.0160 N   0  0  0  0  0  0  0  0  0  0  0  0
   57.6220   32.8080   44.9990 C   0  0  0  0  0  0  0  0  0  0  0  0
   56.9000   31.6700   45.1980 N   0  0  0  0  0  0  0  0  0  0  0  0
   56.6420   30.7870   44.1970 C   0  0  0  0  0  0  0  0  0  0  0  0
   57.1220   31.0310   42.9110 C   0  0  0  0  0  0  0  0  0  0  0  0
   57.8640   32.1880   42.6670 C   0  0  0  0  0  0  0  0  0  0  0  0
   58.1190   33.0850   43.7080 C   0  0  0  0  0  0  0  0  0  0  0  0
   60.2970   33.5680   45.9620 C   0  0  0  0  0  0  0  0  0  0  0  0
   60.3240   32.2120   46.6900 C   0  0  0  0  0  0  0  0  0  0  0  0
   60.1530   28.9640   48.6500 N   0  0  0  0  0  0  0  0  0  0  0  0
   61.0350   29.1870   49.8010 C   0  0  0  0  0  0  0  0  0  0  0  0
   60.0210   27.8050   47.9540 C   0  0  0  0  0  0  0  0  0  0  0  0
   60.7630   26.7100   48.1850 C   0  0  0  0  0  0  0  0  0  0  0  0
  1  2  1  0
  2  3  1  0
  3  4  1  0
  4  5  2  0
  4  6  1  0
  6  7  1  0
  7  8  1  0
  8  9  2  0
  9 10  1  0
 10 11  2  0
 11 12  1  0
 12 13  2  0
 12 14  1  0
 14 15  1  0
 15 16  1  0
 16 17  1  0
 17 18  1  0
 18 19  2  3
 19 20  1  0
 20 21  1  0
 21 22  2  0
 22 23  1  0
 23 24  2  0
 17 25  1  0
 25 26  1  0
 11 27  1  0
 27 28  1  0
 27 29  1  0
 29 30  2  0
  7  2  2  0
 29  9  1  0
 26 14  1  0
 24 19  1  0
M  CHG  3   3  -1   6  -1  20  -1
M  END
>  <UniqueID>  (3217) 
76

>  <SMILES>  (3217) 
C=c1/c(=C/c2[n-]c(=O)[n-]c2O)cc(C(=O)N2CCC(N=c3cccc[n-]3)CC2)n1C

>  <Energy>  (3217) 
128.37036407423236

>  <Genealogy>  (3217) 
C=c1c(=Cc2[n-]c(=O)[n-]c2O)cc(C(=O)N2CCC(N=c3cccc[n-]3)CC2)n1C (protonated)
C=c1/c(=C/c2[n-]c(=O)[n-]c2O)cc(C(=O)N2CCC(N=c3cccc[n-]3)CC2)n1C (cis-trans isomerization)
C=c1/c(=C/c2[n-]c(=O)[n-]c2O)cc(C(=O)N2CCC(N=c3cccc[n-]3)CC2)n1C (3D coordinates assigned)
C=c1/c(=C/c2[n-]c(=O)[n-]c2O)cc(C(=O)N2CCC(N=c3cccc[n-]3)CC2)n1C (nonaromatic ring conformer: 128.37036407423236 kcal/mol)

>  <smiles>  (3217) 
C=c1c(=Cc2[nH]c(=O)[nH]c2O)cc(C(=O)N2CCC(N=c3cccc[nH]3)CC2)n1C

>  <score_type>  (3217) 
oracle

>  <origin>  (3217) 
adg

>  <m_score__min__energy>  (3217) 
-15.07

>  <m_primary>  (3217) 
energy

$$$$
85:0
     RDKit          3D

 24 26  0  0  0  0  0  0  0  0999 V2000
   58.3480   29.0940   44.4390 O   0  0  0  0  0  0  0  0  0  0  0  0
   58.3920   28.5680   45.5840 C   0  0  0  0  0  0  0  0  0  0  0  0
   57.5270   27.4050   45.8700 C   0  0  0  0  0  0  0  0  0  0  0  0
   58.0850   26.2290   46.3930 C   0  0  0  0  0  0  0  0  0  0  0  0
   57.2720   25.1270   46.6620 C   0  0  0  0  0  0  0  0  0  0  0  0
   55.8990   25.2140   46.4200 C   0  0  0  0  0  0  0  0  0  0  0  0
   55.1520   24.2290   46.6530 O   0  0  0  0  0  0  0  0  0  0  0  0
   55.3670   26.3670   45.9360 N   0  0  0  0  0  0  0  0  0  0  0  0
   56.1350   27.4570   45.6660 C   0  0  0  0  0  0  0  0  0  0  0  0
   55.5250   28.6200   45.2110 O   0  0  0  0  0  0  0  0  0  0  0  0
   59.2540   29.1260   46.5940 N   0  0  0  0  0  0  0  0  0  0  0  0
   60.5390   29.7320   46.2240 C   0  0  0  0  0  0  0  0  0  0  0  0
   60.6370   31.1750   46.7560 C   0  0  0  0  0  0  0  0  0  0  0  0
   59.8730   31.3870   48.0100 N   0  0  0  0  0  0  0  0  0  0  0  0
   60.3680   32.5320   48.8050 C   0  0  0  0  0  0  0  0  0  0  0  0
   59.5880   33.8430   48.5670 C   0  0  0  0  0  0  0  0  0  0  0  0
   58.9590   33.8380   47.2000 C   0  0  0  0  0  0  0  0  0  0  0  0
   59.5780   34.5080   46.1320 C   0  0  0  0  0  0  0  0  0  0  0  0
   58.9750   34.5290   44.8700 C   0  0  0  0  0  0  0  0  0  0  0  0
   57.7460   33.8920   44.6700 C   0  0  0  0  0  0  0  0  0  0  0  0
   57.1170   33.2360   45.7310 C   0  0  0  0  0  0  0  0  0  0  0  0
   57.7170   33.2110   46.9940 C   0  0  0  0  0  0  0  0  0  0  0  0
   59.6690   30.1590   48.8000 C   0  0  0  0  0  0  0  0  0  0  0  0
   58.8040   29.1870   47.9920 C   0  0  0  0  0  0  0  0  0  0  0  0
  1  2  2  0
  2  3  1  0
  3  4  1  0
  4  5  2  0
  5  6  1  0
  6  7  2  0
  6  8  1  0
  8  9  1  0
  9 10  1  0
  2 11  1  0
 11 12  1  0
 12 13  1  0
 13 14  1  0
 14 15  1  0
 15 16  1  0
 16 17  1  0
 17 18  2  0
 18 19  1  0
 19 20  2  0
 20 21  1  0
 21 22  2  0
 14 23  1  0
 23 24  1  0
  9  3  2  0
 24 11  1  0
 22 17  1  0
M  CHG  2   8  -1  10  -1
M  END
>  <UniqueID>  (3218) 
78

>  <SMILES>  (3218) 
O=C(c1ccc(=O)[n-]c1[O-])N1CCN(CCc2ccccc2)CC1

>  <Energy>  (3218) 
59.065716011921964

>  <Genealogy>  (3218) 
O=C(c1ccc(=O)[n-]c1[O-])N1CCN(CCc2ccccc2)CC1 (protonated)
O=C(c1ccc(=O)[n-]c1[O-])N1CCN(CCc2ccccc2)CC1 (3D coordinates assigned)
O=C(c1ccc(=O)[n-]c1[O-])N1CCN(CCc2ccccc2)CC1 (nonaromatic ring conformer: 59.065716011921964 kcal/mol)

>  <smiles>  (3218) 
O=C(c1ccc(=O)[nH]c1O)N1CCN(CCc2ccccc2)CC1

>  <score_type>  (3218) 
oracle

>  <origin>  (3218) 
adg

>  <m_score__min__energy>  (3218) 
-14.619999999999999

>  <m_primary>  (3218) 
energy

$$$$
6:0
     RDKit          3D

 31 34  0  0  0  0  0  0  0  0999 V2000
   53.5420   28.2210   54.1130 C   0  0  0  0  0  0  0  0  0  0  0  0
   54.1050   29.2230   53.4210 C   0  0  0  0  0  0  0  0  0  0  0  0
   53.4450   30.2040   52.6630 C   0  0  0  0  0  0  0  0  0  0  0  0
   52.1580   30.3080   52.2750 C   0  0  0  0  0  0  0  0  0  0  0  0
   51.6940   30.8280   50.9810 C   0  0  0  0  0  0  0  0  0  0  0  0
   51.5920   30.0790   49.8710 N   0  0  0  0  0  0  0  0  0  0  0  0
   51.0200   30.9150   48.9790 C   0  0  0  0  0  0  0  0  0  0  0  0
   50.7730   30.5770   47.7920 O   0  0  0  0  0  0  0  0  0  0  0  0
   50.7220   32.1420   49.4600 N   0  0  0  0  0  0  0  0  0  0  0  0
   51.1410   32.0650   50.7340 C   0  0  0  0  0  0  0  0  0  0  0  0
   50.9980   33.0930   51.6560 O   0  0  0  0  0  0  0  0  0  0  0  0
   54.4060   31.1400   52.3250 C   0  0  0  0  0  0  0  0  0  0  0  0
   55.6070   30.6860   52.8290 C   0  0  0  0  0  0  0  0  0  0  0  0
   56.9230   31.3830   52.6260 C   0  0  0  0  0  0  0  0  0  0  0  0
   57.8320   30.5390   51.7780 C   0  0  0  0  0  0  0  0  0  0  0  0
   57.6690   29.2900   51.7560 O   0  0  0  0  0  0  0  0  0  0  0  0
   58.9120   31.1320   51.0370 N   0  0  0  0  0  0  0  0  0  0  0  0
   60.1970   30.4290   50.9360 C   0  0  0  0  0  0  0  0  0  0  0  0
   61.3490   31.4330   51.0230 C   0  0  0  0  0  0  0  0  0  0  0  0
   61.0940   32.5570   50.1180 N   0  0  0  0  0  0  0  0  0  0  0  0
   61.9890   32.8390   49.0290 C   0  0  0  0  0  0  0  0  0  0  0  0
   62.8780   33.9220   49.1210 C   0  0  0  0  0  0  0  0  0  0  0  0
   63.7470   34.2130   48.0660 C   0  0  0  0  0  0  0  0  0  0  0  0
   63.7370   33.4260   46.9130 C   0  0  0  0  0  0  0  0  0  0  0  0
   62.8620   32.3410   46.8150 C   0  0  0  0  0  0  0  0  0  0  0  0
   61.9870   32.0420   47.8670 C   0  0  0  0  0  0  0  0  0  0  0  0
   60.9370   30.6380   47.7240 Cl  0  0  0  0  0  0  0  0  0  0  0  0
   59.8150   33.2640   50.2370 C   0  0  0  0  0  0  0  0  0  0  0  0
   58.6680   32.2600   50.1300 C   0  0  0  0  0  0  0  0  0  0  0  0
   55.4320   29.5080   53.4720 N   0  0  0  0  0  0  0  0  0  0  0  0
   56.4610   28.7460   54.1900 C   0  0  0  0  0  0  0  0  0  0  0  0
  1  2  2  0
  2  3  1  0
  3  4  2  0
  4  5  1  0
  5  6  1  0
  6  7  1  0
  7  8  2  0
  7  9  1  0
  9 10  1  0
 10 11  1  0
  3 12  1  0
 12 13  2  0
 13 14  1  0
 14 15  1  0
 15 16  2  0
 15 17  1  0
 17 18  1  0
 18 19  1  0
 19 20  1  0
 20 21  1  0
 21 22  2  0
 22 23  1  0
 23 24  2  0
 24 25  1  0
 25 26  2  0
 26 27  1  0
 20 28  1  0
 28 29  1  0
 13 30  1  0
 30 31  1  0
 30  2  1  0
 10  5  2  0
 29 17  1  0
 26 21  1  0
M  CHG  3   6  -1   9  -1  11  -1
M  END
>  <UniqueID>  (3219) 
7

>  <SMILES>  (3219) 
C=c1/c(=C\c2[n-]c(=O)[n-]c2[O-])cc(CC(=O)N2CCN(c3ccccc3Cl)CC2)n1C

>  <Energy>  (3219) 
130.30626717798768

>  <Genealogy>  (3219) 
C=c1c(=Cc2[n-]c(=O)[n-]c2[O-])cc(CC(=O)N2CCN(c3ccccc3Cl)CC2)n1C (protonated)
C=c1/c(=C\c2[n-]c(=O)[n-]c2[O-])cc(CC(=O)N2CCN(c3ccccc3Cl)CC2)n1C (cis-trans isomerization)
C=c1/c(=C\c2[n-]c(=O)[n-]c2[O-])cc(CC(=O)N2CCN(c3ccccc3Cl)CC2)n1C (3D coordinates assigned)
C=c1/c(=C\c2[n-]c(=O)[n-]c2[O-])cc(CC(=O)N2CCN(c3ccccc3Cl)CC2)n1C (nonaromatic ring conformer: 130.30626717798768 kcal/mol)

>  <smiles>  (3219) 
C=c1c(=Cc2[nH]c(=O)[nH]c2O)cc(CC(=O)N2CCN(c3ccccc3Cl)CC2)n1C

>  <score_type>  (3219) 
oracle

>  <origin>  (3219) 
adg

>  <m_score__min__energy>  (3219) 
-19.030000000000001

>  <m_primary>  (3219) 
energy

$$$$
11:0
     RDKit          3D

 29 32  0  0  0  0  0  0  0  0999 V2000
   60.1500   27.2870   46.9530 C   0  0  0  0  0  0  0  0  0  0  0  0
   59.3090   28.1690   46.3840 C   0  0  0  0  0  0  0  0  0  0  0  0
   58.3020   27.8610   45.4530 C   0  0  0  0  0  0  0  0  0  0  0  0
   57.7680   26.6800   45.0870 C   0  0  0  0  0  0  0  0  0  0  0  0
   57.2360   25.6590   46.0030 C   0  0  0  0  0  0  0  0  0  0  0  0
   57.9610   24.6290   46.4710 N   0  0  0  0  0  0  0  0  0  0  0  0
   57.0590   23.8980   47.1610 C   0  0  0  0  0  0  0  0  0  0  0  0
   57.3670   22.8410   47.7700 O   0  0  0  0  0  0  0  0  0  0  0  0
   55.7980   24.3830   47.1380 N   0  0  0  0  0  0  0  0  0  0  0  0
   55.9230   25.4900   46.3880 C   0  0  0  0  0  0  0  0  0  0  0  0
   54.8590   26.3160   46.0390 O   0  0  0  0  0  0  0  0  0  0  0  0
   57.8820   29.0650   44.9260 C   0  0  0  0  0  0  0  0  0  0  0  0
   58.5740   30.0560   45.5870 C   0  0  0  0  0  0  0  0  0  0  0  0
   58.4030   31.5170   45.3000 C   0  0  0  0  0  0  0  0  0  0  0  0
   59.4130   29.5240   46.5120 N   0  0  0  0  0  0  0  0  0  0  0  0
   60.3350   30.2860   47.3810 C   0  0  0  0  0  0  0  0  0  0  0  0
   59.6270   30.8960   48.5770 C   0  0  0  0  0  0  0  0  0  0  0  0
   58.8700   30.0490   49.4070 C   0  0  0  0  0  0  0  0  0  0  0  0
   58.2040   30.5470   50.5270 C   0  0  0  0  0  0  0  0  0  0  0  0
   57.4940   29.7020   51.3230 N   0  0  0  0  0  0  0  0  0  0  0  0
   56.8300   30.1430   52.4230 C   0  0  0  0  0  0  0  0  0  0  0  0
   56.8580   31.4950   52.7650 C   0  0  0  0  0  0  0  0  0  0  0  0
   57.5760   32.3930   51.9690 C   0  0  0  0  0  0  0  0  0  0  0  0
   57.5970   33.6150   52.2810 O   0  0  0  0  0  0  0  0  0  0  0  0
   58.2620   31.9230   50.8320 C   0  0  0  0  0  0  0  0  0  0  0  0
   58.9890   32.7820   49.9930 C   0  0  0  0  0  0  0  0  0  0  0  0
   59.6750   32.2870   48.8690 C   0  0  0  0  0  0  0  0  0  0  0  0
   60.3630   33.2920   47.9690 C   0  0  0  0  0  0  0  0  0  0  0  0
   59.3590   34.2770   47.3810 C   0  0  0  0  0  0  0  0  0  0  0  0
  1  2  2  0
  2  3  1  0
  3  4  2  3
  4  5  1  0
  5  6  1  0
  6  7  1  0
  7  8  2  0
  7  9  1  0
  9 10  1  0
 10 11  1  0
  3 12  1  0
 12 13  2  0
 13 14  1  0
 13 15  1  0
 15 16  1  0
 16 17  1  0
 17 18  2  0
 18 19  1  0
 19 20  1  0
 20 21  1  0
 21 22  2  0
 22 23  1  0
 23 24  2  0
 23 25  1  0
 25 26  1  0
 26 27  2  0
 27 28  1  0
 28 29  1  0
 15  2  1  0
 27 17  1  0
 10  5  2  0
 25 19  2  0
M  CHG  3   6  -1   9  -1  20  -1
M  END
>  <UniqueID>  (3220) 
12

>  <SMILES>  (3220) 
C=c1c(=Cc2[n-]c(=O)[n-]c2O)cc(C)n1Cc1cc2[n-]ccc(=O)c2cc1CC

>  <Energy>  (3220) 
125.48782317897142

>  <Genealogy>  (3220) 
C=c1c(=Cc2[n-]c(=O)[n-]c2O)cc(C)n1Cc1cc2[n-]ccc(=O)c2cc1CC (protonated)
C=c1c(=Cc2[n-]c(=O)[n-]c2O)cc(C)n1Cc1cc2[n-]ccc(=O)c2cc1CC (3D coordinates assigned)
C=c1c(=Cc2[n-]c(=O)[n-]c2O)cc(C)n1Cc1cc2[n-]ccc(=O)c2cc1CC (optimized conformer: 125.48782317897142 kcal/mol)

>  <smiles>  (3220) 
C=c1c(=Cc2[nH]c(=O)[nH]c2O)cc(C)n1Cc1cc2[nH]ccc(=O)c2cc1CC

>  <score_type>  (3220) 
oracle

>  <origin>  (3220) 
adg

>  <m_score__min__energy>  (3220) 
-14.449999999999999

>  <m_primary>  (3220) 
energy

$$$$
16:0
     RDKit          3D

 25 27  0  0  0  0  0  0  0  0999 V2000
   59.9000   27.5270   46.1960 C   0  0  0  0  0  0  0  0  0  0  0  0
   59.0050   28.2230   45.4730 C   0  0  0  0  0  0  0  0  0  0  0  0
   57.9600   27.6800   44.7130 C   0  0  0  0  0  0  0  0  0  0  0  0
   57.6690   26.3700   44.5500 C   0  0  0  0  0  0  0  0  0  0  0  0
   57.0950   25.4790   45.5820 C   0  0  0  0  0  0  0  0  0  0  0  0
   57.6810   24.3820   46.0940 N   0  0  0  0  0  0  0  0  0  0  0  0
   56.7970   23.9520   47.0200 C   0  0  0  0  0  0  0  0  0  0  0  0
   56.9940   22.9250   47.7200 O   0  0  0  0  0  0  0  0  0  0  0  0
   55.6890   24.7120   47.1390 N   0  0  0  0  0  0  0  0  0  0  0  0
   55.8950   25.6760   46.2270 C   0  0  0  0  0  0  0  0  0  0  0  0
   55.0050   26.7150   45.9890 O   0  0  0  0  0  0  0  0  0  0  0  0
   57.2610   28.7630   44.1960 C   0  0  0  0  0  0  0  0  0  0  0  0
   57.8910   29.9050   44.6480 C   0  0  0  0  0  0  0  0  0  0  0  0
   57.3890   31.2720   44.3830 C   0  0  0  0  0  0  0  0  0  0  0  0
   57.0250   31.5770   43.2160 O   0  0  0  0  0  0  0  0  0  0  0  0
   57.2150   32.2010   45.4600 N   0  0  0  0  0  0  0  0  0  0  0  0
   58.0600   33.3190   45.7810 C   0  0  0  0  0  0  0  0  0  0  0  0
   58.4460   34.2520   44.8010 C   0  0  0  0  0  0  0  0  0  0  0  0
   59.2840   35.3200   45.1330 C   0  0  0  0  0  0  0  0  0  0  0  0
   59.7540   35.4620   46.4380 C   0  0  0  0  0  0  0  0  0  0  0  0
   59.3990   34.5290   47.4140 C   0  0  0  0  0  0  0  0  0  0  0  0
   58.5610   33.4480   47.0930 C   0  0  0  0  0  0  0  0  0  0  0  0
   58.1910   32.4450   48.1520 C   0  0  0  0  0  0  0  0  0  0  0  0
   58.9750   29.5810   45.3970 N   0  0  0  0  0  0  0  0  0  0  0  0
   59.9210   30.5240   46.0060 C   0  0  0  0  0  0  0  0  0  0  0  0
  1  2  2  0
  2  3  1  0
  3  4  2  3
  4  5  1  0
  5  6  1  0
  6  7  1  0
  7  8  2  0
  7  9  1  0
  9 10  1  0
 10 11  1  0
  3 12  1  0
 12 13  2  0
 13 14  1  0
 14 15  2  0
 14 16  1  0
 16 17  1  0
 17 18  2  0
 18 19  1  0
 19 20  2  0
 20 21  1  0
 21 22  2  0
 22 23  1  0
 13 24  1  0
 24 25  1  0
 24  2  1  0
 10  5  2  0
 22 17  1  0
M  CHG  4   6  -1   9  -1  11  -1  16  -1
M  END
>  <UniqueID>  (3221) 
17

>  <SMILES>  (3221) 
C=c1c(=Cc2[n-]c(=O)[n-]c2[O-])cc(C(=O)[N-]c2ccccc2C)n1C

>  <Energy>  (3221) 
110.30268366910379

>  <Genealogy>  (3221) 
C=c1c(=Cc2[n-]c(=O)[n-]c2[O-])cc(C(=O)[N-]c2ccccc2C)n1C (protonated)
C=c1c(=Cc2[n-]c(=O)[n-]c2[O-])cc(C(=O)[N-]c2ccccc2C)n1C (3D coordinates assigned)
C=c1c(=Cc2[n-]c(=O)[n-]c2[O-])cc(C(=O)[N-]c2ccccc2C)n1C (optimized conformer: 110.30268366910379 kcal/mol)

>  <smiles>  (3221) 
C=c1c(=Cc2[nH]c(=O)[nH]c2O)cc(C(=O)Nc2ccccc2C)n1C

>  <score_type>  (3221) 
oracle

>  <origin>  (3221) 
adg

>  <m_score__min__energy>  (3221) 
-17.609999999999999

>  <m_primary>  (3221) 
energy

$$$$
18:0
     RDKit          3D

 30 33  0  0  0  0  0  0  0  0999 V2000
   55.3840   27.5730   54.1890 C   0  0  0  0  0  0  0  0  0  0  0  0
   55.2480   28.6210   53.3720 C   0  0  0  0  0  0  0  0  0  0  0  0
   54.0040   28.9400   52.9210 N   0  0  0  0  0  0  0  0  0  0  0  0
   53.7630   29.9950   52.0960 C   0  0  0  0  0  0  0  0  0  0  0  0
   52.5180   30.2610   51.6660 C   0  0  0  0  0  0  0  0  0  0  0  0
   51.6540   31.3310   52.2080 C   0  0  0  0  0  0  0  0  0  0  0  0
   51.3090   31.3980   53.5060 N   0  0  0  0  0  0  0  0  0  0  0  0
   50.4810   32.4630   53.5600 C   0  0  0  0  0  0  0  0  0  0  0  0
   49.9490   32.8560   54.6300 O   0  0  0  0  0  0  0  0  0  0  0  0
   50.2570   33.0670   52.3740 N   0  0  0  0  0  0  0  0  0  0  0  0
   50.9960   32.3350   51.5240 C   0  0  0  0  0  0  0  0  0  0  0  0
   51.0180   32.5510   50.1520 O   0  0  0  0  0  0  0  0  0  0  0  0
   54.8420   30.7840   51.6650 C   0  0  0  0  0  0  0  0  0  0  0  0
   56.1420   30.4960   52.1060 C   0  0  0  0  0  0  0  0  0  0  0  0
   57.2830   31.3240   51.6450 C   0  0  0  0  0  0  0  0  0  0  0  0
   57.0410   32.3330   50.9270 O   0  0  0  0  0  0  0  0  0  0  0  0
   58.6530   30.9520   51.9560 N   0  0  0  0  0  0  0  0  0  0  0  0
   59.4110   30.5780   50.7430 C   0  0  0  0  0  0  0  0  0  0  0  0
   59.8240   31.7850   49.8930 C   0  0  0  0  0  0  0  0  0  0  0  0
   60.4790   32.7960   50.7300 N   0  0  0  0  0  0  0  0  0  0  0  0
   61.5820   33.5840   50.2300 C   0  0  0  0  0  0  0  0  0  0  0  0
   62.3530   34.1560   51.0490 O   0  0  0  0  0  0  0  0  0  0  0  0
   61.8780   33.6830   48.7470 C   0  0  0  0  0  0  0  0  0  0  0  0
   62.2030   32.3370   48.0970 C   0  0  0  0  0  0  0  0  0  0  0  0
   60.9950   32.4810   47.1820 C   0  0  0  0  0  0  0  0  0  0  0  0
   60.6480   33.8080   47.8420 C   0  0  0  0  0  0  0  0  0  0  0  0
   59.8000   33.2010   51.9660 C   0  0  0  0  0  0  0  0  0  0  0  0
   59.3530   31.9710   52.7720 C   0  0  0  0  0  0  0  0  0  0  0  0
   56.3490   29.4030   52.9700 C   0  0  0  0  0  0  0  0  0  0  0  0
   57.5130   29.1400   53.3880 O   0  0  0  0  0  0  0  0  0  0  0  0
  1  2  2  0
  2  3  1  0
  3  4  1  0
  4  5  2  3
  5  6  1  0
  6  7  1  0
  7  8  1  0
  8  9  2  0
  8 10  1  0
 10 11  1  0
 11 12  1  0
  4 13  1  0
 13 14  2  0
 14 15  1  0
 15 16  2  0
 15 17  1  0
 17 18  1  0
 18 19  1  0
 19 20  1  0
 20 21  1  0
 21 22  2  0
 21 23  1  0
 23 24  1  0
 24 25  1  0
 25 26  1  0
 20 27  1  0
 27 28  1  0
 14 29  1  0
 29 30  2  0
 29  2  1  0
 11  6  2  0
 28 17  1  0
 26 23  1  0
M  CHG  5   3  -1   7  -1  10  -1  12  -1  17   1
M  END
>  <UniqueID>  (3222) 
19

>  <SMILES>  (3222) 
C=c1[n-]c(=Cc2[n-]c(=O)[n-]c2[O-])cc(C(=O)[NH+]2CCN(C(=O)C3CCC3)CC2)c1=O

>  <Energy>  (3222) 
161.8914780473021

>  <Genealogy>  (3222) 
C=c1[n-]c(=Cc2[n-]c(=O)[n-]c2[O-])cc(C(=O)[NH+]2CCN(C(=O)C3CCC3)CC2)c1=O (protonated)
C=c1[n-]c(=Cc2[n-]c(=O)[n-]c2[O-])cc(C(=O)[NH+]2CCN(C(=O)C3CCC3)CC2)c1=O (3D coordinates assigned)
C=c1[n-]c(=Cc2[n-]c(=O)[n-]c2[O-])cc(C(=O)[NH+]2CCN(C(=O)C3CCC3)CC2)c1=O (nonaromatic ring conformer: 161.8914780473021 kcal/mol)

>  <smiles>  (3222) 
C=c1[nH]c(=Cc2[nH]c(=O)[nH]c2O)cc(C(=O)N2CCN(C(=O)C3CCC3)CC2)c1=O

>  <score_type>  (3222) 
oracle

>  <origin>  (3222) 
adg

>  <m_score__min__energy>  (3222) 
-17.75

>  <m_primary>  (3222) 
energy

$$$$
34:0
     RDKit          3D

 31 34  0  0  0  0  0  0  0  0999 V2000
   56.0440   29.9430   44.7330 O   0  0  0  0  0  0  0  0  0  0  0  0
   56.6610   28.8120   45.2690 C   0  0  0  0  0  0  0  0  0  0  0  0
   55.8920   27.7360   45.5790 N   0  0  0  0  0  0  0  0  0  0  0  0
   56.4380   26.6020   46.0860 C   0  0  0  0  0  0  0  0  0  0  0  0
   55.7010   25.6230   46.3690 O   0  0  0  0  0  0  0  0  0  0  0  0
   57.7780   26.5190   46.2810 N   0  0  0  0  0  0  0  0  0  0  0  0
   58.5940   27.5640   45.9890 C   0  0  0  0  0  0  0  0  0  0  0  0
   59.8350   27.4500   46.1710 O   0  0  0  0  0  0  0  0  0  0  0  0
   58.0490   28.7640   45.4990 C   0  0  0  0  0  0  0  0  0  0  0  0
   58.9230   29.8930   45.1360 C   0  0  0  0  0  0  0  0  0  0  0  0
   58.7660   31.1710   45.5340 C   0  0  0  0  0  0  0  0  0  0  0  0
   59.4260   31.8770   46.5570 C   0  0  0  0  0  0  0  0  0  0  0  0
   60.3570   31.3480   47.6230 C   0  0  0  0  0  0  0  0  0  0  0  0
   61.8060   31.3560   47.1250 C   0  0  0  0  0  0  0  0  0  0  0  0
   62.5230   32.6260   47.5000 C   0  0  0  0  0  0  0  0  0  0  0  0
   62.6000   33.5660   46.6630 O   0  0  0  0  0  0  0  0  0  0  0  0
   63.1420   32.7750   48.7920 N   0  0  0  0  0  0  0  0  0  0  0  0
   64.5030   32.2680   49.0040 C   0  0  0  0  0  0  0  0  0  0  0  0
   65.2120   32.9980   50.1200 C   0  0  0  0  0  0  0  0  0  0  0  0
   66.5670   32.7170   50.3620 C   0  0  0  0  0  0  0  0  0  0  0  0
   67.2500   33.3590   51.3980 C   0  0  0  0  0  0  0  0  0  0  0  0
   66.5870   34.2850   52.2040 C   0  0  0  0  0  0  0  0  0  0  0  0
   65.2390   34.5710   51.9810 C   0  0  0  0  0  0  0  0  0  0  0  0
   64.5350   33.9210   50.9540 C   0  0  0  0  0  0  0  0  0  0  0  0
   63.0940   34.2860   50.7030 C   0  0  0  0  0  0  0  0  0  0  0  0
   62.3610   33.1680   49.9680 C   0  0  0  0  0  0  0  0  0  0  0  0
   58.8600   33.1540   46.5680 C   0  0  0  0  0  0  0  0  0  0  0  0
   59.1280   34.2390   47.5750 C   0  0  0  0  0  0  0  0  0  0  0  0
   57.8860   33.1620   45.5780 C   0  0  0  0  0  0  0  0  0  0  0  0
   57.0600   34.1670   45.2750 C   0  0  0  0  0  0  0  0  0  0  0  0
   57.8460   31.9700   44.9550 N   0  0  0  0  0  0  0  0  0  0  0  0
  1  2  1  0
  2  3  1  0
  3  4  1  0
  4  5  2  0
  4  6  1  0
  6  7  1  0
  7  8  2  0
  7  9  1  0
  9 10  1  0
 10 11  2  0
 11 12  1  0
 12 13  1  0
 13 14  1  0
 14 15  1  0
 15 16  2  0
 15 17  1  0
 17 18  1  0
 18 19  1  0
 19 20  2  0
 20 21  1  0
 21 22  2  0
 22 23  1  0
 23 24  2  0
 24 25  1  0
 25 26  1  0
 12 27  2  0
 27 28  1  0
 27 29  1  0
 29 30  2  0
 29 31  1  0
  9  2  2  0
 31 11  1  0
 26 17  1  0
 24 19  1  0
M  CHG  2   3  -1   6  -1
M  END
>  <UniqueID>  (3223) 
35

>  <SMILES>  (3223) 
C=c1[nH]/c(=C/c2c(O)[n-]c(=O)[n-]c2=O)c(CCC(=O)N2CCc3ccccc3C2)c1C

>  <Energy>  (3223) 
97.31470852662308

>  <Genealogy>  (3223) 
C=c1[nH]c(=Cc2c(O)[n-]c(=O)[n-]c2=O)c(CCC(=O)N2CCc3ccccc3C2)c1C (protonated)
C=c1[nH]/c(=C/c2c(O)[n-]c(=O)[n-]c2=O)c(CCC(=O)N2CCc3ccccc3C2)c1C (cis-trans isomerization)
C=c1[nH]/c(=C/c2c(O)[n-]c(=O)[n-]c2=O)c(CCC(=O)N2CCc3ccccc3C2)c1C (3D coordinates assigned)
C=c1[nH]/c(=C/c2c(O)[n-]c(=O)[n-]c2=O)c(CCC(=O)N2CCc3ccccc3C2)c1C (nonaromatic ring conformer: 97.31470852662308 kcal/mol)

>  <smiles>  (3223) 
C=c1[nH]c(=Cc2c(O)[nH]c(=O)[nH]c2=O)c(CCC(=O)N2CCc3ccccc3C2)c1C

>  <score_type>  (3223) 
oracle

>  <origin>  (3223) 
adg

>  <m_score__min__energy>  (3223) 
-14.119999999999999

>  <m_primary>  (3223) 
energy

$$$$
36:0
     RDKit          3D

 34 37  0  0  0  0  0  0  0  0999 V2000
   59.9640   27.3700   46.2800 C   0  0  0  0  0  0  0  0  0  0  0  0
   59.1200   28.0010   45.4470 C   0  0  0  0  0  0  0  0  0  0  0  0
   58.1860   27.4030   44.5870 C   0  0  0  0  0  0  0  0  0  0  0  0
   57.7460   26.1330   44.5000 C   0  0  0  0  0  0  0  0  0  0  0  0
   57.1530   25.3540   45.6000 C   0  0  0  0  0  0  0  0  0  0  0  0
   57.7540   24.3190   46.2170 N   0  0  0  0  0  0  0  0  0  0  0  0
   56.9140   24.0300   47.2340 C   0  0  0  0  0  0  0  0  0  0  0  0
   57.1270   23.0900   48.0430 O   0  0  0  0  0  0  0  0  0  0  0  0
   55.8320   24.8340   47.3200 N   0  0  0  0  0  0  0  0  0  0  0  0
   56.0080   25.6740   46.2870 C   0  0  0  0  0  0  0  0  0  0  0  0
   55.1410   26.7160   45.9820 O   0  0  0  0  0  0  0  0  0  0  0  0
   57.6900   28.4200   43.7900 C   0  0  0  0  0  0  0  0  0  0  0  0
   58.2690   29.5940   44.2260 C   0  0  0  0  0  0  0  0  0  0  0  0
   57.8820   30.9360   43.7360 C   0  0  0  0  0  0  0  0  0  0  0  0
   57.6050   31.0850   42.5160 O   0  0  0  0  0  0  0  0  0  0  0  0
   57.8920   32.0830   44.6070 N   0  0  0  0  0  0  0  0  0  0  0  0
   57.4100   31.9870   45.9920 C   0  0  0  0  0  0  0  0  0  0  0  0
   58.3220   32.8120   46.9010 C   0  0  0  0  0  0  0  0  0  0  0  0
   58.3750   34.3020   46.4760 C   0  0  0  0  0  0  0  0  0  0  0  0
   59.7600   34.8640   46.7430 C   0  0  0  0  0  0  0  0  0  0  0  0
   60.0090   36.0540   46.4050 O   0  0  0  0  0  0  0  0  0  0  0  0
   60.8300   34.0450   47.2740 N   0  0  0  0  0  0  0  0  0  0  0  0
   60.9040   33.8220   48.6990 C   0  0  0  0  0  0  0  0  0  0  0  0
   62.1160   33.4510   49.3090 C   0  0  0  0  0  0  0  0  0  0  0  0
   62.1780   33.2510   50.6920 C   0  0  0  0  0  0  0  0  0  0  0  0
   61.0360   33.4190   51.4770 C   0  0  0  0  0  0  0  0  0  0  0  0
   59.8270   33.7870   50.8810 C   0  0  0  0  0  0  0  0  0  0  0  0
   59.7590   33.9880   49.5000 C   0  0  0  0  0  0  0  0  0  0  0  0
   61.8240   33.4120   46.3920 C   0  0  0  0  0  0  0  0  0  0  0  0
   63.1500   34.1720   46.4270 C   0  0  0  0  0  0  0  0  0  0  0  0
   57.9200   34.5410   45.0110 C   0  0  0  0  0  0  0  0  0  0  0  0
   58.2980   33.3900   44.0670 C   0  0  0  0  0  0  0  0  0  0  0  0
   59.1460   29.3430   45.2270 N   0  0  0  0  0  0  0  0  0  0  0  0
   60.0020   30.3270   45.9030 C   0  0  0  0  0  0  0  0  0  0  0  0
  1  2  2  0
  2  3  1  0
  3  4  2  0
  4  5  1  0
  5  6  1  0
  6  7  1  0
  7  8  2  0
  7  9  1  0
  9 10  1  0
 10 11  1  0
  3 12  1  0
 12 13  2  0
 13 14  1  0
 14 15  2  0
 14 16  1  0
 16 17  1  0
 17 18  1  0
 18 19  1  0
 19 20  1  0
 20 21  2  0
 20 22  1  0
 22 23  1  0
 23 24  2  0
 24 25  1  0
 25 26  2  0
 26 27  1  0
 27 28  2  0
 22 29  1  0
 29 30  1  0
 19 31  1  0
 31 32  1  0
 13 33  1  0
 33 34  1  0
 33  2  1  0
 10  5  2  0
 32 16  1  0
 28 23  1  0
M  CHG  3   6  -1   9  -1  11  -1
M  END
>  <UniqueID>  (3224) 
37

>  <SMILES>  (3224) 
C=c1/c(=C\c2[n-]c(=O)[n-]c2[O-])cc(C(=O)N2CCC(C(=O)N(CC)c3ccccc3)CC2)n1C

>  <Energy>  (3224) 
145.54298998126887

>  <Genealogy>  (3224) 
C=c1c(=Cc2[n-]c(=O)[n-]c2[O-])cc(C(=O)N2CCC(C(=O)N(CC)c3ccccc3)CC2)n1C (protonated)
C=c1/c(=C\c2[n-]c(=O)[n-]c2[O-])cc(C(=O)N2CCC(C(=O)N(CC)c3ccccc3)CC2)n1C (cis-trans isomerization)
C=c1/c(=C\c2[n-]c(=O)[n-]c2[O-])cc(C(=O)N2CCC(C(=O)N(CC)c3ccccc3)CC2)n1C (3D coordinates assigned)
C=c1/c(=C\c2[n-]c(=O)[n-]c2[O-])cc(C(=O)N2CCC(C(=O)N(CC)c3ccccc3)CC2)n1C (nonaromatic ring conformer: 145.54298998126887 kcal/mol)

>  <smiles>  (3224) 
C=c1c(=Cc2[nH]c(=O)[nH]c2O)cc(C(=O)N2CCC(C(=O)N(CC)c3ccccc3)CC2)n1C

>  <score_type>  (3224) 
oracle

>  <origin>  (3224) 
adg

>  <m_score__min__energy>  (3224) 
-19.190000000000001

>  <m_primary>  (3224) 
energy

$$$$
62:0
     RDKit          3D

 39 43  0  0  0  0  0  0  0  0999 V2000
   58.8590   33.2720   51.3600 C   0  0  0  0  0  0  0  0  0  0  0  0
   59.5550   33.3880   50.0770 N   0  0  0  0  0  0  0  0  0  0  0  0
   58.8260   33.4130   48.9600 N   0  0  0  0  0  0  0  0  0  0  0  0
   59.3730   33.5310   47.7190 C   0  0  0  0  0  0  0  0  0  0  0  0
   58.4650   33.5570   46.5070 C   0  0  0  0  0  0  0  0  0  0  0  0
   58.2840   32.2030   45.8860 C   0  0  0  0  0  0  0  0  0  0  0  0
   59.2210   31.1970   45.8530 C   0  0  0  0  0  0  0  0  0  0  0  0
   58.6620   30.1280   45.2560 N   0  0  0  0  0  0  0  0  0  0  0  0
   59.3710   28.8800   44.9570 C   0  0  0  0  0  0  0  0  0  0  0  0
   59.1760   27.8740   46.0940 C   0  0  0  0  0  0  0  0  0  0  0  0
   59.2600   28.5380   47.3930 N   0  0  0  0  0  0  0  0  0  0  0  0
   59.9500   27.9560   48.5130 C   0  0  0  0  0  0  0  0  0  0  0  0
   60.3490   26.7610   48.4470 O   0  0  0  0  0  0  0  0  0  0  0  0
   60.1970   28.7350   49.7510 C   0  0  0  0  0  0  0  0  0  0  0  0
   59.1690   29.4670   50.3690 C   0  0  0  0  0  0  0  0  0  0  0  0
   59.4280   30.2230   51.5150 C   0  0  0  0  0  0  0  0  0  0  0  0
   60.7130   30.2560   52.0590 C   0  0  0  0  0  0  0  0  0  0  0  0
   61.7510   29.5220   51.4670 C   0  0  0  0  0  0  0  0  0  0  0  0
   63.1210   29.5800   52.0160 C   0  0  0  0  0  0  0  0  0  0  0  0
   63.3760   28.9560   53.0820 O   0  0  0  0  0  0  0  0  0  0  0  0
   64.1660   30.3270   51.3660 N   0  0  0  0  0  0  0  0  0  0  0  0
   65.5750   30.0960   51.6320 C   0  0  0  0  0  0  0  0  0  0  0  0
   66.3160   31.2910   51.0460 C   0  0  0  0  0  0  0  0  0  0  0  0
   65.3130   32.0170   50.1510 C   0  0  0  0  0  0  0  0  0  0  0  0
   63.9340   31.5300   50.5790 C   0  0  0  0  0  0  0  0  0  0  0  0
   61.4920   28.7800   50.3020 C   0  0  0  0  0  0  0  0  0  0  0  0
   57.3990   30.5150   44.9340 C   0  0  0  0  0  0  0  0  0  0  0  0
   56.3780   29.7000   44.2400 C   0  0  0  0  0  0  0  0  0  0  0  0
   55.1590   29.3260   44.8740 N   0  0  0  0  0  0  0  0  0  0  0  0
   56.5910   29.3260   43.0560 O   0  0  0  0  0  0  0  0  0  0  0  0
   57.1370   31.7840   45.3200 N   0  0  0  0  0  0  0  0  0  0  0  0
   60.7760   33.6240   47.6010 C   0  0  0  0  0  0  0  0  0  0  0  0
   61.4220   33.7310   46.3500 C   0  0  0  0  0  0  0  0  0  0  0  0
   62.8130   33.8260   46.2770 C   0  0  0  0  0  0  0  0  0  0  0  0
   63.5800   33.8200   47.4400 C   0  0  0  0  0  0  0  0  0  0  0  0
   62.9610   33.7110   48.6880 C   0  0  0  0  0  0  0  0  0  0  0  0
   61.5580   33.6090   48.7810 C   0  0  0  0  0  0  0  0  0  0  0  0
   60.9160   33.4940   50.0270 C   0  0  0  0  0  0  0  0  0  0  0  0
   61.5930   33.4880   51.0940 O   0  0  0  0  0  0  0  0  0  0  0  0
  1  2  1  0
  2  3  1  0
  3  4  2  0
  4  5  1  0
  5  6  1  0
  6  7  2  0
  7  8  1  0
  8  9  1  0
  9 10  1  0
 10 11  1  0
 11 12  1  0
 12 13  2  0
 12 14  1  0
 14 15  2  0
 15 16  1  0
 16 17  2  0
 17 18  1  0
 18 19  1  0
 19 20  2  0
 19 21  1  0
 21 22  1  0
 22 23  1  0
 23 24  1  0
 24 25  1  0
 18 26  2  0
  8 27  1  0
 27 28  1  0
 28 29  1  0
 28 30  2  0
 27 31  2  0
  4 32  1  0
 32 33  2  0
 33 34  1  0
 34 35  2  0
 35 36  1  0
 36 37  2  0
 37 38  1  0
 38 39  2  0
 38  2  1  0
 31  6  1  0
 37 32  1  0
 26 14  1  0
 25 21  1  0
M  CHG  1  29  -1
M  END
>  <UniqueID>  (3225) 
62

>  <SMILES>  (3225) 
Cn1nc(Cc2cn(CCNC(=O)c3cccc(C(=O)N4CCCC4)c3)c(C([NH-])=O)n2)c2ccccc2c1=O

>  <Energy>  (3225) 
111.94264304716235

>  <Genealogy>  (3225) 
Cn1nc(Cc2cn(CCNC(=O)c3cccc(C(=O)N4CCCC4)c3)c(C([NH-])=O)n2)c2ccccc2c1=O (protonated)
Cn1nc(Cc2cn(CCNC(=O)c3cccc(C(=O)N4CCCC4)c3)c(C([NH-])=O)n2)c2ccccc2c1=O (3D coordinates assigned)
Cn1nc(Cc2cn(CCNC(=O)c3cccc(C(=O)N4CCCC4)c3)c(C([NH-])=O)n2)c2ccccc2c1=O (nonaromatic ring conformer: 111.94264304716235 kcal/mol)

>  <smiles>  (3225) 
Cn1nc(Cc2cn(CCNC(=O)c3cccc(C(=O)N4CCCC4)c3)c(C(N)=O)n2)c2ccccc2c1=O

>  <score_type>  (3225) 
oracle

>  <origin>  (3225) 
adg

>  <m_score__min__energy>  (3225) 
-14.33

>  <m_primary>  (3225) 
energy

$$$$
68:0
     RDKit          3D

 30 33  0  0  0  0  0  0  0  0999 V2000
   57.3720   23.6290   48.8690 O   0  0  0  0  0  0  0  0  0  0  0  0
   57.0790   23.5120   47.6500 C   0  0  0  0  0  0  0  0  0  0  0  0
   56.9950   22.1990   47.0820 N   0  0  0  0  0  0  0  0  0  0  0  0
   57.2470   21.8540   45.7130 C   0  0  0  0  0  0  0  0  0  0  0  0
   58.5160   22.1110   45.1770 C   0  0  0  0  0  0  0  0  0  0  0  0
   58.7960   21.7980   43.8430 C   0  0  0  0  0  0  0  0  0  0  0  0
   57.8060   21.2430   43.0310 C   0  0  0  0  0  0  0  0  0  0  0  0
   56.5270   21.0130   43.5460 C   0  0  0  0  0  0  0  0  0  0  0  0
   56.2380   21.3290   44.8790 C   0  0  0  0  0  0  0  0  0  0  0  0
   54.9450   21.1410   45.3540 O   0  0  0  0  0  0  0  0  0  0  0  0
   56.7670   24.7200   46.8640 C   0  0  0  0  0  0  0  0  0  0  0  0
   57.6800   25.4970   46.1810 C   0  0  0  0  0  0  0  0  0  0  0  0
   56.9130   26.5100   45.6400 C   0  0  0  0  0  0  0  0  0  0  0  0
   57.3980   27.6410   44.8320 C   0  0  0  0  0  0  0  0  0  0  0  0
   57.9220   27.4110   43.7090 O   0  0  0  0  0  0  0  0  0  0  0  0
   57.2670   28.9990   45.2910 N   0  0  0  0  0  0  0  0  0  0  0  0
   56.9600   30.0740   44.3430 C   0  0  0  0  0  0  0  0  0  0  0  0
   58.1910   30.9630   44.1660 C   0  0  0  0  0  0  0  0  0  0  0  0
   58.7150   31.3500   45.4820 N   0  0  0  0  0  0  0  0  0  0  0  0
   59.1640   32.6980   45.7120 C   0  0  0  0  0  0  0  0  0  0  0  0
   60.1840   32.9440   46.6460 C   0  0  0  0  0  0  0  0  0  0  0  0
   60.6350   34.2470   46.8730 C   0  0  0  0  0  0  0  0  0  0  0  0
   60.0710   35.3160   46.1720 C   0  0  0  0  0  0  0  0  0  0  0  0
   59.0540   35.0820   45.2420 C   0  0  0  0  0  0  0  0  0  0  0  0
   58.5980   33.7800   45.0110 C   0  0  0  0  0  0  0  0  0  0  0  0
   57.5900   33.5800   44.1250 F   0  0  0  0  0  0  0  0  0  0  0  0
   58.9830   30.2930   46.4680 C   0  0  0  0  0  0  0  0  0  0  0  0
   57.7540   29.3940   46.6180 C   0  0  0  0  0  0  0  0  0  0  0  0
   55.6260   26.3480   46.0020 N   0  0  0  0  0  0  0  0  0  0  0  0
   55.5360   25.2580   46.7470 N   0  0  0  0  0  0  0  0  0  0  0  0
  1  2  2  0
  2  3  1  0
  3  4  1  0
  4  5  2  0
  5  6  1  0
  6  7  2  0
  7  8  1  0
  8  9  2  0
  9 10  1  0
  2 11  1  0
 11 12  1  0
 12 13  2  0
 13 14  1  0
 14 15  2  0
 14 16  1  0
 16 17  1  0
 17 18  1  0
 18 19  1  0
 19 20  1  0
 20 21  2  0
 21 22  1  0
 22 23  2  0
 23 24  1  0
 24 25  2  0
 25 26  1  0
 19 27  1  0
 27 28  1  0
 13 29  1  0
 29 30  1  0
  9  4  1  0
 30 11  2  0
 28 16  1  0
 25 20  1  0
M  CHG  3   3  -1  10  -1  29  -1
M  END
>  <UniqueID>  (3226) 
68

>  <SMILES>  (3226) 
O=C([N-]c1ccccc1[O-])c1cc(C(=O)N2CCN(c3ccccc3F)CC2)[n-]n1

>  <Energy>  (3226) 
93.64350992119095

>  <Genealogy>  (3226) 
O=C([N-]c1ccccc1[O-])c1cc(C(=O)N2CCN(c3ccccc3F)CC2)[n-]n1 (protonated)
O=C([N-]c1ccccc1[O-])c1cc(C(=O)N2CCN(c3ccccc3F)CC2)[n-]n1 (3D coordinates assigned)
O=C([N-]c1ccccc1[O-])c1cc(C(=O)N2CCN(c3ccccc3F)CC2)[n-]n1 (nonaromatic ring conformer: 93.64350992119095 kcal/mol)

>  <smiles>  (3226) 
O=C(Nc1ccccc1O)c1cc(C(=O)N2CCN(c3ccccc3F)CC2)[nH]n1

>  <score_type>  (3226) 
oracle

>  <origin>  (3226) 
adg

>  <m_score__min__energy>  (3226) 
-15.640000000000001

>  <m_primary>  (3226) 
energy

$$$$
82:0
     RDKit          3D

 47 52  0  0  0  0  0  0  0  0999 V2000
   55.6600   30.4140   44.1770 C   0  0  0  0  0  0  0  0  0  0  0  0
   56.6780   29.6300   44.5330 C   0  0  0  0  0  0  0  0  0  0  0  0
   56.5400   28.3170   44.7830 N   0  0  0  0  0  0  0  0  0  0  0  0
   57.7540   27.8660   45.1600 C   0  0  0  0  0  0  0  0  0  0  0  0
   57.9110   26.6220   45.6440 C   0  0  0  0  0  0  0  0  0  0  0  0
   56.9960   25.4840   45.4260 C   0  0  0  0  0  0  0  0  0  0  0  0
   57.3660   24.3800   44.7390 N   0  0  0  0  0  0  0  0  0  0  0  0
   56.2240   23.6620   44.6400 C   0  0  0  0  0  0  0  0  0  0  0  0
   56.1730   22.5400   44.0760 O   0  0  0  0  0  0  0  0  0  0  0  0
   55.1510   24.2630   45.2130 N   0  0  0  0  0  0  0  0  0  0  0  0
   53.7760   23.7640   45.3210 C   0  0  0  0  0  0  0  0  0  0  0  0
   53.5980   22.6810   46.3630 C   0  0  0  0  0  0  0  0  0  0  0  0
   52.8800   21.5280   46.0190 C   0  0  0  0  0  0  0  0  0  0  0  0
   52.7630   20.4740   46.9320 C   0  0  0  0  0  0  0  0  0  0  0  0
   53.3310   20.5730   48.2030 C   0  0  0  0  0  0  0  0  0  0  0  0
   54.0600   21.7140   48.5500 C   0  0  0  0  0  0  0  0  0  0  0  0
   54.6370   21.8580   49.8900 C   0  0  0  0  0  0  0  0  0  0  0  0
   54.0390   22.5640   50.7470 O   0  0  0  0  0  0  0  0  0  0  0  0
   55.9460   21.3410   50.1750 N   0  0  0  0  0  0  0  0  0  0  0  0
   56.1660   19.8890   50.2080 C   0  0  0  0  0  0  0  0  0  0  0  0
   57.2460   19.5660   51.2450 C   0  0  0  0  0  0  0  0  0  0  0  0
   58.4090   20.4370   51.0300 N   0  0  0  0  0  0  0  0  0  0  0  0
   59.7480   19.9170   51.0330 C   0  0  0  0  0  0  0  0  0  0  0  0
   60.1720   18.8590   51.9960 C   0  0  0  0  0  0  0  0  0  0  0  0
   60.5800   20.3430   50.1970 O   0  0  0  0  0  0  0  0  0  0  0  0
   58.1920   21.8870   50.9900 C   0  0  0  0  0  0  0  0  0  0  0  0
   57.1010   22.2160   49.9760 C   0  0  0  0  0  0  0  0  0  0  0  0
   54.1500   22.7770   47.6480 C   0  0  0  0  0  0  0  0  0  0  0  0
   55.6310   25.4210   45.6820 C   0  0  0  0  0  0  0  0  0  0  0  0
   54.8480   26.4160   46.2660 O   0  0  0  0  0  0  0  0  0  0  0  0
   58.7130   28.8910   45.0570 C   0  0  0  0  0  0  0  0  0  0  0  0
   60.1630   28.7060   44.6920 C   0  0  0  0  0  0  0  0  0  0  0  0
   57.9960   30.0260   44.7150 C   0  0  0  0  0  0  0  0  0  0  0  0
   58.4770   31.4040   44.9030 C   0  0  0  0  0  0  0  0  0  0  0  0
   58.3010   32.2410   43.9710 O   0  0  0  0  0  0  0  0  0  0  0  0
   59.2430   31.7670   46.0790 N   0  0  0  0  0  0  0  0  0  0  0  0
   59.7180   33.1390   46.2830 C   0  0  0  0  0  0  0  0  0  0  0  0
   61.2410   33.1310   46.4390 C   0  0  0  0  0  0  0  0  0  0  0  0
   61.7520   32.0710   47.4690 C   0  0  0  0  0  0  0  0  0  0  0  0
   62.5890   32.7020   48.5630 C   0  0  0  0  0  0  0  0  0  0  0  0
   63.9340   32.3240   48.7390 C   0  0  0  0  0  0  0  0  0  0  0  0
   64.6910   32.8860   49.7720 C   0  0  0  0  0  0  0  0  0  0  0  0
   64.1070   33.8030   50.6490 C   0  0  0  0  0  0  0  0  0  0  0  0
   62.7690   34.1740   50.4900 C   0  0  0  0  0  0  0  0  0  0  0  0
   62.0140   33.6330   49.4500 C   0  0  0  0  0  0  0  0  0  0  0  0
   60.6210   31.2430   48.0930 C   0  0  0  0  0  0  0  0  0  0  0  0
   59.6860   30.7110   47.0110 C   0  0  0  0  0  0  0  0  0  0  0  0
  1  2  2  0
  2  3  1  0
  3  4  1  0
  4  5  2  3
  5  6  1  0
  6  7  1  0
  7  8  1  0
  8  9  2  0
  8 10  1  0
 10 11  1  0
 11 12  1  0
 12 13  2  0
 13 14  1  0
 14 15  2  0
 15 16  1  0
 16 17  1  0
 17 18  2  0
 17 19  1  0
 19 20  1  0
 20 21  1  0
 21 22  1  0
 22 23  1  0
 23 24  1  0
 23 25  2  0
 22 26  1  0
 26 27  1  0
 16 28  2  0
 10 29  1  0
 29 30  1  0
  4 31  1  0
 31 32  1  0
 31 33  2  0
 33 34  1  0
 34 35  2  0
 34 36  1  0
 36 37  1  0
 37 38  1  0
 38 39  1  0
 39 40  1  0
 40 41  2  0
 41 42  1  0
 42 43  2  0
 43 44  1  0
 44 45  2  0
 39 46  1  0
 46 47  1  0
 33  2  1  0
 47 36  1  0
 29  6  2  0
 45 40  1  0
 28 12  1  0
 27 19  1  0
M  CHG  2   7  -1  30  -1
M  END
>  <UniqueID>  (3227) 
82

>  <SMILES>  (3227) 
C=c1[nH]c(=Cc2[n-]c(=O)n(Cc3cccc(C(=O)N4CCN(C(C)=O)CC4)c3)c2[O-])c(C)c1C(=O)N1CCC(c2ccccc2)CC1

>  <Energy>  (3227) 
187.4666940681931

>  <Genealogy>  (3227) 
C=c1[nH]c(=Cc2[n-]c(=O)n(Cc3cccc(C(=O)N4CCN(C(C)=O)CC4)c3)c2[O-])c(C)c1C(=O)N1CCC(c2ccccc2)CC1 (protonated)
C=c1[nH]c(=Cc2[n-]c(=O)n(Cc3cccc(C(=O)N4CCN(C(C)=O)CC4)c3)c2[O-])c(C)c1C(=O)N1CCC(c2ccccc2)CC1 (3D coordinates assigned)
C=c1[nH]c(=Cc2[n-]c(=O)n(Cc3cccc(C(=O)N4CCN(C(C)=O)CC4)c3)c2[O-])c(C)c1C(=O)N1CCC(c2ccccc2)CC1 (nonaromatic ring conformer: 187.4666940681931 kcal/mol)

>  <smiles>  (3227) 
C=c1[nH]c(=Cc2[nH]c(=O)n(Cc3cccc(C(=O)N4CCN(C(C)=O)CC4)c3)c2O)c(C)c1C(=O)N1CCC(c2ccccc2)CC1

>  <score_type>  (3227) 
oracle

>  <origin>  (3227) 
adg

>  <m_score__min__energy>  (3227) 
-14.84

>  <m_primary>  (3227) 
energy

$$$$
84:0
     RDKit          3D

 32 35  0  0  0  0  0  0  0  0999 V2000
   58.0910   27.1260   43.3860 C   0  0  0  0  0  0  0  0  0  0  0  0
   58.1200   27.0400   44.7250 C   0  0  0  0  0  0  0  0  0  0  0  0
   57.6400   25.9730   45.4920 C   0  0  0  0  0  0  0  0  0  0  0  0
   57.1160   24.8130   45.0470 C   0  0  0  0  0  0  0  0  0  0  0  0
   55.6740   24.4880   45.1210 C   0  0  0  0  0  0  0  0  0  0  0  0
   54.7310   25.4180   45.5920 C   0  0  0  0  0  0  0  0  0  0  0  0
   55.1260   26.6840   46.0100 O   0  0  0  0  0  0  0  0  0  0  0  0
   53.4130   25.0900   45.6230 N   0  0  0  0  0  0  0  0  0  0  0  0
   52.9810   23.8800   45.1880 C   0  0  0  0  0  0  0  0  0  0  0  0
   51.7560   23.5970   45.2290 O   0  0  0  0  0  0  0  0  0  0  0  0
   53.8690   22.9760   44.7010 N   0  0  0  0  0  0  0  0  0  0  0  0
   55.1980   23.2540   44.6500 C   0  0  0  0  0  0  0  0  0  0  0  0
   55.9920   22.3920   44.1870 O   0  0  0  0  0  0  0  0  0  0  0  0
   57.8380   26.3230   46.8190 C   0  0  0  0  0  0  0  0  0  0  0  0
   58.4140   27.5780   46.8150 C   0  0  0  0  0  0  0  0  0  0  0  0
   58.8060   28.3330   48.0470 C   0  0  0  0  0  0  0  0  0  0  0  0
   58.6050   28.0100   45.5460 N   0  0  0  0  0  0  0  0  0  0  0  0
   59.1750   29.3120   45.1660 C   0  0  0  0  0  0  0  0  0  0  0  0
   58.1630   30.4160   45.3680 C   0  0  0  0  0  0  0  0  0  0  0  0
   56.9410   30.1330   45.2440 O   0  0  0  0  0  0  0  0  0  0  0  0
   58.5580   31.7870   45.6270 N   0  0  0  0  0  0  0  0  0  0  0  0
   59.9440   32.1140   46.0040 C   0  0  0  0  0  0  0  0  0  0  0  0
   60.0980   33.5850   46.4150 C   0  0  0  0  0  0  0  0  0  0  0  0
   58.9430   34.0500   47.3240 C   0  0  0  0  0  0  0  0  0  0  0  0
   59.0860   33.4700   48.7270 C   0  0  0  0  0  0  0  0  0  0  0  0
   59.9310   34.1080   49.6550 C   0  0  0  0  0  0  0  0  0  0  0  0
   60.1180   33.5700   50.9330 C   0  0  0  0  0  0  0  0  0  0  0  0
   59.4760   32.3850   51.2950 C   0  0  0  0  0  0  0  0  0  0  0  0
   58.6470   31.7320   50.3810 C   0  0  0  0  0  0  0  0  0  0  0  0
   58.4550   32.2670   49.1030 C   0  0  0  0  0  0  0  0  0  0  0  0
   57.5450   33.7880   46.6910 C   0  0  0  0  0  0  0  0  0  0  0  0
   57.5910   32.8830   45.4490 C   0  0  0  0  0  0  0  0  0  0  0  0
  1  2  2  0
  2  3  1  0
  3  4  2  0
  4  5  1  0
  5  6  2  0
  6  7  1  0
  6  8  1  0
  8  9  1  0
  9 10  2  0
  9 11  1  0
 11 12  1  0
 12 13  2  0
  3 14  1  0
 14 15  2  0
 15 16  1  0
 15 17  1  0
 17 18  1  0
 18 19  1  0
 19 20  2  0
 19 21  1  0
 21 22  1  0
 22 23  1  0
 23 24  1  0
 24 25  1  0
 25 26  2  0
 26 27  1  0
 27 28  2  0
 28 29  1  0
 29 30  2  0
 24 31  1  0
 31 32  1  0
 17  2  1  0
 32 21  1  0
 12  5  1  0
 30 25  1  0
M  CHG  3   7  -1   8  -1  11  -1
M  END
>  <UniqueID>  (3228) 
84

>  <SMILES>  (3228) 
C=c1/c(=C/c2c([O-])[n-]c(=O)[n-]c2=O)cc(C)n1CC(=O)N1CCC(c2ccccc2)CC1

>  <Energy>  (3228) 
101.62493486976841

>  <Genealogy>  (3228) 
C=c1c(=Cc2c([O-])[n-]c(=O)[n-]c2=O)cc(C)n1CC(=O)N1CCC(c2ccccc2)CC1 (protonated)
C=c1/c(=C/c2c([O-])[n-]c(=O)[n-]c2=O)cc(C)n1CC(=O)N1CCC(c2ccccc2)CC1 (cis-trans isomerization)
C=c1/c(=C/c2c([O-])[n-]c(=O)[n-]c2=O)cc(C)n1CC(=O)N1CCC(c2ccccc2)CC1 (3D coordinates assigned)
C=c1/c(=C/c2c([O-])[n-]c(=O)[n-]c2=O)cc(C)n1CC(=O)N1CCC(c2ccccc2)CC1 (nonaromatic ring conformer: 101.62493486976841 kcal/mol)

>  <smiles>  (3228) 
C=c1c(=Cc2c(O)[nH]c(=O)[nH]c2=O)cc(C)n1CC(=O)N1CCC(c2ccccc2)CC1

>  <score_type>  (3228) 
oracle

>  <origin>  (3228) 
adg

>  <m_score__min__energy>  (3228) 
-17.289999999999999

>  <m_primary>  (3228) 
energy

$$$$
8:0
     RDKit          3D

 31 34  0  0  0  0  0  0  0  0999 V2000
   53.5290   28.1890   52.7510 C   0  0  0  0  0  0  0  0  0  0  0  0
   54.4430   29.1600   52.7020 C   0  0  0  0  0  0  0  0  0  0  0  0
   55.7250   28.9050   52.8340 O   0  0  0  0  0  0  0  0  0  0  0  0
   56.4100   30.0070   52.6290 C   0  0  0  0  0  0  0  0  0  0  0  0
   57.8860   30.1200   52.6830 C   0  0  0  0  0  0  0  0  0  0  0  0
   58.5060   29.3220   53.4390 O   0  0  0  0  0  0  0  0  0  0  0  0
   58.6320   31.0920   51.9040 N   0  0  0  0  0  0  0  0  0  0  0  0
   57.9760   31.9020   50.8620 C   0  0  0  0  0  0  0  0  0  0  0  0
   58.9730   32.7630   50.0700 C   0  0  0  0  0  0  0  0  0  0  0  0
   60.1840   31.9940   49.7430 N   0  0  0  0  0  0  0  0  0  0  0  0
   60.8490   32.1410   48.4710 C   0  0  0  0  0  0  0  0  0  0  0  0
   61.5830   31.2050   48.0470 O   0  0  0  0  0  0  0  0  0  0  0  0
   60.6570   33.3680   47.6160 C   0  0  0  0  0  0  0  0  0  0  0  0
   59.4780   33.2110   46.6910 C   0  0  0  0  0  0  0  0  0  0  0  0
   59.0940   31.9340   46.2460 C   0  0  0  0  0  0  0  0  0  0  0  0
   57.9790   31.7820   45.4170 C   0  0  0  0  0  0  0  0  0  0  0  0
   57.2340   32.9010   45.0340 C   0  0  0  0  0  0  0  0  0  0  0  0
   57.6020   34.1740   45.4820 C   0  0  0  0  0  0  0  0  0  0  0  0
   58.7180   34.3300   46.3100 C   0  0  0  0  0  0  0  0  0  0  0  0
   60.8010   31.1290   50.7590 C   0  0  0  0  0  0  0  0  0  0  0  0
   60.0810   31.2440   52.1030 C   0  0  0  0  0  0  0  0  0  0  0  0
   55.5430   31.0470   52.3470 C   0  0  0  0  0  0  0  0  0  0  0  0
   54.2650   30.5240   52.4330 C   0  0  0  0  0  0  0  0  0  0  0  0
   53.1520   31.2680   52.2870 C   0  0  0  0  0  0  0  0  0  0  0  0
   52.3300   31.3510   51.0690 C   0  0  0  0  0  0  0  0  0  0  0  0
   52.2930   30.4120   50.1040 N   0  0  0  0  0  0  0  0  0  0  0  0
   51.3120   30.8490   49.2840 C   0  0  0  0  0  0  0  0  0  0  0  0
   50.9830   30.2360   48.2350 O   0  0  0  0  0  0  0  0  0  0  0  0
   50.7040   31.9860   49.6830 N   0  0  0  0  0  0  0  0  0  0  0  0
   51.3510   32.2800   50.8230 C   0  0  0  0  0  0  0  0  0  0  0  0
   51.0470   33.3730   51.6240 O   0  0  0  0  0  0  0  0  0  0  0  0
  1  2  2  0
  2  3  1  0
  3  4  1  0
  4  5  1  0
  5  6  2  0
  5  7  1  0
  7  8  1  0
  8  9  1  0
  9 10  1  0
 10 11  1  0
 11 12  2  0
 11 13  1  0
 13 14  1  0
 14 15  2  0
 15 16  1  0
 16 17  2  0
 17 18  1  0
 18 19  2  0
 10 20  1  0
 20 21  1  0
  4 22  2  0
 22 23  1  0
 23 24  2  3
 24 25  1  0
 25 26  1  0
 26 27  1  0
 27 28  2  0
 27 29  1  0
 29 30  1  0
 30 31  1  0
 23  2  1  0
 30 25  2  0
 21  7  1  0
 19 14  1  0
M  CHG  3  26  -1  29  -1  31  -1
M  END
>  <UniqueID>  (3229) 
8

>  <SMILES>  (3229) 
C=c1oc(C(=O)N2CCN(C(=O)Cc3ccccc3)CC2)cc1=Cc1[n-]c(=O)[n-]c1[O-]

>  <Energy>  (3229) 
123.70406950862684

>  <Genealogy>  (3229) 
C=c1oc(C(=O)N2CCN(C(=O)Cc3ccccc3)CC2)cc1=Cc1[n-]c(=O)[n-]c1[O-] (protonated)
C=c1oc(C(=O)N2CCN(C(=O)Cc3ccccc3)CC2)cc1=Cc1[n-]c(=O)[n-]c1[O-] (3D coordinates assigned)
C=c1oc(C(=O)N2CCN(C(=O)Cc3ccccc3)CC2)cc1=Cc1[n-]c(=O)[n-]c1[O-] (nonaromatic ring conformer: 123.70406950862684 kcal/mol)

>  <smiles>  (3229) 
C=c1oc(C(=O)N2CCN(C(=O)Cc3ccccc3)CC2)cc1=Cc1[nH]c(=O)[nH]c1O

>  <score_type>  (3229) 
oracle

>  <origin>  (3229) 
adg

>  <m_score__min__energy>  (3229) 
-18.280000000000001

>  <m_primary>  (3229) 
energy

$$$$
29:0
     RDKit          3D

 33 36  0  0  0  0  0  0  0  0999 V2000
   63.0360   34.9070   50.3220 C   0  0  0  0  0  0  0  0  0  0  0  0
   62.7480   33.8890   49.2480 C   0  0  0  0  0  0  0  0  0  0  0  0
   63.8260   33.2650   48.5970 C   0  0  0  0  0  0  0  0  0  0  0  0
   63.6010   32.3340   47.5870 C   0  0  0  0  0  0  0  0  0  0  0  0
   62.2990   32.0240   47.1980 C   0  0  0  0  0  0  0  0  0  0  0  0
   61.2050   32.6290   47.8290 C   0  0  0  0  0  0  0  0  0  0  0  0
   59.8830   32.3110   47.3700 N   0  0  0  0  0  0  0  0  0  0  0  0
   59.0490   31.3690   48.1180 C   0  0  0  0  0  0  0  0  0  0  0  0
   58.5170   30.3110   47.1500 C   0  0  0  0  0  0  0  0  0  0  0  0
   57.7490   30.8960   46.0230 N   0  0  0  0  0  0  0  0  0  0  0  0
   57.9550   29.9330   44.5750 S   0  0  0  0  0  0  0  0  0  0  0  0
   56.7000   29.9770   43.7430 O   0  0  0  0  0  0  0  0  0  0  0  0
   59.0960   30.4720   43.7520 O   0  0  0  0  0  0  0  0  0  0  0  0
   58.2840   28.2580   45.0160 C   0  0  0  0  0  0  0  0  0  0  0  0
   59.5900   27.8450   45.3050 C   0  0  0  0  0  0  0  0  0  0  0  0
   59.8400   26.5500   45.6290 N   0  0  0  0  0  0  0  0  0  0  0  0
   58.8530   25.6140   45.6740 C   0  0  0  0  0  0  0  0  0  0  0  0
   59.1460   24.4240   45.9650 O   0  0  0  0  0  0  0  0  0  0  0  0
   57.5250   25.9790   45.3790 C   0  0  0  0  0  0  0  0  0  0  0  0
   56.4270   24.9830   45.4080 C   0  0  0  0  0  0  0  0  0  0  0  0
   56.6840   23.6720   45.1210 N   0  0  0  0  0  0  0  0  0  0  0  0
   55.6960   22.7300   45.1510 C   0  0  0  0  0  0  0  0  0  0  0  0
   56.0120   21.2880   44.8560 C   0  0  0  0  0  0  0  0  0  0  0  0
   54.3890   23.1220   45.4880 C   0  0  0  0  0  0  0  0  0  0  0  0
   53.4520   22.2810   45.5350 O   0  0  0  0  0  0  0  0  0  0  0  0
   54.1320   24.4260   45.7670 N   0  0  0  0  0  0  0  0  0  0  0  0
   55.1120   25.3640   45.7340 C   0  0  0  0  0  0  0  0  0  0  0  0
   54.7950   26.6900   46.0090 O   0  0  0  0  0  0  0  0  0  0  0  0
   57.2520   27.3170   45.0580 C   0  0  0  0  0  0  0  0  0  0  0  0
   58.0140   32.3310   45.7540 C   0  0  0  0  0  0  0  0  0  0  0  0
   59.4680   32.7390   46.0320 C   0  0  0  0  0  0  0  0  0  0  0  0
   61.4170   33.5440   48.8880 C   0  0  0  0  0  0  0  0  0  0  0  0
   60.2410   34.1800   49.5950 C   0  0  0  0  0  0  0  0  0  0  0  0
  1  2  1  0
  2  3  2  0
  3  4  1  0
  4  5  2  0
  5  6  1  0
  6  7  1  0
  7  8  1  0
  8  9  1  0
  9 10  1  0
 10 11  1  0
 11 12  2  0
 11 13  2  0
 11 14  1  0
 14 15  2  0
 15 16  1  0
 16 17  1  0
 17 18  2  0
 17 19  1  0
 19 20  1  0
 20 21  1  0
 21 22  2  0
 22 23  1  0
 22 24  1  0
 24 25  2  0
 24 26  1  0
 26 27  1  0
 27 28  1  0
 19 29  2  0
 10 30  1  0
 30 31  1  0
  6 32  2  0
 32 33  1  0
 32  2  1  0
 31  7  1  0
 29 14  1  0
 27 20  2  0
M  CHG  4  16  -1  21   1  26  -1  28  -1
M  END
>  <UniqueID>  (3230) 
28

>  <SMILES>  (3230) 
Cc1cccc(N2CCN(S(=O)(=O)c3c[n-]c(=O)c(-c4[nH+]c(C)c(=O)[n-]c4[O-])c3)CC2)c1C

>  <Energy>  (3230) 
81.69570888241957

>  <Genealogy>  (3230) 
Cc1cccc(N2CCN(S(=O)(=O)c3c[n-]c(=O)c(-c4[nH+]c(C)c(=O)[n-]c4[O-])c3)CC2)c1C (protonated)
Cc1cccc(N2CCN(S(=O)(=O)c3c[n-]c(=O)c(-c4[nH+]c(C)c(=O)[n-]c4[O-])c3)CC2)c1C (3D coordinates assigned)
Cc1cccc(N2CCN(S(=O)(=O)c3c[n-]c(=O)c(-c4[nH+]c(C)c(=O)[n-]c4[O-])c3)CC2)c1C (nonaromatic ring conformer: 81.69570888241957 kcal/mol)

>  <smiles>  (3230) 
Cc1cccc(N2CCN(S(=O)(=O)c3c[nH]c(=O)c(-c4nc(C)c(=O)[nH]c4O)c3)CC2)c1C

>  <score_type>  (3230) 
oracle

>  <origin>  (3230) 
adg

>  <m_score__min__energy>  (3230) 
-14.5

>  <m_primary>  (3230) 
energy

$$$$
30:0
     RDKit          3D

 30 33  0  0  0  0  0  0  0  0999 V2000
   54.1830   28.2670   53.5020 C   0  0  0  0  0  0  0  0  0  0  0  0
   54.6900   29.2880   52.8040 C   0  0  0  0  0  0  0  0  0  0  0  0
   55.9810   29.4450   52.6120 O   0  0  0  0  0  0  0  0  0  0  0  0
   56.1740   30.5300   51.8920 C   0  0  0  0  0  0  0  0  0  0  0  0
   57.4920   31.0170   51.4570 C   0  0  0  0  0  0  0  0  0  0  0  0
   57.5580   31.8710   50.5300 O   0  0  0  0  0  0  0  0  0  0  0  0
   58.7000   30.5560   52.0890 N   0  0  0  0  0  0  0  0  0  0  0  0
   58.8690   30.7270   53.5400 C   0  0  0  0  0  0  0  0  0  0  0  0
   59.8410   31.8860   53.7940 C   0  0  0  0  0  0  0  0  0  0  0  0
   60.9410   31.8770   52.8180 N   0  0  0  0  0  0  0  0  0  0  0  0
   61.6420   33.1080   52.5560 C   0  0  0  0  0  0  0  0  0  0  0  0
   62.0040   33.8260   53.5300 O   0  0  0  0  0  0  0  0  0  0  0  0
   61.8020   33.6310   51.1440 C   0  0  0  0  0  0  0  0  0  0  0  0
   60.4710   33.5770   50.3540 C   0  0  0  0  0  0  0  0  0  0  0  0
   60.6980   33.4870   48.8250 C   0  0  0  0  0  0  0  0  0  0  0  0
   61.9620   34.1280   48.4220 N   0  0  0  0  0  0  0  0  0  0  0  0
   63.1430   33.4430   48.9890 C   0  0  0  0  0  0  0  0  0  0  0  0
   62.9000   32.8530   50.4010 C   0  0  0  0  0  0  0  0  0  0  0  0
   61.1810   30.6720   52.0100 C   0  0  0  0  0  0  0  0  0  0  0  0
   59.8920   30.2820   51.2660 C   0  0  0  0  0  0  0  0  0  0  0  0
   54.9600   31.1270   51.5930 C   0  0  0  0  0  0  0  0  0  0  0  0
   53.9910   30.3290   52.1850 C   0  0  0  0  0  0  0  0  0  0  0  0
   52.6560   30.4950   52.1180 C   0  0  0  0  0  0  0  0  0  0  0  0
   51.9450   30.9090   50.8940 C   0  0  0  0  0  0  0  0  0  0  0  0
   51.8120   30.1180   49.8140 N   0  0  0  0  0  0  0  0  0  0  0  0
   51.0270   30.8460   48.9870 C   0  0  0  0  0  0  0  0  0  0  0  0
   50.6810   30.4390   47.8480 O   0  0  0  0  0  0  0  0  0  0  0  0
   50.6340   32.0410   49.4840 N   0  0  0  0  0  0  0  0  0  0  0  0
   51.2140   32.0610   50.6950 C   0  0  0  0  0  0  0  0  0  0  0  0
   51.0430   33.0900   51.6150 O   0  0  0  0  0  0  0  0  0  0  0  0
  1  2  2  0
  2  3  1  0
  3  4  1  0
  4  5  1  0
  5  6  2  0
  5  7  1  0
  7  8  1  0
  8  9  1  0
  9 10  1  0
 10 11  1  0
 11 12  2  0
 11 13  1  0
 13 14  1  0
 14 15  1  0
 15 16  1  0
 16 17  1  0
 17 18  1  0
 10 19  1  0
 19 20  1  0
  4 21  2  0
 21 22  1  0
 22 23  2  0
 23 24  1  0
 24 25  1  0
 25 26  1  0
 26 27  2  0
 26 28  1  0
 28 29  1  0
 29 30  1  0
 22  2  1  0
 29 24  2  0
 20  7  1  0
 18 13  1  0
M  CHG  3  25  -1  28  -1  30  -1
M  END
>  <UniqueID>  (3231) 
29

>  <SMILES>  (3231) 
C=c1oc(C(=O)N2CCN(C(=O)C3CCNCC3)CC2)c/c1=C\c1[n-]c(=O)[n-]c1[O-]

>  <Energy>  (3231) 
130.79389785824551

>  <Genealogy>  (3231) 
C=c1oc(C(=O)N2CCN(C(=O)C3CCNCC3)CC2)cc1=Cc1[n-]c(=O)[n-]c1[O-] (protonated)
C=c1oc(C(=O)N2CCN(C(=O)C3CCNCC3)CC2)c/c1=C\c1[n-]c(=O)[n-]c1[O-] (cis-trans isomerization)
C=c1oc(C(=O)N2CCN(C(=O)C3CCNCC3)CC2)c/c1=C\c1[n-]c(=O)[n-]c1[O-] (3D coordinates assigned)
C=c1oc(C(=O)N2CCN(C(=O)C3CCNCC3)CC2)c/c1=C\c1[n-]c(=O)[n-]c1[O-] (nonaromatic ring conformer: 130.79389785824551 kcal/mol)

>  <smiles>  (3231) 
C=c1oc(C(=O)N2CCN(C(=O)C3CCNCC3)CC2)cc1=Cc1[nH]c(=O)[nH]c1O

>  <score_type>  (3231) 
oracle

>  <origin>  (3231) 
adg

>  <m_score__min__energy>  (3231) 
-17.48

>  <m_primary>  (3231) 
energy

$$$$
32:0
     RDKit          3D

 28 30  0  0  0  0  0  0  0  0999 V2000
   57.6420   25.0670   45.2670 O   0  0  0  0  0  0  0  0  0  0  0  0
   57.9160   26.0660   45.9800 C   0  0  0  0  0  0  0  0  0  0  0  0
   58.6890   25.8830   47.1720 N   0  0  0  0  0  0  0  0  0  0  0  0
   60.0130   26.4560   47.3790 C   0  0  0  0  0  0  0  0  0  0  0  0
   59.9240   27.5600   48.3910 C   0  0  0  0  0  0  0  0  0  0  0  0
   58.9890   28.5950   48.2300 C   0  0  0  0  0  0  0  0  0  0  0  0
   58.8840   29.6060   49.1920 C   0  0  0  0  0  0  0  0  0  0  0  0
   59.7040   29.5830   50.3240 C   0  0  0  0  0  0  0  0  0  0  0  0
   59.6000   30.5630   51.2560 F   0  0  0  0  0  0  0  0  0  0  0  0
   60.6270   28.5480   50.4980 C   0  0  0  0  0  0  0  0  0  0  0  0
   60.7350   27.5360   49.5380 C   0  0  0  0  0  0  0  0  0  0  0  0
   57.4100   27.3960   45.5840 C   0  0  0  0  0  0  0  0  0  0  0  0
   56.0410   27.6750   45.6080 C   0  0  0  0  0  0  0  0  0  0  0  0
   55.1260   26.7150   46.0300 O   0  0  0  0  0  0  0  0  0  0  0  0
   55.5970   28.8960   45.2320 N   0  0  0  0  0  0  0  0  0  0  0  0
   56.4500   29.8720   44.8320 C   0  0  0  0  0  0  0  0  0  0  0  0
   55.9760   30.9880   44.4880 O   0  0  0  0  0  0  0  0  0  0  0  0
   57.8050   29.6450   44.8110 N   0  0  0  0  0  0  0  0  0  0  0  0
   58.7310   30.6940   44.3400 C   0  0  0  0  0  0  0  0  0  0  0  0
   58.8430   31.7960   45.3630 C   0  0  0  0  0  0  0  0  0  0  0  0
   58.2090   33.0310   45.1470 C   0  0  0  0  0  0  0  0  0  0  0  0
   58.3420   34.0650   46.0790 C   0  0  0  0  0  0  0  0  0  0  0  0
   59.1120   33.8760   47.2300 C   0  0  0  0  0  0  0  0  0  0  0  0
   59.2440   34.9050   48.1550 O   0  0  0  0  0  0  0  0  0  0  0  0
   59.7490   32.6520   47.4510 C   0  0  0  0  0  0  0  0  0  0  0  0
   59.6180   31.6150   46.5210 C   0  0  0  0  0  0  0  0  0  0  0  0
   58.2890   28.4140   45.1860 C   0  0  0  0  0  0  0  0  0  0  0  0
   59.5320   28.1850   45.1680 O   0  0  0  0  0  0  0  0  0  0  0  0
  1  2  2  0
  2  3  1  0
  3  4  1  0
  4  5  1  0
  5  6  2  0
  6  7  1  0
  7  8  2  0
  8  9  1  0
  8 10  1  0
 10 11  2  0
  2 12  1  0
 12 13  2  0
 13 14  1  0
 13 15  1  0
 15 16  1  0
 16 17  2  0
 16 18  1  0
 18 19  1  0
 19 20  1  0
 20 21  2  0
 21 22  1  0
 22 23  2  0
 23 24  1  0
 23 25  1  0
 25 26  2  0
 18 27  1  0
 27 28  2  0
 11  5  1  0
 27 12  1  0
 26 20  1  0
M  CHG  4   3  -1  14  -1  15  -1  24  -1
M  END
>  <UniqueID>  (3232) 
31

>  <SMILES>  (3232) 
O=C([N-]Cc1ccc(F)cc1)c1c([O-])[n-]c(=O)n(Cc2ccc([O-])cc2)c1=O

>  <Energy>  (3232) 
52.284187885537094

>  <Genealogy>  (3232) 
O=C([N-]Cc1ccc(F)cc1)c1c([O-])[n-]c(=O)n(Cc2ccc([O-])cc2)c1=O (protonated)
O=C([N-]Cc1ccc(F)cc1)c1c([O-])[n-]c(=O)n(Cc2ccc([O-])cc2)c1=O (3D coordinates assigned)
O=C([N-]Cc1ccc(F)cc1)c1c([O-])[n-]c(=O)n(Cc2ccc([O-])cc2)c1=O (optimized conformer: 52.284187885537094 kcal/mol)

>  <smiles>  (3232) 
O=C(NCc1ccc(F)cc1)c1c(O)[nH]c(=O)n(Cc2ccc(O)cc2)c1=O

>  <score_type>  (3232) 
oracle

>  <origin>  (3232) 
adg

>  <m_score__min__energy>  (3232) 
-14.59

>  <m_primary>  (3232) 
energy

$$$$
54:0
     RDKit          3D

 32 35  0  0  0  0  0  0  0  0999 V2000
   64.2920   33.0190   49.6560 C   0  0  0  0  0  0  0  0  0  0  0  0
   64.1570   32.9430   48.3640 N   0  0  0  0  0  0  0  0  0  0  0  0
   63.0920   33.6120   47.6690 C   0  0  0  0  0  0  0  0  0  0  0  0
   63.2310   33.8220   46.3590 C   0  0  0  0  0  0  0  0  0  0  0  0
   62.0010   34.2160   48.4920 C   0  0  0  0  0  0  0  0  0  0  0  0
   60.8060   34.5180   48.0610 N   0  0  0  0  0  0  0  0  0  0  0  0
   59.9010   33.7070   47.2990 C   0  0  0  0  0  0  0  0  0  0  0  0
   59.3770   32.5440   47.8740 C   0  0  0  0  0  0  0  0  0  0  0  0
   58.5330   31.7100   47.1340 C   0  0  0  0  0  0  0  0  0  0  0  0
   58.2340   32.0060   45.8000 C   0  0  0  0  0  0  0  0  0  0  0  0
   57.3710   31.1530   45.0970 O   0  0  0  0  0  0  0  0  0  0  0  0
   57.4680   29.7530   45.0530 C   0  0  0  0  0  0  0  0  0  0  0  0
   57.4770   29.0460   46.2510 C   0  0  0  0  0  0  0  0  0  0  0  0
   57.5410   27.6540   46.2520 C   0  0  0  0  0  0  0  0  0  0  0  0
   57.5920   26.9220   45.0450 C   0  0  0  0  0  0  0  0  0  0  0  0
   57.4640   25.5730   45.1480 C   0  0  0  0  0  0  0  0  0  0  0  0
   56.1960   24.8070   45.1750 C   0  0  0  0  0  0  0  0  0  0  0  0
   54.9920   25.3860   45.6140 C   0  0  0  0  0  0  0  0  0  0  0  0
   54.9470   26.7150   46.0220 O   0  0  0  0  0  0  0  0  0  0  0  0
   53.8580   24.6420   45.6560 N   0  0  0  0  0  0  0  0  0  0  0  0
   53.8640   23.3320   45.2990 C   0  0  0  0  0  0  0  0  0  0  0  0
   52.7990   22.6640   45.3420 O   0  0  0  0  0  0  0  0  0  0  0  0
   55.0200   22.7420   44.9020 N   0  0  0  0  0  0  0  0  0  0  0  0
   56.1820   23.4430   44.8410 C   0  0  0  0  0  0  0  0  0  0  0  0
   57.2370   22.8610   44.4730 O   0  0  0  0  0  0  0  0  0  0  0  0
   57.7420   27.6550   43.8190 C   0  0  0  0  0  0  0  0  0  0  0  0
   58.1080   27.0920   42.6520 C   0  0  0  0  0  0  0  0  0  0  0  0
   57.6200   29.0600   43.8450 C   0  0  0  0  0  0  0  0  0  0  0  0
   58.7730   33.1670   45.2150 C   0  0  0  0  0  0  0  0  0  0  0  0
   59.6180   34.0000   45.9550 C   0  0  0  0  0  0  0  0  0  0  0  0
   62.2930   34.4060   49.9230 C   0  0  0  0  0  0  0  0  0  0  0  0
   63.3660   33.8300   50.4740 C   0  0  0  0  0  0  0  0  0  0  0  0
  1  2  2  0
  2  3  1  0
  3  4  2  0
  3  5  1  0
  5  6  2  3
  6  7  1  0
  7  8  2  0
  8  9  1  0
  9 10  2  0
 10 11  1  0
 11 12  1  0
 12 13  1  0
 13 14  2  0
 14 15  1  0
 15 16  2  0
 16 17  1  0
 17 18  2  0
 18 19  1  0
 18 20  1  0
 20 21  1  0
 21 22  2  0
 21 23  1  0
 23 24  1  0
 24 25  2  0
 15 26  1  0
 26 27  2  0
 26 28  1  0
 10 29  1  0
 29 30  2  0
  5 31  1  0
 31 32  2  0
 32  1  1  0
 30  7  1  0
 28 12  2  0
 24 17  1  0
M  CHG  3  19  -1  20  -1  23  -1
M  END
>  <UniqueID>  (3233) 
52

>  <SMILES>  (3233) 
C=C1N=CC=CC1=Nc1ccc(Oc2cc/c(=C/c3c([O-])[n-]c(=O)[n-]c3=O)c(=C)c2)cc1

>  <Energy>  (3233) 
95.72818014955017

>  <Genealogy>  (3233) 
C=C1N=CC=CC1=Nc1ccc(Oc2ccc(=Cc3c([O-])[n-]c(=O)[n-]c3=O)c(=C)c2)cc1 (protonated)
C=C1N=CC=CC1=Nc1ccc(Oc2cc/c(=C/c3c([O-])[n-]c(=O)[n-]c3=O)c(=C)c2)cc1 (cis-trans isomerization)
C=C1N=CC=CC1=Nc1ccc(Oc2cc/c(=C/c3c([O-])[n-]c(=O)[n-]c3=O)c(=C)c2)cc1 (3D coordinates assigned)
C=C1N=CC=CC1=Nc1ccc(Oc2cc/c(=C/c3c([O-])[n-]c(=O)[n-]c3=O)c(=C)c2)cc1 (nonaromatic ring conformer: 95.72818014955017 kcal/mol)

>  <smiles>  (3233) 
C=C1N=CC=CC1=Nc1ccc(Oc2ccc(=Cc3c(O)[nH]c(=O)[nH]c3=O)c(=C)c2)cc1

>  <score_type>  (3233) 
oracle

>  <origin>  (3233) 
adg

>  <m_score__min__energy>  (3233) 
-17.68

>  <m_primary>  (3233) 
energy

$$$$
56:0
     RDKit          3D

 27 29  0  0  0  0  0  0  0  0999 V2000
   60.1180   26.4900   46.0310 C   0  0  0  0  0  0  0  0  0  0  0  0
   59.3120   27.4460   45.5430 C   0  0  0  0  0  0  0  0  0  0  0  0
   58.1340   27.2550   44.8030 C   0  0  0  0  0  0  0  0  0  0  0  0
   57.4040   26.1470   44.5700 C   0  0  0  0  0  0  0  0  0  0  0  0
   56.8600   25.2490   45.6030 C   0  0  0  0  0  0  0  0  0  0  0  0
   57.5520   24.2610   46.2000 N   0  0  0  0  0  0  0  0  0  0  0  0
   56.7020   23.8190   47.1520 C   0  0  0  0  0  0  0  0  0  0  0  0
   56.9870   22.8690   47.9270 O   0  0  0  0  0  0  0  0  0  0  0  0
   55.5270   24.4820   47.2180 N   0  0  0  0  0  0  0  0  0  0  0  0
   55.6520   25.3930   46.2390 C   0  0  0  0  0  0  0  0  0  0  0  0
   54.6810   26.3410   45.9370 O   0  0  0  0  0  0  0  0  0  0  0  0
   57.7780   28.5000   44.3130 C   0  0  0  0  0  0  0  0  0  0  0  0
   58.6840   29.4060   44.8220 C   0  0  0  0  0  0  0  0  0  0  0  0
   58.6580   30.8780   44.5360 C   0  0  0  0  0  0  0  0  0  0  0  0
   59.6200   28.7720   45.5700 N   0  0  0  0  0  0  0  0  0  0  0  0
   60.7460   29.4140   46.2700 C   0  0  0  0  0  0  0  0  0  0  0  0
   60.4660   29.5370   47.7730 C   0  0  0  0  0  0  0  0  0  0  0  0
   59.8320   30.8540   48.1050 C   0  0  0  0  0  0  0  0  0  0  0  0
   58.6390   30.8830   48.5130 O   0  0  0  0  0  0  0  0  0  0  0  0
   60.5630   32.0730   47.9140 N   0  0  0  0  0  0  0  0  0  0  0  0
   59.9800   33.3870   48.1770 C   0  0  0  0  0  0  0  0  0  0  0  0
   59.1030   33.8100   47.0310 C   0  0  0  0  0  0  0  0  0  0  0  0
   59.5920   34.6520   46.0200 C   0  0  0  0  0  0  0  0  0  0  0  0
   58.7900   35.0140   44.9840 N   0  0  0  0  0  0  0  0  0  0  0  0
   57.5030   34.5820   44.8900 C   0  0  0  0  0  0  0  0  0  0  0  0
   56.9740   33.7440   45.8740 C   0  0  0  0  0  0  0  0  0  0  0  0
   57.7780   33.3580   46.9490 C   0  0  0  0  0  0  0  0  0  0  0  0
  1  2  2  0
  2  3  1  0
  3  4  2  0
  4  5  1  0
  5  6  1  0
  6  7  1  0
  7  8  2  0
  7  9  1  0
  9 10  1  0
 10 11  1  0
  3 12  1  0
 12 13  2  0
 13 14  1  0
 13 15  1  0
 15 16  1  0
 16 17  1  0
 17 18  1  0
 18 19  2  0
 18 20  1  0
 20 21  1  0
 21 22  1  0
 22 23  2  0
 23 24  1  0
 24 25  2  0
 25 26  1  0
 26 27  2  0
 15  2  1  0
 27 22  1  0
 10  5  2  0
M  CHG  3   6  -1   9  -1  11  -1
M  END
>  <UniqueID>  (3234) 
54

>  <SMILES>  (3234) 
C=c1/c(=C\c2[n-]c(=O)[n-]c2[O-])cc(C)n1CCC(=O)NCc1cccnc1

>  <Energy>  (3234) 
109.36061316506022

>  <Genealogy>  (3234) 
C=c1c(=Cc2[n-]c(=O)[n-]c2[O-])cc(C)n1CCC(=O)NCc1cccnc1 (protonated)
C=c1/c(=C\c2[n-]c(=O)[n-]c2[O-])cc(C)n1CCC(=O)NCc1cccnc1 (cis-trans isomerization)
C=c1/c(=C\c2[n-]c(=O)[n-]c2[O-])cc(C)n1CCC(=O)NCc1cccnc1 (3D coordinates assigned)
C=c1/c(=C\c2[n-]c(=O)[n-]c2[O-])cc(C)n1CCC(=O)NCc1cccnc1 (optimized conformer: 109.36061316506022 kcal/mol)

>  <smiles>  (3234) 
C=c1c(=Cc2[nH]c(=O)[nH]c2O)cc(C)n1CCC(=O)NCc1cccnc1

>  <score_type>  (3234) 
oracle

>  <origin>  (3234) 
adg

>  <m_score__min__energy>  (3234) 
-15.83

>  <m_primary>  (3234) 
energy

$$$$
71:0
     RDKit          3D

 29 31  0  0  0  0  0  0  0  0999 V2000
   55.1450   26.7130   45.9830 N   0  0  0  0  0  0  0  0  0  0  0  0
   56.1970   25.8590   46.4320 C   0  0  0  0  0  0  0  0  0  0  0  0
   55.9430   24.6470   46.6720 O   0  0  0  0  0  0  0  0  0  0  0  0
   57.5660   26.3910   46.6250 C   0  0  0  0  0  0  0  0  0  0  0  0
   58.6780   25.7150   46.0910 C   0  0  0  0  0  0  0  0  0  0  0  0
   59.9640   26.2340   46.2490 C   0  0  0  0  0  0  0  0  0  0  0  0
   60.1590   27.4340   46.9350 C   0  0  0  0  0  0  0  0  0  0  0  0
   59.0660   28.1160   47.4910 C   0  0  0  0  0  0  0  0  0  0  0  0
   59.2650   29.4550   48.1470 C   0  0  0  0  0  0  0  0  0  0  0  0
   60.5370   29.4550   48.8570 N   0  0  0  0  0  0  0  0  0  0  0  0
   61.4680   30.5360   48.7710 C   0  0  0  0  0  0  0  0  0  0  0  0
   62.0300   30.9780   49.8080 O   0  0  0  0  0  0  0  0  0  0  0  0
   61.6720   31.2210   47.4600 C   0  0  0  0  0  0  0  0  0  0  0  0
   60.6990   32.3630   47.3570 C   0  0  0  0  0  0  0  0  0  0  0  0
   59.6380   32.2220   46.5170 N   0  0  0  0  0  0  0  0  0  0  0  0
   58.6430   33.1420   46.4090 C   0  0  0  0  0  0  0  0  0  0  0  0
   57.6560   32.8820   45.5990 N   0  0  0  0  0  0  0  0  0  0  0  0
   57.6850   32.2930   44.2880 C   0  0  0  0  0  0  0  0  0  0  0  0
   57.6910   33.0080   43.2510 O   0  0  0  0  0  0  0  0  0  0  0  0
   57.7890   30.8340   44.1570 C   0  0  0  0  0  0  0  0  0  0  0  0
   58.9120   30.0660   44.4400 C   0  0  0  0  0  0  0  0  0  0  0  0
   58.7080   28.6950   44.2360 C   0  0  0  0  0  0  0  0  0  0  0  0
   57.4300   28.3800   43.7950 C   0  0  0  0  0  0  0  0  0  0  0  0
   56.5520   29.8090   43.6590 S   0  0  0  0  0  0  0  0  0  0  0  0
   58.6950   34.2940   47.2180 C   0  0  0  0  0  0  0  0  0  0  0  0
   59.7660   34.4670   48.0950 C   0  0  0  0  0  0  0  0  0  0  0  0
   60.7700   33.5030   48.1910 C   0  0  0  0  0  0  0  0  0  0  0  0
   61.7910   33.6980   49.1220 O   0  0  0  0  0  0  0  0  0  0  0  0
   57.7720   27.5930   47.3280 C   0  0  0  0  0  0  0  0  0  0  0  0
  1  2  1  0
  2  3  2  0
  2  4  1  0
  4  5  2  0
  5  6  1  0
  6  7  2  0
  7  8  1  0
  8  9  1  0
  9 10  1  0
 10 11  1  0
 11 12  2  0
 11 13  1  0
 13 14  1  0
 14 15  1  0
 15 16  1  0
 16 17  2  3
 17 18  1  0
 18 19  2  0
 18 20  1  0
 20 21  2  0
 21 22  1  0
 22 23  2  0
 23 24  1  0
 16 25  1  0
 25 26  2  0
 26 27  1  0
 27 28  1  0
  8 29  2  0
 29  4  1  0
 27 14  2  0
 24 20  1  0
M  CHG  3   1  -1  10  -1  15  -1
M  END
>  <UniqueID>  (3235) 
68

>  <SMILES>  (3235) 
[NH-]C(=O)c1cccc(C[N-]C(=O)Cc2[n-]c(=NC(=O)c3cccs3)ccc2O)c1

>  <Energy>  (3235) 
73.01730967084313

>  <Genealogy>  (3235) 
[NH-]C(=O)c1cccc(C[N-]C(=O)Cc2[n-]c(=NC(=O)c3cccs3)ccc2O)c1 (protonated)
[NH-]C(=O)c1cccc(C[N-]C(=O)Cc2[n-]c(=NC(=O)c3cccs3)ccc2O)c1 (3D coordinates assigned)
[NH-]C(=O)c1cccc(C[N-]C(=O)Cc2[n-]c(=NC(=O)c3cccs3)ccc2O)c1 (optimized conformer: 73.01730967084313 kcal/mol)

>  <smiles>  (3235) 
NC(=O)c1cccc(CNC(=O)Cc2[nH]c(=NC(=O)c3cccs3)ccc2O)c1

>  <score_type>  (3235) 
oracle

>  <origin>  (3235) 
adg

>  <m_score__min__energy>  (3235) 
-14.470000000000001

>  <m_primary>  (3235) 
energy

$$$$
79:0
     RDKit          3D

 27 29  0  0  0  0  0  0  0  0999 V2000
   57.4870   30.1720   44.0450 C   0  0  0  0  0  0  0  0  0  0  0  0
   57.8880   29.8370   45.2820 C   0  0  0  0  0  0  0  0  0  0  0  0
   58.0570   28.5400   45.7920 C   0  0  0  0  0  0  0  0  0  0  0  0
   57.7020   27.3380   45.2960 C   0  0  0  0  0  0  0  0  0  0  0  0
   57.2040   26.1980   46.0830 C   0  0  0  0  0  0  0  0  0  0  0  0
   57.9620   25.1690   46.5050 N   0  0  0  0  0  0  0  0  0  0  0  0
   57.0610   24.3180   47.0400 C   0  0  0  0  0  0  0  0  0  0  0  0
   57.3920   23.2220   47.5640 O   0  0  0  0  0  0  0  0  0  0  0  0
   55.7760   24.7260   46.9590 N   0  0  0  0  0  0  0  0  0  0  0  0
   55.8850   25.9110   46.3370 C   0  0  0  0  0  0  0  0  0  0  0  0
   54.8000   26.7110   46.0020 O   0  0  0  0  0  0  0  0  0  0  0  0
   58.6700   28.6840   47.0230 C   0  0  0  0  0  0  0  0  0  0  0  0
   58.7950   30.0390   47.2560 C   0  0  0  0  0  0  0  0  0  0  0  0
   59.2910   30.6180   48.5240 C   0  0  0  0  0  0  0  0  0  0  0  0
   58.4620   30.8960   49.4330 O   0  0  0  0  0  0  0  0  0  0  0  0
   60.7000   30.8140   48.7620 N   0  0  0  0  0  0  0  0  0  0  0  0
   61.6300   31.0420   47.6490 C   0  0  0  0  0  0  0  0  0  0  0  0
   62.6780   32.0890   48.0350 C   0  0  0  0  0  0  0  0  0  0  0  0
   63.3300   31.7530   49.3100 N   0  0  0  0  0  0  0  0  0  0  0  0
   64.6040   32.3600   49.6100 C   0  0  0  0  0  0  0  0  0  0  0  0
   64.8980   33.4740   49.0960 O   0  0  0  0  0  0  0  0  0  0  0  0
   65.6430   31.6640   50.4510 C   0  0  0  0  0  0  0  0  0  0  0  0
   66.9430   32.4590   50.4700 C   0  0  0  0  0  0  0  0  0  0  0  0
   62.7230   30.7640   50.2130 C   0  0  0  0  0  0  0  0  0  0  0  0
   61.1920   30.8200   50.1470 C   0  0  0  0  0  0  0  0  0  0  0  0
   58.3260   30.7430   46.1970 N   0  0  0  0  0  0  0  0  0  0  0  0
   58.3660   32.2010   46.0300 C   0  0  0  0  0  0  0  0  0  0  0  0
  1  2  2  0
  2  3  1  0
  3  4  2  3
  4  5  1  0
  5  6  1  0
  6  7  1  0
  7  8  2  0
  7  9  1  0
  9 10  1  0
 10 11  1  0
  3 12  1  0
 12 13  2  0
 13 14  1  0
 14 15  2  0
 14 16  1  0
 16 17  1  0
 17 18  1  0
 18 19  1  0
 19 20  1  0
 20 21  2  0
 20 22  1  0
 22 23  1  0
 19 24  1  0
 24 25  1  0
 13 26  1  0
 26 27  1  0
 26  2  1  0
 10  5  2  0
 25 16  1  0
M  CHG  3   6  -1   9  -1  11  -1
M  END
>  <UniqueID>  (3236) 
76

>  <SMILES>  (3236) 
C=c1c(=Cc2[n-]c(=O)[n-]c2[O-])cc(C(=O)N2CCN(C(=O)CC)CC2)n1C

>  <Energy>  (3236) 
120.23707043340555

>  <Genealogy>  (3236) 
C=c1c(=Cc2[n-]c(=O)[n-]c2[O-])cc(C(=O)N2CCN(C(=O)CC)CC2)n1C (protonated)
C=c1c(=Cc2[n-]c(=O)[n-]c2[O-])cc(C(=O)N2CCN(C(=O)CC)CC2)n1C (3D coordinates assigned)
C=c1c(=Cc2[n-]c(=O)[n-]c2[O-])cc(C(=O)N2CCN(C(=O)CC)CC2)n1C (nonaromatic ring conformer: 120.23707043340555 kcal/mol)

>  <smiles>  (3236) 
C=c1c(=Cc2[nH]c(=O)[nH]c2O)cc(C(=O)N2CCN(C(=O)CC)CC2)n1C

>  <score_type>  (3236) 
oracle

>  <origin>  (3236) 
adg

>  <m_score__min__energy>  (3236) 
-16.66

>  <m_primary>  (3236) 
energy

$$$$
86:0
     RDKit          3D

 27 30  0  0  0  0  0  0  0  0999 V2000
   52.9980   28.4010   53.0020 C   0  0  0  0  0  0  0  0  0  0  0  0
   54.1500   29.0670   52.8690 C   0  0  0  0  0  0  0  0  0  0  0  0
   55.3070   28.4910   53.1110 O   0  0  0  0  0  0  0  0  0  0  0  0
   56.2800   29.3280   52.8380 C   0  0  0  0  0  0  0  0  0  0  0  0
   55.7500   30.5180   52.4010 C   0  0  0  0  0  0  0  0  0  0  0  0
   56.5280   31.7320   52.0910 C   0  0  0  0  0  0  0  0  0  0  0  0
   56.0470   32.8610   52.3800 O   0  0  0  0  0  0  0  0  0  0  0  0
   57.8110   31.6420   51.4460 N   0  0  0  0  0  0  0  0  0  0  0  0
   58.1020   30.5690   50.4850 C   0  0  0  0  0  0  0  0  0  0  0  0
   58.7290   31.1670   49.2270 C   0  0  0  0  0  0  0  0  0  0  0  0
   59.8440   32.0480   49.6000 N   0  0  0  0  0  0  0  0  0  0  0  0
   61.0980   31.9630   48.8930 C   0  0  0  0  0  0  0  0  0  0  0  0
   61.1260   31.5020   47.7190 O   0  0  0  0  0  0  0  0  0  0  0  0
   62.3780   32.4430   49.5190 C   0  0  0  0  0  0  0  0  0  0  0  0
   62.8190   33.8410   49.1080 C   0  0  0  0  0  0  0  0  0  0  0  0
   63.5170   32.6250   48.5250 C   0  0  0  0  0  0  0  0  0  0  0  0
   59.5780   33.1160   50.5770 C   0  0  0  0  0  0  0  0  0  0  0  0
   58.9100   32.5380   51.8280 C   0  0  0  0  0  0  0  0  0  0  0  0
   54.3650   30.3810   52.4310 C   0  0  0  0  0  0  0  0  0  0  0  0
   53.4950   31.3420   52.0540 C   0  0  0  0  0  0  0  0  0  0  0  0
   52.5210   31.2320   50.9620 C   0  0  0  0  0  0  0  0  0  0  0  0
   52.5290   30.2670   50.0260 N   0  0  0  0  0  0  0  0  0  0  0  0
   51.3900   30.5020   49.3360 C   0  0  0  0  0  0  0  0  0  0  0  0
   51.0380   29.7980   48.3540 O   0  0  0  0  0  0  0  0  0  0  0  0
   50.6540   31.5400   49.7900 N   0  0  0  0  0  0  0  0  0  0  0  0
   51.3830   31.9830   50.8240 C   0  0  0  0  0  0  0  0  0  0  0  0
   51.0300   33.0690   51.6200 O   0  0  0  0  0  0  0  0  0  0  0  0
  1  2  2  0
  2  3  1  0
  3  4  1  0
  4  5  2  0
  5  6  1  0
  6  7  2  0
  6  8  1  0
  8  9  1  0
  9 10  1  0
 10 11  1  0
 11 12  1  0
 12 13  2  0
 12 14  1  0
 14 15  1  0
 15 16  1  0
 11 17  1  0
 17 18  1  0
  5 19  1  0
 19 20  2  3
 20 21  1  0
 21 22  1  0
 22 23  1  0
 23 24  2  0
 23 25  1  0
 25 26  1  0
 26 27  1  0
 19  2  1  0
 26 21  2  0
 18  8  1  0
 16 14  1  0
M  CHG  3  22  -1  25  -1  27  -1
M  END
>  <UniqueID>  (3237) 
82

>  <SMILES>  (3237) 
C=c1occ(C(=O)N2CCN(C(=O)C3CC3)CC2)c1=Cc1[n-]c(=O)[n-]c1[O-]

>  <Energy>  (3237) 
384.8981971255023

>  <Genealogy>  (3237) 
C=c1occ(C(=O)N2CCN(C(=O)C3CC3)CC2)c1=Cc1[n-]c(=O)[n-]c1[O-] (protonated)
C=c1occ(C(=O)N2CCN(C(=O)C3CC3)CC2)c1=Cc1[n-]c(=O)[n-]c1[O-] (3D coordinates assigned)
C=c1occ(C(=O)N2CCN(C(=O)C3CC3)CC2)c1=Cc1[n-]c(=O)[n-]c1[O-] (nonaromatic ring conformer: 384.8981971255023 kcal/mol)

>  <smiles>  (3237) 
C=c1occ(C(=O)N2CCN(C(=O)C3CC3)CC2)c1=Cc1[nH]c(=O)[nH]c1O

>  <score_type>  (3237) 
oracle

>  <origin>  (3237) 
adg

>  <m_score__min__energy>  (3237) 
-15.91

>  <m_primary>  (3237) 
energy

$$$$
1:0
     RDKit          3D

 27 29  0  0  0  0  0  0  0  0999 V2000
   58.8610   29.5060   48.1110 C   0  0  0  0  0  0  0  0  0  0  0  0
   58.5600   30.0480   46.9120 C   0  0  0  0  0  0  0  0  0  0  0  0
   58.4350   31.4510   46.8590 C   0  0  0  0  0  0  0  0  0  0  0  0
   58.1810   32.1210   45.6560 C   0  0  0  0  0  0  0  0  0  0  0  0
   58.0940   33.5220   45.6020 O   0  0  0  0  0  0  0  0  0  0  0  0
   59.1750   34.4090   45.7060 C   0  0  0  0  0  0  0  0  0  0  0  0
   59.2810   35.3810   44.9080 O   0  0  0  0  0  0  0  0  0  0  0  0
   60.2240   34.1640   46.7190 C   0  0  0  0  0  0  0  0  0  0  0  0
   59.9600   34.3520   48.0880 C   0  0  0  0  0  0  0  0  0  0  0  0
   60.9590   34.1200   49.0390 C   0  0  0  0  0  0  0  0  0  0  0  0
   62.2280   33.6990   48.6350 C   0  0  0  0  0  0  0  0  0  0  0  0
   63.1950   33.4770   49.5600 F   0  0  0  0  0  0  0  0  0  0  0  0
   62.5020   33.5100   47.2780 C   0  0  0  0  0  0  0  0  0  0  0  0
   61.5060   33.7400   46.3240 C   0  0  0  0  0  0  0  0  0  0  0  0
   58.0580   31.3860   44.4700 C   0  0  0  0  0  0  0  0  0  0  0  0
   57.8220   32.0870   43.1530 C   0  0  0  0  0  0  0  0  0  0  0  0
   56.9960   31.2130   42.2150 C   0  0  0  0  0  0  0  0  0  0  0  0
   58.1770   29.9910   44.5000 C   0  0  0  0  0  0  0  0  0  0  0  0
   58.4170   29.2850   45.7050 C   0  0  0  0  0  0  0  0  0  0  0  0
   58.4550   27.9230   45.6980 C   0  0  0  0  0  0  0  0  0  0  0  0
   57.2900   27.0220   45.8430 C   0  0  0  0  0  0  0  0  0  0  0  0
   57.3280   25.7780   46.3560 N   0  0  0  0  0  0  0  0  0  0  0  0
   56.0270   25.4140   46.3920 C   0  0  0  0  0  0  0  0  0  0  0  0
   55.6510   24.2870   46.8070 O   0  0  0  0  0  0  0  0  0  0  0  0
   55.1620   26.3560   45.9590 N   0  0  0  0  0  0  0  0  0  0  0  0
   55.9770   27.3700   45.6270 C   0  0  0  0  0  0  0  0  0  0  0  0
   55.5290   28.5920   45.1420 O   0  0  0  0  0  0  0  0  0  0  0  0
  1  2  2  0
  2  3  1  0
  3  4  2  0
  4  5  1  0
  5  6  1  0
  6  7  2  0
  6  8  1  0
  8  9  2  0
  9 10  1  0
 10 11  2  0
 11 12  1  0
 11 13  1  0
 13 14  2  0
  4 15  1  0
 15 16  1  0
 16 17  1  0
 15 18  2  0
 18 19  1  0
 19 20  2  0
 20 21  1  0
 21 22  1  0
 22 23  1  0
 23 24  2  0
 23 25  1  0
 25 26  1  0
 26 27  1  0
 19  2  1  0
 26 21  2  0
 14  8  1  0
M  CHG  3  22  -1  25  -1  27  -1
M  END
>  <UniqueID>  (3238) 
2

>  <SMILES>  (3238) 
C=c1cc(OC(=O)c2ccc(F)cc2)c(CC)c/c1=C\c1[n-]c(=O)[n-]c1[O-]

>  <Energy>  (3238) 
90.83798689078696

>  <Genealogy>  (3238) 
C=c1cc(OC(=O)c2ccc(F)cc2)c(CC)cc1=Cc1[n-]c(=O)[n-]c1[O-] (protonated)
C=c1cc(OC(=O)c2ccc(F)cc2)c(CC)c/c1=C\c1[n-]c(=O)[n-]c1[O-] (cis-trans isomerization)
C=c1cc(OC(=O)c2ccc(F)cc2)c(CC)c/c1=C\c1[n-]c(=O)[n-]c1[O-] (3D coordinates assigned)
C=c1cc(OC(=O)c2ccc(F)cc2)c(CC)c/c1=C\c1[n-]c(=O)[n-]c1[O-] (optimized conformer: 90.83798689078696 kcal/mol)

>  <smiles>  (3238) 
C=c1cc(OC(=O)c2ccc(F)cc2)c(CC)cc1=Cc1[nH]c(=O)[nH]c1O

>  <score_type>  (3238) 
oracle

>  <origin>  (3238) 
adg

>  <m_score__min__energy>  (3238) 
-16.140000000000001

>  <m_primary>  (3238) 
energy

$$$$
3:0
     RDKit          3D

 27 28  0  0  0  0  0  0  0  0999 V2000
   58.1730   34.3860   47.2340 O   0  0  0  0  0  0  0  0  0  0  0  0
   58.4890   33.7080   46.2200 C   0  0  0  0  0  0  0  0  0  0  0  0
   59.9180   33.6640   45.7600 C   0  0  0  0  0  0  0  0  0  0  0  0
   60.7760   33.0710   46.7850 N   0  0  0  0  0  0  0  0  0  0  0  0
   60.3310   31.4110   47.0490 S   0  0  0  0  0  0  0  0  0  0  0  0
   61.5800   30.5760   47.0900 O   0  0  0  0  0  0  0  0  0  0  0  0
   59.4770   30.9270   45.9100 O   0  0  0  0  0  0  0  0  0  0  0  0
   59.4510   31.2230   48.5650 C   0  0  0  0  0  0  0  0  0  0  0  0
   59.2070   29.9460   49.0910 C   0  0  0  0  0  0  0  0  0  0  0  0
   58.5060   29.8030   50.2930 C   0  0  0  0  0  0  0  0  0  0  0  0
   58.0490   30.9330   50.9760 C   0  0  0  0  0  0  0  0  0  0  0  0
   57.1050   30.7370   52.6240 Br  0  0  0  0  0  0  0  0  0  0  0  0
   58.2870   32.2090   50.4540 C   0  0  0  0  0  0  0  0  0  0  0  0
   58.9830   32.3540   49.2510 C   0  0  0  0  0  0  0  0  0  0  0  0
   57.4530   33.0280   45.4980 N   0  0  0  0  0  0  0  0  0  0  0  0
   57.4930   32.7110   44.0730 C   0  0  0  0  0  0  0  0  0  0  0  0
   57.1670   31.2650   43.8670 C   0  0  0  0  0  0  0  0  0  0  0  0
   57.0070   30.8330   42.6940 O   0  0  0  0  0  0  0  0  0  0  0  0
   57.0150   30.3820   44.9890 N   0  0  0  0  0  0  0  0  0  0  0  0
   56.2780   29.1240   44.8900 C   0  0  0  0  0  0  0  0  0  0  0  0
   57.0810   28.0160   45.5230 C   0  0  0  0  0  0  0  0  0  0  0  0
   58.4750   28.1550   45.6270 C   0  0  0  0  0  0  0  0  0  0  0  0
   59.2370   27.1830   46.2800 C   0  0  0  0  0  0  0  0  0  0  0  0
   58.6140   26.0660   46.8410 C   0  0  0  0  0  0  0  0  0  0  0  0
   57.2280   25.9160   46.7440 C   0  0  0  0  0  0  0  0  0  0  0  0
   56.4590   26.8830   46.0880 C   0  0  0  0  0  0  0  0  0  0  0  0
   55.0810   26.7100   46.0050 O   0  0  0  0  0  0  0  0  0  0  0  0
  1  2  2  0
  2  3  1  0
  3  4  1  0
  4  5  1  0
  5  6  2  0
  5  7  2  0
  5  8  1  0
  8  9  2  0
  9 10  1  0
 10 11  2  0
 11 12  1  0
 11 13  1  0
 13 14  2  0
  2 15  1  0
 15 16  1  0
 16 17  1  0
 17 18  2  0
 17 19  1  0
 19 20  1  0
 20 21  1  0
 21 22  2  0
 22 23  1  0
 23 24  2  0
 24 25  1  0
 25 26  2  0
 26 27  1  0
 14  8  1  0
 26 21  1  0
M  CHG  3   4  -1  15  -1  27  -1
M  END
>  <UniqueID>  (3239) 
4

>  <SMILES>  (3239) 
O=C(C[N-]S(=O)(=O)c1ccc(Br)cc1)[N-]CC(=O)NCc1ccccc1[O-]

>  <Energy>  (3239) 
31.55702157275864

>  <Genealogy>  (3239) 
O=C(C[N-]S(=O)(=O)c1ccc(Br)cc1)[N-]CC(=O)NCc1ccccc1[O-] (protonated)
O=C(C[N-]S(=O)(=O)c1ccc(Br)cc1)[N-]CC(=O)NCc1ccccc1[O-] (3D coordinates assigned)
O=C(C[N-]S(=O)(=O)c1ccc(Br)cc1)[N-]CC(=O)NCc1ccccc1[O-] (optimized conformer: 31.55702157275864 kcal/mol)

>  <smiles>  (3239) 
O=C(CNC(=O)CNS(=O)(=O)c1ccc(Br)cc1)NCc1ccccc1O

>  <score_type>  (3239) 
oracle

>  <origin>  (3239) 
adg

>  <m_score__min__energy>  (3239) 
-14.970000000000001

>  <m_primary>  (3239) 
energy

$$$$
4:0
     RDKit          3D

 25 27  0  0  0  0  0  0  0  0999 V2000
   55.5250   28.6770   45.0900 O   0  0  0  0  0  0  0  0  0  0  0  0
   56.7030   28.2830   45.2960 C   0  0  0  0  0  0  0  0  0  0  0  0
   57.7830   29.0810   44.7890 N   0  0  0  0  0  0  0  0  0  0  0  0
   58.0440   30.4600   45.0910 C   0  0  0  0  0  0  0  0  0  0  0  0
   57.3100   31.4340   44.3990 C   0  0  0  0  0  0  0  0  0  0  0  0
   57.4680   32.7880   44.6980 C   0  0  0  0  0  0  0  0  0  0  0  0
   58.3740   33.1840   45.6820 C   0  0  0  0  0  0  0  0  0  0  0  0
   59.1430   32.2300   46.3520 C   0  0  0  0  0  0  0  0  0  0  0  0
   59.0100   30.8640   46.0470 C   0  0  0  0  0  0  0  0  0  0  0  0
   59.9170   29.9050   46.7160 C   0  0  0  0  0  0  0  0  0  0  0  0
   60.7850   29.3110   46.0180 O   0  0  0  0  0  0  0  0  0  0  0  0
   59.8180   29.6160   48.1270 N   0  0  0  0  0  0  0  0  0  0  0  0
   60.9060   28.8910   48.7920 C   0  0  0  0  0  0  0  0  0  0  0  0
   60.9180   29.2290   50.2860 C   0  0  0  0  0  0  0  0  0  0  0  0
   59.6430   29.0130   50.8610 O   0  0  0  0  0  0  0  0  0  0  0  0
   58.7050   29.9050   50.2930 C   0  0  0  0  0  0  0  0  0  0  0  0
   58.5130   29.6120   48.8010 C   0  0  0  0  0  0  0  0  0  0  0  0
   56.9300   27.0490   46.0920 C   0  0  0  0  0  0  0  0  0  0  0  0
   58.1830   26.7920   46.6730 C   0  0  0  0  0  0  0  0  0  0  0  0
   58.3900   25.6300   47.4170 C   0  0  0  0  0  0  0  0  0  0  0  0
   57.3360   24.7330   47.5930 C   0  0  0  0  0  0  0  0  0  0  0  0
   57.5050   23.6800   48.2610 O   0  0  0  0  0  0  0  0  0  0  0  0
   56.1200   25.0020   47.0500 N   0  0  0  0  0  0  0  0  0  0  0  0
   55.8890   26.1260   46.3180 C   0  0  0  0  0  0  0  0  0  0  0  0
   54.6180   26.3390   45.7990 O   0  0  0  0  0  0  0  0  0  0  0  0
  1  2  2  0
  2  3  1  0
  3  4  1  0
  4  5  2  0
  5  6  1  0
  6  7  2  0
  7  8  1  0
  8  9  2  0
  9 10  1  0
 10 11  2  0
 10 12  1  0
 12 13  1  0
 13 14  1  0
 14 15  1  0
 15 16  1  0
 16 17  1  0
  2 18  1  0
 18 19  1  0
 19 20  2  0
 20 21  1  0
 21 22  2  0
 21 23  1  0
 23 24  1  0
 24 25  1  0
  9  4  1  0
 17 12  1  0
 24 18  2  0
M  CHG  3   3  -1  23  -1  25  -1
M  END
>  <UniqueID>  (3240) 
5

>  <SMILES>  (3240) 
O=C([N-]c1ccccc1C(=O)N1CCOCC1)c1ccc(=O)[n-]c1[O-]

>  <Energy>  (3240) 
57.22256841823001

>  <Genealogy>  (3240) 
O=C([N-]c1ccccc1C(=O)N1CCOCC1)c1ccc(=O)[n-]c1[O-] (protonated)
O=C([N-]c1ccccc1C(=O)N1CCOCC1)c1ccc(=O)[n-]c1[O-] (3D coordinates assigned)
O=C([N-]c1ccccc1C(=O)N1CCOCC1)c1ccc(=O)[n-]c1[O-] (nonaromatic ring conformer: 57.22256841823001 kcal/mol)

>  <smiles>  (3240) 
O=C(Nc1ccccc1C(=O)N1CCOCC1)c1ccc(=O)[nH]c1O

>  <score_type>  (3240) 
oracle

>  <origin>  (3240) 
adg

>  <m_score__min__energy>  (3240) 
-15.06

>  <m_primary>  (3240) 
energy

$$$$
6:0
     RDKit          3D

 34 37  0  0  0  0  0  0  0  0999 V2000
   57.1910   29.9890   43.5880 C   0  0  0  0  0  0  0  0  0  0  0  0
   57.9870   30.2230   44.6430 C   0  0  0  0  0  0  0  0  0  0  0  0
   58.4470   29.2790   45.5720 C   0  0  0  0  0  0  0  0  0  0  0  0
   58.4580   27.9310   45.5370 C   0  0  0  0  0  0  0  0  0  0  0  0
   57.2910   27.0510   45.7320 C   0  0  0  0  0  0  0  0  0  0  0  0
   57.3380   25.8090   46.2480 N   0  0  0  0  0  0  0  0  0  0  0  0
   56.0360   25.4740   46.3780 C   0  0  0  0  0  0  0  0  0  0  0  0
   55.6630   24.3550   46.8170 O   0  0  0  0  0  0  0  0  0  0  0  0
   55.1650   26.4360   46.0080 N   0  0  0  0  0  0  0  0  0  0  0  0
   55.9760   27.4320   45.6150 C   0  0  0  0  0  0  0  0  0  0  0  0
   55.5230   28.6650   45.1570 O   0  0  0  0  0  0  0  0  0  0  0  0
   58.9880   30.0010   46.6200 C   0  0  0  0  0  0  0  0  0  0  0  0
   58.9010   31.3360   46.2820 C   0  0  0  0  0  0  0  0  0  0  0  0
   59.4800   32.4130   47.1180 C   0  0  0  0  0  0  0  0  0  0  0  0
   58.7020   33.3230   47.5140 O   0  0  0  0  0  0  0  0  0  0  0  0
   60.9070   32.4920   47.3890 N   0  0  0  0  0  0  0  0  0  0  0  0
   61.3760   31.4330   48.3090 C   0  0  0  0  0  0  0  0  0  0  0  0
   60.9160   31.6360   49.7620 C   0  0  0  0  0  0  0  0  0  0  0  0
   61.0770   33.0260   50.2000 N   0  0  0  0  0  0  0  0  0  0  0  0
   60.9580   33.2820   51.6050 C   0  0  0  0  0  0  0  0  0  0  0  0
   61.8970   33.8560   52.2200 O   0  0  0  0  0  0  0  0  0  0  0  0
   59.7830   32.8730   52.3130 N   0  0  0  0  0  0  0  0  0  0  0  0
   59.8840   31.9190   53.4230 C   0  0  0  0  0  0  0  0  0  0  0  0
   58.8740   30.7760   53.2190 C   0  0  0  0  0  0  0  0  0  0  0  0
   57.5730   31.2630   52.7250 N   0  0  0  0  0  0  0  0  0  0  0  0
   56.5860   30.3010   52.2830 C   0  0  0  0  0  0  0  0  0  0  0  0
   55.3070   30.7210   51.6190 C   0  0  0  0  0  0  0  0  0  0  0  0
   56.7890   29.0700   52.4610 O   0  0  0  0  0  0  0  0  0  0  0  0
   57.3430   32.7160   52.6690 C   0  0  0  0  0  0  0  0  0  0  0  0
   58.4720   33.3710   51.8730 C   0  0  0  0  0  0  0  0  0  0  0  0
   60.8110   34.1370   49.2830 C   0  0  0  0  0  0  0  0  0  0  0  0
   61.3080   33.8300   47.8670 C   0  0  0  0  0  0  0  0  0  0  0  0
   58.3230   31.4730   45.0600 N   0  0  0  0  0  0  0  0  0  0  0  0
   58.1200   32.7130   44.3030 C   0  0  0  0  0  0  0  0  0  0  0  0
  1  2  2  0
  2  3  1  0
  3  4  2  3
  4  5  1  0
  5  6  1  0
  6  7  1  0
  7  8  2  0
  7  9  1  0
  9 10  1  0
 10 11  1  0
  3 12  1  0
 12 13  2  0
 13 14  1  0
 14 15  2  0
 14 16  1  0
 16 17  1  0
 17 18  1  0
 18 19  1  0
 19 20  1  0
 20 21  2  0
 20 22  1  0
 22 23  1  0
 23 24  1  0
 24 25  1  0
 25 26  1  0
 26 27  1  0
 26 28  2  0
 25 29  1  0
 29 30  1  0
 19 31  1  0
 31 32  1  0
 13 33  1  0
 33 34  1  0
 33  2  1  0
 10  5  2  0
 32 16  1  0
 30 22  1  0
M  CHG  4   6  -1   9  -1  11  -1  16   1
M  END
>  <UniqueID>  (3241) 
7

>  <SMILES>  (3241) 
C=c1c(=Cc2[n-]c(=O)[n-]c2[O-])cc(C(=O)[NH+]2CCN(C(=O)N3CCN(C(C)=O)CC3)CC2)n1C

>  <Energy>  (3241) 
152.1099968685166

>  <Genealogy>  (3241) 
C=c1c(=Cc2[n-]c(=O)[n-]c2[O-])cc(C(=O)[NH+]2CCN(C(=O)N3CCN(C(C)=O)CC3)CC2)n1C (protonated)
C=c1c(=Cc2[n-]c(=O)[n-]c2[O-])cc(C(=O)[NH+]2CCN(C(=O)N3CCN(C(C)=O)CC3)CC2)n1C (3D coordinates assigned)
C=c1c(=Cc2[n-]c(=O)[n-]c2[O-])cc(C(=O)[NH+]2CCN(C(=O)N3CCN(C(C)=O)CC3)CC2)n1C (nonaromatic ring conformer: 152.1099968685166 kcal/mol)

>  <smiles>  (3241) 
C=c1c(=Cc2[nH]c(=O)[nH]c2O)cc(C(=O)N2CCN(C(=O)N3CCN(C(C)=O)CC3)CC2)n1C

>  <score_type>  (3241) 
oracle

>  <origin>  (3241) 
adg

>  <m_score__min__energy>  (3241) 
-17.73

>  <m_primary>  (3241) 
energy

$$$$
12:0
     RDKit          3D

 32 34  0  0  0  0  0  0  0  0999 V2000
   54.9110   21.9970   44.8520 O   0  0  0  0  0  0  0  0  0  0  0  0
   55.6010   23.1940   45.0510 C   0  0  0  0  0  0  0  0  0  0  0  0
   54.8740   24.3330   45.4200 C   0  0  0  0  0  0  0  0  0  0  0  0
   55.5220   25.5530   45.6340 C   0  0  0  0  0  0  0  0  0  0  0  0
   54.7740   26.6620   46.0190 O   0  0  0  0  0  0  0  0  0  0  0  0
   56.9180   25.6500   45.4650 C   0  0  0  0  0  0  0  0  0  0  0  0
   57.6440   26.9440   45.7290 C   0  0  0  0  0  0  0  0  0  0  0  0
   58.0960   27.5460   44.4370 C   0  0  0  0  0  0  0  0  0  0  0  0
   57.7530   27.0130   43.3460 O   0  0  0  0  0  0  0  0  0  0  0  0
   58.8680   28.7550   44.4550 N   0  0  0  0  0  0  0  0  0  0  0  0
   58.5410   29.8120   45.1330 C   0  0  0  0  0  0  0  0  0  0  0  0
   57.2080   30.4130   44.9710 C   0  0  0  0  0  0  0  0  0  0  0  0
   56.1970   29.6670   44.8610 O   0  0  0  0  0  0  0  0  0  0  0  0
   57.0190   31.8340   44.9980 N   0  0  0  0  0  0  0  0  0  0  0  0
   57.9670   32.8050   45.4630 C   0  0  0  0  0  0  0  0  0  0  0  0
   58.2390   33.9770   44.7370 C   0  0  0  0  0  0  0  0  0  0  0  0
   59.1430   34.9200   45.2360 C   0  0  0  0  0  0  0  0  0  0  0  0
   59.7650   34.7110   46.4670 C   0  0  0  0  0  0  0  0  0  0  0  0
   59.4800   33.5610   47.2140 C   0  0  0  0  0  0  0  0  0  0  0  0
   60.2560   33.3040   48.7790 S   0  0  0  0  0  0  0  0  0  0  0  0
   59.2570   32.6820   49.7150 O   0  0  0  0  0  0  0  0  0  0  0  0
   60.6560   34.6340   49.3540 O   0  0  0  0  0  0  0  0  0  0  0  0
   61.6630   32.2650   48.6760 N   0  0  0  0  0  0  0  0  0  0  0  0
   62.7370   32.6710   49.6020 C   0  0  0  0  0  0  0  0  0  0  0  0
   63.6070   33.8270   49.0530 C   0  0  0  0  0  0  0  0  0  0  0  0
   63.3620   34.1140   47.6890 O   0  0  0  0  0  0  0  0  0  0  0  0
   63.3640   32.9190   46.9420 C   0  0  0  0  0  0  0  0  0  0  0  0
   62.1290   32.0680   47.2870 C   0  0  0  0  0  0  0  0  0  0  0  0
   58.5790   32.6120   46.7070 C   0  0  0  0  0  0  0  0  0  0  0  0
   57.6470   24.5040   45.1050 C   0  0  0  0  0  0  0  0  0  0  0  0
   56.9970   23.2820   44.8940 C   0  0  0  0  0  0  0  0  0  0  0  0
   57.9630   21.8800   44.4460 Cl  0  0  0  0  0  0  0  0  0  0  0  0
  1  2  1  0
  2  3  2  0
  3  4  1  0
  4  5  1  0
  4  6  2  0
  6  7  1  0
  7  8  1  0
  8  9  2  0
  8 10  1  0
 10 11  2  0
 11 12  1  0
 12 13  2  0
 12 14  1  0
 14 15  1  0
 15 16  2  0
 16 17  1  0
 17 18  2  0
 18 19  1  0
 19 20  1  0
 20 21  2  0
 20 22  2  0
 20 23  1  0
 23 24  1  0
 24 25  1  0
 25 26  1  0
 26 27  1  0
 27 28  1  0
 19 29  2  0
  6 30  1  0
 30 31  2  0
 31 32  1  0
 31  2  1  0
 29 15  1  0
 28 23  1  0
M  CHG  2   5  -1  14  -1
M  END
>  <UniqueID>  (3242) 
13

>  <SMILES>  (3242) 
O=C(Cc1cc(Cl)c(O)cc1[O-])/N=C/C(=O)[N-]c1cccc(S(=O)(=O)N2CCOCC2)c1

>  <Energy>  (3242) 
64.87348492037368

>  <Genealogy>  (3242) 
O=C(Cc1cc(Cl)c(O)cc1[O-])N=CC(=O)[N-]c1cccc(S(=O)(=O)N2CCOCC2)c1 (protonated)
O=C(Cc1cc(Cl)c(O)cc1[O-])/N=C/C(=O)[N-]c1cccc(S(=O)(=O)N2CCOCC2)c1 (cis-trans isomerization)
O=C(Cc1cc(Cl)c(O)cc1[O-])/N=C/C(=O)[N-]c1cccc(S(=O)(=O)N2CCOCC2)c1 (3D coordinates assigned)
O=C(Cc1cc(Cl)c(O)cc1[O-])/N=C/C(=O)[N-]c1cccc(S(=O)(=O)N2CCOCC2)c1 (nonaromatic ring conformer: 64.87348492037368 kcal/mol)

>  <smiles>  (3242) 
O=C(Cc1cc(Cl)c(O)cc1O)N=CC(=O)Nc1cccc(S(=O)(=O)N2CCOCC2)c1

>  <score_type>  (3242) 
oracle

>  <origin>  (3242) 
adg

>  <m_score__min__energy>  (3242) 
-14.960000000000001

>  <m_primary>  (3242) 
energy

$$$$
34:0
     RDKit          3D

 26 29  0  0  0  0  0  0  0  0999 V2000
   56.6190   28.2590   55.0550 C   0  0  0  0  0  0  0  0  0  0  0  0
   55.5860   28.9850   54.5980 C   0  0  0  0  0  0  0  0  0  0  0  0
   54.3760   28.9620   55.3090 C   0  0  0  0  0  0  0  0  0  0  0  0
   53.2590   29.6580   54.8450 C   0  0  0  0  0  0  0  0  0  0  0  0
   53.3150   30.4100   53.6580 C   0  0  0  0  0  0  0  0  0  0  0  0
   52.2040   31.0620   53.2510 C   0  0  0  0  0  0  0  0  0  0  0  0
   51.7170   31.1810   51.8590 C   0  0  0  0  0  0  0  0  0  0  0  0
   51.9170   30.2780   50.8820 N   0  0  0  0  0  0  0  0  0  0  0  0
   51.3930   30.8760   49.7900 C   0  0  0  0  0  0  0  0  0  0  0  0
   51.3800   30.3270   48.6570 O   0  0  0  0  0  0  0  0  0  0  0  0
   50.8920   32.1100   50.0050 N   0  0  0  0  0  0  0  0  0  0  0  0
   51.1160   32.2920   51.3170 C   0  0  0  0  0  0  0  0  0  0  0  0
   50.7800   33.4520   52.0030 O   0  0  0  0  0  0  0  0  0  0  0  0
   54.5260   30.4240   52.9340 C   0  0  0  0  0  0  0  0  0  0  0  0
   55.6630   29.7430   53.4010 C   0  0  0  0  0  0  0  0  0  0  0  0
   56.9080   29.8510   52.6060 C   0  0  0  0  0  0  0  0  0  0  0  0
   57.0880   29.0480   51.6490 O   0  0  0  0  0  0  0  0  0  0  0  0
   57.8960   30.8630   52.8850 N   0  0  0  0  0  0  0  0  0  0  0  0
   59.2730   30.6800   52.4120 C   0  0  0  0  0  0  0  0  0  0  0  0
   60.2120   31.6730   53.1070 C   0  0  0  0  0  0  0  0  0  0  0  0
   59.7710   33.0820   52.9290 N   0  0  0  0  0  0  0  0  0  0  0  0
   60.2930   33.8510   51.7660 C   0  0  0  0  0  0  0  0  0  0  0  0
   60.9020   32.9780   50.6780 C   0  0  0  0  0  0  0  0  0  0  0  0
   59.6230   33.7580   50.3960 C   0  0  0  0  0  0  0  0  0  0  0  0
   58.3010   33.2770   53.0330 C   0  0  0  0  0  0  0  0  0  0  0  0
   57.5570   32.0790   53.6380 C   0  0  0  0  0  0  0  0  0  0  0  0
  1  2  2  0
  2  3  1  0
  3  4  2  0
  4  5  1  0
  5  6  2  0
  6  7  1  0
  7  8  1  0
  8  9  1  0
  9 10  2  0
  9 11  1  0
 11 12  1  0
 12 13  1  0
  5 14  1  0
 14 15  2  0
 15 16  1  0
 16 17  2  0
 16 18  1  0
 18 19  1  0
 19 20  1  0
 20 21  1  0
 21 22  1  0
 22 23  1  0
 23 24  1  0
 21 25  1  0
 25 26  1  0
 15  2  1  0
 26 18  1  0
 12  7  2  0
 24 22  1  0
M  CHG  3   8  -1  11  -1  13  -1
M  END
>  <UniqueID>  (3243) 
35

>  <SMILES>  (3243) 
C=c1cc/c(=C/c2[n-]c(=O)[n-]c2[O-])cc1C(=O)N1CCN(C2CC2)CC1

>  <Energy>  (3243) 
375.6329035954291

>  <Genealogy>  (3243) 
C=c1ccc(=Cc2[n-]c(=O)[n-]c2[O-])cc1C(=O)N1CCN(C2CC2)CC1 (protonated)
C=c1cc/c(=C/c2[n-]c(=O)[n-]c2[O-])cc1C(=O)N1CCN(C2CC2)CC1 (cis-trans isomerization)
C=c1cc/c(=C/c2[n-]c(=O)[n-]c2[O-])cc1C(=O)N1CCN(C2CC2)CC1 (3D coordinates assigned)
C=c1cc/c(=C/c2[n-]c(=O)[n-]c2[O-])cc1C(=O)N1CCN(C2CC2)CC1 (nonaromatic ring conformer: 375.6329035954291 kcal/mol)

>  <smiles>  (3243) 
C=c1ccc(=Cc2[nH]c(=O)[nH]c2O)cc1C(=O)N1CCN(C2CC2)CC1

>  <score_type>  (3243) 
oracle

>  <origin>  (3243) 
adg

>  <m_score__min__energy>  (3243) 
-17.030000000000001

>  <m_primary>  (3243) 
energy

$$$$
40:0
     RDKit          3D

 32 35  0  0  0  0  0  0  0  0999 V2000
   52.6830   31.1980   55.4210 C   0  0  0  0  0  0  0  0  0  0  0  0
   53.3730   30.5190   54.4870 C   0  0  0  0  0  0  0  0  0  0  0  0
   52.9310   30.1600   53.2010 C   0  0  0  0  0  0  0  0  0  0  0  0
   51.7090   30.2060   52.6370 C   0  0  0  0  0  0  0  0  0  0  0  0
   51.4050   30.6920   51.2800 C   0  0  0  0  0  0  0  0  0  0  0  0
   51.5010   29.9490   50.1600 N   0  0  0  0  0  0  0  0  0  0  0  0
   51.2390   30.8400   49.1760 C   0  0  0  0  0  0  0  0  0  0  0  0
   51.2150   30.5180   47.9600 O   0  0  0  0  0  0  0  0  0  0  0  0
   51.0130   32.1020   49.5980 N   0  0  0  0  0  0  0  0  0  0  0  0
   51.1370   31.9910   50.9310 C   0  0  0  0  0  0  0  0  0  0  0  0
   51.0140   33.0600   51.8090 O   0  0  0  0  0  0  0  0  0  0  0  0
   54.0460   29.6910   52.5250 C   0  0  0  0  0  0  0  0  0  0  0  0
   55.0980   29.7210   53.4170 C   0  0  0  0  0  0  0  0  0  0  0  0
   56.4710   29.2720   53.1040 C   0  0  0  0  0  0  0  0  0  0  0  0
   56.9670   28.3360   53.7930 O   0  0  0  0  0  0  0  0  0  0  0  0
   57.2450   29.8650   52.0380 N   0  0  0  0  0  0  0  0  0  0  0  0
   58.5850   29.3360   51.7410 C   0  0  0  0  0  0  0  0  0  0  0  0
   58.9600   29.5660   50.2720 C   0  0  0  0  0  0  0  0  0  0  0  0
   58.6910   30.9460   49.8420 N   0  0  0  0  0  0  0  0  0  0  0  0
   59.2850   31.4280   48.6200 C   0  0  0  0  0  0  0  0  0  0  0  0
   60.1790   30.7540   48.0410 O   0  0  0  0  0  0  0  0  0  0  0  0
   58.8600   32.6630   48.0310 N   0  0  0  0  0  0  0  0  0  0  0  0
   57.6120   32.7220   47.2700 C   0  0  0  0  0  0  0  0  0  0  0  0
   57.8370   33.4460   45.9280 C   0  0  0  0  0  0  0  0  0  0  0  0
   58.7880   34.5900   46.0040 N   0  0  0  0  0  0  0  0  0  0  0  0
   60.0080   34.3440   45.2120 C   0  0  0  0  0  0  0  0  0  0  0  0
   59.1060   35.0250   47.3850 C   0  0  0  0  0  0  0  0  0  0  0  0
   59.6640   33.8700   48.2300 C   0  0  0  0  0  0  0  0  0  0  0  0
   57.9690   31.8610   50.7380 C   0  0  0  0  0  0  0  0  0  0  0  0
   56.8090   31.1340   51.4260 C   0  0  0  0  0  0  0  0  0  0  0  0
   54.6910   30.2100   54.6140 N   0  0  0  0  0  0  0  0  0  0  0  0
   55.5410   30.5020   55.7740 C   0  0  0  0  0  0  0  0  0  0  0  0
  1  2  2  0
  2  3  1  0
  3  4  2  3
  4  5  1  0
  5  6  1  0
  6  7  1  0
  7  8  2  0
  7  9  1  0
  9 10  1  0
 10 11  1  0
  3 12  1  0
 12 13  2  0
 13 14  1  0
 14 15  2  0
 14 16  1  0
 16 17  1  0
 17 18  1  0
 18 19  1  0
 19 20  1  0
 20 21  2  0
 20 22  1  0
 22 23  1  0
 23 24  1  0
 24 25  1  0
 25 26  1  0
 25 27  1  0
 27 28  1  0
 19 29  1  0
 29 30  1  0
 13 31  1  0
 31 32  1  0
 31  2  1  0
 10  5  2  0
 30 16  1  0
 28 22  1  0
M  CHG  3   6  -1   9  -1  11  -1
M  END
>  <UniqueID>  (3244) 
41

>  <SMILES>  (3244) 
C=c1c(=Cc2[n-]c(=O)[n-]c2[O-])cc(C(=O)N2CCN(C(=O)N3CCN(C)CC3)CC2)n1C

>  <Energy>  (3244) 
148.22123542936308

>  <Genealogy>  (3244) 
C=c1c(=Cc2[n-]c(=O)[n-]c2[O-])cc(C(=O)N2CCN(C(=O)N3CCN(C)CC3)CC2)n1C (protonated)
C=c1c(=Cc2[n-]c(=O)[n-]c2[O-])cc(C(=O)N2CCN(C(=O)N3CCN(C)CC3)CC2)n1C (3D coordinates assigned)
C=c1c(=Cc2[n-]c(=O)[n-]c2[O-])cc(C(=O)N2CCN(C(=O)N3CCN(C)CC3)CC2)n1C (nonaromatic ring conformer: 148.22123542936308 kcal/mol)

>  <smiles>  (3244) 
C=c1c(=Cc2[nH]c(=O)[nH]c2O)cc(C(=O)N2CCN(C(=O)N3CCN(C)CC3)CC2)n1C

>  <score_type>  (3244) 
oracle

>  <origin>  (3244) 
adg

>  <m_score__min__energy>  (3244) 
-17.440000000000001

>  <m_primary>  (3244) 
energy

$$$$
42:0
     RDKit          3D

 25 27  0  0  0  0  0  0  0  0999 V2000
   54.3340   28.3020   53.4300 C   0  0  0  0  0  0  0  0  0  0  0  0
   54.6770   29.4550   52.8320 C   0  0  0  0  0  0  0  0  0  0  0  0
   53.8040   30.4550   52.3710 C   0  0  0  0  0  0  0  0  0  0  0  0
   52.4630   30.4690   52.2310 C   0  0  0  0  0  0  0  0  0  0  0  0
   51.7300   30.8190   51.0050 C   0  0  0  0  0  0  0  0  0  0  0  0
   51.7020   30.0680   49.8880 N   0  0  0  0  0  0  0  0  0  0  0  0
   51.0500   30.8520   49.0010 C   0  0  0  0  0  0  0  0  0  0  0  0
   50.8100   30.4860   47.8210 O   0  0  0  0  0  0  0  0  0  0  0  0
   50.6890   32.0630   49.4750 N   0  0  0  0  0  0  0  0  0  0  0  0
   51.1410   32.0310   50.7390 C   0  0  0  0  0  0  0  0  0  0  0  0
   51.0210   33.0900   51.6320 O   0  0  0  0  0  0  0  0  0  0  0  0
   54.6010   31.5240   52.0050 C   0  0  0  0  0  0  0  0  0  0  0  0
   55.9100   31.1320   52.1870 C   0  0  0  0  0  0  0  0  0  0  0  0
   57.0740   31.9740   51.8460 C   0  0  0  0  0  0  0  0  0  0  0  0
   57.2340   33.0670   52.4510 O   0  0  0  0  0  0  0  0  0  0  0  0
   57.9990   31.5890   50.8080 N   0  0  0  0  0  0  0  0  0  0  0  0
   58.7320   32.6410   50.0910 C   0  0  0  0  0  0  0  0  0  0  0  0
   59.7120   32.0420   49.0870 C   0  0  0  0  0  0  0  0  0  0  0  0
   60.4360   30.9430   49.7430 N   0  0  0  0  0  0  0  0  0  0  0  0
   61.5980   30.5330   48.9390 C   0  0  0  0  0  0  0  0  0  0  0  0
   59.5470   29.7860   49.9990 C   0  0  0  0  0  0  0  0  0  0  0  0
   58.1000   30.1860   50.3710 C   0  0  0  0  0  0  0  0  0  0  0  0
   55.9640   29.8790   52.6990 N   0  0  0  0  0  0  0  0  0  0  0  0
   57.1880   29.0930   52.9310 C   0  0  0  0  0  0  0  0  0  0  0  0
   57.8890   29.5690   54.1980 C   0  0  0  0  0  0  0  0  0  0  0  0
  1  2  2  0
  2  3  1  0
  3  4  2  3
  4  5  1  0
  5  6  1  0
  6  7  1  0
  7  8  2  0
  7  9  1  0
  9 10  1  0
 10 11  1  0
  3 12  1  0
 12 13  2  0
 13 14  1  0
 14 15  2  0
 14 16  1  0
 16 17  1  0
 17 18  1  0
 18 19  1  0
 19 20  1  0
 19 21  1  0
 21 22  1  0
 13 23  1  0
 23 24  1  0
 24 25  1  0
 23  2  1  0
 10  5  2  0
 22 16  1  0
M  CHG  3   6  -1   9  -1  11  -1
M  END
>  <UniqueID>  (3245) 
43

>  <SMILES>  (3245) 
C=c1c(=Cc2[n-]c(=O)[n-]c2[O-])cc(C(=O)N2CCN(C)CC2)n1CC

>  <Energy>  (3245) 
123.0902347470234

>  <Genealogy>  (3245) 
C=c1c(=Cc2[n-]c(=O)[n-]c2[O-])cc(C(=O)N2CCN(C)CC2)n1CC (protonated)
C=c1c(=Cc2[n-]c(=O)[n-]c2[O-])cc(C(=O)N2CCN(C)CC2)n1CC (3D coordinates assigned)
C=c1c(=Cc2[n-]c(=O)[n-]c2[O-])cc(C(=O)N2CCN(C)CC2)n1CC (nonaromatic ring conformer: 123.0902347470234 kcal/mol)

>  <smiles>  (3245) 
C=c1c(=Cc2[nH]c(=O)[nH]c2O)cc(C(=O)N2CCN(C)CC2)n1CC

>  <score_type>  (3245) 
oracle

>  <origin>  (3245) 
adg

>  <m_score__min__energy>  (3245) 
-15.83

>  <m_primary>  (3245) 
energy

$$$$
68:0
     RDKit          3D

 25 27  0  0  0  0  0  0  0  0999 V2000
   57.9330   32.7620   43.4460 C   0  0  0  0  0  0  0  0  0  0  0  0
   58.0420   31.6470   44.1880 C   0  0  0  0  0  0  0  0  0  0  0  0
   58.1100   30.4410   43.5460 N   0  0  0  0  0  0  0  0  0  0  0  0
   58.2360   29.2660   44.2140 C   0  0  0  0  0  0  0  0  0  0  0  0
   58.3160   29.2400   45.6130 C   0  0  0  0  0  0  0  0  0  0  0  0
   58.4530   28.0550   46.2460 C   0  0  0  0  0  0  0  0  0  0  0  0
   57.4030   27.0240   46.3490 C   0  0  0  0  0  0  0  0  0  0  0  0
   57.5590   25.8730   47.0260 N   0  0  0  0  0  0  0  0  0  0  0  0
   56.3440   25.2900   46.9380 C   0  0  0  0  0  0  0  0  0  0  0  0
   56.0920   24.1680   47.4490 O   0  0  0  0  0  0  0  0  0  0  0  0
   55.4170   26.0100   46.2710 N   0  0  0  0  0  0  0  0  0  0  0  0
   56.0990   27.1100   45.9150 C   0  0  0  0  0  0  0  0  0  0  0  0
   55.5280   28.1860   45.2470 O   0  0  0  0  0  0  0  0  0  0  0  0
   58.2120   30.4610   46.3000 C   0  0  0  0  0  0  0  0  0  0  0  0
   58.0820   31.6780   45.6100 C   0  0  0  0  0  0  0  0  0  0  0  0
   58.0150   32.9560   46.4250 C   0  0  0  0  0  0  0  0  0  0  0  0
   58.8820   32.8660   47.6570 C   0  0  0  0  0  0  0  0  0  0  0  0
   58.3320   32.9100   48.7910 O   0  0  0  0  0  0  0  0  0  0  0  0
   60.3090   32.6690   47.5740 N   0  0  0  0  0  0  0  0  0  0  0  0
   60.9630   31.7200   48.4890 C   0  0  0  0  0  0  0  0  0  0  0  0
   62.2420   32.3270   49.0710 C   0  0  0  0  0  0  0  0  0  0  0  0
   63.0680   32.9280   47.9710 C   0  0  0  0  0  0  0  0  0  0  0  0
   64.2730   32.7380   47.9250 O   0  0  0  0  0  0  0  0  0  0  0  0
   62.4030   33.8410   46.9810 C   0  0  0  0  0  0  0  0  0  0  0  0
   61.1050   33.2120   46.4620 C   0  0  0  0  0  0  0  0  0  0  0  0
  1  2  2  0
  2  3  1  0
  3  4  2  0
  4  5  1  0
  5  6  2  3
  6  7  1  0
  7  8  1  0
  8  9  1  0
  9 10  2  0
  9 11  1  0
 11 12  1  0
 12 13  1  0
  5 14  1  0
 14 15  2  0
 15 16  1  0
 16 17  1  0
 17 18  2  0
 17 19  1  0
 19 20  1  0
 20 21  1  0
 21 22  1  0
 22 23  2  0
 22 24  1  0
 24 25  1  0
 15  2  1  0
 25 19  1  0
 12  7  2  0
M  CHG  4   3   1   8  -1  11  -1  13  -1
M  END
>  <UniqueID>  (3246) 
67

>  <SMILES>  (3246) 
C=c1[nH+]cc(=Cc2[n-]c(=O)[n-]c2[O-])cc1CC(=O)N1CCC(=O)CC1

>  <Energy>  (3246) 
84.71070012684083

>  <Genealogy>  (3246) 
C=c1[nH+]cc(=Cc2[n-]c(=O)[n-]c2[O-])cc1CC(=O)N1CCC(=O)CC1 (protonated)
C=c1[nH+]cc(=Cc2[n-]c(=O)[n-]c2[O-])cc1CC(=O)N1CCC(=O)CC1 (3D coordinates assigned)
C=c1[nH+]cc(=Cc2[n-]c(=O)[n-]c2[O-])cc1CC(=O)N1CCC(=O)CC1 (nonaromatic ring conformer: 84.71070012684083 kcal/mol)

>  <smiles>  (3246) 
C=c1ncc(=Cc2[nH]c(=O)[nH]c2O)cc1CC(=O)N1CCC(=O)CC1

>  <score_type>  (3246) 
oracle

>  <origin>  (3246) 
adg

>  <m_score__min__energy>  (3246) 
-16.039999999999999

>  <m_primary>  (3246) 
energy

$$$$
5:0
     RDKit          3D

 32 35  0  0  0  0  0  0  0  0999 V2000
   56.9490   30.4520   42.9000 C   0  0  0  0  0  0  0  0  0  0  0  0
   57.3200   30.8270   44.1290 C   0  0  0  0  0  0  0  0  0  0  0  0
   57.1230   32.4080   44.6620 S   0  0  0  0  0  0  0  0  0  0  0  0
   57.9420   32.2460   46.1080 C   0  0  0  0  0  0  0  0  0  0  0  0
   58.3800   30.9310   46.2210 C   0  0  0  0  0  0  0  0  0  0  0  0
   59.0930   30.4740   47.4320 C   0  0  0  0  0  0  0  0  0  0  0  0
   58.5630   29.4390   48.2190 C   0  0  0  0  0  0  0  0  0  0  0  0
   59.2670   28.9710   49.3310 C   0  0  0  0  0  0  0  0  0  0  0  0
   60.5140   29.5190   49.6580 C   0  0  0  0  0  0  0  0  0  0  0  0
   61.4430   28.8750   51.0120 S   0  0  0  0  0  0  0  0  0  0  0  0
   62.8620   29.3600   50.8980 O   0  0  0  0  0  0  0  0  0  0  0  0
   61.4680   27.3760   50.8920 O   0  0  0  0  0  0  0  0  0  0  0  0
   60.8020   29.2980   52.5920 N   0  0  0  0  0  0  0  0  0  0  0  0
   59.5400   28.5930   52.9140 C   0  0  0  0  0  0  0  0  0  0  0  0
   58.2810   29.3230   52.4180 C   0  0  0  0  0  0  0  0  0  0  0  0
   58.2840   30.7230   52.8670 N   0  0  0  0  0  0  0  0  0  0  0  0
   57.0540   31.3960   52.4180 C   0  0  0  0  0  0  0  0  0  0  0  0
   59.4600   31.4100   52.3140 C   0  0  0  0  0  0  0  0  0  0  0  0
   60.7450   30.7580   52.8340 C   0  0  0  0  0  0  0  0  0  0  0  0
   61.0130   30.5960   48.9110 C   0  0  0  0  0  0  0  0  0  0  0  0
   60.3060   31.0710   47.8030 C   0  0  0  0  0  0  0  0  0  0  0  0
   58.0260   30.1000   45.1200 C   0  0  0  0  0  0  0  0  0  0  0  0
   58.3800   28.7920   45.0780 C   0  0  0  0  0  0  0  0  0  0  0  0
   57.6390   27.6680   45.6830 C   0  0  0  0  0  0  0  0  0  0  0  0
   56.2390   27.6280   45.6180 C   0  0  0  0  0  0  0  0  0  0  0  0
   55.5280   28.6720   45.0380 O   0  0  0  0  0  0  0  0  0  0  0  0
   55.5650   26.5670   46.1330 N   0  0  0  0  0  0  0  0  0  0  0  0
   56.2260   25.5230   46.6970 C   0  0  0  0  0  0  0  0  0  0  0  0
   55.5810   24.5540   47.1710 O   0  0  0  0  0  0  0  0  0  0  0  0
   57.5830   25.5230   46.7430 N   0  0  0  0  0  0  0  0  0  0  0  0
   58.3030   26.5600   46.2420 C   0  0  0  0  0  0  0  0  0  0  0  0
   59.5610   26.5130   46.2780 O   0  0  0  0  0  0  0  0  0  0  0  0
  1  2  2  0
  2  3  1  0
  3  4  1  0
  4  5  2  0
  5  6  1  0
  6  7  2  0
  7  8  1  0
  8  9  2  0
  9 10  1  0
 10 11  2  0
 10 12  2  0
 10 13  1  0
 13 14  1  0
 14 15  1  0
 15 16  1  0
 16 17  1  0
 16 18  1  0
 18 19  1  0
  9 20  1  0
 20 21  2  0
  5 22  1  0
 22 23  2  3
 23 24  1  0
 24 25  2  0
 25 26  1  0
 25 27  1  0
 27 28  1  0
 28 29  2  0
 28 30  1  0
 30 31  1  0
 31 32  2  0
 22  2  1  0
 31 24  1  0
 21  6  1  0
 19 13  1  0
M  CHG  4  13   1  26  -1  27  -1  30  -1
M  END
>  <UniqueID>  (3247) 
6

>  <SMILES>  (3247) 
C=c1scc(-c2ccc(S(=O)(=O)[NH+]3CCN(C)CC3)cc2)c1=Cc1c([O-])[n-]c(=O)[n-]c1=O

>  <Energy>  (3247) 
109.20704744392646

>  <Genealogy>  (3247) 
C=c1scc(-c2ccc(S(=O)(=O)[NH+]3CCN(C)CC3)cc2)c1=Cc1c([O-])[n-]c(=O)[n-]c1=O (protonated)
C=c1scc(-c2ccc(S(=O)(=O)[NH+]3CCN(C)CC3)cc2)c1=Cc1c([O-])[n-]c(=O)[n-]c1=O (3D coordinates assigned)
C=c1scc(-c2ccc(S(=O)(=O)[NH+]3CCN(C)CC3)cc2)c1=Cc1c([O-])[n-]c(=O)[n-]c1=O (nonaromatic ring conformer: 109.20704744392646 kcal/mol)

>  <smiles>  (3247) 
C=c1scc(-c2ccc(S(=O)(=O)N3CCN(C)CC3)cc2)c1=Cc1c(O)[nH]c(=O)[nH]c1=O

>  <score_type>  (3247) 
oracle

>  <origin>  (3247) 
adg

>  <m_score__min__energy>  (3247) 
-15.359999999999999

>  <m_primary>  (3247) 
energy

$$$$
9:0
     RDKit          3D

 32 35  0  0  0  0  0  0  0  0999 V2000
   60.1980   27.2690   47.3030 C   0  0  0  0  0  0  0  0  0  0  0  0
   59.5070   28.3620   46.9420 C   0  0  0  0  0  0  0  0  0  0  0  0
   58.3350   28.4040   46.1690 C   0  0  0  0  0  0  0  0  0  0  0  0
   57.7170   27.4490   45.4450 C   0  0  0  0  0  0  0  0  0  0  0  0
   57.1920   26.1800   45.9700 C   0  0  0  0  0  0  0  0  0  0  0  0
   57.9730   25.1760   46.4050 N   0  0  0  0  0  0  0  0  0  0  0  0
   57.0890   24.2850   46.9030 C   0  0  0  0  0  0  0  0  0  0  0  0
   57.4430   23.1830   47.3980 O   0  0  0  0  0  0  0  0  0  0  0  0
   55.7970   24.6720   46.8390 N   0  0  0  0  0  0  0  0  0  0  0  0
   55.8800   25.8800   46.2590 C   0  0  0  0  0  0  0  0  0  0  0  0
   54.7840   26.7010   46.0250 O   0  0  0  0  0  0  0  0  0  0  0  0
   57.8550   29.6970   46.2640 C   0  0  0  0  0  0  0  0  0  0  0  0
   58.7640   30.4100   47.0210 C   0  0  0  0  0  0  0  0  0  0  0  0
   58.6010   31.8600   47.3940 C   0  0  0  0  0  0  0  0  0  0  0  0
   59.7140   32.7070   46.8210 C   0  0  0  0  0  0  0  0  0  0  0  0
   59.6510   33.0390   45.6050 O   0  0  0  0  0  0  0  0  0  0  0  0
   60.8780   33.0710   47.6020 N   0  0  0  0  0  0  0  0  0  0  0  0
   62.0200   33.7380   46.9560 C   0  0  0  0  0  0  0  0  0  0  0  0
   63.3420   33.1480   47.4600 C   0  0  0  0  0  0  0  0  0  0  0  0
   63.3440   32.9800   48.9200 N   0  0  0  0  0  0  0  0  0  0  0  0
   64.5630   32.5920   49.5780 C   0  0  0  0  0  0  0  0  0  0  0  0
   65.6570   33.0870   49.1920 O   0  0  0  0  0  0  0  0  0  0  0  0
   64.5640   31.6090   50.6850 C   0  0  0  0  0  0  0  0  0  0  0  0
   63.4850   30.7190   50.8440 C   0  0  0  0  0  0  0  0  0  0  0  0
   63.4780   29.7980   51.8960 C   0  0  0  0  0  0  0  0  0  0  0  0
   64.5390   29.7620   52.8030 C   0  0  0  0  0  0  0  0  0  0  0  0
   65.6080   30.6510   52.6630 C   0  0  0  0  0  0  0  0  0  0  0  0
   65.6200   31.5740   51.6130 C   0  0  0  0  0  0  0  0  0  0  0  0
   62.1780   33.4040   49.7040 C   0  0  0  0  0  0  0  0  0  0  0  0
   60.8910   32.8720   49.0630 C   0  0  0  0  0  0  0  0  0  0  0  0
   59.7780   29.6060   47.4180 N   0  0  0  0  0  0  0  0  0  0  0  0
   60.8770   29.9770   48.3180 C   0  0  0  0  0  0  0  0  0  0  0  0
  1  2  2  0
  2  3  1  0
  3  4  2  3
  4  5  1  0
  5  6  1  0
  6  7  1  0
  7  8  2  0
  7  9  1  0
  9 10  1  0
 10 11  1  0
  3 12  1  0
 12 13  2  0
 13 14  1  0
 14 15  1  0
 15 16  2  0
 15 17  1  0
 17 18  1  0
 18 19  1  0
 19 20  1  0
 20 21  1  0
 21 22  2  0
 21 23  1  0
 23 24  2  0
 24 25  1  0
 25 26  2  0
 26 27  1  0
 27 28  2  0
 20 29  1  0
 29 30  1  0
 13 31  1  0
 31 32  1  0
 31  2  1  0
 10  5  2  0
 30 17  1  0
 28 23  1  0
M  CHG  3   6  -1   9  -1  11  -1
M  END
>  <UniqueID>  (3248) 
10

>  <SMILES>  (3248) 
C=c1c(=Cc2[n-]c(=O)[n-]c2[O-])cc(CC(=O)N2CCN(C(=O)c3ccccc3)CC2)n1C

>  <Energy>  (3248) 
132.6023027661125

>  <Genealogy>  (3248) 
C=c1c(=Cc2[n-]c(=O)[n-]c2[O-])cc(CC(=O)N2CCN(C(=O)c3ccccc3)CC2)n1C (protonated)
C=c1c(=Cc2[n-]c(=O)[n-]c2[O-])cc(CC(=O)N2CCN(C(=O)c3ccccc3)CC2)n1C (3D coordinates assigned)
C=c1c(=Cc2[n-]c(=O)[n-]c2[O-])cc(CC(=O)N2CCN(C(=O)c3ccccc3)CC2)n1C (nonaromatic ring conformer: 132.6023027661125 kcal/mol)

>  <smiles>  (3248) 
C=c1c(=Cc2[nH]c(=O)[nH]c2O)cc(CC(=O)N2CCN(C(=O)c3ccccc3)CC2)n1C

>  <score_type>  (3248) 
oracle

>  <origin>  (3248) 
adg

>  <m_score__min__energy>  (3248) 
-18.48

>  <m_primary>  (3248) 
energy

$$$$
17:0
     RDKit          3D

 34 38  0  0  0  0  0  0  0  0999 V2000
   59.5560   28.9560   46.9750 C   0  0  0  0  0  0  0  0  0  0  0  0
   58.5610   29.1180   46.0870 C   0  0  0  0  0  0  0  0  0  0  0  0
   57.9350   28.1100   45.3500 C   0  0  0  0  0  0  0  0  0  0  0  0
   58.1930   26.7880   45.3940 C   0  0  0  0  0  0  0  0  0  0  0  0
   57.4280   25.8260   46.2050 C   0  0  0  0  0  0  0  0  0  0  0  0
   57.9670   24.7170   46.7390 N   0  0  0  0  0  0  0  0  0  0  0  0
   56.9080   24.0880   47.2930 C   0  0  0  0  0  0  0  0  0  0  0  0
   57.0160   22.9950   47.9100 O   0  0  0  0  0  0  0  0  0  0  0  0
   55.7240   24.7140   47.1230 N   0  0  0  0  0  0  0  0  0  0  0  0
   56.0670   25.8060   46.4210 C   0  0  0  0  0  0  0  0  0  0  0  0
   55.1470   26.7340   45.9470 O   0  0  0  0  0  0  0  0  0  0  0  0
   56.9720   28.7360   44.5710 C   0  0  0  0  0  0  0  0  0  0  0  0
   57.0590   30.0880   44.8450 C   0  0  0  0  0  0  0  0  0  0  0  0
   56.2520   31.1500   44.1620 C   0  0  0  0  0  0  0  0  0  0  0  0
   58.0200   30.3220   45.7650 N   0  0  0  0  0  0  0  0  0  0  0  0
   58.5090   31.6190   46.1490 C   0  0  0  0  0  0  0  0  0  0  0  0
   58.3900   32.7170   45.2880 C   0  0  0  0  0  0  0  0  0  0  0  0
   58.8730   33.9690   45.6810 C   0  0  0  0  0  0  0  0  0  0  0  0
   59.4870   34.1280   46.9290 C   0  0  0  0  0  0  0  0  0  0  0  0
   59.6310   33.0290   47.7920 C   0  0  0  0  0  0  0  0  0  0  0  0
   60.2800   33.1760   49.1160 C   0  0  0  0  0  0  0  0  0  0  0  0
   61.2710   33.9430   49.2510 O   0  0  0  0  0  0  0  0  0  0  0  0
   59.7820   32.4650   50.2590 N   0  0  0  0  0  0  0  0  0  0  0  0
   59.1100   33.1610   51.3470 C   0  0  0  0  0  0  0  0  0  0  0  0
   57.6950   32.6030   51.5060 C   0  0  0  0  0  0  0  0  0  0  0  0
   57.6740   31.1270   51.4720 N   0  0  0  0  0  0  0  0  0  0  0  0
   56.5200   30.4410   51.9960 C   0  0  0  0  0  0  0  0  0  0  0  0
   56.6330   29.2590   52.4200 O   0  0  0  0  0  0  0  0  0  0  0  0
   55.1730   31.1100   52.0420 C   0  0  0  0  0  0  0  0  0  0  0  0
   54.0330   30.2470   51.5170 C   0  0  0  0  0  0  0  0  0  0  0  0
   54.1770   30.4820   53.0090 C   0  0  0  0  0  0  0  0  0  0  0  0
   58.5360   30.3720   50.5430 C   0  0  0  0  0  0  0  0  0  0  0  0
   59.9150   31.0160   50.3650 C   0  0  0  0  0  0  0  0  0  0  0  0
   59.1280   31.7820   47.3920 C   0  0  0  0  0  0  0  0  0  0  0  0
  1  2  2  0
  2  3  1  0
  3  4  2  0
  4  5  1  0
  5  6  1  0
  6  7  1  0
  7  8  2  0
  7  9  1  0
  9 10  1  0
 10 11  1  0
  3 12  1  0
 12 13  2  0
 13 14  1  0
 13 15  1  0
 15 16  1  0
 16 17  2  0
 17 18  1  0
 18 19  2  0
 19 20  1  0
 20 21  1  0
 21 22  2  0
 21 23  1  0
 23 24  1  0
 24 25  1  0
 25 26  1  0
 26 27  1  0
 27 28  2  0
 27 29  1  0
 29 30  1  0
 30 31  1  0
 26 32  1  0
 32 33  1  0
 20 34  2  0
 15  2  1  0
 34 16  1  0
 10  5  2  0
 33 23  1  0
 31 29  1  0
M  CHG  3   6  -1   9  -1  11  -1
M  END
>  <UniqueID>  (3249) 
18

>  <SMILES>  (3249) 
C=c1/c(=C/c2[n-]c(=O)[n-]c2[O-])cc(C)n1-c1cccc(C(=O)N2CCN(C(=O)C3CC3)CC2)c1

>  <Energy>  (3249) 
400.66553059469015

>  <Genealogy>  (3249) 
C=c1c(=Cc2[n-]c(=O)[n-]c2[O-])cc(C)n1-c1cccc(C(=O)N2CCN(C(=O)C3CC3)CC2)c1 (protonated)
C=c1/c(=C/c2[n-]c(=O)[n-]c2[O-])cc(C)n1-c1cccc(C(=O)N2CCN(C(=O)C3CC3)CC2)c1 (cis-trans isomerization)
C=c1/c(=C/c2[n-]c(=O)[n-]c2[O-])cc(C)n1-c1cccc(C(=O)N2CCN(C(=O)C3CC3)CC2)c1 (3D coordinates assigned)
C=c1/c(=C/c2[n-]c(=O)[n-]c2[O-])cc(C)n1-c1cccc(C(=O)N2CCN(C(=O)C3CC3)CC2)c1 (nonaromatic ring conformer: 400.66553059469015 kcal/mol)

>  <smiles>  (3249) 
C=c1c(=Cc2[nH]c(=O)[nH]c2O)cc(C)n1-c1cccc(C(=O)N2CCN(C(=O)C3CC3)CC2)c1

>  <score_type>  (3249) 
oracle

>  <origin>  (3249) 
adg

>  <m_score__min__energy>  (3249) 
-17.690000000000001

>  <m_primary>  (3249) 
energy

$$$$
27:0
     RDKit          3D

 29 32  0  0  0  0  0  0  0  0999 V2000
   53.6920   28.4120   53.9470 C   0  0  0  0  0  0  0  0  0  0  0  0
   54.4120   29.1820   53.1110 C   0  0  0  0  0  0  0  0  0  0  0  0
   55.7720   28.8550   52.9430 C   0  0  0  0  0  0  0  0  0  0  0  0
   56.6520   29.7410   52.3230 C   0  0  0  0  0  0  0  0  0  0  0  0
   56.1980   30.9850   51.8680 C   0  0  0  0  0  0  0  0  0  0  0  0
   57.0550   31.9380   51.2930 O   0  0  0  0  0  0  0  0  0  0  0  0
   58.4770   31.8240   51.2040 C   0  0  0  0  0  0  0  0  0  0  0  0
   58.8830   31.1950   49.8970 C   0  0  0  0  0  0  0  0  0  0  0  0
   59.6160   29.9980   49.8820 C   0  0  0  0  0  0  0  0  0  0  0  0
   59.9850   29.4150   48.6670 C   0  0  0  0  0  0  0  0  0  0  0  0
   59.6250   30.0200   47.4600 C   0  0  0  0  0  0  0  0  0  0  0  0
   58.8970   31.2210   47.4580 C   0  0  0  0  0  0  0  0  0  0  0  0
   58.4990   31.8660   46.1880 C   0  0  0  0  0  0  0  0  0  0  0  0
   59.2360   32.7620   45.6990 O   0  0  0  0  0  0  0  0  0  0  0  0
   57.3150   31.4850   45.4750 N   0  0  0  0  0  0  0  0  0  0  0  0
   57.3150   30.7090   44.2420 C   0  0  0  0  0  0  0  0  0  0  0  0
   57.0880   29.2230   44.4500 C   0  0  0  0  0  0  0  0  0  0  0  0
   55.9560   30.1020   43.9440 C   0  0  0  0  0  0  0  0  0  0  0  0
   58.5090   31.7900   48.6810 C   0  0  0  0  0  0  0  0  0  0  0  0
   54.8410   31.2960   51.9710 C   0  0  0  0  0  0  0  0  0  0  0  0
   53.9090   30.3820   52.5100 C   0  0  0  0  0  0  0  0  0  0  0  0
   52.5960   30.7070   52.3910 C   0  0  0  0  0  0  0  0  0  0  0  0
   51.8750   30.9560   51.1280 C   0  0  0  0  0  0  0  0  0  0  0  0
   51.8920   30.1400   50.0560 N   0  0  0  0  0  0  0  0  0  0  0  0
   51.2020   30.8330   49.1250 C   0  0  0  0  0  0  0  0  0  0  0  0
   50.9860   30.3870   47.9690 O   0  0  0  0  0  0  0  0  0  0  0  0
   50.7670   32.0470   49.5280 N   0  0  0  0  0  0  0  0  0  0  0  0
   51.2130   32.1120   50.7930 C   0  0  0  0  0  0  0  0  0  0  0  0
   51.0210   33.2090   51.6240 O   0  0  0  0  0  0  0  0  0  0  0  0
  1  2  2  0
  2  3  1  0
  3  4  2  0
  4  5  1  0
  5  6  1  0
  6  7  1  0
  7  8  1  0
  8  9  2  0
  9 10  1  0
 10 11  2  0
 11 12  1  0
 12 13  1  0
 13 14  2  0
 13 15  1  0
 15 16  1  0
 16 17  1  0
 17 18  1  0
 12 19  2  0
  5 20  2  0
 20 21  1  0
 21 22  2  0
 22 23  1  0
 23 24  1  0
 24 25  1  0
 25 26  2  0
 25 27  1  0
 27 28  1  0
 28 29  1  0
 21  2  1  0
 28 23  2  0
 19  8  1  0
 18 16  1  0
M  CHG  4  15  -1  24  -1  27  -1  29  -1
M  END
>  <UniqueID>  (3250) 
26

>  <SMILES>  (3250) 
C=c1ccc(OCc2cccc(C(=O)[N-]C3CC3)c2)c/c1=C/c1[n-]c(=O)[n-]c1[O-]

>  <Energy>  (3250) 
366.4387590054927

>  <Genealogy>  (3250) 
C=c1ccc(OCc2cccc(C(=O)[N-]C3CC3)c2)cc1=Cc1[n-]c(=O)[n-]c1[O-] (protonated)
C=c1ccc(OCc2cccc(C(=O)[N-]C3CC3)c2)c/c1=C/c1[n-]c(=O)[n-]c1[O-] (cis-trans isomerization)
C=c1ccc(OCc2cccc(C(=O)[N-]C3CC3)c2)c/c1=C/c1[n-]c(=O)[n-]c1[O-] (3D coordinates assigned)
C=c1ccc(OCc2cccc(C(=O)[N-]C3CC3)c2)c/c1=C/c1[n-]c(=O)[n-]c1[O-] (nonaromatic ring conformer: 366.4387590054927 kcal/mol)

>  <smiles>  (3250) 
C=c1ccc(OCc2cccc(C(=O)NC3CC3)c2)cc1=Cc1[nH]c(=O)[nH]c1O

>  <score_type>  (3250) 
oracle

>  <origin>  (3250) 
adg

>  <m_score__min__energy>  (3250) 
-18.949999999999999

>  <m_primary>  (3250) 
energy

$$$$
33:0
     RDKit          3D

 30 34  0  0  0  0  0  0  0  0999 V2000
   53.8560   30.2970   55.5070 C   0  0  0  0  0  0  0  0  0  0  0  0
   54.4780   30.4030   54.3290 C   0  0  0  0  0  0  0  0  0  0  0  0
   56.1050   30.0300   54.1100 S   0  0  0  0  0  0  0  0  0  0  0  0
   56.1480   30.3490   52.4630 C   0  0  0  0  0  0  0  0  0  0  0  0
   57.3590   30.2710   51.6260 C   0  0  0  0  0  0  0  0  0  0  0  0
   57.7780   29.1440   51.2460 O   0  0  0  0  0  0  0  0  0  0  0  0
   58.1160   31.4510   51.3000 N   0  0  0  0  0  0  0  0  0  0  0  0
   57.7900   32.1710   50.0620 C   0  0  0  0  0  0  0  0  0  0  0  0
   59.0690   32.5820   49.3370 C   0  0  0  0  0  0  0  0  0  0  0  0
   60.0300   33.1250   50.2900 N   0  0  0  0  0  0  0  0  0  0  0  0
   60.0430   32.9020   51.6180 C   0  0  0  0  0  0  0  0  0  0  0  0
   61.1490   33.4280   52.1970 N   0  0  0  0  0  0  0  0  0  0  0  0
   61.8510   33.9840   51.2160 N   0  0  0  0  0  0  0  0  0  0  0  0
   61.1810   33.7840   50.0630 C   0  0  0  0  0  0  0  0  0  0  0  0
   61.6410   34.2910   48.7270 C   0  0  0  0  0  0  0  0  0  0  0  0
   61.8160   33.2040   47.6750 C   0  0  0  0  0  0  0  0  0  0  0  0
   63.0390   33.8500   48.3060 C   0  0  0  0  0  0  0  0  0  0  0  0
   58.9730   32.1020   52.3220 C   0  0  0  0  0  0  0  0  0  0  0  0
   58.1210   33.0390   53.1920 C   0  0  0  0  0  0  0  0  0  0  0  0
   59.6560   31.0470   53.2180 C   0  0  0  0  0  0  0  0  0  0  0  0
   54.8860   30.7510   52.0500 C   0  0  0  0  0  0  0  0  0  0  0  0
   53.9300   30.7720   53.0880 C   0  0  0  0  0  0  0  0  0  0  0  0
   52.6520   31.1690   52.9060 C   0  0  0  0  0  0  0  0  0  0  0  0
   51.9730   31.2130   51.5960 C   0  0  0  0  0  0  0  0  0  0  0  0
   52.0920   30.2460   50.6610 N   0  0  0  0  0  0  0  0  0  0  0  0
   51.4270   30.7510   49.5970 C   0  0  0  0  0  0  0  0  0  0  0  0
   51.3120   30.1240   48.5040 O   0  0  0  0  0  0  0  0  0  0  0  0
   50.9170   31.9900   49.7830 N   0  0  0  0  0  0  0  0  0  0  0  0
   51.2780   32.2710   51.0500 C   0  0  0  0  0  0  0  0  0  0  0  0
   51.0210   33.4890   51.6690 O   0  0  0  0  0  0  0  0  0  0  0  0
  1  2  2  0
  2  3  1  0
  3  4  1  0
  4  5  1  0
  5  6  2  0
  5  7  1  0
  7  8  1  0
  8  9  1  0
  9 10  1  0
 10 11  1  0
 11 12  2  0
 12 13  1  0
 13 14  2  0
 14 15  1  0
 15 16  1  0
 16 17  1  0
 11 18  1  0
 18 19  1  0
 18 20  1  0
  4 21  2  0
 21 22  1  0
 22 23  2  0
 23 24  1  0
 24 25  1  0
 25 26  1  0
 26 27  2  0
 26 28  1  0
 28 29  1  0
 29 30  1  0
 22  2  1  0
 29 24  2  0
 18  7  1  0
 14 10  1  0
 17 15  1  0
M  CHG  4  13   1  25  -1  28  -1  30  -1
M  END
>  <UniqueID>  (3251) 
32

>  <SMILES>  (3251) 
C=c1sc(C(=O)N2CCn3c(n[nH+]c3C3CC3)C2(C)C)c/c1=C\c1[n-]c(=O)[n-]c1[O-]

>  <Energy>  (3251) 
424.2802059057234

>  <Genealogy>  (3251) 
C=c1sc(C(=O)N2CCn3c(n[nH+]c3C3CC3)C2(C)C)cc1=Cc1[n-]c(=O)[n-]c1[O-] (protonated)
C=c1sc(C(=O)N2CCn3c(n[nH+]c3C3CC3)C2(C)C)c/c1=C\c1[n-]c(=O)[n-]c1[O-] (cis-trans isomerization)
C=c1sc(C(=O)N2CCn3c(n[nH+]c3C3CC3)C2(C)C)c/c1=C\c1[n-]c(=O)[n-]c1[O-] (3D coordinates assigned)
C=c1sc(C(=O)N2CCn3c(n[nH+]c3C3CC3)C2(C)C)c/c1=C\c1[n-]c(=O)[n-]c1[O-] (nonaromatic ring conformer: 424.2802059057234 kcal/mol)

>  <smiles>  (3251) 
C=c1sc(C(=O)N2CCn3c(C4CC4)nnc3C2(C)C)cc1=Cc1[nH]c(=O)[nH]c1O

>  <score_type>  (3251) 
oracle

>  <origin>  (3251) 
adg

>  <m_score__min__energy>  (3251) 
-16.039999999999999

>  <m_primary>  (3251) 
energy

$$$$
34:0
     RDKit          3D

 27 29  0  0  0  0  0  0  0  0999 V2000
   55.2540   29.3450   44.9010 O   0  0  0  0  0  0  0  0  0  0  0  0
   56.4120   28.8530   44.9880 C   0  0  0  0  0  0  0  0  0  0  0  0
   57.5090   29.3530   44.0810 C   0  0  0  0  0  0  0  0  0  0  0  0
   57.8860   30.7800   44.3880 C   0  0  0  0  0  0  0  0  0  0  0  0
   57.8050   31.7630   43.3910 C   0  0  0  0  0  0  0  0  0  0  0  0
   58.1330   33.0880   43.6820 C   0  0  0  0  0  0  0  0  0  0  0  0
   58.5260   33.4480   44.9730 C   0  0  0  0  0  0  0  0  0  0  0  0
   58.5790   32.4820   45.9920 C   0  0  0  0  0  0  0  0  0  0  0  0
   58.9890   32.8700   47.3610 C   0  0  0  0  0  0  0  0  0  0  0  0
   58.1050   32.9760   48.2560 O   0  0  0  0  0  0  0  0  0  0  0  0
   60.3650   33.1370   47.6960 N   0  0  0  0  0  0  0  0  0  0  0  0
   60.6720   34.1810   48.6780 C   0  0  0  0  0  0  0  0  0  0  0  0
   62.1780   34.2420   48.9530 C   0  0  0  0  0  0  0  0  0  0  0  0
   62.7030   32.8970   49.2190 N   0  0  0  0  0  0  0  0  0  0  0  0
   62.5110   31.9550   48.0940 C   0  0  0  0  0  0  0  0  0  0  0  0
   61.4630   32.4000   47.0550 C   0  0  0  0  0  0  0  0  0  0  0  0
   58.2710   31.1460   45.6880 C   0  0  0  0  0  0  0  0  0  0  0  0
   56.6630   27.8760   46.0070 N   0  0  0  0  0  0  0  0  0  0  0  0
   57.1920   26.5340   45.7820 C   0  0  0  0  0  0  0  0  0  0  0  0
   56.0830   25.5770   45.4540 C   0  0  0  0  0  0  0  0  0  0  0  0
   56.3300   24.4170   44.7050 C   0  0  0  0  0  0  0  0  0  0  0  0
   55.2730   23.5440   44.4240 C   0  0  0  0  0  0  0  0  0  0  0  0
   55.4840   22.4950   43.7580 O   0  0  0  0  0  0  0  0  0  0  0  0
   53.9870   23.8420   44.8860 C   0  0  0  0  0  0  0  0  0  0  0  0
   52.9220   22.9880   44.6190 O   0  0  0  0  0  0  0  0  0  0  0  0
   53.7780   25.0100   45.6220 C   0  0  0  0  0  0  0  0  0  0  0  0
   54.8200   25.8440   45.8860 N   0  0  0  0  0  0  0  0  0  0  0  0
  1  2  2  0
  2  3  1  0
  3  4  1  0
  4  5  2  0
  5  6  1  0
  6  7  2  0
  7  8  1  0
  8  9  1  0
  9 10  2  0
  9 11  1  0
 11 12  1  0
 12 13  1  0
 13 14  1  0
 14 15  1  0
 15 16  1  0
  8 17  2  0
  2 18  1  0
 18 19  1  0
 19 20  1  0
 20 21  2  0
 21 22  1  0
 22 23  2  0
 22 24  1  0
 24 25  1  0
 24 26  2  0
 26 27  1  0
 17  4  1  0
 27 20  1  0
 16 11  1  0
M  CHG  3  18  -1  25  -1  27  -1
M  END
>  <UniqueID>  (3252) 
33

>  <SMILES>  (3252) 
O=C(Cc1cccc(C(=O)N2CCNCC2)c1)[N-]Cc1cc(=O)c([O-])c[n-]1

>  <Energy>  (3252) 
54.68177321300454

>  <Genealogy>  (3252) 
O=C(Cc1cccc(C(=O)N2CCNCC2)c1)[N-]Cc1cc(=O)c([O-])c[n-]1 (protonated)
O=C(Cc1cccc(C(=O)N2CCNCC2)c1)[N-]Cc1cc(=O)c([O-])c[n-]1 (3D coordinates assigned)
O=C(Cc1cccc(C(=O)N2CCNCC2)c1)[N-]Cc1cc(=O)c([O-])c[n-]1 (nonaromatic ring conformer: 54.68177321300454 kcal/mol)

>  <smiles>  (3252) 
O=C(Cc1cccc(C(=O)N2CCNCC2)c1)NCc1cc(=O)c(O)c[nH]1

>  <score_type>  (3252) 
oracle

>  <origin>  (3252) 
adg

>  <m_score__min__energy>  (3252) 
-15.279999999999999

>  <m_primary>  (3252) 
energy

$$$$
43:0
     RDKit          3D

 29 32  0  0  0  0  0  0  0  0999 V2000
   53.6180   28.4570   53.1450 C   0  0  0  0  0  0  0  0  0  0  0  0
   54.5580   29.3290   52.7750 C   0  0  0  0  0  0  0  0  0  0  0  0
   55.8310   29.0040   52.7600 O   0  0  0  0  0  0  0  0  0  0  0  0
   56.5200   29.9990   52.2520 C   0  0  0  0  0  0  0  0  0  0  0  0
   57.9790   29.9670   52.0650 C   0  0  0  0  0  0  0  0  0  0  0  0
   58.6270   28.9640   52.4690 O   0  0  0  0  0  0  0  0  0  0  0  0
   58.6680   31.0480   51.4200 N   0  0  0  0  0  0  0  0  0  0  0  0
   59.6770   30.7310   50.4010 C   0  0  0  0  0  0  0  0  0  0  0  0
   59.8470   31.8740   49.3760 C   0  0  0  0  0  0  0  0  0  0  0  0
   59.1480   33.1100   49.7850 N   0  0  0  0  0  0  0  0  0  0  0  0
   59.4180   34.2550   48.8870 C   0  0  0  0  0  0  0  0  0  0  0  0
   58.9020   34.0690   47.4760 C   0  0  0  0  0  0  0  0  0  0  0  0
   57.8080   33.2220   47.2250 C   0  0  0  0  0  0  0  0  0  0  0  0
   57.3350   33.0450   45.9210 C   0  0  0  0  0  0  0  0  0  0  0  0
   57.9430   33.7160   44.8580 C   0  0  0  0  0  0  0  0  0  0  0  0
   59.0210   34.5710   45.0980 C   0  0  0  0  0  0  0  0  0  0  0  0
   59.4960   34.7530   46.4000 C   0  0  0  0  0  0  0  0  0  0  0  0
   59.3780   33.4100   51.2050 C   0  0  0  0  0  0  0  0  0  0  0  0
   58.6410   32.3740   52.0530 C   0  0  0  0  0  0  0  0  0  0  0  0
   55.6740   31.0340   51.9050 C   0  0  0  0  0  0  0  0  0  0  0  0
   54.4040   30.6300   52.2780 C   0  0  0  0  0  0  0  0  0  0  0  0
   53.3150   31.4120   52.1510 C   0  0  0  0  0  0  0  0  0  0  0  0
   52.4080   31.4310   50.9930 C   0  0  0  0  0  0  0  0  0  0  0  0
   52.3730   30.4870   50.0340 N   0  0  0  0  0  0  0  0  0  0  0  0
   51.3070   30.8450   49.2850 C   0  0  0  0  0  0  0  0  0  0  0  0
   50.9500   30.2020   48.2650 O   0  0  0  0  0  0  0  0  0  0  0  0
   50.6460   31.9370   49.7260 N   0  0  0  0  0  0  0  0  0  0  0  0
   51.3480   32.2850   50.8150 C   0  0  0  0  0  0  0  0  0  0  0  0
   51.0250   33.3600   51.6330 O   0  0  0  0  0  0  0  0  0  0  0  0
  1  2  2  0
  2  3  1  0
  3  4  1  0
  4  5  1  0
  5  6  2  0
  5  7  1  0
  7  8  1  0
  8  9  1  0
  9 10  1  0
 10 11  1  0
 11 12  1  0
 12 13  2  0
 13 14  1  0
 14 15  2  0
 15 16  1  0
 16 17  2  0
 10 18  1  0
 18 19  1  0
  4 20  2  0
 20 21  1  0
 21 22  2  0
 22 23  1  0
 23 24  1  0
 24 25  1  0
 25 26  2  0
 25 27  1  0
 27 28  1  0
 28 29  1  0
 21  2  1  0
 28 23  2  0
 19  7  1  0
 17 12  1  0
M  CHG  3  24  -1  27  -1  29  -1
M  END
>  <UniqueID>  (3253) 
41

>  <SMILES>  (3253) 
C=c1oc(C(=O)N2CCN(Cc3ccccc3)CC2)c/c1=C/c1[n-]c(=O)[n-]c1[O-]

>  <Energy>  (3253) 
130.21525324700542

>  <Genealogy>  (3253) 
C=c1oc(C(=O)N2CCN(Cc3ccccc3)CC2)cc1=Cc1[n-]c(=O)[n-]c1[O-] (protonated)
C=c1oc(C(=O)N2CCN(Cc3ccccc3)CC2)c/c1=C/c1[n-]c(=O)[n-]c1[O-] (cis-trans isomerization)
C=c1oc(C(=O)N2CCN(Cc3ccccc3)CC2)c/c1=C/c1[n-]c(=O)[n-]c1[O-] (3D coordinates assigned)
C=c1oc(C(=O)N2CCN(Cc3ccccc3)CC2)c/c1=C/c1[n-]c(=O)[n-]c1[O-] (nonaromatic ring conformer: 130.21525324700542 kcal/mol)

>  <smiles>  (3253) 
C=c1oc(C(=O)N2CCN(Cc3ccccc3)CC2)cc1=Cc1[nH]c(=O)[nH]c1O

>  <score_type>  (3253) 
oracle

>  <origin>  (3253) 
adg

>  <m_score__min__energy>  (3253) 
-18.52

>  <m_primary>  (3253) 
energy

$$$$
49:0
     RDKit          3D

 30 32  0  0  0  0  0  0  0  0999 V2000
   55.1530   29.3760   44.8930 N   0  0  0  0  0  0  0  0  0  0  0  0
   56.6580   29.5040   44.0560 S   0  0  0  0  0  0  0  0  0  0  0  0
   57.5420   28.3470   44.4290 O   0  0  0  0  0  0  0  0  0  0  0  0
   56.4110   29.4640   42.5750 O   0  0  0  0  0  0  0  0  0  0  0  0
   57.4460   31.0180   44.4920 C   0  0  0  0  0  0  0  0  0  0  0  0
   57.6930   31.9910   43.5150 C   0  0  0  0  0  0  0  0  0  0  0  0
   58.3040   33.1970   43.8650 C   0  0  0  0  0  0  0  0  0  0  0  0
   58.6670   33.4410   45.1930 C   0  0  0  0  0  0  0  0  0  0  0  0
   58.4190   32.4780   46.1880 C   0  0  0  0  0  0  0  0  0  0  0  0
   58.8000   32.7370   47.6000 C   0  0  0  0  0  0  0  0  0  0  0  0
   59.3220   33.9860   47.9820 C   0  0  0  0  0  0  0  0  0  0  0  0
   59.6900   34.2220   49.3090 C   0  0  0  0  0  0  0  0  0  0  0  0
   59.5320   33.2230   50.2710 C   0  0  0  0  0  0  0  0  0  0  0  0
   58.9890   31.9770   49.9140 C   0  0  0  0  0  0  0  0  0  0  0  0
   58.8350   30.9130   50.8650 N   0  0  0  0  0  0  0  0  0  0  0  0
   58.0600   30.9500   52.0710 C   0  0  0  0  0  0  0  0  0  0  0  0
   58.5780   30.6040   53.1670 O   0  0  0  0  0  0  0  0  0  0  0  0
   56.6720   31.4520   52.0150 C   0  0  0  0  0  0  0  0  0  0  0  0
   56.4500   32.6440   52.3540 O   0  0  0  0  0  0  0  0  0  0  0  0
   55.5590   30.6510   51.5900 N   0  0  0  0  0  0  0  0  0  0  0  0
   54.7240   29.8120   52.4410 C   0  0  0  0  0  0  0  0  0  0  0  0
   53.4070   30.4960   52.6680 C   0  0  0  0  0  0  0  0  0  0  0  0
   52.7800   30.4280   53.9230 C   0  0  0  0  0  0  0  0  0  0  0  0
   51.5700   31.0930   54.1440 C   0  0  0  0  0  0  0  0  0  0  0  0
   50.9830   31.8390   53.1180 C   0  0  0  0  0  0  0  0  0  0  0  0
   51.6080   31.9250   51.8700 C   0  0  0  0  0  0  0  0  0  0  0  0
   51.0280   32.6730   50.8530 O   0  0  0  0  0  0  0  0  0  0  0  0
   52.8190   31.2600   51.6460 C   0  0  0  0  0  0  0  0  0  0  0  0
   58.6450   31.7360   48.5770 C   0  0  0  0  0  0  0  0  0  0  0  0
   57.8020   31.2660   45.8250 C   0  0  0  0  0  0  0  0  0  0  0  0
  1  2  1  0
  2  3  2  0
  2  4  2  0
  2  5  1  0
  5  6  2  0
  6  7  1  0
  7  8  2  0
  8  9  1  0
  9 10  1  0
 10 11  2  0
 11 12  1  0
 12 13  2  0
 13 14  1  0
 14 15  1  0
 15 16  1  0
 16 17  2  0
 16 18  1  0
 18 19  2  0
 18 20  1  0
 20 21  1  0
 21 22  1  0
 22 23  2  0
 23 24  1  0
 24 25  2  0
 25 26  1  0
 26 27  1  0
 26 28  2  0
 14 29  2  0
  9 30  2  0
 30  5  1  0
 29 10  1  0
 28 22  1  0
M  CHG  4   1  -1  15  -1  20  -1  27  -1
M  END
>  <UniqueID>  (3254) 
47

>  <SMILES>  (3254) 
[NH-]S(=O)(=O)c1cccc(-c2cccc([N-]C(=O)C(=O)[N-]Cc3cccc([O-])c3)c2)c1

>  <Energy>  (3254) 
54.9512450091059

>  <Genealogy>  (3254) 
[NH-]S(=O)(=O)c1cccc(-c2cccc([N-]C(=O)C(=O)[N-]Cc3cccc([O-])c3)c2)c1 (protonated)
[NH-]S(=O)(=O)c1cccc(-c2cccc([N-]C(=O)C(=O)[N-]Cc3cccc([O-])c3)c2)c1 (3D coordinates assigned)
[NH-]S(=O)(=O)c1cccc(-c2cccc([N-]C(=O)C(=O)[N-]Cc3cccc([O-])c3)c2)c1 (optimized conformer: 54.9512450091059 kcal/mol)

>  <smiles>  (3254) 
NS(=O)(=O)c1cccc(-c2cccc(NC(=O)C(=O)NCc3cccc(O)c3)c2)c1

>  <score_type>  (3254) 
oracle

>  <origin>  (3254) 
adg

>  <m_score__min__energy>  (3254) 
-19.350000000000001

>  <m_primary>  (3254) 
energy

$$$$
87:0
     RDKit          3D

 22 24  0  0  0  0  0  0  0  0999 V2000
   56.2580   29.8210   42.5920 C   0  0  0  0  0  0  0  0  0  0  0  0
   56.8200   29.7490   43.8020 C   0  0  0  0  0  0  0  0  0  0  0  0
   56.7730   28.6360   44.5610 N   0  0  0  0  0  0  0  0  0  0  0  0
   57.4640   28.9020   45.6890 C   0  0  0  0  0  0  0  0  0  0  0  0
   57.6230   28.0570   46.7210 C   0  0  0  0  0  0  0  0  0  0  0  0
   57.3040   26.6220   46.6640 C   0  0  0  0  0  0  0  0  0  0  0  0
   58.2190   25.6540   46.8500 N   0  0  0  0  0  0  0  0  0  0  0  0
   57.5180   24.5180   46.6440 C   0  0  0  0  0  0  0  0  0  0  0  0
   58.0360   23.3750   46.7450 O   0  0  0  0  0  0  0  0  0  0  0  0
   56.2220   24.7030   46.3140 N   0  0  0  0  0  0  0  0  0  0  0  0
   56.1040   26.0400   46.3220 C   0  0  0  0  0  0  0  0  0  0  0  0
   54.9350   26.7110   45.9820 O   0  0  0  0  0  0  0  0  0  0  0  0
   57.9490   30.1950   45.6630 C   0  0  0  0  0  0  0  0  0  0  0  0
   57.5450   30.7450   44.4570 C   0  0  0  0  0  0  0  0  0  0  0  0
   57.8320   32.1270   44.0030 C   0  0  0  0  0  0  0  0  0  0  0  0
   58.4770   32.3200   42.9400 O   0  0  0  0  0  0  0  0  0  0  0  0
   57.3790   33.3190   44.7990 C   0  0  0  0  0  0  0  0  0  0  0  0
   58.3860   33.6380   45.8640 C   0  0  0  0  0  0  0  0  0  0  0  0
   58.2570   33.2070   47.1910 C   0  0  0  0  0  0  0  0  0  0  0  0
   59.2750   33.6550   48.0210 C   0  0  0  0  0  0  0  0  0  0  0  0
   60.3220   34.5970   47.1040 S   0  0  0  0  0  0  0  0  0  0  0  0
   59.5020   34.4430   45.6470 C   0  0  0  0  0  0  0  0  0  0  0  0
  1  2  2  0
  2  3  1  0
  3  4  1  0
  4  5  2  3
  5  6  1  0
  6  7  1  0
  7  8  1  0
  8  9  2  0
  8 10  1  0
 10 11  1  0
 11 12  1  0
  4 13  1  0
 13 14  2  0
 14 15  1  0
 15 16  2  0
 15 17  1  0
 17 18  1  0
 18 19  1  0
 19 20  2  0
 20 21  1  0
 21 22  1  0
 14  2  1  0
 22 18  2  0
 11  6  2  0
M  CHG  3   7  -1  10  -1  12  -1
M  END
>  <UniqueID>  (3255) 
81

>  <SMILES>  (3255) 
C=c1[nH]c(=Cc2[n-]c(=O)[n-]c2[O-])cc1C(=O)Cc1ccsc1

>  <Energy>  (3255) 
121.4240995146972

>  <Genealogy>  (3255) 
C=c1[nH]c(=Cc2[n-]c(=O)[n-]c2[O-])cc1C(=O)Cc1ccsc1 (protonated)
C=c1[nH]c(=Cc2[n-]c(=O)[n-]c2[O-])cc1C(=O)Cc1ccsc1 (3D coordinates assigned)
C=c1[nH]c(=Cc2[n-]c(=O)[n-]c2[O-])cc1C(=O)Cc1ccsc1 (optimized conformer: 121.4240995146972 kcal/mol)

>  <smiles>  (3255) 
C=c1[nH]c(=Cc2[nH]c(=O)[nH]c2O)cc1C(=O)Cc1ccsc1

>  <score_type>  (3255) 
oracle

>  <origin>  (3255) 
adg

>  <m_score__min__energy>  (3255) 
-16.170000000000002

>  <m_primary>  (3255) 
energy

$$$$
5:0
     RDKit          3D

 32 35  0  0  0  0  0  0  0  0999 V2000
   60.3100   29.5820   46.8660 O   0  0  0  0  0  0  0  0  0  0  0  0
   59.5980   29.2670   47.8560 C   0  0  0  0  0  0  0  0  0  0  0  0
   58.9080   30.3660   48.6250 C   0  0  0  0  0  0  0  0  0  0  0  0
   58.4890   31.4770   47.7660 N   0  0  0  0  0  0  0  0  0  0  0  0
   59.1570   32.4450   47.1970 C   0  0  0  0  0  0  0  0  0  0  0  0
   60.4480   32.6130   47.5920 N   0  0  0  0  0  0  0  0  0  0  0  0
   61.2140   33.6480   47.1680 C   0  0  0  0  0  0  0  0  0  0  0  0
   60.6680   34.5890   46.3030 C   0  0  0  0  0  0  0  0  0  0  0  0
   59.3940   34.4260   45.8680 N   0  0  0  0  0  0  0  0  0  0  0  0
   58.6180   33.3820   46.2660 C   0  0  0  0  0  0  0  0  0  0  0  0
   57.3130   33.2570   45.6100 C   0  0  0  0  0  0  0  0  0  0  0  0
   56.6860   34.2960   45.2680 O   0  0  0  0  0  0  0  0  0  0  0  0
   56.8150   31.9620   45.2630 N   0  0  0  0  0  0  0  0  0  0  0  0
   57.1710   31.2670   44.0270 C   0  0  0  0  0  0  0  0  0  0  0  0
   58.5220   30.5770   44.1690 C   0  0  0  0  0  0  0  0  0  0  0  0
   58.2300   29.1960   44.7430 C   0  0  0  0  0  0  0  0  0  0  0  0
   56.7460   28.9230   44.5090 C   0  0  0  0  0  0  0  0  0  0  0  0
   56.1870   30.1350   43.7740 C   0  0  0  0  0  0  0  0  0  0  0  0
   59.4570   27.8780   48.1870 N   0  0  0  0  0  0  0  0  0  0  0  0
   58.9630   26.8450   47.3260 C   0  0  0  0  0  0  0  0  0  0  0  0
   59.8740   25.9770   46.7120 C   0  0  0  0  0  0  0  0  0  0  0  0
   59.4220   24.9780   45.8460 C   0  0  0  0  0  0  0  0  0  0  0  0
   58.0490   24.8160   45.6060 C   0  0  0  0  0  0  0  0  0  0  0  0
   57.5890   23.8090   44.6890 N   0  0  0  0  0  0  0  0  0  0  0  0
   56.3830   24.0720   43.8950 C   0  0  0  0  0  0  0  0  0  0  0  0
   56.1780   22.9910   42.8280 C   0  0  0  0  0  0  0  0  0  0  0  0
   56.2770   21.7070   43.4110 O   0  0  0  0  0  0  0  0  0  0  0  0
   57.6200   21.4400   43.7630 C   0  0  0  0  0  0  0  0  0  0  0  0
   58.1630   22.4880   44.6930 C   0  0  0  0  0  0  0  0  0  0  0  0
   59.1670   22.2240   45.4100 O   0  0  0  0  0  0  0  0  0  0  0  0
   57.1340   25.6630   46.2500 C   0  0  0  0  0  0  0  0  0  0  0  0
   57.5880   26.6670   47.1110 C   0  0  0  0  0  0  0  0  0  0  0  0
  1  2  2  0
  2  3  1  0
  3  4  1  0
  4  5  2  3
  5  6  1  0
  6  7  1  0
  7  8  2  0
  8  9  1  0
  9 10  2  0
 10 11  1  0
 11 12  2  0
 11 13  1  0
 13 14  1  0
 14 15  1  0
 15 16  1  0
 16 17  1  0
 17 18  1  0
  2 19  1  0
 19 20  1  0
 20 21  2  0
 21 22  1  0
 22 23  2  0
 23 24  1  0
 24 25  1  0
 25 26  1  0
 26 27  1  0
 27 28  1  0
 28 29  1  0
 29 30  2  0
 23 31  1  0
 31 32  2  0
 10  5  1  0
 18 14  1  0
 32 20  1  0
 29 24  1  0
M  CHG  3   6  -1  13  -1  19  -1
M  END
>  <UniqueID>  (3256) 
5

>  <SMILES>  (3256) 
O=C(CN=c1[n-]ccnc1C(=O)[N-]C1CCCC1)[N-]c1ccc(N2CCOCC2=O)cc1

>  <Energy>  (3256) 
85.59673814347666

>  <Genealogy>  (3256) 
O=C(CN=c1[n-]ccnc1C(=O)[N-]C1CCCC1)[N-]c1ccc(N2CCOCC2=O)cc1 (protonated)
O=C(CN=c1[n-]ccnc1C(=O)[N-]C1CCCC1)[N-]c1ccc(N2CCOCC2=O)cc1 (3D coordinates assigned)
O=C(CN=c1[n-]ccnc1C(=O)[N-]C1CCCC1)[N-]c1ccc(N2CCOCC2=O)cc1 (nonaromatic ring conformer: 85.59673814347666 kcal/mol)

>  <smiles>  (3256) 
O=C(CN=c1[nH]ccnc1C(=O)NC1CCCC1)Nc1ccc(N2CCOCC2=O)cc1

>  <score_type>  (3256) 
oracle

>  <origin>  (3256) 
adg

>  <m_score__min__energy>  (3256) 
-14.19

>  <m_primary>  (3256) 
energy

$$$$
12:0
     RDKit          3D

 35 39  0  0  0  0  0  0  0  0999 V2000
   56.2050   32.0090   52.5200 C   0  0  0  0  0  0  0  0  0  0  0  0
   55.6610   30.8310   52.8640 C   0  0  0  0  0  0  0  0  0  0  0  0
   54.3010   30.4860   52.7760 C   0  0  0  0  0  0  0  0  0  0  0  0
   53.2070   31.2290   52.5110 C   0  0  0  0  0  0  0  0  0  0  0  0
   52.3450   31.1030   51.3250 C   0  0  0  0  0  0  0  0  0  0  0  0
   52.4780   30.1570   50.3760 N   0  0  0  0  0  0  0  0  0  0  0  0
   51.5670   30.5220   49.4460 C   0  0  0  0  0  0  0  0  0  0  0  0
   51.3750   29.8630   48.3920 O   0  0  0  0  0  0  0  0  0  0  0  0
   50.8860   31.6530   49.7310 N   0  0  0  0  0  0  0  0  0  0  0  0
   51.4020   32.0150   50.9180 C   0  0  0  0  0  0  0  0  0  0  0  0
   51.0250   33.1580   51.6100 O   0  0  0  0  0  0  0  0  0  0  0  0
   54.2280   29.1340   53.0470 C   0  0  0  0  0  0  0  0  0  0  0  0
   55.5030   28.7150   53.3590 C   0  0  0  0  0  0  0  0  0  0  0  0
   55.8360   27.2910   53.6910 C   0  0  0  0  0  0  0  0  0  0  0  0
   56.3870   29.7380   53.2400 N   0  0  0  0  0  0  0  0  0  0  0  0
   57.8540   29.6300   53.3580 C   0  0  0  0  0  0  0  0  0  0  0  0
   58.5380   30.2410   52.1590 C   0  0  0  0  0  0  0  0  0  0  0  0
   58.3290   29.7120   50.8770 C   0  0  0  0  0  0  0  0  0  0  0  0
   58.8960   30.3220   49.7550 C   0  0  0  0  0  0  0  0  0  0  0  0
   59.7060   31.4620   49.8980 C   0  0  0  0  0  0  0  0  0  0  0  0
   60.2500   32.1290   48.7410 N   0  0  0  0  0  0  0  0  0  0  0  0
   59.8710   33.5160   48.4460 C   0  0  0  0  0  0  0  0  0  0  0  0
   59.9700   33.7930   46.9350 C   0  0  0  0  0  0  0  0  0  0  0  0
   59.5680   32.6130   46.1380 N   0  0  0  0  0  0  0  0  0  0  0  0
   58.1320   32.2970   46.3060 C   0  0  0  0  0  0  0  0  0  0  0  0
   57.6560   31.4130   45.1850 C   0  0  0  0  0  0  0  0  0  0  0  0
   57.3950   30.0540   45.4230 C   0  0  0  0  0  0  0  0  0  0  0  0
   56.9390   29.2310   44.3880 C   0  0  0  0  0  0  0  0  0  0  0  0
   56.7370   29.7600   43.1110 C   0  0  0  0  0  0  0  0  0  0  0  0
   56.9910   31.1130   42.8660 C   0  0  0  0  0  0  0  0  0  0  0  0
   57.4510   31.9380   43.8960 C   0  0  0  0  0  0  0  0  0  0  0  0
   60.4440   31.4350   46.3820 C   0  0  0  0  0  0  0  0  0  0  0  0
   61.1020   31.4270   47.7770 C   0  0  0  0  0  0  0  0  0  0  0  0
   59.9430   31.9710   51.1850 C   0  0  0  0  0  0  0  0  0  0  0  0
   59.3660   31.3660   52.3040 C   0  0  0  0  0  0  0  0  0  0  0  0
  1  2  2  0
  2  3  1  0
  3  4  2  0
  4  5  1  0
  5  6  1  0
  6  7  1  0
  7  8  2  0
  7  9  1  0
  9 10  1  0
 10 11  1  0
  3 12  1  0
 12 13  2  0
 13 14  1  0
 13 15  1  0
 15 16  1  0
 16 17  1  0
 17 18  2  0
 18 19  1  0
 19 20  2  0
 20 21  1  0
 21 22  1  0
 22 23  1  0
 23 24  1  0
 24 25  1  0
 25 26  1  0
 26 27  2  0
 27 28  1  0
 28 29  2  0
 29 30  1  0
 30 31  2  0
 24 32  1  0
 32 33  1  0
 20 34  1  0
 34 35  2  0
 15  2  1  0
 35 17  1  0
 10  5  2  0
 33 21  1  0
 31 26  1  0
M  CHG  3   6  -1   9  -1  11  -1
M  END
>  <UniqueID>  (3257) 
11

>  <SMILES>  (3257) 
C=c1/c(=C\c2[n-]c(=O)[n-]c2[O-])cc(C)n1Cc1ccc(N2CCN(Cc3ccccc3)CC2)cc1

>  <Energy>  (3257) 
148.97842732640686

>  <Genealogy>  (3257) 
C=c1c(=Cc2[n-]c(=O)[n-]c2[O-])cc(C)n1Cc1ccc(N2CCN(Cc3ccccc3)CC2)cc1 (protonated)
C=c1/c(=C\c2[n-]c(=O)[n-]c2[O-])cc(C)n1Cc1ccc(N2CCN(Cc3ccccc3)CC2)cc1 (cis-trans isomerization)
C=c1/c(=C\c2[n-]c(=O)[n-]c2[O-])cc(C)n1Cc1ccc(N2CCN(Cc3ccccc3)CC2)cc1 (3D coordinates assigned)
C=c1/c(=C\c2[n-]c(=O)[n-]c2[O-])cc(C)n1Cc1ccc(N2CCN(Cc3ccccc3)CC2)cc1 (nonaromatic ring conformer: 148.97842732640686 kcal/mol)

>  <smiles>  (3257) 
C=c1c(=Cc2[nH]c(=O)[nH]c2O)cc(C)n1Cc1ccc(N2CCN(Cc3ccccc3)CC2)cc1

>  <score_type>  (3257) 
oracle

>  <origin>  (3257) 
adg

>  <m_score__min__energy>  (3257) 
-19.34

>  <m_primary>  (3257) 
energy

$$$$
14:0
     RDKit          3D

 36 39  0  0  0  0  0  0  0  0999 V2000
   57.2520   25.6560   47.3670 C   0  0  0  0  0  0  0  0  0  0  0  0
   56.0350   25.7830   46.5360 C   0  0  0  0  0  0  0  0  0  0  0  0
   55.3070   24.7770   46.3290 O   0  0  0  0  0  0  0  0  0  0  0  0
   55.6380   27.0460   45.9890 N   0  0  0  0  0  0  0  0  0  0  0  0
   56.5740   28.0370   45.5620 C   0  0  0  0  0  0  0  0  0  0  0  0
   57.9370   27.8790   45.8400 C   0  0  0  0  0  0  0  0  0  0  0  0
   58.8590   28.8440   45.4130 C   0  0  0  0  0  0  0  0  0  0  0  0
   60.5740   28.6600   45.7630 S   0  0  0  0  0  0  0  0  0  0  0  0
   60.8530   27.2460   46.1920 O   0  0  0  0  0  0  0  0  0  0  0  0
   61.3470   28.9560   44.5070 O   0  0  0  0  0  0  0  0  0  0  0  0
   61.0330   29.7800   47.0290 N   0  0  0  0  0  0  0  0  0  0  0  0
   60.4140   31.1120   46.8440 C   0  0  0  0  0  0  0  0  0  0  0  0
   59.1770   31.3220   47.7330 C   0  0  0  0  0  0  0  0  0  0  0  0
   58.5080   30.0980   47.9380 O   0  0  0  0  0  0  0  0  0  0  0  0
   59.2870   29.2550   48.7620 C   0  0  0  0  0  0  0  0  0  0  0  0
   60.7840   29.2170   48.3690 C   0  0  0  0  0  0  0  0  0  0  0  0
   58.4120   29.9620   44.6950 C   0  0  0  0  0  0  0  0  0  0  0  0
   57.0520   30.1200   44.4170 C   0  0  0  0  0  0  0  0  0  0  0  0
   56.1320   29.1600   44.8460 C   0  0  0  0  0  0  0  0  0  0  0  0
   54.7820   29.3190   44.5520 O   0  0  0  0  0  0  0  0  0  0  0  0
   58.4360   25.2350   46.9080 C   0  0  0  0  0  0  0  0  0  0  0  0
   58.6300   24.0890   45.9930 C   0  0  0  0  0  0  0  0  0  0  0  0
   59.9190   23.6540   45.6360 C   0  0  0  0  0  0  0  0  0  0  0  0
   60.0810   22.5500   44.7960 C   0  0  0  0  0  0  0  0  0  0  0  0
   58.9630   21.8650   44.3130 C   0  0  0  0  0  0  0  0  0  0  0  0
   57.6740   22.2760   44.6820 C   0  0  0  0  0  0  0  0  0  0  0  0
   56.2650   21.3920   44.1090 S   0  0  0  0  0  0  0  0  0  0  0  0
   55.0320   22.2110   44.3770 O   0  0  0  0  0  0  0  0  0  0  0  0
   56.3790   21.1930   42.6230 O   0  0  0  0  0  0  0  0  0  0  0  0
   56.2110   19.8520   44.9510 N   0  0  0  0  0  0  0  0  0  0  0  0
   54.8840   19.5780   45.5330 C   0  0  0  0  0  0  0  0  0  0  0  0
   54.6730   20.3130   46.8750 C   0  0  0  0  0  0  0  0  0  0  0  0
   55.7210   21.2240   47.1440 O   0  0  0  0  0  0  0  0  0  0  0  0
   56.9410   20.5210   47.2530 C   0  0  0  0  0  0  0  0  0  0  0  0
   57.2720   19.7330   45.9660 C   0  0  0  0  0  0  0  0  0  0  0  0
   57.5120   23.3750   45.5360 C   0  0  0  0  0  0  0  0  0  0  0  0
  1  2  1  0
  2  3  2  0
  2  4  1  0
  4  5  1  0
  5  6  2  0
  6  7  1  0
  7  8  1  0
  8  9  2  0
  8 10  2  0
  8 11  1  0
 11 12  1  0
 12 13  1  0
 13 14  1  0
 14 15  1  0
 15 16  1  0
  7 17  2  0
 17 18  1  0
 18 19  2  0
 19 20  1  0
  1 21  2  0
 21 22  1  0
 22 23  2  0
 23 24  1  0
 24 25  2  0
 25 26  1  0
 26 27  1  0
 27 28  2  0
 27 29  2  0
 27 30  1  0
 30 31  1  0
 31 32  1  0
 32 33  1  0
 33 34  1  0
 34 35  1  0
 26 36  2  0
 19  5  1  0
 36 22  1  0
 16 11  1  0
 35 30  1  0
M  CHG  2   4  -1  20  -1
M  END
>  <UniqueID>  (3258) 
13

>  <SMILES>  (3258) 
O=C(/C=C\c1cccc(S(=O)(=O)N2CCOCC2)c1)[N-]c1cc(S(=O)(=O)N2CCOCC2)ccc1[O-]

>  <Energy>  (3258) 
103.08178647804121

>  <Genealogy>  (3258) 
O=C(C=Cc1cccc(S(=O)(=O)N2CCOCC2)c1)[N-]c1cc(S(=O)(=O)N2CCOCC2)ccc1[O-] (protonated)
O=C(/C=C\c1cccc(S(=O)(=O)N2CCOCC2)c1)[N-]c1cc(S(=O)(=O)N2CCOCC2)ccc1[O-] (cis-trans isomerization)
O=C(/C=C\c1cccc(S(=O)(=O)N2CCOCC2)c1)[N-]c1cc(S(=O)(=O)N2CCOCC2)ccc1[O-] (3D coordinates assigned)
O=C(/C=C\c1cccc(S(=O)(=O)N2CCOCC2)c1)[N-]c1cc(S(=O)(=O)N2CCOCC2)ccc1[O-] (nonaromatic ring conformer: 103.08178647804121 kcal/mol)

>  <smiles>  (3258) 
O=C(C=Cc1cccc(S(=O)(=O)N2CCOCC2)c1)Nc1cc(S(=O)(=O)N2CCOCC2)ccc1O

>  <score_type>  (3258) 
oracle

>  <origin>  (3258) 
adg

>  <m_score__min__energy>  (3258) 
-16.129999999999999

>  <m_primary>  (3258) 
energy

$$$$
24:0
     RDKit          3D

 26 28  0  0  0  0  0  0  0  0999 V2000
   55.2050   28.9620   44.5350 O   0  0  0  0  0  0  0  0  0  0  0  0
   56.2250   29.8250   44.9300 C   0  0  0  0  0  0  0  0  0  0  0  0
   56.2660   31.1210   44.5370 N   0  0  0  0  0  0  0  0  0  0  0  0
   57.4190   31.5880   45.0520 C   0  0  0  0  0  0  0  0  0  0  0  0
   57.9250   32.8790   44.9170 C   0  0  0  0  0  0  0  0  0  0  0  0
   59.1580   33.1720   45.5250 C   0  0  0  0  0  0  0  0  0  0  0  0
   59.8570   32.1810   46.2530 C   0  0  0  0  0  0  0  0  0  0  0  0
   61.4090   32.5780   46.9870 S   0  0  0  0  0  0  0  0  0  0  0  0
   62.1880   31.2980   47.1160 O   0  0  0  0  0  0  0  0  0  0  0  0
   62.1720   33.5280   46.1060 O   0  0  0  0  0  0  0  0  0  0  0  0
   61.1770   33.3090   48.5530 N   0  0  0  0  0  0  0  0  0  0  0  0
   59.8770   33.7450   49.0000 C   0  0  0  0  0  0  0  0  0  0  0  0
   59.2850   34.6770   48.3870 O   0  0  0  0  0  0  0  0  0  0  0  0
   59.1890   33.1160   50.1730 C   0  0  0  0  0  0  0  0  0  0  0  0
   62.3180   33.4450   49.4600 C   0  0  0  0  0  0  0  0  0  0  0  0
   59.3200   30.8820   46.3700 C   0  0  0  0  0  0  0  0  0  0  0  0
   58.0970   30.6220   45.7520 C   0  0  0  0  0  0  0  0  0  0  0  0
   57.3330   29.4800   45.7050 C   0  0  0  0  0  0  0  0  0  0  0  0
   57.6700   28.1790   46.3130 C   0  0  0  0  0  0  0  0  0  0  0  0
   57.0100   27.0490   46.0380 C   0  0  0  0  0  0  0  0  0  0  0  0
   55.6580   26.9800   46.0520 N   0  0  0  0  0  0  0  0  0  0  0  0
   55.4140   25.7070   45.7000 C   0  0  0  0  0  0  0  0  0  0  0  0
   54.2570   25.2210   45.5950 O   0  0  0  0  0  0  0  0  0  0  0  0
   56.5950   25.0420   45.4790 C   0  0  0  0  0  0  0  0  0  0  0  0
   56.7440   23.7700   45.1150 C   0  0  0  0  0  0  0  0  0  0  0  0
   57.6180   25.8880   45.6860 N   0  0  0  0  0  0  0  0  0  0  0  0
  1  2  1  0
  2  3  1  0
  3  4  1  0
  4  5  2  0
  5  6  1  0
  6  7  2  0
  7  8  1  0
  8  9  2  0
  8 10  2  0
  8 11  1  0
 11 12  1  0
 12 13  2  0
 12 14  1  0
 11 15  1  0
  7 16  1  0
 16 17  2  0
 17 18  1  0
 18 19  1  0
 19 20  2  0
 20 21  1  0
 21 22  1  0
 22 23  2  0
 22 24  1  0
 24 25  2  0
 24 26  1  0
 18  2  2  0
 26 20  1  0
 17  4  1  0
M  CHG  3   3  -1  21  -1  26  -1
M  END
>  <UniqueID>  (3259) 
22

>  <SMILES>  (3259) 
C=c1[n-]/c(=C\c2c(O)[n-]c3ccc(S(=O)(=O)N(C)C(C)=O)cc23)[n-]c1=O

>  <Energy>  (3259) 
108.71290016611927

>  <Genealogy>  (3259) 
C=c1[n-]c(=Cc2c(O)[n-]c3ccc(S(=O)(=O)N(C)C(C)=O)cc23)[n-]c1=O (protonated)
C=c1[n-]/c(=C\c2c(O)[n-]c3ccc(S(=O)(=O)N(C)C(C)=O)cc23)[n-]c1=O (cis-trans isomerization)
C=c1[n-]/c(=C\c2c(O)[n-]c3ccc(S(=O)(=O)N(C)C(C)=O)cc23)[n-]c1=O (3D coordinates assigned)
C=c1[n-]/c(=C\c2c(O)[n-]c3ccc(S(=O)(=O)N(C)C(C)=O)cc23)[n-]c1=O (optimized conformer: 108.71290016611927 kcal/mol)

>  <smiles>  (3259) 
C=c1[nH]c(=Cc2c(O)[nH]c3ccc(S(=O)(=O)N(C)C(C)=O)cc23)[nH]c1=O

>  <score_type>  (3259) 
oracle

>  <origin>  (3259) 
adg

>  <m_score__min__energy>  (3259) 
-14.01

>  <m_primary>  (3259) 
energy

$$$$
32:0
     RDKit          3D

 31 34  0  0  0  0  0  0  0  0999 V2000
   60.3600   26.6030   46.8020 C   0  0  0  0  0  0  0  0  0  0  0  0
   59.2440   27.2140   46.3730 C   0  0  0  0  0  0  0  0  0  0  0  0
   57.9430   26.6840   46.3440 C   0  0  0  0  0  0  0  0  0  0  0  0
   57.4860   25.4350   46.5660 C   0  0  0  0  0  0  0  0  0  0  0  0
   56.5720   24.6860   45.6940 C   0  0  0  0  0  0  0  0  0  0  0  0
   56.8910   23.5100   45.1240 N   0  0  0  0  0  0  0  0  0  0  0  0
   55.7480   23.1420   44.5060 C   0  0  0  0  0  0  0  0  0  0  0  0
   55.6510   22.0800   43.8360 O   0  0  0  0  0  0  0  0  0  0  0  0
   54.7150   23.9960   44.6670 N   0  0  0  0  0  0  0  0  0  0  0  0
   55.2440   24.9620   45.4350 C   0  0  0  0  0  0  0  0  0  0  0  0
   54.5160   26.0530   45.9050 O   0  0  0  0  0  0  0  0  0  0  0  0
   57.1070   27.7350   46.0080 C   0  0  0  0  0  0  0  0  0  0  0  0
   57.9070   28.8400   45.8100 C   0  0  0  0  0  0  0  0  0  0  0  0
   57.3890   30.1710   45.4320 C   0  0  0  0  0  0  0  0  0  0  0  0
   56.3660   30.2340   44.7000 O   0  0  0  0  0  0  0  0  0  0  0  0
   58.0080   31.3850   45.9010 N   0  0  0  0  0  0  0  0  0  0  0  0
   57.8560   32.6060   45.0970 C   0  0  0  0  0  0  0  0  0  0  0  0
   58.6240   33.7760   45.7130 C   0  0  0  0  0  0  0  0  0  0  0  0
   59.9170   33.2790   46.2080 N   0  0  0  0  0  0  0  0  0  0  0  0
   60.9240   34.3430   46.4220 C   0  0  0  0  0  0  0  0  0  0  0  0
   62.3880   33.8540   46.3700 C   0  0  0  0  0  0  0  0  0  0  0  0
   62.8770   33.5260   47.7510 C   0  0  0  0  0  0  0  0  0  0  0  0
   63.7040   32.4160   47.9750 C   0  0  0  0  0  0  0  0  0  0  0  0
   64.1140   32.1170   49.2760 C   0  0  0  0  0  0  0  0  0  0  0  0
   63.6920   32.9180   50.3380 C   0  0  0  0  0  0  0  0  0  0  0  0
   62.8590   34.0100   50.0800 C   0  0  0  0  0  0  0  0  0  0  0  0
   62.4710   34.2850   48.8060 N   0  0  0  0  0  0  0  0  0  0  0  0
   59.7700   32.3780   47.3720 C   0  0  0  0  0  0  0  0  0  0  0  0
   58.5160   31.4800   47.2790 C   0  0  0  0  0  0  0  0  0  0  0  0
   59.2090   28.5200   46.0000 N   0  0  0  0  0  0  0  0  0  0  0  0
   60.3650   29.4080   45.8270 C   0  0  0  0  0  0  0  0  0  0  0  0
  1  2  2  0
  2  3  1  0
  3  4  2  3
  4  5  1  0
  5  6  1  0
  6  7  1  0
  7  8  2  0
  7  9  1  0
  9 10  1  0
 10 11  1  0
  3 12  1  0
 12 13  2  0
 13 14  1  0
 14 15  2  0
 14 16  1  0
 16 17  1  0
 17 18  1  0
 18 19  1  0
 19 20  1  0
 20 21  1  0
 21 22  1  0
 22 23  2  0
 23 24  1  0
 24 25  2  0
 25 26  1  0
 26 27  2  0
 19 28  1  0
 28 29  1  0
 13 30  1  0
 30 31  1  0
 30  2  1  0
 10  5  2  0
 29 16  1  0
 27 22  1  0
M  CHG  2   6  -1   9  -1
M  END
>  <UniqueID>  (3260) 
30

>  <SMILES>  (3260) 
C=c1c(=Cc2[n-]c(=O)[n-]c2O)cc(C(=O)N2CCN(CCc3ccccn3)CC2)n1C

>  <Energy>  (3260) 
139.59647769407277

>  <Genealogy>  (3260) 
C=c1c(=Cc2[n-]c(=O)[n-]c2O)cc(C(=O)N2CCN(CCc3ccccn3)CC2)n1C (protonated)
C=c1c(=Cc2[n-]c(=O)[n-]c2O)cc(C(=O)N2CCN(CCc3ccccn3)CC2)n1C (3D coordinates assigned)
C=c1c(=Cc2[n-]c(=O)[n-]c2O)cc(C(=O)N2CCN(CCc3ccccn3)CC2)n1C (nonaromatic ring conformer: 139.59647769407277 kcal/mol)

>  <smiles>  (3260) 
C=c1c(=Cc2[nH]c(=O)[nH]c2O)cc(C(=O)N2CCN(CCc3ccccn3)CC2)n1C

>  <score_type>  (3260) 
oracle

>  <origin>  (3260) 
adg

>  <m_score__min__energy>  (3260) 
-14.44

>  <m_primary>  (3260) 
energy

$$$$
44:0
     RDKit          3D

 31 34  0  0  0  0  0  0  0  0999 V2000
   56.6380   29.6800   43.2310 C   0  0  0  0  0  0  0  0  0  0  0  0
   57.1800   29.6460   44.4610 C   0  0  0  0  0  0  0  0  0  0  0  0
   57.5780   28.4940   45.1490 C   0  0  0  0  0  0  0  0  0  0  0  0
   57.5100   27.2180   44.7200 C   0  0  0  0  0  0  0  0  0  0  0  0
   57.1190   26.0790   45.5720 C   0  0  0  0  0  0  0  0  0  0  0  0
   57.9380   25.1040   46.0070 N   0  0  0  0  0  0  0  0  0  0  0  0
   57.1700   24.3560   46.8240 C   0  0  0  0  0  0  0  0  0  0  0  0
   57.6000   23.3380   47.4270 O   0  0  0  0  0  0  0  0  0  0  0  0
   55.9030   24.8030   46.9530 N   0  0  0  0  0  0  0  0  0  0  0  0
   55.8910   25.8960   46.1670 C   0  0  0  0  0  0  0  0  0  0  0  0
   54.7800   26.7130   45.9980 O   0  0  0  0  0  0  0  0  0  0  0  0
   58.1320   28.9280   46.3420 C   0  0  0  0  0  0  0  0  0  0  0  0
   58.0540   30.3080   46.3450 C   0  0  0  0  0  0  0  0  0  0  0  0
   58.6030   31.1770   47.4500 C   0  0  0  0  0  0  0  0  0  0  0  0
   60.0820   31.3720   47.2870 C   0  0  0  0  0  0  0  0  0  0  0  0
   60.8630   32.3020   47.8240 C   0  0  0  0  0  0  0  0  0  0  0  0
   60.5160   33.3970   48.6230 C   0  0  0  0  0  0  0  0  0  0  0  0
   61.5440   34.2380   49.0820 C   0  0  0  0  0  0  0  0  0  0  0  0
   62.8870   33.9760   48.7420 C   0  0  0  0  0  0  0  0  0  0  0  0
   63.2170   32.8690   47.9420 C   0  0  0  0  0  0  0  0  0  0  0  0
   62.1880   32.0420   47.4950 C   0  0  0  0  0  0  0  0  0  0  0  0
   62.3510   30.9770   46.7740 N   0  0  0  0  0  0  0  0  0  0  0  0
   61.0230   30.4920   46.6100 C   0  0  0  0  0  0  0  0  0  0  0  0
   60.7300   29.4460   45.9730 O   0  0  0  0  0  0  0  0  0  0  0  0
   57.4430   30.7470   45.2160 N   0  0  0  0  0  0  0  0  0  0  0  0
   57.1760   32.1520   44.8690 C   0  0  0  0  0  0  0  0  0  0  0  0
   58.2640   32.6890   43.9950 C   0  0  0  0  0  0  0  0  0  0  0  0
   58.4120   32.2320   42.8290 O   0  0  0  0  0  0  0  0  0  0  0  0
   59.1250   33.6750   44.4930 O   0  0  0  0  0  0  0  0  0  0  0  0
   58.7660   34.5720   45.5420 C   0  0  0  0  0  0  0  0  0  0  0  0
   59.9870   35.3430   46.0290 C   0  0  0  0  0  0  0  0  0  0  0  0
  1  2  2  0
  2  3  1  0
  3  4  2  3
  4  5  1  0
  5  6  1  0
  6  7  1  0
  7  8  2  0
  7  9  1  0
  9 10  1  0
 10 11  1  0
  3 12  1  0
 12 13  2  0
 13 14  1  0
 14 15  1  0
 15 16  2  0
 16 17  1  0
 17 18  2  0
 18 19  1  0
 19 20  2  0
 20 21  1  0
 21 22  2  0
 22 23  1  0
 23 24  2  0
 13 25  1  0
 25 26  1  0
 26 27  1  0
 27 28  2  0
 27 29  1  0
 29 30  1  0
 30 31  1  0
 25  2  1  0
 10  5  2  0
 23 15  1  0
 21 16  1  0
M  CHG  2   9  -1  11  -1
M  END
>  <UniqueID>  (3261) 
40

>  <SMILES>  (3261) 
C=c1c(=Cc2[nH]c(=O)[n-]c2[O-])cc(CC2=c3ccccc3=NC2=O)n1CC(=O)OCC

>  <Energy>  (3261) 
144.0136257380924

>  <Genealogy>  (3261) 
C=c1c(=Cc2[nH]c(=O)[n-]c2[O-])cc(CC2=c3ccccc3=NC2=O)n1CC(=O)OCC (protonated)
C=c1c(=Cc2[nH]c(=O)[n-]c2[O-])cc(CC2=c3ccccc3=NC2=O)n1CC(=O)OCC (3D coordinates assigned)
C=c1c(=Cc2[nH]c(=O)[n-]c2[O-])cc(CC2=c3ccccc3=NC2=O)n1CC(=O)OCC (nonaromatic ring conformer: 144.0136257380924 kcal/mol)

>  <smiles>  (3261) 
C=c1c(=Cc2[nH]c(=O)[nH]c2O)cc(CC2=c3ccccc3=NC2=O)n1CC(=O)OCC

>  <score_type>  (3261) 
oracle

>  <origin>  (3261) 
adg

>  <m_score__min__energy>  (3261) 
-14.65

>  <m_primary>  (3261) 
energy

$$$$
57:0
     RDKit          3D

 27 29  0  0  0  0  0  0  0  0999 V2000
   58.1610   29.2370   47.4840 N   0  0  0  0  0  0  0  0  0  0  0  0
   58.9450   30.4270   47.4740 C   0  0  0  0  0  0  0  0  0  0  0  0
   58.5870   31.4100   46.7720 O   0  0  0  0  0  0  0  0  0  0  0  0
   60.1640   30.5260   48.3360 C   0  0  0  0  0  0  0  0  0  0  0  0
   59.8540   31.2660   49.5570 N   0  0  0  0  0  0  0  0  0  0  0  0
   60.5490   32.4310   49.9960 C   0  0  0  0  0  0  0  0  0  0  0  0
   61.5410   32.8940   49.3740 O   0  0  0  0  0  0  0  0  0  0  0  0
   59.8920   33.2270   51.4650 S   0  0  0  0  0  0  0  0  0  0  0  0
   58.4790   32.1200   51.3500 C   0  0  0  0  0  0  0  0  0  0  0  0
   57.4070   32.2860   52.1390 C   0  0  0  0  0  0  0  0  0  0  0  0
   56.4190   31.2310   52.4480 C   0  0  0  0  0  0  0  0  0  0  0  0
   56.8300   29.9300   52.7340 C   0  0  0  0  0  0  0  0  0  0  0  0
   55.8900   28.9310   52.9660 C   0  0  0  0  0  0  0  0  0  0  0  0
   54.5080   29.2000   52.9110 C   0  0  0  0  0  0  0  0  0  0  0  0
   53.6740   28.1860   53.2180 C   0  0  0  0  0  0  0  0  0  0  0  0
   54.0670   30.5250   52.5730 C   0  0  0  0  0  0  0  0  0  0  0  0
   52.7510   30.8360   52.4190 C   0  0  0  0  0  0  0  0  0  0  0  0
   52.0840   31.1140   51.1310 C   0  0  0  0  0  0  0  0  0  0  0  0
   52.0370   30.2340   50.1160 N   0  0  0  0  0  0  0  0  0  0  0  0
   51.2540   30.8480   49.2030 C   0  0  0  0  0  0  0  0  0  0  0  0
   50.9800   30.3320   48.0880 O   0  0  0  0  0  0  0  0  0  0  0  0
   50.7780   32.0520   49.5830 N   0  0  0  0  0  0  0  0  0  0  0  0
   51.3000   32.2020   50.8110 C   0  0  0  0  0  0  0  0  0  0  0  0
   51.0360   33.2890   51.6340 O   0  0  0  0  0  0  0  0  0  0  0  0
   55.0540   31.5130   52.3340 C   0  0  0  0  0  0  0  0  0  0  0  0
   58.6760   31.0830   50.3290 C   0  0  0  0  0  0  0  0  0  0  0  0
   57.9140   30.0920   50.1670 O   0  0  0  0  0  0  0  0  0  0  0  0
  1  2  1  0
  2  3  2  0
  2  4  1  0
  4  5  1  0
  5  6  1  0
  6  7  2  0
  6  8  1  0
  8  9  1  0
  9 10  2  3
 10 11  1  0
 11 12  1  0
 12 13  2  0
 13 14  1  0
 14 15  2  0
 14 16  1  0
 16 17  2  0
 17 18  1  0
 18 19  1  0
 19 20  1  0
 20 21  2  0
 20 22  1  0
 22 23  1  0
 23 24  1  0
 16 25  1  0
  9 26  1  0
 26 27  2  0
 26  5  1  0
 25 11  2  0
 23 18  2  0
M  CHG  4   1  -1  19  -1  22  -1  24  -1
M  END
>  <UniqueID>  (3262) 
52

>  <SMILES>  (3262) 
C=c1ccc(C=C2SC(=O)N(CC([NH-])=O)C2=O)c/c1=C\c1[n-]c(=O)[n-]c1[O-]

>  <Energy>  (3262) 
109.78555286108475

>  <Genealogy>  (3262) 
C=c1ccc(C=C2SC(=O)N(CC([NH-])=O)C2=O)cc1=Cc1[n-]c(=O)[n-]c1[O-] (protonated)
C=c1ccc(C=C2SC(=O)N(CC([NH-])=O)C2=O)c/c1=C\c1[n-]c(=O)[n-]c1[O-] (cis-trans isomerization)
C=c1ccc(C=C2SC(=O)N(CC([NH-])=O)C2=O)c/c1=C\c1[n-]c(=O)[n-]c1[O-] (3D coordinates assigned)
C=c1ccc(C=C2SC(=O)N(CC([NH-])=O)C2=O)c/c1=C\c1[n-]c(=O)[n-]c1[O-] (nonaromatic ring conformer: 109.78555286108475 kcal/mol)

>  <smiles>  (3262) 
C=c1ccc(C=C2SC(=O)N(CC(N)=O)C2=O)cc1=Cc1[nH]c(=O)[nH]c1O

>  <score_type>  (3262) 
oracle

>  <origin>  (3262) 
adg

>  <m_score__min__energy>  (3262) 
-17.550000000000001

>  <m_primary>  (3262) 
energy

$$$$
71:0
     RDKit          3D

 25 27  0  0  0  0  0  0  0  0999 V2000
   52.5410   30.1300   50.0710 O   0  0  0  0  0  0  0  0  0  0  0  0
   51.9060   30.8060   51.1100 C   0  0  0  0  0  0  0  0  0  0  0  0
   52.0850   30.6320   52.4750 C   0  0  0  0  0  0  0  0  0  0  0  0
   52.9450   29.6500   53.1570 C   0  0  0  0  0  0  0  0  0  0  0  0
   54.2790   29.6390   53.0420 C   0  0  0  0  0  0  0  0  0  0  0  0
   55.1000   28.7710   53.6720 N   0  0  0  0  0  0  0  0  0  0  0  0
   56.3450   29.1500   53.2960 C   0  0  0  0  0  0  0  0  0  0  0  0
   57.4350   28.4850   53.6820 C   0  0  0  0  0  0  0  0  0  0  0  0
   56.3430   30.2250   52.4650 N   0  0  0  0  0  0  0  0  0  0  0  0
   57.4590   30.9280   51.8870 C   0  0  0  0  0  0  0  0  0  0  0  0
   58.2900   30.2960   50.9520 C   0  0  0  0  0  0  0  0  0  0  0  0
   59.3820   30.9740   50.4050 C   0  0  0  0  0  0  0  0  0  0  0  0
   59.6720   32.2980   50.7880 C   0  0  0  0  0  0  0  0  0  0  0  0
   60.8380   33.0070   50.1970 C   0  0  0  0  0  0  0  0  0  0  0  0
   61.3840   33.9510   50.8330 O   0  0  0  0  0  0  0  0  0  0  0  0
   61.3950   32.6360   48.8560 C   0  0  0  0  0  0  0  0  0  0  0  0
   58.8390   32.9210   51.7390 C   0  0  0  0  0  0  0  0  0  0  0  0
   57.7480   32.2410   52.2840 C   0  0  0  0  0  0  0  0  0  0  0  0
   55.0410   30.5240   52.3110 C   0  0  0  0  0  0  0  0  0  0  0  0
   54.6060   31.4850   51.6180 O   0  0  0  0  0  0  0  0  0  0  0  0
   51.3640   31.5640   53.1430 N   0  0  0  0  0  0  0  0  0  0  0  0
   50.7440   32.2550   52.1620 C   0  0  0  0  0  0  0  0  0  0  0  0
   49.9710   33.2240   52.3830 O   0  0  0  0  0  0  0  0  0  0  0  0
   51.0430   31.8120   50.9310 N   0  0  0  0  0  0  0  0  0  0  0  0
   50.6280   32.3440   49.7320 O   0  0  0  0  0  0  0  0  0  0  0  0
  1  2  1  0
  2  3  2  0
  3  4  1  0
  4  5  2  0
  5  6  1  0
  6  7  1  0
  7  8  2  0
  7  9  1  0
  9 10  1  0
 10 11  2  0
 11 12  1  0
 12 13  2  0
 13 14  1  0
 14 15  2  0
 14 16  1  0
 13 17  1  0
 17 18  2  0
  9 19  1  0
 19 20  2  0
  3 21  1  0
 21 22  1  0
 22 23  2  0
 22 24  1  0
 24 25  1  0
 24  2  1  0
 19  5  1  0
 18 10  1  0
M  CHG  3   6  -1  21  -1  25  -1
M  END
>  <UniqueID>  (3263) 
65

>  <SMILES>  (3263) 
C=c1[n-]/c(=C\c2[n-]c(=O)n([O-])c2O)c(=O)n1-c1ccc(C(C)=O)cc1

>  <Energy>  (3263) 
116.59493625906578

>  <Genealogy>  (3263) 
C=c1[n-]c(=Cc2[n-]c(=O)n([O-])c2O)c(=O)n1-c1ccc(C(C)=O)cc1 (protonated)
C=c1[n-]/c(=C\c2[n-]c(=O)n([O-])c2O)c(=O)n1-c1ccc(C(C)=O)cc1 (cis-trans isomerization)
C=c1[n-]/c(=C\c2[n-]c(=O)n([O-])c2O)c(=O)n1-c1ccc(C(C)=O)cc1 (3D coordinates assigned)
C=c1[n-]/c(=C\c2[n-]c(=O)n([O-])c2O)c(=O)n1-c1ccc(C(C)=O)cc1 (optimized conformer: 116.59493625906578 kcal/mol)

>  <smiles>  (3263) 
C=c1[nH]c(=Cc2[nH]c(=O)n(O)c2O)c(=O)n1-c1ccc(C(C)=O)cc1

>  <score_type>  (3263) 
oracle

>  <origin>  (3263) 
adg

>  <m_score__min__energy>  (3263) 
-15.279999999999999

>  <m_primary>  (3263) 
energy

$$$$
79:0
     RDKit          3D

 35 38  0  0  0  0  0  0  0  0999 V2000
   59.9620   30.4880   46.8360 C   0  0  0  0  0  0  0  0  0  0  0  0
   59.3120   29.3640   46.4960 C   0  0  0  0  0  0  0  0  0  0  0  0
   58.8010   29.1320   45.2590 N   0  0  0  0  0  0  0  0  0  0  0  0
   58.7470   30.0260   44.0960 C   0  0  0  0  0  0  0  0  0  0  0  0
   57.6030   30.9850   44.2540 C   0  0  0  0  0  0  0  0  0  0  0  0
   56.5440   30.5770   44.8020 O   0  0  0  0  0  0  0  0  0  0  0  0
   57.7230   32.3720   43.8910 N   0  0  0  0  0  0  0  0  0  0  0  0
   58.1420   32.7390   42.5340 C   0  0  0  0  0  0  0  0  0  0  0  0
   57.3020   33.4020   44.8480 C   0  0  0  0  0  0  0  0  0  0  0  0
   58.3420   33.5570   45.9250 C   0  0  0  0  0  0  0  0  0  0  0  0
   59.5920   34.1250   45.6290 C   0  0  0  0  0  0  0  0  0  0  0  0
   60.5400   34.3110   46.6420 C   0  0  0  0  0  0  0  0  0  0  0  0
   60.2420   33.9450   47.9560 C   0  0  0  0  0  0  0  0  0  0  0  0
   58.9950   33.3930   48.2610 C   0  0  0  0  0  0  0  0  0  0  0  0
   58.0450   33.2040   47.2510 C   0  0  0  0  0  0  0  0  0  0  0  0
   58.2280   27.9190   45.3460 C   0  0  0  0  0  0  0  0  0  0  0  0
   57.6210   27.3560   44.3950 O   0  0  0  0  0  0  0  0  0  0  0  0
   58.3740   27.4170   46.6230 C   0  0  0  0  0  0  0  0  0  0  0  0
   57.8460   26.2450   47.0290 C   0  0  0  0  0  0  0  0  0  0  0  0
   56.5760   25.6730   46.5590 C   0  0  0  0  0  0  0  0  0  0  0  0
   56.1800   24.4040   46.7750 N   0  0  0  0  0  0  0  0  0  0  0  0
   54.9290   24.3810   46.2640 C   0  0  0  0  0  0  0  0  0  0  0  0
   54.2180   23.3420   46.2640 O   0  0  0  0  0  0  0  0  0  0  0  0
   54.4980   25.5600   45.7610 N   0  0  0  0  0  0  0  0  0  0  0  0
   55.5480   26.3700   45.9680 C   0  0  0  0  0  0  0  0  0  0  0  0
   55.5670   27.7170   45.6240 O   0  0  0  0  0  0  0  0  0  0  0  0
   59.0980   28.3180   47.3510 N   0  0  0  0  0  0  0  0  0  0  0  0
   59.8660   28.0800   48.5930 C   0  0  0  0  0  0  0  0  0  0  0  0
   59.7380   29.2590   49.5260 C   0  0  0  0  0  0  0  0  0  0  0  0
   60.8910   29.8870   50.0220 C   0  0  0  0  0  0  0  0  0  0  0  0
   60.7830   30.9880   50.8770 C   0  0  0  0  0  0  0  0  0  0  0  0
   59.5240   31.4660   51.2490 C   0  0  0  0  0  0  0  0  0  0  0  0
   58.3680   30.8400   50.7740 C   0  0  0  0  0  0  0  0  0  0  0  0
   57.1190   31.3220   51.1580 O   0  0  0  0  0  0  0  0  0  0  0  0
   58.4750   29.7350   49.9140 C   0  0  0  0  0  0  0  0  0  0  0  0
  1  2  2  0
  2  3  1  0
  3  4  1  0
  4  5  1  0
  5  6  2  0
  5  7  1  0
  7  8  1  0
  7  9  1  0
  9 10  1  0
 10 11  2  0
 11 12  1  0
 12 13  2  0
 13 14  1  0
 14 15  2  0
  3 16  1  0
 16 17  2  0
 16 18  1  0
 18 19  2  3
 19 20  1  0
 20 21  1  0
 21 22  1  0
 22 23  2  0
 22 24  1  0
 24 25  1  0
 25 26  1  0
 18 27  1  0
 27 28  1  0
 28 29  1  0
 29 30  2  0
 30 31  1  0
 31 32  2  0
 32 33  1  0
 33 34  1  0
 33 35  2  0
 27  2  1  0
 35 29  1  0
 15 10  1  0
 25 20  2  0
M  CHG  3  21  -1  24  -1  26  -1
M  END
>  <UniqueID>  (3264) 
72

>  <SMILES>  (3264) 
C=c1n(CC(=O)N(C)Cc2ccccc2)c(=O)c(=Cc2[n-]c(=O)[n-]c2[O-])n1Cc1cccc(O)c1

>  <Energy>  (3264) 
133.34767321574907

>  <Genealogy>  (3264) 
C=c1n(CC(=O)N(C)Cc2ccccc2)c(=O)c(=Cc2[n-]c(=O)[n-]c2[O-])n1Cc1cccc(O)c1 (protonated)
C=c1n(CC(=O)N(C)Cc2ccccc2)c(=O)c(=Cc2[n-]c(=O)[n-]c2[O-])n1Cc1cccc(O)c1 (3D coordinates assigned)
C=c1n(CC(=O)N(C)Cc2ccccc2)c(=O)c(=Cc2[n-]c(=O)[n-]c2[O-])n1Cc1cccc(O)c1 (optimized conformer: 133.34767321574907 kcal/mol)

>  <smiles>  (3264) 
C=c1n(CC(=O)N(C)Cc2ccccc2)c(=O)c(=Cc2[nH]c(=O)[nH]c2O)n1Cc1cccc(O)c1

>  <score_type>  (3264) 
oracle

>  <origin>  (3264) 
adg

>  <m_score__min__energy>  (3264) 
-16.23

>  <m_primary>  (3264) 
energy

$$$$
89:0
     RDKit          3D

 26 28  0  0  0  0  0  0  0  0999 V2000
   53.9310   27.8830   53.1470 C   0  0  0  0  0  0  0  0  0  0  0  0
   54.4070   29.1260   52.9750 C   0  0  0  0  0  0  0  0  0  0  0  0
   53.7130   30.2270   52.4490 C   0  0  0  0  0  0  0  0  0  0  0  0
   52.4010   30.4110   52.2030 C   0  0  0  0  0  0  0  0  0  0  0  0
   51.8230   30.8510   50.9230 C   0  0  0  0  0  0  0  0  0  0  0  0
   51.7090   30.0800   49.8260 N   0  0  0  0  0  0  0  0  0  0  0  0
   51.0060   30.8550   48.9710 C   0  0  0  0  0  0  0  0  0  0  0  0
   50.7050   30.4810   47.8080 O   0  0  0  0  0  0  0  0  0  0  0  0
   50.6430   32.0580   49.4650 N   0  0  0  0  0  0  0  0  0  0  0  0
   51.1560   32.0320   50.7060 C   0  0  0  0  0  0  0  0  0  0  0  0
   51.0120   33.0650   51.6230 O   0  0  0  0  0  0  0  0  0  0  0  0
   54.6650   31.1980   52.1960 C   0  0  0  0  0  0  0  0  0  0  0  0
   55.8740   30.7020   52.6390 C   0  0  0  0  0  0  0  0  0  0  0  0
   57.1830   31.4290   52.4890 C   0  0  0  0  0  0  0  0  0  0  0  0
   57.8050   31.1110   51.1640 C   0  0  0  0  0  0  0  0  0  0  0  0
   58.3240   29.9770   50.9800 O   0  0  0  0  0  0  0  0  0  0  0  0
   57.7430   32.0710   50.0970 N   0  0  0  0  0  0  0  0  0  0  0  0
   58.4150   31.9180   48.8350 C   0  0  0  0  0  0  0  0  0  0  0  0
   59.2220   30.7970   48.5620 C   0  0  0  0  0  0  0  0  0  0  0  0
   59.8820   30.6860   47.3360 C   0  0  0  0  0  0  0  0  0  0  0  0
   59.7570   31.6940   46.3770 C   0  0  0  0  0  0  0  0  0  0  0  0
   58.9760   32.8210   46.6460 C   0  0  0  0  0  0  0  0  0  0  0  0
   58.8150   34.2070   45.3410 Br  0  0  0  0  0  0  0  0  0  0  0  0
   58.3140   32.9370   47.8740 C   0  0  0  0  0  0  0  0  0  0  0  0
   55.7180   29.4500   53.1310 N   0  0  0  0  0  0  0  0  0  0  0  0
   56.7900   28.5560   53.5870 C   0  0  0  0  0  0  0  0  0  0  0  0
  1  2  2  0
  2  3  1  0
  3  4  2  0
  4  5  1  0
  5  6  1  0
  6  7  1  0
  7  8  2  0
  7  9  1  0
  9 10  1  0
 10 11  1  0
  3 12  1  0
 12 13  2  0
 13 14  1  0
 14 15  1  0
 15 16  2  0
 15 17  1  0
 17 18  1  0
 18 19  2  0
 19 20  1  0
 20 21  2  0
 21 22  1  0
 22 23  1  0
 22 24  2  0
 13 25  1  0
 25 26  1  0
 25  2  1  0
 10  5  2  0
 24 18  1  0
M  CHG  3   6  -1   9  -1  11  -1
M  END
>  <UniqueID>  (3265) 
81

>  <SMILES>  (3265) 
C=c1/c(=C\c2[n-]c(=O)[n-]c2[O-])cc(CC(=O)Nc2cccc(Br)c2)n1C

>  <Energy>  (3265) 
112.24147939720703

>  <Genealogy>  (3265) 
C=c1c(=Cc2[n-]c(=O)[n-]c2[O-])cc(CC(=O)Nc2cccc(Br)c2)n1C (protonated)
C=c1/c(=C\c2[n-]c(=O)[n-]c2[O-])cc(CC(=O)Nc2cccc(Br)c2)n1C (cis-trans isomerization)
C=c1/c(=C\c2[n-]c(=O)[n-]c2[O-])cc(CC(=O)Nc2cccc(Br)c2)n1C (3D coordinates assigned)
C=c1/c(=C\c2[n-]c(=O)[n-]c2[O-])cc(CC(=O)Nc2cccc(Br)c2)n1C (optimized conformer: 112.24147939720703 kcal/mol)

>  <smiles>  (3265) 
C=c1c(=Cc2[nH]c(=O)[nH]c2O)cc(CC(=O)Nc2cccc(Br)c2)n1C

>  <score_type>  (3265) 
oracle

>  <origin>  (3265) 
adg

>  <m_score__min__energy>  (3265) 
-18.09

>  <m_primary>  (3265) 
energy

$$$$
2:0
     RDKit          3D

 30 32  0  0  0  0  0  0  0  0999 V2000
   58.8850   27.4050   47.4320 C   0  0  0  0  0  0  0  0  0  0  0  0
   58.5560   28.0900   46.3250 C   0  0  0  0  0  0  0  0  0  0  0  0
   58.0940   27.5550   45.1130 C   0  0  0  0  0  0  0  0  0  0  0  0
   57.6950   26.3090   44.7850 C   0  0  0  0  0  0  0  0  0  0  0  0
   57.1050   25.3260   45.7080 C   0  0  0  0  0  0  0  0  0  0  0  0
   57.7810   24.3010   46.2610 N   0  0  0  0  0  0  0  0  0  0  0  0
   56.8910   23.7710   47.1270 C   0  0  0  0  0  0  0  0  0  0  0  0
   57.1520   22.7650   47.8360 O   0  0  0  0  0  0  0  0  0  0  0  0
   55.7030   24.4100   47.1800 N   0  0  0  0  0  0  0  0  0  0  0  0
   55.8590   25.4010   46.2870 C   0  0  0  0  0  0  0  0  0  0  0  0
   54.8750   26.3480   46.0130 O   0  0  0  0  0  0  0  0  0  0  0  0
   58.0630   28.6040   44.2130 C   0  0  0  0  0  0  0  0  0  0  0  0
   58.4420   29.7370   44.9000 C   0  0  0  0  0  0  0  0  0  0  0  0
   58.3870   31.1210   44.3120 C   0  0  0  0  0  0  0  0  0  0  0  0
   57.2980   31.2120   43.2480 C   0  0  0  0  0  0  0  0  0  0  0  0
   58.7390   29.4340   46.1890 N   0  0  0  0  0  0  0  0  0  0  0  0
   59.2220   30.3710   47.2190 C   0  0  0  0  0  0  0  0  0  0  0  0
   60.7590   30.3710   47.3130 C   0  0  0  0  0  0  0  0  0  0  0  0
   61.2950   31.0210   48.5940 C   0  0  0  0  0  0  0  0  0  0  0  0
   62.5450   31.7390   48.3300 N   0  0  0  0  0  0  0  0  0  0  0  0
   62.2690   33.4440   48.1150 S   0  0  0  0  0  0  0  0  0  0  0  0
   63.3840   34.0210   47.2900 O   0  0  0  0  0  0  0  0  0  0  0  0
   62.2660   34.1290   49.4540 O   0  0  0  0  0  0  0  0  0  0  0  0
   60.7390   33.7220   47.2890 C   0  0  0  0  0  0  0  0  0  0  0  0
   59.5260   33.6220   47.9840 C   0  0  0  0  0  0  0  0  0  0  0  0
   58.3140   33.8100   47.3130 C   0  0  0  0  0  0  0  0  0  0  0  0
   58.3020   34.1090   45.9420 C   0  0  0  0  0  0  0  0  0  0  0  0
   57.0010   34.2670   45.2130 C   0  0  0  0  0  0  0  0  0  0  0  0
   59.5180   34.1860   45.2430 C   0  0  0  0  0  0  0  0  0  0  0  0
   60.7290   33.9990   45.9160 C   0  0  0  0  0  0  0  0  0  0  0  0
  1  2  2  0
  2  3  1  0
  3  4  2  3
  4  5  1  0
  5  6  1  0
  6  7  1  0
  7  8  2  0
  7  9  1  0
  9 10  1  0
 10 11  1  0
  3 12  1  0
 12 13  2  0
 13 14  1  0
 14 15  1  0
 13 16  1  0
 16 17  1  0
 17 18  1  0
 18 19  1  0
 19 20  1  0
 20 21  1  0
 21 22  2  0
 21 23  2  0
 21 24  1  0
 24 25  2  0
 25 26  1  0
 26 27  2  0
 27 28  1  0
 27 29  1  0
 29 30  2  0
 16  2  1  0
 30 24  1  0
 10  5  2  0
M  CHG  3   6  -1   9  -1  20  -1
M  END
>  <UniqueID>  (3266) 
3

>  <SMILES>  (3266) 
C=c1c(=Cc2[n-]c(=O)[n-]c2O)cc(CC)n1CCC[N-]S(=O)(=O)c1ccc(C)cc1

>  <Energy>  (3266) 
115.17731096861931

>  <Genealogy>  (3266) 
C=c1c(=Cc2[n-]c(=O)[n-]c2O)cc(CC)n1CCC[N-]S(=O)(=O)c1ccc(C)cc1 (protonated)
C=c1c(=Cc2[n-]c(=O)[n-]c2O)cc(CC)n1CCC[N-]S(=O)(=O)c1ccc(C)cc1 (3D coordinates assigned)
C=c1c(=Cc2[n-]c(=O)[n-]c2O)cc(CC)n1CCC[N-]S(=O)(=O)c1ccc(C)cc1 (optimized conformer: 115.17731096861931 kcal/mol)

>  <smiles>  (3266) 
C=c1c(=Cc2[nH]c(=O)[nH]c2O)cc(CC)n1CCCNS(=O)(=O)c1ccc(C)cc1

>  <score_type>  (3266) 
oracle

>  <origin>  (3266) 
adg

>  <m_score__min__energy>  (3266) 
-14.68

>  <m_primary>  (3266) 
energy

$$$$
5:0
     RDKit          3D

 29 32  0  0  0  0  0  0  0  0999 V2000
   57.0400   31.1820   44.2620 C   0  0  0  0  0  0  0  0  0  0  0  0
   57.3730   30.0470   44.8850 C   0  0  0  0  0  0  0  0  0  0  0  0
   57.1790   28.8580   44.2490 N   0  0  0  0  0  0  0  0  0  0  0  0
   57.6610   27.8080   44.9480 C   0  0  0  0  0  0  0  0  0  0  0  0
   57.6500   26.4030   44.4380 C   0  0  0  0  0  0  0  0  0  0  0  0
   57.2010   25.4590   45.5270 C   0  0  0  0  0  0  0  0  0  0  0  0
   55.9620   25.6350   46.1690 C   0  0  0  0  0  0  0  0  0  0  0  0
   55.1360   26.7030   45.8390 O   0  0  0  0  0  0  0  0  0  0  0  0
   55.5600   24.7560   47.1240 N   0  0  0  0  0  0  0  0  0  0  0  0
   56.3320   23.6950   47.4690 C   0  0  0  0  0  0  0  0  0  0  0  0
   55.8220   22.6560   48.6180 S   0  0  0  0  0  0  0  0  0  0  0  0
   57.5240   23.4920   46.8520 N   0  0  0  0  0  0  0  0  0  0  0  0
   57.9720   24.3400   45.8910 C   0  0  0  0  0  0  0  0  0  0  0  0
   59.0790   24.1110   45.3360 O   0  0  0  0  0  0  0  0  0  0  0  0
   58.3820   28.3070   46.3750 S   0  0  0  0  0  0  0  0  0  0  0  0
   58.0200   29.9360   46.1420 C   0  0  0  0  0  0  0  0  0  0  0  0
   58.3260   30.8650   47.0670 C   0  0  0  0  0  0  0  0  0  0  0  0
   59.5810   31.6350   47.1360 C   0  0  0  0  0  0  0  0  0  0  0  0
   59.7920   32.6890   46.2390 C   0  0  0  0  0  0  0  0  0  0  0  0
   60.9290   33.3760   46.2540 O   0  0  0  0  0  0  0  0  0  0  0  0
   61.9210   33.1030   47.0950 C   0  0  0  0  0  0  0  0  0  0  0  0
   63.0890   33.8690   47.0580 C   0  0  0  0  0  0  0  0  0  0  0  0
   64.1430   33.5900   47.9320 C   0  0  0  0  0  0  0  0  0  0  0  0
   64.0340   32.5470   48.8630 C   0  0  0  0  0  0  0  0  0  0  0  0
   65.1840   32.2250   49.7730 C   0  0  0  0  0  0  0  0  0  0  0  0
   62.8700   31.7620   48.8940 C   0  0  0  0  0  0  0  0  0  0  0  0
   61.8050   32.0400   48.0180 C   0  0  0  0  0  0  0  0  0  0  0  0
   60.6160   31.2880   48.0220 C   0  0  0  0  0  0  0  0  0  0  0  0
   60.4780   30.3100   48.8070 O   0  0  0  0  0  0  0  0  0  0  0  0
  1  2  2  0
  2  3  1  0
  3  4  2  0
  4  5  1  0
  5  6  1  0
  6  7  2  0
  7  8  1  0
  7  9  1  0
  9 10  1  0
 10 11  2  0
 10 12  1  0
 12 13  1  0
 13 14  2  0
  4 15  1  0
 15 16  1  0
 16 17  2  0
 17 18  1  0
 18 19  2  0
 19 20  1  0
 20 21  1  0
 21 22  2  0
 22 23  1  0
 23 24  2  0
 24 25  1  0
 24 26  1  0
 26 27  2  0
 27 28  1  0
 28 29  2  0
 16  2  1  0
 28 18  1  0
 13  6  1  0
 27 21  1  0
M  CHG  3   8  -1   9  -1  12  -1
M  END
>  <UniqueID>  (3267) 
6

>  <SMILES>  (3267) 
C=c1nc(Cc2c([O-])[n-]c(=S)[n-]c2=O)s/c1=C/c1coc2ccc(C)cc2c1=O

>  <Energy>  (3267) 
94.51024153196914

>  <Genealogy>  (3267) 
C=c1nc(Cc2c([O-])[n-]c(=S)[n-]c2=O)sc1=Cc1coc2ccc(C)cc2c1=O (protonated)
C=c1nc(Cc2c([O-])[n-]c(=S)[n-]c2=O)s/c1=C/c1coc2ccc(C)cc2c1=O (cis-trans isomerization)
C=c1nc(Cc2c([O-])[n-]c(=S)[n-]c2=O)s/c1=C/c1coc2ccc(C)cc2c1=O (3D coordinates assigned)
C=c1nc(Cc2c([O-])[n-]c(=S)[n-]c2=O)s/c1=C/c1coc2ccc(C)cc2c1=O (optimized conformer: 94.51024153196914 kcal/mol)

>  <smiles>  (3267) 
C=c1nc(Cc2c(O)[nH]c(=S)[nH]c2=O)sc1=Cc1coc2ccc(C)cc2c1=O

>  <score_type>  (3267) 
oracle

>  <origin>  (3267) 
adg

>  <m_score__min__energy>  (3267) 
-15.85

>  <m_primary>  (3267) 
energy

$$$$
18:0
     RDKit          3D

 33 37  0  0  0  0  0  0  0  0999 V2000
   59.6050   28.7140   46.9620 C   0  0  0  0  0  0  0  0  0  0  0  0
   58.6540   28.9640   46.0470 C   0  0  0  0  0  0  0  0  0  0  0  0
   57.9100   28.0230   45.3170 C   0  0  0  0  0  0  0  0  0  0  0  0
   58.0580   26.6890   45.1920 C   0  0  0  0  0  0  0  0  0  0  0  0
   57.3260   25.6770   45.9690 C   0  0  0  0  0  0  0  0  0  0  0  0
   57.9100   24.6190   46.5550 N   0  0  0  0  0  0  0  0  0  0  0  0
   56.8960   24.0450   47.2410 C   0  0  0  0  0  0  0  0  0  0  0  0
   57.0460   22.9960   47.9200 O   0  0  0  0  0  0  0  0  0  0  0  0
   55.7120   24.6900   47.1500 N   0  0  0  0  0  0  0  0  0  0  0  0
   56.0060   25.7290   46.3520 C   0  0  0  0  0  0  0  0  0  0  0  0
   55.0930   26.7180   46.0030 O   0  0  0  0  0  0  0  0  0  0  0  0
   56.9100   28.7320   44.6730 C   0  0  0  0  0  0  0  0  0  0  0  0
   57.1120   30.0640   44.9670 C   0  0  0  0  0  0  0  0  0  0  0  0
   56.2560   31.1850   44.4640 C   0  0  0  0  0  0  0  0  0  0  0  0
   58.1650   30.2060   45.8030 N   0  0  0  0  0  0  0  0  0  0  0  0
   58.6090   31.4400   46.3940 C   0  0  0  0  0  0  0  0  0  0  0  0
   58.7720   31.5330   47.7830 C   0  0  0  0  0  0  0  0  0  0  0  0
   59.1590   32.7460   48.3740 C   0  0  0  0  0  0  0  0  0  0  0  0
   59.2890   32.8580   49.7990 N   0  0  0  0  0  0  0  0  0  0  0  0
   58.1950   32.4520   50.6800 C   0  0  0  0  0  0  0  0  0  0  0  0
   58.7650   31.8060   51.9510 C   0  0  0  0  0  0  0  0  0  0  0  0
   59.8340   32.6110   52.5890 N   0  0  0  0  0  0  0  0  0  0  0  0
   59.3040   33.7450   53.3270 C   0  0  0  0  0  0  0  0  0  0  0  0
   58.6000   34.5770   52.7740 O   0  0  0  0  0  0  0  0  0  0  0  0
   59.6790   33.9670   54.7690 C   0  0  0  0  0  0  0  0  0  0  0  0
   58.8860   35.0460   55.4930 C   0  0  0  0  0  0  0  0  0  0  0  0
   60.3130   35.3230   55.0530 C   0  0  0  0  0  0  0  0  0  0  0  0
   60.8990   33.0110   51.6410 C   0  0  0  0  0  0  0  0  0  0  0  0
   60.3580   33.6770   50.3690 C   0  0  0  0  0  0  0  0  0  0  0  0
   59.4040   33.8620   47.5620 C   0  0  0  0  0  0  0  0  0  0  0  0
   59.2550   33.7700   46.1750 C   0  0  0  0  0  0  0  0  0  0  0  0
   58.8510   32.5670   45.5910 C   0  0  0  0  0  0  0  0  0  0  0  0
   58.6630   32.5070   44.2490 F   0  0  0  0  0  0  0  0  0  0  0  0
  1  2  2  0
  2  3  1  0
  3  4  2  3
  4  5  1  0
  5  6  1  0
  6  7  1  0
  7  8  2  0
  7  9  1  0
  9 10  1  0
 10 11  1  0
  3 12  1  0
 12 13  2  0
 13 14  1  0
 13 15  1  0
 15 16  1  0
 16 17  2  0
 17 18  1  0
 18 19  1  0
 19 20  1  0
 20 21  1  0
 21 22  1  0
 22 23  1  0
 23 24  2  0
 23 25  1  0
 25 26  1  0
 26 27  1  0
 22 28  1  0
 28 29  1  0
 18 30  2  0
 30 31  1  0
 31 32  2  0
 32 33  1  0
 15  2  1  0
 32 16  1  0
 10  5  2  0
 29 19  1  0
 27 25  1  0
M  CHG  4   6  -1   9  -1  11  -1  22   1
M  END
>  <UniqueID>  (3268) 
19

>  <SMILES>  (3268) 
C=c1c(=Cc2[n-]c(=O)[n-]c2[O-])cc(C)n1-c1cc(N2CC[NH+](C(=O)C3CC3)CC2)ccc1F

>  <Energy>  (3268) 
408.2103921459396

>  <Genealogy>  (3268) 
C=c1c(=Cc2[n-]c(=O)[n-]c2[O-])cc(C)n1-c1cc(N2CC[NH+](C(=O)C3CC3)CC2)ccc1F (protonated)
C=c1c(=Cc2[n-]c(=O)[n-]c2[O-])cc(C)n1-c1cc(N2CC[NH+](C(=O)C3CC3)CC2)ccc1F (3D coordinates assigned)
C=c1c(=Cc2[n-]c(=O)[n-]c2[O-])cc(C)n1-c1cc(N2CC[NH+](C(=O)C3CC3)CC2)ccc1F (nonaromatic ring conformer: 408.2103921459396 kcal/mol)

>  <smiles>  (3268) 
C=c1c(=Cc2[nH]c(=O)[nH]c2O)cc(C)n1-c1cc(N2CCN(C(=O)C3CC3)CC2)ccc1F

>  <score_type>  (3268) 
oracle

>  <origin>  (3268) 
adg

>  <m_score__min__energy>  (3268) 
-15.789999999999999

>  <m_primary>  (3268) 
energy

$$$$
22:0
     RDKit          3D

 24 26  0  0  0  0  0  0  0  0999 V2000
   56.2560   29.5120   42.8680 C   0  0  0  0  0  0  0  0  0  0  0  0
   56.8830   29.3740   44.0400 C   0  0  0  0  0  0  0  0  0  0  0  0
   57.6940   30.2990   44.6180 N   0  0  0  0  0  0  0  0  0  0  0  0
   58.0620   31.6460   44.1520 C   0  0  0  0  0  0  0  0  0  0  0  0
   57.2340   32.7420   44.8460 C   0  0  0  0  0  0  0  0  0  0  0  0
   57.9990   34.0580   45.0690 C   0  0  0  0  0  0  0  0  0  0  0  0
   58.9420   34.0030   46.2450 C   0  0  0  0  0  0  0  0  0  0  0  0
   60.3090   34.2940   46.0800 C   0  0  0  0  0  0  0  0  0  0  0  0
   61.1810   34.2310   47.1710 C   0  0  0  0  0  0  0  0  0  0  0  0
   60.7020   33.8650   48.4310 C   0  0  0  0  0  0  0  0  0  0  0  0
   59.3510   33.5520   48.6000 C   0  0  0  0  0  0  0  0  0  0  0  0
   58.4760   33.6110   47.5120 C   0  0  0  0  0  0  0  0  0  0  0  0
   58.1330   29.7030   45.7480 C   0  0  0  0  0  0  0  0  0  0  0  0
   58.9060   30.2570   46.5740 O   0  0  0  0  0  0  0  0  0  0  0  0
   57.5810   28.4330   45.8550 C   0  0  0  0  0  0  0  0  0  0  0  0
   57.7260   27.5050   46.8180 C   0  0  0  0  0  0  0  0  0  0  0  0
   57.1560   26.1440   46.8080 C   0  0  0  0  0  0  0  0  0  0  0  0
   57.8320   25.0100   47.0700 N   0  0  0  0  0  0  0  0  0  0  0  0
   56.9250   24.0390   46.8290 C   0  0  0  0  0  0  0  0  0  0  0  0
   57.1850   22.8160   46.9770 O   0  0  0  0  0  0  0  0  0  0  0  0
   55.7210   24.4810   46.4090 N   0  0  0  0  0  0  0  0  0  0  0  0
   55.8890   25.8120   46.3910 C   0  0  0  0  0  0  0  0  0  0  0  0
   54.9030   26.7090   45.9960 O   0  0  0  0  0  0  0  0  0  0  0  0
   56.7880   28.2470   44.7790 N   0  0  0  0  0  0  0  0  0  0  0  0
  1  2  2  0
  2  3  1  0
  3  4  1  0
  4  5  1  0
  5  6  1  0
  6  7  1  0
  7  8  2  0
  8  9  1  0
  9 10  2  0
 10 11  1  0
 11 12  2  0
  3 13  1  0
 13 14  2  0
 13 15  1  0
 15 16  2  0
 16 17  1  0
 17 18  1  0
 18 19  1  0
 19 20  2  0
 19 21  1  0
 21 22  1  0
 22 23  1  0
 15 24  1  0
 24  2  1  0
 12  7  1  0
 22 17  2  0
M  CHG  3  18  -1  21  -1  23  -1
M  END
>  <UniqueID>  (3269) 
23

>  <SMILES>  (3269) 
C=c1[nH]/c(=C/c2[n-]c(=O)[n-]c2[O-])c(=O)n1CCCc1ccccc1

>  <Energy>  (3269) 
107.56897958779757

>  <Genealogy>  (3269) 
C=c1[nH]c(=Cc2[n-]c(=O)[n-]c2[O-])c(=O)n1CCCc1ccccc1 (protonated)
C=c1[nH]/c(=C/c2[n-]c(=O)[n-]c2[O-])c(=O)n1CCCc1ccccc1 (cis-trans isomerization)
C=c1[nH]/c(=C/c2[n-]c(=O)[n-]c2[O-])c(=O)n1CCCc1ccccc1 (3D coordinates assigned)
C=c1[nH]/c(=C/c2[n-]c(=O)[n-]c2[O-])c(=O)n1CCCc1ccccc1 (optimized conformer: 107.56897958779757 kcal/mol)

>  <smiles>  (3269) 
C=c1[nH]c(=Cc2[nH]c(=O)[nH]c2O)c(=O)n1CCCc1ccccc1

>  <score_type>  (3269) 
oracle

>  <origin>  (3269) 
adg

>  <m_score__min__energy>  (3269) 
-15.699999999999999

>  <m_primary>  (3269) 
energy

$$$$
34:0
     RDKit          3D

 27 29  0  0  0  0  0  0  0  0999 V2000
   57.3870   33.9450   45.7430 C   0  0  0  0  0  0  0  0  0  0  0  0
   57.0210   32.6990   45.4280 C   0  0  0  0  0  0  0  0  0  0  0  0
   57.7960   31.8620   44.4500 C   0  0  0  0  0  0  0  0  0  0  0  0
   57.8310   30.4660   44.9080 N   0  0  0  0  0  0  0  0  0  0  0  0
   58.2740   30.0350   46.1140 C   0  0  0  0  0  0  0  0  0  0  0  0
   58.7410   30.9130   47.2410 C   0  0  0  0  0  0  0  0  0  0  0  0
   60.1720   30.5980   47.5920 C   0  0  0  0  0  0  0  0  0  0  0  0
   60.4180   29.5950   48.2500 O   0  0  0  0  0  0  0  0  0  0  0  0
   61.2470   31.4600   47.1400 N   0  0  0  0  0  0  0  0  0  0  0  0
   62.3590   31.4280   48.1170 C   0  0  0  0  0  0  0  0  0  0  0  0
   63.5550   32.2550   47.6230 C   0  0  0  0  0  0  0  0  0  0  0  0
   63.0970   33.6200   47.1950 C   0  0  0  0  0  0  0  0  0  0  0  0
   63.7850   34.6010   47.4300 O   0  0  0  0  0  0  0  0  0  0  0  0
   61.8430   33.7520   46.3800 C   0  0  0  0  0  0  0  0  0  0  0  0
   60.7480   32.8390   46.9470 C   0  0  0  0  0  0  0  0  0  0  0  0
   58.1610   28.6630   46.2050 C   0  0  0  0  0  0  0  0  0  0  0  0
   57.6860   28.2140   44.9870 C   0  0  0  0  0  0  0  0  0  0  0  0
   57.5380   26.9050   44.7030 C   0  0  0  0  0  0  0  0  0  0  0  0
   57.0650   25.8730   45.6380 C   0  0  0  0  0  0  0  0  0  0  0  0
   57.8380   24.9080   46.1710 N   0  0  0  0  0  0  0  0  0  0  0  0
   57.0120   24.2980   47.0490 C   0  0  0  0  0  0  0  0  0  0  0  0
   57.3710   23.3130   47.7460 O   0  0  0  0  0  0  0  0  0  0  0  0
   55.7740   24.8320   47.1300 N   0  0  0  0  0  0  0  0  0  0  0  0
   55.8300   25.8360   46.2400 C   0  0  0  0  0  0  0  0  0  0  0  0
   54.7730   26.7030   45.9840 O   0  0  0  0  0  0  0  0  0  0  0  0
   57.4520   29.3600   44.2100 C   0  0  0  0  0  0  0  0  0  0  0  0
   56.8310   29.4130   43.0200 C   0  0  0  0  0  0  0  0  0  0  0  0
  1  2  2  0
  2  3  1  0
  3  4  1  0
  4  5  1  0
  5  6  1  0
  6  7  1  0
  7  8  2  0
  7  9  1  0
  9 10  1  0
 10 11  1  0
 11 12  1  0
 12 13  2  0
 12 14  1  0
 14 15  1  0
  5 16  2  0
 16 17  1  0
 17 18  2  3
 18 19  1  0
 19 20  1  0
 20 21  1  0
 21 22  2  0
 21 23  1  0
 23 24  1  0
 24 25  1  0
 17 26  1  0
 26 27  2  0
 26  4  1  0
 15  9  1  0
 24 19  2  0
M  CHG  4   9   1  20  -1  23  -1  25  -1
M  END
>  <UniqueID>  (3270) 
35

>  <SMILES>  (3270) 
C=CCn1c(CC(=O)[NH+]2CCC(=O)CC2)cc(=Cc2[n-]c(=O)[n-]c2[O-])c1=C

>  <Energy>  (3270) 
111.79317428277388

>  <Genealogy>  (3270) 
C=CCn1c(CC(=O)[NH+]2CCC(=O)CC2)cc(=Cc2[n-]c(=O)[n-]c2[O-])c1=C (protonated)
C=CCn1c(CC(=O)[NH+]2CCC(=O)CC2)cc(=Cc2[n-]c(=O)[n-]c2[O-])c1=C (3D coordinates assigned)
C=CCn1c(CC(=O)[NH+]2CCC(=O)CC2)cc(=Cc2[n-]c(=O)[n-]c2[O-])c1=C (nonaromatic ring conformer: 111.79317428277388 kcal/mol)

>  <smiles>  (3270) 
C=CCn1c(CC(=O)N2CCC(=O)CC2)cc(=Cc2[nH]c(=O)[nH]c2O)c1=C

>  <score_type>  (3270) 
oracle

>  <origin>  (3270) 
adg

>  <m_score__min__energy>  (3270) 
-15.49

>  <m_primary>  (3270) 
energy

$$$$
50:0
     RDKit          3D

 32 35  0  0  0  0  0  0  0  0999 V2000
   59.8750   29.2740   47.2640 C   0  0  0  0  0  0  0  0  0  0  0  0
   59.1320   29.6390   46.2080 C   0  0  0  0  0  0  0  0  0  0  0  0
   58.5420   28.7990   45.2490 C   0  0  0  0  0  0  0  0  0  0  0  0
   58.3950   27.4600   45.2150 C   0  0  0  0  0  0  0  0  0  0  0  0
   57.1880   26.7190   45.6140 C   0  0  0  0  0  0  0  0  0  0  0  0
   57.1900   25.4930   46.1720 N   0  0  0  0  0  0  0  0  0  0  0  0
   55.8930   25.2940   46.4910 C   0  0  0  0  0  0  0  0  0  0  0  0
   55.4830   24.2320   47.0280 O   0  0  0  0  0  0  0  0  0  0  0  0
   55.0730   26.3260   46.1990 N   0  0  0  0  0  0  0  0  0  0  0  0
   55.9120   27.2230   45.6590 C   0  0  0  0  0  0  0  0  0  0  0  0
   55.5200   28.4820   45.2200 O   0  0  0  0  0  0  0  0  0  0  0  0
   58.0620   29.6300   44.2500 C   0  0  0  0  0  0  0  0  0  0  0  0
   58.3140   30.9260   44.6490 C   0  0  0  0  0  0  0  0  0  0  0  0
   57.9330   32.1510   43.8770 C   0  0  0  0  0  0  0  0  0  0  0  0
   58.9470   30.9320   45.8420 N   0  0  0  0  0  0  0  0  0  0  0  0
   59.4180   32.1070   46.5250 C   0  0  0  0  0  0  0  0  0  0  0  0
   60.7850   32.2560   46.8030 C   0  0  0  0  0  0  0  0  0  0  0  0
   61.2570   33.4010   47.4680 C   0  0  0  0  0  0  0  0  0  0  0  0
   62.7030   33.5570   47.7520 C   0  0  0  0  0  0  0  0  0  0  0  0
   63.4180   34.2420   46.9690 O   0  0  0  0  0  0  0  0  0  0  0  0
   63.3040   32.9650   48.9150 N   0  0  0  0  0  0  0  0  0  0  0  0
   64.1120   33.7970   49.8230 C   0  0  0  0  0  0  0  0  0  0  0  0
   65.2080   32.9690   50.4170 C   0  0  0  0  0  0  0  0  0  0  0  0
   66.3340   33.4830   50.6570 O   0  0  0  0  0  0  0  0  0  0  0  0
   64.9430   31.5950   50.7240 N   0  0  0  0  0  0  0  0  0  0  0  0
   66.0210   30.7040   51.1540 C   0  0  0  0  0  0  0  0  0  0  0  0
   63.5630   31.1200   50.5870 C   0  0  0  0  0  0  0  0  0  0  0  0
   62.9770   31.5640   49.2380 C   0  0  0  0  0  0  0  0  0  0  0  0
   60.3430   34.4070   47.8280 C   0  0  0  0  0  0  0  0  0  0  0  0
   58.9820   34.2600   47.5480 C   0  0  0  0  0  0  0  0  0  0  0  0
   58.5180   33.1150   46.8990 C   0  0  0  0  0  0  0  0  0  0  0  0
   57.1930   32.9790   46.6420 F   0  0  0  0  0  0  0  0  0  0  0  0
  1  2  2  0
  2  3  1  0
  3  4  2  0
  4  5  1  0
  5  6  1  0
  6  7  1  0
  7  8  2  0
  7  9  1  0
  9 10  1  0
 10 11  1  0
  3 12  1  0
 12 13  2  0
 13 14  1  0
 13 15  1  0
 15 16  1  0
 16 17  2  0
 17 18  1  0
 18 19  1  0
 19 20  2  0
 19 21  1  0
 21 22  1  0
 22 23  1  0
 23 24  2  0
 23 25  1  0
 25 26  1  0
 25 27  1  0
 27 28  1  0
 18 29  2  0
 29 30  1  0
 30 31  2  0
 31 32  1  0
 15  2  1  0
 31 16  1  0
 10  5  2  0
 28 21  1  0
M  CHG  3   6  -1   9  -1  11  -1
M  END
>  <UniqueID>  (3271) 
50

>  <SMILES>  (3271) 
C=c1/c(=C\c2[n-]c(=O)[n-]c2[O-])cc(C)n1-c1cc(C(=O)N2CCN(C)C(=O)C2)ccc1F

>  <Energy>  (3271) 
133.3607339794669

>  <Genealogy>  (3271) 
C=c1c(=Cc2[n-]c(=O)[n-]c2[O-])cc(C)n1-c1cc(C(=O)N2CCN(C)C(=O)C2)ccc1F (protonated)
C=c1/c(=C\c2[n-]c(=O)[n-]c2[O-])cc(C)n1-c1cc(C(=O)N2CCN(C)C(=O)C2)ccc1F (cis-trans isomerization)
C=c1/c(=C\c2[n-]c(=O)[n-]c2[O-])cc(C)n1-c1cc(C(=O)N2CCN(C)C(=O)C2)ccc1F (3D coordinates assigned)
C=c1/c(=C\c2[n-]c(=O)[n-]c2[O-])cc(C)n1-c1cc(C(=O)N2CCN(C)C(=O)C2)ccc1F (nonaromatic ring conformer: 133.3607339794669 kcal/mol)

>  <smiles>  (3271) 
C=c1c(=Cc2[nH]c(=O)[nH]c2O)cc(C)n1-c1cc(C(=O)N2CCN(C)C(=O)C2)ccc1F

>  <score_type>  (3271) 
oracle

>  <origin>  (3271) 
adg

>  <m_score__min__energy>  (3271) 
-17.09

>  <m_primary>  (3271) 
energy

$$$$
53:0
     RDKit          3D

 26 28  0  0  0  0  0  0  0  0999 V2000
   53.9880   28.4430   53.4180 C   0  0  0  0  0  0  0  0  0  0  0  0
   54.7540   29.4370   52.9560 C   0  0  0  0  0  0  0  0  0  0  0  0
   56.0950   29.3190   52.8670 N   0  0  0  0  0  0  0  0  0  0  0  0
   56.5460   30.3950   52.1940 C   0  0  0  0  0  0  0  0  0  0  0  0
   57.9630   30.6360   51.8560 C   0  0  0  0  0  0  0  0  0  0  0  0
   58.5390   31.6630   52.3110 O   0  0  0  0  0  0  0  0  0  0  0  0
   58.7080   29.6770   50.9620 C   0  0  0  0  0  0  0  0  0  0  0  0
   58.8360   30.1800   49.5150 C   0  0  0  0  0  0  0  0  0  0  0  0
   58.9310   29.0210   48.5090 C   0  0  0  0  0  0  0  0  0  0  0  0
   59.4630   29.4570   47.1970 N   0  0  0  0  0  0  0  0  0  0  0  0
   58.7950   28.7520   46.0730 C   0  0  0  0  0  0  0  0  0  0  0  0
   58.9000   29.5420   44.7600 C   0  0  0  0  0  0  0  0  0  0  0  0
   58.2730   30.8830   44.8580 N   0  0  0  0  0  0  0  0  0  0  0  0
   56.9300   30.8930   44.2550 C   0  0  0  0  0  0  0  0  0  0  0  0
   58.2210   31.4120   46.2400 C   0  0  0  0  0  0  0  0  0  0  0  0
   59.4260   30.9360   47.0620 C   0  0  0  0  0  0  0  0  0  0  0  0
   55.4950   31.2250   51.8540 C   0  0  0  0  0  0  0  0  0  0  0  0
   54.3470   30.6450   52.3700 C   0  0  0  0  0  0  0  0  0  0  0  0
   53.1320   31.2210   52.2810 C   0  0  0  0  0  0  0  0  0  0  0  0
   52.3180   31.3190   51.0580 C   0  0  0  0  0  0  0  0  0  0  0  0
   52.2900   30.3940   50.0800 N   0  0  0  0  0  0  0  0  0  0  0  0
   51.3120   30.8380   49.2610 C   0  0  0  0  0  0  0  0  0  0  0  0
   50.9910   30.2370   48.2020 O   0  0  0  0  0  0  0  0  0  0  0  0
   50.6980   31.9680   49.6710 N   0  0  0  0  0  0  0  0  0  0  0  0
   51.3370   32.2490   50.8170 C   0  0  0  0  0  0  0  0  0  0  0  0
   51.0280   33.3320   51.6310 O   0  0  0  0  0  0  0  0  0  0  0  0
  1  2  2  0
  2  3  1  0
  3  4  1  0
  4  5  1  0
  5  6  2  0
  5  7  1  0
  7  8  1  0
  8  9  1  0
  9 10  1  0
 10 11  1  0
 11 12  1  0
 12 13  1  0
 13 14  1  0
 13 15  1  0
 15 16  1  0
  4 17  2  0
 17 18  1  0
 18 19  2  3
 19 20  1  0
 20 21  1  0
 21 22  1  0
 22 23  2  0
 22 24  1  0
 24 25  1  0
 25 26  1  0
 18  2  1  0
 25 20  2  0
 16 10  1  0
M  CHG  3  21  -1  24  -1  26  -1
M  END
>  <UniqueID>  (3272) 
53

>  <SMILES>  (3272) 
C=c1[nH]c(C(=O)CCCN2CCN(C)CC2)cc1=Cc1[n-]c(=O)[n-]c1[O-]

>  <Energy>  (3272) 
124.96771344042958

>  <Genealogy>  (3272) 
C=c1[nH]c(C(=O)CCCN2CCN(C)CC2)cc1=Cc1[n-]c(=O)[n-]c1[O-] (protonated)
C=c1[nH]c(C(=O)CCCN2CCN(C)CC2)cc1=Cc1[n-]c(=O)[n-]c1[O-] (3D coordinates assigned)
C=c1[nH]c(C(=O)CCCN2CCN(C)CC2)cc1=Cc1[n-]c(=O)[n-]c1[O-] (nonaromatic ring conformer: 124.96771344042958 kcal/mol)

>  <smiles>  (3272) 
C=c1[nH]c(C(=O)CCCN2CCN(C)CC2)cc1=Cc1[nH]c(=O)[nH]c1O

>  <score_type>  (3272) 
oracle

>  <origin>  (3272) 
adg

>  <m_score__min__energy>  (3272) 
-17.149999999999999

>  <m_primary>  (3272) 
energy

$$$$
73:0
     RDKit          3D

 27 29  0  0  0  0  0  0  0  0999 V2000
   57.2080   20.3880   45.4010 C   0  0  0  0  0  0  0  0  0  0  0  0
   56.6790   21.1870   44.2570 C   0  0  0  0  0  0  0  0  0  0  0  0
   56.3150   20.6830   43.0660 N   0  0  0  0  0  0  0  0  0  0  0  0
   55.9710   21.7120   42.3400 O   0  0  0  0  0  0  0  0  0  0  0  0
   56.0890   22.8570   42.9570 N   0  0  0  0  0  0  0  0  0  0  0  0
   56.5460   22.5460   44.1820 C   0  0  0  0  0  0  0  0  0  0  0  0
   56.8320   23.4640   45.1970 O   0  0  0  0  0  0  0  0  0  0  0  0
   56.8070   24.8740   44.9920 C   0  0  0  0  0  0  0  0  0  0  0  0
   55.5910   25.4710   45.6260 C   0  0  0  0  0  0  0  0  0  0  0  0
   54.5260   24.8000   45.6950 O   0  0  0  0  0  0  0  0  0  0  0  0
   55.6280   26.8260   46.0880 N   0  0  0  0  0  0  0  0  0  0  0  0
   56.5400   27.8350   45.6300 C   0  0  0  0  0  0  0  0  0  0  0  0
   57.8780   27.7630   46.0400 C   0  0  0  0  0  0  0  0  0  0  0  0
   58.8030   28.7320   45.6260 C   0  0  0  0  0  0  0  0  0  0  0  0
   60.4850   28.6440   46.1460 S   0  0  0  0  0  0  0  0  0  0  0  0
   61.3700   28.9410   44.9680 O   0  0  0  0  0  0  0  0  0  0  0  0
   60.7950   27.2580   46.6420 O   0  0  0  0  0  0  0  0  0  0  0  0
   60.7810   29.8120   47.4120 N   0  0  0  0  0  0  0  0  0  0  0  0
   61.5010   30.9810   46.8600 C   0  0  0  0  0  0  0  0  0  0  0  0
   61.3850   32.1980   47.7830 C   0  0  0  0  0  0  0  0  0  0  0  0
   59.9190   32.6400   47.9360 C   0  0  0  0  0  0  0  0  0  0  0  0
   58.9250   31.4890   47.7040 C   0  0  0  0  0  0  0  0  0  0  0  0
   59.5250   30.1420   48.1320 C   0  0  0  0  0  0  0  0  0  0  0  0
   58.3790   29.7940   44.8200 C   0  0  0  0  0  0  0  0  0  0  0  0
   57.0400   29.8910   44.4330 C   0  0  0  0  0  0  0  0  0  0  0  0
   56.1150   28.9250   44.8450 C   0  0  0  0  0  0  0  0  0  0  0  0
   54.7770   29.0830   44.5000 O   0  0  0  0  0  0  0  0  0  0  0  0
  1  2  1  0
  2  3  2  0
  3  4  1  0
  4  5  1  0
  5  6  2  0
  6  7  1  0
  7  8  1  0
  8  9  1  0
  9 10  2  0
  9 11  1  0
 11 12  1  0
 12 13  2  0
 13 14  1  0
 14 15  1  0
 15 16  2  0
 15 17  2  0
 15 18  1  0
 18 19  1  0
 19 20  1  0
 20 21  1  0
 21 22  1  0
 22 23  1  0
 14 24  2  0
 24 25  1  0
 25 26  2  0
 26 27  1  0
  6  2  1  0
 26 12  1  0
 23 18  1  0
M  CHG  2  11  -1  27  -1
M  END
>  <UniqueID>  (3273) 
71

>  <SMILES>  (3273) 
Cc1nonc1OCC(=O)[N-]c1cc(S(=O)(=O)N2CCCCC2)ccc1[O-]

>  <Energy>  (3273) 
87.54773469199328

>  <Genealogy>  (3273) 
Cc1nonc1OCC(=O)[N-]c1cc(S(=O)(=O)N2CCCCC2)ccc1[O-] (protonated)
Cc1nonc1OCC(=O)[N-]c1cc(S(=O)(=O)N2CCCCC2)ccc1[O-] (3D coordinates assigned)
Cc1nonc1OCC(=O)[N-]c1cc(S(=O)(=O)N2CCCCC2)ccc1[O-] (nonaromatic ring conformer: 87.54773469199328 kcal/mol)

>  <smiles>  (3273) 
Cc1nonc1OCC(=O)Nc1cc(S(=O)(=O)N2CCCCC2)ccc1O

>  <score_type>  (3273) 
oracle

>  <origin>  (3273) 
adg

>  <m_score__min__energy>  (3273) 
-14.65

>  <m_primary>  (3273) 
energy

$$$$
85:0
     RDKit          3D

 36 39  0  0  0  0  0  0  0  0999 V2000
   57.8160   24.9480   47.8050 C   0  0  0  0  0  0  0  0  0  0  0  0
   58.1060   25.7210   46.7430 C   0  0  0  0  0  0  0  0  0  0  0  0
   57.7810   25.4290   45.4090 C   0  0  0  0  0  0  0  0  0  0  0  0
   56.9420   24.5180   44.8740 C   0  0  0  0  0  0  0  0  0  0  0  0
   55.4820   24.4680   45.0600 C   0  0  0  0  0  0  0  0  0  0  0  0
   54.7190   23.3740   44.8760 N   0  0  0  0  0  0  0  0  0  0  0  0
   53.4980   23.7700   45.2960 C   0  0  0  0  0  0  0  0  0  0  0  0
   52.4920   23.0150   45.2650 O   0  0  0  0  0  0  0  0  0  0  0  0
   53.4420   25.0360   45.7620 N   0  0  0  0  0  0  0  0  0  0  0  0
   54.7100   25.4570   45.6170 C   0  0  0  0  0  0  0  0  0  0  0  0
   55.1530   26.7190   45.9940 O   0  0  0  0  0  0  0  0  0  0  0  0
   58.5080   26.3070   44.6350 C   0  0  0  0  0  0  0  0  0  0  0  0
   59.1920   27.1380   45.4970 C   0  0  0  0  0  0  0  0  0  0  0  0
   60.1300   28.2170   45.0160 C   0  0  0  0  0  0  0  0  0  0  0  0
   59.6240   29.6040   45.3430 C   0  0  0  0  0  0  0  0  0  0  0  0
   60.3560   30.3940   45.9260 O   0  0  0  0  0  0  0  0  0  0  0  0
   58.2420   29.9630   45.0790 N   0  0  0  0  0  0  0  0  0  0  0  0
   58.0470   31.4310   45.2300 C   0  0  0  0  0  0  0  0  0  0  0  0
   58.1140   32.1610   43.8800 C   0  0  0  0  0  0  0  0  0  0  0  0
   57.0490   31.6950   42.9600 N   0  0  0  0  0  0  0  0  0  0  0  0
   57.4270   31.9600   41.5630 C   0  0  0  0  0  0  0  0  0  0  0  0
   56.6710   30.2740   43.1580 C   0  0  0  0  0  0  0  0  0  0  0  0
   57.8210   29.4460   43.7510 C   0  0  0  0  0  0  0  0  0  0  0  0
   58.9160   26.8220   46.7900 N   0  0  0  0  0  0  0  0  0  0  0  0
   59.5680   27.4120   47.9770 C   0  0  0  0  0  0  0  0  0  0  0  0
   59.0530   28.7890   48.3110 C   0  0  0  0  0  0  0  0  0  0  0  0
   58.1100   29.2510   47.6140 O   0  0  0  0  0  0  0  0  0  0  0  0
   59.6880   29.6420   49.2900 N   0  0  0  0  0  0  0  0  0  0  0  0
   59.0840   29.7300   50.6250 C   0  0  0  0  0  0  0  0  0  0  0  0
   60.8860   30.4410   48.9850 C   0  0  0  0  0  0  0  0  0  0  0  0
   60.5200   31.7870   48.4030 C   0  0  0  0  0  0  0  0  0  0  0  0
   59.1850   32.2340   48.3940 C   0  0  0  0  0  0  0  0  0  0  0  0
   58.8540   33.4610   47.8110 C   0  0  0  0  0  0  0  0  0  0  0  0
   59.8450   34.2430   47.2140 C   0  0  0  0  0  0  0  0  0  0  0  0
   61.1650   33.7900   47.1810 C   0  0  0  0  0  0  0  0  0  0  0  0
   61.4970   32.5600   47.7560 C   0  0  0  0  0  0  0  0  0  0  0  0
  1  2  2  0
  2  3  1  0
  3  4  2  0
  4  5  1  0
  5  6  1  0
  6  7  1  0
  7  8  2  0
  7  9  1  0
  9 10  1  0
 10 11  1  0
  3 12  1  0
 12 13  2  0
 13 14  1  0
 14 15  1  0
 15 16  2  0
 15 17  1  0
 17 18  1  0
 18 19  1  0
 19 20  1  0
 20 21  1  0
 20 22  1  0
 22 23  1  0
 13 24  1  0
 24 25  1  0
 25 26  1  0
 26 27  2  0
 26 28  1  0
 28 29  1  0
 28 30  1  0
 30 31  1  0
 31 32  2  0
 32 33  1  0
 33 34  2  0
 34 35  1  0
 35 36  2  0
 24  2  1  0
 36 31  1  0
 10  5  2  0
 23 17  1  0
M  CHG  4   6  -1   9  -1  11  -1  17   1
M  END
>  <UniqueID>  (3274) 
82

>  <SMILES>  (3274) 
C=c1/c(=C\c2[n-]c(=O)[n-]c2[O-])cc(CC(=O)[NH+]2CCN(C)CC2)n1CC(=O)N(C)Cc1ccccc1

>  <Energy>  (3274) 
145.539012725983

>  <Genealogy>  (3274) 
C=c1c(=Cc2[n-]c(=O)[n-]c2[O-])cc(CC(=O)[NH+]2CCN(C)CC2)n1CC(=O)N(C)Cc1ccccc1 (protonated)
C=c1/c(=C\c2[n-]c(=O)[n-]c2[O-])cc(CC(=O)[NH+]2CCN(C)CC2)n1CC(=O)N(C)Cc1ccccc1 (cis-trans isomerization)
C=c1/c(=C\c2[n-]c(=O)[n-]c2[O-])cc(CC(=O)[NH+]2CCN(C)CC2)n1CC(=O)N(C)Cc1ccccc1 (3D coordinates assigned)
C=c1/c(=C\c2[n-]c(=O)[n-]c2[O-])cc(CC(=O)[NH+]2CCN(C)CC2)n1CC(=O)N(C)Cc1ccccc1 (nonaromatic ring conformer: 145.539012725983 kcal/mol)

>  <smiles>  (3274) 
C=c1c(=Cc2[nH]c(=O)[nH]c2O)cc(CC(=O)N2CCN(C)CC2)n1CC(=O)N(C)Cc1ccccc1

>  <score_type>  (3274) 
oracle

>  <origin>  (3274) 
adg

>  <m_score__min__energy>  (3274) 
-15.92

>  <m_primary>  (3274) 
energy

$$$$
1:0
     RDKit          3D

 31 34  0  0  0  0  0  0  0  0999 V2000
   57.7810   26.5870   43.7490 C   0  0  0  0  0  0  0  0  0  0  0  0
   57.7750   27.8220   44.2610 C   0  0  0  0  0  0  0  0  0  0  0  0
   57.6900   28.9140   43.4720 N   0  0  0  0  0  0  0  0  0  0  0  0
   57.9130   29.9890   44.2470 C   0  0  0  0  0  0  0  0  0  0  0  0
   57.9230   31.3930   43.7270 C   0  0  0  0  0  0  0  0  0  0  0  0
   58.1220   29.5990   45.5610 C   0  0  0  0  0  0  0  0  0  0  0  0
   58.3860   30.5040   46.7010 C   0  0  0  0  0  0  0  0  0  0  0  0
   58.9210   30.0010   47.8950 C   0  0  0  0  0  0  0  0  0  0  0  0
   59.1850   30.8590   48.9680 C   0  0  0  0  0  0  0  0  0  0  0  0
   58.9300   32.2370   48.8560 C   0  0  0  0  0  0  0  0  0  0  0  0
   59.2030   33.1420   49.9950 C   0  0  0  0  0  0  0  0  0  0  0  0
   59.8220   34.2220   49.7920 O   0  0  0  0  0  0  0  0  0  0  0  0
   58.7970   32.8030   51.3340 N   0  0  0  0  0  0  0  0  0  0  0  0
   57.4190   32.3710   51.6060 C   0  0  0  0  0  0  0  0  0  0  0  0
   57.3900   31.1940   52.5990 C   0  0  0  0  0  0  0  0  0  0  0  0
   58.5580   31.2020   53.6110 C   0  0  0  0  0  0  0  0  0  0  0  0
   59.5530   30.3450   53.1720 F   0  0  0  0  0  0  0  0  0  0  0  0
   58.1050   30.7460   54.8380 F   0  0  0  0  0  0  0  0  0  0  0  0
   59.1480   32.6070   53.7880 C   0  0  0  0  0  0  0  0  0  0  0  0
   59.6920   33.1340   52.4510 C   0  0  0  0  0  0  0  0  0  0  0  0
   58.3850   32.7350   47.6600 C   0  0  0  0  0  0  0  0  0  0  0  0
   58.1210   31.8760   46.5900 C   0  0  0  0  0  0  0  0  0  0  0  0
   57.9940   28.2090   45.5940 C   0  0  0  0  0  0  0  0  0  0  0  0
   58.0300   27.4640   46.7210 C   0  0  0  0  0  0  0  0  0  0  0  0
   57.3340   26.1830   46.9230 C   0  0  0  0  0  0  0  0  0  0  0  0
   57.9210   25.0500   47.3490 N   0  0  0  0  0  0  0  0  0  0  0  0
   56.9380   24.1300   47.2370 C   0  0  0  0  0  0  0  0  0  0  0  0
   57.0980   22.9250   47.5620 O   0  0  0  0  0  0  0  0  0  0  0  0
   55.7750   24.6010   46.7400 N   0  0  0  0  0  0  0  0  0  0  0  0
   56.0490   25.8980   46.5320 C   0  0  0  0  0  0  0  0  0  0  0  0
   55.1440   26.8030   45.9910 O   0  0  0  0  0  0  0  0  0  0  0  0
  1  2  2  0
  2  3  1  0
  3  4  1  0
  4  5  1  0
  4  6  2  0
  6  7  1  0
  7  8  2  0
  8  9  1  0
  9 10  2  0
 10 11  1  0
 11 12  2  0
 11 13  1  0
 13 14  1  0
 14 15  1  0
 15 16  1  0
 16 17  1  0
 16 18  1  0
 16 19  1  0
 19 20  1  0
 10 21  1  0
 21 22  2  0
  6 23  1  0
 23 24  2  3
 24 25  1  0
 25 26  1  0
 26 27  1  0
 27 28  2  0
 27 29  1  0
 29 30  1  0
 30 31  1  0
 23  2  1  0
 30 25  2  0
 22  7  1  0
 20 13  1  0
M  CHG  3  26  -1  29  -1  31  -1
M  END
>  <UniqueID>  (3275) 
2

>  <SMILES>  (3275) 
C=c1[nH]c(C)c(-c2ccc(C(=O)N3CCC(F)(F)CC3)cc2)c1=Cc1[n-]c(=O)[n-]c1[O-]

>  <Energy>  (3275) 
132.40973051103836

>  <Genealogy>  (3275) 
C=c1[nH]c(C)c(-c2ccc(C(=O)N3CCC(F)(F)CC3)cc2)c1=Cc1[n-]c(=O)[n-]c1[O-] (protonated)
C=c1[nH]c(C)c(-c2ccc(C(=O)N3CCC(F)(F)CC3)cc2)c1=Cc1[n-]c(=O)[n-]c1[O-] (3D coordinates assigned)
C=c1[nH]c(C)c(-c2ccc(C(=O)N3CCC(F)(F)CC3)cc2)c1=Cc1[n-]c(=O)[n-]c1[O-] (nonaromatic ring conformer: 132.40973051103836 kcal/mol)

>  <smiles>  (3275) 
C=c1[nH]c(C)c(-c2ccc(C(=O)N3CCC(F)(F)CC3)cc2)c1=Cc1[nH]c(=O)[nH]c1O

>  <score_type>  (3275) 
oracle

>  <origin>  (3275) 
adg

>  <m_score__min__energy>  (3275) 
-17.600000000000001

>  <m_primary>  (3275) 
energy

$$$$
23:0
     RDKit          3D

 29 32  0  0  0  0  0  0  0  0999 V2000
   55.2900   29.8560   43.6100 C   0  0  0  0  0  0  0  0  0  0  0  0
   56.2490   29.3740   44.4030 C   0  0  0  0  0  0  0  0  0  0  0  0
   57.5470   29.8550   44.5070 C   0  0  0  0  0  0  0  0  0  0  0  0
   58.1500   30.9790   43.7170 C   0  0  0  0  0  0  0  0  0  0  0  0
   58.1720   29.0730   45.4710 C   0  0  0  0  0  0  0  0  0  0  0  0
   59.5740   29.1880   45.9220 C   0  0  0  0  0  0  0  0  0  0  0  0
   60.4080   28.3310   45.5220 O   0  0  0  0  0  0  0  0  0  0  0  0
   60.0080   30.2570   46.7900 N   0  0  0  0  0  0  0  0  0  0  0  0
   59.1040   30.8230   47.8000 C   0  0  0  0  0  0  0  0  0  0  0  0
   59.3270   32.3340   47.9210 C   0  0  0  0  0  0  0  0  0  0  0  0
   60.7540   32.6660   48.0470 N   0  0  0  0  0  0  0  0  0  0  0  0
   61.1170   34.0200   48.3890 C   0  0  0  0  0  0  0  0  0  0  0  0
   60.3200   34.9600   48.1130 O   0  0  0  0  0  0  0  0  0  0  0  0
   62.4500   34.3360   49.0340 C   0  0  0  0  0  0  0  0  0  0  0  0
   63.6820   33.8440   48.2680 C   0  0  0  0  0  0  0  0  0  0  0  0
   64.0150   32.9010   49.4170 C   0  0  0  0  0  0  0  0  0  0  0  0
   62.7920   33.3900   50.1820 C   0  0  0  0  0  0  0  0  0  0  0  0
   61.7700   31.6110   47.9230 C   0  0  0  0  0  0  0  0  0  0  0  0
   61.4240   30.6510   46.7780 C   0  0  0  0  0  0  0  0  0  0  0  0
   57.2340   28.1300   45.8830 C   0  0  0  0  0  0  0  0  0  0  0  0
   57.4310   27.2030   46.8390 C   0  0  0  0  0  0  0  0  0  0  0  0
   56.8490   25.8510   46.8080 C   0  0  0  0  0  0  0  0  0  0  0  0
   57.5440   24.7410   47.1120 N   0  0  0  0  0  0  0  0  0  0  0  0
   56.6660   23.7430   46.8680 C   0  0  0  0  0  0  0  0  0  0  0  0
   56.9500   22.5310   47.0490 O   0  0  0  0  0  0  0  0  0  0  0  0
   55.4650   24.1470   46.4030 N   0  0  0  0  0  0  0  0  0  0  0  0
   55.6000   25.4820   46.3580 C   0  0  0  0  0  0  0  0  0  0  0  0
   54.6180   26.3370   45.8720 O   0  0  0  0  0  0  0  0  0  0  0  0
   56.0650   28.3300   45.2360 N   0  0  0  0  0  0  0  0  0  0  0  0
  1  2  2  0
  2  3  1  0
  3  4  1  0
  3  5  2  0
  5  6  1  0
  6  7  2  0
  6  8  1  0
  8  9  1  0
  9 10  1  0
 10 11  1  0
 11 12  1  0
 12 13  2  0
 12 14  1  0
 14 15  1  0
 15 16  1  0
 16 17  1  0
 11 18  1  0
 18 19  1  0
  5 20  1  0
 20 21  2  0
 21 22  1  0
 22 23  1  0
 23 24  1  0
 24 25  2  0
 24 26  1  0
 26 27  1  0
 27 28  1  0
 20 29  1  0
 29  2  1  0
 19  8  1  0
 27 22  2  0
 17 14  1  0
M  CHG  3  23  -1  26  -1  28  -1
M  END
>  <UniqueID>  (3276) 
24

>  <SMILES>  (3276) 
C=c1[nH]/c(=C\c2[n-]c(=O)[n-]c2[O-])c(C(=O)N2CCN(C(=O)C3CCC3)CC2)c1C

>  <Energy>  (3276) 
181.37472747665603

>  <Genealogy>  (3276) 
C=c1[nH]c(=Cc2[n-]c(=O)[n-]c2[O-])c(C(=O)N2CCN(C(=O)C3CCC3)CC2)c1C (protonated)
C=c1[nH]/c(=C\c2[n-]c(=O)[n-]c2[O-])c(C(=O)N2CCN(C(=O)C3CCC3)CC2)c1C (cis-trans isomerization)
C=c1[nH]/c(=C\c2[n-]c(=O)[n-]c2[O-])c(C(=O)N2CCN(C(=O)C3CCC3)CC2)c1C (3D coordinates assigned)
C=c1[nH]/c(=C\c2[n-]c(=O)[n-]c2[O-])c(C(=O)N2CCN(C(=O)C3CCC3)CC2)c1C (nonaromatic ring conformer: 181.37472747665603 kcal/mol)

>  <smiles>  (3276) 
C=c1[nH]c(=Cc2[nH]c(=O)[nH]c2O)c(C(=O)N2CCN(C(=O)C3CCC3)CC2)c1C

>  <score_type>  (3276) 
oracle

>  <origin>  (3276) 
adg

>  <m_score__min__energy>  (3276) 
-16.359999999999999

>  <m_primary>  (3276) 
energy

$$$$
25:0
     RDKit          3D

 24 26  0  0  0  0  0  0  0  0999 V2000
   54.8790   26.1720   46.0100 N   0  0  0  0  0  0  0  0  0  0  0  0
   56.5490   25.7370   46.1030 S   0  0  0  0  0  0  0  0  0  0  0  0
   56.8780   25.3250   47.5100 O   0  0  0  0  0  0  0  0  0  0  0  0
   56.8180   24.5770   45.1860 O   0  0  0  0  0  0  0  0  0  0  0  0
   57.5420   27.1120   45.6330 C   0  0  0  0  0  0  0  0  0  0  0  0
   58.9280   26.9640   45.4840 C   0  0  0  0  0  0  0  0  0  0  0  0
   59.7120   28.0570   45.1080 C   0  0  0  0  0  0  0  0  0  0  0  0
   59.1230   29.3050   44.8960 C   0  0  0  0  0  0  0  0  0  0  0  0
   57.7380   29.4750   45.0830 C   0  0  0  0  0  0  0  0  0  0  0  0
   57.0860   30.7370   44.8530 N   0  0  0  0  0  0  0  0  0  0  0  0
   57.5440   31.9180   45.1540 C   0  0  0  0  0  0  0  0  0  0  0  0
   58.6130   32.0710   45.9810 N   0  0  0  0  0  0  0  0  0  0  0  0
   59.0690   33.3090   46.3060 C   0  0  0  0  0  0  0  0  0  0  0  0
   60.2430   33.4630   47.1990 C   0  0  0  0  0  0  0  0  0  0  0  0
   61.5210   33.0400   46.7850 C   0  0  0  0  0  0  0  0  0  0  0  0
   62.6260   33.1870   47.6310 C   0  0  0  0  0  0  0  0  0  0  0  0
   62.4690   33.7560   48.8960 C   0  0  0  0  0  0  0  0  0  0  0  0
   61.2070   34.1800   49.3190 C   0  0  0  0  0  0  0  0  0  0  0  0
   60.1000   34.0360   48.4790 C   0  0  0  0  0  0  0  0  0  0  0  0
   58.4350   34.4020   45.8030 N   0  0  0  0  0  0  0  0  0  0  0  0
   57.3620   34.2570   44.9870 C   0  0  0  0  0  0  0  0  0  0  0  0
   56.7780   35.2730   44.5270 O   0  0  0  0  0  0  0  0  0  0  0  0
   56.9160   33.0160   44.6660 N   0  0  0  0  0  0  0  0  0  0  0  0
   56.9530   28.3680   45.4280 C   0  0  0  0  0  0  0  0  0  0  0  0
  1  2  1  0
  2  3  2  0
  2  4  2  0
  2  5  1  0
  5  6  2  0
  6  7  1  0
  7  8  2  0
  8  9  1  0
  9 10  1  0
 10 11  2  3
 11 12  1  0
 12 13  1  0
 13 14  1  0
 14 15  2  0
 15 16  1  0
 16 17  2  0
 17 18  1  0
 18 19  2  0
 13 20  2  0
 20 21  1  0
 21 22  2  0
 21 23  1  0
  9 24  2  0
 24  5  1  0
 23 11  1  0
 19 14  1  0
M  CHG  3   1  -1  12  -1  23  -1
M  END
>  <UniqueID>  (3277) 
26

>  <SMILES>  (3277) 
[NH-]S(=O)(=O)c1cccc(N=c2[n-]c(-c3ccccc3)nc(=O)[n-]2)c1

>  <Energy>  (3277) 
44.68591373586515

>  <Genealogy>  (3277) 
[NH-]S(=O)(=O)c1cccc(N=c2[n-]c(-c3ccccc3)nc(=O)[n-]2)c1 (protonated)
[NH-]S(=O)(=O)c1cccc(N=c2[n-]c(-c3ccccc3)nc(=O)[n-]2)c1 (3D coordinates assigned)
[NH-]S(=O)(=O)c1cccc(N=c2[n-]c(-c3ccccc3)nc(=O)[n-]2)c1 (optimized conformer: 44.68591373586515 kcal/mol)

>  <smiles>  (3277) 
NS(=O)(=O)c1cccc(N=c2[nH]c(-c3ccccc3)nc(=O)[nH]2)c1

>  <score_type>  (3277) 
oracle

>  <origin>  (3277) 
adg

>  <m_score__min__energy>  (3277) 
-14.01

>  <m_primary>  (3277) 
energy

$$$$
29:0
     RDKit          3D

 27 29  0  0  0  0  0  0  0  0999 V2000
   53.6450   29.3970   54.9360 C   0  0  0  0  0  0  0  0  0  0  0  0
   54.2360   29.7430   53.7810 C   0  0  0  0  0  0  0  0  0  0  0  0
   53.6150   30.2870   52.6450 C   0  0  0  0  0  0  0  0  0  0  0  0
   52.3130   30.4220   52.3260 C   0  0  0  0  0  0  0  0  0  0  0  0
   51.7890   30.8690   51.0260 C   0  0  0  0  0  0  0  0  0  0  0  0
   51.6810   30.0680   49.9540 N   0  0  0  0  0  0  0  0  0  0  0  0
   51.0460   30.8430   49.0480 C   0  0  0  0  0  0  0  0  0  0  0  0
   50.7710   30.4420   47.8860 O   0  0  0  0  0  0  0  0  0  0  0  0
   50.7160   32.0760   49.4870 N   0  0  0  0  0  0  0  0  0  0  0  0
   51.1790   32.0720   50.7470 C   0  0  0  0  0  0  0  0  0  0  0  0
   51.0240   33.1330   51.6300 O   0  0  0  0  0  0  0  0  0  0  0  0
   54.6370   30.7040   51.8100 C   0  0  0  0  0  0  0  0  0  0  0  0
   55.8240   30.3670   52.4240 C   0  0  0  0  0  0  0  0  0  0  0  0
   57.1540   30.6840   51.8580 C   0  0  0  0  0  0  0  0  0  0  0  0
   57.5010   30.1110   50.7880 O   0  0  0  0  0  0  0  0  0  0  0  0
   57.9750   31.7420   52.4140 N   0  0  0  0  0  0  0  0  0  0  0  0
   59.3810   31.6440   51.9360 C   0  0  0  0  0  0  0  0  0  0  0  0
   60.0680   33.0180   51.7840 C   0  0  0  0  0  0  0  0  0  0  0  0
   59.6150   33.9850   52.8030 N   0  0  0  0  0  0  0  0  0  0  0  0
   60.1290   33.6570   54.1500 C   0  0  0  0  0  0  0  0  0  0  0  0
   58.9990   33.2620   55.0480 C   0  0  0  0  0  0  0  0  0  0  0  0
   58.5400   34.0790   55.8890 O   0  0  0  0  0  0  0  0  0  0  0  0
   58.4620   31.9840   54.9660 O   0  0  0  0  0  0  0  0  0  0  0  0
   58.1440   34.1930   52.7760 C   0  0  0  0  0  0  0  0  0  0  0  0
   57.3690   33.0470   52.0910 C   0  0  0  0  0  0  0  0  0  0  0  0
   55.5850   29.7500   53.6060 N   0  0  0  0  0  0  0  0  0  0  0  0
   56.5900   29.1980   54.5200 C   0  0  0  0  0  0  0  0  0  0  0  0
  1  2  2  0
  2  3  1  0
  3  4  2  3
  4  5  1  0
  5  6  1  0
  6  7  1  0
  7  8  2  0
  7  9  1  0
  9 10  1  0
 10 11  1  0
  3 12  1  0
 12 13  2  0
 13 14  1  0
 14 15  2  0
 14 16  1  0
 16 17  1  0
 17 18  1  0
 18 19  1  0
 19 20  1  0
 20 21  1  0
 21 22  2  0
 21 23  1  0
 19 24  1  0
 24 25  1  0
 13 26  1  0
 26 27  1  0
 26  2  1  0
 10  5  2  0
 25 16  1  0
M  CHG  5   6  -1   9  -1  11  -1  16   1  23  -1
M  END
>  <UniqueID>  (3278) 
30

>  <SMILES>  (3278) 
C=c1c(=Cc2[n-]c(=O)[n-]c2[O-])cc(C(=O)[NH+]2CCN(CC(=O)[O-])CC2)n1C

>  <Energy>  (3278) 
135.21531136354972

>  <Genealogy>  (3278) 
C=c1c(=Cc2[n-]c(=O)[n-]c2[O-])cc(C(=O)[NH+]2CCN(CC(=O)[O-])CC2)n1C (protonated)
C=c1c(=Cc2[n-]c(=O)[n-]c2[O-])cc(C(=O)[NH+]2CCN(CC(=O)[O-])CC2)n1C (3D coordinates assigned)
C=c1c(=Cc2[n-]c(=O)[n-]c2[O-])cc(C(=O)[NH+]2CCN(CC(=O)[O-])CC2)n1C (nonaromatic ring conformer: 135.21531136354972 kcal/mol)

>  <smiles>  (3278) 
C=c1c(=Cc2[nH]c(=O)[nH]c2O)cc(C(=O)N2CCN(CC(=O)O)CC2)n1C

>  <score_type>  (3278) 
oracle

>  <origin>  (3278) 
adg

>  <m_score__min__energy>  (3278) 
-15.289999999999999

>  <m_primary>  (3278) 
energy

$$$$
62:0
     RDKit          3D

 24 25  0  0  0  0  0  0  0  0999 V2000
   58.0060   33.4940   45.1190 O   0  0  0  0  0  0  0  0  0  0  0  0
   57.7060   32.3850   45.6350 C   0  0  0  0  0  0  0  0  0  0  0  0
   58.2260   32.0590   47.0010 C   0  0  0  0  0  0  0  0  0  0  0  0
   58.5290   33.3000   47.6980 N   0  0  0  0  0  0  0  0  0  0  0  0
   59.6120   33.4410   48.6210 C   0  0  0  0  0  0  0  0  0  0  0  0
   59.3660   33.6090   49.8450 O   0  0  0  0  0  0  0  0  0  0  0  0
   61.0150   33.3960   48.1290 C   0  0  0  0  0  0  0  0  0  0  0  0
   62.0180   32.8320   48.9440 C   0  0  0  0  0  0  0  0  0  0  0  0
   63.3400   32.7570   48.4990 C   0  0  0  0  0  0  0  0  0  0  0  0
   63.6830   33.2460   47.2400 C   0  0  0  0  0  0  0  0  0  0  0  0
   62.7060   33.8120   46.4200 C   0  0  0  0  0  0  0  0  0  0  0  0
   61.3730   33.8890   46.8510 C   0  0  0  0  0  0  0  0  0  0  0  0
   60.4130   34.4480   46.0070 O   0  0  0  0  0  0  0  0  0  0  0  0
   56.8180   31.5120   44.9240 N   0  0  0  0  0  0  0  0  0  0  0  0
   57.1830   30.2620   44.2590 C   0  0  0  0  0  0  0  0  0  0  0  0
   56.4820   29.0740   44.8680 C   0  0  0  0  0  0  0  0  0  0  0  0
   55.2210   29.0820   44.8730 O   0  0  0  0  0  0  0  0  0  0  0  0
   57.2190   27.9260   45.4760 C   0  0  0  0  0  0  0  0  0  0  0  0
   58.6280   27.9360   45.5490 C   0  0  0  0  0  0  0  0  0  0  0  0
   59.3220   26.8550   46.0970 C   0  0  0  0  0  0  0  0  0  0  0  0
   58.6280   25.7510   46.5890 C   0  0  0  0  0  0  0  0  0  0  0  0
   57.2340   25.7270   46.5410 C   0  0  0  0  0  0  0  0  0  0  0  0
   56.5270   26.8040   45.9940 C   0  0  0  0  0  0  0  0  0  0  0  0
   55.1370   26.7370   45.9670 O   0  0  0  0  0  0  0  0  0  0  0  0
  1  2  2  0
  2  3  1  0
  3  4  1  0
  4  5  1  0
  5  6  2  0
  5  7  1  0
  7  8  2  0
  8  9  1  0
  9 10  2  0
 10 11  1  0
 11 12  2  0
 12 13  1  0
  2 14  1  0
 14 15  1  0
 15 16  1  0
 16 17  2  0
 16 18  1  0
 18 19  2  0
 19 20  1  0
 20 21  2  0
 21 22  1  0
 22 23  2  0
 23 24  1  0
 12  7  1  0
 23 18  1  0
M  CHG  3   4  -1  14  -1  24  -1
M  END
>  <UniqueID>  (3279) 
61

>  <SMILES>  (3279) 
O=C(C[N-]C(=O)c1ccccc1O)[N-]CC(=O)c1ccccc1[O-]

>  <Energy>  (3279) 
34.8637453734988

>  <Genealogy>  (3279) 
O=C(C[N-]C(=O)c1ccccc1O)[N-]CC(=O)c1ccccc1[O-] (protonated)
O=C(C[N-]C(=O)c1ccccc1O)[N-]CC(=O)c1ccccc1[O-] (3D coordinates assigned)
O=C(C[N-]C(=O)c1ccccc1O)[N-]CC(=O)c1ccccc1[O-] (optimized conformer: 34.8637453734988 kcal/mol)

>  <smiles>  (3279) 
O=C(CNC(=O)c1ccccc1O)NCC(=O)c1ccccc1O

>  <score_type>  (3279) 
oracle

>  <origin>  (3279) 
adg

>  <m_score__min__energy>  (3279) 
-14.029999999999999

>  <m_primary>  (3279) 
energy

$$$$
76:0
     RDKit          3D

 29 31  0  0  0  0  0  0  0  0999 V2000
   57.8910   25.2140   47.4880 C   0  0  0  0  0  0  0  0  0  0  0  0
   58.3240   25.0040   46.2470 C   0  0  0  0  0  0  0  0  0  0  0  0
   57.4990   25.2970   45.0420 C   0  0  0  0  0  0  0  0  0  0  0  0
   56.6790   24.3720   44.5010 C   0  0  0  0  0  0  0  0  0  0  0  0
   55.2810   24.1540   44.9070 C   0  0  0  0  0  0  0  0  0  0  0  0
   54.6460   22.9770   44.7620 N   0  0  0  0  0  0  0  0  0  0  0  0
   53.4390   23.2020   45.3260 C   0  0  0  0  0  0  0  0  0  0  0  0
   52.5400   22.3240   45.3730 O   0  0  0  0  0  0  0  0  0  0  0  0
   53.2760   24.4410   45.8410 N   0  0  0  0  0  0  0  0  0  0  0  0
   54.4580   25.0270   45.5770 C   0  0  0  0  0  0  0  0  0  0  0  0
   54.7860   26.3240   45.9660 O   0  0  0  0  0  0  0  0  0  0  0  0
   57.5370   26.6510   44.4310 C   0  0  0  0  0  0  0  0  0  0  0  0
   58.1760   26.8260   43.3610 O   0  0  0  0  0  0  0  0  0  0  0  0
   56.8260   27.7620   45.0000 N   0  0  0  0  0  0  0  0  0  0  0  0
   57.4190   28.9670   45.5050 C   0  0  0  0  0  0  0  0  0  0  0  0
   57.2650   30.1970   44.8420 C   0  0  0  0  0  0  0  0  0  0  0  0
   57.9160   31.3380   45.3150 C   0  0  0  0  0  0  0  0  0  0  0  0
   58.7160   31.2720   46.4640 C   0  0  0  0  0  0  0  0  0  0  0  0
   59.4520   32.4640   46.9370 C   0  0  0  0  0  0  0  0  0  0  0  0
   58.8020   33.4870   47.2870 O   0  0  0  0  0  0  0  0  0  0  0  0
   60.8920   32.4750   47.0150 N   0  0  0  0  0  0  0  0  0  0  0  0
   61.6480   31.2510   47.3040 C   0  0  0  0  0  0  0  0  0  0  0  0
   62.7810   31.5770   48.2810 C   0  0  0  0  0  0  0  0  0  0  0  0
   63.7070   32.6080   47.7520 N   0  0  0  0  0  0  0  0  0  0  0  0
   64.3360   33.3540   48.8540 C   0  0  0  0  0  0  0  0  0  0  0  0
   63.1130   33.5270   46.7490 C   0  0  0  0  0  0  0  0  0  0  0  0
   61.6080   33.7550   46.9580 C   0  0  0  0  0  0  0  0  0  0  0  0
   58.8080   30.0600   47.1690 C   0  0  0  0  0  0  0  0  0  0  0  0
   58.1610   28.9160   46.6900 C   0  0  0  0  0  0  0  0  0  0  0  0
  1  2  2  0
  2  3  1  0
  3  4  2  3
  4  5  1  0
  5  6  1  0
  6  7  1  0
  7  8  2  0
  7  9  1  0
  9 10  1  0
 10 11  1  0
  3 12  1  0
 12 13  2  0
 12 14  1  0
 14 15  1  0
 15 16  2  0
 16 17  1  0
 17 18  2  0
 18 19  1  0
 19 20  2  0
 19 21  1  0
 21 22  1  0
 22 23  1  0
 23 24  1  0
 24 25  1  0
 24 26  1  0
 26 27  1  0
 18 28  1  0
 28 29  2  0
 10  5  2  0
 29 15  1  0
 27 21  1  0
M  CHG  3   6  -1   9  -1  14  -1
M  END
>  <UniqueID>  (3280) 
74

>  <SMILES>  (3280) 
C=CC(=Cc1[n-]c(=O)[n-]c1O)C(=O)[N-]c1ccc(C(=O)N2CCN(C)CC2)cc1

>  <Energy>  (3280) 
104.42891811113229

>  <Genealogy>  (3280) 
C=CC(=Cc1[n-]c(=O)[n-]c1O)C(=O)[N-]c1ccc(C(=O)N2CCN(C)CC2)cc1 (protonated)
C=CC(=Cc1[n-]c(=O)[n-]c1O)C(=O)[N-]c1ccc(C(=O)N2CCN(C)CC2)cc1 (3D coordinates assigned)
C=CC(=Cc1[n-]c(=O)[n-]c1O)C(=O)[N-]c1ccc(C(=O)N2CCN(C)CC2)cc1 (nonaromatic ring conformer: 104.42891811113229 kcal/mol)

>  <smiles>  (3280) 
C=CC(=Cc1[nH]c(=O)[nH]c1O)C(=O)Nc1ccc(C(=O)N2CCN(C)CC2)cc1

>  <score_type>  (3280) 
oracle

>  <origin>  (3280) 
adg

>  <m_score__min__energy>  (3280) 
-15.449999999999999

>  <m_primary>  (3280) 
energy

$$$$
84:0
     RDKit          3D

 33 36  0  0  0  0  0  0  0  0999 V2000
   53.1440   27.9050   53.7530 C   0  0  0  0  0  0  0  0  0  0  0  0
   53.9920   28.7460   53.1350 C   0  0  0  0  0  0  0  0  0  0  0  0
   55.3570   28.4010   53.1250 C   0  0  0  0  0  0  0  0  0  0  0  0
   56.3260   29.3160   52.7220 C   0  0  0  0  0  0  0  0  0  0  0  0
   55.9660   30.6080   52.3270 C   0  0  0  0  0  0  0  0  0  0  0  0
   57.0290   31.5880   52.0000 C   0  0  0  0  0  0  0  0  0  0  0  0
   56.7100   32.8110   52.0000 O   0  0  0  0  0  0  0  0  0  0  0  0
   58.4130   31.2160   51.7660 N   0  0  0  0  0  0  0  0  0  0  0  0
   59.4360   32.2280   51.5080 C   0  0  0  0  0  0  0  0  0  0  0  0
   59.7950   32.2410   50.0200 C   0  0  0  0  0  0  0  0  0  0  0  0
   59.6980   30.9240   49.3490 N   0  0  0  0  0  0  0  0  0  0  0  0
   60.0850   30.8730   47.9530 C   0  0  0  0  0  0  0  0  0  0  0  0
   60.8170   31.7880   47.4780 O   0  0  0  0  0  0  0  0  0  0  0  0
   59.5510   29.8360   46.9960 C   0  0  0  0  0  0  0  0  0  0  0  0
   58.1470   30.2040   46.4930 C   0  0  0  0  0  0  0  0  0  0  0  0
   58.0930   31.5990   45.9190 C   0  0  0  0  0  0  0  0  0  0  0  0
   58.2120   31.8050   44.5340 C   0  0  0  0  0  0  0  0  0  0  0  0
   58.1520   33.0990   44.0080 C   0  0  0  0  0  0  0  0  0  0  0  0
   57.9480   34.1930   44.8550 C   0  0  0  0  0  0  0  0  0  0  0  0
   57.8120   33.9940   46.2320 C   0  0  0  0  0  0  0  0  0  0  0  0
   57.8900   32.7040   46.7640 C   0  0  0  0  0  0  0  0  0  0  0  0
   59.1240   29.7140   49.9820 C   0  0  0  0  0  0  0  0  0  0  0  0
   58.8660   29.8590   51.4860 C   0  0  0  0  0  0  0  0  0  0  0  0
   54.6100   30.9630   52.3280 C   0  0  0  0  0  0  0  0  0  0  0  0
   53.5980   30.0210   52.6100 C   0  0  0  0  0  0  0  0  0  0  0  0
   52.3200   30.3950   52.3400 C   0  0  0  0  0  0  0  0  0  0  0  0
   51.8080   30.8600   51.0390 C   0  0  0  0  0  0  0  0  0  0  0  0
   51.7240   30.0740   49.9500 N   0  0  0  0  0  0  0  0  0  0  0  0
   51.1050   30.8600   49.0430 C   0  0  0  0  0  0  0  0  0  0  0  0
   50.8480   30.4740   47.8750 O   0  0  0  0  0  0  0  0  0  0  0  0
   50.7670   32.0880   49.4910 N   0  0  0  0  0  0  0  0  0  0  0  0
   51.2050   32.0690   50.7600 C   0  0  0  0  0  0  0  0  0  0  0  0
   51.0220   33.1160   51.6520 O   0  0  0  0  0  0  0  0  0  0  0  0
  1  2  2  0
  2  3  1  0
  3  4  2  0
  4  5  1  0
  5  6  1  0
  6  7  2  0
  6  8  1  0
  8  9  1  0
  9 10  1  0
 10 11  1  0
 11 12  1  0
 12 13  2  0
 12 14  1  0
 14 15  1  0
 15 16  1  0
 16 17  2  0
 17 18  1  0
 18 19  2  0
 19 20  1  0
 20 21  2  0
 11 22  1  0
 22 23  1  0
  5 24  2  0
 24 25  1  0
 25 26  2  0
 26 27  1  0
 27 28  1  0
 28 29  1  0
 29 30  2  0
 29 31  1  0
 31 32  1  0
 32 33  1  0
 25  2  1  0
 32 27  2  0
 23  8  1  0
 21 16  1  0
M  CHG  3  28  -1  31  -1  33  -1
M  END
>  <UniqueID>  (3281) 
81

>  <SMILES>  (3281) 
C=c1ccc(C(=O)N2CCN(C(=O)CCc3ccccc3)CC2)c/c1=C/c1[n-]c(=O)[n-]c1[O-]

>  <Energy>  (3281) 
115.54973525383592

>  <Genealogy>  (3281) 
C=c1ccc(C(=O)N2CCN(C(=O)CCc3ccccc3)CC2)cc1=Cc1[n-]c(=O)[n-]c1[O-] (protonated)
C=c1ccc(C(=O)N2CCN(C(=O)CCc3ccccc3)CC2)c/c1=C/c1[n-]c(=O)[n-]c1[O-] (cis-trans isomerization)
C=c1ccc(C(=O)N2CCN(C(=O)CCc3ccccc3)CC2)c/c1=C/c1[n-]c(=O)[n-]c1[O-] (3D coordinates assigned)
C=c1ccc(C(=O)N2CCN(C(=O)CCc3ccccc3)CC2)c/c1=C/c1[n-]c(=O)[n-]c1[O-] (nonaromatic ring conformer: 115.54973525383592 kcal/mol)

>  <smiles>  (3281) 
C=c1ccc(C(=O)N2CCN(C(=O)CCc3ccccc3)CC2)cc1=Cc1[nH]c(=O)[nH]c1O

>  <score_type>  (3281) 
oracle

>  <origin>  (3281) 
adg

>  <m_score__min__energy>  (3281) 
-20.030000000000001

>  <m_primary>  (3281) 
energy

$$$$
87:0
     RDKit          3D

 32 35  0  0  0  0  0  0  0  0999 V2000
   55.2740   30.0680   43.4050 C   0  0  0  0  0  0  0  0  0  0  0  0
   56.2430   29.6450   44.2190 C   0  0  0  0  0  0  0  0  0  0  0  0
   56.0600   28.6970   45.1590 N   0  0  0  0  0  0  0  0  0  0  0  0
   57.2490   28.5190   45.7790 C   0  0  0  0  0  0  0  0  0  0  0  0
   57.4660   27.6320   46.7670 C   0  0  0  0  0  0  0  0  0  0  0  0
   57.1180   26.2000   46.6620 C   0  0  0  0  0  0  0  0  0  0  0  0
   55.8140   25.7840   46.3440 C   0  0  0  0  0  0  0  0  0  0  0  0
   54.8050   26.7140   46.1200 O   0  0  0  0  0  0  0  0  0  0  0  0
   55.5330   24.4600   46.2370 N   0  0  0  0  0  0  0  0  0  0  0  0
   56.4980   23.5220   46.4190 C   0  0  0  0  0  0  0  0  0  0  0  0
   56.2130   22.3010   46.3200 O   0  0  0  0  0  0  0  0  0  0  0  0
   57.7690   23.9010   46.7040 N   0  0  0  0  0  0  0  0  0  0  0  0
   58.1010   25.2130   46.8220 C   0  0  0  0  0  0  0  0  0  0  0  0
   59.2910   25.5290   47.0860 O   0  0  0  0  0  0  0  0  0  0  0  0
   58.1990   29.3830   45.2370 C   0  0  0  0  0  0  0  0  0  0  0  0
   59.6180   29.5070   45.6270 C   0  0  0  0  0  0  0  0  0  0  0  0
   60.4290   28.6030   45.2860 O   0  0  0  0  0  0  0  0  0  0  0  0
   60.0860   30.6420   46.3780 N   0  0  0  0  0  0  0  0  0  0  0  0
   59.5520   31.9790   46.0650 C   0  0  0  0  0  0  0  0  0  0  0  0
   60.1950   33.0640   46.9360 C   0  0  0  0  0  0  0  0  0  0  0  0
   60.2430   32.5940   48.4010 C   0  0  0  0  0  0  0  0  0  0  0  0
   60.6730   33.7150   49.3780 C   0  0  0  0  0  0  0  0  0  0  0  0
   62.1250   33.6560   49.7980 C   0  0  0  0  0  0  0  0  0  0  0  0
   62.4760   33.7580   51.1570 C   0  0  0  0  0  0  0  0  0  0  0  0
   63.8170   33.6990   51.5490 C   0  0  0  0  0  0  0  0  0  0  0  0
   64.8190   33.5300   50.5890 C   0  0  0  0  0  0  0  0  0  0  0  0
   64.4800   33.4130   49.2390 C   0  0  0  0  0  0  0  0  0  0  0  0
   63.1400   33.4710   48.8430 C   0  0  0  0  0  0  0  0  0  0  0  0
   61.0750   31.2940   48.5640 C   0  0  0  0  0  0  0  0  0  0  0  0
   61.2560   30.5040   47.2550 C   0  0  0  0  0  0  0  0  0  0  0  0
   57.5550   30.0980   44.2360 C   0  0  0  0  0  0  0  0  0  0  0  0
   58.1500   31.1610   43.3560 C   0  0  0  0  0  0  0  0  0  0  0  0
  1  2  2  0
  2  3  1  0
  3  4  1  0
  4  5  2  3
  5  6  1  0
  6  7  2  0
  7  8  1  0
  7  9  1  0
  9 10  1  0
 10 11  2  0
 10 12  1  0
 12 13  1  0
 13 14  2  0
  4 15  1  0
 15 16  1  0
 16 17  2  0
 16 18  1  0
 18 19  1  0
 19 20  1  0
 20 21  1  0
 21 22  1  0
 22 23  1  0
 23 24  2  0
 24 25  1  0
 25 26  2  0
 26 27  1  0
 27 28  2  0
 21 29  1  0
 29 30  1  0
 15 31  2  0
 31 32  1  0
 31  2  1  0
 13  6  1  0
 30 18  1  0
 28 23  1  0
M  CHG  3   8  -1   9  -1  12  -1
M  END
>  <UniqueID>  (3282) 
84

>  <SMILES>  (3282) 
C=c1[nH]c(=Cc2c([O-])[n-]c(=O)[n-]c2=O)c(C(=O)N2CCC(Cc3ccccc3)CC2)c1C

>  <Energy>  (3282) 
100.77463368296722

>  <Genealogy>  (3282) 
C=c1[nH]c(=Cc2c([O-])[n-]c(=O)[n-]c2=O)c(C(=O)N2CCC(Cc3ccccc3)CC2)c1C (protonated)
C=c1[nH]c(=Cc2c([O-])[n-]c(=O)[n-]c2=O)c(C(=O)N2CCC(Cc3ccccc3)CC2)c1C (3D coordinates assigned)
C=c1[nH]c(=Cc2c([O-])[n-]c(=O)[n-]c2=O)c(C(=O)N2CCC(Cc3ccccc3)CC2)c1C (nonaromatic ring conformer: 100.77463368296722 kcal/mol)

>  <smiles>  (3282) 
C=c1[nH]c(=Cc2c(O)[nH]c(=O)[nH]c2=O)c(C(=O)N2CCC(Cc3ccccc3)CC2)c1C

>  <score_type>  (3282) 
oracle

>  <origin>  (3282) 
adg

>  <m_score__min__energy>  (3282) 
-16.559999999999999

>  <m_primary>  (3282) 
energy

$$$$
88:0
     RDKit          3D

 33 36  0  0  0  0  0  0  0  0999 V2000
   55.0970   31.5670   52.0450 C   0  0  0  0  0  0  0  0  0  0  0  0
   55.1230   30.2960   52.4750 C   0  0  0  0  0  0  0  0  0  0  0  0
   54.0280   29.4860   52.8280 C   0  0  0  0  0  0  0  0  0  0  0  0
   52.7020   29.6820   52.6960 C   0  0  0  0  0  0  0  0  0  0  0  0
   52.0630   30.8850   52.1440 C   0  0  0  0  0  0  0  0  0  0  0  0
   51.6580   31.9200   52.9000 N   0  0  0  0  0  0  0  0  0  0  0  0
   51.0490   32.7360   52.0120 C   0  0  0  0  0  0  0  0  0  0  0  0
   50.5420   33.8380   52.3430 O   0  0  0  0  0  0  0  0  0  0  0  0
   51.0170   32.2710   50.7460 N   0  0  0  0  0  0  0  0  0  0  0  0
   51.6480   31.0910   50.8440 C   0  0  0  0  0  0  0  0  0  0  0  0
   51.8140   30.2200   49.7710 O   0  0  0  0  0  0  0  0  0  0  0  0
   54.5640   28.3300   53.3750 C   0  0  0  0  0  0  0  0  0  0  0  0
   55.9370   28.4420   53.2870 C   0  0  0  0  0  0  0  0  0  0  0  0
   56.9180   27.4260   53.7850 C   0  0  0  0  0  0  0  0  0  0  0  0
   56.2730   29.6270   52.7390 N   0  0  0  0  0  0  0  0  0  0  0  0
   57.6130   30.1030   52.5510 C   0  0  0  0  0  0  0  0  0  0  0  0
   58.1930   30.9550   53.5000 C   0  0  0  0  0  0  0  0  0  0  0  0
   59.5050   31.3990   53.3300 C   0  0  0  0  0  0  0  0  0  0  0  0
   60.2430   30.9980   52.2120 C   0  0  0  0  0  0  0  0  0  0  0  0
   59.6690   30.1540   51.2440 C   0  0  0  0  0  0  0  0  0  0  0  0
   60.4560   29.7220   50.0680 C   0  0  0  0  0  0  0  0  0  0  0  0
   61.7140   29.7890   50.1040 O   0  0  0  0  0  0  0  0  0  0  0  0
   59.8120   29.2310   48.8820 N   0  0  0  0  0  0  0  0  0  0  0  0
   60.2900   28.0050   48.2380 C   0  0  0  0  0  0  0  0  0  0  0  0
   60.3660   28.2300   46.7260 C   0  0  0  0  0  0  0  0  0  0  0  0
   59.0530   28.6000   46.1410 N   0  0  0  0  0  0  0  0  0  0  0  0
   59.2250   29.3670   44.8890 C   0  0  0  0  0  0  0  0  0  0  0  0
   57.8800   29.5240   44.1690 C   0  0  0  0  0  0  0  0  0  0  0  0
   57.0860   30.5000   44.8170 O   0  0  0  0  0  0  0  0  0  0  0  0
   57.4960   31.7980   44.4440 C   0  0  0  0  0  0  0  0  0  0  0  0
   58.1170   29.2690   47.0860 C   0  0  0  0  0  0  0  0  0  0  0  0
   58.8330   30.0730   48.1810 C   0  0  0  0  0  0  0  0  0  0  0  0
   58.3500   29.7010   51.4280 C   0  0  0  0  0  0  0  0  0  0  0  0
  1  2  2  0
  2  3  1  0
  3  4  2  3
  4  5  1  0
  5  6  1  0
  6  7  1  0
  7  8  2  0
  7  9  1  0
  9 10  1  0
 10 11  1  0
  3 12  1  0
 12 13  2  0
 13 14  1  0
 13 15  1  0
 15 16  1  0
 16 17  2  0
 17 18  1  0
 18 19  2  0
 19 20  1  0
 20 21  1  0
 21 22  2  0
 21 23  1  0
 23 24  1  0
 24 25  1  0
 25 26  1  0
 26 27  1  0
 27 28  1  0
 28 29  1  0
 29 30  1  0
 26 31  1  0
 31 32  1  0
 20 33  2  0
 15  2  1  0
 33 16  1  0
 10  5  2  0
 32 23  1  0
M  CHG  2   6  -1   9  -1
M  END
>  <UniqueID>  (3283) 
85

>  <SMILES>  (3283) 
C=c1c(=Cc2[n-]c(=O)[n-]c2O)cc(C)n1-c1cccc(C(=O)N2CCN(CCOC)CC2)c1

>  <Energy>  (3283) 
152.31900231629092

>  <Genealogy>  (3283) 
C=c1c(=Cc2[n-]c(=O)[n-]c2O)cc(C)n1-c1cccc(C(=O)N2CCN(CCOC)CC2)c1 (protonated)
C=c1c(=Cc2[n-]c(=O)[n-]c2O)cc(C)n1-c1cccc(C(=O)N2CCN(CCOC)CC2)c1 (3D coordinates assigned)
C=c1c(=Cc2[n-]c(=O)[n-]c2O)cc(C)n1-c1cccc(C(=O)N2CCN(CCOC)CC2)c1 (nonaromatic ring conformer: 152.31900231629092 kcal/mol)

>  <smiles>  (3283) 
C=c1c(=Cc2[nH]c(=O)[nH]c2O)cc(C)n1-c1cccc(C(=O)N2CCN(CCOC)CC2)c1

>  <score_type>  (3283) 
oracle

>  <origin>  (3283) 
adg

>  <m_score__min__energy>  (3283) 
-14.24

>  <m_primary>  (3283) 
energy

$$$$
4:0
     RDKit          3D

 32 35  0  0  0  0  0  0  0  0999 V2000
   61.6700   30.0880   49.3130 O   0  0  0  0  0  0  0  0  0  0  0  0
   60.4280   30.0400   49.5250 C   0  0  0  0  0  0  0  0  0  0  0  0
   59.7690   28.7190   49.7640 C   0  0  0  0  0  0  0  0  0  0  0  0
   60.6210   27.3910   48.8460 S   0  0  0  0  0  0  0  0  0  0  0  0
   59.2190   27.0140   47.7980 C   0  0  0  0  0  0  0  0  0  0  0  0
   58.1560   27.8240   47.6640 N   0  0  0  0  0  0  0  0  0  0  0  0
   57.3240   27.2140   46.8400 N   0  0  0  0  0  0  0  0  0  0  0  0
   57.9030   26.0480   46.4940 C   0  0  0  0  0  0  0  0  0  0  0  0
   57.2830   25.0600   45.5860 C   0  0  0  0  0  0  0  0  0  0  0  0
   57.4830   25.1440   44.1960 C   0  0  0  0  0  0  0  0  0  0  0  0
   56.8990   24.2050   43.3390 C   0  0  0  0  0  0  0  0  0  0  0  0
   56.1100   23.1760   43.8600 C   0  0  0  0  0  0  0  0  0  0  0  0
   55.5310   22.2440   43.0080 O   0  0  0  0  0  0  0  0  0  0  0  0
   55.9060   23.0840   45.2400 C   0  0  0  0  0  0  0  0  0  0  0  0
   56.4870   24.0200   46.1000 C   0  0  0  0  0  0  0  0  0  0  0  0
   59.1080   25.8820   47.0780 N   0  0  0  0  0  0  0  0  0  0  0  0
   59.6430   31.2380   49.5740 N   0  0  0  0  0  0  0  0  0  0  0  0
   59.5580   32.2500   48.5610 C   0  0  0  0  0  0  0  0  0  0  0  0
   60.2300   33.4610   48.7670 C   0  0  0  0  0  0  0  0  0  0  0  0
   60.1680   34.4780   47.8110 C   0  0  0  0  0  0  0  0  0  0  0  0
   59.4190   34.2980   46.6470 C   0  0  0  0  0  0  0  0  0  0  0  0
   58.7090   33.1070   46.4430 C   0  0  0  0  0  0  0  0  0  0  0  0
   57.7350   32.8980   44.9840 S   0  0  0  0  0  0  0  0  0  0  0  0
   56.2910   32.7740   45.3840 O   0  0  0  0  0  0  0  0  0  0  0  0
   57.8680   34.1240   44.1240 O   0  0  0  0  0  0  0  0  0  0  0  0
   58.1980   31.4890   44.0540 N   0  0  0  0  0  0  0  0  0  0  0  0
   57.3160   31.2500   42.8910 C   0  0  0  0  0  0  0  0  0  0  0  0
   56.3110   30.1110   43.1260 C   0  0  0  0  0  0  0  0  0  0  0  0
   55.9630   30.0390   44.4890 O   0  0  0  0  0  0  0  0  0  0  0  0
   57.0670   29.5770   45.2420 C   0  0  0  0  0  0  0  0  0  0  0  0
   58.3930   30.2950   44.8970 C   0  0  0  0  0  0  0  0  0  0  0  0
   58.7790   32.0850   47.4010 C   0  0  0  0  0  0  0  0  0  0  0  0
  1  2  2  0
  2  3  1  0
  3  4  1  0
  4  5  1  0
  5  6  2  0
  6  7  1  0
  7  8  1  0
  8  9  1  0
  9 10  2  0
 10 11  1  0
 11 12  2  0
 12 13  1  0
 12 14  1  0
 14 15  2  0
  8 16  2  0
  2 17  1  0
 17 18  1  0
 18 19  2  0
 19 20  1  0
 20 21  2  0
 21 22  1  0
 22 23  1  0
 23 24  2  0
 23 25  2  0
 23 26  1  0
 26 27  1  0
 27 28  1  0
 28 29  1  0
 29 30  1  0
 30 31  1  0
 22 32  2  0
 16  5  1  0
 32 18  1  0
 15  9  1  0
 31 26  1  0
M  CHG  3   7  -1  13  -1  17  -1
M  END
>  <UniqueID>  (3284) 
5

>  <SMILES>  (3284) 
O=C(CSc1n[n-]c(-c2ccc([O-])cc2)n1)[N-]c1cccc(S(=O)(=O)N2CCOCC2)c1

>  <Energy>  (3284) 
93.15752376913919

>  <Genealogy>  (3284) 
O=C(CSc1n[n-]c(-c2ccc([O-])cc2)n1)[N-]c1cccc(S(=O)(=O)N2CCOCC2)c1 (protonated)
O=C(CSc1n[n-]c(-c2ccc([O-])cc2)n1)[N-]c1cccc(S(=O)(=O)N2CCOCC2)c1 (3D coordinates assigned)
O=C(CSc1n[n-]c(-c2ccc([O-])cc2)n1)[N-]c1cccc(S(=O)(=O)N2CCOCC2)c1 (nonaromatic ring conformer: 93.15752376913919 kcal/mol)

>  <smiles>  (3284) 
O=C(CSc1n[nH]c(-c2ccc(O)cc2)n1)Nc1cccc(S(=O)(=O)N2CCOCC2)c1

>  <score_type>  (3284) 
oracle

>  <origin>  (3284) 
adg

>  <m_score__min__energy>  (3284) 
-15.34

>  <m_primary>  (3284) 
energy

$$$$
5:0
     RDKit          3D

 27 29  0  0  0  0  0  0  0  0999 V2000
   58.5750   30.1980   47.5740 C   0  0  0  0  0  0  0  0  0  0  0  0
   58.3840   30.4280   46.2660 C   0  0  0  0  0  0  0  0  0  0  0  0
   58.4460   29.4850   45.2250 C   0  0  0  0  0  0  0  0  0  0  0  0
   58.5250   28.1400   45.2520 C   0  0  0  0  0  0  0  0  0  0  0  0
   57.4750   27.2280   45.7270 C   0  0  0  0  0  0  0  0  0  0  0  0
   57.7510   25.6550   46.2620 S   0  0  0  0  0  0  0  0  0  0  0  0
   56.1090   25.3270   46.4060 C   0  0  0  0  0  0  0  0  0  0  0  0
   55.6370   24.2310   46.8090 O   0  0  0  0  0  0  0  0  0  0  0  0
   55.3350   26.3660   46.0300 N   0  0  0  0  0  0  0  0  0  0  0  0
   56.0950   27.4210   45.6350 C   0  0  0  0  0  0  0  0  0  0  0  0
   55.5220   28.5920   45.1530 O   0  0  0  0  0  0  0  0  0  0  0  0
   58.4010   30.2060   44.0450 C   0  0  0  0  0  0  0  0  0  0  0  0
   58.2600   31.5330   44.3930 C   0  0  0  0  0  0  0  0  0  0  0  0
   58.1410   32.6580   43.4080 C   0  0  0  0  0  0  0  0  0  0  0  0
   58.2280   31.6720   45.7390 N   0  0  0  0  0  0  0  0  0  0  0  0
   58.1550   32.9470   46.4680 C   0  0  0  0  0  0  0  0  0  0  0  0
   59.4750   33.2570   47.1090 C   0  0  0  0  0  0  0  0  0  0  0  0
   59.6350   34.3640   47.6920 O   0  0  0  0  0  0  0  0  0  0  0  0
   60.5480   32.3050   47.0550 N   0  0  0  0  0  0  0  0  0  0  0  0
   61.8420   32.5810   47.6120 C   0  0  0  0  0  0  0  0  0  0  0  0
   62.6320   33.5600   47.0000 C   0  0  0  0  0  0  0  0  0  0  0  0
   63.8810   33.8880   47.5200 C   0  0  0  0  0  0  0  0  0  0  0  0
   64.3550   33.2430   48.6610 C   0  0  0  0  0  0  0  0  0  0  0  0
   63.5900   32.2470   49.2890 C   0  0  0  0  0  0  0  0  0  0  0  0
   64.1510   31.5650   50.5110 C   0  0  0  0  0  0  0  0  0  0  0  0
   62.3360   31.8740   48.7380 C   0  0  0  0  0  0  0  0  0  0  0  0
   61.5360   30.7480   49.3510 C   0  0  0  0  0  0  0  0  0  0  0  0
  1  2  2  0
  2  3  1  0
  3  4  2  3
  4  5  1  0
  5  6  1  0
  6  7  1  0
  7  8  2  0
  7  9  1  0
  9 10  1  0
 10 11  1  0
  3 12  1  0
 12 13  2  0
 13 14  1  0
 13 15  1  0
 15 16  1  0
 16 17  1  0
 17 18  2  0
 17 19  1  0
 19 20  1  0
 20 21  2  0
 21 22  1  0
 22 23  2  0
 23 24  1  0
 24 25  1  0
 24 26  2  0
 26 27  1  0
 15  2  1  0
 26 20  1  0
 10  5  2  0
M  CHG  2   9  -1  11  -1
M  END
>  <UniqueID>  (3285) 
6

>  <SMILES>  (3285) 
C=c1c(=Cc2sc(=O)[n-]c2[O-])cc(C)n1CC(=O)Nc1cccc(C)c1C

>  <Energy>  (3285) 
124.41048503839612

>  <Genealogy>  (3285) 
C=c1c(=Cc2sc(=O)[n-]c2[O-])cc(C)n1CC(=O)Nc1cccc(C)c1C (protonated)
C=c1c(=Cc2sc(=O)[n-]c2[O-])cc(C)n1CC(=O)Nc1cccc(C)c1C (3D coordinates assigned)
C=c1c(=Cc2sc(=O)[n-]c2[O-])cc(C)n1CC(=O)Nc1cccc(C)c1C (optimized conformer: 124.41048503839612 kcal/mol)

>  <smiles>  (3285) 
C=c1c(=Cc2sc(=O)[nH]c2O)cc(C)n1CC(=O)Nc1cccc(C)c1C

>  <score_type>  (3285) 
oracle

>  <origin>  (3285) 
adg

>  <m_score__min__energy>  (3285) 
-14.539999999999999

>  <m_primary>  (3285) 
energy

$$$$
9:0
     RDKit          3D

 33 36  0  0  0  0  0  0  0  0999 V2000
   57.7450   27.7190   42.9770 C   0  0  0  0  0  0  0  0  0  0  0  0
   57.6690   28.4320   44.1120 C   0  0  0  0  0  0  0  0  0  0  0  0
   57.8220   27.9460   45.4210 C   0  0  0  0  0  0  0  0  0  0  0  0
   57.8730   26.6870   45.8990 C   0  0  0  0  0  0  0  0  0  0  0  0
   56.9470   25.5990   45.5480 C   0  0  0  0  0  0  0  0  0  0  0  0
   57.3510   24.3410   45.2690 N   0  0  0  0  0  0  0  0  0  0  0  0
   56.1950   23.6520   45.1480 C   0  0  0  0  0  0  0  0  0  0  0  0
   56.1580   22.4200   44.8880 O   0  0  0  0  0  0  0  0  0  0  0  0
   55.0900   24.4030   45.3530 N   0  0  0  0  0  0  0  0  0  0  0  0
   53.6980   23.9600   45.4040 C   0  0  0  0  0  0  0  0  0  0  0  0
   53.4930   23.0430   46.5780 C   0  0  0  0  0  0  0  0  0  0  0  0
   52.3180   22.2870   46.6970 C   0  0  0  0  0  0  0  0  0  0  0  0
   52.1220   21.4700   47.8120 C   0  0  0  0  0  0  0  0  0  0  0  0
   53.1030   21.4230   48.8050 C   0  0  0  0  0  0  0  0  0  0  0  0
   54.2310   22.1720   48.6840 N   0  0  0  0  0  0  0  0  0  0  0  0
   54.4440   22.9750   47.6060 C   0  0  0  0  0  0  0  0  0  0  0  0
   55.5700   25.6250   45.6340 C   0  0  0  0  0  0  0  0  0  0  0  0
   54.7870   26.7150   45.9970 O   0  0  0  0  0  0  0  0  0  0  0  0
   57.9240   29.0580   46.2360 C   0  0  0  0  0  0  0  0  0  0  0  0
   57.7650   30.1660   45.4280 C   0  0  0  0  0  0  0  0  0  0  0  0
   57.8670   31.5600   45.9120 C   0  0  0  0  0  0  0  0  0  0  0  0
   56.9670   32.3870   45.6010 O   0  0  0  0  0  0  0  0  0  0  0  0
   59.0080   32.0060   46.6690 N   0  0  0  0  0  0  0  0  0  0  0  0
   59.5000   33.3780   46.4800 C   0  0  0  0  0  0  0  0  0  0  0  0
   60.6500   33.7170   47.4380 C   0  0  0  0  0  0  0  0  0  0  0  0
   61.6110   32.6040   47.5160 N   0  0  0  0  0  0  0  0  0  0  0  0
   63.0340   32.8410   47.6140 C   0  0  0  0  0  0  0  0  0  0  0  0
   63.5940   34.2100   47.8560 C   0  0  0  0  0  0  0  0  0  0  0  0
   63.8380   31.8780   47.4820 O   0  0  0  0  0  0  0  0  0  0  0  0
   61.1230   31.2200   47.6270 C   0  0  0  0  0  0  0  0  0  0  0  0
   59.5970   31.1620   47.7150 C   0  0  0  0  0  0  0  0  0  0  0  0
   57.5870   29.7880   44.1410 N   0  0  0  0  0  0  0  0  0  0  0  0
   57.4110   30.6840   42.9920 C   0  0  0  0  0  0  0  0  0  0  0  0
  1  2  2  0
  2  3  1  0
  3  4  2  3
  4  5  1  0
  5  6  1  0
  6  7  1  0
  7  8  2  0
  7  9  1  0
  9 10  1  0
 10 11  1  0
 11 12  2  0
 12 13  1  0
 13 14  2  0
 14 15  1  0
 15 16  2  0
  9 17  1  0
 17 18  1  0
  3 19  1  0
 19 20  2  0
 20 21  1  0
 21 22  2  0
 21 23  1  0
 23 24  1  0
 24 25  1  0
 25 26  1  0
 26 27  1  0
 27 28  1  0
 27 29  2  0
 26 30  1  0
 30 31  1  0
 20 32  1  0
 32 33  1  0
 32  2  1  0
 17  5  2  0
 31 23  1  0
 16 11  1  0
M  CHG  2   6  -1  18  -1
M  END
>  <UniqueID>  (3286) 
10

>  <SMILES>  (3286) 
C=c1c(=Cc2[n-]c(=O)n(Cc3cccnc3)c2[O-])cc(C(=O)N2CCN(C(C)=O)CC2)n1C

>  <Energy>  (3286) 
136.91020849175936

>  <Genealogy>  (3286) 
C=c1c(=Cc2[n-]c(=O)n(Cc3cccnc3)c2[O-])cc(C(=O)N2CCN(C(C)=O)CC2)n1C (protonated)
C=c1c(=Cc2[n-]c(=O)n(Cc3cccnc3)c2[O-])cc(C(=O)N2CCN(C(C)=O)CC2)n1C (3D coordinates assigned)
C=c1c(=Cc2[n-]c(=O)n(Cc3cccnc3)c2[O-])cc(C(=O)N2CCN(C(C)=O)CC2)n1C (nonaromatic ring conformer: 136.91020849175936 kcal/mol)

>  <smiles>  (3286) 
C=c1c(=Cc2[nH]c(=O)n(Cc3cccnc3)c2O)cc(C(=O)N2CCN(C(C)=O)CC2)n1C

>  <score_type>  (3286) 
oracle

>  <origin>  (3286) 
adg

>  <m_score__min__energy>  (3286) 
-14.390000000000001

>  <m_primary>  (3286) 
energy

$$$$
18:0
     RDKit          3D

 32 36  0  0  0  0  0  0  0  0999 V2000
   56.6550   29.3510   43.4930 C   0  0  0  0  0  0  0  0  0  0  0  0
   57.2240   29.3520   44.7000 C   0  0  0  0  0  0  0  0  0  0  0  0
   57.4060   30.4660   45.3720 O   0  0  0  0  0  0  0  0  0  0  0  0
   58.0860   30.2060   46.4640 C   0  0  0  0  0  0  0  0  0  0  0  0
   58.4920   31.2140   47.4640 C   0  0  0  0  0  0  0  0  0  0  0  0
   58.1310   32.4110   47.2900 O   0  0  0  0  0  0  0  0  0  0  0  0
   59.2790   30.8690   48.6280 N   0  0  0  0  0  0  0  0  0  0  0  0
   60.1960   29.7220   48.5970 C   0  0  0  0  0  0  0  0  0  0  0  0
   61.2170   29.8060   49.7330 C   0  0  0  0  0  0  0  0  0  0  0  0
   60.5260   29.9430   51.0290 N   0  0  0  0  0  0  0  0  0  0  0  0
   61.5090   30.0030   52.1320 C   0  0  0  0  0  0  0  0  0  0  0  0
   62.7960   30.6070   51.6540 C   0  0  0  0  0  0  0  0  0  0  0  0
   64.0530   30.0230   51.7960 C   0  0  0  0  0  0  0  0  0  0  0  0
   64.9300   30.9340   51.2480 C   0  0  0  0  0  0  0  0  0  0  0  0
   66.3160   30.8880   51.1060 C   0  0  0  0  0  0  0  0  0  0  0  0
   66.9500   31.9880   50.4970 C   0  0  0  0  0  0  0  0  0  0  0  0
   66.1920   33.0940   50.0520 C   0  0  0  0  0  0  0  0  0  0  0  0
   64.7930   33.1110   50.2120 C   0  0  0  0  0  0  0  0  0  0  0  0
   64.1930   32.0080   50.8170 C   0  0  0  0  0  0  0  0  0  0  0  0
   62.8850   31.8210   51.0620 N   0  0  0  0  0  0  0  0  0  0  0  0
   59.5550   31.0740   51.0810 C   0  0  0  0  0  0  0  0  0  0  0  0
   59.3690   31.8170   49.7460 C   0  0  0  0  0  0  0  0  0  0  0  0
   58.3740   28.8550   46.5240 C   0  0  0  0  0  0  0  0  0  0  0  0
   57.7850   28.2830   45.4100 C   0  0  0  0  0  0  0  0  0  0  0  0
   57.7980   26.9600   45.1660 C   0  0  0  0  0  0  0  0  0  0  0  0
   57.2200   25.9220   46.0340 C   0  0  0  0  0  0  0  0  0  0  0  0
   57.8820   24.8370   46.4790 N   0  0  0  0  0  0  0  0  0  0  0  0
   56.9190   24.1180   47.0970 C   0  0  0  0  0  0  0  0  0  0  0  0
   57.1550   23.0200   47.6680 O   0  0  0  0  0  0  0  0  0  0  0  0
   55.6840   24.6600   47.0460 N   0  0  0  0  0  0  0  0  0  0  0  0
   55.8910   25.7940   46.3560 C   0  0  0  0  0  0  0  0  0  0  0  0
   54.8820   26.6900   46.0220 O   0  0  0  0  0  0  0  0  0  0  0  0
  1  2  2  0
  2  3  1  0
  3  4  1  0
  4  5  1  0
  5  6  2  0
  5  7  1  0
  7  8  1  0
  8  9  1  0
  9 10  1  0
 10 11  1  0
 11 12  1  0
 12 13  2  0
 13 14  1  0
 14 15  2  0
 15 16  1  0
 16 17  2  0
 17 18  1  0
 18 19  2  0
 19 20  1  0
 10 21  1  0
 21 22  1  0
  4 23  2  0
 23 24  1  0
 24 25  2  3
 25 26  1  0
 26 27  1  0
 27 28  1  0
 28 29  2  0
 28 30  1  0
 30 31  1  0
 31 32  1  0
 24  2  1  0
 31 26  2  0
 22  7  1  0
 20 12  1  0
 19 14  1  0
M  CHG  3  27  -1  30  -1  32  -1
M  END
>  <UniqueID>  (3287) 
19

>  <SMILES>  (3287) 
C=c1oc(C(=O)N2CCN(Cc3cc4ccccc4[nH]3)CC2)cc1=Cc1[n-]c(=O)[n-]c1[O-]

>  <Energy>  (3287) 
164.3274923694636

>  <Genealogy>  (3287) 
C=c1oc(C(=O)N2CCN(Cc3cc4ccccc4[nH]3)CC2)cc1=Cc1[n-]c(=O)[n-]c1[O-] (protonated)
C=c1oc(C(=O)N2CCN(Cc3cc4ccccc4[nH]3)CC2)cc1=Cc1[n-]c(=O)[n-]c1[O-] (3D coordinates assigned)
C=c1oc(C(=O)N2CCN(Cc3cc4ccccc4[nH]3)CC2)cc1=Cc1[n-]c(=O)[n-]c1[O-] (nonaromatic ring conformer: 164.3274923694636 kcal/mol)

>  <smiles>  (3287) 
C=c1oc(C(=O)N2CCN(Cc3cc4ccccc4[nH]3)CC2)cc1=Cc1[nH]c(=O)[nH]c1O

>  <score_type>  (3287) 
oracle

>  <origin>  (3287) 
adg

>  <m_score__min__energy>  (3287) 
-18.32

>  <m_primary>  (3287) 
energy

$$$$
28:0
     RDKit          3D

 31 34  0  0  0  0  0  0  0  0999 V2000
   58.4470   33.2450   44.2320 C   0  0  0  0  0  0  0  0  0  0  0  0
   58.9400   33.2250   45.4780 C   0  0  0  0  0  0  0  0  0  0  0  0
   59.0900   34.4290   46.0870 N   0  0  0  0  0  0  0  0  0  0  0  0
   59.3870   34.5610   47.4000 C   0  0  0  0  0  0  0  0  0  0  0  0
   59.4930   33.4340   48.2130 C   0  0  0  0  0  0  0  0  0  0  0  0
   59.8090   33.6230   49.6460 C   0  0  0  0  0  0  0  0  0  0  0  0
   58.8790   33.5300   50.4940 O   0  0  0  0  0  0  0  0  0  0  0  0
   61.1640   33.8280   50.0960 N   0  0  0  0  0  0  0  0  0  0  0  0
   61.5390   33.3940   51.4510 C   0  0  0  0  0  0  0  0  0  0  0  0
   63.0140   33.6800   51.7450 C   0  0  0  0  0  0  0  0  0  0  0  0
   63.8330   33.3040   50.5840 N   0  0  0  0  0  0  0  0  0  0  0  0
   64.9360   32.3880   50.7270 C   0  0  0  0  0  0  0  0  0  0  0  0
   64.7110   31.0600   51.1330 C   0  0  0  0  0  0  0  0  0  0  0  0
   65.7810   30.1680   51.2570 C   0  0  0  0  0  0  0  0  0  0  0  0
   67.0820   30.5920   50.9730 C   0  0  0  0  0  0  0  0  0  0  0  0
   67.3150   31.9070   50.5630 C   0  0  0  0  0  0  0  0  0  0  0  0
   66.2470   32.8020   50.4360 C   0  0  0  0  0  0  0  0  0  0  0  0
   63.4760   33.8090   49.2490 C   0  0  0  0  0  0  0  0  0  0  0  0
   62.1390   34.5600   49.2710 C   0  0  0  0  0  0  0  0  0  0  0  0
   59.3640   32.1550   47.6310 C   0  0  0  0  0  0  0  0  0  0  0  0
   59.4290   31.0050   48.4280 O   0  0  0  0  0  0  0  0  0  0  0  0
   59.1820   32.0250   46.2260 C   0  0  0  0  0  0  0  0  0  0  0  0
   59.2660   30.7790   45.6820 C   0  0  0  0  0  0  0  0  0  0  0  0
   58.2070   29.7460   45.6930 C   0  0  0  0  0  0  0  0  0  0  0  0
   58.4750   28.4920   46.2610 C   0  0  0  0  0  0  0  0  0  0  0  0
   57.5030   27.4860   46.2420 C   0  0  0  0  0  0  0  0  0  0  0  0
   56.2650   27.7180   45.6350 C   0  0  0  0  0  0  0  0  0  0  0  0
   55.3030   26.7160   45.6220 O   0  0  0  0  0  0  0  0  0  0  0  0
   56.0000   28.9570   45.0370 C   0  0  0  0  0  0  0  0  0  0  0  0
   54.7760   29.1870   44.4210 O   0  0  0  0  0  0  0  0  0  0  0  0
   56.9710   29.9630   45.0550 C   0  0  0  0  0  0  0  0  0  0  0  0
  1  2  2  0
  2  3  1  0
  3  4  2  0
  4  5  1  0
  5  6  1  0
  6  7  2  0
  6  8  1  0
  8  9  1  0
  9 10  1  0
 10 11  1  0
 11 12  1  0
 12 13  2  0
 13 14  1  0
 14 15  2  0
 15 16  1  0
 16 17  2  0
 11 18  1  0
 18 19  1  0
  5 20  2  0
 20 21  1  0
 20 22  1  0
 22 23  2  3
 23 24  1  0
 24 25  2  0
 25 26  1  0
 26 27  2  0
 27 28  1  0
 27 29  1  0
 29 30  1  0
 29 31  2  0
 22  2  1  0
 31 24  1  0
 19  8  1  0
 17 12  1  0
M  CHG  2  28  -1  30  -1
M  END
>  <UniqueID>  (3288) 
29

>  <SMILES>  (3288) 
C=c1ncc(C(=O)N2CCN(c3ccccc3)CC2)c(O)c1=Cc1ccc([O-])c([O-])c1

>  <Energy>  (3288) 
91.32904808593848

>  <Genealogy>  (3288) 
C=c1ncc(C(=O)N2CCN(c3ccccc3)CC2)c(O)c1=Cc1ccc([O-])c([O-])c1 (protonated)
C=c1ncc(C(=O)N2CCN(c3ccccc3)CC2)c(O)c1=Cc1ccc([O-])c([O-])c1 (3D coordinates assigned)
C=c1ncc(C(=O)N2CCN(c3ccccc3)CC2)c(O)c1=Cc1ccc([O-])c([O-])c1 (nonaromatic ring conformer: 91.32904808593848 kcal/mol)

>  <smiles>  (3288) 
C=c1ncc(C(=O)N2CCN(c3ccccc3)CC2)c(O)c1=Cc1ccc(O)c(O)c1

>  <score_type>  (3288) 
oracle

>  <origin>  (3288) 
adg

>  <m_score__min__energy>  (3288) 
-16.309999999999999

>  <m_primary>  (3288) 
energy

$$$$
38:0
     RDKit          3D

 27 30  0  0  0  0  0  0  0  0999 V2000
   54.3490   28.6750   53.9500 C   0  0  0  0  0  0  0  0  0  0  0  0
   54.9720   29.6630   53.2880 C   0  0  0  0  0  0  0  0  0  0  0  0
   54.3590   30.7050   52.5860 C   0  0  0  0  0  0  0  0  0  0  0  0
   53.0390   30.9600   52.4920 C   0  0  0  0  0  0  0  0  0  0  0  0
   52.2930   31.0140   51.2180 C   0  0  0  0  0  0  0  0  0  0  0  0
   51.3600   31.9630   50.8690 C   0  0  0  0  0  0  0  0  0  0  0  0
   51.0230   33.0840   51.6180 O   0  0  0  0  0  0  0  0  0  0  0  0
   50.7980   31.6610   49.6830 N   0  0  0  0  0  0  0  0  0  0  0  0
   51.4060   30.5020   49.3510 C   0  0  0  0  0  0  0  0  0  0  0  0
   51.1410   29.8690   48.2960 O   0  0  0  0  0  0  0  0  0  0  0  0
   52.3080   30.0750   50.2570 N   0  0  0  0  0  0  0  0  0  0  0  0
   55.3880   31.4730   52.0570 C   0  0  0  0  0  0  0  0  0  0  0  0
   56.5720   30.8700   52.4330 C   0  0  0  0  0  0  0  0  0  0  0  0
   57.9260   31.4810   52.2120 C   0  0  0  0  0  0  0  0  0  0  0  0
   58.2350   31.5170   50.7500 C   0  0  0  0  0  0  0  0  0  0  0  0
   58.1420   32.6070   50.0090 O   0  0  0  0  0  0  0  0  0  0  0  0
   58.5130   32.2850   48.7950 C   0  0  0  0  0  0  0  0  0  0  0  0
   58.5780   33.1130   47.6760 C   0  0  0  0  0  0  0  0  0  0  0  0
   59.0160   32.5450   46.4650 C   0  0  0  0  0  0  0  0  0  0  0  0
   59.3740   31.1800   46.4010 C   0  0  0  0  0  0  0  0  0  0  0  0
   59.2990   30.3690   47.5510 C   0  0  0  0  0  0  0  0  0  0  0  0
   58.8610   30.9610   48.7320 C   0  0  0  0  0  0  0  0  0  0  0  0
   58.6890   30.4390   49.9920 C   0  0  0  0  0  0  0  0  0  0  0  0
   56.3210   29.7730   53.1860 N   0  0  0  0  0  0  0  0  0  0  0  0
   57.3010   28.9330   53.8190 C   0  0  0  0  0  0  0  0  0  0  0  0
   58.0130   28.1660   53.1190 O   0  0  0  0  0  0  0  0  0  0  0  0
   57.4970   28.9650   55.3010 C   0  0  0  0  0  0  0  0  0  0  0  0
  1  2  2  0
  2  3  1  0
  3  4  2  0
  4  5  1  0
  5  6  2  0
  6  7  1  0
  6  8  1  0
  8  9  1  0
  9 10  2  0
  9 11  1  0
  3 12  1  0
 12 13  2  0
 13 14  1  0
 14 15  1  0
 15 16  1  0
 16 17  1  0
 17 18  2  0
 18 19  1  0
 19 20  2  0
 20 21  1  0
 21 22  2  0
 22 23  1  0
 13 24  1  0
 24 25  1  0
 25 26  2  0
 25 27  1  0
 24  2  1  0
 11  5  1  0
 23 15  2  0
 22 17  1  0
M  CHG  2   7  -1   8  -1
M  END
>  <UniqueID>  (3289) 
38

>  <SMILES>  (3289) 
C=c1/c(=C/c2[nH]c(=O)[n-]c2[O-])cc(Cc2cc3ccccc3o2)n1C(C)=O

>  <Energy>  (3289) 
147.32388071290882

>  <Genealogy>  (3289) 
C=c1c(=Cc2[nH]c(=O)[n-]c2[O-])cc(Cc2cc3ccccc3o2)n1C(C)=O (protonated)
C=c1/c(=C/c2[nH]c(=O)[n-]c2[O-])cc(Cc2cc3ccccc3o2)n1C(C)=O (cis-trans isomerization)
C=c1/c(=C/c2[nH]c(=O)[n-]c2[O-])cc(Cc2cc3ccccc3o2)n1C(C)=O (3D coordinates assigned)
C=c1/c(=C/c2[nH]c(=O)[n-]c2[O-])cc(Cc2cc3ccccc3o2)n1C(C)=O (optimized conformer: 147.32388071290882 kcal/mol)

>  <smiles>  (3289) 
C=c1c(=Cc2[nH]c(=O)[nH]c2O)cc(Cc2cc3ccccc3o2)n1C(C)=O

>  <score_type>  (3289) 
oracle

>  <origin>  (3289) 
adg

>  <m_score__min__energy>  (3289) 
-14.81

>  <m_primary>  (3289) 
energy

$$$$
42:0
     RDKit          3D

 34 37  0  0  0  0  0  0  0  0999 V2000
   54.7940   26.2840   46.0000 O   0  0  0  0  0  0  0  0  0  0  0  0
   54.5330   24.9640   45.6370 C   0  0  0  0  0  0  0  0  0  0  0  0
   53.3560   24.3570   45.8540 N   0  0  0  0  0  0  0  0  0  0  0  0
   53.5460   23.1340   45.3190 C   0  0  0  0  0  0  0  0  0  0  0  0
   52.6490   22.2480   45.3120 O   0  0  0  0  0  0  0  0  0  0  0  0
   54.7660   22.9350   44.7760 N   0  0  0  0  0  0  0  0  0  0  0  0
   55.4010   24.0960   45.0050 C   0  0  0  0  0  0  0  0  0  0  0  0
   56.7630   24.3810   44.5290 C   0  0  0  0  0  0  0  0  0  0  0  0
   57.5310   25.4230   44.9070 C   0  0  0  0  0  0  0  0  0  0  0  0
   57.9040   25.6320   46.2220 C   0  0  0  0  0  0  0  0  0  0  0  0
   58.7350   26.7320   46.2390 C   0  0  0  0  0  0  0  0  0  0  0  0
   59.3080   27.3200   47.5010 C   0  0  0  0  0  0  0  0  0  0  0  0
   60.6960   26.7510   47.7820 C   0  0  0  0  0  0  0  0  0  0  0  0
   58.8760   27.2380   44.9900 N   0  0  0  0  0  0  0  0  0  0  0  0
   59.6830   28.4200   44.6330 C   0  0  0  0  0  0  0  0  0  0  0  0
   58.8500   29.6780   44.6560 C   0  0  0  0  0  0  0  0  0  0  0  0
   57.7570   29.8270   43.7890 C   0  0  0  0  0  0  0  0  0  0  0  0
   56.9840   30.9900   43.8230 C   0  0  0  0  0  0  0  0  0  0  0  0
   57.3130   32.0270   44.6960 C   0  0  0  0  0  0  0  0  0  0  0  0
   58.4280   31.9150   45.5400 C   0  0  0  0  0  0  0  0  0  0  0  0
   58.7920   33.0190   46.4540 C   0  0  0  0  0  0  0  0  0  0  0  0
   58.0540   34.0400   46.5050 O   0  0  0  0  0  0  0  0  0  0  0  0
   59.9520   32.9390   47.3020 N   0  0  0  0  0  0  0  0  0  0  0  0
   60.6470   34.1710   47.6870 C   0  0  0  0  0  0  0  0  0  0  0  0
   62.1390   33.8960   47.9020 C   0  0  0  0  0  0  0  0  0  0  0  0
   62.3620   32.7080   48.7450 N   0  0  0  0  0  0  0  0  0  0  0  0
   63.7050   32.4260   49.1990 C   0  0  0  0  0  0  0  0  0  0  0  0
   64.6840   32.9960   48.6470 O   0  0  0  0  0  0  0  0  0  0  0  0
   63.9760   31.4610   50.3130 C   0  0  0  0  0  0  0  0  0  0  0  0
   61.2170   31.8840   49.1640 C   0  0  0  0  0  0  0  0  0  0  0  0
   60.2590   31.6740   47.9880 C   0  0  0  0  0  0  0  0  0  0  0  0
   59.1830   30.7290   45.5270 C   0  0  0  0  0  0  0  0  0  0  0  0
   58.1080   26.4690   44.1660 C   0  0  0  0  0  0  0  0  0  0  0  0
   57.8510   26.7720   42.8820 C   0  0  0  0  0  0  0  0  0  0  0  0
  1  2  1  0
  2  3  1  0
  3  4  1  0
  4  5  2  0
  4  6  1  0
  6  7  1  0
  7  8  1  0
  8  9  2  0
  9 10  1  0
 10 11  2  0
 11 12  1  0
 12 13  1  0
 11 14  1  0
 14 15  1  0
 15 16  1  0
 16 17  2  0
 17 18  1  0
 18 19  2  0
 19 20  1  0
 20 21  1  0
 21 22  2  0
 21 23  1  0
 23 24  1  0
 24 25  1  0
 25 26  1  0
 26 27  1  0
 27 28  2  0
 27 29  1  0
 26 30  1  0
 30 31  1  0
 20 32  2  0
 14 33  1  0
 33 34  2  0
  7  2  2  0
 33  9  1  0
 32 16  1  0
 31 23  1  0
M  CHG  2   3  -1   6  -1
M  END
>  <UniqueID>  (3290) 
42

>  <SMILES>  (3290) 
C=c1/c(=C\c2[n-]c(=O)[n-]c2O)cc(CC)n1Cc1cccc(C(=O)N2CCN(C(C)=O)CC2)c1

>  <Energy>  (3290) 
134.01549456820248

>  <Genealogy>  (3290) 
C=c1c(=Cc2[n-]c(=O)[n-]c2O)cc(CC)n1Cc1cccc(C(=O)N2CCN(C(C)=O)CC2)c1 (protonated)
C=c1/c(=C\c2[n-]c(=O)[n-]c2O)cc(CC)n1Cc1cccc(C(=O)N2CCN(C(C)=O)CC2)c1 (cis-trans isomerization)
C=c1/c(=C\c2[n-]c(=O)[n-]c2O)cc(CC)n1Cc1cccc(C(=O)N2CCN(C(C)=O)CC2)c1 (3D coordinates assigned)
C=c1/c(=C\c2[n-]c(=O)[n-]c2O)cc(CC)n1Cc1cccc(C(=O)N2CCN(C(C)=O)CC2)c1 (nonaromatic ring conformer: 134.01549456820248 kcal/mol)

>  <smiles>  (3290) 
C=c1c(=Cc2[nH]c(=O)[nH]c2O)cc(CC)n1Cc1cccc(C(=O)N2CCN(C(C)=O)CC2)c1

>  <score_type>  (3290) 
oracle

>  <origin>  (3290) 
adg

>  <m_score__min__energy>  (3290) 
-14.67

>  <m_primary>  (3290) 
energy

$$$$
49:0
     RDKit          3D

 25 27  0  0  0  0  0  0  0  0999 V2000
   56.1340   29.6990   43.3160 C   0  0  0  0  0  0  0  0  0  0  0  0
   56.8250   29.7680   44.4560 C   0  0  0  0  0  0  0  0  0  0  0  0
   57.0370   30.9330   45.1050 N   0  0  0  0  0  0  0  0  0  0  0  0
   57.7390   30.6730   46.1960 N   0  0  0  0  0  0  0  0  0  0  0  0
   58.1920   31.6940   47.1000 C   0  0  0  0  0  0  0  0  0  0  0  0
   57.4570   32.6950   47.3120 O   0  0  0  0  0  0  0  0  0  0  0  0
   59.4960   31.6000   47.7940 C   0  0  0  0  0  0  0  0  0  0  0  0
   60.6160   32.2520   47.2490 C   0  0  0  0  0  0  0  0  0  0  0  0
   61.8590   32.1740   47.8860 C   0  0  0  0  0  0  0  0  0  0  0  0
   63.3770   33.0500   47.1270 Br  0  0  0  0  0  0  0  0  0  0  0  0
   61.9910   31.4550   49.0780 C   0  0  0  0  0  0  0  0  0  0  0  0
   60.8790   30.8210   49.6390 C   0  0  0  0  0  0  0  0  0  0  0  0
   59.6320   30.8980   49.0100 C   0  0  0  0  0  0  0  0  0  0  0  0
   58.5330   30.2930   49.6100 O   0  0  0  0  0  0  0  0  0  0  0  0
   58.0070   29.3510   46.2430 C   0  0  0  0  0  0  0  0  0  0  0  0
   58.7630   28.8170   47.0990 O   0  0  0  0  0  0  0  0  0  0  0  0
   57.4180   28.7150   45.1600 C   0  0  0  0  0  0  0  0  0  0  0  0
   57.4470   27.4120   44.8150 C   0  0  0  0  0  0  0  0  0  0  0  0
   57.1690   26.2930   45.7340 C   0  0  0  0  0  0  0  0  0  0  0  0
   58.3180   25.2980   46.4710 S   0  0  0  0  0  0  0  0  0  0  0  0
   57.1690   24.5410   47.4350 C   0  0  0  0  0  0  0  0  0  0  0  0
   57.4240   23.6210   48.2550 O   0  0  0  0  0  0  0  0  0  0  0  0
   55.9270   25.0360   47.2490 N   0  0  0  0  0  0  0  0  0  0  0  0
   55.9320   26.0220   46.3130 C   0  0  0  0  0  0  0  0  0  0  0  0
   54.7720   26.7070   45.9720 O   0  0  0  0  0  0  0  0  0  0  0  0
  1  2  2  0
  2  3  1  0
  3  4  1  0
  4  5  1  0
  5  6  2  0
  5  7  1  0
  7  8  2  0
  8  9  1  0
  9 10  1  0
  9 11  2  0
 11 12  1  0
 12 13  2  0
 13 14  1  0
  4 15  1  0
 15 16  2  0
 15 17  1  0
 17 18  2  0
 18 19  1  0
 19 20  1  0
 20 21  1  0
 21 22  2  0
 21 23  1  0
 23 24  1  0
 24 25  1  0
 17  2  1  0
 24 19  2  0
 13  7  1  0
M  CHG  4   3  -1  14  -1  23  -1  25  -1
M  END
>  <UniqueID>  (3291) 
48

>  <SMILES>  (3291) 
C=c1[n-]n(C(=O)c2cc(Br)ccc2[O-])c(=O)/c1=C\c1sc(=O)[n-]c1[O-]

>  <Energy>  (3291) 
113.50354603035845

>  <Genealogy>  (3291) 
C=c1[n-]n(C(=O)c2cc(Br)ccc2[O-])c(=O)c1=Cc1sc(=O)[n-]c1[O-] (protonated)
C=c1[n-]n(C(=O)c2cc(Br)ccc2[O-])c(=O)/c1=C\c1sc(=O)[n-]c1[O-] (cis-trans isomerization)
C=c1[n-]n(C(=O)c2cc(Br)ccc2[O-])c(=O)/c1=C\c1sc(=O)[n-]c1[O-] (3D coordinates assigned)
C=c1[n-]n(C(=O)c2cc(Br)ccc2[O-])c(=O)/c1=C\c1sc(=O)[n-]c1[O-] (optimized conformer: 113.50354603035845 kcal/mol)

>  <smiles>  (3291) 
C=c1[nH]n(C(=O)c2cc(Br)ccc2O)c(=O)c1=Cc1sc(=O)[nH]c1O

>  <score_type>  (3291) 
oracle

>  <origin>  (3291) 
adg

>  <m_score__min__energy>  (3291) 
-16.77

>  <m_primary>  (3291) 
energy

$$$$
53:0
     RDKit          3D

 30 32  0  0  0  0  0  0  0  0999 V2000
   56.2240   29.7020   43.0560 C   0  0  0  0  0  0  0  0  0  0  0  0
   56.2750   29.8530   44.5680 C   0  0  0  0  0  0  0  0  0  0  0  0
   55.7440   28.6510   45.1960 N   0  0  0  0  0  0  0  0  0  0  0  0
   56.4780   27.4990   45.6360 C   0  0  0  0  0  0  0  0  0  0  0  0
   55.8330   26.5340   46.1220 O   0  0  0  0  0  0  0  0  0  0  0  0
   57.9060   27.3820   45.5480 N   0  0  0  0  0  0  0  0  0  0  0  0
   58.8010   26.7140   46.4830 C   0  0  0  0  0  0  0  0  0  0  0  0
   59.1920   27.6780   47.5640 C   0  0  0  0  0  0  0  0  0  0  0  0
   58.5060   28.8940   47.7150 C   0  0  0  0  0  0  0  0  0  0  0  0
   58.8440   29.7720   48.7490 C   0  0  0  0  0  0  0  0  0  0  0  0
   59.8650   29.4400   49.6500 C   0  0  0  0  0  0  0  0  0  0  0  0
   60.2650   30.5220   50.9820 S   0  0  0  0  0  0  0  0  0  0  0  0
   60.4510   31.9210   50.4640 O   0  0  0  0  0  0  0  0  0  0  0  0
   61.5580   30.0680   51.6030 O   0  0  0  0  0  0  0  0  0  0  0  0
   58.9930   30.4870   52.1780 N   0  0  0  0  0  0  0  0  0  0  0  0
   58.3870   29.1400   52.2310 C   0  0  0  0  0  0  0  0  0  0  0  0
   56.9830   29.1930   52.8420 C   0  0  0  0  0  0  0  0  0  0  0  0
   56.0570   29.9910   51.9980 N   0  0  0  0  0  0  0  0  0  0  0  0
   54.9150   30.5010   52.7850 C   0  0  0  0  0  0  0  0  0  0  0  0
   53.6790   30.6100   51.9290 C   0  0  0  0  0  0  0  0  0  0  0  0
   53.4820   29.7410   50.8430 C   0  0  0  0  0  0  0  0  0  0  0  0
   52.3460   29.8660   50.0370 C   0  0  0  0  0  0  0  0  0  0  0  0
   51.4030   30.8620   50.3070 C   0  0  0  0  0  0  0  0  0  0  0  0
   51.5940   31.7360   51.3810 C   0  0  0  0  0  0  0  0  0  0  0  0
   50.6590   32.7290   51.6440 O   0  0  0  0  0  0  0  0  0  0  0  0
   52.7290   31.6120   52.1900 C   0  0  0  0  0  0  0  0  0  0  0  0
   56.7350   31.0780   51.2450 C   0  0  0  0  0  0  0  0  0  0  0  0
   58.0110   31.5730   51.9480 C   0  0  0  0  0  0  0  0  0  0  0  0
   60.5370   28.2190   49.5150 C   0  0  0  0  0  0  0  0  0  0  0  0
   60.2020   27.3420   48.4790 C   0  0  0  0  0  0  0  0  0  0  0  0
  1  2  1  0
  2  3  1  0
  3  4  1  0
  4  5  2  0
  4  6  1  0
  6  7  1  0
  7  8  1  0
  8  9  2  0
  9 10  1  0
 10 11  2  0
 11 12  1  0
 12 13  2  0
 12 14  2  0
 12 15  1  0
 15 16  1  0
 16 17  1  0
 17 18  1  0
 18 19  1  0
 19 20  1  0
 20 21  2  0
 21 22  1  0
 22 23  2  0
 23 24  1  0
 24 25  1  0
 24 26  2  0
 18 27  1  0
 27 28  1  0
 11 29  1  0
 29 30  2  0
 30  8  1  0
 28 15  1  0
 26 20  1  0
M  CHG  3   3  -1   6  -1  25  -1
M  END
>  <UniqueID>  (3292) 
52

>  <SMILES>  (3292) 
CC[N-]C(=O)[N-]Cc1ccc(S(=O)(=O)N2CCN(Cc3cccc([O-])c3)CC2)cc1

>  <Energy>  (3292) 
64.39462835668358

>  <Genealogy>  (3292) 
CC[N-]C(=O)[N-]Cc1ccc(S(=O)(=O)N2CCN(Cc3cccc([O-])c3)CC2)cc1 (protonated)
CC[N-]C(=O)[N-]Cc1ccc(S(=O)(=O)N2CCN(Cc3cccc([O-])c3)CC2)cc1 (3D coordinates assigned)
CC[N-]C(=O)[N-]Cc1ccc(S(=O)(=O)N2CCN(Cc3cccc([O-])c3)CC2)cc1 (nonaromatic ring conformer: 64.39462835668358 kcal/mol)

>  <smiles>  (3292) 
CCNC(=O)NCc1ccc(S(=O)(=O)N2CCN(Cc3cccc(O)c3)CC2)cc1

>  <score_type>  (3292) 
oracle

>  <origin>  (3292) 
adg

>  <m_score__min__energy>  (3292) 
-15.67

>  <m_primary>  (3292) 
energy

$$$$
60:0
     RDKit          3D

 30 33  0  0  0  0  0  0  0  0999 V2000
   53.8450   28.4820   52.9620 C   0  0  0  0  0  0  0  0  0  0  0  0
   54.7150   29.4730   52.7110 C   0  0  0  0  0  0  0  0  0  0  0  0
   54.5290   30.5590   51.8400 C   0  0  0  0  0  0  0  0  0  0  0  0
   53.4290   31.0050   51.2030 C   0  0  0  0  0  0  0  0  0  0  0  0
   52.2520   31.6120   51.8430 C   0  0  0  0  0  0  0  0  0  0  0  0
   51.8050   31.2590   53.0610 N   0  0  0  0  0  0  0  0  0  0  0  0
   50.6580   31.9600   53.1870 C   0  0  0  0  0  0  0  0  0  0  0  0
   49.9420   31.9070   54.2210 O   0  0  0  0  0  0  0  0  0  0  0  0
   50.3320   32.7130   52.1150 N   0  0  0  0  0  0  0  0  0  0  0  0
   51.3430   32.4690   51.2670 C   0  0  0  0  0  0  0  0  0  0  0  0
   51.4180   32.9970   49.9830 O   0  0  0  0  0  0  0  0  0  0  0  0
   55.7620   31.1770   51.7270 C   0  0  0  0  0  0  0  0  0  0  0  0
   56.6320   30.4990   52.5550 C   0  0  0  0  0  0  0  0  0  0  0  0
   58.0650   30.8980   52.7730 C   0  0  0  0  0  0  0  0  0  0  0  0
   58.9910   29.9280   52.0810 C   0  0  0  0  0  0  0  0  0  0  0  0
   59.2000   28.8400   52.6020 O   0  0  0  0  0  0  0  0  0  0  0  0
   59.6280   30.2630   50.8200 N   0  0  0  0  0  0  0  0  0  0  0  0
   60.0330   31.6980   50.8050 C   0  0  0  0  0  0  0  0  0  0  0  0
   59.1360   32.5760   49.9210 C   0  0  0  0  0  0  0  0  0  0  0  0
   59.0740   32.0210   48.5610 N   0  0  0  0  0  0  0  0  0  0  0  0
   58.8910   32.8840   47.4180 C   0  0  0  0  0  0  0  0  0  0  0  0
   59.7340   33.9940   47.2140 C   0  0  0  0  0  0  0  0  0  0  0  0
   59.5510   34.8300   46.1080 C   0  0  0  0  0  0  0  0  0  0  0  0
   58.5270   34.5700   45.1940 C   0  0  0  0  0  0  0  0  0  0  0  0
   57.6830   33.4750   45.3870 C   0  0  0  0  0  0  0  0  0  0  0  0
   57.8610   32.6360   46.4910 C   0  0  0  0  0  0  0  0  0  0  0  0
   59.1380   30.5630   48.3890 C   0  0  0  0  0  0  0  0  0  0  0  0
   58.7520   29.8560   49.6930 C   0  0  0  0  0  0  0  0  0  0  0  0
   55.9920   29.4800   53.1780 N   0  0  0  0  0  0  0  0  0  0  0  0
   56.5910   28.4980   54.0880 C   0  0  0  0  0  0  0  0  0  0  0  0
  1  2  2  0
  2  3  1  0
  3  4  2  0
  4  5  1  0
  5  6  1  0
  6  7  1  0
  7  8  2  0
  7  9  1  0
  9 10  1  0
 10 11  1  0
  3 12  1  0
 12 13  2  0
 13 14  1  0
 14 15  1  0
 15 16  2  0
 15 17  1  0
 17 18  1  0
 18 19  1  0
 19 20  1  0
 20 21  1  0
 21 22  2  0
 22 23  1  0
 23 24  2  0
 24 25  1  0
 25 26  2  0
 20 27  1  0
 27 28  1  0
 13 29  1  0
 29 30  1  0
 29  2  1  0
 10  5  2  0
 28 17  1  0
 26 21  1  0
M  CHG  4   6  -1   9  -1  11  -1  17   1
M  END
>  <UniqueID>  (3293) 
58

>  <SMILES>  (3293) 
C=c1/c(=C\c2[n-]c(=O)[n-]c2[O-])cc(CC(=O)[NH+]2CCN(c3ccccc3)CC2)n1C

>  <Energy>  (3293) 
134.56492743010102

>  <Genealogy>  (3293) 
C=c1c(=Cc2[n-]c(=O)[n-]c2[O-])cc(CC(=O)[NH+]2CCN(c3ccccc3)CC2)n1C (protonated)
C=c1/c(=C\c2[n-]c(=O)[n-]c2[O-])cc(CC(=O)[NH+]2CCN(c3ccccc3)CC2)n1C (cis-trans isomerization)
C=c1/c(=C\c2[n-]c(=O)[n-]c2[O-])cc(CC(=O)[NH+]2CCN(c3ccccc3)CC2)n1C (3D coordinates assigned)
C=c1/c(=C\c2[n-]c(=O)[n-]c2[O-])cc(CC(=O)[NH+]2CCN(c3ccccc3)CC2)n1C (nonaromatic ring conformer: 134.56492743010102 kcal/mol)

>  <smiles>  (3293) 
C=c1c(=Cc2[nH]c(=O)[nH]c2O)cc(CC(=O)N2CCN(c3ccccc3)CC2)n1C

>  <score_type>  (3293) 
oracle

>  <origin>  (3293) 
adg

>  <m_score__min__energy>  (3293) 
-16.710000000000001

>  <m_primary>  (3293) 
energy

$$$$
62:0
     RDKit          3D

 32 35  0  0  0  0  0  0  0  0999 V2000
   53.4330   28.8230   53.8320 C   0  0  0  0  0  0  0  0  0  0  0  0
   54.4160   29.3980   53.1200 C   0  0  0  0  0  0  0  0  0  0  0  0
   54.3790   30.6600   52.5070 C   0  0  0  0  0  0  0  0  0  0  0  0
   53.3550   31.5070   52.2840 C   0  0  0  0  0  0  0  0  0  0  0  0
   52.4460   31.4700   51.1290 C   0  0  0  0  0  0  0  0  0  0  0  0
   52.4300   30.4710   50.2290 N   0  0  0  0  0  0  0  0  0  0  0  0
   51.3780   30.7790   49.4400 C   0  0  0  0  0  0  0  0  0  0  0  0
   51.0420   30.0750   48.4520 O   0  0  0  0  0  0  0  0  0  0  0  0
   50.7050   31.8940   49.7990 N   0  0  0  0  0  0  0  0  0  0  0  0
   51.3850   32.3110   50.8790 C   0  0  0  0  0  0  0  0  0  0  0  0
   51.0260   33.4200   51.6360 O   0  0  0  0  0  0  0  0  0  0  0  0
   55.6770   30.9390   52.1220 C   0  0  0  0  0  0  0  0  0  0  0  0
   56.4480   29.8360   52.4450 C   0  0  0  0  0  0  0  0  0  0  0  0
   57.9220   29.7340   52.2580 C   0  0  0  0  0  0  0  0  0  0  0  0
   58.5740   28.9790   53.0300 O   0  0  0  0  0  0  0  0  0  0  0  0
   58.6440   30.5080   51.2650 N   0  0  0  0  0  0  0  0  0  0  0  0
   59.5450   29.6400   50.4540 C   0  0  0  0  0  0  0  0  0  0  0  0
   60.8890   30.3010   50.0950 C   0  0  0  0  0  0  0  0  0  0  0  0
   60.7070   31.7320   49.8350 N   0  0  0  0  0  0  0  0  0  0  0  0
   61.4380   32.3700   48.7760 C   0  0  0  0  0  0  0  0  0  0  0  0
   62.8280   32.1880   48.6790 C   0  0  0  0  0  0  0  0  0  0  0  0
   63.4870   31.4310   49.5930 F   0  0  0  0  0  0  0  0  0  0  0  0
   63.5490   32.8080   47.6560 C   0  0  0  0  0  0  0  0  0  0  0  0
   62.8910   33.6110   46.7240 C   0  0  0  0  0  0  0  0  0  0  0  0
   61.5100   33.7990   46.8100 C   0  0  0  0  0  0  0  0  0  0  0  0
   60.7690   33.1770   47.8350 C   0  0  0  0  0  0  0  0  0  0  0  0
   59.3770   33.3290   47.9440 O   0  0  0  0  0  0  0  0  0  0  0  0
   58.5430   33.8720   46.9250 C   0  0  0  0  0  0  0  0  0  0  0  0
   59.9360   32.5560   50.7700 C   0  0  0  0  0  0  0  0  0  0  0  0
   59.3080   31.6860   51.8650 C   0  0  0  0  0  0  0  0  0  0  0  0
   55.6720   28.8870   53.0250 N   0  0  0  0  0  0  0  0  0  0  0  0
   56.1250   27.5760   53.5090 C   0  0  0  0  0  0  0  0  0  0  0  0
  1  2  2  0
  2  3  1  0
  3  4  2  3
  4  5  1  0
  5  6  1  0
  6  7  1  0
  7  8  2  0
  7  9  1  0
  9 10  1  0
 10 11  1  0
  3 12  1  0
 12 13  2  0
 13 14  1  0
 14 15  2  0
 14 16  1  0
 16 17  1  0
 17 18  1  0
 18 19  1  0
 19 20  1  0
 20 21  2  0
 21 22  1  0
 21 23  1  0
 23 24  2  0
 24 25  1  0
 25 26  2  0
 26 27  1  0
 27 28  1  0
 19 29  1  0
 29 30  1  0
 13 31  1  0
 31 32  1  0
 31  2  1  0
 10  5  2  0
 30 16  1  0
 26 20  1  0
M  CHG  4   6  -1   9  -1  11  -1  16   1
M  END
>  <UniqueID>  (3294) 
60

>  <SMILES>  (3294) 
C=c1c(=Cc2[n-]c(=O)[n-]c2[O-])cc(C(=O)[NH+]2CCN(c3c(F)cccc3OC)CC2)n1C

>  <Energy>  (3294) 
145.08797395889857

>  <Genealogy>  (3294) 
C=c1c(=Cc2[n-]c(=O)[n-]c2[O-])cc(C(=O)[NH+]2CCN(c3c(F)cccc3OC)CC2)n1C (protonated)
C=c1c(=Cc2[n-]c(=O)[n-]c2[O-])cc(C(=O)[NH+]2CCN(c3c(F)cccc3OC)CC2)n1C (3D coordinates assigned)
C=c1c(=Cc2[n-]c(=O)[n-]c2[O-])cc(C(=O)[NH+]2CCN(c3c(F)cccc3OC)CC2)n1C (nonaromatic ring conformer: 145.08797395889857 kcal/mol)

>  <smiles>  (3294) 
C=c1c(=Cc2[nH]c(=O)[nH]c2O)cc(C(=O)N2CCN(c3c(F)cccc3OC)CC2)n1C

>  <score_type>  (3294) 
oracle

>  <origin>  (3294) 
adg

>  <m_score__min__energy>  (3294) 
-16.68

>  <m_primary>  (3294) 
energy

$$$$
66:0
     RDKit          3D

 26 28  0  0  0  0  0  0  0  0999 V2000
   58.0260   31.6140   43.3900 C   0  0  0  0  0  0  0  0  0  0  0  0
   58.2990   31.4430   44.7020 C   0  0  0  0  0  0  0  0  0  0  0  0
   58.4580   32.5830   45.5460 C   0  0  0  0  0  0  0  0  0  0  0  0
   57.9710   33.9150   45.1020 C   0  0  0  0  0  0  0  0  0  0  0  0
   56.5900   34.2500   45.2380 N   0  0  0  0  0  0  0  0  0  0  0  0
   58.7710   34.7480   44.5940 O   0  0  0  0  0  0  0  0  0  0  0  0
   59.1090   32.4510   46.8040 C   0  0  0  0  0  0  0  0  0  0  0  0
   59.2860   33.6520   47.7150 C   0  0  0  0  0  0  0  0  0  0  0  0
   59.6630   31.2010   47.1690 C   0  0  0  0  0  0  0  0  0  0  0  0
   60.5040   31.0130   48.4210 C   0  0  0  0  0  0  0  0  0  0  0  0
   61.7660   31.8440   48.3960 C   0  0  0  0  0  0  0  0  0  0  0  0
   62.3750   32.1730   47.1710 C   0  0  0  0  0  0  0  0  0  0  0  0
   63.5550   32.9230   47.1450 C   0  0  0  0  0  0  0  0  0  0  0  0
   64.1490   33.3360   48.3410 C   0  0  0  0  0  0  0  0  0  0  0  0
   63.5650   32.9960   49.5630 C   0  0  0  0  0  0  0  0  0  0  0  0
   62.3840   32.2480   49.5930 C   0  0  0  0  0  0  0  0  0  0  0  0
   59.3980   30.0740   46.3810 C   0  0  0  0  0  0  0  0  0  0  0  0
   58.6170   30.1500   45.2190 C   0  0  0  0  0  0  0  0  0  0  0  0
   58.2140   28.9730   44.6730 C   0  0  0  0  0  0  0  0  0  0  0  0
   57.3590   27.9640   45.3330 C   0  0  0  0  0  0  0  0  0  0  0  0
   57.8010   26.8200   45.8900 N   0  0  0  0  0  0  0  0  0  0  0  0
   56.6630   26.2010   46.2730 C   0  0  0  0  0  0  0  0  0  0  0  0
   56.6620   25.0860   46.8550 O   0  0  0  0  0  0  0  0  0  0  0  0
   55.5260   26.8670   45.9770 N   0  0  0  0  0  0  0  0  0  0  0  0
   55.9860   27.9760   45.3740 C   0  0  0  0  0  0  0  0  0  0  0  0
   55.1630   28.9780   44.8710 O   0  0  0  0  0  0  0  0  0  0  0  0
  1  2  2  0
  2  3  1  0
  3  4  1  0
  4  5  1  0
  4  6  2  0
  3  7  2  0
  7  8  1  0
  7  9  1  0
  9 10  1  0
 10 11  1  0
 11 12  2  0
 12 13  1  0
 13 14  2  0
 14 15  1  0
 15 16  2  0
  9 17  2  0
 17 18  1  0
 18 19  2  3
 19 20  1  0
 20 21  1  0
 21 22  1  0
 22 23  2  0
 22 24  1  0
 24 25  1  0
 25 26  1  0
 18  2  1  0
 25 20  2  0
 16 11  1  0
M  CHG  4   5  -1  21  -1  24  -1  26  -1
M  END
>  <UniqueID>  (3295) 
64

>  <SMILES>  (3295) 
C=c1c(C([NH-])=O)c(C)c(Cc2ccccc2)cc1=Cc1[n-]c(=O)[n-]c1[O-]

>  <Energy>  (3295) 
106.56082619728762

>  <Genealogy>  (3295) 
C=c1c(C([NH-])=O)c(C)c(Cc2ccccc2)cc1=Cc1[n-]c(=O)[n-]c1[O-] (protonated)
C=c1c(C([NH-])=O)c(C)c(Cc2ccccc2)cc1=Cc1[n-]c(=O)[n-]c1[O-] (3D coordinates assigned)
C=c1c(C([NH-])=O)c(C)c(Cc2ccccc2)cc1=Cc1[n-]c(=O)[n-]c1[O-] (optimized conformer: 106.56082619728762 kcal/mol)

>  <smiles>  (3295) 
C=c1c(C(N)=O)c(C)c(Cc2ccccc2)cc1=Cc1[nH]c(=O)[nH]c1O

>  <score_type>  (3295) 
oracle

>  <origin>  (3295) 
adg

>  <m_score__min__energy>  (3295) 
-16.789999999999999

>  <m_primary>  (3295) 
energy

$$$$
73:0
     RDKit          3D

 34 37  0  0  0  0  0  0  0  0999 V2000
   59.7530   26.2770   47.4040 C   0  0  0  0  0  0  0  0  0  0  0  0
   59.4410   27.4740   46.8720 C   0  0  0  0  0  0  0  0  0  0  0  0
   60.4740   28.3340   46.6910 N   0  0  0  0  0  0  0  0  0  0  0  0
   60.3100   29.5870   46.2140 C   0  0  0  0  0  0  0  0  0  0  0  0
   61.3270   30.3260   46.0930 O   0  0  0  0  0  0  0  0  0  0  0  0
   59.0620   30.0400   45.8700 N   0  0  0  0  0  0  0  0  0  0  0  0
   58.8800   31.4150   45.3550 C   0  0  0  0  0  0  0  0  0  0  0  0
   58.7760   32.3910   46.4970 C   0  0  0  0  0  0  0  0  0  0  0  0
   57.8100   32.3030   47.2990 O   0  0  0  0  0  0  0  0  0  0  0  0
   59.7150   33.4600   46.6620 N   0  0  0  0  0  0  0  0  0  0  0  0
   61.0740   33.3320   47.1110 C   0  0  0  0  0  0  0  0  0  0  0  0
   62.1390   33.8740   46.3670 C   0  0  0  0  0  0  0  0  0  0  0  0
   63.4560   33.7120   46.8000 C   0  0  0  0  0  0  0  0  0  0  0  0
   63.7240   32.9980   47.9690 C   0  0  0  0  0  0  0  0  0  0  0  0
   62.6770   32.4410   48.7080 C   0  0  0  0  0  0  0  0  0  0  0  0
   61.3530   32.5940   48.2790 C   0  0  0  0  0  0  0  0  0  0  0  0
   60.2930   32.0360   49.0650 N   0  0  0  0  0  0  0  0  0  0  0  0
   60.2210   30.5740   49.1850 C   0  0  0  0  0  0  0  0  0  0  0  0
   58.9140   30.1090   49.8370 C   0  0  0  0  0  0  0  0  0  0  0  0
   58.5410   30.9530   50.9070 O   0  0  0  0  0  0  0  0  0  0  0  0
   58.1900   32.2180   50.3840 C   0  0  0  0  0  0  0  0  0  0  0  0
   59.4380   32.9430   49.8440 C   0  0  0  0  0  0  0  0  0  0  0  0
   57.9690   29.2210   46.0250 C   0  0  0  0  0  0  0  0  0  0  0  0
   56.8350   29.6440   45.6530 O   0  0  0  0  0  0  0  0  0  0  0  0
   58.1100   27.9000   46.5500 C   0  0  0  0  0  0  0  0  0  0  0  0
   57.0340   27.0710   46.7020 C   0  0  0  0  0  0  0  0  0  0  0  0
   56.7250   25.8840   45.8770 C   0  0  0  0  0  0  0  0  0  0  0  0
   57.7750   25.0290   45.4840 C   0  0  0  0  0  0  0  0  0  0  0  0
   57.5010   23.8570   44.7720 C   0  0  0  0  0  0  0  0  0  0  0  0
   56.1770   23.5250   44.4560 C   0  0  0  0  0  0  0  0  0  0  0  0
   55.9050   22.3590   43.7530 O   0  0  0  0  0  0  0  0  0  0  0  0
   55.1270   24.3650   44.8500 C   0  0  0  0  0  0  0  0  0  0  0  0
   55.3930   25.5380   45.5670 C   0  0  0  0  0  0  0  0  0  0  0  0
   54.3310   26.3400   45.9800 O   0  0  0  0  0  0  0  0  0  0  0  0
  1  2  2  0
  2  3  1  0
  3  4  1  0
  4  5  2  0
  4  6  1  0
  6  7  1  0
  7  8  1  0
  8  9  2  0
  8 10  1  0
 10 11  1  0
 11 12  2  0
 12 13  1  0
 13 14  2  0
 14 15  1  0
 15 16  2  0
 16 17  1  0
 17 18  1  0
 18 19  1  0
 19 20  1  0
 20 21  1  0
 21 22  1  0
  6 23  1  0
 23 24  2  0
 23 25  1  0
 25 26  2  3
 26 27  1  0
 27 28  2  0
 28 29  1  0
 29 30  2  0
 30 31  1  0
 30 32  1  0
 32 33  2  0
 33 34  1  0
 25  2  1  0
 33 27  1  0
 16 11  1  0
 22 17  1  0
M  CHG  4   3  -1  10  -1  31  -1  34  -1
M  END
>  <UniqueID>  (3296) 
71

>  <SMILES>  (3296) 
C=c1[n-]c(=O)n(CC(=O)[N-]c2ccccc2N2CCOCC2)c(=O)c1=Cc1ccc([O-])cc1[O-]

>  <Energy>  (3296) 
94.10288779440167

>  <Genealogy>  (3296) 
C=c1[n-]c(=O)n(CC(=O)[N-]c2ccccc2N2CCOCC2)c(=O)c1=Cc1ccc([O-])cc1[O-] (protonated)
C=c1[n-]c(=O)n(CC(=O)[N-]c2ccccc2N2CCOCC2)c(=O)c1=Cc1ccc([O-])cc1[O-] (3D coordinates assigned)
C=c1[n-]c(=O)n(CC(=O)[N-]c2ccccc2N2CCOCC2)c(=O)c1=Cc1ccc([O-])cc1[O-] (nonaromatic ring conformer: 94.10288779440167 kcal/mol)

>  <smiles>  (3296) 
C=c1[nH]c(=O)n(CC(=O)Nc2ccccc2N2CCOCC2)c(=O)c1=Cc1ccc(O)cc1O

>  <score_type>  (3296) 
oracle

>  <origin>  (3296) 
adg

>  <m_score__min__energy>  (3296) 
-16.760000000000002

>  <m_primary>  (3296) 
energy

$$$$
79:0
     RDKit          3D

 33 36  0  0  0  0  0  0  0  0999 V2000
   53.8870   28.9950   54.5030 C   0  0  0  0  0  0  0  0  0  0  0  0
   54.5580   29.7230   53.5980 C   0  0  0  0  0  0  0  0  0  0  0  0
   54.0050   30.6750   52.7340 C   0  0  0  0  0  0  0  0  0  0  0  0
   52.7020   30.9780   52.5770 C   0  0  0  0  0  0  0  0  0  0  0  0
   52.0600   31.2000   51.2670 C   0  0  0  0  0  0  0  0  0  0  0  0
   52.0220   30.2740   50.2920 N   0  0  0  0  0  0  0  0  0  0  0  0
   51.2820   30.8610   49.3270 C   0  0  0  0  0  0  0  0  0  0  0  0
   51.0340   30.3030   48.2260 O   0  0  0  0  0  0  0  0  0  0  0  0
   50.8200   32.0920   49.6360 N   0  0  0  0  0  0  0  0  0  0  0  0
   51.3080   32.2870   50.8740 C   0  0  0  0  0  0  0  0  0  0  0  0
   51.0290   33.4100   51.6410 O   0  0  0  0  0  0  0  0  0  0  0  0
   55.0620   31.2100   52.0160 C   0  0  0  0  0  0  0  0  0  0  0  0
   56.2070   30.5850   52.4670 C   0  0  0  0  0  0  0  0  0  0  0  0
   57.5870   30.8700   51.9330 C   0  0  0  0  0  0  0  0  0  0  0  0
   57.9160   32.3530   51.9300 C   0  0  0  0  0  0  0  0  0  0  0  0
   57.0000   33.1620   52.0220 O   0  0  0  0  0  0  0  0  0  0  0  0
   59.2880   32.8450   51.9190 N   0  0  0  0  0  0  0  0  0  0  0  0
   59.5040   33.9730   50.9710 C   0  0  0  0  0  0  0  0  0  0  0  0
   60.2350   33.5620   49.6810 C   0  0  0  0  0  0  0  0  0  0  0  0
   59.8830   32.1780   49.3350 N   0  0  0  0  0  0  0  0  0  0  0  0
   60.3070   31.8300   47.9660 C   0  0  0  0  0  0  0  0  0  0  0  0
   59.3060   32.3550   46.9690 C   0  0  0  0  0  0  0  0  0  0  0  0
   58.9880   33.7230   46.9280 C   0  0  0  0  0  0  0  0  0  0  0  0
   58.0270   34.1970   46.0320 C   0  0  0  0  0  0  0  0  0  0  0  0
   57.3800   33.3120   45.1650 C   0  0  0  0  0  0  0  0  0  0  0  0
   57.6820   31.9420   45.1960 C   0  0  0  0  0  0  0  0  0  0  0  0
   57.0060   31.0080   44.2350 C   0  0  0  0  0  0  0  0  0  0  0  0
   58.6510   31.4690   46.0960 C   0  0  0  0  0  0  0  0  0  0  0  0
   60.4580   31.2470   50.3230 C   0  0  0  0  0  0  0  0  0  0  0  0
   60.2750   31.7470   51.7780 C   0  0  0  0  0  0  0  0  0  0  0  0
   55.9050   29.6630   53.4100 N   0  0  0  0  0  0  0  0  0  0  0  0
   56.8680   28.8050   54.1160 C   0  0  0  0  0  0  0  0  0  0  0  0
   57.8810   28.2250   53.1380 C   0  0  0  0  0  0  0  0  0  0  0  0
  1  2  2  0
  2  3  1  0
  3  4  2  0
  4  5  1  0
  5  6  1  0
  6  7  1  0
  7  8  2  0
  7  9  1  0
  9 10  1  0
 10 11  1  0
  3 12  1  0
 12 13  2  0
 13 14  1  0
 14 15  1  0
 15 16  2  0
 15 17  1  0
 17 18  1  0
 18 19  1  0
 19 20  1  0
 20 21  1  0
 21 22  1  0
 22 23  2  0
 23 24  1  0
 24 25  2  0
 25 26  1  0
 26 27  1  0
 26 28  2  0
 20 29  1  0
 29 30  1  0
 13 31  1  0
 31 32  1  0
 32 33  1  0
 31  2  1  0
 10  5  2  0
 30 17  1  0
 28 22  1  0
M  CHG  4   6  -1   9  -1  11  -1  17   1
M  END
>  <UniqueID>  (3297) 
77

>  <SMILES>  (3297) 
C=c1/c(=C/c2[n-]c(=O)[n-]c2[O-])cc(CC(=O)[NH+]2CCN(Cc3cccc(C)c3)CC2)n1CC

>  <Energy>  (3297) 
137.63582904596308

>  <Genealogy>  (3297) 
C=c1c(=Cc2[n-]c(=O)[n-]c2[O-])cc(CC(=O)[NH+]2CCN(Cc3cccc(C)c3)CC2)n1CC (protonated)
C=c1/c(=C/c2[n-]c(=O)[n-]c2[O-])cc(CC(=O)[NH+]2CCN(Cc3cccc(C)c3)CC2)n1CC (cis-trans isomerization)
C=c1/c(=C/c2[n-]c(=O)[n-]c2[O-])cc(CC(=O)[NH+]2CCN(Cc3cccc(C)c3)CC2)n1CC (3D coordinates assigned)
C=c1/c(=C/c2[n-]c(=O)[n-]c2[O-])cc(CC(=O)[NH+]2CCN(Cc3cccc(C)c3)CC2)n1CC (nonaromatic ring conformer: 137.63582904596308 kcal/mol)

>  <smiles>  (3297) 
C=c1c(=Cc2[nH]c(=O)[nH]c2O)cc(CC(=O)N2CCN(Cc3cccc(C)c3)CC2)n1CC

>  <score_type>  (3297) 
oracle

>  <origin>  (3297) 
adg

>  <m_score__min__energy>  (3297) 
-17.140000000000001

>  <m_primary>  (3297) 
energy

$$$$
83:0
     RDKit          3D

 28 30  0  0  0  0  0  0  0  0999 V2000
   58.3380   27.4740   43.4370 C   0  0  0  0  0  0  0  0  0  0  0  0
   58.4890   26.9280   44.6540 C   0  0  0  0  0  0  0  0  0  0  0  0
   57.8910   25.7490   45.1210 C   0  0  0  0  0  0  0  0  0  0  0  0
   57.0200   24.9650   44.4490 C   0  0  0  0  0  0  0  0  0  0  0  0
   55.6660   24.5860   44.9100 C   0  0  0  0  0  0  0  0  0  0  0  0
   55.0840   23.3820   44.7560 N   0  0  0  0  0  0  0  0  0  0  0  0
   53.8900   23.5260   45.3690 C   0  0  0  0  0  0  0  0  0  0  0  0
   53.0440   22.5960   45.4330 O   0  0  0  0  0  0  0  0  0  0  0  0
   53.6750   24.7430   45.9110 N   0  0  0  0  0  0  0  0  0  0  0  0
   54.8090   25.3990   45.6150 C   0  0  0  0  0  0  0  0  0  0  0  0
   55.0560   26.7160   45.9840 O   0  0  0  0  0  0  0  0  0  0  0  0
   58.3860   25.5500   46.4060 C   0  0  0  0  0  0  0  0  0  0  0  0
   59.2450   26.5990   46.6690 C   0  0  0  0  0  0  0  0  0  0  0  0
   60.0090   26.7790   47.9440 C   0  0  0  0  0  0  0  0  0  0  0  0
   59.2940   27.4430   45.6170 N   0  0  0  0  0  0  0  0  0  0  0  0
   60.1070   28.6250   45.5290 C   0  0  0  0  0  0  0  0  0  0  0  0
   61.0740   28.6490   44.7190 O   0  0  0  0  0  0  0  0  0  0  0  0
   59.8370   29.7740   46.3570 N   0  0  0  0  0  0  0  0  0  0  0  0
   60.9690   30.5130   46.9240 C   0  0  0  0  0  0  0  0  0  0  0  0
   58.4530   30.2000   46.6290 C   0  0  0  0  0  0  0  0  0  0  0  0
   58.1980   31.6090   46.1200 C   0  0  0  0  0  0  0  0  0  0  0  0
   57.8070   31.8690   44.7770 C   0  0  0  0  0  0  0  0  0  0  0  0
   57.6780   30.7730   43.7530 C   0  0  0  0  0  0  0  0  0  0  0  0
   57.5440   33.1930   44.3800 C   0  0  0  0  0  0  0  0  0  0  0  0
   57.7110   34.2500   45.2720 C   0  0  0  0  0  0  0  0  0  0  0  0
   58.1550   34.0070   46.5680 C   0  0  0  0  0  0  0  0  0  0  0  0
   58.4040   32.7000   46.9920 C   0  0  0  0  0  0  0  0  0  0  0  0
   58.8610   32.5040   48.2550 F   0  0  0  0  0  0  0  0  0  0  0  0
  1  2  2  0
  2  3  1  0
  3  4  2  3
  4  5  1  0
  5  6  1  0
  6  7  1  0
  7  8  2  0
  7  9  1  0
  9 10  1  0
 10 11  1  0
  3 12  1  0
 12 13  2  0
 13 14  1  0
 13 15  1  0
 15 16  1  0
 16 17  2  0
 16 18  1  0
 18 19  1  0
 18 20  1  0
 20 21  1  0
 21 22  2  0
 22 23  1  0
 22 24  1  0
 24 25  2  0
 25 26  1  0
 26 27  2  0
 27 28  1  0
 15  2  1  0
 27 21  1  0
 10  5  2  0
M  CHG  3   6  -1   9  -1  11  -1
M  END
>  <UniqueID>  (3298) 
81

>  <SMILES>  (3298) 
C=c1c(=Cc2[n-]c(=O)[n-]c2[O-])cc(C)n1C(=O)N(C)Cc1c(C)cccc1F

>  <Energy>  (3298) 
113.09391766113603

>  <Genealogy>  (3298) 
C=c1c(=Cc2[n-]c(=O)[n-]c2[O-])cc(C)n1C(=O)N(C)Cc1c(C)cccc1F (protonated)
C=c1c(=Cc2[n-]c(=O)[n-]c2[O-])cc(C)n1C(=O)N(C)Cc1c(C)cccc1F (3D coordinates assigned)
C=c1c(=Cc2[n-]c(=O)[n-]c2[O-])cc(C)n1C(=O)N(C)Cc1c(C)cccc1F (optimized conformer: 113.09391766113603 kcal/mol)

>  <smiles>  (3298) 
C=c1c(=Cc2[nH]c(=O)[nH]c2O)cc(C)n1C(=O)N(C)Cc1c(C)cccc1F

>  <score_type>  (3298) 
oracle

>  <origin>  (3298) 
adg

>  <m_score__min__energy>  (3298) 
-15.550000000000001

>  <m_primary>  (3298) 
energy

$$$$
5:0
     RDKit          3D

 23 25  0  0  0  0  0  0  0  0999 V2000
   61.1640   29.6880   49.5090 C   0  0  0  0  0  0  0  0  0  0  0  0
   60.3100   29.5530   48.4960 C   0  0  0  0  0  0  0  0  0  0  0  0
   59.6030   30.6580   47.8540 C   0  0  0  0  0  0  0  0  0  0  0  0
   58.8650   30.1990   46.8450 C   0  0  0  0  0  0  0  0  0  0  0  0
   58.0940   31.0850   45.9490 C   0  0  0  0  0  0  0  0  0  0  0  0
   57.2570   30.5730   45.1570 O   0  0  0  0  0  0  0  0  0  0  0  0
   58.2730   32.5130   45.9680 N   0  0  0  0  0  0  0  0  0  0  0  0
   58.0900   33.2700   44.7240 C   0  0  0  0  0  0  0  0  0  0  0  0
   58.4800   34.7370   44.9150 C   0  0  0  0  0  0  0  0  0  0  0  0
   59.6760   34.8100   45.7570 N   0  0  0  0  0  0  0  0  0  0  0  0
   59.3810   34.4110   47.1450 C   0  0  0  0  0  0  0  0  0  0  0  0
   58.3810   33.2370   47.2440 C   0  0  0  0  0  0  0  0  0  0  0  0
   59.0140   28.7330   46.7230 C   0  0  0  0  0  0  0  0  0  0  0  0
   58.4110   27.9800   45.7850 C   0  0  0  0  0  0  0  0  0  0  0  0
   57.2330   27.1280   46.0180 C   0  0  0  0  0  0  0  0  0  0  0  0
   57.2770   25.8690   46.4930 N   0  0  0  0  0  0  0  0  0  0  0  0
   55.9950   25.4550   46.3980 C   0  0  0  0  0  0  0  0  0  0  0  0
   55.6230   24.3100   46.7660 O   0  0  0  0  0  0  0  0  0  0  0  0
   55.1450   26.3600   45.8670 N   0  0  0  0  0  0  0  0  0  0  0  0
   55.9490   27.4070   45.6190 C   0  0  0  0  0  0  0  0  0  0  0  0
   55.5190   28.5910   45.0340 O   0  0  0  0  0  0  0  0  0  0  0  0
   59.8970   28.3130   47.8310 C   0  0  0  0  0  0  0  0  0  0  0  0
   60.0400   27.0840   48.3410 C   0  0  0  0  0  0  0  0  0  0  0  0
  1  2  2  0
  2  3  1  0
  3  4  2  0
  4  5  1  0
  5  6  2  0
  5  7  1  0
  7  8  1  0
  8  9  1  0
  9 10  1  0
 10 11  1  0
 11 12  1  0
  4 13  1  0
 13 14  2  3
 14 15  1  0
 15 16  1  0
 16 17  1  0
 17 18  2  0
 17 19  1  0
 19 20  1  0
 20 21  1  0
 13 22  1  0
 22 23  2  0
 22  2  1  0
 12  7  1  0
 20 15  2  0
M  CHG  3  16  -1  19  -1  21  -1
M  END
>  <UniqueID>  (3299) 
6

>  <SMILES>  (3299) 
C=C1C=C(C(=O)N2CCNCC2)C(=Cc2[n-]c(=O)[n-]c2[O-])C1=C

>  <Energy>  (3299) 
105.6296744731802

>  <Genealogy>  (3299) 
C=C1C=C(C(=O)N2CCNCC2)C(=Cc2[n-]c(=O)[n-]c2[O-])C1=C (protonated)
C=C1C=C(C(=O)N2CCNCC2)C(=Cc2[n-]c(=O)[n-]c2[O-])C1=C (3D coordinates assigned)
C=C1C=C(C(=O)N2CCNCC2)C(=Cc2[n-]c(=O)[n-]c2[O-])C1=C (nonaromatic ring conformer: 105.6296744731802 kcal/mol)

>  <smiles>  (3299) 
C=C1C=C(C(=O)N2CCNCC2)C(=Cc2[nH]c(=O)[nH]c2O)C1=C

>  <score_type>  (3299) 
oracle

>  <origin>  (3299) 
adg

>  <m_score__min__energy>  (3299) 
-15.99

>  <m_primary>  (3299) 
energy

$$$$
9:0
     RDKit          3D

 26 28  0  0  0  0  0  0  0  0999 V2000
   61.1640   33.2630   46.7070 O   0  0  0  0  0  0  0  0  0  0  0  0
   61.2010   32.0180   46.9200 C   0  0  0  0  0  0  0  0  0  0  0  0
   62.3370   31.4470   47.7340 C   0  0  0  0  0  0  0  0  0  0  0  0
   62.8050   32.4150   48.7910 C   0  0  0  0  0  0  0  0  0  0  0  0
   61.8760   33.1030   49.5880 C   0  0  0  0  0  0  0  0  0  0  0  0
   62.3150   33.9770   50.5880 C   0  0  0  0  0  0  0  0  0  0  0  0
   63.6840   34.1620   50.8050 C   0  0  0  0  0  0  0  0  0  0  0  0
   64.1190   35.0300   51.7990 O   0  0  0  0  0  0  0  0  0  0  0  0
   64.6150   33.4710   50.0240 C   0  0  0  0  0  0  0  0  0  0  0  0
   64.1790   32.5960   49.0230 C   0  0  0  0  0  0  0  0  0  0  0  0
   60.2020   31.1620   46.3220 N   0  0  0  0  0  0  0  0  0  0  0  0
   60.4790   29.7290   46.1270 C   0  0  0  0  0  0  0  0  0  0  0  0
   59.4520   29.0710   45.2020 C   0  0  0  0  0  0  0  0  0  0  0  0
   58.0910   29.4400   45.6160 N   0  0  0  0  0  0  0  0  0  0  0  0
   57.0150   28.4870   45.5200 C   0  0  0  0  0  0  0  0  0  0  0  0
   55.8900   28.8610   45.0890 O   0  0  0  0  0  0  0  0  0  0  0  0
   57.1920   27.0730   45.9160 C   0  0  0  0  0  0  0  0  0  0  0  0
   58.4890   26.5410   46.0240 C   0  0  0  0  0  0  0  0  0  0  0  0
   58.6790   25.2090   46.4020 C   0  0  0  0  0  0  0  0  0  0  0  0
   57.5760   24.3910   46.6660 C   0  0  0  0  0  0  0  0  0  0  0  0
   57.7680   23.0690   47.0450 O   0  0  0  0  0  0  0  0  0  0  0  0
   56.2830   24.9050   46.5430 C   0  0  0  0  0  0  0  0  0  0  0  0
   56.0850   26.2360   46.1590 C   0  0  0  0  0  0  0  0  0  0  0  0
   54.7860   26.7090   46.0000 O   0  0  0  0  0  0  0  0  0  0  0  0
   57.7800   30.8400   45.9380 C   0  0  0  0  0  0  0  0  0  0  0  0
   58.9910   31.7590   45.7380 C   0  0  0  0  0  0  0  0  0  0  0  0
  1  2  2  0
  2  3  1  0
  3  4  1  0
  4  5  2  0
  5  6  1  0
  6  7  2  0
  7  8  1  0
  7  9  1  0
  9 10  2  0
  2 11  1  0
 11 12  1  0
 12 13  1  0
 13 14  1  0
 14 15  1  0
 15 16  2  0
 15 17  1  0
 17 18  2  0
 18 19  1  0
 19 20  2  0
 20 21  1  0
 20 22  1  0
 22 23  2  0
 23 24  1  0
 14 25  1  0
 25 26  1  0
 10  4  1  0
 26 11  1  0
 23 17  1  0
M  CHG  3   8  -1  21  -1  24  -1
M  END
>  <UniqueID>  (3300) 
10

>  <SMILES>  (3300) 
O=C(Cc1ccc([O-])cc1)N1CCN(C(=O)c2ccc([O-])cc2[O-])CC1

>  <Energy>  (3300) 
51.84035515772399

>  <Genealogy>  (3300) 
O=C(Cc1ccc([O-])cc1)N1CCN(C(=O)c2ccc([O-])cc2[O-])CC1 (protonated)
O=C(Cc1ccc([O-])cc1)N1CCN(C(=O)c2ccc([O-])cc2[O-])CC1 (3D coordinates assigned)
O=C(Cc1ccc([O-])cc1)N1CCN(C(=O)c2ccc([O-])cc2[O-])CC1 (nonaromatic ring conformer: 51.84035515772399 kcal/mol)

>  <smiles>  (3300) 
O=C(Cc1ccc(O)cc1)N1CCN(C(=O)c2ccc(O)cc2O)CC1

>  <score_type>  (3300) 
oracle

>  <origin>  (3300) 
adg

>  <m_score__min__energy>  (3300) 
-14.1

>  <m_primary>  (3300) 
energy

$$$$
17:0
     RDKit          3D

 32 35  0  0  0  0  0  0  0  0999 V2000
   56.8920   31.6030   51.6210 C   0  0  0  0  0  0  0  0  0  0  0  0
   55.7970   31.0500   52.1450 C   0  0  0  0  0  0  0  0  0  0  0  0
   55.7530   30.2300   53.2600 C   0  0  0  0  0  0  0  0  0  0  0  0
   56.9110   29.8020   54.0740 C   0  0  0  0  0  0  0  0  0  0  0  0
   56.6770   29.1350   55.1190 O   0  0  0  0  0  0  0  0  0  0  0  0
   58.2780   30.1760   53.7620 N   0  0  0  0  0  0  0  0  0  0  0  0
   58.7780   29.5580   52.5120 C   0  0  0  0  0  0  0  0  0  0  0  0
   60.2210   29.9920   52.2300 C   0  0  0  0  0  0  0  0  0  0  0  0
   61.0830   29.6160   53.3640 N   0  0  0  0  0  0  0  0  0  0  0  0
   62.4900   29.9610   53.0770 C   0  0  0  0  0  0  0  0  0  0  0  0
   62.7370   29.9630   51.5930 C   0  0  0  0  0  0  0  0  0  0  0  0
   62.5190   28.9070   50.9410 O   0  0  0  0  0  0  0  0  0  0  0  0
   63.2070   31.1450   50.9110 N   0  0  0  0  0  0  0  0  0  0  0  0
   63.0090   31.2680   49.4620 C   0  0  0  0  0  0  0  0  0  0  0  0
   62.9250   32.7480   49.0760 C   0  0  0  0  0  0  0  0  0  0  0  0
   64.0380   33.4640   49.5730 O   0  0  0  0  0  0  0  0  0  0  0  0
   64.0080   33.4620   50.9900 C   0  0  0  0  0  0  0  0  0  0  0  0
   64.1840   32.0420   51.5380 C   0  0  0  0  0  0  0  0  0  0  0  0
   60.6070   30.2790   54.5960 C   0  0  0  0  0  0  0  0  0  0  0  0
   59.1660   29.8500   54.8950 C   0  0  0  0  0  0  0  0  0  0  0  0
   54.4230   29.8750   53.4350 C   0  0  0  0  0  0  0  0  0  0  0  0
   53.8840   28.9750   54.5100 C   0  0  0  0  0  0  0  0  0  0  0  0
   53.7160   30.4760   52.3940 C   0  0  0  0  0  0  0  0  0  0  0  0
   52.3980   30.3220   52.1590 C   0  0  0  0  0  0  0  0  0  0  0  0
   51.7050   30.7470   50.9270 C   0  0  0  0  0  0  0  0  0  0  0  0
   51.6220   30.0330   49.7890 N   0  0  0  0  0  0  0  0  0  0  0  0
   50.9550   30.8540   48.9510 C   0  0  0  0  0  0  0  0  0  0  0  0
   50.6810   30.5330   47.7630 O   0  0  0  0  0  0  0  0  0  0  0  0
   50.6200   32.0530   49.4790 N   0  0  0  0  0  0  0  0  0  0  0  0
   51.1110   31.9700   50.7250 C   0  0  0  0  0  0  0  0  0  0  0  0
   51.0140   32.9940   51.6620 O   0  0  0  0  0  0  0  0  0  0  0  0
   54.5640   31.1960   51.6200 N   0  0  0  0  0  0  0  0  0  0  0  0
  1  2  2  0
  2  3  1  0
  3  4  1  0
  4  5  2  0
  4  6  1  0
  6  7  1  0
  7  8  1  0
  8  9  1  0
  9 10  1  0
 10 11  1  0
 11 12  2  0
 11 13  1  0
 13 14  1  0
 14 15  1  0
 15 16  1  0
 16 17  1  0
 17 18  1  0
  9 19  1  0
 19 20  1  0
  3 21  2  0
 21 22  1  0
 21 23  1  0
 23 24  2  0
 24 25  1  0
 25 26  1  0
 26 27  1  0
 27 28  2  0
 27 29  1  0
 29 30  1  0
 30 31  1  0
 23 32  1  0
 32  2  1  0
 20  6  1  0
 30 25  2  0
 18 13  1  0
M  CHG  4   6   1  26  -1  29  -1  31  -1
M  END
>  <UniqueID>  (3301) 
18

>  <SMILES>  (3301) 
C=c1[nH]/c(=C\c2[n-]c(=O)[n-]c2[O-])c(C)c1C(=O)[NH+]1CCN(CC(=O)N2CCOCC2)CC1

>  <Energy>  (3301) 
132.00350132592405

>  <Genealogy>  (3301) 
C=c1[nH]c(=Cc2[n-]c(=O)[n-]c2[O-])c(C)c1C(=O)[NH+]1CCN(CC(=O)N2CCOCC2)CC1 (protonated)
C=c1[nH]/c(=C\c2[n-]c(=O)[n-]c2[O-])c(C)c1C(=O)[NH+]1CCN(CC(=O)N2CCOCC2)CC1 (cis-trans isomerization)
C=c1[nH]/c(=C\c2[n-]c(=O)[n-]c2[O-])c(C)c1C(=O)[NH+]1CCN(CC(=O)N2CCOCC2)CC1 (3D coordinates assigned)
C=c1[nH]/c(=C\c2[n-]c(=O)[n-]c2[O-])c(C)c1C(=O)[NH+]1CCN(CC(=O)N2CCOCC2)CC1 (nonaromatic ring conformer: 132.00350132592405 kcal/mol)

>  <smiles>  (3301) 
C=c1[nH]c(=Cc2[nH]c(=O)[nH]c2O)c(C)c1C(=O)N1CCN(CC(=O)N2CCOCC2)CC1

>  <score_type>  (3301) 
oracle

>  <origin>  (3301) 
adg

>  <m_score__min__energy>  (3301) 
-15.67

>  <m_primary>  (3301) 
energy

$$$$
22:0
     RDKit          3D

 37 41  0  0  0  0  0  0  0  0999 V2000
   59.2840   33.2100   50.3400 C   0  0  0  0  0  0  0  0  0  0  0  0
   59.4110   33.1580   49.0120 C   0  0  0  0  0  0  0  0  0  0  0  0
   58.3400   33.0870   48.1890 N   0  0  0  0  0  0  0  0  0  0  0  0
   58.8600   32.9900   46.9470 C   0  0  0  0  0  0  0  0  0  0  0  0
   58.0830   32.9210   45.8530 C   0  0  0  0  0  0  0  0  0  0  0  0
   57.5400   31.6870   45.2530 C   0  0  0  0  0  0  0  0  0  0  0  0
   56.2780   31.5270   44.7950 N   0  0  0  0  0  0  0  0  0  0  0  0
   56.2830   30.2850   44.2640 C   0  0  0  0  0  0  0  0  0  0  0  0
   55.2600   29.7580   43.7510 O   0  0  0  0  0  0  0  0  0  0  0  0
   57.4810   29.6690   44.3360 N   0  0  0  0  0  0  0  0  0  0  0  0
   57.8150   28.3040   43.9330 C   0  0  0  0  0  0  0  0  0  0  0  0
   58.1610   27.4820   45.1440 C   0  0  0  0  0  0  0  0  0  0  0  0
   57.6650   26.1790   45.2800 C   0  0  0  0  0  0  0  0  0  0  0  0
   57.9500   25.4350   46.4260 C   0  0  0  0  0  0  0  0  0  0  0  0
   58.7170   25.9910   47.4540 C   0  0  0  0  0  0  0  0  0  0  0  0
   59.2070   27.3070   47.3490 C   0  0  0  0  0  0  0  0  0  0  0  0
   60.0170   27.9340   48.4330 C   0  0  0  0  0  0  0  0  0  0  0  0
   60.5170   27.1850   49.3190 O   0  0  0  0  0  0  0  0  0  0  0  0
   60.2270   29.3710   48.5010 N   0  0  0  0  0  0  0  0  0  0  0  0
   61.4100   29.7340   49.3310 C   0  0  0  0  0  0  0  0  0  0  0  0
   61.0510   30.1210   50.7790 C   0  0  0  0  0  0  0  0  0  0  0  0
   59.8490   29.3950   51.2120 N   0  0  0  0  0  0  0  0  0  0  0  0
   59.6150   29.5900   52.6510 C   0  0  0  0  0  0  0  0  0  0  0  0
   58.6670   29.8190   50.4330 C   0  0  0  0  0  0  0  0  0  0  0  0
   58.9990   30.0670   48.9420 C   0  0  0  0  0  0  0  0  0  0  0  0
   58.9250   28.0420   46.1810 C   0  0  0  0  0  0  0  0  0  0  0  0
   58.2720   30.5580   44.9590 C   0  0  0  0  0  0  0  0  0  0  0  0
   59.6150   30.3500   45.2550 O   0  0  0  0  0  0  0  0  0  0  0  0
   60.2440   33.0220   47.0490 C   0  0  0  0  0  0  0  0  0  0  0  0
   61.0710   33.0330   46.0990 O   0  0  0  0  0  0  0  0  0  0  0  0
   60.5920   33.1230   48.3450 N   0  0  0  0  0  0  0  0  0  0  0  0
   61.9300   33.2290   48.8640 C   0  0  0  0  0  0  0  0  0  0  0  0
   62.2110   34.0850   49.9420 C   0  0  0  0  0  0  0  0  0  0  0  0
   63.5160   34.2000   50.4280 C   0  0  0  0  0  0  0  0  0  0  0  0
   64.5510   33.4700   49.8370 C   0  0  0  0  0  0  0  0  0  0  0  0
   64.2820   32.6260   48.7560 C   0  0  0  0  0  0  0  0  0  0  0  0
   62.9770   32.5080   48.2670 C   0  0  0  0  0  0  0  0  0  0  0  0
  1  2  2  0
  2  3  1  0
  3  4  1  0
  4  5  2  0
  5  6  1  0
  6  7  1  0
  7  8  1  0
  8  9  2  0
  8 10  1  0
 10 11  1  0
 11 12  1  0
 12 13  2  0
 13 14  1  0
 14 15  2  0
 15 16  1  0
 16 17  1  0
 17 18  2  0
 17 19  1  0
 19 20  1  0
 20 21  1  0
 21 22  1  0
 22 23  1  0
 22 24  1  0
 24 25  1  0
 16 26  2  0
 10 27  1  0
 27 28  1  0
  4 29  1  0
 29 30  2  0
 29 31  1  0
 31 32  1  0
 32 33  2  0
 33 34  1  0
 34 35  2  0
 35 36  1  0
 36 37  2  0
 31  2  1  0
 37 32  1  0
 27  6  2  0
 26 12  1  0
 25 19  1  0
M  CHG  4   3  -1   7  -1  19   1  28  -1
M  END
>  <UniqueID>  (3302) 
23

>  <SMILES>  (3302) 
C=c1[n-]/c(=C/c2[n-]c(=O)n(Cc3cccc(C(=O)[NH+]4CCN(C)CC4)c3)c2[O-])c(=O)n1-c1ccccc1

>  <Energy>  (3302) 
159.41077600904515

>  <Genealogy>  (3302) 
C=c1[n-]c(=Cc2[n-]c(=O)n(Cc3cccc(C(=O)[NH+]4CCN(C)CC4)c3)c2[O-])c(=O)n1-c1ccccc1 (protonated)
C=c1[n-]/c(=C/c2[n-]c(=O)n(Cc3cccc(C(=O)[NH+]4CCN(C)CC4)c3)c2[O-])c(=O)n1-c1ccccc1 (cis-trans isomerization)
C=c1[n-]/c(=C/c2[n-]c(=O)n(Cc3cccc(C(=O)[NH+]4CCN(C)CC4)c3)c2[O-])c(=O)n1-c1ccccc1 (3D coordinates assigned)
C=c1[n-]/c(=C/c2[n-]c(=O)n(Cc3cccc(C(=O)[NH+]4CCN(C)CC4)c3)c2[O-])c(=O)n1-c1ccccc1 (nonaromatic ring conformer: 159.41077600904515 kcal/mol)

>  <smiles>  (3302) 
C=c1[nH]c(=Cc2[nH]c(=O)n(Cc3cccc(C(=O)N4CCN(C)CC4)c3)c2O)c(=O)n1-c1ccccc1

>  <score_type>  (3302) 
oracle

>  <origin>  (3302) 
adg

>  <m_score__min__energy>  (3302) 
-14.48

>  <m_primary>  (3302) 
energy

$$$$
44:0
     RDKit          3D

 35 38  0  0  0  0  0  0  0  0999 V2000
   53.9920   29.6410   54.9910 C   0  0  0  0  0  0  0  0  0  0  0  0
   54.5870   30.0060   53.8440 C   0  0  0  0  0  0  0  0  0  0  0  0
   53.9540   30.5840   52.7380 C   0  0  0  0  0  0  0  0  0  0  0  0
   52.6620   30.9520   52.6350 C   0  0  0  0  0  0  0  0  0  0  0  0
   51.9550   31.1350   51.3530 C   0  0  0  0  0  0  0  0  0  0  0  0
   52.0260   30.2550   50.3390 N   0  0  0  0  0  0  0  0  0  0  0  0
   51.3160   30.8490   49.3570 C   0  0  0  0  0  0  0  0  0  0  0  0
   51.1400   30.3160   48.2300 O   0  0  0  0  0  0  0  0  0  0  0  0
   50.8180   32.0630   49.6710 N   0  0  0  0  0  0  0  0  0  0  0  0
   51.2410   32.2360   50.9340 C   0  0  0  0  0  0  0  0  0  0  0  0
   51.0190   33.3970   51.6660 O   0  0  0  0  0  0  0  0  0  0  0  0
   54.9370   30.7610   51.7760 C   0  0  0  0  0  0  0  0  0  0  0  0
   56.1120   30.2750   52.3140 C   0  0  0  0  0  0  0  0  0  0  0  0
   57.4400   30.3190   51.6050 C   0  0  0  0  0  0  0  0  0  0  0  0
   58.1680   31.6080   51.8780 C   0  0  0  0  0  0  0  0  0  0  0  0
   57.7050   32.4120   52.7340 O   0  0  0  0  0  0  0  0  0  0  0  0
   59.3950   31.9340   51.1930 N   0  0  0  0  0  0  0  0  0  0  0  0
   59.7490   33.2970   50.8710 C   0  0  0  0  0  0  0  0  0  0  0  0
   58.9820   34.2560   51.1580 O   0  0  0  0  0  0  0  0  0  0  0  0
   61.0340   33.5720   50.1540 C   0  0  0  0  0  0  0  0  0  0  0  0
   61.2860   32.5070   49.1790 N   0  0  0  0  0  0  0  0  0  0  0  0
   61.5930   32.8440   47.7820 C   0  0  0  0  0  0  0  0  0  0  0  0
   61.0430   34.2300   47.4120 C   0  0  0  0  0  0  0  0  0  0  0  0
   59.6830   34.1400   46.7670 C   0  0  0  0  0  0  0  0  0  0  0  0
   58.6410   33.4380   47.3990 C   0  0  0  0  0  0  0  0  0  0  0  0
   57.4020   33.2980   46.7680 C   0  0  0  0  0  0  0  0  0  0  0  0
   57.1910   33.8610   45.5060 C   0  0  0  0  0  0  0  0  0  0  0  0
   58.2190   34.5660   44.8730 C   0  0  0  0  0  0  0  0  0  0  0  0
   59.4620   34.7040   45.4990 C   0  0  0  0  0  0  0  0  0  0  0  0
   61.0580   31.1420   49.5790 C   0  0  0  0  0  0  0  0  0  0  0  0
   61.4700   30.1860   48.8690 O   0  0  0  0  0  0  0  0  0  0  0  0
   60.3390   30.8530   50.8660 C   0  0  0  0  0  0  0  0  0  0  0  0
   55.9100   29.8390   53.5810 N   0  0  0  0  0  0  0  0  0  0  0  0
   56.9290   29.2500   54.4660 C   0  0  0  0  0  0  0  0  0  0  0  0
   57.2490   27.8240   54.0330 C   0  0  0  0  0  0  0  0  0  0  0  0
  1  2  2  0
  2  3  1  0
  3  4  2  0
  4  5  1  0
  5  6  1  0
  6  7  1  0
  7  8  2  0
  7  9  1  0
  9 10  1  0
 10 11  1  0
  3 12  1  0
 12 13  2  0
 13 14  1  0
 14 15  1  0
 15 16  2  0
 15 17  1  0
 17 18  1  0
 18 19  2  0
 18 20  1  0
 20 21  1  0
 21 22  1  0
 22 23  1  0
 23 24  1  0
 24 25  2  0
 25 26  1  0
 26 27  2  0
 27 28  1  0
 28 29  2  0
 21 30  1  0
 30 31  2  0
 30 32  1  0
 13 33  1  0
 33 34  1  0
 34 35  1  0
 33  2  1  0
 10  5  2  0
 32 17  1  0
 29 24  1  0
M  CHG  3   6  -1   9  -1  11  -1
M  END
>  <UniqueID>  (3303) 
42

>  <SMILES>  (3303) 
C=c1/c(=C/c2[n-]c(=O)[n-]c2[O-])cc(CC(=O)N2CC(=O)N(CCc3ccccc3)CC2=O)n1CC

>  <Energy>  (3303) 
123.51103908212968

>  <Genealogy>  (3303) 
C=c1c(=Cc2[n-]c(=O)[n-]c2[O-])cc(CC(=O)N2CC(=O)N(CCc3ccccc3)CC2=O)n1CC (protonated)
C=c1/c(=C/c2[n-]c(=O)[n-]c2[O-])cc(CC(=O)N2CC(=O)N(CCc3ccccc3)CC2=O)n1CC (cis-trans isomerization)
C=c1/c(=C/c2[n-]c(=O)[n-]c2[O-])cc(CC(=O)N2CC(=O)N(CCc3ccccc3)CC2=O)n1CC (3D coordinates assigned)
C=c1/c(=C/c2[n-]c(=O)[n-]c2[O-])cc(CC(=O)N2CC(=O)N(CCc3ccccc3)CC2=O)n1CC (nonaromatic ring conformer: 123.51103908212968 kcal/mol)

>  <smiles>  (3303) 
C=c1c(=Cc2[nH]c(=O)[nH]c2O)cc(CC(=O)N2CC(=O)N(CCc3ccccc3)CC2=O)n1CC

>  <score_type>  (3303) 
oracle

>  <origin>  (3303) 
adg

>  <m_score__min__energy>  (3303) 
-18.969999999999999

>  <m_primary>  (3303) 
energy

$$$$
55:0
     RDKit          3D

 30 33  0  0  0  0  0  0  0  0999 V2000
   59.7260   29.3860   48.0630 C   0  0  0  0  0  0  0  0  0  0  0  0
   59.0850   30.0230   47.0710 C   0  0  0  0  0  0  0  0  0  0  0  0
   58.5000   29.4410   45.9380 C   0  0  0  0  0  0  0  0  0  0  0  0
   58.4690   28.1260   45.6320 C   0  0  0  0  0  0  0  0  0  0  0  0
   57.3460   27.2000   45.8990 C   0  0  0  0  0  0  0  0  0  0  0  0
   57.4390   25.9840   46.4690 N   0  0  0  0  0  0  0  0  0  0  0  0
   56.1590   25.5570   46.5180 C   0  0  0  0  0  0  0  0  0  0  0  0
   55.8360   24.4380   46.9920 O   0  0  0  0  0  0  0  0  0  0  0  0
   55.2540   26.4270   46.0230 N   0  0  0  0  0  0  0  0  0  0  0  0
   56.0200   27.4600   45.6390 C   0  0  0  0  0  0  0  0  0  0  0  0
   55.5180   28.6190   45.0580 O   0  0  0  0  0  0  0  0  0  0  0  0
   57.9500   30.4920   45.2080 C   0  0  0  0  0  0  0  0  0  0  0  0
   58.2160   31.6490   45.9140 C   0  0  0  0  0  0  0  0  0  0  0  0
   57.8320   33.0290   45.4780 C   0  0  0  0  0  0  0  0  0  0  0  0
   58.9090   31.3660   47.0350 N   0  0  0  0  0  0  0  0  0  0  0  0
   59.3610   32.3270   48.0030 C   0  0  0  0  0  0  0  0  0  0  0  0
   58.9070   32.2320   49.3250 C   0  0  0  0  0  0  0  0  0  0  0  0
   59.3350   33.1500   50.2980 C   0  0  0  0  0  0  0  0  0  0  0  0
   58.8640   33.0300   51.6960 C   0  0  0  0  0  0  0  0  0  0  0  0
   59.0570   33.9840   52.4990 O   0  0  0  0  0  0  0  0  0  0  0  0
   58.1810   31.8500   52.1530 N   0  0  0  0  0  0  0  0  0  0  0  0
   58.8190   30.5400   51.9740 C   0  0  0  0  0  0  0  0  0  0  0  0
   57.9620   29.4280   52.5890 C   0  0  0  0  0  0  0  0  0  0  0  0
   56.5480   29.6430   52.2690 N   0  0  0  0  0  0  0  0  0  0  0  0
   56.0140   30.8740   52.8870 C   0  0  0  0  0  0  0  0  0  0  0  0
   57.0640   31.9870   53.0940 C   0  0  0  0  0  0  0  0  0  0  0  0
   60.2490   34.1510   49.9350 C   0  0  0  0  0  0  0  0  0  0  0  0
   60.7000   34.2550   48.6180 C   0  0  0  0  0  0  0  0  0  0  0  0
   60.2500   33.3580   47.6370 C   0  0  0  0  0  0  0  0  0  0  0  0
   60.7570   33.4740   46.2260 C   0  0  0  0  0  0  0  0  0  0  0  0
  1  2  2  0
  2  3  1  0
  3  4  2  0
  4  5  1  0
  5  6  1  0
  6  7  1  0
  7  8  2  0
  7  9  1  0
  9 10  1  0
 10 11  1  0
  3 12  1  0
 12 13  2  0
 13 14  1  0
 13 15  1  0
 15 16  1  0
 16 17  2  0
 17 18  1  0
 18 19  1  0
 19 20  2  0
 19 21  1  0
 21 22  1  0
 22 23  1  0
 23 24  1  0
 24 25  1  0
 25 26  1  0
 18 27  2  0
 27 28  1  0
 28 29  2  0
 29 30  1  0
 15  2  1  0
 29 16  1  0
 10  5  2  0
 26 21  1  0
M  CHG  3   6  -1   9  -1  11  -1
M  END
>  <UniqueID>  (3304) 
50

>  <SMILES>  (3304) 
C=c1/c(=C/c2[n-]c(=O)[n-]c2[O-])cc(C)n1-c1cc(C(=O)N2CCNCC2)ccc1C

>  <Energy>  (3304) 
131.73676961646723

>  <Genealogy>  (3304) 
C=c1c(=Cc2[n-]c(=O)[n-]c2[O-])cc(C)n1-c1cc(C(=O)N2CCNCC2)ccc1C (protonated)
C=c1/c(=C/c2[n-]c(=O)[n-]c2[O-])cc(C)n1-c1cc(C(=O)N2CCNCC2)ccc1C (cis-trans isomerization)
C=c1/c(=C/c2[n-]c(=O)[n-]c2[O-])cc(C)n1-c1cc(C(=O)N2CCNCC2)ccc1C (3D coordinates assigned)
C=c1/c(=C/c2[n-]c(=O)[n-]c2[O-])cc(C)n1-c1cc(C(=O)N2CCNCC2)ccc1C (nonaromatic ring conformer: 131.73676961646723 kcal/mol)

>  <smiles>  (3304) 
C=c1c(=Cc2[nH]c(=O)[nH]c2O)cc(C)n1-c1cc(C(=O)N2CCNCC2)ccc1C

>  <score_type>  (3304) 
oracle

>  <origin>  (3304) 
adg

>  <m_score__min__energy>  (3304) 
-16.600000000000001

>  <m_primary>  (3304) 
energy

$$$$
65:0
     RDKit          3D

 32 35  0  0  0  0  0  0  0  0999 V2000
   63.7880   32.6180   46.9810 O   0  0  0  0  0  0  0  0  0  0  0  0
   63.5430   32.9110   48.3220 C   0  0  0  0  0  0  0  0  0  0  0  0
   64.4740   32.5600   49.3110 C   0  0  0  0  0  0  0  0  0  0  0  0
   64.2210   32.8640   50.6530 C   0  0  0  0  0  0  0  0  0  0  0  0
   63.0310   33.5110   51.0220 C   0  0  0  0  0  0  0  0  0  0  0  0
   62.7780   33.8760   52.4610 C   0  0  0  0  0  0  0  0  0  0  0  0
   62.3900   32.6310   53.2720 C   0  0  0  0  0  0  0  0  0  0  0  0
   61.0980   32.0760   52.8120 N   0  0  0  0  0  0  0  0  0  0  0  0
   61.2840   30.8090   52.0530 C   0  0  0  0  0  0  0  0  0  0  0  0
   60.1260   29.8020   52.2080 C   0  0  0  0  0  0  0  0  0  0  0  0
   58.8520   30.4950   52.4300 N   0  0  0  0  0  0  0  0  0  0  0  0
   57.6860   30.1390   51.6630 C   0  0  0  0  0  0  0  0  0  0  0  0
   57.8020   29.8760   50.4360 O   0  0  0  0  0  0  0  0  0  0  0  0
   56.3410   30.1350   52.2700 C   0  0  0  0  0  0  0  0  0  0  0  0
   55.2940   30.9160   51.8220 C   0  0  0  0  0  0  0  0  0  0  0  0
   54.2080   30.6380   52.6380 C   0  0  0  0  0  0  0  0  0  0  0  0
   52.9890   31.2130   52.5720 C   0  0  0  0  0  0  0  0  0  0  0  0
   52.1540   31.2430   51.3570 C   0  0  0  0  0  0  0  0  0  0  0  0
   52.2350   30.3170   50.3830 N   0  0  0  0  0  0  0  0  0  0  0  0
   51.3950   30.7830   49.4350 C   0  0  0  0  0  0  0  0  0  0  0  0
   51.1880   30.1730   48.3530 O   0  0  0  0  0  0  0  0  0  0  0  0
   50.8030   31.9600   49.7330 N   0  0  0  0  0  0  0  0  0  0  0  0
   51.3030   32.2450   50.9460 C   0  0  0  0  0  0  0  0  0  0  0  0
   51.0240   33.4210   51.6360 O   0  0  0  0  0  0  0  0  0  0  0  0
   54.6460   29.6810   53.5600 C   0  0  0  0  0  0  0  0  0  0  0  0
   53.9140   29.1290   54.5390 C   0  0  0  0  0  0  0  0  0  0  0  0
   55.9430   29.3650   53.3140 N   0  0  0  0  0  0  0  0  0  0  0  0
   56.7120   28.2980   53.9630 C   0  0  0  0  0  0  0  0  0  0  0  0
   58.7790   31.5700   53.4290 C   0  0  0  0  0  0  0  0  0  0  0  0
   60.1740   31.9210   53.9510 C   0  0  0  0  0  0  0  0  0  0  0  0
   62.1050   33.8700   50.0250 C   0  0  0  0  0  0  0  0  0  0  0  0
   62.3590   33.5650   48.6820 C   0  0  0  0  0  0  0  0  0  0  0  0
  1  2  1  0
  2  3  2  0
  3  4  1  0
  4  5  2  0
  5  6  1  0
  6  7  1  0
  7  8  1  0
  8  9  1  0
  9 10  1  0
 10 11  1  0
 11 12  1  0
 12 13  2  0
 12 14  1  0
 14 15  2  0
 15 16  1  0
 16 17  2  0
 17 18  1  0
 18 19  1  0
 19 20  1  0
 20 21  2  0
 20 22  1  0
 22 23  1  0
 23 24  1  0
 16 25  1  0
 25 26  2  0
 25 27  1  0
 27 28  1  0
 11 29  1  0
 29 30  1  0
  5 31  1  0
 31 32  2  0
 32  2  1  0
 30  8  1  0
 27 14  1  0
 23 18  2  0
M  CHG  3  19  -1  22  -1  24  -1
M  END
>  <UniqueID>  (3305) 
59

>  <SMILES>  (3305) 
C=c1/c(=C/c2[n-]c(=O)[n-]c2[O-])cc(C(=O)N2CCN(CCc3ccc(O)cc3)CC2)n1C

>  <Energy>  (3305) 
134.53028243695752

>  <Genealogy>  (3305) 
C=c1c(=Cc2[n-]c(=O)[n-]c2[O-])cc(C(=O)N2CCN(CCc3ccc(O)cc3)CC2)n1C (protonated)
C=c1/c(=C/c2[n-]c(=O)[n-]c2[O-])cc(C(=O)N2CCN(CCc3ccc(O)cc3)CC2)n1C (cis-trans isomerization)
C=c1/c(=C/c2[n-]c(=O)[n-]c2[O-])cc(C(=O)N2CCN(CCc3ccc(O)cc3)CC2)n1C (3D coordinates assigned)
C=c1/c(=C/c2[n-]c(=O)[n-]c2[O-])cc(C(=O)N2CCN(CCc3ccc(O)cc3)CC2)n1C (nonaromatic ring conformer: 134.53028243695752 kcal/mol)

>  <smiles>  (3305) 
C=c1c(=Cc2[nH]c(=O)[nH]c2O)cc(C(=O)N2CCN(CCc3ccc(O)cc3)CC2)n1C

>  <score_type>  (3305) 
oracle

>  <origin>  (3305) 
adg

>  <m_score__min__energy>  (3305) 
-18.02

>  <m_primary>  (3305) 
energy

$$$$
66:0
     RDKit          3D

 25 27  0  0  0  0  0  0  0  0999 V2000
   58.5110   28.4920   48.0020 C   0  0  0  0  0  0  0  0  0  0  0  0
   58.3720   29.1150   46.8210 C   0  0  0  0  0  0  0  0  0  0  0  0
   57.9190   28.5370   45.6260 C   0  0  0  0  0  0  0  0  0  0  0  0
   57.7620   27.2470   45.2720 C   0  0  0  0  0  0  0  0  0  0  0  0
   57.2450   26.1780   46.1430 C   0  0  0  0  0  0  0  0  0  0  0  0
   57.9880   25.1850   46.6650 N   0  0  0  0  0  0  0  0  0  0  0  0
   57.0730   24.3930   47.2650 C   0  0  0  0  0  0  0  0  0  0  0  0
   57.3880   23.3460   47.8890 O   0  0  0  0  0  0  0  0  0  0  0  0
   55.7940   24.8050   47.1330 N   0  0  0  0  0  0  0  0  0  0  0  0
   55.9210   25.9280   46.4080 C   0  0  0  0  0  0  0  0  0  0  0  0
   54.8470   26.7060   45.9940 O   0  0  0  0  0  0  0  0  0  0  0  0
   57.6350   29.5870   44.7740 C   0  0  0  0  0  0  0  0  0  0  0  0
   57.9980   30.7460   45.4270 C   0  0  0  0  0  0  0  0  0  0  0  0
   57.7820   32.1230   44.8560 C   0  0  0  0  0  0  0  0  0  0  0  0
   57.7780   32.0820   43.3310 C   0  0  0  0  0  0  0  0  0  0  0  0
   58.4710   30.4650   46.6680 N   0  0  0  0  0  0  0  0  0  0  0  0
   58.9020   31.4450   47.6820 C   0  0  0  0  0  0  0  0  0  0  0  0
   60.3260   31.9090   47.4470 C   0  0  0  0  0  0  0  0  0  0  0  0
   60.6370   33.2040   46.9670 C   0  0  0  0  0  0  0  0  0  0  0  0
   59.6160   34.1720   46.6610 C   0  0  0  0  0  0  0  0  0  0  0  0
   58.7940   34.9450   46.4040 N   0  0  0  0  0  0  0  0  0  0  0  0
   61.9370   33.5670   46.7920 N   0  0  0  0  0  0  0  0  0  0  0  0
   62.9660   32.7280   47.0720 C   0  0  0  0  0  0  0  0  0  0  0  0
   62.7100   31.4500   47.5670 C   0  0  0  0  0  0  0  0  0  0  0  0
   61.3900   31.0460   47.7610 C   0  0  0  0  0  0  0  0  0  0  0  0
  1  2  2  0
  2  3  1  0
  3  4  2  0
  4  5  1  0
  5  6  1  0
  6  7  1  0
  7  8  2  0
  7  9  1  0
  9 10  1  0
 10 11  1  0
  3 12  1  0
 12 13  2  0
 13 14  1  0
 14 15  1  0
 13 16  1  0
 16 17  1  0
 17 18  1  0
 18 19  2  0
 19 20  1  0
 20 21  3  0
 19 22  1  0
 22 23  2  0
 23 24  1  0
 24 25  2  0
 16  2  1  0
 25 18  1  0
 10  5  2  0
M  CHG  3   6  -1   9  -1  11  -1
M  END
>  <UniqueID>  (3306) 
60

>  <SMILES>  (3306) 
C=c1/c(=C\c2[n-]c(=O)[n-]c2[O-])cc(CC)n1Cc1cccnc1C#N

>  <Energy>  (3306) 
108.45556027989872

>  <Genealogy>  (3306) 
C=c1c(=Cc2[n-]c(=O)[n-]c2[O-])cc(CC)n1Cc1cccnc1C#N (protonated)
C=c1/c(=C\c2[n-]c(=O)[n-]c2[O-])cc(CC)n1Cc1cccnc1C#N (cis-trans isomerization)
C=c1/c(=C\c2[n-]c(=O)[n-]c2[O-])cc(CC)n1Cc1cccnc1C#N (3D coordinates assigned)
C=c1/c(=C\c2[n-]c(=O)[n-]c2[O-])cc(CC)n1Cc1cccnc1C#N (optimized conformer: 108.45556027989872 kcal/mol)

>  <smiles>  (3306) 
C=c1c(=Cc2[nH]c(=O)[nH]c2O)cc(CC)n1Cc1cccnc1C#N

>  <score_type>  (3306) 
oracle

>  <origin>  (3306) 
adg

>  <m_score__min__energy>  (3306) 
-15.41

>  <m_primary>  (3306) 
energy

$$$$
77:0
     RDKit          3D

 42 46  0  0  0  0  0  0  0  0999 V2000
   55.5240   26.6010   46.2840 C   0  0  0  0  0  0  0  0  0  0  0  0
   56.5800   27.1490   45.6520 C   0  0  0  0  0  0  0  0  0  0  0  0
   56.4260   28.4270   45.0690 C   0  0  0  0  0  0  0  0  0  0  0  0
   55.1470   28.9450   44.8710 O   0  0  0  0  0  0  0  0  0  0  0  0
   57.5490   29.2080   44.7270 C   0  0  0  0  0  0  0  0  0  0  0  0
   57.3330   30.6160   44.1840 C   0  0  0  0  0  0  0  0  0  0  0  0
   57.5910   31.6540   45.2460 C   0  0  0  0  0  0  0  0  0  0  0  0
   57.2020   32.9930   45.0550 C   0  0  0  0  0  0  0  0  0  0  0  0
   57.5050   33.9590   46.0210 C   0  0  0  0  0  0  0  0  0  0  0  0
   58.2050   33.6010   47.1760 C   0  0  0  0  0  0  0  0  0  0  0  0
   58.5930   32.2670   47.3810 C   0  0  0  0  0  0  0  0  0  0  0  0
   59.4300   31.8980   48.5370 C   0  0  0  0  0  0  0  0  0  0  0  0
   59.0060   32.1290   49.7030 O   0  0  0  0  0  0  0  0  0  0  0  0
   60.7390   31.3260   48.3430 N   0  0  0  0  0  0  0  0  0  0  0  0
   61.5180   31.6620   47.1340 C   0  0  0  0  0  0  0  0  0  0  0  0
   63.0240   31.5410   47.3880 C   0  0  0  0  0  0  0  0  0  0  0  0
   63.3270   31.9850   48.7540 N   0  0  0  0  0  0  0  0  0  0  0  0
   64.0730   33.1980   48.9750 C   0  0  0  0  0  0  0  0  0  0  0  0
   63.9630   34.1730   48.1780 O   0  0  0  0  0  0  0  0  0  0  0  0
   64.8960   33.3310   50.1380 N   0  0  0  0  0  0  0  0  0  0  0  0
   66.2350   32.7330   50.1410 C   0  0  0  0  0  0  0  0  0  0  0  0
   66.8450   32.7720   51.5500 C   0  0  0  0  0  0  0  0  0  0  0  0
   66.7760   34.1170   52.1730 N   0  0  0  0  0  0  0  0  0  0  0  0
   67.9540   34.9310   51.8260 C   0  0  0  0  0  0  0  0  0  0  0  0
   65.5180   34.8730   51.9220 C   0  0  0  0  0  0  0  0  0  0  0  0
   64.3960   34.0130   51.3290 C   0  0  0  0  0  0  0  0  0  0  0  0
   62.6450   31.3460   49.8870 C   0  0  0  0  0  0  0  0  0  0  0  0
   61.3960   30.5780   49.4220 C   0  0  0  0  0  0  0  0  0  0  0  0
   58.2440   31.2970   46.4330 C   0  0  0  0  0  0  0  0  0  0  0  0
   58.8440   28.7050   45.0010 C   0  0  0  0  0  0  0  0  0  0  0  0
   60.1010   29.5340   44.8410 C   0  0  0  0  0  0  0  0  0  0  0  0
   61.3450   28.6470   44.8550 C   0  0  0  0  0  0  0  0  0  0  0  0
   58.9870   27.3930   45.4670 C   0  0  0  0  0  0  0  0  0  0  0  0
   57.8780   26.5570   45.6890 C   0  0  0  0  0  0  0  0  0  0  0  0
   58.1280   25.2380   45.8900 C   0  0  0  0  0  0  0  0  0  0  0  0
   57.3530   24.1110   45.3190 C   0  0  0  0  0  0  0  0  0  0  0  0
   56.9300   24.0190   44.0450 N   0  0  0  0  0  0  0  0  0  0  0  0
   56.3490   22.7980   43.9930 C   0  0  0  0  0  0  0  0  0  0  0  0
   55.7950   22.3580   42.9540 O   0  0  0  0  0  0  0  0  0  0  0  0
   56.4010   22.0960   45.1450 N   0  0  0  0  0  0  0  0  0  0  0  0
   57.0490   22.9370   45.9710 C   0  0  0  0  0  0  0  0  0  0  0  0
   57.3770   22.6230   47.2830 O   0  0  0  0  0  0  0  0  0  0  0  0
  1  2  2  0
  2  3  1  0
  3  4  1  0
  3  5  2  0
  5  6  1  0
  6  7  1  0
  7  8  2  0
  8  9  1  0
  9 10  2  0
 10 11  1  0
 11 12  1  0
 12 13  2  0
 12 14  1  0
 14 15  1  0
 15 16  1  0
 16 17  1  0
 17 18  1  0
 18 19  2  0
 18 20  1  0
 20 21  1  0
 21 22  1  0
 22 23  1  0
 23 24  1  0
 23 25  1  0
 25 26  1  0
 17 27  1  0
 27 28  1  0
 11 29  2  0
  5 30  1  0
 30 31  1  0
 31 32  1  0
 30 33  2  0
 33 34  1  0
 34 35  2  3
 35 36  1  0
 36 37  1  0
 37 38  1  0
 38 39  2  0
 38 40  1  0
 40 41  1  0
 41 42  1  0
 34  2  1  0
 41 36  2  0
 29  7  1  0
 28 14  1  0
 26 20  1  0
M  CHG  4   4  -1  37  -1  40  -1  42  -1
M  END
>  <UniqueID>  (3307) 
71

>  <SMILES>  (3307) 
C=c1c([O-])c(Cc2cccc(C(=O)N3CCN(C(=O)N4CCN(C)CC4)CC3)c2)c(CC)cc1=Cc1[n-]c(=O)[n-]c1[O-]

>  <Energy>  (3307) 
151.82881200855655

>  <Genealogy>  (3307) 
C=c1c([O-])c(Cc2cccc(C(=O)N3CCN(C(=O)N4CCN(C)CC4)CC3)c2)c(CC)cc1=Cc1[n-]c(=O)[n-]c1[O-] (protonated)
C=c1c([O-])c(Cc2cccc(C(=O)N3CCN(C(=O)N4CCN(C)CC4)CC3)c2)c(CC)cc1=Cc1[n-]c(=O)[n-]c1[O-] (3D coordinates assigned)
C=c1c([O-])c(Cc2cccc(C(=O)N3CCN(C(=O)N4CCN(C)CC4)CC3)c2)c(CC)cc1=Cc1[n-]c(=O)[n-]c1[O-] (nonaromatic ring conformer: 151.82881200855655 kcal/mol)

>  <smiles>  (3307) 
C=c1c(O)c(Cc2cccc(C(=O)N3CCN(C(=O)N4CCN(C)CC4)CC3)c2)c(CC)cc1=Cc1[nH]c(=O)[nH]c1O

>  <score_type>  (3307) 
oracle

>  <origin>  (3307) 
adg

>  <m_score__min__energy>  (3307) 
-19.43

>  <m_primary>  (3307) 
energy

$$$$
85:0
     RDKit          3D

 31 34  0  0  0  0  0  0  0  0999 V2000
   60.3060   27.0890   46.0090 C   0  0  0  0  0  0  0  0  0  0  0  0
   59.4240   27.9120   45.4190 C   0  0  0  0  0  0  0  0  0  0  0  0
   58.2420   27.5340   44.7640 C   0  0  0  0  0  0  0  0  0  0  0  0
   57.7860   26.2760   44.5810 C   0  0  0  0  0  0  0  0  0  0  0  0
   57.1830   25.4090   45.6210 C   0  0  0  0  0  0  0  0  0  0  0  0
   57.7210   24.2850   46.1290 N   0  0  0  0  0  0  0  0  0  0  0  0
   56.8090   23.8790   47.0380 C   0  0  0  0  0  0  0  0  0  0  0  0
   56.9620   22.8420   47.7360 O   0  0  0  0  0  0  0  0  0  0  0  0
   55.7230   24.6720   47.1440 N   0  0  0  0  0  0  0  0  0  0  0  0
   55.9760   25.6350   46.2430 C   0  0  0  0  0  0  0  0  0  0  0  0
   55.1200   26.6990   45.9920 O   0  0  0  0  0  0  0  0  0  0  0  0
   57.6360   28.7190   44.3620 C   0  0  0  0  0  0  0  0  0  0  0  0
   58.4450   29.7490   44.7930 C   0  0  0  0  0  0  0  0  0  0  0  0
   58.1300   31.1830   44.6230 C   0  0  0  0  0  0  0  0  0  0  0  0
   58.5030   31.7410   43.5570 O   0  0  0  0  0  0  0  0  0  0  0  0
   57.4780   31.9830   45.6500 N   0  0  0  0  0  0  0  0  0  0  0  0
   57.5390   33.4370   45.3100 C   0  0  0  0  0  0  0  0  0  0  0  0
   58.0990   34.3150   46.4360 C   0  0  0  0  0  0  0  0  0  0  0  0
   59.3140   33.6960   46.9670 N   0  0  0  0  0  0  0  0  0  0  0  0
   60.6020   34.3270   46.8010 C   0  0  0  0  0  0  0  0  0  0  0  0
   60.7400   35.2760   45.9840 O   0  0  0  0  0  0  0  0  0  0  0  0
   61.7910   33.8440   47.5200 C   0  0  0  0  0  0  0  0  0  0  0  0
   63.0020   33.5270   46.9460 C   0  0  0  0  0  0  0  0  0  0  0  0
   63.8130   33.1190   47.9860 C   0  0  0  0  0  0  0  0  0  0  0  0
   63.1570   33.1950   49.1230 O   0  0  0  0  0  0  0  0  0  0  0  0
   61.9440   33.6330   48.8820 C   0  0  0  0  0  0  0  0  0  0  0  0
   60.9400   33.8970   49.9590 C   0  0  0  0  0  0  0  0  0  0  0  0
   59.2230   32.3160   47.4580 C   0  0  0  0  0  0  0  0  0  0  0  0
   57.8910   31.6550   47.0420 C   0  0  0  0  0  0  0  0  0  0  0  0
   59.5530   29.2630   45.3980 N   0  0  0  0  0  0  0  0  0  0  0  0
   60.6530   30.0540   45.9590 C   0  0  0  0  0  0  0  0  0  0  0  0
  1  2  2  0
  2  3  1  0
  3  4  2  3
  4  5  1  0
  5  6  1  0
  6  7  1  0
  7  8  2  0
  7  9  1  0
  9 10  1  0
 10 11  1  0
  3 12  1  0
 12 13  2  0
 13 14  1  0
 14 15  2  0
 14 16  1  0
 16 17  1  0
 17 18  1  0
 18 19  1  0
 19 20  1  0
 20 21  2  0
 20 22  1  0
 22 23  1  0
 23 24  2  0
 24 25  1  0
 25 26  1  0
 26 27  1  0
 19 28  1  0
 28 29  1  0
 13 30  1  0
 30 31  1  0
 30  2  1  0
 10  5  2  0
 29 16  1  0
 26 22  2  0
M  CHG  4   6  -1   9  -1  11  -1  16   1
M  END
>  <UniqueID>  (3308) 
78

>  <SMILES>  (3308) 
C=c1c(=Cc2[n-]c(=O)[n-]c2[O-])cc(C(=O)[NH+]2CCN(C(=O)c3ccoc3C)CC2)n1C

>  <Energy>  (3308) 
166.68802528203923

>  <Genealogy>  (3308) 
C=c1c(=Cc2[n-]c(=O)[n-]c2[O-])cc(C(=O)[NH+]2CCN(C(=O)c3ccoc3C)CC2)n1C (protonated)
C=c1c(=Cc2[n-]c(=O)[n-]c2[O-])cc(C(=O)[NH+]2CCN(C(=O)c3ccoc3C)CC2)n1C (3D coordinates assigned)
C=c1c(=Cc2[n-]c(=O)[n-]c2[O-])cc(C(=O)[NH+]2CCN(C(=O)c3ccoc3C)CC2)n1C (nonaromatic ring conformer: 166.68802528203923 kcal/mol)

>  <smiles>  (3308) 
C=c1c(=Cc2[nH]c(=O)[nH]c2O)cc(C(=O)N2CCN(C(=O)c3ccoc3C)CC2)n1C

>  <score_type>  (3308) 
oracle

>  <origin>  (3308) 
adg

>  <m_score__min__energy>  (3308) 
-16.489999999999998

>  <m_primary>  (3308) 
energy

$$$$
15:0
     RDKit          3D

 34 37  0  0  0  0  0  0  0  0999 V2000
   60.1070   26.0730   46.7500 C   0  0  0  0  0  0  0  0  0  0  0  0
   59.2690   26.6640   45.8940 C   0  0  0  0  0  0  0  0  0  0  0  0
   59.4970   28.2300   45.3190 S   0  0  0  0  0  0  0  0  0  0  0  0
   58.1310   28.2650   44.3460 C   0  0  0  0  0  0  0  0  0  0  0  0
   57.6650   29.4420   43.5490 C   0  0  0  0  0  0  0  0  0  0  0  0
   56.5200   30.1560   44.2170 C   0  0  0  0  0  0  0  0  0  0  0  0
   55.5160   29.4970   44.6010 O   0  0  0  0  0  0  0  0  0  0  0  0
   56.6250   31.5350   44.5890 N   0  0  0  0  0  0  0  0  0  0  0  0
   57.3930   32.0160   45.6950 C   0  0  0  0  0  0  0  0  0  0  0  0
   58.1010   31.1060   46.4890 C   0  0  0  0  0  0  0  0  0  0  0  0
   58.8600   31.5610   47.5710 C   0  0  0  0  0  0  0  0  0  0  0  0
   58.8940   32.9270   47.8860 C   0  0  0  0  0  0  0  0  0  0  0  0
   59.8090   33.4800   49.2860 S   0  0  0  0  0  0  0  0  0  0  0  0
   59.2560   32.8410   50.5290 O   0  0  0  0  0  0  0  0  0  0  0  0
   59.6520   34.9710   49.3850 O   0  0  0  0  0  0  0  0  0  0  0  0
   61.5060   33.0900   49.1330 N   0  0  0  0  0  0  0  0  0  0  0  0
   62.0030   33.4390   47.7880 C   0  0  0  0  0  0  0  0  0  0  0  0
   63.3360   32.7300   47.4550 C   0  0  0  0  0  0  0  0  0  0  0  0
   64.0460   32.2570   48.6590 N   0  0  0  0  0  0  0  0  0  0  0  0
   64.6130   33.3690   49.4420 C   0  0  0  0  0  0  0  0  0  0  0  0
   63.2150   31.3540   49.4910 C   0  0  0  0  0  0  0  0  0  0  0  0
   61.7110   31.6610   49.4000 C   0  0  0  0  0  0  0  0  0  0  0  0
   58.1420   33.8300   47.1210 C   0  0  0  0  0  0  0  0  0  0  0  0
   57.4070   33.3810   46.0200 C   0  0  0  0  0  0  0  0  0  0  0  0
   57.4760   27.0440   44.4380 C   0  0  0  0  0  0  0  0  0  0  0  0
   58.1000   26.1280   45.3150 C   0  0  0  0  0  0  0  0  0  0  0  0
   57.5960   24.9080   45.6000 C   0  0  0  0  0  0  0  0  0  0  0  0
   56.1630   24.5680   45.5170 C   0  0  0  0  0  0  0  0  0  0  0  0
   55.6860   23.3240   45.3240 N   0  0  0  0  0  0  0  0  0  0  0  0
   54.3490   23.4840   45.4240 C   0  0  0  0  0  0  0  0  0  0  0  0
   53.5410   22.5230   45.3050 O   0  0  0  0  0  0  0  0  0  0  0  0
   53.9450   24.7460   45.6830 N   0  0  0  0  0  0  0  0  0  0  0  0
   55.1060   25.4200   45.7510 C   0  0  0  0  0  0  0  0  0  0  0  0
   55.1860   26.7870   46.0030 O   0  0  0  0  0  0  0  0  0  0  0  0
  1  2  2  0
  2  3  1  0
  3  4  1  0
  4  5  1  0
  5  6  1  0
  6  7  2  0
  6  8  1  0
  8  9  1  0
  9 10  2  0
 10 11  1  0
 11 12  2  0
 12 13  1  0
 13 14  2  0
 13 15  2  0
 13 16  1  0
 16 17  1  0
 17 18  1  0
 18 19  1  0
 19 20  1  0
 19 21  1  0
 21 22  1  0
 12 23  1  0
 23 24  2  0
  4 25  2  0
 25 26  1  0
 26 27  2  3
 27 28  1  0
 28 29  1  0
 29 30  1  0
 30 31  2  0
 30 32  1  0
 32 33  1  0
 33 34  1  0
 26  2  1  0
 33 28  2  0
 24  9  1  0
 22 16  1  0
M  CHG  3   8  -1  29  -1  32  -1
M  END
>  <UniqueID>  (3309) 
15

>  <SMILES>  (3309) 
C=c1sc(CC(=O)[N-]c2ccc(S(=O)(=O)N3CCN(C)CC3)cc2)cc1=Cc1[n-]c(=O)[n-]c1O

>  <Energy>  (3309) 
136.04581284251873

>  <Genealogy>  (3309) 
C=c1sc(CC(=O)[N-]c2ccc(S(=O)(=O)N3CCN(C)CC3)cc2)cc1=Cc1[n-]c(=O)[n-]c1O (protonated)
C=c1sc(CC(=O)[N-]c2ccc(S(=O)(=O)N3CCN(C)CC3)cc2)cc1=Cc1[n-]c(=O)[n-]c1O (3D coordinates assigned)
C=c1sc(CC(=O)[N-]c2ccc(S(=O)(=O)N3CCN(C)CC3)cc2)cc1=Cc1[n-]c(=O)[n-]c1O (nonaromatic ring conformer: 136.04581284251873 kcal/mol)

>  <smiles>  (3309) 
C=c1sc(CC(=O)Nc2ccc(S(=O)(=O)N3CCN(C)CC3)cc2)cc1=Cc1[nH]c(=O)[nH]c1O

>  <score_type>  (3309) 
oracle

>  <origin>  (3309) 
adg

>  <m_score__min__energy>  (3309) 
-16.359999999999999

>  <m_primary>  (3309) 
energy

$$$$
18:0
     RDKit          3D

 36 40  0  0  0  0  0  0  0  0999 V2000
   58.0010   27.8660   44.1310 C   0  0  0  0  0  0  0  0  0  0  0  0
   58.2340   27.2560   45.3040 C   0  0  0  0  0  0  0  0  0  0  0  0
   57.9930   25.9080   45.6140 C   0  0  0  0  0  0  0  0  0  0  0  0
   57.2680   24.9710   44.9730 C   0  0  0  0  0  0  0  0  0  0  0  0
   55.8390   24.6890   45.2000 C   0  0  0  0  0  0  0  0  0  0  0  0
   55.2170   23.5450   44.8580 N   0  0  0  0  0  0  0  0  0  0  0  0
   53.9180   23.8050   45.1180 C   0  0  0  0  0  0  0  0  0  0  0  0
   53.0070   22.9560   44.9390 O   0  0  0  0  0  0  0  0  0  0  0  0
   53.6710   25.0510   45.5760 N   0  0  0  0  0  0  0  0  0  0  0  0
   54.8950   25.6000   45.6050 C   0  0  0  0  0  0  0  0  0  0  0  0
   55.1450   26.9110   45.9860 O   0  0  0  0  0  0  0  0  0  0  0  0
   58.6450   25.6640   46.8110 C   0  0  0  0  0  0  0  0  0  0  0  0
   59.1760   26.8660   47.2300 C   0  0  0  0  0  0  0  0  0  0  0  0
   59.9350   27.0580   48.5080 C   0  0  0  0  0  0  0  0  0  0  0  0
   58.9280   27.8350   46.3190 N   0  0  0  0  0  0  0  0  0  0  0  0
   59.3090   29.2190   46.4370 C   0  0  0  0  0  0  0  0  0  0  0  0
   58.4210   30.2370   46.0660 C   0  0  0  0  0  0  0  0  0  0  0  0
   58.8210   31.5750   46.1220 C   0  0  0  0  0  0  0  0  0  0  0  0
   60.1190   31.9120   46.5360 C   0  0  0  0  0  0  0  0  0  0  0  0
   60.5200   33.3370   46.5630 C   0  0  0  0  0  0  0  0  0  0  0  0
   59.9670   34.1190   45.7400 O   0  0  0  0  0  0  0  0  0  0  0  0
   61.5340   33.8650   47.4620 N   0  0  2  0  0  0  0  0  0  0  0  0
   62.9290   33.4920   47.0870 C   0  0  0  0  0  0  0  0  0  0  0  0
   63.5250   32.3720   47.9650 C   0  0  0  0  0  0  0  0  0  0  0  0
   63.4770   32.6830   49.4960 C   0  0  1  0  0  0  0  0  0  0  0  0
   64.8340   33.0440   50.0230 N   0  0  0  0  0  0  0  0  0  0  0  0
   65.6740   31.8210   50.2010 C   0  0  0  0  0  0  0  0  0  0  0  0
   66.7770   31.9710   51.2700 C   0  0  0  0  0  0  0  0  0  0  0  0
   67.2690   33.3550   51.3620 N   0  0  0  0  0  0  0  0  0  0  0  0
   68.0150   33.7480   50.1550 C   0  0  0  0  0  0  0  0  0  0  0  0
   66.1830   34.3090   51.6830 C   0  0  0  0  0  0  0  0  0  0  0  0
   64.7800   33.8030   51.2940 C   0  0  0  0  0  0  0  0  0  0  0  0
   62.3960   33.7590   49.7900 C   0  0  0  0  0  0  0  0  0  0  0  0
   61.1830   33.5800   48.8730 C   0  0  0  0  0  0  0  0  0  0  0  0
   60.9880   30.8940   46.9590 C   0  0  0  0  0  0  0  0  0  0  0  0
   60.5910   29.5560   46.8930 C   0  0  0  0  0  0  0  0  0  0  0  0
  1  2  2  0
  2  3  1  0
  3  4  2  0
  4  5  1  0
  5  6  1  0
  6  7  1  0
  7  8  2  0
  7  9  1  0
  9 10  1  0
 10 11  1  0
  3 12  1  0
 12 13  2  0
 13 14  1  0
 13 15  1  0
 15 16  1  0
 16 17  2  0
 17 18  1  0
 18 19  2  0
 19 20  1  0
 20 21  2  0
 22 20  1  6
 22 23  1  0
 23 24  1  0
 24 25  1  0
 25 26  1  6
 26 27  1  0
 27 28  1  0
 28 29  1  0
 29 30  1  0
 29 31  1  0
 31 32  1  0
 25 33  1  0
 33 34  1  0
 19 35  1  0
 35 36  2  0
 15  2  1  0
 36 16  1  0
 10  5  2  0
 34 22  1  0
 32 26  1  0
M  CHG  4   6  -1   9  -1  11  -1  22   1
M  END
>  <UniqueID>  (3310) 
18

>  <SMILES>  (3310) 
C=c1/c(=C\c2[n-]c(=O)[n-]c2[O-])cc(C)n1-c1ccc(C(=O)[NH+]2CCC(N3CCN(C)CC3)CC2)cc1

>  <Energy>  (3310) 
184.08094685221837

>  <Genealogy>  (3310) 
C=c1c(=Cc2[n-]c(=O)[n-]c2[O-])cc(C)n1-c1ccc(C(=O)[NH+]2CCC(N3CCN(C)CC3)CC2)cc1 (protonated)
C=c1/c(=C\c2[n-]c(=O)[n-]c2[O-])cc(C)n1-c1ccc(C(=O)[NH+]2CCC(N3CCN(C)CC3)CC2)cc1 (cis-trans isomerization)
C=c1/c(=C\c2[n-]c(=O)[n-]c2[O-])cc(C)n1-c1ccc(C(=O)[NH+]2CCC(N3CCN(C)CC3)CC2)cc1 (3D coordinates assigned)
C=c1/c(=C\c2[n-]c(=O)[n-]c2[O-])cc(C)n1-c1ccc(C(=O)[NH+]2CCC(N3CCN(C)CC3)CC2)cc1 (nonaromatic ring conformer: 184.08094685221837 kcal/mol)

>  <smiles>  (3310) 
C=c1c(=Cc2[nH]c(=O)[nH]c2O)cc(C)n1-c1ccc(C(=O)N2CCC(N3CCN(C)CC3)CC2)cc1

>  <score_type>  (3310) 
oracle

>  <origin>  (3310) 
adg

>  <m_score__min__energy>  (3310) 
-15.779999999999999

>  <m_primary>  (3310) 
energy

$$$$
31:0
     RDKit          3D

 29 31  0  0  0  0  0  0  0  0999 V2000
   61.0580   30.0870   49.6170 C   0  0  0  0  0  0  0  0  0  0  0  0
   59.7820   30.3560   48.9310 N   0  0  0  0  0  0  0  0  0  0  0  0
   58.8780   31.0800   49.8450 C   0  0  0  0  0  0  0  0  0  0  0  0
   59.1700   29.0900   48.4740 C   0  0  0  0  0  0  0  0  0  0  0  0
   60.2460   28.0250   48.2320 C   0  0  0  0  0  0  0  0  0  0  0  0
   60.2130   27.5830   46.8410 N   0  0  0  0  0  0  0  0  0  0  0  0
   59.7020   28.3630   45.7510 C   0  0  0  0  0  0  0  0  0  0  0  0
   60.5080   28.8690   44.9270 O   0  0  0  0  0  0  0  0  0  0  0  0
   58.2550   28.5660   45.5520 C   0  0  0  0  0  0  0  0  0  0  0  0
   57.3700   27.5170   45.8320 C   0  0  0  0  0  0  0  0  0  0  0  0
   56.0030   27.6940   45.6160 C   0  0  0  0  0  0  0  0  0  0  0  0
   55.1140   26.6650   45.8980 O   0  0  0  0  0  0  0  0  0  0  0  0
   55.5400   28.8720   45.1230 N   0  0  0  0  0  0  0  0  0  0  0  0
   56.3700   29.9150   44.8510 C   0  0  0  0  0  0  0  0  0  0  0  0
   55.8890   30.9720   44.3640 O   0  0  0  0  0  0  0  0  0  0  0  0
   57.7540   29.7970   45.0930 C   0  0  0  0  0  0  0  0  0  0  0  0
   58.6560   30.9020   44.9130 N   0  0  0  0  0  0  0  0  0  0  0  0
   58.4700   32.2180   45.4540 C   0  0  0  0  0  0  0  0  0  0  0  0
   57.4820   32.9180   45.0930 O   0  0  0  0  0  0  0  0  0  0  0  0
   59.3940   32.7380   46.4890 C   0  0  0  0  0  0  0  0  0  0  0  0
   58.9650   33.7140   47.4080 C   0  0  0  0  0  0  0  0  0  0  0  0
   59.8460   34.2210   48.3700 C   0  0  0  0  0  0  0  0  0  0  0  0
   61.1740   33.7760   48.4180 C   0  0  0  0  0  0  0  0  0  0  0  0
   62.0720   34.2960   49.3650 C   0  0  0  0  0  0  0  0  0  0  0  0
   63.4000   33.8540   49.3890 C   0  0  0  0  0  0  0  0  0  0  0  0
   63.8380   32.8920   48.4760 C   0  0  0  0  0  0  0  0  0  0  0  0
   62.9510   32.3590   47.5350 C   0  0  0  0  0  0  0  0  0  0  0  0
   61.6160   32.7960   47.4970 C   0  0  0  0  0  0  0  0  0  0  0  0
   60.7220   32.2780   46.5490 C   0  0  0  0  0  0  0  0  0  0  0  0
  1  2  1  0
  2  3  1  0
  2  4  1  0
  4  5  1  0
  5  6  1  0
  6  7  1  0
  7  8  2  0
  7  9  1  0
  9 10  1  0
 10 11  2  0
 11 12  1  0
 11 13  1  0
 13 14  1  0
 14 15  2  0
 14 16  1  0
 16 17  1  0
 17 18  1  0
 18 19  2  0
 18 20  1  0
 20 21  2  0
 21 22  1  0
 22 23  2  0
 23 24  1  0
 24 25  2  0
 25 26  1  0
 26 27  2  0
 27 28  1  0
 28 29  2  0
 16  9  2  0
 29 20  1  0
 28 23  1  0
M  CHG  4   6  -1  12  -1  13  -1  17  -1
M  END
>  <UniqueID>  (3311) 
30

>  <SMILES>  (3311) 
CN(C)CC[N-]C(=O)c1cc([O-])[n-]c(=O)c1[N-]C(=O)c1ccc2ccccc2c1

>  <Energy>  (3311) 
63.62889704713933

>  <Genealogy>  (3311) 
CN(C)CC[N-]C(=O)c1cc([O-])[n-]c(=O)c1[N-]C(=O)c1ccc2ccccc2c1 (protonated)
CN(C)CC[N-]C(=O)c1cc([O-])[n-]c(=O)c1[N-]C(=O)c1ccc2ccccc2c1 (3D coordinates assigned)
CN(C)CC[N-]C(=O)c1cc([O-])[n-]c(=O)c1[N-]C(=O)c1ccc2ccccc2c1 (optimized conformer: 63.62889704713933 kcal/mol)

>  <smiles>  (3311) 
CN(C)CCNC(=O)c1cc(O)[nH]c(=O)c1NC(=O)c1ccc2ccccc2c1

>  <score_type>  (3311) 
oracle

>  <origin>  (3311) 
adg

>  <m_score__min__energy>  (3311) 
-15.34

>  <m_primary>  (3311) 
energy

$$$$
32:0
     RDKit          3D

 26 28  0  0  0  0  0  0  0  0999 V2000
   55.5680   29.7660   43.0480 O   0  0  0  0  0  0  0  0  0  0  0  0
   56.2360   30.0070   44.0880 C   0  0  0  0  0  0  0  0  0  0  0  0
   56.0540   29.1650   45.2340 N   0  0  0  0  0  0  0  0  0  0  0  0
   56.7950   27.9720   45.5300 C   0  0  0  0  0  0  0  0  0  0  0  0
   58.1950   28.0270   45.4940 C   0  0  0  0  0  0  0  0  0  0  0  0
   58.9550   26.8870   45.7700 C   0  0  0  0  0  0  0  0  0  0  0  0
   58.3230   25.6870   46.1010 C   0  0  0  0  0  0  0  0  0  0  0  0
   56.9280   25.6300   46.1730 C   0  0  0  0  0  0  0  0  0  0  0  0
   56.1610   26.7700   45.9040 C   0  0  0  0  0  0  0  0  0  0  0  0
   54.7800   26.7020   46.0470 O   0  0  0  0  0  0  0  0  0  0  0  0
   57.1520   31.1750   44.1120 C   0  0  0  0  0  0  0  0  0  0  0  0
   57.3990   31.9250   42.9530 C   0  0  0  0  0  0  0  0  0  0  0  0
   56.8240   31.5750   41.7370 O   0  0  0  0  0  0  0  0  0  0  0  0
   58.2290   32.9940   43.0050 N   0  0  0  0  0  0  0  0  0  0  0  0
   58.8460   33.3610   44.1540 C   0  0  0  0  0  0  0  0  0  0  0  0
   59.5960   34.3760   44.1490 O   0  0  0  0  0  0  0  0  0  0  0  0
   58.6510   32.6410   45.3040 N   0  0  0  0  0  0  0  0  0  0  0  0
   59.3120   33.0350   46.5230 C   0  0  0  0  0  0  0  0  0  0  0  0
   60.3420   32.2440   47.0600 C   0  0  0  0  0  0  0  0  0  0  0  0
   60.9820   32.6270   48.2420 C   0  0  0  0  0  0  0  0  0  0  0  0
   60.5990   33.8010   48.8970 C   0  0  0  0  0  0  0  0  0  0  0  0
   61.2210   34.1720   50.0430 F   0  0  0  0  0  0  0  0  0  0  0  0
   59.5760   34.5940   48.3680 C   0  0  0  0  0  0  0  0  0  0  0  0
   58.9330   34.2140   47.1860 C   0  0  0  0  0  0  0  0  0  0  0  0
   57.8180   31.5510   45.2940 C   0  0  0  0  0  0  0  0  0  0  0  0
   57.6380   30.8810   46.3510 O   0  0  0  0  0  0  0  0  0  0  0  0
  1  2  2  0
  2  3  1  0
  3  4  1  0
  4  5  2  0
  5  6  1  0
  6  7  2  0
  7  8  1  0
  8  9  2  0
  9 10  1  0
  2 11  1  0
 11 12  2  0
 12 13  1  0
 12 14  1  0
 14 15  1  0
 15 16  2  0
 15 17  1  0
 17 18  1  0
 18 19  2  0
 19 20  1  0
 20 21  2  0
 21 22  1  0
 21 23  1  0
 23 24  2  0
 17 25  1  0
 25 26  2  0
  9  4  1  0
 25 11  1  0
 24 18  1  0
M  CHG  4   3  -1  10  -1  13  -1  14  -1
M  END
>  <UniqueID>  (3312) 
31

>  <SMILES>  (3312) 
O=C([N-]c1ccccc1[O-])c1c([O-])[n-]c(=O)n(-c2ccc(F)cc2)c1=O

>  <Energy>  (3312) 
59.94402113203756

>  <Genealogy>  (3312) 
O=C([N-]c1ccccc1[O-])c1c([O-])[n-]c(=O)n(-c2ccc(F)cc2)c1=O (protonated)
O=C([N-]c1ccccc1[O-])c1c([O-])[n-]c(=O)n(-c2ccc(F)cc2)c1=O (3D coordinates assigned)
O=C([N-]c1ccccc1[O-])c1c([O-])[n-]c(=O)n(-c2ccc(F)cc2)c1=O (optimized conformer: 59.94402113203756 kcal/mol)

>  <smiles>  (3312) 
O=C(Nc1ccccc1O)c1c(O)[nH]c(=O)n(-c2ccc(F)cc2)c1=O

>  <score_type>  (3312) 
oracle

>  <origin>  (3312) 
adg

>  <m_score__min__energy>  (3312) 
-16.010000000000002

>  <m_primary>  (3312) 
energy

$$$$
43:0
     RDKit          3D

 31 34  0  0  0  0  0  0  0  0999 V2000
   59.3970   30.3780   47.2950 C   0  0  0  0  0  0  0  0  0  0  0  0
   58.8720   30.3370   46.0590 C   0  0  0  0  0  0  0  0  0  0  0  0
   58.3840   29.2030   45.4040 C   0  0  0  0  0  0  0  0  0  0  0  0
   58.4120   27.9280   45.8500 C   0  0  0  0  0  0  0  0  0  0  0  0
   57.2210   27.0750   46.0480 C   0  0  0  0  0  0  0  0  0  0  0  0
   57.2360   25.7960   46.4790 N   0  0  0  0  0  0  0  0  0  0  0  0
   55.9430   25.4180   46.3840 C   0  0  0  0  0  0  0  0  0  0  0  0
   55.5520   24.2620   46.7010 O   0  0  0  0  0  0  0  0  0  0  0  0
   55.1100   26.3660   45.8970 N   0  0  0  0  0  0  0  0  0  0  0  0
   55.9350   27.4030   45.6790 C   0  0  0  0  0  0  0  0  0  0  0  0
   55.5220   28.6230   45.1470 O   0  0  0  0  0  0  0  0  0  0  0  0
   57.8740   29.6490   44.1900 C   0  0  0  0  0  0  0  0  0  0  0  0
   58.0540   31.0180   44.1600 C   0  0  0  0  0  0  0  0  0  0  0  0
   57.6490   31.8940   43.0160 C   0  0  0  0  0  0  0  0  0  0  0  0
   58.6820   31.4340   45.2810 N   0  0  0  0  0  0  0  0  0  0  0  0
   59.0120   32.7920   45.6170 C   0  0  0  0  0  0  0  0  0  0  0  0
   58.5790   33.7290   44.9010 O   0  0  0  0  0  0  0  0  0  0  0  0
   59.7660   33.0890   46.8010 N   0  0  0  0  0  0  0  0  0  0  0  0
   59.0420   33.1570   48.0660 C   0  0  0  0  0  0  0  0  0  0  0  0
   59.8100   34.0190   49.0680 C   0  0  0  0  0  0  0  0  0  0  0  0
   61.2170   33.5950   49.1520 N   0  0  0  0  0  0  0  0  0  0  0  0
   61.8980   33.6010   50.4310 C   0  0  0  0  0  0  0  0  0  0  0  0
   61.2340   33.6580   51.5050 O   0  0  0  0  0  0  0  0  0  0  0  0
   63.3740   33.5720   50.5300 C   0  0  0  0  0  0  0  0  0  0  0  0
   64.1120   32.7240   49.6900 C   0  0  0  0  0  0  0  0  0  0  0  0
   65.5020   32.6820   49.8120 C   0  0  0  0  0  0  0  0  0  0  0  0
   66.1370   33.4660   50.7790 C   0  0  0  0  0  0  0  0  0  0  0  0
   65.3710   34.2870   51.6110 C   0  0  0  0  0  0  0  0  0  0  0  0
   64.0170   34.3230   51.4760 N   0  0  0  0  0  0  0  0  0  0  0  0
   61.9570   33.4680   47.8870 C   0  0  0  0  0  0  0  0  0  0  0  0
   61.1650   32.6620   46.8540 C   0  0  0  0  0  0  0  0  0  0  0  0
  1  2  2  0
  2  3  1  0
  3  4  2  0
  4  5  1  0
  5  6  1  0
  6  7  1  0
  7  8  2  0
  7  9  1  0
  9 10  1  0
 10 11  1  0
  3 12  1  0
 12 13  2  0
 13 14  1  0
 13 15  1  0
 15 16  1  0
 16 17  2  0
 16 18  1  0
 18 19  1  0
 19 20  1  0
 20 21  1  0
 21 22  1  0
 22 23  2  0
 22 24  1  0
 24 25  2  0
 25 26  1  0
 26 27  2  0
 27 28  1  0
 28 29  2  0
 21 30  1  0
 30 31  1  0
 15  2  1  0
 31 18  1  0
 10  5  2  0
 29 24  1  0
M  CHG  4   6  -1   9  -1  11  -1  29   1
M  END
>  <UniqueID>  (3313) 
40

>  <SMILES>  (3313) 
C=c1/c(=C/c2[n-]c(=O)[n-]c2[O-])cc(C)n1C(=O)N1CCN(C(=O)c2cccc[nH+]2)CC1

>  <Energy>  (3313) 
135.88589090054083

>  <Genealogy>  (3313) 
C=c1c(=Cc2[n-]c(=O)[n-]c2[O-])cc(C)n1C(=O)N1CCN(C(=O)c2cccc[nH+]2)CC1 (protonated)
C=c1/c(=C/c2[n-]c(=O)[n-]c2[O-])cc(C)n1C(=O)N1CCN(C(=O)c2cccc[nH+]2)CC1 (cis-trans isomerization)
C=c1/c(=C/c2[n-]c(=O)[n-]c2[O-])cc(C)n1C(=O)N1CCN(C(=O)c2cccc[nH+]2)CC1 (3D coordinates assigned)
C=c1/c(=C/c2[n-]c(=O)[n-]c2[O-])cc(C)n1C(=O)N1CCN(C(=O)c2cccc[nH+]2)CC1 (nonaromatic ring conformer: 135.88589090054083 kcal/mol)

>  <smiles>  (3313) 
C=c1c(=Cc2[nH]c(=O)[nH]c2O)cc(C)n1C(=O)N1CCN(C(=O)c2ccccn2)CC1

>  <score_type>  (3313) 
oracle

>  <origin>  (3313) 
adg

>  <m_score__min__energy>  (3313) 
-15.16

>  <m_primary>  (3313) 
energy

$$$$
52:0
     RDKit          3D

 34 37  0  0  0  0  0  0  0  0999 V2000
   59.1570   22.1590   44.3790 C   0  0  0  0  0  0  0  0  0  0  0  0
   58.3040   22.8570   45.1360 C   0  0  0  0  0  0  0  0  0  0  0  0
   58.6760   24.0960   45.5530 N   0  0  0  0  0  0  0  0  0  0  0  0
   57.9110   24.8540   46.3860 C   0  0  0  0  0  0  0  0  0  0  0  0
   58.3260   26.0810   46.7510 C   0  0  0  0  0  0  0  0  0  0  0  0
   58.0710   27.2890   45.9410 C   0  0  0  0  0  0  0  0  0  0  0  0
   59.1410   27.9830   45.4870 N   0  0  0  0  0  0  0  0  0  0  0  0
   59.0050   29.1240   44.7660 C   0  0  0  0  0  0  0  0  0  0  0  0
   60.0430   29.7250   44.3810 O   0  0  0  0  0  0  0  0  0  0  0  0
   57.7570   29.6130   44.4690 N   0  0  0  0  0  0  0  0  0  0  0  0
   57.6190   30.8870   43.7360 C   0  0  0  0  0  0  0  0  0  0  0  0
   57.9460   32.0500   44.6370 C   0  0  0  0  0  0  0  0  0  0  0  0
   58.3780   33.2710   44.0920 C   0  0  0  0  0  0  0  0  0  0  0  0
   58.6460   34.3610   44.9260 C   0  0  0  0  0  0  0  0  0  0  0  0
   58.4850   34.2400   46.3100 C   0  0  0  0  0  0  0  0  0  0  0  0
   58.0550   33.0300   46.8600 C   0  0  0  0  0  0  0  0  0  0  0  0
   57.7830   31.9390   46.0290 C   0  0  0  0  0  0  0  0  0  0  0  0
   56.6450   28.9260   44.8890 C   0  0  0  0  0  0  0  0  0  0  0  0
   55.4900   29.3520   44.6080 O   0  0  0  0  0  0  0  0  0  0  0  0
   56.7750   27.7350   45.6240 C   0  0  0  0  0  0  0  0  0  0  0  0
   55.6090   26.9790   45.9930 N   0  0  0  0  0  0  0  0  0  0  0  0
   56.6880   24.3210   46.8380 C   0  0  0  0  0  0  0  0  0  0  0  0
   55.9420   24.9620   47.6260 O   0  0  0  0  0  0  0  0  0  0  0  0
   56.3000   23.0910   46.4140 N   0  0  0  0  0  0  0  0  0  0  0  0
   57.0510   22.3480   45.5580 C   0  0  0  0  0  0  0  0  0  0  0  0
   56.5090   21.0410   45.1270 C   0  0  0  0  0  0  0  0  0  0  0  0
   55.2690   20.6100   45.4050 C   0  0  0  0  0  0  0  0  0  0  0  0
   54.4870   21.0180   46.5920 C   0  0  0  0  0  0  0  0  0  0  0  0
   54.9350   20.6250   47.8640 C   0  0  0  0  0  0  0  0  0  0  0  0
   54.2160   20.9810   49.0080 C   0  0  0  0  0  0  0  0  0  0  0  0
   53.0550   21.7480   48.8940 C   0  0  0  0  0  0  0  0  0  0  0  0
   52.6190   22.1760   47.6380 C   0  0  0  0  0  0  0  0  0  0  0  0
   53.3370   21.8280   46.4880 C   0  0  0  0  0  0  0  0  0  0  0  0
   52.9150   22.3130   45.2540 O   0  0  0  0  0  0  0  0  0  0  0  0
  1  2  2  0
  2  3  1  0
  3  4  1  0
  4  5  2  3
  5  6  1  0
  6  7  1  0
  7  8  1  0
  8  9  2  0
  8 10  1  0
 10 11  1  0
 11 12  1  0
 12 13  2  0
 13 14  1  0
 14 15  2  0
 15 16  1  0
 16 17  2  0
 10 18  1  0
 18 19  2  0
 18 20  1  0
 20 21  1  0
  4 22  1  0
 22 23  2  0
 22 24  1  0
 24 25  2  0
 25 26  1  0
 26 27  2  3
 27 28  1  0
 28 29  2  0
 29 30  1  0
 30 31  2  0
 31 32  1  0
 32 33  2  0
 33 34  1  0
 25  2  1  0
 33 28  1  0
 20  6  2  0
 17 12  1  0
M  CHG  3   3  -1   7  -1  34  -1
M  END
>  <UniqueID>  (3314) 
49

>  <SMILES>  (3314) 
C=c1[n-]c(=Cc2[n-]c(=O)n(Cc3ccccc3)c(=O)c2N)c(=O)nc1C=Cc1ccccc1[O-]

>  <Energy>  (3314) 
86.51839401886384

>  <Genealogy>  (3314) 
C=c1[n-]c(=Cc2[n-]c(=O)n(Cc3ccccc3)c(=O)c2N)c(=O)nc1C=Cc1ccccc1[O-] (protonated)
C=c1[n-]c(=Cc2[n-]c(=O)n(Cc3ccccc3)c(=O)c2N)c(=O)nc1C=Cc1ccccc1[O-] (3D coordinates assigned)
C=c1[n-]c(=Cc2[n-]c(=O)n(Cc3ccccc3)c(=O)c2N)c(=O)nc1C=Cc1ccccc1[O-] (optimized conformer: 86.51839401886384 kcal/mol)

>  <smiles>  (3314) 
C=c1[nH]c(=Cc2[nH]c(=O)n(Cc3ccccc3)c(=O)c2N)c(=O)nc1C=Cc1ccccc1O

>  <score_type>  (3314) 
oracle

>  <origin>  (3314) 
adg

>  <m_score__min__energy>  (3314) 
-15.109999999999999

>  <m_primary>  (3314) 
energy

$$$$
54:0
     RDKit          3D

 37 41  0  0  0  0  0  0  0  0999 V2000
   58.8940   29.8680   48.1090 C   0  0  0  0  0  0  0  0  0  0  0  0
   58.4150   29.5970   46.8850 C   0  0  0  0  0  0  0  0  0  0  0  0
   57.7850   28.4180   46.4580 C   0  0  0  0  0  0  0  0  0  0  0  0
   57.6720   27.2110   47.0460 C   0  0  0  0  0  0  0  0  0  0  0  0
   57.1640   25.9880   46.4040 C   0  0  0  0  0  0  0  0  0  0  0  0
   57.9340   24.9450   46.0190 N   0  0  0  0  0  0  0  0  0  0  0  0
   57.0790   24.1470   45.3420 C   0  0  0  0  0  0  0  0  0  0  0  0
   57.4340   23.0620   44.8100 O   0  0  0  0  0  0  0  0  0  0  0  0
   55.8230   24.6350   45.2720 N   0  0  0  0  0  0  0  0  0  0  0  0
   54.6990   24.1000   44.5130 C   0  0  0  0  0  0  0  0  0  0  0  0
   55.8890   25.8130   45.9120 C   0  0  0  0  0  0  0  0  0  0  0  0
   54.8360   26.7130   46.0230 O   0  0  0  0  0  0  0  0  0  0  0  0
   57.2600   28.6910   45.2030 C   0  0  0  0  0  0  0  0  0  0  0  0
   57.6360   29.9790   44.8850 C   0  0  0  0  0  0  0  0  0  0  0  0
   57.2860   30.6890   43.6130 C   0  0  0  0  0  0  0  0  0  0  0  0
   58.3490   30.5220   45.8940 N   0  0  0  0  0  0  0  0  0  0  0  0
   58.8060   31.8830   45.9440 C   0  0  0  0  0  0  0  0  0  0  0  0
   60.1280   32.1590   46.3130 C   0  0  0  0  0  0  0  0  0  0  0  0
   60.5810   33.4850   46.4060 C   0  0  0  0  0  0  0  0  0  0  0  0
   61.9710   33.7700   46.8250 C   0  0  0  0  0  0  0  0  0  0  0  0
   62.7810   34.2690   45.9970 O   0  0  0  0  0  0  0  0  0  0  0  0
   62.4150   33.4770   48.1610 N   0  0  0  0  0  0  0  0  0  0  0  0
   63.7120   32.8820   48.4200 C   0  0  0  0  0  0  0  0  0  0  0  0
   63.5080   31.5790   49.1810 C   0  0  0  0  0  0  0  0  0  0  0  0
   62.4590   31.6390   50.2280 N   0  0  0  0  0  0  0  0  0  0  0  0
   62.2910   30.4850   51.1120 C   0  0  0  0  0  0  0  0  0  0  0  0
   61.2550   29.5400   50.9020 C   0  0  0  0  0  0  0  0  0  0  0  0
   61.1020   28.4390   51.7490 C   0  0  0  0  0  0  0  0  0  0  0  0
   61.9720   28.2490   52.8200 C   0  0  0  0  0  0  0  0  0  0  0  0
   63.0020   29.1590   53.0480 C   0  0  0  0  0  0  0  0  0  0  0  0
   63.1640   30.2640   52.2070 C   0  0  0  0  0  0  0  0  0  0  0  0
   61.4790   32.7540   50.3270 C   0  0  0  0  0  0  0  0  0  0  0  0
   61.6710   33.9110   49.3330 C   0  0  0  0  0  0  0  0  0  0  0  0
   59.7010   34.5330   46.0840 C   0  0  0  0  0  0  0  0  0  0  0  0
   58.3820   34.2570   45.7100 C   0  0  0  0  0  0  0  0  0  0  0  0
   57.9300   32.9350   45.6470 C   0  0  0  0  0  0  0  0  0  0  0  0
   56.6480   32.6780   45.2870 F   0  0  0  0  0  0  0  0  0  0  0  0
  1  2  2  0
  2  3  1  0
  3  4  2  3
  4  5  1  0
  5  6  1  0
  6  7  1  0
  7  8  2  0
  7  9  1  0
  9 10  1  0
  9 11  1  0
 11 12  1  0
  3 13  1  0
 13 14  2  0
 14 15  1  0
 14 16  1  0
 16 17  1  0
 17 18  2  0
 18 19  1  0
 19 20  1  0
 20 21  2  0
 20 22  1  0
 22 23  1  0
 23 24  1  0
 24 25  1  0
 25 26  1  0
 26 27  2  0
 27 28  1  0
 28 29  2  0
 29 30  1  0
 30 31  2  0
 25 32  1  0
 32 33  1  0
 19 34  2  0
 34 35  1  0
 35 36  2  0
 36 37  1  0
 16  2  1  0
 36 17  1  0
 11  5  2  0
 33 22  1  0
 31 26  1  0
M  CHG  2   6  -1  12  -1
M  END
>  <UniqueID>  (3315) 
51

>  <SMILES>  (3315) 
C=c1c(=Cc2[n-]c(=O)n(C)c2[O-])cc(C)n1-c1cc(C(=O)N2CCN(c3ccccc3)CC2)ccc1F

>  <Energy>  (3315) 
158.52559198166617

>  <Genealogy>  (3315) 
C=c1c(=Cc2[n-]c(=O)n(C)c2[O-])cc(C)n1-c1cc(C(=O)N2CCN(c3ccccc3)CC2)ccc1F (protonated)
C=c1c(=Cc2[n-]c(=O)n(C)c2[O-])cc(C)n1-c1cc(C(=O)N2CCN(c3ccccc3)CC2)ccc1F (3D coordinates assigned)
C=c1c(=Cc2[n-]c(=O)n(C)c2[O-])cc(C)n1-c1cc(C(=O)N2CCN(c3ccccc3)CC2)ccc1F (nonaromatic ring conformer: 158.52559198166617 kcal/mol)

>  <smiles>  (3315) 
C=c1c(=Cc2[nH]c(=O)n(C)c2O)cc(C)n1-c1cc(C(=O)N2CCN(c3ccccc3)CC2)ccc1F

>  <score_type>  (3315) 
oracle

>  <origin>  (3315) 
adg

>  <m_score__min__energy>  (3315) 
-14.85

>  <m_primary>  (3315) 
energy

$$$$
73:0
     RDKit          3D

 30 33  0  0  0  0  0  0  0  0999 V2000
   55.4920   27.0670   45.8680 O   0  0  0  0  0  0  0  0  0  0  0  0
   56.3980   26.1580   46.4110 C   0  0  0  0  0  0  0  0  0  0  0  0
   56.0480   24.9320   46.8310 N   0  0  0  0  0  0  0  0  0  0  0  0
   57.2280   24.3920   47.2010 C   0  0  0  0  0  0  0  0  0  0  0  0
   57.3250   23.2220   47.6530 O   0  0  0  0  0  0  0  0  0  0  0  0
   58.2970   25.2020   47.0400 N   0  0  0  0  0  0  0  0  0  0  0  0
   57.7600   26.3360   46.5560 C   0  0  0  0  0  0  0  0  0  0  0  0
   58.5640   27.5120   46.1840 C   0  0  0  0  0  0  0  0  0  0  0  0
   58.7810   28.5560   47.0070 C   0  0  0  0  0  0  0  0  0  0  0  0
   58.3310   29.8550   46.8170 C   0  0  0  0  0  0  0  0  0  0  0  0
   58.7550   30.5850   47.9070 C   0  0  0  0  0  0  0  0  0  0  0  0
   58.4760   32.0230   48.0840 C   0  0  0  0  0  0  0  0  0  0  0  0
   58.0470   32.4150   49.2030 O   0  0  0  0  0  0  0  0  0  0  0  0
   58.6300   32.9980   46.9750 C   0  0  0  0  0  0  0  0  0  0  0  0
   59.5380   34.0670   47.0960 C   0  0  0  0  0  0  0  0  0  0  0  0
   59.6880   34.9890   46.0570 C   0  0  0  0  0  0  0  0  0  0  0  0
   58.9320   34.8610   44.8900 C   0  0  0  0  0  0  0  0  0  0  0  0
   58.0220   33.8100   44.7610 C   0  0  0  0  0  0  0  0  0  0  0  0
   57.8660   32.8840   45.7970 C   0  0  0  0  0  0  0  0  0  0  0  0
   59.4310   29.7950   48.7780 N   0  0  0  0  0  0  0  0  0  0  0  0
   59.9050   30.1720   50.1190 C   0  0  0  0  0  0  0  0  0  0  0  0
   60.6030   31.5060   50.0790 C   0  0  0  0  0  0  0  0  0  0  0  0
   60.2920   32.3800   50.9340 O   0  0  0  0  0  0  0  0  0  0  0  0
   61.5590   31.8310   49.0530 N   0  0  0  0  0  0  0  0  0  0  0  0
   61.9910   30.9170   48.0070 C   0  0  0  0  0  0  0  0  0  0  0  0
   63.0540   31.6680   47.2160 C   0  0  0  0  0  0  0  0  0  0  0  0
   62.9160   33.1360   47.6100 C   0  0  0  0  0  0  0  0  0  0  0  0
   62.1630   33.1460   48.9330 C   0  0  0  0  0  0  0  0  0  0  0  0
   59.4460   28.5480   48.2360 C   0  0  0  0  0  0  0  0  0  0  0  0
   60.0160   27.4810   48.8210 C   0  0  0  0  0  0  0  0  0  0  0  0
  1  2  1  0
  2  3  1  0
  3  4  1  0
  4  5  2  0
  4  6  1  0
  6  7  1  0
  7  8  1  0
  8  9  2  0
  9 10  1  0
 10 11  2  0
 11 12  1  0
 12 13  2  0
 12 14  1  0
 14 15  2  0
 15 16  1  0
 16 17  2  0
 17 18  1  0
 18 19  2  0
 11 20  1  0
 20 21  1  0
 21 22  1  0
 22 23  2  0
 22 24  1  0
 24 25  1  0
 25 26  1  0
 26 27  1  0
 27 28  1  0
 20 29  1  0
 29 30  2  0
  7  2  2  0
 29  9  1  0
 19 14  1  0
 28 24  1  0
M  CHG  2   3  -1   6  -1
M  END
>  <UniqueID>  (3316) 
70

>  <SMILES>  (3316) 
C=c1/c(=C/c2[n-]c(=O)[n-]c2O)cc(C(=O)c2ccccc2)n1CC(=O)N1CCCC1

>  <Energy>  (3316) 
123.81951551581427

>  <Genealogy>  (3316) 
C=c1c(=Cc2[n-]c(=O)[n-]c2O)cc(C(=O)c2ccccc2)n1CC(=O)N1CCCC1 (protonated)
C=c1/c(=C/c2[n-]c(=O)[n-]c2O)cc(C(=O)c2ccccc2)n1CC(=O)N1CCCC1 (cis-trans isomerization)
C=c1/c(=C/c2[n-]c(=O)[n-]c2O)cc(C(=O)c2ccccc2)n1CC(=O)N1CCCC1 (3D coordinates assigned)
C=c1/c(=C/c2[n-]c(=O)[n-]c2O)cc(C(=O)c2ccccc2)n1CC(=O)N1CCCC1 (nonaromatic ring conformer: 123.81951551581427 kcal/mol)

>  <smiles>  (3316) 
C=c1c(=Cc2[nH]c(=O)[nH]c2O)cc(C(=O)c2ccccc2)n1CC(=O)N1CCCC1

>  <score_type>  (3316) 
oracle

>  <origin>  (3316) 
adg

>  <m_score__min__energy>  (3316) 
-14.18

>  <m_primary>  (3316) 
energy

$$$$
74:0
     RDKit          3D

 27 29  0  0  0  0  0  0  0  0999 V2000
   60.3880   30.5950   46.8120 C   0  0  0  0  0  0  0  0  0  0  0  0
   59.2950   30.1700   46.1760 C   0  0  0  0  0  0  0  0  0  0  0  0
   59.0660   28.8560   45.9450 N   0  0  0  0  0  0  0  0  0  0  0  0
   57.8470   28.8230   45.3660 C   0  0  0  0  0  0  0  0  0  0  0  0
   57.2300   27.7100   44.9420 C   0  0  0  0  0  0  0  0  0  0  0  0
   57.1820   26.4560   45.7290 C   0  0  0  0  0  0  0  0  0  0  0  0
   55.9590   26.0030   46.2470 C   0  0  0  0  0  0  0  0  0  0  0  0
   54.7840   26.7070   46.0050 O   0  0  0  0  0  0  0  0  0  0  0  0
   55.9100   24.8620   46.9800 N   0  0  0  0  0  0  0  0  0  0  0  0
   57.0340   24.1470   47.2390 C   0  0  0  0  0  0  0  0  0  0  0  0
   56.9630   23.0880   47.9160 O   0  0  0  0  0  0  0  0  0  0  0  0
   58.2340   24.5750   46.7740 N   0  0  0  0  0  0  0  0  0  0  0  0
   58.3380   25.7110   46.0370 C   0  0  0  0  0  0  0  0  0  0  0  0
   59.4770   26.0970   45.6620 O   0  0  0  0  0  0  0  0  0  0  0  0
   57.3720   30.1110   45.2520 C   0  0  0  0  0  0  0  0  0  0  0  0
   56.2700   30.4550   44.7470 O   0  0  0  0  0  0  0  0  0  0  0  0
   58.2800   30.9670   45.7530 N   0  0  0  0  0  0  0  0  0  0  0  0
   58.1530   32.3990   45.7930 C   0  0  0  0  0  0  0  0  0  0  0  0
   58.2910   33.0580   44.7260 O   0  0  0  0  0  0  0  0  0  0  0  0
   58.0590   33.1290   47.1080 C   0  0  0  0  0  0  0  0  0  0  0  0
   58.8950   34.4180   47.1450 C   0  0  0  0  0  0  0  0  0  0  0  0
   60.3440   34.1430   47.4520 C   0  0  0  0  0  0  0  0  0  0  0  0
   60.8060   34.1870   48.7790 C   0  0  0  0  0  0  0  0  0  0  0  0
   62.1580   33.9720   49.0610 C   0  0  0  0  0  0  0  0  0  0  0  0
   63.0590   33.7180   48.0230 C   0  0  0  0  0  0  0  0  0  0  0  0
   62.6080   33.6770   46.7000 C   0  0  0  0  0  0  0  0  0  0  0  0
   61.2560   33.8890   46.4140 C   0  0  0  0  0  0  0  0  0  0  0  0
  1  2  2  0
  2  3  1  0
  3  4  1  0
  4  5  2  3
  5  6  1  0
  6  7  2  0
  7  8  1  0
  7  9  1  0
  9 10  1  0
 10 11  2  0
 10 12  1  0
 12 13  1  0
 13 14  2  0
  4 15  1  0
 15 16  2  0
 15 17  1  0
 17 18  1  0
 18 19  2  0
 18 20  1  0
 20 21  1  0
 21 22  1  0
 22 23  2  0
 23 24  1  0
 24 25  2  0
 25 26  1  0
 26 27  2  0
 17  2  1  0
 27 22  1  0
 13  6  1  0
M  CHG  4   3  -1   8  -1   9  -1  12  -1
M  END
>  <UniqueID>  (3317) 
71

>  <SMILES>  (3317) 
C=c1[n-]c(=Cc2c([O-])[n-]c(=O)[n-]c2=O)c(=O)n1C(=O)CCc1ccccc1

>  <Energy>  (3317) 
86.1191338120621

>  <Genealogy>  (3317) 
C=c1[n-]c(=Cc2c([O-])[n-]c(=O)[n-]c2=O)c(=O)n1C(=O)CCc1ccccc1 (protonated)
C=c1[n-]c(=Cc2c([O-])[n-]c(=O)[n-]c2=O)c(=O)n1C(=O)CCc1ccccc1 (3D coordinates assigned)
C=c1[n-]c(=Cc2c([O-])[n-]c(=O)[n-]c2=O)c(=O)n1C(=O)CCc1ccccc1 (optimized conformer: 86.1191338120621 kcal/mol)

>  <smiles>  (3317) 
C=c1[nH]c(=Cc2c(O)[nH]c(=O)[nH]c2=O)c(=O)n1C(=O)CCc1ccccc1

>  <score_type>  (3317) 
oracle

>  <origin>  (3317) 
adg

>  <m_score__min__energy>  (3317) 
-17.629999999999999

>  <m_primary>  (3317) 
energy

$$$$
75:0
     RDKit          3D

 35 38  0  0  0  0  0  0  0  0999 V2000
   53.3800   28.3200   53.5480 C   0  0  0  0  0  0  0  0  0  0  0  0
   54.3290   29.2120   53.2190 C   0  0  0  0  0  0  0  0  0  0  0  0
   54.1360   30.4940   52.6780 C   0  0  0  0  0  0  0  0  0  0  0  0
   53.0170   31.2290   52.5200 C   0  0  0  0  0  0  0  0  0  0  0  0
   52.1650   31.2490   51.3200 C   0  0  0  0  0  0  0  0  0  0  0  0
   52.2410   30.3360   50.3370 N   0  0  0  0  0  0  0  0  0  0  0  0
   51.3880   30.8100   49.4020 C   0  0  0  0  0  0  0  0  0  0  0  0
   51.1710   30.2120   48.3140 O   0  0  0  0  0  0  0  0  0  0  0  0
   50.7950   31.9820   49.7170 N   0  0  0  0  0  0  0  0  0  0  0  0
   51.3110   32.2560   50.9270 C   0  0  0  0  0  0  0  0  0  0  0  0
   51.0290   33.4150   51.6430 O   0  0  0  0  0  0  0  0  0  0  0  0
   55.3870   30.9470   52.3030 C   0  0  0  0  0  0  0  0  0  0  0  0
   56.2990   29.9830   52.6860 C   0  0  0  0  0  0  0  0  0  0  0  0
   57.7860   30.0990   52.4750 C   0  0  0  0  0  0  0  0  0  0  0  0
   58.1350   30.7030   51.1420 C   0  0  0  0  0  0  0  0  0  0  0  0
   58.0690   30.0100   50.0900 O   0  0  0  0  0  0  0  0  0  0  0  0
   58.6450   32.0430   51.0960 N   0  0  0  0  0  0  0  0  0  0  0  0
   58.8460   32.7870   49.8820 C   0  0  0  0  0  0  0  0  0  0  0  0
   59.7030   33.9010   49.8390 C   0  0  0  0  0  0  0  0  0  0  0  0
   59.9180   34.5800   48.6340 C   0  0  0  0  0  0  0  0  0  0  0  0
   59.2910   34.1470   47.4620 C   0  0  0  0  0  0  0  0  0  0  0  0
   58.4430   33.0330   47.4930 C   0  0  0  0  0  0  0  0  0  0  0  0
   57.7800   32.5720   46.2640 C   0  0  0  0  0  0  0  0  0  0  0  0
   57.0290   33.3800   45.6520 O   0  0  0  0  0  0  0  0  0  0  0  0
   57.9690   31.2290   45.7630 N   0  0  0  0  0  0  0  0  0  0  0  0
   59.0720   30.4170   46.3130 C   0  0  0  0  0  0  0  0  0  0  0  0
   58.8360   28.9500   46.1070 C   0  0  0  0  0  0  0  0  0  0  0  0
   59.3170   28.1180   46.9260 O   0  0  0  0  0  0  0  0  0  0  0  0
   58.0970   28.5040   44.9600 N   0  0  0  0  0  0  0  0  0  0  0  0
   57.7660   27.0870   44.7910 C   0  0  0  0  0  0  0  0  0  0  0  0
   57.6960   29.5050   43.9710 C   0  0  0  0  0  0  0  0  0  0  0  0
   57.0990   30.7260   44.6770 C   0  0  0  0  0  0  0  0  0  0  0  0
   58.2280   32.3520   48.7000 C   0  0  0  0  0  0  0  0  0  0  0  0
   55.6580   28.9280   53.2450 N   0  0  0  0  0  0  0  0  0  0  0  0
   56.2680   27.6700   53.6970 C   0  0  0  0  0  0  0  0  0  0  0  0
  1  2  2  0
  2  3  1  0
  3  4  2  0
  4  5  1  0
  5  6  1  0
  6  7  1  0
  7  8  2  0
  7  9  1  0
  9 10  1  0
 10 11  1  0
  3 12  1  0
 12 13  2  0
 13 14  1  0
 14 15  1  0
 15 16  2  0
 15 17  1  0
 17 18  1  0
 18 19  2  0
 19 20  1  0
 20 21  2  0
 21 22  1  0
 22 23  1  0
 23 24  2  0
 23 25  1  0
 25 26  1  0
 26 27  1  0
 27 28  2  0
 27 29  1  0
 29 30  1  0
 29 31  1  0
 31 32  1  0
 22 33  2  0
 13 34  1  0
 34 35  1  0
 34  2  1  0
 10  5  2  0
 33 18  1  0
 32 25  1  0
M  CHG  3   6  -1   9  -1  11  -1
M  END
>  <UniqueID>  (3318) 
72

>  <SMILES>  (3318) 
C=c1/c(=C\c2[n-]c(=O)[n-]c2[O-])cc(CC(=O)Nc2cccc(C(=O)N3CCN(C)C(=O)C3)c2)n1C

>  <Energy>  (3318) 
140.1723769399196

>  <Genealogy>  (3318) 
C=c1c(=Cc2[n-]c(=O)[n-]c2[O-])cc(CC(=O)Nc2cccc(C(=O)N3CCN(C)C(=O)C3)c2)n1C (protonated)
C=c1/c(=C\c2[n-]c(=O)[n-]c2[O-])cc(CC(=O)Nc2cccc(C(=O)N3CCN(C)C(=O)C3)c2)n1C (cis-trans isomerization)
C=c1/c(=C\c2[n-]c(=O)[n-]c2[O-])cc(CC(=O)Nc2cccc(C(=O)N3CCN(C)C(=O)C3)c2)n1C (3D coordinates assigned)
C=c1/c(=C\c2[n-]c(=O)[n-]c2[O-])cc(CC(=O)Nc2cccc(C(=O)N3CCN(C)C(=O)C3)c2)n1C (nonaromatic ring conformer: 140.1723769399196 kcal/mol)

>  <smiles>  (3318) 
C=c1c(=Cc2[nH]c(=O)[nH]c2O)cc(CC(=O)Nc2cccc(C(=O)N3CCN(C)C(=O)C3)c2)n1C

>  <score_type>  (3318) 
oracle

>  <origin>  (3318) 
adg

>  <m_score__min__energy>  (3318) 
-18.93

>  <m_primary>  (3318) 
energy

$$$$
86:0
     RDKit          3D

 26 28  0  0  0  0  0  0  0  0999 V2000
   59.7850   30.7120   47.9830 C   0  0  0  0  0  0  0  0  0  0  0  0
   58.8970   30.3060   47.0740 C   0  0  0  0  0  0  0  0  0  0  0  0
   58.7120   28.9970   46.7820 N   0  0  0  0  0  0  0  0  0  0  0  0
   57.7700   28.9980   45.8140 C   0  0  0  0  0  0  0  0  0  0  0  0
   57.2640   27.8980   45.2360 C   0  0  0  0  0  0  0  0  0  0  0  0
   57.2200   26.5760   45.9020 C   0  0  0  0  0  0  0  0  0  0  0  0
   55.9820   26.0090   46.2460 C   0  0  0  0  0  0  0  0  0  0  0  0
   54.7970   26.6890   45.9930 O   0  0  0  0  0  0  0  0  0  0  0  0
   55.9340   24.7900   46.8420 N   0  0  0  0  0  0  0  0  0  0  0  0
   57.0680   24.0930   47.1040 C   0  0  0  0  0  0  0  0  0  0  0  0
   56.9990   22.9670   47.6620 O   0  0  0  0  0  0  0  0  0  0  0  0
   58.2770   24.6040   46.7570 N   0  0  0  0  0  0  0  0  0  0  0  0
   58.3800   25.8170   46.1570 C   0  0  0  0  0  0  0  0  0  0  0  0
   59.5160   26.2370   45.8110 O   0  0  0  0  0  0  0  0  0  0  0  0
   57.4010   30.2980   45.5510 C   0  0  0  0  0  0  0  0  0  0  0  0
   56.5520   30.6730   44.6980 O   0  0  0  0  0  0  0  0  0  0  0  0
   58.0990   31.1290   46.3460 N   0  0  0  0  0  0  0  0  0  0  0  0
   58.0520   32.5950   46.3350 C   0  0  0  0  0  0  0  0  0  0  0  0
   59.1410   33.1510   45.4090 C   0  0  0  0  0  0  0  0  0  0  0  0
   60.1210   34.1370   46.0920 C   0  0  0  0  0  0  0  0  0  0  0  0
   61.2120   33.5470   46.9170 N   0  0  0  0  0  0  0  0  0  0  0  0
   61.1370   33.8760   48.3560 C   0  0  0  0  0  0  0  0  0  0  0  0
   62.2100   33.0910   49.1490 C   0  0  0  0  0  0  0  0  0  0  0  0
   63.2390   32.5660   48.3260 O   0  0  0  0  0  0  0  0  0  0  0  0
   63.6670   33.5420   47.3990 C   0  0  0  0  0  0  0  0  0  0  0  0
   62.5600   33.8190   46.3630 C   0  0  0  0  0  0  0  0  0  0  0  0
  1  2  2  0
  2  3  1  0
  3  4  1  0
  4  5  2  3
  5  6  1  0
  6  7  2  0
  7  8  1  0
  7  9  1  0
  9 10  1  0
 10 11  2  0
 10 12  1  0
 12 13  1  0
 13 14  2  0
  4 15  1  0
 15 16  2  0
 15 17  1  0
 17 18  1  0
 18 19  1  0
 19 20  1  0
 20 21  1  0
 21 22  1  0
 22 23  1  0
 23 24  1  0
 24 25  1  0
 25 26  1  0
 17  2  1  0
 26 21  1  0
 13  6  1  0
M  CHG  5   3  -1   8  -1   9  -1  12  -1  21   1
M  END
>  <UniqueID>  (3319) 
83

>  <SMILES>  (3319) 
C=c1[n-]c(=Cc2c([O-])[n-]c(=O)[n-]c2=O)c(=O)n1CCC[NH+]1CCOCC1

>  <Energy>  (3319) 
99.98591853016518

>  <Genealogy>  (3319) 
C=c1[n-]c(=Cc2c([O-])[n-]c(=O)[n-]c2=O)c(=O)n1CCC[NH+]1CCOCC1 (protonated)
C=c1[n-]c(=Cc2c([O-])[n-]c(=O)[n-]c2=O)c(=O)n1CCC[NH+]1CCOCC1 (3D coordinates assigned)
C=c1[n-]c(=Cc2c([O-])[n-]c(=O)[n-]c2=O)c(=O)n1CCC[NH+]1CCOCC1 (nonaromatic ring conformer: 99.98591853016518 kcal/mol)

>  <smiles>  (3319) 
C=c1[nH]c(=Cc2c(O)[nH]c(=O)[nH]c2=O)c(=O)n1CCCN1CCOCC1

>  <score_type>  (3319) 
oracle

>  <origin>  (3319) 
adg

>  <m_score__min__energy>  (3319) 
-14.800000000000001

>  <m_primary>  (3319) 
energy

$$$$
9:0
     RDKit          3D

 30 33  0  0  0  0  0  0  0  0999 V2000
   57.1480   30.4810   43.0650 C   0  0  0  0  0  0  0  0  0  0  0  0
   57.3940   29.8910   44.2360 C   0  0  0  0  0  0  0  0  0  0  0  0
   57.2220   28.2370   44.4940 S   0  0  0  0  0  0  0  0  0  0  0  0
   57.7520   28.3020   46.0950 C   0  0  0  0  0  0  0  0  0  0  0  0
   57.9110   27.2640   46.9320 C   0  0  0  0  0  0  0  0  0  0  0  0
   57.2200   25.9720   46.7830 C   0  0  0  0  0  0  0  0  0  0  0  0
   57.7720   24.7980   47.1380 N   0  0  0  0  0  0  0  0  0  0  0  0
   56.7860   23.9040   46.9060 C   0  0  0  0  0  0  0  0  0  0  0  0
   56.9290   22.6710   47.1080 O   0  0  0  0  0  0  0  0  0  0  0  0
   55.6340   24.4370   46.4460 N   0  0  0  0  0  0  0  0  0  0  0  0
   55.9200   25.7480   46.3840 C   0  0  0  0  0  0  0  0  0  0  0  0
   54.9950   26.7180   46.0180 O   0  0  0  0  0  0  0  0  0  0  0  0
   58.0630   29.6330   46.3810 C   0  0  0  0  0  0  0  0  0  0  0  0
   58.4900   30.0050   47.5100 O   0  0  0  0  0  0  0  0  0  0  0  0
   57.8570   30.5150   45.3570 N   0  0  0  0  0  0  0  0  0  0  0  0
   58.0970   31.9310   45.4780 C   0  0  0  0  0  0  0  0  0  0  0  0
   57.5020   32.8290   44.5810 C   0  0  0  0  0  0  0  0  0  0  0  0
   57.7320   34.2010   44.7030 C   0  0  0  0  0  0  0  0  0  0  0  0
   58.5460   34.6860   45.7290 C   0  0  0  0  0  0  0  0  0  0  0  0
   59.1290   33.8040   46.6550 C   0  0  0  0  0  0  0  0  0  0  0  0
   59.9970   34.3120   47.7430 C   0  0  0  0  0  0  0  0  0  0  0  0
   59.6400   35.3320   48.3920 O   0  0  0  0  0  0  0  0  0  0  0  0
   61.2290   33.6520   48.0910 N   0  0  0  0  0  0  0  0  0  0  0  0
   62.2020   33.2850   47.0570 C   0  0  0  0  0  0  0  0  0  0  0  0
   62.8170   31.9030   47.3500 C   0  0  0  0  0  0  0  0  0  0  0  0
   62.9260   31.5790   48.7980 N   0  0  0  0  0  0  0  0  0  0  0  0
   61.9100   30.5950   49.2180 C   0  0  0  0  0  0  0  0  0  0  0  0
   62.9240   32.7750   49.6660 C   0  0  0  0  0  0  0  0  0  0  0  0
   61.6390   33.6010   49.4970 C   0  0  0  0  0  0  0  0  0  0  0  0
   58.9070   32.4220   46.5140 C   0  0  0  0  0  0  0  0  0  0  0  0
  1  2  2  0
  2  3  1  0
  3  4  1  0
  4  5  2  0
  5  6  1  0
  6  7  1  0
  7  8  1  0
  8  9  2  0
  8 10  1  0
 10 11  1  0
 11 12  1  0
  4 13  1  0
 13 14  2  0
 13 15  1  0
 15 16  1  0
 16 17  2  0
 17 18  1  0
 18 19  2  0
 19 20  1  0
 20 21  1  0
 21 22  2  0
 21 23  1  0
 23 24  1  0
 24 25  1  0
 25 26  1  0
 26 27  1  0
 26 28  1  0
 28 29  1  0
 20 30  2  0
 15  2  1  0
 30 16  1  0
 11  6  2  0
 29 23  1  0
M  CHG  3   7  -1  10  -1  12  -1
M  END
>  <UniqueID>  (3320) 
10

>  <SMILES>  (3320) 
C=c1s/c(=C\c2[n-]c(=O)[n-]c2[O-])c(=O)n1-c1cccc(C(=O)N2CCN(C)CC2)c1

>  <Energy>  (3320) 
137.49348002701893

>  <Genealogy>  (3320) 
C=c1sc(=Cc2[n-]c(=O)[n-]c2[O-])c(=O)n1-c1cccc(C(=O)N2CCN(C)CC2)c1 (protonated)
C=c1s/c(=C\c2[n-]c(=O)[n-]c2[O-])c(=O)n1-c1cccc(C(=O)N2CCN(C)CC2)c1 (cis-trans isomerization)
C=c1s/c(=C\c2[n-]c(=O)[n-]c2[O-])c(=O)n1-c1cccc(C(=O)N2CCN(C)CC2)c1 (3D coordinates assigned)
C=c1s/c(=C\c2[n-]c(=O)[n-]c2[O-])c(=O)n1-c1cccc(C(=O)N2CCN(C)CC2)c1 (nonaromatic ring conformer: 137.49348002701893 kcal/mol)

>  <smiles>  (3320) 
C=c1sc(=Cc2[nH]c(=O)[nH]c2O)c(=O)n1-c1cccc(C(=O)N2CCN(C)CC2)c1

>  <score_type>  (3320) 
oracle

>  <origin>  (3320) 
adg

>  <m_score__min__energy>  (3320) 
-17.300000000000001

>  <m_primary>  (3320) 
energy

$$$$
11:0
     RDKit          3D

 33 37  0  0  0  0  0  0  0  0999 V2000
   58.5110   29.8140   47.1530 C   0  0  0  0  0  0  0  0  0  0  0  0
   58.1620   30.5060   46.0560 C   0  0  0  0  0  0  0  0  0  0  0  0
   57.3070   30.0850   45.0250 C   0  0  0  0  0  0  0  0  0  0  0  0
   56.7850   28.8750   44.7470 C   0  0  0  0  0  0  0  0  0  0  0  0
   57.1670   27.6080   45.3870 C   0  0  0  0  0  0  0  0  0  0  0  0
   58.4400   27.2490   45.6460 N   0  0  0  0  0  0  0  0  0  0  0  0
   58.3430   26.0940   46.3350 C   0  0  0  0  0  0  0  0  0  0  0  0
   59.3450   25.4390   46.7300 O   0  0  0  0  0  0  0  0  0  0  0  0
   57.0670   25.7220   46.5620 N   0  0  0  0  0  0  0  0  0  0  0  0
   56.5890   24.5100   47.2190 C   0  0  0  0  0  0  0  0  0  0  0  0
   56.3260   26.6770   45.9710 C   0  0  0  0  0  0  0  0  0  0  0  0
   54.9360   26.7150   45.9830 O   0  0  0  0  0  0  0  0  0  0  0  0
   57.0520   31.2060   44.2520 C   0  0  0  0  0  0  0  0  0  0  0  0
   57.8030   32.2360   44.7790 C   0  0  0  0  0  0  0  0  0  0  0  0
   57.8320   33.6310   44.2320 C   0  0  0  0  0  0  0  0  0  0  0  0
   58.4750   31.8150   45.8740 N   0  0  0  0  0  0  0  0  0  0  0  0
   59.3280   32.6290   46.6980 C   0  0  0  0  0  0  0  0  0  0  0  0
   58.7800   33.6350   47.5050 C   0  0  0  0  0  0  0  0  0  0  0  0
   59.6100   34.4230   48.3040 C   0  0  0  0  0  0  0  0  0  0  0  0
   60.9920   34.2190   48.2960 C   0  0  0  0  0  0  0  0  0  0  0  0
   61.5590   33.2280   47.4790 C   0  0  0  0  0  0  0  0  0  0  0  0
   63.0230   33.0190   47.4720 C   0  0  0  0  0  0  0  0  0  0  0  0
   63.6790   33.2910   46.4300 O   0  0  0  0  0  0  0  0  0  0  0  0
   63.7020   32.4750   48.6180 N   0  0  0  0  0  0  0  0  0  0  0  0
   64.8960   33.0860   49.2170 C   0  0  0  0  0  0  0  0  0  0  0  0
   65.0180   32.4960   50.6430 C   0  0  0  0  0  0  0  0  0  0  0  0
   63.8480   31.5850   50.7400 C   0  0  0  0  0  0  0  0  0  0  0  0
   63.4710   30.7850   51.8210 C   0  0  0  0  0  0  0  0  0  0  0  0
   62.3300   29.9780   51.6910 C   0  0  0  0  0  0  0  0  0  0  0  0
   61.5980   29.9770   50.4900 C   0  0  0  0  0  0  0  0  0  0  0  0
   61.9980   30.7890   49.4150 C   0  0  0  0  0  0  0  0  0  0  0  0
   63.1270   31.5990   49.5760 C   0  0  0  0  0  0  0  0  0  0  0  0
   60.7160   32.4230   46.6930 C   0  0  0  0  0  0  0  0  0  0  0  0
  1  2  2  0
  2  3  1  0
  3  4  2  3
  4  5  1  0
  5  6  1  0
  6  7  1  0
  7  8  2  0
  7  9  1  0
  9 10  1  0
  9 11  1  0
 11 12  1  0
  3 13  1  0
 13 14  2  0
 14 15  1  0
 14 16  1  0
 16 17  1  0
 17 18  2  0
 18 19  1  0
 19 20  2  0
 20 21  1  0
 21 22  1  0
 22 23  2  0
 22 24  1  0
 24 25  1  0
 25 26  1  0
 26 27  1  0
 27 28  2  0
 28 29  1  0
 29 30  2  0
 30 31  1  0
 31 32  2  0
 21 33  2  0
 16  2  1  0
 33 17  1  0
 11  5  2  0
 32 24  1  0
 32 27  1  0
M  CHG  1  12  -1
M  END
>  <UniqueID>  (3321) 
12

>  <SMILES>  (3321) 
C=c1c(=Cc2[nH]c(=O)n(C)c2[O-])cc(C)n1-c1cccc(C(=O)N2CCc3ccccc32)c1

>  <Energy>  (3321) 
160.63539775201272

>  <Genealogy>  (3321) 
C=c1c(=Cc2[nH]c(=O)n(C)c2[O-])cc(C)n1-c1cccc(C(=O)N2CCc3ccccc32)c1 (protonated)
C=c1c(=Cc2[nH]c(=O)n(C)c2[O-])cc(C)n1-c1cccc(C(=O)N2CCc3ccccc32)c1 (3D coordinates assigned)
C=c1c(=Cc2[nH]c(=O)n(C)c2[O-])cc(C)n1-c1cccc(C(=O)N2CCc3ccccc32)c1 (nonaromatic ring conformer: 160.63539775201272 kcal/mol)

>  <smiles>  (3321) 
C=c1c(=Cc2[nH]c(=O)n(C)c2O)cc(C)n1-c1cccc(C(=O)N2CCc3ccccc32)c1

>  <score_type>  (3321) 
oracle

>  <origin>  (3321) 
adg

>  <m_score__min__energy>  (3321) 
-14.18

>  <m_primary>  (3321) 
energy

$$$$
15:0
     RDKit          3D

 28 31  0  0  0  0  0  0  0  0999 V2000
   54.7980   26.3070   46.0130 O   0  0  0  0  0  0  0  0  0  0  0  0
   55.0970   24.9470   45.9850 C   0  0  0  0  0  0  0  0  0  0  0  0
   54.1820   23.9980   45.7340 N   0  0  0  0  0  0  0  0  0  0  0  0
   54.9130   22.8630   45.7490 C   0  0  0  0  0  0  0  0  0  0  0  0
   54.4090   21.7290   45.5450 O   0  0  0  0  0  0  0  0  0  0  0  0
   56.2300   23.0400   45.9930 N   0  0  0  0  0  0  0  0  0  0  0  0
   56.3390   24.3680   46.1680 C   0  0  0  0  0  0  0  0  0  0  0  0
   57.6220   25.0510   46.3920 C   0  0  0  0  0  0  0  0  0  0  0  0
   57.9680   26.2520   45.8890 C   0  0  0  0  0  0  0  0  0  0  0  0
   57.1990   26.9250   44.9610 C   0  0  0  0  0  0  0  0  0  0  0  0
   57.8110   28.1410   44.7380 C   0  0  0  0  0  0  0  0  0  0  0  0
   57.3180   29.1460   43.7250 C   0  0  0  0  0  0  0  0  0  0  0  0
   55.9530   29.7330   44.0950 C   0  0  0  0  0  0  0  0  0  0  0  0
   55.4020   29.0730   45.2040 O   0  0  0  0  0  0  0  0  0  0  0  0
   58.9220   28.2630   45.5080 N   0  0  0  0  0  0  0  0  0  0  0  0
   59.8030   29.4480   45.5520 C   0  0  0  0  0  0  0  0  0  0  0  0
   59.2840   30.5510   46.4660 C   0  0  0  0  0  0  0  0  0  0  0  0
   59.4600   30.3850   47.8530 C   0  0  0  0  0  0  0  0  0  0  0  0
   58.9860   31.3320   48.7580 C   0  0  0  0  0  0  0  0  0  0  0  0
   58.3350   32.4750   48.3020 C   0  0  0  0  0  0  0  0  0  0  0  0
   58.1680   32.6920   46.9290 C   0  0  0  0  0  0  0  0  0  0  0  0
   57.5230   33.8550   46.4820 C   0  0  0  0  0  0  0  0  0  0  0  0
   57.3660   34.0940   45.1170 C   0  0  0  0  0  0  0  0  0  0  0  0
   57.8600   33.1800   44.1880 C   0  0  0  0  0  0  0  0  0  0  0  0
   58.5030   32.0180   44.6160 C   0  0  0  0  0  0  0  0  0  0  0  0
   58.6580   31.7400   45.9900 C   0  0  0  0  0  0  0  0  0  0  0  0
   59.0800   27.0690   46.1450 C   0  0  0  0  0  0  0  0  0  0  0  0
   60.2130   26.6910   46.7580 C   0  0  0  0  0  0  0  0  0  0  0  0
  1  2  1  0
  2  3  1  0
  3  4  1  0
  4  5  2  0
  4  6  1  0
  6  7  1  0
  7  8  1  0
  8  9  2  0
  9 10  1  0
 10 11  2  0
 11 12  1  0
 12 13  1  0
 13 14  1  0
 11 15  1  0
 15 16  1  0
 16 17  1  0
 17 18  2  0
 18 19  1  0
 19 20  2  0
 20 21  1  0
 21 22  2  0
 22 23  1  0
 23 24  2  0
 24 25  1  0
 25 26  2  0
 15 27  1  0
 27 28  2  0
  7  2  2  0
 27  9  1  0
 26 17  1  0
 26 21  1  0
M  CHG  2   3  -1   6  -1
M  END
>  <UniqueID>  (3322) 
16

>  <SMILES>  (3322) 
C=c1/c(=C\c2[n-]c(=O)[n-]c2O)cc(CCO)n1Cc1cccc2ccccc12

>  <Energy>  (3322) 
125.45895051474643

>  <Genealogy>  (3322) 
C=c1c(=Cc2[n-]c(=O)[n-]c2O)cc(CCO)n1Cc1cccc2ccccc12 (protonated)
C=c1/c(=C\c2[n-]c(=O)[n-]c2O)cc(CCO)n1Cc1cccc2ccccc12 (cis-trans isomerization)
C=c1/c(=C\c2[n-]c(=O)[n-]c2O)cc(CCO)n1Cc1cccc2ccccc12 (3D coordinates assigned)
C=c1/c(=C\c2[n-]c(=O)[n-]c2O)cc(CCO)n1Cc1cccc2ccccc12 (optimized conformer: 125.45895051474643 kcal/mol)

>  <smiles>  (3322) 
C=c1c(=Cc2[nH]c(=O)[nH]c2O)cc(CCO)n1Cc1cccc2ccccc12

>  <score_type>  (3322) 
oracle

>  <origin>  (3322) 
adg

>  <m_score__min__energy>  (3322) 
-14.32

>  <m_primary>  (3322) 
energy

$$$$
23:0
     RDKit          3D

 30 32  0  0  0  0  0  0  0  0999 V2000
   54.8140   30.9860   51.4720 C   0  0  0  0  0  0  0  0  0  0  0  0
   54.6900   30.4960   52.7150 C   0  0  0  0  0  0  0  0  0  0  0  0
   53.5090   30.4400   53.4630 C   0  0  0  0  0  0  0  0  0  0  0  0
   52.3100   30.9620   53.1370 C   0  0  0  0  0  0  0  0  0  0  0  0
   51.8550   31.1810   51.7530 C   0  0  0  0  0  0  0  0  0  0  0  0
   52.0190   30.2780   50.7700 N   0  0  0  0  0  0  0  0  0  0  0  0
   51.3910   30.8420   49.7160 C   0  0  0  0  0  0  0  0  0  0  0  0
   51.3390   30.2940   48.5850 O   0  0  0  0  0  0  0  0  0  0  0  0
   50.8160   32.0360   49.9730 N   0  0  0  0  0  0  0  0  0  0  0  0
   51.1070   32.2320   51.2690 C   0  0  0  0  0  0  0  0  0  0  0  0
   50.6560   33.3230   52.0000 O   0  0  0  0  0  0  0  0  0  0  0  0
   53.8240   29.7740   54.6390 C   0  0  0  0  0  0  0  0  0  0  0  0
   55.1640   29.4510   54.5650 C   0  0  0  0  0  0  0  0  0  0  0  0
   55.9210   28.7280   55.6370 C   0  0  0  0  0  0  0  0  0  0  0  0
   55.6970   29.9000   53.4060 N   0  0  0  0  0  0  0  0  0  0  0  0
   57.0810   29.7700   53.0240 C   0  0  0  0  0  0  0  0  0  0  0  0
   57.4800   28.6780   52.5320 O   0  0  0  0  0  0  0  0  0  0  0  0
   58.0350   30.8150   53.3420 N   0  0  0  0  0  0  0  0  0  0  0  0
   57.4760   32.1570   53.0300 C   0  0  0  0  0  0  0  0  0  0  0  0
   58.5910   33.1980   52.8490 C   0  0  0  0  0  0  0  0  0  0  0  0
   59.5220   32.8480   51.7420 N   0  0  0  0  0  0  0  0  0  0  0  0
   59.2870   33.6630   50.5300 C   0  0  0  0  0  0  0  0  0  0  0  0
   59.7730   32.9110   49.2810 C   0  0  0  0  0  0  0  0  0  0  0  0
   58.8190   33.0520   48.0800 C   0  0  0  0  0  0  0  0  0  0  0  0
   59.2970   34.0470   47.0150 C   0  0  0  0  0  0  0  0  0  0  0  0
   58.4750   34.0050   45.9020 F   0  0  0  0  0  0  0  0  0  0  0  0
   59.2630   35.3260   47.5420 F   0  0  0  0  0  0  0  0  0  0  0  0
   60.5970   33.7680   46.6350 F   0  0  0  0  0  0  0  0  0  0  0  0
   59.5240   31.4040   51.4110 C   0  0  0  0  0  0  0  0  0  0  0  0
   59.3360   30.5480   52.6720 C   0  0  0  0  0  0  0  0  0  0  0  0
  1  2  2  0
  2  3  1  0
  3  4  2  0
  4  5  1  0
  5  6  1  0
  6  7  1  0
  7  8  2  0
  7  9  1  0
  9 10  1  0
 10 11  1  0
  3 12  1  0
 12 13  2  0
 13 14  1  0
 13 15  1  0
 15 16  1  0
 16 17  2  0
 16 18  1  0
 18 19  1  0
 19 20  1  0
 20 21  1  0
 21 22  1  0
 22 23  1  0
 23 24  1  0
 24 25  1  0
 25 26  1  0
 25 27  1  0
 25 28  1  0
 21 29  1  0
 29 30  1  0
 15  2  1  0
 30 18  1  0
 10  5  2  0
M  CHG  4   6  -1   9  -1  11  -1  18   1
M  END
>  <UniqueID>  (3323) 
24

>  <SMILES>  (3323) 
C=c1/c(=C/c2[n-]c(=O)[n-]c2[O-])cc(C)n1C(=O)[NH+]1CCN(CCCC(F)(F)F)CC1

>  <Energy>  (3323) 
134.2438355431049

>  <Genealogy>  (3323) 
C=c1c(=Cc2[n-]c(=O)[n-]c2[O-])cc(C)n1C(=O)[NH+]1CCN(CCCC(F)(F)F)CC1 (protonated)
C=c1/c(=C/c2[n-]c(=O)[n-]c2[O-])cc(C)n1C(=O)[NH+]1CCN(CCCC(F)(F)F)CC1 (cis-trans isomerization)
C=c1/c(=C/c2[n-]c(=O)[n-]c2[O-])cc(C)n1C(=O)[NH+]1CCN(CCCC(F)(F)F)CC1 (3D coordinates assigned)
C=c1/c(=C/c2[n-]c(=O)[n-]c2[O-])cc(C)n1C(=O)[NH+]1CCN(CCCC(F)(F)F)CC1 (nonaromatic ring conformer: 134.2438355431049 kcal/mol)

>  <smiles>  (3323) 
C=c1c(=Cc2[nH]c(=O)[nH]c2O)cc(C)n1C(=O)N1CCN(CCCC(F)(F)F)CC1

>  <score_type>  (3323) 
oracle

>  <origin>  (3323) 
adg

>  <m_score__min__energy>  (3323) 
-14.57

>  <m_primary>  (3323) 
energy

$$$$
35:0
     RDKit          3D

 33 36  0  0  0  0  0  0  0  0999 V2000
   58.0440   33.6180   44.7370 C   0  0  0  0  0  0  0  0  0  0  0  0
   57.9810   32.3340   45.0930 C   0  0  0  0  0  0  0  0  0  0  0  0
   56.9560   31.5330   44.7210 N   0  0  0  0  0  0  0  0  0  0  0  0
   57.2640   30.3270   45.2440 C   0  0  0  0  0  0  0  0  0  0  0  0
   56.4970   29.2310   45.1550 C   0  0  0  0  0  0  0  0  0  0  0  0
   56.9760   27.8650   45.4370 C   0  0  0  0  0  0  0  0  0  0  0  0
   58.2700   27.5020   45.2990 N   0  0  0  0  0  0  0  0  0  0  0  0
   58.2760   26.1910   45.6220 C   0  0  0  0  0  0  0  0  0  0  0  0
   59.3260   25.4940   45.6290 O   0  0  0  0  0  0  0  0  0  0  0  0
   57.0570   25.7040   45.9290 N   0  0  0  0  0  0  0  0  0  0  0  0
   56.7120   24.3530   46.3710 C   0  0  0  0  0  0  0  0  0  0  0  0
   56.9670   23.3700   45.2630 C   0  0  0  0  0  0  0  0  0  0  0  0
   58.0500   22.4780   45.3440 C   0  0  0  0  0  0  0  0  0  0  0  0
   58.2670   21.5380   44.3300 C   0  0  0  0  0  0  0  0  0  0  0  0
   57.3990   21.4760   43.2370 C   0  0  0  0  0  0  0  0  0  0  0  0
   56.3090   22.3480   43.1570 C   0  0  0  0  0  0  0  0  0  0  0  0
   55.4630   22.2790   42.0990 F   0  0  0  0  0  0  0  0  0  0  0  0
   56.0900   23.2900   44.1670 C   0  0  0  0  0  0  0  0  0  0  0  0
   56.2350   26.7580   45.8110 C   0  0  0  0  0  0  0  0  0  0  0  0
   54.8580   26.7000   45.9930 O   0  0  0  0  0  0  0  0  0  0  0  0
   58.4580   30.4280   45.9230 C   0  0  0  0  0  0  0  0  0  0  0  0
   59.0450   29.4960   46.5370 O   0  0  0  0  0  0  0  0  0  0  0  0
   58.9150   31.6910   45.8410 N   0  0  0  0  0  0  0  0  0  0  0  0
   60.1380   32.2270   46.4520 C   0  0  0  0  0  0  0  0  0  0  0  0
   60.0410   32.2270   47.9610 C   0  0  0  0  0  0  0  0  0  0  0  0
   58.7810   32.3560   48.5730 C   0  0  0  0  0  0  0  0  0  0  0  0
   58.6660   32.3680   49.9650 C   0  0  0  0  0  0  0  0  0  0  0  0
   59.8050   32.2600   50.7610 C   0  0  0  0  0  0  0  0  0  0  0  0
   61.0650   32.1430   50.1700 C   0  0  0  0  0  0  0  0  0  0  0  0
   61.1970   32.1280   48.7670 C   0  0  0  0  0  0  0  0  0  0  0  0
   62.4510   32.0140   48.1460 O   0  0  0  0  0  0  0  0  0  0  0  0
   63.4090   33.0660   48.0520 C   0  0  0  0  0  0  0  0  0  0  0  0
   63.2770   33.7530   46.7020 C   0  0  0  0  0  0  0  0  0  0  0  0
  1  2  2  0
  2  3  1  0
  3  4  1  0
  4  5  2  0
  5  6  1  0
  6  7  1  0
  7  8  1  0
  8  9  2  0
  8 10  1  0
 10 11  1  0
 11 12  1  0
 12 13  2  0
 13 14  1  0
 14 15  2  0
 15 16  1  0
 16 17  1  0
 16 18  2  0
 10 19  1  0
 19 20  1  0
  4 21  1  0
 21 22  2  0
 21 23  1  0
 23 24  1  0
 24 25  1  0
 25 26  2  0
 26 27  1  0
 27 28  2  0
 28 29  1  0
 29 30  2  0
 30 31  1  0
 31 32  1  0
 32 33  1  0
 23  2  1  0
 30 25  1  0
 19  6  2  0
 18 12  1  0
M  CHG  3   3  -1   7  -1  20  -1
M  END
>  <UniqueID>  (3324) 
36

>  <SMILES>  (3324) 
C=c1[n-]/c(=C\c2[n-]c(=O)n(Cc3cccc(F)c3)c2[O-])c(=O)n1Cc1ccccc1OCC

>  <Energy>  (3324) 
120.34369945241173

>  <Genealogy>  (3324) 
C=c1[n-]c(=Cc2[n-]c(=O)n(Cc3cccc(F)c3)c2[O-])c(=O)n1Cc1ccccc1OCC (protonated)
C=c1[n-]/c(=C\c2[n-]c(=O)n(Cc3cccc(F)c3)c2[O-])c(=O)n1Cc1ccccc1OCC (cis-trans isomerization)
C=c1[n-]/c(=C\c2[n-]c(=O)n(Cc3cccc(F)c3)c2[O-])c(=O)n1Cc1ccccc1OCC (3D coordinates assigned)
C=c1[n-]/c(=C\c2[n-]c(=O)n(Cc3cccc(F)c3)c2[O-])c(=O)n1Cc1ccccc1OCC (optimized conformer: 120.34369945241173 kcal/mol)

>  <smiles>  (3324) 
C=c1[nH]c(=Cc2[nH]c(=O)n(Cc3cccc(F)c3)c2O)c(=O)n1Cc1ccccc1OCC

>  <score_type>  (3324) 
oracle

>  <origin>  (3324) 
adg

>  <m_score__min__energy>  (3324) 
-14.41

>  <m_primary>  (3324) 
energy

$$$$
38:0
     RDKit          3D

 30 33  0  0  0  0  0  0  0  0999 V2000
   55.0530   28.5030   53.1390 C   0  0  0  0  0  0  0  0  0  0  0  0
   55.4710   29.7110   52.7290 C   0  0  0  0  0  0  0  0  0  0  0  0
   54.6880   30.8360   52.4220 C   0  0  0  0  0  0  0  0  0  0  0  0
   53.3540   30.9610   52.2970 C   0  0  0  0  0  0  0  0  0  0  0  0
   52.5960   30.9110   51.0390 C   0  0  0  0  0  0  0  0  0  0  0  0
   52.5700   29.8330   50.2250 N   0  0  0  0  0  0  0  0  0  0  0  0
   51.6750   30.1740   49.2700 C   0  0  0  0  0  0  0  0  0  0  0  0
   51.3990   29.4260   48.2950 O   0  0  0  0  0  0  0  0  0  0  0  0
   51.1100   31.3850   49.4640 N   0  0  0  0  0  0  0  0  0  0  0  0
   50.1660   32.0830   48.5970 C   0  0  0  0  0  0  0  0  0  0  0  0
   51.6920   31.8500   50.5790 C   0  0  0  0  0  0  0  0  0  0  0  0
   51.4040   33.0750   51.1690 O   0  0  0  0  0  0  0  0  0  0  0  0
   55.5010   31.8960   52.2280 N   0  0  0  0  0  0  0  0  0  0  0  0
   56.7430   31.4000   52.3730 C   0  0  0  0  0  0  0  0  0  0  0  0
   57.7750   32.1100   52.2460 O   0  0  0  0  0  0  0  0  0  0  0  0
   56.7730   30.0830   52.6640 N   0  0  0  0  0  0  0  0  0  0  0  0
   57.9790   29.2990   52.9690 C   0  0  0  0  0  0  0  0  0  0  0  0
   59.1280   29.7290   52.0950 C   0  0  0  0  0  0  0  0  0  0  0  0
   60.2920   30.2780   52.6580 C   0  0  0  0  0  0  0  0  0  0  0  0
   61.3440   30.6970   51.8380 C   0  0  0  0  0  0  0  0  0  0  0  0
   61.2520   30.5740   50.4420 C   0  0  0  0  0  0  0  0  0  0  0  0
   62.3320   31.0160   49.5950 N   0  0  0  0  0  0  0  0  0  0  0  0
   63.6780   31.2370   50.1330 C   0  0  0  0  0  0  0  0  0  0  0  0
   64.1700   32.6560   49.7900 C   0  0  0  0  0  0  0  0  0  0  0  0
   63.6150   33.1990   48.5240 N   0  0  0  0  0  0  0  0  0  0  0  0
   62.5370   34.1720   48.7700 C   0  0  0  0  0  0  0  0  0  0  0  0
   63.2000   32.1450   47.5730 C   0  0  0  0  0  0  0  0  0  0  0  0
   62.1030   31.2420   48.1630 C   0  0  0  0  0  0  0  0  0  0  0  0
   60.0820   30.0370   49.8790 C   0  0  0  0  0  0  0  0  0  0  0  0
   59.0310   29.6160   50.6990 C   0  0  0  0  0  0  0  0  0  0  0  0
  1  2  2  0
  2  3  1  0
  3  4  2  3
  4  5  1  0
  5  6  1  0
  6  7  1  0
  7  8  2  0
  7  9  1  0
  9 10  1  0
  9 11  1  0
 11 12  1  0
  3 13  1  0
 13 14  1  0
 14 15  2  0
 14 16  1  0
 16 17  1  0
 17 18  1  0
 18 19  2  0
 19 20  1  0
 20 21  2  0
 21 22  1  0
 22 23  1  0
 23 24  1  0
 24 25  1  0
 25 26  1  0
 25 27  1  0
 27 28  1  0
 21 29  1  0
 29 30  2  0
 16  2  1  0
 30 18  1  0
 11  5  2  0
 28 22  1  0
M  CHG  3   6  -1  12  -1  13  -1
M  END
>  <UniqueID>  (3325) 
39

>  <SMILES>  (3325) 
C=c1c(=Cc2[n-]c(=O)n(C)c2[O-])[n-]c(=O)n1Cc1ccc(N2CCN(C)CC2)cc1

>  <Energy>  (3325) 
143.31990299323817

>  <Genealogy>  (3325) 
C=c1c(=Cc2[n-]c(=O)n(C)c2[O-])[n-]c(=O)n1Cc1ccc(N2CCN(C)CC2)cc1 (protonated)
C=c1c(=Cc2[n-]c(=O)n(C)c2[O-])[n-]c(=O)n1Cc1ccc(N2CCN(C)CC2)cc1 (3D coordinates assigned)
C=c1c(=Cc2[n-]c(=O)n(C)c2[O-])[n-]c(=O)n1Cc1ccc(N2CCN(C)CC2)cc1 (nonaromatic ring conformer: 143.31990299323817 kcal/mol)

>  <smiles>  (3325) 
C=c1c(=Cc2[nH]c(=O)n(C)c2O)[nH]c(=O)n1Cc1ccc(N2CCN(C)CC2)cc1

>  <score_type>  (3325) 
oracle

>  <origin>  (3325) 
adg

>  <m_score__min__energy>  (3325) 
-15.880000000000001

>  <m_primary>  (3325) 
energy

$$$$
39:0
     RDKit          3D

 32 34  0  0  0  0  0  0  0  0999 V2000
   58.2250   32.0930   51.2140 C   0  0  0  0  0  0  0  0  0  0  0  0
   58.7790   31.2960   50.2970 C   0  0  0  0  0  0  0  0  0  0  0  0
   58.5090   29.6380   50.2310 S   0  0  0  0  0  0  0  0  0  0  0  0
   59.4690   29.4060   48.8630 C   0  0  0  0  0  0  0  0  0  0  0  0
   59.7330   28.2390   48.2510 C   0  0  0  0  0  0  0  0  0  0  0  0
   59.2710   27.8910   46.8920 C   0  0  0  0  0  0  0  0  0  0  0  0
   59.7100   28.6570   45.8030 C   0  0  0  0  0  0  0  0  0  0  0  0
   59.2780   28.3580   44.5090 C   0  0  0  0  0  0  0  0  0  0  0  0
   58.3860   27.3040   44.2890 C   0  0  0  0  0  0  0  0  0  0  0  0
   58.0030   26.9990   42.9860 O   0  0  0  0  0  0  0  0  0  0  0  0
   57.8980   26.5540   45.3760 C   0  0  0  0  0  0  0  0  0  0  0  0
   56.9380   25.4450   45.1750 C   0  0  0  0  0  0  0  0  0  0  0  0
   57.3790   24.2450   44.5900 C   0  0  0  0  0  0  0  0  0  0  0  0
   56.4920   23.1760   44.3920 C   0  0  0  0  0  0  0  0  0  0  0  0
   56.9800   21.9320   43.7700 C   0  0  0  0  0  0  0  0  0  0  0  0
   56.2650   21.2860   42.9570 O   0  0  0  0  0  0  0  0  0  0  0  0
   55.1520   23.3120   44.7880 C   0  0  0  0  0  0  0  0  0  0  0  0
   54.7090   24.4960   45.3810 C   0  0  0  0  0  0  0  0  0  0  0  0
   55.5950   25.5590   45.5840 C   0  0  0  0  0  0  0  0  0  0  0  0
   55.1380   26.7130   46.2110 O   0  0  0  0  0  0  0  0  0  0  0  0
   58.3430   26.8560   46.6740 C   0  0  0  0  0  0  0  0  0  0  0  0
   59.9890   30.6510   48.5000 C   0  0  0  0  0  0  0  0  0  0  0  0
   60.7520   30.8040   47.5050 O   0  0  0  0  0  0  0  0  0  0  0  0
   59.6120   31.6990   49.2950 N   0  0  0  0  0  0  0  0  0  0  0  0
   60.0320   33.0900   49.0570 C   0  0  0  0  0  0  0  0  0  0  0  0
   59.3800   33.6340   47.8140 C   0  0  0  0  0  0  0  0  0  0  0  0
   58.1210   33.7090   47.7720 O   0  0  0  0  0  0  0  0  0  0  0  0
   60.1560   34.0500   46.6690 N   0  0  0  0  0  0  0  0  0  0  0  0
   59.5930   35.0320   45.7310 C   0  0  0  0  0  0  0  0  0  0  0  0
   58.5030   34.3960   44.8730 C   0  0  0  0  0  0  0  0  0  0  0  0
   61.4720   33.4570   46.3810 C   0  0  0  0  0  0  0  0  0  0  0  0
   62.5050   33.9040   47.4110 C   0  0  0  0  0  0  0  0  0  0  0  0
  1  2  2  0
  2  3  1  0
  3  4  1  0
  4  5  2  3
  5  6  1  0
  6  7  2  0
  7  8  1  0
  8  9  2  0
  9 10  1  0
  9 11  1  0
 11 12  1  0
 12 13  2  0
 13 14  1  0
 14 15  1  0
 15 16  2  0
 14 17  2  0
 17 18  1  0
 18 19  2  0
 19 20  1  0
 11 21  2  0
  4 22  1  0
 22 23  2  0
 22 24  1  0
 24 25  1  0
 25 26  1  0
 26 27  2  0
 26 28  1  0
 28 29  1  0
 29 30  1  0
 28 31  1  0
 31 32  1  0
 24  2  1  0
 21  6  1  0
 19 12  1  0
M  CHG  2  10  -1  20  -1
M  END
>  <UniqueID>  (3326) 
40

>  <SMILES>  (3326) 
C=c1sc(=Cc2ccc([O-])c(-c3cc(C=O)ccc3[O-])c2)c(=O)n1CC(=O)N(CC)CC

>  <Energy>  (3326) 
95.18028056109056

>  <Genealogy>  (3326) 
C=c1sc(=Cc2ccc([O-])c(-c3cc(C=O)ccc3[O-])c2)c(=O)n1CC(=O)N(CC)CC (protonated)
C=c1sc(=Cc2ccc([O-])c(-c3cc(C=O)ccc3[O-])c2)c(=O)n1CC(=O)N(CC)CC (3D coordinates assigned)
C=c1sc(=Cc2ccc([O-])c(-c3cc(C=O)ccc3[O-])c2)c(=O)n1CC(=O)N(CC)CC (optimized conformer: 95.18028056109056 kcal/mol)

>  <smiles>  (3326) 
C=c1sc(=Cc2ccc(O)c(-c3cc(C=O)ccc3O)c2)c(=O)n1CC(=O)N(CC)CC

>  <score_type>  (3326) 
oracle

>  <origin>  (3326) 
adg

>  <m_score__min__energy>  (3326) 
-14.69

>  <m_primary>  (3326) 
energy

$$$$
40:0
     RDKit          3D

 23 25  0  0  0  0  0  0  0  0999 V2000
   60.8480   30.1360   46.6970 C   0  0  0  0  0  0  0  0  0  0  0  0
   59.6430   29.8460   46.2020 C   0  0  0  0  0  0  0  0  0  0  0  0
   59.2520   28.5730   45.9600 N   0  0  0  0  0  0  0  0  0  0  0  0
   58.0180   28.6890   45.4260 C   0  0  0  0  0  0  0  0  0  0  0  0
   57.2960   27.6260   45.0340 C   0  0  0  0  0  0  0  0  0  0  0  0
   57.1680   26.3770   45.8130 C   0  0  0  0  0  0  0  0  0  0  0  0
   55.9080   25.9490   46.2550 C   0  0  0  0  0  0  0  0  0  0  0  0
   54.7720   26.7110   46.0030 O   0  0  0  0  0  0  0  0  0  0  0  0
   55.7900   24.7830   46.9430 N   0  0  0  0  0  0  0  0  0  0  0  0
   56.8750   24.0100   47.2020 C   0  0  0  0  0  0  0  0  0  0  0  0
   56.7430   22.9370   47.8450 O   0  0  0  0  0  0  0  0  0  0  0  0
   58.1020   24.3900   46.7620 N   0  0  0  0  0  0  0  0  0  0  0  0
   58.2720   25.5460   46.0700 C   0  0  0  0  0  0  0  0  0  0  0  0
   59.4210   25.8540   45.6530 O   0  0  0  0  0  0  0  0  0  0  0  0
   57.6960   30.0320   45.3440 C   0  0  0  0  0  0  0  0  0  0  0  0
   56.6350   30.5250   44.8730 O   0  0  0  0  0  0  0  0  0  0  0  0
   58.7100   30.7640   45.8410 N   0  0  0  0  0  0  0  0  0  0  0  0
   58.7570   32.1980   45.9560 C   0  0  0  0  0  0  0  0  0  0  0  0
   58.5100   33.0090   44.8370 C   0  0  0  0  0  0  0  0  0  0  0  0
   58.5750   34.4020   44.9480 C   0  0  0  0  0  0  0  0  0  0  0  0
   58.8930   34.9920   46.1740 C   0  0  0  0  0  0  0  0  0  0  0  0
   59.1520   34.1900   47.2900 C   0  0  0  0  0  0  0  0  0  0  0  0
   59.0880   32.7970   47.1820 C   0  0  0  0  0  0  0  0  0  0  0  0
  1  2  2  0
  2  3  1  0
  3  4  1  0
  4  5  2  3
  5  6  1  0
  6  7  2  0
  7  8  1  0
  7  9  1  0
  9 10  1  0
 10 11  2  0
 10 12  1  0
 12 13  1  0
 13 14  2  0
  4 15  1  0
 15 16  2  0
 15 17  1  0
 17 18  1  0
 18 19  2  0
 19 20  1  0
 20 21  2  0
 21 22  1  0
 22 23  2  0
 17  2  1  0
 23 18  1  0
 13  6  1  0
M  CHG  4   3  -1   8  -1   9  -1  12  -1
M  END
>  <UniqueID>  (3327) 
41

>  <SMILES>  (3327) 
C=c1[n-]c(=Cc2c([O-])[n-]c(=O)[n-]c2=O)c(=O)n1-c1ccccc1

>  <Energy>  (3327) 
84.02443191643283

>  <Genealogy>  (3327) 
C=c1[n-]c(=Cc2c([O-])[n-]c(=O)[n-]c2=O)c(=O)n1-c1ccccc1 (protonated)
C=c1[n-]c(=Cc2c([O-])[n-]c(=O)[n-]c2=O)c(=O)n1-c1ccccc1 (3D coordinates assigned)
C=c1[n-]c(=Cc2c([O-])[n-]c(=O)[n-]c2=O)c(=O)n1-c1ccccc1 (optimized conformer: 84.02443191643283 kcal/mol)

>  <smiles>  (3327) 
C=c1[nH]c(=Cc2c(O)[nH]c(=O)[nH]c2=O)c(=O)n1-c1ccccc1

>  <score_type>  (3327) 
oracle

>  <origin>  (3327) 
adg

>  <m_score__min__energy>  (3327) 
-16.59

>  <m_primary>  (3327) 
energy

$$$$
45:0
     RDKit          3D

 39 43  0  0  0  0  0  0  0  0999 V2000
   59.7820   29.5270   45.4370 C   0  0  0  0  0  0  0  0  0  0  0  0
   58.6870   30.2930   45.2990 C   0  0  0  0  0  0  0  0  0  0  0  0
   57.4410   29.8520   44.8390 C   0  0  0  0  0  0  0  0  0  0  0  0
   56.9360   28.6090   44.7270 C   0  0  0  0  0  0  0  0  0  0  0  0
   57.2180   27.4960   45.6510 C   0  0  0  0  0  0  0  0  0  0  0  0
   58.4000   27.2980   46.2640 N   0  0  0  0  0  0  0  0  0  0  0  0
   58.1240   26.3570   47.1920 C   0  0  0  0  0  0  0  0  0  0  0  0
   58.9940   25.9120   47.9870 O   0  0  0  0  0  0  0  0  0  0  0  0
   56.8340   25.9710   47.2360 N   0  0  0  0  0  0  0  0  0  0  0  0
   56.2740   26.7100   46.2630 C   0  0  0  0  0  0  0  0  0  0  0  0
   54.9200   26.6820   45.9530 O   0  0  0  0  0  0  0  0  0  0  0  0
   56.7140   30.9860   44.5430 C   0  0  0  0  0  0  0  0  0  0  0  0
   57.4880   32.0650   44.9090 C   0  0  0  0  0  0  0  0  0  0  0  0
   57.0060   33.4790   44.8330 C   0  0  0  0  0  0  0  0  0  0  0  0
   58.6850   31.6530   45.4000 N   0  0  0  0  0  0  0  0  0  0  0  0
   59.7250   32.5140   45.9990 C   0  0  0  0  0  0  0  0  0  0  0  0
   59.7320   32.3950   47.5150 C   0  0  0  0  0  0  0  0  0  0  0  0
   60.0560   31.1500   48.0870 C   0  0  0  0  0  0  0  0  0  0  0  0
   60.0790   30.9540   49.4780 C   0  0  0  0  0  0  0  0  0  0  0  0
   60.5400   29.6300   50.0050 C   0  0  0  0  0  0  0  0  0  0  0  0
   59.7230   28.6710   49.9840 O   0  0  0  0  0  0  0  0  0  0  0  0
   61.8710   29.3820   50.5250 N   0  0  0  0  0  0  0  0  0  0  0  0
   61.8690   28.3070   51.5440 C   0  0  0  0  0  0  0  0  0  0  0  0
   63.3070   27.9620   51.9690 C   0  0  0  0  0  0  0  0  0  0  0  0
   64.1210   29.1810   52.1030 N   0  0  0  0  0  0  0  0  0  0  0  0
   65.5480   29.1290   51.9150 C   0  0  0  0  0  0  0  0  0  0  0  0
   66.1210   30.0450   51.2620 O   0  0  0  0  0  0  0  0  0  0  0  0
   66.3640   28.0130   52.4430 C   0  0  0  0  0  0  0  0  0  0  0  0
   66.8320   27.0110   51.5720 C   0  0  0  0  0  0  0  0  0  0  0  0
   67.6370   25.9730   52.0510 C   0  0  0  0  0  0  0  0  0  0  0  0
   67.9880   25.9280   53.4030 C   0  0  0  0  0  0  0  0  0  0  0  0
   67.5440   26.9280   54.2730 C   0  0  0  0  0  0  0  0  0  0  0  0
   66.7360   27.9680   53.7970 C   0  0  0  0  0  0  0  0  0  0  0  0
   63.4320   30.4710   52.1780 C   0  0  0  0  0  0  0  0  0  0  0  0
   62.5400   30.6480   50.9410 C   0  0  0  0  0  0  0  0  0  0  0  0
   59.7390   32.0330   50.3090 C   0  0  0  0  0  0  0  0  0  0  0  0
   59.4460   33.2820   49.7670 C   0  0  0  0  0  0  0  0  0  0  0  0
   59.4680   33.4910   48.3790 C   0  0  0  0  0  0  0  0  0  0  0  0
   59.2880   34.8970   47.8700 C   0  0  0  0  0  0  0  0  0  0  0  0
  1  2  2  0
  2  3  1  0
  3  4  2  0
  4  5  1  0
  5  6  1  0
  6  7  1  0
  7  8  2  0
  7  9  1  0
  9 10  1  0
 10 11  1  0
  3 12  1  0
 12 13  2  0
 13 14  1  0
 13 15  1  0
 15 16  1  0
 16 17  1  0
 17 18  2  0
 18 19  1  0
 19 20  1  0
 20 21  2  0
 20 22  1  0
 22 23  1  0
 23 24  1  0
 24 25  1  0
 25 26  1  0
 26 27  2  0
 26 28  1  0
 28 29  2  0
 29 30  1  0
 30 31  2  0
 31 32  1  0
 32 33  2  0
 25 34  1  0
 34 35  1  0
 19 36  2  0
 36 37  1  0
 37 38  2  0
 38 39  1  0
 15  2  1  0
 38 17  1  0
 10  5  2  0
 35 22  1  0
 33 28  1  0
M  CHG  4   6  -1   9  -1  11  -1  22   1
M  END
>  <UniqueID>  (3328) 
46

>  <SMILES>  (3328) 
C=c1/c(=C\c2[n-]c(=O)[n-]c2[O-])cc(C)n1Cc1cc(C(=O)[NH+]2CCN(C(=O)c3ccccc3)CC2)ccc1C

>  <Energy>  (3328) 
166.61391161344193

>  <Genealogy>  (3328) 
C=c1c(=Cc2[n-]c(=O)[n-]c2[O-])cc(C)n1Cc1cc(C(=O)[NH+]2CCN(C(=O)c3ccccc3)CC2)ccc1C (protonated)
C=c1/c(=C\c2[n-]c(=O)[n-]c2[O-])cc(C)n1Cc1cc(C(=O)[NH+]2CCN(C(=O)c3ccccc3)CC2)ccc1C (cis-trans isomerization)
C=c1/c(=C\c2[n-]c(=O)[n-]c2[O-])cc(C)n1Cc1cc(C(=O)[NH+]2CCN(C(=O)c3ccccc3)CC2)ccc1C (3D coordinates assigned)
C=c1/c(=C\c2[n-]c(=O)[n-]c2[O-])cc(C)n1Cc1cc(C(=O)[NH+]2CCN(C(=O)c3ccccc3)CC2)ccc1C (nonaromatic ring conformer: 166.61391161344193 kcal/mol)

>  <smiles>  (3328) 
C=c1c(=Cc2[nH]c(=O)[nH]c2O)cc(C)n1Cc1cc(C(=O)N2CCN(C(=O)c3ccccc3)CC2)ccc1C

>  <score_type>  (3328) 
oracle

>  <origin>  (3328) 
adg

>  <m_score__min__energy>  (3328) 
-18.09

>  <m_primary>  (3328) 
energy

$$$$
56:0
     RDKit          3D

 29 32  0  0  0  0  0  0  0  0999 V2000
   51.3310   32.3700   50.9400 N   0  0  0  0  0  0  0  0  0  0  0  0
   52.1280   31.1940   50.8120 C   0  0  0  0  0  0  0  0  0  0  0  0
   51.9220   30.4170   49.8410 O   0  0  0  0  0  0  0  0  0  0  0  0
   53.1800   30.8840   51.8090 C   0  0  0  0  0  0  0  0  0  0  0  0
   52.8390   30.3750   53.0770 C   0  0  0  0  0  0  0  0  0  0  0  0
   53.8320   30.0850   54.0150 C   0  0  0  0  0  0  0  0  0  0  0  0
   55.1770   30.2870   53.7020 C   0  0  0  0  0  0  0  0  0  0  0  0
   55.5420   30.7870   52.4400 C   0  0  0  0  0  0  0  0  0  0  0  0
   56.9270   31.0230   52.1270 N   0  0  0  0  0  0  0  0  0  0  0  0
   57.5920   32.2530   52.5740 C   0  0  0  0  0  0  0  0  0  0  0  0
   58.2390   32.9350   51.3700 C   0  0  0  0  0  0  0  0  0  0  0  0
   59.2860   32.0180   50.6870 C   0  0  0  0  0  0  0  0  0  0  0  0
   59.3900   32.3410   49.2380 N   0  0  0  0  0  0  0  0  0  0  0  0
   58.0960   32.7050   48.6360 C   0  0  0  0  0  0  0  0  0  0  0  0
   58.2080   32.8210   47.0990 C   0  0  0  0  0  0  0  0  0  0  0  0
   59.5920   32.6660   46.5980 N   0  0  0  0  0  0  0  0  0  0  0  0
   60.0230   31.2520   46.5020 C   0  0  0  0  0  0  0  0  0  0  0  0
   58.8470   30.3690   46.1790 C   0  0  0  0  0  0  0  0  0  0  0  0
   58.6240   29.1830   46.9010 C   0  0  0  0  0  0  0  0  0  0  0  0
   57.5310   28.3660   46.5940 C   0  0  0  0  0  0  0  0  0  0  0  0
   56.6530   28.7270   45.5660 C   0  0  0  0  0  0  0  0  0  0  0  0
   55.5620   27.9200   45.2670 O   0  0  0  0  0  0  0  0  0  0  0  0
   56.8750   29.9010   44.8360 C   0  0  0  0  0  0  0  0  0  0  0  0
   57.9720   30.7150   45.1350 C   0  0  0  0  0  0  0  0  0  0  0  0
   60.5400   33.5130   47.3540 C   0  0  0  0  0  0  0  0  0  0  0  0
   60.4250   33.3370   48.8870 C   0  0  0  0  0  0  0  0  0  0  0  0
   59.0940   30.5010   51.0000 C   0  0  0  0  0  0  0  0  0  0  0  0
   57.6280   30.0910   51.2320 C   0  0  0  0  0  0  0  0  0  0  0  0
   54.5400   31.0830   51.5010 C   0  0  0  0  0  0  0  0  0  0  0  0
  1  2  1  0
  2  3  2  0
  2  4  1  0
  4  5  2  0
  5  6  1  0
  6  7  2  0
  7  8  1  0
  8  9  1  0
  9 10  1  0
 10 11  1  0
 11 12  1  0
 12 13  1  0
 13 14  1  0
 14 15  1  0
 15 16  1  0
 16 17  1  0
 17 18  1  0
 18 19  2  0
 19 20  1  0
 20 21  2  0
 21 22  1  0
 21 23  1  0
 23 24  2  0
 16 25  1  0
 25 26  1  0
 12 27  1  0
 27 28  1  0
  8 29  2  0
 29  4  1  0
 28  9  1  0
 26 13  1  0
 24 18  1  0
M  CHG  2   1  -1  22  -1
M  END
>  <UniqueID>  (3329) 
55

>  <SMILES>  (3329) 
[NH-]C(=O)c1cccc(N2CCC(N3CCN(Cc4ccc([O-])cc4)CC3)CC2)c1

>  <Energy>  (3329) 
84.70087919009318

>  <Genealogy>  (3329) 
[NH-]C(=O)c1cccc(N2CCC(N3CCN(Cc4ccc([O-])cc4)CC3)CC2)c1 (protonated)
[NH-]C(=O)c1cccc(N2CCC(N3CCN(Cc4ccc([O-])cc4)CC3)CC2)c1 (3D coordinates assigned)
[NH-]C(=O)c1cccc(N2CCC(N3CCN(Cc4ccc([O-])cc4)CC3)CC2)c1 (nonaromatic ring conformer: 84.70087919009318 kcal/mol)

>  <smiles>  (3329) 
NC(=O)c1cccc(N2CCC(N3CCN(Cc4ccc(O)cc4)CC3)CC2)c1

>  <score_type>  (3329) 
oracle

>  <origin>  (3329) 
adg

>  <m_score__min__energy>  (3329) 
-16.23

>  <m_primary>  (3329) 
energy

$$$$
59:0
     RDKit          3D

 26 28  0  0  0  0  0  0  0  0999 V2000
   56.1510   29.7640   44.1230 C   0  0  0  0  0  0  0  0  0  0  0  0
   57.1500   29.5770   44.9870 C   0  0  0  0  0  0  0  0  0  0  0  0
   57.6500   30.5710   45.6870 O   0  0  0  0  0  0  0  0  0  0  0  0
   58.5300   30.0980   46.5400 C   0  0  0  0  0  0  0  0  0  0  0  0
   59.2710   30.9450   47.4880 C   0  0  0  0  0  0  0  0  0  0  0  0
   58.7890   31.1330   48.6380 O   0  0  0  0  0  0  0  0  0  0  0  0
   60.5170   31.5590   47.1240 N   0  0  0  0  0  0  0  0  0  0  0  0
   61.3530   32.2690   48.0900 C   0  0  0  0  0  0  0  0  0  0  0  0
   60.6160   33.4800   48.6770 C   0  0  0  0  0  0  0  0  0  0  0  0
   60.4370   34.5970   47.6420 C   0  0  0  0  0  0  0  0  0  0  0  0
   59.3550   34.2360   46.6590 C   0  0  0  0  0  0  0  0  0  0  0  0
   59.6260   34.2240   45.2800 C   0  0  0  0  0  0  0  0  0  0  0  0
   58.6290   33.8560   44.3700 C   0  0  0  0  0  0  0  0  0  0  0  0
   57.3620   33.4900   44.8310 C   0  0  0  0  0  0  0  0  0  0  0  0
   57.0900   33.4860   46.2010 C   0  0  0  0  0  0  0  0  0  0  0  0
   58.0830   33.8530   47.1140 C   0  0  0  0  0  0  0  0  0  0  0  0
   58.6240   28.7240   46.4050 C   0  0  0  0  0  0  0  0  0  0  0  0
   57.7680   28.3800   45.3740 C   0  0  0  0  0  0  0  0  0  0  0  0
   57.6400   27.1220   44.9100 C   0  0  0  0  0  0  0  0  0  0  0  0
   57.1430   25.9710   45.6800 C   0  0  0  0  0  0  0  0  0  0  0  0
   57.9130   24.9690   46.1440 N   0  0  0  0  0  0  0  0  0  0  0  0
   57.0610   24.2460   46.9010 C   0  0  0  0  0  0  0  0  0  0  0  0
   57.4110   23.1980   47.5040 O   0  0  0  0  0  0  0  0  0  0  0  0
   55.8060   24.7410   46.9720 N   0  0  0  0  0  0  0  0  0  0  0  0
   55.8810   25.8400   46.2060 C   0  0  0  0  0  0  0  0  0  0  0  0
   54.8200   26.7110   45.9970 O   0  0  0  0  0  0  0  0  0  0  0  0
  1  2  2  0
  2  3  1  0
  3  4  1  0
  4  5  1  0
  5  6  2  0
  5  7  1  0
  7  8  1  0
  8  9  1  0
  9 10  1  0
 10 11  1  0
 11 12  2  0
 12 13  1  0
 13 14  2  0
 14 15  1  0
 15 16  2  0
  4 17  2  0
 17 18  1  0
 18 19  2  0
 19 20  1  0
 20 21  1  0
 21 22  1  0
 22 23  2  0
 22 24  1  0
 24 25  1  0
 25 26  1  0
 18  2  1  0
 25 20  2  0
 16 11  1  0
M  CHG  3  21  -1  24  -1  26  -1
M  END
>  <UniqueID>  (3330) 
58

>  <SMILES>  (3330) 
C=c1oc(C(=O)NCCCc2ccccc2)c/c1=C/c1[n-]c(=O)[n-]c1[O-]

>  <Energy>  (3330) 
104.34159535806647

>  <Genealogy>  (3330) 
C=c1oc(C(=O)NCCCc2ccccc2)cc1=Cc1[n-]c(=O)[n-]c1[O-] (protonated)
C=c1oc(C(=O)NCCCc2ccccc2)c/c1=C/c1[n-]c(=O)[n-]c1[O-] (cis-trans isomerization)
C=c1oc(C(=O)NCCCc2ccccc2)c/c1=C/c1[n-]c(=O)[n-]c1[O-] (3D coordinates assigned)
C=c1oc(C(=O)NCCCc2ccccc2)c/c1=C/c1[n-]c(=O)[n-]c1[O-] (optimized conformer: 104.34159535806647 kcal/mol)

>  <smiles>  (3330) 
C=c1oc(C(=O)NCCCc2ccccc2)cc1=Cc1[nH]c(=O)[nH]c1O

>  <score_type>  (3330) 
oracle

>  <origin>  (3330) 
adg

>  <m_score__min__energy>  (3330) 
-18.260000000000002

>  <m_primary>  (3330) 
energy

$$$$
83:0
     RDKit          3D

 34 38  0  0  0  0  0  0  0  0999 V2000
   58.1520   29.6470   47.2840 C   0  0  0  0  0  0  0  0  0  0  0  0
   57.9400   29.5450   45.9620 C   0  0  0  0  0  0  0  0  0  0  0  0
   57.9260   28.3570   45.2130 C   0  0  0  0  0  0  0  0  0  0  0  0
   58.3400   27.1120   45.5190 C   0  0  0  0  0  0  0  0  0  0  0  0
   57.5590   26.1050   46.2580 C   0  0  0  0  0  0  0  0  0  0  0  0
   58.0600   24.9590   46.7550 N   0  0  0  0  0  0  0  0  0  0  0  0
   56.9650   24.3060   47.2000 C   0  0  0  0  0  0  0  0  0  0  0  0
   57.0270   23.1810   47.7580 O   0  0  0  0  0  0  0  0  0  0  0  0
   55.7980   24.9500   46.9900 N   0  0  0  0  0  0  0  0  0  0  0  0
   56.1920   26.0790   46.3800 C   0  0  0  0  0  0  0  0  0  0  0  0
   55.3180   27.0660   45.9380 O   0  0  0  0  0  0  0  0  0  0  0  0
   57.4070   28.6860   43.9740 C   0  0  0  0  0  0  0  0  0  0  0  0
   57.2110   30.0510   43.9720 C   0  0  0  0  0  0  0  0  0  0  0  0
   56.6460   30.8170   42.8130 C   0  0  0  0  0  0  0  0  0  0  0  0
   57.5390   30.5820   45.1750 N   0  0  0  0  0  0  0  0  0  0  0  0
   57.4340   32.0070   45.5280 C   0  0  0  0  0  0  0  0  0  0  0  0
   58.6480   32.4660   46.2910 C   0  0  0  0  0  0  0  0  0  0  0  0
   59.8840   31.8230   46.1180 C   0  0  0  0  0  0  0  0  0  0  0  0
   61.0140   32.2630   46.8140 C   0  0  0  0  0  0  0  0  0  0  0  0
   60.9250   33.3470   47.7000 C   0  0  0  0  0  0  0  0  0  0  0  0
   62.0940   33.8170   48.4000 N   0  0  0  0  0  0  0  0  0  0  0  0
   61.9860   34.2640   49.7950 C   0  0  0  0  0  0  0  0  0  0  0  0
   63.3540   34.2170   50.4840 C   0  0  0  0  0  0  0  0  0  0  0  0
   64.0810   33.0180   50.0190 N   0  0  0  0  0  0  0  0  0  0  0  0
   65.2230   32.5990   50.8720 C   0  0  0  0  0  0  0  0  0  0  0  0
   66.4990   33.3830   50.5010 C   0  0  0  0  0  0  0  0  0  0  0  0
   67.7640   32.6610   51.0020 C   0  0  0  0  0  0  0  0  0  0  0  0
   67.4760   31.8820   52.1460 O   0  0  0  0  0  0  0  0  0  0  0  0
   66.6970   30.7470   51.7920 C   0  0  0  0  0  0  0  0  0  0  0  0
   65.5060   31.0790   50.8610 C   0  0  0  0  0  0  0  0  0  0  0  0
   64.4620   33.1220   48.5890 C   0  0  0  0  0  0  0  0  0  0  0  0
   63.4060   33.8590   47.7420 C   0  0  0  0  0  0  0  0  0  0  0  0
   59.6910   33.9930   47.8690 C   0  0  0  0  0  0  0  0  0  0  0  0
   58.5630   33.5580   47.1690 C   0  0  0  0  0  0  0  0  0  0  0  0
  1  2  2  0
  2  3  1  0
  3  4  2  0
  4  5  1  0
  5  6  1  0
  6  7  1  0
  7  8  2  0
  7  9  1  0
  9 10  1  0
 10 11  1  0
  3 12  1  0
 12 13  2  0
 13 14  1  0
 13 15  1  0
 15 16  1  0
 16 17  1  0
 17 18  2  0
 18 19  1  0
 19 20  2  0
 20 21  1  0
 21 22  1  0
 22 23  1  0
 23 24  1  0
 24 25  1  0
 25 26  1  0
 26 27  1  0
 27 28  1  0
 28 29  1  0
 29 30  1  0
 24 31  1  0
 31 32  1  0
 20 33  1  0
 33 34  2  0
 15  2  1  0
 34 17  1  0
 10  5  2  0
 32 21  1  0
 30 25  1  0
M  CHG  3   6  -1   9  -1  11  -1
M  END
>  <UniqueID>  (3331) 
81

>  <SMILES>  (3331) 
C=c1/c(=C\c2[n-]c(=O)[n-]c2[O-])cc(C)n1Cc1ccc(N2CCN(C3CCOCC3)CC2)cc1

>  <Energy>  (3331) 
157.55964171078813

>  <Genealogy>  (3331) 
C=c1c(=Cc2[n-]c(=O)[n-]c2[O-])cc(C)n1Cc1ccc(N2CCN(C3CCOCC3)CC2)cc1 (protonated)
C=c1/c(=C\c2[n-]c(=O)[n-]c2[O-])cc(C)n1Cc1ccc(N2CCN(C3CCOCC3)CC2)cc1 (cis-trans isomerization)
C=c1/c(=C\c2[n-]c(=O)[n-]c2[O-])cc(C)n1Cc1ccc(N2CCN(C3CCOCC3)CC2)cc1 (3D coordinates assigned)
C=c1/c(=C\c2[n-]c(=O)[n-]c2[O-])cc(C)n1Cc1ccc(N2CCN(C3CCOCC3)CC2)cc1 (nonaromatic ring conformer: 157.55964171078813 kcal/mol)

>  <smiles>  (3331) 
C=c1c(=Cc2[nH]c(=O)[nH]c2O)cc(C)n1Cc1ccc(N2CCN(C3CCOCC3)CC2)cc1

>  <score_type>  (3331) 
oracle

>  <origin>  (3331) 
adg

>  <m_score__min__energy>  (3331) 
-17.120000000000001

>  <m_primary>  (3331) 
energy

$$$$
5:0
     RDKit          3D

 30 33  0  0  0  0  0  0  0  0999 V2000
   59.7410   28.1760   46.7930 C   0  0  0  0  0  0  0  0  0  0  0  0
   58.7380   28.7770   46.1330 C   0  0  0  0  0  0  0  0  0  0  0  0
   57.8870   28.1880   45.1840 C   0  0  0  0  0  0  0  0  0  0  0  0
   57.6900   26.8980   44.8510 C   0  0  0  0  0  0  0  0  0  0  0  0
   57.1650   25.8530   45.7450 C   0  0  0  0  0  0  0  0  0  0  0  0
   57.9000   24.8630   46.2860 N   0  0  0  0  0  0  0  0  0  0  0  0
   57.0310   24.2480   47.1150 C   0  0  0  0  0  0  0  0  0  0  0  0
   57.3470   23.2420   47.8030 O   0  0  0  0  0  0  0  0  0  0  0  0
   55.7990   24.7990   47.1580 N   0  0  0  0  0  0  0  0  0  0  0  0
   55.9080   25.8230   46.2950 C   0  0  0  0  0  0  0  0  0  0  0  0
   54.8780   26.7160   46.0230 O   0  0  0  0  0  0  0  0  0  0  0  0
   57.1910   29.2270   44.5920 C   0  0  0  0  0  0  0  0  0  0  0  0
   57.5810   30.3880   45.2280 C   0  0  0  0  0  0  0  0  0  0  0  0
   57.0090   31.7450   44.9270 C   0  0  0  0  0  0  0  0  0  0  0  0
   58.0550   32.6510   44.3480 C   0  0  0  0  0  0  0  0  0  0  0  0
   58.4750   32.4630   43.1740 O   0  0  0  0  0  0  0  0  0  0  0  0
   58.6060   33.7080   45.1300 N   0  0  0  0  0  0  0  0  0  0  0  0
   58.5180   34.2070   46.5150 C   0  0  0  0  0  0  0  0  0  0  0  0
   59.4730   35.3410   46.3360 C   0  0  0  0  0  0  0  0  0  0  0  0
   59.5500   34.8220   44.9370 C   0  0  0  0  0  0  0  0  0  0  0  0
   58.5020   30.1170   46.1830 N   0  0  0  0  0  0  0  0  0  0  0  0
   59.1810   31.1090   47.0310 C   0  0  0  0  0  0  0  0  0  0  0  0
   60.6090   31.3620   46.5320 C   0  0  0  0  0  0  0  0  0  0  0  0
   61.3780   32.1520   47.5160 N   0  0  0  0  0  0  0  0  0  0  0  0
   62.1640   33.2020   46.8480 C   0  0  0  0  0  0  0  0  0  0  0  0
   63.1400   33.8500   47.8500 C   0  0  0  0  0  0  0  0  0  0  0  0
   62.6480   33.8310   49.2480 N   0  0  0  0  0  0  0  0  0  0  0  0
   63.1900   32.6950   50.0160 C   0  0  0  0  0  0  0  0  0  0  0  0
   61.1760   33.8960   49.3210 C   0  0  0  0  0  0  0  0  0  0  0  0
   60.4940   32.7460   48.5470 C   0  0  0  0  0  0  0  0  0  0  0  0
  1  2  2  0
  2  3  1  0
  3  4  2  0
  4  5  1  0
  5  6  1  0
  6  7  1  0
  7  8  2  0
  7  9  1  0
  9 10  1  0
 10 11  1  0
  3 12  1  0
 12 13  2  0
 13 14  1  0
 14 15  1  0
 15 16  2  0
 15 17  1  0
 17 18  1  0
 18 19  1  0
 19 20  1  0
 13 21  1  0
 21 22  1  0
 22 23  1  0
 23 24  1  0
 24 25  1  0
 25 26  1  0
 26 27  1  0
 27 28  1  0
 27 29  1  0
 29 30  1  0
 21  2  1  0
 30 24  1  0
 10  5  2  0
 20 17  1  0
M  CHG  3   6  -1   9  -1  11  -1
M  END
>  <UniqueID>  (3332) 
6

>  <SMILES>  (3332) 
C=c1/c(=C\c2[n-]c(=O)[n-]c2[O-])cc(CC(=O)N2CCC2)n1CCN1CCN(C)CC1

>  <Energy>  (3332) 
176.15555437144343

>  <Genealogy>  (3332) 
C=c1c(=Cc2[n-]c(=O)[n-]c2[O-])cc(CC(=O)N2CCC2)n1CCN1CCN(C)CC1 (protonated)
C=c1/c(=C\c2[n-]c(=O)[n-]c2[O-])cc(CC(=O)N2CCC2)n1CCN1CCN(C)CC1 (cis-trans isomerization)
C=c1/c(=C\c2[n-]c(=O)[n-]c2[O-])cc(CC(=O)N2CCC2)n1CCN1CCN(C)CC1 (3D coordinates assigned)
C=c1/c(=C\c2[n-]c(=O)[n-]c2[O-])cc(CC(=O)N2CCC2)n1CCN1CCN(C)CC1 (nonaromatic ring conformer: 176.15555437144343 kcal/mol)

>  <smiles>  (3332) 
C=c1c(=Cc2[nH]c(=O)[nH]c2O)cc(CC(=O)N2CCC2)n1CCN1CCN(C)CC1

>  <score_type>  (3332) 
oracle

>  <origin>  (3332) 
adg

>  <m_score__min__energy>  (3332) 
-16.280000000000001

>  <m_primary>  (3332) 
energy

$$$$
21:0
     RDKit          3D

 28 30  0  0  0  0  0  0  0  0999 V2000
   58.5210   30.2670   47.3760 C   0  0  0  0  0  0  0  0  0  0  0  0
   58.1070   31.0130   46.3380 C   0  0  0  0  0  0  0  0  0  0  0  0
   57.9290   30.5860   45.0100 C   0  0  0  0  0  0  0  0  0  0  0  0
   57.9610   29.3570   44.4580 C   0  0  0  0  0  0  0  0  0  0  0  0
   57.4020   28.1290   45.0570 C   0  0  0  0  0  0  0  0  0  0  0  0
   56.0220   28.0130   45.2740 C   0  0  0  0  0  0  0  0  0  0  0  0
   55.1560   29.0280   44.8810 O   0  0  0  0  0  0  0  0  0  0  0  0
   55.5180   26.8980   45.8640 N   0  0  0  0  0  0  0  0  0  0  0  0
   56.3330   25.8900   46.2670 C   0  0  0  0  0  0  0  0  0  0  0  0
   55.8450   24.8640   46.8080 O   0  0  0  0  0  0  0  0  0  0  0  0
   57.6760   25.9890   46.0930 N   0  0  0  0  0  0  0  0  0  0  0  0
   58.2290   27.0850   45.5090 C   0  0  0  0  0  0  0  0  0  0  0  0
   59.4810   27.1530   45.3830 O   0  0  0  0  0  0  0  0  0  0  0  0
   57.6780   31.7270   44.2690 C   0  0  0  0  0  0  0  0  0  0  0  0
   57.6590   32.7850   45.1510 C   0  0  0  0  0  0  0  0  0  0  0  0
   57.4300   34.2120   44.7530 C   0  0  0  0  0  0  0  0  0  0  0  0
   57.9050   32.3580   46.4120 N   0  0  0  0  0  0  0  0  0  0  0  0
   58.0440   33.2220   47.5930 C   0  0  0  0  0  0  0  0  0  0  0  0
   59.4900   33.5270   47.8420 C   0  0  0  0  0  0  0  0  0  0  0  0
   59.8060   34.6010   48.4240 O   0  0  0  0  0  0  0  0  0  0  0  0
   60.5060   32.6010   47.4290 N   0  0  0  0  0  0  0  0  0  0  0  0
   61.8570   32.6440   47.9130 C   0  0  0  0  0  0  0  0  0  0  0  0
   62.1920   31.9320   49.0750 C   0  0  0  0  0  0  0  0  0  0  0  0
   63.4960   31.9700   49.5760 C   0  0  0  0  0  0  0  0  0  0  0  0
   64.4720   32.7340   48.9320 C   0  0  0  0  0  0  0  0  0  0  0  0
   64.1430   33.4680   47.7900 C   0  0  0  0  0  0  0  0  0  0  0  0
   62.8390   33.4330   47.2820 C   0  0  0  0  0  0  0  0  0  0  0  0
   62.5300   34.2050   46.2100 F   0  0  0  0  0  0  0  0  0  0  0  0
  1  2  2  0
  2  3  1  0
  3  4  2  3
  4  5  1  0
  5  6  2  0
  6  7  1  0
  6  8  1  0
  8  9  1  0
  9 10  2  0
  9 11  1  0
 11 12  1  0
 12 13  2  0
  3 14  1  0
 14 15  2  0
 15 16  1  0
 15 17  1  0
 17 18  1  0
 18 19  1  0
 19 20  2  0
 19 21  1  0
 21 22  1  0
 22 23  2  0
 23 24  1  0
 24 25  2  0
 25 26  1  0
 26 27  2  0
 27 28  1  0
 17  2  1  0
 27 22  1  0
 12  5  1  0
M  CHG  3   7  -1   8  -1  11  -1
M  END
>  <UniqueID>  (3333) 
22

>  <SMILES>  (3333) 
C=c1c(=Cc2c([O-])[n-]c(=O)[n-]c2=O)cc(C)n1CC(=O)Nc1ccccc1F

>  <Energy>  (3333) 
90.32845916783201

>  <Genealogy>  (3333) 
C=c1c(=Cc2c([O-])[n-]c(=O)[n-]c2=O)cc(C)n1CC(=O)Nc1ccccc1F (protonated)
C=c1c(=Cc2c([O-])[n-]c(=O)[n-]c2=O)cc(C)n1CC(=O)Nc1ccccc1F (3D coordinates assigned)
C=c1c(=Cc2c([O-])[n-]c(=O)[n-]c2=O)cc(C)n1CC(=O)Nc1ccccc1F (optimized conformer: 90.32845916783201 kcal/mol)

>  <smiles>  (3333) 
C=c1c(=Cc2c(O)[nH]c(=O)[nH]c2=O)cc(C)n1CC(=O)Nc1ccccc1F

>  <score_type>  (3333) 
oracle

>  <origin>  (3333) 
adg

>  <m_score__min__energy>  (3333) 
-15.5

>  <m_primary>  (3333) 
energy

$$$$
29:0
     RDKit          3D

 29 32  0  0  0  0  0  0  0  0999 V2000
   60.3820   27.8630   45.3810 O   0  0  0  0  0  0  0  0  0  0  0  0
   59.1920   28.0910   45.7220 C   0  0  0  0  0  0  0  0  0  0  0  0
   58.5580   27.2010   46.6500 N   0  0  0  0  0  0  0  0  0  0  0  0
   57.1180   26.9810   46.7410 C   0  0  0  0  0  0  0  0  0  0  0  0
   56.7590   25.7320   45.9840 C   0  0  0  0  0  0  0  0  0  0  0  0
   57.7580   24.8030   45.6490 C   0  0  0  0  0  0  0  0  0  0  0  0
   57.4280   23.6250   44.9700 C   0  0  0  0  0  0  0  0  0  0  0  0
   56.1000   23.3620   44.6290 C   0  0  0  0  0  0  0  0  0  0  0  0
   55.0970   24.2720   44.9710 C   0  0  0  0  0  0  0  0  0  0  0  0
   55.4180   25.4520   45.6510 C   0  0  0  0  0  0  0  0  0  0  0  0
   54.4030   26.3380   45.9940 O   0  0  0  0  0  0  0  0  0  0  0  0
   58.4830   29.2400   45.1260 C   0  0  0  0  0  0  0  0  0  0  0  0
   57.5850   29.0350   44.0700 C   0  0  0  0  0  0  0  0  0  0  0  0
   56.9080   30.1170   43.5010 C   0  0  0  0  0  0  0  0  0  0  0  0
   57.1340   31.4120   43.9740 C   0  0  0  0  0  0  0  0  0  0  0  0
   58.0530   31.6400   45.0110 C   0  0  0  0  0  0  0  0  0  0  0  0
   58.2810   32.9740   45.5100 N   0  0  0  0  0  0  0  0  0  0  0  0
   57.6450   33.4330   46.7510 C   0  0  0  0  0  0  0  0  0  0  0  0
   58.7220   33.8220   47.7660 C   0  0  0  0  0  0  0  0  0  0  0  0
   59.7990   34.7680   47.1640 C   0  0  0  0  0  0  0  0  0  0  0  0
   61.1610   34.2760   47.4230 N   0  0  0  0  0  0  0  0  0  0  0  0
   62.0940   33.8710   46.3800 C   0  0  0  0  0  0  0  0  0  0  0  0
   63.3700   33.4010   47.1160 C   0  0  0  0  0  0  0  0  0  0  0  0
   63.1180   33.5780   48.5410 N   0  0  0  0  0  0  0  0  0  0  0  0
   61.8140   34.0950   48.6670 C   0  0  0  0  0  0  0  0  0  0  0  0
   61.3080   34.3980   49.7790 O   0  0  0  0  0  0  0  0  0  0  0  0
   59.6000   35.0850   45.6630 C   0  0  0  0  0  0  0  0  0  0  0  0
   59.2360   33.8530   44.8190 C   0  0  0  0  0  0  0  0  0  0  0  0
   58.7280   30.5460   45.5790 C   0  0  0  0  0  0  0  0  0  0  0  0
  1  2  2  0
  2  3  1  0
  3  4  1  0
  4  5  1  0
  5  6  2  0
  6  7  1  0
  7  8  2  0
  8  9  1  0
  9 10  2  0
 10 11  1  0
  2 12  1  0
 12 13  2  0
 13 14  1  0
 14 15  2  0
 15 16  1  0
 16 17  1  0
 17 18  1  0
 18 19  1  0
 19 20  1  0
 20 21  1  0
 21 22  1  0
 22 23  1  0
 23 24  1  0
 24 25  1  0
 25 26  2  0
 20 27  1  0
 27 28  1  0
 16 29  2  0
 10  5  1  0
 29 12  1  0
 28 17  1  0
 25 21  1  0
M  CHG  3   3  -1  11  -1  24  -1
M  END
>  <UniqueID>  (3334) 
30

>  <SMILES>  (3334) 
O=C([N-]Cc1ccccc1[O-])c1cccc(N2CCC(N3CC[N-]C3=O)CC2)c1

>  <Energy>  (3334) 
78.21062140735856

>  <Genealogy>  (3334) 
O=C([N-]Cc1ccccc1[O-])c1cccc(N2CCC(N3CC[N-]C3=O)CC2)c1 (protonated)
O=C([N-]Cc1ccccc1[O-])c1cccc(N2CCC(N3CC[N-]C3=O)CC2)c1 (3D coordinates assigned)
O=C([N-]Cc1ccccc1[O-])c1cccc(N2CCC(N3CC[N-]C3=O)CC2)c1 (nonaromatic ring conformer: 78.21062140735856 kcal/mol)

>  <smiles>  (3334) 
O=C(NCc1ccccc1O)c1cccc(N2CCC(N3CCNC3=O)CC2)c1

>  <score_type>  (3334) 
oracle

>  <origin>  (3334) 
adg

>  <m_score__min__energy>  (3334) 
-16.829999999999998

>  <m_primary>  (3334) 
energy

$$$$
31:0
     RDKit          3D

 34 37  0  0  0  0  0  0  0  0999 V2000
   58.0350   28.8690   47.1610 C   0  0  0  0  0  0  0  0  0  0  0  0
   57.9010   29.0830   45.8410 C   0  0  0  0  0  0  0  0  0  0  0  0
   57.7560   28.0970   44.8520 C   0  0  0  0  0  0  0  0  0  0  0  0
   57.9440   26.7640   44.8960 C   0  0  0  0  0  0  0  0  0  0  0  0
   57.3880   25.8540   45.9130 C   0  0  0  0  0  0  0  0  0  0  0  0
   58.0400   24.7990   46.4390 N   0  0  0  0  0  0  0  0  0  0  0  0
   57.0970   24.1940   47.1920 C   0  0  0  0  0  0  0  0  0  0  0  0
   57.3320   23.1570   47.8660 O   0  0  0  0  0  0  0  0  0  0  0  0
   55.8820   24.7780   47.1560 N   0  0  0  0  0  0  0  0  0  0  0  0
   56.0810   25.8190   46.3310 C   0  0  0  0  0  0  0  0  0  0  0  0
   55.0840   26.7140   45.9620 O   0  0  0  0  0  0  0  0  0  0  0  0
   57.3850   28.7590   43.6950 C   0  0  0  0  0  0  0  0  0  0  0  0
   57.4050   30.1070   43.9830 C   0  0  0  0  0  0  0  0  0  0  0  0
   57.0580   31.1830   42.9970 C   0  0  0  0  0  0  0  0  0  0  0  0
   57.7230   30.3130   45.2840 N   0  0  0  0  0  0  0  0  0  0  0  0
   57.7870   31.6300   45.9400 C   0  0  0  0  0  0  0  0  0  0  0  0
   59.1960   31.9530   46.3690 C   0  0  0  0  0  0  0  0  0  0  0  0
   60.1630   30.9420   46.4590 C   0  0  0  0  0  0  0  0  0  0  0  0
   61.4730   31.2430   46.8450 C   0  0  0  0  0  0  0  0  0  0  0  0
   61.8400   32.5650   47.1570 C   0  0  0  0  0  0  0  0  0  0  0  0
   63.2290   32.9230   47.5530 C   0  0  0  0  0  0  0  0  0  0  0  0
   63.8070   33.8710   46.9480 O   0  0  0  0  0  0  0  0  0  0  0  0
   63.9510   32.2000   48.5860 N   0  0  2  0  0  0  0  0  0  0  0  0
   63.0020   31.4970   49.5030 C   0  0  0  0  0  0  0  0  0  0  0  0
   62.9910   32.0520   50.9020 C   0  0  0  0  0  0  0  0  0  0  0  0
   61.9050   32.1200   51.5380 O   0  0  0  0  0  0  0  0  0  0  0  0
   64.2360   32.4510   51.5070 N   0  0  0  0  0  0  0  0  0  0  0  0
   64.3880   32.5450   52.9440 C   0  0  0  0  0  0  0  0  0  0  0  0
   64.6600   33.6530   53.4830 O   0  0  0  0  0  0  0  0  0  0  0  0
   64.2340   31.3440   53.8310 C   0  0  0  0  0  0  0  0  0  0  0  0
   65.3820   32.6060   50.6040 C   0  0  0  0  0  0  0  0  0  0  0  0
   64.9000   33.1330   49.2470 C   0  0  0  0  0  0  0  0  0  0  0  0
   60.8670   33.5760   47.0530 C   0  0  0  0  0  0  0  0  0  0  0  0
   59.5610   33.2740   46.6640 C   0  0  0  0  0  0  0  0  0  0  0  0
  1  2  2  0
  2  3  1  0
  3  4  2  0
  4  5  1  0
  5  6  1  0
  6  7  1  0
  7  8  2  0
  7  9  1  0
  9 10  1  0
 10 11  1  0
  3 12  1  0
 12 13  2  0
 13 14  1  0
 13 15  1  0
 15 16  1  0
 16 17  1  0
 17 18  2  0
 18 19  1  0
 19 20  2  0
 20 21  1  0
 21 22  2  0
 23 21  1  6
 23 24  1  0
 24 25  1  0
 25 26  2  0
 25 27  1  0
 27 28  1  0
 28 29  2  0
 28 30  1  0
 27 31  1  0
 31 32  1  0
 20 33  1  0
 33 34  2  0
 15  2  1  0
 34 17  1  0
 10  5  2  0
 32 23  1  0
M  CHG  4   6  -1   9  -1  11  -1  23   1
M  END
>  <UniqueID>  (3335) 
32

>  <SMILES>  (3335) 
C=c1/c(=C\c2[n-]c(=O)[n-]c2[O-])cc(C)n1Cc1ccc(C(=O)[N@H+]2CCN(C(C)=O)C(=O)C2)cc1

>  <Energy>  (3335) 
144.14462076134302

>  <Genealogy>  (3335) 
C=c1c(=Cc2[n-]c(=O)[n-]c2[O-])cc(C)n1Cc1ccc(C(=O)[NH+]2CCN(C(C)=O)C(=O)C2)cc1 (protonated)
C=c1c(=Cc2[n-]c(=O)[n-]c2[O-])cc(C)n1Cc1ccc(C(=O)[N@H+]2CCN(C(C)=O)C(=O)C2)cc1 (chirality)
C=c1/c(=C\c2[n-]c(=O)[n-]c2[O-])cc(C)n1Cc1ccc(C(=O)[N@H+]2CCN(C(C)=O)C(=O)C2)cc1 (cis-trans isomerization)
C=c1/c(=C\c2[n-]c(=O)[n-]c2[O-])cc(C)n1Cc1ccc(C(=O)[N@H+]2CCN(C(C)=O)C(=O)C2)cc1 (3D coordinates assigned)
C=c1/c(=C\c2[n-]c(=O)[n-]c2[O-])cc(C)n1Cc1ccc(C(=O)[N@H+]2CCN(C(C)=O)C(=O)C2)cc1 (nonaromatic ring conformer: 144.14462076134302 kcal/mol)

>  <smiles>  (3335) 
C=c1c(=Cc2[nH]c(=O)[nH]c2O)cc(C)n1Cc1ccc(C(=O)N2CCN(C(C)=O)C(=O)C2)cc1

>  <score_type>  (3335) 
oracle

>  <origin>  (3335) 
adg

>  <m_score__min__energy>  (3335) 
-16.73

>  <m_primary>  (3335) 
energy

$$$$
38:0
     RDKit          3D

 39 43  0  0  0  0  0  0  0  0999 V2000
   54.3800   28.7080   53.3670 C   0  0  0  0  0  0  0  0  0  0  0  0
   55.0580   29.8150   53.0170 C   0  0  0  0  0  0  0  0  0  0  0  0
   54.6170   30.7880   52.1130 C   0  0  0  0  0  0  0  0  0  0  0  0
   53.4220   30.8480   51.4920 C   0  0  0  0  0  0  0  0  0  0  0  0
   52.2390   31.5260   52.0500 C   0  0  0  0  0  0  0  0  0  0  0  0
   51.8050   31.3360   53.3090 N   0  0  0  0  0  0  0  0  0  0  0  0
   50.6660   32.0610   53.3590 C   0  0  0  0  0  0  0  0  0  0  0  0
   49.9560   32.1370   54.3940 O   0  0  0  0  0  0  0  0  0  0  0  0
   50.3370   32.6820   52.2060 N   0  0  0  0  0  0  0  0  0  0  0  0
   51.3360   32.3260   51.3840 C   0  0  0  0  0  0  0  0  0  0  0  0
   51.3950   32.6840   50.0430 O   0  0  0  0  0  0  0  0  0  0  0  0
   55.6340   31.7230   52.0190 C   0  0  0  0  0  0  0  0  0  0  0  0
   56.6500   31.2900   52.8450 C   0  0  0  0  0  0  0  0  0  0  0  0
   57.9210   32.0640   53.0860 C   0  0  0  0  0  0  0  0  0  0  0  0
   58.6200   32.3750   51.7660 C   0  0  0  0  0  0  0  0  0  0  0  0
   56.3010   30.1380   53.4690 N   0  0  0  0  0  0  0  0  0  0  0  0
   57.1590   29.3750   54.3920 C   0  0  0  0  0  0  0  0  0  0  0  0
   58.2010   28.5910   53.6310 C   0  0  0  0  0  0  0  0  0  0  0  0
   58.5440   27.2910   54.0370 C   0  0  0  0  0  0  0  0  0  0  0  0
   59.5240   26.5750   53.3480 C   0  0  0  0  0  0  0  0  0  0  0  0
   60.1690   27.1430   52.2480 C   0  0  0  0  0  0  0  0  0  0  0  0
   59.8390   28.4430   51.8230 C   0  0  0  0  0  0  0  0  0  0  0  0
   60.5560   29.0690   50.6900 C   0  0  0  0  0  0  0  0  0  0  0  0
   61.6280   29.6970   50.8990 O   0  0  0  0  0  0  0  0  0  0  0  0
   60.0680   28.9350   49.3450 N   0  0  0  0  0  0  0  0  0  0  0  0
   60.1280   30.0840   48.4340 C   0  0  0  0  0  0  0  0  0  0  0  0
   58.9430   30.0460   47.4660 C   0  0  0  0  0  0  0  0  0  0  0  0
   58.8300   28.7050   46.8800 N   0  0  0  0  0  0  0  0  0  0  0  0
   59.0100   28.4960   45.4700 C   0  0  0  0  0  0  0  0  0  0  0  0
   59.8240   27.6160   45.0770 O   0  0  0  0  0  0  0  0  0  0  0  0
   58.2380   29.2780   44.4710 C   0  0  0  0  0  0  0  0  0  0  0  0
   58.3760   30.6710   44.3830 C   0  0  0  0  0  0  0  0  0  0  0  0
   57.6190   31.3930   43.4590 C   0  0  0  0  0  0  0  0  0  0  0  0
   56.7170   30.7180   42.6370 C   0  0  0  0  0  0  0  0  0  0  0  0
   56.5840   29.3690   42.7340 N   0  0  0  0  0  0  0  0  0  0  0  0
   57.3170   28.6430   43.6210 C   0  0  0  0  0  0  0  0  0  0  0  0
   58.7430   27.5650   47.7960 C   0  0  0  0  0  0  0  0  0  0  0  0
   59.9260   27.5920   48.7620 C   0  0  0  0  0  0  0  0  0  0  0  0
   58.8320   29.1490   52.5060 C   0  0  0  0  0  0  0  0  0  0  0  0
  1  2  2  0
  2  3  1  0
  3  4  2  0
  4  5  1  0
  5  6  1  0
  6  7  1  0
  7  8  2  0
  7  9  1  0
  9 10  1  0
 10 11  1  0
  3 12  1  0
 12 13  2  0
 13 14  1  0
 14 15  1  0
 13 16  1  0
 16 17  1  0
 17 18  1  0
 18 19  2  0
 19 20  1  0
 20 21  2  0
 21 22  1  0
 22 23  1  0
 23 24  2  0
 23 25  1  0
 25 26  1  0
 26 27  1  0
 27 28  1  0
 28 29  1  0
 29 30  2  0
 29 31  1  0
 31 32  2  0
 32 33  1  0
 33 34  2  0
 34 35  1  0
 35 36  2  0
 28 37  1  0
 37 38  1  0
 22 39  2  0
 16  2  1  0
 39 18  1  0
 10  5  2  0
 38 25  1  0
 36 31  1  0
M  CHG  4   6  -1   9  -1  11  -1  35   1
M  END
>  <UniqueID>  (3336) 
39

>  <SMILES>  (3336) 
C=c1/c(=C/c2[n-]c(=O)[n-]c2[O-])cc(CC)n1Cc1cccc(C(=O)N2CCN(C(=O)c3ccc[nH+]c3)CC2)c1

>  <Energy>  (3336) 
142.97535727199173

>  <Genealogy>  (3336) 
C=c1c(=Cc2[n-]c(=O)[n-]c2[O-])cc(CC)n1Cc1cccc(C(=O)N2CCN(C(=O)c3ccc[nH+]c3)CC2)c1 (protonated)
C=c1/c(=C/c2[n-]c(=O)[n-]c2[O-])cc(CC)n1Cc1cccc(C(=O)N2CCN(C(=O)c3ccc[nH+]c3)CC2)c1 (cis-trans isomerization)
C=c1/c(=C/c2[n-]c(=O)[n-]c2[O-])cc(CC)n1Cc1cccc(C(=O)N2CCN(C(=O)c3ccc[nH+]c3)CC2)c1 (3D coordinates assigned)
C=c1/c(=C/c2[n-]c(=O)[n-]c2[O-])cc(CC)n1Cc1cccc(C(=O)N2CCN(C(=O)c3ccc[nH+]c3)CC2)c1 (nonaromatic ring conformer: 142.97535727199173 kcal/mol)

>  <smiles>  (3336) 
C=c1c(=Cc2[nH]c(=O)[nH]c2O)cc(CC)n1Cc1cccc(C(=O)N2CCN(C(=O)c3cccnc3)CC2)c1

>  <score_type>  (3336) 
oracle

>  <origin>  (3336) 
adg

>  <m_score__min__energy>  (3336) 
-16.989999999999998

>  <m_primary>  (3336) 
energy

$$$$
41:0
     RDKit          3D

 31 34  0  0  0  0  0  0  0  0999 V2000
   60.8160   28.4990   49.8370 C   0  0  0  0  0  0  0  0  0  0  0  0
   60.1090   28.6800   48.7180 C   0  0  0  0  0  0  0  0  0  0  0  0
   59.0990   27.8690   48.3480 N   0  0  0  0  0  0  0  0  0  0  0  0
   58.7130   28.2590   47.1110 C   0  0  0  0  0  0  0  0  0  0  0  0
   57.7370   27.6860   46.3790 C   0  0  0  0  0  0  0  0  0  0  0  0
   57.2440   26.3000   46.5280 C   0  0  0  0  0  0  0  0  0  0  0  0
   57.9710   25.2420   46.9330 N   0  0  0  0  0  0  0  0  0  0  0  0
   57.0710   24.2380   46.9810 C   0  0  0  0  0  0  0  0  0  0  0  0
   57.3790   23.0650   47.3190 O   0  0  0  0  0  0  0  0  0  0  0  0
   55.8110   24.5900   46.6450 N   0  0  0  0  0  0  0  0  0  0  0  0
   55.9390   25.8980   46.3680 C   0  0  0  0  0  0  0  0  0  0  0  0
   54.8800   26.7100   45.9780 O   0  0  0  0  0  0  0  0  0  0  0  0
   59.4980   29.3290   46.6880 C   0  0  0  0  0  0  0  0  0  0  0  0
   59.5330   29.9120   45.3040 C   0  0  0  0  0  0  0  0  0  0  0  0
   60.3380   29.6500   47.7480 C   0  0  0  0  0  0  0  0  0  0  0  0
   61.3830   30.7000   47.7640 C   0  0  0  0  0  0  0  0  0  0  0  0
   61.6620   31.2540   46.6660 O   0  0  0  0  0  0  0  0  0  0  0  0
   62.0430   31.1660   48.9800 N   0  0  0  0  0  0  0  0  0  0  0  0
   63.3010   31.8840   48.6770 C   0  0  0  0  0  0  0  0  0  0  0  0
   63.0910   33.3710   48.3210 C   0  0  0  0  0  0  0  0  0  0  0  0
   62.0780   34.0690   49.1520 N   0  0  0  0  0  0  0  0  0  0  0  0
   60.9310   34.5940   48.3730 C   0  0  0  0  0  0  0  0  0  0  0  0
   61.0490   34.2060   46.8960 C   0  0  0  0  0  0  0  0  0  0  0  0
   59.6840   33.8970   46.3390 C   0  0  0  0  0  0  0  0  0  0  0  0
   58.6750   33.3910   47.1750 C   0  0  0  0  0  0  0  0  0  0  0  0
   57.3890   33.1670   46.6720 C   0  0  0  0  0  0  0  0  0  0  0  0
   57.1010   33.4540   45.3340 C   0  0  0  0  0  0  0  0  0  0  0  0
   58.0950   33.9740   44.5000 C   0  0  0  0  0  0  0  0  0  0  0  0
   59.3810   34.2020   45.0000 C   0  0  0  0  0  0  0  0  0  0  0  0
   61.6680   33.2860   50.3330 C   0  0  0  0  0  0  0  0  0  0  0  0
   61.1640   31.8810   49.9520 C   0  0  0  0  0  0  0  0  0  0  0  0
  1  2  2  0
  2  3  1  0
  3  4  1  0
  4  5  2  3
  5  6  1  0
  6  7  1  0
  7  8  1  0
  8  9  2  0
  8 10  1  0
 10 11  1  0
 11 12  1  0
  4 13  1  0
 13 14  1  0
 13 15  2  0
 15 16  1  0
 16 17  2  0
 16 18  1  0
 18 19  1  0
 19 20  1  0
 20 21  1  0
 21 22  1  0
 22 23  1  0
 23 24  1  0
 24 25  2  0
 25 26  1  0
 26 27  2  0
 27 28  1  0
 28 29  2  0
 21 30  1  0
 30 31  1  0
 15  2  1  0
 31 18  1  0
 11  6  2  0
 29 24  1  0
M  CHG  4   7  -1  10  -1  12  -1  18   1
M  END
>  <UniqueID>  (3337) 
42

>  <SMILES>  (3337) 
C=c1[nH]c(=Cc2[n-]c(=O)[n-]c2[O-])c(C)c1C(=O)[NH+]1CCN(CCc2ccccc2)CC1

>  <Energy>  (3337) 
142.38599974949

>  <Genealogy>  (3337) 
C=c1[nH]c(=Cc2[n-]c(=O)[n-]c2[O-])c(C)c1C(=O)[NH+]1CCN(CCc2ccccc2)CC1 (protonated)
C=c1[nH]c(=Cc2[n-]c(=O)[n-]c2[O-])c(C)c1C(=O)[NH+]1CCN(CCc2ccccc2)CC1 (3D coordinates assigned)
C=c1[nH]c(=Cc2[n-]c(=O)[n-]c2[O-])c(C)c1C(=O)[NH+]1CCN(CCc2ccccc2)CC1 (nonaromatic ring conformer: 142.38599974949 kcal/mol)

>  <smiles>  (3337) 
C=c1[nH]c(=Cc2[nH]c(=O)[nH]c2O)c(C)c1C(=O)N1CCN(CCc2ccccc2)CC1

>  <score_type>  (3337) 
oracle

>  <origin>  (3337) 
adg

>  <m_score__min__energy>  (3337) 
-15.949999999999999

>  <m_primary>  (3337) 
energy

$$$$
46:0
     RDKit          3D

 26 28  0  0  0  0  0  0  0  0999 V2000
   58.0710   26.7870   43.5530 C   0  0  0  0  0  0  0  0  0  0  0  0
   58.1970   27.1050   44.8510 C   0  0  0  0  0  0  0  0  0  0  0  0
   58.0600   26.2380   45.9480 C   0  0  0  0  0  0  0  0  0  0  0  0
   57.5640   24.9880   46.0280 C   0  0  0  0  0  0  0  0  0  0  0  0
   56.1400   24.6240   45.9310 C   0  0  0  0  0  0  0  0  0  0  0  0
   55.6680   23.3850   45.7100 N   0  0  0  0  0  0  0  0  0  0  0  0
   54.3400   23.5490   45.5570 C   0  0  0  0  0  0  0  0  0  0  0  0
   53.5500   22.5930   45.3380 O   0  0  0  0  0  0  0  0  0  0  0  0
   53.9270   24.8320   45.6470 N   0  0  0  0  0  0  0  0  0  0  0  0
   55.0780   25.4990   45.8660 C   0  0  0  0  0  0  0  0  0  0  0  0
   55.1560   26.8800   45.9980 O   0  0  0  0  0  0  0  0  0  0  0  0
   58.5410   26.9250   47.0480 C   0  0  0  0  0  0  0  0  0  0  0  0
   58.8820   28.1890   46.6120 C   0  0  0  0  0  0  0  0  0  0  0  0
   59.4260   29.2720   47.4930 C   0  0  0  0  0  0  0  0  0  0  0  0
   58.6480   28.3120   45.2850 N   0  0  0  0  0  0  0  0  0  0  0  0
   58.9410   29.5050   44.4750 C   0  0  0  0  0  0  0  0  0  0  0  0
   57.8260   30.5170   44.5540 C   0  0  0  0  0  0  0  0  0  0  0  0
   56.6870   30.1480   44.9510 O   0  0  0  0  0  0  0  0  0  0  0  0
   58.0400   31.8960   44.1750 N   0  0  0  0  0  0  0  0  0  0  0  0
   57.7600   32.3480   42.8080 C   0  0  0  0  0  0  0  0  0  0  0  0
   58.4040   32.8680   45.1720 C   0  0  0  0  0  0  0  0  0  0  0  0
   58.1660   32.6130   46.5330 C   0  0  0  0  0  0  0  0  0  0  0  0
   58.5160   33.5610   47.5000 C   0  0  0  0  0  0  0  0  0  0  0  0
   59.1050   34.7700   47.1160 C   0  0  0  0  0  0  0  0  0  0  0  0
   59.3510   35.0300   45.7650 C   0  0  0  0  0  0  0  0  0  0  0  0
   59.0050   34.0820   44.7960 C   0  0  0  0  0  0  0  0  0  0  0  0
  1  2  2  0
  2  3  1  0
  3  4  2  3
  4  5  1  0
  5  6  1  0
  6  7  1  0
  7  8  2  0
  7  9  1  0
  9 10  1  0
 10 11  1  0
  3 12  1  0
 12 13  2  0
 13 14  1  0
 13 15  1  0
 15 16  1  0
 16 17  1  0
 17 18  2  0
 17 19  1  0
 19 20  1  0
 19 21  1  0
 21 22  2  0
 22 23  1  0
 23 24  2  0
 24 25  1  0
 25 26  2  0
 15  2  1  0
 26 21  1  0
 10  5  2  0
M  CHG  2   9  -1  11  -1
M  END
>  <UniqueID>  (3338) 
47

>  <SMILES>  (3338) 
C=c1c(=Cc2[nH]c(=O)[n-]c2[O-])cc(C)n1CC(=O)N(C)c1ccccc1

>  <Energy>  (3338) 
121.1682937801194

>  <Genealogy>  (3338) 
C=c1c(=Cc2[nH]c(=O)[n-]c2[O-])cc(C)n1CC(=O)N(C)c1ccccc1 (protonated)
C=c1c(=Cc2[nH]c(=O)[n-]c2[O-])cc(C)n1CC(=O)N(C)c1ccccc1 (3D coordinates assigned)
C=c1c(=Cc2[nH]c(=O)[n-]c2[O-])cc(C)n1CC(=O)N(C)c1ccccc1 (optimized conformer: 121.1682937801194 kcal/mol)

>  <smiles>  (3338) 
C=c1c(=Cc2[nH]c(=O)[nH]c2O)cc(C)n1CC(=O)N(C)c1ccccc1

>  <score_type>  (3338) 
oracle

>  <origin>  (3338) 
adg

>  <m_score__min__energy>  (3338) 
-14.859999999999999

>  <m_primary>  (3338) 
energy

$$$$
52:0
     RDKit          3D

 34 37  0  0  0  0  0  0  0  0999 V2000
   60.4520   27.3430   47.0350 C   0  0  0  0  0  0  0  0  0  0  0  0
   59.6500   28.4100   47.1910 C   0  0  0  0  0  0  0  0  0  0  0  0
   58.4280   28.6310   46.5430 C   0  0  0  0  0  0  0  0  0  0  0  0
   57.6290   27.7870   45.8620 C   0  0  0  0  0  0  0  0  0  0  0  0
   57.2090   26.4570   46.3340 C   0  0  0  0  0  0  0  0  0  0  0  0
   58.0280   25.5520   46.8990 N   0  0  0  0  0  0  0  0  0  0  0  0
   57.1870   24.5690   47.2860 C   0  0  0  0  0  0  0  0  0  0  0  0
   57.5860   23.5180   47.8540 O   0  0  0  0  0  0  0  0  0  0  0  0
   55.8820   24.8040   47.0260 N   0  0  0  0  0  0  0  0  0  0  0  0
   55.9140   26.0100   46.4360 C   0  0  0  0  0  0  0  0  0  0  0  0
   54.7830   26.6910   46.0070 O   0  0  0  0  0  0  0  0  0  0  0  0
   58.1060   29.9560   46.7620 C   0  0  0  0  0  0  0  0  0  0  0  0
   59.0630   30.4670   47.6180 C   0  0  0  0  0  0  0  0  0  0  0  0
   59.0690   31.8910   48.1230 C   0  0  0  0  0  0  0  0  0  0  0  0
   59.6640   31.9740   49.5040 C   0  0  0  0  0  0  0  0  0  0  0  0
   60.6510   32.7400   49.6840 O   0  0  0  0  0  0  0  0  0  0  0  0
   59.1130   31.2320   50.6190 N   0  0  0  0  0  0  0  0  0  0  0  0
   58.2320   30.0780   50.3880 C   0  0  0  0  0  0  0  0  0  0  0  0
   57.6140   29.5820   51.7030 C   0  0  0  0  0  0  0  0  0  0  0  0
   57.2500   30.7060   52.5930 N   0  0  0  0  0  0  0  0  0  0  0  0
   56.1820   31.5770   52.0470 C   0  0  0  0  0  0  0  0  0  0  0  0
   54.8210   30.9430   52.1930 C   0  0  0  0  0  0  0  0  0  0  0  0
   54.6960   29.6430   52.7060 C   0  0  0  0  0  0  0  0  0  0  0  0
   53.4360   29.0580   52.8330 C   0  0  0  0  0  0  0  0  0  0  0  0
   52.2900   29.7660   52.4600 C   0  0  0  0  0  0  0  0  0  0  0  0
   52.3930   31.0740   51.9520 C   0  0  0  0  0  0  0  0  0  0  0  0
   51.1770   31.8290   51.5660 C   0  0  0  0  0  0  0  0  0  0  0  0
   51.0290   32.3380   50.2420 N   0  0  0  0  0  0  0  0  0  0  0  0
   50.2600   32.0320   52.4070 O   0  0  0  0  0  0  0  0  0  0  0  0
   53.6690   31.6530   51.8170 C   0  0  0  0  0  0  0  0  0  0  0  0
   58.4400   31.4900   53.0080 C   0  0  0  0  0  0  0  0  0  0  0  0
   59.5970   31.4840   51.9840 C   0  0  0  0  0  0  0  0  0  0  0  0
   59.9980   29.5230   47.8930 N   0  0  0  0  0  0  0  0  0  0  0  0
   61.2100   29.7160   48.7010 C   0  0  0  0  0  0  0  0  0  0  0  0
  1  2  2  0
  2  3  1  0
  3  4  2  3
  4  5  1  0
  5  6  1  0
  6  7  1  0
  7  8  2  0
  7  9  1  0
  9 10  1  0
 10 11  1  0
  3 12  1  0
 12 13  2  0
 13 14  1  0
 14 15  1  0
 15 16  2  0
 15 17  1  0
 17 18  1  0
 18 19  1  0
 19 20  1  0
 20 21  1  0
 21 22  1  0
 22 23  2  0
 23 24  1  0
 24 25  2  0
 25 26  1  0
 26 27  1  0
 27 28  1  0
 27 29  2  0
 26 30  2  0
 20 31  1  0
 31 32  1  0
 13 33  1  0
 33 34  1  0
 33  2  1  0
 10  5  2  0
 32 17  1  0
 30 22  1  0
M  CHG  4   6  -1   9  -1  11  -1  28  -1
M  END
>  <UniqueID>  (3339) 
53

>  <SMILES>  (3339) 
C=c1c(=Cc2[n-]c(=O)[n-]c2[O-])cc(CC(=O)N2CCN(Cc3cccc(C([NH-])=O)c3)CC2)n1C

>  <Energy>  (3339) 
135.09192734849108

>  <Genealogy>  (3339) 
C=c1c(=Cc2[n-]c(=O)[n-]c2[O-])cc(CC(=O)N2CCN(Cc3cccc(C([NH-])=O)c3)CC2)n1C (protonated)
C=c1c(=Cc2[n-]c(=O)[n-]c2[O-])cc(CC(=O)N2CCN(Cc3cccc(C([NH-])=O)c3)CC2)n1C (3D coordinates assigned)
C=c1c(=Cc2[n-]c(=O)[n-]c2[O-])cc(CC(=O)N2CCN(Cc3cccc(C([NH-])=O)c3)CC2)n1C (nonaromatic ring conformer: 135.09192734849108 kcal/mol)

>  <smiles>  (3339) 
C=c1c(=Cc2[nH]c(=O)[nH]c2O)cc(CC(=O)N2CCN(Cc3cccc(C(N)=O)c3)CC2)n1C

>  <score_type>  (3339) 
oracle

>  <origin>  (3339) 
adg

>  <m_score__min__energy>  (3339) 
-22.890000000000001

>  <m_primary>  (3339) 
energy

$$$$
56:0
     RDKit          3D

 26 28  0  0  0  0  0  0  0  0999 V2000
   58.7020   29.6530   48.1400 C   0  0  0  0  0  0  0  0  0  0  0  0
   58.4660   30.1180   46.9040 C   0  0  0  0  0  0  0  0  0  0  0  0
   58.3340   31.4660   46.7800 N   0  0  0  0  0  0  0  0  0  0  0  0
   58.1290   32.0980   45.5970 C   0  0  0  0  0  0  0  0  0  0  0  0
   57.9170   33.8860   45.6170 S   0  0  0  0  0  0  0  0  0  0  0  0
   58.5680   34.1330   47.3100 C   0  0  0  0  0  0  0  0  0  0  0  0
   60.0380   33.8310   47.3910 C   0  0  0  0  0  0  0  0  0  0  0  0
   60.8750   34.0950   46.2960 C   0  0  0  0  0  0  0  0  0  0  0  0
   62.2440   33.8180   46.3710 C   0  0  0  0  0  0  0  0  0  0  0  0
   62.7900   33.2830   47.5470 C   0  0  0  0  0  0  0  0  0  0  0  0
   64.1530   33.0090   47.6360 O   0  0  0  0  0  0  0  0  0  0  0  0
   61.9600   33.0230   48.6420 C   0  0  0  0  0  0  0  0  0  0  0  0
   60.5910   33.2940   48.5670 C   0  0  0  0  0  0  0  0  0  0  0  0
   58.1010   31.3490   44.4090 C   0  0  0  0  0  0  0  0  0  0  0  0
   57.9940   31.9880   43.0420 C   0  0  0  0  0  0  0  0  0  0  0  0
   56.9990   31.2500   42.1540 C   0  0  0  0  0  0  0  0  0  0  0  0
   58.2040   29.9550   44.4970 C   0  0  0  0  0  0  0  0  0  0  0  0
   58.3830   29.2960   45.7360 C   0  0  0  0  0  0  0  0  0  0  0  0
   58.4200   27.9370   45.7960 C   0  0  0  0  0  0  0  0  0  0  0  0
   57.2490   27.0400   45.8980 C   0  0  0  0  0  0  0  0  0  0  0  0
   57.2630   25.7980   46.4190 N   0  0  0  0  0  0  0  0  0  0  0  0
   55.9610   25.4370   46.4040 C   0  0  0  0  0  0  0  0  0  0  0  0
   55.5650   24.3130   46.8100 O   0  0  0  0  0  0  0  0  0  0  0  0
   55.1170   26.3770   45.9300 N   0  0  0  0  0  0  0  0  0  0  0  0
   55.9470   27.3890   45.6270 C   0  0  0  0  0  0  0  0  0  0  0  0
   55.5220   28.6080   45.1150 O   0  0  0  0  0  0  0  0  0  0  0  0
  1  2  2  0
  2  3  1  0
  3  4  2  0
  4  5  1  0
  5  6  1  0
  6  7  1  0
  7  8  2  0
  8  9  1  0
  9 10  2  0
 10 11  1  0
 10 12  1  0
 12 13  2  0
  4 14  1  0
 14 15  1  0
 15 16  1  0
 14 17  2  0
 17 18  1  0
 18 19  2  3
 19 20  1  0
 20 21  1  0
 21 22  1  0
 22 23  2  0
 22 24  1  0
 24 25  1  0
 25 26  1  0
 18  2  1  0
 25 20  2  0
 13  7  1  0
M  CHG  3  21  -1  24  -1  26  -1
M  END
>  <UniqueID>  (3340) 
56

>  <SMILES>  (3340) 
C=c1nc(SCc2ccc(O)cc2)c(CC)cc1=Cc1[n-]c(=O)[n-]c1[O-]

>  <Energy>  (3340) 
81.76104227126199

>  <Genealogy>  (3340) 
C=c1nc(SCc2ccc(O)cc2)c(CC)cc1=Cc1[n-]c(=O)[n-]c1[O-] (protonated)
C=c1nc(SCc2ccc(O)cc2)c(CC)cc1=Cc1[n-]c(=O)[n-]c1[O-] (3D coordinates assigned)
C=c1nc(SCc2ccc(O)cc2)c(CC)cc1=Cc1[n-]c(=O)[n-]c1[O-] (optimized conformer: 81.76104227126199 kcal/mol)

>  <smiles>  (3340) 
C=c1nc(SCc2ccc(O)cc2)c(CC)cc1=Cc1[nH]c(=O)[nH]c1O

>  <score_type>  (3340) 
oracle

>  <origin>  (3340) 
adg

>  <m_score__min__energy>  (3340) 
-16.239999999999998

>  <m_primary>  (3340) 
energy

$$$$
62:0
     RDKit          3D

 35 38  0  0  0  0  0  0  0  0999 V2000
   56.8800   24.7180   44.7670 C   0  0  0  0  0  0  0  0  0  0  0  0
   57.3180   25.7770   45.6720 N   0  0  0  0  0  0  0  0  0  0  0  0
   56.5820   26.8010   46.1480 C   0  0  0  0  0  0  0  0  0  0  0  0
   55.2190   26.9610   45.9310 O   0  0  0  0  0  0  0  0  0  0  0  0
   57.3900   27.6650   46.8610 C   0  0  0  0  0  0  0  0  0  0  0  0
   58.6500   27.1850   46.8080 N   0  0  0  0  0  0  0  0  0  0  0  0
   59.8350   27.7910   47.4100 C   0  0  0  0  0  0  0  0  0  0  0  0
   59.8530   27.5460   48.9190 C   0  0  0  0  0  0  0  0  0  0  0  0
   60.1960   28.8070   49.6490 C   0  0  0  0  0  0  0  0  0  0  0  0
   59.3130   29.6960   49.7920 O   0  0  0  0  0  0  0  0  0  0  0  0
   61.5440   29.0300   50.0840 N   0  0  0  0  0  0  0  0  0  0  0  0
   62.2290   30.2910   50.1370 C   0  0  0  0  0  0  0  0  0  0  0  0
   63.4370   30.3670   50.8410 C   0  0  0  0  0  0  0  0  0  0  0  0
   64.1350   31.5730   50.9180 C   0  0  0  0  0  0  0  0  0  0  0  0
   63.6280   32.7190   50.3010 C   0  0  0  0  0  0  0  0  0  0  0  0
   62.4130   32.6680   49.5990 C   0  0  0  0  0  0  0  0  0  0  0  0
   61.8570   33.8830   48.9600 C   0  0  0  0  0  0  0  0  0  0  0  0
   62.5170   34.9570   49.0010 O   0  0  0  0  0  0  0  0  0  0  0  0
   60.5920   33.8610   48.2730 N   0  0  0  0  0  0  0  0  0  0  0  0
   60.4640   34.5640   46.9870 C   0  0  0  0  0  0  0  0  0  0  0  0
   58.9960   34.7810   46.5880 C   0  0  0  0  0  0  0  0  0  0  0  0
   58.1060   33.5170   46.7390 C   0  0  0  0  0  0  0  0  0  0  0  0
   57.9440   32.7890   45.4140 C   0  0  0  0  0  0  0  0  0  0  0  0
   58.3110   33.3960   44.1980 C   0  0  0  0  0  0  0  0  0  0  0  0
   58.1380   32.7220   42.9870 C   0  0  0  0  0  0  0  0  0  0  0  0
   57.5920   31.4380   42.9700 C   0  0  0  0  0  0  0  0  0  0  0  0
   57.2020   30.8220   44.1670 C   0  0  0  0  0  0  0  0  0  0  0  0
   56.6390   29.4220   44.1540 C   0  0  0  0  0  0  0  0  0  0  0  0
   55.3800   29.3570   44.8920 N   0  0  0  0  0  0  0  0  0  0  0  0
   57.3900   31.4950   45.3860 C   0  0  0  0  0  0  0  0  0  0  0  0
   58.5580   32.5610   47.8720 C   0  0  0  0  0  0  0  0  0  0  0  0
   59.4050   33.2840   48.9190 C   0  0  0  0  0  0  0  0  0  0  0  0
   61.7050   31.4540   49.5440 C   0  0  0  0  0  0  0  0  0  0  0  0
   58.5740   26.0470   46.0830 C   0  0  0  0  0  0  0  0  0  0  0  0
   59.5700   25.3260   45.8050 O   0  0  0  0  0  0  0  0  0  0  0  0
  1  2  1  0
  2  3  1  0
  3  4  1  0
  3  5  2  0
  5  6  1  0
  6  7  1  0
  7  8  1  0
  8  9  1  0
  9 10  2  0
  9 11  1  0
 11 12  1  0
 12 13  2  0
 13 14  1  0
 14 15  2  0
 15 16  1  0
 16 17  1  0
 17 18  2  0
 17 19  1  0
 19 20  1  0
 20 21  1  0
 21 22  1  0
 22 23  1  0
 23 24  2  0
 24 25  1  0
 25 26  2  0
 26 27  1  0
 27 28  1  0
 28 29  1  0
 27 30  2  0
 22 31  1  0
 31 32  1  0
 16 33  2  0
  6 34  1  0
 34 35  2  0
 34  2  1  0
 33 12  1  0
 32 19  1  0
 30 23  1  0
M  CHG  2   4  -1  11  -1
M  END
>  <UniqueID>  (3341) 
62

>  <SMILES>  (3341) 
Cn1c([O-])cn(CCC(=O)[N-]c2cccc(C(=O)N3CCC(c4cccc(CN)c4)CC3)c2)c1=O

>  <Energy>  (3341) 
107.91152426602514

>  <Genealogy>  (3341) 
Cn1c([O-])cn(CCC(=O)[N-]c2cccc(C(=O)N3CCC(c4cccc(CN)c4)CC3)c2)c1=O (protonated)
Cn1c([O-])cn(CCC(=O)[N-]c2cccc(C(=O)N3CCC(c4cccc(CN)c4)CC3)c2)c1=O (3D coordinates assigned)
Cn1c([O-])cn(CCC(=O)[N-]c2cccc(C(=O)N3CCC(c4cccc(CN)c4)CC3)c2)c1=O (nonaromatic ring conformer: 107.91152426602514 kcal/mol)

>  <smiles>  (3341) 
Cn1c(O)cn(CCC(=O)Nc2cccc(C(=O)N3CCC(c4cccc(CN)c4)CC3)c2)c1=O

>  <score_type>  (3341) 
oracle

>  <origin>  (3341) 
adg

>  <m_score__min__energy>  (3341) 
-15.75

>  <m_primary>  (3341) 
energy

$$$$
72:0
     RDKit          3D

 30 33  0  0  0  0  0  0  0  0999 V2000
   54.9390   26.3560   45.9810 O   0  0  0  0  0  0  0  0  0  0  0  0
   55.9010   25.3980   46.2920 C   0  0  0  0  0  0  0  0  0  0  0  0
   55.6900   24.3950   47.1590 N   0  0  0  0  0  0  0  0  0  0  0  0
   56.8500   23.7060   47.1080 C   0  0  0  0  0  0  0  0  0  0  0  0
   57.0520   22.6670   47.7890 O   0  0  0  0  0  0  0  0  0  0  0  0
   57.7730   24.2120   46.2630 N   0  0  0  0  0  0  0  0  0  0  0  0
   57.1730   25.3070   45.7670 C   0  0  0  0  0  0  0  0  0  0  0  0
   57.7640   26.1450   44.7140 C   0  0  0  0  0  0  0  0  0  0  0  0
   58.0840   27.4490   44.8240 C   0  0  0  0  0  0  0  0  0  0  0  0
   57.3340   28.4480   44.2350 C   0  0  0  0  0  0  0  0  0  0  0  0
   57.9370   29.6500   44.5460 C   0  0  0  0  0  0  0  0  0  0  0  0
   57.4760   30.9560   44.0250 C   0  0  0  0  0  0  0  0  0  0  0  0
   57.6160   31.2200   42.8010 O   0  0  0  0  0  0  0  0  0  0  0  0
   56.9970   31.9850   44.9060 N   0  0  0  0  0  0  0  0  0  0  0  0
   57.7280   32.8650   45.5250 C   0  0  0  0  0  0  0  0  0  0  0  0
   58.0460   34.0550   44.9730 N   0  0  0  0  0  0  0  0  0  0  0  0
   58.8640   34.7850   45.7800 C   0  0  0  0  0  0  0  0  0  0  0  0
   59.1800   34.1790   46.9920 C   0  0  0  0  0  0  0  0  0  0  0  0
   60.1860   34.6620   47.9890 C   0  0  0  0  0  0  0  0  0  0  0  0
   61.3840   33.7510   47.9740 C   0  0  0  0  0  0  0  0  0  0  0  0
   62.3370   33.8490   46.9440 C   0  0  0  0  0  0  0  0  0  0  0  0
   63.4930   33.0640   46.9750 C   0  0  0  0  0  0  0  0  0  0  0  0
   63.7100   32.1780   48.0340 C   0  0  0  0  0  0  0  0  0  0  0  0
   62.7720   32.0790   49.0650 C   0  0  0  0  0  0  0  0  0  0  0  0
   61.6160   32.8670   49.0410 C   0  0  0  0  0  0  0  0  0  0  0  0
   58.4140   32.6860   47.0580 S   0  0  0  0  0  0  0  0  0  0  0  0
   59.0390   29.4400   45.3060 N   0  0  0  0  0  0  0  0  0  0  0  0
   60.0270   30.4450   45.7180 C   0  0  0  0  0  0  0  0  0  0  0  0
   59.1580   28.0930   45.4620 C   0  0  0  0  0  0  0  0  0  0  0  0
   60.2240   27.5150   46.0390 C   0  0  0  0  0  0  0  0  0  0  0  0
  1  2  1  0
  2  3  1  0
  3  4  1  0
  4  5  2  0
  4  6  1  0
  6  7  1  0
  7  8  1  0
  8  9  2  0
  9 10  1  0
 10 11  2  0
 11 12  1  0
 12 13  2  0
 12 14  1  0
 14 15  2  3
 15 16  1  0
 16 17  1  0
 17 18  2  0
 18 19  1  0
 19 20  1  0
 20 21  2  0
 21 22  1  0
 22 23  2  0
 23 24  1  0
 24 25  2  0
 18 26  1  0
 11 27  1  0
 27 28  1  0
 27 29  1  0
 29 30  2  0
  7  2  2  0
 29  9  1  0
 26 15  1  0
 25 20  1  0
M  CHG  3   3  -1   6  -1  16  -1
M  END
>  <UniqueID>  (3342) 
72

>  <SMILES>  (3342) 
C=c1/c(=C\c2[n-]c(=O)[n-]c2O)cc(C(=O)N=c2[n-]cc(Cc3ccccc3)s2)n1C

>  <Energy>  (3342) 
156.52059781691707

>  <Genealogy>  (3342) 
C=c1c(=Cc2[n-]c(=O)[n-]c2O)cc(C(=O)N=c2[n-]cc(Cc3ccccc3)s2)n1C (protonated)
C=c1/c(=C\c2[n-]c(=O)[n-]c2O)cc(C(=O)N=c2[n-]cc(Cc3ccccc3)s2)n1C (cis-trans isomerization)
C=c1/c(=C\c2[n-]c(=O)[n-]c2O)cc(C(=O)N=c2[n-]cc(Cc3ccccc3)s2)n1C (3D coordinates assigned)
C=c1/c(=C\c2[n-]c(=O)[n-]c2O)cc(C(=O)N=c2[n-]cc(Cc3ccccc3)s2)n1C (optimized conformer: 156.52059781691707 kcal/mol)

>  <smiles>  (3342) 
C=c1c(=Cc2[nH]c(=O)[nH]c2O)cc(C(=O)N=c2[nH]cc(Cc3ccccc3)s2)n1C

>  <score_type>  (3342) 
oracle

>  <origin>  (3342) 
adg

>  <m_score__min__energy>  (3342) 
-15.57

>  <m_primary>  (3342) 
energy

$$$$
82:0
     RDKit          3D

 31 34  0  0  0  0  0  0  0  0999 V2000
   58.3170   28.7850   46.5460 C   0  0  0  0  0  0  0  0  0  0  0  0
   57.2930   28.0060   46.7240 N   0  0  0  0  0  0  0  0  0  0  0  0
   57.2170   26.6350   46.3050 C   0  0  0  0  0  0  0  0  0  0  0  0
   58.3960   25.8780   46.2990 C   0  0  0  0  0  0  0  0  0  0  0  0
   58.3790   24.5390   45.9000 C   0  0  0  0  0  0  0  0  0  0  0  0
   57.1770   23.9380   45.5180 C   0  0  0  0  0  0  0  0  0  0  0  0
   55.9880   24.6720   45.5500 C   0  0  0  0  0  0  0  0  0  0  0  0
   55.9970   26.0120   45.9540 C   0  0  0  0  0  0  0  0  0  0  0  0
   54.7890   26.6960   46.0360 O   0  0  0  0  0  0  0  0  0  0  0  0
   58.1470   30.2510   46.3570 C   0  0  0  0  0  0  0  0  0  0  0  0
   57.4070   30.7530   45.2680 C   0  0  0  0  0  0  0  0  0  0  0  0
   56.8690   29.8870   44.2040 C   0  0  0  0  0  0  0  0  0  0  0  0
   55.7720   30.1800   43.6620 O   0  0  0  0  0  0  0  0  0  0  0  0
   57.6080   28.7580   43.7320 N   0  0  0  0  0  0  0  0  0  0  0  0
   57.4010   27.6700   42.7620 C   0  0  0  0  0  0  0  0  0  0  0  0
   58.7730   27.0910   42.8770 C   0  0  0  0  0  0  0  0  0  0  0  0
   58.9670   28.2020   43.8550 C   0  0  0  0  0  0  0  0  0  0  0  0
   57.1860   32.0860   45.1680 N   0  0  0  0  0  0  0  0  0  0  0  0
   57.6740   32.9660   46.0740 C   0  0  0  0  0  0  0  0  0  0  0  0
   57.4470   34.1960   45.9090 O   0  0  0  0  0  0  0  0  0  0  0  0
   58.4070   32.5250   47.1440 N   0  0  0  0  0  0  0  0  0  0  0  0
   58.9640   33.4940   48.1090 C   0  0  0  0  0  0  0  0  0  0  0  0
   59.9900   34.3980   47.4190 C   0  0  0  0  0  0  0  0  0  0  0  0
   61.3920   33.9590   47.7480 C   0  0  0  0  0  0  0  0  0  0  0  0
   61.8350   33.9450   49.0810 C   0  0  0  0  0  0  0  0  0  0  0  0
   63.1270   33.5040   49.3870 C   0  0  0  0  0  0  0  0  0  0  0  0
   63.9790   33.0690   48.3700 C   0  0  0  0  0  0  0  0  0  0  0  0
   63.5390   33.0670   47.0430 C   0  0  0  0  0  0  0  0  0  0  0  0
   62.2490   33.5060   46.7310 C   0  0  0  0  0  0  0  0  0  0  0  0
   58.6560   31.1820   47.2910 C   0  0  0  0  0  0  0  0  0  0  0  0
   59.3330   30.7740   48.2770 O   0  0  0  0  0  0  0  0  0  0  0  0
  1  2  2  0
  2  3  1  0
  3  4  2  0
  4  5  1  0
  5  6  2  0
  6  7  1  0
  7  8  2  0
  8  9  1  0
  1 10  1  0
 10 11  2  0
 11 12  1  0
 12 13  2  0
 12 14  1  0
 14 15  1  0
 15 16  1  0
 16 17  1  0
 11 18  1  0
 18 19  1  0
 19 20  2  0
 19 21  1  0
 21 22  1  0
 22 23  1  0
 23 24  1  0
 24 25  2  0
 25 26  1  0
 26 27  2  0
 27 28  1  0
 28 29  2  0
 21 30  1  0
 30 31  2  0
  8  3  1  0
 30 10  1  0
 17 14  1  0
 29 24  1  0
M  CHG  2   9  -1  18  -1
M  END
>  <UniqueID>  (3343) 
82

>  <SMILES>  (3343) 
O=C(c1[n-]c(=O)n(CCc2ccccc2)c(=O)c1/C=N/c1ccccc1[O-])N1CCC1

>  <Energy>  (3343) 
112.71236491177902

>  <Genealogy>  (3343) 
O=C(c1[n-]c(=O)n(CCc2ccccc2)c(=O)c1C=Nc1ccccc1[O-])N1CCC1 (protonated)
O=C(c1[n-]c(=O)n(CCc2ccccc2)c(=O)c1/C=N/c1ccccc1[O-])N1CCC1 (cis-trans isomerization)
O=C(c1[n-]c(=O)n(CCc2ccccc2)c(=O)c1/C=N/c1ccccc1[O-])N1CCC1 (3D coordinates assigned)
O=C(c1[n-]c(=O)n(CCc2ccccc2)c(=O)c1/C=N/c1ccccc1[O-])N1CCC1 (nonaromatic ring conformer: 112.71236491177902 kcal/mol)

>  <smiles>  (3343) 
O=C(c1[nH]c(=O)n(CCc2ccccc2)c(=O)c1C=Nc1ccccc1O)N1CCC1

>  <score_type>  (3343) 
oracle

>  <origin>  (3343) 
adg

>  <m_score__min__energy>  (3343) 
-14.109999999999999

>  <m_primary>  (3343) 
energy

$$$$
84:0
     RDKit          3D

 29 32  0  0  0  0  0  0  0  0999 V2000
   54.4830   28.1790   52.9990 C   0  0  0  0  0  0  0  0  0  0  0  0
   54.7350   29.4800   52.7860 C   0  0  0  0  0  0  0  0  0  0  0  0
   53.8250   30.4520   52.3370 C   0  0  0  0  0  0  0  0  0  0  0  0
   52.4860   30.4130   52.1970 C   0  0  0  0  0  0  0  0  0  0  0  0
   51.7370   30.8080   50.9940 C   0  0  0  0  0  0  0  0  0  0  0  0
   51.7040   30.0780   49.8670 N   0  0  0  0  0  0  0  0  0  0  0  0
   51.0250   30.8660   49.0050 C   0  0  0  0  0  0  0  0  0  0  0  0
   50.7690   30.5150   47.8250 O   0  0  0  0  0  0  0  0  0  0  0  0
   50.6520   32.0640   49.5040 N   0  0  0  0  0  0  0  0  0  0  0  0
   51.1230   32.0180   50.7600 C   0  0  0  0  0  0  0  0  0  0  0  0
   51.0180   33.0700   51.6630 O   0  0  0  0  0  0  0  0  0  0  0  0
   54.5770   31.5730   52.0280 C   0  0  0  0  0  0  0  0  0  0  0  0
   55.8840   31.2790   52.3500 C   0  0  0  0  0  0  0  0  0  0  0  0
   57.0360   32.2230   52.1660 C   0  0  0  0  0  0  0  0  0  0  0  0
   55.9830   30.0190   52.8330 N   0  0  0  0  0  0  0  0  0  0  0  0
   57.2360   29.3330   53.1820 C   0  0  0  0  0  0  0  0  0  0  0  0
   58.1630   29.3330   52.0100 C   0  0  0  0  0  0  0  0  0  0  0  0
   59.4490   28.9380   52.0530 N   0  0  0  0  0  0  0  0  0  0  0  0
   59.9250   29.1010   50.8280 N   0  0  0  0  0  0  0  0  0  0  0  0
   58.9110   29.5900   50.0850 C   0  0  0  0  0  0  0  0  0  0  0  0
   59.0090   29.9200   48.6450 C   0  0  0  0  0  0  0  0  0  0  0  0
   59.2610   28.8970   47.7130 C   0  0  0  0  0  0  0  0  0  0  0  0
   59.3700   29.1850   46.3520 C   0  0  0  0  0  0  0  0  0  0  0  0
   59.2300   30.4960   45.9030 C   0  0  0  0  0  0  0  0  0  0  0  0
   58.9770   31.5250   46.8110 C   0  0  0  0  0  0  0  0  0  0  0  0
   58.8630   31.2520   48.1890 C   0  0  0  0  0  0  0  0  0  0  0  0
   58.6090   32.2730   49.1210 O   0  0  0  0  0  0  0  0  0  0  0  0
   59.6020   33.1140   49.6990 C   0  0  0  0  0  0  0  0  0  0  0  0
   57.8280   29.7350   50.8100 O   0  0  0  0  0  0  0  0  0  0  0  0
  1  2  2  0
  2  3  1  0
  3  4  2  0
  4  5  1  0
  5  6  1  0
  6  7  1  0
  7  8  2  0
  7  9  1  0
  9 10  1  0
 10 11  1  0
  3 12  1  0
 12 13  2  0
 13 14  1  0
 13 15  1  0
 15 16  1  0
 16 17  1  0
 17 18  2  0
 18 19  1  0
 19 20  2  0
 20 21  1  0
 21 22  2  0
 22 23  1  0
 23 24  2  0
 24 25  1  0
 25 26  2  0
 26 27  1  0
 27 28  1  0
 20 29  1  0
 15  2  1  0
 29 17  1  0
 10  5  2  0
 26 21  1  0
M  CHG  3   6  -1   9  -1  11  -1
M  END
>  <UniqueID>  (3344) 
84

>  <SMILES>  (3344) 
C=c1/c(=C\c2[n-]c(=O)[n-]c2[O-])cc(C)n1Cc1nnc(-c2ccccc2OC)o1

>  <Energy>  (3344) 
151.3373866893504

>  <Genealogy>  (3344) 
C=c1c(=Cc2[n-]c(=O)[n-]c2[O-])cc(C)n1Cc1nnc(-c2ccccc2OC)o1 (protonated)
C=c1/c(=C\c2[n-]c(=O)[n-]c2[O-])cc(C)n1Cc1nnc(-c2ccccc2OC)o1 (cis-trans isomerization)
C=c1/c(=C\c2[n-]c(=O)[n-]c2[O-])cc(C)n1Cc1nnc(-c2ccccc2OC)o1 (3D coordinates assigned)
C=c1/c(=C\c2[n-]c(=O)[n-]c2[O-])cc(C)n1Cc1nnc(-c2ccccc2OC)o1 (optimized conformer: 151.3373866893504 kcal/mol)

>  <smiles>  (3344) 
C=c1c(=Cc2[nH]c(=O)[nH]c2O)cc(C)n1Cc1nnc(-c2ccccc2OC)o1

>  <score_type>  (3344) 
oracle

>  <origin>  (3344) 
adg

>  <m_score__min__energy>  (3344) 
-16.760000000000002

>  <m_primary>  (3344) 
energy

$$$$
8:0
     RDKit          3D

 23 24  0  0  0  0  0  0  0  0999 V2000
   55.9060   29.8120   43.0670 C   0  0  0  0  0  0  0  0  0  0  0  0
   56.6590   29.5720   44.1420 C   0  0  0  0  0  0  0  0  0  0  0  0
   56.5200   28.4370   44.8690 N   0  0  0  0  0  0  0  0  0  0  0  0
   57.4490   28.5390   45.8410 C   0  0  0  0  0  0  0  0  0  0  0  0
   57.6660   27.6230   46.7970 C   0  0  0  0  0  0  0  0  0  0  0  0
   57.1690   26.2350   46.7260 C   0  0  0  0  0  0  0  0  0  0  0  0
   57.8910   25.1330   47.0040 N   0  0  0  0  0  0  0  0  0  0  0  0
   57.0160   24.1250   46.7980 C   0  0  0  0  0  0  0  0  0  0  0  0
   57.3240   22.9160   46.9570 O   0  0  0  0  0  0  0  0  0  0  0  0
   55.7830   24.5150   46.4070 N   0  0  0  0  0  0  0  0  0  0  0  0
   55.8990   25.8520   46.3670 C   0  0  0  0  0  0  0  0  0  0  0  0
   54.8620   26.7060   46.0090 O   0  0  0  0  0  0  0  0  0  0  0  0
   58.1300   29.7250   45.6820 C   0  0  0  0  0  0  0  0  0  0  0  0
   59.0830   30.1320   46.4010 O   0  0  0  0  0  0  0  0  0  0  0  0
   57.6320   30.3940   44.6260 N   0  0  0  0  0  0  0  0  0  0  0  0
   58.1250   31.6770   44.1040 C   0  0  0  0  0  0  0  0  0  0  0  0
   57.7850   32.8000   45.0480 C   0  0  0  0  0  0  0  0  0  0  0  0
   56.5720   33.0060   45.3160 O   0  0  0  0  0  0  0  0  0  0  0  0
   58.8120   33.6530   45.6120 N   0  0  0  0  0  0  0  0  0  0  0  0
   59.2410   34.8460   44.8730 C   0  0  0  0  0  0  0  0  0  0  0  0
   59.4290   33.3580   46.9230 C   0  0  0  0  0  0  0  0  0  0  0  0
   58.4150   32.7360   47.8900 C   0  0  0  0  0  0  0  0  0  0  0  0
   60.0920   34.6060   47.5210 C   0  0  0  0  0  0  0  0  0  0  0  0
  1  2  2  0
  2  3  1  0
  3  4  1  0
  4  5  2  3
  5  6  1  0
  6  7  1  0
  7  8  1  0
  8  9  2  0
  8 10  1  0
 10 11  1  0
 11 12  1  0
  4 13  1  0
 13 14  2  0
 13 15  1  0
 15 16  1  0
 16 17  1  0
 17 18  2  0
 17 19  1  0
 19 20  1  0
 19 21  1  0
 21 22  1  0
 21 23  1  0
 15  2  1  0
 11  6  2  0
M  CHG  4   3  -1   7  -1  10  -1  12  -1
M  END
>  <UniqueID>  (3345) 
9

>  <SMILES>  (3345) 
C=c1[n-]c(=Cc2[n-]c(=O)[n-]c2[O-])c(=O)n1CC(=O)N(C)C(C)C

>  <Energy>  (3345) 
96.93480060010656

>  <Genealogy>  (3345) 
C=c1[n-]c(=Cc2[n-]c(=O)[n-]c2[O-])c(=O)n1CC(=O)N(C)C(C)C (protonated)
C=c1[n-]c(=Cc2[n-]c(=O)[n-]c2[O-])c(=O)n1CC(=O)N(C)C(C)C (3D coordinates assigned)
C=c1[n-]c(=Cc2[n-]c(=O)[n-]c2[O-])c(=O)n1CC(=O)N(C)C(C)C (optimized conformer: 96.93480060010656 kcal/mol)

>  <smiles>  (3345) 
C=c1[nH]c(=Cc2[nH]c(=O)[nH]c2O)c(=O)n1CC(=O)N(C)C(C)C

>  <score_type>  (3345) 
oracle

>  <origin>  (3345) 
adg

>  <m_score__min__energy>  (3345) 
-16

>  <m_primary>  (3345) 
energy

$$$$
14:0
     RDKit          3D

 31 34  0  0  0  0  0  0  0  0999 V2000
   57.8410   30.1000   43.7810 C   0  0  0  0  0  0  0  0  0  0  0  0
   58.2750   30.1750   45.0500 C   0  0  0  0  0  0  0  0  0  0  0  0
   58.5940   29.0960   45.8810 C   0  0  0  0  0  0  0  0  0  0  0  0
   58.4900   27.7840   45.5940 C   0  0  0  0  0  0  0  0  0  0  0  0
   57.2730   26.9850   45.8200 C   0  0  0  0  0  0  0  0  0  0  0  0
   57.2840   25.7690   46.3930 N   0  0  0  0  0  0  0  0  0  0  0  0
   55.9750   25.4500   46.4800 C   0  0  0  0  0  0  0  0  0  0  0  0
   55.5740   24.3570   46.9600 O   0  0  0  0  0  0  0  0  0  0  0  0
   55.1280   26.3970   46.0240 N   0  0  0  0  0  0  0  0  0  0  0  0
   55.9630   27.3680   45.6200 C   0  0  0  0  0  0  0  0  0  0  0  0
   55.5340   28.5940   45.1270 O   0  0  0  0  0  0  0  0  0  0  0  0
   58.9900   29.6450   47.0920 C   0  0  0  0  0  0  0  0  0  0  0  0
   58.8910   31.0150   46.9600 C   0  0  0  0  0  0  0  0  0  0  0  0
   59.1990   31.9670   48.0450 C   0  0  0  0  0  0  0  0  0  0  0  0
   58.2420   32.5860   48.5860 O   0  0  0  0  0  0  0  0  0  0  0  0
   60.5530   32.2250   48.4730 N   0  0  0  0  0  0  0  0  0  0  0  0
   60.7840   32.7160   49.8400 C   0  0  0  0  0  0  0  0  0  0  0  0
   62.2160   33.2300   50.0340 C   0  0  0  0  0  0  0  0  0  0  0  0
   63.1930   32.2850   49.4740 N   0  0  0  0  0  0  0  0  0  0  0  0
   64.4880   32.1230   50.0940 C   0  0  0  0  0  0  0  0  0  0  0  0
   64.7170   31.0860   51.0180 C   0  0  0  0  0  0  0  0  0  0  0  0
   65.9700   30.9370   51.6190 C   0  0  0  0  0  0  0  0  0  0  0  0
   67.0080   31.8190   51.3080 C   0  0  0  0  0  0  0  0  0  0  0  0
   68.2210   31.6710   51.8940 F   0  0  0  0  0  0  0  0  0  0  0  0
   66.7920   32.8550   50.3950 C   0  0  0  0  0  0  0  0  0  0  0  0
   67.7980   33.7110   50.0900 F   0  0  0  0  0  0  0  0  0  0  0  0
   65.5390   33.0080   49.7910 C   0  0  0  0  0  0  0  0  0  0  0  0
   62.9230   31.6260   48.1860 C   0  0  0  0  0  0  0  0  0  0  0  0
   61.6660   32.1890   47.5140 C   0  0  0  0  0  0  0  0  0  0  0  0
   58.4780   31.3420   45.7120 N   0  0  0  0  0  0  0  0  0  0  0  0
   58.3420   32.6930   45.1560 C   0  0  0  0  0  0  0  0  0  0  0  0
  1  2  2  0
  2  3  1  0
  3  4  2  0
  4  5  1  0
  5  6  1  0
  6  7  1  0
  7  8  2  0
  7  9  1  0
  9 10  1  0
 10 11  1  0
  3 12  1  0
 12 13  2  0
 13 14  1  0
 14 15  2  0
 14 16  1  0
 16 17  1  0
 17 18  1  0
 18 19  1  0
 19 20  1  0
 20 21  2  0
 21 22  1  0
 22 23  2  0
 23 24  1  0
 23 25  1  0
 25 26  1  0
 25 27  2  0
 19 28  1  0
 28 29  1  0
 13 30  1  0
 30 31  1  0
 30  2  1  0
 10  5  2  0
 29 16  1  0
 27 20  1  0
M  CHG  3   6  -1   9  -1  11  -1
M  END
>  <UniqueID>  (3346) 
15

>  <SMILES>  (3346) 
C=c1/c(=C/c2[n-]c(=O)[n-]c2[O-])cc(C(=O)N2CCN(c3ccc(F)c(F)c3)CC2)n1C

>  <Energy>  (3346) 
126.95194048540114

>  <Genealogy>  (3346) 
C=c1c(=Cc2[n-]c(=O)[n-]c2[O-])cc(C(=O)N2CCN(c3ccc(F)c(F)c3)CC2)n1C (protonated)
C=c1/c(=C/c2[n-]c(=O)[n-]c2[O-])cc(C(=O)N2CCN(c3ccc(F)c(F)c3)CC2)n1C (cis-trans isomerization)
C=c1/c(=C/c2[n-]c(=O)[n-]c2[O-])cc(C(=O)N2CCN(c3ccc(F)c(F)c3)CC2)n1C (3D coordinates assigned)
C=c1/c(=C/c2[n-]c(=O)[n-]c2[O-])cc(C(=O)N2CCN(c3ccc(F)c(F)c3)CC2)n1C (nonaromatic ring conformer: 126.95194048540114 kcal/mol)

>  <smiles>  (3346) 
C=c1c(=Cc2[nH]c(=O)[nH]c2O)cc(C(=O)N2CCN(c3ccc(F)c(F)c3)CC2)n1C

>  <score_type>  (3346) 
oracle

>  <origin>  (3346) 
adg

>  <m_score__min__energy>  (3346) 
-17.190000000000001

>  <m_primary>  (3346) 
energy

$$$$
15:0
     RDKit          3D

 33 36  0  0  0  0  0  0  0  0999 V2000
   53.8050   29.7710   54.8050 C   0  0  0  0  0  0  0  0  0  0  0  0
   54.3770   30.3180   53.7160 C   0  0  0  0  0  0  0  0  0  0  0  0
   53.7270   30.6150   52.5080 C   0  0  0  0  0  0  0  0  0  0  0  0
   52.4220   30.4150   52.2160 C   0  0  0  0  0  0  0  0  0  0  0  0
   51.7510   30.8020   50.9530 C   0  0  0  0  0  0  0  0  0  0  0  0
   51.6660   30.0480   49.8380 N   0  0  0  0  0  0  0  0  0  0  0  0
   51.0060   30.8440   48.9690 C   0  0  0  0  0  0  0  0  0  0  0  0
   50.7250   30.4810   47.7970 O   0  0  0  0  0  0  0  0  0  0  0  0
   50.6700   32.0610   49.4580 N   0  0  0  0  0  0  0  0  0  0  0  0
   51.1500   32.0170   50.7120 C   0  0  0  0  0  0  0  0  0  0  0  0
   51.0220   33.0590   51.6240 O   0  0  0  0  0  0  0  0  0  0  0  0
   54.7020   31.1300   51.6630 C   0  0  0  0  0  0  0  0  0  0  0  0
   55.8810   31.1430   52.3780 C   0  0  0  0  0  0  0  0  0  0  0  0
   57.1980   31.5890   51.8190 C   0  0  0  0  0  0  0  0  0  0  0  0
   55.6930   30.6550   53.6270 N   0  0  0  0  0  0  0  0  0  0  0  0
   56.7470   30.5200   54.6470 C   0  0  0  0  0  0  0  0  0  0  0  0
   57.9420   29.7650   54.0970 C   0  0  0  0  0  0  0  0  0  0  0  0
   59.1470   30.4500   53.8930 C   0  0  0  0  0  0  0  0  0  0  0  0
   60.2610   29.7940   53.3690 C   0  0  0  0  0  0  0  0  0  0  0  0
   60.1760   28.4320   53.0360 C   0  0  0  0  0  0  0  0  0  0  0  0
   61.2980   27.7180   52.4570 N   0  0  0  0  0  0  0  0  0  0  0  0
   61.4800   26.2730   52.6810 C   0  0  0  0  0  0  0  0  0  0  0  0
   62.6720   25.7140   51.8830 C   0  0  0  0  0  0  0  0  0  0  0  0
   63.9060   26.5200   52.0240 N   0  0  0  0  0  0  0  0  0  0  0  0
   64.8930   25.9700   53.3580 S   0  0  0  0  0  0  0  0  0  0  0  0
   66.6170   26.0130   52.9220 C   0  0  0  0  0  0  0  0  0  0  0  0
   64.5100   24.5690   53.7420 O   0  0  0  0  0  0  0  0  0  0  0  0
   64.6880   26.8760   54.5410 O   0  0  0  0  0  0  0  0  0  0  0  0
   63.6950   27.9870   52.1010 C   0  0  0  0  0  0  0  0  0  0  0  0
   62.2990   28.4190   51.6440 C   0  0  0  0  0  0  0  0  0  0  0  0
   58.9920   27.7900   53.2270 N   0  0  0  0  0  0  0  0  0  0  0  0
   57.8840   28.3970   53.7350 C   0  0  0  0  0  0  0  0  0  0  0  0
   56.6280   27.5800   53.8530 C   0  0  0  0  0  0  0  0  0  0  0  0
  1  2  2  0
  2  3  1  0
  3  4  2  3
  4  5  1  0
  5  6  1  0
  6  7  1  0
  7  8  2  0
  7  9  1  0
  9 10  1  0
 10 11  1  0
  3 12  1  0
 12 13  2  0
 13 14  1  0
 13 15  1  0
 15 16  1  0
 16 17  1  0
 17 18  2  0
 18 19  1  0
 19 20  2  0
 20 21  1  0
 21 22  1  0
 22 23  1  0
 23 24  1  0
 24 25  1  0
 25 26  1  0
 25 27  2  0
 25 28  2  0
 24 29  1  0
 29 30  1  0
 20 31  1  0
 31 32  2  0
 32 33  1  0
 15  2  1  0
 32 17  1  0
 10  5  2  0
 30 21  1  0
M  CHG  3   6  -1   9  -1  11  -1
M  END
>  <UniqueID>  (3347) 
16

>  <SMILES>  (3347) 
C=c1c(=Cc2[n-]c(=O)[n-]c2[O-])cc(C)n1Cc1ccc(N2CCN(S(C)(=O)=O)CC2)nc1C

>  <Energy>  (3347) 
128.72485982820447

>  <Genealogy>  (3347) 
C=c1c(=Cc2[n-]c(=O)[n-]c2[O-])cc(C)n1Cc1ccc(N2CCN(S(C)(=O)=O)CC2)nc1C (protonated)
C=c1c(=Cc2[n-]c(=O)[n-]c2[O-])cc(C)n1Cc1ccc(N2CCN(S(C)(=O)=O)CC2)nc1C (3D coordinates assigned)
C=c1c(=Cc2[n-]c(=O)[n-]c2[O-])cc(C)n1Cc1ccc(N2CCN(S(C)(=O)=O)CC2)nc1C (nonaromatic ring conformer: 128.72485982820447 kcal/mol)

>  <smiles>  (3347) 
C=c1c(=Cc2[nH]c(=O)[nH]c2O)cc(C)n1Cc1ccc(N2CCN(S(C)(=O)=O)CC2)nc1C

>  <score_type>  (3347) 
oracle

>  <origin>  (3347) 
adg

>  <m_score__min__energy>  (3347) 
-18.039999999999999

>  <m_primary>  (3347) 
energy

$$$$
22:0
     RDKit          3D

 23 25  0  0  0  0  0  0  0  0999 V2000
   57.1940   32.1410   53.1690 C   0  0  0  0  0  0  0  0  0  0  0  0
   56.2180   31.3310   52.7500 C   0  0  0  0  0  0  0  0  0  0  0  0
   55.0290   31.8100   52.3150 N   0  0  0  0  0  0  0  0  0  0  0  0
   54.3260   30.7110   51.9700 C   0  0  0  0  0  0  0  0  0  0  0  0
   53.0690   30.7160   51.5020 C   0  0  0  0  0  0  0  0  0  0  0  0
   51.9760   31.5250   52.0730 C   0  0  0  0  0  0  0  0  0  0  0  0
   51.6460   31.4850   53.3760 N   0  0  0  0  0  0  0  0  0  0  0  0
   50.5810   32.3140   53.4610 C   0  0  0  0  0  0  0  0  0  0  0  0
   49.9890   32.5480   54.5460 O   0  0  0  0  0  0  0  0  0  0  0  0
   50.2000   32.8640   52.2900 N   0  0  0  0  0  0  0  0  0  0  0  0
   51.0820   32.3500   51.4180 C   0  0  0  0  0  0  0  0  0  0  0  0
   51.0340   32.5940   50.0510 O   0  0  0  0  0  0  0  0  0  0  0  0
   55.0970   29.5960   52.2130 C   0  0  0  0  0  0  0  0  0  0  0  0
   54.7620   28.4000   52.0010 O   0  0  0  0  0  0  0  0  0  0  0  0
   56.2890   29.9740   52.7090 N   0  0  0  0  0  0  0  0  0  0  0  0
   57.4150   29.0840   53.0150 C   0  0  0  0  0  0  0  0  0  0  0  0
   57.0640   28.1950   54.1770 C   0  0  0  0  0  0  0  0  0  0  0  0
   57.9590   27.7910   54.9080 O   0  0  0  0  0  0  0  0  0  0  0  0
   55.6800   27.8680   54.4610 N   0  0  0  0  0  0  0  0  0  0  0  0
   55.0640   28.8260   55.3850 C   0  0  0  0  0  0  0  0  0  0  0  0
   53.9400   28.0860   56.0940 C   0  0  0  0  0  0  0  0  0  0  0  0
   54.2390   26.6060   55.9010 C   0  0  0  0  0  0  0  0  0  0  0  0
   55.5270   26.5520   55.0910 C   0  0  0  0  0  0  0  0  0  0  0  0
  1  2  2  0
  2  3  1  0
  3  4  1  0
  4  5  2  0
  5  6  1  0
  6  7  1  0
  7  8  1  0
  8  9  2  0
  8 10  1  0
 10 11  1  0
 11 12  1  0
  4 13  1  0
 13 14  2  0
 13 15  1  0
 15 16  1  0
 16 17  1  0
 17 18  2  0
 17 19  1  0
 19 20  1  0
 20 21  1  0
 21 22  1  0
 22 23  1  0
 15  2  1  0
 23 19  1  0
 11  6  2  0
M  CHG  5   3  -1   7  -1  10  -1  12  -1  19   1
M  END
>  <UniqueID>  (3348) 
23

>  <SMILES>  (3348) 
C=c1[n-]/c(=C\c2[n-]c(=O)[n-]c2[O-])c(=O)n1CC(=O)[NH+]1CCCC1

>  <Energy>  (3348) 
106.41785874349223

>  <Genealogy>  (3348) 
C=c1[n-]c(=Cc2[n-]c(=O)[n-]c2[O-])c(=O)n1CC(=O)[NH+]1CCCC1 (protonated)
C=c1[n-]/c(=C\c2[n-]c(=O)[n-]c2[O-])c(=O)n1CC(=O)[NH+]1CCCC1 (cis-trans isomerization)
C=c1[n-]/c(=C\c2[n-]c(=O)[n-]c2[O-])c(=O)n1CC(=O)[NH+]1CCCC1 (3D coordinates assigned)
C=c1[n-]/c(=C\c2[n-]c(=O)[n-]c2[O-])c(=O)n1CC(=O)[NH+]1CCCC1 (nonaromatic ring conformer: 106.41785874349223 kcal/mol)

>  <smiles>  (3348) 
C=c1[nH]c(=Cc2[nH]c(=O)[nH]c2O)c(=O)n1CC(=O)N1CCCC1

>  <score_type>  (3348) 
oracle

>  <origin>  (3348) 
adg

>  <m_score__min__energy>  (3348) 
-15.640000000000001

>  <m_primary>  (3348) 
energy

$$$$
28:0
     RDKit          3D

 29 32  0  0  0  0  0  0  0  0999 V2000
   55.9090   30.0160   43.4350 C   0  0  0  0  0  0  0  0  0  0  0  0
   56.7310   30.0940   44.4860 C   0  0  0  0  0  0  0  0  0  0  0  0
   57.0340   31.2370   45.0560 O   0  0  0  0  0  0  0  0  0  0  0  0
   57.8520   31.0160   46.0560 C   0  0  0  0  0  0  0  0  0  0  0  0
   58.1100   29.6640   46.1580 C   0  0  0  0  0  0  0  0  0  0  0  0
   58.8170   29.0570   47.3010 C   0  0  0  0  0  0  0  0  0  0  0  0
   58.1290   28.5150   48.2100 O   0  0  0  0  0  0  0  0  0  0  0  0
   60.2650   28.9370   47.2920 N   0  0  0  0  0  0  0  0  0  0  0  0
   60.8170   29.2360   48.6290 C   0  0  0  0  0  0  0  0  0  0  0  0
   60.6840   30.7310   49.0050 C   0  0  0  0  0  0  0  0  0  0  0  0
   60.5540   31.6130   47.8190 N   0  0  0  0  0  0  0  0  0  0  0  0
   60.8280   33.0520   48.1010 C   0  0  0  0  0  0  0  0  0  0  0  0
   61.2800   33.7560   46.8130 C   0  0  0  0  0  0  0  0  0  0  0  0
   60.0090   34.2510   46.1250 C   0  0  0  0  0  0  0  0  0  0  0  0
   58.9020   34.2160   47.1730 C   0  0  0  0  0  0  0  0  0  0  0  0
   59.5860   33.8740   48.4850 C   0  0  0  0  0  0  0  0  0  0  0  0
   61.4320   31.1090   46.7420 C   0  0  0  0  0  0  0  0  0  0  0  0
   60.9060   29.7560   46.2280 C   0  0  0  0  0  0  0  0  0  0  0  0
   57.3950   29.0470   45.1300 C   0  0  0  0  0  0  0  0  0  0  0  0
   57.3560   27.7410   44.7900 C   0  0  0  0  0  0  0  0  0  0  0  0
   57.3520   26.6190   45.7540 C   0  0  0  0  0  0  0  0  0  0  0  0
   56.1610   26.1560   46.3370 C   0  0  0  0  0  0  0  0  0  0  0  0
   54.9350   26.7150   45.9910 O   0  0  0  0  0  0  0  0  0  0  0  0
   56.2000   25.1640   47.2630 N   0  0  0  0  0  0  0  0  0  0  0  0
   57.3790   24.6180   47.6560 C   0  0  0  0  0  0  0  0  0  0  0  0
   57.3890   23.6950   48.5100 O   0  0  0  0  0  0  0  0  0  0  0  0
   58.5460   25.0700   47.1320 N   0  0  0  0  0  0  0  0  0  0  0  0
   58.5610   26.0610   46.2020 C   0  0  0  0  0  0  0  0  0  0  0  0
   59.6630   26.4620   45.7440 O   0  0  0  0  0  0  0  0  0  0  0  0
  1  2  2  0
  2  3  1  0
  3  4  1  0
  4  5  2  0
  5  6  1  0
  6  7  2  0
  6  8  1  0
  8  9  1  0
  9 10  1  0
 10 11  1  0
 11 12  1  0
 12 13  1  0
 13 14  1  0
 14 15  1  0
 15 16  1  0
 11 17  1  0
 17 18  1  0
  5 19  1  0
 19 20  2  3
 20 21  1  0
 21 22  2  0
 22 23  1  0
 22 24  1  0
 24 25  1  0
 25 26  2  0
 25 27  1  0
 27 28  1  0
 28 29  2  0
 19  2  1  0
 28 21  1  0
 18  8  1  0
 16 12  1  0
M  CHG  4   8   1  23  -1  24  -1  27  -1
M  END
>  <UniqueID>  (3349) 
29

>  <SMILES>  (3349) 
C=c1occ(C(=O)[NH+]2CCN(C3CCCC3)CC2)c1=Cc1c([O-])[n-]c(=O)[n-]c1=O

>  <Energy>  (3349) 
117.77628956947825

>  <Genealogy>  (3349) 
C=c1occ(C(=O)[NH+]2CCN(C3CCCC3)CC2)c1=Cc1c([O-])[n-]c(=O)[n-]c1=O (protonated)
C=c1occ(C(=O)[NH+]2CCN(C3CCCC3)CC2)c1=Cc1c([O-])[n-]c(=O)[n-]c1=O (3D coordinates assigned)
C=c1occ(C(=O)[NH+]2CCN(C3CCCC3)CC2)c1=Cc1c([O-])[n-]c(=O)[n-]c1=O (nonaromatic ring conformer: 117.77628956947825 kcal/mol)

>  <smiles>  (3349) 
C=c1occ(C(=O)N2CCN(C3CCCC3)CC2)c1=Cc1c(O)[nH]c(=O)[nH]c1=O

>  <score_type>  (3349) 
oracle

>  <origin>  (3349) 
adg

>  <m_score__min__energy>  (3349) 
-15.52

>  <m_primary>  (3349) 
energy

$$$$
33:0
     RDKit          3D

 29 32  0  0  0  0  0  0  0  0999 V2000
   59.8300   27.6280   46.4780 C   0  0  0  0  0  0  0  0  0  0  0  0
   59.1200   28.2870   45.5500 C   0  0  0  0  0  0  0  0  0  0  0  0
   58.0700   27.7740   44.7700 C   0  0  0  0  0  0  0  0  0  0  0  0
   57.6340   26.5120   44.5900 C   0  0  0  0  0  0  0  0  0  0  0  0
   57.1160   25.6240   45.6420 C   0  0  0  0  0  0  0  0  0  0  0  0
   57.7180   24.4930   46.0570 N   0  0  0  0  0  0  0  0  0  0  0  0
   56.8190   23.9560   46.9100 C   0  0  0  0  0  0  0  0  0  0  0  0
   57.0300   22.8790   47.5260 O   0  0  0  0  0  0  0  0  0  0  0  0
   55.6730   24.6570   47.0400 N   0  0  0  0  0  0  0  0  0  0  0  0
   55.8720   25.7010   46.2200 C   0  0  0  0  0  0  0  0  0  0  0  0
   54.9350   26.7020   45.9990 O   0  0  0  0  0  0  0  0  0  0  0  0
   57.5040   28.8590   44.1240 C   0  0  0  0  0  0  0  0  0  0  0  0
   58.2480   29.9660   44.4690 C   0  0  0  0  0  0  0  0  0  0  0  0
   58.0160   31.3440   43.9220 C   0  0  0  0  0  0  0  0  0  0  0  0
   59.2360   29.6240   45.3290 N   0  0  0  0  0  0  0  0  0  0  0  0
   60.1950   30.5490   45.9560 C   0  0  0  0  0  0  0  0  0  0  0  0
   59.7480   30.9430   47.3430 C   0  0  0  0  0  0  0  0  0  0  0  0
   58.9530   32.0860   47.5310 C   0  0  0  0  0  0  0  0  0  0  0  0
   58.5230   32.4470   48.8090 C   0  0  0  0  0  0  0  0  0  0  0  0
   58.8690   31.6650   49.9220 C   0  0  0  0  0  0  0  0  0  0  0  0
   58.4330   32.0460   51.2390 N   0  0  0  0  0  0  0  0  0  0  0  0
   57.6150   31.1640   52.0310 C   0  0  0  0  0  0  0  0  0  0  0  0
   57.1670   30.0910   51.5440 O   0  0  0  0  0  0  0  0  0  0  0  0
   57.2100   31.5740   53.4180 C   0  0  0  0  0  0  0  0  0  0  0  0
   58.1190   32.5030   53.9750 O   0  0  0  0  0  0  0  0  0  0  0  0
   58.2350   33.6300   53.1280 C   0  0  0  0  0  0  0  0  0  0  0  0
   58.9970   33.2550   51.8530 C   0  0  0  0  0  0  0  0  0  0  0  0
   59.6530   30.5160   49.7350 C   0  0  0  0  0  0  0  0  0  0  0  0
   60.0840   30.1550   48.4560 C   0  0  0  0  0  0  0  0  0  0  0  0
  1  2  2  0
  2  3  1  0
  3  4  2  0
  4  5  1  0
  5  6  1  0
  6  7  1  0
  7  8  2  0
  7  9  1  0
  9 10  1  0
 10 11  1  0
  3 12  1  0
 12 13  2  0
 13 14  1  0
 13 15  1  0
 15 16  1  0
 16 17  1  0
 17 18  2  0
 18 19  1  0
 19 20  2  0
 20 21  1  0
 21 22  1  0
 22 23  2  0
 22 24  1  0
 24 25  1  0
 25 26  1  0
 26 27  1  0
 20 28  1  0
 28 29  2  0
 15  2  1  0
 29 17  1  0
 10  5  2  0
 27 21  1  0
M  CHG  3   6  -1   9  -1  11  -1
M  END
>  <UniqueID>  (3350) 
34

>  <SMILES>  (3350) 
C=c1/c(=C\c2[n-]c(=O)[n-]c2[O-])cc(C)n1Cc1ccc(N2CCOCC2=O)cc1

>  <Energy>  (3350) 
128.0042129475211

>  <Genealogy>  (3350) 
C=c1c(=Cc2[n-]c(=O)[n-]c2[O-])cc(C)n1Cc1ccc(N2CCOCC2=O)cc1 (protonated)
C=c1/c(=C\c2[n-]c(=O)[n-]c2[O-])cc(C)n1Cc1ccc(N2CCOCC2=O)cc1 (cis-trans isomerization)
C=c1/c(=C\c2[n-]c(=O)[n-]c2[O-])cc(C)n1Cc1ccc(N2CCOCC2=O)cc1 (3D coordinates assigned)
C=c1/c(=C\c2[n-]c(=O)[n-]c2[O-])cc(C)n1Cc1ccc(N2CCOCC2=O)cc1 (nonaromatic ring conformer: 128.0042129475211 kcal/mol)

>  <smiles>  (3350) 
C=c1c(=Cc2[nH]c(=O)[nH]c2O)cc(C)n1Cc1ccc(N2CCOCC2=O)cc1

>  <score_type>  (3350) 
oracle

>  <origin>  (3350) 
adg

>  <m_score__min__energy>  (3350) 
-16.670000000000002

>  <m_primary>  (3350) 
energy

$$$$
40:0
     RDKit          3D

 32 35  0  0  0  0  0  0  0  0999 V2000
   60.4450   26.8750   46.1620 C   0  0  0  0  0  0  0  0  0  0  0  0
   59.6560   27.8300   45.6650 C   0  0  0  0  0  0  0  0  0  0  0  0
   60.0570   28.6420   44.7140 O   0  0  0  0  0  0  0  0  0  0  0  0
   59.0860   29.4750   44.4230 C   0  0  0  0  0  0  0  0  0  0  0  0
   57.9830   29.2070   45.2090 C   0  0  0  0  0  0  0  0  0  0  0  0
   56.6730   29.8490   45.0070 C   0  0  0  0  0  0  0  0  0  0  0  0
   55.6100   29.1900   45.1650 O   0  0  0  0  0  0  0  0  0  0  0  0
   56.6260   31.2280   44.6210 N   0  0  0  0  0  0  0  0  0  0  0  0
   57.3830   32.3110   45.1810 C   0  0  0  0  0  0  0  0  0  0  0  0
   57.5880   33.4540   44.4010 C   0  0  0  0  0  0  0  0  0  0  0  0
   58.2900   34.5450   44.9160 C   0  0  0  0  0  0  0  0  0  0  0  0
   58.7760   34.5100   46.2230 C   0  0  0  0  0  0  0  0  0  0  0  0
   58.5650   33.3870   47.0290 C   0  0  0  0  0  0  0  0  0  0  0  0
   59.0580   33.4150   48.3420 O   0  0  0  0  0  0  0  0  0  0  0  0
   59.2960   32.2600   49.1440 C   0  0  0  0  0  0  0  0  0  0  0  0
   60.5400   31.5120   48.6300 C   0  0  0  0  0  0  0  0  0  0  0  0
   61.7460   32.3540   48.4640 N   0  0  0  0  0  0  0  0  0  0  0  0
   62.9840   31.7510   48.9850 C   0  0  0  0  0  0  0  0  0  0  0  0
   64.1210   32.7980   48.9650 C   0  0  0  0  0  0  0  0  0  0  0  0
   63.8140   33.9320   48.1700 O   0  0  0  0  0  0  0  0  0  0  0  0
   63.3000   33.5220   46.9170 C   0  0  0  0  0  0  0  0  0  0  0  0
   61.9200   32.8610   47.0870 C   0  0  0  0  0  0  0  0  0  0  0  0
   57.8640   32.2840   46.5040 C   0  0  0  0  0  0  0  0  0  0  0  0
   58.3490   28.1460   46.0460 C   0  0  0  0  0  0  0  0  0  0  0  0
   57.6480   27.5560   47.0390 C   0  0  0  0  0  0  0  0  0  0  0  0
   57.1110   26.1870   46.9990 C   0  0  0  0  0  0  0  0  0  0  0  0
   57.6710   25.1570   47.6590 N   0  0  0  0  0  0  0  0  0  0  0  0
   56.8280   24.1310   47.4120 C   0  0  0  0  0  0  0  0  0  0  0  0
   57.0240   22.9700   47.8570 O   0  0  0  0  0  0  0  0  0  0  0  0
   55.7520   24.4490   46.6600 N   0  0  0  0  0  0  0  0  0  0  0  0
   55.9330   25.7580   46.4190 C   0  0  0  0  0  0  0  0  0  0  0  0
   55.0180   26.5370   45.7140 O   0  0  0  0  0  0  0  0  0  0  0  0
  1  2  2  0
  2  3  1  0
  3  4  1  0
  4  5  2  0
  5  6  1  0
  6  7  2  0
  6  8  1  0
  8  9  1  0
  9 10  2  0
 10 11  1  0
 11 12  2  0
 12 13  1  0
 13 14  1  0
 14 15  1  0
 15 16  1  0
 16 17  1  0
 17 18  1  0
 18 19  1  0
 19 20  1  0
 20 21  1  0
 21 22  1  0
 13 23  2  0
  5 24  1  0
 24 25  2  3
 25 26  1  0
 26 27  1  0
 27 28  1  0
 28 29  2  0
 28 30  1  0
 30 31  1  0
 31 32  1  0
 24  2  1  0
 31 26  2  0
 23  9  1  0
 22 17  1  0
M  CHG  3   8  -1  27  -1  30  -1
M  END
>  <UniqueID>  (3351) 
40

>  <SMILES>  (3351) 
C=c1occ(C(=O)[N-]c2cccc(OCCN3CCOCC3)c2)c1=Cc1[n-]c(=O)[n-]c1O

>  <Energy>  (3351) 
141.5722629566129

>  <Genealogy>  (3351) 
C=c1occ(C(=O)[N-]c2cccc(OCCN3CCOCC3)c2)c1=Cc1[n-]c(=O)[n-]c1O (protonated)
C=c1occ(C(=O)[N-]c2cccc(OCCN3CCOCC3)c2)c1=Cc1[n-]c(=O)[n-]c1O (3D coordinates assigned)
C=c1occ(C(=O)[N-]c2cccc(OCCN3CCOCC3)c2)c1=Cc1[n-]c(=O)[n-]c1O (nonaromatic ring conformer: 141.5722629566129 kcal/mol)

>  <smiles>  (3351) 
C=c1occ(C(=O)Nc2cccc(OCCN3CCOCC3)c2)c1=Cc1[nH]c(=O)[nH]c1O

>  <score_type>  (3351) 
oracle

>  <origin>  (3351) 
adg

>  <m_score__min__energy>  (3351) 
-15.529999999999999

>  <m_primary>  (3351) 
energy

$$$$
51:0
     RDKit          3D

 36 40  0  0  0  0  0  0  0  0999 V2000
   57.3520   28.5210   43.8000 C   0  0  0  0  0  0  0  0  0  0  0  0
   57.7100   29.3820   44.7670 C   0  0  0  0  0  0  0  0  0  0  0  0
   58.0020   29.0740   46.1050 C   0  0  0  0  0  0  0  0  0  0  0  0
   57.8160   27.9430   46.8130 C   0  0  0  0  0  0  0  0  0  0  0  0
   57.5830   26.6060   46.2440 C   0  0  0  0  0  0  0  0  0  0  0  0
   58.5600   25.7350   45.9040 N   0  0  0  0  0  0  0  0  0  0  0  0
   57.8880   24.7100   45.3320 C   0  0  0  0  0  0  0  0  0  0  0  0
   58.4590   23.6720   44.9060 O   0  0  0  0  0  0  0  0  0  0  0  0
   56.5540   24.9090   45.2640 N   0  0  0  0  0  0  0  0  0  0  0  0
   55.5320   23.9830   44.7760 C   0  0  0  0  0  0  0  0  0  0  0  0
   54.7250   23.4670   45.9230 C   0  0  0  0  0  0  0  0  0  0  0  0
   55.2220   23.1030   47.1690 C   0  0  0  0  0  0  0  0  0  0  0  0
   54.2410   22.5760   48.0190 C   0  0  0  0  0  0  0  0  0  0  0  0
   52.9790   22.5120   47.4420 C   0  0  0  0  0  0  0  0  0  0  0  0
   53.0830   23.1060   45.8710 S   0  0  0  0  0  0  0  0  0  0  0  0
   56.3660   26.1070   45.8390 C   0  0  0  0  0  0  0  0  0  0  0  0
   55.1300   26.7240   45.9970 O   0  0  0  0  0  0  0  0  0  0  0  0
   58.5660   30.2140   46.6490 C   0  0  0  0  0  0  0  0  0  0  0  0
   58.5360   31.1860   45.6710 C   0  0  0  0  0  0  0  0  0  0  0  0
   59.1000   32.5730   45.8440 C   0  0  0  0  0  0  0  0  0  0  0  0
   59.1230   33.0170   47.2880 C   0  0  0  0  0  0  0  0  0  0  0  0
   58.0700   33.4840   47.8060 O   0  0  0  0  0  0  0  0  0  0  0  0
   60.3270   32.9380   48.0870 N   0  0  0  0  0  0  0  0  0  0  0  0
   60.3380   33.6050   49.4010 C   0  0  0  0  0  0  0  0  0  0  0  0
   61.6940   33.4640   50.1050 C   0  0  0  0  0  0  0  0  0  0  0  0
   62.8370   33.7820   49.1210 C   0  0  0  0  0  0  0  0  0  0  0  0
   64.1580   33.8050   49.8060 N   0  0  0  0  0  0  0  0  0  0  0  0
   64.8830   32.5240   49.6720 C   0  0  0  0  0  0  0  0  0  0  0  0
   66.3700   32.7110   50.0220 C   0  0  0  0  0  0  0  0  0  0  0  0
   66.5920   33.7790   51.1080 C   0  0  0  0  0  0  0  0  0  0  0  0
   65.3700   33.9080   52.0190 C   0  0  0  0  0  0  0  0  0  0  0  0
   64.1190   34.3020   51.2070 C   0  0  0  0  0  0  0  0  0  0  0  0
   62.8000   32.8670   47.8590 C   0  0  0  0  0  0  0  0  0  0  0  0
   61.4760   32.1030   47.6930 C   0  0  0  0  0  0  0  0  0  0  0  0
   58.0040   30.6880   44.5280 N   0  0  0  0  0  0  0  0  0  0  0  0
   57.9210   31.3760   43.2340 C   0  0  0  0  0  0  0  0  0  0  0  0
  1  2  2  0
  2  3  1  0
  3  4  2  3
  4  5  1  0
  5  6  1  0
  6  7  1  0
  7  8  2  0
  7  9  1  0
  9 10  1  0
 10 11  1  0
 11 12  2  0
 12 13  1  0
 13 14  2  0
 14 15  1  0
  9 16  1  0
 16 17  1  0
  3 18  1  0
 18 19  2  0
 19 20  1  0
 20 21  1  0
 21 22  2  0
 21 23  1  0
 23 24  1  0
 24 25  1  0
 25 26  1  0
 26 27  1  0
 27 28  1  0
 28 29  1  0
 29 30  1  0
 30 31  1  0
 31 32  1  0
 26 33  1  0
 33 34  1  0
 19 35  1  0
 35 36  1  0
 35  2  1  0
 16  5  2  0
 34 23  1  0
 15 11  1  0
 32 27  1  0
M  CHG  2   6  -1  17  -1
M  END
>  <UniqueID>  (3352) 
50

>  <SMILES>  (3352) 
C=c1c(=Cc2[n-]c(=O)n(Cc3cccs3)c2[O-])cc(CC(=O)N2CCC(N3CCCCC3)CC2)n1C

>  <Energy>  (3352) 
181.20883476051125

>  <Genealogy>  (3352) 
C=c1c(=Cc2[n-]c(=O)n(Cc3cccs3)c2[O-])cc(CC(=O)N2CCC(N3CCCCC3)CC2)n1C (protonated)
C=c1c(=Cc2[n-]c(=O)n(Cc3cccs3)c2[O-])cc(CC(=O)N2CCC(N3CCCCC3)CC2)n1C (3D coordinates assigned)
C=c1c(=Cc2[n-]c(=O)n(Cc3cccs3)c2[O-])cc(CC(=O)N2CCC(N3CCCCC3)CC2)n1C (nonaromatic ring conformer: 181.20883476051125 kcal/mol)

>  <smiles>  (3352) 
C=c1c(=Cc2[nH]c(=O)n(Cc3cccs3)c2O)cc(CC(=O)N2CCC(N3CCCCC3)CC2)n1C

>  <score_type>  (3352) 
oracle

>  <origin>  (3352) 
adg

>  <m_score__min__energy>  (3352) 
-16.07

>  <m_primary>  (3352) 
energy

$$$$
54:0
     RDKit          3D

 30 32  0  0  0  0  0  0  0  0999 V2000
   54.5800   24.8800   45.6070 C   0  0  0  0  0  0  0  0  0  0  0  0
   55.1080   26.1440   45.9940 O   0  0  0  0  0  0  0  0  0  0  0  0
   56.4180   26.3040   46.4580 C   0  0  0  0  0  0  0  0  0  0  0  0
   56.9920   25.3610   47.0690 O   0  0  0  0  0  0  0  0  0  0  0  0
   57.1290   27.5830   46.2310 C   0  0  0  0  0  0  0  0  0  0  0  0
   56.8610   28.3490   45.0820 C   0  0  0  0  0  0  0  0  0  0  0  0
   57.5330   29.5520   44.8610 C   0  0  0  0  0  0  0  0  0  0  0  0
   58.4790   30.0080   45.7810 C   0  0  0  0  0  0  0  0  0  0  0  0
   58.7570   29.2620   46.9370 C   0  0  0  0  0  0  0  0  0  0  0  0
   59.7980   29.7470   47.9090 C   0  0  0  0  0  0  0  0  0  0  0  0
   59.2280   29.8440   49.2510 N   0  0  0  0  0  0  0  0  0  0  0  0
   58.8270   31.0970   49.8270 C   0  0  0  0  0  0  0  0  0  0  0  0
   59.0460   32.1720   49.2020 O   0  0  0  0  0  0  0  0  0  0  0  0
   58.1560   31.1360   51.1440 C   0  0  0  0  0  0  0  0  0  0  0  0
   58.8640   31.4730   52.3080 C   0  0  0  0  0  0  0  0  0  0  0  0
   58.1920   31.5120   53.5300 C   0  0  0  0  0  0  0  0  0  0  0  0
   56.8300   31.2140   53.5890 C   0  0  0  0  0  0  0  0  0  0  0  0
   56.1450   30.8710   52.4110 C   0  0  0  0  0  0  0  0  0  0  0  0
   54.6930   30.5510   52.4140 C   0  0  0  0  0  0  0  0  0  0  0  0
   54.2200   29.3060   52.8570 C   0  0  0  0  0  0  0  0  0  0  0  0
   52.8540   29.0220   52.8430 C   0  0  0  0  0  0  0  0  0  0  0  0
   51.9360   29.9690   52.3820 C   0  0  0  0  0  0  0  0  0  0  0  0
   50.5860   29.6380   52.3880 O   0  0  0  0  0  0  0  0  0  0  0  0
   52.3850   31.2270   51.9190 C   0  0  0  0  0  0  0  0  0  0  0  0
   51.4450   32.2660   51.4140 C   0  0  0  0  0  0  0  0  0  0  0  0
   51.0580   32.3110   50.0430 N   0  0  0  0  0  0  0  0  0  0  0  0
   50.9730   33.1280   52.2050 O   0  0  0  0  0  0  0  0  0  0  0  0
   53.7680   31.4990   51.9390 C   0  0  0  0  0  0  0  0  0  0  0  0
   56.8280   30.8500   51.2330 N   0  0  0  0  0  0  0  0  0  0  0  0
   58.0830   28.0490   47.1540 C   0  0  0  0  0  0  0  0  0  0  0  0
  1  2  1  0
  2  3  1  0
  3  4  2  0
  3  5  1  0
  5  6  2  0
  6  7  1  0
  7  8  2  0
  8  9  1  0
  9 10  1  0
 10 11  1  0
 11 12  1  0
 12 13  2  0
 12 14  1  0
 14 15  2  0
 15 16  1  0
 16 17  2  0
 17 18  1  0
 18 19  1  0
 19 20  2  0
 20 21  1  0
 21 22  2  0
 22 23  1  0
 22 24  1  0
 24 25  1  0
 25 26  1  0
 25 27  2  0
 24 28  2  0
 18 29  2  0
  9 30  2  0
 30  5  1  0
 29 14  1  0
 28 19  1  0
M  CHG  2  23  -1  26  -1
M  END
>  <UniqueID>  (3353) 
53

>  <SMILES>  (3353) 
COC(=O)c1cccc(CNC(=O)c2cccc(-c3ccc([O-])c(C([NH-])=O)c3)n2)c1

>  <Energy>  (3353) 
52.32472489640564

>  <Genealogy>  (3353) 
COC(=O)c1cccc(CNC(=O)c2cccc(-c3ccc([O-])c(C([NH-])=O)c3)n2)c1 (protonated)
COC(=O)c1cccc(CNC(=O)c2cccc(-c3ccc([O-])c(C([NH-])=O)c3)n2)c1 (3D coordinates assigned)
COC(=O)c1cccc(CNC(=O)c2cccc(-c3ccc([O-])c(C([NH-])=O)c3)n2)c1 (optimized conformer: 52.32472489640564 kcal/mol)

>  <smiles>  (3353) 
COC(=O)c1cccc(CNC(=O)c2cccc(-c3ccc(O)c(C(N)=O)c3)n2)c1

>  <score_type>  (3353) 
oracle

>  <origin>  (3353) 
adg

>  <m_score__min__energy>  (3353) 
-15.82

>  <m_primary>  (3353) 
energy

$$$$
61:0
     RDKit          3D

 33 36  0  0  0  0  0  0  0  0999 V2000
   54.0630   28.2330   53.5130 C   0  0  0  0  0  0  0  0  0  0  0  0
   54.6200   29.2690   52.8610 C   0  0  0  0  0  0  0  0  0  0  0  0
   53.9200   30.3310   52.2800 C   0  0  0  0  0  0  0  0  0  0  0  0
   52.5840   30.4690   52.1680 C   0  0  0  0  0  0  0  0  0  0  0  0
   51.8950   30.9050   50.9410 C   0  0  0  0  0  0  0  0  0  0  0  0
   51.7610   30.1260   49.8550 N   0  0  0  0  0  0  0  0  0  0  0  0
   51.0160   30.8800   49.0160 C   0  0  0  0  0  0  0  0  0  0  0  0
   50.6840   30.4890   47.8680 O   0  0  0  0  0  0  0  0  0  0  0  0
   50.6450   32.0800   49.5100 N   0  0  0  0  0  0  0  0  0  0  0  0
   51.1980   32.0770   50.7350 C   0  0  0  0  0  0  0  0  0  0  0  0
   51.0220   33.1040   51.6580 O   0  0  0  0  0  0  0  0  0  0  0  0
   54.8780   31.1990   51.7770 C   0  0  0  0  0  0  0  0  0  0  0  0
   56.1160   30.6530   52.0670 C   0  0  0  0  0  0  0  0  0  0  0  0
   57.3990   31.3150   51.7310 C   0  0  0  0  0  0  0  0  0  0  0  0
   57.9910   31.9960   52.6120 O   0  0  0  0  0  0  0  0  0  0  0  0
   57.9530   31.2100   50.4140 N   0  0  0  0  0  0  0  0  0  0  0  0
   58.4870   32.2750   49.6160 C   0  0  0  0  0  0  0  0  0  0  0  0
   59.4280   33.1880   50.1240 C   0  0  0  0  0  0  0  0  0  0  0  0
   59.9660   34.1730   49.2920 C   0  0  0  0  0  0  0  0  0  0  0  0
   59.5810   34.2510   47.9520 C   0  0  0  0  0  0  0  0  0  0  0  0
   58.6430   33.3450   47.4350 C   0  0  0  0  0  0  0  0  0  0  0  0
   58.1480   33.4400   45.7430 S   0  0  0  0  0  0  0  0  0  0  0  0
   58.6630   34.7290   45.1650 O   0  0  0  0  0  0  0  0  0  0  0  0
   56.6460   33.4780   45.6720 O   0  0  0  0  0  0  0  0  0  0  0  0
   58.7640   32.1130   44.7740 N   0  0  0  0  0  0  0  0  0  0  0  0
   57.9720   31.8750   43.5530 C   0  0  0  0  0  0  0  0  0  0  0  0
   56.7000   31.0350   43.8150 C   0  0  0  0  0  0  0  0  0  0  0  0
   56.6470   30.4910   45.1200 O   0  0  0  0  0  0  0  0  0  0  0  0
   57.8660   29.8530   45.4190 C   0  0  0  0  0  0  0  0  0  0  0  0
   58.9970   30.8860   45.5690 C   0  0  0  0  0  0  0  0  0  0  0  0
   58.1130   32.3520   48.2690 C   0  0  0  0  0  0  0  0  0  0  0  0
   55.9610   29.4600   52.7030 N   0  0  0  0  0  0  0  0  0  0  0  0
   57.0480   28.5590   53.1070 C   0  0  0  0  0  0  0  0  0  0  0  0
  1  2  2  0
  2  3  1  0
  3  4  2  3
  4  5  1  0
  5  6  1  0
  6  7  1  0
  7  8  2  0
  7  9  1  0
  9 10  1  0
 10 11  1  0
  3 12  1  0
 12 13  2  0
 13 14  1  0
 14 15  2  0
 14 16  1  0
 16 17  1  0
 17 18  2  0
 18 19  1  0
 19 20  2  0
 20 21  1  0
 21 22  1  0
 22 23  2  0
 22 24  2  0
 22 25  1  0
 25 26  1  0
 26 27  1  0
 27 28  1  0
 28 29  1  0
 29 30  1  0
 21 31  2  0
 13 32  1  0
 32 33  1  0
 32  2  1  0
 10  5  2  0
 31 17  1  0
 30 25  1  0
M  CHG  4   6  -1   9  -1  11  -1  16  -1
M  END
>  <UniqueID>  (3354) 
60

>  <SMILES>  (3354) 
C=c1c(=Cc2[n-]c(=O)[n-]c2[O-])cc(C(=O)[N-]c2cccc(S(=O)(=O)N3CCOCC3)c2)n1C

>  <Energy>  (3354) 
138.6094338604578

>  <Genealogy>  (3354) 
C=c1c(=Cc2[n-]c(=O)[n-]c2[O-])cc(C(=O)[N-]c2cccc(S(=O)(=O)N3CCOCC3)c2)n1C (protonated)
C=c1c(=Cc2[n-]c(=O)[n-]c2[O-])cc(C(=O)[N-]c2cccc(S(=O)(=O)N3CCOCC3)c2)n1C (3D coordinates assigned)
C=c1c(=Cc2[n-]c(=O)[n-]c2[O-])cc(C(=O)[N-]c2cccc(S(=O)(=O)N3CCOCC3)c2)n1C (nonaromatic ring conformer: 138.6094338604578 kcal/mol)

>  <smiles>  (3354) 
C=c1c(=Cc2[nH]c(=O)[nH]c2O)cc(C(=O)Nc2cccc(S(=O)(=O)N3CCOCC3)c2)n1C

>  <score_type>  (3354) 
oracle

>  <origin>  (3354) 
adg

>  <m_score__min__energy>  (3354) 
-21.149999999999999

>  <m_primary>  (3354) 
energy

$$$$
70:0
     RDKit          3D

 34 37  0  0  0  0  0  0  0  0999 V2000
   57.8420   29.9410   44.3660 C   0  0  0  0  0  0  0  0  0  0  0  0
   58.2860   29.3500   45.4860 C   0  0  0  0  0  0  0  0  0  0  0  0
   58.1400   28.0010   45.8530 C   0  0  0  0  0  0  0  0  0  0  0  0
   57.6980   26.9360   45.1580 C   0  0  0  0  0  0  0  0  0  0  0  0
   57.0330   25.7520   45.7280 C   0  0  0  0  0  0  0  0  0  0  0  0
   57.6640   24.6210   46.0930 N   0  0  0  0  0  0  0  0  0  0  0  0
   56.6900   23.9010   46.6910 C   0  0  0  0  0  0  0  0  0  0  0  0
   56.8890   22.7500   47.1610 O   0  0  0  0  0  0  0  0  0  0  0  0
   55.4890   24.5140   46.7550 N   0  0  0  0  0  0  0  0  0  0  0  0
   55.7290   25.6910   46.1540 C   0  0  0  0  0  0  0  0  0  0  0  0
   54.7760   26.6920   46.0040 O   0  0  0  0  0  0  0  0  0  0  0  0
   58.5860   27.9060   47.1620 C   0  0  0  0  0  0  0  0  0  0  0  0
   59.0320   29.1580   47.5260 C   0  0  0  0  0  0  0  0  0  0  0  0
   59.6380   29.4960   48.8550 C   0  0  0  0  0  0  0  0  0  0  0  0
   58.8650   30.0320   46.5090 N   0  0  0  0  0  0  0  0  0  0  0  0
   59.1610   31.4380   46.5660 C   0  0  0  0  0  0  0  0  0  0  0  0
   58.1430   32.3770   46.3730 C   0  0  0  0  0  0  0  0  0  0  0  0
   58.4290   33.7430   46.4100 C   0  0  0  0  0  0  0  0  0  0  0  0
   59.7450   34.1930   46.6340 C   0  0  0  0  0  0  0  0  0  0  0  0
   60.0520   35.5610   46.7170 O   0  0  0  0  0  0  0  0  0  0  0  0
   60.0180   36.4670   45.6200 C   0  0  0  0  0  0  0  0  0  0  0  0
   60.7790   33.2450   46.7980 C   0  0  0  0  0  0  0  0  0  0  0  0
   62.1830   33.6720   47.0030 C   0  0  0  0  0  0  0  0  0  0  0  0
   62.8500   34.0840   46.0150 O   0  0  0  0  0  0  0  0  0  0  0  0
   62.7910   33.6350   48.3080 N   0  0  0  0  0  0  0  0  0  0  0  0
   62.0850   34.2260   49.4520 C   0  0  0  0  0  0  0  0  0  0  0  0
   62.4410   33.4820   50.7410 C   0  0  0  0  0  0  0  0  0  0  0  0
   63.9000   33.3260   50.8520 N   0  0  0  0  0  0  0  0  0  0  0  0
   64.5740   33.4450   52.1270 C   0  0  0  0  0  0  0  0  0  0  0  0
   64.0000   34.2560   53.2490 C   0  0  0  0  0  0  0  0  0  0  0  0
   65.6690   32.8500   52.3170 O   0  0  0  0  0  0  0  0  0  0  0  0
   64.5950   32.7190   49.7080 C   0  0  0  0  0  0  0  0  0  0  0  0
   64.2440   33.4630   48.4190 C   0  0  0  0  0  0  0  0  0  0  0  0
   60.4740   31.8740   46.7770 C   0  0  0  0  0  0  0  0  0  0  0  0
  1  2  2  0
  2  3  1  0
  3  4  2  3
  4  5  1  0
  5  6  1  0
  6  7  1  0
  7  8  2  0
  7  9  1  0
  9 10  1  0
 10 11  1  0
  3 12  1  0
 12 13  2  0
 13 14  1  0
 13 15  1  0
 15 16  1  0
 16 17  2  0
 17 18  1  0
 18 19  2  0
 19 20  1  0
 20 21  1  0
 19 22  1  0
 22 23  1  0
 23 24  2  0
 23 25  1  0
 25 26  1  0
 26 27  1  0
 27 28  1  0
 28 29  1  0
 29 30  1  0
 29 31  2  0
 28 32  1  0
 32 33  1  0
 22 34  2  0
 15  2  1  0
 34 16  1  0
 10  5  2  0
 33 25  1  0
M  CHG  3   6  -1   9  -1  11  -1
M  END
>  <UniqueID>  (3355) 
69

>  <SMILES>  (3355) 
C=c1c(=Cc2[n-]c(=O)[n-]c2[O-])cc(C)n1-c1ccc(OC)c(C(=O)N2CCN(C(C)=O)CC2)c1

>  <Energy>  (3355) 
139.6319792810822

>  <Genealogy>  (3355) 
C=c1c(=Cc2[n-]c(=O)[n-]c2[O-])cc(C)n1-c1ccc(OC)c(C(=O)N2CCN(C(C)=O)CC2)c1 (protonated)
C=c1c(=Cc2[n-]c(=O)[n-]c2[O-])cc(C)n1-c1ccc(OC)c(C(=O)N2CCN(C(C)=O)CC2)c1 (3D coordinates assigned)
C=c1c(=Cc2[n-]c(=O)[n-]c2[O-])cc(C)n1-c1ccc(OC)c(C(=O)N2CCN(C(C)=O)CC2)c1 (nonaromatic ring conformer: 139.6319792810822 kcal/mol)

>  <smiles>  (3355) 
C=c1c(=Cc2[nH]c(=O)[nH]c2O)cc(C)n1-c1ccc(OC)c(C(=O)N2CCN(C(C)=O)CC2)c1

>  <score_type>  (3355) 
oracle

>  <origin>  (3355) 
adg

>  <m_score__min__energy>  (3355) 
-17.140000000000001

>  <m_primary>  (3355) 
energy

$$$$
80:0
     RDKit          3D

 30 33  0  0  0  0  0  0  0  0999 V2000
   51.0740   32.0830   49.9190 O   0  0  0  0  0  0  0  0  0  0  0  0
   51.0200   32.0160   51.3090 C   0  0  0  0  0  0  0  0  0  0  0  0
   50.1990   32.7810   52.0480 N   0  0  0  0  0  0  0  0  0  0  0  0
   50.4780   32.3880   53.3090 C   0  0  0  0  0  0  0  0  0  0  0  0
   49.9020   32.8790   54.3150 O   0  0  0  0  0  0  0  0  0  0  0  0
   51.4180   31.4260   53.4050 N   0  0  0  0  0  0  0  0  0  0  0  0
   51.7710   31.1960   52.1270 C   0  0  0  0  0  0  0  0  0  0  0  0
   52.7360   30.1660   51.6830 C   0  0  0  0  0  0  0  0  0  0  0  0
   54.0420   30.1290   52.0240 C   0  0  0  0  0  0  0  0  0  0  0  0
   55.0420   31.0100   51.6220 C   0  0  0  0  0  0  0  0  0  0  0  0
   56.2140   30.5580   52.1970 C   0  0  0  0  0  0  0  0  0  0  0  0
   57.5510   31.2300   52.0840 C   0  0  0  0  0  0  0  0  0  0  0  0
   58.4150   30.5810   51.0360 C   0  0  0  0  0  0  0  0  0  0  0  0
   58.2460   29.3590   50.7620 O   0  0  0  0  0  0  0  0  0  0  0  0
   59.4010   31.3430   50.3080 N   0  0  0  0  0  0  0  0  0  0  0  0
   59.1870   32.7380   49.9510 C   0  0  0  0  0  0  0  0  0  0  0  0
   58.6270   32.8210   48.5290 C   0  0  0  0  0  0  0  0  0  0  0  0
   59.1450   31.7930   47.5880 N   0  0  0  0  0  0  0  0  0  0  0  0
   58.7210   31.8520   46.1880 C   0  0  0  0  0  0  0  0  0  0  0  0
   58.4800   30.6720   45.4400 C   0  0  0  0  0  0  0  0  0  0  0  0
   58.0760   30.7330   44.1030 C   0  0  0  0  0  0  0  0  0  0  0  0
   57.8980   31.9650   43.4780 C   0  0  0  0  0  0  0  0  0  0  0  0
   57.3900   32.0360   41.8000 Cl  0  0  0  0  0  0  0  0  0  0  0  0
   58.1180   33.1420   44.1920 C   0  0  0  0  0  0  0  0  0  0  0  0
   58.5220   33.0920   45.5290 C   0  0  0  0  0  0  0  0  0  0  0  0
   59.9370   30.6200   48.0400 C   0  0  0  0  0  0  0  0  0  0  0  0
   60.4080   30.6810   49.4940 C   0  0  0  0  0  0  0  0  0  0  0  0
   55.9880   29.4590   52.9380 N   0  0  0  0  0  0  0  0  0  0  0  0
   54.6730   29.1810   52.8350 C   0  0  0  0  0  0  0  0  0  0  0  0
   54.1090   28.1370   53.4550 C   0  0  0  0  0  0  0  0  0  0  0  0
  1  2  1  0
  2  3  1  0
  3  4  1  0
  4  5  2  0
  4  6  1  0
  6  7  1  0
  7  8  1  0
  8  9  2  0
  9 10  1  0
 10 11  2  0
 11 12  1  0
 12 13  1  0
 13 14  2  0
 13 15  1  0
 15 16  1  0
 16 17  1  0
 17 18  1  0
 18 19  1  0
 19 20  2  0
 20 21  1  0
 21 22  2  0
 22 23  1  0
 22 24  1  0
 24 25  2  0
 18 26  1  0
 26 27  1  0
 11 28  1  0
 28 29  1  0
 29 30  2  0
  7  2  2  0
 29  9  1  0
 27 15  1  0
 25 19  1  0
M  CHG  2   3  -1   6  -1
M  END
>  <UniqueID>  (3356) 
79

>  <SMILES>  (3356) 
C=c1[nH]c(CC(=O)N2CCN(c3ccc(Cl)cc3)CC2)c/c1=C\c1[n-]c(=O)[n-]c1O

>  <Energy>  (3356) 
123.2043957595078

>  <Genealogy>  (3356) 
C=c1[nH]c(CC(=O)N2CCN(c3ccc(Cl)cc3)CC2)cc1=Cc1[n-]c(=O)[n-]c1O (protonated)
C=c1[nH]c(CC(=O)N2CCN(c3ccc(Cl)cc3)CC2)c/c1=C\c1[n-]c(=O)[n-]c1O (cis-trans isomerization)
C=c1[nH]c(CC(=O)N2CCN(c3ccc(Cl)cc3)CC2)c/c1=C\c1[n-]c(=O)[n-]c1O (3D coordinates assigned)
C=c1[nH]c(CC(=O)N2CCN(c3ccc(Cl)cc3)CC2)c/c1=C\c1[n-]c(=O)[n-]c1O (nonaromatic ring conformer: 123.2043957595078 kcal/mol)

>  <smiles>  (3356) 
C=c1[nH]c(CC(=O)N2CCN(c3ccc(Cl)cc3)CC2)cc1=Cc1[nH]c(=O)[nH]c1O

>  <score_type>  (3356) 
oracle

>  <origin>  (3356) 
adg

>  <m_score__min__energy>  (3356) 
-14.779999999999999

>  <m_primary>  (3356) 
energy

$$$$
83:0
     RDKit          3D

 29 31  0  0  0  0  0  0  0  0999 V2000
   59.6240   33.8560   47.7870 C   0  0  0  0  0  0  0  0  0  0  0  0
   60.7270   32.9000   47.5240 C   0  0  0  0  0  0  0  0  0  0  0  0
   61.9150   33.3260   47.4800 O   0  0  0  0  0  0  0  0  0  0  0  0
   60.4710   31.4880   47.3550 N   0  0  0  0  0  0  0  0  0  0  0  0
   61.5120   30.6050   46.8170 C   0  0  0  0  0  0  0  0  0  0  0  0
   60.8800   29.6430   45.8050 C   0  0  0  0  0  0  0  0  0  0  0  0
   59.7380   28.8640   46.3600 N   0  0  0  0  0  0  0  0  0  0  0  0
   58.6550   28.6900   45.3680 C   0  0  0  0  0  0  0  0  0  0  0  0
   57.8830   27.4230   45.6370 C   0  0  0  0  0  0  0  0  0  0  0  0
   56.4820   27.4530   45.6780 C   0  0  0  0  0  0  0  0  0  0  0  0
   55.7590   26.2890   45.9510 C   0  0  0  0  0  0  0  0  0  0  0  0
   54.3700   26.3330   45.9850 O   0  0  0  0  0  0  0  0  0  0  0  0
   56.4320   25.0850   46.1890 C   0  0  0  0  0  0  0  0  0  0  0  0
   55.7050   23.9310   46.4610 O   0  0  0  0  0  0  0  0  0  0  0  0
   57.8320   25.0380   46.1590 C   0  0  0  0  0  0  0  0  0  0  0  0
   58.4660   23.8100   46.4100 O   0  0  0  0  0  0  0  0  0  0  0  0
   58.3810   22.6700   45.5610 C   0  0  0  0  0  0  0  0  0  0  0  0
   58.5560   26.2140   45.8820 C   0  0  0  0  0  0  0  0  0  0  0  0
   59.2170   29.3710   47.6520 C   0  0  0  0  0  0  0  0  0  0  0  0
   59.1710   30.9050   47.7120 C   0  0  0  0  0  0  0  0  0  0  0  0
   58.7660   34.3090   46.8600 C   0  0  0  0  0  0  0  0  0  0  0  0
   58.3380   33.5660   45.6550 C   0  0  0  0  0  0  0  0  0  0  0  0
   58.8960   33.8360   44.3920 C   0  0  0  0  0  0  0  0  0  0  0  0
   58.5060   33.0920   43.2760 C   0  0  0  0  0  0  0  0  0  0  0  0
   57.5730   32.0590   43.4120 C   0  0  0  0  0  0  0  0  0  0  0  0
   57.1870   31.3230   42.2970 O   0  0  0  0  0  0  0  0  0  0  0  0
   57.0340   31.7650   44.6710 C   0  0  0  0  0  0  0  0  0  0  0  0
   56.1150   30.7340   44.8140 O   0  0  0  0  0  0  0  0  0  0  0  0
   57.4240   32.5100   45.7890 C   0  0  0  0  0  0  0  0  0  0  0  0
  1  2  1  0
  2  3  2  0
  2  4  1  0
  4  5  1  0
  5  6  1  0
  6  7  1  0
  7  8  1  0
  8  9  1  0
  9 10  2  0
 10 11  1  0
 11 12  1  0
 11 13  2  0
 13 14  1  0
 13 15  1  0
 15 16  1  0
 16 17  1  0
 15 18  2  0
  7 19  1  0
 19 20  1  0
  1 21  2  0
 21 22  1  0
 22 23  2  0
 23 24  1  0
 24 25  2  0
 25 26  1  0
 25 27  1  0
 27 28  1  0
 27 29  2  0
 20  4  1  0
 29 22  1  0
 18  9  1  0
M  CHG  4  12  -1  14  -1  26  -1  28  -1
M  END
>  <UniqueID>  (3357) 
82

>  <SMILES>  (3357) 
COc1cc(CN2CCN(C(=O)/C=C\c3ccc([O-])c([O-])c3)CC2)cc([O-])c1[O-]

>  <Energy>  (3357) 
67.18519581446647

>  <Genealogy>  (3357) 
COc1cc(CN2CCN(C(=O)C=Cc3ccc([O-])c([O-])c3)CC2)cc([O-])c1[O-] (protonated)
COc1cc(CN2CCN(C(=O)/C=C\c3ccc([O-])c([O-])c3)CC2)cc([O-])c1[O-] (cis-trans isomerization)
COc1cc(CN2CCN(C(=O)/C=C\c3ccc([O-])c([O-])c3)CC2)cc([O-])c1[O-] (3D coordinates assigned)
COc1cc(CN2CCN(C(=O)/C=C\c3ccc([O-])c([O-])c3)CC2)cc([O-])c1[O-] (nonaromatic ring conformer: 67.18519581446647 kcal/mol)

>  <smiles>  (3357) 
COc1cc(CN2CCN(C(=O)C=Cc3ccc(O)c(O)c3)CC2)cc(O)c1O

>  <score_type>  (3357) 
oracle

>  <origin>  (3357) 
adg

>  <m_score__min__energy>  (3357) 
-18.100000000000001

>  <m_primary>  (3357) 
energy

$$$$
85:0
     RDKit          3D

 25 27  0  0  0  0  0  0  0  0999 V2000
   57.0650   31.1910   43.3650 C   0  0  0  0  0  0  0  0  0  0  0  0
   57.3810   31.2970   44.6640 C   0  0  0  0  0  0  0  0  0  0  0  0
   57.0370   32.4590   45.2740 N   0  0  0  0  0  0  0  0  0  0  0  0
   57.4560   32.7820   46.5170 C   0  0  0  0  0  0  0  0  0  0  0  0
   57.0720   33.8700   47.0280 O   0  0  0  0  0  0  0  0  0  0  0  0
   58.2950   31.9480   47.1970 N   0  0  0  0  0  0  0  0  0  0  0  0
   58.7850   32.3310   48.5010 C   0  0  0  0  0  0  0  0  0  0  0  0
   59.5520   33.4980   48.6540 C   0  0  0  0  0  0  0  0  0  0  0  0
   60.0270   33.8670   49.9160 C   0  0  0  0  0  0  0  0  0  0  0  0
   59.7410   33.0740   51.0330 C   0  0  0  0  0  0  0  0  0  0  0  0
   60.3380   33.5380   52.6160 Cl  0  0  0  0  0  0  0  0  0  0  0  0
   58.9780   31.9110   50.8860 C   0  0  0  0  0  0  0  0  0  0  0  0
   58.5020   31.5390   49.6250 C   0  0  0  0  0  0  0  0  0  0  0  0
   58.6560   30.7420   46.6540 C   0  0  0  0  0  0  0  0  0  0  0  0
   59.4350   29.9820   47.2980 O   0  0  0  0  0  0  0  0  0  0  0  0
   58.1440   30.3310   45.3930 C   0  0  0  0  0  0  0  0  0  0  0  0
   58.3850   29.0550   44.9770 C   0  0  0  0  0  0  0  0  0  0  0  0
   57.7420   27.8260   45.4880 C   0  0  0  0  0  0  0  0  0  0  0  0
   58.5440   26.8270   46.0590 C   0  0  0  0  0  0  0  0  0  0  0  0
   57.9650   25.6640   46.5740 C   0  0  0  0  0  0  0  0  0  0  0  0
   56.5780   25.4990   46.5420 C   0  0  0  0  0  0  0  0  0  0  0  0
   55.7650   26.5020   46.0060 C   0  0  0  0  0  0  0  0  0  0  0  0
   54.3850   26.3370   45.9930 O   0  0  0  0  0  0  0  0  0  0  0  0
   56.3400   27.6710   45.4900 C   0  0  0  0  0  0  0  0  0  0  0  0
   55.5160   28.6780   44.9950 O   0  0  0  0  0  0  0  0  0  0  0  0
  1  2  2  0
  2  3  1  0
  3  4  1  0
  4  5  2  0
  4  6  1  0
  6  7  1  0
  7  8  2  0
  8  9  1  0
  9 10  2  0
 10 11  1  0
 10 12  1  0
 12 13  2  0
  6 14  1  0
 14 15  2  0
 14 16  1  0
 16 17  2  0
 17 18  1  0
 18 19  2  0
 19 20  1  0
 20 21  2  0
 21 22  1  0
 22 23  1  0
 22 24  2  0
 24 25  1  0
 16  2  1  0
 24 18  1  0
 13  7  1  0
M  CHG  3   3  -1  23  -1  25  -1
M  END
>  <UniqueID>  (3358) 
83

>  <SMILES>  (3358) 
C=c1[n-]c(=O)n(-c2ccc(Cl)cc2)c(=O)/c1=C/c1cccc([O-])c1[O-]

>  <Energy>  (3358) 
72.84745540415331

>  <Genealogy>  (3358) 
C=c1[n-]c(=O)n(-c2ccc(Cl)cc2)c(=O)c1=Cc1cccc([O-])c1[O-] (protonated)
C=c1[n-]c(=O)n(-c2ccc(Cl)cc2)c(=O)/c1=C/c1cccc([O-])c1[O-] (cis-trans isomerization)
C=c1[n-]c(=O)n(-c2ccc(Cl)cc2)c(=O)/c1=C/c1cccc([O-])c1[O-] (3D coordinates assigned)
C=c1[n-]c(=O)n(-c2ccc(Cl)cc2)c(=O)/c1=C/c1cccc([O-])c1[O-] (optimized conformer: 72.84745540415331 kcal/mol)

>  <smiles>  (3358) 
C=c1[nH]c(=O)n(-c2ccc(Cl)cc2)c(=O)c1=Cc1cccc(O)c1O

>  <score_type>  (3358) 
oracle

>  <origin>  (3358) 
adg

>  <m_score__min__energy>  (3358) 
-16.93

>  <m_primary>  (3358) 
energy

$$$$
89:0
     RDKit          3D

 25 27  0  0  0  0  0  0  0  0999 V2000
   55.1490   23.3070   47.9060 C   0  0  0  0  0  0  0  0  0  0  0  0
   55.9360   24.2840   47.4710 C   0  0  0  0  0  0  0  0  0  0  0  0
   57.0240   24.7090   48.1520 N   0  0  0  0  0  0  0  0  0  0  0  0
   57.5090   25.6860   47.3690 C   0  0  0  0  0  0  0  0  0  0  0  0
   58.5210   26.3730   47.6710 O   0  0  0  0  0  0  0  0  0  0  0  0
   56.7220   25.8330   46.2410 C   0  0  0  0  0  0  0  0  0  0  0  0
   56.8550   26.7010   45.2270 C   0  0  0  0  0  0  0  0  0  0  0  0
   57.3530   28.0850   45.3790 C   0  0  0  0  0  0  0  0  0  0  0  0
   56.4880   29.1630   45.1780 C   0  0  0  0  0  0  0  0  0  0  0  0
   55.1450   28.9510   44.8860 O   0  0  0  0  0  0  0  0  0  0  0  0
   56.9550   30.4300   45.2770 N   0  0  0  0  0  0  0  0  0  0  0  0
   58.2580   30.6880   45.5520 C   0  0  0  0  0  0  0  0  0  0  0  0
   58.6360   31.8890   45.6310 O   0  0  0  0  0  0  0  0  0  0  0  0
   59.1470   29.6580   45.7360 N   0  0  0  0  0  0  0  0  0  0  0  0
   60.5740   29.9520   45.9810 C   0  0  0  0  0  0  0  0  0  0  0  0
   60.8090   30.4150   47.4260 C   0  0  0  0  0  0  0  0  0  0  0  0
   61.7150   31.6170   47.4860 C   0  0  0  0  0  0  0  0  0  0  0  0
   62.8940   31.5780   48.2490 C   0  0  0  0  0  0  0  0  0  0  0  0
   63.7610   32.6740   48.2620 C   0  0  0  0  0  0  0  0  0  0  0  0
   63.4640   33.8110   47.5070 C   0  0  0  0  0  0  0  0  0  0  0  0
   62.2980   33.8560   46.7380 C   0  0  0  0  0  0  0  0  0  0  0  0
   61.4260   32.7620   46.7250 C   0  0  0  0  0  0  0  0  0  0  0  0
   58.7080   28.3590   45.6360 C   0  0  0  0  0  0  0  0  0  0  0  0
   59.5200   27.4000   45.7590 O   0  0  0  0  0  0  0  0  0  0  0  0
   55.7140   24.9430   46.3100 N   0  0  0  0  0  0  0  0  0  0  0  0
  1  2  2  0
  2  3  1  0
  3  4  1  0
  4  5  2  0
  4  6  1  0
  6  7  2  3
  7  8  1  0
  8  9  2  0
  9 10  1  0
  9 11  1  0
 11 12  1  0
 12 13  2  0
 12 14  1  0
 14 15  1  0
 15 16  1  0
 16 17  1  0
 17 18  2  0
 18 19  1  0
 19 20  2  0
 20 21  1  0
 21 22  2  0
 14 23  1  0
 23 24  2  0
  6 25  1  0
 25  2  1  0
 23  8  1  0
 22 17  1  0
M  CHG  4   3  -1  10  -1  11  -1  25  -1
M  END
>  <UniqueID>  (3359) 
87

>  <SMILES>  (3359) 
C=c1[n-]c(=O)c(=Cc2c([O-])[n-]c(=O)n(CCc3ccccc3)c2=O)[n-]1

>  <Energy>  (3359) 
78.49866918908725

>  <Genealogy>  (3359) 
C=c1[n-]c(=O)c(=Cc2c([O-])[n-]c(=O)n(CCc3ccccc3)c2=O)[n-]1 (protonated)
C=c1[n-]c(=O)c(=Cc2c([O-])[n-]c(=O)n(CCc3ccccc3)c2=O)[n-]1 (3D coordinates assigned)
C=c1[n-]c(=O)c(=Cc2c([O-])[n-]c(=O)n(CCc3ccccc3)c2=O)[n-]1 (optimized conformer: 78.49866918908725 kcal/mol)

>  <smiles>  (3359) 
C=c1[nH]c(=O)c(=Cc2c(O)[nH]c(=O)n(CCc3ccccc3)c2=O)[nH]1

>  <score_type>  (3359) 
oracle

>  <origin>  (3359) 
adg

>  <m_score__min__energy>  (3359) 
-15.02

>  <m_primary>  (3359) 
energy

$$$$
92:0
     RDKit          3D

 30 33  0  0  0  0  0  0  0  0999 V2000
   54.4770   28.1190   52.7940 C   0  0  0  0  0  0  0  0  0  0  0  0
   54.7930   29.4260   52.7660 C   0  0  0  0  0  0  0  0  0  0  0  0
   53.9460   30.4700   52.3630 C   0  0  0  0  0  0  0  0  0  0  0  0
   52.6190   30.5010   52.1360 C   0  0  0  0  0  0  0  0  0  0  0  0
   51.9670   30.9090   50.8790 C   0  0  0  0  0  0  0  0  0  0  0  0
   51.8200   30.1210   49.7980 N   0  0  0  0  0  0  0  0  0  0  0  0
   51.0310   30.8550   48.9820 C   0  0  0  0  0  0  0  0  0  0  0  0
   50.6720   30.4530   47.8440 O   0  0  0  0  0  0  0  0  0  0  0  0
   50.6410   32.0430   49.4910 N   0  0  0  0  0  0  0  0  0  0  0  0
   51.2300   32.0540   50.6970 C   0  0  0  0  0  0  0  0  0  0  0  0
   51.0930   33.0880   51.6140 O   0  0  0  0  0  0  0  0  0  0  0  0
   54.7460   31.5870   52.2330 C   0  0  0  0  0  0  0  0  0  0  0  0
   56.0150   31.2280   52.6410 C   0  0  0  0  0  0  0  0  0  0  0  0
   57.1980   32.1660   52.6250 C   0  0  0  0  0  0  0  0  0  0  0  0
   57.6770   32.4460   51.1990 C   0  0  0  0  0  0  0  0  0  0  0  0
   56.0500   29.9120   52.9690 N   0  0  0  0  0  0  0  0  0  0  0  0
   57.2560   29.1630   53.3660 C   0  0  0  0  0  0  0  0  0  0  0  0
   58.4210   29.4980   52.4680 C   0  0  0  0  0  0  0  0  0  0  0  0
   59.6520   29.8940   53.0170 C   0  0  0  0  0  0  0  0  0  0  0  0
   60.7250   30.2210   52.1850 C   0  0  0  0  0  0  0  0  0  0  0  0
   60.5930   30.1460   50.7880 C   0  0  0  0  0  0  0  0  0  0  0  0
   61.6910   30.5100   49.9270 N   0  0  0  0  0  0  0  0  0  0  0  0
   61.5340   30.5160   48.4700 C   0  0  0  0  0  0  0  0  0  0  0  0
   61.9810   31.8680   47.9230 C   0  0  0  0  0  0  0  0  0  0  0  0
   63.3070   32.2200   48.4280 N   0  0  0  0  0  0  0  0  0  0  0  0
   63.7600   31.7970   49.7210 C   0  0  0  0  0  0  0  0  0  0  0  0
   64.8090   32.2990   50.2080 O   0  0  0  0  0  0  0  0  0  0  0  0
   63.0320   30.7230   50.4800 C   0  0  0  0  0  0  0  0  0  0  0  0
   59.3670   29.7350   50.2400 C   0  0  0  0  0  0  0  0  0  0  0  0
   58.2930   29.4090   51.0720 C   0  0  0  0  0  0  0  0  0  0  0  0
  1  2  2  0
  2  3  1  0
  3  4  2  3
  4  5  1  0
  5  6  1  0
  6  7  1  0
  7  8  2  0
  7  9  1  0
  9 10  1  0
 10 11  1  0
  3 12  1  0
 12 13  2  0
 13 14  1  0
 14 15  1  0
 13 16  1  0
 16 17  1  0
 17 18  1  0
 18 19  2  0
 19 20  1  0
 20 21  2  0
 21 22  1  0
 22 23  1  0
 23 24  1  0
 24 25  1  0
 25 26  1  0
 26 27  2  0
 26 28  1  0
 21 29  1  0
 29 30  2  0
 16  2  1  0
 30 18  1  0
 10  5  2  0
 28 22  1  0
M  CHG  3   6  -1   9  -1  11  -1
M  END
>  <UniqueID>  (3360) 
90

>  <SMILES>  (3360) 
C=c1c(=Cc2[n-]c(=O)[n-]c2[O-])cc(CC)n1Cc1ccc(N2CCNC(=O)C2)cc1

>  <Energy>  (3360) 
125.4442163486197

>  <Genealogy>  (3360) 
C=c1c(=Cc2[n-]c(=O)[n-]c2[O-])cc(CC)n1Cc1ccc(N2CCNC(=O)C2)cc1 (protonated)
C=c1c(=Cc2[n-]c(=O)[n-]c2[O-])cc(CC)n1Cc1ccc(N2CCNC(=O)C2)cc1 (3D coordinates assigned)
C=c1c(=Cc2[n-]c(=O)[n-]c2[O-])cc(CC)n1Cc1ccc(N2CCNC(=O)C2)cc1 (nonaromatic ring conformer: 125.4442163486197 kcal/mol)

>  <smiles>  (3360) 
C=c1c(=Cc2[nH]c(=O)[nH]c2O)cc(CC)n1Cc1ccc(N2CCNC(=O)C2)cc1

>  <score_type>  (3360) 
oracle

>  <origin>  (3360) 
adg

>  <m_score__min__energy>  (3360) 
-16.84

>  <m_primary>  (3360) 
energy

$$$$
10:0
     RDKit          3D

 31 34  0  0  0  0  0  0  0  0999 V2000
   55.9130   31.9600   52.1580 C   0  0  0  0  0  0  0  0  0  0  0  0
   55.5030   30.8290   52.7570 C   0  0  0  0  0  0  0  0  0  0  0  0
   54.1780   30.4520   53.0050 C   0  0  0  0  0  0  0  0  0  0  0  0
   53.0630   31.1470   52.6940 C   0  0  0  0  0  0  0  0  0  0  0  0
   52.3610   31.0850   51.3960 C   0  0  0  0  0  0  0  0  0  0  0  0
   52.4870   30.1060   50.4830 N   0  0  0  0  0  0  0  0  0  0  0  0
   51.6220   30.4680   49.5100 C   0  0  0  0  0  0  0  0  0  0  0  0
   51.4510   29.7860   48.4670 O   0  0  0  0  0  0  0  0  0  0  0  0
   50.9420   31.6090   49.7520 N   0  0  0  0  0  0  0  0  0  0  0  0
   51.4170   31.9830   50.9510 C   0  0  0  0  0  0  0  0  0  0  0  0
   51.0030   33.1270   51.6220 O   0  0  0  0  0  0  0  0  0  0  0  0
   54.2410   29.1950   53.5920 C   0  0  0  0  0  0  0  0  0  0  0  0
   55.5760   28.8580   53.6730 C   0  0  0  0  0  0  0  0  0  0  0  0
   56.0980   27.6200   54.3370 C   0  0  0  0  0  0  0  0  0  0  0  0
   56.3430   29.8560   53.1850 N   0  0  0  0  0  0  0  0  0  0  0  0
   57.7790   29.8510   53.1110 C   0  0  0  0  0  0  0  0  0  0  0  0
   58.4500   30.0360   54.1620 O   0  0  0  0  0  0  0  0  0  0  0  0
   58.4540   29.6680   51.8520 N   0  0  0  0  0  0  0  0  0  0  0  0
   57.8230   30.1400   50.6130 C   0  0  0  0  0  0  0  0  0  0  0  0
   58.7040   29.8690   49.3880 C   0  0  0  0  0  0  0  0  0  0  0  0
   60.1050   30.2180   49.6640 N   0  0  0  0  0  0  0  0  0  0  0  0
   60.9520   30.6180   48.5680 C   0  0  0  0  0  0  0  0  0  0  0  0
   60.7300   30.1580   47.4150 O   0  0  0  0  0  0  0  0  0  0  0  0
   62.1030   31.5240   48.7730 C   0  0  0  0  0  0  0  0  0  0  0  0
   63.0500   31.2820   49.7800 C   0  0  0  0  0  0  0  0  0  0  0  0
   64.1580   32.1210   49.9180 C   0  0  0  0  0  0  0  0  0  0  0  0
   64.2970   33.2130   49.0620 C   0  0  0  0  0  0  0  0  0  0  0  0
   63.3530   33.4640   48.1150 N   0  0  0  0  0  0  0  0  0  0  0  0
   62.2680   32.6560   47.9590 C   0  0  0  0  0  0  0  0  0  0  0  0
   60.7250   29.8200   50.9400 C   0  0  0  0  0  0  0  0  0  0  0  0
   59.7610   29.0050   51.8030 C   0  0  0  0  0  0  0  0  0  0  0  0
  1  2  2  0
  2  3  1  0
  3  4  2  0
  4  5  1  0
  5  6  1  0
  6  7  1  0
  7  8  2  0
  7  9  1  0
  9 10  1  0
 10 11  1  0
  3 12  1  0
 12 13  2  0
 13 14  1  0
 13 15  1  0
 15 16  1  0
 16 17  2  0
 16 18  1  0
 18 19  1  0
 19 20  1  0
 20 21  1  0
 21 22  1  0
 22 23  2  0
 22 24  1  0
 24 25  2  0
 25 26  1  0
 26 27  2  0
 27 28  1  0
 28 29  2  0
 21 30  1  0
 30 31  1  0
 15  2  1  0
 31 18  1  0
 10  5  2  0
 29 24  1  0
M  CHG  4   6  -1   9  -1  11  -1  28   1
M  END
>  <UniqueID>  (3361) 
11

>  <SMILES>  (3361) 
C=c1/c(=C/c2[n-]c(=O)[n-]c2[O-])cc(C)n1C(=O)N1CCN(C(=O)c2ccc[nH+]c2)CC1

>  <Energy>  (3361) 
127.9685654998699

>  <Genealogy>  (3361) 
C=c1c(=Cc2[n-]c(=O)[n-]c2[O-])cc(C)n1C(=O)N1CCN(C(=O)c2ccc[nH+]c2)CC1 (protonated)
C=c1/c(=C/c2[n-]c(=O)[n-]c2[O-])cc(C)n1C(=O)N1CCN(C(=O)c2ccc[nH+]c2)CC1 (cis-trans isomerization)
C=c1/c(=C/c2[n-]c(=O)[n-]c2[O-])cc(C)n1C(=O)N1CCN(C(=O)c2ccc[nH+]c2)CC1 (3D coordinates assigned)
C=c1/c(=C/c2[n-]c(=O)[n-]c2[O-])cc(C)n1C(=O)N1CCN(C(=O)c2ccc[nH+]c2)CC1 (nonaromatic ring conformer: 127.9685654998699 kcal/mol)

>  <smiles>  (3361) 
C=c1c(=Cc2[nH]c(=O)[nH]c2O)cc(C)n1C(=O)N1CCN(C(=O)c2cccnc2)CC1

>  <score_type>  (3361) 
oracle

>  <origin>  (3361) 
adg

>  <m_score__min__energy>  (3361) 
-15.65

>  <m_primary>  (3361) 
energy

$$$$
11:0
     RDKit          3D

 27 29  0  0  0  0  0  0  0  0999 V2000
   55.3180   30.8810   44.4860 O   0  0  0  0  0  0  0  0  0  0  0  0
   56.1650   29.9610   44.6520 C   0  0  0  0  0  0  0  0  0  0  0  0
   57.6230   30.2660   44.5240 C   0  0  0  0  0  0  0  0  0  0  0  0
   57.8470   31.7060   44.6420 N   0  0  0  0  0  0  0  0  0  0  0  0
   58.4020   32.3730   45.7630 C   0  0  0  0  0  0  0  0  0  0  0  0
   58.4270   31.9040   46.9320 O   0  0  0  0  0  0  0  0  0  0  0  0
   58.9680   33.6450   45.3360 C   0  0  0  0  0  0  0  0  0  0  0  0
   59.5740   34.6860   46.2250 C   0  0  0  0  0  0  0  0  0  0  0  0
   60.7150   34.0950   47.0130 C   0  0  0  0  0  0  0  0  0  0  0  0
   61.9360   33.8250   46.3700 C   0  0  0  0  0  0  0  0  0  0  0  0
   63.0150   33.3100   47.0920 C   0  0  0  0  0  0  0  0  0  0  0  0
   62.8920   33.0680   48.4650 C   0  0  0  0  0  0  0  0  0  0  0  0
   63.9630   32.5540   49.1940 O   0  0  0  0  0  0  0  0  0  0  0  0
   61.6850   33.3440   49.1140 C   0  0  0  0  0  0  0  0  0  0  0  0
   60.6000   33.8620   48.3970 C   0  0  0  0  0  0  0  0  0  0  0  0
   59.4140   34.1380   49.0690 O   0  0  0  0  0  0  0  0  0  0  0  0
   58.8220   33.8010   44.0590 N   0  0  0  0  0  0  0  0  0  0  0  0
   58.1640   32.6200   43.5920 C   0  0  0  0  0  0  0  0  0  0  0  0
   57.8320   32.3570   42.0110 S   0  0  0  0  0  0  0  0  0  0  0  0
   55.7490   28.6260   44.9620 N   0  0  0  0  0  0  0  0  0  0  0  0
   56.5360   27.6220   45.6200 C   0  0  0  0  0  0  0  0  0  0  0  0
   57.9350   27.7270   45.7240 C   0  0  0  0  0  0  0  0  0  0  0  0
   58.6740   26.7160   46.3470 C   0  0  0  0  0  0  0  0  0  0  0  0
   58.0270   25.5870   46.8550 C   0  0  0  0  0  0  0  0  0  0  0  0
   56.6410   25.4620   46.7310 C   0  0  0  0  0  0  0  0  0  0  0  0
   55.8970   26.4710   46.1100 C   0  0  0  0  0  0  0  0  0  0  0  0
   54.5180   26.3310   45.9880 O   0  0  0  0  0  0  0  0  0  0  0  0
  1  2  2  0
  2  3  1  0
  3  4  1  0
  4  5  1  0
  5  6  2  0
  5  7  1  0
  7  8  1  0
  8  9  1  0
  9 10  2  0
 10 11  1  0
 11 12  2  0
 12 13  1  0
 12 14  1  0
 14 15  2  0
 15 16  1  0
  7 17  2  0
 17 18  1  0
 18 19  2  0
  2 20  1  0
 20 21  1  0
 21 22  2  0
 22 23  1  0
 23 24  2  0
 24 25  1  0
 25 26  2  0
 26 27  1  0
 18  4  1  0
 26 21  1  0
 15  9  1  0
M  CHG  3  16  -1  20  -1  27  -1
M  END
>  <UniqueID>  (3362) 
12

>  <SMILES>  (3362) 
O=C(CN1C(=O)C(Cc2ccc(O)cc2[O-])=NC1=S)[N-]c1ccccc1[O-]

>  <Energy>  (3362) 
70.0177492513338

>  <Genealogy>  (3362) 
O=C(CN1C(=O)C(Cc2ccc(O)cc2[O-])=NC1=S)[N-]c1ccccc1[O-] (protonated)
O=C(CN1C(=O)C(Cc2ccc(O)cc2[O-])=NC1=S)[N-]c1ccccc1[O-] (3D coordinates assigned)
O=C(CN1C(=O)C(Cc2ccc(O)cc2[O-])=NC1=S)[N-]c1ccccc1[O-] (nonaromatic ring conformer: 70.0177492513338 kcal/mol)

>  <smiles>  (3362) 
O=C(CN1C(=O)C(Cc2ccc(O)cc2O)=NC1=S)Nc1ccccc1O

>  <score_type>  (3362) 
oracle

>  <origin>  (3362) 
adg

>  <m_score__min__energy>  (3362) 
-16.190000000000001

>  <m_primary>  (3362) 
energy

$$$$
13:0
     RDKit          3D

 33 36  0  0  0  0  0  0  0  0999 V2000
   55.5090   31.2180   52.9540 C   0  0  0  0  0  0  0  0  0  0  0  0
   54.7210   30.2100   53.3630 C   0  0  0  0  0  0  0  0  0  0  0  0
   53.3200   30.2200   53.4490 C   0  0  0  0  0  0  0  0  0  0  0  0
   52.4090   31.0890   52.9670 C   0  0  0  0  0  0  0  0  0  0  0  0
   51.9830   31.1950   51.5610 C   0  0  0  0  0  0  0  0  0  0  0  0
   52.0300   30.1890   50.6670 N   0  0  0  0  0  0  0  0  0  0  0  0
   51.4160   30.7080   49.5830 C   0  0  0  0  0  0  0  0  0  0  0  0
   51.2730   30.0630   48.5110 O   0  0  0  0  0  0  0  0  0  0  0  0
   50.9580   31.9680   49.7390 N   0  0  0  0  0  0  0  0  0  0  0  0
   51.3130   32.2540   51.0020 C   0  0  0  0  0  0  0  0  0  0  0  0
   51.0240   33.4570   51.6330 O   0  0  0  0  0  0  0  0  0  0  0  0
   52.9670   29.0830   54.1550 C   0  0  0  0  0  0  0  0  0  0  0  0
   54.1330   28.3950   54.4130 C   0  0  0  0  0  0  0  0  0  0  0  0
   54.1990   27.0800   55.1320 C   0  0  0  0  0  0  0  0  0  0  0  0
   55.1990   29.0620   53.9150 N   0  0  0  0  0  0  0  0  0  0  0  0
   56.6050   28.6610   54.0740 C   0  0  0  0  0  0  0  0  0  0  0  0
   57.3130   28.6440   52.7160 C   0  0  0  0  0  0  0  0  0  0  0  0
   58.2230   29.8300   52.5790 C   0  0  0  0  0  0  0  0  0  0  0  0
   58.3060   30.6560   53.5290 O   0  0  0  0  0  0  0  0  0  0  0  0
   58.9520   30.0680   51.3620 N   0  0  0  0  0  0  0  0  0  0  0  0
   59.1110   31.4380   50.8660 C   0  0  0  0  0  0  0  0  0  0  0  0
   59.0340   31.4500   49.3380 C   0  0  0  0  0  0  0  0  0  0  0  0
   59.9020   30.4060   48.7760 N   0  0  0  0  0  0  0  0  0  0  0  0
   60.5210   30.6150   47.4950 C   0  0  0  0  0  0  0  0  0  0  0  0
   60.3200   29.7830   46.5690 O   0  0  0  0  0  0  0  0  0  0  0  0
   61.4020   31.7810   47.2500 C   0  0  0  0  0  0  0  0  0  0  0  0
   62.7860   31.6980   47.4940 C   0  0  0  0  0  0  0  0  0  0  0  0
   63.6140   32.7980   47.2510 C   0  0  0  0  0  0  0  0  0  0  0  0
   63.0740   33.9860   46.7560 C   0  0  0  0  0  0  0  0  0  0  0  0
   61.7030   34.0770   46.4990 C   0  0  0  0  0  0  0  0  0  0  0  0
   60.8710   32.9800   46.7400 C   0  0  0  0  0  0  0  0  0  0  0  0
   59.7470   29.0390   49.2850 C   0  0  0  0  0  0  0  0  0  0  0  0
   59.8370   29.0370   50.8100 C   0  0  0  0  0  0  0  0  0  0  0  0
  1  2  2  0
  2  3  1  0
  3  4  2  3
  4  5  1  0
  5  6  1  0
  6  7  1  0
  7  8  2  0
  7  9  1  0
  9 10  1  0
 10 11  1  0
  3 12  1  0
 12 13  2  0
 13 14  1  0
 13 15  1  0
 15 16  1  0
 16 17  1  0
 17 18  1  0
 18 19  2  0
 18 20  1  0
 20 21  1  0
 21 22  1  0
 22 23  1  0
 23 24  1  0
 24 25  2  0
 24 26  1  0
 26 27  2  0
 27 28  1  0
 28 29  2  0
 29 30  1  0
 30 31  2  0
 23 32  1  0
 32 33  1  0
 15  2  1  0
 33 20  1  0
 10  5  2  0
 31 26  1  0
M  CHG  3   6  -1   9  -1  11  -1
M  END
>  <UniqueID>  (3363) 
14

>  <SMILES>  (3363) 
C=c1c(=Cc2[n-]c(=O)[n-]c2[O-])cc(C)n1CCC(=O)N1CCN(C(=O)c2ccccc2)CC1

>  <Energy>  (3363) 
131.25017951209335

>  <Genealogy>  (3363) 
C=c1c(=Cc2[n-]c(=O)[n-]c2[O-])cc(C)n1CCC(=O)N1CCN(C(=O)c2ccccc2)CC1 (protonated)
C=c1c(=Cc2[n-]c(=O)[n-]c2[O-])cc(C)n1CCC(=O)N1CCN(C(=O)c2ccccc2)CC1 (3D coordinates assigned)
C=c1c(=Cc2[n-]c(=O)[n-]c2[O-])cc(C)n1CCC(=O)N1CCN(C(=O)c2ccccc2)CC1 (nonaromatic ring conformer: 131.25017951209335 kcal/mol)

>  <smiles>  (3363) 
C=c1c(=Cc2[nH]c(=O)[nH]c2O)cc(C)n1CCC(=O)N1CCN(C(=O)c2ccccc2)CC1

>  <score_type>  (3363) 
oracle

>  <origin>  (3363) 
adg

>  <m_score__min__energy>  (3363) 
-17.73

>  <m_primary>  (3363) 
energy

$$$$
21:0
     RDKit          3D

 23 25  0  0  0  0  0  0  0  0999 V2000
   56.6010   20.9450   43.0380 O   0  0  0  0  0  0  0  0  0  0  0  0
   56.6440   22.0460   43.8910 C   0  0  0  0  0  0  0  0  0  0  0  0
   56.3180   23.3250   43.4230 C   0  0  0  0  0  0  0  0  0  0  0  0
   56.3690   24.4220   44.2870 C   0  0  0  0  0  0  0  0  0  0  0  0
   56.7640   24.2580   45.6230 C   0  0  0  0  0  0  0  0  0  0  0  0
   56.7940   25.4430   46.5080 C   0  0  0  0  0  0  0  0  0  0  0  0
   57.0200   26.6960   46.0670 C   0  0  0  0  0  0  0  0  0  0  0  0
   55.9880   27.4610   45.6190 N   0  0  0  0  0  0  0  0  0  0  0  0
   56.1550   28.7340   45.1790 C   0  0  0  0  0  0  0  0  0  0  0  0
   55.1420   29.3650   44.7790 O   0  0  0  0  0  0  0  0  0  0  0  0
   57.4520   29.3100   45.1860 C   0  0  0  0  0  0  0  0  0  0  0  0
   57.7450   30.5680   44.7720 C   0  0  0  0  0  0  0  0  0  0  0  0
   58.2370   31.8060   45.8170 S   0  0  0  0  0  0  0  0  0  0  0  0
   58.4080   32.9980   44.6500 C   0  0  0  0  0  0  0  0  0  0  0  0
   58.7900   34.2490   44.8800 C   0  0  0  0  0  0  0  0  0  0  0  0
   58.0850   32.4600   43.4130 C   0  0  0  0  0  0  0  0  0  0  0  0
   57.7160   31.1080   43.4740 C   0  0  0  0  0  0  0  0  0  0  0  0
   58.4770   28.5370   45.6450 N   0  0  0  0  0  0  0  0  0  0  0  0
   58.3070   27.2630   46.0840 C   0  0  0  0  0  0  0  0  0  0  0  0
   59.3070   26.6150   46.4950 O   0  0  0  0  0  0  0  0  0  0  0  0
   57.0580   22.9630   46.1000 C   0  0  0  0  0  0  0  0  0  0  0  0
   57.3740   22.7490   47.4370 O   0  0  0  0  0  0  0  0  0  0  0  0
   57.0110   21.8690   45.2290 C   0  0  0  0  0  0  0  0  0  0  0  0
  1  2  1  0
  2  3  2  0
  3  4  1  0
  4  5  2  0
  5  6  1  0
  6  7  2  0
  7  8  1  0
  8  9  1  0
  9 10  2  0
  9 11  1  0
 11 12  2  3
 12 13  1  0
 13 14  1  0
 14 15  2  0
 14 16  1  0
 16 17  2  0
 11 18  1  0
 18 19  1  0
 19 20  2  0
  5 21  1  0
 21 22  1  0
 21 23  2  0
 23  2  1  0
 19  7  1  0
 17 12  1  0
M  CHG  3   8  -1  18  -1  22  -1
M  END
>  <UniqueID>  (3364) 
22

>  <SMILES>  (3364) 
C=c1ccc(=c2[n-]c(=O)/c(=C/c3ccc(O)cc3[O-])[n-]c2=O)s1

>  <Energy>  (3364) 
79.59923066844095

>  <Genealogy>  (3364) 
C=c1ccc(=c2[n-]c(=O)c(=Cc3ccc(O)cc3[O-])[n-]c2=O)s1 (protonated)
C=c1ccc(=c2[n-]c(=O)/c(=C/c3ccc(O)cc3[O-])[n-]c2=O)s1 (cis-trans isomerization)
C=c1ccc(=c2[n-]c(=O)/c(=C/c3ccc(O)cc3[O-])[n-]c2=O)s1 (3D coordinates assigned)
C=c1ccc(=c2[n-]c(=O)/c(=C/c3ccc(O)cc3[O-])[n-]c2=O)s1 (optimized conformer: 79.59923066844095 kcal/mol)

>  <smiles>  (3364) 
C=c1ccc(=c2[nH]c(=O)c(=Cc3ccc(O)cc3O)[nH]c2=O)s1

>  <score_type>  (3364) 
oracle

>  <origin>  (3364) 
adg

>  <m_score__min__energy>  (3364) 
-14.56

>  <m_primary>  (3364) 
energy

$$$$
38:0
     RDKit          3D

 29 32  0  0  0  0  0  0  0  0999 V2000
   57.3810   32.2920   44.8050 C   0  0  0  0  0  0  0  0  0  0  0  0
   57.6610   30.9900   44.8800 C   0  0  0  0  0  0  0  0  0  0  0  0
   56.7370   29.8110   44.1180 S   0  0  0  0  0  0  0  0  0  0  0  0
   57.6860   28.5320   44.6510 C   0  0  0  0  0  0  0  0  0  0  0  0
   57.4300   27.2480   44.3520 C   0  0  0  0  0  0  0  0  0  0  0  0
   57.4090   26.1420   45.3310 C   0  0  0  0  0  0  0  0  0  0  0  0
   58.5070   25.2710   45.4420 C   0  0  0  0  0  0  0  0  0  0  0  0
   58.4580   24.1830   46.3180 C   0  0  0  0  0  0  0  0  0  0  0  0
   57.3100   23.9460   47.0790 C   0  0  0  0  0  0  0  0  0  0  0  0
   57.2620   22.8610   47.9470 O   0  0  0  0  0  0  0  0  0  0  0  0
   56.2070   24.7960   46.9610 C   0  0  0  0  0  0  0  0  0  0  0  0
   56.2480   25.8870   46.0830 C   0  0  0  0  0  0  0  0  0  0  0  0
   55.1350   26.7140   45.9680 O   0  0  0  0  0  0  0  0  0  0  0  0
   58.7100   29.0670   45.4480 C   0  0  0  0  0  0  0  0  0  0  0  0
   59.5590   28.3520   46.0460 O   0  0  0  0  0  0  0  0  0  0  0  0
   58.7010   30.4310   45.5680 N   0  0  0  0  0  0  0  0  0  0  0  0
   59.7230   31.1760   46.3240 C   0  0  0  0  0  0  0  0  0  0  0  0
   59.3310   31.2900   47.7750 C   0  0  0  0  0  0  0  0  0  0  0  0
   59.3640   30.1670   48.6180 C   0  0  0  0  0  0  0  0  0  0  0  0
   58.9850   30.2780   49.9590 C   0  0  0  0  0  0  0  0  0  0  0  0
   58.5800   31.5160   50.4850 C   0  0  0  0  0  0  0  0  0  0  0  0
   58.1860   31.6260   51.8660 N   0  0  0  0  0  0  0  0  0  0  0  0
   58.6100   32.6840   52.7700 C   0  0  0  0  0  0  0  0  0  0  0  0
   58.1510   32.2460   54.1720 C   0  0  0  0  0  0  0  0  0  0  0  0
   57.1220   31.1230   53.9730 C   0  0  0  0  0  0  0  0  0  0  0  0
   57.2800   30.7740   52.5480 C   0  0  0  0  0  0  0  0  0  0  0  0
   56.6330   29.8530   51.9830 O   0  0  0  0  0  0  0  0  0  0  0  0
   58.5380   32.6360   49.6370 C   0  0  0  0  0  0  0  0  0  0  0  0
   58.9100   32.5230   48.2950 C   0  0  0  0  0  0  0  0  0  0  0  0
  1  2  2  0
  2  3  1  0
  3  4  1  0
  4  5  2  3
  5  6  1  0
  6  7  2  0
  7  8  1  0
  8  9  2  0
  9 10  1  0
  9 11  1  0
 11 12  2  0
 12 13  1  0
  4 14  1  0
 14 15  2  0
 14 16  1  0
 16 17  1  0
 17 18  1  0
 18 19  2  0
 19 20  1  0
 20 21  2  0
 21 22  1  0
 22 23  1  0
 23 24  1  0
 24 25  1  0
 25 26  1  0
 26 27  2  0
 21 28  1  0
 28 29  2  0
 16  2  1  0
 29 18  1  0
 12  6  1  0
 26 22  1  0
M  CHG  2  10  -1  13  -1
M  END
>  <UniqueID>  (3365) 
36

>  <SMILES>  (3365) 
C=c1sc(=Cc2ccc([O-])cc2[O-])c(=O)n1Cc1ccc(N2CCCC2=O)cc1

>  <Energy>  (3365) 
101.83077382258939

>  <Genealogy>  (3365) 
C=c1sc(=Cc2ccc([O-])cc2[O-])c(=O)n1Cc1ccc(N2CCCC2=O)cc1 (protonated)
C=c1sc(=Cc2ccc([O-])cc2[O-])c(=O)n1Cc1ccc(N2CCCC2=O)cc1 (3D coordinates assigned)
C=c1sc(=Cc2ccc([O-])cc2[O-])c(=O)n1Cc1ccc(N2CCCC2=O)cc1 (nonaromatic ring conformer: 101.83077382258939 kcal/mol)

>  <smiles>  (3365) 
C=c1sc(=Cc2ccc(O)cc2O)c(=O)n1Cc1ccc(N2CCCC2=O)cc1

>  <score_type>  (3365) 
oracle

>  <origin>  (3365) 
adg

>  <m_score__min__energy>  (3365) 
-14.08

>  <m_primary>  (3365) 
energy

$$$$
56:0
     RDKit          3D

 30 32  0  0  0  0  0  0  0  0999 V2000
   56.6420   29.3390   43.4690 C   0  0  0  0  0  0  0  0  0  0  0  0
   57.6440   28.9870   44.2900 C   0  0  0  0  0  0  0  0  0  0  0  0
   58.0250   27.6880   44.6630 C   0  0  0  0  0  0  0  0  0  0  0  0
   57.4180   26.5000   44.4770 C   0  0  0  0  0  0  0  0  0  0  0  0
   56.9610   25.5950   45.5440 C   0  0  0  0  0  0  0  0  0  0  0  0
   57.5990   24.4710   45.9210 N   0  0  0  0  0  0  0  0  0  0  0  0
   56.7480   23.9140   46.8090 C   0  0  0  0  0  0  0  0  0  0  0  0
   57.0020   22.8360   47.4070 O   0  0  0  0  0  0  0  0  0  0  0  0
   55.5980   24.5970   47.0000 N   0  0  0  0  0  0  0  0  0  0  0  0
   55.7450   25.6510   46.1790 C   0  0  0  0  0  0  0  0  0  0  0  0
   54.7840   26.6400   46.0120 O   0  0  0  0  0  0  0  0  0  0  0  0
   59.2320   27.8160   45.3330 C   0  0  0  0  0  0  0  0  0  0  0  0
   59.5020   29.1670   45.4160 C   0  0  0  0  0  0  0  0  0  0  0  0
   60.7600   29.7500   45.9880 C   0  0  0  0  0  0  0  0  0  0  0  0
   58.5420   29.8750   44.7860 N   0  0  0  0  0  0  0  0  0  0  0  0
   58.5560   31.2970   44.5900 C   0  0  0  0  0  0  0  0  0  0  0  0
   58.4180   31.7620   43.4250 O   0  0  0  0  0  0  0  0  0  0  0  0
   58.7190   32.1840   45.7120 N   0  0  0  0  0  0  0  0  0  0  0  0
   58.3750   31.7050   47.0590 C   0  0  0  0  0  0  0  0  0  0  0  0
   58.3150   32.8530   48.0730 C   0  0  0  0  0  0  0  0  0  0  0  0
   59.5000   33.7110   47.9430 N   0  0  0  0  0  0  0  0  0  0  0  0
   60.1160   34.2810   49.1140 C   0  0  0  0  0  0  0  0  0  0  0  0
   61.1680   34.9650   48.9970 O   0  0  0  0  0  0  0  0  0  0  0  0
   59.5350   34.0750   50.3770 O   0  0  0  0  0  0  0  0  0  0  0  0
   59.6690   32.9050   51.1970 C   0  0  0  0  0  0  0  0  0  0  0  0
   60.2440   33.3610   52.5460 C   0  0  0  0  0  0  0  0  0  0  0  0
   60.6460   31.9020   50.5530 C   0  0  0  0  0  0  0  0  0  0  0  0
   58.2960   32.2490   51.4380 C   0  0  0  0  0  0  0  0  0  0  0  0
   60.0010   34.0840   46.6110 C   0  0  0  0  0  0  0  0  0  0  0  0
   59.0740   33.5920   45.4950 C   0  0  0  0  0  0  0  0  0  0  0  0
  1  2  2  0
  2  3  1  0
  3  4  2  3
  4  5  1  0
  5  6  1  0
  6  7  1  0
  7  8  2  0
  7  9  1  0
  9 10  1  0
 10 11  1  0
  3 12  1  0
 12 13  2  0
 13 14  1  0
 13 15  1  0
 15 16  1  0
 16 17  2  0
 16 18  1  0
 18 19  1  0
 19 20  1  0
 20 21  1  0
 21 22  1  0
 22 23  2  0
 22 24  1  0
 24 25  1  0
 25 26  1  0
 25 27  1  0
 25 28  1  0
 21 29  1  0
 29 30  1  0
 15  2  1  0
 30 18  1  0
 10  5  2  0
M  CHG  3   6  -1   9  -1  11  -1
M  END
>  <UniqueID>  (3366) 
53

>  <SMILES>  (3366) 
C=c1c(=Cc2[n-]c(=O)[n-]c2[O-])cc(C)n1C(=O)N1CCN(C(=O)OC(C)(C)C)CC1

>  <Energy>  (3366) 
123.23071606514351

>  <Genealogy>  (3366) 
C=c1c(=Cc2[n-]c(=O)[n-]c2[O-])cc(C)n1C(=O)N1CCN(C(=O)OC(C)(C)C)CC1 (protonated)
C=c1c(=Cc2[n-]c(=O)[n-]c2[O-])cc(C)n1C(=O)N1CCN(C(=O)OC(C)(C)C)CC1 (3D coordinates assigned)
C=c1c(=Cc2[n-]c(=O)[n-]c2[O-])cc(C)n1C(=O)N1CCN(C(=O)OC(C)(C)C)CC1 (nonaromatic ring conformer: 123.23071606514351 kcal/mol)

>  <smiles>  (3366) 
C=c1c(=Cc2[nH]c(=O)[nH]c2O)cc(C)n1C(=O)N1CCN(C(=O)OC(C)(C)C)CC1

>  <score_type>  (3366) 
oracle

>  <origin>  (3366) 
adg

>  <m_score__min__energy>  (3366) 
-16.629999999999999

>  <m_primary>  (3366) 
energy

$$$$
65:0
     RDKit          3D

 23 25  0  0  0  0  0  0  0  0999 V2000
   60.5580   28.2960   50.6950 C   0  0  0  0  0  0  0  0  0  0  0  0
   60.4440   27.5480   51.9400 N   0  0  0  0  0  0  0  0  0  0  0  0
   59.8020   28.0250   53.1300 C   0  0  0  0  0  0  0  0  0  0  0  0
   60.5130   28.2910   54.1340 O   0  0  0  0  0  0  0  0  0  0  0  0
   58.3500   28.2660   53.2070 C   0  0  0  0  0  0  0  0  0  0  0  0
   57.4950   27.3600   53.8490 C   0  0  0  0  0  0  0  0  0  0  0  0
   56.1250   27.6310   53.9220 C   0  0  0  0  0  0  0  0  0  0  0  0
   55.3620   26.8090   54.4980 O   0  0  0  0  0  0  0  0  0  0  0  0
   55.6170   28.8190   53.3630 C   0  0  0  0  0  0  0  0  0  0  0  0
   54.2480   29.1400   53.4090 C   0  0  0  0  0  0  0  0  0  0  0  0
   53.7790   30.3370   52.8440 C   0  0  0  0  0  0  0  0  0  0  0  0
   52.3220   30.6970   52.9300 C   0  0  0  0  0  0  0  0  0  0  0  0
   51.7570   30.8900   51.5560 C   0  0  0  0  0  0  0  0  0  0  0  0
   52.0180   29.8590   50.2480 S   0  0  0  0  0  0  0  0  0  0  0  0
   51.1580   30.8470   49.1950 C   0  0  0  0  0  0  0  0  0  0  0  0
   50.9770   30.5940   47.9760 O   0  0  0  0  0  0  0  0  0  0  0  0
   50.6800   31.9560   49.7940 N   0  0  0  0  0  0  0  0  0  0  0  0
   51.0200   31.9830   51.1100 C   0  0  0  0  0  0  0  0  0  0  0  0
   50.6520   33.0380   51.9360 O   0  0  0  0  0  0  0  0  0  0  0  0
   54.6900   31.2250   52.2480 C   0  0  0  0  0  0  0  0  0  0  0  0
   56.0510   30.9140   52.1980 C   0  0  0  0  0  0  0  0  0  0  0  0
   56.5190   29.7170   52.7480 C   0  0  0  0  0  0  0  0  0  0  0  0
   57.8440   29.4200   52.6940 N   0  0  0  0  0  0  0  0  0  0  0  0
  1  2  1  0
  2  3  1  0
  3  4  2  0
  3  5  1  0
  5  6  2  0
  6  7  1  0
  7  8  2  0
  7  9  1  0
  9 10  2  0
 10 11  1  0
 11 12  1  0
 12 13  1  0
 13 14  1  0
 14 15  1  0
 15 16  2  0
 15 17  1  0
 17 18  1  0
 18 19  1  0
 11 20  2  0
 20 21  1  0
 21 22  2  0
 22 23  1  0
 23  5  1  0
 22  9  1  0
 18 13  2  0
M  CHG  4   2  -1  17  -1  19  -1  23  -1
M  END
>  <UniqueID>  (3367) 
62

>  <SMILES>  (3367) 
C[N-]C(=O)c1cc(=O)c2cc(Cc3sc(=O)[n-]c3[O-])ccc2[n-]1

>  <Energy>  (3367) 
71.30726253557735

>  <Genealogy>  (3367) 
C[N-]C(=O)c1cc(=O)c2cc(Cc3sc(=O)[n-]c3[O-])ccc2[n-]1 (protonated)
C[N-]C(=O)c1cc(=O)c2cc(Cc3sc(=O)[n-]c3[O-])ccc2[n-]1 (3D coordinates assigned)
C[N-]C(=O)c1cc(=O)c2cc(Cc3sc(=O)[n-]c3[O-])ccc2[n-]1 (optimized conformer: 71.30726253557735 kcal/mol)

>  <smiles>  (3367) 
CNC(=O)c1cc(=O)c2cc(Cc3sc(=O)[nH]c3O)ccc2[nH]1

>  <score_type>  (3367) 
oracle

>  <origin>  (3367) 
adg

>  <m_score__min__energy>  (3367) 
-15.23

>  <m_primary>  (3367) 
energy

$$$$
69:0
     RDKit          3D

 30 32  0  0  0  0  0  0  0  0999 V2000
   55.7690   29.4670   44.7540 C   0  0  0  0  0  0  0  0  0  0  0  0
   56.6660   30.5040   45.2410 N   0  0  0  0  0  0  0  0  0  0  0  0
   57.4550   31.3950   44.4380 C   0  0  0  0  0  0  0  0  0  0  0  0
   57.6530   31.0860   43.2320 O   0  0  0  0  0  0  0  0  0  0  0  0
   58.0450   32.6510   44.9580 C   0  0  0  0  0  0  0  0  0  0  0  0
   58.4790   33.6820   44.1220 C   0  0  0  0  0  0  0  0  0  0  0  0
   59.0820   34.9220   45.0860 S   0  0  0  0  0  0  0  0  0  0  0  0
   58.7650   34.1040   46.5190 C   0  0  0  0  0  0  0  0  0  0  0  0
   59.0790   34.6190   47.8900 C   0  0  0  0  0  0  0  0  0  0  0  0
   60.5050   34.4180   48.2290 N   0  0  0  0  0  0  0  0  0  0  0  0
   61.2920   33.9680   47.0520 C   0  0  0  0  0  0  0  0  0  0  0  0
   61.6360   32.4610   47.0470 C   0  0  0  0  0  0  0  0  0  0  0  0
   60.6530   31.6830   47.8060 N   0  0  0  0  0  0  0  0  0  0  0  0
   60.1180   30.4570   47.2830 C   0  0  0  0  0  0  0  0  0  0  0  0
   58.8700   30.2970   47.2360 O   0  0  0  0  0  0  0  0  0  0  0  0
   60.9690   29.3890   46.8510 N   0  0  0  0  0  0  0  0  0  0  0  0
   60.7950   28.6450   45.6110 C   0  0  0  0  0  0  0  0  0  0  0  0
   59.6130   27.7280   45.7440 C   0  0  0  0  0  0  0  0  0  0  0  0
   58.7530   27.5210   44.6540 C   0  0  0  0  0  0  0  0  0  0  0  0
   57.6330   26.6950   44.7880 C   0  0  0  0  0  0  0  0  0  0  0  0
   57.3510   26.0810   46.0150 C   0  0  0  0  0  0  0  0  0  0  0  0
   55.9480   25.0300   46.1770 S   0  0  0  0  0  0  0  0  0  0  0  0
   54.5080   25.9450   45.9090 N   0  0  0  0  0  0  0  0  0  0  0  0
   56.0250   23.9160   45.1720 O   0  0  0  0  0  0  0  0  0  0  0  0
   55.9160   24.4330   47.5560 O   0  0  0  0  0  0  0  0  0  0  0  0
   58.2040   26.2930   47.1070 C   0  0  0  0  0  0  0  0  0  0  0  0
   59.3240   27.1190   46.9750 C   0  0  0  0  0  0  0  0  0  0  0  0
   60.2590   32.1140   49.1490 C   0  0  0  0  0  0  0  0  0  0  0  0
   60.7160   33.5540   49.4130 C   0  0  0  0  0  0  0  0  0  0  0  0
   58.2090   32.8960   46.2870 N   0  0  0  0  0  0  0  0  0  0  0  0
  1  2  1  0
  2  3  1  0
  3  4  2  0
  3  5  1  0
  5  6  2  0
  6  7  1  0
  7  8  1  0
  8  9  1  0
  9 10  1  0
 10 11  1  0
 11 12  1  0
 12 13  1  0
 13 14  1  0
 14 15  2  0
 14 16  1  0
 16 17  1  0
 17 18  1  0
 18 19  2  0
 19 20  1  0
 20 21  2  0
 21 22  1  0
 22 23  1  0
 22 24  2  0
 22 25  2  0
 21 26  1  0
 26 27  2  0
 13 28  1  0
 28 29  1  0
  8 30  2  0
 30  5  1  0
 29 10  1  0
 27 18  1  0
M  CHG  3   2  -1  16  -1  23  -1
M  END
>  <UniqueID>  (3368) 
66

>  <SMILES>  (3368) 
C[N-]C(=O)c1csc(CN2CCN(C(=O)[N-]Cc3ccc(S([NH-])(=O)=O)cc3)CC2)n1

>  <Energy>  (3368) 
89.94432808957848

>  <Genealogy>  (3368) 
C[N-]C(=O)c1csc(CN2CCN(C(=O)[N-]Cc3ccc(S([NH-])(=O)=O)cc3)CC2)n1 (protonated)
C[N-]C(=O)c1csc(CN2CCN(C(=O)[N-]Cc3ccc(S([NH-])(=O)=O)cc3)CC2)n1 (3D coordinates assigned)
C[N-]C(=O)c1csc(CN2CCN(C(=O)[N-]Cc3ccc(S([NH-])(=O)=O)cc3)CC2)n1 (nonaromatic ring conformer: 89.94432808957848 kcal/mol)

>  <smiles>  (3368) 
CNC(=O)c1csc(CN2CCN(C(=O)NCc3ccc(S(N)(=O)=O)cc3)CC2)n1

>  <score_type>  (3368) 
oracle

>  <origin>  (3368) 
adg

>  <m_score__min__energy>  (3368) 
-15.029999999999999

>  <m_primary>  (3368) 
energy

$$$$
71:0
     RDKit          3D

 28 30  0  0  0  0  0  0  0  0999 V2000
   53.8520   28.0620   53.3800 C   0  0  0  0  0  0  0  0  0  0  0  0
   54.4660   29.1530   52.8850 C   0  0  0  0  0  0  0  0  0  0  0  0
   53.8260   30.2650   52.3280 C   0  0  0  0  0  0  0  0  0  0  0  0
   52.4980   30.4960   52.2540 C   0  0  0  0  0  0  0  0  0  0  0  0
   51.7950   30.8900   51.0200 C   0  0  0  0  0  0  0  0  0  0  0  0
   51.7640   30.1260   49.9110 N   0  0  0  0  0  0  0  0  0  0  0  0
   51.0570   30.8710   49.0330 C   0  0  0  0  0  0  0  0  0  0  0  0
   50.7920   30.4770   47.8650 O   0  0  0  0  0  0  0  0  0  0  0  0
   50.6490   32.0650   49.5050 N   0  0  0  0  0  0  0  0  0  0  0  0
   51.1360   32.0700   50.7590 C   0  0  0  0  0  0  0  0  0  0  0  0
   51.0210   33.1530   51.6220 O   0  0  0  0  0  0  0  0  0  0  0  0
   54.8310   31.1160   51.9000 C   0  0  0  0  0  0  0  0  0  0  0  0
   56.0320   30.4980   52.1800 C   0  0  0  0  0  0  0  0  0  0  0  0
   57.3500   31.0700   51.8050 C   0  0  0  0  0  0  0  0  0  0  0  0
   57.8150   32.0600   52.4310 O   0  0  0  0  0  0  0  0  0  0  0  0
   58.0760   30.5780   50.6700 N   0  0  0  0  0  0  0  0  0  0  0  0
   58.8470   31.3770   49.7630 C   0  0  0  0  0  0  0  0  0  0  0  0
   59.5790   30.7380   48.7550 C   0  0  0  0  0  0  0  0  0  0  0  0
   60.3500   31.4860   47.8600 C   0  0  0  0  0  0  0  0  0  0  0  0
   60.3820   32.8910   47.9490 C   0  0  0  0  0  0  0  0  0  0  0  0
   61.2180   33.6760   47.0140 C   0  0  0  0  0  0  0  0  0  0  0  0
   60.6870   34.2620   46.0290 O   0  0  0  0  0  0  0  0  0  0  0  0
   62.5980   33.7740   47.2260 O   0  0  0  0  0  0  0  0  0  0  0  0
   63.3320   32.8200   47.9870 C   0  0  0  0  0  0  0  0  0  0  0  0
   59.6240   33.5310   48.9480 C   0  0  0  0  0  0  0  0  0  0  0  0
   58.8630   32.7770   49.8480 C   0  0  0  0  0  0  0  0  0  0  0  0
   55.8170   29.3130   52.8120 N   0  0  0  0  0  0  0  0  0  0  0  0
   56.8420   28.3100   53.1610 C   0  0  0  0  0  0  0  0  0  0  0  0
  1  2  2  0
  2  3  1  0
  3  4  2  0
  4  5  1  0
  5  6  1  0
  6  7  1  0
  7  8  2  0
  7  9  1  0
  9 10  1  0
 10 11  1  0
  3 12  1  0
 12 13  2  0
 13 14  1  0
 14 15  2  0
 14 16  1  0
 16 17  1  0
 17 18  2  0
 18 19  1  0
 19 20  2  0
 20 21  1  0
 21 22  2  0
 21 23  1  0
 23 24  1  0
 20 25  1  0
 25 26  2  0
 13 27  1  0
 27 28  1  0
 27  2  1  0
 10  5  2  0
 26 17  1  0
M  CHG  4   6  -1   9  -1  11  -1  16  -1
M  END
>  <UniqueID>  (3369) 
68

>  <SMILES>  (3369) 
C=c1/c(=C/c2[n-]c(=O)[n-]c2[O-])cc(C(=O)[N-]c2ccc(C(=O)OC)cc2)n1C

>  <Energy>  (3369) 
115.81140738766165

>  <Genealogy>  (3369) 
C=c1c(=Cc2[n-]c(=O)[n-]c2[O-])cc(C(=O)[N-]c2ccc(C(=O)OC)cc2)n1C (protonated)
C=c1/c(=C/c2[n-]c(=O)[n-]c2[O-])cc(C(=O)[N-]c2ccc(C(=O)OC)cc2)n1C (cis-trans isomerization)
C=c1/c(=C/c2[n-]c(=O)[n-]c2[O-])cc(C(=O)[N-]c2ccc(C(=O)OC)cc2)n1C (3D coordinates assigned)
C=c1/c(=C/c2[n-]c(=O)[n-]c2[O-])cc(C(=O)[N-]c2ccc(C(=O)OC)cc2)n1C (optimized conformer: 115.81140738766165 kcal/mol)

>  <smiles>  (3369) 
C=c1c(=Cc2[nH]c(=O)[nH]c2O)cc(C(=O)Nc2ccc(C(=O)OC)cc2)n1C

>  <score_type>  (3369) 
oracle

>  <origin>  (3369) 
adg

>  <m_score__min__energy>  (3369) 
-17.850000000000001

>  <m_primary>  (3369) 
energy

$$$$
72:0
     RDKit          3D

 33 37  0  0  0  0  0  0  0  0999 V2000
   55.4650   31.6250   52.2920 C   0  0  0  0  0  0  0  0  0  0  0  0
   55.0300   30.4270   52.7200 C   0  0  0  0  0  0  0  0  0  0  0  0
   53.7000   30.0700   52.9720 C   0  0  0  0  0  0  0  0  0  0  0  0
   52.5970   30.8130   52.7550 C   0  0  0  0  0  0  0  0  0  0  0  0
   51.9610   30.9690   51.4340 C   0  0  0  0  0  0  0  0  0  0  0  0
   52.0620   30.0510   50.4510 N   0  0  0  0  0  0  0  0  0  0  0  0
   51.3880   30.6170   49.4280 C   0  0  0  0  0  0  0  0  0  0  0  0
   51.2440   30.0460   48.3140 O   0  0  0  0  0  0  0  0  0  0  0  0
   50.8880   31.8470   49.6890 N   0  0  0  0  0  0  0  0  0  0  0  0
   51.2690   32.0620   50.9580 C   0  0  0  0  0  0  0  0  0  0  0  0
   51.0230   33.2480   51.6480 O   0  0  0  0  0  0  0  0  0  0  0  0
   53.7300   28.7590   53.4320 C   0  0  0  0  0  0  0  0  0  0  0  0
   55.0570   28.3710   53.4490 C   0  0  0  0  0  0  0  0  0  0  0  0
   55.5290   26.9960   53.8450 C   0  0  0  0  0  0  0  0  0  0  0  0
   54.3430   26.0770   54.1120 C   0  0  0  0  0  0  0  0  0  0  0  0
   55.8480   29.3840   53.0200 N   0  0  0  0  0  0  0  0  0  0  0  0
   57.2780   29.3290   52.8530 C   0  0  0  0  0  0  0  0  0  0  0  0
   58.0350   28.3880   53.5550 C   0  0  0  0  0  0  0  0  0  0  0  0
   59.4160   28.3200   53.3680 C   0  0  0  0  0  0  0  0  0  0  0  0
   60.0520   29.1890   52.4820 C   0  0  0  0  0  0  0  0  0  0  0  0
   59.3110   30.1530   51.7750 C   0  0  0  0  0  0  0  0  0  0  0  0
   59.9650   31.0770   50.8150 C   0  0  0  0  0  0  0  0  0  0  0  0
   61.2250   31.0890   50.7170 O   0  0  0  0  0  0  0  0  0  0  0  0
   59.1970   31.9990   50.0190 N   0  0  0  0  0  0  0  0  0  0  0  0
   58.4950   31.5360   48.8160 C   0  0  0  0  0  0  0  0  0  0  0  0
   58.6350   32.5600   47.6760 C   0  0  0  0  0  0  0  0  0  0  0  0
   59.9780   33.1590   47.7370 N   0  0  0  0  0  0  0  0  0  0  0  0
   60.2240   33.9610   46.5290 C   0  0  0  0  0  0  0  0  0  0  0  0
   59.6010   35.3470   46.5850 C   0  0  0  0  0  0  0  0  0  0  0  0
   58.9600   34.2600   45.7390 C   0  0  0  0  0  0  0  0  0  0  0  0
   60.1340   34.0180   48.9440 C   0  0  0  0  0  0  0  0  0  0  0  0
   59.4240   33.4390   50.1850 C   0  0  0  0  0  0  0  0  0  0  0  0
   57.9170   30.2130   51.9720 C   0  0  0  0  0  0  0  0  0  0  0  0
  1  2  2  0
  2  3  1  0
  3  4  2  3
  4  5  1  0
  5  6  1  0
  6  7  1  0
  7  8  2  0
  7  9  1  0
  9 10  1  0
 10 11  1  0
  3 12  1  0
 12 13  2  0
 13 14  1  0
 14 15  1  0
 13 16  1  0
 16 17  1  0
 17 18  2  0
 18 19  1  0
 19 20  2  0
 20 21  1  0
 21 22  1  0
 22 23  2  0
 22 24  1  0
 24 25  1  0
 25 26  1  0
 26 27  1  0
 27 28  1  0
 28 29  1  0
 29 30  1  0
 27 31  1  0
 31 32  1  0
 21 33  2  0
 16  2  1  0
 33 17  1  0
 10  5  2  0
 32 24  1  0
 30 28  1  0
M  CHG  3   6  -1   9  -1  11  -1
M  END
>  <UniqueID>  (3370) 
69

>  <SMILES>  (3370) 
C=c1c(=Cc2[n-]c(=O)[n-]c2[O-])cc(CC)n1-c1cccc(C(=O)N2CCN(C3CC3)CC2)c1

>  <Energy>  (3370) 
408.0636502373623

>  <Genealogy>  (3370) 
C=c1c(=Cc2[n-]c(=O)[n-]c2[O-])cc(CC)n1-c1cccc(C(=O)N2CCN(C3CC3)CC2)c1 (protonated)
C=c1c(=Cc2[n-]c(=O)[n-]c2[O-])cc(CC)n1-c1cccc(C(=O)N2CCN(C3CC3)CC2)c1 (3D coordinates assigned)
C=c1c(=Cc2[n-]c(=O)[n-]c2[O-])cc(CC)n1-c1cccc(C(=O)N2CCN(C3CC3)CC2)c1 (nonaromatic ring conformer: 408.0636502373623 kcal/mol)

>  <smiles>  (3370) 
C=c1c(=Cc2[nH]c(=O)[nH]c2O)cc(CC)n1-c1cccc(C(=O)N2CCN(C3CC3)CC2)c1

>  <score_type>  (3370) 
oracle

>  <origin>  (3370) 
adg

>  <m_score__min__energy>  (3370) 
-17.859999999999999

>  <m_primary>  (3370) 
energy

$$$$
0:0
     RDKit          3D

 29 31  0  0  0  0  0  0  0  0999 V2000
   59.2680   30.0710   46.6990 C   0  0  0  0  0  0  0  0  0  0  0  0
   58.3210   29.6510   45.8410 C   0  0  0  0  0  0  0  0  0  0  0  0
   57.6190   28.4390   45.9240 C   0  0  0  0  0  0  0  0  0  0  0  0
   57.7490   27.4890   46.8760 C   0  0  0  0  0  0  0  0  0  0  0  0
   57.1830   26.1230   46.8150 C   0  0  0  0  0  0  0  0  0  0  0  0
   57.8050   24.9910   47.1880 N   0  0  0  0  0  0  0  0  0  0  0  0
   56.8680   24.0370   47.0030 C   0  0  0  0  0  0  0  0  0  0  0  0
   57.0820   22.8200   47.2430 O   0  0  0  0  0  0  0  0  0  0  0  0
   55.6820   24.4900   46.5440 N   0  0  0  0  0  0  0  0  0  0  0  0
   55.8970   25.8110   46.4370 C   0  0  0  0  0  0  0  0  0  0  0  0
   54.9340   26.7160   46.0060 O   0  0  0  0  0  0  0  0  0  0  0  0
   56.7580   28.4180   44.8330 C   0  0  0  0  0  0  0  0  0  0  0  0
   56.9710   29.5890   44.1360 C   0  0  0  0  0  0  0  0  0  0  0  0
   56.2440   29.9690   42.8800 C   0  0  0  0  0  0  0  0  0  0  0  0
   57.9140   30.3450   44.7440 N   0  0  0  0  0  0  0  0  0  0  0  0
   58.4360   31.6190   44.2200 C   0  0  0  0  0  0  0  0  0  0  0  0
   58.0450   32.7610   45.1230 C   0  0  0  0  0  0  0  0  0  0  0  0
   57.0100   33.3720   44.8920 O   0  0  0  0  0  0  0  0  0  0  0  0
   58.8880   33.1500   46.2370 N   0  0  0  0  0  0  0  0  0  0  0  0
   58.2590   34.2370   47.0270 C   0  0  0  0  0  0  0  0  0  0  0  0
   59.2710   34.9710   47.9340 C   0  0  0  0  0  0  0  0  0  0  0  0
   60.4800   34.1610   48.1280 N   0  0  0  0  0  0  0  0  0  0  0  0
   60.8150   33.6450   49.4320 C   0  0  0  0  0  0  0  0  0  0  0  0
   59.8950   33.4220   50.2660 O   0  0  0  0  0  0  0  0  0  0  0  0
   62.1760   33.3490   49.7920 N   0  0  0  0  0  0  0  0  0  0  0  0
   62.4520   32.2300   50.6940 C   0  0  0  0  0  0  0  0  0  0  0  0
   63.2910   34.1330   49.2540 C   0  0  0  0  0  0  0  0  0  0  0  0
   61.1960   33.6880   46.9350 C   0  0  0  0  0  0  0  0  0  0  0  0
   60.2280   33.5370   45.7490 C   0  0  0  0  0  0  0  0  0  0  0  0
  1  2  2  0
  2  3  1  0
  3  4  2  3
  4  5  1  0
  5  6  1  0
  6  7  1  0
  7  8  2  0
  7  9  1  0
  9 10  1  0
 10 11  1  0
  3 12  1  0
 12 13  2  0
 13 14  1  0
 13 15  1  0
 15 16  1  0
 16 17  1  0
 17 18  2  0
 17 19  1  0
 19 20  1  0
 20 21  1  0
 21 22  1  0
 22 23  1  0
 23 24  2  0
 23 25  1  0
 25 26  1  0
 25 27  1  0
 22 28  1  0
 28 29  1  0
 15  2  1  0
 29 19  1  0
 10  5  2  0
M  CHG  4   6  -1   9  -1  11  -1  19   1
M  END
>  <UniqueID>  (3371) 
1

>  <SMILES>  (3371) 
C=c1c(=Cc2[n-]c(=O)[n-]c2[O-])cc(C)n1CC(=O)[NH+]1CCN(C(=O)N(C)C)CC1

>  <Energy>  (3371) 
122.08721741488846

>  <Genealogy>  (3371) 
C=c1c(=Cc2[n-]c(=O)[n-]c2[O-])cc(C)n1CC(=O)[NH+]1CCN(C(=O)N(C)C)CC1 (protonated)
C=c1c(=Cc2[n-]c(=O)[n-]c2[O-])cc(C)n1CC(=O)[NH+]1CCN(C(=O)N(C)C)CC1 (3D coordinates assigned)
C=c1c(=Cc2[n-]c(=O)[n-]c2[O-])cc(C)n1CC(=O)[NH+]1CCN(C(=O)N(C)C)CC1 (nonaromatic ring conformer: 122.08721741488846 kcal/mol)

>  <smiles>  (3371) 
C=c1c(=Cc2[nH]c(=O)[nH]c2O)cc(C)n1CC(=O)N1CCN(C(=O)N(C)C)CC1

>  <score_type>  (3371) 
oracle

>  <origin>  (3371) 
adg

>  <m_score__min__energy>  (3371) 
-15.08

>  <m_primary>  (3371) 
energy

$$$$
4:0
     RDKit          3D

 24 26  0  0  0  0  0  0  0  0999 V2000
   58.2760   31.6740   49.2450 C   0  0  0  0  0  0  0  0  0  0  0  0
   57.7170   32.0340   50.4110 C   0  0  0  0  0  0  0  0  0  0  0  0
   57.8420   31.2640   51.7030 C   0  0  0  0  0  0  0  0  0  0  0  0
   56.5080   30.7840   52.2020 C   0  0  0  0  0  0  0  0  0  0  0  0
   55.3150   31.4710   52.0950 C   0  0  0  0  0  0  0  0  0  0  0  0
   54.3250   30.6140   52.5460 C   0  0  0  0  0  0  0  0  0  0  0  0
   53.0140   30.9150   52.4960 C   0  0  0  0  0  0  0  0  0  0  0  0
   52.1840   30.8970   51.2800 C   0  0  0  0  0  0  0  0  0  0  0  0
   51.3380   31.8950   50.8580 C   0  0  0  0  0  0  0  0  0  0  0  0
   51.0190   33.0430   51.5730 O   0  0  0  0  0  0  0  0  0  0  0  0
   50.8520   31.6180   49.6330 N   0  0  0  0  0  0  0  0  0  0  0  0
   51.4530   30.4460   49.3320 C   0  0  0  0  0  0  0  0  0  0  0  0
   51.2710   29.8450   48.2410 O   0  0  0  0  0  0  0  0  0  0  0  0
   52.2760   29.9870   50.2950 N   0  0  0  0  0  0  0  0  0  0  0  0
   54.9850   29.4540   52.9810 C   0  0  0  0  0  0  0  0  0  0  0  0
   54.4760   28.4100   53.6410 C   0  0  0  0  0  0  0  0  0  0  0  0
   56.3060   29.5690   52.7430 N   0  0  0  0  0  0  0  0  0  0  0  0
   59.0280   32.5950   48.3710 C   0  0  0  0  0  0  0  0  0  0  0  0
   58.3280   33.4480   47.5060 C   0  0  0  0  0  0  0  0  0  0  0  0
   59.0240   34.2900   46.6340 C   0  0  0  0  0  0  0  0  0  0  0  0
   60.4210   34.2970   46.6330 C   0  0  0  0  0  0  0  0  0  0  0  0
   61.1260   33.4700   47.5130 C   0  0  0  0  0  0  0  0  0  0  0  0
   63.0360   33.4820   47.5130 Br  0  0  0  0  0  0  0  0  0  0  0  0
   60.4330   32.6260   48.3870 C   0  0  0  0  0  0  0  0  0  0  0  0
  1  2  2  3
  2  3  1  0
  3  4  1  0
  4  5  2  0
  5  6  1  0
  6  7  2  0
  7  8  1  0
  8  9  2  0
  9 10  1  0
  9 11  1  0
 11 12  1  0
 12 13  2  0
 12 14  1  0
  6 15  1  0
 15 16  2  0
 15 17  1  0
  1 18  1  0
 18 19  2  0
 19 20  1  0
 20 21  2  0
 21 22  1  0
 22 23  1  0
 22 24  2  0
 17  4  1  0
 24 18  1  0
 14  8  1  0
M  CHG  2  10  -1  11  -1
M  END
>  <UniqueID>  (3372) 
5

>  <SMILES>  (3372) 
C=c1[nH]c(CC=Cc2cccc(Br)c2)c/c1=C/c1[nH]c(=O)[n-]c1[O-]

>  <Energy>  (3372) 
109.70867264249813

>  <Genealogy>  (3372) 
C=c1[nH]c(CC=Cc2cccc(Br)c2)cc1=Cc1[nH]c(=O)[n-]c1[O-] (protonated)
C=c1[nH]c(CC=Cc2cccc(Br)c2)c/c1=C/c1[nH]c(=O)[n-]c1[O-] (cis-trans isomerization)
C=c1[nH]c(CC=Cc2cccc(Br)c2)c/c1=C/c1[nH]c(=O)[n-]c1[O-] (3D coordinates assigned)
C=c1[nH]c(CC=Cc2cccc(Br)c2)c/c1=C/c1[nH]c(=O)[n-]c1[O-] (optimized conformer: 109.70867264249813 kcal/mol)

>  <smiles>  (3372) 
C=c1[nH]c(CC=Cc2cccc(Br)c2)cc1=Cc1[nH]c(=O)[nH]c1O

>  <score_type>  (3372) 
oracle

>  <origin>  (3372) 
adg

>  <m_score__min__energy>  (3372) 
-15.32

>  <m_primary>  (3372) 
energy

$$$$
9:0
     RDKit          3D

 34 37  0  0  0  0  0  0  0  0999 V2000
   57.8890   28.2280   46.6750 O   0  0  0  0  0  0  0  0  0  0  0  0
   56.9730   27.7830   45.9310 C   0  0  0  0  0  0  0  0  0  0  0  0
   56.0720   28.7000   45.3030 N   0  0  0  0  0  0  0  0  0  0  0  0
   56.5880   29.8710   44.1350 S   0  0  0  0  0  0  0  0  0  0  0  0
   55.3790   30.4720   43.4760 O   0  0  0  0  0  0  0  0  0  0  0  0
   57.4200   29.2030   43.0760 O   0  0  0  0  0  0  0  0  0  0  0  0
   57.5130   31.1360   44.9360 C   0  0  0  0  0  0  0  0  0  0  0  0
   58.6620   30.8130   45.6700 C   0  0  0  0  0  0  0  0  0  0  0  0
   59.3820   31.8140   46.3270 C   0  0  0  0  0  0  0  0  0  0  0  0
   58.9690   33.1560   46.2510 C   0  0  0  0  0  0  0  0  0  0  0  0
   59.7180   34.2200   46.9630 C   0  0  0  0  0  0  0  0  0  0  0  0
   59.1820   35.3490   47.1240 O   0  0  0  0  0  0  0  0  0  0  0  0
   61.0360   33.9850   47.4900 N   0  0  0  0  0  0  0  0  0  0  0  0
   62.0920   33.4210   46.6350 C   0  0  0  0  0  0  0  0  0  0  0  0
   62.9230   32.3970   47.4200 C   0  0  0  0  0  0  0  0  0  0  0  0
   63.1750   32.8440   48.8000 N   0  0  0  0  0  0  0  0  0  0  0  0
   63.6840   31.9080   49.7710 C   0  0  0  0  0  0  0  0  0  0  0  0
   62.8580   30.8940   50.2890 C   0  0  0  0  0  0  0  0  0  0  0  0
   63.3560   29.9840   51.2240 C   0  0  0  0  0  0  0  0  0  0  0  0
   64.6850   30.0720   51.6500 C   0  0  0  0  0  0  0  0  0  0  0  0
   65.1780   29.1670   52.5810 O   0  0  0  0  0  0  0  0  0  0  0  0
   65.5180   31.0680   51.1340 C   0  0  0  0  0  0  0  0  0  0  0  0
   65.0220   31.9810   50.1970 C   0  0  0  0  0  0  0  0  0  0  0  0
   62.8260   34.2150   49.1900 C   0  0  0  0  0  0  0  0  0  0  0  0
   61.3640   34.4950   48.8290 C   0  0  0  0  0  0  0  0  0  0  0  0
   57.8070   33.4700   45.5270 C   0  0  0  0  0  0  0  0  0  0  0  0
   57.0850   32.4680   44.8730 C   0  0  0  0  0  0  0  0  0  0  0  0
   56.8500   26.3180   45.7060 C   0  0  0  0  0  0  0  0  0  0  0  0
   58.0110   25.5580   45.4580 C   0  0  0  0  0  0  0  0  0  0  0  0
   57.9300   24.1780   45.2420 C   0  0  0  0  0  0  0  0  0  0  0  0
   56.6920   23.5380   45.2680 C   0  0  0  0  0  0  0  0  0  0  0  0
   55.5320   24.2710   45.5180 C   0  0  0  0  0  0  0  0  0  0  0  0
   55.6000   25.6530   45.7390 C   0  0  0  0  0  0  0  0  0  0  0  0
   54.4200   26.3400   45.9960 O   0  0  0  0  0  0  0  0  0  0  0  0
  1  2  2  0
  2  3  1  0
  3  4  1  0
  4  5  2  0
  4  6  2  0
  4  7  1  0
  7  8  2  0
  8  9  1  0
  9 10  2  0
 10 11  1  0
 11 12  2  0
 11 13  1  0
 13 14  1  0
 14 15  1  0
 15 16  1  0
 16 17  1  0
 17 18  2  0
 18 19  1  0
 19 20  2  0
 20 21  1  0
 20 22  1  0
 22 23  2  0
 16 24  1  0
 24 25  1  0
 10 26  1  0
 26 27  2  0
  2 28  1  0
 28 29  2  0
 29 30  1  0
 30 31  2  0
 31 32  1  0
 32 33  2  0
 33 34  1  0
 27  7  1  0
 33 28  1  0
 25 13  1  0
 23 17  1  0
M  CHG  3   3  -1  21  -1  34  -1
M  END
>  <UniqueID>  (3373) 
10

>  <SMILES>  (3373) 
O=C([N-]S(=O)(=O)c1ccc(C(=O)N2CCN(c3ccc([O-])cc3)CC2)cc1)c1ccccc1[O-]

>  <Energy>  (3373) 
72.44724705612877

>  <Genealogy>  (3373) 
O=C([N-]S(=O)(=O)c1ccc(C(=O)N2CCN(c3ccc([O-])cc3)CC2)cc1)c1ccccc1[O-] (protonated)
O=C([N-]S(=O)(=O)c1ccc(C(=O)N2CCN(c3ccc([O-])cc3)CC2)cc1)c1ccccc1[O-] (3D coordinates assigned)
O=C([N-]S(=O)(=O)c1ccc(C(=O)N2CCN(c3ccc([O-])cc3)CC2)cc1)c1ccccc1[O-] (nonaromatic ring conformer: 72.44724705612877 kcal/mol)

>  <smiles>  (3373) 
O=C(NS(=O)(=O)c1ccc(C(=O)N2CCN(c3ccc(O)cc3)CC2)cc1)c1ccccc1O

>  <score_type>  (3373) 
oracle

>  <origin>  (3373) 
adg

>  <m_score__min__energy>  (3373) 
-16.41

>  <m_primary>  (3373) 
energy

$$$$
10:0
     RDKit          3D

 32 35  0  0  0  0  0  0  0  0999 V2000
   59.8080   28.0820   44.6260 O   0  0  0  0  0  0  0  0  0  0  0  0
   59.3260   28.9260   45.4290 C   0  0  0  0  0  0  0  0  0  0  0  0
   59.8970   30.2360   45.5320 N   0  0  0  0  0  0  0  0  0  0  0  0
   59.3720   31.3370   46.2910 C   0  0  0  0  0  0  0  0  0  0  0  0
   59.8790   31.6610   47.5620 C   0  0  0  0  0  0  0  0  0  0  0  0
   59.3470   32.7380   48.2850 C   0  0  0  0  0  0  0  0  0  0  0  0
   59.9680   33.1440   49.8840 S   0  0  0  0  0  0  0  0  0  0  0  0
   59.4070   34.4760   50.2940 O   0  0  0  0  0  0  0  0  0  0  0  0
   61.4690   33.2440   49.8480 O   0  0  0  0  0  0  0  0  0  0  0  0
   59.4820   31.9150   51.0260 N   0  0  0  0  0  0  0  0  0  0  0  0
   58.2820   32.3350   51.7860 C   0  0  0  0  0  0  0  0  0  0  0  0
   57.0140   31.5910   51.3290 C   0  0  0  0  0  0  0  0  0  0  0  0
   57.1230   30.1800   51.4450 O   0  0  0  0  0  0  0  0  0  0  0  0
   58.4260   29.6800   51.1650 C   0  0  0  0  0  0  0  0  0  0  0  0
   59.3010   30.6280   50.3300 C   0  0  0  0  0  0  0  0  0  0  0  0
   58.2920   33.4820   47.7470 C   0  0  0  0  0  0  0  0  0  0  0  0
   57.7670   33.1510   46.4960 C   0  0  0  0  0  0  0  0  0  0  0  0
   58.2920   32.0750   45.7700 C   0  0  0  0  0  0  0  0  0  0  0  0
   57.7370   31.7620   44.4860 N   0  0  0  0  0  0  0  0  0  0  0  0
   56.7080   30.7270   44.3890 C   0  0  0  0  0  0  0  0  0  0  0  0
   56.7080   30.1340   42.9770 C   0  0  0  0  0  0  0  0  0  0  0  0
   56.6300   31.1560   42.0000 O   0  0  0  0  0  0  0  0  0  0  0  0
   57.7960   31.9580   42.0490 C   0  0  0  0  0  0  0  0  0  0  0  0
   57.8830   32.7080   43.3810 C   0  0  0  0  0  0  0  0  0  0  0  0
   58.1450   28.6200   46.1820 N   0  0  0  0  0  0  0  0  0  0  0  0
   57.5760   27.3020   46.2880 C   0  0  0  0  0  0  0  0  0  0  0  0
   58.2890   26.2500   46.8950 C   0  0  0  0  0  0  0  0  0  0  0  0
   57.7110   24.9820   47.0120 C   0  0  0  0  0  0  0  0  0  0  0  0
   56.4170   24.7540   46.5420 C   0  0  0  0  0  0  0  0  0  0  0  0
   55.6940   25.7960   45.9570 C   0  0  0  0  0  0  0  0  0  0  0  0
   56.2640   27.0680   45.8350 C   0  0  0  0  0  0  0  0  0  0  0  0
   55.5270   28.0920   45.2510 O   0  0  0  0  0  0  0  0  0  0  0  0
  1  2  2  0
  2  3  1  0
  3  4  1  0
  4  5  2  0
  5  6  1  0
  6  7  1  0
  7  8  2  0
  7  9  2  0
  7 10  1  0
 10 11  1  0
 11 12  1  0
 12 13  1  0
 13 14  1  0
 14 15  1  0
  6 16  2  0
 16 17  1  0
 17 18  2  0
 18 19  1  0
 19 20  1  0
 20 21  1  0
 21 22  1  0
 22 23  1  0
 23 24  1  0
  2 25  1  0
 25 26  1  0
 26 27  2  0
 27 28  1  0
 28 29  2  0
 29 30  1  0
 30 31  2  0
 31 32  1  0
 18  4  1  0
 24 19  1  0
 31 26  1  0
 15 10  1  0
M  CHG  2   3  -1  32  -1
M  END
>  <UniqueID>  (3374) 
11

>  <SMILES>  (3374) 
O=C([N-]c1cc(S(=O)(=O)N2CCOCC2)ccc1N1CCOCC1)Nc1ccccc1[O-]

>  <Energy>  (3374) 
84.29149646140189

>  <Genealogy>  (3374) 
O=C([N-]c1cc(S(=O)(=O)N2CCOCC2)ccc1N1CCOCC1)Nc1ccccc1[O-] (protonated)
O=C([N-]c1cc(S(=O)(=O)N2CCOCC2)ccc1N1CCOCC1)Nc1ccccc1[O-] (3D coordinates assigned)
O=C([N-]c1cc(S(=O)(=O)N2CCOCC2)ccc1N1CCOCC1)Nc1ccccc1[O-] (nonaromatic ring conformer: 84.29149646140189 kcal/mol)

>  <smiles>  (3374) 
O=C(Nc1ccccc1O)Nc1cc(S(=O)(=O)N2CCOCC2)ccc1N1CCOCC1

>  <score_type>  (3374) 
oracle

>  <origin>  (3374) 
adg

>  <m_score__min__energy>  (3374) 
-14.16

>  <m_primary>  (3374) 
energy

$$$$
32:0
     RDKit          3D

 32 35  0  0  0  0  0  0  0  0999 V2000
   59.0530   34.8890   45.2490 C   0  0  0  0  0  0  0  0  0  0  0  0
   57.4930   34.0550   45.0430 S   0  0  0  0  0  0  0  0  0  0  0  0
   57.0270   33.5660   46.3870 O   0  0  0  0  0  0  0  0  0  0  0  0
   56.4750   35.0150   44.4960 O   0  0  0  0  0  0  0  0  0  0  0  0
   57.6650   32.6440   43.9560 C   0  0  0  0  0  0  0  0  0  0  0  0
   56.6390   31.5390   44.2410 C   0  0  0  0  0  0  0  0  0  0  0  0
   57.1830   30.5080   45.1340 N   0  0  0  0  0  0  0  0  0  0  0  0
   56.6590   29.2750   45.3350 C   0  0  0  0  0  0  0  0  0  0  0  0
   55.5040   28.8190   44.7110 O   0  0  0  0  0  0  0  0  0  0  0  0
   57.4120   28.5420   46.2470 C   0  0  0  0  0  0  0  0  0  0  0  0
   57.1390   27.1570   46.6860 C   0  0  0  0  0  0  0  0  0  0  0  0
   55.8700   26.5510   46.4540 N   0  0  0  0  0  0  0  0  0  0  0  0
   58.0350   26.4980   47.2740 O   0  0  0  0  0  0  0  0  0  0  0  0
   58.4420   29.3950   46.6270 C   0  0  0  0  0  0  0  0  0  0  0  0
   59.5060   29.2200   47.5150 C   0  0  0  0  0  0  0  0  0  0  0  0
   60.4090   30.2840   47.7060 C   0  0  0  0  0  0  0  0  0  0  0  0
   60.2100   31.5160   47.0240 C   0  0  0  0  0  0  0  0  0  0  0  0
   59.1370   31.6570   46.1220 C   0  0  0  0  0  0  0  0  0  0  0  0
   58.2670   30.5770   45.9400 C   0  0  0  0  0  0  0  0  0  0  0  0
   61.1990   32.6460   47.1790 C   0  0  0  0  0  0  0  0  0  0  0  0
   61.9210   32.5940   48.4670 N   0  0  0  0  0  0  0  0  0  0  0  0
   61.0600   33.0190   49.5960 C   0  0  0  0  0  0  0  0  0  0  0  0
   61.2380   32.1050   50.8170 C   0  0  0  0  0  0  0  0  0  0  0  0
   59.9520   31.3870   51.1340 C   0  0  0  0  0  0  0  0  0  0  0  0
   59.9760   30.1400   51.7770 C   0  0  0  0  0  0  0  0  0  0  0  0
   58.7810   29.4940   52.1060 C   0  0  0  0  0  0  0  0  0  0  0  0
   57.5540   30.0930   51.8050 C   0  0  0  0  0  0  0  0  0  0  0  0
   56.3670   29.4500   52.1380 O   0  0  0  0  0  0  0  0  0  0  0  0
   57.5220   31.3400   51.1740 C   0  0  0  0  0  0  0  0  0  0  0  0
   58.7160   31.9900   50.8450 C   0  0  0  0  0  0  0  0  0  0  0  0
   62.5490   31.2660   48.6480 C   0  0  0  0  0  0  0  0  0  0  0  0
   61.5210   30.1240   48.7110 C   0  0  0  0  0  0  0  0  0  0  0  0
  1  2  1  0
  2  3  2  0
  2  4  2  0
  2  5  1  0
  5  6  1  0
  6  7  1  0
  7  8  1  0
  8  9  1  0
  8 10  2  0
 10 11  1  0
 11 12  1  0
 11 13  2  0
 10 14  1  0
 14 15  2  0
 15 16  1  0
 16 17  2  0
 17 18  1  0
 18 19  2  0
 17 20  1  0
 20 21  1  0
 21 22  1  0
 22 23  1  0
 23 24  1  0
 24 25  2  0
 25 26  1  0
 26 27  2  0
 27 28  1  0
 27 29  1  0
 29 30  2  0
 21 31  1  0
 31 32  1  0
 19  7  1  0
 30 24  1  0
 19 14  1  0
 32 16  1  0
M  CHG  3   9  -1  12  -1  28  -1
M  END
>  <UniqueID>  (3375) 
32

>  <SMILES>  (3375) 
CS(=O)(=O)CCn1c([O-])c(C([NH-])=O)c2cc3c(cc21)CN(CCc1ccc([O-])cc1)CC3

>  <Energy>  (3375) 
90.64947169345679

>  <Genealogy>  (3375) 
CS(=O)(=O)CCn1c([O-])c(C([NH-])=O)c2cc3c(cc21)CN(CCc1ccc([O-])cc1)CC3 (protonated)
CS(=O)(=O)CCn1c([O-])c(C([NH-])=O)c2cc3c(cc21)CN(CCc1ccc([O-])cc1)CC3 (3D coordinates assigned)
CS(=O)(=O)CCn1c([O-])c(C([NH-])=O)c2cc3c(cc21)CN(CCc1ccc([O-])cc1)CC3 (nonaromatic ring conformer: 90.64947169345679 kcal/mol)

>  <smiles>  (3375) 
CS(=O)(=O)CCn1c(O)c(C(N)=O)c2cc3c(cc21)CN(CCc1ccc(O)cc1)CC3

>  <score_type>  (3375) 
oracle

>  <origin>  (3375) 
adg

>  <m_score__min__energy>  (3375) 
-14.52

>  <m_primary>  (3375) 
energy

$$$$
42:0
     RDKit          3D

 32 35  0  0  0  0  0  0  0  0999 V2000
   51.5140   30.0310   49.4240 O   0  0  0  0  0  0  0  0  0  0  0  0
   51.4960   30.8470   50.5510 C   0  0  0  0  0  0  0  0  0  0  0  0
   50.7630   31.9690   50.6520 N   0  0  0  0  0  0  0  0  0  0  0  0
   51.0600   32.4040   51.8950 C   0  0  0  0  0  0  0  0  0  0  0  0
   50.5600   33.4510   52.3850 O   0  0  0  0  0  0  0  0  0  0  0  0
   51.9280   31.6240   52.5750 N   0  0  0  0  0  0  0  0  0  0  0  0
   52.2110   30.6350   51.7070 C   0  0  0  0  0  0  0  0  0  0  0  0
   53.0890   29.4740   51.9710 C   0  0  0  0  0  0  0  0  0  0  0  0
   54.2870   29.5240   52.5930 C   0  0  0  0  0  0  0  0  0  0  0  0
   55.1610   30.6050   52.6430 C   0  0  0  0  0  0  0  0  0  0  0  0
   56.2750   30.1850   53.3390 C   0  0  0  0  0  0  0  0  0  0  0  0
   57.4650   31.0290   53.5700 C   0  0  0  0  0  0  0  0  0  0  0  0
   57.8260   31.2540   54.7580 O   0  0  0  0  0  0  0  0  0  0  0  0
   58.2080   31.6020   52.4770 N   0  0  0  0  0  0  0  0  0  0  0  0
   59.6260   31.9340   52.6840 C   0  0  0  0  0  0  0  0  0  0  0  0
   60.2840   32.3790   51.3780 C   0  0  0  0  0  0  0  0  0  0  0  0
   59.7480   31.5590   50.2790 N   0  0  0  0  0  0  0  0  0  0  0  0
   60.5740   31.6660   49.0570 C   0  0  0  0  0  0  0  0  0  0  0  0
   61.5200   32.8830   49.1260 C   0  0  0  0  0  0  0  0  0  0  0  0
   61.1810   33.9130   48.1160 N   0  0  0  0  0  0  0  0  0  0  0  0
   61.2790   33.3650   46.7380 C   0  0  0  0  0  0  0  0  0  0  0  0
   59.9100   32.9260   46.1970 C   0  0  0  0  0  0  0  0  0  0  0  0
   58.9730   34.0700   46.1030 N   0  0  0  0  0  0  0  0  0  0  0  0
   57.5800   33.5980   46.1430 C   0  0  0  0  0  0  0  0  0  0  0  0
   59.2170   35.1190   47.1240 C   0  0  0  0  0  0  0  0  0  0  0  0
   59.8670   34.5500   48.3940 C   0  0  0  0  0  0  0  0  0  0  0  0
   58.3450   31.9320   50.0010 C   0  0  0  0  0  0  0  0  0  0  0  0
   57.5090   32.1200   51.2880 C   0  0  0  0  0  0  0  0  0  0  0  0
   56.1230   28.9050   53.7530 N   0  0  0  0  0  0  0  0  0  0  0  0
   57.0510   28.1390   54.5910 C   0  0  0  0  0  0  0  0  0  0  0  0
   54.9200   28.4840   53.2860 C   0  0  0  0  0  0  0  0  0  0  0  0
   54.4370   27.2450   53.4770 C   0  0  0  0  0  0  0  0  0  0  0  0
  1  2  1  0
  2  3  1  0
  3  4  1  0
  4  5  2  0
  4  6  1  0
  6  7  1  0
  7  8  1  0
  8  9  2  0
  9 10  1  0
 10 11  2  0
 11 12  1  0
 12 13  2  0
 12 14  1  0
 14 15  1  0
 15 16  1  0
 16 17  1  0
 17 18  1  0
 18 19  1  0
 19 20  1  0
 20 21  1  0
 21 22  1  0
 22 23  1  0
 23 24  1  0
 23 25  1  0
 25 26  1  0
 17 27  1  0
 27 28  1  0
 11 29  1  0
 29 30  1  0
 29 31  1  0
 31 32  2  0
  7  2  2  0
 31  9  1  0
 28 14  1  0
 26 20  1  0
M  CHG  2   3  -1   6  -1
M  END
>  <UniqueID>  (3376) 
40

>  <SMILES>  (3376) 
C=c1/c(=C/c2[n-]c(=O)[n-]c2O)cc(C(=O)N2CCN(CCN3CCN(C)CC3)CC2)n1C

>  <Energy>  (3376) 
147.50994050705566

>  <Genealogy>  (3376) 
C=c1c(=Cc2[n-]c(=O)[n-]c2O)cc(C(=O)N2CCN(CCN3CCN(C)CC3)CC2)n1C (protonated)
C=c1/c(=C/c2[n-]c(=O)[n-]c2O)cc(C(=O)N2CCN(CCN3CCN(C)CC3)CC2)n1C (cis-trans isomerization)
C=c1/c(=C/c2[n-]c(=O)[n-]c2O)cc(C(=O)N2CCN(CCN3CCN(C)CC3)CC2)n1C (3D coordinates assigned)
C=c1/c(=C/c2[n-]c(=O)[n-]c2O)cc(C(=O)N2CCN(CCN3CCN(C)CC3)CC2)n1C (nonaromatic ring conformer: 147.50994050705566 kcal/mol)

>  <smiles>  (3376) 
C=c1c(=Cc2[nH]c(=O)[nH]c2O)cc(C(=O)N2CCN(CCN3CCN(C)CC3)CC2)n1C

>  <score_type>  (3376) 
oracle

>  <origin>  (3376) 
adg

>  <m_score__min__energy>  (3376) 
-14.369999999999999

>  <m_primary>  (3376) 
energy

$$$$
50:0
     RDKit          3D

 28 30  0  0  0  0  0  0  0  0999 V2000
   59.3120   30.7480   49.5290 C   0  0  0  0  0  0  0  0  0  0  0  0
   59.4740   30.2360   48.3070 C   0  0  0  0  0  0  0  0  0  0  0  0
   58.5000   29.5270   47.6880 N   0  0  0  0  0  0  0  0  0  0  0  0
   59.0240   29.2190   46.4820 C   0  0  0  0  0  0  0  0  0  0  0  0
   58.4140   28.4770   45.5480 C   0  0  0  0  0  0  0  0  0  0  0  0
   57.5170   27.3440   45.8740 C   0  0  0  0  0  0  0  0  0  0  0  0
   56.1220   27.4220   45.7040 C   0  0  0  0  0  0  0  0  0  0  0  0
   55.5260   28.5780   45.2150 O   0  0  0  0  0  0  0  0  0  0  0  0
   55.3410   26.3480   45.9930 N   0  0  0  0  0  0  0  0  0  0  0  0
   55.8850   25.1840   46.4300 C   0  0  0  0  0  0  0  0  0  0  0  0
   55.1410   24.2040   46.6920 O   0  0  0  0  0  0  0  0  0  0  0  0
   57.2300   25.0760   46.5800 N   0  0  0  0  0  0  0  0  0  0  0  0
   58.0550   26.1200   46.3080 C   0  0  0  0  0  0  0  0  0  0  0  0
   59.3000   25.9810   46.4580 O   0  0  0  0  0  0  0  0  0  0  0  0
   60.2950   29.7420   46.3990 C   0  0  0  0  0  0  0  0  0  0  0  0
   61.0710   29.6560   45.4070 O   0  0  0  0  0  0  0  0  0  0  0  0
   60.5980   30.3690   47.5510 N   0  0  0  0  0  0  0  0  0  0  0  0
   61.8650   31.0330   47.8830 C   0  0  0  0  0  0  0  0  0  0  0  0
   61.8340   32.5010   47.5340 C   0  0  0  0  0  0  0  0  0  0  0  0
   62.8140   32.9820   46.9020 O   0  0  0  0  0  0  0  0  0  0  0  0
   60.7260   33.3580   47.8890 N   0  0  0  0  0  0  0  0  0  0  0  0
   59.6490   33.6150   46.9720 C   0  0  0  0  0  0  0  0  0  0  0  0
   59.8920   34.3060   45.7750 C   0  0  0  0  0  0  0  0  0  0  0  0
   58.8490   34.5420   44.8750 C   0  0  0  0  0  0  0  0  0  0  0  0
   57.5550   34.1040   45.1740 C   0  0  0  0  0  0  0  0  0  0  0  0
   57.3040   33.4310   46.3710 C   0  0  0  0  0  0  0  0  0  0  0  0
   58.3470   33.1840   47.2680 C   0  0  0  0  0  0  0  0  0  0  0  0
   60.7430   34.0560   49.1760 C   0  0  0  0  0  0  0  0  0  0  0  0
  1  2  2  0
  2  3  1  0
  3  4  1  0
  4  5  2  0
  5  6  1  0
  6  7  2  0
  7  8  1  0
  7  9  1  0
  9 10  1  0
 10 11  2  0
 10 12  1  0
 12 13  1  0
 13 14  2  0
  4 15  1  0
 15 16  2  0
 15 17  1  0
 17 18  1  0
 18 19  1  0
 19 20  2  0
 19 21  1  0
 21 22  1  0
 22 23  2  0
 23 24  1  0
 24 25  2  0
 25 26  1  0
 26 27  2  0
 21 28  1  0
 17  2  1  0
 27 22  1  0
 13  6  1  0
M  CHG  4   3  -1   8  -1   9  -1  12  -1
M  END
>  <UniqueID>  (3377) 
47

>  <SMILES>  (3377) 
C=c1[n-]/c(=C\c2c([O-])[n-]c(=O)[n-]c2=O)c(=O)n1CC(=O)N(C)c1ccccc1

>  <Energy>  (3377) 
87.47666923216619

>  <Genealogy>  (3377) 
C=c1[n-]c(=Cc2c([O-])[n-]c(=O)[n-]c2=O)c(=O)n1CC(=O)N(C)c1ccccc1 (protonated)
C=c1[n-]/c(=C\c2c([O-])[n-]c(=O)[n-]c2=O)c(=O)n1CC(=O)N(C)c1ccccc1 (cis-trans isomerization)
C=c1[n-]/c(=C\c2c([O-])[n-]c(=O)[n-]c2=O)c(=O)n1CC(=O)N(C)c1ccccc1 (3D coordinates assigned)
C=c1[n-]/c(=C\c2c([O-])[n-]c(=O)[n-]c2=O)c(=O)n1CC(=O)N(C)c1ccccc1 (optimized conformer: 87.47666923216619 kcal/mol)

>  <smiles>  (3377) 
C=c1[nH]c(=Cc2c(O)[nH]c(=O)[nH]c2=O)c(=O)n1CC(=O)N(C)c1ccccc1

>  <score_type>  (3377) 
oracle

>  <origin>  (3377) 
adg

>  <m_score__min__energy>  (3377) 
-17.390000000000001

>  <m_primary>  (3377) 
energy

$$$$
79:0
     RDKit          3D

 34 37  0  0  0  0  0  0  0  0999 V2000
   55.0770   26.4330   46.0180 N   0  0  0  0  0  0  0  0  0  0  0  0
   56.2020   25.7110   46.5160 C   0  0  0  0  0  0  0  0  0  0  0  0
   56.0930   24.4720   46.7180 O   0  0  0  0  0  0  0  0  0  0  0  0
   57.4840   26.3970   46.8170 C   0  0  0  0  0  0  0  0  0  0  0  0
   58.4100   25.7550   47.6620 C   0  0  0  0  0  0  0  0  0  0  0  0
   59.6230   26.3640   47.9840 C   0  0  0  0  0  0  0  0  0  0  0  0
   59.9450   27.6110   47.4510 C   0  0  0  0  0  0  0  0  0  0  0  0
   59.0500   28.2640   46.5980 C   0  0  0  0  0  0  0  0  0  0  0  0
   59.5650   29.7730   45.8550 Cl  0  0  0  0  0  0  0  0  0  0  0  0
   57.8020   27.6760   46.2940 C   0  0  0  0  0  0  0  0  0  0  0  0
   56.8960   28.3330   45.3960 N   0  0  0  0  0  0  0  0  0  0  0  0
   57.1700   28.6130   44.0170 C   0  0  0  0  0  0  0  0  0  0  0  0
   58.0140   27.9030   43.4090 O   0  0  0  0  0  0  0  0  0  0  0  0
   56.4780   29.7340   43.2870 C   0  0  0  0  0  0  0  0  0  0  0  0
   57.1420   31.0610   43.5470 C   0  0  0  0  0  0  0  0  0  0  0  0
   57.7300   31.7770   42.4930 C   0  0  0  0  0  0  0  0  0  0  0  0
   58.3950   32.9770   42.7440 C   0  0  0  0  0  0  0  0  0  0  0  0
   58.4950   33.4710   44.0470 C   0  0  0  0  0  0  0  0  0  0  0  0
   59.1850   34.6570   44.2690 O   0  0  0  0  0  0  0  0  0  0  0  0
   57.9130   32.7640   45.1190 C   0  0  0  0  0  0  0  0  0  0  0  0
   57.9980   33.2950   46.5000 C   0  0  0  0  0  0  0  0  0  0  0  0
   56.9240   33.4600   47.1410 O   0  0  0  0  0  0  0  0  0  0  0  0
   59.2570   33.6130   47.1390 N   0  0  0  0  0  0  0  0  0  0  0  0
   59.2810   33.7840   48.6020 C   0  0  0  0  0  0  0  0  0  0  0  0
   60.6340   34.3090   49.1050 C   0  0  0  0  0  0  0  0  0  0  0  0
   61.7310   33.5740   48.4630 N   0  0  0  0  0  0  0  0  0  0  0  0
   62.9220   33.2860   49.2100 C   0  0  0  0  0  0  0  0  0  0  0  0
   63.3980   34.1540   49.9950 O   0  0  0  0  0  0  0  0  0  0  0  0
   63.6020   31.9570   49.0590 C   0  0  0  0  0  0  0  0  0  0  0  0
   64.3410   31.4340   50.2810 C   0  0  0  0  0  0  0  0  0  0  0  0
   62.9780   30.8730   49.9250 C   0  0  0  0  0  0  0  0  0  0  0  0
   61.6830   33.2700   47.0270 C   0  0  0  0  0  0  0  0  0  0  0  0
   60.4700   33.9340   46.3680 C   0  0  0  0  0  0  0  0  0  0  0  0
   57.2140   31.5730   44.8530 C   0  0  0  0  0  0  0  0  0  0  0  0
  1  2  1  0
  2  3  2  0
  2  4  1  0
  4  5  2  0
  5  6  1  0
  6  7  2  0
  7  8  1  0
  8  9  1  0
  8 10  2  0
 10 11  1  0
 11 12  1  0
 12 13  2  0
 12 14  1  0
 14 15  1  0
 15 16  2  0
 16 17  1  0
 17 18  2  0
 18 19  1  0
 18 20  1  0
 20 21  1  0
 21 22  2  0
 21 23  1  0
 23 24  1  0
 24 25  1  0
 25 26  1  0
 26 27  1  0
 27 28  2  0
 27 29  1  0
 29 30  1  0
 30 31  1  0
 26 32  1  0
 32 33  1  0
 20 34  2  0
 10  4  1  0
 34 15  1  0
 33 23  1  0
 31 29  1  0
M  CHG  3   1  -1  11  -1  19  -1
M  END
>  <UniqueID>  (3378) 
74

>  <SMILES>  (3378) 
[NH-]C(=O)c1cccc(Cl)c1[N-]C(=O)Cc1ccc([O-])c(C(=O)N2CCN(C(=O)C3CC3)CC2)c1

>  <Energy>  (3378) 
338.04424748777893

>  <Genealogy>  (3378) 
[NH-]C(=O)c1cccc(Cl)c1[N-]C(=O)Cc1ccc([O-])c(C(=O)N2CCN(C(=O)C3CC3)CC2)c1 (protonated)
[NH-]C(=O)c1cccc(Cl)c1[N-]C(=O)Cc1ccc([O-])c(C(=O)N2CCN(C(=O)C3CC3)CC2)c1 (3D coordinates assigned)
[NH-]C(=O)c1cccc(Cl)c1[N-]C(=O)Cc1ccc([O-])c(C(=O)N2CCN(C(=O)C3CC3)CC2)c1 (nonaromatic ring conformer: 338.04424748777893 kcal/mol)

>  <smiles>  (3378) 
NC(=O)c1cccc(Cl)c1NC(=O)Cc1ccc(O)c(C(=O)N2CCN(C(=O)C3CC3)CC2)c1

>  <score_type>  (3378) 
oracle

>  <origin>  (3378) 
adg

>  <m_score__min__energy>  (3378) 
-15.9

>  <m_primary>  (3378) 
energy

$$$$
87:0
     RDKit          3D

 33 36  0  0  0  0  0  0  0  0999 V2000
   58.8860   27.8310   48.1040 C   0  0  0  0  0  0  0  0  0  0  0  0
   58.3480   27.9410   46.8790 C   0  0  0  0  0  0  0  0  0  0  0  0
   57.6880   26.9330   46.1700 C   0  0  0  0  0  0  0  0  0  0  0  0
   57.3910   25.6910   46.6020 C   0  0  0  0  0  0  0  0  0  0  0  0
   56.3930   24.8130   45.9660 C   0  0  0  0  0  0  0  0  0  0  0  0
   56.6850   23.5940   45.4820 N   0  0  0  0  0  0  0  0  0  0  0  0
   55.5210   23.1890   44.9280 C   0  0  0  0  0  0  0  0  0  0  0  0
   55.3880   22.0670   44.3740 O   0  0  0  0  0  0  0  0  0  0  0  0
   54.5130   24.0840   45.0090 N   0  0  0  0  0  0  0  0  0  0  0  0
   55.0840   25.1120   45.6570 C   0  0  0  0  0  0  0  0  0  0  0  0
   54.4340   26.3130   45.9150 O   0  0  0  0  0  0  0  0  0  0  0  0
   57.3430   27.4820   44.9420 C   0  0  0  0  0  0  0  0  0  0  0  0
   57.7970   28.7860   44.9500 C   0  0  0  0  0  0  0  0  0  0  0  0
   57.6230   29.7540   43.8180 C   0  0  0  0  0  0  0  0  0  0  0  0
   58.4120   29.0650   46.1200 N   0  0  0  0  0  0  0  0  0  0  0  0
   58.9780   30.3360   46.4890 C   0  0  0  0  0  0  0  0  0  0  0  0
   58.1420   31.4270   46.7660 C   0  0  0  0  0  0  0  0  0  0  0  0
   58.6910   32.6570   47.1390 C   0  0  0  0  0  0  0  0  0  0  0  0
   60.0840   32.8170   47.2290 C   0  0  0  0  0  0  0  0  0  0  0  0
   60.6300   34.1390   47.6220 C   0  0  0  0  0  0  0  0  0  0  0  0
   60.1220   35.1640   47.0890 O   0  0  0  0  0  0  0  0  0  0  0  0
   61.7310   34.3100   48.5560 N   0  0  0  0  0  0  0  0  0  0  0  0
   63.0750   34.0160   47.9790 C   0  0  0  0  0  0  0  0  0  0  0  0
   63.7260   32.7610   48.5840 C   0  0  0  0  0  0  0  0  0  0  0  0
   63.8480   32.8560   50.0600 N   0  0  0  0  0  0  0  0  0  0  0  0
   64.0730   31.5280   50.6750 C   0  0  0  0  0  0  0  0  0  0  0  0
   62.7670   30.8870   51.1580 C   0  0  0  0  0  0  0  0  0  0  0  0
   61.9020   30.6910   50.0590 O   0  0  0  0  0  0  0  0  0  0  0  0
   61.3700   29.3870   50.1100 C   0  0  0  0  0  0  0  0  0  0  0  0
   62.7110   33.5630   50.7070 C   0  0  0  0  0  0  0  0  0  0  0  0
   61.4550   33.6000   49.8230 C   0  0  0  0  0  0  0  0  0  0  0  0
   60.9170   31.7150   46.9730 C   0  0  0  0  0  0  0  0  0  0  0  0
   60.3660   30.4860   46.6020 C   0  0  0  0  0  0  0  0  0  0  0  0
  1  2  2  0
  2  3  1  0
  3  4  2  0
  4  5  1  0
  5  6  1  0
  6  7  1  0
  7  8  2  0
  7  9  1  0
  9 10  1  0
 10 11  1  0
  3 12  1  0
 12 13  2  0
 13 14  1  0
 13 15  1  0
 15 16  1  0
 16 17  2  0
 17 18  1  0
 18 19  2  0
 19 20  1  0
 20 21  2  0
 20 22  1  0
 22 23  1  0
 23 24  1  0
 24 25  1  0
 25 26  1  0
 26 27  1  0
 27 28  1  0
 28 29  1  0
 25 30  1  0
 30 31  1  0
 19 32  1  0
 32 33  2  0
 15  2  1  0
 33 16  1  0
 10  5  2  0
 31 22  1  0
M  CHG  4   6  -1   9  -1  11  -1  22   1
M  END
>  <UniqueID>  (3379) 
82

>  <SMILES>  (3379) 
C=c1/c(=C/c2[n-]c(=O)[n-]c2[O-])cc(C)n1-c1ccc(C(=O)[NH+]2CCN(CCOC)CC2)cc1

>  <Energy>  (3379) 
156.29743516304222

>  <Genealogy>  (3379) 
C=c1c(=Cc2[n-]c(=O)[n-]c2[O-])cc(C)n1-c1ccc(C(=O)[NH+]2CCN(CCOC)CC2)cc1 (protonated)
C=c1/c(=C/c2[n-]c(=O)[n-]c2[O-])cc(C)n1-c1ccc(C(=O)[NH+]2CCN(CCOC)CC2)cc1 (cis-trans isomerization)
C=c1/c(=C/c2[n-]c(=O)[n-]c2[O-])cc(C)n1-c1ccc(C(=O)[NH+]2CCN(CCOC)CC2)cc1 (3D coordinates assigned)
C=c1/c(=C/c2[n-]c(=O)[n-]c2[O-])cc(C)n1-c1ccc(C(=O)[NH+]2CCN(CCOC)CC2)cc1 (nonaromatic ring conformer: 156.29743516304222 kcal/mol)

>  <smiles>  (3379) 
C=c1c(=Cc2[nH]c(=O)[nH]c2O)cc(C)n1-c1ccc(C(=O)N2CCN(CCOC)CC2)cc1

>  <score_type>  (3379) 
oracle

>  <origin>  (3379) 
adg

>  <m_score__min__energy>  (3379) 
-14.85

>  <m_primary>  (3379) 
energy

$$$$
90:0
     RDKit          3D

 36 40  0  0  0  0  0  0  0  0999 V2000
   61.5770   28.9590   44.5560 C   0  0  0  0  0  0  0  0  0  0  0  0
   60.3780   28.5810   45.0040 C   0  0  0  0  0  0  0  0  0  0  0  0
   59.5880   27.7280   44.3100 N   0  0  0  0  0  0  0  0  0  0  0  0
   58.4620   27.6330   45.0490 C   0  0  0  0  0  0  0  0  0  0  0  0
   57.3860   26.9020   44.7210 C   0  0  0  0  0  0  0  0  0  0  0  0
   56.9080   25.7340   45.4850 C   0  0  0  0  0  0  0  0  0  0  0  0
   57.6720   24.6380   45.6900 N   0  0  0  0  0  0  0  0  0  0  0  0
   56.8610   23.7940   46.3630 C   0  0  0  0  0  0  0  0  0  0  0  0
   57.2220   22.6410   46.7210 O   0  0  0  0  0  0  0  0  0  0  0  0
   55.6320   24.2950   46.5940 N   0  0  0  0  0  0  0  0  0  0  0  0
   54.4840   23.6090   47.1760 C   0  0  0  0  0  0  0  0  0  0  0  0
   55.6470   25.5040   46.0120 C   0  0  0  0  0  0  0  0  0  0  0  0
   54.5360   26.3310   45.9060 O   0  0  0  0  0  0  0  0  0  0  0  0
   58.5900   28.4380   46.1600 C   0  0  0  0  0  0  0  0  0  0  0  0
   57.7290   28.5930   47.0690 O   0  0  0  0  0  0  0  0  0  0  0  0
   59.7970   29.0300   46.1480 N   0  0  0  0  0  0  0  0  0  0  0  0
   60.3290   29.9220   47.1440 C   0  0  0  0  0  0  0  0  0  0  0  0
   60.7580   29.4230   48.3820 C   0  0  0  0  0  0  0  0  0  0  0  0
   61.2660   30.2900   49.3520 C   0  0  0  0  0  0  0  0  0  0  0  0
   61.3610   31.6580   49.0900 C   0  0  0  0  0  0  0  0  0  0  0  0
   60.9730   32.1680   47.8420 C   0  0  0  0  0  0  0  0  0  0  0  0
   61.0550   33.6160   47.5380 C   0  0  0  0  0  0  0  0  0  0  0  0
   62.2060   34.1340   47.5380 O   0  0  0  0  0  0  0  0  0  0  0  0
   59.8950   34.4890   47.3710 N   0  0  0  0  0  0  0  0  0  0  0  0
   59.8620   35.0770   46.0170 C   0  0  0  0  0  0  0  0  0  0  0  0
   59.5290   34.0200   44.9620 C   0  0  0  0  0  0  0  0  0  0  0  0
   58.3650   33.2220   45.3610 N   0  0  0  0  0  0  0  0  0  0  0  0
   57.7920   32.2980   44.4080 C   0  0  0  0  0  0  0  0  0  0  0  0
   57.0810   31.1640   44.8460 C   0  0  0  0  0  0  0  0  0  0  0  0
   56.5220   30.2770   43.9210 C   0  0  0  0  0  0  0  0  0  0  0  0
   56.6660   30.5090   42.5510 C   0  0  0  0  0  0  0  0  0  0  0  0
   57.3670   31.6310   42.1040 C   0  0  0  0  0  0  0  0  0  0  0  0
   57.9240   32.5220   43.0250 C   0  0  0  0  0  0  0  0  0  0  0  0
   57.6360   33.5490   46.5950 C   0  0  0  0  0  0  0  0  0  0  0  0
   58.5760   33.9150   47.7710 C   0  0  0  0  0  0  0  0  0  0  0  0
   60.4470   31.2960   46.8770 C   0  0  0  0  0  0  0  0  0  0  0  0
  1  2  2  0
  2  3  1  0
  3  4  1  0
  4  5  2  0
  5  6  1  0
  6  7  1  0
  7  8  1  0
  8  9  2  0
  8 10  1  0
 10 11  1  0
 10 12  1  0
 12 13  1  0
  4 14  1  0
 14 15  2  0
 14 16  1  0
 16 17  1  0
 17 18  2  0
 18 19  1  0
 19 20  2  0
 20 21  1  0
 21 22  1  0
 22 23  2  0
 22 24  1  0
 24 25  1  0
 25 26  1  0
 26 27  1  0
 27 28  1  0
 28 29  2  0
 29 30  1  0
 30 31  2  0
 31 32  1  0
 32 33  2  0
 27 34  1  0
 34 35  1  0
 21 36  2  0
 16  2  1  0
 36 17  1  0
 12  6  2  0
 35 24  1  0
 33 28  1  0
M  CHG  4   3  -1   7  -1  13  -1  24   1
M  END
>  <UniqueID>  (3380) 
85

>  <SMILES>  (3380) 
C=c1[n-]/c(=C\c2[n-]c(=O)n(C)c2[O-])c(=O)n1-c1cccc(C(=O)[NH+]2CCN(c3ccccc3)CC2)c1

>  <Energy>  (3380) 
164.97790324428485

>  <Genealogy>  (3380) 
C=c1[n-]c(=Cc2[n-]c(=O)n(C)c2[O-])c(=O)n1-c1cccc(C(=O)[NH+]2CCN(c3ccccc3)CC2)c1 (protonated)
C=c1[n-]/c(=C\c2[n-]c(=O)n(C)c2[O-])c(=O)n1-c1cccc(C(=O)[NH+]2CCN(c3ccccc3)CC2)c1 (cis-trans isomerization)
C=c1[n-]/c(=C\c2[n-]c(=O)n(C)c2[O-])c(=O)n1-c1cccc(C(=O)[NH+]2CCN(c3ccccc3)CC2)c1 (3D coordinates assigned)
C=c1[n-]/c(=C\c2[n-]c(=O)n(C)c2[O-])c(=O)n1-c1cccc(C(=O)[NH+]2CCN(c3ccccc3)CC2)c1 (nonaromatic ring conformer: 164.97790324428485 kcal/mol)

>  <smiles>  (3380) 
C=c1[nH]c(=Cc2[nH]c(=O)n(C)c2O)c(=O)n1-c1cccc(C(=O)N2CCN(c3ccccc3)CC2)c1

>  <score_type>  (3380) 
oracle

>  <origin>  (3380) 
adg

>  <m_score__min__energy>  (3380) 
-15.82

>  <m_primary>  (3380) 
energy

$$$$
7:0
     RDKit          3D

 33 36  0  0  0  0  0  0  0  0999 V2000
   52.8700   28.2090   53.4720 C   0  0  0  0  0  0  0  0  0  0  0  0
   53.7970   29.1370   53.1710 C   0  0  0  0  0  0  0  0  0  0  0  0
   55.1240   28.8720   53.5630 C   0  0  0  0  0  0  0  0  0  0  0  0
   56.1810   29.6390   53.0800 C   0  0  0  0  0  0  0  0  0  0  0  0
   55.9480   30.6770   52.1740 C   0  0  0  0  0  0  0  0  0  0  0  0
   57.0830   31.4660   51.6390 C   0  0  0  0  0  0  0  0  0  0  0  0
   57.0750   32.7190   51.7780 O   0  0  0  0  0  0  0  0  0  0  0  0
   58.1880   30.8390   50.9570 N   0  0  0  0  0  0  0  0  0  0  0  0
   58.6940   29.5260   51.3820 C   0  0  0  0  0  0  0  0  0  0  0  0
   60.2260   29.5420   51.4540 C   0  0  0  0  0  0  0  0  0  0  0  0
   60.8290   30.2030   50.2850 N   0  0  0  0  0  0  0  0  0  0  0  0
   62.2700   30.2600   50.1880 C   0  0  0  0  0  0  0  0  0  0  0  0
   62.9650   29.4440   50.8570 O   0  0  0  0  0  0  0  0  0  0  0  0
   62.9600   31.2640   49.2980 C   0  0  0  0  0  0  0  0  0  0  0  0
   63.8140   32.2360   50.0830 C   0  0  0  0  0  0  0  0  0  0  0  0
   65.1970   32.0000   50.1840 C   0  0  0  0  0  0  0  0  0  0  0  0
   66.0200   32.8900   50.8810 C   0  0  0  0  0  0  0  0  0  0  0  0
   65.4720   34.0290   51.4750 C   0  0  0  0  0  0  0  0  0  0  0  0
   64.1030   34.2830   51.3670 C   0  0  0  0  0  0  0  0  0  0  0  0
   63.2690   33.4000   50.6710 C   0  0  0  0  0  0  0  0  0  0  0  0
   61.4050   33.8400   50.5380 Br  0  0  0  0  0  0  0  0  0  0  0  0
   59.9540   30.7220   49.2210 C   0  0  0  0  0  0  0  0  0  0  0  0
   58.8260   31.5510   49.8410 C   0  0  0  0  0  0  0  0  0  0  0  0
   54.6270   31.0030   51.8340 C   0  0  0  0  0  0  0  0  0  0  0  0
   53.5280   30.3000   52.3750 C   0  0  0  0  0  0  0  0  0  0  0  0
   52.2940   30.8000   52.1110 C   0  0  0  0  0  0  0  0  0  0  0  0
   51.7550   31.1430   50.7820 C   0  0  0  0  0  0  0  0  0  0  0  0
   51.1370   32.3060   50.5110 N   0  0  0  0  0  0  0  0  0  0  0  0
   50.7160   32.1490   49.2370 C   0  0  0  0  0  0  0  0  0  0  0  0
   50.0930   33.0460   48.6140 O   0  0  0  0  0  0  0  0  0  0  0  0
   51.0020   30.9490   48.6890 N   0  0  0  0  0  0  0  0  0  0  0  0
   51.6470   30.3160   49.6840 C   0  0  0  0  0  0  0  0  0  0  0  0
   52.1030   29.0050   49.6010 O   0  0  0  0  0  0  0  0  0  0  0  0
  1  2  2  0
  2  3  1  0
  3  4  2  0
  4  5  1  0
  5  6  1  0
  6  7  2  0
  6  8  1  0
  8  9  1  0
  9 10  1  0
 10 11  1  0
 11 12  1  0
 12 13  2  0
 12 14  1  0
 14 15  1  0
 15 16  2  0
 16 17  1  0
 17 18  2  0
 18 19  1  0
 19 20  2  0
 20 21  1  0
 11 22  1  0
 22 23  1  0
  5 24  2  0
 24 25  1  0
 25 26  2  3
 26 27  1  0
 27 28  1  0
 28 29  1  0
 29 30  2  0
 29 31  1  0
 31 32  1  0
 32 33  1  0
 25  2  1  0
 32 27  2  0
 23  8  1  0
 20 15  1  0
M  CHG  2  28  -1  31  -1
M  END
>  <UniqueID>  (3381) 
7

>  <SMILES>  (3381) 
C=c1ccc(C(=O)N2CCN(C(=O)Cc3ccccc3Br)CC2)cc1=Cc1[n-]c(=O)[n-]c1O

>  <Energy>  (3381) 
114.69698480875054

>  <Genealogy>  (3381) 
C=c1ccc(C(=O)N2CCN(C(=O)Cc3ccccc3Br)CC2)cc1=Cc1[n-]c(=O)[n-]c1O (protonated)
C=c1ccc(C(=O)N2CCN(C(=O)Cc3ccccc3Br)CC2)cc1=Cc1[n-]c(=O)[n-]c1O (3D coordinates assigned)
C=c1ccc(C(=O)N2CCN(C(=O)Cc3ccccc3Br)CC2)cc1=Cc1[n-]c(=O)[n-]c1O (nonaromatic ring conformer: 114.69698480875054 kcal/mol)

>  <smiles>  (3381) 
C=c1ccc(C(=O)N2CCN(C(=O)Cc3ccccc3Br)CC2)cc1=Cc1[nH]c(=O)[nH]c1O

>  <score_type>  (3381) 
oracle

>  <origin>  (3381) 
adg

>  <m_score__min__energy>  (3381) 
-14.220000000000001

>  <m_primary>  (3381) 
energy

$$$$
14:0
     RDKit          3D

 31 34  0  0  0  0  0  0  0  0999 V2000
   57.6230   29.8150   43.4490 C   0  0  0  0  0  0  0  0  0  0  0  0
   58.0220   30.2470   44.6560 C   0  0  0  0  0  0  0  0  0  0  0  0
   58.3130   29.4600   45.7840 C   0  0  0  0  0  0  0  0  0  0  0  0
   58.4130   28.1250   45.9360 C   0  0  0  0  0  0  0  0  0  0  0  0
   57.2880   27.1790   45.9720 C   0  0  0  0  0  0  0  0  0  0  0  0
   57.3510   25.9400   46.4980 N   0  0  0  0  0  0  0  0  0  0  0  0
   56.0750   25.5040   46.4100 C   0  0  0  0  0  0  0  0  0  0  0  0
   55.7250   24.3580   46.7930 O   0  0  0  0  0  0  0  0  0  0  0  0
   55.2020   26.3980   45.8890 N   0  0  0  0  0  0  0  0  0  0  0  0
   55.9860   27.4560   45.6310 C   0  0  0  0  0  0  0  0  0  0  0  0
   55.5210   28.6510   45.0920 O   0  0  0  0  0  0  0  0  0  0  0  0
   58.5160   30.3430   46.8290 C   0  0  0  0  0  0  0  0  0  0  0  0
   58.4160   31.6140   46.3080 C   0  0  0  0  0  0  0  0  0  0  0  0
   58.6370   32.8400   47.1080 C   0  0  0  0  0  0  0  0  0  0  0  0
   57.7540   33.1460   47.9550 O   0  0  0  0  0  0  0  0  0  0  0  0
   59.8110   33.6900   46.9130 N   0  0  0  0  0  0  0  0  0  0  0  0
   60.0780   34.5870   48.0690 C   0  0  0  0  0  0  0  0  0  0  0  0
   60.5950   33.8170   49.2950 C   0  0  0  0  0  0  0  0  0  0  0  0
   61.7460   33.0000   48.9050 N   0  0  0  0  0  0  0  0  0  0  0  0
   63.0610   33.3270   49.3980 C   0  0  0  0  0  0  0  0  0  0  0  0
   63.3830   34.5410   49.5250 O   0  0  0  0  0  0  0  0  0  0  0  0
   64.0880   32.2770   49.7720 C   0  0  0  0  0  0  0  0  0  0  0  0
   65.5610   32.7780   49.7120 C   0  0  0  0  0  0  0  0  0  0  0  0
   66.3940   32.3520   50.9290 C   0  0  0  0  0  0  0  0  0  0  0  0
   66.1930   30.8640   51.2330 C   0  0  0  0  0  0  0  0  0  0  0  0
   64.7120   30.4920   51.4800 C   0  0  0  0  0  0  0  0  0  0  0  0
   63.7200   31.6090   51.1150 C   0  0  0  0  0  0  0  0  0  0  0  0
   61.5460   32.0970   47.7690 C   0  0  0  0  0  0  0  0  0  0  0  0
   61.0290   32.9090   46.5720 C   0  0  0  0  0  0  0  0  0  0  0  0
   58.0900   31.5630   44.9940 N   0  0  0  0  0  0  0  0  0  0  0  0
   57.7600   32.7090   44.1370 C   0  0  0  0  0  0  0  0  0  0  0  0
  1  2  2  0
  2  3  1  0
  3  4  2  0
  4  5  1  0
  5  6  1  0
  6  7  1  0
  7  8  2  0
  7  9  1  0
  9 10  1  0
 10 11  1  0
  3 12  1  0
 12 13  2  0
 13 14  1  0
 14 15  2  0
 14 16  1  0
 16 17  1  0
 17 18  1  0
 18 19  1  0
 19 20  1  0
 20 21  2  0
 20 22  1  0
 22 23  1  0
 23 24  1  0
 24 25  1  0
 25 26  1  0
 26 27  1  0
 19 28  1  0
 28 29  1  0
 13 30  1  0
 30 31  1  0
 30  2  1  0
 10  5  2  0
 29 16  1  0
 27 22  1  0
M  CHG  4   6  -1   9  -1  11  -1  16   1
M  END
>  <UniqueID>  (3382) 
12

>  <SMILES>  (3382) 
C=c1/c(=C\c2[n-]c(=O)[n-]c2[O-])cc(C(=O)[NH+]2CCN(C(=O)C3CCCCC3)CC2)n1C

>  <Energy>  (3382) 
150.26987884858158

>  <Genealogy>  (3382) 
C=c1c(=Cc2[n-]c(=O)[n-]c2[O-])cc(C(=O)[NH+]2CCN(C(=O)C3CCCCC3)CC2)n1C (protonated)
C=c1/c(=C\c2[n-]c(=O)[n-]c2[O-])cc(C(=O)[NH+]2CCN(C(=O)C3CCCCC3)CC2)n1C (cis-trans isomerization)
C=c1/c(=C\c2[n-]c(=O)[n-]c2[O-])cc(C(=O)[NH+]2CCN(C(=O)C3CCCCC3)CC2)n1C (3D coordinates assigned)
C=c1/c(=C\c2[n-]c(=O)[n-]c2[O-])cc(C(=O)[NH+]2CCN(C(=O)C3CCCCC3)CC2)n1C (nonaromatic ring conformer: 150.26987884858158 kcal/mol)

>  <smiles>  (3382) 
C=c1c(=Cc2[nH]c(=O)[nH]c2O)cc(C(=O)N2CCN(C(=O)C3CCCCC3)CC2)n1C

>  <score_type>  (3382) 
oracle

>  <origin>  (3382) 
adg

>  <m_score__min__energy>  (3382) 
-17.550000000000001

>  <m_primary>  (3382) 
energy

$$$$
18:0
     RDKit          3D

 26 28  0  0  0  0  0  0  0  0999 V2000
   56.7380   29.9050   44.2350 C   0  0  0  0  0  0  0  0  0  0  0  0
   57.6490   29.6050   45.1760 C   0  0  0  0  0  0  0  0  0  0  0  0
   58.1100   28.3230   45.4950 C   0  0  0  0  0  0  0  0  0  0  0  0
   57.6740   27.1490   44.9970 C   0  0  0  0  0  0  0  0  0  0  0  0
   57.1500   26.0460   45.8220 C   0  0  0  0  0  0  0  0  0  0  0  0
   57.9320   25.0950   46.3630 N   0  0  0  0  0  0  0  0  0  0  0  0
   57.0690   24.3560   47.0930 C   0  0  0  0  0  0  0  0  0  0  0  0
   57.4290   23.3460   47.7500 O   0  0  0  0  0  0  0  0  0  0  0  0
   55.7920   24.7940   47.0740 N   0  0  0  0  0  0  0  0  0  0  0  0
   55.8610   25.8710   46.2750 C   0  0  0  0  0  0  0  0  0  0  0  0
   54.7780   26.7000   46.0090 O   0  0  0  0  0  0  0  0  0  0  0  0
   59.0800   28.4900   46.4740 C   0  0  0  0  0  0  0  0  0  0  0  0
   59.1740   29.8460   46.7110 C   0  0  0  0  0  0  0  0  0  0  0  0
   60.0780   30.4630   47.7370 C   0  0  0  0  0  0  0  0  0  0  0  0
   58.3090   30.5280   45.9240 N   0  0  0  0  0  0  0  0  0  0  0  0
   58.1140   31.9540   45.9380 C   0  0  0  0  0  0  0  0  0  0  0  0
   57.9480   32.5800   44.8550 O   0  0  0  0  0  0  0  0  0  0  0  0
   58.0850   32.6590   47.1830 N   0  0  0  0  0  0  0  0  0  0  0  0
   58.6370   33.9960   47.3670 C   0  0  0  0  0  0  0  0  0  0  0  0
   60.1240   33.9170   47.5830 C   0  0  0  0  0  0  0  0  0  0  0  0
   60.9930   33.7620   46.4910 C   0  0  0  0  0  0  0  0  0  0  0  0
   62.3760   33.7200   46.6900 C   0  0  0  0  0  0  0  0  0  0  0  0
   62.9020   33.8370   47.9780 C   0  0  0  0  0  0  0  0  0  0  0  0
   62.0460   33.9990   49.0700 C   0  0  0  0  0  0  0  0  0  0  0  0
   60.6620   34.0410   48.8790 C   0  0  0  0  0  0  0  0  0  0  0  0
   59.8460   34.2080   49.9510 F   0  0  0  0  0  0  0  0  0  0  0  0
  1  2  2  0
  2  3  1  0
  3  4  2  0
  4  5  1  0
  5  6  1  0
  6  7  1  0
  7  8  2  0
  7  9  1  0
  9 10  1  0
 10 11  1  0
  3 12  1  0
 12 13  2  0
 13 14  1  0
 13 15  1  0
 15 16  1  0
 16 17  2  0
 16 18  1  0
 18 19  1  0
 19 20  1  0
 20 21  2  0
 21 22  1  0
 22 23  2  0
 23 24  1  0
 24 25  2  0
 25 26  1  0
 15  2  1  0
 25 20  1  0
 10  5  2  0
M  CHG  4   6  -1   9  -1  11  -1  18  -1
M  END
>  <UniqueID>  (3383) 
16

>  <SMILES>  (3383) 
C=c1/c(=C/c2[n-]c(=O)[n-]c2[O-])cc(C)n1C(=O)[N-]Cc1ccccc1F

>  <Energy>  (3383) 
108.2780993637469

>  <Genealogy>  (3383) 
C=c1c(=Cc2[n-]c(=O)[n-]c2[O-])cc(C)n1C(=O)[N-]Cc1ccccc1F (protonated)
C=c1/c(=C/c2[n-]c(=O)[n-]c2[O-])cc(C)n1C(=O)[N-]Cc1ccccc1F (cis-trans isomerization)
C=c1/c(=C/c2[n-]c(=O)[n-]c2[O-])cc(C)n1C(=O)[N-]Cc1ccccc1F (3D coordinates assigned)
C=c1/c(=C/c2[n-]c(=O)[n-]c2[O-])cc(C)n1C(=O)[N-]Cc1ccccc1F (optimized conformer: 108.2780993637469 kcal/mol)

>  <smiles>  (3383) 
C=c1c(=Cc2[nH]c(=O)[nH]c2O)cc(C)n1C(=O)NCc1ccccc1F

>  <score_type>  (3383) 
oracle

>  <origin>  (3383) 
adg

>  <m_score__min__energy>  (3383) 
-16.859999999999999

>  <m_primary>  (3383) 
energy

$$$$
25:0
     RDKit          3D

 24 26  0  0  0  0  0  0  0  0999 V2000
   60.7850   29.9700   46.3820 C   0  0  0  0  0  0  0  0  0  0  0  0
   59.6490   29.4860   45.8700 C   0  0  0  0  0  0  0  0  0  0  0  0
   58.5500   30.2280   45.5820 N   0  0  0  0  0  0  0  0  0  0  0  0
   58.3680   31.6500   45.6900 C   0  0  0  0  0  0  0  0  0  0  0  0
   58.2920   32.2440   46.9590 C   0  0  0  0  0  0  0  0  0  0  0  0
   58.1220   33.6240   47.0840 C   0  0  0  0  0  0  0  0  0  0  0  0
   58.0190   34.4200   45.9420 C   0  0  0  0  0  0  0  0  0  0  0  0
   58.0760   33.8390   44.6730 C   0  0  0  0  0  0  0  0  0  0  0  0
   58.2450   32.4460   44.5330 C   0  0  0  0  0  0  0  0  0  0  0  0
   58.2730   31.8130   43.2780 O   0  0  0  0  0  0  0  0  0  0  0  0
   57.1560   31.6430   42.4060 C   0  0  0  0  0  0  0  0  0  0  0  0
   57.3970   32.3520   41.0770 C   0  0  0  0  0  0  0  0  0  0  0  0
   57.6380   29.3350   45.1470 C   0  0  0  0  0  0  0  0  0  0  0  0
   56.4930   29.6510   44.7240 O   0  0  0  0  0  0  0  0  0  0  0  0
   58.1880   28.0620   45.1740 C   0  0  0  0  0  0  0  0  0  0  0  0
   57.6360   26.8940   44.8070 C   0  0  0  0  0  0  0  0  0  0  0  0
   57.1060   25.8890   45.7430 C   0  0  0  0  0  0  0  0  0  0  0  0
   57.8650   24.9430   46.3240 N   0  0  0  0  0  0  0  0  0  0  0  0
   57.0060   24.3270   47.1660 C   0  0  0  0  0  0  0  0  0  0  0  0
   57.3470   23.3570   47.8910 O   0  0  0  0  0  0  0  0  0  0  0  0
   55.7570   24.8410   47.1780 N   0  0  0  0  0  0  0  0  0  0  0  0
   55.8400   25.8370   46.2830 C   0  0  0  0  0  0  0  0  0  0  0  0
   54.7940   26.7060   45.9970 O   0  0  0  0  0  0  0  0  0  0  0  0
   59.4580   28.1720   45.6170 N   0  0  0  0  0  0  0  0  0  0  0  0
  1  2  2  0
  2  3  1  0
  3  4  1  0
  4  5  2  0
  5  6  1  0
  6  7  2  0
  7  8  1  0
  8  9  2  0
  9 10  1  0
 10 11  1  0
 11 12  1  0
  3 13  1  0
 13 14  2  0
 13 15  1  0
 15 16  2  0
 16 17  1  0
 17 18  1  0
 18 19  1  0
 19 20  2  0
 19 21  1  0
 21 22  1  0
 22 23  1  0
 15 24  1  0
 24  2  1  0
  9  4  1  0
 22 17  2  0
M  CHG  3  18  -1  21  -1  23  -1
M  END
>  <UniqueID>  (3384) 
23

>  <SMILES>  (3384) 
C=c1[nH]/c(=C/c2[n-]c(=O)[n-]c2[O-])c(=O)n1-c1ccccc1OCC

>  <Energy>  (3384) 
114.97086834464318

>  <Genealogy>  (3384) 
C=c1[nH]c(=Cc2[n-]c(=O)[n-]c2[O-])c(=O)n1-c1ccccc1OCC (protonated)
C=c1[nH]/c(=C/c2[n-]c(=O)[n-]c2[O-])c(=O)n1-c1ccccc1OCC (cis-trans isomerization)
C=c1[nH]/c(=C/c2[n-]c(=O)[n-]c2[O-])c(=O)n1-c1ccccc1OCC (3D coordinates assigned)
C=c1[nH]/c(=C/c2[n-]c(=O)[n-]c2[O-])c(=O)n1-c1ccccc1OCC (optimized conformer: 114.97086834464318 kcal/mol)

>  <smiles>  (3384) 
C=c1[nH]c(=Cc2[nH]c(=O)[nH]c2O)c(=O)n1-c1ccccc1OCC

>  <score_type>  (3384) 
oracle

>  <origin>  (3384) 
adg

>  <m_score__min__energy>  (3384) 
-15.25

>  <m_primary>  (3384) 
energy

$$$$
26:0
     RDKit          3D

 32 34  0  0  0  0  0  0  0  0999 V2000
   59.6570   34.8250   48.7050 C   0  0  0  0  0  0  0  0  0  0  0  0
   59.3040   33.7230   47.7980 N   0  0  0  0  0  0  0  0  0  0  0  0
   58.3250   34.1880   46.8030 C   0  0  0  0  0  0  0  0  0  0  0  0
   57.9610   33.0840   45.7820 C   0  0  0  0  0  0  0  0  0  0  0  0
   58.8130   31.8760   45.8700 N   0  0  0  0  0  0  0  0  0  0  0  0
   58.2970   30.6190   45.3710 C   0  0  0  0  0  0  0  0  0  0  0  0
   57.0560   30.4660   45.2240 O   0  0  0  0  0  0  0  0  0  0  0  0
   59.1870   29.5480   44.9940 N   0  0  0  0  0  0  0  0  0  0  0  0
   58.7860   28.1680   44.9830 C   0  0  0  0  0  0  0  0  0  0  0  0
   58.9700   27.3850   46.1350 C   0  0  0  0  0  0  0  0  0  0  0  0
   58.5870   26.0410   46.1480 C   0  0  0  0  0  0  0  0  0  0  0  0
   57.9930   25.4590   45.0140 C   0  0  0  0  0  0  0  0  0  0  0  0
   57.5990   24.0290   45.0210 C   0  0  0  0  0  0  0  0  0  0  0  0
   57.5830   23.2930   43.8250 C   0  0  0  0  0  0  0  0  0  0  0  0
   57.1920   21.9530   43.8260 C   0  0  0  0  0  0  0  0  0  0  0  0
   56.8190   21.3290   45.0180 C   0  0  0  0  0  0  0  0  0  0  0  0
   56.8330   22.0430   46.2310 C   0  0  0  0  0  0  0  0  0  0  0  0
   56.4440   21.3790   47.4970 C   0  0  0  0  0  0  0  0  0  0  0  0
   57.0160   21.6890   48.5760 O   0  0  0  0  0  0  0  0  0  0  0  0
   55.4060   20.3850   47.5000 N   0  0  0  0  0  0  0  0  0  0  0  0
   54.0080   20.6730   47.1970 C   0  0  0  0  0  0  0  0  0  0  0  0
   53.9020   21.6880   46.0600 C   0  0  0  0  0  0  0  0  0  0  0  0
   53.8870   23.0400   46.6170 N   0  0  0  0  0  0  0  0  0  0  0  0
   53.7700   24.2090   45.3310 S   0  0  0  0  0  0  0  0  0  0  0  0
   54.4250   25.7250   45.8400 N   0  0  0  0  0  0  0  0  0  0  0  0
   52.3320   24.3910   44.9230 O   0  0  0  0  0  0  0  0  0  0  0  0
   54.5540   23.7110   44.1490 O   0  0  0  0  0  0  0  0  0  0  0  0
   57.2250   23.3970   46.2210 C   0  0  0  0  0  0  0  0  0  0  0  0
   57.7820   26.2520   43.8700 C   0  0  0  0  0  0  0  0  0  0  0  0
   58.1720   27.5950   43.8540 C   0  0  0  0  0  0  0  0  0  0  0  0
   60.1800   31.9150   46.4100 C   0  0  0  0  0  0  0  0  0  0  0  0
   60.5000   33.2400   47.1010 C   0  0  0  0  0  0  0  0  0  0  0  0
  1  2  1  0
  2  3  1  0
  3  4  1  0
  4  5  1  0
  5  6  1  0
  6  7  2  0
  6  8  1  0
  8  9  1  0
  9 10  2  0
 10 11  1  0
 11 12  2  0
 12 13  1  0
 13 14  2  0
 14 15  1  0
 15 16  2  0
 16 17  1  0
 17 18  1  0
 18 19  2  0
 18 20  1  0
 20 21  1  0
 21 22  1  0
 22 23  1  0
 23 24  1  0
 24 25  1  0
 24 26  2  0
 24 27  2  0
 17 28  2  0
 12 29  1  0
 29 30  2  0
  5 31  1  0
 31 32  1  0
 32  2  1  0
 30  9  1  0
 28 13  1  0
M  CHG  3  20  -1  23  -1  25  -1
M  END
>  <UniqueID>  (3385) 
24

>  <SMILES>  (3385) 
CN1CCN(C(=O)Nc2ccc(-c3cccc(C(=O)[N-]CC[N-]S([NH-])(=O)=O)c3)cc2)CC1

>  <Energy>  (3385) 
65.58922073704946

>  <Genealogy>  (3385) 
CN1CCN(C(=O)Nc2ccc(-c3cccc(C(=O)[N-]CC[N-]S([NH-])(=O)=O)c3)cc2)CC1 (protonated)
CN1CCN(C(=O)Nc2ccc(-c3cccc(C(=O)[N-]CC[N-]S([NH-])(=O)=O)c3)cc2)CC1 (3D coordinates assigned)
CN1CCN(C(=O)Nc2ccc(-c3cccc(C(=O)[N-]CC[N-]S([NH-])(=O)=O)c3)cc2)CC1 (nonaromatic ring conformer: 65.58922073704946 kcal/mol)

>  <smiles>  (3385) 
CN1CCN(C(=O)Nc2ccc(-c3cccc(C(=O)NCCNS(N)(=O)=O)c3)cc2)CC1

>  <score_type>  (3385) 
oracle

>  <origin>  (3385) 
adg

>  <m_score__min__energy>  (3385) 
-15.41

>  <m_primary>  (3385) 
energy

$$$$
35:0
     RDKit          3D

 27 29  0  0  0  0  0  0  0  0999 V2000
   55.1490   22.3110   44.9450 C   0  0  0  0  0  0  0  0  0  0  0  0
   56.4710   23.0320   44.5990 C   0  0  0  0  0  0  0  0  0  0  0  0
   57.2370   22.1850   43.5550 C   0  0  0  0  0  0  0  0  0  0  0  0
   57.3090   23.1750   45.8920 C   0  0  0  0  0  0  0  0  0  0  0  0
   58.5440   24.0130   45.6750 C   0  0  0  0  0  0  0  0  0  0  0  0
   59.5890   23.6880   46.2230 O   0  0  0  0  0  0  0  0  0  0  0  0
   58.4950   25.2910   44.8690 C   0  0  0  0  0  0  0  0  0  0  0  0
   58.3610   26.5050   45.7590 C   0  0  0  0  0  0  0  0  0  0  0  0
   58.9540   26.5270   46.8700 O   0  0  0  0  0  0  0  0  0  0  0  0
   57.6170   27.6980   45.3220 C   0  0  0  0  0  0  0  0  0  0  0  0
   58.3030   28.7850   44.7700 C   0  0  0  0  0  0  0  0  0  0  0  0
   57.6200   29.9670   44.4520 C   0  0  0  0  0  0  0  0  0  0  0  0
   58.4020   31.1750   43.9980 C   0  0  0  0  0  0  0  0  0  0  0  0
   58.4220   32.2230   45.0820 C   0  0  0  0  0  0  0  0  0  0  0  0
   58.4560   33.5870   44.7450 C   0  0  0  0  0  0  0  0  0  0  0  0
   58.5090   34.5600   45.7510 C   0  0  0  0  0  0  0  0  0  0  0  0
   58.5120   34.1800   47.0970 C   0  0  0  0  0  0  0  0  0  0  0  0
   58.4810   32.8260   47.4400 C   0  0  0  0  0  0  0  0  0  0  0  0
   58.4470   31.8490   46.4370 C   0  0  0  0  0  0  0  0  0  0  0  0
   56.2270   30.0150   44.6590 C   0  0  0  0  0  0  0  0  0  0  0  0
   55.5710   31.0580   44.3940 O   0  0  0  0  0  0  0  0  0  0  0  0
   55.5730   28.9280   45.1510 N   0  0  0  0  0  0  0  0  0  0  0  0
   56.2260   27.7830   45.4850 C   0  0  0  0  0  0  0  0  0  0  0  0
   55.5040   26.7090   45.9960 O   0  0  0  0  0  0  0  0  0  0  0  0
   57.3830   25.2820   43.8440 C   0  0  0  0  0  0  0  0  0  0  0  0
   57.4370   26.0690   42.9080 O   0  0  0  0  0  0  0  0  0  0  0  0
   56.1470   24.4350   44.0260 C   0  0  0  0  0  0  0  0  0  0  0  0
  1  2  1  0
  2  3  1  0
  2  4  1  0
  4  5  1  0
  5  6  2  0
  5  7  1  0
  7  8  1  0
  8  9  2  0
  8 10  1  0
 10 11  1  0
 11 12  2  0
 12 13  1  0
 13 14  1  0
 14 15  2  0
 15 16  1  0
 16 17  2  0
 17 18  1  0
 18 19  2  0
 12 20  1  0
 20 21  2  0
 20 22  1  0
 22 23  1  0
 23 24  1  0
  7 25  1  0
 25 26  2  0
 25 27  1  0
 27  2  1  0
 23 10  2  0
 19 14  1  0
M  CHG  2  22  -1  24  -1
M  END
>  <UniqueID>  (3386) 
33

>  <SMILES>  (3386) 
CC1(C)CC(=O)C(C(=O)c2cc(Cc3ccccc3)c(=O)[n-]c2[O-])C(=O)C1

>  <Energy>  (3386) 
49.50023195187031

>  <Genealogy>  (3386) 
CC1(C)CC(=O)C(C(=O)c2cc(Cc3ccccc3)c(=O)[n-]c2[O-])C(=O)C1 (protonated)
CC1(C)CC(=O)C(C(=O)c2cc(Cc3ccccc3)c(=O)[n-]c2[O-])C(=O)C1 (3D coordinates assigned)
CC1(C)CC(=O)C(C(=O)c2cc(Cc3ccccc3)c(=O)[n-]c2[O-])C(=O)C1 (nonaromatic ring conformer: 49.50023195187031 kcal/mol)

>  <smiles>  (3386) 
CC1(C)CC(=O)C(C(=O)c2cc(Cc3ccccc3)c(=O)[nH]c2O)C(=O)C1

>  <score_type>  (3386) 
oracle

>  <origin>  (3386) 
adg

>  <m_score__min__energy>  (3386) 
-14.58

>  <m_primary>  (3386) 
energy

$$$$
45:0
     RDKit          3D

 26 28  0  0  0  0  0  0  0  0999 V2000
   63.2060   32.6450   48.0840 C   0  0  0  0  0  0  0  0  0  0  0  0
   61.9090   32.0960   47.5510 C   0  0  0  0  0  0  0  0  0  0  0  0
   61.9020   30.8460   46.9100 C   0  0  0  0  0  0  0  0  0  0  0  0
   60.7160   30.3130   46.4030 C   0  0  0  0  0  0  0  0  0  0  0  0
   59.5140   31.0210   46.5270 C   0  0  0  0  0  0  0  0  0  0  0  0
   58.2890   30.4720   46.0010 N   0  0  0  0  0  0  0  0  0  0  0  0
   57.3920   31.2870   45.3600 C   0  0  0  0  0  0  0  0  0  0  0  0
   57.6120   32.5230   45.2450 O   0  0  0  0  0  0  0  0  0  0  0  0
   56.2450   30.7730   44.8490 N   0  0  0  0  0  0  0  0  0  0  0  0
   55.9580   29.4530   44.9440 C   0  0  0  0  0  0  0  0  0  0  0  0
   54.7780   28.9700   44.3890 O   0  0  0  0  0  0  0  0  0  0  0  0
   56.8550   28.5880   45.5790 C   0  0  0  0  0  0  0  0  0  0  0  0
   56.5760   27.1390   45.6350 C   0  0  0  0  0  0  0  0  0  0  0  0
   55.4660   26.7460   46.0800 O   0  0  0  0  0  0  0  0  0  0  0  0
   57.5150   26.1680   45.1510 N   0  0  0  0  0  0  0  0  0  0  0  0
   57.8050   24.8770   45.7730 C   0  0  0  0  0  0  0  0  0  0  0  0
   57.4930   23.7500   44.8380 C   0  0  0  0  0  0  0  0  0  0  0  0
   58.1640   22.5350   44.7760 C   0  0  0  0  0  0  0  0  0  0  0  0
   57.6720   21.6870   43.7770 C   0  0  0  0  0  0  0  0  0  0  0  0
   56.6140   22.2270   43.0570 C   0  0  0  0  0  0  0  0  0  0  0  0
   56.2920   23.7640   43.6610 S   0  0  0  0  0  0  0  0  0  0  0  0
   58.0270   29.1320   46.1280 C   0  0  0  0  0  0  0  0  0  0  0  0
   58.8380   28.3790   46.7380 O   0  0  0  0  0  0  0  0  0  0  0  0
   59.5110   32.2710   47.1620 C   0  0  0  0  0  0  0  0  0  0  0  0
   60.6990   32.8200   47.6740 C   0  0  0  0  0  0  0  0  0  0  0  0
   60.6580   34.1650   48.3500 C   0  0  0  0  0  0  0  0  0  0  0  0
  1  2  1  0
  2  3  2  0
  3  4  1  0
  4  5  2  0
  5  6  1  0
  6  7  1  0
  7  8  2  0
  7  9  1  0
  9 10  1  0
 10 11  1  0
 10 12  2  0
 12 13  1  0
 13 14  2  0
 13 15  1  0
 15 16  1  0
 16 17  1  0
 17 18  2  0
 18 19  1  0
 19 20  2  0
 20 21  1  0
 12 22  1  0
 22 23  2  0
  5 24  1  0
 24 25  2  0
 25 26  1  0
 25  2  1  0
 22  6  1  0
 21 17  1  0
M  CHG  3   9  -1  11  -1  15  -1
M  END
>  <UniqueID>  (3387) 
43

>  <SMILES>  (3387) 
Cc1ccc(-n2c(=O)[n-]c([O-])c(C(=O)[N-]Cc3cccs3)c2=O)cc1C

>  <Energy>  (3387) 
82.31780992540511

>  <Genealogy>  (3387) 
Cc1ccc(-n2c(=O)[n-]c([O-])c(C(=O)[N-]Cc3cccs3)c2=O)cc1C (protonated)
Cc1ccc(-n2c(=O)[n-]c([O-])c(C(=O)[N-]Cc3cccs3)c2=O)cc1C (3D coordinates assigned)
Cc1ccc(-n2c(=O)[n-]c([O-])c(C(=O)[N-]Cc3cccs3)c2=O)cc1C (optimized conformer: 82.31780992540511 kcal/mol)

>  <smiles>  (3387) 
Cc1ccc(-n2c(=O)[nH]c(O)c(C(=O)NCc3cccs3)c2=O)cc1C

>  <score_type>  (3387) 
oracle

>  <origin>  (3387) 
adg

>  <m_score__min__energy>  (3387) 
-14.25

>  <m_primary>  (3387) 
energy

$$$$
59:0
     RDKit          3D

 32 35  0  0  0  0  0  0  0  0999 V2000
   58.3780   30.0790   44.5460 C   0  0  0  0  0  0  0  0  0  0  0  0
   58.6430   29.4750   45.7130 C   0  0  0  0  0  0  0  0  0  0  0  0
   58.2480   28.1860   46.1070 C   0  0  0  0  0  0  0  0  0  0  0  0
   57.7350   27.1630   45.3950 C   0  0  0  0  0  0  0  0  0  0  0  0
   57.1250   25.9480   45.9600 C   0  0  0  0  0  0  0  0  0  0  0  0
   57.8120   24.8900   46.4270 N   0  0  0  0  0  0  0  0  0  0  0  0
   56.8520   24.1070   46.9660 C   0  0  0  0  0  0  0  0  0  0  0  0
   57.1040   22.9960   47.4990 O   0  0  0  0  0  0  0  0  0  0  0  0
   55.6030   24.6150   46.8960 N   0  0  0  0  0  0  0  0  0  0  0  0
   55.7970   25.7860   46.2700 C   0  0  0  0  0  0  0  0  0  0  0  0
   54.7810   26.6920   45.9930 O   0  0  0  0  0  0  0  0  0  0  0  0
   58.5050   28.0990   47.4650 C   0  0  0  0  0  0  0  0  0  0  0  0
   59.1080   29.2830   47.8350 C   0  0  0  0  0  0  0  0  0  0  0  0
   59.5950   29.5950   49.2170 C   0  0  0  0  0  0  0  0  0  0  0  0
   59.1950   30.1180   46.7750 N   0  0  0  0  0  0  0  0  0  0  0  0
   59.7400   31.4490   46.7950 C   0  0  0  0  0  0  0  0  0  0  0  0
   58.9220   32.5540   46.5220 C   0  0  0  0  0  0  0  0  0  0  0  0
   59.4610   33.8430   46.5200 C   0  0  0  0  0  0  0  0  0  0  0  0
   60.8180   34.0370   46.7900 C   0  0  0  0  0  0  0  0  0  0  0  0
   61.6470   32.9400   47.0690 C   0  0  0  0  0  0  0  0  0  0  0  0
   63.3800   33.1730   47.3240 S   0  0  0  0  0  0  0  0  0  0  0  0
   64.1170   32.2570   46.3870 O   0  0  0  0  0  0  0  0  0  0  0  0
   63.7420   34.5850   46.9560 O   0  0  0  0  0  0  0  0  0  0  0  0
   63.9110   32.8490   48.9640 N   0  0  0  0  0  0  0  0  0  0  0  0
   63.4180   31.5480   49.4790 C   0  0  0  0  0  0  0  0  0  0  0  0
   62.2780   31.6810   50.5020 C   0  0  0  0  0  0  0  0  0  0  0  0
   61.4170   32.8260   50.1680 N   0  0  0  0  0  0  0  0  0  0  0  0
   60.2170   32.8190   51.0330 C   0  0  0  0  0  0  0  0  0  0  0  0
   58.9270   32.7720   50.2150 C   0  0  0  0  0  0  0  0  0  0  0  0
   62.1680   34.0970   50.3040 C   0  0  0  0  0  0  0  0  0  0  0  0
   63.6480   33.9790   49.8770 C   0  0  0  0  0  0  0  0  0  0  0  0
   61.1030   31.6470   47.0610 C   0  0  0  0  0  0  0  0  0  0  0  0
  1  2  2  0
  2  3  1  0
  3  4  2  3
  4  5  1  0
  5  6  1  0
  6  7  1  0
  7  8  2  0
  7  9  1  0
  9 10  1  0
 10 11  1  0
  3 12  1  0
 12 13  2  0
 13 14  1  0
 13 15  1  0
 15 16  1  0
 16 17  2  0
 17 18  1  0
 18 19  2  0
 19 20  1  0
 20 21  1  0
 21 22  2  0
 21 23  2  0
 21 24  1  0
 24 25  1  0
 25 26  1  0
 26 27  1  0
 27 28  1  0
 28 29  1  0
 27 30  1  0
 30 31  1  0
 20 32  2  0
 15  2  1  0
 32 16  1  0
 10  5  2  0
 31 24  1  0
M  CHG  4   6  -1   9  -1  11  -1  24   1
M  END
>  <UniqueID>  (3388) 
56

>  <SMILES>  (3388) 
C=c1c(=Cc2[n-]c(=O)[n-]c2[O-])cc(C)n1-c1cccc(S(=O)(=O)[NH+]2CCN(CC)CC2)c1

>  <Energy>  (3388) 
140.3673890051856

>  <Genealogy>  (3388) 
C=c1c(=Cc2[n-]c(=O)[n-]c2[O-])cc(C)n1-c1cccc(S(=O)(=O)[NH+]2CCN(CC)CC2)c1 (protonated)
C=c1c(=Cc2[n-]c(=O)[n-]c2[O-])cc(C)n1-c1cccc(S(=O)(=O)[NH+]2CCN(CC)CC2)c1 (3D coordinates assigned)
C=c1c(=Cc2[n-]c(=O)[n-]c2[O-])cc(C)n1-c1cccc(S(=O)(=O)[NH+]2CCN(CC)CC2)c1 (nonaromatic ring conformer: 140.3673890051856 kcal/mol)

>  <smiles>  (3388) 
C=c1c(=Cc2[nH]c(=O)[nH]c2O)cc(C)n1-c1cccc(S(=O)(=O)N2CCN(CC)CC2)c1

>  <score_type>  (3388) 
oracle

>  <origin>  (3388) 
adg

>  <m_score__min__energy>  (3388) 
-15.66

>  <m_primary>  (3388) 
energy

$$$$
67:0
     RDKit          3D

 24 26  0  0  0  0  0  0  0  0999 V2000
   55.1530   30.1210   43.7330 C   0  0  0  0  0  0  0  0  0  0  0  0
   56.1760   29.5900   44.4070 C   0  0  0  0  0  0  0  0  0  0  0  0
   57.4450   30.0740   44.4040 N   0  0  0  0  0  0  0  0  0  0  0  0
   57.9690   31.2760   43.7450 C   0  0  0  0  0  0  0  0  0  0  0  0
   58.1720   32.3790   44.7510 C   0  0  0  0  0  0  0  0  0  0  0  0
   58.7540   33.5950   44.3530 C   0  0  0  0  0  0  0  0  0  0  0  0
   58.9560   34.6180   45.2870 C   0  0  0  0  0  0  0  0  0  0  0  0
   58.5790   34.4350   46.6190 C   0  0  0  0  0  0  0  0  0  0  0  0
   57.9970   33.2300   47.0210 C   0  0  0  0  0  0  0  0  0  0  0  0
   57.7930   32.2050   46.0920 C   0  0  0  0  0  0  0  0  0  0  0  0
   58.1280   29.2350   45.2100 C   0  0  0  0  0  0  0  0  0  0  0  0
   59.3550   29.3470   45.4760 O   0  0  0  0  0  0  0  0  0  0  0  0
   57.2800   28.2590   45.6900 C   0  0  0  0  0  0  0  0  0  0  0  0
   57.6170   27.2430   46.4980 C   0  0  0  0  0  0  0  0  0  0  0  0
   57.0590   25.8790   46.3720 C   0  0  0  0  0  0  0  0  0  0  0  0
   55.6730   25.6530   46.2920 C   0  0  0  0  0  0  0  0  0  0  0  0
   54.7760   26.7140   46.3280 O   0  0  0  0  0  0  0  0  0  0  0  0
   55.1970   24.3840   46.2010 N   0  0  0  0  0  0  0  0  0  0  0  0
   56.0380   23.3180   46.2020 C   0  0  0  0  0  0  0  0  0  0  0  0
   55.5750   22.1530   46.1120 O   0  0  0  0  0  0  0  0  0  0  0  0
   57.3780   23.5090   46.3080 N   0  0  0  0  0  0  0  0  0  0  0  0
   57.9040   24.7580   46.4000 C   0  0  0  0  0  0  0  0  0  0  0  0
   59.1530   24.8960   46.5010 O   0  0  0  0  0  0  0  0  0  0  0  0
   56.0500   28.4820   45.1760 N   0  0  0  0  0  0  0  0  0  0  0  0
  1  2  2  0
  2  3  1  0
  3  4  1  0
  4  5  1  0
  5  6  2  0
  6  7  1  0
  7  8  2  0
  8  9  1  0
  9 10  2  0
  3 11  1  0
 11 12  2  0
 11 13  1  0
 13 14  2  0
 14 15  1  0
 15 16  2  0
 16 17  1  0
 16 18  1  0
 18 19  1  0
 19 20  2  0
 19 21  1  0
 21 22  1  0
 22 23  2  0
 13 24  1  0
 24  2  1  0
 10  5  1  0
 22 15  1  0
M  CHG  3  17  -1  18  -1  21  -1
M  END
>  <UniqueID>  (3389) 
64

>  <SMILES>  (3389) 
C=c1[nH]/c(=C\c2c([O-])[n-]c(=O)[n-]c2=O)c(=O)n1Cc1ccccc1

>  <Energy>  (3389) 
80.33911062512006

>  <Genealogy>  (3389) 
C=c1[nH]c(=Cc2c([O-])[n-]c(=O)[n-]c2=O)c(=O)n1Cc1ccccc1 (protonated)
C=c1[nH]/c(=C\c2c([O-])[n-]c(=O)[n-]c2=O)c(=O)n1Cc1ccccc1 (cis-trans isomerization)
C=c1[nH]/c(=C\c2c([O-])[n-]c(=O)[n-]c2=O)c(=O)n1Cc1ccccc1 (3D coordinates assigned)
C=c1[nH]/c(=C\c2c([O-])[n-]c(=O)[n-]c2=O)c(=O)n1Cc1ccccc1 (optimized conformer: 80.33911062512006 kcal/mol)

>  <smiles>  (3389) 
C=c1[nH]c(=Cc2c(O)[nH]c(=O)[nH]c2=O)c(=O)n1Cc1ccccc1

>  <score_type>  (3389) 
oracle

>  <origin>  (3389) 
adg

>  <m_score__min__energy>  (3389) 
-15.81

>  <m_primary>  (3389) 
energy

$$$$
69:0
     RDKit          3D

 34 37  0  0  0  0  0  0  0  0999 V2000
   57.5450   21.6140   44.8890 C   0  0  0  0  0  0  0  0  0  0  0  0
   58.0680   22.8310   45.0490 C   0  0  0  0  0  0  0  0  0  0  0  0
   59.2720   23.0000   45.5510 O   0  0  0  0  0  0  0  0  0  0  0  0
   59.4950   24.2810   45.7310 C   0  0  0  0  0  0  0  0  0  0  0  0
   58.3930   25.0010   45.3240 C   0  0  0  0  0  0  0  0  0  0  0  0
   58.2950   26.4760   45.3330 C   0  0  0  0  0  0  0  0  0  0  0  0
   58.1480   27.1780   44.1290 C   0  0  0  0  0  0  0  0  0  0  0  0
   58.1050   28.5750   44.1290 C   0  0  0  0  0  0  0  0  0  0  0  0
   58.1930   29.2900   45.3280 C   0  0  0  0  0  0  0  0  0  0  0  0
   58.1870   30.6930   45.2670 O   0  0  0  0  0  0  0  0  0  0  0  0
   57.8950   31.5620   46.3620 C   0  0  0  0  0  0  0  0  0  0  0  0
   57.3600   32.9070   45.8530 C   0  0  0  0  0  0  0  0  0  0  0  0
   57.9720   34.1390   46.5620 C   0  0  0  0  0  0  0  0  0  0  0  0
   59.3910   34.0270   46.9800 N   0  0  0  0  0  0  0  0  0  0  0  0
   59.6880   34.5970   48.2990 C   0  0  0  0  0  0  0  0  0  0  0  0
   61.0740   34.1430   48.7890 C   0  0  0  0  0  0  0  0  0  0  0  0
   62.0490   33.8610   47.7110 N   0  0  0  0  0  0  0  0  0  0  0  0
   63.3740   33.3810   48.0660 C   0  0  0  0  0  0  0  0  0  0  0  0
   64.2020   33.0970   47.1570 O   0  0  0  0  0  0  0  0  0  0  0  0
   63.7890   33.1570   49.4930 C   0  0  0  0  0  0  0  0  0  0  0  0
   65.1300   32.7410   49.5260 O   0  0  0  0  0  0  0  0  0  0  0  0
   61.7100   33.9040   46.2740 C   0  0  0  0  0  0  0  0  0  0  0  0
   60.3510   34.5330   45.9970 C   0  0  0  0  0  0  0  0  0  0  0  0
   58.2950   28.5810   46.5400 C   0  0  0  0  0  0  0  0  0  0  0  0
   58.3410   27.1860   46.5410 C   0  0  0  0  0  0  0  0  0  0  0  0
   57.4660   24.0790   44.8400 C   0  0  0  0  0  0  0  0  0  0  0  0
   56.2510   24.3950   44.3430 C   0  0  0  0  0  0  0  0  0  0  0  0
   54.9550   24.1030   44.9770 C   0  0  0  0  0  0  0  0  0  0  0  0
   54.2550   22.9650   44.8060 N   0  0  0  0  0  0  0  0  0  0  0  0
   53.0710   23.2360   45.3930 C   0  0  0  0  0  0  0  0  0  0  0  0
   52.1360   22.3940   45.4510 O   0  0  0  0  0  0  0  0  0  0  0  0
   52.9590   24.4820   45.8940 N   0  0  0  0  0  0  0  0  0  0  0  0
   54.1540   25.0210   45.6090 C   0  0  0  0  0  0  0  0  0  0  0  0
   54.5010   26.3340   45.9030 O   0  0  0  0  0  0  0  0  0  0  0  0
  1  2  2  0
  2  3  1  0
  3  4  1  0
  4  5  2  0
  5  6  1  0
  6  7  2  0
  7  8  1  0
  8  9  2  0
  9 10  1  0
 10 11  1  0
 11 12  1  0
 12 13  1  0
 13 14  1  0
 14 15  1  0
 15 16  1  0
 16 17  1  0
 17 18  1  0
 18 19  2  0
 18 20  1  0
 20 21  1  0
 17 22  1  0
 22 23  1  0
  9 24  1  0
 24 25  2  0
  5 26  1  0
 26 27  2  3
 27 28  1  0
 28 29  1  0
 29 30  1  0
 30 31  2  0
 30 32  1  0
 32 33  1  0
 33 34  1  0
 26  2  1  0
 33 28  2  0
 25  6  1  0
 23 14  1  0
M  CHG  3  29  -1  32  -1  34  -1
M  END
>  <UniqueID>  (3390) 
66

>  <SMILES>  (3390) 
C=c1occ(-c2ccc(OCCCN3CCN(C(=O)CO)CC3)cc2)c1=Cc1[n-]c(=O)[n-]c1[O-]

>  <Energy>  (3390) 
143.40554165212663

>  <Genealogy>  (3390) 
C=c1occ(-c2ccc(OCCCN3CCN(C(=O)CO)CC3)cc2)c1=Cc1[n-]c(=O)[n-]c1[O-] (protonated)
C=c1occ(-c2ccc(OCCCN3CCN(C(=O)CO)CC3)cc2)c1=Cc1[n-]c(=O)[n-]c1[O-] (3D coordinates assigned)
C=c1occ(-c2ccc(OCCCN3CCN(C(=O)CO)CC3)cc2)c1=Cc1[n-]c(=O)[n-]c1[O-] (nonaromatic ring conformer: 143.40554165212663 kcal/mol)

>  <smiles>  (3390) 
C=c1occ(-c2ccc(OCCCN3CCN(C(=O)CO)CC3)cc2)c1=Cc1[nH]c(=O)[nH]c1O

>  <score_type>  (3390) 
oracle

>  <origin>  (3390) 
adg

>  <m_score__min__energy>  (3390) 
-18.890000000000001

>  <m_primary>  (3390) 
energy

$$$$
73:0
     RDKit          3D

 31 34  0  0  0  0  0  0  0  0999 V2000
   54.0410   25.8070   45.6350 O   0  0  0  0  0  0  0  0  0  0  0  0
   54.9550   24.8410   45.2120 C   0  0  0  0  0  0  0  0  0  0  0  0
   54.5980   23.9370   44.2010 C   0  0  0  0  0  0  0  0  0  0  0  0
   55.5080   22.9710   43.7660 C   0  0  0  0  0  0  0  0  0  0  0  0
   56.7800   22.9030   44.3360 C   0  0  0  0  0  0  0  0  0  0  0  0
   57.1450   23.8000   45.3440 C   0  0  0  0  0  0  0  0  0  0  0  0
   56.2350   24.7710   45.7980 C   0  0  0  0  0  0  0  0  0  0  0  0
   56.6570   25.7560   46.8570 C   0  0  0  0  0  0  0  0  0  0  0  0
   57.4080   26.8550   46.2520 N   0  0  0  0  0  0  0  0  0  0  0  0
   56.9250   27.9140   45.5830 C   0  0  0  0  0  0  0  0  0  0  0  0
   55.5740   28.1860   45.3990 O   0  0  0  0  0  0  0  0  0  0  0  0
   57.9770   28.6760   45.1260 C   0  0  0  0  0  0  0  0  0  0  0  0
   57.8610   29.9810   44.4580 C   0  0  0  0  0  0  0  0  0  0  0  0
   58.3140   31.1540   44.9430 C   0  0  0  0  0  0  0  0  0  0  0  0
   58.3770   32.3060   44.1760 C   0  0  0  0  0  0  0  0  0  0  0  0
   58.8030   33.3190   45.0080 C   0  0  0  0  0  0  0  0  0  0  0  0
   58.9820   34.7490   44.5950 C   0  0  0  0  0  0  0  0  0  0  0  0
   59.0390   32.8410   46.2470 N   0  0  0  0  0  0  0  0  0  0  0  0
   59.5370   33.6150   47.3520 C   0  0  0  0  0  0  0  0  0  0  0  0
   58.7170   34.1600   48.1380 O   0  0  0  0  0  0  0  0  0  0  0  0
   60.9530   33.7790   47.5640 N   0  0  0  0  0  0  0  0  0  0  0  0
   61.4300   34.1950   48.8880 C   0  0  0  0  0  0  0  0  0  0  0  0
   62.9560   34.1970   48.9350 C   0  0  0  0  0  0  0  0  0  0  0  0
   63.4410   33.0710   48.2380 O   0  0  0  0  0  0  0  0  0  0  0  0
   63.2940   33.2690   46.8430 C   0  0  0  0  0  0  0  0  0  0  0  0
   61.8840   33.7520   46.4250 C   0  0  0  0  0  0  0  0  0  0  0  0
   58.7710   31.5100   46.2240 C   0  0  0  0  0  0  0  0  0  0  0  0
   59.0250   30.6900   47.2560 C   0  0  0  0  0  0  0  0  0  0  0  0
   59.1400   28.1260   45.5400 N   0  0  0  0  0  0  0  0  0  0  0  0
   58.7490   27.0150   46.2030 C   0  0  0  0  0  0  0  0  0  0  0  0
   59.5640   26.2120   46.7300 O   0  0  0  0  0  0  0  0  0  0  0  0
  1  2  1  0
  2  3  2  0
  3  4  1  0
  4  5  2  0
  5  6  1  0
  6  7  2  0
  7  8  1  0
  8  9  1  0
  9 10  1  0
 10 11  1  0
 10 12  2  0
 12 13  1  0
 13 14  2  0
 14 15  1  0
 15 16  2  0
 16 17  1  0
 16 18  1  0
 18 19  1  0
 19 20  2  0
 19 21  1  0
 21 22  1  0
 22 23  1  0
 23 24  1  0
 24 25  1  0
 25 26  1  0
 18 27  1  0
 27 28  2  0
 12 29  1  0
 29 30  1  0
 30 31  2  0
  7  2  1  0
 30  9  1  0
 27 14  1  0
 26 21  1  0
M  CHG  2  11  -1  29  -1
M  END
>  <UniqueID>  (3391) 
70

>  <SMILES>  (3391) 
C=c1/c(=C\c2[n-]c(=O)n(Cc3ccccc3O)c2[O-])cc(C)n1C(=O)N1CCOCC1

>  <Energy>  (3391) 
138.16227983223584

>  <Genealogy>  (3391) 
C=c1c(=Cc2[n-]c(=O)n(Cc3ccccc3O)c2[O-])cc(C)n1C(=O)N1CCOCC1 (protonated)
C=c1/c(=C\c2[n-]c(=O)n(Cc3ccccc3O)c2[O-])cc(C)n1C(=O)N1CCOCC1 (cis-trans isomerization)
C=c1/c(=C\c2[n-]c(=O)n(Cc3ccccc3O)c2[O-])cc(C)n1C(=O)N1CCOCC1 (3D coordinates assigned)
C=c1/c(=C\c2[n-]c(=O)n(Cc3ccccc3O)c2[O-])cc(C)n1C(=O)N1CCOCC1 (nonaromatic ring conformer: 138.16227983223584 kcal/mol)

>  <smiles>  (3391) 
C=c1c(=Cc2[nH]c(=O)n(Cc3ccccc3O)c2O)cc(C)n1C(=O)N1CCOCC1

>  <score_type>  (3391) 
oracle

>  <origin>  (3391) 
adg

>  <m_score__min__energy>  (3391) 
-14.18

>  <m_primary>  (3391) 
energy

$$$$
77:0
     RDKit          3D

 29 32  0  0  0  0  0  0  0  0999 V2000
   57.4560   24.8820   47.8150 C   0  0  0  0  0  0  0  0  0  0  0  0
   57.8990   25.9390   47.1330 C   0  0  0  0  0  0  0  0  0  0  0  0
   58.6210   26.8750   47.7080 O   0  0  0  0  0  0  0  0  0  0  0  0
   58.9830   27.7580   46.8050 C   0  0  0  0  0  0  0  0  0  0  0  0
   59.8100   28.9370   47.1190 C   0  0  0  0  0  0  0  0  0  0  0  0
   60.7220   29.2670   46.3150 O   0  0  0  0  0  0  0  0  0  0  0  0
   59.5950   29.7030   48.3140 N   0  0  0  0  0  0  0  0  0  0  0  0
   60.3340   30.9320   48.5940 C   0  0  0  0  0  0  0  0  0  0  0  0
   59.8710   32.0370   47.6870 C   0  0  0  0  0  0  0  0  0  0  0  0
   60.7410   33.1070   47.3520 C   0  0  0  0  0  0  0  0  0  0  0  0
   60.3150   34.1290   46.4840 C   0  0  0  0  0  0  0  0  0  0  0  0
   59.0250   34.0480   45.9690 C   0  0  0  0  0  0  0  0  0  0  0  0
   58.1900   33.0250   46.2810 C   0  0  0  0  0  0  0  0  0  0  0  0
   58.5700   31.9950   47.1350 C   0  0  0  0  0  0  0  0  0  0  0  0
   56.9840   33.2000   45.6290 O   0  0  0  0  0  0  0  0  0  0  0  0
   57.0680   34.4080   44.8600 C   0  0  0  0  0  0  0  0  0  0  0  0
   58.3860   34.9170   45.1050 O   0  0  0  0  0  0  0  0  0  0  0  0
   58.4810   27.3980   45.5680 C   0  0  0  0  0  0  0  0  0  0  0  0
   57.7560   26.2370   45.7710 C   0  0  0  0  0  0  0  0  0  0  0  0
   57.0840   25.6070   44.7880 C   0  0  0  0  0  0  0  0  0  0  0  0
   55.8460   24.8250   44.9650 C   0  0  0  0  0  0  0  0  0  0  0  0
   54.7390   25.3880   45.6140 C   0  0  0  0  0  0  0  0  0  0  0  0
   54.7710   26.7060   46.0550 O   0  0  0  0  0  0  0  0  0  0  0  0
   53.6190   24.6450   45.8110 N   0  0  0  0  0  0  0  0  0  0  0  0
   53.5540   23.3530   45.4010 C   0  0  0  0  0  0  0  0  0  0  0  0
   52.5040   22.6860   45.5900 O   0  0  0  0  0  0  0  0  0  0  0  0
   54.6220   22.7770   44.7920 N   0  0  0  0  0  0  0  0  0  0  0  0
   55.7660   23.4770   44.5730 C   0  0  0  0  0  0  0  0  0  0  0  0
   56.7440   22.9070   44.0220 O   0  0  0  0  0  0  0  0  0  0  0  0
  1  2  2  0
  2  3  1  0
  3  4  1  0
  4  5  1  0
  5  6  2  0
  5  7  1  0
  7  8  1  0
  8  9  1  0
  9 10  2  0
 10 11  1  0
 11 12  2  0
 12 13  1  0
 13 14  2  0
 13 15  1  0
 15 16  1  0
 16 17  1  0
  4 18  2  0
 18 19  1  0
 19 20  2  3
 20 21  1  0
 21 22  2  0
 22 23  1  0
 22 24  1  0
 24 25  1  0
 25 26  2  0
 25 27  1  0
 27 28  1  0
 28 29  2  0
 19  2  1  0
 28 21  1  0
 14  9  1  0
 17 12  1  0
M  CHG  3  23  -1  24  -1  27  -1
M  END
>  <UniqueID>  (3392) 
74

>  <SMILES>  (3392) 
C=c1oc(C(=O)NCc2ccc3c(c2)OCO3)cc1=Cc1c([O-])[n-]c(=O)[n-]c1=O

>  <Energy>  (3392) 
111.83294674386248

>  <Genealogy>  (3392) 
C=c1oc(C(=O)NCc2ccc3c(c2)OCO3)cc1=Cc1c([O-])[n-]c(=O)[n-]c1=O (protonated)
C=c1oc(C(=O)NCc2ccc3c(c2)OCO3)cc1=Cc1c([O-])[n-]c(=O)[n-]c1=O (3D coordinates assigned)
C=c1oc(C(=O)NCc2ccc3c(c2)OCO3)cc1=Cc1c([O-])[n-]c(=O)[n-]c1=O (nonaromatic ring conformer: 111.83294674386248 kcal/mol)

>  <smiles>  (3392) 
C=c1oc(C(=O)NCc2ccc3c(c2)OCO3)cc1=Cc1c(O)[nH]c(=O)[nH]c1=O

>  <score_type>  (3392) 
oracle

>  <origin>  (3392) 
adg

>  <m_score__min__energy>  (3392) 
-15.460000000000001

>  <m_primary>  (3392) 
energy

$$$$
78:0
     RDKit          3D

 36 40  0  0  0  0  0  0  0  0999 V2000
   59.2360   28.6730   46.7770 C   0  0  0  0  0  0  0  0  0  0  0  0
   58.1260   28.6620   46.0260 C   0  0  0  0  0  0  0  0  0  0  0  0
   57.2960   27.5700   45.7420 C   0  0  0  0  0  0  0  0  0  0  0  0
   57.5280   26.2510   45.8720 C   0  0  0  0  0  0  0  0  0  0  0  0
   56.6410   25.1720   45.3960 C   0  0  0  0  0  0  0  0  0  0  0  0
   57.0560   24.0730   44.7290 N   0  0  0  0  0  0  0  0  0  0  0  0
   55.9050   23.4510   44.3870 C   0  0  0  0  0  0  0  0  0  0  0  0
   55.8810   22.3560   43.7640 O   0  0  0  0  0  0  0  0  0  0  0  0
   54.7960   24.1170   44.7650 N   0  0  0  0  0  0  0  0  0  0  0  0
   53.4020   23.7160   44.5930 C   0  0  0  0  0  0  0  0  0  0  0  0
   55.2640   25.2060   45.4010 C   0  0  0  0  0  0  0  0  0  0  0  0
   54.4760   26.2040   45.9710 O   0  0  0  0  0  0  0  0  0  0  0  0
   56.1290   28.0240   45.2320 N   0  0  0  0  0  0  0  0  0  0  0  0
   56.2930   29.3590   45.1560 C   0  0  0  0  0  0  0  0  0  0  0  0
   55.4080   30.1290   44.6940 O   0  0  0  0  0  0  0  0  0  0  0  0
   57.4950   29.7840   45.6020 N   0  0  0  0  0  0  0  0  0  0  0  0
   57.9890   31.1370   45.5880 C   0  0  0  0  0  0  0  0  0  0  0  0
   57.9050   31.9180   44.4250 C   0  0  0  0  0  0  0  0  0  0  0  0
   58.4090   33.2200   44.4170 C   0  0  0  0  0  0  0  0  0  0  0  0
   58.9980   33.7550   45.5670 C   0  0  0  0  0  0  0  0  0  0  0  0
   59.0740   32.9930   46.7440 C   0  0  0  0  0  0  0  0  0  0  0  0
   59.6850   33.5650   47.9640 C   0  0  0  0  0  0  0  0  0  0  0  0
   58.9880   34.3140   48.7020 O   0  0  0  0  0  0  0  0  0  0  0  0
   61.0570   33.2990   48.3190 N   0  0  0  0  0  0  0  0  0  0  0  0
   61.6960   32.0200   47.9700 C   0  0  0  0  0  0  0  0  0  0  0  0
   62.6180   31.5620   49.1010 C   0  0  0  0  0  0  0  0  0  0  0  0
   63.5720   32.6190   49.4730 N   0  0  0  0  0  0  0  0  0  0  0  0
   64.8200   32.2620   50.1080 C   0  0  0  0  0  0  0  0  0  0  0  0
   65.9750   33.0440   49.9160 C   0  0  0  0  0  0  0  0  0  0  0  0
   67.1860   32.6840   50.5150 C   0  0  0  0  0  0  0  0  0  0  0  0
   67.2630   31.5340   51.3050 C   0  0  0  0  0  0  0  0  0  0  0  0
   66.1250   30.7520   51.5070 C   0  0  0  0  0  0  0  0  0  0  0  0
   64.9100   31.1100   50.9130 C   0  0  0  0  0  0  0  0  0  0  0  0
   63.3110   34.0140   49.0840 C   0  0  0  0  0  0  0  0  0  0  0  0
   61.8060   34.3110   49.0760 C   0  0  0  0  0  0  0  0  0  0  0  0
   58.5930   31.6760   46.7360 C   0  0  0  0  0  0  0  0  0  0  0  0
  1  2  2  0
  2  3  1  0
  3  4  2  3
  4  5  1  0
  5  6  1  0
  6  7  1  0
  7  8  2  0
  7  9  1  0
  9 10  1  0
  9 11  1  0
 11 12  1  0
  3 13  1  0
 13 14  1  0
 14 15  2  0
 14 16  1  0
 16 17  1  0
 17 18  2  0
 18 19  1  0
 19 20  2  0
 20 21  1  0
 21 22  1  0
 22 23  2  0
 22 24  1  0
 24 25  1  0
 25 26  1  0
 26 27  1  0
 27 28  1  0
 28 29  2  0
 29 30  1  0
 30 31  2  0
 31 32  1  0
 32 33  2  0
 27 34  1  0
 34 35  1  0
 21 36  2  0
 16  2  1  0
 36 17  1  0
 11  5  2  0
 35 24  1  0
 33 28  1  0
M  CHG  2   6  -1  13  -1
M  END
>  <UniqueID>  (3393) 
75

>  <SMILES>  (3393) 
C=c1c(=Cc2[n-]c(=O)n(C)c2O)[n-]c(=O)n1-c1cccc(C(=O)N2CCN(c3ccccc3)CC2)c1

>  <Energy>  (3393) 
154.01734645207304

>  <Genealogy>  (3393) 
C=c1c(=Cc2[n-]c(=O)n(C)c2O)[n-]c(=O)n1-c1cccc(C(=O)N2CCN(c3ccccc3)CC2)c1 (protonated)
C=c1c(=Cc2[n-]c(=O)n(C)c2O)[n-]c(=O)n1-c1cccc(C(=O)N2CCN(c3ccccc3)CC2)c1 (3D coordinates assigned)
C=c1c(=Cc2[n-]c(=O)n(C)c2O)[n-]c(=O)n1-c1cccc(C(=O)N2CCN(c3ccccc3)CC2)c1 (nonaromatic ring conformer: 154.01734645207304 kcal/mol)

>  <smiles>  (3393) 
C=c1c(=Cc2[nH]c(=O)n(C)c2O)[nH]c(=O)n1-c1cccc(C(=O)N2CCN(c3ccccc3)CC2)c1

>  <score_type>  (3393) 
oracle

>  <origin>  (3393) 
adg

>  <m_score__min__energy>  (3393) 
-15.18

>  <m_primary>  (3393) 
energy

$$$$
80:0
     RDKit          3D

 35 38  0  0  0  0  0  0  0  0999 V2000
   55.1370   29.4800   44.6970 O   0  0  0  0  0  0  0  0  0  0  0  0
   56.0830   28.6630   44.8730 C   0  0  0  0  0  0  0  0  0  0  0  0
   57.4240   28.9320   44.2650 C   0  0  0  0  0  0  0  0  0  0  0  0
   57.9360   30.2700   44.7260 C   0  0  0  0  0  0  0  0  0  0  0  0
   57.6080   31.4370   44.0230 C   0  0  0  0  0  0  0  0  0  0  0  0
   58.0330   32.6840   44.4860 C   0  0  0  0  0  0  0  0  0  0  0  0
   58.7830   32.7830   45.6660 C   0  0  0  0  0  0  0  0  0  0  0  0
   59.1830   34.1340   46.1950 C   0  0  0  0  0  0  0  0  0  0  0  0
   60.1250   33.9870   47.3650 C   0  0  0  0  0  0  0  0  0  0  0  0
   59.6270   33.9450   48.6720 C   0  0  0  0  0  0  0  0  0  0  0  0
   60.4690   33.8050   49.7390 N   0  0  0  0  0  0  0  0  0  0  0  0
   59.9110   33.8440   51.0990 C   0  0  0  0  0  0  0  0  0  0  0  0
   58.8930   32.7500   51.2730 C   0  0  0  0  0  0  0  0  0  0  0  0
   57.7760   32.9530   52.0990 C   0  0  0  0  0  0  0  0  0  0  0  0
   56.8480   31.9240   52.2950 C   0  0  0  0  0  0  0  0  0  0  0  0
   57.0370   30.6840   51.6780 C   0  0  0  0  0  0  0  0  0  0  0  0
   58.1510   30.4730   50.8630 C   0  0  0  0  0  0  0  0  0  0  0  0
   59.0760   31.5040   50.6560 C   0  0  0  0  0  0  0  0  0  0  0  0
   61.8190   33.7140   49.5310 C   0  0  0  0  0  0  0  0  0  0  0  0
   62.6170   33.6200   50.5010 O   0  0  0  0  0  0  0  0  0  0  0  0
   62.3150   33.7300   48.2700 N   0  0  0  0  0  0  0  0  0  0  0  0
   61.5080   33.8550   47.1880 C   0  0  0  0  0  0  0  0  0  0  0  0
   62.0120   33.8530   46.0360 O   0  0  0  0  0  0  0  0  0  0  0  0
   59.1060   31.6160   46.3720 C   0  0  0  0  0  0  0  0  0  0  0  0
   58.6870   30.3690   45.9060 C   0  0  0  0  0  0  0  0  0  0  0  0
   55.8720   27.4650   45.6250 N   0  0  0  0  0  0  0  0  0  0  0  0
   56.9420   26.5310   45.9370 C   0  0  0  0  0  0  0  0  0  0  0  0
   56.6850   25.2150   45.2550 C   0  0  0  0  0  0  0  0  0  0  0  0
   57.6610   24.6580   44.4140 C   0  0  0  0  0  0  0  0  0  0  0  0
   57.4180   23.4520   43.7500 C   0  0  0  0  0  0  0  0  0  0  0  0
   56.1900   22.7960   43.9100 C   0  0  0  0  0  0  0  0  0  0  0  0
   55.9340   21.5980   43.2510 O   0  0  0  0  0  0  0  0  0  0  0  0
   55.2110   23.3510   44.7470 C   0  0  0  0  0  0  0  0  0  0  0  0
   53.9870   22.7170   44.9010 O   0  0  0  0  0  0  0  0  0  0  0  0
   55.4600   24.5510   45.4200 C   0  0  0  0  0  0  0  0  0  0  0  0
  1  2  2  0
  2  3  1  0
  3  4  1  0
  4  5  2  0
  5  6  1  0
  6  7  2  0
  7  8  1  0
  8  9  1  0
  9 10  2  0
 10 11  1  0
 11 12  1  0
 12 13  1  0
 13 14  2  0
 14 15  1  0
 15 16  2  0
 16 17  1  0
 17 18  2  0
 11 19  1  0
 19 20  2  0
 19 21  1  0
 21 22  1  0
 22 23  2  0
  7 24  1  0
 24 25  2  0
  2 26  1  0
 26 27  1  0
 27 28  1  0
 28 29  2  0
 29 30  1  0
 30 31  2  0
 31 32  1  0
 31 33  1  0
 33 34  1  0
 33 35  2  0
 25  4  1  0
 35 28  1  0
 22  9  1  0
 18 13  1  0
M  CHG  3  21  -1  26  -1  34  -1
M  END
>  <UniqueID>  (3394) 
77

>  <SMILES>  (3394) 
O=C(Cc1ccc(Cc2cn(Cc3ccccc3)c(=O)[n-]c2=O)cc1)[N-]Cc1ccc(O)c([O-])c1

>  <Energy>  (3394) 
57.7924926407813

>  <Genealogy>  (3394) 
O=C(Cc1ccc(Cc2cn(Cc3ccccc3)c(=O)[n-]c2=O)cc1)[N-]Cc1ccc(O)c([O-])c1 (protonated)
O=C(Cc1ccc(Cc2cn(Cc3ccccc3)c(=O)[n-]c2=O)cc1)[N-]Cc1ccc(O)c([O-])c1 (3D coordinates assigned)
O=C(Cc1ccc(Cc2cn(Cc3ccccc3)c(=O)[n-]c2=O)cc1)[N-]Cc1ccc(O)c([O-])c1 (optimized conformer: 57.7924926407813 kcal/mol)

>  <smiles>  (3394) 
O=C(Cc1ccc(Cc2cn(Cc3ccccc3)c(=O)[nH]c2=O)cc1)NCc1ccc(O)c(O)c1

>  <score_type>  (3394) 
oracle

>  <origin>  (3394) 
adg

>  <m_score__min__energy>  (3394) 
-16.739999999999998

>  <m_primary>  (3394) 
energy

$$$$
86:0
     RDKit          3D

 25 27  0  0  0  0  0  0  0  0999 V2000
   54.0060   28.3290   53.0390 C   0  0  0  0  0  0  0  0  0  0  0  0
   54.6680   29.4900   52.8970 C   0  0  0  0  0  0  0  0  0  0  0  0
   54.3140   30.5680   52.0690 C   0  0  0  0  0  0  0  0  0  0  0  0
   53.1750   30.8390   51.4040 C   0  0  0  0  0  0  0  0  0  0  0  0
   51.9660   31.4530   51.9760 C   0  0  0  0  0  0  0  0  0  0  0  0
   51.6230   31.4010   53.2780 N   0  0  0  0  0  0  0  0  0  0  0  0
   50.5620   32.2350   53.3530 C   0  0  0  0  0  0  0  0  0  0  0  0
   49.9410   32.4460   54.4260 O   0  0  0  0  0  0  0  0  0  0  0  0
   50.2320   32.8380   52.1910 N   0  0  0  0  0  0  0  0  0  0  0  0
   51.1400   32.3430   51.3350 C   0  0  0  0  0  0  0  0  0  0  0  0
   51.2140   32.7000   49.9910 O   0  0  0  0  0  0  0  0  0  0  0  0
   55.4100   31.4120   52.0470 C   0  0  0  0  0  0  0  0  0  0  0  0
   56.3560   30.8680   52.8910 C   0  0  0  0  0  0  0  0  0  0  0  0
   57.6880   31.5080   53.1920 C   0  0  0  0  0  0  0  0  0  0  0  0
   58.1450   32.4290   52.0840 C   0  0  0  0  0  0  0  0  0  0  0  0
   58.1450   33.6770   52.2730 O   0  0  0  0  0  0  0  0  0  0  0  0
   58.6180   31.8970   50.8250 N   0  0  0  0  0  0  0  0  0  0  0  0
   58.9190   32.8000   49.7030 C   0  0  0  0  0  0  0  0  0  0  0  0
   58.4900   32.1630   48.3700 C   0  0  0  0  0  0  0  0  0  0  0  0
   58.8630   30.7250   48.2320 N   0  0  0  0  0  0  0  0  0  0  0  0
   59.5620   30.4730   46.9620 C   0  0  0  0  0  0  0  0  0  0  0  0
   59.6520   30.1920   49.3610 C   0  0  0  0  0  0  0  0  0  0  0  0
   58.9390   30.4700   50.6880 C   0  0  0  0  0  0  0  0  0  0  0  0
   55.8940   29.7190   53.4380 N   0  0  0  0  0  0  0  0  0  0  0  0
   56.6300   28.8340   54.3500 C   0  0  0  0  0  0  0  0  0  0  0  0
  1  2  2  0
  2  3  1  0
  3  4  2  3
  4  5  1  0
  5  6  1  0
  6  7  1  0
  7  8  2  0
  7  9  1  0
  9 10  1  0
 10 11  1  0
  3 12  1  0
 12 13  2  0
 13 14  1  0
 14 15  1  0
 15 16  2  0
 15 17  1  0
 17 18  1  0
 18 19  1  0
 19 20  1  0
 20 21  1  0
 20 22  1  0
 22 23  1  0
 13 24  1  0
 24 25  1  0
 24  2  1  0
 10  5  2  0
 23 17  1  0
M  CHG  3   6  -1   9  -1  11  -1
M  END
>  <UniqueID>  (3395) 
83

>  <SMILES>  (3395) 
C=c1c(=Cc2[n-]c(=O)[n-]c2[O-])cc(CC(=O)N2CCN(C)CC2)n1C

>  <Energy>  (3395) 
120.85708345163665

>  <Genealogy>  (3395) 
C=c1c(=Cc2[n-]c(=O)[n-]c2[O-])cc(CC(=O)N2CCN(C)CC2)n1C (protonated)
C=c1c(=Cc2[n-]c(=O)[n-]c2[O-])cc(CC(=O)N2CCN(C)CC2)n1C (3D coordinates assigned)
C=c1c(=Cc2[n-]c(=O)[n-]c2[O-])cc(CC(=O)N2CCN(C)CC2)n1C (nonaromatic ring conformer: 120.85708345163665 kcal/mol)

>  <smiles>  (3395) 
C=c1c(=Cc2[nH]c(=O)[nH]c2O)cc(CC(=O)N2CCN(C)CC2)n1C

>  <score_type>  (3395) 
oracle

>  <origin>  (3395) 
adg

>  <m_score__min__energy>  (3395) 
-16.870000000000001

>  <m_primary>  (3395) 
energy

$$$$
9:0
     RDKit          3D

 29 31  0  0  0  0  0  0  0  0999 V2000
   59.1100   29.8720   48.1580 C   0  0  0  0  0  0  0  0  0  0  0  0
   58.7060   30.1880   46.9130 C   0  0  0  0  0  0  0  0  0  0  0  0
   58.3840   29.2640   45.9140 C   0  0  0  0  0  0  0  0  0  0  0  0
   58.4040   27.9180   45.9990 C   0  0  0  0  0  0  0  0  0  0  0  0
   57.1920   27.0820   46.0900 C   0  0  0  0  0  0  0  0  0  0  0  0
   57.2060   25.8070   46.5150 N   0  0  0  0  0  0  0  0  0  0  0  0
   55.9250   25.4090   46.3550 C   0  0  0  0  0  0  0  0  0  0  0  0
   55.5310   24.2540   46.6620 O   0  0  0  0  0  0  0  0  0  0  0  0
   55.1020   26.3430   45.8330 N   0  0  0  0  0  0  0  0  0  0  0  0
   55.9210   27.3930   45.6590 C   0  0  0  0  0  0  0  0  0  0  0  0
   55.5230   28.5890   45.0730 O   0  0  0  0  0  0  0  0  0  0  0  0
   57.9720   30.0020   44.8190 C   0  0  0  0  0  0  0  0  0  0  0  0
   58.0760   31.3320   45.1690 C   0  0  0  0  0  0  0  0  0  0  0  0
   57.5800   32.4460   44.2850 C   0  0  0  0  0  0  0  0  0  0  0  0
   57.7480   32.0930   42.8120 C   0  0  0  0  0  0  0  0  0  0  0  0
   58.5450   31.4590   46.4400 N   0  0  0  0  0  0  0  0  0  0  0  0
   58.7610   32.7310   47.1640 C   0  0  0  0  0  0  0  0  0  0  0  0
   60.1900   32.8910   47.6550 C   0  0  0  0  0  0  0  0  0  0  0  0
   61.2180   32.8860   46.6920 C   0  0  0  0  0  0  0  0  0  0  0  0
   62.5530   33.0030   47.0700 C   0  0  0  0  0  0  0  0  0  0  0  0
   62.8870   33.1390   48.4130 C   0  0  0  0  0  0  0  0  0  0  0  0
   61.8870   33.1800   49.3830 C   0  0  0  0  0  0  0  0  0  0  0  0
   60.5230   33.0910   49.0290 C   0  0  0  0  0  0  0  0  0  0  0  0
   59.4260   33.1530   50.0850 C   0  0  0  0  0  0  0  0  0  0  0  0
   58.8990   31.8070   50.6190 C   0  0  0  0  0  0  0  0  0  0  0  0
   57.4830   31.8900   50.9800 N   0  0  0  0  0  0  0  0  0  0  0  0
   56.7880   30.8200   51.6370 C   0  0  0  0  0  0  0  0  0  0  0  0
   57.3730   29.7310   51.8840 O   0  0  0  0  0  0  0  0  0  0  0  0
   55.3500   30.9840   52.0050 C   0  0  0  0  0  0  0  0  0  0  0  0
  1  2  2  0
  2  3  1  0
  3  4  2  0
  4  5  1  0
  5  6  1  0
  6  7  1  0
  7  8  2  0
  7  9  1  0
  9 10  1  0
 10 11  1  0
  3 12  1  0
 12 13  2  0
 13 14  1  0
 14 15  1  0
 13 16  1  0
 16 17  1  0
 17 18  1  0
 18 19  2  0
 19 20  1  0
 20 21  2  0
 21 22  1  0
 22 23  2  0
 23 24  1  0
 24 25  1  0
 25 26  1  0
 26 27  1  0
 27 28  2  0
 27 29  1  0
 16  2  1  0
 23 18  1  0
 10  5  2  0
M  CHG  3   6  -1   9  -1  11  -1
M  END
>  <UniqueID>  (3396) 
10

>  <SMILES>  (3396) 
C=c1/c(=C/c2[n-]c(=O)[n-]c2[O-])cc(CC)n1Cc1ccccc1CCNC(C)=O

>  <Energy>  (3396) 
117.88489752626363

>  <Genealogy>  (3396) 
C=c1c(=Cc2[n-]c(=O)[n-]c2[O-])cc(CC)n1Cc1ccccc1CCNC(C)=O (protonated)
C=c1/c(=C/c2[n-]c(=O)[n-]c2[O-])cc(CC)n1Cc1ccccc1CCNC(C)=O (cis-trans isomerization)
C=c1/c(=C/c2[n-]c(=O)[n-]c2[O-])cc(CC)n1Cc1ccccc1CCNC(C)=O (3D coordinates assigned)
C=c1/c(=C/c2[n-]c(=O)[n-]c2[O-])cc(CC)n1Cc1ccccc1CCNC(C)=O (optimized conformer: 117.88489752626363 kcal/mol)

>  <smiles>  (3396) 
C=c1c(=Cc2[nH]c(=O)[nH]c2O)cc(CC)n1Cc1ccccc1CCNC(C)=O

>  <score_type>  (3396) 
oracle

>  <origin>  (3396) 
adg

>  <m_score__min__energy>  (3396) 
-16.390000000000001

>  <m_primary>  (3396) 
energy

$$$$
12:0
     RDKit          3D

 30 33  0  0  0  0  0  0  0  0999 V2000
   55.3050   27.6690   53.8680 C   0  0  0  0  0  0  0  0  0  0  0  0
   55.0900   28.7480   53.1120 C   0  0  0  0  0  0  0  0  0  0  0  0
   53.8700   29.0240   52.5940 N   0  0  0  0  0  0  0  0  0  0  0  0
   54.0300   30.1940   51.9440 C   0  0  0  0  0  0  0  0  0  0  0  0
   53.0320   30.7820   51.2660 C   0  0  0  0  0  0  0  0  0  0  0  0
   51.8900   31.4640   51.8920 C   0  0  0  0  0  0  0  0  0  0  0  0
   51.6330   31.4320   53.2110 N   0  0  0  0  0  0  0  0  0  0  0  0
   50.5830   32.2700   53.3440 C   0  0  0  0  0  0  0  0  0  0  0  0
   50.0340   32.4970   54.4530 O   0  0  0  0  0  0  0  0  0  0  0  0
   50.1770   32.8570   52.1980 N   0  0  0  0  0  0  0  0  0  0  0  0
   51.0230   32.3450   51.2900 C   0  0  0  0  0  0  0  0  0  0  0  0
   51.0310   32.7090   49.9500 O   0  0  0  0  0  0  0  0  0  0  0  0
   55.3510   30.5920   52.0670 C   0  0  0  0  0  0  0  0  0  0  0  0
   55.8860   31.5880   51.5080 O   0  0  0  0  0  0  0  0  0  0  0  0
   56.0220   29.6880   52.8080 N   0  0  0  0  0  0  0  0  0  0  0  0
   57.4380   29.6670   53.0830 C   0  0  0  0  0  0  0  0  0  0  0  0
   57.8500   29.1690   54.1690 O   0  0  0  0  0  0  0  0  0  0  0  0
   58.3930   30.1840   52.1240 N   0  0  0  0  0  0  0  0  0  0  0  0
   59.4770   29.1950   51.8820 C   0  0  0  0  0  0  0  0  0  0  0  0
   60.8790   29.8250   51.7080 C   0  0  0  0  0  0  0  0  0  0  0  0
   60.8510   31.1450   51.0460 N   0  0  0  0  0  0  0  0  0  0  0  0
   61.0800   31.1390   49.5850 C   0  0  0  0  0  0  0  0  0  0  0  0
   60.3130   32.2140   48.8440 C   0  0  0  0  0  0  0  0  0  0  0  0
   60.8640   33.4990   48.6940 C   0  0  0  0  0  0  0  0  0  0  0  0
   60.1530   34.4990   48.0240 C   0  0  0  0  0  0  0  0  0  0  0  0
   58.8780   34.2330   47.5190 C   0  0  0  0  0  0  0  0  0  0  0  0
   58.3120   32.9660   47.6840 C   0  0  0  0  0  0  0  0  0  0  0  0
   59.0240   31.9600   48.3450 C   0  0  0  0  0  0  0  0  0  0  0  0
   59.8240   32.0960   51.5250 C   0  0  0  0  0  0  0  0  0  0  0  0
   58.9050   31.4850   52.5890 C   0  0  0  0  0  0  0  0  0  0  0  0
  1  2  2  0
  2  3  1  0
  3  4  1  0
  4  5  2  3
  5  6  1  0
  6  7  1  0
  7  8  1  0
  8  9  2  0
  8 10  1  0
 10 11  1  0
 11 12  1  0
  4 13  1  0
 13 14  2  0
 13 15  1  0
 15 16  1  0
 16 17  2  0
 16 18  1  0
 18 19  1  0
 19 20  1  0
 20 21  1  0
 21 22  1  0
 22 23  1  0
 23 24  2  0
 24 25  1  0
 25 26  2  0
 26 27  1  0
 27 28  2  0
 21 29  1  0
 29 30  1  0
 15  2  1  0
 30 18  1  0
 11  6  2  0
 28 23  1  0
M  CHG  5   3  -1   7  -1  10  -1  12  -1  18   1
M  END
>  <UniqueID>  (3397) 
13

>  <SMILES>  (3397) 
C=c1[n-]c(=Cc2[n-]c(=O)[n-]c2[O-])c(=O)n1C(=O)[NH+]1CCN(Cc2ccccc2)CC1

>  <Energy>  (3397) 
142.53872847496893

>  <Genealogy>  (3397) 
C=c1[n-]c(=Cc2[n-]c(=O)[n-]c2[O-])c(=O)n1C(=O)[NH+]1CCN(Cc2ccccc2)CC1 (protonated)
C=c1[n-]c(=Cc2[n-]c(=O)[n-]c2[O-])c(=O)n1C(=O)[NH+]1CCN(Cc2ccccc2)CC1 (3D coordinates assigned)
C=c1[n-]c(=Cc2[n-]c(=O)[n-]c2[O-])c(=O)n1C(=O)[NH+]1CCN(Cc2ccccc2)CC1 (nonaromatic ring conformer: 142.53872847496893 kcal/mol)

>  <smiles>  (3397) 
C=c1[nH]c(=Cc2[nH]c(=O)[nH]c2O)c(=O)n1C(=O)N1CCN(Cc2ccccc2)CC1

>  <score_type>  (3397) 
oracle

>  <origin>  (3397) 
adg

>  <m_score__min__energy>  (3397) 
-17.52

>  <m_primary>  (3397) 
energy

$$$$
23:0
     RDKit          3D

 32 35  0  0  0  0  0  0  0  0999 V2000
   60.5910   26.3550   47.3680 C   0  0  0  0  0  0  0  0  0  0  0  0
   60.1440   27.6250   47.4500 C   0  0  0  0  0  0  0  0  0  0  0  0
   60.8230   28.4850   48.3340 C   0  0  0  0  0  0  0  0  0  0  0  0
   60.4060   29.8020   48.5500 C   0  0  0  0  0  0  0  0  0  0  0  0
   61.2080   30.6580   49.4550 C   0  0  0  0  0  0  0  0  0  0  0  0
   61.1910   30.4130   50.6930 O   0  0  0  0  0  0  0  0  0  0  0  0
   61.9920   31.7590   48.9520 N   0  0  0  0  0  0  0  0  0  0  0  0
   62.3600   31.8430   47.5340 C   0  0  0  0  0  0  0  0  0  0  0  0
   63.7080   32.5530   47.3840 C   0  0  0  0  0  0  0  0  0  0  0  0
   63.7010   33.7920   48.0670 O   0  0  0  0  0  0  0  0  0  0  0  0
   63.5780   33.5680   49.4580 C   0  0  0  0  0  0  0  0  0  0  0  0
   62.2190   32.9420   49.7910 C   0  0  0  0  0  0  0  0  0  0  0  0
   59.2870   30.2970   47.8540 C   0  0  0  0  0  0  0  0  0  0  0  0
   58.7710   31.6740   48.0780 C   0  0  0  0  0  0  0  0  0  0  0  0
   58.3320   31.9900   49.2170 O   0  0  0  0  0  0  0  0  0  0  0  0
   58.7660   32.6820   46.9880 C   0  0  0  0  0  0  0  0  0  0  0  0
   58.2670   32.3220   45.7220 C   0  0  0  0  0  0  0  0  0  0  0  0
   58.2570   33.2440   44.6730 C   0  0  0  0  0  0  0  0  0  0  0  0
   58.7450   34.5350   44.8720 C   0  0  0  0  0  0  0  0  0  0  0  0
   59.2410   34.9100   46.1220 C   0  0  0  0  0  0  0  0  0  0  0  0
   59.2560   33.9950   47.1830 C   0  0  0  0  0  0  0  0  0  0  0  0
   59.8380   34.5580   48.7470 Cl  0  0  0  0  0  0  0  0  0  0  0  0
   58.6130   29.4600   46.9520 C   0  0  0  0  0  0  0  0  0  0  0  0
   59.0110   28.1220   46.7220 C   0  0  0  0  0  0  0  0  0  0  0  0
   58.3590   27.3690   45.7930 C   0  0  0  0  0  0  0  0  0  0  0  0
   57.0950   26.6290   46.0090 C   0  0  0  0  0  0  0  0  0  0  0  0
   57.0040   25.3400   46.3860 N   0  0  0  0  0  0  0  0  0  0  0  0
   55.6770   25.0910   46.3340 C   0  0  0  0  0  0  0  0  0  0  0  0
   55.1850   23.9720   46.6350 O   0  0  0  0  0  0  0  0  0  0  0  0
   54.9210   26.1310   45.9230 N   0  0  0  0  0  0  0  0  0  0  0  0
   55.8350   27.0910   45.7110 C   0  0  0  0  0  0  0  0  0  0  0  0
   55.5250   28.3650   45.2510 O   0  0  0  0  0  0  0  0  0  0  0  0
  1  2  2  0
  2  3  1  0
  3  4  2  0
  4  5  1  0
  5  6  2  0
  5  7  1  0
  7  8  1  0
  8  9  1  0
  9 10  1  0
 10 11  1  0
 11 12  1  0
  4 13  1  0
 13 14  1  0
 14 15  2  0
 14 16  1  0
 16 17  2  0
 17 18  1  0
 18 19  2  0
 19 20  1  0
 20 21  2  0
 21 22  1  0
 13 23  2  0
 23 24  1  0
 24 25  2  0
 25 26  1  0
 26 27  1  0
 27 28  1  0
 28 29  2  0
 28 30  1  0
 30 31  1  0
 31 32  1  0
 24  2  1  0
 31 26  2  0
 12  7  1  0
 21 16  1  0
M  CHG  3  27  -1  30  -1  32  -1
M  END
>  <UniqueID>  (3398) 
24

>  <SMILES>  (3398) 
C=c1cc(C(=O)N2CCOCC2)c(C(=O)c2ccccc2Cl)c/c1=C\c1[n-]c(=O)[n-]c1[O-]

>  <Energy>  (3398) 
115.66633859923716

>  <Genealogy>  (3398) 
C=c1cc(C(=O)N2CCOCC2)c(C(=O)c2ccccc2Cl)cc1=Cc1[n-]c(=O)[n-]c1[O-] (protonated)
C=c1cc(C(=O)N2CCOCC2)c(C(=O)c2ccccc2Cl)c/c1=C\c1[n-]c(=O)[n-]c1[O-] (cis-trans isomerization)
C=c1cc(C(=O)N2CCOCC2)c(C(=O)c2ccccc2Cl)c/c1=C\c1[n-]c(=O)[n-]c1[O-] (3D coordinates assigned)
C=c1cc(C(=O)N2CCOCC2)c(C(=O)c2ccccc2Cl)c/c1=C\c1[n-]c(=O)[n-]c1[O-] (nonaromatic ring conformer: 115.66633859923716 kcal/mol)

>  <smiles>  (3398) 
C=c1cc(C(=O)N2CCOCC2)c(C(=O)c2ccccc2Cl)cc1=Cc1[nH]c(=O)[nH]c1O

>  <score_type>  (3398) 
oracle

>  <origin>  (3398) 
adg

>  <m_score__min__energy>  (3398) 
-17.09

>  <m_primary>  (3398) 
energy

$$$$
24:0
     RDKit          3D

 33 36  0  0  0  0  0  0  0  0999 V2000
   56.7970   24.4630   43.2910 C   0  0  0  0  0  0  0  0  0  0  0  0
   57.3190   24.9910   44.4040 C   0  0  0  0  0  0  0  0  0  0  0  0
   58.3320   25.8810   44.3600 N   0  0  0  0  0  0  0  0  0  0  0  0
   58.7590   26.0600   45.6250 C   0  0  0  0  0  0  0  0  0  0  0  0
   59.8530   26.9750   45.9980 C   0  0  0  0  0  0  0  0  0  0  0  0
   61.0270   26.5260   46.0900 O   0  0  0  0  0  0  0  0  0  0  0  0
   59.6060   28.3660   46.2490 N   0  0  0  0  0  0  0  0  0  0  0  0
   60.4490   29.3830   45.6110 C   0  0  0  0  0  0  0  0  0  0  0  0
   61.0330   30.3110   46.6780 C   0  0  0  0  0  0  0  0  0  0  0  0
   59.9860   30.8180   47.5820 N   0  0  0  0  0  0  0  0  0  0  0  0
   60.2090   32.0420   48.3100 C   0  0  0  0  0  0  0  0  0  0  0  0
   59.2550   32.8510   48.4700 O   0  0  0  0  0  0  0  0  0  0  0  0
   61.5070   32.3720   48.8390 N   0  0  0  0  0  0  0  0  0  0  0  0
   62.3700   31.3340   49.4140 C   0  0  0  0  0  0  0  0  0  0  0  0
   62.9920   31.8260   50.7260 C   0  0  0  0  0  0  0  0  0  0  0  0
   63.5710   33.1740   50.5870 N   0  0  0  0  0  0  0  0  0  0  0  0
   64.4160   33.7100   51.6300 C   0  0  0  0  0  0  0  0  0  0  0  0
   64.5330   33.0370   52.9660 C   0  0  0  0  0  0  0  0  0  0  0  0
   65.0930   34.7550   51.4220 O   0  0  0  0  0  0  0  0  0  0  0  0
   63.3790   33.9250   49.3360 C   0  0  0  0  0  0  0  0  0  0  0  0
   61.9360   33.7760   48.8420 C   0  0  0  0  0  0  0  0  0  0  0  0
   58.6220   30.2720   47.5080 C   0  0  0  0  0  0  0  0  0  0  0  0
   58.6520   28.7530   47.3000 C   0  0  0  0  0  0  0  0  0  0  0  0
   58.0030   25.3030   46.4990 C   0  0  0  0  0  0  0  0  0  0  0  0
   57.0540   24.6410   45.7360 C   0  0  0  0  0  0  0  0  0  0  0  0
   56.0970   23.8620   46.2720 C   0  0  0  0  0  0  0  0  0  0  0  0
   54.6660   23.9020   45.9280 C   0  0  0  0  0  0  0  0  0  0  0  0
   53.9160   22.8220   45.6380 N   0  0  0  0  0  0  0  0  0  0  0  0
   52.7390   23.3560   45.2470 C   0  0  0  0  0  0  0  0  0  0  0  0
   51.7540   22.6500   44.9040 O   0  0  0  0  0  0  0  0  0  0  0  0
   52.7020   24.7060   45.2410 N   0  0  0  0  0  0  0  0  0  0  0  0
   53.9350   25.0340   45.6600 C   0  0  0  0  0  0  0  0  0  0  0  0
   54.3860   26.3410   45.7880 O   0  0  0  0  0  0  0  0  0  0  0  0
  1  2  2  0
  2  3  1  0
  3  4  1  0
  4  5  1  0
  5  6  2  0
  5  7  1  0
  7  8  1  0
  8  9  1  0
  9 10  1  0
 10 11  1  0
 11 12  2  0
 11 13  1  0
 13 14  1  0
 14 15  1  0
 15 16  1  0
 16 17  1  0
 17 18  1  0
 17 19  2  0
 16 20  1  0
 20 21  1  0
 10 22  1  0
 22 23  1  0
  4 24  2  0
 24 25  1  0
 25 26  2  3
 26 27  1  0
 27 28  1  0
 28 29  1  0
 29 30  2  0
 29 31  1  0
 31 32  1  0
 32 33  1  0
 25  2  1  0
 32 27  2  0
 23  7  1  0
 21 13  1  0
M  CHG  3  28  -1  31  -1  33  -1
M  END
>  <UniqueID>  (3399) 
25

>  <SMILES>  (3399) 
C=c1[nH]c(C(=O)N2CCN(C(=O)N3CCN(C(C)=O)CC3)CC2)cc1=Cc1[n-]c(=O)[n-]c1[O-]

>  <Energy>  (3399) 
132.25762651810248

>  <Genealogy>  (3399) 
C=c1[nH]c(C(=O)N2CCN(C(=O)N3CCN(C(C)=O)CC3)CC2)cc1=Cc1[n-]c(=O)[n-]c1[O-] (protonated)
C=c1[nH]c(C(=O)N2CCN(C(=O)N3CCN(C(C)=O)CC3)CC2)cc1=Cc1[n-]c(=O)[n-]c1[O-] (3D coordinates assigned)
C=c1[nH]c(C(=O)N2CCN(C(=O)N3CCN(C(C)=O)CC3)CC2)cc1=Cc1[n-]c(=O)[n-]c1[O-] (nonaromatic ring conformer: 132.25762651810248 kcal/mol)

>  <smiles>  (3399) 
C=c1[nH]c(C(=O)N2CCN(C(=O)N3CCN(C(C)=O)CC3)CC2)cc1=Cc1[nH]c(=O)[nH]c1O

>  <score_type>  (3399) 
oracle

>  <origin>  (3399) 
adg

>  <m_score__min__energy>  (3399) 
-17.809999999999999

>  <m_primary>  (3399) 
energy

$$$$
32:0
     RDKit          3D

 31 34  0  0  0  0  0  0  0  0999 V2000
   52.9170   28.7920   55.0740 C   0  0  0  0  0  0  0  0  0  0  0  0
   53.7610   29.3420   54.1990 C   0  0  0  0  0  0  0  0  0  0  0  0
   55.0220   28.9760   54.1340 O   0  0  0  0  0  0  0  0  0  0  0  0
   55.5990   29.5970   53.1320 C   0  0  0  0  0  0  0  0  0  0  0  0
   57.0100   29.4030   52.7610 C   0  0  0  0  0  0  0  0  0  0  0  0
   57.5560   28.2930   53.0070 O   0  0  0  0  0  0  0  0  0  0  0  0
   57.7720   30.4400   52.1160 N   0  0  0  0  0  0  0  0  0  0  0  0
   58.6530   30.1210   50.9880 C   0  0  0  0  0  0  0  0  0  0  0  0
   60.0820   30.6000   51.2810 C   0  0  0  0  0  0  0  0  0  0  0  0
   60.1220   32.0800   51.7330 C   0  0  0  0  0  0  0  0  0  0  0  0
   59.8240   33.0580   50.6050 C   0  0  0  0  0  0  0  0  0  0  0  0
   58.9630   33.9660   50.7710 O   0  0  0  0  0  0  0  0  0  0  0  0
   60.5110   32.9740   49.3420 N   0  0  0  0  0  0  0  0  0  0  0  0
   60.8260   34.2200   48.6310 C   0  0  0  0  0  0  0  0  0  0  0  0
   61.7310   33.9530   47.4260 C   0  0  0  0  0  0  0  0  0  0  0  0
   62.7050   32.9090   47.7860 N   0  0  0  0  0  0  0  0  0  0  0  0
   63.7720   32.8290   46.7770 C   0  0  0  0  0  0  0  0  0  0  0  0
   62.0420   31.5940   47.9410 C   0  0  0  0  0  0  0  0  0  0  0  0
   60.6700   31.6900   48.6440 C   0  0  0  0  0  0  0  0  0  0  0  0
   59.1670   32.2830   52.9310 C   0  0  0  0  0  0  0  0  0  0  0  0
   57.7440   31.8220   52.6060 C   0  0  0  0  0  0  0  0  0  0  0  0
   54.6830   30.4090   52.4910 C   0  0  0  0  0  0  0  0  0  0  0  0
   53.4990   30.2850   53.1960 C   0  0  0  0  0  0  0  0  0  0  0  0
   52.3830   30.9750   52.8920 C   0  0  0  0  0  0  0  0  0  0  0  0
   51.8110   31.1290   51.5470 C   0  0  0  0  0  0  0  0  0  0  0  0
   51.9310   30.2050   50.5780 N   0  0  0  0  0  0  0  0  0  0  0  0
   51.3880   30.8130   49.4990 C   0  0  0  0  0  0  0  0  0  0  0  0
   51.3010   30.2500   48.3780 O   0  0  0  0  0  0  0  0  0  0  0  0
   50.9600   32.0750   49.7160 N   0  0  0  0  0  0  0  0  0  0  0  0
   51.2490   32.2650   51.0120 C   0  0  0  0  0  0  0  0  0  0  0  0
   51.0260   33.4600   51.6860 O   0  0  0  0  0  0  0  0  0  0  0  0
  1  2  2  0
  2  3  1  0
  3  4  1  0
  4  5  1  0
  5  6  2  0
  5  7  1  0
  7  8  1  0
  8  9  1  0
  9 10  1  0
 10 11  1  0
 11 12  2  0
 11 13  1  0
 13 14  1  0
 14 15  1  0
 15 16  1  0
 16 17  1  0
 16 18  1  0
 18 19  1  0
 10 20  1  0
 20 21  1  0
  4 22  2  0
 22 23  1  0
 23 24  2  0
 24 25  1  0
 25 26  1  0
 26 27  1  0
 27 28  2  0
 27 29  1  0
 29 30  1  0
 30 31  1  0
 23  2  1  0
 30 25  2  0
 21  7  1  0
 19 13  1  0
M  CHG  3  26  -1  29  -1  31  -1
M  END
>  <UniqueID>  (3400) 
33

>  <SMILES>  (3400) 
C=c1oc(C(=O)N2CCC(C(=O)N3CCN(C)CC3)CC2)c/c1=C/c1[n-]c(=O)[n-]c1[O-]

>  <Energy>  (3400) 
133.83299021204914

>  <Genealogy>  (3400) 
C=c1oc(C(=O)N2CCC(C(=O)N3CCN(C)CC3)CC2)cc1=Cc1[n-]c(=O)[n-]c1[O-] (protonated)
C=c1oc(C(=O)N2CCC(C(=O)N3CCN(C)CC3)CC2)c/c1=C/c1[n-]c(=O)[n-]c1[O-] (cis-trans isomerization)
C=c1oc(C(=O)N2CCC(C(=O)N3CCN(C)CC3)CC2)c/c1=C/c1[n-]c(=O)[n-]c1[O-] (3D coordinates assigned)
C=c1oc(C(=O)N2CCC(C(=O)N3CCN(C)CC3)CC2)c/c1=C/c1[n-]c(=O)[n-]c1[O-] (nonaromatic ring conformer: 133.83299021204914 kcal/mol)

>  <smiles>  (3400) 
C=c1oc(C(=O)N2CCC(C(=O)N3CCN(C)CC3)CC2)cc1=Cc1[nH]c(=O)[nH]c1O

>  <score_type>  (3400) 
oracle

>  <origin>  (3400) 
adg

>  <m_score__min__energy>  (3400) 
-18.27

>  <m_primary>  (3400) 
energy

$$$$
50:0
     RDKit          3D

 31 34  0  0  0  0  0  0  0  0999 V2000
   60.0060   27.7310   45.8510 O   0  0  0  0  0  0  0  0  0  0  0  0
   58.7760   27.5170   46.0260 C   0  0  0  0  0  0  0  0  0  0  0  0
   58.3630   26.3630   46.7670 N   0  0  0  0  0  0  0  0  0  0  0  0
   58.5750   25.0030   46.2900 C   0  0  0  0  0  0  0  0  0  0  0  0
   57.2550   24.3900   45.9170 C   0  0  0  0  0  0  0  0  0  0  0  0
   56.2090   24.3390   46.8520 C   0  0  0  0  0  0  0  0  0  0  0  0
   54.9860   23.7560   46.5080 C   0  0  0  0  0  0  0  0  0  0  0  0
   54.8030   23.2050   45.2350 C   0  0  0  0  0  0  0  0  0  0  0  0
   53.5840   22.6200   44.9050 O   0  0  0  0  0  0  0  0  0  0  0  0
   55.8460   23.2430   44.2970 C   0  0  0  0  0  0  0  0  0  0  0  0
   55.6570   22.6940   43.0290 O   0  0  0  0  0  0  0  0  0  0  0  0
   57.0710   23.8310   44.6410 C   0  0  0  0  0  0  0  0  0  0  0  0
   57.7610   28.4660   45.4930 C   0  0  0  0  0  0  0  0  0  0  0  0
   58.1440   29.7700   45.1300 C   0  0  0  0  0  0  0  0  0  0  0  0
   57.2020   30.6880   44.6390 C   0  0  0  0  0  0  0  0  0  0  0  0
   57.6010   32.0680   44.2760 C   0  0  0  0  0  0  0  0  0  0  0  0
   57.4190   32.4700   43.0930 O   0  0  0  0  0  0  0  0  0  0  0  0
   58.1900   32.9600   45.2400 N   0  0  0  0  0  0  0  0  0  0  0  0
   57.6020   33.1190   46.5770 C   0  0  0  0  0  0  0  0  0  0  0  0
   58.7100   33.1890   47.6430 C   0  0  0  0  0  0  0  0  0  0  0  0
   59.9580   33.8530   47.1650 N   0  0  0  0  0  0  0  0  0  0  0  0
   60.7720   34.5530   48.1990 C   0  0  0  0  0  0  0  0  0  0  0  0
   60.4880   34.1470   49.6490 C   0  0  0  0  0  0  0  0  0  0  0  0
   61.9270   33.6610   49.7850 C   0  0  0  0  0  0  0  0  0  0  0  0
   62.2160   34.0640   48.3410 C   0  0  0  0  0  0  0  0  0  0  0  0
   59.7490   34.7240   45.9910 C   0  0  0  0  0  0  0  0  0  0  0  0
   59.2450   33.8870   44.8130 C   0  0  0  0  0  0  0  0  0  0  0  0
   55.8790   30.2630   44.4790 C   0  0  0  0  0  0  0  0  0  0  0  0
   55.5170   29.0030   44.8280 N   0  0  0  0  0  0  0  0  0  0  0  0
   56.4050   28.1050   45.3300 C   0  0  0  0  0  0  0  0  0  0  0  0
   55.9970   26.9550   45.6410 O   0  0  0  0  0  0  0  0  0  0  0  0
  1  2  2  0
  2  3  1  0
  3  4  1  0
  4  5  1  0
  5  6  2  0
  6  7  1  0
  7  8  2  0
  8  9  1  0
  8 10  1  0
 10 11  1  0
 10 12  2  0
  2 13  1  0
 13 14  2  0
 14 15  1  0
 15 16  1  0
 16 17  2  0
 16 18  1  0
 18 19  1  0
 19 20  1  0
 20 21  1  0
 21 22  1  0
 22 23  1  0
 23 24  1  0
 24 25  1  0
 21 26  1  0
 26 27  1  0
 15 28  2  0
 28 29  1  0
 29 30  1  0
 30 31  2  0
 12  5  1  0
 30 13  1  0
 27 18  1  0
 25 22  1  0
M  CHG  3   3  -1   9  -1  29  -1
M  END
>  <UniqueID>  (3401) 
51

>  <SMILES>  (3401) 
O=C([N-]Cc1ccc([O-])c(O)c1)c1cc(C(=O)N2CCN(C3CCC3)CC2)c[n-]c1=O

>  <Energy>  (3401) 
130.40656423477816

>  <Genealogy>  (3401) 
O=C([N-]Cc1ccc([O-])c(O)c1)c1cc(C(=O)N2CCN(C3CCC3)CC2)c[n-]c1=O (protonated)
O=C([N-]Cc1ccc([O-])c(O)c1)c1cc(C(=O)N2CCN(C3CCC3)CC2)c[n-]c1=O (3D coordinates assigned)
O=C([N-]Cc1ccc([O-])c(O)c1)c1cc(C(=O)N2CCN(C3CCC3)CC2)c[n-]c1=O (nonaromatic ring conformer: 130.40656423477816 kcal/mol)

>  <smiles>  (3401) 
O=C(NCc1ccc(O)c(O)c1)c1cc(C(=O)N2CCN(C3CCC3)CC2)c[nH]c1=O

>  <score_type>  (3401) 
oracle

>  <origin>  (3401) 
adg

>  <m_score__min__energy>  (3401) 
-15.92

>  <m_primary>  (3401) 
energy

$$$$
58:0
     RDKit          3D

 29 32  0  0  0  0  0  0  0  0999 V2000
   59.1000   30.3200   47.5560 C   0  0  0  0  0  0  0  0  0  0  0  0
   58.8020   30.9360   46.4020 C   0  0  0  0  0  0  0  0  0  0  0  0
   58.3080   30.3460   45.2260 C   0  0  0  0  0  0  0  0  0  0  0  0
   58.2140   29.0540   44.8520 C   0  0  0  0  0  0  0  0  0  0  0  0
   57.3650   28.0280   45.4800 C   0  0  0  0  0  0  0  0  0  0  0  0
   57.8140   26.8870   46.0390 N   0  0  0  0  0  0  0  0  0  0  0  0
   56.6790   26.2230   46.3450 C   0  0  0  0  0  0  0  0  0  0  0  0
   56.6830   25.1000   46.9130 O   0  0  0  0  0  0  0  0  0  0  0  0
   55.5390   26.8540   45.9890 N   0  0  0  0  0  0  0  0  0  0  0  0
   55.9930   27.9870   45.4300 C   0  0  0  0  0  0  0  0  0  0  0  0
   55.1700   28.9630   44.8780 O   0  0  0  0  0  0  0  0  0  0  0  0
   57.8980   31.3900   44.4120 C   0  0  0  0  0  0  0  0  0  0  0  0
   58.2170   32.5600   45.0690 C   0  0  0  0  0  0  0  0  0  0  0  0
   57.9770   33.9340   44.5220 C   0  0  0  0  0  0  0  0  0  0  0  0
   58.7680   32.2870   46.2720 N   0  0  0  0  0  0  0  0  0  0  0  0
   59.2110   33.2550   47.2350 C   0  0  0  0  0  0  0  0  0  0  0  0
   58.6150   33.3510   48.3410 O   0  0  0  0  0  0  0  0  0  0  0  0
   60.3640   34.1650   46.9310 C   0  0  0  0  0  0  0  0  0  0  0  0
   61.5740   33.7510   47.7250 C   0  0  0  0  0  0  0  0  0  0  0  0
   61.6110   33.9530   49.1110 C   0  0  0  0  0  0  0  0  0  0  0  0
   62.7070   33.5170   49.8600 C   0  0  0  0  0  0  0  0  0  0  0  0
   63.7850   32.8620   49.2390 C   0  0  0  0  0  0  0  0  0  0  0  0
   64.9110   32.3970   50.0140 N   0  0  0  0  0  0  0  0  0  0  0  0
   66.1450   32.9420   50.0750 C   0  0  0  0  0  0  0  0  0  0  0  0
   66.9750   32.2600   50.8910 N   0  0  0  0  0  0  0  0  0  0  0  0
   66.2240   31.2440   51.3600 C   0  0  0  0  0  0  0  0  0  0  0  0
   64.9580   31.3210   50.8240 C   0  0  0  0  0  0  0  0  0  0  0  0
   63.7390   32.6580   47.8460 C   0  0  0  0  0  0  0  0  0  0  0  0
   62.6410   33.0940   47.0990 C   0  0  0  0  0  0  0  0  0  0  0  0
  1  2  2  0
  2  3  1  0
  3  4  2  0
  4  5  1  0
  5  6  1  0
  6  7  1  0
  7  8  2  0
  7  9  1  0
  9 10  1  0
 10 11  1  0
  3 12  1  0
 12 13  2  0
 13 14  1  0
 13 15  1  0
 15 16  1  0
 16 17  2  0
 16 18  1  0
 18 19  1  0
 19 20  2  0
 20 21  1  0
 21 22  2  0
 22 23  1  0
 23 24  1  0
 24 25  2  0
 25 26  1  0
 26 27  2  0
 22 28  1  0
 28 29  2  0
 15  2  1  0
 29 19  1  0
 10  5  2  0
 27 23  1  0
M  CHG  3   6  -1   9  -1  11  -1
M  END
>  <UniqueID>  (3402) 
59

>  <SMILES>  (3402) 
C=c1/c(=C\c2[n-]c(=O)[n-]c2[O-])cc(C)n1C(=O)Cc1ccc(-n2ccnc2)cc1

>  <Energy>  (3402) 
154.21910924423608

>  <Genealogy>  (3402) 
C=c1c(=Cc2[n-]c(=O)[n-]c2[O-])cc(C)n1C(=O)Cc1ccc(-n2ccnc2)cc1 (protonated)
C=c1/c(=C\c2[n-]c(=O)[n-]c2[O-])cc(C)n1C(=O)Cc1ccc(-n2ccnc2)cc1 (cis-trans isomerization)
C=c1/c(=C\c2[n-]c(=O)[n-]c2[O-])cc(C)n1C(=O)Cc1ccc(-n2ccnc2)cc1 (3D coordinates assigned)
C=c1/c(=C\c2[n-]c(=O)[n-]c2[O-])cc(C)n1C(=O)Cc1ccc(-n2ccnc2)cc1 (optimized conformer: 154.21910924423608 kcal/mol)

>  <smiles>  (3402) 
C=c1c(=Cc2[nH]c(=O)[nH]c2O)cc(C)n1C(=O)Cc1ccc(-n2ccnc2)cc1

>  <score_type>  (3402) 
oracle

>  <origin>  (3402) 
adg

>  <m_score__min__energy>  (3402) 
-16.5

>  <m_primary>  (3402) 
energy

$$$$
68:0
     RDKit          3D

 30 33  0  0  0  0  0  0  0  0999 V2000
   57.4190   28.2670   43.5440 C   0  0  0  0  0  0  0  0  0  0  0  0
   57.6310   28.5540   44.8380 C   0  0  0  0  0  0  0  0  0  0  0  0
   57.9700   29.7880   45.4180 C   0  0  0  0  0  0  0  0  0  0  0  0
   58.0380   31.0190   44.8750 C   0  0  0  0  0  0  0  0  0  0  0  0
   58.4980   32.2400   45.5650 C   0  0  0  0  0  0  0  0  0  0  0  0
   59.7200   32.2820   46.2690 C   0  0  0  0  0  0  0  0  0  0  0  0
   60.5440   31.1530   46.3450 O   0  0  0  0  0  0  0  0  0  0  0  0
   60.1050   33.4380   46.8960 N   0  0  0  0  0  0  0  0  0  0  0  0
   61.3410   33.4720   47.6370 C   0  0  0  0  0  0  0  0  0  0  0  0
   62.5710   33.3700   46.9670 C   0  0  0  0  0  0  0  0  0  0  0  0
   63.7690   33.4050   47.6870 C   0  0  0  0  0  0  0  0  0  0  0  0
   63.7470   33.5420   49.0790 C   0  0  0  0  0  0  0  0  0  0  0  0
   62.5260   33.6430   49.7520 C   0  0  0  0  0  0  0  0  0  0  0  0
   61.3250   33.6080   49.0340 C   0  0  0  0  0  0  0  0  0  0  0  0
   59.3210   34.5590   46.8180 C   0  0  0  0  0  0  0  0  0  0  0  0
   59.6710   35.6320   47.3810 O   0  0  0  0  0  0  0  0  0  0  0  0
   58.1590   34.5330   46.1190 N   0  0  0  0  0  0  0  0  0  0  0  0
   57.7360   33.4100   45.4900 C   0  0  0  0  0  0  0  0  0  0  0  0
   56.6490   33.4330   44.8510 O   0  0  0  0  0  0  0  0  0  0  0  0
   58.2280   29.5990   46.7310 N   0  0  0  0  0  0  0  0  0  0  0  0
   58.0210   28.2840   46.9310 C   0  0  0  0  0  0  0  0  0  0  0  0
   58.1430   27.7390   48.0600 O   0  0  0  0  0  0  0  0  0  0  0  0
   57.6530   27.6210   45.8180 N   0  0  0  0  0  0  0  0  0  0  0  0
   57.3390   26.2190   45.7260 C   0  0  0  0  0  0  0  0  0  0  0  0
   58.3670   25.2820   45.5390 C   0  0  0  0  0  0  0  0  0  0  0  0
   58.0700   23.9200   45.4350 C   0  0  0  0  0  0  0  0  0  0  0  0
   56.7450   23.4840   45.5150 C   0  0  0  0  0  0  0  0  0  0  0  0
   55.7140   24.4100   45.7010 C   0  0  0  0  0  0  0  0  0  0  0  0
   56.0060   25.7740   45.8080 C   0  0  0  0  0  0  0  0  0  0  0  0
   54.9720   26.6820   46.0110 O   0  0  0  0  0  0  0  0  0  0  0  0
  1  2  2  0
  2  3  1  0
  3  4  2  3
  4  5  1  0
  5  6  2  0
  6  7  1  0
  6  8  1  0
  8  9  1  0
  9 10  2  0
 10 11  1  0
 11 12  2  0
 12 13  1  0
 13 14  2  0
  8 15  1  0
 15 16  2  0
 15 17  1  0
 17 18  1  0
 18 19  2  0
  3 20  1  0
 20 21  1  0
 21 22  2  0
 21 23  1  0
 23 24  1  0
 24 25  2  0
 25 26  1  0
 26 27  2  0
 27 28  1  0
 28 29  2  0
 29 30  1  0
 23  2  1  0
 29 24  1  0
 18  5  1  0
 14  9  1  0
M  CHG  3  17  -1  20  -1  30  -1
M  END
>  <UniqueID>  (3403) 
69

>  <SMILES>  (3403) 
C=c1c(=Cc2c(O)n(-c3ccccc3)c(=O)[n-]c2=O)[n-]c(=O)n1-c1ccccc1[O-]

>  <Energy>  (3403) 
112.25861161133956

>  <Genealogy>  (3403) 
C=c1c(=Cc2c(O)n(-c3ccccc3)c(=O)[n-]c2=O)[n-]c(=O)n1-c1ccccc1[O-] (protonated)
C=c1c(=Cc2c(O)n(-c3ccccc3)c(=O)[n-]c2=O)[n-]c(=O)n1-c1ccccc1[O-] (3D coordinates assigned)
C=c1c(=Cc2c(O)n(-c3ccccc3)c(=O)[n-]c2=O)[n-]c(=O)n1-c1ccccc1[O-] (optimized conformer: 112.25861161133956 kcal/mol)

>  <smiles>  (3403) 
C=c1c(=Cc2c(O)n(-c3ccccc3)c(=O)[nH]c2=O)[nH]c(=O)n1-c1ccccc1O

>  <score_type>  (3403) 
oracle

>  <origin>  (3403) 
adg

>  <m_score__min__energy>  (3403) 
-14.199999999999999

>  <m_primary>  (3403) 
energy

$$$$
72:0
     RDKit          3D

 30 33  0  0  0  0  0  0  0  0999 V2000
   57.7610   25.8390   43.4740 C   0  0  0  0  0  0  0  0  0  0  0  0
   58.0810   26.0830   44.7550 C   0  0  0  0  0  0  0  0  0  0  0  0
   57.7580   25.2790   45.8610 C   0  0  0  0  0  0  0  0  0  0  0  0
   56.9110   24.2380   45.9830 C   0  0  0  0  0  0  0  0  0  0  0  0
   55.4600   24.2800   45.7450 C   0  0  0  0  0  0  0  0  0  0  0  0
   54.7160   23.2290   45.3540 N   0  0  0  0  0  0  0  0  0  0  0  0
   53.4990   23.7730   45.1340 C   0  0  0  0  0  0  0  0  0  0  0  0
   52.5100   23.0910   44.7600 O   0  0  0  0  0  0  0  0  0  0  0  0
   53.4310   25.1070   45.3310 N   0  0  0  0  0  0  0  0  0  0  0  0
   54.6840   25.4120   45.7040 C   0  0  0  0  0  0  0  0  0  0  0  0
   55.1110   26.7020   45.9950 O   0  0  0  0  0  0  0  0  0  0  0  0
   58.4760   25.7840   46.9300 C   0  0  0  0  0  0  0  0  0  0  0  0
   59.1460   26.8970   46.4740 C   0  0  0  0  0  0  0  0  0  0  0  0
   59.9570   27.8040   47.3540 C   0  0  0  0  0  0  0  0  0  0  0  0
   58.9070   27.0910   45.1540 N   0  0  0  0  0  0  0  0  0  0  0  0
   59.4190   28.2180   44.3540 C   0  0  0  0  0  0  0  0  0  0  0  0
   58.4470   29.3680   44.3860 C   0  0  0  0  0  0  0  0  0  0  0  0
   57.1380   29.2000   43.9130 C   0  0  0  0  0  0  0  0  0  0  0  0
   56.2310   30.2600   43.9640 C   0  0  0  0  0  0  0  0  0  0  0  0
   56.6180   31.4920   44.4960 C   0  0  0  0  0  0  0  0  0  0  0  0
   57.9220   31.6780   44.9910 C   0  0  0  0  0  0  0  0  0  0  0  0
   58.3100   32.9940   45.5630 C   0  0  0  0  0  0  0  0  0  0  0  0
   57.8930   34.0460   45.0020 O   0  0  0  0  0  0  0  0  0  0  0  0
   59.1700   33.0940   46.7270 N   0  0  0  0  0  0  0  0  0  0  0  0
   58.6710   32.2440   47.8260 C   0  0  0  0  0  0  0  0  0  0  0  0
   59.5960   32.3570   49.0620 C   0  0  0  0  0  0  0  0  0  0  0  0
   60.5380   33.4080   48.9430 O   0  0  0  0  0  0  0  0  0  0  0  0
   59.8810   34.6060   48.5830 C   0  0  0  0  0  0  0  0  0  0  0  0
   59.2750   34.5010   47.1680 C   0  0  0  0  0  0  0  0  0  0  0  0
   58.8350   30.6090   44.9170 C   0  0  0  0  0  0  0  0  0  0  0  0
  1  2  2  0
  2  3  1  0
  3  4  2  3
  4  5  1  0
  5  6  1  0
  6  7  1  0
  7  8  2  0
  7  9  1  0
  9 10  1  0
 10 11  1  0
  3 12  1  0
 12 13  2  0
 13 14  1  0
 13 15  1  0
 15 16  1  0
 16 17  1  0
 17 18  2  0
 18 19  1  0
 19 20  2  0
 20 21  1  0
 21 22  1  0
 22 23  2  0
 22 24  1  0
 24 25  1  0
 25 26  1  0
 26 27  1  0
 27 28  1  0
 28 29  1  0
 21 30  2  0
 15  2  1  0
 30 17  1  0
 10  5  2  0
 29 24  1  0
M  CHG  4   6  -1   9  -1  11  -1  24   1
M  END
>  <UniqueID>  (3404) 
73

>  <SMILES>  (3404) 
C=c1c(=Cc2[n-]c(=O)[n-]c2[O-])cc(C)n1Cc1cccc(C(=O)[NH+]2CCOCC2)c1

>  <Energy>  (3404) 
137.01264155867366

>  <Genealogy>  (3404) 
C=c1c(=Cc2[n-]c(=O)[n-]c2[O-])cc(C)n1Cc1cccc(C(=O)[NH+]2CCOCC2)c1 (protonated)
C=c1c(=Cc2[n-]c(=O)[n-]c2[O-])cc(C)n1Cc1cccc(C(=O)[NH+]2CCOCC2)c1 (3D coordinates assigned)
C=c1c(=Cc2[n-]c(=O)[n-]c2[O-])cc(C)n1Cc1cccc(C(=O)[NH+]2CCOCC2)c1 (nonaromatic ring conformer: 137.01264155867366 kcal/mol)

>  <smiles>  (3404) 
C=c1c(=Cc2[nH]c(=O)[nH]c2O)cc(C)n1Cc1cccc(C(=O)N2CCOCC2)c1

>  <score_type>  (3404) 
oracle

>  <origin>  (3404) 
adg

>  <m_score__min__energy>  (3404) 
-15.33

>  <m_primary>  (3404) 
energy

$$$$
10:0
     RDKit          3D

 27 29  0  0  0  0  0  0  0  0999 V2000
   54.5800   29.4510   54.5560 C   0  0  0  0  0  0  0  0  0  0  0  0
   55.0850   29.9310   53.4090 C   0  0  0  0  0  0  0  0  0  0  0  0
   54.4520   30.8010   52.5070 C   0  0  0  0  0  0  0  0  0  0  0  0
   53.1730   31.2160   52.4270 C   0  0  0  0  0  0  0  0  0  0  0  0
   52.3620   31.2680   51.2010 C   0  0  0  0  0  0  0  0  0  0  0  0
   52.3580   30.2980   50.2700 N   0  0  0  0  0  0  0  0  0  0  0  0
   51.3980   30.6960   49.4080 C   0  0  0  0  0  0  0  0  0  0  0  0
   51.1040   30.0420   48.3730 O   0  0  0  0  0  0  0  0  0  0  0  0
   50.7710   31.8430   49.7460 N   0  0  0  0  0  0  0  0  0  0  0  0
   51.3810   32.1840   50.8910 C   0  0  0  0  0  0  0  0  0  0  0  0
   51.0300   33.2930   51.6510 O   0  0  0  0  0  0  0  0  0  0  0  0
   55.4290   31.2160   51.6200 C   0  0  0  0  0  0  0  0  0  0  0  0
   56.5890   30.5460   51.9540 C   0  0  0  0  0  0  0  0  0  0  0  0
   57.9080   30.7580   51.2650 C   0  0  0  0  0  0  0  0  0  0  0  0
   58.1310   32.2230   51.0200 C   0  0  0  0  0  0  0  0  0  0  0  0
   57.7810   33.0520   51.9040 O   0  0  0  0  0  0  0  0  0  0  0  0
   58.8190   32.6840   49.8440 N   0  0  0  0  0  0  0  0  0  0  0  0
   58.4700   32.1160   48.5390 C   0  0  0  0  0  0  0  0  0  0  0  0
   58.5720   33.1680   47.4760 C   0  0  0  0  0  0  0  0  0  0  0  0
   57.8280   33.1000   46.4600 O   0  0  0  0  0  0  0  0  0  0  0  0
   59.5320   34.2330   47.6100 N   0  0  0  0  0  0  0  0  0  0  0  0
   59.5960   35.2850   46.5950 C   0  0  0  0  0  0  0  0  0  0  0  0
   60.5200   34.1950   48.6940 C   0  0  0  0  0  0  0  0  0  0  0  0
   59.9380   33.5860   49.9370 C   0  0  0  0  0  0  0  0  0  0  0  0
   60.4820   33.8210   51.0500 O   0  0  0  0  0  0  0  0  0  0  0  0
   56.3790   29.7510   53.0310 N   0  0  0  0  0  0  0  0  0  0  0  0
   57.3940   28.9630   53.7430 C   0  0  0  0  0  0  0  0  0  0  0  0
  1  2  2  0
  2  3  1  0
  3  4  2  3
  4  5  1  0
  5  6  1  0
  6  7  1  0
  7  8  2  0
  7  9  1  0
  9 10  1  0
 10 11  1  0
  3 12  1  0
 12 13  2  0
 13 14  1  0
 14 15  1  0
 15 16  2  0
 15 17  1  0
 17 18  1  0
 18 19  1  0
 19 20  2  0
 19 21  1  0
 21 22  1  0
 21 23  1  0
 23 24  1  0
 24 25  2  0
 13 26  1  0
 26 27  1  0
 26  2  1  0
 10  5  2  0
 24 17  1  0
M  CHG  3   6  -1   9  -1  11  -1
M  END
>  <UniqueID>  (3405) 
11

>  <SMILES>  (3405) 
C=c1c(=Cc2[n-]c(=O)[n-]c2[O-])cc(CC(=O)N2CC(=O)N(C)CC2=O)n1C

>  <Energy>  (3405) 
114.60793565556784

>  <Genealogy>  (3405) 
C=c1c(=Cc2[n-]c(=O)[n-]c2[O-])cc(CC(=O)N2CC(=O)N(C)CC2=O)n1C (protonated)
C=c1c(=Cc2[n-]c(=O)[n-]c2[O-])cc(CC(=O)N2CC(=O)N(C)CC2=O)n1C (3D coordinates assigned)
C=c1c(=Cc2[n-]c(=O)[n-]c2[O-])cc(CC(=O)N2CC(=O)N(C)CC2=O)n1C (nonaromatic ring conformer: 114.60793565556784 kcal/mol)

>  <smiles>  (3405) 
C=c1c(=Cc2[nH]c(=O)[nH]c2O)cc(CC(=O)N2CC(=O)N(C)CC2=O)n1C

>  <score_type>  (3405) 
oracle

>  <origin>  (3405) 
adg

>  <m_score__min__energy>  (3405) 
-16.84

>  <m_primary>  (3405) 
energy

$$$$
14:0
     RDKit          3D

 30 33  0  0  0  0  0  0  0  0999 V2000
   60.0520   30.1350   50.6780 C   0  0  0  0  0  0  0  0  0  0  0  0
   59.8260   29.3550   49.6260 C   0  0  0  0  0  0  0  0  0  0  0  0
   60.6510   28.3450   49.2690 N   0  0  0  0  0  0  0  0  0  0  0  0
   60.0500   27.8380   48.1800 C   0  0  0  0  0  0  0  0  0  0  0  0
   60.5050   26.8650   47.5230 O   0  0  0  0  0  0  0  0  0  0  0  0
   58.8930   28.5300   47.9060 C   0  0  0  0  0  0  0  0  0  0  0  0
   58.0600   28.3090   46.8800 C   0  0  0  0  0  0  0  0  0  0  0  0
   57.5280   29.3870   46.0250 C   0  0  0  0  0  0  0  0  0  0  0  0
   56.3600   29.3350   45.2780 C   0  0  0  0  0  0  0  0  0  0  0  0
   55.5290   28.2250   45.1900 O   0  0  0  0  0  0  0  0  0  0  0  0
   56.1080   30.4960   44.6300 N   0  0  0  0  0  0  0  0  0  0  0  0
   57.1290   31.2980   44.9890 C   0  0  0  0  0  0  0  0  0  0  0  0
   57.3070   32.6260   44.6080 C   0  0  0  0  0  0  0  0  0  0  0  0
   58.4040   33.3260   45.1380 C   0  0  0  0  0  0  0  0  0  0  0  0
   59.2830   32.6990   46.0550 C   0  0  0  0  0  0  0  0  0  0  0  0
   60.6320   33.6060   46.7430 S   0  0  0  0  0  0  0  0  0  0  0  0
   60.3540   33.8180   48.2050 O   0  0  0  0  0  0  0  0  0  0  0  0
   60.6880   34.9600   46.0890 O   0  0  0  0  0  0  0  0  0  0  0  0
   62.1810   32.7970   46.5900 N   0  0  0  0  0  0  0  0  0  0  0  0
   62.2790   31.5110   47.3010 C   0  0  0  0  0  0  0  0  0  0  0  0
   62.5930   31.6840   48.7870 C   0  0  0  0  0  0  0  0  0  0  0  0
   63.7620   32.5520   48.9650 N   0  0  0  0  0  0  0  0  0  0  0  0
   64.6600   32.3150   50.0730 C   0  0  0  0  0  0  0  0  0  0  0  0
   65.5570   33.3910   50.6120 C   0  0  0  0  0  0  0  0  0  0  0  0
   64.7210   31.1700   50.6000 O   0  0  0  0  0  0  0  0  0  0  0  0
   63.7580   33.8410   48.2620 C   0  0  0  0  0  0  0  0  0  0  0  0
   63.3470   33.6770   46.7870 C   0  0  0  0  0  0  0  0  0  0  0  0
   59.0860   31.3490   46.4080 C   0  0  0  0  0  0  0  0  0  0  0  0
   58.0040   30.6710   45.8420 C   0  0  0  0  0  0  0  0  0  0  0  0
   58.7500   29.5060   48.8200 N   0  0  0  0  0  0  0  0  0  0  0  0
  1  2  2  0
  2  3  1  0
  3  4  1  0
  4  5  2  0
  4  6  1  0
  6  7  2  3
  7  8  1  0
  8  9  2  0
  9 10  1  0
  9 11  1  0
 11 12  1  0
 12 13  2  0
 13 14  1  0
 14 15  2  0
 15 16  1  0
 16 17  2  0
 16 18  2  0
 16 19  1  0
 19 20  1  0
 20 21  1  0
 21 22  1  0
 22 23  1  0
 23 24  1  0
 23 25  2  0
 22 26  1  0
 26 27  1  0
 15 28  1  0
 28 29  2  0
  6 30  1  0
 30  2  1  0
 29  8  1  0
 29 12  1  0
 27 19  1  0
M  CHG  4   3  -1  10  -1  11  -1  30  -1
M  END
>  <UniqueID>  (3406) 
15

>  <SMILES>  (3406) 
C=c1[n-]c(=O)c(=Cc2c([O-])[n-]c3ccc(S(=O)(=O)N4CCN(C(C)=O)CC4)cc23)[n-]1

>  <Energy>  (3406) 
120.77061499507101

>  <Genealogy>  (3406) 
C=c1[n-]c(=O)c(=Cc2c([O-])[n-]c3ccc(S(=O)(=O)N4CCN(C(C)=O)CC4)cc23)[n-]1 (protonated)
C=c1[n-]c(=O)c(=Cc2c([O-])[n-]c3ccc(S(=O)(=O)N4CCN(C(C)=O)CC4)cc23)[n-]1 (3D coordinates assigned)
C=c1[n-]c(=O)c(=Cc2c([O-])[n-]c3ccc(S(=O)(=O)N4CCN(C(C)=O)CC4)cc23)[n-]1 (nonaromatic ring conformer: 120.77061499507101 kcal/mol)

>  <smiles>  (3406) 
C=c1[nH]c(=O)c(=Cc2c(O)[nH]c3ccc(S(=O)(=O)N4CCN(C(C)=O)CC4)cc23)[nH]1

>  <score_type>  (3406) 
oracle

>  <origin>  (3406) 
adg

>  <m_score__min__energy>  (3406) 
-17.039999999999999

>  <m_primary>  (3406) 
energy

$$$$
16:0
     RDKit          3D

 32 35  0  0  0  0  0  0  0  0999 V2000
   56.7240   30.2520   43.7690 C   0  0  0  0  0  0  0  0  0  0  0  0
   57.2300   29.6020   44.8190 C   0  0  0  0  0  0  0  0  0  0  0  0
   57.0510   28.2720   44.9970 N   0  0  0  0  0  0  0  0  0  0  0  0
   57.7500   27.9850   46.1170 C   0  0  0  0  0  0  0  0  0  0  0  0
   57.8310   26.7710   46.6770 C   0  0  0  0  0  0  0  0  0  0  0  0
   57.1850   25.5710   46.0960 C   0  0  0  0  0  0  0  0  0  0  0  0
   55.8000   25.5550   45.8280 C   0  0  0  0  0  0  0  0  0  0  0  0
   54.9920   26.6720   46.0490 O   0  0  0  0  0  0  0  0  0  0  0  0
   55.2270   24.4310   45.3250 N   0  0  0  0  0  0  0  0  0  0  0  0
   55.9560   23.3150   45.0770 C   0  0  0  0  0  0  0  0  0  0  0  0
   55.3970   22.2910   44.6060 O   0  0  0  0  0  0  0  0  0  0  0  0
   57.2860   23.2990   45.3410 N   0  0  0  0  0  0  0  0  0  0  0  0
   57.9140   24.3910   45.8480 C   0  0  0  0  0  0  0  0  0  0  0  0
   59.1440   24.3230   46.1130 O   0  0  0  0  0  0  0  0  0  0  0  0
   58.3290   29.1420   46.5910 C   0  0  0  0  0  0  0  0  0  0  0  0
   59.0340   29.2480   47.6320 O   0  0  0  0  0  0  0  0  0  0  0  0
   58.0050   30.1670   45.7820 N   0  0  0  0  0  0  0  0  0  0  0  0
   58.3890   31.5440   45.9470 C   0  0  0  0  0  0  0  0  0  0  0  0
   57.4400   32.5670   45.8070 C   0  0  0  0  0  0  0  0  0  0  0  0
   57.8110   33.9000   45.9900 C   0  0  0  0  0  0  0  0  0  0  0  0
   59.1290   34.2240   46.3180 C   0  0  0  0  0  0  0  0  0  0  0  0
   60.0950   33.2120   46.4620 C   0  0  0  0  0  0  0  0  0  0  0  0
   61.4910   33.5480   46.8260 C   0  0  0  0  0  0  0  0  0  0  0  0
   62.1980   34.2130   46.0200 O   0  0  0  0  0  0  0  0  0  0  0  0
   62.0660   33.1050   48.0680 N   0  0  0  0  0  0  0  0  0  0  0  0
   61.3720   33.3520   49.3380 C   0  0  0  0  0  0  0  0  0  0  0  0
   61.5510   32.1660   50.3120 C   0  0  0  0  0  0  0  0  0  0  0  0
   62.6840   31.2840   49.9480 N   0  0  0  0  0  0  0  0  0  0  0  0
   63.0830   30.4600   51.0990 C   0  0  0  0  0  0  0  0  0  0  0  0
   63.8300   32.0630   49.4480 C   0  0  0  0  0  0  0  0  0  0  0  0
   63.4660   32.6650   48.0880 C   0  0  0  0  0  0  0  0  0  0  0  0
   59.7100   31.8710   46.2890 C   0  0  0  0  0  0  0  0  0  0  0  0
  1  2  2  0
  2  3  1  0
  3  4  1  0
  4  5  2  3
  5  6  1  0
  6  7  2  0
  7  8  1  0
  7  9  1  0
  9 10  1  0
 10 11  2  0
 10 12  1  0
 12 13  1  0
 13 14  2  0
  4 15  1  0
 15 16  2  0
 15 17  1  0
 17 18  1  0
 18 19  2  0
 19 20  1  0
 20 21  2  0
 21 22  1  0
 22 23  1  0
 23 24  2  0
 23 25  1  0
 25 26  1  0
 26 27  1  0
 27 28  1  0
 28 29  1  0
 28 30  1  0
 30 31  1  0
 22 32  2  0
 17  2  1  0
 32 18  1  0
 13  6  1  0
 31 25  1  0
M  CHG  3   3  -1   9  -1  12  -1
M  END
>  <UniqueID>  (3407) 
17

>  <SMILES>  (3407) 
C=c1[n-]c(=Cc2c(O)[n-]c(=O)[n-]c2=O)c(=O)n1-c1cccc(C(=O)N2CCN(C)CC2)c1

>  <Energy>  (3407) 
112.08181109233662

>  <Genealogy>  (3407) 
C=c1[n-]c(=Cc2c(O)[n-]c(=O)[n-]c2=O)c(=O)n1-c1cccc(C(=O)N2CCN(C)CC2)c1 (protonated)
C=c1[n-]c(=Cc2c(O)[n-]c(=O)[n-]c2=O)c(=O)n1-c1cccc(C(=O)N2CCN(C)CC2)c1 (3D coordinates assigned)
C=c1[n-]c(=Cc2c(O)[n-]c(=O)[n-]c2=O)c(=O)n1-c1cccc(C(=O)N2CCN(C)CC2)c1 (nonaromatic ring conformer: 112.08181109233662 kcal/mol)

>  <smiles>  (3407) 
C=c1[nH]c(=Cc2c(O)[nH]c(=O)[nH]c2=O)c(=O)n1-c1cccc(C(=O)N2CCN(C)CC2)c1

>  <score_type>  (3407) 
oracle

>  <origin>  (3407) 
adg

>  <m_score__min__energy>  (3407) 
-15.07

>  <m_primary>  (3407) 
energy

$$$$
37:0
     RDKit          3D

 21 22  0  0  0  0  0  0  0  0999 V2000
   59.9930   36.3490   46.0360 N   0  0  0  0  0  0  0  0  0  0  0  0
   60.1760   34.8130   46.8070 S   0  0  0  0  0  0  0  0  0  0  0  0
   59.8080   34.9310   48.2600 O   0  0  0  0  0  0  0  0  0  0  0  0
   61.6110   34.3800   46.6880 O   0  0  0  0  0  0  0  0  0  0  0  0
   59.1260   33.6300   46.0340 C   0  0  0  0  0  0  0  0  0  0  0  0
   58.6160   33.8770   44.7530 C   0  0  0  0  0  0  0  0  0  0  0  0
   57.7770   32.9430   44.1380 C   0  0  0  0  0  0  0  0  0  0  0  0
   57.4210   31.7620   44.8010 C   0  0  0  0  0  0  0  0  0  0  0  0
   56.5730   30.8230   44.1250 N   0  0  0  0  0  0  0  0  0  0  0  0
   56.2120   29.5140   44.5830 C   0  0  0  0  0  0  0  0  0  0  0  0
   55.1360   29.3230   45.2100 O   0  0  0  0  0  0  0  0  0  0  0  0
   57.0660   28.3460   44.2100 C   0  0  0  0  0  0  0  0  0  0  0  0
   57.3630   27.5470   45.3980 N   0  0  0  0  0  0  0  0  0  0  0  0
   56.5110   26.7990   46.1170 C   0  0  0  0  0  0  0  0  0  0  0  0
   55.1450   26.7050   45.8800 O   0  0  0  0  0  0  0  0  0  0  0  0
   57.2050   26.1410   47.1060 C   0  0  0  0  0  0  0  0  0  0  0  0
   58.5140   26.4600   47.0100 N   0  0  0  0  0  0  0  0  0  0  0  0
   58.5660   27.3080   45.9590 C   0  0  0  0  0  0  0  0  0  0  0  0
   59.6410   27.8160   45.5430 O   0  0  0  0  0  0  0  0  0  0  0  0
   57.9490   31.5080   46.0810 C   0  0  0  0  0  0  0  0  0  0  0  0
   58.7890   32.4430   46.6950 C   0  0  0  0  0  0  0  0  0  0  0  0
  1  2  1  0
  2  3  2  0
  2  4  2  0
  2  5  1  0
  5  6  2  0
  6  7  1  0
  7  8  2  0
  8  9  1  0
  9 10  1  0
 10 11  2  0
 10 12  1  0
 12 13  1  0
 13 14  1  0
 14 15  1  0
 14 16  2  0
 16 17  1  0
 17 18  1  0
 18 19  2  0
  8 20  1  0
 20 21  2  0
 21  5  1  0
 18 13  1  0
M  CHG  4   1  -1   9  -1  15  -1  17  -1
M  END
>  <UniqueID>  (3408) 
37

>  <SMILES>  (3408) 
[NH-]S(=O)(=O)c1ccc([N-]C(=O)Cn2c([O-])c[n-]c2=O)cc1

>  <Energy>  (3408) 
62.87834397141781

>  <Genealogy>  (3408) 
[NH-]S(=O)(=O)c1ccc([N-]C(=O)Cn2c([O-])c[n-]c2=O)cc1 (protonated)
[NH-]S(=O)(=O)c1ccc([N-]C(=O)Cn2c([O-])c[n-]c2=O)cc1 (3D coordinates assigned)
[NH-]S(=O)(=O)c1ccc([N-]C(=O)Cn2c([O-])c[n-]c2=O)cc1 (optimized conformer: 62.87834397141781 kcal/mol)

>  <smiles>  (3408) 
NS(=O)(=O)c1ccc(NC(=O)Cn2c(O)c[nH]c2=O)cc1

>  <score_type>  (3408) 
oracle

>  <origin>  (3408) 
adg

>  <m_score__min__energy>  (3408) 
-14.77

>  <m_primary>  (3408) 
energy

$$$$
38:0
     RDKit          3D

 27 29  0  0  0  0  0  0  0  0999 V2000
   54.9960   26.2750   45.7240 O   0  0  0  0  0  0  0  0  0  0  0  0
   54.4400   25.0430   45.3890 C   0  0  0  0  0  0  0  0  0  0  0  0
   53.2670   24.5950   45.8680 N   0  0  0  0  0  0  0  0  0  0  0  0
   53.1860   23.3570   45.3390 C   0  0  0  0  0  0  0  0  0  0  0  0
   52.2250   22.5790   45.5780 O   0  0  0  0  0  0  0  0  0  0  0  0
   54.2310   23.0050   44.5580 N   0  0  0  0  0  0  0  0  0  0  0  0
   55.0150   24.1020   44.5690 C   0  0  0  0  0  0  0  0  0  0  0  0
   56.3690   24.1900   43.9810 C   0  0  0  0  0  0  0  0  0  0  0  0
   57.4710   24.6830   44.5850 C   0  0  0  0  0  0  0  0  0  0  0  0
   57.8150   26.0420   44.4230 C   0  0  0  0  0  0  0  0  0  0  0  0
   58.8720   26.4560   45.2270 C   0  0  0  0  0  0  0  0  0  0  0  0
   59.4030   27.8530   45.3210 C   0  0  0  0  0  0  0  0  0  0  0  0
   58.6310   28.6580   46.3670 C   0  0  0  0  0  0  0  0  0  0  0  0
   57.2010   28.5660   46.0960 N   0  0  0  0  0  0  0  0  0  0  0  0
   56.5120   29.4860   45.2460 C   0  0  0  0  0  0  0  0  0  0  0  0
   55.3130   29.2720   44.9190 O   0  0  0  0  0  0  0  0  0  0  0  0
   57.1880   30.6220   44.7820 O   0  0  0  0  0  0  0  0  0  0  0  0
   56.6380   31.9390   44.8400 C   0  0  0  0  0  0  0  0  0  0  0  0
   57.6280   32.8940   45.4500 C   0  0  0  0  0  0  0  0  0  0  0  0
   57.7930   32.9350   46.8440 C   0  0  0  0  0  0  0  0  0  0  0  0
   58.7240   33.8070   47.4180 C   0  0  0  0  0  0  0  0  0  0  0  0
   59.4940   34.6440   46.6050 C   0  0  0  0  0  0  0  0  0  0  0  0
   59.3350   34.6110   45.2180 C   0  0  0  0  0  0  0  0  0  0  0  0
   58.4050   33.7390   44.6390 C   0  0  0  0  0  0  0  0  0  0  0  0
   59.4440   25.1410   46.0980 S   0  0  0  0  0  0  0  0  0  0  0  0
   58.3640   24.0130   45.4600 C   0  0  0  0  0  0  0  0  0  0  0  0
   58.5250   22.6970   45.6440 C   0  0  0  0  0  0  0  0  0  0  0  0
  1  2  1  0
  2  3  1  0
  3  4  1  0
  4  5  2  0
  4  6  1  0
  6  7  1  0
  7  8  1  0
  8  9  2  0
  9 10  1  0
 10 11  2  0
 11 12  1  0
 12 13  1  0
 13 14  1  0
 14 15  1  0
 15 16  2  0
 15 17  1  0
 17 18  1  0
 18 19  1  0
 19 20  2  0
 20 21  1  0
 21 22  2  0
 22 23  1  0
 23 24  2  0
 11 25  1  0
 25 26  1  0
 26 27  2  0
  7  2  2  0
 26  9  1  0
 24 19  1  0
M  CHG  3   3  -1   6  -1  14  -1
M  END
>  <UniqueID>  (3409) 
38

>  <SMILES>  (3409) 
C=c1sc(CC[N-]C(=O)OCc2ccccc2)c/c1=C/c1[n-]c(=O)[n-]c1O

>  <Energy>  (3409) 
106.24041626645078

>  <Genealogy>  (3409) 
C=c1sc(CC[N-]C(=O)OCc2ccccc2)cc1=Cc1[n-]c(=O)[n-]c1O (protonated)
C=c1sc(CC[N-]C(=O)OCc2ccccc2)c/c1=C/c1[n-]c(=O)[n-]c1O (cis-trans isomerization)
C=c1sc(CC[N-]C(=O)OCc2ccccc2)c/c1=C/c1[n-]c(=O)[n-]c1O (3D coordinates assigned)
C=c1sc(CC[N-]C(=O)OCc2ccccc2)c/c1=C/c1[n-]c(=O)[n-]c1O (optimized conformer: 106.24041626645078 kcal/mol)

>  <smiles>  (3409) 
C=c1sc(CCNC(=O)OCc2ccccc2)cc1=Cc1[nH]c(=O)[nH]c1O

>  <score_type>  (3409) 
oracle

>  <origin>  (3409) 
adg

>  <m_score__min__energy>  (3409) 
-14.539999999999999

>  <m_primary>  (3409) 
energy

$$$$
47:0
     RDKit          3D

 27 30  0  0  0  0  0  0  0  0999 V2000
   54.4740   28.2230   53.1680 C   0  0  0  0  0  0  0  0  0  0  0  0
   54.8650   29.3970   52.6440 C   0  0  0  0  0  0  0  0  0  0  0  0
   54.0310   30.4580   52.2560 C   0  0  0  0  0  0  0  0  0  0  0  0
   52.6940   30.5250   52.1030 C   0  0  0  0  0  0  0  0  0  0  0  0
   51.9880   30.9300   50.8790 C   0  0  0  0  0  0  0  0  0  0  0  0
   51.8550   30.1370   49.8000 N   0  0  0  0  0  0  0  0  0  0  0  0
   51.0460   30.8500   48.9860 C   0  0  0  0  0  0  0  0  0  0  0  0
   50.6960   30.4380   47.8500 O   0  0  0  0  0  0  0  0  0  0  0  0
   50.6330   32.0320   49.4900 N   0  0  0  0  0  0  0  0  0  0  0  0
   51.2250   32.0620   50.6940 C   0  0  0  0  0  0  0  0  0  0  0  0
   51.0490   33.0870   51.6160 O   0  0  0  0  0  0  0  0  0  0  0  0
   54.8620   31.5380   52.0260 C   0  0  0  0  0  0  0  0  0  0  0  0
   56.1560   31.0980   52.2100 C   0  0  0  0  0  0  0  0  0  0  0  0
   57.3460   31.9590   52.0460 C   0  0  0  0  0  0  0  0  0  0  0  0
   57.3210   33.1350   52.4980 O   0  0  0  0  0  0  0  0  0  0  0  0
   58.5410   31.4590   51.4170 N   0  0  0  0  0  0  0  0  0  0  0  0
   58.4370   30.4720   50.3310 C   0  0  0  0  0  0  0  0  0  0  0  0
   59.7740   30.3110   49.5980 C   0  0  0  0  0  0  0  0  0  0  0  0
   60.8870   30.1170   50.5480 N   0  0  0  0  0  0  0  0  0  0  0  0
   61.3770   28.7440   50.8270 C   0  0  0  0  0  0  0  0  0  0  0  0
   60.4070   27.8670   51.6170 C   0  0  0  0  0  0  0  0  0  0  0  0
   60.6850   27.5520   50.1600 C   0  0  0  0  0  0  0  0  0  0  0  0
   60.9510   31.0450   51.7020 C   0  0  0  0  0  0  0  0  0  0  0  0
   59.8350   32.0970   51.6900 C   0  0  0  0  0  0  0  0  0  0  0  0
   56.1680   29.7880   52.5600 N   0  0  0  0  0  0  0  0  0  0  0  0
   57.3540   29.0170   52.9680 C   0  0  0  0  0  0  0  0  0  0  0  0
   57.8580   29.4920   54.3260 C   0  0  0  0  0  0  0  0  0  0  0  0
  1  2  2  0
  2  3  1  0
  3  4  2  3
  4  5  1  0
  5  6  1  0
  6  7  1  0
  7  8  2  0
  7  9  1  0
  9 10  1  0
 10 11  1  0
  3 12  1  0
 12 13  2  0
 13 14  1  0
 14 15  2  0
 14 16  1  0
 16 17  1  0
 17 18  1  0
 18 19  1  0
 19 20  1  0
 20 21  1  0
 21 22  1  0
 19 23  1  0
 23 24  1  0
 13 25  1  0
 25 26  1  0
 26 27  1  0
 25  2  1  0
 10  5  2  0
 24 16  1  0
 22 20  1  0
M  CHG  3   6  -1   9  -1  11  -1
M  END
>  <UniqueID>  (3410) 
47

>  <SMILES>  (3410) 
C=c1c(=Cc2[n-]c(=O)[n-]c2[O-])cc(C(=O)N2CCN(C3CC3)CC2)n1CC

>  <Energy>  (3410) 
405.9463920242799

>  <Genealogy>  (3410) 
C=c1c(=Cc2[n-]c(=O)[n-]c2[O-])cc(C(=O)N2CCN(C3CC3)CC2)n1CC (protonated)
C=c1c(=Cc2[n-]c(=O)[n-]c2[O-])cc(C(=O)N2CCN(C3CC3)CC2)n1CC (3D coordinates assigned)
C=c1c(=Cc2[n-]c(=O)[n-]c2[O-])cc(C(=O)N2CCN(C3CC3)CC2)n1CC (nonaromatic ring conformer: 405.9463920242799 kcal/mol)

>  <smiles>  (3410) 
C=c1c(=Cc2[nH]c(=O)[nH]c2O)cc(C(=O)N2CCN(C3CC3)CC2)n1CC

>  <score_type>  (3410) 
oracle

>  <origin>  (3410) 
adg

>  <m_score__min__energy>  (3410) 
-16.289999999999999

>  <m_primary>  (3410) 
energy

$$$$
48:0
     RDKit          3D

 33 36  0  0  0  0  0  0  0  0999 V2000
   58.7010   29.6640   47.0480 C   0  0  0  0  0  0  0  0  0  0  0  0
   58.0770   30.4560   46.1620 C   0  0  0  0  0  0  0  0  0  0  0  0
   57.2020   30.0650   45.1350 C   0  0  0  0  0  0  0  0  0  0  0  0
   56.6320   28.8760   44.8620 C   0  0  0  0  0  0  0  0  0  0  0  0
   57.0320   27.5810   45.4320 C   0  0  0  0  0  0  0  0  0  0  0  0
   58.3100   27.2140   45.6790 N   0  0  0  0  0  0  0  0  0  0  0  0
   58.1830   26.0360   46.3300 C   0  0  0  0  0  0  0  0  0  0  0  0
   59.1730   25.3720   46.7390 O   0  0  0  0  0  0  0  0  0  0  0  0
   56.9030   25.6540   46.5140 N   0  0  0  0  0  0  0  0  0  0  0  0
   56.4120   24.5000   47.2620 C   0  0  0  0  0  0  0  0  0  0  0  0
   56.1790   26.6470   45.9770 C   0  0  0  0  0  0  0  0  0  0  0  0
   54.7900   26.7140   45.9960 O   0  0  0  0  0  0  0  0  0  0  0  0
   56.9660   31.1990   44.3740 C   0  0  0  0  0  0  0  0  0  0  0  0
   57.6410   32.2370   44.9810 C   0  0  0  0  0  0  0  0  0  0  0  0
   57.6500   33.6550   44.4960 C   0  0  0  0  0  0  0  0  0  0  0  0
   58.3090   31.7900   46.0650 N   0  0  0  0  0  0  0  0  0  0  0  0
   59.1620   32.5900   46.9000 C   0  0  0  0  0  0  0  0  0  0  0  0
   60.1200   33.4390   46.3280 C   0  0  0  0  0  0  0  0  0  0  0  0
   60.9370   34.2260   47.1440 C   0  0  0  0  0  0  0  0  0  0  0  0
   60.8110   34.1620   48.5350 C   0  0  0  0  0  0  0  0  0  0  0  0
   59.8730   33.2950   49.1150 C   0  0  0  0  0  0  0  0  0  0  0  0
   59.7270   33.2070   50.5800 C   0  0  0  0  0  0  0  0  0  0  0  0
   58.9170   34.0040   51.1290 O   0  0  0  0  0  0  0  0  0  0  0  0
   60.4910   32.2820   51.4110 N   0  0  0  0  0  0  0  0  0  0  0  0
   60.4080   30.8550   51.0360 C   0  0  0  0  0  0  0  0  0  0  0  0
   59.0080   30.2460   51.2310 C   0  0  0  0  0  0  0  0  0  0  0  0
   58.2430   30.8130   52.3560 N   0  0  0  0  0  0  0  0  0  0  0  0
   56.9470   30.2330   52.6400 C   0  0  0  0  0  0  0  0  0  0  0  0
   56.0350   30.8060   53.6860 C   0  0  0  0  0  0  0  0  0  0  0  0
   56.5610   29.2120   52.0060 O   0  0  0  0  0  0  0  0  0  0  0  0
   58.6630   32.0240   53.0850 C   0  0  0  0  0  0  0  0  0  0  0  0
   60.1250   32.4090   52.8330 C   0  0  0  0  0  0  0  0  0  0  0  0
   59.0320   32.5310   48.2930 C   0  0  0  0  0  0  0  0  0  0  0  0
  1  2  2  0
  2  3  1  0
  3  4  2  3
  4  5  1  0
  5  6  1  0
  6  7  1  0
  7  8  2  0
  7  9  1  0
  9 10  1  0
  9 11  1  0
 11 12  1  0
  3 13  1  0
 13 14  2  0
 14 15  1  0
 14 16  1  0
 16 17  1  0
 17 18  2  0
 18 19  1  0
 19 20  2  0
 20 21  1  0
 21 22  1  0
 22 23  2  0
 22 24  1  0
 24 25  1  0
 25 26  1  0
 26 27  1  0
 27 28  1  0
 28 29  1  0
 28 30  2  0
 27 31  1  0
 31 32  1  0
 21 33  2  0
 16  2  1  0
 33 17  1  0
 11  5  2  0
 32 24  1  0
M  CHG  3   6  -1  12  -1  24   1
M  END
>  <UniqueID>  (3411) 
48

>  <SMILES>  (3411) 
C=c1c(=Cc2[n-]c(=O)n(C)c2[O-])cc(C)n1-c1cccc(C(=O)[NH+]2CCN(C(C)=O)CC2)c1

>  <Energy>  (3411) 
153.07261955633388

>  <Genealogy>  (3411) 
C=c1c(=Cc2[n-]c(=O)n(C)c2[O-])cc(C)n1-c1cccc(C(=O)[NH+]2CCN(C(C)=O)CC2)c1 (protonated)
C=c1c(=Cc2[n-]c(=O)n(C)c2[O-])cc(C)n1-c1cccc(C(=O)[NH+]2CCN(C(C)=O)CC2)c1 (3D coordinates assigned)
C=c1c(=Cc2[n-]c(=O)n(C)c2[O-])cc(C)n1-c1cccc(C(=O)[NH+]2CCN(C(C)=O)CC2)c1 (nonaromatic ring conformer: 153.07261955633388 kcal/mol)

>  <smiles>  (3411) 
C=c1c(=Cc2[nH]c(=O)n(C)c2O)cc(C)n1-c1cccc(C(=O)N2CCN(C(C)=O)CC2)c1

>  <score_type>  (3411) 
oracle

>  <origin>  (3411) 
adg

>  <m_score__min__energy>  (3411) 
-14.039999999999999

>  <m_primary>  (3411) 
energy

$$$$
57:0
     RDKit          3D

 31 34  0  0  0  0  0  0  0  0999 V2000
   51.6700   28.2910   52.7650 C   0  0  0  0  0  0  0  0  0  0  0  0
   52.9430   28.6420   52.9680 C   0  0  0  0  0  0  0  0  0  0  0  0
   53.8510   27.7780   53.3570 O   0  0  0  0  0  0  0  0  0  0  0  0
   55.0020   28.3930   53.4820 C   0  0  0  0  0  0  0  0  0  0  0  0
   54.8680   29.7300   53.1510 C   0  0  0  0  0  0  0  0  0  0  0  0
   55.9140   30.7560   53.5110 C   0  0  0  0  0  0  0  0  0  0  0  0
   57.0200   30.7490   52.4910 C   0  0  0  0  0  0  0  0  0  0  0  0
   56.9590   31.5890   51.3680 C   0  0  0  0  0  0  0  0  0  0  0  0
   57.9710   31.5560   50.4070 C   0  0  0  0  0  0  0  0  0  0  0  0
   59.0540   30.6790   50.5400 C   0  0  0  0  0  0  0  0  0  0  0  0
   60.0360   30.6860   49.5350 O   0  0  0  0  0  0  0  0  0  0  0  0
   61.2450   29.9260   49.5450 C   0  0  0  0  0  0  0  0  0  0  0  0
   62.4420   30.7770   50.0140 C   0  0  0  0  0  0  0  0  0  0  0  0
   62.2880   32.2180   49.6760 N   0  0  0  0  0  0  0  0  0  0  0  0
   62.6670   33.0840   50.8140 C   0  0  0  0  0  0  0  0  0  0  0  0
   64.1780   33.0090   51.1360 C   0  0  0  0  0  0  0  0  0  0  0  0
   64.9730   32.5570   49.9750 N   0  0  0  0  0  0  0  0  0  0  0  0
   66.3900   32.9030   50.1560 C   0  0  0  0  0  0  0  0  0  0  0  0
   64.4530   33.1360   48.7280 C   0  0  0  0  0  0  0  0  0  0  0  0
   63.0350   32.5980   48.4440 C   0  0  0  0  0  0  0  0  0  0  0  0
   59.1070   29.8230   51.6570 C   0  0  0  0  0  0  0  0  0  0  0  0
   58.1000   29.8620   52.6240 C   0  0  0  0  0  0  0  0  0  0  0  0
   53.5200   29.9050   52.8050 C   0  0  0  0  0  0  0  0  0  0  0  0
   52.8710   31.0260   52.4200 C   0  0  0  0  0  0  0  0  0  0  0  0
   52.0290   31.1480   51.2210 C   0  0  0  0  0  0  0  0  0  0  0  0
   52.0650   30.2830   50.1940 N   0  0  0  0  0  0  0  0  0  0  0  0
   51.2600   30.8580   49.2730 C   0  0  0  0  0  0  0  0  0  0  0  0
   51.0200   30.3290   48.1580 O   0  0  0  0  0  0  0  0  0  0  0  0
   50.7410   32.0500   49.6370 N   0  0  0  0  0  0  0  0  0  0  0  0
   51.2530   32.2290   50.8650 C   0  0  0  0  0  0  0  0  0  0  0  0
   51.0320   33.3620   51.6350 O   0  0  0  0  0  0  0  0  0  0  0  0
  1  2  2  0
  2  3  1  0
  3  4  1  0
  4  5  2  0
  5  6  1  0
  6  7  1  0
  7  8  2  0
  8  9  1  0
  9 10  2  0
 10 11  1  0
 11 12  1  0
 12 13  1  0
 13 14  1  0
 14 15  1  0
 15 16  1  0
 16 17  1  0
 17 18  1  0
 17 19  1  0
 19 20  1  0
 10 21  1  0
 21 22  2  0
  5 23  1  0
 23 24  2  0
 24 25  1  0
 25 26  1  0
 26 27  1  0
 27 28  2  0
 27 29  1  0
 29 30  1  0
 30 31  1  0
 23  2  1  0
 30 25  2  0
 22  7  1  0
 20 14  1  0
M  CHG  4  14   1  26  -1  29  -1  31  -1
M  END
>  <UniqueID>  (3412) 
57

>  <SMILES>  (3412) 
C=c1occ(Cc2ccc(OCC[NH+]3CCN(C)CC3)cc2)/c1=C\c1[n-]c(=O)[n-]c1[O-]

>  <Energy>  (3412) 
139.75724462740553

>  <Genealogy>  (3412) 
C=c1occ(Cc2ccc(OCC[NH+]3CCN(C)CC3)cc2)c1=Cc1[n-]c(=O)[n-]c1[O-] (protonated)
C=c1occ(Cc2ccc(OCC[NH+]3CCN(C)CC3)cc2)/c1=C\c1[n-]c(=O)[n-]c1[O-] (cis-trans isomerization)
C=c1occ(Cc2ccc(OCC[NH+]3CCN(C)CC3)cc2)/c1=C\c1[n-]c(=O)[n-]c1[O-] (3D coordinates assigned)
C=c1occ(Cc2ccc(OCC[NH+]3CCN(C)CC3)cc2)/c1=C\c1[n-]c(=O)[n-]c1[O-] (nonaromatic ring conformer: 139.75724462740553 kcal/mol)

>  <smiles>  (3412) 
C=c1occ(Cc2ccc(OCCN3CCN(C)CC3)cc2)c1=Cc1[nH]c(=O)[nH]c1O

>  <score_type>  (3412) 
oracle

>  <origin>  (3412) 
adg

>  <m_score__min__energy>  (3412) 
-15.66

>  <m_primary>  (3412) 
energy

$$$$
66:0
     RDKit          3D

 26 28  0  0  0  0  0  0  0  0999 V2000
   55.5140   30.0910   43.4970 C   0  0  0  0  0  0  0  0  0  0  0  0
   56.4410   29.7630   44.3980 C   0  0  0  0  0  0  0  0  0  0  0  0
   56.3220   28.6710   45.1890 N   0  0  0  0  0  0  0  0  0  0  0  0
   57.4350   28.6750   45.9520 C   0  0  0  0  0  0  0  0  0  0  0  0
   57.6920   27.7190   46.8580 C   0  0  0  0  0  0  0  0  0  0  0  0
   57.2250   26.3270   46.7620 C   0  0  0  0  0  0  0  0  0  0  0  0
   58.0340   25.2590   46.9240 N   0  0  0  0  0  0  0  0  0  0  0  0
   57.2290   24.2040   46.6640 C   0  0  0  0  0  0  0  0  0  0  0  0
   57.6260   23.0110   46.7270 O   0  0  0  0  0  0  0  0  0  0  0  0
   55.9710   24.5530   46.3220 N   0  0  0  0  0  0  0  0  0  0  0  0
   54.8510   23.6700   45.9900 C   0  0  0  0  0  0  0  0  0  0  0  0
   54.2260   24.0500   44.6320 C   0  0  0  0  0  0  0  0  0  0  0  0
   54.9330   23.3400   43.4700 C   0  0  0  0  0  0  0  0  0  0  0  0
   52.7310   23.7130   44.6260 C   0  0  0  0  0  0  0  0  0  0  0  0
   55.9730   25.8950   46.3700 C   0  0  0  0  0  0  0  0  0  0  0  0
   54.8900   26.6990   46.0350 O   0  0  0  0  0  0  0  0  0  0  0  0
   58.2140   29.7620   45.5880 C   0  0  0  0  0  0  0  0  0  0  0  0
   59.3570   30.0500   46.0330 O   0  0  0  0  0  0  0  0  0  0  0  0
   57.5850   30.4570   44.6230 N   0  0  0  0  0  0  0  0  0  0  0  0
   58.1010   31.6360   43.9160 C   0  0  0  0  0  0  0  0  0  0  0  0
   58.3740   32.7540   44.8870 C   0  0  0  0  0  0  0  0  0  0  0  0
   59.1800   33.8390   44.5050 C   0  0  0  0  0  0  0  0  0  0  0  0
   59.4250   34.8860   45.3980 C   0  0  0  0  0  0  0  0  0  0  0  0
   58.8680   34.8580   46.6790 C   0  0  0  0  0  0  0  0  0  0  0  0
   58.0680   33.7820   47.0700 C   0  0  0  0  0  0  0  0  0  0  0  0
   57.8200   32.7320   46.1790 C   0  0  0  0  0  0  0  0  0  0  0  0
  1  2  2  0
  2  3  1  0
  3  4  1  0
  4  5  2  0
  5  6  1  0
  6  7  1  0
  7  8  1  0
  8  9  2  0
  8 10  1  0
 10 11  1  0
 11 12  1  0
 12 13  1  0
 12 14  1  0
 10 15  1  0
 15 16  1  0
  4 17  1  0
 17 18  2  0
 17 19  1  0
 19 20  1  0
 20 21  1  0
 21 22  2  0
 22 23  1  0
 23 24  2  0
 24 25  1  0
 25 26  2  0
 19  2  1  0
 26 21  1  0
 15  6  2  0
M  CHG  3   3  -1   7  -1  16  -1
M  END
>  <UniqueID>  (3413) 
66

>  <SMILES>  (3413) 
C=c1[n-]/c(=C/c2[n-]c(=O)n(CC(C)C)c2[O-])c(=O)n1Cc1ccccc1

>  <Energy>  (3413) 
111.56071326090988

>  <Genealogy>  (3413) 
C=c1[n-]c(=Cc2[n-]c(=O)n(CC(C)C)c2[O-])c(=O)n1Cc1ccccc1 (protonated)
C=c1[n-]/c(=C/c2[n-]c(=O)n(CC(C)C)c2[O-])c(=O)n1Cc1ccccc1 (cis-trans isomerization)
C=c1[n-]/c(=C/c2[n-]c(=O)n(CC(C)C)c2[O-])c(=O)n1Cc1ccccc1 (3D coordinates assigned)
C=c1[n-]/c(=C/c2[n-]c(=O)n(CC(C)C)c2[O-])c(=O)n1Cc1ccccc1 (optimized conformer: 111.56071326090988 kcal/mol)

>  <smiles>  (3413) 
C=c1[nH]c(=Cc2[nH]c(=O)n(CC(C)C)c2O)c(=O)n1Cc1ccccc1

>  <score_type>  (3413) 
oracle

>  <origin>  (3413) 
adg

>  <m_score__min__energy>  (3413) 
-15.279999999999999

>  <m_primary>  (3413) 
energy

$$$$
71:0
     RDKit          3D

 24 26  0  0  0  0  0  0  0  0999 V2000
   60.7570   30.1940   47.4560 C   0  0  0  0  0  0  0  0  0  0  0  0
   59.6280   29.9740   46.7750 C   0  0  0  0  0  0  0  0  0  0  0  0
   59.1320   28.7340   46.5620 N   0  0  0  0  0  0  0  0  0  0  0  0
   58.0360   28.9110   45.7920 C   0  0  0  0  0  0  0  0  0  0  0  0
   57.2480   27.9350   45.3140 C   0  0  0  0  0  0  0  0  0  0  0  0
   57.1920   26.5750   45.8920 C   0  0  0  0  0  0  0  0  0  0  0  0
   55.9560   26.0120   46.2460 C   0  0  0  0  0  0  0  0  0  0  0  0
   54.7730   26.7080   46.0280 O   0  0  0  0  0  0  0  0  0  0  0  0
   55.9080   24.7720   46.7990 N   0  0  0  0  0  0  0  0  0  0  0  0
   57.0410   24.0630   47.0320 C   0  0  0  0  0  0  0  0  0  0  0  0
   56.9710   22.9150   47.5400 O   0  0  0  0  0  0  0  0  0  0  0  0
   58.2510   24.5950   46.7240 N   0  0  0  0  0  0  0  0  0  0  0  0
   58.3550   25.8320   46.1710 C   0  0  0  0  0  0  0  0  0  0  0  0
   59.4970   26.3080   45.9330 O   0  0  0  0  0  0  0  0  0  0  0  0
   57.8940   30.2620   45.5520 C   0  0  0  0  0  0  0  0  0  0  0  0
   56.9780   30.8030   44.8750 O   0  0  0  0  0  0  0  0  0  0  0  0
   58.8820   30.9380   46.1730 N   0  0  0  0  0  0  0  0  0  0  0  0
   59.0670   32.3650   46.1850 C   0  0  0  0  0  0  0  0  0  0  0  0
   59.4970   33.0130   47.3540 C   0  0  0  0  0  0  0  0  0  0  0  0
   59.6930   34.3970   47.3630 C   0  0  0  0  0  0  0  0  0  0  0  0
   59.4680   35.1440   46.2030 C   0  0  0  0  0  0  0  0  0  0  0  0
   59.6600   36.4860   46.2110 F   0  0  0  0  0  0  0  0  0  0  0  0
   59.0500   34.5050   45.0310 C   0  0  0  0  0  0  0  0  0  0  0  0
   58.8530   33.1200   45.0200 C   0  0  0  0  0  0  0  0  0  0  0  0
  1  2  2  0
  2  3  1  0
  3  4  1  0
  4  5  2  3
  5  6  1  0
  6  7  2  0
  7  8  1  0
  7  9  1  0
  9 10  1  0
 10 11  2  0
 10 12  1  0
 12 13  1  0
 13 14  2  0
  4 15  1  0
 15 16  2  0
 15 17  1  0
 17 18  1  0
 18 19  2  0
 19 20  1  0
 20 21  2  0
 21 22  1  0
 21 23  1  0
 23 24  2  0
 17  2  1  0
 24 18  1  0
 13  6  1  0
M  CHG  3   8  -1   9  -1  12  -1
M  END
>  <UniqueID>  (3414) 
71

>  <SMILES>  (3414) 
C=c1[nH]c(=Cc2c([O-])[n-]c(=O)[n-]c2=O)c(=O)n1-c1ccc(F)cc1

>  <Energy>  (3414) 
85.0580459808835

>  <Genealogy>  (3414) 
C=c1[nH]c(=Cc2c([O-])[n-]c(=O)[n-]c2=O)c(=O)n1-c1ccc(F)cc1 (protonated)
C=c1[nH]c(=Cc2c([O-])[n-]c(=O)[n-]c2=O)c(=O)n1-c1ccc(F)cc1 (3D coordinates assigned)
C=c1[nH]c(=Cc2c([O-])[n-]c(=O)[n-]c2=O)c(=O)n1-c1ccc(F)cc1 (optimized conformer: 85.0580459808835 kcal/mol)

>  <smiles>  (3414) 
C=c1[nH]c(=Cc2c(O)[nH]c(=O)[nH]c2=O)c(=O)n1-c1ccc(F)cc1

>  <score_type>  (3414) 
oracle

>  <origin>  (3414) 
adg

>  <m_score__min__energy>  (3414) 
-15.25

>  <m_primary>  (3414) 
energy

$$$$
72:0
     RDKit          3D

 34 37  0  0  0  0  0  0  0  0999 V2000
   53.2600   28.3560   53.9630 C   0  0  0  0  0  0  0  0  0  0  0  0
   54.2090   29.1330   53.4190 C   0  0  0  0  0  0  0  0  0  0  0  0
   54.0170   30.3900   52.8370 C   0  0  0  0  0  0  0  0  0  0  0  0
   52.8630   31.0800   52.7460 C   0  0  0  0  0  0  0  0  0  0  0  0
   52.0540   31.1750   51.5170 C   0  0  0  0  0  0  0  0  0  0  0  0
   52.2300   30.3720   50.4550 N   0  0  0  0  0  0  0  0  0  0  0  0
   51.3560   30.8550   49.5450 C   0  0  0  0  0  0  0  0  0  0  0  0
   51.2140   30.3470   48.4030 O   0  0  0  0  0  0  0  0  0  0  0  0
   50.6510   31.9320   49.9530 N   0  0  0  0  0  0  0  0  0  0  0  0
   51.1130   32.1320   51.1990 C   0  0  0  0  0  0  0  0  0  0  0  0
   50.7170   33.1920   52.0030 O   0  0  0  0  0  0  0  0  0  0  0  0
   55.2690   30.8250   52.4270 C   0  0  0  0  0  0  0  0  0  0  0  0
   56.1630   29.8240   52.7540 C   0  0  0  0  0  0  0  0  0  0  0  0
   57.6500   29.9150   52.5310 C   0  0  0  0  0  0  0  0  0  0  0  0
   58.2350   31.1550   53.1690 C   0  0  0  0  0  0  0  0  0  0  0  0
   57.4500   31.9810   53.7130 O   0  0  0  0  0  0  0  0  0  0  0  0
   59.6490   31.4550   53.0940 N   0  0  0  0  0  0  0  0  0  0  0  0
   60.1540   32.7570   53.5610 C   0  0  0  0  0  0  0  0  0  0  0  0
   61.1890   33.3170   52.5740 C   0  0  0  0  0  0  0  0  0  0  0  0
   62.1270   32.2770   52.1240 N   0  0  0  0  0  0  0  0  0  0  0  0
   63.0440   32.5590   51.0500 C   0  0  0  0  0  0  0  0  0  0  0  0
   62.6090   32.5200   49.7160 C   0  0  0  0  0  0  0  0  0  0  0  0
   63.5070   32.8040   48.6760 C   0  0  0  0  0  0  0  0  0  0  0  0
   63.0610   32.7230   47.2390 C   0  0  0  0  0  0  0  0  0  0  0  0
   63.7430   33.6400   46.4580 F   0  0  0  0  0  0  0  0  0  0  0  0
   61.7060   32.9900   47.1340 F   0  0  0  0  0  0  0  0  0  0  0  0
   63.3060   31.4510   46.7560 F   0  0  0  0  0  0  0  0  0  0  0  0
   64.8450   33.0750   48.9950 C   0  0  0  0  0  0  0  0  0  0  0  0
   65.2470   33.0990   50.3310 C   0  0  0  0  0  0  0  0  0  0  0  0
   64.3510   32.8470   51.3220 N   0  0  0  0  0  0  0  0  0  0  0  0
   62.0520   30.9340   52.7060 C   0  0  0  0  0  0  0  0  0  0  0  0
   60.6080   30.4290   52.6430 C   0  0  0  0  0  0  0  0  0  0  0  0
   55.5210   28.7950   53.3570 N   0  0  0  0  0  0  0  0  0  0  0  0
   56.1300   27.5700   53.8880 C   0  0  0  0  0  0  0  0  0  0  0  0
  1  2  2  0
  2  3  1  0
  3  4  2  0
  4  5  1  0
  5  6  1  0
  6  7  1  0
  7  8  2  0
  7  9  1  0
  9 10  1  0
 10 11  1  0
  3 12  1  0
 12 13  2  0
 13 14  1  0
 14 15  1  0
 15 16  2  0
 15 17  1  0
 17 18  1  0
 18 19  1  0
 19 20  1  0
 20 21  1  0
 21 22  2  0
 22 23  1  0
 23 24  1  0
 24 25  1  0
 24 26  1  0
 24 27  1  0
 23 28  2  0
 28 29  1  0
 29 30  2  0
 20 31  1  0
 31 32  1  0
 13 33  1  0
 33 34  1  0
 33  2  1  0
 10  5  2  0
 32 17  1  0
 30 21  1  0
M  CHG  4   6  -1   9  -1  11  -1  30   1
M  END
>  <UniqueID>  (3415) 
72

>  <SMILES>  (3415) 
C=c1/c(=C/c2[n-]c(=O)[n-]c2[O-])cc(CC(=O)N2CCN(c3cc(C(F)(F)F)cc[nH+]3)CC2)n1C

>  <Energy>  (3415) 
128.49363751884573

>  <Genealogy>  (3415) 
C=c1c(=Cc2[n-]c(=O)[n-]c2[O-])cc(CC(=O)N2CCN(c3cc(C(F)(F)F)cc[nH+]3)CC2)n1C (protonated)
C=c1/c(=C/c2[n-]c(=O)[n-]c2[O-])cc(CC(=O)N2CCN(c3cc(C(F)(F)F)cc[nH+]3)CC2)n1C (cis-trans isomerization)
C=c1/c(=C/c2[n-]c(=O)[n-]c2[O-])cc(CC(=O)N2CCN(c3cc(C(F)(F)F)cc[nH+]3)CC2)n1C (3D coordinates assigned)
C=c1/c(=C/c2[n-]c(=O)[n-]c2[O-])cc(CC(=O)N2CCN(c3cc(C(F)(F)F)cc[nH+]3)CC2)n1C (nonaromatic ring conformer: 128.49363751884573 kcal/mol)

>  <smiles>  (3415) 
C=c1c(=Cc2[nH]c(=O)[nH]c2O)cc(CC(=O)N2CCN(c3cc(C(F)(F)F)ccn3)CC2)n1C

>  <score_type>  (3415) 
oracle

>  <origin>  (3415) 
adg

>  <m_score__min__energy>  (3415) 
-16.93

>  <m_primary>  (3415) 
energy

$$$$
5:0
     RDKit          3D

 25 27  0  0  0  0  0  0  0  0999 V2000
   60.9080   30.1290   46.6760 C   0  0  0  0  0  0  0  0  0  0  0  0
   59.7020   29.8440   46.1790 C   0  0  0  0  0  0  0  0  0  0  0  0
   59.3030   28.5820   45.9000 N   0  0  0  0  0  0  0  0  0  0  0  0
   58.0580   28.6950   45.3910 C   0  0  0  0  0  0  0  0  0  0  0  0
   57.3330   27.6420   44.9760 C   0  0  0  0  0  0  0  0  0  0  0  0
   57.1970   26.3810   45.7360 C   0  0  0  0  0  0  0  0  0  0  0  0
   55.9560   25.9620   46.2410 C   0  0  0  0  0  0  0  0  0  0  0  0
   54.8080   26.7160   46.0220 O   0  0  0  0  0  0  0  0  0  0  0  0
   55.8700   24.8140   46.9620 N   0  0  0  0  0  0  0  0  0  0  0  0
   56.9730   24.0670   47.2230 C   0  0  0  0  0  0  0  0  0  0  0  0
   56.8700   23.0050   47.8900 O   0  0  0  0  0  0  0  0  0  0  0  0
   58.1890   24.4660   46.7680 N   0  0  0  0  0  0  0  0  0  0  0  0
   58.3270   25.6050   46.0410 C   0  0  0  0  0  0  0  0  0  0  0  0
   59.4710   25.9500   45.6400 O   0  0  0  0  0  0  0  0  0  0  0  0
   57.7310   30.0410   45.3630 C   0  0  0  0  0  0  0  0  0  0  0  0
   56.6580   30.5460   44.9360 O   0  0  0  0  0  0  0  0  0  0  0  0
   58.7570   30.7630   45.8590 N   0  0  0  0  0  0  0  0  0  0  0  0
   58.8030   32.1910   46.0220 C   0  0  0  0  0  0  0  0  0  0  0  0
   58.7300   33.0230   44.8940 C   0  0  0  0  0  0  0  0  0  0  0  0
   58.7930   34.4110   45.0350 C   0  0  0  0  0  0  0  0  0  0  0  0
   58.9340   34.9780   46.3010 C   0  0  0  0  0  0  0  0  0  0  0  0
   59.0090   34.1620   47.4320 C   0  0  0  0  0  0  0  0  0  0  0  0
   58.9430   32.7590   47.3040 C   0  0  0  0  0  0  0  0  0  0  0  0
   58.9980   31.9070   48.4190 O   0  0  0  0  0  0  0  0  0  0  0  0
   58.5710   32.2620   49.7290 C   0  0  0  0  0  0  0  0  0  0  0  0
  1  2  2  0
  2  3  1  0
  3  4  1  0
  4  5  2  3
  5  6  1  0
  6  7  2  0
  7  8  1  0
  7  9  1  0
  9 10  1  0
 10 11  2  0
 10 12  1  0
 12 13  1  0
 13 14  2  0
  4 15  1  0
 15 16  2  0
 15 17  1  0
 17 18  1  0
 18 19  2  0
 19 20  1  0
 20 21  2  0
 21 22  1  0
 22 23  2  0
 23 24  1  0
 24 25  1  0
 17  2  1  0
 23 18  1  0
 13  6  1  0
M  CHG  3   8  -1   9  -1  12  -1
M  END
>  <UniqueID>  (3416) 
6

>  <SMILES>  (3416) 
C=c1[nH]c(=Cc2c([O-])[n-]c(=O)[n-]c2=O)c(=O)n1-c1ccccc1OC

>  <Energy>  (3416) 
89.96103257576064

>  <Genealogy>  (3416) 
C=c1[nH]c(=Cc2c([O-])[n-]c(=O)[n-]c2=O)c(=O)n1-c1ccccc1OC (protonated)
C=c1[nH]c(=Cc2c([O-])[n-]c(=O)[n-]c2=O)c(=O)n1-c1ccccc1OC (3D coordinates assigned)
C=c1[nH]c(=Cc2c([O-])[n-]c(=O)[n-]c2=O)c(=O)n1-c1ccccc1OC (optimized conformer: 89.96103257576064 kcal/mol)

>  <smiles>  (3416) 
C=c1[nH]c(=Cc2c(O)[nH]c(=O)[nH]c2=O)c(=O)n1-c1ccccc1OC

>  <score_type>  (3416) 
oracle

>  <origin>  (3416) 
adg

>  <m_score__min__energy>  (3416) 
-15.359999999999999

>  <m_primary>  (3416) 
energy

$$$$
7:0
     RDKit          3D

 32 35  0  0  0  0  0  0  0  0999 V2000
   59.5830   27.8730   46.5950 C   0  0  0  0  0  0  0  0  0  0  0  0
   58.7890   28.5160   45.7370 C   0  0  0  0  0  0  0  0  0  0  0  0
   58.7550   29.8260   45.6500 O   0  0  0  0  0  0  0  0  0  0  0  0
   57.8870   30.1640   44.7240 C   0  0  0  0  0  0  0  0  0  0  0  0
   57.5890   31.5510   44.3510 C   0  0  0  0  0  0  0  0  0  0  0  0
   58.1650   32.0650   43.3540 O   0  0  0  0  0  0  0  0  0  0  0  0
   56.6520   32.3130   45.1180 N   0  0  0  0  0  0  0  0  0  0  0  0
   57.0270   33.4390   45.9660 C   0  0  0  0  0  0  0  0  0  0  0  0
   58.5090   33.4220   46.2280 C   0  0  0  0  0  0  0  0  0  0  0  0
   59.0900   32.3890   46.9810 C   0  0  0  0  0  0  0  0  0  0  0  0
   60.4630   32.3930   47.2410 C   0  0  0  0  0  0  0  0  0  0  0  0
   61.2700   33.4330   46.7590 C   0  0  0  0  0  0  0  0  0  0  0  0
   63.0000   33.4170   47.0880 S   0  0  0  0  0  0  0  0  0  0  0  0
   63.5170   32.0030   47.0580 O   0  0  0  0  0  0  0  0  0  0  0  0
   63.6950   34.2040   46.0120 O   0  0  0  0  0  0  0  0  0  0  0  0
   63.3120   34.1460   48.6490 N   0  0  0  0  0  0  0  0  0  0  0  0
   62.0720   34.2510   49.4260 C   0  0  0  0  0  0  0  0  0  0  0  0
   61.9550   33.0140   50.3030 C   0  0  0  0  0  0  0  0  0  0  0  0
   63.3370   32.3880   50.3110 C   0  0  0  0  0  0  0  0  0  0  0  0
   64.2000   33.2930   49.4440 C   0  0  0  0  0  0  0  0  0  0  0  0
   60.6930   34.4650   46.0080 C   0  0  0  0  0  0  0  0  0  0  0  0
   59.3190   34.4620   45.7460 C   0  0  0  0  0  0  0  0  0  0  0  0
   57.3150   29.0360   44.1670 C   0  0  0  0  0  0  0  0  0  0  0  0
   57.8910   27.9590   44.8240 C   0  0  0  0  0  0  0  0  0  0  0  0
   57.6650   26.6520   44.5920 C   0  0  0  0  0  0  0  0  0  0  0  0
   57.1240   25.7190   45.5970 C   0  0  0  0  0  0  0  0  0  0  0  0
   57.8480   24.7300   46.1500 N   0  0  0  0  0  0  0  0  0  0  0  0
   57.0050   24.1930   47.0560 C   0  0  0  0  0  0  0  0  0  0  0  0
   57.3220   23.2120   47.7800 O   0  0  0  0  0  0  0  0  0  0  0  0
   55.7980   24.7930   47.1350 N   0  0  0  0  0  0  0  0  0  0  0  0
   55.8930   25.7660   46.2150 C   0  0  0  0  0  0  0  0  0  0  0  0
   54.8930   26.7020   45.9810 O   0  0  0  0  0  0  0  0  0  0  0  0
  1  2  2  0
  2  3  1  0
  3  4  1  0
  4  5  1  0
  5  6  2  0
  5  7  1  0
  7  8  1  0
  8  9  1  0
  9 10  2  0
 10 11  1  0
 11 12  2  0
 12 13  1  0
 13 14  2  0
 13 15  2  0
 13 16  1  0
 16 17  1  0
 17 18  1  0
 18 19  1  0
 19 20  1  0
 12 21  1  0
 21 22  2  0
  4 23  2  0
 23 24  1  0
 24 25  2  0
 25 26  1  0
 26 27  1  0
 27 28  1  0
 28 29  2  0
 28 30  1  0
 30 31  1  0
 31 32  1  0
 24  2  1  0
 31 26  2  0
 22  9  1  0
 20 16  1  0
M  CHG  4   7  -1  27  -1  30  -1  32  -1
M  END
>  <UniqueID>  (3417) 
8

>  <SMILES>  (3417) 
C=c1oc(C(=O)[N-]Cc2ccc(S(=O)(=O)N3CCCC3)cc2)c/c1=C\c1[n-]c(=O)[n-]c1[O-]

>  <Energy>  (3417) 
114.17800292144526

>  <Genealogy>  (3417) 
C=c1oc(C(=O)[N-]Cc2ccc(S(=O)(=O)N3CCCC3)cc2)cc1=Cc1[n-]c(=O)[n-]c1[O-] (protonated)
C=c1oc(C(=O)[N-]Cc2ccc(S(=O)(=O)N3CCCC3)cc2)c/c1=C\c1[n-]c(=O)[n-]c1[O-] (cis-trans isomerization)
C=c1oc(C(=O)[N-]Cc2ccc(S(=O)(=O)N3CCCC3)cc2)c/c1=C\c1[n-]c(=O)[n-]c1[O-] (3D coordinates assigned)
C=c1oc(C(=O)[N-]Cc2ccc(S(=O)(=O)N3CCCC3)cc2)c/c1=C\c1[n-]c(=O)[n-]c1[O-] (nonaromatic ring conformer: 114.17800292144526 kcal/mol)

>  <smiles>  (3417) 
C=c1oc(C(=O)NCc2ccc(S(=O)(=O)N3CCCC3)cc2)cc1=Cc1[nH]c(=O)[nH]c1O

>  <score_type>  (3417) 
oracle

>  <origin>  (3417) 
adg

>  <m_score__min__energy>  (3417) 
-20.170000000000002

>  <m_primary>  (3417) 
energy

$$$$
14:0
     RDKit          3D

 34 37  0  0  0  0  0  0  0  0999 V2000
   57.5470   27.6890   44.2300 C   0  0  0  0  0  0  0  0  0  0  0  0
   57.9970   28.0270   45.4480 C   0  0  0  0  0  0  0  0  0  0  0  0
   58.2730   27.1590   46.5180 C   0  0  0  0  0  0  0  0  0  0  0  0
   58.0240   25.8460   46.6830 C   0  0  0  0  0  0  0  0  0  0  0  0
   57.0140   25.0660   45.9580 C   0  0  0  0  0  0  0  0  0  0  0  0
   57.3010   23.6350   45.1100 S   0  0  0  0  0  0  0  0  0  0  0  0
   55.7460   23.6060   44.4730 C   0  0  0  0  0  0  0  0  0  0  0  0
   55.3080   22.7040   43.7140 O   0  0  0  0  0  0  0  0  0  0  0  0
   55.0080   24.6700   44.8530 N   0  0  0  0  0  0  0  0  0  0  0  0
   55.7220   25.4930   45.6670 C   0  0  0  0  0  0  0  0  0  0  0  0
   55.1880   26.6750   46.1700 O   0  0  0  0  0  0  0  0  0  0  0  0
   58.9140   27.9190   47.4790 C   0  0  0  0  0  0  0  0  0  0  0  0
   58.9660   29.2110   47.0010 C   0  0  0  0  0  0  0  0  0  0  0  0
   59.6030   30.3570   47.7280 C   0  0  0  0  0  0  0  0  0  0  0  0
   58.3980   29.2870   45.7740 N   0  0  0  0  0  0  0  0  0  0  0  0
   58.4160   30.4710   44.8990 C   0  0  0  0  0  0  0  0  0  0  0  0
   57.0790   31.1530   44.9070 C   0  0  0  0  0  0  0  0  0  0  0  0
   56.0610   30.5510   44.4780 O   0  0  0  0  0  0  0  0  0  0  0  0
   56.9490   32.4620   45.4650 N   0  0  0  0  0  0  0  0  0  0  0  0
   58.0250   33.1530   46.1120 C   0  0  0  0  0  0  0  0  0  0  0  0
   58.9320   33.9480   45.3900 C   0  0  0  0  0  0  0  0  0  0  0  0
   60.0100   34.5500   46.0410 C   0  0  0  0  0  0  0  0  0  0  0  0
   60.1930   34.3670   47.4130 C   0  0  0  0  0  0  0  0  0  0  0  0
   59.2870   33.5870   48.1450 C   0  0  0  0  0  0  0  0  0  0  0  0
   59.5500   33.2930   49.8610 S   0  0  0  0  0  0  0  0  0  0  0  0
   59.2690   34.5590   50.6220 O   0  0  0  0  0  0  0  0  0  0  0  0
   60.9840   32.9020   50.0940 O   0  0  0  0  0  0  0  0  0  0  0  0
   58.4780   32.0280   50.4080 N   0  0  0  0  0  0  0  0  0  0  0  0
   59.2570   30.8320   50.7810 C   0  0  0  0  0  0  0  0  0  0  0  0
   58.3960   29.8410   51.5910 C   0  0  0  0  0  0  0  0  0  0  0  0
   57.0220   30.1320   51.4380 O   0  0  0  0  0  0  0  0  0  0  0  0
   56.7290   31.3880   52.0270 C   0  0  0  0  0  0  0  0  0  0  0  0
   57.6870   32.5020   51.5510 C   0  0  0  0  0  0  0  0  0  0  0  0
   58.2010   32.9870   47.4910 C   0  0  0  0  0  0  0  0  0  0  0  0
  1  2  2  0
  2  3  1  0
  3  4  2  3
  4  5  1  0
  5  6  1  0
  6  7  1  0
  7  8  2  0
  7  9  1  0
  9 10  1  0
 10 11  1  0
  3 12  1  0
 12 13  2  0
 13 14  1  0
 13 15  1  0
 15 16  1  0
 16 17  1  0
 17 18  2  0
 17 19  1  0
 19 20  1  0
 20 21  2  0
 21 22  1  0
 22 23  2  0
 23 24  1  0
 24 25  1  0
 25 26  2  0
 25 27  2  0
 25 28  1  0
 28 29  1  0
 29 30  1  0
 30 31  1  0
 31 32  1  0
 32 33  1  0
 24 34  2  0
 15  2  1  0
 34 20  1  0
 10  5  2  0
 33 28  1  0
M  CHG  2   9  -1  19  -1
M  END
>  <UniqueID>  (3418) 
13

>  <SMILES>  (3418) 
C=c1c(=Cc2sc(=O)[n-]c2O)cc(C)n1CC(=O)[N-]c1cccc(S(=O)(=O)N2CCOCC2)c1

>  <Energy>  (3418) 
138.42412925006766

>  <Genealogy>  (3418) 
C=c1c(=Cc2sc(=O)[n-]c2O)cc(C)n1CC(=O)[N-]c1cccc(S(=O)(=O)N2CCOCC2)c1 (protonated)
C=c1c(=Cc2sc(=O)[n-]c2O)cc(C)n1CC(=O)[N-]c1cccc(S(=O)(=O)N2CCOCC2)c1 (3D coordinates assigned)
C=c1c(=Cc2sc(=O)[n-]c2O)cc(C)n1CC(=O)[N-]c1cccc(S(=O)(=O)N2CCOCC2)c1 (nonaromatic ring conformer: 138.42412925006766 kcal/mol)

>  <smiles>  (3418) 
C=c1c(=Cc2sc(=O)[nH]c2O)cc(C)n1CC(=O)Nc1cccc(S(=O)(=O)N2CCOCC2)c1

>  <score_type>  (3418) 
oracle

>  <origin>  (3418) 
adg

>  <m_score__min__energy>  (3418) 
-15.23

>  <m_primary>  (3418) 
energy

$$$$
15:0
     RDKit          3D

 32 35  0  0  0  0  0  0  0  0999 V2000
   51.8980   28.5980   53.0900 C   0  0  0  0  0  0  0  0  0  0  0  0
   53.2070   28.8760   53.1560 C   0  0  0  0  0  0  0  0  0  0  0  0
   54.0070   27.9200   53.7030 N   0  0  0  0  0  0  0  0  0  0  0  0
   55.3590   27.9670   53.6440 C   0  0  0  0  0  0  0  0  0  0  0  0
   55.9970   28.9980   52.9500 C   0  0  0  0  0  0  0  0  0  0  0  0
   57.4740   29.0370   52.8370 C   0  0  0  0  0  0  0  0  0  0  0  0
   58.1710   28.2070   53.4840 O   0  0  0  0  0  0  0  0  0  0  0  0
   58.1300   29.9950   51.9880 N   0  0  0  0  0  0  0  0  0  0  0  0
   57.8810   31.4270   52.1840 C   0  0  0  0  0  0  0  0  0  0  0  0
   57.9580   32.1680   50.8470 C   0  0  0  0  0  0  0  0  0  0  0  0
   59.1680   31.7740   50.1110 N   0  0  0  0  0  0  0  0  0  0  0  0
   59.9060   32.7300   49.3210 C   0  0  0  0  0  0  0  0  0  0  0  0
   61.1260   32.5190   49.0760 O   0  0  0  0  0  0  0  0  0  0  0  0
   59.2670   34.0050   48.8310 C   0  0  0  0  0  0  0  0  0  0  0  0
   58.8860   33.9080   47.3770 C   0  0  0  0  0  0  0  0  0  0  0  0
   57.8030   33.1060   46.9770 C   0  0  0  0  0  0  0  0  0  0  0  0
   57.4370   33.0400   45.6280 C   0  0  0  0  0  0  0  0  0  0  0  0
   58.1420   33.7780   44.6740 C   0  0  0  0  0  0  0  0  0  0  0  0
   59.2120   34.5860   45.0660 C   0  0  0  0  0  0  0  0  0  0  0  0
   59.5820   34.6570   46.4130 C   0  0  0  0  0  0  0  0  0  0  0  0
   59.4280   30.3390   49.9350 C   0  0  0  0  0  0  0  0  0  0  0  0
   59.3550   29.6130   51.2790 C   0  0  0  0  0  0  0  0  0  0  0  0
   55.2110   30.0240   52.4110 C   0  0  0  0  0  0  0  0  0  0  0  0
   53.8090   30.0330   52.5690 C   0  0  0  0  0  0  0  0  0  0  0  0
   53.1490   31.1520   52.1720 C   0  0  0  0  0  0  0  0  0  0  0  0
   52.2860   31.2740   50.9800 C   0  0  0  0  0  0  0  0  0  0  0  0
   52.2180   30.3730   49.9820 N   0  0  0  0  0  0  0  0  0  0  0  0
   51.2270   30.8510   49.1980 C   0  0  0  0  0  0  0  0  0  0  0  0
   50.8700   30.2800   48.1350 O   0  0  0  0  0  0  0  0  0  0  0  0
   50.6440   31.9830   49.6480 N   0  0  0  0  0  0  0  0  0  0  0  0
   51.3190   32.2290   50.7820 C   0  0  0  0  0  0  0  0  0  0  0  0
   51.0510   33.3020   51.6230 O   0  0  0  0  0  0  0  0  0  0  0  0
  1  2  2  0
  2  3  1  0
  3  4  2  0
  4  5  1  0
  5  6  1  0
  6  7  2  0
  6  8  1  0
  8  9  1  0
  9 10  1  0
 10 11  1  0
 11 12  1  0
 12 13  2  0
 12 14  1  0
 14 15  1  0
 15 16  2  0
 16 17  1  0
 17 18  2  0
 18 19  1  0
 19 20  2  0
 11 21  1  0
 21 22  1  0
  5 23  2  0
 23 24  1  0
 24 25  2  3
 25 26  1  0
 26 27  1  0
 27 28  1  0
 28 29  2  0
 28 30  1  0
 30 31  1  0
 31 32  1  0
 24  2  1  0
 31 26  2  0
 22  8  1  0
 20 15  1  0
M  CHG  3  27  -1  30  -1  32  -1
M  END
>  <UniqueID>  (3419) 
14

>  <SMILES>  (3419) 
C=c1ncc(C(=O)N2CCN(C(=O)Cc3ccccc3)CC2)cc1=Cc1[n-]c(=O)[n-]c1[O-]

>  <Energy>  (3419) 
109.35276775889743

>  <Genealogy>  (3419) 
C=c1ncc(C(=O)N2CCN(C(=O)Cc3ccccc3)CC2)cc1=Cc1[n-]c(=O)[n-]c1[O-] (protonated)
C=c1ncc(C(=O)N2CCN(C(=O)Cc3ccccc3)CC2)cc1=Cc1[n-]c(=O)[n-]c1[O-] (3D coordinates assigned)
C=c1ncc(C(=O)N2CCN(C(=O)Cc3ccccc3)CC2)cc1=Cc1[n-]c(=O)[n-]c1[O-] (nonaromatic ring conformer: 109.35276775889743 kcal/mol)

>  <smiles>  (3419) 
C=c1ncc(C(=O)N2CCN(C(=O)Cc3ccccc3)CC2)cc1=Cc1[nH]c(=O)[nH]c1O

>  <score_type>  (3419) 
oracle

>  <origin>  (3419) 
adg

>  <m_score__min__energy>  (3419) 
-18.68

>  <m_primary>  (3419) 
energy

$$$$
49:0
     RDKit          3D

 31 34  0  0  0  0  0  0  0  0999 V2000
   56.6510   29.4440   43.2500 C   0  0  0  0  0  0  0  0  0  0  0  0
   57.3280   29.5180   44.4080 C   0  0  0  0  0  0  0  0  0  0  0  0
   57.7230   28.4480   45.2280 C   0  0  0  0  0  0  0  0  0  0  0  0
   57.7010   27.1160   45.0200 C   0  0  0  0  0  0  0  0  0  0  0  0
   57.2000   26.1080   45.9670 C   0  0  0  0  0  0  0  0  0  0  0  0
   57.9490   25.0980   46.4460 N   0  0  0  0  0  0  0  0  0  0  0  0
   57.0630   24.3580   47.1510 C   0  0  0  0  0  0  0  0  0  0  0  0
   57.3950   23.3110   47.7700 O   0  0  0  0  0  0  0  0  0  0  0  0
   55.7930   24.8180   47.1270 N   0  0  0  0  0  0  0  0  0  0  0  0
   55.8930   25.9170   46.3610 C   0  0  0  0  0  0  0  0  0  0  0  0
   54.8060   26.7070   45.9990 O   0  0  0  0  0  0  0  0  0  0  0  0
   58.1870   29.0130   46.4030 C   0  0  0  0  0  0  0  0  0  0  0  0
   58.1310   30.3840   46.2430 C   0  0  0  0  0  0  0  0  0  0  0  0
   58.5360   31.3660   47.3090 C   0  0  0  0  0  0  0  0  0  0  0  0
   59.9430   31.1190   47.7760 C   0  0  0  0  0  0  0  0  0  0  0  0
   60.2550   29.9890   48.2460 O   0  0  0  0  0  0  0  0  0  0  0  0
   60.9210   32.1690   47.6910 N   0  0  0  0  0  0  0  0  0  0  0  0
   62.1850   32.1530   48.3800 C   0  0  0  0  0  0  0  0  0  0  0  0
   62.4070   31.3180   49.4910 C   0  0  0  0  0  0  0  0  0  0  0  0
   63.6300   31.3510   50.1670 C   0  0  0  0  0  0  0  0  0  0  0  0
   64.6460   32.2310   49.7590 C   0  0  0  0  0  0  0  0  0  0  0  0
   65.9050   32.2610   50.4600 N   0  0  0  0  0  0  0  0  0  0  0  0
   66.4470   31.0210   51.0320 C   0  0  0  0  0  0  0  0  0  0  0  0
   67.6430   31.3280   51.9340 C   0  0  0  0  0  0  0  0  0  0  0  0
   67.3810   32.5050   52.6700 O   0  0  0  0  0  0  0  0  0  0  0  0
   67.4790   33.6390   51.8240 C   0  0  0  0  0  0  0  0  0  0  0  0
   66.7070   33.4930   50.4900 C   0  0  0  0  0  0  0  0  0  0  0  0
   64.4200   33.0730   48.6580 C   0  0  0  0  0  0  0  0  0  0  0  0
   63.1970   33.0380   47.9810 C   0  0  0  0  0  0  0  0  0  0  0  0
   57.6090   30.6940   45.0300 N   0  0  0  0  0  0  0  0  0  0  0  0
   57.2930   32.0370   44.5250 C   0  0  0  0  0  0  0  0  0  0  0  0
  1  2  2  0
  2  3  1  0
  3  4  2  0
  4  5  1  0
  5  6  1  0
  6  7  1  0
  7  8  2  0
  7  9  1  0
  9 10  1  0
 10 11  1  0
  3 12  1  0
 12 13  2  0
 13 14  1  0
 14 15  1  0
 15 16  2  0
 15 17  1  0
 17 18  1  0
 18 19  2  0
 19 20  1  0
 20 21  2  0
 21 22  1  0
 22 23  1  0
 23 24  1  0
 24 25  1  0
 25 26  1  0
 26 27  1  0
 21 28  1  0
 28 29  2  0
 13 30  1  0
 30 31  1  0
 30  2  1  0
 10  5  2  0
 29 18  1  0
 27 22  1  0
M  CHG  3   6  -1   9  -1  11  -1
M  END
>  <UniqueID>  (3420) 
44

>  <SMILES>  (3420) 
C=c1/c(=C\c2[n-]c(=O)[n-]c2[O-])cc(CC(=O)Nc2ccc(N3CCOCC3)cc2)n1C

>  <Energy>  (3420) 
139.86784763159542

>  <Genealogy>  (3420) 
C=c1c(=Cc2[n-]c(=O)[n-]c2[O-])cc(CC(=O)Nc2ccc(N3CCOCC3)cc2)n1C (protonated)
C=c1/c(=C\c2[n-]c(=O)[n-]c2[O-])cc(CC(=O)Nc2ccc(N3CCOCC3)cc2)n1C (cis-trans isomerization)
C=c1/c(=C\c2[n-]c(=O)[n-]c2[O-])cc(CC(=O)Nc2ccc(N3CCOCC3)cc2)n1C (3D coordinates assigned)
C=c1/c(=C\c2[n-]c(=O)[n-]c2[O-])cc(CC(=O)Nc2ccc(N3CCOCC3)cc2)n1C (nonaromatic ring conformer: 139.86784763159542 kcal/mol)

>  <smiles>  (3420) 
C=c1c(=Cc2[nH]c(=O)[nH]c2O)cc(CC(=O)Nc2ccc(N3CCOCC3)cc2)n1C

>  <score_type>  (3420) 
oracle

>  <origin>  (3420) 
adg

>  <m_score__min__energy>  (3420) 
-17.41

>  <m_primary>  (3420) 
energy

$$$$
54:0
     RDKit          3D

 24 26  0  0  0  0  0  0  0  0999 V2000
   55.2940   27.3930   53.8820 C   0  0  0  0  0  0  0  0  0  0  0  0
   54.9180   28.6120   53.4890 C   0  0  0  0  0  0  0  0  0  0  0  0
   53.6170   28.9660   53.3840 N   0  0  0  0  0  0  0  0  0  0  0  0
   53.6380   30.2420   52.9400 C   0  0  0  0  0  0  0  0  0  0  0  0
   52.5080   30.9280   52.6960 C   0  0  0  0  0  0  0  0  0  0  0  0
   51.8530   31.0870   51.3830 C   0  0  0  0  0  0  0  0  0  0  0  0
   51.8910   30.1950   50.3770 N   0  0  0  0  0  0  0  0  0  0  0  0
   51.2510   30.8300   49.3700 C   0  0  0  0  0  0  0  0  0  0  0  0
   51.0710   30.3000   48.2420 O   0  0  0  0  0  0  0  0  0  0  0  0
   50.8280   32.0770   49.6640 N   0  0  0  0  0  0  0  0  0  0  0  0
   51.2280   32.2270   50.9380 C   0  0  0  0  0  0  0  0  0  0  0  0
   51.0270   33.3860   51.6770 O   0  0  0  0  0  0  0  0  0  0  0  0
   54.9610   30.6220   52.7680 C   0  0  0  0  0  0  0  0  0  0  0  0
   55.3810   31.7100   52.2920 O   0  0  0  0  0  0  0  0  0  0  0  0
   55.7670   29.6080   53.1320 N   0  0  0  0  0  0  0  0  0  0  0  0
   57.2330   29.5820   53.0470 C   0  0  0  0  0  0  0  0  0  0  0  0
   57.7290   30.3110   51.8210 C   0  0  0  0  0  0  0  0  0  0  0  0
   57.7790   29.6940   50.7210 O   0  0  0  0  0  0  0  0  0  0  0  0
   58.1610   31.6900   51.8880 N   0  0  0  0  0  0  0  0  0  0  0  0
   58.0480   32.4540   53.1400 C   0  0  0  0  0  0  0  0  0  0  0  0
   59.0190   33.6400   53.1410 C   0  0  0  0  0  0  0  0  0  0  0  0
   58.8900   34.3990   51.9560 O   0  0  0  0  0  0  0  0  0  0  0  0
   59.3040   33.6190   50.8540 C   0  0  0  0  0  0  0  0  0  0  0  0
   58.3560   32.4380   50.6360 C   0  0  0  0  0  0  0  0  0  0  0  0
  1  2  2  0
  2  3  1  0
  3  4  1  0
  4  5  2  3
  5  6  1  0
  6  7  1  0
  7  8  1  0
  8  9  2  0
  8 10  1  0
 10 11  1  0
 11 12  1  0
  4 13  1  0
 13 14  2  0
 13 15  1  0
 15 16  1  0
 16 17  1  0
 17 18  2  0
 17 19  1  0
 19 20  1  0
 20 21  1  0
 21 22  1  0
 22 23  1  0
 23 24  1  0
 15  2  1  0
 24 19  1  0
 11  6  2  0
M  CHG  4   3  -1   7  -1  10  -1  12  -1
M  END
>  <UniqueID>  (3421) 
49

>  <SMILES>  (3421) 
C=c1[n-]c(=Cc2[n-]c(=O)[n-]c2[O-])c(=O)n1CC(=O)N1CCOCC1

>  <Energy>  (3421) 
108.07003781343631

>  <Genealogy>  (3421) 
C=c1[n-]c(=Cc2[n-]c(=O)[n-]c2[O-])c(=O)n1CC(=O)N1CCOCC1 (protonated)
C=c1[n-]c(=Cc2[n-]c(=O)[n-]c2[O-])c(=O)n1CC(=O)N1CCOCC1 (3D coordinates assigned)
C=c1[n-]c(=Cc2[n-]c(=O)[n-]c2[O-])c(=O)n1CC(=O)N1CCOCC1 (nonaromatic ring conformer: 108.07003781343631 kcal/mol)

>  <smiles>  (3421) 
C=c1[nH]c(=Cc2[nH]c(=O)[nH]c2O)c(=O)n1CC(=O)N1CCOCC1

>  <score_type>  (3421) 
oracle

>  <origin>  (3421) 
adg

>  <m_score__min__energy>  (3421) 
-16.879999999999999

>  <m_primary>  (3421) 
energy

$$$$
55:0
     RDKit          3D

 25 27  0  0  0  0  0  0  0  0999 V2000
   54.3690   28.0180   52.8690 C   0  0  0  0  0  0  0  0  0  0  0  0
   54.7980   29.2250   52.4960 C   0  0  0  0  0  0  0  0  0  0  0  0
   56.0800   29.5070   52.4210 O   0  0  0  0  0  0  0  0  0  0  0  0
   56.2250   30.7800   52.1350 C   0  0  0  0  0  0  0  0  0  0  0  0
   57.5420   31.4280   51.9720 C   0  0  0  0  0  0  0  0  0  0  0  0
   58.2910   31.5180   52.9850 O   0  0  0  0  0  0  0  0  0  0  0  0
   58.0040   31.8830   50.6760 N   0  0  0  0  0  0  0  0  0  0  0  0
   59.0320   32.9340   50.8170 C   0  0  0  0  0  0  0  0  0  0  0  0
   59.4780   33.4520   49.4450 C   0  0  0  0  0  0  0  0  0  0  0  0
   59.8670   32.3360   48.5700 N   0  0  0  0  0  0  0  0  0  0  0  0
   60.8580   32.5180   47.5300 C   0  0  0  0  0  0  0  0  0  0  0  0
   61.5480   33.8320   47.3140 C   0  0  0  0  0  0  0  0  0  0  0  0
   61.1750   31.5500   46.7850 O   0  0  0  0  0  0  0  0  0  0  0  0
   58.9710   31.1700   48.5100 C   0  0  0  0  0  0  0  0  0  0  0  0
   58.5430   30.7400   49.9170 C   0  0  0  0  0  0  0  0  0  0  0  0
   54.9840   31.3780   52.0090 C   0  0  0  0  0  0  0  0  0  0  0  0
   54.0520   30.3750   52.2050 C   0  0  0  0  0  0  0  0  0  0  0  0
   52.7230   30.5710   52.1040 C   0  0  0  0  0  0  0  0  0  0  0  0
   52.0050   30.9560   50.8820 C   0  0  0  0  0  0  0  0  0  0  0  0
   51.8750   30.1540   49.8110 N   0  0  0  0  0  0  0  0  0  0  0  0
   51.0430   30.8470   49.0020 C   0  0  0  0  0  0  0  0  0  0  0  0
   50.6890   30.4210   47.8720 O   0  0  0  0  0  0  0  0  0  0  0  0
   50.6120   32.0230   49.5040 N   0  0  0  0  0  0  0  0  0  0  0  0
   51.2180   32.0710   50.7010 C   0  0  0  0  0  0  0  0  0  0  0  0
   51.0340   33.0980   51.6200 O   0  0  0  0  0  0  0  0  0  0  0  0
  1  2  2  0
  2  3  1  0
  3  4  1  0
  4  5  1  0
  5  6  2  0
  5  7  1  0
  7  8  1  0
  8  9  1  0
  9 10  1  0
 10 11  1  0
 11 12  1  0
 11 13  2  0
 10 14  1  0
 14 15  1  0
  4 16  2  0
 16 17  1  0
 17 18  2  3
 18 19  1  0
 19 20  1  0
 20 21  1  0
 21 22  2  0
 21 23  1  0
 23 24  1  0
 24 25  1  0
 17  2  1  0
 24 19  2  0
 15  7  1  0
M  CHG  4   7   1  20  -1  23  -1  25  -1
M  END
>  <UniqueID>  (3422) 
50

>  <SMILES>  (3422) 
C=c1oc(C(=O)[NH+]2CCN(C(C)=O)CC2)cc1=Cc1[n-]c(=O)[n-]c1[O-]

>  <Energy>  (3422) 
112.09730860222923

>  <Genealogy>  (3422) 
C=c1oc(C(=O)[NH+]2CCN(C(C)=O)CC2)cc1=Cc1[n-]c(=O)[n-]c1[O-] (protonated)
C=c1oc(C(=O)[NH+]2CCN(C(C)=O)CC2)cc1=Cc1[n-]c(=O)[n-]c1[O-] (3D coordinates assigned)
C=c1oc(C(=O)[NH+]2CCN(C(C)=O)CC2)cc1=Cc1[n-]c(=O)[n-]c1[O-] (nonaromatic ring conformer: 112.09730860222923 kcal/mol)

>  <smiles>  (3422) 
C=c1oc(C(=O)N2CCN(C(C)=O)CC2)cc1=Cc1[nH]c(=O)[nH]c1O

>  <score_type>  (3422) 
oracle

>  <origin>  (3422) 
adg

>  <m_score__min__energy>  (3422) 
-15.529999999999999

>  <m_primary>  (3422) 
energy

$$$$
64:0
     RDKit          3D

 24 26  0  0  0  0  0  0  0  0999 V2000
   56.2300   32.3340   52.3240 O   0  0  0  0  0  0  0  0  0  0  0  0
   56.3740   31.1080   52.0680 C   0  0  0  0  0  0  0  0  0  0  0  0
   57.7550   30.5050   52.1070 C   0  0  0  0  0  0  0  0  0  0  0  0
   58.7430   31.4210   51.5330 N   0  0  0  0  0  0  0  0  0  0  0  0
   59.4690   32.3520   52.1820 C   0  0  0  0  0  0  0  0  0  0  0  0
   59.4380   32.5610   53.5550 O   0  0  0  0  0  0  0  0  0  0  0  0
   60.2310   33.0610   51.2780 C   0  0  0  0  0  0  0  0  0  0  0  0
   59.9780   32.5700   50.0450 N   0  0  0  0  0  0  0  0  0  0  0  0
   60.5530   33.0290   48.8040 C   0  0  0  0  0  0  0  0  0  0  0  0
   61.8760   32.6890   48.4680 C   0  0  0  0  0  0  0  0  0  0  0  0
   62.4350   33.1280   47.2640 C   0  0  0  0  0  0  0  0  0  0  0  0
   61.6790   33.9030   46.3820 C   0  0  0  0  0  0  0  0  0  0  0  0
   60.3620   34.2380   46.7010 C   0  0  0  0  0  0  0  0  0  0  0  0
   59.7980   33.8030   47.9040 C   0  0  0  0  0  0  0  0  0  0  0  0
   59.0650   31.5880   50.2330 C   0  0  0  0  0  0  0  0  0  0  0  0
   58.5460   30.9200   49.2980 O   0  0  0  0  0  0  0  0  0  0  0  0
   55.2030   30.2950   51.9280 N   0  0  0  0  0  0  0  0  0  0  0  0
   53.8730   30.6530   52.3230 C   0  0  0  0  0  0  0  0  0  0  0  0
   53.3850   30.2070   53.5580 C   0  0  0  0  0  0  0  0  0  0  0  0
   52.1030   30.5710   53.9820 C   0  0  0  0  0  0  0  0  0  0  0  0
   51.3100   31.3990   53.1850 C   0  0  0  0  0  0  0  0  0  0  0  0
   51.8020   31.8760   51.9660 C   0  0  0  0  0  0  0  0  0  0  0  0
   51.0230   32.7160   51.1820 O   0  0  0  0  0  0  0  0  0  0  0  0
   53.0840   31.5120   51.5390 C   0  0  0  0  0  0  0  0  0  0  0  0
  1  2  2  0
  2  3  1  0
  3  4  1  0
  4  5  1  0
  5  6  1  0
  5  7  2  0
  7  8  1  0
  8  9  1  0
  9 10  2  0
 10 11  1  0
 11 12  2  0
 12 13  1  0
 13 14  2  0
  8 15  1  0
 15 16  2  0
  2 17  1  0
 17 18  1  0
 18 19  2  0
 19 20  1  0
 20 21  2  0
 21 22  1  0
 22 23  1  0
 22 24  2  0
 15  4  1  0
 24 18  1  0
 14  9  1  0
M  CHG  3   6  -1  17  -1  23  -1
M  END
>  <UniqueID>  (3423) 
57

>  <SMILES>  (3423) 
O=C(Cn1c([O-])cn(-c2ccccc2)c1=O)[N-]c1cccc([O-])c1

>  <Energy>  (3423) 
82.68133698809325

>  <Genealogy>  (3423) 
O=C(Cn1c([O-])cn(-c2ccccc2)c1=O)[N-]c1cccc([O-])c1 (protonated)
O=C(Cn1c([O-])cn(-c2ccccc2)c1=O)[N-]c1cccc([O-])c1 (3D coordinates assigned)
O=C(Cn1c([O-])cn(-c2ccccc2)c1=O)[N-]c1cccc([O-])c1 (optimized conformer: 82.68133698809325 kcal/mol)

>  <smiles>  (3423) 
O=C(Cn1c(O)cn(-c2ccccc2)c1=O)Nc1cccc(O)c1

>  <score_type>  (3423) 
oracle

>  <origin>  (3423) 
adg

>  <m_score__min__energy>  (3423) 
-14.029999999999999

>  <m_primary>  (3423) 
energy

$$$$
74:0
     RDKit          3D

 26 28  0  0  0  0  0  0  0  0999 V2000
   60.5560   27.1570   49.1740 C   0  0  0  0  0  0  0  0  0  0  0  0
   60.5640   28.0680   50.4100 C   0  0  0  0  0  0  0  0  0  0  0  0
   60.3660   29.5000   50.0990 N   0  0  0  0  0  0  0  0  0  0  0  0
   60.8450   29.8830   48.7460 C   0  0  0  0  0  0  0  0  0  0  0  0
   59.9980   30.9790   48.0750 C   0  0  0  0  0  0  0  0  0  0  0  0
   59.5560   31.9740   49.0630 N   0  0  0  0  0  0  0  0  0  0  0  0
   59.6510   33.3860   48.7960 C   0  0  0  0  0  0  0  0  0  0  0  0
   59.9510   34.1750   49.7330 O   0  0  0  0  0  0  0  0  0  0  0  0
   59.4110   33.9480   47.4520 C   0  0  0  0  0  0  0  0  0  0  0  0
   59.8800   35.2240   47.0960 C   0  0  0  0  0  0  0  0  0  0  0  0
   59.6470   35.7050   45.8070 C   0  0  0  0  0  0  0  0  0  0  0  0
   58.9610   34.9170   44.8830 C   0  0  0  0  0  0  0  0  0  0  0  0
   58.5190   33.6430   45.2620 C   0  0  0  0  0  0  0  0  0  0  0  0
   57.8020   32.7620   44.2820 C   0  0  0  0  0  0  0  0  0  0  0  0
   57.5790   31.4380   44.8560 N   0  0  0  0  0  0  0  0  0  0  0  0
   57.1970   30.3090   44.0530 C   0  0  0  0  0  0  0  0  0  0  0  0
   57.0810   30.4390   42.8060 O   0  0  0  0  0  0  0  0  0  0  0  0
   56.9410   28.9880   44.6560 C   0  0  0  0  0  0  0  0  0  0  0  0
   57.8490   27.9460   44.7730 C   0  0  0  0  0  0  0  0  0  0  0  0
   57.1800   26.9180   45.3980 C   0  0  0  0  0  0  0  0  0  0  0  0
   55.9080   27.3890   45.6290 C   0  0  0  0  0  0  0  0  0  0  0  0
   54.8980   26.6630   46.2450 O   0  0  0  0  0  0  0  0  0  0  0  0
   55.7460   28.6480   45.1830 N   0  0  0  0  0  0  0  0  0  0  0  0
   58.7610   33.1930   46.5230 N   0  0  0  0  0  0  0  0  0  0  0  0
   59.0120   31.5260   50.3520 C   0  0  0  0  0  0  0  0  0  0  0  0
   59.0220   30.0000   50.4440 C   0  0  0  0  0  0  0  0  0  0  0  0
  1  2  1  0
  2  3  1  0
  3  4  1  0
  4  5  1  0
  5  6  1  0
  6  7  1  0
  7  8  2  0
  7  9  1  0
  9 10  2  0
 10 11  1  0
 11 12  2  0
 12 13  1  0
 13 14  1  0
 14 15  1  0
 15 16  1  0
 16 17  2  0
 16 18  1  0
 18 19  2  0
 19 20  1  0
 20 21  2  0
 21 22  1  0
 21 23  1  0
 13 24  2  0
  6 25  1  0
 25 26  1  0
 26  3  1  0
 24  9  1  0
 23 18  1  0
M  CHG  2  22  -1  23  -1
M  END
>  <UniqueID>  (3424) 
67

>  <SMILES>  (3424) 
CCN1CCN(C(=O)c2cccc(CNC(=O)c3ccc([O-])[n-]3)n2)CC1

>  <Energy>  (3424) 
81.3266839884157

>  <Genealogy>  (3424) 
CCN1CCN(C(=O)c2cccc(CNC(=O)c3ccc([O-])[n-]3)n2)CC1 (protonated)
CCN1CCN(C(=O)c2cccc(CNC(=O)c3ccc([O-])[n-]3)n2)CC1 (3D coordinates assigned)
CCN1CCN(C(=O)c2cccc(CNC(=O)c3ccc([O-])[n-]3)n2)CC1 (nonaromatic ring conformer: 81.3266839884157 kcal/mol)

>  <smiles>  (3424) 
CCN1CCN(C(=O)c2cccc(CNC(=O)c3ccc(O)[nH]3)n2)CC1

>  <score_type>  (3424) 
oracle

>  <origin>  (3424) 
adg

>  <m_score__min__energy>  (3424) 
-14.51

>  <m_primary>  (3424) 
energy

$$$$
1:0
     RDKit          3D

 31 34  0  0  0  0  0  0  0  0999 V2000
   57.0390   28.2520   44.7880 C   0  0  0  0  0  0  0  0  0  0  0  0
   57.8050   27.3640   45.4430 C   0  0  0  0  0  0  0  0  0  0  0  0
   57.8500   25.9760   45.2390 C   0  0  0  0  0  0  0  0  0  0  0  0
   57.0320   25.1550   44.5510 C   0  0  0  0  0  0  0  0  0  0  0  0
   55.7420   24.6320   45.0310 C   0  0  0  0  0  0  0  0  0  0  0  0
   55.2780   23.3920   44.7870 N   0  0  0  0  0  0  0  0  0  0  0  0
   54.0260   23.4240   45.2940 C   0  0  0  0  0  0  0  0  0  0  0  0
   53.2610   22.4250   45.2720 O   0  0  0  0  0  0  0  0  0  0  0  0
   53.6550   24.6120   45.8180 N   0  0  0  0  0  0  0  0  0  0  0  0
   54.7480   25.3680   45.6290 C   0  0  0  0  0  0  0  0  0  0  0  0
   54.8360   26.7060   45.9920 O   0  0  0  0  0  0  0  0  0  0  0  0
   58.9610   25.5180   45.9300 C   0  0  0  0  0  0  0  0  0  0  0  0
   59.4990   26.6070   46.5860 C   0  0  0  0  0  0  0  0  0  0  0  0
   60.7070   26.5510   47.4710 C   0  0  0  0  0  0  0  0  0  0  0  0
   58.8000   27.7260   46.2920 N   0  0  0  0  0  0  0  0  0  0  0  0
   59.0980   29.0510   46.7670 C   0  0  0  0  0  0  0  0  0  0  0  0
   59.5710   30.0330   45.8850 C   0  0  0  0  0  0  0  0  0  0  0  0
   59.8690   31.3160   46.3520 C   0  0  0  0  0  0  0  0  0  0  0  0
   59.6910   31.6310   47.7070 C   0  0  0  0  0  0  0  0  0  0  0  0
   60.0920   33.2360   48.3150 S   0  0  0  0  0  0  0  0  0  0  0  0
   59.8580   34.2640   47.2410 O   0  0  0  0  0  0  0  0  0  0  0  0
   59.1970   33.5500   49.4810 O   0  0  0  0  0  0  0  0  0  0  0  0
   61.7620   33.2690   48.8230 N   0  0  0  0  0  0  0  0  0  0  0  0
   62.6430   33.2900   47.6450 C   0  0  0  0  0  0  0  0  0  0  0  0
   64.1130   33.4700   48.0760 C   0  0  0  0  0  0  0  0  0  0  0  0
   64.4620   32.7370   49.3180 N   0  0  0  0  0  0  0  0  0  0  0  0
   64.6670   33.6340   50.4680 C   0  0  0  0  0  0  0  0  0  0  0  0
   63.5230   31.6430   49.6320 C   0  0  0  0  0  0  0  0  0  0  0  0
   62.0550   32.1210   49.7140 C   0  0  0  0  0  0  0  0  0  0  0  0
   59.2230   30.6510   48.5900 C   0  0  0  0  0  0  0  0  0  0  0  0
   58.9250   29.3680   48.1230 C   0  0  0  0  0  0  0  0  0  0  0  0
  1  2  2  0
  2  3  1  0
  3  4  2  3
  4  5  1  0
  5  6  1  0
  6  7  1  0
  7  8  2  0
  7  9  1  0
  9 10  1  0
 10 11  1  0
  3 12  1  0
 12 13  2  0
 13 14  1  0
 13 15  1  0
 15 16  1  0
 16 17  2  0
 17 18  1  0
 18 19  2  0
 19 20  1  0
 20 21  2  0
 20 22  2  0
 20 23  1  0
 23 24  1  0
 24 25  1  0
 25 26  1  0
 26 27  1  0
 26 28  1  0
 28 29  1  0
 19 30  1  0
 30 31  2  0
 15  2  1  0
 31 16  1  0
 10  5  2  0
 29 23  1  0
M  CHG  4   6  -1   9  -1  11  -1  23   1
M  END
>  <UniqueID>  (3425) 
2

>  <SMILES>  (3425) 
C=c1c(=Cc2[n-]c(=O)[n-]c2[O-])cc(C)n1-c1ccc(S(=O)(=O)[NH+]2CCN(C)CC2)cc1

>  <Energy>  (3425) 
141.01012295141123

>  <Genealogy>  (3425) 
C=c1c(=Cc2[n-]c(=O)[n-]c2[O-])cc(C)n1-c1ccc(S(=O)(=O)[NH+]2CCN(C)CC2)cc1 (protonated)
C=c1c(=Cc2[n-]c(=O)[n-]c2[O-])cc(C)n1-c1ccc(S(=O)(=O)[NH+]2CCN(C)CC2)cc1 (3D coordinates assigned)
C=c1c(=Cc2[n-]c(=O)[n-]c2[O-])cc(C)n1-c1ccc(S(=O)(=O)[NH+]2CCN(C)CC2)cc1 (nonaromatic ring conformer: 141.01012295141123 kcal/mol)

>  <smiles>  (3425) 
C=c1c(=Cc2[nH]c(=O)[nH]c2O)cc(C)n1-c1ccc(S(=O)(=O)N2CCN(C)CC2)cc1

>  <score_type>  (3425) 
oracle

>  <origin>  (3425) 
adg

>  <m_score__min__energy>  (3425) 
-14.94

>  <m_primary>  (3425) 
energy

$$$$
3:0
     RDKit          3D

 28 31  0  0  0  0  0  0  0  0999 V2000
   55.2030   28.9270   44.5500 O   0  0  0  0  0  0  0  0  0  0  0  0
   56.2480   29.7610   44.9410 C   0  0  0  0  0  0  0  0  0  0  0  0
   56.3190   31.0620   44.5730 N   0  0  0  0  0  0  0  0  0  0  0  0
   57.4560   31.5060   45.1420 C   0  0  0  0  0  0  0  0  0  0  0  0
   57.9860   32.7900   45.0360 C   0  0  0  0  0  0  0  0  0  0  0  0
   59.2130   33.0540   45.6700 C   0  0  0  0  0  0  0  0  0  0  0  0
   59.8940   32.0310   46.3710 C   0  0  0  0  0  0  0  0  0  0  0  0
   61.4250   32.3830   47.1700 S   0  0  0  0  0  0  0  0  0  0  0  0
   62.3500   31.2040   47.0360 O   0  0  0  0  0  0  0  0  0  0  0  0
   62.0610   33.5690   46.5000 O   0  0  0  0  0  0  0  0  0  0  0  0
   61.1500   32.7400   48.8580 N   0  0  0  0  0  0  0  0  0  0  0  0
   60.2420   33.8980   48.9900 C   0  0  0  0  0  0  0  0  0  0  0  0
   59.5800   33.9170   50.3720 C   0  0  0  0  0  0  0  0  0  0  0  0
   58.7070   32.7350   50.5610 N   0  0  0  0  0  0  0  0  0  0  0  0
   58.5200   32.4580   51.9930 C   0  0  0  0  0  0  0  0  0  0  0  0
   59.1710   31.5290   49.8310 C   0  0  0  0  0  0  0  0  0  0  0  0
   60.6920   31.5350   49.5900 C   0  0  0  0  0  0  0  0  0  0  0  0
   59.3350   30.7410   46.4560 C   0  0  0  0  0  0  0  0  0  0  0  0
   58.0970   30.5190   45.8500 C   0  0  0  0  0  0  0  0  0  0  0  0
   57.3190   29.3850   45.7470 C   0  0  0  0  0  0  0  0  0  0  0  0
   57.5710   28.0410   46.3020 C   0  0  0  0  0  0  0  0  0  0  0  0
   56.8960   26.9520   45.9190 C   0  0  0  0  0  0  0  0  0  0  0  0
   55.5700   26.8050   46.1460 N   0  0  0  0  0  0  0  0  0  0  0  0
   55.3050   25.5920   45.6330 C   0  0  0  0  0  0  0  0  0  0  0  0
   54.1610   25.0660   45.6380 O   0  0  0  0  0  0  0  0  0  0  0  0
   56.4510   25.0320   45.1250 C   0  0  0  0  0  0  0  0  0  0  0  0
   56.5730   23.8410   44.5430 C   0  0  0  0  0  0  0  0  0  0  0  0
   57.4710   25.8870   45.3060 N   0  0  0  0  0  0  0  0  0  0  0  0
  1  2  1  0
  2  3  1  0
  3  4  1  0
  4  5  2  0
  5  6  1  0
  6  7  2  0
  7  8  1  0
  8  9  2  0
  8 10  2  0
  8 11  1  0
 11 12  1  0
 12 13  1  0
 13 14  1  0
 14 15  1  0
 14 16  1  0
 16 17  1  0
  7 18  1  0
 18 19  2  0
 19 20  1  0
 20 21  1  0
 21 22  2  0
 22 23  1  0
 23 24  1  0
 24 25  2  0
 24 26  1  0
 26 27  2  0
 26 28  1  0
 20  2  2  0
 28 22  1  0
 19  4  1  0
 17 11  1  0
M  CHG  3   3  -1  23  -1  28  -1
M  END
>  <UniqueID>  (3426) 
4

>  <SMILES>  (3426) 
C=c1[n-]/c(=C\c2c(O)[n-]c3ccc(S(=O)(=O)N4CCN(C)CC4)cc23)[n-]c1=O

>  <Energy>  (3426) 
123.88539242784991

>  <Genealogy>  (3426) 
C=c1[n-]c(=Cc2c(O)[n-]c3ccc(S(=O)(=O)N4CCN(C)CC4)cc23)[n-]c1=O (protonated)
C=c1[n-]/c(=C\c2c(O)[n-]c3ccc(S(=O)(=O)N4CCN(C)CC4)cc23)[n-]c1=O (cis-trans isomerization)
C=c1[n-]/c(=C\c2c(O)[n-]c3ccc(S(=O)(=O)N4CCN(C)CC4)cc23)[n-]c1=O (3D coordinates assigned)
C=c1[n-]/c(=C\c2c(O)[n-]c3ccc(S(=O)(=O)N4CCN(C)CC4)cc23)[n-]c1=O (nonaromatic ring conformer: 123.88539242784991 kcal/mol)

>  <smiles>  (3426) 
C=c1[nH]c(=Cc2c(O)[nH]c3ccc(S(=O)(=O)N4CCN(C)CC4)cc23)[nH]c1=O

>  <score_type>  (3426) 
oracle

>  <origin>  (3426) 
adg

>  <m_score__min__energy>  (3426) 
-14.619999999999999

>  <m_primary>  (3426) 
energy

$$$$
17:0
     RDKit          3D

 24 26  0  0  0  0  0  0  0  0999 V2000
   60.9710   30.1060   46.4810 C   0  0  0  0  0  0  0  0  0  0  0  0
   59.7720   29.7820   45.9890 C   0  0  0  0  0  0  0  0  0  0  0  0
   58.7590   30.6600   45.7720 N   0  0  0  0  0  0  0  0  0  0  0  0
   58.7540   32.0890   45.9370 C   0  0  0  0  0  0  0  0  0  0  0  0
   59.0370   32.6550   47.1900 C   0  0  0  0  0  0  0  0  0  0  0  0
   59.0490   34.0440   47.3510 C   0  0  0  0  0  0  0  0  0  0  0  0
   58.7830   34.8770   46.2600 C   0  0  0  0  0  0  0  0  0  0  0  0
   58.5030   34.3220   45.0090 C   0  0  0  0  0  0  0  0  0  0  0  0
   58.4910   32.9320   44.8430 C   0  0  0  0  0  0  0  0  0  0  0  0
   58.2000   32.4090   43.6250 F   0  0  0  0  0  0  0  0  0  0  0  0
   57.7380   29.8980   45.3290 C   0  0  0  0  0  0  0  0  0  0  0  0
   56.6060   30.3450   45.0010 O   0  0  0  0  0  0  0  0  0  0  0  0
   58.1380   28.5780   45.2720 C   0  0  0  0  0  0  0  0  0  0  0  0
   57.3780   27.5360   44.8990 C   0  0  0  0  0  0  0  0  0  0  0  0
   57.2140   26.3140   45.7160 C   0  0  0  0  0  0  0  0  0  0  0  0
   55.9650   25.9400   46.2420 C   0  0  0  0  0  0  0  0  0  0  0  0
   54.8330   26.7120   46.0080 O   0  0  0  0  0  0  0  0  0  0  0  0
   55.8600   24.8230   47.0080 N   0  0  0  0  0  0  0  0  0  0  0  0
   56.9470   24.0630   47.2940 C   0  0  0  0  0  0  0  0  0  0  0  0
   56.8240   23.0310   48.0020 O   0  0  0  0  0  0  0  0  0  0  0  0
   58.1690   24.4200   46.8220 N   0  0  0  0  0  0  0  0  0  0  0  0
   58.3280   25.5270   46.0510 C   0  0  0  0  0  0  0  0  0  0  0  0
   59.4780   25.8290   45.6340 O   0  0  0  0  0  0  0  0  0  0  0  0
   59.4200   28.5090   45.6920 N   0  0  0  0  0  0  0  0  0  0  0  0
  1  2  2  0
  2  3  1  0
  3  4  1  0
  4  5  2  0
  5  6  1  0
  6  7  2  0
  7  8  1  0
  8  9  2  0
  9 10  1  0
  3 11  1  0
 11 12  2  0
 11 13  1  0
 13 14  2  0
 14 15  1  0
 15 16  2  0
 16 17  1  0
 16 18  1  0
 18 19  1  0
 19 20  2  0
 19 21  1  0
 21 22  1  0
 22 23  2  0
 13 24  1  0
 24  2  1  0
  9  4  1  0
 22 15  1  0
M  CHG  3  17  -1  18  -1  21  -1
M  END
>  <UniqueID>  (3427) 
16

>  <SMILES>  (3427) 
C=c1[nH]/c(=C\c2c([O-])[n-]c(=O)[n-]c2=O)c(=O)n1-c1ccccc1F

>  <Energy>  (3427) 
85.50039099588645

>  <Genealogy>  (3427) 
C=c1[nH]c(=Cc2c([O-])[n-]c(=O)[n-]c2=O)c(=O)n1-c1ccccc1F (protonated)
C=c1[nH]/c(=C\c2c([O-])[n-]c(=O)[n-]c2=O)c(=O)n1-c1ccccc1F (cis-trans isomerization)
C=c1[nH]/c(=C\c2c([O-])[n-]c(=O)[n-]c2=O)c(=O)n1-c1ccccc1F (3D coordinates assigned)
C=c1[nH]/c(=C\c2c([O-])[n-]c(=O)[n-]c2=O)c(=O)n1-c1ccccc1F (optimized conformer: 85.50039099588645 kcal/mol)

>  <smiles>  (3427) 
C=c1[nH]c(=Cc2c(O)[nH]c(=O)[nH]c2=O)c(=O)n1-c1ccccc1F

>  <score_type>  (3427) 
oracle

>  <origin>  (3427) 
adg

>  <m_score__min__energy>  (3427) 
-15.35

>  <m_primary>  (3427) 
energy

$$$$
19:0
     RDKit          3D

 34 37  0  0  0  0  0  0  0  0999 V2000
   56.9980   34.6750   44.9080 C   0  0  0  0  0  0  0  0  0  0  0  0
   57.5700   33.4780   45.0630 C   0  0  0  0  0  0  0  0  0  0  0  0
   57.1710   32.3980   44.3480 N   0  0  0  0  0  0  0  0  0  0  0  0
   57.9520   31.3880   44.7790 C   0  0  0  0  0  0  0  0  0  0  0  0
   57.8650   30.1460   44.2810 C   0  0  0  0  0  0  0  0  0  0  0  0
   57.2370   29.0060   44.9740 C   0  0  0  0  0  0  0  0  0  0  0  0
   55.8960   28.6360   44.9890 C   0  0  0  0  0  0  0  0  0  0  0  0
   54.8680   29.3560   44.3920 O   0  0  0  0  0  0  0  0  0  0  0  0
   55.6950   27.4530   45.6200 N   0  0  0  0  0  0  0  0  0  0  0  0
   56.9330   27.0660   45.9840 C   0  0  0  0  0  0  0  0  0  0  0  0
   57.2740   25.8990   46.6640 C   0  0  0  0  0  0  0  0  0  0  0  0
   58.6330   25.6680   46.9470 C   0  0  0  0  0  0  0  0  0  0  0  0
   59.6240   26.5970   46.5390 C   0  0  0  0  0  0  0  0  0  0  0  0
   61.0390   26.3790   46.9000 C   0  0  0  0  0  0  0  0  0  0  0  0
   61.8500   26.0320   46.0020 O   0  0  0  0  0  0  0  0  0  0  0  0
   61.5040   26.4840   48.2530 N   0  0  0  0  0  0  0  0  0  0  0  0
   60.6830   26.8750   49.3960 C   0  0  0  0  0  0  0  0  0  0  0  0
   60.4490   28.3580   49.3750 C   0  0  0  0  0  0  0  0  0  0  0  0
   59.2200   28.8740   48.9330 C   0  0  0  0  0  0  0  0  0  0  0  0
   59.0040   30.2550   48.9620 C   0  0  0  0  0  0  0  0  0  0  0  0
   60.0090   31.1050   49.4360 C   0  0  0  0  0  0  0  0  0  0  0  0
   61.2180   30.5550   49.8770 C   0  0  0  0  0  0  0  0  0  0  0  0
   61.4090   29.2070   49.8410 N   0  0  0  0  0  0  0  0  0  0  0  0
   59.2430   27.7770   45.8630 C   0  0  0  0  0  0  0  0  0  0  0  0
   57.8900   27.9700   45.5950 C   0  0  0  0  0  0  0  0  0  0  0  0
   58.8240   31.8840   45.7320 C   0  0  0  0  0  0  0  0  0  0  0  0
   59.7430   31.2450   46.3130 O   0  0  0  0  0  0  0  0  0  0  0  0
   58.5850   33.1960   45.9230 N   0  0  0  0  0  0  0  0  0  0  0  0
   59.2950   34.0770   46.8660 C   0  0  0  0  0  0  0  0  0  0  0  0
   60.8060   34.0680   46.5880 C   0  0  0  0  0  0  0  0  0  0  0  0
   61.6030   33.3160   47.6810 C   0  0  0  0  0  0  0  0  0  0  0  0
   63.0200   33.0600   47.3350 N   0  0  0  0  0  0  0  0  0  0  0  0
   63.9530   33.6480   48.3100 C   0  0  0  0  0  0  0  0  0  0  0  0
   63.3090   31.6340   47.1100 C   0  0  0  0  0  0  0  0  0  0  0  0
  1  2  2  0
  2  3  1  0
  3  4  1  0
  4  5  2  3
  5  6  1  0
  6  7  2  0
  7  8  1  0
  7  9  1  0
  9 10  1  0
 10 11  2  0
 11 12  1  0
 12 13  2  0
 13 14  1  0
 14 15  2  0
 14 16  1  0
 16 17  1  0
 17 18  1  0
 18 19  2  0
 19 20  1  0
 20 21  2  0
 21 22  1  0
 22 23  2  0
 13 24  1  0
 24 25  2  0
  4 26  1  0
 26 27  2  0
 26 28  1  0
 28 29  1  0
 29 30  1  0
 30 31  1  0
 31 32  1  0
 32 33  1  0
 32 34  1  0
 28  2  1  0
 25  6  1  0
 25 10  1  0
 23 18  1  0
M  CHG  4   3  -1   8  -1   9  -1  16  -1
M  END
>  <UniqueID>  (3428) 
18

>  <SMILES>  (3428) 
C=c1[n-]c(=Cc2c([O-])[n-]c3ccc(C(=O)[N-]Cc4ccccn4)cc23)c(=O)n1CCCN(C)C

>  <Energy>  (3428) 
140.10352196211

>  <Genealogy>  (3428) 
C=c1[n-]c(=Cc2c([O-])[n-]c3ccc(C(=O)[N-]Cc4ccccn4)cc23)c(=O)n1CCCN(C)C (protonated)
C=c1[n-]c(=Cc2c([O-])[n-]c3ccc(C(=O)[N-]Cc4ccccn4)cc23)c(=O)n1CCCN(C)C (3D coordinates assigned)
C=c1[n-]c(=Cc2c([O-])[n-]c3ccc(C(=O)[N-]Cc4ccccn4)cc23)c(=O)n1CCCN(C)C (optimized conformer: 140.10352196211 kcal/mol)

>  <smiles>  (3428) 
C=c1[nH]c(=Cc2c(O)[nH]c3ccc(C(=O)NCc4ccccn4)cc23)c(=O)n1CCCN(C)C

>  <score_type>  (3428) 
oracle

>  <origin>  (3428) 
adg

>  <m_score__min__energy>  (3428) 
-16.02

>  <m_primary>  (3428) 
energy

$$$$
22:0
     RDKit          3D

 36 39  0  0  0  0  0  0  0  0999 V2000
   57.5090   31.8010   42.2190 C   0  0  0  0  0  0  0  0  0  0  0  0
   57.7880   31.6880   43.5330 C   0  0  0  0  0  0  0  0  0  0  0  0
   57.9810   32.8750   44.2500 C   0  0  0  0  0  0  0  0  0  0  0  0
   58.5360   32.8650   45.5310 C   0  0  0  0  0  0  0  0  0  0  0  0
   58.7370   34.1530   46.2530 C   0  0  0  0  0  0  0  0  0  0  0  0
   57.7710   34.9540   46.3910 O   0  0  0  0  0  0  0  0  0  0  0  0
   59.9890   34.4790   46.7900 O   0  0  0  0  0  0  0  0  0  0  0  0
   60.1760   34.9770   48.1140 C   0  0  0  0  0  0  0  0  0  0  0  0
   61.2870   34.2010   48.8490 C   0  0  2  0  0  0  0  0  0  0  0  0
   62.3260   33.6100   47.8610 C   0  0  0  0  0  0  0  0  0  0  0  0
   62.0520   32.1260   47.5820 C   0  0  0  0  0  0  0  0  0  0  0  0
   62.1480   31.3050   48.8180 N   0  0  2  0  0  0  0  0  0  0  0  0
   61.4260   30.0340   48.6330 C   0  0  0  0  0  0  0  0  0  0  0  0
   61.6870   32.0050   50.0510 C   0  0  0  0  0  0  0  0  0  0  0  0
   60.6660   33.1110   49.7520 C   0  0  0  0  0  0  0  0  0  0  0  0
   58.9320   31.6320   46.0760 C   0  0  0  0  0  0  0  0  0  0  0  0
   59.5170   31.6050   47.1960 O   0  0  0  0  0  0  0  0  0  0  0  0
   58.6860   30.4550   45.4090 N   0  0  0  0  0  0  0  0  0  0  0  0
   59.1110   29.2330   46.0510 C   0  0  0  0  0  0  0  0  0  0  0  0
   60.2650   28.5700   45.6100 C   0  0  0  0  0  0  0  0  0  0  0  0
   60.6750   27.3860   46.2300 C   0  0  0  0  0  0  0  0  0  0  0  0
   59.9350   26.8610   47.2950 C   0  0  0  0  0  0  0  0  0  0  0  0
   60.3350   25.7120   47.8960 F   0  0  0  0  0  0  0  0  0  0  0  0
   58.7850   27.5190   47.7390 C   0  0  0  0  0  0  0  0  0  0  0  0
   58.3710   28.7020   47.1200 C   0  0  0  0  0  0  0  0  0  0  0  0
   58.0170   30.4390   44.1940 C   0  0  0  0  0  0  0  0  0  0  0  0
   57.5620   29.2480   43.6940 C   0  0  0  0  0  0  0  0  0  0  0  0
   57.0750   28.0940   44.4880 C   0  0  0  0  0  0  0  0  0  0  0  0
   55.8950   28.1640   45.2500 C   0  0  0  0  0  0  0  0  0  0  0  0
   55.1340   29.3280   45.2800 O   0  0  0  0  0  0  0  0  0  0  0  0
   55.4960   27.0930   45.9820 N   0  0  0  0  0  0  0  0  0  0  0  0
   56.2280   25.9510   46.0110 C   0  0  0  0  0  0  0  0  0  0  0  0
   55.8350   24.9690   46.6910 O   0  0  0  0  0  0  0  0  0  0  0  0
   57.3890   25.8690   45.3120 N   0  0  0  0  0  0  0  0  0  0  0  0
   57.8320   26.9110   44.5630 C   0  0  0  0  0  0  0  0  0  0  0  0
   58.9180   26.8030   43.9320 O   0  0  0  0  0  0  0  0  0  0  0  0
  1  2  2  0
  2  3  1  0
  3  4  2  0
  4  5  1  0
  5  6  2  0
  5  7  1  0
  7  8  1  0
  9  8  1  6
  9 10  1  0
 10 11  1  0
 11 12  1  0
 12 13  1  6
 12 14  1  0
 14 15  1  0
  4 16  1  0
 16 17  2  0
 16 18  1  0
 18 19  1  0
 19 20  2  0
 20 21  1  0
 21 22  2  0
 22 23  1  0
 22 24  1  0
 24 25  2  0
 18 26  1  0
 26 27  2  0
 27 28  1  0
 28 29  2  0
 29 30  1  0
 29 31  1  0
 31 32  1  0
 32 33  2  0
 32 34  1  0
 34 35  1  0
 35 36  2  0
 26  2  1  0
 35 28  1  0
 15  9  1  0
 25 19  1  0
M  CHG  4  12   1  30  -1  31  -1  34  -1
M  END
>  <UniqueID>  (3429) 
21

>  <SMILES>  (3429) 
C=c1cc(C(=O)OCC2CC[NH+](C)CC2)c(=O)n(-c2ccc(F)cc2)/c1=C/c1c([O-])[n-]c(=O)[n-]c1=O

>  <Energy>  (3429) 
109.93935546027629

>  <Genealogy>  (3429) 
C=c1cc(C(=O)OCC2CC[NH+](C)CC2)c(=O)n(-c2ccc(F)cc2)c1=Cc1c([O-])[n-]c(=O)[n-]c1=O (protonated)
C=c1cc(C(=O)OCC2CC[NH+](C)CC2)c(=O)n(-c2ccc(F)cc2)/c1=C/c1c([O-])[n-]c(=O)[n-]c1=O (cis-trans isomerization)
C=c1cc(C(=O)OCC2CC[NH+](C)CC2)c(=O)n(-c2ccc(F)cc2)/c1=C/c1c([O-])[n-]c(=O)[n-]c1=O (3D coordinates assigned)
C=c1cc(C(=O)OCC2CC[NH+](C)CC2)c(=O)n(-c2ccc(F)cc2)/c1=C/c1c([O-])[n-]c(=O)[n-]c1=O (nonaromatic ring conformer: 109.93935546027629 kcal/mol)

>  <smiles>  (3429) 
C=c1cc(C(=O)OCC2CCN(C)CC2)c(=O)n(-c2ccc(F)cc2)c1=Cc1c(O)[nH]c(=O)[nH]c1=O

>  <score_type>  (3429) 
oracle

>  <origin>  (3429) 
adg

>  <m_score__min__energy>  (3429) 
-15.01

>  <m_primary>  (3429) 
energy

$$$$
25:0
     RDKit          3D

 31 34  0  0  0  0  0  0  0  0999 V2000
   61.2000   30.9480   48.5390 C   0  0  0  0  0  0  0  0  0  0  0  0
   60.3670   31.6660   47.7700 C   0  0  0  0  0  0  0  0  0  0  0  0
   59.7970   32.8320   48.1640 N   0  0  0  0  0  0  0  0  0  0  0  0
   60.0100   33.5800   49.4090 C   0  0  0  0  0  0  0  0  0  0  0  0
   59.0810   33.0860   50.4730 C   0  0  0  0  0  0  0  0  0  0  0  0
   58.2690   31.9630   50.3920 C   0  0  0  0  0  0  0  0  0  0  0  0
   57.5300   31.7330   51.5600 C   0  0  0  0  0  0  0  0  0  0  0  0
   57.7610   32.6690   52.5590 C   0  0  0  0  0  0  0  0  0  0  0  0
   58.8850   33.7830   51.9910 S   0  0  0  0  0  0  0  0  0  0  0  0
   59.0550   33.2320   47.1150 C   0  0  0  0  0  0  0  0  0  0  0  0
   58.4390   34.3300   47.0800 O   0  0  0  0  0  0  0  0  0  0  0  0
   59.1410   32.2970   46.0910 C   0  0  0  0  0  0  0  0  0  0  0  0
   58.5340   32.3380   44.8830 C   0  0  0  0  0  0  0  0  0  0  0  0
   57.4550   31.4380   44.4350 C   0  0  0  0  0  0  0  0  0  0  0  0
   56.7420   30.6220   45.2330 N   0  0  0  0  0  0  0  0  0  0  0  0
   55.9820   29.9180   44.3660 C   0  0  0  0  0  0  0  0  0  0  0  0
   55.1590   29.0440   44.7410 O   0  0  0  0  0  0  0  0  0  0  0  0
   56.1840   30.2170   43.0650 N   0  0  0  0  0  0  0  0  0  0  0  0
   57.1280   31.1720   43.1270 C   0  0  0  0  0  0  0  0  0  0  0  0
   57.6860   31.7850   42.0100 O   0  0  0  0  0  0  0  0  0  0  0  0
   59.9960   31.3180   46.5030 N   0  0  0  0  0  0  0  0  0  0  0  0
   60.3780   30.0860   45.7870 C   0  0  0  0  0  0  0  0  0  0  0  0
   59.7050   28.8850   46.4040 C   0  0  0  0  0  0  0  0  0  0  0  0
   60.1040   28.4150   47.6640 C   0  0  0  0  0  0  0  0  0  0  0  0
   59.4730   27.3100   48.2360 C   0  0  0  0  0  0  0  0  0  0  0  0
   58.4390   26.6610   47.5570 C   0  0  0  0  0  0  0  0  0  0  0  0
   58.0270   27.1110   46.2900 C   0  0  0  0  0  0  0  0  0  0  0  0
   56.9300   26.4230   45.5680 C   0  0  0  0  0  0  0  0  0  0  0  0
   55.5830   26.5270   46.0260 N   0  0  0  0  0  0  0  0  0  0  0  0
   57.1780   25.7360   44.5400 O   0  0  0  0  0  0  0  0  0  0  0  0
   58.6710   28.2240   45.7200 C   0  0  0  0  0  0  0  0  0  0  0  0
  1  2  2  0
  2  3  1  0
  3  4  1  0
  4  5  1  0
  5  6  2  0
  6  7  1  0
  7  8  2  0
  8  9  1  0
  3 10  1  0
 10 11  2  0
 10 12  1  0
 12 13  2  3
 13 14  1  0
 14 15  1  0
 15 16  1  0
 16 17  2  0
 16 18  1  0
 18 19  1  0
 19 20  1  0
 12 21  1  0
 21 22  1  0
 22 23  1  0
 23 24  2  0
 24 25  1  0
 25 26  2  0
 26 27  1  0
 27 28  1  0
 28 29  1  0
 28 30  2  0
 27 31  2  0
 21  2  1  0
 31 23  1  0
  9  5  1  0
 19 14  2  0
M  CHG  3  15  -1  18  -1  29  -1
M  END
>  <UniqueID>  (3430) 
24

>  <SMILES>  (3430) 
C=c1n(Cc2cccs2)c(=O)c(=Cc2[n-]c(=O)[n-]c2O)n1Cc1cccc(C([NH-])=O)c1

>  <Energy>  (3430) 
147.80052533277455

>  <Genealogy>  (3430) 
C=c1n(Cc2cccs2)c(=O)c(=Cc2[n-]c(=O)[n-]c2O)n1Cc1cccc(C([NH-])=O)c1 (protonated)
C=c1n(Cc2cccs2)c(=O)c(=Cc2[n-]c(=O)[n-]c2O)n1Cc1cccc(C([NH-])=O)c1 (3D coordinates assigned)
C=c1n(Cc2cccs2)c(=O)c(=Cc2[n-]c(=O)[n-]c2O)n1Cc1cccc(C([NH-])=O)c1 (optimized conformer: 147.80052533277455 kcal/mol)

>  <smiles>  (3430) 
C=c1n(Cc2cccs2)c(=O)c(=Cc2[nH]c(=O)[nH]c2O)n1Cc1cccc(C(N)=O)c1

>  <score_type>  (3430) 
oracle

>  <origin>  (3430) 
adg

>  <m_score__min__energy>  (3430) 
-14.52

>  <m_primary>  (3430) 
energy

$$$$
31:0
     RDKit          3D

 25 27  0  0  0  0  0  0  0  0999 V2000
   57.5510   33.8690   46.0120 C   0  0  0  0  0  0  0  0  0  0  0  0
   57.9670   32.6020   45.9660 C   0  0  0  0  0  0  0  0  0  0  0  0
   57.5320   31.7360   45.0210 N   0  0  0  0  0  0  0  0  0  0  0  0
   58.1600   30.5760   45.3140 C   0  0  0  0  0  0  0  0  0  0  0  0
   58.0000   29.4280   44.6410 C   0  0  0  0  0  0  0  0  0  0  0  0
   57.4170   28.2070   45.2440 C   0  0  0  0  0  0  0  0  0  0  0  0
   56.0260   28.0150   45.3440 C   0  0  0  0  0  0  0  0  0  0  0  0
   55.1360   28.9650   44.8570 O   0  0  0  0  0  0  0  0  0  0  0  0
   55.5380   26.8740   45.8940 N   0  0  0  0  0  0  0  0  0  0  0  0
   56.3690   25.8970   46.3380 C   0  0  0  0  0  0  0  0  0  0  0  0
   55.8920   24.8500   46.8470 O   0  0  0  0  0  0  0  0  0  0  0  0
   57.7120   26.0460   46.2260 N   0  0  0  0  0  0  0  0  0  0  0  0
   58.2530   27.1670   45.6860 C   0  0  0  0  0  0  0  0  0  0  0  0
   59.5050   27.2680   45.5960 O   0  0  0  0  0  0  0  0  0  0  0  0
   58.9480   30.7640   46.4270 C   0  0  0  0  0  0  0  0  0  0  0  0
   59.6610   29.8880   46.9890 O   0  0  0  0  0  0  0  0  0  0  0  0
   58.8390   32.0390   46.8430 N   0  0  0  0  0  0  0  0  0  0  0  0
   59.5390   32.6590   47.9750 C   0  0  0  0  0  0  0  0  0  0  0  0
   61.0120   32.8010   47.6840 C   0  0  0  0  0  0  0  0  0  0  0  0
   61.9490   32.0100   48.3720 C   0  0  0  0  0  0  0  0  0  0  0  0
   63.3160   32.1440   48.1110 C   0  0  0  0  0  0  0  0  0  0  0  0
   63.7590   33.0630   47.1580 C   0  0  0  0  0  0  0  0  0  0  0  0
   62.8380   33.8460   46.4610 C   0  0  0  0  0  0  0  0  0  0  0  0
   61.4680   33.7170   46.7160 C   0  0  0  0  0  0  0  0  0  0  0  0
   60.5920   34.4790   46.0160 F   0  0  0  0  0  0  0  0  0  0  0  0
  1  2  2  0
  2  3  1  0
  3  4  1  0
  4  5  2  0
  5  6  1  0
  6  7  2  0
  7  8  1  0
  7  9  1  0
  9 10  1  0
 10 11  2  0
 10 12  1  0
 12 13  1  0
 13 14  2  0
  4 15  1  0
 15 16  2  0
 15 17  1  0
 17 18  1  0
 18 19  1  0
 19 20  2  0
 20 21  1  0
 21 22  2  0
 22 23  1  0
 23 24  2  0
 24 25  1  0
 17  2  1  0
 24 19  1  0
 13  6  1  0
M  CHG  4   3  -1   8  -1   9  -1  12  -1
M  END
>  <UniqueID>  (3431) 
30

>  <SMILES>  (3431) 
C=c1[n-]/c(=C\c2c([O-])[n-]c(=O)[n-]c2=O)c(=O)n1Cc1ccccc1F

>  <Energy>  (3431) 
78.11096432104351

>  <Genealogy>  (3431) 
C=c1[n-]c(=Cc2c([O-])[n-]c(=O)[n-]c2=O)c(=O)n1Cc1ccccc1F (protonated)
C=c1[n-]/c(=C\c2c([O-])[n-]c(=O)[n-]c2=O)c(=O)n1Cc1ccccc1F (cis-trans isomerization)
C=c1[n-]/c(=C\c2c([O-])[n-]c(=O)[n-]c2=O)c(=O)n1Cc1ccccc1F (3D coordinates assigned)
C=c1[n-]/c(=C\c2c([O-])[n-]c(=O)[n-]c2=O)c(=O)n1Cc1ccccc1F (optimized conformer: 78.11096432104351 kcal/mol)

>  <smiles>  (3431) 
C=c1[nH]c(=Cc2c(O)[nH]c(=O)[nH]c2=O)c(=O)n1Cc1ccccc1F

>  <score_type>  (3431) 
oracle

>  <origin>  (3431) 
adg

>  <m_score__min__energy>  (3431) 
-16.219999999999999

>  <m_primary>  (3431) 
energy

$$$$
34:0
     RDKit          3D

 35 39  0  0  0  0  0  0  0  0999 V2000
   55.9800   29.9090   55.4520 C   0  0  0  0  0  0  0  0  0  0  0  0
   55.2340   30.1230   54.3660 C   0  0  0  0  0  0  0  0  0  0  0  0
   53.9100   29.8370   54.3340 N   0  0  0  0  0  0  0  0  0  0  0  0
   53.5080   30.2340   53.1060 C   0  0  0  0  0  0  0  0  0  0  0  0
   52.2560   30.1550   52.6380 C   0  0  0  0  0  0  0  0  0  0  0  0
   51.8390   30.5070   51.2650 C   0  0  0  0  0  0  0  0  0  0  0  0
   51.9950   29.6580   50.2260 N   0  0  0  0  0  0  0  0  0  0  0  0
   51.4390   30.3090   49.1830 C   0  0  0  0  0  0  0  0  0  0  0  0
   51.4060   29.8300   48.0190 O   0  0  0  0  0  0  0  0  0  0  0  0
   50.9160   31.5060   49.5110 N   0  0  0  0  0  0  0  0  0  0  0  0
   50.2940   32.4760   48.6210 C   0  0  0  0  0  0  0  0  0  0  0  0
   51.1640   31.6340   50.8240 C   0  0  0  0  0  0  0  0  0  0  0  0
   50.7410   32.7120   51.5950 O   0  0  0  0  0  0  0  0  0  0  0  0
   54.5900   30.7590   52.4300 C   0  0  0  0  0  0  0  0  0  0  0  0
   54.5850   31.2090   51.2540 O   0  0  0  0  0  0  0  0  0  0  0  0
   55.6830   30.6840   53.2110 N   0  0  0  0  0  0  0  0  0  0  0  0
   57.0180   31.0900   52.8560 C   0  0  0  0  0  0  0  0  0  0  0  0
   57.6490   32.1240   53.5650 C   0  0  0  0  0  0  0  0  0  0  0  0
   58.9270   32.5530   53.1940 C   0  0  0  0  0  0  0  0  0  0  0  0
   59.5740   31.9690   52.1030 C   0  0  0  0  0  0  0  0  0  0  0  0
   58.9420   30.9550   51.3640 C   0  0  0  0  0  0  0  0  0  0  0  0
   59.6240   30.3780   50.1850 C   0  0  0  0  0  0  0  0  0  0  0  0
   60.6140   29.6170   50.3770 O   0  0  0  0  0  0  0  0  0  0  0  0
   59.2230   30.6970   48.8330 N   0  0  0  0  0  0  0  0  0  0  0  0
   58.5430   31.9710   48.5500 C   0  0  0  0  0  0  0  0  0  0  0  0
   58.7290   32.4030   47.0960 C   0  0  0  0  0  0  0  0  0  0  0  0
   58.3940   31.2960   46.1970 N   0  0  0  0  0  0  0  0  0  0  0  0
   57.6250   31.5460   45.0080 C   0  0  0  0  0  0  0  0  0  0  0  0
   56.6330   32.3210   45.0550 O   0  0  0  0  0  0  0  0  0  0  0  0
   57.9590   30.8630   43.7150 C   0  0  0  0  0  0  0  0  0  0  0  0
   57.4400   31.5740   42.4680 C   0  0  0  0  0  0  0  0  0  0  0  0
   56.7400   30.3250   42.9700 C   0  0  0  0  0  0  0  0  0  0  0  0
   58.8460   29.9370   46.5010 C   0  0  0  0  0  0  0  0  0  0  0  0
   59.7650   29.8980   47.7270 C   0  0  0  0  0  0  0  0  0  0  0  0
   57.6730   30.5020   51.7610 C   0  0  0  0  0  0  0  0  0  0  0  0
  1  2  2  0
  2  3  1  0
  3  4  1  0
  4  5  2  0
  5  6  1  0
  6  7  1  0
  7  8  1  0
  8  9  2  0
  8 10  1  0
 10 11  1  0
 10 12  1  0
 12 13  1  0
  4 14  1  0
 14 15  2  0
 14 16  1  0
 16 17  1  0
 17 18  2  0
 18 19  1  0
 19 20  2  0
 20 21  1  0
 21 22  1  0
 22 23  2  0
 22 24  1  0
 24 25  1  0
 25 26  1  0
 26 27  1  0
 27 28  1  0
 28 29  2  0
 28 30  1  0
 30 31  1  0
 31 32  1  0
 27 33  1  0
 33 34  1  0
 21 35  2  0
 16  2  1  0
 35 17  1  0
 12  6  2  0
 34 24  1  0
 32 30  1  0
M  CHG  3   3  -1   7  -1  13  -1
M  END
>  <UniqueID>  (3432) 
33

>  <SMILES>  (3432) 
C=c1[n-]/c(=C\c2[n-]c(=O)n(C)c2[O-])c(=O)n1-c1cccc(C(=O)N2CCN(C(=O)C3CC3)CC2)c1

>  <Energy>  (3432) 
407.95091203930866

>  <Genealogy>  (3432) 
C=c1[n-]c(=Cc2[n-]c(=O)n(C)c2[O-])c(=O)n1-c1cccc(C(=O)N2CCN(C(=O)C3CC3)CC2)c1 (protonated)
C=c1[n-]/c(=C\c2[n-]c(=O)n(C)c2[O-])c(=O)n1-c1cccc(C(=O)N2CCN(C(=O)C3CC3)CC2)c1 (cis-trans isomerization)
C=c1[n-]/c(=C\c2[n-]c(=O)n(C)c2[O-])c(=O)n1-c1cccc(C(=O)N2CCN(C(=O)C3CC3)CC2)c1 (3D coordinates assigned)
C=c1[n-]/c(=C\c2[n-]c(=O)n(C)c2[O-])c(=O)n1-c1cccc(C(=O)N2CCN(C(=O)C3CC3)CC2)c1 (nonaromatic ring conformer: 407.95091203930866 kcal/mol)

>  <smiles>  (3432) 
C=c1[nH]c(=Cc2[nH]c(=O)n(C)c2O)c(=O)n1-c1cccc(C(=O)N2CCN(C(=O)C3CC3)CC2)c1

>  <score_type>  (3432) 
oracle

>  <origin>  (3432) 
adg

>  <m_score__min__energy>  (3432) 
-17.16

>  <m_primary>  (3432) 
energy

$$$$
37:0
     RDKit          3D

 30 33  0  0  0  0  0  0  0  0999 V2000
   54.2360   29.0620   54.1910 C   0  0  0  0  0  0  0  0  0  0  0  0
   54.8870   29.7550   53.2430 C   0  0  0  0  0  0  0  0  0  0  0  0
   54.3420   30.7430   52.4180 C   0  0  0  0  0  0  0  0  0  0  0  0
   53.0810   31.2170   52.4340 C   0  0  0  0  0  0  0  0  0  0  0  0
   52.1990   31.2600   51.2520 C   0  0  0  0  0  0  0  0  0  0  0  0
   52.2580   30.3590   50.2560 N   0  0  0  0  0  0  0  0  0  0  0  0
   51.3610   30.8220   49.3600 C   0  0  0  0  0  0  0  0  0  0  0  0
   51.1140   30.2280   48.2780 O   0  0  0  0  0  0  0  0  0  0  0  0
   50.7530   31.9770   49.7100 N   0  0  0  0  0  0  0  0  0  0  0  0
   51.3020   32.2470   50.9050 C   0  0  0  0  0  0  0  0  0  0  0  0
   51.0240   33.3960   51.6350 O   0  0  0  0  0  0  0  0  0  0  0  0
   55.3790   31.1940   51.6150 C   0  0  0  0  0  0  0  0  0  0  0  0
   56.4990   30.4630   51.9610 C   0  0  0  0  0  0  0  0  0  0  0  0
   57.8670   30.6900   51.3730 C   0  0  0  0  0  0  0  0  0  0  0  0
   58.1730   32.1560   51.1870 C   0  0  0  0  0  0  0  0  0  0  0  0
   57.7740   32.9840   52.0530 O   0  0  0  0  0  0  0  0  0  0  0  0
   58.8870   32.6350   50.0260 N   0  0  0  0  0  0  0  0  0  0  0  0
   58.9230   31.8840   48.7640 C   0  0  0  0  0  0  0  0  0  0  0  0
   60.3590   31.8130   48.2120 C   0  0  0  0  0  0  0  0  0  0  0  0
   61.1980   32.9780   48.5900 N   0  0  0  0  0  0  0  0  0  0  0  0
   62.3700   32.7140   49.4690 C   0  0  0  0  0  0  0  0  0  0  0  0
   63.6290   33.4200   48.9020 C   0  0  0  0  0  0  0  0  0  0  0  0
   64.9530   32.7580   49.3330 C   0  0  0  0  0  0  0  0  0  0  0  0
   64.8460   32.1320   50.7270 C   0  0  0  0  0  0  0  0  0  0  0  0
   63.7700   31.0290   50.7810 C   0  0  0  0  0  0  0  0  0  0  0  0
   62.6450   31.2140   49.7400 C   0  0  0  0  0  0  0  0  0  0  0  0
   60.4360   34.2070   48.8930 C   0  0  0  0  0  0  0  0  0  0  0  0
   59.4320   34.0000   50.0350 C   0  0  0  0  0  0  0  0  0  0  0  0
   56.2010   29.5860   52.9510 N   0  0  0  0  0  0  0  0  0  0  0  0
   57.1280   28.6650   53.6180 C   0  0  0  0  0  0  0  0  0  0  0  0
  1  2  2  0
  2  3  1  0
  3  4  2  0
  4  5  1  0
  5  6  1  0
  6  7  1  0
  7  8  2  0
  7  9  1  0
  9 10  1  0
 10 11  1  0
  3 12  1  0
 12 13  2  0
 13 14  1  0
 14 15  1  0
 15 16  2  0
 15 17  1  0
 17 18  1  0
 18 19  1  0
 19 20  1  0
 20 21  1  0
 21 22  1  0
 22 23  1  0
 23 24  1  0
 24 25  1  0
 25 26  1  0
 20 27  1  0
 27 28  1  0
 13 29  1  0
 29 30  1  0
 29  2  1  0
 10  5  2  0
 28 17  1  0
 26 21  1  0
M  CHG  3   6  -1   9  -1  11  -1
M  END
>  <UniqueID>  (3433) 
36

>  <SMILES>  (3433) 
C=c1/c(=C/c2[n-]c(=O)[n-]c2[O-])cc(CC(=O)N2CCN(C3CCCCC3)CC2)n1C

>  <Energy>  (3433) 
141.12554237291823

>  <Genealogy>  (3433) 
C=c1c(=Cc2[n-]c(=O)[n-]c2[O-])cc(CC(=O)N2CCN(C3CCCCC3)CC2)n1C (protonated)
C=c1/c(=C/c2[n-]c(=O)[n-]c2[O-])cc(CC(=O)N2CCN(C3CCCCC3)CC2)n1C (cis-trans isomerization)
C=c1/c(=C/c2[n-]c(=O)[n-]c2[O-])cc(CC(=O)N2CCN(C3CCCCC3)CC2)n1C (3D coordinates assigned)
C=c1/c(=C/c2[n-]c(=O)[n-]c2[O-])cc(CC(=O)N2CCN(C3CCCCC3)CC2)n1C (nonaromatic ring conformer: 141.12554237291823 kcal/mol)

>  <smiles>  (3433) 
C=c1c(=Cc2[nH]c(=O)[nH]c2O)cc(CC(=O)N2CCN(C3CCCCC3)CC2)n1C

>  <score_type>  (3433) 
oracle

>  <origin>  (3433) 
adg

>  <m_score__min__energy>  (3433) 
-19.530000000000001

>  <m_primary>  (3433) 
energy

$$$$
38:0
     RDKit          3D

 30 33  0  0  0  0  0  0  0  0999 V2000
   57.4500   29.9560   43.5300 C   0  0  0  0  0  0  0  0  0  0  0  0
   58.0800   30.1880   44.6930 C   0  0  0  0  0  0  0  0  0  0  0  0
   58.4370   29.2370   45.6630 C   0  0  0  0  0  0  0  0  0  0  0  0
   58.4450   27.8900   45.6240 C   0  0  0  0  0  0  0  0  0  0  0  0
   57.2710   27.0190   45.7960 C   0  0  0  0  0  0  0  0  0  0  0  0
   57.3020   25.7870   46.3380 N   0  0  0  0  0  0  0  0  0  0  0  0
   55.9970   25.4490   46.4200 C   0  0  0  0  0  0  0  0  0  0  0  0
   55.6120   24.3390   46.8700 O   0  0  0  0  0  0  0  0  0  0  0  0
   55.1380   26.3980   45.9910 N   0  0  0  0  0  0  0  0  0  0  0  0
   55.9610   27.3900   45.6150 C   0  0  0  0  0  0  0  0  0  0  0  0
   55.5240   28.6120   45.1220 O   0  0  0  0  0  0  0  0  0  0  0  0
   58.8480   29.9540   46.7730 C   0  0  0  0  0  0  0  0  0  0  0  0
   58.8130   31.2880   46.4250 C   0  0  0  0  0  0  0  0  0  0  0  0
   59.2600   32.3770   47.3160 C   0  0  0  0  0  0  0  0  0  0  0  0
   58.3990   33.1790   47.7700 O   0  0  0  0  0  0  0  0  0  0  0  0
   60.6390   32.5090   47.7150 N   0  0  0  0  0  0  0  0  0  0  0  0
   61.5160   31.3350   47.8440 C   0  0  0  0  0  0  0  0  0  0  0  0
   62.1760   31.3290   49.2260 C   0  0  0  0  0  0  0  0  0  0  0  0
   62.7540   32.6510   49.4990 N   0  0  0  0  0  0  0  0  0  0  0  0
   64.1810   32.8380   49.4960 C   0  0  0  0  0  0  0  0  0  0  0  0
   64.6850   33.7480   48.7830 O   0  0  0  0  0  0  0  0  0  0  0  0
   65.0660   31.9940   50.3240 C   0  0  0  0  0  0  0  0  0  0  0  0
   64.6000   31.0120   51.2160 C   0  0  0  0  0  0  0  0  0  0  0  0
   65.6110   30.3570   51.9020 C   0  0  0  0  0  0  0  0  0  0  0  0
   67.0810   31.0070   51.4120 S   0  0  0  0  0  0  0  0  0  0  0  0
   66.4530   32.1220   50.3240 C   0  0  0  0  0  0  0  0  0  0  0  0
   61.8570   33.8060   49.4010 C   0  0  0  0  0  0  0  0  0  0  0  0
   61.2090   33.8290   48.0160 C   0  0  0  0  0  0  0  0  0  0  0  0
   58.3360   31.4350   45.1660 N   0  0  0  0  0  0  0  0  0  0  0  0
   58.0050   32.7010   44.4990 C   0  0  0  0  0  0  0  0  0  0  0  0
  1  2  2  0
  2  3  1  0
  3  4  2  3
  4  5  1  0
  5  6  1  0
  6  7  1  0
  7  8  2  0
  7  9  1  0
  9 10  1  0
 10 11  1  0
  3 12  1  0
 12 13  2  0
 13 14  1  0
 14 15  2  0
 14 16  1  0
 16 17  1  0
 17 18  1  0
 18 19  1  0
 19 20  1  0
 20 21  2  0
 20 22  1  0
 22 23  1  0
 23 24  2  0
 24 25  1  0
 25 26  1  0
 19 27  1  0
 27 28  1  0
 13 29  1  0
 29 30  1  0
 29  2  1  0
 10  5  2  0
 28 16  1  0
 26 22  2  0
M  CHG  3   6  -1   9  -1  11  -1
M  END
>  <UniqueID>  (3434) 
37

>  <SMILES>  (3434) 
C=c1c(=Cc2[n-]c(=O)[n-]c2[O-])cc(C(=O)N2CCN(C(=O)c3ccsc3)CC2)n1C

>  <Energy>  (3434) 
155.0522683285801

>  <Genealogy>  (3434) 
C=c1c(=Cc2[n-]c(=O)[n-]c2[O-])cc(C(=O)N2CCN(C(=O)c3ccsc3)CC2)n1C (protonated)
C=c1c(=Cc2[n-]c(=O)[n-]c2[O-])cc(C(=O)N2CCN(C(=O)c3ccsc3)CC2)n1C (3D coordinates assigned)
C=c1c(=Cc2[n-]c(=O)[n-]c2[O-])cc(C(=O)N2CCN(C(=O)c3ccsc3)CC2)n1C (nonaromatic ring conformer: 155.0522683285801 kcal/mol)

>  <smiles>  (3434) 
C=c1c(=Cc2[nH]c(=O)[nH]c2O)cc(C(=O)N2CCN(C(=O)c3ccsc3)CC2)n1C

>  <score_type>  (3434) 
oracle

>  <origin>  (3434) 
adg

>  <m_score__min__energy>  (3434) 
-17.579999999999998

>  <m_primary>  (3434) 
energy

$$$$
46:0
     RDKit          3D

 26 28  0  0  0  0  0  0  0  0999 V2000
   53.8750   30.1110   54.8650 C   0  0  0  0  0  0  0  0  0  0  0  0
   54.4720   30.3070   53.6780 C   0  0  0  0  0  0  0  0  0  0  0  0
   53.8260   30.4960   52.4500 C   0  0  0  0  0  0  0  0  0  0  0  0
   52.4950   30.5060   52.2240 C   0  0  0  0  0  0  0  0  0  0  0  0
   51.8410   30.8800   50.9510 C   0  0  0  0  0  0  0  0  0  0  0  0
   51.7420   30.1040   49.8560 N   0  0  0  0  0  0  0  0  0  0  0  0
   51.0250   30.8570   48.9960 C   0  0  0  0  0  0  0  0  0  0  0  0
   50.7260   30.4660   47.8380 O   0  0  0  0  0  0  0  0  0  0  0  0
   50.6480   32.0610   49.4780 N   0  0  0  0  0  0  0  0  0  0  0  0
   51.1670   32.0560   50.7150 C   0  0  0  0  0  0  0  0  0  0  0  0
   51.0270   33.1060   51.6150 O   0  0  0  0  0  0  0  0  0  0  0  0
   54.8330   30.7130   51.5180 C   0  0  0  0  0  0  0  0  0  0  0  0
   56.0350   30.6460   52.1970 C   0  0  0  0  0  0  0  0  0  0  0  0
   57.3570   30.9170   51.5800 C   0  0  0  0  0  0  0  0  0  0  0  0
   58.2020   29.9820   51.5010 O   0  0  0  0  0  0  0  0  0  0  0  0
   57.7130   32.2490   51.1370 N   0  0  1  0  0  0  0  0  0  0  0  0
   57.7290   33.1570   52.2970 C   0  0  0  0  0  0  0  0  0  0  0  0
   59.0210   32.2210   50.4430 C   0  0  0  0  0  0  0  0  0  0  0  0
   58.9690   32.9350   49.1130 C   0  0  0  0  0  0  0  0  0  0  0  0
   59.7640   34.0720   48.8900 C   0  0  0  0  0  0  0  0  0  0  0  0
   59.7330   34.7220   47.6520 C   0  0  0  0  0  0  0  0  0  0  0  0
   58.9130   34.2410   46.6280 C   0  0  0  0  0  0  0  0  0  0  0  0
   58.1240   33.1080   46.8390 C   0  0  0  0  0  0  0  0  0  0  0  0
   58.1510   32.4540   48.0750 C   0  0  0  0  0  0  0  0  0  0  0  0
   55.8190   30.3720   53.5070 N   0  0  0  0  0  0  0  0  0  0  0  0
   56.8480   30.1980   54.5400 C   0  0  0  0  0  0  0  0  0  0  0  0
  1  2  2  0
  2  3  1  0
  3  4  2  0
  4  5  1  0
  5  6  1  0
  6  7  1  0
  7  8  2  0
  7  9  1  0
  9 10  1  0
 10 11  1  0
  3 12  1  0
 12 13  2  0
 13 14  1  0
 14 15  2  0
 14 16  1  0
 16 17  1  1
 16 18  1  0
 18 19  1  0
 19 20  2  0
 20 21  1  0
 21 22  2  0
 22 23  1  0
 23 24  2  0
 13 25  1  0
 25 26  1  0
 25  2  1  0
 10  5  2  0
 24 19  1  0
M  CHG  4   6  -1   9  -1  11  -1  16   1
M  END
>  <UniqueID>  (3435) 
45

>  <SMILES>  (3435) 
C=c1/c(=C/c2[n-]c(=O)[n-]c2[O-])cc(C(=O)[N@@H+](C)Cc2ccccc2)n1C

>  <Energy>  (3435) 
114.00940223416055

>  <Genealogy>  (3435) 
C=c1c(=Cc2[n-]c(=O)[n-]c2[O-])cc(C(=O)[NH+](C)Cc2ccccc2)n1C (protonated)
C=c1c(=Cc2[n-]c(=O)[n-]c2[O-])cc(C(=O)[N@@H+](C)Cc2ccccc2)n1C (chirality)
C=c1/c(=C/c2[n-]c(=O)[n-]c2[O-])cc(C(=O)[N@@H+](C)Cc2ccccc2)n1C (cis-trans isomerization)
C=c1/c(=C/c2[n-]c(=O)[n-]c2[O-])cc(C(=O)[N@@H+](C)Cc2ccccc2)n1C (3D coordinates assigned)
C=c1/c(=C/c2[n-]c(=O)[n-]c2[O-])cc(C(=O)[N@@H+](C)Cc2ccccc2)n1C (optimized conformer: 114.00940223416055 kcal/mol)

>  <smiles>  (3435) 
C=c1c(=Cc2[nH]c(=O)[nH]c2O)cc(C(=O)N(C)Cc2ccccc2)n1C

>  <score_type>  (3435) 
oracle

>  <origin>  (3435) 
adg

>  <m_score__min__energy>  (3435) 
-16.48

>  <m_primary>  (3435) 
energy

$$$$
58:0
     RDKit          3D

 33 36  0  0  0  0  0  0  0  0999 V2000
   59.5040   35.0330   45.7980 C   0  0  0  0  0  0  0  0  0  0  0  0
   59.7230   33.7210   45.9850 C   0  0  0  0  0  0  0  0  0  0  0  0
   58.9310   32.6560   45.5230 C   0  0  0  0  0  0  0  0  0  0  0  0
   57.8990   32.6300   44.6580 C   0  0  0  0  0  0  0  0  0  0  0  0
   57.0860   31.4510   44.3230 C   0  0  0  0  0  0  0  0  0  0  0  0
   56.6440   30.5690   45.2370 N   0  0  0  0  0  0  0  0  0  0  0  0
   56.0760   29.5990   44.4890 C   0  0  0  0  0  0  0  0  0  0  0  0
   55.5280   28.5860   44.9950 O   0  0  0  0  0  0  0  0  0  0  0  0
   56.1560   29.7930   43.1540 N   0  0  0  0  0  0  0  0  0  0  0  0
   56.8120   30.9600   43.0650 C   0  0  0  0  0  0  0  0  0  0  0  0
   57.1750   31.5510   41.8620 O   0  0  0  0  0  0  0  0  0  0  0  0
   59.4150   31.5190   46.1450 C   0  0  0  0  0  0  0  0  0  0  0  0
   60.5080   31.9010   46.8940 C   0  0  0  0  0  0  0  0  0  0  0  0
   61.3150   30.9560   47.7480 C   0  0  0  0  0  0  0  0  0  0  0  0
   60.4610   29.8940   48.4010 C   0  0  0  0  0  0  0  0  0  0  0  0
   60.2040   29.9840   49.6350 O   0  0  0  0  0  0  0  0  0  0  0  0
   59.9610   28.7600   47.6520 N   0  0  0  0  0  0  0  0  0  0  0  0
   60.3850   28.5150   46.2630 C   0  0  0  0  0  0  0  0  0  0  0  0
   60.4840   27.0120   45.9790 C   0  0  0  0  0  0  0  0  0  0  0  0
   59.2870   26.3230   46.4700 N   0  0  0  0  0  0  0  0  0  0  0  0
   58.6780   25.2630   45.7090 C   0  0  0  0  0  0  0  0  0  0  0  0
   57.5650   25.5160   44.8910 C   0  0  0  0  0  0  0  0  0  0  0  0
   56.9700   24.4810   44.1630 C   0  0  0  0  0  0  0  0  0  0  0  0
   57.4820   23.1720   44.2330 C   0  0  0  0  0  0  0  0  0  0  0  0
   56.8610   22.0590   43.4720 C   0  0  0  0  0  0  0  0  0  0  0  0
   57.3320   20.7150   43.5910 N   0  0  0  0  0  0  0  0  0  0  0  0
   55.8830   22.2960   42.7120 O   0  0  0  0  0  0  0  0  0  0  0  0
   58.5900   22.9220   45.0630 C   0  0  0  0  0  0  0  0  0  0  0  0
   59.1820   23.9570   45.7900 C   0  0  0  0  0  0  0  0  0  0  0  0
   58.9100   26.5440   47.8690 C   0  0  0  0  0  0  0  0  0  0  0  0
   58.7710   28.0420   48.1340 C   0  0  0  0  0  0  0  0  0  0  0  0
   60.7030   33.2390   46.7940 N   0  0  0  0  0  0  0  0  0  0  0  0
   61.7030   34.0360   47.5140 C   0  0  0  0  0  0  0  0  0  0  0  0
  1  2  2  0
  2  3  1  0
  3  4  2  3
  4  5  1  0
  5  6  1  0
  6  7  1  0
  7  8  2  0
  7  9  1  0
  9 10  1  0
 10 11  1  0
  3 12  1  0
 12 13  2  0
 13 14  1  0
 14 15  1  0
 15 16  2  0
 15 17  1  0
 17 18  1  0
 18 19  1  0
 19 20  1  0
 20 21  1  0
 21 22  2  0
 22 23  1  0
 23 24  2  0
 24 25  1  0
 25 26  1  0
 25 27  2  0
 24 28  1  0
 28 29  2  0
 20 30  1  0
 30 31  1  0
 13 32  1  0
 32 33  1  0
 32  2  1  0
 10  5  2  0
 31 17  1  0
 29 21  1  0
M  CHG  3   6  -1   9  -1  11  -1
M  END
>  <UniqueID>  (3436) 
56

>  <SMILES>  (3436) 
C=c1c(=Cc2[n-]c(=O)[n-]c2[O-])cc(CC(=O)N2CCN(c3ccc(C(N)=O)cc3)CC2)n1C

>  <Energy>  (3436) 
135.51882569848698

>  <Genealogy>  (3436) 
C=c1c(=Cc2[n-]c(=O)[n-]c2[O-])cc(CC(=O)N2CCN(c3ccc(C(N)=O)cc3)CC2)n1C (protonated)
C=c1c(=Cc2[n-]c(=O)[n-]c2[O-])cc(CC(=O)N2CCN(c3ccc(C(N)=O)cc3)CC2)n1C (3D coordinates assigned)
C=c1c(=Cc2[n-]c(=O)[n-]c2[O-])cc(CC(=O)N2CCN(c3ccc(C(N)=O)cc3)CC2)n1C (nonaromatic ring conformer: 135.51882569848698 kcal/mol)

>  <smiles>  (3436) 
C=c1c(=Cc2[nH]c(=O)[nH]c2O)cc(CC(=O)N2CCN(c3ccc(C(N)=O)cc3)CC2)n1C

>  <score_type>  (3436) 
oracle

>  <origin>  (3436) 
adg

>  <m_score__min__energy>  (3436) 
-17.170000000000002

>  <m_primary>  (3436) 
energy

$$$$
65:0
     RDKit          3D

 31 34  0  0  0  0  0  0  0  0999 V2000
   64.5180   33.2120   49.5340 C   0  0  0  0  0  0  0  0  0  0  0  0
   63.4590   32.1450   49.4490 C   0  0  0  0  0  0  0  0  0  0  0  0
   63.2720   31.2720   50.5460 C   0  0  0  0  0  0  0  0  0  0  0  0
   62.2900   30.2930   50.4500 C   0  0  0  0  0  0  0  0  0  0  0  0
   61.9680   29.3950   51.3520 O   0  0  0  0  0  0  0  0  0  0  0  0
   60.9870   28.6620   50.8580 C   0  0  0  0  0  0  0  0  0  0  0  0
   60.6570   29.1050   49.5810 C   0  0  0  0  0  0  0  0  0  0  0  0
   59.5800   28.5650   48.6850 C   0  0  0  0  0  0  0  0  0  0  0  0
   60.0550   27.3580   47.9160 C   0  0  0  0  0  0  0  0  0  0  0  0
   61.0150   26.6780   48.3660 O   0  0  0  0  0  0  0  0  0  0  0  0
   59.3510   26.8730   46.7650 N   0  0  0  0  0  0  0  0  0  0  0  0
   58.1950   27.4810   46.1770 C   0  0  0  0  0  0  0  0  0  0  0  0
   58.2960   28.7710   45.6490 C   0  0  0  0  0  0  0  0  0  0  0  0
   57.1730   29.4000   45.0930 C   0  0  0  0  0  0  0  0  0  0  0  0
   57.2970   30.7590   44.5240 C   0  0  0  0  0  0  0  0  0  0  0  0
   57.1220   30.9170   43.2850 O   0  0  0  0  0  0  0  0  0  0  0  0
   57.6410   31.8920   45.3440 N   0  0  0  0  0  0  0  0  0  0  0  0
   57.0470   33.2060   45.0810 C   0  0  0  0  0  0  0  0  0  0  0  0
   58.0840   34.3030   45.3430 C   0  0  0  0  0  0  0  0  0  0  0  0
   58.6610   34.1570   46.6270 O   0  0  0  0  0  0  0  0  0  0  0  0
   59.3980   32.9500   46.6850 C   0  0  0  0  0  0  0  0  0  0  0  0
   58.4690   31.7400   46.5450 C   0  0  0  0  0  0  0  0  0  0  0  0
   55.9540   28.7000   45.0640 C   0  0  0  0  0  0  0  0  0  0  0  0
   54.8310   29.2490   44.4570 O   0  0  0  0  0  0  0  0  0  0  0  0
   55.8680   27.4610   45.6180 N   0  0  0  0  0  0  0  0  0  0  0  0
   56.9410   26.8470   46.1840 C   0  0  0  0  0  0  0  0  0  0  0  0
   56.7940   25.7230   46.7280 O   0  0  0  0  0  0  0  0  0  0  0  0
   61.5120   30.1590   49.3350 C   0  0  0  0  0  0  0  0  0  0  0  0
   61.6590   30.9930   48.2300 C   0  0  0  0  0  0  0  0  0  0  0  0
   62.6440   32.0040   48.2820 C   0  0  0  0  0  0  0  0  0  0  0  0
   62.8220   32.9150   47.0960 C   0  0  0  0  0  0  0  0  0  0  0  0
  1  2  1  0
  2  3  2  0
  3  4  1  0
  4  5  1  0
  5  6  1  0
  6  7  2  0
  7  8  1  0
  8  9  1  0
  9 10  2  0
  9 11  1  0
 11 12  1  0
 12 13  2  0
 13 14  1  0
 14 15  1  0
 15 16  2  0
 15 17  1  0
 17 18  1  0
 18 19  1  0
 19 20  1  0
 20 21  1  0
 21 22  1  0
 14 23  2  0
 23 24  1  0
 23 25  1  0
 25 26  1  0
 26 27  2  0
  7 28  1  0
 28 29  1  0
 29 30  2  0
 30 31  1  0
 30  2  1  0
 28  4  2  0
 26 12  1  0
 22 17  1  0
M  CHG  3  11  -1  24  -1  25  -1
M  END
>  <UniqueID>  (3437) 
63

>  <SMILES>  (3437) 
Cc1cc2occ(CC(=O)[N-]c3cc(C(=O)N4CCOCC4)c([O-])[n-]c3=O)c2cc1C

>  <Energy>  (3437) 
103.22167041016853

>  <Genealogy>  (3437) 
Cc1cc2occ(CC(=O)[N-]c3cc(C(=O)N4CCOCC4)c([O-])[n-]c3=O)c2cc1C (protonated)
Cc1cc2occ(CC(=O)[N-]c3cc(C(=O)N4CCOCC4)c([O-])[n-]c3=O)c2cc1C (3D coordinates assigned)
Cc1cc2occ(CC(=O)[N-]c3cc(C(=O)N4CCOCC4)c([O-])[n-]c3=O)c2cc1C (nonaromatic ring conformer: 103.22167041016853 kcal/mol)

>  <smiles>  (3437) 
Cc1cc2occ(CC(=O)Nc3cc(C(=O)N4CCOCC4)c(O)[nH]c3=O)c2cc1C

>  <score_type>  (3437) 
oracle

>  <origin>  (3437) 
adg

>  <m_score__min__energy>  (3437) 
-15.609999999999999

>  <m_primary>  (3437) 
energy

$$$$
69:0
     RDKit          3D

 37 40  0  0  0  0  0  0  0  0999 V2000
   59.1060   21.8850   44.5730 C   0  0  0  0  0  0  0  0  0  0  0  0
   57.8250   22.6510   44.4280 C   0  0  0  0  0  0  0  0  0  0  0  0
   56.8600   22.2460   43.4890 C   0  0  0  0  0  0  0  0  0  0  0  0
   55.6720   22.9650   43.3520 C   0  0  0  0  0  0  0  0  0  0  0  0
   55.4310   24.0840   44.1540 C   0  0  0  0  0  0  0  0  0  0  0  0
   56.3860   24.4970   45.0920 C   0  0  0  0  0  0  0  0  0  0  0  0
   56.1110   25.6410   45.9750 C   0  0  0  0  0  0  0  0  0  0  0  0
   54.9500   26.1260   46.0040 O   0  0  0  0  0  0  0  0  0  0  0  0
   57.1350   26.2470   46.7710 N   0  0  0  0  0  0  0  0  0  0  0  0
   58.7800   26.4550   46.2550 S   0  0  0  0  0  0  0  0  0  0  0  0
   58.8430   26.4240   44.7510 O   0  0  0  0  0  0  0  0  0  0  0  0
   59.6150   25.3310   46.8010 O   0  0  0  0  0  0  0  0  0  0  0  0
   59.4140   27.9780   46.8790 C   0  0  0  0  0  0  0  0  0  0  0  0
   60.5310   28.5590   46.2700 C   0  0  0  0  0  0  0  0  0  0  0  0
   61.1020   29.7150   46.8070 C   0  0  0  0  0  0  0  0  0  0  0  0
   60.5590   30.2970   47.9550 C   0  0  0  0  0  0  0  0  0  0  0  0
   59.4390   29.7230   48.5820 C   0  0  0  0  0  0  0  0  0  0  0  0
   58.8800   30.3160   49.8160 C   0  0  0  0  0  0  0  0  0  0  0  0
   58.5790   29.5720   50.7890 O   0  0  0  0  0  0  0  0  0  0  0  0
   58.7200   31.7410   49.9210 N   0  0  0  0  0  0  0  0  0  0  0  0
   58.8240   32.7070   48.8670 C   0  0  0  0  0  0  0  0  0  0  0  0
   59.6230   33.8380   49.0750 C   0  0  0  0  0  0  0  0  0  0  0  0
   59.7960   34.7800   48.0570 C   0  0  0  0  0  0  0  0  0  0  0  0
   59.1920   34.5880   46.8120 C   0  0  0  0  0  0  0  0  0  0  0  0
   58.4050   33.4510   46.5790 C   0  0  0  0  0  0  0  0  0  0  0  0
   57.7030   33.1580   44.9810 S   0  0  0  0  0  0  0  0  0  0  0  0
   58.7990   33.1880   43.9460 O   0  0  0  0  0  0  0  0  0  0  0  0
   56.7380   34.2670   44.6620 O   0  0  0  0  0  0  0  0  0  0  0  0
   56.8990   31.6030   44.8880 N   0  0  0  0  0  0  0  0  0  0  0  0
   56.6570   31.2150   43.4890 C   0  0  0  0  0  0  0  0  0  0  0  0
   55.8720   29.8850   43.4400 C   0  0  0  0  0  0  0  0  0  0  0  0
   55.9430   29.1500   44.6530 O   0  0  0  0  0  0  0  0  0  0  0  0
   57.2710   29.1500   45.1440 C   0  0  0  0  0  0  0  0  0  0  0  0
   57.6640   30.5650   45.6120 C   0  0  0  0  0  0  0  0  0  0  0  0
   58.2180   32.5170   47.6090 C   0  0  0  0  0  0  0  0  0  0  0  0
   58.8680   28.5640   48.0290 C   0  0  0  0  0  0  0  0  0  0  0  0
   57.5960   23.7970   45.2050 C   0  0  0  0  0  0  0  0  0  0  0  0
  1  2  1  0
  2  3  2  0
  3  4  1  0
  4  5  2  0
  5  6  1  0
  6  7  1  0
  7  8  2  0
  7  9  1  0
  9 10  1  0
 10 11  2  0
 10 12  2  0
 10 13  1  0
 13 14  2  0
 14 15  1  0
 15 16  2  0
 16 17  1  0
 17 18  1  0
 18 19  2  0
 18 20  1  0
 20 21  1  0
 21 22  2  0
 22 23  1  0
 23 24  2  0
 24 25  1  0
 25 26  1  0
 26 27  2  0
 26 28  2  0
 26 29  1  0
 29 30  1  0
 30 31  1  0
 31 32  1  0
 32 33  1  0
 33 34  1  0
 25 35  2  0
 17 36  2  0
  6 37  2  0
 37  2  1  0
 36 13  1  0
 35 21  1  0
 34 29  1  0
M  CHG  2   9  -1  20  -1
M  END
>  <UniqueID>  (3438) 
67

>  <SMILES>  (3438) 
Cc1cccc(C(=O)[N-]S(=O)(=O)c2cccc(C(=O)[N-]c3cccc(S(=O)(=O)N4CCOCC4)c3)c2)c1

>  <Energy>  (3438) 
79.92180727038475

>  <Genealogy>  (3438) 
Cc1cccc(C(=O)[N-]S(=O)(=O)c2cccc(C(=O)[N-]c3cccc(S(=O)(=O)N4CCOCC4)c3)c2)c1 (protonated)
Cc1cccc(C(=O)[N-]S(=O)(=O)c2cccc(C(=O)[N-]c3cccc(S(=O)(=O)N4CCOCC4)c3)c2)c1 (3D coordinates assigned)
Cc1cccc(C(=O)[N-]S(=O)(=O)c2cccc(C(=O)[N-]c3cccc(S(=O)(=O)N4CCOCC4)c3)c2)c1 (nonaromatic ring conformer: 79.92180727038475 kcal/mol)

>  <smiles>  (3438) 
Cc1cccc(C(=O)NS(=O)(=O)c2cccc(C(=O)Nc3cccc(S(=O)(=O)N4CCOCC4)c3)c2)c1

>  <score_type>  (3438) 
oracle

>  <origin>  (3438) 
adg

>  <m_score__min__energy>  (3438) 
-14.77

>  <m_primary>  (3438) 
energy

$$$$
73:0
     RDKit          3D

 32 34  0  0  0  0  0  0  0  0999 V2000
   49.9960   28.8850   53.5510 C   0  0  0  0  0  0  0  0  0  0  0  0
   50.2840   29.9610   52.8180 C   0  0  0  0  0  0  0  0  0  0  0  0
   51.6670   30.4270   52.5590 C   0  0  0  0  0  0  0  0  0  0  0  0
   52.7240   29.7330   53.1750 C   0  0  0  0  0  0  0  0  0  0  0  0
   54.0460   30.1380   52.9900 C   0  0  0  0  0  0  0  0  0  0  0  0
   54.3370   31.2670   52.2100 C   0  0  0  0  0  0  0  0  0  0  0  0
   55.7040   31.6700   52.0340 N   0  0  0  0  0  0  0  0  0  0  0  0
   56.7990   30.7440   51.9490 C   0  0  0  0  0  0  0  0  0  0  0  0
   56.6000   29.5100   52.0620 O   0  0  0  0  0  0  0  0  0  0  0  0
   58.2030   31.2450   51.7190 C   0  0  0  0  0  0  0  0  0  0  0  0
   58.4110   31.8430   50.3810 N   0  0  0  0  0  0  0  0  0  0  0  0
   58.5640   30.8280   49.3290 C   0  0  0  0  0  0  0  0  0  0  0  0
   58.7400   31.4660   47.9330 C   0  0  0  0  0  0  0  0  0  0  0  0
   58.8170   32.9420   47.9600 N   0  0  0  0  0  0  0  0  0  0  0  0
   58.4590   33.7140   46.7890 C   0  0  0  0  0  0  0  0  0  0  0  0
   58.5260   34.9760   46.8300 O   0  0  0  0  0  0  0  0  0  0  0  0
   58.0460   33.0610   45.5230 C   0  0  0  0  0  0  0  0  0  0  0  0
   58.6230   31.9650   45.0040 C   0  0  0  0  0  0  0  0  0  0  0  0
   58.1280   30.5760   45.1650 C   0  0  0  0  0  0  0  0  0  0  0  0
   58.9630   29.5380   45.6160 C   0  0  0  0  0  0  0  0  0  0  0  0
   58.4720   28.2360   45.7370 C   0  0  0  0  0  0  0  0  0  0  0  0
   57.1460   27.9360   45.3800 C   0  0  0  0  0  0  0  0  0  0  0  0
   56.6310   26.5510   45.4930 C   0  0  0  0  0  0  0  0  0  0  0  0
   55.3220   26.3060   46.0080 N   0  0  0  0  0  0  0  0  0  0  0  0
   57.3340   25.5770   45.1160 O   0  0  0  0  0  0  0  0  0  0  0  0
   56.3260   28.9680   44.8910 C   0  0  0  0  0  0  0  0  0  0  0  0
   56.8160   30.2710   44.7750 C   0  0  0  0  0  0  0  0  0  0  0  0
   59.4010   33.6600   49.1030 C   0  0  0  0  0  0  0  0  0  0  0  0
   59.5430   32.7770   50.3380 C   0  0  0  0  0  0  0  0  0  0  0  0
   53.2870   31.9660   51.5890 C   0  0  0  0  0  0  0  0  0  0  0  0
   51.9600   31.5640   51.7710 C   0  0  0  0  0  0  0  0  0  0  0  0
   50.9460   32.3190   51.1900 O   0  0  0  0  0  0  0  0  0  0  0  0
  1  2  2  0
  2  3  1  0
  3  4  2  0
  4  5  1  0
  5  6  2  0
  6  7  1  0
  7  8  1  0
  8  9  2  0
  8 10  1  0
 10 11  1  0
 11 12  1  0
 12 13  1  0
 13 14  1  0
 14 15  1  0
 15 16  2  0
 15 17  1  0
 17 18  2  3
 18 19  1  0
 19 20  2  0
 20 21  1  0
 21 22  2  0
 22 23  1  0
 23 24  1  0
 23 25  2  0
 22 26  1  0
 26 27  2  0
 14 28  1  0
 28 29  1  0
  6 30  1  0
 30 31  2  0
 31 32  1  0
 31  3  1  0
 29 11  1  0
 27 19  1  0
M  CHG  2  24  -1  32  -1
M  END
>  <UniqueID>  (3439) 
71

>  <SMILES>  (3439) 
C=Cc1ccc(NC(=O)CN2CCN(C(=O)C=Cc3ccc(C([NH-])=O)cc3)CC2)cc1[O-]

>  <Energy>  (3439) 
81.63502945506363

>  <Genealogy>  (3439) 
C=Cc1ccc(NC(=O)CN2CCN(C(=O)C=Cc3ccc(C([NH-])=O)cc3)CC2)cc1[O-] (protonated)
C=Cc1ccc(NC(=O)CN2CCN(C(=O)C=Cc3ccc(C([NH-])=O)cc3)CC2)cc1[O-] (3D coordinates assigned)
C=Cc1ccc(NC(=O)CN2CCN(C(=O)C=Cc3ccc(C([NH-])=O)cc3)CC2)cc1[O-] (nonaromatic ring conformer: 81.63502945506363 kcal/mol)

>  <smiles>  (3439) 
C=Cc1ccc(NC(=O)CN2CCN(C(=O)C=Cc3ccc(C(N)=O)cc3)CC2)cc1O

>  <score_type>  (3439) 
oracle

>  <origin>  (3439) 
adg

>  <m_score__min__energy>  (3439) 
-16.289999999999999

>  <m_primary>  (3439) 
energy

$$$$
77:0
     RDKit          3D

 32 35  0  0  0  0  0  0  0  0999 V2000
   59.5690   28.6330   48.1030 C   0  0  0  0  0  0  0  0  0  0  0  0
   59.2700   29.1460   46.9090 C   0  0  0  0  0  0  0  0  0  0  0  0
   59.7550   28.2920   45.4170 S   0  0  0  0  0  0  0  0  0  0  0  0
   58.0390   27.9120   45.0220 C   0  0  0  0  0  0  0  0  0  0  0  0
   57.6400   26.6710   44.6900 C   0  0  0  0  0  0  0  0  0  0  0  0
   57.0670   25.7020   45.6390 C   0  0  0  0  0  0  0  0  0  0  0  0
   57.6880   24.5640   45.9960 N   0  0  0  0  0  0  0  0  0  0  0  0
   56.7870   23.9510   46.7930 C   0  0  0  0  0  0  0  0  0  0  0  0
   57.0130   22.8420   47.3430 O   0  0  0  0  0  0  0  0  0  0  0  0
   55.6220   24.6150   46.9470 N   0  0  0  0  0  0  0  0  0  0  0  0
   55.8100   25.7150   46.2000 C   0  0  0  0  0  0  0  0  0  0  0  0
   54.8330   26.6810   45.9980 O   0  0  0  0  0  0  0  0  0  0  0  0
   57.0830   29.0450   44.9930 C   0  0  0  0  0  0  0  0  0  0  0  0
   56.0330   28.9720   44.2990 O   0  0  0  0  0  0  0  0  0  0  0  0
   57.3330   30.2350   45.7610 N   0  0  0  0  0  0  0  0  0  0  0  0
   58.3840   30.3220   46.7430 C   0  0  0  0  0  0  0  0  0  0  0  0
   58.5080   31.4530   47.4690 C   0  0  0  0  0  0  0  0  0  0  0  0
   59.2620   32.6560   47.0530 C   0  0  0  0  0  0  0  0  0  0  0  0
   58.6200   33.7480   46.4460 C   0  0  0  0  0  0  0  0  0  0  0  0
   59.3500   34.8850   46.0930 C   0  0  0  0  0  0  0  0  0  0  0  0
   60.7210   34.9480   46.3520 C   0  0  0  0  0  0  0  0  0  0  0  0
   61.3770   33.8720   46.9720 C   0  0  0  0  0  0  0  0  0  0  0  0
   62.8260   33.9420   47.2700 C   0  0  0  0  0  0  0  0  0  0  0  0
   63.6410   34.1390   46.3280 O   0  0  0  0  0  0  0  0  0  0  0  0
   63.3270   33.7690   48.6090 N   0  0  0  0  0  0  0  0  0  0  0  0
   64.6070   33.0850   48.8110 C   0  0  0  0  0  0  0  0  0  0  0  0
   64.9120   32.9170   50.3090 C   0  0  0  0  0  0  0  0  0  0  0  0
   63.6990   32.5740   51.0810 N   0  0  0  0  0  0  0  0  0  0  0  0
   63.2070   31.2230   50.7590 C   0  0  0  0  0  0  0  0  0  0  0  0
   62.6250   33.5960   50.9770 C   0  0  0  0  0  0  0  0  0  0  0  0
   62.7290   34.5000   49.7320 C   0  0  0  0  0  0  0  0  0  0  0  0
   60.6330   32.7370   47.3400 C   0  0  0  0  0  0  0  0  0  0  0  0
  1  2  2  0
  2  3  1  0
  3  4  1  0
  4  5  2  3
  5  6  1  0
  6  7  1  0
  7  8  1  0
  8  9  2  0
  8 10  1  0
 10 11  1  0
 11 12  1  0
  4 13  1  0
 13 14  2  0
 13 15  1  0
 15 16  1  0
 16 17  2  3
 17 18  1  0
 18 19  2  0
 19 20  1  0
 20 21  2  0
 21 22  1  0
 22 23  1  0
 23 24  2  0
 23 25  1  0
 25 26  1  0
 26 27  1  0
 27 28  1  0
 28 29  1  0
 28 30  1  0
 30 31  1  0
 22 32  2  0
 16  2  1  0
 32 18  1  0
 11  6  2  0
 31 25  1  0
M  CHG  3   7  -1  10  -1  12  -1
M  END
>  <UniqueID>  (3440) 
75

>  <SMILES>  (3440) 
C=C1SC(=Cc2[n-]c(=O)[n-]c2[O-])C(=O)NC1=Cc1cccc(C(=O)N2CCN(C)CC2)c1

>  <Energy>  (3440) 
116.27374446457904

>  <Genealogy>  (3440) 
C=C1SC(=Cc2[n-]c(=O)[n-]c2[O-])C(=O)NC1=Cc1cccc(C(=O)N2CCN(C)CC2)c1 (protonated)
C=C1SC(=Cc2[n-]c(=O)[n-]c2[O-])C(=O)NC1=Cc1cccc(C(=O)N2CCN(C)CC2)c1 (3D coordinates assigned)
C=C1SC(=Cc2[n-]c(=O)[n-]c2[O-])C(=O)NC1=Cc1cccc(C(=O)N2CCN(C)CC2)c1 (nonaromatic ring conformer: 116.27374446457904 kcal/mol)

>  <smiles>  (3440) 
C=C1SC(=Cc2[nH]c(=O)[nH]c2O)C(=O)NC1=Cc1cccc(C(=O)N2CCN(C)CC2)c1

>  <score_type>  (3440) 
oracle

>  <origin>  (3440) 
adg

>  <m_score__min__energy>  (3440) 
-17.600000000000001

>  <m_primary>  (3440) 
energy

$$$$
81:0
     RDKit          3D

 31 34  0  0  0  0  0  0  0  0999 V2000
   56.2700   32.1610   52.0540 C   0  0  0  0  0  0  0  0  0  0  0  0
   55.7170   30.9870   52.3980 C   0  0  0  0  0  0  0  0  0  0  0  0
   54.4760   30.4920   51.9630 C   0  0  0  0  0  0  0  0  0  0  0  0
   53.4610   31.0930   51.3100 C   0  0  0  0  0  0  0  0  0  0  0  0
   52.2570   31.6670   51.9360 C   0  0  0  0  0  0  0  0  0  0  0  0
   51.8160   31.3650   53.1710 N   0  0  0  0  0  0  0  0  0  0  0  0
   50.6350   32.0160   53.2470 C   0  0  0  0  0  0  0  0  0  0  0  0
   49.9130   31.9910   54.2770 O   0  0  0  0  0  0  0  0  0  0  0  0
   50.2840   32.6860   52.1290 N   0  0  0  0  0  0  0  0  0  0  0  0
   51.3150   32.4420   51.3050 C   0  0  0  0  0  0  0  0  0  0  0  0
   51.3940   32.9160   50.0010 O   0  0  0  0  0  0  0  0  0  0  0  0
   54.4260   29.1680   52.3560 C   0  0  0  0  0  0  0  0  0  0  0  0
   55.5750   28.9200   53.0760 C   0  0  0  0  0  0  0  0  0  0  0  0
   55.9240   27.5840   53.6610 C   0  0  0  0  0  0  0  0  0  0  0  0
   56.3650   30.0200   53.1090 N   0  0  0  0  0  0  0  0  0  0  0  0
   57.6990   30.0860   53.7310 C   0  0  0  0  0  0  0  0  0  0  0  0
   58.7830   29.9580   52.6900 C   0  0  0  0  0  0  0  0  0  0  0  0
   60.1170   29.7530   53.0760 C   0  0  0  0  0  0  0  0  0  0  0  0
   61.1240   29.6650   52.1130 C   0  0  0  0  0  0  0  0  0  0  0  0
   60.8080   29.7720   50.7570 C   0  0  0  0  0  0  0  0  0  0  0  0
   59.4800   29.9500   50.3480 C   0  0  0  0  0  0  0  0  0  0  0  0
   59.1850   30.0810   48.9460 N   0  0  0  0  0  0  0  0  0  0  0  0
   58.9340   28.9660   48.0730 C   0  0  0  0  0  0  0  0  0  0  0  0
   59.2600   27.8000   48.4290 O   0  0  0  0  0  0  0  0  0  0  0  0
   58.3320   29.1840   46.7410 C   0  0  0  0  0  0  0  0  0  0  0  0
   58.0520   30.4520   46.3240 N   0  0  0  0  0  0  0  0  0  0  0  0
   57.4920   30.7080   45.1130 C   0  0  0  0  0  0  0  0  0  0  0  0
   57.1840   29.6570   44.2490 C   0  0  0  0  0  0  0  0  0  0  0  0
   57.4560   28.3470   44.6450 C   0  0  0  0  0  0  0  0  0  0  0  0
   58.0310   28.1030   45.8950 C   0  0  0  0  0  0  0  0  0  0  0  0
   58.4710   30.0590   51.3230 C   0  0  0  0  0  0  0  0  0  0  0  0
  1  2  2  0
  2  3  1  0
  3  4  2  0
  4  5  1  0
  5  6  1  0
  6  7  1  0
  7  8  2  0
  7  9  1  0
  9 10  1  0
 10 11  1  0
  3 12  1  0
 12 13  2  0
 13 14  1  0
 13 15  1  0
 15 16  1  0
 16 17  1  0
 17 18  2  0
 18 19  1  0
 19 20  2  0
 20 21  1  0
 21 22  1  0
 22 23  1  0
 23 24  2  0
 23 25  1  0
 25 26  2  0
 26 27  1  0
 27 28  2  0
 28 29  1  0
 29 30  2  0
 21 31  2  0
 15  2  1  0
 31 17  1  0
 10  5  2  0
 30 25  1  0
M  CHG  3   6  -1   9  -1  11  -1
M  END
>  <UniqueID>  (3441) 
79

>  <SMILES>  (3441) 
C=c1/c(=C\c2[n-]c(=O)[n-]c2[O-])cc(C)n1Cc1cccc(NC(=O)c2ccccn2)c1

>  <Energy>  (3441) 
126.19838562490726

>  <Genealogy>  (3441) 
C=c1c(=Cc2[n-]c(=O)[n-]c2[O-])cc(C)n1Cc1cccc(NC(=O)c2ccccn2)c1 (protonated)
C=c1/c(=C\c2[n-]c(=O)[n-]c2[O-])cc(C)n1Cc1cccc(NC(=O)c2ccccn2)c1 (cis-trans isomerization)
C=c1/c(=C\c2[n-]c(=O)[n-]c2[O-])cc(C)n1Cc1cccc(NC(=O)c2ccccn2)c1 (3D coordinates assigned)
C=c1/c(=C\c2[n-]c(=O)[n-]c2[O-])cc(C)n1Cc1cccc(NC(=O)c2ccccn2)c1 (optimized conformer: 126.19838562490726 kcal/mol)

>  <smiles>  (3441) 
C=c1c(=Cc2[nH]c(=O)[nH]c2O)cc(C)n1Cc1cccc(NC(=O)c2ccccn2)c1

>  <score_type>  (3441) 
oracle

>  <origin>  (3441) 
adg

>  <m_score__min__energy>  (3441) 
-17.170000000000002

>  <m_primary>  (3441) 
energy

$$$$
13:0
     RDKit          3D

 31 34  0  0  0  0  0  0  0  0999 V2000
   57.5950   27.2520   45.1900 C   0  0  0  0  0  0  0  0  0  0  0  0
   56.8490   25.9850   45.1220 C   0  0  0  0  0  0  0  0  0  0  0  0
   57.5080   24.5210   44.6150 S   0  0  0  0  0  0  0  0  0  0  0  0
   56.1190   23.6550   45.0020 C   0  0  0  0  0  0  0  0  0  0  0  0
   55.9970   22.3740   44.8090 N   0  0  0  0  0  0  0  0  0  0  0  0
   56.7130   21.5920   43.8400 C   0  0  0  0  0  0  0  0  0  0  0  0
   56.1050   20.9270   42.9570 O   0  0  0  0  0  0  0  0  0  0  0  0
   58.2010   21.5100   43.9240 C   0  0  0  0  0  0  0  0  0  0  0  0
   55.1600   24.4420   45.5430 N   0  0  0  0  0  0  0  0  0  0  0  0
   55.5720   25.7350   45.6250 C   0  0  0  0  0  0  0  0  0  0  0  0
   54.7750   26.7160   46.2020 O   0  0  0  0  0  0  0  0  0  0  0  0
   58.2270   27.7070   46.2830 C   0  0  0  0  0  0  0  0  0  0  0  0
   59.3460   26.7940   47.1530 S   0  0  0  0  0  0  0  0  0  0  0  0
   59.6450   27.9990   48.2860 C   0  0  0  0  0  0  0  0  0  0  0  0
   60.5010   27.8670   49.3030 C   0  0  0  0  0  0  0  0  0  0  0  0
   58.9170   29.1150   48.0140 N   0  0  0  0  0  0  0  0  0  0  0  0
   58.9390   30.3190   48.7970 C   0  0  0  0  0  0  0  0  0  0  0  0
   58.6040   30.2740   50.1540 C   0  0  0  0  0  0  0  0  0  0  0  0
   58.6260   31.4420   50.9160 C   0  0  0  0  0  0  0  0  0  0  0  0
   58.9930   32.6570   50.3300 C   0  0  0  0  0  0  0  0  0  0  0  0
   59.3470   32.7260   48.9640 C   0  0  0  0  0  0  0  0  0  0  0  0
   59.7510   34.0060   48.2880 C   0  0  0  0  0  0  0  0  0  0  0  0
   60.8060   34.5740   48.6860 O   0  0  0  0  0  0  0  0  0  0  0  0
   59.0190   34.6220   47.1920 N   0  0  0  0  0  0  0  0  0  0  0  0
   57.7890   33.9050   46.7970 C   0  0  0  0  0  0  0  0  0  0  0  0
   57.7820   33.7880   45.2750 C   0  0  0  0  0  0  0  0  0  0  0  0
   58.9450   34.6300   44.7840 C   0  0  0  0  0  0  0  0  0  0  0  0
   59.8480   34.8160   45.9930 C   0  0  0  0  0  0  0  0  0  0  0  0
   59.3000   31.5370   48.2050 C   0  0  0  0  0  0  0  0  0  0  0  0
   58.1390   28.9650   46.9000 C   0  0  0  0  0  0  0  0  0  0  0  0
   57.4290   29.9090   46.4550 O   0  0  0  0  0  0  0  0  0  0  0  0
  1  2  1  0
  2  3  1  0
  3  4  1  0
  4  5  2  0
  5  6  1  0
  6  7  2  0
  6  8  1  0
  4  9  1  0
  9 10  1  0
 10 11  1  0
  1 12  2  3
 12 13  1  0
 13 14  1  0
 14 15  2  0
 14 16  1  0
 16 17  1  0
 17 18  2  0
 18 19  1  0
 19 20  2  0
 20 21  1  0
 21 22  1  0
 22 23  2  0
 22 24  1  0
 24 25  1  0
 25 26  1  0
 26 27  1  0
 27 28  1  0
 21 29  2  0
 16 30  1  0
 30 31  2  0
 10  2  2  0
 30 12  1  0
 29 17  1  0
 28 24  1  0
M  CHG  3   9  -1  11  -1  24   1
M  END
>  <UniqueID>  (3442) 
13

>  <SMILES>  (3442) 
C=c1sc(=Cc2s/c(=N/C(C)=O)[n-]c2[O-])c(=O)n1-c1cccc(C(=O)[NH+]2CCCC2)c1

>  <Energy>  (3442) 
142.29517980836226

>  <Genealogy>  (3442) 
C=c1sc(=Cc2sc(=NC(C)=O)[n-]c2[O-])c(=O)n1-c1cccc(C(=O)[NH+]2CCCC2)c1 (protonated)
C=c1sc(=Cc2s/c(=N/C(C)=O)[n-]c2[O-])c(=O)n1-c1cccc(C(=O)[NH+]2CCCC2)c1 (cis-trans isomerization)
C=c1sc(=Cc2s/c(=N/C(C)=O)[n-]c2[O-])c(=O)n1-c1cccc(C(=O)[NH+]2CCCC2)c1 (3D coordinates assigned)
C=c1sc(=Cc2s/c(=N/C(C)=O)[n-]c2[O-])c(=O)n1-c1cccc(C(=O)[NH+]2CCCC2)c1 (nonaromatic ring conformer: 142.29517980836226 kcal/mol)

>  <smiles>  (3442) 
C=c1sc(=Cc2sc(=NC(C)=O)[nH]c2O)c(=O)n1-c1cccc(C(=O)N2CCCC2)c1

>  <score_type>  (3442) 
oracle

>  <origin>  (3442) 
adg

>  <m_score__min__energy>  (3442) 
-14.68

>  <m_primary>  (3442) 
energy

$$$$
22:0
     RDKit          3D

 32 35  0  0  0  0  0  0  0  0999 V2000
   58.1660   26.0960   43.4860 C   0  0  0  0  0  0  0  0  0  0  0  0
   57.6590   27.3300   43.4930 C   0  0  0  0  0  0  0  0  0  0  0  0
   57.3870   27.9630   42.3730 O   0  0  0  0  0  0  0  0  0  0  0  0
   57.0150   29.1910   42.6470 C   0  0  0  0  0  0  0  0  0  0  0  0
   57.0280   29.3870   44.0120 C   0  0  0  0  0  0  0  0  0  0  0  0
   56.5930   30.6300   44.6820 C   0  0  0  0  0  0  0  0  0  0  0  0
   55.3640   30.9090   44.7000 O   0  0  0  0  0  0  0  0  0  0  0  0
   57.5290   31.4920   45.3510 N   0  0  0  0  0  0  0  0  0  0  0  0
   57.3740   32.9510   45.2760 C   0  0  0  0  0  0  0  0  0  0  0  0
   57.9180   33.6090   46.5490 C   0  0  0  0  0  0  0  0  0  0  0  0
   59.3300   33.2480   46.8140 N   0  0  0  0  0  0  0  0  0  0  0  0
   59.7170   33.5220   48.5000 S   0  0  0  0  0  0  0  0  0  0  0  0
   58.9530   32.5490   49.3540 O   0  0  0  0  0  0  0  0  0  0  0  0
   59.2960   34.9130   48.8900 O   0  0  0  0  0  0  0  0  0  0  0  0
   61.4470   33.3300   48.8010 C   0  0  0  0  0  0  0  0  0  0  0  0
   62.3480   33.2680   47.7270 C   0  0  0  0  0  0  0  0  0  0  0  0
   63.7120   33.0710   47.9640 C   0  0  0  0  0  0  0  0  0  0  0  0
   64.1910   32.9290   49.2780 C   0  0  0  0  0  0  0  0  0  0  0  0
   65.6570   32.7370   49.5420 C   0  0  0  0  0  0  0  0  0  0  0  0
   63.2940   33.0230   50.3530 C   0  0  0  0  0  0  0  0  0  0  0  0
   61.9290   33.2200   50.1150 C   0  0  0  0  0  0  0  0  0  0  0  0
   59.7200   31.8820   46.3860 C   0  0  0  0  0  0  0  0  0  0  0  0
   58.5280   30.9260   46.2650 C   0  0  0  0  0  0  0  0  0  0  0  0
   57.4190   28.1800   44.5860 C   0  0  0  0  0  0  0  0  0  0  0  0
   57.5520   27.9580   45.9110 C   0  0  0  0  0  0  0  0  0  0  0  0
   57.1420   26.7320   46.6130 C   0  0  0  0  0  0  0  0  0  0  0  0
   57.9830   25.9000   47.2540 N   0  0  0  0  0  0  0  0  0  0  0  0
   57.1870   24.8710   47.6180 C   0  0  0  0  0  0  0  0  0  0  0  0
   57.6090   23.8870   48.2770 O   0  0  0  0  0  0  0  0  0  0  0  0
   55.9000   24.9840   47.2230 N   0  0  0  0  0  0  0  0  0  0  0  0
   55.8960   26.1580   46.5720 C   0  0  0  0  0  0  0  0  0  0  0  0
   54.7790   26.6880   45.9430 O   0  0  0  0  0  0  0  0  0  0  0  0
  1  2  2  0
  2  3  1  0
  3  4  1  0
  4  5  2  0
  5  6  1  0
  6  7  2  0
  6  8  1  0
  8  9  1  0
  9 10  1  0
 10 11  1  0
 11 12  1  0
 12 13  2  0
 12 14  2  0
 12 15  1  0
 15 16  2  0
 16 17  1  0
 17 18  2  0
 18 19  1  0
 18 20  1  0
 20 21  2  0
 11 22  1  0
 22 23  1  0
  5 24  1  0
 24 25  2  3
 25 26  1  0
 26 27  1  0
 27 28  1  0
 28 29  2  0
 28 30  1  0
 30 31  1  0
 31 32  1  0
 24  2  1  0
 31 26  2  0
 23  8  1  0
 21 15  1  0
M  CHG  3  27  -1  30  -1  32  -1
M  END
>  <UniqueID>  (3443) 
21

>  <SMILES>  (3443) 
C=c1occ(C(=O)N2CCN(S(=O)(=O)c3ccc(C)cc3)CC2)c1=Cc1[n-]c(=O)[n-]c1[O-]

>  <Energy>  (3443) 
132.16551666235924

>  <Genealogy>  (3443) 
C=c1occ(C(=O)N2CCN(S(=O)(=O)c3ccc(C)cc3)CC2)c1=Cc1[n-]c(=O)[n-]c1[O-] (protonated)
C=c1occ(C(=O)N2CCN(S(=O)(=O)c3ccc(C)cc3)CC2)c1=Cc1[n-]c(=O)[n-]c1[O-] (3D coordinates assigned)
C=c1occ(C(=O)N2CCN(S(=O)(=O)c3ccc(C)cc3)CC2)c1=Cc1[n-]c(=O)[n-]c1[O-] (nonaromatic ring conformer: 132.16551666235924 kcal/mol)

>  <smiles>  (3443) 
C=c1occ(C(=O)N2CCN(S(=O)(=O)c3ccc(C)cc3)CC2)c1=Cc1[nH]c(=O)[nH]c1O

>  <score_type>  (3443) 
oracle

>  <origin>  (3443) 
adg

>  <m_score__min__energy>  (3443) 
-16.649999999999999

>  <m_primary>  (3443) 
energy

$$$$
24:0
     RDKit          3D

 27 29  0  0  0  0  0  0  0  0999 V2000
   59.2000   29.6540   47.7670 C   0  0  0  0  0  0  0  0  0  0  0  0
   58.6510   30.2970   46.7290 C   0  0  0  0  0  0  0  0  0  0  0  0
   58.2660   29.7480   45.5030 C   0  0  0  0  0  0  0  0  0  0  0  0
   58.4060   28.4710   45.1000 C   0  0  0  0  0  0  0  0  0  0  0  0
   57.5380   27.3670   45.5670 C   0  0  0  0  0  0  0  0  0  0  0  0
   56.1390   27.4980   45.6170 C   0  0  0  0  0  0  0  0  0  0  0  0
   55.5200   28.6800   45.2270 O   0  0  0  0  0  0  0  0  0  0  0  0
   55.3790   26.4700   46.0730 N   0  0  0  0  0  0  0  0  0  0  0  0
   55.9460   25.3140   46.5020 C   0  0  0  0  0  0  0  0  0  0  0  0
   55.2200   24.3740   46.9160 O   0  0  0  0  0  0  0  0  0  0  0  0
   57.2960   25.1740   46.4930 N   0  0  0  0  0  0  0  0  0  0  0  0
   58.1010   26.1730   46.0440 C   0  0  0  0  0  0  0  0  0  0  0  0
   59.3500   26.0080   46.0530 O   0  0  0  0  0  0  0  0  0  0  0  0
   57.7290   30.7950   44.7590 C   0  0  0  0  0  0  0  0  0  0  0  0
   57.7940   31.9210   45.5570 C   0  0  0  0  0  0  0  0  0  0  0  0
   57.2600   33.2670   45.1750 C   0  0  0  0  0  0  0  0  0  0  0  0
   58.3830   31.6180   46.7340 N   0  0  0  0  0  0  0  0  0  0  0  0
   58.5680   32.4620   47.8160 O   0  0  0  0  0  0  0  0  0  0  0  0
   59.3750   33.6040   47.7510 C   0  0  0  0  0  0  0  0  0  0  0  0
   58.8500   34.7460   47.6400 O   0  0  0  0  0  0  0  0  0  0  0  0
   60.8120   33.4740   47.7770 N   0  0  0  0  0  0  0  0  0  0  0  0
   61.3730   33.8540   46.4700 C   0  0  0  0  0  0  0  0  0  0  0  0
   62.9140   33.8530   46.5240 C   0  0  0  0  0  0  0  0  0  0  0  0
   63.4780   32.7400   47.3290 N   0  0  0  0  0  0  0  0  0  0  0  0
   64.0700   33.2030   48.5970 C   0  0  0  0  0  0  0  0  0  0  0  0
   62.5290   31.6310   47.5380 C   0  0  0  0  0  0  0  0  0  0  0  0
   61.1960   32.0950   48.1690 C   0  0  0  0  0  0  0  0  0  0  0  0
  1  2  2  0
  2  3  1  0
  3  4  2  3
  4  5  1  0
  5  6  2  0
  6  7  1  0
  6  8  1  0
  8  9  1  0
  9 10  2  0
  9 11  1  0
 11 12  1  0
 12 13  2  0
  3 14  1  0
 14 15  2  0
 15 16  1  0
 15 17  1  0
 17 18  1  0
 18 19  1  0
 19 20  2  0
 19 21  1  0
 21 22  1  0
 22 23  1  0
 23 24  1  0
 24 25  1  0
 24 26  1  0
 26 27  1  0
 17  2  1  0
 27 21  1  0
 12  5  1  0
M  CHG  4   7  -1   8  -1  11  -1  21   1
M  END
>  <UniqueID>  (3444) 
23

>  <SMILES>  (3444) 
C=c1c(=Cc2c([O-])[n-]c(=O)[n-]c2=O)cc(C)n1OC(=O)[NH+]1CCN(C)CC1

>  <Energy>  (3444) 
103.23238955018662

>  <Genealogy>  (3444) 
C=c1c(=Cc2c([O-])[n-]c(=O)[n-]c2=O)cc(C)n1OC(=O)[NH+]1CCN(C)CC1 (protonated)
C=c1c(=Cc2c([O-])[n-]c(=O)[n-]c2=O)cc(C)n1OC(=O)[NH+]1CCN(C)CC1 (3D coordinates assigned)
C=c1c(=Cc2c([O-])[n-]c(=O)[n-]c2=O)cc(C)n1OC(=O)[NH+]1CCN(C)CC1 (nonaromatic ring conformer: 103.23238955018662 kcal/mol)

>  <smiles>  (3444) 
C=c1c(=Cc2c(O)[nH]c(=O)[nH]c2=O)cc(C)n1OC(=O)N1CCN(C)CC1

>  <score_type>  (3444) 
oracle

>  <origin>  (3444) 
adg

>  <m_score__min__energy>  (3444) 
-14.65

>  <m_primary>  (3444) 
energy

$$$$
30:0
     RDKit          3D

 31 34  0  0  0  0  0  0  0  0999 V2000
   51.3090   29.4710   53.7600 C   0  0  0  0  0  0  0  0  0  0  0  0
   52.6460   29.4320   53.8110 C   0  0  0  0  0  0  0  0  0  0  0  0
   53.3040   28.6150   54.6530 N   0  0  0  0  0  0  0  0  0  0  0  0
   54.6170   28.8220   54.4680 C   0  0  0  0  0  0  0  0  0  0  0  0
   55.6670   28.1410   55.2990 C   0  0  0  0  0  0  0  0  0  0  0  0
   54.8250   29.7490   53.4530 C   0  0  0  0  0  0  0  0  0  0  0  0
   56.1590   30.1280   52.9360 C   0  0  0  0  0  0  0  0  0  0  0  0
   56.6330   29.4160   52.0080 O   0  0  0  0  0  0  0  0  0  0  0  0
   56.8610   31.3500   53.3130 N   0  0  2  0  0  0  0  0  0  0  0  0
   56.7570   32.4700   52.3640 C   0  0  0  0  0  0  0  0  0  0  0  0
   57.6970   32.3960   51.1500 C   0  0  0  0  0  0  0  0  0  0  0  0
   58.9460   31.4950   51.2880 C   0  0  1  0  0  0  0  0  0  0  0  0
   60.1620   32.1150   50.6170 C   0  0  0  0  0  0  0  0  0  0  0  0
   60.7960   32.9940   51.2620 O   0  0  0  0  0  0  0  0  0  0  0  0
   60.6230   31.7390   49.2940 N   0  0  0  0  0  0  0  0  0  0  0  0
   61.7510   32.4680   48.6930 C   0  0  0  0  0  0  0  0  0  0  0  0
   62.5240   31.5560   47.7340 C   0  0  0  0  0  0  0  0  0  0  0  0
   61.6560   30.9400   46.8020 O   0  0  0  0  0  0  0  0  0  0  0  0
   60.7580   30.0880   47.4830 C   0  0  0  0  0  0  0  0  0  0  0  0
   59.8280   30.9020   48.3850 C   0  0  0  0  0  0  0  0  0  0  0  0
   59.2890   30.9400   52.6910 C   0  0  0  0  0  0  0  0  0  0  0  0
   58.2410   31.1540   53.7940 C   0  0  0  0  0  0  0  0  0  0  0  0
   53.5510   30.2120   53.0790 C   0  0  0  0  0  0  0  0  0  0  0  0
   53.2110   31.2100   52.2320 C   0  0  0  0  0  0  0  0  0  0  0  0
   52.2450   31.1200   51.1270 C   0  0  0  0  0  0  0  0  0  0  0  0
   52.3200   30.0440   49.8290 S   0  0  0  0  0  0  0  0  0  0  0  0
   51.0980   30.8300   48.9890 C   0  0  0  0  0  0  0  0  0  0  0  0
   50.6500   30.4580   47.8740 O   0  0  0  0  0  0  0  0  0  0  0  0
   50.6500   31.9280   49.6340 N   0  0  0  0  0  0  0  0  0  0  0  0
   51.3080   32.1040   50.8120 C   0  0  0  0  0  0  0  0  0  0  0  0
   51.0570   33.2000   51.6300 O   0  0  0  0  0  0  0  0  0  0  0  0
  1  2  2  0
  2  3  1  0
  3  4  1  0
  4  5  1  0
  4  6  2  0
  6  7  1  0
  7  8  2  0
  9  7  1  6
  9 10  1  0
 10 11  1  0
 11 12  1  0
 12 13  1  1
 13 14  2  0
 13 15  1  0
 15 16  1  0
 16 17  1  0
 17 18  1  0
 18 19  1  0
 19 20  1  0
 12 21  1  0
 21 22  1  0
  6 23  1  0
 23 24  2  3
 24 25  1  0
 25 26  1  0
 26 27  1  0
 27 28  2  0
 27 29  1  0
 29 30  1  0
 30 31  1  0
 23  2  1  0
 30 25  2  0
 22  9  1  0
 20 15  1  0
M  CHG  3   9   1  29  -1  31  -1
M  END
>  <UniqueID>  (3445) 
29

>  <SMILES>  (3445) 
C=c1[nH]c(C)c(C(=O)[NH+]2CCC(C(=O)N3CCOCC3)CC2)c1=Cc1sc(=O)[n-]c1[O-]

>  <Energy>  (3445) 
159.51906550627962

>  <Genealogy>  (3445) 
C=c1[nH]c(C)c(C(=O)[NH+]2CCC(C(=O)N3CCOCC3)CC2)c1=Cc1sc(=O)[n-]c1[O-] (protonated)
C=c1[nH]c(C)c(C(=O)[NH+]2CCC(C(=O)N3CCOCC3)CC2)c1=Cc1sc(=O)[n-]c1[O-] (3D coordinates assigned)
C=c1[nH]c(C)c(C(=O)[NH+]2CCC(C(=O)N3CCOCC3)CC2)c1=Cc1sc(=O)[n-]c1[O-] (nonaromatic ring conformer: 159.51906550627962 kcal/mol)

>  <smiles>  (3445) 
C=c1[nH]c(C)c(C(=O)N2CCC(C(=O)N3CCOCC3)CC2)c1=Cc1sc(=O)[nH]c1O

>  <score_type>  (3445) 
oracle

>  <origin>  (3445) 
adg

>  <m_score__min__energy>  (3445) 
-15.109999999999999

>  <m_primary>  (3445) 
energy

$$$$
31:0
     RDKit          3D

 31 34  0  0  0  0  0  0  0  0999 V2000
   59.6290   29.3630   46.7740 C   0  0  0  0  0  0  0  0  0  0  0  0
   58.6180   29.2790   45.8950 C   0  0  0  0  0  0  0  0  0  0  0  0
   57.9350   28.1170   45.5030 C   0  0  0  0  0  0  0  0  0  0  0  0
   58.2310   26.8150   45.6860 C   0  0  0  0  0  0  0  0  0  0  0  0
   57.4010   25.8460   46.4200 C   0  0  0  0  0  0  0  0  0  0  0  0
   57.8720   24.7470   47.0380 N   0  0  0  0  0  0  0  0  0  0  0  0
   56.7510   24.1130   47.4440 C   0  0  0  0  0  0  0  0  0  0  0  0
   56.7770   23.0320   48.0870 O   0  0  0  0  0  0  0  0  0  0  0  0
   55.5970   24.7260   47.0990 N   0  0  0  0  0  0  0  0  0  0  0  0
   56.0300   25.8140   46.4390 C   0  0  0  0  0  0  0  0  0  0  0  0
   55.1880   26.7570   45.8610 O   0  0  0  0  0  0  0  0  0  0  0  0
   56.8150   28.5410   44.8080 C   0  0  0  0  0  0  0  0  0  0  0  0
   56.8930   29.9150   44.7240 C   0  0  0  0  0  0  0  0  0  0  0  0
   55.9040   30.7800   44.0040 C   0  0  0  0  0  0  0  0  0  0  0  0
   57.9840   30.3660   45.3840 N   0  0  0  0  0  0  0  0  0  0  0  0
   58.3910   31.7430   45.4990 C   0  0  0  0  0  0  0  0  0  0  0  0
   58.2500   32.6190   44.4180 C   0  0  0  0  0  0  0  0  0  0  0  0
   58.6630   33.9480   44.5310 C   0  0  0  0  0  0  0  0  0  0  0  0
   59.2320   34.4230   45.7260 C   0  0  0  0  0  0  0  0  0  0  0  0
   59.6860   35.8580   45.7950 C   0  0  0  0  0  0  0  0  0  0  0  0
   59.3600   33.5440   46.8320 C   0  0  0  0  0  0  0  0  0  0  0  0
   59.9060   33.9850   48.1400 C   0  0  0  0  0  0  0  0  0  0  0  0
   59.2620   34.8180   48.8320 O   0  0  0  0  0  0  0  0  0  0  0  0
   61.1230   33.4210   48.6670 N   0  0  0  0  0  0  0  0  0  0  0  0
   61.2780   33.2740   50.1170 C   0  0  0  0  0  0  0  0  0  0  0  0
   62.5520   32.4810   50.4550 C   0  0  0  0  0  0  0  0  0  0  0  0
   62.7540   31.3460   49.5290 N   0  0  0  0  0  0  0  0  0  0  0  0
   61.7480   30.2880   49.7280 C   0  0  0  0  0  0  0  0  0  0  0  0
   62.8580   31.7530   48.1030 C   0  0  0  0  0  0  0  0  0  0  0  0
   62.2740   33.1470   47.8010 C   0  0  0  0  0  0  0  0  0  0  0  0
   58.9380   32.2110   46.7000 C   0  0  0  0  0  0  0  0  0  0  0  0
  1  2  2  0
  2  3  1  0
  3  4  2  3
  4  5  1  0
  5  6  1  0
  6  7  1  0
  7  8  2  0
  7  9  1  0
  9 10  1  0
 10 11  1  0
  3 12  1  0
 12 13  2  0
 13 14  1  0
 13 15  1  0
 15 16  1  0
 16 17  2  0
 17 18  1  0
 18 19  2  0
 19 20  1  0
 19 21  1  0
 21 22  1  0
 22 23  2  0
 22 24  1  0
 24 25  1  0
 25 26  1  0
 26 27  1  0
 27 28  1  0
 27 29  1  0
 29 30  1  0
 21 31  2  0
 15  2  1  0
 31 16  1  0
 10  5  2  0
 30 24  1  0
M  CHG  2   6  -1   9  -1
M  END
>  <UniqueID>  (3446) 
30

>  <SMILES>  (3446) 
C=c1c(=Cc2[n-]c(=O)[n-]c2O)cc(C)n1-c1ccc(C)c(C(=O)N2CCN(C)CC2)c1

>  <Energy>  (3446) 
144.72865771956842

>  <Genealogy>  (3446) 
C=c1c(=Cc2[n-]c(=O)[n-]c2O)cc(C)n1-c1ccc(C)c(C(=O)N2CCN(C)CC2)c1 (protonated)
C=c1c(=Cc2[n-]c(=O)[n-]c2O)cc(C)n1-c1ccc(C)c(C(=O)N2CCN(C)CC2)c1 (3D coordinates assigned)
C=c1c(=Cc2[n-]c(=O)[n-]c2O)cc(C)n1-c1ccc(C)c(C(=O)N2CCN(C)CC2)c1 (nonaromatic ring conformer: 144.72865771956842 kcal/mol)

>  <smiles>  (3446) 
C=c1c(=Cc2[nH]c(=O)[nH]c2O)cc(C)n1-c1ccc(C)c(C(=O)N2CCN(C)CC2)c1

>  <score_type>  (3446) 
oracle

>  <origin>  (3446) 
adg

>  <m_score__min__energy>  (3446) 
-14.720000000000001

>  <m_primary>  (3446) 
energy

$$$$
47:0
     RDKit          3D

 33 36  0  0  0  0  0  0  0  0999 V2000
   53.9000   28.4630   53.9690 C   0  0  0  0  0  0  0  0  0  0  0  0
   54.4910   29.3240   53.1250 C   0  0  0  0  0  0  0  0  0  0  0  0
   53.8400   30.2560   52.3100 C   0  0  0  0  0  0  0  0  0  0  0  0
   52.5130   30.4500   52.1870 C   0  0  0  0  0  0  0  0  0  0  0  0
   51.8550   30.8850   50.9430 C   0  0  0  0  0  0  0  0  0  0  0  0
   51.7200   30.0930   49.8640 N   0  0  0  0  0  0  0  0  0  0  0  0
   51.0010   30.8490   49.0070 C   0  0  0  0  0  0  0  0  0  0  0  0
   50.6770   30.4500   47.8580 O   0  0  0  0  0  0  0  0  0  0  0  0
   50.6480   32.0630   49.4810 N   0  0  0  0  0  0  0  0  0  0  0  0
   51.1850   32.0660   50.7120 C   0  0  0  0  0  0  0  0  0  0  0  0
   51.0220   33.1080   51.6170 O   0  0  0  0  0  0  0  0  0  0  0  0
   54.8330   30.8950   51.5810 C   0  0  0  0  0  0  0  0  0  0  0  0
   56.0320   30.3500   51.9860 C   0  0  0  0  0  0  0  0  0  0  0  0
   57.3280   30.6720   51.3690 C   0  0  0  0  0  0  0  0  0  0  0  0
   58.1870   29.7650   51.2310 O   0  0  0  0  0  0  0  0  0  0  0  0
   57.6300   31.9960   50.9100 N   0  0  0  0  0  0  0  0  0  0  0  0
   58.9670   32.4780   50.5720 C   0  0  0  0  0  0  0  0  0  0  0  0
   58.9890   33.0710   49.1860 C   0  0  0  0  0  0  0  0  0  0  0  0
   59.8920   34.1010   48.8730 C   0  0  0  0  0  0  0  0  0  0  0  0
   59.9450   34.6210   47.5770 C   0  0  0  0  0  0  0  0  0  0  0  0
   59.0940   34.1230   46.5860 C   0  0  0  0  0  0  0  0  0  0  0  0
   59.1520   34.6230   45.3270 F   0  0  0  0  0  0  0  0  0  0  0  0
   58.1830   33.1090   46.8940 C   0  0  0  0  0  0  0  0  0  0  0  0
   58.1240   32.5880   48.1890 C   0  0  0  0  0  0  0  0  0  0  0  0
   55.8330   29.3950   52.9230 N   0  0  0  0  0  0  0  0  0  0  0  0
   56.8770   28.5700   53.5550 C   0  0  0  0  0  0  0  0  0  0  0  0
   57.1990   29.0770   54.9640 C   0  0  0  0  0  0  0  0  0  0  0  0
   58.2550   30.1100   54.9120 N   0  0  0  0  0  0  0  0  0  0  0  0
   57.6970   31.4370   54.5920 C   0  0  0  0  0  0  0  0  0  0  0  0
   58.8160   32.4990   54.5810 C   0  0  0  0  0  0  0  0  0  0  0  0
   60.1040   31.9210   54.7100 O   0  0  0  0  0  0  0  0  0  0  0  0
   60.2810   30.9280   53.7200 C   0  0  0  0  0  0  0  0  0  0  0  0
   59.3010   29.7560   53.9300 C   0  0  0  0  0  0  0  0  0  0  0  0
  1  2  2  0
  2  3  1  0
  3  4  2  0
  4  5  1  0
  5  6  1  0
  6  7  1  0
  7  8  2  0
  7  9  1  0
  9 10  1  0
 10 11  1  0
  3 12  1  0
 12 13  2  0
 13 14  1  0
 14 15  2  0
 14 16  1  0
 16 17  1  0
 17 18  1  0
 18 19  2  0
 19 20  1  0
 20 21  2  0
 21 22  1  0
 21 23  1  0
 23 24  2  0
 13 25  1  0
 25 26  1  0
 26 27  1  0
 27 28  1  0
 28 29  1  0
 29 30  1  0
 30 31  1  0
 31 32  1  0
 32 33  1  0
 25  2  1  0
 33 28  1  0
 10  5  2  0
 24 18  1  0
M  CHG  4   6  -1   9  -1  11  -1  16  -1
M  END
>  <UniqueID>  (3447) 
45

>  <SMILES>  (3447) 
C=c1/c(=C/c2[n-]c(=O)[n-]c2[O-])cc(C(=O)[N-]Cc2ccc(F)cc2)n1CCN1CCOCC1

>  <Energy>  (3447) 
131.44604848792508

>  <Genealogy>  (3447) 
C=c1c(=Cc2[n-]c(=O)[n-]c2[O-])cc(C(=O)[N-]Cc2ccc(F)cc2)n1CCN1CCOCC1 (protonated)
C=c1/c(=C/c2[n-]c(=O)[n-]c2[O-])cc(C(=O)[N-]Cc2ccc(F)cc2)n1CCN1CCOCC1 (cis-trans isomerization)
C=c1/c(=C/c2[n-]c(=O)[n-]c2[O-])cc(C(=O)[N-]Cc2ccc(F)cc2)n1CCN1CCOCC1 (3D coordinates assigned)
C=c1/c(=C/c2[n-]c(=O)[n-]c2[O-])cc(C(=O)[N-]Cc2ccc(F)cc2)n1CCN1CCOCC1 (nonaromatic ring conformer: 131.44604848792508 kcal/mol)

>  <smiles>  (3447) 
C=c1c(=Cc2[nH]c(=O)[nH]c2O)cc(C(=O)NCc2ccc(F)cc2)n1CCN1CCOCC1

>  <score_type>  (3447) 
oracle

>  <origin>  (3447) 
adg

>  <m_score__min__energy>  (3447) 
-17.73

>  <m_primary>  (3447) 
energy

$$$$
54:0
     RDKit          3D

 29 32  0  0  0  0  0  0  0  0999 V2000
   60.4930   32.3440   48.5020 C   0  0  0  0  0  0  0  0  0  0  0  0
   60.0110   33.3790   49.2000 C   0  0  0  0  0  0  0  0  0  0  0  0
   59.5850   33.2100   50.6140 C   0  0  0  0  0  0  0  0  0  0  0  0
   58.3710   32.5690   50.9290 C   0  0  0  0  0  0  0  0  0  0  0  0
   57.9670   32.4340   52.2610 C   0  0  0  0  0  0  0  0  0  0  0  0
   58.7630   32.9400   53.2900 C   0  0  0  0  0  0  0  0  0  0  0  0
   59.9650   33.5850   52.9910 C   0  0  0  0  0  0  0  0  0  0  0  0
   60.3750   33.7230   51.6600 C   0  0  0  0  0  0  0  0  0  0  0  0
   59.9670   34.7470   48.5560 C   0  0  0  0  0  0  0  0  0  0  0  0
   59.7580   34.7310   47.0130 C   0  0  0  0  0  0  0  0  0  0  0  0
   59.8800   33.3920   46.3750 N   0  0  2  0  0  0  0  0  0  0  0  0
   58.5980   32.7270   46.2590 C   0  0  0  0  0  0  0  0  0  0  0  0
   57.5580   33.2410   46.7590 O   0  0  0  0  0  0  0  0  0  0  0  0
   58.5070   31.4340   45.6370 N   0  0  0  0  0  0  0  0  0  0  0  0
   58.2580   31.1970   44.3310 C   0  0  0  0  0  0  0  0  0  0  0  0
   58.0670   32.2530   43.2840 C   0  0  0  0  0  0  0  0  0  0  0  0
   58.2190   29.8390   44.0860 C   0  0  0  0  0  0  0  0  0  0  0  0
   58.4340   29.2040   45.3060 C   0  0  0  0  0  0  0  0  0  0  0  0
   58.4660   27.8730   45.5440 C   0  0  0  0  0  0  0  0  0  0  0  0
   57.2940   27.0090   45.8130 C   0  0  0  0  0  0  0  0  0  0  0  0
   57.3260   25.7510   46.2880 N   0  0  0  0  0  0  0  0  0  0  0  0
   56.0230   25.4040   46.3590 C   0  0  0  0  0  0  0  0  0  0  0  0
   55.6430   24.2740   46.7630 O   0  0  0  0  0  0  0  0  0  0  0  0
   55.1600   26.3620   45.9610 N   0  0  0  0  0  0  0  0  0  0  0  0
   55.9800   27.3700   45.6200 C   0  0  0  0  0  0  0  0  0  0  0  0
   55.5350   28.5960   45.1400 O   0  0  0  0  0  0  0  0  0  0  0  0
   58.6090   30.2280   46.2480 C   0  0  0  0  0  0  0  0  0  0  0  0
   58.8660   30.0760   47.5580 C   0  0  0  0  0  0  0  0  0  0  0  0
   60.8610   32.5290   47.0620 C   0  0  0  0  0  0  0  0  0  0  0  0
  1  2  2  0
  2  3  1  0
  3  4  2  0
  4  5  1  0
  5  6  2  0
  6  7  1  0
  7  8  2  0
  2  9  1  0
  9 10  1  0
 10 11  1  0
 11 12  1  1
 12 13  2  0
 12 14  1  0
 14 15  1  0
 15 16  1  0
 15 17  2  0
 17 18  1  0
 18 19  2  0
 19 20  1  0
 20 21  1  0
 21 22  1  0
 22 23  2  0
 22 24  1  0
 24 25  1  0
 25 26  1  0
 18 27  1  0
 27 28  2  0
 11 29  1  0
 29  1  1  0
  8  3  1  0
 27 14  1  0
 25 20  2  0
M  CHG  4  11   1  21  -1  24  -1  26  -1
M  END
>  <UniqueID>  (3448) 
52

>  <SMILES>  (3448) 
C=c1/c(=C/c2[n-]c(=O)[n-]c2[O-])cc(C)n1C(=O)[N@@H+]1CC=C(c2ccccc2)CC1

>  <Energy>  (3448) 
134.20425441812134

>  <Genealogy>  (3448) 
C=c1c(=Cc2[n-]c(=O)[n-]c2[O-])cc(C)n1C(=O)[NH+]1CC=C(c2ccccc2)CC1 (protonated)
C=c1c(=Cc2[n-]c(=O)[n-]c2[O-])cc(C)n1C(=O)[N@@H+]1CC=C(c2ccccc2)CC1 (chirality)
C=c1/c(=C/c2[n-]c(=O)[n-]c2[O-])cc(C)n1C(=O)[N@@H+]1CC=C(c2ccccc2)CC1 (cis-trans isomerization)
C=c1/c(=C/c2[n-]c(=O)[n-]c2[O-])cc(C)n1C(=O)[N@@H+]1CC=C(c2ccccc2)CC1 (3D coordinates assigned)
C=c1/c(=C/c2[n-]c(=O)[n-]c2[O-])cc(C)n1C(=O)[N@@H+]1CC=C(c2ccccc2)CC1 (nonaromatic ring conformer: 134.20425441812134 kcal/mol)

>  <smiles>  (3448) 
C=c1c(=Cc2[nH]c(=O)[nH]c2O)cc(C)n1C(=O)N1CC=C(c2ccccc2)CC1

>  <score_type>  (3448) 
oracle

>  <origin>  (3448) 
adg

>  <m_score__min__energy>  (3448) 
-16.370000000000001

>  <m_primary>  (3448) 
energy

$$$$
55:0
     RDKit          3D

 37 41  0  0  0  0  0  0  0  0999 V2000
   62.1390   33.7650   47.9060 C   0  0  0  0  0  0  0  0  0  0  0  0
   61.5190   32.6020   48.1130 C   0  0  0  0  0  0  0  0  0  0  0  0
   60.4770   32.3700   48.9960 C   0  0  0  0  0  0  0  0  0  0  0  0
   59.7690   33.3830   49.8050 C   0  0  0  0  0  0  0  0  0  0  0  0
   59.2830   34.3910   49.2240 O   0  0  0  0  0  0  0  0  0  0  0  0
   59.6120   33.2300   51.2300 N   0  0  0  0  0  0  0  0  0  0  0  0
   60.6020   32.5070   52.0380 C   0  0  0  0  0  0  0  0  0  0  0  0
   59.8920   31.6040   53.0600 C   0  0  0  0  0  0  0  0  0  0  0  0
   58.7120   32.2330   53.7140 N   0  0  0  0  0  0  0  0  0  0  0  0
   57.4730   31.4820   53.4470 C   0  0  0  0  0  0  0  0  0  0  0  0
   58.5510   33.6740   53.4260 C   0  0  0  0  0  0  0  0  0  0  0  0
   58.5430   33.9650   51.9170 C   0  0  0  0  0  0  0  0  0  0  0  0
   60.1540   31.0200   48.8950 C   0  0  0  0  0  0  0  0  0  0  0  0
   58.9460   30.3910   49.5440 C   0  0  0  0  0  0  0  0  0  0  0  0
   59.3650   29.4110   50.6360 C   0  0  0  0  0  0  0  0  0  0  0  0
   61.0160   30.4940   47.9170 C   0  0  0  0  0  0  0  0  0  0  0  0
   61.0650   29.2520   47.3980 C   0  0  0  0  0  0  0  0  0  0  0  0
   60.0180   28.2320   47.5190 C   0  0  0  0  0  0  0  0  0  0  0  0
   60.0880   27.0300   48.2100 C   0  0  0  0  0  0  0  0  0  0  0  0
   61.1400   26.6550   49.0370 O   0  0  0  0  0  0  0  0  0  0  0  0
   59.0100   26.2420   47.9820 N   0  0  0  0  0  0  0  0  0  0  0  0
   58.2680   26.9530   47.1100 C   0  0  0  0  0  0  0  0  0  0  0  0
   57.0580   26.5640   46.5390 C   0  0  0  0  0  0  0  0  0  0  0  0
   56.4520   27.4360   45.6160 C   0  0  0  0  0  0  0  0  0  0  0  0
   57.0640   28.6670   45.2780 C   0  0  0  0  0  0  0  0  0  0  0  0
   56.2850   29.7450   44.1210 S   0  0  0  0  0  0  0  0  0  0  0  0
   56.9220   29.5900   42.7680 O   0  0  0  0  0  0  0  0  0  0  0  0
   54.8330   29.3760   44.0080 O   0  0  0  0  0  0  0  0  0  0  0  0
   56.4110   31.4010   44.6330 N   0  0  0  0  0  0  0  0  0  0  0  0
   57.8140   31.8130   44.7670 C   0  0  0  0  0  0  0  0  0  0  0  0
   58.0420   33.1000   43.9850 C   0  0  0  0  0  0  0  0  0  0  0  0
   57.7160   34.2430   44.9400 C   0  0  0  0  0  0  0  0  0  0  0  0
   57.6960   33.6520   46.3480 C   0  0  0  0  0  0  0  0  0  0  0  0
   58.1080   32.1930   46.2110 C   0  0  0  0  0  0  0  0  0  0  0  0
   58.2860   29.0330   45.8760 C   0  0  0  0  0  0  0  0  0  0  0  0
   58.8560   28.1510   46.7920 C   0  0  0  0  0  0  0  0  0  0  0  0
   61.8400   31.4660   47.4680 N   0  0  0  0  0  0  0  0  0  0  0  0
  1  2  2  0
  2  3  1  0
  3  4  1  0
  4  5  2  0
  4  6  1  0
  6  7  1  0
  7  8  1  0
  8  9  1  0
  9 10  1  0
  9 11  1  0
 11 12  1  0
  3 13  2  0
 13 14  1  0
 14 15  1  0
 13 16  1  0
 16 17  2  0
 17 18  1  0
 18 19  2  0
 19 20  1  0
 19 21  1  0
 21 22  1  0
 22 23  2  0
 23 24  1  0
 24 25  2  0
 25 26  1  0
 26 27  2  0
 26 28  2  0
 26 29  1  0
 29 30  1  0
 30 31  1  0
 31 32  1  0
 32 33  1  0
 33 34  1  0
 25 35  1  0
 35 36  2  0
 16 37  1  0
 37  2  1  0
 12  6  1  0
 36 18  1  0
 36 22  1  0
 34 30  1  0
M  CHG  3  20  -1  21  -1  29  -1
M  END
>  <UniqueID>  (3449) 
53

>  <SMILES>  (3449) 
C=c1[nH]/c(=C/c2c([O-])[n-]c3ccc(S(=O)(=O)[N-]C4CCCC4)cc23)c(CC)c1C(=O)N1CCN(C)CC1

>  <Energy>  (3449) 
149.76965328793992

>  <Genealogy>  (3449) 
C=c1[nH]c(=Cc2c([O-])[n-]c3ccc(S(=O)(=O)[N-]C4CCCC4)cc23)c(CC)c1C(=O)N1CCN(C)CC1 (protonated)
C=c1[nH]/c(=C/c2c([O-])[n-]c3ccc(S(=O)(=O)[N-]C4CCCC4)cc23)c(CC)c1C(=O)N1CCN(C)CC1 (cis-trans isomerization)
C=c1[nH]/c(=C/c2c([O-])[n-]c3ccc(S(=O)(=O)[N-]C4CCCC4)cc23)c(CC)c1C(=O)N1CCN(C)CC1 (3D coordinates assigned)
C=c1[nH]/c(=C/c2c([O-])[n-]c3ccc(S(=O)(=O)[N-]C4CCCC4)cc23)c(CC)c1C(=O)N1CCN(C)CC1 (nonaromatic ring conformer: 149.76965328793992 kcal/mol)

>  <smiles>  (3449) 
C=c1[nH]c(=Cc2c(O)[nH]c3ccc(S(=O)(=O)NC4CCCC4)cc23)c(CC)c1C(=O)N1CCN(C)CC1

>  <score_type>  (3449) 
oracle

>  <origin>  (3449) 
adg

>  <m_score__min__energy>  (3449) 
-14.98

>  <m_primary>  (3449) 
energy

$$$$
57:0
     RDKit          3D

 26 29  0  0  0  0  0  0  0  0999 V2000
   53.4720   22.9250   45.2420 O   0  0  0  0  0  0  0  0  0  0  0  0
   54.4750   23.4800   44.7150 C   0  0  0  0  0  0  0  0  0  0  0  0
   55.0620   22.9350   43.5320 N   0  0  0  0  0  0  0  0  0  0  0  0
   56.5050   22.8460   43.3500 C   0  0  0  0  0  0  0  0  0  0  0  0
   57.1920   21.9600   44.3730 C   0  0  0  0  0  0  0  0  0  0  0  0
   56.9650   21.4560   42.9530 C   0  0  0  0  0  0  0  0  0  0  0  0
   55.0440   24.6910   45.3180 C   0  0  0  0  0  0  0  0  0  0  0  0
   56.3690   24.8920   45.6460 C   0  0  0  0  0  0  0  0  0  0  0  0
   56.3850   26.1670   46.1680 C   0  0  0  0  0  0  0  0  0  0  0  0
   57.5960   26.9050   46.6520 C   0  0  0  0  0  0  0  0  0  0  0  0
   58.6730   26.9010   45.6360 N   0  0  0  0  0  0  0  0  0  0  0  0
   59.8060   27.7940   45.9750 C   0  0  0  0  0  0  0  0  0  0  0  0
   59.3870   29.2730   45.9760 C   0  0  0  0  0  0  0  0  0  0  0  0
   58.4150   29.5390   44.9070 N   0  0  0  0  0  0  0  0  0  0  0  0
   57.4600   30.6170   45.0150 C   0  0  0  0  0  0  0  0  0  0  0  0
   56.3330   30.5050   44.4600 O   0  0  0  0  0  0  0  0  0  0  0  0
   57.7610   31.8580   45.7610 C   0  0  0  0  0  0  0  0  0  0  0  0
   57.5660   33.1400   45.2750 C   0  0  0  0  0  0  0  0  0  0  0  0
   57.9950   33.9990   46.2610 C   0  0  0  0  0  0  0  0  0  0  0  0
   58.4330   33.1940   47.2880 C   0  0  0  0  0  0  0  0  0  0  0  0
   58.9550   33.6630   48.4890 O   0  0  0  0  0  0  0  0  0  0  0  0
   58.3000   31.8860   46.9960 N   0  0  0  0  0  0  0  0  0  0  0  0
   58.3630   28.6060   43.7760 C   0  0  0  0  0  0  0  0  0  0  0  0
   58.1430   27.1620   44.2710 C   0  0  0  0  0  0  0  0  0  0  0  0
   55.1440   26.6900   46.1420 N   0  0  0  0  0  0  0  0  0  0  0  0
   54.3240   25.7870   45.6260 N   0  0  0  0  0  0  0  0  0  0  0  0
  1  2  2  0
  2  3  1  0
  3  4  1  0
  4  5  1  0
  5  6  1  0
  2  7  1  0
  7  8  1  0
  8  9  2  0
  9 10  1  0
 10 11  1  0
 11 12  1  0
 12 13  1  0
 13 14  1  0
 14 15  1  0
 15 16  2  0
 15 17  1  0
 17 18  2  0
 18 19  1  0
 19 20  2  0
 20 21  1  0
 20 22  1  0
 14 23  1  0
 23 24  1  0
  9 25  1  0
 25 26  1  0
  6  4  1  0
 26  7  2  0
 24 11  1  0
 22 17  1  0
M  CHG  3   3  -1  22  -1  25  -1
M  END
>  <UniqueID>  (3450) 
55

>  <SMILES>  (3450) 
O=C([N-]C1CC1)c1cc(CN2CCN(C(=O)c3ccc(O)[n-]3)CC2)[n-]n1

>  <Energy>  (3450) 
372.8473496528537

>  <Genealogy>  (3450) 
O=C([N-]C1CC1)c1cc(CN2CCN(C(=O)c3ccc(O)[n-]3)CC2)[n-]n1 (protonated)
O=C([N-]C1CC1)c1cc(CN2CCN(C(=O)c3ccc(O)[n-]3)CC2)[n-]n1 (3D coordinates assigned)
O=C([N-]C1CC1)c1cc(CN2CCN(C(=O)c3ccc(O)[n-]3)CC2)[n-]n1 (nonaromatic ring conformer: 372.8473496528537 kcal/mol)

>  <smiles>  (3450) 
O=C(NC1CC1)c1cc(CN2CCN(C(=O)c3ccc(O)[nH]3)CC2)[nH]n1

>  <score_type>  (3450) 
oracle

>  <origin>  (3450) 
adg

>  <m_score__min__energy>  (3450) 
-14.140000000000001

>  <m_primary>  (3450) 
energy

$$$$
64:0
     RDKit          3D

 28 30  0  0  0  0  0  0  0  0999 V2000
   59.6020   28.5040   44.9460 C   0  0  0  0  0  0  0  0  0  0  0  0
   58.2750   28.6990   44.9660 C   0  0  0  0  0  0  0  0  0  0  0  0
   57.2910   27.7810   45.3350 C   0  0  0  0  0  0  0  0  0  0  0  0
   57.4730   26.4980   45.6940 C   0  0  0  0  0  0  0  0  0  0  0  0
   56.5570   25.4000   45.3260 C   0  0  0  0  0  0  0  0  0  0  0  0
   56.9960   24.1980   44.8920 N   0  0  0  0  0  0  0  0  0  0  0  0
   55.8680   23.4710   44.7460 C   0  0  0  0  0  0  0  0  0  0  0  0
   55.8740   22.2700   44.3670 O   0  0  0  0  0  0  0  0  0  0  0  0
   54.7440   24.1440   45.0650 N   0  0  0  0  0  0  0  0  0  0  0  0
   53.3840   23.6230   45.1450 C   0  0  0  0  0  0  0  0  0  0  0  0
   55.1800   25.3500   45.4640 C   0  0  0  0  0  0  0  0  0  0  0  0
   54.3600   26.3400   45.9940 O   0  0  0  0  0  0  0  0  0  0  0  0
   56.0780   28.3680   45.2420 N   0  0  0  0  0  0  0  0  0  0  0  0
   56.3490   29.6230   44.8310 C   0  0  0  0  0  0  0  0  0  0  0  0
   55.4520   30.4880   44.6500 O   0  0  0  0  0  0  0  0  0  0  0  0
   57.6640   29.8610   44.6400 N   0  0  0  0  0  0  0  0  0  0  0  0
   58.2710   31.1430   44.2660 C   0  0  0  0  0  0  0  0  0  0  0  0
   58.3670   32.0320   45.4680 C   0  0  0  0  0  0  0  0  0  0  0  0
   57.5610   32.9940   45.5890 O   0  0  0  0  0  0  0  0  0  0  0  0
   59.3640   31.7880   46.4730 N   0  0  0  0  0  0  0  0  0  0  0  0
   59.3270   32.3780   47.7850 C   0  0  0  0  0  0  0  0  0  0  0  0
   58.9450   31.6030   48.8940 C   0  0  0  0  0  0  0  0  0  0  0  0
   58.9400   32.1530   50.1770 C   0  0  0  0  0  0  0  0  0  0  0  0
   59.3420   33.4790   50.3800 C   0  0  0  0  0  0  0  0  0  0  0  0
   59.3020   34.0760   51.7560 C   0  0  0  0  0  0  0  0  0  0  0  0
   59.7210   34.2600   49.2810 C   0  0  0  0  0  0  0  0  0  0  0  0
   59.7200   33.7210   47.9830 C   0  0  0  0  0  0  0  0  0  0  0  0
   60.1460   34.5820   46.8240 C   0  0  0  0  0  0  0  0  0  0  0  0
  1  2  2  0
  2  3  1  0
  3  4  2  0
  4  5  1  0
  5  6  1  0
  6  7  1  0
  7  8  2  0
  7  9  1  0
  9 10  1  0
  9 11  1  0
 11 12  1  0
  3 13  1  0
 13 14  1  0
 14 15  2  0
 14 16  1  0
 16 17  1  0
 17 18  1  0
 18 19  2  0
 18 20  1  0
 20 21  1  0
 21 22  2  0
 22 23  1  0
 23 24  2  0
 24 25  1  0
 24 26  1  0
 26 27  2  0
 27 28  1  0
 16  2  1  0
 27 21  1  0
 11  5  2  0
M  CHG  3   6  -1  12  -1  13  -1
M  END
>  <UniqueID>  (3451) 
62

>  <SMILES>  (3451) 
C=c1/c(=C/c2[n-]c(=O)n(C)c2[O-])[n-]c(=O)n1CC(=O)Nc1ccc(C)cc1C

>  <Energy>  (3451) 
119.46165571871043

>  <Genealogy>  (3451) 
C=c1c(=Cc2[n-]c(=O)n(C)c2[O-])[n-]c(=O)n1CC(=O)Nc1ccc(C)cc1C (protonated)
C=c1/c(=C/c2[n-]c(=O)n(C)c2[O-])[n-]c(=O)n1CC(=O)Nc1ccc(C)cc1C (cis-trans isomerization)
C=c1/c(=C/c2[n-]c(=O)n(C)c2[O-])[n-]c(=O)n1CC(=O)Nc1ccc(C)cc1C (3D coordinates assigned)
C=c1/c(=C/c2[n-]c(=O)n(C)c2[O-])[n-]c(=O)n1CC(=O)Nc1ccc(C)cc1C (optimized conformer: 119.46165571871043 kcal/mol)

>  <smiles>  (3451) 
C=c1c(=Cc2[nH]c(=O)n(C)c2O)[nH]c(=O)n1CC(=O)Nc1ccc(C)cc1C

>  <score_type>  (3451) 
oracle

>  <origin>  (3451) 
adg

>  <m_score__min__energy>  (3451) 
-15.56

>  <m_primary>  (3451) 
energy

$$$$
77:0
     RDKit          3D

 28 30  0  0  0  0  0  0  0  0999 V2000
   57.7480   26.3730   43.2800 C   0  0  0  0  0  0  0  0  0  0  0  0
   57.9850   26.0600   44.5650 C   0  0  0  0  0  0  0  0  0  0  0  0
   57.3700   25.0430   45.3140 C   0  0  0  0  0  0  0  0  0  0  0  0
   56.5480   24.0410   44.9440 C   0  0  0  0  0  0  0  0  0  0  0  0
   55.0930   24.0010   45.1460 C   0  0  0  0  0  0  0  0  0  0  0  0
   54.3230   22.9630   44.7760 N   0  0  0  0  0  0  0  0  0  0  0  0
   53.0720   23.3890   45.0520 C   0  0  0  0  0  0  0  0  0  0  0  0
   52.0540   22.6750   44.8520 O   0  0  0  0  0  0  0  0  0  0  0  0
   52.9950   24.6420   45.5480 N   0  0  0  0  0  0  0  0  0  0  0  0
   54.2810   25.0250   45.5890 C   0  0  0  0  0  0  0  0  0  0  0  0
   54.6880   26.2920   45.9990 O   0  0  0  0  0  0  0  0  0  0  0  0
   57.7820   25.2240   46.6240 C   0  0  0  0  0  0  0  0  0  0  0  0
   58.6570   26.2890   46.6260 C   0  0  0  0  0  0  0  0  0  0  0  0
   59.3660   26.8010   47.8430 C   0  0  0  0  0  0  0  0  0  0  0  0
   58.8020   26.7860   45.3760 N   0  0  0  0  0  0  0  0  0  0  0  0
   59.6110   27.9600   45.0130 C   0  0  0  0  0  0  0  0  0  0  0  0
   58.7220   29.0590   44.4200 C   0  0  0  0  0  0  0  0  0  0  0  0
   58.2350   29.9690   45.4590 N   0  0  0  0  0  0  0  0  0  0  0  0
   57.2960   31.2800   44.8000 S   0  0  0  0  0  0  0  0  0  0  0  0
   57.8570   31.7540   43.4870 O   0  0  0  0  0  0  0  0  0  0  0  0
   55.8870   30.8040   44.5840 O   0  0  0  0  0  0  0  0  0  0  0  0
   57.2780   32.6280   45.9710 C   0  0  0  0  0  0  0  0  0  0  0  0
   58.6800   32.9950   46.3700 C   0  0  0  0  0  0  0  0  0  0  0  0
   59.5290   32.0300   46.9390 C   0  0  0  0  0  0  0  0  0  0  0  0
   60.8430   32.3630   47.2800 C   0  0  0  0  0  0  0  0  0  0  0  0
   61.3220   33.6560   47.0480 C   0  0  0  0  0  0  0  0  0  0  0  0
   60.4870   34.6180   46.4720 C   0  0  0  0  0  0  0  0  0  0  0  0
   59.1710   34.2880   46.1300 C   0  0  0  0  0  0  0  0  0  0  0  0
  1  2  2  0
  2  3  1  0
  3  4  2  3
  4  5  1  0
  5  6  1  0
  6  7  1  0
  7  8  2  0
  7  9  1  0
  9 10  1  0
 10 11  1  0
  3 12  1  0
 12 13  2  0
 13 14  1  0
 13 15  1  0
 15 16  1  0
 16 17  1  0
 17 18  1  0
 18 19  1  0
 19 20  2  0
 19 21  2  0
 19 22  1  0
 22 23  1  0
 23 24  2  0
 24 25  1  0
 25 26  2  0
 26 27  1  0
 27 28  2  0
 15  2  1  0
 28 23  1  0
 10  5  2  0
M  CHG  3   6  -1   9  -1  18  -1
M  END
>  <UniqueID>  (3452) 
75

>  <SMILES>  (3452) 
C=c1c(=Cc2[n-]c(=O)[n-]c2O)cc(C)n1CC[N-]S(=O)(=O)Cc1ccccc1

>  <Energy>  (3452) 
110.23865431360109

>  <Genealogy>  (3452) 
C=c1c(=Cc2[n-]c(=O)[n-]c2O)cc(C)n1CC[N-]S(=O)(=O)Cc1ccccc1 (protonated)
C=c1c(=Cc2[n-]c(=O)[n-]c2O)cc(C)n1CC[N-]S(=O)(=O)Cc1ccccc1 (3D coordinates assigned)
C=c1c(=Cc2[n-]c(=O)[n-]c2O)cc(C)n1CC[N-]S(=O)(=O)Cc1ccccc1 (optimized conformer: 110.23865431360109 kcal/mol)

>  <smiles>  (3452) 
C=c1c(=Cc2[nH]c(=O)[nH]c2O)cc(C)n1CCNS(=O)(=O)Cc1ccccc1

>  <score_type>  (3452) 
oracle

>  <origin>  (3452) 
adg

>  <m_score__min__energy>  (3452) 
-14.27

>  <m_primary>  (3452) 
energy

$$$$
91:0
     RDKit          3D

 28 31  0  0  0  0  0  0  0  0999 V2000
   59.5420   23.7990   45.6190 C   0  0  0  0  0  0  0  0  0  0  0  0
   59.0310   24.9960   45.9320 C   0  0  0  0  0  0  0  0  0  0  0  0
   59.6590   25.8550   46.7590 N   0  0  0  0  0  0  0  0  0  0  0  0
   58.8800   26.9510   46.8610 C   0  0  0  0  0  0  0  0  0  0  0  0
   59.1700   28.1560   47.6870 C   0  0  0  0  0  0  0  0  0  0  0  0
   59.5030   27.9800   48.8920 O   0  0  0  0  0  0  0  0  0  0  0  0
   59.0740   29.5130   47.1830 N   0  0  0  0  0  0  0  0  0  0  0  0
   59.1050   29.5440   45.7070 C   0  0  0  0  0  0  0  0  0  0  0  0
   58.8690   30.9780   45.1840 C   0  0  0  0  0  0  0  0  0  0  0  0
   59.5260   32.0440   45.9980 N   0  0  0  0  0  0  0  0  0  0  0  0
   58.5300   32.9170   46.6960 C   0  0  0  0  0  0  0  0  0  0  0  0
   59.1190   34.2250   47.2800 C   0  0  0  0  0  0  0  0  0  0  0  0
   59.6270   35.1660   46.1630 C   0  0  0  0  0  0  0  0  0  0  0  0
   59.1870   34.7790   44.8730 O   0  0  0  0  0  0  0  0  0  0  0  0
   57.7870   34.5800   44.8790 C   0  0  0  0  0  0  0  0  0  0  0  0
   57.4040   33.3360   45.7100 C   0  0  0  0  0  0  0  0  0  0  0  0
   60.6030   31.4820   46.8470 C   0  0  0  0  0  0  0  0  0  0  0  0
   60.0670   30.4160   47.8200 C   0  0  0  0  0  0  0  0  0  0  0  0
   57.7370   26.7930   46.0960 C   0  0  0  0  0  0  0  0  0  0  0  0
   57.8240   25.5450   45.4900 C   0  0  0  0  0  0  0  0  0  0  0  0
   56.9310   24.9660   44.6580 C   0  0  0  0  0  0  0  0  0  0  0  0
   55.5460   24.5770   45.0080 C   0  0  0  0  0  0  0  0  0  0  0  0
   54.9860   23.3690   44.8100 N   0  0  0  0  0  0  0  0  0  0  0  0
   53.7390   23.5120   45.3050 C   0  0  0  0  0  0  0  0  0  0  0  0
   52.8960   22.5780   45.2980 O   0  0  0  0  0  0  0  0  0  0  0  0
   53.4670   24.7330   45.8110 N   0  0  0  0  0  0  0  0  0  0  0  0
   54.6210   25.3920   45.6180 C   0  0  0  0  0  0  0  0  0  0  0  0
   54.8240   26.7150   45.9910 O   0  0  0  0  0  0  0  0  0  0  0  0
  1  2  2  0
  2  3  1  0
  3  4  1  0
  4  5  1  0
  5  6  2  0
  5  7  1  0
  7  8  1  0
  8  9  1  0
  9 10  1  0
 10 11  1  0
 11 12  1  0
 12 13  1  0
 13 14  1  0
 14 15  1  0
 15 16  1  0
 10 17  1  0
 17 18  1  0
  4 19  2  0
 19 20  1  0
 20 21  2  3
 21 22  1  0
 22 23  1  0
 23 24  1  0
 24 25  2  0
 24 26  1  0
 26 27  1  0
 27 28  1  0
 20  2  1  0
 27 22  2  0
 18  7  1  0
 16 11  1  0
M  CHG  4   7   1  23  -1  26  -1  28  -1
M  END
>  <UniqueID>  (3453) 
89

>  <SMILES>  (3453) 
C=c1[nH]c(C(=O)[NH+]2CCN(C3CCOCC3)CC2)cc1=Cc1[n-]c(=O)[n-]c1[O-]

>  <Energy>  (3453) 
145.33086002882052

>  <Genealogy>  (3453) 
C=c1[nH]c(C(=O)[NH+]2CCN(C3CCOCC3)CC2)cc1=Cc1[n-]c(=O)[n-]c1[O-] (protonated)
C=c1[nH]c(C(=O)[NH+]2CCN(C3CCOCC3)CC2)cc1=Cc1[n-]c(=O)[n-]c1[O-] (3D coordinates assigned)
C=c1[nH]c(C(=O)[NH+]2CCN(C3CCOCC3)CC2)cc1=Cc1[n-]c(=O)[n-]c1[O-] (nonaromatic ring conformer: 145.33086002882052 kcal/mol)

>  <smiles>  (3453) 
C=c1[nH]c(C(=O)N2CCN(C3CCOCC3)CC2)cc1=Cc1[nH]c(=O)[nH]c1O

>  <score_type>  (3453) 
oracle

>  <origin>  (3453) 
adg

>  <m_score__min__energy>  (3453) 
-16.73

>  <m_primary>  (3453) 
energy

$$$$
9:0
     RDKit          3D

 29 32  0  0  0  0  0  0  0  0999 V2000
   56.0650   29.7350   43.8510 C   0  0  0  0  0  0  0  0  0  0  0  0
   57.0130   30.4490   44.4720 C   0  0  0  0  0  0  0  0  0  0  0  0
   57.0020   31.7940   44.2590 N   0  0  0  0  0  0  0  0  0  0  0  0
   57.7580   32.6610   44.9770 C   0  0  0  0  0  0  0  0  0  0  0  0
   58.5460   32.1970   46.0320 C   0  0  0  0  0  0  0  0  0  0  0  0
   59.3320   33.1460   46.8530 C   0  0  0  0  0  0  0  0  0  0  0  0
   58.7370   34.0990   47.4260 O   0  0  0  0  0  0  0  0  0  0  0  0
   60.7580   33.0080   47.0110 N   0  0  0  0  0  0  0  0  0  0  0  0
   61.5690   34.2150   47.2330 C   0  0  0  0  0  0  0  0  0  0  0  0
   63.0640   33.9320   47.0230 C   0  0  0  0  0  0  0  0  0  0  0  0
   63.5800   32.7110   47.8430 C   0  0  0  0  0  0  0  0  0  0  0  0
   64.3250   33.0720   49.0790 N   0  0  0  0  0  0  0  0  0  0  0  0
   64.9940   31.9500   49.7690 C   0  0  0  0  0  0  0  0  0  0  0  0
   65.8990   32.5000   50.8920 C   0  0  0  0  0  0  0  0  0  0  0  0
   65.6110   33.8490   51.2230 O   0  0  0  0  0  0  0  0  0  0  0  0
   64.2170   34.0230   51.3770 C   0  0  0  0  0  0  0  0  0  0  0  0
   63.5020   33.8570   50.0230 C   0  0  0  0  0  0  0  0  0  0  0  0
   62.4740   31.6780   48.1650 C   0  0  0  0  0  0  0  0  0  0  0  0
   61.3770   31.6760   47.0990 C   0  0  0  0  0  0  0  0  0  0  0  0
   58.6220   30.8160   46.2520 C   0  0  0  0  0  0  0  0  0  0  0  0
   57.9240   29.9050   45.4320 C   0  0  0  0  0  0  0  0  0  0  0  0
   58.1960   28.5860   45.6040 C   0  0  0  0  0  0  0  0  0  0  0  0
   57.2240   27.5420   45.9860 C   0  0  0  0  0  0  0  0  0  0  0  0
   55.9270   27.5260   45.6220 N   0  0  0  0  0  0  0  0  0  0  0  0
   55.4860   26.3410   46.0970 C   0  0  0  0  0  0  0  0  0  0  0  0
   54.2950   25.9590   45.9640 O   0  0  0  0  0  0  0  0  0  0  0  0
   56.4240   25.5940   46.7170 N   0  0  0  0  0  0  0  0  0  0  0  0
   57.5210   26.3640   46.6260 C   0  0  0  0  0  0  0  0  0  0  0  0
   58.7710   25.9990   47.1140 O   0  0  0  0  0  0  0  0  0  0  0  0
  1  2  2  0
  2  3  1  0
  3  4  2  0
  4  5  1  0
  5  6  1  0
  6  7  2  0
  6  8  1  0
  8  9  1  0
  9 10  1  0
 10 11  1  0
 11 12  1  0
 12 13  1  0
 13 14  1  0
 14 15  1  0
 15 16  1  0
 16 17  1  0
 11 18  1  0
 18 19  1  0
  5 20  2  0
 20 21  1  0
 21 22  2  3
 22 23  1  0
 23 24  1  0
 24 25  1  0
 25 26  2  0
 25 27  1  0
 27 28  1  0
 28 29  1  0
 21  2  1  0
 28 23  2  0
 19  8  1  0
 17 12  1  0
M  CHG  2  24  -1  27  -1
M  END
>  <UniqueID>  (3454) 
9

>  <SMILES>  (3454) 
C=c1ncc(C(=O)N2CCC(N3CCOCC3)CC2)cc1=Cc1[n-]c(=O)[n-]c1O

>  <Energy>  (3454) 
123.48424932164096

>  <Genealogy>  (3454) 
C=c1ncc(C(=O)N2CCC(N3CCOCC3)CC2)cc1=Cc1[n-]c(=O)[n-]c1O (protonated)
C=c1ncc(C(=O)N2CCC(N3CCOCC3)CC2)cc1=Cc1[n-]c(=O)[n-]c1O (3D coordinates assigned)
C=c1ncc(C(=O)N2CCC(N3CCOCC3)CC2)cc1=Cc1[n-]c(=O)[n-]c1O (nonaromatic ring conformer: 123.48424932164096 kcal/mol)

>  <smiles>  (3454) 
C=c1ncc(C(=O)N2CCC(N3CCOCC3)CC2)cc1=Cc1[nH]c(=O)[nH]c1O

>  <score_type>  (3454) 
oracle

>  <origin>  (3454) 
adg

>  <m_score__min__energy>  (3454) 
-14.199999999999999

>  <m_primary>  (3454) 
energy

$$$$
19:0
     RDKit          3D

 32 35  0  0  0  0  0  0  0  0999 V2000
   54.2260   28.1420   53.4850 C   0  0  0  0  0  0  0  0  0  0  0  0
   54.6880   29.2050   52.8080 C   0  0  0  0  0  0  0  0  0  0  0  0
   53.9260   30.2490   52.2580 C   0  0  0  0  0  0  0  0  0  0  0  0
   52.5970   30.3770   52.0790 C   0  0  0  0  0  0  0  0  0  0  0  0
   51.9360   30.8270   50.8440 C   0  0  0  0  0  0  0  0  0  0  0  0
   51.8070   30.0600   49.7490 N   0  0  0  0  0  0  0  0  0  0  0  0
   51.0420   30.8120   48.9280 C   0  0  0  0  0  0  0  0  0  0  0  0
   50.7090   30.4330   47.7760 O   0  0  0  0  0  0  0  0  0  0  0  0
   50.6530   31.9970   49.4450 N   0  0  0  0  0  0  0  0  0  0  0  0
   51.2130   31.9850   50.6650 C   0  0  0  0  0  0  0  0  0  0  0  0
   51.0450   32.9980   51.6000 O   0  0  0  0  0  0  0  0  0  0  0  0
   54.8270   31.2320   51.8920 C   0  0  0  0  0  0  0  0  0  0  0  0
   56.0900   30.7440   52.1600 C   0  0  0  0  0  0  0  0  0  0  0  0
   57.3340   31.5230   51.9700 C   0  0  0  0  0  0  0  0  0  0  0  0
   57.6180   32.4390   52.7880 O   0  0  0  0  0  0  0  0  0  0  0  0
   58.1860   31.2990   50.8320 N   0  0  0  0  0  0  0  0  0  0  0  0
   58.8460   32.4390   50.1840 C   0  0  0  0  0  0  0  0  0  0  0  0
   59.9450   31.9690   49.2180 C   0  0  0  0  0  0  0  0  0  0  0  0
   59.4800   30.9280   48.2650 N   0  0  0  0  0  0  0  0  0  0  0  0
   59.0030   31.5040   46.9910 C   0  0  0  0  0  0  0  0  0  0  0  0
   58.6330   30.4090   46.0120 C   0  0  0  0  0  0  0  0  0  0  0  0
   57.4590   30.5440   45.2500 C   0  0  0  0  0  0  0  0  0  0  0  0
   57.0820   29.5590   44.3290 C   0  0  0  0  0  0  0  0  0  0  0  0
   55.8500   29.7380   43.4910 C   0  0  0  0  0  0  0  0  0  0  0  0
   57.9030   28.4420   44.1420 C   0  0  0  0  0  0  0  0  0  0  0  0
   59.0700   28.2910   44.8900 C   0  0  0  0  0  0  0  0  0  0  0  0
   59.4460   29.2600   45.8360 C   0  0  0  0  0  0  0  0  0  0  0  0
   60.7210   29.0660   46.6160 C   0  0  0  0  0  0  0  0  0  0  0  0
   58.4960   29.9620   48.8230 C   0  0  0  0  0  0  0  0  0  0  0  0
   58.4810   29.9450   50.3520 C   0  0  0  0  0  0  0  0  0  0  0  0
   56.0100   29.5010   52.6940 N   0  0  0  0  0  0  0  0  0  0  0  0
   57.1400   28.6730   53.1320 C   0  0  0  0  0  0  0  0  0  0  0  0
  1  2  2  0
  2  3  1  0
  3  4  2  3
  4  5  1  0
  5  6  1  0
  6  7  1  0
  7  8  2  0
  7  9  1  0
  9 10  1  0
 10 11  1  0
  3 12  1  0
 12 13  2  0
 13 14  1  0
 14 15  2  0
 14 16  1  0
 16 17  1  0
 17 18  1  0
 18 19  1  0
 19 20  1  0
 20 21  1  0
 21 22  2  0
 22 23  1  0
 23 24  1  0
 23 25  2  0
 25 26  1  0
 26 27  2  0
 27 28  1  0
 19 29  1  0
 29 30  1  0
 13 31  1  0
 31 32  1  0
 31  2  1  0
 10  5  2  0
 30 16  1  0
 27 21  1  0
M  CHG  3   6  -1   9  -1  11  -1
M  END
>  <UniqueID>  (3455) 
19

>  <SMILES>  (3455) 
C=c1c(=Cc2[n-]c(=O)[n-]c2[O-])cc(C(=O)N2CCN(Cc3cc(C)ccc3C)CC2)n1C

>  <Energy>  (3455) 
144.2126468575226

>  <Genealogy>  (3455) 
C=c1c(=Cc2[n-]c(=O)[n-]c2[O-])cc(C(=O)N2CCN(Cc3cc(C)ccc3C)CC2)n1C (protonated)
C=c1c(=Cc2[n-]c(=O)[n-]c2[O-])cc(C(=O)N2CCN(Cc3cc(C)ccc3C)CC2)n1C (3D coordinates assigned)
C=c1c(=Cc2[n-]c(=O)[n-]c2[O-])cc(C(=O)N2CCN(Cc3cc(C)ccc3C)CC2)n1C (nonaromatic ring conformer: 144.2126468575226 kcal/mol)

>  <smiles>  (3455) 
C=c1c(=Cc2[nH]c(=O)[nH]c2O)cc(C(=O)N2CCN(Cc3cc(C)ccc3C)CC2)n1C

>  <score_type>  (3455) 
oracle

>  <origin>  (3455) 
adg

>  <m_score__min__energy>  (3455) 
-18.920000000000002

>  <m_primary>  (3455) 
energy

$$$$
33:0
     RDKit          3D

 30 33  0  0  0  0  0  0  0  0999 V2000
   57.1280   31.1710   42.7540 C   0  0  0  0  0  0  0  0  0  0  0  0
   57.3640   31.2000   44.0760 C   0  0  0  0  0  0  0  0  0  0  0  0
   57.1830   30.1480   44.9910 C   0  0  0  0  0  0  0  0  0  0  0  0
   56.5650   28.9580   44.8610 C   0  0  0  0  0  0  0  0  0  0  0  0
   56.9940   27.7020   45.4910 C   0  0  0  0  0  0  0  0  0  0  0  0
   58.2840   27.3920   45.7400 N   0  0  0  0  0  0  0  0  0  0  0  0
   58.2090   26.2020   46.3770 C   0  0  0  0  0  0  0  0  0  0  0  0
   59.2290   25.5620   46.7480 O   0  0  0  0  0  0  0  0  0  0  0  0
   56.9460   25.7700   46.5740 N   0  0  0  0  0  0  0  0  0  0  0  0
   56.5070   24.4920   47.1310 C   0  0  0  0  0  0  0  0  0  0  0  0
   56.8650   23.3810   46.1920 C   0  0  0  0  0  0  0  0  0  0  0  0
   56.6360   23.5080   44.8130 C   0  0  0  0  0  0  0  0  0  0  0  0
   56.9260   22.4330   43.9700 C   0  0  0  0  0  0  0  0  0  0  0  0
   57.4290   21.2460   44.5050 C   0  0  0  0  0  0  0  0  0  0  0  0
   57.6320   21.1490   45.8830 C   0  0  0  0  0  0  0  0  0  0  0  0
   57.3430   22.2070   46.6900 N   0  0  0  0  0  0  0  0  0  0  0  0
   56.1790   26.7210   46.0200 C   0  0  0  0  0  0  0  0  0  0  0  0
   54.7890   26.7040   46.0000 O   0  0  0  0  0  0  0  0  0  0  0  0
   57.7780   30.5560   46.1710 C   0  0  0  0  0  0  0  0  0  0  0  0
   58.2450   31.8370   45.9650 C   0  0  0  0  0  0  0  0  0  0  0  0
   58.9310   32.6670   47.0170 C   0  0  0  0  0  0  0  0  0  0  0  0
   60.1800   31.9830   47.5090 C   0  0  0  0  0  0  0  0  0  0  0  0
   60.0780   30.8570   48.0700 O   0  0  0  0  0  0  0  0  0  0  0  0
   61.4840   32.5580   47.3120 N   0  0  0  0  0  0  0  0  0  0  0  0
   62.6920   31.9640   47.8590 C   0  0  0  0  0  0  0  0  0  0  0  0
   63.8160   32.9360   47.5220 C   0  0  0  0  0  0  0  0  0  0  0  0
   63.2690   33.8380   46.4190 C   0  0  0  0  0  0  0  0  0  0  0  0
   61.7530   33.7460   46.5210 C   0  0  0  0  0  0  0  0  0  0  0  0
   57.9670   32.2430   44.7040 N   0  0  0  0  0  0  0  0  0  0  0  0
   58.3600   33.5220   44.0990 C   0  0  0  0  0  0  0  0  0  0  0  0
  1  2  2  0
  2  3  1  0
  3  4  2  3
  4  5  1  0
  5  6  1  0
  6  7  1  0
  7  8  2  0
  7  9  1  0
  9 10  1  0
 10 11  1  0
 11 12  2  0
 12 13  1  0
 13 14  2  0
 14 15  1  0
 15 16  2  0
  9 17  1  0
 17 18  1  0
  3 19  1  0
 19 20  2  0
 20 21  1  0
 21 22  1  0
 22 23  2  0
 22 24  1  0
 24 25  1  0
 25 26  1  0
 26 27  1  0
 27 28  1  0
 20 29  1  0
 29 30  1  0
 29  2  1  0
 17  5  2  0
 28 24  1  0
 16 11  1  0
M  CHG  2   6  -1  18  -1
M  END
>  <UniqueID>  (3456) 
32

>  <SMILES>  (3456) 
C=c1c(=Cc2[n-]c(=O)n(Cc3ccccn3)c2[O-])cc(CC(=O)N2CCCC2)n1C

>  <Energy>  (3456) 
124.89731160790981

>  <Genealogy>  (3456) 
C=c1c(=Cc2[n-]c(=O)n(Cc3ccccn3)c2[O-])cc(CC(=O)N2CCCC2)n1C (protonated)
C=c1c(=Cc2[n-]c(=O)n(Cc3ccccn3)c2[O-])cc(CC(=O)N2CCCC2)n1C (3D coordinates assigned)
C=c1c(=Cc2[n-]c(=O)n(Cc3ccccn3)c2[O-])cc(CC(=O)N2CCCC2)n1C (nonaromatic ring conformer: 124.89731160790981 kcal/mol)

>  <smiles>  (3456) 
C=c1c(=Cc2[nH]c(=O)n(Cc3ccccn3)c2O)cc(CC(=O)N2CCCC2)n1C

>  <score_type>  (3456) 
oracle

>  <origin>  (3456) 
adg

>  <m_score__min__energy>  (3456) 
-14.390000000000001

>  <m_primary>  (3456) 
energy

$$$$
43:0
     RDKit          3D

 30 33  0  0  0  0  0  0  0  0999 V2000
   53.7630   29.9630   55.3550 C   0  0  0  0  0  0  0  0  0  0  0  0
   54.4250   30.1740   54.2130 C   0  0  0  0  0  0  0  0  0  0  0  0
   53.8840   30.5270   52.9750 C   0  0  0  0  0  0  0  0  0  0  0  0
   52.5820   30.6820   52.6680 C   0  0  0  0  0  0  0  0  0  0  0  0
   52.0720   30.8350   51.2940 C   0  0  0  0  0  0  0  0  0  0  0  0
   52.1020   29.8420   50.3790 N   0  0  0  0  0  0  0  0  0  0  0  0
   51.4600   30.3660   49.3110 C   0  0  0  0  0  0  0  0  0  0  0  0
   51.2720   29.7220   48.2450 O   0  0  0  0  0  0  0  0  0  0  0  0
   51.0260   31.6270   49.5060 N   0  0  0  0  0  0  0  0  0  0  0  0
   50.1940   32.4330   48.6180 C   0  0  0  0  0  0  0  0  0  0  0  0
   51.3800   31.9110   50.7690 C   0  0  0  0  0  0  0  0  0  0  0  0
   51.0330   33.0790   51.4390 O   0  0  0  0  0  0  0  0  0  0  0  0
   54.9610   30.6290   52.1010 C   0  0  0  0  0  0  0  0  0  0  0  0
   56.0970   30.3490   52.8410 C   0  0  0  0  0  0  0  0  0  0  0  0
   57.4880   30.3190   52.3350 C   0  0  0  0  0  0  0  0  0  0  0  0
   57.7300   29.6480   51.2940 O   0  0  0  0  0  0  0  0  0  0  0  0
   58.5430   31.0800   52.9850 N   0  0  0  0  0  0  0  0  0  0  0  0
   58.2950   32.5270   52.9360 C   0  0  0  0  0  0  0  0  0  0  0  0
   58.2780   33.0610   51.5050 C   0  0  0  0  0  0  0  0  0  0  0  0
   59.3600   32.5240   50.6540 N   0  0  0  0  0  0  0  0  0  0  0  0
   59.5460   33.0860   49.3180 C   0  0  0  0  0  0  0  0  0  0  0  0
   60.7740   33.6760   48.9330 C   0  0  0  0  0  0  0  0  0  0  0  0
   60.9480   34.2110   47.6540 C   0  0  0  0  0  0  0  0  0  0  0  0
   59.9080   34.1690   46.7270 C   0  0  0  0  0  0  0  0  0  0  0  0
   58.6890   33.5890   47.0760 C   0  0  0  0  0  0  0  0  0  0  0  0
   57.3830   33.5300   45.9050 Cl  0  0  0  0  0  0  0  0  0  0  0  0
   58.5070   33.0510   48.3550 C   0  0  0  0  0  0  0  0  0  0  0  0
   60.1740   31.3560   51.0580 C   0  0  0  0  0  0  0  0  0  0  0  0
   59.8900   30.7870   52.4660 C   0  0  0  0  0  0  0  0  0  0  0  0
   55.7650   30.0740   54.1190 N   0  0  0  0  0  0  0  0  0  0  0  0
  1  2  2  0
  2  3  1  0
  3  4  2  0
  4  5  1  0
  5  6  1  0
  6  7  1  0
  7  8  2  0
  7  9  1  0
  9 10  1  0
  9 11  1  0
 11 12  1  0
  3 13  1  0
 13 14  2  0
 14 15  1  0
 15 16  2  0
 15 17  1  0
 17 18  1  0
 18 19  1  0
 19 20  1  0
 20 21  1  0
 21 22  2  0
 22 23  1  0
 23 24  2  0
 24 25  1  0
 25 26  1  0
 25 27  2  0
 20 28  1  0
 28 29  1  0
 14 30  1  0
 30  2  1  0
 11  5  2  0
 29 17  1  0
 27 21  1  0
M  CHG  3   6  -1  12  -1  17   1
M  END
>  <UniqueID>  (3457) 
42

>  <SMILES>  (3457) 
C=c1[nH]c(C(=O)[NH+]2CCN(c3cccc(Cl)c3)CC2)c/c1=C\c1[n-]c(=O)n(C)c1[O-]

>  <Energy>  (3457) 
133.14970396394926

>  <Genealogy>  (3457) 
C=c1[nH]c(C(=O)[NH+]2CCN(c3cccc(Cl)c3)CC2)cc1=Cc1[n-]c(=O)n(C)c1[O-] (protonated)
C=c1[nH]c(C(=O)[NH+]2CCN(c3cccc(Cl)c3)CC2)c/c1=C\c1[n-]c(=O)n(C)c1[O-] (cis-trans isomerization)
C=c1[nH]c(C(=O)[NH+]2CCN(c3cccc(Cl)c3)CC2)c/c1=C\c1[n-]c(=O)n(C)c1[O-] (3D coordinates assigned)
C=c1[nH]c(C(=O)[NH+]2CCN(c3cccc(Cl)c3)CC2)c/c1=C\c1[n-]c(=O)n(C)c1[O-] (nonaromatic ring conformer: 133.14970396394926 kcal/mol)

>  <smiles>  (3457) 
C=c1[nH]c(C(=O)N2CCN(c3cccc(Cl)c3)CC2)cc1=Cc1[nH]c(=O)n(C)c1O

>  <score_type>  (3457) 
oracle

>  <origin>  (3457) 
adg

>  <m_score__min__energy>  (3457) 
-14.880000000000001

>  <m_primary>  (3457) 
energy

$$$$
45:0
     RDKit          3D

 33 36  0  0  0  0  0  0  0  0999 V2000
   55.5340   30.4720   44.0310 C   0  0  0  0  0  0  0  0  0  0  0  0
   56.3370   29.7660   44.8350 C   0  0  0  0  0  0  0  0  0  0  0  0
   56.0930   28.4670   45.1280 N   0  0  0  0  0  0  0  0  0  0  0  0
   57.0650   28.1300   46.0030 C   0  0  0  0  0  0  0  0  0  0  0  0
   57.1810   26.9300   46.5880 C   0  0  0  0  0  0  0  0  0  0  0  0
   56.7420   25.6730   45.9380 C   0  0  0  0  0  0  0  0  0  0  0  0
   55.3840   25.4100   45.6690 C   0  0  0  0  0  0  0  0  0  0  0  0
   54.3980   26.3390   45.9890 O   0  0  0  0  0  0  0  0  0  0  0  0
   55.0280   24.2490   45.0630 N   0  0  0  0  0  0  0  0  0  0  0  0
   55.9600   23.3340   44.6930 C   0  0  0  0  0  0  0  0  0  0  0  0
   55.6030   22.2610   44.1380 O   0  0  0  0  0  0  0  0  0  0  0  0
   57.2780   23.5750   44.9160 N   0  0  0  0  0  0  0  0  0  0  0  0
   57.6890   24.7210   45.5210 C   0  0  0  0  0  0  0  0  0  0  0  0
   58.9210   24.9090   45.7130 O   0  0  0  0  0  0  0  0  0  0  0  0
   57.8670   29.2270   46.2260 C   0  0  0  0  0  0  0  0  0  0  0  0
   58.8740   29.2690   46.9850 O   0  0  0  0  0  0  0  0  0  0  0  0
   57.4260   30.2600   45.4860 N   0  0  0  0  0  0  0  0  0  0  0  0
   58.0080   31.5760   45.4090 C   0  0  0  0  0  0  0  0  0  0  0  0
   57.9700   32.3000   44.2070 C   0  0  0  0  0  0  0  0  0  0  0  0
   58.5460   33.5710   44.1320 C   0  0  0  0  0  0  0  0  0  0  0  0
   59.1770   34.1230   45.2490 C   0  0  0  0  0  0  0  0  0  0  0  0
   59.2320   33.4080   46.4580 C   0  0  0  0  0  0  0  0  0  0  0  0
   59.9990   33.9530   47.6040 C   0  0  0  0  0  0  0  0  0  0  0  0
   59.5110   34.9130   48.2630 O   0  0  0  0  0  0  0  0  0  0  0  0
   61.3570   33.5110   47.8630 N   0  0  0  0  0  0  0  0  0  0  0  0
   61.3690   32.0570   48.0890 C   0  0  0  0  0  0  0  0  0  0  0  0
   62.7610   31.5850   48.5590 C   0  0  0  0  0  0  0  0  0  0  0  0
   63.8630   32.4760   48.1230 N   0  0  0  0  0  0  0  0  0  0  0  0
   64.2890   33.4740   49.1350 C   0  0  0  0  0  0  0  0  0  0  0  0
   64.6310   32.7610   50.4350 C   0  0  0  0  0  0  0  0  0  0  0  0
   63.6040   33.0840   46.8030 C   0  0  0  0  0  0  0  0  0  0  0  0
   62.2770   33.8840   46.7620 C   0  0  0  0  0  0  0  0  0  0  0  0
   58.6090   32.1520   46.5400 C   0  0  0  0  0  0  0  0  0  0  0  0
  1  2  2  0
  2  3  1  0
  3  4  1  0
  4  5  2  3
  5  6  1  0
  6  7  2  0
  7  8  1  0
  7  9  1  0
  9 10  1  0
 10 11  2  0
 10 12  1  0
 12 13  1  0
 13 14  2  0
  4 15  1  0
 15 16  2  0
 15 17  1  0
 17 18  1  0
 18 19  2  0
 19 20  1  0
 20 21  2  0
 21 22  1  0
 22 23  1  0
 23 24  2  0
 23 25  1  0
 25 26  1  0
 26 27  1  0
 27 28  1  0
 28 29  1  0
 29 30  1  0
 28 31  1  0
 31 32  1  0
 22 33  2  0
 17  2  1  0
 33 18  1  0
 13  6  1  0
 32 25  1  0
M  CHG  5   3  -1   8  -1   9  -1  12  -1  25   1
M  END
>  <UniqueID>  (3458) 
44

>  <SMILES>  (3458) 
C=c1[n-]c(=Cc2c([O-])[n-]c(=O)[n-]c2=O)c(=O)n1-c1cccc(C(=O)[NH+]2CCN(CC)CC2)c1

>  <Energy>  (3458) 
123.1486608213115

>  <Genealogy>  (3458) 
C=c1[n-]c(=Cc2c([O-])[n-]c(=O)[n-]c2=O)c(=O)n1-c1cccc(C(=O)[NH+]2CCN(CC)CC2)c1 (protonated)
C=c1[n-]c(=Cc2c([O-])[n-]c(=O)[n-]c2=O)c(=O)n1-c1cccc(C(=O)[NH+]2CCN(CC)CC2)c1 (3D coordinates assigned)
C=c1[n-]c(=Cc2c([O-])[n-]c(=O)[n-]c2=O)c(=O)n1-c1cccc(C(=O)[NH+]2CCN(CC)CC2)c1 (nonaromatic ring conformer: 123.1486608213115 kcal/mol)

>  <smiles>  (3458) 
C=c1[nH]c(=Cc2c(O)[nH]c(=O)[nH]c2=O)c(=O)n1-c1cccc(C(=O)N2CCN(CC)CC2)c1

>  <score_type>  (3458) 
oracle

>  <origin>  (3458) 
adg

>  <m_score__min__energy>  (3458) 
-16.899999999999999

>  <m_primary>  (3458) 
energy

$$$$
57:0
     RDKit          3D

 28 30  0  0  0  0  0  0  0  0999 V2000
   59.6380   28.4080   46.2180 C   0  0  0  0  0  0  0  0  0  0  0  0
   58.3950   28.4880   45.7180 C   0  0  0  0  0  0  0  0  0  0  0  0
   57.3750   27.5280   45.7760 C   0  0  0  0  0  0  0  0  0  0  0  0
   57.4210   26.2340   46.1430 C   0  0  0  0  0  0  0  0  0  0  0  0
   56.5170   25.1750   45.6650 C   0  0  0  0  0  0  0  0  0  0  0  0
   56.9250   24.0120   45.1090 N   0  0  0  0  0  0  0  0  0  0  0  0
   55.7730   23.4250   44.7140 C   0  0  0  0  0  0  0  0  0  0  0  0
   55.7370   22.2900   44.1720 O   0  0  0  0  0  0  0  0  0  0  0  0
   54.6760   24.1720   44.9550 N   0  0  0  0  0  0  0  0  0  0  0  0
   53.2800   23.8130   44.7250 C   0  0  0  0  0  0  0  0  0  0  0  0
   55.1490   25.2760   45.5550 C   0  0  0  0  0  0  0  0  0  0  0  0
   54.3640   26.3380   45.9910 O   0  0  0  0  0  0  0  0  0  0  0  0
   56.2220   28.0860   45.3480 N   0  0  0  0  0  0  0  0  0  0  0  0
   56.5670   29.3370   44.9900 C   0  0  0  0  0  0  0  0  0  0  0  0
   55.7400   30.1610   44.5150 O   0  0  0  0  0  0  0  0  0  0  0  0
   57.8700   29.6190   45.1880 N   0  0  0  0  0  0  0  0  0  0  0  0
   58.5480   30.8840   44.8820 C   0  0  0  0  0  0  0  0  0  0  0  0
   57.9910   31.9780   45.7360 C   0  0  0  0  0  0  0  0  0  0  0  0
   56.9060   32.5350   45.4160 O   0  0  0  0  0  0  0  0  0  0  0  0
   58.7130   32.4060   46.8950 N   0  0  0  0  0  0  0  0  0  0  0  0
   60.1390   32.5370   46.9720 C   0  0  0  0  0  0  0  0  0  0  0  0
   60.8860   31.4440   47.4310 C   0  0  0  0  0  0  0  0  0  0  0  0
   62.2750   31.5290   47.5340 C   0  0  0  0  0  0  0  0  0  0  0  0
   62.9300   32.7130   47.1950 C   0  0  0  0  0  0  0  0  0  0  0  0
   62.1960   33.8220   46.7690 C   0  0  0  0  0  0  0  0  0  0  0  0
   60.7910   33.7540   46.6680 C   0  0  0  0  0  0  0  0  0  0  0  0
   60.0230   34.8720   46.3040 O   0  0  0  0  0  0  0  0  0  0  0  0
   59.2290   34.9620   45.1270 C   0  0  0  0  0  0  0  0  0  0  0  0
  1  2  2  0
  2  3  1  0
  3  4  2  3
  4  5  1  0
  5  6  1  0
  6  7  1  0
  7  8  2  0
  7  9  1  0
  9 10  1  0
  9 11  1  0
 11 12  1  0
  3 13  1  0
 13 14  1  0
 14 15  2  0
 14 16  1  0
 16 17  1  0
 17 18  1  0
 18 19  2  0
 18 20  1  0
 20 21  1  0
 21 22  2  0
 22 23  1  0
 23 24  2  0
 24 25  1  0
 25 26  2  0
 26 27  1  0
 27 28  1  0
 16  2  1  0
 26 21  1  0
 11  5  2  0
M  CHG  4   6  -1  12  -1  13  -1  20  -1
M  END
>  <UniqueID>  (3459) 
55

>  <SMILES>  (3459) 
C=c1c(=Cc2[n-]c(=O)n(C)c2[O-])[n-]c(=O)n1CC(=O)[N-]c1ccccc1OC

>  <Energy>  (3459) 
122.20911471958064

>  <Genealogy>  (3459) 
C=c1c(=Cc2[n-]c(=O)n(C)c2[O-])[n-]c(=O)n1CC(=O)[N-]c1ccccc1OC (protonated)
C=c1c(=Cc2[n-]c(=O)n(C)c2[O-])[n-]c(=O)n1CC(=O)[N-]c1ccccc1OC (3D coordinates assigned)
C=c1c(=Cc2[n-]c(=O)n(C)c2[O-])[n-]c(=O)n1CC(=O)[N-]c1ccccc1OC (optimized conformer: 122.20911471958064 kcal/mol)

>  <smiles>  (3459) 
C=c1c(=Cc2[nH]c(=O)n(C)c2O)[nH]c(=O)n1CC(=O)Nc1ccccc1OC

>  <score_type>  (3459) 
oracle

>  <origin>  (3459) 
adg

>  <m_score__min__energy>  (3459) 
-16.359999999999999

>  <m_primary>  (3459) 
energy

$$$$
72:0
     RDKit          3D

 25 27  0  0  0  0  0  0  0  0999 V2000
   60.1520   27.4200   46.4050 C   0  0  0  0  0  0  0  0  0  0  0  0
   59.2660   28.1490   45.7060 C   0  0  0  0  0  0  0  0  0  0  0  0
   58.2520   27.6530   44.8710 C   0  0  0  0  0  0  0  0  0  0  0  0
   57.7640   26.4060   44.7190 C   0  0  0  0  0  0  0  0  0  0  0  0
   57.1740   25.5840   45.7880 C   0  0  0  0  0  0  0  0  0  0  0  0
   57.7580   24.4820   46.2880 N   0  0  0  0  0  0  0  0  0  0  0  0
   56.8310   24.0000   47.1450 C   0  0  0  0  0  0  0  0  0  0  0  0
   57.0190   22.9650   47.8340 O   0  0  0  0  0  0  0  0  0  0  0  0
   55.6840   24.7110   47.1980 N   0  0  0  0  0  0  0  0  0  0  0  0
   55.9120   25.7040   46.3240 C   0  0  0  0  0  0  0  0  0  0  0  0
   54.9780   26.6820   46.0060 O   0  0  0  0  0  0  0  0  0  0  0  0
   57.7880   28.7330   44.1440 C   0  0  0  0  0  0  0  0  0  0  0  0
   58.4600   29.8490   44.6010 C   0  0  0  0  0  0  0  0  0  0  0  0
   58.3100   31.2210   43.9910 C   0  0  0  0  0  0  0  0  0  0  0  0
   57.5450   32.1420   44.9050 C   0  0  0  0  0  0  0  0  0  0  0  0
   56.2880   32.0170   44.9560 O   0  0  0  0  0  0  0  0  0  0  0  0
   58.2050   33.1410   45.7230 N   0  0  0  0  0  0  0  0  0  0  0  0
   57.8590   33.2360   47.1540 C   0  0  0  0  0  0  0  0  0  0  0  0
   59.0700   33.6790   47.9700 C   0  0  0  0  0  0  0  0  0  0  0  0
   59.5570   34.9470   47.4560 N   0  0  0  0  0  0  0  0  0  0  0  0
   59.5730   35.1950   46.0520 C   0  0  0  0  0  0  0  0  0  0  0  0
   60.0180   36.2900   45.6190 O   0  0  0  0  0  0  0  0  0  0  0  0
   59.0690   34.1580   45.0850 C   0  0  0  0  0  0  0  0  0  0  0  0
   59.3430   29.5010   45.5700 N   0  0  0  0  0  0  0  0  0  0  0  0
   60.3130   30.3990   46.2130 C   0  0  0  0  0  0  0  0  0  0  0  0
  1  2  2  0
  2  3  1  0
  3  4  2  3
  4  5  1  0
  5  6  1  0
  6  7  1  0
  7  8  2  0
  7  9  1  0
  9 10  1  0
 10 11  1  0
  3 12  1  0
 12 13  2  0
 13 14  1  0
 14 15  1  0
 15 16  2  0
 15 17  1  0
 17 18  1  0
 18 19  1  0
 19 20  1  0
 20 21  1  0
 21 22  2  0
 21 23  1  0
 13 24  1  0
 24 25  1  0
 24  2  1  0
 10  5  2  0
 23 17  1  0
M  CHG  4   6  -1   9  -1  11  -1  20  -1
M  END
>  <UniqueID>  (3460) 
70

>  <SMILES>  (3460) 
C=c1c(=Cc2[n-]c(=O)[n-]c2[O-])cc(CC(=O)N2CC[N-]C(=O)C2)n1C

>  <Energy>  (3460) 
111.29904526637517

>  <Genealogy>  (3460) 
C=c1c(=Cc2[n-]c(=O)[n-]c2[O-])cc(CC(=O)N2CC[N-]C(=O)C2)n1C (protonated)
C=c1c(=Cc2[n-]c(=O)[n-]c2[O-])cc(CC(=O)N2CC[N-]C(=O)C2)n1C (3D coordinates assigned)
C=c1c(=Cc2[n-]c(=O)[n-]c2[O-])cc(CC(=O)N2CC[N-]C(=O)C2)n1C (nonaromatic ring conformer: 111.29904526637517 kcal/mol)

>  <smiles>  (3460) 
C=c1c(=Cc2[nH]c(=O)[nH]c2O)cc(CC(=O)N2CCNC(=O)C2)n1C

>  <score_type>  (3460) 
oracle

>  <origin>  (3460) 
adg

>  <m_score__min__energy>  (3460) 
-16.989999999999998

>  <m_primary>  (3460) 
energy

$$$$
76:0
     RDKit          3D

 29 32  0  0  0  0  0  0  0  0999 V2000
   52.9660   28.4750   53.4060 C   0  0  0  0  0  0  0  0  0  0  0  0
   54.0860   29.1720   53.1550 C   0  0  0  0  0  0  0  0  0  0  0  0
   54.1690   30.4530   52.5840 C   0  0  0  0  0  0  0  0  0  0  0  0
   53.2180   31.3730   52.3310 C   0  0  0  0  0  0  0  0  0  0  0  0
   52.2670   31.3410   51.2110 C   0  0  0  0  0  0  0  0  0  0  0  0
   52.3110   30.4290   50.2250 N   0  0  0  0  0  0  0  0  0  0  0  0
   51.3550   30.8480   49.3680 C   0  0  0  0  0  0  0  0  0  0  0  0
   51.0790   30.2320   48.3060 O   0  0  0  0  0  0  0  0  0  0  0  0
   50.7260   31.9870   49.7320 N   0  0  0  0  0  0  0  0  0  0  0  0
   51.3250   32.2940   50.8930 C   0  0  0  0  0  0  0  0  0  0  0  0
   51.0360   33.4360   51.6310 O   0  0  0  0  0  0  0  0  0  0  0  0
   55.5040   30.6540   52.2820 C   0  0  0  0  0  0  0  0  0  0  0  0
   56.1910   29.5430   52.7280 C   0  0  0  0  0  0  0  0  0  0  0  0
   57.6440   29.3420   52.5360 C   0  0  0  0  0  0  0  0  0  0  0  0
   58.1920   28.3020   52.9920 O   0  0  0  0  0  0  0  0  0  0  0  0
   58.4280   30.2790   51.7750 N   0  0  0  0  0  0  0  0  0  0  0  0
   59.5580   29.7800   50.9760 C   0  0  0  0  0  0  0  0  0  0  0  0
   60.1410   30.8750   50.0720 C   0  0  0  0  0  0  0  0  0  0  0  0
   59.0040   31.7210   49.4780 C   0  0  0  0  0  0  0  0  0  0  0  0
   59.5250   32.6610   48.4750 N   0  0  0  0  0  0  0  0  0  0  0  0
   60.9300   32.8150   48.0880 C   0  0  0  0  0  0  0  0  0  0  0  0
   60.9250   33.5890   46.7460 C   0  0  0  0  0  0  0  0  0  0  0  0
   59.5240   33.8030   46.4180 N   0  0  0  0  0  0  0  0  0  0  0  0
   58.7450   33.2350   47.4430 C   0  0  0  0  0  0  0  0  0  0  0  0
   57.4860   33.2230   47.4270 O   0  0  0  0  0  0  0  0  0  0  0  0
   58.1980   32.4510   50.5830 C   0  0  0  0  0  0  0  0  0  0  0  0
   58.2430   31.7280   51.9440 C   0  0  0  0  0  0  0  0  0  0  0  0
   55.3360   28.6520   53.2840 N   0  0  0  0  0  0  0  0  0  0  0  0
   55.6920   27.3450   53.8480 C   0  0  0  0  0  0  0  0  0  0  0  0
  1  2  2  0
  2  3  1  0
  3  4  2  3
  4  5  1  0
  5  6  1  0
  6  7  1  0
  7  8  2  0
  7  9  1  0
  9 10  1  0
 10 11  1  0
  3 12  1  0
 12 13  2  0
 13 14  1  0
 14 15  2  0
 14 16  1  0
 16 17  1  0
 17 18  1  0
 18 19  1  0
 19 20  1  0
 20 21  1  0
 21 22  1  0
 22 23  1  0
 23 24  1  0
 24 25  2  0
 19 26  1  0
 26 27  1  0
 13 28  1  0
 28 29  1  0
 28  2  1  0
 10  5  2  0
 27 16  1  0
 24 20  1  0
M  CHG  3   6  -1   9  -1  11  -1
M  END
>  <UniqueID>  (3461) 
74

>  <SMILES>  (3461) 
C=c1c(=Cc2[n-]c(=O)[n-]c2[O-])cc(C(=O)N2CCC(N3CCNC3=O)CC2)n1C

>  <Energy>  (3461) 
141.96258632549316

>  <Genealogy>  (3461) 
C=c1c(=Cc2[n-]c(=O)[n-]c2[O-])cc(C(=O)N2CCC(N3CCNC3=O)CC2)n1C (protonated)
C=c1c(=Cc2[n-]c(=O)[n-]c2[O-])cc(C(=O)N2CCC(N3CCNC3=O)CC2)n1C (3D coordinates assigned)
C=c1c(=Cc2[n-]c(=O)[n-]c2[O-])cc(C(=O)N2CCC(N3CCNC3=O)CC2)n1C (nonaromatic ring conformer: 141.96258632549316 kcal/mol)

>  <smiles>  (3461) 
C=c1c(=Cc2[nH]c(=O)[nH]c2O)cc(C(=O)N2CCC(N3CCNC3=O)CC2)n1C

>  <score_type>  (3461) 
oracle

>  <origin>  (3461) 
adg

>  <m_score__min__energy>  (3461) 
-17.120000000000001

>  <m_primary>  (3461) 
energy

$$$$
85:0
     RDKit          3D

 27 30  0  0  0  0  0  0  0  0999 V2000
   54.2150   30.1740   55.1990 C   0  0  0  0  0  0  0  0  0  0  0  0
   54.6960   30.4600   53.9780 C   0  0  0  0  0  0  0  0  0  0  0  0
   53.9440   30.7240   52.8230 C   0  0  0  0  0  0  0  0  0  0  0  0
   52.6350   31.0020   52.6660 C   0  0  0  0  0  0  0  0  0  0  0  0
   51.9310   31.1420   51.3810 C   0  0  0  0  0  0  0  0  0  0  0  0
   52.0260   30.2450   50.3840 N   0  0  0  0  0  0  0  0  0  0  0  0
   51.3560   30.8290   49.3700 C   0  0  0  0  0  0  0  0  0  0  0  0
   51.2100   30.2790   48.2470 O   0  0  0  0  0  0  0  0  0  0  0  0
   50.8620   32.0550   49.6470 N   0  0  0  0  0  0  0  0  0  0  0  0
   51.2490   32.2470   50.9180 C   0  0  0  0  0  0  0  0  0  0  0  0
   51.0190   33.4210   51.6250 O   0  0  0  0  0  0  0  0  0  0  0  0
   54.8320   30.6770   51.7660 C   0  0  0  0  0  0  0  0  0  0  0  0
   56.0860   30.4650   52.3010 C   0  0  0  0  0  0  0  0  0  0  0  0
   57.3490   30.4360   51.4830 C   0  0  0  0  0  0  0  0  0  0  0  0
   57.9800   31.8050   51.4740 C   0  0  0  0  0  0  0  0  0  0  0  0
   57.2760   32.7710   51.7320 O   0  0  0  0  0  0  0  0  0  0  0  0
   59.3980   31.9770   51.1920 N   0  0  0  0  0  0  0  0  0  0  0  0
   59.8780   31.0710   50.1250 C   0  0  0  0  0  0  0  0  0  0  0  0
   59.5050   31.5460   48.7090 C   0  0  0  0  0  0  0  0  0  0  0  0
   59.9220   32.9470   48.5040 N   0  0  0  0  0  0  0  0  0  0  0  0
   59.7630   33.5130   47.1370 C   0  0  0  0  0  0  0  0  0  0  0  0
   59.2910   34.9630   47.0750 C   0  0  0  0  0  0  0  0  0  0  0  0
   58.3660   33.8480   46.6060 C   0  0  0  0  0  0  0  0  0  0  0  0
   59.3320   33.8400   49.5140 C   0  0  0  0  0  0  0  0  0  0  0  0
   59.7380   33.3910   50.9250 C   0  0  0  0  0  0  0  0  0  0  0  0
   56.0130   30.3720   53.6510 N   0  0  0  0  0  0  0  0  0  0  0  0
   57.1320   30.1090   54.5610 C   0  0  0  0  0  0  0  0  0  0  0  0
  1  2  2  0
  2  3  1  0
  3  4  2  0
  4  5  1  0
  5  6  1  0
  6  7  1  0
  7  8  2  0
  7  9  1  0
  9 10  1  0
 10 11  1  0
  3 12  1  0
 12 13  2  0
 13 14  1  0
 14 15  1  0
 15 16  2  0
 15 17  1  0
 17 18  1  0
 18 19  1  0
 19 20  1  0
 20 21  1  0
 21 22  1  0
 22 23  1  0
 20 24  1  0
 24 25  1  0
 13 26  1  0
 26 27  1  0
 26  2  1  0
 10  5  2  0
 25 17  1  0
 23 21  1  0
M  CHG  4   6  -1   9  -1  11  -1  17   1
M  END
>  <UniqueID>  (3462) 
83

>  <SMILES>  (3462) 
C=c1/c(=C\c2[n-]c(=O)[n-]c2[O-])cc(CC(=O)[NH+]2CCN(C3CC3)CC2)n1C

>  <Energy>  (3462) 
399.571230997733

>  <Genealogy>  (3462) 
C=c1c(=Cc2[n-]c(=O)[n-]c2[O-])cc(CC(=O)[NH+]2CCN(C3CC3)CC2)n1C (protonated)
C=c1/c(=C\c2[n-]c(=O)[n-]c2[O-])cc(CC(=O)[NH+]2CCN(C3CC3)CC2)n1C (cis-trans isomerization)
C=c1/c(=C\c2[n-]c(=O)[n-]c2[O-])cc(CC(=O)[NH+]2CCN(C3CC3)CC2)n1C (3D coordinates assigned)
C=c1/c(=C\c2[n-]c(=O)[n-]c2[O-])cc(CC(=O)[NH+]2CCN(C3CC3)CC2)n1C (nonaromatic ring conformer: 399.571230997733 kcal/mol)

>  <smiles>  (3462) 
C=c1c(=Cc2[nH]c(=O)[nH]c2O)cc(CC(=O)N2CCN(C3CC3)CC2)n1C

>  <score_type>  (3462) 
oracle

>  <origin>  (3462) 
adg

>  <m_score__min__energy>  (3462) 
-16.170000000000002

>  <m_primary>  (3462) 
energy

$$$$
1:0
     RDKit          3D

 29 32  0  0  0  0  0  0  0  0999 V2000
   60.4240   28.7430   44.8240 C   0  0  0  0  0  0  0  0  0  0  0  0
   59.7310   28.8780   45.9660 C   0  0  0  0  0  0  0  0  0  0  0  0
   58.7480   28.0000   46.4420 C   0  0  0  0  0  0  0  0  0  0  0  0
   58.0420   27.0460   45.8060 C   0  0  0  0  0  0  0  0  0  0  0  0
   57.3050   25.9590   46.4710 C   0  0  0  0  0  0  0  0  0  0  0  0
   57.8740   24.8600   47.0030 N   0  0  0  0  0  0  0  0  0  0  0  0
   56.8150   24.1040   47.3640 C   0  0  0  0  0  0  0  0  0  0  0  0
   56.9430   22.9820   47.9200 O   0  0  0  0  0  0  0  0  0  0  0  0
   55.6110   24.6390   47.0730 N   0  0  0  0  0  0  0  0  0  0  0  0
   55.9410   25.8070   46.4960 C   0  0  0  0  0  0  0  0  0  0  0  0
   55.0130   26.7110   45.9970 O   0  0  0  0  0  0  0  0  0  0  0  0
   58.5600   28.3140   47.7730 C   0  0  0  0  0  0  0  0  0  0  0  0
   59.3460   29.4170   48.0370 C   0  0  0  0  0  0  0  0  0  0  0  0
   59.4720   30.0500   49.3910 C   0  0  0  0  0  0  0  0  0  0  0  0
   60.0210   29.8000   46.9250 N   0  0  0  0  0  0  0  0  0  0  0  0
   60.9880   30.9110   46.8530 C   0  0  0  0  0  0  0  0  0  0  0  0
   60.3540   32.2740   47.1020 C   0  0  0  0  0  0  0  0  0  0  0  0
   61.1230   33.2330   47.7920 C   0  0  0  0  0  0  0  0  0  0  0  0
   60.5900   34.4770   48.1260 C   0  0  0  0  0  0  0  0  0  0  0  0
   59.2710   34.7800   47.8050 C   0  0  0  0  0  0  0  0  0  0  0  0
   58.4810   33.8420   47.1450 C   0  0  0  0  0  0  0  0  0  0  0  0
   59.0010   32.5860   46.7730 C   0  0  0  0  0  0  0  0  0  0  0  0
   58.0750   31.6190   46.0550 C   0  0  0  0  0  0  0  0  0  0  0  0
   58.4470   31.4280   44.6280 N   0  0  0  0  0  0  0  0  0  0  0  0
   58.2460   32.6730   43.8390 C   0  0  0  0  0  0  0  0  0  0  0  0
   58.1350   32.3730   42.3370 C   0  0  0  0  0  0  0  0  0  0  0  0
   56.9790   31.5090   42.0290 N   0  0  0  0  0  0  0  0  0  0  0  0
   56.5530   30.6630   43.1580 C   0  0  0  0  0  0  0  0  0  0  0  0
   57.7440   30.2520   44.0350 C   0  0  0  0  0  0  0  0  0  0  0  0
  1  2  2  0
  2  3  1  0
  3  4  2  3
  4  5  1  0
  5  6  1  0
  6  7  1  0
  7  8  2  0
  7  9  1  0
  9 10  1  0
 10 11  1  0
  3 12  1  0
 12 13  2  0
 13 14  1  0
 13 15  1  0
 15 16  1  0
 16 17  1  0
 17 18  2  0
 18 19  1  0
 19 20  2  0
 20 21  1  0
 21 22  2  0
 22 23  1  0
 23 24  1  0
 24 25  1  0
 25 26  1  0
 26 27  1  0
 27 28  1  0
 28 29  1  0
 15  2  1  0
 22 17  1  0
 29 24  1  0
 10  5  2  0
M  CHG  4   6  -1   9  -1  11  -1  24   1
M  END
>  <UniqueID>  (3463) 
2

>  <SMILES>  (3463) 
C=c1c(=Cc2[n-]c(=O)[n-]c2[O-])cc(C)n1Cc1ccccc1C[NH+]1CCNCC1

>  <Energy>  (3463) 
138.08474357731785

>  <Genealogy>  (3463) 
C=c1c(=Cc2[n-]c(=O)[n-]c2[O-])cc(C)n1Cc1ccccc1C[NH+]1CCNCC1 (protonated)
C=c1c(=Cc2[n-]c(=O)[n-]c2[O-])cc(C)n1Cc1ccccc1C[NH+]1CCNCC1 (3D coordinates assigned)
C=c1c(=Cc2[n-]c(=O)[n-]c2[O-])cc(C)n1Cc1ccccc1C[NH+]1CCNCC1 (nonaromatic ring conformer: 138.08474357731785 kcal/mol)

>  <smiles>  (3463) 
C=c1c(=Cc2[nH]c(=O)[nH]c2O)cc(C)n1Cc1ccccc1CN1CCNCC1

>  <score_type>  (3463) 
oracle

>  <origin>  (3463) 
adg

>  <m_score__min__energy>  (3463) 
-15.050000000000001

>  <m_primary>  (3463) 
energy

$$$$
5:0
     RDKit          3D

 26 28  0  0  0  0  0  0  0  0999 V2000
   60.7740   29.7530   45.9340 C   0  0  0  0  0  0  0  0  0  0  0  0
   59.5380   29.2530   45.8720 C   0  0  0  0  0  0  0  0  0  0  0  0
   59.1960   28.1080   46.5080 N   0  0  0  0  0  0  0  0  0  0  0  0
   57.8780   27.9640   46.2580 C   0  0  0  0  0  0  0  0  0  0  0  0
   57.1060   26.9930   46.7630 C   0  0  0  0  0  0  0  0  0  0  0  0
   56.7530   25.7680   46.0130 C   0  0  0  0  0  0  0  0  0  0  0  0
   57.7670   24.8440   45.7210 C   0  0  0  0  0  0  0  0  0  0  0  0
   57.4790   23.6750   45.0110 C   0  0  0  0  0  0  0  0  0  0  0  0
   56.1680   23.4080   44.6000 C   0  0  0  0  0  0  0  0  0  0  0  0
   55.8680   22.2480   43.8910 O   0  0  0  0  0  0  0  0  0  0  0  0
   55.1460   24.3120   44.9110 C   0  0  0  0  0  0  0  0  0  0  0  0
   55.4280   25.4820   45.6250 C   0  0  0  0  0  0  0  0  0  0  0  0
   54.3820   26.3320   45.9680 O   0  0  0  0  0  0  0  0  0  0  0  0
   57.4530   29.0220   45.4860 C   0  0  0  0  0  0  0  0  0  0  0  0
   56.2680   29.2410   45.1130 O   0  0  0  0  0  0  0  0  0  0  0  0
   58.4950   29.8320   45.2210 N   0  0  0  0  0  0  0  0  0  0  0  0
   58.4140   31.1620   44.6080 C   0  0  0  0  0  0  0  0  0  0  0  0
   57.9170   32.1360   45.6260 C   0  0  0  0  0  0  0  0  0  0  0  0
   57.8310   31.7930   46.8370 O   0  0  0  0  0  0  0  0  0  0  0  0
   57.6670   33.4890   45.2380 N   0  0  0  0  0  0  0  0  0  0  0  0
   58.6710   34.5360   45.3550 C   0  0  0  0  0  0  0  0  0  0  0  0
   59.5660   34.2360   46.5160 C   0  0  0  0  0  0  0  0  0  0  0  0
   59.2560   34.4530   47.8530 C   0  0  0  0  0  0  0  0  0  0  0  0
   60.3380   34.2340   48.7140 C   0  0  0  0  0  0  0  0  0  0  0  0
   61.5060   33.8630   48.0580 C   0  0  0  0  0  0  0  0  0  0  0  0
   61.1900   33.8140   46.4070 S   0  0  0  0  0  0  0  0  0  0  0  0
  1  2  2  0
  2  3  1  0
  3  4  1  0
  4  5  2  3
  5  6  1  0
  6  7  2  0
  7  8  1  0
  8  9  2  0
  9 10  1  0
  9 11  1  0
 11 12  2  0
 12 13  1  0
  4 14  1  0
 14 15  2  0
 14 16  1  0
 16 17  1  0
 17 18  1  0
 18 19  2  0
 18 20  1  0
 20 21  1  0
 21 22  1  0
 22 23  2  0
 23 24  1  0
 24 25  2  0
 25 26  1  0
 16  2  1  0
 26 22  1  0
 12  6  1  0
M  CHG  3   3  -1  13  -1  20  -1
M  END
>  <UniqueID>  (3464) 
6

>  <SMILES>  (3464) 
C=c1[n-]c(=Cc2ccc(O)cc2[O-])c(=O)n1CC(=O)[N-]Cc1cccs1

>  <Energy>  (3464) 
100.06771402382478

>  <Genealogy>  (3464) 
C=c1[n-]c(=Cc2ccc(O)cc2[O-])c(=O)n1CC(=O)[N-]Cc1cccs1 (protonated)
C=c1[n-]c(=Cc2ccc(O)cc2[O-])c(=O)n1CC(=O)[N-]Cc1cccs1 (3D coordinates assigned)
C=c1[n-]c(=Cc2ccc(O)cc2[O-])c(=O)n1CC(=O)[N-]Cc1cccs1 (optimized conformer: 100.06771402382478 kcal/mol)

>  <smiles>  (3464) 
C=c1[nH]c(=Cc2ccc(O)cc2O)c(=O)n1CC(=O)NCc1cccs1

>  <score_type>  (3464) 
oracle

>  <origin>  (3464) 
adg

>  <m_score__min__energy>  (3464) 
-14.58

>  <m_primary>  (3464) 
energy

$$$$
21:0
     RDKit          3D

 36 39  0  0  0  0  0  0  0  0999 V2000
   57.5110   24.8880   48.1810 O   0  0  0  0  0  0  0  0  0  0  0  0
   57.9100   25.4800   47.1370 C   0  0  0  0  0  0  0  0  0  0  0  0
   57.1400   25.2540   45.8660 C   0  0  0  0  0  0  0  0  0  0  0  0
   55.9030   26.1190   45.8060 C   0  0  0  0  0  0  0  0  0  0  0  0
   54.7670   25.5920   45.9900 O   0  0  0  0  0  0  0  0  0  0  0  0
   55.9750   27.5410   45.6360 N   0  0  0  0  0  0  0  0  0  0  0  0
   57.1200   28.3210   45.2640 C   0  0  0  0  0  0  0  0  0  0  0  0
   58.3220   27.7270   44.8480 C   0  0  0  0  0  0  0  0  0  0  0  0
   59.4070   28.5230   44.4690 C   0  0  0  0  0  0  0  0  0  0  0  0
   59.2940   29.9130   44.4750 C   0  0  0  0  0  0  0  0  0  0  0  0
   58.0870   30.5190   44.8500 C   0  0  0  0  0  0  0  0  0  0  0  0
   57.9360   32.2810   44.8230 S   0  0  0  0  0  0  0  0  0  0  0  0
   58.0250   32.7650   43.4010 O   0  0  0  0  0  0  0  0  0  0  0  0
   56.5860   32.6650   45.3600 O   0  0  0  0  0  0  0  0  0  0  0  0
   59.1760   33.0540   45.7830 N   0  0  0  0  0  0  0  0  0  0  0  0
   58.5710   33.9560   46.7750 C   0  0  0  0  0  0  0  0  0  0  0  0
   59.6660   34.6230   47.6320 C   0  0  0  0  0  0  0  0  0  0  0  0
   60.9560   34.1140   47.3400 O   0  0  0  0  0  0  0  0  0  0  0  0
   60.9610   32.7080   47.4750 C   0  0  0  0  0  0  0  0  0  0  0  0
   60.0200   32.0470   46.4490 C   0  0  0  0  0  0  0  0  0  0  0  0
   57.0030   29.7180   45.2370 C   0  0  0  0  0  0  0  0  0  0  0  0
   59.0870   26.2990   47.2420 N   0  0  0  0  0  0  0  0  0  0  0  0
   59.6480   27.1320   48.2780 C   0  0  0  0  0  0  0  0  0  0  0  0
   60.6870   26.7280   49.1430 C   0  0  0  0  0  0  0  0  0  0  0  0
   61.1450   27.5890   50.1440 C   0  0  0  0  0  0  0  0  0  0  0  0
   60.5750   28.8510   50.3070 C   0  0  0  0  0  0  0  0  0  0  0  0
   59.5330   29.2710   49.4640 C   0  0  0  0  0  0  0  0  0  0  0  0
   58.8970   30.5920   49.6760 C   0  0  0  0  0  0  0  0  0  0  0  0
   58.5780   31.2840   48.6710 O   0  0  0  0  0  0  0  0  0  0  0  0
   58.6330   31.1050   50.9950 N   0  0  0  0  0  0  0  0  0  0  0  0
   58.1970   30.2280   52.0880 C   0  0  0  0  0  0  0  0  0  0  0  0
   57.0490   30.8960   52.8520 C   0  0  0  0  0  0  0  0  0  0  0  0
   57.4050   32.2060   53.2560 O   0  0  0  0  0  0  0  0  0  0  0  0
   57.6000   33.0240   52.1160 C   0  0  0  0  0  0  0  0  0  0  0  0
   58.7950   32.5330   51.2920 C   0  0  0  0  0  0  0  0  0  0  0  0
   59.0760   28.4000   48.4600 C   0  0  0  0  0  0  0  0  0  0  0  0
  1  2  2  0
  2  3  1  0
  3  4  1  0
  4  5  2  0
  4  6  1  0
  6  7  1  0
  7  8  2  0
  8  9  1  0
  9 10  2  0
 10 11  1  0
 11 12  1  0
 12 13  2  0
 12 14  2  0
 12 15  1  0
 15 16  1  0
 16 17  1  0
 17 18  1  0
 18 19  1  0
 19 20  1  0
 11 21  2  0
  2 22  1  0
 22 23  1  0
 23 24  2  0
 24 25  1  0
 25 26  2  0
 26 27  1  0
 27 28  1  0
 28 29  2  0
 28 30  1  0
 30 31  1  0
 31 32  1  0
 32 33  1  0
 33 34  1  0
 34 35  1  0
 27 36  2  0
 21  7  1  0
 36 23  1  0
 20 15  1  0
 35 30  1  0
M  CHG  2   6  -1  22  -1
M  END
>  <UniqueID>  (3465) 
21

>  <SMILES>  (3465) 
O=C(CC(=O)[N-]c1cccc(S(=O)(=O)N2CCOCC2)c1)[N-]c1cccc(C(=O)N2CCOCC2)c1

>  <Energy>  (3465) 
91.35894961487462

>  <Genealogy>  (3465) 
O=C(CC(=O)[N-]c1cccc(S(=O)(=O)N2CCOCC2)c1)[N-]c1cccc(C(=O)N2CCOCC2)c1 (protonated)
O=C(CC(=O)[N-]c1cccc(S(=O)(=O)N2CCOCC2)c1)[N-]c1cccc(C(=O)N2CCOCC2)c1 (3D coordinates assigned)
O=C(CC(=O)[N-]c1cccc(S(=O)(=O)N2CCOCC2)c1)[N-]c1cccc(C(=O)N2CCOCC2)c1 (nonaromatic ring conformer: 91.35894961487462 kcal/mol)

>  <smiles>  (3465) 
O=C(CC(=O)Nc1cccc(S(=O)(=O)N2CCOCC2)c1)Nc1cccc(C(=O)N2CCOCC2)c1

>  <score_type>  (3465) 
oracle

>  <origin>  (3465) 
adg

>  <m_score__min__energy>  (3465) 
-14.529999999999999

>  <m_primary>  (3465) 
energy

$$$$
30:0
     RDKit          3D

 36 40  0  0  0  0  0  0  0  0999 V2000
   58.2280   24.0800   45.2050 C   0  0  0  0  0  0  0  0  0  0  0  0
   58.4420   25.4190   45.1090 N   0  0  0  0  0  0  0  0  0  0  0  0
   57.4580   26.3360   45.3230 C   0  0  0  0  0  0  0  0  0  0  0  0
   57.7600   27.5960   45.1800 N   0  0  0  0  0  0  0  0  0  0  0  0
   59.0150   28.2290   45.4510 C   0  0  0  0  0  0  0  0  0  0  0  0
   59.7120   28.6570   44.4930 O   0  0  0  0  0  0  0  0  0  0  0  0
   59.4110   28.4860   46.8480 C   0  0  0  0  0  0  0  0  0  0  0  0
   59.8320   29.6650   47.2590 O   0  0  0  0  0  0  0  0  0  0  0  0
   60.2350   29.5570   48.5030 C   0  0  0  0  0  0  0  0  0  0  0  0
   60.8070   30.5510   49.3260 C   0  0  0  0  0  0  0  0  0  0  0  0
   60.9340   31.9390   48.9180 N   0  0  0  0  0  0  0  0  0  0  0  0
   60.0000   32.9510   49.4380 C   0  0  0  0  0  0  0  0  0  0  0  0
   59.6920   34.0180   48.3630 C   0  0  0  0  0  0  0  0  0  0  0  0
   59.6000   33.4200   47.0060 N   0  0  0  0  0  0  0  0  0  0  0  0
   58.3940   32.5560   46.9150 C   0  0  0  0  0  0  0  0  0  0  0  0
   58.0970   32.1000   45.5080 C   0  0  0  0  0  0  0  0  0  0  0  0
   58.2930   32.7740   44.3060 C   0  0  0  0  0  0  0  0  0  0  0  0
   58.9130   34.1310   44.1370 C   0  0  0  0  0  0  0  0  0  0  0  0
   57.8280   32.0020   43.2910 N   0  0  0  0  0  0  0  0  0  0  0  0
   57.8360   32.3480   41.8680 C   0  0  0  0  0  0  0  0  0  0  0  0
   57.2800   30.9060   43.8040 N   0  0  0  0  0  0  0  0  0  0  0  0
   56.6420   29.8360   43.0370 C   0  0  0  0  0  0  0  0  0  0  0  0
   57.4370   30.9440   45.1420 C   0  0  0  0  0  0  0  0  0  0  0  0
   57.0210   30.0550   45.9330 O   0  0  0  0  0  0  0  0  0  0  0  0
   60.8560   32.7090   46.6040 C   0  0  0  0  0  0  0  0  0  0  0  0
   61.7700   32.3670   47.7940 C   0  0  0  0  0  0  0  0  0  0  0  0
   61.2230   30.1380   50.6160 C   0  0  0  0  0  0  0  0  0  0  0  0
   61.0420   28.8090   51.0510 C   0  0  0  0  0  0  0  0  0  0  0  0
   60.4480   27.8570   50.2110 C   0  0  0  0  0  0  0  0  0  0  0  0
   60.0530   28.2660   48.9390 C   0  0  0  0  0  0  0  0  0  0  0  0
   59.4930   27.5600   47.8900 C   0  0  0  0  0  0  0  0  0  0  0  0
   59.1900   26.0940   47.8370 C   0  0  0  0  0  0  0  0  0  0  0  0
   56.1690   25.8790   45.6950 C   0  0  0  0  0  0  0  0  0  0  0  0
   55.1350   26.7560   46.0000 O   0  0  0  0  0  0  0  0  0  0  0  0
   55.9370   24.5040   45.7920 C   0  0  0  0  0  0  0  0  0  0  0  0
   56.9640   23.5990   45.5410 C   0  0  0  0  0  0  0  0  0  0  0  0
  1  2  1  0
  2  3  1  0
  3  4  2  0
  4  5  1  0
  5  6  2  0
  5  7  1  0
  7  8  1  0
  8  9  1  0
  9 10  2  0
 10 11  1  0
 11 12  1  0
 12 13  1  0
 13 14  1  0
 14 15  1  0
 15 16  1  0
 16 17  2  0
 17 18  1  0
 17 19  1  0
 19 20  1  0
 19 21  1  0
 21 22  1  0
 21 23  1  0
 23 24  2  0
 14 25  1  0
 25 26  1  0
 10 27  1  0
 27 28  2  0
 28 29  1  0
 29 30  2  0
 30 31  1  0
 31 32  1  0
  3 33  1  0
 33 34  1  0
 33 35  2  0
 35 36  1  0
 36  1  2  0
 31  7  2  0
 30  9  1  0
 26 11  1  0
 23 16  1  0
M  CHG  3   2  -1  14   1  34  -1
M  END
>  <UniqueID>  (3466) 
30

>  <SMILES>  (3466) 
Cc1c(C(=O)/N=c2/[n-]cccc2[O-])oc2c(N3CC[NH+](Cc4c(C)n(C)n(C)c4=O)CC3)cccc12

>  <Energy>  (3466) 
160.77411649761243

>  <Genealogy>  (3466) 
Cc1c(C(=O)N=c2[n-]cccc2[O-])oc2c(N3CC[NH+](Cc4c(C)n(C)n(C)c4=O)CC3)cccc12 (protonated)
Cc1c(C(=O)/N=c2/[n-]cccc2[O-])oc2c(N3CC[NH+](Cc4c(C)n(C)n(C)c4=O)CC3)cccc12 (cis-trans isomerization)
Cc1c(C(=O)/N=c2/[n-]cccc2[O-])oc2c(N3CC[NH+](Cc4c(C)n(C)n(C)c4=O)CC3)cccc12 (3D coordinates assigned)
Cc1c(C(=O)/N=c2/[n-]cccc2[O-])oc2c(N3CC[NH+](Cc4c(C)n(C)n(C)c4=O)CC3)cccc12 (nonaromatic ring conformer: 160.77411649761243 kcal/mol)

>  <smiles>  (3466) 
Cc1c(C(=O)N=c2[nH]cccc2O)oc2c(N3CCN(Cc4c(C)n(C)n(C)c4=O)CC3)cccc12

>  <score_type>  (3466) 
oracle

>  <origin>  (3466) 
adg

>  <m_score__min__energy>  (3466) 
-14.4

>  <m_primary>  (3466) 
energy

$$$$
35:0
     RDKit          3D

 29 31  0  0  0  0  0  0  0  0999 V2000
   60.2820   28.4050   49.4360 C   0  0  0  0  0  0  0  0  0  0  0  0
   60.3300   29.3370   50.5110 O   0  0  0  0  0  0  0  0  0  0  0  0
   59.2250   30.0420   51.0120 C   0  0  0  0  0  0  0  0  0  0  0  0
   58.4920   29.5780   52.1210 C   0  0  0  0  0  0  0  0  0  0  0  0
   57.3730   30.2810   52.5740 C   0  0  0  0  0  0  0  0  0  0  0  0
   56.9730   31.4520   51.9300 C   0  0  0  0  0  0  0  0  0  0  0  0
   55.8860   32.1310   52.3710 F   0  0  0  0  0  0  0  0  0  0  0  0
   57.6950   31.9270   50.8330 C   0  0  0  0  0  0  0  0  0  0  0  0
   58.8250   31.2350   50.3700 C   0  0  0  0  0  0  0  0  0  0  0  0
   59.5490   31.7320   49.2280 N   0  0  0  0  0  0  0  0  0  0  0  0
   59.5600   30.9610   47.9790 C   0  0  0  0  0  0  0  0  0  0  0  0
   60.1010   31.8100   46.8160 C   0  0  0  0  0  0  0  0  0  0  0  0
   59.7970   33.2450   46.9940 N   0  0  0  0  0  0  0  0  0  0  0  0
   58.3410   33.5150   47.0100 C   0  0  0  0  0  0  0  0  0  0  0  0
   57.5990   32.5380   46.0900 C   0  0  0  0  0  0  0  0  0  0  0  0
   58.1740   32.5730   44.6600 C   0  0  0  0  0  0  0  0  0  0  0  0
   58.5150   31.2300   44.1970 N   0  0  0  0  0  0  0  0  0  0  0  0
   57.5680   30.1870   43.9240 C   0  0  0  0  0  0  0  0  0  0  0  0
   56.6910   30.3780   43.0410 O   0  0  0  0  0  0  0  0  0  0  0  0
   57.5710   28.9110   44.6690 C   0  0  0  0  0  0  0  0  0  0  0  0
   58.7780   28.2310   44.8970 C   0  0  0  0  0  0  0  0  0  0  0  0
   58.7830   27.0230   45.5980 C   0  0  0  0  0  0  0  0  0  0  0  0
   57.5890   26.4840   46.0790 C   0  0  0  0  0  0  0  0  0  0  0  0
   56.3760   27.1400   45.8440 C   0  0  0  0  0  0  0  0  0  0  0  0
   55.1960   26.5760   46.3270 O   0  0  0  0  0  0  0  0  0  0  0  0
   56.3640   28.3530   45.1320 C   0  0  0  0  0  0  0  0  0  0  0  0
   55.1580   29.0090   44.9010 O   0  0  0  0  0  0  0  0  0  0  0  0
   60.4870   33.7910   48.1890 C   0  0  0  0  0  0  0  0  0  0  0  0
   60.5150   32.8230   49.3940 C   0  0  0  0  0  0  0  0  0  0  0  0
  1  2  1  0
  2  3  1  0
  3  4  2  0
  4  5  1  0
  5  6  2  0
  6  7  1  0
  6  8  1  0
  8  9  2  0
  9 10  1  0
 10 11  1  0
 11 12  1  0
 12 13  1  0
 13 14  1  0
 14 15  1  0
 15 16  1  0
 16 17  1  0
 17 18  1  0
 18 19  2  0
 18 20  1  0
 20 21  2  0
 21 22  1  0
 22 23  2  0
 23 24  1  0
 24 25  1  0
 24 26  2  0
 26 27  1  0
 13 28  1  0
 28 29  1  0
  9  3  1  0
 29 10  1  0
 26 20  1  0
M  CHG  2  17  -1  27  -1
M  END
>  <UniqueID>  (3467) 
35

>  <SMILES>  (3467) 
COc1ccc(F)cc1N1CCN(CCC[N-]C(=O)c2cccc(O)c2[O-])CC1

>  <Energy>  (3467) 
64.21723796060887

>  <Genealogy>  (3467) 
COc1ccc(F)cc1N1CCN(CCC[N-]C(=O)c2cccc(O)c2[O-])CC1 (protonated)
COc1ccc(F)cc1N1CCN(CCC[N-]C(=O)c2cccc(O)c2[O-])CC1 (3D coordinates assigned)
COc1ccc(F)cc1N1CCN(CCC[N-]C(=O)c2cccc(O)c2[O-])CC1 (nonaromatic ring conformer: 64.21723796060887 kcal/mol)

>  <smiles>  (3467) 
COc1ccc(F)cc1N1CCN(CCCNC(=O)c2cccc(O)c2O)CC1

>  <score_type>  (3467) 
oracle

>  <origin>  (3467) 
adg

>  <m_score__min__energy>  (3467) 
-14.18

>  <m_primary>  (3467) 
energy

$$$$
45:0
     RDKit          3D

 28 30  0  0  0  0  0  0  0  0999 V2000
   59.6990   28.2500   46.5910 C   0  0  0  0  0  0  0  0  0  0  0  0
   58.4890   28.3650   46.0240 C   0  0  0  0  0  0  0  0  0  0  0  0
   57.3810   27.5150   46.1710 C   0  0  0  0  0  0  0  0  0  0  0  0
   57.2820   26.3050   46.7510 C   0  0  0  0  0  0  0  0  0  0  0  0
   56.4670   25.1810   46.2650 C   0  0  0  0  0  0  0  0  0  0  0  0
   56.8960   23.9000   46.2550 N   0  0  0  0  0  0  0  0  0  0  0  0
   55.8050   23.2010   45.8730 C   0  0  0  0  0  0  0  0  0  0  0  0
   55.8050   21.9470   45.7530 O   0  0  0  0  0  0  0  0  0  0  0  0
   54.7160   23.9680   45.6560 N   0  0  0  0  0  0  0  0  0  0  0  0
   53.3580   23.5270   45.3570 C   0  0  0  0  0  0  0  0  0  0  0  0
   55.1260   25.2130   45.9410 C   0  0  0  0  0  0  0  0  0  0  0  0
   54.3020   26.3350   45.9450 O   0  0  0  0  0  0  0  0  0  0  0  0
   56.3030   28.1000   45.6030 N   0  0  0  0  0  0  0  0  0  0  0  0
   56.7740   29.2510   45.0910 C   0  0  0  0  0  0  0  0  0  0  0  0
   56.0400   30.0760   44.4850 O   0  0  0  0  0  0  0  0  0  0  0  0
   58.0930   29.4410   45.3020 N   0  0  0  0  0  0  0  0  0  0  0  0
   58.8520   30.6510   44.9610 C   0  0  0  0  0  0  0  0  0  0  0  0
   58.8350   31.6110   46.1120 C   0  0  0  0  0  0  0  0  0  0  0  0
   57.8900   32.4420   46.2080 O   0  0  0  0  0  0  0  0  0  0  0  0
   59.8580   31.5620   47.1150 N   0  0  0  0  0  0  0  0  0  0  0  0
   59.7920   32.3650   48.3010 C   0  0  0  0  0  0  0  0  0  0  0  0
   59.4790   31.7590   49.5390 C   0  0  0  0  0  0  0  0  0  0  0  0
   59.1970   30.2840   49.6200 C   0  0  0  0  0  0  0  0  0  0  0  0
   59.4000   32.5500   50.6960 C   0  0  0  0  0  0  0  0  0  0  0  0
   59.6310   33.9250   50.6290 C   0  0  0  0  0  0  0  0  0  0  0  0
   59.9500   34.5250   49.4110 C   0  0  0  0  0  0  0  0  0  0  0  0
   60.0520   33.7530   48.2430 C   0  0  0  0  0  0  0  0  0  0  0  0
   60.4050   34.4260   46.9440 C   0  0  0  0  0  0  0  0  0  0  0  0
  1  2  2  0
  2  3  1  0
  3  4  2  3
  4  5  1  0
  5  6  1  0
  6  7  1  0
  7  8  2  0
  7  9  1  0
  9 10  1  0
  9 11  1  0
 11 12  1  0
  3 13  1  0
 13 14  1  0
 14 15  2  0
 14 16  1  0
 16 17  1  0
 17 18  1  0
 18 19  2  0
 18 20  1  0
 20 21  1  0
 21 22  2  0
 22 23  1  0
 22 24  1  0
 24 25  2  0
 25 26  1  0
 26 27  2  0
 27 28  1  0
 16  2  1  0
 27 21  1  0
 11  5  2  0
M  CHG  3   6  -1  12  -1  13  -1
M  END
>  <UniqueID>  (3468) 
44

>  <SMILES>  (3468) 
C=c1c(=Cc2[n-]c(=O)n(C)c2[O-])[n-]c(=O)n1CC(=O)Nc1c(C)cccc1C

>  <Energy>  (3468) 
127.77725514184122

>  <Genealogy>  (3468) 
C=c1c(=Cc2[n-]c(=O)n(C)c2[O-])[n-]c(=O)n1CC(=O)Nc1c(C)cccc1C (protonated)
C=c1c(=Cc2[n-]c(=O)n(C)c2[O-])[n-]c(=O)n1CC(=O)Nc1c(C)cccc1C (3D coordinates assigned)
C=c1c(=Cc2[n-]c(=O)n(C)c2[O-])[n-]c(=O)n1CC(=O)Nc1c(C)cccc1C (optimized conformer: 127.77725514184122 kcal/mol)

>  <smiles>  (3468) 
C=c1c(=Cc2[nH]c(=O)n(C)c2O)[nH]c(=O)n1CC(=O)Nc1c(C)cccc1C

>  <score_type>  (3468) 
oracle

>  <origin>  (3468) 
adg

>  <m_score__min__energy>  (3468) 
-15.82

>  <m_primary>  (3468) 
energy

$$$$
50:0
     RDKit          3D

 24 26  0  0  0  0  0  0  0  0999 V2000
   59.0440   27.1890   46.1780 O   0  0  0  0  0  0  0  0  0  0  0  0
   58.2040   27.4450   45.2730 C   0  0  0  0  0  0  0  0  0  0  0  0
   57.5330   26.2900   44.5770 C   0  0  0  0  0  0  0  0  0  0  0  0
   56.9380   25.3560   45.5840 C   0  0  0  0  0  0  0  0  0  0  0  0
   57.5400   24.2390   46.0270 N   0  0  0  0  0  0  0  0  0  0  0  0
   56.6380   23.7210   46.8880 C   0  0  0  0  0  0  0  0  0  0  0  0
   56.8390   22.6510   47.5200 O   0  0  0  0  0  0  0  0  0  0  0  0
   55.5030   24.4430   47.0240 N   0  0  0  0  0  0  0  0  0  0  0  0
   55.7110   25.4750   46.1910 C   0  0  0  0  0  0  0  0  0  0  0  0
   54.7990   26.5060   45.9950 O   0  0  0  0  0  0  0  0  0  0  0  0
   57.9400   28.8170   44.9110 N   0  0  0  0  0  0  0  0  0  0  0  0
   56.6880   29.2000   44.2490 C   0  0  0  0  0  0  0  0  0  0  0  0
   56.4180   30.6980   44.4240 C   0  0  0  0  0  0  0  0  0  0  0  0
   57.5470   31.5130   43.9170 N   0  0  0  0  0  0  0  0  0  0  0  0
   57.3740   32.9400   44.2740 C   0  0  0  0  0  0  0  0  0  0  0  0
   58.2450   33.3150   45.4460 C   0  0  0  0  0  0  0  0  0  0  0  0
   57.9530   32.8370   46.7350 C   0  0  0  0  0  0  0  0  0  0  0  0
   58.7410   33.2220   47.8240 C   0  0  0  0  0  0  0  0  0  0  0  0
   59.8280   34.0830   47.6350 C   0  0  0  0  0  0  0  0  0  0  0  0
   60.8160   34.5650   49.0020 Cl  0  0  0  0  0  0  0  0  0  0  0  0
   60.1230   34.5640   46.3540 C   0  0  0  0  0  0  0  0  0  0  0  0
   59.3340   34.1850   45.2640 C   0  0  0  0  0  0  0  0  0  0  0  0
   58.8910   31.0120   44.3200 C   0  0  0  0  0  0  0  0  0  0  0  0
   58.8540   29.8770   45.3550 C   0  0  0  0  0  0  0  0  0  0  0  0
  1  2  2  0
  2  3  1  0
  3  4  1  0
  4  5  1  0
  5  6  1  0
  6  7  2  0
  6  8  1  0
  8  9  1  0
  9 10  1  0
  2 11  1  0
 11 12  1  0
 12 13  1  0
 13 14  1  0
 14 15  1  0
 15 16  1  0
 16 17  2  0
 17 18  1  0
 18 19  2  0
 19 20  1  0
 19 21  1  0
 21 22  2  0
 14 23  1  0
 23 24  1  0
  9  4  2  0
 24 11  1  0
 22 16  1  0
M  CHG  3   5  -1   8  -1  10  -1
M  END
>  <UniqueID>  (3469) 
49

>  <SMILES>  (3469) 
O=C(Cc1[n-]c(=O)[n-]c1[O-])N1CCN(Cc2ccc(Cl)cc2)CC1

>  <Energy>  (3469) 
77.38018364039756

>  <Genealogy>  (3469) 
O=C(Cc1[n-]c(=O)[n-]c1[O-])N1CCN(Cc2ccc(Cl)cc2)CC1 (protonated)
O=C(Cc1[n-]c(=O)[n-]c1[O-])N1CCN(Cc2ccc(Cl)cc2)CC1 (3D coordinates assigned)
O=C(Cc1[n-]c(=O)[n-]c1[O-])N1CCN(Cc2ccc(Cl)cc2)CC1 (nonaromatic ring conformer: 77.38018364039756 kcal/mol)

>  <smiles>  (3469) 
O=C(Cc1[nH]c(=O)[nH]c1O)N1CCN(Cc2ccc(Cl)cc2)CC1

>  <score_type>  (3469) 
oracle

>  <origin>  (3469) 
adg

>  <m_score__min__energy>  (3469) 
-16.120000000000001

>  <m_primary>  (3469) 
energy

$$$$
54:0
     RDKit          3D

 33 36  0  0  0  0  0  0  0  0999 V2000
   52.9250   28.2450   53.9020 C   0  0  0  0  0  0  0  0  0  0  0  0
   53.9070   28.9930   53.3750 C   0  0  0  0  0  0  0  0  0  0  0  0
   53.8020   30.2980   52.8620 C   0  0  0  0  0  0  0  0  0  0  0  0
   52.7220   31.0610   52.6020 C   0  0  0  0  0  0  0  0  0  0  0  0
   52.1070   31.2470   51.2780 C   0  0  0  0  0  0  0  0  0  0  0  0
   52.0920   30.3010   50.3220 N   0  0  0  0  0  0  0  0  0  0  0  0
   51.3200   30.8480   49.3560 C   0  0  0  0  0  0  0  0  0  0  0  0
   51.0770   30.2590   48.2700 O   0  0  0  0  0  0  0  0  0  0  0  0
   50.8170   32.0690   49.6500 N   0  0  0  0  0  0  0  0  0  0  0  0
   51.3130   32.3010   50.8770 C   0  0  0  0  0  0  0  0  0  0  0  0
   51.0210   33.4360   51.6270 O   0  0  0  0  0  0  0  0  0  0  0  0
   55.0990   30.7320   52.6340 C   0  0  0  0  0  0  0  0  0  0  0  0
   55.9320   29.6800   52.9550 C   0  0  0  0  0  0  0  0  0  0  0  0
   57.4020   29.7230   52.8660 C   0  0  0  0  0  0  0  0  0  0  0  0
   58.0370   28.6450   53.0350 O   0  0  0  0  0  0  0  0  0  0  0  0
   58.1110   30.9460   52.5690 N   0  0  0  0  0  0  0  0  0  0  0  0
   57.4100   32.0270   51.8500 C   0  0  0  0  0  0  0  0  0  0  0  0
   58.0970   33.3770   52.0720 C   0  0  0  0  0  0  0  0  0  0  0  0
   59.5340   33.2370   51.8360 N   0  0  0  0  0  0  0  0  0  0  0  0
   60.1290   33.7080   50.6050 C   0  0  0  0  0  0  0  0  0  0  0  0
   59.3870   34.1120   49.6650 O   0  0  0  0  0  0  0  0  0  0  0  0
   61.6220   33.6890   50.3950 C   0  0  0  0  0  0  0  0  0  0  0  0
   62.0790   32.3490   49.9600 N   0  0  0  0  0  0  0  0  0  0  0  0
   63.5410   32.2920   49.7530 C   0  0  0  0  0  0  0  0  0  0  0  0
   63.9960   33.1160   48.5280 C   0  0  0  0  0  0  0  0  0  0  0  0
   62.8840   33.3840   47.5920 N   0  0  0  0  0  0  0  0  0  0  0  0
   63.4060   33.8250   46.2890 C   0  0  0  0  0  0  0  0  0  0  0  0
   62.0340   32.1930   47.4360 C   0  0  0  0  0  0  0  0  0  0  0  0
   61.3410   31.8510   48.7740 C   0  0  0  0  0  0  0  0  0  0  0  0
   60.2070   32.2730   52.7100 C   0  0  0  0  0  0  0  0  0  0  0  0
   59.5840   30.8910   52.5040 C   0  0  0  0  0  0  0  0  0  0  0  0
   55.2140   28.6200   53.3910 N   0  0  0  0  0  0  0  0  0  0  0  0
   55.7570   27.3350   53.8490 C   0  0  0  0  0  0  0  0  0  0  0  0
  1  2  2  0
  2  3  1  0
  3  4  2  3
  4  5  1  0
  5  6  1  0
  6  7  1  0
  7  8  2  0
  7  9  1  0
  9 10  1  0
 10 11  1  0
  3 12  1  0
 12 13  2  0
 13 14  1  0
 14 15  2  0
 14 16  1  0
 16 17  1  0
 17 18  1  0
 18 19  1  0
 19 20  1  0
 20 21  2  0
 20 22  1  0
 22 23  1  0
 23 24  1  0
 24 25  1  0
 25 26  1  0
 26 27  1  0
 26 28  1  0
 28 29  1  0
 19 30  1  0
 30 31  1  0
 13 32  1  0
 32 33  1  0
 32  2  1  0
 10  5  2  0
 31 16  1  0
 29 23  1  0
M  CHG  3   6  -1   9  -1  11  -1
M  END
>  <UniqueID>  (3470) 
53

>  <SMILES>  (3470) 
C=c1c(=Cc2[n-]c(=O)[n-]c2[O-])cc(C(=O)N2CCN(C(=O)CN3CCN(C)CC3)CC2)n1C

>  <Energy>  (3470) 
152.65347846959273

>  <Genealogy>  (3470) 
C=c1c(=Cc2[n-]c(=O)[n-]c2[O-])cc(C(=O)N2CCN(C(=O)CN3CCN(C)CC3)CC2)n1C (protonated)
C=c1c(=Cc2[n-]c(=O)[n-]c2[O-])cc(C(=O)N2CCN(C(=O)CN3CCN(C)CC3)CC2)n1C (3D coordinates assigned)
C=c1c(=Cc2[n-]c(=O)[n-]c2[O-])cc(C(=O)N2CCN(C(=O)CN3CCN(C)CC3)CC2)n1C (nonaromatic ring conformer: 152.65347846959273 kcal/mol)

>  <smiles>  (3470) 
C=c1c(=Cc2[nH]c(=O)[nH]c2O)cc(C(=O)N2CCN(C(=O)CN3CCN(C)CC3)CC2)n1C

>  <score_type>  (3470) 
oracle

>  <origin>  (3470) 
adg

>  <m_score__min__energy>  (3470) 
-18.030000000000001

>  <m_primary>  (3470) 
energy

$$$$
55:0
     RDKit          3D

 29 31  0  0  0  0  0  0  0  0999 V2000
   52.5210   30.9630   55.4990 C   0  0  0  0  0  0  0  0  0  0  0  0
   53.3770   30.5640   54.5440 C   0  0  0  0  0  0  0  0  0  0  0  0
   53.0570   30.2810   53.2100 C   0  0  0  0  0  0  0  0  0  0  0  0
   51.8300   30.3160   52.6450 C   0  0  0  0  0  0  0  0  0  0  0  0
   51.5260   30.7500   51.2620 C   0  0  0  0  0  0  0  0  0  0  0  0
   51.6050   29.9870   50.1570 N   0  0  0  0  0  0  0  0  0  0  0  0
   51.2790   30.8370   49.1600 C   0  0  0  0  0  0  0  0  0  0  0  0
   51.2350   30.4820   47.9540 O   0  0  0  0  0  0  0  0  0  0  0  0
   51.0050   32.0970   49.5590 N   0  0  0  0  0  0  0  0  0  0  0  0
   51.1700   32.0240   50.8900 C   0  0  0  0  0  0  0  0  0  0  0  0
   50.9970   33.1050   51.7470 O   0  0  0  0  0  0  0  0  0  0  0  0
   54.2570   29.9460   52.5930 C   0  0  0  0  0  0  0  0  0  0  0  0
   55.2450   30.0480   53.5510 C   0  0  0  0  0  0  0  0  0  0  0  0
   56.6770   29.8220   53.2670 C   0  0  0  0  0  0  0  0  0  0  0  0
   57.3780   29.2470   54.1460 O   0  0  0  0  0  0  0  0  0  0  0  0
   57.2320   30.0770   51.9510 N   0  0  0  0  0  0  0  0  0  0  0  0
   58.6690   29.6870   51.9200 C   0  0  0  0  0  0  0  0  0  0  0  0
   59.6020   30.8960   52.0730 C   0  0  0  0  0  0  0  0  0  0  0  0
   59.3910   31.8630   50.9730 N   0  0  0  0  0  0  0  0  0  0  0  0
   60.0450   33.1700   51.2010 C   0  0  0  0  0  0  0  0  0  0  0  0
   60.4130   33.4410   52.6730 C   0  0  0  0  0  0  0  0  0  0  0  0
   58.9790   33.9570   53.6060 S   0  0  0  0  0  0  0  0  0  0  0  0
   58.6000   32.7690   54.8780 C   0  0  0  0  0  0  0  0  0  0  0  0
   59.2660   35.2840   54.2490 O   0  0  0  0  0  0  0  0  0  0  0  0
   57.7990   34.1010   52.6880 O   0  0  0  0  0  0  0  0  0  0  0  0
   57.9970   31.9460   50.4760 C   0  0  0  0  0  0  0  0  0  0  0  0
   56.9850   31.4840   51.5350 C   0  0  0  0  0  0  0  0  0  0  0  0
   54.7100   30.3970   54.7460 N   0  0  0  0  0  0  0  0  0  0  0  0
   55.4280   30.5220   56.0180 C   0  0  0  0  0  0  0  0  0  0  0  0
  1  2  2  0
  2  3  1  0
  3  4  2  3
  4  5  1  0
  5  6  1  0
  6  7  1  0
  7  8  2  0
  7  9  1  0
  9 10  1  0
 10 11  1  0
  3 12  1  0
 12 13  2  0
 13 14  1  0
 14 15  2  0
 14 16  1  0
 16 17  1  0
 17 18  1  0
 18 19  1  0
 19 20  1  0
 20 21  1  0
 21 22  1  0
 22 23  1  0
 22 24  2  0
 22 25  2  0
 19 26  1  0
 26 27  1  0
 13 28  1  0
 28 29  1  0
 28  2  1  0
 10  5  2  0
 27 16  1  0
M  CHG  4   6  -1   9  -1  11  -1  16   1
M  END
>  <UniqueID>  (3471) 
54

>  <SMILES>  (3471) 
C=c1c(=Cc2[n-]c(=O)[n-]c2[O-])cc(C(=O)[NH+]2CCN(CCS(C)(=O)=O)CC2)n1C

>  <Energy>  (3471) 
129.29101037538038

>  <Genealogy>  (3471) 
C=c1c(=Cc2[n-]c(=O)[n-]c2[O-])cc(C(=O)[NH+]2CCN(CCS(C)(=O)=O)CC2)n1C (protonated)
C=c1c(=Cc2[n-]c(=O)[n-]c2[O-])cc(C(=O)[NH+]2CCN(CCS(C)(=O)=O)CC2)n1C (3D coordinates assigned)
C=c1c(=Cc2[n-]c(=O)[n-]c2[O-])cc(C(=O)[NH+]2CCN(CCS(C)(=O)=O)CC2)n1C (nonaromatic ring conformer: 129.29101037538038 kcal/mol)

>  <smiles>  (3471) 
C=c1c(=Cc2[nH]c(=O)[nH]c2O)cc(C(=O)N2CCN(CCS(C)(=O)=O)CC2)n1C

>  <score_type>  (3471) 
oracle

>  <origin>  (3471) 
adg

>  <m_score__min__energy>  (3471) 
-15.94

>  <m_primary>  (3471) 
energy

$$$$
56:0
     RDKit          3D

 26 28  0  0  0  0  0  0  0  0999 V2000
   58.4940   28.1990   45.7310 C   0  0  0  0  0  0  0  0  0  0  0  0
   57.3890   27.2730   46.0250 C   0  0  0  0  0  0  0  0  0  0  0  0
   56.0650   27.4570   45.6990 C   0  0  0  0  0  0  0  0  0  0  0  0
   55.5200   28.6090   45.1430 O   0  0  0  0  0  0  0  0  0  0  0  0
   55.3480   26.3540   45.9860 N   0  0  0  0  0  0  0  0  0  0  0  0
   56.2840   25.5070   46.4660 C   0  0  0  0  0  0  0  0  0  0  0  0
   56.0160   24.3350   46.8420 O   0  0  0  0  0  0  0  0  0  0  0  0
   57.5300   26.0200   46.4920 N   0  0  0  0  0  0  0  0  0  0  0  0
   58.4390   29.5440   45.8180 C   0  0  0  0  0  0  0  0  0  0  0  0
   58.8280   30.2280   46.9500 C   0  0  0  0  0  0  0  0  0  0  0  0
   58.5440   31.5570   46.7330 C   0  0  0  0  0  0  0  0  0  0  0  0
   58.7550   32.6010   47.7590 C   0  0  0  0  0  0  0  0  0  0  0  0
   58.1260   32.5260   48.8470 O   0  0  0  0  0  0  0  0  0  0  0  0
   59.7380   33.6360   47.6000 N   0  0  0  0  0  0  0  0  0  0  0  0
   61.0280   33.4800   47.5190 C   0  0  0  0  0  0  0  0  0  0  0  0
   61.7340   33.9540   46.4520 N   0  0  0  0  0  0  0  0  0  0  0  0
   63.0830   33.8140   46.3600 C   0  0  0  0  0  0  0  0  0  0  0  0
   63.7900   33.1770   47.3820 C   0  0  0  0  0  0  0  0  0  0  0  0
   63.0950   32.6920   48.4910 C   0  0  0  0  0  0  0  0  0  0  0  0
   61.7080   32.8450   48.5650 C   0  0  0  0  0  0  0  0  0  0  0  0
   58.0300   31.7510   45.4900 N   0  0  0  0  0  0  0  0  0  0  0  0
   57.7290   33.0810   44.9050 C   0  0  0  0  0  0  0  0  0  0  0  0
   56.7040   33.8600   45.7390 C   0  0  0  0  0  0  0  0  0  0  0  0
   59.0030   33.8830   44.6100 C   0  0  0  0  0  0  0  0  0  0  0  0
   57.9960   30.5140   44.9020 C   0  0  0  0  0  0  0  0  0  0  0  0
   57.7220   30.2940   43.6070 C   0  0  0  0  0  0  0  0  0  0  0  0
  1  2  1  0
  2  3  2  0
  3  4  1  0
  3  5  1  0
  5  6  1  0
  6  7  2  0
  6  8  1  0
  1  9  2  3
  9 10  1  0
 10 11  2  0
 11 12  1  0
 12 13  2  0
 12 14  1  0
 14 15  2  0
 15 16  1  0
 16 17  1  0
 17 18  2  0
 18 19  1  0
 19 20  2  0
 11 21  1  0
 21 22  1  0
 22 23  1  0
 22 24  1  0
 21 25  1  0
 25 26  2  0
  8  2  1  0
 25  9  1  0
 20 15  1  0
M  CHG  3   4  -1   5  -1  16  -1
M  END
>  <UniqueID>  (3472) 
55

>  <SMILES>  (3472) 
C=c1c(=Cc2[nH]c(=O)[n-]c2[O-])cc(C(=O)/N=c2/cccc[n-]2)n1C(C)C

>  <Energy>  (3472) 
125.53332560858833

>  <Genealogy>  (3472) 
C=c1c(=Cc2[nH]c(=O)[n-]c2[O-])cc(C(=O)N=c2cccc[n-]2)n1C(C)C (protonated)
C=c1c(=Cc2[nH]c(=O)[n-]c2[O-])cc(C(=O)/N=c2/cccc[n-]2)n1C(C)C (cis-trans isomerization)
C=c1c(=Cc2[nH]c(=O)[n-]c2[O-])cc(C(=O)/N=c2/cccc[n-]2)n1C(C)C (3D coordinates assigned)
C=c1c(=Cc2[nH]c(=O)[n-]c2[O-])cc(C(=O)/N=c2/cccc[n-]2)n1C(C)C (optimized conformer: 125.53332560858833 kcal/mol)

>  <smiles>  (3472) 
C=c1c(=Cc2[nH]c(=O)[nH]c2O)cc(C(=O)N=c2cccc[nH]2)n1C(C)C

>  <score_type>  (3472) 
oracle

>  <origin>  (3472) 
adg

>  <m_score__min__energy>  (3472) 
-15.199999999999999

>  <m_primary>  (3472) 
energy

$$$$
63:0
     RDKit          3D

 34 37  0  0  0  0  0  0  0  0999 V2000
   57.3390   32.5050   44.6610 C   0  0  0  0  0  0  0  0  0  0  0  0
   57.4220   31.1690   44.6570 C   0  0  0  0  0  0  0  0  0  0  0  0
   56.9440   30.4320   43.5680 C   0  0  0  0  0  0  0  0  0  0  0  0
   57.0270   29.0400   43.5670 C   0  0  0  0  0  0  0  0  0  0  0  0
   57.5740   28.3390   44.6600 C   0  0  0  0  0  0  0  0  0  0  0  0
   57.5420   26.9850   44.6120 C   0  0  0  0  0  0  0  0  0  0  0  0
   57.1690   26.0930   45.7220 C   0  0  0  0  0  0  0  0  0  0  0  0
   57.9860   25.1510   46.2250 N   0  0  0  0  0  0  0  0  0  0  0  0
   57.2060   24.5130   47.1270 C   0  0  0  0  0  0  0  0  0  0  0  0
   57.6270   23.5590   47.8310 O   0  0  0  0  0  0  0  0  0  0  0  0
   55.9380   24.9710   47.2050 N   0  0  0  0  0  0  0  0  0  0  0  0
   55.9270   25.9610   46.2980 C   0  0  0  0  0  0  0  0  0  0  0  0
   54.7960   26.7030   45.9800 O   0  0  0  0  0  0  0  0  0  0  0  0
   58.1280   29.0900   45.7390 C   0  0  0  0  0  0  0  0  0  0  0  0
   58.9690   28.4800   46.7420 N   0  0  0  0  0  0  0  0  0  0  0  0
   60.4220   28.6780   46.6750 C   0  0  0  0  0  0  0  0  0  0  0  0
   60.8890   29.6010   47.8180 C   0  0  0  0  0  0  0  0  0  0  0  0
   59.7380   30.1690   48.5430 N   0  0  0  0  0  0  0  0  0  0  0  0
   60.2800   31.2670   49.7870 S   0  0  0  0  0  0  0  0  0  0  0  0
   59.2170   32.3000   50.0350 O   0  0  0  0  0  0  0  0  0  0  0  0
   60.4770   30.5200   51.0770 O   0  0  0  0  0  0  0  0  0  0  0  0
   61.7670   32.1140   49.2410 C   0  0  0  0  0  0  0  0  0  0  0  0
   62.9330   32.0660   50.0620 C   0  0  0  0  0  0  0  0  0  0  0  0
   62.8920   31.4590   51.4520 C   0  0  0  0  0  0  0  0  0  0  0  0
   64.1660   32.5440   49.5560 C   0  0  0  0  0  0  0  0  0  0  0  0
   65.4490   32.4420   50.3470 C   0  0  0  0  0  0  0  0  0  0  0  0
   64.2150   33.1390   48.2950 C   0  0  0  0  0  0  0  0  0  0  0  0
   63.0690   33.2720   47.5070 C   0  0  0  0  0  0  0  0  0  0  0  0
   63.2120   33.9270   46.1540 C   0  0  0  0  0  0  0  0  0  0  0  0
   61.8200   32.8080   47.9940 C   0  0  0  0  0  0  0  0  0  0  0  0
   60.5720   33.0330   47.1660 C   0  0  0  0  0  0  0  0  0  0  0  0
   58.9170   29.0960   49.1360 C   0  0  0  0  0  0  0  0  0  0  0  0
   58.4190   28.1140   48.0530 C   0  0  0  0  0  0  0  0  0  0  0  0
   58.0110   30.4920   45.7340 C   0  0  0  0  0  0  0  0  0  0  0  0
  1  2  2  0
  2  3  1  0
  3  4  2  0
  4  5  1  0
  5  6  2  3
  6  7  1  0
  7  8  1  0
  8  9  1  0
  9 10  2  0
  9 11  1  0
 11 12  1  0
 12 13  1  0
  5 14  1  0
 14 15  1  0
 15 16  1  0
 16 17  1  0
 17 18  1  0
 18 19  1  0
 19 20  2  0
 19 21  2  0
 19 22  1  0
 22 23  2  0
 23 24  1  0
 23 25  1  0
 25 26  1  0
 25 27  2  0
 27 28  1  0
 28 29  1  0
 28 30  2  0
 30 31  1  0
 18 32  1  0
 32 33  1  0
 14 34  2  0
 34  2  1  0
 12  7  2  0
 33 15  1  0
 30 22  1  0
M  CHG  3   8  -1  11  -1  13  -1
M  END
>  <UniqueID>  (3473) 
62

>  <SMILES>  (3473) 
C=c1ccc(=Cc2[n-]c(=O)[n-]c2[O-])c(N2CCN(S(=O)(=O)c3c(C)c(C)cc(C)c3C)CC2)c1

>  <Energy>  (3473) 
127.68492802998647

>  <Genealogy>  (3473) 
C=c1ccc(=Cc2[n-]c(=O)[n-]c2[O-])c(N2CCN(S(=O)(=O)c3c(C)c(C)cc(C)c3C)CC2)c1 (protonated)
C=c1ccc(=Cc2[n-]c(=O)[n-]c2[O-])c(N2CCN(S(=O)(=O)c3c(C)c(C)cc(C)c3C)CC2)c1 (3D coordinates assigned)
C=c1ccc(=Cc2[n-]c(=O)[n-]c2[O-])c(N2CCN(S(=O)(=O)c3c(C)c(C)cc(C)c3C)CC2)c1 (nonaromatic ring conformer: 127.68492802998647 kcal/mol)

>  <smiles>  (3473) 
C=c1ccc(=Cc2[nH]c(=O)[nH]c2O)c(N2CCN(S(=O)(=O)c3c(C)c(C)cc(C)c3C)CC2)c1

>  <score_type>  (3473) 
oracle

>  <origin>  (3473) 
adg

>  <m_score__min__energy>  (3473) 
-18.300000000000001

>  <m_primary>  (3473) 
energy

$$$$
81:0
     RDKit          3D

 32 34  0  0  0  0  0  0  0  0999 V2000
   56.9840   29.2310   44.4690 C   0  0  0  0  0  0  0  0  0  0  0  0
   56.4740   30.4830   43.7660 C   0  0  0  0  0  0  0  0  0  0  0  0
   56.6480   31.6310   44.5940 O   0  0  0  0  0  0  0  0  0  0  0  0
   57.7590   32.4810   44.5140 C   0  0  0  0  0  0  0  0  0  0  0  0
   58.3000   32.7120   43.3980 O   0  0  0  0  0  0  0  0  0  0  0  0
   58.2800   33.1010   45.7060 N   0  0  0  0  0  0  0  0  0  0  0  0
   57.6700   32.8250   47.0160 C   0  0  0  0  0  0  0  0  0  0  0  0
   58.7540   32.7070   48.0940 C   0  0  0  0  0  0  0  0  0  0  0  0
   59.7470   33.7880   47.9920 N   0  0  0  0  0  0  0  0  0  0  0  0
   60.9120   33.7680   48.8380 C   0  0  0  0  0  0  0  0  0  0  0  0
   62.0420   34.0400   48.3490 O   0  0  0  0  0  0  0  0  0  0  0  0
   60.8350   33.3720   50.2580 C   0  0  0  0  0  0  0  0  0  0  0  0
   59.7630   33.5410   51.0470 C   0  0  0  0  0  0  0  0  0  0  0  0
   58.8740   32.4610   51.5350 C   0  0  0  0  0  0  0  0  0  0  0  0
   59.4490   31.2840   52.0350 C   0  0  0  0  0  0  0  0  0  0  0  0
   58.6400   30.2510   52.5090 C   0  0  0  0  0  0  0  0  0  0  0  0
   57.2510   30.3910   52.5120 C   0  0  0  0  0  0  0  0  0  0  0  0
   56.6540   31.5780   52.0640 C   0  0  0  0  0  0  0  0  0  0  0  0
   55.2170   31.6810   52.0590 N   0  0  0  0  0  0  0  0  0  0  0  0
   54.3140   30.5680   52.1840 C   0  0  0  0  0  0  0  0  0  0  0  0
   54.7240   29.3860   52.0290 O   0  0  0  0  0  0  0  0  0  0  0  0
   52.8570   30.8100   52.4440 C   0  0  0  0  0  0  0  0  0  0  0  0
   52.1230   30.9960   51.1520 C   0  0  0  0  0  0  0  0  0  0  0  0
   52.1210   29.9010   49.8700 S   0  0  0  0  0  0  0  0  0  0  0  0
   51.0450   30.8300   48.9710 C   0  0  0  0  0  0  0  0  0  0  0  0
   50.6250   30.5210   47.8260 O   0  0  0  0  0  0  0  0  0  0  0  0
   50.6670   31.9560   49.6130 N   0  0  0  0  0  0  0  0  0  0  0  0
   51.2630   32.0450   50.8310 C   0  0  0  0  0  0  0  0  0  0  0  0
   51.0190   33.1130   51.6880 O   0  0  0  0  0  0  0  0  0  0  0  0
   57.4740   32.6110   51.5690 C   0  0  0  0  0  0  0  0  0  0  0  0
   59.6290   34.7900   46.9260 C   0  0  0  0  0  0  0  0  0  0  0  0
   59.3570   34.0970   45.5880 C   0  0  0  0  0  0  0  0  0  0  0  0
  1  2  1  0
  2  3  1  0
  3  4  1  0
  4  5  2  0
  4  6  1  0
  6  7  1  0
  7  8  1  0
  8  9  1  0
  9 10  1  0
 10 11  2  0
 10 12  1  0
 12 13  2  3
 13 14  1  0
 14 15  2  0
 15 16  1  0
 16 17  2  0
 17 18  1  0
 18 19  1  0
 19 20  1  0
 20 21  2  0
 20 22  1  0
 22 23  1  0
 23 24  1  0
 24 25  1  0
 25 26  2  0
 25 27  1  0
 27 28  1  0
 28 29  1  0
 18 30  2  0
  9 31  1  0
 31 32  1  0
 32  6  1  0
 30 14  1  0
 28 23  2  0
M  CHG  2  27  -1  29  -1
M  END
>  <UniqueID>  (3474) 
79

>  <SMILES>  (3474) 
CCOC(=O)N1CCN(C(=O)C=Cc2cccc(NC(=O)Cc3sc(=O)[n-]c3[O-])c2)CC1

>  <Energy>  (3474) 
91.70002055035226

>  <Genealogy>  (3474) 
CCOC(=O)N1CCN(C(=O)C=Cc2cccc(NC(=O)Cc3sc(=O)[n-]c3[O-])c2)CC1 (protonated)
CCOC(=O)N1CCN(C(=O)C=Cc2cccc(NC(=O)Cc3sc(=O)[n-]c3[O-])c2)CC1 (3D coordinates assigned)
CCOC(=O)N1CCN(C(=O)C=Cc2cccc(NC(=O)Cc3sc(=O)[n-]c3[O-])c2)CC1 (nonaromatic ring conformer: 91.70002055035226 kcal/mol)

>  <smiles>  (3474) 
CCOC(=O)N1CCN(C(=O)C=Cc2cccc(NC(=O)Cc3sc(=O)[nH]c3O)c2)CC1

>  <score_type>  (3474) 
oracle

>  <origin>  (3474) 
adg

>  <m_score__min__energy>  (3474) 
-17.41

>  <m_primary>  (3474) 
energy

$$$$
84:0
     RDKit          3D

 31 34  0  0  0  0  0  0  0  0999 V2000
   53.9720   28.3550   53.8580 C   0  0  0  0  0  0  0  0  0  0  0  0
   54.4440   29.4360   53.2130 C   0  0  0  0  0  0  0  0  0  0  0  0
   53.6960   30.3230   52.4310 C   0  0  0  0  0  0  0  0  0  0  0  0
   52.3630   30.3250   52.2400 C   0  0  0  0  0  0  0  0  0  0  0  0
   51.7160   30.7800   50.9970 C   0  0  0  0  0  0  0  0  0  0  0  0
   51.6820   30.0440   49.8710 N   0  0  0  0  0  0  0  0  0  0  0  0
   51.0300   30.8410   48.9950 C   0  0  0  0  0  0  0  0  0  0  0  0
   50.7810   30.4880   47.8130 O   0  0  0  0  0  0  0  0  0  0  0  0
   50.6680   32.0470   49.4870 N   0  0  0  0  0  0  0  0  0  0  0  0
   51.1190   31.9980   50.7510 C   0  0  0  0  0  0  0  0  0  0  0  0
   51.0190   33.0580   51.6450 O   0  0  0  0  0  0  0  0  0  0  0  0
   54.5970   31.2550   51.9350 C   0  0  0  0  0  0  0  0  0  0  0  0
   55.8410   30.9080   52.4240 C   0  0  0  0  0  0  0  0  0  0  0  0
   57.1100   31.6470   52.0900 C   0  0  0  0  0  0  0  0  0  0  0  0
   58.1190   30.7340   51.4380 C   0  0  0  0  0  0  0  0  0  0  0  0
   57.7220   29.7180   50.8810 O   0  0  0  0  0  0  0  0  0  0  0  0
   59.5320   31.0800   51.4220 N   0  0  1  0  0  0  0  0  0  0  0  0
   60.2780   30.3570   50.3740 C   0  0  0  0  0  0  0  0  0  0  0  0
   60.0790   30.9420   49.0030 C   0  0  0  0  0  0  0  0  0  0  0  0
   60.3630   30.2240   48.0060 O   0  0  0  0  0  0  0  0  0  0  0  0
   59.6430   32.3110   48.8280 N   0  0  0  0  0  0  0  0  0  0  0  0
   59.4250   32.9020   47.4890 C   0  0  0  0  0  0  0  0  0  0  0  0
   59.8870   34.3690   47.4190 C   0  0  0  0  0  0  0  0  0  0  0  0
   59.6360   34.9500   46.0050 C   0  0  0  0  0  0  0  0  0  0  0  0
   58.7380   34.1760   45.2200 O   0  0  0  0  0  0  0  0  0  0  0  0
   57.5990   33.8160   45.9780 C   0  0  0  0  0  0  0  0  0  0  0  0
   57.9620   32.7460   47.0200 C   0  0  0  0  0  0  0  0  0  0  0  0
   59.2530   33.1230   49.9900 C   0  0  0  0  0  0  0  0  0  0  0  0
   59.7440   32.5370   51.3240 C   0  0  0  0  0  0  0  0  0  0  0  0
   55.7500   29.8110   53.2150 N   0  0  0  0  0  0  0  0  0  0  0  0
   56.8540   29.1250   53.8980 C   0  0  0  0  0  0  0  0  0  0  0  0
  1  2  2  0
  2  3  1  0
  3  4  2  0
  4  5  1  0
  5  6  1  0
  6  7  1  0
  7  8  2  0
  7  9  1  0
  9 10  1  0
 10 11  1  0
  3 12  1  0
 12 13  2  0
 13 14  1  0
 14 15  1  0
 15 16  2  0
 17 15  1  6
 17 18  1  0
 18 19  1  0
 19 20  2  0
 19 21  1  0
 21 22  1  0
 22 23  1  0
 23 24  1  0
 24 25  1  0
 25 26  1  0
 26 27  1  0
 21 28  1  0
 28 29  1  0
 13 30  1  0
 30 31  1  0
 30  2  1  0
 10  5  2  0
 29 17  1  0
 27 22  1  0
M  CHG  4   6  -1   9  -1  11  -1  17   1
M  END
>  <UniqueID>  (3475) 
82

>  <SMILES>  (3475) 
C=c1/c(=C/c2[n-]c(=O)[n-]c2[O-])cc(CC(=O)[N@@H+]2CCN(C3CCOCC3)C(=O)C2)n1C

>  <Energy>  (3475) 
134.79009796726845

>  <Genealogy>  (3475) 
C=c1c(=Cc2[n-]c(=O)[n-]c2[O-])cc(CC(=O)[NH+]2CCN(C3CCOCC3)C(=O)C2)n1C (protonated)
C=c1c(=Cc2[n-]c(=O)[n-]c2[O-])cc(CC(=O)[N@@H+]2CCN(C3CCOCC3)C(=O)C2)n1C (chirality)
C=c1/c(=C/c2[n-]c(=O)[n-]c2[O-])cc(CC(=O)[N@@H+]2CCN(C3CCOCC3)C(=O)C2)n1C (cis-trans isomerization)
C=c1/c(=C/c2[n-]c(=O)[n-]c2[O-])cc(CC(=O)[N@@H+]2CCN(C3CCOCC3)C(=O)C2)n1C (3D coordinates assigned)
C=c1/c(=C/c2[n-]c(=O)[n-]c2[O-])cc(CC(=O)[N@@H+]2CCN(C3CCOCC3)C(=O)C2)n1C (nonaromatic ring conformer: 134.79009796726845 kcal/mol)

>  <smiles>  (3475) 
C=c1c(=Cc2[nH]c(=O)[nH]c2O)cc(CC(=O)N2CCN(C3CCOCC3)C(=O)C2)n1C

>  <score_type>  (3475) 
oracle

>  <origin>  (3475) 
adg

>  <m_score__min__energy>  (3475) 
-17.34

>  <m_primary>  (3475) 
energy

$$$$
87:0
     RDKit          3D

 28 31  0  0  0  0  0  0  0  0999 V2000
   57.0620   33.5550   44.8920 C   0  0  0  0  0  0  0  0  0  0  0  0
   57.3100   32.2700   45.1640 C   0  0  0  0  0  0  0  0  0  0  0  0
   56.5400   31.2790   44.6580 N   0  0  0  0  0  0  0  0  0  0  0  0
   57.0910   30.1410   45.1220 C   0  0  0  0  0  0  0  0  0  0  0  0
   56.6010   28.9240   44.8340 C   0  0  0  0  0  0  0  0  0  0  0  0
   57.0240   27.6940   45.5220 C   0  0  0  0  0  0  0  0  0  0  0  0
   58.3140   27.3430   45.7080 N   0  0  0  0  0  0  0  0  0  0  0  0
   58.2280   26.1190   46.2780 C   0  0  0  0  0  0  0  0  0  0  0  0
   59.2410   25.4300   46.5690 O   0  0  0  0  0  0  0  0  0  0  0  0
   56.9590   25.6980   46.4790 N   0  0  0  0  0  0  0  0  0  0  0  0
   56.5030   24.3670   46.8750 C   0  0  0  0  0  0  0  0  0  0  0  0
   56.5340   23.4490   45.6830 C   0  0  0  0  0  0  0  0  0  0  0  0
   55.8480   23.7890   44.5050 C   0  0  0  0  0  0  0  0  0  0  0  0
   55.9550   22.9810   43.3690 C   0  0  0  0  0  0  0  0  0  0  0  0
   56.7510   21.8330   43.3980 C   0  0  0  0  0  0  0  0  0  0  0  0
   56.8600   21.0560   42.2920 F   0  0  0  0  0  0  0  0  0  0  0  0
   57.4410   21.4900   44.5640 C   0  0  0  0  0  0  0  0  0  0  0  0
   57.3380   22.2970   45.7020 C   0  0  0  0  0  0  0  0  0  0  0  0
   56.2020   26.7010   46.0060 C   0  0  0  0  0  0  0  0  0  0  0  0
   54.8120   26.7030   45.9960 O   0  0  0  0  0  0  0  0  0  0  0  0
   58.1730   30.4710   45.9200 C   0  0  0  0  0  0  0  0  0  0  0  0
   58.8970   29.6670   46.5660 O   0  0  0  0  0  0  0  0  0  0  0  0
   58.3240   31.8110   45.9490 N   0  0  0  0  0  0  0  0  0  0  0  0
   59.3780   32.5640   46.6630 C   0  0  0  0  0  0  0  0  0  0  0  0
   60.0160   33.6420   45.7710 C   0  0  0  0  0  0  0  0  0  0  0  0
   59.7100   34.9820   46.4240 C   0  0  0  0  0  0  0  0  0  0  0  0
   59.4280   34.6750   47.8830 C   0  0  0  0  0  0  0  0  0  0  0  0
   58.8150   33.2850   47.8940 C   0  0  0  0  0  0  0  0  0  0  0  0
  1  2  2  0
  2  3  1  0
  3  4  1  0
  4  5  2  0
  5  6  1  0
  6  7  1  0
  7  8  1  0
  8  9  2  0
  8 10  1  0
 10 11  1  0
 11 12  1  0
 12 13  2  0
 13 14  1  0
 14 15  2  0
 15 16  1  0
 15 17  1  0
 17 18  2  0
 10 19  1  0
 19 20  1  0
  4 21  1  0
 21 22  2  0
 21 23  1  0
 23 24  1  0
 24 25  1  0
 25 26  1  0
 26 27  1  0
 27 28  1  0
 23  2  1  0
 28 24  1  0
 19  6  2  0
 18 12  1  0
M  CHG  3   3  -1   7  -1  20  -1
M  END
>  <UniqueID>  (3476) 
85

>  <SMILES>  (3476) 
C=c1[n-]/c(=C/c2[n-]c(=O)n(Cc3ccc(F)cc3)c2[O-])c(=O)n1C1CCCC1

>  <Energy>  (3476) 
121.48875677399204

>  <Genealogy>  (3476) 
C=c1[n-]c(=Cc2[n-]c(=O)n(Cc3ccc(F)cc3)c2[O-])c(=O)n1C1CCCC1 (protonated)
C=c1[n-]/c(=C/c2[n-]c(=O)n(Cc3ccc(F)cc3)c2[O-])c(=O)n1C1CCCC1 (cis-trans isomerization)
C=c1[n-]/c(=C/c2[n-]c(=O)n(Cc3ccc(F)cc3)c2[O-])c(=O)n1C1CCCC1 (3D coordinates assigned)
C=c1[n-]/c(=C/c2[n-]c(=O)n(Cc3ccc(F)cc3)c2[O-])c(=O)n1C1CCCC1 (nonaromatic ring conformer: 121.48875677399204 kcal/mol)

>  <smiles>  (3476) 
C=c1[nH]c(=Cc2[nH]c(=O)n(Cc3ccc(F)cc3)c2O)c(=O)n1C1CCCC1

>  <score_type>  (3476) 
oracle

>  <origin>  (3476) 
adg

>  <m_score__min__energy>  (3476) 
-15.4

>  <m_primary>  (3476) 
energy

$$$$
0:0
     RDKit          3D

 24 26  0  0  0  0  0  0  0  0999 V2000
   57.6250   32.8280   51.3790 O   0  0  0  0  0  0  0  0  0  0  0  0
   58.1830   31.8140   50.8840 C   0  0  0  0  0  0  0  0  0  0  0  0
   57.9290   30.5330   51.4800 N   0  0  0  0  0  0  0  0  0  0  0  0
   56.8180   30.0890   51.9940 C   0  0  0  0  0  0  0  0  0  0  0  0
   56.7920   29.0030   52.7970 N   0  0  0  0  0  0  0  0  0  0  0  0
   55.5330   28.7160   53.2250 C   0  0  0  0  0  0  0  0  0  0  0  0
   54.5510   29.5890   52.7710 C   0  0  0  0  0  0  0  0  0  0  0  0
   53.0820   29.4660   53.0240 C   0  0  0  0  0  0  0  0  0  0  0  0
   52.3220   30.3290   52.0620 C   0  0  0  0  0  0  0  0  0  0  0  0
   52.1520   29.9360   50.7290 C   0  0  0  0  0  0  0  0  0  0  0  0
   51.4690   30.7930   49.8640 C   0  0  0  0  0  0  0  0  0  0  0  0
   51.2930   30.4700   48.6600 O   0  0  0  0  0  0  0  0  0  0  0  0
   50.9950   31.9810   50.3220 N   0  0  0  0  0  0  0  0  0  0  0  0
   51.1770   32.3530   51.6160 C   0  0  0  0  0  0  0  0  0  0  0  0
   50.7350   33.4590   52.0210 O   0  0  0  0  0  0  0  0  0  0  0  0
   51.8400   31.5330   52.4730 N   0  0  0  0  0  0  0  0  0  0  0  0
   55.2730   30.7410   51.7800 S   0  0  0  0  0  0  0  0  0  0  0  0
   59.1050   31.9610   49.7940 N   0  0  0  0  0  0  0  0  0  0  0  0
   58.9610   32.8240   48.6580 C   0  0  0  0  0  0  0  0  0  0  0  0
   59.7020   34.0140   48.6210 C   0  0  0  0  0  0  0  0  0  0  0  0
   59.6080   34.8740   47.5230 C   0  0  0  0  0  0  0  0  0  0  0  0
   58.7840   34.5430   46.4440 C   0  0  0  0  0  0  0  0  0  0  0  0
   58.0610   33.3470   46.4590 C   0  0  0  0  0  0  0  0  0  0  0  0
   58.1510   32.4860   47.5570 C   0  0  0  0  0  0  0  0  0  0  0  0
  1  2  2  0
  2  3  1  0
  3  4  2  3
  4  5  1  0
  5  6  1  0
  6  7  2  0
  7  8  1  0
  8  9  1  0
  9 10  2  0
 10 11  1  0
 11 12  2  0
 11 13  1  0
 13 14  1  0
 14 15  2  0
 14 16  1  0
  7 17  1  0
  2 18  1  0
 18 19  1  0
 19 20  2  0
 20 21  1  0
 21 22  2  0
 22 23  1  0
 23 24  2  0
 17  4  1  0
 24 19  1  0
 16  9  1  0
M  CHG  4   5  -1  13  -1  16  -1  18  -1
M  END
>  <UniqueID>  (3477) 
1

>  <SMILES>  (3477) 
O=C(N=c1[n-]cc(Cc2cc(=O)[n-]c(=O)[n-]2)s1)[N-]c1ccccc1

>  <Energy>  (3477) 
71.96953288041837

>  <Genealogy>  (3477) 
O=C(N=c1[n-]cc(Cc2cc(=O)[n-]c(=O)[n-]2)s1)[N-]c1ccccc1 (protonated)
O=C(N=c1[n-]cc(Cc2cc(=O)[n-]c(=O)[n-]2)s1)[N-]c1ccccc1 (3D coordinates assigned)
O=C(N=c1[n-]cc(Cc2cc(=O)[n-]c(=O)[n-]2)s1)[N-]c1ccccc1 (optimized conformer: 71.96953288041837 kcal/mol)

>  <smiles>  (3477) 
O=C(N=c1[nH]cc(Cc2cc(=O)[nH]c(=O)[nH]2)s1)Nc1ccccc1

>  <score_type>  (3477) 
oracle

>  <origin>  (3477) 
adg

>  <m_score__min__energy>  (3477) 
-14.49

>  <m_primary>  (3477) 
energy

$$$$
8:0
     RDKit          3D

 31 34  0  0  0  0  0  0  0  0999 V2000
   54.1950   28.2590   52.8660 C   0  0  0  0  0  0  0  0  0  0  0  0
   54.9400   29.3340   52.5610 C   0  0  0  0  0  0  0  0  0  0  0  0
   54.5210   30.4890   51.8780 C   0  0  0  0  0  0  0  0  0  0  0  0
   53.3850   30.7640   51.2070 C   0  0  0  0  0  0  0  0  0  0  0  0
   52.1840   31.4020   51.7690 C   0  0  0  0  0  0  0  0  0  0  0  0
   51.8370   31.3060   53.0650 N   0  0  0  0  0  0  0  0  0  0  0  0
   50.7590   32.1130   53.1600 C   0  0  0  0  0  0  0  0  0  0  0  0
   50.1280   32.2760   54.2370 O   0  0  0  0  0  0  0  0  0  0  0  0
   50.4150   32.7390   52.0160 N   0  0  0  0  0  0  0  0  0  0  0  0
   51.3360   32.2960   51.1450 C   0  0  0  0  0  0  0  0  0  0  0  0
   51.4070   32.7270   49.8230 O   0  0  0  0  0  0  0  0  0  0  0  0
   55.5580   31.4010   51.9920 C   0  0  0  0  0  0  0  0  0  0  0  0
   56.5740   30.7710   52.6810 C   0  0  0  0  0  0  0  0  0  0  0  0
   57.9040   31.4040   52.9860 C   0  0  0  0  0  0  0  0  0  0  0  0
   58.3280   32.3100   51.8600 C   0  0  0  0  0  0  0  0  0  0  0  0
   58.3110   33.5560   52.0580 O   0  0  0  0  0  0  0  0  0  0  0  0
   58.7780   31.7970   50.5860 N   0  0  0  0  0  0  0  0  0  0  0  0
   58.9160   32.7190   49.4450 C   0  0  0  0  0  0  0  0  0  0  0  0
   58.5800   32.0110   48.1250 C   0  0  0  0  0  0  0  0  0  0  0  0
   59.2000   30.6810   48.0450 N   0  0  0  0  0  0  0  0  0  0  0  0
   58.9350   29.8420   46.9060 C   0  0  0  0  0  0  0  0  0  0  0  0
   59.3390   28.4960   46.9050 C   0  0  0  0  0  0  0  0  0  0  0  0
   59.0940   27.6880   45.7900 C   0  0  0  0  0  0  0  0  0  0  0  0
   58.4570   28.2180   44.6620 C   0  0  0  0  0  0  0  0  0  0  0  0
   58.1570   27.2030   43.2610 Cl  0  0  0  0  0  0  0  0  0  0  0  0
   58.0560   29.5570   44.6530 C   0  0  0  0  0  0  0  0  0  0  0  0
   58.2950   30.3670   45.7700 C   0  0  0  0  0  0  0  0  0  0  0  0
   60.0210   30.1890   49.1570 C   0  0  0  0  0  0  0  0  0  0  0  0
   59.2820   30.4160   50.4770 C   0  0  0  0  0  0  0  0  0  0  0  0
   56.2150   29.5040   52.9990 N   0  0  0  0  0  0  0  0  0  0  0  0
   57.0130   28.5440   53.7720 C   0  0  0  0  0  0  0  0  0  0  0  0
  1  2  2  0
  2  3  1  0
  3  4  2  3
  4  5  1  0
  5  6  1  0
  6  7  1  0
  7  8  2  0
  7  9  1  0
  9 10  1  0
 10 11  1  0
  3 12  1  0
 12 13  2  0
 13 14  1  0
 14 15  1  0
 15 16  2  0
 15 17  1  0
 17 18  1  0
 18 19  1  0
 19 20  1  0
 20 21  1  0
 21 22  2  0
 22 23  1  0
 23 24  2  0
 24 25  1  0
 24 26  1  0
 26 27  2  0
 20 28  1  0
 28 29  1  0
 13 30  1  0
 30 31  1  0
 30  2  1  0
 10  5  2  0
 29 17  1  0
 27 21  1  0
M  CHG  2   6  -1   9  -1
M  END
>  <UniqueID>  (3478) 
9

>  <SMILES>  (3478) 
C=c1c(=Cc2[n-]c(=O)[n-]c2O)cc(CC(=O)N2CCN(c3ccc(Cl)cc3)CC2)n1C

>  <Energy>  (3478) 
129.58595660788177

>  <Genealogy>  (3478) 
C=c1c(=Cc2[n-]c(=O)[n-]c2O)cc(CC(=O)N2CCN(c3ccc(Cl)cc3)CC2)n1C (protonated)
C=c1c(=Cc2[n-]c(=O)[n-]c2O)cc(CC(=O)N2CCN(c3ccc(Cl)cc3)CC2)n1C (3D coordinates assigned)
C=c1c(=Cc2[n-]c(=O)[n-]c2O)cc(CC(=O)N2CCN(c3ccc(Cl)cc3)CC2)n1C (nonaromatic ring conformer: 129.58595660788177 kcal/mol)

>  <smiles>  (3478) 
C=c1c(=Cc2[nH]c(=O)[nH]c2O)cc(CC(=O)N2CCN(c3ccc(Cl)cc3)CC2)n1C

>  <score_type>  (3478) 
oracle

>  <origin>  (3478) 
adg

>  <m_score__min__energy>  (3478) 
-14.19

>  <m_primary>  (3478) 
energy

$$$$
9:0
     RDKit          3D

 32 35  0  0  0  0  0  0  0  0999 V2000
   54.7100   30.7150   51.2760 C   0  0  0  0  0  0  0  0  0  0  0  0
   54.6100   30.4250   52.5840 C   0  0  0  0  0  0  0  0  0  0  0  0
   53.4750   30.5690   53.4010 C   0  0  0  0  0  0  0  0  0  0  0  0
   52.1940   30.8490   53.0940 C   0  0  0  0  0  0  0  0  0  0  0  0
   51.6560   31.0460   51.7390 C   0  0  0  0  0  0  0  0  0  0  0  0
   51.8940   30.2050   50.7160 N   0  0  0  0  0  0  0  0  0  0  0  0
   51.3350   30.8370   49.6600 C   0  0  0  0  0  0  0  0  0  0  0  0
   51.3430   30.3500   48.4980 O   0  0  0  0  0  0  0  0  0  0  0  0
   50.7860   32.0410   49.9400 N   0  0  0  0  0  0  0  0  0  0  0  0
   51.0100   32.1640   51.2590 C   0  0  0  0  0  0  0  0  0  0  0  0
   50.6600   33.2850   51.9990 O   0  0  0  0  0  0  0  0  0  0  0  0
   53.9080   30.3710   54.7020 C   0  0  0  0  0  0  0  0  0  0  0  0
   55.2470   30.0500   54.6360 C   0  0  0  0  0  0  0  0  0  0  0  0
   56.1050   29.7170   55.8190 C   0  0  0  0  0  0  0  0  0  0  0  0
   55.6760   30.0900   53.3540 N   0  0  0  0  0  0  0  0  0  0  0  0
   57.0270   29.8530   52.9230 C   0  0  0  0  0  0  0  0  0  0  0  0
   57.4250   28.6710   52.7450 O   0  0  0  0  0  0  0  0  0  0  0  0
   57.9090   30.9550   52.6550 N   0  0  0  0  0  0  0  0  0  0  0  0
   57.3890   32.1440   51.9610 C   0  0  0  0  0  0  0  0  0  0  0  0
   58.4470   33.2460   51.8840 C   0  0  0  0  0  0  0  0  0  0  0  0
   59.7180   32.6740   51.4220 N   0  0  0  0  0  0  0  0  0  0  0  0
   60.3370   33.1690   50.2220 C   0  0  0  0  0  0  0  0  0  0  0  0
   59.6180   33.4960   49.2380 O   0  0  0  0  0  0  0  0  0  0  0  0
   61.8060   33.3000   50.1180 C   0  0  0  0  0  0  0  0  0  0  0  0
   62.5830   33.5020   51.2730 C   0  0  0  0  0  0  0  0  0  0  0  0
   63.9750   33.5920   51.1790 C   0  0  0  0  0  0  0  0  0  0  0  0
   64.6020   33.4680   49.9350 C   0  0  0  0  0  0  0  0  0  0  0  0
   63.8390   33.2550   48.7830 C   0  0  0  0  0  0  0  0  0  0  0  0
   64.4510   33.1200   47.5790 F   0  0  0  0  0  0  0  0  0  0  0  0
   62.4450   33.1730   48.8710 C   0  0  0  0  0  0  0  0  0  0  0  0
   60.2500   31.4590   52.0620 C   0  0  0  0  0  0  0  0  0  0  0  0
   59.2990   30.9170   53.1350 C   0  0  0  0  0  0  0  0  0  0  0  0
  1  2  2  0
  2  3  1  0
  3  4  2  3
  4  5  1  0
  5  6  1  0
  6  7  1  0
  7  8  2  0
  7  9  1  0
  9 10  1  0
 10 11  1  0
  3 12  1  0
 12 13  2  0
 13 14  1  0
 13 15  1  0
 15 16  1  0
 16 17  2  0
 16 18  1  0
 18 19  1  0
 19 20  1  0
 20 21  1  0
 21 22  1  0
 22 23  2  0
 22 24  1  0
 24 25  2  0
 25 26  1  0
 26 27  2  0
 27 28  1  0
 28 29  1  0
 28 30  2  0
 21 31  1  0
 31 32  1  0
 15  2  1  0
 32 18  1  0
 10  5  2  0
 30 24  1  0
M  CHG  3   6  -1   9  -1  11  -1
M  END
>  <UniqueID>  (3479) 
10

>  <SMILES>  (3479) 
C=c1c(=Cc2[n-]c(=O)[n-]c2[O-])cc(C)n1C(=O)N1CCN(C(=O)c2cccc(F)c2)CC1

>  <Energy>  (3479) 
136.60470321905325

>  <Genealogy>  (3479) 
C=c1c(=Cc2[n-]c(=O)[n-]c2[O-])cc(C)n1C(=O)N1CCN(C(=O)c2cccc(F)c2)CC1 (protonated)
C=c1c(=Cc2[n-]c(=O)[n-]c2[O-])cc(C)n1C(=O)N1CCN(C(=O)c2cccc(F)c2)CC1 (3D coordinates assigned)
C=c1c(=Cc2[n-]c(=O)[n-]c2[O-])cc(C)n1C(=O)N1CCN(C(=O)c2cccc(F)c2)CC1 (nonaromatic ring conformer: 136.60470321905325 kcal/mol)

>  <smiles>  (3479) 
C=c1c(=Cc2[nH]c(=O)[nH]c2O)cc(C)n1C(=O)N1CCN(C(=O)c2cccc(F)c2)CC1

>  <score_type>  (3479) 
oracle

>  <origin>  (3479) 
adg

>  <m_score__min__energy>  (3479) 
-16.989999999999998

>  <m_primary>  (3479) 
energy

$$$$
31:0
     RDKit          3D

 30 33  0  0  0  0  0  0  0  0999 V2000
   59.3280   25.8750   46.4300 O   0  0  0  0  0  0  0  0  0  0  0  0
   58.9900   26.9690   46.9570 C   0  0  0  0  0  0  0  0  0  0  0  0
   59.5800   27.3400   48.2130 N   0  0  0  0  0  0  0  0  0  0  0  0
   59.6110   28.5420   48.7100 C   0  0  0  0  0  0  0  0  0  0  0  0
   58.5170   29.2310   49.1050 N   0  0  0  0  0  0  0  0  0  0  0  0
   58.8440   30.4670   49.5630 C   0  0  0  0  0  0  0  0  0  0  0  0
   60.2050   30.7520   49.5450 C   0  0  0  0  0  0  0  0  0  0  0  0
   60.8220   32.0760   49.8620 C   0  0  0  0  0  0  0  0  0  0  0  0
   61.5490   32.6010   48.6550 C   0  0  0  0  0  0  0  0  0  0  0  0
   60.8580   33.3220   47.6670 C   0  0  0  0  0  0  0  0  0  0  0  0
   61.5450   33.8570   46.5730 C   0  0  0  0  0  0  0  0  0  0  0  0
   62.9280   33.6860   46.4650 C   0  0  0  0  0  0  0  0  0  0  0  0
   63.6260   32.9830   47.4500 C   0  0  0  0  0  0  0  0  0  0  0  0
   62.9420   32.4440   48.5440 C   0  0  0  0  0  0  0  0  0  0  0  0
   61.0280   29.4210   48.9190 S   0  0  0  0  0  0  0  0  0  0  0  0
   58.0400   27.8560   46.2360 C   0  0  0  0  0  0  0  0  0  0  0  0
   56.7690   27.3940   45.8690 C   0  0  0  0  0  0  0  0  0  0  0  0
   56.3750   26.0920   46.1530 O   0  0  0  0  0  0  0  0  0  0  0  0
   55.9020   28.2270   45.2460 N   0  0  0  0  0  0  0  0  0  0  0  0
   56.2280   29.5130   44.9640 C   0  0  0  0  0  0  0  0  0  0  0  0
   55.3820   30.2470   44.3850 O   0  0  0  0  0  0  0  0  0  0  0  0
   57.4660   29.9980   45.2930 N   0  0  0  0  0  0  0  0  0  0  0  0
   57.8000   31.3730   45.0150 C   0  0  0  0  0  0  0  0  0  0  0  0
   58.0970   31.7750   43.7030 C   0  0  0  0  0  0  0  0  0  0  0  0
   58.4020   33.1130   43.4280 C   0  0  0  0  0  0  0  0  0  0  0  0
   58.4120   34.0540   44.4620 C   0  0  0  0  0  0  0  0  0  0  0  0
   58.1180   33.6600   45.7710 C   0  0  0  0  0  0  0  0  0  0  0  0
   57.8110   32.3250   46.0480 C   0  0  0  0  0  0  0  0  0  0  0  0
   58.3800   29.1820   45.9070 C   0  0  0  0  0  0  0  0  0  0  0  0
   59.5340   29.6200   46.1820 O   0  0  0  0  0  0  0  0  0  0  0  0
  1  2  2  0
  2  3  1  0
  3  4  2  3
  4  5  1  0
  5  6  1  0
  6  7  2  0
  7  8  1  0
  8  9  1  0
  9 10  2  0
 10 11  1  0
 11 12  2  0
 12 13  1  0
 13 14  2  0
  7 15  1  0
  2 16  1  0
 16 17  2  0
 17 18  1  0
 17 19  1  0
 19 20  1  0
 20 21  2  0
 20 22  1  0
 22 23  1  0
 23 24  2  0
 24 25  1  0
 25 26  2  0
 26 27  1  0
 27 28  2  0
 22 29  1  0
 29 30  2  0
 15  4  1  0
 29 16  1  0
 14  9  1  0
 28 23  1  0
M  CHG  3   5  -1  18  -1  19  -1
M  END
>  <UniqueID>  (3480) 
30

>  <SMILES>  (3480) 
O=C(N=c1[n-]cc(Cc2ccccc2)s1)c1c([O-])[n-]c(=O)n(-c2ccccc2)c1=O

>  <Energy>  (3480) 
96.23721531741342

>  <Genealogy>  (3480) 
O=C(N=c1[n-]cc(Cc2ccccc2)s1)c1c([O-])[n-]c(=O)n(-c2ccccc2)c1=O (protonated)
O=C(N=c1[n-]cc(Cc2ccccc2)s1)c1c([O-])[n-]c(=O)n(-c2ccccc2)c1=O (3D coordinates assigned)
O=C(N=c1[n-]cc(Cc2ccccc2)s1)c1c([O-])[n-]c(=O)n(-c2ccccc2)c1=O (optimized conformer: 96.23721531741342 kcal/mol)

>  <smiles>  (3480) 
O=C(N=c1[nH]cc(Cc2ccccc2)s1)c1c(O)[nH]c(=O)n(-c2ccccc2)c1=O

>  <score_type>  (3480) 
oracle

>  <origin>  (3480) 
adg

>  <m_score__min__energy>  (3480) 
-14.949999999999999

>  <m_primary>  (3480) 
energy

$$$$
41:0
     RDKit          3D

 24 26  0  0  0  0  0  0  0  0999 V2000
   60.6510   29.9530   45.9400 C   0  0  0  0  0  0  0  0  0  0  0  0
   59.4880   29.3950   45.6020 C   0  0  0  0  0  0  0  0  0  0  0  0
   59.3630   28.0700   45.3540 N   0  0  0  0  0  0  0  0  0  0  0  0
   58.0680   27.9020   45.0060 C   0  0  0  0  0  0  0  0  0  0  0  0
   57.5670   26.6930   44.6990 C   0  0  0  0  0  0  0  0  0  0  0  0
   57.0320   25.7030   45.6560 C   0  0  0  0  0  0  0  0  0  0  0  0
   57.7230   24.6790   46.1890 N   0  0  0  0  0  0  0  0  0  0  0  0
   56.8540   24.1390   47.0700 C   0  0  0  0  0  0  0  0  0  0  0  0
   57.1360   23.1320   47.7700 O   0  0  0  0  0  0  0  0  0  0  0  0
   55.6620   24.7670   47.1490 N   0  0  0  0  0  0  0  0  0  0  0  0
   55.7980   25.7610   46.2560 C   0  0  0  0  0  0  0  0  0  0  0  0
   54.8110   26.7050   45.9960 O   0  0  0  0  0  0  0  0  0  0  0  0
   57.4360   29.1360   45.0660 C   0  0  0  0  0  0  0  0  0  0  0  0
   56.2150   29.3750   44.8640 O   0  0  0  0  0  0  0  0  0  0  0  0
   58.3230   30.0700   45.4480 N   0  0  0  0  0  0  0  0  0  0  0  0
   58.0760   31.4780   45.5960 C   0  0  0  0  0  0  0  0  0  0  0  0
   58.1520   32.0450   46.8770 C   0  0  0  0  0  0  0  0  0  0  0  0
   57.8360   33.3890   47.0780 C   0  0  0  0  0  0  0  0  0  0  0  0
   57.4370   34.1810   46.0010 C   0  0  0  0  0  0  0  0  0  0  0  0
   57.3690   33.6350   44.7180 C   0  0  0  0  0  0  0  0  0  0  0  0
   57.7060   32.2890   44.4920 C   0  0  0  0  0  0  0  0  0  0  0  0
   57.6800   31.7780   43.1020 C   0  0  0  0  0  0  0  0  0  0  0  0
   56.6610   30.7800   42.6420 C   0  0  0  0  0  0  0  0  0  0  0  0
   58.5550   32.1700   42.2820 O   0  0  0  0  0  0  0  0  0  0  0  0
  1  2  2  0
  2  3  1  0
  3  4  1  0
  4  5  2  3
  5  6  1  0
  6  7  1  0
  7  8  1  0
  8  9  2  0
  8 10  1  0
 10 11  1  0
 11 12  1  0
  4 13  1  0
 13 14  2  0
 13 15  1  0
 15 16  1  0
 16 17  2  0
 17 18  1  0
 18 19  2  0
 19 20  1  0
 20 21  2  0
 21 22  1  0
 22 23  1  0
 22 24  2  0
 15  2  1  0
 21 16  1  0
 11  6  2  0
M  CHG  4   3  -1   7  -1  10  -1  12  -1
M  END
>  <UniqueID>  (3481) 
39

>  <SMILES>  (3481) 
C=c1[n-]c(=Cc2[n-]c(=O)[n-]c2[O-])c(=O)n1-c1ccccc1C(C)=O

>  <Energy>  (3481) 
114.49677662369562

>  <Genealogy>  (3481) 
C=c1[n-]c(=Cc2[n-]c(=O)[n-]c2[O-])c(=O)n1-c1ccccc1C(C)=O (protonated)
C=c1[n-]c(=Cc2[n-]c(=O)[n-]c2[O-])c(=O)n1-c1ccccc1C(C)=O (3D coordinates assigned)
C=c1[n-]c(=Cc2[n-]c(=O)[n-]c2[O-])c(=O)n1-c1ccccc1C(C)=O (optimized conformer: 114.49677662369562 kcal/mol)

>  <smiles>  (3481) 
C=c1[nH]c(=Cc2[nH]c(=O)[nH]c2O)c(=O)n1-c1ccccc1C(C)=O

>  <score_type>  (3481) 
oracle

>  <origin>  (3481) 
adg

>  <m_score__min__energy>  (3481) 
-16.710000000000001

>  <m_primary>  (3481) 
energy

$$$$
50:0
     RDKit          3D

 38 42  0  0  0  0  0  0  0  0999 V2000
   53.1110   28.4830   54.1310 C   0  0  0  0  0  0  0  0  0  0  0  0
   54.0990   28.9920   53.3800 C   0  0  0  0  0  0  0  0  0  0  0  0
   53.9800   29.9660   52.3740 C   0  0  0  0  0  0  0  0  0  0  0  0
   52.8970   30.4690   51.7510 C   0  0  0  0  0  0  0  0  0  0  0  0
   51.9830   31.4860   52.2990 C   0  0  0  0  0  0  0  0  0  0  0  0
   51.5390   31.5060   53.5720 N   0  0  0  0  0  0  0  0  0  0  0  0
   50.6090   32.4840   53.5650 C   0  0  0  0  0  0  0  0  0  0  0  0
   49.9690   32.8180   54.5970 O   0  0  0  0  0  0  0  0  0  0  0  0
   50.4090   33.0670   52.3640 N   0  0  0  0  0  0  0  0  0  0  0  0
   51.2750   32.4170   51.5690 C   0  0  0  0  0  0  0  0  0  0  0  0
   51.4030   32.6710   50.2050 O   0  0  0  0  0  0  0  0  0  0  0  0
   55.2710   30.3450   52.0450 C   0  0  0  0  0  0  0  0  0  0  0  0
   56.1210   29.5440   52.7810 C   0  0  0  0  0  0  0  0  0  0  0  0
   57.5860   29.5530   52.6310 C   0  0  0  0  0  0  0  0  0  0  0  0
   58.2090   28.4630   52.7470 O   0  0  0  0  0  0  0  0  0  0  0  0
   58.3150   30.7770   52.3970 N   0  0  0  0  0  0  0  0  0  0  0  0
   59.6810   30.6940   51.8600 C   0  0  0  0  0  0  0  0  0  0  0  0
   60.2800   32.0870   51.6610 C   0  0  0  0  0  0  0  0  0  0  0  0
   59.2570   32.9520   51.0540 N   0  0  0  0  0  0  0  0  0  0  0  0
   59.8020   34.1580   50.3900 C   0  0  0  0  0  0  0  0  0  0  0  0
   60.9770   33.8720   49.4230 C   0  0  0  0  0  0  0  0  0  0  0  0
   60.5720   33.8390   48.0010 N   0  0  0  0  0  0  0  0  0  0  0  0
   59.4580   34.7240   47.6090 C   0  0  0  0  0  0  0  0  0  0  0  0
   58.1320   33.9670   47.4210 C   0  0  0  0  0  0  0  0  0  0  0  0
   58.2730   32.7620   46.5780 N   0  0  0  0  0  0  0  0  0  0  0  0
   58.5160   33.0590   45.1480 C   0  0  0  0  0  0  0  0  0  0  0  0
   57.8040   32.0660   44.2670 C   0  0  0  0  0  0  0  0  0  0  0  0
   57.7910   32.2300   42.8720 C   0  0  0  0  0  0  0  0  0  0  0  0
   57.1240   31.3060   42.0620 C   0  0  0  0  0  0  0  0  0  0  0  0
   56.4680   30.2130   42.6370 C   0  0  0  0  0  0  0  0  0  0  0  0
   56.4740   30.0450   44.0230 C   0  0  0  0  0  0  0  0  0  0  0  0
   57.1340   30.9700   44.8370 C   0  0  0  0  0  0  0  0  0  0  0  0
   59.2850   31.8530   47.1430 C   0  0  0  0  0  0  0  0  0  0  0  0
   60.6530   32.5330   47.3150 C   0  0  0  0  0  0  0  0  0  0  0  0
   58.1140   33.2240   51.9530 C   0  0  0  0  0  0  0  0  0  0  0  0
   57.8220   32.0610   52.9250 C   0  0  0  0  0  0  0  0  0  0  0  0
   55.4150   28.7230   53.5960 N   0  0  0  0  0  0  0  0  0  0  0  0
   55.9640   27.8070   54.6030 C   0  0  0  0  0  0  0  0  0  0  0  0
  1  2  2  0
  2  3  1  0
  3  4  2  3
  4  5  1  0
  5  6  1  0
  6  7  1  0
  7  8  2  0
  7  9  1  0
  9 10  1  0
 10 11  1  0
  3 12  1  0
 12 13  2  0
 13 14  1  0
 14 15  2  0
 14 16  1  0
 16 17  1  0
 17 18  1  0
 18 19  1  0
 19 20  1  0
 20 21  1  0
 21 22  1  0
 22 23  1  0
 23 24  1  0
 24 25  1  0
 25 26  1  0
 26 27  1  0
 27 28  2  0
 28 29  1  0
 29 30  2  0
 30 31  1  0
 31 32  2  0
 25 33  1  0
 33 34  1  0
 19 35  1  0
 35 36  1  0
 13 37  1  0
 37 38  1  0
 37  2  1  0
 10  5  2  0
 36 16  1  0
 34 22  1  0
 32 27  1  0
M  CHG  2   6  -1   9  -1
M  END
>  <UniqueID>  (3482) 
47

>  <SMILES>  (3482) 
C=c1c(=Cc2[n-]c(=O)[n-]c2O)cc(C(=O)N2CCN(CCN3CCN(Cc4ccccc4)CC3)CC2)n1C

>  <Energy>  (3482) 
173.08189597611025

>  <Genealogy>  (3482) 
C=c1c(=Cc2[n-]c(=O)[n-]c2O)cc(C(=O)N2CCN(CCN3CCN(Cc4ccccc4)CC3)CC2)n1C (protonated)
C=c1c(=Cc2[n-]c(=O)[n-]c2O)cc(C(=O)N2CCN(CCN3CCN(Cc4ccccc4)CC3)CC2)n1C (3D coordinates assigned)
C=c1c(=Cc2[n-]c(=O)[n-]c2O)cc(C(=O)N2CCN(CCN3CCN(Cc4ccccc4)CC3)CC2)n1C (nonaromatic ring conformer: 173.08189597611025 kcal/mol)

>  <smiles>  (3482) 
C=c1c(=Cc2[nH]c(=O)[nH]c2O)cc(C(=O)N2CCN(CCN3CCN(Cc4ccccc4)CC3)CC2)n1C

>  <score_type>  (3482) 
oracle

>  <origin>  (3482) 
adg

>  <m_score__min__energy>  (3482) 
-15.91

>  <m_primary>  (3482) 
energy

$$$$
57:0
     RDKit          3D

 28 30  0  0  0  0  0  0  0  0999 V2000
   55.1630   29.3550   44.8690 O   0  0  0  0  0  0  0  0  0  0  0  0
   56.4090   29.5410   44.8480 C   0  0  0  0  0  0  0  0  0  0  0  0
   57.3330   28.3490   44.8440 C   0  0  0  0  0  0  0  0  0  0  0  0
   57.3960   27.6770   46.2170 C   0  0  0  0  0  0  0  0  0  0  0  0
   57.0820   26.2580   46.0910 N   0  0  0  0  0  0  0  0  0  0  0  0
   55.8160   25.7000   45.7150 C   0  0  0  0  0  0  0  0  0  0  0  0
   54.7720   26.3430   46.0020 O   0  0  0  0  0  0  0  0  0  0  0  0
   55.6750   24.3860   45.0510 C   0  0  0  0  0  0  0  0  0  0  0  0
   55.1230   23.2210   45.5600 C   0  0  0  0  0  0  0  0  0  0  0  0
   55.2340   22.2120   44.6720 N   0  0  0  0  0  0  0  0  0  0  0  0
   55.8640   22.7430   43.6090 C   0  0  0  0  0  0  0  0  0  0  0  0
   56.1710   22.0120   42.4660 O   0  0  0  0  0  0  0  0  0  0  0  0
   56.1650   24.0740   43.8000 C   0  0  0  0  0  0  0  0  0  0  0  0
   56.9050   30.8830   44.7760 N   0  0  0  0  0  0  0  0  0  0  0  0
   57.7320   31.5380   45.7470 C   0  0  0  0  0  0  0  0  0  0  0  0
   57.6180   32.9230   45.9130 C   0  0  0  0  0  0  0  0  0  0  0  0
   58.3890   33.5870   46.8720 C   0  0  0  0  0  0  0  0  0  0  0  0
   59.2740   32.8660   47.6860 C   0  0  0  0  0  0  0  0  0  0  0  0
   60.2280   33.6930   48.9140 S   0  0  0  0  0  0  0  0  0  0  0  0
   60.3580   32.8190   50.1310 O   0  0  0  0  0  0  0  0  0  0  0  0
   59.5270   34.9630   49.3090 O   0  0  0  0  0  0  0  0  0  0  0  0
   61.8010   34.0750   48.2610 N   0  0  0  0  0  0  0  0  0  0  0  0
   61.8590   33.8090   46.8240 C   0  0  0  0  0  0  0  0  0  0  0  0
   63.3140   33.5150   46.4970 C   0  0  0  0  0  0  0  0  0  0  0  0
   63.9530   33.1270   47.8220 C   0  0  0  0  0  0  0  0  0  0  0  0
   62.8410   33.2370   48.8540 C   0  0  0  0  0  0  0  0  0  0  0  0
   59.3630   31.4760   47.5490 C   0  0  0  0  0  0  0  0  0  0  0  0
   58.5930   30.8120   46.5890 C   0  0  0  0  0  0  0  0  0  0  0  0
  1  2  2  0
  2  3  1  0
  3  4  1  0
  4  5  1  0
  5  6  1  0
  6  7  2  0
  6  8  1  0
  8  9  2  0
  9 10  1  0
 10 11  1  0
 11 12  1  0
 11 13  2  0
  2 14  1  0
 14 15  1  0
 15 16  2  0
 16 17  1  0
 17 18  2  0
 18 19  1  0
 19 20  2  0
 19 21  2  0
 19 22  1  0
 22 23  1  0
 23 24  1  0
 24 25  1  0
 25 26  1  0
 18 27  1  0
 27 28  2  0
 13  8  1  0
 28 15  1  0
 26 22  1  0
M  CHG  3   5  -1  10  -1  14  -1
M  END
>  <UniqueID>  (3483) 
54

>  <SMILES>  (3483) 
O=C(CC[N-]C(=O)c1c[n-]c(O)c1)[N-]c1ccc(S(=O)(=O)N2CCCC2)cc1

>  <Energy>  (3483) 
77.81052245728235

>  <Genealogy>  (3483) 
O=C(CC[N-]C(=O)c1c[n-]c(O)c1)[N-]c1ccc(S(=O)(=O)N2CCCC2)cc1 (protonated)
O=C(CC[N-]C(=O)c1c[n-]c(O)c1)[N-]c1ccc(S(=O)(=O)N2CCCC2)cc1 (3D coordinates assigned)
O=C(CC[N-]C(=O)c1c[n-]c(O)c1)[N-]c1ccc(S(=O)(=O)N2CCCC2)cc1 (nonaromatic ring conformer: 77.81052245728235 kcal/mol)

>  <smiles>  (3483) 
O=C(CCNC(=O)c1c[nH]c(O)c1)Nc1ccc(S(=O)(=O)N2CCCC2)cc1

>  <score_type>  (3483) 
oracle

>  <origin>  (3483) 
adg

>  <m_score__min__energy>  (3483) 
-14.56

>  <m_primary>  (3483) 
energy

$$$$
61:0
     RDKit          3D

 30 33  0  0  0  0  0  0  0  0999 V2000
   57.3970   24.1480   48.1330 C   0  0  0  0  0  0  0  0  0  0  0  0
   57.6770   25.2370   47.4130 C   0  0  0  0  0  0  0  0  0  0  0  0
   58.3320   26.2540   47.9280 O   0  0  0  0  0  0  0  0  0  0  0  0
   58.5230   27.1570   46.9960 C   0  0  0  0  0  0  0  0  0  0  0  0
   59.2320   28.4260   47.2320 C   0  0  0  0  0  0  0  0  0  0  0  0
   59.8150   28.5980   48.3400 O   0  0  0  0  0  0  0  0  0  0  0  0
   59.2500   29.4750   46.2440 N   0  0  0  0  0  0  0  0  0  0  0  0
   60.4290   30.3420   46.1150 C   0  0  0  0  0  0  0  0  0  0  0  0
   60.0550   31.7800   46.4990 C   0  0  0  0  0  0  0  0  0  0  0  0
   58.7510   32.1750   45.9330 N   0  0  0  0  0  0  0  0  0  0  0  0
   58.1030   33.3960   46.3690 C   0  0  0  0  0  0  0  0  0  0  0  0
   56.8900   33.5960   46.0830 O   0  0  0  0  0  0  0  0  0  0  0  0
   58.8390   34.4020   47.2350 C   0  0  0  0  0  0  0  0  0  0  0  0
   59.4790   33.8440   48.5100 C   0  0  0  0  0  0  0  0  0  0  0  0
   60.8600   34.1750   47.9580 C   0  0  0  0  0  0  0  0  0  0  0  0
   60.2260   34.7380   46.6890 C   0  0  0  0  0  0  0  0  0  0  0  0
   58.0930   31.2710   44.9730 C   0  0  0  0  0  0  0  0  0  0  0  0
   57.9970   29.8620   45.5730 C   0  0  0  0  0  0  0  0  0  0  0  0
   57.9880   26.7250   45.7990 C   0  0  0  0  0  0  0  0  0  0  0  0
   57.4090   25.4940   46.0600 C   0  0  0  0  0  0  0  0  0  0  0  0
   56.7550   24.7750   45.1300 C   0  0  0  0  0  0  0  0  0  0  0  0
   55.3160   24.4490   45.1570 C   0  0  0  0  0  0  0  0  0  0  0  0
   54.3700   25.3850   45.6100 C   0  0  0  0  0  0  0  0  0  0  0  0
   54.7720   26.6280   46.0890 O   0  0  0  0  0  0  0  0  0  0  0  0
   53.0460   25.0800   45.5750 N   0  0  0  0  0  0  0  0  0  0  0  0
   52.6140   23.8840   45.0950 C   0  0  0  0  0  0  0  0  0  0  0  0
   51.3830   23.6220   45.0740 O   0  0  0  0  0  0  0  0  0  0  0  0
   53.5090   22.9730   44.6280 N   0  0  0  0  0  0  0  0  0  0  0  0
   54.8430   23.2310   44.6420 C   0  0  0  0  0  0  0  0  0  0  0  0
   55.6450   22.3670   44.1940 O   0  0  0  0  0  0  0  0  0  0  0  0
  1  2  2  0
  2  3  1  0
  3  4  1  0
  4  5  1  0
  5  6  2  0
  5  7  1  0
  7  8  1  0
  8  9  1  0
  9 10  1  0
 10 11  1  0
 11 12  2  0
 11 13  1  0
 13 14  1  0
 14 15  1  0
 15 16  1  0
 10 17  1  0
 17 18  1  0
  4 19  2  0
 19 20  1  0
 20 21  2  0
 21 22  1  0
 22 23  2  0
 23 24  1  0
 23 25  1  0
 25 26  1  0
 26 27  2  0
 26 28  1  0
 28 29  1  0
 29 30  2  0
 20  2  1  0
 29 22  1  0
 18  7  1  0
 16 13  1  0
M  CHG  3  24  -1  25  -1  28  -1
M  END
>  <UniqueID>  (3484) 
58

>  <SMILES>  (3484) 
C=c1oc(C(=O)N2CCN(C(=O)C3CCC3)CC2)c/c1=C/c1c([O-])[n-]c(=O)[n-]c1=O

>  <Energy>  (3484) 
158.8378332072237

>  <Genealogy>  (3484) 
C=c1oc(C(=O)N2CCN(C(=O)C3CCC3)CC2)cc1=Cc1c([O-])[n-]c(=O)[n-]c1=O (protonated)
C=c1oc(C(=O)N2CCN(C(=O)C3CCC3)CC2)c/c1=C/c1c([O-])[n-]c(=O)[n-]c1=O (cis-trans isomerization)
C=c1oc(C(=O)N2CCN(C(=O)C3CCC3)CC2)c/c1=C/c1c([O-])[n-]c(=O)[n-]c1=O (3D coordinates assigned)
C=c1oc(C(=O)N2CCN(C(=O)C3CCC3)CC2)c/c1=C/c1c([O-])[n-]c(=O)[n-]c1=O (nonaromatic ring conformer: 158.8378332072237 kcal/mol)

>  <smiles>  (3484) 
C=c1oc(C(=O)N2CCN(C(=O)C3CCC3)CC2)cc1=Cc1c(O)[nH]c(=O)[nH]c1=O

>  <score_type>  (3484) 
oracle

>  <origin>  (3484) 
adg

>  <m_score__min__energy>  (3484) 
-15.65

>  <m_primary>  (3484) 
energy

$$$$
62:0
     RDKit          3D

 27 28  0  0  0  0  0  0  0  0999 V2000
   57.3650   30.8150   42.8950 O   0  0  0  0  0  0  0  0  0  0  0  0
   56.5980   30.7280   43.8920 C   0  0  0  0  0  0  0  0  0  0  0  0
   55.5210   29.6900   43.9090 C   0  0  0  0  0  0  0  0  0  0  0  0
   55.6280   28.8710   45.1110 N   0  0  0  0  0  0  0  0  0  0  0  0
   56.8340   28.2130   45.5140 C   0  0  0  0  0  0  0  0  0  0  0  0
   57.8930   28.8730   45.7010 O   0  0  0  0  0  0  0  0  0  0  0  0
   56.8300   26.7330   45.7330 C   0  0  0  0  0  0  0  0  0  0  0  0
   55.4610   26.2320   45.8710 N   0  0  0  0  0  0  0  0  0  0  0  0
   55.4560   24.5620   46.3600 S   0  0  0  0  0  0  0  0  0  0  0  0
   55.8990   24.4660   47.7920 O   0  0  0  0  0  0  0  0  0  0  0  0
   54.0630   24.0080   46.2500 O   0  0  0  0  0  0  0  0  0  0  0  0
   56.5660   23.6330   45.3560 C   0  0  0  0  0  0  0  0  0  0  0  0
   56.1160   23.0930   44.1440 C   0  0  0  0  0  0  0  0  0  0  0  0
   56.9770   22.3310   43.3490 C   0  0  0  0  0  0  0  0  0  0  0  0
   58.2950   22.1070   43.7610 C   0  0  0  0  0  0  0  0  0  0  0  0
   58.7520   22.6410   44.9740 C   0  0  0  0  0  0  0  0  0  0  0  0
   60.0620   22.4230   45.3980 O   0  0  0  0  0  0  0  0  0  0  0  0
   57.8850   23.3990   45.7710 C   0  0  0  0  0  0  0  0  0  0  0  0
   56.7520   31.6100   45.0070 N   0  0  0  0  0  0  0  0  0  0  0  0
   57.0580   33.0300   44.8800 C   0  0  0  0  0  0  0  0  0  0  0  0
   58.0610   33.4470   45.9210 C   0  0  0  0  0  0  0  0  0  0  0  0
   58.1410   32.7510   47.1380 C   0  0  0  0  0  0  0  0  0  0  0  0
   59.0720   33.1320   48.1090 C   0  0  0  0  0  0  0  0  0  0  0  0
   59.9400   34.2020   47.8650 C   0  0  0  0  0  0  0  0  0  0  0  0
   60.8520   34.5600   48.8030 F   0  0  0  0  0  0  0  0  0  0  0  0
   59.8740   34.8920   46.6520 C   0  0  0  0  0  0  0  0  0  0  0  0
   58.9390   34.5180   45.6810 C   0  0  0  0  0  0  0  0  0  0  0  0
  1  2  2  0
  2  3  1  0
  3  4  1  0
  4  5  1  0
  5  6  2  0
  5  7  1  0
  7  8  1  0
  8  9  1  0
  9 10  2  0
  9 11  2  0
  9 12  1  0
 12 13  2  0
 13 14  1  0
 14 15  2  0
 15 16  1  0
 16 17  1  0
 16 18  2  0
  2 19  1  0
 19 20  1  0
 20 21  1  0
 21 22  2  0
 22 23  1  0
 23 24  2  0
 24 25  1  0
 24 26  1  0
 26 27  2  0
 18 12  1  0
 27 21  1  0
M  CHG  3   4  -1   8  -1  19  -1
M  END
>  <UniqueID>  (3485) 
59

>  <SMILES>  (3485) 
O=C(C[N-]C(=O)C[N-]S(=O)(=O)c1cccc(O)c1)[N-]Cc1ccc(F)cc1

>  <Energy>  (3485) 
30.998779286954743

>  <Genealogy>  (3485) 
O=C(C[N-]C(=O)C[N-]S(=O)(=O)c1cccc(O)c1)[N-]Cc1ccc(F)cc1 (protonated)
O=C(C[N-]C(=O)C[N-]S(=O)(=O)c1cccc(O)c1)[N-]Cc1ccc(F)cc1 (3D coordinates assigned)
O=C(C[N-]C(=O)C[N-]S(=O)(=O)c1cccc(O)c1)[N-]Cc1ccc(F)cc1 (optimized conformer: 30.998779286954743 kcal/mol)

>  <smiles>  (3485) 
O=C(CNC(=O)CNS(=O)(=O)c1cccc(O)c1)NCc1ccc(F)cc1

>  <score_type>  (3485) 
oracle

>  <origin>  (3485) 
adg

>  <m_score__min__energy>  (3485) 
-14.06

>  <m_primary>  (3485) 
energy

$$$$
70:0
     RDKit          3D

 25 27  0  0  0  0  0  0  0  0999 V2000
   53.5860   28.7260   54.1140 C   0  0  0  0  0  0  0  0  0  0  0  0
   54.4510   29.3820   53.3330 C   0  0  0  0  0  0  0  0  0  0  0  0
   54.2010   30.5200   52.5640 C   0  0  0  0  0  0  0  0  0  0  0  0
   53.0490   31.2120   52.4820 C   0  0  0  0  0  0  0  0  0  0  0  0
   52.1950   31.2520   51.2810 C   0  0  0  0  0  0  0  0  0  0  0  0
   52.2680   30.3410   50.2950 N   0  0  0  0  0  0  0  0  0  0  0  0
   51.3890   30.8010   49.3780 C   0  0  0  0  0  0  0  0  0  0  0  0
   51.1640   30.2000   48.2950 O   0  0  0  0  0  0  0  0  0  0  0  0
   50.7800   31.9590   49.7070 N   0  0  0  0  0  0  0  0  0  0  0  0
   51.3090   32.2400   50.9080 C   0  0  0  0  0  0  0  0  0  0  0  0
   51.0230   33.3960   51.6220 O   0  0  0  0  0  0  0  0  0  0  0  0
   55.4050   30.8360   51.9470 C   0  0  0  0  0  0  0  0  0  0  0  0
   56.3170   29.8740   52.3450 C   0  0  0  0  0  0  0  0  0  0  0  0
   57.7440   29.8510   51.9630 C   0  0  0  0  0  0  0  0  0  0  0  0
   58.4810   28.9360   52.4230 O   0  0  0  0  0  0  0  0  0  0  0  0
   58.3330   30.8600   51.0540 C   0  0  0  0  0  0  0  0  0  0  0  0
   58.5870   32.1580   51.5190 C   0  0  0  0  0  0  0  0  0  0  0  0
   59.1260   33.1260   50.6670 C   0  0  0  0  0  0  0  0  0  0  0  0
   59.4150   32.8230   49.3200 C   0  0  0  0  0  0  0  0  0  0  0  0
   59.9770   33.8270   48.4350 N   0  0  0  0  0  0  0  0  0  0  0  0
   59.1120   34.5850   47.5220 C   0  0  0  0  0  0  0  0  0  0  0  0
   61.4190   34.1020   48.4350 C   0  0  0  0  0  0  0  0  0  0  0  0
   59.1380   31.5210   48.8570 C   0  0  0  0  0  0  0  0  0  0  0  0
   58.5990   30.5550   49.7100 C   0  0  0  0  0  0  0  0  0  0  0  0
   55.7360   29.0000   53.1910 N   0  0  0  0  0  0  0  0  0  0  0  0
  1  2  2  0
  2  3  1  0
  3  4  2  0
  4  5  1  0
  5  6  1  0
  6  7  1  0
  7  8  2  0
  7  9  1  0
  9 10  1  0
 10 11  1  0
  3 12  1  0
 12 13  2  0
 13 14  1  0
 14 15  2  0
 14 16  1  0
 16 17  2  0
 17 18  1  0
 18 19  2  0
 19 20  1  0
 20 21  1  0
 20 22  1  0
 19 23  1  0
 23 24  2  0
 13 25  1  0
 25  2  1  0
 10  5  2  0
 24 16  1  0
M  CHG  3   6  -1   9  -1  11  -1
M  END
>  <UniqueID>  (3486) 
67

>  <SMILES>  (3486) 
C=c1[nH]c(C(=O)c2ccc(N(C)C)cc2)c/c1=C\c1[n-]c(=O)[n-]c1[O-]

>  <Energy>  (3486) 
111.08997171392872

>  <Genealogy>  (3486) 
C=c1[nH]c(C(=O)c2ccc(N(C)C)cc2)cc1=Cc1[n-]c(=O)[n-]c1[O-] (protonated)
C=c1[nH]c(C(=O)c2ccc(N(C)C)cc2)c/c1=C\c1[n-]c(=O)[n-]c1[O-] (cis-trans isomerization)
C=c1[nH]c(C(=O)c2ccc(N(C)C)cc2)c/c1=C\c1[n-]c(=O)[n-]c1[O-] (3D coordinates assigned)
C=c1[nH]c(C(=O)c2ccc(N(C)C)cc2)c/c1=C\c1[n-]c(=O)[n-]c1[O-] (optimized conformer: 111.08997171392872 kcal/mol)

>  <smiles>  (3486) 
C=c1[nH]c(C(=O)c2ccc(N(C)C)cc2)cc1=Cc1[nH]c(=O)[nH]c1O

>  <score_type>  (3486) 
oracle

>  <origin>  (3486) 
adg

>  <m_score__min__energy>  (3486) 
-16.59

>  <m_primary>  (3486) 
energy

$$$$
74:0
     RDKit          3D

 32 35  0  0  0  0  0  0  0  0999 V2000
   55.3440   29.3260   44.6650 N   0  0  0  0  0  0  0  0  0  0  0  0
   56.6830   29.7630   43.6650 S   0  0  0  0  0  0  0  0  0  0  0  0
   57.7190   28.6750   43.7130 O   0  0  0  0  0  0  0  0  0  0  0  0
   56.2190   29.9240   42.2440 O   0  0  0  0  0  0  0  0  0  0  0  0
   57.3780   31.2740   44.2400 C   0  0  0  0  0  0  0  0  0  0  0  0
   57.9390   32.1840   43.3330 C   0  0  0  0  0  0  0  0  0  0  0  0
   58.5040   33.3770   43.7930 C   0  0  0  0  0  0  0  0  0  0  0  0
   58.5150   33.6740   45.1640 C   0  0  0  0  0  0  0  0  0  0  0  0
   59.1510   34.9500   45.6540 C   0  0  0  0  0  0  0  0  0  0  0  0
   60.3340   34.6610   46.4950 N   0  0  0  0  0  0  0  0  0  0  0  0
   61.0670   33.4580   46.0150 C   0  0  0  0  0  0  0  0  0  0  0  0
   61.7650   32.6910   47.1420 C   0  0  0  0  0  0  0  0  0  0  0  0
   60.7700   32.3200   48.1500 N   0  0  0  0  0  0  0  0  0  0  0  0
   60.8320   31.0360   48.7860 C   0  0  0  0  0  0  0  0  0  0  0  0
   60.5510   29.9210   48.0920 C   0  0  0  0  0  0  0  0  0  0  0  0
   60.1150   30.0190   46.3860 Cl  0  0  0  0  0  0  0  0  0  0  0  0
   60.6110   28.5940   48.7360 C   0  0  0  0  0  0  0  0  0  0  0  0
   60.3380   27.5700   48.0540 O   0  0  0  0  0  0  0  0  0  0  0  0
   60.9880   28.4710   50.1710 C   0  0  0  0  0  0  0  0  0  0  0  0
   61.0580   27.2160   50.8160 C   0  0  0  0  0  0  0  0  0  0  0  0
   60.7750   26.0370   50.1330 O   0  0  0  0  0  0  0  0  0  0  0  0
   61.4150   27.1360   52.1630 C   0  0  0  0  0  0  0  0  0  0  0  0
   61.7070   28.2920   52.8830 C   0  0  0  0  0  0  0  0  0  0  0  0
   61.6440   29.5420   52.2670 C   0  0  0  0  0  0  0  0  0  0  0  0
   61.9430   30.6720   53.0210 O   0  0  0  0  0  0  0  0  0  0  0  0
   61.2840   29.6460   50.9040 C   0  0  0  0  0  0  0  0  0  0  0  0
   61.2060   30.9620   50.2140 C   0  0  0  0  0  0  0  0  0  0  0  0
   61.4530   32.0310   50.8360 O   0  0  0  0  0  0  0  0  0  0  0  0
   59.6670   33.2300   48.4560 C   0  0  0  0  0  0  0  0  0  0  0  0
   59.9810   34.6400   47.9390 C   0  0  0  0  0  0  0  0  0  0  0  0
   57.9640   32.7550   46.0720 C   0  0  0  0  0  0  0  0  0  0  0  0
   57.3990   31.5620   45.6110 C   0  0  0  0  0  0  0  0  0  0  0  0
  1  2  1  0
  2  3  2  0
  2  4  2  0
  2  5  1  0
  5  6  2  0
  6  7  1  0
  7  8  2  0
  8  9  1  0
  9 10  1  0
 10 11  1  0
 11 12  1  0
 12 13  1  0
 13 14  1  0
 14 15  2  0
 15 16  1  0
 15 17  1  0
 17 18  2  0
 17 19  1  0
 19 20  2  0
 20 21  1  0
 20 22  1  0
 22 23  2  0
 23 24  1  0
 24 25  1  0
 24 26  2  0
 26 27  1  0
 27 28  2  0
 13 29  1  0
 29 30  1  0
  8 31  1  0
 31 32  2  0
 32  5  1  0
 30 10  1  0
 27 14  1  0
 26 19  1  0
M  CHG  3   1  -1  21  -1  25  -1
M  END
>  <UniqueID>  (3487) 
70

>  <SMILES>  (3487) 
[NH-]S(=O)(=O)c1ccc(CN2CCN(C3=C(Cl)C(=O)c4c([O-])ccc([O-])c4C3=O)CC2)cc1

>  <Energy>  (3487) 
71.05742171678796

>  <Genealogy>  (3487) 
[NH-]S(=O)(=O)c1ccc(CN2CCN(C3=C(Cl)C(=O)c4c([O-])ccc([O-])c4C3=O)CC2)cc1 (protonated)
[NH-]S(=O)(=O)c1ccc(CN2CCN(C3=C(Cl)C(=O)c4c([O-])ccc([O-])c4C3=O)CC2)cc1 (3D coordinates assigned)
[NH-]S(=O)(=O)c1ccc(CN2CCN(C3=C(Cl)C(=O)c4c([O-])ccc([O-])c4C3=O)CC2)cc1 (nonaromatic ring conformer: 71.05742171678796 kcal/mol)

>  <smiles>  (3487) 
NS(=O)(=O)c1ccc(CN2CCN(C3=C(Cl)C(=O)c4c(O)ccc(O)c4C3=O)CC2)cc1

>  <score_type>  (3487) 
oracle

>  <origin>  (3487) 
adg

>  <m_score__min__energy>  (3487) 
-14.68

>  <m_primary>  (3487) 
energy

$$$$
75:0
     RDKit          3D

 30 33  0  0  0  0  0  0  0  0999 V2000
   58.1530   29.6990   44.4100 C   0  0  0  0  0  0  0  0  0  0  0  0
   58.3170   29.6110   45.7390 C   0  0  0  0  0  0  0  0  0  0  0  0
   58.4540   28.4410   46.5020 C   0  0  0  0  0  0  0  0  0  0  0  0
   58.2550   27.1500   46.1800 C   0  0  0  0  0  0  0  0  0  0  0  0
   56.9630   26.4450   46.2380 C   0  0  0  0  0  0  0  0  0  0  0  0
   56.8090   25.1580   46.6000 N   0  0  0  0  0  0  0  0  0  0  0  0
   55.5000   24.9230   46.3640 C   0  0  0  0  0  0  0  0  0  0  0  0
   54.9580   23.8110   46.5970 O   0  0  0  0  0  0  0  0  0  0  0  0
   54.8210   25.9690   45.8460 N   0  0  0  0  0  0  0  0  0  0  0  0
   55.7660   26.9180   45.7580 C   0  0  0  0  0  0  0  0  0  0  0  0
   55.5410   28.1900   45.2470 O   0  0  0  0  0  0  0  0  0  0  0  0
   58.8240   28.8490   47.7730 C   0  0  0  0  0  0  0  0  0  0  0  0
   58.8360   30.2280   47.7640 C   0  0  0  0  0  0  0  0  0  0  0  0
   59.1420   31.0820   48.9570 C   0  0  0  0  0  0  0  0  0  0  0  0
   58.4950   30.6920   46.5410 N   0  0  0  0  0  0  0  0  0  0  0  0
   58.4480   32.0760   46.1520 C   0  0  0  0  0  0  0  0  0  0  0  0
   57.2790   32.5870   45.6750 N   0  0  0  0  0  0  0  0  0  0  0  0
   57.1770   33.8670   45.2330 C   0  0  0  0  0  0  0  0  0  0  0  0
   58.2950   34.7000   45.2420 C   0  0  0  0  0  0  0  0  0  0  0  0
   59.5090   34.2090   45.7240 C   0  0  0  0  0  0  0  0  0  0  0  0
   59.6010   32.8940   46.2040 C   0  0  0  0  0  0  0  0  0  0  0  0
   60.8900   32.4050   46.7430 C   0  0  0  0  0  0  0  0  0  0  0  0
   61.2180   31.2000   46.5550 O   0  0  0  0  0  0  0  0  0  0  0  0
   61.7790   33.2780   47.4610 N   0  0  0  0  0  0  0  0  0  0  0  0
   63.2280   33.1850   47.2670 C   0  0  0  0  0  0  0  0  0  0  0  0
   63.8410   32.4420   48.4540 C   0  0  0  0  0  0  0  0  0  0  0  0
   63.3640   32.9940   49.7230 N   0  0  0  0  0  0  0  0  0  0  0  0
   62.0760   33.6140   49.8490 C   0  0  0  0  0  0  0  0  0  0  0  0
   61.6150   33.8740   50.9930 O   0  0  0  0  0  0  0  0  0  0  0  0
   61.3080   34.0300   48.6280 C   0  0  0  0  0  0  0  0  0  0  0  0
  1  2  2  0
  2  3  1  0
  3  4  2  3
  4  5  1  0
  5  6  1  0
  6  7  1  0
  7  8  2  0
  7  9  1  0
  9 10  1  0
 10 11  1  0
  3 12  1  0
 12 13  2  0
 13 14  1  0
 13 15  1  0
 15 16  1  0
 16 17  2  0
 17 18  1  0
 18 19  2  0
 19 20  1  0
 20 21  2  0
 21 22  1  0
 22 23  2  0
 22 24  1  0
 24 25  1  0
 25 26  1  0
 26 27  1  0
 27 28  1  0
 28 29  2  0
 28 30  1  0
 15  2  1  0
 21 16  1  0
 30 24  1  0
 10  5  2  0
M  CHG  3   6  -1   9  -1  11  -1
M  END
>  <UniqueID>  (3488) 
71

>  <SMILES>  (3488) 
C=c1c(=Cc2[n-]c(=O)[n-]c2[O-])cc(C)n1-c1ncccc1C(=O)N1CCNC(=O)C1

>  <Energy>  (3488) 
128.84124092264403

>  <Genealogy>  (3488) 
C=c1c(=Cc2[n-]c(=O)[n-]c2[O-])cc(C)n1-c1ncccc1C(=O)N1CCNC(=O)C1 (protonated)
C=c1c(=Cc2[n-]c(=O)[n-]c2[O-])cc(C)n1-c1ncccc1C(=O)N1CCNC(=O)C1 (3D coordinates assigned)
C=c1c(=Cc2[n-]c(=O)[n-]c2[O-])cc(C)n1-c1ncccc1C(=O)N1CCNC(=O)C1 (nonaromatic ring conformer: 128.84124092264403 kcal/mol)

>  <smiles>  (3488) 
C=c1c(=Cc2[nH]c(=O)[nH]c2O)cc(C)n1-c1ncccc1C(=O)N1CCNC(=O)C1

>  <score_type>  (3488) 
oracle

>  <origin>  (3488) 
adg

>  <m_score__min__energy>  (3488) 
-16.32

>  <m_primary>  (3488) 
energy

$$$$
77:0
     RDKit          3D

 30 33  0  0  0  0  0  0  0  0999 V2000
   57.7890   27.3880   42.9480 C   0  0  0  0  0  0  0  0  0  0  0  0
   58.2020   26.9510   44.1510 C   0  0  0  0  0  0  0  0  0  0  0  0
   57.7820   25.7750   44.7880 C   0  0  0  0  0  0  0  0  0  0  0  0
   56.9360   24.8440   44.2950 C   0  0  0  0  0  0  0  0  0  0  0  0
   55.6190   24.4810   44.8670 C   0  0  0  0  0  0  0  0  0  0  0  0
   55.0250   23.2770   44.7860 N   0  0  0  0  0  0  0  0  0  0  0  0
   53.8810   23.4400   45.4860 C   0  0  0  0  0  0  0  0  0  0  0  0
   53.0390   22.5170   45.6340 O   0  0  0  0  0  0  0  0  0  0  0  0
   53.7110   24.6700   46.0130 N   0  0  0  0  0  0  0  0  0  0  0  0
   54.8190   25.3150   45.6140 C   0  0  0  0  0  0  0  0  0  0  0  0
   55.0960   26.6410   45.9280 O   0  0  0  0  0  0  0  0  0  0  0  0
   58.4170   25.7620   46.0220 C   0  0  0  0  0  0  0  0  0  0  0  0
   59.1930   26.9010   46.0910 C   0  0  0  0  0  0  0  0  0  0  0  0
   59.9530   27.3070   47.3300 C   0  0  0  0  0  0  0  0  0  0  0  0
   59.2560   28.4110   48.0890 C   0  0  0  0  0  0  0  0  0  0  0  0
   58.1360   28.1810   48.6260 O   0  0  0  0  0  0  0  0  0  0  0  0
   59.8310   29.7320   48.1950 N   0  0  0  0  0  0  0  0  0  0  0  0
   60.9750   30.1450   47.3650 C   0  0  0  0  0  0  0  0  0  0  0  0
   60.8290   31.6110   46.9350 C   0  0  0  0  0  0  0  0  0  0  0  0
   60.4300   32.4820   48.0520 N   0  0  0  0  0  0  0  0  0  0  0  0
   60.2910   33.9070   47.8480 C   0  0  0  0  0  0  0  0  0  0  0  0
   59.8880   34.6460   48.7860 O   0  0  0  0  0  0  0  0  0  0  0  0
   60.5670   34.5300   46.5030 C   0  0  0  0  0  0  0  0  0  0  0  0
   59.6430   35.6850   46.1470 C   0  0  0  0  0  0  0  0  0  0  0  0
   59.4780   34.3460   45.4540 C   0  0  0  0  0  0  0  0  0  0  0  0
   60.1900   31.8910   49.3770 C   0  0  0  0  0  0  0  0  0  0  0  0
   59.3240   30.6350   49.2400 C   0  0  0  0  0  0  0  0  0  0  0  0
   59.0780   27.6240   44.9470 N   0  0  0  0  0  0  0  0  0  0  0  0
   59.7360   28.9080   44.6530 C   0  0  0  0  0  0  0  0  0  0  0  0
   58.7410   30.0590   44.7470 C   0  0  0  0  0  0  0  0  0  0  0  0
  1  2  2  0
  2  3  1  0
  3  4  2  0
  4  5  1  0
  5  6  1  0
  6  7  1  0
  7  8  2  0
  7  9  1  0
  9 10  1  0
 10 11  1  0
  3 12  1  0
 12 13  2  0
 13 14  1  0
 14 15  1  0
 15 16  2  0
 15 17  1  0
 17 18  1  0
 18 19  1  0
 19 20  1  0
 20 21  1  0
 21 22  2  0
 21 23  1  0
 23 24  1  0
 24 25  1  0
 20 26  1  0
 26 27  1  0
 13 28  1  0
 28 29  1  0
 29 30  1  0
 28  2  1  0
 10  5  2  0
 27 17  1  0
 25 23  1  0
M  CHG  3   6  -1   9  -1  11  -1
M  END
>  <UniqueID>  (3489) 
73

>  <SMILES>  (3489) 
C=c1/c(=C/c2[n-]c(=O)[n-]c2[O-])cc(CC(=O)N2CCN(C(=O)C3CC3)CC2)n1CC

>  <Energy>  (3489) 
380.64986224513973

>  <Genealogy>  (3489) 
C=c1c(=Cc2[n-]c(=O)[n-]c2[O-])cc(CC(=O)N2CCN(C(=O)C3CC3)CC2)n1CC (protonated)
C=c1/c(=C/c2[n-]c(=O)[n-]c2[O-])cc(CC(=O)N2CCN(C(=O)C3CC3)CC2)n1CC (cis-trans isomerization)
C=c1/c(=C/c2[n-]c(=O)[n-]c2[O-])cc(CC(=O)N2CCN(C(=O)C3CC3)CC2)n1CC (3D coordinates assigned)
C=c1/c(=C/c2[n-]c(=O)[n-]c2[O-])cc(CC(=O)N2CCN(C(=O)C3CC3)CC2)n1CC (nonaromatic ring conformer: 380.64986224513973 kcal/mol)

>  <smiles>  (3489) 
C=c1c(=Cc2[nH]c(=O)[nH]c2O)cc(CC(=O)N2CCN(C(=O)C3CC3)CC2)n1CC

>  <score_type>  (3489) 
oracle

>  <origin>  (3489) 
adg

>  <m_score__min__energy>  (3489) 
-18.289999999999999

>  <m_primary>  (3489) 
energy

$$$$
82:0
     RDKit          3D

 30 33  0  0  0  0  0  0  0  0999 V2000
   53.8930   25.8750   45.6300 N   0  0  0  0  0  0  0  0  0  0  0  0
   54.1300   24.1860   45.3560 S   0  0  0  0  0  0  0  0  0  0  0  0
   53.3840   23.7830   44.1160 O   0  0  0  0  0  0  0  0  0  0  0  0
   53.5910   23.4070   46.5230 O   0  0  0  0  0  0  0  0  0  0  0  0
   55.8560   23.8510   45.1750 C   0  0  0  0  0  0  0  0  0  0  0  0
   56.2770   22.7310   44.4420 C   0  0  0  0  0  0  0  0  0  0  0  0
   57.6380   22.4590   44.2870 C   0  0  0  0  0  0  0  0  0  0  0  0
   58.5890   23.3090   44.8510 C   0  0  0  0  0  0  0  0  0  0  0  0
   58.1840   24.4260   45.5840 C   0  0  0  0  0  0  0  0  0  0  0  0
   56.8140   24.6950   45.7760 C   0  0  0  0  0  0  0  0  0  0  0  0
   56.3780   25.8610   46.4960 N   0  0  0  0  0  0  0  0  0  0  0  0
   56.8110   27.0780   46.3510 C   0  0  0  0  0  0  0  0  0  0  0  0
   56.1870   27.9580   45.5230 N   0  0  0  0  0  0  0  0  0  0  0  0
   56.6690   29.2170   45.3660 C   0  0  0  0  0  0  0  0  0  0  0  0
   56.0530   30.0410   44.5750 N   0  0  0  0  0  0  0  0  0  0  0  0
   56.6500   31.2770   44.0770 C   0  0  0  0  0  0  0  0  0  0  0  0
   57.0150   31.2020   42.6070 C   0  0  0  0  0  0  0  0  0  0  0  0
   58.1040   31.1300   43.6670 C   0  0  0  0  0  0  0  0  0  0  0  0
   57.7910   29.5950   46.0360 N   0  0  0  0  0  0  0  0  0  0  0  0
   58.4280   28.7210   46.8550 C   0  0  0  0  0  0  0  0  0  0  0  0
   59.5020   29.0990   47.4810 N   0  0  0  0  0  0  0  0  0  0  0  0
   60.2200   30.3480   47.2280 C   0  0  0  0  0  0  0  0  0  0  0  0
   59.5950   31.5010   48.0200 C   0  0  0  0  0  0  0  0  0  0  0  0
   59.1540   32.6010   47.0930 C   0  0  0  0  0  0  0  0  0  0  0  0
   60.1060   33.3580   46.3900 C   0  0  0  0  0  0  0  0  0  0  0  0
   59.6950   34.3590   45.5040 C   0  0  0  0  0  0  0  0  0  0  0  0
   58.3340   34.6040   45.3070 C   0  0  0  0  0  0  0  0  0  0  0  0
   57.3800   33.8460   45.9920 C   0  0  0  0  0  0  0  0  0  0  0  0
   57.7870   32.8440   46.8800 C   0  0  0  0  0  0  0  0  0  0  0  0
   57.9360   27.4620   47.0040 N   0  0  0  0  0  0  0  0  0  0  0  0
  1  2  1  0
  2  3  2  0
  2  4  2  0
  2  5  1  0
  5  6  2  0
  6  7  1  0
  7  8  2  0
  8  9  1  0
  9 10  2  0
 10 11  1  0
 11 12  2  0
 12 13  1  0
 13 14  1  0
 14 15  2  3
 15 16  1  0
 16 17  1  0
 17 18  1  0
 14 19  1  0
 19 20  1  0
 20 21  2  0
 21 22  1  0
 22 23  1  0
 23 24  1  0
 24 25  2  0
 25 26  1  0
 26 27  2  0
 27 28  1  0
 28 29  2  0
 20 30  1  0
 10  5  1  0
 30 12  1  0
 18 16  1  0
 29 24  1  0
M  CHG  4   1  -1  13  -1  19  -1  30  -1
M  END
>  <UniqueID>  (3490) 
78

>  <SMILES>  (3490) 
[NH-]S(=O)(=O)c1ccccc1/N=c1\[n-]c(=NC2CC2)[n-]/c(=N/CCc2ccccc2)[n-]1

>  <Energy>  (3490) 
320.663010796125

>  <Genealogy>  (3490) 
[NH-]S(=O)(=O)c1ccccc1N=c1[n-]c(=NCCc2ccccc2)[n-]c(=NC2CC2)[n-]1 (protonated)
[NH-]S(=O)(=O)c1ccccc1/N=c1\[n-]c(=NC2CC2)[n-]/c(=N/CCc2ccccc2)[n-]1 (cis-trans isomerization)
[NH-]S(=O)(=O)c1ccccc1/N=c1\[n-]c(=NC2CC2)[n-]/c(=N/CCc2ccccc2)[n-]1 (3D coordinates assigned)
[NH-]S(=O)(=O)c1ccccc1/N=c1\[n-]c(=NC2CC2)[n-]/c(=N/CCc2ccccc2)[n-]1 (nonaromatic ring conformer: 320.663010796125 kcal/mol)

>  <smiles>  (3490) 
NS(=O)(=O)c1ccccc1N=c1[nH]c(=NCCc2ccccc2)[nH]c(=NC2CC2)[nH]1

>  <score_type>  (3490) 
oracle

>  <origin>  (3490) 
adg

>  <m_score__min__energy>  (3490) 
-16.25

>  <m_primary>  (3490) 
energy

$$$$
19:0
     RDKit          3D

 26 29  0  0  0  0  0  0  0  0999 V2000
   61.6910   34.1890   49.3270 C   0  0  0  0  0  0  0  0  0  0  0  0
   61.8980   33.2880   48.3910 C   0  0  0  0  0  0  0  0  0  0  0  0
   60.8220   32.6830   47.6470 C   0  0  0  0  0  0  0  0  0  0  0  0
   59.9210   32.1860   47.0210 C   0  0  0  0  0  0  0  0  0  0  0  0
   58.8490   31.5890   46.2660 C   0  0  0  0  0  0  0  0  0  0  0  0
   57.7710   32.2260   45.6530 C   0  0  0  0  0  0  0  0  0  0  0  0
   57.5220   33.5350   45.6540 C   0  0  0  0  0  0  0  0  0  0  0  0
   57.0000   31.3390   45.0480 O   0  0  0  0  0  0  0  0  0  0  0  0
   57.5310   30.1540   45.2440 C   0  0  0  0  0  0  0  0  0  0  0  0
   57.0590   28.9280   44.7830 C   0  0  0  0  0  0  0  0  0  0  0  0
   57.7910   27.7550   45.1120 C   0  0  0  0  0  0  0  0  0  0  0  0
   57.4080   26.5280   44.6990 C   0  0  0  0  0  0  0  0  0  0  0  0
   56.8460   25.4760   45.5660 C   0  0  0  0  0  0  0  0  0  0  0  0
   57.5790   24.4800   46.0900 N   0  0  0  0  0  0  0  0  0  0  0  0
   56.7010   23.8270   46.8830 C   0  0  0  0  0  0  0  0  0  0  0  0
   57.0180   22.8050   47.5460 O   0  0  0  0  0  0  0  0  0  0  0  0
   55.4630   24.3610   46.9160 N   0  0  0  0  0  0  0  0  0  0  0  0
   55.5730   25.4110   46.0890 C   0  0  0  0  0  0  0  0  0  0  0  0
   54.5430   26.3140   45.8510 O   0  0  0  0  0  0  0  0  0  0  0  0
   58.9880   27.8810   45.8720 C   0  0  0  0  0  0  0  0  0  0  0  0
   59.4350   29.1360   46.3210 C   0  0  0  0  0  0  0  0  0  0  0  0
   58.6760   30.2520   45.9890 C   0  0  0  0  0  0  0  0  0  0  0  0
   63.2730   32.9280   48.2040 N   0  0  1  0  0  0  0  0  0  0  0  0
   63.7290   33.3020   46.8550 C   0  0  0  0  0  0  0  0  0  0  0  0
   63.9910   33.6810   49.2570 C   0  0  0  0  0  0  0  0  0  0  0  0
   62.9690   34.5960   49.9410 C   0  0  0  0  0  0  0  0  0  0  0  0
  1  2  2  0
  2  3  1  0
  3  4  3  0
  4  5  1  0
  5  6  1  0
  6  7  2  0
  6  8  1  0
  8  9  1  0
  9 10  2  0
 10 11  1  0
 11 12  2  0
 12 13  1  0
 13 14  1  0
 14 15  1  0
 15 16  2  0
 15 17  1  0
 17 18  1  0
 18 19  1  0
 11 20  1  0
 20 21  2  0
 21 22  1  0
  2 23  1  0
 23 24  1  6
 23 25  1  0
 25 26  1  0
 26  1  1  0
 22  5  2  0
 22  9  1  0
 18 13  2  0
M  CHG  4  14  -1  17  -1  19  -1  23   1
M  END
>  <UniqueID>  (3491) 
17

>  <SMILES>  (3491) 
C=c1oc2c/c(=C\c3[n-]c(=O)[n-]c3[O-])ccc2c1C#CC1=CCC[N@@H+]1C

>  <Energy>  (3491) 
119.95807010386467

>  <Genealogy>  (3491) 
C=c1oc2cc(=Cc3[n-]c(=O)[n-]c3[O-])ccc2c1C#CC1=CCC[NH+]1C (protonated)
C=c1oc2cc(=Cc3[n-]c(=O)[n-]c3[O-])ccc2c1C#CC1=CCC[N@@H+]1C (chirality)
C=c1oc2c/c(=C\c3[n-]c(=O)[n-]c3[O-])ccc2c1C#CC1=CCC[N@@H+]1C (cis-trans isomerization)
C=c1oc2c/c(=C\c3[n-]c(=O)[n-]c3[O-])ccc2c1C#CC1=CCC[N@@H+]1C (3D coordinates assigned)
C=c1oc2c/c(=C\c3[n-]c(=O)[n-]c3[O-])ccc2c1C#CC1=CCC[N@@H+]1C (nonaromatic ring conformer: 119.95807010386467 kcal/mol)

>  <smiles>  (3491) 
C=c1oc2cc(=Cc3[nH]c(=O)[nH]c3O)ccc2c1C#CC1=CCCN1C

>  <score_type>  (3491) 
oracle

>  <origin>  (3491) 
adg

>  <m_score__min__energy>  (3491) 
-14.58

>  <m_primary>  (3491) 
energy

$$$$
25:0
     RDKit          3D

 32 35  0  0  0  0  0  0  0  0999 V2000
   58.9870   29.7320   48.1020 C   0  0  0  0  0  0  0  0  0  0  0  0
   58.4250   29.5850   46.8930 C   0  0  0  0  0  0  0  0  0  0  0  0
   57.8360   28.4210   46.3860 C   0  0  0  0  0  0  0  0  0  0  0  0
   57.6580   27.2510   47.0280 C   0  0  0  0  0  0  0  0  0  0  0  0
   57.1220   26.0330   46.3920 C   0  0  0  0  0  0  0  0  0  0  0  0
   57.8960   24.9880   46.0290 N   0  0  0  0  0  0  0  0  0  0  0  0
   57.0370   24.1510   45.4070 C   0  0  0  0  0  0  0  0  0  0  0  0
   57.3960   23.0510   44.9080 O   0  0  0  0  0  0  0  0  0  0  0  0
   55.7710   24.6140   45.3550 N   0  0  0  0  0  0  0  0  0  0  0  0
   54.6340   24.0290   44.6500 C   0  0  0  0  0  0  0  0  0  0  0  0
   55.8320   25.8170   45.9460 C   0  0  0  0  0  0  0  0  0  0  0  0
   54.7690   26.7120   46.0180 O   0  0  0  0  0  0  0  0  0  0  0  0
   57.4150   28.7270   45.0970 C   0  0  0  0  0  0  0  0  0  0  0  0
   57.7590   30.0450   44.8710 C   0  0  0  0  0  0  0  0  0  0  0  0
   57.4850   30.7930   43.6020 C   0  0  0  0  0  0  0  0  0  0  0  0
   58.3820   30.5620   45.9530 N   0  0  0  0  0  0  0  0  0  0  0  0
   58.8650   31.9100   46.0800 C   0  0  0  0  0  0  0  0  0  0  0  0
   60.2140   32.1450   46.3820 C   0  0  0  0  0  0  0  0  0  0  0  0
   60.7010   33.4580   46.5060 C   0  0  0  0  0  0  0  0  0  0  0  0
   62.1250   33.6970   46.8360 C   0  0  0  0  0  0  0  0  0  0  0  0
   62.9290   33.9970   45.9130 O   0  0  0  0  0  0  0  0  0  0  0  0
   62.6150   33.5710   48.1840 N   0  0  0  0  0  0  0  0  0  0  0  0
   61.9180   34.2210   49.2980 C   0  0  0  0  0  0  0  0  0  0  0  0
   61.8930   33.3050   50.5380 C   0  0  0  0  0  0  0  0  0  0  0  0
   63.0740   32.4110   50.6580 N   0  0  0  0  0  0  0  0  0  0  0  0
   62.7430   31.0140   50.3220 C   0  0  0  0  0  0  0  0  0  0  0  0
   64.2530   32.8910   49.9090 C   0  0  0  0  0  0  0  0  0  0  0  0
   63.9590   33.0320   48.4070 C   0  0  0  0  0  0  0  0  0  0  0  0
   59.8100   34.5340   46.3480 C   0  0  0  0  0  0  0  0  0  0  0  0
   58.4660   34.3010   46.0470 C   0  0  0  0  0  0  0  0  0  0  0  0
   57.9920   32.9950   45.9100 C   0  0  0  0  0  0  0  0  0  0  0  0
   56.6890   32.7840   45.5980 F   0  0  0  0  0  0  0  0  0  0  0  0
  1  2  2  0
  2  3  1  0
  3  4  2  0
  4  5  1  0
  5  6  1  0
  6  7  1  0
  7  8  2  0
  7  9  1  0
  9 10  1  0
  9 11  1  0
 11 12  1  0
  3 13  1  0
 13 14  2  0
 14 15  1  0
 14 16  1  0
 16 17  1  0
 17 18  2  0
 18 19  1  0
 19 20  1  0
 20 21  2  0
 20 22  1  0
 22 23  1  0
 23 24  1  0
 24 25  1  0
 25 26  1  0
 25 27  1  0
 27 28  1  0
 19 29  2  0
 29 30  1  0
 30 31  2  0
 31 32  1  0
 16  2  1  0
 31 17  1  0
 11  5  2  0
 28 22  1  0
M  CHG  2   6  -1  12  -1
M  END
>  <UniqueID>  (3492) 
23

>  <SMILES>  (3492) 
C=c1/c(=C/c2[n-]c(=O)n(C)c2[O-])cc(C)n1-c1cc(C(=O)N2CCN(C)CC2)ccc1F

>  <Energy>  (3492) 
143.7577335445685

>  <Genealogy>  (3492) 
C=c1c(=Cc2[n-]c(=O)n(C)c2[O-])cc(C)n1-c1cc(C(=O)N2CCN(C)CC2)ccc1F (protonated)
C=c1/c(=C/c2[n-]c(=O)n(C)c2[O-])cc(C)n1-c1cc(C(=O)N2CCN(C)CC2)ccc1F (cis-trans isomerization)
C=c1/c(=C/c2[n-]c(=O)n(C)c2[O-])cc(C)n1-c1cc(C(=O)N2CCN(C)CC2)ccc1F (3D coordinates assigned)
C=c1/c(=C/c2[n-]c(=O)n(C)c2[O-])cc(C)n1-c1cc(C(=O)N2CCN(C)CC2)ccc1F (nonaromatic ring conformer: 143.7577335445685 kcal/mol)

>  <smiles>  (3492) 
C=c1c(=Cc2[nH]c(=O)n(C)c2O)cc(C)n1-c1cc(C(=O)N2CCN(C)CC2)ccc1F

>  <score_type>  (3492) 
oracle

>  <origin>  (3492) 
adg

>  <m_score__min__energy>  (3492) 
-14.81

>  <m_primary>  (3492) 
energy

$$$$
26:0
     RDKit          3D

 29 32  0  0  0  0  0  0  0  0999 V2000
   56.6490   29.8990   42.9350 C   0  0  0  0  0  0  0  0  0  0  0  0
   57.4070   30.3720   43.9300 C   0  0  0  0  0  0  0  0  0  0  0  0
   57.5160   31.6950   44.1690 N   0  0  0  0  0  0  0  0  0  0  0  0
   58.4890   31.8620   45.0810 C   0  0  0  0  0  0  0  0  0  0  0  0
   58.9410   33.2110   45.5500 C   0  0  0  0  0  0  0  0  0  0  0  0
   59.0020   30.6320   45.4650 C   0  0  0  0  0  0  0  0  0  0  0  0
   60.1030   30.4060   46.4260 C   0  0  0  0  0  0  0  0  0  0  0  0
   61.1810   29.9080   45.9980 O   0  0  0  0  0  0  0  0  0  0  0  0
   59.9830   30.7680   47.8180 N   0  0  0  0  0  0  0  0  0  0  0  0
   61.2080   31.0230   48.5930 C   0  0  0  0  0  0  0  0  0  0  0  0
   60.9290   31.1290   50.0980 C   0  0  0  0  0  0  0  0  0  0  0  0
   59.7600   31.9820   50.3590 N   0  0  0  0  0  0  0  0  0  0  0  0
   59.7040   32.7940   51.5540 C   0  0  0  0  0  0  0  0  0  0  0  0
   60.7910   32.8360   52.4480 C   0  0  0  0  0  0  0  0  0  0  0  0
   60.7290   33.6160   53.6070 C   0  0  0  0  0  0  0  0  0  0  0  0
   59.5830   34.3610   53.8890 C   0  0  0  0  0  0  0  0  0  0  0  0
   58.4950   34.3270   53.0140 C   0  0  0  0  0  0  0  0  0  0  0  0
   58.5520   33.5480   51.8530 C   0  0  0  0  0  0  0  0  0  0  0  0
   58.5730   31.8860   49.4930 C   0  0  0  0  0  0  0  0  0  0  0  0
   58.6850   30.7210   48.5060 C   0  0  0  0  0  0  0  0  0  0  0  0
   58.2930   29.6600   44.7570 C   0  0  0  0  0  0  0  0  0  0  0  0
   58.4580   28.3290   44.9150 C   0  0  0  0  0  0  0  0  0  0  0  0
   57.4730   27.4140   45.5140 C   0  0  0  0  0  0  0  0  0  0  0  0
   57.7590   25.8090   45.9490 S   0  0  0  0  0  0  0  0  0  0  0  0
   56.1380   25.5280   46.2910 C   0  0  0  0  0  0  0  0  0  0  0  0
   55.6820   24.4350   46.7160 O   0  0  0  0  0  0  0  0  0  0  0  0
   55.3600   26.6050   46.0540 N   0  0  0  0  0  0  0  0  0  0  0  0
   56.1040   27.6490   45.6020 C   0  0  0  0  0  0  0  0  0  0  0  0
   55.5220   28.8620   45.2550 O   0  0  0  0  0  0  0  0  0  0  0  0
  1  2  2  0
  2  3  1  0
  3  4  1  0
  4  5  1  0
  4  6  2  0
  6  7  1  0
  7  8  2  0
  7  9  1  0
  9 10  1  0
 10 11  1  0
 11 12  1  0
 12 13  1  0
 13 14  2  0
 14 15  1  0
 15 16  2  0
 16 17  1  0
 17 18  2  0
 12 19  1  0
 19 20  1  0
  6 21  1  0
 21 22  2  3
 22 23  1  0
 23 24  1  0
 24 25  1  0
 25 26  2  0
 25 27  1  0
 27 28  1  0
 28 29  1  0
 21  2  1  0
 28 23  2  0
 20  9  1  0
 18 13  1  0
M  CHG  2  27  -1  29  -1
M  END
>  <UniqueID>  (3493) 
24

>  <SMILES>  (3493) 
C=c1[nH]c(C)c(C(=O)N2CCN(c3ccccc3)CC2)c1=Cc1sc(=O)[n-]c1[O-]

>  <Energy>  (3493) 
131.7107040931512

>  <Genealogy>  (3493) 
C=c1[nH]c(C)c(C(=O)N2CCN(c3ccccc3)CC2)c1=Cc1sc(=O)[n-]c1[O-] (protonated)
C=c1[nH]c(C)c(C(=O)N2CCN(c3ccccc3)CC2)c1=Cc1sc(=O)[n-]c1[O-] (3D coordinates assigned)
C=c1[nH]c(C)c(C(=O)N2CCN(c3ccccc3)CC2)c1=Cc1sc(=O)[n-]c1[O-] (nonaromatic ring conformer: 131.7107040931512 kcal/mol)

>  <smiles>  (3493) 
C=c1[nH]c(C)c(C(=O)N2CCN(c3ccccc3)CC2)c1=Cc1sc(=O)[nH]c1O

>  <score_type>  (3493) 
oracle

>  <origin>  (3493) 
adg

>  <m_score__min__energy>  (3493) 
-14.380000000000001

>  <m_primary>  (3493) 
energy

$$$$
32:0
     RDKit          3D

 24 27  0  0  0  0  0  0  0  0999 V2000
   60.7740   27.8930   49.8140 C   0  0  0  0  0  0  0  0  0  0  0  0
   60.1360   27.6150   48.6820 C   0  0  0  0  0  0  0  0  0  0  0  0
   60.5870   26.7060   47.7880 N   0  0  0  0  0  0  0  0  0  0  0  0
   59.6530   26.7440   46.8240 C   0  0  0  0  0  0  0  0  0  0  0  0
   59.6960   26.0360   45.7830 O   0  0  0  0  0  0  0  0  0  0  0  0
   58.6680   27.6490   47.1460 C   0  0  0  0  0  0  0  0  0  0  0  0
   57.5970   27.9580   46.4030 C   0  0  0  0  0  0  0  0  0  0  0  0
   57.3720   29.2960   45.8250 C   0  0  0  0  0  0  0  0  0  0  0  0
   56.2390   29.7080   45.1370 C   0  0  0  0  0  0  0  0  0  0  0  0
   55.1440   28.8970   44.8650 O   0  0  0  0  0  0  0  0  0  0  0  0
   56.3140   30.9990   44.7430 N   0  0  0  0  0  0  0  0  0  0  0  0
   57.5100   31.4130   45.2070 C   0  0  0  0  0  0  0  0  0  0  0  0
   58.0440   32.6920   45.0840 C   0  0  0  0  0  0  0  0  0  0  0  0
   59.2920   32.9500   45.6770 C   0  0  0  0  0  0  0  0  0  0  0  0
   59.9790   31.9380   46.3990 C   0  0  0  0  0  0  0  0  0  0  0  0
   61.2920   32.2210   47.0320 C   0  0  0  0  0  0  0  0  0  0  0  0
   62.0040   33.3910   46.7160 C   0  0  0  0  0  0  0  0  0  0  0  0
   63.2370   33.6370   47.3250 C   0  0  0  0  0  0  0  0  0  0  0  0
   63.7470   32.7460   48.2170 N   0  0  0  0  0  0  0  0  0  0  0  0
   63.0850   31.6060   48.5420 C   0  0  0  0  0  0  0  0  0  0  0  0
   61.8480   31.3220   47.9580 C   0  0  0  0  0  0  0  0  0  0  0  0
   59.3970   30.6540   46.5120 C   0  0  0  0  0  0  0  0  0  0  0  0
   58.1770   30.4180   45.8770 C   0  0  0  0  0  0  0  0  0  0  0  0
   58.9760   28.2170   48.3270 N   0  0  0  0  0  0  0  0  0  0  0  0
  1  2  2  0
  2  3  1  0
  3  4  1  0
  4  5  2  0
  4  6  1  0
  6  7  2  3
  7  8  1  0
  8  9  2  0
  9 10  1  0
  9 11  1  0
 11 12  1  0
 12 13  2  0
 13 14  1  0
 14 15  2  0
 15 16  1  0
 16 17  2  0
 17 18  1  0
 18 19  2  0
 19 20  1  0
 20 21  2  0
 15 22  1  0
 22 23  2  0
  6 24  1  0
 24  2  1  0
 23  8  1  0
 23 12  1  0
 21 16  1  0
M  CHG  4   3  -1  10  -1  11  -1  24  -1
M  END
>  <UniqueID>  (3494) 
28

>  <SMILES>  (3494) 
C=c1[n-]c(=O)c(=Cc2c([O-])[n-]c3ccc(-c4ccncc4)cc23)[n-]1

>  <Energy>  (3494) 
110.98464737810299

>  <Genealogy>  (3494) 
C=c1[n-]c(=O)c(=Cc2c([O-])[n-]c3ccc(-c4ccncc4)cc23)[n-]1 (protonated)
C=c1[n-]c(=O)c(=Cc2c([O-])[n-]c3ccc(-c4ccncc4)cc23)[n-]1 (3D coordinates assigned)
C=c1[n-]c(=O)c(=Cc2c([O-])[n-]c3ccc(-c4ccncc4)cc23)[n-]1 (optimized conformer: 110.98464737810299 kcal/mol)

>  <smiles>  (3494) 
C=c1[nH]c(=O)c(=Cc2c(O)[nH]c3ccc(-c4ccncc4)cc23)[nH]1

>  <score_type>  (3494) 
oracle

>  <origin>  (3494) 
adg

>  <m_score__min__energy>  (3494) 
-16.140000000000001

>  <m_primary>  (3494) 
energy

$$$$
46:0
     RDKit          3D

 32 35  0  0  0  0  0  0  0  0999 V2000
   60.4700   31.0970   47.5370 C   0  0  0  0  0  0  0  0  0  0  0  0
   59.4120   30.8150   46.7720 C   0  0  0  0  0  0  0  0  0  0  0  0
   58.9650   29.5530   46.5780 N   0  0  0  0  0  0  0  0  0  0  0  0
   57.8410   29.6770   45.8360 C   0  0  0  0  0  0  0  0  0  0  0  0
   57.0380   28.6810   45.4170 C   0  0  0  0  0  0  0  0  0  0  0  0
   57.1760   27.2540   45.7760 C   0  0  0  0  0  0  0  0  0  0  0  0
   58.3370   26.5680   45.8590 N   0  0  0  0  0  0  0  0  0  0  0  0
   57.9510   25.3080   46.1560 C   0  0  0  0  0  0  0  0  0  0  0  0
   58.7660   24.3610   46.3070 O   0  0  0  0  0  0  0  0  0  0  0  0
   56.6130   25.1650   46.2650 N   0  0  0  0  0  0  0  0  0  0  0  0
   55.8560   23.9340   46.4920 C   0  0  0  0  0  0  0  0  0  0  0  0
   56.1040   22.9620   45.3720 C   0  0  0  0  0  0  0  0  0  0  0  0
   56.0060   23.3820   44.0350 C   0  0  0  0  0  0  0  0  0  0  0  0
   56.2760   22.4870   42.9950 C   0  0  0  0  0  0  0  0  0  0  0  0
   56.6540   21.1730   43.2820 C   0  0  0  0  0  0  0  0  0  0  0  0
   56.9170   20.3060   42.2720 F   0  0  0  0  0  0  0  0  0  0  0  0
   56.7660   20.7510   44.6100 C   0  0  0  0  0  0  0  0  0  0  0  0
   56.4970   21.6440   45.6530 C   0  0  0  0  0  0  0  0  0  0  0  0
   56.1270   26.3900   46.0090 C   0  0  0  0  0  0  0  0  0  0  0  0
   54.7750   26.7130   45.9780 O   0  0  0  0  0  0  0  0  0  0  0  0
   57.6380   31.0230   45.5980 C   0  0  0  0  0  0  0  0  0  0  0  0
   56.6870   31.5240   44.9380 O   0  0  0  0  0  0  0  0  0  0  0  0
   58.6240   31.7400   46.1680 N   0  0  0  0  0  0  0  0  0  0  0  0
   58.7700   33.1690   46.1150 C   0  0  0  0  0  0  0  0  0  0  0  0
   57.7670   33.8970   46.3430 O   0  0  0  0  0  0  0  0  0  0  0  0
   60.0500   33.7910   45.6210 C   0  0  0  0  0  0  0  0  0  0  0  0
   61.0760   33.9150   46.7200 C   0  0  0  0  0  0  0  0  0  0  0  0
   62.4400   33.7300   46.4350 C   0  0  0  0  0  0  0  0  0  0  0  0
   63.3960   33.8510   47.4480 C   0  0  0  0  0  0  0  0  0  0  0  0
   62.9990   34.1540   48.7530 C   0  0  0  0  0  0  0  0  0  0  0  0
   61.6450   34.3320   49.0480 C   0  0  0  0  0  0  0  0  0  0  0  0
   60.6860   34.2120   48.0370 C   0  0  0  0  0  0  0  0  0  0  0  0
  1  2  2  0
  2  3  1  0
  3  4  1  0
  4  5  2  3
  5  6  1  0
  6  7  1  0
  7  8  1  0
  8  9  2  0
  8 10  1  0
 10 11  1  0
 11 12  1  0
 12 13  2  0
 13 14  1  0
 14 15  2  0
 15 16  1  0
 15 17  1  0
 17 18  2  0
 10 19  1  0
 19 20  1  0
  4 21  1  0
 21 22  2  0
 21 23  1  0
 23 24  1  0
 24 25  2  0
 24 26  1  0
 26 27  1  0
 27 28  2  0
 28 29  1  0
 29 30  2  0
 30 31  1  0
 31 32  2  0
 23  2  1  0
 32 27  1  0
 19  6  2  0
 18 12  1  0
M  CHG  2   7  -1  20  -1
M  END
>  <UniqueID>  (3495) 
42

>  <SMILES>  (3495) 
C=c1[nH]c(=Cc2[n-]c(=O)n(Cc3ccc(F)cc3)c2[O-])c(=O)n1C(=O)Cc1ccccc1

>  <Energy>  (3495) 
127.66234426917495

>  <Genealogy>  (3495) 
C=c1[nH]c(=Cc2[n-]c(=O)n(Cc3ccc(F)cc3)c2[O-])c(=O)n1C(=O)Cc1ccccc1 (protonated)
C=c1[nH]c(=Cc2[n-]c(=O)n(Cc3ccc(F)cc3)c2[O-])c(=O)n1C(=O)Cc1ccccc1 (3D coordinates assigned)
C=c1[nH]c(=Cc2[n-]c(=O)n(Cc3ccc(F)cc3)c2[O-])c(=O)n1C(=O)Cc1ccccc1 (optimized conformer: 127.66234426917495 kcal/mol)

>  <smiles>  (3495) 
C=c1[nH]c(=Cc2[nH]c(=O)n(Cc3ccc(F)cc3)c2O)c(=O)n1C(=O)Cc1ccccc1

>  <score_type>  (3495) 
oracle

>  <origin>  (3495) 
adg

>  <m_score__min__energy>  (3495) 
-14.52

>  <m_primary>  (3495) 
energy

$$$$
52:0
     RDKit          3D

 29 32  0  0  0  0  0  0  0  0999 V2000
   52.1380   28.7110   54.7490 C   0  0  0  0  0  0  0  0  0  0  0  0
   53.2540   29.0270   54.0860 C   0  0  0  0  0  0  0  0  0  0  0  0
   54.3790   28.2910   54.1970 N   0  0  0  0  0  0  0  0  0  0  0  0
   55.3590   28.9680   53.5710 C   0  0  0  0  0  0  0  0  0  0  0  0
   56.7930   28.5310   53.5440 C   0  0  0  0  0  0  0  0  0  0  0  0
   57.7270   29.7110   53.6350 C   0  0  0  0  0  0  0  0  0  0  0  0
   58.3150   29.9460   54.7270 O   0  0  0  0  0  0  0  0  0  0  0  0
   57.9970   30.5480   52.4920 N   0  0  0  0  0  0  0  0  0  0  0  0
   57.7610   30.0630   51.1240 C   0  0  0  0  0  0  0  0  0  0  0  0
   58.7850   30.6590   50.1520 C   0  0  0  0  0  0  0  0  0  0  0  0
   58.8710   32.1220   50.2820 N   0  0  0  0  0  0  0  0  0  0  0  0
   59.4190   32.9050   49.1980 C   0  0  0  0  0  0  0  0  0  0  0  0
   58.6630   33.1400   48.0320 C   0  0  0  0  0  0  0  0  0  0  0  0
   59.1920   33.9010   46.9850 C   0  0  0  0  0  0  0  0  0  0  0  0
   60.4780   34.4350   47.0870 C   0  0  0  0  0  0  0  0  0  0  0  0
   61.2370   34.2120   48.2380 C   0  0  0  0  0  0  0  0  0  0  0  0
   60.7130   33.4520   49.2880 C   0  0  0  0  0  0  0  0  0  0  0  0
   58.3130   32.7880   51.4670 C   0  0  0  0  0  0  0  0  0  0  0  0
   58.4830   31.9170   52.7150 C   0  0  0  0  0  0  0  0  0  0  0  0
   54.8750   30.1520   53.0520 C   0  0  0  0  0  0  0  0  0  0  0  0
   53.5180   30.1830   53.3340 C   0  0  0  0  0  0  0  0  0  0  0  0
   52.7050   31.1710   52.9130 C   0  0  0  0  0  0  0  0  0  0  0  0
   51.9660   31.1880   51.6400 C   0  0  0  0  0  0  0  0  0  0  0  0
   52.1870   30.3440   50.6140 N   0  0  0  0  0  0  0  0  0  0  0  0
   51.3900   30.8280   49.6370 C   0  0  0  0  0  0  0  0  0  0  0  0
   51.3060   30.2890   48.5030 O   0  0  0  0  0  0  0  0  0  0  0  0
   50.7010   31.9410   49.9660 N   0  0  0  0  0  0  0  0  0  0  0  0
   51.0900   32.1620   51.2330 C   0  0  0  0  0  0  0  0  0  0  0  0
   50.6550   33.2370   51.9980 O   0  0  0  0  0  0  0  0  0  0  0  0
  1  2  2  0
  2  3  1  0
  3  4  1  0
  4  5  1  0
  5  6  1  0
  6  7  2  0
  6  8  1  0
  8  9  1  0
  9 10  1  0
 10 11  1  0
 11 12  1  0
 12 13  2  0
 13 14  1  0
 14 15  2  0
 15 16  1  0
 16 17  2  0
 11 18  1  0
 18 19  1  0
  4 20  2  0
 20 21  1  0
 21 22  2  3
 22 23  1  0
 23 24  1  0
 24 25  1  0
 25 26  2  0
 25 27  1  0
 27 28  1  0
 28 29  1  0
 21  2  1  0
 28 23  2  0
 19  8  1  0
 17 12  1  0
M  CHG  3  24  -1  27  -1  29  -1
M  END
>  <UniqueID>  (3496) 
48

>  <SMILES>  (3496) 
C=c1[nH]c(CC(=O)N2CCN(c3ccccc3)CC2)cc1=Cc1[n-]c(=O)[n-]c1[O-]

>  <Energy>  (3496) 
122.3085436587811

>  <Genealogy>  (3496) 
C=c1[nH]c(CC(=O)N2CCN(c3ccccc3)CC2)cc1=Cc1[n-]c(=O)[n-]c1[O-] (protonated)
C=c1[nH]c(CC(=O)N2CCN(c3ccccc3)CC2)cc1=Cc1[n-]c(=O)[n-]c1[O-] (3D coordinates assigned)
C=c1[nH]c(CC(=O)N2CCN(c3ccccc3)CC2)cc1=Cc1[n-]c(=O)[n-]c1[O-] (nonaromatic ring conformer: 122.3085436587811 kcal/mol)

>  <smiles>  (3496) 
C=c1[nH]c(CC(=O)N2CCN(c3ccccc3)CC2)cc1=Cc1[nH]c(=O)[nH]c1O

>  <score_type>  (3496) 
oracle

>  <origin>  (3496) 
adg

>  <m_score__min__energy>  (3496) 
-17.370000000000001

>  <m_primary>  (3496) 
energy

$$$$
62:0
     RDKit          3D

 27 29  0  0  0  0  0  0  0  0999 V2000
   54.7610   26.3370   46.0180 N   0  0  0  0  0  0  0  0  0  0  0  0
   56.1860   26.2630   46.0180 C   0  0  0  0  0  0  0  0  0  0  0  0
   56.7530   25.2320   46.4700 O   0  0  0  0  0  0  0  0  0  0  0  0
   56.9800   27.3870   45.4890 C   0  0  0  0  0  0  0  0  0  0  0  0
   58.3500   27.2490   45.2240 C   0  0  0  0  0  0  0  0  0  0  0  0
   59.0470   28.3470   44.7240 C   0  0  0  0  0  0  0  0  0  0  0  0
   58.3980   29.5200   44.5040 N   0  0  0  0  0  0  0  0  0  0  0  0
   57.0670   29.6450   44.7660 C   0  0  0  0  0  0  0  0  0  0  0  0
   56.4450   30.7660   44.5540 N   0  0  0  0  0  0  0  0  0  0  0  0
   57.0920   32.0230   44.1740 C   0  0  0  0  0  0  0  0  0  0  0  0
   56.9920   33.0450   45.3100 C   0  0  0  0  0  0  0  0  0  0  0  0
   57.5630   34.3220   44.8960 N   0  0  0  0  0  0  0  0  0  0  0  0
   58.8250   34.8160   45.3630 C   0  0  0  0  0  0  0  0  0  0  0  0
   59.3940   35.7580   44.7450 O   0  0  0  0  0  0  0  0  0  0  0  0
   59.4600   34.2240   46.5630 C   0  0  0  0  0  0  0  0  0  0  0  0
   59.5300   34.9520   47.7650 C   0  0  0  0  0  0  0  0  0  0  0  0
   60.1400   34.3980   48.8920 C   0  0  0  0  0  0  0  0  0  0  0  0
   60.6770   33.1110   48.8400 C   0  0  0  0  0  0  0  0  0  0  0  0
   60.6010   32.3570   47.6570 C   0  0  0  0  0  0  0  0  0  0  0  0
   61.1710   30.9930   47.6180 C   0  0  0  0  0  0  0  0  0  0  0  0
   62.4140   30.8450   47.4740 O   0  0  0  0  0  0  0  0  0  0  0  0
   60.3510   29.8340   47.7870 N   0  0  0  0  0  0  0  0  0  0  0  0
   58.9690   29.4900   48.1780 C   0  0  0  0  0  0  0  0  0  0  0  0
   59.1860   28.0160   48.2520 C   0  0  0  0  0  0  0  0  0  0  0  0
   60.5760   28.3780   47.8490 C   0  0  0  0  0  0  0  0  0  0  0  0
   60.0050   32.9270   46.5190 C   0  0  0  0  0  0  0  0  0  0  0  0
   56.3750   28.5820   45.2520 N   0  0  0  0  0  0  0  0  0  0  0  0
  1  2  1  0
  2  3  2  0
  2  4  1  0
  4  5  1  0
  5  6  2  0
  6  7  1  0
  7  8  1  0
  8  9  2  3
  9 10  1  0
 10 11  1  0
 11 12  1  0
 12 13  1  0
 13 14  2  0
 13 15  1  0
 15 16  2  0
 16 17  1  0
 17 18  2  0
 18 19  1  0
 19 20  1  0
 20 21  2  0
 20 22  1  0
 22 23  1  0
 23 24  1  0
 24 25  1  0
 19 26  2  0
  8 27  1  0
 27  4  2  0
 26 15  1  0
 25 22  1  0
M  CHG  3   1  -1   7  -1  12  -1
M  END
>  <UniqueID>  (3497) 
56

>  <SMILES>  (3497) 
[NH-]C(=O)c1cc[n-]c(=NCC[N-]C(=O)c2cccc(C(=O)N3CCC3)c2)n1

>  <Energy>  (3497) 
88.42016803909323

>  <Genealogy>  (3497) 
[NH-]C(=O)c1cc[n-]c(=NCC[N-]C(=O)c2cccc(C(=O)N3CCC3)c2)n1 (protonated)
[NH-]C(=O)c1cc[n-]c(=NCC[N-]C(=O)c2cccc(C(=O)N3CCC3)c2)n1 (3D coordinates assigned)
[NH-]C(=O)c1cc[n-]c(=NCC[N-]C(=O)c2cccc(C(=O)N3CCC3)c2)n1 (nonaromatic ring conformer: 88.42016803909323 kcal/mol)

>  <smiles>  (3497) 
NC(=O)c1cc[nH]c(=NCCNC(=O)c2cccc(C(=O)N3CCC3)c2)n1

>  <score_type>  (3497) 
oracle

>  <origin>  (3497) 
adg

>  <m_score__min__energy>  (3497) 
-14.69

>  <m_primary>  (3497) 
energy

$$$$
63:0
     RDKit          3D

 28 31  0  0  0  0  0  0  0  0999 V2000
   57.4290   25.2260   43.5110 C   0  0  0  0  0  0  0  0  0  0  0  0
   57.5140   25.5550   44.8100 C   0  0  0  0  0  0  0  0  0  0  0  0
   57.0010   24.8180   45.8910 C   0  0  0  0  0  0  0  0  0  0  0  0
   56.1240   23.7960   45.9290 C   0  0  0  0  0  0  0  0  0  0  0  0
   54.6770   23.8990   45.6640 C   0  0  0  0  0  0  0  0  0  0  0  0
   53.8980   22.8800   45.2530 N   0  0  0  0  0  0  0  0  0  0  0  0
   52.7100   23.4750   45.0110 C   0  0  0  0  0  0  0  0  0  0  0  0
   51.6990   22.8360   44.6180 O   0  0  0  0  0  0  0  0  0  0  0  0
   52.6930   24.8100   45.2130 N   0  0  0  0  0  0  0  0  0  0  0  0
   53.9500   25.0620   45.6130 C   0  0  0  0  0  0  0  0  0  0  0  0
   54.4230   26.3320   45.9200 O   0  0  0  0  0  0  0  0  0  0  0  0
   57.5560   25.3680   47.0330 C   0  0  0  0  0  0  0  0  0  0  0  0
   58.3090   26.4500   46.6300 C   0  0  0  0  0  0  0  0  0  0  0  0
   59.0700   27.3480   47.5600 C   0  0  0  0  0  0  0  0  0  0  0  0
   58.2730   26.5810   45.2840 N   0  0  0  0  0  0  0  0  0  0  0  0
   58.9500   27.6420   44.5190 C   0  0  0  0  0  0  0  0  0  0  0  0
   58.0410   28.8270   44.2960 C   0  0  0  0  0  0  0  0  0  0  0  0
   57.1160   28.8100   43.2400 C   0  0  0  0  0  0  0  0  0  0  0  0
   56.3110   29.9240   42.9920 C   0  0  0  0  0  0  0  0  0  0  0  0
   56.4130   31.0600   43.7970 C   0  0  0  0  0  0  0  0  0  0  0  0
   57.3210   31.0860   44.8710 C   0  0  0  0  0  0  0  0  0  0  0  0
   57.4760   32.2400   45.7110 N   0  0  0  0  0  0  0  0  0  0  0  0
   57.6780   33.5930   45.2780 C   0  0  0  0  0  0  0  0  0  0  0  0
   56.7020   34.3220   44.9620 O   0  0  0  0  0  0  0  0  0  0  0  0
   59.0530   34.1860   45.3010 C   0  0  0  0  0  0  0  0  0  0  0  0
   59.9700   33.5560   46.3400 C   0  0  0  0  0  0  0  0  0  0  0  0
   59.4190   34.9550   46.5640 C   0  0  0  0  0  0  0  0  0  0  0  0
   58.1470   29.9780   45.0960 C   0  0  0  0  0  0  0  0  0  0  0  0
  1  2  2  0
  2  3  1  0
  3  4  2  3
  4  5  1  0
  5  6  1  0
  6  7  1  0
  7  8  2  0
  7  9  1  0
  9 10  1  0
 10 11  1  0
  3 12  1  0
 12 13  2  0
 13 14  1  0
 13 15  1  0
 15 16  1  0
 16 17  1  0
 17 18  2  0
 18 19  1  0
 19 20  2  0
 20 21  1  0
 21 22  1  0
 22 23  1  0
 23 24  2  0
 23 25  1  0
 25 26  1  0
 26 27  1  0
 21 28  2  0
 15  2  1  0
 28 17  1  0
 10  5  2  0
 27 25  1  0
M  CHG  4   6  -1   9  -1  11  -1  22  -1
M  END
>  <UniqueID>  (3498) 
57

>  <SMILES>  (3498) 
C=c1c(=Cc2[n-]c(=O)[n-]c2[O-])cc(C)n1Cc1cccc([N-]C(=O)C2CC2)c1

>  <Energy>  (3498) 
383.89808957001856

>  <Genealogy>  (3498) 
C=c1c(=Cc2[n-]c(=O)[n-]c2[O-])cc(C)n1Cc1cccc([N-]C(=O)C2CC2)c1 (protonated)
C=c1c(=Cc2[n-]c(=O)[n-]c2[O-])cc(C)n1Cc1cccc([N-]C(=O)C2CC2)c1 (3D coordinates assigned)
C=c1c(=Cc2[n-]c(=O)[n-]c2[O-])cc(C)n1Cc1cccc([N-]C(=O)C2CC2)c1 (nonaromatic ring conformer: 383.89808957001856 kcal/mol)

>  <smiles>  (3498) 
C=c1c(=Cc2[nH]c(=O)[nH]c2O)cc(C)n1Cc1cccc(NC(=O)C2CC2)c1

>  <score_type>  (3498) 
oracle

>  <origin>  (3498) 
adg

>  <m_score__min__energy>  (3498) 
-17.059999999999999

>  <m_primary>  (3498) 
energy

$$$$
74:0
     RDKit          3D

 29 31  0  0  0  0  0  0  0  0999 V2000
   60.8590   32.7510   48.8570 N   0  0  0  0  0  0  0  0  0  0  0  0
   61.3560   31.5020   48.3790 C   0  0  0  0  0  0  0  0  0  0  0  0
   62.5640   31.2050   48.5820 O   0  0  0  0  0  0  0  0  0  0  0  0
   60.4670   30.5650   47.6550 C   0  0  0  0  0  0  0  0  0  0  0  0
   59.3260   30.0300   48.2810 C   0  0  0  0  0  0  0  0  0  0  0  0
   58.4820   29.1560   47.5880 C   0  0  0  0  0  0  0  0  0  0  0  0
   58.7600   28.8090   46.2600 C   0  0  0  0  0  0  0  0  0  0  0  0
   57.8520   27.9150   45.5050 C   0  0  0  0  0  0  0  0  0  0  0  0
   57.3720   28.2610   44.3410 N   0  0  0  0  0  0  0  0  0  0  0  0
   56.4250   29.3460   44.0680 C   0  0  0  0  0  0  0  0  0  0  0  0
   57.1080   30.6890   44.1290 C   0  0  0  0  0  0  0  0  0  0  0  0
   57.4790   31.3450   42.9450 C   0  0  0  0  0  0  0  0  0  0  0  0
   58.1520   32.5700   42.9980 C   0  0  0  0  0  0  0  0  0  0  0  0
   58.4590   33.1580   44.2400 C   0  0  0  0  0  0  0  0  0  0  0  0
   59.1390   34.3810   44.3460 O   0  0  0  0  0  0  0  0  0  0  0  0
   59.5680   34.9580   45.5750 C   0  0  0  0  0  0  0  0  0  0  0  0
   58.0760   32.5070   45.4170 C   0  0  0  0  0  0  0  0  0  0  0  0
   57.4010   31.2850   45.3650 C   0  0  0  0  0  0  0  0  0  0  0  0
   57.5660   26.5510   46.0240 C   0  0  0  0  0  0  0  0  0  0  0  0
   56.2460   26.1110   46.2450 C   0  0  0  0  0  0  0  0  0  0  0  0
   55.1610   26.9310   45.9560 O   0  0  0  0  0  0  0  0  0  0  0  0
   56.0160   24.8630   46.7270 N   0  0  0  0  0  0  0  0  0  0  0  0
   57.0380   24.0160   47.0020 C   0  0  0  0  0  0  0  0  0  0  0  0
   56.7960   22.8650   47.4470 O   0  0  0  0  0  0  0  0  0  0  0  0
   58.3190   24.4080   46.7970 N   0  0  0  0  0  0  0  0  0  0  0  0
   58.6080   25.6470   46.3190 C   0  0  0  0  0  0  0  0  0  0  0  0
   59.8150   25.9740   46.1640 O   0  0  0  0  0  0  0  0  0  0  0  0
   59.9060   29.3210   45.6380 C   0  0  0  0  0  0  0  0  0  0  0  0
   60.7490   30.1970   46.3270 C   0  0  0  0  0  0  0  0  0  0  0  0
  1  2  1  0
  2  3  2  0
  2  4  1  0
  4  5  2  0
  5  6  1  0
  6  7  2  0
  7  8  1  0
  8  9  2  0
  9 10  1  0
 10 11  1  0
 11 12  2  0
 12 13  1  0
 13 14  2  0
 14 15  1  0
 15 16  1  0
 14 17  1  0
 17 18  2  0
  8 19  1  0
 19 20  2  0
 20 21  1  0
 20 22  1  0
 22 23  1  0
 23 24  2  0
 23 25  1  0
 25 26  1  0
 26 27  2  0
  7 28  1  0
 28 29  2  0
 29  4  1  0
 18 11  1  0
 26 19  1  0
M  CHG  4   1  -1  21  -1  22  -1  25  -1
M  END
>  <UniqueID>  (3499) 
68

>  <SMILES>  (3499) 
COc1ccc(C/N=C(\c2ccc(C([NH-])=O)cc2)c2c([O-])[n-]c(=O)[n-]c2=O)cc1

>  <Energy>  (3499) 
56.33877515216803

>  <Genealogy>  (3499) 
COc1ccc(CN=C(c2ccc(C([NH-])=O)cc2)c2c([O-])[n-]c(=O)[n-]c2=O)cc1 (protonated)
COc1ccc(C/N=C(\c2ccc(C([NH-])=O)cc2)c2c([O-])[n-]c(=O)[n-]c2=O)cc1 (cis-trans isomerization)
COc1ccc(C/N=C(\c2ccc(C([NH-])=O)cc2)c2c([O-])[n-]c(=O)[n-]c2=O)cc1 (3D coordinates assigned)
COc1ccc(C/N=C(\c2ccc(C([NH-])=O)cc2)c2c([O-])[n-]c(=O)[n-]c2=O)cc1 (optimized conformer: 56.33877515216803 kcal/mol)

>  <smiles>  (3499) 
COc1ccc(CN=C(c2ccc(C(N)=O)cc2)c2c(O)[nH]c(=O)[nH]c2=O)cc1

>  <score_type>  (3499) 
oracle

>  <origin>  (3499) 
adg

>  <m_score__min__energy>  (3499) 
-15.73

>  <m_primary>  (3499) 
energy

$$$$
79:0
     RDKit          3D

 27 29  0  0  0  0  0  0  0  0999 V2000
   57.1620   34.9260   44.8590 O   0  0  0  0  0  0  0  0  0  0  0  0
   57.5530   33.6380   45.2210 C   0  0  0  0  0  0  0  0  0  0  0  0
   57.3690   32.5250   44.4250 C   0  0  0  0  0  0  0  0  0  0  0  0
   57.8910   31.4600   45.1360 C   0  0  0  0  0  0  0  0  0  0  0  0
   58.0720   30.0620   44.6340 C   0  0  0  0  0  0  0  0  0  0  0  0
   56.7350   29.4730   44.3140 C   0  0  0  0  0  0  0  0  0  0  0  0
   56.1620   29.7640   43.2300 O   0  0  0  0  0  0  0  0  0  0  0  0
   56.1190   28.5670   45.2360 N   0  0  0  0  0  0  0  0  0  0  0  0
   56.6080   27.4530   45.7120 C   0  0  0  0  0  0  0  0  0  0  0  0
   57.9530   27.3860   45.9110 N   0  0  0  0  0  0  0  0  0  0  0  0
   58.5640   26.2870   46.4230 C   0  0  0  0  0  0  0  0  0  0  0  0
   57.8120   25.1690   46.7740 C   0  0  0  0  0  0  0  0  0  0  0  0
   56.4300   25.1960   46.5960 C   0  0  0  0  0  0  0  0  0  0  0  0
   55.8110   26.3320   46.0730 C   0  0  0  0  0  0  0  0  0  0  0  0
   54.4260   26.3330   45.9560 O   0  0  0  0  0  0  0  0  0  0  0  0
   58.3820   31.9810   46.3160 C   0  0  0  0  0  0  0  0  0  0  0  0
   59.0410   31.2480   47.2980 O   0  0  0  0  0  0  0  0  0  0  0  0
   58.1680   33.3100   46.3820 N   0  0  0  0  0  0  0  0  0  0  0  0
   58.6840   34.2170   47.4100 C   0  0  0  0  0  0  0  0  0  0  0  0
   60.1870   34.1200   47.4790 C   0  0  0  0  0  0  0  0  0  0  0  0
   60.9440   33.9170   46.3140 C   0  0  0  0  0  0  0  0  0  0  0  0
   62.3310   33.7710   46.3920 C   0  0  0  0  0  0  0  0  0  0  0  0
   62.9750   33.8170   47.6310 C   0  0  0  0  0  0  0  0  0  0  0  0
   62.2300   34.0100   48.8090 C   0  0  0  0  0  0  0  0  0  0  0  0
   62.8240   34.0470   50.0800 O   0  0  0  0  0  0  0  0  0  0  0  0
   63.9810   33.3030   50.4480 C   0  0  0  0  0  0  0  0  0  0  0  0
   60.8410   34.1630   48.7220 C   0  0  0  0  0  0  0  0  0  0  0  0
  1  2  1  0
  2  3  2  0
  3  4  1  0
  4  5  1  0
  5  6  1  0
  6  7  2  0
  6  8  1  0
  8  9  2  0
  9 10  1  0
 10 11  1  0
 11 12  2  0
 12 13  1  0
 13 14  2  0
 14 15  1  0
  4 16  2  0
 16 17  1  0
 16 18  1  0
 18 19  1  0
 19 20  1  0
 20 21  2  0
 21 22  1  0
 22 23  2  0
 23 24  1  0
 24 25  1  0
 25 26  1  0
 24 27  2  0
 18  2  1  0
 27 20  1  0
 14  9  1  0
M  CHG  3  10  -1  15  -1  17  -1
M  END
>  <UniqueID>  (3500) 
72

>  <SMILES>  (3500) 
COc1cccc(Cn2c(O)cc(CC(=O)/N=c3/[n-]cccc3[O-])c2[O-])c1

>  <Energy>  (3500) 
78.89273245972275

>  <Genealogy>  (3500) 
COc1cccc(Cn2c(O)cc(CC(=O)N=c3[n-]cccc3[O-])c2[O-])c1 (protonated)
COc1cccc(Cn2c(O)cc(CC(=O)/N=c3/[n-]cccc3[O-])c2[O-])c1 (cis-trans isomerization)
COc1cccc(Cn2c(O)cc(CC(=O)/N=c3/[n-]cccc3[O-])c2[O-])c1 (3D coordinates assigned)
COc1cccc(Cn2c(O)cc(CC(=O)/N=c3/[n-]cccc3[O-])c2[O-])c1 (optimized conformer: 78.89273245972275 kcal/mol)

>  <smiles>  (3500) 
COc1cccc(Cn2c(O)cc(CC(=O)N=c3[nH]cccc3O)c2O)c1

>  <score_type>  (3500) 
oracle

>  <origin>  (3500) 
adg

>  <m_score__min__energy>  (3500) 
-14.24

>  <m_primary>  (3500) 
energy

$$$$
88:0
     RDKit          3D

 28 31  0  0  0  0  0  0  0  0999 V2000
   57.4460   31.6040   44.8570 C   0  0  0  0  0  0  0  0  0  0  0  0
   57.8310   30.3450   45.0830 C   0  0  0  0  0  0  0  0  0  0  0  0
   57.1850   29.2860   44.5380 N   0  0  0  0  0  0  0  0  0  0  0  0
   57.8950   28.2130   44.9440 C   0  0  0  0  0  0  0  0  0  0  0  0
   57.5910   26.9370   44.6610 C   0  0  0  0  0  0  0  0  0  0  0  0
   57.1020   25.9610   45.6550 C   0  0  0  0  0  0  0  0  0  0  0  0
   57.8420   24.9220   46.0780 N   0  0  0  0  0  0  0  0  0  0  0  0
   57.0160   24.2660   46.9220 C   0  0  0  0  0  0  0  0  0  0  0  0
   57.3630   23.2240   47.5360 O   0  0  0  0  0  0  0  0  0  0  0  0
   55.7880   24.8100   47.0470 N   0  0  0  0  0  0  0  0  0  0  0  0
   55.8510   25.8760   46.2340 C   0  0  0  0  0  0  0  0  0  0  0  0
   54.7710   26.7160   45.9930 O   0  0  0  0  0  0  0  0  0  0  0  0
   58.9430   28.6410   45.7300 C   0  0  0  0  0  0  0  0  0  0  0  0
   59.7950   27.9070   46.3000 O   0  0  0  0  0  0  0  0  0  0  0  0
   58.9110   29.9840   45.8240 N   0  0  0  0  0  0  0  0  0  0  0  0
   59.8140   30.8120   46.5760 C   0  0  0  0  0  0  0  0  0  0  0  0
   61.1630   30.4500   46.7160 C   0  0  0  0  0  0  0  0  0  0  0  0
   62.0430   31.2660   47.4310 C   0  0  0  0  0  0  0  0  0  0  0  0
   61.5900   32.4600   48.0180 C   0  0  0  0  0  0  0  0  0  0  0  0
   62.5010   33.3090   48.7430 N   0  0  0  0  0  0  0  0  0  0  0  0
   62.0400   34.0520   49.9210 C   0  0  0  0  0  0  0  0  0  0  0  0
   63.2310   34.4560   50.8090 C   0  0  0  0  0  0  0  0  0  0  0  0
   64.2780   33.4100   50.8410 N   0  0  0  0  0  0  0  0  0  0  0  0
   63.7930   32.1800   51.5000 C   0  0  0  0  0  0  0  0  0  0  0  0
   64.8470   33.1170   49.4950 C   0  0  0  0  0  0  0  0  0  0  0  0
   63.8980   33.4550   48.3270 C   0  0  0  0  0  0  0  0  0  0  0  0
   60.2440   32.8310   47.8580 C   0  0  0  0  0  0  0  0  0  0  0  0
   59.3650   32.0150   47.1410 C   0  0  0  0  0  0  0  0  0  0  0  0
  1  2  2  0
  2  3  1  0
  3  4  1  0
  4  5  2  0
  5  6  1  0
  6  7  1  0
  7  8  1  0
  8  9  2  0
  8 10  1  0
 10 11  1  0
 11 12  1  0
  4 13  1  0
 13 14  2  0
 13 15  1  0
 15 16  1  0
 16 17  2  0
 17 18  1  0
 18 19  2  0
 19 20  1  0
 20 21  1  0
 21 22  1  0
 22 23  1  0
 23 24  1  0
 23 25  1  0
 25 26  1  0
 19 27  1  0
 27 28  2  0
 15  2  1  0
 28 16  1  0
 11  6  2  0
 26 20  1  0
M  CHG  5   3  -1   7  -1  10  -1  12  -1  23   1
M  END
>  <UniqueID>  (3501) 
81

>  <SMILES>  (3501) 
C=c1[n-]/c(=C\c2[n-]c(=O)[n-]c2[O-])c(=O)n1-c1ccc(N2CC[NH+](C)CC2)cc1

>  <Energy>  (3501) 
134.7526510687414

>  <Genealogy>  (3501) 
C=c1[n-]c(=Cc2[n-]c(=O)[n-]c2[O-])c(=O)n1-c1ccc(N2CC[NH+](C)CC2)cc1 (protonated)
C=c1[n-]/c(=C\c2[n-]c(=O)[n-]c2[O-])c(=O)n1-c1ccc(N2CC[NH+](C)CC2)cc1 (cis-trans isomerization)
C=c1[n-]/c(=C\c2[n-]c(=O)[n-]c2[O-])c(=O)n1-c1ccc(N2CC[NH+](C)CC2)cc1 (3D coordinates assigned)
C=c1[n-]/c(=C\c2[n-]c(=O)[n-]c2[O-])c(=O)n1-c1ccc(N2CC[NH+](C)CC2)cc1 (nonaromatic ring conformer: 134.7526510687414 kcal/mol)

>  <smiles>  (3501) 
C=c1[nH]c(=Cc2[nH]c(=O)[nH]c2O)c(=O)n1-c1ccc(N2CCN(C)CC2)cc1

>  <score_type>  (3501) 
oracle

>  <origin>  (3501) 
adg

>  <m_score__min__energy>  (3501) 
-15.85

>  <m_primary>  (3501) 
energy

$$$$
